
#######################################################################
#
#                 Cambridge Crystallographic Data Centre
#                                CCDC 
#
#######################################################################
#
# If this CIF has been generated from an entry in the Cambridge 
# Structural Database, then it will include bibliographic, chemical, 
# crystal, experimental, refinement or atomic coordinate data resulting 
# from the CCDC's data processing and validation procedures.
#
#######################################################################

data_RUGXIB
_chemical_formula_moiety         '(C14 H13 Ag1 Cl1 Dy1 N2 O11)n'
_symmetry_cell_setting           monoclinic
_symmetry_space_group_name_H-M   'P 21/c'
_symmetry_Int_Tables_number      14
_space_group_name_Hall           '-P 2ybc'
loop_
_symmetry_equiv_pos_site_id
_symmetry_equiv_pos_as_xyz
1 x,y,z
2 -x,1/2+y,1/2-z
3 -x,-y,-z
4 x,1/2-y,1/2+z
_cell_length_a                   16.1682(15)
_cell_length_b                   15.1020(14)
_cell_length_c                   7.9846(7)
_cell_angle_alpha                90
_cell_angle_beta                 92.8450(10)
_cell_angle_gamma                90
_cell_volume                     1947.21
loop_
_atom_site_label
_atom_site_type_symbol
_atom_site_fract_x
_atom_site_fract_y
_atom_site_fract_z
_atom_site_U_iso_or_equiv
_atom_site_thermal_displace_type
Dy1 Dy 0.454540(11) 0.616178(12) 1.04948(2) 0.0185 Uani
Ag1 Ag 0.97316(3) 0.73989(4) 0.60071(7) 0.0667 Uani
O1 O 0.35829(18) 0.81592(19) 0.7190(4) 0.0300 Uani
O2 O 0.38143(17) 0.68117(19) 0.8281(4) 0.0263 Uani
O3 O 0.5762(2) 0.6330(2) 0.9080(5) 0.0403 Uani
O4 O 0.63060(19) 0.49745(19) 0.8632(5) 0.0401 Uani
O5 O 0.5347(2) 0.6149(2) 1.3147(4) 0.0360 Uani
O6 O 0.54781(19) 0.4970(2) 1.1607(4) 0.0320 Uani
O7 O 0.4979(2) 0.7687(2) 1.0758(4) 0.0360 Uani
H1 H 0.518(3) 0.795(3) 1.002(6) 0.0540 Uiso
H2 H 0.475(3) 0.800(3) 1.139(6) 0.0540 Uiso
N1 N 0.0943(2) 0.7527(3) 0.9981(6) 0.0406 Uani
N2 N 0.8576(3) 0.6967(3) 0.6991(6) 0.0500 Uani
C1 C 0.2516(3) 0.7494(3) 0.8695(5) 0.0229 Uani
C2 C 0.2116(3) 0.6710(3) 0.9112(6) 0.0314 Uani
H3 H 0.2372 0.6165 0.8967 0.0370 Uiso
C3 C 0.1336(3) 0.6753(3) 0.9741(7) 0.0388 Uani
H4 H 0.1072 0.6229 1.0008 0.0470 Uiso
C4 C 0.1333(3) 0.8284(4) 0.9589(7) 0.0446 Uani
H5 H 0.1068 0.8821 0.9760 0.0540 Uiso
C5 C 0.2109(3) 0.8294(3) 0.8945(6) 0.0337 Uani
H6 H 0.2358 0.8828 0.8680 0.0400 Uiso
C6 C 0.3367(2) 0.7495(3) 0.8008(5) 0.0199 Uani
C7 C 0.6332(3) 0.5809(3) 0.8637(6) 0.0302 Uani
C8 C 0.7113(3) 0.6231(3) 0.8058(6) 0.0296 Uani
C9 C 0.7156(3) 0.7123(3) 0.7613(7) 0.0408 Uani
H7 H 0.6693 0.7486 0.7668 0.0490 Uiso
C10 C 0.7894(3) 0.7458(4) 0.7088(8) 0.0491 Uani
H8 H 0.7917 0.8053 0.6791 0.0590 Uiso
C11 C 0.8533(3) 0.6108(4) 0.7457(9) 0.0571 Uani
H9 H 0.9009 0.5763 0.7427 0.0680 Uiso
C12 C 0.7818(3) 0.5719(3) 0.7975(7) 0.0432 Uani
H10 H 0.7810 0.5123 0.8264 0.0510 Uiso
C13 C 0.5697(3) 0.5411(3) 1.2898(5) 0.0277 Uani
C14 C 0.6271(11) 0.5015(17) 1.421(3) 0.0455 Uani
H11 H 0.6719 0.5418 1.4467 0.0680 Uiso
H12 H 0.6487 0.4468 1.3804 0.0680 Uiso
H13 H 0.5976 0.4905 1.5203 0.0680 Uiso
Dy1C Dy 0.454540(11) 0.883822(12) 0.54948(2) 0.0185 Uani
Dy1B Dy 0.545460(11) 0.383822(12) 0.95052(2) 0.0185 Uani
Ag1C Ag -0.02684(3) 0.76011(4) 1.10071(7) 0.0667 Uani
O1C O 0.35829(18) 0.68408(19) 1.2190(4) 0.0300 Uani
O4B O 0.36940(19) 0.50255(19) 1.1368(5) 0.0401 Uani
O6B O 0.45219(19) 0.5030(2) 0.8393(4) 0.0320 Uani
N1C N 1.0943(2) 0.7473(3) 0.4981(6) 0.0406 Uani
Cl1 Cl 0.9216(7) 0.9553(8) 0.7502(15) 0.0633 Uani
O8 O 0.9307(9) 0.8895(9) 0.8748(17) 0.1248 Uani
O9 O 0.9565(10) 0.9226(10) 0.6054(17) 0.1395 Uani
O10 O 0.9612(10) 1.0334(9) 0.809(2) 0.0903 Uani
O11 O 0.8355(6) 0.9715(7) 0.720(2) 0.1014 Uani
loop_
_atom_site_aniso_label
_atom_site_aniso_U_11
_atom_site_aniso_U_22
_atom_site_aniso_U_33
_atom_site_aniso_U_23
_atom_site_aniso_U_13
_atom_site_aniso_U_12
Dy1 0.01576(11) 0.01481(11) 0.02554(12) 0.00006(8) 0.00650(8) 0.00081(7)
Ag1 0.0261(2) 0.0917(4) 0.0846(4) 0.0028(3) 0.0267(2) -0.0148(2)
O1 0.0256(16) 0.0230(16) 0.0424(19) 0.0096(14) 0.0128(14) 0.0016(13)
O2 0.0190(15) 0.0247(15) 0.0357(18) 0.0049(13) 0.0055(13) 0.0039(12)
O3 0.0302(19) 0.0227(17) 0.071(3) -0.0015(16) 0.0332(18) -0.0018(13)
O4 0.0337(18) 0.0193(16) 0.070(2) -0.0028(16) 0.0288(17) -0.0035(14)
O5 0.044(2) 0.0315(18) 0.0319(18) -0.0092(14) -0.0040(15) 0.0101(15)
O6 0.0376(18) 0.0270(16) 0.0304(17) -0.0062(14) -0.0078(14) 0.0082(14)
O7 0.049(2) 0.0228(17) 0.038(2) -0.0029(14) 0.0213(17) -0.0094(15)
N1 0.023(2) 0.049(3) 0.051(3) -0.003(2) 0.0138(19) 0.0021(18)
N2 0.028(2) 0.050(3) 0.074(3) -0.002(2) 0.022(2) -0.009(2)
C1 0.017(2) 0.028(2) 0.024(2) 0.0033(17) 0.0038(17) 0.0005(17)
C2 0.020(2) 0.026(2) 0.049(3) 0.000(2) 0.011(2) -0.0004(18)
C3 0.025(2) 0.037(3) 0.056(3) -0.001(2) 0.017(2) -0.006(2)
C4 0.033(3) 0.040(3) 0.062(4) -0.002(3) 0.014(3) 0.013(2)
C5 0.027(2) 0.025(2) 0.050(3) 0.004(2) 0.012(2) 0.0046(19)
C6 0.016(2) 0.020(2) 0.024(2) 0.0002(17) 0.0040(17) -0.0002(16)
C7 0.023(2) 0.028(2) 0.041(3) -0.001(2) 0.016(2) -0.0069(19)
C8 0.023(2) 0.026(2) 0.041(3) -0.003(2) 0.014(2) -0.0048(18)
C9 0.025(3) 0.029(3) 0.070(4) 0.004(2) 0.017(2) 0.000(2)
C10 0.032(3) 0.036(3) 0.081(4) 0.007(3) 0.021(3) -0.010(2)
C11 0.026(3) 0.047(3) 0.100(5) -0.004(3) 0.019(3) 0.000(2)
C12 0.027(3) 0.031(3) 0.073(4) -0.001(3) 0.017(3) 0.001(2)
C13 0.026(2) 0.032(2) 0.025(2) -0.0022(19) -0.0008(19) 0.0036(19)
C14 0.046(6) 0.045(5) 0.044(6) -0.003(4) -0.012(5) 0.006(5)
Dy1C 0.01576 0.01481 0.02554 -6e-05 0.0065 -0.00081
Dy1B 0.01576 0.01481 0.02554 6e-05 0.0065 0.00081
Ag1C 0.0261 0.0917 0.0846 -0.0028 0.0267 0.0148
O1C 0.0256 0.023 0.0424 -0.0096 0.0128 -0.0016
O4B 0.0337 0.0193 0.07 -0.0028 0.0288 -0.0035
O6B 0.0376 0.027 0.0304 -0.0062 -0.0078 0.0082
N1C 0.023 0.049 0.051 0.003 0.0138 -0.0021
Cl1 0.0616(15) 0.0502(16) 0.0776(16) -0.0024(12) -0.0019(11) 0.0036(11)
O8 0.140(10) 0.120(9) 0.112(8) 0.066(7) -0.017(7) -0.019(7)
O9 0.163(10) 0.142(9) 0.119(9) -0.035(7) 0.063(8) 0.012(8)
O10 0.074(8) 0.082(9) 0.115(10) -0.038(7) 0.006(7) -0.034(7)
O11 0.055(6) 0.088(7) 0.160(10) 0.008(7) -0.008(6) 0.004(5)
loop_
_geom_bond_atom_site_label_1
_geom_bond_atom_site_label_2
_geom_bond_site_symmetry_1
_geom_bond_site_symmetry_2
Dy1 O2 1_555 1_555
Ag1 N2 1_555 1_555
O1 C6 1_555 1_555
O2 C6 1_555 1_555
O3 Dy1 1_555 1_555
O4 C7 1_555 1_555
O5 Dy1 1_555 1_555
O6 Dy1 1_555 1_555
O7 Dy1 1_555 1_555
H1 O7 1_555 1_555
H2 O7 1_555 1_555
N1 C3 1_555 1_555
N2 C10 1_555 1_555
C1 C2 1_555 1_555
C2 H3 1_555 1_555
C3 C2 1_555 1_555
H4 C3 1_555 1_555
C4 N1 1_555 1_555
H5 C4 1_555 1_555
C5 C1 1_555 1_555
H6 C5 1_555 1_555
C6 C1 1_555 1_555
C7 O3 1_555 1_555
C8 C7 1_555 1_555
C9 C8 1_555 1_555
H7 C9 1_555 1_555
C10 C9 1_555 1_555
H8 C10 1_555 1_555
C11 N2 1_555 1_555
H9 C11 1_555 1_555
C12 C8 1_555 1_555
H10 C12 1_555 1_555
C13 O5 1_555 1_555
C14 C13 1_555 1_555
H11 C14 1_555 1_555
H12 C14 1_555 1_555
H13 C14 1_555 1_555
Cl1 O8 1_555 1_555
O9 Cl1 1_555 1_555
O10 Cl1 1_555 1_555
O11 Cl1 1_555 1_555
Dy1C O1 1_555 1_555
Dy1B O4 1_555 1_555
Ag1C N1 1_555 1_555
O1C Dy1 1_555 1_555
O4B Dy1 1_555 1_555
O6B Dy1 1_555 1_555
N1C Ag1 1_555 1_555
O6 C13 1_555 1_555
O6 Dy1B 1_555 1_555
C4 C5 1_555 1_555
C11 C12 1_555 1_555
Dy1B O6B 1_555 1_555

#END
