
#######################################################################
#
#                 Cambridge Crystallographic Data Centre
#                                CCDC 
#
#######################################################################
#
# If this CIF has been generated from an entry in the Cambridge 
# Structural Database, then it will include bibliographic, chemical, 
# crystal, experimental, refinement or atomic coordinate data resulting 
# from the CCDC's data processing and validation procedures.
#
#######################################################################

data_GAFGEC
_chemical_formula_moiety         'C40 H26 Fe12 N1 O36 S4 1+'
_symmetry_cell_setting           orthorhombic
_symmetry_space_group_name_H-M   'F d d d'
_symmetry_Int_Tables_number      70
_space_group_name_Hall           '-F 2uv 2vw'
loop_
_symmetry_equiv_pos_site_id
_symmetry_equiv_pos_as_xyz
1 x,y,z
2 3/4-x,3/4-y,z
3 3/4-x,y,3/4-z
4 x,3/4-y,3/4-z
5 x,1/2+y,1/2+z
6 3/4-x,1/4-y,1/2+z
7 3/4-x,1/2+y,1/4-z
8 x,1/4-y,1/4-z
9 1/2+x,y,1/2+z
10 1/4-x,3/4-y,1/2+z
11 1/4-x,y,1/4-z
12 1/2+x,3/4-y,1/4-z
13 1/2+x,1/2+y,z
14 1/4-x,1/4-y,z
15 1/4-x,1/2+y,3/4-z
16 1/2+x,1/4-y,3/4-z
17 -x,-y,-z
18 1/4+x,1/4+y,-z
19 1/4+x,-y,1/4+z
20 -x,1/4+y,1/4+z
21 -x,1/2-y,1/2-z
22 1/4+x,3/4+y,1/2-z
23 1/4+x,1/2-y,3/4+z
24 -x,3/4+y,3/4+z
25 1/2-x,-y,1/2-z
26 3/4+x,1/4+y,1/2-z
27 3/4+x,-y,3/4+z
28 1/2-x,1/4+y,3/4+z
29 1/2-x,1/2-y,-z
30 3/4+x,3/4+y,-z
31 3/4+x,1/2-y,1/4+z
32 1/2-x,3/4+y,1/4+z
_cell_length_a                   16.7581(7)
_cell_length_b                   18.8268(9)
_cell_length_c                   38.9998(18)
_cell_angle_alpha                90
_cell_angle_beta                 90
_cell_angle_gamma                90
_cell_volume                     12304.5
loop_
_atom_site_label
_atom_site_type_symbol
_atom_site_fract_x
_atom_site_fract_y
_atom_site_fract_z
N1 N 0.4743(3) 0.5501(3) 0.24571(13)
H6 H 0.4221 0.5616 0.2505
C11 C 0.5054(4) 0.6001(4) 0.2201(2)
H7 H 0.4724 0.5979 0.1994
H8 H 0.5605 0.5873 0.2144
H9 H 0.5041 0.6484 0.2295
C12 C 0.5200(5) 0.5509(5) 0.2772(2)
H10 H 0.5735 0.5319 0.2728
H11 H 0.4931 0.5215 0.2944
H12 H 0.5242 0.5998 0.2856
C1 C 0.6153(14) 0.1109(12) 0.1893(2)
C2 C 0.6194(5) 0.0401(6) 0.1747(2)
H1 H 0.6249 -0.0001 0.1893
C3 C 0.6153(5) 0.0313(4) 0.1400(2)
C4 C 0.6132(5) 0.1595(4) 0.13171(19)
C5 C 0.6129(6) 0.1674(6) 0.1687(3)
H2 H 0.6109 0.2136 0.1784
Fe1 Fe 0.3750 0.3750 0.20508(2)
C6 C 0.4235(3) 0.1067(2) 0.15932(11)
H3 H 0.4246 0.0939 0.1829
Fe2 Fe 0.5000 0.2500 0.2500
C7 C 0.6250 0.1250 0.22704(15)
S1 S 0.56956(8) 0.39589(7) 0.20846(4)
O1 O 0.60037(17) 0.17851(15) 0.24403(7)
O2 O 0.48723(18) 0.42304(16) 0.20864(8)
H4 H 0.6250 -0.015(4) 0.1250
O3 O 0.40760(19) 0.29728(16) 0.16945(7)
O4 O 0.4441(2) 0.21393(16) 0.20721(8)
O5 O 0.57243(19) 0.32575(18) 0.22430(10)
C8 C 0.4256(3) 0.2345(2) 0.17740(11)
O6 O 0.5946(3) 0.3878(3) 0.17277(13)
C9 C 0.4232(3) 0.1785(2) 0.15001(11)
C10 C 0.4223(3) 0.1957(2) 0.11555(11)
H5 H 0.4208 0.2442 0.1088
O7 O 0.6220(3) 0.4437(3) 0.2255(2)
C1G C 0.6153(14) 0.1391(12) 0.0607(2)
C2G C 0.6194(5) 0.2099(6) 0.0753(2)
H1G H 0.6249 0.2501 0.0607
C3G C 0.6153(5) 0.2187(4) 0.1100(2)
C4G C 0.6132(5) 0.0905(4) 0.11829(19)
C5G C 0.6129(6) 0.0826(6) 0.0813(3)
H2G H 0.6109 0.0364 0.0716
C7G C 0.6250 0.1250 0.02296(15)
O1G O 0.60037(17) 0.07149(15) 0.00597(7)
H4G H 0.6250 0.265(4) 0.1250
C1J C 0.6347(14) 0.1109(12) 0.0607(2)
C2J C 0.6306(5) 0.0401(6) 0.0753(2)
H1J H 0.6251 -0.0001 0.0607
C3J C 0.6347(5) 0.0313(4) 0.1100(2)
C4J C 0.6368(5) 0.1595(4) 0.11829(19)
C5J C 0.6371(6) 0.1674(6) 0.0813(3)
H2J H 0.6391 0.2136 0.0716
O1J O 0.64963(17) 0.17851(15) 0.00597(7)
C1M C 0.6347(14) 0.1391(12) 0.1893(2)
C2M C 0.6306(5) 0.2099(6) 0.1747(2)
H1M H 0.6251 0.2501 0.1893
C3M C 0.6347(5) 0.2187(4) 0.1400(2)
C4M C 0.6368(5) 0.0905(4) 0.13171(19)
C5M C 0.6371(6) 0.0826(6) 0.1687(3)
H2M H 0.6391 0.0364 0.1784
O1M O 0.64963(17) 0.07149(15) 0.24403(7)
C6G C 0.4235(3) 0.1433(2) 0.09068(11)
H3G H 0.4246 0.1561 0.0671
O3G O 0.40760(19) -0.04728(16) 0.08055(7)
O4G O 0.4441(2) 0.03607(16) 0.04279(8)
C8G C 0.4256(3) 0.0155(2) 0.07260(11)
C9G C 0.4232(3) 0.0715(2) 0.09999(11)
C10G C 0.4223(3) 0.0543(2) 0.13445(11)
H5G H 0.4208 0.0058 0.1412
Fe2A Fe 0.2500 0.5000 0.2500
S1A S 0.18044(8) 0.35411(7) 0.20846(4)
O2A O 0.26277(18) 0.32696(16) 0.20864(8)
O5A O 0.17757(19) 0.42425(18) 0.22430(10)
O6A O 0.1554(3) 0.3622(3) 0.17277(13)
O7A O 0.1280(3) 0.3063(3) 0.2255(2)
C6A C 0.3265(3) 0.6433(2) 0.15932(11)
H3A H 0.3254 0.6561 0.1829
O3A O 0.34240(19) 0.45272(16) 0.16945(7)
O4A O 0.3059(2) 0.53607(16) 0.20721(8)
C8A C 0.3244(3) 0.5155(2) 0.17740(11)
C9A C 0.3268(3) 0.5715(2) 0.15001(11)
C10A C 0.3277(3) 0.5543(2) 0.11555(11)
H5A H 0.3292 0.5058 0.1088
C6F C 0.3265(3) 0.6067(2) 0.09068(11)
H3F H 0.3254 0.5939 0.0671
O3F O 0.34240(19) 0.79728(16) 0.08055(7)
O4F O 0.3059(2) 0.71393(16) 0.04279(8)
C8F C 0.3244(3) 0.7345(2) 0.07260(11)
C9F C 0.3268(3) 0.6785(2) 0.09999(11)
C10F C 0.3277(3) 0.6957(2) 0.13445(11)
H5F H 0.3292 0.7442 0.1412
S1T S 0.43044(8) 0.10411(7) 0.29154(4)
O2T O 0.51277(18) 0.07696(16) 0.29136(8)
O5T O 0.42757(19) 0.17425(18) 0.27570(10)
O6T O 0.4054(3) 0.1122(3) 0.32723(13)
O7T O 0.3780(3) 0.0563(3) 0.2745(2)
S1Y S 0.31956(8) 0.64589(7) 0.29154(4)
O2Y O 0.23723(18) 0.67304(16) 0.29136(8)
O5Y O 0.32243(19) 0.57575(18) 0.27570(10)
O6Y O 0.3446(3) 0.6378(3) 0.32723(13)
O7Y O 0.3720(3) 0.6937(3) 0.2745(2)
Fe1T Fe 0.6250 0.1250 0.29492(2)
Fe1F Fe 0.3750 -0.1250 0.04492(2)
Fe1F_2 Fe 0.3750 0.8750 0.04492(2)
Fe1V Fe 0.6250 0.1250 -0.04492(2)
Fe1X Fe 0.1250 0.6250 0.29492(2)
Fe2F Fe 0.2500 0.7500 0.0000
Fe2G Fe 0.5000 0.0000 0.0000
Fe2J Fe 0.7500 0.2500 0.0000
Fe2M Fe 0.7500 0.0000 0.2500
O1A O 0.14963(17) 0.57149(15) 0.24403(7)
O1T O 0.39963(17) 0.32149(15) 0.25597(7)
O1Y O 0.35037(17) 0.42851(15) 0.25597(7)
O2U O 0.73723(18) 0.17304(16) 0.29136(8)
O3T O 0.59240(19) 0.20272(16) 0.33055(7)
O3U O 0.65760(19) 0.04728(16) 0.33055(7)
O4T O 0.5559(2) 0.28607(16) 0.29279(8)
O4Y O 0.1941(2) 0.46393(16) 0.29279(8)
loop_
_geom_bond_atom_site_label_1
_geom_bond_atom_site_label_2
_geom_bond_site_symmetry_1
_geom_bond_site_symmetry_2
C1 C2 1_555 1_555
C2 H1 1_555 1_555
C3 C2 1_555 1_555
C4 C5 1_555 1_555
C5 C1 1_555 1_555
H2 C5 1_555 1_555
Fe1 O2 1_555 1_555
C6 H3 1_555 1_555
Fe2 O1 1_555 1_555
C7 C1 1_555 1_555
S1 O2 1_555 1_555
O1 C7 1_555 1_555
H4 C3 1_555 1_555
O3 Fe1 1_555 1_555
O4 Fe2 1_555 1_555
O5 Fe2 1_555 1_555
C8 O3 1_555 1_555
O6 S1 1_555 1_555
C9 C6 1_555 1_555
C10 C9 1_555 1_555
H5 C10 1_555 1_555
O7 S1 1_555 1_555
N1 H6 1_555 1_555
C11 N1 1_555 1_555
H7 C11 1_555 1_555
H8 C11 1_555 1_555
H9 C11 1_555 1_555
C12 N1 1_555 1_555
H10 C12 1_555 1_555
H11 C12 1_555 1_555
H12 C12 1_555 1_555
C1G C2G 1_555 1_555
C2G H1G 1_555 1_555
C3G C4 1_555 1_555
C4G C3 1_555 1_555
C5G C1G 1_555 1_555
H2G C5G 1_555 1_555
C7G C1G 1_555 1_555
O1G C7G 1_555 1_555
H4G C3G 1_555 1_555
C1J C1G 1_555 1_555
C2J C5G 1_555 1_555
H1J C2J 1_555 1_555
C3J C3 1_555 1_555
C4J C4 1_555 1_555
C5J C1G 1_555 1_555
H2J C5J 1_555 1_555
O1J C7G 1_555 1_555
C1M C1 1_555 1_555
C2M C5 1_555 1_555
H1M C2M 1_555 1_555
C3M C4 1_555 1_555
C4M C3 1_555 1_555
C5M C1 1_555 1_555
H2M C5M 1_555 1_555
O1M C7 1_555 1_555
C6G C10 1_555 1_555
H3G C6G 1_555 1_555
O3G C8G 1_555 1_555
O4G C8G 1_555 1_555
C8G C9G 1_555 1_555
C9G C6G 1_555 1_555
C10G C6 1_555 1_555
H5G C10G 1_555 1_555
Fe2A O5A 1_555 1_555
S1A O2A 1_555 1_555
O2A Fe1 1_555 1_555
O5A S1A 1_555 1_555
O6A S1A 1_555 1_555
O7A S1A 1_555 1_555
C6A H3A 1_555 1_555
O3A Fe1 1_555 1_555
O4A Fe2A 1_555 1_555
C8A O3A 1_555 1_555
C9A C6A 1_555 1_555
C10A C9A 1_555 1_555
H5A C10A 1_555 1_555
C6F C10A 1_555 1_555
H3F C6F 1_555 1_555
O3F C8F 1_555 1_555
O4F C8F 1_555 1_555
C8F C9F 1_555 1_555
C9F C6F 1_555 1_555
C10F C6A 1_555 1_555
H5F C10F 1_555 1_555
S1T O2T 1_555 1_555
O2T Fe1T 1_555 1_555
O5T Fe2 1_555 1_555
O6T S1T 1_555 1_555
O7T S1T 1_555 1_555
S1Y O2Y 1_555 1_555
O2Y Fe1X 1_555 1_555
O5Y Fe2A 1_555 1_555
O6Y S1Y 1_555 1_555
O7Y S1Y 1_555 1_555
Fe1T O1 1_555 1_555
Fe1F O3G 1_555 1_555
Fe1F_2 O3F 1_555 1_555
Fe1V O1G 1_555 1_555
Fe1X O1A 1_555 1_555
Fe2F O4F 1_555 1_555
Fe2G O1G 1_555 1_555
Fe2J O1J 1_555 1_555
Fe2M O1M 1_555 1_555
O1A Fe2A 1_555 1_555
O1T Fe1 1_555 1_555
O1Y Fe1 1_555 1_555
O2U Fe1T 1_555 1_555
O3T Fe1T 1_555 1_555
O3U Fe1T 1_555 1_555
O4T Fe2 1_555 1_555
O4Y Fe2A 1_555 1_555
C2 C5M 1_555 1_555
C3 C5M 1_555 1_555
C4 C4G 1_555 1_555
C4 C4M 1_555 1_555
C5 C1M 1_555 1_555
C5 C3M 1_555 1_555
C5 C5M 1_555 1_555
Fe2 O1T 1_555 1_555
C7 C1M 1_555 1_555
S1 O5 1_555 1_555
H4 C3J 1_555 1_555
O4 C8 1_555 1_555
C8 C9 1_555 1_555
C2G C3G 1_555 1_555
C2G C5J 1_555 1_555
C3G C4J 1_555 1_555
C3G C5J 1_555 1_555
C3G C3M 1_555 1_555
C4G C5G 1_555 1_555
C4G C3J 1_555 1_555
C4G C4J 1_555 1_555
C4G C4M 1_555 1_555
C5G C1J 1_555 1_555
C5G C3J 1_555 1_555
C5G C5J 1_555 1_555
C7G C1J 1_555 1_555
H4G C3M 1_555 1_555
C1J C2J 1_555 1_555
C1J C5J 1_555 1_555
C2J C3J 1_555 1_555
C3J C4M 1_555 1_555
C4J C5J 1_555 1_555
C4J C3M 1_555 1_555
C4J C4M 1_555 1_555
O1J Fe1V 1_555 1_555
C1M C2M 1_555 1_555
C1M C5M 1_555 1_555
C2M C3M 1_555 1_555
C4M C5M 1_555 1_555
O1M Fe1T 1_555 1_555
O4G Fe2G 1_555 1_555
C9G C10G 1_555 1_555
Fe2A O1Y 1_555 1_555
O4A C8A 1_555 1_555
C8A C9A 1_555 1_555
C9F C10F 1_555 1_555
S1T O5T 1_555 1_555
S1Y O5Y 1_555 1_555

#END
