
#######################################################################
#
#                 Cambridge Crystallographic Data Centre
#                                CCDC 
#
#######################################################################
#
# If this CIF has been generated from an entry in the Cambridge 
# Structural Database, then it will include bibliographic, chemical, 
# crystal, experimental, refinement or atomic coordinate data resulting 
# from the CCDC's data processing and validation procedures.
#
#######################################################################

data_FATKOC
_chemical_formula_moiety         '(C16 H26 Eu2 N4 O19)n'
_symmetry_cell_setting           monoclinic
_symmetry_space_group_name_H-M   'P 21/n'
_symmetry_Int_Tables_number      14
_space_group_name_Hall           '-P 2yn'
loop_
_symmetry_equiv_pos_site_id
_symmetry_equiv_pos_as_xyz
1 x,y,z
2 1/2-x,1/2+y,1/2-z
3 -x,-y,-z
4 1/2+x,1/2-y,1/2+z
_cell_length_a                   10.2289(5)
_cell_length_b                   11.2526(5)
_cell_length_c                   22.1877(11)
_cell_angle_alpha                90
_cell_angle_beta                 96.9670(10)
_cell_angle_gamma                90
_cell_volume                     2534.99
loop_
_atom_site_label
_atom_site_type_symbol
_atom_site_fract_x
_atom_site_fract_y
_atom_site_fract_z
Eu1 Eu 0.24046(2) 0.58689(2) 0.436038(10)
Eu2 Eu -0.11046(2) 0.313100(17) 0.274430(9)
O1 O 0.1863(3) 0.4859(3) 0.34053(15)
O2 O 0.0715(3) 0.4385(3) 0.25177(15)
O3 O 0.3783(4) 0.6615(4) 0.36931(16)
O4 O 0.5237(3) 0.7450(3) 0.31779(14)
O5 O 0.9024(3) 0.3234(3) 0.38361(14)
O6 O 0.8204(3) 0.3714(4) 0.46786(15)
O7 O 0.5602(3) 0.3646(4) 0.50131(15)
O8 O 0.3731(3) 0.4139(3) 0.44626(16)
O9 O -0.3404(3) 0.6139(3) 0.18386(15)
O10 O -0.2289(3) 0.4435(3) 0.19951(14)
O11 O -0.2315(3) 0.6958(3) 0.29145(15)
O12 O -0.1326(3) 0.5211(3) 0.31100(14)
O13 O 0.1068(3) 0.4227(3) 0.46608(18)
H1 H 0.085(5) 0.419(4) 0.5016(9)
H2 H 0.045(4) 0.394(5) 0.4410(11)
O14 O 0.0162(4) 0.6442(4) 0.4014(2)
H3 H -0.039(3) 0.602(3) 0.379(3)
H4 H -0.018(3) 0.712(3) 0.406(3)
O15 O 0.2296(5) 0.8058(4) 0.4405(2)
N1 N 0.3934(4) 0.6849(3) 0.20900(17)
N2 N 0.2224(4) 0.5683(3) 0.18642(18)
H5 H 0.1612 0.5290 0.1650
N3 N 0.6638(4) 0.3392(3) 0.31443(17)
N4 N 0.4668(4) 0.3702(4) 0.34087(17)
H6 H 0.3830 0.3811 0.3378
C1 C 0.1594(4) 0.4944(4) 0.2838(2)
C2 C 0.2428(4) 0.5718(4) 0.2484(2)
C3 C 0.3488(4) 0.6458(4) 0.2621(2)
C4 C 0.4207(5) 0.6861(4) 0.3206(2)
C5 C 0.3135(5) 0.6364(4) 0.1643(2)
C6 C 0.3214(6) 0.6513(6) 0.0980(3)
H7 H 0.2736 0.5883 0.0760
H8 H 0.4119 0.6487 0.0906
H9 H 0.2837 0.7263 0.0847
C7 C 0.8062(4) 0.3482(4) 0.41253(19)
C8 C 0.6734(4) 0.3520(4) 0.3769(2)
C9 C 0.5504(4) 0.3710(4) 0.3940(2)
C10 C 0.4927(4) 0.3854(4) 0.4519(2)
C11 C 0.5366(4) 0.3496(4) 0.2945(2)
C12 C 0.4747(5) 0.3438(5) 0.2299(2)
H10 H 0.4811 0.4201 0.2111
H11 H 0.3836 0.3221 0.2287
H12 H 0.5196 0.2855 0.2084
C13 C -0.2631(4) 0.5453(4) 0.2149(2)
C14 C -0.2042(4) 0.5911(4) 0.2782(2)
Eu1B Eu 0.75954(2) 0.41311(2) 0.563962(10)
Eu2A Eu 0.61046(2) 0.813100(17) 0.225570(9)
Eu2_2 Eu 0.88954(2) 0.313100(17) 0.274430(9)
Eu2A_2 Eu -0.38954(2) 0.813100(17) 0.225570(9)
O4A O -0.0237(3) 0.2450(3) 0.18221(14)
O5_2 O -0.0976(3) 0.3234(3) 0.38361(14)
O6B O 0.1796(3) 0.6286(4) 0.53214(15)
O7B O 0.4398(3) 0.6354(4) 0.49869(15)
O9A O -0.1596(3) 0.1139(3) 0.31614(15)
O11A O -0.2685(3) 0.1958(3) 0.20855(15)
N1A N 0.1066(4) 0.1849(3) 0.29100(17)
N3_2 N -0.3362(4) 0.3392(3) 0.31443(17)
O16 O 1.1902(6) 0.8204(6) -0.0665(3)
O17 O -0.1347(6) 0.8521(5) 0.4134(2)
O18 O 0.1252(18) 0.9213(13) 0.5387(7)
O19 O 0.5515(7) 1.0689(5) 0.6031(3)
C15 C 0.449(3) 0.999(3) 0.5788(19)
C16 C 0.443(6) 0.917(4) 0.524(2)
loop_
_geom_bond_atom_site_label_1
_geom_bond_atom_site_label_2
_geom_bond_site_symmetry_1
_geom_bond_site_symmetry_2
Eu1 O1 1_555 1_555
Eu2 O2 1_555 1_555
O1 C1 1_555 1_555
O2 C1 1_555 1_555
O3 Eu1 1_555 1_555
O4 C4 1_555 1_555
O5 C7 1_555 1_555
O6 C7 1_555 1_555
O7 C10 1_555 1_555
O8 Eu1 1_555 1_555
O9 C13 1_555 1_555
O10 Eu2 1_555 1_555
O11 C14 1_555 1_555
O12 Eu2 1_555 1_555
O13 Eu1 1_555 1_555
H1 O13 1_555 1_555
H2 O13 1_555 1_555
O14 Eu1 1_555 1_555
H3 O14 1_555 1_555
H4 O14 1_555 1_555
O15 Eu1 1_555 1_555
O19 C15 1_555 1_555
N1 C3 1_555 1_555
N2 H5 1_555 1_555
N3 C8 1_555 1_555
N4 H6 1_555 1_555
C1 C2 1_555 1_555
C2 N2 1_555 1_555
C3 C2 1_555 1_555
C4 O3 1_555 1_555
C5 N1 1_555 1_555
C6 C5 1_555 1_555
H7 C6 1_555 1_555
H8 C6 1_555 1_555
H9 C6 1_555 1_555
C7 C8 1_555 1_555
C8 C9 1_555 1_555
C9 N4 1_555 1_555
C10 O8 1_555 1_555
C11 N3 1_555 1_555
C12 C11 1_555 1_555
H10 C12 1_555 1_555
H11 C12 1_555 1_555
H12 C12 1_555 1_555
C13 O10 1_555 1_555
C14 O12 1_555 1_555
C15 C16 1_555 1_555
Eu1B O6 1_555 1_555
Eu2A O4 1_555 1_555
Eu2_2 O5 1_555 1_555
Eu2A_2 O9 1_555 1_555
O4A Eu2 1_555 1_555
O5_2 Eu2 1_555 1_555
O6B Eu1 1_555 1_555
O7B Eu1 1_555 1_555
O9A Eu2 1_555 1_555
O11A Eu2 1_555 1_555
N1A Eu2 1_555 1_555
N3_2 Eu2 1_555 1_555
O7 Eu1B 1_555 1_555
O11 Eu2A_2 1_555 1_555
N1 Eu2A 1_555 1_555
N2 C5 1_555 1_555
N3 Eu2_2 1_555 1_555
N4 C11 1_555 1_555
C3 C4 1_555 1_555
C9 C10 1_555 1_555
C13 C14 1_555 1_555

#END
