
#######################################################################
#
#                 Cambridge Crystallographic Data Centre
#                                CCDC 
#
#######################################################################
#
# If this CIF has been generated from an entry in the Cambridge 
# Structural Database, then it will include bibliographic, chemical, 
# crystal, experimental, refinement or atomic coordinate data resulting 
# from the CCDC's data processing and validation procedures.
#
#######################################################################

data_FATKES
_chemical_formula_moiety         '(C14 H20 N4 Nd2 O18)n'
_symmetry_cell_setting           monoclinic
_symmetry_space_group_name_H-M   'P 21/n'
_symmetry_Int_Tables_number      14
_space_group_name_Hall           '-P 2yn'
loop_
_symmetry_equiv_pos_site_id
_symmetry_equiv_pos_as_xyz
1 x,y,z
2 1/2-x,1/2+y,1/2-z
3 -x,-y,-z
4 1/2+x,1/2-y,1/2+z
_cell_length_a                   10.3246(15)
_cell_length_b                   11.3359(17)
_cell_length_c                   22.316(3)
_cell_angle_alpha                90
_cell_angle_beta                 97.290(2)
_cell_angle_gamma                90
_cell_volume                     2590.72
loop_
_atom_site_label
_atom_site_type_symbol
_atom_site_fract_x
_atom_site_fract_y
_atom_site_fract_z
Nd1 Nd 0.10910(2) 0.69037(2) 0.225433(12)
Nd2 Nd -0.23839(3) 0.41741(3) 0.064504(13)
O1 O 0.0999(3) 0.6789(3) 0.11544(18)
O2 O 0.1802(4) 0.6252(4) 0.03236(18)
O3 O 0.4373(4) 0.6343(4) -0.00123(18)
O4 O 0.6245(4) 0.5895(3) 0.05439(19)
O5 O 0.2319(4) 0.5586(3) 0.30107(18)
O6 O 0.3422(4) 0.3908(3) 0.31572(19)
O7 O 0.1317(3) 0.4812(3) 0.19039(17)
O8 O 0.2311(4) 0.3086(3) 0.20953(18)
O9 O -0.5219(3) 0.2623(3) 0.18215(17)
O10 O -0.3751(5) 0.3413(5) 0.1316(2)
O11 O -0.1854(4) 0.5188(3) 0.16183(18)
O12 O -0.0736(4) 0.5644(3) 0.24969(19)
O13 O -0.1065(4) 0.5849(4) 0.0329(2)
H1 H -0.0450 0.6120 0.0582
H2 H -0.0839 0.5551 0.0009
O14 O -0.0104(4) 0.3622(4) 0.0977(2)
H3 H 0.0425 0.3962 0.1245
H4 H 0.0243 0.2948 0.0946
O15 O -0.2221(6) 0.1968(4) 0.0611(3)
H5 H -0.1548 0.1570 0.0557
H6 H -0.2920 0.1610 0.0474
N1 N 0.3371(4) 0.6630(4) 0.1845(2)
N2 N 0.5322(4) 0.6325(4) 0.1586(2)
H13 H 0.6154 0.6233 0.1617
N3 N -0.3905(4) 0.3188(4) 0.2909(2)
N4 N -0.2229(5) 0.4365(4) 0.3140(2)
H14 H -0.1637 0.4772 0.3353
C1 C 0.3262(5) 0.6492(5) 0.1233(2)
C2 C 0.4485(5) 0.6300(5) 0.1062(2)
C3 C 0.4627(5) 0.6517(5) 0.2047(3)
C4 C 0.1950(5) 0.6511(4) 0.0872(2)
C5 C 0.5061(5) 0.6162(5) 0.0487(3)
C6 C 0.5247(6) 0.6608(6) 0.2691(3)
H15 H 0.4794 0.7190 0.2898
H16 H 0.6145 0.6834 0.2701
H17 H 0.5197 0.5857 0.2886
C7 C 0.2644(5) 0.4581(4) 0.2850(2)
C8 C 0.2042(5) 0.4121(4) 0.2231(3)
C9 C -0.3472(5) 0.3588(5) 0.2384(2)
C10 C -0.2420(5) 0.4318(4) 0.2528(3)
C11 C -0.3124(6) 0.3665(5) 0.3360(3)
C12 C -0.4182(5) 0.3181(5) 0.1804(3)
C13 C -0.1607(5) 0.5104(4) 0.2180(2)
C14 C -0.3202(7) 0.3529(7) 0.4018(3)
H18 H -0.3784 0.4113 0.4144
H19 H -0.2349 0.3631 0.4239
H20 H -0.3523 0.2756 0.4094
Nd1A Nd 0.39090(2) 0.19037(2) 0.274567(12)
Nd1A_2 Nd -0.60910(2) 0.19037(2) 0.274567(12)
Nd2B Nd 0.23839(3) 0.58259(3) -0.064504(13)
Nd2_2 Nd 0.76161(3) 0.41741(3) 0.064504(13)
O2B O -0.1802(4) 0.3748(4) -0.03236(18)
O3B O -0.4373(4) 0.3657(4) 0.00123(18)
O4_2 O -0.3755(4) 0.5895(3) 0.05439(19)
O6A O 0.1578(4) 0.8908(3) 0.18428(19)
O8A O 0.2689(4) 0.8086(3) 0.29047(18)
O9A O 0.0219(3) 0.7623(3) 0.31785(17)
N3A N -0.1095(4) 0.8188(4) 0.2091(2)
O16 O 0.1338(6) 0.1507(5) 0.0870(3)
H7 H 0.1584 0.1411 0.1245
H8 H 0.1987 0.1785 0.0718
O17 O 0.3142(7) 0.3184(7) 0.0657(3)
H9 H 0.3564 0.3182 0.1009
H10 H 0.3316 0.3447 0.0319
O18 O 0.9438(7) 0.5742(5) 0.3977(3)
H11 H 0.9836 0.6290 0.3815
H12 H 1.0015 0.5478 0.4249
loop_
_geom_bond_atom_site_label_1
_geom_bond_atom_site_label_2
_geom_bond_site_symmetry_1
_geom_bond_site_symmetry_2
Nd1 O1 1_555 1_555
Nd2 O10 1_555 1_555
O1 C4 1_555 1_555
O2 C4 1_555 1_555
O3 C5 1_555 1_555
O4 C5 1_555 1_555
O5 Nd1 1_555 1_555
O6 C7 1_555 1_555
O7 Nd1 1_555 1_555
O8 C8 1_555 1_555
O9 C12 1_555 1_555
O10 C12 1_555 1_555
O11 Nd2 1_555 1_555
O12 Nd1 1_555 1_555
O13 Nd2 1_555 1_555
H1 O13 1_555 1_555
H2 O13 1_555 1_555
O14 Nd2 1_555 1_555
H3 O14 1_555 1_555
H4 O14 1_555 1_555
O15 Nd2 1_555 1_555
H5 O15 1_555 1_555
H6 O15 1_555 1_555
O16 H7 1_555 1_555
H8 O16 1_555 1_555
O17 H9 1_555 1_555
H10 O17 1_555 1_555
O18 H11 1_555 1_555
H12 O18 1_555 1_555
N1 Nd1 1_555 1_555
N2 H13 1_555 1_555
N3 C9 1_555 1_555
N4 H14 1_555 1_555
C1 N1 1_555 1_555
C2 N2 1_555 1_555
C3 N1 1_555 1_555
C4 C1 1_555 1_555
C5 C2 1_555 1_555
C6 C3 1_555 1_555
H15 C6 1_555 1_555
H16 C6 1_555 1_555
H17 C6 1_555 1_555
C7 O5 1_555 1_555
C8 O7 1_555 1_555
C9 C10 1_555 1_555
C10 N4 1_555 1_555
C11 N3 1_555 1_555
C12 C9 1_555 1_555
C13 O11 1_555 1_555
C14 C11 1_555 1_555
H18 C14 1_555 1_555
H19 C14 1_555 1_555
H20 C14 1_555 1_555
Nd1A O6 1_555 1_555
Nd1A_2 O9 1_555 1_555
Nd2B O2 1_555 1_555
Nd2_2 O4 1_555 1_555
O2B Nd2 1_555 1_555
O3B Nd2 1_555 1_555
O4_2 Nd2 1_555 1_555
O6A Nd1 1_555 1_555
O8A Nd1 1_555 1_555
O9A Nd1 1_555 1_555
N3A Nd1 1_555 1_555
O3 Nd2B 1_555 1_555
O8 Nd1A 1_555 1_555
O12 C13 1_555 1_555
N2 C3 1_555 1_555
N3 Nd1A_2 1_555 1_555
N4 C11 1_555 1_555
C1 C2 1_555 1_555
C7 C8 1_555 1_555
C10 C13 1_555 1_555

#END
