
#######################################################################
#
#                 Cambridge Crystallographic Data Centre
#                                CCDC 
#
#######################################################################
#
# If this CIF has been generated from an entry in the Cambridge 
# Structural Database, then it will include bibliographic, chemical, 
# crystal, experimental, refinement or atomic coordinate data resulting 
# from the CCDC's data processing and validation procedures.
#
#######################################################################

data_IPINEC
_chemical_formula_moiety         '(C26 H18 Co1 N4 O5)n'
_symmetry_cell_setting           orthorhombic
_symmetry_space_group_name_H-M   'P n n a'
_symmetry_Int_Tables_number      52
_space_group_name_Hall           '-P 2a 2bc'
loop_
_symmetry_equiv_pos_site_id
_symmetry_equiv_pos_as_xyz
1 x,y,z
2 1/2-x,-y,z
3 x,1/2-y,1/2-z
4 1/2-x,1/2+y,1/2-z
5 -x,-y,-z
6 1/2+x,y,-z
7 -x,1/2+y,1/2+z
8 1/2+x,1/2-y,1/2+z
_cell_length_a                   21.638(5)
_cell_length_b                   20.983(5)
_cell_length_c                   12.364(5)
_cell_angle_alpha                90
_cell_angle_beta                 90
_cell_angle_gamma                90
_cell_volume                     5613.63
loop_
_atom_site_label
_atom_site_type_symbol
_atom_site_fract_x
_atom_site_fract_y
_atom_site_fract_z
Co1 Co 0.082309(15) 0.049492(17) 0.49106(3)
O1 O 0.38036(11) 0.29133(12) 0.50607(15)
O2 O 0.41512(8) 0.46966(9) 0.91715(15)
O3 O 0.17007(8) 0.08065(10) 0.56263(17)
O4 O 0.51159(8) 0.43572(10) 0.88964(15)
O5 O 0.13050(9) 0.13610(10) 0.43106(18)
C1 C 0.37555(12) 0.40618(13) 0.7303(2)
H1 H 0.3490 0.4367 0.7590
C2 C 0.43392(11) 0.39735(12) 0.77505(19)
C3 C 0.32811(13) 0.25267(15) 0.5098(2)
C4 C 0.17302(12) 0.12731(14) 0.4986(2)
N1 N 0.03254(10) 0.09858(11) 0.61717(18)
C5 C 0.22718(13) 0.17185(13) 0.5033(2)
N2 N 0.12842(11) -0.00164(10) 1.36309(17)
C6 C 0.39571(13) 0.32489(13) 0.6009(2)
C7 C 0.14372(15) -0.01609(14) 1.1719(2)
C8 C 0.45494(12) 0.43712(11) 0.86839(19)
C9 C 0.04369(13) 0.08255(14) 0.7200(2)
H2 H 0.0765 0.0551 0.7338
C10 C 0.35677(13) 0.36946(14) 0.6426(2)
H3 H 0.3178 0.3754 0.6126
C11 C 0.00958(15) 0.10418(15) 0.8072(2)
C12 C 0.23783(13) 0.21457(14) 0.4200(2)
H4 H 0.2106 0.2163 0.3619
C13 C 0.31828(14) 0.21115(15) 0.5934(2)
H5 H 0.3451 0.2102 0.6522
C14 C 0.28877(15) 0.25492(14) 0.4220(2)
H6 H 0.2962 0.2830 0.3653
C15 C 0.47183(13) 0.35118(14) 0.7317(2)
H7 H 0.5106 0.3444 0.7621
C16 C 0.11410(14) 0.01121(14) 1.2603(2)
H8 H 0.0824 0.0401 1.2470
C17 C 0.26763(13) 0.17032(14) 0.5893(2)
H9 H 0.2610 0.1416 0.6454
N3 N 0.07871(14) 0.03592(16) 1.0443(2)
C18 C -0.01403(14) 0.13988(14) 0.6002(2)
H10 H -0.0218 0.1529 0.5295
C19 C 0.45351(14) 0.31459(14) 0.6440(2)
H11 H 0.4797 0.2838 0.6150
N4 N 0.07027(15) 0.04787(14) 0.9350(2)
C20 C 0.12566(17) 0.00031(16) 1.0622(2)
H12 H 0.1485 -0.0153 1.0042
C21 C 0.17436(14) -0.04319(14) 1.3803(3)
H13 H 0.1848 -0.0531 1.4513
C22 C -0.03887(17) 0.14536(17) 0.7864(3)
H14 H -0.0633 0.1605 0.8426
C23 C -0.05058(16) 0.16384(17) 0.6804(3)
H15 H -0.0826 0.1919 0.6645
C24 C 0.19106(17) -0.05811(16) 1.1923(3)
H16 H 0.2124 -0.0771 1.1355
C25 C 0.02444(17) 0.08395(17) 0.9168(2)
H17 H 0.0000 0.0977 0.9742
C26 C 0.20661(17) -0.07179(18) 1.2987(3)
H18 H 0.2385 -0.1000 1.3142
Co1_2 Co 0.082309(15) 0.049492(17) 1.49106(3)
Co1C Co 0.417691(15) 0.549492(17) 1.00894(3)
Co1G Co 0.582309(15) 0.450508(17) 0.99106(3)
O2C O 0.08488(8) -0.03034(9) 0.58285(15)
O4G O 0.01159(8) 0.06428(10) 0.38964(15)
N2_2 N 0.12842(11) -0.00164(10) 0.36309(17)
loop_
_geom_bond_atom_site_label_1
_geom_bond_atom_site_label_2
_geom_bond_site_symmetry_1
_geom_bond_site_symmetry_2
Co1 O3 1_555 1_555
O1 C3 1_555 1_555
O2 C8 1_555 1_555
O3 C4 1_555 1_555
O4 C8 1_555 1_555
O5 Co1 1_555 1_555
C1 H1 1_555 1_555
C2 C1 1_555 1_555
C3 C13 1_555 1_555
C4 O5 1_555 1_555
N1 Co1 1_555 1_555
C5 C4 1_555 1_555
N2 C16 1_555 1_555
C6 O1 1_555 1_555
C7 C16 1_555 1_555
C8 C2 1_555 1_555
C9 N1 1_555 1_555
H2 C9 1_555 1_555
C10 C1 1_555 1_555
H3 C10 1_555 1_555
C11 C9 1_555 1_555
C12 C5 1_555 1_555
H4 C12 1_555 1_555
C13 H5 1_555 1_555
C14 C3 1_555 1_555
H6 C14 1_555 1_555
C15 C2 1_555 1_555
H7 C15 1_555 1_555
C16 H8 1_555 1_555
C17 C5 1_555 1_555
H9 C17 1_555 1_555
N3 N4 1_555 1_555
C18 N1 1_555 1_555
H10 C18 1_555 1_555
C19 C6 1_555 1_555
H11 C19 1_555 1_555
N4 C25 1_555 1_555
C20 C7 1_555 1_555
H12 C20 1_555 1_555
C21 N2 1_555 1_555
H13 C21 1_555 1_555
C22 C11 1_555 1_555
H14 C22 1_555 1_555
C23 C18 1_555 1_555
H15 C23 1_555 1_555
C24 C7 1_555 1_555
H16 C24 1_555 1_555
C25 C11 1_555 1_555
H17 C25 1_555 1_555
C26 C21 1_555 1_555
H18 C26 1_555 1_555
Co1_2 N2 1_555 1_555
Co1C O2 1_555 1_555
Co1G O4 1_555 1_555
O2C Co1 1_555 1_555
O4G Co1 1_555 1_555
N2_2 Co1 1_555 1_555
C6 C10 1_555 1_555
C12 C14 1_555 1_555
C13 C17 1_555 1_555
C15 C19 1_555 1_555
N3 C20 1_555 1_555
C22 C23 1_555 1_555
C24 C26 1_555 1_555

#END
