
#######################################################################
#
#                 Cambridge Crystallographic Data Centre
#                                CCDC 
#
#######################################################################
#
# If this CIF has been generated from an entry in the Cambridge 
# Structural Database, then it will include bibliographic, chemical, 
# crystal, experimental, refinement or atomic coordinate data resulting 
# from the CCDC's data processing and validation procedures.
#
#######################################################################

data_OSIKIL
_chemical_formula_moiety         '(C78 H76 I6 N12 S4 Zn3)n'
_symmetry_cell_setting           orthorhombic
_symmetry_space_group_name_H-M   'P b c a'
_symmetry_Int_Tables_number      61
_space_group_name_Hall           '-P 2ac 2ab'
loop_
_symmetry_equiv_pos_site_id
_symmetry_equiv_pos_as_xyz
1 x,y,z
2 1/2-x,-y,1/2+z
3 -x,1/2+y,1/2-z
4 1/2+x,1/2-y,-z
5 -x,-y,-z
6 1/2+x,y,1/2-z
7 x,1/2-y,1/2+z
8 1/2-x,1/2+y,z
_cell_length_a                   27.46900(10)
_cell_length_b                   13.6888(3)
_cell_length_c                   45.9961(5)
_cell_angle_alpha                90
_cell_angle_beta                 90
_cell_angle_gamma                90
_cell_volume                     17295.3
loop_
_atom_site_label
_atom_site_type_symbol
_atom_site_fract_x
_atom_site_fract_y
_atom_site_fract_z
_atom_site_U_iso_or_equiv
_atom_site_thermal_displace_type
C1 C 0.6802(5) 0.8763(8) 0.02997(19) 0.1290 Uani
H1 H 0.6491 0.8868 0.0195 0.1550 Uiso
H2 H 0.7070 0.8893 0.0161 0.1550 Uiso
C2 C 0.7262(3) 0.8233(6) 0.0841(2) 0.0870 Uani
H3 H 0.6992 0.8063 0.0974 0.1040 Uiso
H4 H 0.7572 0.8141 0.0947 0.1040 Uiso
C3 C 0.7215(3) 0.9275(5) 0.07542(17) 0.0780 Uani
H5 H 0.7155 0.9669 0.0931 0.0940 Uiso
H6 H 0.7529 0.9493 0.0671 0.0940 Uiso
C76 C 0.6835(2) 0.9478(6) 0.05467(15) 0.0740 Uani
H71 H 0.6889 1.0139 0.0465 0.0890 Uiso
H72 H 0.6519 0.9486 0.0650 0.0890 Uiso
C77 C 0.7249(4) 0.7529(6) 0.0574(2) 0.1227 Uani
H73 H 0.7554 0.7593 0.0461 0.1470 Uiso
H74 H 0.7221 0.6845 0.0641 0.1470 Uiso
C78 C 0.6827(4) 0.7783(10) 0.0389(3) 0.1430 Uani
H75 H 0.6835 0.7364 0.0213 0.1710 Uiso
H76 H 0.6525 0.7624 0.0497 0.1710 Uiso
Zn1 Zn 0.530418(18) -0.14630(3) 0.090025(12) 0.0294 Uani
Zn2 Zn 0.74593(2) 0.64990(3) 0.188179(10) 0.0285 Uani
Zn3 Zn 0.945790(18) 0.34737(3) 0.428038(11) 0.0273 Uani
I1 I 0.692929(13) 0.80191(2) 0.196285(7) 0.0415 Uani
I2 I 1.014859(10) 0.43310(2) 0.401578(7) 0.0378 Uani
I3 I 0.512908(12) -0.22674(2) 0.041043(8) 0.0442 Uani
I4 I 0.936727(13) 0.16477(2) 0.437875(9) 0.0461 Uani
I5 I 0.836761(13) 0.67120(3) 0.178296(8) 0.0474 Uani
I6 I 0.580188(13) -0.23019(2) 0.129244(9) 0.0489 Uani
N1 N 0.56005(12) -0.0106(2) 0.08165(8) 0.0284 Uani
N2 N 0.59876(13) 0.3239(2) 0.04317(7) 0.0279 Uani
N3 N 0.63583(12) 0.3214(2) 0.08998(7) 0.0255 Uani
N4 N 0.63443(12) 0.4680(2) 0.06257(7) 0.0248 Uani
N5 N 0.71305(13) 0.5701(2) 0.15571(7) 0.0284 Uani
N6 N 0.73703(13) 0.5633(2) 0.22443(7) 0.0266 Uani
N7 N 0.67525(12) 0.4501(2) 0.32168(7) 0.0223 Uani
N8 N 0.76128(12) 0.4481(2) 0.32611(7) 0.0206 Uani
N9 N 0.71219(11) 0.4157(2) 0.36746(7) 0.0205 Uani
N10 N 0.88339(12) 0.3846(2) 0.40534(7) 0.0235 Uani
N11 N 0.56712(13) 0.5796(2) -0.03327(7) 0.0275 Uani
N12 N 0.53471(12) 0.3906(2) 0.39036(8) 0.0266 Uani
C4 C 0.58255(19) 0.0389(3) 0.10311(10) 0.0403 Uani
H7 H 0.5859 0.0088 0.1216 0.0490 Uiso
C5 C 0.6009(2) 0.1318(3) 0.09915(10) 0.0397 Uani
H8 H 0.6170 0.1643 0.1146 0.0470 Uiso
C6 C 0.59559(15) 0.1775(3) 0.07226(9) 0.0268 Uani
C7 C 0.57234(15) 0.1256(3) 0.05016(10) 0.0304 Uani
H9 H 0.5680 0.1540 0.0315 0.0370 Uiso
C8 C 0.55569(16) 0.0324(3) 0.05587(10) 0.0330 Uani
H10 H 0.5404 -0.0029 0.0406 0.0390 Uiso
C9 C 0.56700(17) 0.4312(3) -0.00566(9) 0.0327 Uani
H11 H 0.5567 0.3652 -0.0039 0.0390 Uiso
C10 C 0.55347(17) 0.4861(3) -0.02990(10) 0.0333 Uani
H12 H 0.5340 0.4564 -0.0445 0.0400 Uiso
C11 C 0.59363(18) 0.6210(3) -0.01225(10) 0.0357 Uani
H13 H 0.6028 0.6875 -0.0144 0.0430 Uiso
C12 C 0.60857(18) 0.5713(3) 0.01264(10) 0.0363 Uani
H14 H 0.6272 0.6033 0.0272 0.0430 Uiso
C13 C 0.59544(15) 0.4733(3) 0.01574(8) 0.0256 Uani
C14 C 0.61145(15) 0.2794(3) 0.06827(9) 0.0259 Uani
C15 C 0.61093(15) 0.4178(3) 0.04186(8) 0.0254 Uani
C16 C 0.64531(14) 0.4164(3) 0.08622(8) 0.0239 Uani
C17 C 0.66925(14) 0.4690(3) 0.11068(8) 0.0242 Uani
C18 C 0.67042(16) 0.5701(3) 0.11080(9) 0.0307 Uani
H15 H 0.6563 0.6061 0.0953 0.0370 Uiso
C19 C 0.69241(17) 0.6178(3) 0.13372(9) 0.0310 Uani
H16 H 0.6928 0.6872 0.1338 0.0370 Uiso
C20 C 0.71159(18) 0.4730(3) 0.15571(10) 0.0357 Uani
H17 H 0.7263 0.4387 0.1714 0.0430 Uiso
C21 C 0.68947(17) 0.4199(3) 0.13374(9) 0.0331 Uani
H18 H 0.6883 0.3506 0.1346 0.0400 Uiso
C22 C 0.68511(15) 0.5164(3) 0.26376(9) 0.0284 Uani
H19 H 0.6531 0.5091 0.2713 0.0340 Uiso
C23 C 0.69274(16) 0.5543(3) 0.23601(9) 0.0294 Uani
H20 H 0.6653 0.5744 0.2249 0.0350 Uiso
C24 C 0.77560(15) 0.5318(3) 0.23964(8) 0.0249 Uani
H21 H 0.8069 0.5354 0.2310 0.0300 Uiso
C25 C 0.77160(15) 0.4943(3) 0.26744(8) 0.0250 Uani
H22 H 0.7995 0.4720 0.2777 0.0300 Uiso
C26 C 0.72540(15) 0.4898(2) 0.28016(8) 0.0224 Uani
C27 C 0.62066(15) 0.4069(3) 0.39356(9) 0.0277 Uani
H23 H 0.6490 0.4080 0.4054 0.0330 Uiso
C28 C 0.57558(15) 0.3936(3) 0.40611(9) 0.0280 Uani
H24 H 0.5735 0.3864 0.4266 0.0340 Uiso
C29 C 0.53798(16) 0.4033(3) 0.36134(10) 0.0343 Uani
H25 H 0.5090 0.4023 0.3501 0.0410 Uiso
C30 C 0.58251(15) 0.4177(3) 0.34735(10) 0.0310 Uani
H26 H 0.5839 0.4269 0.3269 0.0370 Uiso
C31 C 0.62472(14) 0.4184(3) 0.36388(8) 0.0227 Uani
C32 C 0.67325(14) 0.4284(2) 0.35006(8) 0.0212 Uani
C33 C 0.72017(14) 0.4594(2) 0.31107(8) 0.0216 Uani
C34 C 0.75519(13) 0.4262(2) 0.35418(8) 0.0196 Uani
C35 C 0.79948(14) 0.4135(2) 0.37207(8) 0.0207 Uani
C36 C 0.84578(14) 0.4272(3) 0.35994(9) 0.0237 Uani
H27 H 0.8492 0.4459 0.3402 0.0290 Uiso
C37 C 0.88623(15) 0.4131(3) 0.37722(9) 0.0250 Uani
H28 H 0.9175 0.4240 0.3690 0.0300 Uiso
C38 C 0.83875(15) 0.3719(3) 0.41667(9) 0.0260 Uani
H29 H 0.8363 0.3515 0.4364 0.0310 Uiso
C39 C 0.79639(14) 0.3868(3) 0.40137(8) 0.0233 Uani
H30 H 0.7656 0.3792 0.4105 0.0280 Uiso
Zn1B Zn 0.469582(18) 0.35370(3) 0.409975(12) 0.0294 Uani
Zn3A Zn 0.554210(18) 0.65263(3) -0.071962(11) 0.0273 Uani
N11A N 0.93288(13) 0.4204(2) 0.46673(7) 0.0275 Uani
N12B N 0.46529(12) -0.1094(2) 0.10964(8) 0.0266 Uani
C40 C 0.3224(4) 0.7407(4) 0.22915(14) 0.0777 Uani
H31 H 0.3390 0.7541 0.2468 0.0930 Uiso
C41 C 0.3488(3) 0.7139(4) 0.20476(13) 0.0603 Uani
H32 H 0.3832 0.7080 0.2058 0.0720 Uiso
C42 C 0.3240(2) 0.6952(3) 0.17802(11) 0.0419 Uani
C43 C 0.2730(2) 0.7013(3) 0.17732(10) 0.0387 Uani
C44 C 0.2471(3) 0.7284(3) 0.20288(11) 0.0506 Uani
H33 H 0.2126 0.7329 0.2026 0.0610 Uiso
C45 C 0.2726(3) 0.7483(3) 0.22824(12) 0.0620 Uani
H34 H 0.2553 0.7673 0.2452 0.0740 Uiso
C46 C 0.35072(19) 0.6736(3) 0.15136(12) 0.0410 Uani
C47 C 0.4029(2) 0.6673(4) 0.15060(16) 0.0583 Uani
H35 H 0.4209 0.6733 0.1681 0.0700 Uiso
C48 C 0.4271(2) 0.6527(4) 0.12477(17) 0.0580 Uani
H36 H 0.4617 0.6489 0.1247 0.0690 Uiso
C49 C 0.4026(2) 0.6437(4) 0.09975(17) 0.0613 Uani
H37 H 0.4200 0.6352 0.0821 0.0730 Uiso
C50 C 0.3527(2) 0.6466(3) 0.09923(13) 0.0487 Uani
H38 H 0.3361 0.6387 0.0813 0.0590 Uiso
C51 C 0.32577(18) 0.6610(3) 0.12485(11) 0.0354 Uani
C52 C 0.27247(18) 0.6603(3) 0.12463(10) 0.0338 Uani
C53 C 0.2464(2) 0.6375(3) 0.09908(11) 0.0407 Uani
H39 H 0.2637 0.6231 0.0817 0.0490 Uiso
C54 C 0.1960(2) 0.6359(3) 0.09911(13) 0.0483 Uani
H40 H 0.1789 0.6209 0.0817 0.0580 Uiso
C55 C 0.1708(2) 0.6557(3) 0.12392(14) 0.0473 Uani
H41 H 0.1362 0.6546 0.1238 0.0560 Uiso
C56 C 0.1955(2) 0.6775(3) 0.14914(13) 0.0450 Uani
H42 H 0.1775 0.6909 0.1663 0.0540 Uiso
C57 C 0.24617(17) 0.6804(3) 0.15030(10) 0.0332 Uani
S1 S 0.53561(9) 0.57841(14) 0.20367(5) 0.0882 Uani
S2 S 0.58071(6) 0.39153(15) 0.22045(4) 0.0694 Uani
S3 S 0.50708(8) 0.36710(18) 0.27415(4) 0.0822 Uani
S4 S 0.45710(9) 0.5521(2) 0.25816(6) 0.1068 Uani
C58 C 0.5053(3) 0.4688(6) 0.25042(16) 0.0737 Uani
C59 C 0.5374(3) 0.4809(5) 0.22879(14) 0.0663 Uani
C60 C 0.5702(3) 0.5168(5) 0.17757(15) 0.0717 Uani
H43 H 0.5748 0.5428 0.1586 0.0860 Uiso
C61 C 0.5901(2) 0.4304(5) 0.18556(14) 0.0633 Uani
H44 H 0.6087 0.3927 0.1722 0.0760 Uiso
C62 C 0.4510(3) 0.3912(9) 0.29085(19) 0.1013 Uani
H45 H 0.4374 0.3471 0.3046 0.1220 Uiso
C63 C 0.4272(4) 0.4770(9) 0.2833(2) 0.1257 Uani
H46 H 0.3965 0.4940 0.2913 0.1510 Uiso
C64 C 0.2572(3) 0.8916(6) 0.02024(15) 0.0757 Uani
H47 H 0.2264 0.9170 0.0284 0.0910 Uiso
H48 H 0.2560 0.8995 -0.0011 0.0910 Uiso
C65 C 0.2620(3) 0.7860(6) 0.02748(16) 0.0763 Uani
H49 H 0.2350 0.7493 0.0183 0.0920 Uiso
H50 H 0.2595 0.7773 0.0488 0.0920 Uiso
C66 C 0.3109(3) 0.7446(6) 0.01678(15) 0.0733 Uani
H51 H 0.3143 0.6762 0.0235 0.0880 Uiso
H52 H 0.3114 0.7447 -0.0047 0.0880 Uiso
C67 C 0.3532(3) 0.8046(5) 0.02814(15) 0.0687 Uani
H53 H 0.3558 0.7953 0.0494 0.0830 Uiso
H54 H 0.3837 0.7804 0.0192 0.0830 Uiso
C68 C 0.3479(2) 0.9121(6) 0.02173(15) 0.0700 Uani
H55 H 0.3505 0.9229 0.0005 0.0840 Uiso
H56 H 0.3747 0.9483 0.0313 0.0840 Uiso
C69 C 0.2999(3) 0.9508(5) 0.03239(14) 0.0710 Uani
H57 H 0.2964 1.0199 0.0264 0.0850 Uiso
H58 H 0.2992 0.9483 0.0539 0.0850 Uiso
C70 C 0.4254(3) 0.1369(5) 0.20121(16) 0.0737 Uani
H59 H 0.4342 0.0759 0.2115 0.0890 Uiso
H60 H 0.3954 0.1239 0.1899 0.0890 Uiso
C71 C 0.4651(3) 0.1625(6) 0.1808(2) 0.0983 Uani
H61 H 0.4670 0.1123 0.1654 0.1180 Uiso
H62 H 0.4965 0.1628 0.1914 0.1180 Uiso
C72 C 0.4569(4) 0.2616(5) 0.16707(19) 0.0937 Uani
H63 H 0.4854 0.2788 0.1549 0.1120 Uiso
H64 H 0.4280 0.2585 0.1542 0.1120 Uiso
C73 C 0.4066(3) 0.3158(6) 0.21059(19) 0.0923 Uani
H65 H 0.4050 0.3655 0.2262 0.1100 Uiso
H66 H 0.3754 0.3168 0.1998 0.1100 Uiso
C74 C 0.4147(4) 0.2161(6) 0.2236(2) 0.1047 Uani
H67 H 0.3854 0.1973 0.2348 0.1250 Uiso
H68 H 0.4423 0.2198 0.2375 0.1250 Uiso
C75 C 0.4492(4) 0.3397(5) 0.1897(2) 0.1057 Uani
H69 H 0.4425 0.4026 0.1798 0.1270 Uiso
H70 H 0.4795 0.3476 0.2011 0.1270 Uiso
loop_
_atom_site_aniso_label
_atom_site_aniso_U_11
_atom_site_aniso_U_22
_atom_site_aniso_U_33
_atom_site_aniso_U_23
_atom_site_aniso_U_13
_atom_site_aniso_U_12
C1 0.201(12) 0.119(8) 0.067(6) 0.035(5) -0.060(7) -0.068(8)
C2 0.074(5) 0.073(5) 0.114(7) 0.013(5) -0.023(5) -0.018(4)
C3 0.085(5) 0.068(4) 0.081(5) -0.001(4) -0.023(4) 0.007(4)
C76 0.057(4) 0.099(6) 0.066(5) 0.000(4) -0.008(3) 0.025(4)
C77 0.163(10) 0.059(5) 0.146(9) 0.020(5) 0.105(8) 0.012(6)
C78 0.124(9) 0.142(11) 0.163(12) -0.090(9) 0.015(8) -0.052(8)
Zn1 0.0241(2) 0.0249(2) 0.0393(3) -0.00466(19) 0.0040(2) -0.00187(17)
Zn2 0.0420(3) 0.0241(2) 0.0193(2) 0.00244(17) -0.0036(2) -0.00605(19)
Zn3 0.0269(2) 0.0304(2) 0.0245(2) -0.00287(18) -0.00372(19) 0.00432(18)
I1 0.0567(2) 0.02548(13) 0.04217(18) -0.00406(12) -0.01130(15) 0.00175(12)
I2 0.02369(14) 0.05555(18) 0.03419(16) 0.00082(13) -0.00033(12) 0.00257(12)
I3 0.04253(18) 0.04109(16) 0.0490(2) -0.02189(14) 0.01189(15) -0.01106(13)
I4 0.04765(19) 0.02806(14) 0.0626(2) -0.00194(13) -0.01558(17) 0.00772(13)
I5 0.04547(19) 0.0599(2) 0.03692(19) 0.01774(15) 0.00560(15) -0.00612(15)
I6 0.03984(18) 0.04011(17) 0.0667(2) 0.00582(15) -0.00782(17) 0.01032(13)
N1 0.0254(17) 0.0237(15) 0.036(2) -0.0035(14) 0.0036(15) -0.0029(13)
N2 0.035(2) 0.0286(16) 0.0202(18) -0.0018(13) 0.0015(14) -0.0010(14)
N3 0.0277(18) 0.0265(15) 0.0224(17) -0.0031(13) 0.0024(14) -0.0008(13)
N4 0.0267(17) 0.0296(16) 0.0180(16) -0.0012(13) 0.0008(13) -0.0035(13)
N5 0.039(2) 0.0250(16) 0.0213(17) 0.0023(13) -0.0025(15) -0.0029(14)
N6 0.041(2) 0.0222(15) 0.0167(16) 0.0011(12) -0.0023(14) -0.0065(14)
N7 0.0280(17) 0.0173(13) 0.0217(17) 0.0007(11) -0.0022(13) -0.0016(12)
N8 0.0262(16) 0.0163(13) 0.0194(16) -0.0007(11) 0.0003(13) -0.0021(11)
N9 0.0230(16) 0.0186(13) 0.0200(16) -0.0005(11) 0.0004(13) -0.0003(11)
N10 0.0250(17) 0.0234(14) 0.0220(17) -0.0023(12) -0.0012(13) 0.0001(12)
N11 0.0329(19) 0.0288(16) 0.0208(17) 0.0003(13) 0.0027(14) -0.0002(14)
N12 0.0233(17) 0.0258(15) 0.0307(19) 0.0024(13) 0.0025(15) 0.0007(13)
C4 0.061(3) 0.036(2) 0.024(2) 0.0004(18) -0.003(2) -0.015(2)
C5 0.059(3) 0.034(2) 0.026(2) -0.0007(17) -0.007(2) -0.016(2)
C6 0.027(2) 0.0253(18) 0.028(2) -0.0031(15) 0.0026(17) -0.0012(15)
C7 0.031(2) 0.0293(19) 0.031(2) -0.0004(17) -0.0053(18) -0.0015(16)
C8 0.030(2) 0.030(2) 0.039(3) -0.0071(18) -0.0021(19) -0.0049(17)
C9 0.046(3) 0.0251(18) 0.027(2) 0.0007(16) -0.0053(19) -0.0085(17)
C10 0.041(2) 0.030(2) 0.029(2) -0.0017(17) -0.0045(19) -0.0075(18)
C11 0.054(3) 0.028(2) 0.025(2) -0.0007(16) 0.000(2) -0.0099(19)
C12 0.050(3) 0.035(2) 0.024(2) -0.0013(17) -0.005(2) -0.010(2)
C13 0.033(2) 0.0287(18) 0.0152(19) -0.0028(14) 0.0048(16) -0.0036(16)
C14 0.029(2) 0.0248(17) 0.024(2) -0.0038(15) 0.0012(16) -0.0018(15)
C15 0.029(2) 0.0290(18) 0.0183(19) -0.0057(15) 0.0028(16) -0.0013(15)
C16 0.0221(19) 0.0285(18) 0.021(2) -0.0025(14) 0.0027(15) -0.0019(14)
C17 0.029(2) 0.0239(17) 0.0196(19) -0.0030(14) 0.0022(16) -0.0012(14)
C18 0.042(2) 0.0271(19) 0.023(2) 0.0013(16) -0.0081(18) 0.0038(17)
C19 0.048(3) 0.0231(17) 0.022(2) 0.0006(15) -0.0071(19) -0.0001(17)
C20 0.059(3) 0.0231(18) 0.025(2) 0.0024(15) -0.010(2) 0.0028(18)
C21 0.047(3) 0.0223(18) 0.030(2) 0.0014(16) -0.007(2) -0.0016(17)
C22 0.032(2) 0.0292(19) 0.024(2) 0.0046(16) -0.0016(17) -0.0050(16)
C23 0.035(2) 0.0303(19) 0.023(2) 0.0035(16) -0.0062(17) -0.0036(17)
C24 0.034(2) 0.0206(16) 0.0202(19) -0.0020(14) 0.0019(16) 0.0000(15)
C25 0.030(2) 0.0219(16) 0.023(2) 0.0003(14) -0.0007(16) -0.0008(14)
C26 0.034(2) 0.0179(15) 0.0152(18) -0.0009(13) -0.0006(15) -0.0047(14)
C27 0.025(2) 0.035(2) 0.023(2) -0.0015(16) -0.0023(16) -0.0026(16)
C28 0.030(2) 0.031(2) 0.023(2) 0.0029(16) 0.0030(17) -0.0019(16)
C29 0.027(2) 0.043(2) 0.033(2) 0.0056(19) -0.0059(18) 0.0024(18)
C30 0.028(2) 0.040(2) 0.025(2) 0.0058(17) -0.0030(17) 0.0009(17)
C31 0.0257(19) 0.0173(15) 0.025(2) 0.0016(13) -0.0014(16) -0.0005(13)
C32 0.0259(19) 0.0172(15) 0.0204(19) -0.0018(13) -0.0005(15) 0.0001(13)
C33 0.030(2) 0.0144(14) 0.0203(19) -0.0008(13) 0.0003(16) -0.0007(13)
C34 0.0261(19) 0.0151(14) 0.0175(18) -0.0028(12) -0.0011(14) 0.0007(13)
C35 0.0254(19) 0.0181(15) 0.0186(18) -0.0022(13) -0.0016(15) -0.0007(13)
C36 0.027(2) 0.0225(16) 0.0215(19) -0.0019(14) 0.0009(16) 0.0003(14)
C37 0.026(2) 0.0261(17) 0.023(2) -0.0042(15) 0.0021(16) -0.0013(15)
C38 0.032(2) 0.0292(18) 0.0169(19) -0.0023(14) 0.0024(16) 0.0025(16)
C39 0.026(2) 0.0256(17) 0.0183(19) 0.0007(14) 0.0010(15) 0.0006(14)
Zn1B 0.0241 0.0249 0.0393 0.00466 0.004 0.00187
Zn3A 0.0269 0.0304 0.0245 0.00287 0.00372 0.00432
N11A 0.0329 0.0288 0.0208 -0.0003 -0.0027 -0.0002
N12B 0.0233 0.0258 0.0307 -0.0024 0.0025 -0.0007
C40 0.161(8) 0.032(3) 0.040(4) 0.011(2) -0.029(4) -0.036(4)
C41 0.098(5) 0.034(3) 0.049(4) 0.008(2) -0.022(3) -0.016(3)
C42 0.062(3) 0.0208(18) 0.043(3) 0.0026(18) -0.006(2) -0.009(2)
C43 0.065(3) 0.0160(17) 0.035(3) 0.0046(16) 0.010(2) -0.0022(19)
C44 0.092(4) 0.0209(19) 0.039(3) 0.0091(18) 0.016(3) -0.001(2)
C45 0.132(6) 0.022(2) 0.032(3) 0.0040(19) 0.011(4) -0.008(3)
C46 0.046(3) 0.0181(18) 0.059(3) 0.0051(19) -0.002(2) -0.0046(17)
C47 0.054(3) 0.028(2) 0.093(5) 0.007(3) -0.021(3) -0.008(2)
C48 0.042(3) 0.032(2) 0.100(5) -0.002(3) 0.012(3) -0.002(2)
C49 0.058(4) 0.032(3) 0.094(5) 0.001(3) 0.033(4) -0.004(2)
C50 0.070(4) 0.025(2) 0.051(3) 0.0031(19) 0.025(3) 0.003(2)
C51 0.047(3) 0.0191(17) 0.040(3) 0.0051(16) 0.008(2) 0.0017(17)
C52 0.051(3) 0.0174(17) 0.033(2) 0.0067(15) 0.003(2) 0.0007(17)
C53 0.061(3) 0.026(2) 0.035(3) 0.0053(18) 0.001(2) 0.005(2)
C54 0.059(3) 0.026(2) 0.060(4) 0.006(2) -0.021(3) -0.002(2)
C55 0.045(3) 0.024(2) 0.073(4) 0.011(2) -0.004(3) -0.0037(19)
C56 0.055(3) 0.0211(19) 0.059(3) 0.010(2) 0.015(3) 0.0006(19)
C57 0.045(3) 0.0157(16) 0.039(3) 0.0061(16) 0.008(2) -0.0017(16)
S1 0.1211(17) 0.0550(10) 0.0885(15) -0.0095(9) 0.0123(13) -0.0058(11)
S2 0.0486(9) 0.0891(13) 0.0704(12) 0.0082(9) -0.0036(8) -0.0052(8)
S3 0.0763(13) 0.1181(17) 0.0522(11) -0.0041(10) -0.0026(9) -0.0244(12)
S4 0.1057(18) 0.1057(18) 0.1089(19) -0.0463(15) 0.0157(15) 0.0033(14)
C58 0.075(5) 0.079(5) 0.067(5) -0.017(4) 0.011(4) -0.014(4)
C59 0.078(5) 0.068(4) 0.053(4) -0.014(3) 0.006(3) -0.005(3)
C60 0.091(5) 0.067(4) 0.057(4) -0.003(3) 0.018(4) -0.014(4)
C61 0.061(4) 0.070(4) 0.059(4) -0.008(3) 0.029(3) -0.010(3)
C62 0.092(7) 0.150(9) 0.062(5) -0.023(6) 0.021(5) -0.049(6)
C63 0.099(7) 0.162(11) 0.116(8) -0.056(8) 0.065(6) -0.039(7)
C64 0.065(4) 0.116(6) 0.046(4) 0.023(4) 0.014(3) 0.014(4)
C65 0.079(5) 0.095(6) 0.055(4) 0.000(4) 0.002(4) -0.008(4)
C66 0.079(5) 0.097(5) 0.044(4) -0.018(4) 0.002(3) -0.005(4)
C67 0.065(4) 0.086(5) 0.055(4) -0.004(3) -0.014(3) 0.006(4)
C68 0.058(4) 0.097(5) 0.055(4) 0.024(4) -0.011(3) -0.005(4)
C69 0.094(5) 0.075(4) 0.044(4) 0.020(3) 0.007(3) 0.018(4)
C70 0.077(5) 0.069(4) 0.075(5) 0.021(4) -0.021(4) -0.007(4)
C71 0.102(7) 0.080(5) 0.113(7) 0.031(5) -0.035(6) -0.019(5)
C72 0.128(8) 0.066(5) 0.087(6) 0.018(4) -0.042(6) 0.000(5)
C73 0.118(7) 0.071(5) 0.088(6) 0.022(4) -0.038(5) -0.026(5)
C74 0.117(7) 0.092(6) 0.105(7) 0.030(5) -0.040(6) -0.051(5)
C75 0.142(8) 0.059(4) 0.116(7) 0.017(4) -0.093(7) -0.027(5)
loop_
_geom_bond_atom_site_label_1
_geom_bond_atom_site_label_2
_geom_bond_site_symmetry_1
_geom_bond_site_symmetry_2
C1 H1 1_555 1_555
H2 C1 1_555 1_555
C2 H3 1_555 1_555
H4 C2 1_555 1_555
C3 C2 1_555 1_555
H5 C3 1_555 1_555
H6 C3 1_555 1_555
Zn1 I3 1_555 1_555
Zn2 I1 1_555 1_555
Zn3 I2 1_555 1_555
I4 Zn3 1_555 1_555
I5 Zn2 1_555 1_555
I6 Zn1 1_555 1_555
N1 Zn1 1_555 1_555
N2 C14 1_555 1_555
N3 C14 1_555 1_555
N4 C15 1_555 1_555
N5 Zn2 1_555 1_555
N6 Zn2 1_555 1_555
N7 C32 1_555 1_555
N8 C33 1_555 1_555
N9 C32 1_555 1_555
N10 Zn3 1_555 1_555
N11 C10 1_555 1_555
N12 C28 1_555 1_555
C4 N1 1_555 1_555
H7 C4 1_555 1_555
C5 C4 1_555 1_555
H8 C5 1_555 1_555
C6 C5 1_555 1_555
C7 C6 1_555 1_555
H9 C7 1_555 1_555
C8 N1 1_555 1_555
H10 C8 1_555 1_555
C9 H11 1_555 1_555
C10 C9 1_555 1_555
H12 C10 1_555 1_555
C11 N11 1_555 1_555
H13 C11 1_555 1_555
C12 C11 1_555 1_555
H14 C12 1_555 1_555
C13 C9 1_555 1_555
C14 C6 1_555 1_555
C15 N2 1_555 1_555
C16 N3 1_555 1_555
C17 C16 1_555 1_555
C18 C17 1_555 1_555
H15 C18 1_555 1_555
C19 N5 1_555 1_555
H16 C19 1_555 1_555
C20 N5 1_555 1_555
H17 C20 1_555 1_555
C21 C17 1_555 1_555
H18 C21 1_555 1_555
C22 H19 1_555 1_555
C23 N6 1_555 1_555
H20 C23 1_555 1_555
C24 N6 1_555 1_555
H21 C24 1_555 1_555
C25 C24 1_555 1_555
H22 C25 1_555 1_555
C26 C22 1_555 1_555
C27 H23 1_555 1_555
C28 C27 1_555 1_555
H24 C28 1_555 1_555
C29 N12 1_555 1_555
H25 C29 1_555 1_555
C30 C29 1_555 1_555
H26 C30 1_555 1_555
C31 C27 1_555 1_555
C32 C31 1_555 1_555
C33 N7 1_555 1_555
C34 N8 1_555 1_555
C35 C34 1_555 1_555
C36 C35 1_555 1_555
H27 C36 1_555 1_555
C37 N10 1_555 1_555
H28 C37 1_555 1_555
C38 N10 1_555 1_555
H29 C38 1_555 1_555
C39 C35 1_555 1_555
H30 C39 1_555 1_555
C40 H31 1_555 1_555
C41 C40 1_555 1_555
H32 C41 1_555 1_555
C42 C41 1_555 1_555
C43 C42 1_555 1_555
C44 C43 1_555 1_555
H33 C44 1_555 1_555
C45 C40 1_555 1_555
H34 C45 1_555 1_555
C46 C42 1_555 1_555
C47 C46 1_555 1_555
H35 C47 1_555 1_555
C48 C47 1_555 1_555
H36 C48 1_555 1_555
C49 C48 1_555 1_555
H37 C49 1_555 1_555
C50 C49 1_555 1_555
H38 C50 1_555 1_555
C51 C46 1_555 1_555
C52 C51 1_555 1_555
C53 C52 1_555 1_555
H39 C53 1_555 1_555
C54 C53 1_555 1_555
H40 C54 1_555 1_555
C55 C54 1_555 1_555
H41 C55 1_555 1_555
C56 C55 1_555 1_555
H42 C56 1_555 1_555
C57 C43 1_555 1_555
S1 C59 1_555 1_555
S2 C59 1_555 1_555
S3 C58 1_555 1_555
S4 C58 1_555 1_555
C58 C59 1_555 1_555
C60 S1 1_555 1_555
H43 C60 1_555 1_555
C61 S2 1_555 1_555
H44 C61 1_555 1_555
C62 S3 1_555 1_555
H45 C62 1_555 1_555
C63 S4 1_555 1_555
H46 C63 1_555 1_555
C64 H47 1_555 1_555
H48 C64 1_555 1_555
C65 C64 1_555 1_555
H49 C65 1_555 1_555
H50 C65 1_555 1_555
C66 C65 1_555 1_555
H51 C66 1_555 1_555
H52 C66 1_555 1_555
C67 C66 1_555 1_555
H53 C67 1_555 1_555
H54 C67 1_555 1_555
C68 C67 1_555 1_555
H55 C68 1_555 1_555
H56 C68 1_555 1_555
C69 C64 1_555 1_555
H57 C69 1_555 1_555
H58 C69 1_555 1_555
C70 H59 1_555 1_555
H60 C70 1_555 1_555
C71 C70 1_555 1_555
H61 C71 1_555 1_555
H62 C71 1_555 1_555
C72 C71 1_555 1_555
H63 C72 1_555 1_555
H64 C72 1_555 1_555
C73 H65 1_555 1_555
H66 C73 1_555 1_555
C74 C70 1_555 1_555
H67 C74 1_555 1_555
H68 C74 1_555 1_555
C75 C72 1_555 1_555
H69 C75 1_555 1_555
H70 C75 1_555 1_555
C76 C1 1_555 1_555
H71 C76 1_555 1_555
H72 C76 1_555 1_555
C77 C2 1_555 1_555
H73 C77 1_555 1_555
H74 C77 1_555 1_555
C78 C1 1_555 1_555
H75 C78 1_555 1_555
H76 C78 1_555 1_555
Zn1B N12 1_555 1_555
Zn3A N11 1_555 1_555
N11A Zn3 1_555 1_555
N12B Zn1 1_555 1_555
C3 C76 1_555 1_555
N4 C16 1_555 1_555
N9 C34 1_555 1_555
C7 C8 1_555 1_555
C12 C13 1_555 1_555
C13 C15 1_555 1_555
C18 C19 1_555 1_555
C20 C21 1_555 1_555
C22 C23 1_555 1_555
C25 C26 1_555 1_555
C26 C33 1_555 1_555
C30 C31 1_555 1_555
C36 C37 1_555 1_555
C38 C39 1_555 1_555
C44 C45 1_555 1_555
C50 C51 1_555 1_555
C52 C57 1_555 1_555
C56 C57 1_555 1_555
C60 C61 1_555 1_555
C62 C63 1_555 1_555
C68 C69 1_555 1_555
C73 C74 1_555 1_555
C73 C75 1_555 1_555
C77 C78 1_555 1_555

#END
