
#######################################################################
#
#                 Cambridge Crystallographic Data Centre
#                                CCDC 
#
#######################################################################
#
# If this CIF has been generated from an entry in the Cambridge 
# Structural Database, then it will include bibliographic, chemical, 
# crystal, experimental, refinement or atomic coordinate data resulting 
# from the CCDC's data processing and validation procedures.
#
#######################################################################

data_BAQXAV
_chemical_formula_moiety         'C66 H18 N27 O33 Zn17'
_symmetry_cell_setting           hexagonal
_symmetry_space_group_name_H-M   'P 63/m'
_symmetry_Int_Tables_number      176
_space_group_name_Hall           '-P 6c'
loop_
_symmetry_equiv_pos_site_id
_symmetry_equiv_pos_as_xyz
1 x,y,z
2 -x,-y,1/2+z
3 -y,x-y,z
4 -x+y,-x,z
5 x-y,x,1/2+z
6 y,-x+y,1/2+z
7 -x,-y,-z
8 x,y,1/2-z
9 y,-x+y,-z
10 x-y,x,-z
11 -x+y,-x,1/2-z
12 -y,x-y,1/2-z
_cell_length_a                   20.034(5)
_cell_length_b                   20.034(5)
_cell_length_c                   30.459(5)
_cell_angle_alpha                90
_cell_angle_beta                 90
_cell_angle_gamma                120
_cell_volume                     10587.2
loop_
_atom_site_label
_atom_site_type_symbol
_atom_site_fract_x
_atom_site_fract_y
_atom_site_fract_z
Zn1 Zn 0.3333 0.6667 0.39545(5)
Zn2 Zn 0.49141(6) 0.64614(6) 0.43095(3)
C1 C 0.1838(5) 0.5355(7) 0.3452(3)
C2 C 0.1726(6) 0.5254(6) 0.2966(3)
C3 C 0.2165(18) 0.5969(15) 0.2672(7)
C4 C 0.1372(13) 0.4641(12) 0.2736(7)
N1 N 0.084(2) 0.388(2) 0.2870(12)
C5 C 0.5376(5) 0.8045(5) 0.4684(3)
C6 C 0.4988(4) 0.8522(4) 0.4681(2)
C7 C 0.5425(4) 0.9292(4) 0.4894(3)
H1 H 0.5224 0.9622 0.4887
C8 C 0.6133(5) 0.9532(5) 0.5104(3)
C9 C 0.6446(5) 0.9064(5) 0.5099(3)
H2 H 0.6897 0.9231 0.5260
C10 C 0.6179(5) 0.8399(5) 0.4891(3)
H3 H 0.6469 0.8154 0.4871
C11 C 0.6531(7) 1.0313(5) 0.5328(3)
N2 N 0.4908(4) 0.7411(4) 0.4459(2)
N3 N 0.4310(4) 0.7524(4) 0.4345(2)
N4 N 0.4415(5) 0.8188(5) 0.4461(3)
O1 O 0.2455(4) 0.5844(4) 0.3600(2)
O2 O 0.1249(4) 0.4857(4) 0.3680(2)
O3 O 0.7090(4) 1.0505(3) 0.5523(2)
O4 O 0.6105(4) 1.0637(4) 0.5324(2)
C1G C 0.1838(5) 0.5355(7) 0.1548(3)
C2G C 0.1726(6) 0.5254(6) 0.2034(3)
C3G C 0.2165(18) 0.5969(15) 0.2328(7)
C4G C 0.1372(13) 0.4641(12) 0.2264(7)
N1G N 0.084(2) 0.388(2) 0.2130(12)
O1G O 0.2455(4) 0.5844(4) 0.1400(2)
O2G O 0.1249(4) 0.4857(4) 0.1320(2)
Zn2B Zn 0.35386(6) 0.84527(8) 0.43095(3)
C1B C 0.4645(7) 0.6483(9) 0.3452(3)
C2B C 0.4746(6) 0.6472(8) 0.2966(3)
C3B C 0.4031(15) 0.6196(23) 0.2672(7)
C4B C 0.5359(12) 0.6731(18) 0.2736(7)
N1B N 0.612(2) 0.696(3) 0.2870(12)
C5B C 0.1955(5) 0.7331(7) 0.4684(3)
C6B C 0.1478(4) 0.6466(6) 0.4681(2)
C7B C 0.0708(4) 0.6133(6) 0.4894(3)
H1B H 0.0378 0.5602 0.4887
C8B C 0.0468(5) 0.6601(7) 0.5104(3)
C9B C 0.0936(5) 0.7382(7) 0.5099(3)
H2B H 0.0769 0.7666 0.5260
C10B C 0.1601(5) 0.7780(7) 0.4891(3)
H3B H 0.1846 0.8315 0.4871
C11B C -0.0313(5) 0.6218(9) 0.5328(3)
N2B N 0.2589(4) 0.7497(6) 0.4459(2)
N3B N 0.2476(4) 0.6786(6) 0.4345(2)
N4B N 0.1812(5) 0.6227(7) 0.4461(3)
O1B O 0.4156(4) 0.6611(6) 0.3600(2)
O2B O 0.5143(4) 0.6392(6) 0.3680(2)
O3B O -0.0505(3) 0.6585(5) 0.5523(2)
O4B O -0.0637(4) 0.5468(6) 0.5324(2)
C1K C 0.4645(7) 0.6483(9) 0.1548(3)
C2K C 0.4746(6) 0.6472(8) 0.2034(3)
C3K C 0.4031(15) 0.6196(23) 0.2328(7)
C4K C 0.5359(12) 0.6731(18) 0.2264(7)
N1K N 0.612(2) 0.696(3) 0.2130(12)
O1K O 0.4156(4) 0.6611(6) 0.1400(2)
O2K O 0.5143(4) 0.6392(6) 0.1320(2)
Zn2C Zn 0.15473(8) 0.50859(6) 0.43095(3)
C1C C 0.3517(9) 0.8162(5) 0.3452(3)
C2C C 0.3528(8) 0.8274(6) 0.2966(3)
C3C C 0.3804(23) 0.7835(18) 0.2672(7)
C4C C 0.3269(18) 0.8628(13) 0.2736(7)
N1C N 0.304(3) 0.916(2) 0.2870(12)
C5C C 0.2669(7) 0.4624(5) 0.4684(3)
C6C C 0.3534(6) 0.5012(4) 0.4681(2)
C7C C 0.3867(6) 0.4575(4) 0.4894(3)
H1C H 0.4398 0.4776 0.4887
C8C C 0.3399(7) 0.3867(5) 0.5104(3)
C9C C 0.2618(7) 0.3554(5) 0.5099(3)
H2C H 0.2334 0.3103 0.5260
C10C C 0.2220(7) 0.3821(5) 0.4891(3)
H3C H 0.1685 0.3531 0.4871
C11C C 0.3782(9) 0.3469(7) 0.5328(3)
N2C N 0.2503(6) 0.5092(4) 0.4459(2)
N3C N 0.3214(6) 0.5690(4) 0.4345(2)
N4C N 0.3773(7) 0.5585(5) 0.4461(3)
O1C O 0.3389(6) 0.7545(4) 0.3600(2)
O2C O 0.3608(6) 0.8751(4) 0.3680(2)
O3C O 0.3415(5) 0.2910(4) 0.5523(2)
O4C O 0.4532(6) 0.3895(4) 0.5324(2)
C1J C 0.3517(9) 0.8162(5) 0.1548(3)
C2J C 0.3528(8) 0.8274(6) 0.2034(3)
C3J C 0.3804(23) 0.7835(18) 0.2328(7)
C4J C 0.3269(18) 0.8628(13) 0.2264(7)
N1J N 0.304(3) 0.916(2) 0.2130(12)
O1J O 0.3389(6) 0.7545(4) 0.1400(2)
O2J O 0.3608(6) 0.8751(4) 0.1320(2)
Zn1F Zn 0.6667 0.3333 0.60455(5)
Zn2F Zn 0.50859(6) 0.35386(6) 0.56905(3)
C5F C 0.4624(5) 0.1955(5) 0.5316(3)
C6F C 0.5012(4) 0.1478(4) 0.5319(2)
C7F C 0.4575(4) 0.0708(4) 0.5106(3)
H1F H 0.4776 0.0378 0.5113
C8F C 0.3867(5) 0.0468(5) 0.4896(3)
C9F C 0.3554(5) 0.0936(5) 0.4901(3)
H2F H 0.3103 0.0769 0.4740
C10F C 0.3821(5) 0.1601(5) 0.5109(3)
H3F H 0.3531 0.1846 0.5129
C11F C 0.3469(7) -0.0313(5) 0.4672(3)
N2F N 0.5092(4) 0.2589(4) 0.5541(2)
N3F N 0.5690(4) 0.2476(4) 0.5655(2)
N4F N 0.5585(5) 0.1812(5) 0.5539(3)
O3F O 0.2910(4) -0.0505(3) 0.4477(2)
O4F O 0.3895(4) -0.0637(4) 0.4676(2)
Zn2H Zn -0.35386(6) 0.15473(8) 0.56905(3)
C5H C -0.1955(5) 0.2669(7) 0.5316(3)
C6H C -0.1478(4) 0.3534(6) 0.5319(2)
C7H C -0.0708(4) 0.3867(6) 0.5106(3)
H1H H -0.0378 0.4398 0.5113
C8H C -0.0468(5) 0.3399(7) 0.4896(3)
C9H C -0.0936(5) 0.2618(7) 0.4901(3)
H2H H -0.0769 0.2334 0.4740
C10H C -0.1601(5) 0.2220(7) 0.5109(3)
H3H H -0.1846 0.1685 0.5129
C11H C 0.0313(5) 0.3782(9) 0.4672(3)
N2H N -0.2589(4) 0.2503(6) 0.5541(2)
N3H N -0.2476(4) 0.3214(6) 0.5655(2)
N4H N -0.1812(5) 0.3773(7) 0.5539(3)
O3H O 0.0505(3) 0.3415(5) 0.4477(2)
O4H O 0.0637(4) 0.4532(6) 0.4676(2)
Zn2I Zn 0.84527(8) 0.49141(6) 0.56905(3)
C5I C 0.7331(7) 0.5376(5) 0.5316(3)
C6I C 0.6466(6) 0.4988(4) 0.5319(2)
C7I C 0.6133(6) 0.5425(4) 0.5106(3)
H1I H 0.5602 0.5224 0.5113
C8I C 0.6601(7) 0.6133(5) 0.4896(3)
C9I C 0.7382(7) 0.6446(5) 0.4901(3)
H2I H 0.7666 0.6897 0.4740
C10I C 0.7780(7) 0.6179(5) 0.5109(3)
H3I H 0.8315 0.6469 0.5129
C11I C 0.6218(9) 0.6531(7) 0.4672(3)
N2I N 0.7497(6) 0.4908(4) 0.5541(2)
N3I N 0.6786(6) 0.4310(4) 0.5655(2)
N4I N 0.6227(7) 0.4415(5) 0.5539(3)
O3I O 0.6585(5) 0.7090(4) 0.4477(2)
O4I O 0.5468(6) 0.6105(4) 0.4676(2)
Zn1F_2 Zn -0.3333 0.3333 0.60455(5)
Zn1G Zn 0.3333 0.6667 0.10455(5)
Zn2B_2 Zn 0.35386(6) -0.15473(8) 0.43095(3)
Zn2G Zn 0.49141(6) 0.64614(6) 0.06905(3)
Zn2H_2 Zn 0.64614(6) 0.15473(8) 0.56905(3)
Zn2H_3 Zn 0.64614(6) 1.15473(8) 0.56905(3)
Zn2I_2 Zn -0.15473(8) 0.49141(6) 0.56905(3)
Zn2J Zn 0.15473(8) 0.50859(6) 0.06905(3)
Zn2K Zn 0.35386(6) 0.84527(8) 0.06905(3)
N3H_2 N 0.7524(4) 0.3214(6) 0.5655(2)
N4F_2 N -0.4415(5) 0.1812(5) 0.5539(3)
N4H_2 N 0.8188(5) 0.3773(7) 0.5539(3)
O1F O 0.7545(4) 0.4156(4) 0.6400(2)
O1H O 0.5844(4) 0.3389(6) 0.6400(2)
O1I O 0.6611(6) 0.2455(4) 0.6400(2)
O2F O 0.8751(4) 0.5143(4) 0.6320(2)
O2H O 0.4857(4) 0.3608(6) 0.6320(2)
O2I O -0.3608(6) 0.1249(4) 0.6320(2)
O4_2 O -0.3895(4) 0.0637(4) 0.5324(2)
O4B_2 O 0.9363(4) 0.5468(6) 0.5324(2)
O4F_2 O 0.3895(4) 0.9363(4) 0.4676(2)
loop_
_geom_bond_atom_site_label_1
_geom_bond_atom_site_label_2
_geom_bond_site_symmetry_1
_geom_bond_site_symmetry_2
Zn1 N3 1_555 1_555
Zn2 N2 1_555 1_555
C1 C2 1_555 1_555
C2 C3 1_555 1_555
C3 C3G 1_555 1_555
C4 C2 1_555 1_555
N1 C4 1_555 1_555
C5 C6 1_555 1_555
C6 C7 1_555 1_555
C7 H1 1_555 1_555
C8 C7 1_555 1_555
C9 C8 1_555 1_555
H2 C9 1_555 1_555
C10 C5 1_555 1_555
H3 C10 1_555 1_555
C11 C8 1_555 1_555
N2 C5 1_555 1_555
N3 N2 1_555 1_555
N4 C6 1_555 1_555
O1 Zn1 1_555 1_555
O2 C1 1_555 1_555
O3 C11 1_555 1_555
O4 C11 1_555 1_555
C1G C2G 1_555 1_555
C2G C3G 1_555 1_555
C4G C4 1_555 1_555
N1G C4G 1_555 1_555
O1G C1G 1_555 1_555
O2G C1G 1_555 1_555
Zn2B N4 1_555 1_555
C1B C2B 1_555 1_555
C2B C3B 1_555 1_555
C3B C3K 1_555 1_555
C4B C2B 1_555 1_555
N1B C4B 1_555 1_555
C5B C6B 1_555 1_555
C6B C7B 1_555 1_555
C7B H1B 1_555 1_555
C8B C7B 1_555 1_555
C9B C8B 1_555 1_555
H2B C9B 1_555 1_555
C10B C5B 1_555 1_555
H3B C10B 1_555 1_555
C11B C8B 1_555 1_555
N2B Zn2B 1_555 1_555
N3B Zn1 1_555 1_555
N4B C6B 1_555 1_555
O1B Zn1 1_555 1_555
O2B Zn2 1_555 1_555
O3B C11B 1_555 1_555
O4B C11B 1_555 1_555
C1K C2K 1_555 1_555
C2K C3K 1_555 1_555
C4K C4B 1_555 1_555
N1K C4K 1_555 1_555
O1K C1K 1_555 1_555
O2K C1K 1_555 1_555
Zn2C O2 1_555 1_555
C1C C2C 1_555 1_555
C2C C3C 1_555 1_555
C3C C3J 1_555 1_555
C4C C2C 1_555 1_555
N1C C4C 1_555 1_555
C5C C6C 1_555 1_555
C6C C7C 1_555 1_555
C7C H1C 1_555 1_555
C8C C7C 1_555 1_555
C9C C8C 1_555 1_555
H2C C9C 1_555 1_555
C10C C5C 1_555 1_555
H3C C10C 1_555 1_555
C11C C8C 1_555 1_555
N2C Zn2C 1_555 1_555
N3C Zn1 1_555 1_555
N4C Zn2 1_555 1_555
O1C Zn1 1_555 1_555
O2C Zn2B 1_555 1_555
O3C C11C 1_555 1_555
O4C C11C 1_555 1_555
C1J C2J 1_555 1_555
C2J C3J 1_555 1_555
C4J C4C 1_555 1_555
N1J C4J 1_555 1_555
O1J C1J 1_555 1_555
O2J C1J 1_555 1_555
Zn1F N3F 1_555 1_555
Zn2F O4C 1_555 1_555
C5F C6F 1_555 1_555
C6F C7F 1_555 1_555
C7F H1F 1_555 1_555
C8F C7F 1_555 1_555
C9F C8F 1_555 1_555
H2F C9F 1_555 1_555
C10F C5F 1_555 1_555
H3F C10F 1_555 1_555
C11F C8F 1_555 1_555
N2F Zn2F 1_555 1_555
N3F N2F 1_555 1_555
N4F C6F 1_555 1_555
O3F C11F 1_555 1_555
O4F C11F 1_555 1_555
Zn2H N2H 1_555 1_555
C5H C6H 1_555 1_555
C6H C7H 1_555 1_555
C7H H1H 1_555 1_555
C8H C7H 1_555 1_555
C9H C8H 1_555 1_555
H2H C9H 1_555 1_555
C10H C5H 1_555 1_555
H3H C10H 1_555 1_555
C11H C8H 1_555 1_555
N2H C5H 1_555 1_555
N3H N2H 1_555 1_555
N4H C6H 1_555 1_555
O3H C11H 1_555 1_555
O4H Zn2C 1_555 1_555
Zn2I N2I 1_555 1_555
C5I C6I 1_555 1_555
C6I C7I 1_555 1_555
C7I H1I 1_555 1_555
C8I C7I 1_555 1_555
C9I C8I 1_555 1_555
H2I C9I 1_555 1_555
C10I C5I 1_555 1_555
H3I C10I 1_555 1_555
C11I C8I 1_555 1_555
N2I C5I 1_555 1_555
N3I Zn1F 1_555 1_555
N4I Zn2F 1_555 1_555
O3I C11I 1_555 1_555
O4I Zn2 1_555 1_555
Zn1F_2 N3H 1_555 1_555
Zn1G O1G 1_555 1_555
Zn2B_2 O4F 1_555 1_555
Zn2G O2K 1_555 1_555
Zn2H_2 N4F 1_555 1_555
Zn2H_3 O4 1_555 1_555
Zn2I_2 O4B 1_555 1_555
Zn2J O2G 1_555 1_555
Zn2K O2J 1_555 1_555
N3H_2 Zn1F 1_555 1_555
N4F_2 Zn2H 1_555 1_555
N4H_2 Zn2I 1_555 1_555
O1F Zn1F 1_555 1_555
O1H Zn1F 1_555 1_555
O1I Zn1F 1_555 1_555
O2F Zn2I 1_555 1_555
O2H Zn2F 1_555 1_555
O2I Zn2H 1_555 1_555
O4_2 Zn2H 1_555 1_555
O4B_2 Zn2I 1_555 1_555
O4F_2 Zn2B 1_555 1_555
C1 O1 1_555 1_555
C9 C10 1_555 1_555
N3 N4 1_555 1_555
C2G C4G 1_555 1_555
C1B O1B 1_555 1_555
C1B O2B 1_555 1_555
C5B N2B 1_555 1_555
C9B C10B 1_555 1_555
N2B N3B 1_555 1_555
N3B N4B 1_555 1_555
N4B Zn2C 1_555 1_555
C2K C4K 1_555 1_555
O1K Zn1G 1_555 1_555
C1C O1C 1_555 1_555
C1C O2C 1_555 1_555
C5C N2C 1_555 1_555
C6C N4C 1_555 1_555
C9C C10C 1_555 1_555
N2C N3C 1_555 1_555
N3C N4C 1_555 1_555
C2J C4J 1_555 1_555
O1J Zn1G 1_555 1_555
C5F N2F 1_555 1_555
C9F C10F 1_555 1_555
N3F N4F 1_555 1_555
C9H C10H 1_555 1_555
C11H O4H 1_555 1_555
N3H N4H 1_555 1_555
N4H Zn2I_2 1_555 1_555
C6I N4I 1_555 1_555
C9I C10I 1_555 1_555
C11I O4I 1_555 1_555
N2I N3I 1_555 1_555
N3I N4I 1_555 1_555
N3H_2 N4H_2 1_555 1_555

#END
