
#######################################################################
#
#                 Cambridge Crystallographic Data Centre
#                                CCDC 
#
#######################################################################
#
# If this CIF has been generated from an entry in the Cambridge 
# Structural Database, then it will include bibliographic, chemical, 
# crystal, experimental, refinement or atomic coordinate data resulting 
# from the CCDC's data processing and validation procedures.
#
#######################################################################

data_MIDCAF
_chemical_formula_moiety         '(C48 H28 N6 O14 Zn3)n'
_symmetry_cell_setting           tetragonal
_symmetry_space_group_name_H-M   'P 42 21 2'
_symmetry_Int_Tables_number      94
_space_group_name_Hall           'P 4n 2n'
loop_
_symmetry_equiv_pos_site_id
_symmetry_equiv_pos_as_xyz
1 x,y,z
2 1/2-y,1/2+x,1/2+z
3 -x,-y,z
4 1/2+y,1/2-x,1/2+z
5 1/2+x,1/2-y,1/2-z
6 1/2-x,1/2+y,1/2-z
7 y,x,-z
8 -y,-x,-z
_cell_length_a                   25.5599(15)
_cell_length_b                   25.5599(15)
_cell_length_c                   12.7833(12)
_cell_angle_alpha                90
_cell_angle_beta                 90
_cell_angle_gamma                90
_cell_volume                     8351.44
loop_
_atom_site_label
_atom_site_type_symbol
_atom_site_fract_x
_atom_site_fract_y
_atom_site_fract_z
_atom_site_U_iso_or_equiv
_atom_site_thermal_displace_type
Zn1 Zn 0.12514(11) 0.12514(11) 1.0000 0.1320 Uani
N1 N 0.3061(12) 0.4257(15) 1.0067(19) 0.1460 Uani
N2 N 0.3265(14) 0.3693(9) 0.862(3) 0.1410 Uani
N3 N 0.3788(9) 0.4443(11) 0.897(3) 0.1423 Uani
O1 O 0.1223(6) 0.2064(7) 0.9927(15) 0.1570 Uani
O2 O 0.0979(8) 0.2557(8) 1.1305(17) 0.1620 Uani
O3 O 0.5425(6) 0.3777(6) 0.4972(17) 0.1500 Uani
O4 O 0.4950(8) 0.3124(7) 0.4454(17) 0.1623 Uani
O5 O 0.4381(7) 0.6522(8) 1.2414(17) 0.1557 Uani
O6 O 0.3702(6) 0.6276(6) 1.3345(14) 0.1473 Uani
C1 C 0.1266(15) 0.2466(14) 1.055(3) 0.1433 Uani
C2 C 0.5076(13) 0.3483(13) 0.498(3) 0.1500 Uani
C3 C 0.4034(13) 0.6237(16) 1.258(3) 0.1567 Uani
C4 C 0.2944(16) 0.3836(17) 0.943(3) 0.1467 Uani
C5 C 0.3646(16) 0.4042(17) 0.833(4) 0.1400 Uani
C6 C 0.3470(16) 0.4572(15) 0.980(4) 0.1400 Uani
C7 C 0.2499(15) 0.3484(17) 0.966(4) 0.1400 Uani
C8 C 0.222(2) 0.3572(13) 1.057(4) 0.1500 Uani
H1 H 0.2286 0.3869 1.0993 0.1790 Uiso
C9 C 0.1829(15) 0.322(2) 1.084(3) 0.1500 Uani
H2 H 0.1663 0.3246 1.1499 0.1780 Uiso
C10 C 0.1680(14) 0.2826(15) 1.016(4) 0.1467 Uani
C11 C 0.1958(19) 0.2751(12) 0.925(4) 0.1433 Uani
H3 H 0.1875 0.2466 0.8799 0.1730 Uiso
C12 C 0.2351(16) 0.3089(19) 0.898(3) 0.1433 Uani
H4 H 0.2525 0.3052 0.8332 0.1750 Uiso
C13 C 0.4000(18) 0.394(2) 0.746(3) 0.1433 Uani
C14 C 0.3939(11) 0.3459(17) 0.700(3) 0.1467 Uani
H5 H 0.3680 0.3220 0.7241 0.1740 Uiso
C15 C 0.4273(18) 0.3335(12) 0.618(3) 0.1467 Uani
H6 H 0.4234 0.3015 0.5812 0.1740 Uiso
C16 C 0.4662(15) 0.369(2) 0.592(3) 0.1433 Uani
C17 C 0.4719(12) 0.4156(16) 0.644(3) 0.1433 Uani
H7 H 0.4990 0.4390 0.6241 0.1730 Uiso
C18 C 0.4389(17) 0.4290(12) 0.725(3) 0.1333 Uani
H8 H 0.4431 0.4605 0.7632 0.1610 Uiso
C19 C 0.3581(17) 0.4980(14) 1.059(3) 0.1433 Uani
C20 C 0.4049(15) 0.5253(16) 1.044(2) 0.1500 Uani
H9 H 0.4284 0.5150 0.9901 0.1770 Uiso
C21 C 0.4171(12) 0.5675(14) 1.107(3) 0.1400 Uani
H10 H 0.4481 0.5869 1.0950 0.1730 Uiso
C22 C 0.3846(17) 0.5814(13) 1.189(3) 0.1400 Uani
C23 C 0.3388(15) 0.5538(16) 1.203(2) 0.1467 Uani
H11 H 0.3167 0.5625 1.2604 0.1740 Uiso
C24 C 0.3241(12) 0.5138(14) 1.137(3) 0.1433 Uani
H12 H 0.2910 0.4973 1.1442 0.1710 Uiso
Zn2 Zn 0.04442(12) 0.20515(11) 1.1605(3) 0.1387 Uani
O7 O -0.0047(7) 0.2481(7) 1.2548(15) 0.2200 Uani
N1F N 0.4257(15) 0.3061(12) 0.9933(19) 0.1460 Uani
N2F N 0.3693(9) 0.3265(14) 1.138(3) 0.1410 Uani
N3F N 0.4443(11) 0.3788(9) 1.103(3) 0.1423 Uani
O1F O 0.2064(7) 0.1223(6) 1.0073(15) 0.1570 Uani
O2F O 0.2557(8) 0.0979(8) 0.8695(17) 0.1620 Uani
O3F O 0.3777(6) 0.5425(6) 1.5028(17) 0.1500 Uani
O4F O 0.3124(7) 0.4950(8) 1.5546(17) 0.1623 Uani
O5F O 0.6522(8) 0.4381(7) 0.7586(17) 0.1557 Uani
O6F O 0.6276(6) 0.3702(6) 0.6655(14) 0.1473 Uani
C1F C 0.2466(14) 0.1266(15) 0.945(3) 0.1433 Uani
C2F C 0.3483(13) 0.5076(13) 1.502(3) 0.1500 Uani
C3F C 0.6237(16) 0.4034(13) 0.742(3) 0.1567 Uani
C4F C 0.3836(17) 0.2944(16) 1.057(3) 0.1467 Uani
C5F C 0.4042(17) 0.3646(16) 1.167(4) 0.1400 Uani
C6F C 0.4572(15) 0.3470(16) 1.020(4) 0.1400 Uani
C7F C 0.3484(17) 0.2499(15) 1.034(4) 0.1400 Uani
C8F C 0.3572(13) 0.222(2) 0.943(4) 0.1500 Uani
H1F H 0.3869 0.2286 0.9007 0.1790 Uiso
C9F C 0.322(2) 0.1829(15) 0.916(3) 0.1500 Uani
H2F H 0.3246 0.1663 0.8501 0.1780 Uiso
C10F C 0.2826(15) 0.1680(14) 0.984(4) 0.1467 Uani
C11F C 0.2751(12) 0.1958(19) 1.075(4) 0.1433 Uani
H3F H 0.2466 0.1875 1.1201 0.1730 Uiso
C12F C 0.3089(19) 0.2351(16) 1.102(3) 0.1433 Uani
H4F H 0.3052 0.2525 1.1668 0.1750 Uiso
C13F C 0.394(2) 0.4000(18) 1.254(3) 0.1433 Uani
C14F C 0.3459(17) 0.3939(11) 1.300(3) 0.1467 Uani
H5F H 0.3220 0.3680 1.2759 0.1740 Uiso
C15F C 0.3335(12) 0.4273(18) 1.382(3) 0.1467 Uani
H6F H 0.3015 0.4234 1.4188 0.1740 Uiso
C16F C 0.369(2) 0.4662(15) 1.408(3) 0.1433 Uani
C17F C 0.4156(16) 0.4719(12) 1.356(3) 0.1433 Uani
H7F H 0.4390 0.4990 1.3759 0.1730 Uiso
C18F C 0.4290(12) 0.4389(17) 1.275(3) 0.1333 Uani
H8F H 0.4605 0.4431 1.2368 0.1610 Uiso
C19F C 0.4980(14) 0.3581(17) 0.941(3) 0.1433 Uani
C20F C 0.5253(16) 0.4049(15) 0.956(2) 0.1500 Uani
H9F H 0.5150 0.4284 1.0099 0.1770 Uiso
C21F C 0.5675(14) 0.4171(12) 0.893(3) 0.1400 Uani
H10F H 0.5869 0.4481 0.9050 0.1730 Uiso
C22F C 0.5814(13) 0.3846(17) 0.811(3) 0.1400 Uani
C23F C 0.5538(16) 0.3388(15) 0.797(2) 0.1467 Uani
H11F H 0.5625 0.3167 0.7396 0.1740 Uiso
C24F C 0.5138(14) 0.3241(12) 0.863(3) 0.1433 Uani
H12F H 0.4973 0.2910 0.8558 0.1710 Uiso
Zn2F Zn 0.20515(11) 0.04442(12) 0.8395(3) 0.1387 Uani
O7F O 0.2481(7) -0.0047(7) 0.7452(15) 0.2200 Uani
Zn1A Zn 0.37486(11) 0.62514(11) 1.5000 0.1320 Uani
Zn1C Zn 0.62514(11) 0.37486(11) 0.5000 0.1320 Uani
O3A O 0.1223(6) 0.0425(6) 0.9972(17) 0.1500 Uani
O3D O 0.0425(6) 0.1223(6) 1.0028(17) 0.1500 Uani
O4A O 0.1876(7) -0.0050(8) 0.9454(17) 0.1623 Uani
O4D O -0.0050(8) 0.1876(7) 1.0546(17) 0.1623 Uani
O5C O 0.1522(8) 0.0619(7) 0.7414(17) 0.1557 Uani
O5E O 0.0619(7) 0.1522(8) 1.2586(17) 0.1557 Uani
O6C O 0.1276(6) 0.1298(6) 0.8345(14) 0.1473 Uani
O6E O 0.1298(6) 0.1276(6) 1.1655(14) 0.1473 Uani
Zn2A Zn 0.29485(11) 0.54442(12) 1.6605(3) 0.1387 Uani
Zn2C Zn 0.70515(11) 0.45558(12) 0.6605(3) 0.1387 Uani
Zn2D Zn 0.54442(12) 0.29485(11) 0.3395(3) 0.1387 Uani
Zn2E Zn 0.45558(12) 0.70515(11) 1.3395(3) 0.1387 Uani
loop_
_atom_site_aniso_label
_atom_site_aniso_U_11
_atom_site_aniso_U_22
_atom_site_aniso_U_33
_atom_site_aniso_U_23
_atom_site_aniso_U_13
_atom_site_aniso_U_12
Zn1 0.1310(18) 0.1310(18) 0.134(4) -0.004(2) 0.004(2) 0.004(2)
N1 0.15(2) 0.148(19) 0.14(2) -0.01(2) 0.003(19) -0.017(17)
N2 0.139(18) 0.144(19) 0.14(2) -0.011(18) 0.003(17) -0.016(18)
N3 0.147(19) 0.14(2) 0.14(2) -0.007(18) 0.00(2) -0.012(17)
O1 0.169(13) 0.142(13) 0.160(17) -0.002(13) -0.010(14) -0.014(12)
O2 0.159 0.164 0.163 -0.006 0.016 0.015
O3 0.131 0.15 0.169 0.006 -0.027 -0.004
O4 0.161 0.155 0.171 -0.005 -0.017 -0.009
O5 0.142 0.161 0.164 -0.005 0.024 -0.022
O6 0.154 0.143 0.145 0.02 -0.021 0.004
C1 0.15(3) 0.14(3) 0.14(3) -0.02(3) 0.00(3) -0.02(3)
C2 0.14 0.15 0.16 0.01 -0.02 -0.01
C3 0.15 0.16 0.16 0 0.02 -0.01
C4 0.15(3) 0.15(3) 0.14(3) -0.01(3) -0.01(3) -0.02(3)
C5 0.14(3) 0.14(3) 0.14(3) 0.00(3) 0.00(3) -0.01(3)
C6 0.14(3) 0.14(3) 0.14(3) -0.01(3) 0.00(3) -0.02(3)
C7 0.14(3) 0.14(3) 0.14(4) 0.00(3) 0.00(3) -0.02(3)
C8 0.16(3) 0.15(3) 0.14(3) -0.01(3) 0.00(2) -0.01(3)
C9 0.15(3) 0.15(2) 0.15(3) -0.01(3) 0.00(2) -0.02(2)
C10 0.16(3) 0.14(3) 0.14(4) -0.01(3) 0.00(3) -0.02(3)
C11 0.15(3) 0.14(3) 0.14(3) -0.01(2) 0.00(3) -0.01(3)
C12 0.15(3) 0.14(2) 0.14(3) -0.01(3) 0.00(2) -0.02(2)
C13 0.15(3) 0.14(3) 0.14(3) -0.01(3) 0.00(3) 0.00(3)
C14 0.15(3) 0.15(3) 0.14(3) -0.01(2) 0.01(3) -0.01(2)
C15 0.15(3) 0.15(3) 0.14(3) -0.01(2) 0.00(2) -0.01(3)
C16 0.15(3) 0.15(3) 0.13(3) 0.01(3) 0.00(2) -0.01(3)
C17 0.15(3) 0.14(3) 0.14(3) -0.01(2) 0.00(3) -0.01(2)
C18 0.13(2) 0.14(3) 0.13(3) 0.00(2) 0.01(2) -0.01(2)
C19 0.14(3) 0.15(3) 0.14(3) -0.01(3) 0.00(3) -0.03(3)
C20 0.15(3) 0.16(3) 0.14(3) -0.02(2) 0.01(2) -0.02(2)
C21 0.14(3) 0.14(3) 0.14(3) -0.02(2) 0.00(3) -0.03(2)
C22 0.14(3) 0.15(2) 0.13(3) -0.02(2) 0.01(3) -0.02(3)
C23 0.15(3) 0.15(2) 0.14(3) -0.02(2) 0.01(2) -0.02(2)
C24 0.15(2) 0.15(3) 0.13(3) -0.02(2) 0.01(3) -0.02(2)
Zn2 0.14 0.139 0.137 -0.001 0.003 0.004
O7 0.214 0.221 0.225 -0.009 0.029 0.048
N1F 0.148 0.15 0.14 -0.003 0.01 -0.017
N2F 0.144 0.139 0.14 -0.003 0.011 -0.016
N3F 0.14 0.147 0.14 0 0.007 -0.012
O1F 0.142 0.169 0.16 0.01 0.002 -0.014
O2F 0.164 0.159 0.163 -0.016 0.006 0.015
O3F 0.15 0.131 0.169 0.027 -0.006 -0.004
O4F 0.155 0.161 0.171 0.017 0.005 -0.009
O5F 0.161 0.142 0.164 -0.024 0.005 -0.022
O6F 0.143 0.154 0.145 0.021 -0.02 0.004
C1F 0.14 0.15 0.14 0 0.02 -0.02
C2F 0.15 0.14 0.16 0.02 -0.01 -0.01
C3F 0.16 0.15 0.16 -0.02 0 -0.01
C4F 0.15 0.15 0.14 0.01 0.01 -0.02
C5F 0.14 0.14 0.14 0 0 -0.01
C6F 0.14 0.14 0.14 0 0.01 -0.02
C7F 0.14 0.14 0.14 0 0 -0.02
C8F 0.15 0.16 0.14 0 0.01 -0.01
C9F 0.15 0.15 0.15 0 0.01 -0.02
C10F 0.14 0.16 0.14 0 0.01 -0.02
C11F 0.14 0.15 0.14 0 0.01 -0.01
C12F 0.14 0.15 0.14 0 0.01 -0.02
C13F 0.14 0.15 0.14 0 0.01 0
C14F 0.15 0.15 0.14 -0.01 0.01 -0.01
C15F 0.15 0.15 0.14 0 0.01 -0.01
C16F 0.15 0.15 0.13 0 -0.01 -0.01
C17F 0.14 0.15 0.14 0 0.01 -0.01
C18F 0.14 0.13 0.13 -0.01 0 -0.01
C19F 0.15 0.14 0.14 0 0.01 -0.03
C20F 0.16 0.15 0.14 -0.01 0.02 -0.02
C21F 0.14 0.14 0.14 0 0.02 -0.03
C22F 0.15 0.14 0.13 -0.01 0.02 -0.02
C23F 0.15 0.15 0.14 -0.01 0.02 -0.02
C24F 0.15 0.15 0.13 -0.01 0.02 -0.02
Zn2F 0.139 0.14 0.137 -0.003 0.001 0.004
O7F 0.221 0.214 0.225 -0.029 0.009 0.048
Zn1A 0.131 0.131 0.134 0.004 0.004 -0.004
Zn1C 0.131 0.131 0.134 -0.004 -0.004 -0.004
O3A 0.15 0.131 0.169 -0.027 -0.006 0.004
O3D 0.131 0.15 0.169 0.006 0.027 0.004
O4A 0.155 0.161 0.171 -0.017 0.005 0.009
O4D 0.161 0.155 0.171 -0.005 0.017 0.009
O5C 0.161 0.142 0.164 -0.024 -0.005 0.022
O5E 0.142 0.161 0.164 0.005 0.024 0.022
O6C 0.143 0.154 0.145 0.021 0.02 -0.004
O6E 0.154 0.143 0.145 -0.02 -0.021 -0.004
Zn2A 0.139 0.14 0.137 0.003 0.001 -0.004
Zn2C 0.139 0.14 0.137 -0.003 -0.001 -0.004
Zn2D 0.14 0.139 0.137 -0.001 -0.003 -0.004
Zn2E 0.14 0.139 0.137 0.001 0.003 -0.004
loop_
_geom_bond_atom_site_label_1
_geom_bond_atom_site_label_2
_geom_bond_site_symmetry_1
_geom_bond_site_symmetry_2
Zn1 O1 1_555 1_555
N1 C4 1_555 1_555
N2 C4 1_555 1_555
N3 C5 1_555 1_555
O1 C1 1_555 1_555
O2 C1 1_555 1_555
O3 C2 1_555 1_555
O4 C2 1_555 1_555
O5 C3 1_555 1_555
O6 C3 1_555 1_555
C1 C10 1_555 1_555
C2 C16 1_555 1_555
C3 C22 1_555 1_555
C4 C7 1_555 1_555
C5 N2 1_555 1_555
C6 N1 1_555 1_555
C7 C8 1_555 1_555
C8 H1 1_555 1_555
C9 C8 1_555 1_555
H2 C9 1_555 1_555
C10 C9 1_555 1_555
C11 C10 1_555 1_555
H3 C11 1_555 1_555
C12 C7 1_555 1_555
H4 C12 1_555 1_555
C13 C5 1_555 1_555
C14 C13 1_555 1_555
H5 C14 1_555 1_555
C15 C14 1_555 1_555
H6 C15 1_555 1_555
C16 C15 1_555 1_555
C17 C16 1_555 1_555
H7 C17 1_555 1_555
C18 C13 1_555 1_555
H8 C18 1_555 1_555
C19 C6 1_555 1_555
C20 C19 1_555 1_555
H9 C20 1_555 1_555
C21 C20 1_555 1_555
H10 C21 1_555 1_555
C22 C21 1_555 1_555
C23 C22 1_555 1_555
H11 C23 1_555 1_555
C24 C19 1_555 1_555
H12 C24 1_555 1_555
Zn2 O2 1_555 1_555
O7 Zn2 1_555 1_555
N1F C4F 1_555 1_555
N2F C4F 1_555 1_555
N3F C5F 1_555 1_555
O1F Zn1 1_555 1_555
O2F C1F 1_555 1_555
O3F C2F 1_555 1_555
O4F C2F 1_555 1_555
O5F C3F 1_555 1_555
O6F C3F 1_555 1_555
C1F O1F 1_555 1_555
C2F C16F 1_555 1_555
C3F C22F 1_555 1_555
C4F C7F 1_555 1_555
C5F N2F 1_555 1_555
C6F N1F 1_555 1_555
C7F C8F 1_555 1_555
C8F H1F 1_555 1_555
C9F C8F 1_555 1_555
H2F C9F 1_555 1_555
C10F C1F 1_555 1_555
C11F C10F 1_555 1_555
H3F C11F 1_555 1_555
C12F C7F 1_555 1_555
H4F C12F 1_555 1_555
C13F C5F 1_555 1_555
C14F C13F 1_555 1_555
H5F C14F 1_555 1_555
C15F C14F 1_555 1_555
H6F C15F 1_555 1_555
C16F C15F 1_555 1_555
C17F C16F 1_555 1_555
H7F C17F 1_555 1_555
C18F C13F 1_555 1_555
H8F C18F 1_555 1_555
C19F C6F 1_555 1_555
C20F C19F 1_555 1_555
H9F C20F 1_555 1_555
C21F C20F 1_555 1_555
H10F C21F 1_555 1_555
C22F C21F 1_555 1_555
C23F C22F 1_555 1_555
H11F C23F 1_555 1_555
C24F C19F 1_555 1_555
H12F C24F 1_555 1_555
Zn2F O2F 1_555 1_555
O7F Zn2F 1_555 1_555
Zn1A O6 1_555 1_555
Zn1C O3 1_555 1_555
O3A Zn1 1_555 1_555
O3D Zn1 1_555 1_555
O4A Zn2F 1_555 1_555
O4D Zn2 1_555 1_555
O5C Zn2F 1_555 1_555
O5E Zn2 1_555 1_555
O6C Zn1 1_555 1_555
O6E Zn1 1_555 1_555
Zn2A O4F 1_555 1_555
Zn2C O5F 1_555 1_555
Zn2D O4 1_555 1_555
Zn2E O5 1_555 1_555
N3 C6 1_555 1_555
C11 C12 1_555 1_555
C17 C18 1_555 1_555
C23 C24 1_555 1_555
N3F C6F 1_555 1_555
O3F Zn1A 1_555 1_555
O6F Zn1C 1_555 1_555
C9F C10F 1_555 1_555
C11F C12F 1_555 1_555
C17F C18F 1_555 1_555
C23F C24F 1_555 1_555

#END
