
#######################################################################
#
#                 Cambridge Crystallographic Data Centre
#                                CCDC 
#
#######################################################################
#
# If this CIF has been generated from an entry in the Cambridge 
# Structural Database, then it will include bibliographic, chemical, 
# crystal, experimental, refinement or atomic coordinate data resulting 
# from the CCDC's data processing and validation procedures.
#
#######################################################################

data_QIRBUQ
_chemical_formula_moiety         '(C15 H20 Cd1 N2 O7)n'
_symmetry_cell_setting           tetragonal
_symmetry_space_group_name_H-M   'I 41/a'
_symmetry_Int_Tables_number      88
_space_group_name_Hall           '-I 4ad'
loop_
_symmetry_equiv_pos_site_id
_symmetry_equiv_pos_as_xyz
1 x,y,z
2 1/2-x,-y,1/2+z
3 3/4-y,1/4+x,1/4+z
4 3/4+y,3/4-x,3/4+z
5 1/2+x,1/2+y,1/2+z
6 -x,1/2-y,z
7 1/4-y,3/4+x,3/4+z
8 1/4+y,1/4-x,1/4+z
9 -x,-y,-z
10 1/2+x,y,1/2-z
11 1/4+y,3/4-x,3/4-z
12 1/4-y,1/4+x,1/4-z
13 1/2-x,1/2-y,1/2-z
14 x,1/2+y,-z
15 3/4+y,1/4-x,1/4-z
16 3/4-y,3/4+x,3/4-z
_cell_length_a                   21.9367(7)
_cell_length_b                   21.9367(7)
_cell_length_c                   16.3377(10)
_cell_angle_alpha                90
_cell_angle_beta                 90
_cell_angle_gamma                90
_cell_volume                     7862.01
loop_
_atom_site_label
_atom_site_type_symbol
_atom_site_fract_x
_atom_site_fract_y
_atom_site_fract_z
Cd1 Cd 0.080291(16) 0.511236(17) 0.04089(2)
O1 O 0.08621(19) 0.41788(19) -0.0416(2)
O2 O 0.1176(2) 0.3225(2) -0.0361(3)
O3 O 0.1746(2) 0.25674(18) 0.0579(3)
O4 O 0.21814(19) 0.26395(16) 0.1797(2)
O5 O 0.0350(2) 0.5915(2) 0.1046(3)
H1 H 0.0525 0.6269 0.1186
H2 H -0.0030 0.5951 0.0958
N1 N 0.13263(17) 0.44364(18) 0.1121(2)
N2 N 0.1836(2) 0.38299(18) 0.1981(2)
C1 C 0.1118(2) 0.3759(3) -0.0054(3)
C2 C 0.1885(2) 0.2859(2) 0.1216(3)
C3 C 0.1387(2) 0.3877(2) 0.0765(3)
C4 C 0.1705(2) 0.3504(2) 0.1285(3)
C5 C 0.1596(2) 0.4383(2) 0.1858(3)
C6 C 0.1610(3) 0.4885(2) 0.2456(3)
C7 C 0.1126(5) 0.5228(4) 0.2584(6)
H3 H 0.0764 0.5144 0.2310
C8 C 0.1153(6) 0.5726(5) 0.3139(7)
H4 H 0.0810 0.5972 0.3188
C9 C 0.1630(4) 0.5860(4) 0.3586(5)
C10 C 0.2172(5) 0.5471(5) 0.3471(7)
H5 H 0.2521 0.5537 0.3780
C11 C 0.2155(4) 0.5008(4) 0.2898(5)
H6 H 0.2502 0.4776 0.2801
C12 C 0.1616(4) 0.6397(4) 0.4174(6)
C13 C 0.1044(5) 0.6743(7) 0.4243(9)
H7 H 0.0923 0.6923 0.3733
H8 H 0.1093 0.7056 0.4648
H9 H 0.0736 0.6461 0.4420
C14 C 0.1790(6) 0.6201(8) 0.5003(7)
H10 H 0.1449 0.6138 0.5360
H11 H 0.2056 0.6502 0.5234
H12 H 0.2008 0.5825 0.4937
C15 C 0.2088(6) 0.6822(7) 0.3883(10)
H13 H 0.2493 0.6676 0.3990
H14 H 0.2033 0.7211 0.4142
H15 H 0.2030 0.6863 0.3304
Cd1B Cd 0.238764(17) 0.330291(16) 0.29089(2)
Cd1N Cd 0.261236(17) 0.169709(16) 0.20911(2)
O4C O 0.01395(16) 0.53186(19) -0.0703(2)
O4K O -0.01395(16) 0.46814(19) 0.0703(2)
N2C N 0.13299(18) 0.5664(2) -0.0519(2)
O6 O 0.0555(9) 0.6938(9) -0.0108(13)
H29 H 0.0477 0.7016 0.0327
H30 H 0.0894 0.7096 -0.0244
O7 O 0.0636(16) 0.7102(16) 0.129(2)
H31 H 0.0981 0.7324 0.1370
H32 H 0.0324 0.7270 0.1566
loop_
_geom_bond_atom_site_label_1
_geom_bond_atom_site_label_2
_geom_bond_site_symmetry_1
_geom_bond_site_symmetry_2
Cd1 O1 1_555 1_555
O1 C1 1_555 1_555
O2 C1 1_555 1_555
O3 C2 1_555 1_555
O4 C2 1_555 1_555
O5 Cd1 1_555 1_555
H1 O5 1_555 1_555
H2 O5 1_555 1_555
N1 Cd1 1_555 1_555
N2 C4 1_555 1_555
C1 C3 1_555 1_555
C2 C4 1_555 1_555
C3 N1 1_555 1_555
C4 C3 1_555 1_555
C5 N1 1_555 1_555
C6 C5 1_555 1_555
C7 C6 1_555 1_555
H3 C7 1_555 1_555
C8 C7 1_555 1_555
H4 C8 1_555 1_555
C9 C8 1_555 1_555
C10 C9 1_555 1_555
H5 C10 1_555 1_555
C11 C6 1_555 1_555
H6 C11 1_555 1_555
C12 C9 1_555 1_555
C13 C12 1_555 1_555
H7 C13 1_555 1_555
H8 C13 1_555 1_555
H9 C13 1_555 1_555
C14 C12 1_555 1_555
H10 C14 1_555 1_555
H11 C14 1_555 1_555
H12 C14 1_555 1_555
C15 C12 1_555 1_555
H13 C15 1_555 1_555
H14 C15 1_555 1_555
H15 C15 1_555 1_555
O6 H29 1_555 1_555
H30 O6 1_555 1_555
O7 H31 1_555 1_555
H32 O7 1_555 1_555
Cd1B O4 1_555 1_555
Cd1N O4 1_555 1_555
O4C Cd1 1_555 1_555
O4K Cd1 1_555 1_555
N2C Cd1 1_555 1_555
N2 C5 1_555 1_555
N2 Cd1B 1_555 1_555
C10 C11 1_555 1_555

#END
