
#######################################################################
#
#                 Cambridge Crystallographic Data Centre
#                                CCDC 
#
#######################################################################
#
# If this CIF has been generated from an entry in the Cambridge 
# Structural Database, then it will include bibliographic, chemical, 
# crystal, experimental, refinement or atomic coordinate data resulting 
# from the CCDC's data processing and validation procedures.
#
#######################################################################

data_TAKKIC
_chemical_formula_moiety         'C37 H36 Cu8 N2 O18'
_symmetry_cell_setting           cubic
_symmetry_space_group_name_H-M   'P 4 3 2'
_symmetry_Int_Tables_number      207
_space_group_name_Hall           'P 4 2 3'
loop_
_symmetry_equiv_pos_site_id
_symmetry_equiv_pos_as_xyz
1 x,y,z
2 -x,-y,z
3 -x,y,-z
4 x,-y,-z
5 z,x,y
6 z,-x,-y
7 -z,-x,y
8 -z,x,-y
9 y,z,x
10 -y,z,-x
11 y,-z,-x
12 -y,-z,x
13 y,x,-z
14 -y,-x,-z
15 y,-x,z
16 -y,x,z
17 x,z,-y
18 -x,z,y
19 -x,-z,-y
20 x,-z,y
21 z,y,-x
22 z,-y,x
23 -z,y,x
24 -z,-y,-x
_cell_length_a                   29.0261(6)
_cell_length_b                   29.0261(6)
_cell_length_c                   29.0261(6)
_cell_angle_alpha                90
_cell_angle_beta                 90
_cell_angle_gamma                90
_cell_volume                     24454.9
loop_
_atom_site_label
_atom_site_type_symbol
_atom_site_fract_x
_atom_site_fract_y
_atom_site_fract_z
_atom_site_U_iso_or_equiv
_atom_site_thermal_displace_type
Cu1 Cu 0.30548(8) 0.30548(8) 0.5000 0.1017 Uani
Cu2 Cu 0.24011(8) 0.24011(8) 0.5000 0.1033 Uani
O1 O 0.2694(5) 0.3304(5) 0.4534(5) 0.1140 Uani
O2 O 0.2122(7) 0.2764(6) 0.4561(7) 0.1657 Uani
O3 O 0.2664(4) 0.4524(4) 0.3376(4) 0.0753 Uani
O4 O 0.2107(4) 0.4501(4) 0.2801(4) 0.0737 Uani
O5 O 0.3559(4) 0.3559(4) 0.5000 0.1343 Uani
H1 H 0.3526 0.3738 0.5228 0.4000 Uiso
O6 O 0.1870(4) 0.1870(4) 0.5000 0.1237 Uani
H2 H 0.1809 0.1790 0.5273 0.4000 Uiso
C1 C 0.2355(5) 0.3083(5) 0.4367(5) 0.0590 Uani
C2 C 0.2319(5) 0.4359(5) 0.3159(5) 0.0690 Uani
C3 C 0.2107(4) 0.3311(4) 0.3943(3) 0.0780 Uani
C4 C 0.1730(4) 0.3110(3) 0.3727(4) 0.0680 Uani
H3 H 0.1613 0.2824 0.3835 0.0810 Uiso
C5 C 0.1524(3) 0.3327(4) 0.3353(4) 0.1007 Uani
C6 C 0.1694(4) 0.3745(4) 0.3195(3) 0.0937 Uani
H4 H 0.1554 0.3893 0.2940 0.1130 Uiso
C7 C 0.2072(4) 0.3947(3) 0.3411(4) 0.0577 Uani
C8 C 0.2278(3) 0.3730(4) 0.3785(4) 0.0813 Uani
H5 H 0.2535 0.3867 0.3932 0.0980 Uiso
C9 C 0.0438(4) 0.2600(6) 0.2609(5) 0.1280 Uani
C10 C 0.0745(5) 0.2359(4) 0.2887(6) 0.1667 Uani
H6 H 0.0712 0.2035 0.2924 0.1990 Uiso
C11 C 0.1099(4) 0.2591(5) 0.3110(5) 0.1100 Uani
H7 H 0.1308 0.2427 0.3300 0.1310 Uiso
C12 C 0.1146(4) 0.3065(5) 0.3055(4) 0.0923 Uani
C13 C 0.0840(5) 0.3306(4) 0.2777(4) 0.0933 Uani
H8 H 0.0872 0.3629 0.2739 0.1120 Uiso
C14 C 0.0486(4) 0.3073(6) 0.2554(4) 0.1700 Uani
H9 H 0.0276 0.3238 0.2364 0.2060 Uiso
C15 C 0.0000 0.2406(4) 0.2406(4) 0.1393 Uani
O7 O 0.0003(10) 0.1920(5) 0.2468(11) 0.1470 Uiso
H10 H 0.0007 0.1881 0.2784 0.0800 Uiso
C16 C -0.0001(10) 0.2499(11) 0.1887(5) 0.1470 Uiso
H11 H 0.0108 0.2820 0.1824 0.1770 Uiso
N1 N 0.0302(10) 0.2162(14) 0.1655(10) 0.1630 Uiso
H12 H 0.0574 0.2303 0.1578 0.2500 Uiso
C17 C -0.0494(10) 0.2432(17) 0.1698(16) 0.1490 Uiso
H13 H -0.0648 0.2733 0.1652 0.1790 Uiso
H14 H -0.0681 0.2245 0.1914 0.1790 Uiso
C18 C 0.0065(16) 0.2003(16) 0.1233(12) 0.1800 Uiso
H15 H 0.0068 0.1662 0.1221 0.2110 Uiso
H16 H 0.0229 0.2121 0.0958 0.2110 Uiso
C19 C -0.0436(17) 0.218(3) 0.1232(19) 0.3100 Uiso
H17 H -0.0655 0.1918 0.1208 0.3690 Uiso
H18 H -0.0489 0.2391 0.0971 0.3690 Uiso
O1Q O -0.2694(5) 0.4534(5) 0.3304(5) 0.1140 Uani
O2Q O -0.2122(7) 0.4561(7) 0.2764(6) 0.1657 Uani
O3Q O -0.2664(4) 0.3376(4) 0.4524(4) 0.0753 Uani
O4Q O -0.2107(4) 0.2801(4) 0.4501(4) 0.0737 Uani
C1Q C -0.2355(5) 0.4367(5) 0.3083(5) 0.0590 Uani
C2Q C -0.2319(5) 0.3159(5) 0.4359(5) 0.0690 Uani
C3Q C -0.2107(4) 0.3943(3) 0.3311(4) 0.0780 Uani
C4Q C -0.1730(4) 0.3727(4) 0.3110(3) 0.0680 Uani
H3Q H -0.1613 0.3835 0.2824 0.0810 Uiso
C5Q C -0.1524(3) 0.3353(4) 0.3327(4) 0.1007 Uani
C6Q C -0.1694(4) 0.3195(3) 0.3745(4) 0.0937 Uani
H4Q H -0.1554 0.2940 0.3893 0.1130 Uiso
C7Q C -0.2072(4) 0.3411(4) 0.3947(3) 0.0577 Uani
C8Q C -0.2278(3) 0.3785(4) 0.3730(4) 0.0813 Uani
H5Q H -0.2535 0.3932 0.3867 0.0980 Uiso
C9Q C -0.0438(4) 0.2609(5) 0.2600(6) 0.1280 Uani
C10Q C -0.0745(5) 0.2887(6) 0.2359(4) 0.1667 Uani
H6Q H -0.0712 0.2924 0.2035 0.1990 Uiso
C11Q C -0.1099(4) 0.3110(5) 0.2591(5) 0.1100 Uani
H7Q H -0.1308 0.3300 0.2427 0.1310 Uiso
C12Q C -0.1146(4) 0.3055(4) 0.3065(5) 0.0923 Uani
C13Q C -0.0840(5) 0.2777(4) 0.3306(4) 0.0933 Uani
H8Q H -0.0872 0.2739 0.3629 0.1120 Uiso
C14Q C -0.0486(4) 0.2554(4) 0.3073(6) 0.1700 Uani
H9Q H -0.0276 0.2364 0.3238 0.2060 Uiso
O7Q O -0.0003(10) 0.2468(11) 0.1920(5) 0.1470 Uiso
H10Q H -0.0007 0.2784 0.1881 0.0800 Uiso
C16Q C 0.0001(10) 0.1887(5) 0.2499(11) 0.1470 Uiso
H11Q H -0.0108 0.1824 0.2820 0.1770 Uiso
N1Q N -0.0302(10) 0.1655(10) 0.2162(14) 0.1630 Uiso
H12Q H -0.0574 0.1578 0.2303 0.2500 Uiso
C17Q C 0.0494(10) 0.1698(16) 0.2432(17) 0.1490 Uiso
H13Q H 0.0648 0.1652 0.2733 0.1790 Uiso
H14Q H 0.0681 0.1914 0.2245 0.1790 Uiso
C18Q C -0.0065(16) 0.1233(12) 0.2003(16) 0.1800 Uiso
H15Q H -0.0068 0.1221 0.1662 0.2110 Uiso
H16Q H -0.0229 0.0958 0.2121 0.2110 Uiso
C19Q C 0.0436(17) 0.1232(19) 0.218(3) 0.3100 Uiso
H17Q H 0.0655 0.1208 0.1918 0.3690 Uiso
H18Q H 0.0489 0.0971 0.2391 0.3690 Uiso
H1L H 0.3738 0.3526 0.4772 0.4000 Uiso
H2L H 0.1790 0.1809 0.4727 0.4000 Uiso
Cu1B Cu -0.30548(8) 0.30548(8) 0.5000 0.1017 Uani
Cu1H Cu 0.30548(8) 0.5000 0.30548(8) 0.1017 Uani
Cu1K Cu -0.30548(8) 0.5000 0.30548(8) 0.1017 Uani
Cu2B Cu -0.24011(8) 0.24011(8) 0.5000 0.1033 Uani
Cu2H Cu 0.24011(8) 0.5000 0.24011(8) 0.1033 Uani
Cu2K Cu -0.24011(8) 0.5000 0.24011(8) 0.1033 Uani
O1L O 0.3304(5) 0.2694(5) 0.5466(5) 0.1140 Uani
O2L O 0.2764(6) 0.2122(7) 0.5439(7) 0.1657 Uani
O3D O 0.3376(4) 0.2664(4) 0.4524(4) 0.0753 Uani
O3P O 0.2664(4) 0.3376(4) 0.5476(4) 0.0753 Uani
O4D O 0.2801(4) 0.2107(4) 0.4501(4) 0.0737 Uani
O4P O 0.2107(4) 0.2801(4) 0.5499(4) 0.0737 Uani
loop_
_atom_site_aniso_label
_atom_site_aniso_U_11
_atom_site_aniso_U_22
_atom_site_aniso_U_33
_atom_site_aniso_U_23
_atom_site_aniso_U_13
_atom_site_aniso_U_12
Cu1 0.121(2) 0.121(2) 0.063(2) 0.016(2) -0.016(2) -0.026(2)
Cu2 0.113(2) 0.113(2) 0.084(2) 0.017(3) -0.017(3) -0.027(2)
O1 0.125(14) 0.123(13) 0.094(11) -0.005(10) 0.018(10) -0.042(11)
O2 0.149(17) 0.168(18) 0.180(19) 0.006(16) -0.015(15) -0.060(15)
O3 0.066(9) 0.076(9) 0.084(10) 0.006(7) 0.003(7) 0.016(7)
O4 0.090(9) 0.060(7) 0.071(8) -0.008(7) -0.027(8) 0.010(7)
O5 0.135(9) 0.135(9) 0.133(15) -0.020(16) 0.020(16) -0.029(12)
O6 0.133(9) 0.133(9) 0.105(12) -0.006(14) 0.006(14) 0.009(10)
C1 0.051(12) 0.059(12) 0.067(13) -0.013(11) -0.026(10) -0.010(10)
C2 0.078(15) 0.041(12) 0.088(15) 0.006(11) -0.033(14) 0.014(11)
C3 0.094(16) 0.067(14) 0.073(14) 0.007(11) -0.005(13) 0.003(12)
C4 0.049(12) 0.071(12) 0.084(15) 0.010(11) 0.000(10) 0.003(10)
C5 0.082(12) 0.11(2) 0.11(2) -0.004(12) -0.003(16) 0.005(16)
C6 0.099(18) 0.080(16) 0.102(17) -0.006(14) -0.015(15) 0.000(14)
C7 0.050(12) 0.071(13) 0.052(11) -0.028(10) 0.016(9) -0.002(10)
C8 0.088(11) 0.104(19) 0.052(14) 0.002(9) -0.030(11) -0.002(13)
C9 0.104(15) 0.14(3) 0.14(3) 0.006(17) 0.03(2) 0.00(2)
C10 0.14(2) 0.17(3) 0.19(3) 0.05(2) -0.02(2) 0.02(2)
C11 0.084(16) 0.106(19) 0.14(2) -0.009(15) -0.005(13) -0.011(13)
C12 0.084(11) 0.11(2) 0.083(17) -0.002(10) -0.012(13) -0.024(14)
C13 0.109(17) 0.105(16) 0.066(13) -0.002(12) 0.002(12) -0.014(14)
C14 0.13(2) 0.23(4) 0.15(3) -0.01(3) -0.02(2) -0.05(3)
C15 0.15(3) 0.134(16) 0.134(16) 0.02(2) -0.01(3) 0.01(3)
O1Q 0.125 0.094 0.123 -0.005 0.042 -0.018
O2Q 0.149 0.18 0.168 0.006 0.06 0.015
O3Q 0.066 0.084 0.076 0.006 -0.016 -0.003
O4Q 0.09 0.071 0.06 -0.008 -0.01 0.027
C1Q 0.051 0.067 0.059 -0.013 0.01 0.026
C2Q 0.078 0.088 0.041 0.006 -0.014 0.033
C3Q 0.094 0.073 0.067 0.007 -0.003 0.005
C4Q 0.049 0.084 0.071 0.01 -0.003 0
C5Q 0.082 0.11 0.11 -0.004 -0.005 0.003
C6Q 0.099 0.102 0.08 -0.006 0 0.015
C7Q 0.05 0.052 0.071 -0.028 0.002 -0.016
C8Q 0.088 0.052 0.104 0.002 0.002 0.03
C9Q 0.104 0.14 0.14 0.006 0 -0.03
C10Q 0.14 0.19 0.17 0.05 -0.02 0.02
C11Q 0.084 0.14 0.106 -0.009 0.011 0.005
C12Q 0.084 0.083 0.11 -0.002 0.024 0.012
C13Q 0.109 0.066 0.105 -0.002 0.014 -0.002
C14Q 0.13 0.15 0.23 -0.01 0.05 0.02
Cu1B 0.121 0.121 0.063 -0.016 -0.016 0.026
Cu1H 0.121 0.063 0.121 -0.016 -0.026 0.016
Cu1K 0.121 0.063 0.121 0.016 0.026 0.016
Cu2B 0.113 0.113 0.084 -0.017 -0.017 0.027
Cu2H 0.113 0.084 0.113 -0.017 -0.027 0.017
Cu2K 0.113 0.084 0.113 0.017 0.027 0.017
O1L 0.123 0.125 0.094 -0.018 0.005 -0.042
O2L 0.168 0.149 0.18 0.015 -0.006 -0.06
O3D 0.084 0.066 0.076 0.016 0.006 0.003
O3P 0.066 0.084 0.076 -0.006 -0.016 0.003
O4D 0.071 0.09 0.06 0.01 -0.008 -0.027
O4P 0.09 0.071 0.06 0.008 -0.01 -0.027
loop_
_geom_bond_atom_site_label_1
_geom_bond_atom_site_label_2
_geom_bond_site_symmetry_1
_geom_bond_site_symmetry_2
Cu1 Cu2 1_555 1_555
Cu2 O2 1_555 1_555
O1 Cu1 1_555 1_555
O2 C1 1_555 1_555
O3 C2 1_555 1_555
O4 C2 1_555 1_555
O5 Cu1 1_555 1_555
H1 O5 1_555 1_555
O6 Cu2 1_555 1_555
H2 O6 1_555 1_555
C1 O1 1_555 1_555
C2 C7 1_555 1_555
C3 C1 1_555 1_555
C4 C3 1_555 1_555
H3 C4 1_555 1_555
C5 C4 1_555 1_555
C6 C5 1_555 1_555
H4 C6 1_555 1_555
C7 C6 1_555 1_555
C8 C3 1_555 1_555
H5 C8 1_555 1_555
C9 C10 1_555 1_555
C10 H6 1_555 1_555
C11 C10 1_555 1_555
H7 C11 1_555 1_555
C12 C5 1_555 1_555
C13 C12 1_555 1_555
H8 C13 1_555 1_555
C14 C9 1_555 1_555
H9 C14 1_555 1_555
C15 C9 1_555 1_555
O7 C15 1_555 1_555
H10 O7 1_555 1_555
C16 C15 1_555 1_555
H11 C16 1_555 1_555
N1 C16 1_555 1_555
H12 N1 1_555 1_555
C17 C16 1_555 1_555
H13 C17 1_555 1_555
H14 C17 1_555 1_555
C18 N1 1_555 1_555
H15 C18 1_555 1_555
H16 C18 1_555 1_555
C19 C17 1_555 1_555
H17 C19 1_555 1_555
H18 C19 1_555 1_555
O1Q C1Q 1_555 1_555
O2Q C1Q 1_555 1_555
O3Q C2Q 1_555 1_555
O4Q C2Q 1_555 1_555
C1Q C3Q 1_555 1_555
C2Q C7Q 1_555 1_555
C3Q C4Q 1_555 1_555
C4Q H3Q 1_555 1_555
C5Q C4Q 1_555 1_555
C6Q C5Q 1_555 1_555
H4Q C6Q 1_555 1_555
C7Q C6Q 1_555 1_555
C8Q C3Q 1_555 1_555
H5Q C8Q 1_555 1_555
C9Q C15 1_555 1_555
C10Q C9Q 1_555 1_555
H6Q C10Q 1_555 1_555
C11Q C10Q 1_555 1_555
H7Q C11Q 1_555 1_555
C12Q C5Q 1_555 1_555
C13Q C12Q 1_555 1_555
H8Q C13Q 1_555 1_555
C14Q C9Q 1_555 1_555
H9Q C14Q 1_555 1_555
O7Q C15 1_555 1_555
H10Q C16 1_555 1_555
C16Q C15 1_555 1_555
H11Q O7 1_555 1_555
N1Q O7 1_555 1_555
H12Q N1Q 1_555 1_555
C17Q O7 1_555 1_555
H13Q C17Q 1_555 1_555
H14Q C17Q 1_555 1_555
C18Q N1Q 1_555 1_555
H15Q C18Q 1_555 1_555
H16Q C18Q 1_555 1_555
C19Q C17Q 1_555 1_555
H17Q C19Q 1_555 1_555
H18Q C19Q 1_555 1_555
H1L O5 1_555 1_555
H2L O6 1_555 1_555
Cu1B O3Q 1_555 1_555
Cu1H O3 1_555 1_555
Cu1K O1Q 1_555 1_555
Cu2B O4Q 1_555 1_555
Cu2H O4 1_555 1_555
Cu2K O2Q 1_555 1_555
O1L Cu1 1_555 1_555
O2L Cu2 1_555 1_555
O3D Cu1 1_555 1_555
O3P Cu1 1_555 1_555
O4D Cu2 1_555 1_555
O4P Cu2 1_555 1_555
C7 C8 1_555 1_555
C11 C12 1_555 1_555
C13 C14 1_555 1_555
H10 C16Q 1_555 1_555
H11 O7Q 1_555 1_555
N1 O7Q 1_555 1_555
C17 O7Q 1_555 1_555
C18 C19 1_555 1_555
C7Q C8Q 1_555 1_555
C11Q C12Q 1_555 1_555
C13Q C14Q 1_555 1_555
O7Q H10Q 1_555 1_555
C16Q H11Q 1_555 1_555
C16Q N1Q 1_555 1_555
C16Q C17Q 1_555 1_555
C18Q C19Q 1_555 1_555
Cu1B Cu2B 1_555 1_555
Cu1H Cu2H 1_555 1_555
Cu1K Cu2K 1_555 1_555

#END
