
#######################################################################
#
#                 Cambridge Crystallographic Data Centre
#                                CCDC 
#
#######################################################################
#
# If this CIF has been generated from an entry in the Cambridge 
# Structural Database, then it will include bibliographic, chemical, 
# crystal, experimental, refinement or atomic coordinate data resulting 
# from the CCDC's data processing and validation procedures.
#
#######################################################################

data_DANWAS
_chemical_formula_moiety         '(C9 H4 N12 Zn1)n'
_symmetry_cell_setting           tetragonal
_symmetry_space_group_name_H-M   'P 42/m n m'
_symmetry_Int_Tables_number      136
_space_group_name_Hall           '-P 4n 2n'
loop_
_symmetry_equiv_pos_site_id
_symmetry_equiv_pos_as_xyz
1 x,y,z
2 -x,-y,z
3 1/2-y,1/2+x,1/2+z
4 1/2+y,1/2-x,1/2+z
5 1/2-x,1/2+y,1/2-z
6 1/2+x,1/2-y,1/2-z
7 y,x,-z
8 -y,-x,-z
9 -x,-y,-z
10 x,y,-z
11 1/2+y,1/2-x,1/2-z
12 1/2-y,1/2+x,1/2-z
13 1/2+x,1/2-y,1/2+z
14 1/2-x,1/2+y,1/2+z
15 -y,-x,z
16 y,x,z
_cell_length_a                   15.4962(7)
_cell_length_b                   15.4962(7)
_cell_length_c                   13.7523(12)
_cell_angle_alpha                90
_cell_angle_beta                 90
_cell_angle_gamma                90
_cell_volume                     3302.37
loop_
_atom_site_label
_atom_site_type_symbol
_atom_site_fract_x
_atom_site_fract_y
_atom_site_fract_z
_atom_site_U_iso_or_equiv
_atom_site_thermal_displace_type
Zn1 Zn 1.0000 0.0000 0.35997(2) 0.0419 Uani
N1 N 1.08379(10) 0.08379(10) 0.19164(12) 0.0515 Uani
N2 N 1.07569(10) 0.07569(10) 0.28592(12) 0.0601 Uani
N3 N 1.12763(13) 0.12763(13) 0.33041(16) 0.1467 Uani
N4 N 1.17244(12) 0.17244(12) 0.26637(16) 0.1519 Uani
N5 N 1.37184(10) 0.37184(10) 0.08043(12) 0.0519 Uani
N6 N 1.42881(9) 0.42881(9) 0.04769(10) 0.0446 Uani
C1 C 1.14383(14) 0.14383(14) 0.18138(16) 0.0655 Uani
C2 C 1.17644(12) 0.17644(12) 0.08725(15) 0.0534 Uani
C3 C 1.14382(17) 0.14382(17) 0.0000 0.0536 Uani
H2 H 1.1014 0.1014 0.0000 0.0640 Uiso
C4 C 1.23985(12) 0.23985(12) 0.08695(16) 0.0565 Uani
H3 H 1.2611 0.2611 0.1455 0.0680 Uiso
C5 C 1.27150(16) 0.27150(16) 0.0000 0.0493 Uani
C6 C 1.33824(17) 0.33824(17) 0.0000 0.0487 Uani
Zn1D Zn 1.5000 0.5000 0.14003(2) 0.0419 Uani
Zn1F Zn 1.0000 0.0000 -0.35997(2) 0.0419 Uani
Zn1B Zn 1.5000 0.5000 -0.14003(2) 0.0419 Uani
N1F N 1.08379(10) 0.08379(10) -0.19164(12) 0.0515 Uani
N2F N 1.07569(10) 0.07569(10) -0.28592(12) 0.0601 Uani
N2A N 0.92431(10) -0.07569(10) 0.28592(12) 0.0601 Uani
N3F N 1.12763(13) 0.12763(13) -0.33041(16) 0.1467 Uani
N4F N 1.17244(12) 0.17244(12) -0.26637(16) 0.1519 Uani
N5F N 1.37184(10) 0.37184(10) -0.08043(12) 0.0519 Uani
N6F N 1.42881(9) 0.42881(9) -0.04769(10) 0.0446 Uani
N6D N 1.07119(9) -0.07119(9) 0.45231(10) 0.0446 Uani
N6E N 0.92881(9) 0.07119(9) 0.45231(10) 0.0446 Uani
C1F C 1.14383(14) 0.14383(14) -0.18138(16) 0.0655 Uani
C2F C 1.17644(12) 0.17644(12) -0.08725(15) 0.0534 Uani
C4F C 1.23985(12) 0.23985(12) -0.08695(16) 0.0565 Uani
H3F H 1.2611 0.2611 -0.1455 0.0680 Uiso
loop_
_atom_site_aniso_label
_atom_site_aniso_U_11
_atom_site_aniso_U_22
_atom_site_aniso_U_33
_atom_site_aniso_U_23
_atom_site_aniso_U_13
_atom_site_aniso_U_12
Zn1 0.0515 0.0515 0.02284 0 0 0.0007
N1 0.0624 0.0624 0.0298 0.0006 0.0006 -0.0122
N2 0.0756 0.0756 0.0291 -0.0016 -0.0016 -0.0233
N3 0.203 0.203 0.0341 0.0021 0.0021 -0.143
N4 0.21 0.21 0.0356 -0.0012 -0.0012 -0.16
N5 0.0614 0.0614 0.033 -0.0001 -0.0001 -0.0174
N6 0.0513 0.0513 0.0312 -0.0009 -0.0009 -0.0028
C1 0.082 0.082 0.0324 -0.0018 -0.0018 -0.0286
C2 0.0649 0.0649 0.0305 0.0045 0.0045 -0.0169
C3 0.062 0.062 0.0367 0 0 -0.021
C4 0.0667 0.0667 0.0361 -0.0028 -0.0028 -0.0241
C5 0.0577 0.0577 0.0326 0 0 -0.015
C6 0.0555 0.0555 0.0351 0 0 -0.0035
Zn1D 0.0515 0.0515 0.02284 0 0 -0.0007
Zn1F 0.0515 0.0515 0.02284 0 0 0.0007
Zn1B 0.0515 0.0515 0.02284 0 0 -0.0007
N1F 0.0624 0.0624 0.0298 -0.0006 -0.0006 -0.0122
N2F 0.0756 0.0756 0.0291 0.0016 0.0016 -0.0233
N2A 0.0756 0.0756 0.0291 0.0016 0.0016 -0.0233
N3F 0.203 0.203 0.0341 -0.0021 -0.0021 -0.143
N4F 0.21 0.21 0.0356 0.0012 0.0012 -0.16
N5F 0.0614 0.0614 0.033 0.0001 0.0001 -0.0174
N6F 0.0513 0.0513 0.0312 0.0009 0.0009 -0.0028
N6D 0.0513 0.0513 0.0312 0.0009 -0.0009 0.0028
N6E 0.0513 0.0513 0.0312 -0.0009 0.0009 0.0028
C1F 0.082 0.082 0.0324 0.0018 0.0018 -0.0286
C2F 0.0649 0.0649 0.0305 -0.0045 -0.0045 -0.0169
C4F 0.0667 0.0667 0.0361 0.0028 0.0028 -0.0241
loop_
_geom_bond_atom_site_label_1
_geom_bond_atom_site_label_2
_geom_bond_site_symmetry_1
_geom_bond_site_symmetry_2
Zn1 N2 1_555 1_555
N1 N2 1_555 1_555
N2 N3 1_555 1_555
N3 N4 1_555 1_555
N4 C1 1_555 1_555
N5 N6 1_555 1_555
N6 Zn1D 1_555 1_555
C1 N1 1_555 1_555
C2 C1 1_555 1_555
C3 C2 1_555 1_555
H2 C3 1_555 1_555
C4 C2 1_555 1_555
H3 C4 1_555 1_555
C5 C4 1_555 1_555
C6 N5 1_555 1_555
Zn1F N2F 1_555 1_555
Zn1B N6F 1_555 1_555
N1F N2F 1_555 1_555
N2F N3F 1_555 1_555
N2A Zn1 1_555 1_555
N3F N4F 1_555 1_555
N4F C1F 1_555 1_555
N5F C6 1_555 1_555
N6F N6 1_555 1_555
N6D Zn1 1_555 1_555
N6E Zn1 1_555 1_555
C1F N1F 1_555 1_555
C2F C3 1_555 1_555
C4F C5 1_555 1_555
H3F C4F 1_555 1_555
C5 C6 1_555 1_555
N5F N6F 1_555 1_555
C1F C2F 1_555 1_555
C2F C4F 1_555 1_555

#END
