
#######################################################################
#
#                 Cambridge Crystallographic Data Centre
#                                CCDC 
#
#######################################################################
#
# If this CIF has been generated from an entry in the Cambridge 
# Structural Database, then it will include bibliographic, chemical, 
# crystal, experimental, refinement or atomic coordinate data resulting 
# from the CCDC's data processing and validation procedures.
#
#######################################################################

data_HAZNED
_chemical_formula_moiety         '(C25 H18 Br4 Cd2 N4 O10)n'
_symmetry_cell_setting           monoclinic
_symmetry_space_group_name_H-M   'C 2/c'
_symmetry_Int_Tables_number      15
_space_group_name_Hall           '-C 2yc'
loop_
_symmetry_equiv_pos_site_id
_symmetry_equiv_pos_as_xyz
1 x,y,z
2 -x,y,1/2-z
3 1/2+x,1/2+y,z
4 1/2-x,1/2+y,1/2-z
5 -x,-y,-z
6 x,-y,1/2+z
7 1/2-x,1/2-y,-z
8 1/2+x,1/2-y,1/2+z
_cell_length_a                   15.4010(6)
_cell_length_b                   17.3812(7)
_cell_length_c                   15.0538(8)
_cell_angle_alpha                90
_cell_angle_beta                 120.4350(10)
_cell_angle_gamma                90
_cell_volume                     3474.44
loop_
_atom_site_label
_atom_site_type_symbol
_atom_site_fract_x
_atom_site_fract_y
_atom_site_fract_z
C13 C 0.0357(19) 0.3663(13) 0.8478(14)
O7 O 0.1143(15) 0.3332(12) 0.9207(16)
Cd1 Cd -0.63389(2) 0.367441(19) -0.28577(2)
Br1 Br -0.36205(4) 0.36721(3) 0.30801(4)
Br2 Br -0.96318(5) 0.40109(5) -0.87044(5)
O1 O -0.5512(2) 0.32964(19) -0.1175(2)
O2 O -0.4239(2) 0.2862(2) -0.1346(2)
O3 O -0.5956(3) 0.5073(2) -0.4289(2)
O4 O -0.7155(2) 0.4237(2) -0.4503(2)
O5 O -0.5000 0.4463(2) -0.2500
H1 H -0.4773 0.4705 -0.1935
N1 N -0.2615(3) 0.2203(2) 0.1668(3)
N2 N -0.7188(3) 0.5449(2) -0.7359(3)
C1 C -0.2752(3) 0.2596(3) 0.2352(3)
H2 H -0.2314 0.2512 0.3051
C2 C -0.3519(3) 0.3118(3) 0.2054(3)
C3 C -0.4183(3) 0.3257(3) 0.1022(3)
H3 H -0.4715 0.3601 0.0811
C4 C -0.4027(3) 0.2865(2) 0.0310(3)
C5 C -0.3238(3) 0.2350(3) 0.0664(3)
H4 H -0.3134 0.2092 0.0185
C6 C -0.4649(3) 0.3020(3) -0.0829(3)
C7 C -0.8022(3) 0.5068(3) -0.8028(3)
H5 H -0.8302 0.5158 -0.8730
C8 C -0.8474(3) 0.4548(3) -0.7705(3)
C9 C -0.8093(3) 0.4405(3) -0.6672(3)
H6 H -0.8397 0.4052 -0.6452
C10 C -0.7242(3) 0.4807(3) -0.5975(3)
C11 C -0.6810(3) 0.5315(3) -0.6353(3)
H7 H -0.6228 0.5575 -0.5884
C12 C -0.6743(3) 0.4692(3) -0.4822(3)
Cd1A Cd -0.36611(2) 0.367441(19) -0.21423(2)
Cd1G Cd -0.13389(2) 0.132559(19) 0.21423(2)
Cd1E Cd -0.63389(2) 0.632559(19) -0.78577(2)
Cd1F Cd -0.86611(2) 0.132559(19) -0.71423(2)
Cd1E_2 Cd -0.63389(2) 0.632559(19) 0.21423(2)
Br1A Br -0.63795(4) 0.36721(3) -0.80801(4)
Br2E Br -0.96318(5) 0.59891(5) -0.37044(5)
O1A O -0.4488(2) 0.32964(19) -0.3825(2)
O2A O -0.5761(2) 0.2862(2) -0.3654(2)
O3E O -0.5956(3) 0.4927(2) 0.0711(2)
O4E O -0.7155(2) 0.5763(2) 0.0497(2)
O4A O -0.2845(2) 0.4237(2) -0.0497(2)
H1A H -0.5227 0.4705 -0.3065
N1A N -0.7385(3) 0.2203(2) -0.6668(3)
N1G N -0.7615(3) 0.2797(2) -0.3332(3)
N1F N -0.2385(3) 0.2797(2) -0.1668(3)
N2E N -0.7188(3) 0.4551(2) -0.2359(3)
N2D N -0.2812(3) 0.4551(2) -0.2641(3)
C1A C -0.7248(3) 0.2596(3) -0.7352(3)
H2A H -0.7686 0.2512 -0.8051
C2A C -0.6481(3) 0.3118(3) -0.7054(3)
C3A C -0.5817(3) 0.3257(3) -0.6022(3)
H3A H -0.5285 0.3601 -0.5811
C4A C -0.5973(3) 0.2865(2) -0.5310(3)
C5A C -0.6762(3) 0.2350(3) -0.5664(3)
H4A H -0.6866 0.2092 -0.5185
C6A C -0.5351(3) 0.3020(3) -0.4171(3)
C7E C -0.8022(3) 0.4932(3) -0.3028(3)
H5E H -0.8302 0.4842 -0.3730
C8E C -0.8474(3) 0.5452(3) -0.2705(3)
C9E C -0.8093(3) 0.5595(3) -0.1672(3)
H6E H -0.8397 0.5948 -0.1452
C10E C -0.7242(3) 0.5193(3) -0.0975(3)
C11E C -0.6810(3) 0.4685(3) -0.1353(3)
H7E H -0.6228 0.4425 -0.0884
C12E C -0.6743(3) 0.5308(3) 0.0178(3)
loop_
_geom_bond_atom_site_label_1
_geom_bond_atom_site_label_2
_geom_bond_site_symmetry_1
_geom_bond_site_symmetry_2
Cd1 O1 1_555 1_555
Br1 C2 1_555 1_555
Br2 C8 1_555 1_555
O1 C6 1_555 1_555
O2 C6 1_555 1_555
O3 C12 1_555 1_555
O4 Cd1 1_555 1_555
O5 Cd1 1_555 1_555
H1 O5 1_555 1_555
N1 C1 1_555 1_555
N2 C7 1_555 1_555
C1 H2 1_555 1_555
C2 C1 1_555 1_555
C3 C2 1_555 1_555
H3 C3 1_555 1_555
C4 C3 1_555 1_555
C5 N1 1_555 1_555
H4 C5 1_555 1_555
C6 C4 1_555 1_555
C7 H5 1_555 1_555
C8 C7 1_555 1_555
C9 C8 1_555 1_555
H6 C9 1_555 1_555
C10 C9 1_555 1_555
C11 N2 1_555 1_555
H7 C11 1_555 1_555
C12 O4 1_555 1_555
C13 O7 1_555 1_555
Cd1A O2 1_555 1_555
Cd1G N1 1_555 1_555
Cd1E N2 1_555 1_555
Cd1F N1A 1_555 1_555
Cd1E_2 O4E 1_555 1_555
Br1A C2A 1_555 1_555
Br2E C8E 1_555 1_555
O1A Cd1A 1_555 1_555
O2A Cd1 1_555 1_555
O3E C12E 1_555 1_555
O4E C12E 1_555 1_555
O4A Cd1A 1_555 1_555
H1A O5 1_555 1_555
N1A C1A 1_555 1_555
N1G Cd1 1_555 1_555
N1F Cd1A 1_555 1_555
N2E Cd1 1_555 1_555
N2D Cd1A 1_555 1_555
C1A H2A 1_555 1_555
C2A C1A 1_555 1_555
C3A C2A 1_555 1_555
H3A C3A 1_555 1_555
C4A C3A 1_555 1_555
C5A N1A 1_555 1_555
H4A C5A 1_555 1_555
C6A O1A 1_555 1_555
C7E N2E 1_555 1_555
H5E C7E 1_555 1_555
C8E C7E 1_555 1_555
C9E C8E 1_555 1_555
H6E C9E 1_555 1_555
C10E C9E 1_555 1_555
C11E N2E 1_555 1_555
H7E C11E 1_555 1_555
C12E C10E 1_555 1_555
O5 Cd1A 1_555 1_555
C4 C5 1_555 1_555
C10 C11 1_555 1_555
C10 C12 1_555 1_555
O2A C6A 1_555 1_555
C4A C5A 1_555 1_555
C4A C6A 1_555 1_555
C10E C11E 1_555 1_555

#END
