
#######################################################################
#
#                 Cambridge Crystallographic Data Centre
#                                CCDC 
#
#######################################################################
#
# If this CIF has been generated from an entry in the Cambridge 
# Structural Database, then it will include bibliographic, chemical, 
# crystal, experimental, refinement or atomic coordinate data resulting 
# from the CCDC's data processing and validation procedures.
#
#######################################################################

data_SOPLOA
_chemical_formula_moiety         '(C34 H39 N7 O8 Zn1)n'
_symmetry_cell_setting           monoclinic
_symmetry_space_group_name_H-M   'P 21/n'
_symmetry_Int_Tables_number      14
_space_group_name_Hall           '-P 2yn'
loop_
_symmetry_equiv_pos_site_id
_symmetry_equiv_pos_as_xyz
1 x,y,z
2 1/2-x,1/2+y,1/2-z
3 -x,-y,-z
4 1/2+x,1/2-y,1/2+z
_cell_length_a                   16.381(3)
_cell_length_b                   14.170(3)
_cell_length_c                   19.415(4)
_cell_angle_alpha                90
_cell_angle_beta                 104.25(3)
_cell_angle_gamma                90
_cell_volume                     4367.92
loop_
_atom_site_label
_atom_site_type_symbol
_atom_site_fract_x
_atom_site_fract_y
_atom_site_fract_z
Zn1 Zn 0.76895(6) 0.56837(6) 0.67839(4)
O1 O 0.7004(4) 0.6385(4) 0.7271(3)
O2 O 0.8126(5) 0.6986(6) 0.8053(4)
O3 O 0.2751(6) 0.8095(6) 1.0823(5)
O4 O 0.3633(5) 0.9220(6) 1.1340(4)
O5 O 1.0280(4) 0.2245(5) 0.9029(3)
N1 N 0.8178(5) 0.4679(5) 0.7549(3)
N2 N 1.1717(4) -0.0013(5) 1.1102(3)
N3 N 0.8935(5) 0.2618(5) 0.9101(3)
H1 H 0.8550 0.2470 0.9328
N4 N 0.9754(5) 0.1629(5) 0.9925(3)
H2 H 0.9303 0.1633 1.0095
C1 C 0.7378(6) 0.6817(6) 0.7857(4)
C2 C 0.6786(6) 0.7113(6) 0.8307(4)
C3 C 0.7063(7) 0.7698(7) 0.8877(5)
H3 H 0.7620 0.7942 0.8980
C4 C 0.6526(7) 0.7937(8) 0.9305(5)
H4 H 0.6721 0.8348 0.9697
C5 C 0.5721(7) 0.7589(7) 0.9172(5)
C6 C 0.5448(7) 0.7058(9) 0.8575(6)
H5 H 0.4878 0.6854 0.8449
C7 C 0.5975(7) 0.6806(9) 0.8144(5)
H6 H 0.5769 0.6421 0.7738
C8 C 0.5143(6) 0.7835(7) 0.9623(5)
C9 C 0.5255(9) 0.8659(10) 1.0011(8)
H7 H 0.5708 0.9075 1.0005
C10 C 0.4493(9) 0.7275(7) 0.9649(7)
H8 H 0.4409 0.6711 0.9376
C11 C 0.4668(8) 0.8859(12) 1.0419(8)
H9 H 0.4724 0.9438 1.0672
C12 C 0.4048(7) 0.8290(7) 1.0468(5)
C13 C 0.3932(9) 0.7494(8) 1.0068(7)
H10 H 0.3473 0.7086 1.0072
C14 C 0.3431(7) 0.8536(8) 1.0900(5)
C15 C 0.8927(6) 0.4303(6) 0.7654(4)
H11 H 0.9278 0.4509 0.7361
C16 C 0.9248(6) 0.3622(6) 0.8165(4)
H12 H 0.9811 0.3402 0.8236
C17 C 0.8726(5) 0.3277(6) 0.8564(4)
C18 C 0.7916(6) 0.3662(7) 0.8448(5)
H13 H 0.7539 0.3454 0.8718
C19 C 0.7677(6) 0.4344(6) 0.7937(5)
H14 H 0.7123 0.4592 0.7856
C20 C 0.9712(6) 0.2170(6) 0.9309(4)
C21 C 1.1034(6) 0.0217(7) 1.1331(4)
H15 H 1.1004 0.0001 1.1788
C22 C 1.0375(6) 0.0747(6) 1.0946(4)
H16 H 0.9898 0.0870 1.1129
C23 C 1.0411(5) 0.1104(6) 1.0285(4)
C24 C 1.1112(5) 0.0837(6) 1.0038(4)
H17 H 1.1150 0.1023 0.9577
C25 C 1.1738(5) 0.0313(6) 1.0454(4)
H18 H 1.2216 0.0168 1.0278
Zn1C Zn 0.26895(6) 0.93163(6) 1.17839(4)
Zn1C_2 Zn 1.26895(6) -0.06837(6) 1.17839(4)
O3C O 0.7751(6) 0.6905(6) 0.5823(5)
O4C O 0.8633(5) 0.5780(6) 0.6340(4)
N2C N 0.6717(4) 0.5013(5) 0.6102(3)
O6 O 0.9322(8) 0.9053(8) 0.7035(6)
N5 N 1.0013(6) 0.7679(7) 0.7332(6)
C26 C 0.9361(8) 0.8281(8) 0.7279(7)
H19 H 0.8897 0.8071 0.7451
C27 C 1.0030(10) 0.6812(10) 0.7734(8)
H20 H 1.0538 0.6452 0.7723
H21 H 1.0034 0.6965 0.8227
H22 H 0.9530 0.6435 0.7522
C28 C 1.0675(13) 0.7922(15) 0.6961(11)
H23 H 1.1105 0.7425 0.7046
H24 H 1.0422 0.7977 0.6450
H25 H 1.0936 0.8524 0.7143
O7 O 0.7652(16) 0.3759(17) 0.2273(12)
N6 N 0.6654(10) 0.3931(11) 0.2866(8)
C29 C 0.7001(15) 0.4177(18) 0.2303(12)
H26 H 0.6750 0.4640 0.1963
C30 C 0.7031(14) 0.3227(15) 0.3415(10)
H27 H 0.6680 0.3169 0.3755
H28 H 0.7063 0.2615 0.3189
H29 H 0.7598 0.3432 0.3664
C31 C 0.5934(11) 0.4439(13) 0.2958(10)
H30 H 0.5762 0.4190 0.3371
H31 H 0.6077 0.5109 0.3033
H32 H 0.5471 0.4367 0.2533
O8 O 0.2354(9) 0.4538(10) 0.5809(7)
N7 N 0.1675(10) 0.4230(11) 0.6665(8)
C32 C 0.1800(15) 0.4687(19) 0.6089(12)
H33 H 0.1411 0.5170 0.5891
C33 C 0.0948(15) 0.4375(19) 0.6975(16)
H34 H 0.1001 0.3963 0.7388
H35 H 0.0932 0.5035 0.7122
H36 H 0.0427 0.4224 0.6619
C34 C 0.2121(18) 0.3323(17) 0.6881(16)
H37 H 0.1968 0.3078 0.7304
H38 H 0.1958 0.2865 0.6492
H39 H 0.2731 0.3427 0.6987
loop_
_geom_bond_atom_site_label_1
_geom_bond_atom_site_label_2
_geom_bond_site_symmetry_1
_geom_bond_site_symmetry_2
Zn1 O1 1_555 1_555
O1 C1 1_555 1_555
O2 C1 1_555 1_555
O3 C14 1_555 1_555
O4 C14 1_555 1_555
O5 C20 1_555 1_555
N1 Zn1 1_555 1_555
N2 C21 1_555 1_555
N3 H1 1_555 1_555
N4 H2 1_555 1_555
C1 C2 1_555 1_555
C2 C3 1_555 1_555
C3 H3 1_555 1_555
C4 C3 1_555 1_555
H4 C4 1_555 1_555
C5 C4 1_555 1_555
C6 C5 1_555 1_555
H5 C6 1_555 1_555
C7 C2 1_555 1_555
H6 C7 1_555 1_555
C8 C5 1_555 1_555
C9 C8 1_555 1_555
H7 C9 1_555 1_555
C10 C8 1_555 1_555
H8 C10 1_555 1_555
C11 C9 1_555 1_555
H9 C11 1_555 1_555
C12 C11 1_555 1_555
C13 C10 1_555 1_555
H10 C13 1_555 1_555
C14 C12 1_555 1_555
C15 N1 1_555 1_555
H11 C15 1_555 1_555
C16 C15 1_555 1_555
H12 C16 1_555 1_555
C17 N3 1_555 1_555
C18 C17 1_555 1_555
H13 C18 1_555 1_555
C19 N1 1_555 1_555
H14 C19 1_555 1_555
C20 N3 1_555 1_555
C21 H15 1_555 1_555
C22 C21 1_555 1_555
H16 C22 1_555 1_555
C23 N4 1_555 1_555
C24 C23 1_555 1_555
H17 C24 1_555 1_555
C25 N2 1_555 1_555
H18 C25 1_555 1_555
O6 C26 1_555 1_555
N5 C26 1_555 1_555
C26 H19 1_555 1_555
C27 N5 1_555 1_555
H20 C27 1_555 1_555
H21 C27 1_555 1_555
H22 C27 1_555 1_555
C28 N5 1_555 1_555
H23 C28 1_555 1_555
H24 C28 1_555 1_555
H25 C28 1_555 1_555
O7 C29 1_555 1_555
N6 C29 1_555 1_555
C29 H26 1_555 1_555
C30 N6 1_555 1_555
H27 C30 1_555 1_555
H28 C30 1_555 1_555
H29 C30 1_555 1_555
C31 N6 1_555 1_555
H30 C31 1_555 1_555
H31 C31 1_555 1_555
H32 C31 1_555 1_555
O8 C32 1_555 1_555
N7 C32 1_555 1_555
C32 H33 1_555 1_555
C33 N7 1_555 1_555
H34 C33 1_555 1_555
H35 C33 1_555 1_555
H36 C33 1_555 1_555
C34 N7 1_555 1_555
H37 C34 1_555 1_555
H38 C34 1_555 1_555
H39 C34 1_555 1_555
Zn1C O3 1_555 1_555
Zn1C_2 N2 1_555 1_555
O3C Zn1 1_555 1_555
O4C Zn1 1_555 1_555
N2C Zn1 1_555 1_555
O4 Zn1C 1_555 1_555
N4 C20 1_555 1_555
C6 C7 1_555 1_555
C12 C13 1_555 1_555
C16 C17 1_555 1_555
C18 C19 1_555 1_555
C22 C23 1_555 1_555
C24 C25 1_555 1_555

#END
