
#######################################################################
#
#                 Cambridge Crystallographic Data Centre
#                                CCDC 
#
#######################################################################
#
# If this CIF has been generated from an entry in the Cambridge 
# Structural Database, then it will include bibliographic, chemical, 
# crystal, experimental, refinement or atomic coordinate data resulting 
# from the CCDC's data processing and validation procedures.
#
#######################################################################

data_OPAMOI
_chemical_formula_moiety         '(C8 H30 Co1 N4 O25 P4 V4)n'
_symmetry_cell_setting           triclinic
_symmetry_space_group_name_H-M   'P -1'
_symmetry_Int_Tables_number      2
_space_group_name_Hall           '-P 1'
loop_
_symmetry_equiv_pos_site_id
_symmetry_equiv_pos_as_xyz
1 x,y,z
2 -x,-y,-z
_cell_length_a                   7.06610(10)
_cell_length_b                   9.67780(10)
_cell_length_c                   11.6217(2)
_cell_angle_alpha                106.3260(10)
_cell_angle_beta                 97.8430(10)
_cell_angle_gamma                107.7070(10)
_cell_volume                     704.824
loop_
_atom_site_label
_atom_site_type_symbol
_atom_site_fract_x
_atom_site_fract_y
_atom_site_fract_z
Co1 Co 0.0000 0.0000 0.5000
V1 V 0.17095(7) 0.13046(5) 0.27722(4)
V2 V 0.0000 0.5000 1.0000
V3 V 0.5000 0.5000 1.0000
P1 P 0.22447(11) 0.32769(8) 0.15194(7)
P2 P 0.08136(11) 0.23030(8) 0.79726(6)
O1 O 0.3048(3) 0.3077(2) 0.87110(19)
O2 O 0.4285(3) 0.4170(2) 0.13354(19)
O3 O 0.2275(4) 0.3517(2) 0.29090(19)
O4 O 0.0617(3) 0.1969(2) 0.65881(19)
O5 O 0.1709(3) 0.1505(2) 0.10570(19)
O6 O 0.0490(3) 0.3678(2) 0.0946(2)
O7 O -0.0381(3) 0.3369(2) 0.84143(19)
O8 O 0.0431(4) 0.1357(2) 0.3869(2)
O9 O -0.0150(3) 0.0788(2) 0.82362(19)
O10 O 0.3003(4) 0.0148(3) 0.5296(2)
H1 H 0.3454 0.0278 0.4706
H2 H 0.377(9) 0.085(7) 0.587(5)
O11 O 0.2865(3) 0.5828(2) 1.00855(19)
O12 O 0.3899(3) 0.1258(3) 0.3333(2)
V1A V -0.17095(7) -0.13046(5) 0.72278(4)
V1_2 V 0.17095(7) 0.13046(5) 1.27722(4)
V2_2 V 0.0000 0.5000 0.0000
V2_3 V 0.0000 -0.5000 0.0000
V3_2 V 0.5000 0.5000 0.0000
V3_3 V -0.5000 -0.5000 0.0000
V3_4 V -0.5000 0.5000 1.0000
P1_2 P 0.22447(11) 0.32769(8) 1.15194(7)
P2A P -0.08136(11) -0.23030(8) 0.20274(6)
O1A O -0.3048(3) -0.3077(2) 0.12890(19)
O1A_2 O 0.6952(3) 0.6923(2) 1.12890(19)
O2_2 O 0.4285(3) 0.4170(2) 1.13354(19)
O2A O 0.5715(3) 0.5830(2) 0.86646(19)
O3_2 O 0.2275(4) 0.3517(2) 1.29090(19)
O3A O -0.2275(4) -0.3517(2) 0.70910(19)
O4A O -0.0617(3) -0.1969(2) 0.34119(19)
O5_2 O 0.1709(3) 0.1505(2) 1.10570(19)
O5A O -0.1709(3) -0.1505(2) 0.89430(19)
O6_2 O 0.0490(3) 0.3678(2) 1.0946(2)
O6A O -0.0490(3) 0.6322(2) 0.9054(2)
O7A O 0.0381(3) -0.3369(2) 0.15857(19)
O7A_2 O 0.0381(3) 0.6631(2) 1.15857(19)
O8A O -0.0431(4) -0.1357(2) 0.6131(2)
O9A O 0.0150(3) -0.0788(2) 0.17638(19)
O10A O -0.3003(4) -0.0148(3) 0.4704(2)
H1A H -0.3454 -0.0278 0.5294
H2A H -0.377(9) -0.085(7) 0.413(5)
O11A O -0.2865(3) 0.4172(2) 0.99145(19)
O11A_2 O 0.7135(3) 0.4172(2) 0.99145(19)
O12A O -0.3899(3) -0.1258(3) 0.6667(2)
N1 N 0.7048(4) 0.0915(3) 0.0058(3)
H3 H 0.8029 0.1836 0.0205
H4 H 0.7584 0.0178 -0.0178
C1 C 0.6357(5) 0.0878(4) 0.1205(3)
H7 H 0.5838 0.1702 0.1483
H8 H 0.7503 0.1031 0.1852
C2 C 0.5299(5) 0.0657(4) -0.0948(3)
H9 H 0.5767 0.0681 -0.1692
H10 H 0.4757 0.1475 -0.0708
N1A N 0.2952(4) -0.0915(3) -0.0058(3)
H3A H 0.1971 -0.1836 -0.0205
H4A H 0.2416 -0.0178 0.0178
C1A C 0.3643(5) -0.0878(4) -0.1205(3)
H7A H 0.4162 -0.1702 -0.1483
H8A H 0.2497 -0.1031 -0.1852
C2A C 0.4701(5) -0.0657(4) 0.0948(3)
H9A H 0.4233 -0.0681 0.1692
H10A H 0.5243 -0.1475 0.0708
N2 N 0.9735(5) 0.4325(3) 0.5947(3)
H5 H 0.9730 0.3554 0.6236
H6 H 0.9438 0.5027 0.6512
C3 C 1.1814(5) 0.5061(4) 0.5786(3)
H11 H 1.2208 0.4281 0.5255
H12 H 1.2793 0.5510 0.6583
C4 C 0.8127(5) 0.3699(4) 0.4773(3)
H13 H 0.6791 0.3302 0.4934
H14 H 0.8342 0.2852 0.4194
N2A N 1.0265(5) 0.5675(3) 0.4053(3)
H5A H 1.0270 0.6446 0.3764
H6A H 1.0562 0.4973 0.3488
C3A C 0.8186(5) 0.4939(4) 0.4214(3)
H11A H 0.7792 0.5719 0.4745
H12A H 0.7207 0.4490 0.3417
C4A C 1.1873(5) 0.6301(4) 0.5227(3)
H13A H 1.3209 0.6698 0.5066
H14A H 1.1658 0.7148 0.5806
O13 O 0.5776(5) 0.2736(4) 0.6942(3)
H15 H 0.687(9) 0.286(6) 0.739(5)
H16 H 0.514(11) 0.307(8) 0.736(7)
loop_
_geom_bond_atom_site_label_1
_geom_bond_atom_site_label_2
_geom_bond_site_symmetry_1
_geom_bond_site_symmetry_2
Co1 O4 1_555 1_555
V1 O3 1_555 1_555
V2 O7 1_555 1_555
V3 O1 1_555 1_555
P1 O2 1_555 1_555
P2 O1 1_555 1_555
O2 V3_2 1_555 1_555
O3 P1 1_555 1_555
O4 P2 1_555 1_555
O5 V1 1_555 1_555
O6 P1 1_555 1_555
O7 P2 1_555 1_555
O8 Co1 1_555 1_555
O9 P2 1_555 1_555
O10 Co1 1_555 1_555
H1 O10 1_555 1_555
H2 O10 1_555 1_555
O11 V2 1_555 1_555
O12 V1 1_555 1_555
N1 H3 1_555 1_555
H4 N1 1_555 1_555
N2 H5 1_555 1_555
H6 N2 1_555 1_555
C1 N1 1_555 1_555
H7 C1 1_555 1_555
H8 C1 1_555 1_555
C2 N1 1_555 1_555
H9 C2 1_555 1_555
H10 C2 1_555 1_555
C3 N2 1_555 1_555
H11 C3 1_555 1_555
H12 C3 1_555 1_555
C4 N2 1_555 1_555
H13 C4 1_555 1_555
H14 C4 1_555 1_555
O13 H15 1_555 1_555
H16 O13 1_555 1_555
V1A O9 1_555 1_555
V1_2 O3_2 1_555 1_555
V2_2 O6 1_555 1_555
V2_3 O7A 1_555 1_555
V3_3 O1A 1_555 1_555
V3_4 O11A 1_555 1_555
P1_2 O2_2 1_555 1_555
P2A O1A 1_555 1_555
O1A_2 V3 1_555 1_555
O2_2 V3 1_555 1_555
O2A V3 1_555 1_555
O3_2 P1_2 1_555 1_555
O3A V1A 1_555 1_555
O4A Co1 1_555 1_555
O5_2 V1_2 1_555 1_555
O5A V1A 1_555 1_555
O6_2 V2 1_555 1_555
O6A V2 1_555 1_555
O7A P2A 1_555 1_555
O7A_2 V2 1_555 1_555
O8A Co1 1_555 1_555
O9A V1 1_555 1_555
O10A Co1 1_555 1_555
H1A O10A 1_555 1_555
H2A O10A 1_555 1_555
O11A V2 1_555 1_555
O11A_2 V3 1_555 1_555
O12A V1A 1_555 1_555
N1A H3A 1_555 1_555
H4A N1A 1_555 1_555
N2A H5A 1_555 1_555
H6A N2A 1_555 1_555
C1A C2 1_555 1_555
H7A C1A 1_555 1_555
H8A C1A 1_555 1_555
C2A C1 1_555 1_555
H9A C2A 1_555 1_555
H10A C2A 1_555 1_555
C3A C4 1_555 1_555
H11A C3A 1_555 1_555
H12A C3A 1_555 1_555
C4A C3 1_555 1_555
H13A C4A 1_555 1_555
H14A C4A 1_555 1_555
V1 O8 1_555 1_555
V3 O11 1_555 1_555
P1 O5 1_555 1_555
V1A O8A 1_555 1_555
P1_2 O5_2 1_555 1_555
P1_2 O6_2 1_555 1_555
P2A O4A 1_555 1_555
P2A O9A 1_555 1_555
N1A C1A 1_555 1_555
N1A C2A 1_555 1_555
N2A C3A 1_555 1_555
N2A C4A 1_555 1_555

#END
