
#######################################################################
#
#                 Cambridge Crystallographic Data Centre
#                                CCDC 
#
#######################################################################
#
# If this CIF has been generated from an entry in the Cambridge 
# Structural Database, then it will include bibliographic, chemical, 
# crystal, experimental, refinement or atomic coordinate data resulting 
# from the CCDC's data processing and validation procedures.
#
#######################################################################

data_UCOXOZ
_chemical_formula_moiety         '(C90 H92 Cu6 N18 O23)n'
_symmetry_cell_setting           monoclinic
_symmetry_space_group_name_H-M   'C 2/c'
_symmetry_Int_Tables_number      15
_space_group_name_Hall           '-C 2yc'
loop_
_symmetry_equiv_pos_site_id
_symmetry_equiv_pos_as_xyz
1 x,y,z
2 1/2+x,1/2+y,z
3 x,-y,1/2+z
4 1/2+x,1/2-y,1/2+z
5 -x,-y,-z
6 1/2-x,1/2-y,-z
7 -x,y,1/2-z
8 1/2-x,1/2+y,1/2-z
_cell_length_a                   40.889(7)
_cell_length_b                   19.545(4)
_cell_length_c                   16.642(4)
_cell_angle_alpha                90
_cell_angle_beta                 90.717(6)
_cell_angle_gamma                90
_cell_volume                     13298.8
loop_
_atom_site_label
_atom_site_type_symbol
_atom_site_fract_x
_atom_site_fract_y
_atom_site_fract_z
Cu1 Cu 0.112637(18) 0.21081(4) 0.85764(5)
Cu2 Cu 0.135020(19) 0.22512(4) 0.37981(5)
Cu3 Cu 0.129228(19) 0.03405(4) 0.59742(4)
O1 O 0.13329(12) 0.1103(3) 0.5185(3)
O2 O 0.16154(11) 0.2056(2) 0.4970(3)
O3 O 0.14911(13) -0.0451(3) 0.5160(3)
O4 O 0.1900(3) -0.0434(7) 0.4312(8)
O5 O 0.13287(11) -0.1377(2) 0.8183(3)
O6 O 0.11406(17) -0.2112(3) 0.7295(3)
O7 O 0.11744(12) 0.1095(2) 0.7006(3)
O8 O 0.11220(11) 0.1112(2) 0.8343(3)
O9 O 0.13624(12) 0.1803(3) 0.9808(3)
O10 O 0.08824(14) 0.2340(3) 0.7213(3)
N1 N 0.31923(14) 0.2605(3) 0.6660(3)
N2 N 0.15870(14) 0.2223(3) 0.8112(3)
N3 N 0.12789(13) 0.6716(3) 0.8914(4)
N4 N 0.11229(15) 0.3130(3) 0.8822(4)
N5 N -0.08998(14) 0.2098(3) 1.0729(3)
N6 N 0.08244(14) 0.0176(3) 0.5660(3)
N7 N 0.06714(18) 0.2008(3) 0.9042(4)
N8 N 0.17743(14) 0.0556(3) 0.6133(3)
N9 N 0.13374(13) -0.0291(3) 0.7026(3)
C1 C 0.3091(2) 0.2022(4) 0.6985(6)
H1 H 0.3236 0.1656 0.7016
C2 C 0.2781(2) 0.1938(4) 0.7277(6)
H2 H 0.2720 0.1521 0.7498
C3 C 0.25601(17) 0.2468(4) 0.7243(4)
C4 C 0.26634(17) 0.3078(4) 0.6902(5)
H3 H 0.2523 0.3451 0.6861
C5 C 0.29830(18) 0.3118(4) 0.6625(5)
H4 H 0.3053 0.3529 0.6403
C6 C 0.18251(19) 0.1821(4) 0.8360(4)
H5 H 0.1777 0.1476 0.8726
C7 C 0.21424(18) 0.1884(4) 0.8105(4)
H6 H 0.2304 0.1587 0.8295
C8 C 0.22200(17) 0.2401(4) 0.7556(4)
C9 C 0.19640(19) 0.2813(4) 0.7283(4)
H7 H 0.2001 0.3152 0.6902
C10 C 0.16583(17) 0.2714(4) 0.7581(4)
H8 H 0.1491 0.3003 0.7407
C11 C 0.1114(2) 0.6403(4) 0.8344(5)
H9 H 0.1024 0.6667 0.7933
C12 C 0.1066(2) 0.5705(4) 0.8317(5)
H10 H 0.0947 0.5506 0.7899
C13 C 0.11999(17) 0.5303(4) 0.8927(4)
C14 C 0.1373(2) 0.5639(4) 0.9535(5)
H11 H 0.1464 0.5389 0.9958
C15 C 0.1411(2) 0.6331(4) 0.9515(5)
H12 H 0.1530 0.6546 0.9923
C16 C 0.0880(2) 0.3525(4) 0.8504(5)
H13 H 0.0698 0.3322 0.8263
C17 C 0.0904(2) 0.4237(4) 0.8542(6)
H14 H 0.0739 0.4501 0.8312
C18 C 0.11636(19) 0.4556(3) 0.8908(4)
C19 C 0.1407(2) 0.4126(4) 0.9258(5)
H15 H 0.1587 0.4315 0.9523
C20 C 0.1375(2) 0.3437(4) 0.9200(5)
H16 H 0.1536 0.3162 0.9435
C21 C -0.08425(18) 0.2372(4) 1.0022(5)
H17 H -0.1010 0.2602 0.9753
C22 C -0.0530(2) 0.2324(5) 0.9659(5)
H18 H -0.0495 0.2525 0.9161
C23 C -0.02850(18) 0.1987(4) 1.0040(4)
C24 C -0.0350(2) 0.1689(4) 1.0794(5)
H19 H -0.0189 0.1454 1.1080
C25 C -0.0663(2) 0.1758(4) 1.1094(5)
H20 H -0.0708 0.1552 1.1584
C26 C 0.0751(2) -0.0076(5) 0.4946(5)
H21 H 0.0921 -0.0218 0.4620
C27 C 0.0435(2) -0.0141(5) 0.4657(5)
H22 H 0.0397 -0.0306 0.4139
C28 C 0.0174(2) 0.0037(4) 0.5135(5)
C29 C 0.0256(2) 0.0273(5) 0.5888(5)
H23 H 0.0092 0.0389 0.6246
C30 C 0.0571(2) 0.0336(5) 0.6111(5)
H24 H 0.0615 0.0507 0.6623
C31 C 0.0404(2) 0.1978(5) 0.8574(5)
H25 H 0.0430 0.1971 0.8020
C32 C 0.0093(2) 0.1956(5) 0.8881(5)
H26 H -0.0086 0.1935 0.8531
C33 C 0.0043(2) 0.1966(4) 0.9691(5)
C34 C 0.0325(2) 0.1989(6) 1.0176(5)
H27 H 0.0309 0.1984 1.0733
C35 C 0.0623(2) 0.2018(6) 0.9826(5)
H28 H 0.0806 0.2047 1.0162
C36 C 0.17018(18) -0.0359(4) 0.7109(4)
H29 H 0.1758 -0.0510 0.7648
H30 H 0.1780 -0.0700 0.6733
C37 C 0.18641(17) 0.0313(4) 0.6946(4)
H31 H 0.1797 0.0647 0.7342
H32 H 0.2100 0.0261 0.6989
C38 C 0.17978(18) 0.1301(4) 0.6023(4)
H33 H 0.2021 0.1428 0.5896
H34 H 0.1736 0.1535 0.6512
C39 C 0.15681(17) 0.1503(3) 0.5337(4)
C40 C 0.19690(18) 0.0203(4) 0.5482(5)
H35 H 0.2068 0.0550 0.5146
H36 H 0.2145 -0.0055 0.5735
C41 C 0.1772(2) -0.0272(5) 0.4956(6)
C42 C 0.11897(17) -0.0964(3) 0.6865(4)
H37 H 0.1280 -0.1133 0.6367
H38 H 0.0958 -0.0893 0.6770
C43 C 0.12247(16) -0.1531(4) 0.7485(4)
C44 C 0.1195(2) 0.0041(4) 0.7749(4)
H39 H 0.1330 -0.0069 0.8214
H40 H 0.0979 -0.0150 0.7839
C45 C 0.11654(16) 0.0816(3) 0.7683(4)
C28D C -0.0174(2) -0.0037(4) 0.4865(5)
C27D C -0.0435(2) 0.0141(5) 0.5343(5)
C26D C -0.0751(2) 0.0076(5) 0.5054(5)
N6D N -0.08244(14) -0.0176(3) 0.4340(3)
C30D C -0.0571(2) -0.0336(5) 0.3889(5)
C29D C -0.0256(2) -0.0273(5) 0.4112(5)
H23D H -0.0092 -0.0389 0.3754
H24D H -0.0615 -0.0507 0.3377
H21D H -0.0921 0.0218 0.5380
H22D H -0.0397 0.0306 0.5861
Cu2B Cu 0.135020(19) -0.22512(4) 0.87981(5)
O1B O 0.13329(12) -0.1103(3) 0.0185(3)
O2B O 0.16154(11) -0.2056(2) -0.0030(3)
O3B O 0.14911(13) 0.0451(3) 0.0160(3)
O4B O 0.1900(3) 0.0434(7) -0.0688(8)
O5B O 0.13287(11) 0.1377(2) 0.3183(3)
O6B O 0.11406(17) 0.2112(3) 0.2295(3)
O7B O 0.11744(12) -0.1095(2) 0.2006(3)
O8B O 0.11220(11) -0.1112(2) 0.3343(3)
N8B N 0.17743(14) -0.0556(3) 0.1133(3)
N9B N 0.13374(13) 0.0291(3) 0.2026(3)
C36B C 0.17018(18) 0.0359(4) 0.2109(4)
H29B H 0.1758 0.0510 0.2648
H30B H 0.1780 0.0700 0.1733
C37B C 0.18641(17) -0.0313(4) 0.1946(4)
H31B H 0.1797 -0.0647 0.2342
H32B H 0.2100 -0.0261 0.1989
C38B C 0.17978(18) -0.1301(4) 0.1023(4)
H33B H 0.2021 -0.1428 0.0896
H34B H 0.1736 -0.1535 0.1512
C39B C 0.15681(17) -0.1503(3) 0.0337(4)
C40B C 0.19690(18) -0.0203(4) 0.0482(5)
H35B H 0.2068 -0.0550 0.0146
H36B H 0.2145 0.0055 0.0735
C41B C 0.1772(2) 0.0272(5) -0.0044(6)
C42B C 0.11897(17) 0.0964(3) 0.1865(4)
H37B H 0.1280 0.1133 0.1367
H38B H 0.0958 0.0893 0.1770
C43B C 0.12247(16) 0.1531(4) 0.2485(4)
C44B C 0.1195(2) -0.0041(4) 0.2749(4)
H39B H 0.1330 0.0069 0.3214
H40B H 0.0979 0.0150 0.2839
C45B C 0.11654(16) -0.0816(3) 0.2683(4)
N1E N 0.18077(14) 0.2395(3) 0.3340(3)
N2E N 0.34130(14) 0.2777(3) 0.1888(3)
C1E C 0.1909(2) 0.2978(4) 0.3015(6)
H1E H 0.1764 0.3344 0.2984
C2E C 0.2219(2) 0.3062(4) 0.2723(6)
H2E H 0.2280 0.3479 0.2502
C3E C 0.24399(17) 0.2532(4) 0.2757(4)
C4E C 0.23366(17) 0.1922(4) 0.3098(5)
H3E H 0.2477 0.1549 0.3139
C5E C 0.20170(18) 0.1882(4) 0.3375(5)
H4E H 0.1947 0.1471 0.3597
C6E C 0.31749(19) 0.3179(4) 0.1640(4)
H5E H 0.3223 0.3524 0.1274
C7E C 0.28576(18) 0.3116(4) 0.1895(4)
H6E H 0.2696 0.3413 0.1705
C8E C 0.27800(17) 0.2599(4) 0.2444(4)
C9E C 0.30360(19) 0.2187(4) 0.2717(4)
H7E H 0.2999 0.1848 0.3098
C10E C 0.33417(17) 0.2286(4) 0.2419(4)
H8E H 0.3509 0.1997 0.2593
N3B N 0.12789(13) 0.3284(3) 0.3914(4)
N4B N 0.11229(15) 0.6870(3) 0.3822(4)
C11B C 0.1114(2) 0.3597(4) 0.3344(5)
H9B H 0.1024 0.3333 0.2933
C12B C 0.1066(2) 0.4295(4) 0.3317(5)
H10B H 0.0947 0.4494 0.2899
C13B C 0.11999(17) 0.4697(4) 0.3927(4)
C14B C 0.1373(2) 0.4361(4) 0.4535(5)
H11B H 0.1464 0.4611 0.4958
C15B C 0.1411(2) 0.3669(4) 0.4515(5)
H12B H 0.1530 0.3454 0.4923
C16B C 0.0880(2) 0.6475(4) 0.3504(5)
H13B H 0.0698 0.6678 0.3263
C17B C 0.0904(2) 0.5763(4) 0.3542(6)
H14B H 0.0739 0.5499 0.3312
C18B C 0.11636(19) 0.5444(3) 0.3908(4)
C19B C 0.1407(2) 0.5874(4) 0.4258(5)
H15B H 0.1587 0.5685 0.4523
C20B C 0.1375(2) 0.6563(4) 0.4200(5)
H16B H 0.1536 0.6838 0.4435
N5F N 0.08998(14) 0.2098(3) 0.4271(3)
N7F N -0.06714(18) 0.2008(3) 0.5958(4)
C21F C 0.08425(18) 0.2372(4) 0.4978(5)
H17F H 0.1010 0.2602 0.5247
C22F C 0.0530(2) 0.2324(5) 0.5341(5)
H18F H 0.0495 0.2525 0.5839
C23F C 0.02850(18) 0.1987(4) 0.4960(4)
C24F C 0.0350(2) 0.1689(4) 0.4206(5)
H19F H 0.0189 0.1454 0.3920
C25F C 0.0663(2) 0.1758(4) 0.3906(5)
H20F H 0.0708 0.1552 0.3416
C31F C -0.0404(2) 0.1978(5) 0.6426(5)
H25F H -0.0430 0.1971 0.6980
C32F C -0.0093(2) 0.1956(5) 0.6119(5)
H26F H 0.0086 0.1935 0.6469
C33F C -0.0043(2) 0.1966(4) 0.5309(5)
C34F C -0.0325(2) 0.1989(6) 0.4824(5)
H27F H -0.0309 0.1984 0.4267
C35F C -0.0623(2) 0.2018(6) 0.5174(5)
H28F H -0.0806 0.2047 0.4838
Cu1B Cu 0.112637(18) -0.21081(4) 0.35764(5)
Cu3B Cu 0.129228(19) -0.03405(4) 0.09742(4)
Cu2E Cu 0.364980(19) 0.27488(4) 0.62019(5)
Cu2B_2 Cu 0.135020(19) 0.77488(4) 0.87981(5)
Cu2F Cu -0.135020(19) 0.22512(4) 1.12019(5)
Cu3D Cu -0.129228(19) -0.03405(4) 0.40258(4)
O2B_2 O 0.16154(11) -0.2056(2) 0.9970(3)
N1G N 0.18077(14) -0.2395(3) 0.8340(3)
N3_2 N 0.12789(13) -0.3284(3) 0.8914(4)
N5D N 0.08998(14) -0.2098(3) 0.9271(3)
Cu2B_3 Cu 0.135020(19) -0.22512(4) -0.12019(5)
Cu1E Cu 0.387363(18) 0.28919(4) 0.14236(5)
Cu1B_2 Cu 0.112637(18) 0.78919(4) 0.35764(5)
Cu1F Cu -0.112637(18) 0.21081(4) 0.64236(5)
O9B O 0.13624(12) -0.1803(3) 0.4808(3)
O10B O 0.08824(14) -0.2340(3) 0.2213(3)
N2B N 0.15870(14) -0.2223(3) 0.3112(3)
N4B_2 N 0.11229(15) -0.3130(3) 0.3822(4)
N7B N 0.06714(18) -0.2008(3) 0.4042(4)
N6B N 0.08244(14) -0.0176(3) 0.0660(3)
O11 O 0.2215(2) 0.2789(6) 0.5210(7)
O12 O 0.2367(6) 0.0240(11) 0.3616(11)
O13 O 0.1064(4) 0.3545(6) 0.6403(6)
loop_
_geom_bond_atom_site_label_1
_geom_bond_atom_site_label_2
_geom_bond_site_symmetry_1
_geom_bond_site_symmetry_2
Cu1 O8 1_555 1_555
Cu2 O2 1_555 1_555
Cu3 O1 1_555 1_555
O1 C39 1_555 1_555
O2 C39 1_555 1_555
O3 Cu3 1_555 1_555
O4 C41 1_555 1_555
O5 C43 1_555 1_555
O6 C43 1_555 1_555
O7 Cu3 1_555 1_555
O8 C45 1_555 1_555
O9 Cu1 1_555 1_555
O10 Cu1 1_555 1_555
N1 C1 1_555 1_555
N2 Cu1 1_555 1_555
N3 C11 1_555 1_555
N4 Cu1 1_555 1_555
N5 C21 1_555 1_555
N6 Cu3 1_555 1_555
N7 Cu1 1_555 1_555
N8 Cu3 1_555 1_555
N9 Cu3 1_555 1_555
C1 H1 1_555 1_555
C2 C1 1_555 1_555
H2 C2 1_555 1_555
C3 C2 1_555 1_555
C4 C3 1_555 1_555
H3 C4 1_555 1_555
C5 N1 1_555 1_555
H4 C5 1_555 1_555
C6 N2 1_555 1_555
H5 C6 1_555 1_555
C7 C6 1_555 1_555
H6 C7 1_555 1_555
C8 C3 1_555 1_555
C9 C8 1_555 1_555
H7 C9 1_555 1_555
C10 N2 1_555 1_555
H8 C10 1_555 1_555
C11 H9 1_555 1_555
C12 C11 1_555 1_555
H10 C12 1_555 1_555
C13 C12 1_555 1_555
C14 C13 1_555 1_555
H11 C14 1_555 1_555
C15 N3 1_555 1_555
H12 C15 1_555 1_555
C16 N4 1_555 1_555
H13 C16 1_555 1_555
C17 C16 1_555 1_555
H14 C17 1_555 1_555
C18 C13 1_555 1_555
C19 C18 1_555 1_555
H15 C19 1_555 1_555
C20 N4 1_555 1_555
H16 C20 1_555 1_555
C21 H17 1_555 1_555
C22 C21 1_555 1_555
H18 C22 1_555 1_555
C23 C22 1_555 1_555
C24 C23 1_555 1_555
H19 C24 1_555 1_555
C25 N5 1_555 1_555
H20 C25 1_555 1_555
C26 N6 1_555 1_555
H21 C26 1_555 1_555
C27 C26 1_555 1_555
H22 C27 1_555 1_555
C28 C27 1_555 1_555
C29 C28 1_555 1_555
H23 C29 1_555 1_555
C30 N6 1_555 1_555
H24 C30 1_555 1_555
C31 N7 1_555 1_555
H25 C31 1_555 1_555
C32 C31 1_555 1_555
H26 C32 1_555 1_555
C33 C23 1_555 1_555
C34 C33 1_555 1_555
H27 C34 1_555 1_555
C35 N7 1_555 1_555
H28 C35 1_555 1_555
C36 N9 1_555 1_555
H29 C36 1_555 1_555
H30 C36 1_555 1_555
C37 N8 1_555 1_555
H31 C37 1_555 1_555
H32 C37 1_555 1_555
C38 N8 1_555 1_555
H33 C38 1_555 1_555
H34 C38 1_555 1_555
C39 C38 1_555 1_555
C40 N8 1_555 1_555
H35 C40 1_555 1_555
H36 C40 1_555 1_555
C41 O3 1_555 1_555
C42 N9 1_555 1_555
H37 C42 1_555 1_555
H38 C42 1_555 1_555
C43 C42 1_555 1_555
C44 N9 1_555 1_555
H39 C44 1_555 1_555
H40 C44 1_555 1_555
C45 O7 1_555 1_555
C28D C28 1_555 1_555
C27D C28D 1_555 1_555
C26D C27D 1_555 1_555
N6D C26D 1_555 1_555
C30D N6D 1_555 1_555
C29D C28D 1_555 1_555
H23D C29D 1_555 1_555
H24D C30D 1_555 1_555
H21D C26D 1_555 1_555
H22D C27D 1_555 1_555
Cu2B O5 1_555 1_555
O1B C39B 1_555 1_555
O2B C39B 1_555 1_555
O3B C41B 1_555 1_555
O4B C41B 1_555 1_555
O5B Cu2 1_555 1_555
O6B C43B 1_555 1_555
O7B C45B 1_555 1_555
O8B C45B 1_555 1_555
N8B C37B 1_555 1_555
N9B C36B 1_555 1_555
C36B H29B 1_555 1_555
H30B C36B 1_555 1_555
C37B C36B 1_555 1_555
H31B C37B 1_555 1_555
H32B C37B 1_555 1_555
C38B N8B 1_555 1_555
H33B C38B 1_555 1_555
H34B C38B 1_555 1_555
C39B C38B 1_555 1_555
C40B N8B 1_555 1_555
H35B C40B 1_555 1_555
H36B C40B 1_555 1_555
C41B C40B 1_555 1_555
C42B N9B 1_555 1_555
H37B C42B 1_555 1_555
H38B C42B 1_555 1_555
C43B O5B 1_555 1_555
C44B N9B 1_555 1_555
H39B C44B 1_555 1_555
H40B C44B 1_555 1_555
C45B C44B 1_555 1_555
N1E Cu2 1_555 1_555
N2E C6E 1_555 1_555
C1E N1E 1_555 1_555
H1E C1E 1_555 1_555
C2E C1E 1_555 1_555
H2E C2E 1_555 1_555
C3E C2E 1_555 1_555
C4E C3E 1_555 1_555
H3E C4E 1_555 1_555
C5E N1E 1_555 1_555
H4E C5E 1_555 1_555
C6E H5E 1_555 1_555
C7E C6E 1_555 1_555
H6E C7E 1_555 1_555
C8E C3E 1_555 1_555
C9E C8E 1_555 1_555
H7E C9E 1_555 1_555
C10E N2E 1_555 1_555
H8E C10E 1_555 1_555
N3B Cu2 1_555 1_555
N4B C16B 1_555 1_555
C11B N3B 1_555 1_555
H9B C11B 1_555 1_555
C12B C11B 1_555 1_555
H10B C12B 1_555 1_555
C13B C12B 1_555 1_555
C14B C13B 1_555 1_555
H11B C14B 1_555 1_555
C15B N3B 1_555 1_555
H12B C15B 1_555 1_555
C16B H13B 1_555 1_555
C17B C16B 1_555 1_555
H14B C17B 1_555 1_555
C18B C13B 1_555 1_555
C19B C18B 1_555 1_555
H15B C19B 1_555 1_555
C20B N4B 1_555 1_555
H16B C20B 1_555 1_555
N5F Cu2 1_555 1_555
N7F C31F 1_555 1_555
C21F N5F 1_555 1_555
H17F C21F 1_555 1_555
C22F C21F 1_555 1_555
H18F C22F 1_555 1_555
C23F C22F 1_555 1_555
C24F C23F 1_555 1_555
H19F C24F 1_555 1_555
C25F N5F 1_555 1_555
H20F C25F 1_555 1_555
C31F H25F 1_555 1_555
C32F C31F 1_555 1_555
H26F C32F 1_555 1_555
C33F C23F 1_555 1_555
C34F C33F 1_555 1_555
H27F C34F 1_555 1_555
C35F N7F 1_555 1_555
H28F C35F 1_555 1_555
Cu1B O8B 1_555 1_555
Cu3B O1B 1_555 1_555
Cu2E N1 1_555 1_555
Cu2B_2 N3 1_555 1_555
Cu2F N5 1_555 1_555
Cu3D N6D 1_555 1_555
O2B_2 Cu2B 1_555 1_555
N1G Cu2B 1_555 1_555
N3_2 Cu2B 1_555 1_555
N5D Cu2B 1_555 1_555
Cu2B_3 O2B 1_555 1_555
Cu1E N2E 1_555 1_555
Cu1B_2 N4B 1_555 1_555
Cu1F N7F 1_555 1_555
O9B Cu1B 1_555 1_555
O10B Cu1B 1_555 1_555
N2B Cu1B 1_555 1_555
N4B_2 Cu1B 1_555 1_555
N7B Cu1B 1_555 1_555
N6B Cu3B 1_555 1_555
C4 C5 1_555 1_555
C7 C8 1_555 1_555
C9 C10 1_555 1_555
C14 C15 1_555 1_555
C17 C18 1_555 1_555
C19 C20 1_555 1_555
C24 C25 1_555 1_555
C29 C30 1_555 1_555
C32 C33 1_555 1_555
C34 C35 1_555 1_555
C36 C37 1_555 1_555
C40 C41 1_555 1_555
C44 C45 1_555 1_555
C30D C29D 1_555 1_555
O3B Cu3B 1_555 1_555
O7B Cu3B 1_555 1_555
N8B Cu3B 1_555 1_555
N9B Cu3B 1_555 1_555
C42B C43B 1_555 1_555
C4E C5E 1_555 1_555
C7E C8E 1_555 1_555
C9E C10E 1_555 1_555
C14B C15B 1_555 1_555
C17B C18B 1_555 1_555
C19B C20B 1_555 1_555
C24F C25F 1_555 1_555
C32F C33F 1_555 1_555
C34F C35F 1_555 1_555

#END
