
#######################################################################
#
#                 Cambridge Crystallographic Data Centre
#                                CCDC 
#
#######################################################################
#
# If this CIF has been generated from an entry in the Cambridge 
# Structural Database, then it will include bibliographic, chemical, 
# crystal, experimental, refinement or atomic coordinate data resulting 
# from the CCDC's data processing and validation procedures.
#
#######################################################################

data_OPEGIA
_chemical_formula_moiety         'C6 H28 In10 N2 O31 P8 2+'
_symmetry_cell_setting           monoclinic
_symmetry_space_group_name_H-M   'C 2/c'
_symmetry_Int_Tables_number      15
_space_group_name_Hall           '-C 2yc'
loop_
_symmetry_equiv_pos_site_id
_symmetry_equiv_pos_as_xyz
1 x,y,z
2 -x,y,1/2-z
3 1/2+x,1/2+y,z
4 1/2-x,1/2+y,1/2-z
5 -x,-y,-z
6 x,-y,1/2+z
7 1/2-x,1/2-y,-z
8 1/2+x,1/2-y,1/2+z
_cell_length_a                   18.675(4)
_cell_length_b                   10.220(2)
_cell_length_c                   13.419(3)
_cell_angle_alpha                90
_cell_angle_beta                 98.29(3)
_cell_angle_gamma                90
_cell_volume                     2534.37
loop_
_atom_site_label
_atom_site_type_symbol
_atom_site_fract_x
_atom_site_fract_y
_atom_site_fract_z
In1 In 1.0000 1.0000 1.0000
In2 In 0.774222(14) 0.50366(2) 0.971354(19)
O1 O 0.9987(2) 0.9829(5) 1.1581(3)
O2 O 0.85111(16) 0.6581(3) 0.9654(3)
O3 O 1.18633(17) 0.8686(3) 0.9544(2)
O4 O 0.80404(15) 0.8427(3) 1.0654(2)
O5 O 0.9031(3) 1.0798(6) 1.2174(4)
H8 H 0.9076 1.1163 1.1643
O6 O 0.7512(3) 0.2816(4) 0.7209(3)
H9 H 0.7336 0.2515 0.6662
O7 O 0.7819(2) 0.4875(3) 0.8147(2)
O8 O 0.90718(15) 0.8786(3) 0.9648(2)
O9 O 1.14554(16) 0.6421(3) 0.9969(3)
O10 O 1.06360(18) 0.8288(3) 1.0031(3)
O11 O 0.7874(3) 0.4783(3) 0.6313(3)
P1 P 0.86904(5) 0.78306(9) 1.02594(7)
P2 P 1.14217(6) 0.78718(10) 1.01941(8)
P3 P 0.96408(12) 0.9738(2) 1.24192(15)
P4 P 0.75009(6) 0.43187(11) 0.71576(9)
H10 H 0.6800(8) 0.437(7) 0.717(5)
H11 H 1.170(4) 0.806(7) 1.117(5)
H12 H 0.912(4) 0.751(7) 1.110(5)
H13 H 0.928(5) 0.859(9) 1.250(6)
In1A In 1.0000 1.0000 1.5000
In2D In 1.225778(14) 1.49634(2) 1.028646(19)
In2B In 1.274222(14) 1.00366(2) 0.971354(19)
In2F In 0.725778(14) 0.99634(2) 1.028646(19)
In2D_2 In 1.225778(14) 0.49634(2) 1.028646(19)
In2E In 0.774222(14) 0.49634(2) 0.471354(19)
In2_2 In 0.774222(14) 1.50366(2) 0.971354(19)
In2E_2 In 0.774222(14) 0.49634(2) 1.471354(19)
O1A O 1.0013(2) 0.9829(5) 1.3419(3)
O1D O 1.0013(2) 1.0171(5) 0.8419(3)
O2D O 1.14889(16) 1.3419(3) 1.0346(3)
O3D O 0.81367(17) 1.1314(3) 1.0456(2)
O3B O 0.68633(17) 0.3686(3) 0.9544(2)
O3F O 1.31367(17) 1.6314(3) 1.0456(2)
O4D O 1.19596(15) 1.1573(3) 0.9346(2)
O4F O 0.69596(15) 0.6573(3) 0.9346(2)
O4B O 1.30404(15) 1.3427(3) 1.0654(2)
O5A O 1.0969(3) 1.0798(6) 1.2826(4)
H8A H 1.0924 1.1163 1.3357
O6E O 0.7512(3) 0.7184(4) 1.2209(3)
H9E H 0.7336 0.7485 1.1662
O7E O 0.7819(2) 0.5125(3) 1.3147(2)
O7D O 1.2181(2) 1.5125(3) 1.1853(2)
O8D O 1.09282(15) 1.1214(3) 1.0352(2)
O9D O 0.85446(16) 1.3579(3) 1.0031(3)
O9D_2 O 0.85446(16) 0.3579(3) 1.0031(3)
O9_2 O 1.14554(16) 1.6421(3) 0.9969(3)
O10D O 0.93640(18) 1.1712(3) 0.9969(3)
O11E O 0.7874(3) 0.5217(3) 1.1313(3)
O11A O 1.2126(3) 1.4783(3) 0.8687(3)
P1D P 1.13096(5) 1.21694(9) 0.97406(7)
P2D P 0.85783(6) 1.21282(10) 0.98059(8)
P3A P 1.03592(12) 0.9738(2) 1.25808(15)
P4E P 0.75009(6) 0.56813(11) 1.21576(9)
H10E H 0.6800(8) 0.563(7) 1.217(5)
H11D H 0.830(4) 1.194(7) 0.883(5)
H12D H 1.088(4) 1.249(7) 0.890(5)
H13A H 1.072(5) 0.859(9) 1.250(6)
C1 C 0.9738(2) 0.6048(5) 0.2888(4)
H1 H 0.9810 0.6829 0.3301
H2 H 0.9243 0.6048 0.2547
C2 C 0.9869(3) 0.4848(7) 0.3542(5)
H3 H 1.0352 0.4900 0.3920
H4 H 0.9528 0.4847 0.4023
C3 C 0.9799(3) 0.3592(6) 0.2978(7)
N1 N 0.9015(3) 0.3349(5) 0.2617(6)
H5 H 0.8759 0.3514 0.3114
H6 H 0.8953 0.2518 0.2427
H7 H 0.8867 0.3871 0.2097
H14 H 0.972(4) 0.255(7) 0.316(5)
C1A C 1.0262(2) 0.6048(5) 0.2112(4)
H1A H 1.0190 0.6829 0.1699
H2A H 1.0757 0.6048 0.2453
C2A C 1.0131(3) 0.4848(7) 0.1458(5)
H3A H 0.9648 0.4900 0.1080
H4A H 1.0472 0.4847 0.0977
C3A C 1.0201(3) 0.3592(6) 0.2022(7)
N1A N 1.0985(3) 0.3349(5) 0.2383(6)
H5A H 1.1241 0.3514 0.1886
H6A H 1.1047 0.2518 0.2573
H7A H 1.1133 0.3871 0.2903
H14A H 1.028(4) 0.255(7) 0.184(5)
loop_
_geom_bond_atom_site_label_1
_geom_bond_atom_site_label_2
_geom_bond_site_symmetry_1
_geom_bond_site_symmetry_2
C1 H1 1_555 1_555
H2 C1 1_555 1_555
C2 C1 1_555 1_555
H3 C2 1_555 1_555
H4 C2 1_555 1_555
C3 C2 1_555 1_555
In1 O1 1_555 1_555
In2 O2 1_555 1_555
N1 C3 1_555 1_555
H5 N1 1_555 1_555
H6 N1 1_555 1_555
H7 N1 1_555 1_555
O1 P3 1_555 1_555
O2 P1 1_555 1_555
O3 P2 1_555 1_555
O4 P1 1_555 1_555
O5 H8 1_555 1_555
O6 H9 1_555 1_555
O7 In2 1_555 1_555
O8 In1 1_555 1_555
O9 P2 1_555 1_555
O10 In1 1_555 1_555
O11 P4 1_555 1_555
P1 O8 1_555 1_555
P2 O10 1_555 1_555
P3 O5 1_555 1_555
P4 O6 1_555 1_555
H10 P4 1_555 1_555
H11 P2 1_555 1_555
H12 P1 1_555 1_555
H13 P3 1_555 1_555
H14 C3 1_555 1_555
C1A C1 1_555 1_555
H1A C1A 1_555 1_555
H2A C1A 1_555 1_555
C2A C1A 1_555 1_555
H3A C2A 1_555 1_555
H4A C2A 1_555 1_555
C3A C3 1_555 1_555
In1A O1A 1_555 1_555
In2D O2D 1_555 1_555
In2B O3 1_555 1_555
In2F O4 1_555 1_555
In2D_2 O9 1_555 1_555
In2E O11 1_555 1_555
In2_2 O9D 1_555 1_555
In2E_2 O7E 1_555 1_555
N1A C3A 1_555 1_555
H5A N1A 1_555 1_555
H6A N1A 1_555 1_555
H7A N1A 1_555 1_555
O1A P3 1_555 1_555
O1D In1 1_555 1_555
O2D P1D 1_555 1_555
O3D In2F 1_555 1_555
O3B In2 1_555 1_555
O3F In2D 1_555 1_555
O4D In2B 1_555 1_555
O4F In2 1_555 1_555
O4B In2D 1_555 1_555
O5A H8A 1_555 1_555
O6E H9E 1_555 1_555
O7E P4E 1_555 1_555
O7D In2D 1_555 1_555
O8D In1 1_555 1_555
O9D P2D 1_555 1_555
O9D_2 In2 1_555 1_555
O9_2 In2D 1_555 1_555
O10D In1 1_555 1_555
O11E In2 1_555 1_555
O11A In2D 1_555 1_555
P1D O4D 1_555 1_555
P2D O3D 1_555 1_555
P3A O1 1_555 1_555
P4E O6E 1_555 1_555
H10E P4E 1_555 1_555
H11D P2D 1_555 1_555
H12D P1D 1_555 1_555
H13A P3A 1_555 1_555
H14A C3A 1_555 1_555
O7 P4 1_555 1_555
P3 P3A 1_555 1_555
C2A C3A 1_555 1_555
O1A P3A 1_555 1_555
O5A P3A 1_555 1_555
O8D P1D 1_555 1_555
O10D P2D 1_555 1_555
O11E P4E 1_555 1_555

#END
