
#######################################################################
#
#                 Cambridge Crystallographic Data Centre
#                                CCDC 
#
#######################################################################
#
# If this CIF has been generated from an entry in the Cambridge 
# Structural Database, then it will include bibliographic, chemical, 
# crystal, experimental, refinement or atomic coordinate data resulting 
# from the CCDC's data processing and validation procedures.
#
#######################################################################

data_EKADIF
_chemical_formula_moiety         '(C8 H6 N6 Zn1)n'
_symmetry_cell_setting           cubic
_symmetry_space_group_name_H-M   'I a -3 d'
_symmetry_Int_Tables_number      230
_space_group_name_Hall           '-I 4bd 2c 3'
loop_
_symmetry_equiv_pos_site_id
_symmetry_equiv_pos_as_xyz
1 x,y,z
2 1/2-x,-y,1/2+z
3 -x,1/2+y,1/2-z
4 1/2+x,1/2-y,-z
5 z,x,y
6 1/2+z,1/2-x,-y
7 1/2-z,-x,1/2+y
8 -z,1/2+x,1/2-y
9 y,z,x
10 -y,1/2+z,1/2-x
11 1/2+y,1/2-z,-x
12 1/2-y,-z,1/2+x
13 3/4+y,1/4+x,1/4-z
14 3/4-y,3/4-x,3/4-z
15 1/4+y,1/4-x,3/4+z
16 1/4-y,3/4+x,1/4+z
17 3/4+x,1/4+z,1/4-y
18 1/4-x,3/4+z,1/4+y
19 3/4-x,3/4-z,3/4-y
20 1/4+x,1/4-z,3/4+y
21 3/4+z,1/4+y,1/4-x
22 1/4+z,1/4-y,3/4+x
23 1/4-z,3/4+y,1/4+x
24 3/4-z,3/4-y,3/4-x
25 1/2+x,1/2+y,1/2+z
26 -x,1/2-y,z
27 1/2-x,y,-z
28 x,-y,1/2-z
29 1/2+z,1/2+x,1/2+y
30 z,-x,1/2-y
31 -z,1/2-x,y
32 1/2-z,x,-y
33 1/2+y,1/2+z,1/2+x
34 1/2-y,z,-x
35 y,-z,1/2-x
36 -y,1/2-z,x
37 1/4+y,3/4+x,3/4-z
38 1/4-y,1/4-x,1/4-z
39 3/4+y,3/4-x,1/4+z
40 3/4-y,1/4+x,3/4+z
41 1/4+x,3/4+z,3/4-y
42 3/4-x,1/4+z,3/4+y
43 1/4-x,1/4-z,1/4-y
44 3/4+x,3/4-z,1/4+y
45 1/4+z,3/4+y,3/4-x
46 3/4+z,3/4-y,1/4+x
47 3/4-z,1/4+y,3/4+x
48 1/4-z,1/4-y,1/4-x
49 -x,-y,-z
50 1/2+x,y,1/2-z
51 x,1/2-y,1/2+z
52 1/2-x,1/2+y,z
53 -z,-x,-y
54 1/2-z,1/2+x,y
55 1/2+z,x,1/2-y
56 z,1/2-x,1/2+y
57 -y,-z,-x
58 y,1/2-z,1/2+x
59 1/2-y,1/2+z,x
60 1/2+y,z,1/2-x
61 1/4-y,3/4-x,3/4+z
62 1/4+y,1/4+x,1/4+z
63 3/4-y,3/4+x,1/4-z
64 3/4+y,1/4-x,3/4-z
65 1/4-x,3/4-z,3/4+y
66 3/4+x,1/4-z,3/4-y
67 1/4+x,1/4+z,1/4+y
68 3/4-x,3/4+z,1/4-y
69 1/4-z,3/4-y,3/4+x
70 3/4-z,3/4+y,1/4-x
71 3/4+z,1/4-y,3/4-x
72 1/4+z,1/4+y,1/4+x
73 1/2-x,1/2-y,1/2-z
74 x,1/2+y,-z
75 1/2+x,-y,z
76 -x,y,1/2+z
77 1/2-z,1/2-x,1/2-y
78 -z,x,1/2+y
79 z,1/2+x,-y
80 1/2+z,-x,y
81 1/2-y,1/2-z,1/2-x
82 1/2+y,-z,x
83 -y,z,1/2+x
84 y,1/2+z,-x
85 3/4-y,1/4-x,1/4+z
86 3/4+y,3/4+x,3/4+z
87 1/4-y,1/4+x,3/4-z
88 1/4+y,3/4-x,1/4-z
89 3/4-x,1/4-z,1/4+y
90 1/4+x,3/4-z,1/4-y
91 3/4+x,3/4+z,3/4+y
92 1/4-x,1/4+z,3/4-y
93 3/4-z,1/4-y,1/4+x
94 1/4-z,1/4+y,3/4-x
95 1/4+z,3/4-y,1/4-x
96 3/4+z,3/4+y,3/4+x
_cell_length_a                   34.4885(2)
_cell_length_b                   34.4885(2)
_cell_length_c                   34.4885(2)
_cell_angle_alpha                90
_cell_angle_beta                 90
_cell_angle_gamma                90
_cell_volume                     41022.6
loop_
_atom_site_label
_atom_site_type_symbol
_atom_site_fract_x
_atom_site_fract_y
_atom_site_fract_z
_atom_site_U_iso_or_equiv
_atom_site_thermal_displace_type
C1 C 0.87558(15) 0.03517(16) 1.07321(14) 0.0733 Uani
H1 H 0.8657 0.0542 1.0895 0.0880 Uiso
C2 C 0.90413(19) -0.01502(17) 1.05365(17) 0.0917 Uani
H2 H 0.9181 -0.0381 1.0530 0.1100 Uiso
C3 C 0.88980(19) 0.00326(18) 1.02221(15) 0.0883 Uani
C4 C 0.8996(5) -0.0117(4) 0.9835(2) 0.1133 Uani
H3 H 0.9148 -0.0339 0.9835 0.1360 Uiso
C5 C 0.8515(4) 0.0443(3) 0.9213(3) 0.1133 Uani
H4 H 0.8503 0.0274 0.9003 0.1360 Uiso
N1 N 0.8906(3) 0.0010(3) 0.9494(2) 0.1133 Uani
N2 N 0.8698(6) 0.0348(4) 0.9528(3) 0.1133 Uani
C6 C 0.8327(2) 0.0823(2) 0.91958(19) 0.1040 Uani
C7 C 0.8096(2) 0.1020(2) 0.89400(18) 0.1087 Uani
H5 H 0.8065 0.0960 0.8679 0.1310 Uiso
C8 C 0.80437(15) 0.12825(17) 0.94970(16) 0.0793 Uani
H6 H 0.7970 0.1451 0.9694 0.0950 Uiso
N3 N 0.87100(13) 0.03601(13) 1.03499(13) 0.0787 Uani
N4 N 0.89542(14) 0.00481(12) 1.08614(13) 0.0847 Uani
N5 N 0.82826(13) 0.09881(13) 0.95519(12) 0.0797 Uani
N6 N 0.79177(12) 0.13149(14) 0.91295(13) 0.0800 Uani
Zn1 Zn 0.859912(19) 0.08173(2) 1.000982(19) 0.0735 Uani
N4ZA N 0.91386(13) 0.10458(14) 0.99519(12) 0.0847 Uani
N6NC N 0.83705(13) 0.11851(14) 1.04177(12) 0.0800 Uani
Zn1DB Zn 0.91827(2) -0.000982(19) 1.140088(19) 0.0735 Uani
Zn1RB Zn 0.750982(19) 0.16827(2) 0.890088(19) 0.0735 Uani
loop_
_atom_site_aniso_label
_atom_site_aniso_U_11
_atom_site_aniso_U_22
_atom_site_aniso_U_33
_atom_site_aniso_U_23
_atom_site_aniso_U_13
_atom_site_aniso_U_12
C1 0.079(3) 0.079(3) 0.062(3) 0.010(3) 0.013(3) 0.013(3)
C2 0.122(5) 0.075(3) 0.078(4) -0.002(3) 0.014(4) 0.024(3)
C3 0.108(4) 0.090(4) 0.067(3) 0.012(3) 0.009(3) 0.022(3)
C4 0.152(4) 0.117(3) 0.071(2) -0.003(3) 0.000(3) 0.052(3)
C5 0.152(4) 0.117(3) 0.071(2) -0.003(3) 0.000(3) 0.052(3)
N1 0.152(4) 0.117(3) 0.071(2) -0.003(3) 0.000(3) 0.052(3)
N2 0.152(4) 0.117(3) 0.071(2) -0.003(3) 0.000(3) 0.052(3)
C6 0.108(5) 0.111(5) 0.093(4) 0.008(4) -0.001(4) 0.043(4)
C7 0.133(6) 0.116(5) 0.077(4) 0.004(4) -0.012(4) 0.037(5)
C8 0.071(3) 0.088(4) 0.079(3) 0.011(3) -0.001(3) 0.009(3)
N3 0.082(3) 0.078(3) 0.076(3) 0.010(2) 0.007(2) 0.015(2)
N4 0.104(3) 0.074(3) 0.076(3) 0.017(2) 0.018(3) 0.015(3)
N5 0.079(3) 0.088(3) 0.072(3) 0.012(2) 0.002(2) 0.015(2)
N6 0.075(3) 0.096(3) 0.069(3) 0.011(2) -0.015(2) 0.011(2)
Zn1 0.0738(4) 0.0852(5) 0.0616(4) 0.0094(3) 0.0087(3) 0.0204(4)
N4ZA 0.076 0.104 0.074 0.015 0.017 0.018
N6NC 0.069 0.096 0.075 -0.011 0.015 0.011
Zn1DB 0.0852 0.0616 0.0738 0.0087 0.0204 0.0094
Zn1RB 0.0616 0.0852 0.0738 0.0204 -0.0087 -0.0094
loop_
_geom_bond_atom_site_label_1
_geom_bond_atom_site_label_2
_geom_bond_site_symmetry_1
_geom_bond_site_symmetry_2
C1 H1 1_555 1_555
C2 H2 1_555 1_555
C3 C2 1_555 1_555
C4 C3 1_555 1_555
H3 C4 1_555 1_555
C5 H4 1_555 1_555
N1 C4 1_555 1_555
N2 C5 1_555 1_555
C6 C5 1_555 1_555
C7 C6 1_555 1_555
H5 C7 1_555 1_555
C8 H6 1_555 1_555
N3 C1 1_555 1_555
N4 C1 1_555 1_555
N5 C6 1_555 1_555
N6 C7 1_555 1_555
Zn1 N2 1_555 1_555
N4ZA Zn1 1_555 1_555
N6NC Zn1 1_555 1_555
Zn1DB N4 1_555 1_555
Zn1RB N6 1_555 1_555
C2 N4 1_555 1_555
C3 N3 1_555 1_555
N1 N2 1_555 1_555
C8 N5 1_555 1_555
C8 N6 1_555 1_555
N3 Zn1 1_555 1_555
N5 Zn1 1_555 1_555

#END
