
#######################################################################
#
#                 Cambridge Crystallographic Data Centre
#                                CCDC 
#
#######################################################################
#
# If this CIF has been generated from an entry in the Cambridge 
# Structural Database, then it will include bibliographic, chemical, 
# crystal, experimental, refinement or atomic coordinate data resulting 
# from the CCDC's data processing and validation procedures.
#
#######################################################################

data_AWASEY
_chemical_formula_moiety         '(C60 H60 Cu12 I12 K1 N10 O30 Pr3)n'
_symmetry_cell_setting           monoclinic
_symmetry_space_group_name_H-M   'C 2/m'
_symmetry_Int_Tables_number      12
_space_group_name_Hall           '-C 2y'
loop_
_symmetry_equiv_pos_site_id
_symmetry_equiv_pos_as_xyz
1 x,y,z
2 -x,y,-z
3 1/2+x,1/2+y,z
4 1/2-x,1/2+y,-z
5 -x,-y,-z
6 x,-y,z
7 1/2-x,1/2-y,-z
8 1/2+x,1/2-y,z
_cell_length_a                   30.332(4)
_cell_length_b                   46.354(6)
_cell_length_c                   18.130(3)
_cell_angle_alpha                90
_cell_angle_beta                 116.729(2)
_cell_angle_gamma                90
_cell_volume                     22767.1
loop_
_atom_site_label
_atom_site_type_symbol
_atom_site_fract_x
_atom_site_fract_y
_atom_site_fract_z
Pr1 Pr 0.92753(6) 0.82788(4) 0.76702(9)
Cu1 Cu 0.69395(16) 0.84907(8) 1.0869(3)
Cu2 Cu 1.2267(3) 1.0000 0.8587(8)
Cu3 Cu 0.76640(15) 0.81957(8) 1.0888(2)
Cu4 Cu 0.74506(14) 0.81331(8) 1.2092(2)
Cu5 Cu 0.68292(13) 0.79328(8) 1.0691(2)
Cu6 Cu 1.1449(2) 0.97192(10) 0.8052(5)
Cu7 Cu 1.1730(4) 1.0000 0.7022(8)
I1 I 1.16822(18) 1.0000 0.9427(4)
I2 I 1.21909(16) 1.04797(6) 0.7777(3)
I3 I 0.67573(9) 0.82639(5) 0.94319(12)
I4 I 0.77141(7) 0.76705(4) 1.14805(11)
I5 I 0.78741(8) 0.86323(4) 1.18995(14)
I6 I 0.65053(8) 0.81931(5) 1.16905(13)
I7 I 1.0790(2) 1.0000 0.6689(5)
K1 K 1.0000 0.8561(2) 1.0000
O1 O 0.9095(8) 0.8463(4) 0.8854(12)
O2 O 0.8613(9) 0.8133(6) 0.8074(13)
O3 O 0.9885(6) 0.8053(4) 0.9004(10)
O4 O 1.0091(7) 0.8028(5) 0.7983(11)
O5 O 0.8485(7) 0.8228(6) 0.6358(12)
O6 O 0.9143(8) 0.8115(6) 0.6238(12)
O7 O 0.9940(8) 0.8653(5) 0.8476(14)
O8 O 0.9783(9) 0.8604(5) 0.7157(14)
N1 N 0.8090(7) 0.8207(3) 1.0306(10)
C1 C 0.8441(7) 0.8420(3) 1.0453(10)
H1 H 0.8529 0.8547 1.0908
C2 C 0.8663(6) 0.8448(4) 0.9932(12)
H2 H 0.8903 0.8594 1.0032
C3 C 0.8534(6) 0.8262(4) 0.9265(10)
C4 C 0.8182(7) 0.8048(4) 0.9119(9)
H3 H 0.8094 0.7921 0.8663
C5 C 0.7960(6) 0.8021(3) 0.9639(11)
H4 H 0.7720 0.7875 0.9539
C6 C 0.8749(9) 0.8287(5) 0.8661(15)
N2 N 1.1332(5) 0.7383(3) 1.0133(10)
C7 C 1.1019(6) 0.7487(3) 1.0446(7)
H5 H 1.1060 0.7424 1.0971
C8 C 1.0648(6) 0.7682(3) 0.9990(9)
H6 H 1.0435 0.7752 1.0204
C9 C 1.0589(5) 0.7774(3) 0.9221(9)
C10 C 1.0902(6) 0.7671(4) 0.8908(8)
H7 H 1.0861 0.7733 0.8383
C11 C 1.1273(6) 0.7475(4) 0.9364(10)
H8 H 1.1486 0.7405 0.9150
C12 C 1.0153(10) 0.7978(6) 0.8680(18)
N3 N 0.7800(6) 0.8091(4) 0.3310(8)
C13 C 0.7596(6) 0.8194(5) 0.3809(11)
H9 H 0.7259 0.8251 0.3569
C14 C 0.7884(7) 0.8213(5) 0.4658(10)
H10 H 0.7744 0.8284 0.4999
C15 C 0.8377(7) 0.8130(4) 0.5009(8)
C16 C 0.8581(5) 0.8027(5) 0.4511(10)
H11 H 0.8918 0.7970 0.4751
C17 C 0.8293(7) 0.8007(5) 0.3661(10)
H12 H 0.8432 0.7937 0.3321
C18 C 0.8676(11) 0.8162(8) 0.5899(16)
N4 N 1.1081(10) 0.9364(5) 0.812(2)
C19 C 1.0954(10) 0.9323(5) 0.8760(15)
H13 H 1.1098 0.9440 0.9240
C20 C 1.0617(10) 0.9109(5) 0.8698(15)
H14 H 1.0531 0.9081 0.9135
C21 C 1.0407(9) 0.8937(4) 0.7996(17)
C22 C 1.0534(12) 0.8979(6) 0.7356(16)
H15 H 1.0390 0.8861 0.6876
C23 C 1.0871(13) 0.9192(6) 0.7418(19)
H16 H 1.0957 0.9221 0.6980
C24 C 1.0004(11) 0.8714(7) 0.788(2)
O9 O 0.9133(11) 0.7740(6) 0.7535(18)
O10 O 0.8843(10) 0.8764(7) 0.724(2)
N5 N 0.6581(9) 0.8861(5) 1.0636(17)
C25 C 0.6647(10) 0.9031(6) 1.1309(14)
H17 H 0.6897 0.8984 1.1844
C26 C 0.6346(12) 0.9270(6) 1.1199(19)
H18 H 0.6391 0.9386 1.1660
C27 C 0.5980(10) 0.9338(5) 1.042(2)
C28 C 0.5914(11) 0.9168(7) 0.9743(17)
H19 H 0.5663 0.9215 0.9208
C29 C 0.6214(12) 0.8929(6) 0.9853(15)
H20 H 0.6169 0.8813 0.9393
O11 O 1.0000 0.9216(19) 1.0000
Pr2 Pr 0.48013(14) 1.0000 0.8615(3)
O12 O 0.5387(12) 0.9679(6) 0.953(3)
O13 O 0.3974(16) 1.0000 0.742(3)
O14 O 0.4727(16) 1.0476(9) 0.777(3)
O15 O 0.538(3) 1.0000 0.811(7)
O16 O 0.5648(12) 0.9695(6) 1.096(3)
C30 C 0.5663(8) 0.9577(4) 1.030(3)
Pr1A Pr 0.07247(6) 0.82788(4) 1.23298(9)
Cu1A Cu 0.30605(16) 0.84907(8) 0.9131(3)
Cu3A Cu 0.23360(15) 0.81957(8) 0.9112(2)
Cu4A Cu 0.25494(14) 0.81331(8) 0.7908(2)
Cu5A Cu 0.31708(13) 0.79328(8) 0.9309(2)
Cu6A Cu -0.1449(2) 0.97192(10) 1.1948(5)
I3A I 0.32427(9) 0.82639(5) 1.05681(12)
I4A I 0.22859(7) 0.76705(4) 0.85195(11)
I5A I 0.21259(8) 0.86323(4) 0.81005(14)
I6A I 0.34947(8) 0.81931(5) 0.83095(13)
O1A O 0.0905(8) 0.8463(4) 1.1146(12)
O2A O 0.1387(9) 0.8133(6) 1.1926(13)
O3A O 0.0115(6) 0.8053(4) 1.0996(10)
O4A O -0.0091(7) 0.8028(5) 1.2017(11)
O5A O 0.1515(7) 0.8228(6) 1.3642(12)
O6A O 0.0857(8) 0.8115(6) 1.3762(12)
O7A O 0.0060(8) 0.8653(5) 1.1524(14)
O8A O 0.0217(9) 0.8604(5) 1.2843(14)
N1A N 0.1910(7) 0.8207(3) 0.9694(10)
C1A C 0.1559(7) 0.8420(3) 0.9547(10)
H1A H 0.1471 0.8547 0.9092
C2A C 0.1337(6) 0.8448(4) 1.0068(12)
H2A H 0.1097 0.8594 0.9968
C3A C 0.1466(6) 0.8262(4) 1.0735(10)
C4A C 0.1818(7) 0.8048(4) 1.0881(9)
H3A H 0.1906 0.7921 1.1337
C5A C 0.2040(6) 0.8021(3) 1.0361(11)
H4A H 0.2280 0.7875 1.0461
C6A C 0.1251(9) 0.8287(5) 1.1339(15)
N2A N -0.1332(5) 0.7383(3) 0.9867(10)
C7A C -0.1019(6) 0.7487(3) 0.9554(7)
H5A H -0.1060 0.7424 0.9029
C8A C -0.0648(6) 0.7682(3) 1.0010(9)
H6A H -0.0435 0.7752 0.9796
C9A C -0.0589(5) 0.7774(3) 1.0779(9)
C10A C -0.0902(6) 0.7671(4) 1.1092(8)
H7A H -0.0861 0.7733 1.1617
C11A C -0.1273(6) 0.7475(4) 1.0636(10)
H8A H -0.1486 0.7405 1.0850
C12A C -0.0153(10) 0.7978(6) 1.1320(18)
N3A N 0.2200(6) 0.8091(4) 1.6690(8)
C13A C 0.2404(6) 0.8194(5) 1.6191(11)
H9A H 0.2741 0.8251 1.6431
C14A C 0.2116(7) 0.8213(5) 1.5342(10)
H10A H 0.2256 0.8284 1.5001
C15A C 0.1623(7) 0.8130(4) 1.4991(8)
C16A C 0.1419(5) 0.8027(5) 1.5489(10)
H11A H 0.1082 0.7970 1.5249
C17A C 0.1707(7) 0.8007(5) 1.6339(10)
H12A H 0.1568 0.7937 1.6679
C18A C 0.1324(11) 0.8162(8) 1.4101(16)
N4A N -0.1081(10) 0.9364(5) 1.188(2)
C19A C -0.0954(10) 0.9323(5) 1.1240(15)
H13A H -0.1098 0.9440 1.0760
C20A C -0.0617(10) 0.9109(5) 1.1302(15)
H14A H -0.0531 0.9081 1.0865
C21A C -0.0407(9) 0.8937(4) 1.2004(17)
C22A C -0.0534(12) 0.8979(6) 1.2644(16)
H15A H -0.0390 0.8861 1.3124
C23A C -0.0871(13) 0.9192(6) 1.2582(19)
H16A H -0.0957 0.9221 1.3020
C24A C -0.0004(11) 0.8714(7) 1.212(2)
O9A O 0.0867(11) 0.7740(6) 1.2465(18)
O10A O 0.1157(10) 0.8764(7) 1.276(2)
N5A N 0.3419(9) 0.8861(5) 0.9364(17)
C25A C 0.3353(10) 0.9031(6) 0.8691(14)
H17A H 0.3103 0.8984 0.8156
C26A C 0.3654(12) 0.9270(6) 0.8801(19)
H18A H 0.3609 0.9386 0.8340
C27A C 0.4020(10) 0.9338(5) 0.958(2)
C28A C 0.4086(11) 0.9168(7) 1.0257(17)
H19A H 0.4337 0.9215 1.0792
C29A C 0.3786(12) 0.8929(6) 1.0147(15)
H20A H 0.3831 0.8813 1.0607
O12A O 0.4613(12) 0.9679(6) 1.047(3)
O16A O 0.4352(12) 0.9695(6) 0.904(3)
C30A C 0.4337(8) 0.9577(4) 0.970(3)
I2E I 1.21909(16) 0.95203(6) 0.7777(3)
O14E O 0.4727(16) 0.9524(9) 0.777(3)
Cu4_2 Cu 0.74506(14) 0.81331(8) 0.2092(2)
Cu4A_2 Cu 0.25494(14) 0.81331(8) 1.7908(2)
Cu5F Cu -0.18292(13) 0.70672(8) 0.9309(2)
Cu5G Cu 1.18292(13) 0.70672(8) 1.0691(2)
Cu6E Cu 1.1449(2) 1.02808(10) 0.8052(5)
I1A I -0.16822(18) 1.0000 1.0573(4)
I2D I -0.21909(16) 0.95203(6) 1.2223(3)
I7A I -0.0790(2) 1.0000 1.3311(5)
K1_2 K 0.0000 0.8561(2) 1.0000
O1A_2 O 1.0905(8) 0.8463(4) 1.1146(12)
O3A_2 O 1.0115(6) 0.8053(4) 1.0996(10)
O7A_2 O 1.0060(8) 0.8653(5) 1.1524(14)
N2F N 0.3668(5) 0.7617(3) 0.9867(10)
N2G N 0.6332(5) 0.7617(3) 1.0133(10)
N3_2 N 0.7800(6) 0.8091(4) 1.3310(8)
N3A_2 N 0.2200(6) 0.8091(4) 0.6690(8)
Pr2A Pr 0.51987(14) 1.0000 1.1385(3)
O12E O 0.5387(12) 1.0321(6) 0.953(3)
O16D O 0.4352(12) 1.0305(6) 0.904(3)
O17 O 1.0098(11) 0.8128(7) 0.6483(16)
loop_
_geom_bond_atom_site_label_1
_geom_bond_atom_site_label_2
_geom_bond_site_symmetry_1
_geom_bond_site_symmetry_2
Pr1 O1 1_555 1_555
Cu1 I3 1_555 1_555
Cu2 I1 1_555 1_555
Cu3 I3 1_555 1_555
Cu4 I4 1_555 1_555
Cu5 I3 1_555 1_555
Cu6 I1 1_555 1_555
Cu7 I2 1_555 1_555
I1 Cu6E 1_555 1_555
I2 Cu2 1_555 1_555
I4 Cu3 1_555 1_555
I5 Cu1 1_555 1_555
I6 Cu1 1_555 1_555
I7 Cu6 1_555 1_555
K1 O1 1_555 1_555
O1 C6 1_555 1_555
O2 Pr1 1_555 1_555
O3 Pr1 1_555 1_555
O4 Pr1 1_555 1_555
O5 Pr1 1_555 1_555
O6 Pr1 1_555 1_555
O7 Pr1 1_555 1_555
O8 Pr1 1_555 1_555
N1 Cu3 1_555 1_555
C1 N1 1_555 1_555
H1 C1 1_555 1_555
C2 C1 1_555 1_555
H2 C2 1_555 1_555
C3 C2 1_555 1_555
C4 C3 1_555 1_555
H3 C4 1_555 1_555
C5 N1 1_555 1_555
H4 C5 1_555 1_555
C6 O2 1_555 1_555
N2 C7 1_555 1_555
C7 H5 1_555 1_555
C8 C7 1_555 1_555
H6 C8 1_555 1_555
C9 C8 1_555 1_555
C10 C9 1_555 1_555
H7 C10 1_555 1_555
C11 N2 1_555 1_555
H8 C11 1_555 1_555
C12 O3 1_555 1_555
N3 C13 1_555 1_555
C13 H9 1_555 1_555
C14 C13 1_555 1_555
H10 C14 1_555 1_555
C15 C14 1_555 1_555
C16 C15 1_555 1_555
H11 C16 1_555 1_555
C17 N3 1_555 1_555
H12 C17 1_555 1_555
C18 O5 1_555 1_555
N4 Cu6 1_555 1_555
C19 N4 1_555 1_555
H13 C19 1_555 1_555
C20 C19 1_555 1_555
H14 C20 1_555 1_555
C21 C20 1_555 1_555
C22 C21 1_555 1_555
H15 C22 1_555 1_555
C23 N4 1_555 1_555
H16 C23 1_555 1_555
C24 O7 1_555 1_555
O9 Pr1 1_555 1_555
O10 Pr1 1_555 1_555
N5 Cu1 1_555 1_555
C25 N5 1_555 1_555
H17 C25 1_555 1_555
C26 C25 1_555 1_555
H18 C26 1_555 1_555
C27 C26 1_555 1_555
C28 C27 1_555 1_555
H19 C28 1_555 1_555
C29 N5 1_555 1_555
H20 C29 1_555 1_555
O11 K1 1_555 1_555
Pr2 O12 1_555 1_555
O12 C30 1_555 1_555
O13 Pr2 1_555 1_555
O14 Pr2 1_555 1_555
O15 Pr2 1_555 1_555
O16 C30 1_555 1_555
C30 C27 1_555 1_555
Pr1A O1A 1_555 1_555
Cu1A I3A 1_555 1_555
Cu3A I3A 1_555 1_555
Cu4A I4A 1_555 1_555
Cu5A I3A 1_555 1_555
Cu6A N4A 1_555 1_555
I4A Cu3A 1_555 1_555
I5A Cu1A 1_555 1_555
I6A Cu1A 1_555 1_555
O1A C6A 1_555 1_555
O2A Pr1A 1_555 1_555
O3A Pr1A 1_555 1_555
O4A Pr1A 1_555 1_555
O5A Pr1A 1_555 1_555
O6A Pr1A 1_555 1_555
O7A Pr1A 1_555 1_555
O8A Pr1A 1_555 1_555
N1A Cu3A 1_555 1_555
C1A N1A 1_555 1_555
H1A C1A 1_555 1_555
C2A C1A 1_555 1_555
H2A C2A 1_555 1_555
C3A C2A 1_555 1_555
C4A C3A 1_555 1_555
H3A C4A 1_555 1_555
C5A N1A 1_555 1_555
H4A C5A 1_555 1_555
C6A O2A 1_555 1_555
N2A C7A 1_555 1_555
C7A H5A 1_555 1_555
C8A C7A 1_555 1_555
H6A C8A 1_555 1_555
C9A C8A 1_555 1_555
C10A C9A 1_555 1_555
H7A C10A 1_555 1_555
C11A N2A 1_555 1_555
H8A C11A 1_555 1_555
C12A O3A 1_555 1_555
N3A C13A 1_555 1_555
C13A H9A 1_555 1_555
C14A C13A 1_555 1_555
H10A C14A 1_555 1_555
C15A C14A 1_555 1_555
C16A C15A 1_555 1_555
H11A C16A 1_555 1_555
C17A N3A 1_555 1_555
H12A C17A 1_555 1_555
C18A O5A 1_555 1_555
N4A C19A 1_555 1_555
C19A H13A 1_555 1_555
C20A C19A 1_555 1_555
H14A C20A 1_555 1_555
C21A C20A 1_555 1_555
C22A C21A 1_555 1_555
H15A C22A 1_555 1_555
C23A N4A 1_555 1_555
H16A C23A 1_555 1_555
C24A O7A 1_555 1_555
O9A Pr1A 1_555 1_555
O10A Pr1A 1_555 1_555
N5A Cu1A 1_555 1_555
C25A N5A 1_555 1_555
H17A C25A 1_555 1_555
C26A C25A 1_555 1_555
H18A C26A 1_555 1_555
C27A C26A 1_555 1_555
C28A C27A 1_555 1_555
H19A C28A 1_555 1_555
C29A N5A 1_555 1_555
H20A C29A 1_555 1_555
O12A C30A 1_555 1_555
O16A Pr2 1_555 1_555
C30A C27A 1_555 1_555
I2E Cu2 1_555 1_555
O14E Pr2 1_555 1_555
Cu4_2 N3 1_555 1_555
Cu4A_2 N3A 1_555 1_555
Cu5F N2A 1_555 1_555
Cu5G N2 1_555 1_555
Cu6E I2 1_555 1_555
I1A Cu6A 1_555 1_555
I2D Cu6A 1_555 1_555
I7A Cu6A 1_555 1_555
K1_2 O1A 1_555 1_555
O1A_2 K1 1_555 1_555
O3A_2 K1 1_555 1_555
O7A_2 K1 1_555 1_555
N2F Cu5A 1_555 1_555
N2G Cu5 1_555 1_555
N3_2 Cu4 1_555 1_555
N3A_2 Cu4A 1_555 1_555
Pr2A O16 1_555 1_555
O12E Pr2 1_555 1_555
O16D Pr2 1_555 1_555
Cu3 I5 1_555 1_555
Cu4 I5 1_555 1_555
Cu4 I6 1_555 1_555
Cu5 I4 1_555 1_555
Cu5 I6 1_555 1_555
Cu6 I2E 1_555 1_555
Cu7 I7 1_555 1_555
Cu7 I2E 1_555 1_555
I7 Cu6E 1_555 1_555
K1 O3 1_555 1_555
K1 O7 1_555 1_555
O4 C12 1_555 1_555
O6 C18 1_555 1_555
O8 C24 1_555 1_555
C3 C6 1_555 1_555
C4 C5 1_555 1_555
C9 C12 1_555 1_555
C10 C11 1_555 1_555
C15 C18 1_555 1_555
C16 C17 1_555 1_555
C21 C24 1_555 1_555
C22 C23 1_555 1_555
C28 C29 1_555 1_555
Cu3A I5A 1_555 1_555
Cu4A I5A 1_555 1_555
Cu4A I6A 1_555 1_555
Cu5A I4A 1_555 1_555
Cu5A I6A 1_555 1_555
O3A K1_2 1_555 1_555
O4A C12A 1_555 1_555
O6A C18A 1_555 1_555
O7A K1_2 1_555 1_555
O8A C24A 1_555 1_555
C3A C6A 1_555 1_555
C4A C5A 1_555 1_555
C9A C12A 1_555 1_555
C10A C11A 1_555 1_555
C15A C18A 1_555 1_555
C16A C17A 1_555 1_555
C21A C24A 1_555 1_555
C22A C23A 1_555 1_555
C28A C29A 1_555 1_555
O12A Pr2A 1_555 1_555
O16A C30A 1_555 1_555

#END
