
#######################################################################
#
#                 Cambridge Crystallographic Data Centre
#                                CCDC 
#
#######################################################################
#
# If this CIF has been generated from an entry in the Cambridge 
# Structural Database, then it will include bibliographic, chemical, 
# crystal, experimental, refinement or atomic coordinate data resulting 
# from the CCDC's data processing and validation procedures.
#
#######################################################################

data_KEQZAJ
_chemical_formula_moiety         '(C62 H40 Mn3 N4 O15)n'
_symmetry_cell_setting           monoclinic
_symmetry_space_group_name_H-M   'C 2/c'
_symmetry_Int_Tables_number      15
_space_group_name_Hall           '-C 2yc'
loop_
_symmetry_equiv_pos_site_id
_symmetry_equiv_pos_as_xyz
1 x,y,z
2 -x,y,1/2-z
3 1/2+x,1/2+y,z
4 1/2-x,1/2+y,1/2-z
5 -x,-y,-z
6 x,-y,1/2+z
7 1/2-x,1/2-y,-z
8 1/2+x,1/2-y,1/2+z
_cell_length_a                   14.2304(18)
_cell_length_b                   17.019(2)
_cell_length_c                   25.805(3)
_cell_angle_alpha                90
_cell_angle_beta                 92.932(2)
_cell_angle_gamma                90
_cell_volume                     6241.46
loop_
_atom_site_label
_atom_site_type_symbol
_atom_site_fract_x
_atom_site_fract_y
_atom_site_fract_z
Mn1 Mn 0.992160(18) 0.322870(15) 0.507820(10)
Mn2 Mn 0.7500 0.2500 0.5000
N1 N 1.13335(10) 0.38276(9) 0.50332(6)
N2 N 1.09842(13) 0.25685(9) 0.55947(7)
O1 O 0.78721(9) 0.34330(7) 0.44692(5)
O2 O 0.93103(10) 0.39510(9) 0.45035(5)
O3 O 0.73595(11) 0.62295(9) 0.28420(5)
O4 O 0.94583(10) 0.61043(8) 0.07394(5)
O5 O 0.86492(9) 0.71842(7) 0.05919(4)
O6 O 1.0000 0.04020(10) 0.2500
O7 O 0.84061(9) 0.16951(7) 0.45994(5)
O8 O 0.98323(10) 0.22475(9) 0.46015(5)
C1 C 0.84676(13) 0.39116(10) 0.43284(6)
C2 C 0.81818(12) 0.45051(10) 0.39171(6)
C3 C 0.73117(14) 0.44626(12) 0.36487(7)
H1 H 0.6899 0.4056 0.3717
C4 C 0.70562(15) 0.50255(13) 0.32778(8)
H2 H 0.6479 0.4991 0.3093
C5 C 0.76620(15) 0.56350(12) 0.31856(7)
C6 C 0.85237(15) 0.56877(12) 0.34488(8)
H3 H 0.8929 0.6101 0.3384
C7 C 0.87806(14) 0.51190(11) 0.38109(7)
H4 H 0.9367 0.5149 0.3987
C8 C 0.77672(13) 0.62959(11) 0.23705(7)
C9 C 0.83397(15) 0.57255(12) 0.21731(7)
H5 H 0.8492 0.5276 0.2364
C10 C 0.86827(14) 0.58336(12) 0.16858(7)
H6 H 0.9070 0.5452 0.1551
C11 C 0.84612(12) 0.64991(10) 0.13947(6)
C12 C 0.78788(13) 0.70631(11) 0.15986(7)
H7 H 0.7716 0.7509 0.1406
C13 C 0.75398(14) 0.69641(11) 0.20879(7)
H8 H 0.7159 0.7347 0.2226
C14 C 0.88665(12) 0.65977(10) 0.08780(7)
C15 C 0.97745(12) 0.08081(10) 0.29454(6)
C16 C 0.91320(14) 0.04472(10) 0.32477(7)
H9 H 0.8833 -0.0012 0.3135
C17 C 0.89338(14) 0.07740(11) 0.37218(7)
H10 H 0.8500 0.0531 0.3927
C18 C 0.93730(12) 0.14548(10) 0.38924(6)
C19 C 0.99995(13) 0.18154(11) 0.35741(7)
H11 H 1.0291 0.2280 0.3683
C20 C 1.02007(13) 0.15001(11) 0.30994(7)
H12 H 1.0617 0.1751 0.2888
C21 C 0.91819(13) 0.18253(10) 0.44060(7)
C22 C 1.22944(17) 0.48983(14) 0.47801(10)
H13 H 1.2347 0.5370 0.4602
C23 C 1.30502(19) 0.45839(18) 0.50530(12)
H14 H 1.3630 0.4837 0.5059
C24 C 1.29492(15) 0.38947(17) 0.53171(10)
H15 H 1.3462 0.3673 0.5501
C25 C 1.20737(13) 0.35257(12) 0.53094(8)
C26 C 1.14516(15) 0.44995(12) 0.47742(8)
H16 H 1.0940 0.4707 0.4581
C27 C 1.18844(15) 0.28084(12) 0.56079(8)
C28 C 1.2586(2) 0.24007(18) 0.58839(13)
H17 H 1.3209 0.2563 0.5878
C29 C 1.2353(3) 0.1760(2) 0.61641(16)
H18 H 1.2815 0.1486 0.6357
C30 C 1.1436(4) 0.1520(2) 0.61608(15)
H19 H 1.1266 0.1086 0.6354
C31 C 1.0760(2) 0.19355(15) 0.58631(11)
H20 H 1.0138 0.1766 0.5852
Mn1F Mn 0.507840(18) 0.177130(15) 0.492180(10)
Mn1E Mn 0.992160(18) 0.677130(15) 0.007820(10)
Mn1A Mn 1.007840(18) 0.322870(15) -0.007820(10)
Mn1C Mn 0.507840(18) -0.177130(15) 0.992180(10)
Mn2C Mn 0.7500 0.7500 0.0000
Mn2A Mn 1.2500 0.2500 0.0000
Mn2C_2 Mn 0.7500 -0.2500 1.0000
N1F N 0.36665(10) 0.11724(9) 0.49668(6)
N2F N 0.40158(13) 0.24315(9) 0.44053(7)
O1F O 0.71279(9) 0.15670(7) 0.55308(5)
O2F O 0.56897(10) 0.10490(9) 0.54965(5)
O3F O 0.76405(11) -0.12295(9) 0.71580(5)
O4F O 0.55417(10) -0.11043(8) 0.92606(5)
O4E O 0.94583(10) 0.38957(8) 0.57394(5)
O4C O 0.55417(10) 0.11043(8) 0.42606(5)
O5F O 0.63508(9) -0.21842(7) 0.94081(4)
O5E O 0.86492(9) 0.28158(7) 0.55919(4)
O5C O 0.63508(9) 0.21842(7) 0.44081(4)
O7A O 1.15939(9) 0.16951(7) 0.04006(5)
O7F O 0.65939(9) 0.33049(7) 0.54006(5)
O8A O 1.01677(10) 0.22475(9) 0.03985(5)
O8F O 0.51677(10) 0.27525(9) 0.53985(5)
C1F C 0.65324(13) 0.10884(10) 0.56716(6)
C2F C 0.68182(12) 0.04949(10) 0.60829(6)
C3F C 0.76883(14) 0.05374(12) 0.63513(7)
H1F H 0.8101 0.0944 0.6283
C4F C 0.79438(15) -0.00255(13) 0.67222(8)
H2F H 0.8521 0.0009 0.6907
C5F C 0.73380(15) -0.06350(12) 0.68144(7)
C6F C 0.64763(15) -0.06877(12) 0.65512(8)
H3F H 0.6071 -0.1101 0.6616
C7F C 0.62194(14) -0.01190(11) 0.61891(7)
H4F H 0.5633 -0.0149 0.6013
C8F C 0.72328(13) -0.12959(11) 0.76295(7)
C9F C 0.66603(15) -0.07255(12) 0.78269(7)
H5F H 0.6508 -0.0276 0.7636
C10F C 0.63173(14) -0.08336(12) 0.83142(7)
H6F H 0.5930 -0.0452 0.8449
C11F C 0.65388(12) -0.14991(10) 0.86053(6)
C12F C 0.71212(13) -0.20631(11) 0.84014(7)
H7F H 0.7284 -0.2509 0.8594
C13F C 0.74602(14) -0.19641(11) 0.79121(7)
H8F H 0.7841 -0.2347 0.7774
C14F C 0.61335(12) -0.15977(10) 0.91220(7)
C15A C 1.02255(12) 0.08081(10) 0.20546(6)
C16A C 1.08680(14) 0.04472(10) 0.17523(7)
H9A H 1.1167 -0.0012 0.1865
C17A C 1.10662(14) 0.07740(11) 0.12782(7)
H10A H 1.1500 0.0531 0.1073
C18A C 1.06270(12) 0.14548(10) 0.11076(6)
C19A C 1.00005(13) 0.18154(11) 0.14259(7)
H11A H 0.9709 0.2280 0.1317
C20A C 0.97993(13) 0.15001(11) 0.19006(7)
H12A H 0.9383 0.1751 0.2112
C21A C 1.08181(13) 0.18253(10) 0.05940(7)
C22F C 0.27056(17) 0.01017(14) 0.52199(10)
H13F H 0.2653 -0.0370 0.5398
C23F C 0.19498(19) 0.04161(18) 0.49470(12)
H14F H 0.1370 0.0163 0.4941
C24F C 0.20508(15) 0.11053(17) 0.46829(10)
H15F H 0.1538 0.1327 0.4499
C25F C 0.29263(13) 0.14743(12) 0.46906(8)
C26F C 0.35484(15) 0.05005(12) 0.52258(8)
H16F H 0.4060 0.0293 0.5419
C27F C 0.31156(15) 0.21916(12) 0.43921(8)
C28F C 0.2414(2) 0.25993(18) 0.41161(13)
H17F H 0.1791 0.2437 0.4122
C29F C 0.2647(3) 0.3240(2) 0.38359(16)
H18F H 0.2185 0.3514 0.3643
C30F C 0.3564(4) 0.3480(2) 0.38392(15)
H19F H 0.3734 0.3914 0.3646
C31F C 0.4240(2) 0.30645(15) 0.41369(11)
H20F H 0.4862 0.3234 0.4148
loop_
_geom_bond_atom_site_label_1
_geom_bond_atom_site_label_2
_geom_bond_site_symmetry_1
_geom_bond_site_symmetry_2
Mn1 N1 1_555 1_555
Mn2 O1 1_555 1_555
N1 C25 1_555 1_555
N2 Mn1 1_555 1_555
O1 C1 1_555 1_555
O2 Mn1 1_555 1_555
O3 C5 1_555 1_555
O4 C14 1_555 1_555
O5 C14 1_555 1_555
O6 C15 1_555 1_555
O7 Mn2 1_555 1_555
O8 Mn1 1_555 1_555
C1 O2 1_555 1_555
C2 C1 1_555 1_555
C3 C2 1_555 1_555
H1 C3 1_555 1_555
C4 C3 1_555 1_555
H2 C4 1_555 1_555
C5 C4 1_555 1_555
C6 C5 1_555 1_555
H3 C6 1_555 1_555
C7 C2 1_555 1_555
H4 C7 1_555 1_555
C8 O3 1_555 1_555
C9 C8 1_555 1_555
H5 C9 1_555 1_555
C10 C9 1_555 1_555
H6 C10 1_555 1_555
C11 C10 1_555 1_555
C12 C11 1_555 1_555
H7 C12 1_555 1_555
C13 C8 1_555 1_555
H8 C13 1_555 1_555
C14 C11 1_555 1_555
C15 C16 1_555 1_555
C16 H9 1_555 1_555
C17 C16 1_555 1_555
H10 C17 1_555 1_555
C18 C17 1_555 1_555
C19 C18 1_555 1_555
H11 C19 1_555 1_555
C20 C15 1_555 1_555
H12 C20 1_555 1_555
C21 O7 1_555 1_555
C22 H13 1_555 1_555
C23 C22 1_555 1_555
H14 C23 1_555 1_555
C24 C23 1_555 1_555
H15 C24 1_555 1_555
C25 C24 1_555 1_555
C26 N1 1_555 1_555
H16 C26 1_555 1_555
C27 N2 1_555 1_555
C28 C27 1_555 1_555
H17 C28 1_555 1_555
C29 C28 1_555 1_555
H18 C29 1_555 1_555
C30 C29 1_555 1_555
H19 C30 1_555 1_555
C31 N2 1_555 1_555
H20 C31 1_555 1_555
Mn1F N1F 1_555 1_555
Mn1E O4 1_555 1_555
Mn1A O8A 1_555 1_555
Mn1C O4F 1_555 1_555
Mn2C O5 1_555 1_555
Mn2A O7A 1_555 1_555
Mn2C_2 O5F 1_555 1_555
N1F C25F 1_555 1_555
N2F Mn1F 1_555 1_555
O1F Mn2 1_555 1_555
O2F Mn1F 1_555 1_555
O3F C5F 1_555 1_555
O4F C14F 1_555 1_555
O4E Mn1 1_555 1_555
O4C Mn1F 1_555 1_555
O5F Mn1C 1_555 1_555
O5E Mn1 1_555 1_555
O5C Mn2 1_555 1_555
O7A C21A 1_555 1_555
O7F Mn2 1_555 1_555
O8A C21A 1_555 1_555
O8F Mn1F 1_555 1_555
C1F O1F 1_555 1_555
C2F C1F 1_555 1_555
C3F C2F 1_555 1_555
H1F C3F 1_555 1_555
C4F C3F 1_555 1_555
H2F C4F 1_555 1_555
C5F C4F 1_555 1_555
C6F C5F 1_555 1_555
H3F C6F 1_555 1_555
C7F C2F 1_555 1_555
H4F C7F 1_555 1_555
C8F O3F 1_555 1_555
C9F C8F 1_555 1_555
H5F C9F 1_555 1_555
C10F C9F 1_555 1_555
H6F C10F 1_555 1_555
C11F C10F 1_555 1_555
C12F C11F 1_555 1_555
H7F C12F 1_555 1_555
C13F C8F 1_555 1_555
H8F C13F 1_555 1_555
C14F O5F 1_555 1_555
C15A O6 1_555 1_555
C16A C15A 1_555 1_555
H9A C16A 1_555 1_555
C17A C16A 1_555 1_555
H10A C17A 1_555 1_555
C18A C17A 1_555 1_555
C19A C18A 1_555 1_555
H11A C19A 1_555 1_555
C20A C15A 1_555 1_555
H12A C20A 1_555 1_555
C21A C18A 1_555 1_555
C22F H13F 1_555 1_555
C23F C22F 1_555 1_555
H14F C23F 1_555 1_555
C24F C23F 1_555 1_555
H15F C24F 1_555 1_555
C25F C24F 1_555 1_555
C26F N1F 1_555 1_555
H16F C26F 1_555 1_555
C27F N2F 1_555 1_555
C28F C27F 1_555 1_555
H17F C28F 1_555 1_555
C29F C28F 1_555 1_555
H18F C29F 1_555 1_555
C30F C29F 1_555 1_555
H19F C30F 1_555 1_555
C31F N2F 1_555 1_555
H20F C31F 1_555 1_555
Mn2 O5E 1_555 1_555
O5 Mn1E 1_555 1_555
O8 C21 1_555 1_555
C6 C7 1_555 1_555
C12 C13 1_555 1_555
C18 C21 1_555 1_555
C19 C20 1_555 1_555
C22 C26 1_555 1_555
C25 C27 1_555 1_555
C30 C31 1_555 1_555
Mn1F O5C 1_555 1_555
O2F C1F 1_555 1_555
C6F C7F 1_555 1_555
C11F C14F 1_555 1_555
C12F C13F 1_555 1_555
C19A C20A 1_555 1_555
C22F C26F 1_555 1_555
C25F C27F 1_555 1_555
C30F C31F 1_555 1_555

#END
