
#######################################################################
#
#                 Cambridge Crystallographic Data Centre
#                                CCDC 
#
#######################################################################
#
# If this CIF has been generated from an entry in the Cambridge 
# Structural Database, then it will include bibliographic, chemical, 
# crystal, experimental, refinement or atomic coordinate data resulting 
# from the CCDC's data processing and validation procedures.
#
#######################################################################

data_QEBGEL
_chemical_formula_moiety         '(C60 H34 Co2 N6 O12)n'
_symmetry_cell_setting           triclinic
_symmetry_space_group_name_H-M   'P -1'
_symmetry_Int_Tables_number      2
_space_group_name_Hall           '-P 1'
loop_
_symmetry_equiv_pos_site_id
_symmetry_equiv_pos_as_xyz
1 x,y,z
2 -x,-y,-z
_cell_length_a                   10.090(2)
_cell_length_b                   16.362(3)
_cell_length_c                   24.453(5)
_cell_angle_alpha                106.75(3)
_cell_angle_beta                 92.97(3)
_cell_angle_gamma                103.16(3)
_cell_volume                     3734.23
loop_
_atom_site_label
_atom_site_type_symbol
_atom_site_fract_x
_atom_site_fract_y
_atom_site_fract_z
Co1 Co 0.40128(5) 0.84431(3) -0.03782(2)
Co2 Co 0.95896(6) 0.34862(3) 0.45946(2)
O1 O 0.5679(2) 0.91042(18) -0.06041(11)
O2 O 0.6399(3) 0.81011(19) -0.03231(13)
O3 O 1.2749(3) 0.90682(16) -0.06209(11)
O4 O 1.1424(3) 0.81869(17) -0.02239(11)
O5 O 0.8377(3) 0.41718(19) 0.43946(12)
O6 O 0.7047(3) 0.3337(2) 0.48118(13)
O7 O 0.1992(3) 0.30701(19) 0.46008(13)
O8 O 0.1265(3) 0.40946(18) 0.43503(12)
N1 N 1.1146(3) 1.4394(2) -0.24633(13)
N2 N 1.3339(3) 1.7154(2) -0.08824(14)
N3 N 0.6311(3) 0.9449(2) 0.25225(13)
N4 N 0.4337(3) 0.85405(19) 0.04664(13)
N5 N 0.8804(4) 1.2208(2) 0.40722(14)
N6 N 0.9854(3) 1.3514(2) -0.45658(13)
C1 C 0.6626(3) 0.8739(2) -0.05062(16)
C2 C 0.8032(3) 0.9108(2) -0.06358(15)
C3 C 0.8270(4) 0.9776(2) -0.09004(16)
H1 H 0.7547 1.0001 -0.0988
C4 C 0.9562(4) 1.0107(2) -0.10337(16)
C5 C 1.0640(4) 0.9765(2) -0.08954(15)
H2 H 1.1512 0.9978 -0.0983
C6 C 1.0423(3) 0.9108(2) -0.06291(15)
C7 C 0.9121(3) 0.8785(2) -0.04954(15)
H3 H 0.8980 0.8353 -0.0312
C8 C 1.1583(3) 0.8756(2) -0.04713(15)
C9 C 0.9810(4) 1.0815(3) -0.13118(17)
C10 C 1.0322(4) 1.2179(3) -0.18107(17)
C11 C 1.0584(5) 1.0763(3) -0.1781(2)
H4 H 1.0921 1.0270 -0.1926
C12 C 1.0848(5) 1.1444(3) -0.2028(2)
H5 H 1.1367 1.1410 -0.2333
C13 C 0.9523(6) 1.2204(4) -0.1370(2)
H6 H 0.9148 1.2682 -0.1232
C14 C 0.9274(6) 1.1524(4) -0.1132(2)
H7 H 0.8722 1.1552 -0.0837
C15 C 1.0629(4) 1.2934(2) -0.20519(17)
C16 C 1.1305(4) 1.3765(3) -0.16913(17)
C17 C 1.1531(4) 1.4491(3) -0.19146(16)
C18 C 1.0517(4) 1.3579(2) -0.28193(16)
C19 C 1.0223(4) 1.2840(3) -0.26251(17)
C20 C 1.2185(4) 1.5401(3) -0.15490(17)
C21 C 1.3239(6) 1.5630(4) -0.1091(2)
H8 H 1.3573 1.5195 -0.0998
C22 C 1.3761(5) 1.6491(3) -0.0787(2)
H9 H 1.4467 1.6627 -0.0490
C23 C 1.2353(6) 1.6947(4) -0.1325(2)
H10 H 1.2059 1.7403 -0.1408
C24 C 1.1751(6) 1.6093(4) -0.1665(2)
H11 H 1.1065 1.5979 -0.1966
C25 C 1.0208(4) 1.3533(2) -0.34235(16)
C26 C 0.9819(5) 1.4188(3) -0.35807(18)
H12 H 0.9672 1.4668 -0.3299
C27 C 0.9642(5) 1.4149(3) -0.41455(18)
H13 H 0.9353 1.4601 -0.4235
C28 C 1.0361(5) 1.2893(3) -0.4419(2)
H14 H 1.0615 1.2465 -0.4706
C29 C 1.0511(5) 1.2876(3) -0.3859(2)
H15 H 1.0814 1.2424 -0.3775
C30 C 0.9232(8) 1.1993(4) -0.2988(3)
O9 O 0.7870(7) 1.1947(4) -0.3013(3)
H16 H 0.7439 1.1467 -0.3233
O10 O 0.9708(6) 1.1365(4) -0.3268(3)
C31 C 0.2223(4) 0.3729(3) 0.44377(17)
C32 C 0.3619(4) 0.4133(2) 0.43301(16)
C33 C 0.4739(4) 0.3842(2) 0.44823(16)
H17 H 0.4611 0.3401 0.4658
C34 C 0.6037(4) 0.4204(2) 0.43742(16)
C35 C 0.6216(4) 0.4858(3) 0.41021(16)
H18 H 0.7083 0.5087 0.4017
C36 C 0.5116(4) 0.5174(2) 0.39553(16)
C37 C 0.3827(4) 0.4801(3) 0.40731(16)
H19 H 0.3083 0.5002 0.3978
C38 C 0.7215(5) 0.3884(3) 0.45429(17)
C39 C 0.5297(4) 0.5896(3) 0.36952(17)
C40 C 0.4699(5) 0.6591(3) 0.39032(19)
H20 H 0.4178 0.6601 0.4207
C41 C 0.4874(5) 0.7280(3) 0.36582(19)
H21 H 0.4479 0.7746 0.3803
C42 C 0.5644(4) 0.7267(3) 0.31962(17)
C43 C 0.6179(4) 0.6551(3) 0.29734(17)
H22 H 0.6641 0.6518 0.2651
C44 C 0.6037(4) 0.5884(3) 0.32227(17)
H23 H 0.6436 0.5420 0.3076
C45 C 0.5864(4) 0.8019(3) 0.29572(17)
C46 C 0.5408(4) 0.7904(3) 0.23893(17)
C47 C 0.5625(4) 0.8637(3) 0.21897(16)
C48 C 0.6758(4) 0.9559(3) 0.30711(17)
C49 C 0.6569(5) 0.8859(3) 0.32993(18)
C50 C 0.5130(4) 0.8589(2) 0.15958(16)
C51 C 0.4098(5) 0.7909(3) 0.1239(2)
H24 H 0.3650 0.7452 0.1370
C52 C 0.3728(5) 0.7907(3) 0.06829(19)
H25 H 0.3026 0.7444 0.0450
C53 C 0.5260(4) 0.9208(2) 0.08177(17)
H26 H 0.5668 0.9670 0.0683
C54 C 0.5659(5) 0.9262(3) 0.13772(17)
H27 H 0.6298 0.9763 0.1611
C55 C 0.7501(4) 1.0472(3) 0.34152(17)
C56 C 0.7059(7) 1.1173(4) 0.3343(3)
H28 H 0.6322 1.1081 0.3069
C57 C 0.7731(7) 1.2021(4) 0.3686(3)
H29 H 0.7402 1.2487 0.3639
C58 C 0.9344(7) 1.1538(4) 0.4089(3)
H30 H 1.0161 1.1665 0.4327
C59 C 0.8762(7) 1.0681(5) 0.3777(3)
H31 H 0.9182 1.0239 0.3799
O11 O 0.3018(8) 0.6680(5) 0.2154(4)
H32 H 0.2762 0.6144 0.2004
O12 O 0.5020(8) 0.6495(5) 0.1659(3)
C60 C 0.4500(10) 0.7007(6) 0.2057(4)
Co1_2 Co 1.40128(5) 0.84431(3) -0.03782(2)
Co1_3 Co 1.40128(5) 1.84431(3) -0.03782(2)
Co2_2 Co -0.04104(6) 0.34862(3) 0.45946(2)
Co2_3 Co 0.95896(6) 1.34862(3) 0.45946(2)
Co2_4 Co 0.95896(6) 1.34862(3) -0.54054(2)
O3_2 O 0.2749(3) 0.90682(16) -0.06209(11)
O8_2 O 1.1265(3) 0.40946(18) 0.43503(12)
N2_2 N 0.3339(3) 0.7154(2) -0.08824(14)
N5_2 N 0.8804(4) 0.2208(2) 0.40722(14)
N6_2 N 0.9854(3) 0.3514(2) 0.54342(13)
loop_
_geom_bond_atom_site_label_1
_geom_bond_atom_site_label_2
_geom_bond_site_symmetry_1
_geom_bond_site_symmetry_2
Co1 O1 1_555 1_555
Co2 O5 1_555 1_555
O1 C1 1_555 1_555
O2 C1 1_555 1_555
O3 C8 1_555 1_555
O4 C8 1_555 1_555
O5 C38 1_555 1_555
O6 C38 1_555 1_555
O7 C31 1_555 1_555
O8 C31 1_555 1_555
N1 C17 1_555 1_555
N2 C22 1_555 1_555
N3 C47 1_555 1_555
N4 Co1 1_555 1_555
N5 C57 1_555 1_555
N6 C27 1_555 1_555
C1 C2 1_555 1_555
C2 C3 1_555 1_555
C3 H1 1_555 1_555
C4 C3 1_555 1_555
C5 C4 1_555 1_555
H2 C5 1_555 1_555
C6 C5 1_555 1_555
C7 C2 1_555 1_555
H3 C7 1_555 1_555
C8 C6 1_555 1_555
C9 C4 1_555 1_555
C10 C12 1_555 1_555
C11 C9 1_555 1_555
H4 C11 1_555 1_555
C12 C11 1_555 1_555
H5 C12 1_555 1_555
C13 C10 1_555 1_555
H6 C13 1_555 1_555
C14 C9 1_555 1_555
H7 C14 1_555 1_555
C15 C10 1_555 1_555
C16 C15 1_555 1_555
C17 C16 1_555 1_555
C18 N1 1_555 1_555
C19 C15 1_555 1_555
C20 C17 1_555 1_555
C21 C20 1_555 1_555
H8 C21 1_555 1_555
C22 C21 1_555 1_555
H9 C22 1_555 1_555
C23 N2 1_555 1_555
H10 C23 1_555 1_555
C24 C20 1_555 1_555
H11 C24 1_555 1_555
C25 C18 1_555 1_555
C26 C25 1_555 1_555
H12 C26 1_555 1_555
C27 C26 1_555 1_555
H13 C27 1_555 1_555
C28 N6 1_555 1_555
H14 C28 1_555 1_555
C29 C25 1_555 1_555
H15 C29 1_555 1_555
C30 C19 1_555 1_555
O9 C30 1_555 1_555
H16 O9 1_555 1_555
O10 C30 1_555 1_555
C31 C32 1_555 1_555
C32 C33 1_555 1_555
C33 H17 1_555 1_555
C34 C33 1_555 1_555
C35 C34 1_555 1_555
H18 C35 1_555 1_555
C36 C35 1_555 1_555
C37 C32 1_555 1_555
H19 C37 1_555 1_555
C38 C34 1_555 1_555
C39 C36 1_555 1_555
C40 C39 1_555 1_555
H20 C40 1_555 1_555
C41 C40 1_555 1_555
H21 C41 1_555 1_555
C42 C41 1_555 1_555
C43 C42 1_555 1_555
H22 C43 1_555 1_555
C44 C39 1_555 1_555
H23 C44 1_555 1_555
C45 C42 1_555 1_555
C46 C45 1_555 1_555
C47 C46 1_555 1_555
C48 N3 1_555 1_555
C49 C45 1_555 1_555
C50 C47 1_555 1_555
C51 C50 1_555 1_555
H24 C51 1_555 1_555
C52 N4 1_555 1_555
H25 C52 1_555 1_555
C53 N4 1_555 1_555
H26 C53 1_555 1_555
C54 C50 1_555 1_555
H27 C54 1_555 1_555
C55 C48 1_555 1_555
C56 C55 1_555 1_555
H28 C56 1_555 1_555
C57 C56 1_555 1_555
H29 C57 1_555 1_555
C58 N5 1_555 1_555
H30 C58 1_555 1_555
C59 C55 1_555 1_555
H31 C59 1_555 1_555
O11 H32 1_555 1_555
O12 C60 1_555 1_555
C60 C46 1_555 1_555
Co1_2 O3 1_555 1_555
Co1_3 N2 1_555 1_555
Co2_2 O8 1_555 1_555
Co2_3 N5 1_555 1_555
Co2_4 N6 1_555 1_555
O3_2 Co1 1_555 1_555
O8_2 Co2 1_555 1_555
N2_2 Co1 1_555 1_555
N5_2 Co2 1_555 1_555
N6_2 Co2 1_555 1_555
C6 C7 1_555 1_555
C13 C14 1_555 1_555
C18 C19 1_555 1_555
C23 C24 1_555 1_555
C28 C29 1_555 1_555
C36 C37 1_555 1_555
C43 C44 1_555 1_555
C48 C49 1_555 1_555
C51 C52 1_555 1_555
C53 C54 1_555 1_555
C58 C59 1_555 1_555
O11 C60 1_555 1_555

#END
