
#######################################################################
#
#                 Cambridge Crystallographic Data Centre
#                                CCDC 
#
#######################################################################
#
# If this CIF has been generated from an entry in the Cambridge 
# Structural Database, then it will include bibliographic, chemical, 
# crystal, experimental, refinement or atomic coordinate data resulting 
# from the CCDC's data processing and validation procedures.
#
#######################################################################

data_IKUBUL01
_chemical_formula_moiety         '(C12 H44 N4 O24 P8 Zn6)n'
_symmetry_cell_setting           monoclinic
_symmetry_space_group_name_H-M   'P 21/n'
_symmetry_Int_Tables_number      14
_space_group_name_Hall           '-P 2yn'
loop_
_symmetry_equiv_pos_site_id
_symmetry_equiv_pos_as_xyz
1 x,y,z
2 1/2-x,1/2+y,1/2-z
3 -x,-y,-z
4 1/2+x,1/2-y,1/2+z
_cell_length_a                   8.7627(1)
_cell_length_b                   13.8117(2)
_cell_length_c                   16.6187(3)
_cell_angle_alpha                90
_cell_angle_beta                 92.680(1)
_cell_angle_gamma                90
_cell_volume                     2009.12
loop_
_atom_site_label
_atom_site_type_symbol
_atom_site_fract_x
_atom_site_fract_y
_atom_site_fract_z
Zn1 Zn 0.43729(13) 0.39910(8) 1.07522(7)
Zn2 Zn 0.54837(13) 0.10993(8) 1.07748(7)
Zn3 Zn 0.52121(13) 0.24936(8) 0.74927(7)
P1 P 0.5150(3) 0.38328(17) 0.89473(14)
H1 H 0.6114 0.3146 0.9189
P2 P 0.5098(3) 0.10673(18) 0.88955(15)
H2 H 0.4016 0.1704 0.9030
P3 P 0.7552(3) 0.28658(19) 1.12036(16)
H3 H 0.8271 0.2698 1.0537
P4 P 0.2348(3) 0.22513(19) 1.11389(16)
H4 H 0.1208 0.2414 1.0609
O1 O 0.4019(8) 0.3963(5) 0.9601(4)
O2 O 0.4320(8) 0.3479(5) 0.8178(4)
O3 O 0.6087(8) 0.4739(5) 0.8793(4)
O4 O 0.6033(8) 0.1472(5) 0.8216(4)
O5 O 0.6075(8) 0.0973(5) 0.9667(4)
O6 O 0.4305(10) 0.0121(5) 0.8643(5)
O7 O 0.6821(9) 0.1918(5) 1.1437(5)
O8 O 0.6468(9) 0.3706(6) 1.1022(6)
O9 O 0.8755(10) 0.3204(6) 1.1831(5)
O10 O 0.2998(10) 0.3232(5) 1.1371(4)
O11 O 0.1644(9) 0.1775(5) 1.1872(4)
O12 O 0.3428(9) 0.1558(7) 1.0738(5)
Zn1B Zn 0.56271(13) 0.60090(8) 0.92478(7)
Zn1C Zn -0.06271(13) 0.10090(8) 0.57522(7)
Zn1C_2 Zn 0.93729(13) 0.10090(8) 0.57522(7)
Zn2B Zn 0.45163(13) -0.10993(8) 0.92252(7)
Zn2C Zn 0.04837(13) 0.39007(8) 0.57748(7)
Zn2C_2 Zn 1.04837(13) 0.39007(8) 0.57748(7)
Zn3B Zn 0.47879(13) 0.75064(8) 1.25073(7)
Zn3C Zn 1.02121(13) 0.25064(8) 1.24927(7)
Zn3C_2 Zn 0.02121(13) 0.25064(8) 1.24927(7)
Zn3B_2 Zn 0.47879(13) -0.24936(8) 1.25073(7)
P1B P 0.4850(3) 0.61672(17) 1.10527(14)
H1B H 0.3886 0.6854 1.0811
P2B P 0.4902(3) -0.10673(18) 1.11045(15)
H2B H 0.5984 -0.1704 1.0970
P3C P 0.2552(3) 0.21342(19) 0.62036(16)
H3C H 0.3271 0.2302 0.5537
P4C P 0.7348(3) 0.27487(19) 0.61389(16)
H4C H 0.6208 0.2586 0.5609
O1B O 0.5981(8) 0.6037(5) 1.0399(4)
O2B O 0.5680(8) 0.6521(5) 1.1822(4)
O3B O 0.3913(8) 0.5261(5) 1.1207(4)
O4B O 0.3967(8) -0.1472(5) 1.1784(4)
O4B_2 O 0.3967(8) 0.8528(5) 1.1784(4)
O5B O 0.3925(8) -0.0973(5) 1.0333(4)
O6B O 0.5695(10) -0.0121(5) 1.1357(5)
O7C O 0.1821(9) 0.3082(5) 0.6437(5)
O7B O 0.3179(9) -0.1918(5) 0.8563(5)
O8C O 0.1468(9) 0.1294(6) 0.6022(6)
O8B O 0.3532(9) 0.6294(6) 0.8978(6)
O9C O 0.3755(10) 0.1796(6) 0.6831(5)
O9A O 0.6245(10) 0.8204(6) 1.3169(5)
O10C O 0.7998(10) 0.1768(5) 0.6371(4)
O10B O 0.7002(10) 0.6768(5) 0.8629(4)
O11C O 0.6644(9) 0.3225(5) 0.6872(4)
O11A O 0.3356(9) 0.6775(5) 1.3128(4)
O12C O 0.8428(9) 0.3442(7) 0.5738(5)
O12B O 0.6572(9) -0.1558(7) 0.9262(5)
C1 C 0.4951(13) 0.5663(9) 0.6844(6)
H5 H 0.4768 0.6284 0.7121
H6 H 0.4110 0.5215 0.6966
C2 C 0.4937(13) 0.5838(8) 0.5934(6)
H7 H 0.3968 0.6162 0.5762
H8 H 0.5785 0.6281 0.5815
C3 C 0.5094(13) 0.4921(8) 0.5447(6)
H9 H 0.6113 0.4635 0.5574
H10 H 0.4317 0.4449 0.5611
N1 N 0.6445(10) 0.5241(6) 0.7161(5)
H11 H 0.6405 0.5137 0.7700
H12 H 0.7216 0.5661 0.7067
H13 H 0.6617 0.4670 0.6908
C1B C 0.5049(13) 0.4337(9) 0.3156(6)
H5B H 0.5232 0.3716 0.2879
H6B H 0.5890 0.4785 0.3034
C2B C 0.5063(13) 0.4162(8) 0.4066(6)
H7B H 0.6032 0.3838 0.4238
H8B H 0.4215 0.3719 0.4185
C3B C 0.4906(13) 0.5079(8) 0.4553(6)
H9B H 0.3887 0.5365 0.4426
H10B H 0.5683 0.5551 0.4389
N1B N 0.3555(10) 0.4759(6) 0.2839(5)
H11B H 0.3595 0.4863 0.2300
H12B H 0.2784 0.4339 0.2933
H13B H 0.3383 0.5330 0.3092
C4 C 0.4930(14) -0.0742(11) 0.6765(8)
H14 H 0.5169 -0.1349 0.7061
H15 H 0.5756 -0.0273 0.6900
C5 C 0.4892(13) -0.0944(9) 0.5874(7)
H16 H 0.3976 -0.1329 0.5712
H17 H 0.5812 -0.1311 0.5732
C6 C 0.4847(18) 0.0058(12) 0.5437(10)
H18 H 0.3831 0.0359 0.5490
H19 H 0.5624 0.0493 0.5695
N2 N 0.3452(10) -0.0346(6) 0.7035(5)
H22 H 0.3528 -0.0233 0.7575
H23 H 0.2691 -0.0781 0.6923
H24 H 0.3235 0.0219 0.6771
C4B C 0.5070(14) 0.0742(11) 0.3235(8)
H14B H 0.4831 0.1349 0.2939
H15B H 0.4244 0.0273 0.3100
C5B C 0.5108(13) 0.0944(9) 0.4126(7)
H16B H 0.6024 0.1329 0.4288
H17B H 0.4188 0.1311 0.4268
C6B C 0.5153(18) -0.0058(12) 0.4563(10)
H18B H 0.6169 -0.0359 0.4510
H19B H 0.4376 -0.0493 0.4305
N2B N 0.6548(10) 0.0346(6) 0.2965(5)
H22B H 0.6472 0.0233 0.2425
H23B H 0.7309 0.0781 0.3077
H24B H 0.6765 -0.0219 0.3229
loop_
_geom_bond_atom_site_label_1
_geom_bond_atom_site_label_2
_geom_bond_site_symmetry_1
_geom_bond_site_symmetry_2
Zn1 O1 1_555 1_555
Zn2 O5 1_555 1_555
Zn3 O2 1_555 1_555
P1 H1 1_555 1_555
P2 H2 1_555 1_555
P3 H3 1_555 1_555
P4 H4 1_555 1_555
O1 P1 1_555 1_555
O2 P1 1_555 1_555
O3 P1 1_555 1_555
O4 Zn3 1_555 1_555
O5 P2 1_555 1_555
O6 P2 1_555 1_555
O7 Zn2 1_555 1_555
O8 Zn1 1_555 1_555
O9 P3 1_555 1_555
O10 Zn1 1_555 1_555
O11 P4 1_555 1_555
O12 Zn2 1_555 1_555
C1 H5 1_555 1_555
H6 C1 1_555 1_555
C2 C1 1_555 1_555
H7 C2 1_555 1_555
H8 C2 1_555 1_555
C3 C2 1_555 1_555
H9 C3 1_555 1_555
H10 C3 1_555 1_555
N1 C1 1_555 1_555
H11 N1 1_555 1_555
H12 N1 1_555 1_555
H13 N1 1_555 1_555
C4 H14 1_555 1_555
H15 C4 1_555 1_555
C5 C4 1_555 1_555
H16 C5 1_555 1_555
H17 C5 1_555 1_555
C6 C5 1_555 1_555
H18 C6 1_555 1_555
H19 C6 1_555 1_555
N2 C4 1_555 1_555
H22 N2 1_555 1_555
H23 N2 1_555 1_555
H24 N2 1_555 1_555
Zn1B O3 1_555 1_555
Zn1C O8C 1_555 1_555
Zn1C_2 O10C 1_555 1_555
Zn2B O6 1_555 1_555
Zn2C O7C 1_555 1_555
Zn2C_2 O12C 1_555 1_555
Zn3B O2B 1_555 1_555
Zn3C O9 1_555 1_555
Zn3C_2 O11 1_555 1_555
Zn3B_2 O4B 1_555 1_555
P1B H1B 1_555 1_555
P2B H2B 1_555 1_555
P3C H3C 1_555 1_555
P4C H4C 1_555 1_555
O1B Zn1B 1_555 1_555
O2B P1B 1_555 1_555
O3B Zn1 1_555 1_555
O4B P2B 1_555 1_555
O4B_2 Zn3B 1_555 1_555
O5B Zn2B 1_555 1_555
O6B Zn2 1_555 1_555
O7C P3C 1_555 1_555
O7B Zn2B 1_555 1_555
O8C P3C 1_555 1_555
O8B Zn1B 1_555 1_555
O9C Zn3 1_555 1_555
O9A Zn3B 1_555 1_555
O10C P4C 1_555 1_555
O10B Zn1B 1_555 1_555
O11C Zn3 1_555 1_555
O11A Zn3B 1_555 1_555
O12C P4C 1_555 1_555
O12B Zn2B 1_555 1_555
C1B H5B 1_555 1_555
H6B C1B 1_555 1_555
C2B C1B 1_555 1_555
H7B C2B 1_555 1_555
H8B C2B 1_555 1_555
C3B C3 1_555 1_555
H9B C3B 1_555 1_555
H10B C3B 1_555 1_555
N1B C1B 1_555 1_555
H11B N1B 1_555 1_555
H12B N1B 1_555 1_555
H13B N1B 1_555 1_555
C4B H14B 1_555 1_555
H15B C4B 1_555 1_555
C5B C4B 1_555 1_555
H16B C5B 1_555 1_555
H17B C5B 1_555 1_555
C6B C6 1_555 1_555
H18B C6B 1_555 1_555
H19B C6B 1_555 1_555
N2B C4B 1_555 1_555
H22B N2B 1_555 1_555
H23B N2B 1_555 1_555
H24B N2B 1_555 1_555
P2 O4 1_555 1_555
P3 O7 1_555 1_555
P3 O8 1_555 1_555
P4 O10 1_555 1_555
P4 O12 1_555 1_555
P1B O1B 1_555 1_555
P1B O3B 1_555 1_555
P2B O5B 1_555 1_555
P2B O6B 1_555 1_555
P3C O9C 1_555 1_555
P4C O11C 1_555 1_555
C2B C3B 1_555 1_555
C5B C6B 1_555 1_555

#END
