
#######################################################################
#
#                 Cambridge Crystallographic Data Centre
#                                CCDC 
#
#######################################################################
#
# If this CIF has been generated from an entry in the Cambridge 
# Structural Database, then it will include bibliographic, chemical, 
# crystal, experimental, refinement or atomic coordinate data resulting 
# from the CCDC's data processing and validation procedures.
#
#######################################################################

data_LEZMIN
_chemical_formula_moiety         '(C5 H20 N2 O12 P4 Zn3)n'
_symmetry_cell_setting           orthorhombic
_symmetry_space_group_name_H-M   'P c c n'
_symmetry_Int_Tables_number      56
_space_group_name_Hall           '-P 2ab 2ac'
loop_
_symmetry_equiv_pos_site_id
_symmetry_equiv_pos_as_xyz
1 x,y,z
2 1/2-x,1/2-y,z
3 1/2+x,-y,1/2-z
4 -x,1/2+y,1/2-z
5 -x,-y,-z
6 1/2+x,1/2+y,-z
7 1/2-x,y,1/2+z
8 x,1/2-y,1/2+z
_cell_length_a                   9.5364(9)
_cell_length_b                   21.8015(19)
_cell_length_c                   9.1118(7)
_cell_angle_alpha                90
_cell_angle_beta                 90
_cell_angle_gamma                90
_cell_volume                     1894.41
loop_
_atom_site_label
_atom_site_type_symbol
_atom_site_fract_x
_atom_site_fract_y
_atom_site_fract_z
Zn1 Zn 0.2500 0.7500 0.45377(8)
Zn2 Zn 0.56770(5) 0.54838(2) 0.78034(5)
P1 P 0.37981(13) 0.66436(5) 0.71081(12)
H1 H 0.2774 0.6273 0.7514
P2 P 0.29327(12) 0.50047(5) 0.94401(13)
H2 H 0.3099 0.5524 1.0165
O1 O 0.3466(4) 0.68561(18) 0.5563(4)
O2 O 0.3873(4) 0.71441(17) 0.8220(5)
O3 O 0.5121(4) 0.62592(14) 0.7022(4)
O4 O 0.4134(3) 0.49568(14) 0.8354(4)
O5 O 0.1497(3) 0.50284(13) 0.8723(4)
O6 O 0.2997(3) 0.44850(13) 1.0567(3)
Zn1F Zn 0.2500 0.7500 0.95377(8)
Zn2A Zn -0.06770(5) 0.95162(2) 0.78034(5)
Zn2B Zn 0.06770(5) 0.45162(2) 0.71966(5)
Zn2D Zn 0.43230(5) 0.45162(2) 1.21966(5)
Zn2B_2 Zn 1.06770(5) 0.45162(2) 0.71966(5)
Zn2F Zn 0.93230(5) 0.54838(2) 0.28034(5)
P1A P 0.12019(13) 0.83564(5) 0.71081(12)
H1A H 0.2226 0.8727 0.7514
P2B P 0.79327(12) 0.49953(5) 0.55599(13)
H2B H 0.8099 0.4476 0.4835
O1A O 0.1534(4) 0.81439(18) 0.5563(4)
O2A O 0.1127(4) 0.78559(17) 0.8220(5)
O2F O 0.1127(4) 0.71441(17) 0.3220(5)
O2G O 0.3873(4) 0.78559(17) 0.3220(5)
O3A O -0.0121(4) 0.87408(14) 0.7022(4)
O4B O 0.9134(3) 0.50432(14) 0.6646(4)
O4A O 0.0866(3) 1.00432(14) 0.8354(4)
O5B O 0.6497(3) 0.49716(13) 0.6277(4)
O5C O -0.1497(3) 1.00284(13) 0.6277(4)
O6B O 0.7997(3) 0.55150(13) 0.4433(3)
O6D O 0.7003(3) 0.55150(13) 0.9433(3)
O6E O -0.2003(3) 0.94850(13) 0.9433(3)
C1 C 0.5935(5) 0.6557(2) 0.2674(5)
H3 H 0.5135 0.6769 0.2200
H4 H 0.6512 0.6364 0.1899
C2 C 0.6806(5) 0.70134(19) 0.3529(5)
H5 H 0.7544 0.6789 0.4073
H6 H 0.6199 0.7220 0.4258
C3 C 0.7500 0.7500 0.2560(8)
H7 H 0.8199 0.7309 0.1936
N1 N 0.5409(4) 0.60801(16) 0.3713(4)
H8 H 0.4846 0.5813 0.3223
H9 H 0.4912 0.6263 0.4444
H10 H 0.6149 0.5874 0.4105
C1A C 0.9065(5) 0.8443(2) 0.2674(5)
H3A H 0.9865 0.8231 0.2200
H4A H 0.8488 0.8636 0.1899
C2A C 0.8194(5) 0.79866(19) 0.3529(5)
H5A H 0.7456 0.8211 0.4073
H6A H 0.8801 0.7780 0.4258
H7A H 0.6801 0.7691 0.1936
N1A N 0.9591(4) 0.89199(16) 0.3713(4)
H8A H 1.0154 0.9187 0.3223
H9A H 1.0088 0.8737 0.4444
H10A H 0.8851 0.9126 0.4105
loop_
_geom_bond_atom_site_label_1
_geom_bond_atom_site_label_2
_geom_bond_site_symmetry_1
_geom_bond_site_symmetry_2
Zn1 O1 1_555 1_555
Zn2 O3 1_555 1_555
P1 H1 1_555 1_555
P2 H2 1_555 1_555
O1 P1 1_555 1_555
O2 P1 1_555 1_555
O3 P1 1_555 1_555
O4 Zn2 1_555 1_555
O5 P2 1_555 1_555
O6 P2 1_555 1_555
C1 H3 1_555 1_555
H4 C1 1_555 1_555
C2 C1 1_555 1_555
H5 C2 1_555 1_555
H6 C2 1_555 1_555
C3 C2 1_555 1_555
H7 C3 1_555 1_555
N1 C1 1_555 1_555
H8 N1 1_555 1_555
H9 N1 1_555 1_555
H10 N1 1_555 1_555
Zn1F O2 1_555 1_555
Zn2A O3A 1_555 1_555
Zn2B O5 1_555 1_555
Zn2D O6 1_555 1_555
Zn2B_2 O4B 1_555 1_555
Zn2F O6B 1_555 1_555
P1A H1A 1_555 1_555
P2B H2B 1_555 1_555
O1A Zn1 1_555 1_555
O2A Zn1F 1_555 1_555
O2F Zn1 1_555 1_555
O2G Zn1 1_555 1_555
O3A P1A 1_555 1_555
O4B P2B 1_555 1_555
O4A Zn2A 1_555 1_555
O5B Zn2 1_555 1_555
O5C Zn2A 1_555 1_555
O6B P2B 1_555 1_555
O6D Zn2 1_555 1_555
O6E Zn2A 1_555 1_555
C1A H3A 1_555 1_555
H4A C1A 1_555 1_555
C2A C3 1_555 1_555
H5A C2A 1_555 1_555
H6A C2A 1_555 1_555
H7A C3 1_555 1_555
N1A C1A 1_555 1_555
H8A N1A 1_555 1_555
H9A N1A 1_555 1_555
H10A N1A 1_555 1_555
P2 O4 1_555 1_555
P1A O1A 1_555 1_555
P1A O2A 1_555 1_555
P2B O5B 1_555 1_555
C1A C2A 1_555 1_555

#END
