
#######################################################################
#
#                 Cambridge Crystallographic Data Centre
#                                CCDC 
#
#######################################################################
#
# If this CIF has been generated from an entry in the Cambridge 
# Structural Database, then it will include bibliographic, chemical, 
# crystal, experimental, refinement or atomic coordinate data resulting 
# from the CCDC's data processing and validation procedures.
#
#######################################################################

data_IMIDZB13
_chemical_formula_moiety         '(C12 H12 N8 Zn2)n'
_symmetry_cell_setting           hexagonal
_symmetry_space_group_name_H-M   'P 6/m c c'
_symmetry_Int_Tables_number      192
_space_group_name_Hall           '-P 6 2c'
loop_
_symmetry_equiv_pos_site_id
_symmetry_equiv_pos_as_xyz
1 x,y,z
2 -y,x-y,z
3 -x+y,-x,z
4 -x,-y,z
5 y,-x+y,z
6 x-y,x,z
7 y,x,1/2-z
8 x-y,-y,1/2-z
9 -x,-x+y,1/2-z
10 -y,-x,1/2-z
11 -x+y,y,1/2-z
12 x,x-y,1/2-z
13 -x,-y,-z
14 y,-x+y,-z
15 x-y,x,-z
16 x,y,-z
17 -y,x-y,-z
18 -x+y,-x,-z
19 -y,-x,1/2+z
20 -x+y,y,1/2+z
21 x,x-y,1/2+z
22 y,x,1/2+z
23 x-y,-y,1/2+z
24 -x,-x+y,1/2+z
_cell_length_a                   26.4372
_cell_length_b                   26.4372
_cell_length_c                   16.6315
_cell_angle_alpha                90
_cell_angle_beta                 90
_cell_angle_gamma                120
_cell_volume                     10066.8
loop_
_atom_site_label
_atom_site_type_symbol
_atom_site_fract_x
_atom_site_fract_y
_atom_site_fract_z
_atom_site_U_iso_or_equiv
_atom_site_thermal_displace_type
N1 N -0.17784 0.25653 0.72208 0.0000 Uiso
C1 C -0.16678 0.21231 0.73102 0.0000 Uiso
H1 H -0.12969 0.21037 0.70945 0.0000 Uiso
H2 H -0.25659 0.25659 0.75000 0.0000 Uiso
C2 C -0.23337 0.23337 0.75000 0.0000 Uiso
Zn1 Zn -0.12385 0.33453 0.68127 0.0500 Uiso
N2 N -0.15017 0.38750 0.71656 0.0000 Uiso
C3 C -0.20580 0.37499 0.72817 0.0000 Uiso
H3 H -0.24429 0.33670 0.70600 0.0000 Uiso
C4 C -0.11788 0.44106 0.75000 0.0000 Uiso
H4 H -0.07148 0.46426 0.75000 0.0000 Uiso
N3 N -0.04575 0.35876 0.72271 0.0000 Uiso
C5 C -0.02641 0.32075 0.73167 0.0000 Uiso
H5 H -0.04705 0.27679 0.71084 0.0000 Uiso
C6 C 0.00000 0.40990 0.75000 0.0000 Uiso
H6 H 0.00000 0.45028 0.75000 0.0000 Uiso
N4 N -0.12072 0.32711 0.56759 0.0000 Uiso
C7 C -0.10429 0.28938 0.54088 0.0000 Uiso
H7 H -0.09302 0.26327 0.57886 0.0000 Uiso
C8 C -0.13060 0.34967 0.50000 0.0000 Uiso
H8 H -0.14466 0.38190 0.50000 0.0000 Uiso
N1I N -0.25653 0.17784 0.77792 0.0000 Uiso
C1I C -0.21231 0.16678 0.76898 0.0000 Uiso
H1I H -0.21037 0.12969 0.79055 0.0000 Uiso
N2K N -0.15017 0.46233 0.78344 0.0000 Uiso
C3K C -0.20580 0.41921 0.77183 0.0000 Uiso
H3K H -0.24429 0.41901 0.79400 0.0000 Uiso
N3H N 0.04575 0.40451 0.77729 0.0000 Uiso
C5H C 0.02641 0.34716 0.76833 0.0000 Uiso
H5H H 0.04705 0.32384 0.78916 0.0000 Uiso
N4O N -0.12072 0.32711 0.43241 0.0000 Uiso
C7O C -0.10429 0.28938 0.45912 0.0000 Uiso
H7O H -0.09302 0.26327 0.42114 0.0000 Uiso
Zn1H Zn 0.12385 0.45838 0.81873 0.0500 Uiso
N1H N 0.17784 0.43437 0.77792 0.0000 Uiso
Zn1I Zn -0.33453 0.12385 0.81873 0.0500 Uiso
Zn1K Zn -0.12385 0.54162 0.81873 0.0500 Uiso
Zn1O Zn -0.12385 0.33453 0.31873 0.0500 Uiso
N2H N 0.15017 0.53767 0.78344 0.0000 Uiso
N4H N 0.12072 0.44783 0.93241 0.0000 Uiso
loop_
_geom_bond_atom_site_label_1
_geom_bond_atom_site_label_2
_geom_bond_site_symmetry_1
_geom_bond_site_symmetry_2
N1 C1 1_555 1_555
C1 H1 1_555 1_555
H2 C2 1_555 1_555
C2 N1 1_555 1_555
Zn1 N1 1_555 1_555
N2 Zn1 1_555 1_555
C3 N2 1_555 1_555
H3 C3 1_555 1_555
C4 N2 1_555 1_555
H4 C4 1_555 1_555
N3 Zn1 1_555 1_555
C5 N3 1_555 1_555
H5 C5 1_555 1_555
C6 N3 1_555 1_555
H6 C6 1_555 1_555
N4 Zn1 1_555 1_555
C7 N4 1_555 1_555
H7 C7 1_555 1_555
C8 N4 1_555 1_555
H8 C8 1_555 1_555
N1I C2 1_555 1_555
C1I C1 1_555 1_555
H1I C1I 1_555 1_555
N2K C4 1_555 1_555
C3K C3 1_555 1_555
H3K C3K 1_555 1_555
N3H C6 1_555 1_555
C5H C5 1_555 1_555
H5H C5H 1_555 1_555
N4O C8 1_555 1_555
C7O C7 1_555 1_555
H7O C7O 1_555 1_555
Zn1H N3H 1_555 1_555
N1H Zn1H 1_555 1_555
Zn1I N1I 1_555 1_555
Zn1K N2K 1_555 1_555
Zn1O N4O 1_555 1_555
N2H Zn1H 1_555 1_555
N4H Zn1H 1_555 1_555
N1I C1I 1_555 1_555
N2K C3K 1_555 1_555
N3H C5H 1_555 1_555
N4O C7O 1_555 1_555

#END
