
#######################################################################
#
#                 Cambridge Crystallographic Data Centre
#                                CCDC 
#
#######################################################################
#
# If this CIF has been generated from an entry in the Cambridge 
# Structural Database, then it will include bibliographic, chemical, 
# crystal, experimental, refinement or atomic coordinate data resulting 
# from the CCDC's data processing and validation procedures.
#
#######################################################################

data_TEQPAI
_chemical_formula_moiety         '(C39 H39 N3 O16 S6 Zn4)n'
_symmetry_cell_setting           orthorhombic
_symmetry_space_group_name_H-M   'P n a 21'
_symmetry_Int_Tables_number      33
_space_group_name_Hall           'P 2c -2n'
loop_
_symmetry_equiv_pos_site_id
_symmetry_equiv_pos_as_xyz
1 x,y,z
2 -x,-y,1/2+z
3 1/2-x,1/2+y,1/2+z
4 1/2+x,1/2-y,z
_cell_length_a                   18.115(3)
_cell_length_b                   14.489(5)
_cell_length_c                   22.113(4)
_cell_angle_alpha                90
_cell_angle_beta                 90
_cell_angle_gamma                90
_cell_volume                     5803.96
loop_
_atom_site_label
_atom_site_type_symbol
_atom_site_fract_x
_atom_site_fract_y
_atom_site_fract_z
Zn1 Zn 0.67001(7) 0.50783(11) 0.24932(8)
Zn2 Zn 0.74717(9) 0.34432(11) 0.17082(9)
Zn3 Zn 0.76290(9) 0.35934(10) 0.31581(8)
Zn4 Zn 0.84457(8) 0.50488(11) 0.22543(8)
O1 O 0.7525(5) 0.4245(4) 0.2422(5)
O2 O 0.7888(4) 0.6302(5) 0.2227(4)
O3 O 0.6898(5) 0.6309(6) 0.2852(4)
O4 O 0.6097(5) 0.5284(7) 0.1783(5)
O5 O 0.6635(6) 0.4235(8) 0.1211(5)
O6 O 0.8108(5) 0.3603(7) 0.1015(5)
O7 O 0.8274(5) 0.5053(6) 0.1332(4)
O8 O 0.8006(6) 1.2235(6) 0.2253(6)
O9 O 0.7495(6) 1.2265(5) 0.3162(5)
O10 O 1.1506(5) 0.6174(7) -0.1364(5)
O11 O 1.1326(5) 0.4771(6) -0.1807(5)
O12 O 0.4029(5) 0.5382(6) -0.1898(4)
O13 O 0.3223(5) 0.6098(7) -0.1278(5)
O14 O 0.6801(6) 0.2313(8) 0.1571(6)
O15 O 0.9207(6) 0.3855(7) 0.2225(5)
O16 O 0.9411(5) 0.5812(6) 0.2130(5)
S1 S 0.7061(2) 0.8203(3) 0.3285(2)
S2 S 0.4990(2) 0.5811(3) 0.0918(2)
S3 S 0.3994(2) 0.6177(3) -0.0211(2)
S4 S 0.8918(2) 0.3715(3) -0.0123(2)
S5 S 0.7221(3) 1.0366(3) 0.3354(2)
S6 S 1.0112(3) 0.4135(3) -0.1105(2)
C1 C 0.7457(7) 0.6688(8) 0.2570(6)
C2 C 0.7525(7) 0.7726(8) 0.2661(5)
C3 C 0.7916(7) 0.8381(10) 0.2288(7)
C4 C 0.8306(7) 0.8163(9) 0.1749(7)
H1 H 0.8484 0.8721 0.1566
H2 H 0.7981 0.7852 0.1473
H3 H 0.8716 0.7769 0.1844
C5 C 0.6222(8) 0.4870(11) 0.1306(7)
C6 C 0.5784(6) 0.5174(9) 0.0772(7)
C7 C 0.5860(8) 0.4956(10) 0.0154(6)
C8 C 0.5270(7) 0.5336(8) -0.0202(6)
C9 C 0.4769(8) 0.5808(10) 0.0152(7)
C10 C 0.5016(8) 0.5341(10) -0.0821(7)
C11 C 0.4357(8) 0.5743(9) -0.0890(6)
C12 C 0.6455(8) 0.4373(10) -0.0107(7)
H4 H 0.6788 0.4187 0.0208
H5 H 0.6720 0.4720 -0.0407
H6 H 0.6241 0.3836 -0.0292
C13 C 0.5491(7) 0.4940(9) -0.1326(6)
H7 H 0.5939 0.4696 -0.1158
H8 H 0.5609 0.5417 -0.1612
H9 H 0.5225 0.4456 -0.1527
C14 C 0.8354(9) 0.4421(10) 0.0941(7)
C15 C 0.8796(7) 0.4646(9) 0.0383(6)
C16 C 0.9184(7) 0.5415(9) 0.0254(6)
C17 C 0.9221(8) 0.6315(9) 0.0564(6)
H10 H 0.9546 0.6719 0.0346
H11 H 0.9406 0.6229 0.0967
H12 H 0.8737 0.6582 0.0582
C18 C 0.7772(11) 1.1859(10) 0.2692(8)
C19 C 0.7700(7) 1.0866(10) 0.2744(7)
C20 C 0.7959(8) 1.0196(9) 0.2341(8)
C21 C 0.7777(8) 0.9280(9) 0.2532(9)
C22 C 0.7371(9) 0.9303(8) 0.3031(7)
C23 C 0.8329(8) 1.0358(9) 0.1794(9)
H13 H 0.8451 0.9779 0.1608
H14 H 0.8773 1.0700 0.1871
H15 H 0.8015 1.0705 0.1528
C24 C 1.1136(9) 0.5340(15) -0.1438(8)
C25 C 1.0506(7) 0.5197(9) -0.1023(6)
C26 C 1.0174(8) 0.5757(10) -0.0584(7)
C27 C 0.9623(8) 0.5242(10) -0.0278(7)
C28 C 0.9535(8) 0.4378(9) -0.0532(7)
C29 C 1.0371(9) 0.6774(9) -0.0424(7)
H16 H 1.0746 0.6993 -0.0695
H17 H 1.0551 0.6803 -0.0016
H18 H 0.9939 0.7152 -0.0461
C30 C 0.3837(9) 0.5733(10) -0.1361(8)
C31 C 0.6493(11) 0.2152(16) 0.1087(11)
C32 C 0.6130(13) 0.0694(17) 0.1417(12)
C33 C 0.9807(16) 0.363(2) 0.2521(14)
C34 C 0.9877(13) 0.2129(18) 0.2050(12)
C35 C 0.9476(6) 0.6556(9) 0.2420(6)
C36 C 1.0079(8) 0.8014(12) 0.2701(8)
C37 C 1.0678(9) 0.6922(10) 0.1910(7)
C38 C 1.0575(12) 0.2853(17) 0.2927(12)
C39 C 0.5824(14) 0.1116(18) 0.0364(13)
N1 N 0.6196(9) 0.1319(13) 0.1005(8)
N2 N 0.9989(10) 0.2816(14) 0.2453(12)
N3 N 1.0064(7) 0.7122(8) 0.2348(7)
Zn1A Zn 0.32999(7) 0.49217(11) -0.25068(8)
Zn2_2 Zn 0.74717(9) 1.34432(11) 0.17082(9)
Zn3_2 Zn 0.76290(9) 1.35934(10) 0.31581(8)
Zn3A Zn 1.23710(9) 0.64066(10) -0.18419(8)
Zn3A_2 Zn 0.23710(9) 0.64066(10) -0.18419(8)
Zn4A Zn 1.15543(8) 0.49512(11) -0.27457(8)
O8_2 O 0.8006(6) 0.2235(6) 0.2253(6)
O9_2 O 0.7495(6) 0.2265(5) 0.3162(5)
O10A O 0.8494(5) 0.3826(7) 0.3636(5)
O11A O 0.8674(5) 0.5229(6) 0.3193(5)
O12A O 0.5971(5) 0.4618(6) 0.3102(4)
O13A O 0.6777(5) 0.3902(7) 0.3722(5)
loop_
_geom_bond_atom_site_label_1
_geom_bond_atom_site_label_2
_geom_bond_site_symmetry_1
_geom_bond_site_symmetry_2
Zn1 O1 1_555 1_555
Zn2 O1 1_555 1_555
Zn3 O1 1_555 1_555
Zn4 O1 1_555 1_555
O2 Zn4 1_555 1_555
O3 Zn1 1_555 1_555
O4 Zn1 1_555 1_555
O5 Zn2 1_555 1_555
O6 Zn2 1_555 1_555
O7 Zn4 1_555 1_555
O8 C18 1_555 1_555
O9 C18 1_555 1_555
O10 C24 1_555 1_555
O11 C24 1_555 1_555
O12 C30 1_555 1_555
O13 C30 1_555 1_555
O14 Zn2 1_555 1_555
O15 Zn4 1_555 1_555
O16 Zn4 1_555 1_555
S1 C2 1_555 1_555
S2 C6 1_555 1_555
S3 C9 1_555 1_555
S4 C15 1_555 1_555
S5 C19 1_555 1_555
S6 C25 1_555 1_555
C1 O2 1_555 1_555
C2 C1 1_555 1_555
C3 C2 1_555 1_555
C4 C3 1_555 1_555
H1 C4 1_555 1_555
H2 C4 1_555 1_555
H3 C4 1_555 1_555
C5 O4 1_555 1_555
C6 C5 1_555 1_555
C7 C6 1_555 1_555
C8 C7 1_555 1_555
C9 S2 1_555 1_555
C10 C8 1_555 1_555
C11 S3 1_555 1_555
C12 C7 1_555 1_555
H4 C12 1_555 1_555
H5 C12 1_555 1_555
H6 C12 1_555 1_555
C13 C10 1_555 1_555
H7 C13 1_555 1_555
H8 C13 1_555 1_555
H9 C13 1_555 1_555
C14 O6 1_555 1_555
C15 C14 1_555 1_555
C16 C15 1_555 1_555
C17 C16 1_555 1_555
H10 C17 1_555 1_555
H11 C17 1_555 1_555
H12 C17 1_555 1_555
C18 C19 1_555 1_555
C19 C20 1_555 1_555
C20 C21 1_555 1_555
C21 C3 1_555 1_555
C22 S1 1_555 1_555
C23 C20 1_555 1_555
H13 C23 1_555 1_555
H14 C23 1_555 1_555
H15 C23 1_555 1_555
C24 C25 1_555 1_555
C25 C26 1_555 1_555
C26 C27 1_555 1_555
C27 C16 1_555 1_555
C28 S4 1_555 1_555
C29 C26 1_555 1_555
H16 C29 1_555 1_555
H17 C29 1_555 1_555
H18 C29 1_555 1_555
C30 C11 1_555 1_555
C31 O14 1_555 1_555
C32 N1 1_555 1_555
C33 O15 1_555 1_555
C34 N2 1_555 1_555
C35 O16 1_555 1_555
C36 N3 1_555 1_555
C37 N3 1_555 1_555
C38 N2 1_555 1_555
C39 N1 1_555 1_555
N1 C31 1_555 1_555
N2 C33 1_555 1_555
N3 C35 1_555 1_555
Zn1A O12 1_555 1_555
Zn2_2 O8 1_555 1_555
Zn3_2 O9 1_555 1_555
Zn3A O10 1_555 1_555
Zn3A_2 O13 1_555 1_555
Zn4A O11 1_555 1_555
O8_2 Zn2 1_555 1_555
O9_2 Zn3 1_555 1_555
O10A Zn3 1_555 1_555
O11A Zn4 1_555 1_555
O12A Zn1 1_555 1_555
O13A Zn3 1_555 1_555
O3 C1 1_555 1_555
O5 C5 1_555 1_555
O7 C14 1_555 1_555
S5 C22 1_555 1_555
S6 C28 1_555 1_555
C8 C9 1_555 1_555
C10 C11 1_555 1_555
C21 C22 1_555 1_555
C27 C28 1_555 1_555

#END
