
#######################################################################
#
#                 Cambridge Crystallographic Data Centre
#                                CCDC 
#
#######################################################################
#
# If this CIF has been generated from an entry in the Cambridge 
# Structural Database, then it will include bibliographic, chemical, 
# crystal, experimental, refinement or atomic coordinate data resulting 
# from the CCDC's data processing and validation procedures.
#
#######################################################################

data_COJTOL
_chemical_formula_moiety         'C36 O19 Zn10'
_symmetry_cell_setting           cubic
_symmetry_space_group_name_H-M   'F m -3 m'
_symmetry_Int_Tables_number      225
_space_group_name_Hall           '-F 4 2 3'
loop_
_symmetry_equiv_pos_site_id
_symmetry_equiv_pos_as_xyz
1 x,y,z
2 z,x,y
3 y,z,x
4 y,x,-z
5 y,-x,z
6 -y,x,z
7 x,z,-y
8 -x,z,y
9 x,-z,y
10 z,y,-x
11 z,-y,x
12 -z,y,x
13 x,1/2+y,1/2+z
14 z,1/2+x,1/2+y
15 y,1/2+z,1/2+x
16 y,1/2+x,1/2-z
17 y,1/2-x,1/2+z
18 -y,1/2+x,1/2+z
19 x,1/2+z,1/2-y
20 -x,1/2+z,1/2+y
21 x,1/2-z,1/2+y
22 z,1/2+y,1/2-x
23 z,1/2-y,1/2+x
24 -z,1/2+y,1/2+x
25 1/2+x,y,1/2+z
26 1/2+z,x,1/2+y
27 1/2+y,z,1/2+x
28 1/2+y,x,1/2-z
29 1/2+y,-x,1/2+z
30 1/2-y,x,1/2+z
31 1/2+x,z,1/2-y
32 1/2-x,z,1/2+y
33 1/2+x,-z,1/2+y
34 1/2+z,y,1/2-x
35 1/2+z,-y,1/2+x
36 1/2-z,y,1/2+x
37 1/2+x,1/2+y,z
38 1/2+z,1/2+x,y
39 1/2+y,1/2+z,x
40 1/2+y,1/2+x,-z
41 1/2+y,1/2-x,z
42 1/2-y,1/2+x,z
43 1/2+x,1/2+z,-y
44 1/2-x,1/2+z,y
45 1/2+x,1/2-z,y
46 1/2+z,1/2+y,-x
47 1/2+z,1/2-y,x
48 1/2-z,1/2+y,x
49 -x,-y,z
50 -x,y,-z
51 x,-y,-z
52 z,-x,-y
53 -z,-x,y
54 -z,x,-y
55 -y,z,-x
56 y,-z,-x
57 -y,-z,x
58 -y,-x,-z
59 -x,-z,-y
60 -z,-y,-x
61 -x,1/2-y,1/2+z
62 -x,1/2+y,1/2-z
63 x,1/2-y,1/2-z
64 z,1/2-x,1/2-y
65 -z,1/2-x,1/2+y
66 -z,1/2+x,1/2-y
67 -y,1/2+z,1/2-x
68 y,1/2-z,1/2-x
69 -y,1/2-z,1/2+x
70 -y,1/2-x,1/2-z
71 -x,1/2-z,1/2-y
72 -z,1/2-y,1/2-x
73 1/2-x,-y,1/2+z
74 1/2-x,y,1/2-z
75 1/2+x,-y,1/2-z
76 1/2+z,-x,1/2-y
77 1/2-z,-x,1/2+y
78 1/2-z,x,1/2-y
79 1/2-y,z,1/2-x
80 1/2+y,-z,1/2-x
81 1/2-y,-z,1/2+x
82 1/2-y,-x,1/2-z
83 1/2-x,-z,1/2-y
84 1/2-z,-y,1/2-x
85 1/2-x,1/2-y,z
86 1/2-x,1/2+y,-z
87 1/2+x,1/2-y,-z
88 1/2+z,1/2-x,-y
89 1/2-z,1/2-x,y
90 1/2-z,1/2+x,-y
91 1/2-y,1/2+z,-x
92 1/2+y,1/2-z,-x
93 1/2-y,1/2-z,x
94 1/2-y,1/2-x,-z
95 1/2-x,1/2-z,-y
96 1/2-z,1/2-y,-x
97 -x,-y,-z
98 -z,-x,-y
99 -y,-z,-x
100 -y,-x,z
101 -y,x,-z
102 y,-x,-z
103 -x,-z,y
104 x,-z,-y
105 -x,z,-y
106 -z,-y,x
107 -z,y,-x
108 z,-y,-x
109 -x,1/2-y,1/2-z
110 -z,1/2-x,1/2-y
111 -y,1/2-z,1/2-x
112 -y,1/2-x,1/2+z
113 -y,1/2+x,1/2-z
114 y,1/2-x,1/2-z
115 -x,1/2-z,1/2+y
116 x,1/2-z,1/2-y
117 -x,1/2+z,1/2-y
118 -z,1/2-y,1/2+x
119 -z,1/2+y,1/2-x
120 z,1/2-y,1/2-x
121 1/2-x,-y,1/2-z
122 1/2-z,-x,1/2-y
123 1/2-y,-z,1/2-x
124 1/2-y,-x,1/2+z
125 1/2-y,x,1/2-z
126 1/2+y,-x,1/2-z
127 1/2-x,-z,1/2+y
128 1/2+x,-z,1/2-y
129 1/2-x,z,1/2-y
130 1/2-z,-y,1/2+x
131 1/2-z,y,1/2-x
132 1/2+z,-y,1/2-x
133 1/2-x,1/2-y,-z
134 1/2-z,1/2-x,-y
135 1/2-y,1/2-z,-x
136 1/2-y,1/2-x,z
137 1/2-y,1/2+x,-z
138 1/2+y,1/2-x,-z
139 1/2-x,1/2-z,y
140 1/2+x,1/2-z,-y
141 1/2-x,1/2+z,-y
142 1/2-z,1/2-y,x
143 1/2-z,1/2+y,-x
144 1/2+z,1/2-y,-x
145 x,y,-z
146 x,-y,z
147 -x,y,z
148 -z,x,y
149 z,x,-y
150 z,-x,y
151 y,-z,x
152 -y,z,x
153 y,z,-x
154 y,x,z
155 x,z,y
156 z,y,x
157 x,1/2+y,1/2-z
158 x,1/2-y,1/2+z
159 -x,1/2+y,1/2+z
160 -z,1/2+x,1/2+y
161 z,1/2+x,1/2-y
162 z,1/2-x,1/2+y
163 y,1/2-z,1/2+x
164 -y,1/2+z,1/2+x
165 y,1/2+z,1/2-x
166 y,1/2+x,1/2+z
167 x,1/2+z,1/2+y
168 z,1/2+y,1/2+x
169 1/2+x,y,1/2-z
170 1/2+x,-y,1/2+z
171 1/2-x,y,1/2+z
172 1/2-z,x,1/2+y
173 1/2+z,x,1/2-y
174 1/2+z,-x,1/2+y
175 1/2+y,-z,1/2+x
176 1/2-y,z,1/2+x
177 1/2+y,z,1/2-x
178 1/2+y,x,1/2+z
179 1/2+x,z,1/2+y
180 1/2+z,y,1/2+x
181 1/2+x,1/2+y,-z
182 1/2+x,1/2-y,z
183 1/2-x,1/2+y,z
184 1/2-z,1/2+x,y
185 1/2+z,1/2+x,-y
186 1/2+z,1/2-x,y
187 1/2+y,1/2-z,x
188 1/2-y,1/2+z,x
189 1/2+y,1/2+z,-x
190 1/2+y,1/2+x,z
191 1/2+x,1/2+z,y
192 1/2+z,1/2+y,x
_cell_length_a                   25.7786(7)
_cell_length_b                   25.7786(7)
_cell_length_c                   25.7786(7)
_cell_angle_alpha                90
_cell_angle_beta                 90
_cell_angle_gamma                90
_cell_volume                     17130.8
loop_
_atom_site_label
_atom_site_type_symbol
_atom_site_fract_x
_atom_site_fract_y
_atom_site_fract_z
_atom_site_U_iso_or_equiv
_atom_site_thermal_displace_type
Zn1 Zn 0.206664(11) 0.206664(11) 0.206664(11) 0.0344 Uani
O1 O 0.2500 0.2500 0.2500 0.0342 Uani
O2 O 0.21931(6) 0.21931(6) 0.13404(7) 0.0642 Uani
C1 C 0.2500 0.2500 0.11113(13) 0.0533 Uani
C2 C 0.2500 0.2500 0.05361(14) 0.0577 Uani
C3 C 0.20936(19) 0.2265(2) 0.02659(15) 0.0628 Uani
Zn1TD Zn 0.293336(11) 0.206664(11) 0.293336(11) 0.0344 Uani
Zn1ID Zn 0.206664(11) 0.293336(11) 0.293336(11) 0.0344 Uani
Zn1EE Zn 0.293336(11) 0.293336(11) 0.206664(11) 0.0344 Uani
Zn1C Zn 0.206664(11) 0.206664(11) -0.206664(11) 0.0344 Uani
Zn1BE Zn 0.293336(11) 0.293336(11) -0.206664(11) 0.0344 Uani
Zn1E Zn -0.206664(11) 0.206664(11) 0.206664(11) 0.0344 Uani
Zn1DD Zn -0.206664(11) 0.293336(11) 0.293336(11) 0.0344 Uani
Zn1D Zn 0.206664(11) -0.206664(11) 0.206664(11) 0.0344 Uani
Zn1PD Zn 0.293336(11) -0.206664(11) 0.293336(11) 0.0344 Uani
O2EE O 0.28069(6) 0.28069(6) 0.13404(7) 0.0642 Uani
O2C O 0.21931(6) 0.21931(6) -0.13404(7) 0.0642 Uani
O2BE O 0.28069(6) 0.28069(6) -0.13404(7) 0.0642 Uani
O2A O 0.13404(7) 0.21931(6) 0.21931(6) 0.0642 Uani
O2OD O 0.13404(7) 0.28069(6) 0.28069(6) 0.0642 Uani
O2K O -0.13404(7) 0.21931(6) 0.21931(6) 0.0642 Uani
O2ED O -0.13404(7) 0.28069(6) 0.28069(6) 0.0642 Uani
O2B O 0.21931(6) 0.13404(7) 0.21931(6) 0.0642 Uani
O2XD O 0.28069(6) 0.13404(7) 0.28069(6) 0.0642 Uani
O2H O 0.21931(6) -0.13404(7) 0.21931(6) 0.0642 Uani
O2RD O 0.28069(6) -0.13404(7) 0.28069(6) 0.0642 Uani
O2TD O 0.28069(6) 0.21931(6) 0.36596(7) 0.0642 Uani
O2ZD O 0.36596(7) 0.21931(6) 0.28069(6) 0.0642 Uani
O2ID O 0.21931(6) 0.28069(6) 0.36596(7) 0.0642 Uani
O2KD O 0.21931(6) 0.36596(7) 0.28069(6) 0.0642 Uani
O2HE O 0.28069(6) 0.36596(7) 0.21931(6) 0.0642 Uani
O2KE O 0.36596(7) 0.28069(6) 0.21931(6) 0.0642 Uani
C1C C 0.2500 0.2500 -0.11113(13) 0.0533 Uani
C1A C 0.11113(13) 0.2500 0.2500 0.0533 Uani
C1K C -0.11113(13) 0.2500 0.2500 0.0533 Uani
C1B C 0.2500 0.11113(13) 0.2500 0.0533 Uani
C1H C 0.2500 -0.11113(13) 0.2500 0.0533 Uani
C2C C 0.2500 0.2500 -0.05361(14) 0.0577 Uani
C2A C 0.05361(14) 0.2500 0.2500 0.0577 Uani
C2K C -0.05361(14) 0.2500 0.2500 0.0577 Uani
C2B C 0.2500 0.05361(14) 0.2500 0.0577 Uani
C2H C 0.2500 -0.05361(14) 0.2500 0.0577 Uani
C3C C 0.2265(2) 0.20936(19) -0.02659(15) 0.0628 Uani
C3NE C 0.20936(19) 0.2265(2) -0.02659(15) 0.0628 Uani
C3WE C 0.2265(2) 0.20936(19) 0.02659(15) 0.0628 Uani
C3EE C 0.2735(2) 0.29064(19) 0.02659(15) 0.0628 Uani
C3BE C 0.29064(19) 0.2735(2) -0.02659(15) 0.0628 Uani
C3OC C 0.2735(2) 0.29064(19) -0.02659(15) 0.0628 Uani
C3FC C 0.29064(19) 0.2735(2) 0.02659(15) 0.0628 Uani
C3A C 0.02659(15) 0.20936(19) 0.2265(2) 0.0628 Uani
C3K C -0.02659(15) 0.2265(2) 0.20936(19) 0.0628 Uani
C3QE C -0.02659(15) 0.20936(19) 0.2265(2) 0.0628 Uani
C3YE C 0.02659(15) 0.2265(2) 0.20936(19) 0.0628 Uani
C3OD C 0.02659(15) 0.2735(2) 0.29064(19) 0.0628 Uani
C3ED C -0.02659(15) 0.29064(19) 0.2735(2) 0.0628 Uani
C3SB C -0.02659(15) 0.2735(2) 0.29064(19) 0.0628 Uani
C3KB C 0.02659(15) 0.29064(19) 0.2735(2) 0.0628 Uani
C3B C 0.2265(2) 0.02659(15) 0.20936(19) 0.0628 Uani
C3H C 0.20936(19) -0.02659(15) 0.2265(2) 0.0628 Uani
C3TE C 0.2265(2) -0.02659(15) 0.20936(19) 0.0628 Uani
C3XE C 0.20936(19) 0.02659(15) 0.2265(2) 0.0628 Uani
C3XD C 0.29064(19) 0.02659(15) 0.2735(2) 0.0628 Uani
C3RD C 0.2735(2) -0.02659(15) 0.29064(19) 0.0628 Uani
C3DC C 0.29064(19) -0.02659(15) 0.2735(2) 0.0628 Uani
C3ZB C 0.2735(2) 0.02659(15) 0.29064(19) 0.0628 Uani
loop_
_atom_site_aniso_label
_atom_site_aniso_U_11
_atom_site_aniso_U_22
_atom_site_aniso_U_33
_atom_site_aniso_U_23
_atom_site_aniso_U_13
_atom_site_aniso_U_12
Zn1 0.0344(3) 0.0344(3) 0.0344(3) -0.00131(10) -0.00131(10) -0.00131(10)
O1 0.0342(12) 0.0342(12) 0.0342(12) 0.000 0.000 0.000
O2 0.0794(9) 0.0794(9) 0.0337(11) -0.0002(7) -0.0002(7) -0.0221(12)
C1 0.0609(15) 0.0609(15) 0.038(2) 0.000 0.000 0.003(2)
C2 0.0687(17) 0.0687(17) 0.0356(19) 0.000 0.000 -0.007(2)
C3 0.074(4) 0.077(4) 0.0373(18) 0.001(2) 0.0037(17) -0.009(4)
Zn1TD 0.0344 0.0344 0.0344 0.00131 -0.00131 0.00131
Zn1ID 0.0344 0.0344 0.0344 -0.00131 0.00131 0.00131
Zn1EE 0.0344 0.0344 0.0344 0.00131 0.00131 -0.00131
Zn1C 0.0344 0.0344 0.0344 0.00131 0.00131 -0.00131
Zn1BE 0.0344 0.0344 0.0344 -0.00131 -0.00131 -0.00131
Zn1E 0.0344 0.0344 0.0344 -0.00131 0.00131 0.00131
Zn1DD 0.0344 0.0344 0.0344 -0.00131 -0.00131 -0.00131
Zn1D 0.0344 0.0344 0.0344 0.00131 -0.00131 0.00131
Zn1PD 0.0344 0.0344 0.0344 -0.00131 -0.00131 -0.00131
O2EE 0.0794 0.0794 0.0337 0.0002 0.0002 -0.0221
O2C 0.0794 0.0794 0.0337 0.0002 0.0002 -0.0221
O2BE 0.0794 0.0794 0.0337 -0.0002 -0.0002 -0.0221
O2A 0.0337 0.0794 0.0794 -0.0221 -0.0002 -0.0002
O2OD 0.0337 0.0794 0.0794 -0.0221 0.0002 0.0002
O2K 0.0337 0.0794 0.0794 -0.0221 0.0002 0.0002
O2ED 0.0337 0.0794 0.0794 -0.0221 -0.0002 -0.0002
O2B 0.0794 0.0337 0.0794 -0.0002 -0.0221 -0.0002
O2XD 0.0794 0.0337 0.0794 0.0002 -0.0221 0.0002
O2H 0.0794 0.0337 0.0794 0.0002 -0.0221 0.0002
O2RD 0.0794 0.0337 0.0794 -0.0002 -0.0221 -0.0002
O2TD 0.0794 0.0794 0.0337 0.0002 -0.0002 0.0221
O2ZD 0.0337 0.0794 0.0794 0.0221 -0.0002 0.0002
O2ID 0.0794 0.0794 0.0337 -0.0002 0.0002 0.0221
O2KD 0.0794 0.0337 0.0794 -0.0002 0.0221 0.0002
O2HE 0.0794 0.0337 0.0794 0.0002 0.0221 -0.0002
O2KE 0.0337 0.0794 0.0794 0.0221 0.0002 -0.0002
C1C 0.0609 0.0609 0.038 0 0 0.003
C1A 0.038 0.0609 0.0609 0.003 0 0
C1K 0.038 0.0609 0.0609 0.003 0 0
C1B 0.0609 0.038 0.0609 0 0.003 0
C1H 0.0609 0.038 0.0609 0 0.003 0
C2C 0.0687 0.0687 0.0356 0 0 -0.007
C2A 0.0356 0.0687 0.0687 -0.007 0 0
C2K 0.0356 0.0687 0.0687 -0.007 0 0
C2B 0.0687 0.0356 0.0687 0 -0.007 0
C2H 0.0687 0.0356 0.0687 0 -0.007 0
C3C 0.077 0.074 0.0373 -0.0037 -0.001 -0.009
C3NE 0.074 0.077 0.0373 -0.001 -0.0037 -0.009
C3WE 0.077 0.074 0.0373 0.0037 0.001 -0.009
C3EE 0.077 0.074 0.0373 -0.0037 -0.001 -0.009
C3BE 0.074 0.077 0.0373 0.001 0.0037 -0.009
C3OC 0.077 0.074 0.0373 0.0037 0.001 -0.009
C3FC 0.074 0.077 0.0373 -0.001 -0.0037 -0.009
C3A 0.0373 0.074 0.077 -0.009 0.001 0.0037
C3K 0.0373 0.077 0.074 -0.009 -0.0037 -0.001
C3QE 0.0373 0.074 0.077 -0.009 -0.001 -0.0037
C3YE 0.0373 0.077 0.074 -0.009 0.0037 0.001
C3OD 0.0373 0.077 0.074 -0.009 -0.0037 -0.001
C3ED 0.0373 0.074 0.077 -0.009 0.001 0.0037
C3SB 0.0373 0.077 0.074 -0.009 0.0037 0.001
C3KB 0.0373 0.074 0.077 -0.009 -0.001 -0.0037
C3B 0.077 0.0373 0.074 0.0037 -0.009 0.001
C3H 0.074 0.0373 0.077 -0.001 -0.009 -0.0037
C3TE 0.077 0.0373 0.074 -0.0037 -0.009 -0.001
C3XE 0.074 0.0373 0.077 0.001 -0.009 0.0037
C3XD 0.074 0.0373 0.077 -0.001 -0.009 -0.0037
C3RD 0.077 0.0373 0.074 0.0037 -0.009 0.001
C3DC 0.074 0.0373 0.077 0.001 -0.009 0.0037
C3ZB 0.077 0.0373 0.074 -0.0037 -0.009 -0.001
loop_
_geom_bond_atom_site_label_1
_geom_bond_atom_site_label_2
_geom_bond_site_symmetry_1
_geom_bond_site_symmetry_2
Zn1 O1 1_555 1_555
O1 Zn1TD 1_555 1_555
O2 Zn1 1_555 1_555
C1 O2 1_555 1_555
C2 C1 1_555 1_555
C3 C2 1_555 1_555
Zn1TD O2XD 1_555 1_555
Zn1ID O1 1_555 1_555
Zn1EE O1 1_555 1_555
Zn1C O2C 1_555 1_555
Zn1BE O2BE 1_555 1_555
Zn1E O2K 1_555 1_555
Zn1DD O2ED 1_555 1_555
Zn1D O2H 1_555 1_555
Zn1PD O2RD 1_555 1_555
O2EE C1 1_555 1_555
O2C C1C 1_555 1_555
O2BE C1C 1_555 1_555
O2A Zn1 1_555 1_555
O2OD Zn1ID 1_555 1_555
O2K C1K 1_555 1_555
O2ED C1K 1_555 1_555
O2B Zn1 1_555 1_555
O2XD C1B 1_555 1_555
O2H C1H 1_555 1_555
O2RD C1H 1_555 1_555
O2TD Zn1TD 1_555 1_555
O2ZD Zn1TD 1_555 1_555
O2ID Zn1ID 1_555 1_555
O2KD Zn1ID 1_555 1_555
O2HE Zn1EE 1_555 1_555
O2KE Zn1EE 1_555 1_555
C1C C2C 1_555 1_555
C1A O2A 1_555 1_555
C1K C2K 1_555 1_555
C1B O2B 1_555 1_555
C1H C2H 1_555 1_555
C2C C3C 1_555 1_555
C2A C1A 1_555 1_555
C2K C3K 1_555 1_555
C2B C1B 1_555 1_555
C2H C3H 1_555 1_555
C3C C3 1_555 1_555
C3NE C3 1_555 1_555
C3WE C2 1_555 1_555
C3EE C2 1_555 1_555
C3BE C2C 1_555 1_555
C3OC C2C 1_555 1_555
C3FC C2 1_555 1_555
C3A C2A 1_555 1_555
C3K C3A 1_555 1_555
C3QE C2K 1_555 1_555
C3YE C2A 1_555 1_555
C3OD C2A 1_555 1_555
C3ED C2K 1_555 1_555
C3SB C2K 1_555 1_555
C3KB C2A 1_555 1_555
C3B C2B 1_555 1_555
C3H C3B 1_555 1_555
C3TE C2H 1_555 1_555
C3XE C2B 1_555 1_555
C3XD C2B 1_555 1_555
C3RD C2H 1_555 1_555
C3DC C2H 1_555 1_555
C3ZB C2B 1_555 1_555
C3 C3WE 1_555 1_555
Zn1EE O2EE 1_555 1_555
O2OD C1A 1_555 1_555
C2C C3NE 1_555 1_555
C3C C3NE 1_555 1_555
C3C C3WE 1_555 1_555
C3NE C3WE 1_555 1_555
C3EE C3BE 1_555 1_555
C3EE C3OC 1_555 1_555
C3EE C3FC 1_555 1_555
C3BE C3OC 1_555 1_555
C3BE C3FC 1_555 1_555
C3OC C3FC 1_555 1_555
C3A C3QE 1_555 1_555
C3A C3YE 1_555 1_555
C3K C3QE 1_555 1_555
C3K C3YE 1_555 1_555
C3QE C3YE 1_555 1_555
C3OD C3ED 1_555 1_555
C3OD C3SB 1_555 1_555
C3OD C3KB 1_555 1_555
C3ED C3SB 1_555 1_555
C3ED C3KB 1_555 1_555
C3SB C3KB 1_555 1_555
C3B C3TE 1_555 1_555
C3B C3XE 1_555 1_555
C3H C3TE 1_555 1_555
C3H C3XE 1_555 1_555
C3TE C3XE 1_555 1_555
C3XD C3RD 1_555 1_555
C3XD C3DC 1_555 1_555
C3XD C3ZB 1_555 1_555
C3RD C3DC 1_555 1_555
C3RD C3ZB 1_555 1_555
C3DC C3ZB 1_555 1_555

#END
