
#######################################################################
#
#                 Cambridge Crystallographic Data Centre
#                                CCDC 
#
#######################################################################
#
# If this CIF has been generated from an entry in the Cambridge 
# Structural Database, then it will include bibliographic, chemical, 
# crystal, experimental, refinement or atomic coordinate data resulting 
# from the CCDC's data processing and validation procedures.
#
#######################################################################

data_OHIHET
_chemical_formula_moiety         '(C24 H22 N8 O1 Zn1)n'
_symmetry_cell_setting           tetragonal
_symmetry_space_group_name_H-M   'P 42/n'
_symmetry_Int_Tables_number      86
_space_group_name_Hall           '-P 4bc'
loop_
_symmetry_equiv_pos_site_id
_symmetry_equiv_pos_as_xyz
1 x,y,z
2 1/2-x,1/2-y,z
3 -y,1/2+x,1/2+z
4 1/2+y,-x,1/2+z
5 -x,-y,-z
6 1/2+x,1/2+y,-z
7 y,1/2-x,1/2-z
8 1/2-y,x,1/2-z
_cell_length_a                   13.9822(13)
_cell_length_b                   13.9822(13)
_cell_length_c                   6.2233(12)
_cell_angle_alpha                90
_cell_angle_beta                 90
_cell_angle_gamma                90
_cell_volume                     1216.67
loop_
_atom_site_label
_atom_site_type_symbol
_atom_site_fract_x
_atom_site_fract_y
_atom_site_fract_z
Zn1 Zn 0.7500 0.7500 1.2500
N1 N 0.6409(2) 0.7044(2) 1.0737(5)
N2 N 0.5549(3) 0.6275(3) 0.8355(6)
C1 C 0.6406(3) 0.6328(3) 0.9295(7)
C2 C 0.5528(3) 0.7418(3) 1.0626(7)
C3 C 0.4970(3) 0.6976(3) 0.9154(7)
C4 C 0.5247(3) 0.5619(3) 0.6646(7)
C5 C 0.5555(3) 0.4672(3) 0.6684(8)
H1 H 0.5923 0.4449 0.7823
C6 C 0.4689(3) 0.5932(3) 0.4973(7)
H2 H 0.4473 0.6561 0.4959
H3 H 0.699(3) 0.597(3) 0.919(7)
H4 H 0.541(3) 0.793(3) 1.155(8)
Zn1B Zn 0.2500 0.2500 -0.2500
Zn1B_2 Zn 1.2500 1.2500 -0.2500
N1D N 0.3591(2) 0.2956(2) -0.0737(5)
N1A N 0.8591(2) 0.7956(2) 1.0737(5)
N1E N 1.1409(2) 1.2044(2) -0.0737(5)
N1F N 0.7044(2) 0.8591(2) 1.4263(5)
N1G N 0.7956(2) 0.6409(2) 1.4263(5)
N2D N 0.4451(3) 0.3725(3) 0.1645(6)
N2A N 0.9451(3) 0.8725(3) 0.8355(6)
N2E N 1.0549(3) 1.1275(3) 0.1645(6)
C1D C 0.3594(3) 0.3672(3) 0.0705(7)
C1A C 0.8594(3) 0.8672(3) 0.9295(7)
C1E C 1.1406(3) 1.1328(3) 0.0705(7)
C2D C 0.4472(3) 0.2582(3) -0.0626(7)
C2A C 0.9472(3) 0.7582(3) 1.0626(7)
C2E C 1.0528(3) 1.2418(3) -0.0626(7)
C3D C 0.5030(3) 0.3024(3) 0.0846(7)
C3A C 1.0030(3) 0.8024(3) 0.9154(7)
C3E C 0.9970(3) 1.1976(3) 0.0846(7)
C4D C 0.4753(3) 0.4381(3) 0.3354(7)
C4A C 0.9753(3) 0.9381(3) 0.6646(7)
C4E C 1.0247(3) 1.0619(3) 0.3354(7)
C5D C 0.4445(3) 0.5328(3) 0.3316(8)
C5A C 0.9445(3) 1.0328(3) 0.6684(8)
C5E C 1.0555(3) 0.9672(3) 0.3316(8)
H1D H 0.4077 0.5551 0.2177
H1A H 0.9077 1.0551 0.7823
H1E H 1.0923 0.9449 0.2177
C6D C 0.5311(3) 0.4068(3) 0.5027(7)
C6A C 1.0311(3) 0.9068(3) 0.4973(7)
C6E C 0.9689(3) 1.0932(3) 0.5027(7)
H2D H 0.5527 0.3439 0.5041
H2A H 1.0527 0.8439 0.4959
H2E H 0.9473 1.1561 0.5041
H3D H 0.301(3) 0.403(3) 0.081(7)
H3A H 0.801(3) 0.903(3) 0.919(7)
H3E H 1.199(3) 1.097(3) 0.081(7)
H4D H 0.459(3) 0.207(3) -0.155(8)
H4A H 0.959(3) 0.707(3) 1.155(8)
H4E H 1.041(3) 1.293(3) -0.155(8)
O2 O 0.2777(19) 0.6934(17) 0.106(7)
loop_
_geom_bond_atom_site_label_1
_geom_bond_atom_site_label_2
_geom_bond_site_symmetry_1
_geom_bond_site_symmetry_2
Zn1 N1 1_555 1_555
N1 C1 1_555 1_555
N2 C1 1_555 1_555
C1 H3 1_555 1_555
C2 N1 1_555 1_555
C3 N2 1_555 1_555
C4 N2 1_555 1_555
C5 C4 1_555 1_555
H1 C5 1_555 1_555
C6 C4 1_555 1_555
H2 C6 1_555 1_555
H4 C2 1_555 1_555
Zn1B N1D 1_555 1_555
Zn1B_2 N1E 1_555 1_555
N1D C1D 1_555 1_555
N1A Zn1 1_555 1_555
N1E C1E 1_555 1_555
N1F Zn1 1_555 1_555
N1G Zn1 1_555 1_555
N2D C1D 1_555 1_555
N2A C1A 1_555 1_555
N2E C1E 1_555 1_555
C1D H3D 1_555 1_555
C1A N1A 1_555 1_555
C1E H3E 1_555 1_555
C2D N1D 1_555 1_555
C2A N1A 1_555 1_555
C2E N1E 1_555 1_555
C3D N2D 1_555 1_555
C3A N2A 1_555 1_555
C3E N2E 1_555 1_555
C4D N2D 1_555 1_555
C4A N2A 1_555 1_555
C4E N2E 1_555 1_555
C5D C6 1_555 1_555
C5A C4A 1_555 1_555
C5E C4E 1_555 1_555
H1D C5D 1_555 1_555
H1A C5A 1_555 1_555
H1E C5E 1_555 1_555
C6D C5 1_555 1_555
C6A C4A 1_555 1_555
C6E C4E 1_555 1_555
H2D C6D 1_555 1_555
H2A C6A 1_555 1_555
H2E C6E 1_555 1_555
H3A C1A 1_555 1_555
H4D C2D 1_555 1_555
H4A C2A 1_555 1_555
H4E C2E 1_555 1_555
C2 C3 1_555 1_555
C2D C3D 1_555 1_555
C2A C3A 1_555 1_555
C2E C3E 1_555 1_555
C4D C5D 1_555 1_555
C4D C6D 1_555 1_555
C5A C6E 1_555 1_555
C5E C6A 1_555 1_555

#END
