
#######################################################################
#
#                 Cambridge Crystallographic Data Centre
#                                CCDC 
#
#######################################################################
#
# If this CIF has been generated from an entry in the Cambridge 
# Structural Database, then it will include bibliographic, chemical, 
# crystal, experimental, refinement or atomic coordinate data resulting 
# from the CCDC's data processing and validation procedures.
#
#######################################################################

data_SIRZUQ
_chemical_formula_moiety         '(C14 H10 Cd1 N2 O5)n'
_symmetry_cell_setting           rhombohedral
_symmetry_space_group_name_H-M   'R -3'
_symmetry_Int_Tables_number      148
_space_group_name_Hall           '-R 3'
loop_
_symmetry_equiv_pos_site_id
_symmetry_equiv_pos_as_xyz
1 x,y,z
2 -y,x-y,z
3 -x+y,-x,z
4 2/3+x,1/3+y,1/3+z
5 2/3-y,1/3+x-y,1/3+z
6 2/3-x+y,1/3-x,1/3+z
7 1/3+x,2/3+y,2/3+z
8 1/3-y,2/3+x-y,2/3+z
9 1/3-x+y,2/3-x,2/3+z
10 -x,-y,-z
11 y,-x+y,-z
12 x-y,x,-z
13 1/3-x,2/3-y,2/3-z
14 1/3+y,2/3-x+y,2/3-z
15 1/3+x-y,2/3+x,2/3-z
16 2/3-x,1/3-y,1/3-z
17 2/3+y,1/3-x+y,1/3-z
18 2/3+x-y,1/3+x,1/3-z
_cell_length_a                   26.784(4)
_cell_length_b                   26.784(4)
_cell_length_c                   11.102(2)
_cell_angle_alpha                90
_cell_angle_beta                 90
_cell_angle_gamma                120
_cell_volume                     6897.36
loop_
_atom_site_label
_atom_site_type_symbol
_atom_site_fract_x
_atom_site_fract_y
_atom_site_fract_z
_atom_site_U_iso_or_equiv
_atom_site_thermal_displace_type
Cd1 Cd 0.340129(6) 0.048549(5) 0.519617(11) 0.0318 Uani
C1 C 0.40592(8) 0.14783(8) 0.63549(15) 0.0328 Uani
C2 C 0.44346(8) 0.20692(8) 0.68640(16) 0.0339 Uani
C3 C 0.49317(9) 0.24471(9) 0.6242(2) 0.0477 Uani
H1 H 0.5020 0.2329 0.5526 0.0570 Uiso
C4 C 0.52975(11) 0.29961(10) 0.6670(2) 0.0609 Uani
H2 H 0.5630 0.3243 0.6246 0.0730 Uiso
C5 C 0.51688(11) 0.31774(10) 0.7726(2) 0.0585 Uani
H3 H 0.5418 0.3545 0.8020 0.0700 Uiso
C6 C 0.46709(9) 0.28153(9) 0.8351(2) 0.0450 Uani
H4 H 0.4583 0.2941 0.9057 0.0540 Uiso
C7 C 0.43023(8) 0.22635(8) 0.79218(16) 0.0331 Uani
C8 C 0.30589(8) 0.16926(8) 0.97950(16) 0.0337 Uani
C9 C 0.27719(9) 0.11021(9) 0.9606(2) 0.0446 Uani
H5 H 0.2872 0.0948 0.8960 0.0540 Uiso
C10 C 0.23355(11) 0.07428(9) 1.0386(2) 0.0569 Uani
H6 H 0.2142 0.0346 1.0265 0.0680 Uiso
C11 C 0.21873(11) 0.09708(11) 1.1341(2) 0.0627 Uani
H7 H 0.1897 0.0727 1.1868 0.0750 Uiso
C12 C 0.24690(10) 0.15596(10) 1.15184(19) 0.0511 Uani
H8 H 0.2367 0.1709 1.2168 0.0610 Uiso
C13 C 0.29030(8) 0.19318(8) 1.07401(16) 0.0353 Uani
C14 C 0.31931(8) 0.25674(8) 1.09753(15) 0.0338 Uani
N1 N 0.38269(7) 0.18753(6) 0.86610(13) 0.0332 Uani
N2 N 0.35134(7) 0.20716(6) 0.89890(13) 0.0326 Uani
O1 O 0.42364(6) 0.13439(6) 0.54269(12) 0.0407 Uani
O2 O 0.35836(6) 0.11386(6) 0.68437(11) 0.0382 Uani
O3 O 0.34232(6) 0.29274(5) 1.01303(11) 0.0389 Uani
O4 O 0.32098(7) 0.27457(6) 1.20190(13) 0.0524 Uani
O5 O 0.25509(6) -0.02281(6) 0.57399(12) 0.0434 Uani
H9 H 0.2559 -0.0341 0.6452 0.0650 Uiso
H10 H 0.2362 -0.0487 0.5218 0.0650 Uiso
Cd1O Cd 0.326538(6) 0.284784(5) 0.813716(11) 0.0318 Uani
Cd1M Cd 0.381882(5) 0.375087(8) 1.147050(11) 0.0318 Uani
N2O N 0.31533(7) 0.12617(6) 0.43443(13) 0.0326 Uani
O3O O 0.32435(6) 0.04059(5) 0.32030(11) 0.0389 Uani
O3N O 0.38291(8) 0.00899(6) 0.65364(11) 0.0389 Uani
O4N O 0.37974(9) -0.01235(7) 0.46477(13) 0.0524 Uani
loop_
_atom_site_aniso_label
_atom_site_aniso_U_11
_atom_site_aniso_U_22
_atom_site_aniso_U_33
_atom_site_aniso_U_23
_atom_site_aniso_U_13
_atom_site_aniso_U_12
Cd1 0.03836(9) 0.03088(8) 0.02555(9) -0.00041(5) -0.00021(5) 0.01692(6)
C1 0.0383(10) 0.0342(10) 0.0315(9) -0.0004(7) -0.0043(8) 0.0224(9)
C2 0.0371(10) 0.0318(9) 0.0366(9) -0.0002(7) -0.0022(8) 0.0201(8)
C3 0.0483(12) 0.0408(11) 0.0505(12) -0.0010(9) 0.0101(10) 0.0196(10)
C4 0.0511(14) 0.0394(12) 0.0775(17) 0.0006(11) 0.0181(12) 0.0116(11)
C5 0.0524(14) 0.0318(11) 0.0806(17) -0.0113(11) 0.0042(12) 0.0131(10)
C6 0.0489(12) 0.0350(10) 0.0536(12) -0.0098(9) -0.0009(9) 0.0229(10)
C7 0.0370(10) 0.0315(9) 0.0368(9) -0.0008(7) -0.0030(7) 0.0217(8)
C8 0.0376(10) 0.0302(9) 0.0336(9) 0.0039(7) -0.0030(7) 0.0172(8)
C9 0.0479(12) 0.0333(10) 0.0532(12) -0.0003(9) -0.0041(9) 0.0207(9)
C10 0.0560(14) 0.0298(11) 0.0729(16) 0.0091(10) -0.0006(12) 0.0124(10)
C11 0.0578(15) 0.0449(13) 0.0637(15) 0.0180(11) 0.0148(12) 0.0094(11)
C12 0.0538(13) 0.0472(12) 0.0420(11) 0.0080(9) 0.0121(10) 0.0175(11)
C13 0.0395(10) 0.0334(10) 0.0310(9) 0.0052(7) 0.0004(7) 0.0167(8)
C14 0.0361(10) 0.0379(10) 0.0283(9) 0.0006(7) 0.0005(7) 0.0192(8)
N1 0.0410(9) 0.0324(8) 0.0302(7) -0.0025(6) -0.0027(6) 0.0213(7)
N2 0.0382(8) 0.0302(8) 0.0315(7) -0.0014(6) -0.0011(6) 0.0186(7)
O1 0.0446(8) 0.0410(8) 0.0362(7) -0.0070(6) 0.0025(6) 0.0211(6)
O2 0.0397(7) 0.0342(7) 0.0371(7) -0.0032(5) 0.0013(6) 0.0158(6)
O3 0.0520(8) 0.0295(7) 0.0268(6) 0.0002(5) 0.0008(6) 0.0140(6)
O4 0.0778(11) 0.0459(8) 0.0296(7) -0.0006(6) 0.0102(7) 0.0280(8)
O5 0.0422(8) 0.0357(7) 0.0386(7) 0.0043(6) -0.0099(6) 0.0091(6)
Cd1O 0.03836 0.03088 0.02555 -0.00041 -0.00021 0.01692
Cd1M 0.03088 0.0354 0.02555 0.0002 0.00041 0.01396
N2O 0.0382 0.0302 0.0315 -0.0014 -0.0011 0.0186
O3O 0.052 0.0295 0.0268 0.0002 0.0008 0.014
O3N 0.0535 0.052 0.0268 -0.0008 -0.0006 0.038
O4N 0.0677 0.0778 0.0296 -0.0102 -0.0108 0.0498
loop_
_geom_bond_atom_site_label_1
_geom_bond_atom_site_label_2
_geom_bond_site_symmetry_1
_geom_bond_site_symmetry_2
Cd1 O1 1_555 1_555
C1 C2 1_555 1_555
C2 C3 1_555 1_555
C3 H1 1_555 1_555
C4 C3 1_555 1_555
H2 C4 1_555 1_555
C5 C4 1_555 1_555
H3 C5 1_555 1_555
C6 C5 1_555 1_555
H4 C6 1_555 1_555
C7 C2 1_555 1_555
C8 C9 1_555 1_555
C9 H5 1_555 1_555
C10 C9 1_555 1_555
H6 C10 1_555 1_555
C11 C10 1_555 1_555
H7 C11 1_555 1_555
C12 C11 1_555 1_555
H8 C12 1_555 1_555
C13 C8 1_555 1_555
C14 C13 1_555 1_555
N1 C7 1_555 1_555
N2 C8 1_555 1_555
O1 C1 1_555 1_555
O2 Cd1 1_555 1_555
O3 C14 1_555 1_555
O4 C14 1_555 1_555
O5 Cd1 1_555 1_555
H9 O5 1_555 1_555
H10 O5 1_555 1_555
Cd1O N2 1_555 1_555
Cd1M O3 1_555 1_555
N2O Cd1 1_555 1_555
O3O Cd1 1_555 1_555
O3N Cd1 1_555 1_555
O4N Cd1 1_555 1_555
C1 O2 1_555 1_555
C6 C7 1_555 1_555
C12 C13 1_555 1_555
N1 N2 1_555 1_555
O3 Cd1O 1_555 1_555
O4 Cd1M 1_555 1_555

#END
