
#######################################################################
#
#                 Cambridge Crystallographic Data Centre
#                                CCDC 
#
#######################################################################
#
# If this CIF has been generated from an entry in the Cambridge 
# Structural Database, then it will include bibliographic, chemical, 
# crystal, experimental, refinement or atomic coordinate data resulting 
# from the CCDC's data processing and validation procedures.
#
#######################################################################

data_QOBWEJ
_chemical_formula_moiety         '(C6 H24 N4 O16 P4 Zn4)n'
_symmetry_cell_setting           monoclinic
_symmetry_space_group_name_H-M   'P 21'
_symmetry_Int_Tables_number      4
_space_group_name_Hall           'P 2yb'
loop_
_symmetry_equiv_pos_site_id
_symmetry_equiv_pos_as_xyz
1 x,y,z
2 -x,1/2+y,-z
_cell_length_a                   10.200(1)
_cell_length_b                   9.9980(2)
_cell_length_c                   10.4471(2)
_cell_angle_alpha                90
_cell_angle_beta                 92.2420(10)
_cell_angle_gamma                90
_cell_volume                     1064.58
loop_
_atom_site_label
_atom_site_type_symbol
_atom_site_fract_x
_atom_site_fract_y
_atom_site_fract_z
Zn1 Zn 0.1372(1) 0.4235(1) 0.8927(1)
Zn2 Zn 0.3724(1) 0.0989(1) 1.1211(1)
Zn3 Zn 0.0830(1) 0.1501(1) 1.3988(1)
Zn4 Zn 0.5792(1) -0.1857(1) 1.3750(1)
P1 P -0.0718(2) 0.6713(2) 0.9058(2)
P2 P 0.3841(2) 0.0637(2) 1.4313(2)
P3 P 0.1144(2) 0.3968(2) 0.5878(2)
P4 P 0.4327(2) 0.3546(2) 0.9293(2)
O1 O 0.3194(5) 0.4568(7) 0.9309(6)
O2 O 0.0591(5) 0.5973(7) 0.9170(5)
O3 O 0.1009(5) 0.3448(7) 0.7242(5)
O4 O 0.0618(5) 0.2867(7) 0.9989(5)
O5 O 0.4297(6) 0.2620(7) 1.0459(5)
O6 O 0.4084(5) 0.1302(7) 1.3022(5)
O7 O 0.5631(5) 0.4294(7) 0.9384(5)
O8 O -0.1845(5) 0.5742(7) 0.9376(5)
O9 O 0.2367(4) 0.0553(8) 1.4566(5)
O10 O 0.0706(5) 0.5397(7) 0.5766(6)
O11 O 0.0327(5) 0.3089(7) 0.4967(5)
O12 O -0.0960(5) 0.7297(7) 0.7719(5)
O13 O 0.4345(5) -0.0800(7) 1.4345(5)
O14 O 0.4236(5) 0.2694(6) 0.8057(5)
O15 O 0.2610(5) 0.3953(7) 0.5527(5)
O16 O 0.4548(5) 0.1437(7) 1.5372(5)
O7A O 0.4369(5) -0.0706(7) 1.0616(5)
O8A O 0.1845(5) 0.0742(7) 1.0624(5)
O10A O -0.0706(5) 0.0397(7) 1.4234(6)
O11_2 O 0.0327(5) 0.3089(7) 1.4967(5)
O12A O 0.0960(5) 0.2297(7) 1.2281(5)
O14A O 0.5764(5) -0.2306(6) 1.1943(5)
O15A O 0.7390(5) -0.1047(7) 1.4473(5)
O16A O 0.5452(5) -0.3563(7) 1.4628(5)
O4A O -0.0618(5) 0.7867(7) 1.0011(5)
P1A P 0.0718(2) 0.1713(2) 1.0942(2)
Zn2A Zn 0.6276(1) 0.5989(1) 0.8789(1)
Zn2A_2 Zn -0.3724(1) 0.5989(1) 0.8789(1)
Zn3A Zn -0.0830(1) 0.6501(1) 0.6012(1)
Zn3_2 Zn 0.0830(1) 0.1501(1) 0.3988(1)
Zn4A Zn 0.4208(1) 0.3143(1) 0.6250(1)
Zn4A_2 Zn 0.4208(1) 0.3143(1) 1.6250(1)
Zn1A Zn -0.1372(1) 0.9235(1) 1.1073(1)
N1 N 0.7967(8) 0.5956(9) 0.2040(8)
N2 N 0.7430(7) 0.2452(9) 0.4440(7)
C1 C 0.8249(8) 0.4627(10) 0.2571(8)
C2 C 0.6955(9) 0.3795(11) 0.2522(9)
C3 C 0.7167(9) 0.2427(12) 0.3057(9)
H1 H 0.8699(8) 0.6442(9) 0.2062(8)
H2 H 0.7367(8) 0.6358(9) 0.2502(8)
H3 H 0.7664(8) 0.5876(9) 0.1233(8)
H4 H 0.7551(7) 0.1621(9) 0.4725(7)
H5 H 0.6751(7) 0.2817(9) 0.4820(7)
H6 H 0.8148(7) 0.2935(9) 0.4617(7)
H7 H 0.8585(8) 0.4706(10) 0.3449(8)
H8 H 0.8907(8) 0.4184(10) 0.2076(8)
H9 H 0.6299(9) 0.4254(11) 0.3008(9)
H10 H 0.6624(9) 0.3727(11) 0.1641(9)
H11 H 0.6394(9) 0.1887(12) 0.2867(9)
H12 H 0.7902(9) 0.2013(12) 0.2647(9)
N3 N 0.6918(7) -0.1049(8) 0.7082(7)
N4 N 0.7790(9) 0.2679(12) 0.9283(8)
C4 C 0.6751(8) 0.0306(11) 0.7563(8)
C5 C 0.8080(8) 0.1077(10) 0.7568(8)
C6 C 0.7985(10) 0.2478(13) 0.7930(9)
H13 H 0.6153(7) -0.1478(8) 0.7083(7)
H14 H 0.7504(7) -0.1481(8) 0.7581(7)
H15 H 0.7197(7) -0.1015(8) 0.6286(7)
H16 H 0.7739(9) 0.3551(12) 0.9445(8)
H17 H 0.8462(9) 0.2328(12) 0.9737(8)
H18 H 0.7050(9) 0.2281(12) 0.9497(8)
H19 H 0.6435(8) 0.0271(11) 0.8426(8)
H20 H 0.6104(8) 0.0774(11) 0.7027(8)
H21 H 0.8698(8) 0.0636(10) 0.8158(8)
H22 H 0.8430(8) 0.1024(10) 0.6720(8)
H23 H 0.8782(10) 0.2934(13) 0.7702(9)
H24 H 0.7260(10) 0.2884(13) 0.7443(9)
loop_
_geom_bond_atom_site_label_1
_geom_bond_atom_site_label_2
_geom_bond_site_symmetry_1
_geom_bond_site_symmetry_2
Zn1 O1 1_555 1_555
Zn2 O5 1_555 1_555
Zn3 O9 1_555 1_555
Zn4 O13 1_555 1_555
P1 O2 1_555 1_555
P2 O6 1_555 1_555
P3 O3 1_555 1_555
P4 O1 1_555 1_555
O2 Zn1 1_555 1_555
O3 Zn1 1_555 1_555
O4 Zn1 1_555 1_555
O5 P4 1_555 1_555
O6 Zn2 1_555 1_555
O7 P4 1_555 1_555
O8 P1 1_555 1_555
O9 P2 1_555 1_555
O10 P3 1_555 1_555
O11 P3 1_555 1_555
O12 P1 1_555 1_555
O13 P2 1_555 1_555
O14 P4 1_555 1_555
O15 P3 1_555 1_555
O16 P2 1_555 1_555
N1 C1 1_555 1_555
N2 C3 1_555 1_555
C1 C2 1_555 1_555
C2 C3 1_555 1_555
C3 H11 1_555 1_555
N3 C4 1_555 1_555
N4 C6 1_555 1_555
C4 C5 1_555 1_555
C5 C6 1_555 1_555
C6 H23 1_555 1_555
H1 N1 1_555 1_555
H2 N1 1_555 1_555
H3 N1 1_555 1_555
H4 N2 1_555 1_555
H5 N2 1_555 1_555
H6 N2 1_555 1_555
H7 C1 1_555 1_555
H8 C1 1_555 1_555
H9 C2 1_555 1_555
H10 C2 1_555 1_555
H12 C3 1_555 1_555
H13 N3 1_555 1_555
H14 N3 1_555 1_555
H15 N3 1_555 1_555
H16 N4 1_555 1_555
H17 N4 1_555 1_555
H18 N4 1_555 1_555
H19 C4 1_555 1_555
H20 C4 1_555 1_555
H21 C5 1_555 1_555
H22 C5 1_555 1_555
H24 C6 1_555 1_555
O7A Zn2 1_555 1_555
O8A Zn2 1_555 1_555
O10A Zn3 1_555 1_555
O11_2 Zn3 1_555 1_555
O12A Zn3 1_555 1_555
O14A Zn4 1_555 1_555
O15A Zn4 1_555 1_555
O16A Zn4 1_555 1_555
O4A P1 1_555 1_555
P1A O4 1_555 1_555
Zn2A O7 1_555 1_555
Zn2A_2 O8 1_555 1_555
Zn3A O10 1_555 1_555
Zn3_2 O11 1_555 1_555
Zn4A O14 1_555 1_555
Zn4A_2 O16 1_555 1_555
Zn1A O4A 1_555 1_555
O12 Zn3A 1_555 1_555
O15 Zn4A 1_555 1_555
O8A P1A 1_555 1_555
O12A P1A 1_555 1_555

#END
