
#######################################################################
#
#                 Cambridge Crystallographic Data Centre
#                                CCDC 
#
#######################################################################
#
# If this CIF has been generated from an entry in the Cambridge 
# Structural Database, then it will include bibliographic, chemical, 
# crystal, experimental, refinement or atomic coordinate data resulting 
# from the CCDC's data processing and validation procedures.
#
#######################################################################

data_GUPBEZ
_chemical_formula_moiety         '(C12 H24 Cu4 I4 N4)n'
_symmetry_cell_setting           tetragonal
_symmetry_space_group_name_H-M   'P 4/m c c'
_symmetry_Int_Tables_number      124
_space_group_name_Hall           '-P 4 2c'
loop_
_symmetry_equiv_pos_site_id
_symmetry_equiv_pos_as_xyz
1 x,y,z
2 -x,-y,z
3 -y,x,z
4 y,-x,z
5 -x,y,1/2-z
6 x,-y,1/2-z
7 y,x,1/2-z
8 -y,-x,1/2-z
9 -x,-y,-z
10 x,y,-z
11 y,-x,-z
12 -y,x,-z
13 x,-y,1/2+z
14 -x,y,1/2+z
15 -y,-x,1/2+z
16 y,x,1/2+z
_cell_length_a                   17.9914(2)
_cell_length_b                   17.9914(2)
_cell_length_c                   15.9344(3)
_cell_angle_alpha                90
_cell_angle_beta                 90
_cell_angle_gamma                90
_cell_volume                     5157.81
loop_
_atom_site_label
_atom_site_type_symbol
_atom_site_fract_x
_atom_site_fract_y
_atom_site_fract_z
_atom_site_U_iso_or_equiv
_atom_site_thermal_displace_type
C1 C 0.3071(2) 0.1272(2) 0.4248(3) 0.0183 Uani
H1 H 0.3523 0.1566 0.4245 0.0220 Uiso
H2 H 0.2791 0.1390 0.3746 0.0220 Uiso
C2 C 0.1940(3) 0.0996(3) 0.5000 0.0137 Uani
H3 H 0.1644 0.1109 0.4507 0.0170 Uiso
C3 C 0.2150(3) 0.0162(3) 0.5000 0.0143 Uani
H4 H 0.1940 -0.0075 0.5493 0.0170 Uiso
C4 C 0.3274(2) 0.0439(2) 0.4244(3) 0.0131 Uani
H5 H 0.3074 0.0207 0.3743 0.0160 Uiso
H6 H 0.3810 0.0384 0.4234 0.0160 Uiso
C5 C 0.1547(2) 0.4659(2) 0.2786(3) 0.0150 Uani
H7 H 0.1204 0.4736 0.3247 0.0180 Uiso
H8 H 0.1384 0.4227 0.2472 0.0180 Uiso
C6 C 0.2641(2) 0.5259(2) 0.3369(3) 0.0145 Uani
H9 H 0.3114 0.5179 0.3647 0.0170 Uiso
H10 H 0.2312 0.5508 0.3761 0.0170 Uiso
C7 C 0.2759(2) 0.4242(2) 0.2412(3) 0.0153 Uani
H11 H 0.2611 0.3737 0.2284 0.0180 Uiso
H12 H 0.3281 0.4239 0.2564 0.0180 Uiso
N1 N 0.23129(18) 0.45278(18) 0.3122(2) 0.0114 Uani
N2 N 0.2623(3) 0.1464(2) 0.5000 0.0100 Uani
N3 N 0.2968(3) 0.0063(3) 0.5000 0.0113 Uani
Cu1 Cu 0.23186(4) 0.25704(4) 0.5000 0.0126 Uani
Cu2 Cu 0.21989(3) 0.38360(3) 0.41613(3) 0.0133 Uani
Cu3 Cu 0.32211(4) -0.10562(4) 0.5000 0.0121 Uani
I1 I 0.11624(2) 0.468027(19) 0.5000 0.0119 Uani
I2 I 0.153778(14) 0.263967(14) 0.353943(17) 0.0120 Uani
I3 I 0.342734(19) 0.35571(2) 0.5000 0.0130 Uani
C1I C 0.3071(2) 0.1272(2) 0.5752(3) 0.0183 Uani
H1I H 0.3523 0.1566 0.5755 0.0220 Uiso
H2I H 0.2791 0.1390 0.6254 0.0220 Uiso
H3I H 0.1644 0.1109 0.5493 0.0170 Uiso
H4I H 0.1940 -0.0075 0.4507 0.0170 Uiso
C4I C 0.3274(2) 0.0439(2) 0.5756(3) 0.0131 Uani
H5I H 0.3074 0.0207 0.6257 0.0160 Uiso
H6I H 0.3810 0.0384 0.5766 0.0160 Uiso
C5E C 0.1547(2) 0.5341(2) 0.2214(3) 0.0150 Uani
H7E H 0.1204 0.5264 0.1753 0.0180 Uiso
H8E H 0.1384 0.5773 0.2528 0.0180 Uiso
C6E C 0.2641(2) 0.4741(2) 0.1631(3) 0.0145 Uani
H9E H 0.3114 0.4821 0.1353 0.0170 Uiso
H10E H 0.2312 0.4492 0.1239 0.0170 Uiso
C7E C 0.2759(2) 0.5758(2) 0.2588(3) 0.0153 Uani
H11E H 0.2611 0.6263 0.2716 0.0180 Uiso
H12E H 0.3281 0.5761 0.2436 0.0180 Uiso
N1E N 0.23129(18) 0.54722(18) 0.1878(2) 0.0114 Uani
N1I N 0.23129(18) 0.45278(18) 0.6878(2) 0.0114 Uani
Cu1C Cu 0.25704(4) -0.23186(4) 0.5000 0.0126 Uani
Cu2I Cu 0.21989(3) 0.38360(3) 0.58387(3) 0.0133 Uani
Cu2C Cu 0.38360(3) -0.21989(3) 0.41613(3) 0.0133 Uani
Cu2J Cu 0.38360(3) -0.21989(3) 0.58387(3) 0.0133 Uani
Cu2E Cu 0.21989(3) 0.61640(3) 0.08387(3) 0.0133 Uani
Cu3B Cu 0.10562(4) 0.32211(4) 0.5000 0.0121 Uani
I1C I 0.468027(19) -0.11624(2) 0.5000 0.0119 Uani
I2I I 0.153778(14) 0.263967(14) 0.646057(17) 0.0120 Uani
I2C I 0.263967(14) -0.153778(14) 0.353943(17) 0.0120 Uani
I2J I 0.263967(14) -0.153778(14) 0.646057(17) 0.0120 Uani
loop_
_atom_site_aniso_label
_atom_site_aniso_U_11
_atom_site_aniso_U_22
_atom_site_aniso_U_33
_atom_site_aniso_U_23
_atom_site_aniso_U_13
_atom_site_aniso_U_12
C1 0.020(2) 0.014(2) 0.021(2) 0.0027(18) 0.0100(19) 0.0033(16)
C2 0.011(3) 0.008(3) 0.022(3) 0.000 0.000 -0.003(2)
C3 0.009 0.011 0.023 0 0 -0.001
C4 0.0137 0.0135 0.012 0.0013 0.0039 -0.0004
C5 0.015(2) 0.015(2) 0.015(2) 0.0035(17) -0.0003(17) 0.0001(16)
C6 0.015(2) 0.0146(19) 0.014(2) -0.0027(17) -0.0032(17) -0.0002(15)
C7 0.019(2) 0.0118(18) 0.015(2) -0.0001(17) 0.0008(18) 0.0012(15)
N1 0.0113(16) 0.0118(16) 0.0111(18) 0.0011(14) -0.0009(14) 0.0007(12)
N2 0.011(2) 0.007(2) 0.012(2) 0.000 0.000 -0.0005(17)
N3 0.011 0.01 0.013 0 0 0.0016
Cu1 0.0130(3) 0.0079(3) 0.0169(4) 0.000 0.000 0.0017(3)
Cu2 0.0152(2) 0.0122(2) 0.0125(3) 0.0029(2) -0.0012(2) -0.00050(18)
Cu3 0.012 0.0085 0.0159 0 0 0.0012
I1 0.01373(18) 0.00917(17) 0.01266(19) 0.000 0.000 0.00249(13)
I2 0.01447(13) 0.01042(12) 0.01099(13) -0.00090(10) -0.00002(10) 0.00007(9)
I3 0.00865(17) 0.01435(18) 0.01585(19) 0.000 0.000 0.00020(13)
C1I 0.02 0.014 0.021 -0.0027 -0.01 0.0033
C4I 0.0137 0.0135 0.012 -0.0013 -0.0039 -0.0004
C5E 0.015 0.015 0.015 0.0035 0.0003 -0.0001
C6E 0.015 0.0146 0.014 -0.0027 0.0032 0.0002
C7E 0.019 0.0118 0.015 -0.0001 -0.0008 -0.0012
N1E 0.0113 0.0118 0.0111 0.0011 0.0009 -0.0007
N1I 0.0113 0.0118 0.0111 -0.0011 0.0009 0.0007
Cu1C 0.0079 0.013 0.0169 0 0 -0.0017
Cu2I 0.0152 0.0122 0.0125 -0.0029 0.0012 -0.0005
Cu2C 0.0122 0.0152 0.0125 0.0012 0.0029 0.0005
Cu2J 0.0122 0.0152 0.0125 -0.0012 -0.0029 0.0005
Cu2E 0.0152 0.0122 0.0125 0.0029 0.0012 0.0005
Cu3B 0.0085(3) 0.0120(3) 0.0159(4) 0.000 0.000 -0.0012(3)
I1C 0.00917 0.01373 0.01266 0 0 -0.00249
I2I 0.01447 0.01042 0.01099 0.0009 2e-05 7e-05
I2C 0.01042 0.01447 0.01099 2e-05 -0.0009 -7e-05
I2J 0.01042 0.01447 0.01099 -2e-05 0.0009 -7e-05
loop_
_geom_bond_atom_site_label_1
_geom_bond_atom_site_label_2
_geom_bond_site_symmetry_1
_geom_bond_site_symmetry_2
C1 H1 1_555 1_555
H2 C1 1_555 1_555
C2 H3 1_555 1_555
C3 C2 1_555 1_555
H4 C3 1_555 1_555
C4 C1 1_555 1_555
H5 C4 1_555 1_555
H6 C4 1_555 1_555
C5 H7 1_555 1_555
H8 C5 1_555 1_555
C6 H9 1_555 1_555
H10 C6 1_555 1_555
C7 H11 1_555 1_555
H12 C7 1_555 1_555
N1 C5 1_555 1_555
N2 C1 1_555 1_555
N3 C3 1_555 1_555
Cu1 N2 1_555 1_555
Cu2 N1 1_555 1_555
Cu3 N3 1_555 1_555
I1 Cu2 1_555 1_555
I2 Cu1 1_555 1_555
I3 Cu1 1_555 1_555
C1I N2 1_555 1_555
H1I C1I 1_555 1_555
H2I C1I 1_555 1_555
H3I C2 1_555 1_555
H4I C3 1_555 1_555
C4I N3 1_555 1_555
H5I C4I 1_555 1_555
H6I C4I 1_555 1_555
C5E C5 1_555 1_555
H7E C5E 1_555 1_555
H8E C5E 1_555 1_555
C6E C7 1_555 1_555
H9E C6E 1_555 1_555
H10E C6E 1_555 1_555
C7E C6 1_555 1_555
H11E C7E 1_555 1_555
H12E C7E 1_555 1_555
N1E C5E 1_555 1_555
N1I Cu2I 1_555 1_555
Cu1C Cu3 1_555 1_555
Cu2I Cu1 1_555 1_555
Cu2C Cu3 1_555 1_555
Cu2J Cu3 1_555 1_555
Cu2E N1E 1_555 1_555
Cu3B Cu1 1_555 1_555
I1C Cu3 1_555 1_555
I2I Cu1 1_555 1_555
I2C Cu3 1_555 1_555
I2J Cu3 1_555 1_555
C2 N2 1_555 1_555
C4 N3 1_555 1_555
C6 N1 1_555 1_555
C7 N1 1_555 1_555
Cu1 Cu2 1_555 1_555
Cu2 I2 1_555 1_555
Cu2 I3 1_555 1_555
Cu2 Cu2I 1_555 1_555
Cu2 Cu3B 1_555 1_555
I1 Cu2I 1_555 1_555
I1 Cu3B 1_555 1_555
I2 Cu3B 1_555 1_555
I3 Cu2I 1_555 1_555
C1I C4I 1_555 1_555
C6E N1E 1_555 1_555
C7E N1E 1_555 1_555
Cu1C Cu2C 1_555 1_555
Cu1C Cu2J 1_555 1_555
Cu1C I2C 1_555 1_555
Cu1C I2J 1_555 1_555
Cu2I Cu3B 1_555 1_555
Cu2I I2I 1_555 1_555
Cu2C Cu2J 1_555 1_555
Cu2C I1C 1_555 1_555
Cu2C I2C 1_555 1_555
Cu2J I1C 1_555 1_555
Cu2J I2J 1_555 1_555
Cu3B I2I 1_555 1_555

#END
