
#######################################################################
#
#                 Cambridge Crystallographic Data Centre
#                                CCDC 
#
#######################################################################
#
# If this CIF has been generated from an entry in the Cambridge 
# Structural Database, then it will include bibliographic, chemical, 
# crystal, experimental, refinement or atomic coordinate data resulting 
# from the CCDC's data processing and validation procedures.
#
#######################################################################

data_GUPBEZ01
_chemical_formula_moiety         '(C12 H24 Cu4 I4 N4)n'
_symmetry_cell_setting           tetragonal
_symmetry_space_group_name_H-M   'P 4/m c c'
_symmetry_Int_Tables_number      124
_space_group_name_Hall           '-P 4 2c'
loop_
_symmetry_equiv_pos_site_id
_symmetry_equiv_pos_as_xyz
1 x,y,z
2 x,-y,1/2-z
3 -x,-y,z
4 -x,y,1/2-z
5 y,x,1/2-z
6 y,-x,z
7 -y,x,z
8 -y,-x,1/2-z
9 -x,-y,-z
10 -x,y,1/2+z
11 x,y,-z
12 x,-y,1/2+z
13 -y,-x,1/2+z
14 -y,x,-z
15 y,-x,-z
16 y,x,1/2+z
_cell_length_a                   18.2095(14)
_cell_length_b                   18.2095(14)
_cell_length_c                   16.0985(17)
_cell_angle_alpha                90
_cell_angle_beta                 90
_cell_angle_gamma                90
_cell_volume                     5338.04
loop_
_atom_site_label
_atom_site_type_symbol
_atom_site_fract_x
_atom_site_fract_y
_atom_site_fract_z
_atom_site_U_iso_or_equiv
_atom_site_thermal_displace_type
N1 N 0.2603(3) 0.1482(3) 0.0000 0.0357 Uani
N2 N 0.2954(3) 0.0099(3) 0.0000 0.0350 Uani
N3 N 0.2249(3) 0.4544(2) 0.1877(3) 0.0400 Uani
C1 C 0.2143(4) 0.0198(4) 0.0000 0.0423 Uani
H1 H 0.1937 -0.0038 0.0487 0.0510 Uiso
C2 C 0.1930(4) 0.1011(4) 0.0000 0.0463 Uani
H2 H 0.1637 0.1119 -0.0488 0.0560 Uiso
C3 C 0.2584(4) 0.5251(3) 0.1653(4) 0.0487 Uani
H3 H 0.2284 0.5493 0.1237 0.0590 Uiso
H4 H 0.3067 0.5166 0.1416 0.0590 Uiso
C4 C 0.3251(3) 0.0474(3) 0.0747(4) 0.0443 Uani
H5 H 0.3782 0.0428 0.0757 0.0530 Uiso
H6 H 0.3058 0.0242 0.1244 0.0530 Uiso
C5 C 0.1498(3) 0.4689(4) 0.2188(4) 0.0543 Uani
H7 H 0.1305 0.4248 0.2447 0.0650 Uiso
H8 H 0.1181 0.4814 0.1725 0.0650 Uiso
C6 C 0.3036(4) 0.1295(3) 0.0740(4) 0.0507 Uani
H9 H 0.2753 0.1407 0.1234 0.0610 Uiso
H10 H 0.3478 0.1593 0.0752 0.0610 Uiso
C7 C 0.2655(4) 0.4250(3) 0.2577(5) 0.0553 Uani
H11 H 0.3169 0.4204 0.2428 0.0660 Uiso
H12 H 0.2471 0.3765 0.2710 0.0660 Uiso
I1 I 0.11118(3) 0.46567(3) 0.0000 0.0423 Uani
I2 I 0.15147(2) 0.26530(2) 0.14456(3) 0.0436 Uani
I3 I 0.33702(3) 0.35833(3) 0.0000 0.0484 Uani
Cu1 Cu 0.10134(6) 0.32099(6) 0.0000 0.0457 Uani
Cu2 Cu 0.22911(6) 0.25812(6) 0.0000 0.0469 Uani
Cu3 Cu 0.21480(5) 0.38572(4) 0.08372(5) 0.0494 Uani
N2F N -0.0099(3) 0.2954(3) 0.0000 0.0350 Uani
N3A N 0.2249(3) 0.5456(2) 0.3123(3) 0.0400 Uani
H1J H 0.1937 -0.0038 -0.0487 0.0510 Uiso
H2J H 0.1637 0.1119 0.0488 0.0560 Uiso
C3A C 0.2584(4) 0.4749(3) 0.3347(4) 0.0487 Uani
H3A H 0.2284 0.4507 0.3763 0.0590 Uiso
H4A H 0.3067 0.4834 0.3584 0.0590 Uiso
C4J C 0.3251(3) 0.0474(3) -0.0747(4) 0.0443 Uani
H5J H 0.3782 0.0428 -0.0757 0.0530 Uiso
H6J H 0.3058 0.0242 -0.1244 0.0530 Uiso
C5A C 0.1498(3) 0.5311(4) 0.2812(4) 0.0543 Uani
H7A H 0.1305 0.5752 0.2553 0.0650 Uiso
H8A H 0.1181 0.5186 0.3275 0.0650 Uiso
C6J C 0.3036(4) 0.1295(3) -0.0740(4) 0.0507 Uani
H9J H 0.2753 0.1407 -0.1234 0.0610 Uiso
H10J H 0.3478 0.1593 -0.0752 0.0610 Uiso
C7A C 0.2655(4) 0.5750(3) 0.2423(5) 0.0553 Uani
H11A H 0.3169 0.5796 0.2572 0.0660 Uiso
H12A H 0.2471 0.6235 0.2290 0.0660 Uiso
I1A I 0.11118(3) 0.53433(3) 0.5000 0.0423 Uani
I2A I 0.15147(2) 0.73470(2) 0.35544(3) 0.0436 Uani
I2J I 0.15147(2) 0.26530(2) -0.14456(3) 0.0436 Uani
I3A I 0.33702(3) 0.64167(3) 0.5000 0.0484 Uani
Cu1E Cu 0.32099(6) -0.10134(6) 0.0000 0.0457 Uani
Cu1A Cu 0.10134(6) 0.67901(6) 0.5000 0.0457 Uani
Cu2A Cu 0.22911(6) 0.74188(6) 0.5000 0.0469 Uani
Cu3A Cu 0.21480(5) 0.61428(4) 0.41628(5) 0.0494 Uani
Cu3J Cu 0.21480(5) 0.38572(4) -0.08372(5) 0.0494 Uani
Cu3K Cu 0.21480(5) 0.61428(4) 0.58372(5) 0.0494 Uani
loop_
_atom_site_aniso_label
_atom_site_aniso_U_11
_atom_site_aniso_U_22
_atom_site_aniso_U_33
_atom_site_aniso_U_23
_atom_site_aniso_U_13
_atom_site_aniso_U_12
N1 0.034(4) 0.024(3) 0.049(4) 0.000 0.000 -0.001(3)
N2 0.035(4) 0.028(3) 0.042(4) 0.000 0.000 0.003(3)
N3 0.049(3) 0.038(3) 0.033(3) -0.004(2) -0.004(2) -0.003(2)
C1 0.028(4) 0.039(5) 0.060(6) 0.000 0.000 -0.004(4)
C2 0.034(4) 0.037(5) 0.068(7) 0.000 0.000 -0.001(4)
C3 0.058(4) 0.054(4) 0.034(4) 0.003(3) 0.005(3) -0.004(3)
C4 0.039(3) 0.044(3) 0.050(4) 0.002(3) -0.011(3) 0.004(3)
C5 0.043(4) 0.072(5) 0.048(4) -0.021(3) 0.004(3) -0.005(3)
C6 0.050(4) 0.045(4) 0.057(4) -0.003(3) -0.021(3) 0.005(3)
C7 0.069(4) 0.043(4) 0.054(4) -0.006(3) 0.000(4) 0.009(3)
I1 0.0505(3) 0.0325(3) 0.0440(3) 0.000 0.000 0.0079(2)
I2 0.0548(3) 0.0376(2) 0.0383(2) 0.00314(18) 0.00122(19) -0.00002(17)
I3 0.0340(3) 0.0517(4) 0.0595(4) 0.000 0.000 0.0004(3)
Cu1 0.0333(6) 0.0444(6) 0.0594(7) 0.000 0.000 -0.0036(5)
Cu2 0.0510(7) 0.0310(5) 0.0588(8) 0.000 0.000 0.0066(5)
Cu3 0.0599(5) 0.0456(4) 0.0428(5) -0.0109(4) 0.0044(4) -0.0008(4)
N2F 0.028 0.035 0.042 0 0 -0.003
N3A 0.049 0.038 0.033 -0.004 0.004 0.003
C3A 0.058 0.054 0.034 0.003 -0.005 0.004
C4J 0.039 0.044 0.05 -0.002 0.011 0.004
C5A 0.043 0.072 0.048 -0.021 -0.004 0.005
C6J 0.05 0.045 0.057 0.003 0.021 0.005
C7A 0.069 0.043 0.054 -0.006 0 -0.009
I1A 0.0505 0.0325 0.044 0 0 -0.0079
I2A 0.0548 0.0376 0.0383 0.00314 -0.00122 2e-05
I2J 0.0548 0.0376 0.0383 -0.00314 -0.00122 -2e-05
I3A 0.034 0.0517 0.0595 0 0 -0.0004
Cu1E 0.0444 0.0333 0.0594 0 0 0.0036
Cu1A 0.0333 0.0444 0.0594 0 0 0.0036
Cu2A 0.051 0.031 0.0588 0 0 -0.0066
Cu3A 0.0599 0.0456 0.0428 -0.0109 -0.0044 0.0008
Cu3J 0.0599 0.0456 0.0428 0.0109 -0.0044 -0.0008
Cu3K 0.0599 0.0456 0.0428 0.0109 0.0044 0.0008
loop_
_geom_bond_atom_site_label_1
_geom_bond_atom_site_label_2
_geom_bond_site_symmetry_1
_geom_bond_site_symmetry_2
N1 C2 1_555 1_555
N2 C1 1_555 1_555
N3 C3 1_555 1_555
C1 H1 1_555 1_555
C2 C1 1_555 1_555
H2 C2 1_555 1_555
C3 H3 1_555 1_555
H4 C3 1_555 1_555
C4 N2 1_555 1_555
H5 C4 1_555 1_555
H6 C4 1_555 1_555
C5 N3 1_555 1_555
H7 C5 1_555 1_555
H8 C5 1_555 1_555
C6 N1 1_555 1_555
H9 C6 1_555 1_555
H10 C6 1_555 1_555
C7 N3 1_555 1_555
H11 C7 1_555 1_555
H12 C7 1_555 1_555
I1 Cu1 1_555 1_555
I2 Cu1 1_555 1_555
I3 Cu2 1_555 1_555
Cu1 Cu2 1_555 1_555
Cu2 N1 1_555 1_555
Cu3 N3 1_555 1_555
N2F Cu1 1_555 1_555
N3A C3A 1_555 1_555
H1J C1 1_555 1_555
H2J C2 1_555 1_555
C3A C7 1_555 1_555
H3A C3A 1_555 1_555
H4A C3A 1_555 1_555
C4J N2 1_555 1_555
H5J C4J 1_555 1_555
H6J C4J 1_555 1_555
C5A C5 1_555 1_555
H7A C5A 1_555 1_555
H8A C5A 1_555 1_555
C6J N1 1_555 1_555
H9J C6J 1_555 1_555
H10J C6J 1_555 1_555
C7A C3 1_555 1_555
H11A C7A 1_555 1_555
H12A C7A 1_555 1_555
I1A Cu1A 1_555 1_555
I2A Cu1A 1_555 1_555
I2J Cu1 1_555 1_555
I3A Cu2A 1_555 1_555
Cu1E N2 1_555 1_555
Cu1A Cu2A 1_555 1_555
Cu2A I2A 1_555 1_555
Cu3A N3A 1_555 1_555
Cu3J I1 1_555 1_555
Cu3K I1A 1_555 1_555
C4 C6 1_555 1_555
I1 Cu3 1_555 1_555
I2 Cu2 1_555 1_555
I2 Cu3 1_555 1_555
I3 Cu3 1_555 1_555
I3 Cu3J 1_555 1_555
Cu1 Cu3 1_555 1_555
Cu1 Cu3J 1_555 1_555
Cu2 Cu3 1_555 1_555
Cu2 I2J 1_555 1_555
Cu2 Cu3J 1_555 1_555
Cu3 Cu3J 1_555 1_555
N3A C5A 1_555 1_555
N3A C7A 1_555 1_555
C4J C6J 1_555 1_555
I1A Cu3A 1_555 1_555
I2A Cu3A 1_555 1_555
I2J Cu3J 1_555 1_555
I3A Cu3A 1_555 1_555
I3A Cu3K 1_555 1_555
Cu1A Cu3A 1_555 1_555
Cu1A Cu3K 1_555 1_555
Cu2A Cu3A 1_555 1_555
Cu2A Cu3K 1_555 1_555
Cu3A Cu3K 1_555 1_555

#END
