
#######################################################################
#
#                 Cambridge Crystallographic Data Centre
#                                CCDC 
#
#######################################################################
#
# If this CIF has been generated from an entry in the Cambridge 
# Structural Database, then it will include bibliographic, chemical, 
# crystal, experimental, refinement or atomic coordinate data resulting 
# from the CCDC's data processing and validation procedures.
#
#######################################################################

data_EBISAM
_chemical_formula_moiety         '(C41 H47 N9 O9 Zn2)n'
_symmetry_cell_setting           monoclinic
_symmetry_space_group_name_H-M   'P 21/c'
_symmetry_Int_Tables_number      14
_space_group_name_Hall           '-P 2ybc'
loop_
_symmetry_equiv_pos_site_id
_symmetry_equiv_pos_as_xyz
1 x,y,z
2 -x,1/2+y,1/2-z
3 -x,-y,-z
4 x,1/2-y,1/2+z
_cell_length_a                   10.73257(16)
_cell_length_b                   23.2562(3)
_cell_length_c                   9.76351(17)
_cell_angle_alpha                90
_cell_angle_beta                 105.3925(17)
_cell_angle_gamma                90
_cell_volume                     2349.55
loop_
_atom_site_label
_atom_site_type_symbol
_atom_site_fract_x
_atom_site_fract_y
_atom_site_fract_z
Zn1 Zn 0.32959(2) 0.10066(2) -0.03161(2)
O1 O 0.40038(17) 0.05229(7) 0.13505(15)
O2 O 0.2617(7) 0.0856(4) 0.2387(7)
C1 C 0.36561(19) 0.06196(9) 0.2444(2)
C2 C 0.43555(16) 0.02944(8) 0.37701(18)
C3 C 0.42158(18) 0.04654(8) 0.50908(19)
H1 H 0.3682 0.0785 0.5155
C4 C 0.51446(17) -0.01704(8) 0.36862(18)
H2 H 0.5248 -0.0287 0.2790
O3 O 0.20189(13) 0.04966(6) -0.15658(13)
O4 O 0.23223(14) 0.10991(6) -0.32105(14)
C5 C 0.18044(16) 0.06701(7) -0.28564(17)
C6 C 0.08696(16) 0.03222(7) -0.39611(17)
C7 C 0.08403(16) 0.03845(7) -0.53980(18)
H3 H 0.1410 0.0647 -0.5670
C8 C 0.00239(16) -0.00617(7) -0.35761(17)
H4 H 0.0038 -0.0103 -0.2604
N1 N 0.50307(15) 0.11060(7) -0.07454(17)
N2 N 0.70333(15) 0.09420(7) -0.07984(18)
N3 N 1.14021(16) 0.24236(7) 0.42133(17)
N4 N 1.26240(15) 0.31933(6) 0.47139(16)
C9 C 0.60756(17) 0.07871(7) -0.02302(18)
H5 H 0.6137 0.0489 0.0450
C10 C 0.53481(19) 0.14817(8) -0.1689(2)
H6 H 0.4787 0.1763 -0.2231
C11 C 0.6588(2) 0.13869(9) -0.1724(2)
H7 H 0.7054 0.1588 -0.2276
C12 C 0.83288(17) 0.06813(9) -0.0479(2)
H8 H 0.8468 0.0513 -0.1358
H9 H 0.8384 0.0367 0.0218
C13 C 0.93836(18) 0.11220(9) 0.0119(2)
H10 H 0.9356 0.1423 -0.0606
H11 H 1.0235 0.0930 0.0310
C14 C 0.92610(18) 0.14087(8) 0.1483(2)
H12 H 0.9214 0.1108 0.2186
H13 H 0.8447 0.1632 0.1277
C15 C 1.03958(18) 0.18090(9) 0.2125(2)
H14 H 1.1217 0.1595 0.2259
H15 H 1.0399 0.2131 0.1461
C16 C 1.0308(2) 0.20478(9) 0.3541(2)
H16 H 0.9494 0.2268 0.3396
H17 H 1.0276 0.1724 0.4189
C17 C 1.2414(2) 0.22841(9) 0.5345(2)
H18 H 1.2568 0.1924 0.5821
C18 C 1.3155(2) 0.27645(9) 0.5649(2)
H19 H 1.3925 0.2798 0.6397
C19 C 1.15598(17) 0.29731(7) 0.38620(19)
H20 H 1.0987 0.3175 0.3107
O1B O 0.59962(17) -0.05229(7) 0.86495(15)
O2B O 0.7383(7) -0.0856(4) 0.7613(7)
C1B C 0.63439(19) -0.06196(9) 0.7556(2)
C2B C 0.56445(16) -0.02944(8) 0.62299(18)
C3B C 0.57842(18) -0.04654(8) 0.49092(19)
H1B H 0.6318 -0.0785 0.4845
C4B C 0.48554(17) 0.01704(8) 0.63138(18)
H2B H 0.4752 0.0287 0.7210
O3B O -0.20189(13) -0.04966(6) -0.84342(13)
O4B O -0.23223(14) -0.10991(6) -0.67895(14)
C5B C -0.18044(16) -0.06701(7) -0.71436(17)
C6B C -0.08696(16) -0.03222(7) -0.60389(17)
C7B C -0.08403(16) -0.03845(7) -0.46020(18)
H3B H -0.1410 -0.0647 -0.4330
C8B C -0.00239(16) 0.00617(7) -0.64239(17)
H4B H -0.0038 0.0103 -0.7396
Zn1B Zn -0.32959(2) -0.10066(2) -0.96839(2)
N1B N -0.50307(15) -0.11060(7) -0.92546(17)
N2B N -0.70333(15) -0.09420(7) -0.92016(18)
N3B N -1.14021(16) -0.24236(7) -1.42133(17)
N4B N -1.26240(15) -0.31933(6) -1.47139(16)
C9B C -0.60756(17) -0.07871(7) -0.97698(18)
H5B H -0.6137 -0.0489 -1.0450
C10B C -0.53481(19) -0.14817(8) -0.8311(2)
H6B H -0.4787 -0.1763 -0.7769
C11B C -0.6588(2) -0.13869(9) -0.8276(2)
H7B H -0.7054 -0.1588 -0.7724
C12B C -0.83288(17) -0.06813(9) -0.9521(2)
H8B H -0.8468 -0.0513 -0.8642
H9B H -0.8384 -0.0367 -1.0218
C13B C -0.93836(18) -0.11220(9) -1.0119(2)
H10B H -0.9356 -0.1423 -0.9394
H11B H -1.0235 -0.0930 -1.0310
C14B C -0.92610(18) -0.14087(8) -1.1483(2)
H12B H -0.9214 -0.1108 -1.2186
H13B H -0.8447 -0.1632 -1.1277
C15B C -1.03958(18) -0.18090(9) -1.2125(2)
H14B H -1.1217 -0.1595 -1.2259
H15B H -1.0399 -0.2131 -1.1461
C16B C -1.0308(2) -0.20478(9) -1.3541(2)
H16B H -0.9494 -0.2268 -1.3396
H17B H -1.0276 -0.1724 -1.4189
C17B C -1.2414(2) -0.22841(9) -1.5345(2)
H18B H -1.2568 -0.1924 -1.5821
C18B C -1.3155(2) -0.27645(9) -1.5649(2)
H19B H -1.3925 -0.2798 -1.6397
C19B C -1.15598(17) -0.29731(7) -1.38620(19)
H20B H -1.0987 -0.3175 -1.3107
Zn1A Zn -1.32959(2) -0.39934(2) -1.46839(2)
Zn1B_2 Zn 0.67041(2) -0.10066(2) 1.03161(2)
Zn1C Zn 1.32959(2) 0.39934(2) 0.46839(2)
O1B_2 O -0.40038(17) -0.05229(7) -1.13505(15)
N4A N -0.26240(15) -0.18067(6) -0.97139(16)
N4C N 0.26240(15) 0.18067(6) -0.02861(16)
O6 O 0.8723(2) 0.19206(12) 0.6554(2)
N5 N 0.72627(19) 0.16072(9) 0.4583(2)
C20 C 0.7866(3) 0.20204(13) 0.5457(3)
H21 H 0.7625 0.2409 0.5226
C21 C 0.7567(3) 0.10130(12) 0.4870(4)
H22 H 0.7616 0.0820 0.3994
H23 H 0.6892 0.0832 0.5231
H24 H 0.8400 0.0980 0.5583
C22 C 0.6224(4) 0.17392(18) 0.3342(4)
H25 H 0.6271 0.1482 0.2563
H26 H 0.6303 0.2139 0.3058
H27 H 0.5393 0.1687 0.3564
loop_
_geom_bond_atom_site_label_1
_geom_bond_atom_site_label_2
_geom_bond_site_symmetry_1
_geom_bond_site_symmetry_2
Zn1 O1 1_555 1_555
O1 C1 1_555 1_555
O2 C1 1_555 1_555
C1 C2 1_555 1_555
C2 C3 1_555 1_555
C3 H1 1_555 1_555
C4 C2 1_555 1_555
H2 C4 1_555 1_555
O3 Zn1 1_555 1_555
O4 C5 1_555 1_555
C5 O3 1_555 1_555
C6 C5 1_555 1_555
C7 C6 1_555 1_555
H3 C7 1_555 1_555
C8 C6 1_555 1_555
H4 C8 1_555 1_555
N1 Zn1 1_555 1_555
N2 C9 1_555 1_555
N3 C16 1_555 1_555
N4 C18 1_555 1_555
C9 N1 1_555 1_555
H5 C9 1_555 1_555
C10 N1 1_555 1_555
H6 C10 1_555 1_555
C11 N2 1_555 1_555
H7 C11 1_555 1_555
C12 N2 1_555 1_555
H8 C12 1_555 1_555
H9 C12 1_555 1_555
C13 C12 1_555 1_555
H10 C13 1_555 1_555
H11 C13 1_555 1_555
C14 C13 1_555 1_555
H12 C14 1_555 1_555
H13 C14 1_555 1_555
C15 C14 1_555 1_555
H14 C15 1_555 1_555
H15 C15 1_555 1_555
C16 C15 1_555 1_555
H16 C16 1_555 1_555
H17 C16 1_555 1_555
C17 N3 1_555 1_555
H18 C17 1_555 1_555
C18 C17 1_555 1_555
H19 C18 1_555 1_555
C19 N3 1_555 1_555
H20 C19 1_555 1_555
O6 C20 1_555 1_555
N5 C20 1_555 1_555
C20 H21 1_555 1_555
C21 N5 1_555 1_555
H22 C21 1_555 1_555
H23 C21 1_555 1_555
H24 C21 1_555 1_555
C22 N5 1_555 1_555
H25 C22 1_555 1_555
H26 C22 1_555 1_555
H27 C22 1_555 1_555
O1B C1B 1_555 1_555
O2B C1B 1_555 1_555
C1B C2B 1_555 1_555
C2B C3B 1_555 1_555
C3B C4 1_555 1_555
H1B C3B 1_555 1_555
C4B C3 1_555 1_555
H2B C4B 1_555 1_555
O3B C5B 1_555 1_555
O4B C5B 1_555 1_555
C5B C6B 1_555 1_555
C6B C7B 1_555 1_555
C7B C8 1_555 1_555
H3B C7B 1_555 1_555
C8B C7 1_555 1_555
H4B C8B 1_555 1_555
Zn1B O3B 1_555 1_555
N1B Zn1B 1_555 1_555
N2B C9B 1_555 1_555
N3B C16B 1_555 1_555
N4B C18B 1_555 1_555
C9B N1B 1_555 1_555
H5B C9B 1_555 1_555
C10B N1B 1_555 1_555
H6B C10B 1_555 1_555
C11B N2B 1_555 1_555
H7B C11B 1_555 1_555
C12B N2B 1_555 1_555
H8B C12B 1_555 1_555
H9B C12B 1_555 1_555
C13B C12B 1_555 1_555
H10B C13B 1_555 1_555
H11B C13B 1_555 1_555
C14B C13B 1_555 1_555
H12B C14B 1_555 1_555
H13B C14B 1_555 1_555
C15B C14B 1_555 1_555
H14B C15B 1_555 1_555
H15B C15B 1_555 1_555
C16B C15B 1_555 1_555
H16B C16B 1_555 1_555
H17B C16B 1_555 1_555
C17B N3B 1_555 1_555
H18B C17B 1_555 1_555
C18B C17B 1_555 1_555
H19B C18B 1_555 1_555
C19B N3B 1_555 1_555
H20B C19B 1_555 1_555
Zn1A N4B 1_555 1_555
Zn1B_2 O1B 1_555 1_555
Zn1C N4 1_555 1_555
O1B_2 Zn1B 1_555 1_555
N4A Zn1B 1_555 1_555
N4C Zn1 1_555 1_555
N4 C19 1_555 1_555
C10 C11 1_555 1_555
C2B C4B 1_555 1_555
C6B C8B 1_555 1_555
N4B C19B 1_555 1_555
C10B C11B 1_555 1_555

#END
