
#######################################################################
#
#                 Cambridge Crystallographic Data Centre
#                                CCDC 
#
#######################################################################
#
# If this CIF has been generated from an entry in the Cambridge 
# Structural Database, then it will include bibliographic, chemical, 
# crystal, experimental, refinement or atomic coordinate data resulting 
# from the CCDC's data processing and validation procedures.
#
#######################################################################

data_EBISEQ
_chemical_formula_moiety         '(C41 H47 Cd2 N9 O9)n'
_symmetry_cell_setting           monoclinic
_symmetry_space_group_name_H-M   'P 21/c'
_symmetry_Int_Tables_number      14
_space_group_name_Hall           '-P 2ybc'
loop_
_symmetry_equiv_pos_site_id
_symmetry_equiv_pos_as_xyz
1 x,y,z
2 -x,1/2+y,1/2-z
3 -x,-y,-z
4 x,1/2-y,1/2+z
_cell_length_a                   10.8546(3)
_cell_length_b                   23.6261(7)
_cell_length_c                   9.6799(3)
_cell_angle_alpha                90
_cell_angle_beta                 104.140(3)
_cell_angle_gamma                90
_cell_volume                     2407.22
loop_
_atom_site_label
_atom_site_type_symbol
_atom_site_fract_x
_atom_site_fract_y
_atom_site_fract_z
Cd1 Cd 0.31934(2) 0.10554(2) 0.47238(2)
O1 O 0.16405(13) 0.04458(5) 0.36101(13)
O2 O 0.23175(13) 0.09961(5) 0.21045(14)
C1 C 0.16382(15) 0.06030(6) 0.23581(17)
C2 C 0.07842(14) 0.02922(6) 0.11325(16)
C3 C -0.01368(15) -0.00798(7) 0.13789(17)
H1 H -0.0231 -0.0134 0.2320
C4 C 0.09155(15) 0.03711(7) -0.02532(17)
H2 H 0.1540 0.0625 -0.0426
O3 O 0.42350(13) 0.03360(5) 0.61964(13)
O4 O 0.33006(14) 0.09829(6) 0.72234(14)
C5 C 0.39694(15) 0.05461(7) 0.72827(17)
C6 C 0.44928(14) 0.02613(7) 0.86914(16)
C7 C 0.52082(15) -0.02329(7) 0.87554(17)
H3 H 0.5352 -0.0391 0.7906
C8 C 0.42909(15) 0.04940(7) 0.99476(17)
H4 H 0.3809 0.0832 0.9911
N1 N 0.51175(14) 0.12191(6) 0.43047(15)
N2 N 0.70227(14) 0.10050(6) 0.40508(16)
N3 N 1.12782(14) 0.22991(6) 0.91998(16)
N4 N 1.24848(14) 0.30551(6) 0.96919(15)
C9 C 0.60985(16) 0.08712(7) 0.46913(17)
H5 H 0.6141 0.0566 0.5340
C10 C 0.54424(19) 0.15923(8) 0.3362(2)
H6 H 0.4921 0.1892 0.2895
C11 C 0.66168(19) 0.14680(8) 0.3199(2)
H7 H 0.7068 0.1661 0.2616
C12 C 0.82476(17) 0.07157(8) 0.4252(2)
H8 H 0.8357 0.0586 0.3317
H9 H 0.8255 0.0378 0.4860
C13 C 0.93461(18) 0.11011(8) 0.4942(2)
H10 H 0.9392 0.1416 0.4280
H11 H 1.0149 0.0884 0.5096
C14 C 0.92315(16) 0.13472(7) 0.63587(19)
H12 H 0.9106 0.1035 0.6992
H13 H 0.8473 0.1594 0.6193
C15 C 1.04011(16) 0.16894(8) 0.7103(2)
H14 H 1.1160 0.1442 0.7301
H15 H 1.0541 0.2000 0.6471
C16 C 1.02212(17) 0.19343(8) 0.8487(2)
H16 H 0.9424 0.2156 0.8289
H17 H 1.0135 0.1621 0.9135
C17 C 1.22376(19) 0.21661(8) 1.0366(2)
H18 H 1.2365 0.1816 1.0861
C18 C 1.29645(19) 0.26368(8) 1.0666(2)
H19 H 1.3697 0.2673 1.1433
C19 C 1.14675(16) 0.28339(7) 0.88283(18)
H20 H 1.0937 0.3028 0.8045
O1B O -0.16405(13) -0.04458(5) -0.36101(13)
O2B O -0.23175(13) -0.09961(5) -0.21045(14)
C1B C -0.16382(15) -0.06030(6) -0.23581(17)
C2B C -0.07842(14) -0.02922(6) -0.11325(16)
C3B C 0.01368(15) 0.00798(7) -0.13789(17)
H1B H 0.0231 0.0134 -0.2320
C4B C -0.09155(15) -0.03711(7) 0.02532(17)
H2B H -0.1540 -0.0625 0.0426
O3B O 0.57650(13) -0.03360(5) 1.38036(13)
O4B O 0.66994(14) -0.09829(6) 1.27766(14)
C5B C 0.60306(15) -0.05461(7) 1.27173(17)
C6B C 0.55072(14) -0.02613(7) 1.13086(16)
C7B C 0.47918(15) 0.02329(7) 1.12446(17)
H3B H 0.4648 0.0391 1.2094
C8B C 0.57091(15) -0.04940(7) 1.00524(17)
H4B H 0.6191 -0.0832 1.0089
Cd1B Cd -0.31934(2) -0.10554(2) -0.47238(2)
N1B N -0.51175(14) -0.12191(6) -0.43047(15)
N2B N -0.70227(14) -0.10050(6) -0.40508(16)
N3B N -1.12782(14) -0.22991(6) -0.91998(16)
N4B N -1.24848(14) -0.30551(6) -0.96919(15)
C9B C -0.60985(16) -0.08712(7) -0.46913(17)
H5B H -0.6141 -0.0566 -0.5340
C10B C -0.54424(19) -0.15923(8) -0.3362(2)
H6B H -0.4921 -0.1892 -0.2895
C11B C -0.66168(19) -0.14680(8) -0.3199(2)
H7B H -0.7068 -0.1661 -0.2616
C12B C -0.82476(17) -0.07157(8) -0.4252(2)
H8B H -0.8357 -0.0586 -0.3317
H9B H -0.8255 -0.0378 -0.4860
C13B C -0.93461(18) -0.11011(8) -0.4942(2)
H10B H -0.9392 -0.1416 -0.4280
H11B H -1.0149 -0.0884 -0.5096
C14B C -0.92315(16) -0.13472(7) -0.63587(19)
H12B H -0.9106 -0.1035 -0.6992
H13B H -0.8473 -0.1594 -0.6193
C15B C -1.04011(16) -0.16894(8) -0.7103(2)
H14B H -1.1160 -0.1442 -0.7301
H15B H -1.0541 -0.2000 -0.6471
C16B C -1.02212(17) -0.19343(8) -0.8487(2)
H16B H -0.9424 -0.2156 -0.8289
H17B H -1.0135 -0.1621 -0.9135
C17B C -1.22376(19) -0.21661(8) -1.0366(2)
H18B H -1.2365 -0.1816 -1.0861
C18B C -1.29645(19) -0.26368(8) -1.0666(2)
H19B H -1.3697 -0.2673 -1.1433
C19B C -1.14675(16) -0.28339(7) -0.88283(18)
H20B H -1.0937 -0.3028 -0.8045
Cd1A Cd -1.31934(2) -0.39446(2) -0.97238(2)
Cd1B_2 Cd 0.68066(2) -0.10554(2) 1.52762(2)
Cd1C Cd 1.31934(2) 0.39446(2) 0.97238(2)
O3B_2 O -0.42350(13) -0.03360(5) -0.61964(13)
O4B_2 O -0.33006(14) -0.09829(6) -0.72234(14)
N4A N -0.24848(14) -0.19449(6) -0.46919(15)
N4C N 0.24848(14) 0.19449(6) 0.46919(15)
O5 O 0.87131(16) 0.20138(8) 0.14025(18)
N5 N 0.72742(15) 0.16325(7) -0.04740(18)
C20 C 0.7863(2) 0.20589(9) 0.0319(2)
H21 H 0.7598 0.2431 0.0014
C21 C 0.7628(2) 0.10502(9) -0.0122(3)
H22 H 0.7747 0.0854 -0.0972
H23 H 0.6954 0.0863 0.0221
H24 H 0.8421 0.1039 0.0624
C22 C 0.6244(3) 0.17328(11) -0.1715(3)
H25 H 0.6416 0.1533 -0.2536
H26 H 0.6172 0.2140 -0.1916
H27 H 0.5448 0.1593 -0.1535
loop_
_geom_bond_atom_site_label_1
_geom_bond_atom_site_label_2
_geom_bond_site_symmetry_1
_geom_bond_site_symmetry_2
Cd1 O1 1_555 1_555
O1 C1 1_555 1_555
O2 Cd1 1_555 1_555
C1 O2 1_555 1_555
C2 C1 1_555 1_555
C3 C2 1_555 1_555
H1 C3 1_555 1_555
C4 C2 1_555 1_555
H2 C4 1_555 1_555
O3 Cd1 1_555 1_555
O4 Cd1 1_555 1_555
C5 O3 1_555 1_555
C6 C5 1_555 1_555
C7 C6 1_555 1_555
H3 C7 1_555 1_555
C8 C6 1_555 1_555
H4 C8 1_555 1_555
N1 Cd1 1_555 1_555
N2 C9 1_555 1_555
N3 C16 1_555 1_555
N4 C18 1_555 1_555
C9 N1 1_555 1_555
H5 C9 1_555 1_555
C10 N1 1_555 1_555
H6 C10 1_555 1_555
C11 N2 1_555 1_555
H7 C11 1_555 1_555
C12 N2 1_555 1_555
H8 C12 1_555 1_555
H9 C12 1_555 1_555
C13 C12 1_555 1_555
H10 C13 1_555 1_555
H11 C13 1_555 1_555
C14 C13 1_555 1_555
H12 C14 1_555 1_555
H13 C14 1_555 1_555
C15 C14 1_555 1_555
H14 C15 1_555 1_555
H15 C15 1_555 1_555
C16 C15 1_555 1_555
H16 C16 1_555 1_555
H17 C16 1_555 1_555
C17 N3 1_555 1_555
H18 C17 1_555 1_555
C18 C17 1_555 1_555
H19 C18 1_555 1_555
C19 N3 1_555 1_555
H20 C19 1_555 1_555
O5 C20 1_555 1_555
N5 C20 1_555 1_555
C20 H21 1_555 1_555
C21 N5 1_555 1_555
H22 C21 1_555 1_555
H23 C21 1_555 1_555
H24 C21 1_555 1_555
C22 N5 1_555 1_555
H25 C22 1_555 1_555
H26 C22 1_555 1_555
H27 C22 1_555 1_555
O1B C1B 1_555 1_555
O2B C1B 1_555 1_555
C1B C2B 1_555 1_555
C2B C3B 1_555 1_555
C3B C4 1_555 1_555
H1B C3B 1_555 1_555
C4B C3 1_555 1_555
H2B C4B 1_555 1_555
O3B C5B 1_555 1_555
O4B C5B 1_555 1_555
C5B C6B 1_555 1_555
C6B C7B 1_555 1_555
C7B C8 1_555 1_555
H3B C7B 1_555 1_555
C8B C7 1_555 1_555
H4B C8B 1_555 1_555
Cd1B O1B 1_555 1_555
N1B Cd1B 1_555 1_555
N2B C9B 1_555 1_555
N3B C16B 1_555 1_555
N4B C18B 1_555 1_555
C9B N1B 1_555 1_555
H5B C9B 1_555 1_555
C10B N1B 1_555 1_555
H6B C10B 1_555 1_555
C11B N2B 1_555 1_555
H7B C11B 1_555 1_555
C12B N2B 1_555 1_555
H8B C12B 1_555 1_555
H9B C12B 1_555 1_555
C13B C12B 1_555 1_555
H10B C13B 1_555 1_555
H11B C13B 1_555 1_555
C14B C13B 1_555 1_555
H12B C14B 1_555 1_555
H13B C14B 1_555 1_555
C15B C14B 1_555 1_555
H14B C15B 1_555 1_555
H15B C15B 1_555 1_555
C16B C15B 1_555 1_555
H16B C16B 1_555 1_555
H17B C16B 1_555 1_555
C17B N3B 1_555 1_555
H18B C17B 1_555 1_555
C18B C17B 1_555 1_555
H19B C18B 1_555 1_555
C19B N3B 1_555 1_555
H20B C19B 1_555 1_555
Cd1A N4B 1_555 1_555
Cd1B_2 O3B 1_555 1_555
Cd1C N4 1_555 1_555
O3B_2 Cd1B 1_555 1_555
O4B_2 Cd1B 1_555 1_555
N4A Cd1B 1_555 1_555
N4C Cd1 1_555 1_555
O4 C5 1_555 1_555
N4 C19 1_555 1_555
C10 C11 1_555 1_555
O2B Cd1B 1_555 1_555
C2B C4B 1_555 1_555
O4B Cd1B_2 1_555 1_555
C6B C8B 1_555 1_555
N4B C19B 1_555 1_555
C10B C11B 1_555 1_555

#END
