
#######################################################################
#
#                 Cambridge Crystallographic Data Centre
#                                CCDC 
#
#######################################################################
#
# If this CIF has been generated from an entry in the Cambridge 
# Structural Database, then it will include bibliographic, chemical, 
# crystal, experimental, refinement or atomic coordinate data resulting 
# from the CCDC's data processing and validation procedures.
#
#######################################################################

data_LODKIA
_chemical_formula_moiety         '(C32 H26 Cd2 N2 O12)n'
_symmetry_cell_setting           monoclinic
_symmetry_space_group_name_H-M   'C 2/c'
_symmetry_Int_Tables_number      15
_space_group_name_Hall           '-C 2yc'
loop_
_symmetry_equiv_pos_site_id
_symmetry_equiv_pos_as_xyz
1 x,y,z
2 -x,y,1/2-z
3 1/2+x,1/2+y,z
4 1/2-x,1/2+y,1/2-z
5 -x,-y,-z
6 x,-y,1/2+z
7 1/2-x,1/2-y,-z
8 1/2+x,1/2-y,1/2+z
_cell_length_a                   29.426(6)
_cell_length_b                   9.1549(18)
_cell_length_c                   27.559(6)
_cell_angle_alpha                90
_cell_angle_beta                 115.50(3)
_cell_angle_gamma                90
_cell_volume                     6700.95
loop_
_atom_site_label
_atom_site_type_symbol
_atom_site_fract_x
_atom_site_fract_y
_atom_site_fract_z
_atom_site_U_iso_or_equiv
_atom_site_thermal_displace_type
O1 O 0.9833(4) 0.288(3) 0.7923(10) 0.3798 Uani
H1 H 0.9702 0.3611 0.7720 0.5700 Uiso
H2 H 0.9630 0.2163 0.7819 0.5700 Uiso
O2 O 0.0313(4) 0.4852(9) 0.5806(6) 0.1471 Uani
H3 H 0.0166 0.5087 0.5476 0.2210 Uiso
H4 H 0.0107 0.4920 0.5947 0.2210 Uiso
Cd1 Cd 0.935790(16) 0.91098(5) 0.495029(17) 0.0252 Uani
Cd2 Cd 0.88640(2) 1.24361(5) 0.53389(2) 0.0335 Uani
O3 O 0.8927(2) 0.7765(6) 0.5485(2) 0.0449 Uani
O4 O 0.92203(18) 1.0007(5) 0.56687(19) 0.0337 Uani
O5 O 0.99808(17) 0.7871(5) 0.94323(18) 0.0331 Uani
O6 O 0.97949(16) 1.0234(5) 0.94126(17) 0.0294 Uani
O7 O 0.63102(18) 0.6293(6) 0.57752(19) 0.0415 Uani
O8 O 0.6153(2) 0.8673(7) 0.5710(2) 0.0505 Uani
O9 O 0.90943(16) 0.8385(5) 0.97049(16) 0.0279 Uani
O10 O 0.83810(19) 0.7182(6) 0.92753(19) 0.0371 Uani
O11 O 0.9723(2) 1.2729(7) 0.5901(2) 0.0579 Uani
H5 H 0.9837 1.1946 0.6078 0.0870 Uiso
H6 H 0.9762 1.3430 0.6118 0.0870 Uiso
O12 O 0.8895(3) 1.4888(6) 0.5188(2) 0.0572 Uani
H7 H 0.9169 1.5243 0.5426 0.0860 Uiso
H8 H 0.8645 1.5318 0.5207 0.0860 Uiso
C1 C 0.8970(3) 0.8857(7) 0.6289(3) 0.0295 Uani
C2 C 0.8700(3) 0.7760(8) 0.6383(3) 0.0357 Uani
H9 H 0.8558 0.7026 0.6129 0.0430 Uiso
C3 C 0.8635(3) 0.7735(8) 0.6851(3) 0.0352 Uani
H10 H 0.8448 0.6988 0.6905 0.0420 Uiso
C4 C 0.8843(2) 0.8791(7) 0.7237(2) 0.0289 Uani
C5 C 0.9117(3) 0.9889(8) 0.7144(3) 0.0351 Uani
H11 H 0.9264 1.0608 0.7404 0.0420 Uiso
C6 C 0.9180(3) 0.9945(8) 0.6676(3) 0.0344 Uani
H12 H 0.9361 1.0706 0.6619 0.0420 Uiso
C7 C 0.9040(2) 0.8863(7) 0.5782(3) 0.0292 Uani
C8 C 0.8792(2) 0.8669(7) 0.7755(2) 0.0258 Uani
C9 C 0.8346(2) 0.8230(7) 0.7775(2) 0.0262 Uani
C10 C 0.8349(2) 0.7954(7) 0.8269(2) 0.0262 Uani
H13 H 0.8056 0.7609 0.8279 0.0310 Uiso
C11 C 0.8773(2) 0.8168(7) 0.8753(2) 0.0242 Uani
C12 C 0.9214(2) 0.8672(7) 0.8732(2) 0.0260 Uani
C13 C 0.9212(2) 0.8893(7) 0.8231(2) 0.0282 Uani
H14 H 0.9507 0.9206 0.8217 0.0340 Uiso
C14 C 0.8740(2) 0.7877(7) 0.9271(2) 0.0241 Uani
C15 C 0.9689(2) 0.8939(7) 0.9232(2) 0.0268 Uani
C16 C 0.7858(2) 0.8065(7) 0.7290(2) 0.0257 Uani
C17 C 0.7609(3) 0.6750(8) 0.7175(3) 0.0388 Uani
H15 H 0.7753 0.5947 0.7394 0.0470 Uiso
C18 C 0.7141(3) 0.6602(8) 0.6734(3) 0.0421 Uani
H16 H 0.6980 0.5700 0.6659 0.0510 Uiso
C19 C 0.6915(2) 0.7787(7) 0.6406(3) 0.0317 Uani
C20 C 0.7161(3) 0.9129(8) 0.6528(3) 0.0363 Uani
H17 H 0.7010 0.9946 0.6321 0.0430 Uiso
C21 C 0.7636(2) 0.9250(7) 0.6965(3) 0.0326 Uani
H18 H 0.7804 1.0141 0.7036 0.0390 Uiso
C22 C 0.6424(3) 0.7595(8) 0.5931(3) 0.0358 Uani
C23 C 0.7933(3) 1.0170(9) 0.4698(3) 0.0458 Uani
H19 H 0.8091 1.0113 0.4470 0.0550 Uiso
C24 C 0.7517(3) 0.9305(10) 0.4594(4) 0.0526 Uani
H20 H 0.7399 0.8663 0.4304 0.0630 Uiso
C25 C 0.7281(3) 0.9413(10) 0.4925(4) 0.0579 Uani
H21 H 0.6997 0.8854 0.4860 0.0700 Uiso
C26 C 0.7467(3) 1.0345(10) 0.5348(4) 0.0503 Uani
H22 H 0.7312 1.0418 0.5578 0.0600 Uiso
C27 C 0.7886(3) 1.1187(8) 0.5438(3) 0.0368 Uani
C28 C 0.8133(3) 1.2186(8) 0.5911(3) 0.0397 Uani
C29 C 0.7932(4) 1.2420(10) 0.6284(4) 0.0589 Uani
H23 H 0.7622 1.2020 0.6223 0.0700 Uiso
C30 C 0.8185(5) 1.3213(11) 0.6723(4) 0.0665 Uani
H24 H 0.8055 1.3345 0.6974 0.0800 Uiso
C31 C 0.8631(4) 1.3829(10) 0.6807(4) 0.0645 Uani
H25 H 0.8813 1.4370 0.7117 0.0770 Uiso
C32 C 0.8813(4) 1.3637(10) 0.6419(4) 0.0569 Uani
H26 H 0.9116 1.4070 0.6469 0.0680 Uiso
N1 N 0.8117(2) 1.1087(7) 0.5117(2) 0.0377 Uani
N2 N 0.8560(3) 1.2839(7) 0.5975(3) 0.0419 Uani
Cd1A Cd 1.064210(16) 0.91098(5) 1.004971(17) 0.0252 Uani
Cd1E Cd 0.935790(16) 1.08902(5) 0.995029(17) 0.0252 Uani
Cd1F Cd 0.564210(16) 0.58902(5) 0.504971(17) 0.0252 Uani
Cd2E Cd 0.88640(2) 0.75639(5) 1.03389(2) 0.0335 Uani
O5A O 1.00192(17) 0.7871(5) 0.55677(18) 0.0331 Uani
O6A O 1.02051(16) 1.0234(5) 0.55874(17) 0.0294 Uani
O6E O 0.97949(16) 0.9766(5) 0.44126(17) 0.0294 Uani
O7F O 0.86898(18) 0.8707(6) 0.42248(19) 0.0415 Uani
O9E O 0.90943(16) 1.1615(5) 0.47049(16) 0.0279 Uani
O10E O 0.83810(19) 1.2818(6) 0.42753(19) 0.0371 Uani
loop_
_atom_site_aniso_label
_atom_site_aniso_U_11
_atom_site_aniso_U_22
_atom_site_aniso_U_33
_atom_site_aniso_U_23
_atom_site_aniso_U_13
_atom_site_aniso_U_12
O1 0.380(18) 0.377(18) 0.371(18) -0.015(9) 0.151(11) 0.001(9)
O2 0.100(7) 0.076(6) 0.301(16) 0.052(8) 0.120(10) 0.017(5)
Cd1 0.0200(2) 0.0351(3) 0.0164(2) 0.00124(17) 0.00391(17) -0.00037(17)
Cd2 0.0407(3) 0.0365(3) 0.0300(3) -0.0042(2) 0.0216(2) -0.0028(2)
O3 0.064(4) 0.046(3) 0.034(3) -0.011(2) 0.030(3) -0.010(3)
O4 0.037(3) 0.041(3) 0.030(2) 0.009(2) 0.021(2) 0.003(2)
O5 0.025(2) 0.040(3) 0.025(2) -0.0017(19) 0.0020(19) 0.0002(19)
O6 0.022(2) 0.039(3) 0.024(2) -0.0069(19) 0.0070(18) -0.0074(18)
O7 0.028(2) 0.054(3) 0.026(2) -0.002(2) -0.004(2) -0.014(2)
O8 0.035(3) 0.065(4) 0.038(3) 0.013(3) 0.003(2) 0.011(3)
O9 0.030(2) 0.036(3) 0.016(2) -0.0007(18) 0.0083(18) -0.0041(19)
O10 0.037(3) 0.051(3) 0.025(2) -0.003(2) 0.015(2) -0.015(2)
O11 0.057(4) 0.052(4) 0.049(4) -0.007(3) 0.008(3) -0.009(3)
O12 0.086(5) 0.040(3) 0.053(4) -0.001(3) 0.037(4) -0.004(3)
C1 0.034(3) 0.032(3) 0.025(3) 0.001(3) 0.015(3) -0.003(3)
C2 0.041(4) 0.042(4) 0.025(3) -0.009(3) 0.015(3) -0.012(3)
C3 0.043(4) 0.043(4) 0.027(3) -0.002(3) 0.022(3) -0.017(3)
C4 0.028(3) 0.037(4) 0.021(3) -0.002(3) 0.010(3) -0.006(3)
C5 0.045(4) 0.037(4) 0.020(3) -0.008(3) 0.011(3) -0.013(3)
C6 0.041(4) 0.038(4) 0.026(3) 0.000(3) 0.016(3) -0.008(3)
C7 0.027(3) 0.041(4) 0.023(3) 0.003(3) 0.014(3) 0.003(3)
C8 0.023(3) 0.031(3) 0.020(3) -0.001(2) 0.006(2) -0.005(2)
C9 0.025(3) 0.031(3) 0.018(3) -0.002(2) 0.005(2) -0.008(2)
C10 0.020(3) 0.037(4) 0.019(3) 0.001(2) 0.006(2) -0.004(2)
C11 0.021(3) 0.034(3) 0.014(3) -0.006(2) 0.004(2) -0.003(2)
C12 0.026(3) 0.028(3) 0.020(3) -0.004(2) 0.006(2) 0.000(2)
C13 0.024(3) 0.043(4) 0.021(3) -0.004(3) 0.013(3) -0.008(3)
C14 0.026(3) 0.027(3) 0.017(3) -0.003(2) 0.007(2) -0.003(2)
C15 0.020(3) 0.046(4) 0.015(3) -0.004(3) 0.008(2) -0.007(3)
C16 0.026(3) 0.033(3) 0.015(3) 0.000(2) 0.006(2) -0.001(2)
C17 0.038(4) 0.042(4) 0.021(3) 0.012(3) -0.002(3) -0.006(3)
C18 0.039(4) 0.035(4) 0.032(4) 0.008(3) -0.004(3) -0.010(3)
C19 0.028(3) 0.037(4) 0.022(3) 0.000(3) 0.003(3) -0.002(3)
C20 0.041(4) 0.033(4) 0.026(3) 0.000(3) 0.006(3) 0.000(3)
C21 0.031(3) 0.033(4) 0.027(3) -0.002(3) 0.006(3) -0.006(3)
C22 0.033(4) 0.054(5) 0.019(3) 0.003(3) 0.010(3) -0.004(3)
C23 0.045(4) 0.053(5) 0.041(4) -0.003(4) 0.020(4) 0.002(4)
C24 0.041(4) 0.058(5) 0.055(5) -0.006(4) 0.017(4) -0.007(4)
C25 0.044(5) 0.057(6) 0.070(6) -0.004(5) 0.022(5) -0.014(4)
C26 0.041(4) 0.061(5) 0.059(5) 0.013(4) 0.031(4) 0.002(4)
C27 0.033(4) 0.040(4) 0.039(4) 0.012(3) 0.017(3) 0.009(3)
C28 0.045(4) 0.036(4) 0.045(4) 0.008(3) 0.026(4) 0.007(3)
C29 0.064(6) 0.072(6) 0.061(6) 0.004(5) 0.046(5) 0.004(5)
C30 0.100(8) 0.067(6) 0.057(6) -0.004(5) 0.057(6) 0.004(6)
C31 0.103(8) 0.047(5) 0.049(5) -0.020(4) 0.038(6) 0.000(5)
C32 0.073(6) 0.052(5) 0.046(5) -0.007(4) 0.026(5) 0.000(4)
N1 0.033(3) 0.046(4) 0.038(3) 0.006(3) 0.019(3) 0.005(3)
N2 0.055(4) 0.037(3) 0.044(4) 0.000(3) 0.031(3) 0.005(3)
Cd1A 0.02 0.0351 0.0164 -0.00124 0.00391 0.00037
Cd1E 0.02 0.0351 0.0164 -0.00124 0.00391 0.00037
Cd1F 0.02 0.0351 0.0164 0.00124 0.00391 -0.00037
Cd2E 0.0407 0.0365 0.03 0.0042 0.0216 0.0028
O5A 0.025 0.04 0.025 0.0017 0.002 -0.0002
O6A 0.022 0.039 0.024 0.0069 0.007 0.0074
O6E 0.022 0.039 0.024 0.0069 0.007 0.0074
O7F 0.028 0.054 0.026 -0.002 -0.004 -0.014
O9E 0.03 0.036 0.016 0.0007 0.0083 0.0041
O10E 0.037 0.051 0.025 0.003 0.015 0.015
loop_
_geom_bond_atom_site_label_1
_geom_bond_atom_site_label_2
_geom_bond_site_symmetry_1
_geom_bond_site_symmetry_2
O1 H1 1_555 1_555
H2 O1 1_555 1_555
O2 H3 1_555 1_555
H4 O2 1_555 1_555
Cd1 O3 1_555 1_555
Cd2 O4 1_555 1_555
O3 C7 1_555 1_555
O4 Cd1 1_555 1_555
O5 C15 1_555 1_555
O6 C15 1_555 1_555
O7 C22 1_555 1_555
O8 C22 1_555 1_555
O9 C14 1_555 1_555
O10 C14 1_555 1_555
O11 Cd2 1_555 1_555
H5 O11 1_555 1_555
H6 O11 1_555 1_555
O12 Cd2 1_555 1_555
H7 O12 1_555 1_555
H8 O12 1_555 1_555
C1 C2 1_555 1_555
C2 H9 1_555 1_555
C3 C2 1_555 1_555
H10 C3 1_555 1_555
C4 C3 1_555 1_555
C5 C4 1_555 1_555
H11 C5 1_555 1_555
C6 C1 1_555 1_555
H12 C6 1_555 1_555
C7 O4 1_555 1_555
C8 C4 1_555 1_555
C9 C8 1_555 1_555
C10 C9 1_555 1_555
H13 C10 1_555 1_555
C11 C10 1_555 1_555
C12 C11 1_555 1_555
C13 C8 1_555 1_555
H14 C13 1_555 1_555
C14 C11 1_555 1_555
C15 C12 1_555 1_555
C16 C9 1_555 1_555
C17 C16 1_555 1_555
H15 C17 1_555 1_555
C18 C17 1_555 1_555
H16 C18 1_555 1_555
C19 C18 1_555 1_555
C20 C19 1_555 1_555
H17 C20 1_555 1_555
C21 C16 1_555 1_555
H18 C21 1_555 1_555
C22 C19 1_555 1_555
C23 H19 1_555 1_555
C24 C23 1_555 1_555
H20 C24 1_555 1_555
C25 C24 1_555 1_555
H21 C25 1_555 1_555
C26 C25 1_555 1_555
H22 C26 1_555 1_555
C27 C26 1_555 1_555
C28 C27 1_555 1_555
C29 C28 1_555 1_555
H23 C29 1_555 1_555
C30 C29 1_555 1_555
H24 C30 1_555 1_555
C31 C30 1_555 1_555
H25 C31 1_555 1_555
C32 C31 1_555 1_555
H26 C32 1_555 1_555
N1 Cd2 1_555 1_555
N2 Cd2 1_555 1_555
Cd1A O5 1_555 1_555
Cd1E O6 1_555 1_555
Cd1F O7 1_555 1_555
Cd2E O9 1_555 1_555
O5A Cd1 1_555 1_555
O6A Cd1 1_555 1_555
O6E Cd1 1_555 1_555
O7F Cd1 1_555 1_555
O9E Cd1 1_555 1_555
O10E Cd2 1_555 1_555
Cd2 O9E 1_555 1_555
O6 Cd1A 1_555 1_555
O9 Cd1E 1_555 1_555
O10 Cd2E 1_555 1_555
C1 C7 1_555 1_555
C5 C6 1_555 1_555
C12 C13 1_555 1_555
C20 C21 1_555 1_555
C23 N1 1_555 1_555
C27 N1 1_555 1_555
C28 N2 1_555 1_555
C32 N2 1_555 1_555

#END
