
#######################################################################
#
#                 Cambridge Crystallographic Data Centre
#                                CCDC 
#
#######################################################################
#
# If this CIF has been generated from an entry in the Cambridge 
# Structural Database, then it will include bibliographic, chemical, 
# crystal, experimental, refinement or atomic coordinate data resulting 
# from the CCDC's data processing and validation procedures.
#
#######################################################################

data_ILIGAL
_chemical_formula_moiety         '(C18 H28 O26 Pr2)n'
_symmetry_cell_setting           trigonal
_symmetry_space_group_name_H-M   'P -3'
_symmetry_Int_Tables_number      147
_space_group_name_Hall           '-P 3'
loop_
_symmetry_equiv_pos_site_id
_symmetry_equiv_pos_as_xyz
1 x,y,z
2 -y,x-y,z
3 -x+y,-x,z
4 -x,-y,-z
5 y,-x+y,-z
6 x-y,x,-z
_cell_length_a                   10.2182(14)
_cell_length_b                   10.2182(14)
_cell_length_c                   8.9084(18)
_cell_angle_alpha                90
_cell_angle_beta                 90
_cell_angle_gamma                120
_cell_volume                     805.525
loop_
_atom_site_label
_atom_site_type_symbol
_atom_site_fract_x
_atom_site_fract_y
_atom_site_fract_z
O2 O 0.907(3) 0.081(3) 0.637(2)
O3 O 0.830(4) 0.017(4) -0.140(5)
O4 O 0.6976(4) 0.0875(5) 0.4395(5)
C1 C 0.5373(6) -0.0133(6) 0.4327(7)
H1 H 0.5179 -0.1173 0.4370
O5 O 0.6501(4) 0.0842(4) 0.0774(4)
O6 O 0.5178(5) -0.1597(4) 0.1329(5)
C2 C 0.5542(6) -0.0250(6) 0.1551(6)
Pr1 Pr 0.6667 0.3333 0.05196(5)
O7 O 0.5117(6) 0.1625(5) 0.2647(5)
C3 C 0.4777(7) 0.0090(7) 0.2834(5)
H2 H 0.3682 -0.0591 0.2780
C1C C 0.4627(6) 0.0133(6) 0.5673(7)
O4C O 0.3024(4) -0.0875(5) 0.5605(5)
H1C H 0.4821 0.1173 0.5630
C3C C 0.5223(7) -0.0090(7) 0.7166(5)
C2C C 0.4458(6) 0.0250(6) 0.8449(6)
O5C O 0.3499(4) -0.0842(4) 0.9226(4)
O6C O 0.4822(5) 0.1597(4) 0.8671(5)
O7C O 0.4883(6) -0.1625(5) 0.7353(5)
H2C H 0.6318 0.0591 0.7220
O4A O 0.9125(5) 0.6101(6) 0.4395(5)
C1A C 1.0133(6) 0.5506(8) 0.4327(7)
H1A H 1.1173 0.6352 0.4370
O5A O 0.9158(4) 0.5659(6) 0.0774(4)
O6A O 1.1597(4) 0.6775(6) 0.1329(5)
C2A C 1.0250(6) 0.5792(8) 0.1551(6)
O7A O 0.8375(5) 0.3492(8) 0.2647(5)
C3A C 0.9910(7) 0.4687(10) 0.2834(5)
H2A H 1.0591 0.4273 0.2780
C1D C 0.9867(6) 0.4494(8) 0.5673(7)
O4D O 1.0875(5) 0.3899(6) 0.5605(5)
H1D H 0.8827 0.3648 0.5630
C3D C 1.0090(7) 0.5313(10) 0.7166(5)
C2D C 0.9750(6) 0.4208(8) 0.8449(6)
O5D O 1.0842(4) 0.4341(6) 0.9226(4)
O6D O 0.8403(4) 0.3225(6) 0.8671(5)
O7D O 1.1625(5) 0.6508(8) 0.7353(5)
H2D H 0.9409 0.5727 0.7220
O4B O 0.3899(6) 0.3024(4) 0.4395(5)
C1B C 0.4494(8) 0.4627(6) 0.4327(7)
H1B H 0.3648 0.4821 0.4370
O5B O 0.4341(6) 0.3499(4) 0.0774(4)
O6B O 0.3225(6) 0.4822(5) 0.1329(5)
C2B C 0.4208(8) 0.4458(6) 0.1551(6)
O7B O 0.6508(8) 0.4883(6) 0.2647(5)
C3B C 0.5313(10) 0.5223(7) 0.2834(5)
H2B H 0.5727 0.6318 0.2780
C1E C 0.5506(8) 0.5373(6) 0.5673(7)
O4E O 0.6101(6) 0.6976(4) 0.5605(5)
H1E H 0.6352 0.5179 0.5630
C3E C 0.4687(10) 0.4777(7) 0.7166(5)
C2E C 0.5792(8) 0.5542(6) 0.8449(6)
O5E O 0.5659(6) 0.6501(4) 0.9226(4)
O6E O 0.6775(6) 0.5178(5) 0.8671(5)
O7E O 0.3492(8) 0.5117(6) 0.7353(5)
H2E H 0.4273 0.3682 0.7220
Pr1C Pr 0.3333 -0.3333 0.94804(5)
Pr1C_2 Pr 0.3333 -0.3333 -0.05196(5)
O6C_2 O 0.4822(5) 0.1597(4) -0.1329(5)
O6D_2 O 0.8403(4) 0.3225(6) -0.1329(5)
O6E_2 O 0.6775(6) 0.5178(5) -0.1329(5)
Pr1_2 Pr 0.6667 0.3333 1.05196(5)
Pr1C_3 Pr 1.3333 0.6667 -0.05196(5)
Pr1C_4 Pr 1.3333 0.6667 0.94804(5)
Pr1C_5 Pr 0.3333 0.6667 -0.05196(5)
Pr1C_6 Pr 0.3333 0.6667 0.94804(5)
O5D_2 O 0.0842(4) -0.5659(6) 0.9226(4)
O5E_2 O 0.5659(6) -0.3499(4) 0.9226(4)
O6_2 O 0.5178(5) -0.1597(4) 1.1329(5)
O6A_2 O 0.1597(4) -0.3225(6) 1.1329(5)
O6B_2 O 0.3225(6) -0.5178(5) 1.1329(5)
O7D_2 O 0.1625(5) -0.3492(8) 0.7353(5)
O7E_2 O 0.3492(8) -0.4883(6) 0.7353(5)
loop_
_geom_bond_atom_site_label_1
_geom_bond_atom_site_label_2
_geom_bond_site_symmetry_1
_geom_bond_site_symmetry_2
O4 C1 1_555 1_555
C1 H1 1_555 1_555
O5 C2 1_555 1_555
O6 C2 1_555 1_555
C2 C3 1_555 1_555
Pr1 O5 1_555 1_555
O7 Pr1 1_555 1_555
C3 C1 1_555 1_555
H2 C3 1_555 1_555
C1C C1 1_555 1_555
O4C C1C 1_555 1_555
H1C C1C 1_555 1_555
C3C C1C 1_555 1_555
C2C C3C 1_555 1_555
O5C C2C 1_555 1_555
O6C C2C 1_555 1_555
O7C C3C 1_555 1_555
H2C C3C 1_555 1_555
O4A C1A 1_555 1_555
C1A H1A 1_555 1_555
O5A Pr1 1_555 1_555
O6A C2A 1_555 1_555
C2A O5A 1_555 1_555
O7A Pr1 1_555 1_555
C3A C1A 1_555 1_555
H2A C3A 1_555 1_555
C1D C1A 1_555 1_555
O4D C1D 1_555 1_555
H1D C1D 1_555 1_555
C3D C1D 1_555 1_555
C2D C3D 1_555 1_555
O5D C2D 1_555 1_555
O6D C2D 1_555 1_555
O7D C3D 1_555 1_555
H2D C3D 1_555 1_555
O4B C1B 1_555 1_555
C1B H1B 1_555 1_555
O5B Pr1 1_555 1_555
O6B C2B 1_555 1_555
C2B O5B 1_555 1_555
O7B Pr1 1_555 1_555
C3B C1B 1_555 1_555
H2B C3B 1_555 1_555
C1E C1B 1_555 1_555
O4E C1E 1_555 1_555
H1E C1E 1_555 1_555
C3E C1E 1_555 1_555
C2E C3E 1_555 1_555
O5E C2E 1_555 1_555
O6E C2E 1_555 1_555
O7E C3E 1_555 1_555
H2E C3E 1_555 1_555
Pr1C O5C 1_555 1_555
Pr1C_2 O6 1_555 1_555
O6C_2 Pr1 1_555 1_555
O6D_2 Pr1 1_555 1_555
O6E_2 Pr1 1_555 1_555
Pr1_2 O6C 1_555 1_555
Pr1C_3 O6A 1_555 1_555
Pr1C_4 O5D 1_555 1_555
Pr1C_5 O6B 1_555 1_555
Pr1C_6 O5E 1_555 1_555
O5D_2 Pr1C 1_555 1_555
O5E_2 Pr1C 1_555 1_555
O6_2 Pr1C 1_555 1_555
O6A_2 Pr1C 1_555 1_555
O6B_2 Pr1C 1_555 1_555
O7D_2 Pr1C 1_555 1_555
O7E_2 Pr1C 1_555 1_555
O7 C3 1_555 1_555
O7C Pr1C 1_555 1_555
C2A C3A 1_555 1_555
O7A C3A 1_555 1_555
O6D Pr1_2 1_555 1_555
O7D Pr1C_4 1_555 1_555
C2B C3B 1_555 1_555
O7B C3B 1_555 1_555
O6E Pr1_2 1_555 1_555
O7E Pr1C_6 1_555 1_555

#END
