
#######################################################################
#
#                 Cambridge Crystallographic Data Centre
#                                CCDC 
#
#######################################################################
#
# If this CIF has been generated from an entry in the Cambridge 
# Structural Database, then it will include bibliographic, chemical, 
# crystal, experimental, refinement or atomic coordinate data resulting 
# from the CCDC's data processing and validation procedures.
#
#######################################################################

data_JITQEI
_chemical_formula_moiety         'C60 H42 Cu6 N17 O13 2-'
_symmetry_cell_setting           trigonal
_symmetry_space_group_name_H-M   'P 31 2 1'
_symmetry_Int_Tables_number      152
_space_group_name_Hall           'P 31 2"'
loop_
_symmetry_equiv_pos_site_id
_symmetry_equiv_pos_as_xyz
1 x,y,z
2 -y,x-y,1/3+z
3 y,x,-z
4 -x+y,-x,2/3+z
5 -x,-x+y,1/3-z
6 x-y,-y,2/3-z
_cell_length_a                   13.6520(10)
_cell_length_b                   13.6520(10)
_cell_length_c                   40.648(2)
_cell_angle_alpha                90
_cell_angle_beta                 90
_cell_angle_gamma                120
_cell_volume                     6560.88
loop_
_atom_site_label
_atom_site_type_symbol
_atom_site_fract_x
_atom_site_fract_y
_atom_site_fract_z
Cu2 Cu 1.95251(14) 1.95251(14) 0.0000
O5 O 1.8373(9) 2.0471(9) 0.0007(3)
N6 N 1.1026(10) 1.1026(10) 0.0000
C25 C 1.1072(11) 1.1971(10) 0.0118(4)
H17 H 1.0427 1.1930 0.0209
C26 C 1.2044(12) 1.2980(10) 0.0106(4)
H18 H 1.2042 1.3634 0.0168
C27 C 1.3046(13) 1.3046(13) 0.0000
C28 C 1.4131(13) 1.4131(13) 0.0000
C29 C 1.4971(14) 1.4971(14) 0.0000
C30 C 1.6016(12) 1.6016(12) 0.0000
C31 C 1.6244(10) 1.6787(11) -0.0248(3)
H19 H 1.5741 1.6629 -0.0421
C32 C 1.7268(10) 1.7823(10) -0.0229(4)
H20 H 1.7403 1.8376 -0.0385
N7 N 1.8054(9) 1.8054(9) 0.0000
N8 N 1.9580(9) 1.9598(9) -0.0490(3)
C33 C 1.9670(14) 2.0503(13) -0.0645(4)
H21 H 1.9651 2.1062 -0.0520
C34 C 1.9791(16) 2.0653(14) -0.0980(5)
H22 H 1.9894 2.1316 -0.1076
C35 C 1.9758(12) 1.9802(13) -0.1171(4)
C36 C 1.9622(13) 1.8833(14) -0.1018(5)
H23 H 1.9581 1.8235 -0.1139
C37 C 1.9549(11) 1.8790(12) -0.0672(4)
H24 H 1.9473 1.8151 -0.0567
C38 C 1.9854(15) 1.9935(18) -0.1525(4)
C26B C 1.2980(10) 1.2044(12) -0.0106(4)
C25B C 1.1971(10) 1.1072(11) -0.0118(4)
H17B H 1.1930 1.0427 -0.0209
H18B H 1.3634 1.2042 -0.0168
Cu2_2 Cu 0.95251(14) 0.95251(14) 0.0000
O5B O 2.0471(9) 1.8373(9) -0.0007(3)
N6_2 N 2.1026(10) 2.1026(10) 0.0000
C38E C 1.9919(23) 2.0065(18) -0.1808(4)
C35E C 1.9956(18) 2.0198(13) -0.2162(4)
C34E C 1.9138(21) 1.9347(14) -0.2353(5)
C33E C 1.9167(19) 1.9497(13) -0.2688(4)
N8E N 1.9982(13) 2.0402(9) -0.2843(3)
Cu2C Cu 2.00000(20) 2.04749(14) -0.3333
C37E C 2.0759(16) 2.1210(12) -0.2661(4)
C36E C 2.0789(19) 2.1167(14) -0.2315(5)
H23E H 2.1346 2.1765 -0.2194
H24E H 2.1322 2.1849 -0.2766
H21E H 1.8589 1.8938 -0.2813
H22E H 1.8578 1.8684 -0.2257
N8B N 1.9598(9) 1.9580(9) 0.0490(3)
C32B C 1.7823(10) 1.7268(10) 0.0229(4)
C31B C 1.6787(11) 1.6244(10) 0.0248(3)
H19B H 1.6629 1.5741 0.0421
H20B H 1.8376 1.7403 0.0385
N9 N -0.5949(13) -0.9879(13) -0.4722(5)
C39 C -0.5952(14) -0.9173(15) -0.4494(5)
H25 H -0.5672 -0.9195 -0.4287
C40 C -0.6339(13) -0.8405(14) -0.4538(5)
H26 H -0.6340 -0.7934 -0.4373
C41 C -0.6755(12) -0.8426(13) -0.4885(5)
C42 C -0.6731(15) -0.9161(14) -0.5112(5)
H27 H -0.6977 -0.9180 -0.5326
C43 C -0.6336(18) -0.9869(18) -0.5016(5)
H28 H -0.6344 -1.0374 -0.5171
C44 C -0.7249(12) -0.7726(13) -0.4963(5)
C44B C -0.7726(13) -0.7249(12) -0.5037(5)
C41B C -0.8426(13) -0.6755(12) -0.5115(5)
C40B C -0.8405(14) -0.6339(13) -0.5462(5)
C39B C -0.9173(15) -0.5952(14) -0.5506(5)
N9B N -0.9879(13) -0.5949(13) -0.5278(5)
C43B C -0.9869(18) -0.6336(18) -0.4984(5)
C42B C -0.9161(14) -0.6731(15) -0.4888(5)
H27B H -0.9180 -0.6977 -0.4674
H28B H -1.0374 -0.6344 -0.4829
H25B H -0.9195 -0.5672 -0.5713
H26B H -0.7934 -0.6340 -0.5627
O6 O -0.9175(17) -1.3104(17) -0.6495(5)
N10 N -0.853(2) -1.240(4) -0.5721(5)
O7 O -0.935(2) -1.301(3) -0.5886(6)
O8 O -0.7616(19) -1.182(3) -0.5858(6)
O9 O -0.859(3) -1.244(3) -0.5422(5)
N11 N -0.6252(13) -0.9643(14) -0.3555(4)
O10 O -0.684(2) -0.954(2) -0.3773(5)
O11 O -0.5456(16) -0.973(2) -0.3633(6)
O12 O -0.6314(18) -0.926(2) -0.3289(4)
N1 N -0.3009(9) 0.2584(8) -0.5710(3)
C1 C -0.2177(12) 0.2486(12) -0.5846(4)
H1 H -0.1587 0.3109 -0.5950
C2 C -0.2174(13) 0.1478(11) -0.5838(4)
H2 H -0.1577 0.1439 -0.5935
C3 C -0.3029(15) 0.0531(13) -0.5690(4)
C4 C -0.3909(15) 0.0644(12) -0.5554(5)
H3 H -0.4530 0.0037 -0.5455
C5 C -0.3814(14) 0.1698(12) -0.5575(4)
H4 H -0.4395 0.1773 -0.5481
C6 C -0.3040(15) -0.0539(13) -0.5683(5)
N2 N -0.2913(9) -0.4412(8) -0.5709(2)
C7 C -0.2283(12) -0.3592(10) -0.5487(3)
H5 H -0.1814 -0.3712 -0.5347
C8 C -0.2297(13) -0.2609(11) -0.5457(4)
H6 H -0.1859 -0.2073 -0.5300
C9 C -0.2999(13) -0.2432(11) -0.5674(4)
C10 C -0.3598(13) -0.3228(12) -0.5911(4)
H7 H -0.4014 -0.3100 -0.6069
C11 C -0.3566(11) -0.4221(10) -0.5908(3)
H8 H -0.4031 -0.4790 -0.6054
C12 C -0.3043(13) -0.1411(12) -0.5675(4)
N3 N -0.4129(9) -0.6944(8) -0.2868(2)
C13 C -0.4802(13) -0.6698(10) -0.3030(4)
H9 H -0.5348 -0.6627 -0.2913
C14 C -0.4746(12) -0.6533(13) -0.3370(4)
H10 H -0.5222 -0.6327 -0.3475
C15 C -0.3991(13) -0.6679(11) -0.3542(5)
C16 C -0.3293(12) -0.6937(12) -0.3375(4)
H11 H -0.2754 -0.7031 -0.3488
C17 C -0.3372(12) -0.7063(10) -0.3038(4)
H12 H -0.2881 -0.7237 -0.2928
C18 C -0.3745(13) -0.6364(13) -0.4186(6)
N4 N -0.3197(10) -0.6034(9) -0.5210(3)
C19 C -0.4005(12) -0.5882(11) -0.5072(4)
H13 H -0.4462 -0.5730 -0.5208
C20 C -0.4185(13) -0.5942(12) -0.4735(4)
H14 H -0.4726 -0.5794 -0.4646
C21 C -0.3558(13) -0.6223(12) -0.4533(4)
C22 C -0.2732(12) -0.6363(12) -0.4680(4)
H15 H -0.2279 -0.6541 -0.4551
C23 C -0.2567(13) -0.6248(12) -0.5007(4)
H16 H -0.1980 -0.6323 -0.5096
C24 C -0.3885(12) -0.6516(12) -0.3891(6)
N5 N -0.5948(10) -0.6985(9) -0.5772(4)
O1 O -0.5124(9) -0.7091(9) -0.5755(3)
O2 O -0.6861(11) -0.7813(12) -0.5836(4)
O3 O -0.5863(11) -0.6072(10) -0.5710(4)
O4 O -0.0964(7) -0.4937(8) -0.5608(2)
Cu1 Cu -0.29058(14) -0.58763(12) -0.57060(4)
N1_2 N -0.3009(9) -0.7416(8) -0.5710(3)
Cu1_2 Cu -0.29058(14) 0.41237(12) -0.57060(4)
N3C N -0.2815(12) -0.5871(9) -0.6201(2)
Cu1A Cu -0.41237(12) -0.70295(18) -0.23727(4)
loop_
_geom_bond_atom_site_label_1
_geom_bond_atom_site_label_2
_geom_bond_site_symmetry_1
_geom_bond_site_symmetry_2
N1 C1 1_555 1_555
C1 H1 1_555 1_555
C2 C1 1_555 1_555
H2 C2 1_555 1_555
C3 C2 1_555 1_555
C4 C3 1_555 1_555
H3 C4 1_555 1_555
C5 N1 1_555 1_555
H4 C5 1_555 1_555
C6 C3 1_555 1_555
N2 C7 1_555 1_555
C7 H5 1_555 1_555
C8 C7 1_555 1_555
H6 C8 1_555 1_555
C9 C8 1_555 1_555
C10 C9 1_555 1_555
H7 C10 1_555 1_555
C11 N2 1_555 1_555
H8 C11 1_555 1_555
C12 C6 1_555 1_555
N3 C13 1_555 1_555
C13 H9 1_555 1_555
C14 C13 1_555 1_555
H10 C14 1_555 1_555
C15 C14 1_555 1_555
C16 C15 1_555 1_555
H11 C16 1_555 1_555
C17 N3 1_555 1_555
H12 C17 1_555 1_555
C18 C21 1_555 1_555
N4 C19 1_555 1_555
C19 H13 1_555 1_555
C20 C19 1_555 1_555
H14 C20 1_555 1_555
C21 C20 1_555 1_555
C22 C21 1_555 1_555
H15 C22 1_555 1_555
C23 N4 1_555 1_555
H16 C23 1_555 1_555
C24 C15 1_555 1_555
N5 O1 1_555 1_555
O1 Cu1 1_555 1_555
O2 N5 1_555 1_555
O3 N5 1_555 1_555
O4 Cu1 1_555 1_555
Cu1 N2 1_555 1_555
Cu2 O5 1_555 1_555
N6 C25 1_555 1_555
C25 H17 1_555 1_555
C26 C25 1_555 1_555
H18 C26 1_555 1_555
C27 C26 1_555 1_555
C28 C27 1_555 1_555
C29 C28 1_555 1_555
C30 C29 1_555 1_555
C31 C30 1_555 1_555
H19 C31 1_555 1_555
C32 C31 1_555 1_555
H20 C32 1_555 1_555
N7 Cu2 1_555 1_555
N8 Cu2 1_555 1_555
C33 N8 1_555 1_555
H21 C33 1_555 1_555
C34 C33 1_555 1_555
H22 C34 1_555 1_555
C35 C34 1_555 1_555
C36 C35 1_555 1_555
H23 C36 1_555 1_555
C37 N8 1_555 1_555
H24 C37 1_555 1_555
C38 C35 1_555 1_555
N9 C39 1_555 1_555
C39 H25 1_555 1_555
C40 C39 1_555 1_555
H26 C40 1_555 1_555
C41 C40 1_555 1_555
C42 C41 1_555 1_555
H27 C42 1_555 1_555
C43 N9 1_555 1_555
H28 C43 1_555 1_555
C44 C41 1_555 1_555
N10 O7 1_555 1_555
O8 N10 1_555 1_555
O9 N10 1_555 1_555
N11 O10 1_555 1_555
O11 N11 1_555 1_555
O12 N11 1_555 1_555
N1_2 Cu1 1_555 1_555
Cu1_2 N1 1_555 1_555
N3C Cu1 1_555 1_555
Cu1A N3 1_555 1_555
C26B C27 1_555 1_555
C25B N6 1_555 1_555
H17B C25B 1_555 1_555
H18B C26B 1_555 1_555
Cu2_2 N6 1_555 1_555
O5B Cu2 1_555 1_555
N6_2 Cu2 1_555 1_555
C38E C38 1_555 1_555
C35E C38E 1_555 1_555
C34E C35E 1_555 1_555
C33E C34E 1_555 1_555
N8E C33E 1_555 1_555
Cu2C N8E 1_555 1_555
C37E N8E 1_555 1_555
C36E C35E 1_555 1_555
H23E C36E 1_555 1_555
H24E C37E 1_555 1_555
H21E C33E 1_555 1_555
H22E C34E 1_555 1_555
N8B Cu2 1_555 1_555
C32B N7 1_555 1_555
C31B C30 1_555 1_555
H19B C31B 1_555 1_555
H20B C32B 1_555 1_555
C44B C44 1_555 1_555
C41B C44B 1_555 1_555
C40B C41B 1_555 1_555
C39B C40B 1_555 1_555
N9B C39B 1_555 1_555
C43B N9B 1_555 1_555
C42B C41B 1_555 1_555
H27B C42B 1_555 1_555
H28B C43B 1_555 1_555
H25B C39B 1_555 1_555
H26B C40B 1_555 1_555
C4 C5 1_555 1_555
C9 C12 1_555 1_555
C10 C11 1_555 1_555
C16 C17 1_555 1_555
C18 C24 1_555 1_555
N4 Cu1 1_555 1_555
C22 C23 1_555 1_555
C32 N7 1_555 1_555
C36 C37 1_555 1_555
C42 C43 1_555 1_555
C26B C25B 1_555 1_555
C37E C36E 1_555 1_555
C32B C31B 1_555 1_555
C43B C42B 1_555 1_555

#END
