
#######################################################################
#
#                 Cambridge Crystallographic Data Centre
#                                CCDC 
#
#######################################################################
#
# If this CIF has been generated from an entry in the Cambridge 
# Structural Database, then it will include bibliographic, chemical, 
# crystal, experimental, refinement or atomic coordinate data resulting 
# from the CCDC's data processing and validation procedures.
#
#######################################################################

data_QADWUQ
_chemical_formula_moiety         '(C16 H24 Dy2 N2 O21 P2)n'
_symmetry_cell_setting           monoclinic
_symmetry_space_group_name_H-M   'P 21/c'
_symmetry_Int_Tables_number      14
_space_group_name_Hall           '-P 2ybc'
loop_
_symmetry_equiv_pos_site_id
_symmetry_equiv_pos_as_xyz
1 x,y,z
2 -x,1/2+y,1/2-z
3 -x,-y,-z
4 x,1/2-y,1/2+z
_cell_length_a                   9.7192(2)
_cell_length_b                   10.4517(2)
_cell_length_c                   16.4217(4)
_cell_angle_alpha                90
_cell_angle_beta                 112.580(2)
_cell_angle_gamma                90
_cell_volume                     1540.28
loop_
_atom_site_label
_atom_site_type_symbol
_atom_site_fract_x
_atom_site_fract_y
_atom_site_fract_z
C1 C -0.3210(6) 1.0598(6) -0.0315(4)
H1 H -0.3904 1.1169 -0.0684
C2 C -0.3580(8) 0.9327(7) -0.0315(5)
H2 H -0.4517 0.9033 -0.0681
C3 C -0.2536(9) 0.8502(7) 0.0234(5)
H3 H -0.2762 0.7639 0.0243
C4 C -0.1168(9) 0.8949(5) 0.0766(4)
H4 H -0.0469 0.8384 0.1139
C5 C -0.0799(6) 1.0224(5) 0.0761(3)
C6 C 0.0678(6) 1.0767(5) 0.1298(3)
H5 H 0.0936 1.1404 0.0951
H6 H 0.1418 1.0091 0.1439
C7 C -0.0722(5) 0.9687(4) 0.4671(3)
C8 C 0.5172(5) 0.9382(4) 0.5273(3)
Dy1 Dy 0.17842(2) 0.894285(19) 0.393023(12)
N1 N -0.1857(5) 1.1020(4) 0.0214(3)
O1 O 0.0603(3) 1.0476(3) 0.2919(2)
O2 O 0.2350(4) 1.2111(4) 0.2709(2)
H7 H 0.2872 1.1707 0.3147
O3 O -0.0405(3) 1.2519(3) 0.2100(2)
O4 O -0.1536(4) 1.2249(3) 0.0177(2)
O5 O -0.1860(3) 0.9794(3) 0.4847(2)
O6 O -0.0633(3) 0.9136(3) 0.4024(2)
O7 O 0.4226(3) 0.8512(3) 0.5044(2)
O8 O 0.6411(3) 0.9352(3) 0.5911(2)
O9 O 0.3155(4) 0.8316(5) 0.3079(3)
H8 H 0.2787 0.7770 0.2768
H9 H 0.3934 0.8726 0.3104
P1 P 0.07480(13) 1.14983(12) 0.23131(7)
C7B C 0.0722(5) 1.0313(4) 0.5329(3)
O5B O 0.1860(3) 1.0206(3) 0.5153(2)
O6B O 0.0633(3) 1.0864(3) 0.5976(2)
C8B C 0.4828(5) 1.0618(4) 0.4727(3)
O7B O 0.5774(3) 1.1488(3) 0.4956(2)
O8B O 0.3589(3) 1.0648(3) 0.4089(2)
C1B C 0.3210(6) 0.9402(6) 1.0315(4)
H1B H 0.3904 0.8831 1.0684
C2B C 0.3580(8) 1.0673(7) 1.0315(5)
H2B H 0.4517 1.0967 1.0681
C3B C 0.2536(9) 1.1498(7) 0.9766(5)
H3B H 0.2762 1.2361 0.9757
C4B C 0.1168(9) 1.1051(5) 0.9234(4)
H4B H 0.0469 1.1616 0.8861
C5B C 0.0799(6) 0.9776(5) 0.9239(3)
C6B C -0.0678(6) 0.9233(5) 0.8702(3)
H5B H -0.0936 0.8596 0.9049
H6B H -0.1418 0.9909 0.8561
Dy1B Dy -0.17842(2) 1.105715(19) 0.606977(12)
N1B N 0.1857(5) 0.8980(4) 0.9786(3)
O1B O -0.0603(3) 0.9524(3) 0.7081(2)
O2B O -0.2350(4) 0.7889(4) 0.7291(2)
H7B H -0.2872 0.8293 0.6853
O3B O 0.0405(3) 0.7481(3) 0.7900(2)
O4B O 0.1536(4) 0.7751(3) 0.9823(2)
O9B O -0.3155(4) 1.1684(5) 0.6921(3)
H8B H -0.2787 1.2230 0.7232
H9B H -0.3934 1.1274 0.6896
P1B P -0.07480(13) 0.85017(12) 0.76869(7)
Dy1A Dy -0.17842(2) 1.394285(19) 0.106977(12)
Dy1B_2 Dy 0.82158(2) 1.105715(19) 0.606977(12)
Dy1C Dy 0.17842(2) 0.605715(19) 0.893023(12)
O3A O 0.0405(3) 0.7519(3) 0.2900(2)
O3C O -0.0405(3) 1.2481(3) 0.7100(2)
O4A O 0.1536(4) 0.7249(3) 0.4823(2)
O4C O -0.1536(4) 1.2751(3) 0.5177(2)
O7B_2 O -0.4226(3) 1.1488(3) 0.4956(2)
O8_2 O -0.3589(3) 0.9352(3) 0.5911(2)
O10 O 0.5975(6) 0.8772(7) 0.3225(4)
H10 H 0.6458 0.8739 0.2923
H11 H 0.6445 0.9205 0.3703
O11 O 0.2807(11) 0.5384(12) 0.2789(8)
H12 H 0.2840 0.4632 0.3022
H13 H 0.2076 0.5771 0.2860
O12 O 0.2310(15) 0.6982(14) 0.1620(8)
H14 H 0.2305 0.6228 0.1803
H15 H 0.1718 0.6762 0.1105
loop_
_geom_bond_atom_site_label_1
_geom_bond_atom_site_label_2
_geom_bond_site_symmetry_1
_geom_bond_site_symmetry_2
C1 H1 1_555 1_555
C2 C1 1_555 1_555
H2 C2 1_555 1_555
C3 C2 1_555 1_555
H3 C3 1_555 1_555
C4 C3 1_555 1_555
H4 C4 1_555 1_555
C5 C4 1_555 1_555
C6 C5 1_555 1_555
H5 C6 1_555 1_555
H6 C6 1_555 1_555
C7 O5 1_555 1_555
C8 O7 1_555 1_555
Dy1 O1 1_555 1_555
N1 C1 1_555 1_555
O1 P1 1_555 1_555
O2 H7 1_555 1_555
O3 P1 1_555 1_555
O4 N1 1_555 1_555
O5 Dy1B 1_555 1_555
O6 C7 1_555 1_555
O7 Dy1 1_555 1_555
O8 C8 1_555 1_555
O9 Dy1 1_555 1_555
H8 O9 1_555 1_555
H9 O9 1_555 1_555
P1 C6 1_555 1_555
O10 H10 1_555 1_555
H11 O10 1_555 1_555
O11 H12 1_555 1_555
H13 O11 1_555 1_555
O12 H14 1_555 1_555
H15 O12 1_555 1_555
C7B C7 1_555 1_555
O5B Dy1 1_555 1_555
O6B C7B 1_555 1_555
C8B C8 1_555 1_555
O7B C8B 1_555 1_555
O8B Dy1 1_555 1_555
C1B H1B 1_555 1_555
C2B C1B 1_555 1_555
H2B C2B 1_555 1_555
C3B C2B 1_555 1_555
H3B C3B 1_555 1_555
C4B C3B 1_555 1_555
H4B C4B 1_555 1_555
C5B C4B 1_555 1_555
C6B C5B 1_555 1_555
H5B C6B 1_555 1_555
H6B C6B 1_555 1_555
Dy1B O6B 1_555 1_555
N1B C1B 1_555 1_555
O1B Dy1B 1_555 1_555
O2B H7B 1_555 1_555
O3B P1B 1_555 1_555
O4B N1B 1_555 1_555
O9B Dy1B 1_555 1_555
H8B O9B 1_555 1_555
H9B O9B 1_555 1_555
P1B C6B 1_555 1_555
Dy1A O3 1_555 1_555
Dy1B_2 O8 1_555 1_555
Dy1C O3B 1_555 1_555
O3A Dy1 1_555 1_555
O3C Dy1B 1_555 1_555
O4A Dy1 1_555 1_555
O4C Dy1B 1_555 1_555
O7B_2 Dy1B 1_555 1_555
O8_2 Dy1B 1_555 1_555
C5 N1 1_555 1_555
Dy1 O6 1_555 1_555
O2 P1 1_555 1_555
O4 Dy1A 1_555 1_555
C7B O5B 1_555 1_555
C8B O8B 1_555 1_555
O7B Dy1B_2 1_555 1_555
C5B N1B 1_555 1_555
O1B P1B 1_555 1_555
O2B P1B 1_555 1_555
O4B Dy1C 1_555 1_555

#END
