
#######################################################################
#
#                 Cambridge Crystallographic Data Centre
#                                CCDC 
#
#######################################################################
#
# If this CIF has been generated from an entry in the Cambridge 
# Structural Database, then it will include bibliographic, chemical, 
# crystal, experimental, refinement or atomic coordinate data resulting 
# from the CCDC's data processing and validation procedures.
#
#######################################################################

data_QADWIE
_chemical_formula_moiety         '(C16 H24 Gd2 N2 O21 P2)n'
_symmetry_cell_setting           monoclinic
_symmetry_space_group_name_H-M   'P 21/c'
_symmetry_Int_Tables_number      14
_space_group_name_Hall           '-P 2ybc'
loop_
_symmetry_equiv_pos_site_id
_symmetry_equiv_pos_as_xyz
1 x,y,z
2 -x,1/2+y,1/2-z
3 -x,-y,-z
4 x,1/2-y,1/2+z
_cell_length_a                   9.7306(19)
_cell_length_b                   10.530(2)
_cell_length_c                   16.416(5)
_cell_angle_alpha                90
_cell_angle_beta                 112.13(2)
_cell_angle_gamma                90
_cell_volume                     1558.12
loop_
_atom_site_label
_atom_site_type_symbol
_atom_site_fract_x
_atom_site_fract_y
_atom_site_fract_z
C1 C -0.3229(5) 1.0539(5) -0.0307(3)
H1 H -0.3926 1.1102 -0.0673
C2 C -0.3579(6) 0.9271(6) -0.0295(4)
H2 H -0.4506 0.8972 -0.0661
C3 C -0.2558(8) 0.8458(6) 0.0257(4)
H3 H -0.2798 0.7606 0.0276
C4 C -0.1183(7) 0.8891(4) 0.0783(3)
H4 H -0.0489 0.8332 0.1156
C5 C -0.0817(5) 1.0171(4) 0.0760(3)
C6 C 0.0660(5) 1.0714(4) 0.1280(3)
H5 H 0.0903 1.1349 0.0928
H6 H 0.1398 1.0046 0.1410
C7 C -0.0715(4) 0.9674(3) 0.4680(2)
C8 C 0.5165(4) 0.9399(3) 0.5291(2)
Gd1 Gd 0.180219(17) 0.888037(16) 0.393420(10)
N1 N -0.1867(4) 1.0962(3) 0.0215(2)
O1 O 0.0620(3) 1.0420(3) 0.29066(17)
O2 O 0.2371(3) 1.2032(3) 0.26798(19)
H7 H 0.2840 1.1730 0.3166
O3 O -0.0385(3) 1.2463(2) 0.21048(16)
O4 O -0.1546(3) 1.2179(3) 0.01707(17)
O5 O -0.1857(3) 0.9794(3) 0.48541(18)
O6 O -0.0619(3) 0.9090(3) 0.40476(18)
O7 O 0.4262(3) 0.8520(3) 0.50717(19)
O8 O 0.6373(3) 0.9432(3) 0.59488(17)
O9 O 0.3212(4) 0.8160(4) 0.3099(3)
H8 H 0.2771 0.7593 0.2723
H9 H 0.3947 0.8610 0.3114
P1 P 0.07588(10) 1.14354(9) 0.23021(6)
C7B C 0.0715(4) 1.0326(3) 0.5320(2)
O5B O 0.1857(3) 1.0206(3) 0.51459(18)
O6B O 0.0619(3) 1.0910(3) 0.59524(18)
C8B C 0.4835(4) 1.0601(3) 0.4709(2)
O7B O 0.5738(3) 1.1480(3) 0.49283(19)
O8B O 0.3627(3) 1.0568(3) 0.40512(17)
C1B C 0.3229(5) 0.9461(5) 1.0307(3)
H1B H 0.3926 0.8898 1.0673
C2B C 0.3579(6) 1.0729(6) 1.0295(4)
H2B H 0.4506 1.1028 1.0661
C3B C 0.2558(8) 1.1542(6) 0.9743(4)
H3B H 0.2798 1.2394 0.9724
C4B C 0.1183(7) 1.1109(4) 0.9217(3)
H4B H 0.0489 1.1668 0.8844
C5B C 0.0817(5) 0.9829(4) 0.9240(3)
C6B C -0.0660(5) 0.9286(4) 0.8720(3)
H5B H -0.0903 0.8651 0.9072
H6B H -0.1398 0.9954 0.8590
Gd1B Gd -0.180219(17) 1.111963(16) 0.606580(10)
N1B N 0.1867(4) 0.9038(3) 0.9785(2)
O1B O -0.0620(3) 0.9580(3) 0.70934(17)
O2B O -0.2371(3) 0.7968(3) 0.73202(19)
H7B H -0.2840 0.8270 0.6834
O3B O 0.0385(3) 0.7537(2) 0.78952(16)
O4B O 0.1546(3) 0.7821(3) 0.98293(17)
O9B O -0.3212(4) 1.1840(4) 0.6901(3)
H8B H -0.2771 1.2407 0.7277
H9B H -0.3947 1.1390 0.6886
P1B P -0.07588(10) 0.85646(9) 0.76979(6)
Gd1A Gd -0.180219(17) 1.388037(16) 0.106580(10)
Gd1B_2 Gd 0.819781(17) 1.111963(16) 0.606580(10)
Gd1C Gd 0.180219(17) 0.611963(16) 0.893420(10)
O3A O 0.0385(3) 0.7463(2) 0.28952(16)
O3C O -0.0385(3) 1.2537(2) 0.71048(16)
O4A O 0.1546(3) 0.7179(3) 0.48293(17)
O4C O -0.1546(3) 1.2821(3) 0.51707(17)
O7B_2 O -0.4262(3) 1.1480(3) 0.49283(19)
O8_2 O -0.3627(3) 0.9432(3) 0.59488(17)
O10 O 0.6036(4) 0.8668(5) 0.3216(3)
H10 H 0.6549 0.8715 0.2897
H11 H 0.6435 0.9129 0.3669
O11 O 0.2741(7) 0.5601(8) 0.2665(6)
H12 H 0.2057 0.5716 0.2861
H13 H 0.2807 0.4852 0.2869
O12 O 0.214(3) 0.681(3) 0.1625(16)
H14 H 0.3032 0.6896 0.1661
H15 H 0.1792 0.6738 0.1068
loop_
_geom_bond_atom_site_label_1
_geom_bond_atom_site_label_2
_geom_bond_site_symmetry_1
_geom_bond_site_symmetry_2
C1 H1 1_555 1_555
C2 C1 1_555 1_555
H2 C2 1_555 1_555
C3 C2 1_555 1_555
H3 C3 1_555 1_555
C4 C3 1_555 1_555
H4 C4 1_555 1_555
C5 C4 1_555 1_555
C6 C5 1_555 1_555
H5 C6 1_555 1_555
H6 C6 1_555 1_555
C7 O5 1_555 1_555
C8 O7 1_555 1_555
Gd1 O1 1_555 1_555
N1 C1 1_555 1_555
O1 P1 1_555 1_555
O2 H7 1_555 1_555
O3 P1 1_555 1_555
O4 N1 1_555 1_555
O5 Gd1B 1_555 1_555
O6 C7 1_555 1_555
O7 Gd1 1_555 1_555
O8 C8 1_555 1_555
O9 Gd1 1_555 1_555
H8 O9 1_555 1_555
H9 O9 1_555 1_555
P1 C6 1_555 1_555
O10 H10 1_555 1_555
H11 O10 1_555 1_555
O11 H12 1_555 1_555
H13 O11 1_555 1_555
O12 H14 1_555 1_555
H15 O12 1_555 1_555
C7B C7 1_555 1_555
O5B Gd1 1_555 1_555
O6B C7B 1_555 1_555
C8B C8 1_555 1_555
O7B C8B 1_555 1_555
O8B Gd1 1_555 1_555
C1B H1B 1_555 1_555
C2B C1B 1_555 1_555
H2B C2B 1_555 1_555
C3B C2B 1_555 1_555
H3B C3B 1_555 1_555
C4B C3B 1_555 1_555
H4B C4B 1_555 1_555
C5B C4B 1_555 1_555
C6B C5B 1_555 1_555
H5B C6B 1_555 1_555
H6B C6B 1_555 1_555
Gd1B O6B 1_555 1_555
N1B C1B 1_555 1_555
O1B Gd1B 1_555 1_555
O2B H7B 1_555 1_555
O3B P1B 1_555 1_555
O4B N1B 1_555 1_555
O9B Gd1B 1_555 1_555
H8B O9B 1_555 1_555
H9B O9B 1_555 1_555
P1B C6B 1_555 1_555
Gd1A O3 1_555 1_555
Gd1B_2 O8 1_555 1_555
Gd1C O3B 1_555 1_555
O3A Gd1 1_555 1_555
O3C Gd1B 1_555 1_555
O4A Gd1 1_555 1_555
O4C Gd1B 1_555 1_555
O7B_2 Gd1B 1_555 1_555
O8_2 Gd1B 1_555 1_555
C5 N1 1_555 1_555
Gd1 O6 1_555 1_555
O2 P1 1_555 1_555
O4 Gd1A 1_555 1_555
C7B O5B 1_555 1_555
C8B O8B 1_555 1_555
O7B Gd1B_2 1_555 1_555
C5B N1B 1_555 1_555
O1B P1B 1_555 1_555
O2B P1B 1_555 1_555
O4B Gd1C 1_555 1_555

#END
