
#######################################################################
#
#                 Cambridge Crystallographic Data Centre
#                                CCDC 
#
#######################################################################
#
# If this CIF has been generated from an entry in the Cambridge 
# Structural Database, then it will include bibliographic, chemical, 
# crystal, experimental, refinement or atomic coordinate data resulting 
# from the CCDC's data processing and validation procedures.
#
#######################################################################

data_GAKBAX
_chemical_formula_moiety         '(C7 H19 Eu1 N1 O9 P1)n'
_symmetry_cell_setting           monoclinic
_symmetry_space_group_name_H-M   'P 21/c'
_symmetry_Int_Tables_number      14
_space_group_name_Hall           '-P 2ybc'
loop_
_symmetry_equiv_pos_site_id
_symmetry_equiv_pos_as_xyz
1 x,y,z
2 -x,1/2+y,1/2-z
3 -x,-y,-z
4 x,1/2-y,1/2+z
_cell_length_a                   5.5313(7)
_cell_length_b                   13.3960(17)
_cell_length_c                   20.934(3)
_cell_angle_alpha                90
_cell_angle_beta                 96.177(2)
_cell_angle_gamma                90
_cell_volume                     1542.15
loop_
_atom_site_label
_atom_site_type_symbol
_atom_site_fract_x
_atom_site_fract_y
_atom_site_fract_z
Eu1 Eu 0.37323(11) 0.86785(5) 1.02763(3)
P1 P 0.0869(6) 0.9777(2) 0.91341(15)
O1 O 0.3165(15) 1.0177(6) 0.9545(4)
O2 O 0.0387(14) 0.8780(6) 0.9428(4)
O3 O -0.1267(15) 1.0469(7) 0.9100(4)
O4 O -0.2965(17) 0.7536(7) 0.5676(4)
O5 O -0.4973(17) 0.6835(7) 0.6402(4)
O6 O 0.5711(16) 0.8150(7) 0.9355(4)
H1 H 0.6871 0.7753 0.9475
H2 H 0.4686 0.7856 0.9087
O7 O 0.1469(16) 0.7143(7) 1.0337(5)
H3 H 0.2121 0.6786 1.0640
H4 H 0.0032 0.7280 1.0404
N1 N 0.0020(19) 0.9203(8) 0.7843(5)
C1 C 0.182(2) 0.9634(10) 0.8333(6)
H9 H 0.2282 1.0285 0.8184
H10 H 0.3259 0.9216 0.8365
C2 C 0.082(3) 0.9340(11) 0.7200(5)
H11 H 0.2379 0.9013 0.7184
H12 H 0.1039 1.0047 0.7122
C3 C -0.096(3) 0.8924(11) 0.6693(6)
H13 H -0.0370 0.9025 0.6278
H14 H -0.2485 0.9284 0.6692
C4 C -0.143(2) 0.7821(9) 0.6783(5)
H15 H 0.0123 0.7476 0.6756
C5 C -0.211(3) 0.7656(11) 0.7461(6)
H16 H -0.3693 0.7949 0.7498
H17 H -0.2216 0.6946 0.7543
C6 C -0.024(3) 0.8123(10) 0.7956(6)
H18 H -0.0731 0.8018 0.8382
H19 H 0.1317 0.7798 0.7937
C7 C -0.326(2) 0.7370(10) 0.6266(6)
Eu1B Eu 0.62677(11) 1.13215(5) 0.97237(3)
Eu1B_2 Eu -0.37323(11) 1.13215(5) 0.97237(3)
Eu1C Eu -0.62677(11) 0.63215(5) 0.52763(3)
O1B O 0.6835(15) 0.9823(6) 1.0455(4)
O3B O 0.1267(15) 0.9531(7) 1.0900(4)
O4C O 0.7035(17) 0.7464(7) 1.0676(4)
O5C O 0.5027(17) 0.8165(7) 1.1402(4)
O8 O 0.482(3) 0.6324(10) 0.8682(6)
H5 H 0.5846 0.5904 0.8843
H6 H 0.3503 0.6028 0.8563
O9 O 0.336(2) 0.5782(8) 0.7425(5)
H7 H 0.2368 0.6047 0.7141
H8 H 0.4749 0.5766 0.7297
loop_
_geom_bond_atom_site_label_1
_geom_bond_atom_site_label_2
_geom_bond_site_symmetry_1
_geom_bond_site_symmetry_2
Eu1 O1 1_555 1_555
P1 O1 1_555 1_555
O1 Eu1B 1_555 1_555
O2 Eu1 1_555 1_555
O3 P1 1_555 1_555
O4 C7 1_555 1_555
O5 C7 1_555 1_555
O6 Eu1 1_555 1_555
H1 O6 1_555 1_555
H2 O6 1_555 1_555
O7 Eu1 1_555 1_555
H3 O7 1_555 1_555
H4 O7 1_555 1_555
O8 H5 1_555 1_555
H6 O8 1_555 1_555
O9 H7 1_555 1_555
H8 O9 1_555 1_555
N1 C1 1_555 1_555
C1 P1 1_555 1_555
H9 C1 1_555 1_555
H10 C1 1_555 1_555
C2 N1 1_555 1_555
H11 C2 1_555 1_555
H12 C2 1_555 1_555
C3 C2 1_555 1_555
H13 C3 1_555 1_555
H14 C3 1_555 1_555
C4 C3 1_555 1_555
H15 C4 1_555 1_555
C5 C4 1_555 1_555
H16 C5 1_555 1_555
H17 C5 1_555 1_555
C6 N1 1_555 1_555
H18 C6 1_555 1_555
H19 C6 1_555 1_555
C7 C4 1_555 1_555
Eu1B O1B 1_555 1_555
Eu1B_2 O3 1_555 1_555
Eu1C O4 1_555 1_555
O1B Eu1 1_555 1_555
O3B Eu1 1_555 1_555
O4C Eu1 1_555 1_555
O5C Eu1 1_555 1_555
P1 O2 1_555 1_555
O5 Eu1C 1_555 1_555
C5 C6 1_555 1_555

#END
