
#######################################################################
#
#                 Cambridge Crystallographic Data Centre
#                                CCDC 
#
#######################################################################
#
# If this CIF has been generated from an entry in the Cambridge 
# Structural Database, then it will include bibliographic, chemical, 
# crystal, experimental, refinement or atomic coordinate data resulting 
# from the CCDC's data processing and validation procedures.
#
#######################################################################

data_OBENAL02
_chemical_formula_moiety         'C9 H15 Co6 O17'
_symmetry_cell_setting           orthorhombic
_symmetry_space_group_name_H-M   'I m m a'
_symmetry_Int_Tables_number      74
_space_group_name_Hall           '-I 2b 2'
loop_
_symmetry_equiv_pos_site_id
_symmetry_equiv_pos_as_xyz
1 x,y,z
2 1/2+x,1/2+y,1/2+z
3 x,1/2+y,-z
4 x,1/2-y,z
5 -x,y,z
6 1/2+x,y,1/2-z
7 1/2+x,-y,1/2+z
8 1/2-x,1/2+y,1/2+z
9 -x,-y,-z
10 1/2-x,1/2-y,1/2-z
11 -x,1/2-y,z
12 -x,1/2+y,-z
13 x,-y,-z
14 1/2-x,-y,1/2+z
15 1/2-x,y,1/2-z
16 1/2+x,1/2-y,1/2-z
_cell_length_a                   12.3847(16)
_cell_length_b                   28.860(4)
_cell_length_c                   5.373(9)
_cell_angle_alpha                90
_cell_angle_beta                 90
_cell_angle_gamma                90
_cell_volume                     1920.43
loop_
_atom_site_label
_atom_site_type_symbol
_atom_site_fract_x
_atom_site_fract_y
_atom_site_fract_z
_atom_site_U_iso_or_equiv
_atom_site_thermal_displace_type
Co1 Co 0.37551(11) 0.7500 0.2455(3) 0.0087 Uani
Co2 Co 0.2500 0.7500 0.7500 0.0089 Uani
Co3 Co 0.5000 0.80906(6) -0.2578(3) 0.0128 Uani
O1 O 0.5000 0.7941(7) 0.104(3) 0.0170 Uiso
H1 H 0.5000 0.8177 0.1816 0.0210 Uiso
O2 O 0.3666(9) 0.7069(4) 0.572(2) 0.0100 Uiso
H2 H 0.3373 0.6833 0.5339 0.0120 Uiso
H3 H 0.5000 0.8132 0.3078 0.0190 Uiso
O5 O 0.2502(10) 0.7853(4) 0.419(2) 0.0100 Uiso
H5 H 0.2500 0.8130 0.4194 0.0120 Uiso
O6 O 0.5000 0.8789(3) -0.2620(15) 0.0197 Uani
O7 O 0.5000 0.8800(4) -0.672(2) 0.0397 Uani
C1 C 0.5000 0.8998(6) -0.475(3) 0.0320 Uani
C2 C 0.4789(19) 0.9516(7) -0.459(4) 0.0340 Uiso
H6 H 0.4332 0.9556 -0.3068 0.0410 Uiso
C3 C 0.422(2) 0.9732(9) -0.648(6) 0.0470 Uiso
H7 H 0.3492 0.9591 -0.6594 0.0560 Uiso
H8 H 0.4594 0.9676 -0.8078 0.0560 Uiso
C4 C 0.590(2) 0.9741(9) -0.390(5) 0.0400 Uiso
H9 H 0.3568 0.9680 -0.5242 0.0480 Uiso
H10 H 0.3816 0.9599 -0.2347 0.0480 Uiso
O1C O 0.5000 0.7059(7) 0.104(3) 0.0170 Uiso
O2C O 0.3666(9) 0.7931(4) 0.572(2) 0.0100 Uiso
O5C O 0.2502(10) 0.7147(4) 0.419(2) 0.0100 Uiso
O5I O 0.2498(10) 0.7147(4) 0.081(2) 0.0100 Uiso
O5N O 0.2498(10) 0.7853(4) 0.081(2) 0.0100 Uiso
O2I O 0.1334(9) 0.7931(4) 0.928(2) 0.0100 Uiso
O2N O 0.1334(9) 0.7069(4) 0.928(2) 0.0100 Uiso
O5I_2 O 0.2498(10) 0.7147(4) 1.081(2) 0.0100 Uiso
O5N_2 O 0.2498(10) 0.7853(4) 1.081(2) 0.0100 Uiso
O2C_2 O 0.3666(9) 0.7931(4) -0.428(2) 0.0100 Uiso
O2J O 0.6334(9) 0.7931(4) -0.428(2) 0.0100 Uiso
Co1D Co 0.62449(11) 0.7500 0.2455(3) 0.0087 Uani
Co3C Co 0.5000 0.69094(6) 0.7422(3) 0.0128 Uani
Co1I Co 0.12449(11) 0.7500 0.2545(3) 0.0087 Uani
C2D C 0.5211(19) 0.9516(7) -0.459(4) 0.0340 Uiso
C3D C 0.578(2) 0.9732(9) -0.648(6) 0.0470 Uiso
C4D C 0.410(2) 0.9741(9) -0.390(5) 0.0400 Uiso
C4H C 0.410(2) 1.0259(9) -0.610(5) 0.0400 Uiso
H9D H 0.6432 0.9680 -0.5242 0.0480 Uiso
H10D H 0.6184 0.9599 -0.2347 0.0480 Uiso
H6D H 0.5668 0.9556 -0.3068 0.0410 Uiso
C3H C 0.578(2) 1.0268(9) -0.352(6) 0.0470 Uiso
O8 O 0.7091(6) 0.8836(3) 0.0057(16) 0.0310 Uani
H11 H 0.648(5) 0.882(5) 0.05(2) 0.0370 Uiso
H12 H 0.703(13) 0.876(9) -0.133(16) 0.0370 Uiso
H13 H 0.732(11) 0.880(9) 0.147(17) 0.0370 Uiso
loop_
_atom_site_aniso_label
_atom_site_aniso_U_11
_atom_site_aniso_U_22
_atom_site_aniso_U_33
_atom_site_aniso_U_23
_atom_site_aniso_U_13
_atom_site_aniso_U_12
Co1 0.0025(8) 0.0144(9) 0.0091(8) 0.000 0.0003(5) 0.000
Co2 0.0022(10) 0.0143(11) 0.0101(11) 0.000 0.0004(8) 0.000
Co3 0.0034(8) 0.0193(10) 0.0156(9) 0.0019(7) 0.000 0.000
O6 0.013(4) 0.027(5) 0.019(5) 0.007(4) 0.000 0.000
O7 0.048(7) 0.033(7) 0.038(6) 0.002(5) 0.000 0.000
C1 0.019(7) 0.022(8) 0.055(10) -0.011(7) 0.000 0.000
Co1D 0.0025 0.0144 0.0091 0 -0.0003 0
Co3C 0.0034 0.0193 0.0156 -0.0019 0 0
Co1I 0.0025 0.0144 0.0091 0 0.0003 0
O8 0.019(3) 0.029(4) 0.045(4) 0.000(4) -0.010(4) -0.001(4)
loop_
_geom_bond_atom_site_label_1
_geom_bond_atom_site_label_2
_geom_bond_site_symmetry_1
_geom_bond_site_symmetry_2
Co1 O1 1_555 1_555
Co2 O2 1_555 1_555
Co3 O1 1_555 1_555
O1 H1 1_555 1_555
H1 H3 1_555 1_555
O2 Co1 1_555 1_555
H2 O2 1_555 1_555
H3 O1 1_555 1_555
O5 Co1 1_555 1_555
H5 O5 1_555 1_555
O6 Co3 1_555 1_555
O7 C1 1_555 1_555
C1 O6 1_555 1_555
C2 C1 1_555 1_555
H6 C2 1_555 1_555
C3 C2 1_555 1_555
H7 C3 1_555 1_555
H8 C3 1_555 1_555
C4 C2 1_555 1_555
H9 C3 1_555 1_555
H10 H6 1_555 1_555
O8 H11 1_555 1_555
H12 O8 1_555 1_555
H13 O8 1_555 1_555
O1C Co1 1_555 1_555
O2C Co1 1_555 1_555
O5C Co1 1_555 1_555
O5I Co1 1_555 1_555
O5N Co1 1_555 1_555
O2I Co2 1_555 1_555
O2N Co2 1_555 1_555
O5I_2 Co2 1_555 1_555
O5N_2 Co2 1_555 1_555
O2C_2 Co3 1_555 1_555
O2J Co3 1_555 1_555
Co1D O1 1_555 1_555
Co3C O2 1_555 1_555
Co1I O5 1_555 1_555
C2D C1 1_555 1_555
C3D C2 1_555 1_555
C4D C2 1_555 1_555
C4H C3 1_555 1_555
H9D C4 1_555 1_555
H10D C4 1_555 1_555
H6D C4 1_555 1_555
C3H C4 1_555 1_555
Co2 O2C 1_555 1_555
Co2 O5 1_555 1_555
Co2 O5C 1_555 1_555
O2 O5C 1_555 1_555
O5 O2C 1_555 1_555
C2 C2D 1_555 1_555
H6 C4D 1_555 1_555
C3 C4D 1_555 1_555
C3 C2D 1_555 1_555
H7 H9 1_555 1_555
C4 C2D 1_555 1_555
C4 C3D 1_555 1_555
H9 C4D 1_555 1_555
H10 C4D 1_555 1_555
O1C Co1D 1_555 1_555
O5C Co1I 1_555 1_555
O5I Co1I 1_555 1_555
O5N Co1I 1_555 1_555
O2I O5N_2 1_555 1_555
O2N O5I_2 1_555 1_555
C2D H6D 1_555 1_555
C2D C3D 1_555 1_555
C2D C4D 1_555 1_555
C3D H9D 1_555 1_555
H10D H6D 1_555 1_555

#END
