
#######################################################################
#
#                 Cambridge Crystallographic Data Centre
#                                CCDC 
#
#######################################################################
#
# If this CIF has been generated from an entry in the Cambridge 
# Structural Database, then it will include bibliographic, chemical, 
# crystal, experimental, refinement or atomic coordinate data resulting 
# from the CCDC's data processing and validation procedures.
#
#######################################################################

data_ATIBAG
_chemical_formula_moiety         '(C13 H18 Mn6 O26)n'
_symmetry_cell_setting           monoclinic
_symmetry_space_group_name_H-M   'P 21/c'
_symmetry_Int_Tables_number      14
_space_group_name_Hall           '-P 2ybc'
loop_
_symmetry_equiv_pos_site_id
_symmetry_equiv_pos_as_xyz
1 x,y,z
2 -x,1/2+y,1/2-z
3 -x,-y,-z
4 x,1/2-y,1/2+z
_cell_length_a                   11.6495(11)
_cell_length_b                   10.1279(11)
_cell_length_c                   18.6135(15)
_cell_angle_alpha                90
_cell_angle_beta                 127.056(3)
_cell_angle_gamma                90
_cell_volume                     1752.6
loop_
_atom_site_label
_atom_site_type_symbol
_atom_site_fract_x
_atom_site_fract_y
_atom_site_fract_z
Mn1 Mn 0.37432(3) 0.08441(3) 0.131153(19)
Mn2 Mn 0.57553(3) -0.10029(3) 0.31508(2)
Mn3 Mn 0.5000 0.0000 0.0000
Mn4 Mn 0.0000 0.0000 0.0000
O1 O 0.43917(16) 0.20728(14) 0.24728(9)
O2 O 0.55274(19) 0.07452(16) 0.36767(10)
O3 O 0.59193(16) 0.00050(14) 0.21930(10)
O4 O 0.68006(18) 0.00373(18) 0.14175(11)
O5 O 0.45245(16) 0.26268(15) 0.10609(9)
O6 O 0.48175(19) 0.21092(17) 0.00144(10)
O7 O 0.34591(16) -0.07601(15) 0.19747(9)
O8 O 0.11091(19) -0.10724(19) 0.12488(11)
O9 O 0.33469(16) -0.02882(15) 0.02115(9)
O10 O 0.11621(19) -0.10695(17) -0.03739(12)
O11 O 0.15904(16) 0.16232(15) 0.05982(10)
O12 O 0.19788(17) 0.37827(16) 0.09046(10)
C1 C 0.4980(3) 0.1814(2) 0.32915(14)
H1 H 0.5007 0.2506 0.3646
C2 C 0.6925(3) -0.0073(2) 0.21150(15)
H2 H 0.7865 -0.0234 0.2650
C3 C 0.4753(3) 0.2907(2) 0.04908(15)
H3 H 0.4886 0.3812 0.0426
C4 C 0.2377(3) -0.1274(3) 0.18717(15)
H4 H 0.2568 -0.1877 0.2323
C5 C 0.2254(3) -0.1017(2) -0.03191(15)
H5 H 0.2299 -0.1576 -0.0712
C6 C 0.1194(3) 0.2816(2) 0.05222(15)
H6 H 0.0188 0.2979 0.0130
O3B O 0.40807(16) -0.00050(14) -0.21930(10)
O4B O 0.31994(18) -0.00373(18) -0.14175(11)
C2B C 0.3075(3) 0.0073(2) -0.21150(15)
H2B H 0.2135 0.0234 -0.2650
O5B O 0.54755(16) -0.26268(15) -0.10609(9)
O6B O 0.51825(19) -0.21092(17) -0.00144(10)
C3B C 0.5247(3) -0.2907(2) -0.04908(15)
H3B H 0.5114 -0.3812 -0.0426
O9B O 0.66531(16) 0.02882(15) -0.02115(9)
O10B O 0.88379(19) 0.10695(17) 0.03739(12)
C5B C 0.7746(3) 0.1017(2) 0.03191(15)
H5B H 0.7701 0.1576 0.0712
Mn1B Mn 0.62568(3) -0.08441(3) -0.131153(19)
Mn2B Mn 0.42447(3) 0.10029(3) -0.31508(2)
O1A O 0.56083(16) -0.29272(14) 0.25272(9)
O2A O 0.44726(19) -0.42548(16) 0.13233(10)
C1A C 0.5020(3) -0.3186(2) 0.17085(14)
H1A H 0.4993 -0.2494 0.1354
O11A O 0.84096(16) -0.33768(15) 0.44018(10)
O12A O 0.80212(17) -0.12173(16) 0.40954(10)
C6A C 0.8806(3) -0.2184(2) 0.44778(15)
H6A H 0.9812 -0.2021 0.4870
O7B O -0.34591(16) 0.07601(15) -0.19747(9)
O8B O -0.11091(19) 0.10724(19) -0.12488(11)
C4B C -0.2377(3) 0.1274(3) -0.18717(15)
H4B H -0.2568 0.1877 -0.2323
O5A O 0.54755(16) -0.23732(15) 0.39391(9)
O10B_2 O -0.11621(19) 0.10695(17) 0.03739(12)
O11B O -0.15904(16) -0.16232(15) -0.05982(10)
Mn2A Mn 0.42447(3) 0.39971(3) 0.18492(2)
Mn2C Mn 0.57553(3) -0.39971(3) -0.18492(2)
Mn4_2 Mn 1.0000 0.0000 0.0000
O1B O 0.56083(16) -0.20728(14) -0.24728(9)
O7B_2 O 0.65409(16) 0.07601(15) -0.19747(9)
O11B_2 O 0.84096(16) -0.16232(15) -0.05982(10)
O1C O 0.43917(16) 0.29272(14) -0.25272(9)
O2B O 0.44726(19) -0.07452(16) -0.36767(10)
O5C O 0.45245(16) 0.23732(15) -0.39391(9)
O12C O 0.19788(17) 0.12173(16) -0.40954(10)
Mn1A Mn 0.62568(3) -0.41559(3) 0.368847(19)
Mn2A_2 Mn 0.42447(3) -0.60029(3) 0.18492(2)
Mn4C Mn 1.0000 -0.5000 0.5000
Mn1B_2 Mn -0.37432(3) -0.08441(3) -0.131153(19)
Mn2B_2 Mn -0.57553(3) 0.10029(3) -0.31508(2)
O13 O 0.1865(18) -0.4472(11) -0.0864(7)
C7 C 0.2116(17) -0.430(2) -0.1491(9)
O14 O -0.073(5) -0.181(5) -0.342(3)
loop_
_geom_bond_atom_site_label_1
_geom_bond_atom_site_label_2
_geom_bond_site_symmetry_1
_geom_bond_site_symmetry_2
Mn1 O1 1_555 1_555
Mn2 O2 1_555 1_555
Mn3 O4 1_555 1_555
Mn4 O8 1_555 1_555
O1 C1 1_555 1_555
O2 C1 1_555 1_555
O3 Mn1 1_555 1_555
O4 C2 1_555 1_555
O5 Mn1 1_555 1_555
O6 Mn3 1_555 1_555
O7 Mn1 1_555 1_555
O8 C4 1_555 1_555
O9 Mn1 1_555 1_555
O10 Mn4 1_555 1_555
O11 Mn1 1_555 1_555
O12 C6 1_555 1_555
C1 H1 1_555 1_555
C2 O3 1_555 1_555
H2 C2 1_555 1_555
C3 O5 1_555 1_555
H3 C3 1_555 1_555
C4 O7 1_555 1_555
H4 C4 1_555 1_555
C5 O9 1_555 1_555
H5 C5 1_555 1_555
C6 O11 1_555 1_555
H6 C6 1_555 1_555
O13 C7 1_555 1_555
O3B C2B 1_555 1_555
O4B Mn3 1_555 1_555
C2B O4B 1_555 1_555
H2B C2B 1_555 1_555
O5B C3B 1_555 1_555
O6B Mn3 1_555 1_555
C3B O6B 1_555 1_555
H3B C3B 1_555 1_555
O9B Mn3 1_555 1_555
O10B C5B 1_555 1_555
C5B O9B 1_555 1_555
H5B C5B 1_555 1_555
Mn1B O3B 1_555 1_555
Mn2B O3B 1_555 1_555
O1A Mn2 1_555 1_555
O2A C1A 1_555 1_555
C1A O1A 1_555 1_555
H1A C1A 1_555 1_555
O11A C6A 1_555 1_555
O12A Mn2 1_555 1_555
C6A O12A 1_555 1_555
H6A C6A 1_555 1_555
O7B C4B 1_555 1_555
O8B Mn4 1_555 1_555
C4B O8B 1_555 1_555
H4B C4B 1_555 1_555
O5A Mn2 1_555 1_555
O10B_2 Mn4 1_555 1_555
O11B Mn4 1_555 1_555
Mn2A O1 1_555 1_555
Mn2C O5B 1_555 1_555
Mn4_2 O10B 1_555 1_555
O1B Mn1B 1_555 1_555
O7B_2 Mn1B 1_555 1_555
O11B_2 Mn1B 1_555 1_555
O1C Mn2B 1_555 1_555
O2B Mn2B 1_555 1_555
O5C Mn2B 1_555 1_555
O12C Mn2B 1_555 1_555
Mn1A O1A 1_555 1_555
Mn2A_2 O2A 1_555 1_555
Mn4C O11A 1_555 1_555
Mn1B_2 O7B 1_555 1_555
Mn2B_2 O7B 1_555 1_555
Mn2 O3 1_555 1_555
Mn2 O7 1_555 1_555
Mn3 O9 1_555 1_555
Mn4 O11 1_555 1_555
O5 Mn2A 1_555 1_555
O6 C3 1_555 1_555
O10 C5 1_555 1_555
O12 Mn2A 1_555 1_555
O5B Mn1B 1_555 1_555
O9B Mn1B 1_555 1_555
Mn2B O7B_2 1_555 1_555
O11A Mn1A 1_555 1_555
O5A Mn1A 1_555 1_555
O11B Mn1B_2 1_555 1_555
Mn2C O1B 1_555 1_555
Mn4_2 O11B_2 1_555 1_555

#END
