
#######################################################################
#
#                 Cambridge Crystallographic Data Centre
#                                CCDC 
#
#######################################################################
#
# If this CIF has been generated from an entry in the Cambridge 
# Structural Database, then it will include bibliographic, chemical, 
# crystal, experimental, refinement or atomic coordinate data resulting 
# from the CCDC's data processing and validation procedures.
#
#######################################################################

data_ATIBIO
_chemical_formula_moiety         '(C14 H16 Mn6 O26)n'
_symmetry_cell_setting           monoclinic
_symmetry_space_group_name_H-M   'P 21/c'
_symmetry_Int_Tables_number      14
_space_group_name_Hall           '-P 2ybc'
loop_
_symmetry_equiv_pos_site_id
_symmetry_equiv_pos_as_xyz
1 x,y,z
2 -x,1/2+y,1/2-z
3 -x,-y,-z
4 x,1/2-y,1/2+z
_cell_length_a                   11.688(2)
_cell_length_b                   10.2438(17)
_cell_length_c                   18.753(4)
_cell_angle_alpha                90
_cell_angle_beta                 127.408(3)
_cell_angle_gamma                90
_cell_volume                     1783.5
loop_
_atom_site_label
_atom_site_type_symbol
_atom_site_fract_x
_atom_site_fract_y
_atom_site_fract_z
Mn1 Mn 0.37545(7) 0.08643(6) 0.12980(4)
Mn2 Mn 0.57461(7) -0.10038(6) 0.31488(4)
Mn3 Mn 0.5000 0.0000 0.0000
Mn4 Mn 0.0000 0.0000 0.0000
O1 O 0.4432(3) 0.2082(3) 0.24617(19)
O2 O 0.5590(4) 0.0774(3) 0.3662(2)
O3 O 0.5900(3) -0.0017(3) 0.2187(2)
O4 O 0.6772(4) 0.0015(4) 0.1416(2)
O5 O 0.4568(4) 0.2628(3) 0.1082(2)
O6 O 0.4785(5) 0.2064(4) 0.0023(3)
O7 O 0.3452(3) -0.0713(3) 0.1980(2)
O8 O 0.1101(4) -0.0988(4) 0.1274(2)
O9 O 0.3365(4) -0.0280(3) 0.0217(2)
O10 O 0.1188(4) -0.1032(4) -0.0334(2)
O11 O 0.1577(3) 0.1614(3) 0.0578(2)
O12 O 0.2019(4) 0.3739(3) 0.0908(2)
C1 C 0.5075(5) 0.1851(4) 0.3289(3)
C2 C 0.6924(6) -0.0092(5) 0.2121(3)
C3 C 0.4818(8) 0.2856(6) 0.0522(4)
C4 C 0.2387(5) -0.1190(5) 0.1904(3)
C5 C 0.2252(6) -0.0997(5) -0.0322(4)
C6 C 0.1197(6) 0.2801(5) 0.0504(3)
O3B O 0.4100(3) 0.0017(3) -0.2187(2)
O4B O 0.3228(4) -0.0015(4) -0.1416(2)
C2B C 0.3076(6) 0.0092(5) -0.2121(3)
O5B O 0.5432(4) -0.2628(3) -0.1082(2)
O6B O 0.5215(5) -0.2064(4) -0.0023(3)
C3B C 0.5182(8) -0.2856(6) -0.0522(4)
O9B O 0.6635(4) 0.0280(3) -0.0217(2)
O10B O 0.8812(4) 0.1032(4) 0.0334(2)
C5B C 0.7748(6) 0.0997(5) 0.0322(4)
Mn1B Mn 0.62455(7) -0.08643(6) -0.12980(4)
Mn2B Mn 0.42539(7) 0.10038(6) -0.31488(4)
O1A O 0.5568(3) -0.2918(3) 0.25383(19)
O2A O 0.4410(4) -0.4226(3) 0.1338(2)
C1A C 0.4925(5) -0.3149(4) 0.1711(3)
O11A O 0.8423(3) -0.3386(3) 0.4422(2)
O12A O 0.7981(4) -0.1261(3) 0.4092(2)
C6A C 0.8803(6) -0.2199(5) 0.4496(3)
O7B O -0.3452(3) 0.0713(3) -0.1980(2)
O8B O -0.1101(4) 0.0988(4) -0.1274(2)
C4B C -0.2387(5) 0.1190(5) -0.1904(3)
O5A O 0.5432(4) -0.2372(3) 0.3918(2)
O10B_2 O -0.1188(4) 0.1032(4) 0.0334(2)
O11B O -0.1577(3) -0.1614(3) -0.0578(2)
Mn2A Mn 0.42539(7) 0.39962(6) 0.18512(4)
Mn2C Mn 0.57461(7) -0.39962(6) -0.18512(4)
Mn4_2 Mn 1.0000 0.0000 0.0000
O1B O 0.5568(3) -0.2082(3) -0.24617(19)
O7B_2 O 0.6548(3) 0.0713(3) -0.1980(2)
O11B_2 O 0.8423(3) -0.1614(3) -0.0578(2)
O1C O 0.4432(3) 0.2918(3) -0.25383(19)
O2B O 0.4410(4) -0.0774(3) -0.3662(2)
O5C O 0.4568(4) 0.2372(3) -0.3918(2)
O12C O 0.2019(4) 0.1261(3) -0.4092(2)
Mn1A Mn 0.62455(7) -0.41357(6) 0.37020(4)
Mn2A_2 Mn 0.42539(7) -0.60038(6) 0.18512(4)
Mn4C Mn 1.0000 -0.5000 0.5000
Mn1B_2 Mn -0.37545(7) -0.08643(6) -0.12980(4)
Mn2B_2 Mn -0.57461(7) 0.10038(6) -0.31488(4)
O13 O 0.0815(10) -0.2137(11) 0.2818(5)
O14 O -0.0861(8) -0.2385(8) 0.1343(4)
C7 C -0.0416(13) -0.2569(11) 0.2142(8)
C8 C -0.1418(10) -0.3386(11) 0.2207(7)
loop_
_geom_bond_atom_site_label_1
_geom_bond_atom_site_label_2
_geom_bond_site_symmetry_1
_geom_bond_site_symmetry_2
Mn1 O1 1_555 1_555
Mn2 O2 1_555 1_555
Mn3 O4 1_555 1_555
Mn4 O8 1_555 1_555
O1 C1 1_555 1_555
O2 C1 1_555 1_555
O3 Mn1 1_555 1_555
O4 C2 1_555 1_555
O5 Mn1 1_555 1_555
O6 Mn3 1_555 1_555
O7 Mn1 1_555 1_555
O8 C4 1_555 1_555
O9 Mn1 1_555 1_555
O10 Mn4 1_555 1_555
O11 Mn1 1_555 1_555
O12 C6 1_555 1_555
C2 O3 1_555 1_555
C3 O5 1_555 1_555
C4 O7 1_555 1_555
C5 O9 1_555 1_555
C6 O11 1_555 1_555
O13 C7 1_555 1_555
O14 C7 1_555 1_555
C7 C8 1_555 1_555
O3B C2B 1_555 1_555
O4B Mn3 1_555 1_555
C2B O4B 1_555 1_555
O5B C3B 1_555 1_555
O6B Mn3 1_555 1_555
C3B O6B 1_555 1_555
O9B Mn3 1_555 1_555
O10B C5B 1_555 1_555
C5B O9B 1_555 1_555
Mn1B O3B 1_555 1_555
Mn2B O3B 1_555 1_555
O1A Mn2 1_555 1_555
O2A C1A 1_555 1_555
C1A O1A 1_555 1_555
O11A C6A 1_555 1_555
O12A Mn2 1_555 1_555
C6A O12A 1_555 1_555
O7B C4B 1_555 1_555
O8B Mn4 1_555 1_555
C4B O8B 1_555 1_555
O5A Mn2 1_555 1_555
O10B_2 Mn4 1_555 1_555
O11B Mn4 1_555 1_555
Mn2A O1 1_555 1_555
Mn2C O5B 1_555 1_555
Mn4_2 O10B 1_555 1_555
O1B Mn1B 1_555 1_555
O7B_2 Mn1B 1_555 1_555
O11B_2 Mn1B 1_555 1_555
O1C Mn2B 1_555 1_555
O2B Mn2B 1_555 1_555
O5C Mn2B 1_555 1_555
O12C Mn2B 1_555 1_555
Mn1A O1A 1_555 1_555
Mn2A_2 O2A 1_555 1_555
Mn4C O11A 1_555 1_555
Mn1B_2 O7B 1_555 1_555
Mn2B_2 O7B 1_555 1_555
Mn2 O3 1_555 1_555
Mn2 O7 1_555 1_555
Mn3 O9 1_555 1_555
Mn4 O11 1_555 1_555
O5 Mn2A 1_555 1_555
O6 C3 1_555 1_555
O10 C5 1_555 1_555
O12 Mn2A 1_555 1_555
O5B Mn1B 1_555 1_555
O9B Mn1B 1_555 1_555
Mn2B O7B_2 1_555 1_555
O11A Mn1A 1_555 1_555
O5A Mn1A 1_555 1_555
O11B Mn1B_2 1_555 1_555
Mn2C O1B 1_555 1_555
Mn4_2 O11B_2 1_555 1_555

#END
