
#######################################################################
#
#                 Cambridge Crystallographic Data Centre
#                                CCDC 
#
#######################################################################
#
# If this CIF has been generated from an entry in the Cambridge 
# Structural Database, then it will include bibliographic, chemical, 
# crystal, experimental, refinement or atomic coordinate data resulting 
# from the CCDC's data processing and validation procedures.
#
#######################################################################

data_ATIBUA
_chemical_formula_moiety         '(C16 H16 Mn6 O25)n'
_symmetry_cell_setting           monoclinic
_symmetry_space_group_name_H-M   'P 21/c'
_symmetry_Int_Tables_number      14
_space_group_name_Hall           '-P 2ybc'
loop_
_symmetry_equiv_pos_site_id
_symmetry_equiv_pos_as_xyz
1 x,y,z
2 x,1/2-y,1/2+z
3 -x,-y,-z
4 -x,1/2+y,1/2-z
_cell_length_a                   11.519(2)
_cell_length_b                   10.0050(15)
_cell_length_c                   18.685(4)
_cell_angle_alpha                90
_cell_angle_beta                 126.821(3)
_cell_angle_gamma                90
_cell_volume                     1723.82
loop_
_atom_site_label
_atom_site_type_symbol
_atom_site_fract_x
_atom_site_fract_y
_atom_site_fract_z
Mn1 Mn 0.37537(4) 0.08589(4) 0.13161(2)
Mn2 Mn 0.57903(4) -0.09713(4) 0.31485(3)
Mn3 Mn 0.5000 0.0000 0.0000
Mn4 Mn 0.0000 0.0000 0.0000
O1 O 0.43287(19) 0.20852(17) 0.24635(11)
O2 O 0.5519(2) 0.07714(17) 0.36771(12)
O3 O 0.59702(19) 0.00500(16) 0.21985(12)
O4 O 0.6837(2) -0.00206(18) 0.14044(12)
O5 O 0.45699(19) 0.26608(16) 0.10953(11)
O6 O 0.4880(2) 0.21473(18) 0.00554(12)
O7 O 0.34807(19) -0.07764(17) 0.19695(12)
O8 O 0.11000(19) -0.10551(18) 0.12572(13)
O9 O 0.33602(19) -0.03015(17) 0.02251(12)
O10 O 0.1173(2) -0.11568(18) -0.03452(13)
O11 O 0.15817(19) 0.16495(16) 0.05777(12)
O12 O 0.19351(19) 0.38365(16) 0.09015(12)
C1 C 0.4920(3) 0.1831(3) 0.32820(18)
C2 C 0.6983(3) -0.0079(3) 0.21116(18)
C3 C 0.4790(3) 0.2945(3) 0.05232(18)
C4 C 0.2373(3) -0.1284(3) 0.18659(19)
C5 C 0.2289(3) -0.1081(3) -0.02888(19)
C6 C 0.1163(3) 0.2856(3) 0.04842(18)
H1 H 0.496(3) 0.254(3) 0.364(2)
H2 H 0.793(3) -0.026(3) 0.2645(19)
H3 H 0.494(3) 0.389(3) 0.0457(19)
H4 H 0.258(3) -0.195(3) 0.231(2)
H5 H 0.238(3) -0.163(3) -0.065(2)
H6 H 0.014(3) 0.299(3) 0.0045(17)
O3B O 0.40298(19) -0.00500(16) -0.21985(12)
O4B O 0.3163(2) 0.00206(18) -0.14044(12)
C2B C 0.3017(3) 0.0079(3) -0.21116(18)
H2B H 0.207(3) 0.026(3) -0.2645(19)
O5B O 0.54301(19) -0.26608(16) -0.10953(11)
O6B O 0.5120(2) -0.21473(18) -0.00554(12)
C3B C 0.5210(3) -0.2945(3) -0.05232(18)
H3B H 0.506(3) -0.389(3) -0.0457(19)
O9B O 0.66398(19) 0.03015(17) -0.02251(12)
O10B O 0.8827(2) 0.11568(18) 0.03452(13)
C5B C 0.7711(3) 0.1081(3) 0.02888(19)
H5B H 0.762(3) 0.163(3) 0.065(2)
Mn1B Mn 0.62463(4) -0.08589(4) -0.13161(2)
Mn2B Mn 0.42097(4) 0.09713(4) -0.31485(3)
O1C O 0.56713(19) -0.29148(17) 0.25365(11)
O2C O 0.4481(2) -0.42286(17) 0.13229(12)
C1C C 0.5080(3) -0.3169(3) 0.17180(18)
H1C H 0.504(3) -0.246(3) 0.136(2)
O11C O 0.84183(19) -0.33505(16) 0.44223(12)
O12C O 0.80649(19) -0.11635(16) 0.40985(12)
C6C C 0.8837(3) -0.2144(3) 0.45158(18)
H6C H 0.986(3) -0.201(3) 0.4955(17)
O7B O -0.34807(19) 0.07764(17) -0.19695(12)
O8B O -0.11000(19) 0.10551(18) -0.12572(13)
C4B C -0.2373(3) 0.1284(3) -0.18659(19)
H4B H -0.258(3) 0.195(3) -0.231(2)
O5C O 0.54301(19) -0.23392(16) 0.39047(11)
O10B_2 O -0.1173(2) 0.11568(18) 0.03452(13)
O11B O -0.15817(19) -0.16495(16) -0.05777(12)
Mn2C Mn 0.42097(4) 0.40287(4) 0.18515(3)
Mn2A Mn 0.57903(4) -0.40287(4) -0.18515(3)
Mn4_2 Mn 1.0000 0.0000 0.0000
O1B O 0.56713(19) -0.20852(17) -0.24635(11)
O7B_2 O 0.65193(19) 0.07764(17) -0.19695(12)
O11B_2 O 0.84183(19) -0.16495(16) -0.05777(12)
O1A O 0.43287(19) 0.29148(17) -0.25365(11)
O2B O 0.4481(2) -0.07714(17) -0.36771(12)
O5A O 0.45699(19) 0.23392(16) -0.39047(11)
O12A O 0.19351(19) 0.11635(16) -0.40985(12)
Mn1C Mn 0.62463(4) -0.41411(4) 0.36839(2)
Mn2C_2 Mn 0.42097(4) -0.59713(4) 0.18515(3)
Mn4A Mn 1.0000 -0.5000 0.5000
Mn1B_2 Mn -0.37537(4) -0.08589(4) -0.13161(2)
Mn2B_2 Mn -0.57903(4) 0.09713(4) -0.31485(3)
O13 O 0.1674(3) 0.3677(3) -0.08509(18)
C7 C 0.1517(5) 0.5019(4) -0.0993(3)
C8 C 0.1132(4) 0.5305(4) -0.1813(3)
C9 C 0.1032(5) 0.4055(4) -0.2212(3)
C10 C 0.1374(5) 0.3110(4) -0.1611(3)
H7 H 0.162(5) 0.562(5) -0.046(3)
H8 H 0.102(5) 0.625(4) -0.206(3)
H9 H 0.072(5) 0.388(4) -0.280(3)
H10 H 0.144(4) 0.201(4) -0.161(3)
loop_
_geom_bond_atom_site_label_1
_geom_bond_atom_site_label_2
_geom_bond_site_symmetry_1
_geom_bond_site_symmetry_2
Mn1 O1 1_555 1_555
Mn2 O2 1_555 1_555
Mn3 O4 1_555 1_555
Mn4 O8 1_555 1_555
O1 C1 1_555 1_555
O2 C1 1_555 1_555
O3 Mn1 1_555 1_555
O4 C2 1_555 1_555
O5 Mn1 1_555 1_555
O6 Mn3 1_555 1_555
O7 Mn1 1_555 1_555
O8 C4 1_555 1_555
O9 Mn1 1_555 1_555
O10 Mn4 1_555 1_555
O11 Mn1 1_555 1_555
O12 C6 1_555 1_555
C1 H1 1_555 1_555
C2 O3 1_555 1_555
C3 O5 1_555 1_555
C4 O7 1_555 1_555
C5 O9 1_555 1_555
C6 O11 1_555 1_555
O13 C7 1_555 1_555
C7 C8 1_555 1_555
C8 C9 1_555 1_555
C9 C10 1_555 1_555
C10 O13 1_555 1_555
H2 C2 1_555 1_555
H3 C3 1_555 1_555
H4 C4 1_555 1_555
H5 C5 1_555 1_555
H6 C6 1_555 1_555
H7 C7 1_555 1_555
H8 C8 1_555 1_555
H9 C9 1_555 1_555
H10 C10 1_555 1_555
O3B C2B 1_555 1_555
O4B Mn3 1_555 1_555
C2B O4B 1_555 1_555
H2B C2B 1_555 1_555
O5B C3B 1_555 1_555
O6B Mn3 1_555 1_555
C3B O6B 1_555 1_555
H3B C3B 1_555 1_555
O9B Mn3 1_555 1_555
O10B C5B 1_555 1_555
C5B O9B 1_555 1_555
H5B C5B 1_555 1_555
Mn1B O3B 1_555 1_555
Mn2B O3B 1_555 1_555
O1C Mn2 1_555 1_555
O2C C1C 1_555 1_555
C1C O1C 1_555 1_555
H1C C1C 1_555 1_555
O11C C6C 1_555 1_555
O12C Mn2 1_555 1_555
C6C O12C 1_555 1_555
H6C C6C 1_555 1_555
O7B C4B 1_555 1_555
O8B Mn4 1_555 1_555
C4B O8B 1_555 1_555
H4B C4B 1_555 1_555
O5C Mn2 1_555 1_555
O10B_2 Mn4 1_555 1_555
O11B Mn4 1_555 1_555
Mn2C O1 1_555 1_555
Mn2A O5B 1_555 1_555
Mn4_2 O10B 1_555 1_555
O1B Mn1B 1_555 1_555
O7B_2 Mn1B 1_555 1_555
O11B_2 Mn1B 1_555 1_555
O1A Mn2B 1_555 1_555
O2B Mn2B 1_555 1_555
O5A Mn2B 1_555 1_555
O12A Mn2B 1_555 1_555
Mn1C O1C 1_555 1_555
Mn2C_2 O2C 1_555 1_555
Mn4A O11C 1_555 1_555
Mn1B_2 O7B 1_555 1_555
Mn2B_2 O7B 1_555 1_555
Mn2 O3 1_555 1_555
Mn2 O7 1_555 1_555
Mn3 O9 1_555 1_555
Mn4 O11 1_555 1_555
O5 Mn2C 1_555 1_555
O6 C3 1_555 1_555
O10 C5 1_555 1_555
O12 Mn2C 1_555 1_555
O5B Mn1B 1_555 1_555
O9B Mn1B 1_555 1_555
Mn2B O7B_2 1_555 1_555
O11C Mn1C 1_555 1_555
O5C Mn1C 1_555 1_555
O11B Mn1B_2 1_555 1_555
Mn2A O1B 1_555 1_555
Mn4_2 O11B_2 1_555 1_555

#END
