
#######################################################################
#
#                 Cambridge Crystallographic Data Centre
#                                CCDC 
#
#######################################################################
#
# If this CIF has been generated from an entry in the Cambridge 
# Structural Database, then it will include bibliographic, chemical, 
# crystal, experimental, refinement or atomic coordinate data resulting 
# from the CCDC's data processing and validation procedures.
#
#######################################################################

data_ATICAH
_chemical_formula_moiety         '(C18 H18 Mn6 O24)n'
_symmetry_cell_setting           monoclinic
_symmetry_space_group_name_H-M   'P 21/c'
_symmetry_Int_Tables_number      14
_space_group_name_Hall           '-P 2ybc'
loop_
_symmetry_equiv_pos_site_id
_symmetry_equiv_pos_as_xyz
1 x,y,z
2 -x,1/2+y,1/2-z
3 -x,-y,-z
4 x,1/2-y,1/2+z
_cell_length_a                   11.6548(16)
_cell_length_b                   10.1617(11)
_cell_length_c                   19.042(3)
_cell_angle_alpha                90
_cell_angle_beta                 126.580(2)
_cell_angle_gamma                90
_cell_volume                     1810.98
loop_
_atom_site_label
_atom_site_type_symbol
_atom_site_fract_x
_atom_site_fract_y
_atom_site_fract_z
Mn1 Mn 0.37661(3) 0.07793(3) 0.131843(19)
Mn2 Mn 0.57012(3) -0.11043(3) 0.308554(19)
Mn3 Mn 0.5000 0.0000 0.0000
Mn4 Mn 0.0000 0.0000 0.0000
O1 O 0.43763(15) 0.19632(14) 0.24736(8)
O2 O 0.54695(16) 0.05971(16) 0.36237(9)
O3 O 0.59047(15) -0.00774(14) 0.21628(9)
O4 O 0.67399(16) -0.01977(16) 0.13721(9)
O5 O 0.46238(15) 0.25679(15) 0.11468(8)
O6 O 0.50735(16) 0.21043(16) 0.01824(9)
O7 O 0.34494(15) -0.08754(15) 0.19152(9)
O8 O 0.11030(15) -0.12904(16) 0.11176(9)
O9 O 0.33247(15) -0.02258(15) 0.01907(9)
O10 O 0.11013(16) -0.09620(16) -0.04377(9)
O11 O 0.16324(14) 0.15603(15) 0.06634(9)
O12 O 0.20337(15) 0.37013(15) 0.10165(9)
C1 C 0.4958(2) 0.1681(2) 0.32724(13)
C2 C 0.6887(2) -0.0252(2) 0.20696(14)
C3 C 0.4996(2) 0.2867(2) 0.06556(14)
C4 C 0.2362(2) -0.1511(2) 0.17336(14)
C5 C 0.2214(2) -0.0898(2) -0.03756(14)
C6 C 0.1243(2) 0.2740(2) 0.06362(13)
H1 H 0.496(2) 0.245(2) 0.3632(13)
H2 H 0.789(3) -0.047(3) 0.2620(17)
H3 H 0.532(3) 0.379(3) 0.0709(16)
H4 H 0.257(3) -0.224(3) 0.2123(14)
H5 H 0.228(2) -0.142(2) -0.0796(14)
H6 H 0.022(3) 0.288(3) 0.0289(15)
O3B O 0.40953(15) 0.00774(14) -0.21628(9)
O4B O 0.32601(16) 0.01977(16) -0.13721(9)
C2B C 0.3113(2) 0.0252(2) -0.20696(14)
H2B H 0.211(3) 0.047(3) -0.2620(17)
O5B O 0.53762(15) -0.25679(15) -0.11468(8)
O6B O 0.49265(16) -0.21043(16) -0.01824(9)
C3B C 0.5004(2) -0.2867(2) -0.06556(14)
H3B H 0.468(3) -0.379(3) -0.0709(16)
O9B O 0.66753(15) 0.02258(15) -0.01907(9)
O10B O 0.88987(16) 0.09620(16) 0.04377(9)
C5B C 0.7786(2) 0.0898(2) 0.03756(14)
H5B H 0.772(2) 0.142(2) 0.0796(14)
Mn1B Mn 0.62339(3) -0.07793(3) -0.131843(19)
Mn2B Mn 0.42988(3) 0.11043(3) -0.308554(19)
O1A O 0.56237(15) -0.30368(14) 0.25264(8)
O2A O 0.45305(16) -0.44029(16) 0.13763(9)
C1A C 0.5042(2) -0.3319(2) 0.17276(13)
H1A H 0.504(2) -0.255(2) 0.1368(13)
O11A O 0.83676(14) -0.34397(15) 0.43366(9)
O12A O 0.79663(15) -0.12987(15) 0.39835(9)
C6A C 0.8757(2) -0.2260(2) 0.43638(13)
H6A H 0.978(3) -0.212(3) 0.4711(15)
O7B O -0.34494(15) 0.08754(15) -0.19152(9)
O8B O -0.11030(15) 0.12904(16) -0.11176(9)
C4B C -0.2362(2) 0.1511(2) -0.17336(14)
H4B H -0.257(3) 0.224(3) -0.2123(14)
O5A O 0.53762(15) -0.24321(15) 0.38532(8)
O10B_2 O -0.11013(16) 0.09620(16) 0.04377(9)
O11B O -0.16324(14) -0.15603(15) -0.06634(9)
Mn2A Mn 0.42988(3) 0.38957(3) 0.191446(19)
Mn2C Mn 0.57012(3) -0.38957(3) -0.191446(19)
Mn4_2 Mn 1.0000 0.0000 0.0000
O1B O 0.56237(15) -0.19632(14) -0.24736(8)
O7B_2 O 0.65506(15) 0.08754(15) -0.19152(9)
O11B_2 O 0.83676(14) -0.15603(15) -0.06634(9)
O1C O 0.43763(15) 0.30368(14) -0.25264(8)
O2B O 0.45305(16) -0.05971(16) -0.36237(9)
O5C O 0.46238(15) 0.24321(15) -0.38532(8)
O12C O 0.20337(15) 0.12987(15) -0.39835(9)
Mn1A Mn 0.62339(3) -0.42207(3) 0.368157(19)
Mn2A_2 Mn 0.42988(3) -0.61043(3) 0.191446(19)
Mn4C Mn 1.0000 -0.5000 0.5000
Mn1B_2 Mn -0.37661(3) -0.07793(3) -0.131843(19)
Mn2B_2 Mn -0.57012(3) 0.11043(3) -0.308554(19)
C7 C 0.0773(3) -0.0673(3) 0.27286(17)
C8 C 0.1265(3) 0.0547(3) 0.26943(16)
C9 C 0.1713(3) 0.1463(3) 0.33444(17)
C10 C 0.1661(3) 0.1157(3) 0.40308(18)
C11 C 0.1194(3) -0.0064(3) 0.40775(17)
C12 C 0.0751(3) -0.0977(3) 0.34222(17)
H7 H 0.050(3) -0.132(3) 0.2291(16)
H8 H 0.131(3) 0.077(3) 0.2229(19)
H9 H 0.206(3) 0.235(3) 0.3322(15)
H10 H 0.197(4) 0.186(4) 0.449(2)
H11 H 0.120(3) -0.028(3) 0.4552(19)
H12 H 0.039(2) -0.178(3) 0.3406(14)
loop_
_geom_bond_atom_site_label_1
_geom_bond_atom_site_label_2
_geom_bond_site_symmetry_1
_geom_bond_site_symmetry_2
Mn1 O1 1_555 1_555
Mn2 O2 1_555 1_555
Mn3 O4 1_555 1_555
Mn4 O8 1_555 1_555
O1 C1 1_555 1_555
O2 C1 1_555 1_555
O3 Mn1 1_555 1_555
O4 C2 1_555 1_555
O5 Mn1 1_555 1_555
O6 Mn3 1_555 1_555
O7 Mn1 1_555 1_555
O8 C4 1_555 1_555
O9 Mn1 1_555 1_555
O10 Mn4 1_555 1_555
O11 Mn1 1_555 1_555
O12 C6 1_555 1_555
C1 H1 1_555 1_555
C2 O3 1_555 1_555
C3 O5 1_555 1_555
C4 O7 1_555 1_555
C5 O9 1_555 1_555
C6 O11 1_555 1_555
H2 C2 1_555 1_555
H3 C3 1_555 1_555
H4 C4 1_555 1_555
H5 C5 1_555 1_555
H6 C6 1_555 1_555
C7 C8 1_555 1_555
C8 C9 1_555 1_555
C9 C10 1_555 1_555
C10 C11 1_555 1_555
C11 C12 1_555 1_555
C12 C7 1_555 1_555
H7 C7 1_555 1_555
H8 C8 1_555 1_555
H9 C9 1_555 1_555
H10 C10 1_555 1_555
H11 C11 1_555 1_555
H12 C12 1_555 1_555
O3B C2B 1_555 1_555
O4B Mn3 1_555 1_555
C2B O4B 1_555 1_555
H2B C2B 1_555 1_555
O5B C3B 1_555 1_555
O6B Mn3 1_555 1_555
C3B O6B 1_555 1_555
H3B C3B 1_555 1_555
O9B Mn3 1_555 1_555
O10B C5B 1_555 1_555
C5B O9B 1_555 1_555
H5B C5B 1_555 1_555
Mn1B O3B 1_555 1_555
Mn2B O3B 1_555 1_555
O1A Mn2 1_555 1_555
O2A C1A 1_555 1_555
C1A O1A 1_555 1_555
H1A C1A 1_555 1_555
O11A C6A 1_555 1_555
O12A Mn2 1_555 1_555
C6A O12A 1_555 1_555
H6A C6A 1_555 1_555
O7B C4B 1_555 1_555
O8B Mn4 1_555 1_555
C4B O8B 1_555 1_555
H4B C4B 1_555 1_555
O5A Mn2 1_555 1_555
O10B_2 Mn4 1_555 1_555
O11B Mn4 1_555 1_555
Mn2A O1 1_555 1_555
Mn2C O5B 1_555 1_555
Mn4_2 O10B 1_555 1_555
O1B Mn1B 1_555 1_555
O7B_2 Mn1B 1_555 1_555
O11B_2 Mn1B 1_555 1_555
O1C Mn2B 1_555 1_555
O2B Mn2B 1_555 1_555
O5C Mn2B 1_555 1_555
O12C Mn2B 1_555 1_555
Mn1A O1A 1_555 1_555
Mn2A_2 O2A 1_555 1_555
Mn4C O11A 1_555 1_555
Mn1B_2 O7B 1_555 1_555
Mn2B_2 O7B 1_555 1_555
Mn2 O3 1_555 1_555
Mn2 O7 1_555 1_555
Mn3 O9 1_555 1_555
Mn4 O11 1_555 1_555
O5 Mn2A 1_555 1_555
O6 C3 1_555 1_555
O10 C5 1_555 1_555
O12 Mn2A 1_555 1_555
O5B Mn1B 1_555 1_555
O9B Mn1B 1_555 1_555
Mn2B O7B_2 1_555 1_555
O11A Mn1A 1_555 1_555
O5A Mn1A 1_555 1_555
O11B Mn1B_2 1_555 1_555
Mn2C O1B 1_555 1_555
Mn4_2 O11B_2 1_555 1_555

#END
