
#######################################################################
#
#                 Cambridge Crystallographic Data Centre
#                                CCDC 
#
#######################################################################
#
# If this CIF has been generated from an entry in the Cambridge 
# Structural Database, then it will include bibliographic, chemical, 
# crystal, experimental, refinement or atomic coordinate data resulting 
# from the CCDC's data processing and validation procedures.
#
#######################################################################

data_IJOMOJ04
_chemical_formula_moiety         '(C12 H12 Mn6 O24)n'
_symmetry_cell_setting           monoclinic
_symmetry_space_group_name_H-M   'P 21/c'
_symmetry_Int_Tables_number      14
_space_group_name_Hall           '-P 2ybc'
loop_
_symmetry_equiv_pos_site_id
_symmetry_equiv_pos_as_xyz
1 x,y,z
2 -x,1/2+y,1/2-z
3 -x,-y,-z
4 x,1/2-y,1/2+z
_cell_length_a                   11.7293(13)
_cell_length_b                   10.1923(11)
_cell_length_c                   18.7417(18)
_cell_angle_alpha                90
_cell_angle_beta                 127.178(3)
_cell_angle_gamma                90
_cell_volume                     1785.18
loop_
_atom_site_label
_atom_site_type_symbol
_atom_site_fract_x
_atom_site_fract_y
_atom_site_fract_z
Mn1 Mn 0.37402(3) 0.07946(3) 0.13103(2)
Mn2 Mn 0.57349(3) -0.10669(3) 0.31325(2)
Mn3 Mn 0.5000 0.0000 0.0000
Mn4 Mn 0.0000 0.0000 0.0000
O1 O 0.44272(14) 0.20093(14) 0.24796(10)
O2 O 0.54968(16) 0.06624(15) 0.36606(11)
O3 O 0.59009(14) -0.00669(14) 0.21803(10)
O4 O 0.67779(16) 0.00309(17) 0.14110(11)
O5 O 0.45256(15) 0.25796(14) 0.10686(10)
O6 O 0.48107(18) 0.21084(16) 0.00195(12)
O7 O 0.34538(14) -0.08110(14) 0.19631(10)
O8 O 0.11038(15) -0.10977(17) 0.12284(12)
O9 O 0.33525(14) -0.02887(15) 0.02050(10)
O10 O 0.11822(16) -0.10612(16) -0.03521(12)
O11 O 0.16067(14) 0.15884(14) 0.06136(10)
O12 O 0.20088(15) 0.37288(15) 0.09375(11)
C1 C 0.5001(2) 0.1737(2) 0.32922(16)
C2 C 0.6893(2) -0.0128(2) 0.20992(17)
C3 C 0.4704(3) 0.2874(2) 0.04858(17)
C4 C 0.2365(2) -0.1329(3) 0.18452(18)
C5 C 0.2252(2) -0.1005(2) -0.03206(17)
C6 C 0.1213(2) 0.2772(2) 0.05467(17)
H1 H 0.501(2) 0.245(2) 0.3648(18)
H2 H 0.779(2) -0.034(2) 0.2637(17)
H3 H 0.477(2) 0.376(2) 0.0413(16)
H4 H 0.259(2) -0.200(3) 0.2280(18)
H5 H 0.226(2) -0.156(2) -0.0739(17)
H6 H 0.014(2) 0.297(2) 0.0106(17)
Mn1B Mn 0.62598(3) -0.07946(3) -0.13103(2)
Mn1A Mn 0.62598(3) -0.42054(3) 0.36897(2)
Mn1B_2 Mn -0.37402(3) -0.07946(3) -0.13103(2)
Mn2B Mn 0.42651(3) 0.10669(3) -0.31325(2)
Mn2A Mn 0.42651(3) 0.39331(3) 0.18675(2)
Mn2C Mn 0.57349(3) -0.39331(3) -0.18675(2)
Mn2A_2 Mn 0.42651(3) -0.60669(3) 0.18675(2)
Mn2B_2 Mn -0.57349(3) 0.10669(3) -0.31325(2)
Mn4_2 Mn 1.0000 0.0000 0.0000
Mn4C Mn 1.0000 -0.5000 0.5000
O1A O 0.55728(14) -0.29907(14) 0.25204(10)
O1B O 0.55728(14) -0.20093(14) -0.24796(10)
O1C O 0.44272(14) 0.29907(14) -0.25204(10)
O2A O 0.45032(16) -0.43376(15) 0.13394(11)
O2B O 0.45032(16) -0.06624(15) -0.36606(11)
O3B O 0.40991(14) 0.00669(14) -0.21803(10)
O4B O 0.32221(16) -0.00309(17) -0.14110(11)
O5B O 0.54744(15) -0.25796(14) -0.10686(10)
O5A O 0.54744(15) -0.24204(14) 0.39314(10)
O5C O 0.45256(15) 0.24204(14) -0.39314(10)
O6B O 0.51893(18) -0.21084(16) -0.00195(12)
O7B O -0.34538(14) 0.08110(14) -0.19631(10)
O7B_2 O 0.65462(14) 0.08110(14) -0.19631(10)
O8B O -0.11038(15) 0.10977(17) -0.12284(12)
O9B O 0.66475(14) 0.02887(15) -0.02050(10)
O10B O 0.88178(16) 0.10612(16) 0.03521(12)
O10B_2 O -0.11822(16) 0.10612(16) 0.03521(12)
O11A O 0.83933(14) -0.34116(14) 0.43864(10)
O11B O -0.16067(14) -0.15884(14) -0.06136(10)
O11B_2 O 0.83933(14) -0.15884(14) -0.06136(10)
O12A O 0.79912(15) -0.12712(15) 0.40625(11)
O12C O 0.20088(15) 0.12712(15) -0.40625(11)
C1A C 0.4999(2) -0.3263(2) 0.17078(16)
C2B C 0.3107(2) 0.0128(2) -0.20992(17)
C3B C 0.5296(3) -0.2874(2) -0.04858(17)
C4B C -0.2365(2) 0.1329(3) -0.18452(18)
C5B C 0.7748(2) 0.1005(2) 0.03206(17)
C6A C 0.8787(2) -0.2228(2) 0.44533(17)
H1A H 0.499(2) -0.255(2) 0.1352(18)
H2B H 0.221(2) 0.034(2) -0.2637(17)
H3B H 0.523(2) -0.376(2) -0.0413(16)
H4B H -0.259(2) 0.200(3) -0.2280(18)
H5B H 0.774(2) 0.156(2) 0.0739(17)
H6A H 0.986(2) -0.203(2) 0.4894(17)
loop_
_geom_bond_atom_site_label_1
_geom_bond_atom_site_label_2
_geom_bond_site_symmetry_1
_geom_bond_site_symmetry_2
Mn1 O1 1_555 1_555
Mn2 O2 1_555 1_555
Mn3 O4 1_555 1_555
Mn4 O8 1_555 1_555
O1 C1 1_555 1_555
O2 C1 1_555 1_555
O3 Mn1 1_555 1_555
O4 C2 1_555 1_555
O5 Mn1 1_555 1_555
O6 Mn3 1_555 1_555
O7 Mn1 1_555 1_555
O8 C4 1_555 1_555
O9 Mn1 1_555 1_555
O10 Mn4 1_555 1_555
O11 Mn1 1_555 1_555
O12 C6 1_555 1_555
C1 H1 1_555 1_555
C2 O3 1_555 1_555
C3 O5 1_555 1_555
C4 O7 1_555 1_555
C5 O9 1_555 1_555
C6 O11 1_555 1_555
H2 C2 1_555 1_555
H3 C3 1_555 1_555
H4 C4 1_555 1_555
H5 C5 1_555 1_555
H6 C6 1_555 1_555
Mn1B O1B 1_555 1_555
Mn1A O1A 1_555 1_555
Mn1B_2 O7B 1_555 1_555
Mn2B O1C 1_555 1_555
Mn2A O1 1_555 1_555
Mn2C O1B 1_555 1_555
Mn2A_2 O2A 1_555 1_555
Mn2B_2 O7B 1_555 1_555
Mn4_2 O10B 1_555 1_555
Mn4C O11A 1_555 1_555
O1A Mn2 1_555 1_555
O2A C1A 1_555 1_555
O2B Mn2B 1_555 1_555
O3B Mn1B 1_555 1_555
O4B Mn3 1_555 1_555
O5B Mn1B 1_555 1_555
O5A Mn2 1_555 1_555
O5C Mn2B 1_555 1_555
O6B Mn3 1_555 1_555
O7B C4B 1_555 1_555
O7B_2 Mn1B 1_555 1_555
O8B Mn4 1_555 1_555
O9B Mn3 1_555 1_555
O10B C5B 1_555 1_555
O10B_2 Mn4 1_555 1_555
O11A Mn1A 1_555 1_555
O11B Mn4 1_555 1_555
O11B_2 Mn1B 1_555 1_555
O12A Mn2 1_555 1_555
O12C Mn2B 1_555 1_555
C1A O1A 1_555 1_555
C2B O3B 1_555 1_555
C3B O5B 1_555 1_555
C4B O8B 1_555 1_555
C5B O9B 1_555 1_555
C6A O11A 1_555 1_555
H1A C1A 1_555 1_555
H2B C2B 1_555 1_555
H3B C3B 1_555 1_555
H4B C4B 1_555 1_555
H5B C5B 1_555 1_555
H6A C6A 1_555 1_555
Mn2 O3 1_555 1_555
Mn2 O7 1_555 1_555
Mn3 O9 1_555 1_555
Mn4 O11 1_555 1_555
O5 Mn2A 1_555 1_555
O6 C3 1_555 1_555
O10 C5 1_555 1_555
O12 Mn2A 1_555 1_555
Mn1B O9B 1_555 1_555
Mn1A O5A 1_555 1_555
Mn1B_2 O11B 1_555 1_555
Mn2B O3B 1_555 1_555
Mn2B O7B_2 1_555 1_555
Mn2C O5B 1_555 1_555
Mn4_2 O11B_2 1_555 1_555
O4B C2B 1_555 1_555
O6B C3B 1_555 1_555
O12A C6A 1_555 1_555

#END
