
#######################################################################
#
#                 Cambridge Crystallographic Data Centre
#                                CCDC 
#
#######################################################################
#
# If this CIF has been generated from an entry in the Cambridge 
# Structural Database, then it will include bibliographic, chemical, 
# crystal, experimental, refinement or atomic coordinate data resulting 
# from the CCDC's data processing and validation procedures.
#
#######################################################################

data_WAFPOL
_chemical_formula_moiety         '(C36 H28 Mo12 N8 O44 P1 Zn1 2+)n'
_symmetry_cell_setting           cubic
_symmetry_space_group_name_H-M   'I a -3 d'
_symmetry_Int_Tables_number      230
_space_group_name_Hall           '-I 4bd 2c 3'
loop_
_symmetry_equiv_pos_site_id
_symmetry_equiv_pos_as_xyz
1 x,y,z
2 1/2-x,-y,1/2+z
3 -x,1/2+y,1/2-z
4 1/2+x,1/2-y,-z
5 z,x,y
6 1/2+z,1/2-x,-y
7 1/2-z,-x,1/2+y
8 -z,1/2+x,1/2-y
9 y,z,x
10 -y,1/2+z,1/2-x
11 1/2+y,1/2-z,-x
12 1/2-y,-z,1/2+x
13 3/4+y,1/4+x,1/4-z
14 3/4-y,3/4-x,3/4-z
15 1/4+y,1/4-x,3/4+z
16 1/4-y,3/4+x,1/4+z
17 3/4+x,1/4+z,1/4-y
18 1/4-x,3/4+z,1/4+y
19 3/4-x,3/4-z,3/4-y
20 1/4+x,1/4-z,3/4+y
21 3/4+z,1/4+y,1/4-x
22 1/4+z,1/4-y,3/4+x
23 1/4-z,3/4+y,1/4+x
24 3/4-z,3/4-y,3/4-x
25 1/2+x,1/2+y,1/2+z
26 -x,1/2-y,z
27 1/2-x,y,-z
28 x,-y,1/2-z
29 1/2+z,1/2+x,1/2+y
30 z,-x,1/2-y
31 -z,1/2-x,y
32 1/2-z,x,-y
33 1/2+y,1/2+z,1/2+x
34 1/2-y,z,-x
35 y,-z,1/2-x
36 -y,1/2-z,x
37 1/4+y,3/4+x,3/4-z
38 1/4-y,1/4-x,1/4-z
39 3/4+y,3/4-x,1/4+z
40 3/4-y,1/4+x,3/4+z
41 1/4+x,3/4+z,3/4-y
42 3/4-x,1/4+z,3/4+y
43 1/4-x,1/4-z,1/4-y
44 3/4+x,3/4-z,1/4+y
45 1/4+z,3/4+y,3/4-x
46 3/4+z,3/4-y,1/4+x
47 3/4-z,1/4+y,3/4+x
48 1/4-z,1/4-y,1/4-x
49 -x,-y,-z
50 1/2+x,y,1/2-z
51 x,1/2-y,1/2+z
52 1/2-x,1/2+y,z
53 -z,-x,-y
54 1/2-z,1/2+x,y
55 1/2+z,x,1/2-y
56 z,1/2-x,1/2+y
57 -y,-z,-x
58 y,1/2-z,1/2+x
59 1/2-y,1/2+z,x
60 1/2+y,z,1/2-x
61 1/4-y,3/4-x,3/4+z
62 1/4+y,1/4+x,1/4+z
63 3/4-y,3/4+x,1/4-z
64 3/4+y,1/4-x,3/4-z
65 1/4-x,3/4-z,3/4+y
66 3/4+x,1/4-z,3/4-y
67 1/4+x,1/4+z,1/4+y
68 3/4-x,3/4+z,1/4-y
69 1/4-z,3/4-y,3/4+x
70 3/4-z,3/4+y,1/4-x
71 3/4+z,1/4-y,3/4-x
72 1/4+z,1/4+y,1/4+x
73 1/2-x,1/2-y,1/2-z
74 x,1/2+y,-z
75 1/2+x,-y,z
76 -x,y,1/2+z
77 1/2-z,1/2-x,1/2-y
78 -z,x,1/2+y
79 z,1/2+x,-y
80 1/2+z,-x,y
81 1/2-y,1/2-z,1/2-x
82 1/2+y,-z,x
83 -y,z,1/2+x
84 y,1/2+z,-x
85 3/4-y,1/4-x,1/4+z
86 3/4+y,3/4+x,3/4+z
87 1/4-y,1/4+x,3/4-z
88 1/4+y,3/4-x,1/4-z
89 3/4-x,1/4-z,1/4+y
90 1/4+x,3/4-z,1/4-y
91 3/4+x,3/4+z,3/4+y
92 1/4-x,1/4+z,3/4-y
93 3/4-z,1/4-y,1/4+x
94 1/4-z,1/4+y,3/4-x
95 1/4+z,3/4-y,1/4-x
96 3/4+z,3/4+y,3/4+x
_cell_length_a                   31.5350(2)
_cell_length_b                   31.5350(2)
_cell_length_c                   31.5350(2)
_cell_angle_alpha                90
_cell_angle_beta                 90
_cell_angle_gamma                90
_cell_volume                     31360.2
loop_
_atom_site_label
_atom_site_type_symbol
_atom_site_fract_x
_atom_site_fract_y
_atom_site_fract_z
Zn1 Zn -0.0000 0.7500 0.1250
N1 N -0.02840(17) 0.70545(17) 0.1590(2)
C1 C -0.01565(17) 0.66507(18) 0.1678(2)
H1 H 0.0096 0.6526 0.1590
N2 N -0.0464(2) 0.64624(17) 0.1916(2)
C2 C -0.0781(2) 0.6750(2) 0.1976(3)
H2 H -0.1030 0.6704 0.2128
C3 C -0.0670(2) 0.71157(18) 0.1775(3)
H3 H -0.0830 0.7363 0.1765
C4 C -0.0468(5) 0.6001(4) 0.2032(5)
C5 C -0.0846(4) 0.5802(5) 0.2135(6)
H4 H -0.1103 0.5941 0.2092
C6 C -0.0842(4) 0.5395(5) 0.2302(6)
H5 H -0.1096 0.5261 0.2372
C7 C -0.0460(5) 0.5188(4) 0.2366(5)
C8 C -0.0081(4) 0.5387(5) 0.2263(5)
H6 H 0.0175 0.5247 0.2306
C9 C -0.0086(4) 0.5793(5) 0.2096(5)
H7 H 0.0168 0.5927 0.2027
N1AA N -0.02840(17) 0.29455(17) 0.3410(2)
C1AA C -0.01565(17) 0.33493(18) 0.3322(2)
H1AA H 0.0096 0.3474 0.3410
N2AA N -0.0464(2) 0.35376(17) 0.3084(2)
C2AA C -0.0781(2) 0.3250(2) 0.3024(3)
H2AA H -0.1030 0.3296 0.2872
C3AA C -0.0670(2) 0.28843(18) 0.3225(3)
H3AA H -0.0830 0.2637 0.3235
C4AA C -0.0468(5) 0.3999(4) 0.2968(5)
C5AA C -0.0846(4) 0.4198(5) 0.2865(6)
H4AA H -0.1103 0.4059 0.2908
C6AA C -0.0842(4) 0.4605(5) 0.2698(6)
H5AA H -0.1096 0.4739 0.2628
C7AA C -0.0460(5) 0.4812(4) 0.2634(5)
C8AA C -0.0081(4) 0.4613(5) 0.2737(5)
H6AA H 0.0175 0.4753 0.2694
C9AA C -0.0086(4) 0.4207(5) 0.2904(5)
H7AA H 0.0168 0.4073 0.2973
N1Y N 0.02840(17) 0.79455(17) 0.1590(2)
C1Y C 0.01565(17) 0.83493(18) 0.1678(2)
H1Y H -0.0096 0.8474 0.1590
N2Y N 0.0464(2) 0.85376(17) 0.1916(2)
C2Y C 0.0781(2) 0.8250(2) 0.1976(3)
H2Y H 0.1030 0.8296 0.2128
C3Y C 0.0670(2) 0.78843(18) 0.1775(3)
H3Y H 0.0830 0.7637 0.1765
C4Y C 0.0468(5) 0.8999(4) 0.2032(5)
C5Y C 0.0846(4) 0.9198(5) 0.2135(6)
H4Y H 0.1103 0.9059 0.2092
C6Y C 0.0842(4) 0.9605(5) 0.2302(6)
H5Y H 0.1096 0.9739 0.2372
C7Y C 0.0460(5) 0.9812(4) 0.2366(5)
C8Y C 0.0081(4) 0.9613(5) 0.2263(5)
H6Y H -0.0175 0.9753 0.2306
C9Y C 0.0086(4) 0.9207(5) 0.2096(5)
H7Y H -0.0168 0.9073 0.2027
N1B N 0.02840(17) 1.20545(17) 0.3410(2)
C1B C 0.01565(17) 1.16507(18) 0.3322(2)
H1B H -0.0096 1.1526 0.3410
N2B N 0.0464(2) 1.14624(17) 0.3084(2)
C2B C 0.0781(2) 1.1750(2) 0.3024(3)
H2B H 0.1030 1.1704 0.2872
C3B C 0.0670(2) 1.21157(18) 0.3225(3)
H3B H 0.0830 1.2363 0.3235
C4B C 0.0468(5) 1.1001(4) 0.2968(5)
C5B C 0.0846(4) 1.0802(5) 0.2865(6)
H4B H 0.1103 1.0941 0.2908
C6B C 0.0842(4) 1.0395(5) 0.2698(6)
H5B H 0.1096 1.0261 0.2628
C7B C 0.0460(5) 1.0188(4) 0.2634(5)
C8B C 0.0081(4) 1.0387(5) 0.2737(5)
H6B H -0.0175 1.0247 0.2694
C9B C 0.0086(4) 1.0793(5) 0.2904(5)
H7B H -0.0168 1.0927 0.2973
Zn1B Zn -0.0000 0.2500 0.3750
Zn1B_2 Zn 0.0000 1.2500 0.3750
N1JB N 0.04455(17) 0.72160(17) 0.0910(2)
N1IC N -0.04455(17) 0.77840(17) 0.0910(2)
Mo1 Mo 0.05096(4) 0.45441(3) 0.41003(3)
Mo2 Mo -0.04700(3) 0.51027(3) 0.39788(3)
P1 P -0.0000 0.5000 0.5000
O1 O -0.0089(4) 0.4791(4) 0.4557(4)
O2 O 0.0267(4) 0.4733(4) 0.5267(4)
O3 O 0.0057(3) 0.4887(3) 0.3841(3)
O4 O -0.0716(3) 0.5153(3) 0.3519(3)
O5 O 0.0095(3) 0.4145(3) 0.4209(3)
O6 O 0.0863(4) 0.4359(3) 0.4533(3)
O7 O 0.0739(3) 0.4362(3) 0.3664(3)
O8 O -0.0259(3) 0.5641(3) 0.4057(3)
O1E O -0.0443(4) 0.5089(4) 0.5209(4)
O1K O 0.0209(4) 0.5443(4) 0.4911(4)
O1VA O 0.0089(4) 0.5209(4) 0.5443(4)
O2VA O -0.0267(4) 0.5267(4) 0.4733(4)
O1AB O 0.0443(4) 0.4911(4) 0.4791(4)
O1GB O -0.0209(4) 0.4557(4) 0.5089(4)
Mo1E Mo -0.08997(3) 0.44904(4) 0.54559(3)
Mo2E Mo -0.10212(3) 0.54700(3) 0.48973(3)
O3E O -0.1159(3) 0.4943(3) 0.5113(3)
O4E O -0.1481(3) 0.5716(3) 0.4847(3)
O5E O -0.0791(3) 0.4905(3) 0.5855(3)
O6E O -0.0467(3) 0.4137(4) 0.5641(3)
O7E O -0.1336(3) 0.4261(3) 0.5638(3)
O8E O -0.0943(3) 0.5259(3) 0.4359(3)
Mo1K Mo 0.04559(3) 0.58997(3) 0.55096(4)
Mo2K Mo -0.01027(3) 0.60212(3) 0.45300(3)
O3K O 0.0113(3) 0.6159(3) 0.5057(3)
O4K O -0.0153(3) 0.6481(3) 0.4284(3)
O5K O 0.0855(3) 0.5791(3) 0.5095(3)
O6K O 0.0641(3) 0.5467(3) 0.5863(4)
O7K O 0.0638(3) 0.6336(3) 0.5739(3)
O8K O -0.0641(3) 0.5943(3) 0.4741(3)
Mo1VA Mo -0.05096(4) 0.54559(3) 0.58997(3)
Mo2VA Mo 0.04700(3) 0.48973(3) 0.60212(3)
O3VA O -0.0057(3) 0.5113(3) 0.6159(3)
O4VA O 0.0716(3) 0.4847(3) 0.6481(3)
O5VA O -0.0095(3) 0.5855(3) 0.5791(3)
O6VA O -0.0863(4) 0.5641(3) 0.5467(3)
O7VA O -0.0739(3) 0.5638(3) 0.6336(3)
O8VA O 0.0259(3) 0.4359(3) 0.5943(3)
Mo1AB Mo 0.08997(3) 0.55096(4) 0.45441(3)
Mo2AB Mo 0.10212(3) 0.45300(3) 0.51027(3)
O3AB O 0.1159(3) 0.5057(3) 0.4887(3)
O4AB O 0.1481(3) 0.4284(3) 0.5153(3)
O5AB O 0.0791(3) 0.5095(3) 0.4145(3)
O6AB O 0.0467(3) 0.5863(4) 0.4359(3)
O7AB O 0.1336(3) 0.5739(3) 0.4362(3)
O8AB O 0.0943(3) 0.4741(3) 0.5641(3)
Mo1GB Mo -0.04559(3) 0.41003(3) 0.44904(4)
Mo2GB Mo 0.01027(3) 0.39788(3) 0.54700(3)
O3GB O -0.0113(3) 0.3841(3) 0.4943(3)
O4GB O 0.0153(3) 0.3519(3) 0.5716(3)
O5GB O -0.0855(3) 0.4209(3) 0.4905(3)
O6GB O -0.0641(3) 0.4533(3) 0.4137(4)
O7GB O -0.0638(3) 0.3664(3) 0.4261(3)
O8GB O 0.0641(3) 0.4057(3) 0.5259(3)
loop_
_geom_bond_atom_site_label_1
_geom_bond_atom_site_label_2
_geom_bond_site_symmetry_1
_geom_bond_site_symmetry_2
Mo1 O1 1_555 1_555
Mo2 O1 1_555 1_555
P1 O1 1_555 1_555
O1 O2VA 1_555 1_555
O2 P1 1_555 1_555
O3 Mo1 1_555 1_555
O4 Mo2 1_555 1_555
O5 Mo1 1_555 1_555
O6 Mo1 1_555 1_555
O7 Mo1 1_555 1_555
O8 Mo2 1_555 1_555
Zn1 N1 1_555 1_555
N1 C1 1_555 1_555
C1 H1 1_555 1_555
N2 C1 1_555 1_555
C2 N2 1_555 1_555
H2 C2 1_555 1_555
C3 N1 1_555 1_555
H3 C3 1_555 1_555
C4 N2 1_555 1_555
C5 C4 1_555 1_555
H4 C5 1_555 1_555
C6 C5 1_555 1_555
H5 C6 1_555 1_555
C7 C6 1_555 1_555
C8 C7 1_555 1_555
H6 C8 1_555 1_555
C9 C4 1_555 1_555
H7 C9 1_555 1_555
O1E P1 1_555 1_555
O1K P1 1_555 1_555
O1VA P1 1_555 1_555
O2VA Mo2 1_555 1_555
O1AB Mo1 1_555 1_555
O1GB P1 1_555 1_555
Mo1E O1E 1_555 1_555
Mo2E O1E 1_555 1_555
O3E Mo1E 1_555 1_555
O4E Mo2E 1_555 1_555
O5E Mo1E 1_555 1_555
O6E Mo1E 1_555 1_555
O7E Mo1E 1_555 1_555
O8E Mo2 1_555 1_555
Mo1K O1K 1_555 1_555
Mo2K O8 1_555 1_555
O3K Mo1K 1_555 1_555
O4K Mo2K 1_555 1_555
O5K Mo1K 1_555 1_555
O6K Mo1K 1_555 1_555
O7K Mo1K 1_555 1_555
O8K Mo2E 1_555 1_555
Mo1VA O1E 1_555 1_555
Mo2VA O2 1_555 1_555
O3VA Mo1VA 1_555 1_555
O4VA Mo2VA 1_555 1_555
O5VA Mo1K 1_555 1_555
O6VA Mo2E 1_555 1_555
O7VA Mo1VA 1_555 1_555
O8VA Mo2VA 1_555 1_555
Mo1AB O1K 1_555 1_555
Mo2AB O2 1_555 1_555
O3AB Mo1AB 1_555 1_555
O4AB Mo2AB 1_555 1_555
O5AB Mo1 1_555 1_555
O6AB Mo2K 1_555 1_555
O7AB Mo1AB 1_555 1_555
O8AB Mo2VA 1_555 1_555
Mo1GB O1 1_555 1_555
Mo2GB O2 1_555 1_555
O3GB Mo1GB 1_555 1_555
O4GB Mo2GB 1_555 1_555
O5GB Mo1E 1_555 1_555
O6GB Mo2 1_555 1_555
O7GB Mo1GB 1_555 1_555
O8GB Mo2AB 1_555 1_555
N1AA C1AA 1_555 1_555
C1AA H1AA 1_555 1_555
N2AA C1AA 1_555 1_555
C2AA N2AA 1_555 1_555
H2AA C2AA 1_555 1_555
C3AA N1AA 1_555 1_555
H3AA C3AA 1_555 1_555
C4AA N2AA 1_555 1_555
C5AA C4AA 1_555 1_555
H4AA C5AA 1_555 1_555
C6AA C5AA 1_555 1_555
H5AA C6AA 1_555 1_555
C7AA C7 1_555 1_555
C8AA C7AA 1_555 1_555
H6AA C8AA 1_555 1_555
C9AA C4AA 1_555 1_555
H7AA C9AA 1_555 1_555
N1Y Zn1 1_555 1_555
C1Y N1Y 1_555 1_555
H1Y C1Y 1_555 1_555
N2Y C1Y 1_555 1_555
C2Y N2Y 1_555 1_555
H2Y C2Y 1_555 1_555
C3Y N1Y 1_555 1_555
H3Y C3Y 1_555 1_555
C4Y N2Y 1_555 1_555
C5Y C4Y 1_555 1_555
H4Y C5Y 1_555 1_555
C6Y C5Y 1_555 1_555
H5Y C6Y 1_555 1_555
C7Y C6Y 1_555 1_555
C8Y C7Y 1_555 1_555
H6Y C8Y 1_555 1_555
C9Y C4Y 1_555 1_555
H7Y C9Y 1_555 1_555
N1B C1B 1_555 1_555
C1B H1B 1_555 1_555
N2B C1B 1_555 1_555
C2B N2B 1_555 1_555
H2B C2B 1_555 1_555
C3B N1B 1_555 1_555
H3B C3B 1_555 1_555
C4B N2B 1_555 1_555
C5B C4B 1_555 1_555
H4B C5B 1_555 1_555
C6B C5B 1_555 1_555
H5B C6B 1_555 1_555
C7B C7Y 1_555 1_555
C8B C7B 1_555 1_555
H6B C8B 1_555 1_555
C9B C4B 1_555 1_555
H7B C9B 1_555 1_555
Zn1B N1AA 1_555 1_555
Zn1B_2 N1B 1_555 1_555
N1JB Zn1 1_555 1_555
N1IC Zn1 1_555 1_555
Mo2 O3 1_555 1_555
P1 O2VA 1_555 1_555
P1 O1AB 1_555 1_555
O2 O1VA 1_555 1_555
O2 O1AB 1_555 1_555
O2 O1GB 1_555 1_555
O5 Mo1GB 1_555 1_555
O6 Mo2AB 1_555 1_555
C2 C3 1_555 1_555
C8 C9 1_555 1_555
O1E O2VA 1_555 1_555
O1K O2VA 1_555 1_555
O1K Mo2K 1_555 1_555
O1VA Mo1K 1_555 1_555
O1VA Mo1VA 1_555 1_555
O1VA Mo2VA 1_555 1_555
O2VA Mo2E 1_555 1_555
O2VA Mo2K 1_555 1_555
O1AB Mo1AB 1_555 1_555
O1AB Mo2AB 1_555 1_555
O1GB Mo1E 1_555 1_555
O1GB Mo1GB 1_555 1_555
O1GB Mo2GB 1_555 1_555
Mo2E O3E 1_555 1_555
Mo2E O8E 1_555 1_555
O5E Mo1VA 1_555 1_555
O6E Mo2GB 1_555 1_555
Mo2K O3K 1_555 1_555
Mo2K O8K 1_555 1_555
O5K Mo1AB 1_555 1_555
O6K Mo2VA 1_555 1_555
Mo1VA O5VA 1_555 1_555
Mo1VA O6VA 1_555 1_555
Mo2VA O3VA 1_555 1_555
O8VA Mo2GB 1_555 1_555
Mo1AB O5AB 1_555 1_555
Mo1AB O6AB 1_555 1_555
Mo2AB O3AB 1_555 1_555
Mo2AB O8AB 1_555 1_555
Mo1GB O5GB 1_555 1_555
Mo1GB O6GB 1_555 1_555
Mo2GB O3GB 1_555 1_555
Mo2GB O8GB 1_555 1_555
C2AA C3AA 1_555 1_555
C6AA C7AA 1_555 1_555
C8AA C9AA 1_555 1_555
C2Y C3Y 1_555 1_555
C8Y C9Y 1_555 1_555
C2B C3B 1_555 1_555
C6B C7B 1_555 1_555
C8B C9B 1_555 1_555

#END
