
#######################################################################
#
#                 Cambridge Crystallographic Data Centre
#                                CCDC 
#
#######################################################################
#
# If this CIF has been generated from an entry in the Cambridge 
# Structural Database, then it will include bibliographic, chemical, 
# crystal, experimental, refinement or atomic coordinate data resulting 
# from the CCDC's data processing and validation procedures.
#
#######################################################################

data_NACXUN
_chemical_formula_moiety         'C70 H36 N8 O19 Zn10'
_symmetry_cell_setting           tetragonal
_symmetry_space_group_name_H-M   'I -4 2 d'
_symmetry_Int_Tables_number      122
_space_group_name_Hall           'I -4 2bw'
loop_
_symmetry_equiv_pos_site_id
_symmetry_equiv_pos_as_xyz
1 x,y,z
2 y,-x,-z
3 -x,-y,z
4 -y,x,-z
5 x,1/2-y,1/4-z
6 -x,1/2+y,1/4-z
7 -y,1/2-x,1/4+z
8 y,1/2+x,1/4+z
9 1/2+x,1/2+y,1/2+z
10 1/2+y,1/2-x,1/2-z
11 1/2-x,1/2-y,1/2+z
12 1/2-y,1/2+x,1/2-z
13 1/2+x,-y,3/4-z
14 1/2-x,y,3/4-z
15 1/2-y,-x,3/4+z
16 1/2+y,x,3/4+z
_cell_length_a                   32.6372(10)
_cell_length_b                   32.6372(10)
_cell_length_c                   17.1385(11)
_cell_angle_alpha                90
_cell_angle_beta                 90
_cell_angle_gamma                90
_cell_volume                     18255.7
loop_
_atom_site_label
_atom_site_type_symbol
_atom_site_fract_x
_atom_site_fract_y
_atom_site_fract_z
Zn1 Zn 0.45492(5) 0.48107(4) 0.06548(9)
O1 O 0.4655(3) 0.4943(4) 0.1756(5)
O2 O 0.5000 0.5000 0.0000
O3 O 0.4205(3) 0.5466(3) -0.0631(7)
O4 O 0.4016(2) 0.5001(3) 0.0247(6)
C1 C 0.3512(3) 0.5286(4) -0.0548(8)
C2 C 0.3215(4) 0.5040(4) -0.0204(6)
H1 H 0.3285 0.4865 0.0203
C3 C 0.2812(3) 0.5056(4) -0.0467(8)
H2 H 0.2613 0.4892 -0.0236
C4 C 0.2707(3) 0.5318(4) -0.1074(7)
C5 C 0.3004(4) 0.5564(4) -0.1418(6)
C6 C 0.3406(4) 0.5548(3) -0.1155(8)
H3 H 0.3605 0.5713 -0.1385
C7 C 0.5000 0.5000 0.4556(5)
C8 C 0.4637(4) 0.4928(6) 0.3343(9)
H4 H 0.4392 0.4890 0.3076
C9 C 0.5000 0.5000 0.2936(13)
C10 C 0.3947(8) 0.5243(7) -0.0342(11)
C11 C 0.5000 0.5000 0.2072(15)
C12 C 0.4647(4) 0.4914(6) 0.4157(9)
N1 N 0.2896(6) 0.5891(5) -0.1859(9)
C13 C 0.2661(4) 0.6164(7) -0.1555(8)
C14 C 0.2453(8) 0.6434(7) -0.2164(10)
C15 C 0.2097(8) 0.6627(11) -0.1916(16)
H5 H 0.1953 0.6526 -0.1490
C16 C 0.1955(11) 0.6973(12) -0.231(2)
H6 H 0.1717 0.7102 -0.2141
C17 C 0.2170(14) 0.7125(9) -0.294(2)
H7 H 0.2076 0.7356 -0.3206
C18 C 0.2527(13) 0.6931(8) -0.3192(15)
H8 H 0.2671 0.7033 -0.3618
C19 C 0.2668(10) 0.6586(8) -0.2801(11)
H9 H 0.2907 0.6456 -0.2967
N2 N 0.4315(11) 0.4703(13) 0.460(3)
O1A O 0.4943(4) 0.5345(3) 0.8244(5)
C7A C 0.5000 0.5000 0.5444(5)
C8A C 0.4928(6) 0.5363(4) 0.6657(9)
H4A H 0.4890 0.5608 0.6924
C9A C 0.5000 0.5000 0.7064(13)
C11A C 0.5000 0.5000 0.7928(15)
C12A C 0.4914(6) 0.5353(4) 0.5843(9)
N2A N 0.4703(13) 0.5685(11) 0.540(3)
O1B O 0.5345(3) 0.5057(4) 0.1756(5)
C8B C 0.5363(4) 0.5072(6) 0.3343(9)
H4B H 0.5608 0.5110 0.3076
C12B C 0.5353(4) 0.5086(6) 0.4157(9)
N2B N 0.5685(11) 0.5297(13) 0.460(3)
O1C O 0.5057(4) 0.4655(3) 0.8244(5)
C8C C 0.5072(6) 0.4637(4) 0.6657(9)
H4C H 0.5110 0.4392 0.6924
C12C C 0.5086(6) 0.4647(4) 0.5843(9)
N2C N 0.5297(13) 0.4315(11) 0.540(3)
O3M O 0.0795(3) 0.5466(3) -0.1869(7)
O4M O 0.0984(2) 0.5001(3) -0.2747(6)
C1M C 0.1488(3) 0.5286(4) -0.1952(8)
C2M C 0.1785(4) 0.5040(4) -0.2296(6)
H1M H 0.1715 0.4865 -0.2703
C3M C 0.2188(3) 0.5056(4) -0.2033(8)
H2M H 0.2387 0.4892 -0.2264
C4M C 0.2293(3) 0.5318(4) -0.1426(7)
C5M C 0.1996(4) 0.5564(4) -0.1082(6)
C6M C 0.1594(4) 0.5548(3) -0.1345(8)
H3M H 0.1395 0.5713 -0.1115
C10M C 0.1053(8) 0.5243(7) -0.2158(11)
N1M N 0.2104(6) 0.5891(5) -0.0641(9)
C13M C 0.2339(4) 0.6164(7) -0.0945(8)
C14M C 0.2547(8) 0.6434(7) -0.0336(10)
C15M C 0.2903(8) 0.6627(11) -0.0584(16)
H5M H 0.3047 0.6526 -0.1010
C16M C 0.3045(11) 0.6973(12) -0.019(2)
H6M H 0.3283 0.7102 -0.0359
C17M C 0.2830(14) 0.7125(9) 0.044(2)
H7M H 0.2924 0.7356 0.0706
C18M C 0.2473(13) 0.6931(8) 0.0692(15)
H8M H 0.2329 0.7033 0.1118
C19M C 0.2332(10) 0.6586(8) 0.0301(11)
H9M H 0.2093 0.6456 0.0467
Zn1A Zn 0.48107(4) 0.54508(5) -0.06548(9)
O3A O 0.5466(3) 0.5795(3) 0.0631(7)
O4A O 0.5001(3) 0.5984(2) -0.0247(6)
C1A C 0.5286(4) 0.6488(3) 0.0548(8)
C2A C 0.5040(4) 0.6785(4) 0.0204(6)
H1A H 0.4865 0.6715 -0.0203
C3A C 0.5056(4) 0.7188(3) 0.0467(8)
H2A H 0.4892 0.7387 0.0236
C4A C 0.5318(4) 0.7293(3) 0.1074(7)
C5A C 0.5564(4) 0.6996(4) 0.1418(6)
C6A C 0.5548(3) 0.6594(4) 0.1155(8)
H3A H 0.5713 0.6395 0.1385
C10A C 0.5243(7) 0.6053(8) 0.0342(11)
N1A N 0.5891(5) 0.7104(6) 0.1859(9)
C13A C 0.6164(7) 0.7339(4) 0.1555(8)
C14A C 0.6434(7) 0.7547(8) 0.2164(10)
C15A C 0.6627(11) 0.7903(8) 0.1916(16)
H5A H 0.6526 0.8047 0.1490
C16A C 0.6973(12) 0.8045(11) 0.231(2)
H6A H 0.7102 0.8283 0.2141
C17A C 0.7125(9) 0.7830(14) 0.294(2)
H7A H 0.7356 0.7924 0.3206
C18A C 0.6931(8) 0.7473(13) 0.3192(15)
H8A H 0.7033 0.7329 0.3618
C19A C 0.6586(8) 0.7332(10) 0.2801(11)
H9A H 0.6456 0.7093 0.2967
O3G O 0.5466(3) 0.9205(3) 0.1869(7)
O4G O 0.5001(3) 0.9016(2) 0.2747(6)
C1G C 0.5286(4) 0.8512(3) 0.1952(8)
C2G C 0.5040(4) 0.8215(4) 0.2296(6)
H1G H 0.4865 0.8285 0.2703
C3G C 0.5056(4) 0.7812(3) 0.2033(8)
H2G H 0.4892 0.7613 0.2264
C4G C 0.5318(4) 0.7707(3) 0.1426(7)
C5G C 0.5564(4) 0.8004(4) 0.1082(6)
C6G C 0.5548(3) 0.8406(4) 0.1345(8)
H3G H 0.5713 0.8605 0.1115
C10G C 0.5243(7) 0.8947(8) 0.2158(11)
N1G N 0.5891(5) 0.7896(6) 0.0641(9)
C13G C 0.6164(7) 0.7661(4) 0.0945(8)
C14G C 0.6434(7) 0.7453(8) 0.0336(10)
C15G C 0.6627(11) 0.7097(8) 0.0584(16)
H5G H 0.6526 0.6953 0.1010
C16G C 0.6973(12) 0.6955(11) 0.019(2)
H6G H 0.7102 0.6717 0.0359
C17G C 0.7125(9) 0.7170(14) -0.044(2)
H7G H 0.7356 0.7076 -0.0706
C18G C 0.6931(8) 0.7527(13) -0.0692(15)
H8G H 0.7033 0.7671 -0.1118
C19G C 0.6586(8) 0.7668(10) -0.0301(11)
H9G H 0.6456 0.7907 -0.0467
Zn1B Zn 0.54508(5) 0.51893(4) 0.06548(9)
Zn1C Zn 0.51893(4) 0.45492(5) -0.06548(9)
Zn1A_2 Zn 0.48107(4) 0.54508(5) 0.93452(9)
Zn1C_2 Zn 0.51893(4) 0.45492(5) 0.93452(9)
Zn1E Zn 0.54508(5) 0.98107(4) 0.18452(9)
Zn1G Zn 0.48107(4) 0.95492(5) 0.31548(9)
Zn1M Zn 0.04508(5) 0.48107(4) -0.31548(9)
Zn1N Zn 0.01893(4) 0.54508(5) -0.18452(9)
O1A_2 O 0.4943(4) 0.5345(3) -0.1756(5)
O1C_2 O 0.5057(4) 0.4655(3) -0.1756(5)
O3B O 0.5795(3) 0.4534(3) -0.0631(7)
O3C O 0.4534(3) 0.4205(3) 0.0631(7)
O4B O 0.5984(2) 0.4999(3) 0.0247(6)
O4C O 0.4999(3) 0.4016(2) -0.0247(6)
loop_
_geom_bond_atom_site_label_1
_geom_bond_atom_site_label_2
_geom_bond_site_symmetry_1
_geom_bond_site_symmetry_2
Zn1 O1 1_555 1_555
O1 C11 1_555 1_555
O2 Zn1 1_555 1_555
O3 C10 1_555 1_555
O4 Zn1 1_555 1_555
C1 C2 1_555 1_555
C2 H1 1_555 1_555
C3 C2 1_555 1_555
H2 C3 1_555 1_555
C4 C3 1_555 1_555
C5 C4 1_555 1_555
C6 C1 1_555 1_555
H3 C6 1_555 1_555
C7 C12 1_555 1_555
C8 H4 1_555 1_555
C9 C8 1_555 1_555
C10 O4 1_555 1_555
C11 C9 1_555 1_555
C12 C8 1_555 1_555
N1 C5 1_555 1_555
C13 N1 1_555 1_555
C14 C13 1_555 1_555
C15 C14 1_555 1_555
H5 C15 1_555 1_555
C16 C15 1_555 1_555
H6 C16 1_555 1_555
C17 C16 1_555 1_555
H7 C17 1_555 1_555
C18 C17 1_555 1_555
H8 C18 1_555 1_555
C19 C14 1_555 1_555
H9 C19 1_555 1_555
N2 C12 1_555 1_555
O1A C11A 1_555 1_555
C7A C7 1_555 1_555
C8A H4A 1_555 1_555
C9A C8A 1_555 1_555
C11A C9A 1_555 1_555
C12A C7A 1_555 1_555
N2A C12A 1_555 1_555
O1B C11 1_555 1_555
C8B C9 1_555 1_555
H4B C8B 1_555 1_555
C12B C7 1_555 1_555
N2B C12B 1_555 1_555
O1C C11A 1_555 1_555
C8C C9A 1_555 1_555
H4C C8C 1_555 1_555
C12C C7A 1_555 1_555
N2C C12C 1_555 1_555
O3M C10M 1_555 1_555
O4M C10M 1_555 1_555
C1M C2M 1_555 1_555
C2M H1M 1_555 1_555
C3M C2M 1_555 1_555
H2M C3M 1_555 1_555
C4M C4 1_555 1_555
C5M C4M 1_555 1_555
C6M C1M 1_555 1_555
H3M C6M 1_555 1_555
C10M C1M 1_555 1_555
N1M C5M 1_555 1_555
C13M C13 1_555 1_555
C14M C13M 1_555 1_555
C15M C14M 1_555 1_555
H5M C15M 1_555 1_555
C16M C15M 1_555 1_555
H6M C16M 1_555 1_555
C17M C16M 1_555 1_555
H7M C17M 1_555 1_555
C18M C17M 1_555 1_555
H8M C18M 1_555 1_555
C19M C14M 1_555 1_555
H9M C19M 1_555 1_555
Zn1A O2 1_555 1_555
O3A C10A 1_555 1_555
O4A Zn1A 1_555 1_555
C1A C2A 1_555 1_555
C2A H1A 1_555 1_555
C3A C2A 1_555 1_555
H2A C3A 1_555 1_555
C4A C3A 1_555 1_555
C5A C4A 1_555 1_555
C6A C1A 1_555 1_555
H3A C6A 1_555 1_555
C10A O4A 1_555 1_555
N1A C5A 1_555 1_555
C13A N1A 1_555 1_555
C14A C13A 1_555 1_555
C15A C14A 1_555 1_555
H5A C15A 1_555 1_555
C16A C15A 1_555 1_555
H6A C16A 1_555 1_555
C17A C16A 1_555 1_555
H7A C17A 1_555 1_555
C18A C17A 1_555 1_555
H8A C18A 1_555 1_555
C19A C14A 1_555 1_555
H9A C19A 1_555 1_555
O3G C10G 1_555 1_555
O4G C10G 1_555 1_555
C1G C2G 1_555 1_555
C2G H1G 1_555 1_555
C3G C2G 1_555 1_555
H2G C3G 1_555 1_555
C4G C4A 1_555 1_555
C5G C4G 1_555 1_555
C6G C1G 1_555 1_555
H3G C6G 1_555 1_555
C10G C1G 1_555 1_555
N1G C5G 1_555 1_555
C13G C13A 1_555 1_555
C14G C13G 1_555 1_555
C15G C14G 1_555 1_555
H5G C15G 1_555 1_555
C16G C15G 1_555 1_555
H6G C16G 1_555 1_555
C17G C16G 1_555 1_555
H7G C17G 1_555 1_555
C18G C17G 1_555 1_555
H8G C18G 1_555 1_555
C19G C14G 1_555 1_555
H9G C19G 1_555 1_555
Zn1B O2 1_555 1_555
Zn1C O2 1_555 1_555
Zn1A_2 O1A 1_555 1_555
Zn1C_2 O1C 1_555 1_555
Zn1E O3G 1_555 1_555
Zn1G O4G 1_555 1_555
Zn1M O4M 1_555 1_555
Zn1N O3M 1_555 1_555
O1A_2 Zn1A 1_555 1_555
O1C_2 Zn1C 1_555 1_555
O3B Zn1C 1_555 1_555
O3C Zn1 1_555 1_555
O4B Zn1B 1_555 1_555
O4C Zn1C 1_555 1_555
O3 Zn1A 1_555 1_555
C1 C10 1_555 1_555
C5 C6 1_555 1_555
C18 C19 1_555 1_555
C8A C12A 1_555 1_555
O1B Zn1B 1_555 1_555
C8B C12B 1_555 1_555
C8C C12C 1_555 1_555
C3M C4M 1_555 1_555
C5M C6M 1_555 1_555
N1M C13M 1_555 1_555
C18M C19M 1_555 1_555
O3A Zn1B 1_555 1_555
C1A C10A 1_555 1_555
C5A C6A 1_555 1_555
C18A C19A 1_555 1_555
C3G C4G 1_555 1_555
C5G C6G 1_555 1_555
N1G C13G 1_555 1_555
C18G C19G 1_555 1_555

#END
