
#######################################################################
#
#                 Cambridge Crystallographic Data Centre
#                                CCDC 
#
#######################################################################
#
# If this CIF has been generated from an entry in the Cambridge 
# Structural Database, then it will include bibliographic, chemical, 
# crystal, experimental, refinement or atomic coordinate data resulting 
# from the CCDC's data processing and validation procedures.
#
#######################################################################

data_NACXOH
_chemical_formula_moiety         'C66 N12 O19 Zn10'
_symmetry_cell_setting           cubic
_symmetry_space_group_name_H-M   'P 42 3 2'
_symmetry_Int_Tables_number      208
_space_group_name_Hall           'P 4n 2 3'
loop_
_symmetry_equiv_pos_site_id
_symmetry_equiv_pos_as_xyz
1 x,y,z
2 -x,-y,z
3 x,-y,-z
4 -x,y,-z
5 z,x,y
6 y,z,x
7 -z,-x,y
8 -y,z,-x
9 z,-x,-y
10 -y,-z,x
11 -z,x,-y
12 y,-z,-x
13 1/2-y,1/2-x,1/2-z
14 1/2+y,1/2+x,1/2-z
15 1/2+y,1/2-x,1/2+z
16 1/2-y,1/2+x,1/2+z
17 1/2-x,1/2-z,1/2-y
18 1/2-z,1/2-y,1/2-x
19 1/2+x,1/2+z,1/2-y
20 1/2-z,1/2+y,1/2+x
21 1/2+x,1/2-z,1/2+y
22 1/2+z,1/2+y,1/2-x
23 1/2-x,1/2+z,1/2+y
24 1/2+z,1/2-y,1/2+x
_cell_length_a                   17.188(4)
_cell_length_b                   17.188(4)
_cell_length_c                   17.188(4)
_cell_angle_alpha                90
_cell_angle_beta                 90
_cell_angle_gamma                90
_cell_volume                     5077.81
loop_
_atom_site_label
_atom_site_type_symbol
_atom_site_fract_x
_atom_site_fract_y
_atom_site_fract_z
Zn1 Zn 0.93493(6) 0.93493(6) 0.06507(6)
O1 O 1.0000 1.0000 0.0000
O2 O 0.9521(5) 0.9545(6) 0.1738(5)
C1 C 1.0000 1.0000 0.2058(8)
C2 C 1.0000 1.0000 0.2954(9)
C3 C 1.0357(9) 1.0585(8) 0.3343(7)
C4 C 1.0353(11) 1.0578(8) 0.4118(8)
C5 C 1.0000 1.0000 0.4551(9)
N1 N 1.069(3) 1.112(4) 0.465(5)
C6 C 1.0442(9) 1.171(4) 0.504(5)
C7 C 1.069(3) 1.243(3) 0.555(3)
O2A O 1.0479(5) 1.0455(6) 0.1738(5)
C3A C 0.9643(9) 0.9415(8) 0.3343(7)
C4A C 0.9647(11) 0.9422(8) 0.4118(8)
N1A N 0.931(3) 0.888(4) 0.465(5)
C6A C 0.9558(9) 0.829(4) 0.504(5)
C7A C 0.931(3) 0.757(3) 0.555(3)
O2B O 0.9521(5) 1.0455(6) 0.8262(5)
C1B C 1.0000 1.0000 0.7942(8)
C2B C 1.0000 1.0000 0.7046(9)
C3B C 1.0357(9) 0.9415(8) 0.6657(7)
C4B C 1.0353(11) 0.9422(8) 0.5882(8)
C5B C 1.0000 1.0000 0.5449(9)
N1B N 1.069(3) 0.888(4) 0.535(5)
C6B C 1.0442(9) 0.829(4) 0.496(5)
C7B C 1.069(3) 0.757(3) 0.445(3)
O2C O 1.0479(5) 0.9545(6) 0.8262(5)
C3C C 0.9643(9) 1.0585(8) 0.6657(7)
C4C C 0.9647(11) 1.0578(8) 0.5882(8)
N1C N 0.931(3) 1.112(4) 0.535(5)
C6C C 0.9558(9) 1.171(4) 0.496(5)
C7C C 0.931(3) 1.243(3) 0.445(3)
Zn1A Zn 1.06507(6) 1.06507(6) 0.06507(6)
Zn1B Zn 0.93493(6) 1.06507(6) -0.06507(6)
O2B_2 O 0.9521(5) 1.0455(6) -0.1738(5)
C1B_2 C 1.0000 1.0000 -0.2058(8)
C2B_2 C 1.0000 1.0000 -0.2954(9)
C3B_2 C 1.0357(9) 0.9415(8) -0.3343(7)
C4B_2 C 1.0353(11) 0.9422(8) -0.4118(8)
C5B_2 C 1.0000 1.0000 -0.4551(9)
N1B_2 N 1.069(3) 0.888(4) -0.465(5)
C6B_2 C 1.0442(9) 0.829(4) -0.504(5)
C7B_2 C 1.069(3) 0.757(3) -0.555(3)
O2C_2 O 1.0479(5) 0.9545(6) -0.1738(5)
C3C_2 C 0.9643(9) 1.0585(8) -0.3343(7)
C4C_2 C 0.9647(11) 1.0578(8) -0.4118(8)
N1C_2 N 0.931(3) 1.112(4) -0.465(5)
C6C_2 C 0.9558(9) 1.171(4) -0.504(5)
C7C_2 C 0.931(3) 1.243(3) -0.555(3)
O2_2 O 0.9521(5) 0.9545(6) -0.8262(5)
C1_2 C 1.0000 1.0000 -0.7942(8)
C2_2 C 1.0000 1.0000 -0.7046(9)
C3_2 C 1.0357(9) 1.0585(8) -0.6657(7)
C4_2 C 1.0353(11) 1.0578(8) -0.5882(8)
C5_2 C 1.0000 1.0000 -0.5449(9)
N1_2 N 1.069(3) 1.112(4) -0.535(5)
C6_2 C 1.0442(9) 1.171(4) -0.496(5)
C7_2 C 1.069(3) 1.243(3) -0.445(3)
O2A_2 O 1.0479(5) 1.0455(6) -0.8262(5)
C3A_2 C 0.9643(9) 0.9415(8) -0.6657(7)
C4A_2 C 0.9647(11) 0.9422(8) -0.5882(8)
N1A_2 N 0.931(3) 0.888(4) -0.535(5)
C6A_2 C 0.9558(9) 0.829(4) -0.496(5)
C7A_2 C 0.931(3) 0.757(3) -0.445(3)
Zn1C Zn 1.06507(6) 0.93493(6) -0.06507(6)
O2D O 1.1738(5) 0.9521(5) -0.0455(6)
C1D C 1.2058(8) 1.0000 0.0000
C2D C 1.2954(9) 1.0000 0.0000
C3D C 1.3343(7) 1.0357(9) 0.0585(8)
C4D C 1.4118(8) 1.0353(11) 0.0578(8)
C5D C 1.4551(9) 1.0000 0.0000
N1D N 1.465(5) 1.069(3) 0.112(4)
C6D C 1.504(5) 1.0442(9) 0.171(4)
C7D C 1.555(3) 1.069(3) 0.243(3)
O2H O 1.1738(5) 1.0479(5) 0.0455(6)
C3H C 1.3343(7) 0.9643(9) -0.0585(8)
C4H C 1.4118(8) 0.9647(11) -0.0578(8)
N1H N 1.465(5) 0.931(3) -0.112(4)
C6H C 1.504(5) 0.9558(9) -0.171(4)
C7H C 1.555(3) 0.931(3) -0.243(3)
O2J O 1.8262(5) 0.9521(5) 0.0455(6)
C1F C 1.7942(8) 1.0000 0.0000
C2F C 1.7046(9) 1.0000 0.0000
C3J C 1.6657(7) 1.0357(9) -0.0585(8)
C4J C 1.5882(8) 1.0353(11) -0.0578(8)
C5F C 1.5449(9) 1.0000 0.0000
N1J N 1.535(5) 1.069(3) -0.112(4)
C6J C 1.496(5) 1.0442(9) -0.171(4)
C7J C 1.445(3) 1.069(3) -0.243(3)
O2F O 1.8262(5) 1.0479(5) -0.0455(6)
C3F C 1.6657(7) 0.9643(9) 0.0585(8)
C4F C 1.5882(8) 0.9647(11) 0.0578(8)
N1F N 1.535(5) 0.931(3) 0.112(4)
C6F C 1.496(5) 0.9558(9) 0.171(4)
C7F C 1.445(3) 0.931(3) 0.243(3)
Zn1_2 Zn 0.93493(6) 0.93493(6) -0.93493(6)
Zn1_3 Zn 1.93493(6) 0.93493(6) 0.06507(6)
Zn1A_2 Zn 1.06507(6) 1.06507(6) -0.93493(6)
Zn1B_2 Zn 0.93493(6) 1.06507(6) 0.93493(6)
Zn1B_3 Zn 1.93493(6) 1.06507(6) -0.06507(6)
Zn1C_2 Zn 1.06507(6) 0.93493(6) 0.93493(6)
O2E O 0.9545(6) 1.1738(5) -0.0479(5)
O2F_2 O 0.8262(5) 1.0479(5) -0.0455(6)
O2G O 1.0455(6) 1.1738(5) 0.0479(5)
O2I O 1.0455(6) 0.8262(5) -0.0479(5)
O2J_2 O 0.8262(5) 0.9521(5) 0.0455(6)
O2K O 0.9545(6) 0.8262(5) 0.0479(5)
loop_
_geom_bond_atom_site_label_1
_geom_bond_atom_site_label_2
_geom_bond_site_symmetry_1
_geom_bond_site_symmetry_2
Zn1 O1 1_555 1_555
O1 Zn1A 1_555 1_555
O2 Zn1 1_555 1_555
C1 O2 1_555 1_555
C2 C1 1_555 1_555
C3 C2 1_555 1_555
C4 C3 1_555 1_555
C5 C4 1_555 1_555
N1 C4 1_555 1_555
C6 N1 1_555 1_555
C7 C6 1_555 1_555
O2A C1 1_555 1_555
C3A C2 1_555 1_555
C4A C5 1_555 1_555
N1A C4A 1_555 1_555
C6A N1A 1_555 1_555
C7A C6A 1_555 1_555
O2B C1B 1_555 1_555
C1B C2B 1_555 1_555
C2B C3B 1_555 1_555
C3B C4B 1_555 1_555
C4B C5B 1_555 1_555
C5B C5 1_555 1_555
N1B C4B 1_555 1_555
C6B C6A 1_555 1_555
C7B C6B 1_555 1_555
O2C C1B 1_555 1_555
C3C C2B 1_555 1_555
C4C C5B 1_555 1_555
N1C C4C 1_555 1_555
C6C C6 1_555 1_555
C7C C6C 1_555 1_555
Zn1A O2A 1_555 1_555
Zn1B O1 1_555 1_555
O2B_2 Zn1B 1_555 1_555
C1B_2 O2B_2 1_555 1_555
C2B_2 C1B_2 1_555 1_555
C3B_2 C2B_2 1_555 1_555
C4B_2 C3B_2 1_555 1_555
C5B_2 C4B_2 1_555 1_555
N1B_2 C4B_2 1_555 1_555
C6B_2 N1B_2 1_555 1_555
C7B_2 C6B_2 1_555 1_555
O2C_2 C1B_2 1_555 1_555
C3C_2 C2B_2 1_555 1_555
C4C_2 C5B_2 1_555 1_555
N1C_2 C4C_2 1_555 1_555
C6C_2 N1C_2 1_555 1_555
C7C_2 C6C_2 1_555 1_555
O2_2 C1_2 1_555 1_555
C1_2 C2_2 1_555 1_555
C2_2 C3_2 1_555 1_555
C3_2 C4_2 1_555 1_555
C4_2 C5_2 1_555 1_555
C5_2 C5B_2 1_555 1_555
N1_2 C4_2 1_555 1_555
C6_2 C6C_2 1_555 1_555
C7_2 C6_2 1_555 1_555
O2A_2 C1_2 1_555 1_555
C3A_2 C2_2 1_555 1_555
C4A_2 C5_2 1_555 1_555
N1A_2 C4A_2 1_555 1_555
C6A_2 C6B_2 1_555 1_555
C7A_2 C6A_2 1_555 1_555
Zn1C O1 1_555 1_555
O2D Zn1C 1_555 1_555
C1D O2D 1_555 1_555
C2D C1D 1_555 1_555
C3D C2D 1_555 1_555
C4D C3D 1_555 1_555
C5D C4D 1_555 1_555
N1D C4D 1_555 1_555
C6D N1D 1_555 1_555
C7D C6D 1_555 1_555
O2H Zn1A 1_555 1_555
C3H C2D 1_555 1_555
C4H C5D 1_555 1_555
N1H C4H 1_555 1_555
C6H N1H 1_555 1_555
C7H C6H 1_555 1_555
O2J C1F 1_555 1_555
C1F C2F 1_555 1_555
C2F C3J 1_555 1_555
C3J C4J 1_555 1_555
C4J C5F 1_555 1_555
C5F C5D 1_555 1_555
N1J C4J 1_555 1_555
C6J C6H 1_555 1_555
C7J C6J 1_555 1_555
O2F C1F 1_555 1_555
C3F C2F 1_555 1_555
C4F C5F 1_555 1_555
N1F C4F 1_555 1_555
C6F C6D 1_555 1_555
C7F C6F 1_555 1_555
Zn1_2 O2_2 1_555 1_555
Zn1_3 O2J 1_555 1_555
Zn1A_2 O2A_2 1_555 1_555
Zn1B_2 O2B 1_555 1_555
Zn1B_3 O2F 1_555 1_555
Zn1C_2 O2C 1_555 1_555
O2E Zn1B 1_555 1_555
O2F_2 Zn1B 1_555 1_555
O2G Zn1A 1_555 1_555
O2I Zn1C 1_555 1_555
O2J_2 Zn1 1_555 1_555
O2K Zn1 1_555 1_555
C3A C4A 1_555 1_555
N1B C6B 1_555 1_555
C3C C4C 1_555 1_555
N1C C6C 1_555 1_555
O2C_2 Zn1C 1_555 1_555
C3C_2 C4C_2 1_555 1_555
N1_2 C6_2 1_555 1_555
C3A_2 C4A_2 1_555 1_555
N1A_2 C6A_2 1_555 1_555
C1D O2H 1_555 1_555
C3H C4H 1_555 1_555
N1J C6J 1_555 1_555
C3F C4F 1_555 1_555
N1F C6F 1_555 1_555

#END
