
#######################################################################
#
#                 Cambridge Crystallographic Data Centre
#                                CCDC 
#
#######################################################################
#
# If this CIF has been generated from an entry in the Cambridge 
# Structural Database, then it will include bibliographic, chemical, 
# crystal, experimental, refinement or atomic coordinate data resulting 
# from the CCDC's data processing and validation procedures.
#
#######################################################################

data_NACXEX
_chemical_formula_moiety         'C126 H72 N12 O19 Zn10'
_symmetry_cell_setting           cubic
_symmetry_space_group_name_H-M   'P 2 3'
_symmetry_Int_Tables_number      195
_space_group_name_Hall           'P 2 2 3'
loop_
_symmetry_equiv_pos_site_id
_symmetry_equiv_pos_as_xyz
1 x,y,z
2 -x,-y,z
3 -x,y,-z
4 x,-y,-z
5 z,x,y
6 z,-x,-y
7 -z,-x,y
8 -z,x,-y
9 y,z,x
10 -y,z,-x
11 y,-z,-x
12 -y,-z,x
_cell_length_a                   17.1559(18)
_cell_length_b                   17.1559(18)
_cell_length_c                   17.1559(18)
_cell_angle_alpha                90
_cell_angle_beta                 90
_cell_angle_gamma                90
_cell_volume                     5049.41
loop_
_atom_site_label
_atom_site_type_symbol
_atom_site_fract_x
_atom_site_fract_y
_atom_site_fract_z
Zn1 Zn 0.93445(11) 0.06555(11) 0.06555(11)
O1 O 1.0000 0.0000 0.0000
O2 O 0.8283(9) 0.0507(9) 0.0433(9)
C1 C 0.794(2) 0.0000 0.0000
C2 C 0.702(2) 0.0000 0.0000
C3 C 0.6617(17) 0.0576(14) 0.0376(11)
H1 H 0.6892 0.0965 0.0635
C4 C 0.5816(14) 0.0595(15) 0.0380(15)
C5 C 0.5455(7) 0.0000 0.0000
N1 N 0.5424 0.1167 0.0794
C6 C 0.5100 0.1870 0.0380
C7 C 0.4990 0.2600 0.0900
C8 C 0.4430 0.3160 0.0700
C9 C 0.4300 0.3810 0.1160
C10 C 0.4730 0.3910 0.1840
C11 C 0.5280 0.3350 0.2050
C12 C 0.5410 0.2700 0.1580
H2 H 0.4090 0.3090 0.0190
H3 H 0.3870 0.4230 0.1000
H4 H 0.4630 0.4410 0.2200
H5 H 0.5610 0.3430 0.2570
H6 H 0.5830 0.2280 0.1750
O2A O 0.1717(9) -0.0507(9) 0.0433(9)
C1A C 0.206(2) 0.0000 0.0000
C2A C 0.298(2) 0.0000 0.0000
C3A C 0.3383(17) -0.0576(14) 0.0376(11)
H1A H 0.3108 -0.0965 0.0635
C4A C 0.4184(14) -0.0595(15) 0.0380(15)
C5A C 0.4545(7) 0.0000 0.0000
N1A N 0.4576 -0.1167 0.0794
C6A C 0.4900 -0.1870 0.0380
C7A C 0.5010 -0.2600 0.0900
C8A C 0.5570 -0.3160 0.0700
C9A C 0.5700 -0.3810 0.1160
C10A C 0.5270 -0.3910 0.1840
C11A C 0.4720 -0.3350 0.2050
C12A C 0.4590 -0.2700 0.1580
H2A H 0.5910 -0.3090 0.0190
H3A H 0.6130 -0.4230 0.1000
H4A H 0.5370 -0.4410 0.2200
H5A H 0.4390 -0.3430 0.2570
H6A H 0.4170 -0.2280 0.1750
O2B O 0.1717(9) 0.0507(9) -0.0433(9)
C3B C 0.3383(17) 0.0576(14) -0.0376(11)
H1B H 0.3108 0.0965 -0.0635
C4B C 0.4184(14) 0.0595(15) -0.0380(15)
N1B N 0.4576 0.1167 -0.0794
C6B C 0.4900 0.1870 -0.0380
C7B C 0.5010 0.2600 -0.0900
C8B C 0.5570 0.3160 -0.0700
C9B C 0.5700 0.3810 -0.1160
C10B C 0.5270 0.3910 -0.1840
C11B C 0.4720 0.3350 -0.2050
C12B C 0.4590 0.2700 -0.1580
H2B H 0.5910 0.3090 -0.0190
H3B H 0.6130 0.4230 -0.1000
H4B H 0.5370 0.4410 -0.2200
H5B H 0.4390 0.3430 -0.2570
H6B H 0.4170 0.2280 -0.1750
O2C O 0.8283(9) -0.0507(9) -0.0433(9)
C3C C 0.6617(17) -0.0576(14) -0.0376(11)
H1C H 0.6892 -0.0965 -0.0635
C4C C 0.5816(14) -0.0595(15) -0.0380(15)
N1C N 0.5424 -0.1167 -0.0794
C6C C 0.5100 -0.1870 -0.0380
C7C C 0.4990 -0.2600 -0.0900
C8C C 0.4430 -0.3160 -0.0700
C9C C 0.4300 -0.3810 -0.1160
C10C C 0.4730 -0.3910 -0.1840
C11C C 0.5280 -0.3350 -0.2050
C12C C 0.5410 -0.2700 -0.1580
H2C H 0.4090 -0.3090 -0.0190
H3C H 0.3870 -0.4230 -0.1000
H4C H 0.4630 -0.4410 -0.2200
H5C H 0.5610 -0.3430 -0.2570
H6C H 0.5830 -0.2280 -0.1750
Zn1A Zn 1.06555(11) -0.06555(11) 0.06555(11)
O2A_2 O 1.1717(9) -0.0507(9) 0.0433(9)
C1A_2 C 1.206(2) 0.0000 0.0000
C2A_2 C 1.298(2) 0.0000 0.0000
C3A_2 C 1.3383(17) -0.0576(14) 0.0376(11)
H1A_2 H 1.3108 -0.0965 0.0635
C4A_2 C 1.4184(14) -0.0595(15) 0.0380(15)
C5A_2 C 1.4545(7) 0.0000 0.0000
N1A_2 N 1.4576 -0.1167 0.0794
C6A_2 C 1.4900 -0.1870 0.0380
C7A_2 C 1.5010 -0.2600 0.0900
C8A_2 C 1.5570 -0.3160 0.0700
C9A_2 C 1.5700 -0.3810 0.1160
C10A_2 C 1.5270 -0.3910 0.1840
C11A_2 C 1.4720 -0.3350 0.2050
C12A_2 C 1.4590 -0.2700 0.1580
H2A_2 H 1.5910 -0.3090 0.0190
H3A_2 H 1.6130 -0.4230 0.1000
H4A_2 H 1.5370 -0.4410 0.2200
H5A_2 H 1.4390 -0.3430 0.2570
H6A_2 H 1.4170 -0.2280 0.1750
O2_2 O 1.8283(9) 0.0507(9) 0.0433(9)
C1_2 C 1.794(2) 0.0000 0.0000
C2_2 C 1.702(2) 0.0000 0.0000
C3_2 C 1.6617(17) 0.0576(14) 0.0376(11)
H1_2 H 1.6892 0.0965 0.0635
C4_2 C 1.5816(14) 0.0595(15) 0.0380(15)
C5_2 C 1.5455(7) 0.0000 0.0000
N1_2 N 1.5424 0.1167 0.0794
C6_2 C 1.5100 0.1870 0.0380
C7_2 C 1.4990 0.2600 0.0900
C8_2 C 1.4430 0.3160 0.0700
C9_2 C 1.4300 0.3810 0.1160
C10_2 C 1.4730 0.3910 0.1840
C11_2 C 1.5280 0.3350 0.2050
C12_2 C 1.5410 0.2700 0.1580
H2_2 H 1.4090 0.3090 0.0190
H3_2 H 1.3870 0.4230 0.1000
H4_2 H 1.4630 0.4410 0.2200
H5_2 H 1.5610 0.3430 0.2570
H6_2 H 1.5830 0.2280 0.1750
O2C_2 O 1.8283(9) -0.0507(9) -0.0433(9)
C3C_2 C 1.6617(17) -0.0576(14) -0.0376(11)
H1C_2 H 1.6892 -0.0965 -0.0635
C4C_2 C 1.5816(14) -0.0595(15) -0.0380(15)
N1C_2 N 1.5424 -0.1167 -0.0794
C6C_2 C 1.5100 -0.1870 -0.0380
C7C_2 C 1.4990 -0.2600 -0.0900
C8C_2 C 1.4430 -0.3160 -0.0700
C9C_2 C 1.4300 -0.3810 -0.1160
C10C_2 C 1.4730 -0.3910 -0.1840
C11C_2 C 1.5280 -0.3350 -0.2050
C12C_2 C 1.5410 -0.2700 -0.1580
H2C_2 H 1.4090 -0.3090 -0.0190
H3C_2 H 1.3870 -0.4230 -0.1000
H4C_2 H 1.4630 -0.4410 -0.2200
H5C_2 H 1.5610 -0.3430 -0.2570
H6C_2 H 1.5830 -0.2280 -0.1750
O2B_2 O 1.1717(9) 0.0507(9) -0.0433(9)
C3B_2 C 1.3383(17) 0.0576(14) -0.0376(11)
H1B_2 H 1.3108 0.0965 -0.0635
C4B_2 C 1.4184(14) 0.0595(15) -0.0380(15)
N1B_2 N 1.4576 0.1167 -0.0794
C6B_2 C 1.4900 0.1870 -0.0380
C7B_2 C 1.5010 0.2600 -0.0900
C8B_2 C 1.5570 0.3160 -0.0700
C9B_2 C 1.5700 0.3810 -0.1160
C10B_2 C 1.5270 0.3910 -0.1840
C11B_2 C 1.4720 0.3350 -0.2050
C12B_2 C 1.4590 0.2700 -0.1580
H2B_2 H 1.5910 0.3090 -0.0190
H3B_2 H 1.6130 0.4230 -0.1000
H4B_2 H 1.5370 0.4410 -0.2200
H5B_2 H 1.4390 0.3430 -0.2570
H6B_2 H 1.4170 0.2280 -0.1750
Zn1B Zn 1.06555(11) 0.06555(11) -0.06555(11)
Zn1C Zn 0.93445(11) -0.06555(11) -0.06555(11)
O2F O 0.9567(9) 0.1717(9) 0.0507(9)
C1E C 1.0000 0.206(2) 0.0000
C2E C 1.0000 0.298(2) 0.0000
C3F C 0.9624(11) 0.3383(17) 0.0576(14)
H1F H 0.9365 0.3108 0.0965
C4F C 0.9620(15) 0.4184(14) 0.0595(15)
C5E C 1.0000 0.4545(7) 0.0000
N1F N 0.9206 0.4576 0.1167
C6F C 0.9620 0.4900 0.1870
C7F C 0.9100 0.5010 0.2600
C8F C 0.9300 0.5570 0.3160
C9F C 0.8840 0.5700 0.3810
C10F C 0.8160 0.5270 0.3910
C11F C 0.7950 0.4720 0.3350
C12F C 0.8420 0.4590 0.2700
H2F H 0.9810 0.5910 0.3090
H3F H 0.9000 0.6130 0.4230
H4F H 0.7800 0.5370 0.4410
H5F H 0.7430 0.4390 0.3430
H6F H 0.8250 0.4170 0.2280
O2G O 0.9567(9) 0.8283(9) -0.0507(9)
C1D C 1.0000 0.794(2) 0.0000
C2D C 1.0000 0.702(2) 0.0000
C3G C 0.9624(11) 0.6617(17) -0.0576(14)
H1G H 0.9365 0.6892 -0.0965
C4G C 0.9620(15) 0.5816(14) -0.0595(15)
C5D C 1.0000 0.5455(7) 0.0000
N1G N 0.9206 0.5424 -0.1167
C6G C 0.9620 0.5100 -0.1870
C7G C 0.9100 0.4990 -0.2600
C8G C 0.9300 0.4430 -0.3160
C9G C 0.8840 0.4300 -0.3810
C10G C 0.8160 0.4730 -0.3910
C11G C 0.7950 0.5280 -0.3350
C12G C 0.8420 0.5410 -0.2700
H2G H 0.9810 0.4090 -0.3090
H3G H 0.9000 0.3870 -0.4230
H4G H 0.7800 0.4630 -0.4410
H5G H 0.7430 0.5610 -0.3430
H6G H 0.8250 0.5830 -0.2280
O2D O 1.0433(9) 0.8283(9) 0.0507(9)
C3D C 1.0376(11) 0.6617(17) 0.0576(14)
H1D H 1.0635 0.6892 0.0965
C4D C 1.0380(15) 0.5816(14) 0.0595(15)
N1D N 1.0794 0.5424 0.1167
C6D C 1.0380 0.5100 0.1870
C7D C 1.0900 0.4990 0.2600
C8D C 1.0700 0.4430 0.3160
C9D C 1.1160 0.4300 0.3810
C10D C 1.1840 0.4730 0.3910
C11D C 1.2050 0.5280 0.3350
C12D C 1.1580 0.5410 0.2700
H2D H 1.0190 0.4090 0.3090
H3D H 1.1000 0.3870 0.4230
H4D H 1.2200 0.4630 0.4410
H5D H 1.2570 0.5610 0.3430
H6D H 1.1750 0.5830 0.2280
O2E O 1.0433(9) 0.1717(9) -0.0507(9)
C3E C 1.0376(11) 0.3383(17) -0.0576(14)
H1E H 1.0635 0.3108 -0.0965
C4E C 1.0380(15) 0.4184(14) -0.0595(15)
N1E N 1.0794 0.4576 -0.1167
C6E C 1.0380 0.4900 -0.1870
C7E C 1.0900 0.5010 -0.2600
C8E C 1.0700 0.5570 -0.3160
C9E C 1.1160 0.5700 -0.3810
C10E C 1.1840 0.5270 -0.3910
C11E C 1.2050 0.4720 -0.3350
C12E C 1.1580 0.4590 -0.2700
H2E H 1.0190 0.5910 -0.3090
H3E H 1.1000 0.6130 -0.4230
H4E H 1.2200 0.5370 -0.4410
H5E H 1.2570 0.4390 -0.3430
H6E H 1.1750 0.4170 -0.2280
Zn1_2 Zn 1.93445(11) 0.06555(11) 0.06555(11)
Zn1A_2 Zn 0.06555(11) -0.06555(11) 0.06555(11)
Zn1A_3 Zn 1.06555(11) 0.93445(11) 0.06555(11)
Zn1B_2 Zn 0.06555(11) 0.06555(11) -0.06555(11)
Zn1C_2 Zn 0.93445(11) 0.93445(11) -0.06555(11)
Zn1C_3 Zn 1.93445(11) -0.06555(11) -0.06555(11)
O2D_2 O 1.0433(9) -0.1717(9) 0.0507(9)
O2G_2 O 0.9567(9) -0.1717(9) -0.0507(9)
O2H O 1.0507(9) 0.0433(9) -0.1717(9)
O2I O 0.9493(9) 0.0433(9) 0.1717(9)
O2J O 1.0507(9) -0.0433(9) 0.1717(9)
O2K O 0.9493(9) -0.0433(9) -0.1717(9)
loop_
_geom_bond_atom_site_label_1
_geom_bond_atom_site_label_2
_geom_bond_site_symmetry_1
_geom_bond_site_symmetry_2
Zn1 O1 1_555 1_555
O1 Zn1A 1_555 1_555
O2 Zn1 1_555 1_555
C1 O2 1_555 1_555
C2 C1 1_555 1_555
C3 C2 1_555 1_555
H1 C3 1_555 1_555
C4 C3 1_555 1_555
C5 C4 1_555 1_555
N1 C4 1_555 1_555
C6 N1 1_555 1_555
C7 C6 1_555 1_555
C8 C7 1_555 1_555
C9 C8 1_555 1_555
C10 C9 1_555 1_555
C11 C10 1_555 1_555
C12 C7 1_555 1_555
H2 C8 1_555 1_555
H3 C9 1_555 1_555
H4 C10 1_555 1_555
H5 C11 1_555 1_555
H6 C12 1_555 1_555
O2A C1A 1_555 1_555
C1A C2A 1_555 1_555
C2A C3A 1_555 1_555
C3A H1A 1_555 1_555
C4A C3A 1_555 1_555
C5A C5 1_555 1_555
N1A C4A 1_555 1_555
C6A N1A 1_555 1_555
C7A C6A 1_555 1_555
C8A C7A 1_555 1_555
C9A C8A 1_555 1_555
C10A C9A 1_555 1_555
C11A C10A 1_555 1_555
C12A C7A 1_555 1_555
H2A C8A 1_555 1_555
H3A C9A 1_555 1_555
H4A C10A 1_555 1_555
H5A C11A 1_555 1_555
H6A C12A 1_555 1_555
O2B C1A 1_555 1_555
C3B C2A 1_555 1_555
H1B C3B 1_555 1_555
C4B C5A 1_555 1_555
N1B C4B 1_555 1_555
C6B C6 1_555 1_555
C7B C6B 1_555 1_555
C8B C7B 1_555 1_555
C9B C8B 1_555 1_555
C10B C9B 1_555 1_555
C11B C10B 1_555 1_555
C12B C7B 1_555 1_555
H2B C8B 1_555 1_555
H3B C9B 1_555 1_555
H4B C10B 1_555 1_555
H5B C11B 1_555 1_555
H6B C12B 1_555 1_555
O2C C1 1_555 1_555
C3C C2 1_555 1_555
H1C C3C 1_555 1_555
C4C C5 1_555 1_555
N1C C4C 1_555 1_555
C6C C6A 1_555 1_555
C7C C6C 1_555 1_555
C8C C7C 1_555 1_555
C9C C8C 1_555 1_555
C10C C9C 1_555 1_555
C11C C10C 1_555 1_555
C12C C7C 1_555 1_555
H2C C8C 1_555 1_555
H3C C9C 1_555 1_555
H4C C10C 1_555 1_555
H5C C11C 1_555 1_555
H6C C12C 1_555 1_555
Zn1A O2A_2 1_555 1_555
O2A_2 C1A_2 1_555 1_555
C1A_2 C2A_2 1_555 1_555
C2A_2 C3A_2 1_555 1_555
C3A_2 H1A_2 1_555 1_555
C4A_2 C3A_2 1_555 1_555
C5A_2 C4A_2 1_555 1_555
N1A_2 C4A_2 1_555 1_555
C6A_2 N1A_2 1_555 1_555
C7A_2 C6A_2 1_555 1_555
C8A_2 C7A_2 1_555 1_555
C9A_2 C8A_2 1_555 1_555
C10A_2 C9A_2 1_555 1_555
C11A_2 C10A_2 1_555 1_555
C12A_2 C7A_2 1_555 1_555
H2A_2 C8A_2 1_555 1_555
H3A_2 C9A_2 1_555 1_555
H4A_2 C10A_2 1_555 1_555
H5A_2 C11A_2 1_555 1_555
H6A_2 C12A_2 1_555 1_555
O2_2 C1_2 1_555 1_555
C1_2 C2_2 1_555 1_555
C2_2 C3_2 1_555 1_555
C3_2 H1_2 1_555 1_555
C4_2 C3_2 1_555 1_555
C5_2 C5A_2 1_555 1_555
N1_2 C4_2 1_555 1_555
C6_2 N1_2 1_555 1_555
C7_2 C6_2 1_555 1_555
C8_2 C7_2 1_555 1_555
C9_2 C8_2 1_555 1_555
C10_2 C9_2 1_555 1_555
C11_2 C10_2 1_555 1_555
C12_2 C7_2 1_555 1_555
H2_2 C8_2 1_555 1_555
H3_2 C9_2 1_555 1_555
H4_2 C10_2 1_555 1_555
H5_2 C11_2 1_555 1_555
H6_2 C12_2 1_555 1_555
O2C_2 C1_2 1_555 1_555
C3C_2 C2_2 1_555 1_555
H1C_2 C3C_2 1_555 1_555
C4C_2 C5_2 1_555 1_555
N1C_2 C4C_2 1_555 1_555
C6C_2 C6A_2 1_555 1_555
C7C_2 C6C_2 1_555 1_555
C8C_2 C7C_2 1_555 1_555
C9C_2 C8C_2 1_555 1_555
C10C_2 C9C_2 1_555 1_555
C11C_2 C10C_2 1_555 1_555
C12C_2 C7C_2 1_555 1_555
H2C_2 C8C_2 1_555 1_555
H3C_2 C9C_2 1_555 1_555
H4C_2 C10C_2 1_555 1_555
H5C_2 C11C_2 1_555 1_555
H6C_2 C12C_2 1_555 1_555
O2B_2 C1A_2 1_555 1_555
C3B_2 C2A_2 1_555 1_555
H1B_2 C3B_2 1_555 1_555
C4B_2 C5A_2 1_555 1_555
N1B_2 C4B_2 1_555 1_555
C6B_2 C6_2 1_555 1_555
C7B_2 C6B_2 1_555 1_555
C8B_2 C7B_2 1_555 1_555
C9B_2 C8B_2 1_555 1_555
C10B_2 C9B_2 1_555 1_555
C11B_2 C10B_2 1_555 1_555
C12B_2 C7B_2 1_555 1_555
H2B_2 C8B_2 1_555 1_555
H3B_2 C9B_2 1_555 1_555
H4B_2 C10B_2 1_555 1_555
H5B_2 C11B_2 1_555 1_555
H6B_2 C12B_2 1_555 1_555
Zn1B O1 1_555 1_555
Zn1C O1 1_555 1_555
O2F Zn1 1_555 1_555
C1E O2F 1_555 1_555
C2E C1E 1_555 1_555
C3F C2E 1_555 1_555
H1F C3F 1_555 1_555
C4F C3F 1_555 1_555
C5E C4F 1_555 1_555
N1F C4F 1_555 1_555
C6F N1F 1_555 1_555
C7F C6F 1_555 1_555
C8F C7F 1_555 1_555
C9F C8F 1_555 1_555
C10F C9F 1_555 1_555
C11F C10F 1_555 1_555
C12F C7F 1_555 1_555
H2F C8F 1_555 1_555
H3F C9F 1_555 1_555
H4F C10F 1_555 1_555
H5F C11F 1_555 1_555
H6F C12F 1_555 1_555
O2G C1D 1_555 1_555
C1D C2D 1_555 1_555
C2D C3G 1_555 1_555
C3G H1G 1_555 1_555
C4G C3G 1_555 1_555
C5D C5E 1_555 1_555
N1G C4G 1_555 1_555
C6G N1G 1_555 1_555
C7G C6G 1_555 1_555
C8G C7G 1_555 1_555
C9G C8G 1_555 1_555
C10G C9G 1_555 1_555
C11G C10G 1_555 1_555
C12G C7G 1_555 1_555
H2G C8G 1_555 1_555
H3G C9G 1_555 1_555
H4G C10G 1_555 1_555
H5G C11G 1_555 1_555
H6G C12G 1_555 1_555
O2D C1D 1_555 1_555
C3D C2D 1_555 1_555
H1D C3D 1_555 1_555
C4D C5D 1_555 1_555
N1D C4D 1_555 1_555
C6D C6F 1_555 1_555
C7D C6D 1_555 1_555
C8D C7D 1_555 1_555
C9D C8D 1_555 1_555
C10D C9D 1_555 1_555
C11D C10D 1_555 1_555
C12D C7D 1_555 1_555
H2D C8D 1_555 1_555
H3D C9D 1_555 1_555
H4D C10D 1_555 1_555
H5D C11D 1_555 1_555
H6D C12D 1_555 1_555
O2E Zn1B 1_555 1_555
C3E C2E 1_555 1_555
H1E C3E 1_555 1_555
C4E C5E 1_555 1_555
N1E C4E 1_555 1_555
C6E C6G 1_555 1_555
C7E C6E 1_555 1_555
C8E C7E 1_555 1_555
C9E C8E 1_555 1_555
C10E C9E 1_555 1_555
C11E C10E 1_555 1_555
C12E C7E 1_555 1_555
H2E C8E 1_555 1_555
H3E C9E 1_555 1_555
H4E C10E 1_555 1_555
H5E C11E 1_555 1_555
H6E C12E 1_555 1_555
Zn1_2 O2_2 1_555 1_555
Zn1A_2 O2A 1_555 1_555
Zn1A_3 O2D 1_555 1_555
Zn1B_2 O2B 1_555 1_555
Zn1C_2 O2G 1_555 1_555
Zn1C_3 O2C_2 1_555 1_555
O2D_2 Zn1A 1_555 1_555
O2G_2 Zn1C 1_555 1_555
O2H Zn1B 1_555 1_555
O2I Zn1 1_555 1_555
O2J Zn1A 1_555 1_555
O2K Zn1C 1_555 1_555
C11 C12 1_555 1_555
C4A C5A 1_555 1_555
C11A C12A 1_555 1_555
C3B C4B 1_555 1_555
N1B C6B 1_555 1_555
C11B C12B 1_555 1_555
O2C Zn1C 1_555 1_555
C3C C4C 1_555 1_555
N1C C6C 1_555 1_555
C11C C12C 1_555 1_555
C11A_2 C12A_2 1_555 1_555
C4_2 C5_2 1_555 1_555
C11_2 C12_2 1_555 1_555
C3C_2 C4C_2 1_555 1_555
N1C_2 C6C_2 1_555 1_555
C11C_2 C12C_2 1_555 1_555
O2B_2 Zn1B 1_555 1_555
C3B_2 C4B_2 1_555 1_555
N1B_2 C6B_2 1_555 1_555
C11B_2 C12B_2 1_555 1_555
C1E O2E 1_555 1_555
C11F C12F 1_555 1_555
C4G C5D 1_555 1_555
C11G C12G 1_555 1_555
C3D C4D 1_555 1_555
N1D C6D 1_555 1_555
C11D C12D 1_555 1_555
C3E C4E 1_555 1_555
N1E C6E 1_555 1_555
C11E C12E 1_555 1_555

#END
