
#######################################################################
#
#                 Cambridge Crystallographic Data Centre
#                                CCDC 
#
#######################################################################
#
# If this CIF has been generated from an entry in the Cambridge 
# Structural Database, then it will include bibliographic, chemical, 
# crystal, experimental, refinement or atomic coordinate data resulting 
# from the CCDC's data processing and validation procedures.
#
#######################################################################

data_NACYAU
_chemical_formula_moiety         '(C85 H53 N7 O15 Zn4)n'
_symmetry_cell_setting           orthorhombic
_symmetry_space_group_name_H-M   'P 21 21 21'
_symmetry_Int_Tables_number      19
_space_group_name_Hall           'P 2ac 2ab'
loop_
_symmetry_equiv_pos_site_id
_symmetry_equiv_pos_as_xyz
1 x,y,z
2 1/2-x,-y,1/2+z
3 1/2+x,1/2-y,-z
4 -x,1/2+y,1/2-z
_cell_length_a                   17.1694(3)
_cell_length_b                   32.1903(7)
_cell_length_c                   32.925(2)
_cell_angle_alpha                90
_cell_angle_beta                 90
_cell_angle_gamma                90
_cell_volume                     18197.3
loop_
_atom_site_label
_atom_site_type_symbol
_atom_site_fract_x
_atom_site_fract_y
_atom_site_fract_z
C1 C 0.6440(10) 0.9871(8) 0.2603(6)
C2 C 0.5531(10) 0.9882(6) 0.2601(5)
C3 C 0.5143(9) 0.9510(7) 0.2682(6)
H1 H 0.5415 0.9268 0.2740
C4 C 0.3916(9) 0.9876(7) 0.2614(6)
C5 C 0.4320(9) 1.0256(7) 0.2568(8)
H2 H 0.4046 1.0504 0.2545
C6 C 0.5132(11) 1.0256(7) 0.2556(8)
H3 H 0.5404 1.0503 0.2519
C7 C 0.2999(11) 0.9889(7) 0.2624(7)
C8 C 0.2558(9) 0.9676(7) 0.2343(5)
C9 C 0.1798(9) 0.9726(6) 0.2335(5)
H4 H 0.1509 0.9612 0.2124
C10 C 0.1412(11) 0.9953(6) 0.2647(5)
C11 C 0.1876(10) 1.0156(7) 0.2934(6)
H5 H 0.1641 1.0323 0.3129
C12 C 0.2650(10) 1.0114(7) 0.2934(8)
H6 H 0.2950 1.0234 0.3137
C13 C 0.0544(8) 1.0006(6) 0.2632(6)
C14 C 0.4331(8) 0.9517(6) 0.2674(5)
N1 N 0.3958(9) 0.9133(6) 0.2766(6)
C15 C 0.3455(12) 0.8964(6) 0.2510(7)
C16 C 0.3016(10) 0.8581(5) 0.2617(7)
C17 C 0.3226(12) 0.8356(8) 0.2960(7)
H7 H 0.3652 0.8438 0.3115
C18 C 0.2800(18) 0.8007(8) 0.3071(8)
H8 H 0.2940 0.7856 0.3300
C19 C 0.2164(16) 0.7883(7) 0.2839(10)
H9 H 0.1878 0.7650 0.2914
C20 C 0.1954(10) 0.8109(7) 0.2497(8)
H10 H 0.1528 0.8027 0.2342
C21 C 0.2380(11) 0.8458(6) 0.2385(6)
H11 H 0.2240 0.8609 0.2156
C22 C 0.3325(12) 0.9155(9) 0.2083(7)
C23 C 0.3709(10) 0.8902(6) 0.1739(6)
C24 C 0.4281(11) 0.8606(6) 0.1813(7)
H12 H 0.4434 0.8549 0.2078
C25 C 0.4626(11) 0.8397(6) 0.1490(9)
H13 H 0.5009 0.8199 0.1540
C26 C 0.4398(15) 0.8483(9) 0.1094(8)
H14 H 0.4628 0.8343 0.0878
C27 C 0.3825(17) 0.8779(10) 0.1020(6)
H15 H 0.3672 0.8836 0.0755
C28 C 0.3480(12) 0.8988(7) 0.1343(7)
H16 H 0.3097 0.9186 0.1293
C29 C 0.9070(11) 1.1067(5) 0.2799(5)
C30 C 0.9351(10) 1.1527(5) 0.2819(5)
C31 C 0.9241(12) 1.1788(4) 0.2466(5)
H17 H 0.8970 1.1688 0.2242
C32 C 0.9533(11) 1.2177(5) 0.2465(5)
H18 H 0.9456 1.2342 0.2237
C33 C 0.9956(11) 1.2342(4) 0.2802(5)
C34 C 1.0043(11) 1.2069(5) 0.3144(5)
C35 C 0.9751(11) 1.1689(4) 0.3142(4)
H19 H 0.9821 1.1524 0.3371
C36 C 1.0289(10) 1.2757(5) 0.2785(5)
C37 C 1.0837(12) 1.2862(5) 0.2488(5)
H20 H 1.1008 1.2654 0.2312
C38 C 1.1131(10) 1.3248(4) 0.2441(5)
H21 H 1.1487 1.3302 0.2234
C39 C 1.0905(10) 1.3561(4) 0.2698(4)
C40 C 1.0367(10) 1.3478(4) 0.2986(5)
H22 H 1.0206 1.3689 0.3161
C41 C 1.0053(10) 1.3087(5) 0.3025(5)
C42 C 1.0272(13) 1.2531(6) 0.3686(6)
C43 C 1.0784(10) 1.2711(5) 0.4011(4)
C44 C 1.0666(10) 1.3104(5) 0.4173(5)
H23 H 1.0249 1.3265 0.4085
C45 C 1.1170(14) 1.3257(5) 0.4468(6)
H24 H 1.1091 1.3520 0.4576
C46 C 1.1793(13) 1.3016(8) 0.4600(6)
H25 H 1.2131 1.3119 0.4797
C47 C 1.1911(12) 1.2623(8) 0.4437(7)
H26 H 1.2328 1.2462 0.4525
C48 C 1.1407(13) 1.2470(5) 0.4143(6)
H27 H 1.1486 1.2207 0.4034
C49 C 0.9550(13) 1.2742(6) 0.3604(6)
C50 C 0.8872(9) 1.2673(6) 0.3895(4)
C51 C 0.8224(12) 1.2931(6) 0.3907(6)
H28 H 0.8191 1.3157 0.3732
C52 C 0.7626(10) 1.2852(8) 0.4180(7)
H29 H 0.7192 1.3025 0.4188
C53 C 0.7676(12) 1.2514(8) 0.4442(6)
H30 H 0.7275 1.2461 0.4625
C54 C 0.8324(14) 1.2255(6) 0.4430(5)
H31 H 0.8357 1.2029 0.4605
C55 C 0.8922(11) 1.2335(5) 0.4156(5)
H32 H 0.9356 1.2162 0.4148
C56 C 1.1235(9) 1.4015(5) 0.2650(6)
C57 C 0.8369(10) 0.9741(5) 0.3650(4)
C58 C 0.8150(10) 0.9676(6) 0.4113(4)
C59 C 0.8576(11) 0.9865(7) 0.4402(4)
H33 H 0.9014 1.0021 0.4334
C60 C 0.8349(13) 0.9823(8) 0.4799(6)
H34 H 0.8655 0.9939 0.5003
C61 C 0.7648(12) 0.9602(7) 0.4910(5)
C62 C 0.7502(12) 0.9422(6) 0.4209(4)
H35 H 0.7248 0.9274 0.4006
C63 C 0.7423(12) 0.9599(6) 0.5325(4)
C64 C 0.7825(12) 0.9426(8) 0.5634(5)
H36 H 0.8288 0.9292 0.5568
C65 C 0.6735(16) 0.9767(7) 0.5440(5)
C66 C 0.7612(11) 0.9429(7) 0.6033(5)
H37 H 0.7918 0.9299 0.6229
C67 C 0.6481(12) 0.9800(6) 0.5841(5)
H38 H 0.6017 0.9935 0.5902
C68 C 0.6924(10) 0.9633(6) 0.6142(5)
C69 C 0.6727(11) 0.9673(6) 0.6597(4)
C70 C 0.5950(19) 0.957(2) 0.4837(7)
C71 C 0.503(2) 1.0181(12) 0.4553(8)
H39 H 0.5035 1.0320 0.4800
C72 C 0.541(2) 0.9802(14) 0.4512(6)
C73 C 0.539(2) 0.9594(13) 0.4142(8)
H40 H 0.5646 0.9340 0.4115
C74 C 0.500(3) 0.9766(13) 0.3813(7)
H41 H 0.4994 0.9627 0.3565
C75 C 0.462(2) 1.0145(13) 0.3853(10)
H42 H 0.4362 1.0260 0.3633
C76 C 0.464(2) 1.0353(11) 0.4223(12)
H43 H 0.4383 1.0607 0.4251
C77 C 0.7260(12) 0.9397(6) 0.4594(5)
N2 N 0.6700(19) 0.9092(7) 0.4694(8)
C78 C 0.596(3) 0.9206(15) 0.475(3)
C79 C 0.543(2) 0.8881(14) 0.4912(11)
C80 C 0.551(3) 0.8460(15) 0.4817(12)
H44 H 0.5886 0.8371 0.4633
C81 C 0.502(4) 0.8178(14) 0.5004(17)
H45 H 0.5062 0.7898 0.4940
C82 C 0.445(4) 0.8303(18) 0.529(2)
H46 H 0.4143 0.8106 0.5417
C83 C 0.436(3) 0.8723(19) 0.538(2)
H47 H 0.3973 0.8818 0.5549
C84 C 0.489(2) 0.8999(13) 0.5189(14)
H48 H 0.4873 0.9278 0.5261
C85 C 0.710(2) 1.0635(9) 0.3363(9)
H49 H 0.6597 1.0572 0.3283
N3 N 0.727(4) 1.0753(10) 0.3775(9)
H50 H 0.7738 1.0810 0.3846
H51 H 0.6898 1.0766 0.3950
N4 N 0.2910(9) 0.9465(6) 0.2002(5)
N5 N 1.0483(10) 1.2214(5) 0.3492(5)
N6 N 0.9457(9) 1.3025(5) 0.3307(4)
N7 N 0.616(2) 0.9869(9) 0.5134(7)
O1 O 0.8472(4) 1.0060(2) 0.2623(2)
O2 O 0.6723(7) 1.0213(5) 0.2481(5)
O3 O 0.0206(6) 0.9938(4) 0.2288(4)
O4 O 0.6783(6) 0.9563(4) 0.2729(4)
O5 O 0.0208(6) 1.0088(3) 0.2956(3)
O6 O 0.8661(9) 1.0965(3) 0.2516(3)
O7 O 0.9288(6) 1.0852(3) 0.3103(3)
O8 O 1.1720(6) 1.4062(3) 0.2358(3)
O9 O 1.0948(7) 1.4282(3) 0.2877(3)
O10 O 0.8886(6) 1.0011(4) 0.3570(3)
O11 O 0.7943(7) 0.9544(3) 0.3398(3)
O12 O 0.6112(7) 0.9906(4) 0.6659(3)
O13 O 0.7133(7) 0.9511(4) 0.6848(3)
O14 O 0.7048(12) 1.1025(6) 0.2359(6)
O15 O 0.7625(10) 1.0618(5) 0.3123(4)
Zn1 Zn 0.77674(11) 1.05277(6) 0.24652(5)
Zn2 Zn 0.78630(10) 0.95868(5) 0.28132(5)
Zn3 Zn -0.08841(10) 1.02636(5) 0.30591(5)
Zn4 Zn -0.08856(11) 0.98753(5) 0.21826(5)
H52 H 0.701(7) 1.115(3) 0.2605(17)
H53 H 0.658(3) 1.0910(15) 0.230(5)
O1_2 O -0.1528(4) 1.0060(2) 0.2623(2)
O7_2 O -0.0712(6) 1.0852(3) 0.3103(3)
O8C O 0.8280(6) 0.9062(3) 0.2642(3)
O9C O -0.0948(7) 0.9282(3) 0.2123(3)
O10_2 O -0.1114(6) 1.0011(4) 0.3570(3)
O12A O -0.1112(7) 1.0094(4) 0.1659(3)
O13A O 0.7867(7) 1.0489(4) 0.1848(3)
Zn1A Zn 0.72326(11) 0.94723(6) 0.74652(5)
Zn2C Zn 1.21370(10) 1.45868(5) 0.21868(5)
Zn3_2 Zn 0.91159(10) 1.02636(5) 0.30591(5)
Zn4_2 Zn 0.91144(11) 0.98753(5) 0.21826(5)
Zn4A Zn 0.58856(11) 1.01247(5) 0.71826(5)
Zn4C Zn 1.08856(11) 1.48753(5) 0.28174(5)
loop_
_geom_bond_atom_site_label_1
_geom_bond_atom_site_label_2
_geom_bond_site_symmetry_1
_geom_bond_site_symmetry_2
C1 C2 1_555 1_555
C2 C3 1_555 1_555
C3 H1 1_555 1_555
C4 C5 1_555 1_555
C5 H2 1_555 1_555
C6 C2 1_555 1_555
H3 C6 1_555 1_555
C7 C4 1_555 1_555
C8 C7 1_555 1_555
C9 C8 1_555 1_555
H4 C9 1_555 1_555
C10 C9 1_555 1_555
C11 C10 1_555 1_555
H5 C11 1_555 1_555
C12 C7 1_555 1_555
H6 C12 1_555 1_555
C13 C10 1_555 1_555
C14 C3 1_555 1_555
N1 C14 1_555 1_555
C15 N1 1_555 1_555
C16 C15 1_555 1_555
C17 C16 1_555 1_555
H7 C17 1_555 1_555
C18 C17 1_555 1_555
H8 C18 1_555 1_555
C19 C18 1_555 1_555
H9 C19 1_555 1_555
C20 C19 1_555 1_555
H10 C20 1_555 1_555
C21 C16 1_555 1_555
H11 C21 1_555 1_555
C22 C15 1_555 1_555
C23 C22 1_555 1_555
C24 C23 1_555 1_555
H12 C24 1_555 1_555
C25 C24 1_555 1_555
H13 C25 1_555 1_555
C26 C25 1_555 1_555
H14 C26 1_555 1_555
C27 C26 1_555 1_555
H15 C27 1_555 1_555
C28 C23 1_555 1_555
H16 C28 1_555 1_555
C29 C30 1_555 1_555
C30 C31 1_555 1_555
C31 H17 1_555 1_555
C32 C31 1_555 1_555
H18 C32 1_555 1_555
C33 C32 1_555 1_555
C34 C33 1_555 1_555
C35 C30 1_555 1_555
H19 C35 1_555 1_555
C36 C33 1_555 1_555
C37 C36 1_555 1_555
H20 C37 1_555 1_555
C38 C37 1_555 1_555
H21 C38 1_555 1_555
C39 C38 1_555 1_555
C40 C39 1_555 1_555
H22 C40 1_555 1_555
C41 C36 1_555 1_555
C42 C43 1_555 1_555
C43 C44 1_555 1_555
C44 H23 1_555 1_555
C45 C44 1_555 1_555
H24 C45 1_555 1_555
C46 C45 1_555 1_555
H25 C46 1_555 1_555
C47 C46 1_555 1_555
H26 C47 1_555 1_555
C48 C43 1_555 1_555
H27 C48 1_555 1_555
C49 C42 1_555 1_555
C50 C49 1_555 1_555
C51 C50 1_555 1_555
H28 C51 1_555 1_555
C52 C51 1_555 1_555
H29 C52 1_555 1_555
C53 C52 1_555 1_555
H30 C53 1_555 1_555
C54 C53 1_555 1_555
H31 C54 1_555 1_555
C55 C50 1_555 1_555
H32 C55 1_555 1_555
C56 C39 1_555 1_555
C57 C58 1_555 1_555
C58 C59 1_555 1_555
C59 H33 1_555 1_555
C60 C59 1_555 1_555
H34 C60 1_555 1_555
C61 C60 1_555 1_555
C62 C58 1_555 1_555
H35 C62 1_555 1_555
C63 C61 1_555 1_555
C64 C63 1_555 1_555
H36 C64 1_555 1_555
C65 C63 1_555 1_555
C66 C64 1_555 1_555
H37 C66 1_555 1_555
C67 C65 1_555 1_555
H38 C67 1_555 1_555
C68 C66 1_555 1_555
C69 C68 1_555 1_555
C70 C72 1_555 1_555
C71 H39 1_555 1_555
C72 C71 1_555 1_555
C73 C72 1_555 1_555
H40 C73 1_555 1_555
C74 C73 1_555 1_555
H41 C74 1_555 1_555
C75 C74 1_555 1_555
H42 C75 1_555 1_555
C76 C71 1_555 1_555
H43 C76 1_555 1_555
C77 C61 1_555 1_555
N2 C77 1_555 1_555
C78 C70 1_555 1_555
C79 C78 1_555 1_555
C80 C79 1_555 1_555
H44 C80 1_555 1_555
C81 C80 1_555 1_555
H45 C81 1_555 1_555
C82 C81 1_555 1_555
H46 C82 1_555 1_555
C83 C82 1_555 1_555
H47 C83 1_555 1_555
C84 C79 1_555 1_555
H48 C84 1_555 1_555
C85 H49 1_555 1_555
N3 C85 1_555 1_555
H50 N3 1_555 1_555
H51 N3 1_555 1_555
N4 C8 1_555 1_555
N5 C34 1_555 1_555
N6 C41 1_555 1_555
N7 C65 1_555 1_555
O1 Zn1 1_555 1_555
O2 C1 1_555 1_555
O3 C13 1_555 1_555
O4 C1 1_555 1_555
O5 C13 1_555 1_555
O6 C29 1_555 1_555
O7 C29 1_555 1_555
O8 C56 1_555 1_555
O9 C56 1_555 1_555
O10 C57 1_555 1_555
O11 C57 1_555 1_555
O12 C69 1_555 1_555
O13 C69 1_555 1_555
O14 Zn1 1_555 1_555
O15 C85 1_555 1_555
Zn1 O2 1_555 1_555
Zn2 O1 1_555 1_555
Zn3 O5 1_555 1_555
Zn4 O3 1_555 1_555
H52 O14 1_555 1_555
H53 O14 1_555 1_555
O1_2 Zn3 1_555 1_555
O7_2 Zn3 1_555 1_555
O8C Zn2 1_555 1_555
O9C Zn4 1_555 1_555
O10_2 Zn3 1_555 1_555
O12A Zn4 1_555 1_555
O13A Zn1 1_555 1_555
Zn1A O13 1_555 1_555
Zn2C O8 1_555 1_555
Zn3_2 O1 1_555 1_555
Zn4_2 O1 1_555 1_555
Zn4A O12 1_555 1_555
Zn4C O9 1_555 1_555
C4 C14 1_555 1_555
C5 C6 1_555 1_555
C11 C12 1_555 1_555
C20 C21 1_555 1_555
C22 N4 1_555 1_555
C27 C28 1_555 1_555
C34 C35 1_555 1_555
C40 C41 1_555 1_555
C42 N5 1_555 1_555
C47 C48 1_555 1_555
C49 N6 1_555 1_555
C54 C55 1_555 1_555
C62 C77 1_555 1_555
C67 C68 1_555 1_555
C70 N7 1_555 1_555
C75 C76 1_555 1_555
N2 C78 1_555 1_555
C83 C84 1_555 1_555
O4 Zn2 1_555 1_555
O6 Zn1 1_555 1_555
O7 Zn3_2 1_555 1_555
O10 Zn3_2 1_555 1_555
O11 Zn2 1_555 1_555
O15 Zn1 1_555 1_555
Zn4 O1_2 1_555 1_555

#END
