
#######################################################################
#
#                 Cambridge Crystallographic Data Centre
#                                CCDC 
#
#######################################################################
#
# If this CIF has been generated from an entry in the Cambridge 
# Structural Database, then it will include bibliographic, chemical, 
# crystal, experimental, refinement or atomic coordinate data resulting 
# from the CCDC's data processing and validation procedures.
#
#######################################################################

data_NADFAC
_chemical_formula_moiety         'C114 H72 N24 O19 Zn10'
_symmetry_cell_setting           cubic
_symmetry_space_group_name_H-M   'P -4 3 m'
_symmetry_Int_Tables_number      215
_space_group_name_Hall           'P -4 2 3'
loop_
_symmetry_equiv_pos_site_id
_symmetry_equiv_pos_as_xyz
1 x,y,z
2 -x,y,-z
3 -x,-y,z
4 x,-y,-z
5 y,-x,-z
6 -y,x,-z
7 -y,-x,z
8 y,x,z
9 z,x,y
10 y,z,x
11 z,y,x
12 x,z,y
13 -z,-x,y
14 z,-x,-y
15 -z,x,-y
16 y,-z,-x
17 -y,z,-x
18 -y,-z,x
19 x,-z,-y
20 -x,z,-y
21 -x,-z,y
22 z,-y,-x
23 -z,-y,x
24 -z,y,-x
_cell_length_a                   17.1746(8)
_cell_length_b                   17.1746(8)
_cell_length_c                   17.1746(8)
_cell_angle_alpha                90
_cell_angle_beta                 90
_cell_angle_gamma                90
_cell_volume                     5065.94
loop_
_atom_site_label
_atom_site_type_symbol
_atom_site_fract_x
_atom_site_fract_y
_atom_site_fract_z
_atom_site_U_iso_or_equiv
_atom_site_thermal_displace_type
Zn1 Zn 0.56542(9) 0.43458(9) 0.43458(9) 0.1234 Uiso
O1 O 0.5460(6) 0.3270(7) 0.4540(6) 0.1840 Uiso
O2 O 0.5000 0.5000 0.5000 0.0970 Uiso
C1 C 0.5000 0.2881(17) 0.5000 0.1710 Uiso
C2 C 0.5000 0.2068(12) 0.5000 0.1810 Uiso
C3 C 0.539(2) 0.1651(10) 0.4440(16) 0.2900 Uiso
C4 C 0.539(3) 0.0848(12) 0.445(3) 0.2700 Uiso
C5 C 0.5000 0.0408(15) 0.5000 0.2140 Uiso
N1 N 0.581(2) 0.046(3) 0.386(3) 0.4600 Uiso
C6 C 0.5436(4) 0.0026(17) 0.337(3) 0.3000 Uiso
C7 C 0.5828(19) -0.045(3) 0.276(3) 0.3000 Uiso
H1 H 0.5443 -0.0726 0.2461 0.4500 Uiso
H2 H 0.6126 -0.0122 0.2425 0.4500 Uiso
H3 H 0.6168 -0.0823 0.3008 0.4500 Uiso
O1A O 0.4540(6) 0.3270(7) 0.5460(6) 0.1840 Uiso
C3A C 0.461(2) 0.1651(10) 0.5560(16) 0.2900 Uiso
C4A C 0.461(3) 0.0848(12) 0.555(3) 0.2700 Uiso
N1A N 0.419(2) 0.046(3) 0.614(3) 0.4600 Uiso
C6A C 0.4564(4) 0.0026(17) 0.663(3) 0.3000 Uiso
C7A C 0.4172(19) -0.045(3) 0.724(3) 0.3000 Uiso
H1A H 0.4557 -0.0726 0.7539 0.4500 Uiso
H2A H 0.3874 -0.0122 0.7575 0.4500 Uiso
H3A H 0.3832 -0.0823 0.6992 0.4500 Uiso
O1B O 0.4540(6) -0.3270(7) 0.4540(6) 0.1840 Uiso
C1B C 0.5000 -0.2881(17) 0.5000 0.1710 Uiso
C2B C 0.5000 -0.2068(12) 0.5000 0.1810 Uiso
C3B C 0.461(2) -0.1651(10) 0.4440(16) 0.2900 Uiso
C4B C 0.461(3) -0.0848(12) 0.445(3) 0.2700 Uiso
C5B C 0.5000 -0.0408(15) 0.5000 0.2140 Uiso
N1B N 0.419(2) -0.046(3) 0.386(3) 0.4600 Uiso
C6B C 0.4564(4) -0.0026(17) 0.337(3) 0.3000 Uiso
C7B C 0.4172(19) 0.045(3) 0.276(3) 0.3000 Uiso
H1B H 0.4557 0.0726 0.2461 0.4500 Uiso
H2B H 0.3874 0.0122 0.2425 0.4500 Uiso
H3B H 0.3832 0.0823 0.3008 0.4500 Uiso
O1C O 0.5460(6) -0.3270(7) 0.5460(6) 0.1840 Uiso
C3C C 0.539(2) -0.1651(10) 0.5560(16) 0.2900 Uiso
C4C C 0.539(3) -0.0848(12) 0.555(3) 0.2700 Uiso
N1C N 0.581(2) -0.046(3) 0.614(3) 0.4600 Uiso
C6C C 0.5436(4) -0.0026(17) 0.663(3) 0.3000 Uiso
C7C C 0.5828(19) 0.045(3) 0.724(3) 0.3000 Uiso
H1C H 0.5443 0.0726 0.7539 0.4500 Uiso
H2C H 0.6126 0.0122 0.7575 0.4500 Uiso
H3C H 0.6168 0.0823 0.6992 0.4500 Uiso
C3J C 0.4440(16) 0.1651(10) 0.539(2) 0.2900 Uiso
C4J C 0.445(3) 0.0848(12) 0.539(3) 0.2700 Uiso
N1J N 0.386(3) 0.046(3) 0.581(2) 0.4600 Uiso
C6J C 0.337(3) 0.0026(17) 0.5436(4) 0.3000 Uiso
C7J C 0.276(3) -0.045(3) 0.5828(19) 0.3000 Uiso
H1J H 0.2461 -0.0726 0.5443 0.4500 Uiso
H2J H 0.2425 -0.0122 0.6126 0.4500 Uiso
H3J H 0.3008 -0.0823 0.6168 0.4500 Uiso
C3U C 0.4440(16) -0.1651(10) 0.461(2) 0.2900 Uiso
C4U C 0.445(3) -0.0848(12) 0.461(3) 0.2700 Uiso
N1U N 0.386(3) -0.046(3) 0.419(2) 0.4600 Uiso
C6U C 0.337(3) -0.0026(17) 0.4564(4) 0.3000 Uiso
C7U C 0.276(3) 0.045(3) 0.4172(19) 0.3000 Uiso
H1U H 0.2461 0.0726 0.4557 0.4500 Uiso
H2U H 0.2425 0.0122 0.3874 0.4500 Uiso
H3U H 0.3008 0.0823 0.3832 0.4500 Uiso
C3V C 0.5560(16) -0.1651(10) 0.539(2) 0.2900 Uiso
C4V C 0.555(3) -0.0848(12) 0.539(3) 0.2700 Uiso
N1V N 0.614(3) -0.046(3) 0.581(2) 0.4600 Uiso
C6V C 0.663(3) -0.0026(17) 0.5436(4) 0.3000 Uiso
C7V C 0.724(3) 0.045(3) 0.5828(19) 0.3000 Uiso
H1V H 0.7539 0.0726 0.5443 0.4500 Uiso
H2V H 0.7575 0.0122 0.6126 0.4500 Uiso
H3V H 0.6992 0.0823 0.6168 0.4500 Uiso
C3W C 0.5560(16) 0.1651(10) 0.461(2) 0.2900 Uiso
C4W C 0.555(3) 0.0848(12) 0.461(3) 0.2700 Uiso
N1W N 0.614(3) 0.046(3) 0.419(2) 0.4600 Uiso
C6W C 0.663(3) 0.0026(17) 0.4564(4) 0.3000 Uiso
C7W C 0.724(3) -0.045(3) 0.4172(19) 0.3000 Uiso
H1W H 0.7539 -0.0726 0.4557 0.4500 Uiso
H2W H 0.7575 -0.0122 0.3874 0.4500 Uiso
H3W H 0.6992 -0.0823 0.3832 0.4500 Uiso
Zn1A Zn 0.43458(9) 0.43458(9) 0.56542(9) 0.1234 Uiso
Zn1B Zn 0.43458(9) 0.56542(9) 0.43458(9) 0.1234 Uiso
O1B_2 O 0.4540(6) 0.6730(7) 0.4540(6) 0.1840 Uiso
C1B_2 C 0.5000 0.7119(17) 0.5000 0.1710 Uiso
C2B_2 C 0.5000 0.7932(12) 0.5000 0.1810 Uiso
C3B_2 C 0.461(2) 0.8349(10) 0.4440(16) 0.2900 Uiso
C4B_2 C 0.461(3) 0.9152(12) 0.445(3) 0.2700 Uiso
C5B_2 C 0.5000 0.9592(15) 0.5000 0.2140 Uiso
N1B_2 N 0.419(2) 0.954(3) 0.386(3) 0.4600 Uiso
C6B_2 C 0.4564(4) 0.9974(17) 0.337(3) 0.3000 Uiso
C7B_2 C 0.4172(19) 1.045(3) 0.276(3) 0.3000 Uiso
H1B_2 H 0.4557 1.0726 0.2461 0.4500 Uiso
H2B_2 H 0.3874 1.0122 0.2425 0.4500 Uiso
H3B_2 H 0.3832 1.0823 0.3008 0.4500 Uiso
O1C_2 O 0.5460(6) 0.6730(7) 0.5460(6) 0.1840 Uiso
C3C_2 C 0.539(2) 0.8349(10) 0.5560(16) 0.2900 Uiso
C4C_2 C 0.539(3) 0.9152(12) 0.555(3) 0.2700 Uiso
N1C_2 N 0.581(2) 0.954(3) 0.614(3) 0.4600 Uiso
C6C_2 C 0.5436(4) 0.9974(17) 0.663(3) 0.3000 Uiso
C7C_2 C 0.5828(19) 1.045(3) 0.724(3) 0.3000 Uiso
H1C_2 H 0.5443 1.0726 0.7539 0.4500 Uiso
H2C_2 H 0.6126 1.0122 0.7575 0.4500 Uiso
H3C_2 H 0.6168 1.0823 0.6992 0.4500 Uiso
O1_2 O 0.5460(6) 1.3270(7) 0.4540(6) 0.1840 Uiso
C1_2 C 0.5000 1.2881(17) 0.5000 0.1710 Uiso
C2_2 C 0.5000 1.2068(12) 0.5000 0.1810 Uiso
C3_2 C 0.539(2) 1.1651(10) 0.4440(16) 0.2900 Uiso
C4_2 C 0.539(3) 1.0848(12) 0.445(3) 0.2700 Uiso
C5_2 C 0.5000 1.0408(15) 0.5000 0.2140 Uiso
N1_2 N 0.581(2) 1.046(3) 0.386(3) 0.4600 Uiso
C6_2 C 0.5436(4) 1.0026(17) 0.337(3) 0.3000 Uiso
C7_2 C 0.5828(19) 0.955(3) 0.276(3) 0.3000 Uiso
H1_2 H 0.5443 0.9274 0.2461 0.4500 Uiso
H2_2 H 0.6126 0.9878 0.2425 0.4500 Uiso
H3_2 H 0.6168 0.9177 0.3008 0.4500 Uiso
O1A_2 O 0.4540(6) 1.3270(7) 0.5460(6) 0.1840 Uiso
C3A_2 C 0.461(2) 1.1651(10) 0.5560(16) 0.2900 Uiso
C4A_2 C 0.461(3) 1.0848(12) 0.555(3) 0.2700 Uiso
N1A_2 N 0.419(2) 1.046(3) 0.614(3) 0.4600 Uiso
C6A_2 C 0.4564(4) 1.0026(17) 0.663(3) 0.3000 Uiso
C7A_2 C 0.4172(19) 0.955(3) 0.724(3) 0.3000 Uiso
H1A_2 H 0.4557 0.9274 0.7539 0.4500 Uiso
H2A_2 H 0.3874 0.9878 0.7575 0.4500 Uiso
H3A_2 H 0.3832 0.9177 0.6992 0.4500 Uiso
C3V_2 C 0.5560(16) 0.8349(10) 0.539(2) 0.2900 Uiso
C4V_2 C 0.555(3) 0.9152(12) 0.539(3) 0.2700 Uiso
N1V_2 N 0.614(3) 0.954(3) 0.581(2) 0.4600 Uiso
C6V_2 C 0.663(3) 0.9974(17) 0.5436(4) 0.3000 Uiso
C7V_2 C 0.724(3) 1.045(3) 0.5828(19) 0.3000 Uiso
H1V_2 H 0.7539 1.0726 0.5443 0.4500 Uiso
H2V_2 H 0.7575 1.0122 0.6126 0.4500 Uiso
H3V_2 H 0.6992 1.0823 0.6168 0.4500 Uiso
C3W_2 C 0.5560(16) 1.1651(10) 0.461(2) 0.2900 Uiso
C4W_2 C 0.555(3) 1.0848(12) 0.461(3) 0.2700 Uiso
N1W_2 N 0.614(3) 1.046(3) 0.419(2) 0.4600 Uiso
C6W_2 C 0.663(3) 1.0026(17) 0.4564(4) 0.3000 Uiso
C7W_2 C 0.724(3) 0.955(3) 0.4172(19) 0.3000 Uiso
H1W_2 H 0.7539 0.9274 0.4557 0.4500 Uiso
H2W_2 H 0.7575 0.9878 0.3874 0.4500 Uiso
H3W_2 H 0.6992 0.9177 0.3832 0.4500 Uiso
C3J_2 C 0.4440(16) 1.1651(10) 0.539(2) 0.2900 Uiso
C4J_2 C 0.445(3) 1.0848(12) 0.539(3) 0.2700 Uiso
N1J_2 N 0.386(3) 1.046(3) 0.581(2) 0.4600 Uiso
C6J_2 C 0.337(3) 1.0026(17) 0.5436(4) 0.3000 Uiso
C7J_2 C 0.276(3) 0.955(3) 0.5828(19) 0.3000 Uiso
H1J_2 H 0.2461 0.9274 0.5443 0.4500 Uiso
H2J_2 H 0.2425 0.9878 0.6126 0.4500 Uiso
H3J_2 H 0.3008 0.9177 0.6168 0.4500 Uiso
C3U_2 C 0.4440(16) 0.8349(10) 0.461(2) 0.2900 Uiso
C4U_2 C 0.445(3) 0.9152(12) 0.461(3) 0.2700 Uiso
N1U_2 N 0.386(3) 0.954(3) 0.419(2) 0.4600 Uiso
C6U_2 C 0.337(3) 0.9974(17) 0.4564(4) 0.3000 Uiso
C7U_2 C 0.276(3) 1.045(3) 0.4172(19) 0.3000 Uiso
H1U_2 H 0.2461 1.0726 0.4557 0.4500 Uiso
H2U_2 H 0.2425 1.0122 0.3874 0.4500 Uiso
H3U_2 H 0.3008 1.0823 0.3832 0.4500 Uiso
Zn1C Zn 0.56542(9) 0.56542(9) 0.56542(9) 0.1234 Uiso
O1F O 0.6730(7) 0.4540(6) 0.4540(6) 0.1840 Uiso
C1E C 0.7119(17) 0.5000 0.5000 0.1710 Uiso
C2E C 0.7932(12) 0.5000 0.5000 0.1810 Uiso
C3F C 0.8349(10) 0.461(2) 0.4440(16) 0.2900 Uiso
C4F C 0.9152(12) 0.461(3) 0.445(3) 0.2700 Uiso
C5E C 0.9592(15) 0.5000 0.5000 0.2140 Uiso
N1F N 0.954(3) 0.419(2) 0.386(3) 0.4600 Uiso
C6F C 0.9974(17) 0.4564(4) 0.337(3) 0.3000 Uiso
C7F C 1.045(3) 0.4172(19) 0.276(3) 0.3000 Uiso
H1F H 1.0726 0.4557 0.2461 0.4500 Uiso
H2F H 1.0122 0.3874 0.2425 0.4500 Uiso
H3F H 1.0823 0.3832 0.3008 0.4500 Uiso
O1E O 0.6730(7) 0.5460(6) 0.5460(6) 0.1840 Uiso
C3E C 0.8349(10) 0.539(2) 0.5560(16) 0.2900 Uiso
C4E C 0.9152(12) 0.539(3) 0.555(3) 0.2700 Uiso
N1E N 0.954(3) 0.581(2) 0.614(3) 0.4600 Uiso
C6E C 0.9974(17) 0.5436(4) 0.663(3) 0.3000 Uiso
C7E C 1.045(3) 0.5828(19) 0.724(3) 0.3000 Uiso
H1E H 1.0726 0.5443 0.7539 0.4500 Uiso
H2E H 1.0122 0.6126 0.7575 0.4500 Uiso
H3E H 1.0823 0.6168 0.6992 0.4500 Uiso
O1G O 1.3270(7) 0.5460(6) 0.4540(6) 0.1840 Uiso
C1D C 1.2881(17) 0.5000 0.5000 0.1710 Uiso
C2D C 1.2068(12) 0.5000 0.5000 0.1810 Uiso
C3G C 1.1651(10) 0.539(2) 0.4440(16) 0.2900 Uiso
C4G C 1.0848(12) 0.539(3) 0.445(3) 0.2700 Uiso
C5D C 1.0408(15) 0.5000 0.5000 0.2140 Uiso
N1G N 1.046(3) 0.581(2) 0.386(3) 0.4600 Uiso
C6G C 1.0026(17) 0.5436(4) 0.337(3) 0.3000 Uiso
C7G C 0.955(3) 0.5828(19) 0.276(3) 0.3000 Uiso
H1G H 0.9274 0.5443 0.2461 0.4500 Uiso
H2G H 0.9878 0.6126 0.2425 0.4500 Uiso
H3G H 0.9177 0.6168 0.3008 0.4500 Uiso
O1D O 1.3270(7) 0.4540(6) 0.5460(6) 0.1840 Uiso
C3D C 1.1651(10) 0.461(2) 0.5560(16) 0.2900 Uiso
C4D C 1.0848(12) 0.461(3) 0.555(3) 0.2700 Uiso
N1D N 1.046(3) 0.419(2) 0.614(3) 0.4600 Uiso
C6D C 1.0026(17) 0.4564(4) 0.663(3) 0.3000 Uiso
C7D C 0.955(3) 0.4172(19) 0.724(3) 0.3000 Uiso
H1D H 0.9274 0.4557 0.7539 0.4500 Uiso
H2D H 0.9878 0.3874 0.7575 0.4500 Uiso
H3D H 0.9177 0.3832 0.6992 0.4500 Uiso
C3Q C 0.8349(10) 0.5560(16) 0.539(2) 0.2900 Uiso
C4Q C 0.9152(12) 0.555(3) 0.539(3) 0.2700 Uiso
N1Q N 0.954(3) 0.614(3) 0.581(2) 0.4600 Uiso
C6Q C 0.9974(17) 0.663(3) 0.5436(4) 0.3000 Uiso
C7Q C 1.045(3) 0.724(3) 0.5828(19) 0.3000 Uiso
H1Q H 1.0726 0.7539 0.5443 0.4500 Uiso
H2Q H 1.0122 0.7575 0.6126 0.4500 Uiso
H3Q H 1.0823 0.6992 0.6168 0.4500 Uiso
C3O C 1.1651(10) 0.5560(16) 0.461(2) 0.2900 Uiso
C4O C 1.0848(12) 0.555(3) 0.461(3) 0.2700 Uiso
N1O N 1.046(3) 0.614(3) 0.419(2) 0.4600 Uiso
C6O C 1.0026(17) 0.663(3) 0.4564(4) 0.3000 Uiso
C7O C 0.955(3) 0.724(3) 0.4172(19) 0.3000 Uiso
H1O H 0.9274 0.7539 0.4557 0.4500 Uiso
H2O H 0.9878 0.7575 0.3874 0.4500 Uiso
H3O H 0.9177 0.6992 0.3832 0.4500 Uiso
C3I C 1.1651(10) 0.4440(16) 0.539(2) 0.2900 Uiso
C4I C 1.0848(12) 0.445(3) 0.539(3) 0.2700 Uiso
N1I N 1.046(3) 0.386(3) 0.581(2) 0.4600 Uiso
C6I C 1.0026(17) 0.337(3) 0.5436(4) 0.3000 Uiso
C7I C 0.955(3) 0.276(3) 0.5828(19) 0.3000 Uiso
H1I H 0.9274 0.2461 0.5443 0.4500 Uiso
H2I H 0.9878 0.2425 0.6126 0.4500 Uiso
H3I H 0.9177 0.3008 0.6168 0.4500 Uiso
C3P C 0.8349(10) 0.4440(16) 0.461(2) 0.2900 Uiso
C4P C 0.9152(12) 0.445(3) 0.461(3) 0.2700 Uiso
N1P N 0.954(3) 0.386(3) 0.419(2) 0.4600 Uiso
C6P C 0.9974(17) 0.337(3) 0.4564(4) 0.3000 Uiso
C7P C 1.045(3) 0.276(3) 0.4172(19) 0.3000 Uiso
H1P H 1.0726 0.2461 0.4557 0.4500 Uiso
H2P H 1.0122 0.2425 0.3874 0.4500 Uiso
H3P H 1.0823 0.3008 0.3832 0.4500 Uiso
Zn1_2 Zn 0.56542(9) 1.43458(9) 0.43458(9) 0.1234 Uiso
Zn1A_2 Zn 0.43458(9) 1.43458(9) 0.56542(9) 0.1234 Uiso
Zn1A_3 Zn 1.43458(9) 0.43458(9) 0.56542(9) 0.1234 Uiso
Zn1B_2 Zn 0.43458(9) -0.43458(9) 0.43458(9) 0.1234 Uiso
Zn1B_3 Zn 1.43458(9) 0.56542(9) 0.43458(9) 0.1234 Uiso
Zn1C_2 Zn 0.56542(9) -0.43458(9) 0.56542(9) 0.1234 Uiso
O1D_2 O 0.3270(7) 0.4540(6) 0.5460(6) 0.1840 Uiso
O1G_2 O 0.3270(7) 0.5460(6) 0.4540(6) 0.1840 Uiso
O1H O 0.4540(6) 0.5460(6) 0.3270(7) 0.1840 Uiso
O1K O 0.5460(6) 0.4540(6) 0.3270(7) 0.1840 Uiso
O1M O 0.4540(6) 0.4540(6) 0.6730(7) 0.1840 Uiso
O1N O 0.5460(6) 0.5460(6) 0.6730(7) 0.1840 Uiso
loop_
_geom_bond_atom_site_label_1
_geom_bond_atom_site_label_2
_geom_bond_site_symmetry_1
_geom_bond_site_symmetry_2
Zn1 O1 1_555 1_555
O1 C1 1_555 1_555
O2 Zn1 1_555 1_555
C1 C2 1_555 1_555
C2 C3 1_555 1_555
C3 C4 1_555 1_555
C4 C5 1_555 1_555
C5 C4A 1_555 1_555
N1 C4 1_555 1_555
C6 N1 1_555 1_555
C7 C6 1_555 1_555
H1 C7 1_555 1_555
H2 C7 1_555 1_555
H3 C7 1_555 1_555
O1A C1 1_555 1_555
C3A C2 1_555 1_555
C4A C3A 1_555 1_555
N1A C4A 1_555 1_555
C6A N1A 1_555 1_555
C7A C6A 1_555 1_555
H1A C7A 1_555 1_555
H2A C7A 1_555 1_555
H3A C7A 1_555 1_555
O1B C1B 1_555 1_555
C1B C2B 1_555 1_555
C2B C3B 1_555 1_555
C3B C4B 1_555 1_555
C4B C5B 1_555 1_555
C5B C5 1_555 1_555
N1B C4B 1_555 1_555
C6B C6 1_555 1_555
C7B C6B 1_555 1_555
H1B C7B 1_555 1_555
H2B C7B 1_555 1_555
H3B C7B 1_555 1_555
O1C C1B 1_555 1_555
C3C C2B 1_555 1_555
C4C C5B 1_555 1_555
N1C C4C 1_555 1_555
C6C C6A 1_555 1_555
C7C C6C 1_555 1_555
H1C C7C 1_555 1_555
H2C C7C 1_555 1_555
H3C C7C 1_555 1_555
C3J C2 1_555 1_555
C4J C5 1_555 1_555
N1J C4A 1_555 1_555
C6J N1J 1_555 1_555
C7J C6J 1_555 1_555
H1J C7J 1_555 1_555
H2J C7J 1_555 1_555
H3J C7J 1_555 1_555
C3U C2B 1_555 1_555
C4U C3B 1_555 1_555
N1U C4B 1_555 1_555
C6U C6J 1_555 1_555
C7U C6U 1_555 1_555
H1U C7U 1_555 1_555
H2U C7U 1_555 1_555
H3U C7U 1_555 1_555
C3V C2B 1_555 1_555
C4V C5B 1_555 1_555
N1V C4C 1_555 1_555
C6V N1V 1_555 1_555
C7V C6V 1_555 1_555
H1V C7V 1_555 1_555
H2V C7V 1_555 1_555
H3V C7V 1_555 1_555
C3W C2 1_555 1_555
C4W C3 1_555 1_555
N1W C4 1_555 1_555
C6W C6V 1_555 1_555
C7W C6W 1_555 1_555
H1W C7W 1_555 1_555
H2W C7W 1_555 1_555
H3W C7W 1_555 1_555
Zn1A O2 1_555 1_555
Zn1B O2 1_555 1_555
O1B_2 Zn1B 1_555 1_555
C1B_2 O1B_2 1_555 1_555
C2B_2 C1B_2 1_555 1_555
C3B_2 C2B_2 1_555 1_555
C4B_2 C3B_2 1_555 1_555
C5B_2 C4B_2 1_555 1_555
N1B_2 C4B_2 1_555 1_555
C6B_2 N1B_2 1_555 1_555
C7B_2 C6B_2 1_555 1_555
H1B_2 C7B_2 1_555 1_555
H2B_2 C7B_2 1_555 1_555
H3B_2 C7B_2 1_555 1_555
O1C_2 C1B_2 1_555 1_555
C3C_2 C2B_2 1_555 1_555
C4C_2 C5B_2 1_555 1_555
N1C_2 C4C_2 1_555 1_555
C6C_2 N1C_2 1_555 1_555
C7C_2 C6C_2 1_555 1_555
H1C_2 C7C_2 1_555 1_555
H2C_2 C7C_2 1_555 1_555
H3C_2 C7C_2 1_555 1_555
O1_2 C1_2 1_555 1_555
C1_2 C2_2 1_555 1_555
C2_2 C3_2 1_555 1_555
C3_2 C4_2 1_555 1_555
C4_2 C5_2 1_555 1_555
C5_2 C5B_2 1_555 1_555
N1_2 C4_2 1_555 1_555
C6_2 C6B_2 1_555 1_555
C7_2 C6_2 1_555 1_555
H1_2 C7_2 1_555 1_555
H2_2 C7_2 1_555 1_555
H3_2 C7_2 1_555 1_555
O1A_2 C1_2 1_555 1_555
C3A_2 C2_2 1_555 1_555
C4A_2 C5_2 1_555 1_555
N1A_2 C4A_2 1_555 1_555
C6A_2 C6C_2 1_555 1_555
C7A_2 C6A_2 1_555 1_555
H1A_2 C7A_2 1_555 1_555
H2A_2 C7A_2 1_555 1_555
H3A_2 C7A_2 1_555 1_555
C3V_2 C2B_2 1_555 1_555
C4V_2 C5B_2 1_555 1_555
N1V_2 C4C_2 1_555 1_555
C6V_2 N1V_2 1_555 1_555
C7V_2 C6V_2 1_555 1_555
H1V_2 C7V_2 1_555 1_555
H2V_2 C7V_2 1_555 1_555
H3V_2 C7V_2 1_555 1_555
C3W_2 C2_2 1_555 1_555
C4W_2 C3_2 1_555 1_555
N1W_2 C4_2 1_555 1_555
C6W_2 C6V_2 1_555 1_555
C7W_2 C6W_2 1_555 1_555
H1W_2 C7W_2 1_555 1_555
H2W_2 C7W_2 1_555 1_555
H3W_2 C7W_2 1_555 1_555
C3J_2 C2_2 1_555 1_555
C4J_2 C5_2 1_555 1_555
N1J_2 C4A_2 1_555 1_555
C6J_2 N1J_2 1_555 1_555
C7J_2 C6J_2 1_555 1_555
H1J_2 C7J_2 1_555 1_555
H2J_2 C7J_2 1_555 1_555
H3J_2 C7J_2 1_555 1_555
C3U_2 C2B_2 1_555 1_555
C4U_2 C3B_2 1_555 1_555
N1U_2 C4B_2 1_555 1_555
C6U_2 C6J_2 1_555 1_555
C7U_2 C6U_2 1_555 1_555
H1U_2 C7U_2 1_555 1_555
H2U_2 C7U_2 1_555 1_555
H3U_2 C7U_2 1_555 1_555
Zn1C O2 1_555 1_555
O1F Zn1 1_555 1_555
C1E O1F 1_555 1_555
C2E C1E 1_555 1_555
C3F C2E 1_555 1_555
C4F C3F 1_555 1_555
C5E C4F 1_555 1_555
N1F C4F 1_555 1_555
C6F N1F 1_555 1_555
C7F C6F 1_555 1_555
H1F C7F 1_555 1_555
H2F C7F 1_555 1_555
H3F C7F 1_555 1_555
O1E Zn1C 1_555 1_555
C3E C2E 1_555 1_555
C4E C5E 1_555 1_555
N1E C4E 1_555 1_555
C6E N1E 1_555 1_555
C7E C6E 1_555 1_555
H1E C7E 1_555 1_555
H2E C7E 1_555 1_555
H3E C7E 1_555 1_555
O1G C1D 1_555 1_555
C1D C2D 1_555 1_555
C2D C3G 1_555 1_555
C3G C4G 1_555 1_555
C4G C5D 1_555 1_555
C5D C5E 1_555 1_555
N1G C4G 1_555 1_555
C6G C6F 1_555 1_555
C7G C6G 1_555 1_555
H1G C7G 1_555 1_555
H2G C7G 1_555 1_555
H3G C7G 1_555 1_555
O1D C1D 1_555 1_555
C3D C2D 1_555 1_555
C4D C5D 1_555 1_555
N1D C4D 1_555 1_555
C6D C6E 1_555 1_555
C7D C6D 1_555 1_555
H1D C7D 1_555 1_555
H2D C7D 1_555 1_555
H3D C7D 1_555 1_555
C3Q C2E 1_555 1_555
C4Q C5E 1_555 1_555
N1Q C4E 1_555 1_555
C6Q N1Q 1_555 1_555
C7Q C6Q 1_555 1_555
H1Q C7Q 1_555 1_555
H2Q C7Q 1_555 1_555
H3Q C7Q 1_555 1_555
C3O C2D 1_555 1_555
C4O C3G 1_555 1_555
N1O C4G 1_555 1_555
C6O C6Q 1_555 1_555
C7O C6O 1_555 1_555
H1O C7O 1_555 1_555
H2O C7O 1_555 1_555
H3O C7O 1_555 1_555
C3I C2D 1_555 1_555
C4I C5D 1_555 1_555
N1I C4D 1_555 1_555
C6I N1I 1_555 1_555
C7I C6I 1_555 1_555
H1I C7I 1_555 1_555
H2I C7I 1_555 1_555
H3I C7I 1_555 1_555
C3P C2E 1_555 1_555
C4P C3F 1_555 1_555
N1P C4F 1_555 1_555
C6P C6I 1_555 1_555
C7P C6P 1_555 1_555
H1P C7P 1_555 1_555
H2P C7P 1_555 1_555
H3P C7P 1_555 1_555
Zn1_2 O1_2 1_555 1_555
Zn1A_2 O1A_2 1_555 1_555
Zn1A_3 O1D 1_555 1_555
Zn1B_2 O1B 1_555 1_555
Zn1B_3 O1G 1_555 1_555
Zn1C_2 O1C 1_555 1_555
O1D_2 Zn1A 1_555 1_555
O1G_2 Zn1B 1_555 1_555
O1H Zn1B 1_555 1_555
O1K Zn1 1_555 1_555
O1M Zn1A 1_555 1_555
O1N Zn1C 1_555 1_555
C4 C3W 1_555 1_555
C5 C4W 1_555 1_555
N1 C4W 1_555 1_555
N1 N1W 1_555 1_555
O1A Zn1A 1_555 1_555
C3A C4J 1_555 1_555
C4A C3J 1_555 1_555
N1A C4J 1_555 1_555
N1A N1J 1_555 1_555
C4B C3U 1_555 1_555
C5B C4U 1_555 1_555
N1B C6B 1_555 1_555
N1B C4U 1_555 1_555
N1B N1U 1_555 1_555
C3C C4C 1_555 1_555
C3C C4V 1_555 1_555
C4C C3V 1_555 1_555
N1C C6C 1_555 1_555
N1C C4V 1_555 1_555
N1C N1V 1_555 1_555
C3J C4J 1_555 1_555
C4J N1J 1_555 1_555
C3U C4U 1_555 1_555
C4U N1U 1_555 1_555
N1U C6U 1_555 1_555
C3V C4V 1_555 1_555
C4V N1V 1_555 1_555
C3W C4W 1_555 1_555
C4W N1W 1_555 1_555
N1W C6W 1_555 1_555
C4B_2 C3U_2 1_555 1_555
C5B_2 C4U_2 1_555 1_555
N1B_2 C4U_2 1_555 1_555
N1B_2 N1U_2 1_555 1_555
O1C_2 Zn1C 1_555 1_555
C3C_2 C4C_2 1_555 1_555
C3C_2 C4V_2 1_555 1_555
C4C_2 C3V_2 1_555 1_555
N1C_2 C4V_2 1_555 1_555
N1C_2 N1V_2 1_555 1_555
C4_2 C3W_2 1_555 1_555
C5_2 C4W_2 1_555 1_555
N1_2 C6_2 1_555 1_555
N1_2 C4W_2 1_555 1_555
N1_2 N1W_2 1_555 1_555
C3A_2 C4A_2 1_555 1_555
C3A_2 C4J_2 1_555 1_555
C4A_2 C3J_2 1_555 1_555
N1A_2 C6A_2 1_555 1_555
N1A_2 C4J_2 1_555 1_555
N1A_2 N1J_2 1_555 1_555
C3V_2 C4V_2 1_555 1_555
C4V_2 N1V_2 1_555 1_555
C3W_2 C4W_2 1_555 1_555
C4W_2 N1W_2 1_555 1_555
N1W_2 C6W_2 1_555 1_555
C3J_2 C4J_2 1_555 1_555
C4J_2 N1J_2 1_555 1_555
C3U_2 C4U_2 1_555 1_555
C4U_2 N1U_2 1_555 1_555
N1U_2 C6U_2 1_555 1_555
C1E O1E 1_555 1_555
C4F C3P 1_555 1_555
C5E C4P 1_555 1_555
N1F C4P 1_555 1_555
N1F N1P 1_555 1_555
C3E C4E 1_555 1_555
C3E C4Q 1_555 1_555
C4E C3Q 1_555 1_555
N1E C4Q 1_555 1_555
N1E N1Q 1_555 1_555
C4G C3O 1_555 1_555
C5D C4O 1_555 1_555
N1G C6G 1_555 1_555
N1G C4O 1_555 1_555
N1G N1O 1_555 1_555
C3D C4D 1_555 1_555
C3D C4I 1_555 1_555
C4D C3I 1_555 1_555
N1D C6D 1_555 1_555
N1D C4I 1_555 1_555
N1D N1I 1_555 1_555
C3Q C4Q 1_555 1_555
C4Q N1Q 1_555 1_555
C3O C4O 1_555 1_555
C4O N1O 1_555 1_555
N1O C6O 1_555 1_555
C3I C4I 1_555 1_555
C4I N1I 1_555 1_555
C3P C4P 1_555 1_555
C4P N1P 1_555 1_555
N1P C6P 1_555 1_555

#END
