
#######################################################################
#
#                 Cambridge Crystallographic Data Centre
#                                CCDC 
#
#######################################################################
#
# If this CIF has been generated from an entry in the Cambridge 
# Structural Database, then it will include bibliographic, chemical, 
# crystal, experimental, refinement or atomic coordinate data resulting 
# from the CCDC's data processing and validation procedures.
#
#######################################################################

data_GOGWAB
_chemical_formula_moiety         'C11 H12 N4 O9 S2 Zn3'
_symmetry_cell_setting           tetragonal
_symmetry_space_group_name_H-M   'I -4 2 d'
_symmetry_Int_Tables_number      122
_space_group_name_Hall           'I -4 2bw'
loop_
_symmetry_equiv_pos_site_id
_symmetry_equiv_pos_as_xyz
1 x,y,z
2 -x,-y,z
3 y,-x,-z
4 -y,x,-z
5 1/2-x,y,3/4-z
6 1/2+x,-y,3/4-z
7 1/2-y,-x,3/4+z
8 1/2+y,x,3/4+z
9 1/2+x,1/2+y,1/2+z
10 1/2-x,1/2-y,1/2+z
11 1/2+y,1/2-x,1/2-z
12 1/2-y,1/2+x,1/2-z
13 -x,1/2+y,1/4-z
14 x,1/2-y,1/4-z
15 -y,1/2-x,1/4+z
16 y,1/2+x,1/4+z
_cell_length_a                   16.9560(10)
_cell_length_b                   16.9560(10)
_cell_length_c                   7.5571(8)
_cell_angle_alpha                90
_cell_angle_beta                 90
_cell_angle_gamma                90
_cell_volume                     2172.71
loop_
_atom_site_label
_atom_site_type_symbol
_atom_site_fract_x
_atom_site_fract_y
_atom_site_fract_z
C4 C 0.5296(4) 0.7500 0.6250
C5 C 0.5705(3) 0.6754(3) 0.5566(6)
H5 H 0.5394 0.6525 0.4637
H6 H 0.5759 0.6382 0.6516
H7 H 0.6217 0.6888 0.5117
O3 O 0.4586(3) 0.7500 0.6250
C5M C 0.5705(3) 0.8246(3) 0.6934(6)
H5M H 0.5394 0.8475 0.7863
H6M H 0.5759 0.8618 0.5984
H7M H 0.6217 0.8112 0.7383
Zn1 Zn 0.5000 0.5000 0.0000
C1 C 0.4528(4) 0.7500 0.1250
H1 H 0.3980 0.7500 0.1250
C2 C 0.4926(3) 0.6837(3) 0.0724(6)
C3 C 0.6180(4) 0.7500 0.1250
N1 N 0.5763(2) 0.6862(2) 0.0724(5)
O1 O 0.46389(18) 0.61992(19) 0.0166(4)
O2 O 0.5000 0.5000 -0.2689(9)
H4 H 0.5460 0.4730 -0.3113
S1 S 0.71594(11) 0.7500 0.1250
Zn1L Zn 0.5000 1.0000 0.2500
Zn1L_2 Zn 0.5000 0.0000 0.2500
C1A C 0.5472(4) 0.2500 0.1250
H1A H 0.6020 0.2500 0.1250
C2M C 0.4926(3) 0.8163(3) 0.1776(6)
C2A C 0.5074(3) 0.3163(3) 0.0724(6)
C2L C 0.5074(3) 0.1837(3) 0.1776(6)
C3A C 0.3820(4) 0.2500 0.1250
N1M N 0.5763(2) 0.8138(2) 0.1776(5)
N1A N 0.4237(2) 0.3138(2) 0.0724(5)
N1L N 0.4237(2) 0.1862(2) 0.1776(5)
O1M O 0.46389(18) 0.88008(19) 0.2334(4)
O1A O 0.53611(18) 0.38008(19) 0.0166(4)
O1L O 0.53611(18) 0.11992(19) 0.2334(4)
O1B O 0.61992(19) 0.53611(18) -0.0166(4)
O1C O 0.38008(19) 0.46389(18) -0.0166(4)
O2B O 0.5000 0.5000 0.2689(9)
H4A H 0.4540 0.5270 -0.3113
H4B H 0.4730 0.4540 0.3113
H4C H 0.5270 0.5460 0.3113
S1A S 0.28406(11) 0.2500 0.1250
loop_
_geom_bond_atom_site_label_1
_geom_bond_atom_site_label_2
_geom_bond_site_symmetry_1
_geom_bond_site_symmetry_2
Zn1 O1 1_555 1_555
C1 H1 1_555 1_555
C2 C1 1_555 1_555
C3 N1 1_555 1_555
N1 C2 1_555 1_555
O1 C2 1_555 1_555
O2 Zn1 1_555 1_555
H4 O2 1_555 1_555
S1 C3 1_555 1_555
C4 C5 1_555 1_555
C5 H5 1_555 1_555
H6 C5 1_555 1_555
H7 C5 1_555 1_555
O3 C4 1_555 1_555
Zn1L O1M 1_555 1_555
Zn1L_2 O1L 1_555 1_555
C1A H1A 1_555 1_555
C2M C1 1_555 1_555
C2A C1A 1_555 1_555
C2L C1A 1_555 1_555
C3A N1A 1_555 1_555
N1M C3 1_555 1_555
N1A C2A 1_555 1_555
N1L C2L 1_555 1_555
O1M C2M 1_555 1_555
O1A Zn1 1_555 1_555
O1L C2L 1_555 1_555
O1B Zn1 1_555 1_555
O1C Zn1 1_555 1_555
O2B Zn1 1_555 1_555
H4A O2 1_555 1_555
H4B O2B 1_555 1_555
H4C O2B 1_555 1_555
S1A C3A 1_555 1_555
C5M C4 1_555 1_555
H5M C5M 1_555 1_555
H6M C5M 1_555 1_555
H7M C5M 1_555 1_555
C2M N1M 1_555 1_555
C2A O1A 1_555 1_555
C3A N1L 1_555 1_555

#END
