
#######################################################################
#
#                 Cambridge Crystallographic Data Centre
#                                CCDC 
#
#######################################################################
#
# If this CIF has been generated from an entry in the Cambridge 
# Structural Database, then it will include bibliographic, chemical, 
# crystal, experimental, refinement or atomic coordinate data resulting 
# from the CCDC's data processing and validation procedures.
#
#######################################################################

data_GOGWEF
_chemical_formula_moiety         'C11 H12 Mn3 N4 O9 S2'
_symmetry_cell_setting           tetragonal
_symmetry_space_group_name_H-M   'I -4 2 d'
_symmetry_Int_Tables_number      122
_space_group_name_Hall           'I -4 2bw'
loop_
_symmetry_equiv_pos_site_id
_symmetry_equiv_pos_as_xyz
1 x,y,z
2 -x,-y,z
3 y,-x,-z
4 -y,x,-z
5 1/2-x,y,3/4-z
6 1/2+x,-y,3/4-z
7 1/2-y,-x,3/4+z
8 1/2+y,x,3/4+z
9 1/2+x,1/2+y,1/2+z
10 1/2-x,1/2-y,1/2+z
11 1/2+y,1/2-x,1/2-z
12 1/2-y,1/2+x,1/2-z
13 -x,1/2+y,1/4-z
14 x,1/2-y,1/4-z
15 -y,1/2-x,1/4+z
16 y,1/2+x,1/4+z
_cell_length_a                   17.094(2)
_cell_length_b                   17.094(2)
_cell_length_c                   7.6687(14)
_cell_angle_alpha                90
_cell_angle_beta                 90
_cell_angle_gamma                90
_cell_volume                     2240.83
loop_
_atom_site_label
_atom_site_type_symbol
_atom_site_fract_x
_atom_site_fract_y
_atom_site_fract_z
O3 O 0.4567(3) 0.2500 0.1250
C4 C 0.5282(5) 0.2500 0.1250
C5 C 0.5722(4) 0.3208(6) 0.0580(9)
H5 H 0.6262 0.3075 0.0415
H6 H 0.5681 0.3626 0.1412
H7 H 0.5501 0.3372 -0.0511
C5M C 0.5722(4) 0.1792(6) 0.1920(9)
H5M H 0.6262 0.1925 0.2085
H6M H 0.5681 0.1374 0.1088
H7M H 0.5501 0.1628 0.3011
Mn1 Mn 1.0000 0.0000 0.0000
N1 N 0.9263(2) 0.1871(2) 0.0746(6)
O1 O 1.03639(18) 0.12245(19) 0.0160(5)
O2 O 1.0000 -0.0000 -0.2817(7)
H3 H 1.0365 0.0384 -0.3234
S1 S 0.78750(12) 0.2500 0.1250
C1 C 0.8834(5) 0.2500 0.1250
C2 C 1.0079(3) 0.1845(3) 0.0737(7)
C3 C 1.0487(3) 0.2500 0.1250
H4 H 1.1032 0.2500 0.1250
Mn1L Mn 1.0000 0.5000 0.2500
Mn1L_2 Mn 1.0000 -0.5000 0.2500
N1M N 0.9263(2) 0.3129(2) 0.1754(6)
N1A N 1.0737(2) -0.1871(2) 0.0746(6)
N1L N 1.0737(2) -0.3129(2) 0.1754(6)
O1M O 1.03639(18) 0.37755(19) 0.2340(5)
O1A O 0.96361(18) -0.12245(19) 0.0160(5)
O1L O 0.96361(18) -0.37755(19) 0.2340(5)
O1B O 1.12245(19) -0.03639(18) -0.0160(5)
O1C O 0.87755(19) 0.03639(18) -0.0160(5)
O2B O 1.0000 0.0000 0.2817(7)
H3A H 0.9635 -0.0384 -0.3234
H3B H 1.0384 -0.0365 0.3234
H3C H 0.9616 0.0365 0.3234
S1A S 1.21250(12) -0.2500 0.1250
C1A C 1.1166(5) -0.2500 0.1250
C2M C 1.0079(3) 0.3155(3) 0.1763(7)
C2A C 0.9921(3) -0.1845(3) 0.0737(7)
C2L C 0.9921(3) -0.3155(3) 0.1763(7)
C3A C 0.9513(3) -0.2500 0.1250
H4A H 0.8968 -0.2500 0.1250
loop_
_geom_bond_atom_site_label_1
_geom_bond_atom_site_label_2
_geom_bond_site_symmetry_1
_geom_bond_site_symmetry_2
Mn1 O1 1_555 1_555
N1 C1 1_555 1_555
O1 C2 1_555 1_555
O2 Mn1 1_555 1_555
H3 O2 1_555 1_555
O3 C4 1_555 1_555
S1 C1 1_555 1_555
C1 N1M 1_555 1_555
C2 N1 1_555 1_555
C3 C2 1_555 1_555
H4 C3 1_555 1_555
C4 C5 1_555 1_555
C5 H5 1_555 1_555
H6 C5 1_555 1_555
H7 C5 1_555 1_555
Mn1L O1M 1_555 1_555
Mn1L_2 O1L 1_555 1_555
N1M C2M 1_555 1_555
N1A C1A 1_555 1_555
N1L C1A 1_555 1_555
O1M C2M 1_555 1_555
O1A Mn1 1_555 1_555
O1L C2L 1_555 1_555
O1B Mn1 1_555 1_555
O1C Mn1 1_555 1_555
O2B Mn1 1_555 1_555
H3A O2 1_555 1_555
H3B O2B 1_555 1_555
H3C O2B 1_555 1_555
S1A C1A 1_555 1_555
C2M C3 1_555 1_555
C2A N1A 1_555 1_555
C2L N1L 1_555 1_555
C3A C2A 1_555 1_555
H4A C3A 1_555 1_555
C5M C4 1_555 1_555
H5M C5M 1_555 1_555
H6M C5M 1_555 1_555
H7M C5M 1_555 1_555
O1A C2A 1_555 1_555
C2L C3A 1_555 1_555

#END
