
#######################################################################
#
#                 Cambridge Crystallographic Data Centre
#                                CCDC 
#
#######################################################################
#
# If this CIF has been generated from an entry in the Cambridge 
# Structural Database, then it will include bibliographic, chemical, 
# crystal, experimental, refinement or atomic coordinate data resulting 
# from the CCDC's data processing and validation procedures.
#
#######################################################################

data_IMIDZB10
_chemical_formula_moiety         '(C6 H6 N4 Zn1)n'
_symmetry_cell_setting           cubic
_symmetry_space_group_name_H-M   'I -4 3 m'
_symmetry_Int_Tables_number      217
_space_group_name_Hall           'I -4 2 3'
loop_
_symmetry_equiv_pos_site_id
_symmetry_equiv_pos_as_xyz
1 x,y,z
2 y,-x,-z
3 -x,-y,z
4 -y,x,-z
5 -x,z,-y
6 x,-y,-z
7 -x,-z,y
8 -z,-y,x
9 -x,y,-z
10 z,-y,-x
11 z,x,y
12 y,z,x
13 -y,-z,x
14 z,-x,-y
15 -y,z,-x
16 -z,-x,y
17 -z,x,-y
18 y,-z,-x
19 -y,-x,z
20 y,x,z
21 x,-z,-y
22 x,z,y
23 -z,y,-x
24 z,y,x
25 1/2+x,1/2+y,1/2+z
26 1/2+y,1/2-x,1/2-z
27 1/2-x,1/2-y,1/2+z
28 1/2-y,1/2+x,1/2-z
29 1/2-x,1/2+z,1/2-y
30 1/2+x,1/2-y,1/2-z
31 1/2-x,1/2-z,1/2+y
32 1/2-z,1/2-y,1/2+x
33 1/2-x,1/2+y,1/2-z
34 1/2+z,1/2-y,1/2-x
35 1/2+z,1/2+x,1/2+y
36 1/2+y,1/2+z,1/2+x
37 1/2-y,1/2-z,1/2+x
38 1/2+z,1/2-x,1/2-y
39 1/2-y,1/2+z,1/2-x
40 1/2-z,1/2-x,1/2+y
41 1/2-z,1/2+x,1/2-y
42 1/2+y,1/2-z,1/2-x
43 1/2-y,1/2-x,1/2+z
44 1/2+y,1/2+x,1/2+z
45 1/2+x,1/2-z,1/2-y
46 1/2+x,1/2+z,1/2+y
47 1/2-z,1/2+y,1/2-x
48 1/2+z,1/2+y,1/2+x
_cell_length_a                   16.8303(2)
_cell_length_b                   16.8303(2)
_cell_length_c                   16.8303(2)
_cell_angle_alpha                90
_cell_angle_beta                 90
_cell_angle_gamma                90
_cell_volume                     4767.33
loop_
_atom_site_label
_atom_site_type_symbol
_atom_site_fract_x
_atom_site_fract_y
_atom_site_fract_z
_atom_site_U_iso_or_equiv
_atom_site_thermal_displace_type
Zn1 Zn 0.5000 0.2500 0.0000 0.0517 Uani
N1 N 0.53668(10) 0.18295(10) 0.08924(11) 0.0630 Uani
C1 C 0.5039(4) 0.12063(9) 0.12063(9) 0.0583 Uani
H1 H 0.4569 0.0985 0.0985 0.0700 Uiso
C2 C 0.6083(4) 0.1825(8) 0.1263(6) 0.0983 Uani
H2 H 0.6516 0.2167 0.1143 0.1180 Uiso
N1U N 0.53668(10) 0.08924(11) 0.18295(10) 0.0630 Uani
C2U C 0.6083(4) 0.1263(6) 0.1825(8) 0.0983 Uani
H2U H 0.6516 0.1143 0.2167 0.1180 Uiso
N1D N 0.46332(10) 0.08924(11) -0.18295(10) 0.0630 Uani
C1D C 0.4961(4) 0.12063(9) -0.12063(9) 0.0583 Uani
H1D H 0.5431 0.0985 -0.0985 0.0700 Uiso
C2D C 0.3917(4) 0.1263(6) -0.1825(8) 0.0983 Uani
H2D H 0.3484 0.1143 -0.2167 0.1180 Uiso
N1H N 0.46332(10) 0.18295(10) -0.08924(11) 0.0630 Uani
C2H C 0.3917(4) 0.1825(8) -0.1263(6) 0.0983 Uani
H2H H 0.3484 0.2167 -0.1143 0.1180 Uiso
Zn1D Zn 0.5000 0.0000 -0.2500 0.0517 Uani
Zn1F Zn 0.5000 0.0000 0.2500 0.0517 Uani
N1EA N 0.41076(11) 0.31705(10) 0.03668(10) 0.0630 Uani
N1GA N 0.58924(11) 0.31705(10) -0.03668(10) 0.0630 Uani
loop_
_atom_site_aniso_label
_atom_site_aniso_U_11
_atom_site_aniso_U_22
_atom_site_aniso_U_33
_atom_site_aniso_U_23
_atom_site_aniso_U_13
_atom_site_aniso_U_12
Zn1 0.05526(19) 0.0446(2) 0.05526(19) 0.000 0.000 0.000
N1 0.0591(8) 0.0588(8) 0.0712(10) 0.0165(7) -0.0037(8) -0.0051(7)
C1 0.0650(14) 0.0550(6) 0.0550(6) 0.0005(8) -0.0016(12) -0.0016(12)
C2 0.055(3) 0.116(6) 0.124(5) 0.065(4) -0.016(3) -0.020(3)
N1U 0.0591 0.0712 0.0588 0.0165 -0.0051 -0.0037
C2U 0.055 0.124 0.116 0.065 -0.02 -0.016
N1D 0.0591 0.0712 0.0588 -0.0165 -0.0051 0.0037
C1D 0.065 0.055 0.055 -0.0005 -0.0016 0.0016
C2D 0.055 0.124 0.116 -0.065 -0.02 0.016
N1H 0.0591 0.0588 0.0712 -0.0165 -0.0037 0.0051
C2H 0.055 0.116 0.124 -0.065 -0.016 0.02
Zn1D 0.05526 0.05526 0.0446 0 0 0
Zn1F 0.05526 0.05526 0.0446 0 0 0
N1EA 0.0712 0.0588 0.0591 0.0051 0.0037 0.0165
N1GA 0.0712 0.0588 0.0591 -0.0051 0.0037 -0.0165
loop_
_geom_bond_atom_site_label_1
_geom_bond_atom_site_label_2
_geom_bond_site_symmetry_1
_geom_bond_site_symmetry_2
Zn1 N1 1_555 1_555
N1 C1 1_555 1_555
C1 H1 1_555 1_555
C2 N1 1_555 1_555
H2 C2 1_555 1_555
N1U C1 1_555 1_555
C2U C2 1_555 1_555
H2U C2U 1_555 1_555
N1D C1D 1_555 1_555
C1D H1D 1_555 1_555
C2D N1D 1_555 1_555
H2D C2D 1_555 1_555
N1H Zn1 1_555 1_555
C2H C2D 1_555 1_555
H2H C2H 1_555 1_555
Zn1D N1D 1_555 1_555
Zn1F N1U 1_555 1_555
N1EA Zn1 1_555 1_555
N1GA Zn1 1_555 1_555
N1U C2U 1_555 1_555
C1D N1H 1_555 1_555
N1H C2H 1_555 1_555

#END
