
#######################################################################
#
#                 Cambridge Crystallographic Data Centre
#                                CCDC 
#
#######################################################################
#
# If this CIF has been generated from an entry in the Cambridge 
# Structural Database, then it will include bibliographic, chemical, 
# crystal, experimental, refinement or atomic coordinate data resulting 
# from the CCDC's data processing and validation procedures.
#
#######################################################################

data_BIRGIU
_chemical_formula_moiety         '(C56 H104 Br10 Mn6 N10 O18 2+)n'
_symmetry_cell_setting           monoclinic
_symmetry_space_group_name_H-M   'P 21/n'
_symmetry_Int_Tables_number      14
_space_group_name_Hall           '-P 2yn'
loop_
_symmetry_equiv_pos_site_id
_symmetry_equiv_pos_as_xyz
1 x,y,z
2 1/2-x,1/2+y,1/2-z
3 -x,-y,-z
4 1/2+x,1/2-y,1/2+z
_cell_length_a                   16.342(8)
_cell_length_b                   16.809(8)
_cell_length_c                   19.303(9)
_cell_angle_alpha                90
_cell_angle_beta                 104.780(7)
_cell_angle_gamma                90
_cell_volume                     5126.95
loop_
_atom_site_label
_atom_site_type_symbol
_atom_site_fract_x
_atom_site_fract_y
_atom_site_fract_z
Mn1 Mn 1.0000 0.0000 0.0000
Mn2 Mn 0.86684(7) -0.10788(6) 0.05305(6)
Mn3 Mn 0.5000 -0.5000 0.0000
Mn4 Mn 0.58807(6) -0.35065(6) -0.05577(6)
Br1 Br 0.88626(5) 0.21338(5) 0.21333(5)
Br2 Br 0.87217(5) -0.54306(6) 0.14689(6)
Br3 Br 0.77801(7) -0.09027(5) 0.14514(6)
Br4 Br 0.53915(5) -0.22793(5) -0.13749(6)
O1 O 0.9342(3) 0.0065(2) 0.0678(3)
O2 O 1.0497(3) 0.1017(2) 0.0213(3)
O3 O 0.6090(2) -0.4562(2) 0.0174(2)
O4 O 0.5303(3) -0.5820(2) 0.0686(3)
O5 O 0.9753(4) -0.1636(3) 0.1300(3)
O6 O 0.7686(3) -0.0485(3) -0.0333(3)
O7 O 0.5542(3) -0.2861(3) 0.0332(4)
O8 O 0.6135(4) -0.4294(4) -0.1390(3)
N1 N 1.1187(4) 0.1663(3) 0.1966(3)
N2 N 0.7229(4) -0.4299(4) 0.1958(3)
N3 N 0.8236(4) -0.2230(3) 0.0076(4)
N4 N 0.7696(4) -0.2704(3) -0.0029(3)
N5 N 0.7207(4) -0.3221(4) -0.0143(4)
C1 C 0.9743(4) 0.1443(4) 0.1116(4)
C2 C 0.9337(5) 0.2204(4) 0.1293(4)
H1 H 0.8888 0.2356 0.0880
H2 H 0.9759 0.2624 0.1377
C3 C 0.9064(4) 0.0777(4) 0.0915(4)
H3 H 0.8854 0.0664 0.1332
H4 H 0.8592 0.0977 0.0543
C4 C 1.0068(4) 0.1658(4) 0.0456(4)
H5 H 0.9593 0.1822 0.0069
H6 H 1.0452 0.2107 0.0576
C5 C 1.0453(4) 0.1108(4) 0.1743(4)
H7 H 1.0221 0.1006 0.2150
H8 H 1.0649 0.0605 0.1597
C6 C 1.1819(5) 0.1616(5) 0.1630(5)
H9 H 1.1800 0.1229 0.1282
C7 C 1.2501(5) 0.2149(6) 0.1806(5)
H10 H 1.2933 0.2132 0.1572
C8 C 1.2510(7) 0.2699(7) 0.2337(7)
H11 H 1.2955 0.3060 0.2465
C9 C 1.1862(7) 0.2722(6) 0.2685(6)
H12 H 1.1881 0.3088 0.3050
C10 C 1.1208(6) 0.2213(5) 0.2490(5)
H13 H 1.0767 0.2236 0.2714
C11 C 0.6827(4) -0.5492(4) 0.1121(4)
C12 C 0.7654(4) -0.5988(5) 0.1367(5)
H14 H 0.7629 -0.6417 0.1025
H15 H 0.7661 -0.6230 0.1824
C13 C 0.6845(4) -0.5013(4) 0.0437(4)
H16 H 0.7327 -0.4656 0.0544
H17 H 0.6915 -0.5378 0.0067
C14 C 0.6133(4) -0.6133(4) 0.0927(5)
H18 H 0.6247 -0.6471 0.0556
H19 H 0.6161 -0.6462 0.1345
C15 C 0.6638(4) -0.4987(4) 0.1723(4)
H20 H 0.6065 -0.4783 0.1563
H21 H 0.6661 -0.5327 0.2133
C16 C 0.7860(5) -0.4362(5) 0.2547(5)
H22 H 0.7919 -0.4830 0.2812
C17 C 0.8432(5) -0.3747(6) 0.2775(5)
H23 H 0.8880 -0.3799 0.3180
C18 C 0.8310(5) -0.3047(6) 0.2373(5)
H24 H 0.8670 -0.2616 0.2516
C19 C 0.7644(5) -0.2997(5) 0.1757(5)
H25 H 0.7555 -0.2539 0.1478
C20 C 0.7131(5) -0.3639(4) 0.1579(4)
H26 H 0.6688 -0.3611 0.1167
C21 C 0.9961(10) -0.2478(10) 0.1419(9)
H27 H 1.0476 -0.2532 0.1790
H28 H 1.0033 -0.2711 0.0985
H29 H 0.9510 -0.2744 0.1561
C22 C 0.6813(8) -0.0464(8) -0.0466(7)
H30 H 0.6583 -0.0147 -0.0884
H31 H 0.6658 -0.0236 -0.0061
H32 H 0.6592 -0.0995 -0.0544
C23 C 0.5621(7) -0.2061(7) 0.0573(6)
H33 H 0.5390 -0.2009 0.0981
H34 H 0.5318 -0.1719 0.0195
H35 H 0.6208 -0.1914 0.0705
C24 C 0.5630(13) -0.4219(8) -0.2125(8)
H36 H 0.5837 -0.4581 -0.2425
H37 H 0.5669 -0.3684 -0.2288
H38 H 0.5050 -0.4341 -0.2147
Mn2B Mn 0.13316(7) -0.89212(6) -0.05305(6)
Mn4B Mn 0.41193(6) -0.64935(6) 0.05577(6)
Br1B Br 0.11374(5) -1.21338(5) -0.21333(5)
Br2B Br 0.12783(5) -0.45694(6) -0.14689(6)
Br3B Br 0.22199(7) -0.90973(5) -0.14514(6)
Br4B Br 0.46085(5) -0.77207(5) 0.13749(6)
O1B O 0.0658(3) -1.0065(2) -0.0678(3)
O2B O -0.0497(3) -1.1017(2) -0.0213(3)
O3B O 0.3910(2) -0.5438(2) -0.0174(2)
O4B O 0.4697(3) -0.4180(2) -0.0686(3)
O5B O 0.0247(4) -0.8364(3) -0.1300(3)
O6B O 0.2314(3) -0.9515(3) 0.0333(3)
O7B O 0.4458(3) -0.7139(3) -0.0332(4)
O8B O 0.3865(4) -0.5706(4) 0.1390(3)
N1B N -0.1187(4) -1.1663(3) -0.1966(3)
N2B N 0.2771(4) -0.5701(4) -0.1958(3)
N3B N 0.1764(4) -0.7770(3) -0.0076(4)
N4B N 0.2304(4) -0.7296(3) 0.0029(3)
N5B N 0.2793(4) -0.6779(4) 0.0143(4)
C1B C 0.0257(4) -1.1443(4) -0.1116(4)
C2B C 0.0663(5) -1.2204(4) -0.1293(4)
H1B H 0.1112 -1.2356 -0.0880
H2B H 0.0241 -1.2624 -0.1377
C3B C 0.0936(4) -1.0777(4) -0.0915(4)
H3B H 0.1146 -1.0664 -0.1332
H4B H 0.1408 -1.0977 -0.0543
C4B C -0.0068(4) -1.1658(4) -0.0456(4)
H5B H 0.0407 -1.1822 -0.0069
H6B H -0.0452 -1.2107 -0.0576
C5B C -0.0453(4) -1.1108(4) -0.1743(4)
H7B H -0.0221 -1.1006 -0.2150
H8B H -0.0649 -1.0605 -0.1597
C6B C -0.1819(5) -1.1616(5) -0.1630(5)
H9B H -0.1800 -1.1229 -0.1282
C7B C -0.2501(5) -1.2149(6) -0.1806(5)
H10B H -0.2933 -1.2132 -0.1572
C8B C -0.2510(7) -1.2699(7) -0.2337(7)
H11B H -0.2955 -1.3060 -0.2465
C9B C -0.1862(7) -1.2722(6) -0.2685(6)
H12B H -0.1881 -1.3088 -0.3050
C10B C -0.1208(6) -1.2213(5) -0.2490(5)
H13B H -0.0767 -1.2236 -0.2714
C11B C 0.3173(4) -0.4508(4) -0.1121(4)
C12B C 0.2346(4) -0.4012(5) -0.1367(5)
H14B H 0.2371 -0.3583 -0.1025
H15B H 0.2339 -0.3770 -0.1824
C13B C 0.3155(4) -0.4987(4) -0.0437(4)
H16B H 0.2673 -0.5344 -0.0544
H17B H 0.3085 -0.4622 -0.0067
C14B C 0.3867(4) -0.3867(4) -0.0927(5)
H18B H 0.3753 -0.3529 -0.0556
H19B H 0.3839 -0.3538 -0.1345
C15B C 0.3362(4) -0.5013(4) -0.1723(4)
H20B H 0.3935 -0.5217 -0.1563
H21B H 0.3339 -0.4673 -0.2133
C16B C 0.2140(5) -0.5638(5) -0.2547(5)
H22B H 0.2081 -0.5170 -0.2812
C17B C 0.1568(5) -0.6253(6) -0.2775(5)
H23B H 0.1120 -0.6201 -0.3180
C18B C 0.1690(5) -0.6953(6) -0.2373(5)
H24B H 0.1330 -0.7384 -0.2516
C19B C 0.2356(5) -0.7003(5) -0.1757(5)
H25B H 0.2445 -0.7461 -0.1478
C20B C 0.2869(5) -0.6361(4) -0.1579(4)
H26B H 0.3312 -0.6389 -0.1167
C21B C 0.0039(10) -0.7522(10) -0.1419(9)
H27B H -0.0476 -0.7468 -0.1790
H28B H -0.0033 -0.7289 -0.0985
H29B H 0.0490 -0.7256 -0.1561
C22B C 0.3187(8) -0.9536(8) 0.0466(7)
H30B H 0.3417 -0.9853 0.0884
H31B H 0.3342 -0.9764 0.0061
H32B H 0.3408 -0.9005 0.0544
C23B C 0.4379(7) -0.7939(7) -0.0573(6)
H33B H 0.4610 -0.7991 -0.0981
H34B H 0.4682 -0.8281 -0.0195
H35B H 0.3792 -0.8086 -0.0705
C24B C 0.4370(13) -0.5781(8) 0.2125(8)
H36B H 0.4163 -0.5419 0.2425
H37B H 0.4331 -0.6316 0.2288
H38B H 0.4950 -0.5659 0.2147
Mn1_2 Mn -0.0000 -1.0000 0.0000
Mn2_2 Mn -0.13316(7) -1.10788(6) 0.05305(6)
Mn2B_2 Mn 1.13316(7) 0.10788(6) -0.05305(6)
O1B_2 O 1.0658(3) -0.0065(2) -0.0678(3)
O2_2 O 0.0497(3) -0.8983(2) 0.0213(3)
O2B_2 O 0.9503(3) -0.1017(2) -0.0213(3)
Br6 Br 0.14823(5) 0.92250(4) 0.11475(5)
Br7 Br 1.05118(12) 0.10607(10) 0.38653(10)
O9 O 0.2453(6) 0.7338(6) 0.0042(6)
C27 C 0.3044(7) 0.7974(7) 0.0180(9)
H45 H 0.3570 0.7785 0.0494
H46 H 0.2827 0.8394 0.0429
C28 C 0.3216(9) 0.8298(7) -0.0455(10)
H47 H 0.3625 0.8717 -0.0326
H48 H 0.2703 0.8506 -0.0761
H49 H 0.3434 0.7887 -0.0703
C29 C 0.2148(9) 0.7005(8) 0.0588(7)
H50 H 0.2622 0.6767 0.0934
H51 H 0.1932 0.7431 0.0829
C30 C 0.1528(10) 0.6441(8) 0.0392(8)
H52 H 0.1342 0.6282 0.0804
H53 H 0.1749 0.5988 0.0197
H54 H 0.1060 0.6659 0.0037
O10 O 1.1020(15) -0.5284(14) 0.1401(17)
C31 C 1.098(2) -0.5296(18) 0.213(2)
H55 H 1.0471 -0.5558 0.2181
H56 H 1.1469 -0.5567 0.2431
C32 C 1.098(2) -0.4503(18) 0.231(3)
H57 H 1.0936 -0.4453 0.2794
H58 H 1.0507 -0.4244 0.1993
H59 H 1.1496 -0.4260 0.2266
C33 C 1.085(2) -0.5976(19) 0.097(2)
H60 H 1.1297 -0.6357 0.1165
H61 H 1.0328 -0.6204 0.1028
C34 C 1.079(2) -0.591(2) 0.026(2)
H62 H 1.0599 -0.6404 0.0026
H63 H 1.1329 -0.5772 0.0185
H64 H 1.0385 -0.5498 0.0061
loop_
_geom_bond_atom_site_label_1
_geom_bond_atom_site_label_2
_geom_bond_site_symmetry_1
_geom_bond_site_symmetry_2
Mn1 O1 1_555 1_555
Mn2 Br3 1_555 1_555
Mn3 O3 1_555 1_555
Mn4 Br4 1_555 1_555
Br1 C2 1_555 1_555
Br2 C12 1_555 1_555
O1 Mn2 1_555 1_555
O2 Mn1 1_555 1_555
O3 Mn4 1_555 1_555
O4 Mn3 1_555 1_555
O5 Mn2 1_555 1_555
O6 Mn2 1_555 1_555
O7 Mn4 1_555 1_555
O8 Mn4 1_555 1_555
N1 C5 1_555 1_555
N2 C15 1_555 1_555
N3 Mn2 1_555 1_555
N4 N3 1_555 1_555
N5 Mn4 1_555 1_555
C1 C2 1_555 1_555
C2 H1 1_555 1_555
H2 C2 1_555 1_555
C3 O1 1_555 1_555
H3 C3 1_555 1_555
H4 C3 1_555 1_555
C4 O2 1_555 1_555
H5 C4 1_555 1_555
H6 C4 1_555 1_555
C5 C1 1_555 1_555
H7 C5 1_555 1_555
H8 C5 1_555 1_555
C6 N1 1_555 1_555
H9 C6 1_555 1_555
C7 C6 1_555 1_555
H10 C7 1_555 1_555
C8 C7 1_555 1_555
H11 C8 1_555 1_555
C9 C8 1_555 1_555
H12 C9 1_555 1_555
C10 N1 1_555 1_555
H13 C10 1_555 1_555
C11 C12 1_555 1_555
C12 H14 1_555 1_555
H15 C12 1_555 1_555
C13 O3 1_555 1_555
H16 C13 1_555 1_555
H17 C13 1_555 1_555
C14 O4 1_555 1_555
H18 C14 1_555 1_555
H19 C14 1_555 1_555
C15 C11 1_555 1_555
H20 C15 1_555 1_555
H21 C15 1_555 1_555
C16 N2 1_555 1_555
H22 C16 1_555 1_555
C17 C16 1_555 1_555
H23 C17 1_555 1_555
C18 C17 1_555 1_555
H24 C18 1_555 1_555
C19 C18 1_555 1_555
H25 C19 1_555 1_555
C20 N2 1_555 1_555
H26 C20 1_555 1_555
C21 O5 1_555 1_555
H27 C21 1_555 1_555
H28 C21 1_555 1_555
H29 C21 1_555 1_555
C22 O6 1_555 1_555
H30 C22 1_555 1_555
H31 C22 1_555 1_555
H32 C22 1_555 1_555
C23 O7 1_555 1_555
H33 C23 1_555 1_555
H34 C23 1_555 1_555
H35 C23 1_555 1_555
C24 O8 1_555 1_555
H36 C24 1_555 1_555
H37 C24 1_555 1_555
H38 C24 1_555 1_555
O9 C27 1_555 1_555
C27 H45 1_555 1_555
H46 C27 1_555 1_555
C28 C27 1_555 1_555
H47 C28 1_555 1_555
H48 C28 1_555 1_555
H49 C28 1_555 1_555
C29 O9 1_555 1_555
H50 C29 1_555 1_555
H51 C29 1_555 1_555
C30 C29 1_555 1_555
H52 C30 1_555 1_555
H53 C30 1_555 1_555
H54 C30 1_555 1_555
O10 C31 1_555 1_555
C31 H55 1_555 1_555
H56 C31 1_555 1_555
C32 C31 1_555 1_555
H57 C32 1_555 1_555
H58 C32 1_555 1_555
H59 C32 1_555 1_555
C33 O10 1_555 1_555
H60 C33 1_555 1_555
H61 C33 1_555 1_555
C34 C33 1_555 1_555
H62 C34 1_555 1_555
H63 C34 1_555 1_555
H64 C34 1_555 1_555
Mn2B Br3B 1_555 1_555
Mn4B O4 1_555 1_555
Br1B C2B 1_555 1_555
Br2B C12B 1_555 1_555
Br4B Mn4B 1_555 1_555
O1B Mn2B 1_555 1_555
O2B C4B 1_555 1_555
O3B Mn3 1_555 1_555
O4B Mn3 1_555 1_555
O5B Mn2B 1_555 1_555
O6B Mn2B 1_555 1_555
O7B Mn4B 1_555 1_555
O8B Mn4B 1_555 1_555
N1B C5B 1_555 1_555
N2B C15B 1_555 1_555
N3B Mn2B 1_555 1_555
N4B N3B 1_555 1_555
N5B Mn4B 1_555 1_555
C1B C2B 1_555 1_555
C2B H1B 1_555 1_555
H2B C2B 1_555 1_555
C3B O1B 1_555 1_555
H3B C3B 1_555 1_555
H4B C3B 1_555 1_555
C4B C1B 1_555 1_555
H5B C4B 1_555 1_555
H6B C4B 1_555 1_555
C5B C1B 1_555 1_555
H7B C5B 1_555 1_555
H8B C5B 1_555 1_555
C6B N1B 1_555 1_555
H9B C6B 1_555 1_555
C7B C6B 1_555 1_555
H10B C7B 1_555 1_555
C8B C7B 1_555 1_555
H11B C8B 1_555 1_555
C9B C8B 1_555 1_555
H12B C9B 1_555 1_555
C10B N1B 1_555 1_555
H13B C10B 1_555 1_555
C11B C12B 1_555 1_555
C12B H14B 1_555 1_555
H15B C12B 1_555 1_555
C13B O3B 1_555 1_555
H16B C13B 1_555 1_555
H17B C13B 1_555 1_555
C14B O4B 1_555 1_555
H18B C14B 1_555 1_555
H19B C14B 1_555 1_555
C15B C11B 1_555 1_555
H20B C15B 1_555 1_555
H21B C15B 1_555 1_555
C16B N2B 1_555 1_555
H22B C16B 1_555 1_555
C17B C16B 1_555 1_555
H23B C17B 1_555 1_555
C18B C17B 1_555 1_555
H24B C18B 1_555 1_555
C19B C18B 1_555 1_555
H25B C19B 1_555 1_555
C20B N2B 1_555 1_555
H26B C20B 1_555 1_555
C21B O5B 1_555 1_555
H27B C21B 1_555 1_555
H28B C21B 1_555 1_555
H29B C21B 1_555 1_555
C22B O6B 1_555 1_555
H30B C22B 1_555 1_555
H31B C22B 1_555 1_555
H32B C22B 1_555 1_555
C23B O7B 1_555 1_555
H33B C23B 1_555 1_555
H34B C23B 1_555 1_555
H35B C23B 1_555 1_555
C24B O8B 1_555 1_555
H36B C24B 1_555 1_555
H37B C24B 1_555 1_555
H38B C24B 1_555 1_555
Mn1_2 O1B 1_555 1_555
Mn2_2 O2B 1_555 1_555
Mn2B_2 O2 1_555 1_555
O1B_2 Mn1 1_555 1_555
O2_2 Mn2B 1_555 1_555
O2B_2 Mn1 1_555 1_555
Mn2 O2B_2 1_555 1_555
Mn4 O4B 1_555 1_555
N4 N5 1_555 1_555
C1 C3 1_555 1_555
C1 C4 1_555 1_555
C9 C10 1_555 1_555
C11 C13 1_555 1_555
C11 C14 1_555 1_555
C19 C20 1_555 1_555
Mn4B O3B 1_555 1_555
O2B Mn1_2 1_555 1_555
N4B N5B 1_555 1_555
C1B C3B 1_555 1_555
C9B C10B 1_555 1_555
C11B C13B 1_555 1_555
C11B C14B 1_555 1_555
C19B C20B 1_555 1_555
Mn1_2 O2_2 1_555 1_555
Mn2B_2 O1B_2 1_555 1_555

#END
