
#######################################################################
#
#                 Cambridge Crystallographic Data Centre
#                                CCDC 
#
#######################################################################
#
# If this CIF has been generated from an entry in the Cambridge 
# Structural Database, then it will include bibliographic, chemical, 
# crystal, experimental, refinement or atomic coordinate data resulting 
# from the CCDC's data processing and validation procedures.
#
#######################################################################

data_CEHPIP
_chemical_formula_moiety         '(C60 H72 Cu4 N4 O22)n'
_symmetry_cell_setting           triclinic
_symmetry_space_group_name_H-M   'P -1'
_symmetry_Int_Tables_number      2
_space_group_name_Hall           '-P 1'
loop_
_symmetry_equiv_pos_site_id
_symmetry_equiv_pos_as_xyz
1 x,y,z
2 -x,-y,-z
_cell_length_a                   10.804(2)
_cell_length_b                   10.741(3)
_cell_length_c                   14.050(4)
_cell_angle_alpha                87.357(11)
_cell_angle_beta                 88.031(12)
_cell_angle_gamma                68.716(16)
_cell_volume                     1517.35
loop_
_atom_site_label
_atom_site_type_symbol
_atom_site_fract_x
_atom_site_fract_y
_atom_site_fract_z
C1 C 0.3632(10) 0.1801(10) 0.9833(6)
H1 H 0.4419 0.1310 0.9491
C2 C 0.3659(10) 0.1750(10) 1.0825(6)
H2 H 0.4443 0.1216 1.1147
C3 C 0.1400(10) 0.3249(10) 1.0828(6)
H3 H 0.0607 0.3772 1.1151
C4 C 0.1443(10) 0.3236(10) 0.9840(6)
H4 H 0.0667 0.3757 0.9503
Cu1 Cu 0.25143(9) 0.25127(9) 0.78033(6)
Cu2 Cu 0.24381(9) 0.24522(10) 0.59470(6)
O1 O 0.1982(6) 0.4475(6) 0.7577(4)
O2 O 0.2154(6) 0.4354(6) 0.5994(4)
O3 O 0.4384(5) 0.2319(6) 0.7595(4)
O4 O 0.4384(5) 0.2000(6) 0.6036(4)
O5 O 0.3028(6) 1.0538(6) 0.7727(4)
O6 O 0.2693(6) 1.0549(6) 0.6167(4)
O7 O 1.0643(5) 0.2661(6) 0.7758(4)
O8 O 1.0507(5) 0.2877(6) 0.6171(4)
N1 N 0.2456(7) 0.2468(7) 1.4419(4)
N2 N 0.2536(7) 0.2517(7) 0.9337(5)
C5 C 0.2038(8) 0.4977(8) 0.6756(5)
C6 C 0.1982(8) 0.6402(8) 0.6639(6)
H5 H 0.1376 0.6843 0.6100
C7 C 0.1463(9) 0.7238(9) 0.7526(6)
H6 H 0.0525 0.7339 0.7653
H7 H 0.1987 0.6775 0.8088
C8 C 0.1546(8) 0.8624(8) 0.7365(6)
H8 H 0.0931 0.9120 0.6854
H9 H 0.1256 0.9129 0.7956
C9 C 0.2953(8) 0.8557(8) 0.7090(5)
H10 H 0.3556 0.8098 0.7626
C10 C 0.3439(8) 0.7748(9) 0.6210(6)
H11 H 0.4368 0.7663 0.6064
H12 H 0.2890 0.8218 0.5661
C11 C 0.3379(8) 0.6355(8) 0.6355(6)
H13 H 0.4010 0.5851 0.6855
H14 H 0.3658 0.5870 0.5756
C12 C 0.2910(8) 0.9989(8) 0.6981(6)
C13 C 0.4926(8) 0.2093(8) 0.6782(5)
C14 C 0.6364(8) 0.1984(8) 0.6682(5)
H15 H 0.6818 0.1302 0.6199
C15 C 0.6398(8) 0.3333(9) 0.6310(6)
H16 H 0.5923 0.4029 0.6768
H17 H 0.5924 0.3575 0.5699
C16 C 0.7816(8) 0.3291(9) 0.6156(6)
H18 H 0.8269 0.2652 0.5657
H19 H 0.7790 0.4188 0.5934
C17 C 0.8593(8) 0.2886(9) 0.7075(6)
H20 H 0.8132 0.3572 0.7554
C18 C 0.8547(8) 0.1537(8) 0.7461(6)
H21 H 0.9039 0.0827 0.7017
H22 H 0.8992 0.1309 0.8083
C19 C 0.7130(8) 0.1574(9) 0.7595(6)
H23 H 0.7145 0.0678 0.7810
H24 H 0.6668 0.2211 0.8093
C20 C 1.0015(8) 0.2817(8) 0.6987(5)
C21 C 0.1562(8) 0.3438(8) 1.3902(5)
H25 H 0.0886 0.4115 1.4234
C22 C 0.1565(8) 0.3513(8) 1.2920(5)
H26 H 0.0930 0.4252 1.2595
C23 C 0.2503(8) 0.2512(9) 1.2413(6)
C24 C 0.3443(8) 0.1485(8) 1.2928(5)
H27 H 0.4127 0.0798 1.2609
C25 C 0.3371(8) 0.1481(8) 1.3929(5)
H28 H 0.3987 0.0752 1.4276
C26 C 0.2515(8) 0.2497(9) 1.1346(6)
C1_2 C 0.3632(10) 0.1801(10) -0.0167(6)
H1_2 H 0.4419 0.1310 -0.0509
C2_2 C 0.3659(10) 0.1750(10) 0.0825(6)
H2_2 H 0.4443 0.1216 0.1147
C3_2 C 0.1400(10) 0.3249(10) 0.0828(6)
H3_2 H 0.0607 0.3772 0.1151
C4_2 C 0.1443(10) 0.3236(10) -0.0160(6)
H4_2 H 0.0667 0.3757 -0.0497
Cu1_2 Cu 0.25143(9) -0.74873(9) 0.78033(6)
Cu1_3 Cu 0.25143(9) 1.25127(9) 0.78033(6)
Cu1_4 Cu 1.25143(9) 0.25127(9) 0.78033(6)
Cu1_5 Cu -0.74857(9) 0.25127(9) 0.78033(6)
Cu1_6 Cu 0.25143(9) 0.25127(9) -0.21967(6)
Cu2_2 Cu 0.24381(9) -0.75478(10) 0.59470(6)
Cu2_3 Cu 0.24381(9) 1.24522(10) 0.59470(6)
Cu2_4 Cu 1.24381(9) 0.24522(10) 0.59470(6)
Cu2_5 Cu 0.24381(9) 0.24522(10) 1.59470(6)
Cu2_6 Cu -0.75619(9) 0.24522(10) 0.59470(6)
O1_2 O 0.1982(6) -0.5525(6) 0.7577(4)
O2_2 O 0.2154(6) -0.5646(6) 0.5994(4)
O3_2 O -0.5616(5) 0.2319(6) 0.7595(4)
O3_3 O 0.4384(5) -0.7681(6) 0.7595(4)
O4_2 O -0.5616(5) 0.2000(6) 0.6036(4)
O4_3 O 0.4384(5) -0.8000(6) 0.6036(4)
O5_2 O 0.3028(6) 0.0538(6) 0.7727(4)
O5_3 O 0.3028(6) -0.9462(6) 0.7727(4)
O6_2 O 0.2693(6) 0.0549(6) 0.6167(4)
O6_3 O 0.2693(6) -0.9451(6) 0.6167(4)
O7_2 O 0.0643(5) 0.2661(6) 0.7758(4)
O7_3 O 0.0643(5) -0.7339(6) 0.7758(4)
O8_2 O 0.0507(5) 0.2877(6) 0.6171(4)
O8_3 O 0.0507(5) -0.7123(6) 0.6171(4)
N1_2 N 0.2456(7) 0.2468(7) 0.4419(4)
N1_3 N 0.2456(7) -0.7532(7) 0.4419(4)
N2_2 N 0.2536(7) 0.2517(7) -0.0663(5)
N2_3 N 0.2536(7) -0.7483(7) 0.9337(5)
C5_2 C 0.2038(8) -0.5023(8) 0.6756(5)
C6_2 C 0.1982(8) -0.3598(8) 0.6639(6)
H5_2 H 0.1376 -0.3157 0.6100
C7_2 C 0.1463(9) -0.2762(9) 0.7526(6)
H6_2 H 0.0525 -0.2661 0.7653
H7_2 H 0.1987 -0.3225 0.8088
C8_2 C 0.1546(8) -0.1376(8) 0.7365(6)
H8_2 H 0.0931 -0.0880 0.6854
H9_2 H 0.1256 -0.0871 0.7956
C9_2 C 0.2953(8) -0.1443(8) 0.7090(5)
H10_2 H 0.3556 -0.1902 0.7626
C10_2 C 0.3439(8) -0.2252(9) 0.6210(6)
H11_2 H 0.4368 -0.2337 0.6064
H12_2 H 0.2890 -0.1782 0.5661
C11_2 C 0.3379(8) -0.3645(8) 0.6355(6)
H13_2 H 0.4010 -0.4149 0.6855
H14_2 H 0.3658 -0.4130 0.5756
C12_2 C 0.2910(8) -0.0011(8) 0.6981(6)
C13_2 C -0.5074(8) 0.2093(8) 0.6782(5)
C14_2 C -0.3636(8) 0.1984(8) 0.6682(5)
H15_2 H -0.3182 0.1302 0.6199
C15_2 C -0.3602(8) 0.3333(9) 0.6310(6)
H16_2 H -0.4077 0.4029 0.6768
H17_2 H -0.4076 0.3575 0.5699
C16_2 C -0.2184(8) 0.3291(9) 0.6156(6)
H18_2 H -0.1731 0.2652 0.5657
H19_2 H -0.2210 0.4188 0.5934
C17_2 C -0.1407(8) 0.2886(9) 0.7075(6)
H20_2 H -0.1868 0.3572 0.7554
C18_2 C -0.1453(8) 0.1537(8) 0.7461(6)
H21_2 H -0.0961 0.0827 0.7017
H22_2 H -0.1008 0.1309 0.8083
C19_2 C -0.2870(8) 0.1574(9) 0.7595(6)
H23_2 H -0.2855 0.0678 0.7810
H24_2 H -0.3332 0.2211 0.8093
C20_2 C 0.0015(8) 0.2817(8) 0.6987(5)
C21_2 C 0.1562(8) 0.3438(8) 0.3902(5)
H25_2 H 0.0886 0.4115 0.4234
C22_2 C 0.1565(8) 0.3513(8) 0.2920(5)
H26_2 H 0.0930 0.4252 0.2595
C23_2 C 0.2503(8) 0.2512(9) 0.2413(6)
C24_2 C 0.3443(8) 0.1485(8) 0.2928(5)
H27_2 H 0.4127 0.0798 0.2609
C25_2 C 0.3371(8) 0.1481(8) 0.3929(5)
H28_2 H 0.3987 0.0752 0.4276
C26_2 C 0.2515(8) 0.2497(9) 0.1346(6)
O9 O 0.7034(7) 0.1312(7) 0.0212(5)
H29 H 0.7771 0.0676 0.0230
O10 O 0.8302(7) 0.2560(7) -0.0052(5)
C27 C 0.7226(10) 0.2445(10) 0.0004(6)
C28 C 0.5929(9) 0.3639(9) -0.0121(6)
H30 H 0.5332 0.3331 -0.0497
C29 C 0.5235(9) 0.4065(9) 0.0812(6)
H31 H 0.5801 0.4370 0.1211
H32 H 0.5109 0.3288 0.1148
C30 C 0.6089(9) 0.4810(9) -0.0703(6)
H33 H 0.6695 0.5137 -0.0366
H34 H 0.6489 0.4512 -0.1336
O9A O 0.2966(7) 0.8688(7) -0.0212(5)
H29A H 0.2229 0.9324 -0.0230
O10A O 0.1698(7) 0.7440(7) 0.0052(5)
C27A C 0.2774(10) 0.7555(10) -0.0004(6)
C28A C 0.4071(9) 0.6361(9) 0.0121(6)
H30A H 0.4668 0.6669 0.0497
C29A C 0.4765(9) 0.5935(9) -0.0812(6)
H31A H 0.4199 0.5630 -0.1211
H32A H 0.4891 0.6712 -0.1148
C30A C 0.3911(9) 0.5190(9) 0.0703(6)
H33A H 0.3305 0.4863 0.0366
H34A H 0.3511 0.5488 0.1336
O11 O 0.9234(6) -0.0724(6) 0.0590(4)
O12 O 1.074(3) 0.063(3) 0.4682(19)
loop_
_geom_bond_atom_site_label_1
_geom_bond_atom_site_label_2
_geom_bond_site_symmetry_1
_geom_bond_site_symmetry_2
C1 H1 1_555 1_555
C2 C1 1_555 1_555
H2 C2 1_555 1_555
C3 H3 1_555 1_555
C4 C3 1_555 1_555
H4 C4 1_555 1_555
Cu1 O1 1_555 1_555
Cu2 O2 1_555 1_555
O1 C5 1_555 1_555
O2 C5 1_555 1_555
O3 Cu1 1_555 1_555
O4 Cu2 1_555 1_555
O5 C12 1_555 1_555
O6 C12 1_555 1_555
O7 C20 1_555 1_555
O8 C20 1_555 1_555
N1 C21 1_555 1_555
N2 C1 1_555 1_555
C5 C6 1_555 1_555
C6 H5 1_555 1_555
C7 C6 1_555 1_555
H6 C7 1_555 1_555
H7 C7 1_555 1_555
C8 C7 1_555 1_555
H8 C8 1_555 1_555
H9 C8 1_555 1_555
C9 C8 1_555 1_555
H10 C9 1_555 1_555
C10 C9 1_555 1_555
H11 C10 1_555 1_555
H12 C10 1_555 1_555
C11 C6 1_555 1_555
H13 C11 1_555 1_555
H14 C11 1_555 1_555
C12 C9 1_555 1_555
C13 O3 1_555 1_555
C14 C13 1_555 1_555
H15 C14 1_555 1_555
C15 C14 1_555 1_555
H16 C15 1_555 1_555
H17 C15 1_555 1_555
C16 C15 1_555 1_555
H18 C16 1_555 1_555
H19 C16 1_555 1_555
C17 C16 1_555 1_555
H20 C17 1_555 1_555
C18 C17 1_555 1_555
H21 C18 1_555 1_555
H22 C18 1_555 1_555
C19 C14 1_555 1_555
H23 C19 1_555 1_555
H24 C19 1_555 1_555
C20 C17 1_555 1_555
C21 H25 1_555 1_555
C22 C21 1_555 1_555
H26 C22 1_555 1_555
C23 C22 1_555 1_555
C24 C23 1_555 1_555
H27 C24 1_555 1_555
C25 N1 1_555 1_555
H28 C25 1_555 1_555
C26 C2 1_555 1_555
O9 H29 1_555 1_555
O10 C27 1_555 1_555
C27 O9 1_555 1_555
C28 C27 1_555 1_555
H30 C28 1_555 1_555
C29 C28 1_555 1_555
H31 C29 1_555 1_555
H32 C29 1_555 1_555
C30 C28 1_555 1_555
H33 C30 1_555 1_555
H34 C30 1_555 1_555
C1_2 H1_2 1_555 1_555
C2_2 C1_2 1_555 1_555
H2_2 C2_2 1_555 1_555
C3_2 H3_2 1_555 1_555
C4_2 C3_2 1_555 1_555
H4_2 C4_2 1_555 1_555
Cu1_2 O1_2 1_555 1_555
Cu1_3 O5 1_555 1_555
Cu1_4 O7 1_555 1_555
Cu1_5 O3_2 1_555 1_555
Cu1_6 N2_2 1_555 1_555
Cu2_2 O2_2 1_555 1_555
Cu2_3 O6 1_555 1_555
Cu2_4 O8 1_555 1_555
Cu2_5 N1 1_555 1_555
Cu2_6 O4_2 1_555 1_555
O1_2 C5_2 1_555 1_555
O2_2 C5_2 1_555 1_555
O3_2 C13_2 1_555 1_555
O3_3 Cu1_2 1_555 1_555
O4_2 C13_2 1_555 1_555
O4_3 Cu2_2 1_555 1_555
O5_2 Cu1 1_555 1_555
O5_3 Cu1_2 1_555 1_555
O6_2 Cu2 1_555 1_555
O6_3 Cu2_2 1_555 1_555
O7_2 Cu1 1_555 1_555
O7_3 Cu1_2 1_555 1_555
O8_2 Cu2 1_555 1_555
O8_3 Cu2_2 1_555 1_555
N1_2 Cu2 1_555 1_555
N1_3 Cu2_2 1_555 1_555
N2_2 C1_2 1_555 1_555
N2_3 Cu1_2 1_555 1_555
C5_2 C6_2 1_555 1_555
C6_2 H5_2 1_555 1_555
C7_2 C6_2 1_555 1_555
H6_2 C7_2 1_555 1_555
H7_2 C7_2 1_555 1_555
C8_2 C7_2 1_555 1_555
H8_2 C8_2 1_555 1_555
H9_2 C8_2 1_555 1_555
C9_2 C8_2 1_555 1_555
H10_2 C9_2 1_555 1_555
C10_2 C9_2 1_555 1_555
H11_2 C10_2 1_555 1_555
H12_2 C10_2 1_555 1_555
C11_2 C6_2 1_555 1_555
H13_2 C11_2 1_555 1_555
H14_2 C11_2 1_555 1_555
C12_2 O5_2 1_555 1_555
C13_2 C14_2 1_555 1_555
C14_2 H15_2 1_555 1_555
C15_2 C14_2 1_555 1_555
H16_2 C15_2 1_555 1_555
H17_2 C15_2 1_555 1_555
C16_2 C15_2 1_555 1_555
H18_2 C16_2 1_555 1_555
H19_2 C16_2 1_555 1_555
C17_2 C16_2 1_555 1_555
H20_2 C17_2 1_555 1_555
C18_2 C17_2 1_555 1_555
H21_2 C18_2 1_555 1_555
H22_2 C18_2 1_555 1_555
C19_2 C14_2 1_555 1_555
H23_2 C19_2 1_555 1_555
H24_2 C19_2 1_555 1_555
C20_2 O7_2 1_555 1_555
C21_2 N1_2 1_555 1_555
H25_2 C21_2 1_555 1_555
C22_2 C21_2 1_555 1_555
H26_2 C22_2 1_555 1_555
C23_2 C22_2 1_555 1_555
C24_2 C23_2 1_555 1_555
H27_2 C24_2 1_555 1_555
C25_2 N1_2 1_555 1_555
H28_2 C25_2 1_555 1_555
C26_2 C2_2 1_555 1_555
O9A H29A 1_555 1_555
O10A C27A 1_555 1_555
C27A O9A 1_555 1_555
C28A C27A 1_555 1_555
H30A C28A 1_555 1_555
C29A C30 1_555 1_555
H31A C29A 1_555 1_555
H32A C29A 1_555 1_555
C30A C29 1_555 1_555
H33A C30A 1_555 1_555
H34A C30A 1_555 1_555
C3 C26 1_555 1_555
C4 N2 1_555 1_555
Cu1 N2 1_555 1_555
O4 C13 1_555 1_555
C10 C11 1_555 1_555
C18 C19 1_555 1_555
C23 C26 1_555 1_555
C24 C25 1_555 1_555
C3_2 C26_2 1_555 1_555
C4_2 N2_2 1_555 1_555
O6_2 C12_2 1_555 1_555
O8_2 C20_2 1_555 1_555
C9_2 C12_2 1_555 1_555
C10_2 C11_2 1_555 1_555
C17_2 C20_2 1_555 1_555
C18_2 C19_2 1_555 1_555
C23_2 C26_2 1_555 1_555
C24_2 C25_2 1_555 1_555
C28A C29A 1_555 1_555
C28A C30A 1_555 1_555

#END
