
#######################################################################
#
#                 Cambridge Crystallographic Data Centre
#                                CCDC 
#
#######################################################################
#
# If this CIF has been generated from an entry in the Cambridge 
# Structural Database, then it will include bibliographic, chemical, 
# crystal, experimental, refinement or atomic coordinate data resulting 
# from the CCDC's data processing and validation procedures.
#
#######################################################################

data_TIVYAZ01
_chemical_formula_moiety         'C54 H50 Co16 N6 O52'
_symmetry_cell_setting           orthorhombic
_symmetry_space_group_name_H-M   'P n m a'
_symmetry_Int_Tables_number      62
_space_group_name_Hall           '-P 2ac 2n'
loop_
_symmetry_equiv_pos_site_id
_symmetry_equiv_pos_as_xyz
1 x,y,z
2 1/2-x,-y,1/2+z
3 1/2+x,1/2-y,1/2-z
4 -x,1/2+y,-z
5 -x,-y,-z
6 1/2+x,y,1/2-z
7 1/2-x,1/2+y,1/2+z
8 x,1/2-y,z
_cell_length_a                   23.862(5)
_cell_length_b                   28.479(10)
_cell_length_c                   15.041(3)
_cell_angle_alpha                90
_cell_angle_beta                 90
_cell_angle_gamma                90
_cell_volume                     10221.4
loop_
_atom_site_label
_atom_site_type_symbol
_atom_site_fract_x
_atom_site_fract_y
_atom_site_fract_z
C25 C 0.0463(3) 0.0931(2) 0.0267(5)
H14 H 0.0491 0.1151 -0.0188
C26 C 0.0977(4) 0.0407(4) -0.0716(7)
H15 H 0.0802 0.0143 -0.0999
H16 H 0.1363 0.0336 -0.0596
H17 H 0.0955 0.0676 -0.1101
C27 C 0.0692(4) 0.0158(3) 0.0809(7)
H18 H 0.0564 0.0291 0.1359
H19 H 0.1067 0.0043 0.0883
H20 H 0.0450 -0.0096 0.0641
N3 N 0.0685(2) 0.0511(2) 0.0129(5)
O20 O 0.0224(2) 0.10533(15) 0.0955(3)
C28 C 0.6183(2) 0.9697(2) 0.8247(4)
H21 H 0.6395 0.9769 0.8747
C29 C 0.5328(3) 0.9351(4) 0.7647(5)
H22 H 0.5457 0.9497 0.7110
H23 H 0.4955 0.9458 0.7778
H24 H 0.5324 0.9016 0.7572
C30 C 0.5500(4) 0.9348(3) 0.9252(4)
H25 H 0.5499 0.9013 0.9312
H26 H 0.5127 0.9466 0.9332
H27 H 0.5743 0.9483 0.9694
N4 N 0.5700(2) 0.94740(18) 0.8376(3)
O21 O 0.63705(19) 0.98152(17) 0.7520(3)
O22 O 0.1588(5) 0.2500 0.6484(6)
O23 O 0.2209(3) 0.16784(19) 0.6011(4)
O24 O 0.7922(4) 0.2027(4) 0.6388(8)
O26 O 0.325(2) 0.1825(15) 0.073(5)
O27 O 0.8648(14) 0.2500 -0.023(3)
C1 C 0.1468(2) 0.18110(17) 1.0478(4)
C2 C 0.1774(2) 0.13632(17) 1.0713(3)
C3 C 0.2123(2) 0.11501(17) 1.0091(3)
H1 H 0.2173 0.1288 0.9536
C4 C 0.23989(19) 0.07292(17) 1.0294(3)
C5 C 0.23183(19) 0.05183(16) 1.1120(3)
H2 H 0.2497 0.0237 1.1256
C6 C 0.19667(19) 0.07334(17) 1.1740(3)
C7 C 0.16995(19) 0.11565(16) 1.1536(3)
H3 H 0.1470 0.1300 1.1956
C8 C 0.18559(19) 0.05085(17) 1.2625(3)
C9 C 0.27783(19) 0.05128(16) 0.9605(3)
C10 C 0.0484(2) 0.17425(18) 0.8227(3)
C11 C 0.0377(2) 0.13562(17) 0.7561(3)
C12 C -0.01388(19) 0.11280(17) 0.7556(3)
H4 H -0.0414 0.1215 0.7962
C13 C -0.02453(18) 0.07698(16) 0.6946(3)
C14 C 0.01663(19) 0.06450(15) 0.6333(3)
H5 H 0.0097 0.0404 0.5930
C15 C 0.06794(18) 0.08765(15) 0.6319(3)
C16 C 0.07885(18) 0.12308(16) 0.6938(3)
H6 H 0.1133 0.1383 0.6938
C17 C -0.0809(2) 0.05346(18) 0.6917(3)
C18 C 0.11118(19) 0.07418(16) 0.5628(3)
C19 C 0.1100(10) 0.2250(5) 1.2786(9)
C20 C 0.0719(9) 0.1692(8) 1.3843(19)
C21 C 0.1715(19) 0.1892(8) 1.3858(18)
C22 C 0.1618(2) -0.0828(2) 1.0738(4)
H7 H 0.1320 -0.0952 1.1058
C23 C 0.2081(3) -0.0715(3) 0.9311(4)
H8 H 0.2376 -0.0599 0.9686
H9 H 0.2225 -0.0960 0.8936
H10 H 0.1940 -0.0464 0.8948
C24 C 0.1188(4) -0.1166(4) 0.9428(6)
H11 H 0.0928 -0.1276 0.9868
H12 H 0.0995 -0.0968 0.9010
H13 H 0.1348 -0.1429 0.9120
Co1 Co 0.14473(2) 0.02213(2) 1.40901(4)
Co2 Co 0.20501(3) -0.06315(2) 1.25365(4)
Co3 Co 0.12217(3) 0.2500 0.89878(5)
Co4 Co 0.05624(4) 0.2500 1.11194(5)
N1 N 0.1631(2) -0.0900(2) 0.9858(3)
N2 N 0.1139(12) 0.1976(5) 1.3557(12)
O1 O 0.15732(17) 0.19803(14) 0.9722(3)
O2 O 0.11401(16) 0.19689(14) 1.1057(3)
O3 O 0.15967(16) 0.07427(12) 1.3218(2)
O4 O 0.20082(14) 0.00954(11) 1.2788(2)
O5 O 0.30233(14) 0.01342(12) 0.9826(2)
O6 O 0.28346(17) 0.07276(12) 0.8885(2)
O7 O 0.01300(18) 0.17901(15) 0.8840(3)
O8 O 0.09160(15) 0.19907(14) 0.8117(3)
O9 O -0.11893(16) 0.06992(16) 0.7403(3)
O10 O -0.08465(14) 0.01834(12) 0.6402(2)
O11 O 0.09300(13) 0.04810(12) 0.5001(2)
O12 O 0.16086(13) 0.08754(13) 0.5698(2)
O13 O 0.04491(17) 0.2500 0.9740(3)
O14 O 0.1984(2) 0.2500 0.8210(4)
O15 O -0.00593(18) 0.19743(13) 1.1263(3)
O16 O 0.2124(2) -0.13677(16) 1.2386(3)
O17 O 0.29116(14) -0.05598(13) 1.2308(2)
O18 O 0.19736(17) -0.06095(15) 1.1142(2)
O19 O 0.0659(4) 0.2500 1.2504(5)
C1G C 0.1468(2) 0.31890(17) 1.0478(4)
C2G C 0.1774(2) 0.36368(17) 1.0713(3)
C3G C 0.2123(2) 0.38499(17) 1.0091(3)
H1G H 0.2173 0.3712 0.9536
C4G C 0.23989(19) 0.42708(17) 1.0294(3)
C5G C 0.23183(19) 0.44817(16) 1.1120(3)
H2G H 0.2497 0.4763 1.1256
C6G C 0.19667(19) 0.42666(17) 1.1740(3)
C7G C 0.16995(19) 0.38435(16) 1.1536(3)
H3G H 0.1470 0.3700 1.1956
C8G C 0.18559(19) 0.44915(17) 1.2625(3)
C9G C 0.27783(19) 0.44872(16) 0.9605(3)
C10G C 0.0484(2) 0.32575(18) 0.8227(3)
C11G C 0.0377(2) 0.36438(17) 0.7561(3)
C12G C -0.01388(19) 0.38720(17) 0.7556(3)
H4G H -0.0414 0.3785 0.7962
C13G C -0.02453(18) 0.42302(16) 0.6946(3)
C14G C 0.01663(19) 0.43550(15) 0.6333(3)
H5G H 0.0097 0.4596 0.5930
C15G C 0.06794(18) 0.41235(15) 0.6319(3)
C16G C 0.07885(18) 0.37692(16) 0.6938(3)
H6G H 0.1133 0.3617 0.6938
C17G C -0.0809(2) 0.44654(18) 0.6917(3)
C18G C 0.11118(19) 0.42582(16) 0.5628(3)
C19G C 0.1100(10) 0.2750(5) 1.2786(9)
C20G C 0.0719(9) 0.3308(8) 1.3843(19)
C21G C 0.1715(19) 0.3108(8) 1.3858(18)
C22G C 0.1618(2) 0.5828(2) 1.0738(4)
H7G H 0.1320 0.5952 1.1058
C23G C 0.2081(3) 0.5715(3) 0.9311(4)
H8G H 0.2376 0.5599 0.9686
H9G H 0.2225 0.5960 0.8936
H10G H 0.1940 0.5464 0.8948
C24G C 0.1188(4) 0.6166(4) 0.9428(6)
H11G H 0.0928 0.6276 0.9868
H12G H 0.0995 0.5968 0.9010
H13G H 0.1348 0.6429 0.9120
Co1G Co 0.14473(2) 0.47787(2) 1.40901(4)
Co1A Co 0.35527(2) -0.02213(2) 0.90901(4)
Co1D Co -0.14473(2) -0.02213(2) 0.59099(4)
Co1_2 Co 0.14473(2) 0.02213(2) 0.40901(4)
Co1F Co 0.35527(2) 0.52213(2) 0.90901(4)
Co1C Co -0.14473(2) 0.52213(2) 0.59099(4)
Co1G_2 Co 0.14473(2) 0.47787(2) 0.40901(4)
Co2G Co 0.20501(3) 0.56315(2) 1.25365(4)
Co2A Co 0.29499(3) 0.06315(2) 0.75365(4)
Co2D Co -0.20501(3) 0.06315(2) 0.74635(4)
Co2F Co 0.29499(3) 0.43685(2) 0.75365(4)
Co2C Co -0.20501(3) 0.43685(2) 0.74635(4)
N1G N 0.1631(2) 0.5900(2) 0.9858(3)
N2G N 0.1139(12) 0.3024(5) 1.3557(12)
O1G O 0.15732(17) 0.30197(14) 0.9722(3)
O2G O 0.11401(16) 0.30311(14) 1.1057(3)
O3G O 0.15967(16) 0.42573(12) 1.3218(2)
O4G O 0.20082(14) 0.49046(11) 1.2788(2)
O5G O 0.30233(14) 0.48658(12) 0.9826(2)
O5A O 0.19767(14) -0.01342(12) 1.4826(2)
O5F O 0.19767(14) 0.51342(12) 1.4826(2)
O6G O 0.28346(17) 0.42724(12) 0.8885(2)
O6A O 0.21654(17) -0.07276(12) 1.3885(2)
O6F O 0.21654(17) 0.57276(12) 1.3885(2)
O7G O 0.01300(18) 0.32099(15) 0.8840(3)
O8G O 0.09160(15) 0.30093(14) 0.8117(3)
O9G O -0.11893(16) 0.43008(16) 0.7403(3)
O9D O 0.11893(16) -0.06992(16) 1.2597(3)
O9C O 0.11893(16) 0.56992(16) 1.2597(3)
O10G O -0.08465(14) 0.48166(12) 0.6402(2)
O10D O 0.08465(14) -0.01834(12) 1.3598(2)
O10C O 0.08465(14) 0.51834(12) 1.3598(2)
O11G O 0.09300(13) 0.45190(12) 0.5001(2)
O11_2 O 0.09300(13) 0.04810(12) 1.5001(2)
O11G_2 O 0.09300(13) 0.45190(12) 1.5001(2)
O12G O 0.16086(13) 0.41246(13) 0.5698(2)
O15G O -0.00593(18) 0.30257(13) 1.1263(3)
O16G O 0.2124(2) 0.63677(16) 1.2386(3)
O17G O 0.29116(14) 0.55598(13) 1.2308(2)
O18G O 0.19736(17) 0.56095(15) 1.1142(2)
loop_
_geom_bond_atom_site_label_1
_geom_bond_atom_site_label_2
_geom_bond_site_symmetry_1
_geom_bond_site_symmetry_2
C1 C2 1_555 1_555
C2 C3 1_555 1_555
C3 H1 1_555 1_555
C4 C3 1_555 1_555
C5 C4 1_555 1_555
H2 C5 1_555 1_555
C6 C5 1_555 1_555
C7 C2 1_555 1_555
H3 C7 1_555 1_555
C8 C6 1_555 1_555
C9 C4 1_555 1_555
C10 C11 1_555 1_555
C11 C12 1_555 1_555
C12 H4 1_555 1_555
C13 C12 1_555 1_555
C14 C13 1_555 1_555
H5 C14 1_555 1_555
C15 C14 1_555 1_555
C16 C11 1_555 1_555
H6 C16 1_555 1_555
C17 C13 1_555 1_555
C18 C15 1_555 1_555
C19 N2 1_555 1_555
C20 N2 1_555 1_555
C21 N2 1_555 1_555
C22 H7 1_555 1_555
C23 H8 1_555 1_555
H9 C23 1_555 1_555
H10 C23 1_555 1_555
C24 H11 1_555 1_555
H12 C24 1_555 1_555
H13 C24 1_555 1_555
C25 H14 1_555 1_555
C26 H15 1_555 1_555
H16 C26 1_555 1_555
H17 C26 1_555 1_555
C27 H18 1_555 1_555
H19 C27 1_555 1_555
H20 C27 1_555 1_555
C28 H21 1_555 1_555
C29 H22 1_555 1_555
H23 C29 1_555 1_555
H24 C29 1_555 1_555
C30 H25 1_555 1_555
H26 C30 1_555 1_555
H27 C30 1_555 1_555
Co1 O3 1_555 1_555
Co2 O4 1_555 1_555
Co3 O1 1_555 1_555
Co4 O2 1_555 1_555
N1 C22 1_555 1_555
N3 C25 1_555 1_555
N4 C28 1_555 1_555
O1 C1 1_555 1_555
O2 C1 1_555 1_555
O3 C8 1_555 1_555
O4 C8 1_555 1_555
O5 C9 1_555 1_555
O6 C9 1_555 1_555
O7 C10 1_555 1_555
O8 C10 1_555 1_555
O9 C17 1_555 1_555
O10 C17 1_555 1_555
O11 C18 1_555 1_555
O12 C18 1_555 1_555
O13 Co3 1_555 1_555
O14 Co3 1_555 1_555
O15 Co4 1_555 1_555
O16 Co2 1_555 1_555
O17 Co2 1_555 1_555
O18 C22 1_555 1_555
O19 C19 1_555 1_555
O20 C25 1_555 1_555
O21 C28 1_555 1_555
C1G C2G 1_555 1_555
C2G C3G 1_555 1_555
C3G H1G 1_555 1_555
C4G C3G 1_555 1_555
C5G C4G 1_555 1_555
H2G C5G 1_555 1_555
C6G C5G 1_555 1_555
C7G C2G 1_555 1_555
H3G C7G 1_555 1_555
C8G C6G 1_555 1_555
C9G C4G 1_555 1_555
C10G C11G 1_555 1_555
C11G C12G 1_555 1_555
C12G H4G 1_555 1_555
C13G C12G 1_555 1_555
C14G C13G 1_555 1_555
H5G C14G 1_555 1_555
C15G C14G 1_555 1_555
C16G C11G 1_555 1_555
H6G C16G 1_555 1_555
C17G C13G 1_555 1_555
C18G C15G 1_555 1_555
C19G C19 1_555 1_555
C20G N2G 1_555 1_555
C21G N2G 1_555 1_555
C22G H7G 1_555 1_555
C23G H8G 1_555 1_555
H9G C23G 1_555 1_555
H10G C23G 1_555 1_555
C24G H11G 1_555 1_555
H12G C24G 1_555 1_555
H13G C24G 1_555 1_555
Co1G O3G 1_555 1_555
Co1A O5 1_555 1_555
Co1D O10 1_555 1_555
Co1_2 O11 1_555 1_555
Co1F O5G 1_555 1_555
Co1C O10G 1_555 1_555
Co1G_2 O11G 1_555 1_555
Co2G O4G 1_555 1_555
Co2A O6 1_555 1_555
Co2D O9 1_555 1_555
Co2F O6G 1_555 1_555
Co2C O9G 1_555 1_555
N1G C22G 1_555 1_555
N2G C19G 1_555 1_555
O1G Co3 1_555 1_555
O2G Co4 1_555 1_555
O3G C8G 1_555 1_555
O4G C8G 1_555 1_555
O5G C9G 1_555 1_555
O5A Co1 1_555 1_555
O5F Co1G 1_555 1_555
O6G C9G 1_555 1_555
O6A Co2 1_555 1_555
O6F Co2G 1_555 1_555
O7G C10G 1_555 1_555
O8G Co3 1_555 1_555
O9G C17G 1_555 1_555
O9D Co2 1_555 1_555
O9C Co2G 1_555 1_555
O10G C17G 1_555 1_555
O10D Co1 1_555 1_555
O10C Co1G 1_555 1_555
O11G C18G 1_555 1_555
O11_2 Co1 1_555 1_555
O11G_2 Co1G 1_555 1_555
O12G C18G 1_555 1_555
O15G Co4 1_555 1_555
O16G Co2G 1_555 1_555
O17G Co2G 1_555 1_555
O18G C22G 1_555 1_555
C6 C7 1_555 1_555
C15 C16 1_555 1_555
C23 N1 1_555 1_555
C24 N1 1_555 1_555
C26 N3 1_555 1_555
C27 N3 1_555 1_555
C29 N4 1_555 1_555
C30 N4 1_555 1_555
Co1 O4 1_555 1_555
Co2 O18 1_555 1_555
Co3 O8 1_555 1_555
Co4 O13 1_555 1_555
Co4 O19 1_555 1_555
O19 C19G 1_555 1_555
C1G O1G 1_555 1_555
C1G O2G 1_555 1_555
C6G C7G 1_555 1_555
C10G O8G 1_555 1_555
C15G C16G 1_555 1_555
C23G N1G 1_555 1_555
C24G N1G 1_555 1_555
Co1G O4G 1_555 1_555
Co2G O18G 1_555 1_555

#END
