
#######################################################################
#
#                 Cambridge Crystallographic Data Centre
#                                CCDC 
#
#######################################################################
#
# If this CIF has been generated from an entry in the Cambridge 
# Structural Database, then it will include bibliographic, chemical, 
# crystal, experimental, refinement or atomic coordinate data resulting 
# from the CCDC's data processing and validation procedures.
#
#######################################################################

data_KONSAJ
_chemical_formula_moiety         '(C18 H26 Br2 Cu2 Fe1 N2 P2)n'
_symmetry_cell_setting           cubic
_symmetry_space_group_name_H-M   'I -4 3 m'
_symmetry_Int_Tables_number      217
_space_group_name_Hall           'I -4 2 3'
loop_
_symmetry_equiv_pos_site_id
_symmetry_equiv_pos_as_xyz
1 x,y,z
2 -x,-y,z
3 x,-y,-z
4 -x,y,-z
5 z,x,y
6 y,z,x
7 -z,-x,y
8 -y,z,-x
9 z,-x,-y
10 -y,-z,x
11 -z,x,-y
12 y,-z,-x
13 y,x,z
14 -y,-x,z
15 -y,x,-z
16 y,-x,-z
17 x,z,y
18 z,y,x
19 -x,-z,y
20 z,-y,-x
21 -x,z,-y
22 -z,-y,x
23 x,-z,-y
24 -z,y,-x
25 1/2+x,1/2+y,1/2+z
26 1/2-x,1/2-y,1/2+z
27 1/2+x,1/2-y,1/2-z
28 1/2-x,1/2+y,1/2-z
29 1/2+z,1/2+x,1/2+y
30 1/2+y,1/2+z,1/2+x
31 1/2-z,1/2-x,1/2+y
32 1/2-y,1/2+z,1/2-x
33 1/2+z,1/2-x,1/2-y
34 1/2-y,1/2-z,1/2+x
35 1/2-z,1/2+x,1/2-y
36 1/2+y,1/2-z,1/2-x
37 1/2+y,1/2+x,1/2+z
38 1/2-y,1/2-x,1/2+z
39 1/2-y,1/2+x,1/2-z
40 1/2+y,1/2-x,1/2-z
41 1/2+x,1/2+z,1/2+y
42 1/2+z,1/2+y,1/2+x
43 1/2-x,1/2-z,1/2+y
44 1/2+z,1/2-y,1/2-x
45 1/2-x,1/2+z,1/2-y
46 1/2-z,1/2-y,1/2+x
47 1/2+x,1/2-z,1/2-y
48 1/2-z,1/2+y,1/2-x
_cell_length_a                   28.8993(5)
_cell_length_b                   28.8993(5)
_cell_length_c                   28.8993(5)
_cell_angle_alpha                90
_cell_angle_beta                 90
_cell_angle_gamma                90
_cell_volume                     24135.8
loop_
_atom_site_label
_atom_site_type_symbol
_atom_site_fract_x
_atom_site_fract_y
_atom_site_fract_z
Fe1 Fe 0.82820(7) 0.82820(7) 0.65266(7)
Cu1 Cu 0.94909(3) 0.79432(3) 0.52409(3)
Br1 Br 0.97075(2) 0.79569(2) 0.44029(2)
P1 P 0.89197(5) 0.83041(5) 0.55782(6)
N1 N 0.83759(17) 0.83759(17) 0.5357(3)
N2 N 0.88832(17) 0.88832(17) 0.5715(2)
C1 C 0.8175(3) 0.8175(3) 0.4928(5)
C2 C 0.8273(3) 0.7667(3) 0.4910(4)
H1 H 0.8152 0.7520 0.5182
H2 H 0.8602 0.7618 0.4894
H3 H 0.8129 0.7536 0.4640
C3 C 0.8410(4) 0.8410(4) 0.4510(5)
C4 C 0.9241(2) 0.9241(2) 0.5639(4)
C5 C 0.9089(3) 0.9688(3) 0.5850(4)
H4 H 0.8822 0.9802 0.5689
H5 H 0.9335 0.9910 0.5827
H6 H 0.9013 0.9639 0.6170
C6 C 0.9307(3) 0.9307(3) 0.5118(5)
C7 C 0.8802(3) 0.8047(3) 0.6133(3)
C8 C 0.8471(3) 0.7673(3) 0.6218(4)
H7 H 0.8301 0.7510 0.5998
C9 C 0.8464(7) 0.7613(6) 0.6700(6)
H8 H 0.8288 0.7391 0.6853
C10 C 0.8744(7) 0.7920(6) 0.6912(5)
H9 H 0.8783 0.7950 0.7230
C11 C 0.8976(4) 0.8194(4) 0.6563(3)
H10 H 0.9196 0.8424 0.6614
P1L P 0.83041(5) 0.89197(5) 0.55782(6)
C2L C 0.7667(3) 0.8273(3) 0.4910(4)
H1L H 0.7520 0.8152 0.5182
H2L H 0.7618 0.8602 0.4894
H3L H 0.7536 0.8129 0.4640
C5L C 0.9688(3) 0.9089(3) 0.5850(4)
H4L H 0.9802 0.8822 0.5689
H5L H 0.9910 0.9335 0.5827
H6L H 0.9639 0.9013 0.6170
C7L C 0.8047(3) 0.8802(3) 0.6133(3)
C8L C 0.7673(3) 0.8471(3) 0.6218(4)
H7L H 0.7510 0.8301 0.5998
C9L C 0.7613(6) 0.8464(7) 0.6700(6)
H8L H 0.7391 0.8288 0.6853
C10L C 0.7920(6) 0.8744(7) 0.6912(5)
H9L H 0.7950 0.8783 0.7230
C11L C 0.8194(4) 0.8976(4) 0.6563(3)
H10L H 0.8424 0.9196 0.6614
Cu1C Cu 1.05091(3) 0.79432(3) 0.47591(3)
Br1C Br 1.02925(2) 0.79569(2) 0.55971(2)
Cu1L Cu 0.79432(3) 0.94909(3) 0.52409(3)
Cu1QA Cu 1.02409(3) 0.70568(3) 0.55091(3)
Cu1SA Cu 0.97591(3) 0.70568(3) 0.44909(3)
Br1QA Br 0.94029(2) 0.70431(2) 0.52925(2)
Br1SA Br 1.05971(2) 0.70431(2) 0.47075(2)
P1C P 1.10803(5) 0.83041(5) 0.44218(6)
loop_
_geom_bond_atom_site_label_1
_geom_bond_atom_site_label_2
_geom_bond_site_symmetry_1
_geom_bond_site_symmetry_2
Fe1 C7 1_555 1_555
Cu1 Br1 1_555 1_555
Br1 Cu1C 1_555 1_555
P1 Cu1 1_555 1_555
N1 P1 1_555 1_555
N2 P1 1_555 1_555
C1 N1 1_555 1_555
C2 C1 1_555 1_555
H1 C2 1_555 1_555
H2 C2 1_555 1_555
H3 C2 1_555 1_555
C3 C1 1_555 1_555
C4 N2 1_555 1_555
C5 C4 1_555 1_555
H4 C5 1_555 1_555
H5 C5 1_555 1_555
H6 C5 1_555 1_555
C6 C4 1_555 1_555
C7 P1 1_555 1_555
C8 Fe1 1_555 1_555
H7 C8 1_555 1_555
C9 Fe1 1_555 1_555
H8 C9 1_555 1_555
C10 Fe1 1_555 1_555
H9 C10 1_555 1_555
C11 Fe1 1_555 1_555
H10 C11 1_555 1_555
P1L N1 1_555 1_555
C2L C1 1_555 1_555
H1L C2L 1_555 1_555
H2L C2L 1_555 1_555
H3L C2L 1_555 1_555
C5L C4 1_555 1_555
H4L C5L 1_555 1_555
H5L C5L 1_555 1_555
H6L C5L 1_555 1_555
C7L Fe1 1_555 1_555
C8L Fe1 1_555 1_555
H7L C8L 1_555 1_555
C9L Fe1 1_555 1_555
H8L C9L 1_555 1_555
C10L Fe1 1_555 1_555
H9L C10L 1_555 1_555
C11L Fe1 1_555 1_555
H10L C11L 1_555 1_555
Cu1C Br1C 1_555 1_555
Br1C Cu1 1_555 1_555
Cu1L P1L 1_555 1_555
Cu1QA Br1C 1_555 1_555
Cu1SA Br1 1_555 1_555
Br1QA Cu1 1_555 1_555
Br1SA Cu1C 1_555 1_555
P1C Cu1C 1_555 1_555
N2 P1L 1_555 1_555
C7 C8 1_555 1_555
C7 C11 1_555 1_555
C8 C9 1_555 1_555
C9 C10 1_555 1_555
C10 C11 1_555 1_555
P1L C7L 1_555 1_555
C7L C8L 1_555 1_555
C7L C11L 1_555 1_555
C8L C9L 1_555 1_555
C9L C10L 1_555 1_555
C10L C11L 1_555 1_555
Cu1QA Br1QA 1_555 1_555
Cu1QA Br1SA 1_555 1_555
Cu1SA Br1QA 1_555 1_555
Cu1SA Br1SA 1_555 1_555

#END
