
#######################################################################
#
#                 Cambridge Crystallographic Data Centre
#                                CCDC 
#
#######################################################################
#
# If this CIF has been generated from an entry in the Cambridge 
# Structural Database, then it will include bibliographic, chemical, 
# crystal, experimental, refinement or atomic coordinate data resulting 
# from the CCDC's data processing and validation procedures.
#
#######################################################################

data_HOXSUK
_chemical_formula_moiety         '(C47 H39 N1 Ni3 O15)n'
_symmetry_cell_setting           monoclinic
_symmetry_space_group_name_H-M   'C 2/c'
_symmetry_Int_Tables_number      15
_space_group_name_Hall           '-C 2yc'
loop_
_symmetry_equiv_pos_site_id
_symmetry_equiv_pos_as_xyz
1 x,y,z
2 -x,y,1/2-z
3 1/2+x,1/2+y,z
4 1/2-x,1/2+y,1/2-z
5 -x,-y,-z
6 x,-y,1/2+z
7 1/2-x,1/2-y,-z
8 1/2+x,1/2-y,1/2+z
_cell_length_a                   42.61(3)
_cell_length_b                   6.320(4)
_cell_length_c                   25.202(16)
_cell_angle_alpha                90
_cell_angle_beta                 126.229(7)
_cell_angle_gamma                90
_cell_volume                     5474.63
loop_
_atom_site_label
_atom_site_type_symbol
_atom_site_fract_x
_atom_site_fract_y
_atom_site_fract_z
O8 O 0.28895(2) 0.17950(8) 0.24805(2)
N1 N 0.30779(2) 0.49810(10) 0.30215(2)
C23 C 0.28967(2) 0.37130(10) 0.24912(3)
H17 H 0.2758 0.4400 0.2076
C24 C 0.33005(3) 0.40957(17) 0.36809(3)
H18 H 0.3456 0.2900 0.3707
H19 H 0.3122 0.3608 0.3781
H20 H 0.3474 0.5182 0.3999
C25 C 0.30519(2) 0.72917(11) 0.29496(4)
H21 H 0.2845 0.7663 0.2492
H22 H 0.3301 0.7854 0.3071
H23 H 0.2992 0.7901 0.3238
Ni1 Ni 0.2500 0.2500 0.5000
O1 O 0.25180(2) -0.03852(4) 0.62460(2)
C1 C 0.60305(2) 0.14579(7) 0.73854(2)
H1 H 0.5937 0.0045 0.7314
Ni2 Ni 0.24269(2) -0.24994(2) 0.55194(2)
O2 O 0.26627(2) -0.05467(3) 0.52004(2)
C2 C 0.63117(2) 0.55181(7) 0.75936(2)
H2 H 0.6409 0.6919 0.7661
O3 O 0.71588(2) 0.29253(4) 0.89797(2)
C3 C 0.59406(2) 0.50416(7) 0.70326(2)
H3 H 0.5786 0.6125 0.6724
O4 O 0.21557(2) -0.45796(4) 0.57952(2)
C4 C 0.65361(2) 0.39788(6) 0.80474(2)
O5 O 0.70279(2) 0.63817(4) 0.87744(2)
C5 C 0.63942(2) 0.19339(7) 0.79454(2)
H4 H 0.6547 0.0862 0.8261
C6 C 0.49877(2) -0.06237(6) 0.47541(2)
C7 C 0.56988(2) -0.06035(7) 0.54021(2)
H5 H 0.5931 -0.1001 0.5455
O6 O 0.31285(2) 0.63911(4) 0.51158(2)
C8 C 0.37660(2) 0.19372(7) 0.55352(2)
H6 H 0.3622 0.0856 0.5564
C9 C 0.57255(2) 0.05295(7) 0.58736(2)
H7 H 0.5976 0.0890 0.6256
O7 O 0.29998(2) 0.29193(4) 0.50431(2)
C10 C 0.69376(2) 0.44923(6) 0.86505(2)
C11 C 0.53859(2) 0.12219(7) 0.58200(2)
C12 C 0.41227(2) 0.14809(8) 0.56568(2)
H8 H 0.4220 0.0076 0.5771
C13 C 0.57971(2) 0.30084(6) 0.69227(2)
C14 C 0.32212(2) 0.44720(6) 0.51676(2)
C15 C 0.53296(2) -0.12438(7) 0.48158(2)
C16 C 0.38473(2) 0.55609(7) 0.53710(2)
H9 H 0.3759 0.6985 0.5296
C17 C 0.50699(2) 0.30741(6) 0.62189(2)
H10 H 0.5088 0.3966 0.6539
C18 C 0.36229(2) 0.39998(6) 0.53712(2)
C19 C 0.42032(2) 0.51030(7) 0.54793(2)
H11 H 0.4348 0.6202 0.5460
C20 C 0.43431(2) 0.30430(6) 0.56149(2)
C21 C 0.54076(2) 0.24395(6) 0.63029(2)
C22 C 0.47029(2) 0.24356(6) 0.56745(2)
H12 H 0.26921(6) -0.10767(18) 0.66759(4)
H13 H 0.26747(3) 0.07807(15) 0.62591(5)
H14 H 0.22361(6) -0.5242(3) 0.62134(3)
H15 H 0.20734(7) -0.57913(19) 0.54932(4)
H16 H 0.29292(2) -0.0630(7) 0.56120(5)
C1D C 0.39695(2) -0.14579(7) 0.26146(2)
H1D H 0.4063 -0.0045 0.2686
C2D C 0.36883(2) -0.55181(7) 0.24064(2)
H2D H 0.3591 -0.6919 0.2339
O3D O 0.28412(2) -0.29253(4) 0.10203(2)
C3D C 0.40594(2) -0.50416(7) 0.29674(2)
H3D H 0.4214 -0.6125 0.3276
C4D C 0.34639(2) -0.39788(6) 0.19526(2)
O5D O 0.29721(2) -0.63817(4) 0.12256(2)
C5D C 0.36058(2) -0.19339(7) 0.20546(2)
H4D H 0.3453 -0.0862 0.1739
C6D C 0.50123(2) 0.06237(6) 0.52459(2)
C7D C 0.43012(2) 0.06035(7) 0.45979(2)
H5D H 0.4069 0.1001 0.4545
O6D O 0.68715(2) -0.63911(4) 0.48842(2)
C8D C 0.62340(2) -0.19372(7) 0.44648(2)
H6D H 0.6378 -0.0856 0.4436
C9D C 0.42745(2) -0.05295(7) 0.41264(2)
H7D H 0.4024 -0.0890 0.3744
O7D O 0.70002(2) -0.29193(4) 0.49569(2)
C10D C 0.30624(2) -0.44923(6) 0.13495(2)
C11D C 0.46141(2) -0.12219(7) 0.41800(2)
C12D C 0.58773(2) -0.14809(8) 0.43432(2)
H8D H 0.5780 -0.0076 0.4229
C13D C 0.42029(2) -0.30084(6) 0.30773(2)
C14D C 0.67788(2) -0.44720(6) 0.48324(2)
C15D C 0.46704(2) 0.12438(7) 0.51842(2)
C16D C 0.61527(2) -0.55609(7) 0.46290(2)
H9D H 0.6241 -0.6985 0.4704
C17D C 0.49301(2) -0.30741(6) 0.37811(2)
H10D H 0.4912 -0.3966 0.3461
C18D C 0.63771(2) -0.39998(6) 0.46288(2)
C19D C 0.57968(2) -0.51030(7) 0.45207(2)
H11D H 0.5652 -0.6202 0.4540
C20D C 0.56569(2) -0.30430(6) 0.43851(2)
C21D C 0.45924(2) -0.24395(6) 0.36971(2)
C22D C 0.52971(2) -0.24356(6) 0.43255(2)
O1F O 0.24820(2) 0.53852(4) 0.37540(2)
Ni2F Ni 0.25731(2) 0.74994(2) 0.44806(2)
O2F O 0.23373(2) 0.55467(3) 0.47996(2)
O4F O 0.28443(2) 0.95796(4) 0.42048(2)
H12F H 0.23079(6) 0.60767(18) 0.33241(4)
H13F H 0.23253(3) 0.42193(15) 0.37409(5)
H14F H 0.27639(6) 1.0242(3) 0.37866(3)
H15F H 0.29266(7) 1.07913(19) 0.45068(4)
H16F H 0.20708(2) 0.5630(7) 0.43880(5)
Ni1A Ni 0.7500 0.2500 1.0000
Ni1B Ni 0.7500 -0.2500 0.5000
Ni1C Ni 0.2500 -0.2500 0.0000
Ni2_2 Ni 0.24269(2) 0.75006(2) 0.55194(2)
Ni2A Ni 0.75731(2) 0.75006(2) 0.94806(2)
Ni2B Ni 0.74269(2) -0.74994(2) 0.55194(2)
Ni2E Ni 0.24269(2) -0.75006(2) 0.05194(2)
Ni2F_2 Ni 0.25731(2) -0.25006(2) 0.44806(2)
O2_2 O 0.26627(2) 0.94533(3) 0.52004(2)
O2F_2 O 0.23373(2) -0.44533(3) 0.47996(2)
O3A O 0.28412(2) 0.29253(4) 0.60203(2)
O3G O 0.21588(2) 0.20747(4) 0.39797(2)
O5A O 0.29721(2) -0.36183(4) 0.62256(2)
O5G O 0.20279(2) 0.86183(4) 0.37744(2)
O6F O 0.18715(2) -0.13911(4) 0.48842(2)
O7F O 0.20002(2) 0.20807(4) 0.49569(2)
loop_
_geom_bond_atom_site_label_1
_geom_bond_atom_site_label_2
_geom_bond_site_symmetry_1
_geom_bond_site_symmetry_2
Ni1 O2 1_555 1_555
O1 Ni2 1_555 1_555
C1 H1 1_555 1_555
Ni2 O2 1_555 1_555
O2 H16 1_555 1_555
C2 H2 1_555 1_555
O3 C10 1_555 1_555
C3 C2 1_555 1_555
H3 C3 1_555 1_555
O4 Ni2 1_555 1_555
C4 C2 1_555 1_555
O5 C10 1_555 1_555
C5 C1 1_555 1_555
H4 C5 1_555 1_555
C6 C15 1_555 1_555
C7 H5 1_555 1_555
O6 C14 1_555 1_555
C8 H6 1_555 1_555
C9 C7 1_555 1_555
H7 C9 1_555 1_555
O7 Ni1 1_555 1_555
C10 C4 1_555 1_555
C11 C9 1_555 1_555
C12 C8 1_555 1_555
H8 C12 1_555 1_555
C13 C1 1_555 1_555
C14 O7 1_555 1_555
C15 C7 1_555 1_555
C16 H9 1_555 1_555
C17 H10 1_555 1_555
C18 C8 1_555 1_555
C19 C16 1_555 1_555
H11 C19 1_555 1_555
C20 C12 1_555 1_555
C21 C11 1_555 1_555
C22 C17 1_555 1_555
H12 O1 1_555 1_555
H13 O1 1_555 1_555
H14 O4 1_555 1_555
H15 O4 1_555 1_555
O8 C23 1_555 1_555
N1 C23 1_555 1_555
C23 H17 1_555 1_555
C24 N1 1_555 1_555
H18 C24 1_555 1_555
H19 C24 1_555 1_555
H20 C24 1_555 1_555
C25 N1 1_555 1_555
H21 C25 1_555 1_555
H22 C25 1_555 1_555
H23 C25 1_555 1_555
C1D H1D 1_555 1_555
C2D H2D 1_555 1_555
O3D C10D 1_555 1_555
C3D C2D 1_555 1_555
H3D C3D 1_555 1_555
C4D C2D 1_555 1_555
O5D C10D 1_555 1_555
C5D C1D 1_555 1_555
H4D C5D 1_555 1_555
C6D C6 1_555 1_555
C7D H5D 1_555 1_555
O6D C14D 1_555 1_555
C8D H6D 1_555 1_555
C9D C7D 1_555 1_555
H7D C9D 1_555 1_555
O7D C14D 1_555 1_555
C10D C4D 1_555 1_555
C11D C6 1_555 1_555
C12D C8D 1_555 1_555
H8D C12D 1_555 1_555
C13D C1D 1_555 1_555
C14D C18D 1_555 1_555
C15D C22 1_555 1_555
C16D H9D 1_555 1_555
C17D H10D 1_555 1_555
C18D C8D 1_555 1_555
C19D C16D 1_555 1_555
H11D C19D 1_555 1_555
C20D C12D 1_555 1_555
C21D C11D 1_555 1_555
C22D C15 1_555 1_555
O1F Ni2F 1_555 1_555
Ni2F O6 1_555 1_555
O2F Ni1 1_555 1_555
O4F Ni2F 1_555 1_555
H12F O1F 1_555 1_555
H13F O1F 1_555 1_555
H14F O4F 1_555 1_555
H15F O4F 1_555 1_555
H16F O2F 1_555 1_555
Ni1A O3 1_555 1_555
Ni1B O7D 1_555 1_555
Ni1C O3D 1_555 1_555
Ni2_2 O2F 1_555 1_555
Ni2A O5 1_555 1_555
Ni2B O6D 1_555 1_555
Ni2E O5D 1_555 1_555
Ni2F_2 O2 1_555 1_555
O2_2 Ni2F 1_555 1_555
O2F_2 Ni2 1_555 1_555
O3A Ni1 1_555 1_555
O3G Ni1 1_555 1_555
O5A Ni2 1_555 1_555
O5G Ni2F 1_555 1_555
O6F Ni2 1_555 1_555
O7F Ni1 1_555 1_555
C3 C13 1_555 1_555
C4 C5 1_555 1_555
C11 C6D 1_555 1_555
C13 C21 1_555 1_555
C14 C18 1_555 1_555
C16 C18 1_555 1_555
C17 C21 1_555 1_555
C19 C20 1_555 1_555
C20 C22 1_555 1_555
C3D C13D 1_555 1_555
C4D C5D 1_555 1_555
C6D C15D 1_555 1_555
C7D C15D 1_555 1_555
C9D C11D 1_555 1_555
C13D C21D 1_555 1_555
C16D C18D 1_555 1_555
C17D C21D 1_555 1_555
C17D C22D 1_555 1_555
C19D C20D 1_555 1_555
C20D C22D 1_555 1_555
Ni2F O2F 1_555 1_555
Ni2_2 O2_2 1_555 1_555
Ni2F_2 O2F_2 1_555 1_555

#END
