
#######################################################################
#
#                 Cambridge Crystallographic Data Centre
#                                CCDC 
#
#######################################################################
#
# If this CIF has been generated from an entry in the Cambridge 
# Structural Database, then it will include bibliographic, chemical, 
# crystal, experimental, refinement or atomic coordinate data resulting 
# from the CCDC's data processing and validation procedures.
#
#######################################################################

data_PEFSUQ
_chemical_formula_moiety         '(C72 H106 Cu6 N18 O20)n'
_symmetry_cell_setting           triclinic
_symmetry_space_group_name_H-M   'P 1'
_symmetry_Int_Tables_number      1
_space_group_name_Hall           'P 1'
loop_
_symmetry_equiv_pos_site_id
_symmetry_equiv_pos_as_xyz
1 x,y,z
_cell_length_a                   12.7711(14)
_cell_length_b                   14.229(2)
_cell_length_c                   16.003(2)
_cell_angle_alpha                106.640(2)
_cell_angle_beta                 103.935(3)
_cell_angle_gamma                106.606(3)
_cell_volume                     2499.77
loop_
_atom_site_label
_atom_site_type_symbol
_atom_site_fract_x
_atom_site_fract_y
_atom_site_fract_z
Cu1 Cu 0.46707(8) 0.86680(8) 0.73471(7)
Cu2 Cu 1.27375(8) 1.04311(10) 0.94758(9)
Cu3 Cu 1.41433(9) 1.22627(9) 0.73395(8)
Cu4 Cu 0.30886(9) 1.03766(10) 0.50944(8)
Cu5 Cu 0.51674(8) 0.89039(9) 1.15662(7)
Cu6 Cu 0.21111(9) 0.60459(8) 0.85641(8)
O1 O 0.5874(7) 1.1897(8) 0.4654(7)
O2 O 0.4072(6) 1.1236(7) 0.4613(5)
O3 O 0.2479(5) 0.9614(6) 0.5868(5)
O4 O 0.5301(5) 0.9569(6) 0.6699(5)
O5 O 0.3791(5) 0.8039(5) 0.8027(5)
O6 O 0.2016(5) 0.7467(5) 0.8104(5)
O7 O 0.4386(9) 0.7038(8) 0.6268(6)
O8 O 0.4112(8) 0.5467(7) 0.7080(6)
O9 O 0.2551(6) 0.5443(6) 0.7488(5)
O10 O 0.2066(5) 0.6867(5) 0.9770(5)
O11 O 0.5134(6) 0.7596(5) 1.0644(5)
O12 O 0.4803(6) 1.0091(6) 1.2220(5)
O13 O 0.3335(8) 1.0628(7) 1.2232(6)
O14 O 1.5353(6) 0.9598(6) 1.0413(5)
O15 O 1.3628(5) 0.9731(6) 1.0072(5)
O16 O 1.2067(6) 1.0957(8) 0.8525(7)
O17 O 1.4823(5) 1.1756(5) 0.8283(5)
O18 O 1.3091(7) 1.2381(8) 0.6323(6)
O19 O 1.1363(8) 1.2423(8) 0.5784(8)
O20 O 1.3201(9) 1.1708(9) 1.0985(8)
N1 N 0.1888(7) 1.0800(7) 0.3614(6)
H1 H 0.2573 1.1050 0.3561
N2 N 0.1676(7) 1.0323(7) 0.4231(6)
N3 N 0.4512(7) 1.0264(9) 0.5679(7)
N4 N 0.3247(6) 0.8815(7) 0.6811(6)
N5 N 0.6179(6) 0.8786(6) 0.8137(5)
N6 N 0.6366(6) 0.8884(6) 0.9033(5)
H2 H 0.5848 0.8891 0.9309
N7 N 0.0128(8) 0.4707(10) 0.6943(7)
H3 H 0.0635 0.4720 0.6655
N8 N 0.0425(7) 0.5203(6) 0.7864(6)
N9 N 0.3718(7) 0.6389(6) 0.9255(6)
N10 N 0.3515(7) 0.8154(7) 1.1125(5)
N11 N -0.3162(6) 0.9622(7) 0.2337(5)
N12 N -0.2706(8) 1.0709(7) 0.2703(6)
H4 H -0.3123 1.1102 0.2663
N13 N 1.1142(6) 0.9581(7) 0.9367(6)
N14 N 1.0680(7) 0.8544(7) 0.8816(8)
H5 H 1.1089 0.8165 0.8657
N15 N 1.4150(7) 1.1002(7) 0.9248(7)
N16 N 1.2783(7) 1.1845(6) 0.7635(6)
N17 N -0.4489(7) 0.3013(6) 0.7107(6)
N18 N -0.4618(7) 0.3568(7) 0.6584(6)
H6 H -0.5296 0.3566 0.6289
C1 C 0.5127(9) 1.1322(9) 0.4845(7)
C2 C 0.5476(10) 1.0728(12) 0.5399(10)
H7 H 0.6036 1.1316 0.5998
C3 C 0.4492(7) 0.9773(9) 0.6228(7)
C4 C 0.3279(7) 0.9356(8) 0.6288(7)
C5 C 0.2231(7) 0.8257(9) 0.6994(7)
H8 H 0.1838 0.8746 0.7209
C6 C 0.2705(7) 0.7898(7) 0.7763(6)
C7 C 0.1349(13) 0.7256(18) 0.6137(15)
C8 C -0.002(4) 0.737(2) 0.572(3)
C9 C 0.033(4) 0.827(3) 0.608(3)
C10 C -0.036(3) 0.622(5) 0.488(3)
C11 C 0.0930(12) 1.1256(15) 0.2343(11)
H9 H 0.1737 1.1547 0.2369
H10 H 0.0617 1.1816 0.2431
H11 H 0.0455 1.0680 0.1735
C12 C 0.0902(9) 1.0824(10) 0.3112(8)
C13 C 0.0033(9) 1.0354(9) 0.3384(6)
C14 C 0.0552(8) 1.0049(8) 0.4084(6)
C15 C 0.0007(10) 0.9524(14) 0.4654(9)
H12 H 0.0601 0.9413 0.5087
H13 H -0.0620 0.8839 0.4239
H14 H -0.0313 0.9980 0.5006
C16 C 0.7281(10) 0.8666(14) 0.7040(8)
H15 H 0.6552 0.8593 0.6601
H16 H 0.7447 0.8028 0.6811
H17 H 0.7922 0.9287 0.7099
C17 C 0.7163(7) 0.8807(8) 0.7986(6)
C18 C 0.8015(7) 0.8938(7) 0.8808(6)
C19 C 0.7462(6) 0.8968(7) 0.9441(6)
C20 C 0.7891(9) 0.9133(12) 1.0454(7)
H18 H 0.7254 0.9113 1.0697
H19 H 0.8539 0.9824 1.0804
H20 H 0.8160 0.8570 1.0520
C21 C 0.3640(9) 0.5634(7) 0.7690(8)
C22 C 0.4360(8) 0.6039(8) 0.8701(8)
H21 H 0.5095 0.6647 0.8844
C23 C 0.4669(11) 0.5122(9) 0.8884(10)
C24 C 0.5664(18) 0.5445(14) 0.9762(12)
C25 C 0.578(6) 0.448(3) 0.996(2)
C26 C 0.676(2) 0.596(3) 0.983(3)
C27 C 0.4094(7) 0.7089(8) 1.0069(6)
C28 C 0.3099(8) 0.7366(8) 1.0339(6)
C29 C 0.2832(7) 0.8748(8) 1.1468(6)
H22 H 0.2218 0.8716 1.0926
C30 C 0.2259(12) 0.8358(12) 1.2107(9)
C31 C 0.1138(16) 0.7442(17) 1.1651(15)
C32 C 0.065(3) 0.705(3) 1.235(2)
C33 C 0.0165(14) 0.773(2) 1.1099(17)
C34 C 0.3703(9) 0.9894(10) 1.2011(7)
C35 C -0.2371(9) 0.8214(9) 0.2261(8)
H23 H -0.3195 0.7752 0.1919
H24 H -0.2086 0.8067 0.2817
H25 H -0.1915 0.8078 0.1861
C36 C -0.2247(8) 0.9329(8) 0.2542(6)
C37 C -0.1198(8) 1.0253(8) 0.3042(6)
C38 C -0.1553(8) 1.1098(9) 0.3127(7)
C39 C -0.0869(17) 1.2272(12) 0.3593(17)
H26 H -0.1401 1.2646 0.3522
H27 H -0.0293 1.2480 0.3304
H28 H -0.0467 1.2457 0.4256
C40 C -0.1611(18) 0.358(3) 0.5479(13)
H29 H -0.1012 0.3638 0.5191
H30 H -0.2151 0.3886 0.5223
H31 H -0.2044 0.2838 0.5348
C41 C -0.1048(12) 0.4179(14) 0.6501(8)
C42 C -0.1506(8) 0.4323(8) 0.7201(6)
C43 C -0.0567(8) 0.4950(8) 0.8018(7)
C44 C -0.0591(10) 0.5324(13) 0.8992(8)
H32 H 0.0204 0.5763 0.9434
H33 H -0.0912 0.4708 0.9145
H34 H -0.1081 0.5742 0.9031
C45 C 1.4687(8) 0.9982(8) 1.0095(6)
C46 C 1.5141(6) 1.0832(8) 0.9710(7)
H35 H 1.5508 1.0568 0.9255
C47 C 1.6052(11) 1.1878(12) 1.0523(12)
C48 C 1.7132(17) 1.229(3) 1.066(3)
C49 C 1.780(2) 1.334(2) 1.153(3)
C50 C 1.7805(13) 1.1931(16) 1.0082(18)
C51 C 1.4052(7) 1.1390(7) 0.8605(7)
C52 C 1.2811(8) 1.1361(8) 0.8241(7)
C53 C 1.1735(9) 1.1920(8) 0.7098(8)
H36 H 1.1086 1.1204 0.6800
C54 C 1.2089(10) 1.2264(10) 0.6325(8)
C55 C 1.1340(10) 1.2710(10) 0.7638(10)
C56 C 1.070(2) 1.239(2) 0.823(2)
C57 C 1.056(3) 1.326(2) 0.890(2)
C58 C 0.953(2) 1.149(2) 0.766(2)
C59 C -0.2822(11) 0.2707(13) 0.8053(12)
H37 H -0.3444 0.2259 0.8191
H38 H -0.2233 0.3262 0.8636
H39 H -0.2458 0.2271 0.7733
C60 C -0.3337(8) 0.3217(8) 0.7431(7)
C61 C -0.2779(8) 0.3909(8) 0.7069(7)
C62 C -0.3610(9) 0.4130(11) 0.6553(9)
C63 C -0.3585(16) 0.482(2) 0.6000(18)
H40 H -0.4376 0.4784 0.5727
H41 H -0.3292 0.4568 0.5502
H42 H -0.3072 0.5552 0.6409
C64 C 0.8781(12) 0.7038(9) 0.7879(13)
H43 H 0.9279 0.6646 0.7744
H44 H 0.8307 0.7039 0.7299
H45 H 0.8269 0.6695 0.8163
C65 C 0.9542(8) 0.8175(8) 0.8550(9)
C66 C 0.9211(7) 0.8994(7) 0.8927(6)
C67 C 1.0252(7) 0.9842(8) 0.9424(7)
C68 C 1.0428(9) 1.0990(10) 0.9930(9)
H46 H 1.1265 1.1426 1.0223
H47 H 1.0069 1.1030 1.0409
H48 H 1.0063 1.1252 0.9483
C69 C 0.544(3) 0.914(2) 0.4259(19)
C70 C 0.621(2) 1.013(2) 0.515(2)
C71 C 0.618(4) 0.844(3) 0.413(3)
C72 C 0.438(5) 0.851(4) 0.443(7)
Cu3_2 Cu -0.58567(9) 0.22627(9) 0.73395(8)
Cu5_2 Cu 1.51674(8) 0.89039(9) 1.15662(7)
Cu5_3 Cu -0.48326(8) 0.89039(9) 0.15662(7)
O14_2 O 0.5353(6) 0.9598(6) 1.0413(5)
N11_2 N 0.6838(6) 0.9622(7) 1.2337(5)
N17_2 N 1.5511(7) 1.3013(6) 0.7107(6)
loop_
_geom_bond_atom_site_label_1
_geom_bond_atom_site_label_2
_geom_bond_site_symmetry_1
_geom_bond_site_symmetry_2
Cu1 O4 1_555 1_555
Cu2 O15 1_555 1_555
Cu3 O17 1_555 1_555
Cu4 O2 1_555 1_555
Cu5 O11 1_555 1_555
Cu6 O6 1_555 1_555
O1 C1 1_555 1_555
O2 C1 1_555 1_555
O3 Cu4 1_555 1_555
O4 C3 1_555 1_555
O5 Cu1 1_555 1_555
O6 C6 1_555 1_555
O7 Cu1 1_555 1_555
O8 C21 1_555 1_555
O9 Cu6 1_555 1_555
O10 Cu6 1_555 1_555
O11 C27 1_555 1_555
O12 Cu5 1_555 1_555
O13 C34 1_555 1_555
O14 C45 1_555 1_555
O15 C45 1_555 1_555
O16 Cu2 1_555 1_555
O17 C51 1_555 1_555
O18 Cu3 1_555 1_555
O19 C54 1_555 1_555
O20 Cu2 1_555 1_555
N1 H1 1_555 1_555
N2 Cu4 1_555 1_555
N3 Cu4 1_555 1_555
N4 Cu1 1_555 1_555
N5 Cu1 1_555 1_555
N6 N5 1_555 1_555
H2 N6 1_555 1_555
N7 H3 1_555 1_555
N8 Cu6 1_555 1_555
N9 Cu6 1_555 1_555
N10 Cu5 1_555 1_555
N11 N12 1_555 1_555
N12 H4 1_555 1_555
N13 Cu2 1_555 1_555
N14 N13 1_555 1_555
H5 N14 1_555 1_555
N15 Cu2 1_555 1_555
N16 Cu3 1_555 1_555
N17 N18 1_555 1_555
N18 H6 1_555 1_555
C1 C2 1_555 1_555
C2 N3 1_555 1_555
H7 C2 1_555 1_555
C3 N3 1_555 1_555
C4 O3 1_555 1_555
C5 N4 1_555 1_555
H8 C5 1_555 1_555
C6 O5 1_555 1_555
C7 C5 1_555 1_555
C8 C7 1_555 1_555
C9 C8 1_555 1_555
C10 C8 1_555 1_555
C11 H9 1_555 1_555
H10 C11 1_555 1_555
H11 C11 1_555 1_555
C12 N1 1_555 1_555
C13 C12 1_555 1_555
C14 N2 1_555 1_555
C15 C14 1_555 1_555
H12 C15 1_555 1_555
H13 C15 1_555 1_555
H14 C15 1_555 1_555
C16 H15 1_555 1_555
H16 C16 1_555 1_555
H17 C16 1_555 1_555
C17 N5 1_555 1_555
C18 C17 1_555 1_555
C19 N6 1_555 1_555
C20 C19 1_555 1_555
H18 C20 1_555 1_555
H19 C20 1_555 1_555
H20 C20 1_555 1_555
C21 O9 1_555 1_555
C22 N9 1_555 1_555
H21 C22 1_555 1_555
C23 C22 1_555 1_555
C24 C23 1_555 1_555
C25 C24 1_555 1_555
C26 C24 1_555 1_555
C27 N9 1_555 1_555
C28 O10 1_555 1_555
C29 N10 1_555 1_555
H22 C29 1_555 1_555
C30 C29 1_555 1_555
C31 C30 1_555 1_555
C32 C31 1_555 1_555
C33 C31 1_555 1_555
C34 O12 1_555 1_555
C35 H23 1_555 1_555
H24 C35 1_555 1_555
H25 C35 1_555 1_555
C36 N11 1_555 1_555
C37 C13 1_555 1_555
C38 N12 1_555 1_555
C39 C38 1_555 1_555
H26 C39 1_555 1_555
H27 C39 1_555 1_555
H28 C39 1_555 1_555
C40 H29 1_555 1_555
H30 C40 1_555 1_555
H31 C40 1_555 1_555
C41 N7 1_555 1_555
C42 C41 1_555 1_555
C43 N8 1_555 1_555
C44 C43 1_555 1_555
H32 C44 1_555 1_555
H33 C44 1_555 1_555
H34 C44 1_555 1_555
C45 C46 1_555 1_555
C46 N15 1_555 1_555
H35 C46 1_555 1_555
C47 C46 1_555 1_555
C48 C47 1_555 1_555
C49 C48 1_555 1_555
C50 C48 1_555 1_555
C51 N15 1_555 1_555
C52 O16 1_555 1_555
C53 N16 1_555 1_555
H36 C53 1_555 1_555
C54 O18 1_555 1_555
C55 C53 1_555 1_555
C56 C55 1_555 1_555
C57 C56 1_555 1_555
C58 C56 1_555 1_555
C59 H37 1_555 1_555
H38 C59 1_555 1_555
H39 C59 1_555 1_555
C60 N17 1_555 1_555
C61 C42 1_555 1_555
C62 N18 1_555 1_555
C63 C62 1_555 1_555
H40 C63 1_555 1_555
H41 C63 1_555 1_555
H42 C63 1_555 1_555
C64 H43 1_555 1_555
H44 C64 1_555 1_555
H45 C64 1_555 1_555
C65 N14 1_555 1_555
C66 C18 1_555 1_555
C67 N13 1_555 1_555
C68 C67 1_555 1_555
H46 C68 1_555 1_555
H47 C68 1_555 1_555
H48 C68 1_555 1_555
C69 C70 1_555 1_555
C70 C2 1_555 1_555
C71 C69 1_555 1_555
C72 C69 1_555 1_555
Cu3_2 N17 1_555 1_555
Cu5_2 O14 1_555 1_555
Cu5_3 N11 1_555 1_555
O14_2 Cu5 1_555 1_555
N11_2 Cu5 1_555 1_555
N17_2 Cu3 1_555 1_555
N1 N2 1_555 1_555
N4 C4 1_555 1_555
N7 N8 1_555 1_555
N10 C28 1_555 1_555
N16 C52 1_555 1_555
C3 C4 1_555 1_555
C5 C6 1_555 1_555
C11 C12 1_555 1_555
C13 C14 1_555 1_555
C16 C17 1_555 1_555
C18 C19 1_555 1_555
C21 C22 1_555 1_555
C27 C28 1_555 1_555
C29 C34 1_555 1_555
C35 C36 1_555 1_555
C36 C37 1_555 1_555
C37 C38 1_555 1_555
C40 C41 1_555 1_555
C42 C43 1_555 1_555
C51 C52 1_555 1_555
C53 C54 1_555 1_555
C59 C60 1_555 1_555
C60 C61 1_555 1_555
C61 C62 1_555 1_555
C64 C65 1_555 1_555
C65 C66 1_555 1_555
C66 C67 1_555 1_555

#END
