
#######################################################################
#
#                 Cambridge Crystallographic Data Centre
#                                CCDC 
#
#######################################################################
#
# If this CIF has been generated from an entry in the Cambridge 
# Structural Database, then it will include bibliographic, chemical, 
# crystal, experimental, refinement or atomic coordinate data resulting 
# from the CCDC's data processing and validation procedures.
#
#######################################################################

data_PEFTAX
_chemical_formula_moiety         '(C36 H48 Cu4 N12 O14)n'
_symmetry_cell_setting           orthorhombic
_symmetry_space_group_name_H-M   'P 21 21 2'
_symmetry_Int_Tables_number      18
_space_group_name_Hall           'P 2 2ab'
loop_
_symmetry_equiv_pos_site_id
_symmetry_equiv_pos_as_xyz
1 x,y,z
2 -x,-y,z
3 1/2+x,1/2-y,-z
4 1/2-x,1/2+y,-z
_cell_length_a                   10.7957(6)
_cell_length_b                   26.9671(17)
_cell_length_c                   9.6972(4)
_cell_angle_alpha                90
_cell_angle_beta                 90
_cell_angle_gamma                90
_cell_volume                     2823.13
loop_
_atom_site_label
_atom_site_type_symbol
_atom_site_fract_x
_atom_site_fract_y
_atom_site_fract_z
Cu1 Cu -0.61493(4) -0.332123(15) -0.31405(5)
Cu2 Cu -0.38980(4) -0.166095(14) -0.18675(4)
O1 O -0.6829(3) -0.34531(10) -0.5018(3)
O3 O -0.5130(3) -0.30488(10) -0.1570(3)
O4 O -0.4968(3) -0.19227(10) -0.3428(3)
O5 O -0.3176(3) -0.15277(10) -0.0019(3)
O6 O -0.2960(3) -0.18490(12) 0.2078(3)
O7 O -0.7167(3) -0.31043(13) -0.7054(3)
N1 N -0.5901(3) -0.26792(12) -0.3907(3)
N2 N -0.4296(3) -0.22803(12) -0.1032(3)
N3 N -0.6035(4) -0.40102(12) -0.2478(3)
N4 N -0.6584(3) -0.41609(12) -0.1332(4)
H1 H -0.7140 -0.3986 -0.0878
N5 N -0.3366(3) -0.08349(12) -0.3735(4)
H2 H -0.2798 -0.1007 -0.4177
N6 N -0.3926(4) -0.09877(12) -0.2552(4)
C1 C -0.7505(5) -0.22285(19) -0.5194(6)
H3 H -0.7237 -0.1907 -0.4829
H4 H -0.8142 -0.2369 -0.4590
H5 H -0.7845 -0.2184 -0.6122
C2 C -0.6410(4) -0.25768(15) -0.5255(4)
H6 H -0.5752 -0.2433 -0.5861
C3 C -0.6826(4) -0.30823(16) -0.5835(4)
C4 C -0.5270(3) -0.23703(13) -0.3166(4)
C5 C -0.4869(3) -0.25987(13) -0.1811(4)
C6 C -0.3837(5) -0.23709(17) 0.0350(4)
H7 H -0.3174 -0.2629 0.0305
C7 C -0.4852(7) -0.2550(3) 0.1314(5)
H8 H -0.5190 -0.2864 0.0970
H9 H -0.5514 -0.2302 0.1354
H10 H -0.4509 -0.2600 0.2239
C8 C -0.3267(4) -0.18863(16) 0.0861(4)
C9 C -0.4524(6) -0.4322(2) -0.4139(7)
H11 H -0.4663 -0.3995 -0.4548
H12 H -0.4772 -0.4580 -0.4797
H13 H -0.3644 -0.4361 -0.3915
C10 C -0.5277(4) -0.43708(15) -0.2853(5)
C11 C -0.5352(3) -0.47644(14) -0.1935(5)
C12 C -0.6194(5) -0.46104(16) -0.0947(6)
C13 C -0.6694(8) -0.4860(2) 0.0282(8)
H14 H -0.7282 -0.4640 0.0748
H15 H -0.6014 -0.4941 0.0914
H16 H -0.7118 -0.5165 0.0005
C14 C -0.3348(8) -0.0158(2) -0.5462(8)
H17 H -0.2728 -0.0372 -0.5899
H18 H -0.2979 0.0166 -0.5263
H19 H -0.4054 -0.0115 -0.6087
C15 C -0.3781(4) -0.03913(16) -0.4147(6)
C16 C -0.4643(3) -0.02330(13) -0.3197(5)
C17 C -0.4722(5) -0.06151(17) -0.2222(5)
C18 C -0.5534(7) -0.0663(2) -0.0984(8)
H20 H -0.5354 -0.0977 -0.0514
H21 H -0.6404 -0.0659 -0.1272
H22 H -0.5376 -0.0386 -0.0354
Cu1A Cu -0.38507(4) -0.667877(15) -0.31405(5)
Cu1B Cu -0.11493(4) -0.167877(15) 0.31405(5)
Cu1C Cu -0.88507(4) -0.832123(15) 0.31405(5)
Cu2A Cu -0.61020(4) -0.833905(14) -0.18675(4)
Cu2A_2 Cu -0.61020(4) 0.166095(14) -0.18675(4)
Cu2B Cu -0.88980(4) -0.333905(14) -0.81325(4)
Cu2C Cu -0.11020(4) -0.666095(14) -0.81325(4)
O1A O -0.3171(3) -0.65469(10) -0.5018(3)
O3A O -0.4870(3) -0.69512(10) -0.1570(3)
O4A O -0.5032(3) -0.80773(10) -0.3428(3)
O5A O -0.6824(3) -0.84723(10) -0.0019(3)
O6A O -0.7040(3) -0.81510(12) 0.2078(3)
O6B O -0.7960(3) -0.31510(12) -0.2078(3)
O6C O -0.2040(3) -0.68490(12) -0.2078(3)
O7A O -0.2833(3) -0.68957(13) -0.7054(3)
O7B O -0.2167(3) -0.18957(13) -0.2946(3)
O7C O -0.7833(3) -0.81043(13) -0.2946(3)
N1A N -0.4099(3) -0.73208(12) -0.3907(3)
N2A N -0.5704(3) -0.77197(12) -0.1032(3)
N3A N -0.3965(4) -0.59898(12) -0.2478(3)
N4A N -0.3416(3) -0.58391(12) -0.1332(4)
H1A H -0.2860 -0.6014 -0.0878
N5A N -0.6634(3) 0.08349(12) -0.3735(4)
H2A H -0.7202 0.1007 -0.4177
N6A N -0.6074(4) 0.09877(12) -0.2552(4)
N6A_2 N -0.6074(4) -0.90123(12) -0.2552(4)
C1A C -0.2495(5) -0.77715(19) -0.5194(6)
H3A H -0.2763 -0.8093 -0.4829
H4A H -0.1858 -0.7631 -0.4590
H5A H -0.2155 -0.7816 -0.6122
C2A C -0.3590(4) -0.74232(15) -0.5255(4)
H6A H -0.4248 -0.7567 -0.5861
C3A C -0.3174(4) -0.69177(16) -0.5835(4)
C4A C -0.4730(3) -0.76297(13) -0.3166(4)
C5A C -0.5131(3) -0.74013(13) -0.1811(4)
C6A C -0.6163(5) -0.76291(17) 0.0350(4)
H7A H -0.6826 -0.7371 0.0305
C7A C -0.5148(7) -0.7450(3) 0.1314(5)
H8A H -0.4810 -0.7136 0.0970
H9A H -0.4486 -0.7698 0.1354
H10A H -0.5491 -0.7400 0.2239
C8A C -0.6733(4) -0.81137(16) 0.0861(4)
C9A C -0.5476(6) -0.5678(2) -0.4139(7)
H11A H -0.5337 -0.6005 -0.4548
H12A H -0.5228 -0.5420 -0.4797
H13A H -0.6356 -0.5639 -0.3915
C10A C -0.4723(4) -0.56292(15) -0.2853(5)
C11A C -0.4648(3) -0.52356(14) -0.1935(5)
C12A C -0.3806(5) -0.53896(16) -0.0947(6)
C13A C -0.3306(8) -0.5140(2) 0.0282(8)
H14A H -0.2718 -0.5360 0.0748
H15A H -0.3986 -0.5059 0.0914
H16A H -0.2882 -0.4835 0.0005
C14A C -0.6652(8) 0.0158(2) -0.5462(8)
H17A H -0.7272 0.0372 -0.5899
H18A H -0.7021 -0.0166 -0.5263
H19A H -0.5946 0.0115 -0.6087
C15A C -0.6219(4) 0.03913(16) -0.4147(6)
C16A C -0.5357(3) 0.02330(13) -0.3197(5)
C17A C -0.5278(5) 0.06151(17) -0.2222(5)
C18A C -0.4466(7) 0.0663(2) -0.0984(8)
H20A H -0.4646 0.0977 -0.0514
H21A H -0.3596 0.0659 -0.1272
H22A H -0.4624 0.0386 -0.0354
O2 O -0.9928(5) -0.3574(2) -0.3843(5)
O8 O -0.3455(12) -0.3717(5) -0.0289(13)
loop_
_geom_bond_atom_site_label_1
_geom_bond_atom_site_label_2
_geom_bond_site_symmetry_1
_geom_bond_site_symmetry_2
Cu1 O1 1_555 1_555
Cu2 O4 1_555 1_555
O1 C3 1_555 1_555
O3 Cu1 1_555 1_555
O4 C4 1_555 1_555
O5 Cu2 1_555 1_555
O6 C8 1_555 1_555
O7 C3 1_555 1_555
N1 Cu1 1_555 1_555
N2 Cu2 1_555 1_555
N3 Cu1 1_555 1_555
N4 N3 1_555 1_555
H1 N4 1_555 1_555
N5 H2 1_555 1_555
N6 Cu2 1_555 1_555
C1 H3 1_555 1_555
H4 C1 1_555 1_555
H5 C1 1_555 1_555
C2 N1 1_555 1_555
H6 C2 1_555 1_555
C3 C2 1_555 1_555
C4 N1 1_555 1_555
C5 O3 1_555 1_555
C6 N2 1_555 1_555
H7 C6 1_555 1_555
C7 C6 1_555 1_555
H8 C7 1_555 1_555
H9 C7 1_555 1_555
H10 C7 1_555 1_555
C8 O5 1_555 1_555
C9 H11 1_555 1_555
H12 C9 1_555 1_555
H13 C9 1_555 1_555
C10 N3 1_555 1_555
C11 C10 1_555 1_555
C12 N4 1_555 1_555
C13 C12 1_555 1_555
H14 C13 1_555 1_555
H15 C13 1_555 1_555
H16 C13 1_555 1_555
C14 H17 1_555 1_555
H18 C14 1_555 1_555
H19 C14 1_555 1_555
C15 N5 1_555 1_555
C16 C15 1_555 1_555
C17 N6 1_555 1_555
C18 C17 1_555 1_555
H20 C18 1_555 1_555
H21 C18 1_555 1_555
H22 C18 1_555 1_555
Cu1A O1A 1_555 1_555
Cu1B O6 1_555 1_555
Cu1C O6A 1_555 1_555
Cu2A O4A 1_555 1_555
Cu2A_2 N6A 1_555 1_555
Cu2B O7 1_555 1_555
Cu2C O7A 1_555 1_555
O1A C3A 1_555 1_555
O3A Cu1A 1_555 1_555
O4A C4A 1_555 1_555
O5A Cu2A 1_555 1_555
O6A C8A 1_555 1_555
O6B Cu1 1_555 1_555
O6C Cu1A 1_555 1_555
O7A C3A 1_555 1_555
O7B Cu2 1_555 1_555
O7C Cu2A 1_555 1_555
N1A Cu1A 1_555 1_555
N2A Cu2A 1_555 1_555
N3A Cu1A 1_555 1_555
N4A N3A 1_555 1_555
H1A N4A 1_555 1_555
N5A H2A 1_555 1_555
N6A N5A 1_555 1_555
N6A_2 Cu2A 1_555 1_555
C1A H3A 1_555 1_555
H4A C1A 1_555 1_555
H5A C1A 1_555 1_555
C2A N1A 1_555 1_555
H6A C2A 1_555 1_555
C3A C2A 1_555 1_555
C4A N1A 1_555 1_555
C5A O3A 1_555 1_555
C6A N2A 1_555 1_555
H7A C6A 1_555 1_555
C7A C6A 1_555 1_555
H8A C7A 1_555 1_555
H9A C7A 1_555 1_555
H10A C7A 1_555 1_555
C8A O5A 1_555 1_555
C9A H11A 1_555 1_555
H12A C9A 1_555 1_555
H13A C9A 1_555 1_555
C10A N3A 1_555 1_555
C11A C11 1_555 1_555
C12A N4A 1_555 1_555
C13A C12A 1_555 1_555
H14A C13A 1_555 1_555
H15A C13A 1_555 1_555
H16A C13A 1_555 1_555
C14A H17A 1_555 1_555
H18A C14A 1_555 1_555
H19A C14A 1_555 1_555
C15A N5A 1_555 1_555
C16A C16 1_555 1_555
C17A N6A 1_555 1_555
C18A C17A 1_555 1_555
H20A C18A 1_555 1_555
H21A C18A 1_555 1_555
H22A C18A 1_555 1_555
N2 C5 1_555 1_555
N5 N6 1_555 1_555
C1 C2 1_555 1_555
C4 C5 1_555 1_555
C6 C8 1_555 1_555
C9 C10 1_555 1_555
C11 C12 1_555 1_555
C14 C15 1_555 1_555
C16 C17 1_555 1_555
N2A C5A 1_555 1_555
C1A C2A 1_555 1_555
C4A C5A 1_555 1_555
C6A C8A 1_555 1_555
C9A C10A 1_555 1_555
C10A C11A 1_555 1_555
C11A C12A 1_555 1_555
C14A C15A 1_555 1_555
C15A C16A 1_555 1_555
C16A C17A 1_555 1_555

#END
