
#######################################################################
#
#                 Cambridge Crystallographic Data Centre
#                                CCDC 
#
#######################################################################
#
# If this CIF has been generated from an entry in the Cambridge 
# Structural Database, then it will include bibliographic, chemical, 
# crystal, experimental, refinement or atomic coordinate data resulting 
# from the CCDC's data processing and validation procedures.
#
#######################################################################

data_DUKDIX
_chemical_formula_moiety         '(C14 H13 Ag1 Cl1 Er1 N2 O11)n'
_symmetry_cell_setting           monoclinic
_symmetry_space_group_name_H-M   'P 21/c'
_symmetry_Int_Tables_number      14
_space_group_name_Hall           '-P 2ybc'
loop_
_symmetry_equiv_pos_site_id
_symmetry_equiv_pos_as_xyz
1 x,y,z
2 -x,1/2+y,1/2-z
3 -x,-y,-z
4 x,1/2-y,1/2+z
_cell_length_a                   16.1952(11)
_cell_length_b                   14.8673(11)
_cell_length_c                   7.8938(6)
_cell_angle_alpha                90
_cell_angle_beta                 91.7830(10)
_cell_angle_gamma                90
_cell_volume                     1899.74
loop_
_atom_site_label
_atom_site_type_symbol
_atom_site_fract_x
_atom_site_fract_y
_atom_site_fract_z
Er1 Er 0.955305(12) 0.883792(13) 0.05025(3)
Ag1 Ag 1.47352(3) 0.75944(4) -0.39945(8)
N1 N 1.3573(3) 0.8031(3) -0.3027(7)
N2 N 0.5953(3) 0.7519(3) 0.4993(6)
C1 C 1.1321(3) 0.9198(3) -0.1371(7)
C2 C 1.2108(3) 0.8771(3) -0.1952(7)
C3 C 1.2810(3) 0.9282(4) -0.2032(8)
H1 H 1.2800 0.9886 -0.1729
C4 C 1.3527(4) 0.8895(4) -0.2564(9)
H2 H 1.4000 0.9247 -0.2603
C5 C 1.2890(3) 0.7534(4) -0.2934(9)
H3 H 1.2914 0.6930 -0.3233
C6 C 1.2147(3) 0.7879(4) -0.2411(8)
H4 H 1.1681 0.7515 -0.2370
C7 C 0.6342(3) 0.8284(4) 0.4605(8)
H5 H 0.6076 0.8829 0.4779
C8 C 0.7122(3) 0.8291(4) 0.3959(7)
H6 H 0.7372 0.8833 0.3685
C9 C 0.7531(3) 0.7488(3) 0.3719(6)
C10 C 0.8387(3) 0.7489(3) 0.3028(6)
C11 C 0.7136(3) 0.6701(3) 0.4129(7)
H7 H 0.7394 0.6149 0.3982
C12 C 0.6349(3) 0.6742(4) 0.4763(7)
H8 H 0.6085 0.6208 0.5040
O1 O 1.0753(2) 0.8672(2) -0.0926(5)
O2 O 1.1298(2) 1.0037(2) -0.1382(5)
O3 O 0.85978(19) 0.8158(2) 0.2194(4)
O4 O 0.88366(18) 0.6813(2) 0.3316(4)
O5 O 0.9992(2) 0.7323(2) 0.0767(5)
H9 H 1.017(3) 0.702(3) 0.001(5)
H10 H 0.978(3) 0.697(3) 0.142(5)
O6 O 1.0346(2) 0.8847(2) 0.3130(4)
O7 O 1.0476(2) 1.0034(2) 0.1567(4)
C13 C 1.0687(3) 0.9591(3) 0.2875(6)
C14 C 1.1431(13) 0.9863(19) 0.395(3)
H11 H 1.1728 1.0327 0.3385
H12 H 1.1785 0.9351 0.4129
H13 H 1.1255 1.0082 0.5024
Er1B Er 1.044695(12) 1.116208(13) -0.05025(3)
Er1C Er 0.955305(12) 0.616208(13) 0.55025(3)
Ag1_2 Ag 0.47352(3) 0.75944(4) 0.60055(8)
N2_2 N 1.5953(3) 0.7519(3) -0.5007(6)
O2B O 0.8702(2) 0.9963(2) 0.1382(5)
O4C O 0.88366(18) 0.8187(2) -0.1684(4)
O7B O 0.9524(2) 0.9966(2) -0.1567(4)
Cl1 Cl 0.41931(12) 0.95905(12) 0.2564(3)
O8 O 0.4567(10) 1.0457(8) 0.258(2)
O9 O 0.4751(9) 0.8918(9) 0.291(2)
O10 O 0.3797(10) 0.9472(9) 0.0979(14)
O11 O 0.3546(9) 0.9614(10) 0.3794(19)
loop_
_geom_bond_atom_site_label_1
_geom_bond_atom_site_label_2
_geom_bond_site_symmetry_1
_geom_bond_site_symmetry_2
Er1 O1 1_555 1_555
Ag1 N1 1_555 1_555
N1 C4 1_555 1_555
N2 C7 1_555 1_555
C1 C2 1_555 1_555
C2 C3 1_555 1_555
C3 H1 1_555 1_555
C4 C3 1_555 1_555
H2 C4 1_555 1_555
C5 N1 1_555 1_555
H3 C5 1_555 1_555
C6 C2 1_555 1_555
H4 C6 1_555 1_555
C7 H5 1_555 1_555
C8 C7 1_555 1_555
H6 C8 1_555 1_555
C9 C8 1_555 1_555
C10 C9 1_555 1_555
C11 C9 1_555 1_555
H7 C11 1_555 1_555
C12 N2 1_555 1_555
H8 C12 1_555 1_555
O1 C1 1_555 1_555
O2 C1 1_555 1_555
O3 Er1 1_555 1_555
O4 C10 1_555 1_555
O5 Er1 1_555 1_555
H9 O5 1_555 1_555
H10 O5 1_555 1_555
O6 Er1 1_555 1_555
O7 Er1 1_555 1_555
C13 O6 1_555 1_555
C14 C13 1_555 1_555
H11 C14 1_555 1_555
H12 C14 1_555 1_555
H13 C14 1_555 1_555
Cl1 O8 1_555 1_555
O9 Cl1 1_555 1_555
O10 Cl1 1_555 1_555
O11 Cl1 1_555 1_555
Er1B O2 1_555 1_555
Er1C O4 1_555 1_555
Ag1_2 N2 1_555 1_555
N2_2 Ag1 1_555 1_555
O2B Er1 1_555 1_555
O4C Er1 1_555 1_555
O7B Er1 1_555 1_555
C5 C6 1_555 1_555
C10 O3 1_555 1_555
C11 C12 1_555 1_555
O7 C13 1_555 1_555
O7 Er1B 1_555 1_555
Er1B O7B 1_555 1_555

#END
