
#######################################################################
#
#                 Cambridge Crystallographic Data Centre
#                                CCDC 
#
#######################################################################
#
# If this CIF has been generated from an entry in the Cambridge 
# Structural Database, then it will include bibliographic, chemical, 
# crystal, experimental, refinement or atomic coordinate data resulting 
# from the CCDC's data processing and validation procedures.
#
#######################################################################

data_EVOMOR
_chemical_formula_moiety         '(C38 H36 Mn2 N6 O10)n'
_symmetry_cell_setting           monoclinic
_symmetry_space_group_name_H-M   'P 21/c'
_symmetry_Int_Tables_number      14
_space_group_name_Hall           '-P 2ybc'
loop_
_symmetry_equiv_pos_site_id
_symmetry_equiv_pos_as_xyz
1 x,y,z
2 x,1/2-y,1/2+z
3 -x,-y,-z
4 -x,1/2+y,1/2-z
_cell_length_a                   11.7070(11)
_cell_length_b                   17.8824(16)
_cell_length_c                   8.8647(8)
_cell_angle_alpha                90
_cell_angle_beta                 99.713(2)
_cell_angle_gamma                90
_cell_volume                     1829.22
loop_
_atom_site_label
_atom_site_type_symbol
_atom_site_fract_x
_atom_site_fract_y
_atom_site_fract_z
Mn1 Mn 0.61880(5) 0.82992(3) 0.20599(7)
O1 O 0.6146(3) 0.95051(17) 0.1846(3)
O2 O 0.6489(4) 0.99740(19) 0.4181(4)
O3 O 0.4120(3) 1.19403(16) 0.0346(3)
O4 O 0.3876(3) 1.20767(15) 0.2746(3)
O5 O 0.6590(3) 0.85278(18) 0.4500(3)
H1 H 0.641(4) 0.830(2) 0.525(4)
H2 H 0.652(6) 0.8998(13) 0.459(8)
N1 N 0.8147(3) 0.8276(2) 0.1988(4)
N2 N 1.4227(3) 0.8306(2) 0.2053(4)
C1 C 0.8624(4) 0.7909(3) 0.0939(7)
H3 H 0.8139 0.7646 0.0183
C2 C 0.9791(4) 0.7900(3) 0.0922(7)
H4 H 1.0076 0.7632 0.0166
C3 C 1.0548(4) 0.8281(2) 0.2007(5)
C4 C 1.0051(4) 0.8661(3) 0.3071(6)
H5 H 1.0519 0.8929 0.3837
C5 C 0.8870(4) 0.8651(3) 0.3023(6)
H6 H 0.8565 0.8923 0.3756
C6 C 1.1820(3) 0.8289(2) 0.2026(5)
C7 C 1.2336(4) 0.7825(3) 0.1086(6)
H7 H 1.1885 0.7496 0.0424
C8 C 1.3521(4) 0.7851(3) 0.1132(5)
H8 H 1.3845 0.7534 0.0487
C9 C 1.3733(4) 0.8753(3) 0.2967(5)
H9 H 1.4205 0.9075 0.3622
C10 C 1.2558(4) 0.8760(3) 0.2985(5)
H10 H 1.2257 0.9082 0.3642
C11 C 0.6170(4) 1.0031(2) 0.2783(6)
C12 C 0.5766(4) 1.0794(3) 0.2152(7)
H11 H 0.6141 1.1179 0.2831
H12 H 0.5997 1.0862 0.1160
C13 C 0.4466(4) 1.0881(2) 0.1986(5)
H13 H 0.4090 1.0567 0.1156
H14 H 0.4213 1.0719 0.2921
C14 C 0.4118(3) 1.1682(2) 0.1665(4)
O1B O 0.3854(3) 1.04949(17) -0.1846(3)
O2B O 0.3511(4) 1.00260(19) -0.4181(4)
O3B O 0.5880(3) 0.80597(16) -0.0346(3)
O4B O 0.6124(3) 0.79233(15) -0.2746(3)
C11B C 0.3830(4) 0.9969(2) -0.2783(6)
C12B C 0.4234(4) 0.9206(3) -0.2152(7)
H11B H 0.3859 0.8821 -0.2831
H12B H 0.4003 0.9138 -0.1160
C13B C 0.5534(4) 0.9119(2) -0.1986(5)
H13B H 0.5910 0.9433 -0.1156
H14B H 0.5787 0.9281 -0.2921
C14B C 0.5882(3) 0.8318(2) -0.1665(4)
N1_2 N -0.1853(3) 0.8276(2) 0.1988(4)
N2_2 N 0.4227(3) 0.8306(2) 0.2053(4)
C1_2 C -0.1376(4) 0.7909(3) 0.0939(7)
H3_2 H -0.1861 0.7646 0.0183
C2_2 C -0.0209(4) 0.7900(3) 0.0922(7)
H4_2 H 0.0076 0.7632 0.0166
C3_2 C 0.0548(4) 0.8281(2) 0.2007(5)
C4_2 C 0.0051(4) 0.8661(3) 0.3071(6)
H5_2 H 0.0519 0.8929 0.3837
C5_2 C -0.1130(4) 0.8651(3) 0.3023(6)
H6_2 H -0.1435 0.8923 0.3756
C6_2 C 0.1820(3) 0.8289(2) 0.2026(5)
C7_2 C 0.2336(4) 0.7825(3) 0.1086(6)
H7_2 H 0.1885 0.7496 0.0424
C8_2 C 0.3521(4) 0.7851(3) 0.1132(5)
H8_2 H 0.3845 0.7534 0.0487
C9_2 C 0.3733(4) 0.8753(3) 0.2967(5)
H9_2 H 0.4205 0.9075 0.3622
C10_2 C 0.2558(4) 0.8760(3) 0.2985(5)
H10_2 H 0.2257 0.9082 0.3642
Mn1B Mn 0.38120(5) 1.17008(3) -0.20599(7)
O5B O 0.3410(3) 1.14722(18) -0.4500(3)
H1B H 0.359(4) 1.170(2) -0.525(4)
H2B H 0.348(6) 1.1002(13) -0.459(8)
O4C O 0.6124(3) 0.70767(15) 0.2254(3)
Mn1C Mn 0.38120(5) 1.32992(3) 0.29401(7)
Mn1_2 Mn 1.61880(5) 0.82992(3) 0.20599(7)
Mn1A Mn 0.61880(5) 0.67008(3) -0.29401(7)
Mn1_3 Mn -0.38120(5) 0.82992(3) 0.20599(7)
O4A O 0.3876(3) 1.29233(15) -0.2254(3)
N1B N 0.1853(3) 1.1724(2) -0.1988(4)
N2B N 0.5773(3) 1.1694(2) -0.2053(4)
N3 N 1.0058(6) 0.6112(4) 0.1706(8)
C15 C 1.0991(7) 0.5803(5) 0.2482(9)
H15 H 1.1686 0.5877 0.2129
C16 C 1.1018(6) 0.5379(4) 0.3771(8)
H16 H 1.1720 0.5192 0.4279
C17 C 1.0012(5) 0.5229(3) 0.4319(6)
C18 C 0.9034(6) 0.5536(4) 0.3492(8)
H17 H 0.8319 0.5450 0.3787
C19 C 0.9093(8) 0.5968(6) 0.2240(10)
H18 H 0.8408 0.6174 0.1726
C17B C 0.9988(5) 0.4771(3) 0.5681(6)
C16B C 0.8982(6) 0.4621(4) 0.6229(8)
C15B C 0.9009(7) 0.4197(5) 0.7518(9)
N3B N 0.9942(6) 0.3888(4) 0.8294(8)
C19B C 1.0907(8) 0.4032(6) 0.7760(10)
C18B C 1.0966(6) 0.4464(4) 0.6508(8)
H17B H 1.1681 0.4550 0.6213
H18B H 1.1592 0.3826 0.8274
H15B H 0.8314 0.4123 0.7871
H16B H 0.8280 0.4808 0.5721
loop_
_geom_bond_atom_site_label_1
_geom_bond_atom_site_label_2
_geom_bond_site_symmetry_1
_geom_bond_site_symmetry_2
Mn1 O1 1_555 1_555
O1 C11 1_555 1_555
O2 C11 1_555 1_555
O3 C14 1_555 1_555
O4 C14 1_555 1_555
O5 Mn1 1_555 1_555
H1 O5 1_555 1_555
H2 O5 1_555 1_555
N1 Mn1 1_555 1_555
N2 C8 1_555 1_555
N3 C15 1_555 1_555
C1 N1 1_555 1_555
H3 C1 1_555 1_555
C2 C1 1_555 1_555
H4 C2 1_555 1_555
C3 C2 1_555 1_555
C4 C3 1_555 1_555
H5 C4 1_555 1_555
C5 N1 1_555 1_555
H6 C5 1_555 1_555
C6 C3 1_555 1_555
C7 C6 1_555 1_555
H7 C7 1_555 1_555
C8 C7 1_555 1_555
H8 C8 1_555 1_555
C9 N2 1_555 1_555
H9 C9 1_555 1_555
C10 C6 1_555 1_555
H10 C10 1_555 1_555
C11 C12 1_555 1_555
C12 H11 1_555 1_555
H12 C12 1_555 1_555
C13 C12 1_555 1_555
H13 C13 1_555 1_555
H14 C13 1_555 1_555
C14 C13 1_555 1_555
C15 H15 1_555 1_555
C16 C15 1_555 1_555
H16 C16 1_555 1_555
C17 C16 1_555 1_555
C18 C17 1_555 1_555
H17 C18 1_555 1_555
C19 N3 1_555 1_555
H18 C19 1_555 1_555
C17B C17 1_555 1_555
C16B C17B 1_555 1_555
C15B C16B 1_555 1_555
N3B C15B 1_555 1_555
C19B N3B 1_555 1_555
C18B C17B 1_555 1_555
H17B C18B 1_555 1_555
H18B C19B 1_555 1_555
H15B C15B 1_555 1_555
H16B C16B 1_555 1_555
O1B C11B 1_555 1_555
O2B C11B 1_555 1_555
O3B Mn1 1_555 1_555
O4B C14B 1_555 1_555
C11B C12B 1_555 1_555
C12B H11B 1_555 1_555
H12B C12B 1_555 1_555
C13B C12B 1_555 1_555
H13B C13B 1_555 1_555
H14B C13B 1_555 1_555
C14B O3B 1_555 1_555
N1_2 C1_2 1_555 1_555
N2_2 Mn1 1_555 1_555
C1_2 H3_2 1_555 1_555
C2_2 C1_2 1_555 1_555
H4_2 C2_2 1_555 1_555
C3_2 C2_2 1_555 1_555
C4_2 C3_2 1_555 1_555
H5_2 C4_2 1_555 1_555
C5_2 N1_2 1_555 1_555
H6_2 C5_2 1_555 1_555
C6_2 C3_2 1_555 1_555
C7_2 C6_2 1_555 1_555
H7_2 C7_2 1_555 1_555
C8_2 N2_2 1_555 1_555
H8_2 C8_2 1_555 1_555
C9_2 N2_2 1_555 1_555
H9_2 C9_2 1_555 1_555
C10_2 C6_2 1_555 1_555
H10_2 C10_2 1_555 1_555
Mn1B O3 1_555 1_555
O5B Mn1B 1_555 1_555
H1B O5B 1_555 1_555
H2B O5B 1_555 1_555
O4C Mn1 1_555 1_555
Mn1C O4 1_555 1_555
Mn1_2 N2 1_555 1_555
Mn1A O4B 1_555 1_555
Mn1_3 N1_2 1_555 1_555
O4A Mn1B 1_555 1_555
N1B Mn1B 1_555 1_555
N2B Mn1B 1_555 1_555
C4 C5 1_555 1_555
C9 C10 1_555 1_555
C18 C19 1_555 1_555
C19B C18B 1_555 1_555
O1B Mn1B 1_555 1_555
C13B C14B 1_555 1_555
C4_2 C5_2 1_555 1_555
C7_2 C8_2 1_555 1_555
C9_2 C10_2 1_555 1_555

#END
