
#######################################################################
#
#                 Cambridge Crystallographic Data Centre
#                                CCDC 
#
#######################################################################
#
# If this CIF has been generated from an entry in the Cambridge 
# Structural Database, then it will include bibliographic, chemical, 
# crystal, experimental, refinement or atomic coordinate data resulting 
# from the CCDC's data processing and validation procedures.
#
#######################################################################

data_VAJFOE
_chemical_formula_moiety         '(C30 H26 Cl1 Cu2 N6 O33 W10 2-)n'
_symmetry_cell_setting           monoclinic
_symmetry_space_group_name_H-M   'C 2/m'
_symmetry_Int_Tables_number      12
_space_group_name_Hall           '-C 2y'
loop_
_symmetry_equiv_pos_site_id
_symmetry_equiv_pos_as_xyz
1 x,y,z
2 -x,y,-z
3 1/2+x,1/2+y,z
4 1/2-x,1/2+y,-z
5 -x,-y,-z
6 x,-y,z
7 1/2-x,1/2-y,-z
8 1/2+x,1/2-y,z
_cell_length_a                   20.0634(15)
_cell_length_b                   17.3159(12)
_cell_length_c                   15.642(2)
_cell_angle_alpha                90
_cell_angle_beta                 124.2110(10)
_cell_angle_gamma                90
_cell_volume                     4494
loop_
_atom_site_label
_atom_site_type_symbol
_atom_site_fract_x
_atom_site_fract_y
_atom_site_fract_z
W1 W 0.65236(3) 0.5000 0.50895(4)
W2 W 0.74094(4) 0.5000 0.76044(5)
W3 W 0.60809(2) 0.63364(2) 0.61634(3)
W4 W 0.56357(4) 0.5000 0.72392(4)
O1 O 0.5000 0.6279(5) 0.5000
O2 O 0.4580(5) 0.5000 0.6042(7)
O3 O 0.6097(5) 0.5000 0.6199(7)
O4 O 0.8388(6) 0.5000 0.8658(9)
O5 O 0.6428(4) 0.6077(4) 0.5281(5)
O6 O 0.6800(6) 0.5000 0.8194(7)
O7 O 0.5711(4) 0.6078(4) 0.7019(5)
O8 O 0.6193(4) 0.7320(4) 0.6293(6)
O9 O 0.7148(4) 0.6081(4) 0.7316(5)
O10 O 0.7507(6) 0.5000 0.6461(8)
O11 O 0.5428(7) 0.5000 0.8167(8)
O12 O 0.6977(6) 0.5000 0.4440(8)
W1A W 0.34764(3) 0.5000 0.49105(4)
W2A W 0.25906(4) 0.5000 0.23956(5)
W3A W 0.39191(2) 0.63364(2) 0.38366(3)
W4A W 0.43643(4) 0.5000 0.27608(4)
O2A O 0.5420(5) 0.5000 0.3958(7)
O3A O 0.3903(5) 0.5000 0.3801(7)
O4A O 0.1612(6) 0.5000 0.1342(9)
O5A O 0.3572(4) 0.6077(4) 0.4719(5)
O6A O 0.3200(6) 0.5000 0.1806(7)
O7A O 0.4289(4) 0.6078(4) 0.2981(5)
O8A O 0.3807(4) 0.7320(4) 0.3707(6)
O9A O 0.2852(4) 0.6081(4) 0.2684(5)
O10A O 0.2493(6) 0.5000 0.3539(8)
O11A O 0.4572(7) 0.5000 0.1833(8)
O12A O 0.3023(6) 0.5000 0.5560(8)
W3D W 0.39191(2) 0.36636(2) 0.38366(3)
O1D O 0.5000 0.3721(5) 0.5000
O5D O 0.3572(4) 0.3923(4) 0.4719(5)
O7D O 0.4289(4) 0.3922(4) 0.2981(5)
O8D O 0.3807(4) 0.2680(4) 0.3707(6)
O9D O 0.2852(4) 0.3919(4) 0.2684(5)
W3E W 0.60809(2) 0.36636(2) 0.61634(3)
O5E O 0.6428(4) 0.3923(4) 0.5281(5)
O7E O 0.5711(4) 0.3922(4) 0.7019(5)
O8E O 0.6193(4) 0.2680(4) 0.6293(6)
O9E O 0.7148(4) 0.3919(4) 0.7316(5)
Cu1 Cu 0.27654(11) 0.5000 0.80102(14)
Cu2 Cu 0.47161(11) 1.0000 0.55227(14)
C1 C 0.2607(10) 0.6312(12) 0.6753(18)
H1 H 0.2054 0.6242 0.6490
C2 C 0.2819(11) 0.6918(12) 0.6374(18)
H2 H 0.2412 0.7232 0.5833
C3 C 0.3609(7) 0.7068(7) 0.6773(10)
C4 C 0.4141(8) 0.6547(7) 0.7452(11)
H3 H 0.4698 0.6588 0.7719
C5 C 0.3858(8) 0.5954(7) 0.7748(12)
H4 H 0.4245 0.5592 0.8226
C6 C 0.3720(12) 0.9021(3) 0.5871(18)
H5 H 0.3398 0.9474 0.5643
C7 C 0.3460(11) 0.8411(11) 0.617(2)
H6 H 0.2986 0.8459 0.6163
C8 C 0.3877(8) 0.7739(8) 0.6467(12)
C9 C 0.4498(7) 0.7724(6) 0.6357(9)
H7 H 0.4788 0.7257 0.6480
C10 C 0.4717(7) 0.8380(6) 0.6067(10)
H8 H 0.5161 0.8346 0.6007
C11 C 0.3129(14) 0.5983(10) 0.9729(14)
H9 H 0.3556 0.5626 1.0119
C12 C 0.3106(17) 0.6645(13) 1.0243(16)
H10 H 0.3520 0.6728 1.0952
C13 C 0.2517(9) 0.7144(6) 0.9745(9)
C14 C 0.1949(12) 0.6983(12) 0.8764(15)
H11 H 0.1489 0.7306 0.8373
C15 C 0.2041(11) 0.6328(11) 0.8317(15)
H12 H 0.1646 0.6236 0.7604
N1 N 0.3123(6) 0.5840(4) 0.7442(7)
N2 N 0.4356(6) 0.9035(6) 0.5875(9)
N3 N 0.2623(7) 0.5841(5) 0.8801(7)
Cl1 Cl 0.6226(8) 1.0000 0.6476(9)
C11F C 0.1871(14) 0.9017(10) 1.0271(14)
H9F H 0.1444 0.9374 0.9881
C12F C 0.1894(17) 0.8355(13) 0.9757(16)
H10F H 0.1480 0.8272 0.9048
C13F C 0.2483(9) 0.7856(6) 1.0255(9)
C14F C 0.3051(12) 0.8017(12) 1.1236(15)
H11F H 0.3511 0.7694 1.1627
C15F C 0.2959(11) 0.8672(11) 1.1683(15)
H12F H 0.3354 0.8764 1.2396
N3F N 0.2377(7) 0.9159(5) 1.1199(7)
C1E C 0.2607(10) 0.3688(12) 0.6753(18)
H1E H 0.2054 0.3758 0.6490
C2E C 0.2819(11) 0.3082(12) 0.6374(18)
H2E H 0.2412 0.2768 0.5833
C3E C 0.3609(7) 0.2932(7) 0.6773(10)
C4E C 0.4141(8) 0.3453(7) 0.7452(11)
H3E H 0.4698 0.3412 0.7719
C5E C 0.3858(8) 0.4046(7) 0.7748(12)
H4E H 0.4245 0.4408 0.8226
C6E C 0.3720(12) 0.0979(3) 0.5871(18)
H5E H 0.3398 0.0526 0.5643
C7E C 0.3460(11) 0.1589(11) 0.617(2)
H6E H 0.2986 0.1541 0.6163
C8E C 0.3877(8) 0.2261(8) 0.6467(12)
C9E C 0.4498(7) 0.2276(6) 0.6357(9)
H7E H 0.4788 0.2743 0.6480
C10E C 0.4717(7) 0.1620(6) 0.6067(10)
H8E H 0.5161 0.1654 0.6007
N1E N 0.3123(6) 0.4160(4) 0.7442(7)
N2E N 0.4356(6) 0.0965(6) 0.5875(9)
Cu1B Cu 0.77654(11) 1.0000 0.80102(14)
Cu1C Cu 0.22346(11) 1.0000 1.19898(14)
Cu2_2 Cu 0.47161(11) 0.0000 0.55227(14)
Cu2A Cu 0.52839(11) 1.0000 0.44773(14)
N2E_2 N 0.4356(6) 1.0965(6) 0.5875(9)
N3E N 0.2623(7) 0.4159(5) 0.8801(7)
Cl1A Cl 0.3774(8) 1.0000 0.3524(9)
Cl1B Cl 0.1226(8) 0.5000 0.6476(9)
O13 O 0.8834(18) 0.6927(17) 0.909(3)
loop_
_geom_bond_atom_site_label_1
_geom_bond_atom_site_label_2
_geom_bond_site_symmetry_1
_geom_bond_site_symmetry_2
W1 O3 1_555 1_555
W2 O3 1_555 1_555
W3 O1 1_555 1_555
W4 O2 1_555 1_555
O1 W3A 1_555 1_555
O2 W1A 1_555 1_555
O3 W3 1_555 1_555
O4 W2 1_555 1_555
O5 W1 1_555 1_555
O6 W2 1_555 1_555
O7 W3 1_555 1_555
O8 W3 1_555 1_555
O9 W2 1_555 1_555
O10 W1 1_555 1_555
O11 W4 1_555 1_555
O12 W1 1_555 1_555
Cu1 N1 1_555 1_555
Cu2 N2 1_555 1_555
C1 H1 1_555 1_555
C2 C1 1_555 1_555
H2 C2 1_555 1_555
C3 C2 1_555 1_555
C4 C3 1_555 1_555
H3 C4 1_555 1_555
C5 C4 1_555 1_555
H4 C5 1_555 1_555
C6 H5 1_555 1_555
C7 C6 1_555 1_555
H6 C7 1_555 1_555
C8 C3 1_555 1_555
C9 C8 1_555 1_555
H7 C9 1_555 1_555
C10 C9 1_555 1_555
H8 C10 1_555 1_555
C11 H9 1_555 1_555
C12 C11 1_555 1_555
H10 C12 1_555 1_555
C13 C12 1_555 1_555
C14 C13 1_555 1_555
H11 C14 1_555 1_555
C15 C14 1_555 1_555
H12 C15 1_555 1_555
N1 C1 1_555 1_555
N2 C6 1_555 1_555
N3 Cu1 1_555 1_555
Cl1 Cu2 1_555 1_555
W1A O3A 1_555 1_555
W2A O3A 1_555 1_555
W3A O3A 1_555 1_555
W4A O2A 1_555 1_555
O2A W1 1_555 1_555
O3A W4A 1_555 1_555
O4A W2A 1_555 1_555
O5A W1A 1_555 1_555
O6A W2A 1_555 1_555
O7A W3A 1_555 1_555
O8A W3A 1_555 1_555
O9A W2A 1_555 1_555
O10A W1A 1_555 1_555
O11A W4A 1_555 1_555
O12A W1A 1_555 1_555
W3D O3A 1_555 1_555
O1D W3D 1_555 1_555
O5D W1A 1_555 1_555
O7D W4A 1_555 1_555
O8D W3D 1_555 1_555
O9D W2A 1_555 1_555
W3E O3 1_555 1_555
O5E W1 1_555 1_555
O7E W4 1_555 1_555
O8E W3E 1_555 1_555
O9E W2 1_555 1_555
C11F H9F 1_555 1_555
C12F C11F 1_555 1_555
H10F C12F 1_555 1_555
C13F C13 1_555 1_555
C14F C13F 1_555 1_555
H11F C14F 1_555 1_555
C15F C14F 1_555 1_555
H12F C15F 1_555 1_555
N3F C11F 1_555 1_555
C1E H1E 1_555 1_555
C2E C1E 1_555 1_555
H2E C2E 1_555 1_555
C3E C2E 1_555 1_555
C4E C3E 1_555 1_555
H3E C4E 1_555 1_555
C5E C4E 1_555 1_555
H4E C5E 1_555 1_555
C6E H5E 1_555 1_555
C7E C6E 1_555 1_555
H6E C7E 1_555 1_555
C8E C3E 1_555 1_555
C9E C8E 1_555 1_555
H7E C9E 1_555 1_555
C10E C9E 1_555 1_555
H8E C10E 1_555 1_555
N1E Cu1 1_555 1_555
N2E C6E 1_555 1_555
Cu1B Cl1 1_555 1_555
Cu1C N3F 1_555 1_555
Cu2_2 N2E 1_555 1_555
Cu2A Cu2 1_555 1_555
N2E_2 Cu2 1_555 1_555
N3E Cu1 1_555 1_555
Cl1A Cu2 1_555 1_555
Cl1B Cu1 1_555 1_555
W2 O10 1_555 1_555
W3 O5 1_555 1_555
W3 O9 1_555 1_555
W4 O3 1_555 1_555
W4 O6 1_555 1_555
W4 O7 1_555 1_555
C5 N1 1_555 1_555
C7 C8 1_555 1_555
C10 N2 1_555 1_555
C11 N3 1_555 1_555
C15 N3 1_555 1_555
Cl1 Cu2A 1_555 1_555
W2A O10A 1_555 1_555
W3A O5A 1_555 1_555
W3A O9A 1_555 1_555
W4A O6A 1_555 1_555
W4A O7A 1_555 1_555
W3D O5D 1_555 1_555
W3D O7D 1_555 1_555
W3D O9D 1_555 1_555
O1D W3E 1_555 1_555
W3E O5E 1_555 1_555
W3E O7E 1_555 1_555
W3E O9E 1_555 1_555
C12F C13F 1_555 1_555
C15F N3F 1_555 1_555
C1E N1E 1_555 1_555
C5E N1E 1_555 1_555
C7E C8E 1_555 1_555
C10E N2E 1_555 1_555
Cu2A Cl1A 1_555 1_555

#END
