
#######################################################################
#
#                 Cambridge Crystallographic Data Centre
#                                CCDC 
#
#######################################################################
#
# If this CIF has been generated from an entry in the Cambridge 
# Structural Database, then it will include bibliographic, chemical, 
# crystal, experimental, refinement or atomic coordinate data resulting 
# from the CCDC's data processing and validation procedures.
#
#######################################################################

data_MAFWEY
_chemical_formula_moiety         '(C42 H26 N6 O16 Zr3)n'
_symmetry_cell_setting           cubic
_symmetry_space_group_name_H-M   'F m -3 m'
_symmetry_Int_Tables_number      225
_space_group_name_Hall           '-F 4 2 3'
loop_
_symmetry_equiv_pos_site_id
_symmetry_equiv_pos_as_xyz
1 x,y,z
2 x,1/2+y,1/2+z
3 1/2+x,y,1/2+z
4 1/2+x,1/2+y,z
5 y,z,x
6 y,1/2+z,1/2+x
7 1/2+y,z,1/2+x
8 1/2+y,1/2+z,x
9 z,x,y
10 z,1/2+x,1/2+y
11 1/2+z,x,1/2+y
12 1/2+z,1/2+x,y
13 -x,-y,z
14 -x,1/2-y,1/2+z
15 1/2-x,-y,1/2+z
16 1/2-x,1/2-y,z
17 -y,-z,x
18 -y,1/2-z,1/2+x
19 1/2-y,-z,1/2+x
20 1/2-y,1/2-z,x
21 -z,-x,y
22 -z,1/2-x,1/2+y
23 1/2-z,-x,1/2+y
24 1/2-z,1/2-x,y
25 y,-z,-x
26 y,1/2-z,1/2-x
27 1/2+y,-z,1/2-x
28 1/2+y,1/2-z,-x
29 z,-x,-y
30 z,1/2-x,1/2-y
31 1/2+z,-x,1/2-y
32 1/2+z,1/2-x,-y
33 -z,x,-y
34 -z,1/2+x,1/2-y
35 1/2-z,x,1/2-y
36 1/2-z,1/2+x,-y
37 -x,y,-z
38 -x,1/2+y,1/2-z
39 1/2-x,y,1/2-z
40 1/2-x,1/2+y,-z
41 -y,z,-x
42 -y,1/2+z,1/2-x
43 1/2-y,z,1/2-x
44 1/2-y,1/2+z,-x
45 x,-y,-z
46 x,1/2-y,1/2-z
47 1/2+x,-y,1/2-z
48 1/2+x,1/2-y,-z
49 -y,-x,-z
50 -y,1/2-x,1/2-z
51 1/2-y,-x,1/2-z
52 1/2-y,1/2-x,-z
53 -z,-y,-x
54 -z,1/2-y,1/2-x
55 1/2-z,-y,1/2-x
56 1/2-z,1/2-y,-x
57 -x,-z,-y
58 -x,1/2-z,1/2-y
59 1/2-x,-z,1/2-y
60 1/2-x,1/2-z,-y
61 y,x,-z
62 y,1/2+x,1/2-z
63 1/2+y,x,1/2-z
64 1/2+y,1/2+x,-z
65 z,y,-x
66 z,1/2+y,1/2-x
67 1/2+z,y,1/2-x
68 1/2+z,1/2+y,-x
69 x,z,-y
70 x,1/2+z,1/2-y
71 1/2+x,z,1/2-y
72 1/2+x,1/2+z,-y
73 z,-y,x
74 z,1/2-y,1/2+x
75 1/2+z,-y,1/2+x
76 1/2+z,1/2-y,x
77 x,-z,y
78 x,1/2-z,1/2+y
79 1/2+x,-z,1/2+y
80 1/2+x,1/2-z,y
81 -x,z,y
82 -x,1/2+z,1/2+y
83 1/2-x,z,1/2+y
84 1/2-x,1/2+z,y
85 -y,x,z
86 -y,1/2+x,1/2+z
87 1/2-y,x,1/2+z
88 1/2-y,1/2+x,z
89 -z,y,x
90 -z,1/2+y,1/2+x
91 1/2-z,y,1/2+x
92 1/2-z,1/2+y,x
93 y,-x,z
94 y,1/2-x,1/2+z
95 1/2+y,-x,1/2+z
96 1/2+y,1/2-x,z
97 -x,-y,-z
98 -x,1/2-y,1/2-z
99 1/2-x,-y,1/2-z
100 1/2-x,1/2-y,-z
101 -y,-z,-x
102 -y,1/2-z,1/2-x
103 1/2-y,-z,1/2-x
104 1/2-y,1/2-z,-x
105 -z,-x,-y
106 -z,1/2-x,1/2-y
107 1/2-z,-x,1/2-y
108 1/2-z,1/2-x,-y
109 x,y,-z
110 x,1/2+y,1/2-z
111 1/2+x,y,1/2-z
112 1/2+x,1/2+y,-z
113 y,z,-x
114 y,1/2+z,1/2-x
115 1/2+y,z,1/2-x
116 1/2+y,1/2+z,-x
117 z,x,-y
118 z,1/2+x,1/2-y
119 1/2+z,x,1/2-y
120 1/2+z,1/2+x,-y
121 -y,z,x
122 -y,1/2+z,1/2+x
123 1/2-y,z,1/2+x
124 1/2-y,1/2+z,x
125 -z,x,y
126 -z,1/2+x,1/2+y
127 1/2-z,x,1/2+y
128 1/2-z,1/2+x,y
129 z,-x,y
130 z,1/2-x,1/2+y
131 1/2+z,-x,1/2+y
132 1/2+z,1/2-x,y
133 x,-y,z
134 x,1/2-y,1/2+z
135 1/2+x,-y,1/2+z
136 1/2+x,1/2-y,z
137 y,-z,x
138 y,1/2-z,1/2+x
139 1/2+y,-z,1/2+x
140 1/2+y,1/2-z,x
141 -x,y,z
142 -x,1/2+y,1/2+z
143 1/2-x,y,1/2+z
144 1/2-x,1/2+y,z
145 y,x,z
146 y,1/2+x,1/2+z
147 1/2+y,x,1/2+z
148 1/2+y,1/2+x,z
149 z,y,x
150 z,1/2+y,1/2+x
151 1/2+z,y,1/2+x
152 1/2+z,1/2+y,x
153 x,z,y
154 x,1/2+z,1/2+y
155 1/2+x,z,1/2+y
156 1/2+x,1/2+z,y
157 -y,-x,z
158 -y,1/2-x,1/2+z
159 1/2-y,-x,1/2+z
160 1/2-y,1/2-x,z
161 -z,-y,x
162 -z,1/2-y,1/2+x
163 1/2-z,-y,1/2+x
164 1/2-z,1/2-y,x
165 -x,-z,y
166 -x,1/2-z,1/2+y
167 1/2-x,-z,1/2+y
168 1/2-x,1/2-z,y
169 -z,y,-x
170 -z,1/2+y,1/2-x
171 1/2-z,y,1/2-x
172 1/2-z,1/2+y,-x
173 -x,z,-y
174 -x,1/2+z,1/2-y
175 1/2-x,z,1/2-y
176 1/2-x,1/2+z,-y
177 x,-z,-y
178 x,1/2-z,1/2-y
179 1/2+x,-z,1/2-y
180 1/2+x,1/2-z,-y
181 y,-x,-z
182 y,1/2-x,1/2-z
183 1/2+y,-x,1/2-z
184 1/2+y,1/2-x,-z
185 z,-y,-x
186 z,1/2-y,1/2-x
187 1/2+z,-y,1/2-x
188 1/2+z,1/2-y,-x
189 -y,x,-z
190 -y,1/2+x,1/2-z
191 1/2-y,x,1/2-z
192 1/2-y,1/2+x,-z
_cell_length_a                   29.3248(8)
_cell_length_b                   29.3248(8)
_cell_length_c                   29.3248(8)
_cell_angle_alpha                90
_cell_angle_beta                 90
_cell_angle_gamma                90
_cell_volume                     25217.7
loop_
_atom_site_label
_atom_site_type_symbol
_atom_site_fract_x
_atom_site_fract_y
_atom_site_fract_z
_atom_site_U_iso_or_equiv
_atom_site_thermal_displace_type
Zr1 Zr 0.58370(5) 0.5000 0.5000 0.0441 Uani
O1 O 0.5405(2) 0.4595(2) 0.4595(2) 0.0750 Uani
O2 O 0.6213(2) 0.5662(2) 0.5000 0.1157 Uani
C1 C 0.6082(2) 0.6082(2) 0.5000 0.1477 Uani
C2 C 0.6436(2) 0.6436(2) 0.5000 0.1740 Uani
C3 C 0.6310(3) 0.6888(3) 0.500000(6) 0.1897 Uani
C4 C 0.6641(3) 0.7220(3) 0.500000(6) 0.2067 Uani
C5 C 0.7094(3) 0.7094(3) 0.5000 0.2387 Uani
N1 N 0.7368(4) 0.7368(4) 0.5000 0.2533 Uani
H1 H 0.5997 0.6971 0.5000 0.2209 Uiso
H2 H 0.6558 0.7533 0.5000 0.2414 Uiso
O2UC O 0.8787(2) 0.9338(2) 0.5000 0.1157 Uani
C1UC C 0.8918(2) 0.8918(2) 0.5000 0.1477 Uani
C2UC C 0.8564(2) 0.8564(2) 0.5000 0.1740 Uani
C3UC C 0.8690(3) 0.8112(3) 0.500000(6) 0.1897 Uani
C4UC C 0.8359(3) 0.7780(3) 0.500000(6) 0.2067 Uani
C5UC C 0.7906(3) 0.7906(3) 0.5000 0.2387 Uani
N1UC N 0.7632(4) 0.7632(4) 0.5000 0.2533 Uani
H1UC H 0.9003 0.8029 0.5000 0.2209 Uiso
H2UC H 0.8442 0.7467 0.5000 0.2414 Uiso
O2NE O 0.5662(2) 0.6213(2) 0.5000 0.1157 Uani
C3NE C 0.6888(3) 0.6310(3) 0.500000(6) 0.1897 Uani
C4NE C 0.7220(3) 0.6641(3) 0.500000(6) 0.2067 Uani
H1NE H 0.6971 0.5997 0.5000 0.2209 Uiso
H2NE H 0.7533 0.6558 0.5000 0.2414 Uiso
O2YA O 0.9338(2) 0.8787(2) 0.5000 0.1157 Uani
C3YA C 0.8112(3) 0.8690(3) 0.500000(6) 0.1897 Uani
C4YA C 0.7780(3) 0.8359(3) 0.500000(6) 0.2067 Uani
H1YA H 0.8029 0.9003 0.5000 0.2209 Uiso
H2YA H 0.7467 0.8442 0.5000 0.2414 Uiso
Zr1D Zr 0.5000 0.5000 0.58370(5) 0.0441 Uani
O1D O 0.4595(2) 0.4595(2) 0.5405(2) 0.0750 Uani
O2D O 0.5662(2) 0.5000 0.6213(2) 0.1157 Uani
C1D C 0.6082(2) 0.5000 0.6082(2) 0.1477 Uani
C2D C 0.6436(2) 0.5000 0.6436(2) 0.1740 Uani
C3D C 0.6888(3) 0.500000(6) 0.6310(3) 0.1897 Uani
C4D C 0.7220(3) 0.500000(6) 0.6641(3) 0.2067 Uani
C5D C 0.7094(3) 0.5000 0.7094(3) 0.2387 Uani
N1D N 0.7368(4) 0.5000 0.7368(4) 0.2533 Uani
H1D H 0.6971 0.5000 0.5997 0.2209 Uiso
H2D H 0.7533 0.5000 0.6558 0.2414 Uiso
O2XC O 0.9338(2) 0.5000 0.8787(2) 0.1157 Uani
C1XC C 0.8918(2) 0.5000 0.8918(2) 0.1477 Uani
C2XC C 0.8564(2) 0.5000 0.8564(2) 0.1740 Uani
C3XC C 0.8112(3) 0.500000(6) 0.8690(3) 0.1897 Uani
C4XC C 0.7780(3) 0.500000(6) 0.8359(3) 0.2067 Uani
C5XC C 0.7906(3) 0.5000 0.7906(3) 0.2387 Uani
N1XC N 0.7632(4) 0.5000 0.7632(4) 0.2533 Uani
H1XC H 0.8029 0.5000 0.9003 0.2209 Uiso
H2XC H 0.7467 0.5000 0.8442 0.2414 Uiso
O2VE O 0.6213(2) 0.5000 0.5662(2) 0.1157 Uani
C3VE C 0.6310(3) 0.500000(6) 0.6888(3) 0.1897 Uani
C4VE C 0.6641(3) 0.500000(6) 0.7220(3) 0.2067 Uani
H1VE H 0.5997 0.5000 0.6971 0.2209 Uiso
H2VE H 0.6558 0.5000 0.7533 0.2414 Uiso
O2FB O 0.8787(2) 0.5000 0.9338(2) 0.1157 Uani
C3FB C 0.8690(3) 0.500000(6) 0.8112(3) 0.1897 Uani
C4FB C 0.8359(3) 0.500000(6) 0.7780(3) 0.2067 Uani
H1FB H 0.9003 0.5000 0.8029 0.2209 Uiso
H2FB H 0.8442 0.5000 0.7467 0.2414 Uiso
Zr1XC Zr 1.0000 0.5000 0.91630(5) 0.0441 Uani
O2H O 0.5000 0.6213(2) 0.5662(2) 0.1157 Uani
C1H C 0.5000 0.6082(2) 0.6082(2) 0.1477 Uani
C2H C 0.5000 0.6436(2) 0.6436(2) 0.1740 Uani
C3H C 0.500000(6) 0.6310(3) 0.6888(3) 0.1897 Uani
C4H C 0.500000(6) 0.6641(3) 0.7220(3) 0.2067 Uani
C5H C 0.5000 0.7094(3) 0.7094(3) 0.2387 Uani
N1H N 0.5000 0.7368(4) 0.7368(4) 0.2533 Uani
H1H H 0.5000 0.5997 0.6971 0.2209 Uiso
H2H H 0.5000 0.6558 0.7533 0.2414 Uiso
O2AD O 0.5000 0.8787(2) 0.9338(2) 0.1157 Uani
C1AD C 0.5000 0.8918(2) 0.8918(2) 0.1477 Uani
C2AD C 0.5000 0.8564(2) 0.8564(2) 0.1740 Uani
C3AD C 0.500000(6) 0.8690(3) 0.8112(3) 0.1897 Uani
C4AD C 0.500000(6) 0.8359(3) 0.7780(3) 0.2067 Uani
C5AD C 0.5000 0.7906(3) 0.7906(3) 0.2387 Uani
N1AD N 0.5000 0.7632(4) 0.7632(4) 0.2533 Uani
H1AD H 0.5000 0.9003 0.8029 0.2209 Uiso
H2AD H 0.5000 0.8442 0.7467 0.2414 Uiso
O2RE O 0.5000 0.5662(2) 0.6213(2) 0.1157 Uani
C3RE C 0.500000(6) 0.6888(3) 0.6310(3) 0.1897 Uani
C4RE C 0.500000(6) 0.7220(3) 0.6641(3) 0.2067 Uani
H1RE H 0.5000 0.6971 0.5997 0.2209 Uiso
H2RE H 0.5000 0.7533 0.6558 0.2414 Uiso
O2AB O 0.5000 0.9338(2) 0.8787(2) 0.1157 Uani
C3AB C 0.500000(6) 0.8112(3) 0.8690(3) 0.1897 Uani
C4AB C 0.500000(6) 0.7780(3) 0.8359(3) 0.2067 Uani
H1AB H 0.5000 0.8029 0.9003 0.2209 Uiso
H2AB H 0.5000 0.7467 0.8442 0.2414 Uiso
O1ZC O 0.5405(2) 0.4595(2) 0.5405(2) 0.0750 Uani
O1VC O 0.5405(2) 0.5405(2) 0.4595(2) 0.0750 Uani
Zr1RC Zr 0.41630(5) 0.5000 0.5000 0.0441 Uani
Zr1TC Zr 0.91630(5) 0.5000 1.0000 0.0441 Uani
Zr1UC Zr 0.91630(5) 1.0000 0.5000 0.0441 Uani
Zr1VC Zr 0.5000 0.5000 0.41630(5) 0.0441 Uani
Zr1WC Zr 0.5000 1.0000 0.91630(5) 0.0441 Uani
Zr1H Zr 0.5000 0.58370(5) 0.5000 0.0441 Uani
Zr1ZC Zr 0.5000 0.41630(5) 0.5000 0.0441 Uani
Zr1AD Zr 0.5000 0.91630(5) 1.0000 0.0441 Uani
Zr1CD Zr 1.0000 0.91630(5) 0.5000 0.0441 Uani
O1RC O 0.4595(2) 0.5405(2) 0.5405(2) 0.0750 Uani
O1B O 1.0405(2) 0.4595(2) 0.9595(2) 0.0750 Uani
O1XC O 1.0405(2) 0.5405(2) 0.9595(2) 0.0750 Uani
O1J O 0.9595(2) 0.5405(2) 0.9595(2) 0.0750 Uani
O1P O 0.5405(2) 0.5405(2) 0.5405(2) 0.0750 Uani
O1JD O 0.9595(2) 0.4595(2) 0.9595(2) 0.0750 Uani
O2P O 0.4338(2) 0.5000 0.6213(2) 0.1157 Uani
O2JD O 1.0662(2) 0.5000 0.8787(2) 0.1157 Uani
O2BE O 0.6213(2) 0.4338(2) 0.5000 0.1157 Uani
O2BB O 1.0000 0.4338(2) 0.8787(2) 0.1157 Uani
O2DF O 0.5000 0.4338(2) 0.6213(2) 0.1157 Uani
O2NB O 1.0000 0.5662(2) 0.8787(2) 0.1157 Uani
O2PB O 0.6213(2) 0.5000 0.4338(2) 0.1157 Uani
loop_
_atom_site_aniso_label
_atom_site_aniso_U_11
_atom_site_aniso_U_22
_atom_site_aniso_U_33
_atom_site_aniso_U_23
_atom_site_aniso_U_13
_atom_site_aniso_U_12
Zr1 0.0263(10) 0.0530(8) 0.0530(8) 0.0000 0.0000 0.0000
O1 0.075(3) 0.075(3) 0.075(3) 0.024(4) -0.024(4) -0.024(4)
O2 0.069(5) 0.134(5) 0.144(7) 0.0000 0.0000 -0.055(5)
C1 0.126(5) 0.126(5) 0.191(15) 0.0000 0.0000 -0.059(5)
C2 0.137(5) 0.137(5) 0.248(16) 0.0000 0.0000 -0.070(6)
C3 0.167(8) 0.132(5) 0.270(15) 0.0000 0.0000 -0.075(7)
C4 0.177(9) 0.142(7) 0.301(16) 0.0000 0.0000 -0.085(9)
C5 0.172(8) 0.172(8) 0.372(19) 0.0000 0.0000 -0.088(9)
N1 0.18 0.18 0.4 0 0 -0.095
O2UC 0.069 0.134 0.144 0 0 -0.055
C1UC 0.126 0.126 0.191 0 0 -0.059
C2UC 0.137 0.137 0.248 0 0 -0.07
C3UC 0.167 0.132 0.27 0 0 -0.075
C4UC 0.177 0.142 0.301 0 0 -0.085
C5UC 0.172 0.172 0.372 0 0 -0.088
N1UC 0.18 0.18 0.4 0 0 -0.095
O2NE 0.134 0.069 0.144 0 0 -0.055
C3NE 0.132 0.167 0.27 0 0 -0.075
C4NE 0.142 0.177 0.301 0 0 -0.085
O2YA 0.134 0.069 0.144 0 0 -0.055
C3YA 0.132 0.167 0.27 0 0 -0.075
C4YA 0.142 0.177 0.301 0 0 -0.085
Zr1D 0.053 0.053 0.0263 0 0 0
O1D 0.075 0.075 0.075 -0.024 -0.024 0.024
O2D 0.134 0.144 0.069 0 -0.055 0
C1D 0.126 0.191 0.126 0 -0.059 0
C2D 0.137 0.248 0.137 0 -0.07 0
C3D 0.132 0.27 0.167 0 -0.075 0
C4D 0.142 0.301 0.177 0 -0.085 0
C5D 0.172 0.372 0.172 0 -0.088 0
N1D 0.18 0.4 0.18 0 -0.095 0
O2XC 0.134 0.144 0.069 0 -0.055 0
C1XC 0.126 0.191 0.126 0 -0.059 0
C2XC 0.137 0.248 0.137 0 -0.07 0
C3XC 0.132 0.27 0.167 0 -0.075 0
C4XC 0.142 0.301 0.177 0 -0.085 0
C5XC 0.172 0.372 0.172 0 -0.088 0
N1XC 0.18 0.4 0.18 0 -0.095 0
O2VE 0.069 0.144 0.134 0 -0.055 0
C3VE 0.167 0.27 0.132 0 -0.075 0
C4VE 0.177 0.301 0.142 0 -0.085 0
O2FB 0.069 0.144 0.134 0 -0.055 0
C3FB 0.167 0.27 0.132 0 -0.075 0
C4FB 0.177 0.301 0.142 0 -0.085 0
Zr1XC 0.053 0.053 0.0263 0 0 0
O2H 0.144 0.069 0.134 -0.055 0 0
C1H 0.191 0.126 0.126 -0.059 0 0
C2H 0.248 0.137 0.137 -0.07 0 0
C3H 0.27 0.167 0.132 -0.075 0 0
C4H 0.301 0.177 0.142 -0.085 0 0
C5H 0.372 0.172 0.172 -0.088 0 0
N1H 0.4 0.18 0.18 -0.095 0 0
O2AD 0.144 0.069 0.134 -0.055 0 0
C1AD 0.191 0.126 0.126 -0.059 0 0
C2AD 0.248 0.137 0.137 -0.07 0 0
C3AD 0.27 0.167 0.132 -0.075 0 0
C4AD 0.301 0.177 0.142 -0.085 0 0
C5AD 0.372 0.172 0.172 -0.088 0 0
N1AD 0.4 0.18 0.18 -0.095 0 0
O2RE 0.144 0.134 0.069 -0.055 0 0
C3RE 0.27 0.132 0.167 -0.075 0 0
C4RE 0.301 0.142 0.177 -0.085 0 0
O2AB 0.144 0.134 0.069 -0.055 0 0
C3AB 0.27 0.132 0.167 -0.075 0 0
C4AB 0.301 0.142 0.177 -0.085 0 0
O1ZC 0.075 0.075 0.075 -0.024 0.024 -0.024
O1VC 0.075 0.075 0.075 -0.024 -0.024 0.024
Zr1RC 0.0263 0.053 0.053 0 0 0
Zr1TC 0.0263 0.053 0.053 0 0 0
Zr1UC 0.0263 0.053 0.053 0 0 0
Zr1VC 0.053 0.053 0.0263 0 0 0
Zr1WC 0.053 0.053 0.0263 0 0 0
Zr1H 0.053 0.0263 0.053 0 0 0
Zr1ZC 0.053 0.0263 0.053 0 0 0
Zr1AD 0.053 0.0263 0.053 0 0 0
Zr1CD 0.053 0.0263 0.053 0 0 0
O1RC 0.075 0.075 0.075 0.024 -0.024 -0.024
O1B 0.075 0.075 0.075 0.024 -0.024 -0.024
O1XC 0.075 0.075 0.075 -0.024 -0.024 0.024
O1J 0.075 0.075 0.075 -0.024 0.024 -0.024
O1P 0.075 0.075 0.075 0.024 0.024 0.024
O1JD 0.075 0.075 0.075 0.024 0.024 0.024
O2P 0.134 0.144 0.069 0 0.055 0
O2JD 0.134 0.144 0.069 0 0.055 0
O2BE 0.069 0.134 0.144 0 0 0.055
O2BB 0.144 0.134 0.069 -0.055 0 0
O2DF 0.144 0.134 0.069 0.055 0 0
O2NB 0.144 0.134 0.069 0.055 0 0
O2PB 0.069 0.144 0.134 0 0.055 0
loop_
_geom_bond_atom_site_label_1
_geom_bond_atom_site_label_2
_geom_bond_site_symmetry_1
_geom_bond_site_symmetry_2
Zr1 O1 1_555 1_555
O1 Zr1VC 1_555 1_555
O2 Zr1 1_555 1_555
C1 O2 1_555 1_555
C2 C1 1_555 1_555
C3 C2 1_555 1_555
C4 C3 1_555 1_555
C5 C4 1_555 1_555
N1 C5 1_555 1_555
H1 C3 1_555 1_555
H2 C4 1_555 1_555
O2UC C1UC 1_555 1_555
C1UC C2UC 1_555 1_555
C2UC C3UC 1_555 1_555
C3UC C4UC 1_555 1_555
C4UC C5UC 1_555 1_555
C5UC N1UC 1_555 1_555
N1UC N1 1_555 1_555
H1UC C3UC 1_555 1_555
H2UC C4UC 1_555 1_555
O2NE C1 1_555 1_555
C3NE C2 1_555 1_555
C4NE C5 1_555 1_555
H1NE C3NE 1_555 1_555
H2NE C4NE 1_555 1_555
O2YA C1UC 1_555 1_555
C3YA C2UC 1_555 1_555
C4YA C5UC 1_555 1_555
H1YA C3YA 1_555 1_555
H2YA C4YA 1_555 1_555
Zr1D O1D 1_555 1_555
O1D Zr1RC 1_555 1_555
O2D Zr1D 1_555 1_555
C1D O2D 1_555 1_555
C2D C1D 1_555 1_555
C3D C2D 1_555 1_555
C4D C3D 1_555 1_555
C5D C4D 1_555 1_555
N1D C5D 1_555 1_555
H1D C3D 1_555 1_555
H2D C4D 1_555 1_555
O2XC C1XC 1_555 1_555
C1XC C2XC 1_555 1_555
C2XC C3XC 1_555 1_555
C3XC C4XC 1_555 1_555
C4XC C5XC 1_555 1_555
C5XC N1XC 1_555 1_555
N1XC N1D 1_555 1_555
H1XC C3XC 1_555 1_555
H2XC C4XC 1_555 1_555
O2VE Zr1 1_555 1_555
C3VE C2D 1_555 1_555
C4VE C5D 1_555 1_555
H1VE C3VE 1_555 1_555
H2VE C4VE 1_555 1_555
O2FB C1XC 1_555 1_555
C3FB C2XC 1_555 1_555
C4FB C5XC 1_555 1_555
H1FB C3FB 1_555 1_555
H2FB C4FB 1_555 1_555
Zr1XC O2XC 1_555 1_555
O2H C1H 1_555 1_555
C1H C2H 1_555 1_555
C2H C3H 1_555 1_555
C3H C4H 1_555 1_555
C4H C5H 1_555 1_555
C5H N1H 1_555 1_555
N1H N1AD 1_555 1_555
H1H C3H 1_555 1_555
H2H C4H 1_555 1_555
O2AD C1AD 1_555 1_555
C1AD C2AD 1_555 1_555
C2AD C3AD 1_555 1_555
C3AD C4AD 1_555 1_555
C4AD C5AD 1_555 1_555
C5AD N1AD 1_555 1_555
H1AD C3AD 1_555 1_555
H2AD C4AD 1_555 1_555
O2RE Zr1D 1_555 1_555
C3RE C2H 1_555 1_555
C4RE C5H 1_555 1_555
H1RE C3RE 1_555 1_555
H2RE C4RE 1_555 1_555
O2AB C1AD 1_555 1_555
C3AB C2AD 1_555 1_555
C4AB C5AD 1_555 1_555
H1AB C3AB 1_555 1_555
H2AB C4AB 1_555 1_555
O1ZC Zr1 1_555 1_555
O1VC Zr1 1_555 1_555
Zr1RC O1RC 1_555 1_555
Zr1TC O2FB 1_555 1_555
Zr1UC O2UC 1_555 1_555
Zr1VC O1VC 1_555 1_555
Zr1WC O2AB 1_555 1_555
Zr1H O2NE 1_555 1_555
Zr1ZC O1 1_555 1_555
Zr1AD O2AD 1_555 1_555
Zr1CD O2YA 1_555 1_555
O1RC Zr1D 1_555 1_555
O1B Zr1XC 1_555 1_555
O1XC Zr1XC 1_555 1_555
O1J Zr1XC 1_555 1_555
O1P Zr1 1_555 1_555
O1JD Zr1XC 1_555 1_555
O2P Zr1D 1_555 1_555
O2JD Zr1XC 1_555 1_555
O2BE Zr1 1_555 1_555
O2BB Zr1XC 1_555 1_555
O2DF Zr1D 1_555 1_555
O2NB Zr1XC 1_555 1_555
O2PB Zr1 1_555 1_555
C3NE C4NE 1_555 1_555
C3YA C4YA 1_555 1_555
Zr1D O1ZC 1_555 1_555
Zr1D O1P 1_555 1_555
O1D Zr1ZC 1_555 1_555
C1D O2VE 1_555 1_555
C3VE C4VE 1_555 1_555
C3FB C4FB 1_555 1_555
O2H Zr1H 1_555 1_555
C1H O2RE 1_555 1_555
C3RE C4RE 1_555 1_555
C3AB C4AB 1_555 1_555
O1ZC Zr1ZC 1_555 1_555
O1VC Zr1H 1_555 1_555
Zr1TC O1J 1_555 1_555
Zr1TC O1JD 1_555 1_555
Zr1H O1RC 1_555 1_555
Zr1H O1P 1_555 1_555

#END
