
#######################################################################
#
#                 Cambridge Crystallographic Data Centre
#                                CCDC 
#
#######################################################################
#
# If this CIF has been generated from an entry in the Cambridge 
# Structural Database, then it will include bibliographic, chemical, 
# crystal, experimental, refinement or atomic coordinate data resulting 
# from the CCDC's data processing and validation procedures.
#
#######################################################################

data_TUWPIL
_chemical_formula_moiety         '(C29 H31 Cd1 N1 O10 S2)n'
_symmetry_cell_setting           orthorhombic
_symmetry_space_group_name_H-M   'P 21 21 21'
_symmetry_Int_Tables_number      19
_space_group_name_Hall           'P 2ac 2ab'
loop_
_symmetry_equiv_pos_site_id
_symmetry_equiv_pos_as_xyz
1 x,y,z
2 1/2-x,-y,1/2+z
3 -x,1/2+y,1/2-z
4 1/2+x,1/2-y,-z
_cell_length_a                   8.1523(2)
_cell_length_b                   18.0510(3)
_cell_length_c                   21.2912(4)
_cell_angle_alpha                90
_cell_angle_beta                 90
_cell_angle_gamma                90
_cell_volume                     3133.15
loop_
_atom_site_label
_atom_site_type_symbol
_atom_site_fract_x
_atom_site_fract_y
_atom_site_fract_z
_atom_site_U_iso_or_equiv
_atom_site_thermal_displace_type
C1 C 0.975(2) 0.5960(12) 0.2043(5) 0.1190 Uani
H1 H 1.0279 0.5519 0.1896 0.1780 Uiso
H2 H 1.0533 0.6354 0.2074 0.1780 Uiso
H3 H 0.8897 0.6099 0.1753 0.1780 Uiso
O1 O 0.878(2) 0.4665(5) 0.2740(8) 0.1680 Uani
C29 C 0.8438(9) 0.5272(4) 0.3000(4) 0.1223 Uani
H29 H 0.7864 0.5328 0.3374 0.1470 Uiso
C30 C 0.8614(12) 0.6547(4) 0.2834(5) 0.1727 Uani
H30 H 0.7958 0.6523 0.3208 0.2590 Uiso
H31 H 0.8001 0.6784 0.2506 0.2590 Uiso
H32 H 0.9592 0.6826 0.2917 0.2590 Uiso
N1 N 0.9042(5) 0.5826(2) 0.26454(19) 0.0750 Uani
Cd1 Cd 0.51562(2) 0.218072(9) 0.036945(8) 0.0312 Uani
S1 S 0.33994(9) 0.43648(4) 0.46517(4) 0.0419 Uani
S2 S 0.40432(11) 0.31287(4) 0.35628(4) 0.0484 Uani
C3 C 0.6799(4) 0.42835(19) 0.4589(2) 0.0498 Uani
H7 H 0.6657 0.4049 0.4204 0.0600 Uiso
C4 C 0.3502(3) 0.53612(14) 0.36874(12) 0.0313 Uani
C5 C 0.3614(3) 0.46284(14) 0.38483(13) 0.0321 Uani
C6 C 0.3796(4) 0.56058(16) 0.30645(13) 0.0364 Uani
C7 C 0.3982(4) 0.40875(15) 0.33751(14) 0.0356 Uani
C8 C 0.1604(6) 0.2471(2) 0.4237(2) 0.0649 Uani
H8 H 0.2451 0.2275 0.4478 0.0780 Uiso
C9 C 0.5667(5) 0.4871(2) 0.54968(15) 0.0553 Uani
H9 H 0.4769 0.5031 0.5729 0.0660 Uiso
C10 C 0.4663(6) 0.5327(2) 0.19919(16) 0.0614 Uani
H10 H 0.4998 0.4991 0.1687 0.0740 Uiso
C11 C 0.5443(4) 0.45194(15) 0.49219(13) 0.0386 Uani
C12 C 0.1950(4) 0.29500(15) 0.37465(15) 0.0438 Uani
C13 C 0.4031(6) 0.6575(2) 0.2295(2) 0.0703 Uani
H11 H 0.3931 0.7071 0.2182 0.0840 Uiso
C14 C 0.4353(4) 0.43137(17) 0.27798(14) 0.0388 Uani
C15 C 0.4278(4) 0.50749(18) 0.26073(13) 0.0403 Uani
C16 C 0.8359(5) 0.4391(2) 0.48193(18) 0.0570 Uani
H12 H 0.9260 0.4222 0.4593 0.0690 Uiso
C17 C 0.4543(7) 0.6055(2) 0.18491(19) 0.0799 Uani
H13 H 0.4807 0.6213 0.1446 0.0960 Uiso
C18 C 0.7241(6) 0.4977(3) 0.5717(2) 0.0740 Uani
H14 H 0.7392 0.5211 0.6102 0.0890 Uiso
O3 O 0.4906(3) 0.38158(12) 0.23330(9) 0.0471 Uani
O4 O 0.3159(2) 0.59031(10) 0.41275(9) 0.0346 Uani
C19 C 0.4396(4) 0.30266(15) 0.14410(13) 0.0401 Uani
C20 C 0.3647(4) 0.3486(2) 0.19592(16) 0.0490 Uani
H15 H 0.2964 0.3871 0.1778 0.0590 Uiso
H16 H 0.2960 0.3175 0.2221 0.0590 Uiso
O5 O 0.5878(3) 0.29625(15) 0.13777(11) 0.0563 Uani
O6 O 0.3389(3) 0.27118(13) 0.10827(11) 0.0538 Uani
C21 C 0.3677(4) 0.63591(18) 0.28937(16) 0.0493 Uani
H17 H 0.3357 0.6709 0.3190 0.0590 Uiso
C22 C -0.0928(5) 0.3049(2) 0.3533(2) 0.0623 Uani
H18 H -0.1781 0.3249 0.3298 0.0750 Uiso
C23 C -0.0007(7) 0.2284(2) 0.4367(2) 0.0803 Uani
H19 H -0.0237 0.1965 0.4699 0.0960 Uiso
C24 C 0.0673(4) 0.32422(19) 0.33950(17) 0.0502 Uani
H20 H 0.0893 0.3568 0.3067 0.0600 Uiso
C25 C 0.1455(4) 0.59523(19) 0.4262(2) 0.0552 Uani
H21 H 0.1127 0.5529 0.4513 0.0660 Uiso
H22 H 0.0840 0.5939 0.3872 0.0660 Uiso
C26 C -0.1274(6) 0.2565(2) 0.4012(2) 0.0743 Uani
H23 H -0.2352 0.2429 0.4096 0.0890 Uiso
C27 C 0.8589(5) 0.4749(2) 0.5384(2) 0.0667 Uani
H24 H 0.9640 0.4835 0.5537 0.0800 Uiso
C28 C 0.1053(3) 0.66536(13) 0.46114(14) 0.0309 Uani
O7 O -0.0377(2) 0.67009(11) 0.48242(10) 0.0426 Uani
O8 O 0.2088(2) 0.71582(10) 0.46691(9) 0.0342 Uani
O9 O 0.3390(3) 0.12204(12) 0.05181(12) 0.0443 Uani
O10 O 0.5640(4) 0.16108(15) -0.06022(13) 0.0513 Uani
H25 H 0.246(6) 0.130(2) 0.043(2) 0.0630 Uiso
H26 H 0.362(6) 0.089(3) 0.032(2) 0.0830 Uiso
H27 H 0.502(7) 0.162(3) -0.087(2) 0.0840 Uiso
H28 H 0.636(6) 0.184(2) -0.078(2) 0.0640 Uiso
Cd1A Cd -0.01562(2) 0.781928(9) 0.536945(8) 0.0312 Uani
Cd1B Cd 0.48438(2) 0.718072(9) 0.463055(8) 0.0312 Uani
O7A O 0.5377(2) 0.32991(11) -0.01758(10) 0.0426 Uani
O8A O 0.2912(2) 0.28418(10) -0.03309(9) 0.0342 Uani
O8B O 0.7912(2) 0.21582(10) 0.03309(9) 0.0342 Uani
O11 O 0.3954(6) 0.1568(4) 0.8264(2) 0.1073 Uani
H33 H 0.380(7) 0.116(3) 0.807(3) 0.0900 Uiso
H34 H 0.294(12) 0.175(5) 0.830(4) 0.1900 Uiso
loop_
_atom_site_aniso_label
_atom_site_aniso_U_11
_atom_site_aniso_U_22
_atom_site_aniso_U_33
_atom_site_aniso_U_23
_atom_site_aniso_U_13
_atom_site_aniso_U_12
C1 0.117(11) 0.179(16) 0.061(6) -0.006(8) 0.013(7) -0.008(11)
O1 0.206(16) 0.065(5) 0.233(16) -0.021(6) -0.120(14) 0.023(6)
C29 0.103(5) 0.116(5) 0.148(7) 0.008(5) -0.046(5) -0.021(4)
C30 0.169(8) 0.094(5) 0.255(12) -0.018(6) -0.082(8) 0.030(5)
N1 0.071(3) 0.087(3) 0.067(2) -0.001(2) -0.0045(19) -0.009(2)
Cd1 0.02776(9) 0.03200(8) 0.03375(9) 0.00168(8) 0.00213(7) 0.00074(7)
S1 0.0421(4) 0.0503(4) 0.0332(3) 0.0014(4) 0.0038(4) 0.0016(3)
S2 0.0480(5) 0.0332(3) 0.0640(5) -0.0051(3) 0.0004(4) 0.0104(3)
C3 0.0520(19) 0.0514(17) 0.0461(17) -0.0103(17) -0.0029(17) 0.0000(13)
C4 0.0280(14) 0.0338(12) 0.0322(13) -0.0099(10) -0.0007(10) 0.0002(10)
C5 0.0308(14) 0.0362(13) 0.0294(12) -0.0063(10) 0.0018(10) 0.0016(10)
C6 0.0340(16) 0.0384(14) 0.0369(14) -0.0039(11) 0.0013(11) -0.0046(11)
C7 0.0322(15) 0.0338(13) 0.0408(15) -0.0089(11) -0.0008(11) 0.0031(10)
C8 0.077(3) 0.0468(19) 0.071(3) 0.0139(18) -0.005(2) 0.0047(19)
C9 0.066(2) 0.061(2) 0.0389(18) -0.0052(14) -0.0012(14) 0.0030(16)
C10 0.077(3) 0.070(2) 0.0373(16) -0.0049(15) 0.0143(18) -0.011(2)
C11 0.0496(18) 0.0322(12) 0.0341(13) 0.0029(10) -0.0042(12) -0.0007(12)
C12 0.055(2) 0.0294(14) 0.0471(17) -0.0052(11) 0.0031(13) 0.0002(12)
C13 0.090(3) 0.053(2) 0.068(3) 0.0156(19) 0.010(2) -0.013(2)
C14 0.0334(16) 0.0454(15) 0.0375(14) -0.0170(12) 0.0021(11) -0.0005(11)
C15 0.0413(17) 0.0483(16) 0.0312(14) -0.0058(12) 0.0035(11) -0.0057(13)
C16 0.047(2) 0.068(2) 0.056(2) 0.0013(17) -0.0033(15) 0.0003(17)
C17 0.118(4) 0.078(3) 0.0437(19) 0.0135(19) 0.020(2) -0.017(3)
C18 0.077(3) 0.098(3) 0.047(2) -0.012(2) -0.016(2) -0.011(3)
O3 0.0405(12) 0.0568(12) 0.0440(11) -0.0266(9) 0.0026(11) 0.0030(11)
O4 0.0279(10) 0.0362(9) 0.0397(10) -0.0151(8) 0.0029(8) -0.0012(7)
C19 0.059(2) 0.0322(14) 0.0290(13) -0.0026(10) -0.0013(12) 0.0093(12)
C20 0.0417(18) 0.0576(19) 0.0477(17) -0.0234(15) -0.0001(14) 0.0054(14)
O5 0.0548(16) 0.0668(17) 0.0473(13) -0.0186(12) 0.0041(11) 0.0144(12)
O6 0.0658(15) 0.0547(13) 0.0409(11) -0.0178(11) -0.0065(11) 0.0020(12)
C21 0.054(2) 0.0424(16) 0.0516(18) 0.0000(14) 0.0021(15) -0.0057(14)
C22 0.054(2) 0.064(2) 0.069(3) -0.0040(19) 0.0028(19) 0.0047(17)
C23 0.090(3) 0.054(2) 0.097(3) 0.023(2) 0.019(3) -0.013(2)
C24 0.053(2) 0.0485(19) 0.0491(19) 0.0038(14) 0.0005(15) 0.0032(14)
C25 0.0294(17) 0.0462(17) 0.090(3) -0.0338(18) 0.0104(16) -0.0063(13)
C26 0.062(3) 0.057(2) 0.104(4) 0.002(2) 0.021(2) -0.0093(19)
C27 0.060(2) 0.086(3) 0.054(2) 0.005(2) -0.018(2) -0.0102(19)
C28 0.0258(12) 0.0337(12) 0.0332(12) -0.0048(12) 0.0013(11) -0.0003(8)
O7 0.0277(11) 0.0389(10) 0.0612(13) -0.0121(8) 0.0085(9) -0.0022(8)
O8 0.0297 0.0323 0.0407 -0.0074 0.0029 -0.0034
O9 0.0320(12) 0.0339(11) 0.0670(16) 0.0013(10) 0.0004(10) 0.0028(9)
O10 0.0516(16) 0.0577(15) 0.0445(13) -0.0071(11) 0.0030(12) -0.0070(12)
Cd1A 0.02776 0.032 0.03375 -0.00168 -0.00213 0.00074
Cd1B 0.02776 0.032 0.03375 -0.00168 0.00213 -0.00074
O7A 0.0277 0.0389 0.0612 0.0121 -0.0085 -0.0022
O8A 0.0297 0.0323 0.0407 0.0074 -0.0029 -0.0034
O8B 0.0297 0.0323 0.0407 0.0074 0.0029 0.0034
O11 0.073(3) 0.160(5) 0.089(3) -0.013(3) -0.008(2) 0.018(3)
loop_
_geom_bond_atom_site_label_1
_geom_bond_atom_site_label_2
_geom_bond_site_symmetry_1
_geom_bond_site_symmetry_2
C1 H1 1_555 1_555
H2 C1 1_555 1_555
H3 C1 1_555 1_555
O1 C29 1_555 1_555
Cd1 O5 1_555 1_555
S1 C5 1_555 1_555
S2 C7 1_555 1_555
C3 H7 1_555 1_555
C4 C5 1_555 1_555
C5 C7 1_555 1_555
C6 C4 1_555 1_555
C7 C14 1_555 1_555
C8 H8 1_555 1_555
C9 H9 1_555 1_555
C10 H10 1_555 1_555
C11 S1 1_555 1_555
C12 S2 1_555 1_555
C13 H11 1_555 1_555
C14 C15 1_555 1_555
C15 C6 1_555 1_555
C16 C3 1_555 1_555
H12 C16 1_555 1_555
C17 C10 1_555 1_555
H13 C17 1_555 1_555
C18 C9 1_555 1_555
H14 C18 1_555 1_555
O3 C14 1_555 1_555
O4 C4 1_555 1_555
C19 C20 1_555 1_555
C20 O3 1_555 1_555
H15 C20 1_555 1_555
H16 C20 1_555 1_555
O5 C19 1_555 1_555
O6 Cd1 1_555 1_555
C21 C6 1_555 1_555
H17 C21 1_555 1_555
C22 H18 1_555 1_555
C23 C8 1_555 1_555
H19 C23 1_555 1_555
C24 C12 1_555 1_555
H20 C24 1_555 1_555
C25 O4 1_555 1_555
H21 C25 1_555 1_555
H22 C25 1_555 1_555
C26 C22 1_555 1_555
H23 C26 1_555 1_555
C27 C16 1_555 1_555
H24 C27 1_555 1_555
C28 C25 1_555 1_555
O7 C28 1_555 1_555
O8 C28 1_555 1_555
O9 Cd1 1_555 1_555
O10 Cd1 1_555 1_555
H25 O9 1_555 1_555
H26 O9 1_555 1_555
H27 O10 1_555 1_555
H28 O10 1_555 1_555
C29 H29 1_555 1_555
C30 H30 1_555 1_555
H31 C30 1_555 1_555
H32 C30 1_555 1_555
N1 C1 1_555 1_555
O11 H33 1_555 1_555
H34 O11 1_555 1_555
Cd1A O7 1_555 1_555
Cd1B O8 1_555 1_555
O7A Cd1 1_555 1_555
O8A Cd1 1_555 1_555
O8B Cd1 1_555 1_555
C3 C11 1_555 1_555
C8 C12 1_555 1_555
C9 C11 1_555 1_555
C10 C15 1_555 1_555
C13 C17 1_555 1_555
C13 C21 1_555 1_555
C18 C27 1_555 1_555
C19 O6 1_555 1_555
C22 C24 1_555 1_555
C23 C26 1_555 1_555
O8 Cd1A 1_555 1_555
C29 N1 1_555 1_555
C30 N1 1_555 1_555

#END
