
#######################################################################
#
#                 Cambridge Crystallographic Data Centre
#                                CCDC 
#
#######################################################################
#
# If this CIF has been generated from an entry in the Cambridge 
# Structural Database, then it will include bibliographic, chemical, 
# crystal, experimental, refinement or atomic coordinate data resulting 
# from the CCDC's data processing and validation procedures.
#
#######################################################################

data_GISZUF
_chemical_formula_moiety         '(C48 H58 Cd3 N8 O21 S3)n'
_symmetry_cell_setting           monoclinic
_symmetry_space_group_name_H-M   'P 21/n'
_symmetry_Int_Tables_number      14
_space_group_name_Hall           '-P 2yn'
loop_
_symmetry_equiv_pos_site_id
_symmetry_equiv_pos_as_xyz
1 x,y,z
2 1/2-x,1/2+y,1/2-z
3 -x,-y,-z
4 1/2+x,1/2-y,1/2+z
_cell_length_a                   14.070(3)
_cell_length_b                   22.001(4)
_cell_length_c                   20.966(4)
_cell_angle_alpha                90
_cell_angle_beta                 101.07(3)
_cell_angle_gamma                90
_cell_volume                     6369.35
loop_
_atom_site_label
_atom_site_type_symbol
_atom_site_fract_x
_atom_site_fract_y
_atom_site_fract_z
Cd1 Cd 0.51501(2) 0.744167(17) 0.262178(16)
Cd2 Cd 0.64014(3) 0.988824(17) 0.19028(2)
Cd3 Cd 0.32061(3) 0.502884(17) 0.302553(19)
S1 S 0.51480(9) 0.91389(6) 0.28282(7)
S2 S 0.51008(9) 0.57758(6) 0.24546(6)
O1 O 0.4984(3) 0.84829(17) 0.2780(2)
O2 O 0.4386(4) 0.9422(2) 0.3086(3)
O3 O 0.6074(4) 0.9289(2) 0.3209(4)
O4 O 0.5092(4) 0.9392(2) 0.2163(2)
O5 O 0.5404(3) 0.64097(18) 0.2527(2)
O6 O 0.4180(3) 0.5709(2) 0.2648(3)
O7 O 0.5791(4) 0.5377(3) 0.2846(3)
O8 O 0.4995(6) 0.5594(3) 0.1790(3)
O9 O 0.7809(4) 0.9726(2) 0.2753(2)
H1 H 0.8263 0.9959 0.2935
H2 H 0.7635 0.9512 0.3048
O10 O 0.7387(3) 1.05839(19) 0.1559(2)
H3 H 0.7510 1.0943 0.1449
H4 H 0.7886 1.0368 0.1552
O11 O 0.5386(3) 1.0120(2) 0.0933(2)
H5 H 0.4893 1.0340 0.0795
H6 H 0.5700 1.0082 0.0627
O12 O 0.4002(3) 0.45190(19) 0.39326(19)
H7 H 0.3943 0.4475 0.4326
H8 H 0.4551 0.4377 0.3897
O13 O 0.1972(3) 0.4445(2) 0.3246(2)
H9 H 0.1854 0.4191 0.3527
H10 H 0.1572 0.4378 0.2894
O14 O 0.2011(3) 0.5340(2) 0.2140(2)
H11 H 0.1405 0.5284 0.2027
H12 H 0.2221 0.5459 0.1807
N1 N 0.3491(3) 0.7434(2) 0.2114(2)
N2 N -0.0089(3) 0.7701(2) -0.1316(2)
N3 N -0.2838(3) 0.90870(19) 0.1489(2)
N4 N -0.0990(3) 0.56963(19) 0.2496(2)
N5 N 0.6803(3) 0.75166(19) 0.3120(2)
N6 N 1.0408(3) 0.7430(2) 0.6563(2)
N7 N 1.2728(3) 0.58423(19) 0.3587(2)
N8 N 1.1330(3) 0.92773(19) 0.2628(2)
C1 C 0.2913(4) 0.7919(2) 0.2070(3)
H13 H 0.3168 0.8281 0.2258
C2 C 0.1952(4) 0.7909(2) 0.1760(3)
H14 H 0.1576 0.8258 0.1749
C3 C 0.1549(3) 0.7384(2) 0.1468(2)
C4 C 0.2154(4) 0.6889(2) 0.1504(3)
H15 H 0.1919 0.6522 0.1315
C5 C 0.3103(4) 0.6931(2) 0.1817(3)
H16 H 0.3497 0.6591 0.1823
C6 C 0.0506(3) 0.7324(2) 0.1153(2)
H17 H 0.0420 0.6946 0.0902
C7 C 0.0263(4) 0.8184(3) -0.0982(3)
H18 H 0.0523 0.8494 -0.1196
C8 C 0.0264(4) 0.8250(3) -0.0322(3)
H19 H 0.0521 0.8600 -0.0106
C9 C -0.0109(3) 0.7806(2) 0.0010(2)
C10 C -0.0488(4) 0.7302(3) -0.0344(3)
H20 H -0.0762 0.6989 -0.0141
C11 C -0.0463(4) 0.7261(3) -0.0995(3)
H21 H -0.0714 0.6915 -0.1222
C12 C -0.0062(3) 0.7841(2) 0.0734(2)
H22 H 0.0191 0.8238 0.0897
C13 C -0.2402(4) 0.9133(2) 0.0982(3)
H23 H -0.2514 0.9479 0.0724
C14 C -0.1790(4) 0.8693(3) 0.0818(3)
H24 H -0.1491 0.8752 0.0464
C15 C -0.1620(3) 0.8161(2) 0.1181(2)
C16 C -0.2092(4) 0.8114(2) 0.1704(2)
H25 H -0.2008 0.7768 0.1964
C17 C -0.2685(4) 0.8578(2) 0.1839(3)
H26 H -0.2992 0.8533 0.2192
C18 C -0.0962(3) 0.7673(2) 0.1029(2)
H27 H -0.1345 0.7366 0.0754
C19 C -0.1659(4) 0.5999(2) 0.2076(3)
H28 H -0.2289 0.5849 0.1989
C20 C -0.1460(4) 0.6524(2) 0.1765(3)
H29 H -0.1949 0.6715 0.1472
C21 C -0.0534(3) 0.6768(2) 0.1888(2)
C22 C 0.0160(4) 0.6443(2) 0.2319(2)
H30 H 0.0795 0.6582 0.2416
C23 C -0.0088(4) 0.5918(2) 0.2601(3)
H31 H 0.0395 0.5706 0.2878
C24 C -0.0276(3) 0.7352(2) 0.1594(2)
H32 H -0.0067 0.7647 0.1943
C25 C 0.7112(4) 0.8022(3) 0.3443(3)
H33 H 0.6665 0.8329 0.3466
C26 C 0.8066(4) 0.8116(2) 0.3748(3)
H34 H 0.8253 0.8485 0.3950
C27 C 0.8739(3) 0.7657(2) 0.3749(2)
C28 C 0.8413(4) 0.7124(2) 0.3427(3)
H35 H 0.8837 0.6801 0.3415
C29 C 0.7451(4) 0.7076(2) 0.3122(3)
H36 H 0.7247 0.6715 0.2907
C30 C 0.9779(3) 0.7756(2) 0.4070(2)
H37 H 0.9848 0.8146 0.4298
C31 C 1.0107(4) 0.6920(3) 0.6245(3)
H38 H 0.9893 0.6600 0.6471
C32 C 1.0102(4) 0.6849(2) 0.5589(2)
H39 H 0.9893 0.6483 0.5386
C33 C 1.0398(3) 0.7308(2) 0.5233(2)
C34 C 1.0735(4) 0.7832(2) 0.5573(3)
H40 H 1.0969 0.8153 0.5359
C35 C 1.0723(4) 0.7876(3) 0.6226(3)
H41 H 1.0943 0.8233 0.6442
C36 C 1.0327(3) 0.7250(2) 0.4514(2)
H42 H 1.0054 0.6852 0.4370
C37 C 1.2838(4) 0.6402(2) 0.3370(3)
H43 H 1.3238 0.6457 0.3069
C38 C 1.2386(4) 0.6903(2) 0.3570(3)
H44 H 1.2484 0.7284 0.3403
C39 C 1.1786(3) 0.6842(2) 0.4019(2)
C40 C 1.1712(4) 0.6267(2) 0.4258(3)
H45 H 1.1342 0.6202 0.4575
C41 C 1.2180(5) 0.5782(3) 0.4033(3)
H46 H 1.2107 0.5398 0.4201
C42 C 1.1233(3) 0.7376(2) 0.4203(2)
H47 H 1.1670 0.7668 0.4464
C43 C 1.1987(4) 0.8990(2) 0.3069(3)
H48 H 1.2623 0.9130 0.3142
C44 C 1.1772(3) 0.8496(2) 0.3422(2)
H49 H 1.2254 0.8317 0.3730
C45 C 1.0836(3) 0.8267(2) 0.3315(2)
C46 C 1.0152(4) 0.8584(2) 0.2872(3)
H50 H 0.9508 0.8461 0.2797
C47 C 1.0416(4) 0.9076(2) 0.2545(3)
H51 H 0.9940 0.9280 0.2254
C48 C 1.0550(3) 0.7701(2) 0.3627(2)
H52 H 1.0324 0.7401 0.3286
Cd1C Cd 0.01501(2) 0.755833(17) -0.237822(16)
Cd1C_2 Cd 1.01501(2) 0.755833(17) 0.762178(16)
Cd2_2 Cd -0.35986(3) 0.988824(17) 0.19028(2)
Cd2A Cd -0.14014(3) 0.488824(17) 0.30972(2)
Cd3_2 Cd 1.32061(3) 0.502884(17) 0.302553(19)
Cd3A Cd 1.17939(3) 1.002884(17) 0.197447(19)
N2C N 0.4911(3) 0.7299(2) 0.3684(2)
N3_2 N 0.7162(3) 0.90870(19) 0.1489(2)
N4A N 0.5990(3) 1.06963(19) 0.2504(2)
N6C N 0.5408(3) 0.7570(2) 0.1563(2)
N7_2 N 0.2728(3) 0.58423(19) 0.3587(2)
N8A N 0.3670(3) 0.42773(19) 0.2372(2)
S3 S 0.20568(10) 0.41736(6) 0.48838(7)
O15 O 0.2199(3) 0.37892(19) 0.5467(2)
O16 O 0.1938(3) 0.3786(2) 0.4301(2)
O17 O 0.1201(3) 0.4552(2) 0.4867(2)
O18 O 0.2903(3) 0.4561(2) 0.4897(2)
O19 O 0.2349(5) 0.2571(3) 0.4870(3)
H53 H 0.2293 0.2774 0.5206
H54 H 0.1782 0.2493 0.4662
O20 O 0.4450(4) 0.4802(3) 0.5819(3)
H55 H 0.3910 0.4865 0.5567
H56 H 0.4334 0.4675 0.6180
O21 O 0.2990(7) 0.5397(4) 0.1107(4)
H57 H 0.3568 0.5484 0.1285
H58 H 0.2947 0.5421 0.0698
loop_
_geom_bond_atom_site_label_1
_geom_bond_atom_site_label_2
_geom_bond_site_symmetry_1
_geom_bond_site_symmetry_2
Cd1 O1 1_555 1_555
Cd2 O4 1_555 1_555
Cd3 O6 1_555 1_555
S1 O1 1_555 1_555
S2 O5 1_555 1_555
O2 S1 1_555 1_555
O3 S1 1_555 1_555
O4 S1 1_555 1_555
O5 Cd1 1_555 1_555
O6 S2 1_555 1_555
O7 S2 1_555 1_555
O8 S2 1_555 1_555
O9 Cd2 1_555 1_555
H1 O9 1_555 1_555
H2 O9 1_555 1_555
O10 Cd2 1_555 1_555
H3 O10 1_555 1_555
H4 O10 1_555 1_555
O11 Cd2 1_555 1_555
H5 O11 1_555 1_555
H6 O11 1_555 1_555
O12 Cd3 1_555 1_555
H7 O12 1_555 1_555
H8 O12 1_555 1_555
O13 Cd3 1_555 1_555
H9 O13 1_555 1_555
H10 O13 1_555 1_555
O14 Cd3 1_555 1_555
H11 O14 1_555 1_555
H12 O14 1_555 1_555
N1 Cd1 1_555 1_555
N2 C7 1_555 1_555
N3 C13 1_555 1_555
N4 C19 1_555 1_555
N5 Cd1 1_555 1_555
N6 C31 1_555 1_555
N7 C37 1_555 1_555
N8 C43 1_555 1_555
C1 N1 1_555 1_555
H13 C1 1_555 1_555
C2 C1 1_555 1_555
H14 C2 1_555 1_555
C3 C2 1_555 1_555
C4 C3 1_555 1_555
H15 C4 1_555 1_555
C5 N1 1_555 1_555
H16 C5 1_555 1_555
C6 C3 1_555 1_555
H17 C6 1_555 1_555
C7 H18 1_555 1_555
C8 C7 1_555 1_555
H19 C8 1_555 1_555
C9 C8 1_555 1_555
C10 C9 1_555 1_555
H20 C10 1_555 1_555
C11 N2 1_555 1_555
H21 C11 1_555 1_555
C12 C6 1_555 1_555
H22 C12 1_555 1_555
C13 H23 1_555 1_555
C14 C13 1_555 1_555
H24 C14 1_555 1_555
C15 C14 1_555 1_555
C16 C15 1_555 1_555
H25 C16 1_555 1_555
C17 N3 1_555 1_555
H26 C17 1_555 1_555
C18 C12 1_555 1_555
H27 C18 1_555 1_555
C19 H28 1_555 1_555
C20 C19 1_555 1_555
H29 C20 1_555 1_555
C21 C20 1_555 1_555
C22 C21 1_555 1_555
H30 C22 1_555 1_555
C23 N4 1_555 1_555
H31 C23 1_555 1_555
C24 C6 1_555 1_555
H32 C24 1_555 1_555
C25 N5 1_555 1_555
H33 C25 1_555 1_555
C26 C25 1_555 1_555
H34 C26 1_555 1_555
C27 C26 1_555 1_555
C28 C27 1_555 1_555
H35 C28 1_555 1_555
C29 N5 1_555 1_555
H36 C29 1_555 1_555
C30 C27 1_555 1_555
H37 C30 1_555 1_555
C31 H38 1_555 1_555
C32 C31 1_555 1_555
H39 C32 1_555 1_555
C33 C32 1_555 1_555
C34 C33 1_555 1_555
H40 C34 1_555 1_555
C35 N6 1_555 1_555
H41 C35 1_555 1_555
C36 C30 1_555 1_555
H42 C36 1_555 1_555
C37 H43 1_555 1_555
C38 C37 1_555 1_555
H44 C38 1_555 1_555
C39 C38 1_555 1_555
C40 C39 1_555 1_555
H45 C40 1_555 1_555
C41 N7 1_555 1_555
H46 C41 1_555 1_555
C42 C36 1_555 1_555
H47 C42 1_555 1_555
C43 H48 1_555 1_555
C44 C43 1_555 1_555
H49 C44 1_555 1_555
C45 C44 1_555 1_555
C46 C45 1_555 1_555
H50 C46 1_555 1_555
C47 N8 1_555 1_555
H51 C47 1_555 1_555
C48 C30 1_555 1_555
H52 C48 1_555 1_555
S3 O15 1_555 1_555
O16 S3 1_555 1_555
O17 S3 1_555 1_555
O18 S3 1_555 1_555
O19 H53 1_555 1_555
H54 O19 1_555 1_555
O20 H55 1_555 1_555
H56 O20 1_555 1_555
O21 H57 1_555 1_555
H58 O21 1_555 1_555
Cd1C N2 1_555 1_555
Cd1C_2 N6 1_555 1_555
Cd2_2 N3 1_555 1_555
Cd2A N4 1_555 1_555
Cd3_2 N7 1_555 1_555
Cd3A N8 1_555 1_555
N2C Cd1 1_555 1_555
N3_2 Cd2 1_555 1_555
N4A Cd2 1_555 1_555
N6C Cd1 1_555 1_555
N7_2 Cd3 1_555 1_555
N8A Cd3 1_555 1_555
C4 C5 1_555 1_555
C9 C12 1_555 1_555
C10 C11 1_555 1_555
C15 C18 1_555 1_555
C16 C17 1_555 1_555
C18 C24 1_555 1_555
C21 C24 1_555 1_555
C22 C23 1_555 1_555
C28 C29 1_555 1_555
C33 C36 1_555 1_555
C34 C35 1_555 1_555
C39 C42 1_555 1_555
C40 C41 1_555 1_555
C42 C48 1_555 1_555
C45 C48 1_555 1_555
C46 C47 1_555 1_555

#END
