
#######################################################################
#
#                 Cambridge Crystallographic Data Centre
#                                CCDC 
#
#######################################################################
#
# If this CIF has been generated from an entry in the Cambridge 
# Structural Database, then it will include bibliographic, chemical, 
# crystal, experimental, refinement or atomic coordinate data resulting 
# from the CCDC's data processing and validation procedures.
#
#######################################################################

data_RAJFEQ
_chemical_formula_moiety         '(C16 H14 Co3 N6 O7)n'
_symmetry_cell_setting           monoclinic
_symmetry_space_group_name_H-M   'C 2/c'
_symmetry_Int_Tables_number      15
_space_group_name_Hall           '-C 2yc'
loop_
_symmetry_equiv_pos_site_id
_symmetry_equiv_pos_as_xyz
1 x,y,z
2 -x,y,1/2-z
3 1/2+x,1/2+y,z
4 1/2-x,1/2+y,1/2-z
5 -x,-y,-z
6 x,-y,1/2+z
7 1/2-x,1/2-y,-z
8 1/2+x,1/2-y,1/2+z
_cell_length_a                   18.280(3)
_cell_length_b                   11.9163(18)
_cell_length_c                   11.0923(17)
_cell_angle_alpha                90
_cell_angle_beta                 94.040(2)
_cell_angle_gamma                90
_cell_volume                     2410.23
loop_
_atom_site_label
_atom_site_type_symbol
_atom_site_fract_x
_atom_site_fract_y
_atom_site_fract_z
Co1 Co 0.5000 0.39937(6) 0.2500
Co2 Co 0.57704(3) 0.43290(5) -0.00434(4)
C1 C 0.6300(2) 0.2600(4) 0.1676(3)
C2 C 0.6956(2) 0.1942(4) 0.2214(3)
C3 C 0.7508(2) 0.1618(4) 0.1500(3)
H1 H 0.7485 0.1765 0.0675
C4 C 0.8106(2) 0.1053(4) 0.2086(3)
C5 C 0.8130(2) 0.0813(4) 0.3308(3)
C6 C 0.7572(2) 0.1140(4) 0.4035(4)
H2 H 0.7594 0.0988 0.4860
C7 C 0.6992(2) 0.1696(4) 0.3460(4)
H3 H 0.6606 0.1920 0.3909
N1 N 0.87299(18) 0.0622(3) 0.1652(3)
N2 N 0.91108(16) 0.0160(3) 0.2589(3)
N3 N 0.87712(17) 0.0258(3) 0.3602(3)
O1 O 0.47979(14) 0.4144(2) 0.0667(2)
O2 O 0.63150(15) 0.2941(3) 0.0588(2)
O3 O 0.57891(15) 0.2760(3) 0.2353(3)
H4 H 0.4567(18) 0.355(2) 0.047(5)
Co2A Co 0.42296(3) 0.43290(5) 0.50434(4)
C1A C 0.3700(2) 0.2600(4) 0.3324(3)
C2A C 0.3044(2) 0.1942(4) 0.2786(3)
C3A C 0.2492(2) 0.1618(4) 0.3500(3)
H1A H 0.2515 0.1765 0.4325
C4A C 0.1894(2) 0.1053(4) 0.2914(3)
C5A C 0.1870(2) 0.0813(4) 0.1692(3)
C6A C 0.2428(2) 0.1140(4) 0.0965(4)
H2A H 0.2406 0.0988 0.0140
C7A C 0.3008(2) 0.1696(4) 0.1540(4)
H3A H 0.3394 0.1920 0.1091
N1A N 0.12701(18) 0.0622(3) 0.3348(3)
N2A N 0.08892(16) 0.0160(3) 0.2411(3)
N3A N 0.12288(17) 0.0258(3) 0.1398(3)
O1A O 0.52021(14) 0.4144(2) 0.4333(2)
O2A O 0.36850(15) 0.2941(3) 0.4412(2)
O3A O 0.42109(15) 0.2760(3) 0.2647(3)
H4A H 0.5433(18) 0.355(2) 0.453(5)
Co1B Co -0.0000 -0.10063(6) 0.2500
Co1B_2 Co 1.0000 -0.10063(6) 0.2500
Co2B Co 0.07704(3) -0.06710(5) -0.00434(4)
Co2C Co 0.92296(3) -0.06710(5) 0.50434(4)
Co2D Co 0.42296(3) 0.56710(5) 0.00434(4)
Co2E Co 0.57704(3) 0.56710(5) 0.49566(4)
Co2F Co 0.92296(3) 0.06710(5) 0.00434(4)
Co2G Co 0.07704(3) 0.06710(5) 0.49566(4)
N1F N 0.62701(18) 0.4378(3) -0.1652(3)
N1G N 0.37299(18) 0.4378(3) 0.6652(3)
N2B N 0.41108(16) 0.5160(3) 0.2589(3)
N2C N 0.58892(16) 0.5160(3) 0.2411(3)
N3B N 0.37712(17) 0.5258(3) 0.3602(3)
N3C N 0.62288(17) 0.5258(3) 0.1398(3)
O1D O 0.52021(14) 0.5856(2) -0.0667(2)
O1E O 0.47979(14) 0.5856(2) 0.5667(2)
C8 C 0.4193(9) 0.1352(17) 0.7330(12)
C9 C 0.4579(14) 0.1481(16) 0.8486(15)
O4 O 0.4815(10) 0.2477(10) 0.8901(11)
loop_
_geom_bond_atom_site_label_1
_geom_bond_atom_site_label_2
_geom_bond_site_symmetry_1
_geom_bond_site_symmetry_2
Co1 O1 1_555 1_555
Co2 O1 1_555 1_555
C1 C2 1_555 1_555
C2 C3 1_555 1_555
C3 H1 1_555 1_555
C4 C3 1_555 1_555
C5 C4 1_555 1_555
C6 C5 1_555 1_555
H2 C6 1_555 1_555
C7 C2 1_555 1_555
H3 C7 1_555 1_555
N1 C4 1_555 1_555
N2 N1 1_555 1_555
N3 C5 1_555 1_555
O1 H4 1_555 1_555
O2 Co2 1_555 1_555
O3 Co1 1_555 1_555
C8 C9 1_555 1_555
C9 O4 1_555 1_555
Co2A O1A 1_555 1_555
C1A C2A 1_555 1_555
C2A C3A 1_555 1_555
C3A H1A 1_555 1_555
C4A C3A 1_555 1_555
C5A C4A 1_555 1_555
C6A C5A 1_555 1_555
H2A C6A 1_555 1_555
C7A C2A 1_555 1_555
H3A C7A 1_555 1_555
N1A C4A 1_555 1_555
N2A N1A 1_555 1_555
N3A C5A 1_555 1_555
O1A Co1 1_555 1_555
O2A Co2A 1_555 1_555
O3A Co1 1_555 1_555
H4A O1A 1_555 1_555
Co1B N2A 1_555 1_555
Co1B_2 N2 1_555 1_555
Co2B N3A 1_555 1_555
Co2C N3 1_555 1_555
Co2D O1 1_555 1_555
Co2E O1A 1_555 1_555
Co2F N1 1_555 1_555
Co2G N1A 1_555 1_555
N1F Co2 1_555 1_555
N1G Co2A 1_555 1_555
N2B Co1 1_555 1_555
N2C Co1 1_555 1_555
N3B Co2A 1_555 1_555
N3C Co2 1_555 1_555
O1D Co2 1_555 1_555
O1E Co2A 1_555 1_555
C1 O2 1_555 1_555
C1 O3 1_555 1_555
C6 C7 1_555 1_555
N2 N3 1_555 1_555
C1A O2A 1_555 1_555
C1A O3A 1_555 1_555
C6A C7A 1_555 1_555
N2A N3A 1_555 1_555
Co2D O1D 1_555 1_555
Co2E O1E 1_555 1_555
N2B N3B 1_555 1_555
N2C N3C 1_555 1_555

#END
