
#######################################################################
#
#                 Cambridge Crystallographic Data Centre
#                                CCDC 
#
#######################################################################
#
# If this CIF has been generated from an entry in the Cambridge 
# Structural Database, then it will include bibliographic, chemical, 
# crystal, experimental, refinement or atomic coordinate data resulting 
# from the CCDC's data processing and validation procedures.
#
#######################################################################

data_QUZVEO
_chemical_formula_moiety         '(C24 H20 Dy2 N2 O17)n'
_symmetry_cell_setting           orthorhombic
_symmetry_space_group_name_H-M   'P n m a'
_symmetry_Int_Tables_number      62
_space_group_name_Hall           '-P 2ac 2n'
loop_
_symmetry_equiv_pos_site_id
_symmetry_equiv_pos_as_xyz
1 x,y,z
2 1/2-x,-y,1/2+z
3 1/2+x,1/2-y,1/2-z
4 -x,1/2+y,-z
5 -x,-y,-z
6 1/2+x,y,1/2-z
7 1/2-x,1/2+y,1/2+z
8 x,1/2-y,z
_cell_length_a                   8.6326(3)
_cell_length_b                   28.1206(10)
_cell_length_c                   15.3462(5)
_cell_angle_alpha                90
_cell_angle_beta                 90
_cell_angle_gamma                90
_cell_volume                     3725.35
loop_
_atom_site_label
_atom_site_type_symbol
_atom_site_fract_x
_atom_site_fract_y
_atom_site_fract_z
Dy1 Dy 0.94761(4) 0.586720(13) 0.20205(2)
O1 O 1.2067(6) 0.62836(18) 0.3045(3)
O2 O 1.0490(6) 0.6632(2) 0.2105(4)
O3 O 1.0441(6) 0.5227(2) 0.2828(4)
O4 O 1.2051(5) 0.46592(17) 0.4674(3)
O5 O 1.1264(7) 0.3970(2) 0.6551(4)
O6 O 1.1348(8) 0.7500 0.2625(5)
C1 C 1.1472(9) 0.5105(3) 0.3353(5)
C2 C 1.1946(8) 0.7112(3) 0.3038(4)
C3 C 1.1488(8) 0.6646(2) 0.2701(5)
O7 O 1.3384(6) 0.4374(2) 0.6195(3)
O8 O 0.9019(10) 0.6085(3) 0.0532(5)
O9 O 1.2846(6) 0.52669(18) 0.3381(4)
C4 C 1.1308(8) 0.4338(3) 0.5222(4)
C5 C 0.9719(9) 0.4501(3) 0.4124(5)
H1 H 0.8861 0.4501 0.3758
C6 C 1.1013(8) 0.4745(2) 0.4011(4)
C7 C 1.2894(8) 0.7246(3) 0.3685(5)
H2 H 1.3442 0.7048 0.4060
C8 C 1.2036(9) 0.4218(3) 0.6053(5)
C9 C 0.9884(10) 0.4243(3) 0.4891(5)
H3 H 0.9148 0.4042 0.5134
C10 C 0.9286(13) 0.5862(4) -0.0150(8)
H4 H 0.9475 0.5539 -0.0078
N1 N 0.9338(10) 0.6006(4) -0.0909(6)
C11 C 0.9603(13) 0.5750(5) -0.1676(8)
H5 H 1.0688 0.5680 -0.1726
H6 H 0.9277 0.5936 -0.2167
H7 H 0.9027 0.5458 -0.1660
C12 C 0.8345(13) 0.6491(4) -0.1075(7)
H8 H 0.7673 0.6547 -0.0587
H9 H 0.7736 0.6457 -0.1594
H10 H 0.9042 0.6755 -0.1141
O2G O 1.0490(6) 0.8368(2) 0.2105(4)
C2G C 1.1946(8) 0.7888(3) 0.3038(4)
C3G C 1.1488(8) 0.8354(2) 0.2701(5)
C7G C 1.2894(8) 0.7754(3) 0.3685(5)
H2G H 1.3442 0.7952 0.4060
O1G O 1.2067(6) 0.87164(18) 0.3045(3)
Dy1D Dy 1.05239(4) 0.413280(13) 0.79795(2)
O3D O 0.9559(6) 0.4773(2) 0.7172(4)
O4D O 0.7949(5) 0.53408(17) 0.5326(3)
O5D O 0.8736(7) 0.6030(2) 0.3449(4)
C1D C 0.8528(9) 0.4895(3) 0.6647(5)
O7D O 0.6616(6) 0.5626(2) 0.3805(3)
O8D O 1.0981(10) 0.3915(3) 0.9468(5)
O9D O 0.7154(6) 0.47331(18) 0.6619(4)
C4D C 0.8692(8) 0.5662(3) 0.4778(4)
C5D C 1.0281(9) 0.5499(3) 0.5876(5)
H1D H 1.1139 0.5499 0.6242
C6D C 0.8987(8) 0.5255(2) 0.5989(4)
C8D C 0.7964(9) 0.5782(3) 0.3947(5)
C9D C 1.0116(10) 0.5757(3) 0.5109(5)
H3D H 1.0852 0.5958 0.4866
C10D C 1.0714(13) 0.4138(4) 1.0150(8)
H4D H 1.0525 0.4461 1.0078
N1D N 1.0662(10) 0.3994(4) 1.0909(6)
C11D C 1.0397(13) 0.4250(5) 1.1676(8)
H5D H 0.9312 0.4320 1.1726
H6D H 1.0723 0.4064 1.2167
H7D H 1.0973 0.4542 1.1660
C12D C 1.1655(13) 0.3509(4) 1.1075(7)
H8D H 1.2327 0.3453 1.0587
H9D H 1.2264 0.3543 1.1594
H10D H 1.0958 0.3245 1.1141
Dy1A Dy 0.55239(4) 0.413280(13) 0.70205(2)
Dy1A_2 Dy 1.55239(4) 0.413280(13) 0.70205(2)
Dy1B Dy 1.44761(4) 0.913280(13) 0.29795(2)
Dy1E Dy 0.44761(4) 0.586720(13) 0.29795(2)
Dy1E_2 Dy 1.44761(4) 0.586720(13) 0.29795(2)
Dy1G Dy 0.94761(4) 0.913280(13) 0.20205(2)
O1A O 1.2933(6) 0.37164(18) 0.8045(3)
O1E O 0.7067(6) 0.62836(18) 0.1955(3)
O2D O 0.9510(6) 0.3368(2) 0.7895(4)
O7A O 1.1616(6) 0.5626(2) 0.1195(3)
O7E O 0.8384(6) 0.4374(2) 0.8805(3)
O9A O 1.2154(6) 0.47331(18) 0.8381(4)
O9E O 0.7846(6) 0.52669(18) 0.1619(4)
loop_
_geom_bond_atom_site_label_1
_geom_bond_atom_site_label_2
_geom_bond_site_symmetry_1
_geom_bond_site_symmetry_2
Dy1 O2 1_555 1_555
O1 C3 1_555 1_555
O2 C3 1_555 1_555
O3 Dy1 1_555 1_555
O4 C4 1_555 1_555
O5 C8 1_555 1_555
O6 C2 1_555 1_555
C1 O3 1_555 1_555
C2 C3 1_555 1_555
O7 C8 1_555 1_555
O8 Dy1 1_555 1_555
O9 C1 1_555 1_555
C4 C8 1_555 1_555
C5 H1 1_555 1_555
C6 O4 1_555 1_555
C7 C2 1_555 1_555
H2 C7 1_555 1_555
C9 C4 1_555 1_555
H3 C9 1_555 1_555
C10 O8 1_555 1_555
H4 C10 1_555 1_555
N1 C10 1_555 1_555
C11 N1 1_555 1_555
H5 C11 1_555 1_555
H6 C11 1_555 1_555
H7 C11 1_555 1_555
C12 N1 1_555 1_555
H8 C12 1_555 1_555
H9 C12 1_555 1_555
H10 C12 1_555 1_555
O2G C3G 1_555 1_555
C2G O6 1_555 1_555
C3G C2G 1_555 1_555
C7G C7 1_555 1_555
H2G C7G 1_555 1_555
O1G C3G 1_555 1_555
Dy1D O5 1_555 1_555
O3D Dy1D 1_555 1_555
O4D C4D 1_555 1_555
O5D Dy1 1_555 1_555
C1D O3D 1_555 1_555
O7D C8D 1_555 1_555
O8D Dy1D 1_555 1_555
O9D C1D 1_555 1_555
C4D C8D 1_555 1_555
C5D H1D 1_555 1_555
C6D O4D 1_555 1_555
C8D O5D 1_555 1_555
C9D C4D 1_555 1_555
H3D C9D 1_555 1_555
C10D O8D 1_555 1_555
H4D C10D 1_555 1_555
N1D C10D 1_555 1_555
C11D N1D 1_555 1_555
H5D C11D 1_555 1_555
H6D C11D 1_555 1_555
H7D C11D 1_555 1_555
C12D N1D 1_555 1_555
H8D C12D 1_555 1_555
H9D C12D 1_555 1_555
H10D C12D 1_555 1_555
Dy1A O9D 1_555 1_555
Dy1A_2 O7 1_555 1_555
Dy1B O1G 1_555 1_555
Dy1E O7D 1_555 1_555
Dy1E_2 O1 1_555 1_555
Dy1G O2G 1_555 1_555
O1A Dy1D 1_555 1_555
O1E Dy1 1_555 1_555
O2D Dy1D 1_555 1_555
O7A Dy1 1_555 1_555
O7E Dy1D 1_555 1_555
O9A Dy1D 1_555 1_555
O9E Dy1 1_555 1_555
C1 C6 1_555 1_555
O9 Dy1E_2 1_555 1_555
C5 C6 1_555 1_555
C5 C9 1_555 1_555
C2G C7G 1_555 1_555
C1D C6D 1_555 1_555
C5D C6D 1_555 1_555
C5D C9D 1_555 1_555

#END
