
#######################################################################
#
#                 Cambridge Crystallographic Data Centre
#                                CCDC 
#
#######################################################################
#
# If this CIF has been generated from an entry in the Cambridge 
# Structural Database, then it will include bibliographic, chemical, 
# crystal, experimental, refinement or atomic coordinate data resulting 
# from the CCDC's data processing and validation procedures.
#
#######################################################################

data_ZEGSUB
_chemical_formula_moiety         '(C49 H72 Ca6 O28)n'
_symmetry_cell_setting           tetragonal
_symmetry_space_group_name_H-M   'I 41/a m d'
_symmetry_Int_Tables_number      141
_space_group_name_Hall           '-I 4bd 2'
loop_
_symmetry_equiv_pos_site_id
_symmetry_equiv_pos_as_xyz
1 x,y,z
2 1/4-y,3/4+x,1/4+z
3 1/2-x,-y,1/2+z
4 1/4+y,1/4-x,3/4+z
5 x,-y,-z
6 3/4+y,1/4+x,3/4-z
7 1/2-x,y,1/2-z
8 3/4-y,3/4-x,1/4-z
9 1/2+x,1/2+y,1/2+z
10 3/4-y,1/4+x,3/4+z
11 -x,1/2-y,z
12 3/4+y,3/4-x,1/4+z
13 1/2+x,1/2-y,1/2-z
14 1/4+y,3/4+x,1/4-z
15 -x,1/2+y,-z
16 1/4-y,1/4-x,3/4-z
17 -x,-y,-z
18 3/4+y,1/4-x,3/4-z
19 1/2+x,y,1/2-z
20 3/4-y,3/4+x,1/4-z
21 -x,y,z
22 1/4-y,3/4-x,1/4+z
23 1/2+x,-y,1/2+z
24 1/4+y,1/4+x,3/4+z
25 1/2-x,1/2-y,1/2-z
26 1/4+y,3/4-x,1/4-z
27 x,1/2+y,-z
28 1/4-y,1/4+x,3/4-z
29 1/2-x,1/2+y,1/2+z
30 3/4-y,1/4-x,3/4+z
31 x,1/2-y,z
32 3/4+y,3/4+x,1/4+z
_cell_length_a                   29.1153(4)
_cell_length_b                   29.1153(4)
_cell_length_c                   15.8546(5)
_cell_angle_alpha                90
_cell_angle_beta                 90
_cell_angle_gamma                90
_cell_volume                     13440
loop_
_atom_site_label
_atom_site_type_symbol
_atom_site_fract_x
_atom_site_fract_y
_atom_site_fract_z
Ca1 Ca 0.50000 0.42786(32) 0.5753(6)
Ca2 Ca 0.50000 0.46372(30) 0.3703(6)
Ca3 Ca 0.56130(27) 0.31130(27) 0.625
C1 C 0.62956(19) 0.38664(24) 0.4470(5)
C2 C 0.65622(24) 0.34989(26) 0.4962(4)
H1 H 0.6564(4) 0.3577(4) 0.5557(4)
H2 H 0.64102(28) 0.32046(27) 0.4899(7)
C3 C 0.70567(21) 0.34621(23) 0.4642(4)
C4 C 0.70454(30) 0.33312(23) 0.3695(5)
H3 H 0.73563(34) 0.33052(33) 0.3480(7)
H4 H 0.6894(4) 0.30367(21) 0.3624(7)
C5 C 0.67845(32) 0.37021(30) 0.32038(28)
H5 H 0.6780(5) 0.3620(4) 0.26042(31)
C6 C 0.62898(25) 0.37352(30) 0.3530(5)
H6 H 0.61357(31) 0.3443(4) 0.3458(7)
H7 H 0.61228(30) 0.3965(4) 0.3212(6)
C7 C 0.65434(32) 0.43335(19) 0.4578(6)
H8 H 0.6379(4) 0.45702(21) 0.4270(8)
H9 H 0.6549(4) 0.44187(30) 0.5169(6)
C8 C 0.72984(23) 0.39296(30) 0.4743(6)
H10 H 0.7308(4) 0.4014(4) 0.5334(6)
H11 H 0.76114(20) 0.3909(4) 0.4537(8)
C9 C 0.70239(30) 0.41637(29) 0.3311(5)
H12 H 0.6861(4) 0.43975(35) 0.2994(6)
H13 H 0.73349(34) 0.4145(4) 0.3094(7)
C10 C 0.70351(28) 0.42937(18) 0.4243(6)
H14 H 0.7190(4) 0.45905(23) 0.4306(9)
C11 C 0.58166(24) 0.3917(4) 0.4826(9)
C12 C 0.73132(33) 0.3100(4) 0.5138(8)
O1 O 0.5522(4) 0.4205(5) 0.4431(9)
O2 O 0.5601(5) 0.3706(6) 0.5400(10)
O3 O 0.7170(5) 0.3031(5) 0.5873(8)
O4 O 0.7735(4) 0.2970(5) 0.4910(9)
C13 C 0.50000 0.25000 0.74077
O5 O 0.50000 0.25000 0.81646
O6 O 0.53569 0.25000 0.70293
O7 O 0.5000(8) 0.36 0.6628(13)
O8 O 0.50000 0.3972(6) 0.2670(12)
Ca1M Ca 0.67786(32) 0.25000 0.6747(6)
Ca1D Ca 0.50000 0.57214(32) 0.4247(6)
Ca1G Ca 0.32214(32) 0.25000 0.6747(6)
Ca1A Ca 0.82214(32) 0.25000 0.8253(6)
Ca2M Ca 0.71372(30) 0.25000 0.8797(6)
Ca2D Ca 0.50000 0.53628(30) 0.6297(6)
Ca2A Ca 0.78628(30) 0.25000 0.6203(6)
Ca2K Ca 0.21372(30) 0.25000 0.6203(6)
Ca2G Ca 0.28628(30) 0.25000 0.8797(6)
Ca3S Ca 0.43870(27) 0.31130(27) 0.625
Ca3Y Ca 0.56130(27) 0.18870(27) 0.625
Ca3G Ca 0.43870(27) 0.18870(27) 0.625
C1T C 0.37044(19) 0.38664(24) 0.4470(5)
C1M C 0.63664(24) 0.37956(19) 0.8030(5)
C1S C 0.36336(24) 0.37956(19) 0.8030(5)
C2T C 0.34378(24) 0.34989(26) 0.4962(4)
C2M C 0.59989(26) 0.40622(24) 0.7538(4)
C2S C 0.40011(26) 0.40622(24) 0.7538(4)
H1T H 0.3436(4) 0.3577(4) 0.5557(4)
H1M H 0.6077(4) 0.4064(4) 0.6943(4)
H1S H 0.3923(4) 0.4064(4) 0.6943(4)
H2T H 0.35898(28) 0.32046(27) 0.4899(7)
H2M H 0.57046(27) 0.39102(28) 0.7601(7)
H2S H 0.42954(27) 0.39102(28) 0.7601(7)
C3T C 0.29433(21) 0.34621(23) 0.4642(4)
C3M C 0.59621(23) 0.45567(21) 0.7858(4)
C3S C 0.40379(23) 0.45567(21) 0.7858(4)
C4T C 0.29546(30) 0.33312(23) 0.3695(5)
C4M C 0.58312(23) 0.45454(30) 0.8805(5)
C4S C 0.41688(23) 0.45454(30) 0.8805(5)
H3T H 0.26437(34) 0.33052(33) 0.3480(7)
H3M H 0.58052(33) 0.48563(34) 0.9020(7)
H3S H 0.41948(33) 0.48563(34) 0.9020(7)
H4T H 0.3106(4) 0.30367(21) 0.3624(7)
H4M H 0.55367(21) 0.4394(4) 0.8876(7)
H4S H 0.44633(21) 0.4394(4) 0.8876(7)
C5T C 0.32155(32) 0.37021(30) 0.32038(28)
C5M C 0.62021(30) 0.42845(32) 0.92962(28)
C5S C 0.37979(30) 0.42845(32) 0.92962(28)
H5T H 0.3220(5) 0.3620(4) 0.26042(31)
H5M H 0.6120(4) 0.4280(5) 0.98958(31)
H5S H 0.3880(4) 0.4280(5) 0.98958(31)
C6T C 0.37102(25) 0.37352(30) 0.3530(5)
C6M C 0.62352(30) 0.37898(25) 0.8970(5)
C6S C 0.37648(30) 0.37898(25) 0.8970(5)
H6T H 0.38643(31) 0.3443(4) 0.3458(7)
H6M H 0.5943(4) 0.36357(31) 0.9042(7)
H6S H 0.4057(4) 0.36357(31) 0.9042(7)
H7T H 0.38772(30) 0.3965(4) 0.3212(6)
H7M H 0.6465(4) 0.36228(30) 0.9288(6)
H7S H 0.3535(4) 0.36228(30) 0.9288(6)
C7T C 0.34566(32) 0.43335(19) 0.4578(6)
C7M C 0.68335(19) 0.40434(32) 0.7922(6)
C7S C 0.31665(19) 0.40434(32) 0.7922(6)
H8T H 0.3621(4) 0.45702(21) 0.4270(8)
H8M H 0.70702(21) 0.3879(4) 0.8230(8)
H8S H 0.29298(21) 0.3879(4) 0.8230(8)
H9T H 0.3451(4) 0.44187(30) 0.5169(6)
H9M H 0.69187(30) 0.4049(4) 0.7331(6)
H9S H 0.30813(30) 0.4049(4) 0.7331(6)
C8T C 0.27016(23) 0.39296(30) 0.4743(6)
C8M C 0.64296(30) 0.47984(23) 0.7757(6)
C8S C 0.35704(30) 0.47984(23) 0.7757(6)
H10T H 0.2692(4) 0.4014(4) 0.5334(6)
H10M H 0.6514(4) 0.4808(4) 0.7166(6)
H10S H 0.3486(4) 0.4808(4) 0.7166(6)
H11T H 0.23886(20) 0.3909(4) 0.4537(8)
H11M H 0.6409(4) 0.51114(20) 0.7963(8)
H11S H 0.3591(4) 0.51114(20) 0.7963(8)
C9T C 0.29761(30) 0.41637(29) 0.3311(5)
C9M C 0.66637(29) 0.45239(30) 0.9189(5)
C9S C 0.33363(29) 0.45239(30) 0.9189(5)
H12T H 0.3139(4) 0.43975(35) 0.2994(6)
H12M H 0.68975(35) 0.4361(4) 0.9506(6)
H12S H 0.31025(35) 0.4361(4) 0.9506(6)
H13T H 0.26651(34) 0.4145(4) 0.3094(7)
H13M H 0.6645(4) 0.48349(34) 0.9406(7)
H13S H 0.3355(4) 0.48349(34) 0.9406(7)
C10T C 0.29649(28) 0.42937(18) 0.4243(6)
C10M C 0.67937(18) 0.45351(28) 0.8257(6)
C10S C 0.32063(18) 0.45351(28) 0.8257(6)
H14T H 0.2810(4) 0.45905(23) 0.4306(9)
H14M H 0.70905(23) 0.4690(4) 0.8194(9)
H14S H 0.29095(23) 0.4690(4) 0.8194(9)
C11T C 0.41834(24) 0.3917(4) 0.4826(9)
C11M C 0.6417(4) 0.33166(24) 0.7674(9)
C11S C 0.3583(4) 0.33166(24) 0.7674(9)
C12T C 0.26868(33) 0.3100(4) 0.5138(8)
C12M C 0.5600(4) 0.48132(33) 0.7362(8)
C12S C 0.4400(4) 0.48132(33) 0.7362(8)
O1T O 0.4478(4) 0.4205(5) 0.4431(9)
O1M O 0.6705(5) 0.3022(4) 0.8069(9)
O1S O 0.3295(5) 0.3022(4) 0.8069(9)
O1Y O 0.6705(5) 0.1978(4) 0.8069(9)
O2T O 0.4399(5) 0.3706(6) 0.5400(10)
O2M O 0.6206(6) 0.3101(5) 0.7100(10)
O2S O 0.3794(6) 0.3101(5) 0.7100(10)
O2Y O 0.6206(6) 0.1899(5) 0.7100(10)
O3T O 0.2830(5) 0.3031(5) 0.5873(8)
O3M O 0.5531(5) 0.4670(5) 0.6627(8)
O3S O 0.4469(5) 0.4670(5) 0.6627(8)
O3C O 0.5531(5) 0.5330(5) 0.3373(8)
O3CA O 0.4469(5) 0.5330(5) 0.3373(8)
O3DA O 0.7170(5) 0.1969(5) 0.5873(8)
O3F O 0.7830(5) 0.3031(5) 0.9127(8)
O3X O 0.7830(5) 0.1969(5) 0.9127(8)
O4T O 0.2265(4) 0.2970(5) 0.4910(9)
O4M O 0.5470(5) 0.5235(4) 0.7590(9)
O4S O 0.4530(5) 0.5235(4) 0.7590(9)
O4C O 0.5470(5) 0.4765(4) 0.2410(9)
O4CA O 0.4530(5) 0.4765(4) 0.2410(9)
O4F O 0.7265(4) 0.2970(5) 1.0090(9)
O4X O 0.7265(4) 0.2030(5) 1.0090(9)
O6J O 0.46431 0.25000 0.70293
O6M O 0.50000 0.28569 0.54707
O7M O 0.61 0.2500(8) 0.5872(13)
O7G O 0.39 0.2500(8) 0.5872(13)
O8M O 0.6472(6) 0.25000 0.9830(12)
O9 O 0.3499(5) 0.3163(5) 0.1142(9)
O10 O 0.2910(7) 0.25000 0.2032(13)
O11 O -0.00000 0.8113(9) 0.3783(16)
O12 O 0.4357(7) 0.75000 0.0891(11)
O13 O 0.3679(10) 0.25000 0.2329(23)
loop_
_geom_bond_atom_site_label_1
_geom_bond_atom_site_label_2
_geom_bond_site_symmetry_1
_geom_bond_site_symmetry_2
Ca1 O1 1_555 1_555
Ca2 O1 1_555 1_555
Ca3 O2 1_555 1_555
C1 C2 1_555 1_555
C2 H1 1_555 1_555
H2 C2 1_555 1_555
C3 C2 1_555 1_555
C4 C3 1_555 1_555
H3 C4 1_555 1_555
H4 C4 1_555 1_555
C5 C4 1_555 1_555
H5 C5 1_555 1_555
C6 C1 1_555 1_555
H6 C6 1_555 1_555
H7 C6 1_555 1_555
C7 C1 1_555 1_555
H8 C7 1_555 1_555
H9 C7 1_555 1_555
C8 C3 1_555 1_555
H10 C8 1_555 1_555
H11 C8 1_555 1_555
C9 C5 1_555 1_555
H12 C9 1_555 1_555
H13 C9 1_555 1_555
C10 C7 1_555 1_555
H14 C10 1_555 1_555
C11 C1 1_555 1_555
C12 C3 1_555 1_555
O1 C11 1_555 1_555
O2 Ca1 1_555 1_555
O3 C12 1_555 1_555
O4 C12 1_555 1_555
C13 O5 1_555 1_555
O6 Ca3 1_555 1_555
O7 Ca1 1_555 1_555
O8 Ca2 1_555 1_555
Ca1M O3 1_555 1_555
Ca1D O3C 1_555 1_555
Ca1G O1S 1_555 1_555
Ca1A O3F 1_555 1_555
Ca2M O1M 1_555 1_555
Ca2D O3M 1_555 1_555
Ca2A O3 1_555 1_555
Ca2K O3T 1_555 1_555
Ca2G O1S 1_555 1_555
Ca3S O7 1_555 1_555
Ca3Y O6 1_555 1_555
Ca3G O6J 1_555 1_555
C1T C2T 1_555 1_555
C1M C2M 1_555 1_555
C1S C2S 1_555 1_555
C2T H1T 1_555 1_555
C2M H1M 1_555 1_555
C2S H1S 1_555 1_555
H2T C2T 1_555 1_555
H2M C2M 1_555 1_555
H2S C2S 1_555 1_555
C3T C2T 1_555 1_555
C3M C2M 1_555 1_555
C3S C2S 1_555 1_555
C4T C3T 1_555 1_555
C4M C3M 1_555 1_555
C4S C3S 1_555 1_555
H3T C4T 1_555 1_555
H3M C4M 1_555 1_555
H3S C4S 1_555 1_555
H4T C4T 1_555 1_555
H4M C4M 1_555 1_555
H4S C4S 1_555 1_555
C5T C4T 1_555 1_555
C5M C4M 1_555 1_555
C5S C4S 1_555 1_555
H5T C5T 1_555 1_555
H5M C5M 1_555 1_555
H5S C5S 1_555 1_555
C6T C1T 1_555 1_555
C6M C1M 1_555 1_555
C6S C1S 1_555 1_555
H6T C6T 1_555 1_555
H6M C6M 1_555 1_555
H6S C6S 1_555 1_555
H7T C6T 1_555 1_555
H7M C6M 1_555 1_555
H7S C6S 1_555 1_555
C7T C1T 1_555 1_555
C7M C1M 1_555 1_555
C7S C1S 1_555 1_555
H8T C7T 1_555 1_555
H8M C7M 1_555 1_555
H8S C7S 1_555 1_555
H9T C7T 1_555 1_555
H9M C7M 1_555 1_555
H9S C7S 1_555 1_555
C8T C3T 1_555 1_555
C8M C3M 1_555 1_555
C8S C3S 1_555 1_555
H10T C8T 1_555 1_555
H10M C8M 1_555 1_555
H10S C8S 1_555 1_555
H11T C8T 1_555 1_555
H11M C8M 1_555 1_555
H11S C8S 1_555 1_555
C9T C5T 1_555 1_555
C9M C5M 1_555 1_555
C9S C5S 1_555 1_555
H12T C9T 1_555 1_555
H12M C9M 1_555 1_555
H12S C9S 1_555 1_555
H13T C9T 1_555 1_555
H13M C9M 1_555 1_555
H13S C9S 1_555 1_555
C10T C7T 1_555 1_555
C10M C7M 1_555 1_555
C10S C7S 1_555 1_555
H14T C10T 1_555 1_555
H14M C10M 1_555 1_555
H14S C10S 1_555 1_555
C11T C1T 1_555 1_555
C11M C1M 1_555 1_555
C11S C1S 1_555 1_555
C12T C3T 1_555 1_555
C12M C3M 1_555 1_555
C12S C3S 1_555 1_555
O1T Ca1 1_555 1_555
O1M Ca1M 1_555 1_555
O1S C11S 1_555 1_555
O1Y Ca1M 1_555 1_555
O2T Ca1 1_555 1_555
O2M Ca3 1_555 1_555
O2S Ca1G 1_555 1_555
O2Y Ca1M 1_555 1_555
O3T Ca1G 1_555 1_555
O3M Ca1 1_555 1_555
O3S Ca1 1_555 1_555
O3C Ca2 1_555 1_555
O3CA Ca2 1_555 1_555
O3DA Ca1M 1_555 1_555
O3F Ca2M 1_555 1_555
O3X Ca1A 1_555 1_555
O4T Ca2K 1_555 1_555
O4M Ca2D 1_555 1_555
O4S Ca2D 1_555 1_555
O4C Ca2 1_555 1_555
O4CA Ca2 1_555 1_555
O4F Ca2M 1_555 1_555
O4X Ca2M 1_555 1_555
O6J C13 1_555 1_555
O6M Ca3 1_555 1_555
O7M Ca3 1_555 1_555
O7G Ca1G 1_555 1_555
O8M Ca2M 1_555 1_555
Ca2 O1T 1_555 1_555
Ca3 O7 1_555 1_555
C5 C6 1_555 1_555
C8 C10 1_555 1_555
C9 C10 1_555 1_555
C11 O2 1_555 1_555
O4 Ca2A 1_555 1_555
C13 O6 1_555 1_555
Ca1M O2M 1_555 1_555
Ca1M O7M 1_555 1_555
Ca1D O3CA 1_555 1_555
Ca2M O1Y 1_555 1_555
Ca2M O3X 1_555 1_555
Ca2D O3S 1_555 1_555
Ca2A O3DA 1_555 1_555
Ca3S O2T 1_555 1_555
Ca3S O2S 1_555 1_555
Ca3S O6J 1_555 1_555
Ca3S O6M 1_555 1_555
Ca3S O7G 1_555 1_555
Ca3Y O2Y 1_555 1_555
Ca3Y O7M 1_555 1_555
Ca3G O7G 1_555 1_555
C5T C6T 1_555 1_555
C5M C6M 1_555 1_555
C5S C6S 1_555 1_555
C8T C10T 1_555 1_555
C8M C10M 1_555 1_555
C8S C10S 1_555 1_555
C9T C10T 1_555 1_555
C9M C10M 1_555 1_555
C9S C10S 1_555 1_555
C11T O1T 1_555 1_555
C11T O2T 1_555 1_555
C11M O1M 1_555 1_555
C11M O2M 1_555 1_555
C11S O2S 1_555 1_555
C12T O3T 1_555 1_555
C12T O4T 1_555 1_555
C12M O3M 1_555 1_555
C12M O4M 1_555 1_555
C12S O3S 1_555 1_555
C12S O4S 1_555 1_555

#END
