
#######################################################################
#
#                 Cambridge Crystallographic Data Centre
#                                CCDC 
#
#######################################################################
#
# If this CIF has been generated from an entry in the Cambridge 
# Structural Database, then it will include bibliographic, chemical, 
# crystal, experimental, refinement or atomic coordinate data resulting 
# from the CCDC's data processing and validation procedures.
#
#######################################################################

data_MOJNAC
_chemical_formula_moiety         '(C15 H30 N6 O21 Sm2)n'
_symmetry_cell_setting           monoclinic
_symmetry_space_group_name_H-M   'C 2/c'
_symmetry_Int_Tables_number      15
_space_group_name_Hall           '-C 2yc'
loop_
_symmetry_equiv_pos_site_id
_symmetry_equiv_pos_as_xyz
1 x,y,z
2 -x,y,1/2-z
3 1/2+x,1/2+y,z
4 1/2-x,1/2+y,1/2-z
5 -x,-y,-z
6 x,-y,1/2+z
7 1/2-x,1/2-y,-z
8 1/2+x,1/2-y,1/2+z
_cell_length_a                   12.6974(13)
_cell_length_b                   16.7309(12)
_cell_length_c                   14.8076(15)
_cell_angle_alpha                90
_cell_angle_beta                 91.452(8)
_cell_angle_gamma                90
_cell_volume                     3144.7
loop_
_atom_site_label
_atom_site_type_symbol
_atom_site_fract_x
_atom_site_fract_y
_atom_site_fract_z
_atom_site_U_iso_or_equiv
_atom_site_thermal_displace_type
Sm1 Sm 0.37690(2) 0.198355(16) 0.055352(16) 0.0144 Uani
O1 O 0.3269(4) 0.0715(2) 0.1362(3) 0.0216 Uani
O2 O 0.3786(4) 0.1729(3) 0.2194(3) 0.0223 Uani
O3 O 0.5225(3) -0.2672(3) 0.0645(3) 0.0214 Uani
O4 O 0.6929(3) -0.2831(2) 0.0797(3) 0.0162 Uani
O5 O 0.2913(3) -0.1144(2) 0.4438(3) 0.0181 Uani
O6 O 0.1443(3) -0.1699(2) 0.3855(3) 0.0203 Uani
O7 O 0.4946(4) 0.0927(3) -0.0003(3) 0.0270 Uani
O8 O 0.5500(3) 0.2277(3) 0.1206(3) 0.0240 Uani
N1 N 0.3269(4) -0.0310(3) 0.2873(3) 0.0188 Uani
N2 N 0.5000 -0.2707(4) 0.2500 0.0212 Uani
N3 N 0.5000 -0.0290(4) 0.2500 0.0196 Uani
N4 N 0.4087(4) -0.1530(3) 0.2679(3) 0.0195 Uani
C1 C 0.3474(4) 0.1006(3) 0.2129(4) 0.0186 Uani
C2 C 0.3332(5) 0.0545(3) 0.2990(3) 0.0189 Uani
H1 H 0.3917 0.0665 0.3401 0.0230 Uiso
H2 H 0.2693 0.0728 0.3270 0.0230 Uiso
C3 C 0.6018(4) -0.2862(3) 0.1126(3) 0.0154 Uani
C4 C 0.5886(4) -0.3112(3) 0.2103(3) 0.0181 Uani
H3 H 0.5777 -0.3685 0.2131 0.0220 Uiso
H4 H 0.6524 -0.2986 0.2448 0.0220 Uiso
C5 C 0.2217(4) -0.1231(3) 0.3840(3) 0.0166 Uani
C6 C 0.2282(4) -0.0729(4) 0.2977(4) 0.0203 Uani
H5 H 0.2169 -0.1077 0.2460 0.0240 Uiso
H6 H 0.1715 -0.0340 0.2972 0.0240 Uiso
C7 C 0.4148(4) -0.0732(3) 0.2680(3) 0.0178 Uani
C8 C 0.5000 -0.1889(5) 0.2500 0.0189 Uani
O1A O 0.6731(4) 0.0715(2) 0.3638(3) 0.0216 Uani
O2A O 0.6214(4) 0.1729(3) 0.2806(3) 0.0223 Uani
N1A N 0.6731(4) -0.0310(3) 0.2127(3) 0.0188 Uani
N4A N 0.5913(4) -0.1530(3) 0.2321(3) 0.0195 Uani
C1A C 0.6526(4) 0.1006(3) 0.2871(4) 0.0186 Uani
C2A C 0.6668(5) 0.0545(3) 0.2010(3) 0.0189 Uani
H1A H 0.6083 0.0665 0.1599 0.0230 Uiso
H2A H 0.7307 0.0728 0.1730 0.0230 Uiso
C7A C 0.5852(4) -0.0732(3) 0.2320(3) 0.0178 Uani
O3A O 0.4775(3) -0.2672(3) 0.4355(3) 0.0214 Uani
O4A O 0.3071(3) -0.2831(2) 0.4203(3) 0.0162 Uani
C3A C 0.3982(4) -0.2862(3) 0.3874(3) 0.0154 Uani
C4A C 0.4114(4) -0.3112(3) 0.2897(3) 0.0181 Uani
H3A H 0.4223 -0.3685 0.2869 0.0220 Uiso
H4A H 0.3476 -0.2986 0.2552 0.0220 Uiso
O6A O 0.8557(3) -0.1699(2) 0.1145(3) 0.0203 Uani
C5A C 0.7783(4) -0.1231(3) 0.1160(3) 0.0166 Uani
C6A C 0.7718(4) -0.0729(4) 0.2023(4) 0.0203 Uani
H5A H 0.7831 -0.1077 0.2540 0.0240 Uiso
H6A H 0.8285 -0.0340 0.2028 0.0240 Uiso
O5A O 0.7087(3) -0.1144(2) 0.0562(3) 0.0181 Uani
Sm1A Sm 0.62310(2) 0.198355(16) 0.444648(16) 0.0144 Uani
O7A O 0.5054(4) 0.0927(3) 0.5003(3) 0.0270 Uani
O8A O 0.4500(3) 0.2277(3) 0.3794(3) 0.0240 Uani
Sm1B Sm 0.87690(2) -0.301645(16) 0.055352(16) 0.0144 Uani
Sm1C Sm 0.12310(2) -0.301645(16) 0.444648(16) 0.0144 Uani
Sm1D Sm 0.62310(2) -0.198355(16) -0.055352(16) 0.0144 Uani
Sm1E Sm 0.37690(2) -0.198355(16) 0.555352(16) 0.0144 Uani
O3D O 0.4775(3) 0.2672(3) -0.0645(3) 0.0214 Uani
O3E O 0.5225(3) 0.2672(3) 0.5645(3) 0.0214 Uani
O4B O 0.1929(3) 0.2169(2) 0.0797(3) 0.0162 Uani
O4C O 0.8071(3) 0.2169(2) 0.4203(3) 0.0162 Uani
O4D O 0.3071(3) 0.2831(2) -0.0797(3) 0.0162 Uani
O4E O 0.6929(3) 0.2831(2) 0.5797(3) 0.0162 Uani
O5D O 0.7087(3) 0.1144(2) 0.5562(3) 0.0181 Uani
O5E O 0.2913(3) 0.1144(2) -0.0562(3) 0.0181 Uani
O6B O 0.6443(3) 0.3301(2) 0.3855(3) 0.0203 Uani
O6C O 0.3557(3) 0.3301(2) 0.1145(3) 0.0203 Uani
O9 O 0.5000 0.3773(4) 0.2500 0.0329 Uani
O10 O 0.8868(5) 0.0853(4) 0.0548(5) 0.0496 Uani
O11 O 0.3023(4) 0.9297(4) 0.0486(4) 0.0406 Uani
O12 O 0.0458(5) 0.9919(4) 0.1214(5) 0.0510 Uani
O13 O 0.2535(13) 0.7919(12) 0.1070(12) 0.0595 Uani
loop_
_atom_site_aniso_label
_atom_site_aniso_U_11
_atom_site_aniso_U_22
_atom_site_aniso_U_33
_atom_site_aniso_U_23
_atom_site_aniso_U_13
_atom_site_aniso_U_12
Sm1 0.01562(11) 0.01415(11) 0.01347(10) 0.00068(9) 0.00012(7) 0.00086(10)
O1 0.032(2) 0.0165(17) 0.0160(16) 0.0028(13) -0.0024(14) -0.0028(16)
O2 0.034(2) 0.0192(18) 0.0135(15) 0.0029(13) -0.0046(14) -0.0048(17)
O3 0.0185 0.028 0.0177 0.0047 0.0005 -0.0016
O4 0.0113 0.0204 0.017 0.0009 0.0009 0.002
O5 0.0207 0.0169 0.0166 0.002 -0.0029 -0.0009
O6 0.0222 0.0145 0.0241 0.0072 -0.0003 -0.0035
O7 0.024(2) 0.023(2) 0.034(2) -0.0077(18) 0.0021(17) 0.0067(17)
O8 0.0185(17) 0.030(2) 0.0232(18) 0.0016(16) -0.0081(14) -0.0045(16)
N1 0.0189(19) 0.017(2) 0.0208(19) 0.0032(15) 0.0055(15) 0.0005(16)
N2 0.027 0.019 0.018 0 0.007 0
N3 0.026(3) 0.014(3) 0.019(3) 0.000 0.003(2) 0.000
N4 0.023(2) 0.019(2) 0.0168(18) 0.0007(15) 0.0041(15) 0.0012(17)
C1 0.018(2) 0.019(2) 0.019(2) -0.0002(18) 0.0016(16) 0.0016(19)
C2 0.025(2) 0.017(2) 0.015(2) 0.0037(17) 0.0041(17) 0.0033(19)
C3 0.0162 0.013 0.0171 -0.003 0.0021 -0.0002
C4 0.023 0.02 0.0114 0.001 0.0047 0.0045
C5 0.017 0.016 0.017 -0.0013 0.0032 0.0031
C6 0.017 0.021 0.023 0.0055 -0.0004 -0.0007
C7 0.020(2) 0.018(2) 0.0153(19) 0.0021(16) -0.0008(16) -0.0001(18)
C8 0.025 0.016 0.016 0 0.005 0
O1A 0.032 0.0165 0.016 -0.0028 -0.0024 0.0028
O2A 0.034 0.0192 0.0135 -0.0029 -0.0046 0.0048
N1A 0.0189 0.017 0.0208 -0.0032 0.0055 -0.0005
N4A 0.023 0.019 0.0168 -0.0007 0.0041 -0.0012
C1A 0.018 0.019 0.019 0.0002 0.0016 -0.0016
C2A 0.025 0.017 0.015 -0.0037 0.0041 -0.0033
C7A 0.02 0.018 0.0153 -0.0021 -0.0008 0.0001
O3A 0.0185 0.028 0.0177 -0.0047 0.0005 0.0016
O4A 0.0113 0.0204 0.017 -0.0009 0.0009 -0.002
C3A 0.0162 0.013 0.0171 0.003 0.0021 0.0002
C4A 0.023 0.02 0.0114 -0.001 0.0047 -0.0045
O6A 0.0222 0.0145 0.0241 -0.0072 -0.0003 0.0035
C5A 0.017 0.016 0.017 0.0013 0.0032 -0.0031
C6A 0.017 0.021 0.023 -0.0055 -0.0004 0.0007
O5A 0.0207 0.0169 0.0166 -0.002 -0.0029 0.0009
Sm1A 0.01562 0.01415 0.01347 -0.00068 0.00012 -0.00086
O7A 0.024 0.023 0.034 0.0077 0.0021 -0.0067
O8A 0.0185 0.03 0.0232 -0.0016 -0.0081 0.0045
Sm1B 0.01562 0.01415 0.01347 0.00068 0.00012 0.00086
Sm1C 0.01562 0.01415 0.01347 -0.00068 0.00012 -0.00086
Sm1D 0.01562 0.01415 0.01347 0.00068 0.00012 0.00086
Sm1E 0.01562 0.01415 0.01347 -0.00068 0.00012 -0.00086
O3D 0.0185 0.028 0.0177 0.0047 0.0005 -0.0016
O3E 0.0185 0.028 0.0177 -0.0047 0.0005 0.0016
O4B 0.0113 0.0204 0.017 0.0009 0.0009 0.002
O4C 0.0113 0.0204 0.017 -0.0009 0.0009 -0.002
O4D 0.0113 0.0204 0.017 0.0009 0.0009 0.002
O4E 0.0113 0.0204 0.017 -0.0009 0.0009 -0.002
O5D 0.0207 0.0169 0.0166 0.002 -0.0029 -0.0009
O5E 0.0207 0.0169 0.0166 -0.002 -0.0029 0.0009
O6B 0.0222 0.0145 0.0241 0.0072 -0.0003 -0.0035
O6C 0.0222 0.0145 0.0241 -0.0072 -0.0003 0.0035
O9 0.032(3) 0.027(3) 0.039(4) 0.000 -0.013(3) 0.000
O10 0.039(3) 0.044(3) 0.065(4) 0.007(3) -0.013(3) -0.009(3)
O11 0.027(2) 0.039(3) 0.056(3) -0.024(3) 0.005(2) -0.002(2)
O12 0.050(4) 0.052(4) 0.051(4) 0.014(3) -0.001(3) 0.005(3)
O13 0.053(8) 0.071(12) 0.054(9) 0.020(8) -0.008(7) -0.017(9)
loop_
_geom_bond_atom_site_label_1
_geom_bond_atom_site_label_2
_geom_bond_site_symmetry_1
_geom_bond_site_symmetry_2
Sm1 O1 1_555 1_555
O1 C1 1_555 1_555
O2 Sm1 1_555 1_555
O3 C3 1_555 1_555
O4 C3 1_555 1_555
O5 C5 1_555 1_555
O6 C5 1_555 1_555
O7 Sm1 1_555 1_555
O8 Sm1 1_555 1_555
N1 C2 1_555 1_555
N2 C4 1_555 1_555
N3 C7 1_555 1_555
N4 C7 1_555 1_555
C1 O2 1_555 1_555
C2 C1 1_555 1_555
H1 C2 1_555 1_555
H2 C2 1_555 1_555
C3 C4 1_555 1_555
C4 H3 1_555 1_555
H4 C4 1_555 1_555
C5 C6 1_555 1_555
C6 N1 1_555 1_555
H5 C6 1_555 1_555
H6 C6 1_555 1_555
C7 N1 1_555 1_555
C8 N2 1_555 1_555
O1A C1A 1_555 1_555
O2A C1A 1_555 1_555
N1A C2A 1_555 1_555
N4A C8 1_555 1_555
C1A C2A 1_555 1_555
C2A H1A 1_555 1_555
H2A C2A 1_555 1_555
C7A N3 1_555 1_555
O3A C3A 1_555 1_555
O4A C3A 1_555 1_555
C3A C4A 1_555 1_555
C4A N2 1_555 1_555
H3A C4A 1_555 1_555
H4A C4A 1_555 1_555
O6A C5A 1_555 1_555
C5A C6A 1_555 1_555
C6A N1A 1_555 1_555
H5A C6A 1_555 1_555
H6A C6A 1_555 1_555
O5A C5A 1_555 1_555
Sm1A O1A 1_555 1_555
O7A Sm1A 1_555 1_555
O8A Sm1A 1_555 1_555
Sm1B O4 1_555 1_555
Sm1C O6 1_555 1_555
Sm1D O3 1_555 1_555
Sm1E O5 1_555 1_555
O3D Sm1 1_555 1_555
O3E Sm1A 1_555 1_555
O4B Sm1 1_555 1_555
O4C Sm1A 1_555 1_555
O4D Sm1 1_555 1_555
O4E Sm1A 1_555 1_555
O5D Sm1A 1_555 1_555
O5E Sm1 1_555 1_555
O6B Sm1A 1_555 1_555
O6C Sm1 1_555 1_555
O4 Sm1D 1_555 1_555
N4 C8 1_555 1_555
O2A Sm1A 1_555 1_555
N1A C7A 1_555 1_555
N4A C7A 1_555 1_555
O3A Sm1E 1_555 1_555
O4A Sm1C 1_555 1_555
O4A Sm1E 1_555 1_555
O6A Sm1B 1_555 1_555
O5A Sm1D 1_555 1_555

#END
