
#######################################################################
#
#                 Cambridge Crystallographic Data Centre
#                                CCDC 
#
#######################################################################
#
# If this CIF has been generated from an entry in the Cambridge 
# Structural Database, then it will include bibliographic, chemical, 
# crystal, experimental, refinement or atomic coordinate data resulting 
# from the CCDC's data processing and validation procedures.
#
#######################################################################

data_BURHUS
_chemical_formula_moiety         '(C2 H12 Co3 N1 O12 P4 1-)n'
_symmetry_cell_setting           monoclinic
_symmetry_space_group_name_H-M   'C 2/c'
_symmetry_Int_Tables_number      15
_space_group_name_Hall           '-C 2yc'
loop_
_symmetry_equiv_pos_site_id
_symmetry_equiv_pos_as_xyz
1 x,y,z
2 -x,y,1/2-z
3 1/2+x,1/2+y,z
4 1/2-x,1/2+y,1/2-z
5 -x,-y,-z
6 x,-y,1/2+z
7 1/2-x,1/2-y,-z
8 1/2+x,1/2-y,1/2+z
_cell_length_a                   15.882(5)
_cell_length_b                   8.462(5)
_cell_length_c                   16.096(5)
_cell_angle_alpha                90
_cell_angle_beta                 112.563(5)
_cell_angle_gamma                90
_cell_volume                     1997.62
loop_
_atom_site_label
_atom_site_type_symbol
_atom_site_fract_x
_atom_site_fract_y
_atom_site_fract_z
_atom_site_U_iso_or_equiv
_atom_site_thermal_displace_type
Co1 Co 0.36390(3) 0.13654(5) -0.52374(3) 0.0328 Uani
Co2 Co 0.0000 0.37328(8) -0.7500 0.0314 Uani
P1 P 0.15253(6) 0.13676(11) -0.63666(6) 0.0329 Uani
P2 P 0.02018(6) 0.62988(10) -0.59922(6) 0.0308 Uani
O1 O 0.1113(2) 0.2488(4) -0.71534(18) 0.0557 Uani
O2 O 0.24815(19) 0.0965(4) -0.62433(18) 0.0539 Uani
O3 O 0.1396(2) 0.1899(4) -0.55358(18) 0.0482 Uani
O4 O 0.10849(18) 0.5807(3) -0.52364(18) 0.0436 Uani
O5 O -0.02557(18) 0.4919(4) -0.65941(18) 0.0515 Uani
O6 O -0.04381(19) 0.7151(3) -0.5654(2) 0.0466 Uani
H1 H 0.110(3) 0.006(5) -0.656(3) 0.0540 Uiso
H2 H 0.042(3) 0.737(5) -0.647(3) 0.0510 Uiso
Co1A Co -0.36390(3) 0.13654(5) -0.97626(3) 0.0328 Uani
Co1F Co 0.13610(3) 0.36346(5) -0.47626(3) 0.0328 Uani
Co1B Co -0.13610(3) 0.63654(5) -0.52374(3) 0.0328 Uani
Co1G Co -0.13610(3) 0.36346(5) -1.02374(3) 0.0328 Uani
Co1C Co 0.13610(3) 0.63654(5) -0.97626(3) 0.0328 Uani
P1A P -0.15253(6) 0.13676(11) -0.86334(6) 0.0329 Uani
P2A P -0.02018(6) 0.62988(10) -0.90078(6) 0.0308 Uani
O1A O -0.1113(2) 0.2488(4) -0.78466(18) 0.0557 Uani
O2A O -0.24815(19) 0.0965(4) -0.87567(18) 0.0539 Uani
O3A O -0.1396(2) 0.1899(4) -0.94642(18) 0.0482 Uani
O3F O 0.3604(2) 0.3101(4) -0.44642(18) 0.0482 Uani
O3G O -0.3604(2) 0.3101(4) -1.05358(18) 0.0482 Uani
O4A O -0.10849(18) 0.5807(3) -0.97636(18) 0.0436 Uani
O4F O 0.39151(18) -0.0807(3) -0.47636(18) 0.0436 Uani
O4G O -0.39151(18) -0.0807(3) -1.02364(18) 0.0436 Uani
O5A O 0.02557(18) 0.4919(4) -0.84059(18) 0.0515 Uani
O6A O 0.04381(19) 0.7151(3) -0.9346(2) 0.0466 Uani
O6B O 0.45619(19) 0.2151(3) -0.5654(2) 0.0466 Uani
O6C O -0.45619(19) 0.2151(3) -0.9346(2) 0.0466 Uani
H1A H -0.110(3) 0.006(5) -0.844(3) 0.0540 Uiso
H2A H -0.042(3) 0.737(5) -0.853(3) 0.0510 Uiso
N1 N 0.3376(3) -0.2831(4) -0.6358(3) 0.0445 Uani
H3 H 0.351(3) -0.215(5) -0.592(3) 0.0450 Uiso
H4 H 0.352(3) -0.249(6) -0.676(4) 0.0650 Uiso
C1 C 0.2379(4) -0.3061(7) -0.6683(4) 0.0746 Uani
H5 H 0.2076 -0.2068 -0.6883 0.1120 Uiso
H6 H 0.2224 -0.3467 -0.6203 0.1120 Uiso
H7 H 0.2188 -0.3798 -0.7174 0.1120 Uiso
C2 C 0.3896(4) -0.4296(6) -0.6031(3) 0.0666 Uani
H8 H 0.4537 -0.4074 -0.5826 0.1000 Uiso
H9 H 0.3731 -0.5055 -0.6510 0.1000 Uiso
H10 H 0.3760 -0.4716 -0.5542 0.1000 Uiso
loop_
_atom_site_aniso_label
_atom_site_aniso_U_11
_atom_site_aniso_U_22
_atom_site_aniso_U_33
_atom_site_aniso_U_23
_atom_site_aniso_U_13
_atom_site_aniso_U_12
Co1 0.0297(3) 0.0387(3) 0.0316(3) 0.0009(2) 0.0136(2) 0.00805(19)
Co2 0.0269 0.0426 0.0238 0 0.0088 0
P1 0.0314(5) 0.0384(5) 0.0296(5) -0.0040(4) 0.0125(4) 0.0049(4)
P2 0.0316 0.0346 0.0316 0.0047 0.018 0.0049
O1 0.0538(18) 0.079(2) 0.0395(15) 0.0137(15) 0.0238(14) 0.0310(16)
O2 0.0359(15) 0.083(2) 0.0365(15) -0.0125(15) 0.0069(12) 0.0160(14)
O3 0.067 0.05 0.0388 0.0005 0.0327 0.0114
O4 0.0381 0.0411 0.0458 0.0032 0.0097 0.0035
O5 0.0416 0.0632 0.0515 -0.0181 0.0198 0.0012
O6 0.0516 0.0386 0.0674 -0.0002 0.0426 0.0047
Co1A 0.0297 0.0387 0.0316 -0.0009 0.0136 -0.00805
Co1F 0.0297 0.0387 0.0316 0.0009 0.0136 0.00805
Co1B 0.0297 0.0387 0.0316 0.0009 0.0136 0.00805
Co1G 0.0297 0.0387 0.0316 -0.0009 0.0136 -0.00805
Co1C 0.0297 0.0387 0.0316 -0.0009 0.0136 -0.00805
P1A 0.0314 0.0384 0.0296 0.004 0.0125 -0.0049
P2A 0.0316 0.0346 0.0316 -0.0047 0.018 -0.0049
O1A 0.0538 0.079 0.0395 -0.0137 0.0238 -0.031
O2A 0.0359 0.083 0.0365 0.0125 0.0069 -0.016
O3A 0.067 0.05 0.0388 -0.0005 0.0327 -0.0114
O3F 0.067 0.05 0.0388 0.0005 0.0327 0.0114
O3G 0.067 0.05 0.0388 -0.0005 0.0327 -0.0114
O4A 0.0381 0.0411 0.0458 -0.0032 0.0097 -0.0035
O4F 0.0381(15) 0.0411(14) 0.0458(15) 0.0032(12) 0.0097(12) 0.0035(11)
O4G 0.0381 0.0411 0.0458 -0.0032 0.0097 -0.0035
O5A 0.0416 0.0632 0.0515 0.0181 0.0198 -0.0012
O6A 0.0516 0.0386 0.0674 0.0002 0.0426 -0.0047
O6B 0.0516 0.0386 0.0674 -0.0002 0.0426 0.0047
O6C 0.0516 0.0386 0.0674 0.0002 0.0426 -0.0047
N1 0.056(2) 0.043(2) 0.042(2) -0.0034(16) 0.0273(17) -0.0080(16)
C1 0.056(3) 0.083(4) 0.097(4) -0.009(3) 0.043(3) -0.006(3)
C2 0.075(4) 0.064(3) 0.057(3) 0.010(2) 0.021(3) 0.016(3)
loop_
_geom_bond_atom_site_label_1
_geom_bond_atom_site_label_2
_geom_bond_site_symmetry_1
_geom_bond_site_symmetry_2
Co1 O2 1_555 1_555
Co2 O1 1_555 1_555
P1 O1 1_555 1_555
P2 O4 1_555 1_555
O2 P1 1_555 1_555
O3 P1 1_555 1_555
O4 Co1F 1_555 1_555
O5 Co2 1_555 1_555
O6 P2 1_555 1_555
H1 P1 1_555 1_555
H2 P2 1_555 1_555
N1 H3 1_555 1_555
H4 N1 1_555 1_555
C1 N1 1_555 1_555
H5 C1 1_555 1_555
H6 C1 1_555 1_555
H7 C1 1_555 1_555
C2 N1 1_555 1_555
H8 C2 1_555 1_555
H9 C2 1_555 1_555
H10 C2 1_555 1_555
Co1A O2A 1_555 1_555
Co1F O3 1_555 1_555
Co1B O6 1_555 1_555
Co1G O3A 1_555 1_555
Co1C O6A 1_555 1_555
P1A O1A 1_555 1_555
P2A O4A 1_555 1_555
O1A Co2 1_555 1_555
O2A P1A 1_555 1_555
O3A P1A 1_555 1_555
O3F Co1 1_555 1_555
O3G Co1A 1_555 1_555
O4A Co1G 1_555 1_555
O4F Co1 1_555 1_555
O4G Co1A 1_555 1_555
O5A Co2 1_555 1_555
O6A P2A 1_555 1_555
O6B Co1 1_555 1_555
O6C Co1A 1_555 1_555
H1A P1A 1_555 1_555
H2A P2A 1_555 1_555
P2 O5 1_555 1_555
P2A O5A 1_555 1_555

#END
