
#######################################################################
#
#                 Cambridge Crystallographic Data Centre
#                                CCDC 
#
#######################################################################
#
# If this CIF has been generated from an entry in the Cambridge 
# Structural Database, then it will include bibliographic, chemical, 
# crystal, experimental, refinement or atomic coordinate data resulting 
# from the CCDC's data processing and validation procedures.
#
#######################################################################

data_MOLRIP
_chemical_formula_moiety         '(C48 H36 Co3 Eu4 N6 O48)n'
_symmetry_cell_setting           monoclinic
_symmetry_space_group_name_H-M   'C 2/c'
_symmetry_Int_Tables_number      15
_space_group_name_Hall           '-C 2yc'
loop_
_symmetry_equiv_pos_site_id
_symmetry_equiv_pos_as_xyz
1 x,y,z
2 -x,y,1/2-z
3 1/2+x,1/2+y,z
4 1/2-x,1/2+y,1/2-z
5 -x,-y,-z
6 x,-y,1/2+z
7 1/2-x,1/2-y,-z
8 1/2+x,1/2-y,1/2+z
_cell_length_a                   20.978(3)
_cell_length_b                   20.211(3)
_cell_length_c                   18.045(2)
_cell_angle_alpha                90
_cell_angle_beta                 118.600(2)
_cell_angle_gamma                90
_cell_volume                     6717.3
loop_
_atom_site_label
_atom_site_type_symbol
_atom_site_fract_x
_atom_site_fract_y
_atom_site_fract_z
Eu1 Eu -0.73161(5) 0.67537(5) 0.23300(6)
Eu2 Eu -1.0000 1.02444(6) 0.2500
Eu3 Eu -0.5000 0.81333(7) 0.7500
Co1 Co -0.85712(13) 0.85267(13) 0.24399(15)
Co2 Co -1.5000 1.1662(2) -0.2500
O1 O -0.7585(10) 0.5546(8) 0.2181(11)
O2 O -0.4910(13) 0.8624(10) 0.6327(13)
O3 O -0.5000 0.941(3) 0.7500
O6 O -1.525(2) 1.207(2) -0.154(2)
O7 O -1.506(3) 1.076(2) -0.194(3)
O8 O -0.7767(7) 0.7799(7) 0.2735(8)
O9 O -0.6721(8) 0.7446(8) 0.3753(9)
O10 O -0.6209(8) 0.8423(8) 0.6745(9)
O11 O -0.7227(8) 0.8624(8) 0.6763(9)
O12 O -0.9199(8) 0.9688(8) 0.3875(8)
O13 O -0.9161(7) 0.9259(6) 0.2775(7)
O14 O -1.0586(7) 1.2207(7) -0.2135(8)
O15 O -0.9432(7) 1.2365(7) -0.1205(8)
O16 O -0.8780(8) 1.1289(8) 0.1689(9)
O17 O -0.9429(7) 1.0459(6) 0.1718(8)
O18 O -1.1913(9) 1.0149(9) -0.1065(10)
O19 O -1.2017(8) 1.0807(8) -0.2104(9)
O20 O -1.3537(7) 1.2476(8) -0.2246(9)
O21 O -1.3871(7) 1.1651(8) -0.1664(10)
O22 O -1.0785(7) 1.1120(8) 0.1593(8)
O23 O -1.1909(7) 1.1206(8) 0.1426(9)
O24 O -1.0437(8) 1.3101(10) -0.0116(11)
O25 O -1.1441(7) 1.3373(7) -0.1283(9)
N1 N -0.8032(8) 0.8545(8) 0.3704(9)
N2 N -1.0751(8) 1.1302(8) -0.1214(9)
N3 N -1.2209(8) 1.2461(8) -0.1054(9)
C1 C -0.7421(10) 0.8191(10) 0.4106(11)
C2 C -0.7009(10) 0.8186(10) 0.4974(12)
H1 H -0.6575 0.7952 0.5242
C3 C -0.7269(10) 0.8550(10) 0.5441(11)
C4 C -0.7910(10) 0.8918(9) 0.5018(12)
H2 H -0.8098 0.9156 0.5311
C5 C -0.8254(10) 0.8913(9) 0.4136(11)
C6 C -0.7265(11) 0.7777(10) 0.3490(13)
C7 C -0.6865(11) 0.8521(9) 0.6397(12)
C8 C -0.8918(9) 0.9319(9) 0.3578(11)
C9 C -1.0108(10) 1.1613(9) -0.0833(11)
C10 C -0.9619(10) 1.1498(9) -0.0010(11)
H3 H -0.9179 1.1723 0.0252
C11 C -0.9802(9) 1.1026(9) 0.0430(11)
C12 C -1.0457(10) 1.0691(9) 0.0019(10)
H4 H -1.0579 1.0369 0.0297
C13 C -1.0926(9) 1.0849(9) -0.0815(11)
C14 C -1.0023(10) 1.2093(9) -0.1417(12)
C15 C -0.9300(9) 1.0914(10) 0.1355(11)
C16 C -1.1675(10) 1.0559(10) -0.1357(12)
C17 C -1.2649(10) 1.2020(10) -0.0957(12)
C18 C -1.2412(10) 1.1621(9) -0.0258(11)
H5 H -1.2728 1.1321 -0.0212
C19 C -1.1694(10) 1.1667(9) 0.0382(11)
C20 C -1.1233(10) 1.2100(10) 0.0279(11)
H6 H -1.0747 1.2128 0.0684
C21 C -1.1511(10) 1.2496(9) -0.0444(11)
C22 C -1.3418(10) 1.2035(10) -0.1673(12)
C23 C -1.1436(10) 1.1287(9) 0.1201(11)
C24 C -1.1083(11) 1.3026(10) -0.0607(13)
Eu1A Eu -1.26839(5) 0.67537(5) 0.26700(6)
Eu1F Eu -0.76839(5) 0.82463(5) 0.76700(6)
Eu1C Eu -0.76839(5) 1.17537(5) 0.26700(6)
Eu1D Eu -1.26839(5) 1.32463(5) -0.23300(6)
Eu1B Eu -1.23161(5) 1.17537(5) 0.23300(6)
Eu1G Eu -1.23161(5) 0.82463(5) -0.26700(6)
Eu1E Eu -0.73161(5) 1.32463(5) 0.73300(6)
Eu3B Eu -1.0000 1.31333(7) -0.2500
Eu3_2 Eu -1.5000 0.81333(7) -0.2500
Eu3B_2 Eu -1.0000 1.31333(7) 0.7500
Co1A Co -1.14288(13) 0.85267(13) 0.25601(15)
Co1D Co -1.14288(13) 1.14733(13) -0.24399(15)
Co1E Co -0.85712(13) 1.14733(13) 0.74399(15)
Co2_2 Co -0.5000 1.1662(2) 0.7500
O1A O -1.2415(10) 0.5546(8) 0.2819(11)
O2A O -0.5090(13) 0.8624(10) 0.8673(13)
O6A O -1.475(2) 1.207(2) -0.346(2)
O7A O -1.494(3) 1.076(2) -0.306(3)
O8A O -1.2233(7) 0.7799(7) 0.2265(8)
O9A O -1.3279(8) 0.7446(8) 0.1247(9)
O10A O -1.3791(8) 0.8423(8) -0.1745(9)
O10A_2 O -0.3791(8) 0.8423(8) 0.8255(9)
O11A O -1.2773(8) 0.8624(8) -0.1763(9)
O11F O -0.7773(8) 0.6376(8) 0.3237(9)
O11G O -1.2227(8) 0.6376(8) 0.1763(9)
O12A O -1.0801(8) 0.9688(8) 0.1125(8)
O13A O -1.0839(7) 0.9259(6) 0.2225(7)
O14A O -0.9414(7) 1.2207(7) 0.7135(8)
O14B O -0.5586(7) 0.7207(7) 0.7865(8)
O14C O -0.4414(7) 0.7207(7) 0.7135(8)
O14D O -0.9414(7) 0.7793(7) 0.2135(8)
O14E O -1.0586(7) 0.7793(7) 0.2865(8)
O15A O -1.0568(7) 1.2365(7) 0.6205(8)
O15B O -0.4432(7) 0.7365(7) 0.8795(8)
O15C O -0.5568(7) 0.7365(7) 0.6205(8)
O16A O -1.1220(8) 1.1289(8) 0.3311(9)
O16C O -0.6220(8) 0.6289(8) 0.3311(9)
O16B O -1.3780(8) 0.6289(8) 0.1689(9)
O17A O -1.0571(7) 1.0459(6) 0.3282(8)
O18A O -0.8087(9) 1.0149(9) 0.6065(10)
O19A O -0.7983(8) 1.0807(8) 0.7104(9)
O19D O -0.7983(8) 0.9193(8) 0.2104(9)
O19E O -1.2017(8) 0.9193(8) 0.2896(9)
O20A O -0.6463(7) 1.2476(8) 0.7246(9)
O20D O -0.6463(7) 0.7524(8) 0.2246(9)
O20E O -1.3537(7) 0.7524(8) 0.2754(9)
O21A O -0.6129(7) 1.1651(8) 0.6664(10)
O21A_2 O -1.6129(7) 1.1651(8) -0.3336(10)
O22A O -0.9215(7) 1.1120(8) 0.3407(8)
O23A O -0.8091(7) 1.1206(8) 0.3574(9)
O23B O -0.6909(7) 0.6206(8) 0.1426(9)
O23C O -1.3091(7) 0.6206(8) 0.3574(9)
O24A O -0.9563(8) 1.3101(10) 0.5116(11)
O25A O -0.8559(7) 1.3373(7) 0.6283(9)
O25D O -0.8559(7) 0.6627(7) 0.1283(9)
O25E O -1.1441(7) 0.6627(7) 0.3717(9)
N1A N -1.1968(8) 0.8545(8) 0.1296(9)
N2A N -0.9249(8) 1.1302(8) 0.6214(9)
N2D N -0.9249(8) 0.8698(8) 0.1214(9)
N2E N -1.0751(8) 0.8698(8) 0.3786(9)
N3A N -0.7791(8) 1.2461(8) 0.6054(9)
N3D N -0.7791(8) 0.7539(8) 0.1054(9)
N3E N -1.2209(8) 0.7539(8) 0.3946(9)
C1A C -1.2579(10) 0.8191(10) 0.0894(11)
C2A C -1.2991(10) 0.8186(10) 0.0026(12)
H1A H -1.3425 0.7952 -0.0242
C3A C -1.2731(10) 0.8550(10) -0.0441(11)
C4A C -1.2090(10) 0.8918(9) -0.0018(12)
H2A H -1.1902 0.9156 -0.0311
C5A C -1.1746(10) 0.8913(9) 0.0864(11)
C6A C -1.2735(11) 0.7777(10) 0.1510(13)
C7A C -1.3135(11) 0.8521(9) -0.1397(12)
C8A C -1.1082(9) 0.9319(9) 0.1422(11)
C9A C -0.9892(10) 1.1613(9) 0.5833(11)
C10A C -1.0381(10) 1.1498(9) 0.5010(11)
H3A H -1.0821 1.1723 0.4748
C11A C -1.0198(9) 1.1026(9) 0.4570(11)
C12A C -0.9543(10) 1.0691(9) 0.4981(10)
H4A H -0.9421 1.0369 0.4703
C13A C -0.9074(9) 1.0849(9) 0.5815(11)
C14A C -0.9977(10) 1.2093(9) 0.6417(12)
C15A C -1.0700(9) 1.0914(10) 0.3645(11)
C16A C -0.8325(10) 1.0559(10) 0.6357(12)
C17A C -0.7351(10) 1.2020(10) 0.5957(12)
C18A C -0.7588(10) 1.1621(9) 0.5258(11)
H5A H -0.7272 1.1321 0.5212
C19A C -0.8306(10) 1.1667(9) 0.4618(11)
C20A C -0.8767(10) 1.2100(10) 0.4721(11)
H6A H -0.9253 1.2128 0.4316
C21A C -0.8489(10) 1.2496(9) 0.5444(11)
C22A C -0.6582(10) 1.2035(10) 0.6673(12)
C23A C -0.8564(10) 1.1287(9) 0.3799(11)
C24A C -0.8917(11) 1.3026(10) 0.5607(13)
O26 O -0.1496(15) 0.5889(18) -0.178(3)
O27 O -0.1603(19) 0.5138(15) -0.365(3)
O28 O -0.098(5) 0.470(5) -0.187(6)
loop_
_geom_bond_atom_site_label_1
_geom_bond_atom_site_label_2
_geom_bond_site_symmetry_1
_geom_bond_site_symmetry_2
Eu1 O1 1_555 1_555
Eu2 O12 1_555 1_555
Eu3 O2 1_555 1_555
Co1 O8 1_555 1_555
Co2 O6 1_555 1_555
O3 Eu3 1_555 1_555
O7 Co2 1_555 1_555
O8 Eu1 1_555 1_555
O9 Eu1 1_555 1_555
O10 Eu3 1_555 1_555
O11 C7 1_555 1_555
O12 C8 1_555 1_555
O13 Eu2 1_555 1_555
O14 C14 1_555 1_555
O15 C14 1_555 1_555
O16 C15 1_555 1_555
O17 Eu2 1_555 1_555
O18 C16 1_555 1_555
O19 C16 1_555 1_555
O20 C22 1_555 1_555
O21 Co2 1_555 1_555
O22 Eu2 1_555 1_555
O23 C23 1_555 1_555
O24 C24 1_555 1_555
O25 C24 1_555 1_555
N1 Co1 1_555 1_555
N2 C9 1_555 1_555
N3 C17 1_555 1_555
C1 N1 1_555 1_555
C2 C1 1_555 1_555
H1 C2 1_555 1_555
C3 C2 1_555 1_555
C4 C3 1_555 1_555
H2 C4 1_555 1_555
C5 N1 1_555 1_555
C6 O8 1_555 1_555
C7 O10 1_555 1_555
C8 O13 1_555 1_555
C9 C10 1_555 1_555
C10 H3 1_555 1_555
C11 C10 1_555 1_555
C12 C11 1_555 1_555
H4 C12 1_555 1_555
C13 N2 1_555 1_555
C14 C9 1_555 1_555
C15 O17 1_555 1_555
C16 C13 1_555 1_555
C17 C18 1_555 1_555
C18 H5 1_555 1_555
C19 C18 1_555 1_555
C20 C19 1_555 1_555
H6 C20 1_555 1_555
C21 N3 1_555 1_555
C22 O21 1_555 1_555
C23 O22 1_555 1_555
C24 C21 1_555 1_555
Eu1A O1A 1_555 1_555
Eu1F O11 1_555 1_555
Eu1C O16 1_555 1_555
Eu1D O20 1_555 1_555
Eu1B O23 1_555 1_555
Eu1G O11A 1_555 1_555
Eu1E O20A 1_555 1_555
Eu3B O14 1_555 1_555
Eu3_2 O10A 1_555 1_555
Eu3B_2 O14A 1_555 1_555
Co1A O8A 1_555 1_555
Co1D O14 1_555 1_555
Co1E O14A 1_555 1_555
Co2_2 O21A 1_555 1_555
O2A Eu3 1_555 1_555
O6A Co2 1_555 1_555
O7A Co2 1_555 1_555
O8A Eu1A 1_555 1_555
O9A Eu1A 1_555 1_555
O10A C7A 1_555 1_555
O10A_2 Eu3 1_555 1_555
O11A C7A 1_555 1_555
O11F Eu1 1_555 1_555
O11G Eu1A 1_555 1_555
O12A Eu2 1_555 1_555
O13A Eu2 1_555 1_555
O14A C14A 1_555 1_555
O14B Eu3 1_555 1_555
O14C Eu3 1_555 1_555
O14D Co1 1_555 1_555
O14E Co1A 1_555 1_555
O15A Eu3B_2 1_555 1_555
O15B Eu3 1_555 1_555
O15C Eu3 1_555 1_555
O16A Eu1B 1_555 1_555
O16C Eu1 1_555 1_555
O16B Eu1A 1_555 1_555
O17A Eu2 1_555 1_555
O18A C16A 1_555 1_555
O19A Co1E 1_555 1_555
O19D Co1 1_555 1_555
O19E Co1A 1_555 1_555
O20A C22A 1_555 1_555
O20D Eu1 1_555 1_555
O20E Eu1A 1_555 1_555
O21A C22A 1_555 1_555
O21A_2 Co2 1_555 1_555
O22A Eu2 1_555 1_555
O23A Eu1C 1_555 1_555
O23B Eu1 1_555 1_555
O23C Eu1A 1_555 1_555
O24A C24A 1_555 1_555
O25A Eu1E 1_555 1_555
O25D Eu1 1_555 1_555
O25E Eu1A 1_555 1_555
N1A Co1A 1_555 1_555
N2A Co1E 1_555 1_555
N2D Co1 1_555 1_555
N2E Co1A 1_555 1_555
N3A Eu1E 1_555 1_555
N3D Eu1 1_555 1_555
N3E Eu1A 1_555 1_555
C1A N1A 1_555 1_555
C2A C1A 1_555 1_555
H1A C2A 1_555 1_555
C3A C2A 1_555 1_555
C4A C3A 1_555 1_555
H2A C4A 1_555 1_555
C5A N1A 1_555 1_555
C6A O8A 1_555 1_555
C7A C3A 1_555 1_555
C8A O12A 1_555 1_555
C9A N2A 1_555 1_555
C10A C9A 1_555 1_555
H3A C10A 1_555 1_555
C11A C10A 1_555 1_555
C12A C11A 1_555 1_555
H4A C12A 1_555 1_555
C13A N2A 1_555 1_555
C14A O15A 1_555 1_555
C15A O16A 1_555 1_555
C16A O19A 1_555 1_555
C17A N3A 1_555 1_555
C18A C17A 1_555 1_555
H5A C18A 1_555 1_555
C19A C18A 1_555 1_555
C20A C19A 1_555 1_555
H6A C20A 1_555 1_555
C21A N3A 1_555 1_555
C22A C17A 1_555 1_555
C23A O22A 1_555 1_555
C24A O25A 1_555 1_555
Co1 O13 1_555 1_555
O9 C6 1_555 1_555
O15 Eu3B 1_555 1_555
O19 Co1D 1_555 1_555
O25 Eu1D 1_555 1_555
N2 Co1D 1_555 1_555
N3 Eu1D 1_555 1_555
C1 C6 1_555 1_555
C3 C7 1_555 1_555
C4 C5 1_555 1_555
C5 C8 1_555 1_555
C11 C15 1_555 1_555
C12 C13 1_555 1_555
C17 C22 1_555 1_555
C19 C23 1_555 1_555
C20 C21 1_555 1_555
Co1A O13A 1_555 1_555
O9A C6A 1_555 1_555
O13A C8A 1_555 1_555
O17A C15A 1_555 1_555
O23A C23A 1_555 1_555
C1A C6A 1_555 1_555
C4A C5A 1_555 1_555
C5A C8A 1_555 1_555
C9A C14A 1_555 1_555
C11A C15A 1_555 1_555
C12A C13A 1_555 1_555
C13A C16A 1_555 1_555
C19A C23A 1_555 1_555
C20A C21A 1_555 1_555
C21A C24A 1_555 1_555

#END
