
#######################################################################
#
#                 Cambridge Crystallographic Data Centre
#                                CCDC 
#
#######################################################################
#
# If this CIF has been generated from an entry in the Cambridge 
# Structural Database, then it will include bibliographic, chemical, 
# crystal, experimental, refinement or atomic coordinate data resulting 
# from the CCDC's data processing and validation procedures.
#
#######################################################################

data_IWIPIO
_chemical_formula_moiety         'C17 H15 Cu8 N6'
_symmetry_cell_setting           orthorhombic
_symmetry_space_group_name_H-M   'P b c n'
_symmetry_Int_Tables_number      60
_space_group_name_Hall           '-P 2n 2ab'
loop_
_symmetry_equiv_pos_site_id
_symmetry_equiv_pos_as_xyz
1 x,y,z
2 1/2-x,1/2-y,1/2+z
3 -x,y,1/2-z
4 1/2+x,1/2-y,-z
5 -x,-y,-z
6 1/2+x,1/2+y,1/2-z
7 x,-y,1/2+z
8 1/2-x,1/2+y,z
_cell_length_a                   14.4440(18)
_cell_length_b                   12.5254(15)
_cell_length_c                   13.3074(16)
_cell_angle_alpha                90
_cell_angle_beta                 90
_cell_angle_gamma                90
_cell_volume                     2407.53
loop_
_atom_site_label
_atom_site_type_symbol
_atom_site_fract_x
_atom_site_fract_y
_atom_site_fract_z
Cu1 Cu 0.44843(6) 0.53144(8) 0.06814(7)
Cu2 Cu 0.38202(7) 0.14404(8) 0.02119(10)
N1 N 0.4293(5) 0.2881(6) 0.0194(6)
N2 N 0.3223(5) 0.5874(6) 0.0500(6)
C1 C 0.4574(6) 0.3735(7) 0.0135(7)
C2 C 0.2460(5) 0.6121(7) 0.0404(8)
C3 C 0.4734(6) 0.0344(7) 0.0030(11)
C4 C 0.4881(6) 0.5349(7) 0.2097(6)
Cu1D Cu 0.55157(6) 0.46856(8) -0.06814(7)
Cu1B Cu 0.55157(6) 0.53144(8) 0.43186(7)
Cu1G Cu 0.05157(6) 0.03144(8) 0.06814(7)
Cu2D Cu 0.61798(7) 0.85596(8) -0.02119(10)
Cu2G Cu 0.11798(7) 0.64404(8) 0.02119(10)
Cu2D_2 Cu 0.61798(7) -0.14404(8) -0.02119(10)
N1D N 0.5707(5) 0.7119(6) -0.0194(6)
N2G N 0.1777(5) 0.0874(6) 0.0500(6)
N2D N 0.6777(5) 0.4126(6) -0.0500(6)
C1D C 0.5426(6) 0.6265(7) -0.0135(7)
C2G C 0.2540(5) 0.1121(7) 0.0404(8)
C2C C 0.7460(5) 0.8879(7) -0.0404(8)
C3D C 0.5266(6) -0.0344(7) -0.0030(11)
C3D_2 C 0.5266(6) 0.9656(7) -0.0030(11)
C4B C 0.5119(6) 0.5349(7) 0.2903(6)
C4D C 0.5119(6) 0.4651(7) -0.2097(6)
N5 N 0.0806(16) 0.6791(16) -0.3051(15)
H1 H 0.0371 0.7225 -0.2834
H2 H 0.0666 0.6272 -0.3470
C5 C 0.1819(16) 0.6941(16) -0.2698(18)
H3 H 0.2030 0.6280 -0.2360
H4 H 0.2219 0.7059 -0.3291
C6 C 0.1918(14) 0.7822(15) -0.2021(15)
H5 H 0.1524 0.8405 -0.2284
H6 H 0.1643 0.7597 -0.1373
C7 C 0.2797(16) 0.8280(19) -0.1796(13)
C8 C 0.3545(15) 0.7849(17) -0.1606(16)
H7 H 0.3480 0.7401 -0.1007
H8 H 0.4014 0.8399 -0.1483
H9 H 0.3735 0.7407 -0.2177
C9 C 0.2933(17) 0.9044(16) -0.2819(14)
H10 H 0.3077 0.8591 -0.3399
H11 H 0.3440 0.9549 -0.2708
H12 H 0.2359 0.9439 -0.2949
C10 C 0.2560(16) 0.9294(17) -0.1092(15)
H13 H 0.2218 0.9054 -0.0498
H14 H 0.2181 0.9804 -0.1470
H15 H 0.3137 0.9640 -0.0881
loop_
_geom_bond_atom_site_label_1
_geom_bond_atom_site_label_2
_geom_bond_site_symmetry_1
_geom_bond_site_symmetry_2
Cu1 N2 1_555 1_555
Cu2 N1 1_555 1_555
N1 C1 1_555 1_555
N2 C2 1_555 1_555
C1 Cu1 1_555 1_555
C2 Cu2G 1_555 1_555
C3 Cu2 1_555 1_555
C4 Cu1 1_555 1_555
N5 H1 1_555 1_555
H2 N5 1_555 1_555
C5 N5 1_555 1_555
H3 C5 1_555 1_555
H4 C5 1_555 1_555
C6 C5 1_555 1_555
H5 C6 1_555 1_555
H6 C6 1_555 1_555
C7 C6 1_555 1_555
C8 C7 1_555 1_555
H7 C8 1_555 1_555
H8 C8 1_555 1_555
H9 C8 1_555 1_555
C9 C7 1_555 1_555
H10 C9 1_555 1_555
H11 C9 1_555 1_555
H12 C9 1_555 1_555
C10 C7 1_555 1_555
H13 C10 1_555 1_555
H14 C10 1_555 1_555
H15 C10 1_555 1_555
Cu1D C1 1_555 1_555
Cu1B C4B 1_555 1_555
Cu1G N2G 1_555 1_555
Cu2D N1D 1_555 1_555
Cu2D_2 C3D 1_555 1_555
N1D C1D 1_555 1_555
N2G C2G 1_555 1_555
N2D Cu1D 1_555 1_555
C1D Cu1 1_555 1_555
C2G Cu2 1_555 1_555
C2C Cu2D 1_555 1_555
C3D C3 1_555 1_555
C3D_2 Cu2D 1_555 1_555
C4B C4 1_555 1_555
C4D Cu1D 1_555 1_555
Cu1D C1D 1_555 1_555

#END
