
#######################################################################
#
#                 Cambridge Crystallographic Data Centre
#                                CCDC 
#
#######################################################################
#
# If this CIF has been generated from an entry in the Cambridge 
# Structural Database, then it will include bibliographic, chemical, 
# crystal, experimental, refinement or atomic coordinate data resulting 
# from the CCDC's data processing and validation procedures.
#
#######################################################################

data_NIZNOB
_chemical_formula_moiety         '(C72 H102 Cu20 N60 O47 S4)n'
_symmetry_cell_setting           triclinic
_symmetry_space_group_name_H-M   'P -1'
_symmetry_Int_Tables_number      2
_space_group_name_Hall           '-P 1'
loop_
_symmetry_equiv_pos_site_id
_symmetry_equiv_pos_as_xyz
1 x,y,z
2 -x,-y,-z
_cell_length_a                   16.1491(14)
_cell_length_b                   20.6896(16)
_cell_length_c                   20.7592(16)
_cell_angle_alpha                113.4080(10)
_cell_angle_beta                 98.040(2)
_cell_angle_gamma                90.0770(10)
_cell_volume                     6290.25
loop_
_atom_site_label
_atom_site_type_symbol
_atom_site_fract_x
_atom_site_fract_y
_atom_site_fract_z
Cu1 Cu -0.32968(5) 0.05922(4) 0.06274(4)
Cu2 Cu -0.38085(5) 0.18966(3) 0.21001(4)
Cu3 Cu -0.17044(5) 0.15842(4) 0.18945(4)
Cu4 Cu 0.00846(5) 0.07654(4) 0.20105(4)
Cu5 Cu -0.04292(5) 0.20118(4) 0.34961(4)
Cu6 Cu -0.00131(5) -0.09259(4) 0.25147(4)
Cu7 Cu 0.06637(5) -0.21639(4) 0.11248(4)
Cu8 Cu 0.17030(5) -0.17289(4) 0.28669(4)
Cu9 Cu 0.38251(5) -0.19704(3) 0.29077(4)
Cu10 Cu 0.31541(5) -0.06955(4) 0.42917(4)
Cu11 Cu 0.14107(5) 0.28086(4) 0.48430(4)
Cu12 Cu 0.17381(5) 0.45471(4) 0.52281(4)
Cu13 Cu 0.31902(5) 0.35460(4) 0.55800(4)
Cu14 Cu 0.44123(5) 0.28000(4) 0.65423(4)
Cu15 Cu 0.50406(5) 0.43304(4) 0.64533(4)
Cu16 Cu 0.49705(5) 0.56738(4) 0.84015(4)
Cu17 Cu 0.55985(5) 0.72086(3) 0.83290(4)
Cu18 Cu 0.67590(5) 0.65180(4) 0.94278(4)
Cu19 Cu 0.82153(5) 0.54638(4) 0.98048(4)
Cu20 Cu 0.88946(5) 0.69132(4) 0.96245(4)
S1 S 0.09259(12) -0.29749(8) 0.35449(9)
S2 S 0.55507(11) 0.79820(8) 0.69614(8)
S3 S 0.93487(13) 0.27386(8) 1.12503(10)
S4 S 0.42738(11) 0.20552(7) 0.79202(8)
O1 O 0.1359(3) -0.5113(2) 0.1190(2)
O2 O 0.1034(3) -0.6120(2) 0.1308(2)
O3 O 0.2044(3) -0.5769(2) 0.3905(2)
O4 O 0.1579(3) -0.4824(2) 0.4724(2)
O5 O 0.1373(4) -0.2629(3) 0.4258(3)
O6 O 0.1235(3) -0.2744(2) 0.3036(2)
O7 O 0.0031(3) -0.2913(3) 0.3544(3)
O8 O 0.6431(3) 0.9939(2) 0.9616(2)
O9 O 0.6833(3) 1.0917(2) 0.9520(2)
O10 O 0.6015(3) 1.1093(2) 0.7204(2)
O11 O 0.6376(3) 1.0154(2) 0.6291(2)
O12 O 0.4939(4) 0.7896(2) 0.6352(3)
O13 O 0.6346(3) 0.7673(2) 0.6795(3)
O14 O 0.5214(3) 0.7766(2) 0.7464(2)
O15 O 0.8431(3) 0.4672(2) 1.0138(2)
O16 O 0.7923(3) 0.5525(2) 1.1004(2)
O17 O 0.8442(4) 0.5754(2) 1.3372(2)
O18 O 0.8710(3) 0.4853(2) 1.3686(2)
O19 O 0.9979(3) 0.2689(3) 1.1815(3)
O20 O 0.8591(4) 0.2332(3) 1.1198(4)
O21 O 0.9692(4) 0.2567(3) 1.0609(3)
O22 O 0.3377(3) 0.0020(2) 0.5292(2)
O23 O 0.2905(3) -0.0899(2) 0.5464(2)
O24 O 0.3956(3) -0.1022(2) 0.7778(2)
O25 O 0.3625(3) -0.0079(2) 0.8697(2)
O26 O 0.4689(3) 0.2264(2) 0.7445(2)
O27 O 0.3461(3) 0.2343(2) 0.8001(3)
O28 O 0.4787(3) 0.2207(2) 0.8597(2)
O29 O -0.2813(3) 0.15142(19) 0.13999(19)
H1 H -0.2795 0.1840 0.1164
O30 O -0.0531(2) 0.16469(19) 0.2294(2)
H2 H -0.0229 0.1998 0.2193
O31 O 0.1993(2) 0.37113(19) 0.54523(19)
H3 H 0.1823 0.3826 0.5919
O32 O 0.4369(3) 0.34465(19) 0.5845(2)
H4 H 0.4624 0.3191 0.5419
O33 O 0.0625(2) -0.17803(19) 0.2297(2)
H5 H 0.0269 -0.2132 0.2356
O34 O 0.2725(2) -0.16376(19) 0.34987(19)
H6 H 0.2658 -0.1967 0.3724
O35 O 0.5633(3) 0.65625(19) 0.9010(2)
H7 H 0.5324 0.6815 0.9402
O36 O 0.7832(3) 0.64308(19) 0.9903(2)
H8 H 0.7826 0.6703 1.0411
O37 O 0.0073(4) 0.2188(3) 0.4899(3)
H9 H -0.0092 0.2414 0.5294
H10 H 0.0175 0.1772 0.4859
O38 O 0.3007(3) 0.3237(2) 0.4369(2)
H11 H 0.3277 0.3538 0.4281
H12 H 0.2489 0.3231 0.4218
O39 O 0.6445(4) 0.7326(3) 1.0462(3)
H13 H 0.6213 0.7116 1.0675
H14 H 0.6111 0.7608 1.0375
N1 N -0.0831(3) 0.0300(2) 0.1172(3)
N2 N -0.1533(4) 0.0635(3) 0.1181(3)
N3 N -0.2127(3) 0.0238(2) 0.0658(3)
N4 N -0.4412(3) 0.1029(2) 0.0591(2)
N5 N -0.4573(3) 0.1582(2) 0.1153(2)
N6 N -0.5267(3) 0.1866(2) 0.0992(3)
N7 N -0.1618(3) 0.2254(2) 0.3485(2)
N8 N -0.2100(3) 0.2088(2) 0.2860(2)
N9 N -0.2904(3) 0.2177(2) 0.2949(3)
N10 N 0.0991(3) 0.1270(2) 0.2808(3)
N11 N 0.0764(3) 0.1737(3) 0.3412(3)
N12 N 0.1431(3) 0.1962(2) 0.3925(3)
N13 N -0.0093(3) 0.3043(2) 0.3969(3)
N14 N 0.0601(3) 0.3307(2) 0.4435(3)
N15 N 0.0667(3) 0.4004(2) 0.4644(3)
N16 N 0.2899(3) 0.4962(3) 0.5652(3)
N17 N 0.3446(3) 0.4553(3) 0.5822(3)
N18 N 0.4194(3) 0.4886(3) 0.6101(3)
N19 N 0.2054(3) 0.2411(3) 0.5462(3)
N20 N 0.2842(3) 0.2658(3) 0.5674(3)
N21 N 0.3197(3) 0.2447(3) 0.6163(3)
N22 N 0.4788(3) 0.1862(2) 0.5905(2)
N23 N 0.5509(3) 0.1637(2) 0.6115(2)
N24 N 0.5713(3) 0.1075(2) 0.5579(2)
N25 N 0.5891(3) 0.3770(2) 0.6758(3)
N26 N 0.5617(3) 0.3193(2) 0.6822(3)
N27 N 0.6255(3) 0.2945(2) 0.7120(3)
N28 N 0.4039(3) 0.3690(2) 0.7269(3)
N29 N 0.4409(3) 0.4314(2) 0.7376(2)
N30 N 0.4209(3) 0.4805(2) 0.7960(3)
N31 N 0.5785(3) 0.5199(2) 0.6895(3)
N32 N 0.5577(3) 0.5700(2) 0.7485(3)
N33 N 0.5918(3) 0.6323(2) 0.7569(3)
N34 N 0.5804(3) 0.5143(2) 0.8786(3)
N35 N 0.6524(3) 0.5492(3) 0.9153(3)
N36 N 0.7043(3) 0.5082(3) 0.9344(3)
N37 N 0.6825(3) 0.7485(2) 0.8647(3)
N38 N 0.7259(3) 0.7191(2) 0.9048(2)
N39 N 0.8080(3) 0.7308(2) 0.9079(3)
N40 N 0.9364(3) 0.5923(2) 1.0287(3)
N41 N 0.9603(3) 0.6535(2) 1.0259(3)
N42 N 1.0306(3) 0.6806(2) 1.0702(3)
N43 N 0.4113(3) 0.6248(2) 0.8139(3)
N44 N 0.4375(3) 0.6842(2) 0.8090(3)
N45 N 0.3721(3) 0.7123(2) 0.7850(3)
N46 N 0.1999(4) -0.0377(3) 0.4104(3)
N47 N 0.1484(3) -0.0778(3) 0.3528(3)
N48 N 0.0818(4) -0.0432(3) 0.3420(3)
N49 N -0.0827(3) -0.1457(3) 0.1634(3)
N50 N -0.0544(3) -0.1933(2) 0.1072(3)
N51 N -0.1146(3) -0.2169(2) 0.0512(3)
N52 N 0.1850(3) -0.2368(2) 0.1307(3)
N53 N 0.2236(3) -0.2192(2) 0.1975(2)
N54 N 0.3055(3) -0.2296(2) 0.1975(3)
N55 N -0.0845(3) 0.1010(2) 0.3278(3)
N56 N -0.0487(3) 0.0480(2) 0.2823(3)
N57 N -0.0744(3) -0.0128(3) 0.2843(3)
N58 N 0.0782(3) -0.0054(2) 0.1595(3)
N59 N 0.0646(3) -0.0630(2) 0.1714(3)
N60 N 0.0975(3) -0.1171(2) 0.1235(3)
C1 C -0.1788(4) -0.0368(3) 0.0305(3)
H15 H -0.2057 -0.0749 -0.0088
C2 C -0.0975(5) -0.0329(3) 0.0624(3)
H16 H -0.0594 -0.0677 0.0485
C3 C -0.5561(4) 0.1462(3) 0.0308(3)
H17 H -0.6046 0.1528 0.0049
C4 C -0.5030(4) 0.0936(3) 0.0055(3)
H18 H -0.5087 0.0583 -0.0401
C5 C -0.2914(4) 0.2420(3) 0.3645(3)
H19 H -0.3388 0.2533 0.3865
C6 C -0.2112(4) 0.2476(3) 0.3984(3)
H20 H -0.1942 0.2637 0.4472
C7 C 0.2080(4) 0.1630(3) 0.3650(4)
H21 H 0.2624 0.1682 0.3889
C8 C 0.1811(4) 0.1194(3) 0.2949(4)
H22 H 0.2139 0.0901 0.2631
C9 C 0.0014(4) 0.4181(3) 0.4300(3)
H23 H -0.0098 0.4634 0.4337
C10 C -0.0462(4) 0.3579(3) 0.3884(3)
H24 H -0.0963 0.3550 0.3589
C11 C 0.4120(5) 0.5537(4) 0.6124(4)
H25 H 0.4540 0.5898 0.6306
C12 C 0.3328(5) 0.5580(3) 0.5836(4)
H26 H 0.3116 0.5973 0.5777
C13 C 0.1896(4) 0.2027(3) 0.5828(4)
H27 H 0.1390 0.1791 0.5793
C14 C 0.2632(5) 0.2053(3) 0.6266(4)
H28 H 0.2715 0.1832 0.6580
C15 C 0.5102(4) 0.0945(3) 0.5019(3)
H29 H 0.5077 0.0583 0.4571
C16 C 0.4534(4) 0.1438(3) 0.5232(3)
H30 H 0.4047 0.1473 0.4953
C17 C 0.6932(4) 0.3373(3) 0.7245(3)
H31 H 0.7468 0.3325 0.7446
C18 C 0.6696(4) 0.3892(3) 0.7025(3)
H32 H 0.7041 0.4267 0.7056
C19 C 0.3689(5) 0.4504(3) 0.8228(4)
H33 H 0.3446 0.4730 0.8634
C20 C 0.3587(5) 0.3803(3) 0.7790(4)
H34 H 0.3260 0.3465 0.7845
C21 C 0.6377(4) 0.6226(3) 0.7045(4)
H35 H 0.6694 0.6570 0.6988
C22 C 0.6285(4) 0.5516(3) 0.6610(3)
H36 H 0.6520 0.5293 0.6199
C23 C 0.6641(5) 0.4445(3) 0.9084(4)
H37 H 0.6855 0.4046 0.9130
C24 C 0.5873(5) 0.4471(3) 0.8742(4)
H38 H 0.5468 0.4099 0.8519
C25 C 0.8180(4) 0.7686(3) 0.8693(3)
H39 H 0.8687 0.7844 0.8625
C26 C 0.7399(4) 0.7796(3) 0.8419(4)
H40 H 0.7280 0.8039 0.8128
C27 C 1.0539(4) 0.6363(3) 1.1008(3)
H41 H 1.1017 0.6422 1.1339
C28 C 0.9950(4) 0.5806(3) 1.0750(3)
H42 H 0.9955 0.5419 1.0872
C29 C 0.3033(4) 0.6702(3) 0.7752(4)
H43 H 0.2486 0.6775 0.7599
C30 C 0.3290(4) 0.6144(3) 0.7922(4)
H44 H 0.2950 0.5766 0.7890
C31 C 0.0916(5) 0.0204(3) 0.3943(4)
H45 H 0.0545 0.0560 0.4008
C32 C 0.1658(5) 0.0249(4) 0.4371(4)
H46 H 0.1886 0.0641 0.4773
C33 C -0.1836(4) -0.1831(3) 0.0720(3)
H47 H -0.2355 -0.1888 0.0440
C34 C -0.1628(4) -0.1386(3) 0.1422(3)
H48 H -0.1985 -0.1086 0.1703
C35 C 0.3200(4) -0.2551(3) 0.1305(3)
H49 H 0.3714 -0.2676 0.1153
C36 C 0.2449(4) -0.2596(3) 0.0880(3)
H50 H 0.2366 -0.2755 0.0388
C37 C -0.1284(5) 0.0033(3) 0.3315(4)
H51 H -0.1568 -0.0289 0.3430
C38 C -0.1345(5) 0.0740(4) 0.3593(4)
H52 H -0.1669 0.0993 0.3936
C39 C 0.1325(5) -0.0933(3) 0.0809(4)
H53 H 0.1591 -0.1197 0.0426
C40 C 0.1211(5) -0.0235(3) 0.1048(4)
H54 H 0.1400 0.0070 0.0863
C41 C 0.1187(4) -0.5031(3) 0.2321(3)
C42 C 0.1387(4) -0.5311(3) 0.2824(3)
H55 H 0.1472 -0.5790 0.2679
C43 C 0.1463(4) -0.4883(3) 0.3541(3)
C44 C 0.1302(4) -0.4175(3) 0.3760(3)
H56 H 0.1333 -0.3892 0.4241
C45 C 0.1098(4) -0.3890(3) 0.3264(3)
C46 C 0.1047(4) -0.4306(3) 0.2551(3)
H57 H 0.0919 -0.4109 0.2220
C47 C 0.1186(4) -0.5455(3) 0.1535(3)
C48 C 0.1713(4) -0.5188(3) 0.4085(3)
C49 C 0.6292(4) 0.9932(3) 0.8461(3)
C50 C 0.6312(4) 1.0321(3) 0.8052(3)
H58 H 0.6464 1.0802 0.8272
C51 C 0.6110(4) 1.0005(3) 0.7325(3)
C52 C 0.5878(4) 0.9294(3) 0.6995(3)
H59 H 0.5758 0.9076 0.6503
C53 C 0.5825(4) 0.8904(3) 0.7404(3)
C54 C 0.6034(4) 0.9220(3) 0.8132(3)
H60 H 0.6002 0.8957 0.8403
C55 C 0.6542(4) 1.0299(3) 0.9252(3)
C56 C 0.6167(4) 1.0449(3) 0.6898(3)
C57 C 0.8750(4) 0.4698(3) 1.2482(3)
C58 C 0.8523(4) 0.4981(3) 1.1989(3)
H61 H 0.8340 0.5437 1.2138
C59 C 0.8561(4) 0.4599(3) 1.1272(3)
C60 C 0.8831(4) 0.3925(3) 1.1045(3)
H62 H 0.8858 0.3667 1.0567
C61 C 0.9062(4) 0.3634(3) 1.1539(3)
C62 C 0.9027(4) 0.4016(3) 1.2252(3)
H63 H 0.9188 0.3818 1.2578
C63 C 0.8638(4) 0.5128(3) 1.3243(3)
C64 C 0.8275(4) 0.4959(3) 1.0767(4)
C65 C 0.3812(4) 0.0042(3) 0.7635(3)
C66 C 0.3581(4) -0.0295(3) 0.6901(3)
H64 H 0.3432 -0.0776 0.6696
C67 C 0.3569(4) 0.0078(3) 0.6469(3)
C68 C 0.3832(4) 0.0794(3) 0.6781(3)
H65 H 0.3853 0.1049 0.6501
C69 C 0.4062(4) 0.1119(3) 0.7512(3)
C70 C 0.4028(4) 0.0761(3) 0.7948(3)
H66 H 0.4147 0.0997 0.8439
C71 C 0.3254(4) -0.0298(3) 0.5685(3)
C72 C 0.3807(4) -0.0386(3) 0.8083(3)
Cu1_2 Cu 0.67032(5) 1.05922(4) 1.06274(4)
Cu1A Cu 0.32968(5) -0.05922(4) 0.93726(4)
Cu2A Cu 0.38085(5) -0.18966(3) 0.78999(4)
Cu2A_2 Cu 0.38085(5) 0.81034(3) 0.78999(4)
Cu3_2 Cu 0.82956(5) 0.15842(4) 1.18945(4)
Cu7_2 Cu 1.06637(5) 0.78361(4) 1.11248(4)
Cu9A Cu 0.61749(5) 0.19704(3) 0.70923(4)
Cu9A_2 Cu 0.61749(5) 1.19704(3) 0.70923(4)
Cu10A Cu 0.68459(5) 0.06955(4) 0.57083(4)
Cu10A_2 Cu 0.68459(5) 1.06955(4) 0.57083(4)
Cu12_2 Cu 0.17381(5) -0.54529(4) 0.52281(4)
Cu12A Cu 0.82619(5) 0.54529(4) 1.47719(4)
Cu17A Cu -0.55985(5) 0.27914(3) 0.16710(4)
Cu19A Cu 0.17847(5) -0.54638(4) 0.01952(4)
Cu20_2 Cu -0.11054(5) -0.30868(4) -0.03755(4)
Cu20A Cu 0.11054(5) -0.69132(4) 0.03755(4)
Cu20A_2 Cu 1.11054(5) 0.30868(4) 1.03755(4)
O1A O 0.8641(3) 0.5113(2) 0.8810(2)
O2A O 0.8966(3) 0.6120(2) 0.8692(2)
O3_2 O 0.2044(3) 0.4231(2) 0.3905(2)
O4_2 O 0.1579(3) 0.5176(2) 0.4724(2)
O8_2 O -0.3569(3) -0.0061(2) -0.0384(2)
O9_2 O -0.3167(3) 0.0917(2) -0.0480(2)
O10A O 0.3985(3) -0.1093(2) 0.2796(2)
O11A O 0.3624(3) -0.0154(2) 0.3709(2)
O14A O -0.5214(3) 0.2234(2) 0.2536(2)
O18A O 0.1290(3) 0.5147(2) 0.6314(2)
O20_2 O -0.1409(4) 0.2332(3) 0.1198(4)
O21A O 1.0308(4) 0.7433(3) 0.9391(3)
O24A O -0.3956(3) 0.1022(2) 0.2222(2)
O25A O -0.3625(3) 0.0079(2) 0.1303(2)
O26A O 0.5311(3) -0.2264(2) 0.2555(2)
N6A N 0.5267(3) 0.8134(2) 0.9008(3)
N23A N 0.4491(3) -0.1637(2) 0.3885(2)
N24A N 0.4287(3) -0.1075(2) 0.4421(2)
N27A N 0.3745(3) -0.2945(2) 0.2880(3)
N42_2 N 0.0306(3) -0.3194(2) 0.0702(3)
N45A N -0.3721(3) 0.2877(2) 0.2150(3)
N51_2 N 0.8854(3) 0.7831(2) 1.0512(3)
O40 O 0.4475(4) 0.7129(3) 0.9943(3)
O41 O 0.3102(4) 0.7694(3) 0.4567(3)
O42 O 0.5574(4) 0.3053(4) 0.5013(3)
O43 O 0.6963(3) 0.2275(2) 0.0484(2)
O44 O 0.7971(4) 0.6956(3) 0.1462(3)
O45 O 0.9271(5) 0.7673(4) 0.2632(4)
O46 O 0.9467(11) 0.1126(8) 0.5314(8)
O47 O 0.9307(16) 0.8651(13) 0.3475(13)
loop_
_geom_bond_atom_site_label_1
_geom_bond_atom_site_label_2
_geom_bond_site_symmetry_1
_geom_bond_site_symmetry_2
Cu1 O29 1_555 1_555
Cu2 O29 1_555 1_555
Cu3 O29 1_555 1_555
Cu4 O30 1_555 1_555
Cu5 O30 1_555 1_555
Cu6 O33 1_555 1_555
Cu7 O33 1_555 1_555
Cu8 O6 1_555 1_555
Cu9 O34 1_555 1_555
Cu10 O22 1_555 1_555
Cu11 O31 1_555 1_555
Cu12 O31 1_555 1_555
Cu13 O31 1_555 1_555
Cu14 O26 1_555 1_555
Cu15 O32 1_555 1_555
Cu16 O35 1_555 1_555
Cu17 O14 1_555 1_555
Cu18 O35 1_555 1_555
Cu19 O15 1_555 1_555
Cu20 O36 1_555 1_555
S1 O5 1_555 1_555
S2 O12 1_555 1_555
S3 O19 1_555 1_555
S4 O26 1_555 1_555
O1 C47 1_555 1_555
O2 C47 1_555 1_555
O3 C48 1_555 1_555
O4 C48 1_555 1_555
O6 S1 1_555 1_555
O7 S1 1_555 1_555
O8 C55 1_555 1_555
O9 C55 1_555 1_555
O10 C56 1_555 1_555
O11 C56 1_555 1_555
O13 S2 1_555 1_555
O14 S2 1_555 1_555
O15 C64 1_555 1_555
O16 Cu19 1_555 1_555
O17 C63 1_555 1_555
O18 C63 1_555 1_555
O20 S3 1_555 1_555
O21 S3 1_555 1_555
O22 C71 1_555 1_555
O23 Cu10 1_555 1_555
O24 C72 1_555 1_555
O25 C72 1_555 1_555
O26 Cu9A 1_555 1_555
O27 S4 1_555 1_555
O28 S4 1_555 1_555
O29 H1 1_555 1_555
O30 Cu3 1_555 1_555
H2 O30 1_555 1_555
O31 H3 1_555 1_555
O32 Cu13 1_555 1_555
H4 O32 1_555 1_555
O33 Cu8 1_555 1_555
H5 O33 1_555 1_555
O34 Cu8 1_555 1_555
H6 O34 1_555 1_555
O35 Cu17 1_555 1_555
H7 O35 1_555 1_555
O36 Cu18 1_555 1_555
H8 O36 1_555 1_555
O37 Cu5 1_555 1_555
H9 O37 1_555 1_555
H10 O37 1_555 1_555
O38 Cu13 1_555 1_555
H11 O38 1_555 1_555
H12 O38 1_555 1_555
O39 Cu18 1_555 1_555
H13 O39 1_555 1_555
H14 O39 1_555 1_555
N1 Cu4 1_555 1_555
N2 Cu3 1_555 1_555
N3 Cu1 1_555 1_555
N4 Cu1 1_555 1_555
N5 Cu2 1_555 1_555
N6 N5 1_555 1_555
N7 Cu5 1_555 1_555
N8 Cu3 1_555 1_555
N9 Cu2 1_555 1_555
N10 Cu4 1_555 1_555
N11 Cu5 1_555 1_555
N12 Cu11 1_555 1_555
N13 Cu5 1_555 1_555
N14 Cu11 1_555 1_555
N15 Cu12 1_555 1_555
N16 Cu12 1_555 1_555
N17 Cu13 1_555 1_555
N18 Cu15 1_555 1_555
N19 Cu11 1_555 1_555
N20 Cu13 1_555 1_555
N21 Cu14 1_555 1_555
N22 Cu14 1_555 1_555
N23 N22 1_555 1_555
N24 N23 1_555 1_555
N25 Cu15 1_555 1_555
N26 Cu14 1_555 1_555
N27 N26 1_555 1_555
N28 Cu14 1_555 1_555
N29 Cu15 1_555 1_555
N30 Cu16 1_555 1_555
N31 Cu15 1_555 1_555
N32 Cu16 1_555 1_555
N33 Cu17 1_555 1_555
N34 Cu16 1_555 1_555
N35 Cu18 1_555 1_555
N36 Cu19 1_555 1_555
N37 Cu17 1_555 1_555
N38 Cu18 1_555 1_555
N39 Cu20 1_555 1_555
N40 Cu19 1_555 1_555
N41 Cu20 1_555 1_555
N42 N41 1_555 1_555
N43 Cu16 1_555 1_555
N44 Cu17 1_555 1_555
N45 N44 1_555 1_555
N46 Cu10 1_555 1_555
N47 Cu8 1_555 1_555
N48 Cu6 1_555 1_555
N49 Cu6 1_555 1_555
N50 Cu7 1_555 1_555
N51 N50 1_555 1_555
N52 Cu7 1_555 1_555
N53 Cu8 1_555 1_555
N54 Cu9 1_555 1_555
N55 Cu5 1_555 1_555
N56 Cu4 1_555 1_555
N57 Cu6 1_555 1_555
N58 Cu4 1_555 1_555
N59 Cu6 1_555 1_555
N60 Cu7 1_555 1_555
C1 N3 1_555 1_555
H15 C1 1_555 1_555
C2 N1 1_555 1_555
H16 C2 1_555 1_555
C3 N6 1_555 1_555
H17 C3 1_555 1_555
C4 N4 1_555 1_555
H18 C4 1_555 1_555
C5 N9 1_555 1_555
H19 C5 1_555 1_555
C6 N7 1_555 1_555
H20 C6 1_555 1_555
C7 N12 1_555 1_555
H21 C7 1_555 1_555
C8 N10 1_555 1_555
H22 C8 1_555 1_555
C9 N15 1_555 1_555
H23 C9 1_555 1_555
C10 N13 1_555 1_555
H24 C10 1_555 1_555
C11 N18 1_555 1_555
H25 C11 1_555 1_555
C12 N16 1_555 1_555
H26 C12 1_555 1_555
C13 N19 1_555 1_555
H27 C13 1_555 1_555
C14 N21 1_555 1_555
H28 C14 1_555 1_555
C15 N24 1_555 1_555
H29 C15 1_555 1_555
C16 N22 1_555 1_555
H30 C16 1_555 1_555
C17 N27 1_555 1_555
H31 C17 1_555 1_555
C18 N25 1_555 1_555
H32 C18 1_555 1_555
C19 N30 1_555 1_555
H33 C19 1_555 1_555
C20 N28 1_555 1_555
H34 C20 1_555 1_555
C21 N33 1_555 1_555
H35 C21 1_555 1_555
C22 N31 1_555 1_555
H36 C22 1_555 1_555
C23 N36 1_555 1_555
H37 C23 1_555 1_555
C24 N34 1_555 1_555
H38 C24 1_555 1_555
C25 N39 1_555 1_555
H39 C25 1_555 1_555
C26 N37 1_555 1_555
H40 C26 1_555 1_555
C27 N42 1_555 1_555
H41 C27 1_555 1_555
C28 N40 1_555 1_555
H42 C28 1_555 1_555
C29 N45 1_555 1_555
H43 C29 1_555 1_555
C30 N43 1_555 1_555
H44 C30 1_555 1_555
C31 N48 1_555 1_555
H45 C31 1_555 1_555
C32 N46 1_555 1_555
H46 C32 1_555 1_555
C33 N51 1_555 1_555
H47 C33 1_555 1_555
C34 N49 1_555 1_555
H48 C34 1_555 1_555
C35 N54 1_555 1_555
H49 C35 1_555 1_555
C36 N52 1_555 1_555
H50 C36 1_555 1_555
C37 N57 1_555 1_555
H51 C37 1_555 1_555
C38 N55 1_555 1_555
H52 C38 1_555 1_555
C39 N60 1_555 1_555
H53 C39 1_555 1_555
C40 N58 1_555 1_555
H54 C40 1_555 1_555
C41 C42 1_555 1_555
C42 H55 1_555 1_555
C43 C42 1_555 1_555
C44 C43 1_555 1_555
H56 C44 1_555 1_555
C45 S1 1_555 1_555
C46 C41 1_555 1_555
H57 C46 1_555 1_555
C47 C41 1_555 1_555
C48 C43 1_555 1_555
C49 C50 1_555 1_555
C50 H58 1_555 1_555
C51 C50 1_555 1_555
C52 C51 1_555 1_555
H59 C52 1_555 1_555
C53 S2 1_555 1_555
C54 C49 1_555 1_555
H60 C54 1_555 1_555
C55 C49 1_555 1_555
C56 C51 1_555 1_555
C57 C58 1_555 1_555
C58 H61 1_555 1_555
C59 C58 1_555 1_555
C60 C59 1_555 1_555
H62 C60 1_555 1_555
C61 S3 1_555 1_555
C62 C57 1_555 1_555
H63 C62 1_555 1_555
C63 C57 1_555 1_555
C64 O16 1_555 1_555
C65 C66 1_555 1_555
C66 H64 1_555 1_555
C67 C66 1_555 1_555
C68 C67 1_555 1_555
H65 C68 1_555 1_555
C69 S4 1_555 1_555
C70 C65 1_555 1_555
H66 C70 1_555 1_555
C71 O23 1_555 1_555
C72 C65 1_555 1_555
Cu1_2 O8 1_555 1_555
Cu1A O25 1_555 1_555
Cu2A O24 1_555 1_555
Cu2A_2 O14 1_555 1_555
Cu3_2 O20 1_555 1_555
Cu7_2 N42 1_555 1_555
Cu9A N23 1_555 1_555
Cu9A_2 O10 1_555 1_555
Cu10A N24 1_555 1_555
Cu10A_2 O11 1_555 1_555
Cu12_2 O3 1_555 1_555
Cu12A O18 1_555 1_555
Cu17A N6 1_555 1_555
Cu19A O1 1_555 1_555
Cu20_2 N51 1_555 1_555
Cu20A O2 1_555 1_555
Cu20A_2 O21 1_555 1_555
O1A Cu19 1_555 1_555
O2A Cu20 1_555 1_555
O3_2 Cu12 1_555 1_555
O4_2 Cu12 1_555 1_555
O8_2 Cu1 1_555 1_555
O9_2 Cu1 1_555 1_555
O10A Cu9 1_555 1_555
O11A Cu10 1_555 1_555
O14A Cu2 1_555 1_555
O18A Cu12 1_555 1_555
O20_2 Cu3 1_555 1_555
O21A Cu20 1_555 1_555
O24A Cu2 1_555 1_555
O25A Cu1 1_555 1_555
O26A Cu9 1_555 1_555
N6A Cu17 1_555 1_555
N23A Cu9 1_555 1_555
N24A Cu10 1_555 1_555
N27A Cu9 1_555 1_555
N42_2 Cu7 1_555 1_555
N45A Cu2 1_555 1_555
N51_2 Cu20 1_555 1_555
Cu10 O34 1_555 1_555
Cu11 O37 1_555 1_555
Cu14 O32 1_555 1_555
Cu19 O36 1_555 1_555
O4 Cu12_2 1_555 1_555
O9 Cu1_2 1_555 1_555
N1 N2 1_555 1_555
N2 N3 1_555 1_555
N4 N5 1_555 1_555
N7 N8 1_555 1_555
N8 N9 1_555 1_555
N10 N11 1_555 1_555
N11 N12 1_555 1_555
N13 N14 1_555 1_555
N14 N15 1_555 1_555
N16 N17 1_555 1_555
N17 N18 1_555 1_555
N19 N20 1_555 1_555
N20 N21 1_555 1_555
N25 N26 1_555 1_555
N27 Cu9A 1_555 1_555
N28 N29 1_555 1_555
N29 N30 1_555 1_555
N31 N32 1_555 1_555
N32 N33 1_555 1_555
N34 N35 1_555 1_555
N35 N36 1_555 1_555
N37 N38 1_555 1_555
N38 N39 1_555 1_555
N40 N41 1_555 1_555
N43 N44 1_555 1_555
N45 Cu2A_2 1_555 1_555
N46 N47 1_555 1_555
N47 N48 1_555 1_555
N49 N50 1_555 1_555
N52 N53 1_555 1_555
N53 N54 1_555 1_555
N55 N56 1_555 1_555
N56 N57 1_555 1_555
N58 N59 1_555 1_555
N59 N60 1_555 1_555
C1 C2 1_555 1_555
C3 C4 1_555 1_555
C5 C6 1_555 1_555
C7 C8 1_555 1_555
C9 C10 1_555 1_555
C11 C12 1_555 1_555
C13 C14 1_555 1_555
C15 C16 1_555 1_555
C17 C18 1_555 1_555
C19 C20 1_555 1_555
C21 C22 1_555 1_555
C23 C24 1_555 1_555
C25 C26 1_555 1_555
C27 C28 1_555 1_555
C29 C30 1_555 1_555
C31 C32 1_555 1_555
C33 C34 1_555 1_555
C35 C36 1_555 1_555
C37 C38 1_555 1_555
C39 C40 1_555 1_555
C44 C45 1_555 1_555
C45 C46 1_555 1_555
C52 C53 1_555 1_555
C53 C54 1_555 1_555
C59 C64 1_555 1_555
C60 C61 1_555 1_555
C61 C62 1_555 1_555
C67 C71 1_555 1_555
C68 C69 1_555 1_555
C69 C70 1_555 1_555
Cu17A O14A 1_555 1_555
N23A N24A 1_555 1_555

#END
