
#######################################################################
#
#                 Cambridge Crystallographic Data Centre
#                                CCDC 
#
#######################################################################
#
# If this CIF has been generated from an entry in the Cambridge 
# Structural Database, then it will include bibliographic, chemical, 
# crystal, experimental, refinement or atomic coordinate data resulting 
# from the CCDC's data processing and validation procedures.
#
#######################################################################

data_XEYMAR
_chemical_formula_moiety         '(C27 H27 Cu4 I4 Mn2 N5 O11)n'
_symmetry_cell_setting           monoclinic
_symmetry_space_group_name_H-M   'P 21/c'
_symmetry_Int_Tables_number      14
_space_group_name_Hall           '-P 2ybc'
loop_
_symmetry_equiv_pos_site_id
_symmetry_equiv_pos_as_xyz
1 x,y,z
2 -x,1/2+y,1/2-z
3 -x,-y,-z
4 x,1/2-y,1/2+z
_cell_length_a                   18.0043(8)
_cell_length_b                   21.1164(9)
_cell_length_c                   18.1594(14)
_cell_angle_alpha                90
_cell_angle_beta                 93.344(5)
_cell_angle_gamma                90
_cell_volume                     6892.19
loop_
_atom_site_label
_atom_site_type_symbol
_atom_site_fract_x
_atom_site_fract_y
_atom_site_fract_z
I1 I -0.19128(4) 0.26045(4) 0.37244(5)
I2 I -0.18462(5) 0.24517(4) 0.61466(5)
I3 I -0.09390(4) 0.08198(4) 0.49038(5)
I4 I -0.33240(5) 0.11056(5) 0.47037(6)
Cu1 Cu -0.26868(8) 0.23000(8) 0.48801(11)
Cu2 Cu -0.20501(8) 0.13660(8) 0.40871(9)
Cu3 Cu -0.20803(9) 0.12981(8) 0.55948(10)
Cu4 Cu -0.11982(7) 0.20922(7) 0.49051(9)
Mn1 Mn -0.30523(8) -0.06274(8) -0.01426(10)
Mn2 Mn 0.34604(9) 0.31497(9) 0.64740(12)
N1 N -0.0175(6) 0.2459(5) 0.5061(7)
N2 N -0.2159(6) 0.0891(6) 0.3130(7)
N3 N -0.2328(6) 0.0749(5) 0.6473(7)
N4 N -0.3624(6) 0.2845(7) 0.5001(7)
N5 N 0.5605(11) 0.2702(11) 0.7463(12)
O1 O 0.3615(5) 0.2148(5) 0.6068(7)
H1 H 0.3763 0.2157 0.5649
O2 O 0.3097(6) 0.2705(5) 0.7517(6)
H2 H 0.2989 0.2983 0.7807
O3 O 0.4597(4) 0.3177(5) 0.6906(6)
O4 O 0.2374(4) 0.3077(5) 0.5989(6)
O5 O -0.2986(5) -0.0150(4) 0.8862(6)
O6 O -0.2952(5) -0.0675(5) 0.1137(5)
O7 O -0.3244(5) -0.0940(5) 0.8071(6)
O8 O -0.5683(4) 0.4424(5) 0.5015(6)
O9 O -0.2714(5) 0.0183(4) 0.0526(6)
O10 O 0.2103(4) 0.3838(5) 0.5169(6)
O11 O -0.6189(4) 0.3572(4) 0.5434(5)
C1 C 0.5896(19) 0.2307(17) 0.796(2)
H3 H 0.5506 0.2111 0.8217
H4 H 0.6222 0.2533 0.8303
H5 H 0.6173 0.1986 0.7719
C2 C 0.6065(15) 0.3200(14) 0.7212(18)
H6 H 0.5808 0.3416 0.6808
H7 H 0.6520 0.3025 0.7052
H8 H 0.6174 0.3493 0.7607
C3 C 0.4885(15) 0.2796(11) 0.7265(15)
C4 C -0.2397(10) 0.0292(9) 0.3134(9)
H9 H -0.2429 0.0089 0.3585
C5 C 0.0749(8) 0.3212(8) 0.4790(10)
H10 H 0.0894 0.3536 0.4483
C6 C -0.4242(9) 0.2583(8) 0.5128(13)
H11 H -0.4245 0.2143 0.5151
C7 C 0.0052(7) 0.2927(8) 0.4668(10)
H12 H -0.0266 0.3080 0.4287
C8 C -0.2600(9) -0.0040(6) 0.2496(10)
H13 H -0.2775 -0.0452 0.2529
C9 C -0.2285(8) 0.0841(7) 0.1816(8)
H14 H -0.2227 0.1046 0.1370
C10 C -0.5629(7) 0.3851(8) 0.5235(8)
C11 C -0.3631(7) 0.3473(8) 0.4951(9)
H15 H -0.3187 0.3679 0.4870
C12 C 0.0291(8) 0.2261(7) 0.5567(9)
H16 H 0.0151 0.1918 0.5850
C13 C -0.3029(7) -0.0408(8) 0.8245(9)
C14 C -0.2488(10) 0.0157(8) 0.6395(8)
H17 H -0.2455 -0.0020 0.5929
C15 C -0.2378(9) 0.1001(8) 0.7129(9)
H18 H -0.2253 0.1424 0.7206
C16 C -0.2621(8) 0.0631(7) 0.7722(8)
H19 H -0.2681 0.0817 0.8179
C17 C -0.2754(7) -0.0106(8) 0.1102(10)
C18 C -0.2705(8) -0.0232(7) 0.6949(8)
H20 H -0.2808 -0.0657 0.6856
C19 C -0.2545(7) 0.0232(7) 0.1817(8)
C20 C -0.2765(7) 0.0008(7) 0.7621(8)
C21 C -0.4253(7) 0.3829(7) 0.5012(8)
H21 H -0.4234 0.4268 0.4967
C22 C 0.0988(7) 0.2518(6) 0.5726(8)
H22 H 0.1304 0.2344 0.6095
C23 C -0.4903(7) 0.2883(8) 0.5233(10)
H23 H -0.5325 0.2663 0.5359
C24 C 0.1976(6) 0.3350(8) 0.5496(9)
C25 C -0.2109(8) 0.1156(7) 0.2469(9)
H24 H -0.1948 0.1573 0.2446
C26 C -0.4904(6) 0.3532(7) 0.5140(8)
C27 C 0.1203(6) 0.3016(7) 0.5348(8)
Mn1_2 Mn -0.30523(8) -0.06274(8) 0.98574(10)
Mn1A Mn -0.69477(8) 0.43726(8) 0.51426(10)
Mn1A_2 Mn 0.30523(8) 0.43726(8) 0.51426(10)
Mn2_2 Mn -0.65396(9) 0.31497(9) 0.64740(12)
Mn2A Mn -0.34604(9) -0.18503(9) 0.85260(12)
O5_2 O -0.2986(5) -0.0150(4) -0.1138(6)
O7A O 0.3244(5) 0.4060(5) 0.6929(6)
O8A O -0.4317(4) -0.0576(5) -0.0015(6)
O10A O -0.2103(4) -0.1162(5) -0.0169(6)
O11_2 O 0.3811(4) 0.3572(4) 0.5434(5)
O11A O -0.3811(4) -0.1428(4) -0.0434(5)
loop_
_geom_bond_atom_site_label_1
_geom_bond_atom_site_label_2
_geom_bond_site_symmetry_1
_geom_bond_site_symmetry_2
I1 Cu1 1_555 1_555
I2 Cu1 1_555 1_555
I3 Cu2 1_555 1_555
I4 Cu1 1_555 1_555
Cu1 Cu2 1_555 1_555
Cu2 I1 1_555 1_555
Cu3 I2 1_555 1_555
Cu4 I1 1_555 1_555
Mn1 O6 1_555 1_555
Mn2 O1 1_555 1_555
N1 Cu4 1_555 1_555
N2 Cu2 1_555 1_555
N3 Cu3 1_555 1_555
N4 Cu1 1_555 1_555
N5 C1 1_555 1_555
O1 H1 1_555 1_555
O2 Mn2 1_555 1_555
H2 O2 1_555 1_555
O3 Mn2 1_555 1_555
O4 Mn2 1_555 1_555
O5 C13 1_555 1_555
O6 C17 1_555 1_555
O7 C13 1_555 1_555
O8 C10 1_555 1_555
O9 Mn1 1_555 1_555
O10 C24 1_555 1_555
O11 C10 1_555 1_555
C1 H3 1_555 1_555
H4 C1 1_555 1_555
H5 C1 1_555 1_555
C2 N5 1_555 1_555
H6 C2 1_555 1_555
H7 C2 1_555 1_555
H8 C2 1_555 1_555
C3 N5 1_555 1_555
C4 N2 1_555 1_555
H9 C4 1_555 1_555
C5 H10 1_555 1_555
C6 N4 1_555 1_555
H11 C6 1_555 1_555
C7 N1 1_555 1_555
H12 C7 1_555 1_555
C8 C4 1_555 1_555
H13 C8 1_555 1_555
C9 H14 1_555 1_555
C10 C26 1_555 1_555
C11 N4 1_555 1_555
H15 C11 1_555 1_555
C12 N1 1_555 1_555
H16 C12 1_555 1_555
C13 C20 1_555 1_555
C14 N3 1_555 1_555
H17 C14 1_555 1_555
C15 N3 1_555 1_555
H18 C15 1_555 1_555
C16 C15 1_555 1_555
H19 C16 1_555 1_555
C17 O9 1_555 1_555
C18 C14 1_555 1_555
H20 C18 1_555 1_555
C19 C8 1_555 1_555
C20 C16 1_555 1_555
C21 C11 1_555 1_555
H21 C21 1_555 1_555
C22 C12 1_555 1_555
H22 C22 1_555 1_555
C23 C6 1_555 1_555
H23 C23 1_555 1_555
C24 O4 1_555 1_555
C25 N2 1_555 1_555
H24 C25 1_555 1_555
C26 C21 1_555 1_555
C27 C5 1_555 1_555
Mn1_2 O5 1_555 1_555
Mn1A O8 1_555 1_555
Mn1A_2 O10 1_555 1_555
Mn2_2 O11 1_555 1_555
Mn2A O7 1_555 1_555
O5_2 Mn1 1_555 1_555
O7A Mn2 1_555 1_555
O8A Mn1 1_555 1_555
O10A Mn1 1_555 1_555
O11_2 Mn2 1_555 1_555
O11A Mn1 1_555 1_555
I2 Cu4 1_555 1_555
I3 Cu3 1_555 1_555
I3 Cu4 1_555 1_555
I4 Cu2 1_555 1_555
I4 Cu3 1_555 1_555
Cu1 Cu3 1_555 1_555
Cu1 Cu4 1_555 1_555
Cu2 Cu3 1_555 1_555
Cu2 Cu4 1_555 1_555
Cu3 Cu4 1_555 1_555
O3 C3 1_555 1_555
O11 Mn1A 1_555 1_555
C5 C7 1_555 1_555
C9 C19 1_555 1_555
C9 C25 1_555 1_555
C17 C19 1_555 1_555
C18 C20 1_555 1_555
C22 C27 1_555 1_555
C23 C26 1_555 1_555
C24 C27 1_555 1_555
Mn1A_2 O11_2 1_555 1_555

#END
