
#######################################################################
#
#                 Cambridge Crystallographic Data Centre
#                                CCDC 
#
#######################################################################
#
# If this CIF has been generated from an entry in the Cambridge 
# Structural Database, then it will include bibliographic, chemical, 
# crystal, experimental, refinement or atomic coordinate data resulting 
# from the CCDC's data processing and validation procedures.
#
#######################################################################

data_COKXIL
_chemical_formula_moiety         '(C40 H42 Br2 Cd2 N8 O8)n'
_symmetry_cell_setting           orthorhombic
_symmetry_space_group_name_H-M   'P n n a'
_symmetry_Int_Tables_number      52
_space_group_name_Hall           '-P 2a 2bc'
loop_
_symmetry_equiv_pos_site_id
_symmetry_equiv_pos_as_xyz
1 x,y,z
2 1/2-x,-y,z
3 1/2-x,1/2+y,1/2-z
4 x,1/2-y,1/2-z
5 -x,-y,-z
6 1/2+x,y,-z
7 1/2+x,1/2-y,1/2+z
8 -x,1/2+y,1/2+z
_cell_length_a                   21.2969(15)
_cell_length_b                   26.3582(19)
_cell_length_c                   8.7744(6)
_cell_angle_alpha                90
_cell_angle_beta                 90
_cell_angle_gamma                90
_cell_volume                     4925.49
loop_
_atom_site_label
_atom_site_type_symbol
_atom_site_fract_x
_atom_site_fract_y
_atom_site_fract_z
_atom_site_U_iso_or_equiv
_atom_site_thermal_displace_type
Cd1 Cd 0.08430(3) 0.7500 1.2500 0.0433 Uani
Cd2 Cd -0.2500 1.0000 1.13919(6) 0.0442 Uani
N1 N 0.1493(2) 0.78496(16) 1.0748(5) 0.0507 Uani
N2 N 0.1789(3) 0.8215(2) 0.8620(5) 0.0707 Uani
N3 N 0.1910(4) 0.9128(3) 0.2578(7) 0.1180 Uani
N4 N 0.2062(2) 0.94753(17) 0.0340(5) 0.0560 Uani
O1 O -0.1725(2) 0.93947(18) 1.1893(6) 0.0893 Uani
O2 O -0.1707(2) 1.00598(19) 1.3303(5) 0.0890 Uani
O3 O 0.0014(2) 0.81229(16) 1.2322(6) 0.0770 Uani
O4 O 0.0597(2) 0.81219(16) 1.4352(5) 0.0753 Uani
Br1 Br -0.01210(4) 0.96571(3) 1.80350(9) 0.0922 Uani
C1 C -0.0810(3) 0.9614(2) 1.5262(7) 0.0553 Uani
H1 H -0.1013 0.9902 1.5630 0.0660 Uiso
C2 C -0.0336(3) 0.9391(2) 1.6096(6) 0.0550 Uani
C3 C -0.0024(3) 0.8966(2) 1.5547(7) 0.0563 Uani
H2 H 0.0296 0.8819 1.6120 0.0680 Uiso
C4 C -0.0183(2) 0.8763(2) 1.4175(7) 0.0477 Uani
C5 C -0.0669(3) 0.8983(2) 1.3335(6) 0.0510 Uani
H3 H -0.0784 0.8843 1.2404 0.0610 Uiso
C6 C -0.0981(2) 0.9408(2) 1.3871(6) 0.0483 Uani
C7 C -0.1503(3) 0.9633(3) 1.2965(7) 0.0600 Uani
C8 C 0.0159(3) 0.8303(2) 1.3591(8) 0.0580 Uani
C9 C 0.2130(3) 0.7898(2) 1.0751(7) 0.0697 Uani
H4 H 0.2395 0.7793 1.1534 0.0840 Uiso
C10 C 0.2319(4) 0.8120(3) 0.9451(8) 0.0943 Uani
H5 H 0.2729 0.8195 0.9171 0.1140 Uiso
C11 C 0.1298(3) 0.8049(2) 0.9442(6) 0.0530 Uani
C12 C 0.0651(3) 0.8096(3) 0.8924(8) 0.0810 Uani
H6 H 0.0384 0.7890 0.9550 0.1210 Uiso
H7 H 0.0621 0.7987 0.7884 0.1210 Uiso
H8 H 0.0521 0.8444 0.8998 0.1210 Uiso
C13 C 0.1746(4) 0.8480(4) 0.7145(8) 0.1093 Uani
H9 H 0.1394 0.8343 0.6576 0.1310 Uiso
H10 H 0.1662 0.8836 0.7330 0.1310 Uiso
C14 C 0.2315(5) 0.8435(5) 0.6216(9) 0.1687 Uani
H11 H 0.2496 0.8101 0.6361 0.2020 Uiso
H12 H 0.2620 0.8684 0.6558 0.2020 Uiso
C15 C 0.2179(5) 0.8521(4) 0.4442(11) 0.1710 Uani
H13 H 0.2551 0.8453 0.3839 0.2050 Uiso
H14 H 0.1842 0.8302 0.4094 0.2050 Uiso
C16 C 0.1997(6) 0.9057(4) 0.4332(10) 0.1740 Uani
H15 H 0.2323 0.9277 0.4725 0.2090 Uiso
H16 H 0.1609 0.9122 0.4877 0.2090 Uiso
C17 C 0.1342(4) 0.9180(3) 0.1884(10) 0.0937 Uani
H17 H 0.0956 0.9077 0.2278 0.1130 Uiso
C18 C 0.1433(3) 0.9400(2) 0.0560(8) 0.0640 Uani
H18 H 0.1119 0.9490 -0.0124 0.0770 Uiso
C19 C 0.2342(3) 0.9300(3) 0.1575(8) 0.0833 Uani
C20 C 0.3027(4) 0.9278(5) 0.1795(11) 0.1610 Uani
H19 H 0.3233 0.9417 0.0916 0.2420 Uiso
H20 H 0.3154 0.8932 0.1930 0.2420 Uiso
H21 H 0.3139 0.9471 0.2681 0.2420 Uiso
O1A O -0.3275(2) 1.06053(18) 1.1893(6) 0.0893 Uani
O2A O -0.3293(2) 0.99402(19) 1.3303(5) 0.0890 Uani
O3A O -0.5014(2) 1.18771(16) 1.2322(6) 0.0770 Uani
O4A O -0.5597(2) 1.18781(16) 1.4352(5) 0.0753 Uani
Br1A Br -0.48790(4) 1.03429(3) 1.80350(9) 0.0922 Uani
C1A C -0.4190(3) 1.0386(2) 1.5262(7) 0.0553 Uani
H1A H -0.3987 1.0098 1.5630 0.0660 Uiso
C2A C -0.4664(3) 1.0609(2) 1.6096(6) 0.0550 Uani
C3A C -0.4976(3) 1.1034(2) 1.5547(7) 0.0563 Uani
H2A H -0.5296 1.1181 1.6120 0.0680 Uiso
C4A C -0.4817(2) 1.1237(2) 1.4175(7) 0.0477 Uani
C5A C -0.4331(3) 1.1017(2) 1.3335(6) 0.0510 Uani
H3A H -0.4216 1.1157 1.2404 0.0610 Uiso
C6A C -0.4019(2) 1.0592(2) 1.3871(6) 0.0483 Uani
C7A C -0.3497(3) 1.0367(3) 1.2965(7) 0.0600 Uani
C8A C -0.5159(3) 1.1697(2) 1.3591(8) 0.0580 Uani
N1C N 0.1493(2) 0.71504(16) 1.4252(5) 0.0507 Uani
N2C N 0.1789(3) 0.6785(2) 1.6380(5) 0.0707 Uani
N3C N 0.1910(4) 0.5872(3) 2.2422(7) 0.1180 Uani
N4C N 0.2062(2) 0.55247(17) 2.4660(5) 0.0560 Uani
C9C C 0.2130(3) 0.7102(2) 1.4249(7) 0.0697 Uani
H4C H 0.2395 0.7207 1.3466 0.0840 Uiso
C10C C 0.2319(4) 0.6880(3) 1.5549(8) 0.0943 Uani
H5C H 0.2729 0.6805 1.5829 0.1140 Uiso
C11C C 0.1298(3) 0.6951(2) 1.5558(6) 0.0530 Uani
C12C C 0.0651(3) 0.6904(3) 1.6076(8) 0.0810 Uani
H6C H 0.0384 0.7110 1.5450 0.1210 Uiso
H7C H 0.0621 0.7013 1.7116 0.1210 Uiso
H8C H 0.0521 0.6556 1.6002 0.1210 Uiso
C13C C 0.1746(4) 0.6520(4) 1.7855(8) 0.1093 Uani
H9C H 0.1394 0.6657 1.8424 0.1310 Uiso
H10C H 0.1662 0.6164 1.7670 0.1310 Uiso
C14C C 0.2315(5) 0.6565(5) 1.8784(9) 0.1687 Uani
H11C H 0.2496 0.6899 1.8639 0.2020 Uiso
H12C H 0.2620 0.6316 1.8442 0.2020 Uiso
C15C C 0.2179(5) 0.6479(4) 2.0558(11) 0.1710 Uani
H13C H 0.2551 0.6547 2.1161 0.2050 Uiso
H14C H 0.1842 0.6698 2.0906 0.2050 Uiso
C16C C 0.1997(6) 0.5943(4) 2.0668(10) 0.1740 Uani
H15C H 0.2323 0.5723 2.0275 0.2090 Uiso
H16C H 0.1609 0.5878 2.0123 0.2090 Uiso
C17C C 0.1342(4) 0.5820(3) 2.3116(10) 0.0937 Uani
H17C H 0.0956 0.5923 2.2722 0.1130 Uiso
C18C C 0.1433(3) 0.5600(2) 2.4440(8) 0.0640 Uani
H18C H 0.1119 0.5510 2.5124 0.0770 Uiso
C19C C 0.2342(3) 0.5700(3) 2.3425(8) 0.0833 Uani
C20C C 0.3027(4) 0.5722(5) 2.3205(11) 0.1610 Uani
H19C H 0.3233 0.5583 2.4084 0.2420 Uiso
H20C H 0.3154 0.6068 2.3070 0.2420 Uiso
H21C H 0.3139 0.5529 2.2319 0.2420 Uiso
Cd1A Cd -0.58430(3) 1.2500 1.2500 0.0433 Uani
Cd2D Cd 0.2500 1.0000 -0.13919(6) 0.0442 Uani
Cd2F Cd 0.2500 0.5000 2.63919(6) 0.0442 Uani
N4D N -0.2062(2) 1.05247(17) 0.9660(5) 0.0560 Uani
N4E N -0.2938(2) 0.94753(17) 0.9660(5) 0.0560 Uani
O3C O 0.0014(2) 0.68771(16) 1.2678(6) 0.0770 Uani
O4C O 0.0597(2) 0.68781(16) 1.0648(5) 0.0753 Uani
loop_
_atom_site_aniso_label
_atom_site_aniso_U_11
_atom_site_aniso_U_22
_atom_site_aniso_U_33
_atom_site_aniso_U_23
_atom_site_aniso_U_13
_atom_site_aniso_U_12
Cd1 0.0448(3) 0.0451(3) 0.0401(3) 0.0066(3) 0.000 0.000
Cd2 0.0475(3) 0.0515(3) 0.0336(3) 0.000 0.000 0.0116(3)
N1 0.061(3) 0.054(3) 0.037(3) 0.008(2) -0.001(2) -0.004(2)
N2 0.061(3) 0.102(4) 0.049(3) 0.039(3) 0.009(3) 0.007(3)
N3 0.096(5) 0.179(7) 0.079(4) 0.084(5) 0.006(4) -0.012(5)
N4 0.052(3) 0.071(3) 0.045(3) 0.007(2) -0.003(2) -0.005(2)
O1 0.092(4) 0.089(3) 0.087(3) -0.014(3) -0.043(3) 0.041(3)
O2 0.100(4) 0.097(3) 0.070(3) -0.011(3) -0.026(3) 0.060(3)
O3 0.081(3) 0.072(3) 0.078(3) -0.009(3) -0.001(2) 0.025(2)
O4 0.071(3) 0.073(3) 0.082(3) 0.003(3) -0.008(2) 0.037(2)
Br1 0.0831(5) 0.1267(7) 0.0669(5) -0.0246(5) -0.0229(4) 0.0285(5)
C1 0.051(3) 0.060(3) 0.055(4) 0.002(3) 0.005(3) 0.014(3)
C2 0.049(3) 0.072(4) 0.044(3) 0.005(3) -0.001(3) 0.011(3)
C3 0.044(3) 0.073(4) 0.052(4) 0.008(3) -0.005(3) 0.018(3)
C4 0.039(3) 0.052(3) 0.052(3) 0.012(3) 0.008(3) 0.014(3)
C5 0.053(4) 0.055(3) 0.045(3) 0.007(3) 0.005(3) 0.010(3)
C6 0.047(3) 0.052(3) 0.046(3) 0.008(3) 0.002(2) 0.016(3)
C7 0.049(4) 0.080(4) 0.051(4) 0.012(3) 0.004(3) 0.020(3)
C8 0.055(4) 0.053(3) 0.066(4) 0.010(3) 0.013(3) 0.005(3)
C9 0.046(4) 0.099(5) 0.064(4) 0.026(4) -0.002(3) 0.007(3)
C10 0.066(5) 0.151(7) 0.066(5) 0.042(5) 0.014(4) -0.010(5)
C11 0.056(4) 0.064(4) 0.039(3) 0.005(3) -0.002(3) -0.001(3)
C12 0.066(5) 0.116(6) 0.061(4) 0.030(4) -0.009(3) -0.004(4)
C13 0.091(6) 0.164(8) 0.073(5) 0.069(5) 0.010(4) 0.021(5)
C14 0.181(11) 0.283(15) 0.042(5) 0.051(7) 0.014(6) 0.002(10)
C15 0.166(10) 0.107(8) 0.240(15) -0.073(9) 0.072(10) -0.042(7)
C16 0.253(15) 0.129(9) 0.140(10) -0.021(8) 0.062(10) -0.048(9)
C17 0.067(5) 0.090(5) 0.124(7) 0.045(5) 0.033(5) 0.000(4)
C18 0.046(4) 0.066(4) 0.080(5) 0.016(4) -0.004(3) 0.005(3)
C19 0.064(5) 0.120(6) 0.066(4) 0.051(4) -0.020(4) -0.026(4)
C20 0.087(7) 0.255(12) 0.141(8) 0.131(9) -0.059(6) -0.053(7)
O1A 0.092 0.089 0.087 0.014 0.043 0.041
O2A 0.1 0.097 0.07 0.011 0.026 0.06
O3A 0.081 0.072 0.078 0.009 0.001 0.025
O4A 0.071 0.073 0.082 -0.003 0.008 0.037
Br1A 0.0831 0.1267 0.0669 0.0246 0.0229 0.0285
C1A 0.051 0.06 0.055 -0.002 -0.005 0.014
C2A 0.049 0.072 0.044 -0.005 0.001 0.011
C3A 0.044 0.073 0.052 -0.008 0.005 0.018
C4A 0.039 0.052 0.052 -0.012 -0.008 0.014
C5A 0.053 0.055 0.045 -0.007 -0.005 0.01
C6A 0.047 0.052 0.046 -0.008 -0.002 0.016
C7A 0.049 0.08 0.051 -0.012 -0.004 0.02
C8A 0.055 0.053 0.066 -0.01 -0.013 0.005
N1C 0.061 0.054 0.037 0.008 0.001 0.004
N2C 0.061 0.102 0.049 0.039 -0.009 -0.007
N3C 0.096 0.179 0.079 0.084 -0.006 0.012
N4C 0.052 0.071 0.045 0.007 0.003 0.005
C9C 0.046 0.099 0.064 0.026 0.002 -0.007
C10C 0.066 0.151 0.066 0.042 -0.014 0.01
C11C 0.056 0.064 0.039 0.005 0.002 0.001
C12C 0.066 0.116 0.061 0.03 0.009 0.004
C13C 0.091 0.164 0.073 0.069 -0.01 -0.021
C14C 0.181 0.283 0.042 0.051 -0.014 -0.002
C15C 0.166 0.107 0.24 -0.073 -0.072 0.042
C16C 0.253 0.129 0.14 -0.021 -0.062 0.048
C17C 0.067 0.09 0.124 0.045 -0.033 0
C18C 0.046 0.066 0.08 0.016 0.004 -0.005
C19C 0.064 0.12 0.066 0.051 0.02 0.026
C20C 0.087 0.255 0.141 0.131 0.059 0.053
Cd1A 0.0448 0.0451 0.0401 -0.0066 0 0
Cd2D 0.0475 0.0515 0.0336 0 0 0.0116
Cd2F 0.0475 0.0515 0.0336 0 0 -0.0116
N4D 0.052 0.071 0.045 0.007 -0.003 -0.005
N4E 0.052 0.071 0.045 -0.007 0.003 -0.005
O3C 0.081 0.072 0.078 -0.009 0.001 -0.025
O4C 0.071 0.073 0.082 0.003 0.008 -0.037
loop_
_geom_bond_atom_site_label_1
_geom_bond_atom_site_label_2
_geom_bond_site_symmetry_1
_geom_bond_site_symmetry_2
Cd1 N1 1_555 1_555
Cd2 O1 1_555 1_555
N1 C9 1_555 1_555
N2 C10 1_555 1_555
N3 C16 1_555 1_555
N4 C18 1_555 1_555
O1 C7 1_555 1_555
O2 Cd2 1_555 1_555
O3 Cd1 1_555 1_555
O4 Cd1 1_555 1_555
Br1 C2 1_555 1_555
C1 H1 1_555 1_555
C2 C1 1_555 1_555
C3 C2 1_555 1_555
H2 C3 1_555 1_555
C4 C3 1_555 1_555
C5 C4 1_555 1_555
H3 C5 1_555 1_555
C6 C1 1_555 1_555
C7 O2 1_555 1_555
C8 O3 1_555 1_555
C9 H4 1_555 1_555
C10 C9 1_555 1_555
H5 C10 1_555 1_555
C11 N1 1_555 1_555
C12 C11 1_555 1_555
H6 C12 1_555 1_555
H7 C12 1_555 1_555
H8 C12 1_555 1_555
C13 N2 1_555 1_555
H9 C13 1_555 1_555
H10 C13 1_555 1_555
C14 C13 1_555 1_555
H11 C14 1_555 1_555
H12 C14 1_555 1_555
C15 C14 1_555 1_555
H13 C15 1_555 1_555
H14 C15 1_555 1_555
C16 C15 1_555 1_555
H15 C16 1_555 1_555
H16 C16 1_555 1_555
C17 N3 1_555 1_555
H17 C17 1_555 1_555
C18 C17 1_555 1_555
H18 C18 1_555 1_555
C19 N3 1_555 1_555
C20 C19 1_555 1_555
H19 C20 1_555 1_555
H20 C20 1_555 1_555
H21 C20 1_555 1_555
O1A Cd2 1_555 1_555
O2A Cd2 1_555 1_555
O3A C8A 1_555 1_555
O4A C8A 1_555 1_555
Br1A C2A 1_555 1_555
C1A H1A 1_555 1_555
C2A C1A 1_555 1_555
C3A C2A 1_555 1_555
H2A C3A 1_555 1_555
C4A C3A 1_555 1_555
C5A C4A 1_555 1_555
H3A C5A 1_555 1_555
C6A C1A 1_555 1_555
C7A O1A 1_555 1_555
C8A C4A 1_555 1_555
N1C Cd1 1_555 1_555
N2C C10C 1_555 1_555
N3C C16C 1_555 1_555
N4C C18C 1_555 1_555
C9C N1C 1_555 1_555
H4C C9C 1_555 1_555
C10C C9C 1_555 1_555
H5C C10C 1_555 1_555
C11C N1C 1_555 1_555
C12C C11C 1_555 1_555
H6C C12C 1_555 1_555
H7C C12C 1_555 1_555
H8C C12C 1_555 1_555
C13C N2C 1_555 1_555
H9C C13C 1_555 1_555
H10C C13C 1_555 1_555
C14C C13C 1_555 1_555
H11C C14C 1_555 1_555
H12C C14C 1_555 1_555
C15C C14C 1_555 1_555
H13C C15C 1_555 1_555
H14C C15C 1_555 1_555
C16C C15C 1_555 1_555
H15C C16C 1_555 1_555
H16C C16C 1_555 1_555
C17C N3C 1_555 1_555
H17C C17C 1_555 1_555
C18C C17C 1_555 1_555
H18C C18C 1_555 1_555
C19C N3C 1_555 1_555
C20C C19C 1_555 1_555
H19C C20C 1_555 1_555
H20C C20C 1_555 1_555
H21C C20C 1_555 1_555
Cd1A O3A 1_555 1_555
Cd2D N4 1_555 1_555
Cd2F N4C 1_555 1_555
N4D Cd2 1_555 1_555
N4E Cd2 1_555 1_555
O3C Cd1 1_555 1_555
O4C Cd1 1_555 1_555
N2 C11 1_555 1_555
N4 C19 1_555 1_555
O4 C8 1_555 1_555
C4 C8 1_555 1_555
C5 C6 1_555 1_555
C6 C7 1_555 1_555
O2A C7A 1_555 1_555
O4A Cd1A 1_555 1_555
C5A C6A 1_555 1_555
C6A C7A 1_555 1_555
N2C C11C 1_555 1_555
N4C C19C 1_555 1_555

#END
