
#######################################################################
#
#                 Cambridge Crystallographic Data Centre
#                                CCDC 
#
#######################################################################
#
# If this CIF has been generated from an entry in the Cambridge 
# Structural Database, then it will include bibliographic, chemical, 
# crystal, experimental, refinement or atomic coordinate data resulting 
# from the CCDC's data processing and validation procedures.
#
#######################################################################

data_NATHOI
_chemical_formula_moiety         'C84 H66 F7 N6 O1 Si1 Zn4'
_symmetry_cell_setting           tetragonal
_symmetry_space_group_name_H-M   'I 4/m m m'
_symmetry_Int_Tables_number      139
_space_group_name_Hall           '-I 4 2'
loop_
_symmetry_equiv_pos_site_id
_symmetry_equiv_pos_as_xyz
1 x,y,z
2 -y,x,z
3 -x,-y,z
4 y,-x,z
5 x,-y,-z
6 -x,y,-z
7 y,x,-z
8 -y,-x,-z
9 1/2+x,1/2+y,1/2+z
10 1/2-y,1/2+x,1/2+z
11 1/2-x,1/2-y,1/2+z
12 1/2+y,1/2-x,1/2+z
13 1/2+x,1/2-y,1/2-z
14 1/2-x,1/2+y,1/2-z
15 1/2+y,1/2+x,1/2-z
16 1/2-y,1/2-x,1/2-z
17 -x,-y,-z
18 y,-x,-z
19 x,y,-z
20 -y,x,-z
21 -x,y,z
22 x,-y,z
23 -y,-x,z
24 y,x,z
25 1/2-x,1/2-y,1/2-z
26 1/2+y,1/2-x,1/2-z
27 1/2+x,1/2+y,1/2-z
28 1/2-y,1/2+x,1/2-z
29 1/2-x,1/2+y,1/2+z
30 1/2+x,1/2-y,1/2+z
31 1/2-y,1/2-x,1/2+z
32 1/2+y,1/2+x,1/2+z
_cell_length_a                   24.9961(7)
_cell_length_b                   24.9961(7)
_cell_length_c                   7.4414(2)
_cell_angle_alpha                90
_cell_angle_beta                 90
_cell_angle_gamma                90
_cell_volume                     4649.42
loop_
_atom_site_label
_atom_site_type_symbol
_atom_site_fract_x
_atom_site_fract_y
_atom_site_fract_z
O1 O 0.6227(4) 0.6227(4) 0.0000
Zn1 Zn 0.5000 0.5000 0.5000
Si1 Si 0.5000 0.5000 0.0000
F1 F 0.5000 0.5000 0.2277(6)
N1 N 0.5000 0.41503(17) 0.5000
F2 F 0.54544(15) 0.54544(15) 0.0000
C1 C 0.4723(3) 0.3874(2) 0.3775(8)
H1 H 0.4530 0.4066 0.2885
C2 C 0.4705(3) 0.3329(3) 0.3739(10)
H2 H 0.4494 0.3149 0.2867
C3 C 0.5000 0.3039(3) 0.5000
C4 C 0.5000 0.2463(3) 0.5000
C5 C 0.5000 0.1990(3) 0.5000
C6 C 0.5000 0.1412(2) 0.5000
C7 C 0.4560(3) 0.1132(2) 0.4404(9)
H3 H 0.4255 0.1321 0.3983
C8 C 0.4556(3) 0.0583(2) 0.4412(9)
H4 H 0.4247 0.0397 0.4011
C9 C 0.5000 0.0297(2) 0.5000
F2A F 0.45456(15) 0.54544(15) 0.0000
F2B F 0.45456(15) 0.45456(15) 0.0000
F2C F 0.54544(15) 0.45456(15) 0.0000
F1D F 0.5000 0.5000 -0.2277(6)
N1B N 0.5000 -0.41503(17) 0.5000
C1B C 0.5277(3) -0.3874(2) 0.3775(8)
H1B H 0.5470 -0.4066 0.2885
C2B C 0.5295(3) -0.3329(3) 0.3739(10)
H2B H 0.5506 -0.3149 0.2867
C3B C 0.5000 -0.3039(3) 0.5000
C4B C 0.5000 -0.2463(3) 0.5000
C5B C 0.5000 -0.1990(3) 0.5000
C6B C 0.5000 -0.1412(2) 0.5000
C7B C 0.5440(3) -0.1132(2) 0.4404(9)
H3B H 0.5745 -0.1321 0.3983
C8B C 0.5444(3) -0.0583(2) 0.4412(9)
H4B H 0.5753 -0.0397 0.4011
C9B C 0.5000 -0.0297(2) 0.5000
C1D C 0.4723(3) -0.3874(2) 0.6225(8)
H1D H 0.4530 -0.4066 0.7115
C2D C 0.4705(3) -0.3329(3) 0.6261(10)
H2D H 0.4494 -0.3149 0.7133
C7D C 0.4560(3) -0.1132(2) 0.5596(9)
H3D H 0.4255 -0.1321 0.6017
C8D C 0.4556(3) -0.0583(2) 0.5588(9)
H4D H 0.4247 -0.0397 0.5989
C1E C 0.5277(3) 0.3874(2) 0.6225(8)
H1E H 0.5470 0.4066 0.7115
C2E C 0.5295(3) 0.3329(3) 0.6261(10)
H2E H 0.5506 0.3149 0.7133
C7E C 0.5440(3) 0.1132(2) 0.5596(9)
H3E H 0.5745 0.1321 0.6017
C8E C 0.5444(3) 0.0583(2) 0.5588(9)
H4E H 0.5753 0.0397 0.5989
C1P C 0.5277(3) -0.3874(2) 0.6225(8)
H1P H 0.5470 -0.4066 0.7115
C2P C 0.5295(3) -0.3329(3) 0.6261(10)
H2P H 0.5506 -0.3149 0.7133
C7P C 0.5440(3) -0.1132(2) 0.5596(9)
H3P H 0.5745 -0.1321 0.6017
C8P C 0.5444(3) -0.0583(2) 0.5588(9)
H4P H 0.5753 -0.0397 0.5989
C1R C 0.4723(3) 0.3874(2) 0.6225(8)
H1R H 0.4530 0.4066 0.7115
C2R C 0.4705(3) 0.3329(3) 0.6261(10)
H2R H 0.4494 0.3149 0.7133
C7R C 0.4560(3) 0.1132(2) 0.5596(9)
H3R H 0.4255 0.1321 0.6017
C8R C 0.4556(3) 0.0583(2) 0.5588(9)
H4R H 0.4247 0.0397 0.5989
C1T C 0.5277(3) 0.3874(2) 0.3775(8)
H1T H 0.5470 0.4066 0.2885
C2T C 0.5295(3) 0.3329(3) 0.3739(10)
H2T H 0.5506 0.3149 0.2867
C7T C 0.5440(3) 0.1132(2) 0.4404(9)
H3T H 0.5745 0.1321 0.3983
C8T C 0.5444(3) 0.0583(2) 0.4412(9)
H4T H 0.5753 0.0397 0.4011
C1U C 0.4723(3) -0.3874(2) 0.3775(8)
H1U H 0.4530 -0.4066 0.2885
C2U C 0.4705(3) -0.3329(3) 0.3739(10)
H2U H 0.4494 -0.3149 0.2867
C7U C 0.4560(3) -0.1132(2) 0.4404(9)
H3U H 0.4255 -0.1321 0.3983
C8U C 0.4556(3) -0.0583(2) 0.4412(9)
H4U H 0.4247 -0.0397 0.4011
N1A N -0.41503(17) 0.5000 0.5000
C1A C -0.3874(2) 0.4723(3) 0.3775(8)
H1A H -0.4066 0.4530 0.2885
C2A C -0.3329(3) 0.4705(3) 0.3739(10)
H2A H -0.3149 0.4494 0.2867
C3A C -0.3039(3) 0.5000 0.5000
C4A C -0.2463(3) 0.5000 0.5000
C5A C -0.1990(3) 0.5000 0.5000
C6A C -0.1412(2) 0.5000 0.5000
C7A C -0.1132(2) 0.4560(3) 0.4404(9)
H3A H -0.1321 0.4255 0.3983
C8A C -0.0583(2) 0.4556(3) 0.4412(9)
H4A H -0.0397 0.4247 0.4011
C9A C -0.0297(2) 0.5000 0.5000
N1C N 0.41503(17) 0.5000 0.5000
C1C C 0.3874(2) 0.5277(3) 0.3775(8)
H1C H 0.4066 0.5470 0.2885
C2C C 0.3329(3) 0.5295(3) 0.3739(10)
H2C H 0.3149 0.5506 0.2867
C3C C 0.3039(3) 0.5000 0.5000
C4C C 0.2463(3) 0.5000 0.5000
C5C C 0.1990(3) 0.5000 0.5000
C6C C 0.1412(2) 0.5000 0.5000
C7C C 0.1132(2) 0.5440(3) 0.4404(9)
H3C H 0.1321 0.5745 0.3983
C8C C 0.0583(2) 0.5444(3) 0.4412(9)
H4C H 0.0397 0.5753 0.4011
C9C C 0.0297(2) 0.5000 0.5000
C1F C 0.3874(2) 0.4723(3) 0.6225(8)
H1F H 0.4066 0.4530 0.7115
C2F C 0.3329(3) 0.4705(3) 0.6261(10)
H2F H 0.3149 0.4494 0.7133
C7F C 0.1132(2) 0.4560(3) 0.5596(9)
H3F H 0.1321 0.4255 0.6017
C8F C 0.0583(2) 0.4556(3) 0.5588(9)
H4F H 0.0397 0.4247 0.5989
C1G C -0.3874(2) 0.5277(3) 0.6225(8)
H1G H -0.4066 0.5470 0.7115
C2G C -0.3329(3) 0.5295(3) 0.6261(10)
H2G H -0.3149 0.5506 0.7133
C7G C -0.1132(2) 0.5440(3) 0.5596(9)
H3G H -0.1321 0.5745 0.6017
C8G C -0.0583(2) 0.5444(3) 0.5588(9)
H4G H -0.0397 0.5753 0.5989
C1Q C 0.3874(2) 0.5277(3) 0.6225(8)
H1Q H 0.4066 0.5470 0.7115
C2Q C 0.3329(3) 0.5295(3) 0.6261(10)
H2Q H 0.3149 0.5506 0.7133
C7Q C 0.1132(2) 0.5440(3) 0.5596(9)
H3Q H 0.1321 0.5745 0.6017
C8Q C 0.0583(2) 0.5444(3) 0.5588(9)
H4Q H 0.0397 0.5753 0.5989
C1S C -0.3874(2) 0.4723(3) 0.6225(8)
H1S H -0.4066 0.4530 0.7115
C2S C -0.3329(3) 0.4705(3) 0.6261(10)
H2S H -0.3149 0.4494 0.7133
C7S C -0.1132(2) 0.4560(3) 0.5596(9)
H3S H -0.1321 0.4255 0.6017
C8S C -0.0583(2) 0.4556(3) 0.5588(9)
H4S H -0.0397 0.4247 0.5989
C1V C -0.3874(2) 0.5277(3) 0.3775(8)
H1V H -0.4066 0.5470 0.2885
C2V C -0.3329(3) 0.5295(3) 0.3739(10)
H2V H -0.3149 0.5506 0.2867
C7V C -0.1132(2) 0.5440(3) 0.4404(9)
H3V H -0.1321 0.5745 0.3983
C8V C -0.0583(2) 0.5444(3) 0.4412(9)
H4V H -0.0397 0.5753 0.4011
C1W C 0.3874(2) 0.4723(3) 0.3775(8)
H1W H 0.4066 0.4530 0.2885
C2W C 0.3329(3) 0.4705(3) 0.3739(10)
H2W H 0.3149 0.4494 0.2867
C7W C 0.1132(2) 0.4560(3) 0.4404(9)
H3W H 0.1321 0.4255 0.3983
C8W C 0.0583(2) 0.4556(3) 0.4412(9)
H4W H 0.0397 0.4247 0.4011
Zn1_2 Zn -0.5000 0.5000 0.5000
Zn1_3 Zn 0.5000 -0.5000 0.5000
Zn1_4 Zn 0.5000 0.5000 -0.5000
F1D_2 F 0.5000 0.5000 0.7723(6)
N1A_2 N 0.58497(17) 0.5000 0.5000
N1B_2 N 0.5000 0.58497(17) 0.5000
loop_
_geom_bond_atom_site_label_1
_geom_bond_atom_site_label_2
_geom_bond_site_symmetry_1
_geom_bond_site_symmetry_2
Zn1 F1 1_555 1_555
Si1 F1 1_555 1_555
N1 Zn1 1_555 1_555
F2 Si1 1_555 1_555
C1 N1 1_555 1_555
H1 C1 1_555 1_555
C2 C1 1_555 1_555
H2 C2 1_555 1_555
C3 C2 1_555 1_555
C4 C3 1_555 1_555
C5 C4 1_555 1_555
C6 C5 1_555 1_555
C7 C6 1_555 1_555
H3 C7 1_555 1_555
C8 C7 1_555 1_555
H4 C8 1_555 1_555
C9 C8 1_555 1_555
F2A Si1 1_555 1_555
F2B Si1 1_555 1_555
F2C Si1 1_555 1_555
F1D Si1 1_555 1_555
N1B C1B 1_555 1_555
C1B H1B 1_555 1_555
C2B C1B 1_555 1_555
H2B C2B 1_555 1_555
C3B C2B 1_555 1_555
C4B C3B 1_555 1_555
C5B C4B 1_555 1_555
C6B C5B 1_555 1_555
C7B C6B 1_555 1_555
H3B C7B 1_555 1_555
C8B C7B 1_555 1_555
H4B C8B 1_555 1_555
C9B C9 1_555 1_555
C1D N1B 1_555 1_555
H1D C1D 1_555 1_555
C2D C3B 1_555 1_555
H2D C2D 1_555 1_555
C7D C6B 1_555 1_555
H3D C7D 1_555 1_555
C8D C9B 1_555 1_555
H4D C8D 1_555 1_555
C1E N1 1_555 1_555
H1E C1E 1_555 1_555
C2E C3 1_555 1_555
H2E C2E 1_555 1_555
C7E C6 1_555 1_555
H3E C7E 1_555 1_555
C8E C9 1_555 1_555
H4E C8E 1_555 1_555
C1P N1B 1_555 1_555
H1P C1P 1_555 1_555
C2P C3B 1_555 1_555
H2P C2P 1_555 1_555
C7P C6B 1_555 1_555
H3P C7P 1_555 1_555
C8P C7B 1_555 1_555
H4P C8P 1_555 1_555
C1R N1 1_555 1_555
H1R C1R 1_555 1_555
C2R C3 1_555 1_555
H2R C2R 1_555 1_555
C7R C6 1_555 1_555
H3R C7R 1_555 1_555
C8R C7 1_555 1_555
H4R C8R 1_555 1_555
C1T N1 1_555 1_555
H1T C1T 1_555 1_555
C2T C2 1_555 1_555
H2T C2T 1_555 1_555
C7T C6 1_555 1_555
H3T C7T 1_555 1_555
C8T C9 1_555 1_555
H4T C8T 1_555 1_555
C1U N1B 1_555 1_555
H1U C1U 1_555 1_555
C2U C2B 1_555 1_555
H2U C2U 1_555 1_555
C7U C6B 1_555 1_555
H3U C7U 1_555 1_555
C8U C9B 1_555 1_555
H4U C8U 1_555 1_555
N1A C1A 1_555 1_555
C1A H1A 1_555 1_555
C2A C1A 1_555 1_555
H2A C2A 1_555 1_555
C3A C2A 1_555 1_555
C4A C3A 1_555 1_555
C5A C4A 1_555 1_555
C6A C5A 1_555 1_555
C7A C6A 1_555 1_555
H3A C7A 1_555 1_555
C8A C7A 1_555 1_555
H4A C8A 1_555 1_555
C9A C8A 1_555 1_555
N1C Zn1 1_555 1_555
C1C N1C 1_555 1_555
H1C C1C 1_555 1_555
C2C C1C 1_555 1_555
H2C C2C 1_555 1_555
C3C C2C 1_555 1_555
C4C C3C 1_555 1_555
C5C C4C 1_555 1_555
C6C C5C 1_555 1_555
C7C C6C 1_555 1_555
H3C C7C 1_555 1_555
C8C C7C 1_555 1_555
H4C C8C 1_555 1_555
C9C C9A 1_555 1_555
C1F N1C 1_555 1_555
H1F C1F 1_555 1_555
C2F C3C 1_555 1_555
H2F C2F 1_555 1_555
C7F C6C 1_555 1_555
H3F C7F 1_555 1_555
C8F C9C 1_555 1_555
H4F C8F 1_555 1_555
C1G N1A 1_555 1_555
H1G C1G 1_555 1_555
C2G C3A 1_555 1_555
H2G C2G 1_555 1_555
C7G C6A 1_555 1_555
H3G C7G 1_555 1_555
C8G C9A 1_555 1_555
H4G C8G 1_555 1_555
C1Q N1C 1_555 1_555
H1Q C1Q 1_555 1_555
C2Q C3C 1_555 1_555
H2Q C2Q 1_555 1_555
C7Q C6C 1_555 1_555
H3Q C7Q 1_555 1_555
C8Q C7C 1_555 1_555
H4Q C8Q 1_555 1_555
C1S N1A 1_555 1_555
H1S C1S 1_555 1_555
C2S C3A 1_555 1_555
H2S C2S 1_555 1_555
C7S C6A 1_555 1_555
H3S C7S 1_555 1_555
C8S C7A 1_555 1_555
H4S C8S 1_555 1_555
C1V N1A 1_555 1_555
H1V C1V 1_555 1_555
C2V C2A 1_555 1_555
H2V C2V 1_555 1_555
C7V C6A 1_555 1_555
H3V C7V 1_555 1_555
C8V C9A 1_555 1_555
H4V C8V 1_555 1_555
C1W N1C 1_555 1_555
H1W C1W 1_555 1_555
C2W C2C 1_555 1_555
H2W C2W 1_555 1_555
C7W C6C 1_555 1_555
H3W C7W 1_555 1_555
C8W C9C 1_555 1_555
H4W C8W 1_555 1_555
Zn1_2 N1A 1_555 1_555
Zn1_3 N1B 1_555 1_555
Zn1_4 F1D 1_555 1_555
F1D_2 Zn1 1_555 1_555
N1A_2 Zn1 1_555 1_555
N1B_2 Zn1 1_555 1_555
C1 C1T 1_555 1_555
C3 C2T 1_555 1_555
C7 C7R 1_555 1_555
C8 C7R 1_555 1_555
C8 C8R 1_555 1_555
C9 C8R 1_555 1_555
C1B C1U 1_555 1_555
C3B C2U 1_555 1_555
C7B C7P 1_555 1_555
C8B C9B 1_555 1_555
C8B C7P 1_555 1_555
C8B C8P 1_555 1_555
C9B C8P 1_555 1_555
C1D C2D 1_555 1_555
C1D C1P 1_555 1_555
C2D C2P 1_555 1_555
C7D C8D 1_555 1_555
C7D C7U 1_555 1_555
C7D C8U 1_555 1_555
C8D C7U 1_555 1_555
C8D C8U 1_555 1_555
C1E C2E 1_555 1_555
C1E C1R 1_555 1_555
C2E C2R 1_555 1_555
C7E C8E 1_555 1_555
C7E C7T 1_555 1_555
C7E C8T 1_555 1_555
C8E C7T 1_555 1_555
C8E C8T 1_555 1_555
C1P C2P 1_555 1_555
C7P C8P 1_555 1_555
C1R C2R 1_555 1_555
C7R C8R 1_555 1_555
C1T C2T 1_555 1_555
C7T C8T 1_555 1_555
C1U C2U 1_555 1_555
C7U C8U 1_555 1_555
C1A C1V 1_555 1_555
C3A C2V 1_555 1_555
C7A C7S 1_555 1_555
C8A C7S 1_555 1_555
C8A C8S 1_555 1_555
C9A C8S 1_555 1_555
C1C C1W 1_555 1_555
C3C C2W 1_555 1_555
C7C C7Q 1_555 1_555
C8C C9C 1_555 1_555
C8C C7Q 1_555 1_555
C8C C8Q 1_555 1_555
C9C C8Q 1_555 1_555
C1F C2F 1_555 1_555
C1F C1Q 1_555 1_555
C2F C2Q 1_555 1_555
C7F C8F 1_555 1_555
C7F C7W 1_555 1_555
C7F C8W 1_555 1_555
C8F C7W 1_555 1_555
C8F C8W 1_555 1_555
C1G C2G 1_555 1_555
C1G C1S 1_555 1_555
C2G C2S 1_555 1_555
C7G C8G 1_555 1_555
C7G C7V 1_555 1_555
C7G C8V 1_555 1_555
C8G C7V 1_555 1_555
C8G C8V 1_555 1_555
C1Q C2Q 1_555 1_555
C7Q C8Q 1_555 1_555
C1S C2S 1_555 1_555
C7S C8S 1_555 1_555
C1V C2V 1_555 1_555
C7V C8V 1_555 1_555
C1W C2W 1_555 1_555
C7W C8W 1_555 1_555

#END
