
#######################################################################
#
#                 Cambridge Crystallographic Data Centre
#                                CCDC 
#
#######################################################################
#
# If this CIF has been generated from an entry in the Cambridge 
# Structural Database, then it will include bibliographic, chemical, 
# crystal, experimental, refinement or atomic coordinate data resulting 
# from the CCDC's data processing and validation procedures.
#
#######################################################################

data_LIBZIG
_chemical_formula_moiety         '(C15 H21 N1 O17 Tb2)n'
_symmetry_cell_setting           monoclinic
_symmetry_space_group_name_H-M   'C 2/c'
_symmetry_Int_Tables_number      15
_space_group_name_Hall           '-C 2yc'
loop_
_symmetry_equiv_pos_site_id
_symmetry_equiv_pos_as_xyz
1 x,y,z
2 1/2+x,1/2+y,z
3 -x,y,1/2-z
4 1/2-x,1/2+y,1/2-z
5 -x,-y,-z
6 1/2-x,1/2-y,-z
7 x,-y,1/2+z
8 1/2+x,1/2-y,1/2+z
_cell_length_a                   16.422(7)
_cell_length_b                   18.079(9)
_cell_length_c                   9.631(3)
_cell_angle_alpha                90
_cell_angle_beta                 96.71(2)
_cell_angle_gamma                90
_cell_volume                     2839.79
loop_
_atom_site_label
_atom_site_type_symbol
_atom_site_fract_x
_atom_site_fract_y
_atom_site_fract_z
Tb1 Tb 0.249656(9) 0.513399(10) 0.532361(16)
O1 O 0.1979(2) 0.39360(17) 0.6023(3)
O2 O 0.2915(2) 0.38392(18) 0.4586(3)
O3 O 0.17932(18) 0.48211(16) 0.3139(3)
O4 O 0.11733(17) 0.4629(2) 0.1016(3)
O5 O 0.37118(18) 0.5345(2) 0.4357(3)
O6 O 0.3464(2) 0.5227(2) 0.2084(4)
O7 O 0.2183(2) 0.62429(19) 0.3923(3)
H1 H 0.1824 0.6497 0.4280
H2 H 0.1998 0.6120 0.3094
O8 O 0.2793(2) 0.6243(2) 0.6683(3)
H3 H 0.2719 0.6161 0.7529
H4 H 0.2476 0.6588 0.6356
C1 C 0.2425(3) 0.3550(3) 0.5333(4)
C2 C 0.2349(3) 0.2732(3) 0.5425(5)
H5 H 0.2071 0.2538 0.6130
C3 C 0.1155(2) 0.4720(2) 0.2303(4)
C4 C 0.0356(2) 0.4703(2) 0.2891(4)
H6 H 0.0360 0.4692 0.3858
C5 C 0.3937(2) 0.5284(2) 0.3161(4)
C6 C 0.4842(2) 0.5294(3) 0.3090(4)
H7 H 0.5193 0.5301 0.3921
Tb1E Tb 0.250344(9) -0.013399(10) 0.467639(16)
Tb1F Tb 0.249656(9) 0.486601(10) 0.032361(16)
Tb1B Tb -0.249656(9) 0.513399(10) -0.032361(16)
Tb1D Tb -0.249656(9) 0.486601(10) 0.467639(16)
Tb1B_2 Tb 0.750344(9) 0.513399(10) -0.032361(16)
Tb1D_2 Tb 0.750344(9) 0.486601(10) 0.467639(16)
O1E O 0.3021(2) 0.10640(17) 0.3977(3)
O2E O 0.2085(2) 0.11608(18) 0.5414(3)
O3B O -0.17932(18) 0.48211(16) 0.1861(3)
O3E O 0.32068(18) 0.01789(16) 0.6861(3)
O4B O -0.11733(17) 0.4629(2) 0.3984(3)
O4F O 0.11733(17) 0.5371(2) 0.6016(3)
O4C O 0.38267(17) -0.0371(2) 0.3984(3)
O5B O 0.62882(18) 0.5345(2) 0.0643(3)
O5E O 0.12882(18) -0.0345(2) 0.5643(3)
O6B O 0.6536(2) 0.5227(2) 0.2916(4)
O6F O 0.3464(2) 0.4773(2) 0.7084(4)
O6C O 0.1536(2) 0.0227(2) 0.2916(4)
O7E O 0.2817(2) -0.12429(19) 0.6077(3)
H1E H 0.3176 -0.1497 0.5720
H2E H 0.3002 -0.1120 0.6906
O8E O 0.2207(2) -0.1243(2) 0.3317(3)
H3E H 0.2281 -0.1161 0.2471
H4E H 0.2524 -0.1588 0.3644
C1E C 0.2575(3) 0.1450(3) 0.4667(4)
C2E C 0.2651(3) 0.2268(3) 0.4575(5)
H5E H 0.2929 0.2462 0.3870
C3B C -0.1155(2) 0.4720(2) 0.2697(4)
C4B C -0.0356(2) 0.4703(2) 0.2109(4)
H6B H -0.0360 0.4692 0.1142
C5B C 0.6063(2) 0.5284(2) 0.1839(4)
C6B C 0.5158(2) 0.5294(3) 0.1910(4)
H7B H 0.4807 0.5301 0.1079
O9 O 0.1403(7) 0.7579(6) 0.4186(12)
N1 N 0.0307(8) 0.7442(7) 0.5318(15)
C7 C 0.1038(8) 0.7781(8) 0.5176(15)
H8 H 0.1251 0.8146 0.5794
C8 C -0.0004(12) 0.6870(13) 0.433(3)
H9 H -0.0517 0.6688 0.4573
H10 H 0.0384 0.6471 0.4359
H11 H -0.0082 0.7074 0.3403
C9 C -0.0167(14) 0.7637(14) 0.645(2)
H12 H -0.0655 0.7341 0.6385
H13 H -0.0315 0.8151 0.6375
loop_
_geom_bond_atom_site_label_1
_geom_bond_atom_site_label_2
_geom_bond_site_symmetry_1
_geom_bond_site_symmetry_2
Tb1 O1 1_555 1_555
O1 C1 1_555 1_555
O2 Tb1 1_555 1_555
O3 Tb1 1_555 1_555
O4 C3 1_555 1_555
O5 Tb1 1_555 1_555
O6 C5 1_555 1_555
O7 Tb1 1_555 1_555
H1 O7 1_555 1_555
H2 O7 1_555 1_555
O8 Tb1 1_555 1_555
H3 O8 1_555 1_555
H4 O8 1_555 1_555
C1 O2 1_555 1_555
C2 C1 1_555 1_555
H5 C2 1_555 1_555
C3 O3 1_555 1_555
C4 C3 1_555 1_555
H6 C4 1_555 1_555
C5 O5 1_555 1_555
C6 C5 1_555 1_555
H7 C6 1_555 1_555
O9 C7 1_555 1_555
N1 C7 1_555 1_555
C7 H8 1_555 1_555
C8 N1 1_555 1_555
H9 C8 1_555 1_555
H10 C8 1_555 1_555
H11 C8 1_555 1_555
C9 N1 1_555 1_555
H12 C9 1_555 1_555
H13 C9 1_555 1_555
Tb1E O1E 1_555 1_555
Tb1F O4 1_555 1_555
Tb1B O3B 1_555 1_555
Tb1D O4B 1_555 1_555
Tb1B_2 O5B 1_555 1_555
Tb1D_2 O6B 1_555 1_555
O1E C1E 1_555 1_555
O2E Tb1E 1_555 1_555
O3B C3B 1_555 1_555
O3E Tb1E 1_555 1_555
O4B C3B 1_555 1_555
O4F Tb1 1_555 1_555
O4C Tb1E 1_555 1_555
O5B C5B 1_555 1_555
O5E Tb1E 1_555 1_555
O6B C5B 1_555 1_555
O6F Tb1 1_555 1_555
O6C Tb1E 1_555 1_555
O7E Tb1E 1_555 1_555
H1E O7E 1_555 1_555
H2E O7E 1_555 1_555
O8E Tb1E 1_555 1_555
H3E O8E 1_555 1_555
H4E O8E 1_555 1_555
C1E O2E 1_555 1_555
C2E C2 1_555 1_555
H5E C2E 1_555 1_555
C3B C4B 1_555 1_555
C4B C4 1_555 1_555
H6B C4B 1_555 1_555
C5B C6B 1_555 1_555
C6B C6 1_555 1_555
H7B C6B 1_555 1_555
O6 Tb1F 1_555 1_555
C1E C2E 1_555 1_555

#END
