
#######################################################################
#
#                 Cambridge Crystallographic Data Centre
#                                CCDC 
#
#######################################################################
#
# If this CIF has been generated from an entry in the Cambridge 
# Structural Database, then it will include bibliographic, chemical, 
# crystal, experimental, refinement or atomic coordinate data resulting 
# from the CCDC's data processing and validation procedures.
#
#######################################################################

data_FAZPED
_chemical_formula_moiety         '(C12 H10 Cl1 Co2 N5 O5)n'
_symmetry_cell_setting           rhombohedral
_symmetry_space_group_name_H-M   'R -3'
_symmetry_Int_Tables_number      148
_space_group_name_Hall           '-R 3'
loop_
_symmetry_equiv_pos_site_id
_symmetry_equiv_pos_as_xyz
1 x,y,z
2 -y,x-y,z
3 -x+y,-x,z
4 2/3+x,1/3+y,1/3+z
5 2/3-y,1/3+x-y,1/3+z
6 2/3-x+y,1/3-x,1/3+z
7 1/3+x,2/3+y,2/3+z
8 1/3-y,2/3+x-y,2/3+z
9 1/3-x+y,2/3-x,2/3+z
10 -x,-y,-z
11 y,-x+y,-z
12 x-y,x,-z
13 1/3-x,2/3-y,2/3-z
14 1/3+y,2/3-x+y,2/3-z
15 1/3+x-y,2/3+x,2/3-z
16 2/3-x,1/3-y,1/3-z
17 2/3+y,1/3-x+y,1/3-z
18 2/3+x-y,1/3+x,1/3-z
_cell_length_a                   27.518(4)
_cell_length_b                   27.518(4)
_cell_length_c                   12.172(2)
_cell_angle_alpha                90
_cell_angle_beta                 90
_cell_angle_gamma                120
_cell_volume                     7982.27
loop_
_atom_site_label
_atom_site_type_symbol
_atom_site_fract_x
_atom_site_fract_y
_atom_site_fract_z
Co1 Co 0.16463(4) 0.88202(4) 0.90513(7)
Co2 Co 0.14428(5) 0.89553(4) 0.64462(9)
O1 O 0.1922(2) 0.9657(2) 0.8795(4)
O2 O 0.2434(2) 0.9100(2) 0.9747(4)
O3 O 0.1771(2) 0.9750(2) 0.7026(4)
O4 O 0.2356(3) 0.8462(2) 1.0967(4)
N1 N 0.4039(3) 0.9382(3) 1.1728(5)
N2 N 0.2417(2) 1.1293(2) 0.9442(5)
C1 C 0.3256(3) 0.9255(3) 1.0657(6)
C2 C 0.3488(3) 0.9108(3) 1.1518(6)
H1 H 0.3251 0.8807 1.1964
C3 C 0.2042(3) 1.0523(3) 0.8193(6)
N3 N 0.1955(2) 0.8731(2) 0.7438(5)
C4 C 0.4169(4) 0.9977(3) 1.0208(7)
H2 H 0.4415 1.0277 0.9767
N4 N 0.2463(3) 0.9072(3) 0.7356(6)
C5 C 0.2259(3) 1.0760(3) 0.9199(6)
H3 H 0.2299 1.0541 0.9733
C6 C 0.2324(3) 1.1590(3) 0.8690(6)
H4 H 0.2415 1.1956 0.8859
C7 C 0.2624(3) 0.8912(3) 1.0441(6)
C8 C 0.1958(3) 1.0835(3) 0.7413(6)
H5 H 0.1808 1.0685 0.6729
C9 C 0.3602(3) 0.9701(3) 0.9998(6)
H6 H 0.3456 0.9812 0.9424
C10 C 0.1896(3) 0.9922(3) 0.7993(6)
C11 C 0.2104(4) 1.1379(4) 0.7681(7)
H7 H 0.2052 1.1601 0.7173
C12 C 0.4371(3) 0.9808(3) 1.1078(6)
H8 H 0.4755 1.0001 1.1215
N5 N 0.2922(5) 0.9370(4) 0.7312(9)
Cl1 Cl 0.07789(10) 0.86087(10) 0.80350(19)
Co1K Co 0.28261(6) 1.16463(4) 1.09487(7)
Co1L Co 0.16870(4) 0.78465(4) 0.76154(7)
Co2L Co 0.18905(5) 0.77114(4) 1.02205(9)
Co2G Co 0.43780(4) 0.91542(6) 1.31129(9)
O4L O 0.0977(3) 0.8205(2) 0.5700(4)
N1E N 0.2010(4) 0.9294(3) 0.5061(5)
N2J N 0.1293(2) 0.8876(3) 1.0558(5)
N3L N 0.1378(2) 0.7936(2) 0.9229(5)
O5 O 0.0727(8) 0.9158(5) 0.5570(8)
loop_
_geom_bond_atom_site_label_1
_geom_bond_atom_site_label_2
_geom_bond_site_symmetry_1
_geom_bond_site_symmetry_2
Co1 O1 1_555 1_555
Co2 O3 1_555 1_555
O1 C10 1_555 1_555
O2 Co1 1_555 1_555
O3 C10 1_555 1_555
O4 C7 1_555 1_555
N1 C2 1_555 1_555
N2 C5 1_555 1_555
C1 C2 1_555 1_555
C2 H1 1_555 1_555
C3 C5 1_555 1_555
N3 Co1 1_555 1_555
C4 H2 1_555 1_555
N4 N3 1_555 1_555
C5 H3 1_555 1_555
C6 N2 1_555 1_555
H4 C6 1_555 1_555
C7 O2 1_555 1_555
C8 C3 1_555 1_555
H5 C8 1_555 1_555
C9 C1 1_555 1_555
H6 C9 1_555 1_555
C10 C3 1_555 1_555
C11 C6 1_555 1_555
H7 C11 1_555 1_555
C12 N1 1_555 1_555
H8 C12 1_555 1_555
N5 N4 1_555 1_555
Cl1 Co1 1_555 1_555
Co1K N2 1_555 1_555
Co1L N3 1_555 1_555
Co2L O4 1_555 1_555
Co2G N1 1_555 1_555
O4L Co2 1_555 1_555
N1E Co2 1_555 1_555
N2J Co1 1_555 1_555
N3L Co1 1_555 1_555
Co2 N3 1_555 1_555
Co2 Cl1 1_555 1_555
C1 C7 1_555 1_555
C4 C9 1_555 1_555
C4 C12 1_555 1_555
C8 C11 1_555 1_555
Co1L N3L 1_555 1_555
Co2L N3L 1_555 1_555

#END
