
#######################################################################
#
#                 Cambridge Crystallographic Data Centre
#                                CCDC 
#
#######################################################################
#
# If this CIF has been generated from an entry in the Cambridge 
# Structural Database, then it will include bibliographic, chemical, 
# crystal, experimental, refinement or atomic coordinate data resulting 
# from the CCDC's data processing and validation procedures.
#
#######################################################################

data_GAXDIS10
_chemical_formula_moiety         'C38 Cd11 Cl3 N22'
_symmetry_cell_setting           orthorhombic
_symmetry_space_group_name_H-M   'P n 21 m'
_symmetry_Int_Tables_number      31
_space_group_name_Hall           'P -2 -2bc'
loop_
_symmetry_equiv_pos_site_id
_symmetry_equiv_pos_as_xyz
1 x,y,z
2 x,y,-z
3 -x,1/2+y,1/2+z
4 -x,1/2+y,1/2-z
_cell_length_a                   11.026(5)
_cell_length_b                   13.54(1)
_cell_length_c                   8.721(2)
_cell_angle_alpha                90
_cell_angle_beta                 90
_cell_angle_gamma                90
_cell_volume                     1301.98
loop_
_atom_site_label
_atom_site_type_symbol
_atom_site_fract_x
_atom_site_fract_y
_atom_site_fract_z
Cd1 Cd 0.23232(6) 0.00000 0.0000
Cd2 Cd -0.06947(7) -0.10251(8) 0.5000
Cd3 Cd 0.51337(7) 0.13535(8) 0.5000
N1 N 0.1002(6) -0.0460(5) 0.1907(7)
N2 N 0.3653(6) 0.0583(6) 0.1913(7)
N3 N 0.1493(8) 0.1615(6) 0.0000
N4 N 0.3337(7) -0.1492(7) 0.0000
C1 C 0.0412(6) -0.0656(6) 0.2915(7)
C2 C 0.4182(6) 0.0873(6) 0.2914(8)
C3 C 0.1189(8) 0.2406(7) 0.0000
C4 C 0.3839(8) -0.2230(7) 0.0000
C5 C -0.2440(9) -0.0179(8) 0.5000
C6 C 0.6741(7) 0.0318(8) 0.5000
N1A N 0.1002(6) -0.0460(5) -0.1907(7)
N2A N 0.3653(6) 0.0583(6) -0.1913(7)
C1A C 0.0412(6) -0.0656(6) 0.7085(7)
C3B C -0.1189(8) -0.2594(7) 0.5000
C2A C 0.4182(6) 0.0873(6) 0.7086(8)
C4B C 0.6161(8) 0.2770(7) 0.5000
Cd2B Cd 0.06947(7) 0.39749(8) 0.0000
Cd3B Cd 0.48663(7) -0.36465(8) 0.0000
C6_2 C -0.3259(7) 0.0318(8) 0.5000
C5_2 C 0.7560(9) -0.0179(8) 0.5000
C1A_2 C 0.0412(6) -0.0656(6) -0.2915(7)
C2A_2 C 0.4182(6) 0.0873(6) -0.2914(8)
N1A_2 N 0.1002(6) -0.0460(5) 0.8093(7)
N3B N -0.1493(8) -0.3385(6) 0.5000
N2A_2 N 0.3653(6) 0.0583(6) 0.8087(7)
N4B N 0.6663(7) 0.3508(7) 0.5000
C1B C -0.0412(6) 0.4344(6) -0.2085(7)
C1C C -0.0412(6) 0.4344(6) 0.2085(7)
C5B C 0.2440(9) 0.4821(8) 0.0000
C2B C 0.5818(6) -0.4127(6) -0.2086(8)
C2C C 0.5818(6) -0.4127(6) 0.2086(8)
C6B C 0.3259(7) -0.4682(8) 0.0000
Cd1B Cd -0.23232(6) -0.50000 0.5000
Cd1B_2 Cd 0.76768(6) 0.50000 0.5000
N1B N -0.1002(6) 0.4540(5) -0.3093(7)
N1C N -0.1002(6) 0.4540(5) 0.3093(7)
C6B_2 C 0.3259(7) 0.5318(8) 0.0000
N2B N 0.6347(6) -0.4417(6) -0.3087(7)
N2C N 0.6347(6) -0.4417(6) 0.3087(7)
C5B_2 C 0.2440(9) -0.5179(8) 0.0000
N1B_2 N -0.1002(6) -0.5460(5) 0.6907(7)
N1C_2 N -0.1002(6) -0.5460(5) 0.3093(7)
N2B_2 N -0.3653(6) -0.4417(6) 0.6913(7)
N2C_2 N -0.3653(6) -0.4417(6) 0.3087(7)
N4B_2 N -0.3337(7) -0.6492(7) 0.5000
Cd1B_3 Cd -0.23232(6) 0.50000 -0.5000
Cd1B_4 Cd -0.23232(6) 0.50000 0.5000
Cd1B_5 Cd 0.76768(6) -0.50000 -0.5000
Cd1B_6 Cd 0.76768(6) -0.50000 0.5000
Cl1 Cl -0.0416(6) 0.1751(6) 0.5000
Cl2 Cl 0.2984(6) 0.3138(6) 0.4417(9)
C7 C 0.107(1) 0.237(1) 0.427(1)
C8 C 0.169(1) 0.280(1) 0.447(1)
C7A C 0.107(1) 0.237(1) 0.573(1)
C8A C 0.169(1) 0.280(1) 0.553(1)
Cl2A Cl 0.2984(6) 0.3138(6) 0.5583(9)
N5 N 0.299(1) 0.863(1) 0.5000
N6 N 0.553(1) 0.855(1) 0.5000
C9 C 0.4250(9) 0.821(1) 0.5000
C10 C 0.513(1) 0.735(1) 0.5000
C11 C 0.302(1) 0.840(1) 0.423(1)
C12 C 0.380(1) 0.713(1) 0.467(1)
C13 C 0.297(1) 0.730(1) 0.378(1)
N7 N 0.2579(9) 0.667(1) 0.5000
C14 C 0.193(1) 0.663(1) 0.350(1)
C15 C 0.213(1) 0.587(1) 0.404(1)
C11A C 0.302(1) 0.840(1) 0.577(1)
C12A C 0.380(1) 0.713(1) 0.533(1)
C13A C 0.297(1) 0.730(1) 0.622(1)
C14A C 0.193(1) 0.663(1) 0.650(1)
C15A C 0.213(1) 0.587(1) 0.596(1)
loop_
_geom_bond_atom_site_label_1
_geom_bond_atom_site_label_2
_geom_bond_site_symmetry_1
_geom_bond_site_symmetry_2
Cd1 N1 1_555 1_555
Cd2 C1 1_555 1_555
Cd3 C2 1_555 1_555
N1 C1 1_555 1_555
N2 Cd1 1_555 1_555
N3 Cd1 1_555 1_555
N4 Cd1 1_555 1_555
C2 N2 1_555 1_555
C3 N3 1_555 1_555
C4 N4 1_555 1_555
C5 Cd2 1_555 1_555
C6 Cd3 1_555 1_555
Cl1 C7 1_555 1_555
Cl2 C8 1_555 1_555
C7 C8 1_555 1_555
C8 C7A 1_555 1_555
N5 C9 1_555 1_555
N6 C9 1_555 1_555
C9 C10 1_555 1_555
C10 N6 1_555 1_555
C11 N5 1_555 1_555
C12 C9 1_555 1_555
C13 C11 1_555 1_555
N7 C12 1_555 1_555
C14 C13 1_555 1_555
C15 N7 1_555 1_555
N1A Cd1 1_555 1_555
N2A Cd1 1_555 1_555
C1A Cd2 1_555 1_555
C3B Cd2 1_555 1_555
C2A Cd3 1_555 1_555
C4B Cd3 1_555 1_555
Cd2B C3 1_555 1_555
Cd3B C4 1_555 1_555
C6_2 C5 1_555 1_555
C5_2 C6 1_555 1_555
C1A_2 N1A 1_555 1_555
C2A_2 N2A 1_555 1_555
N1A_2 C1A 1_555 1_555
N3B C3B 1_555 1_555
N2A_2 C2A 1_555 1_555
N4B C4B 1_555 1_555
C1B Cd2B 1_555 1_555
C1C Cd2B 1_555 1_555
C5B Cd2B 1_555 1_555
C2B Cd3B 1_555 1_555
C2C Cd3B 1_555 1_555
C6B Cd3B 1_555 1_555
Cd1B N3B 1_555 1_555
Cd1B_2 N4B 1_555 1_555
N1B C1B 1_555 1_555
N1C C1C 1_555 1_555
C6B_2 C5B 1_555 1_555
N2B C2B 1_555 1_555
N2C C2C 1_555 1_555
C5B_2 C6B 1_555 1_555
N1B_2 Cd1B 1_555 1_555
N1C_2 Cd1B 1_555 1_555
N2B_2 Cd1B 1_555 1_555
N2C_2 Cd1B 1_555 1_555
N4B_2 Cd1B 1_555 1_555
Cd1B_3 N1B 1_555 1_555
Cd1B_4 N1C 1_555 1_555
Cd1B_5 N2B 1_555 1_555
Cd1B_6 N2C 1_555 1_555
C7A Cl1 1_555 1_555
C8A Cl2 1_555 1_555
Cl2A Cl2 1_555 1_555
C11A N5 1_555 1_555
C12A C9 1_555 1_555
C13A C12 1_555 1_555
C14A N7 1_555 1_555
C15A N7 1_555 1_555
C7 C7A 1_555 1_555
C7 C8A 1_555 1_555
C8 C8A 1_555 1_555
C8 Cl2A 1_555 1_555
C9 C11 1_555 1_555
C9 C11A 1_555 1_555
C10 C12 1_555 1_555
C10 C12A 1_555 1_555
C11 C11A 1_555 1_555
C12 C13 1_555 1_555
C12 C12A 1_555 1_555
C13 N7 1_555 1_555
C13 C12A 1_555 1_555
N7 C14 1_555 1_555
N7 C12A 1_555 1_555
N7 C13A 1_555 1_555
C14 C15 1_555 1_555
C15 C15A 1_555 1_555
C7A C8A 1_555 1_555
C8A Cl2A 1_555 1_555
C11A C13A 1_555 1_555
C12A C13A 1_555 1_555
C13A C14A 1_555 1_555
C14A C15A 1_555 1_555

#END
