
#######################################################################
#
#                 Cambridge Crystallographic Data Centre
#                                CCDC 
#
#######################################################################
#
# If this CIF has been generated from an entry in the Cambridge 
# Structural Database, then it will include bibliographic, chemical, 
# crystal, experimental, refinement or atomic coordinate data resulting 
# from the CCDC's data processing and validation procedures.
#
#######################################################################

data_YIWLEV
_chemical_formula_moiety         'C20 H12 Cd8 N19 1+'
_symmetry_cell_setting           rhombohedral
_symmetry_space_group_name_H-M   'R -3 m'
_symmetry_Int_Tables_number      166
_space_group_name_Hall           '-R 3 2"'
loop_
_symmetry_equiv_pos_site_id
_symmetry_equiv_pos_as_xyz
1 x,y,z
2 -y,x-y,z
3 y,x,-z
4 -x+y,-x,z
5 -x,-x+y,-z
6 x-y,-y,-z
7 1/3+x,2/3+y,2/3+z
8 1/3-y,2/3+x-y,2/3+z
9 1/3+y,2/3+x,2/3-z
10 1/3-x+y,2/3-x,2/3+z
11 1/3-x,2/3-x+y,2/3-z
12 1/3+x-y,2/3-y,2/3-z
13 2/3+x,1/3+y,1/3+z
14 2/3-y,1/3+x-y,1/3+z
15 2/3+y,1/3+x,1/3-z
16 2/3-x+y,1/3-x,1/3+z
17 2/3-x,1/3-x+y,1/3-z
18 2/3+x-y,1/3-y,1/3-z
19 -x,-y,-z
20 y,-x+y,-z
21 -y,-x,z
22 x-y,x,-z
23 x,x-y,z
24 -x+y,y,z
25 2/3-x,1/3-y,1/3-z
26 2/3+y,1/3-x+y,1/3-z
27 2/3-y,1/3-x,1/3+z
28 2/3+x-y,1/3+x,1/3-z
29 2/3+x,1/3+x-y,1/3+z
30 2/3-x+y,1/3+y,1/3+z
31 1/3-x,2/3-y,2/3-z
32 1/3+y,2/3-x+y,2/3-z
33 1/3-y,2/3-x,2/3+z
34 1/3+x-y,2/3+x,2/3-z
35 1/3+x,2/3+x-y,2/3+z
36 1/3-x+y,2/3+y,2/3+z
_cell_length_a                   8.849(1)
_cell_length_b                   8.849(1)
_cell_length_c                   31.086(3)
_cell_angle_alpha                90
_cell_angle_beta                 90
_cell_angle_gamma                120
_cell_volume                     2108.06
loop_
_atom_site_label
_atom_site_type_symbol
_atom_site_fract_x
_atom_site_fract_y
_atom_site_fract_z
Cd1 Cd 0.00000 0.00000 0.00000
Cd2 Cd 0.33333 -0.33333 0.07652(4)
C3 C 0.33333 -0.33333 0.1468(4)
N2 N 0.1276(7) -0.1276(7) 0.0412(4)
C4 C 0.1963(8) -0.1963(8) 0.0553(4)
C3N C 0.33334 -0.33334 0.1865(4)
Cd2N Cd 0.33334 -0.33334 0.25681(4)
C4N C 0.4704(8) -0.4704(8) 0.2780(4)
N2N N 0.5391(7) -0.5391(7) 0.2921(4)
Cd1N Cd 0.66667 -0.66667 0.33333
N2Q N 0.9219(10) -0.5391(7) 0.2921(4)
C4Q C 1.0593(11) -0.4704(8) 0.2780(4)
Cd2Q Cd 1.33333 -0.33334 0.25681(4)
C3Q C 1.33333 -0.33334 0.1865(4)
C4P C 1.4704(8) -0.0593(11) 0.2780(4)
N2P N 1.5391(7) 0.0781(10) 0.2921(4)
Cd1P Cd 1.66667 0.33333 0.33333
N2N_2 N 1.5391(7) 0.4609(7) 0.2921(4)
N2M N 1.7943(7) 0.5885(10) 0.3745(4)
C4M C 1.8630(8) 0.7259(11) 0.3886(4)
Cd2M Cd 2.00000 0.99999 0.40985(4)
C3M C 2.00000 0.99999 0.4801(4)
C4O C 2.2741(11) 1.1370(8) 0.3886(4)
N2O N 2.4115(10) 1.2057(7) 0.3745(4)
Cd1O Cd 2.66667 1.33333 0.33333
N2L N 2.7943(7) 1.2057(7) 0.3745(4)
N2Q_2 N 2.9219(10) 1.4609(7) 0.2921(4)
N2M_2 N 2.7943(7) 1.5885(10) 0.3745(4)
N2N_3 N 2.5391(7) 1.4609(7) 0.2921(4)
N2P_2 N 2.5391(7) 1.0781(10) 0.2921(4)
C4L C 1.8630(8) 1.1370(8) 0.3886(4)
N2Q_3 N 1.9219(10) 0.4609(7) 0.2921(4)
N2L_2 N 1.7943(7) 0.2057(7) 0.3745(4)
N2O_2 N 1.4115(10) 0.2057(7) 0.3745(4)
C4N_2 C 1.4704(8) -0.4704(8) 0.2780(4)
N2P_3 N 0.5391(7) -0.9219(10) 0.2921(4)
N2O_3 N 0.4115(10) -0.7943(7) 0.3745(4)
N2M_3 N 0.7943(7) -0.4115(10) 0.3745(4)
C4Q_2 C 0.0593(11) -0.4704(8) 0.2780(4)
C4P_2 C 0.4704(8) -0.0593(11) 0.2780(4)
C4A C 0.1963(8) -0.6074(11) 0.0553(4)
C4C C 0.6074(11) -0.1963(8) 0.0553(4)
N1 N -0.00000 -0.00000 0.246(1)
C1 C -0.00000 0.00000 0.290(1)
C2 C 0.083(2) -0.083(2) 0.223(2)
C2A C 0.083(2) 0.166(3) 0.223(2)
C2C C -0.166(3) -0.083(2) 0.223(2)
loop_
_geom_bond_atom_site_label_1
_geom_bond_atom_site_label_2
_geom_bond_site_symmetry_1
_geom_bond_site_symmetry_2
N1 C1 1_555 1_555
C2 N1 1_555 1_555
Cd1 N2 1_555 1_555
Cd2 C3 1_555 1_555
C3 C3N 1_555 1_555
N2 C4 1_555 1_555
C4 Cd2 1_555 1_555
C2A N1 1_555 1_555
C2C N1 1_555 1_555
C3N Cd2N 1_555 1_555
Cd2N C4N 1_555 1_555
C4N N2N 1_555 1_555
N2N Cd1N 1_555 1_555
Cd1N N2Q 1_555 1_555
N2Q C4Q 1_555 1_555
C4Q Cd2Q 1_555 1_555
Cd2Q C3Q 1_555 1_555
C4P Cd2Q 1_555 1_555
N2P C4P 1_555 1_555
Cd1P N2P 1_555 1_555
N2N_2 Cd1P 1_555 1_555
N2M Cd1P 1_555 1_555
C4M N2M 1_555 1_555
Cd2M C4M 1_555 1_555
C3M Cd2M 1_555 1_555
C4O Cd2M 1_555 1_555
N2O C4O 1_555 1_555
Cd1O N2O 1_555 1_555
N2L Cd1O 1_555 1_555
N2Q_2 Cd1O 1_555 1_555
N2M_2 Cd1O 1_555 1_555
N2N_3 Cd1O 1_555 1_555
N2P_2 Cd1O 1_555 1_555
C4L Cd2M 1_555 1_555
N2Q_3 Cd1P 1_555 1_555
N2L_2 Cd1P 1_555 1_555
N2O_2 Cd1P 1_555 1_555
C4N_2 Cd2Q 1_555 1_555
N2P_3 Cd1N 1_555 1_555
N2O_3 Cd1N 1_555 1_555
N2M_3 Cd1N 1_555 1_555
C4Q_2 Cd2N 1_555 1_555
C4P_2 Cd2N 1_555 1_555
C4A Cd2 1_555 1_555
C4C Cd2 1_555 1_555

#END
