
#######################################################################
#
#                 Cambridge Crystallographic Data Centre
#                                CCDC 
#
#######################################################################
#
# If this CIF has been generated from an entry in the Cambridge 
# Structural Database, then it will include bibliographic, chemical, 
# crystal, experimental, refinement or atomic coordinate data resulting 
# from the CCDC's data processing and validation procedures.
#
#######################################################################

data_YIWLOF
_chemical_formula_moiety         'C5 Cd2 N6'
_symmetry_cell_setting           rhombohedral
_symmetry_space_group_name_H-M   'R -3 m'
_symmetry_Int_Tables_number      166
_space_group_name_Hall           '-R 3 2"'
loop_
_symmetry_equiv_pos_site_id
_symmetry_equiv_pos_as_xyz
1 x,y,z
2 -y,x-y,z
3 y,x,-z
4 -x+y,-x,z
5 -x,-x+y,-z
6 x-y,-y,-z
7 1/3+x,2/3+y,2/3+z
8 1/3-y,2/3+x-y,2/3+z
9 1/3+y,2/3+x,2/3-z
10 1/3-x+y,2/3-x,2/3+z
11 1/3-x,2/3-x+y,2/3-z
12 1/3+x-y,2/3-y,2/3-z
13 2/3+x,1/3+y,1/3+z
14 2/3-y,1/3+x-y,1/3+z
15 2/3+y,1/3+x,1/3-z
16 2/3-x+y,1/3-x,1/3+z
17 2/3-x,1/3-x+y,1/3-z
18 2/3+x-y,1/3-y,1/3-z
19 -x,-y,-z
20 y,-x+y,-z
21 -y,-x,z
22 x-y,x,-z
23 x,x-y,z
24 -x+y,y,z
25 2/3-x,1/3-y,1/3-z
26 2/3+y,1/3-x+y,1/3-z
27 2/3-y,1/3-x,1/3+z
28 2/3+x-y,1/3+x,1/3-z
29 2/3+x,1/3+x-y,1/3+z
30 2/3-x+y,1/3+y,1/3+z
31 1/3-x,2/3-y,2/3-z
32 1/3+y,2/3-x+y,2/3-z
33 1/3-y,2/3-x,2/3+z
34 1/3+x-y,2/3+x,2/3-z
35 1/3+x,2/3+x-y,2/3+z
36 1/3-x+y,2/3+y,2/3+z
_cell_length_a                   8.850(3)
_cell_length_b                   8.850(3)
_cell_length_c                   30.538(4)
_cell_angle_alpha                90
_cell_angle_beta                 90
_cell_angle_gamma                120
_cell_volume                     2071.37
loop_
_atom_site_label
_atom_site_type_symbol
_atom_site_fract_x
_atom_site_fract_y
_atom_site_fract_z
Cd1 Cd 0.00000 0.00000 0.00000
Cd2 Cd 0.33333 -0.33333 0.07652(4)
C1 C 0.33333 -0.33333 0.1468(4)
N1 N 0.1271(8) -0.1271(8) 0.0436(4)
C2 C 0.1934(9) -0.1934(9) 0.0550(4)
N1A N 0.1271(8) 0.2542(11) 0.0436(4)
N1B N -0.1271(8) 0.1271(8) -0.0436(4)
N1C N -0.2542(11) -0.1271(8) 0.0436(4)
N1D N -0.1271(8) -0.2542(11) -0.0436(4)
N1E N 0.2542(11) 0.1271(8) -0.0436(4)
C2A C 0.1934(9) -0.6132(13) 0.0550(4)
C2C C 0.6132(13) -0.1934(9) 0.0550(4)
C1N C 0.33334 -0.33334 0.1865(4)
loop_
_geom_bond_atom_site_label_1
_geom_bond_atom_site_label_2
_geom_bond_site_symmetry_1
_geom_bond_site_symmetry_2
Cd1 N1 1_555 1_555
Cd2 C1 1_555 1_555
C1 C1N 1_555 1_555
N1 C2 1_555 1_555
C2 Cd2 1_555 1_555
N1A Cd1 1_555 1_555
N1B Cd1 1_555 1_555
N1C Cd1 1_555 1_555
N1D Cd1 1_555 1_555
N1E Cd1 1_555 1_555
C2A Cd2 1_555 1_555
C2C Cd2 1_555 1_555

#END
