
#######################################################################
#
#                 Cambridge Crystallographic Data Centre
#                                CCDC 
#
#######################################################################
#
# If this CIF has been generated from an entry in the Cambridge 
# Structural Database, then it will include bibliographic, chemical, 
# crystal, experimental, refinement or atomic coordinate data resulting 
# from the CCDC's data processing and validation procedures.
#
#######################################################################

data_YIWMEW
_chemical_formula_moiety         'C39 H6 Cd11 N21'
_symmetry_cell_setting           orthorhombic
_symmetry_space_group_name_H-M   'P n 21 m'
_symmetry_Int_Tables_number      31
_space_group_name_Hall           'P -2 -2bc'
loop_
_symmetry_equiv_pos_site_id
_symmetry_equiv_pos_as_xyz
1 x,y,z
2 x,y,-z
3 -x,1/2+y,1/2+z
4 -x,1/2+y,1/2-z
_cell_length_a                   11.212(1)
_cell_length_b                   13.483(2)
_cell_length_c                   8.694(2)
_cell_angle_alpha                90
_cell_angle_beta                 90
_cell_angle_gamma                90
_cell_volume                     1314.28
loop_
_atom_site_label
_atom_site_type_symbol
_atom_site_fract_x
_atom_site_fract_y
_atom_site_fract_z
N1 N 0.2860(7) 0.8617(7) 0.5000
C4 C 0.407(1) 0.842(1) 0.459(2)
C5 C 0.4458(8) 0.7440(9) 0.5000
C6 C 0.3682(9) 0.660(1) 0.461(1)
N2 N 0.2419(6) 0.6660(5) 0.5000
C7 C 0.2292(2) 0.632(1) 0.320(2)
C8 C 0.158(1) 0.6153(8) 0.407(2)
C9 C 0.1293(7) 0.6716(6) 0.253(1)
C4A C 0.407(1) 0.842(1) 0.541(2)
C6A C 0.3682(9) 0.660(1) 0.539(1)
C7A C 0.2292(2) 0.632(1) 0.680(2)
C8A C 0.158(1) 0.6153(8) 0.593(2)
C9A C 0.1293(7) 0.6716(6) 0.747(1)
Cd1 Cd 0.23376(4) 0.00000 0.0000
Cd2 Cd -0.06788(4) -0.10077(5) 0.5000
Cd3 Cd 0.51428(4) 0.13246(5) 0.5000
N3 N 0.1008(4) -0.0419(4) 0.1923(6)
N4 N 0.3679(4) 0.0507(4) 0.1925(5)
N5 N 0.1579(7) 0.1617(5) 0.0000
N6 N 0.3225(6) -0.1583(5) 0.0000
C10 C 0.0392(5) -0.0612(4) 0.2927(6)
C11 C 0.4200(4) 0.0817(4) 0.2933(6)
C12 C 0.1235(6) 0.2420(6) 0.0000
C13 C 0.3765(7) -0.2309(6) 0.0000
C14 C -0.2391(6) -0.0173(6) 0.5000
C15 C 0.6728(6) 0.0243(6) 0.5000
N3A N 0.1008(4) -0.0419(4) -0.1923(6)
N4A N 0.3679(4) 0.0507(4) -0.1925(5)
C10A C 0.0392(5) -0.0612(4) 0.7073(6)
C12B C -0.1235(6) -0.2580(6) 0.5000
C11A C 0.4200(4) 0.0817(4) 0.7067(6)
C13B C 0.6235(7) 0.2691(6) 0.5000
Cd2B Cd 0.06788(4) 0.39923(5) 0.0000
Cd3B Cd 0.48572(4) -0.36754(5) 0.0000
C15_2 C -0.3272(6) 0.0243(6) 0.5000
C14_2 C 0.7609(6) -0.0173(6) 0.5000
C10A_2 C 0.0392(5) -0.0612(4) -0.2927(6)
C11A_2 C 0.4200(4) 0.0817(4) -0.2933(6)
N3A_2 N 0.1008(4) -0.0419(4) 0.8077(6)
N5B N -0.1579(7) -0.3383(5) 0.5000
N4A_2 N 0.3679(4) 0.0507(4) 0.8075(5)
N6B N 0.6775(6) 0.3417(5) 0.5000
C10B C -0.0392(5) 0.4388(4) -0.2073(6)
C10C C -0.0392(5) 0.4388(4) 0.2073(6)
C14B C 0.2391(6) 0.4827(6) 0.0000
C11B C 0.5800(4) -0.4183(4) -0.2067(6)
C11C C 0.5800(4) -0.4183(4) 0.2067(6)
C15B C 0.3272(6) -0.4757(6) 0.0000
Cd1B Cd -0.23376(4) -0.50000 0.5000
Cd1B_2 Cd 0.76624(4) 0.50000 0.5000
N3B N -0.1008(4) 0.4581(4) -0.3077(6)
N3C N -0.1008(4) 0.4581(4) 0.3077(6)
C15B_2 C 0.3272(6) 0.5243(6) 0.0000
N4B N 0.6321(4) -0.4493(4) -0.3075(5)
N4C N 0.6321(4) -0.4493(4) 0.3075(5)
C14B_2 C 0.2391(6) -0.5173(6) 0.0000
N3B_2 N -0.1008(4) -0.5419(4) 0.6923(6)
N3C_2 N -0.1008(4) -0.5419(4) 0.3077(6)
N4B_2 N -0.3679(4) -0.4493(4) 0.6925(5)
N4C_2 N -0.3679(4) -0.4493(4) 0.3075(5)
N6B_2 N -0.3225(6) -0.6583(5) 0.5000
Cd1B_3 Cd -0.23376(4) 0.50000 -0.5000
Cd1B_4 Cd -0.23376(4) 0.50000 0.5000
Cd1B_5 Cd 0.76624(4) -0.50000 -0.5000
Cd1B_6 Cd 0.76624(4) -0.50000 0.5000
C1 C 0.3607(8) 0.3760(6) 0.422(1)
C2 C 0.2799(8) 0.3157(9) 0.341(1)
C3 C 0.2070(9) 0.259(1) 0.415(2)
C1A C 0.3607(8) 0.3760(6) 0.578(1)
C3A C 0.2070(9) 0.259(1) 0.585(2)
C2A C 0.2799(8) 0.3157(9) 0.659(1)
loop_
_geom_bond_atom_site_label_1
_geom_bond_atom_site_label_2
_geom_bond_site_symmetry_1
_geom_bond_site_symmetry_2
C1 C2 1_555 1_555
C2 C3 1_555 1_555
C3 C3A 1_555 1_555
N1 C4 1_555 1_555
C4 C5 1_555 1_555
C5 C6 1_555 1_555
C6 N2 1_555 1_555
N2 C7 1_555 1_555
C7 C8 1_555 1_555
C8 N2 1_555 1_555
C9 C7 1_555 1_555
Cd1 N3 1_555 1_555
Cd2 C10 1_555 1_555
Cd3 C11 1_555 1_555
N3 C10 1_555 1_555
N4 Cd1 1_555 1_555
N5 Cd1 1_555 1_555
N6 Cd1 1_555 1_555
C11 N4 1_555 1_555
C12 N5 1_555 1_555
C13 N6 1_555 1_555
C14 Cd2 1_555 1_555
C15 Cd3 1_555 1_555
C1A C1 1_555 1_555
C3A C2A 1_555 1_555
C2A C1A 1_555 1_555
C4A N1 1_555 1_555
C6A C5 1_555 1_555
C7A N2 1_555 1_555
C8A N2 1_555 1_555
C9A C7A 1_555 1_555
N3A Cd1 1_555 1_555
N4A Cd1 1_555 1_555
C10A Cd2 1_555 1_555
C12B Cd2 1_555 1_555
C11A Cd3 1_555 1_555
C13B Cd3 1_555 1_555
Cd2B C12 1_555 1_555
Cd3B C13 1_555 1_555
C15_2 C14 1_555 1_555
C14_2 C15 1_555 1_555
C10A_2 N3A 1_555 1_555
C11A_2 N4A 1_555 1_555
N3A_2 C10A 1_555 1_555
N5B C12B 1_555 1_555
N4A_2 C11A 1_555 1_555
N6B C13B 1_555 1_555
C10B Cd2B 1_555 1_555
C10C Cd2B 1_555 1_555
C14B Cd2B 1_555 1_555
C11B Cd3B 1_555 1_555
C11C Cd3B 1_555 1_555
C15B Cd3B 1_555 1_555
Cd1B N5B 1_555 1_555
Cd1B_2 N6B 1_555 1_555
N3B C10B 1_555 1_555
N3C C10C 1_555 1_555
C15B_2 C14B 1_555 1_555
N4B C11B 1_555 1_555
N4C C11C 1_555 1_555
C14B_2 C15B 1_555 1_555
N3B_2 Cd1B 1_555 1_555
N3C_2 Cd1B 1_555 1_555
N4B_2 Cd1B 1_555 1_555
N4C_2 Cd1B 1_555 1_555
N6B_2 Cd1B 1_555 1_555
Cd1B_3 N3B 1_555 1_555
Cd1B_4 N3C 1_555 1_555
Cd1B_5 N4B 1_555 1_555
Cd1B_6 N4C 1_555 1_555
C4 C4A 1_555 1_555
C5 C4A 1_555 1_555
C6 C6A 1_555 1_555
N2 C6A 1_555 1_555
C8 C9 1_555 1_555
C8 C8A 1_555 1_555
C7A C8A 1_555 1_555
C8A C9A 1_555 1_555

#END
