
#######################################################################
#
#                 Cambridge Crystallographic Data Centre
#                                CCDC 
#
#######################################################################
#
# If this CIF has been generated from an entry in the Cambridge 
# Structural Database, then it will include bibliographic, chemical, 
# crystal, experimental, refinement or atomic coordinate data resulting 
# from the CCDC's data processing and validation procedures.
#
#######################################################################

data_YIWMIA
_chemical_formula_moiety         'C60 H12 Cd20 N36 S1'
_symmetry_cell_setting           orthorhombic
_symmetry_space_group_name_H-M   'P n a m'
_symmetry_Int_Tables_number      62
_space_group_name_Hall           '-P 2c 2n'
loop_
_symmetry_equiv_pos_site_id
_symmetry_equiv_pos_as_xyz
1 x,y,z
2 -x,-y,1/2+z
3 1/2+x,1/2-y,1/2-z
4 1/2-x,1/2+y,-z
5 -x,-y,-z
6 x,y,1/2-z
7 1/2-x,1/2+y,1/2+z
8 1/2+x,1/2-y,z
_cell_length_a                   21.934(7)
_cell_length_b                   13.843(2)
_cell_length_c                   8.875(3)
_cell_angle_alpha                90
_cell_angle_beta                 90
_cell_angle_gamma                90
_cell_volume                     2694.74
loop_
_atom_site_label
_atom_site_type_symbol
_atom_site_fract_x
_atom_site_fract_y
_atom_site_fract_z
C4 C 0.493(4) 0.490(5) 0.250
C5 C 0.470(3) 0.473(4) 0.104(4)
C6 C 0.438(4) 0.390(3) 0.146(5)
C7 C 0.428(4) 0.315(4) 0.250
C5E C 0.470(3) 0.473(4) 0.396(4)
C6E C 0.438(4) 0.390(3) 0.354(5)
S1 S 0.316(2) 0.561(3) 0.250
C8 C 0.350(3) 0.678(3) 0.250
C9 C 0.242(2) 0.619(4) 0.250
C10 C 0.375(3) 0.614(5) 0.138(6)
C10E C 0.375(3) 0.614(5) 0.362(6)
Cd1 Cd 0.1307(1) 0.3145(2) 0.250
Cd2 Cd 0.2728(1) 0.4339(2) -0.25
Cd3 Cd -0.0236(1) 0.3164(2) -0.25
N1 N 0.0628(9) 0.282(2) 0.046(3)
N2 N 0.203(1) 0.360(2) 0.056(3)
N3 N 0.092(1) 0.472(2) 0.250
N4 N 0.170(1) 0.153(2) 0.250
C11 C 0.031(1) 0.291(2) -0.050(3)
C12 C 0.226(1) 0.387(2) -0.047(3)
C13 C 0.066(2) 0.542(3) 0.250
C14 C 0.192(2) 0.082(3) 0.250
C15 C -0.111(2) 0.217(3) -0.25
C16 C 0.351(2) 0.333(3) -0.25
N1E N 0.0628(9) 0.282(2) 0.454(3)
N2E N 0.203(1) 0.360(2) 0.444(3)
C11E C 0.031(1) 0.291(2) -0.450(3)
C13A C -0.066(2) 0.458(3) -0.250
C12E C 0.226(1) 0.387(2) -0.453(3)
C14C C 0.308(2) 0.582(3) -0.250
Cd3A Cd 0.0236(1) 0.6836(2) 0.25
Cd2C Cd 0.2272(1) -0.0661(2) 0.25
C16B C -0.149(2) 0.167(3) -0.25
C15B C 0.389(2) 0.283(3) -0.25
C11E_2 C 0.031(1) 0.291(2) 0.550(3)
C12E_2 C 0.226(1) 0.387(2) 0.547(3)
N1E_2 N 0.0628(9) 0.282(2) -0.546(3)
N3A N -0.092(1) 0.528(2) -0.250
N2E_2 N 0.203(1) 0.360(2) -0.556(3)
N4C N 0.330(1) 0.653(2) -0.250
C11D C -0.031(1) 0.709(2) 0.050(3)
C11A C -0.031(1) 0.709(2) 0.450(3)
C15A C 0.111(2) 0.783(3) 0.25
C12F C 0.274(1) -0.113(2) 0.453(3)
C12C C 0.274(1) -0.113(2) 0.047(3)
C16C C 0.149(2) -0.167(3) 0.25
Cd2B Cd -0.2272(1) 0.0661(2) -0.25
Cd3B Cd 0.4764(1) 0.1836(2) -0.25
Cd1A Cd -0.1307(1) 0.6855(2) -0.250
Cd1C Cd 0.3693(1) 0.8145(2) -0.250
N1D N -0.0628(9) 0.718(2) -0.046(3)
N1A N -0.0628(9) 0.718(2) 0.546(3)
C16C_2 C 0.149(2) 0.833(3) 0.25
N2F N 0.297(1) -0.140(2) 0.556(3)
N2C N 0.297(1) -0.140(2) -0.056(3)
C15A_2 C 0.111(2) -0.217(3) 0.25
C12B C -0.274(1) 0.113(2) -0.453(3)
C12G C -0.274(1) 0.113(2) -0.047(3)
C14A C -0.192(2) -0.082(3) -0.250
C11B C 0.531(1) 0.209(2) -0.450(3)
C11G C 0.531(1) 0.209(2) -0.050(3)
C13C C 0.434(2) 0.042(3) -0.250
N1A_2 N -0.0628(9) 0.718(2) -0.454(3)
N2D N -0.203(1) 0.640(2) -0.056(3)
N2A N -0.203(1) 0.640(2) -0.444(3)
N4A N -0.170(1) 0.847(2) -0.250
N1F N 0.4372(9) 0.782(2) -0.454(3)
N1C N 0.4372(9) 0.782(2) -0.046(3)
N2F_2 N 0.297(1) 0.860(2) -0.444(3)
N2C_2 N 0.297(1) 0.860(2) -0.056(3)
N3C N 0.408(1) 0.972(2) -0.250
Cd1A_2 Cd -0.1307(1) 0.6855(2) 0.750
Cd1C_2 Cd 0.3693(1) -0.1855(2) 0.750
Cd1C_3 Cd 0.3693(1) -0.1855(2) -0.250
N2B N -0.297(1) 0.140(2) -0.556(3)
N2G N -0.297(1) 0.140(2) 0.056(3)
N4A_2 N -0.170(1) -0.153(2) -0.250
N1B N 0.5628(9) 0.218(2) -0.546(3)
N1G N 0.5628(9) 0.218(2) 0.046(3)
N3C_2 N 0.408(1) -0.028(2) -0.250
C12D C -0.226(1) 0.613(2) 0.047(3)
C12A C -0.226(1) 0.613(2) -0.547(3)
C14A_2 C -0.192(2) 0.918(3) -0.250
C11F C 0.469(1) 0.791(2) -0.550(3)
C11C C 0.469(1) 0.791(2) 0.050(3)
C13C_2 C 0.434(2) 1.042(3) -0.250
Cd1B Cd -0.3693(1) 0.1855(2) -0.750
Cd1B_2 Cd -0.3693(1) 0.1855(2) 0.250
Cd1B_3 Cd 0.6307(1) 0.1855(2) -0.750
Cd1B_4 Cd 0.6307(1) 0.1855(2) 0.250
Cd2A Cd -0.2728(1) 0.5661(2) 0.25
Cd2A_2 Cd -0.2728(1) 0.5661(2) -0.75
Cd3C Cd 0.5236(1) 0.8164(2) -0.75
Cd3C_2 Cd 0.5236(1) 0.8164(2) 0.25
N1B_2 N -0.4372(9) 0.218(2) -0.546(3)
N1G_2 N -0.4372(9) 0.218(2) -0.954(3)
N2G_2 N -0.297(1) 0.140(2) -0.944(3)
N3B N -0.408(1) 0.028(2) -0.750
N4B N -0.330(1) 0.347(2) -0.750
C12A_2 C -0.226(1) 0.613(2) 0.453(3)
C14B C -0.308(2) 0.418(3) 0.250
C16A C -0.351(2) 0.667(3) 0.25
C11C_2 C 0.469(1) 0.791(2) -0.950(3)
C13B C 0.566(2) 0.958(3) -0.750
C15C C 0.611(2) 0.717(3) -0.75
C13B_2 C -0.434(2) -0.042(3) -0.750
C14B_2 C -0.308(2) 0.418(3) -0.750
N4B_2 N -0.330(1) 0.347(2) 0.250
C15C_2 C -0.389(2) 0.717(3) 0.25
N3B_2 N 0.592(1) 1.028(2) -0.750
C16A_2 C 0.649(2) 0.667(3) -0.75
C1 C 0.399(2) 0.054(3) 0.178(4)
C2 C 0.364(2) 0.122(2) 0.101(3)
C3 C 0.334(2) 0.194(3) 0.178(4)
C1E C 0.399(2) 0.054(3) 0.322(4)
C3E C 0.334(2) 0.194(3) 0.322(4)
C2E C 0.364(2) 0.122(2) 0.399(3)
loop_
_geom_bond_atom_site_label_1
_geom_bond_atom_site_label_2
_geom_bond_site_symmetry_1
_geom_bond_site_symmetry_2
C1 C2 1_555 1_555
C2 C3 1_555 1_555
C3 C3E 1_555 1_555
C4 C5 1_555 1_555
C5 C6 1_555 1_555
C6 C7 1_555 1_555
C7 C6E 1_555 1_555
S1 C8 1_555 1_555
C8 C10 1_555 1_555
C9 S1 1_555 1_555
C10 S1 1_555 1_555
Cd1 N1 1_555 1_555
Cd2 C12 1_555 1_555
Cd3 C11 1_555 1_555
N1 C11 1_555 1_555
N2 Cd1 1_555 1_555
N3 Cd1 1_555 1_555
N4 Cd1 1_555 1_555
C12 N2 1_555 1_555
C13 N3 1_555 1_555
C14 N4 1_555 1_555
C15 Cd3 1_555 1_555
C16 Cd2 1_555 1_555
C1E C1 1_555 1_555
C3E C2E 1_555 1_555
C2E C1E 1_555 1_555
C5E C4 1_555 1_555
C6E C5E 1_555 1_555
C10E S1 1_555 1_555
N1E Cd1 1_555 1_555
N2E Cd1 1_555 1_555
C11E Cd3 1_555 1_555
C13A Cd3 1_555 1_555
C12E Cd2 1_555 1_555
C14C Cd2 1_555 1_555
Cd3A C13 1_555 1_555
Cd2C C14 1_555 1_555
C16B C15 1_555 1_555
C15B C16 1_555 1_555
C11E_2 N1E 1_555 1_555
C12E_2 N2E 1_555 1_555
N1E_2 C11E 1_555 1_555
N3A C13A 1_555 1_555
N2E_2 C12E 1_555 1_555
N4C C14C 1_555 1_555
C11D Cd3A 1_555 1_555
C11A Cd3A 1_555 1_555
C15A Cd3A 1_555 1_555
C12F Cd2C 1_555 1_555
C12C Cd2C 1_555 1_555
C16C Cd2C 1_555 1_555
Cd2B C16B 1_555 1_555
Cd3B C15B 1_555 1_555
Cd1A N3A 1_555 1_555
Cd1C N4C 1_555 1_555
N1D C11D 1_555 1_555
N1A C11A 1_555 1_555
C16C_2 C15A 1_555 1_555
N2F C12F 1_555 1_555
N2C C12C 1_555 1_555
C15A_2 C16C 1_555 1_555
C12B Cd2B 1_555 1_555
C12G Cd2B 1_555 1_555
C14A Cd2B 1_555 1_555
C11B Cd3B 1_555 1_555
C11G Cd3B 1_555 1_555
C13C Cd3B 1_555 1_555
N1A_2 Cd1A 1_555 1_555
N2D Cd1A 1_555 1_555
N2A Cd1A 1_555 1_555
N4A Cd1A 1_555 1_555
N1F Cd1C 1_555 1_555
N1C Cd1C 1_555 1_555
N2F_2 Cd1C 1_555 1_555
N2C_2 Cd1C 1_555 1_555
N3C Cd1C 1_555 1_555
Cd1A_2 N1A 1_555 1_555
Cd1C_2 N2F 1_555 1_555
Cd1C_3 N2C 1_555 1_555
N2B C12B 1_555 1_555
N2G C12G 1_555 1_555
N4A_2 C14A 1_555 1_555
N1B C11B 1_555 1_555
N1G C11G 1_555 1_555
N3C_2 C13C 1_555 1_555
C12D N2D 1_555 1_555
C12A N2A 1_555 1_555
C14A_2 N4A 1_555 1_555
C11F N1F 1_555 1_555
C11C N1C 1_555 1_555
C13C_2 N3C 1_555 1_555
Cd1B N2B 1_555 1_555
Cd1B_2 N2G 1_555 1_555
Cd1B_3 N1B 1_555 1_555
Cd1B_4 N1G 1_555 1_555
Cd2A C12D 1_555 1_555
Cd2A_2 C12A 1_555 1_555
Cd3C C11F 1_555 1_555
Cd3C_2 C11C 1_555 1_555
N1B_2 Cd1B 1_555 1_555
N1G_2 Cd1B 1_555 1_555
N2G_2 Cd1B 1_555 1_555
N3B Cd1B 1_555 1_555
N4B Cd1B 1_555 1_555
C12A_2 Cd2A 1_555 1_555
C14B Cd2A 1_555 1_555
C16A Cd2A 1_555 1_555
C11C_2 Cd3C 1_555 1_555
C13B Cd3C 1_555 1_555
C15C Cd3C 1_555 1_555
C13B_2 N3B 1_555 1_555
C14B_2 N4B 1_555 1_555
N4B_2 C14B 1_555 1_555
C15C_2 C16A 1_555 1_555
N3B_2 C13B 1_555 1_555
C16A_2 C15C 1_555 1_555
C8 C10E 1_555 1_555
Cd1A N1D 1_555 1_555

#END
