
#######################################################################
#
#                 Cambridge Crystallographic Data Centre
#                                CCDC 
#
#######################################################################
#
# If this CIF has been generated from an entry in the Cambridge 
# Structural Database, then it will include bibliographic, chemical, 
# crystal, experimental, refinement or atomic coordinate data resulting 
# from the CCDC's data processing and validation procedures.
#
#######################################################################

data_HEJHAH
_chemical_formula_moiety         '(C104 H64 Cd6 N8 O26 4-)n'
_symmetry_cell_setting           triclinic
_symmetry_space_group_name_H-M   'P -1'
_symmetry_Int_Tables_number      2
_space_group_name_Hall           '-P 1'
loop_
_symmetry_equiv_pos_site_id
_symmetry_equiv_pos_as_xyz
1 x,y,z
2 -x,-y,-z
_cell_length_a                   10.027(3)
_cell_length_b                   18.420(5)
_cell_length_c                   20.577(6)
_cell_angle_alpha                89.269(7)
_cell_angle_beta                 84.180(7)
_cell_angle_gamma                88.402(6)
_cell_volume                     3779.27
loop_
_atom_site_label
_atom_site_type_symbol
_atom_site_fract_x
_atom_site_fract_y
_atom_site_fract_z
Cd2 Cd 0.89676(3) -0.044017(16) 0.456740(13)
Cd3 Cd 1.39173(3) -0.452950(16) -0.040480(13)
C23 C 1.4649(5) -0.3958(3) 0.0958(3)
C24 C 1.4546(5) -0.3425(3) 0.1503(3)
C25 C 1.5377(6) -0.3486(4) 0.1993(3)
H19 H 1.6002 -0.3884 0.1989
C26 C 1.5332(6) -0.2991(4) 0.2488(3)
H20 H 1.5941 -0.3041 0.2811
C27 C 1.4402(5) -0.2418(3) 0.2519(3)
C28 C 1.3564(6) -0.2356(4) 0.2027(3)
H21 H 1.2927 -0.1964 0.2031
C29 C 1.3636(6) -0.2852(4) 0.1532(3)
H22 H 1.3044 -0.2798 0.1201
C30 C 1.4346(5) -0.1883(3) 0.3067(2)
C31 C 1.3129(5) -0.1596(3) 0.3338(3)
H23 H 1.2321 -0.1745 0.3182
C32 C 1.3078(5) -0.1088(3) 0.3839(2)
C33 C 1.4264(5) -0.0876(3) 0.4051(2)
H24 H 1.4237 -0.0524 0.4386
C34 C 1.5500(4) -0.1158(3) 0.3791(2)
C35 C 1.5528(5) -0.1671(3) 0.3294(3)
H25 H 1.6362 -0.1874 0.3112
C36 C 1.6749(5) -0.0921(3) 0.4029(3)
C37 C 1.1761(5) -0.0795(3) 0.4161(2)
C38 C 1.3458(5) 0.4146(3) 0.0864(2)
C39 C 1.2099(4) 0.3906(3) 0.1161(2)
C40 C 1.0954(4) 0.4142(3) 0.0899(2)
H26 H 1.1010 0.4479 0.0545
C41 C 0.9703(5) 0.3886(3) 0.1155(2)
C42 C 0.9651(5) 0.3393(3) 0.1669(3)
H27 H 0.8809 0.3205 0.1834
C43 C 1.0777(4) 0.3168(3) 0.1947(2)
C44 C 1.2008(4) 0.3433(3) 0.1694(2)
H28 H 1.2796 0.3289 0.1888
C45 C 1.0688(5) 0.2633(3) 0.2505(3)
C46 C 0.9796(6) 0.2065(3) 0.2507(3)
H29 H 0.9263 0.2022 0.2154
C47 C 0.9675(6) 0.1569(4) 0.3006(3)
H30 H 0.9083 0.1177 0.2990
C48 C 1.0407(5) 0.1632(3) 0.3535(3)
C49 C 1.1305(6) 0.2187(3) 0.3536(3)
H31 H 1.1835 0.2233 0.3890
C50 C 1.1430(6) 0.2679(3) 0.3015(3)
H32 H 1.2054 0.3058 0.3019
C51 C 0.8467(5) 0.4145(3) 0.0865(3)
C52 C 1.0243(5) 0.1092(3) 0.4093(3)
O2 O 1.0711(3) -0.1016(2) 0.3995(2)
O3 O 1.1831(4) -0.0328(3) 0.4578(2)
O4 O 1.3941(4) -0.3846(2) 0.04979(18)
O5 O 1.5472(4) -0.4481(2) 0.10096(19)
O6 O 1.3495(4) 0.4558(2) 0.03865(19)
O7 O 1.4481(3) 0.3928(2) 0.1089(2)
O8 O 0.8401(4) 0.4701(3) 0.0568(2)
O9 O 0.7466(4) 0.3742(3) 0.0931(3)
O10 O 0.9427(4) 0.0603(2) 0.4029(2)
O11 O 1.0908(5) 0.1177(2) 0.45569(18)
O12 O 1.7855(12) -0.1154(14) 0.3751(14)
O13 O 1.6698(19) -0.0463(11) 0.4448(8)
Cd2A Cd 1.10324(3) 0.044017(16) 0.543260(13)
Cd2_2 Cd 1.89676(3) -0.044017(16) 0.456740(13)
Cd2A_2 Cd 0.10324(3) 0.044017(16) 0.543260(13)
Cd3A Cd 0.60827(3) 0.452950(16) 1.040480(13)
Cd3A_2 Cd 1.60827(3) -0.547050(16) 0.040480(13)
Cd3_2 Cd 1.39173(3) 0.547050(16) -0.040480(13)
Cd3A_3 Cd 1.60827(3) 0.452950(16) 0.040480(13)
Cd3A_4 Cd 0.60827(3) 0.452950(16) 0.040480(13)
Cd3_3 Cd 0.39173(3) 0.547050(16) 0.959520(13)
Cd3A_5 Cd 0.60827(3) -0.547050(16) 1.040480(13)
Cd3_4 Cd 0.39173(3) -0.452950(16) 0.959520(13)
Cd3_5 Cd 1.39173(3) -0.452950(16) 0.959520(13)
C23A C 0.5351(5) 0.3958(3) 0.9042(3)
C24A C 0.5454(5) 0.3425(3) 0.8497(3)
C25A C 0.4623(6) 0.3486(4) 0.8007(3)
H19A H 0.3998 0.3884 0.8011
C26A C 0.4668(6) 0.2991(4) 0.7512(3)
H20A H 0.4059 0.3041 0.7189
C27A C 0.5598(5) 0.2418(3) 0.7481(3)
C28A C 0.6436(6) 0.2356(4) 0.7973(3)
H21A H 0.7073 0.1964 0.7969
C29A C 0.6364(6) 0.2852(4) 0.8468(3)
H22A H 0.6956 0.2798 0.8799
C30A C 0.5654(5) 0.1883(3) 0.6933(2)
C31A C 0.6871(5) 0.1596(3) 0.6662(3)
H23A H 0.7679 0.1745 0.6818
C32A C 0.6922(5) 0.1088(3) 0.6161(2)
C33A C 0.5736(5) 0.0876(3) 0.5949(2)
H24A H 0.5763 0.0524 0.5614
C34A C 0.4500(4) 0.1158(3) 0.6209(2)
C35A C 0.4472(5) 0.1671(3) 0.6706(3)
H25A H 0.3638 0.1874 0.6888
C36A C 0.3251(5) 0.0921(3) 0.5971(3)
C37A C 0.8239(5) 0.0795(3) 0.5839(2)
C38A C 0.6542(5) -0.4146(3) 0.9136(2)
C39A C 0.7901(4) -0.3906(3) 0.8839(2)
C40A C 0.9046(4) -0.4142(3) 0.9101(2)
H26A H 0.8990 -0.4479 0.9455
C41A C 1.0297(5) -0.3886(3) 0.8845(2)
C42A C 1.0349(5) -0.3393(3) 0.8331(3)
H27A H 1.1191 -0.3205 0.8166
C43A C 0.9223(4) -0.3168(3) 0.8053(2)
C44A C 0.7992(4) -0.3433(3) 0.8306(2)
H28A H 0.7204 -0.3289 0.8112
C45A C 0.9312(5) -0.2633(3) 0.7495(3)
C46A C 1.0204(6) -0.2065(3) 0.7493(3)
H29A H 1.0737 -0.2022 0.7846
C47A C 1.0325(6) -0.1569(4) 0.6994(3)
H30A H 1.0917 -0.1177 0.7010
C48A C 0.9593(5) -0.1632(3) 0.6465(3)
C49A C 0.8695(6) -0.2187(3) 0.6464(3)
H31A H 0.8165 -0.2233 0.6110
C50A C 0.8570(6) -0.2679(3) 0.6985(3)
H32A H 0.7946 -0.3058 0.6981
C51A C 1.1533(5) -0.4145(3) 0.9135(3)
C52A C 0.9757(5) -0.1092(3) 0.5907(3)
O2A O 0.9289(3) 0.1016(2) 0.6005(2)
O3A O 0.8169(4) 0.0328(3) 0.5422(2)
O4A O 0.6059(4) 0.3846(2) 0.95021(18)
O5A O 0.4528(4) 0.4481(2) 0.89904(19)
O5A_2 O 1.4528(4) -0.5519(2) -0.10096(19)
O5_2 O 0.5472(4) 0.5519(2) 1.10096(19)
O6A O 0.6505(4) -0.4558(2) 0.96135(19)
O6_2 O 1.3495(4) -0.5442(2) 0.03865(19)
O6A_2 O 0.6505(4) 0.5442(2) 0.96135(19)
O7A O 0.5519(3) -0.3928(2) 0.8911(2)
O7A_2 O 1.5519(3) -0.3928(2) -0.1089(2)
O7_2 O 0.4481(3) 0.3928(2) 1.1089(2)
O8A O 1.1599(4) -0.4701(3) 0.9432(2)
O8A_2 O 1.1599(4) -0.4701(3) -0.0568(2)
O8_2 O 0.8401(4) 0.4701(3) 1.0568(2)
O9A O 1.2534(4) -0.3742(3) 0.9069(3)
O9A_2 O 1.2534(4) -0.3742(3) -0.0931(3)
O9_2 O 0.7466(4) 0.3742(3) 1.0931(3)
O10A O 1.0573(4) -0.0603(2) 0.5971(2)
O11A O 0.9092(5) -0.1177(2) 0.54431(18)
O12A O 0.2145(12) 0.1154(14) 0.6249(14)
O12_2 O 0.7855(12) -0.1154(14) 0.3751(14)
O12A_2 O 1.2145(12) 0.1154(14) 0.6249(14)
O13A O 0.3302(19) 0.0463(11) 0.5552(8)
O13_2 O 0.6698(19) -0.0463(11) 0.4448(8)
O13A_2 O 1.3302(19) 0.0463(11) 0.5552(8)
Cd1 Cd 0.56581(10) 1.02872(5) 0.99171(4)
C1 C 0.4954(11) 1.1103(6) 1.4347(4)
H1 H 0.4111 1.0970 1.4597
H2 H 0.5702 1.0831 1.4515
H3 H 0.5086 1.1625 1.4388
C2 C 0.3773(9) 1.0764(5) 1.3432(4)
H4 H 0.2980 1.0775 1.3727
C3 C 0.3693(7) 1.0581(5) 1.2798(3)
H5 H 0.2855 1.0453 1.2661
C4 C 0.4837(8) 1.0580(4) 1.2347(3)
C5 C 0.6025(9) 1.0711(6) 1.2605(4)
H6 H 0.6839 1.0678 1.2326
C6 C 0.6078(9) 1.0888(6) 1.3249(3)
H7 H 0.6906 1.0983 1.3415
C7 C 0.4838(7) 1.0384(4) 1.1643(3)
C8 C 0.5644(8) 0.9781(4) 1.1438(3)
C9 C 0.6357(9) 0.9281(4) 1.1846(4)
H8 H 0.6389 0.9308 1.2304
C10 C 0.6959(8) 0.8776(4) 1.1445(4)
H9 H 0.7501 0.8379 1.1573
C11 C 0.6649(8) 0.8934(4) 1.0789(4)
C12 C 0.4053(8) 1.0852(4) 1.1271(4)
C13 C 0.3309(8) 1.1490(4) 1.1483(3)
H10 H 0.3219 1.1677 1.1913
C14 C 0.2759(9) 1.1779(4) 1.0971(4)
H11 H 0.2195 1.2203 1.0972
C15 C 0.3181(8) 1.1331(4) 1.0420(3)
C16 C 0.7085(7) 0.8536(4) 1.0227(3)
C17 C 0.7980(7) 0.7880(4) 1.0340(4)
C18 C 0.7443(8) 0.7235(5) 1.0497(5)
H12 H 0.6504 0.7179 1.0500
C19 C 0.8251(8) 0.6652(4) 1.0656(5)
H13 H 0.7849 0.6206 1.0789
C20 C 1.0095(10) 0.7287(5) 1.0380(7)
H14 H 1.1042 0.7296 1.0284
C21 C 0.9309(10) 0.7899(5) 1.0257(7)
H15 H 0.9730 0.8335 1.0111
C22 C 1.0386(9) 0.6075(4) 1.0841(4)
H16 H 1.0216 0.6007 1.1315
H17 H 1.1334 0.6179 1.0726
H18 H 1.0166 0.5631 1.0622
N1 N 0.3946(6) 1.0771(3) 1.0627(3)
N2 N 0.5837(7) 0.9547(3) 1.0810(3)
N3 N 0.4900(8) 1.0923(4) 1.3642(3)
N4 N 0.9530(6) 0.6699(3) 1.0628(3)
O1 O 0.7290(13) 1.1163(6) 0.9777(8)
Cd1A Cd 0.43419(10) 0.97128(5) 1.00829(4)
C1A C 0.5046(11) 0.8897(6) 0.5653(4)
H1A H 0.5889 0.9030 0.5403
H2A H 0.4298 0.9169 0.5485
H3A H 0.4914 0.8375 0.5612
C2A C 0.6227(9) 0.9236(5) 0.6568(4)
H4A H 0.7020 0.9225 0.6273
C3A C 0.6307(7) 0.9419(5) 0.7202(3)
H5A H 0.7145 0.9547 0.7339
C4A C 0.5163(8) 0.9420(4) 0.7653(3)
C5A C 0.3975(9) 0.9289(6) 0.7395(4)
H6A H 0.3161 0.9322 0.7674
C6A C 0.3922(9) 0.9112(6) 0.6751(3)
H7A H 0.3094 0.9017 0.6585
C7A C 0.5162(7) 0.9616(4) 0.8357(3)
C8A C 0.4356(8) 1.0219(4) 0.8562(3)
C9A C 0.3643(9) 1.0719(4) 0.8154(4)
H8A H 0.3611 1.0692 0.7696
C10A C 0.3041(8) 1.1224(4) 0.8555(4)
H9A H 0.2499 1.1621 0.8427
C11A C 0.3351(8) 1.1066(4) 0.9211(4)
C12A C 0.5947(8) 0.9148(4) 0.8729(4)
C13A C 0.6691(8) 0.8510(4) 0.8517(3)
H10A H 0.6781 0.8323 0.8087
C14A C 0.7241(9) 0.8221(4) 0.9029(4)
H11A H 0.7805 0.7797 0.9028
C15A C 0.6819(8) 0.8669(4) 0.9580(3)
C16A C 0.2915(7) 1.1464(4) 0.9773(3)
C17A C 0.2020(7) 1.2120(4) 0.9660(4)
C18A C 0.2557(8) 1.2765(5) 0.9503(5)
H12A H 0.3496 1.2821 0.9500
C19A C 0.1749(8) 1.3348(4) 0.9344(5)
H13A H 0.2151 1.3794 0.9211
C20A C -0.0095(10) 1.2713(5) 0.9620(7)
H14A H -0.1042 1.2704 0.9716
C21A C 0.0691(10) 1.2101(5) 0.9743(7)
H15A H 0.0270 1.1665 0.9889
C22A C -0.0386(9) 1.3925(4) 0.9159(4)
H16A H -0.0216 1.3993 0.8685
H17A H -0.1334 1.3821 0.9274
H18A H -0.0166 1.4369 0.9378
N1A N 0.6054(6) 0.9229(3) 0.9373(3)
N2A N 0.4163(7) 1.0453(3) 0.9190(3)
N3A N 0.5100(8) 0.9077(4) 0.6358(3)
N4A N 0.0470(6) 1.3301(3) 0.9372(3)
O1A O 0.2710(13) 0.8837(6) 1.0223(8)
loop_
_geom_bond_atom_site_label_1
_geom_bond_atom_site_label_2
_geom_bond_site_symmetry_1
_geom_bond_site_symmetry_2
Cd1 N1 1_555 1_555
C1 H1 1_555 1_555
H2 C1 1_555 1_555
H3 C1 1_555 1_555
C2 H4 1_555 1_555
C3 C2 1_555 1_555
H5 C3 1_555 1_555
C4 C3 1_555 1_555
C5 C4 1_555 1_555
H6 C5 1_555 1_555
C6 C5 1_555 1_555
H7 C6 1_555 1_555
C7 C4 1_555 1_555
C8 C7 1_555 1_555
C9 C8 1_555 1_555
H8 C9 1_555 1_555
C10 C9 1_555 1_555
H9 C10 1_555 1_555
C11 C10 1_555 1_555
C12 C7 1_555 1_555
C13 C12 1_555 1_555
H10 C13 1_555 1_555
C14 C13 1_555 1_555
H11 C14 1_555 1_555
C15 C14 1_555 1_555
C16 C11 1_555 1_555
C17 C16 1_555 1_555
C18 C17 1_555 1_555
H12 C18 1_555 1_555
C19 C18 1_555 1_555
H13 C19 1_555 1_555
C20 H14 1_555 1_555
C21 C17 1_555 1_555
H15 C21 1_555 1_555
C22 H16 1_555 1_555
H17 C22 1_555 1_555
H18 C22 1_555 1_555
N1 C12 1_555 1_555
N2 Cd1 1_555 1_555
N3 C1 1_555 1_555
N4 C19 1_555 1_555
O1 Cd1 1_555 1_555
Cd2 O2 1_555 1_555
Cd3 O4 1_555 1_555
C23 C24 1_555 1_555
C24 C25 1_555 1_555
C25 H19 1_555 1_555
C26 C25 1_555 1_555
H20 C26 1_555 1_555
C27 C26 1_555 1_555
C28 C27 1_555 1_555
H21 C28 1_555 1_555
C29 C24 1_555 1_555
H22 C29 1_555 1_555
C30 C27 1_555 1_555
C31 C30 1_555 1_555
H23 C31 1_555 1_555
C32 C31 1_555 1_555
C33 C32 1_555 1_555
H24 C33 1_555 1_555
C34 C33 1_555 1_555
C35 C30 1_555 1_555
H25 C35 1_555 1_555
C36 C34 1_555 1_555
C37 C32 1_555 1_555
C38 C39 1_555 1_555
C39 C40 1_555 1_555
C40 H26 1_555 1_555
C41 C40 1_555 1_555
C42 C41 1_555 1_555
H27 C42 1_555 1_555
C43 C42 1_555 1_555
C44 C39 1_555 1_555
H28 C44 1_555 1_555
C45 C43 1_555 1_555
C46 C45 1_555 1_555
H29 C46 1_555 1_555
C47 C46 1_555 1_555
H30 C47 1_555 1_555
C48 C47 1_555 1_555
C49 C48 1_555 1_555
H31 C49 1_555 1_555
C50 C45 1_555 1_555
H32 C50 1_555 1_555
C51 C41 1_555 1_555
C52 C48 1_555 1_555
O2 C37 1_555 1_555
O3 C37 1_555 1_555
O4 C23 1_555 1_555
O5 C23 1_555 1_555
O6 C38 1_555 1_555
O7 C38 1_555 1_555
O8 C51 1_555 1_555
O9 C51 1_555 1_555
O10 Cd2 1_555 1_555
O11 C52 1_555 1_555
O12 C36 1_555 1_555
O13 C36 1_555 1_555
Cd1A Cd1 1_555 1_555
C1A H1A 1_555 1_555
H2A C1A 1_555 1_555
H3A C1A 1_555 1_555
C2A H4A 1_555 1_555
C3A C2A 1_555 1_555
H5A C3A 1_555 1_555
C4A C3A 1_555 1_555
C5A C4A 1_555 1_555
H6A C5A 1_555 1_555
C6A C5A 1_555 1_555
H7A C6A 1_555 1_555
C7A C4A 1_555 1_555
C8A C7A 1_555 1_555
C9A C8A 1_555 1_555
H8A C9A 1_555 1_555
C10A C9A 1_555 1_555
H9A C10A 1_555 1_555
C11A C10A 1_555 1_555
C12A C7A 1_555 1_555
C13A C12A 1_555 1_555
H10A C13A 1_555 1_555
C14A C13A 1_555 1_555
H11A C14A 1_555 1_555
C15A C16 1_555 1_555
C16A C15 1_555 1_555
C17A C16A 1_555 1_555
C18A C17A 1_555 1_555
H12A C18A 1_555 1_555
C19A C18A 1_555 1_555
H13A C19A 1_555 1_555
C20A H14A 1_555 1_555
C21A C17A 1_555 1_555
H15A C21A 1_555 1_555
C22A H16A 1_555 1_555
H17A C22A 1_555 1_555
H18A C22A 1_555 1_555
N1A Cd1 1_555 1_555
N2A Cd1 1_555 1_555
N3A C1A 1_555 1_555
N4A C19A 1_555 1_555
O1A Cd1A 1_555 1_555
Cd2A O3 1_555 1_555
Cd2_2 O12 1_555 1_555
Cd2A_2 O12A 1_555 1_555
Cd3A O4A 1_555 1_555
Cd3A_2 O5 1_555 1_555
Cd3_2 O6 1_555 1_555
Cd3A_3 O7 1_555 1_555
Cd3A_4 O8 1_555 1_555
Cd3_3 O5A 1_555 1_555
Cd3A_5 O6A 1_555 1_555
Cd3_4 O7A 1_555 1_555
Cd3_5 O8A 1_555 1_555
C23A C24A 1_555 1_555
C24A C25A 1_555 1_555
C25A H19A 1_555 1_555
C26A C25A 1_555 1_555
H20A C26A 1_555 1_555
C27A C26A 1_555 1_555
C28A C27A 1_555 1_555
H21A C28A 1_555 1_555
C29A C24A 1_555 1_555
H22A C29A 1_555 1_555
C30A C27A 1_555 1_555
C31A C30A 1_555 1_555
H23A C31A 1_555 1_555
C32A C31A 1_555 1_555
C33A C32A 1_555 1_555
H24A C33A 1_555 1_555
C34A C33A 1_555 1_555
C35A C30A 1_555 1_555
H25A C35A 1_555 1_555
C36A C34A 1_555 1_555
C37A C32A 1_555 1_555
C38A C39A 1_555 1_555
C39A C40A 1_555 1_555
C40A H26A 1_555 1_555
C41A C40A 1_555 1_555
C42A C41A 1_555 1_555
H27A C42A 1_555 1_555
C43A C42A 1_555 1_555
C44A C39A 1_555 1_555
H28A C44A 1_555 1_555
C45A C43A 1_555 1_555
C46A C45A 1_555 1_555
H29A C46A 1_555 1_555
C47A C46A 1_555 1_555
H30A C47A 1_555 1_555
C48A C47A 1_555 1_555
C49A C48A 1_555 1_555
H31A C49A 1_555 1_555
C50A C45A 1_555 1_555
H32A C50A 1_555 1_555
C51A C41A 1_555 1_555
C52A C48A 1_555 1_555
O2A Cd2A 1_555 1_555
O3A Cd2 1_555 1_555
O4A C23A 1_555 1_555
O5A C23A 1_555 1_555
O5A_2 Cd3 1_555 1_555
O5_2 Cd3A 1_555 1_555
O6A C38A 1_555 1_555
O6_2 Cd3 1_555 1_555
O6A_2 Cd3A 1_555 1_555
O7A C38A 1_555 1_555
O7A_2 Cd3 1_555 1_555
O7_2 Cd3A 1_555 1_555
O8A C51A 1_555 1_555
O8A_2 Cd3 1_555 1_555
O8_2 Cd3A 1_555 1_555
O9A Cd3_5 1_555 1_555
O9A_2 Cd3 1_555 1_555
O9_2 Cd3A 1_555 1_555
O10A Cd2A 1_555 1_555
O11A Cd2 1_555 1_555
O12A C36A 1_555 1_555
O12_2 Cd2 1_555 1_555
O12A_2 Cd2A 1_555 1_555
O13A Cd2A_2 1_555 1_555
O13_2 Cd2 1_555 1_555
O13A_2 Cd2A 1_555 1_555
C2 N3 1_555 1_555
C6 N3 1_555 1_555
C8 N2 1_555 1_555
C11 N2 1_555 1_555
C15 N1 1_555 1_555
C20 C21 1_555 1_555
C20 N4 1_555 1_555
C22 N4 1_555 1_555
N1 Cd1A 1_555 1_555
N2 Cd1A 1_555 1_555
C28 C29 1_555 1_555
C34 C35 1_555 1_555
C43 C44 1_555 1_555
C49 C50 1_555 1_555
C52 O10 1_555 1_555
O9 Cd3A_4 1_555 1_555
O11 Cd2A 1_555 1_555
O13 Cd2_2 1_555 1_555
Cd1A N1A 1_555 1_555
Cd1A N2A 1_555 1_555
C2A N3A 1_555 1_555
C6A N3A 1_555 1_555
C8A N2A 1_555 1_555
C11A C16A 1_555 1_555
C11A N2A 1_555 1_555
C12A N1A 1_555 1_555
C14A C15A 1_555 1_555
C15A N1A 1_555 1_555
C20A C21A 1_555 1_555
C20A N4A 1_555 1_555
C22A N4A 1_555 1_555
C28A C29A 1_555 1_555
C34A C35A 1_555 1_555
C36A O13A 1_555 1_555
C37A O2A 1_555 1_555
C37A O3A 1_555 1_555
C43A C44A 1_555 1_555
C49A C50A 1_555 1_555
C51A O9A 1_555 1_555
C52A O10A 1_555 1_555
C52A O11A 1_555 1_555

#END
