
#######################################################################
#
#                 Cambridge Crystallographic Data Centre
#                                CCDC 
#
#######################################################################
#
# If this CIF has been generated from an entry in the Cambridge 
# Structural Database, then it will include bibliographic, chemical, 
# crystal, experimental, refinement or atomic coordinate data resulting 
# from the CCDC's data processing and validation procedures.
#
#######################################################################

data_FOFHUE
_chemical_formula_moiety         '(C8 H18 Ga2 Mn1 N3 O20 P3)n'
_symmetry_cell_setting           triclinic
_symmetry_space_group_name_H-M   'P -1'
_symmetry_Int_Tables_number      2
_space_group_name_Hall           '-P 1'
loop_
_symmetry_equiv_pos_site_id
_symmetry_equiv_pos_as_xyz
1 x,y,z
2 -x,-y,-z
_cell_length_a                   9.5286(8)
_cell_length_b                   10.1451(8)
_cell_length_c                   12.5796(10)
_cell_angle_alpha                86.4290(10)
_cell_angle_beta                 69.6060(10)
_cell_angle_gamma                62.3380(10)
_cell_volume                     1002.27
loop_
_atom_site_label
_atom_site_type_symbol
_atom_site_fract_x
_atom_site_fract_y
_atom_site_fract_z
Ga1 Ga -0.13341(5) -0.08210(5) 0.16374(3)
Ga2 Ga -0.10299(5) -0.14605(5) -0.33679(3)
Mn1 Mn -0.25326(8) -0.23574(7) 0.43414(5)
P1 P -0.00442(12) -0.15739(11) -0.11276(8)
P2 P -0.11161(12) -0.03463(11) 0.41554(8)
P3 P -0.51440(12) 0.01369(11) 0.31756(8)
O1 O -0.1164(4) -0.0775(3) 0.0070(2)
O2 O 0.1250(3) -0.1028(3) -0.1739(2)
O3 O -0.1184(3) -0.1442(3) -0.1776(2)
O4 O 0.1114(4) -0.3307(3) -0.1111(3)
O5 O 0.0445(3) -0.0153(3) 0.3593(2)
O6 O -0.0939(4) -0.1485(3) 0.5024(2)
O7 O -0.1564(4) -0.0953(3) 0.3295(2)
O8 O -0.2651(3) 0.1223(3) 0.4758(2)
O9 O -0.3764(3) 0.0136(3) 0.2080(2)
O10 O -0.6559(3) 0.0202(3) 0.2797(2)
O11 O -0.5766(4) 0.1504(3) 0.3994(2)
O12 O -0.4543(3) -0.1314(3) 0.3731(2)
O13 O -0.1472(4) -0.3267(3) -0.3247(2)
O14 O 0.1401(4) -0.3151(3) -0.3884(3)
O15 O 0.1168(3) -0.2137(3) 0.1262(2)
O16 O -0.1265(3) -0.2856(3) 0.1632(2)
O17 O 0.2898(4) -0.5618(3) -0.4424(3)
O18 O -0.0062(4) -0.5756(3) -0.3715(3)
O19 O 0.0623(4) -0.5283(3) 0.1102(3)
O20 O 0.3102(4) -0.4536(3) 0.0995(3)
C1 C 0.0214(5) -0.3955(5) 0.1302(3)
C2 C 0.1639(5) -0.3536(4) 0.1159(3)
C3 C -0.0145(5) -0.4510(4) -0.3635(3)
C4 C 0.1537(5) -0.4436(5) -0.4031(3)
H1 H -0.3606 0.1188 0.5173
H2 H 0.0847 -0.3974 -0.1109
Ga1A Ga 0.13341(5) 0.08210(5) -0.16374(3)
Ga2A Ga 0.10299(5) 0.14605(5) 0.33679(3)
Ga2_2 Ga -0.10299(5) -0.14605(5) 0.66321(3)
Ga2A_2 Ga -0.89701(5) 0.14605(5) 0.33679(3)
Mn1A Mn -0.74674(8) 0.23574(7) 0.56586(5)
Mn1A_2 Mn 0.25326(8) -0.76426(7) -0.43414(5)
O2A O -0.1250(3) 0.1028(3) 0.1739(2)
O5A O -0.0445(3) 0.0153(3) -0.3593(2)
O6_2 O -0.0939(4) -0.1485(3) -0.4976(2)
O10A O -0.3441(3) -0.0202(3) -0.2797(2)
O11A O -0.4234(4) -0.1504(3) 0.6006(2)
O17A O -0.2898(4) -0.4382(3) 0.4424(3)
O18A O 0.0062(4) -0.4244(3) 0.3715(3)
N1 N 0.4376(5) -0.3451(4) -0.3354(3)
N2 N 0.5940(5) -0.7234(4) -0.2226(3)
N3 N 0.4004(6) -0.7739(5) 0.0827(4)
C5 C 0.5212(6) -0.4601(5) -0.2679(4)
C6 C 0.4501(6) -0.6988(5) -0.1138(4)
C7 C 0.5459(7) -0.6114(5) -0.3047(4)
C8 C 0.5151(7) -0.8126(6) -0.0355(4)
H3 H 0.4937 -0.4003 -0.4125
H4 H 0.4506 -0.2754 -0.3413
H5 H 0.3422 -0.3203 -0.3331
H6 H 0.6614 -0.7221 -0.1969
H7 H 0.6404 -0.8231 -0.2660
H8 H 0.3219 -0.8162 0.0989
H9 H 0.3476 -0.6590 0.1119
H10 H 0.4659 -0.8261 0.1335
H11 H 0.4635 -0.4313 -0.1908
H12 H 0.6211 -0.4595 -0.2806
H13 H 0.6319 -0.6575 -0.3817
H14 H 0.4333 -0.5889 -0.3059
H15 H 0.4051 -0.6029 -0.0785
H16 H 0.3655 -0.7060 -0.1341
H17 H 0.5364 -0.9080 -0.0630
H18 H 0.6215 -0.8212 -0.0384
loop_
_geom_bond_atom_site_label_1
_geom_bond_atom_site_label_2
_geom_bond_site_symmetry_1
_geom_bond_site_symmetry_2
Ga1 O1 1_555 1_555
Ga2 O3 1_555 1_555
Mn1 O6 1_555 1_555
P1 O1 1_555 1_555
P2 O5 1_555 1_555
P3 O9 1_555 1_555
O2 P1 1_555 1_555
O3 P1 1_555 1_555
O4 P1 1_555 1_555
O5 Ga2A 1_555 1_555
O6 P2 1_555 1_555
O7 Ga1 1_555 1_555
O8 P2 1_555 1_555
O9 Ga1 1_555 1_555
O10 P3 1_555 1_555
O11 P3 1_555 1_555
O12 Mn1 1_555 1_555
O13 Ga2 1_555 1_555
O14 Ga2 1_555 1_555
O15 Ga1 1_555 1_555
O16 Ga1 1_555 1_555
O17 C4 1_555 1_555
O18 C3 1_555 1_555
O19 C1 1_555 1_555
O20 C2 1_555 1_555
C1 O16 1_555 1_555
C2 O15 1_555 1_555
C3 O13 1_555 1_555
C4 O14 1_555 1_555
N1 C5 1_555 1_555
N2 C6 1_555 1_555
N3 C8 1_555 1_555
C5 C7 1_555 1_555
C6 C8 1_555 1_555
C7 N2 1_555 1_555
C8 H17 1_555 1_555
H1 O8 1_555 1_555
H2 O4 1_555 1_555
H3 N1 1_555 1_555
H4 N1 1_555 1_555
H5 N1 1_555 1_555
H6 N2 1_555 1_555
H7 N2 1_555 1_555
H8 N3 1_555 1_555
H9 N3 1_555 1_555
H10 N3 1_555 1_555
H11 C5 1_555 1_555
H12 C5 1_555 1_555
H13 C7 1_555 1_555
H14 C7 1_555 1_555
H15 C6 1_555 1_555
H16 C6 1_555 1_555
H18 C8 1_555 1_555
Ga1A O2 1_555 1_555
Ga2_2 O6 1_555 1_555
Ga2A_2 O10 1_555 1_555
Mn1A O11 1_555 1_555
Mn1A_2 O17 1_555 1_555
O2A Ga1 1_555 1_555
O5A Ga2 1_555 1_555
O6_2 Ga2 1_555 1_555
O10A Ga2 1_555 1_555
O11A Mn1 1_555 1_555
O17A Mn1 1_555 1_555
O18A Mn1 1_555 1_555
Mn1 O7 1_555 1_555
P2 O7 1_555 1_555
P3 O12 1_555 1_555
O18 Mn1A_2 1_555 1_555
C1 C2 1_555 1_555
C3 C4 1_555 1_555

#END
