
#######################################################################
#
#                 Cambridge Crystallographic Data Centre
#                                CCDC 
#
#######################################################################
#
# If this CIF has been generated from an entry in the Cambridge 
# Structural Database, then it will include bibliographic, chemical, 
# crystal, experimental, refinement or atomic coordinate data resulting 
# from the CCDC's data processing and validation procedures.
#
#######################################################################

data_FOFHEO
_chemical_formula_moiety         '(C5 H4 F2 Ga4 Mn1 O22 P4 2-)n'
_symmetry_cell_setting           monoclinic
_symmetry_space_group_name_H-M   'C 2/c'
_symmetry_Int_Tables_number      15
_space_group_name_Hall           '-C 2yc'
loop_
_symmetry_equiv_pos_site_id
_symmetry_equiv_pos_as_xyz
1 x,y,z
2 1/2+x,1/2+y,z
3 -x,y,1/2-z
4 1/2-x,1/2+y,1/2-z
5 -x,-y,-z
6 1/2-x,1/2-y,-z
7 x,-y,1/2+z
8 1/2+x,1/2-y,1/2+z
_cell_length_a                   18.9522(12)
_cell_length_b                   15.9644(10)
_cell_length_c                   9.0028(6)
_cell_angle_alpha                90
_cell_angle_beta                 97.9270(10)
_cell_angle_gamma                90
_cell_volume                     2697.86
loop_
_atom_site_label
_atom_site_type_symbol
_atom_site_fract_x
_atom_site_fract_y
_atom_site_fract_z
Ga1 Ga 0.23686(3) 0.38119(4) 0.92241(6)
Ga2 Ga 0.17235(3) 0.13109(3) 0.60289(6)
Mn1 Mn -0.0000 0.12520(7) 0.7500
P1 P 0.14485(7) 0.22424(8) 0.90789(14)
P2 P 0.27649(7) 0.52195(8) 1.16057(14)
F1 F 0.07292(17) 0.1262(2) 0.5898(3)
O1 O 0.0651(2) 0.2125(3) 0.8823(5)
O2 O 0.1604(2) 0.3172(2) 0.9508(4)
O3 O 0.1756(2) 0.1693(3) 1.0435(5)
O4 O 0.1834(2) 0.2031(3) 0.7752(4)
O5 O 0.2266(2) 0.4699(2) 1.0466(4)
O6 O 0.2271(2) 0.5852(2) 1.2263(4)
O7 O 0.3322(2) 0.5681(2) 1.0833(4)
O8 O 0.3157(2) 0.4703(2) 1.2866(4)
O9 O 0.2761(2) 0.1568(2) 0.5958(4)
O10 O 0.3420(2) 0.2632(2) 0.5253(4)
O11 O 0.0501(6) 0.0317(7) 0.9175(14)
C3 C 0.2844(3) 0.2264(3) 0.5351(5)
Ga1B Ga -0.23686(3) 0.38119(4) 0.57759(6)
Ga1E Ga 0.26314(3) 0.11881(4) 1.07759(6)
Ga1F Ga 0.23686(3) 0.61881(4) 1.42241(6)
Ga1G Ga -0.26314(3) 0.11881(4) 0.42241(6)
Ga1F_2 Ga 0.23686(3) 0.61881(4) 0.42241(6)
Ga2B Ga -0.17235(3) 0.13109(3) 0.89711(6)
Ga2C Ga 0.32765(3) 0.63109(3) 0.89711(6)
Ga2E Ga 0.32765(3) 0.36891(3) 1.39711(6)
Ga2E_2 Ga 0.32765(3) 0.36891(3) 0.39711(6)
P1B P -0.14485(7) 0.22424(8) 0.59211(14)
P2F P 0.27649(7) 0.47805(8) 0.66057(14)
F1B F -0.07292(17) 0.1262(2) 0.9102(3)
O1B O -0.0651(2) 0.2125(3) 0.6177(5)
O2B O -0.1604(2) 0.3172(2) 0.5492(4)
O3B O -0.1756(2) 0.1693(3) 0.4565(5)
O3E O 0.3244(2) 0.3307(3) 0.9565(5)
O3G O -0.3244(2) 0.3307(3) 0.5435(5)
O4B O -0.1834(2) 0.2031(3) 0.7248(4)
O5F O 0.2266(2) 0.5301(2) 0.5466(4)
O5B O -0.2266(2) 0.4699(2) 0.4534(4)
O6F O 0.2271(2) 0.4148(2) 0.7263(4)
O6D O -0.2271(2) 0.4148(2) 0.7737(4)
O7F O 0.3322(2) 0.4319(2) 0.5833(4)
O7C O 0.1678(2) 0.0681(2) 0.4167(4)
O7A O -0.1678(2) 0.0681(2) 1.0833(4)
O8F O 0.3157(2) 0.5297(2) 0.7866(4)
O8E O 0.1843(2) 0.0297(2) 0.7134(4)
O8G O -0.1843(2) 0.0297(2) 0.7866(4)
O9E O 0.2239(2) 0.3432(2) 0.4042(4)
O9B O -0.2761(2) 0.1568(2) 0.9042(4)
O10E O 0.1580(2) 0.2368(2) 0.4747(4)
O10G O -0.1580(2) 0.2368(2) 1.0253(4)
O11B O -0.0501(6) 0.0317(7) 0.5825(14)
C3E C 0.2156(3) 0.2736(3) 0.4649(5)
C1 C 0.5000 0.3018(12) 0.7500
C2 C 0.5493(8) 0.3643(8) 0.6946(17)
C2B C 0.4507(8) 0.3643(8) 0.8054(17)
loop_
_geom_bond_atom_site_label_1
_geom_bond_atom_site_label_2
_geom_bond_site_symmetry_1
_geom_bond_site_symmetry_2
C1 C2 1_555 1_555
Ga1 O2 1_555 1_555
Ga2 F1 1_555 1_555
Mn1 F1 1_555 1_555
P1 O1 1_555 1_555
P2 O5 1_555 1_555
O1 Mn1 1_555 1_555
O2 P1 1_555 1_555
O3 P1 1_555 1_555
O4 Ga2 1_555 1_555
O5 Ga1 1_555 1_555
O6 P2 1_555 1_555
O7 P2 1_555 1_555
O8 P2 1_555 1_555
O9 Ga2 1_555 1_555
O10 C3 1_555 1_555
O11 Mn1 1_555 1_555
C3 O9 1_555 1_555
C2B C1 1_555 1_555
Ga1B O2B 1_555 1_555
Ga1E O3 1_555 1_555
Ga1F O6 1_555 1_555
Ga1G O3B 1_555 1_555
Ga1F_2 O5F 1_555 1_555
Ga2B F1B 1_555 1_555
Ga2C O7 1_555 1_555
Ga2E O8 1_555 1_555
Ga2E_2 O10 1_555 1_555
P1B O1B 1_555 1_555
P2F O5F 1_555 1_555
F1B Mn1 1_555 1_555
O1B Mn1 1_555 1_555
O2B P1B 1_555 1_555
O3B P1B 1_555 1_555
O3E Ga1 1_555 1_555
O3G Ga1B 1_555 1_555
O4B Ga2B 1_555 1_555
O5B Ga1B 1_555 1_555
O6F Ga1 1_555 1_555
O6D Ga1B 1_555 1_555
O7F Ga2E_2 1_555 1_555
O7C Ga2 1_555 1_555
O7A Ga2B 1_555 1_555
O8F Ga2C 1_555 1_555
O8E Ga2 1_555 1_555
O8G Ga2B 1_555 1_555
O9E Ga2E_2 1_555 1_555
O9B Ga2B 1_555 1_555
O10E Ga2 1_555 1_555
O10G Ga2B 1_555 1_555
O11B Mn1 1_555 1_555
C3E C3 1_555 1_555
P1 O4 1_555 1_555
P1B O4B 1_555 1_555
P2F O6F 1_555 1_555
P2F O7F 1_555 1_555
P2F O8F 1_555 1_555
O9E C3E 1_555 1_555
O10E C3E 1_555 1_555

#END
