
#######################################################################
#
#                 Cambridge Crystallographic Data Centre
#                                CCDC 
#
#######################################################################
#
# If this CIF has been generated from an entry in the Cambridge 
# Structural Database, then it will include bibliographic, chemical, 
# crystal, experimental, refinement or atomic coordinate data resulting 
# from the CCDC's data processing and validation procedures.
#
#######################################################################

data_GAWLIB
_chemical_formula_moiety         '(C57 H50 F18 O40 Tb4)n'
_symmetry_cell_setting           triclinic
_symmetry_space_group_name_H-M   'P -1'
_symmetry_Int_Tables_number      2
_space_group_name_Hall           '-P 1'
loop_
_symmetry_equiv_pos_site_id
_symmetry_equiv_pos_as_xyz
1 x,y,z
2 -x,-y,-z
_cell_length_a                   8.1360(7)
_cell_length_b                   21.3945(18)
_cell_length_c                   22.8798(19)
_cell_angle_alpha                82.374(1)
_cell_angle_beta                 82.746(1)
_cell_angle_gamma                79.437(1)
_cell_volume                     3859.17
loop_
_atom_site_label
_atom_site_type_symbol
_atom_site_fract_x
_atom_site_fract_y
_atom_site_fract_z
Tb1 Tb 0.26164(5) 0.905686(19) 1.464796(16)
Tb2 Tb 0.03374(5) 0.752205(19) 1.403847(16)
Tb3 Tb 0.29943(5) 0.424100(18) 1.783780(16)
Tb4 Tb -0.11363(5) 0.471700(17) 1.932400(15)
O1 O 0.4477(8) 0.8276(3) 1.5144(3)
O2 O 0.5357(7) 0.9315(3) 1.4343(3)
H1 H 0.5841 0.9576 1.4480
H2 H 0.5360 0.9439 1.3975
O3 O 0.5443(9) 0.7240(3) 1.5234(3)
O4 O 0.2203(8) 1.0135(3) 1.4184(3)
H3 H 0.1303 1.0323 1.4361
H4 H 0.2923 1.0381 1.4162
O5 O 0.1476(7) 0.8058(3) 1.4787(2)
O6 O -0.2615(8) 0.7573(3) 1.4158(3)
H5 H -0.2887 0.7440 1.4518
H6 H -0.3067 0.7371 1.3944
O7 O -0.0225(8) 0.7394(4) 1.5121(3)
O8 O -0.0088(10) 0.6422(3) 1.4295(4)
H7 H -0.0264 0.6273 1.3986
H8 H -0.0935 0.6410 1.4553
O9 O 0.2947(8) 0.5344(3) 1.7957(3)
O10 O 0.2879(8) 0.6817(3) 1.4218(3)
H9 H 0.3747 0.6871 1.3982
H10 H 0.3265 0.6499 1.4455
O11 O 0.0688(7) 0.5023(3) 1.8424(2)
O12 O 0.5919(7) 0.4304(3) 1.7823(3)
H11 H 0.6652 0.4079 1.7603
H12 H 0.6170 0.4206 1.8177
O13 O 0.0648(7) 0.5389(2) 1.9584(2)
O14 O 0.0787(8) 0.4506(3) 1.7189(3)
H13 H 0.0164 0.4226 1.7198
H14 H 0.0168 0.4852 1.7281
O15 O 0.1918(7) 0.6081(3) 1.9889(2)
O16 O 0.3981(10) 0.4720(4) 1.6858(3)
H15 H 0.5014 0.4746 1.6849
H16 H 0.3412 0.5092 1.6791
O17 O 0.1149(7) 0.9205(3) 1.5640(2)
O18 O -0.4021(7) 0.4630(3) 1.9158(2)
H17 H -0.4167 0.4275 1.9062
H18 H -0.4849 0.4664 1.9425
O19 O 0.3335(8) 0.9690(3) 1.5370(2)
O21 O 0.0056(8) 1.0664(3) 1.5693(3)
O22 O 0.0662(8) 1.1402(3) 1.6192(3)
O24 O 0.6543(8) 1.1339(3) 1.6230(2)
O26 O 0.7374(7) 1.2140(3) 1.6567(2)
O28 O 0.4214(8) 1.3011(3) 1.6568(3)
O29 O 0.4292(8) 1.3321(3) 1.7454(3)
O31 O -0.0008(7) 0.7313(3) 1.3122(2)
O32 O 0.1268(8) 0.6404(3) 1.2780(2)
O33 O -0.1082(7) 0.6445(3) 1.1858(2)
O34 O 0.1231(7) 0.6028(3) 1.1320(2)
O35 O 0.6409(7) 0.6081(3) 1.1204(2)
O36 O 0.8674(7) 0.6039(3) 1.0531(2)
O37 O 0.6717(7) 0.5408(2) 0.9893(2)
O38 O 0.7463(7) 0.5811(3) 0.8980(2)
F1 F -0.3204(7) 0.8020(3) 1.6970(3)
F2 F -0.3362(7) 0.7523(3) 1.7848(2)
F3 F -0.2286(7) 0.7014(3) 1.7113(2)
F4 F -0.1061(10) 0.8788(3) 1.7034(2)
F5 F -0.2090(9) 0.8573(3) 1.7938(2)
F6 F 0.0591(9) 0.8520(3) 1.7720(2)
F7 F 0.0463(7) 1.0653(3) 1.8303(2)
F8 F 0.1383(8) 0.9660(2) 1.8514(2)
F9 F 0.2064(8) 1.0344(3) 1.9002(2)
F10 F 0.5410(8) 1.0158(3) 1.8674(3)
F11 F 0.4681(7) 0.9292(2) 1.8490(2)
F12 F 0.6196(7) 0.9808(3) 1.7834(3)
F13 F 0.0294(7) 0.8884(3) 1.0324(2)
F14 F 0.1830(8) 0.8789(3) 0.9498(2)
F15 F 0.0616(7) 0.8030(3) 0.9904(2)
F16 F 0.4790(8) 0.8871(3) 0.9837(2)
F17 F 0.3065(8) 0.9272(2) 1.0539(2)
F18 F 0.5198(7) 0.8540(3) 1.0735(2)
C1 C 0.4409(10) 0.7705(4) 1.5376(4)
C2 C 0.3077(11) 0.7622(4) 1.5885(3)
C3 C 0.1388(10) 0.7671(4) 1.5817(3)
C4 C 0.0189(11) 0.7663(4) 1.6306(3)
H19 H -0.0940 0.7701 1.6251
C5 C 0.0668(11) 0.7600(4) 1.6876(3)
C6 C 0.2356(11) 0.7519(4) 1.6947(4)
H20 H 0.2694 0.7464 1.7326
C7 C 0.3554(11) 0.7518(4) 1.6459(4)
H21 H 0.4688 0.7448 1.6514
C8 C 0.0826(11) 0.7727(4) 1.5205(3)
C9 C -0.0653(11) 0.7683(4) 1.7429(3)
C10 C -0.0059(11) 0.7240(4) 1.7974(3)
C11 C 0.0504(10) 0.6589(4) 1.7907(3)
H22 H 0.0586 0.6454 1.7533
C12 C 0.0941(10) 0.6145(4) 1.8382(3)
C13 C 0.0848(10) 0.6350(4) 1.8952(3)
C14 C 0.0307(11) 0.6996(4) 1.9004(3)
H23 H 0.0255 0.7138 1.9374
C15 C -0.0155(12) 0.7436(4) 1.8533(3)
H24 H -0.0530 0.7864 1.8589
C16 C 0.1558(11) 0.5465(4) 1.8261(3)
C17 C 0.1176(10) 0.5922(4) 1.9495(3)
C18 C -0.2408(12) 0.7556(5) 1.7344(4)
C19 C -0.0790(15) 0.8402(4) 1.7542(4)
C20 C 0.2178(11) 0.9538(4) 1.5755(4)
C21 C 0.2211(10) 0.9718(4) 1.6361(3)
C22 C 0.1591(10) 1.0327(4) 1.6526(3)
C23 C 0.1974(10) 1.0487(4) 1.7059(3)
H25 H 0.1579 1.0898 1.7163
C24 C 0.2920(10) 1.0053(4) 1.7435(3)
C25 C 0.3493(13) 0.9432(4) 1.7285(4)
H26 H 0.4121 0.9130 1.7537
C26 C 0.3114(12) 0.9273(4) 1.6757(4)
H27 H 0.3471 0.8856 1.6662
C27 C 0.0701(10) 1.0843(4) 1.6109(3)
C28 C 0.3346(11) 1.0287(4) 1.7996(3)
C29 C 0.3729(10) 1.0976(4) 1.7834(3)
C30 C 0.4816(10) 1.1088(4) 1.7334(3)
H28 H 0.5354 1.0742 1.7135
C31 C 0.5137(10) 1.1689(4) 1.7116(3)
C32 C 0.4297(10) 1.2216(4) 1.7405(3)
C33 C 0.3269(10) 1.2109(4) 1.7924(3)
H29 H 0.2774 1.2452 1.8133
C34 C 0.2961(11) 1.1495(4) 1.8141(3)
H30 H 0.2249 1.1431 1.8487
C35 C 0.6443(10) 1.1739(4) 1.6596(4)
C36 C 0.4286(10) 1.2902(4) 1.7118(4)
C37 C 0.1815(13) 1.0236(4) 1.8467(4)
C38 C 0.4917(12) 0.9877(4) 1.8252(4)
C39 C 0.0726(10) 0.6990(4) 1.2712(4)
C40 C 0.1071(9) 0.7357(4) 1.2105(3)
C41 C 0.1052(9) 0.7068(4) 1.1581(3)
C42 C 0.1605(10) 0.7364(4) 1.1043(3)
H31 H 0.1568 0.7177 1.0702
C43 C 0.2224(9) 0.7939(4) 1.0990(3)
C44 C 0.2199(10) 0.8228(4) 1.1508(4)
H32 H 0.2567 0.8619 1.1485
C45 C 0.1642(10) 0.7941(4) 1.2041(3)
H33 H 0.1640 0.8141 1.2378
C46 C 0.0352(10) 0.6462(4) 1.1597(3)
C47 C 0.2961(10) 0.8199(4) 1.0360(3)
C48 C 0.4095(11) 0.7636(4) 1.0083(3)
C49 C 0.5117(10) 0.7206(4) 1.0447(4)
H34 H 0.5147 0.7290 1.0834
C50 C 0.6091(10) 0.6659(4) 1.0256(3)
C51 C 0.6037(10) 0.6525(4) 0.9680(3)
C52 C 0.5127(11) 0.6975(4) 0.9297(3)
H35 H 0.5166 0.6904 0.8903
C53 C 0.4161(11) 0.7525(4) 0.9490(3)
H36 H 0.3558 0.7821 0.9227
C54 C 0.7168(10) 0.6215(4) 1.0692(3)
C55 C 0.6799(9) 0.5876(4) 0.9501(3)
C56 C 0.1427(13) 0.8479(4) 1.0017(4)
C57 C 0.3996(12) 0.8723(4) 1.0372(4)
Tb1A Tb -0.26164(5) 1.094314(19) 1.535204(16)
Tb1A_2 Tb 0.73836(5) 1.094314(19) 1.535204(16)
Tb2A Tb -0.03374(5) 1.247795(19) 1.596153(16)
Tb2A_2 Tb 0.96626(5) 1.247795(19) 1.596153(16)
Tb3_2 Tb 0.29943(5) 1.424100(18) 1.783780(16)
Tb3A Tb -0.29943(5) 0.575900(18) 1.216220(16)
Tb3A_2 Tb 0.70057(5) 0.575900(18) 1.216220(16)
Tb4A Tb 0.11363(5) 0.528300(17) 2.067600(15)
Tb4A_2 Tb 0.11363(5) 0.528300(17) 1.067600(15)
Tb4A_3 Tb 1.11363(5) 0.528300(17) 1.067600(15)
Tb4_2 Tb 0.88637(5) 0.471700(17) 0.932400(15)
O13A O -0.0648(7) 0.4611(2) 2.0416(2)
O15A O -0.1918(7) 0.3919(3) 2.0111(2)
O21A O -0.0056(8) 0.9336(3) 1.4307(3)
O22A O -0.0662(8) 0.8598(3) 1.3808(3)
O24A O 0.3457(8) 0.8661(3) 1.3770(2)
O26A O 0.2626(7) 0.7860(3) 1.3433(2)
O29_2 O 0.4292(8) 0.3321(3) 1.7454(3)
O33A O 0.1082(7) 0.3555(3) 1.8142(2)
O34A O -0.1231(7) 0.3972(3) 1.8680(2)
O35A O 0.3591(7) 0.3919(3) 1.8796(2)
O36A O 0.1326(7) 0.3961(3) 1.9469(2)
O37_2 O -0.3283(7) 0.5408(2) 1.9893(2)
O38_2 O -0.2537(7) 0.5811(3) 1.8980(2)
O20 O 0.7294(12) 0.8736(4) 1.5452(5)
O23 O 0.8434(17) 0.5559(5) 0.6897(5)
O25 O 0.6242(14) 0.5700(6) 0.7904(4)
O27 O 0.7301(13) 0.4493(6) 0.6329(5)
O30 O 0.2770(13) 0.4091(4) 0.5921(5)
O39 O 0.925(7) 0.6198(13) 0.5766(18)
O40 O 0.459(4) 0.5992(13) 1.5218(12)
loop_
_geom_bond_atom_site_label_1
_geom_bond_atom_site_label_2
_geom_bond_site_symmetry_1
_geom_bond_site_symmetry_2
Tb1 O1 1_555 1_555
Tb2 O5 1_555 1_555
Tb3 O9 1_555 1_555
Tb4 O11 1_555 1_555
O1 C1 1_555 1_555
O2 Tb1 1_555 1_555
H1 O2 1_555 1_555
H2 O2 1_555 1_555
O3 C1 1_555 1_555
O4 Tb1 1_555 1_555
H3 O4 1_555 1_555
H4 O4 1_555 1_555
O5 Tb1 1_555 1_555
O6 Tb2 1_555 1_555
H5 O6 1_555 1_555
H6 O6 1_555 1_555
O7 Tb2 1_555 1_555
O8 Tb2 1_555 1_555
H7 O8 1_555 1_555
H8 O8 1_555 1_555
O9 C16 1_555 1_555
O10 Tb2 1_555 1_555
H9 O10 1_555 1_555
H10 O10 1_555 1_555
O11 Tb3 1_555 1_555
O12 Tb3 1_555 1_555
H11 O12 1_555 1_555
H12 O12 1_555 1_555
O13 Tb4 1_555 1_555
O14 Tb3 1_555 1_555
H13 O14 1_555 1_555
H14 O14 1_555 1_555
O15 C17 1_555 1_555
O16 Tb3 1_555 1_555
H15 O16 1_555 1_555
H16 O16 1_555 1_555
O17 Tb1 1_555 1_555
O18 Tb4 1_555 1_555
H17 O18 1_555 1_555
H18 O18 1_555 1_555
O19 Tb1 1_555 1_555
O21 C27 1_555 1_555
O22 C27 1_555 1_555
O24 C35 1_555 1_555
O26 C35 1_555 1_555
O28 C36 1_555 1_555
O29 C36 1_555 1_555
O31 Tb2 1_555 1_555
O32 C39 1_555 1_555
O33 C46 1_555 1_555
O34 C46 1_555 1_555
O35 C54 1_555 1_555
O36 C54 1_555 1_555
O37 C55 1_555 1_555
O38 C55 1_555 1_555
F1 C18 1_555 1_555
F2 C18 1_555 1_555
F3 C18 1_555 1_555
F4 C19 1_555 1_555
F5 C19 1_555 1_555
F6 C19 1_555 1_555
F7 C37 1_555 1_555
F8 C37 1_555 1_555
F9 C37 1_555 1_555
F10 C38 1_555 1_555
F11 C38 1_555 1_555
F12 C38 1_555 1_555
F13 C56 1_555 1_555
F14 C56 1_555 1_555
F15 C56 1_555 1_555
F16 C57 1_555 1_555
F17 C57 1_555 1_555
F18 C57 1_555 1_555
C1 C2 1_555 1_555
C2 C3 1_555 1_555
C3 C4 1_555 1_555
C4 H19 1_555 1_555
C5 C4 1_555 1_555
C6 C5 1_555 1_555
H20 C6 1_555 1_555
C7 C2 1_555 1_555
H21 C7 1_555 1_555
C8 O5 1_555 1_555
C9 C5 1_555 1_555
C10 C9 1_555 1_555
C11 C10 1_555 1_555
H22 C11 1_555 1_555
C12 C11 1_555 1_555
C13 C12 1_555 1_555
C14 C13 1_555 1_555
H23 C14 1_555 1_555
C15 C10 1_555 1_555
H24 C15 1_555 1_555
C16 O11 1_555 1_555
C17 O13 1_555 1_555
C18 C9 1_555 1_555
C19 C9 1_555 1_555
C20 O17 1_555 1_555
C21 C20 1_555 1_555
C22 C21 1_555 1_555
C23 C22 1_555 1_555
H25 C23 1_555 1_555
C24 C23 1_555 1_555
C25 C24 1_555 1_555
H26 C25 1_555 1_555
C26 C21 1_555 1_555
H27 C26 1_555 1_555
C27 C22 1_555 1_555
C28 C24 1_555 1_555
C29 C28 1_555 1_555
C30 C29 1_555 1_555
H28 C30 1_555 1_555
C31 C30 1_555 1_555
C32 C31 1_555 1_555
C33 C32 1_555 1_555
H29 C33 1_555 1_555
C34 C29 1_555 1_555
H30 C34 1_555 1_555
C35 C31 1_555 1_555
C36 C32 1_555 1_555
C37 C28 1_555 1_555
C38 C28 1_555 1_555
C39 O31 1_555 1_555
C40 C39 1_555 1_555
C41 C40 1_555 1_555
C42 C41 1_555 1_555
H31 C42 1_555 1_555
C43 C42 1_555 1_555
C44 C43 1_555 1_555
H32 C44 1_555 1_555
C45 C40 1_555 1_555
H33 C45 1_555 1_555
C46 C41 1_555 1_555
C47 C43 1_555 1_555
C48 C47 1_555 1_555
C49 C48 1_555 1_555
H34 C49 1_555 1_555
C50 C49 1_555 1_555
C51 C50 1_555 1_555
C52 C51 1_555 1_555
H35 C52 1_555 1_555
C53 C48 1_555 1_555
H36 C53 1_555 1_555
C54 C50 1_555 1_555
C55 C51 1_555 1_555
C56 C47 1_555 1_555
C57 C47 1_555 1_555
Tb1A O21 1_555 1_555
Tb1A_2 O24 1_555 1_555
Tb2A O22 1_555 1_555
Tb2A_2 O26 1_555 1_555
Tb3_2 O29 1_555 1_555
Tb3A O33 1_555 1_555
Tb3A_2 O35 1_555 1_555
Tb4A O13 1_555 1_555
Tb4A_2 O34 1_555 1_555
Tb4A_3 O36 1_555 1_555
Tb4_2 O37 1_555 1_555
O13A Tb4 1_555 1_555
O15A Tb4 1_555 1_555
O21A Tb1 1_555 1_555
O22A Tb2 1_555 1_555
O24A Tb1 1_555 1_555
O26A Tb2 1_555 1_555
O29_2 Tb3 1_555 1_555
O33A Tb3 1_555 1_555
O34A Tb4 1_555 1_555
O35A Tb3 1_555 1_555
O36A Tb4 1_555 1_555
O37_2 Tb4 1_555 1_555
O38_2 Tb4 1_555 1_555
O7 C8 1_555 1_555
O15 Tb4A 1_555 1_555
O19 C20 1_555 1_555
O38 Tb4_2 1_555 1_555
C3 C8 1_555 1_555
C6 C7 1_555 1_555
C12 C16 1_555 1_555
C13 C17 1_555 1_555
C14 C15 1_555 1_555
C25 C26 1_555 1_555
C33 C34 1_555 1_555
C44 C45 1_555 1_555
C52 C53 1_555 1_555
Tb4A O13A 1_555 1_555

#END
