
#######################################################################
#
#                 Cambridge Crystallographic Data Centre
#                                CCDC 
#
#######################################################################
#
# If this CIF has been generated from an entry in the Cambridge 
# Structural Database, then it will include bibliographic, chemical, 
# crystal, experimental, refinement or atomic coordinate data resulting 
# from the CCDC's data processing and validation procedures.
#
#######################################################################

data_JADMIN
_chemical_formula_moiety         '(C53 H44 Cd2 N4 O16)n'
_symmetry_cell_setting           monoclinic
_symmetry_space_group_name_H-M   'C 2/c'
_symmetry_Int_Tables_number      15
_space_group_name_Hall           '-C 2yc'
loop_
_symmetry_equiv_pos_site_id
_symmetry_equiv_pos_as_xyz
1 x,y,z
2 -x,y,1/2-z
3 1/2+x,1/2+y,z
4 1/2-x,1/2+y,1/2-z
5 -x,-y,-z
6 x,-y,1/2+z
7 1/2-x,1/2-y,-z
8 1/2+x,1/2-y,1/2+z
_cell_length_a                   46.403
_cell_length_b                   11.125
_cell_length_c                   24.144
_cell_angle_alpha                90
_cell_angle_beta                 98.48
_cell_angle_gamma                90
_cell_volume                     12327.7
loop_
_atom_site_label
_atom_site_type_symbol
_atom_site_fract_x
_atom_site_fract_y
_atom_site_fract_z
_atom_site_U_iso_or_equiv
_atom_site_thermal_displace_type
Cd1 Cd -0.01301(2) 0.66034(6) 0.43905(3) 0.0503 Uani
Cd2 Cd 0.28189(2) 0.86594(6) 0.42035(3) 0.0598 Uani
O1 O 0.12927(13) 0.5278(7) 0.2658(3) 0.1022 Uani
O2 O -0.10077(12) 1.2076(6) 0.1107(2) 0.0651 Uani
O3 O 0.00358(13) 0.4560(6) 0.3353(3) 0.0750 Uani
C1 C 0.07761(17) 0.7649(9) 0.5751(4) 0.0708 Uani
O4 O -0.12967(11) 0.9296(6) 0.0995(2) 0.0603 Uani
O5 O 0.01787(12) 0.8302(6) 0.4630(3) 0.0724 Uani
O6 O -0.15356(13) 1.1092(6) 0.2339(2) 0.0677 Uani
O7 O 0.02673(11) 0.6648(5) 0.5121(2) 0.0582 Uani
O8 O -0.08567(13) 1.0078(5) 0.2583(2) 0.0673 Uani
C2 C 0.06177(16) 0.8256(7) 0.5298(3) 0.0534 Uani
O9 O -0.03682(11) 0.4894(5) 0.4022(2) 0.0579 Uani
O10 O 0.26149(12) 0.9490(6) 0.4947(3) 0.0738 Uani
O11 O 0.23715(13) 0.8547(6) 0.3615(3) 0.0759 Uani
C3 C 0.1540(2) 0.5845(12) 0.2958(5) 0.0757 Uani
N1 N -0.04105(14) 0.7820(7) 0.3762(3) 0.0583 Uani
C4 C 0.20362(17) 0.6930(8) 0.3487(4) 0.0517 Uani
C5 C -0.09083(19) 1.3162(8) 0.0318(4) 0.0685 Uani
H1 H -0.1103 1.3389 0.0245 0.0830 Uiso
C6 C 0.1951(2) 0.5844(10) 0.3645(4) 0.0833 Uani
H2 H 0.2067 0.5450 0.3937 0.1010 Uiso
C7 C 0.10384(18) 0.5283(9) 0.2904(4) 0.0642 Uani
C8 C 0.05162(16) 0.5228(8) 0.3303(4) 0.0509 Uani
C9 C 0.10143(19) 0.5887(9) 0.3379(4) 0.0768 Uani
H3 H 0.1172 0.6301 0.3571 0.0920 Uiso
C10 C 0.05542(18) 0.4614(8) 0.2823(4) 0.0586 Uani
H4 H 0.0401 0.4167 0.2635 0.0700 Uiso
N2 N -0.19726(15) 1.2833(7) 0.3465(3) 0.0625 Uani
C11 C -0.06017(19) 0.7382(8) 0.3339(4) 0.0644 Uani
H5 H -0.0628 0.6554 0.3323 0.0770 Uiso
C12 C 0.06948(19) 0.9376(8) 0.5122(4) 0.0749 Uani
N3 N -0.04347(15) 1.3225(6) 0.0062(3) 0.0550 Uani
O12 O 0.24676(13) 0.6965(6) 0.4158(3) 0.0683 Uani
C13 C 0.07508(19) 0.5876(10) 0.3571(4) 0.0777 Uani
H6 H 0.0729 0.6315 0.3890 0.0930 Uiso
C14 C -0.13102(19) 1.1650(8) 0.2092(4) 0.0632 Uani
H7 H -0.1166 1.1992 0.2380 0.0760 Uiso
H8 H -0.1390 1.2291 0.1843 0.0760 Uiso
C15 C -0.05289(19) 0.9783(8) 0.3388(4) 0.0683 Uani
H9 H -0.0501 1.0609 0.3419 0.0820 Uiso
C16 C -0.14854(18) 0.8713(8) 0.0625(3) 0.0542 Uani
O13 O 0.02108(14) 0.6078(8) 0.3888(3) 0.1118 Uani
C17 C -0.07182(17) 0.9302(9) 0.2956(4) 0.0567 Uani
C18 C 0.1617(2) 0.6928(12) 0.2769(5) 0.0913 Uani
H10 H 0.1508 0.7300 0.2463 0.1090 Uiso
C19 C -0.07601(19) 0.8056(8) 0.2931(4) 0.0629 Uani
H11 H -0.0890 0.7703 0.2648 0.0760 Uiso
C20 C -0.09073(18) 1.1183(8) 0.1521(4) 0.0586 Uani
H12 H -0.0771 1.1541 0.1818 0.0700 Uiso
H13 H -0.0808 1.0543 0.1352 0.0700 Uiso
C21 C -0.08108(17) 1.2455(8) 0.0787(4) 0.0544 Uani
C22 C -0.11693(16) 1.0675(8) 0.1760(3) 0.0490 Uani
C23 C -0.05183(18) 1.2180(8) 0.0893(4) 0.0654 Uani
H14 H -0.0442 1.1726 0.1203 0.0790 Uiso
C24 C 0.1696(2) 0.5283(11) 0.3391(5) 0.1035 Uani
H15 H 0.1637 0.4547 0.3518 0.1240 Uiso
C25 C 0.08114(18) 0.4650(8) 0.2620(4) 0.0636 Uani
H16 H 0.0833 0.4249 0.2290 0.0760 Uiso
C26 C -0.13849(18) 0.7787(9) 0.0344(4) 0.0702 Uani
H17 H -0.1190 0.7569 0.0418 0.0840 Uiso
C27 C -0.16726(19) 1.1696(9) 0.2692(4) 0.0599 Uani
C28 C -0.14107(16) 1.0239(8) 0.1295(3) 0.0539 Uani
H18 H -0.1577 0.9952 0.1458 0.0640 Uiso
H19 H -0.1475 1.0897 0.1043 0.0640 Uiso
C29 C -0.1782(2) 1.3402(8) 0.3220(4) 0.0641 Uani
H20 H -0.1745 1.4202 0.3317 0.0770 Uiso
C30 C -0.03415(18) 1.2600(9) 0.0523(4) 0.0641 Uani
H21 H -0.0143 1.2435 0.0602 0.0770 Uiso
C31 C 0.1867(2) 0.7457(9) 0.3054(5) 0.0819 Uani
H22 H 0.1919 0.8215 0.2941 0.0980 Uiso
C32 C -0.03806(19) 0.9004(9) 0.3777(4) 0.0654 Uani
H23 H -0.0251 0.9334 0.4068 0.0780 Uiso
C33 C -0.10603(18) 0.9632(8) 0.2129(3) 0.0581 Uani
H24 H -0.1222 0.9243 0.2270 0.0700 Uiso
H25 H -0.0967 0.9046 0.1916 0.0700 Uiso
C34 C 0.03319(17) 0.7709(8) 0.4991(4) 0.0527 Uani
N4 N -0.18553(15) 0.7400(7) -0.0162(3) 0.0621 Uani
C35 C -0.15702(19) 0.7171(9) -0.0049(4) 0.0735 Uani
H26 H -0.1494 0.6562 -0.0248 0.0880 Uiso
C36 C -0.07243(19) 1.3515(9) -0.0025(4) 0.0717 Uani
H27 H -0.0796 1.3977 -0.0336 0.0860 Uiso
C37 C 0.02284(18) 0.5274(10) 0.3532(4) 0.0637 Uani
C38 C -0.1878(2) 1.1092(9) 0.2939(4) 0.0784 Uani
H28 H -0.1919 1.0289 0.2855 0.0940 Uiso
C39 C -0.16284(18) 1.2900(9) 0.2818(4) 0.0594 Uani
H29 H -0.1501 1.3361 0.2642 0.0710 Uiso
C40 C -0.17788(17) 0.8981(8) 0.0511(3) 0.0556 Uani
H30 H -0.1858 0.9603 0.0697 0.0670 Uiso
C41 C -0.2022(2) 1.1697(10) 0.3312(5) 0.0816 Uani
H31 H -0.2163 1.1280 0.3469 0.0980 Uiso
C42 C -0.19497(18) 0.8310(9) 0.0118(4) 0.0618 Uani
H32 H -0.2146 0.8505 0.0041 0.0740 Uiso
C43 C 0.23061(19) 0.7509(10) 0.3773(4) 0.0614 Uani
C44 C 0.0909(6) 1.003(4) 0.5471(11) 0.0782 Uani
H33 H 0.0949 1.0832 0.5398 0.0940 Uiso
C45 C 0.1054(4) 0.944(3) 0.5920(10) 0.0671 Uani
C46 C 0.0988(4) 0.8324(18) 0.6089(8) 0.0507 Uani
H34 H 0.1082 0.8010 0.6424 0.0610 Uiso
C47 C 0.1929(3) 1.3762(10) 0.5583(5) 0.0759 Uani
C48 C 0.1756(3) 1.2799(12) 0.5742(6) 0.0656 Uani
C49 C 0.1580(4) 1.3006(13) 0.6148(7) 0.0914 Uani
H35 H 0.1572 1.3765 0.6307 0.1100 Uiso
C50 C 0.1414(4) 1.2073(13) 0.6314(8) 0.0933 Uani
H36 H 0.1292 1.2203 0.6581 0.1120 Uiso
C51 C 0.1432(3) 1.0953(13) 0.6081(7) 0.0756 Uani
C52 C 0.1602(4) 1.0743(13) 0.5670(8) 0.0947 Uani
H37 H 0.1609 0.9984 0.5510 0.1140 Uiso
C53 C 0.1764(4) 1.1685(13) 0.5497(8) 0.0962 Uani
H38 H 0.1878 1.1563 0.5216 0.1150 Uiso
O14 O 0.1280(3) 0.9998(12) 0.6274(5) 0.0942 Uani
O15 O 0.1944(3) 1.4779(10) 0.5886(6) 0.0759 Uani
O16 O 0.2077(3) 1.3661(11) 0.5132(6) 0.1277 Uani
Cd1E Cd -0.01301(2) 1.33966(6) -0.06095(3) 0.0503 Uani
Cd2B Cd -0.21811(2) 1.36594(6) 0.42035(3) 0.0598 Uani
Cd2F Cd 0.21811(2) 1.63406(6) 0.57965(3) 0.0598 Uani
Cd2G Cd -0.21811(2) 0.63406(6) -0.07965(3) 0.0598 Uani
N2B N 0.30274(15) 0.7833(7) 0.3465(3) 0.0625 Uani
N3E N -0.04347(15) 0.6775(6) 0.5062(3) 0.0550 Uani
N4G N 0.31447(15) 0.7600(7) 0.4838(3) 0.0621 Uani
O15F O 0.3056(3) 1.0221(10) 0.4114(6) 0.0759 Uani
loop_
_atom_site_aniso_label
_atom_site_aniso_U_11
_atom_site_aniso_U_22
_atom_site_aniso_U_33
_atom_site_aniso_U_23
_atom_site_aniso_U_13
_atom_site_aniso_U_12
Cd1 0.0371(3) 0.0610(4) 0.0501(4) -0.0010(3) -0.0022(3) -0.0086(3)
Cd2 0.0575(4) 0.0637(5) 0.0564(5) -0.0014(4) 0.0020(3) -0.0025(3)
O1 0.048(4) 0.157(7) 0.100(5) -0.081(5) 0.006(4) -0.018(4)
O2 0.049(4) 0.088(5) 0.060(4) 0.022(4) 0.014(3) 0.008(3)
O3 0.062(4) 0.094(5) 0.068(4) -0.013(4) 0.006(3) -0.025(4)
C1 0.051(5) 0.089(7) 0.063(6) 0.025(5) -0.023(4) -0.029(5)
O4 0.038(3) 0.086(5) 0.054(4) -0.012(3) -0.003(3) 0.006(3)
O5 0.059(4) 0.071(4) 0.072(4) 0.007(4) -0.041(3) -0.003(3)
O6 0.072(4) 0.073(5) 0.063(4) -0.009(3) 0.026(4) -0.017(3)
O7 0.051(3) 0.052(4) 0.067(4) 0.001(3) -0.007(3) -0.020(3)
O8 0.078(4) 0.060(4) 0.055(4) 0.007(3) -0.020(3) -0.012(3)
C2 0.048(5) 0.054(5) 0.056(5) 0.006(4) 0.000(4) -0.009(4)
O9 0.048(3) 0.054(4) 0.069(4) 0.000(3) 0.000(3) -0.012(3)
O10 0.072(4) 0.073(5) 0.080(5) -0.012(4) 0.023(4) -0.016(3)
O11 0.067(4) 0.073(5) 0.083(5) -0.001(4) -0.005(4) -0.014(3)
C3 0.046(6) 0.103(9) 0.080(8) -0.037(7) 0.016(6) 0.000(6)
N1 0.054(4) 0.063(5) 0.053(5) -0.006(4) -0.008(4) -0.007(4)
C4 0.046(5) 0.049(6) 0.060(6) -0.016(5) 0.007(4) 0.001(4)
C5 0.049(6) 0.088(8) 0.069(7) 0.020(6) 0.010(5) 0.030(5)
C6 0.081(7) 0.083(8) 0.080(8) 0.008(6) -0.008(6) -0.018(6)
C7 0.036(5) 0.081(7) 0.073(7) -0.031(6) -0.001(5) -0.002(4)
C8 0.036(5) 0.063(6) 0.051(5) -0.002(5) -0.003(4) 0.007(4)
C9 0.045(6) 0.103(8) 0.081(7) -0.040(7) 0.005(5) -0.013(5)
C10 0.038(5) 0.067(6) 0.067(6) -0.019(5) -0.005(4) -0.006(4)
N2 0.058(5) 0.067(6) 0.066(5) 0.000(4) 0.021(4) -0.015(4)
C11 0.069(6) 0.054(6) 0.065(6) 0.017(5) -0.007(5) -0.017(5)
C12 0.081(7) 0.060(6) 0.076(7) 0.012(5) -0.014(5) -0.035(5)
N3 0.053(4) 0.066(5) 0.046(4) 0.001(4) 0.007(3) 0.009(4)
O12 0.052(4) 0.084(5) 0.069(4) -0.003(4) 0.009(3) -0.017(3)
C13 0.050(6) 0.105(9) 0.078(7) -0.037(6) 0.009(5) -0.006(5)
C14 0.067(6) 0.065(7) 0.057(6) 0.010(5) 0.007(5) -0.009(5)
C15 0.079(7) 0.049(6) 0.067(7) 0.002(5) -0.022(5) -0.012(5)
C16 0.046(5) 0.079(7) 0.038(5) 0.003(5) 0.008(4) 0.006(5)
O13 0.054(4) 0.153(8) 0.137(7) -0.088(6) 0.043(4) -0.042(4)
C17 0.039(5) 0.079(7) 0.049(6) 0.011(5) -0.004(4) -0.001(4)
C18 0.060(7) 0.119(11) 0.087(9) -0.005(8) -0.015(6) 0.001(7)
C19 0.066(6) 0.064(7) 0.052(6) 0.009(5) -0.014(5) -0.017(5)
C20 0.052(5) 0.067(6) 0.056(6) 0.017(5) 0.005(4) 0.005(4)
C21 0.039(5) 0.074(7) 0.051(6) 0.002(5) 0.009(4) 0.006(4)
C22 0.049(5) 0.058(6) 0.039(5) 0.005(4) 0.003(4) -0.001(4)
C23 0.047(6) 0.082(7) 0.063(6) 0.017(5) -0.006(5) 0.002(5)
C24 0.075(8) 0.113(10) 0.114(10) 0.005(8) -0.014(7) -0.045(7)
C25 0.048(6) 0.079(7) 0.062(6) -0.020(5) 0.002(5) 0.009(5)
C26 0.038(5) 0.085(7) 0.083(7) -0.018(6) -0.006(5) 0.024(5)
C27 0.059(6) 0.071(7) 0.050(6) -0.014(5) 0.009(5) -0.010(5)
C28 0.044(5) 0.068(6) 0.049(5) -0.003(5) 0.005(4) 0.001(4)
C29 0.071(7) 0.057(6) 0.063(6) -0.013(5) 0.006(5) -0.002(5)
C30 0.042(5) 0.091(8) 0.057(6) 0.016(6) 0.000(5) 0.000(5)
C31 0.059(6) 0.067(7) 0.114(9) 0.006(7) -0.006(6) 0.002(5)
C32 0.065(6) 0.058(7) 0.064(6) -0.005(5) -0.021(5) -0.009(5)
C33 0.055(5) 0.069(6) 0.046(5) 0.006(5) -0.007(4) -0.008(4)
C34 0.045(5) 0.054(6) 0.057(6) -0.014(5) 0.001(4) -0.012(4)
N4 0.054(5) 0.068(5) 0.061(5) 0.004(4) -0.002(4) 0.008(4)
C35 0.046(6) 0.097(8) 0.074(7) -0.024(6) -0.003(5) 0.022(5)
C36 0.054(6) 0.103(8) 0.060(6) 0.027(6) 0.015(5) 0.025(5)
C37 0.048(6) 0.082(8) 0.058(6) -0.005(6) -0.002(5) -0.010(5)
C38 0.080(7) 0.071(7) 0.091(8) -0.019(6) 0.035(6) -0.032(6)
C39 0.059(6) 0.067(7) 0.052(6) 0.009(5) 0.008(5) -0.009(5)
C40 0.040(5) 0.069(6) 0.056(6) -0.007(5) 0.001(4) 0.012(4)
C41 0.083(8) 0.079(8) 0.091(8) -0.002(7) 0.040(6) -0.022(6)
C42 0.039(5) 0.075(7) 0.067(6) -0.008(5) -0.007(4) 0.021(5)
C43 0.051(6) 0.068(7) 0.069(7) -0.019(6) 0.021(5) -0.001(5)
C44 0.084(18) 0.077(19) 0.069(14) 0.012(12) -0.004(11) -0.047(13)
C45 0.080(15) 0.080(17) 0.040(11) -0.009(9) 0.005(9) -0.038(12)
C46 0.048(8) 0.058(9) 0.044(8) 0.002(7) 0.000(7) -0.016(7)
C47 0.084(12) 0.072(10) 0.070(12) -0.002(8) 0.006(8) -0.039(9)
C48 0.071(11) 0.067(10) 0.062(12) -0.015(8) 0.020(8) -0.037(9)
C49 0.095(15) 0.098(11) 0.089(15) -0.040(10) 0.039(11) -0.053(11)
C50 0.099(14) 0.097(11) 0.092(16) -0.015(11) 0.041(11) -0.044(11)
C51 0.066(13) 0.087(11) 0.072(13) 0.002(10) 0.004(9) -0.041(11)
C52 0.102(16) 0.079(11) 0.109(16) -0.032(10) 0.035(11) -0.055(11)
C53 0.109(15) 0.084(11) 0.108(15) -0.038(11) 0.057(11) -0.053(11)
O14 0.094(11) 0.106(11) 0.076(9) 0.009(8) -0.009(6) -0.067(8)
O15 0.083(10) 0.067(9) 0.079(10) -0.010(7) 0.016(9) -0.022(8)
O16 0.183(16) 0.097(11) 0.120(12) -0.033(8) 0.078(10) -0.094(10)
Cd1E 0.0371 0.061 0.0501 0.001 -0.0022 0.0086
Cd2B 0.0575 0.0637 0.0564 -0.0014 0.002 -0.0025
Cd2F 0.0575 0.0637 0.0564 -0.0014 0.002 -0.0025
Cd2G 0.0575 0.0637 0.0564 0.0014 0.002 0.0025
N2B 0.058 0.067 0.066 0 0.021 -0.015
N3E 0.053 0.066 0.046 -0.001 0.007 -0.009
N4G 0.054 0.068 0.061 -0.004 -0.002 -0.008
O15F 0.083 0.067 0.079 -0.01 0.016 -0.022
loop_
_geom_bond_atom_site_label_1
_geom_bond_atom_site_label_2
_geom_bond_site_symmetry_1
_geom_bond_site_symmetry_2
Cd1 O5 1_555 1_555
Cd2 O10 1_555 1_555
O1 C3 1_555 1_555
O2 C20 1_555 1_555
O3 C37 1_555 1_555
C1 C2 1_555 1_555
O4 C16 1_555 1_555
O5 C34 1_555 1_555
O6 C14 1_555 1_555
O7 Cd1 1_555 1_555
O8 C17 1_555 1_555
C2 C12 1_555 1_555
O9 Cd1 1_555 1_555
O11 Cd2 1_555 1_555
C3 C18 1_555 1_555
N1 Cd1 1_555 1_555
C4 C6 1_555 1_555
C5 H1 1_555 1_555
C6 H2 1_555 1_555
C7 O1 1_555 1_555
C8 C10 1_555 1_555
C9 C7 1_555 1_555
H3 C9 1_555 1_555
C10 H4 1_555 1_555
N2 C29 1_555 1_555
C11 N1 1_555 1_555
H5 C11 1_555 1_555
C12 C44 1_555 1_555
N3 C30 1_555 1_555
O12 Cd2 1_555 1_555
C13 C8 1_555 1_555
H6 C13 1_555 1_555
C14 H7 1_555 1_555
H8 C14 1_555 1_555
C15 H9 1_555 1_555
C16 C26 1_555 1_555
O13 Cd1 1_555 1_555
C17 C15 1_555 1_555
C18 H10 1_555 1_555
C19 C11 1_555 1_555
H11 C19 1_555 1_555
C20 H12 1_555 1_555
H13 C20 1_555 1_555
C21 O2 1_555 1_555
C22 C14 1_555 1_555
C23 C21 1_555 1_555
H14 C23 1_555 1_555
C24 C3 1_555 1_555
H15 C24 1_555 1_555
C25 C7 1_555 1_555
H16 C25 1_555 1_555
C26 H17 1_555 1_555
C27 O6 1_555 1_555
C28 O4 1_555 1_555
H18 C28 1_555 1_555
H19 C28 1_555 1_555
C29 H20 1_555 1_555
C30 C23 1_555 1_555
H21 C30 1_555 1_555
C31 C4 1_555 1_555
H22 C31 1_555 1_555
C32 N1 1_555 1_555
H23 C32 1_555 1_555
C33 O8 1_555 1_555
H24 C33 1_555 1_555
H25 C33 1_555 1_555
C34 O7 1_555 1_555
N4 C35 1_555 1_555
C35 C26 1_555 1_555
H26 C35 1_555 1_555
C36 C5 1_555 1_555
H27 C36 1_555 1_555
C37 C8 1_555 1_555
C38 C27 1_555 1_555
H28 C38 1_555 1_555
C39 C27 1_555 1_555
H29 C39 1_555 1_555
C40 C16 1_555 1_555
H30 C40 1_555 1_555
C41 N2 1_555 1_555
H31 C41 1_555 1_555
C42 N4 1_555 1_555
H32 C42 1_555 1_555
C43 O11 1_555 1_555
C44 H33 1_555 1_555
C45 C44 1_555 1_555
C46 C1 1_555 1_555
H34 C46 1_555 1_555
C47 C48 1_555 1_555
C48 C49 1_555 1_555
C49 H35 1_555 1_555
C50 C49 1_555 1_555
H36 C50 1_555 1_555
C51 C50 1_555 1_555
C52 C51 1_555 1_555
H37 C52 1_555 1_555
C53 C48 1_555 1_555
H38 C53 1_555 1_555
O14 C45 1_555 1_555
O15 C47 1_555 1_555
O16 C47 1_555 1_555
Cd1E N3 1_555 1_555
Cd2B N2 1_555 1_555
Cd2F O15 1_555 1_555
Cd2G N4 1_555 1_555
N2B Cd2 1_555 1_555
N3E Cd1 1_555 1_555
N4G Cd2 1_555 1_555
O15F Cd2 1_555 1_555
C2 C34 1_555 1_555
C4 C43 1_555 1_555
C5 C21 1_555 1_555
C6 C24 1_555 1_555
C9 C13 1_555 1_555
C10 C25 1_555 1_555
N3 C36 1_555 1_555
O12 C43 1_555 1_555
C15 C32 1_555 1_555
O13 C37 1_555 1_555
C17 C19 1_555 1_555
C18 C31 1_555 1_555
C20 C22 1_555 1_555
C22 C28 1_555 1_555
C22 C33 1_555 1_555
C29 C39 1_555 1_555
C38 C41 1_555 1_555
C40 C42 1_555 1_555
C45 C46 1_555 1_555
C51 O14 1_555 1_555
C52 C53 1_555 1_555

#END
