
#######################################################################
#
#                 Cambridge Crystallographic Data Centre
#                                CCDC 
#
#######################################################################
#
# If this CIF has been generated from an entry in the Cambridge 
# Structural Database, then it will include bibliographic, chemical, 
# crystal, experimental, refinement or atomic coordinate data resulting 
# from the CCDC's data processing and validation procedures.
#
#######################################################################

data_JADMAF
_chemical_formula_moiety         '(C53 H44 Co2 N4 O16)n'
_symmetry_cell_setting           monoclinic
_symmetry_space_group_name_H-M   'C 2/c'
_symmetry_Int_Tables_number      15
_space_group_name_Hall           '-C 2yc'
loop_
_symmetry_equiv_pos_site_id
_symmetry_equiv_pos_as_xyz
1 x,y,z
2 -x,y,1/2-z
3 1/2+x,1/2+y,z
4 1/2-x,1/2+y,1/2-z
5 -x,-y,-z
6 x,-y,1/2+z
7 1/2-x,1/2-y,-z
8 1/2+x,1/2-y,1/2+z
_cell_length_a                   47.02(6)
_cell_length_b                   10.770(7)
_cell_length_c                   23.78(3)
_cell_angle_alpha                90
_cell_angle_beta                 94.87(6)
_cell_angle_gamma                90
_cell_volume                     11998.8
loop_
_atom_site_label
_atom_site_type_symbol
_atom_site_fract_x
_atom_site_fract_y
_atom_site_fract_z
_atom_site_U_iso_or_equiv
_atom_site_thermal_displace_type
Co1 Co 0.78453(3) 0.34792(9) 0.42515(5) 0.0558 Uani
Co2 Co 0.49162(3) 0.16544(9) 0.43025(5) 0.0561 Uani
O1 O 0.75190(11) 0.2021(5) 0.4189(2) 0.0524 Uani
O2 O 0.98184(11) 1.1849(4) 0.5431(2) 0.0518 Uani
O3 O 0.52262(13) 0.1274(5) 0.3769(3) 0.0647 Uani
O4 O 0.76225(11) 0.4313(5) 0.4899(2) 0.0552 Uani
O5 O 0.91870(12) 0.0004(4) 0.7572(2) 0.0576 Uani
O6 O 0.47212(11) -0.0034(4) 0.4072(2) 0.0515 Uani
O7 O 0.51211(13) -0.0561(5) 0.3360(3) 0.0680 Uani
O8 O 0.90361(12) -0.2055(5) 0.6081(2) 0.0576 Uani
O9 O 0.87741(14) 0.9972(6) 0.3773(2) 0.0718 Uani
O10 O 0.74668(13) 0.3664(5) 0.3645(2) 0.0640 Uani
O11 O 0.85324(12) -0.0906(4) 0.7424(2) 0.0518 Uani
N1 N 0.80606(14) -0.2669(5) 0.8583(3) 0.0499 Uani
O12 O 0.87379(11) 0.0856(4) 0.5998(2) 0.0506 Uani
O13 O 0.80834(11) 0.5058(4) 0.4182(2) 0.0529 Uani
O14 O 0.63826(12) 0.0569(6) 0.2606(2) 0.0658 Uani
N2 N 0.96259(14) -0.3111(5) 0.4951(3) 0.0539 Uani
O15 O 0.97147(12) 1.3601(4) 0.5002(2) 0.0545 Uani
C1 C 0.66182(18) 0.1068(8) 0.2925(4) 0.0594 Uani
C2 C 0.86233(16) 0.2328(7) 0.5293(3) 0.0531 Uani
H1 H 0.8812 0.2595 0.5325 0.0630 Uiso
O16 O 0.7994(2) 0.6096(7) 0.4962(3) 0.1202 Uani
C3 C 0.82497(15) 0.1041(6) 0.5568(3) 0.0436 Uani
H2 H 0.8183 0.0404 0.5785 0.0520 Uiso
C4 C 0.91191(19) 1.0020(7) 0.4593(4) 0.0649 Uani
H3 H 0.9072 0.9216 0.4693 0.0780 Uiso
C5 C 0.6761(2) 0.0437(8) 0.3362(4) 0.0738 Uani
H4 H 0.6695 -0.0335 0.3468 0.0880 Uiso
N3 N 0.96597(14) 0.2285(5) 0.8711(2) 0.0499 Uani
C6 C 0.88743(15) -0.0575(6) 0.6763(3) 0.0430 Uani
C7 C 0.52855(17) 0.0322(7) 0.3473(3) 0.0523 Uani
N4 N 0.81458(13) 0.2584(5) 0.4843(2) 0.0452 Uani
C8 C 0.89752(18) 1.0590(7) 0.4133(3) 0.0558 Uani
C9 C 0.6721(2) 0.2217(9) 0.2769(4) 0.0691 Uani
H5 H 0.6625 0.2655 0.2474 0.0830 Uiso
C10 C 0.90351(19) 1.1794(8) 0.3991(4) 0.0619 Uani
H6 H 0.8935 1.2175 0.3684 0.0750 Uiso
C11 C 0.9149(2) -0.3172(7) 0.5273(4) 0.0620 Uani
H7 H 0.8962 -0.3463 0.5220 0.0740 Uiso
C12 C 0.8235(2) -0.3322(7) 0.8263(3) 0.0587 Uani
H8 H 0.8248 -0.4176 0.8318 0.0700 Uiso
C13 C 0.89941(16) 0.0524(7) 0.7127(3) 0.0488 Uani
H9 H 0.9095 0.1097 0.6900 0.0590 Uiso
H10 H 0.8840 0.0968 0.7286 0.0590 Uiso
C14 C 0.85338(14) 0.1359(6) 0.5633(3) 0.0426 Uani
C15 C 0.93361(17) 0.0799(7) 0.7931(3) 0.0519 Uani
C16 C 0.7009(2) 0.0949(8) 0.3652(4) 0.0682 Uani
H11 H 0.7103 0.0520 0.3952 0.0810 Uiso
C17 C 0.55843(16) 0.0354(6) 0.3257(3) 0.0462 Uani
C18 C 0.93520(19) -0.3462(7) 0.4898(4) 0.0613 Uani
H12 H 0.9292 -0.3939 0.4584 0.0740 Uiso
C19 C 0.59100(17) -0.0230(7) 0.2577(3) 0.0526 Uani
H13 H 0.5947 -0.0660 0.2252 0.0630 Uiso
C20 C 0.93259(19) 0.2074(7) 0.7883(4) 0.0610 Uani
H14 H 0.9214 0.2462 0.7594 0.0730 Uiso
C21 C 0.96548(17) 1.2474(7) 0.5087(3) 0.0520 Uani
C22 C 0.73765(17) 0.2629(7) 0.3798(3) 0.0508 Uani
C23 C 0.84237(17) 0.2877(7) 0.4907(4) 0.0574 Uani
H15 H 0.8488 0.3495 0.4676 0.0690 Uiso
C24 C 0.86339(17) -0.0150(7) 0.6334(3) 0.0499 Uani
H16 H 0.8571 -0.0837 0.6090 0.0600 Uiso
H17 H 0.8473 0.0133 0.6528 0.0600 Uiso
C25 C 0.86280(19) 0.8970(8) 0.3986(4) 0.0620 Uani
C26 C 0.94906(18) 0.2755(7) 0.8287(3) 0.0559 Uani
H18 H 0.9482 0.3616 0.8258 0.0670 Uiso
C27 C 0.8301(2) 0.8165(8) 0.4605(4) 0.0742 Uani
H19 H 0.8192 0.8283 0.4909 0.0890 Uiso
C28 C 0.83925(19) -0.2809(7) 0.7868(3) 0.0557 Uani
H20 H 0.8507 -0.3302 0.7659 0.0670 Uiso
C29 C 0.8464(2) 0.9131(8) 0.4420(4) 0.0794 Uani
H21 H 0.8459 0.9901 0.4596 0.0950 Uiso
C30 C 0.93354(19) 1.0659(7) 0.4904(4) 0.0606 Uani
H22 H 0.9433 1.0275 0.5214 0.0730 Uiso
C31 C 0.92419(19) -0.2414(7) 0.5738(3) 0.0535 Uani
C32 C 0.56397(17) -0.0313(7) 0.2779(3) 0.0540 Uani
H23 H 0.5499 -0.0809 0.2595 0.0650 Uiso
C33 C 0.60688(17) 0.1121(8) 0.3345(4) 0.0587 Uani
H24 H 0.6212 0.1576 0.3543 0.0700 Uiso
C34 C 0.57997(19) 0.1061(8) 0.3527(4) 0.0608 Uani
H25 H 0.5761 0.1515 0.3844 0.0730 Uiso
C35 C 0.8301(2) 0.7006(7) 0.4333(4) 0.0606 Uani
C36 C 0.92478(17) 1.2431(7) 0.4314(3) 0.0560 Uani
H26 H 0.9283 1.3257 0.4229 0.0670 Uiso
C37 C 0.94099(17) 1.1868(6) 0.4761(3) 0.0501 Uani
C38 C 0.8046(2) -0.1459(7) 0.8480(3) 0.0601 Uani
H27 H 0.7926 -0.0984 0.8686 0.0720 Uiso
C39 C 0.87441(16) -0.1543(6) 0.7122(3) 0.0468 Uani
H28 H 0.8655 -0.2195 0.6887 0.0560 Uiso
H29 H 0.8889 -0.1911 0.7385 0.0560 Uiso
C40 C 0.80598(17) 0.1663(6) 0.5178(3) 0.0512 Uani
H30 H 0.7868 0.1436 0.5148 0.0620 Uiso
C41 C 0.61212(16) 0.0479(7) 0.2852(3) 0.0495 Uani
C42 C 0.91320(18) -0.1102(7) 0.6489(3) 0.0537 Uani
H31 H 0.9228 -0.0442 0.6302 0.0650 Uiso
H32 H 0.9267 -0.1457 0.6777 0.0650 Uiso
C43 C 0.9510(2) 0.0280(7) 0.8357(4) 0.0636 Uani
H33 H 0.9524 -0.0579 0.8390 0.0770 Uiso
C44 C 0.8636(2) 0.7846(8) 0.3723(4) 0.0648 Uani
H34 H 0.8752 0.7735 0.3429 0.0780 Uiso
C45 C 0.95297(18) -0.2081(8) 0.5817(3) 0.0552 Uani
H35 H 0.9599 -0.1626 0.6131 0.0670 Uiso
C46 C 0.81960(19) -0.0862(6) 0.8088(4) 0.0586 Uani
H36 H 0.8174 -0.0013 0.8029 0.0700 Uiso
C47 C 0.71110(17) 0.2076(7) 0.3491(4) 0.0547 Uani
C48 C 0.84731(19) 0.6878(7) 0.3893(4) 0.0595 Uani
H37 H 0.8479 0.6119 0.3708 0.0720 Uiso
C49 C 0.83794(17) -0.1544(6) 0.7785(3) 0.0492 Uani
C50 C 0.69636(19) 0.2714(8) 0.3047(4) 0.0629 Uani
H38 H 0.7030 0.3483 0.2938 0.0760 Uiso
C51 C 0.8109(2) 0.5985(8) 0.4510(4) 0.0669 Uani
C52 C 0.9705(2) -0.2444(9) 0.5419(4) 0.0664 Uani
H39 H 0.9896 -0.2212 0.5475 0.0800 Uiso
C53 C 0.9664(2) 0.1043(7) 0.8740(4) 0.0630 Uani
H40 H 0.9777 0.0673 0.9034 0.0750 Uiso
Co1E Co 0.78453(3) -0.34792(9) 0.92515(5) 0.0558 Uani
Co2B Co 0.99162(3) -0.33456(9) 0.43025(5) 0.0561 Uani
Co2F Co 1.00838(3) 1.33456(9) 0.56975(5) 0.0561 Uani
Co2G Co 0.99162(3) 0.33456(9) 0.93025(5) 0.0561 Uani
O2F O 0.51816(11) 0.3151(4) 0.4569(2) 0.0518 Uani
N1E N 0.80606(14) 0.2669(5) 0.3583(3) 0.0499 Uani
N2B N 0.46259(14) 0.1889(5) 0.4951(3) 0.0539 Uani
O15F O 0.52853(12) 0.1399(4) 0.4998(2) 0.0545 Uani
N3G N 0.46597(14) 0.2715(5) 0.3711(2) 0.0499 Uani
loop_
_atom_site_aniso_label
_atom_site_aniso_U_11
_atom_site_aniso_U_22
_atom_site_aniso_U_33
_atom_site_aniso_U_23
_atom_site_aniso_U_13
_atom_site_aniso_U_12
Co1 0.0578(7) 0.0494(6) 0.0591(7) 0.0006(5) -0.0012(5) -0.0077(5)
Co2 0.0610(7) 0.0462(5) 0.0596(8) 0.0011(5) -0.0029(5) -0.0044(5)
O1 0.047(3) 0.053(3) 0.056(3) 0.008(2) -0.002(2) -0.010(2)
O2 0.048(3) 0.041(2) 0.064(3) -0.001(2) -0.009(3) -0.004(2)
O3 0.061(4) 0.051(3) 0.083(4) -0.011(3) 0.012(3) -0.009(3)
O4 0.053(3) 0.056(3) 0.057(3) -0.001(3) 0.007(2) -0.004(2)
O5 0.064(4) 0.043(3) 0.062(4) -0.005(2) -0.017(3) -0.001(2)
O6 0.059(3) 0.040(2) 0.055(3) -0.002(2) 0.002(2) -0.011(2)
O7 0.073(4) 0.059(3) 0.075(4) -0.014(3) 0.024(3) -0.019(3)
O8 0.064(4) 0.058(3) 0.053(3) -0.019(3) 0.018(3) -0.009(3)
O9 0.073(4) 0.077(4) 0.063(4) 0.008(3) -0.009(3) -0.044(3)
O10 0.072(4) 0.052(3) 0.066(4) 0.004(3) -0.005(3) -0.011(3)
O11 0.066(4) 0.046(3) 0.047(3) 0.010(2) 0.026(3) 0.008(2)
N1 0.053(4) 0.043(3) 0.054(4) -0.001(3) 0.007(3) 0.007(3)
O12 0.048(3) 0.052(3) 0.051(3) 0.009(2) -0.001(2) -0.006(2)
O13 0.059(3) 0.040(2) 0.061(3) -0.009(2) 0.013(3) -0.022(2)
O14 0.046(3) 0.089(4) 0.062(4) -0.031(3) 0.003(3) -0.009(3)
N2 0.055(4) 0.045(3) 0.060(4) -0.007(3) -0.005(3) 0.001(3)
O15 0.066(4) 0.039(2) 0.058(3) 0.004(2) 0.002(3) -0.016(2)
C1 0.050(5) 0.069(5) 0.059(5) -0.022(4) 0.004(4) 0.003(4)
C2 0.041(4) 0.063(4) 0.054(5) 0.008(4) -0.003(3) -0.010(3)
O16 0.172(9) 0.102(5) 0.100(6) -0.051(5) 0.090(6) -0.080(6)
C3 0.043(4) 0.043(3) 0.045(4) 0.002(3) 0.005(3) -0.006(3)
C4 0.070(6) 0.040(4) 0.081(6) 0.010(4) -0.015(5) -0.023(4)
C5 0.066(6) 0.059(5) 0.093(7) 0.000(5) -0.014(5) -0.018(4)
N3 0.061(4) 0.043(3) 0.043(4) -0.001(3) -0.011(3) 0.005(3)
C6 0.045(4) 0.041(3) 0.043(4) 0.000(3) 0.004(3) -0.003(3)
C7 0.054(5) 0.049(4) 0.053(5) 0.001(4) 0.000(4) -0.002(4)
N4 0.043(3) 0.050(3) 0.042(3) -0.001(3) 0.000(3) -0.005(3)
C8 0.059(5) 0.052(4) 0.055(5) 0.001(4) -0.004(4) -0.027(4)
C9 0.065(6) 0.073(5) 0.066(6) -0.010(5) -0.014(5) 0.009(5)
C10 0.061(5) 0.063(5) 0.058(5) 0.016(4) -0.016(4) -0.016(4)
C11 0.065(6) 0.058(4) 0.065(6) -0.015(4) 0.018(4) -0.019(4)
C12 0.082(6) 0.037(3) 0.058(5) -0.001(3) 0.012(4) 0.008(4)
C13 0.049(5) 0.048(4) 0.049(5) -0.003(3) 0.001(3) 0.001(3)
C14 0.028(3) 0.045(3) 0.054(4) -0.001(3) -0.001(3) -0.003(3)
C15 0.057(5) 0.043(4) 0.054(5) -0.011(3) -0.006(4) 0.000(3)
C16 0.068(6) 0.059(5) 0.074(6) 0.001(4) -0.015(5) -0.004(4)
C17 0.043(4) 0.046(3) 0.050(4) 0.001(3) 0.006(3) 0.000(3)
C18 0.064(6) 0.054(4) 0.067(6) -0.017(4) 0.012(4) -0.010(4)
C19 0.049(5) 0.054(4) 0.054(5) -0.019(4) -0.001(4) 0.009(3)
C20 0.063(6) 0.051(4) 0.064(5) 0.006(4) -0.024(4) 0.004(4)
C21 0.056(5) 0.045(4) 0.054(5) 0.001(3) -0.002(4) 0.000(3)
C22 0.053(5) 0.053(4) 0.047(5) -0.013(3) 0.008(4) 0.000(4)
C23 0.049(5) 0.059(4) 0.063(5) 0.012(4) -0.003(4) -0.009(4)
C24 0.054(5) 0.047(4) 0.047(4) 0.003(3) -0.005(3) -0.005(3)
C25 0.063(5) 0.058(5) 0.064(6) 0.008(4) -0.001(4) -0.031(4)
C26 0.070(6) 0.038(3) 0.057(5) -0.002(3) -0.011(4) 0.006(3)
C27 0.090(7) 0.053(5) 0.083(7) -0.023(4) 0.027(5) -0.028(5)
C28 0.076(6) 0.048(4) 0.045(5) -0.003(3) 0.016(4) 0.000(4)
C29 0.106(8) 0.053(5) 0.083(7) -0.017(5) 0.031(6) -0.034(5)
C30 0.076(6) 0.039(4) 0.065(5) 0.009(4) -0.005(4) -0.014(4)
C31 0.070(6) 0.053(4) 0.037(4) -0.002(3) 0.001(4) 0.002(4)
C32 0.044(4) 0.051(4) 0.065(5) -0.015(4) -0.007(4) -0.001(3)
C33 0.046(5) 0.061(4) 0.066(5) -0.017(4) -0.014(4) -0.002(4)
C34 0.064(6) 0.066(5) 0.052(5) -0.012(4) 0.003(4) 0.005(4)
C35 0.071(6) 0.051(4) 0.061(6) -0.009(4) 0.013(4) -0.017(4)
C36 0.056(5) 0.039(3) 0.071(5) 0.010(3) -0.007(4) -0.018(3)
C37 0.055(5) 0.039(3) 0.055(5) 0.003(3) -0.003(4) -0.001(3)
C38 0.082(6) 0.048(4) 0.052(5) -0.006(4) 0.015(4) 0.006(4)
C39 0.052(5) 0.043(3) 0.046(4) -0.003(3) 0.007(3) 0.008(3)
C40 0.046(4) 0.046(4) 0.060(5) -0.003(3) -0.005(4) -0.005(3)
C41 0.043(4) 0.056(4) 0.049(5) -0.014(3) 0.001(3) 0.009(3)
C42 0.062(5) 0.047(4) 0.052(5) -0.007(3) 0.004(4) -0.007(4)
C43 0.082(6) 0.035(3) 0.069(6) 0.006(3) -0.022(5) -0.004(4)
C44 0.074(6) 0.068(5) 0.055(5) -0.013(4) 0.020(4) -0.026(4)
C45 0.057(5) 0.073(5) 0.036(4) -0.012(4) 0.007(4) 0.003(4)
C46 0.079(6) 0.031(3) 0.068(6) 0.007(3) 0.019(4) 0.008(4)
C47 0.047(5) 0.051(4) 0.065(5) -0.010(4) -0.001(4) 0.006(3)
C48 0.067(6) 0.051(4) 0.062(6) -0.010(4) 0.015(4) -0.014(4)
C49 0.061(5) 0.045(4) 0.042(4) -0.002(3) 0.006(4) 0.006(3)
C50 0.060(6) 0.067(5) 0.060(5) 0.000(4) -0.005(4) -0.004(4)
C51 0.081(7) 0.051(4) 0.069(6) -0.006(4) 0.008(5) -0.024(4)
C52 0.061(6) 0.077(6) 0.059(6) -0.010(5) -0.008(4) -0.001(4)
C53 0.076(6) 0.050(4) 0.059(5) 0.006(4) -0.018(4) -0.004(4)
Co1E 0.0578 0.0494 0.0591 -0.0006 -0.0012 0.0077
Co2B 0.061 0.0462 0.0596 0.0011 -0.0029 -0.0044
Co2F 0.061 0.0462 0.0596 0.0011 -0.0029 -0.0044
Co2G 0.061 0.0462 0.0596 -0.0011 -0.0029 0.0044
O2F 0.048 0.041 0.064 -0.001 -0.009 -0.004
N1E 0.053 0.043 0.054 0.001 0.007 -0.007
N2B 0.055 0.045 0.06 -0.007 -0.005 0.001
O15F 0.066 0.039 0.058 0.004 0.002 -0.016
N3G 0.061 0.043 0.043 0.001 -0.011 -0.005
loop_
_geom_bond_atom_site_label_1
_geom_bond_atom_site_label_2
_geom_bond_site_symmetry_1
_geom_bond_site_symmetry_2
Co1 O1 1_555 1_555
Co2 O3 1_555 1_555
O1 C22 1_555 1_555
O2 C21 1_555 1_555
O3 C7 1_555 1_555
O4 Co1 1_555 1_555
O5 C13 1_555 1_555
O6 Co2 1_555 1_555
O7 C7 1_555 1_555
O8 C31 1_555 1_555
O9 C8 1_555 1_555
O10 Co1 1_555 1_555
O11 C39 1_555 1_555
N1 C12 1_555 1_555
O12 C14 1_555 1_555
O13 Co1 1_555 1_555
O14 C1 1_555 1_555
N2 C18 1_555 1_555
O15 C21 1_555 1_555
C1 C5 1_555 1_555
C2 H1 1_555 1_555
O16 C51 1_555 1_555
C3 H2 1_555 1_555
C4 H3 1_555 1_555
C5 H4 1_555 1_555
N3 C26 1_555 1_555
C6 C13 1_555 1_555
C7 C17 1_555 1_555
N4 Co1 1_555 1_555
C8 C4 1_555 1_555
C9 C1 1_555 1_555
H5 C9 1_555 1_555
C10 C8 1_555 1_555
H6 C10 1_555 1_555
C11 H7 1_555 1_555
C12 H8 1_555 1_555
C13 H9 1_555 1_555
H10 C13 1_555 1_555
C14 C2 1_555 1_555
C15 O5 1_555 1_555
C16 C5 1_555 1_555
H11 C16 1_555 1_555
C17 C32 1_555 1_555
C18 C11 1_555 1_555
H12 C18 1_555 1_555
C19 H13 1_555 1_555
C20 C15 1_555 1_555
H14 C20 1_555 1_555
C21 C37 1_555 1_555
C22 O10 1_555 1_555
C23 C2 1_555 1_555
H15 C23 1_555 1_555
C24 O12 1_555 1_555
H16 C24 1_555 1_555
H17 C24 1_555 1_555
C25 O9 1_555 1_555
C26 C20 1_555 1_555
H18 C26 1_555 1_555
C27 H19 1_555 1_555
C28 C12 1_555 1_555
H20 C28 1_555 1_555
C29 C25 1_555 1_555
H21 C29 1_555 1_555
C30 C4 1_555 1_555
H22 C30 1_555 1_555
C31 C11 1_555 1_555
C32 C19 1_555 1_555
H23 C32 1_555 1_555
C33 H24 1_555 1_555
C34 C17 1_555 1_555
H25 C34 1_555 1_555
C35 C27 1_555 1_555
C36 C10 1_555 1_555
H26 C36 1_555 1_555
C37 C30 1_555 1_555
C38 N1 1_555 1_555
H27 C38 1_555 1_555
C39 C6 1_555 1_555
H28 C39 1_555 1_555
H29 C39 1_555 1_555
C40 C3 1_555 1_555
H30 C40 1_555 1_555
C41 O14 1_555 1_555
C42 O8 1_555 1_555
H31 C42 1_555 1_555
H32 C42 1_555 1_555
C43 C15 1_555 1_555
H33 C43 1_555 1_555
C44 C25 1_555 1_555
H34 C44 1_555 1_555
C45 C31 1_555 1_555
H35 C45 1_555 1_555
C46 C38 1_555 1_555
H36 C46 1_555 1_555
C47 C16 1_555 1_555
C48 C35 1_555 1_555
H37 C48 1_555 1_555
C49 O11 1_555 1_555
C50 C9 1_555 1_555
H38 C50 1_555 1_555
C51 O13 1_555 1_555
C52 N2 1_555 1_555
H39 C52 1_555 1_555
C53 N3 1_555 1_555
H40 C53 1_555 1_555
Co1E N1 1_555 1_555
Co2B N2 1_555 1_555
Co2F O2 1_555 1_555
Co2G N3 1_555 1_555
O2F Co2 1_555 1_555
N1E Co1 1_555 1_555
N2B Co2 1_555 1_555
O15F Co2 1_555 1_555
N3G Co2 1_555 1_555
O15 Co2F 1_555 1_555
C3 C14 1_555 1_555
C6 C24 1_555 1_555
C6 C42 1_555 1_555
N4 C23 1_555 1_555
N4 C40 1_555 1_555
C19 C41 1_555 1_555
C22 C47 1_555 1_555
C27 C29 1_555 1_555
C28 C49 1_555 1_555
C33 C34 1_555 1_555
C33 C41 1_555 1_555
C35 C51 1_555 1_555
C36 C37 1_555 1_555
C43 C53 1_555 1_555
C44 C48 1_555 1_555
C45 C52 1_555 1_555
C46 C49 1_555 1_555
C47 C50 1_555 1_555

#END
