
#######################################################################
#
#                 Cambridge Crystallographic Data Centre
#                                CCDC 
#
#######################################################################
#
# If this CIF has been generated from an entry in the Cambridge 
# Structural Database, then it will include bibliographic, chemical, 
# crystal, experimental, refinement or atomic coordinate data resulting 
# from the CCDC's data processing and validation procedures.
#
#######################################################################

data_MAQBAK
_chemical_formula_moiety         '(C54 H48 O25 Zn4)n'
_symmetry_cell_setting           rhombohedral
_symmetry_space_group_name_H-M   'R -3'
_symmetry_Int_Tables_number      148
_space_group_name_Hall           '-R 3'
loop_
_symmetry_equiv_pos_site_id
_symmetry_equiv_pos_as_xyz
1 x,y,z
2 -y,x-y,z
3 -x+y,-x,z
4 2/3+x,1/3+y,1/3+z
5 2/3-y,1/3+x-y,1/3+z
6 2/3-x+y,1/3-x,1/3+z
7 1/3+x,2/3+y,2/3+z
8 1/3-y,2/3+x-y,2/3+z
9 1/3-x+y,2/3-x,2/3+z
10 -x,-y,-z
11 y,-x+y,-z
12 x-y,x,-z
13 1/3-x,2/3-y,2/3-z
14 1/3+y,2/3-x+y,2/3-z
15 1/3+x-y,2/3+x,2/3-z
16 2/3-x,1/3-y,1/3-z
17 2/3+y,1/3-x+y,1/3-z
18 2/3+x-y,1/3+x,1/3-z
_cell_length_a                   24.7636(5)
_cell_length_b                   24.7636(5)
_cell_length_c                   28.1462(10)
_cell_angle_alpha                90
_cell_angle_beta                 90
_cell_angle_gamma                120
_cell_volume                     14947.8
loop_
_atom_site_label
_atom_site_type_symbol
_atom_site_fract_x
_atom_site_fract_y
_atom_site_fract_z
Zn1 Zn 0.3333 0.6667 0.02051(3)
Zn2 Zn 0.41765(3) 0.70131(3) -0.07209(2)
O1 O 0.47244(16) 0.72533(17) -0.01367(12)
O2 O 0.57504(16) 0.84897(18) 0.17416(11)
C1 C 0.46606(19) 0.73809(18) 0.02885(16)
O3 O 0.6558(2) 0.7640(2) 0.17495(18)
O4 O 0.6892(2) 0.8175(2) 0.05605(14)
C2 C 0.6320(2) 0.8089(3) 0.06941(18)
C3 C 0.5789(2) 0.7790(2) 0.04123(16)
H1 H 0.5807 0.7638 0.0114
C4 C 0.5198(2) 0.7950(2) 0.10266(15)
H2 H 0.4821 0.7899 0.1138
C5 C 0.6296(2) 0.8319(2) 0.11379(17)
C6 C 0.5736(2) 0.8253(2) 0.13020(15)
O5 O 0.7143(2) 0.9573(2) 0.11003(16)
C7 C 0.5234(2) 0.7723(2) 0.05808(15)
C8 C 0.5185(2) 0.8440(3) 0.19222(17)
H3 H 0.5259 0.8621 0.2234
H4 H 0.4868 0.8008 0.1939
H5 H 0.5050 0.8657 0.1714
C9 C 0.6872(2) 0.8628(3) 0.14449(17)
C10 C 0.7940(3) 0.9147(3) 0.1993(2)
C11 C 0.6997(2) 0.8252(3) 0.1744(2)
C12 C 0.7535(3) 0.8504(4) 0.2012(2)
H6 H 0.7625 0.8251 0.2202
C13 C 0.7829(3) 0.9530(3) 0.1703(2)
H7 H 0.8102 0.9958 0.1693
C14 C 0.7290(3) 0.9250(3) 0.14229(19)
C15 C 0.6931(4) 0.7957(5) 0.0098(2)
H8 H 0.7348 0.8039 0.0043
H9 H 0.6825 0.8169 -0.0137
H10 H 0.6645 0.7517 0.0078
O6 O 0.41425(14) 0.72509(15) 0.04785(12)
O7 O 0.3333 0.6667 -0.04774(18)
C16 C 0.7564(4) 1.0235(4) 0.1050(3)
H11 H 0.7405 1.0399 0.0814
H12 H 0.7967 1.0308 0.0954
H13 H 0.7599 1.0438 0.1349
C17 C 0.6676(5) 0.7221(4) 0.2023(4)
H14 H 0.6330 0.6804 0.1993
H15 H 0.6730 0.7343 0.2351
H16 H 0.7047 0.7234 0.1908
O8 O 0.8717(4) 0.9036(3) 0.2410(3)
O9 O 0.8840(3) 1.0012(4) 0.2320(3)
C18 C 0.8539(3) 0.9417(5) 0.2273(2)
Zn2A Zn 0.29869(3) 0.71634(4) -0.07209(2)
O1A O 0.27467(17) 0.74711(23) -0.01367(12)
O2A O 0.15103(18) 0.72607(24) 0.17416(11)
C1A C 0.26191(18) 0.72797(26) 0.02885(16)
O3A O 0.2360(2) 0.8918(3) 0.17495(18)
O4A O 0.1825(2) 0.8717(3) 0.05605(14)
C2A C 0.1911(3) 0.8231(4) 0.06941(18)
C3A C 0.2210(2) 0.7999(3) 0.04123(16)
H1A H 0.2362 0.8169 0.0114
C4A C 0.2050(2) 0.7248(3) 0.10266(15)
H2A H 0.2101 0.6922 0.1138
C5A C 0.1681(2) 0.7977(3) 0.11379(17)
C6A C 0.1747(2) 0.7483(3) 0.13020(15)
O5A O 0.0427(2) 0.7570(3) 0.11003(16)
C7A C 0.2277(2) 0.7511(3) 0.05808(15)
C8A C 0.1560(3) 0.6745(4) 0.19222(17)
H3A H 0.1379 0.6638 0.2234
H4A H 0.1992 0.6860 0.1939
H5A H 0.1343 0.6393 0.1714
C9A C 0.1372(3) 0.8244(4) 0.14449(17)
C10A C 0.0853(3) 0.8793(4) 0.1993(2)
C11A C 0.1748(3) 0.8745(4) 0.1744(2)
C12A C 0.1496(4) 0.9031(5) 0.2012(2)
H6A H 0.1749 0.9374 0.2202
C13A C 0.0470(3) 0.8299(4) 0.1703(2)
H7A H 0.0042 0.8144 0.1693
C14A C 0.0750(3) 0.8040(4) 0.14229(19)
C15A C 0.2043(5) 0.8974(6) 0.0098(2)
H8A H 0.1961 0.9309 0.0043
H9A H 0.1831 0.8656 -0.0137
H10A H 0.2483 0.9128 0.0078
O6A O 0.27491(15) 0.68916(21) 0.04785(12)
C16A C -0.0235(4) 0.7329(6) 0.1050(3)
H11A H -0.0399 0.7006 0.0814
H12A H -0.0308 0.7659 0.0954
H13A H -0.0438 0.7161 0.1349
C17A C 0.2779(4) 0.9455(6) 0.2023(4)
H14A H 0.3196 0.9526 0.1993
H15A H 0.2657 0.9387 0.2351
H16A H 0.2766 0.9813 0.1908
O8A O 0.0964(3) 0.9681(5) 0.2410(3)
O9A O -0.0012(4) 0.8828(5) 0.2320(3)
C18A C 0.0583(5) 0.9122(6) 0.2273(2)
Zn2B Zn 0.28366(4) 0.58235(3) -0.07209(2)
O1B O 0.25289(23) 0.52756(16) -0.01367(12)
O2B O 0.27393(24) 0.42496(16) 0.17416(11)
C1B C 0.27203(26) 0.53394(19) 0.02885(16)
O3B O 0.1082(3) 0.3442(2) 0.17495(18)
O4B O 0.1283(3) 0.3108(2) 0.05605(14)
C2B C 0.1769(4) 0.3680(2) 0.06941(18)
C3B C 0.2001(3) 0.4211(2) 0.04123(16)
H1B H 0.1831 0.4193 0.0114
C4B C 0.2752(3) 0.4802(2) 0.10266(15)
H2B H 0.3078 0.5179 0.1138
C5B C 0.2023(3) 0.3704(2) 0.11379(17)
C6B C 0.2517(3) 0.4264(2) 0.13020(15)
O5B O 0.2430(3) 0.2857(2) 0.11003(16)
C7B C 0.2489(3) 0.4766(2) 0.05808(15)
C8B C 0.3255(4) 0.4815(2) 0.19222(17)
H3B H 0.3362 0.4741 0.2234
H4B H 0.3140 0.5132 0.1939
H5B H 0.3607 0.4950 0.1714
C9B C 0.1756(4) 0.3128(2) 0.14449(17)
C10B C 0.1207(4) 0.2060(3) 0.1993(2)
C11B C 0.1255(4) 0.3003(2) 0.1744(2)
C12B C 0.0969(5) 0.2465(3) 0.2012(2)
H6B H 0.0626 0.2375 0.2202
C13B C 0.1701(4) 0.2171(3) 0.1703(2)
H7B H 0.1856 0.1898 0.1693
C14B C 0.1960(4) 0.2710(3) 0.14229(19)
C15B C 0.1026(6) 0.3069(4) 0.0098(2)
H8B H 0.0691 0.2652 0.0043
H9B H 0.1344 0.3175 -0.0137
H10B H 0.0872 0.3355 0.0078
O6B O 0.31084(21) 0.58575(14) 0.04785(12)
C16B C 0.2671(6) 0.2436(4) 0.1050(3)
H11B H 0.2994 0.2595 0.0814
H12B H 0.2341 0.2033 0.0954
H13B H 0.2839 0.2401 0.1349
C17B C 0.0545(6) 0.3324(5) 0.2023(4)
H14B H 0.0474 0.3670 0.1993
H15B H 0.0613 0.3270 0.2351
H16B H 0.0187 0.2953 0.1908
O8B O 0.0319(5) 0.1283(4) 0.2410(3)
O9B O 0.1172(5) 0.1160(3) 0.2320(3)
C18B C 0.0878(6) 0.1461(3) 0.2273(2)
Zn2C Zn 0.08432(3) 0.03464(3) 0.26124(2)
Zn2C_2 Zn 0.08432(3) 1.03464(3) 0.26124(2)
Zn2D Zn -0.03464(3) 0.04967(4) 0.26124(2)
Zn2D_2 Zn 0.96536(3) 1.04967(4) 0.26124(2)
Zn2E Zn -0.04967(4) 0.91568(3) 0.26124(2)
Zn2E_2 Zn 0.95033(4) 0.91568(3) 0.26124(2)
O8F O 0.2050(4) 0.5703(3) -0.0923(3)
O8G O 0.4297(3) 0.6348(5) -0.0923(3)
O8H O 0.3652(5) 0.7950(4) -0.0923(3)
O9F O 0.2173(3) 0.6679(4) -0.1013(3)
O9G O 0.3321(4) 0.5495(5) -0.1013(3)
O9H O 0.4505(5) 0.7827(3) -0.1013(3)
loop_
_geom_bond_atom_site_label_1
_geom_bond_atom_site_label_2
_geom_bond_site_symmetry_1
_geom_bond_site_symmetry_2
Zn1 O6 1_555 1_555
Zn2 O1 1_555 1_555
O1 C1 1_555 1_555
O2 C6 1_555 1_555
C1 C7 1_555 1_555
O3 C11 1_555 1_555
O4 C2 1_555 1_555
C2 C3 1_555 1_555
C3 H1 1_555 1_555
C4 H2 1_555 1_555
C5 C2 1_555 1_555
C6 C4 1_555 1_555
O5 C14 1_555 1_555
C7 C3 1_555 1_555
C8 O2 1_555 1_555
H3 C8 1_555 1_555
H4 C8 1_555 1_555
H5 C8 1_555 1_555
C9 C5 1_555 1_555
C10 C12 1_555 1_555
C11 C9 1_555 1_555
C12 C11 1_555 1_555
H6 C12 1_555 1_555
C13 C10 1_555 1_555
H7 C13 1_555 1_555
C14 C9 1_555 1_555
C15 O4 1_555 1_555
H8 C15 1_555 1_555
H9 C15 1_555 1_555
H10 C15 1_555 1_555
O6 C1 1_555 1_555
O7 Zn1 1_555 1_555
C16 O5 1_555 1_555
H11 C16 1_555 1_555
H12 C16 1_555 1_555
H13 C16 1_555 1_555
C17 O3 1_555 1_555
H14 C17 1_555 1_555
H15 C17 1_555 1_555
H16 C17 1_555 1_555
O8 C18 1_555 1_555
O9 C18 1_555 1_555
C18 C10 1_555 1_555
Zn2A O7 1_555 1_555
O1A Zn2A 1_555 1_555
O2A C6A 1_555 1_555
C1A O1A 1_555 1_555
O3A C11A 1_555 1_555
O4A C2A 1_555 1_555
C2A C3A 1_555 1_555
C3A H1A 1_555 1_555
C4A H2A 1_555 1_555
C5A C2A 1_555 1_555
C6A C4A 1_555 1_555
O5A C14A 1_555 1_555
C7A C1A 1_555 1_555
C8A O2A 1_555 1_555
H3A C8A 1_555 1_555
H4A C8A 1_555 1_555
H5A C8A 1_555 1_555
C9A C5A 1_555 1_555
C10A C12A 1_555 1_555
C11A C9A 1_555 1_555
C12A C11A 1_555 1_555
H6A C12A 1_555 1_555
C13A C10A 1_555 1_555
H7A C13A 1_555 1_555
C14A C9A 1_555 1_555
C15A O4A 1_555 1_555
H8A C15A 1_555 1_555
H9A C15A 1_555 1_555
H10A C15A 1_555 1_555
O6A Zn1 1_555 1_555
C16A O5A 1_555 1_555
H11A C16A 1_555 1_555
H12A C16A 1_555 1_555
H13A C16A 1_555 1_555
C17A O3A 1_555 1_555
H14A C17A 1_555 1_555
H15A C17A 1_555 1_555
H16A C17A 1_555 1_555
O8A C18A 1_555 1_555
O9A C18A 1_555 1_555
C18A C10A 1_555 1_555
Zn2B O7 1_555 1_555
O1B Zn2B 1_555 1_555
O2B C6B 1_555 1_555
C1B O1B 1_555 1_555
O3B C11B 1_555 1_555
O4B C2B 1_555 1_555
C2B C3B 1_555 1_555
C3B H1B 1_555 1_555
C4B H2B 1_555 1_555
C5B C2B 1_555 1_555
C6B C4B 1_555 1_555
O5B C14B 1_555 1_555
C7B C1B 1_555 1_555
C8B O2B 1_555 1_555
H3B C8B 1_555 1_555
H4B C8B 1_555 1_555
H5B C8B 1_555 1_555
C9B C5B 1_555 1_555
C10B C12B 1_555 1_555
C11B C9B 1_555 1_555
C12B C11B 1_555 1_555
H6B C12B 1_555 1_555
C13B C10B 1_555 1_555
H7B C13B 1_555 1_555
C14B C9B 1_555 1_555
C15B O4B 1_555 1_555
H8B C15B 1_555 1_555
H9B C15B 1_555 1_555
H10B C15B 1_555 1_555
O6B Zn1 1_555 1_555
C16B O5B 1_555 1_555
H11B C16B 1_555 1_555
H12B C16B 1_555 1_555
H13B C16B 1_555 1_555
C17B O3B 1_555 1_555
H14B C17B 1_555 1_555
H15B C17B 1_555 1_555
H16B C17B 1_555 1_555
O8B C18B 1_555 1_555
O9B C18B 1_555 1_555
C18B C10B 1_555 1_555
Zn2C O9B 1_555 1_555
Zn2C_2 O8A 1_555 1_555
Zn2D O8B 1_555 1_555
Zn2D_2 O9 1_555 1_555
Zn2E O9A 1_555 1_555
Zn2E_2 O8 1_555 1_555
O8F Zn2B 1_555 1_555
O8G Zn2 1_555 1_555
O8H Zn2A 1_555 1_555
O9F Zn2A 1_555 1_555
O9G Zn2B 1_555 1_555
O9H Zn2 1_555 1_555
Zn2 O7 1_555 1_555
C4 C7 1_555 1_555
C5 C6 1_555 1_555
C13 C14 1_555 1_555
C1A O6A 1_555 1_555
C3A C7A 1_555 1_555
C4A C7A 1_555 1_555
C5A C6A 1_555 1_555
C13A C14A 1_555 1_555
C1B O6B 1_555 1_555
C3B C7B 1_555 1_555
C4B C7B 1_555 1_555
C5B C6B 1_555 1_555
C13B C14B 1_555 1_555

#END
