
#######################################################################
#
#                 Cambridge Crystallographic Data Centre
#                                CCDC 
#
#######################################################################
#
# If this CIF has been generated from an entry in the Cambridge 
# Structural Database, then it will include bibliographic, chemical, 
# crystal, experimental, refinement or atomic coordinate data resulting 
# from the CCDC's data processing and validation procedures.
#
#######################################################################

data_EJOZOU
_chemical_formula_moiety         '(C32 H50 Cu2 N6 O20)n'
_symmetry_cell_setting           monoclinic
_symmetry_space_group_name_H-M   'C 2/c'
_symmetry_Int_Tables_number      15
_space_group_name_Hall           '-C 2yc'
loop_
_symmetry_equiv_pos_site_id
_symmetry_equiv_pos_as_xyz
1 x,y,z
2 -x,y,1/2-z
3 1/2+x,1/2+y,z
4 1/2-x,1/2+y,1/2-z
5 -x,-y,-z
6 x,-y,1/2+z
7 1/2-x,1/2-y,-z
8 1/2+x,1/2-y,1/2+z
_cell_length_a                   39.900(4)
_cell_length_b                   9.9925(9)
_cell_length_c                   28.728(3)
_cell_angle_alpha                90
_cell_angle_beta                 133.7990(10)
_cell_angle_gamma                90
_cell_volume                     8267.09
loop_
_atom_site_label
_atom_site_type_symbol
_atom_site_fract_x
_atom_site_fract_y
_atom_site_fract_z
_atom_site_U_iso_or_equiv
_atom_site_thermal_displace_type
Cu1 Cu 0.42533(2) 0.85743(4) 0.08497(2) 0.0137 Uani
Cu2 Cu 0.40646(2) 0.89400(4) 0.23489(2) 0.0139 Uani
O1 O 0.58113(9) 1.0153(2) 0.46103(11) 0.0199 Uani
O2 O 0.50900(9) 0.9010(2) 0.34235(12) 0.0176 Uani
O3 O 0.42340(11) 0.4698(3) -0.12824(13) 0.0310 Uani
O4 O 0.43026(9) 0.7087(2) 0.13496(11) 0.0155 Uani
O5 O 0.41504(9) 0.8503(2) 0.17727(12) 0.0179 Uani
O6 O 0.45191(9) 1.0413(2) 0.27271(11) 0.0156 Uani
O7 O 0.34234(10) 0.5366(3) 0.15830(15) 0.0333 Uani
N1 N 0.43642(13) 0.3013(3) -0.06412(16) 0.0252 Uani
H1 H 0.4445 0.2854 -0.0273 0.0300 Uiso
N2 N 0.41397(11) 0.0887(3) -0.18835(15) 0.0183 Uani
C1 C 0.55602(14) 1.1206(3) 0.43357(17) 0.0169 Uani
C2 C 0.52600(13) 1.1397(3) 0.36060(17) 0.0151 Uani
O8 O 0.55700(12) 1.2103(3) 0.46367(14) 0.0374 Uani
C3 C 0.49361(13) 1.0186(3) 0.32262(16) 0.0140 Uani
N3 N 0.43092(11) 0.7160(3) 0.03032(14) 0.0195 Uani
C4 C 0.45857(14) 0.6094(4) 0.05828(18) 0.0227 Uani
H2 H 0.4783 0.5984 0.1035 0.0270 Uiso
C5 C 0.46013(14) 0.5139(4) 0.02505(18) 0.0221 Uani
H3 H 0.4805 0.4395 0.0471 0.0260 Uiso
C6 C 0.43169(14) 0.5280(4) -0.04066(18) 0.0195 Uani
C7 C 0.42986(15) 0.4309(4) -0.08214(18) 0.0215 Uani
C8 C 0.43171(15) 0.1889(4) -0.09785(19) 0.0223 Uani
C9 C 0.40283(16) 0.6395(4) -0.07038(19) 0.0276 Uani
H4 H 0.3831 0.6535 -0.1154 0.0330 Uiso
C10 C 0.40337(16) 0.7296(4) -0.03333(19) 0.0267 Uani
H5 H 0.3832 0.8047 -0.0541 0.0330 Uiso
N4 N 0.14450(11) 1.6596(3) -0.02313(14) 0.0173 Uani
C11 C 0.16425(14) 1.7818(4) -0.00676(19) 0.0268 Uani
H6 H 0.1454 1.8590 -0.0210 0.0320 Uiso
C12 C 0.21054(16) 1.7969(4) 0.0297(2) 0.0382 Uani
H7 H 0.2236 1.8840 0.0402 0.0460 Uiso
C13 C 0.23832(16) 1.6861(4) 0.0513(2) 0.0364 Uani
H8 H 0.2706 1.6959 0.0767 0.0440 Uiso
C14 C 0.21860(14) 1.5592(4) 0.03571(19) 0.0239 Uani
C15 C 0.17108(13) 1.5515(4) -0.00256(18) 0.0211 Uani
H9 H 0.1569 1.4657 -0.0146 0.0250 Uiso
N5 N 0.24800(12) 1.4482(3) 0.06106(17) 0.0287 Uani
H10 H 0.2774 1.4641 0.0830 0.0340 Uiso
C16 C 0.42038(12) 0.7321(3) 0.16735(16) 0.0139 Uani
N6 N 0.34755(11) 1.0358(3) 0.17194(15) 0.0201 Uani
C17 C 0.35014(15) 1.1410(4) 0.1463(2) 0.0254 Uani
H11 H 0.3776 1.1522 0.1547 0.0300 Uiso
C18 C 0.31534(14) 1.2350(4) 0.10809(19) 0.0245 Uani
H12 H 0.3188 1.3076 0.0903 0.0290 Uiso
C19 C 0.27565(13) 1.2220(4) 0.09616(18) 0.0213 Uani
C20 C 0.23558(14) 1.3182(4) 0.05509(19) 0.0237 Uani
O9 O 0.19567(10) 1.2796(3) 0.01995(15) 0.0342 Uani
C21 C 0.27243(15) 1.1134(4) 0.1233(2) 0.0317 Uani
H13 H 0.2455 1.1011 0.1160 0.0380 Uiso
C22 C 0.30871(15) 1.0243(4) 0.1607(2) 0.0305 Uani
H14 H 0.3064 0.9512 0.1794 0.0370 Uiso
C23 C 0.49827(14) 1.2697(4) 0.33688(18) 0.0210 Uani
H15 H 0.4773 1.2660 0.3436 0.0320 Uiso
H16 H 0.4801 1.2812 0.2908 0.0320 Uiso
H17 H 0.5196 1.3453 0.3610 0.0320 Uiso
C24 C 0.55954(14) 1.1465(4) 0.35108(18) 0.0182 Uani
H18 H 0.5828 1.2161 0.3791 0.0280 Uiso
H19 H 0.5420 1.1678 0.3060 0.0280 Uiso
H20 H 0.5750 1.0599 0.3622 0.0280 Uiso
C25 C 0.41882(15) -0.0331(4) -0.1641(2) 0.0252 Uani
H21 H 0.4136 -0.1107 -0.1876 0.0300 Uiso
C26 C 0.43111(18) -0.0479(4) -0.1065(2) 0.0335 Uani
H22 H 0.4347 -0.1349 -0.0902 0.0400 Uiso
C27 C 0.43832(18) 0.0635(4) -0.0720(2) 0.0343 Uani
H23 H 0.4476 0.0544 -0.0315 0.0400 Uiso
C28 C 0.42019(14) 0.1979(4) -0.15571(18) 0.0195 Uani
H24 H 0.4166 0.2839 -0.1728 0.0230 Uiso
O10 O 0.36724(9) 0.7357(2) 0.20440(12) 0.0194 Uani
C29 C 0.37071(13) 0.6294(4) 0.18312(17) 0.0173 Uani
C30 C 0.41418(13) 0.6116(3) 0.19405(17) 0.0142 Uani
C31 C 0.41145(14) 0.4811(4) 0.16362(19) 0.0207 Uani
H25 H 0.3845 0.4841 0.1169 0.0310 Uiso
H26 H 0.4082 0.4055 0.1820 0.0310 Uiso
H27 H 0.4398 0.4702 0.1725 0.0310 Uiso
C32 C 0.45658(13) 0.6056(4) 0.26772(17) 0.0183 Uani
H28 H 0.4845 0.5834 0.2765 0.0270 Uiso
H29 H 0.4514 0.5369 0.2865 0.0270 Uiso
H30 H 0.4608 0.6927 0.2868 0.0270 Uiso
Cu1A Cu 0.57467(2) 0.85743(4) 0.41503(2) 0.0137 Uani
Cu1F Cu 0.07467(2) 1.64257(4) -0.08497(2) 0.0137 Uani
Cu2E Cu 0.40646(2) 0.10600(4) -0.26511(2) 0.0139 Uani
O1A O 0.41887(9) 1.0153(2) 0.03897(11) 0.0199 Uani
O2A O 0.49100(9) 0.9010(2) 0.15765(12) 0.0176 Uani
N2E N 0.41397(11) 0.9113(3) 0.31165(15) 0.0183 Uani
N4F N 0.35550(11) 0.8404(3) 0.02313(14) 0.0173 Uani
O11 O 0.37604(18) 0.3487(4) 0.2681(2) 0.0661 Uani
H31 H 0.3640 0.3921 0.2332 0.0990 Uiso
H32 H 0.3893 0.4050 0.2998 0.0990 Uiso
O12 O 0.3682(2) 0.4044(5) 0.0032(3) 0.0842 Uani
H33 H 0.3505 0.4309 -0.0365 0.1270 Uiso
H34 H 0.3616 0.3220 0.0038 0.1270 Uiso
O13 O 0.3293(3) 0.3444(11) 0.8381(4) 0.1990 Uani
H35 H 0.3032 0.3037 0.8073 0.2970 Uiso
H36 H 0.3276 0.3847 0.8632 0.2970 Uiso
O14 O 0.1892(2) 0.7465(8) 0.2314(3) 0.1095 Uani
H37 H 0.2035 0.8193 0.2535 0.1640 Uiso
H38 H 0.2087 0.6800 0.2500 0.1640 Uiso
O15 O 0.2002(2) 0.1728(8) 0.2833(3) 0.1119 Uani
H39 H 0.1973 0.1073 0.2607 0.1680 Uiso
H40 H 0.1820 0.1593 0.2894 0.1680 Uiso
O16 O 0.3423(2) 0.9079(8) 0.3998(3) 0.1145 Uani
H41 H 0.3223 0.8434 0.3833 0.1720 Uiso
H42 H 0.3642 0.8981 0.4415 0.1720 Uiso
O17 O 0.2482(2) 0.4225(9) 0.1661(3) 0.1359 Uani
O18 O 0.1906(3) 0.4786(13) 0.2204(4) 0.1564 Uani
H43 H 0.1951 0.4562 0.1959 0.2360 Uiso
H44 H 0.1616 0.4668 0.1997 0.2360 Uiso
O19 O 0.3058(4) 0.5078(18) 0.3737(6) 0.1327 Uani
O20 O 0.2884(6) 0.222(3) 0.3457(9) 0.2450 Uani
H45 H 0.2890 0.1760 0.3207 0.3660 Uiso
H46 H 0.2768 0.3012 0.3291 0.3660 Uiso
loop_
_atom_site_aniso_label
_atom_site_aniso_U_11
_atom_site_aniso_U_22
_atom_site_aniso_U_33
_atom_site_aniso_U_23
_atom_site_aniso_U_13
_atom_site_aniso_U_12
Cu1 0.0141(2) 0.0113(2) 0.0131(2) 0.00035(16) 0.0084(2) 0.00062(17)
Cu2 0.0160(3) 0.0111(2) 0.0154(2) 0.00100(16) 0.0112(2) 0.00063(17)
O1 0.0243(15) 0.0168(13) 0.0139(12) 0.0014(10) 0.0114(12) 0.0030(11)
O2 0.0154(14) 0.0103(12) 0.0210(13) -0.0021(10) 0.0103(12) -0.0008(10)
O3 0.058(2) 0.0183(14) 0.0299(15) -0.0007(12) 0.0354(16) 0.0009(14)
O4 0.0159(14) 0.0156(12) 0.0148(12) 0.0012(10) 0.0105(11) 0.0009(10)
O5 0.0252(15) 0.0117(12) 0.0197(13) -0.0008(10) 0.0166(12) -0.0014(10)
O6 0.0160(14) 0.0158(12) 0.0150(12) 0.0023(10) 0.0107(12) 0.0012(10)
O7 0.0167(16) 0.0228(15) 0.0488(19) -0.0102(13) 0.0183(15) -0.0083(12)
N1 0.050(2) 0.0165(16) 0.0262(17) -0.0008(13) 0.0328(18) 0.0004(15)
N2 0.0202(18) 0.0151(15) 0.0229(16) -0.0018(12) 0.0162(15) -0.0001(13)
C1 0.024(2) 0.0158(18) 0.0159(17) -0.0006(14) 0.0157(17) -0.0012(15)
C2 0.017(2) 0.0108(17) 0.0164(17) -0.0012(13) 0.0111(16) -0.0009(14)
O8 0.069(2) 0.0225(15) 0.0278(15) 0.0025(12) 0.0362(17) 0.0133(15)
C3 0.019(2) 0.0123(17) 0.0181(17) -0.0031(14) 0.0156(17) -0.0032(15)
N3 0.0250(19) 0.0140(15) 0.0189(15) -0.0025(12) 0.0150(15) -0.0008(13)
C4 0.026(2) 0.022(2) 0.0144(18) 0.0007(15) 0.0118(18) 0.0037(17)
C5 0.027(2) 0.0179(19) 0.0214(19) -0.0005(15) 0.0168(19) 0.0026(16)
C6 0.029(2) 0.0153(18) 0.0229(19) -0.0014(15) 0.0212(19) -0.0026(16)
C7 0.031(2) 0.0186(19) 0.0226(19) -0.0018(15) 0.0214(19) -0.0010(17)
C8 0.032(2) 0.0159(18) 0.025(2) -0.0005(15) 0.022(2) 0.0003(17)
C9 0.041(3) 0.024(2) 0.0173(19) 0.0011(16) 0.020(2) 0.0031(19)
C10 0.040(3) 0.021(2) 0.024(2) 0.0038(16) 0.024(2) 0.0077(18)
N4 0.0147(17) 0.0134(15) 0.0157(15) -0.0017(12) 0.0075(14) 0.0008(12)
C11 0.021(2) 0.0134(18) 0.030(2) 0.0015(16) 0.0116(19) 0.0031(16)
C12 0.023(3) 0.015(2) 0.051(3) 0.0007(19) 0.016(2) -0.0030(17)
C13 0.016(2) 0.024(2) 0.045(3) 0.0008(19) 0.012(2) -0.0015(18)
C14 0.017(2) 0.0161(19) 0.026(2) 0.0011(15) 0.0101(18) 0.0017(15)
C15 0.018(2) 0.0140(18) 0.0239(19) 0.0008(15) 0.0117(18) 0.0003(15)
N5 0.0117(18) 0.0169(17) 0.039(2) 0.0031(14) 0.0106(16) 0.0015(13)
C16 0.0083(18) 0.0136(17) 0.0115(16) 0.0008(13) 0.0037(15) 0.0001(13)
N6 0.0195(18) 0.0140(15) 0.0241(16) 0.0025(13) 0.0141(15) 0.0025(13)
C17 0.023(2) 0.024(2) 0.036(2) 0.0026(17) 0.023(2) 0.0021(17)
C18 0.023(2) 0.0172(19) 0.032(2) 0.0080(16) 0.0186(19) 0.0042(16)
C19 0.014(2) 0.0144(18) 0.0214(19) -0.0026(15) 0.0069(17) -0.0003(15)
C20 0.014(2) 0.023(2) 0.024(2) 0.0019(16) 0.0093(18) 0.0026(17)
O9 0.0135(16) 0.0205(15) 0.0432(18) 0.0015(13) 0.0101(15) 0.0006(12)
C21 0.018(2) 0.026(2) 0.047(3) 0.0078(19) 0.021(2) 0.0037(18)
C22 0.025(2) 0.026(2) 0.041(2) 0.0130(19) 0.023(2) 0.0046(18)
C23 0.024(2) 0.0143(18) 0.0226(19) 0.0016(15) 0.0153(18) 0.0025(16)
C24 0.025(2) 0.0157(18) 0.0230(19) -0.0012(14) 0.0200(18) -0.0032(15)
C25 0.041(3) 0.0142(18) 0.038(2) -0.0016(16) 0.034(2) -0.0013(17)
C26 0.065(3) 0.0143(19) 0.045(3) 0.0041(18) 0.047(3) 0.003(2)
C27 0.061(3) 0.025(2) 0.035(2) 0.0037(18) 0.040(3) 0.003(2)
C28 0.025(2) 0.0138(18) 0.0223(19) -0.0010(14) 0.0173(18) -0.0016(16)
O10 0.0177(14) 0.0158(13) 0.0268(14) -0.0015(11) 0.0162(13) 0.0007(11)
C29 0.0116(19) 0.0157(18) 0.0167(17) 0.0033(14) 0.0068(16) 0.0003(15)
C30 0.0142(19) 0.0088(16) 0.0177(17) 0.0010(13) 0.0103(16) 0.0009(14)
C31 0.025(2) 0.0128(17) 0.027(2) -0.0034(15) 0.0190(19) -0.0029(16)
C32 0.015(2) 0.0168(18) 0.0162(18) 0.0049(14) 0.0082(17) 0.0030(15)
Cu1A 0.0141 0.0113 0.0131 -0.00035 0.0084 -0.00062
Cu1F 0.0141 0.0113 0.0131 0.00035 0.0084 0.00062
Cu2E 0.016 0.0111 0.0154 -0.001 0.0112 -0.00063
O1A 0.0243 0.0168 0.0139 -0.0014 0.0114 -0.003
O2A 0.0154 0.0103 0.021 0.0021 0.0103 0.0008
N2E 0.0202 0.0151 0.0229 0.0018 0.0162 0.0001
N4F 0.0147 0.0134 0.0157 -0.0017 0.0075 0.0008
O11 0.096(4) 0.039(2) 0.052(2) -0.0098(18) 0.047(3) -0.009(2)
O12 0.096(4) 0.048(3) 0.120(4) -0.003(3) 0.079(4) -0.012(3)
O13 0.118(7) 0.279(13) 0.139(7) 0.045(8) 0.066(6) -0.019(7)
O14 0.101(5) 0.139(6) 0.078(4) 0.008(4) 0.058(4) 0.006(4)
O15 0.093(5) 0.166(7) 0.102(5) -0.022(4) 0.077(4) -0.021(4)
O16 0.074(4) 0.212(8) 0.054(3) -0.003(4) 0.043(3) -0.021(4)
O17 0.098(5) 0.189(7) 0.117(5) 0.013(5) 0.073(4) 0.000(5)
O18 0.136(7) 0.242(10) 0.125(6) -0.025(6) 0.103(6) 0.004(7)
O19 0.089(9) 0.231(17) 0.095(8) 0.019(10) 0.070(8) 0.066(10)
O20 0.097(13) 0.48(4) 0.130(15) -0.09(2) 0.068(12) -0.05(2)
loop_
_geom_bond_atom_site_label_1
_geom_bond_atom_site_label_2
_geom_bond_site_symmetry_1
_geom_bond_site_symmetry_2
Cu1 O4 1_555 1_555
Cu2 O5 1_555 1_555
O1 C1 1_555 1_555
O2 C3 1_555 1_555
O3 C7 1_555 1_555
O4 C16 1_555 1_555
O5 C16 1_555 1_555
O6 Cu2 1_555 1_555
O7 C29 1_555 1_555
N1 H1 1_555 1_555
N2 C25 1_555 1_555
C1 C2 1_555 1_555
C2 C3 1_555 1_555
O8 C1 1_555 1_555
C3 O6 1_555 1_555
N3 Cu1 1_555 1_555
C4 N3 1_555 1_555
H2 C4 1_555 1_555
C5 C4 1_555 1_555
H3 C5 1_555 1_555
C6 C5 1_555 1_555
C7 N1 1_555 1_555
C8 N1 1_555 1_555
C9 C6 1_555 1_555
H4 C9 1_555 1_555
C10 N3 1_555 1_555
H5 C10 1_555 1_555
N4 C11 1_555 1_555
C11 H6 1_555 1_555
C12 C11 1_555 1_555
H7 C12 1_555 1_555
C13 C12 1_555 1_555
H8 C13 1_555 1_555
C14 C13 1_555 1_555
C15 N4 1_555 1_555
H9 C15 1_555 1_555
N5 C14 1_555 1_555
H10 N5 1_555 1_555
C16 C30 1_555 1_555
N6 Cu2 1_555 1_555
C17 N6 1_555 1_555
H11 C17 1_555 1_555
C18 C17 1_555 1_555
H12 C18 1_555 1_555
C19 C18 1_555 1_555
C20 N5 1_555 1_555
O9 C20 1_555 1_555
C21 C19 1_555 1_555
H13 C21 1_555 1_555
C22 N6 1_555 1_555
H14 C22 1_555 1_555
C23 C2 1_555 1_555
H15 C23 1_555 1_555
H16 C23 1_555 1_555
H17 C23 1_555 1_555
C24 C2 1_555 1_555
H18 C24 1_555 1_555
H19 C24 1_555 1_555
H20 C24 1_555 1_555
C25 H21 1_555 1_555
C26 C25 1_555 1_555
H22 C26 1_555 1_555
C27 C8 1_555 1_555
H23 C27 1_555 1_555
C28 N2 1_555 1_555
H24 C28 1_555 1_555
O10 Cu2 1_555 1_555
C29 O10 1_555 1_555
C30 C29 1_555 1_555
C31 C30 1_555 1_555
H25 C31 1_555 1_555
H26 C31 1_555 1_555
H27 C31 1_555 1_555
C32 C30 1_555 1_555
H28 C32 1_555 1_555
H29 C32 1_555 1_555
H30 C32 1_555 1_555
O11 H31 1_555 1_555
H32 O11 1_555 1_555
O12 H33 1_555 1_555
H34 O12 1_555 1_555
O13 H35 1_555 1_555
H36 O13 1_555 1_555
O14 H37 1_555 1_555
H38 O14 1_555 1_555
O15 H39 1_555 1_555
H40 O15 1_555 1_555
O16 H41 1_555 1_555
H42 O16 1_555 1_555
O18 H43 1_555 1_555
H44 O18 1_555 1_555
O20 H45 1_555 1_555
H46 O20 1_555 1_555
Cu1A O1 1_555 1_555
Cu1F N4 1_555 1_555
Cu2E N2 1_555 1_555
O1A Cu1 1_555 1_555
O2A Cu1 1_555 1_555
N2E Cu2 1_555 1_555
N4F Cu1 1_555 1_555
O2 Cu1A 1_555 1_555
C6 C7 1_555 1_555
C8 C28 1_555 1_555
C9 C10 1_555 1_555
C14 C15 1_555 1_555
C19 C20 1_555 1_555
C21 C22 1_555 1_555
C26 C27 1_555 1_555

#END
