
#######################################################################
#
#                 Cambridge Crystallographic Data Centre
#                                CCDC 
#
#######################################################################
#
# If this CIF has been generated from an entry in the Cambridge 
# Structural Database, then it will include bibliographic, chemical, 
# crystal, experimental, refinement or atomic coordinate data resulting 
# from the CCDC's data processing and validation procedures.
#
#######################################################################

data_FABGUM
_chemical_formula_moiety         '(C12 H16 Ag2 Cl1 N12 O8 2+)n'
_symmetry_cell_setting           orthorhombic
_symmetry_space_group_name_H-M   'C c c m'
_symmetry_Int_Tables_number      66
_space_group_name_Hall           '-C 2 2c'
loop_
_symmetry_equiv_pos_site_id
_symmetry_equiv_pos_as_xyz
1 x,y,z
2 -x,-y,z
3 1/2+x,1/2+y,z
4 1/2-x,1/2-y,z
5 x,-y,1/2-z
6 -x,y,1/2-z
7 1/2+x,1/2-y,1/2-z
8 1/2-x,1/2+y,1/2-z
9 -x,-y,-z
10 x,y,-z
11 1/2-x,1/2-y,-z
12 1/2+x,1/2+y,-z
13 -x,y,1/2+z
14 x,-y,1/2+z
15 1/2-x,1/2+y,1/2+z
16 1/2+x,1/2-y,1/2+z
_cell_length_a                   8.7011(9)
_cell_length_b                   20.857(2)
_cell_length_c                   8.2868(9)
_cell_angle_alpha                90
_cell_angle_beta                 90
_cell_angle_gamma                90
_cell_volume                     1503.88
loop_
_atom_site_label
_atom_site_type_symbol
_atom_site_fract_x
_atom_site_fract_y
_atom_site_fract_z
Cl1 Cl 0.2500 0.2500 0.5000
O1 O 0.1546(15) 0.2509(8) 0.6359(13)
O2 O 0.333(2) 0.3167(10) 0.5000
O3 O 0.368(2) 0.2053(10) 0.5000
O1C O 0.3454(15) 0.2491(8) 0.6359(13)
O1I O 0.1546(15) 0.2509(8) 0.3641(13)
O1J O 0.3454(15) 0.2491(8) 0.3641(13)
O2C O 0.167(2) 0.1833(10) 0.5000
O3C O 0.132(2) 0.2947(10) 0.5000
Ag1 Ag -0.5000 1.0000 -0.2500
N1 N -0.3807(7) 0.9272(2) -0.0823(6)
N2 N -0.2705(9) 0.8391(3) 0.0000
C1 C -0.3152(8) 0.8737(3) -0.1277(7)
H1 H -0.3014 0.8611 -0.2357
C2 C -0.1907(10) 0.7754(4) 0.0000
H2 H -0.1255 0.7714 0.0959
Ag1H Ag -0.5000 1.0000 0.2500
Ag1B Ag -1.0000 1.5000 -0.2500
Ag1B_2 Ag -0.0000 0.5000 -0.2500
Ag1J Ag -1.0000 1.5000 0.2500
Ag1J_2 Ag -0.0000 0.5000 0.2500
N1C N -0.1193(7) 0.5728(2) -0.0823(6)
N1I N -0.3807(7) 0.9272(2) 0.0823(6)
N1J N -0.1193(7) 0.5728(2) 0.0823(6)
N1A N -0.6193(7) 1.0728(2) -0.0823(6)
N1B N -0.8807(7) 1.4272(2) -0.0823(6)
N1H N -0.6193(7) 1.0728(2) 0.0823(6)
N1K N -0.8807(7) 1.4272(2) 0.0823(6)
N1L N -0.6193(7) 0.9272(2) 0.4177(6)
N1M N -0.3807(7) 1.0728(2) 0.4177(6)
N1D N -0.3807(7) 1.0728(2) -0.4177(6)
N1E N -0.6193(7) 0.9272(2) -0.4177(6)
N2C N -0.2295(9) 0.6609(3) 0.0000
N2A N -0.7295(9) 1.1609(3) 0.0000
N2B N -0.7705(9) 1.3391(3) 0.0000
C1C C -0.1848(8) 0.6263(3) -0.1277(7)
C1I C -0.3152(8) 0.8737(3) 0.1277(7)
C1J C -0.1848(8) 0.6263(3) 0.1277(7)
C1A C -0.6848(8) 1.1263(3) -0.1277(7)
C1B C -0.8152(8) 1.3737(3) -0.1277(7)
C1H C -0.6848(8) 1.1263(3) 0.1277(7)
C1K C -0.8152(8) 1.3737(3) 0.1277(7)
H1C H -0.1986 0.6389 -0.2357
H1I H -0.3014 0.8611 0.2357
H1J H -0.1986 0.6389 0.2357
H1A H -0.6986 1.1389 -0.2357
H1B H -0.8014 1.3611 -0.2357
H1H H -0.6986 1.1389 0.2357
H1K H -0.8014 1.3611 0.2357
C2C C -0.3093(10) 0.7246(4) 0.0000
C2A C -0.8093(10) 1.2246(4) 0.0000
C2B C -0.6907(10) 1.2754(4) 0.0000
H2C H -0.3745 0.7286 0.0959
H2I H -0.1255 0.7714 -0.0959
H2J H -0.3745 0.7286 -0.0959
H2A H -0.8745 1.2286 0.0959
H2B H -0.6255 1.2714 0.0959
H2H H -0.8745 1.2286 -0.0959
H2K H -0.6255 1.2714 -0.0959
loop_
_geom_bond_atom_site_label_1
_geom_bond_atom_site_label_2
_geom_bond_site_symmetry_1
_geom_bond_site_symmetry_2
Ag1 N1 1_555 1_555
Cl1 O1 1_555 1_555
O1 O1C 1_555 1_555
O2 Cl1 1_555 1_555
O3 Cl1 1_555 1_555
N1 C1 1_555 1_555
N2 C1 1_555 1_555
C1 H1 1_555 1_555
C2 N2 1_555 1_555
H2 C2 1_555 1_555
Ag1H N1I 1_555 1_555
Ag1B N1B 1_555 1_555
Ag1B_2 N1C 1_555 1_555
Ag1J N1K 1_555 1_555
Ag1J_2 N1J 1_555 1_555
O1C Cl1 1_555 1_555
O1I Cl1 1_555 1_555
O1J Cl1 1_555 1_555
O2C Cl1 1_555 1_555
O3C Cl1 1_555 1_555
N1C N1J 1_555 1_555
N1I N1 1_555 1_555
N1J C1J 1_555 1_555
N1A Ag1 1_555 1_555
N1B N1K 1_555 1_555
N1H Ag1H 1_555 1_555
N1K C1K 1_555 1_555
N1L Ag1H 1_555 1_555
N1M Ag1H 1_555 1_555
N1D Ag1 1_555 1_555
N1E Ag1 1_555 1_555
N2C C1C 1_555 1_555
N2A C1A 1_555 1_555
N2B C1B 1_555 1_555
C1C N1C 1_555 1_555
C1I N2 1_555 1_555
C1J N2C 1_555 1_555
C1A N1A 1_555 1_555
C1B N1B 1_555 1_555
C1H N1H 1_555 1_555
C1K N2B 1_555 1_555
H1C C1C 1_555 1_555
H1I C1I 1_555 1_555
H1J C1J 1_555 1_555
H1A C1A 1_555 1_555
H1B C1B 1_555 1_555
H1H C1H 1_555 1_555
H1K C1K 1_555 1_555
C2C C2 1_555 1_555
C2A N2A 1_555 1_555
C2B N2B 1_555 1_555
H2C C2C 1_555 1_555
H2I C2 1_555 1_555
H2J C2C 1_555 1_555
H2A C2A 1_555 1_555
H2B C2B 1_555 1_555
H2H C2A 1_555 1_555
H2K C2B 1_555 1_555
O1 O2C 1_555 1_555
O1 O3C 1_555 1_555
O2 O1C 1_555 1_555
O2 O1J 1_555 1_555
O2 O3C 1_555 1_555
O3 O1C 1_555 1_555
O3 O1J 1_555 1_555
O3 O2C 1_555 1_555
O1I O1J 1_555 1_555
O1I O2C 1_555 1_555
O1I O3C 1_555 1_555
N1I C1I 1_555 1_555
N1A N1H 1_555 1_555
N2C C2C 1_555 1_555
N2A C1H 1_555 1_555
C2A C2B 1_555 1_555

#END
