
#######################################################################
#
#                 Cambridge Crystallographic Data Centre
#                                CCDC 
#
#######################################################################
#
# If this CIF has been generated from an entry in the Cambridge 
# Structural Database, then it will include bibliographic, chemical, 
# crystal, experimental, refinement or atomic coordinate data resulting 
# from the CCDC's data processing and validation procedures.
#
#######################################################################

data_QUFXIZ
_chemical_formula_moiety         '(C39 H38 F6 N8 O12 Zn2)n'
_symmetry_cell_setting           monoclinic
_symmetry_space_group_name_H-M   'C c'
_symmetry_Int_Tables_number      9
_space_group_name_Hall           'C -2yc'
loop_
_symmetry_equiv_pos_site_id
_symmetry_equiv_pos_as_xyz
1 x,y,z
2 x,-y,1/2+z
3 1/2+x,1/2+y,z
4 1/2+x,1/2-y,1/2+z
_cell_length_a                   29.511(8)
_cell_length_b                   12.050(3)
_cell_length_c                   13.908(4)
_cell_angle_alpha                90
_cell_angle_beta                 111.457(11)
_cell_angle_gamma                90
_cell_volume                     4603.01
loop_
_atom_site_label
_atom_site_type_symbol
_atom_site_fract_x
_atom_site_fract_y
_atom_site_fract_z
_atom_site_U_iso_or_equiv
_atom_site_thermal_displace_type
Zn1 Zn 0.15151(2) -0.04745(6) 0.75428(4) 0.0382 Uani
Zn2 Zn -0.15562(3) 0.03743(6) 0.82833(4) 0.0408 Uani
C1 C 0.3648(3) -0.3297(7) 1.0195(6) 0.0591 Uani
H1 H 0.3825 -0.3876 1.0603 0.0710 Uiso
C2 C 0.3197(3) -0.2372(6) 0.8923(6) 0.0559 Uani
H2 H 0.2997 -0.2181 0.8254 0.0670 Uiso
C3 C 0.3296(3) -0.1691(6) 0.9744(5) 0.0558 Uani
H3 H 0.3187 -0.0967 0.9751 0.0670 Uiso
C4 C 0.3794(3) -0.1949(9) 1.1658(6) 0.0740 Uani
H4 H 0.4046 -0.2469 1.2042 0.0890 Uiso
H5 H 0.3944 -0.1225 1.1702 0.0890 Uiso
C5 C 0.3427(3) -0.1893(7) 1.2135(5) 0.0603 Uani
H6 H 0.3296 -0.2632 1.2131 0.0730 Uiso
H7 H 0.3587 -0.1673 1.2851 0.0730 Uiso
C6 C 0.3155(3) -0.0048(7) 1.1875(5) 0.0587 Uani
H8 H 0.3408 0.0159 1.1618 0.0700 Uiso
H9 H 0.3279 0.0068 1.2616 0.0700 Uiso
C7 C 0.2714(3) 0.0647(7) 1.1373(5) 0.0619 Uani
H10 H 0.2454 0.0389 1.1588 0.0740 Uiso
H11 H 0.2786 0.1410 1.1602 0.0740 Uiso
C8 C 0.2188(3) -0.0014(6) 0.9628(5) 0.0456 Uani
H12 H 0.2011 -0.0512 0.9864 0.0540 Uiso
C9 C 0.2461(3) 0.0915(7) 0.8634(6) 0.0553 Uani
H13 H 0.2503 0.1177 0.8043 0.0660 Uiso
C10 C 0.2737(3) 0.1215(7) 0.9633(6) 0.0625 Uani
H14 H 0.2993 0.1717 0.9852 0.0750 Uiso
C11 C 0.1173(2) 0.1106(5) 0.6076(5) 0.0354 Uani
C12 C 0.0838(2) 0.1918(5) 0.5341(4) 0.0339 Uani
C13 C 0.0545(3) 0.2585(5) 0.5650(5) 0.0377 Uani
H15 H 0.0530 0.2474 0.6300 0.0450 Uiso
C14 C 0.0260(2) 0.3442(5) 0.5015(4) 0.0330 Uani
C15 C 0.0290(3) 0.3574(6) 0.4044(5) 0.0479 Uani
H16 H 0.0125 0.4155 0.3619 0.0580 Uiso
C16 C 0.0565(3) 0.2849(6) 0.3707(5) 0.0528 Uani
H17 H 0.0573 0.2939 0.3049 0.0630 Uiso
C17 C 0.0828(2) 0.1992(6) 0.4328(5) 0.0426 Uani
C18 C 0.1076(3) 0.1122(6) 0.3860(5) 0.0471 Uani
C19 C -0.0035(3) 0.4193(4) 0.5447(6) 0.0333 Uani
C20 C -0.0377(2) 0.3506(5) 0.5839(5) 0.0309 Uani
C21 C -0.0449(3) 0.3779(6) 0.6750(5) 0.0431 Uani
H18 H -0.0281 0.4369 0.7157 0.0520 Uiso
C22 C -0.0776(3) 0.3150(7) 0.7037(5) 0.0523 Uani
H19 H -0.0825 0.3325 0.7643 0.0630 Uiso
C23 C -0.1029(2) 0.2277(6) 0.6443(4) 0.0389 Uani
C24 C -0.0965(2) 0.2035(5) 0.5541(5) 0.0375 Uani
C25 C -0.0623(2) 0.2633(5) 0.5243(4) 0.0322 Uani
H20 H -0.0566 0.2434 0.4651 0.0390 Uiso
C26 C -0.1354(3) 0.1667(6) 0.6868(5) 0.0476 Uani
C27 C -0.1276(3) 0.1143(5) 0.4804(5) 0.0389 Uani
C28 C -0.0369(3) 0.4989(6) 0.4599(6) 0.0460 Uani
C29 C 0.0327(3) 0.4935(7) 0.6282(6) 0.0503 Uani
C30 C -0.2252(3) -0.0396(6) 0.6305(7) 0.0556 Uani
H21 H -0.2085 -0.0013 0.5958 0.0670 Uiso
C31 C -0.2475(3) -0.1057(7) 0.7490(8) 0.0671 Uani
H22 H -0.2491 -0.1188 0.8136 0.0810 Uiso
C32 C -0.2751(3) -0.1540(8) 0.6633(9) 0.0810 Uani
H23 H -0.2986 -0.2078 0.6565 0.0970 Uiso
C33 C -0.2843(4) -0.1339(10) 0.4722(8) 0.1074 Uani
H24 H -0.2939 -0.2112 0.4605 0.1290 Uiso
H25 H -0.2600 -0.1199 0.4418 0.1290 Uiso
C34 C -0.3284(5) -0.0598(11) 0.4211(10) 0.1252 Uani
H26 H -0.3431 -0.0756 0.3477 0.1500 Uiso
H27 H -0.3526 -0.0713 0.4521 0.1500 Uiso
C35 C -0.3452(5) 0.1279(11) 0.3834(11) 0.1140 Uiso
C36 C -0.3809(6) 0.1888(14) 0.4208(12) 0.0610 Uiso
C37 C -0.3539(4) 0.3304(7) 0.5629(6) 0.0761 Uani
H28 H -0.3737 0.3844 0.5200 0.0920 Uiso
C38 C -0.3113(4) 0.2395(6) 0.6982(6) 0.0622 Uani
H29 H -0.2956 0.2201 0.7672 0.0750 Uiso
C39 C -0.3130(5) 0.1763(13) 0.6163(10) 0.1120 Uiso
H30 H -0.2992 0.1068 0.6172 0.1350 Uiso
N1 N 0.3422(2) -0.3357(5) 0.9180(4) 0.0518 Uani
N2 N 0.3589(2) -0.2297(5) 1.0563(4) 0.0467 Uani
N3 N 0.2548(2) 0.0606(5) 1.0236(4) 0.0508 Uani
N4 N 0.2111(2) 0.0160(5) 0.8652(4) 0.0439 Uani
N5 N -0.2165(2) -0.0339(5) 0.7301(5) 0.0477 Uani
N6 N -0.2628(3) -0.1109(6) 0.5866(6) 0.0702 Uani
N7 N -0.3405(4) 0.2398(9) 0.5300(8) 0.1120 Uiso
N8 N -0.3360(2) 0.3361(5) 0.6639(4) 0.0427 Uani
O1 O 0.30328(18) -0.1151(4) 1.1656(3) 0.0517 Uani
O2 O 0.10197(19) 0.0551(4) 0.6693(4) 0.0509 Uani
O4 O 0.16058(17) 0.1043(4) 0.6125(4) 0.0449 Uani
O5 O 0.1011(2) 0.0151(4) 0.3966(4) 0.0564 Uani
O6 O 0.1299(2) 0.1563(4) 0.3345(4) 0.0600 Uani
O7 O -0.1114(2) 0.0765(5) 0.4133(4) 0.0578 Uani
O8 O -0.1646(2) 0.0837(5) 0.4905(4) 0.0581 Uani
O9 O -0.17518(19) 0.2050(4) 0.6793(4) 0.0592 Uani
O10 O -0.1185(2) 0.0778(5) 0.7382(4) 0.0594 Uani
O11 O -0.3113(3) 0.0456(7) 0.4370(5) 0.1005 Uani
F1 F 0.01253(18) 0.5799(4) 0.6569(4) 0.0629 Uani
F2 F 0.05492(17) 0.4357(4) 0.7143(3) 0.0605 Uani
F3 F 0.0655(2) 0.5353(4) 0.5970(4) 0.0754 Uani
F4 F -0.01152(19) 0.5758(4) 0.4310(4) 0.0600 Uani
F5 F -0.0687(2) 0.5536(4) 0.4944(4) 0.0702 Uani
F6 F -0.06542(17) 0.4454(3) 0.3758(3) 0.0522 Uani
Zn1A Zn 0.15151(2) 0.04745(6) 0.25428(4) 0.0382 Uani
Zn1B Zn -0.34849(2) 0.45255(6) 0.75428(4) 0.0382 Uani
Zn2A Zn -0.15562(3) -0.03743(6) 0.32833(4) 0.0408 Uani
Zn2B Zn 0.34438(3) -0.46257(6) 0.82833(4) 0.0408 Uani
N1B N -0.1578(2) 0.1643(5) 0.9180(4) 0.0518 Uani
N8B N 0.1640(2) -0.1639(5) 0.6639(4) 0.0427 Uani
O6A O 0.1299(2) -0.1563(4) 0.8345(4) 0.0600 Uani
O7A O -0.1114(2) -0.0765(5) 0.9133(4) 0.0578 Uani
O3 O 0.0375(6) 0.1689(15) 0.7959(13) 0.1160 Uiso
O12 O 0.4535(7) -0.4174(16) 1.2454(14) 0.1220 Uiso
loop_
_atom_site_aniso_label
_atom_site_aniso_U_11
_atom_site_aniso_U_22
_atom_site_aniso_U_33
_atom_site_aniso_U_23
_atom_site_aniso_U_13
_atom_site_aniso_U_12
Zn1 0.0451(4) 0.0383(4) 0.0318(4) 0.0036(3) 0.0147(3) -0.0003(3)
Zn2 0.0485(5) 0.0399(4) 0.0355(4) 0.0062(3) 0.0170(4) 0.0022(3)
C1 0.070(5) 0.057(5) 0.035(4) 0.000(3) 0.001(3) 0.009(4)
C2 0.083(6) 0.047(4) 0.042(4) 0.008(3) 0.028(4) 0.012(4)
C3 0.075(5) 0.052(4) 0.041(3) 0.003(3) 0.022(4) 0.011(4)
C4 0.061(5) 0.107(7) 0.038(4) -0.029(4) -0.001(3) -0.002(5)
C5 0.071(5) 0.053(4) 0.042(4) -0.009(3) 0.003(4) -0.010(4)
C6 0.068(5) 0.063(5) 0.033(3) -0.012(3) 0.004(4) -0.016(4)
C7 0.084(6) 0.062(5) 0.037(3) -0.017(3) 0.019(4) -0.004(4)
C8 0.050(4) 0.048(4) 0.038(3) 0.000(3) 0.015(3) 0.003(3)
C9 0.059(5) 0.056(4) 0.048(4) 0.004(3) 0.016(3) -0.012(4)
C10 0.067(5) 0.062(5) 0.049(4) -0.003(3) 0.010(4) -0.020(4)
C11 0.040(4) 0.036(3) 0.031(3) 0.000(3) 0.014(3) 0.002(3)
C12 0.038(3) 0.045(3) 0.025(3) 0.005(2) 0.019(3) 0.001(3)
C13 0.050(4) 0.037(3) 0.024(3) 0.002(2) 0.011(3) 0.009(3)
C14 0.033(3) 0.040(3) 0.024(3) 0.002(2) 0.008(2) 0.001(3)
C15 0.061(4) 0.052(4) 0.033(3) 0.017(3) 0.020(3) 0.024(4)
C16 0.067(5) 0.071(5) 0.027(3) 0.017(3) 0.025(3) 0.026(4)
C17 0.047(4) 0.056(4) 0.027(3) 0.005(3) 0.016(3) 0.009(3)
C18 0.056(4) 0.055(4) 0.029(3) 0.007(3) 0.014(3) 0.002(3)
C19 0.034(2) 0.037(2) 0.027(2) -0.001(3) 0.0090(19) 0.003(3)
C20 0.025(3) 0.035(3) 0.033(3) 0.003(2) 0.011(2) 0.003(2)
C21 0.044(4) 0.052(4) 0.034(3) -0.015(3) 0.015(3) -0.009(3)
C22 0.063(5) 0.067(5) 0.036(3) -0.010(3) 0.029(3) -0.008(4)
C23 0.037(3) 0.054(4) 0.026(3) 0.000(3) 0.012(3) 0.005(3)
C24 0.045(4) 0.033(3) 0.037(3) 0.002(2) 0.018(3) -0.003(3)
C25 0.033(3) 0.046(3) 0.019(3) -0.002(2) 0.011(2) 0.006(3)
C26 0.067(5) 0.046(4) 0.030(3) -0.002(3) 0.018(3) 0.003(3)
C27 0.050(4) 0.041(3) 0.031(3) -0.003(3) 0.021(3) -0.002(3)
C28 0.056(5) 0.041(4) 0.044(4) 0.012(3) 0.022(4) 0.015(3)
C29 0.053(5) 0.054(4) 0.044(4) -0.008(4) 0.018(4) -0.003(4)
C30 0.052(5) 0.059(5) 0.051(4) -0.012(3) 0.013(4) 0.013(4)
C31 0.063(5) 0.063(5) 0.075(6) -0.006(4) 0.025(5) -0.002(4)
C32 0.060(5) 0.068(6) 0.110(8) -0.024(6) 0.025(6) -0.018(4)
C33 0.098(8) 0.118(9) 0.073(6) -0.060(6) -0.008(6) 0.015(7)
C34 0.088(8) 0.130(10) 0.127(11) -0.094(9) 0.003(7) -0.004(7)
C37 0.121(8) 0.055(5) 0.038(4) -0.003(3) 0.012(5) 0.033(5)
C38 0.094(6) 0.053(4) 0.040(4) 0.018(3) 0.025(4) 0.024(4)
N1 0.063(4) 0.043(3) 0.041(3) -0.002(3) 0.009(3) -0.001(3)
N2 0.047(3) 0.054(3) 0.035(3) -0.016(2) 0.010(2) -0.005(3)
N3 0.058(4) 0.051(3) 0.040(3) -0.009(3) 0.014(3) -0.011(3)
N4 0.053(4) 0.047(3) 0.030(3) 0.001(2) 0.013(3) -0.009(3)
N5 0.052(4) 0.051(4) 0.041(3) -0.008(3) 0.018(3) -0.010(3)
N6 0.054(4) 0.063(4) 0.084(5) -0.033(4) 0.014(4) -0.008(3)
N8 0.057(4) 0.045(3) 0.029(3) 0.003(2) 0.019(3) 0.002(3)
O1 0.050(3) 0.058(3) 0.043(2) -0.010(2) 0.012(2) -0.011(2)
O2 0.050(3) 0.063(3) 0.046(3) 0.022(2) 0.025(3) 0.010(2)
O4 0.033(2) 0.058(3) 0.043(2) 0.005(2) 0.013(2) 0.003(2)
O5 0.073(3) 0.045(3) 0.053(3) 0.004(2) 0.025(3) 0.001(3)
O6 0.079(4) 0.057(3) 0.059(3) -0.001(2) 0.043(3) 0.004(3)
O7 0.074(4) 0.061(3) 0.057(3) -0.030(3) 0.046(3) -0.022(3)
O8 0.059(3) 0.065(3) 0.059(3) -0.024(3) 0.032(3) -0.024(3)
O9 0.059(3) 0.061(3) 0.075(3) 0.001(3) 0.045(3) 0.003(3)
O10 0.068(3) 0.063(3) 0.050(3) 0.019(2) 0.025(3) 0.001(3)
O11 0.079(5) 0.134(7) 0.064(4) -0.037(4) -0.003(4) 0.033(5)
F1 0.078(3) 0.047(2) 0.060(3) -0.022(2) 0.021(3) -0.004(2)
F2 0.049(3) 0.084(3) 0.034(2) -0.009(2) -0.002(2) -0.005(2)
F3 0.073(3) 0.096(4) 0.061(3) -0.021(3) 0.029(3) -0.048(3)
F4 0.082(3) 0.041(2) 0.056(3) 0.017(2) 0.024(3) 0.004(2)
F5 0.081(4) 0.068(3) 0.071(3) 0.013(2) 0.039(3) 0.045(3)
F6 0.047(3) 0.058(3) 0.039(2) 0.0048(18) 0.0007(19) 0.005(2)
Zn1A 0.0451 0.0383 0.0318 -0.0036 0.0147 0.0003
Zn1B 0.0451 0.0383 0.0318 0.0036 0.0147 -0.0003
Zn2A 0.0485 0.0399 0.0355 -0.0062 0.017 -0.0022
Zn2B 0.0485 0.0399 0.0355 0.0062 0.017 0.0022
N1B 0.063 0.043 0.041 -0.002 0.009 -0.001
N8B 0.057 0.045 0.029 0.003 0.019 0.002
O6A 0.079 0.057 0.059 0.001 0.043 -0.004
O7A 0.074 0.061 0.057 0.03 0.046 0.022
loop_
_geom_bond_atom_site_label_1
_geom_bond_atom_site_label_2
_geom_bond_site_symmetry_1
_geom_bond_site_symmetry_2
Zn1 N4 1_555 1_555
Zn2 N5 1_555 1_555
C1 H1 1_555 1_555
C2 H2 1_555 1_555
C3 C2 1_555 1_555
H3 C3 1_555 1_555
C4 H4 1_555 1_555
H5 C4 1_555 1_555
C5 C4 1_555 1_555
H6 C5 1_555 1_555
H7 C5 1_555 1_555
C6 H8 1_555 1_555
H9 C6 1_555 1_555
C7 C6 1_555 1_555
H10 C7 1_555 1_555
H11 C7 1_555 1_555
C8 H12 1_555 1_555
C9 H13 1_555 1_555
C10 C9 1_555 1_555
H14 C10 1_555 1_555
C11 C12 1_555 1_555
C12 C13 1_555 1_555
C13 H15 1_555 1_555
C14 C13 1_555 1_555
C15 C14 1_555 1_555
H16 C15 1_555 1_555
C16 C15 1_555 1_555
H17 C16 1_555 1_555
C17 C12 1_555 1_555
C18 C17 1_555 1_555
C19 C14 1_555 1_555
C20 C19 1_555 1_555
C21 C20 1_555 1_555
H18 C21 1_555 1_555
C22 C21 1_555 1_555
H19 C22 1_555 1_555
C23 C22 1_555 1_555
C24 C23 1_555 1_555
C25 C20 1_555 1_555
H20 C25 1_555 1_555
C26 C23 1_555 1_555
C27 C24 1_555 1_555
C28 C19 1_555 1_555
C29 C19 1_555 1_555
C30 H21 1_555 1_555
C31 H22 1_555 1_555
C32 C31 1_555 1_555
H23 C32 1_555 1_555
C33 H24 1_555 1_555
H25 C33 1_555 1_555
C34 C33 1_555 1_555
H26 C34 1_555 1_555
H27 C34 1_555 1_555
C35 C36 1_555 1_555
C36 N7 1_555 1_555
C37 H28 1_555 1_555
C38 H29 1_555 1_555
C39 C38 1_555 1_555
H30 C39 1_555 1_555
N1 C1 1_555 1_555
N2 C1 1_555 1_555
N3 C7 1_555 1_555
N4 C8 1_555 1_555
N5 C30 1_555 1_555
N6 C30 1_555 1_555
N7 C37 1_555 1_555
N8 C37 1_555 1_555
O1 C5 1_555 1_555
O2 Zn1 1_555 1_555
O4 C11 1_555 1_555
O5 C18 1_555 1_555
O6 C18 1_555 1_555
O7 C27 1_555 1_555
O8 C27 1_555 1_555
O9 C26 1_555 1_555
O10 Zn2 1_555 1_555
O11 C34 1_555 1_555
F1 C29 1_555 1_555
F2 C29 1_555 1_555
F3 C29 1_555 1_555
F4 C28 1_555 1_555
F5 C28 1_555 1_555
F6 C28 1_555 1_555
Zn1A O6 1_555 1_555
Zn1B N8 1_555 1_555
Zn2A O7 1_555 1_555
Zn2B N1 1_555 1_555
N1B Zn2 1_555 1_555
N8B Zn1 1_555 1_555
O6A Zn1 1_555 1_555
O7A Zn2 1_555 1_555
C2 N1 1_555 1_555
C3 N2 1_555 1_555
C4 N2 1_555 1_555
C6 O1 1_555 1_555
C8 N3 1_555 1_555
C9 N4 1_555 1_555
C10 N3 1_555 1_555
C11 O2 1_555 1_555
C16 C17 1_555 1_555
C24 C25 1_555 1_555
C26 O10 1_555 1_555
C31 N5 1_555 1_555
C32 N6 1_555 1_555
C33 N6 1_555 1_555
C35 O11 1_555 1_555
C38 N8 1_555 1_555
C39 N7 1_555 1_555

#END
