
#######################################################################
#
#                 Cambridge Crystallographic Data Centre
#                                CCDC 
#
#######################################################################
#
# If this CIF has been generated from an entry in the Cambridge 
# Structural Database, then it will include bibliographic, chemical, 
# crystal, experimental, refinement or atomic coordinate data resulting 
# from the CCDC's data processing and validation procedures.
#
#######################################################################

data_DUFZOU
_chemical_formula_moiety         '(C42 H32 Eu2 Fe3 N6 O31)n'
_symmetry_cell_setting           hexagonal
_symmetry_space_group_name_H-M   'P 6/m c c'
_symmetry_Int_Tables_number      192
_space_group_name_Hall           '-P 6 2c'
loop_
_symmetry_equiv_pos_site_id
_symmetry_equiv_pos_as_xyz
1 x,y,z
2 -y,x-y,z
3 -x+y,-x,z
4 -x,-y,z
5 y,-x+y,z
6 x-y,x,z
7 y,x,1/2-z
8 x-y,-y,1/2-z
9 -x,-x+y,1/2-z
10 -y,-x,1/2-z
11 -x+y,y,1/2-z
12 x,x-y,1/2-z
13 -x,-y,-z
14 y,-x+y,-z
15 x-y,x,-z
16 x,y,-z
17 -y,x-y,-z
18 -x+y,-x,-z
19 -y,-x,1/2+z
20 -x+y,y,1/2+z
21 x,x-y,1/2+z
22 y,x,1/2+z
23 x-y,-y,1/2+z
24 -x,-x+y,1/2+z
_cell_length_a                   15.238(3)
_cell_length_b                   15.238(3)
_cell_length_c                   15.663(5)
_cell_angle_alpha                90
_cell_angle_beta                 90
_cell_angle_gamma                120
_cell_volume                     3149.64
loop_
_atom_site_label
_atom_site_type_symbol
_atom_site_fract_x
_atom_site_fract_y
_atom_site_fract_z
Eu1 Eu -0.6667 -0.3333 0.2500
Fe1 Fe -0.5000 -0.0000 0.5000
O1 O -0.5867(2) -0.3880(2) 0.14351(19)
O2 O -0.4475(3) -0.3843(3) 0.0915(2)
O3 O -0.3491(3) 0.1387(4) 0.5000
N1 N -0.4773(3) -0.23866(17) 0.2500
C1 C -0.2700(5) -0.1350(2) 0.2500
H1 H -0.1995 -0.0998 0.2500
C2 C -0.3217(4) -0.2132(4) 0.1936(4)
H2 H -0.2873 -0.2311 0.1547
C3 C -0.4260(3) -0.2643(3) 0.1961(3)
C4 C -0.4916(4) -0.3525(3) 0.1387(3)
Eu1L Eu -0.3333 0.3333 0.7500
Fe1H Fe -0.5000 -0.5000 0.0000
Fe1G Fe -0.5000 0.0000 0.0000
Fe1A Fe -1.0000 -0.5000 0.5000
Fe1F Fe -1.0000 -0.5000 0.0000
Fe1B Fe -0.5000 -0.5000 0.5000
Fe1H_2 Fe -0.5000 0.5000 1.0000
Fe1A_2 Fe 0.0000 0.5000 0.5000
Fe1B_2 Fe -0.5000 0.5000 0.5000
Fe1G_2 Fe -0.5000 -0.0000 1.0000
Fe1F_2 Fe 0.0000 0.5000 1.0000
O1K O -0.5867(2) -0.1987(3) 0.35649(19)
O1A O -0.6120(2) -0.1987(3) 0.14351(19)
O1J O -0.8013(3) -0.3880(2) 0.35649(19)
O1B O -0.8013(3) -0.4133(2) 0.14351(19)
O1I O -0.6120(2) -0.4133(2) 0.35649(19)
O1W O -0.4133(2) 0.1987(3) 0.64351(19)
O1L O -0.4133(2) 0.3880(2) 0.85649(19)
O1M O -0.3880(2) 0.1987(3) 0.85649(19)
O1N O -0.1987(3) 0.4133(2) 0.85649(19)
O1U O -0.3880(2) 0.4133(2) 0.64351(19)
O1V O -0.1987(3) 0.3880(2) 0.64351(19)
O2K O -0.4475(3) -0.0632(4) 0.4085(2)
O2A O -0.6157(3) -0.0632(4) 0.0915(2)
O2J O -0.9368(4) -0.3843(3) 0.4085(2)
O2B O -0.9368(4) -0.5525(3) 0.0915(2)
O2I O -0.6157(3) -0.5525(3) 0.4085(2)
O2H O -0.5525(3) 0.0632(4) 0.4085(2)
O2W O -0.5525(3) 0.0632(4) 0.5915(2)
O2L O -0.5525(3) 0.3843(3) 0.9085(2)
O2T O -0.4475(3) -0.0632(4) 0.5915(2)
O2D O -0.3843(3) 0.0632(4) 0.0915(2)
O2G O -0.0632(4) 0.3843(3) 0.4085(2)
O2M O -0.3843(3) 0.0632(4) -0.0915(2)
O2P O -0.6157(3) -0.0632(4) -0.0915(2)
O2J_2 O 0.0632(4) 0.6157(3) 0.4085(2)
O2S O 0.0632(4) 0.6157(3) 0.5915(2)
O2V O -0.0632(4) 0.3843(3) 0.5915(2)
O2M_2 O -0.3843(3) 0.0632(4) 0.9085(2)
O2N O -0.0632(4) 0.5525(3) 0.9085(2)
O2U O -0.3843(3) 0.5525(3) 0.5915(2)
O3C O -0.6509(3) -0.1387(4) 0.5000
O3J O -0.5122(5) 0.1387(4) 0.0000
O3G O -0.4878(5) -0.1387(4) 0.0000
O3D O 0.1387(4) 0.4878(5) 0.5000
O3A O -0.1387(4) 0.5122(5) 0.5000
N1A N -0.76134(17) -0.23864(34) 0.2500
N1B N -0.76136(34) -0.5227(3) 0.2500
N1L N -0.5227(3) 0.23866(17) 0.7500
N1M N -0.23866(17) 0.23864(34) 0.7500
N1N N -0.23864(34) 0.5227(3) 0.7500
C1A C -0.8650(2) -0.1350(5) 0.2500
C1B C -0.8650(5) -0.7300(5) 0.2500
C1L C -0.7300(5) 0.1350(2) 0.7500
C1M C -0.1350(2) 0.1350(5) 0.7500
C1N C -0.1350(5) 0.7300(5) 0.7500
H1A H -0.9002 -0.0997 0.2500
H1B H -0.9003 -0.8005 0.2500
H1L H -0.8005 0.0998 0.7500
H1M H -0.0998 0.0997 0.7500
H1N H -0.0997 0.8005 0.7500
C2K C -0.3217(4) -0.1085(6) 0.3064(4)
C2A C -0.7868(4) -0.1085(6) 0.1936(4)
C2J C -0.8915(6) -0.2132(4) 0.3064(4)
C2B C -0.8915(6) -0.6783(4) 0.1936(4)
C2I C -0.7868(4) -0.6783(4) 0.3064(4)
C2W C -0.6783(4) 0.1085(6) 0.6936(4)
C2L C -0.6783(4) 0.2132(4) 0.8064(4)
C2M C -0.2132(4) 0.1085(6) 0.8064(4)
C2V C -0.1085(6) 0.2132(4) 0.6936(4)
C2N C -0.1085(6) 0.6783(4) 0.8064(4)
C2U C -0.2132(4) 0.6783(4) 0.6936(4)
H2K H -0.2873 -0.0562 0.3453
H2A H -0.7689 -0.0562 0.1547
H2J H -0.9438 -0.2311 0.3453
H2B H -0.9438 -0.7127 0.1547
H2I H -0.7689 -0.7127 0.3453
H2W H -0.7127 0.0562 0.6547
H2L H -0.7127 0.2311 0.8453
H2M H -0.2311 0.0562 0.8453
H2V H -0.0562 0.2311 0.6547
H2N H -0.0562 0.7127 0.8453
H2U H -0.2311 0.7127 0.6547
C3K C -0.4260(3) -0.1617(4) 0.3039(3)
C3A C -0.7357(3) -0.1617(4) 0.1961(3)
C3J C -0.8383(4) -0.2643(3) 0.3039(3)
C3B C -0.8383(4) -0.5740(3) 0.1961(3)
C3I C -0.7357(3) -0.5740(3) 0.3039(3)
C3W C -0.5740(3) 0.1617(4) 0.6961(3)
C3L C -0.5740(3) 0.2643(3) 0.8039(3)
C3M C -0.2643(3) 0.1617(4) 0.8039(3)
C3V C -0.1617(4) 0.2643(3) 0.6961(3)
C3N C -0.1617(4) 0.5740(3) 0.8039(3)
C3U C -0.2643(3) 0.5740(3) 0.6961(3)
C4K C -0.4916(4) -0.1391(5) 0.3613(3)
C4A C -0.6475(3) -0.1391(5) 0.1387(3)
C4J C -0.8609(5) -0.3525(3) 0.3613(3)
C4B C -0.8609(5) -0.5084(4) 0.1387(3)
C4I C -0.6475(3) -0.5084(4) 0.3613(3)
C4W C -0.5084(4) 0.1391(5) 0.6387(3)
C4L C -0.5084(4) 0.3525(3) 0.8613(3)
C4M C -0.3525(3) 0.1391(5) 0.8613(3)
C4N C -0.1391(5) 0.5084(4) 0.8613(3)
C4U C -0.3525(3) 0.5084(4) 0.6387(3)
C4V C -0.1391(5) 0.3525(3) 0.6387(3)
O4 O -0.2097(13) -0.2608(12) 0.0000
loop_
_geom_bond_atom_site_label_1
_geom_bond_atom_site_label_2
_geom_bond_site_symmetry_1
_geom_bond_site_symmetry_2
Eu1 O1 1_555 1_555
Fe1 O3 1_555 1_555
O1 C4 1_555 1_555
O2 C4 1_555 1_555
N1 Eu1 1_555 1_555
C1 H1 1_555 1_555
C2 C1 1_555 1_555
H2 C2 1_555 1_555
C3 N1 1_555 1_555
C4 C3 1_555 1_555
Eu1L O1W 1_555 1_555
Fe1H O2 1_555 1_555
Fe1G O2A 1_555 1_555
Fe1A O2J 1_555 1_555
Fe1F O2B 1_555 1_555
Fe1B O2I 1_555 1_555
Fe1H_2 O2L 1_555 1_555
Fe1A_2 O2G 1_555 1_555
Fe1B_2 O2U 1_555 1_555
Fe1G_2 O2M_2 1_555 1_555
Fe1F_2 O2N 1_555 1_555
O1K Eu1 1_555 1_555
O1A Eu1 1_555 1_555
O1J Eu1 1_555 1_555
O1B Eu1 1_555 1_555
O1I Eu1 1_555 1_555
O1W C4W 1_555 1_555
O1L Eu1L 1_555 1_555
O1M Eu1L 1_555 1_555
O1N Eu1L 1_555 1_555
O1U Eu1L 1_555 1_555
O1V Eu1L 1_555 1_555
O2K Fe1 1_555 1_555
O2A C4A 1_555 1_555
O2J C4J 1_555 1_555
O2B C4B 1_555 1_555
O2I C4I 1_555 1_555
O2H Fe1 1_555 1_555
O2W Fe1 1_555 1_555
O2L C4L 1_555 1_555
O2T Fe1 1_555 1_555
O2D Fe1G 1_555 1_555
O2M Fe1G 1_555 1_555
O2P Fe1G 1_555 1_555
O2J_2 Fe1A_2 1_555 1_555
O2S Fe1A_2 1_555 1_555
O2V Fe1A_2 1_555 1_555
O2M_2 C4M 1_555 1_555
O2N C4N 1_555 1_555
O2U C4U 1_555 1_555
O3C Fe1 1_555 1_555
O3J Fe1G 1_555 1_555
O3G Fe1G 1_555 1_555
O3D Fe1A_2 1_555 1_555
O3A Fe1A_2 1_555 1_555
N1A Eu1 1_555 1_555
N1B Eu1 1_555 1_555
N1L Eu1L 1_555 1_555
N1M Eu1L 1_555 1_555
N1N Eu1L 1_555 1_555
C1A H1A 1_555 1_555
C1B H1B 1_555 1_555
C1L H1L 1_555 1_555
C1M H1M 1_555 1_555
C1N H1N 1_555 1_555
C2K C1 1_555 1_555
C2A C1A 1_555 1_555
C2J C1A 1_555 1_555
C2B C1B 1_555 1_555
C2I C1B 1_555 1_555
C2W C1L 1_555 1_555
C2L C1L 1_555 1_555
C2M C1M 1_555 1_555
C2V C1M 1_555 1_555
C2N C1N 1_555 1_555
C2U C1N 1_555 1_555
H2K C2K 1_555 1_555
H2A C2A 1_555 1_555
H2J C2J 1_555 1_555
H2B C2B 1_555 1_555
H2I C2I 1_555 1_555
H2W C2W 1_555 1_555
H2L C2L 1_555 1_555
H2M C2M 1_555 1_555
H2V C2V 1_555 1_555
H2N C2N 1_555 1_555
H2U C2U 1_555 1_555
C3K N1 1_555 1_555
C3A N1A 1_555 1_555
C3J N1A 1_555 1_555
C3B N1B 1_555 1_555
C3I N1B 1_555 1_555
C3W N1L 1_555 1_555
C3L N1L 1_555 1_555
C3M N1M 1_555 1_555
C3V N1M 1_555 1_555
C3N N1N 1_555 1_555
C3U N1N 1_555 1_555
C4K O1K 1_555 1_555
C4A O1A 1_555 1_555
C4J O1J 1_555 1_555
C4B O1B 1_555 1_555
C4I O1I 1_555 1_555
C4W O2W 1_555 1_555
C4L O1L 1_555 1_555
C4M O1M 1_555 1_555
C4N O1N 1_555 1_555
C4U O1U 1_555 1_555
C4V O1V 1_555 1_555
C2 C3 1_555 1_555
O2K C4K 1_555 1_555
O2V C4V 1_555 1_555
C2K C3K 1_555 1_555
C2A C3A 1_555 1_555
C2J C3J 1_555 1_555
C2B C3B 1_555 1_555
C2I C3I 1_555 1_555
C2W C3W 1_555 1_555
C2L C3L 1_555 1_555
C2M C3M 1_555 1_555
C2V C3V 1_555 1_555
C2N C3N 1_555 1_555
C2U C3U 1_555 1_555
C3K C4K 1_555 1_555
C3A C4A 1_555 1_555
C3J C4J 1_555 1_555
C3B C4B 1_555 1_555
C3I C4I 1_555 1_555
C3W C4W 1_555 1_555
C3L C4L 1_555 1_555
C3M C4M 1_555 1_555
C3V C4V 1_555 1_555
C3N C4N 1_555 1_555
C3U C4U 1_555 1_555

#END
