
#######################################################################
#
#                 Cambridge Crystallographic Data Centre
#                                CCDC 
#
#######################################################################
#
# If this CIF has been generated from an entry in the Cambridge 
# Structural Database, then it will include bibliographic, chemical, 
# crystal, experimental, refinement or atomic coordinate data resulting 
# from the CCDC's data processing and validation procedures.
#
#######################################################################

data_PIJJOI
_chemical_formula_moiety         '(C28 H32 N8 O4 Zn1)n'
_symmetry_cell_setting           orthorhombic
_symmetry_space_group_name_H-M   'P b c n'
_symmetry_Int_Tables_number      60
_space_group_name_Hall           '-P 2n 2ab'
loop_
_symmetry_equiv_pos_site_id
_symmetry_equiv_pos_as_xyz
1 x,y,z
2 1/2-x,1/2-y,1/2+z
3 -x,y,1/2-z
4 1/2+x,1/2-y,-z
5 -x,-y,-z
6 1/2+x,1/2+y,1/2-z
7 x,-y,1/2+z
8 1/2-x,1/2+y,z
_cell_length_a                   16.2045(13)
_cell_length_b                   17.6022(14)
_cell_length_c                   17.9025(14)
_cell_angle_alpha                90
_cell_angle_beta                 90
_cell_angle_gamma                90
_cell_volume                     5106.42
loop_
_atom_site_label
_atom_site_type_symbol
_atom_site_fract_x
_atom_site_fract_y
_atom_site_fract_z
_atom_site_U_iso_or_equiv
_atom_site_thermal_displace_type
Zn1 Zn 0.725215(15) 0.100829(14) 0.382966(13) 0.0298 Uani
O1 O 0.82720(10) 0.15365(10) 0.40801(10) 0.0454 Uani
O2 O 0.90519(13) 0.04915(11) 0.39826(11) 0.0565 Uani
O3 O 1.12783(11) 0.33979(11) 0.60507(10) 0.0486 Uani
O4 O 1.17437(12) 0.23121(12) 0.65174(13) 0.0678 Uani
N1 N 0.71380(13) 0.02604(11) 0.46757(10) 0.0378 Uani
N2 N 0.71873(12) -0.05056(11) 0.46251(10) 0.0357 Uani
H1 H 0.7133 -0.0756 0.4215 0.0430 Uiso
N3 N 0.74398(12) -0.05779(11) 0.78251(10) 0.0342 Uani
N4 N 0.81522(13) -0.02011(12) 0.77054(10) 0.0419 Uani
H2 H 0.8500 -0.0086 0.8050 0.0500 Uiso
C1 C 0.7245(2) 0.12243(17) 0.56821(16) 0.0622 Uani
H4 H 0.7748 0.1478 0.5547 0.0930 Uiso
H5 H 0.6785 0.1487 0.5465 0.0930 Uiso
H6 H 0.7190 0.1221 0.6216 0.0930 Uiso
C2 C 0.72650(16) 0.04260(14) 0.54002(13) 0.0397 Uani
C3 C 0.73887(15) -0.02432(14) 0.58059(12) 0.0368 Uani
C4 C 0.73304(14) -0.08266(14) 0.52911(13) 0.0367 Uani
C5 C 0.7397(2) -0.16651(16) 0.53763(16) 0.0538 Uani
H7 H 0.7384 -0.1900 0.4892 0.0810 Uiso
H8 H 0.7907 -0.1788 0.5621 0.0810 Uiso
H9 H 0.6943 -0.1848 0.5670 0.0810 Uiso
C6 C 0.9005(2) 0.0366(2) 0.66964(18) 0.0792 Uani
H10 H 0.9040 0.0864 0.6913 0.1190 Uiso
H11 H 0.9486 0.0078 0.6830 0.1190 Uiso
H12 H 0.8973 0.0410 0.6163 0.1190 Uiso
C7 C 0.82508(16) -0.00280(16) 0.69822(13) 0.0455 Uani
C8 C 0.75635(15) -0.03053(13) 0.66098(12) 0.0365 Uani
C9 C 0.70728(14) -0.06443(13) 0.71586(12) 0.0335 Uani
C10 C 0.62780(16) -0.10620(16) 0.70789(15) 0.0492 Uani
H13 H 0.5907 -0.0910 0.7470 0.0740 Uiso
H14 H 0.6037 -0.0947 0.6603 0.0740 Uiso
H15 H 0.6378 -0.1598 0.7113 0.0740 Uiso
C11 C 0.89248(15) 0.11478(14) 0.42043(14) 0.0400 Uani
C12 C 0.95546(14) 0.15456(13) 0.46828(13) 0.0372 Uani
C13 C 0.95433(16) 0.23270(15) 0.47474(15) 0.0460 Uani
H16 H 0.9160 0.2610 0.4479 0.0550 Uiso
C14 C 1.01012(16) 0.26894(14) 0.52117(15) 0.0463 Uani
H17 H 1.0103 0.3217 0.5239 0.0560 Uiso
C15 C 1.06669(15) 0.14962(14) 0.55675(16) 0.0463 Uani
H18 H 1.1040 0.1212 0.5847 0.0560 Uiso
C16 C 1.01277(16) 0.11331(14) 0.50875(16) 0.0462 Uani
H19 H 1.0150 0.0608 0.5036 0.0550 Uiso
C17 C 1.12772(15) 0.26801(15) 0.61183(14) 0.0413 Uani
C18 C 1.06564(14) 0.22763(13) 0.56351(14) 0.0378 Uani
Zn1C Zn 1.225215(15) 0.399171(14) 0.617034(13) 0.0298 Uani
Zn1F Zn 0.725215(15) -0.100829(14) 0.882966(13) 0.0298 Uani
O3C O 0.62783(11) 0.16021(11) 0.39493(10) 0.0486 Uani
N3F N 0.74398(12) 0.05779(11) 0.28251(10) 0.0342 Uani
N5 N 0.66645(13) 0.81046(12) 0.30424(12) 0.0452 Uani
H3 H 0.7139 0.7888 0.3075 0.0540 Uiso
N6 N 0.64479(13) 0.87291(12) 0.34348(12) 0.0452 Uani
C19 C 0.6144(2) 0.71725(18) 0.21184(19) 0.0714 Uani
H20 H 0.6719 0.7077 0.2029 0.1070 Uiso
H21 H 0.5867 0.7253 0.1651 0.1070 Uiso
H22 H 0.5903 0.6744 0.2368 0.1070 Uiso
C20 C 0.60537(15) 0.78612(14) 0.25954(14) 0.0421 Uani
C21 C 0.54050(14) 0.83568(13) 0.26905(13) 0.0374 Uani
C22 C 0.56819(16) 0.88826(13) 0.32252(15) 0.0414 Uani
C23 C 0.5207(2) 0.95221(18) 0.3572(2) 0.0686 Uani
H23 H 0.5267 0.9503 0.4105 0.1030 Uiso
H24 H 0.4634 0.9476 0.3443 0.1030 Uiso
H25 H 0.5416 0.9998 0.3390 0.1030 Uiso
N5B N 0.33355(13) 0.81046(12) 0.19576(12) 0.0452 Uani
H3B H 0.2861 0.7888 0.1925 0.0540 Uiso
N6B N 0.35521(13) 0.87291(12) 0.15652(12) 0.0452 Uani
C19B C 0.3856(2) 0.71725(18) 0.28816(19) 0.0714 Uani
H20B H 0.3281 0.7077 0.2971 0.1070 Uiso
H21B H 0.4133 0.7253 0.3349 0.1070 Uiso
H22B H 0.4097 0.6744 0.2632 0.1070 Uiso
C20B C 0.39463(15) 0.78612(14) 0.24046(14) 0.0421 Uani
C21B C 0.45950(14) 0.83568(13) 0.23095(13) 0.0374 Uani
C22B C 0.43181(16) 0.88826(13) 0.17748(15) 0.0414 Uani
C23B C 0.4793(2) 0.95221(18) 0.1428(2) 0.0686 Uani
H23B H 0.4733 0.9503 0.0895 0.1030 Uiso
H24B H 0.5366 0.9476 0.1557 0.1030 Uiso
H25B H 0.4584 0.9998 0.1610 0.1030 Uiso
loop_
_atom_site_aniso_label
_atom_site_aniso_U_11
_atom_site_aniso_U_22
_atom_site_aniso_U_33
_atom_site_aniso_U_23
_atom_site_aniso_U_13
_atom_site_aniso_U_12
Zn1 0.03289(15) 0.03618(16) 0.02035(14) -0.00199(10) -0.00036(9) 0.00076(10)
O1 0.0386(9) 0.0488(10) 0.0488(10) 0.0006(8) -0.0144(8) -0.0058(8)
O2 0.0629(12) 0.0498(11) 0.0568(12) -0.0149(9) -0.0251(10) 0.0041(9)
O3 0.0416(10) 0.0483(11) 0.0559(12) -0.0066(8) -0.0095(8) -0.0109(8)
O4 0.0513(12) 0.0694(13) 0.0828(15) 0.0026(12) -0.0374(11) -0.0031(10)
N1 0.054 0.037 0.0223 0.0006 -0.0033 -0.002
N2 0.0456 0.038 0.0236 -0.0038 -0.0056 -0.0038
N3 0.0379 0.0419 0.0227 0.0057 -0.0009 -0.0043
N4 0.0453 0.054 0.0264 0.0055 -0.0079 -0.0154
C1 0.113 0.0461 0.0275 -0.0034 -0.0027 0.0003
C2 0.0542 0.0428 0.022 0.0005 -0.001 -0.0039
C3 0.0435 0.0453 0.0217 0.0024 -0.0011 -0.0038
C4 0.0385 0.0429 0.0286 0.0042 -0.0026 -0.003
C5 0.0729 0.0432 0.0453 0.005 -0.005 0.0001
C6 0.068 0.12 0.0495 0.0251 -0.0047 -0.039
C7 0.051 0.0594 0.0261 0.0099 -0.0018 -0.0115
C8 0.0461 0.0415 0.022 0.0049 -0.0019 -0.0014
C9 0.0383 0.0379 0.0242 0.0025 -0.003 0.0037
C10 0.0422 0.0683 0.0372 0.0076 -0.0062 -0.0089
C11 0.0391(13) 0.0474(15) 0.0335(13) 0.0021(10) -0.0069(10) -0.0059(11)
C12 0.0336(11) 0.0415(13) 0.0366(13) -0.0015(10) -0.0047(9) -0.0047(10)
C13 0.0413(13) 0.0450(14) 0.0516(16) -0.0001(12) -0.0164(12) 0.0029(11)
C14 0.0448(14) 0.0376(13) 0.0566(16) -0.0038(11) -0.0154(12) 0.0000(11)
C15 0.0391(13) 0.0438(14) 0.0561(16) 0.0064(12) -0.0170(12) -0.0023(11)
C16 0.0444(14) 0.0337(13) 0.0605(17) -0.0001(11) -0.0143(12) -0.0037(10)
C17 0.0295(12) 0.0545(16) 0.0399(14) -0.0021(11) -0.0036(10) -0.0038(11)
C18 0.0302(11) 0.0425(13) 0.0407(13) 0.0000(10) -0.0048(10) -0.0044(10)
Zn1C 0.03289 0.03618 0.02035 -0.00199 0.00036 -0.00076
Zn1F 0.03289 0.03618 0.02035 0.00199 -0.00036 -0.00076
O3C 0.0416 0.0483 0.0559 -0.0066 0.0095 0.0109
N3F 0.0379(10) 0.0419(11) 0.0227(9) -0.0057(8) -0.0009(8) 0.0043(8)
N5 0.0397(11) 0.0498(12) 0.0461(12) -0.0056(10) -0.0144(9) 0.0097(9)
N6 0.0441(11) 0.0452(11) 0.0463(13) -0.0064(10) -0.0177(10) 0.0006(9)
C19 0.072(2) 0.0653(19) 0.077(2) -0.0320(17) -0.0235(17) 0.0248(17)
C20 0.0434(13) 0.0443(13) 0.0387(13) -0.0049(11) -0.0135(11) 0.0034(11)
C21 0.0396(12) 0.0354(12) 0.0371(12) 0.0016(10) -0.0124(10) -0.0015(10)
C22 0.0442(13) 0.0358(12) 0.0443(14) -0.0025(10) -0.0126(11) 0.0007(10)
C23 0.067(2) 0.0599(18) 0.079(2) -0.0263(17) -0.0203(18) 0.0152(15)
N5B 0.0397 0.0498 0.0461 0.0056 -0.0144 -0.0097
N6B 0.0441 0.0452 0.0463 0.0064 -0.0177 -0.0006
C19B 0.072 0.0653 0.077 0.032 -0.0235 -0.0248
C20B 0.0434 0.0443 0.0387 0.0049 -0.0135 -0.0034
C21B 0.0396 0.0354 0.0371 -0.0016 -0.0124 0.0015
C22B 0.0442 0.0358 0.0443 0.0025 -0.0126 -0.0007
C23B 0.067 0.0599 0.079 0.0263 -0.0203 -0.0152
loop_
_geom_bond_atom_site_label_1
_geom_bond_atom_site_label_2
_geom_bond_site_symmetry_1
_geom_bond_site_symmetry_2
Zn1 O1 1_555 1_555
O1 C11 1_555 1_555
O2 C11 1_555 1_555
O3 C17 1_555 1_555
O4 C17 1_555 1_555
N1 Zn1 1_555 1_555
N2 N1 1_555 1_555
H1 N2 1_555 1_555
N3 N4 1_555 1_555
N4 H2 1_555 1_555
N5 H3 1_555 1_555
N6 N5 1_555 1_555
C1 H4 1_555 1_555
H5 C1 1_555 1_555
H6 C1 1_555 1_555
C2 N1 1_555 1_555
C3 C2 1_555 1_555
C4 N2 1_555 1_555
C5 C4 1_555 1_555
H7 C5 1_555 1_555
H8 C5 1_555 1_555
H9 C5 1_555 1_555
C6 H10 1_555 1_555
H11 C6 1_555 1_555
H12 C6 1_555 1_555
C7 N4 1_555 1_555
C8 C3 1_555 1_555
C9 N3 1_555 1_555
C10 C9 1_555 1_555
H13 C10 1_555 1_555
H14 C10 1_555 1_555
H15 C10 1_555 1_555
C11 C12 1_555 1_555
C12 C13 1_555 1_555
C13 H16 1_555 1_555
C14 C13 1_555 1_555
H17 C14 1_555 1_555
C15 H18 1_555 1_555
C16 C12 1_555 1_555
H19 C16 1_555 1_555
C17 C18 1_555 1_555
C18 C14 1_555 1_555
C19 H20 1_555 1_555
H21 C19 1_555 1_555
H22 C19 1_555 1_555
C20 N5 1_555 1_555
C21 C20 1_555 1_555
C22 N6 1_555 1_555
C23 C22 1_555 1_555
H23 C23 1_555 1_555
H24 C23 1_555 1_555
H25 C23 1_555 1_555
Zn1C O3 1_555 1_555
Zn1F N3 1_555 1_555
O3C Zn1 1_555 1_555
N3F Zn1 1_555 1_555
N5B H3B 1_555 1_555
N6B N5B 1_555 1_555
C19B H20B 1_555 1_555
H21B C19B 1_555 1_555
H22B C19B 1_555 1_555
C20B N5B 1_555 1_555
C21B C21 1_555 1_555
C22B N6B 1_555 1_555
C23B C22B 1_555 1_555
H23B C23B 1_555 1_555
H24B C23B 1_555 1_555
H25B C23B 1_555 1_555
C1 C2 1_555 1_555
C3 C4 1_555 1_555
C6 C7 1_555 1_555
C7 C8 1_555 1_555
C8 C9 1_555 1_555
C15 C16 1_555 1_555
C15 C18 1_555 1_555
C19 C20 1_555 1_555
C21 C22 1_555 1_555
C19B C20B 1_555 1_555
C20B C21B 1_555 1_555
C21B C22B 1_555 1_555

#END
