
#######################################################################
#
#                 Cambridge Crystallographic Data Centre
#                                CCDC 
#
#######################################################################
#
# If this CIF has been generated from an entry in the Cambridge 
# Structural Database, then it will include bibliographic, chemical, 
# crystal, experimental, refinement or atomic coordinate data resulting 
# from the CCDC's data processing and validation procedures.
#
#######################################################################

data_FEYJOJ
_chemical_formula_moiety         '(C25 H31 Co2 N3 O13)n'
_symmetry_cell_setting           monoclinic
_symmetry_space_group_name_H-M   'P 21/n'
_symmetry_Int_Tables_number      14
_space_group_name_Hall           '-P 2yn'
loop_
_symmetry_equiv_pos_site_id
_symmetry_equiv_pos_as_xyz
1 x,y,z
2 1/2-x,1/2+y,1/2-z
3 -x,-y,-z
4 1/2+x,1/2-y,1/2+z
_cell_length_a                   14.279(3)
_cell_length_b                   13.006(2)
_cell_length_c                   17.515(3)
_cell_angle_alpha                90
_cell_angle_beta                 96.872(4)
_cell_angle_gamma                90
_cell_volume                     3229.39
loop_
_atom_site_label
_atom_site_type_symbol
_atom_site_fract_x
_atom_site_fract_y
_atom_site_fract_z
_atom_site_U_iso_or_equiv
_atom_site_thermal_displace_type
Co1 Co 0.00145(3) 0.93298(3) 0.22604(2) 0.0171 Uani
Co2 Co -0.43054(3) 1.72838(4) -0.13121(3) 0.0203 Uani
O1 O -0.0892(2) 1.0729(2) 0.27024(15) 0.0342 Uani
O2 O -0.05748(18) 1.0416(2) 0.15280(15) 0.0286 Uani
O3 O -0.37869(18) 1.5046(2) -0.22530(14) 0.0275 Uani
O4 O -0.35551(19) 1.5922(2) -0.11409(14) 0.0313 Uani
O5 O -0.06098(17) 1.16710(19) -0.16287(14) 0.0254 Uani
O6 O -0.11754(19) 1.2619(2) -0.26415(14) 0.0300 Uani
O7 O -0.45242(15) 1.35584(17) 0.18586(13) 0.0190 Uani
O8 O -0.35775(18) 1.3359(2) 0.29363(14) 0.0299 Uani
C1 C -0.2254(2) 1.3790(3) -0.17286(19) 0.0230 Uani
H1 H -0.2273 1.3982 -0.2254 0.0280 Uiso
C2 C -0.3420(2) 1.5181(3) -0.1566(2) 0.0248 Uani
C3 C -0.2775(3) 1.4335(3) -0.1247(2) 0.0259 Uani
C4 C -0.2753(3) 1.4047(3) -0.0482(2) 0.0295 Uani
H2 H -0.3085 1.4445 -0.0146 0.0350 Uiso
C5 C -0.2290(3) 1.2804(3) 0.0601(2) 0.0285 Uani
C6 C -0.1705(2) 1.2970(3) -0.1447(2) 0.0237 Uani
C7 C -0.2252(3) 1.3182(3) -0.0200(2) 0.0290 Uani
C8 C -0.1717(3) 1.2662(3) -0.0689(2) 0.0286 Uani
H3 H -0.1353 1.2084 -0.0501 0.0340 Uiso
C9 C -0.1647(3) 1.2087(3) 0.0934(2) 0.0261 Uani
H4 H -0.1182 1.1821 0.0642 0.0310 Uiso
C10 C -0.0996(3) 1.0923(3) 0.2000(2) 0.0251 Uani
C11 C -0.3005(2) 1.2834(3) 0.1780(2) 0.0223 Uani
C12 C -0.3736(2) 1.3250(3) 0.2234(2) 0.0204 Uani
C13 C -0.2334(3) 1.2148(3) 0.2118(2) 0.0249 Uani
H5 H -0.2331 1.1954 0.2641 0.0300 Uiso
C14 C -0.2995(3) 1.3145(3) 0.1030(2) 0.0255 Uani
H6 H -0.3472 1.3596 0.0801 0.0310 Uiso
C15 C -0.1666(3) 1.1750(3) 0.1681(2) 0.0251 Uani
C16 C -0.1117(2) 1.2377(3) -0.1952(2) 0.0226 Uani
O9 O -0.3170(3) 1.8175(3) -0.0849(2) 0.0646 Uani
C17 C -0.2476(4) 1.8010(6) -0.0588(4) 0.0825 Uani
H7 H -0.2377 1.7306 -0.0457 0.0990 Uiso
N1 N -0.1702(3) 1.8613(4) -0.0406(3) 0.0658 Uani
C18 C -0.0825(11) 1.8176(16) 0.0034(13) 0.1598 Uani
H8 H -0.0311 1.8188 -0.0290 0.2400 Uiso
H9 H -0.0648 1.8589 0.0496 0.2400 Uiso
H10 H -0.0943 1.7465 0.0182 0.2400 Uiso
C19 C -0.180(3) 1.972(2) -0.048(3) 0.0904 Uani
H11 H -0.2446 1.9890 -0.0698 0.1370 Uiso
H12 H -0.1667 2.0039 0.0030 0.1370 Uiso
H13 H -0.1356 1.9983 -0.0816 0.1370 Uiso
O10 O -0.5132(2) 1.8619(2) -0.1476(2) 0.0482 Uani
C20 C -0.5560(4) 1.9133(5) -0.1082(4) 0.0658 Uani
H14 H -0.5484 1.8977 -0.0548 0.0790 Uiso
N2 N -0.6138(3) 1.9905(3) -0.1308(3) 0.0662 Uani
C21 C -0.6333(5) 2.0247(5) -0.2090(4) 0.0809 Uani
H15 H -0.7016 2.0241 -0.2243 0.1210 Uiso
H16 H -0.6091 2.0947 -0.2134 0.1210 Uiso
H17 H -0.6026 1.9786 -0.2426 0.1210 Uiso
C22 C -0.6592(6) 2.0450(7) -0.0724(5) 0.1242 Uani
H18 H -0.6326 2.0214 -0.0212 0.1860 Uiso
H19 H -0.6483 2.1190 -0.0769 0.1860 Uiso
H20 H -0.7271 2.0312 -0.0799 0.1860 Uiso
O11 O -0.4691(2) 1.6974(2) -0.02274(15) 0.0418 Uani
H21 H -0.4463 1.6372 0.0042 0.0500 Uiso
H22 H -0.5096 1.7433 -0.0001 0.0500 Uiso
Co1C Co -0.49855(3) 1.56702(3) -0.27396(2) 0.0171 Uani
Co1B Co -0.00145(3) 1.06702(3) -0.22604(2) 0.0171 Uani
Co1A Co -0.50145(3) 1.43298(3) 0.27396(2) 0.0171 Uani
Co2A Co -0.06946(3) 1.22838(4) -0.36879(3) 0.0203 Uani
Co2B Co -0.56946(3) 1.27162(4) 0.13121(3) 0.0203 Uani
O3C O 0.12131(18) 0.9954(2) 0.27470(14) 0.0275 Uani
O5B O 0.06098(17) 0.83290(19) 0.16287(14) 0.0254 Uani
O6A O -0.38246(19) 1.7619(2) -0.23585(14) 0.0300 Uani
O7A O -0.04758(15) 0.85584(17) 0.31414(13) 0.0190 Uani
O7B O -0.54758(15) 1.64416(17) -0.18586(13) 0.0190 Uani
O8A O -0.14225(18) 0.8359(2) 0.20637(14) 0.0299 Uani
O12 O 0.0559(3) 0.3169(3) 0.42478(19) 0.0572 Uani
C23 C 0.0615(3) 0.2769(4) 0.3616(3) 0.0449 Uani
H23 H 0.0377 0.2090 0.3541 0.0540 Uiso
N3 N 0.0975(3) 0.3204(3) 0.3037(2) 0.0457 Uani
C24 C 0.1013(4) 0.2684(4) 0.2309(3) 0.0589 Uani
H24 H 0.0762 0.1986 0.2338 0.0890 Uiso
H25 H 0.1668 0.2651 0.2196 0.0890 Uiso
H26 H 0.0633 0.3065 0.1899 0.0890 Uiso
C25 C 0.1371(4) 0.4217(3) 0.3103(3) 0.0724 Uani
H27 H 0.1006 0.4676 0.2737 0.1090 Uiso
H28 H 0.2027 0.4195 0.2991 0.1090 Uiso
H29 H 0.1351 0.4474 0.3627 0.1090 Uiso
O13 O 0.0514(3) 0.9707(3) 0.5677(2) 0.0438 Uani
loop_
_atom_site_aniso_label
_atom_site_aniso_U_11
_atom_site_aniso_U_22
_atom_site_aniso_U_33
_atom_site_aniso_U_23
_atom_site_aniso_U_13
_atom_site_aniso_U_12
Co1 0.0189(2) 0.0190(2) 0.0141(2) 0.00188(18) 0.00487(17) 0.00229(18)
Co2 0.0217 0.0235 0.0163 -0.00499 0.00505 0.00021
O1 0.0402 0.0362 0.0266 0.0113 0.0053 0.0118
O2 0.0303 0.0275 0.0288 0.0041 0.0069 0.0112
O3 0.0284 0.0327 0.0211 -0.0014 0.0012 0.0109
O4 0.0368 0.0362 0.0202 -0.0038 0.0003 0.0194
O5 0.0281 0.0275 0.0222 -0.0011 0.0092 0.0122
O6 0.0367 0.0323 0.0244 0.0037 0.0172 0.0105
O7 0.0163 0.0211 0.0209 -0.0008 0.0071 -0.0001
O8 0.028 0.0447 0.0177 -0.0033 0.0059 0.0072
C1 0.0259 0.03 0.0146 0.0023 0.0084 0.0057
C2 0.0213 0.034 0.0211 0.0055 0.011 0.0084
C3 0.0262 0.029 0.0234 0.0058 0.0072 0.0097
C4 0.033 0.04 0.0183 0.004 0.0152 0.0174
C5 0.031 0.036 0.0204 0.0044 0.0114 0.0078
C6 0.0228 0.0264 0.0238 0.0011 0.0102 0.0065
C7 0.028 0.04 0.0213 0.0071 0.0125 0.0134
C8 0.031 0.031 0.0264 0.0062 0.0138 0.0122
C9 0.0263 0.031 0.0228 0.006 0.0101 0.0132
C10 0.0238 0.0258 0.0264 0.006 0.0054 0.0043
C11 0.0239 0.0224 0.0215 -0.0005 0.0061 0.0002
C12 0.0196 0.0213 0.0214 0.0038 0.0065 0.0041
C13 0.0261 0.028 0.0212 0.0023 0.0051 0.0029
C14 0.028 0.0275 0.0214 0.0033 0.0041 0.0081
C15 0.0272 0.0258 0.0228 0.0039 0.0052 0.0068
C16 0.024 0.0247 0.0208 0.0001 0.0098 0.0018
O9 0.037 0.084 0.068 -0.039 -0.0132 -0.0034
C17 0.048 0.123 0.076 -0.05 0.005 -0.008
N1 0.05 0.109 0.038 -0.008 0.003 -0.026
C18 0.057 0.19 0.213 0.025 -0.064 -0.028
C19 0.07 0.046 0.14 0.006 -0.05 -0.034
O10 0.0426 0.0333 0.074 -0.0204 0.029 0.0026
C20 0.064 0.061 0.071 -0.005 0.002 -0.008
N2 0.057 0.031 0.106 -0.009 -0.009 0.011
C21 0.065 0.075 0.102 0.01 0.007 0.007
C22 0.123 0.117 0.141 -0.043 0.05 0.021
O11 0.0523 0.0501 0.0246 0.0005 0.0115 0.0209
Co1C 0.0189 0.019 0.0141 -0.00188 0.00487 -0.00229
Co1B 0.0189 0.019 0.0141 0.00188 0.00487 0.00229
Co1A 0.0189 0.019 0.0141 -0.00188 0.00487 -0.00229
Co2A 0.0217 0.0235 0.0163 0.00499 0.00505 -0.00021
Co2B 0.0217 0.0235 0.0163 -0.00499 0.00505 0.00021
O3C 0.0284(14) 0.0327(15) 0.0211(13) 0.0014(11) 0.0012(11) -0.0109(11)
O5B 0.0281 0.0275 0.0222 -0.0011 0.0092 0.0122
O6A 0.0367 0.0323 0.0244 -0.0037 0.0172 -0.0105
O7A 0.0163 0.0211 0.0209 0.0008 0.0071 0.0001
O7B 0.0163 0.0211 0.0209 -0.0008 0.0071 -0.0001
O8A 0.028 0.0447 0.0177 0.0033 0.0059 -0.0072
O12 0.068(2) 0.060(2) 0.047(2) 0.0052(18) 0.0214(18) -0.0087(19)
C23 0.045(3) 0.048(3) 0.042(3) 0.012(2) 0.007(2) -0.006(2)
N3 0.052(2) 0.045(2) 0.042(2) 0.0098(18) 0.0137(19) -0.0053(19)
C24 0.072(4) 0.070(4) 0.035(3) 0.006(3) 0.008(3) 0.010(3)
C25 0.080(4) 0.055(4) 0.089(5) 0.008(3) 0.038(4) -0.014(3)
O13 0.064(5) 0.035(4) 0.034(4) -0.005(3) 0.013(3) -0.001(3)
loop_
_geom_bond_atom_site_label_1
_geom_bond_atom_site_label_2
_geom_bond_site_symmetry_1
_geom_bond_site_symmetry_2
Co1 O2 1_555 1_555
Co2 O4 1_555 1_555
O1 C10 1_555 1_555
O2 C10 1_555 1_555
O3 C2 1_555 1_555
O4 C2 1_555 1_555
O5 C16 1_555 1_555
O6 C16 1_555 1_555
O7 C12 1_555 1_555
O8 C12 1_555 1_555
C1 H1 1_555 1_555
C2 C3 1_555 1_555
C3 C1 1_555 1_555
C4 C3 1_555 1_555
H2 C4 1_555 1_555
C5 C7 1_555 1_555
C6 C1 1_555 1_555
C7 C4 1_555 1_555
C8 C6 1_555 1_555
H3 C8 1_555 1_555
C9 C5 1_555 1_555
H4 C9 1_555 1_555
C10 C15 1_555 1_555
C11 C12 1_555 1_555
C13 C11 1_555 1_555
H5 C13 1_555 1_555
C14 C5 1_555 1_555
H6 C14 1_555 1_555
C15 C9 1_555 1_555
C16 C6 1_555 1_555
O9 Co2 1_555 1_555
C17 O9 1_555 1_555
H7 C17 1_555 1_555
N1 C17 1_555 1_555
C18 N1 1_555 1_555
H8 C18 1_555 1_555
H9 C18 1_555 1_555
H10 C18 1_555 1_555
C19 N1 1_555 1_555
H11 C19 1_555 1_555
H12 C19 1_555 1_555
H13 C19 1_555 1_555
O10 Co2 1_555 1_555
C20 O10 1_555 1_555
H14 C20 1_555 1_555
N2 C20 1_555 1_555
C21 N2 1_555 1_555
H15 C21 1_555 1_555
H16 C21 1_555 1_555
H17 C21 1_555 1_555
C22 N2 1_555 1_555
H18 C22 1_555 1_555
H19 C22 1_555 1_555
H20 C22 1_555 1_555
O11 Co2 1_555 1_555
H21 O11 1_555 1_555
H22 O11 1_555 1_555
O12 C23 1_555 1_555
C23 H23 1_555 1_555
N3 C23 1_555 1_555
C24 N3 1_555 1_555
H24 C24 1_555 1_555
H25 C24 1_555 1_555
H26 C24 1_555 1_555
C25 N3 1_555 1_555
H27 C25 1_555 1_555
H28 C25 1_555 1_555
H29 C25 1_555 1_555
Co1C O3 1_555 1_555
Co1B O5 1_555 1_555
Co1A O7 1_555 1_555
Co2A O6 1_555 1_555
Co2B O7 1_555 1_555
O3C Co1 1_555 1_555
O5B Co1 1_555 1_555
O6A Co2 1_555 1_555
O7A Co1 1_555 1_555
O7B Co2 1_555 1_555
O8A Co1 1_555 1_555
O8 Co1A 1_555 1_555
C7 C8 1_555 1_555
C11 C14 1_555 1_555
C13 C15 1_555 1_555
Co1C O7B 1_555 1_555

#END
