
#######################################################################
#
#                 Cambridge Crystallographic Data Centre
#                                CCDC 
#
#######################################################################
#
# If this CIF has been generated from an entry in the Cambridge 
# Structural Database, then it will include bibliographic, chemical, 
# crystal, experimental, refinement or atomic coordinate data resulting 
# from the CCDC's data processing and validation procedures.
#
#######################################################################

data_IZIKEJ
_chemical_formula_moiety         '(C7 H6 Fe1 K1 N9 1-)n'
_symmetry_cell_setting           rhombohedral
_symmetry_space_group_name_H-M   'R -3 c'
_symmetry_Int_Tables_number      167
_space_group_name_Hall           '-R 3 2"c'
loop_
_symmetry_equiv_pos_site_id
_symmetry_equiv_pos_as_xyz
1 x,y,z
2 -y,x-y,z
3 -x+y,-x,z
4 x-y,-y,1/2-z
5 -x,-x+y,1/2-z
6 y,x,1/2-z
7 2/3+x,1/3+y,1/3+z
8 2/3-y,1/3+x-y,1/3+z
9 2/3-x+y,1/3-x,1/3+z
10 2/3+x-y,1/3-y,5/6-z
11 2/3-x,1/3-x+y,5/6-z
12 2/3+y,1/3+x,5/6-z
13 1/3+x,2/3+y,2/3+z
14 1/3-y,2/3+x-y,2/3+z
15 1/3-x+y,2/3-x,2/3+z
16 1/3+x-y,2/3-y,1/6-z
17 1/3-x,2/3-x+y,1/6-z
18 1/3+y,2/3+x,1/6-z
19 -x,-y,-z
20 y,-x+y,-z
21 x-y,x,-z
22 -x+y,y,1/2+z
23 x,x-y,1/2+z
24 -y,-x,1/2+z
25 1/3-x,2/3-y,2/3-z
26 1/3+y,2/3-x+y,2/3-z
27 1/3+x-y,2/3+x,2/3-z
28 1/3-x+y,2/3+y,1/6+z
29 1/3+x,2/3+x-y,1/6+z
30 1/3-y,2/3-x,1/6+z
31 2/3-x,1/3-y,1/3-z
32 2/3+y,1/3-x+y,1/3-z
33 2/3+x-y,1/3+x,1/3-z
34 2/3-x+y,1/3+y,5/6+z
35 2/3+x,1/3+x-y,5/6+z
36 2/3-y,1/3-x,5/6+z
_cell_length_a                   8.4290(2)
_cell_length_b                   8.4290(2)
_cell_length_c                   39.6619(15)
_cell_angle_alpha                90
_cell_angle_beta                 90
_cell_angle_gamma                120
_cell_volume                     2440.37
loop_
_atom_site_label
_atom_site_type_symbol
_atom_site_fract_x
_atom_site_fract_y
_atom_site_fract_z
Fe1 Fe 1.0000 1.0000 0.0000
K1 K 0.6667 0.3333 0.0833
N1 N 0.7772(2) 0.65393(16) 0.04338(3)
C1 C 0.86104(17) 0.78345(17) 0.02763(3)
N1A N 0.34607(16) 0.12327(26) 0.04338(3)
C1A C 0.21655(17) 0.07759(24) 0.02763(3)
N1B N 0.87673(26) 0.2228(2) 0.04338(3)
C1B C 0.92241(24) 0.13896(17) 0.02763(3)
N1O N 0.45660(26) 0.01274(16) 0.12329(3)
C1O C 0.41092(24) -0.11678(17) 0.13904(3)
N1P N 0.5561(2) 0.54340(26) 0.12329(3)
C1P C 0.47229(17) 0.58908(24) 0.13904(3)
N1Q N 0.98726(16) 0.4439(2) 0.12329(3)
C1Q C 1.11678(17) 0.52771(17) 0.13904(3)
Fe1_2 Fe 0.0000 0.0000 0.0000
Fe1_3 Fe 1.0000 0.0000 0.0000
Fe1O Fe 0.3333 -0.3333 0.1667
Fe1O_2 Fe 0.3333 0.6667 0.1667
Fe1O_3 Fe 1.3333 0.6667 0.1667
C1A_2 C 1.21655(17) 1.07759(24) 0.02763(3)
C1B_2 C 0.92241(24) 1.13896(17) 0.02763(3)
C1R C 1.13896(17) 1.21655(17) -0.02763(3)
C1S C 0.78345(17) 0.92241(24) -0.02763(3)
C1T C 1.07759(24) 0.86104(17) -0.02763(3)
C2 C 0.3333 0.6667 0.04331(6)
N2 N 0.3613(3) 0.5279(2) 0.04347(5)
H1 H 0.465(3) 0.556(4) 0.0437(6)
H2 H 0.280(4) 0.438(4) 0.0429(6)
N2A N 0.4721(2) 0.8334(4) 0.04347(5)
H1A H 0.444(4) 0.909(5) 0.0437(6)
H2A H 0.562(4) 0.842(6) 0.0429(6)
N2B N 0.1666(4) 0.6387(3) 0.04347(5)
H1B H 0.091(5) 0.535(3) 0.0437(6)
H2B H 0.158(6) 0.720(4) 0.0429(6)
loop_
_geom_bond_atom_site_label_1
_geom_bond_atom_site_label_2
_geom_bond_site_symmetry_1
_geom_bond_site_symmetry_2
Fe1 C1 1_555 1_555
K1 N1 1_555 1_555
N1 C1 1_555 1_555
C2 N2 1_555 1_555
N2 H1 1_555 1_555
H2 N2 1_555 1_555
N1A K1 1_555 1_555
C1A N1A 1_555 1_555
N1B K1 1_555 1_555
C1B N1B 1_555 1_555
N1O K1 1_555 1_555
C1O N1O 1_555 1_555
N1P K1 1_555 1_555
C1P N1P 1_555 1_555
N1Q K1 1_555 1_555
C1Q N1Q 1_555 1_555
Fe1_2 C1A 1_555 1_555
Fe1_3 C1B 1_555 1_555
Fe1O C1O 1_555 1_555
Fe1O_2 C1P 1_555 1_555
Fe1O_3 C1Q 1_555 1_555
C1A_2 Fe1 1_555 1_555
C1B_2 Fe1 1_555 1_555
C1R Fe1 1_555 1_555
C1S Fe1 1_555 1_555
C1T Fe1 1_555 1_555
N2A C2 1_555 1_555
H1A N2A 1_555 1_555
H2A N2A 1_555 1_555
N2B C2 1_555 1_555
H1B N2B 1_555 1_555
H2B N2B 1_555 1_555

#END
