
#######################################################################
#
#                 Cambridge Crystallographic Data Centre
#                                CCDC 
#
#######################################################################
#
# If this CIF has been generated from an entry in the Cambridge 
# Structural Database, then it will include bibliographic, chemical, 
# crystal, experimental, refinement or atomic coordinate data resulting 
# from the CCDC's data processing and validation procedures.
#
#######################################################################

data_CIRTUU
_chemical_formula_moiety         'C87 H39 Cu18 N3 O45'
_symmetry_cell_setting           tetragonal
_symmetry_space_group_name_H-M   'P 4/m n c'
_symmetry_Int_Tables_number      128
_space_group_name_Hall           '-P 4 2n'
loop_
_symmetry_equiv_pos_site_id
_symmetry_equiv_pos_as_xyz
1 x,y,z
2 -y,x,z
3 -x,-y,z
4 y,-x,z
5 1/2+x,1/2-y,1/2-z
6 1/2-x,1/2+y,1/2-z
7 1/2+y,1/2+x,1/2-z
8 1/2-y,1/2-x,1/2-z
9 -x,-y,-z
10 y,-x,-z
11 x,y,-z
12 -y,x,-z
13 1/2-x,1/2+y,1/2+z
14 1/2+x,1/2-y,1/2+z
15 1/2-y,1/2-x,1/2+z
16 1/2+y,1/2+x,1/2+z
_cell_length_a                   30.988(6)
_cell_length_b                   30.988(6)
_cell_length_c                   45.964(8)
_cell_angle_alpha                90
_cell_angle_beta                 90
_cell_angle_gamma                90
_cell_volume                     44137.2
loop_
_atom_site_label
_atom_site_type_symbol
_atom_site_fract_x
_atom_site_fract_y
_atom_site_fract_z
Cu1 Cu 0.103322(7) 0.145381(6) 0.127780(4)
Cu2 Cu 0.138940(6) 0.195991(6) 0.167788(4)
Cu3 Cu 0.330653(9) 0.059010(10) 0.0000
Cu4 Cu 0.246039(9) 0.043648(11) 0.0000
O1 O 0.15906(4) 0.14730(4) 0.10845(3)
O2 O 0.18719(4) 0.19421(4) 0.14058(2)
O3 O 0.24648(4) 0.08813(4) 0.03016(3)
O4 O 0.31779(4) 0.10223(4) 0.02948(3)
O5 O 0.40001(4) 0.37460(4) 0.34690(3)
O6 O 0.35778(4) 0.34041(4) 0.31462(3)
O7 O 0.55279(4) 0.34822(4) 0.34767(3)
O8 O 0.58455(3) 0.31181(4) 0.31090(3)
O9 O 0.08745(4) 0.19918(4) 0.10877(3)
O10 O 0.11060(4) 0.24148(4) 0.14523(3)
O11 O -0.00133(4) 0.25901(4) 0.03070(2)
O12 O -0.01482(4) 0.33080(4) 0.03066(3)
O13 O 0.35669(5) 0.23904(8) 0.19809(4)
O14 O -0.0000 0.5000 0.08480(5)
O15 O 0.07197(6) 0.10119(5) 0.09884(4)
O16 O 0.16744(5) 0.23868(5) 0.19833(3)
O17 O 0.39882(6) 0.06941(7) 0.0000
O18 O 0.17770(6) 0.03380(10) 0.0000
N1 N 0.45523(6) 0.27095(8) 0.14472(4)
H1 H 0.4771 0.2774 0.1333
N2 N 0.0000 0.5000 0.17218(5)
H2 H -0.0000 0.5000 0.1913
C1 C 0.18907(6) 0.17057(6) 0.11836(4)
C2 C 0.23126(6) 0.16876(6) 0.10195(4)
C3 C 0.23515(6) 0.14224(6) 0.07797(4)
H3 H 0.2107 0.1268 0.0711
C4 C 0.27403(6) 0.13799(6) 0.06395(4)
C5 C 0.31017(6) 0.16140(7) 0.07393(4)
H4 H 0.3372 0.1587 0.0643
C6 C 0.30599(6) 0.18838(8) 0.09783(4)
C7 C 0.26689(6) 0.19185(7) 0.11150(4)
H5 H 0.2641 0.2104 0.1278
C8 C 0.27952(6) 0.10653(6) 0.03938(3)
C9 C 0.34557(7) 0.21197(8) 0.10950(4)
C10 C 0.37835(7) 0.22532(8) 0.09182(5)
H6 H 0.3758 0.2213 0.0714
C11 C 0.41565(8) 0.24487(10) 0.10299(5)
H7 H 0.4379 0.2539 0.0902
C12 C 0.42014(8) 0.25105(9) 0.13289(5)
C13 C 0.38467(6) 0.23935(8) 0.15127(4)
C14 C 0.34872(7) 0.22019(8) 0.13929(4)
H8 H 0.3254 0.2124 0.1516
C15 C 0.38593(7) 0.24822(9) 0.18195(5)
C16 C 0.42584(6) 0.26901(8) 0.19304(4)
C17 C 0.45786(7) 0.28108(9) 0.17290(5)
C18 C 0.49600(8) 0.29986(9) 0.18545(5)
H9 H 0.5200 0.3053 0.1731
C19 C 0.49926(7) 0.30999(8) 0.21355(4)
H10 H 0.5243 0.3243 0.2205
C20 C 0.46515(6) 0.29945(7) 0.23316(4)
C21 C 0.42978(6) 0.27885(8) 0.22226(4)
H11 H 0.4071 0.2710 0.2351
C22 C 0.46804(6) 0.31264(7) 0.26377(4)
C23 C 0.50789(6) 0.31451(7) 0.27857(4)
H12 H 0.5335 0.3062 0.2687
C24 C 0.51060(5) 0.32839(6) 0.30744(4)
C25 C 0.47314(5) 0.34091(6) 0.32182(4)
H13 H 0.4748 0.3512 0.3412
C26 C 0.43360(6) 0.33845(6) 0.30811(4)
C27 C 0.43087(6) 0.32414(6) 0.27951(4)
H14 H 0.4034 0.3221 0.2704
C28 C 0.55261(5) 0.32945(6) 0.32304(4)
C29 C 0.39399(5) 0.35175(5) 0.32484(4)
C30 C 0.09054(6) 0.23469(5) 0.12207(4)
C31 C 0.04866(5) 0.26760(6) 0.08120(4)
H15 H 0.0512 0.2409 0.0711
C32 C 0.02596(7) 0.30146(6) 0.06899(4)
C33 C 0.02206(7) 0.34089(6) 0.08415(4)
H16 H 0.0068 0.3643 0.0756
C34 C 0.04055(7) 0.34559(6) 0.11170(4)
C35 C 0.06445(6) 0.31141(6) 0.12308(4)
H17 H 0.0787 0.3147 0.1413
C36 C 0.06769(6) 0.27293(6) 0.10825(4)
C37 C 0.00170(6) 0.29587(6) 0.04087(4)
C38 C 0.03329(8) 0.38621(6) 0.12796(4)
C39 C 0.02300(7) 0.42415(6) 0.11311(5)
H18 H 0.0232 0.4241 0.0924
C40 C 0.01213(8) 0.46304(6) 0.12820(4)
C41 C 0.01079(11) 0.46353(8) 0.15828(5)
C42 C 0.02047(13) 0.42541(8) 0.17323(5)
H19 H 0.0193 0.4250 0.1939
C43 C 0.03205(13) 0.38715(8) 0.15783(5)
H20 H 0.0391 0.3618 0.1684
C44 C 0.0000 0.5000 0.11215(6)
O9B O -0.08745(4) 0.80082(4) 0.10877(3)
O10B O -0.11060(4) 0.75852(4) 0.14523(3)
O11B O 0.00133(4) 0.74099(4) 0.03070(2)
O12B O 0.01482(4) 0.66920(4) 0.03066(3)
C30B C -0.09054(6) 0.76531(5) 0.12207(4)
C31B C -0.04866(5) 0.73240(6) 0.08120(4)
H15B H -0.0512 0.7591 0.0711
C32B C -0.02596(7) 0.69854(6) 0.06899(4)
C33B C -0.02206(7) 0.65911(6) 0.08415(4)
H16B H -0.0068 0.6357 0.0756
C34B C -0.04055(7) 0.65441(6) 0.11170(4)
C35B C -0.06445(6) 0.68859(6) 0.12308(4)
H17B H -0.0787 0.6853 0.1413
C36B C -0.06769(6) 0.72707(6) 0.10825(4)
C37B C -0.00170(6) 0.70413(6) 0.04087(4)
C38B C -0.03329(8) 0.61379(6) 0.12796(4)
C39B C -0.02300(7) 0.57585(6) 0.11311(5)
H18B H -0.0232 0.5759 0.0924
C40B C -0.01213(8) 0.53696(6) 0.12820(4)
C41B C -0.01079(11) 0.53647(8) 0.15828(5)
C42B C -0.02047(13) 0.57459(8) 0.17323(5)
H19B H -0.0193 0.5750 0.1939
C43B C -0.03205(13) 0.61285(8) 0.15783(5)
H20B H -0.0391 0.6382 0.1684
Cu1G Cu 0.354619(6) 0.396678(7) 0.372220(4)
Cu2G Cu 0.304009(6) 0.361060(6) 0.332212(4)
O1G O 0.35270(4) 0.34094(4) 0.39155(3)
O2G O 0.30579(4) 0.31281(4) 0.35942(2)
O3G O 0.41187(4) 0.25352(4) 0.46984(3)
O4G O 0.39777(4) 0.18221(4) 0.47052(3)
O5G O 0.12540(4) 0.09999(4) 0.15310(3)
O6G O 0.15959(4) 0.14222(4) 0.18538(3)
O7G O 0.15178(4) -0.05279(4) 0.15233(3)
O8G O 0.18819(4) -0.08455(3) 0.18910(3)
O13G O 0.26096(8) 0.14331(5) 0.30191(4)
O15G O 0.39881(5) 0.42803(6) 0.40116(4)
O16G O 0.26132(5) 0.33256(5) 0.30167(3)
N1G N 0.22905(8) 0.04477(6) 0.35528(4)
H1G H 0.2226 0.0229 0.3667
C1G C 0.32943(6) 0.31093(6) 0.38164(4)
C2G C 0.33124(6) 0.26874(6) 0.39805(4)
C3G C 0.35776(6) 0.26485(6) 0.42203(4)
H3G H 0.3732 0.2893 0.4289
C4G C 0.36201(6) 0.22597(6) 0.43605(4)
C5G C 0.33860(7) 0.18983(6) 0.42607(4)
H4G H 0.3413 0.1628 0.4357
C6G C 0.31162(8) 0.19401(6) 0.40217(4)
C7G C 0.30815(7) 0.23311(6) 0.38850(4)
H5G H 0.2896 0.2359 0.3722
C8G C 0.39347(6) 0.22048(6) 0.46062(3)
C9G C 0.28803(8) 0.15443(7) 0.39050(4)
C10G C 0.27468(8) 0.12165(7) 0.40818(5)
H6G H 0.2787 0.1242 0.4286
C11G C 0.25513(10) 0.08435(8) 0.39701(5)
H7G H 0.2461 0.0621 0.4098
C12G C 0.24895(9) 0.07986(8) 0.36711(5)
C13G C 0.26065(8) 0.11533(6) 0.34873(4)
C14G C 0.27981(8) 0.15128(7) 0.36071(4)
H8G H 0.2876 0.1746 0.3484
C15G C 0.25178(9) 0.11407(7) 0.31805(5)
C16G C 0.23099(8) 0.07416(6) 0.30696(4)
C17G C 0.21892(9) 0.04214(7) 0.32710(5)
C18G C 0.20014(9) 0.00400(8) 0.31455(5)
H9G H 0.1947 -0.0200 0.3269
C19G C 0.19001(8) 0.00074(7) 0.28645(4)
H10G H 0.1757 -0.0243 0.2795
C20G C 0.20055(7) 0.03485(6) 0.26684(4)
C21G C 0.22115(8) 0.07022(6) 0.27774(4)
H11G H 0.2290 0.0929 0.2649
C22G C 0.18736(7) 0.03196(6) 0.23623(4)
C23G C 0.18549(7) -0.00789(6) 0.22143(4)
H12G H 0.1938 -0.0335 0.2313
C24G C 0.17161(6) -0.01060(5) 0.19256(4)
C25G C 0.15909(6) 0.02686(5) 0.17818(4)
H13G H 0.1488 0.0252 0.1588
C26G C 0.16155(6) 0.06640(6) 0.19189(4)
C27G C 0.17586(6) 0.06913(6) 0.22049(4)
H14G H 0.1779 0.0966 0.2296
C28G C 0.17055(6) -0.05261(5) 0.17696(4)
C29G C 0.14825(5) 0.10601(5) 0.17516(4)
Cu1B Cu -0.103322(7) 0.854619(6) 0.127780(4)
Cu1C Cu 0.145381(6) -0.103322(7) 0.127780(4)
Cu1D Cu 0.603322(7) 0.354619(6) 0.372220(4)
Cu2B Cu -0.138940(6) 0.804009(6) 0.167788(4)
Cu2C Cu 0.195991(6) -0.138940(6) 0.167788(4)
Cu2D Cu 0.638940(6) 0.304009(6) 0.332212(4)
Cu3A Cu -0.059010(10) 0.330653(9) 0.0000
Cu3C Cu 0.059010(10) 0.669347(9) 0.0000
Cu3G Cu 0.440990(10) 0.169347(9) 0.5000
Cu4A Cu -0.043648(11) 0.246039(9) 0.0000
Cu4C Cu 0.043648(11) 0.753961(9) 0.0000
Cu4G Cu 0.456352(11) 0.253961(9) 0.5000
O3J O 0.24648(4) 0.08813(4) -0.03016(3)
O4J O 0.31779(4) 0.10223(4) -0.02948(3)
O7C O 0.34822(4) 0.44721(4) 0.34767(3)
O7D O 0.05279(4) 0.15178(4) 0.15233(3)
O8C O 0.31181(4) 0.41545(3) 0.31090(3)
O8D O 0.08455(3) 0.18819(4) 0.18910(3)
O9G O 0.30082(4) 0.41255(4) 0.39123(3)
O10G O 0.25852(4) 0.38940(4) 0.35477(3)
O11C O 0.25901(4) 0.00133(4) 0.03070(2)
O11I O 0.25901(4) 0.00133(4) -0.03070(2)
O12C O 0.33080(4) 0.01482(4) 0.03066(3)
O12I O 0.33080(4) 0.01482(4) -0.03066(3)
loop_
_geom_bond_atom_site_label_1
_geom_bond_atom_site_label_2
_geom_bond_site_symmetry_1
_geom_bond_site_symmetry_2
Cu1 O1 1_555 1_555
Cu2 O2 1_555 1_555
Cu3 O4 1_555 1_555
Cu4 O3 1_555 1_555
O1 C1 1_555 1_555
O2 C1 1_555 1_555
O3 C8 1_555 1_555
O4 C8 1_555 1_555
O5 C29 1_555 1_555
O6 C29 1_555 1_555
O7 C28 1_555 1_555
O8 C28 1_555 1_555
O9 Cu1 1_555 1_555
O10 Cu2 1_555 1_555
O11 C37 1_555 1_555
O12 C37 1_555 1_555
O13 C15 1_555 1_555
O14 C44 1_555 1_555
O15 Cu1 1_555 1_555
O16 Cu2 1_555 1_555
O17 Cu3 1_555 1_555
O18 Cu4 1_555 1_555
N1 H1 1_555 1_555
N2 H2 1_555 1_555
C1 C2 1_555 1_555
C2 C3 1_555 1_555
C3 H3 1_555 1_555
C4 C3 1_555 1_555
C5 C4 1_555 1_555
H4 C5 1_555 1_555
C6 C5 1_555 1_555
C7 C2 1_555 1_555
H5 C7 1_555 1_555
C8 C4 1_555 1_555
C9 C6 1_555 1_555
C10 C9 1_555 1_555
H6 C10 1_555 1_555
C11 C10 1_555 1_555
H7 C11 1_555 1_555
C12 N1 1_555 1_555
C13 C12 1_555 1_555
C14 C9 1_555 1_555
H8 C14 1_555 1_555
C15 C13 1_555 1_555
C16 C15 1_555 1_555
C17 N1 1_555 1_555
C18 C17 1_555 1_555
H9 C18 1_555 1_555
C19 C18 1_555 1_555
H10 C19 1_555 1_555
C20 C19 1_555 1_555
C21 C16 1_555 1_555
H11 C21 1_555 1_555
C22 C20 1_555 1_555
C23 C22 1_555 1_555
H12 C23 1_555 1_555
C24 C23 1_555 1_555
C25 C24 1_555 1_555
H13 C25 1_555 1_555
C26 C25 1_555 1_555
C27 C22 1_555 1_555
H14 C27 1_555 1_555
C28 C24 1_555 1_555
C29 C26 1_555 1_555
C30 O9 1_555 1_555
C31 H15 1_555 1_555
C32 C31 1_555 1_555
C33 C32 1_555 1_555
H16 C33 1_555 1_555
C34 C33 1_555 1_555
C35 C34 1_555 1_555
H17 C35 1_555 1_555
C36 C30 1_555 1_555
C37 C32 1_555 1_555
C38 C34 1_555 1_555
C39 C38 1_555 1_555
H18 C39 1_555 1_555
C40 C39 1_555 1_555
C41 N2 1_555 1_555
C42 C41 1_555 1_555
H19 C42 1_555 1_555
C43 C38 1_555 1_555
H20 C43 1_555 1_555
C44 C40 1_555 1_555
O9B C30B 1_555 1_555
O10B C30B 1_555 1_555
O11B C37B 1_555 1_555
O12B C37B 1_555 1_555
C30B C36B 1_555 1_555
C31B H15B 1_555 1_555
C32B C31B 1_555 1_555
C33B C32B 1_555 1_555
H16B C33B 1_555 1_555
C34B C33B 1_555 1_555
C35B C34B 1_555 1_555
H17B C35B 1_555 1_555
C36B C31B 1_555 1_555
C37B C32B 1_555 1_555
C38B C34B 1_555 1_555
C39B C38B 1_555 1_555
H18B C39B 1_555 1_555
C40B C44 1_555 1_555
C41B N2 1_555 1_555
C42B C41B 1_555 1_555
H19B C42B 1_555 1_555
C43B C38B 1_555 1_555
H20B C43B 1_555 1_555
Cu1G O5 1_555 1_555
Cu2G O6 1_555 1_555
O1G Cu1G 1_555 1_555
O2G Cu2G 1_555 1_555
O3G C8G 1_555 1_555
O4G C8G 1_555 1_555
O5G Cu1 1_555 1_555
O6G Cu2 1_555 1_555
O7G C28G 1_555 1_555
O8G C28G 1_555 1_555
O13G C15G 1_555 1_555
O15G Cu1G 1_555 1_555
O16G Cu2G 1_555 1_555
N1G H1G 1_555 1_555
C1G O1G 1_555 1_555
C2G C1G 1_555 1_555
C3G C2G 1_555 1_555
H3G C3G 1_555 1_555
C4G C3G 1_555 1_555
C5G C4G 1_555 1_555
H4G C5G 1_555 1_555
C6G C5G 1_555 1_555
C7G C2G 1_555 1_555
H5G C7G 1_555 1_555
C8G C4G 1_555 1_555
C9G C6G 1_555 1_555
C10G C9G 1_555 1_555
H6G C10G 1_555 1_555
C11G C10G 1_555 1_555
H7G C11G 1_555 1_555
C12G N1G 1_555 1_555
C13G C12G 1_555 1_555
C14G C9G 1_555 1_555
H8G C14G 1_555 1_555
C15G C13G 1_555 1_555
C16G C15G 1_555 1_555
C17G N1G 1_555 1_555
C18G C17G 1_555 1_555
H9G C18G 1_555 1_555
C19G C18G 1_555 1_555
H10G C19G 1_555 1_555
C20G C19G 1_555 1_555
C21G C16G 1_555 1_555
H11G C21G 1_555 1_555
C22G C20G 1_555 1_555
C23G C22G 1_555 1_555
H12G C23G 1_555 1_555
C24G C23G 1_555 1_555
C25G C24G 1_555 1_555
H13G C25G 1_555 1_555
C26G C25G 1_555 1_555
C27G C22G 1_555 1_555
H14G C27G 1_555 1_555
C28G C24G 1_555 1_555
C29G O5G 1_555 1_555
Cu1B O9B 1_555 1_555
Cu1C O7G 1_555 1_555
Cu1D O7 1_555 1_555
Cu2B O10B 1_555 1_555
Cu2C O8G 1_555 1_555
Cu2D O8 1_555 1_555
Cu3A O12 1_555 1_555
Cu3C O12B 1_555 1_555
Cu3G O4G 1_555 1_555
Cu4A O11 1_555 1_555
Cu4C O11B 1_555 1_555
Cu4G O3G 1_555 1_555
O3J Cu4 1_555 1_555
O4J Cu3 1_555 1_555
O7C Cu1G 1_555 1_555
O7D Cu1 1_555 1_555
O8C Cu2G 1_555 1_555
O8D Cu2 1_555 1_555
O9G Cu1G 1_555 1_555
O10G Cu2G 1_555 1_555
O11C Cu4 1_555 1_555
O11I Cu4 1_555 1_555
O12C Cu3 1_555 1_555
O12I Cu3 1_555 1_555
O10 C30 1_555 1_555
C6 C7 1_555 1_555
C11 C12 1_555 1_555
C13 C14 1_555 1_555
C16 C17 1_555 1_555
C20 C21 1_555 1_555
C26 C27 1_555 1_555
C31 C36 1_555 1_555
C35 C36 1_555 1_555
C40 C41 1_555 1_555
C42 C43 1_555 1_555
C35B C36B 1_555 1_555
C39B C40B 1_555 1_555
C40B C41B 1_555 1_555
C42B C43B 1_555 1_555
O2G C1G 1_555 1_555
O6G C29G 1_555 1_555
C6G C7G 1_555 1_555
C11G C12G 1_555 1_555
C13G C14G 1_555 1_555
C16G C17G 1_555 1_555
C20G C21G 1_555 1_555
C26G C27G 1_555 1_555
C26G C29G 1_555 1_555

#END
