
#######################################################################
#
#                 Cambridge Crystallographic Data Centre
#                                CCDC 
#
#######################################################################
#
# If this CIF has been generated from an entry in the Cambridge 
# Structural Database, then it will include bibliographic, chemical, 
# crystal, experimental, refinement or atomic coordinate data resulting 
# from the CCDC's data processing and validation procedures.
#
#######################################################################

data_HIZTUG
_chemical_formula_moiety         'C115 H71 N1 O43 Zn11'
_symmetry_cell_setting           hexagonal
_symmetry_space_group_name_H-M   'P 6/m'
_symmetry_Int_Tables_number      175
_space_group_name_Hall           '-P 6'
loop_
_symmetry_equiv_pos_site_id
_symmetry_equiv_pos_as_xyz
1 x,y,z
2 -y,x-y,z
3 -x+y,-x,z
4 y,-x+y,z
5 x-y,x,z
6 -x,-y,z
7 -x,-y,-z
8 y,-x+y,-z
9 x-y,x,-z
10 -y,x-y,-z
11 -x+y,-x,-z
12 x,y,-z
_cell_length_a                   33.9418(7)
_cell_length_b                   33.9418(7)
_cell_length_c                   14.2185(6)
_cell_angle_alpha                90
_cell_angle_beta                 90
_cell_angle_gamma                120
_cell_volume                     14185.8
loop_
_atom_site_label
_atom_site_type_symbol
_atom_site_fract_x
_atom_site_fract_y
_atom_site_fract_z
Zn3 Zn 0.0000 0.0000 0.0000
O10 O 0.0242(7) 0.0566(7) 0.0717(16)
O10A O -0.0566(7) -0.0324(10) 0.0717(16)
O10B O 0.0324(10) -0.0242(7) 0.0717(16)
O10C O 0.0566(7) 0.0324(10) 0.0717(16)
O10D O -0.0324(10) 0.0242(7) 0.0717(16)
O10K O 0.0242(7) 0.0566(7) -0.0717(16)
O10F O -0.0242(7) -0.0566(7) -0.0717(16)
O10G O 0.0566(7) 0.0324(10) -0.0717(16)
O10H O -0.0324(10) 0.0242(7) -0.0717(16)
O10I O -0.0566(7) -0.0324(10) -0.0717(16)
O10J O 0.0324(10) -0.0242(7) -0.0717(16)
O10E O -0.0242(7) -0.0566(7) 0.0717(16)
O9 O 0.10294(17) 0.12516(19) 0.1292(6)
N1 N 0.11901(14) 0.19939(15) 0.1479(4)
C49 C 0.0920(2) 0.1559(2) 0.1296(5)
H25 H 0.0612 0.1465 0.1153
C50 C 0.16753(17) 0.21793(18) 0.1601(5)
H26 H 0.1835 0.2509 0.1460
H27 H 0.1783 0.2032 0.1149
C51 C 0.17938(19) 0.2109(2) 0.2589(5)
H28 H 0.1567 0.2098 0.3030
H29 H 0.2095 0.2361 0.2759
H30 H 0.1796 0.1821 0.2619
C52 C 0.10040(19) 0.23004(19) 0.1470(4)
H31 H 0.0683 0.2128 0.1263
H32 H 0.1174 0.2544 0.1003
C53 C 0.1025(2) 0.25122(18) 0.2394(4)
H33 H 0.0911 0.2278 0.2884
H34 H 0.0838 0.2657 0.2376
H35 H 0.1341 0.2742 0.2534
Zn1 Zn 0.340256(9) 0.079653(9) 0.62148(2)
Zn2 Zn 0.6667 0.3333 0.36903(6)
O1 O 0.32122(6) 0.12296(5) 0.57839(12)
O2 O 0.29731(5) 0.01927(5) 0.57878(12)
O3 O 0.40331(5) 0.10776(6) 0.57848(13)
O4 O 0.62474(6) 0.27262(6) 0.42188(15)
O5 O 0.33526(6) 0.08823(6) 0.75496(14)
O6 O 0.36732(7) 0.04584(7) 0.76078(14)
O7 O 0.67733(11) 0.30655(10) 0.2508(2)
C1 C 0.31657(10) 0.18215(11) 0.5000
C2 C 0.26522(10) 0.16630(11) 0.5000
C3 C 0.22984(12) 0.12235(12) 0.5000
H1 H 0.2357 0.0978 0.5000
C4 C 0.18532(13) 0.11378(14) 0.5000
H2 H 0.1607 0.0833 0.5000
C5 C 0.17684(13) 0.14918(14) 0.5000
H3 H 0.1463 0.1432 0.5000
C6 C 0.21253(11) 0.19383(12) 0.5000
H4 H 0.2064 0.2182 0.5000
C7 C 0.25633(11) 0.20269(11) 0.5000
C8 C 0.29959(10) 0.24935(11) 0.5000
C9 C 0.32807(7) 0.24987(8) 0.58570(17)
C10 C 0.34650(8) 0.28346(9) 0.6547(2)
H5 H 0.3407 0.3081 0.6539
C11 C 0.37353(9) 0.28040(9) 0.72499(19)
H6 H 0.3861 0.3029 0.7729
C12 C 0.38214(8) 0.24452(9) 0.72500(19)
H7 H 0.4004 0.2425 0.7732
C13 C 0.36443(8) 0.21182(8) 0.65565(18)
H8 H 0.3710 0.1877 0.6557
C14 C 0.33689(7) 0.21404(8) 0.58518(16)
C15 C 0.32100(11) 0.14028(11) 0.5000
C16 C 0.28473(10) 0.00002(11) 0.5000
C17 C 0.47417(11) 0.15051(11) 0.5000
C18 C 0.48123(11) 0.19875(11) 0.5000
C19 C 0.44786(11) 0.21026(11) 0.5000
H9 H 0.4167 0.1873 0.5000
C20 C 0.46028(12) 0.25658(12) 0.5000
H10 H 0.4374 0.2649 0.5000
C21 C 0.50472(14) 0.28913(13) 0.5000
H11 H 0.5127 0.3202 0.5000
C22 C 0.53961(14) 0.27790(13) 0.5000
H12 H 0.5708 0.3010 0.5000
C23 C 0.52702(11) 0.23229(12) 0.5000
C24 C 0.55979(11) 0.21387(11) 0.5000
C25 C 0.54701(8) 0.18111(8) 0.41601(18)
C26 C 0.57699(9) 0.18006(10) 0.3509(2)
H13 H 0.6080 0.2035 0.3502
C27 C 0.56103(9) 0.14407(10) 0.2864(2)
H14 H 0.5811 0.1430 0.2414
C28 C 0.51565(10) 0.10991(10) 0.2887(2)
H15 H 0.5052 0.0852 0.2460
C29 C 0.48558(9) 0.11131(9) 0.3517(2)
H16 H 0.4545 0.0882 0.3512
C30 C 0.50108(8) 0.14691(8) 0.41630(17)
C31 C 0.42294(10) 0.11804(10) 0.5000
C32 C 0.60790(12) 0.25566(12) 0.5000
C33 C 0.35692(9) 0.07445(8) 0.90750(18)
C34 C 0.35353(8) 0.11480(9) 0.95108(18)
C35 C 0.35374(9) 0.15047(9) 0.9031(2)
H17 H 0.3535 0.1504 0.8362
C36 C 0.35428(11) 0.18630(10) 0.9517(2)
H18 H 0.3543 0.2081 0.9085
C37 C 0.40037(8) 0.07953(8) 0.95043(18)
C38 C 0.43897(10) 0.08706(11) 0.9025(2)
H19 H 0.4393 0.0878 0.8357
C39 C 0.47684(11) 0.09350(13) 0.9505(3)
H20 H 0.5004 0.0977 0.9073
C40 C 0.31721(8) 0.03234(8) 0.95132(19)
C41 C 0.28282(10) -0.00421(9) 0.9021(2)
H21 H 0.2826 -0.0043 0.8353
C42 C 0.24929(12) -0.04004(11) 0.9513(3)
H22 H 0.2281 -0.0627 0.9087
C43 C 0.35393(8) 0.06960(9) 0.79963(18)
C44 C 0.6667 0.3333 0.11009(19)
C45 C 0.63875(16) 0.28679(16) 0.0471(3)
C46 C 0.61123(17) 0.24485(16) 0.0983(3)
H23 H 0.6096 0.2449 0.1650
C47 C 0.58727(19) 0.20453(18) 0.0482(4)
H24 H 0.5713 0.1797 0.0911
C48 C 0.6667 0.3333 0.2144(3)
Zn1D Zn 0.260603(13) 0.340256(9) 0.62148(2)
Zn1H Zn 0.260603(13) 0.340256(9) 0.37852(2)
Zn1K Zn 0.340256(9) 0.079653(9) 0.37852(2)
Zn1K_2 Zn 0.340256(9) 0.079653(9) 1.37852(2)
Zn1C Zn 0.079653(9) -0.260603(13) 0.62148(2)
Zn1G Zn 0.079653(9) -0.260603(13) 0.37852(2)
Zn2K Zn 0.6667 0.3333 -0.36903(6)
Zn2K_2 Zn 0.6667 0.3333 0.63097(6)
O1K O 0.32122(6) 0.12296(5) 0.42161(12)
O1K_2 O 0.32122(6) 0.12296(5) 1.42161(12)
O1C O 0.12296(5) -0.19826(8) 0.57839(12)
O1G O 0.12296(5) -0.19826(8) 0.42161(12)
O1H O 0.19826(8) 0.32122(6) 0.42161(12)
O2K O 0.29731(5) 0.01927(5) 0.42122(12)
O2D O 0.27804(7) 0.29731(5) 0.57878(12)
O2H O 0.27804(7) 0.29731(5) 0.42122(12)
O2K_2 O 0.29731(5) 0.01927(5) 1.42122(12)
O3K O 0.40331(5) 0.10776(6) 0.42152(13)
O3K_2 O 0.40331(5) 0.10776(6) 1.42152(13)
O3H O 0.29555(8) 0.40331(5) 0.42152(13)
O4A O 0.72738(6) 0.35212(8) 0.42188(15)
O4B O 0.64788(8) 0.37526(6) 0.42188(15)
O4K O 0.62474(6) 0.27262(6) 0.57812(15)
O5K O 0.33526(6) 0.08823(6) 1.24504(14)
O5H O 0.24703(8) 0.33526(6) 0.24504(14)
O6K O 0.36732(7) 0.04584(7) 1.23922(14)
O7A O 0.69345(10) 0.37078(15) 0.2508(2)
O7B O 0.62922(15) 0.32267(11) 0.2508(2)
O7K O 0.67733(11) 0.30655(10) -0.2508(2)
O7I O 0.69345(10) 0.37078(15) -0.2508(2)
O7J O 0.62922(15) 0.32267(11) -0.2508(2)
C1C C 0.18215(11) -0.13442(15) 0.5000
C2C C 0.16630(11) -0.09892(15) 0.5000
C3C C 0.12235(12) -0.10749(17) 0.5000
H1C H 0.0978 -0.1379 0.5000
C4C C 0.11378(14) -0.07154(19) 0.5000
H2C H 0.0833 -0.0774 0.5000
C5C C 0.14918(14) -0.02766(19) 0.5000
H3C H 0.1432 -0.0031 0.5000
C6C C 0.19383(12) -0.01870(16) 0.5000
H4C H 0.2182 0.0118 0.5000
C7C C 0.20269(11) -0.05364(16) 0.5000
C8C C 0.24935(11) -0.05024(15) 0.5000
C9K C 0.32807(7) 0.24987(8) 0.41430(17)
C9C C 0.24987(8) -0.07820(11) 0.58570(17)
C9G C 0.24987(8) -0.07820(11) 0.41430(17)
C10K C 0.34650(8) 0.28346(9) 0.3453(2)
C10C C 0.28346(9) -0.06304(12) 0.6547(2)
C10G C 0.28346(9) -0.06304(12) 0.3453(2)
H5K H 0.3407 0.3081 0.3461
H5C H 0.3081 -0.0326 0.6539
H5G H 0.3081 -0.0326 0.3461
C11K C 0.37353(9) 0.28040(9) 0.27501(19)
C11C C 0.28040(9) -0.09313(13) 0.72499(19)
C11G C 0.28040(9) -0.09313(13) 0.27501(19)
H6K H 0.3861 0.3029 0.2271
H6C H 0.3029 -0.0832 0.7729
H6G H 0.3029 -0.0832 0.2271
C12K C 0.38214(8) 0.24452(9) 0.27500(19)
C12C C 0.24452(9) -0.13762(12) 0.72500(19)
C12G C 0.24452(9) -0.13762(12) 0.27500(19)
H7K H 0.4004 0.2425 0.2268
H7C H 0.2425 -0.1579 0.7732
H7G H 0.2425 -0.1579 0.2268
C13K C 0.36443(8) 0.21182(8) 0.34435(18)
C13C C 0.21182(8) -0.15261(11) 0.65565(18)
C13G C 0.21182(8) -0.15261(11) 0.34435(18)
H8K H 0.3710 0.1877 0.3443
H8C H 0.1877 -0.1833 0.6557
H8G H 0.1877 -0.1833 0.3443
C14K C 0.33689(7) 0.21404(8) 0.41482(16)
C14C C 0.21404(8) -0.12285(11) 0.58518(16)
C14G C 0.21404(8) -0.12285(11) 0.41482(16)
C15C C 0.14028(11) -0.18072(16) 0.5000
C16D C 0.28471(15) 0.28473(10) 0.5000
C25K C 0.54701(8) 0.18111(8) 0.58399(18)
C26K C 0.57699(9) 0.18006(10) 0.6491(2)
H13K H 0.6080 0.2035 0.6498
C27K C 0.56103(9) 0.14407(10) 0.7136(2)
H14K H 0.5811 0.1430 0.7586
C28K C 0.51565(10) 0.10991(10) 0.7113(2)
H15K H 0.5052 0.0852 0.7540
C29K C 0.48558(9) 0.11131(9) 0.6483(2)
H16K H 0.4545 0.0882 0.6488
C30K C 0.50108(8) 0.14691(8) 0.58370(17)
C33K C 0.35692(9) 0.07445(8) 1.09250(18)
C34K C 0.35353(8) 0.11480(9) 1.04892(18)
C35K C 0.35374(9) 0.15047(9) 1.0969(2)
H17K H 0.3535 0.1504 1.1638
C36K C 0.35428(11) 0.18630(10) 1.0483(2)
H18K H 0.3543 0.2081 1.0915
C37K C 0.40037(8) 0.07953(8) 1.04957(18)
C38K C 0.43897(10) 0.08706(11) 1.0975(2)
H19K H 0.4393 0.0878 1.1643
C39K C 0.47684(11) 0.09350(13) 1.0495(3)
H20K H 0.5004 0.0977 1.0927
C40K C 0.31721(8) 0.03234(8) 1.04868(19)
C41K C 0.28282(10) -0.00421(9) 1.0979(2)
H21K H 0.2826 -0.0043 1.1647
C42K C 0.24929(12) -0.04004(11) 1.0487(3)
H22K H 0.2281 -0.0627 1.0913
C43K C 0.35393(8) 0.06960(9) 1.20037(18)
C44K C 0.6667 0.3333 -0.11009(19)
C45A C 0.71321(16) 0.35196(23) 0.0471(3)
C45B C 0.64804(23) 0.36125(16) 0.0471(3)
C45K C 0.63875(16) 0.28679(16) -0.0471(3)
C45J C 0.64804(23) 0.36125(16) -0.0471(3)
C45I C 0.71321(16) 0.35196(23) -0.0471(3)
C46K C 0.61123(17) 0.24485(16) -0.0983(3)
C46B C 0.63362(23) 0.38877(17) 0.0983(3)
C46A C 0.75515(16) 0.36638(23) 0.0983(3)
C46J C 0.63362(23) 0.38877(17) -0.0983(3)
C46I C 0.75515(16) 0.36638(23) -0.0983(3)
H23B H 0.6353 0.3904 0.1650
H23A H 0.7551 0.3647 0.1650
H23J H 0.6353 0.3904 -0.1650
H23I H 0.7551 0.3647 -0.1650
H23K H 0.6096 0.2449 -0.1650
C47K C 0.58727(19) 0.20453(18) -0.0482(4)
C47B C 0.61726(26) 0.41273(19) 0.0482(4)
C47A C 0.79547(18) 0.38274(26) 0.0482(4)
C47J C 0.61726(26) 0.41273(19) -0.0482(4)
C47I C 0.79547(18) 0.38274(26) -0.0482(4)
H24K H 0.5713 0.1797 -0.0911
H24B H 0.6084 0.4287 0.0911
H24A H 0.8203 0.3916 0.0911
H24J H 0.6084 0.4287 -0.0911
H24I H 0.8203 0.3916 -0.0911
C48K C 0.6667 0.3333 -0.2144(3)
loop_
_geom_bond_atom_site_label_1
_geom_bond_atom_site_label_2
_geom_bond_site_symmetry_1
_geom_bond_site_symmetry_2
Zn1 O1 1_555 1_555
Zn2 O4 1_555 1_555
Zn3 O10 1_555 1_555
O1 C15 1_555 1_555
O2 Zn1 1_555 1_555
O3 Zn1 1_555 1_555
O4 C32 1_555 1_555
O5 Zn1 1_555 1_555
O6 C43 1_555 1_555
O7 Zn2 1_555 1_555
C1 C2 1_555 1_555
C2 C3 1_555 1_555
C3 H1 1_555 1_555
C4 C3 1_555 1_555
H2 C4 1_555 1_555
C5 C4 1_555 1_555
H3 C5 1_555 1_555
C6 C5 1_555 1_555
H4 C6 1_555 1_555
C7 C2 1_555 1_555
C8 C7 1_555 1_555
C9 C8 1_555 1_555
C10 C9 1_555 1_555
H5 C10 1_555 1_555
C11 C10 1_555 1_555
H6 C11 1_555 1_555
C12 C11 1_555 1_555
H7 C12 1_555 1_555
C13 C12 1_555 1_555
H8 C13 1_555 1_555
C14 C1 1_555 1_555
C15 C1 1_555 1_555
C16 O2 1_555 1_555
C17 C18 1_555 1_555
C18 C19 1_555 1_555
C19 H9 1_555 1_555
C20 C19 1_555 1_555
H10 C20 1_555 1_555
C21 C20 1_555 1_555
H11 C21 1_555 1_555
C22 C21 1_555 1_555
H12 C22 1_555 1_555
C23 C18 1_555 1_555
C24 C23 1_555 1_555
C25 C24 1_555 1_555
C26 C25 1_555 1_555
H13 C26 1_555 1_555
C27 C26 1_555 1_555
H14 C27 1_555 1_555
C28 C27 1_555 1_555
H15 C28 1_555 1_555
C29 C28 1_555 1_555
H16 C29 1_555 1_555
C30 C17 1_555 1_555
C31 O3 1_555 1_555
C32 C24 1_555 1_555
C33 C34 1_555 1_555
C34 C35 1_555 1_555
C35 H17 1_555 1_555
C36 C35 1_555 1_555
H18 C36 1_555 1_555
C37 C33 1_555 1_555
C38 C37 1_555 1_555
H19 C38 1_555 1_555
C39 C38 1_555 1_555
H20 C39 1_555 1_555
C40 C33 1_555 1_555
C41 C40 1_555 1_555
H21 C41 1_555 1_555
C42 C41 1_555 1_555
H22 C42 1_555 1_555
C43 O5 1_555 1_555
C44 C45 1_555 1_555
C45 C46 1_555 1_555
C46 H23 1_555 1_555
C47 C46 1_555 1_555
H24 C47 1_555 1_555
C48 O7 1_555 1_555
O9 C49 1_555 1_555
N1 C49 1_555 1_555
C49 H25 1_555 1_555
C50 N1 1_555 1_555
H26 C50 1_555 1_555
H27 C50 1_555 1_555
C51 C50 1_555 1_555
H28 C51 1_555 1_555
H29 C51 1_555 1_555
H30 C51 1_555 1_555
C52 N1 1_555 1_555
H31 C52 1_555 1_555
H32 C52 1_555 1_555
C53 C52 1_555 1_555
H33 C53 1_555 1_555
H34 C53 1_555 1_555
H35 C53 1_555 1_555
O10 O10C 1_555 1_555
Zn1D O2D 1_555 1_555
Zn1H O1H 1_555 1_555
Zn1K O1K 1_555 1_555
Zn1K_2 O1K_2 1_555 1_555
Zn1C O1C 1_555 1_555
Zn1G O1G 1_555 1_555
Zn2K O7K 1_555 1_555
Zn2K_2 O4K 1_555 1_555
O1K C15 1_555 1_555
O1C C15C 1_555 1_555
O1G C15C 1_555 1_555
O2K C16 1_555 1_555
O2D C16D 1_555 1_555
O2H Zn1H 1_555 1_555
O2K_2 Zn1K_2 1_555 1_555
O3K C31 1_555 1_555
O3K_2 Zn1K_2 1_555 1_555
O3H Zn1H 1_555 1_555
O4A Zn2 1_555 1_555
O4B Zn2 1_555 1_555
O4K C32 1_555 1_555
O5K Zn1K_2 1_555 1_555
O5H Zn1H 1_555 1_555
O6K C43K 1_555 1_555
O7A Zn2 1_555 1_555
O7B Zn2 1_555 1_555
O7K C48K 1_555 1_555
O7I Zn2K 1_555 1_555
O7J Zn2K 1_555 1_555
C1C C2C 1_555 1_555
C2C C3C 1_555 1_555
C3C H1C 1_555 1_555
C4C C3C 1_555 1_555
H2C C4C 1_555 1_555
C5C C4C 1_555 1_555
H3C C5C 1_555 1_555
C6C C5C 1_555 1_555
H4C C6C 1_555 1_555
C7C C2C 1_555 1_555
C8C C16 1_555 1_555
C9K C8 1_555 1_555
C9C C8C 1_555 1_555
C9G C8C 1_555 1_555
C10K C9K 1_555 1_555
C10C C9C 1_555 1_555
C10G C9G 1_555 1_555
H5K C10K 1_555 1_555
H5C C10C 1_555 1_555
H5G C10G 1_555 1_555
C11K C10K 1_555 1_555
C11C C10C 1_555 1_555
C11G C10G 1_555 1_555
H6K C11K 1_555 1_555
H6C C11C 1_555 1_555
H6G C11G 1_555 1_555
C12K C11K 1_555 1_555
C12C C11C 1_555 1_555
C12G C11G 1_555 1_555
H7K C12K 1_555 1_555
H7C C12C 1_555 1_555
H7G C12G 1_555 1_555
C13K C12K 1_555 1_555
C13C C12C 1_555 1_555
C13G C12G 1_555 1_555
H8K C13K 1_555 1_555
H8C C13C 1_555 1_555
H8G C13G 1_555 1_555
C14K C1 1_555 1_555
C14C C1C 1_555 1_555
C14G C1C 1_555 1_555
C15C C1C 1_555 1_555
C16D C8 1_555 1_555
C25K C24 1_555 1_555
C26K C25K 1_555 1_555
H13K C26K 1_555 1_555
C27K C26K 1_555 1_555
H14K C27K 1_555 1_555
C28K C27K 1_555 1_555
H15K C28K 1_555 1_555
C29K C28K 1_555 1_555
H16K C29K 1_555 1_555
C30K C17 1_555 1_555
C33K C34K 1_555 1_555
C34K C34 1_555 1_555
C35K C34K 1_555 1_555
H17K C35K 1_555 1_555
C36K C36 1_555 1_555
H18K C36K 1_555 1_555
C37K C37 1_555 1_555
C38K C37K 1_555 1_555
H19K C38K 1_555 1_555
C39K C39 1_555 1_555
H20K C39K 1_555 1_555
C40K C40 1_555 1_555
C41K C40K 1_555 1_555
H21K C41K 1_555 1_555
C42K C42 1_555 1_555
H22K C42K 1_555 1_555
C43K O5K 1_555 1_555
C44K C45K 1_555 1_555
C45A C44 1_555 1_555
C45B C44 1_555 1_555
C45K C45 1_555 1_555
C45J C44K 1_555 1_555
C45I C44K 1_555 1_555
C46K C45K 1_555 1_555
C46B C45B 1_555 1_555
C46A C45A 1_555 1_555
C46J C45J 1_555 1_555
C46I C45I 1_555 1_555
H23B C46B 1_555 1_555
H23A C46A 1_555 1_555
H23J C46J 1_555 1_555
H23I C46I 1_555 1_555
H23K C46K 1_555 1_555
C47K C47 1_555 1_555
C47B C46B 1_555 1_555
C47A C46A 1_555 1_555
C47J C46J 1_555 1_555
C47I C46I 1_555 1_555
H24K C47K 1_555 1_555
H24B C47B 1_555 1_555
H24A C47A 1_555 1_555
H24J C47J 1_555 1_555
H24I C47I 1_555 1_555
C48K O7I 1_555 1_555
O10A Zn3 1_555 1_555
O10B Zn3 1_555 1_555
O10C Zn3 1_555 1_555
O10D Zn3 1_555 1_555
O10K Zn3 1_555 1_555
O10F Zn3 1_555 1_555
O10G Zn3 1_555 1_555
O10H Zn3 1_555 1_555
O10I Zn3 1_555 1_555
O10J Zn3 1_555 1_555
O10E Zn3 1_555 1_555
C6 C7 1_555 1_555
C9 C14 1_555 1_555
C13 C14 1_555 1_555
C17 C31 1_555 1_555
C22 C23 1_555 1_555
C25 C30 1_555 1_555
C29 C30 1_555 1_555
C33 C43 1_555 1_555
C44 C48 1_555 1_555
C48 O7A 1_555 1_555
C48 O7B 1_555 1_555
O10 O10D 1_555 1_555
Zn1K O2K 1_555 1_555
Zn1K O3K 1_555 1_555
O2H C16D 1_555 1_555
O7J C48K 1_555 1_555
C6C C7C 1_555 1_555
C7C C8C 1_555 1_555
C9K C14K 1_555 1_555
C9C C14C 1_555 1_555
C9G C14G 1_555 1_555
C13K C14K 1_555 1_555
C13C C14C 1_555 1_555
C13G C14G 1_555 1_555
C25K C30K 1_555 1_555
C29K C30K 1_555 1_555
C33K C37K 1_555 1_555
C33K C40K 1_555 1_555
C33K C43K 1_555 1_555
C35K C36K 1_555 1_555
C38K C39K 1_555 1_555
C41K C42K 1_555 1_555
C44K C48K 1_555 1_555
C45A C45I 1_555 1_555
C45B C45J 1_555 1_555
C46K C47K 1_555 1_555
C47B C47J 1_555 1_555
C47A C47I 1_555 1_555
O10A O10D 1_555 1_555
O10A O10E 1_555 1_555
O10B O10C 1_555 1_555
O10B O10E 1_555 1_555
O10K O10G 1_555 1_555
O10K O10H 1_555 1_555
O10F O10I 1_555 1_555
O10F O10J 1_555 1_555
O10G O10J 1_555 1_555
O10H O10I 1_555 1_555

#END
