
#######################################################################
#
#                 Cambridge Crystallographic Data Centre
#                                CCDC 
#
#######################################################################
#
# If this CIF has been generated from an entry in the Cambridge 
# Structural Database, then it will include bibliographic, chemical, 
# crystal, experimental, refinement or atomic coordinate data resulting 
# from the CCDC's data processing and validation procedures.
#
#######################################################################

data_JIVFUQ
_chemical_formula_moiety         '(C9 H13 N1 O9 P2 Zn1)n'
_symmetry_cell_setting           monoclinic
_symmetry_space_group_name_H-M   'C 2/c'
_symmetry_Int_Tables_number      15
_space_group_name_Hall           '-C 2yc'
loop_
_symmetry_equiv_pos_site_id
_symmetry_equiv_pos_as_xyz
1 x,y,z
2 1/2+x,1/2+y,z
3 -x,y,1/2-z
4 1/2-x,1/2+y,1/2-z
5 -x,-y,-z
6 1/2-x,1/2-y,-z
7 x,-y,1/2+z
8 1/2+x,1/2-y,1/2+z
_cell_length_a                   15.530(3)
_cell_length_b                   14.008(3)
_cell_length_c                   9.1571(18)
_cell_angle_alpha                90
_cell_angle_beta                 103.94(3)
_cell_angle_gamma                90
_cell_volume                     1933.4
loop_
_atom_site_label
_atom_site_type_symbol
_atom_site_fract_x
_atom_site_fract_y
_atom_site_fract_z
_atom_site_U_iso_or_equiv
_atom_site_thermal_displace_type
Zn1 Zn 0.0000 0.02443(3) 0.2500 0.0116 Uani
P1 P 0.07553(4) 0.13079(5) 0.00847(7) 0.0130 Uani
O1 O -0.00725(12) 0.19206(14) -0.0621(2) 0.0225 Uani
H1 H -0.0063 0.2412 -0.0132 0.0340 Uiso
O2 O 0.08035(12) 0.10733(14) 0.1730(2) 0.0191 Uani
O3 O 0.07586(12) 0.04478(14) -0.0893(2) 0.0195 Uani
O4 O 0.23875(14) 0.18213(18) 0.2790(2) 0.0337 Uani
H2 H 0.1917 0.1542 0.2736 0.0510 Uiso
C1 C 0.24168(18) 0.2150(2) 0.1390(3) 0.0184 Uani
C2 C 0.17367(17) 0.19942(18) 0.0099(3) 0.0140 Uani
C3 C 0.18330(18) 0.2349(2) -0.1282(3) 0.0197 Uani
H3 H 0.1384 0.2247 -0.2144 0.0240 Uiso
Zn1F Zn -0.0000 -0.02443(3) -0.2500 0.0116 Uani
Zn1G Zn 0.5000 0.47557(3) -0.2500 0.0116 Uani
Zn1A Zn 0.5000 0.52443(3) 0.2500 0.0116 Uani
P1E P 0.42447(4) 0.36921(5) -0.00847(7) 0.0130 Uani
O1E O 0.50725(12) 0.30794(14) 0.0621(2) 0.0225 Uani
H1E H 0.5063 0.2588 0.0132 0.0340 Uiso
O2E O 0.41965(12) 0.39267(14) -0.1730(2) 0.0191 Uani
O2B O -0.08035(12) 0.10733(14) 0.3270(2) 0.0191 Uani
O3E O 0.42414(12) 0.45522(14) 0.0893(2) 0.0195 Uani
O3F O 0.07586(12) -0.04478(14) 0.4107(2) 0.0195 Uani
O3D O -0.07586(12) -0.04478(14) 0.0893(2) 0.0195 Uani
O4E O 0.26125(14) 0.31787(18) -0.2790(2) 0.0337 Uani
H2E H 0.3083 0.3458 -0.2736 0.0510 Uiso
C1E C 0.25832(18) 0.2850(2) -0.1390(3) 0.0184 Uani
C2E C 0.32633(17) 0.30058(18) -0.0099(3) 0.0140 Uani
C3E C 0.31670(18) 0.2651(2) 0.1282(3) 0.0197 Uani
H3E H 0.3616 0.2753 0.2144 0.0240 Uiso
N1 N -0.1482(2) 0.4323(2) 0.1047(4) 0.0536 Uani
O5 O -0.0368(2) 0.3494(2) 0.0439(4) 0.0664 Uani
C4 C -0.1097(5) 0.5253(4) 0.0962(13) 0.1586 Uani
H4 H -0.0509 0.5181 0.0814 0.2380 Uiso
H5 H -0.1070 0.5594 0.1881 0.2380 Uiso
H6 H -0.1456 0.5602 0.0134 0.2380 Uiso
C5 C -0.2379(3) 0.4310(4) 0.1264(7) 0.0753 Uani
H7 H -0.2580 0.3662 0.1264 0.1130 Uiso
H8 H -0.2766 0.4656 0.0463 0.1130 Uiso
H9 H -0.2384 0.4604 0.2209 0.1130 Uiso
C6 C -0.1101(3) 0.3527(3) 0.0745(4) 0.0434 Uani
loop_
_atom_site_aniso_label
_atom_site_aniso_U_11
_atom_site_aniso_U_22
_atom_site_aniso_U_33
_atom_site_aniso_U_23
_atom_site_aniso_U_13
_atom_site_aniso_U_12
Zn1 0.0110(2) 0.0118(2) 0.0134(2) 0.000 0.00575(16) 0.000
P1 0.0120(3) 0.0142(4) 0.0136(4) -0.0007(2) 0.0044(3) -0.0043(3)
O1 0.0169(10) 0.0220(10) 0.0275(11) -0.0014(8) 0.0034(8) 0.0003(8)
O2 0.0197(10) 0.0243(10) 0.0143(9) 0.0005(8) 0.0060(8) -0.0097(8)
O3 0.0187(10) 0.0182(9) 0.0223(10) -0.0062(8) 0.0062(8) -0.0055(8)
O4 0.0293(12) 0.0568(15) 0.0132(10) 0.0090(10) 0.0014(9) -0.0249(11)
C1 0.0205(14) 0.0226(14) 0.0128(13) 0.0034(11) 0.0052(11) -0.0060(11)
C2 0.0138(12) 0.0133(12) 0.0155(13) -0.0010(10) 0.0046(10) -0.0037(10)
C3 0.0182(13) 0.0264(15) 0.0128(13) 0.0003(11) 0.0002(10) -0.0072(12)
Zn1F 0.011 0.0118 0.0134 0 0.00575 0
Zn1G 0.011 0.0118 0.0134 0 0.00575 0
Zn1A 0.011 0.0118 0.0134 0 0.00575 0
P1E 0.012 0.0142 0.0136 -0.0007 0.0044 -0.0043
O1E 0.0169 0.022 0.0275 -0.0014 0.0034 0.0003
O2E 0.0197 0.0243 0.0143 0.0005 0.006 -0.0097
O2B 0.0197 0.0243 0.0143 -0.0005 0.006 0.0097
O3E 0.0187 0.0182 0.0223 -0.0062 0.0062 -0.0055
O3F 0.0187 0.0182 0.0223 0.0062 0.0062 0.0055
O3D 0.0187 0.0182 0.0223 -0.0062 0.0062 -0.0055
O4E 0.0293 0.0568 0.0132 0.009 0.0014 -0.0249
C1E 0.0205 0.0226 0.0128 0.0034 0.0052 -0.006
C2E 0.0138 0.0133 0.0155 -0.001 0.0046 -0.0037
C3E 0.0182 0.0264 0.0128 0.0003 0.0002 -0.0072
N1 0.0473(19) 0.0428(19) 0.072(2) -0.0135(17) 0.0168(18) 0.0135(16)
O5 0.0458(17) 0.0403(16) 0.118(3) -0.0271(18) 0.0294(18) 0.0022(13)
C4 0.120(6) 0.057(4) 0.337(15) -0.072(6) 0.130(8) -0.015(4)
C5 0.066(3) 0.074(3) 0.096(4) 0.011(3) 0.039(3) 0.031(3)
C6 0.040(2) 0.044(2) 0.044(2) -0.0040(17) 0.0057(17) 0.0151(17)
loop_
_geom_bond_atom_site_label_1
_geom_bond_atom_site_label_2
_geom_bond_site_symmetry_1
_geom_bond_site_symmetry_2
Zn1 O2 1_555 1_555
P1 O1 1_555 1_555
O1 H1 1_555 1_555
O2 P1 1_555 1_555
O3 P1 1_555 1_555
O4 H2 1_555 1_555
C1 O4 1_555 1_555
C2 P1 1_555 1_555
C3 C2 1_555 1_555
H3 C3 1_555 1_555
N1 C4 1_555 1_555
O5 C6 1_555 1_555
C4 H4 1_555 1_555
H5 C4 1_555 1_555
H6 C4 1_555 1_555
C5 N1 1_555 1_555
H7 C5 1_555 1_555
H8 C5 1_555 1_555
H9 C5 1_555 1_555
C6 N1 1_555 1_555
Zn1F O3 1_555 1_555
Zn1G O2E 1_555 1_555
Zn1A O3E 1_555 1_555
P1E O1E 1_555 1_555
O1E H1E 1_555 1_555
O2E P1E 1_555 1_555
O2B Zn1 1_555 1_555
O3E P1E 1_555 1_555
O3F Zn1 1_555 1_555
O3D Zn1 1_555 1_555
O4E H2E 1_555 1_555
C1E C3 1_555 1_555
C2E P1E 1_555 1_555
C3E C1 1_555 1_555
H3E C3E 1_555 1_555
C1 C2 1_555 1_555
O4E C1E 1_555 1_555
C1E C2E 1_555 1_555
C2E C3E 1_555 1_555

#END
