
#######################################################################
#
#                 Cambridge Crystallographic Data Centre
#                                CCDC 
#
#######################################################################
#
# If this CIF has been generated from an entry in the Cambridge 
# Structural Database, then it will include bibliographic, chemical, 
# crystal, experimental, refinement or atomic coordinate data resulting 
# from the CCDC's data processing and validation procedures.
#
#######################################################################

data_QULMOA
_chemical_formula_moiety         'C15 H7 In2 O21 S2'
_symmetry_cell_setting           rhombohedral
_symmetry_space_group_name_H-M   'R -3 m'
_symmetry_Int_Tables_number      166
_space_group_name_Hall           '-R 3 2"'
loop_
_symmetry_equiv_pos_site_id
_symmetry_equiv_pos_as_xyz
1 x,y,z
2 -y,x-y,z
3 y,x,-z
4 -x+y,-x,z
5 -x,-x+y,-z
6 x-y,-y,-z
7 1/3+x,2/3+y,2/3+z
8 1/3-y,2/3+x-y,2/3+z
9 1/3+y,2/3+x,2/3-z
10 1/3-x+y,2/3-x,2/3+z
11 1/3-x,2/3-x+y,2/3-z
12 1/3+x-y,2/3-y,2/3-z
13 2/3+x,1/3+y,1/3+z
14 2/3-y,1/3+x-y,1/3+z
15 2/3+y,1/3+x,1/3-z
16 2/3-x+y,1/3-x,1/3+z
17 2/3-x,1/3-x+y,1/3-z
18 2/3+x-y,1/3-y,1/3-z
19 -x,-y,-z
20 y,-x+y,-z
21 -y,-x,z
22 x-y,x,-z
23 x,x-y,z
24 -x+y,y,z
25 2/3-x,1/3-y,1/3-z
26 2/3+y,1/3-x+y,1/3-z
27 2/3-y,1/3-x,1/3+z
28 2/3+x-y,1/3+x,1/3-z
29 2/3+x,1/3+x-y,1/3+z
30 2/3-x+y,1/3+y,1/3+z
31 1/3-x,2/3-y,2/3-z
32 1/3+y,2/3-x+y,2/3-z
33 1/3-y,2/3-x,2/3+z
34 1/3+x-y,2/3+x,2/3-z
35 1/3+x,2/3+x-y,2/3+z
36 1/3-x+y,2/3+y,2/3+z
_cell_length_a                   27.652(5)
_cell_length_b                   27.652(5)
_cell_length_c                   20.028(9)
_cell_angle_alpha                90
_cell_angle_beta                 90
_cell_angle_gamma                120
_cell_volume                     13262.4
loop_
_atom_site_label
_atom_site_type_symbol
_atom_site_fract_x
_atom_site_fract_y
_atom_site_fract_z
O1 O 0.73637(17) 0.26363(17) 0.4137(4)
In1 In 0.31108(3) 1.00000(3) 0.5000
In2 In 0.33334(3) 0.9643 0.6666
S1 S 0.12528(21) 0.87472(9) 0.16224(16)
S2 S 0.58633(11) 1.17266(8) 0.41313(18)
O2 O 0.3333 0.8855(3) 0.6667
O3 O 0.2346(3) 0.9504(4) 0.4467(3)
O4 O 0.41200(19) 0.9987(2) 0.6167(2)
O5 O 0.2878(2) 0.9421(2) 0.5777(2)
O6 O 0.34701(26) 0.95045(18) 0.4578(2)
O7 O 0.2175(11) 0.9820(9) 0.3901(8)
O9 O 0.6437(9) 1.1886(6) 0.4038(9)
O10 O 0.5735(11) 1.2164(7) 0.4320(12)
O11 O 0.5557(11) 1.1480(6) 0.3544(8)
O12 O 0.1553(8) 0.8447(4) 0.1377(7)
O13 O 0.0716(6) 0.8392(5) 0.1411(4)
C1 C 0.1710(10) 0.9136(8) 0.2865(5)
H1 H 0.1976 0.9450 0.2639
C2 C 0.1271(5) 0.8728(2) 0.2520(6)
C3 C 0.5079(4) 1.1036(3) 0.5025(4)
H2 H 0.4864 1.1187 0.4879
C4 C 0.4275(4) 1.0347(3) 0.5711(3)
C5 C 0.4870(4) 1.0607(3) 0.5491(3)
C6 C 0.51979(25) 1.03958(18) 0.5724(4)
H3 H 0.5055 1.0110 0.6038
C7 C 0.1768(10) 0.9092(8) 0.3542(5)
C8 C 0.5616(4) 1.1232(3) 0.4782(6)
C9 C 0.1354(5) 0.8645(2) 0.3876(6)
H4 H 0.1378 0.8623 0.4337
C10 C 0.2382(10) 0.9455(8) 0.3804(6)
H7 H 0.2756 0.9109 0.5616
O3E O 0.2842(5) 1.0496(4) 0.5533(3)
O4P O 0.25467(19) 0.92003(28) 0.7166(2)
O5E O 0.3457(3) 1.0579(2) 0.4223(2)
O5P O 0.3789(2) 0.9876(3) 0.7556(2)
O6E O 0.39656(32) 1.04955(18) 0.5422(2)
O9W O 0.5449(11) 1.1886(6) 0.4038(9)
O10W O 0.6429(13) 1.2164(7) 0.4320(12)
O11W O 0.5923(13) 1.1480(6) 0.3544(8)
O13T O 0.1608(5) 0.9284(6) 0.1411(4)
C1T C 0.0864(8) 0.8290(10) 0.2865(5)
C3W C 0.5957(5) 1.1036(3) 0.5025(4)
C4E C 0.3928(5) 0.9653(3) 0.4289(3)
C5W C 0.5737(5) 1.0607(3) 0.5491(3)
C7T C 0.0908(8) 0.8232(10) 0.3542(5)
loop_
_geom_bond_atom_site_label_1
_geom_bond_atom_site_label_2
_geom_bond_site_symmetry_1
_geom_bond_site_symmetry_2
In1 O3 1_555 1_555
In2 O2 1_555 1_555
S1 O12 1_555 1_555
S2 O9 1_555 1_555
O3 C10 1_555 1_555
O4 In2 1_555 1_555
O5 In1 1_555 1_555
O6 In1 1_555 1_555
O7 C10 1_555 1_555
O9 O10W 1_555 1_555
O10 S2 1_555 1_555
O11 S2 1_555 1_555
O13 S1 1_555 1_555
C1 H1 1_555 1_555
C2 S1 1_555 1_555
C3 H2 1_555 1_555
C4 O4 1_555 1_555
C5 C3 1_555 1_555
C6 C5 1_555 1_555
H3 C6 1_555 1_555
C7 C1 1_555 1_555
C8 S2 1_555 1_555
C9 C7 1_555 1_555
H4 C9 1_555 1_555
C10 C7 1_555 1_555
H7 O5 1_555 1_555
O3E In1 1_555 1_555
O4P In2 1_555 1_555
O5E In1 1_555 1_555
O5P In2 1_555 1_555
O6E In1 1_555 1_555
O9W S2 1_555 1_555
O10W S2 1_555 1_555
O11W S2 1_555 1_555
O13T S1 1_555 1_555
C1T C2 1_555 1_555
C3W C8 1_555 1_555
C4E O6 1_555 1_555
C5W C6 1_555 1_555
C7T C9 1_555 1_555
In2 O5 1_555 1_555
O10 O9W 1_555 1_555
O11 O11W 1_555 1_555
C1 C2 1_555 1_555
C3 C8 1_555 1_555
C4 C5 1_555 1_555
C4 O6E 1_555 1_555
C1T C7T 1_555 1_555
C3W C5W 1_555 1_555

#END
