
#######################################################################
#
#                 Cambridge Crystallographic Data Centre
#                                CCDC 
#
#######################################################################
#
# If this CIF has been generated from an entry in the Cambridge 
# Structural Database, then it will include bibliographic, chemical, 
# crystal, experimental, refinement or atomic coordinate data resulting 
# from the CCDC's data processing and validation procedures.
#
#######################################################################

data_GITSUY
_chemical_formula_moiety         '(C15 H23 N9 O1 Zn2)n'
_symmetry_cell_setting           tetragonal
_symmetry_space_group_name_H-M   'I 4/m m m'
_symmetry_Int_Tables_number      139
_space_group_name_Hall           '-I 4 2'
loop_
_symmetry_equiv_pos_site_id
_symmetry_equiv_pos_as_xyz
1 x,y,z
2 -y,x,z
3 y,-x,z
4 y,x,-z
5 1/2+x,1/2+y,1/2+z
6 1/2-y,1/2+x,1/2+z
7 1/2+y,1/2-x,1/2+z
8 1/2+y,1/2+x,1/2-z
9 -x,-y,z
10 -x,y,-z
11 x,-y,-z
12 -y,-x,-z
13 1/2-x,1/2-y,1/2+z
14 1/2-x,1/2+y,1/2-z
15 1/2+x,1/2-y,1/2-z
16 1/2-y,1/2-x,1/2-z
17 -x,-y,-z
18 y,-x,-z
19 -y,x,-z
20 -y,-x,z
21 1/2-x,1/2-y,1/2-z
22 1/2+y,1/2-x,1/2-z
23 1/2-y,1/2+x,1/2-z
24 1/2-y,1/2-x,1/2+z
25 x,y,-z
26 x,-y,z
27 -x,y,z
28 y,x,z
29 1/2+x,1/2+y,1/2-z
30 1/2+x,1/2-y,1/2+z
31 1/2-x,1/2+y,1/2+z
32 1/2+y,1/2+x,1/2+z
_cell_length_a                   27.2448(3)
_cell_length_b                   27.2448(3)
_cell_length_c                   19.2254(3)
_cell_angle_alpha                90
_cell_angle_beta                 90
_cell_angle_gamma                90
_cell_volume                     14270.6
loop_
_atom_site_label
_atom_site_type_symbol
_atom_site_fract_x
_atom_site_fract_y
_atom_site_fract_z
C1 C 0.32762(15) 0.17238(15) 0.2500
H1 H 0.3035 0.1965 0.2500
C2 C 0.2680(3) 0.0000 0.1536(3)
H2 H 0.2958 0.0000 0.1255
C3 C 0.1927(2) 0.1574(2) 0.2508(3)
H3 H 0.2030 0.1395 0.2893
C4 C 0.18685(17) 0.18685(17) 0.1490(3)
H4 H 0.1936 0.1936 0.1026
C5 C 0.3255(2) 0.1446(3) 0.0345(3)
H5 H 0.3495 0.1586 0.0625
C6 C 0.2619(2) 0.1070(2) 0.0000
C7 C 0.2134(6) 0.0810(6) 0.0000
H6 H 0.2188 0.0462 0.0013
H7 H 0.1956 0.0894 -0.0414
H8 H 0.1949 0.0908 0.0401
C9 C 0.3704(5) 0.1112(4) 0.2171(9)
H10 H 0.3861 0.0915 0.1846
C11 C 0.2009(4) 0.0244(4) 0.1910(7)
H12 H 0.1742 0.0443 0.2009
N1 N 0.32316(13) 0.13076(13) 0.21521(19)
N2 N 0.24833(15) 0.04064(13) 0.1735(2)
N3 N 0.21044(14) 0.15277(14) 0.1850(2)
N4 N 0.28516(14) 0.12090(14) 0.0579(2)
Zn1 Zn 0.26649(2) 0.110251(19) 0.15652(3)
C3AA C 0.1574(2) 0.1927(2) 0.2508(3)
H3AA H 0.1395 0.2030 0.2893
C5X C 0.3255(2) 0.1446(3) -0.0345(3)
H5X H 0.3495 0.1586 -0.0625
C9O C 0.3888(4) 0.1296(5) 0.2829(9)
H10O H 0.4085 0.1139 0.3154
C11Y C 0.2009(4) -0.0244(4) 0.1910(7)
H12Y H 0.1742 -0.0443 0.2009
N1O N 0.36924(13) 0.17684(13) 0.28479(19)
N2Y N 0.24833(15) -0.04064(13) 0.1735(2)
N2O N 0.45936(13) 0.25167(15) 0.3265(2)
N3AA N 0.15277(14) 0.21044(14) 0.1850(2)
N3O N 0.34723(14) 0.28956(14) 0.3150(2)
N4X N 0.28516(14) 0.12090(14) -0.0579(2)
N4O N 0.37910(14) 0.21484(14) 0.4421(2)
Zn1O Zn 0.389749(19) 0.23351(2) 0.34348(3)
Zn1Y Zn 0.26649(2) -0.110251(19) 0.15652(3)
Zn1AA Zn 0.110251(19) 0.26649(2) 0.15652(3)
Zn1X Zn 0.26649(2) 0.110251(19) -0.15652(3)
C12 C 0.415(3) 0.042(3) 0.060(2)
N5 N 0.3903(10) 0.0000 0.1173(15)
C12Y C 0.415(3) -0.042(3) 0.060(2)
O2 O 0.5000 0.186(2) 0.129(2)
loop_
_geom_bond_atom_site_label_1
_geom_bond_atom_site_label_2
_geom_bond_site_symmetry_1
_geom_bond_site_symmetry_2
C1 H1 1_555 1_555
C2 H2 1_555 1_555
C3 H3 1_555 1_555
C4 H4 1_555 1_555
C5 H5 1_555 1_555
C6 C7 1_555 1_555
C7 H6 1_555 1_555
H7 C7 1_555 1_555
H8 C7 1_555 1_555
C9 H10 1_555 1_555
C11 H12 1_555 1_555
N1 C1 1_555 1_555
N2 C2 1_555 1_555
N3 C3 1_555 1_555
N4 C5 1_555 1_555
Zn1 N1 1_555 1_555
C12 N5 1_555 1_555
N5 C12Y 1_555 1_555
C3AA C3 1_555 1_555
H3AA C3AA 1_555 1_555
C5X C5 1_555 1_555
H5X C5X 1_555 1_555
C9O C9 1_555 1_555
H10O C9O 1_555 1_555
C11Y C11 1_555 1_555
H12Y C11Y 1_555 1_555
N1O C1 1_555 1_555
N2Y C2 1_555 1_555
N2O Zn1O 1_555 1_555
N3AA C4 1_555 1_555
N3O Zn1O 1_555 1_555
N4X C6 1_555 1_555
N4O Zn1O 1_555 1_555
Zn1O N1O 1_555 1_555
Zn1Y N2Y 1_555 1_555
Zn1AA N3AA 1_555 1_555
Zn1X N4X 1_555 1_555
C4 N3 1_555 1_555
C6 N4 1_555 1_555
C9 N1 1_555 1_555
C11 N2 1_555 1_555
N2 Zn1 1_555 1_555
N3 Zn1 1_555 1_555
N4 Zn1 1_555 1_555
C3AA N3AA 1_555 1_555
C5X N4X 1_555 1_555
C9O N1O 1_555 1_555
C11Y N2Y 1_555 1_555

#END
