
#######################################################################
#
#                 Cambridge Crystallographic Data Centre
#                                CCDC 
#
#######################################################################
#
# If this CIF has been generated from an entry in the Cambridge 
# Structural Database, then it will include bibliographic, chemical, 
# crystal, experimental, refinement or atomic coordinate data resulting 
# from the CCDC's data processing and validation procedures.
#
#######################################################################

data_GITVAH01
_chemical_formula_moiety         'C40 H24 Cl4 N26 O8 Zn9'
_symmetry_cell_setting           hexagonal
_symmetry_space_group_name_H-M   'P 63/m m c'
_symmetry_Int_Tables_number      194
_space_group_name_Hall           '-P 6c 2c'
loop_
_symmetry_equiv_pos_site_id
_symmetry_equiv_pos_as_xyz
1 x,y,z
2 -y,x-y,z
3 -x+y,-x,z
4 y,-x+y,1/2+z
5 x-y,x,1/2+z
6 y,x,-z
7 -x+y,y,1/2-z
8 x,x-y,1/2-z
9 -x,-y,1/2+z
10 x-y,-y,-z
11 -x,-x+y,-z
12 -y,-x,1/2-z
13 -x,-y,-z
14 y,-x+y,-z
15 x-y,x,-z
16 -y,x-y,1/2-z
17 -x+y,-x,1/2-z
18 -y,-x,z
19 x-y,-y,1/2+z
20 -x,-x+y,1/2+z
21 x,y,1/2-z
22 -x+y,y,z
23 x,x-y,z
24 y,x,1/2+z
_cell_length_a                   26.0840(18)
_cell_length_b                   26.0840(18)
_cell_length_c                   19.4082(18)
_cell_angle_alpha                90
_cell_angle_beta                 90
_cell_angle_gamma                120
_cell_volume                     11435.7
loop_
_atom_site_label
_atom_site_type_symbol
_atom_site_fract_x
_atom_site_fract_y
_atom_site_fract_z
Zn1 Zn 0.43520(5) 0.33202(4) 0.40427(6)
N1 N 0.3722(7) 0.3411(6) 0.4498(8)
C1 C 0.3835(5) 0.3835(5) 0.5000
H1 H 0.4199 0.4199 0.5000
C2 C 0.3182(4) 0.2957(4) 0.4744(6)
C3 C 0.2286(5) 0.2057(6) 0.4759(10)
H2 H 0.2048 0.1660 0.4605
C4 C 0.2848(5) 0.2393(5) 0.4505(7)
H3 H 0.3001 0.2238 0.4171
N2 N 0.5158(3) 0.3993(4) 0.4288(4)
C5 C 0.5478(3) 0.4522(3) 0.4083(7)
N3 N 0.5189(6) 0.4811(6) 0.381(2)
O1 O 0.4666(10) 0.4525(7) 0.3774(12)
C6 C 0.5619(8) 0.3871(8) 0.4609(11)
H4 H 0.5555 0.3501 0.4777
N4 N 0.4054(3) 0.3223(3) 0.3083(4)
C7 C 0.4321(5) 0.3229(4) 0.2500
N5 N 0.4874(4) 0.3240(3) 0.2500
O2 O 0.5102(2) 0.3249(2) 0.3047(3)
C8 C 0.3564(5) 0.3211(4) 0.2863(5)
H5 H 0.3265 0.3204 0.3148
N6 N 0.4314(3) 0.2587(3) 0.4394(3)
C9 C 0.4350(4) 0.2175(2) 0.4038(5)
H6 H 0.4398 0.2199 0.3552
C10 C 0.4255(4) 0.2390(4) 0.5058(4)
C11 C 0.4153(9) 0.2339(8) 0.6251(6)
C12 C 0.4195(7) 0.2654(7) 0.5665(5)
H7 H 0.4184 0.3012 0.5668
Cl1 Cl 0.4074(6) 0.2800(6) 0.6975(3)
Zn1E Zn 0.33202(4) 0.43520(5) 0.59573(6)
Zn1Q Zn 0.66798(4) 0.56480(5) 0.40427(6)
Zn1T Zn 0.43520(5) 0.33202(4) 0.09573(6)
Zn1V Zn 0.43520(5) 0.10318(6) 0.40427(6)
Zn1T_2 Zn 0.43520(5) 0.33202(4) 1.09573(6)
Zn1G Zn 0.43520(5) 0.10318(6) 1.09573(6)
Zn1L Zn 0.56480(5) 0.66798(4) 0.59573(6)
Zn1W Zn 0.33202(4) 0.43520(5) 0.90427(6)
N1E N 0.3411(6) 0.3722(7) 0.5502(8)
N1Q N 0.6589(6) 0.6278(7) 0.4498(8)
N1L N 0.6278(7) 0.6589(6) 0.5502(8)
N1T N 0.3722(7) 0.3411(6) 0.0502(8)
C1L C 0.6165(5) 0.6165(5) 0.5000
H1L H 0.5801 0.5801 0.5000
C2E C 0.2957(4) 0.3182(4) 0.5256(6)
C2Q C 0.7043(4) 0.6818(4) 0.4744(6)
C2L C 0.6818(4) 0.7043(4) 0.5256(6)
C3E C 0.2057(6) 0.2286(5) 0.5241(10)
C3Q C 0.7943(6) 0.7714(5) 0.4759(10)
C3L C 0.7714(5) 0.7943(6) 0.5241(10)
H2E H 0.1660 0.2048 0.5395
H2Q H 0.8340 0.7952 0.4605
H2L H 0.7952 0.8340 0.5395
C4E C 0.2393(5) 0.2848(5) 0.5495(7)
C4Q C 0.7607(5) 0.7152(5) 0.4505(7)
C4L C 0.7152(5) 0.7607(5) 0.5495(7)
H3E H 0.2238 0.3001 0.5829
H3Q H 0.7762 0.6999 0.4171
H3L H 0.6999 0.7762 0.5829
N2Q N 0.6007(4) 0.4842(3) 0.4288(4)
N2E N 0.3993(4) 0.5158(3) 0.5712(4)
N2L N 0.4842(3) 0.6007(4) 0.5712(4)
N2T N 0.5158(3) 0.3993(4) 0.0712(4)
C5E C 0.4522(3) 0.5478(3) 0.5917(7)
N3E N 0.4811(6) 0.5189(6) 0.619(2)
O1Q O 0.5475(7) 0.5334(10) 0.3774(12)
O1E O 0.4525(7) 0.4666(10) 0.6226(12)
O1L O 0.5334(10) 0.5475(7) 0.6226(12)
C6Q C 0.6129(8) 0.4381(8) 0.4609(11)
C6E C 0.3871(8) 0.5619(8) 0.5391(11)
C6L C 0.4381(8) 0.6129(8) 0.5391(11)
H4Q H 0.6499 0.4445 0.4777
H4E H 0.3501 0.5555 0.5223
H4L H 0.4445 0.6499 0.5223
N4T N 0.4054(3) 0.3223(3) 0.1917(4)
N4E N 0.3223(3) 0.4054(3) 0.6917(4)
N4W N 0.3223(3) 0.4054(3) 0.8083(4)
N4Q N 0.6777(3) 0.5946(3) 0.3083(4)
C7E C 0.3229(4) 0.4321(5) 0.7500
N5E N 0.3240(3) 0.4874(4) 0.7500
O2T O 0.5102(2) 0.3249(2) 0.1953(3)
O2E O 0.3249(2) 0.5102(2) 0.6953(3)
O2W O 0.3249(2) 0.5102(2) 0.8047(3)
C8T C 0.3564(5) 0.3211(4) 0.2137(5)
C8E C 0.3211(4) 0.3564(5) 0.7137(5)
C8W C 0.3211(4) 0.3564(5) 0.7863(5)
H5T H 0.3265 0.3204 0.1852
H5E H 0.3204 0.3265 0.6852
H5W H 0.3204 0.3265 0.8148
N6V N 0.4314(3) 0.1727(4) 0.4394(3)
N6T N 0.4314(3) 0.2587(3) 1.0606(3)
N6G N 0.4314(3) 0.1727(4) 1.0606(3)
N6E N 0.2587(3) 0.4314(3) 0.5606(3)
N6Q N 0.7413(3) 0.5686(3) 0.4394(3)
N6T_2 N 0.4314(3) 0.2587(3) 0.0606(3)
C9G C 0.4350(4) 0.2175(4) 1.0962(5)
H6G H 0.4398 0.2199 1.1448
C10V C 0.4255(4) 0.1865(6) 0.5058(4)
C10T C 0.4255(4) 0.2390(4) 0.9942(4)
C10G C 0.4255(4) 0.1865(6) 0.9942(4)
C11V C 0.4153(9) 0.1814(12) 0.6251(6)
C11G C 0.4153(9) 0.1814(12) 0.8749(6)
C11T C 0.4153(9) 0.2339(8) 0.8749(6)
C12V C 0.4195(7) 0.1541(10) 0.5665(5)
C12T C 0.4195(7) 0.2654(7) 0.9335(5)
C12G C 0.4195(7) 0.1541(10) 0.9335(5)
H7V H 0.4184 0.1172 0.5668
H7G H 0.4184 0.1172 0.9332
H7T H 0.4184 0.3012 0.9332
Cl1V Cl 0.4074(6) 0.1274(8) 0.6975(3)
Cl1G Cl 0.4074(6) 0.1274(8) 0.8025(3)
Cl1T Cl 0.4074(6) 0.2800(6) 0.8025(3)
loop_
_geom_bond_atom_site_label_1
_geom_bond_atom_site_label_2
_geom_bond_site_symmetry_1
_geom_bond_site_symmetry_2
Zn1 N1 1_555 1_555
N1 C1 1_555 1_555
C1 H1 1_555 1_555
C2 N1 1_555 1_555
C3 H2 1_555 1_555
C4 C2 1_555 1_555
H3 C4 1_555 1_555
N2 Zn1 1_555 1_555
C5 N2 1_555 1_555
N3 C5 1_555 1_555
O1 N3 1_555 1_555
C6 N2 1_555 1_555
H4 C6 1_555 1_555
N4 Zn1 1_555 1_555
C7 N4 1_555 1_555
N5 C7 1_555 1_555
O2 N5 1_555 1_555
C8 N4 1_555 1_555
H5 C8 1_555 1_555
N6 Zn1 1_555 1_555
C9 N6 1_555 1_555
H6 C9 1_555 1_555
C10 N6 1_555 1_555
C11 C12 1_555 1_555
C12 C10 1_555 1_555
H7 C12 1_555 1_555
Cl1 C11 1_555 1_555
Zn1E N1E 1_555 1_555
Zn1Q N1Q 1_555 1_555
Zn1T N1T 1_555 1_555
Zn1V N6V 1_555 1_555
Zn1T_2 N6T 1_555 1_555
Zn1G N6G 1_555 1_555
Zn1L N1L 1_555 1_555
Zn1W N4W 1_555 1_555
N1E C1 1_555 1_555
N1Q C1L 1_555 1_555
N1L C1L 1_555 1_555
C1L H1L 1_555 1_555
C2E C2 1_555 1_555
C2Q N1Q 1_555 1_555
C2L N1L 1_555 1_555
C3E C3 1_555 1_555
C3Q C3L 1_555 1_555
C3L H2L 1_555 1_555
H2E C3E 1_555 1_555
H2Q C3Q 1_555 1_555
C4E C2E 1_555 1_555
C4Q C2Q 1_555 1_555
C4L C2L 1_555 1_555
H3E C4E 1_555 1_555
H3Q C4Q 1_555 1_555
H3L C4L 1_555 1_555
N2Q C5 1_555 1_555
N2E Zn1E 1_555 1_555
N2L Zn1L 1_555 1_555
N2T Zn1T 1_555 1_555
C5E N2E 1_555 1_555
N3E C5E 1_555 1_555
O1Q N3 1_555 1_555
O1E N3E 1_555 1_555
O1L N3E 1_555 1_555
C6Q C6 1_555 1_555
C6E N2E 1_555 1_555
C6L N2L 1_555 1_555
H4Q C6Q 1_555 1_555
H4E C6E 1_555 1_555
H4L C6L 1_555 1_555
N4T C7 1_555 1_555
N4E Zn1E 1_555 1_555
N4W C7E 1_555 1_555
N4Q Zn1Q 1_555 1_555
C7E N4E 1_555 1_555
N5E C7E 1_555 1_555
O2T N5 1_555 1_555
O2E N5E 1_555 1_555
O2W N5E 1_555 1_555
C8T C8 1_555 1_555
C8E N4E 1_555 1_555
C8W N4W 1_555 1_555
H5T C8T 1_555 1_555
H5E C8E 1_555 1_555
H5W C8W 1_555 1_555
N6V C9 1_555 1_555
N6T C9G 1_555 1_555
N6G C9G 1_555 1_555
N6E Zn1E 1_555 1_555
N6Q Zn1Q 1_555 1_555
N6T_2 Zn1T 1_555 1_555
C9G H6G 1_555 1_555
C10V C10 1_555 1_555
C10T N6T 1_555 1_555
C10G N6G 1_555 1_555
C11V C11 1_555 1_555
C11G C11T 1_555 1_555
C11T C12T 1_555 1_555
C12V C10V 1_555 1_555
C12T C10T 1_555 1_555
C12G C10G 1_555 1_555
H7V C12V 1_555 1_555
H7G C12G 1_555 1_555
H7T C12T 1_555 1_555
Cl1V C11V 1_555 1_555
Cl1G C11G 1_555 1_555
Cl1T Cl1 1_555 1_555
C3 C4 1_555 1_555
Zn1Q N2Q 1_555 1_555
Zn1T N4T 1_555 1_555
N1E C2E 1_555 1_555
C2Q C2L 1_555 1_555
C3E C4E 1_555 1_555
C3Q C4Q 1_555 1_555
C3L C4L 1_555 1_555
N2Q C6Q 1_555 1_555
N2L C5E 1_555 1_555
C6E C6L 1_555 1_555
N4T C8T 1_555 1_555
C8E C8W 1_555 1_555
N6V C10V 1_555 1_555
C10T C10G 1_555 1_555
C11V C12V 1_555 1_555
C11G C12G 1_555 1_555
C11T Cl1T 1_555 1_555
Cl1V Cl1G 1_555 1_555

#END
