
#######################################################################
#
#                 Cambridge Crystallographic Data Centre
#                                CCDC 
#
#######################################################################
#
# If this CIF has been generated from an entry in the Cambridge 
# Structural Database, then it will include bibliographic, chemical, 
# crystal, experimental, refinement or atomic coordinate data resulting 
# from the CCDC's data processing and validation procedures.
#
#######################################################################

data_GITVEL01
_chemical_formula_moiety         '(C12 H11 N9 O2 Zn2)n'
_symmetry_cell_setting           hexagonal
_symmetry_space_group_name_H-M   'P 63/m m c'
_symmetry_Int_Tables_number      194
_space_group_name_Hall           '-P 6c 2c'
loop_
_symmetry_equiv_pos_site_id
_symmetry_equiv_pos_as_xyz
1 x,y,z
2 -y,x-y,z
3 -x+y,-x,z
4 y,-x+y,1/2+z
5 x-y,x,1/2+z
6 y,x,-z
7 -x+y,y,1/2-z
8 x,x-y,1/2-z
9 -x,-y,1/2+z
10 x-y,-y,-z
11 -x,-x+y,-z
12 -y,-x,1/2-z
13 -x,-y,-z
14 y,-x+y,-z
15 x-y,x,-z
16 -y,x-y,1/2-z
17 -x+y,-x,1/2-z
18 -y,-x,z
19 x-y,-y,1/2+z
20 -x,-x+y,1/2+z
21 x,y,1/2-z
22 -x+y,y,z
23 x,x-y,z
24 y,x,1/2+z
_cell_length_a                   27.0111(9)
_cell_length_b                   27.0111(9)
_cell_length_c                   18.0208(13)
_cell_angle_alpha                90
_cell_angle_beta                 90
_cell_angle_gamma                120
_cell_volume                     11386.5
loop_
_atom_site_label
_atom_site_type_symbol
_atom_site_fract_x
_atom_site_fract_y
_atom_site_fract_z
_atom_site_U_iso_or_equiv
_atom_site_thermal_displace_type
Zn1 Zn 0.667221(13) 0.110741(15) 0.42034(3) 0.0595 Uani
C1 C 0.7675(3) 0.1817(3) 0.5186(4) 0.1822 Uani
H1 H 0.7553 0.1534 0.5548 0.2190 Uiso
N1 N 0.73738(12) 0.17988(12) 0.45456(16) 0.0866 Uani
C2 C 0.77794(14) 0.22206(14) 0.4226(3) 0.0844 Uani
H2 H 0.7766 0.2234 0.3711 0.1020 Uiso
C3 C 0.6684(3) 0.0436(2) 0.2880(3) 0.1590 Uani
H3 H 0.6681 0.0154 0.3179 0.1910 Uiso
N2 N 0.66891(14) 0.09101(15) 0.3124(2) 0.0976 Uani
C4 C 0.66847(14) 0.11563(17) 0.2500 0.0569 Uani
N3 N 0.66801(17) 0.16954(19) 0.2500 0.0830 Uani
O1 O 0.66788(12) 0.19062(12) 0.30965(17) 0.1045 Uani
C5 C 0.55362(12) 0.1072(2) 0.4205(3) 0.0782 Uani
H4 H 0.5462 0.0923 0.3727 0.0940 Uiso
N4 N 0.60020(11) 0.11761(11) 0.45380(15) 0.0710 Uani
C6 C 0.5805(3) 0.1112(3) 0.5264(4) 0.0911 Uani
H5 H 0.5987 0.1076 0.5680 0.1090 Uiso
C7 C 0.69961(16) 0.02573(17) 0.4830(3) 0.1026 Uani
H6 H 0.7380 0.0464 0.4696 0.1230 Uiso
N5 N 0.66040(10) 0.04231(10) 0.47164(17) 0.0677 Uani
C8 C 0.61292(14) -0.0000 0.5000 0.0648 Uani
H7 H 0.5785 -0.0000 0.5000 0.0780 Uiso
Zn1Q Zn 0.889259(15) 0.332779(13) 0.42034(3) 0.0595 Uani
Zn1T Zn 0.667221(13) 0.110741(15) 0.07966(3) 0.0595 Uani
Zn1U Zn 0.443520(20) 0.110741(15) 0.42034(3) 0.0595 Uani
Zn1I Zn 0.556480(20) -0.110741(15) 0.57966(3) 0.0595 Uani
C1Q C 0.8183(3) 0.2325(3) 0.5186(4) 0.1822 Uani
H1Q H 0.8466 0.2447 0.5548 0.2190 Uiso
N1Q N 0.82012(12) 0.26262(12) 0.45456(16) 0.0866 Uani
C3T C 0.6684(3) 0.0436(2) 0.2120(3) 0.1590 Uani
H3T H 0.6681 0.0154 0.1821 0.1910 Uiso
N2T N 0.66891(14) 0.09101(15) 0.1876(2) 0.0976 Uani
N2Q N 0.90899(15) 0.33109(14) 0.3124(2) 0.0976 Uani
O1T O 0.66788(12) 0.19062(12) 0.19035(17) 0.1045 Uani
N4U N 0.51741(16) 0.11761(11) 0.45380(15) 0.0710 Uani
N4Q N 0.88239(11) 0.39980(11) 0.45380(15) 0.0710 Uani
C6U C 0.5307(4) 0.1112(3) 0.5264(4) 0.0911 Uani
H5U H 0.5089 0.1076 0.5680 0.1090 Uiso
C7I C 0.67388(23) -0.02573(17) 0.5170(3) 0.1026 Uani
H6I H 0.6916 -0.0464 0.5304 0.1230 Uiso
N5I N 0.61809(14) -0.04231(10) 0.52836(17) 0.0677 Uani
N5Q N 0.95769(10) 0.33960(10) 0.47164(17) 0.0677 Uani
loop_
_atom_site_aniso_label
_atom_site_aniso_U_11
_atom_site_aniso_U_22
_atom_site_aniso_U_33
_atom_site_aniso_U_23
_atom_site_aniso_U_13
_atom_site_aniso_U_12
Zn1 0.0493(3) 0.0474(3) 0.0716(4) 0.00985(16) 0.00191(15) 0.01660(19)
C1 0.146(6) 0.133(6) 0.132(5) 0.068(5) -0.072(5) -0.032(5)
N1 0.0707(17) 0.0679(16) 0.0722(17) 0.0087(14) -0.0035(14) -0.0022(14)
C2 0.0651(18) 0.0651(18) 0.077(3) -0.0067(14) 0.0067(14) -0.002(2)
C3 0.297(10) 0.118(4) 0.117(4) 0.003(3) 0.006(4) 0.145(6)
N2 0.125(3) 0.0778(19) 0.093(2) 0.0027(18) 0.0027(17) 0.053(2)
C4 0.059(2) 0.052(2) 0.054(2) 0.000 0.000 0.0234(17)
N3 0.090(3) 0.068(2) 0.085(3) 0.000 0.000 0.035(2)
O1 0.144(3) 0.0929(18) 0.0889(18) -0.0037(15) 0.0010(15) 0.0685(18)
C5 0.0646(18) 0.098(4) 0.083(3) -0.018(3) -0.0089(13) 0.0488(18)
N4 0.0610(14) 0.0756(17) 0.0763(17) 0.0026(13) -0.0015(13) 0.0341(13)
C6 0.081(4) 0.124(6) 0.076(4) 0.000(4) -0.008(3) 0.057(4)
C7 0.065(2) 0.096(3) 0.150(4) 0.050(3) 0.027(2) 0.0426(19)
N5 0.0575(14) 0.0518(12) 0.0883(18) 0.0189(12) 0.0063(12) 0.0232(11)
C8 0.0568(16) 0.052(2) 0.084(3) 0.013(2) 0.0063(10) 0.0260(11)
Zn1Q 0.0474 0.0493 0.0716 -0.00191 -0.00985 0.0166
Zn1T 0.0493 0.0474 0.0716 -0.00985 -0.00191 0.0166
Zn1U 0.0635 0.0474 0.0716 0.00985 0.00794 0.0308
Zn1I 0.0635 0.0474 0.0716 0.00985 0.00794 0.0308
C1Q 0.133 0.146 0.132 0.072 -0.068 -0.032
N1Q 0.0679 0.0707 0.0722 0.0035 -0.0087 -0.0022
C3T 0.297 0.118 0.117 -0.003 -0.006 0.145
N2T 0.125 0.0778 0.093 -0.0027 -0.0027 0.053
N2Q 0.0778 0.125 0.093 -0.0027 -0.0027 0.053
O1T 0.144 0.0929 0.0889 0.0037 -0.001 0.0685
N4U 0.0684 0.0756 0.0763 0.0026 0.0041 0.0415
N4Q 0.0756 0.061 0.0763 0.0015 -0.0026 0.0341
C6U 0.091 0.124 0.076 0 0.008 0.067
C7I 0.0758 0.096 0.15 0.05 0.023 0.0534
N5I 0.0629 0.0518 0.0883 0.0189 0.0126 0.0286
N5Q 0.0518 0.0575 0.0883 -0.0063 -0.0189 0.0232
loop_
_geom_bond_atom_site_label_1
_geom_bond_atom_site_label_2
_geom_bond_site_symmetry_1
_geom_bond_site_symmetry_2
Zn1 N1 1_555 1_555
C1 H1 1_555 1_555
N1 C1 1_555 1_555
C2 N1 1_555 1_555
H2 C2 1_555 1_555
C3 H3 1_555 1_555
N2 Zn1 1_555 1_555
C4 N2 1_555 1_555
N3 C4 1_555 1_555
O1 N3 1_555 1_555
C5 H4 1_555 1_555
N4 Zn1 1_555 1_555
C6 N4 1_555 1_555
H5 C6 1_555 1_555
C7 H6 1_555 1_555
N5 Zn1 1_555 1_555
C8 N5 1_555 1_555
H7 C8 1_555 1_555
Zn1Q N1Q 1_555 1_555
Zn1T N2T 1_555 1_555
Zn1U N4U 1_555 1_555
Zn1I N5I 1_555 1_555
C1Q C1 1_555 1_555
H1Q C1Q 1_555 1_555
N1Q C2 1_555 1_555
C3T C3 1_555 1_555
H3T C3T 1_555 1_555
N2T C4 1_555 1_555
N2Q Zn1Q 1_555 1_555
O1T N3 1_555 1_555
N4U C5 1_555 1_555
N4Q Zn1Q 1_555 1_555
C6U C6 1_555 1_555
H5U C6U 1_555 1_555
C7I C7 1_555 1_555
H6I C7I 1_555 1_555
N5I C8 1_555 1_555
N5Q Zn1Q 1_555 1_555
C3 N2 1_555 1_555
C5 N4 1_555 1_555
C7 N5 1_555 1_555
C1Q N1Q 1_555 1_555
C3T N2T 1_555 1_555
N4U C6U 1_555 1_555
C7I N5I 1_555 1_555

#END
