
#######################################################################
#
#                 Cambridge Crystallographic Data Centre
#                                CCDC 
#
#######################################################################
#
# If this CIF has been generated from an entry in the Cambridge 
# Structural Database, then it will include bibliographic, chemical, 
# crystal, experimental, refinement or atomic coordinate data resulting 
# from the CCDC's data processing and validation procedures.
#
#######################################################################

data_GIZJOP
_chemical_formula_moiety         '(C15 H19 N9 O1 Zn2)n'
_symmetry_cell_setting           orthorhombic
_symmetry_space_group_name_H-M   'P b c a'
_symmetry_Int_Tables_number      61
_space_group_name_Hall           '-P 2ac 2ab'
loop_
_symmetry_equiv_pos_site_id
_symmetry_equiv_pos_as_xyz
1 x,y,z
2 1/2-x,-y,1/2+z
3 -x,1/2+y,1/2-z
4 1/2+x,1/2-y,-z
5 -x,-y,-z
6 1/2+x,y,1/2-z
7 x,1/2-y,1/2+z
8 1/2-x,1/2+y,z
_cell_length_a                   15.6620(14)
_cell_length_b                   15.6621(13)
_cell_length_c                   18.2073(19)
_cell_angle_alpha                90
_cell_angle_beta                 90
_cell_angle_gamma                90
_cell_volume                     4466.25
loop_
_atom_site_label
_atom_site_type_symbol
_atom_site_fract_x
_atom_site_fract_y
_atom_site_fract_z
_atom_site_U_iso_or_equiv
_atom_site_thermal_displace_type
C1 C 0.1091(4) 0.1149(5) 0.5986(5) 0.0937 Uani
H1 H 0.1095 0.0600 0.5791 0.1120 Uiso
C2 C 0.0367(4) 0.1600(4) 0.6172(4) 0.0847 Uani
H2 H -0.0194 0.1415 0.6115 0.1020 Uiso
C3 C 0.3816(6) 0.3154(4) 0.6130(4) 0.1013 Uani
H3 H 0.3628 0.3363 0.5681 0.1220 Uiso
C4 C 0.3143(6) 0.0143(5) 0.7217(5) 0.1260 Uani
H4 H 0.2696 0.0387 0.7480 0.1510 Uiso
C5 C 0.2880(7) 0.0870(10) 0.4370(6) 0.1940 Uani
H5 H 0.2348 0.0611 0.4417 0.2330 Uiso
C6 C 0.4007(3) 0.1518(4) 0.4578(3) 0.0667 Uani
H6 H 0.4434 0.1819 0.4822 0.0800 Uiso
C7 C 0.3329(7) 0.0937(9) 0.3740(5) 0.1797 Uani
H7 H 0.3158 0.0729 0.3285 0.2160 Uiso
C8 C 0.4080(3) 0.2358(4) 0.7022(3) 0.0657 Uani
H8 H 0.4102 0.1876 0.7319 0.0790 Uiso
C9 C 0.4257(6) 0.3598(4) 0.6641(4) 0.1067 Uani
H9 H 0.4417 0.4168 0.6604 0.1280 Uiso
C10 C 0.3637(6) -0.0493(5) 0.7461(4) 0.1147 Uani
H10 H 0.3605 -0.0749 0.7920 0.1380 Uiso
C11 C 0.4022(3) -0.0147(4) 0.6396(3) 0.0663 Uani
H11 H 0.4325 -0.0126 0.5957 0.0800 Uiso
C12 C 0.1483(3) 0.2348(3) 0.6391(3) 0.0607 Uani
H12 H 0.1825 0.2809 0.6523 0.0730 Uiso
N1 N 0.1801(3) 0.1627(3) 0.6130(3) 0.0687 Uani
N2 N 0.3698(3) 0.2362(3) 0.6382(2) 0.0640 Uani
N3 N 0.3385(3) 0.0380(3) 0.6542(3) 0.0673 Uani
N4 N 0.3323(3) 0.1238(3) 0.4923(3) 0.0723 Uani
N5 N 0.4057(3) 0.1352(3) 0.3876(3) 0.0710 Uani
N6 N 0.4426(3) 0.3079(3) 0.7209(2) 0.0690 Uani
N7 N 0.4198(3) -0.0701(3) 0.6915(2) 0.0650 Uani
N8 N 0.0637(3) 0.2364(3) 0.6451(3) 0.0657 Uani
Zn1 Zn 0.30343(4) 0.13921(5) 0.59659(4) 0.0618 Uani
Zn2 Zn 0.49743(4) 0.16499(5) 0.31671(4) 0.0606 Uani
N6F N 0.4426(3) 0.1921(3) 0.2209(2) 0.0690 Uani
N7D N 0.5802(3) 0.0701(3) 0.3085(2) 0.0650 Uani
N8C N 0.5637(3) 0.2636(3) 0.3549(3) 0.0657 Uani
Zn2F Zn 0.49743(4) 0.33501(5) 0.81671(4) 0.0606 Uani
Zn2D Zn 0.50257(4) -0.16499(5) 0.68329(4) 0.0606 Uani
Zn2C Zn -0.00257(4) 0.33501(5) 0.68329(4) 0.0606 Uani
N9 N 0.6726(11) 0.1711(11) 0.6026(8) 0.1230 Uiso
O1 O 0.8108(16) 0.1327(14) 0.5718(13) 0.2090 Uiso
C13 C 0.7663(15) 0.192(2) 0.6016(19) 0.2830 Uiso
C14 C 0.644(3) 0.255(2) 0.573(2) 0.3300 Uiso
C15 C 0.665(2) 0.203(2) 0.6821(12) 0.2010 Uiso
loop_
_atom_site_aniso_label
_atom_site_aniso_U_11
_atom_site_aniso_U_22
_atom_site_aniso_U_33
_atom_site_aniso_U_23
_atom_site_aniso_U_13
_atom_site_aniso_U_12
C1 0.065(4) 0.061(4) 0.155(7) -0.024(4) 0.010(4) -0.004(3)
C2 0.057(4) 0.074(4) 0.123(6) -0.017(4) 0.010(4) -0.008(3)
C3 0.145 0.064 0.095 0.015 -0.059 -0.012
C4 0.145 0.099 0.134 0.039 0.083 0.051
C5 0.145 0.314 0.123 -0.082 0.048 -0.155
C6 0.05 0.079 0.071 -0.008 -0.008 -0.009
C7 0.135 0.301 0.103 -0.085 0.031 -0.124
C8 0.066 0.066 0.065 0.005 -0.007 -0.006
C9 0.145 0.069 0.106 0.019 -0.056 -0.023
C10 0.144 0.095 0.105 0.036 0.057 0.044
C11 0.062 0.07 0.067 -0.004 0.008 0.007
C12 0.048(3) 0.062(3) 0.072(3) -0.007(3) 0.005(2) -0.005(2)
N1 0.054(3) 0.068(3) 0.084(3) -0.009(2) 0.003(2) 0.001(2)
N2 0.062 0.067 0.063 -0.002 -0.01 -0.004
N3 0.063 0.063 0.076 0.001 0.012 0.007
N4 0.057 0.088 0.072 -0.017 0 -0.012
N5 0.056 0.089 0.068 -0.012 -0.004 -0.017
N6 0.072 0.069 0.066 0.004 -0.013 -0.004
N7 0.068 0.063 0.064 0.007 0.006 0.006
N8 0.053(3) 0.063(3) 0.081(3) -0.006(2) 0.007(2) 0.000(2)
Zn1 0.0512(5) 0.0624(6) 0.0717(6) -0.0052(3) 0.0001(3) 0.0040(3)
Zn2 0.0531 0.0647 0.0639 0.0011 -0.0076 -0.0003
N6F 0.072 0.069 0.066 -0.004 -0.013 0.004
N7D 0.068 0.063 0.064 0.007 0.006 0.006
N8C 0.053 0.063 0.081 -0.006 -0.007 0
Zn2F 0.0531 0.0647 0.0639 -0.0011 -0.0076 0.0003
Zn2D 0.0531 0.0647 0.0639 0.0011 -0.0076 -0.0003
Zn2C 0.0531(5) 0.0647(6) 0.0639(6) 0.0011(3) 0.0076(3) 0.0003(3)
loop_
_geom_bond_atom_site_label_1
_geom_bond_atom_site_label_2
_geom_bond_site_symmetry_1
_geom_bond_site_symmetry_2
C1 H1 1_555 1_555
C2 C1 1_555 1_555
H2 C2 1_555 1_555
C3 H3 1_555 1_555
C4 H4 1_555 1_555
C5 H5 1_555 1_555
C6 H6 1_555 1_555
C7 C5 1_555 1_555
H7 C7 1_555 1_555
C8 H8 1_555 1_555
C9 C3 1_555 1_555
H9 C9 1_555 1_555
C10 C4 1_555 1_555
H10 C10 1_555 1_555
C11 H11 1_555 1_555
C12 H12 1_555 1_555
N1 C1 1_555 1_555
N2 C3 1_555 1_555
N3 C4 1_555 1_555
N4 C5 1_555 1_555
N5 C6 1_555 1_555
N6 C8 1_555 1_555
N7 C10 1_555 1_555
N8 C2 1_555 1_555
Zn1 N1 1_555 1_555
Zn2 N5 1_555 1_555
N9 C13 1_555 1_555
O1 C13 1_555 1_555
C14 N9 1_555 1_555
C15 N9 1_555 1_555
N6F Zn2 1_555 1_555
N7D Zn2 1_555 1_555
N8C Zn2 1_555 1_555
Zn2F N6 1_555 1_555
Zn2D N7 1_555 1_555
Zn2C N8 1_555 1_555
C6 N4 1_555 1_555
C7 N5 1_555 1_555
C8 N2 1_555 1_555
C9 N6 1_555 1_555
C11 N3 1_555 1_555
C11 N7 1_555 1_555
C12 N1 1_555 1_555
C12 N8 1_555 1_555
N2 Zn1 1_555 1_555
N3 Zn1 1_555 1_555
N4 Zn1 1_555 1_555

#END
