
#######################################################################
#
#                 Cambridge Crystallographic Data Centre
#                                CCDC 
#
#######################################################################
#
# If this CIF has been generated from an entry in the Cambridge 
# Structural Database, then it will include bibliographic, chemical, 
# crystal, experimental, refinement or atomic coordinate data resulting 
# from the CCDC's data processing and validation procedures.
#
#######################################################################

data_RUVCES
_chemical_formula_moiety         '(C1 H6 N3 O6 S2 Zn1 1-)n'
_symmetry_cell_setting           orthorhombic
_symmetry_space_group_name_H-M   'F d d 2'
_symmetry_Int_Tables_number      43
_space_group_name_Hall           'F 2 -2d'
loop_
_symmetry_equiv_pos_site_id
_symmetry_equiv_pos_as_xyz
1 x,y,z
2 -x,-y,z
3 1/4-x,1/4+y,1/4+z
4 1/4+x,1/4-y,1/4+z
5 x,1/2+y,1/2+z
6 -x,1/2-y,1/2+z
7 1/4-x,3/4+y,3/4+z
8 1/4+x,3/4-y,3/4+z
9 1/2+x,y,1/2+z
10 1/2-x,-y,1/2+z
11 3/4-x,1/4+y,3/4+z
12 3/4+x,1/4-y,3/4+z
13 1/2+x,1/2+y,z
14 1/2-x,1/2-y,z
15 3/4-x,3/4+y,1/4+z
16 3/4+x,3/4-y,1/4+z
_cell_length_a                   14.4211(13)
_cell_length_b                   12.1181(8)
_cell_length_c                   14.0692(8)
_cell_angle_alpha                90
_cell_angle_beta                 90
_cell_angle_gamma                90
_cell_volume                     2458.68
loop_
_atom_site_label
_atom_site_type_symbol
_atom_site_fract_x
_atom_site_fract_y
_atom_site_fract_z
_atom_site_U_iso_or_equiv
_atom_site_thermal_displace_type
Zn1 Zn 0.2500 -0.2500 1.01900(5) 0.0209 Uani
S1 S 0.16309(8) -0.13374(9) 1.18859(9) 0.0231 Uani
O1 O 0.2214(2) -0.1210(3) 1.0965(2) 0.0283 Uani
O2 O 0.2239(3) -0.0956(4) 1.2665(3) 0.0515 Uani
O3 O 0.0917(3) -0.0427(3) 1.1738(3) 0.0467 Uani
S1M S 0.33691(8) -0.36626(9) 1.18859(9) 0.0231 Uani
O1M O 0.2786(2) -0.3790(3) 1.0965(2) 0.0283 Uani
O2M O 0.2761(3) -0.4044(4) 1.2665(3) 0.0515 Uani
O3M O 0.4083(3) -0.4573(3) 1.1738(3) 0.0467 Uani
Zn1B Zn 0.0000 -0.0000 1.26900(5) 0.0209 Uani
Zn1C Zn 0.5000 -0.5000 1.26900(5) 0.0209 Uani
O3F O 0.1583(3) -0.2927(3) 0.9238(3) 0.0467 Uani
O3G O 0.3417(3) -0.2073(3) 0.9238(3) 0.0467 Uani
N1 N 0.4517(4) 0.1929(4) 1.2073(4) 0.0570 Uani
H1 H 0.4541 0.2423 1.2511 0.0690 Uiso
H2 H 0.4937 0.1910 1.1639 0.0690 Uiso
C1 C 0.3837(4) 0.1202(5) 1.2066(4) 0.0397 Uani
N2 N 0.3805(4) 0.0460(4) 1.1377(4) 0.0557 Uani
H3 H 0.3361 -0.0012 1.1359 0.0660 Uiso
H4 H 0.4230 0.0450 1.0948 0.0660 Uiso
N3 N 0.3199(4) 0.1227(4) 1.2720(4) 0.0677 Uani
H5 H 0.3220 0.1719 1.3160 0.0810 Uiso
H6 H 0.2757 0.0751 1.2713 0.0810 Uiso
loop_
_atom_site_aniso_label
_atom_site_aniso_U_11
_atom_site_aniso_U_22
_atom_site_aniso_U_33
_atom_site_aniso_U_23
_atom_site_aniso_U_13
_atom_site_aniso_U_12
Zn1 0.0210(4) 0.0242(4) 0.0176(3) 0.000 0.000 0.0008(4)
S1 0.0248(6) 0.0246(6) 0.0199(5) 0.0022(5) 0.0039(5) 0.0011(5)
O1 0.034(2) 0.0243(18) 0.0267(16) -0.0004(14) 0.0159(14) 0.0056(14)
O2 0.048(2) 0.076(3) 0.0306(19) -0.003(2) -0.009(2) -0.001(2)
O3 0.040(2) 0.064(3) 0.036(2) 0.023(2) 0.0166(18) 0.033(2)
S1M 0.0248 0.0246 0.0199 -0.0022 -0.0039 0.0011
O1M 0.034 0.0243 0.0267 0.0004 -0.0159 0.0056
O2M 0.048 0.076 0.0306 0.003 0.009 -0.001
O3M 0.04 0.064 0.036 -0.023 -0.0166 0.033
Zn1B 0.021 0.0242 0.0176 0 0 -0.0008
Zn1C 0.021 0.0242 0.0176 0 0 -0.0008
O3F 0.04 0.064 0.036 0.023 -0.0166 -0.033
O3G 0.04 0.064 0.036 -0.023 0.0166 -0.033
N1 0.075(4) 0.053(4) 0.043(3) -0.019(3) 0.019(3) -0.029(3)
C1 0.049(3) 0.040(3) 0.030(3) -0.013(2) 0.009(2) -0.013(3)
N2 0.052(3) 0.060(4) 0.055(3) -0.036(3) 0.023(2) -0.022(3)
N3 0.080(4) 0.069(4) 0.054(3) -0.030(3) 0.037(3) -0.027(3)
loop_
_geom_bond_atom_site_label_1
_geom_bond_atom_site_label_2
_geom_bond_site_symmetry_1
_geom_bond_site_symmetry_2
Zn1 O1 1_555 1_555
S1 O1 1_555 1_555
O2 S1 1_555 1_555
O3 S1 1_555 1_555
N1 H1 1_555 1_555
H2 N1 1_555 1_555
C1 N1 1_555 1_555
N2 C1 1_555 1_555
H3 N2 1_555 1_555
H4 N2 1_555 1_555
N3 C1 1_555 1_555
H5 N3 1_555 1_555
H6 N3 1_555 1_555
S1M O1M 1_555 1_555
O1M Zn1 1_555 1_555
O2M S1M 1_555 1_555
O3M S1M 1_555 1_555
Zn1B O3 1_555 1_555
Zn1C O3M 1_555 1_555
O3F Zn1 1_555 1_555
O3G Zn1 1_555 1_555

#END
