
#######################################################################
#
#                 Cambridge Crystallographic Data Centre
#                                CCDC 
#
#######################################################################
#
# If this CIF has been generated from an entry in the Cambridge 
# Structural Database, then it will include bibliographic, chemical, 
# crystal, experimental, refinement or atomic coordinate data resulting 
# from the CCDC's data processing and validation procedures.
#
#######################################################################

data_IVIXIW
_chemical_formula_moiety         '(C26 H22 Ag2 N4 O6)n'
_symmetry_cell_setting           triclinic
_symmetry_space_group_name_H-M   'P -1'
_symmetry_Int_Tables_number      2
_space_group_name_Hall           '-P 1'
loop_
_symmetry_equiv_pos_site_id
_symmetry_equiv_pos_as_xyz
1 x,y,z
2 -x,-y,-z
_cell_length_a                   3.8083(18)
_cell_length_b                   12.476(6)
_cell_length_c                   13.090(6)
_cell_angle_alpha                76.757(5)
_cell_angle_beta                 84.649(5)
_cell_angle_gamma                86.809(5)
_cell_volume                     602.382
loop_
_atom_site_label
_atom_site_type_symbol
_atom_site_fract_x
_atom_site_fract_y
_atom_site_fract_z
Ag1 Ag 0.16161(8) 0.91878(2) 0.59541(2)
O1 O 0.3979(7) 0.9512(2) 0.4133(2)
O2 O 0.3348(8) 0.7718(2) 0.4707(2)
N1 N 0.9267(8) 1.0076(3) 0.0425(2)
N2 N -0.1150(8) 0.7875(2) 0.7178(2)
C1 C 0.6371(9) 0.8351(3) 0.3018(3)
C2 C 0.6979(9) 0.9243(3) 0.2167(3)
H1 H 0.6155 0.9945 0.2223
C3 C 0.8801(9) 0.9094(3) 0.1239(3)
C4 C 1.0095(10) 0.8046(3) 0.1156(3)
H2 H 1.1363 0.7944 0.0541
C5 C 0.9479(11) 0.7171(3) 0.1987(3)
H3 H 1.0315 0.6470 0.1929
C6 C 0.7615(10) 0.7309(3) 0.2922(3)
H4 H 0.7208 0.6704 0.3479
C7 C 0.4432(9) 0.8519(3) 0.4025(3)
C8 C -0.1447(10) 0.7866(3) 0.8214(3)
H5 H -0.0752 0.8482 0.8420
C9 C -0.2713(10) 0.7003(3) 0.8979(3)
H6 H -0.2882 0.7045 0.9683
C10 C -0.3749(9) 0.6059(3) 0.8703(3)
C11 C -0.3513(10) 0.6075(3) 0.7634(3)
H7 H -0.4238 0.5477 0.7405
C12 C -0.2191(10) 0.6986(3) 0.6910(3)
H8 H -0.2026 0.6973 0.6200
C13 C -0.5034(9) 0.5087(3) 0.9484(3)
H9 H -0.5988 0.4542 0.9226
O1A O 1.6021(7) 1.0488(2) -0.4133(2)
O2A O 1.6652(8) 1.2282(2) -0.4707(2)
N1A N 1.0733(8) 0.9924(3) -0.0425(2)
C1A C 1.3629(9) 1.1649(3) -0.3018(3)
C2A C 1.3021(9) 1.0757(3) -0.2167(3)
H1A H 1.3845 1.0055 -0.2223
C3A C 1.1199(9) 1.0906(3) -0.1239(3)
C4A C 0.9905(10) 1.1954(3) -0.1156(3)
H2A H 0.8637 1.2056 -0.0541
C5A C 1.0521(11) 1.2829(3) -0.1987(3)
H3A H 0.9685 1.3530 -0.1929
C6A C 1.2385(10) 1.2691(3) -0.2922(3)
H4A H 1.2792 1.3296 -0.3479
C7A C 1.5568(9) 1.1481(3) -0.4025(3)
N2A N -0.8850(8) 0.2125(2) 1.2822(2)
C8A C -0.8553(10) 0.2134(3) 1.1786(3)
H5A H -0.9248 0.1518 1.1580
C9A C -0.7287(10) 0.2997(3) 1.1021(3)
H6A H -0.7118 0.2955 1.0317
C10A C -0.6251(9) 0.3941(3) 1.1297(3)
C11A C -0.6487(10) 0.3925(3) 1.2366(3)
H7A H -0.5762 0.4523 1.2595
C12A C -0.7809(10) 0.3014(3) 1.3090(3)
H8A H -0.7974 0.3027 1.3800
C13A C -0.4966(9) 0.4913(3) 1.0516(3)
H9A H -0.4012 0.5458 1.0774
Ag1A Ag -1.16161(8) 0.08122(2) 1.40459(2)
Ag1_2 Ag 1.16161(8) 0.91878(2) -0.40459(2)
Ag1_3 Ag 2.16161(8) 0.91878(2) -0.40459(2)
Ag1A_2 Ag -0.16161(8) 1.08122(2) 0.40459(2)
Ag1A_3 Ag 0.83839(8) 1.08122(2) 0.40459(2)
Ag1A_4 Ag 1.83839(8) 1.08122(2) -0.59541(2)
O1_2 O -1.6021(7) -0.0488(2) 1.4133(2)
O1_3 O -0.6021(7) -0.0488(2) 1.4133(2)
O1A_2 O -1.3979(7) 0.0488(2) 1.5867(2)
O1A_3 O -0.3979(7) 1.0488(2) 0.5867(2)
O1A_4 O 0.6021(7) 1.0488(2) 0.5867(2)
O3 O 0.249(2) 0.5489(5) 0.5324(6)
H10 H 0.2528 0.6169 0.5330
H11 H 0.0932 0.5167 0.5089
O3A O -0.249(2) 0.4511(5) 0.4676(6)
H10A H -0.2528 0.3831 0.4670
H11A H -0.0932 0.4833 0.4911
loop_
_geom_bond_atom_site_label_1
_geom_bond_atom_site_label_2
_geom_bond_site_symmetry_1
_geom_bond_site_symmetry_2
Ag1 O1 1_555 1_555
O1 C7 1_555 1_555
O2 C7 1_555 1_555
N1 C3 1_555 1_555
N2 Ag1 1_555 1_555
C1 C2 1_555 1_555
C2 H1 1_555 1_555
C3 C2 1_555 1_555
C4 C3 1_555 1_555
H2 C4 1_555 1_555
C5 C4 1_555 1_555
H3 C5 1_555 1_555
C6 C1 1_555 1_555
H4 C6 1_555 1_555
C7 C1 1_555 1_555
C8 N2 1_555 1_555
H5 C8 1_555 1_555
C9 C8 1_555 1_555
H6 C9 1_555 1_555
C10 C9 1_555 1_555
C11 C10 1_555 1_555
H7 C11 1_555 1_555
C12 N2 1_555 1_555
H8 C12 1_555 1_555
C13 C10 1_555 1_555
H9 C13 1_555 1_555
O3 H10 1_555 1_555
H11 O3 1_555 1_555
O1A C7A 1_555 1_555
O2A C7A 1_555 1_555
N1A N1 1_555 1_555
C1A C2A 1_555 1_555
C2A H1A 1_555 1_555
C3A N1A 1_555 1_555
C4A C3A 1_555 1_555
H2A C4A 1_555 1_555
C5A C4A 1_555 1_555
H3A C5A 1_555 1_555
C6A C1A 1_555 1_555
H4A C6A 1_555 1_555
C7A C1A 1_555 1_555
N2A C8A 1_555 1_555
C8A H5A 1_555 1_555
C9A C8A 1_555 1_555
H6A C9A 1_555 1_555
C10A C9A 1_555 1_555
C11A C10A 1_555 1_555
H7A C11A 1_555 1_555
C12A N2A 1_555 1_555
H8A C12A 1_555 1_555
C13A C13 1_555 1_555
H9A C13A 1_555 1_555
Ag1A N2A 1_555 1_555
Ag1_2 O1A 1_555 1_555
Ag1_3 O1A 1_555 1_555
Ag1A_2 O1 1_555 1_555
Ag1A_3 O1 1_555 1_555
Ag1A_4 O1A 1_555 1_555
O1_2 Ag1A 1_555 1_555
O1_3 Ag1A 1_555 1_555
O1A_2 Ag1A 1_555 1_555
O1A_3 Ag1 1_555 1_555
O1A_4 Ag1 1_555 1_555
O3A H10A 1_555 1_555
H11A O3A 1_555 1_555
C5 C6 1_555 1_555
C11 C12 1_555 1_555
C2A C3A 1_555 1_555
C5A C6A 1_555 1_555
C10A C13A 1_555 1_555
C11A C12A 1_555 1_555
Ag1A_2 O1A_3 1_555 1_555
Ag1A_3 O1A_4 1_555 1_555

#END
