
#######################################################################
#
#                 Cambridge Crystallographic Data Centre
#                                CCDC 
#
#######################################################################
#
# If this CIF has been generated from an entry in the Cambridge 
# Structural Database, then it will include bibliographic, chemical, 
# crystal, experimental, refinement or atomic coordinate data resulting 
# from the CCDC's data processing and validation procedures.
#
#######################################################################

data_IQIJIC
_chemical_formula_moiety         '(C84 H68 Co3 N6 O20)n'
_symmetry_cell_setting           monoclinic
_symmetry_space_group_name_H-M   'C 2/c'
_symmetry_Int_Tables_number      15
_space_group_name_Hall           '-C 2yc'
loop_
_symmetry_equiv_pos_site_id
_symmetry_equiv_pos_as_xyz
1 x,y,z
2 -x,y,1/2-z
3 1/2+x,1/2+y,z
4 1/2-x,1/2+y,1/2-z
5 -x,-y,-z
6 x,-y,1/2+z
7 1/2-x,1/2-y,-z
8 1/2+x,1/2-y,1/2+z
_cell_length_a                   16.713(3)
_cell_length_b                   21.571(3)
_cell_length_c                   26.609(4)
_cell_angle_alpha                90
_cell_angle_beta                 105.280(2)
_cell_angle_gamma                90
_cell_volume                     9253.86
loop_
_atom_site_label
_atom_site_type_symbol
_atom_site_fract_x
_atom_site_fract_y
_atom_site_fract_z
N1 N -0.3605(2) 0.05775(17) 0.44554(17)
C1 C -0.2835(3) 0.0551(3) 0.4746(3)
C2 C -0.2272(4) 0.1033(3) 0.4800(3)
C3 C -0.3829(3) 0.1108(3) 0.4222(2)
C4 C -0.3298(3) 0.1615(2) 0.4261(3)
C5 C -0.2496(3) 0.1581(2) 0.4549(2)
C6 C 0.1066(3) 0.4616(2) 0.5639(2)
C7 C 0.1844(3) 0.4523(2) 0.60720(18)
C8 C 0.2601(3) 0.4504(3) 0.5969(2)
H1 H 0.2638 0.4526 0.5627
C9 C 0.3315(3) 0.4453(3) 0.6374(2)
H2 H 0.3829 0.4429 0.6302
C10 C 0.3266(4) 0.4438(4) 0.6870(3)
C11 C 0.2511(4) 0.4456(4) 0.6979(3)
H3 H 0.2475 0.4443 0.7322
C12 C 0.1803(4) 0.4495(3) 0.6572(2)
H4 H 0.1287 0.4503 0.6643
C13 C 0.4706(4) 0.4342(4) 0.7235(3)
H5 H 0.4848 0.4313 0.6921
C14 C -0.0098(3) 0.3589(2) 0.4758(2)
H6 H 0.0383 0.3604 0.5030
C15 C -0.0638(3) 0.3110(2) 0.4743(2)
H7 H -0.0514 0.2807 0.5000
C16 C -0.1367(3) 0.3070(2) 0.4350(2)
C17 C -0.1984(3) 0.2574(2) 0.4314(2)
H8 H -0.2485 0.2622 0.4062
C18 C -0.1499(3) 0.3533(2) 0.3974(2)
H9 H -0.1975 0.3532 0.3699
C19 C -0.0918(3) 0.3990(2) 0.40148(19)
H10 H -0.1011 0.4290 0.3755
H11 H -0.4374 0.1149 0.4020
H12 H -0.3497 0.1983 0.4085
C20 C -0.1900(3) 0.2083(3) 0.4594(2)
H13 H -0.1406 0.2044 0.4854
H14 H -0.1733 0.0982 0.5009
H15 H -0.2658 0.0184 0.4929
C21 C 0.1185(3) 0.4320(2) 0.3743(2)
C22 C 0.1616(3) 0.4072(2) 0.33733(19)
C23 C 0.2422(3) 0.3844(3) 0.3536(2)
H16 H 0.2673 0.3812 0.3892
C24 C 0.2851(4) 0.3669(4) 0.3196(2)
H17 H 0.3394 0.3529 0.3316
C25 C 0.2483(4) 0.3697(4) 0.2671(2)
C26 C 0.1672(4) 0.3884(4) 0.2499(2)
H18 H 0.1402 0.3874 0.2146
C27 C 0.1272(3) 0.4080(3) 0.2845(2)
H19 H 0.0734 0.4230 0.2721
C28 C 0.4558(4) 0.3266(4) 0.1354(3)
C29 C 0.4952(3) 0.2700(3) 0.1322(2)
H20 H 0.4900 0.2364 0.1530
C30 C 0.5426(3) 0.2663(3) 0.0962(2)
H21 H 0.5699 0.2295 0.0932
C31 C 0.5497(3) 0.3162(3) 0.0651(2)
C32 C 0.5077(4) 0.3694(3) 0.0692(2)
H22 H 0.5108 0.4027 0.0476
C33 C 0.4609(4) 0.3750(4) 0.1045(3)
H23 H 0.4331 0.4117 0.1069
C34 C 0.6062(3) 0.3138(3) 0.0294(2)
C35 C 0.9026(3) 0.2622(3) 0.0949(2)
H24 H 0.9277 0.2755 0.0695
C36 C 0.7906(3) 0.2237(3) 0.11822(19)
H25 H 0.7354 0.2110 0.1092
C37 C 0.8336(3) 0.2220(3) 0.1698(2)
H26 H 0.8082 0.2066 0.1944
C38 C 0.9143(3) 0.2428(2) 0.1853(2)
C39 C 0.9477(3) 0.2633(3) 0.1464(2)
H27 H 1.0018 0.2782 0.1550
C40 C 0.9603(3) 0.2431(2) 0.2407(2)
H28 H 0.9287 0.2434 0.2647
Co1 Co 0.05842(3) 0.48074(3) 0.44305(2)
Co2 Co 0.7500 0.2500 0.0000
N2 N -0.0233(2) 0.40349(16) 0.43996(14)
N3 N 0.8233(2) 0.24264(18) 0.08038(15)
O1 O 0.11592(18) 0.46904(15) 0.51926(13)
O2 O 0.03854(18) 0.46181(14) 0.57544(12)
O3 O 0.3937(3) 0.4391(3) 0.72936(18)
O4 O 0.14753(19) 0.42159(14) 0.42242(13)
O5 O 0.0543(2) 0.46367(17) 0.35851(14)
O6 O 0.4120(3) 0.3297(3) 0.1728(2)
O7 O 0.2874(3) 0.3539(4) 0.22907(17)
C41 C 0.3975(7) 0.3865(7) 0.1900(5)
H29 H 0.3542 0.4070 0.1637
H30 H 0.4474 0.4115 0.1959
C42 C 0.3720(7) 0.3813(7) 0.2388(4)
H31 H 0.3723 0.4221 0.2542
H32 H 0.4113 0.3554 0.2633
O8 O 0.6138(2) 0.3611(2) 0.00541(18)
O9 O 0.6436(2) 0.26283(17) 0.02777(13)
O10 O 0.73208(19) 0.15466(15) 0.00128(12)
N1A N 1.3605(2) 0.05775(17) 1.05446(17)
N1B N 0.1395(2) 0.55775(17) 0.44554(17)
N1C N 0.8605(2) 0.55775(17) 1.05446(17)
C1A C 1.2835(3) 0.0551(3) 1.0254(3)
C2A C 1.2272(4) 0.1033(3) 1.0200(3)
C3A C 1.3829(3) 0.1108(3) 1.0778(2)
C4A C 1.3298(3) 0.1615(2) 1.0739(3)
C5A C 1.2496(3) 0.1581(2) 1.0451(2)
C6A C 0.8934(3) 0.4616(2) 0.9361(2)
C7A C 0.8156(3) 0.4523(2) 0.89280(18)
C8A C 0.7399(3) 0.4504(3) 0.9031(2)
H1A H 0.7362 0.4526 0.9373
C9A C 0.6685(3) 0.4453(3) 0.8626(2)
H2A H 0.6171 0.4429 0.8698
C10A C 0.6734(4) 0.4438(4) 0.8130(3)
C11A C 0.7489(4) 0.4456(4) 0.8021(3)
H3A H 0.7525 0.4443 0.7678
C12A C 0.8197(4) 0.4495(3) 0.8428(2)
H4A H 0.8713 0.4503 0.8357
C13A C 0.5294(4) 0.4342(4) 0.7765(3)
H5A H 0.5152 0.4313 0.8079
C14A C 1.0098(3) 0.3589(2) 1.0242(2)
H6A H 0.9617 0.3604 0.9970
C15A C 1.0638(3) 0.3110(2) 1.0257(2)
H7A H 1.0514 0.2807 1.0000
C16A C 1.1367(3) 0.3070(2) 1.0650(2)
C17A C 1.1984(3) 0.2574(2) 1.0686(2)
H8A H 1.2485 0.2622 1.0938
C18A C 1.1499(3) 0.3533(2) 1.1026(2)
H9A H 1.1975 0.3532 1.1301
C19A C 1.0918(3) 0.3990(2) 1.09852(19)
H10A H 1.1011 0.4290 1.1245
H11A H 1.4374 0.1149 1.0980
H12A H 1.3497 0.1983 1.0915
C20A C 1.1900(3) 0.2083(3) 1.0406(2)
H13A H 1.1406 0.2044 1.0146
H14A H 1.1733 0.0982 0.9991
H15A H 1.2658 0.0184 1.0071
C21A C 0.8815(3) 0.4320(2) 1.1257(2)
C22A C 0.8384(3) 0.4072(2) 1.16267(19)
C23A C 0.7578(3) 0.3844(3) 1.1464(2)
H16A H 0.7327 0.3812 1.1108
C24A C 0.7149(4) 0.3669(4) 1.1804(2)
H17A H 0.6606 0.3529 1.1684
C25A C 0.7517(4) 0.3697(4) 1.2329(2)
C26A C 0.8328(4) 0.3884(4) 1.2501(2)
H18A H 0.8598 0.3874 1.2854
C27A C 0.8728(3) 0.4080(3) 1.2155(2)
H19A H 0.9266 0.4230 1.2279
C28A C 0.5442(4) 0.3266(4) 1.3646(3)
C29A C 0.5048(3) 0.2700(3) 1.3678(2)
H20A H 0.5100 0.2364 1.3470
C30A C 0.4574(3) 0.2663(3) 1.4038(2)
H21A H 0.4301 0.2295 1.4068
C31A C 0.4503(3) 0.3162(3) 1.4349(2)
C32A C 0.4923(4) 0.3694(3) 1.4308(2)
H22A H 0.4892 0.4027 1.4524
C33A C 0.5391(4) 0.3750(4) 1.3955(3)
H23A H 0.5669 0.4117 1.3931
C34A C 0.3938(3) 0.3138(3) 1.4706(2)
C35A C 1.0974(3) 0.2622(3) 0.4051(2)
H24A H 1.0723 0.2755 0.4305
C36A C 1.2094(3) 0.2237(3) 0.38178(19)
H25A H 1.2646 0.2110 0.3908
C37A C 1.1664(3) 0.2220(3) 0.3302(2)
H26A H 1.1918 0.2066 0.3056
C38A C 1.0857(3) 0.2428(2) 0.3147(2)
C39A C 1.0523(3) 0.2633(3) 0.3536(2)
H27A H 0.9982 0.2782 0.3450
C40A C 1.0397(3) 0.2431(2) 0.2593(2)
H28A H 1.0713 0.2434 0.2353
Co1A Co 0.94158(3) 0.48074(3) 1.05695(2)
Co1B Co -0.44158(3) -0.01926(3) 0.44305(2)
Co1C Co 1.44158(3) -0.01926(3) 1.05695(2)
Co1D Co -0.05842(3) 0.51926(3) 0.55695(2)
Co1E Co 1.05842(3) 0.51926(3) 0.94305(2)
Co2A Co 1.2500 0.2500 0.5000
Co2A_2 Co 0.2500 0.2500 1.5000
N2A N 1.0233(2) 0.40349(16) 1.06004(14)
N3A N 1.1767(2) 0.24264(18) 0.41962(15)
N3F N 0.6767(2) 0.25736(18) -0.08038(15)
O1A O 0.88408(18) 0.46904(15) 0.98074(13)
O2A O 0.96146(18) 0.46181(14) 0.92456(12)
O2D O -0.03854(18) 0.53819(14) 0.42456(12)
O2E O 1.03854(18) 0.53819(14) 1.07544(12)
O3A O 0.6063(3) 0.4391(3) 0.77064(18)
O4A O 0.85247(19) 0.42159(14) 1.07758(13)
O5A O 0.9457(2) 0.46367(17) 1.14149(14)
O6A O 0.5880(3) 0.3297(3) 1.3272(2)
O7A O 0.7126(3) 0.3539(4) 1.27093(17)
C41A C 0.6025(7) 0.3865(7) 1.3100(5)
H29A H 0.6458 0.4070 1.3363
H30A H 0.5526 0.4115 1.3041
C42A C 0.6280(7) 0.3813(7) 1.2612(4)
H31A H 0.6277 0.4221 1.2458
H32A H 0.5887 0.3554 1.2367
O8A O 0.3862(2) 0.3611(2) 1.49459(18)
O9A O 0.3564(2) 0.26283(17) 1.47223(13)
O9F O 0.8564(2) 0.23717(17) -0.02777(13)
O10F O 0.76792(19) 0.34534(15) -0.00128(12)
loop_
_geom_bond_atom_site_label_1
_geom_bond_atom_site_label_2
_geom_bond_site_symmetry_1
_geom_bond_site_symmetry_2
N1 C1 1_555 1_555
C1 C2 1_555 1_555
C2 C5 1_555 1_555
C3 N1 1_555 1_555
C4 C3 1_555 1_555
C5 C4 1_555 1_555
C6 C7 1_555 1_555
C7 C8 1_555 1_555
C8 H1 1_555 1_555
C9 C8 1_555 1_555
H2 C9 1_555 1_555
C10 C9 1_555 1_555
C11 C10 1_555 1_555
H3 C11 1_555 1_555
C12 C7 1_555 1_555
H4 C12 1_555 1_555
C13 H5 1_555 1_555
C14 H6 1_555 1_555
C15 C14 1_555 1_555
H7 C15 1_555 1_555
C16 C15 1_555 1_555
C17 C16 1_555 1_555
H8 C17 1_555 1_555
C18 C16 1_555 1_555
H9 C18 1_555 1_555
C19 C18 1_555 1_555
H10 C19 1_555 1_555
H11 C3 1_555 1_555
H12 C4 1_555 1_555
C20 C5 1_555 1_555
H13 C20 1_555 1_555
H14 C2 1_555 1_555
H15 C1 1_555 1_555
C21 C22 1_555 1_555
C22 C23 1_555 1_555
C23 H16 1_555 1_555
C24 C23 1_555 1_555
H17 C24 1_555 1_555
C25 C24 1_555 1_555
C26 C25 1_555 1_555
H18 C26 1_555 1_555
C27 C22 1_555 1_555
H19 C27 1_555 1_555
C28 C29 1_555 1_555
C29 H20 1_555 1_555
C30 C29 1_555 1_555
H21 C30 1_555 1_555
C31 C30 1_555 1_555
C32 C31 1_555 1_555
H22 C32 1_555 1_555
C33 C28 1_555 1_555
H23 C33 1_555 1_555
C34 C31 1_555 1_555
C35 H24 1_555 1_555
C36 H25 1_555 1_555
C37 C36 1_555 1_555
H26 C37 1_555 1_555
C38 C37 1_555 1_555
C39 C35 1_555 1_555
H27 C39 1_555 1_555
C40 C38 1_555 1_555
H28 C40 1_555 1_555
Co1 N2 1_555 1_555
Co2 N3 1_555 1_555
N2 C14 1_555 1_555
N3 C35 1_555 1_555
O1 C6 1_555 1_555
O2 C6 1_555 1_555
O3 C10 1_555 1_555
O4 C21 1_555 1_555
O5 C21 1_555 1_555
O6 C28 1_555 1_555
O7 C25 1_555 1_555
C41 O6 1_555 1_555
H29 C41 1_555 1_555
H30 C41 1_555 1_555
C42 O7 1_555 1_555
H31 C42 1_555 1_555
H32 C42 1_555 1_555
O8 C34 1_555 1_555
O9 C34 1_555 1_555
O10 Co2 1_555 1_555
N1A C1A 1_555 1_555
N1B Co1 1_555 1_555
N1C Co1A 1_555 1_555
C1A C2A 1_555 1_555
C2A C5A 1_555 1_555
C3A N1A 1_555 1_555
C4A C3A 1_555 1_555
C5A C4A 1_555 1_555
C6A C7A 1_555 1_555
C7A C8A 1_555 1_555
C8A H1A 1_555 1_555
C9A C8A 1_555 1_555
H2A C9A 1_555 1_555
C10A C9A 1_555 1_555
C11A C10A 1_555 1_555
H3A C11A 1_555 1_555
C12A C7A 1_555 1_555
H4A C12A 1_555 1_555
C13A C13 1_555 1_555
H5A C13A 1_555 1_555
C14A H6A 1_555 1_555
C15A C14A 1_555 1_555
H7A C15A 1_555 1_555
C16A C15A 1_555 1_555
C17A C16A 1_555 1_555
H8A C17A 1_555 1_555
C18A C16A 1_555 1_555
H9A C18A 1_555 1_555
C19A C18A 1_555 1_555
H10A C19A 1_555 1_555
H11A C3A 1_555 1_555
H12A C4A 1_555 1_555
C20A C5A 1_555 1_555
H13A C20A 1_555 1_555
H14A C2A 1_555 1_555
H15A C1A 1_555 1_555
C21A C22A 1_555 1_555
C22A C23A 1_555 1_555
C23A H16A 1_555 1_555
C24A C23A 1_555 1_555
H17A C24A 1_555 1_555
C25A C24A 1_555 1_555
C26A C25A 1_555 1_555
H18A C26A 1_555 1_555
C27A C22A 1_555 1_555
H19A C27A 1_555 1_555
C28A C29A 1_555 1_555
C29A H20A 1_555 1_555
C30A C29A 1_555 1_555
H21A C30A 1_555 1_555
C31A C30A 1_555 1_555
C32A C31A 1_555 1_555
H22A C32A 1_555 1_555
C33A C28A 1_555 1_555
H23A C33A 1_555 1_555
C34A C31A 1_555 1_555
C35A H24A 1_555 1_555
C36A H25A 1_555 1_555
C37A C36A 1_555 1_555
H26A C37A 1_555 1_555
C38A C37A 1_555 1_555
C39A C35A 1_555 1_555
H27A C39A 1_555 1_555
C40A C40 1_555 1_555
H28A C40A 1_555 1_555
Co1A N2A 1_555 1_555
Co1B N1 1_555 1_555
Co1C N1A 1_555 1_555
Co1D O2 1_555 1_555
Co1E O2A 1_555 1_555
Co2A N3A 1_555 1_555
Co2A_2 O9A 1_555 1_555
N2A C14A 1_555 1_555
N3A C35A 1_555 1_555
N3F Co2 1_555 1_555
O1A C6A 1_555 1_555
O2A C6A 1_555 1_555
O2D Co1 1_555 1_555
O2E Co1A 1_555 1_555
O3A C10A 1_555 1_555
O4A C21A 1_555 1_555
O5A C21A 1_555 1_555
O6A C28A 1_555 1_555
O7A C25A 1_555 1_555
C41A O6A 1_555 1_555
H29A C41A 1_555 1_555
H30A C41A 1_555 1_555
C42A O7A 1_555 1_555
H31A C42A 1_555 1_555
H32A C42A 1_555 1_555
O8A C34A 1_555 1_555
O9A C34A 1_555 1_555
O9F Co2 1_555 1_555
O10F Co2 1_555 1_555
C11 C12 1_555 1_555
C13 O3 1_555 1_555
C17 C20 1_555 1_555
C19 N2 1_555 1_555
C26 C27 1_555 1_555
C32 C33 1_555 1_555
C36 N3 1_555 1_555
C38 C39 1_555 1_555
Co1 O1 1_555 1_555
Co1 O4 1_555 1_555
Co1 O5 1_555 1_555
Co2 O9 1_555 1_555
C41 C42 1_555 1_555
C11A C12A 1_555 1_555
C13A O3A 1_555 1_555
C17A C20A 1_555 1_555
C19A N2A 1_555 1_555
C26A C27A 1_555 1_555
C32A C33A 1_555 1_555
C36A N3A 1_555 1_555
C38A C39A 1_555 1_555
C38A C40A 1_555 1_555
Co1A O1A 1_555 1_555
Co1A O4A 1_555 1_555
Co1A O5A 1_555 1_555
C41A C42A 1_555 1_555

#END
