
#######################################################################
#
#                 Cambridge Crystallographic Data Centre
#                                CCDC 
#
#######################################################################
#
# If this CIF has been generated from an entry in the Cambridge 
# Structural Database, then it will include bibliographic, chemical, 
# crystal, experimental, refinement or atomic coordinate data resulting 
# from the CCDC's data processing and validation procedures.
#
#######################################################################

data_FIJZEE
_chemical_formula_moiety         '(C8 Al6 F1 N6 Ni2 O24 P6 1-)n'
_symmetry_cell_setting           orthorhombic
_symmetry_space_group_name_H-M   'C c c 2'
_symmetry_Int_Tables_number      37
_space_group_name_Hall           'C 2 -2c'
loop_
_symmetry_equiv_pos_site_id
_symmetry_equiv_pos_as_xyz
1 x,y,z
2 -x,-y,z
3 -x,y,1/2+z
4 x,-y,1/2+z
5 1/2+x,1/2+y,z
6 1/2-x,1/2-y,z
7 1/2-x,1/2+y,1/2+z
8 1/2+x,1/2-y,1/2+z
_cell_length_a                   13.8603(5)
_cell_length_b                   23.1285(5)
_cell_length_c                   8.5420(4)
_cell_angle_alpha                90
_cell_angle_beta                 90
_cell_angle_gamma                90
_cell_volume                     2738.29
loop_
_atom_site_label
_atom_site_type_symbol
_atom_site_fract_x
_atom_site_fract_y
_atom_site_fract_z
Ni1 Ni 0.5000 0.0000 0.7557(7)
N1 N 0.5130(40) -0.0736(17) 0.9597(60)
N2 N 0.4321(30) -0.0587(13) 1.0472(40)
C1 C 0.5933(30) -0.0495(14) 1.0487(40)
C2 C 0.3613(20) -0.0012(17) 1.0986(70)
Ni1B Ni 0.5000 0.0000 1.2557(7)
N1A N 0.4870(40) 0.0736(17) 0.9597(60)
N2A N 0.5679(30) 0.0587(13) 1.0472(40)
N2B N 0.5679(30) -0.0587(13) 0.5472(40)
N2C N 0.4321(30) 0.0587(13) 0.5472(40)
C1A C 0.4067(30) 0.0495(14) 1.0487(40)
C1B C 0.4067(30) -0.0495(14) 0.5487(40)
C1C C 0.5933(30) 0.0495(14) 0.5487(40)
C2A C 0.6387(20) 0.0012(17) 1.0986(70)
C2B C 0.6387(20) -0.0012(17) 0.5986(70)
C2C C 0.3613(20) 0.0012(17) 0.5986(70)
P1 P 0.2110(4) 0.1596(2) 0.3053(5)
P2 P 0.1064(3) 0.0660(1) -0.2107(4)
P3 P 0.3998(4) 0.2241(2) 0.8248(5)
Al1 Al 0.1009(4) 0.0594(2) 0.1580(4)
Al2 Al 0.2156(5) 0.1777(2) 0.6693(7)
Al3 Al 0.1066(4) 0.2723(3) 0.1944(5)
O1 O 0.1899(9) 0.1032(5) 0.2234(16)
O2 O 0.2050(7) 0.1513(3) 0.4824(15)
O3 O 0.1401(9) 0.2049(5) 0.2493(19)
O4 O 0.3136(12) 0.1761(5) 0.2665(19)
O5 O 0.0962(9) 0.0580(5) -0.0382(13)
O6 O 0.0105(11) 0.0829(4) -0.2675(19)
O7 O 0.1842(8) 0.1087(5) -0.2461(17)
O8 O 0.1350(8) 0.0072(6) -0.2746(20)
O9 O 0.3305(9) 0.1788(4) 0.7678(13)
O10 O 0.3784(8) 0.2836(5) 0.7642(18)
O11 O 0.4977(10) 0.2066(4) 0.7765(20)
O12 O 0.3959(9) 0.2239(6) 0.9958(18)
F1 F 0.2500 0.2500 0.5805(12)
P1E P 0.2890(4) 0.3404(2) 0.3053(5)
P2B P -0.1064(3) 0.0660(1) 0.2893(4)
P3E P 0.1002(4) 0.2759(2) 0.8248(5)
Al1B Al -0.1009(4) 0.0594(2) 0.6580(4)
Al1B_2 Al -0.1009(4) 0.0594(2) -0.3420(4)
Al1C Al 0.1009(4) -0.0594(2) -0.3420(4)
Al1A Al -0.1009(4) -0.0594(2) 0.1580(4)
Al1E Al 0.3991(4) 0.4406(2) 0.1580(4)
Al2_2 Al 0.2156(5) 0.1777(2) -0.3307(7)
Al2E Al 0.2844(5) 0.3223(2) 0.6693(7)
Al2B Al -0.2156(5) 0.1777(2) 0.1693(7)
Al3E Al 0.3934(4) 0.2277(3) 0.1944(5)
Al3G Al 0.6066(4) 0.2277(3) 0.6944(5)
Al3E_2 Al 0.3934(4) 0.2277(3) 1.1944(5)
Al3B Al -0.1066(4) 0.2723(3) 0.6944(5)
Al3_2 Al 0.1066(4) 0.2723(3) 1.1944(5)
O1E O 0.3101(9) 0.3968(5) 0.2234(16)
O1B O -0.1899(9) 0.1032(5) 0.7234(16)
O2E O 0.2950(7) 0.3487(3) 0.4824(15)
O2_2 O 0.2050(7) 0.1513(3) -0.5176(15)
O3E O 0.3599(9) 0.2951(5) 0.2493(19)
O4E O 0.1864(12) 0.3239(5) 0.2665(19)
O5B O -0.0962(9) 0.0580(5) 0.4618(13)
O6B O -0.0105(11) 0.0829(4) 0.2325(19)
O6_2 O 0.0105(11) 0.0829(4) 0.7325(19)
O7B O -0.1842(8) 0.1087(5) 0.2539(17)
O7_2 O 0.1842(8) 0.1087(5) 0.7539(17)
O8B O -0.1350(8) 0.0072(6) 0.2254(20)
O8C O 0.1350(8) -0.0072(6) 0.2254(20)
O8A O -0.1350(8) -0.0072(6) 0.7254(20)
O9E O 0.1695(9) 0.3212(4) 0.7678(13)
O9_2 O 0.3305(9) 0.1788(4) -0.2322(13)
O10E O 0.1216(8) 0.2164(5) 0.7642(18)
O10E_2 O 0.1216(8) 0.2164(5) -0.2358(18)
O11E O 0.0023(10) 0.2934(4) 0.7765(20)
O11G O -0.0023(10) 0.2934(4) 0.2765(20)
O11B O 0.5023(10) 0.2066(4) 0.2765(20)
O12E O 0.1041(9) 0.2761(6) 0.9958(18)
O12E_2 O 0.1041(9) 0.2761(6) -0.0042(18)
O12_2 O 0.3959(9) 0.2239(6) -0.0042(18)
F1_2 F 0.2500 0.2500 -0.4195(12)
loop_
_geom_bond_atom_site_label_1
_geom_bond_atom_site_label_2
_geom_bond_site_symmetry_1
_geom_bond_site_symmetry_2
P1 O1 1_555 1_555
P2 O5 1_555 1_555
P3 O9 1_555 1_555
Al1 O1 1_555 1_555
Al2 O2 1_555 1_555
Al3 O3 1_555 1_555
O2 P1 1_555 1_555
O3 P1 1_555 1_555
O4 P1 1_555 1_555
O5 Al1 1_555 1_555
O6 P2 1_555 1_555
O7 P2 1_555 1_555
O8 P2 1_555 1_555
O9 Al2 1_555 1_555
O10 P3 1_555 1_555
O11 P3 1_555 1_555
O12 P3 1_555 1_555
F1 Al2 1_555 1_555
Ni1 N1 1_555 1_555
N1 N2 1_555 1_555
N2 C2 1_555 1_555
C1 N1 1_555 1_555
C2 Ni1B 1_555 1_555
P1E O1E 1_555 1_555
P2B O5B 1_555 1_555
P3E O9E 1_555 1_555
Al1B O1B 1_555 1_555
Al1B_2 O6 1_555 1_555
Al1C O8 1_555 1_555
Al1A O8B 1_555 1_555
Al1E O1E 1_555 1_555
Al2_2 O7 1_555 1_555
Al2E O10 1_555 1_555
Al2B O7B 1_555 1_555
Al3E O4 1_555 1_555
Al3G O11 1_555 1_555
Al3E_2 O12 1_555 1_555
Al3B O11E 1_555 1_555
Al3_2 O12E 1_555 1_555
O2E P1E 1_555 1_555
O2_2 Al2_2 1_555 1_555
O3E P1E 1_555 1_555
O4E Al3 1_555 1_555
O5B Al1B 1_555 1_555
O6B Al1 1_555 1_555
O6_2 Al1B 1_555 1_555
O7B P2B 1_555 1_555
O7_2 Al2 1_555 1_555
O8B P2B 1_555 1_555
O8C Al1 1_555 1_555
O8A Al1B 1_555 1_555
O9E Al2E 1_555 1_555
O9_2 Al2_2 1_555 1_555
O10E Al2 1_555 1_555
O10E_2 Al2_2 1_555 1_555
O11E P3E 1_555 1_555
O11G Al3 1_555 1_555
O11B Al3E 1_555 1_555
O12E P3E 1_555 1_555
O12E_2 Al3 1_555 1_555
O12_2 Al3E 1_555 1_555
F1_2 Al2_2 1_555 1_555
Ni1B N2 1_555 1_555
N1A Ni1 1_555 1_555
N2A Ni1B 1_555 1_555
N2B Ni1 1_555 1_555
N2C Ni1 1_555 1_555
C1A C2 1_555 1_555
C1B Ni1 1_555 1_555
C1C Ni1 1_555 1_555
C2A C1 1_555 1_555
C2B Ni1 1_555 1_555
C2C Ni1 1_555 1_555
F1 Al2E 1_555 1_555
C1 Ni1B 1_555 1_555
P1E O4E 1_555 1_555
P2B O6B 1_555 1_555
P3E O10E 1_555 1_555
Al2E O2E 1_555 1_555
Al3E O3E 1_555 1_555
Ni1B C1A 1_555 1_555
Ni1B C2A 1_555 1_555
N1A N2A 1_555 1_555
N1A C1A 1_555 1_555
N2A C2A 1_555 1_555
N2B C2B 1_555 1_555
N2C C2C 1_555 1_555
C1B C2C 1_555 1_555
C1C C2B 1_555 1_555

#END
