
#######################################################################
#
#                 Cambridge Crystallographic Data Centre
#                                CCDC 
#
#######################################################################
#
# If this CIF has been generated from an entry in the Cambridge 
# Structural Database, then it will include bibliographic, chemical, 
# crystal, experimental, refinement or atomic coordinate data resulting 
# from the CCDC's data processing and validation procedures.
#
#######################################################################

data_BOJCIN
_chemical_formula_moiety         '(C22 H27 Mo1 N1 O4)n'
_symmetry_cell_setting           tetragonal
_symmetry_space_group_name_H-M   'I 41/a'
_symmetry_Int_Tables_number      88
_space_group_name_Hall           '-I 4ad'
loop_
_symmetry_equiv_pos_site_id
_symmetry_equiv_pos_as_xyz
1 x,y,z
2 3/4-y,1/4+x,1/4+z
3 1/2+x,1/2+y,1/2+z
4 1/4-y,3/4+x,3/4+z
5 1/4+y,1/4-x,1/4+z
6 1/2-x,-y,1/2+z
7 3/4+y,3/4-x,3/4+z
8 -x,1/2-y,z
9 -x,-y,-z
10 1/4+y,3/4-x,3/4-z
11 1/2-x,1/2-y,1/2-z
12 3/4+y,1/4-x,1/4-z
13 3/4-y,3/4+x,3/4-z
14 1/2+x,y,1/2-z
15 1/4-y,1/4+x,1/4-z
16 x,1/2+y,-z
_cell_length_a                   27.5744(2)
_cell_length_b                   27.5744(2)
_cell_length_c                   14.7031(3)
_cell_angle_alpha                90
_cell_angle_beta                 90
_cell_angle_gamma                90
_cell_volume                     11179.5
loop_
_atom_site_label
_atom_site_type_symbol
_atom_site_fract_x
_atom_site_fract_y
_atom_site_fract_z
Mo1 Mo 0.02815(1) 0.02474(1) 0.51452(2)
O1 O 0.01250(9) 0.06544(9) 0.39722(17)
O2 O 0.07881(8) -0.01771(9) 0.44392(18)
O3 O -0.04696(9) 0.01314(9) 0.36636(17)
O4 O 0.01929(9) -0.07005(8) 0.41321(17)
N1 N 0.16569(14) -0.15402(14) 0.2926(3)
C1 C -0.02171(15) 0.05050(15) 0.3475(3)
C2 C -0.03339(16) 0.07631(17) 0.2605(3)
C3 C -0.0122(2) 0.06116(19) 0.1794(3)
C4 C -0.0232(3) 0.0840(2) 0.1006(4)
C5 C -0.0552(3) 0.1218(3) 0.0981(5)
C6 C -0.0761(2) 0.1381(2) 0.1791(5)
C7 C -0.06521(19) 0.1152(2) 0.2621(4)
C8 C 0.0226(2) 0.01848(19) 0.1807(4)
C9 C -0.0062(3) -0.0289(2) 0.1676(4)
C10 C 0.0643(3) 0.0225(3) 0.1102(5)
C11 C -0.0692(4) 0.1490(4) 0.0087(6)
C12 C -0.1165(3) 0.1311(3) -0.0260(5)
C13 C -0.0547(4) 0.1956(3) 0.0039(6)
C14 C -0.0877(2) 0.1317(3) 0.3515(5)
C15 C -0.0883(8) 0.1874(5) 0.3594(14)
C16 C -0.1395(6) 0.1094(12) 0.3632(15)
C17 C 0.06338(13) -0.05715(14) 0.4093(3)
C18 C 0.09834(14) -0.08997(14) 0.3663(3)
C19 C 0.14714(18) -0.07968(17) 0.3676(5)
C20 C 0.08415(17) -0.13193(16) 0.3244(4)
C21 C 0.1786(2) -0.11300(18) 0.3282(6)
C22 C 0.11885(18) -0.16260(18) 0.2904(4)
H1 H -0.09790 0.16480 0.17810
H2 H 0.01550 -0.05670 0.17620
H3 H 0.03770 0.01730 0.24250
H4 H -0.03260 -0.03040 0.21220
H5 H -0.00840 0.07350 0.04570
H6 H 0.08370 0.05150 0.12320
H7 H -0.04650 0.13350 -0.03550
H8 H -0.14200 0.13820 0.01860
H9 H -0.11470 0.09600 -0.03580
H10 H -0.01980 -0.02980 0.10600
H11 H 0.05050 0.02510 0.04890
H12 H 0.08490 -0.00630 0.11390
H13 H -0.07220 0.21490 0.04920
H14 H -0.06690 0.11900 0.40190
H15 H -0.08880 0.19670 0.42370
H16 H -0.11730 0.20020 0.32920
H17 H -0.05920 0.20080 0.33040
H18 H -0.15560 0.12430 0.41560
H19 H -0.13680 0.07430 0.37310
H20 H -0.15870 0.11550 0.30820
H21 H 0.15900 -0.05070 0.39460
H22 H 0.05070 -0.13970 0.31890
H23 H 0.21210 -0.10510 0.32720
H24 H 0.10830 -0.19210 0.26330
H25 H -0.12410 0.14730 -0.08350
H26 H -0.06150 0.20840 -0.05700
H27 H -0.01980 0.19750 0.01590
Mo1H Mo -0.02815(1) -0.02474(1) 0.48548(2)
Mo1C Mo 0.22526(1) -0.22185(1) 0.26452(2)
O3H O 0.04696(9) -0.01314(9) 0.63364(17)
O4H O -0.01929(9) 0.07005(8) 0.58679(17)
N1D N 0.09598(14) 0.08431(14) 0.5426(3)
loop_
_geom_bond_atom_site_label_1
_geom_bond_atom_site_label_2
_geom_bond_site_symmetry_1
_geom_bond_site_symmetry_2
Mo1 O1 1_555 1_555
O1 C1 1_555 1_555
O2 Mo1 1_555 1_555
O3 C1 1_555 1_555
O4 C17 1_555 1_555
N1 C21 1_555 1_555
C1 C2 1_555 1_555
C2 C3 1_555 1_555
C3 C4 1_555 1_555
C4 C5 1_555 1_555
C5 C6 1_555 1_555
C6 C7 1_555 1_555
C7 C2 1_555 1_555
C8 C3 1_555 1_555
C9 C8 1_555 1_555
C10 C8 1_555 1_555
C11 C5 1_555 1_555
C12 C11 1_555 1_555
C13 C11 1_555 1_555
C14 C7 1_555 1_555
C15 C14 1_555 1_555
C16 C14 1_555 1_555
C17 O2 1_555 1_555
C18 C17 1_555 1_555
C19 C18 1_555 1_555
C20 C18 1_555 1_555
C21 C19 1_555 1_555
C22 N1 1_555 1_555
H1 C6 1_555 1_555
H2 C9 1_555 1_555
H3 C8 1_555 1_555
H4 C9 1_555 1_555
H5 C4 1_555 1_555
H6 C10 1_555 1_555
H7 C11 1_555 1_555
H8 C12 1_555 1_555
H9 C12 1_555 1_555
H10 C9 1_555 1_555
H11 C10 1_555 1_555
H12 C10 1_555 1_555
H13 C13 1_555 1_555
H14 C14 1_555 1_555
H15 C15 1_555 1_555
H16 C15 1_555 1_555
H17 C15 1_555 1_555
H18 C16 1_555 1_555
H19 C16 1_555 1_555
H20 C16 1_555 1_555
H21 C19 1_555 1_555
H22 C20 1_555 1_555
H23 C21 1_555 1_555
H24 C22 1_555 1_555
H25 C12 1_555 1_555
H26 C13 1_555 1_555
H27 C13 1_555 1_555
Mo1H Mo1 1_555 1_555
Mo1C N1 1_555 1_555
O3H Mo1 1_555 1_555
O4H Mo1 1_555 1_555
N1D Mo1 1_555 1_555
O3 Mo1H 1_555 1_555
O4 Mo1H 1_555 1_555
C20 C22 1_555 1_555

#END
