
#######################################################################
#
#                 Cambridge Crystallographic Data Centre
#                                CCDC 
#
#######################################################################
#
# If this CIF has been generated from an entry in the Cambridge 
# Structural Database, then it will include bibliographic, chemical, 
# crystal, experimental, refinement or atomic coordinate data resulting 
# from the CCDC's data processing and validation procedures.
#
#######################################################################

data_FAWCEN04
_chemical_formula_moiety         '(C8 H10 N4 Zn1)n'
_symmetry_cell_setting           cubic
_symmetry_space_group_name_H-M   'I -4 3 m'
_symmetry_Int_Tables_number      217
_space_group_name_Hall           'I -4 2 3'
loop_
_symmetry_equiv_pos_site_id
_symmetry_equiv_pos_as_xyz
1 x,y,z
2 -x,-y,z
3 -x,y,-z
4 x,-y,-z
5 z,x,y
6 z,-x,-y
7 -z,-x,y
8 -z,x,-y
9 y,z,x
10 -y,z,-x
11 y,-z,-x
12 -y,-z,x
13 y,x,z
14 -y,-x,z
15 y,-x,-z
16 -y,x,-z
17 x,z,y
18 -x,z,-y
19 -x,-z,y
20 x,-z,-y
21 z,y,x
22 z,-y,-x
23 -z,y,-x
24 -z,-y,x
25 1/2+x,1/2+y,1/2+z
26 1/2-x,1/2-y,1/2+z
27 1/2-x,1/2+y,1/2-z
28 1/2+x,1/2-y,1/2-z
29 1/2+z,1/2+x,1/2+y
30 1/2+z,1/2-x,1/2-y
31 1/2-z,1/2-x,1/2+y
32 1/2-z,1/2+x,1/2-y
33 1/2+y,1/2+z,1/2+x
34 1/2-y,1/2+z,1/2-x
35 1/2+y,1/2-z,1/2-x
36 1/2-y,1/2-z,1/2+x
37 1/2+y,1/2+x,1/2+z
38 1/2-y,1/2-x,1/2+z
39 1/2+y,1/2-x,1/2-z
40 1/2-y,1/2+x,1/2-z
41 1/2+x,1/2+z,1/2+y
42 1/2-x,1/2+z,1/2-y
43 1/2-x,1/2-z,1/2+y
44 1/2+x,1/2-z,1/2-y
45 1/2+z,1/2+y,1/2+x
46 1/2+z,1/2-y,1/2-x
47 1/2-z,1/2+y,1/2-x
48 1/2-z,1/2-y,1/2+x
_cell_length_a                   16.8815(5)
_cell_length_b                   16.8815(5)
_cell_length_c                   16.8815(5)
_cell_angle_alpha                90
_cell_angle_beta                 90
_cell_angle_gamma                90
_cell_volume                     4810.97
loop_
_atom_site_label
_atom_site_type_symbol
_atom_site_fract_x
_atom_site_fract_y
_atom_site_fract_z
Zn1 Zn 0.5000 0.2500 1.0000
C1 C 0.5047(3) 0.12374(8) 0.87626(8)
N1 N 0.46463(8) 0.18265(9) 0.91080(9)
C2 C 0.58565(15) 0.09766(13) 0.90234(13)
C3 C 0.39263(11) 0.18517(13) 0.87171(12)
H1 H 0.3504 0.2207 0.8828
N1S N 0.46463(8) 0.08920(9) 0.81735(9)
C3S C 0.39263(11) 0.12829(12) 0.81483(13)
H1S H 0.3504 0.1172 0.7793
C1B C 0.4953(3) 0.12374(8) 1.12374(8)
N1B N 0.53537(8) 0.18265(9) 1.08920(9)
C2B C 0.41435(15) 0.09766(13) 1.09766(13)
C3B C 0.60737(11) 0.18517(13) 1.12829(12)
H1B H 0.6496 0.2207 1.1172
N1R N 0.53537(8) 0.08920(9) 1.18265(9)
C3R C 0.60737(11) 0.12829(12) 1.18517(13)
H1R H 0.6496 0.1172 1.2207
Zn1P Zn 0.5000 0.0000 1.2500
Zn1Q Zn 0.5000 0.0000 0.7500
N1SA N 0.41080(9) 0.31735(9) 1.03537(8)
N1UA N 0.58920(9) 0.31735(9) 0.96463(8)
loop_
_geom_bond_atom_site_label_1
_geom_bond_atom_site_label_2
_geom_bond_site_symmetry_1
_geom_bond_site_symmetry_2
Zn1 N1 1_555 1_555
C1 N1 1_555 1_555
N1 C3 1_555 1_555
C2 C1 1_555 1_555
C3 H1 1_555 1_555
N1S C1 1_555 1_555
C3S C3 1_555 1_555
H1S C3S 1_555 1_555
C1B N1B 1_555 1_555
N1B Zn1 1_555 1_555
C2B C1B 1_555 1_555
C3B N1B 1_555 1_555
H1B C3B 1_555 1_555
N1R C1B 1_555 1_555
C3R C3B 1_555 1_555
H1R C3R 1_555 1_555
Zn1P N1R 1_555 1_555
Zn1Q N1S 1_555 1_555
N1SA Zn1 1_555 1_555
N1UA Zn1 1_555 1_555
N1S C3S 1_555 1_555
N1R C3R 1_555 1_555

#END
