
#######################################################################
#
#                 Cambridge Crystallographic Data Centre
#                                CCDC 
#
#######################################################################
#
# If this CIF has been generated from an entry in the Cambridge 
# Structural Database, then it will include bibliographic, chemical, 
# crystal, experimental, refinement or atomic coordinate data resulting 
# from the CCDC's data processing and validation procedures.
#
#######################################################################

data_WOPDEL
_chemical_formula_moiety         '(C24 H26 Mn1 N2 O6)n'
_symmetry_cell_setting           monoclinic
_symmetry_space_group_name_H-M   'C 2/c'
_symmetry_Int_Tables_number      15
_space_group_name_Hall           '-C 2yc'
loop_
_symmetry_equiv_pos_site_id
_symmetry_equiv_pos_as_xyz
1 x,y,z
2 1/2+x,1/2+y,z
3 -x,y,1/2-z
4 1/2-x,1/2+y,1/2-z
5 -x,-y,-z
6 1/2-x,1/2-y,-z
7 x,-y,1/2+z
8 1/2+x,1/2-y,1/2+z
_cell_length_a                   24.291(3)
_cell_length_b                   13.5583(18)
_cell_length_c                   16.280(2)
_cell_angle_alpha                90
_cell_angle_beta                 110.495(2)
_cell_angle_gamma                90
_cell_volume                     5022.35
loop_
_atom_site_label
_atom_site_type_symbol
_atom_site_fract_x
_atom_site_fract_y
_atom_site_fract_z
_atom_site_U_iso_or_equiv
_atom_site_thermal_displace_type
C1 C 0.3555(9) 0.3205(13) 0.6990(11) 0.1262 Uani
H1 H 0.3143 0.3280 0.6883 0.1890 Uiso
H2 H 0.3739 0.3843 0.7075 0.1890 Uiso
H3 H 0.3731 0.2812 0.7506 0.1890 Uiso
C2 C 0.3280(7) 0.1727(11) 0.6033(9) 0.0860 Uani
H4 H 0.3400 0.1322 0.5642 0.1280 Uiso
H5 H 0.2869 0.1875 0.5770 0.1280 Uiso
H6 H 0.3350 0.1382 0.6575 0.1280 Uiso
C3 C 0.4277(6) 0.2435(13) 0.6425(11) 0.0937 Uani
H7 H 0.4404 0.2014 0.6931 0.1410 Uiso
H8 H 0.4512 0.3024 0.6543 0.1410 Uiso
H9 H 0.4321 0.2096 0.5934 0.1410 Uiso
Mn1 Mn 0.29459(7) 0.26481(9) 0.13576(9) 0.0489 Uani
O1 O 0.3350(3) 0.3760(5) 0.2433(4) 0.0642 Uani
O2 O 0.3196(4) 0.2276(5) 0.2836(5) 0.0722 Uani
O3 O 0.3000(4) 0.6351(5) 0.5422(5) 0.0697 Uani
O4 O 0.2479(3) 0.6285(4) 0.3975(4) 0.0615 Uani
N1 N 0.2080(4) 0.3417(6) 0.1235(5) 0.0545 Uani
N2 N -0.1210(4) 0.7000(6) 0.1328(5) 0.0547 Uani
C7 C 0.3263(4) 0.3582(6) 0.3847(6) 0.0453 Uani
C8 C 0.3081(4) 0.4529(6) 0.3881(6) 0.0485 Uani
H21 H 0.2975 0.4924 0.3383 0.0580 Uiso
C9 C 0.3055(4) 0.4897(6) 0.4652(6) 0.0480 Uani
C10 C 0.3257(4) 0.4331(7) 0.5413(6) 0.0489 Uani
H22 H 0.3280 0.4612 0.5945 0.0580 Uiso
C11 C 0.3421(5) 0.3364(7) 0.5394(6) 0.0540 Uani
C12 C 0.3431(4) 0.2999(7) 0.4595(6) 0.0484 Uani
H23 H 0.3553 0.2355 0.4565 0.0580 Uiso
C13 C 0.3282(4) 0.3171(7) 0.2996(6) 0.0520 Uani
C14 C 0.2820(5) 0.5921(7) 0.4683(6) 0.0541 Uani
C15 C 0.3639(6) 0.2705(9) 0.6216(7) 0.0849 Uani
C16 C 0.2072(5) 0.4375(8) 0.1424(7) 0.0662 Uani
H24 H 0.2424 0.4724 0.1580 0.0790 Uiso
C17 C 0.1580(5) 0.4870(7) 0.1403(7) 0.0618 Uani
H25 H 0.1603 0.5539 0.1537 0.0740 Uiso
C18 C 0.1055(5) 0.4397(8) 0.1188(7) 0.0614 Uani
C19 C 0.1056(5) 0.3391(7) 0.0977(6) 0.0596 Uani
H26 H 0.0710 0.3028 0.0810 0.0710 Uiso
C20 C 0.1557(5) 0.2964(7) 0.1017(7) 0.0592 Uani
H27 H 0.1544 0.2296 0.0883 0.0710 Uiso
C21 C 0.0515(5) 0.4836(9) 0.1164(7) 0.0680 Uani
H28 H 0.0187 0.4428 0.1008 0.0820 Uiso
C22 C 0.0435(5) 0.5776(9) 0.1343(7) 0.0684 Uani
H29 H 0.0754 0.6204 0.1483 0.0820 Uiso
C23 C -0.1116(5) 0.6023(7) 0.1320(8) 0.0680 Uani
H30 H -0.1421 0.5608 0.1319 0.0820 Uiso
C24 C -0.0622(5) 0.5598(8) 0.1313(8) 0.0712 Uani
H31 H -0.0600 0.4914 0.1298 0.0860 Uiso
C25 C -0.0138(5) 0.6169(8) 0.1327(6) 0.0610 Uani
C26 C -0.0210(5) 0.7180(8) 0.1357(8) 0.0705 Uani
H32 H 0.0094 0.7606 0.1378 0.0850 Uiso
C27 C -0.0739(5) 0.7544(7) 0.1354(7) 0.0694 Uani
H33 H -0.0775 0.8226 0.1373 0.0830 Uiso
Mn1F Mn 0.29459(7) 0.73519(9) 0.63576(9) 0.0489 Uani
Mn1C Mn 0.20541(7) 0.76481(9) 0.36424(9) 0.0489 Uani
Mn1A Mn -0.20541(7) 0.76481(9) 0.13576(9) 0.0489 Uani
O3F O 0.3000(4) 0.3649(5) 0.0422(5) 0.0697 Uani
O4C O 0.2521(3) 0.1285(4) 0.1025(4) 0.0615 Uani
N2A N 0.3790(4) 0.2000(6) 0.1328(5) 0.0547 Uani
O5 O 0.4722(7) 0.4696(11) 0.313(2) 0.3276 Uani
H19 H 0.4645 0.5104 0.2725 0.4950 Uiso
H20 H 0.4959 0.4899 0.3599 0.4950 Uiso
O6 O 0.4641(15) 0.511(2) 0.488(3) 0.2653 Uani
H34 H 0.4599 0.5733 0.4810 0.3980 Uiso
H35 H 0.4327 0.4835 0.4613 0.3980 Uiso
loop_
_atom_site_aniso_label
_atom_site_aniso_U_11
_atom_site_aniso_U_22
_atom_site_aniso_U_33
_atom_site_aniso_U_23
_atom_site_aniso_U_13
_atom_site_aniso_U_12
C1 0.138(9) 0.125(8) 0.114(8) 0.011(6) 0.042(6) 0.003(6)
C2 0.088(7) 0.084(6) 0.087(6) 0.020(5) 0.032(5) 0.001(6)
C3 0.092(7) 0.082(7) 0.087(7) 0.009(5) 0.006(5) 0.008(6)
Mn1 0.0754(11) 0.0348(7) 0.0399(8) -0.0024(6) 0.0246(7) -0.0080(7)
O1 0.092(6) 0.057(4) 0.048(4) -0.004(3) 0.030(4) 0.012(4)
O2 0.116(6) 0.042(4) 0.063(4) -0.013(3) 0.037(4) 0.002(4)
O3 0.105(6) 0.051(4) 0.059(4) -0.020(3) 0.036(4) 0.008(4)
O4 0.079(5) 0.041(4) 0.056(4) 0.005(3) 0.013(4) 0.018(3)
N1 0.057(5) 0.051(5) 0.060(5) -0.001(4) 0.026(4) -0.014(4)
N2 0.075(6) 0.045(4) 0.049(5) -0.001(3) 0.028(4) 0.003(4)
C7 0.058(6) 0.038(5) 0.042(5) -0.004(4) 0.020(4) 0.013(4)
C8 0.071(7) 0.034(5) 0.036(5) 0.001(4) 0.013(4) 0.007(4)
C9 0.069(6) 0.032(4) 0.044(5) -0.004(4) 0.021(5) 0.013(4)
C10 0.054(6) 0.058(6) 0.037(5) 0.004(4) 0.019(4) 0.014(5)
C11 0.066(7) 0.048(5) 0.046(5) 0.008(4) 0.017(5) 0.015(5)
C12 0.060(6) 0.038(5) 0.046(5) -0.001(4) 0.017(4) 0.013(4)
C13 0.047(6) 0.049(6) 0.056(6) -0.012(5) 0.013(5) 0.012(4)
C14 0.073(7) 0.040(5) 0.054(6) -0.007(4) 0.028(5) 0.006(5)
C15 0.131(11) 0.075(8) 0.047(6) 0.024(6) 0.029(7) 0.049(8)
C16 0.062(7) 0.050(6) 0.083(8) -0.001(5) 0.021(6) -0.001(5)
C17 0.061(7) 0.044(5) 0.077(7) 0.000(5) 0.020(6) -0.007(5)
C18 0.063(7) 0.065(7) 0.057(6) 0.002(5) 0.022(5) 0.010(6)
C19 0.068(7) 0.054(6) 0.061(6) -0.009(5) 0.028(5) -0.014(5)
C20 0.059(7) 0.048(6) 0.073(7) -0.003(5) 0.026(5) 0.003(5)
C21 0.064(7) 0.073(8) 0.060(7) -0.010(6) 0.013(5) -0.008(6)
C22 0.077(8) 0.069(7) 0.060(7) -0.004(6) 0.025(6) -0.002(6)
C23 0.077(8) 0.044(6) 0.102(9) -0.001(5) 0.055(7) 0.000(5)
C24 0.077(8) 0.052(6) 0.097(9) -0.002(6) 0.046(7) 0.010(6)
C25 0.081(8) 0.053(6) 0.045(6) -0.003(4) 0.017(5) 0.001(6)
C26 0.064(7) 0.052(6) 0.090(8) -0.004(6) 0.020(6) 0.005(6)
C27 0.092(9) 0.035(5) 0.079(8) -0.008(5) 0.027(6) -0.001(6)
Mn1F 0.0754 0.0348 0.0399 0.0024 0.0246 0.008
Mn1C 0.0754 0.0348 0.0399 0.0024 0.0246 0.008
Mn1A 0.0754 0.0348 0.0399 -0.0024 0.0246 -0.008
O3F 0.105 0.051 0.059 0.02 0.036 -0.008
O4C 0.079 0.041 0.056 -0.005 0.013 -0.018
N2A 0.075 0.045 0.049 -0.001 0.028 0.003
O5 0.128(13) 0.136(13) 0.72(5) 0.05(2) 0.15(2) 0.059(11)
O6 0.23(4) 0.079(18) 0.49(7) -0.03(3) 0.13(5) -0.02(2)
loop_
_geom_bond_atom_site_label_1
_geom_bond_atom_site_label_2
_geom_bond_site_symmetry_1
_geom_bond_site_symmetry_2
C1 H1 1_555 1_555
H2 C1 1_555 1_555
H3 C1 1_555 1_555
C2 H4 1_555 1_555
H5 C2 1_555 1_555
H6 C2 1_555 1_555
C3 H7 1_555 1_555
H8 C3 1_555 1_555
H9 C3 1_555 1_555
Mn1 O1 1_555 1_555
O1 C13 1_555 1_555
O2 Mn1 1_555 1_555
O3 C14 1_555 1_555
O4 C14 1_555 1_555
O5 H19 1_555 1_555
H20 O5 1_555 1_555
N1 Mn1 1_555 1_555
N2 C23 1_555 1_555
C7 C8 1_555 1_555
C8 H21 1_555 1_555
C9 C8 1_555 1_555
C10 C9 1_555 1_555
H22 C10 1_555 1_555
C11 C10 1_555 1_555
C12 C7 1_555 1_555
H23 C12 1_555 1_555
C13 O2 1_555 1_555
C14 C9 1_555 1_555
C15 C1 1_555 1_555
C16 N1 1_555 1_555
H24 C16 1_555 1_555
C17 C16 1_555 1_555
H25 C17 1_555 1_555
C18 C17 1_555 1_555
C19 C18 1_555 1_555
H26 C19 1_555 1_555
C20 N1 1_555 1_555
H27 C20 1_555 1_555
C21 C18 1_555 1_555
H28 C21 1_555 1_555
C22 C21 1_555 1_555
H29 C22 1_555 1_555
C23 H30 1_555 1_555
C24 C23 1_555 1_555
H31 C24 1_555 1_555
C25 C22 1_555 1_555
C26 C25 1_555 1_555
H32 C26 1_555 1_555
C27 N2 1_555 1_555
H33 C27 1_555 1_555
O6 H34 1_555 1_555
H35 O6 1_555 1_555
Mn1F O3 1_555 1_555
Mn1C O4 1_555 1_555
Mn1A N2 1_555 1_555
O3F Mn1 1_555 1_555
O4C Mn1 1_555 1_555
N2A Mn1 1_555 1_555
C2 C15 1_555 1_555
C3 C15 1_555 1_555
C7 C13 1_555 1_555
C11 C12 1_555 1_555
C11 C15 1_555 1_555
C19 C20 1_555 1_555
C24 C25 1_555 1_555
C26 C27 1_555 1_555

#END
