
#######################################################################
#
#                 Cambridge Crystallographic Data Centre
#                                CCDC 
#
#######################################################################
#
# If this CIF has been generated from an entry in the Cambridge 
# Structural Database, then it will include bibliographic, chemical, 
# crystal, experimental, refinement or atomic coordinate data resulting 
# from the CCDC's data processing and validation procedures.
#
#######################################################################

data_LUYVAD
_chemical_formula_moiety         'C3 H31 N2 O69 P14 V15 1+'
_symmetry_cell_setting           trigonal
_symmetry_space_group_name_H-M   'P -3 c 1'
_symmetry_Int_Tables_number      165
_space_group_name_Hall           '-P 3 2"c'
loop_
_symmetry_equiv_pos_site_id
_symmetry_equiv_pos_as_xyz
1 x,y,z
2 -y,x-y,z
3 -x+y,-x,z
4 y,x,1/2-z
5 x-y,-y,1/2-z
6 -x,-x+y,1/2-z
7 -x,-y,-z
8 y,-x+y,-z
9 x-y,x,-z
10 -y,-x,1/2+z
11 -x+y,y,1/2+z
12 x,x-y,1/2+z
_cell_length_a                   13.4985(14)
_cell_length_b                   13.4985(14)
_cell_length_c                   18.120(4)
_cell_angle_alpha                90
_cell_angle_beta                 90
_cell_angle_gamma                120
_cell_volume                     2859.3
loop_
_atom_site_label
_atom_site_type_symbol
_atom_site_fract_x
_atom_site_fract_y
_atom_site_fract_z
H1 H 0.250(25) -0.741(15) 0.002(9)
H2 H 0.254(19) -0.620(8) 0.038(11)
V1 V 0.0000 -1.0000 0.0000
V2 V 0.0000 -1.0000 -0.2500
V3 V 0.29214(5) -0.56703(7) -0.04154(4)
P1 P 0.16065(10) -0.81366(7) -0.12916(4)
H3 H 0.2290 -0.8070 -0.1529
P2 P 0.50385(10) -0.36885(7) 0.05342(5)
P3 P 0.3333 -0.3333 -0.13842(12)
H4 H 0.3333 -0.3333 -0.1925
O1 O 0.1347(2) -0.8917(3) -0.06192(13)
O2 O 0.0664(2) -0.8592(3) -0.18711(13)
O3 O 0.3803(4) -0.4532(3) 0.03508(18)
O4 O 0.1890(4) -0.6931(2) -0.10761(15)
O5 O 0.3268(3) -0.4483(4) -0.11775(19)
O6 O 0.5711(2) -0.4266(3) 0.07552(17)
O7 O 0.5650(3) -0.2829(2) -0.00836(18)
O8 O 0.2560(3) -0.6891(2) 0.04097(16)
O9 O 0.5008(16) -0.3026(12) 0.1215(6)
H5 H 0.4428 -0.3430 0.1455
H1A H -0.259(15) -1.009(29) 0.002(9)
H1B H 0.009(29) -1.250(25) 0.002(9)
H1F H -0.250(25) -1.259(15) -0.002(9)
H1G H 0.259(15) -0.991(29) -0.002(9)
H1H H -0.009(29) -0.750(25) -0.002(9)
H2A H -0.380(8) -1.126(21) 0.038(11)
H2B H 0.126(21) -1.254(19) 0.038(11)
H2F H -0.254(19) -1.380(8) -0.038(11)
H2G H 0.380(8) -0.874(21) -0.038(11)
H2H H -0.126(21) -0.746(19) -0.038(11)
V2F V 0.0000 -1.0000 0.2500
V3A V -0.43297(7) -1.14083(9) -0.04154(4)
V3B V 0.14083(9) -1.29214(5) -0.04154(4)
V3F V -0.29214(5) -1.43297(7) 0.04154(4)
V3G V 0.43297(7) -0.85917(9) 0.04154(4)
V3H V -0.14083(9) -0.70786(5) 0.04154(4)
V3F_2 V 0.70786(5) -0.43297(7) 0.04154(4)
V3A_2 V 0.56703(7) -0.14083(9) -0.04154(4)
V3B_2 V 0.14083(9) -0.29214(5) -0.04154(4)
V3G_2 V -0.56703(7) -0.85917(9) 0.04154(4)
V3B_3 V -0.85917(9) -1.29214(5) -0.04154(4)
V3_2 V -0.70786(5) -1.56703(7) -0.04154(4)
P1A P -0.18634(7) -1.02569(12) -0.12916(4)
P1B P 0.02569(12) -1.16065(10) -0.12916(4)
P1F P -0.16065(10) -1.18634(7) 0.12916(4)
P1G P 0.18634(7) -0.97431(12) 0.12916(4)
P1H P -0.02569(12) -0.83935(10) 0.12916(4)
H3A H -0.1930 -0.9640 -0.1529
H3B H -0.0360 -1.2290 -0.1529
H3F H -0.2290 -1.1930 0.1529
H3G H 0.1930 -1.0360 0.1529
H3H H 0.0360 -0.7710 0.1529
P2F P 0.49615(10) -0.63115(7) -0.05342(5)
P2B P 0.12730(12) -0.50385(10) 0.05342(5)
P2A P -0.63115(7) -1.12730(12) 0.05342(5)
P2G P -0.36885(7) -0.87270(12) -0.05342(5)
P2_2 P -0.49615(10) -1.36885(7) 0.05342(5)
P3A P -0.6667 -1.3334 -0.13842(12)
H4A H -0.6667 -1.3334 -0.1925
O1A O -0.1083(3) -0.9736(4) -0.06192(13)
O1B O -0.0264(4) -1.1347(2) -0.06192(13)
O1F O -0.1347(2) -1.1083(3) 0.06192(13)
O1G O 0.1083(3) -1.0264(4) 0.06192(13)
O1H O 0.0264(4) -0.8653(2) 0.06192(13)
O2A O -0.1408(3) -1.0744(4) -0.18711(13)
O2B O 0.0744(4) -1.0664(2) -0.18711(13)
O2F O -0.0664(2) -1.1408(3) 0.18711(13)
O2G O 0.1408(3) -0.9256(4) 0.18711(13)
O2H O -0.0744(4) -0.9336(2) 0.18711(13)
O2C O 0.1408(3) -0.9336(2) -0.31289(13)
O2D O -0.0744(4) -1.1408(3) -0.31289(13)
O2E O -0.0664(2) -0.9256(4) -0.31289(13)
O3F O 0.6197(4) -0.5468(3) -0.03508(18)
O3B O 0.1665(5) -0.3803(4) 0.03508(18)
O3A O -0.5468(3) -1.1665(5) 0.03508(18)
O3G O -0.4532(3) -0.8335(5) -0.03508(18)
O3_2 O -0.6197(4) -1.4532(3) 0.03508(18)
O3B_2 O 0.1665(5) -1.3803(4) 0.03508(18)
O3F_2 O -0.3803(4) -1.5468(3) -0.03508(18)
O3G_2 O 0.5468(3) -0.8335(5) -0.03508(18)
O3H O -0.1665(5) -0.6197(4) -0.03508(18)
O4A O -0.3069(2) -1.1179(4) -0.10761(15)
O4B O 0.1179(4) -1.1890(4) -0.10761(15)
O4F O -0.1890(4) -1.3069(2) 0.10761(15)
O4G O 0.3069(2) -0.8821(4) 0.10761(15)
O4H O -0.1179(4) -0.8110(4) 0.10761(15)
O5A O 0.4483(4) -0.2249(5) -0.11775(19)
O5B O 0.2249(5) -0.3268(3) -0.11775(19)
O5A_2 O -0.5517(4) -1.2249(5) -0.11775(19)
O5B_2 O -0.7751(5) -1.3268(3) -0.11775(19)
O5_2 O -0.6732(3) -1.4483(4) -0.11775(19)
O5B_3 O 0.2249(5) -1.3268(3) -0.11775(19)
O5F O -0.3268(3) -1.5517(4) 0.11775(19)
O5G O 0.5517(4) -0.7751(5) 0.11775(19)
O5H O -0.2249(5) -0.6732(3) 0.11775(19)
O6F O 0.4289(2) -0.5734(3) -0.07552(17)
O6B O 0.0023(4) -0.5711(2) 0.07552(17)
O6A O -0.5734(3) -1.0023(4) 0.07552(17)
O6G O -0.4266(3) -0.9977(4) -0.07552(17)
O6_2 O -0.4289(2) -1.4266(3) 0.07552(17)
O6H O -0.0023(4) -1.4289(2) -0.07552(17)
O6A_2 O 0.4266(3) -1.0023(4) 0.07552(17)
O7F O 0.4350(3) -0.7171(2) 0.00836(18)
O7B O 0.1521(4) -0.5650(3) -0.00836(18)
O7A O -0.7171(2) -1.1521(4) -0.00836(18)
O7G O -0.2829(2) -0.8479(4) 0.00836(18)
O7_2 O -0.4350(3) -1.2829(2) -0.00836(18)
O7A_2 O 0.2829(2) -1.1521(4) -0.00836(18)
O7H O -0.1521(4) -1.4350(3) 0.00836(18)
O8A O -0.3109(2) -1.0549(4) 0.04097(16)
O8B O 0.0549(4) -1.2560(3) 0.04097(16)
O8F O -0.2560(3) -1.3109(2) -0.04097(16)
O8G O 0.3109(2) -0.9451(4) -0.04097(16)
O8H O -0.0549(4) -0.7440(3) -0.04097(16)
O9F O 0.4992(16) -0.6974(12) -0.1215(6)
O9B O 0.1966(20) -0.5008(16) 0.1215(6)
O9A O -0.6974(12) -1.1966(20) 0.1215(6)
O9G O -0.3026(12) -0.8034(20) -0.1215(6)
O9_2 O -0.4992(16) -1.3026(12) 0.1215(6)
H5F H 0.5572 -0.6570 -0.1455
H5B H 0.2142 -0.4428 0.1455
H5A H -0.6570 -1.2142 0.1455
H5G H -0.3430 -0.7858 -0.1455
H5_2 H -0.5572 -1.3430 0.1455
N1 N 1.0436(19) 0.6316(44) 0.2990(9)
C1 C 1.0328(14) 0.5728(16) 0.2919(14)
C2 C 1.0000 0.6884(7) 0.2500
N1E N 0.9564(19) 0.5880(48) 0.2010(9)
C1E C 0.9672(14) 0.5400(21) 0.2081(14)
loop_
_geom_bond_atom_site_label_1
_geom_bond_atom_site_label_2
_geom_bond_site_symmetry_1
_geom_bond_site_symmetry_2
N1 C1 1_555 1_555
C1 C1E 1_555 1_555
C2 N1 1_555 1_555
H1 O8 1_555 1_555
H2 O8 1_555 1_555
V1 O1 1_555 1_555
V2 O2 1_555 1_555
V3 O3 1_555 1_555
P1 H3 1_555 1_555
P2 O3 1_555 1_555
P3 H4 1_555 1_555
O1 P1 1_555 1_555
O2 P1 1_555 1_555
O4 V3 1_555 1_555
O5 V3 1_555 1_555
O6 P2 1_555 1_555
O7 P2 1_555 1_555
O8 V3 1_555 1_555
O9 P2 1_555 1_555
H5 O9 1_555 1_555
N1E C2 1_555 1_555
C1E N1E 1_555 1_555
H1A O8A 1_555 1_555
H1B O8B 1_555 1_555
H1F O8F 1_555 1_555
H1G O8G 1_555 1_555
H1H O8H 1_555 1_555
H2A O8A 1_555 1_555
H2B O8B 1_555 1_555
H2F O8F 1_555 1_555
H2G O8G 1_555 1_555
H2H O8H 1_555 1_555
V2F O2F 1_555 1_555
V3A O3A 1_555 1_555
V3B O3B_2 1_555 1_555
V3F O3F_2 1_555 1_555
V3G O3G_2 1_555 1_555
V3H O3H 1_555 1_555
V3F_2 O6 1_555 1_555
V3A_2 O7 1_555 1_555
V3B_2 O3B 1_555 1_555
V3G_2 O3G 1_555 1_555
V3B_3 O5B_2 1_555 1_555
V3_2 O3_2 1_555 1_555
P1A H3A 1_555 1_555
P1B H3B 1_555 1_555
P1F H3F 1_555 1_555
P1G H3G 1_555 1_555
P1H H3H 1_555 1_555
P2F O3F 1_555 1_555
P2B O3B 1_555 1_555
P2A O3A 1_555 1_555
P2G O3G 1_555 1_555
P2_2 O3_2 1_555 1_555
P3A H4A 1_555 1_555
O1A V1 1_555 1_555
O1B V1 1_555 1_555
O1F V1 1_555 1_555
O1G V1 1_555 1_555
O1H V1 1_555 1_555
O2A V2 1_555 1_555
O2B V2 1_555 1_555
O2F P1F 1_555 1_555
O2G V2F 1_555 1_555
O2H V2F 1_555 1_555
O2C V2 1_555 1_555
O2D V2 1_555 1_555
O2E V2 1_555 1_555
O3F V3F_2 1_555 1_555
O4A V3A 1_555 1_555
O4B V3B 1_555 1_555
O4F V3F 1_555 1_555
O4G V3G 1_555 1_555
O4H V3H 1_555 1_555
O5A P3 1_555 1_555
O5B P3 1_555 1_555
O5A_2 V3A 1_555 1_555
O5B_2 P3A 1_555 1_555
O5_2 V3_2 1_555 1_555
O5B_3 V3B 1_555 1_555
O5F V3F 1_555 1_555
O5G V3G 1_555 1_555
O5H V3H 1_555 1_555
O6F V3 1_555 1_555
O6B V3H 1_555 1_555
O6A V3G_2 1_555 1_555
O6G V3A 1_555 1_555
O6_2 V3F 1_555 1_555
O6H V3B 1_555 1_555
O6A_2 V3G 1_555 1_555
O7F V3G 1_555 1_555
O7B V3 1_555 1_555
O7A V3B_3 1_555 1_555
O7G V3H 1_555 1_555
O7_2 V3A 1_555 1_555
O7A_2 V3B 1_555 1_555
O7H V3F 1_555 1_555
O8A V3A 1_555 1_555
O8B V3B 1_555 1_555
O8F V3F 1_555 1_555
O8G V3G 1_555 1_555
O8H V3H 1_555 1_555
O9F P2F 1_555 1_555
O9B P2B 1_555 1_555
O9A P2A 1_555 1_555
O9G P2G 1_555 1_555
O9_2 P2_2 1_555 1_555
H5F O9F 1_555 1_555
H5B O9B 1_555 1_555
H5A O9A 1_555 1_555
H5G O9G 1_555 1_555
H5_2 O9_2 1_555 1_555
P1 O4 1_555 1_555
P3 O5 1_555 1_555
V3A_2 O5A 1_555 1_555
V3B_2 O5B 1_555 1_555
P1A O1A 1_555 1_555
P1A O2A 1_555 1_555
P1A O4A 1_555 1_555
P1B O1B 1_555 1_555
P1B O2B 1_555 1_555
P1B O4B 1_555 1_555
P1F O1F 1_555 1_555
P1F O4F 1_555 1_555
P1G O1G 1_555 1_555
P1G O2G 1_555 1_555
P1G O4G 1_555 1_555
P1H O1H 1_555 1_555
P1H O2H 1_555 1_555
P1H O4H 1_555 1_555
P2F O6F 1_555 1_555
P2F O7F 1_555 1_555
P2B O6B 1_555 1_555
P2B O7B 1_555 1_555
P2A O6A 1_555 1_555
P2A O7A 1_555 1_555
P2G O6G 1_555 1_555
P2G O7G 1_555 1_555
P2_2 O6_2 1_555 1_555
P2_2 O7_2 1_555 1_555
P3A O5A_2 1_555 1_555
P3A O5_2 1_555 1_555

#END
