
#######################################################################
#
#                 Cambridge Crystallographic Data Centre
#                                CCDC 
#
#######################################################################
#
# If this CIF has been generated from an entry in the Cambridge 
# Structural Database, then it will include bibliographic, chemical, 
# crystal, experimental, refinement or atomic coordinate data resulting 
# from the CCDC's data processing and validation procedures.
#
#######################################################################

data_XICNOO
_chemical_formula_moiety         '(C12 H4 O16 S2 Zr3)n'
_symmetry_cell_setting           cubic
_symmetry_space_group_name_H-M   'F m -3 m'
_symmetry_Int_Tables_number      225
_space_group_name_Hall           '-F 4 2 3'
loop_
_symmetry_equiv_pos_site_id
_symmetry_equiv_pos_as_xyz
1 x,y,z
2 -x,-y,z
3 -x,y,-z
4 x,-y,-z
5 z,x,y
6 z,-x,-y
7 -z,-x,y
8 -z,x,-y
9 y,z,x
10 -y,z,-x
11 y,-z,-x
12 -y,-z,x
13 y,x,-z
14 -y,-x,-z
15 y,-x,z
16 -y,x,z
17 x,z,-y
18 -x,z,y
19 -x,-z,-y
20 x,-z,y
21 z,y,-x
22 z,-y,x
23 -z,y,x
24 -z,-y,-x
25 x,1/2+y,1/2+z
26 -x,1/2-y,1/2+z
27 -x,1/2+y,1/2-z
28 x,1/2-y,1/2-z
29 z,1/2+x,1/2+y
30 z,1/2-x,1/2-y
31 -z,1/2-x,1/2+y
32 -z,1/2+x,1/2-y
33 y,1/2+z,1/2+x
34 -y,1/2+z,1/2-x
35 y,1/2-z,1/2-x
36 -y,1/2-z,1/2+x
37 y,1/2+x,1/2-z
38 -y,1/2-x,1/2-z
39 y,1/2-x,1/2+z
40 -y,1/2+x,1/2+z
41 x,1/2+z,1/2-y
42 -x,1/2+z,1/2+y
43 -x,1/2-z,1/2-y
44 x,1/2-z,1/2+y
45 z,1/2+y,1/2-x
46 z,1/2-y,1/2+x
47 -z,1/2+y,1/2+x
48 -z,1/2-y,1/2-x
49 1/2+x,y,1/2+z
50 1/2-x,-y,1/2+z
51 1/2-x,y,1/2-z
52 1/2+x,-y,1/2-z
53 1/2+z,x,1/2+y
54 1/2+z,-x,1/2-y
55 1/2-z,-x,1/2+y
56 1/2-z,x,1/2-y
57 1/2+y,z,1/2+x
58 1/2-y,z,1/2-x
59 1/2+y,-z,1/2-x
60 1/2-y,-z,1/2+x
61 1/2+y,x,1/2-z
62 1/2-y,-x,1/2-z
63 1/2+y,-x,1/2+z
64 1/2-y,x,1/2+z
65 1/2+x,z,1/2-y
66 1/2-x,z,1/2+y
67 1/2-x,-z,1/2-y
68 1/2+x,-z,1/2+y
69 1/2+z,y,1/2-x
70 1/2+z,-y,1/2+x
71 1/2-z,y,1/2+x
72 1/2-z,-y,1/2-x
73 1/2+x,1/2+y,z
74 1/2-x,1/2-y,z
75 1/2-x,1/2+y,-z
76 1/2+x,1/2-y,-z
77 1/2+z,1/2+x,y
78 1/2+z,1/2-x,-y
79 1/2-z,1/2-x,y
80 1/2-z,1/2+x,-y
81 1/2+y,1/2+z,x
82 1/2-y,1/2+z,-x
83 1/2+y,1/2-z,-x
84 1/2-y,1/2-z,x
85 1/2+y,1/2+x,-z
86 1/2-y,1/2-x,-z
87 1/2+y,1/2-x,z
88 1/2-y,1/2+x,z
89 1/2+x,1/2+z,-y
90 1/2-x,1/2+z,y
91 1/2-x,1/2-z,-y
92 1/2+x,1/2-z,y
93 1/2+z,1/2+y,-x
94 1/2+z,1/2-y,x
95 1/2-z,1/2+y,x
96 1/2-z,1/2-y,-x
97 -x,-y,-z
98 x,y,-z
99 x,-y,z
100 -x,y,z
101 -z,-x,-y
102 -z,x,y
103 z,x,-y
104 z,-x,y
105 -y,-z,-x
106 y,-z,x
107 -y,z,x
108 y,z,-x
109 -y,-x,z
110 y,x,z
111 -y,x,-z
112 y,-x,-z
113 -x,-z,y
114 x,-z,-y
115 x,z,y
116 -x,z,-y
117 -z,-y,x
118 -z,y,-x
119 z,-y,-x
120 z,y,x
121 -x,1/2-y,1/2-z
122 x,1/2+y,1/2-z
123 x,1/2-y,1/2+z
124 -x,1/2+y,1/2+z
125 -z,1/2-x,1/2-y
126 -z,1/2+x,1/2+y
127 z,1/2+x,1/2-y
128 z,1/2-x,1/2+y
129 -y,1/2-z,1/2-x
130 y,1/2-z,1/2+x
131 -y,1/2+z,1/2+x
132 y,1/2+z,1/2-x
133 -y,1/2-x,1/2+z
134 y,1/2+x,1/2+z
135 -y,1/2+x,1/2-z
136 y,1/2-x,1/2-z
137 -x,1/2-z,1/2+y
138 x,1/2-z,1/2-y
139 x,1/2+z,1/2+y
140 -x,1/2+z,1/2-y
141 -z,1/2-y,1/2+x
142 -z,1/2+y,1/2-x
143 z,1/2-y,1/2-x
144 z,1/2+y,1/2+x
145 1/2-x,-y,1/2-z
146 1/2+x,y,1/2-z
147 1/2+x,-y,1/2+z
148 1/2-x,y,1/2+z
149 1/2-z,-x,1/2-y
150 1/2-z,x,1/2+y
151 1/2+z,x,1/2-y
152 1/2+z,-x,1/2+y
153 1/2-y,-z,1/2-x
154 1/2+y,-z,1/2+x
155 1/2-y,z,1/2+x
156 1/2+y,z,1/2-x
157 1/2-y,-x,1/2+z
158 1/2+y,x,1/2+z
159 1/2-y,x,1/2-z
160 1/2+y,-x,1/2-z
161 1/2-x,-z,1/2+y
162 1/2+x,-z,1/2-y
163 1/2+x,z,1/2+y
164 1/2-x,z,1/2-y
165 1/2-z,-y,1/2+x
166 1/2-z,y,1/2-x
167 1/2+z,-y,1/2-x
168 1/2+z,y,1/2+x
169 1/2-x,1/2-y,-z
170 1/2+x,1/2+y,-z
171 1/2+x,1/2-y,z
172 1/2-x,1/2+y,z
173 1/2-z,1/2-x,-y
174 1/2-z,1/2+x,y
175 1/2+z,1/2+x,-y
176 1/2+z,1/2-x,y
177 1/2-y,1/2-z,-x
178 1/2+y,1/2-z,x
179 1/2-y,1/2+z,x
180 1/2+y,1/2+z,-x
181 1/2-y,1/2-x,z
182 1/2+y,1/2+x,z
183 1/2-y,1/2+x,-z
184 1/2+y,1/2-x,-z
185 1/2-x,1/2-z,y
186 1/2+x,1/2-z,-y
187 1/2+x,1/2+z,y
188 1/2-x,1/2+z,-y
189 1/2-z,1/2-y,x
190 1/2-z,1/2+y,-x
191 1/2+z,1/2-y,-x
192 1/2+z,1/2+y,x
_cell_length_a                   39.110(5)
_cell_length_b                   39.110(5)
_cell_length_c                   39.110(5)
_cell_angle_alpha                90
_cell_angle_beta                 90
_cell_angle_gamma                90
_cell_volume                     59822.3
loop_
_atom_site_label
_atom_site_type_symbol
_atom_site_fract_x
_atom_site_fract_y
_atom_site_fract_z
_atom_site_U_iso_or_equiv
_atom_site_thermal_displace_type
Zr1 Zr 0.218236(11) 0.281764(11) 0.045306(15) 0.0157 Uani
Zr2 Zr 0.205331(13) 0.205331(13) 0.0000 0.0068 Uani
S1 S 0.24868(6) 0.11182(5) 0.11182(5) 0.0403 Uani
C1 C 0.23046(15) 0.15329(14) 0.05746(14) 0.0267 Uani
C2 C 0.22214(17) 0.12336(16) 0.07921(17) 0.0360 Uani
C3 C 0.1941(2) 0.1031(2) 0.0776(2) 0.0657 Uani
H1 H 0.1768 0.1057 0.0615 0.0790 Uiso
O1 O 0.20918(9) 0.16052(9) 0.03430(9) 0.0207 Uani
O2 O 0.22875(15) 0.22875(15) 0.0438(3) 0.0670 Uani
O3 O 0.25753(11) 0.16908(12) 0.06443(13) 0.0437 Uani
O4 O 0.2236(2) 0.2764(2) 0.10053(17) 0.0707 Uani
O5 O 0.17883(12) 0.32117(12) 0.0433(2) 0.0497 Uani
O6 O 0.23994(17) 0.3035(2) 0.0000 0.0530 Uani
C1JD C 0.23046(15) 0.05746(14) 0.15329(14) 0.0267 Uani
C2JD C 0.22214(17) 0.07921(17) 0.12336(16) 0.0360 Uani
C3JD C 0.1941(2) 0.0776(2) 0.1031(2) 0.0657 Uani
H1JD H 0.1768 0.0615 0.1057 0.0790 Uiso
O1JD O 0.20918(9) 0.03430(9) 0.16052(9) 0.0207 Uani
O3JD O 0.25753(11) 0.06443(13) 0.16908(12) 0.0437 Uani
S1D S 0.11182(5) 0.24868(6) 0.11182(5) 0.0403 Uani
C1D C 0.05746(14) 0.23046(15) 0.15329(14) 0.0267 Uani
C2D C 0.07921(17) 0.22214(17) 0.12336(16) 0.0360 Uani
C3D C 0.0776(2) 0.1941(2) 0.1031(2) 0.0657 Uani
H1D H 0.0615 0.1768 0.1057 0.0790 Uiso
O1D O 0.03430(9) 0.20918(9) 0.16052(9) 0.0207 Uani
O3D O 0.06443(13) 0.25753(11) 0.16908(12) 0.0437 Uani
C1ED C 0.15329(14) 0.23046(15) 0.05746(14) 0.0267 Uani
C2ED C 0.12336(16) 0.22214(17) 0.07921(17) 0.0360 Uani
C3ED C 0.1031(2) 0.1941(2) 0.0776(2) 0.0657 Uani
H1ED H 0.1057 0.1768 0.0615 0.0790 Uiso
O1ED O 0.16052(9) 0.20918(9) 0.03430(9) 0.0207 Uani
O3ED O 0.16908(12) 0.25753(11) 0.06443(13) 0.0437 Uani
Zr1UB Zr 0.281764(11) 0.218236(11) 0.045306(15) 0.0157 Uani
O2UB O 0.27125(15) 0.27125(15) 0.0438(3) 0.0670 Uani
O4UB O 0.2764(2) 0.2236(2) 0.10053(17) 0.0707 Uani
O5UB O 0.32117(12) 0.17883(12) 0.0433(2) 0.0497 Uani
O6UB O 0.26006(17) 0.1965(2) 0.0000 0.0530 Uani
Zr1H Zr 0.281764(11) 0.045306(15) 0.218236(11) 0.0157 Uani
Zr1L Zr 0.281764(11) 0.218236(11) -0.045306(15) 0.0157 Uani
Zr1CA Zr 0.045306(15) 0.281764(11) 0.218236(11) 0.0157 Uani
Zr1GC Zr 0.218236(11) 0.281764(11) -0.045306(15) 0.0157 Uani
Zr2D Zr 0.0000 0.205331(13) 0.205331(13) 0.0068 Uani
Zr2H Zr 0.205331(13) 0.0000 0.205331(13) 0.0068 Uani
Zr2UB Zr 0.294669(13) 0.294669(13) 0.0000 0.0068 Uani
O1L O 0.16052(9) 0.20918(9) -0.03430(9) 0.0207 Uani
O1SC O 0.20918(9) 0.16052(9) -0.03430(9) 0.0207 Uani
O2L O 0.22875(15) 0.22875(15) -0.0438(3) 0.0670 Uani
O3UB O 0.24247(11) 0.33092(12) 0.06443(13) 0.0437 Uani
O3XF O 0.33092(12) 0.24247(11) 0.06443(13) 0.0437 Uani
O6L O 0.3035(2) 0.23994(17) 0.0000 0.0530 Uani
O6GC O 0.1965(2) 0.26006(17) 0.0000 0.0530 Uani
loop_
_atom_site_aniso_label
_atom_site_aniso_U_11
_atom_site_aniso_U_22
_atom_site_aniso_U_33
_atom_site_aniso_U_23
_atom_site_aniso_U_13
_atom_site_aniso_U_12
Zr1 0.0159(3) 0.0159(3) 0.0152(3) -0.00896(15) 0.00896(15) -0.0058(2)
Zr2 0.0088(3) 0.0088(3) 0.0027(4) 0.000 0.000 -0.0013(2)
S1 0.0380(11) 0.0415(8) 0.0415(8) 0.0347(10) -0.0257(8) -0.0257(8)
C1 0.028(3) 0.026(3) 0.026(3) 0.019(2) -0.010(2) -0.013(2)
C2 0.038(3) 0.034(3) 0.036(3) 0.028(3) -0.019(3) -0.017(3)
C3 0.058(5) 0.071(5) 0.068(5) 0.059(5) -0.049(4) -0.044(4)
O1 0.0258(18) 0.0186(17) 0.0176(16) 0.0123(14) -0.0074(14) -0.0062(14)
O2 0.040(3) 0.040(3) 0.121(8) -0.057(4) -0.057(4) 0.019(3)
O3 0.036 0.043 0.052 0.038 -0.026 -0.023
O4 0.098(5) 0.098(5) 0.016(3) -0.011(3) 0.011(3) -0.058(6)
O5 0.030(2) 0.030(2) 0.089(6) -0.018(2) 0.018(2) 0.006(3)
O6 0.031(3) 0.119(7) 0.009(2) 0.000 0.000 -0.050(4)
C1JD 0.028 0.026 0.026 0.019 -0.013 -0.01
C2JD 0.038 0.036 0.034 0.028 -0.017 -0.019
C3JD 0.058 0.068 0.071 0.059 -0.044 -0.049
O1JD 0.0258 0.0176 0.0186 0.0123 -0.0062 -0.0074
O3JD 0.036 0.052 0.043 0.038 -0.023 -0.026
S1D 0.0415 0.038 0.0415 -0.0257 0.0347 -0.0257
C1D 0.026 0.028 0.026 -0.013 0.019 -0.01
C2D 0.036 0.038 0.034 -0.017 0.028 -0.019
C3D 0.068 0.058 0.071 -0.044 0.059 -0.049
O1D 0.0176 0.0258 0.0186 -0.0062 0.0123 -0.0074
O3D 0.052 0.036 0.043 -0.023 0.038 -0.026
C1ED 0.026 0.028 0.026 -0.01 0.019 -0.013
C2ED 0.034 0.038 0.036 -0.019 0.028 -0.017
C3ED 0.071 0.058 0.068 -0.049 0.059 -0.044
O1ED 0.0186 0.0258 0.0176 -0.0074 0.0123 -0.0062
O3ED 0.043 0.036 0.052 -0.026 0.038 -0.023
Zr1UB 0.0159 0.0159 0.0152 0.00896 -0.00896 -0.0058
O2UB 0.04 0.04 0.121 0.057 0.057 0.019
O4UB 0.098 0.098 0.016 0.011 -0.011 -0.058
O5UB 0.03 0.03 0.089 0.018 -0.018 0.006
O6UB 0.031 0.119 0.009 0 0 -0.05
Zr1H 0.0159 0.0152 0.0159 0.00896 -0.0058 -0.00896
Zr1L 0.0159 0.0159 0.0152 -0.00896 0.00896 -0.0058
Zr1CA 0.0152 0.0159 0.0159 -0.0058 0.00896 -0.00896
Zr1GC 0.0159 0.0159 0.0152 0.00896 -0.00896 -0.0058
Zr2D 0.0027 0.0088 0.0088 -0.0013 0 0
Zr2H 0.0088 0.0027 0.0088 0 -0.0013 0
Zr2UB 0.0088 0.0088 0.0027 0 0 -0.0013
O1L 0.0186 0.0258 0.0176 0.0074 -0.0123 -0.0062
O1SC 0.0258 0.0186 0.0176 -0.0123 0.0074 -0.0062
O2L 0.04 0.04 0.121 0.057 0.057 0.019
O3UB 0.036 0.043 0.052 -0.038 0.026 -0.023
O3XF 0.043 0.036 0.052 0.026 -0.038 -0.023
O6L 0.119 0.031 0.009 0 0 -0.05
O6GC 0.119 0.031 0.009 0 0 -0.05
loop_
_geom_bond_atom_site_label_1
_geom_bond_atom_site_label_2
_geom_bond_site_symmetry_1
_geom_bond_site_symmetry_2
Zr1 O2 1_555 1_555
Zr2 O1 1_555 1_555
S1 C2 1_555 1_555
C1 C2 1_555 1_555
C2 C3 1_555 1_555
C3 H1 1_555 1_555
O1 C1 1_555 1_555
O2 Zr2 1_555 1_555
O3 C1 1_555 1_555
O4 Zr1 1_555 1_555
O5 Zr1 1_555 1_555
O6 Zr1 1_555 1_555
C1JD C2JD 1_555 1_555
C2JD S1 1_555 1_555
C3JD C3 1_555 1_555
H1JD C3JD 1_555 1_555
O1JD C1JD 1_555 1_555
O3JD C1JD 1_555 1_555
S1D C2D 1_555 1_555
C1D C2D 1_555 1_555
C2D C3D 1_555 1_555
C3D H1D 1_555 1_555
O1D C1D 1_555 1_555
O3D C1D 1_555 1_555
C1ED C2ED 1_555 1_555
C2ED S1D 1_555 1_555
C3ED C3D 1_555 1_555
H1ED C3ED 1_555 1_555
O1ED Zr2 1_555 1_555
O3ED Zr1 1_555 1_555
Zr1UB O2 1_555 1_555
O2UB Zr1 1_555 1_555
O4UB Zr1UB 1_555 1_555
O5UB Zr1UB 1_555 1_555
O6UB Zr2 1_555 1_555
Zr1H O3JD 1_555 1_555
Zr1L O6UB 1_555 1_555
Zr1CA O3D 1_555 1_555
Zr1GC O6 1_555 1_555
Zr2D O1D 1_555 1_555
Zr2H O1JD 1_555 1_555
Zr2UB O6 1_555 1_555
O1L Zr2 1_555 1_555
O1SC Zr2 1_555 1_555
O2L Zr2 1_555 1_555
O3UB Zr1 1_555 1_555
O3XF Zr1UB 1_555 1_555
O6L Zr1UB 1_555 1_555
O6GC Zr1 1_555 1_555
Zr2 O6GC 1_555 1_555
O3 Zr1UB 1_555 1_555
C2JD C3JD 1_555 1_555
C1ED O1ED 1_555 1_555
C1ED O3ED 1_555 1_555
C2ED C3ED 1_555 1_555
Zr1UB O2UB 1_555 1_555
Zr1UB O6UB 1_555 1_555
O2UB Zr2UB 1_555 1_555
Zr1L O2L 1_555 1_555
Zr1L O6L 1_555 1_555
Zr1GC O2L 1_555 1_555
Zr1GC O6GC 1_555 1_555
Zr2UB O6L 1_555 1_555

#END
