
#######################################################################
#
#                 Cambridge Crystallographic Data Centre
#                                CCDC 
#
#######################################################################
#
# If this CIF has been generated from an entry in the Cambridge 
# Structural Database, then it will include bibliographic, chemical, 
# crystal, experimental, refinement or atomic coordinate data resulting 
# from the CCDC's data processing and validation procedures.
#
#######################################################################

data_XICZAM
_chemical_formula_moiety         '(C12 H12 Hf3 O16 S2)n'
_symmetry_cell_setting           cubic
_symmetry_space_group_name_H-M   'F m -3 m'
_symmetry_Int_Tables_number      225
_space_group_name_Hall           '-F 4 2 3'
loop_
_symmetry_equiv_pos_site_id
_symmetry_equiv_pos_as_xyz
1 x,y,z
2 -x,-y,z
3 -x,y,-z
4 x,-y,-z
5 z,x,y
6 z,-x,-y
7 -z,-x,y
8 -z,x,-y
9 y,z,x
10 -y,z,-x
11 y,-z,-x
12 -y,-z,x
13 y,x,-z
14 -y,-x,-z
15 y,-x,z
16 -y,x,z
17 x,z,-y
18 -x,z,y
19 -x,-z,-y
20 x,-z,y
21 z,y,-x
22 z,-y,x
23 -z,y,x
24 -z,-y,-x
25 x,1/2+y,1/2+z
26 -x,1/2-y,1/2+z
27 -x,1/2+y,1/2-z
28 x,1/2-y,1/2-z
29 z,1/2+x,1/2+y
30 z,1/2-x,1/2-y
31 -z,1/2-x,1/2+y
32 -z,1/2+x,1/2-y
33 y,1/2+z,1/2+x
34 -y,1/2+z,1/2-x
35 y,1/2-z,1/2-x
36 -y,1/2-z,1/2+x
37 y,1/2+x,1/2-z
38 -y,1/2-x,1/2-z
39 y,1/2-x,1/2+z
40 -y,1/2+x,1/2+z
41 x,1/2+z,1/2-y
42 -x,1/2+z,1/2+y
43 -x,1/2-z,1/2-y
44 x,1/2-z,1/2+y
45 z,1/2+y,1/2-x
46 z,1/2-y,1/2+x
47 -z,1/2+y,1/2+x
48 -z,1/2-y,1/2-x
49 1/2+x,y,1/2+z
50 1/2-x,-y,1/2+z
51 1/2-x,y,1/2-z
52 1/2+x,-y,1/2-z
53 1/2+z,x,1/2+y
54 1/2+z,-x,1/2-y
55 1/2-z,-x,1/2+y
56 1/2-z,x,1/2-y
57 1/2+y,z,1/2+x
58 1/2-y,z,1/2-x
59 1/2+y,-z,1/2-x
60 1/2-y,-z,1/2+x
61 1/2+y,x,1/2-z
62 1/2-y,-x,1/2-z
63 1/2+y,-x,1/2+z
64 1/2-y,x,1/2+z
65 1/2+x,z,1/2-y
66 1/2-x,z,1/2+y
67 1/2-x,-z,1/2-y
68 1/2+x,-z,1/2+y
69 1/2+z,y,1/2-x
70 1/2+z,-y,1/2+x
71 1/2-z,y,1/2+x
72 1/2-z,-y,1/2-x
73 1/2+x,1/2+y,z
74 1/2-x,1/2-y,z
75 1/2-x,1/2+y,-z
76 1/2+x,1/2-y,-z
77 1/2+z,1/2+x,y
78 1/2+z,1/2-x,-y
79 1/2-z,1/2-x,y
80 1/2-z,1/2+x,-y
81 1/2+y,1/2+z,x
82 1/2-y,1/2+z,-x
83 1/2+y,1/2-z,-x
84 1/2-y,1/2-z,x
85 1/2+y,1/2+x,-z
86 1/2-y,1/2-x,-z
87 1/2+y,1/2-x,z
88 1/2-y,1/2+x,z
89 1/2+x,1/2+z,-y
90 1/2-x,1/2+z,y
91 1/2-x,1/2-z,-y
92 1/2+x,1/2-z,y
93 1/2+z,1/2+y,-x
94 1/2+z,1/2-y,x
95 1/2-z,1/2+y,x
96 1/2-z,1/2-y,-x
97 -x,-y,-z
98 x,y,-z
99 x,-y,z
100 -x,y,z
101 -z,-x,-y
102 -z,x,y
103 z,x,-y
104 z,-x,y
105 -y,-z,-x
106 y,-z,x
107 -y,z,x
108 y,z,-x
109 -y,-x,z
110 y,x,z
111 -y,x,-z
112 y,-x,-z
113 -x,-z,y
114 x,-z,-y
115 x,z,y
116 -x,z,-y
117 -z,-y,x
118 -z,y,-x
119 z,-y,-x
120 z,y,x
121 -x,1/2-y,1/2-z
122 x,1/2+y,1/2-z
123 x,1/2-y,1/2+z
124 -x,1/2+y,1/2+z
125 -z,1/2-x,1/2-y
126 -z,1/2+x,1/2+y
127 z,1/2+x,1/2-y
128 z,1/2-x,1/2+y
129 -y,1/2-z,1/2-x
130 y,1/2-z,1/2+x
131 -y,1/2+z,1/2+x
132 y,1/2+z,1/2-x
133 -y,1/2-x,1/2+z
134 y,1/2+x,1/2+z
135 -y,1/2+x,1/2-z
136 y,1/2-x,1/2-z
137 -x,1/2-z,1/2+y
138 x,1/2-z,1/2-y
139 x,1/2+z,1/2+y
140 -x,1/2+z,1/2-y
141 -z,1/2-y,1/2+x
142 -z,1/2+y,1/2-x
143 z,1/2-y,1/2-x
144 z,1/2+y,1/2+x
145 1/2-x,-y,1/2-z
146 1/2+x,y,1/2-z
147 1/2+x,-y,1/2+z
148 1/2-x,y,1/2+z
149 1/2-z,-x,1/2-y
150 1/2-z,x,1/2+y
151 1/2+z,x,1/2-y
152 1/2+z,-x,1/2+y
153 1/2-y,-z,1/2-x
154 1/2+y,-z,1/2+x
155 1/2-y,z,1/2+x
156 1/2+y,z,1/2-x
157 1/2-y,-x,1/2+z
158 1/2+y,x,1/2+z
159 1/2-y,x,1/2-z
160 1/2+y,-x,1/2-z
161 1/2-x,-z,1/2+y
162 1/2+x,-z,1/2-y
163 1/2+x,z,1/2+y
164 1/2-x,z,1/2-y
165 1/2-z,-y,1/2+x
166 1/2-z,y,1/2-x
167 1/2+z,-y,1/2-x
168 1/2+z,y,1/2+x
169 1/2-x,1/2-y,-z
170 1/2+x,1/2+y,-z
171 1/2+x,1/2-y,z
172 1/2-x,1/2+y,z
173 1/2-z,1/2-x,-y
174 1/2-z,1/2+x,y
175 1/2+z,1/2+x,-y
176 1/2+z,1/2-x,y
177 1/2-y,1/2-z,-x
178 1/2+y,1/2-z,x
179 1/2-y,1/2+z,x
180 1/2+y,1/2+z,-x
181 1/2-y,1/2-x,z
182 1/2+y,1/2+x,z
183 1/2-y,1/2+x,-z
184 1/2+y,1/2-x,-z
185 1/2-x,1/2-z,y
186 1/2+x,1/2-z,-y
187 1/2+x,1/2+z,y
188 1/2-x,1/2+z,-y
189 1/2-z,1/2-y,x
190 1/2-z,1/2+y,-x
191 1/2+z,1/2-y,-x
192 1/2+z,1/2+y,x
_cell_length_a                   39.010(5)
_cell_length_b                   39.010(5)
_cell_length_c                   39.010(5)
_cell_angle_alpha                90
_cell_angle_beta                 90
_cell_angle_gamma                90
_cell_volume                     59364.6
loop_
_atom_site_label
_atom_site_type_symbol
_atom_site_fract_x
_atom_site_fract_y
_atom_site_fract_z
_atom_site_U_iso_or_equiv
_atom_site_thermal_displace_type
Hf1 Hf 0.045125(9) 0.218264(7) 0.218264(7) 0.0211 Uani
Hf2 Hf 0.0000 0.205455(7) 0.294545(7) 0.0114 Uani
S1 S -0.11137(7) 0.11137(7) 0.25112(9) 0.0562 Uani
O1 O 0.0000 0.1964(3) 0.23953(19) 0.0570 Uani
O2 O 0.0442(3) 0.22822(17) 0.27178(17) 0.0660 Uani
O3 O -0.06421(15) 0.16924(15) 0.24236(15) 0.0517 Uani
O4 O -0.03405(11) 0.16063(12) 0.29117(12) 0.0270 Uani
O5 O 0.0427(3) 0.17913(15) 0.17913(15) 0.0613 Uani
O6 O 0.10054(19) 0.2231(3) 0.2231(3) 0.0780 Uani
C1 C -0.05727(18) 0.15344(18) 0.26964(19) 0.0340 Uani
C2 C -0.0789(2) 0.1231(2) 0.2782(2) 0.0510 Uani
C3 C -0.0773(3) 0.1027(3) 0.3062(3) 0.0817 Uani
H1 H -0.0611 0.1053 0.3236 0.0980 Uiso
O3DD O -0.16924(15) 0.06421(15) 0.24236(15) 0.0517 Uani
O4DD O -0.16063(12) 0.03405(11) 0.29117(12) 0.0270 Uani
C1DD C -0.15344(18) 0.05727(18) 0.26964(19) 0.0340 Uani
C2DD C -0.1231(2) 0.0789(2) 0.2782(2) 0.0510 Uani
C3DD C -0.1027(3) 0.0773(3) 0.3062(3) 0.0817 Uani
H1DD H -0.1053 0.0611 0.3236 0.0980 Uiso
S1N S 0.11137(7) 0.11137(7) 0.25112(9) 0.0562 Uani
O3N O 0.16924(15) 0.06421(15) 0.24236(15) 0.0517 Uani
O4N O 0.16063(12) 0.03405(11) 0.29117(12) 0.0270 Uani
C1N C 0.15344(18) 0.05727(18) 0.26964(19) 0.0340 Uani
C2N C 0.1231(2) 0.0789(2) 0.2782(2) 0.0510 Uani
C3N C 0.1027(3) 0.0773(3) 0.3062(3) 0.0817 Uani
H1N H 0.1053 0.0611 0.3236 0.0980 Uiso
O3UC O 0.06421(15) 0.16924(15) 0.24236(15) 0.0517 Uani
O4UC O 0.03405(11) 0.16063(12) 0.29117(12) 0.0270 Uani
C1UC C 0.05727(18) 0.15344(18) 0.26964(19) 0.0340 Uani
C2UC C 0.0789(2) 0.1231(2) 0.2782(2) 0.0510 Uani
C3UC C 0.0773(3) 0.1027(3) 0.3062(3) 0.0817 Uani
H1UC H 0.0611 0.1053 0.3236 0.0980 Uiso
Hf1Q Hf -0.045125(9) 0.218264(7) 0.218264(7) 0.0211 Uani
O1Q O 0.0000 0.23953(19) 0.1964(3) 0.0570 Uani
O2Q O -0.0442(3) 0.27178(17) 0.22822(17) 0.0660 Uani
O5Q O -0.0427(3) 0.17913(15) 0.17913(15) 0.0613 Uani
O6Q O -0.10054(19) 0.2231(3) 0.2231(3) 0.0780 Uani
Hf1D Hf 0.218264(7) 0.045125(9) 0.218264(7) 0.0211 Uani
Hf1O Hf -0.218264(7) 0.045125(9) 0.218264(7) 0.0211 Uani
Hf1AA Hf 0.045125(9) 0.281736(7) 0.281736(7) 0.0211 Uani
Hf1PA Hf -0.045125(9) 0.281736(7) 0.281736(7) 0.0211 Uani
Hf2N Hf 0.205455(7) 0.0000 0.294545(7) 0.0114 Uani
Hf2O Hf -0.205455(7) 0.0000 0.294545(7) 0.0114 Uani
Hf2Q Hf 0.0000 0.294545(7) 0.205455(7) 0.0114 Uani
O1PA O 0.0000 0.26047(19) 0.3036(3) 0.0570 Uani
O2AA O 0.0442(3) 0.27178(17) 0.22822(17) 0.0660 Uani
O2PA O -0.0442(3) 0.22822(17) 0.27178(17) 0.0660 Uani
O3Q O 0.06421(15) 0.24236(15) 0.16924(15) 0.0517 Uani
O3JD O -0.06421(15) 0.24236(15) 0.16924(15) 0.0517 Uani
O4PA O 0.03405(11) 0.20883(12) 0.33937(12) 0.0270 Uani
O4GE O -0.03405(11) 0.20883(12) 0.33937(12) 0.0270 Uani
loop_
_atom_site_aniso_label
_atom_site_aniso_U_11
_atom_site_aniso_U_22
_atom_site_aniso_U_33
_atom_site_aniso_U_23
_atom_site_aniso_U_13
_atom_site_aniso_U_12
Hf1 0.0192(2) 0.02207(17) 0.02207(17) 0.00762(12) 0.01003(9) 0.01003(9)
Hf2 0.0060(2) 0.01411(17) 0.01411(17) 0.00295(14) 0.000 0.000
S1 0.0553(12) 0.0553(12) 0.0579(17) 0.0351(13) -0.0351(13) -0.0420(15)
O1 0.018(3) 0.129(9) 0.024(4) 0.040(5) 0.000 0.000
O2 0.120(9) 0.039(3) 0.039(3) -0.020(4) 0.054(4) -0.054(4)
O3 0.056 0.049 0.05 0.027 -0.029 -0.041
O4 0.024(2) 0.024(2) 0.033(2) 0.0071(18) -0.0085(19) -0.0127(17)
O5 0.110(8) 0.037(3) 0.037(3) -0.007(4) 0.021(3) 0.021(3)
O6 0.014(3) 0.110(6) 0.110(6) 0.067(7) 0.013(4) 0.013(4)
C1 0.030(3) 0.033(3) 0.039(4) 0.015(3) -0.011(3) -0.017(3)
C2 0.050(5) 0.048(5) 0.055(5) 0.022(4) -0.025(4) -0.034(4)
C3 0.087(8) 0.081(7) 0.077(7) 0.051(6) -0.058(6) -0.067(7)
O3DD 0.049 0.056 0.05 0.029 -0.027 -0.041
O4DD 0.024 0.024 0.033 0.0085 -0.0071 -0.0127
C1DD 0.033 0.03 0.039 0.011 -0.015 -0.017
C2DD 0.048 0.05 0.055 0.025 -0.022 -0.034
C3DD 0.081 0.087 0.077 0.058 -0.051 -0.067
S1N 0.0553 0.0553 0.0579 0.0351 0.0351 0.042
O3N 0.049 0.056 0.05 0.029 0.027 0.041
O4N 0.024 0.024 0.033 0.0085 0.0071 0.0127
C1N 0.033 0.03 0.039 0.011 0.015 0.017
C2N 0.048 0.05 0.055 0.025 0.022 0.034
C3N 0.081 0.087 0.077 0.058 0.051 0.067
O3UC 0.056 0.049 0.05 0.027 0.029 0.041
O4UC 0.024 0.024 0.033 0.0071 0.0085 0.0127
C1UC 0.03 0.033 0.039 0.015 0.011 0.017
C2UC 0.05 0.048 0.055 0.022 0.025 0.034
C3UC 0.087 0.081 0.077 0.051 0.058 0.067
Hf1Q 0.0192 0.02207 0.02207 0.00762 -0.01003 -0.01003
O1Q 0.018 0.024 0.129 0.04 0 0
O2Q 0.12 0.039 0.039 -0.02 0.054 -0.054
O5Q 0.11 0.037 0.037 -0.007 -0.021 -0.021
O6Q 0.014 0.11 0.11 0.067 -0.013 -0.013
Hf1D 0.02207 0.0192 0.02207 0.01003 0.00762 0.01003
Hf1O 0.02207 0.0192 0.02207 0.01003 -0.00762 -0.01003
Hf1AA 0.0192 0.02207 0.02207 0.00762 -0.01003 -0.01003
Hf1PA 0.0192 0.02207 0.02207 0.00762 0.01003 0.01003
Hf2N 0.01411 0.006 0.01411 0 0.00295 0
Hf2O 0.01411 0.006 0.01411 0 -0.00295 0
Hf2Q 0.006 0.01411 0.01411 0.00295 0 0
O1PA 0.018 0.024 0.129 0.04 0 0
O2AA 0.12 0.039 0.039 -0.02 -0.054 0.054
O2PA 0.12 0.039 0.039 -0.02 -0.054 0.054
O3Q 0.056 0.05 0.049 0.027 0.041 0.029
O3JD 0.056 0.05 0.049 0.027 -0.041 -0.029
O4PA 0.024 0.033 0.024 0.0071 -0.0127 -0.0085
O4GE 0.024 0.033 0.024 0.0071 0.0127 0.0085
loop_
_geom_bond_atom_site_label_1
_geom_bond_atom_site_label_2
_geom_bond_site_symmetry_1
_geom_bond_site_symmetry_2
Hf1 O1 1_555 1_555
Hf2 O1 1_555 1_555
S1 C2 1_555 1_555
O1 Hf1Q 1_555 1_555
O2 Hf1 1_555 1_555
O3 C1 1_555 1_555
O4 Hf2 1_555 1_555
O5 Hf1 1_555 1_555
O6 Hf1 1_555 1_555
C1 O4 1_555 1_555
C2 C1 1_555 1_555
C3 C2 1_555 1_555
H1 C3 1_555 1_555
O3DD C1DD 1_555 1_555
O4DD C1DD 1_555 1_555
C1DD C2DD 1_555 1_555
C2DD S1 1_555 1_555
C3DD C3 1_555 1_555
H1DD C3DD 1_555 1_555
S1N C2N 1_555 1_555
O3N C1N 1_555 1_555
O4N C1N 1_555 1_555
C1N C2N 1_555 1_555
C2N C3N 1_555 1_555
C3N H1N 1_555 1_555
O3UC Hf1 1_555 1_555
O4UC Hf2 1_555 1_555
C1UC O3UC 1_555 1_555
C2UC S1N 1_555 1_555
C3UC C3N 1_555 1_555
H1UC C3UC 1_555 1_555
Hf1Q O3 1_555 1_555
O1Q Hf1 1_555 1_555
O2Q Hf1Q 1_555 1_555
O5Q Hf1Q 1_555 1_555
O6Q Hf1Q 1_555 1_555
Hf1D O3N 1_555 1_555
Hf1O O3DD 1_555 1_555
Hf1AA O2 1_555 1_555
Hf1PA O2Q 1_555 1_555
Hf2N O4N 1_555 1_555
Hf2O O4DD 1_555 1_555
Hf2Q O1Q 1_555 1_555
O1PA Hf2 1_555 1_555
O2AA Hf1 1_555 1_555
O2PA Hf2 1_555 1_555
O3Q Hf1 1_555 1_555
O3JD Hf1Q 1_555 1_555
O4PA Hf2 1_555 1_555
O4GE Hf2 1_555 1_555
Hf2 O2 1_555 1_555
C2DD C3DD 1_555 1_555
O4UC C1UC 1_555 1_555
C1UC C2UC 1_555 1_555
C2UC C3UC 1_555 1_555
Hf1Q O1Q 1_555 1_555
Hf1Q O2PA 1_555 1_555
O2Q Hf2Q 1_555 1_555
Hf1AA O1PA 1_555 1_555
Hf1AA O2AA 1_555 1_555
Hf1PA O1PA 1_555 1_555
Hf1PA O2PA 1_555 1_555
Hf2Q O2AA 1_555 1_555

#END
