
#######################################################################
#
#                 Cambridge Crystallographic Data Centre
#                                CCDC 
#
#######################################################################
#
# If this CIF has been generated from an entry in the Cambridge 
# Structural Database, then it will include bibliographic, chemical, 
# crystal, experimental, refinement or atomic coordinate data resulting 
# from the CCDC's data processing and validation procedures.
#
#######################################################################

data_NUDNEH
_chemical_formula_moiety         '(C24 H18 Mg3 N2 O10)n'
_symmetry_cell_setting           monoclinic
_symmetry_space_group_name_H-M   'C 2/c'
_symmetry_Int_Tables_number      15
_space_group_name_Hall           '-C 2yc'
loop_
_symmetry_equiv_pos_site_id
_symmetry_equiv_pos_as_xyz
1 x,y,z
2 -x,y,1/2-z
3 1/2+x,1/2+y,z
4 1/2-x,1/2+y,1/2-z
5 -x,-y,-z
6 x,-y,1/2+z
7 1/2-x,1/2-y,-z
8 1/2+x,1/2-y,1/2+z
_cell_length_a                   18.0488(5)
_cell_length_b                   12.7515(4)
_cell_length_c                   10.9978(3)
_cell_angle_alpha                90
_cell_angle_beta                 103.1300(10)
_cell_angle_gamma                90
_cell_volume                     2464.96
loop_
_atom_site_label
_atom_site_type_symbol
_atom_site_fract_x
_atom_site_fract_y
_atom_site_fract_z
N1 N 0.18565(11) -0.06677(17) 0.61203(19)
Mg1 Mg 0.08501(4) 0.03650(6) 0.54126(7)
Mg2 Mg 0.0000 0.09826(8) 0.7500
O1 O 0.07652(9) -0.01445(13) 0.72054(15)
O2 O 0.13326(10) -0.08933(14) 0.90084(15)
O3 O 0.35463(10) -0.33393(15) 0.86983(16)
O4 O 0.41701(10) -0.29029(14) 0.72387(17)
O5 O -0.02120(9) 0.08679(14) 0.55373(15)
H1 H -0.0376(17) 0.145(3) 0.528(3)
C1 C 0.19032(14) -0.10591(19) 0.7276(2)
C2 C 0.24655(14) -0.1741(2) 0.7859(2)
H2 H 0.2445(17) -0.194(2) 0.864(3)
C3 C 0.30175(14) -0.2043(2) 0.7225(2)
C4 C 0.29836(15) -0.1621(2) 0.6048(3)
H3 H 0.3362(19) -0.180(3) 0.559(3)
C5 C 0.23999(16) -0.0945(2) 0.5533(3)
H4 H 0.2322(18) -0.066(3) 0.466(3)
C6 C 0.12824(13) -0.06787(18) 0.7890(2)
C7 C 0.36325(14) -0.28269(19) 0.7775(2)
N1A N -0.18565(11) -0.06677(17) 0.88797(19)
Mg1A Mg -0.08501(4) 0.03650(6) 0.95874(7)
O1A O -0.07652(9) -0.01445(13) 0.77946(15)
O2A O -0.13326(10) -0.08933(14) 0.59916(15)
O3A O -0.35463(10) -0.33393(15) 0.63017(16)
O4A O -0.41701(10) -0.29029(14) 0.77613(17)
O5A O 0.02120(9) 0.08679(14) 0.94627(15)
H1A H 0.0376(17) 0.145(3) 0.972(3)
C1A C -0.19032(14) -0.10591(19) 0.7724(2)
C2A C -0.24655(14) -0.1741(2) 0.7141(2)
H2A H -0.2445(17) -0.194(2) 0.636(3)
C3A C -0.30175(14) -0.2043(2) 0.7775(2)
C4A C -0.29836(15) -0.1621(2) 0.8952(3)
H3A H -0.3362(19) -0.180(3) 0.941(3)
C5A C -0.23999(16) -0.0945(2) 0.9467(3)
H4A H -0.2322(18) -0.066(3) 1.034(3)
C6A C -0.12824(13) -0.06787(18) 0.7110(2)
C7A C -0.36325(14) -0.28269(19) 0.7225(2)
Mg1B Mg -0.41499(4) -0.46350(6) 0.54126(7)
Mg1C Mg 0.41499(4) -0.46350(6) 0.95874(7)
Mg1D Mg -0.08501(4) -0.03650(6) 0.45874(7)
Mg1E Mg 0.08501(4) -0.03650(6) 1.04126(7)
Mg2B Mg -0.5000 -0.40174(8) 0.7500
Mg2B_2 Mg 0.5000 -0.40174(8) 0.7500
O2D O -0.13326(10) 0.08933(14) 1.09916(15)
O2E O 0.13326(10) 0.08933(14) 0.40084(15)
O3B O -0.14537(10) 0.16607(15) 0.86983(16)
O3C O 0.14537(10) 0.16607(15) 0.63017(16)
O4B O -0.08299(10) 0.20971(14) 0.72387(17)
O4C O 0.08299(10) 0.20971(14) 0.77613(17)
O5D O 0.02120(9) -0.08679(14) 0.44627(15)
O5E O -0.02120(9) -0.08679(14) 1.05373(15)
C8 C 0.3717(9) 0.0988(12) 0.720(2)
H5 H 0.3832 0.0320 0.7578
H6 H 0.3409 0.1467 0.7527
C9 C 0.4497(7) 0.0570(10) 0.5574(13)
C10 C 0.5315(7) 0.0492(10) 0.4116(14)
H7 H 0.5513 0.0828 0.3488
C11 C 0.4858(7) 0.1025(8) 0.4705(12)
H8 H 0.4775 0.1750 0.4522
C12 C 0.4012(7) 0.1275(12) 0.6134(12)
H9 H 0.3890 0.1948 0.5773
C8D C 0.6283(9) -0.0988(12) 0.280(2)
H5D H 0.6168 -0.0320 0.2422
H6D H 0.6591 -0.1467 0.2473
C9D C 0.5503(7) -0.0570(10) 0.4426(13)
C10D C 0.4685(7) -0.0492(10) 0.5884(14)
H7D H 0.4487 -0.0828 0.6512
C11D C 0.5142(7) -0.1025(8) 0.5295(12)
H8D H 0.5225 -0.1750 0.5478
C12D C 0.5988(7) -0.1275(12) 0.3866(12)
H9D H 0.6110 -0.1948 0.4227
loop_
_geom_bond_atom_site_label_1
_geom_bond_atom_site_label_2
_geom_bond_site_symmetry_1
_geom_bond_site_symmetry_2
N1 Mg1 1_555 1_555
Mg1 O1 1_555 1_555
Mg2 O1 1_555 1_555
O1 C6 1_555 1_555
O2 C6 1_555 1_555
O3 C7 1_555 1_555
O4 C7 1_555 1_555
O5 Mg1 1_555 1_555
H1 O5 1_555 1_555
C1 N1 1_555 1_555
C2 C1 1_555 1_555
H2 C2 1_555 1_555
C3 C2 1_555 1_555
C4 C3 1_555 1_555
H3 C4 1_555 1_555
C5 N1 1_555 1_555
H4 C5 1_555 1_555
C6 C1 1_555 1_555
C7 C3 1_555 1_555
C8 H5 1_555 1_555
H6 C8 1_555 1_555
C9 C11 1_555 1_555
C10 H7 1_555 1_555
C11 C10 1_555 1_555
H8 C11 1_555 1_555
C12 C8 1_555 1_555
H9 C12 1_555 1_555
N1A Mg1A 1_555 1_555
Mg1A O1A 1_555 1_555
O1A Mg2 1_555 1_555
O2A C6A 1_555 1_555
O3A C7A 1_555 1_555
O4A C7A 1_555 1_555
O5A Mg2 1_555 1_555
H1A O5A 1_555 1_555
C1A N1A 1_555 1_555
C2A C1A 1_555 1_555
H2A C2A 1_555 1_555
C3A C2A 1_555 1_555
C4A C3A 1_555 1_555
H3A C4A 1_555 1_555
C5A N1A 1_555 1_555
H4A C5A 1_555 1_555
C6A O1A 1_555 1_555
C7A C3A 1_555 1_555
Mg1B O3A 1_555 1_555
Mg1C O3 1_555 1_555
Mg1D O5 1_555 1_555
Mg1E O2 1_555 1_555
Mg2B O4A 1_555 1_555
Mg2B_2 O4 1_555 1_555
O2D Mg1A 1_555 1_555
O2E Mg1 1_555 1_555
O3B Mg1A 1_555 1_555
O3C Mg1 1_555 1_555
O4B Mg2 1_555 1_555
O4C Mg2 1_555 1_555
O5D Mg1 1_555 1_555
O5E Mg1A 1_555 1_555
C8D H5D 1_555 1_555
H6D C8D 1_555 1_555
C9D C10 1_555 1_555
C10D C9 1_555 1_555
H7D C10D 1_555 1_555
C11D C9D 1_555 1_555
H8D C11D 1_555 1_555
C12D C8D 1_555 1_555
H9D C12D 1_555 1_555
Mg2 O5 1_555 1_555
C4 C5 1_555 1_555
C9 C12 1_555 1_555
Mg1A O5A 1_555 1_555
O2A Mg1D 1_555 1_555
O5A Mg1E 1_555 1_555
C1A C6A 1_555 1_555
C4A C5A 1_555 1_555
Mg1D O5D 1_555 1_555
Mg1E O5E 1_555 1_555
C9D C12D 1_555 1_555
C10D C11D 1_555 1_555

#END
