
#######################################################################
#
#                 Cambridge Crystallographic Data Centre
#                                CCDC 
#
#######################################################################
#
# If this CIF has been generated from an entry in the Cambridge 
# Structural Database, then it will include bibliographic, chemical, 
# crystal, experimental, refinement or atomic coordinate data resulting 
# from the CCDC's data processing and validation procedures.
#
#######################################################################

data_PEWDAY
_chemical_formula_moiety         'C27 H37 N4 O13 Zn7'
_symmetry_cell_setting           orthorhombic
_symmetry_space_group_name_H-M   'P 21 21 2'
_symmetry_Int_Tables_number      18
_space_group_name_Hall           'P 2 2ab'
loop_
_symmetry_equiv_pos_site_id
_symmetry_equiv_pos_as_xyz
1 x,y,z
2 -x,-y,z
3 1/2+x,1/2-y,-z
4 1/2-x,1/2+y,-z
_cell_length_a                   13.455(2)
_cell_length_b                   13.564(3)
_cell_length_c                   9.700(2)
_cell_angle_alpha                90
_cell_angle_beta                 90
_cell_angle_gamma                90
_cell_volume                     1770.29
loop_
_atom_site_label
_atom_site_type_symbol
_atom_site_fract_x
_atom_site_fract_y
_atom_site_fract_z
_atom_site_U_iso_or_equiv
_atom_site_thermal_displace_type
O5 O 0.78563 0.34644 0.51087 0.0380 Uiso
N3 N 0.64551 0.43389 0.47964 0.0380 Uiso
C13 C 0.74087 0.42474 0.50233 0.0380 Uiso
C14 C 0.58025 0.35023 0.47692 0.0380 Uiso
C15 C 0.59985 0.53039 0.46482 0.0380 Uiso
H16 H 0.77759 0.48233 0.51283 0.0380 Uiso
H17 H 0.61832 0.29143 0.46138 0.0380 Uiso
H18 H 0.53266 0.35815 0.40404 0.0380 Uiso
H19 H 0.54611 0.34517 0.56352 0.0380 Uiso
H20 H 0.65058 0.57906 0.45034 0.0380 Uiso
H21 H 0.56334 0.54604 0.54697 0.0380 Uiso
H22 H 0.55547 0.52983 0.38735 0.0380 Uiso
Zn1 Zn 0.50000 0.00000 0.84593 0.0020 Uiso
Zn2 Zn 0.50000 0.00000 1.14538 0.0049 Uiso
O1 O 0.13940 0.44750 1.11880 0.0280 Uiso
O2 O 0.14770 0.47690 0.89040 0.0270 Uiso
O3 O 0.44750 0.13940 0.88120 0.0280 Uiso
O4 O 0.47690 0.14770 1.10960 0.0270 Uiso
N1 N 0.50000 0.00000 1.62197 0.0380 Uiso
C1 C 0.18510 0.45080 1.00430 0.0200 Uiso
C2 C 0.29510 0.42120 1.00380 0.0297 Uiso
C3 C 0.34420 0.48480 1.13510 0.0522 Uiso
C4 C 0.31130 0.30630 1.05210 0.0237 Uiso
C5 C 0.35190 0.43190 0.87770 0.0359 Uiso
C6 C 0.24280 0.24470 0.95620 0.0428 Uiso
C7 C 0.43530 0.35240 0.87590 0.0332 Uiso
C8 C 0.28920 0.27420 1.19870 0.0510 Uiso
C9 C 0.45080 0.18510 0.99570 0.0200 Uiso
C10 C 0.42120 0.29510 0.99620 0.0297 Uiso
H1 H 0.33527 0.55408 1.11911 0.0760 Uiso
H2 H 0.41385 0.47026 1.14197 0.0760 Uiso
H3 H 0.30860 0.42289 0.79875 0.0507 Uiso
H4 H 0.38136 0.49712 0.87413 0.0507 Uiso
H5 H 0.26230 0.25464 0.86202 0.0633 Uiso
H6 H 0.24879 0.17612 0.97922 0.0633 Uiso
H7 H 0.42953 0.31147 0.79429 0.0507 Uiso
H8 H 0.33030 0.31080 1.26135 0.0633 Uiso
H9 H 0.22049 0.28648 1.21909 0.0633 Uiso
H10 H 0.30288 0.20506 1.20813 0.0633 Uiso
H11 H 0.46343 0.32577 1.06647 0.0507 Uiso
H12 H 0.48687 0.41457 0.87511 0.0760 Uiso
H13 H 0.17625 0.26272 1.04195 0.0507 Uiso
H14 H 0.31097 0.42996 1.20560 0.0507 Uiso
N2 N 0.50000 0.00000 1.35191 0.0380 Uiso
C11 C 0.50245 0.08359 1.41943 0.0380 Uiso
H15 H 0.50439 0.14996 1.36582 0.0380 Uiso
C12 C 0.50245 0.08359 1.55446 0.0380 Uiso
C11A C 0.49755 -0.08359 1.41943 0.0380 Uiso
H15A H 0.49561 -0.14996 1.36582 0.0380 Uiso
C12A C 0.49755 -0.08359 1.55446 0.0380 Uiso
O1A O 0.86060 -0.44750 1.11880 0.0280 Uiso
O2A O 0.85230 -0.47690 0.89040 0.0270 Uiso
O3A O 0.55250 -0.13940 0.88120 0.0280 Uiso
O4A O 0.52310 -0.14770 1.10960 0.0270 Uiso
C1A C 0.81490 -0.45080 1.00430 0.0200 Uiso
C2A C 0.70490 -0.42120 1.00380 0.0297 Uiso
C3A C 0.65580 -0.48480 1.13510 0.0522 Uiso
C4A C 0.68870 -0.30630 1.05210 0.0237 Uiso
C5A C 0.64810 -0.43190 0.87770 0.0359 Uiso
C6A C 0.75720 -0.24470 0.95620 0.0428 Uiso
C7A C 0.56470 -0.35240 0.87590 0.0332 Uiso
C8A C 0.71080 -0.27420 1.19870 0.0510 Uiso
C9A C 0.54920 -0.18510 0.99570 0.0200 Uiso
C10A C 0.57880 -0.29510 0.99620 0.0297 Uiso
H1A H 0.66473 -0.55408 1.11911 0.0760 Uiso
H2A H 0.58615 -0.47026 1.14197 0.0760 Uiso
H3A H 0.69140 -0.42289 0.79875 0.0507 Uiso
H4A H 0.61864 -0.49712 0.87413 0.0507 Uiso
H5A H 0.73770 -0.25464 0.86202 0.0633 Uiso
H6A H 0.75121 -0.17612 0.97922 0.0633 Uiso
H7A H 0.57047 -0.31147 0.79429 0.0507 Uiso
H8A H 0.66970 -0.31080 1.26135 0.0633 Uiso
H9A H 0.77951 -0.28648 1.21909 0.0633 Uiso
H10A H 0.69712 -0.20506 1.20813 0.0633 Uiso
H11A H 0.53657 -0.32577 1.06647 0.0507 Uiso
H12A H 0.51313 -0.41457 0.87511 0.0760 Uiso
H13A H 0.82375 -0.26272 1.04195 0.0507 Uiso
H14A H 0.68903 -0.42996 1.20560 0.0507 Uiso
Zn1_2 Zn 0.50000 0.00000 1.84593 0.0020 Uiso
Zn1B Zn -0.00000 0.50000 1.15407 0.0020 Uiso
Zn1B_2 Zn 1.00000 -0.50000 1.15407 0.0020 Uiso
Zn2B Zn 0.00000 0.50000 0.85462 0.0049 Uiso
Zn2B_2 Zn 1.00000 -0.50000 0.85462 0.0049 Uiso
O1B O 0.63940 0.05250 0.88120 0.0280 Uiso
O1C O 0.36060 -0.05250 0.88120 0.0280 Uiso
O2B O 0.64770 0.02310 1.10960 0.0270 Uiso
O2C O 0.35230 -0.02310 1.10960 0.0270 Uiso
N1_2 N 0.50000 0.00000 0.62197 0.0380 Uiso
loop_
_geom_bond_atom_site_label_1
_geom_bond_atom_site_label_2
_geom_bond_site_symmetry_1
_geom_bond_site_symmetry_2
Zn1 O3 1_555 1_555
Zn2 O4 1_555 1_555
O1 C1 1_555 1_555
O2 C1 1_555 1_555
O3 C9 1_555 1_555
O4 C9 1_555 1_555
N1 C12 1_555 1_555
C1 C2 1_555 1_555
C2 C3 1_555 1_555
C3 H1 1_555 1_555
C4 C2 1_555 1_555
C5 C2 1_555 1_555
C6 C4 1_555 1_555
C7 C5 1_555 1_555
C8 C4 1_555 1_555
C9 C10 1_555 1_555
C10 C4 1_555 1_555
H2 C3 1_555 1_555
H3 C5 1_555 1_555
H4 C5 1_555 1_555
H5 C6 1_555 1_555
H6 C6 1_555 1_555
H7 C7 1_555 1_555
H8 C8 1_555 1_555
H9 C8 1_555 1_555
H10 C8 1_555 1_555
H11 C10 1_555 1_555
H12 C7 1_555 1_555
H13 C6 1_555 1_555
H14 C3 1_555 1_555
N2 Zn2 1_555 1_555
C11 N2 1_555 1_555
H15 C11 1_555 1_555
C12 C11 1_555 1_555
O5 C13 1_555 1_555
N3 C13 1_555 1_555
C13 H16 1_555 1_555
C14 N3 1_555 1_555
C15 N3 1_555 1_555
H17 C14 1_555 1_555
H18 C14 1_555 1_555
H19 C14 1_555 1_555
H20 C15 1_555 1_555
H21 C15 1_555 1_555
H22 C15 1_555 1_555
C11A N2 1_555 1_555
H15A C11A 1_555 1_555
C12A N1 1_555 1_555
O1A C1A 1_555 1_555
O2A C1A 1_555 1_555
O3A Zn1 1_555 1_555
O4A Zn2 1_555 1_555
C1A C2A 1_555 1_555
C2A C3A 1_555 1_555
C3A H1A 1_555 1_555
C4A C2A 1_555 1_555
C5A C2A 1_555 1_555
C6A C4A 1_555 1_555
C7A C5A 1_555 1_555
C8A C4A 1_555 1_555
C9A O3A 1_555 1_555
C10A C4A 1_555 1_555
H2A C3A 1_555 1_555
H3A C5A 1_555 1_555
H4A C5A 1_555 1_555
H5A C6A 1_555 1_555
H6A C6A 1_555 1_555
H7A C7A 1_555 1_555
H8A C8A 1_555 1_555
H9A C8A 1_555 1_555
H10A C8A 1_555 1_555
H11A C10A 1_555 1_555
H12A C7A 1_555 1_555
H13A C6A 1_555 1_555
H14A C3A 1_555 1_555
Zn1_2 N1 1_555 1_555
Zn1B O1 1_555 1_555
Zn1B_2 O1A 1_555 1_555
Zn2B O2 1_555 1_555
Zn2B_2 O2A 1_555 1_555
O1B Zn1 1_555 1_555
O1C Zn1 1_555 1_555
O2B Zn2 1_555 1_555
O2C Zn2 1_555 1_555
N1_2 Zn1 1_555 1_555
C7 C10 1_555 1_555
C11A C12A 1_555 1_555
O4A C9A 1_555 1_555
C7A C10A 1_555 1_555
C9A C10A 1_555 1_555

#END
