
#######################################################################
#
#                 Cambridge Crystallographic Data Centre
#                                CCDC 
#
#######################################################################
#
# If this CIF has been generated from an entry in the Cambridge 
# Structural Database, then it will include bibliographic, chemical, 
# crystal, experimental, refinement or atomic coordinate data resulting 
# from the CCDC's data processing and validation procedures.
#
#######################################################################

data_MAQLUO
_chemical_formula_moiety         '(C48 H28 N2 O12 Zn3)n'
_symmetry_cell_setting           monoclinic
_symmetry_space_group_name_H-M   'C 2/c'
_symmetry_Int_Tables_number      15
_space_group_name_Hall           '-C 2yc'
loop_
_symmetry_equiv_pos_site_id
_symmetry_equiv_pos_as_xyz
1 x,y,z
2 -x,y,1/2-z
3 1/2+x,1/2+y,z
4 1/2-x,1/2+y,1/2-z
5 -x,-y,-z
6 x,-y,1/2+z
7 1/2-x,1/2-y,-z
8 1/2+x,1/2-y,1/2+z
_cell_length_a                   42.213(3)
_cell_length_b                   9.4323(9)
_cell_length_c                   46.063(3)
_cell_angle_alpha                90
_cell_angle_beta                 156.243(2)
_cell_angle_gamma                90
_cell_volume                     7388.71
loop_
_atom_site_label
_atom_site_type_symbol
_atom_site_fract_x
_atom_site_fract_y
_atom_site_fract_z
C1 C 0.4268(3) 0.1691(6) 0.5597(3)
H1 H 0.4799 0.1844 0.6005
C2 C 0.3953(3) 0.2071(7) 0.5601(3)
H2 H 0.4270 0.2469 0.6010
C3 C 0.2734(3) 0.1122(11) 0.4428(3)
H3 H 0.2214 0.0884 0.4031
C4 C 0.3062(4) 0.0743(11) 0.4443(4)
H4 H 0.2767 0.0232 0.4062
C5 C 0.3161(3) 0.1847(6) 0.4988(3)
C6 C 0.2827(3) 0.2179(7) 0.5001(3)
C7 C 0.2196(7) 0.3163(12) 0.4491(6)
C8 C 0.1877(7) 0.3514(12) 0.4504(6)
C9 C 0.1259(6) 0.4536(11) 0.4003(6)
H5 H 0.1049 0.4771 0.4007
C10 C 0.0981(7) 0.5156(13) 0.3532(6)
H6 H 0.0577 0.5815 0.3211
C11 C 0.1282(7) 0.4839(12) 0.3507(6)
H7 H 0.1081 0.5291 0.3175
C12 C 0.1850(6) 0.3899(11) 0.3957(6)
H8 H 0.2038 0.3699 0.3930
C13 C 0.4869(2) 0.2641(4) 0.5281(2)
C14 C 0.4934(2) 0.3859(4) 0.5131(2)
C15 C 0.5441(2) 0.4960(4) 0.5623(2)
H9 H 0.5734 0.4930 0.6039
C16 C 0.4485(2) 0.3896(4) 0.4501(2)
H10 H 0.4140 0.3160 0.4168
C17 C 0.8550(2) -0.3553(4) 0.9042(2)
C18 C 0.7851(2) -0.2815(4) 0.8330(2)
C19 C 0.7839(2) -0.2408(5) 0.8030(2)
H11 H 0.8280 -0.2559 0.8284
C20 C 0.5793(2) -0.0907(4) 0.6242(2)
C21 C 0.6514(2) -0.1565(5) 0.6973(2)
C22 C 0.6522(2) -0.1951(5) 0.7269(2)
H12 H 0.6082 -0.1788 0.7016
C23 C 0.7186(2) -0.2584(5) 0.7946(2)
H13 H 0.7189 -0.2852 0.8142
C24 C 0.7177(2) -0.1780(5) 0.7357(2)
H14 H 0.7174 -0.1502 0.7161
N1 N 0.3811(2) 0.1105(4) 0.50089(19)
O1 O 0.44845(15) 0.1537(3) 0.48657(14)
O2 O 0.5141(2) 0.2692(3) 0.57554(19)
O3 O 0.91707(16) -0.3551(3) 0.94212(14)
O4 O 0.84439(16) -0.4151(3) 0.91945(15)
O5 O 0.52192(16) -0.0743(3) 0.59374(14)
O6 O 0.57980(16) -0.0598(3) 0.59822(14)
Zn1 Zn 0.43032(2) 0.03373(4) 0.50584(2)
Zn2 Zn 0.5000 0.0000 0.5000
C1F C 0.0732(3) 0.3309(6) 0.4403(3)
H1F H 0.0201 0.3156 0.3995
C2F C 0.1047(3) 0.2929(7) 0.4399(3)
H2F H 0.0730 0.2531 0.3990
C3F C 0.2266(3) 0.3878(11) 0.5572(3)
H3F H 0.2786 0.4116 0.5969
C4F C 0.1938(4) 0.4257(11) 0.5557(4)
H4F H 0.2233 0.4768 0.5938
C5F C 0.1839(3) 0.3153(6) 0.5012(3)
C6F C 0.2173(3) 0.2821(7) 0.4999(3)
C7F C 0.2804(7) 0.1837(12) 0.5509(6)
C8F C 0.3123(7) 0.1486(12) 0.5496(6)
C9F C 0.3741(6) 0.0464(11) 0.5997(6)
H5F H 0.3951 0.0229 0.5993
C10F C 0.4019(7) -0.0156(13) 0.6468(6)
H6F H 0.4423 -0.0815 0.6789
C11F C 0.3718(7) 0.0161(12) 0.6493(6)
H7F H 0.3919 -0.0291 0.6825
C12F C 0.3150(6) 0.1101(11) 0.6043(6)
H8F H 0.2962 0.1301 0.6070
N1F N 0.1189(2) 0.3895(4) 0.49911(19)
C13D C 0.5131(2) 0.7359(4) 0.4719(2)
C14D C 0.5066(2) 0.6141(4) 0.4869(2)
C15D C 0.4559(2) 0.5040(4) 0.4377(2)
H9D H 0.4266 0.5070 0.3961
C16D C 0.5515(2) 0.6104(4) 0.5499(2)
H10D H 0.5860 0.6840 0.5832
O1D O 0.55155(15) 0.8463(3) 0.51343(14)
O2D O 0.4859(2) 0.7308(3) 0.42446(19)
C17D C 0.1450(2) 0.3553(4) 0.0958(2)
C18D C 0.2149(2) 0.2815(4) 0.1670(2)
C19D C 0.2161(2) 0.2408(5) 0.1970(2)
H11D H 0.1720 0.2559 0.1716
C20D C 0.4207(2) 0.0907(4) 0.3758(2)
C21D C 0.3486(2) 0.1565(5) 0.3027(2)
C22D C 0.3478(2) 0.1951(5) 0.2731(2)
H12D H 0.3918 0.1788 0.2984
C23D C 0.2814(2) 0.2584(5) 0.2054(2)
H13D H 0.2811 0.2852 0.1858
C24D C 0.2823(2) 0.1780(5) 0.2643(2)
H14D H 0.2826 0.1502 0.2839
O3D O 0.08293(16) 0.3551(3) 0.05788(14)
O4D O 0.15561(16) 0.4151(3) 0.08055(15)
O5D O 0.47808(16) 0.0743(3) 0.40626(14)
O6D O 0.42020(16) 0.0598(3) 0.40178(14)
Zn1D Zn 0.56968(2) -0.03373(4) 0.49416(2)
N1D N 0.6189(2) -0.1105(4) 0.49911(19)
O1D_2 O 0.55155(15) -0.1537(3) 0.51343(14)
O3C O 0.58293(16) 0.1449(3) 0.55788(14)
O3G O 0.41707(16) -0.1449(3) 0.44212(14)
O4C O 0.65561(16) 0.0849(3) 0.58055(15)
O4G O 0.34439(16) -0.0849(3) 0.41945(15)
Zn1C Zn 0.06968(2) 0.53373(4) -0.00584(2)
Zn1D_2 Zn 0.56968(2) 0.96627(4) 0.49416(2)
Zn1F Zn 0.06968(2) 0.46627(4) 0.49416(2)
Zn1G Zn 0.93032(2) -0.53373(4) 1.00584(2)
Zn2_2 Zn 0.5000 1.0000 0.5000
Zn2C Zn 0.0000 0.5000 0.0000
Zn2C_2 Zn 1.0000 -0.5000 1.0000
loop_
_geom_bond_atom_site_label_1
_geom_bond_atom_site_label_2
_geom_bond_site_symmetry_1
_geom_bond_site_symmetry_2
C1 H1 1_555 1_555
C2 C1 1_555 1_555
H2 C2 1_555 1_555
C3 H3 1_555 1_555
C4 C3 1_555 1_555
H4 C4 1_555 1_555
C5 C2 1_555 1_555
C6 C5 1_555 1_555
C7 C6 1_555 1_555
C8 C7 1_555 1_555
C9 C8 1_555 1_555
H5 C9 1_555 1_555
C10 C9 1_555 1_555
H6 C10 1_555 1_555
C11 C10 1_555 1_555
H7 C11 1_555 1_555
C12 C7 1_555 1_555
H8 C12 1_555 1_555
C13 C14 1_555 1_555
C14 C15 1_555 1_555
C15 H9 1_555 1_555
C16 C14 1_555 1_555
H10 C16 1_555 1_555
C17 C18 1_555 1_555
C18 C19 1_555 1_555
C19 H11 1_555 1_555
C20 C21 1_555 1_555
C21 C22 1_555 1_555
C22 H12 1_555 1_555
C23 C18 1_555 1_555
H13 C23 1_555 1_555
C24 C19 1_555 1_555
H14 C24 1_555 1_555
N1 C1 1_555 1_555
O1 C13 1_555 1_555
O2 C13 1_555 1_555
O3 C17 1_555 1_555
O4 C17 1_555 1_555
O5 C20 1_555 1_555
O6 C20 1_555 1_555
Zn1 N1 1_555 1_555
Zn2 O1 1_555 1_555
C1F H1F 1_555 1_555
C2F C1F 1_555 1_555
H2F C2F 1_555 1_555
C3F H3F 1_555 1_555
C4F C3F 1_555 1_555
H4F C4F 1_555 1_555
C5F C2F 1_555 1_555
C6F C8 1_555 1_555
C7F C6F 1_555 1_555
C8F C6 1_555 1_555
C9F C8F 1_555 1_555
H5F C9F 1_555 1_555
C10F C9F 1_555 1_555
H6F C10F 1_555 1_555
C11F C10F 1_555 1_555
H7F C11F 1_555 1_555
C12F C7F 1_555 1_555
H8F C12F 1_555 1_555
N1F C1F 1_555 1_555
C13D C14D 1_555 1_555
C14D C15D 1_555 1_555
C15D C16 1_555 1_555
H9D C15D 1_555 1_555
C16D C15 1_555 1_555
H10D C16D 1_555 1_555
O1D C13D 1_555 1_555
O2D C13D 1_555 1_555
C17D C18D 1_555 1_555
C18D C19D 1_555 1_555
C19D H11D 1_555 1_555
C20D C21D 1_555 1_555
C21D C22D 1_555 1_555
C22D H12D 1_555 1_555
C23D C18D 1_555 1_555
H13D C23D 1_555 1_555
C24D C19D 1_555 1_555
H14D C24D 1_555 1_555
O3D C17D 1_555 1_555
O4D C17D 1_555 1_555
O5D C20D 1_555 1_555
O6D Zn2 1_555 1_555
Zn1D O5D 1_555 1_555
N1D Zn1D 1_555 1_555
O1D_2 Zn2 1_555 1_555
O3C Zn2 1_555 1_555
O3G Zn2 1_555 1_555
O4C Zn1D 1_555 1_555
O4G Zn1 1_555 1_555
Zn1C O4D 1_555 1_555
Zn1D_2 O1D 1_555 1_555
Zn1F N1F 1_555 1_555
Zn1G O4 1_555 1_555
Zn2_2 O1D 1_555 1_555
Zn2C O3D 1_555 1_555
Zn2C_2 O3 1_555 1_555
C3 C5 1_555 1_555
C4 N1 1_555 1_555
C11 C12 1_555 1_555
C21 C24 1_555 1_555
C22 C23 1_555 1_555
O1 Zn1 1_555 1_555
O5 Zn1 1_555 1_555
O6 Zn2 1_555 1_555
C3F C5F 1_555 1_555
C4F N1F 1_555 1_555
C5F C6F 1_555 1_555
C7F C8F 1_555 1_555
C11F C12F 1_555 1_555
C14D C16D 1_555 1_555
C20D O6D 1_555 1_555
C21D C24D 1_555 1_555
C22D C23D 1_555 1_555
Zn1D O1D_2 1_555 1_555

#END
