
#######################################################################
#
#                 Cambridge Crystallographic Data Centre
#                                CCDC 
#
#######################################################################
#
# If this CIF has been generated from an entry in the Cambridge 
# Structural Database, then it will include bibliographic, chemical, 
# crystal, experimental, refinement or atomic coordinate data resulting 
# from the CCDC's data processing and validation procedures.
#
#######################################################################

data_MAQMAV
_chemical_formula_moiety         '(C96 H60 Cd2 N6 O8)n'
_symmetry_cell_setting           triclinic
_symmetry_space_group_name_H-M   'P -1'
_symmetry_Int_Tables_number      2
_space_group_name_Hall           '-P 1'
loop_
_symmetry_equiv_pos_site_id
_symmetry_equiv_pos_as_xyz
1 x,y,z
2 -x,-y,-z
_cell_length_a                   9.1668(12)
_cell_length_b                   13.6510(16)
_cell_length_c                   22.598(3)
_cell_angle_alpha                74.887(5)
_cell_angle_beta                 84.345(6)
_cell_angle_gamma                88.071(8)
_cell_volume                     2716.64
loop_
_atom_site_label
_atom_site_type_symbol
_atom_site_fract_x
_atom_site_fract_y
_atom_site_fract_z
C1 C 0.7209(4) 0.3565(2) 0.24521(15)
H1 H 0.7196 0.3894 0.2765
C2 C 0.8077(4) 0.2709(2) 0.24879(15)
H2 H 0.8628 0.2469 0.2821
C3 C 0.8124(3) 0.2212(2) 0.20269(14)
C4 C 0.7286(3) 0.2609(2) 0.15377(14)
H3 H 0.7302 0.2301 0.1215
C5 C 0.6433(3) 0.3460(2) 0.15328(13)
H4 H 0.5870 0.3713 0.1205
C6 C 0.9067(3) 0.1281(2) 0.20491(14)
C7 C 0.8439(3) 0.0314(2) 0.22899(15)
C8 C 0.6914(4) 0.0180(3) 0.24949(18)
H5 H 0.6311 0.0749 0.2466
C9 C 0.6324(4) -0.0753(3) 0.2730(2)
H6 H 0.5322 -0.0817 0.2845
C10 C 0.7233(4) -0.1639(3) 0.28016(19)
H7 H 0.6830 -0.2276 0.2978
C11 C 0.8689(4) -0.1550(2) 0.26115(16)
H8 H 0.9269 -0.2132 0.2656
C12 C 0.9348(3) -0.0577(2) 0.23437(15)
C13 C 1.0839(3) -0.0473(2) 0.21290(14)
C14 C 1.1465(3) 0.0498(2) 0.18802(14)
C15 C 1.2992(3) 0.0624(2) 0.16808(15)
H9 H 1.3589 0.0054 0.1699
C16 C 1.3586(4) 0.1567(2) 0.14638(16)
H10 H 1.4584 0.1635 0.1341
C17 C 1.2684(4) 0.2451(3) 0.14235(17)
H11 H 1.3098 0.3092 0.1274
C18 C 1.1236(4) 0.2364(2) 0.16002(16)
H12 H 1.0661 0.2947 0.1563
C19 C 1.0562(3) 0.1390(2) 0.18448(14)
C20 C 0.3016(4) 0.5112(2) 0.11510(15)
C21 C 0.1716(3) 0.5089(2) 0.07930(14)
C22 C 0.0282(3) 0.5113(2) 0.10846(14)
H13 H 0.0147 0.5153 0.1491
C23 C -0.0911(3) 0.5077(2) 0.07687(13)
H14 H -0.1851 0.5095 0.0963
C24 C -0.0722(3) 0.5011(2) 0.01443(13)
C25 C 0.1930(3) 0.5031(2) 0.01951(14)
H15 H 0.2880 0.5020 0.0009
C26 C 0.5323(3) 0.5214(2) 0.31933(13)
C27 C 0.5412(3) 0.5216(2) 0.38542(13)
C28 C 0.6585(3) 0.5713(3) 0.40151(14)
H16 H 0.7303 0.6029 0.3712
C29 C 0.6672(3) 0.5734(3) 0.46113(14)
H17 H 0.7445 0.6066 0.4711
C30 C 0.5588(3) 0.5252(2) 0.50780(13)
C31 C 0.4346(3) 0.4747(2) 0.42953(13)
H18 H 0.3575 0.4427 0.4185
C32 C 1.2914(4) -0.2579(3) 0.16201(15)
H19 H 1.3051 -0.2810 0.1266
C33 C 1.2028(4) -0.1745(3) 0.16138(16)
H20 H 1.1588 -0.1422 0.1260
C34 C 1.1790(3) -0.1385(2) 0.21347(14)
C35 C 1.2488(3) -0.1889(2) 0.26442(15)
H21 H 1.2363 -0.1673 0.3004
C36 C 1.3377(3) -0.2723(2) 0.26133(14)
H22 H 1.3847 -0.3051 0.2958
C37 C 0.6527(3) 0.6892(2) 0.06735(13)
H23 H 0.6006 0.6515 0.0478
C38 C 0.7379(3) 0.7697(2) 0.03137(14)
H24 H 0.7424 0.7845 -0.0113
C39 C 0.8154(3) 0.8271(2) 0.05915(14)
C40 C 0.8030(5) 0.8019(3) 0.12295(16)
H25 H 0.8521 0.8396 0.1435
C41 C 0.7171(5) 0.7202(3) 0.15614(15)
H26 H 0.7111 0.7038 0.1989
C42 C 0.9088(3) 0.9153(2) 0.02566(13)
C43 C 0.8497(3) 1.0142(2) 0.01711(14)
C44 C 0.6967(4) 1.0327(3) 0.03127(15)
H27 H 0.6344 0.9779 0.0475
C45 C 0.6413(4) 1.1280(3) 0.02157(15)
H28 H 0.5415 1.1379 0.0304
C46 C 0.7349(4) 1.2138(3) -0.00209(14)
H29 H 0.6962 1.2791 -0.0077
C47 C 0.8792(4) 1.2001(2) -0.01631(14)
H30 H 0.9389 1.2566 -0.0315
C48 C 0.9432(3) 1.1001(2) -0.00856(13)
Cd1 Cd 0.49205(2) 0.53948(2) 0.19908(2)
N1 N 0.6385(3) 0.39406(18) 0.19846(11)
N2 N 1.3591(3) -0.30765(18) 0.21116(12)
N3 N 0.6429(3) 0.66436(18) 0.12889(11)
O1 O 0.4267(3) 0.52419(19) 0.08805(12)
O2 O 0.2747(3) 0.50045(19) 0.17278(11)
O3 O 0.6290(2) 0.56991(16) 0.27904(9)
O4 O 0.4280(2) 0.47636(16) 0.30557(9)
C20A C -0.3016(4) 0.4888(2) -0.11510(15)
C21A C -0.1716(3) 0.4911(2) -0.07930(14)
C22A C -0.0282(3) 0.4887(2) -0.10846(14)
H13A H -0.0147 0.4847 -0.1491
C23A C 0.0911(3) 0.4923(2) -0.07687(13)
H14A H 0.1851 0.4905 -0.0963
C24A C 0.0722(3) 0.4989(2) -0.01443(13)
C25A C -0.1930(3) 0.4969(2) -0.01951(14)
H15A H -0.2880 0.4980 -0.0009
O1A O -0.4267(3) 0.47581(19) -0.08805(12)
O2A O -0.2747(3) 0.49955(19) -0.17278(11)
C26A C 0.4677(3) 0.4786(2) 0.68067(13)
C27A C 0.4588(3) 0.4784(2) 0.61458(13)
C28A C 0.3415(3) 0.4287(3) 0.59849(14)
H16A H 0.2697 0.3971 0.6288
C29A C 0.3328(3) 0.4266(3) 0.53887(14)
H17A H 0.2555 0.3934 0.5289
C30A C 0.4412(3) 0.4748(2) 0.49220(13)
C31A C 0.5654(3) 0.5253(2) 0.57047(13)
H18A H 0.6425 0.5573 0.5815
O3A O 0.3710(2) 0.43009(16) 0.72096(9)
O4A O 0.5720(2) 0.52364(16) 0.69443(9)
C37A C 1.3473(3) 1.3108(2) -0.06735(13)
H23A H 1.3994 1.3485 -0.0478
C38A C 1.2621(3) 1.2303(2) -0.03137(14)
H24A H 1.2576 1.2155 0.0113
C39A C 1.1846(3) 1.1729(2) -0.05915(14)
C40A C 1.1970(5) 1.1981(3) -0.12295(16)
H25A H 1.1479 1.1604 -0.1435
C41A C 1.2829(5) 1.2798(3) -0.15614(15)
H26A H 1.2889 1.2962 -0.1989
C42A C 1.0912(3) 1.0847(2) -0.02566(13)
C43A C 1.1503(3) 0.9858(2) -0.01711(14)
C44A C 1.3033(4) 0.9673(3) -0.03127(15)
H27A H 1.3656 1.0221 -0.0475
C45A C 1.3587(4) 0.8720(3) -0.02157(15)
H28A H 1.4585 0.8621 -0.0304
C46A C 1.2651(4) 0.7862(3) 0.00209(14)
H29A H 1.3038 0.7209 0.0077
C47A C 1.1208(4) 0.7999(2) 0.01631(14)
H30A H 1.0611 0.7434 0.0315
C48A C 1.0568(3) 0.8999(2) 0.00856(13)
N3A N 1.3571(3) 1.33564(18) -0.12889(11)
C1A C -0.7209(4) 0.6435(2) -0.24521(15)
H1A H -0.7196 0.6106 -0.2765
C2A C -0.8077(4) 0.7291(2) -0.24879(15)
H2A H -0.8628 0.7531 -0.2821
C3A C -0.8124(3) 0.7788(2) -0.20269(14)
C4A C -0.7286(3) 0.7391(2) -0.15377(14)
H3A H -0.7302 0.7699 -0.1215
C5A C -0.6433(3) 0.6540(2) -0.15328(13)
H4A H -0.5870 0.6287 -0.1205
C6A C -0.9067(3) 0.8719(2) -0.20491(14)
C7A C -0.8439(3) 0.9686(2) -0.22899(15)
C8A C -0.6914(4) 0.9820(3) -0.24949(18)
H5A H -0.6311 0.9251 -0.2466
C9A C -0.6324(4) 1.0753(3) -0.2730(2)
H6A H -0.5322 1.0817 -0.2845
C10A C -0.7233(4) 1.1639(3) -0.28016(19)
H7A H -0.6830 1.2276 -0.2978
C11A C -0.8689(4) 1.1550(2) -0.26115(16)
H8A H -0.9269 1.2132 -0.2656
C12A C -0.9348(3) 1.0577(2) -0.23437(15)
C13A C -1.0839(3) 1.0473(2) -0.21290(14)
C14A C -1.1465(3) 0.9502(2) -0.18802(14)
C15A C -1.2992(3) 0.9376(2) -0.16808(15)
H9A H -1.3589 0.9946 -0.1699
C16A C -1.3586(4) 0.8433(2) -0.14638(16)
H10A H -1.4584 0.8365 -0.1341
C17A C -1.2684(4) 0.7549(3) -0.14235(17)
H11A H -1.3098 0.6908 -0.1274
C18A C -1.1236(4) 0.7636(2) -0.16002(16)
H12A H -1.0661 0.7053 -0.1563
C19A C -1.0562(3) 0.8610(2) -0.18448(14)
C32A C -1.2914(4) 1.2579(3) -0.16201(15)
H19A H -1.3051 1.2810 -0.1266
C33A C -1.2028(4) 1.1745(3) -0.16138(16)
H20A H -1.1588 1.1422 -0.1260
C34A C -1.1790(3) 1.1385(2) -0.21347(14)
C35A C -1.2488(3) 1.1889(2) -0.26442(15)
H21A H -1.2363 1.1673 -0.3004
C36A C -1.3377(3) 1.2723(2) -0.26133(14)
H22A H -1.3847 1.3051 -0.2958
Cd1A Cd -0.49205(2) 0.46052(2) -0.19908(2)
N1A N -0.6385(3) 0.60594(18) -0.19846(11)
N2A N -1.3591(3) 1.30765(18) -0.21116(12)
Cd1_2 Cd 1.49205(2) -0.46052(2) 0.19908(2)
Cd1A_2 Cd -1.49205(2) 1.46052(2) -0.19908(2)
Cd1A_3 Cd 0.50795(2) 0.46052(2) 0.80092(2)
Cd1A_4 Cd 1.50795(2) 1.46052(2) -0.19908(2)
N2_2 N 0.3591(3) 0.69235(18) 0.21116(12)
N2A_2 N -0.3591(3) 0.30765(18) -0.21116(12)
N3A_2 N -0.6429(3) 0.33564(18) -0.12889(11)
O3A_2 O -0.6290(2) 0.43009(16) -0.27904(9)
O4A_2 O -0.4280(2) 0.52364(16) -0.30557(9)
loop_
_geom_bond_atom_site_label_1
_geom_bond_atom_site_label_2
_geom_bond_site_symmetry_1
_geom_bond_site_symmetry_2
C1 H1 1_555 1_555
C2 C1 1_555 1_555
H2 C2 1_555 1_555
C3 C2 1_555 1_555
C4 C3 1_555 1_555
H3 C4 1_555 1_555
C5 C4 1_555 1_555
H4 C5 1_555 1_555
C6 C3 1_555 1_555
C7 C6 1_555 1_555
C8 C7 1_555 1_555
H5 C8 1_555 1_555
C9 C8 1_555 1_555
H6 C9 1_555 1_555
C10 C9 1_555 1_555
H7 C10 1_555 1_555
C11 C10 1_555 1_555
H8 C11 1_555 1_555
C12 C7 1_555 1_555
C13 C12 1_555 1_555
C14 C13 1_555 1_555
C15 C14 1_555 1_555
H9 C15 1_555 1_555
C16 C15 1_555 1_555
H10 C16 1_555 1_555
C17 C16 1_555 1_555
H11 C17 1_555 1_555
C18 C17 1_555 1_555
H12 C18 1_555 1_555
C19 C6 1_555 1_555
C20 C21 1_555 1_555
C21 C22 1_555 1_555
C22 H13 1_555 1_555
C23 C22 1_555 1_555
H14 C23 1_555 1_555
C24 C23 1_555 1_555
C25 C21 1_555 1_555
H15 C25 1_555 1_555
C26 C27 1_555 1_555
C27 C28 1_555 1_555
C28 H16 1_555 1_555
C29 C28 1_555 1_555
H17 C29 1_555 1_555
C30 C29 1_555 1_555
C31 C27 1_555 1_555
H18 C31 1_555 1_555
C32 H19 1_555 1_555
C33 C32 1_555 1_555
H20 C33 1_555 1_555
C34 C13 1_555 1_555
C35 C34 1_555 1_555
H21 C35 1_555 1_555
C36 C35 1_555 1_555
H22 C36 1_555 1_555
C37 H23 1_555 1_555
C38 C37 1_555 1_555
H24 C38 1_555 1_555
C39 C38 1_555 1_555
C40 C39 1_555 1_555
H25 C40 1_555 1_555
C41 C40 1_555 1_555
H26 C41 1_555 1_555
C42 C39 1_555 1_555
C43 C42 1_555 1_555
C44 C43 1_555 1_555
H27 C44 1_555 1_555
C45 C44 1_555 1_555
H28 C45 1_555 1_555
C46 C45 1_555 1_555
H29 C46 1_555 1_555
C47 C46 1_555 1_555
H30 C47 1_555 1_555
C48 C43 1_555 1_555
Cd1 N1 1_555 1_555
N1 C1 1_555 1_555
N2 C32 1_555 1_555
N3 C37 1_555 1_555
O1 C20 1_555 1_555
O2 C20 1_555 1_555
O3 C26 1_555 1_555
O4 C26 1_555 1_555
C20A C21A 1_555 1_555
C21A C22A 1_555 1_555
C22A H13A 1_555 1_555
C23A C22A 1_555 1_555
H14A C23A 1_555 1_555
C24A C24 1_555 1_555
C25A C24 1_555 1_555
H15A C25A 1_555 1_555
O1A C20A 1_555 1_555
O2A C20A 1_555 1_555
C26A C27A 1_555 1_555
C27A C28A 1_555 1_555
C28A H16A 1_555 1_555
C29A C28A 1_555 1_555
H17A C29A 1_555 1_555
C30A C30 1_555 1_555
C31A C30 1_555 1_555
H18A C31A 1_555 1_555
O3A C26A 1_555 1_555
O4A C26A 1_555 1_555
C37A H23A 1_555 1_555
C38A C37A 1_555 1_555
H24A C38A 1_555 1_555
C39A C38A 1_555 1_555
C40A C39A 1_555 1_555
H25A C40A 1_555 1_555
C41A C40A 1_555 1_555
H26A C41A 1_555 1_555
C42A C48 1_555 1_555
C43A C42A 1_555 1_555
C44A C43A 1_555 1_555
H27A C44A 1_555 1_555
C45A C44A 1_555 1_555
H28A C45A 1_555 1_555
C46A C45A 1_555 1_555
H29A C46A 1_555 1_555
C47A C46A 1_555 1_555
H30A C47A 1_555 1_555
C48A C42 1_555 1_555
N3A C37A 1_555 1_555
C1A H1A 1_555 1_555
C2A C1A 1_555 1_555
H2A C2A 1_555 1_555
C3A C2A 1_555 1_555
C4A C3A 1_555 1_555
H3A C4A 1_555 1_555
C5A C4A 1_555 1_555
H4A C5A 1_555 1_555
C6A C3A 1_555 1_555
C7A C6A 1_555 1_555
C8A C7A 1_555 1_555
H5A C8A 1_555 1_555
C9A C8A 1_555 1_555
H6A C9A 1_555 1_555
C10A C9A 1_555 1_555
H7A C10A 1_555 1_555
C11A C10A 1_555 1_555
H8A C11A 1_555 1_555
C12A C7A 1_555 1_555
C13A C12A 1_555 1_555
C14A C13A 1_555 1_555
C15A C14A 1_555 1_555
H9A C15A 1_555 1_555
C16A C15A 1_555 1_555
H10A C16A 1_555 1_555
C17A C16A 1_555 1_555
H11A C17A 1_555 1_555
C18A C17A 1_555 1_555
H12A C18A 1_555 1_555
C19A C6A 1_555 1_555
C32A H19A 1_555 1_555
C33A C32A 1_555 1_555
H20A C33A 1_555 1_555
C34A C13A 1_555 1_555
C35A C34A 1_555 1_555
H21A C35A 1_555 1_555
C36A C35A 1_555 1_555
H22A C36A 1_555 1_555
Cd1A O1A 1_555 1_555
N1A C1A 1_555 1_555
N2A C32A 1_555 1_555
Cd1_2 N2 1_555 1_555
Cd1A_2 N2A 1_555 1_555
Cd1A_3 O3A 1_555 1_555
Cd1A_4 N3A 1_555 1_555
N2_2 Cd1 1_555 1_555
N2A_2 Cd1A 1_555 1_555
N3A_2 Cd1A 1_555 1_555
O3A_2 Cd1A 1_555 1_555
O4A_2 Cd1A 1_555 1_555
C5 N1 1_555 1_555
C11 C12 1_555 1_555
C14 C19 1_555 1_555
C18 C19 1_555 1_555
C25 C24A 1_555 1_555
C31 C30A 1_555 1_555
C33 C34 1_555 1_555
C36 N2 1_555 1_555
C41 N3 1_555 1_555
C47 C48 1_555 1_555
Cd1 N3 1_555 1_555
Cd1 O1 1_555 1_555
Cd1 O2 1_555 1_555
Cd1 O3 1_555 1_555
Cd1 O4 1_555 1_555
C21A C25A 1_555 1_555
C23A C24A 1_555 1_555
O2A Cd1A 1_555 1_555
C27A C31A 1_555 1_555
C29A C30A 1_555 1_555
O4A Cd1A_3 1_555 1_555
C39A C42A 1_555 1_555
C41A N3A 1_555 1_555
C43A C48A 1_555 1_555
C47A C48A 1_555 1_555
C5A N1A 1_555 1_555
C11A C12A 1_555 1_555
C14A C19A 1_555 1_555
C18A C19A 1_555 1_555
C33A C34A 1_555 1_555
C36A N2A 1_555 1_555
Cd1A N1A 1_555 1_555

#END
