
#######################################################################
#
#                 Cambridge Crystallographic Data Centre
#                                CCDC 
#
#######################################################################
#
# If this CIF has been generated from an entry in the Cambridge 
# Structural Database, then it will include bibliographic, chemical, 
# crystal, experimental, refinement or atomic coordinate data resulting 
# from the CCDC's data processing and validation procedures.
#
#######################################################################

data_IXISAJ
_chemical_formula_moiety         '(C12 H12 Br2 Cu2 N4)n'
_symmetry_cell_setting           tetragonal
_symmetry_space_group_name_H-M   'I 41 m d'
_symmetry_Int_Tables_number      109
_space_group_name_Hall           'I 4bw -2'
loop_
_symmetry_equiv_pos_site_id
_symmetry_equiv_pos_as_xyz
1 x,y,z
2 1/2-x,1/2-y,1/2+z
3 -y,1/2+x,1/4+z
4 1/2+y,-x,3/4+z
5 x,-y,z
6 1/2-x,1/2+y,1/2+z
7 -y,1/2-x,1/4+z
8 1/2+y,x,3/4+z
9 1/2+x,1/2+y,1/2+z
10 -x,-y,z
11 1/2-y,x,3/4+z
12 y,1/2-x,1/4+z
13 1/2+x,1/2-y,1/2+z
14 -x,y,z
15 1/2-y,-x,3/4+z
16 y,1/2+x,1/4+z
_cell_length_a                   17.7304(19)
_cell_length_b                   17.7304(19)
_cell_length_c                   12.6008(11)
_cell_angle_alpha                90
_cell_angle_beta                 90
_cell_angle_gamma                90
_cell_volume                     3961.28
loop_
_atom_site_label
_atom_site_type_symbol
_atom_site_fract_x
_atom_site_fract_y
_atom_site_fract_z
_atom_site_U_iso_or_equiv
_atom_site_thermal_displace_type
Cu1 Cu 0.26131(6) 0.26231(6) 0.08659(13) 0.0279 Uani
Br1 Br 0.15607(4) 0.24154(6) 0.21140(9) 0.0454 Uani
N1 N 0.3655(4) 0.2613(4) 0.1599(6) 0.0283 Uani
N2 N 0.3661(5) 0.2510(4) 0.2683(8) 0.0303 Uani
C1 C 0.4322(7) 0.2479(5) 0.3213(9) 0.0410 Uani
C2 C 0.5000 0.2548(7) 0.2683(12) 0.0350 Uani
C3 C 0.5000 0.2637(7) 0.1584(9) 0.0247 Uani
C4 C 0.4291(5) 0.2667(6) 0.1068(6) 0.0297 Uani
C5 C 0.4307(6) 0.2369(8) 0.4374(8) 0.0567 Uani
H1 H 0.4232 0.1848 0.4552 0.0800 Uiso
H2 H 0.3888 0.2650 0.4651 0.0800 Uiso
C6 C 0.5000 0.2651(12) 0.4882(10) 0.0570 Uani
H3 H 0.5000 0.2499 0.5613 0.0800 Uiso
H4 H 0.5000 0.3193 0.4867 0.0800 Uiso
C7 C 0.4281(5) 0.2831(9) -0.0131(7) 0.0563 Uani
H5 H 0.4142 0.3349 -0.0238 0.0800 Uiso
H6 H 0.3912 0.2520 -0.0477 0.0800 Uiso
C8 C 0.5000 0.266(2) -0.0610(17) 0.0977 Uani
H7 H 0.5000 0.2939 -0.1265 0.0800 Uiso
H8 H 0.5000 0.2139 -0.0803 0.0800 Uiso
C1M C 0.5678(7) 0.2479(5) 0.3213(9) 0.0410 Uani
N2M N 0.6339(5) 0.2510(4) 0.2683(8) 0.0303 Uani
N1M N 0.6345(4) 0.2613(4) 0.1599(6) 0.0283 Uani
C4M C 0.5709(5) 0.2667(6) 0.1068(6) 0.0297 Uani
C7M C 0.5719(5) 0.2831(9) -0.0131(7) 0.0563 Uani
H5M H 0.5858 0.3349 -0.0238 0.0800 Uiso
H6M H 0.6088 0.2520 -0.0477 0.0800 Uiso
C5M C 0.5693(6) 0.2369(8) 0.4374(8) 0.0567 Uani
H1M H 0.5768 0.1848 0.4552 0.0800 Uiso
H2M H 0.6112 0.2650 0.4651 0.0800 Uiso
Br1J Br 0.25846(6) 0.15607(4) -0.03860(9) 0.0454 Uani
Cu1J Cu 0.23769(6) 0.26131(6) -0.16341(13) 0.0279 Uani
N2J N 0.2490(4) 0.3661(5) 0.0183(8) 0.0303 Uani
Cu1K Cu 0.26231(6) 0.23869(6) 0.33659(13) 0.0279 Uani
Cu1F Cu 0.73769(6) 0.23869(6) 0.33659(13) 0.0279 Uani
Cu1M Cu 0.73869(6) 0.26231(6) 0.08659(13) 0.0279 Uani
Br1A Br 0.34393(4) 0.25846(6) -0.28860(9) 0.0454 Uani
N1J N 0.2387(4) 0.3655(4) -0.0901(6) 0.0283 Uani
N2A N 0.1339(5) 0.2490(4) -0.2317(8) 0.0303 Uani
loop_
_atom_site_aniso_label
_atom_site_aniso_U_11
_atom_site_aniso_U_22
_atom_site_aniso_U_33
_atom_site_aniso_U_23
_atom_site_aniso_U_13
_atom_site_aniso_U_12
Cu1 0.0317(6) 0.0286(6) 0.0235(3) 0.0048(6) -0.0006(6) 0.0004(3)
Br1 0.0299(4) 0.0816(7) 0.0246(3) 0.0001(4) 0.0007(5) -0.0044(4)
N1 0.024(4) 0.046(4) 0.015(4) 0.000(3) 0.006(3) 0.003(3)
N2 0.028(5) 0.037(4) 0.026(4) 0.003(2) 0.004(3) -0.003(2)
C1 0.038(6) 0.055(6) 0.030(5) 0.000(3) -0.006(4) 0.006(3)
C2 0.030(7) 0.048(7) 0.027(7) 0.014(5) 0.000 0.000
C3 0.017(6) 0.043(6) 0.014(5) 0.002(4) 0.000 0.000
C4 0.015(4) 0.061(5) 0.013(4) 0.002(3) -0.003(3) 0.007(3)
C5 0.023(4) 0.126(10) 0.021(4) 0.011(5) 0.007(3) -0.002(5)
C6 0.027(7) 0.137(15) 0.007(6) -0.005(6) 0.000 0.000
C7 0.033(5) 0.112(9) 0.024(5) 0.024(5) -0.001(3) -0.003(6)
C8 0.049(12) 0.21(3) 0.034(11) -0.010(11) 0.000 0.000
C1M 0.038 0.055 0.03 0 0.006 -0.006
N2M 0.028 0.037 0.026 0.003 -0.004 0.003
N1M 0.024 0.046 0.015 0 -0.006 -0.003
C4M 0.015 0.061 0.013 0.002 0.003 -0.007
C7M 0.033 0.112 0.024 0.024 0.001 0.003
C5M 0.023 0.126 0.021 0.011 -0.007 0.002
Br1J 0.0816 0.0299 0.0246 0.0007 -0.0001 0.0044
Cu1J 0.0286 0.0317 0.0235 -0.0006 -0.0048 -0.0004
N2J 0.037 0.028 0.026 0.004 -0.003 0.003
Cu1K 0.0286 0.0317 0.0235 0.0006 0.0048 -0.0004
Cu1F 0.0286 0.0317 0.0235 0.0006 -0.0048 0.0004
Cu1M 0.0317 0.0286 0.0235 0.0048 0.0006 -0.0004
Br1A 0.0299 0.0816 0.0246 -0.0001 -0.0007 -0.0044
N1J 0.046 0.024 0.015 0.006 0 -0.003
N2A 0.028 0.037 0.026 -0.003 -0.004 -0.003
loop_
_geom_bond_atom_site_label_1
_geom_bond_atom_site_label_2
_geom_bond_site_symmetry_1
_geom_bond_site_symmetry_2
Cu1 Br1 1_555 1_555
Br1 Cu1K 1_555 1_555
N1 Cu1 1_555 1_555
N2 N1 1_555 1_555
C1 N2 1_555 1_555
C2 C1 1_555 1_555
C3 C2 1_555 1_555
C4 N1 1_555 1_555
C5 C1 1_555 1_555
H1 C5 1_555 1_555
H2 C5 1_555 1_555
C6 C5 1_555 1_555
H3 C6 1_555 1_555
H4 C6 1_555 1_555
C7 C4 1_555 1_555
H5 C7 1_555 1_555
H6 C7 1_555 1_555
C8 C7 1_555 1_555
H7 C8 1_555 1_555
H8 C8 1_555 1_555
C1M C2 1_555 1_555
N2M C1M 1_555 1_555
N1M N2M 1_555 1_555
C4M C3 1_555 1_555
C7M C8 1_555 1_555
H5M C7M 1_555 1_555
H6M C7M 1_555 1_555
C5M C6 1_555 1_555
H1M C5M 1_555 1_555
H2M C5M 1_555 1_555
Br1J Cu1 1_555 1_555
Cu1J Br1J 1_555 1_555
N2J Cu1 1_555 1_555
Cu1K N2 1_555 1_555
Cu1F N2M 1_555 1_555
Cu1M N1M 1_555 1_555
Br1A Cu1J 1_555 1_555
N1J Cu1J 1_555 1_555
N2A Cu1J 1_555 1_555
C3 C4 1_555 1_555
C1M C5M 1_555 1_555
N1M C4M 1_555 1_555
C4M C7M 1_555 1_555
N2J N1J 1_555 1_555

#END
