
#######################################################################
#
#                 Cambridge Crystallographic Data Centre
#                                CCDC 
#
#######################################################################
#
# If this CIF has been generated from an entry in the Cambridge 
# Structural Database, then it will include bibliographic, chemical, 
# crystal, experimental, refinement or atomic coordinate data resulting 
# from the CCDC's data processing and validation procedures.
#
#######################################################################

data_IXISEN
_chemical_formula_moiety         'C14 Br3 Cu5 N7'
_symmetry_cell_setting           tetragonal
_symmetry_space_group_name_H-M   'I 41 2 2'
_symmetry_Int_Tables_number      98
_space_group_name_Hall           'I 4bw 2bw'
loop_
_symmetry_equiv_pos_site_id
_symmetry_equiv_pos_as_xyz
1 x,y,z
2 1/2-x,1/2-y,1/2+z
3 -y,1/2+x,1/4+z
4 1/2+y,-x,3/4+z
5 1/2-x,y,3/4-z
6 x,1/2-y,1/4-z
7 1/2+y,1/2+x,1/2-z
8 -y,-x,-z
9 1/2+x,1/2+y,1/2+z
10 -x,-y,z
11 1/2-y,x,3/4+z
12 y,1/2-x,1/4+z
13 -x,1/2+y,1/4-z
14 1/2+x,-y,3/4-z
15 y,x,-z
16 1/2-y,1/2-x,1/2-z
_cell_length_a                   12.3176(11)
_cell_length_b                   12.3176(11)
_cell_length_c                   12.772(2)
_cell_angle_alpha                90
_cell_angle_beta                 90
_cell_angle_gamma                90
_cell_volume                     1937.81
loop_
_atom_site_label
_atom_site_type_symbol
_atom_site_fract_x
_atom_site_fract_y
_atom_site_fract_z
_atom_site_U_iso_or_equiv
_atom_site_thermal_displace_type
Br1 Br 0.85149(3) 0.85149(3) 0.0000 0.0252 Uani
Cu1 Cu 0.7500 0.73539(5) -0.1250 0.0196 Uani
N1 N 0.8614(3) 0.6357(3) -0.1956(2) 0.0221 Uani
C1 C 0.9260(4) 0.5695(4) -0.1433(3) 0.0244 Uani
C2 C 1.0000 0.5000 -0.1959(3) 0.0210 Uani
C3 C 0.9210(6) 0.5660(5) -0.0255(3) 0.0435 Uani
C4 C 1.0232(10) 0.5303(8) 0.0189(5) 0.0397 Uani
N1O N 0.8643(3) 0.6386(3) -0.3044(2) 0.0221 Uani
C1O C 0.9305(4) 0.5740(4) -0.3567(3) 0.0244 Uani
C2O C 1.0000 0.5000 -0.3041(3) 0.0210 Uani
C1F C 1.0695(4) 0.4260(4) -0.3567(3) 0.0244 Uani
N1F N 1.1357(3) 0.3614(3) -0.3044(2) 0.0221 Uani
N1I N 1.1386(3) 0.3643(3) -0.1956(2) 0.0221 Uani
C1I C 1.0740(4) 0.4305(4) -0.1433(3) 0.0244 Uani
C3I C 1.0790(6) 0.4340(5) -0.0255(3) 0.0435 Uani
C4I C 0.9768(10) 0.4697(8) 0.0189(5) 0.0397 Uani
C3F C 1.0660(5) 0.4210(6) -0.4745(3) 0.0435 Uani
C4F C 1.0303(8) 0.5232(10) -0.5189(5) 0.0397 Uani
C3O C 0.9340(5) 0.5790(6) -0.4745(3) 0.0435 Uani
C4O C 0.9697(8) 0.4768(10) -0.5189(5) 0.0397 Uani
Br1D Br 0.64851(3) 0.85149(3) -0.2500 0.0252 Uani
Cu1K Cu 0.73539(5) 0.7500 0.1250 0.0196 Uani
N1D N 0.6386(3) 0.6357(3) -0.0544(2) 0.0221 Uani
Cu1J Cu 0.76461(5) 0.7500 -0.3750 0.0196 Uani
Cu1C Cu 1.23539(5) 0.2500 -0.3750 0.0196 Uani
Cu1I Cu 1.2500 0.26461(5) -0.1250 0.0196 Uani
Br1E Br 0.85149(3) 0.64851(3) 0.2500 0.0252 Uani
N1K N 0.6357(3) 0.6386(3) 0.0544(2) 0.0221 Uani
N1N N 0.6357(3) 0.8614(3) 0.1956(2) 0.0221 Uani
loop_
_atom_site_aniso_label
_atom_site_aniso_U_11
_atom_site_aniso_U_22
_atom_site_aniso_U_33
_atom_site_aniso_U_23
_atom_site_aniso_U_13
_atom_site_aniso_U_12
Br1 0.02938(19) 0.02938(19) 0.0168(2) -0.00055(18) 0.00055(18) -0.0096(2)
Cu1 0.0210(3) 0.0226(3) 0.0152(2) 0.000 0.0026(2) 0.000
N1 0.0277(16) 0.0231(16) 0.0156(13) 0.0002(12) 0.0053(13) 0.0080(11)
C1 0.032(2) 0.0298(19) 0.0115(13) -0.0005(15) 0.0004(15) 0.0122(13)
C2 0.028(3) 0.024(3) 0.011(2) 0.000 0.000 0.0093(18)
C3 0.066(3) 0.053(3) 0.0115(16) 0.0037(18) 0.0031(19) 0.040(2)
C4 0.059(7) 0.045(6) 0.015(3) -0.008(3) -0.005(3) 0.029(4)
N1O 0.0231 0.0277 0.0156 0.0053 0.0002 0.008
C1O 0.0298 0.032 0.0115 0.0004 -0.0005 0.0122
C2O 0.024 0.028 0.011 0 0 0.0093
C1F 0.0298 0.032 0.0115 -0.0004 0.0005 0.0122
N1F 0.0231 0.0277 0.0156 -0.0053 -0.0002 0.008
N1I 0.0277 0.0231 0.0156 -0.0002 -0.0053 0.008
C1I 0.032 0.0298 0.0115 0.0005 -0.0004 0.0122
C3I 0.066 0.053 0.0115 -0.0037 -0.0031 0.04
C4I 0.059 0.045 0.015 0.008 0.005 0.029
C3F 0.053 0.066 0.0115 -0.0031 -0.0037 0.04
C4F 0.045 0.059 0.015 0.005 0.008 0.029
C3O 0.053 0.066 0.0115 0.0031 0.0037 0.04
C4O 0.045 0.059 0.015 -0.005 -0.008 0.029
Br1D 0.02938 0.02938 0.0168 0.00055 0.00055 0.0096
Cu1K 0.0226 0.021 0.0152 -0.0026 0 0
N1D 0.0277 0.0231 0.0156 -0.0002 0.0053 -0.008
Cu1J 0.0226 0.021 0.0152 0.0026 0 0
Cu1C 0.0226 0.021 0.0152 -0.0026 0 0
Cu1I 0.021 0.0226 0.0152 0 -0.0026 0
Br1E 0.02938 0.02938 0.0168 -0.00055 -0.00055 0.0096
N1K 0.0231 0.0277 0.0156 -0.0053 0.0002 -0.008
N1N 0.0231 0.0277 0.0156 -0.0053 -0.0002 0.008
loop_
_geom_bond_atom_site_label_1
_geom_bond_atom_site_label_2
_geom_bond_site_symmetry_1
_geom_bond_site_symmetry_2
Br1 Cu1 1_555 1_555
Cu1 N1 1_555 1_555
N1 C1 1_555 1_555
C1 C2 1_555 1_555
C2 C2O 1_555 1_555
C3 C1 1_555 1_555
C4 C3 1_555 1_555
N1O N1 1_555 1_555
C1O N1O 1_555 1_555
C2O C1O 1_555 1_555
C1F C2O 1_555 1_555
N1F C1F 1_555 1_555
N1I N1F 1_555 1_555
C1I C2 1_555 1_555
C3I C4 1_555 1_555
C4I C3 1_555 1_555
C3F C1F 1_555 1_555
C4F C3F 1_555 1_555
C3O C1O 1_555 1_555
C4O C3F 1_555 1_555
Br1D Cu1 1_555 1_555
Cu1K Br1 1_555 1_555
N1D Cu1 1_555 1_555
Cu1J N1O 1_555 1_555
Cu1C N1F 1_555 1_555
Cu1I N1I 1_555 1_555
Br1E Cu1K 1_555 1_555
N1K Cu1K 1_555 1_555
N1N Cu1K 1_555 1_555
C4 C4I 1_555 1_555
N1I C1I 1_555 1_555
C1I C3I 1_555 1_555
C3I C4I 1_555 1_555
C4F C3O 1_555 1_555
C4F C4O 1_555 1_555
C3O C4O 1_555 1_555
Br1D Cu1J 1_555 1_555
N1D N1K 1_555 1_555

#END
