
#######################################################################
#
#                 Cambridge Crystallographic Data Centre
#                                CCDC 
#
#######################################################################
#
# If this CIF has been generated from an entry in the Cambridge 
# Structural Database, then it will include bibliographic, chemical, 
# crystal, experimental, refinement or atomic coordinate data resulting 
# from the CCDC's data processing and validation procedures.
#
#######################################################################

data_IXISOX
_chemical_formula_moiety         '(C12 H12 Cu2 I2 N4)n'
_symmetry_cell_setting           tetragonal
_symmetry_space_group_name_H-M   'I 41/a m d'
_symmetry_Int_Tables_number      141
_space_group_name_Hall           '-I 4bd 2'
loop_
_symmetry_equiv_pos_site_id
_symmetry_equiv_pos_as_xyz
1 x,y,z
2 1/4-y,3/4+x,1/4+z
3 1/4+y,1/4-x,3/4+z
4 1/4+y,3/4+x,1/4-z
5 1/2+x,1/2+y,1/2+z
6 3/4-y,1/4+x,3/4+z
7 3/4+y,3/4-x,1/4+z
8 3/4+y,1/4+x,3/4-z
9 1/2+x,y,1/2-z
10 1/2+x,-y,1/2+z
11 -x,y,z
12 3/4+y,3/4+x,1/4+z
13 x,1/2+y,-z
14 x,1/2-y,z
15 1/2-x,1/2+y,1/2+z
16 1/4+y,1/4+x,3/4+z
17 -x,-y,-z
18 3/4+y,1/4-x,3/4-z
19 3/4-y,3/4+x,1/4-z
20 3/4-y,1/4-x,3/4+z
21 1/2-x,1/2-y,1/2-z
22 1/4+y,3/4-x,1/4-z
23 1/4-y,1/4+x,3/4-z
24 1/4-y,3/4-x,1/4+z
25 1/2-x,-y,1/2+z
26 1/2-x,y,1/2-z
27 x,-y,-z
28 1/4-y,1/4-x,3/4-z
29 -x,1/2-y,z
30 -x,1/2+y,-z
31 1/2+x,1/2-y,1/2-z
32 3/4-y,3/4-x,1/4-z
_cell_length_a                   17.614(2)
_cell_length_b                   17.614(2)
_cell_length_c                   13.136(2)
_cell_angle_alpha                90
_cell_angle_beta                 90
_cell_angle_gamma                90
_cell_volume                     4075.48
loop_
_atom_site_label
_atom_site_type_symbol
_atom_site_fract_x
_atom_site_fract_y
_atom_site_fract_z
_atom_site_U_iso_or_equiv
_atom_site_thermal_displace_type
I1 I 0.35594(3) 0.5000 0.0000 0.0402 Uani
Cu1 Cu 0.24070(4) 0.50930(4) 0.1250 0.0223 Uani
N1 N 0.1358(3) 0.5067(3) 0.0525(3) 0.0210 Uani
C1 C 0.0712(3) 0.5132(4) 0.1020(4) 0.0263 Uani
C2 C 0.0000 0.5073(5) 0.0514(5) 0.0217 Uani
C3 C 0.0712(4) 0.5280(5) 0.2149(5) 0.0433 Uani
H1 H 0.0764 0.5816 0.2261 0.0800 Uiso
H2 H 0.1140 0.5032 0.2455 0.0800 Uiso
C4 C 0.0000 0.5027(10) 0.2645(6) 0.0590 Uani
H3 H 0.0000 0.5187 0.3344 0.0800 Uiso
H4 H 0.0000 0.4482 0.2639 0.0800 Uiso
N1Z N 0.1358(3) 0.4933(3) -0.0525(3) 0.0210 Uani
C1Z C 0.0712(3) 0.4868(4) -0.1020(4) 0.0263 Uani
C2Z C 0.0000 0.4927(5) -0.0514(5) 0.0217 Uani
C1P C -0.0712(3) 0.4868(4) -0.1020(4) 0.0263 Uani
N1P N -0.1358(3) 0.4933(3) -0.0525(3) 0.0210 Uani
N1J N -0.1358(3) 0.5067(3) 0.0525(3) 0.0210 Uani
C1J C -0.0712(3) 0.5132(4) 0.1020(4) 0.0263 Uani
C3J C -0.0712(4) 0.5280(5) 0.2149(5) 0.0433 Uani
H1J H -0.0764 0.5816 0.2261 0.0800 Uiso
H2J H -0.1140 0.5032 0.2455 0.0800 Uiso
C3P C -0.0712(4) 0.4720(5) -0.2149(5) 0.0433 Uani
H1P H -0.0764 0.4184 -0.2261 0.0800 Uiso
H2P H -0.1140 0.4968 -0.2455 0.0800 Uiso
C4P C -0.0000 0.4973(10) -0.2645(6) 0.0590 Uani
C3Z C 0.0712(4) 0.4720(5) -0.2149(5) 0.0433 Uani
H1Z H 0.0764 0.4184 -0.2261 0.0800 Uiso
H2Z H 0.1140 0.4968 -0.2455 0.0800 Uiso
H3P H -0.0000 0.4813 -0.3344 0.0800 Uiso
H4P H 0.0000 0.5518 -0.2639 0.0800 Uiso
I1F I 0.2500 0.39406(3) 0.2500 0.0402 Uani
Cu1F Cu 0.25930(4) 0.50930(4) 0.3750 0.0223 Uani
Cu1E Cu 0.24070(4) 0.49070(4) -0.1250 0.0223 Uani
N1EA N 0.2433(3) 0.6142(3) 0.1975(3) 0.0210 Uani
Cu1O Cu -0.24070(4) 0.49070(4) -0.1250 0.0223 Uani
Cu1J Cu -0.24070(4) 0.50930(4) 0.1250 0.0223 Uani
I1X I 0.14406(3) 0.5000 0.5000 0.0402 Uani
N1F N 0.2567(3) 0.6142(3) 0.3025(3) 0.0210 Uani
N1Y N 0.3642(3) 0.5067(3) 0.4475(3) 0.0210 Uani
loop_
_atom_site_aniso_label
_atom_site_aniso_U_11
_atom_site_aniso_U_22
_atom_site_aniso_U_33
_atom_site_aniso_U_23
_atom_site_aniso_U_13
_atom_site_aniso_U_12
I1 0.0236(3) 0.0775(5) 0.0194(3) 0.0011(3) 0.000 0.000
Cu1 0.0243(3) 0.0243(3) 0.0183(4) -0.0015(2) -0.0015(2) -0.0007(4)
N1 0.020(2) 0.031(2) 0.0120(19) -0.0036(19) 0.0005(16) 0.002(2)
C1 0.018(2) 0.046(4) 0.015(2) -0.004(2) 0.0002(19) -0.001(2)
C2 0.014(3) 0.036(4) 0.015(3) -0.004(3) 0.000 0.000
C3 0.024(3) 0.091(6) 0.015(2) -0.014(3) -0.002(2) 0.002(3)
C4 0.035(5) 0.129(12) 0.013(4) -0.008(6) 0.000 0.000
N1Z 0.02 0.031 0.012 -0.0036 -0.0005 -0.002
C1Z 0.018 0.046 0.015 -0.004 -0.0002 0.001
C2Z 0.014 0.036 0.015 -0.004 0 0
C1P 0.018 0.046 0.015 -0.004 0.0002 -0.001
N1P 0.02 0.031 0.012 -0.0036 0.0005 0.002
N1J 0.02 0.031 0.012 -0.0036 -0.0005 -0.002
C1J 0.018 0.046 0.015 -0.004 -0.0002 0.001
C3J 0.024 0.091 0.015 -0.014 0.002 -0.002
C3P 0.024 0.091 0.015 -0.014 -0.002 0.002
C4P 0.035 0.129 0.013 -0.008 0 0
C3Z 0.024 0.091 0.015 -0.014 0.002 -0.002
I1F 0.0775 0.0236 0.0194 0 0.0011 0
Cu1F 0.0243 0.0243 0.0183 0.0015 -0.0015 0.0007
Cu1E 0.0243 0.0243 0.0183 -0.0015 0.0015 0.0007
N1EA 0.031 0.02 0.012 0.0005 -0.0036 0.002
Cu1O 0.0243 0.0243 0.0183 -0.0015 -0.0015 -0.0007
Cu1J 0.0243 0.0243 0.0183 -0.0015 0.0015 0.0007
I1X 0.0236 0.0775 0.0194 -0.0011 0 0
N1F 0.031 0.02 0.012 -0.0005 -0.0036 -0.002
N1Y 0.02 0.031 0.012 0.0036 0.0005 -0.002
loop_
_geom_bond_atom_site_label_1
_geom_bond_atom_site_label_2
_geom_bond_site_symmetry_1
_geom_bond_site_symmetry_2
I1 Cu1 1_555 1_555
Cu1 N1 1_555 1_555
N1 C1 1_555 1_555
C1 C2 1_555 1_555
C2 C2Z 1_555 1_555
C3 C1 1_555 1_555
H1 C3 1_555 1_555
H2 C3 1_555 1_555
C4 C3 1_555 1_555
H3 C4 1_555 1_555
H4 C4 1_555 1_555
N1Z N1 1_555 1_555
C1Z N1Z 1_555 1_555
C2Z C1Z 1_555 1_555
C1P C2Z 1_555 1_555
N1P C1P 1_555 1_555
N1J N1P 1_555 1_555
C1J C2 1_555 1_555
C3J C4 1_555 1_555
H1J C3J 1_555 1_555
H2J C3J 1_555 1_555
C3P C1P 1_555 1_555
H1P C3P 1_555 1_555
H2P C3P 1_555 1_555
C4P C3P 1_555 1_555
C3Z C1Z 1_555 1_555
H1Z C3Z 1_555 1_555
H2Z C3Z 1_555 1_555
H3P C4P 1_555 1_555
H4P C4P 1_555 1_555
I1F Cu1 1_555 1_555
Cu1F I1F 1_555 1_555
Cu1E I1 1_555 1_555
N1EA Cu1 1_555 1_555
Cu1O N1P 1_555 1_555
Cu1J N1J 1_555 1_555
I1X Cu1F 1_555 1_555
N1F Cu1F 1_555 1_555
N1Y Cu1F 1_555 1_555
N1Z Cu1E 1_555 1_555
N1J C1J 1_555 1_555
C1J C3J 1_555 1_555
C4P C3Z 1_555 1_555
N1EA N1F 1_555 1_555

#END
