
#######################################################################
#
#                 Cambridge Crystallographic Data Centre
#                                CCDC 
#
#######################################################################
#
# If this CIF has been generated from an entry in the Cambridge 
# Structural Database, then it will include bibliographic, chemical, 
# crystal, experimental, refinement or atomic coordinate data resulting 
# from the CCDC's data processing and validation procedures.
#
#######################################################################

data_AMOYOR
_chemical_formula_moiety         '(C30 H26 N2 O5 Zn1)n'
_symmetry_cell_setting           monoclinic
_symmetry_space_group_name_H-M   'C 2/c'
_symmetry_Int_Tables_number      15
_space_group_name_Hall           '-C 2yc'
loop_
_symmetry_equiv_pos_site_id
_symmetry_equiv_pos_as_xyz
1 x,y,z
2 -x,y,1/2-z
3 1/2+x,1/2+y,z
4 1/2-x,1/2+y,1/2-z
5 -x,-y,-z
6 x,-y,1/2+z
7 1/2-x,1/2-y,-z
8 1/2+x,1/2-y,1/2+z
_cell_length_a                   25.029(5)
_cell_length_b                   5.8653(12)
_cell_length_c                   20.980(4)
_cell_angle_alpha                90
_cell_angle_beta                 92.38(3)
_cell_angle_gamma                90
_cell_volume                     3077.26
loop_
_atom_site_label
_atom_site_type_symbol
_atom_site_fract_x
_atom_site_fract_y
_atom_site_fract_z
_atom_site_U_iso_or_equiv
_atom_site_thermal_displace_type
Zn1 Zn 0.0000 -0.28245(10) 0.2500 0.0331 Uani
N1 N 0.04959(12) -0.0936(5) 0.30736(15) 0.0343 Uani
O1 O -0.03415(11) -0.4876(5) 0.30859(14) 0.0415 Uani
O2 O -0.08291(18) -0.1965(6) 0.3395(2) 0.0743 Uani
C1 C 0.06486(16) -0.1649(7) 0.36643(19) 0.0385 Uani
H1 H 0.0510 -0.3030 0.3814 0.0460 Uiso
C2 C 0.09957(16) -0.0450(7) 0.4053(2) 0.0395 Uani
H2 H 0.1096 -0.1029 0.4459 0.0470 Uiso
C3 C 0.12026(16) 0.1621(7) 0.3857(2) 0.0415 Uani
C4 C 0.10332(19) 0.2383(7) 0.3244(2) 0.0442 Uani
H3 H 0.1154 0.3788 0.3089 0.0530 Uiso
C5 C 0.06918(17) 0.1059(7) 0.2875(2) 0.0437 Uani
H4 H 0.0590 0.1572 0.2463 0.0530 Uiso
C6 C 0.15625(18) 0.2897(7) 0.4290(2) 0.0452 Uani
H5 H 0.1617 0.2333 0.4707 0.0540 Uiso
C7 C 0.18214(17) 0.4809(7) 0.4139(2) 0.0481 Uani
H6 H 0.1779 0.5343 0.3718 0.0580 Uiso
C8 C 0.21702(15) 0.6142(7) 0.4589(2) 0.0435 Uani
C9 C 0.22883(17) 0.5487(8) 0.5224(2) 0.0470 Uani
H7 H 0.2146 0.4121 0.5379 0.0560 Uiso
C10 C 0.23901(17) 0.8176(8) 0.4378(2) 0.0468 Uani
H8 H 0.2318 0.8648 0.3954 0.0560 Uiso
C11 C -0.06764(16) -0.3963(8) 0.3451(2) 0.0434 Uani
C12 C -0.08461(18) -0.5420(9) 0.4008(2) 0.0516 Uani
H9 H -0.1187 -0.4874 0.4162 0.0620 Uiso
H10 H -0.0890 -0.7011 0.3873 0.0620 Uiso
C13 C -0.0040(2) -0.6974(7) 0.4637(2) 0.0475 Uani
H11 H -0.0065 -0.8317 0.4393 0.0570 Uiso
C14 C -0.04125(16) -0.5233(7) 0.45292(19) 0.0408 Uani
C15 C -0.03648(19) -0.3263(8) 0.4900(2) 0.0513 Uani
H12 H -0.0613 -0.2076 0.4834 0.0610 Uiso
C10F C 0.26099(17) 0.6824(8) 0.5622(2) 0.0468 Uani
C8F C 0.28298(15) 0.8858(7) 0.5411(2) 0.0435 Uani
C7F C 0.31786(17) 1.0191(7) 0.5861(2) 0.0481 Uani
C6F C 0.34375(18) 1.2103(7) 0.5710(2) 0.0452 Uani
C3F C 0.37974(16) 1.3379(7) 0.6143(2) 0.0415 Uani
C2F C 0.40043(16) 1.5450(7) 0.5947(2) 0.0395 Uani
C1F C 0.43514(16) 1.6649(7) 0.63357(19) 0.0385 Uani
N1F N 0.45041(12) 1.5936(5) 0.69264(15) 0.0343 Uani
C5F C 0.43082(17) 1.3941(7) 0.7125(2) 0.0437 Uani
C4F C 0.39668(19) 1.2617(7) 0.6756(2) 0.0442 Uani
H3F H 0.3846 1.1212 0.6911 0.0530 Uiso
H4F H 0.4410 1.3428 0.7537 0.0530 Uiso
H1F H 0.4490 1.8030 0.6186 0.0460 Uiso
H2F H 0.3904 1.6029 0.5541 0.0470 Uiso
H5F H 0.3383 1.2667 0.5293 0.0540 Uiso
H6F H 0.3221 0.9657 0.6282 0.0580 Uiso
C9F C 0.27117(17) 0.9513(8) 0.4776(2) 0.0470 Uani
H7F H 0.2854 1.0879 0.4621 0.0560 Uiso
H8F H 0.2682 0.6352 0.6046 0.0560 Uiso
C15D C 0.03648(19) -0.6737(8) 0.5100(2) 0.0513 Uani
C14D C 0.04125(16) -0.4767(7) 0.54708(19) 0.0408 Uani
C12D C 0.08461(18) -0.4580(9) 0.5992(2) 0.0516 Uani
C11D C 0.06764(16) -0.6037(8) 0.6549(2) 0.0434 Uani
O1D O 0.03415(11) -0.5124(5) 0.69141(14) 0.0415 Uani
O2D O 0.08291(18) -0.8035(6) 0.6605(2) 0.0743 Uani
H9D H 0.1187 -0.5126 0.5838 0.0620 Uiso
H10D H 0.0890 -0.2989 0.6127 0.0620 Uiso
C13D C 0.0040(2) -0.3026(7) 0.5363(2) 0.0475 Uani
H11D H 0.0065 -0.1683 0.5607 0.0570 Uiso
H12D H 0.0613 -0.7924 0.5166 0.0610 Uiso
N1A N -0.04959(12) -0.0936(5) 0.19264(15) 0.0343 Uani
O1A O 0.03415(11) -0.4876(5) 0.19141(14) 0.0415 Uani
Zn1F Zn 0.5000 1.78245(10) 0.7500 0.0331 Uani
Zn1D Zn 0.0000 -0.71755(10) 0.7500 0.0331 Uani
O3 O 0.1556(2) 1.0514(11) 0.5729(3) 0.1074 Uani
H13 H 0.180(2) 0.985(12) 0.595(3) 0.1120 Uiso
H14 H 0.130(2) 1.112(14) 0.591(3) 0.1140 Uiso
loop_
_atom_site_aniso_label
_atom_site_aniso_U_11
_atom_site_aniso_U_22
_atom_site_aniso_U_33
_atom_site_aniso_U_23
_atom_site_aniso_U_13
_atom_site_aniso_U_12
Zn1 0.0358(4) 0.0326(4) 0.0302(4) 0.000 -0.0074(3) 0.000
N1 0.0368(16) 0.0346(17) 0.0308(18) -0.0020(13) -0.0058(13) 0.0005(13)
O1 0.0495(16) 0.0375(15) 0.0378(16) -0.0009(11) 0.0046(13) -0.0041(12)
O2 0.095(3) 0.072(3) 0.058(2) 0.0200(19) 0.028(2) 0.033(2)
C1 0.039(2) 0.039(2) 0.037(2) -0.0008(16) -0.0045(17) 0.0035(17)
C2 0.041(2) 0.044(2) 0.033(2) -0.0036(16) -0.0033(16) 0.0049(17)
C3 0.034(2) 0.043(2) 0.047(3) -0.0106(19) -0.0048(18) 0.0045(17)
C4 0.048(2) 0.035(2) 0.049(3) -0.0011(17) -0.006(2) -0.0061(17)
C5 0.052(2) 0.038(2) 0.040(2) 0.0005(17) -0.0118(19) -0.0027(19)
C6 0.042(2) 0.048(2) 0.045(3) -0.0088(18) -0.0058(19) -0.0024(19)
C7 0.042(2) 0.046(2) 0.056(3) -0.010(2) -0.003(2) 0.0003(19)
C8 0.0311(19) 0.045(2) 0.054(3) -0.0134(19) -0.0014(18) 0.0015(17)
C9 0.037(2) 0.042(2) 0.062(3) -0.007(2) 0.002(2) -0.0043(18)
C10 0.038(2) 0.047(2) 0.055(3) -0.008(2) -0.0029(19) -0.0046(19)
C11 0.042(2) 0.050(3) 0.038(2) 0.0044(18) -0.0023(18) 0.0002(19)
C12 0.048(2) 0.059(3) 0.048(3) 0.008(2) 0.005(2) -0.005(2)
C13 0.059(3) 0.042(2) 0.042(3) -0.0016(18) 0.008(2) 0.008(2)
C14 0.044(2) 0.048(2) 0.031(2) 0.0069(17) 0.0092(17) 0.0003(18)
C15 0.056(3) 0.044(2) 0.054(3) 0.001(2) 0.004(2) 0.015(2)
C10F 0.038 0.047 0.055 -0.008 -0.0029 -0.0046
C8F 0.0311 0.045 0.054 -0.0134 -0.0014 0.0015
C7F 0.042 0.046 0.056 -0.01 -0.003 0.0003
C6F 0.042 0.048 0.045 -0.0088 -0.0058 -0.0024
C3F 0.034 0.043 0.047 -0.0106 -0.0048 0.0045
C2F 0.041 0.044 0.033 -0.0036 -0.0033 0.0049
C1F 0.039 0.039 0.037 -0.0008 -0.0045 0.0035
N1F 0.0368 0.0346 0.0308 -0.002 -0.0058 0.0005
C5F 0.052 0.038 0.04 0.0005 -0.0118 -0.0027
C4F 0.048 0.035 0.049 -0.0011 -0.006 -0.0061
C9F 0.037 0.042 0.062 -0.007 0.002 -0.0043
C15D 0.056 0.044 0.054 0.001 0.004 0.015
C14D 0.044 0.048 0.031 0.0069 0.0092 0.0003
C12D 0.048 0.059 0.048 0.008 0.005 -0.005
C11D 0.042 0.05 0.038 0.0044 -0.0023 0.0002
O1D 0.0495 0.0375 0.0378 -0.0009 0.0046 -0.0041
O2D 0.095 0.072 0.058 0.02 0.028 0.033
C13D 0.059 0.042 0.042 -0.0016 0.008 0.008
N1A 0.0368 0.0346 0.0308 0.002 -0.0058 -0.0005
O1A 0.0495 0.0375 0.0378 0.0009 0.0046 0.0041
Zn1F 0.0358 0.0326 0.0302 0 -0.0074 0
Zn1D 0.0358 0.0326 0.0302 0 -0.0074 0
O3 0.111(4) 0.110(4) 0.104(4) 0.019(3) 0.039(3) 0.029(3)
loop_
_geom_bond_atom_site_label_1
_geom_bond_atom_site_label_2
_geom_bond_site_symmetry_1
_geom_bond_site_symmetry_2
Zn1 N1 1_555 1_555
N1 C1 1_555 1_555
O1 Zn1 1_555 1_555
O2 C11 1_555 1_555
C1 H1 1_555 1_555
C2 C1 1_555 1_555
H2 C2 1_555 1_555
C3 C2 1_555 1_555
C4 C3 1_555 1_555
H3 C4 1_555 1_555
C5 N1 1_555 1_555
H4 C5 1_555 1_555
C6 C3 1_555 1_555
H5 C6 1_555 1_555
C7 C6 1_555 1_555
H6 C7 1_555 1_555
C8 C7 1_555 1_555
C9 C8 1_555 1_555
H7 C9 1_555 1_555
C10 C8 1_555 1_555
H8 C10 1_555 1_555
C11 O1 1_555 1_555
C12 C11 1_555 1_555
H9 C12 1_555 1_555
H10 C12 1_555 1_555
C13 H11 1_555 1_555
C14 C12 1_555 1_555
C15 C14 1_555 1_555
H12 C15 1_555 1_555
O3 H13 1_555 1_555
H14 O3 1_555 1_555
C10F C9 1_555 1_555
C8F C10F 1_555 1_555
C7F C8F 1_555 1_555
C6F C7F 1_555 1_555
C3F C6F 1_555 1_555
C2F C3F 1_555 1_555
C1F C2F 1_555 1_555
N1F C1F 1_555 1_555
C5F N1F 1_555 1_555
C4F C3F 1_555 1_555
H3F C4F 1_555 1_555
H4F C5F 1_555 1_555
H1F C1F 1_555 1_555
H2F C2F 1_555 1_555
H5F C6F 1_555 1_555
H6F C7F 1_555 1_555
C9F C10 1_555 1_555
H7F C9F 1_555 1_555
H8F C10F 1_555 1_555
C15D C13 1_555 1_555
C14D C15D 1_555 1_555
C12D C14D 1_555 1_555
C11D C12D 1_555 1_555
O1D C11D 1_555 1_555
O2D C11D 1_555 1_555
H9D C12D 1_555 1_555
H10D C12D 1_555 1_555
C13D C15 1_555 1_555
H11D C13D 1_555 1_555
H12D C15D 1_555 1_555
N1A Zn1 1_555 1_555
O1A Zn1 1_555 1_555
Zn1F N1F 1_555 1_555
Zn1D O1D 1_555 1_555
C4 C5 1_555 1_555
C13 C14 1_555 1_555
C8F C9F 1_555 1_555
C5F C4F 1_555 1_555
C14D C13D 1_555 1_555

#END
