
#######################################################################
#
#                 Cambridge Crystallographic Data Centre
#                                CCDC 
#
#######################################################################
#
# If this CIF has been generated from an entry in the Cambridge 
# Structural Database, then it will include bibliographic, chemical, 
# crystal, experimental, refinement or atomic coordinate data resulting 
# from the CCDC's data processing and validation procedures.
#
#######################################################################

data_MUJKAF
_chemical_formula_moiety         '(C20 H15 Cd1 N7 O4)n'
_symmetry_cell_setting           monoclinic
_symmetry_space_group_name_H-M   'P 21/c'
_symmetry_Int_Tables_number      14
_space_group_name_Hall           '-P 2ybc'
loop_
_symmetry_equiv_pos_site_id
_symmetry_equiv_pos_as_xyz
1 x,y,z
2 -x,1/2+y,1/2-z
3 -x,-y,-z
4 x,1/2-y,1/2+z
_cell_length_a                   15.136(5)
_cell_length_b                   17.265(5)
_cell_length_c                   14.239(5)
_cell_angle_alpha                90
_cell_angle_beta                 95.717(5)
_cell_angle_gamma                90
_cell_volume                     3702.47
loop_
_atom_site_label
_atom_site_type_symbol
_atom_site_fract_x
_atom_site_fract_y
_atom_site_fract_z
Cd1 Cd -0.012682(14) 0.014910(11) 0.362382(13)
O1 O 0.00061(15) -0.09065(12) 0.49876(13)
O2 O 0.02149(15) -0.37075(11) 0.22259(13)
O3 O 0.01845(17) -0.47468(11) 0.31139(14)
O4 O -0.01230(16) -0.11525(11) 0.34778(13)
C1 C 0.0195(2) -0.40303(17) 0.3020(2)
C2 C 0.0053(2) -0.22304(15) 0.44943(18)
N1 N 0.14140(17) 0.02754(15) 0.37266(18)
N2 N 0.48806(19) 0.02819(17) 0.3689(2)
C3 C -0.00305(19) -0.13771(15) 0.4331(2)
C4 C 0.0176(2) -0.35083(16) 0.38637(19)
C5 C 0.0215(3) -0.33305(17) 0.5547(2)
C6 C 0.00822(19) -0.27221(16) 0.37355(18)
H1 H 0.0038 -0.2519 0.3128
C7 C 0.0122(2) -0.25389(17) 0.5399(2)
H2 H 0.0105 -0.2210 0.5914
N3 N 0.4846(2) -0.0258(2) 0.2964(3)
H3 H 0.5323 -0.0387 0.2724
H4 H 0.4346 -0.0462 0.2756
N4 N 0.5436(2) 0.1164(2) 0.4691(3)
C8 C 0.3245(2) 0.0493(2) 0.3896(3)
C9 C 0.1966(2) -0.0309(2) 0.3639(3)
H5 H 0.1728 -0.0799 0.3514
C10 C 0.0253(2) -0.38114(17) 0.4766(2)
H6 H 0.0332 -0.4342 0.4854
C11 C 0.2671(2) 0.1117(2) 0.3972(3)
H7 H 0.2893 0.1615 0.4082
C12 C 0.4205(2) 0.0651(2) 0.4083(3)
C13 C 0.2880(2) -0.0227(2) 0.3725(3)
H8 H 0.3243 -0.0655 0.3668
C14 C 0.5627(2) 0.0640(2) 0.4071(3)
N5 N 0.4521(2) 0.1174(2) 0.4677(3)
N6 N 0.0310(3) -0.36469(17) 0.64526(18)
H9 H 0.0312 -0.3349 0.6937
H10 H 0.0367 -0.4139 0.6526
C15 C 0.1771(2) 0.0981(2) 0.3882(3)
H11 H 0.1390 0.1399 0.3930
C16 C 0.6552(2) 0.0482(2) 0.3885(3)
C17 C 0.6874(2) -0.0233(2) 0.3683(3)
H12 H 0.6489 -0.0652 0.3590
C18 C 0.7157(2) 0.1078(2) 0.3990(3)
H13 H 0.6969 0.1577 0.4115
C19 C 0.7766(2) -0.0331(2) 0.3618(3)
H14 H 0.7972 -0.0825 0.3493
C20 C 0.8038(2) 0.0937(2) 0.3912(3)
H15 H 0.8436 0.1348 0.3992
N7 N 0.83478(17) 0.02417(15) 0.37260(19)
Cd1_2 Cd 0.987318(14) 0.014910(11) 0.362382(13)
Cd1A Cd 0.012682(14) -0.485090(11) 0.137618(13)
Cd1B Cd 0.012682(14) -0.014910(11) 0.637618(13)
O1B O -0.00061(15) 0.09065(12) 0.50124(13)
O2A O -0.02149(15) 0.12925(11) 0.27741(13)
O3A O -0.01845(17) 0.02532(11) 0.18861(14)
N7_2 N -0.16522(17) 0.02417(15) 0.37260(19)
loop_
_geom_bond_atom_site_label_1
_geom_bond_atom_site_label_2
_geom_bond_site_symmetry_1
_geom_bond_site_symmetry_2
Cd1 O1 1_555 1_555
O1 C3 1_555 1_555
O2 C1 1_555 1_555
O3 C1 1_555 1_555
O4 Cd1 1_555 1_555
C1 C4 1_555 1_555
C2 C3 1_555 1_555
N1 Cd1 1_555 1_555
N2 N3 1_555 1_555
C3 O4 1_555 1_555
C4 C6 1_555 1_555
C5 C7 1_555 1_555
C6 C2 1_555 1_555
H1 C6 1_555 1_555
C7 C2 1_555 1_555
H2 C7 1_555 1_555
N3 H3 1_555 1_555
H4 N3 1_555 1_555
N4 C14 1_555 1_555
C8 C11 1_555 1_555
C9 N1 1_555 1_555
H5 C9 1_555 1_555
C10 C4 1_555 1_555
H6 C10 1_555 1_555
C11 H7 1_555 1_555
C12 N2 1_555 1_555
C13 C8 1_555 1_555
H8 C13 1_555 1_555
C14 N2 1_555 1_555
N5 N4 1_555 1_555
N6 C5 1_555 1_555
H9 N6 1_555 1_555
H10 N6 1_555 1_555
C15 N1 1_555 1_555
H11 C15 1_555 1_555
C16 C14 1_555 1_555
C17 C16 1_555 1_555
H12 C17 1_555 1_555
C18 C16 1_555 1_555
H13 C18 1_555 1_555
C19 C17 1_555 1_555
H14 C19 1_555 1_555
C20 C18 1_555 1_555
H15 C20 1_555 1_555
N7 C19 1_555 1_555
Cd1_2 N7 1_555 1_555
Cd1A O2 1_555 1_555
Cd1B O1 1_555 1_555
O1B Cd1 1_555 1_555
O2A Cd1 1_555 1_555
O3A Cd1 1_555 1_555
N7_2 Cd1 1_555 1_555
O3 Cd1A 1_555 1_555
C5 C10 1_555 1_555
C8 C12 1_555 1_555
C9 C13 1_555 1_555
C11 C15 1_555 1_555
C12 N5 1_555 1_555
C20 N7 1_555 1_555
Cd1B O1B 1_555 1_555

#END
