
#######################################################################
#
#                 Cambridge Crystallographic Data Centre
#                                CCDC 
#
#######################################################################
#
# If this CIF has been generated from an entry in the Cambridge 
# Structural Database, then it will include bibliographic, chemical, 
# crystal, experimental, refinement or atomic coordinate data resulting 
# from the CCDC's data processing and validation procedures.
#
#######################################################################

data_AKEDIF
_chemical_formula_moiety         '(C33 H31 N3 O5 Zn1)n'
_symmetry_cell_setting           monoclinic
_symmetry_space_group_name_H-M   'C 2/c'
_symmetry_Int_Tables_number      15
_space_group_name_Hall           '-C 2yc'
loop_
_symmetry_equiv_pos_site_id
_symmetry_equiv_pos_as_xyz
1 x,y,z
2 -x,y,1/2-z
3 1/2+x,1/2+y,z
4 1/2-x,1/2+y,1/2-z
5 -x,-y,-z
6 x,-y,1/2+z
7 1/2-x,1/2-y,-z
8 1/2+x,1/2-y,1/2+z
_cell_length_a                   31.3256(6)
_cell_length_b                   5.88880(10)
_cell_length_c                   20.4485(4)
_cell_angle_alpha                90
_cell_angle_beta                 102.229(2)
_cell_angle_gamma                90
_cell_volume                     3686.54
loop_
_atom_site_label
_atom_site_type_symbol
_atom_site_fract_x
_atom_site_fract_y
_atom_site_fract_z
_atom_site_U_iso_or_equiv
_atom_site_thermal_displace_type
Zn1 Zn 0.5000 0.32114(5) 0.2500 0.0183 Uani
O1 O 0.49744(4) 0.1116(2) 0.32359(6) 0.0272 Uani
O2 O 0.47390(5) 0.4223(2) 0.36596(6) 0.0370 Uani
N1 N 0.44800(4) 0.5196(3) 0.20930(7) 0.0221 Uani
C1 C 0.42071(6) 0.4599(3) 0.15177(9) 0.0281 Uani
H1 H 0.4255 0.3203 0.1312 0.0340 Uiso
C2 C 0.38616(6) 0.5938(4) 0.12175(10) 0.0344 Uani
H2 H 0.3675 0.5455 0.0813 0.0410 Uiso
C3 C 0.37839(6) 0.8003(4) 0.15048(10) 0.0338 Uani
C4 C 0.40651(6) 0.8587(3) 0.21029(10) 0.0328 Uani
H3 H 0.4022 0.9964 0.2323 0.0390 Uiso
C5 C 0.44055(6) 0.7167(3) 0.23758(9) 0.0277 Uani
H4 H 0.4596 0.7605 0.2782 0.0330 Uiso
C6 C 0.34293(7) 0.9574(4) 0.12182(12) 0.0429 Uani
H5 H 0.3373 1.0797 0.1491 0.0510 Uiso
C7 C 0.31851(7) 0.9422(4) 0.06177(12) 0.0454 Uani
H6 H 0.3237 0.8167 0.0353 0.0540 Uiso
C8 C 0.28337(7) 1.1022(4) 0.03085(13) 0.0460 Uani
C9 C 0.27493(7) 1.3018(4) 0.06262(13) 0.0497 Uani
H7 H 0.2920 1.3383 0.1055 0.0600 Uiso
C10 C 0.25837(7) 1.0518(5) -0.03186(13) 0.0515 Uani
H8 H 0.2639 0.9167 -0.0541 0.0620 Uiso
C11 C 0.48710(6) 0.2245(3) 0.37163(8) 0.0243 Uani
C12 C 0.49331(6) 0.1050(3) 0.43787(8) 0.0225 Uani
C13 C 0.51230(6) -0.1084(3) 0.44658(9) 0.0273 Uani
H9 H 0.5206 -0.1831 0.4100 0.0330 Uiso
C14 C 0.48088(6) 0.2126(3) 0.49148(9) 0.0284 Uani
H10 H 0.4676 0.3584 0.4855 0.0340 Uiso
O1D O 0.50256(4) -0.1116(2) 0.67641(6) 0.0272 Uani
O2D O 0.52610(5) -0.4223(2) 0.63404(6) 0.0370 Uani
C11D C 0.51290(6) -0.2245(3) 0.62837(8) 0.0243 Uani
C12D C 0.50669(6) -0.1050(3) 0.56213(8) 0.0225 Uani
C13D C 0.48770(6) 0.1084(3) 0.55342(9) 0.0273 Uani
H9D H 0.4794 0.1831 0.5900 0.0330 Uiso
C14D C 0.51912(6) -0.2126(3) 0.50852(9) 0.0284 Uani
H10D H 0.5324 -0.3584 0.5145 0.0340 Uiso
N1F N 0.05200(4) 1.9804(3) -0.20930(7) 0.0221 Uani
C1F C 0.07929(6) 2.0401(3) -0.15177(9) 0.0281 Uani
H1F H 0.0745 2.1797 -0.1312 0.0340 Uiso
C2F C 0.11384(6) 1.9062(4) -0.12175(10) 0.0344 Uani
H2F H 0.1325 1.9545 -0.0813 0.0410 Uiso
C3F C 0.12161(6) 1.6997(4) -0.15048(10) 0.0338 Uani
C4F C 0.09349(6) 1.6413(3) -0.21029(10) 0.0328 Uani
H3F H 0.0978 1.5036 -0.2323 0.0390 Uiso
C5F C 0.05945(6) 1.7833(3) -0.23758(9) 0.0277 Uani
H4F H 0.0404 1.7395 -0.2782 0.0330 Uiso
C6F C 0.15707(7) 1.5426(4) -0.12182(12) 0.0429 Uani
H5F H 0.1627 1.4203 -0.1491 0.0510 Uiso
C7F C 0.18149(7) 1.5578(4) -0.06177(12) 0.0454 Uani
H6F H 0.1763 1.6833 -0.0353 0.0540 Uiso
C8F C 0.21663(7) 1.3978(4) -0.03085(13) 0.0460 Uani
C9F C 0.22507(7) 1.1982(4) -0.06262(13) 0.0497 Uani
H7F H 0.2080 1.1617 -0.1055 0.0600 Uiso
C10F C 0.24163(7) 1.4482(5) 0.03186(13) 0.0515 Uani
H8F H 0.2361 1.5833 0.0541 0.0620 Uiso
Zn1D Zn 0.5000 -0.32114(5) 0.7500 0.0183 Uani
Zn1F Zn 0.0000 2.17886(5) -0.2500 0.0183 Uani
O1A O 0.50256(4) 0.1116(2) 0.17641(6) 0.0272 Uani
N1A N 0.55200(4) 0.5196(3) 0.29070(7) 0.0221 Uani
O3 O 0.15762(8) -0.2144(4) 0.24121(14) 0.0922 Uani
N2 N 0.14928(8) 0.0673(5) 0.16462(14) 0.0718 Uani
C15 C 0.19617(18) 0.0934(12) 0.1680(3) 0.0763 Uani
H11 H 0.2105 -0.0569 0.1755 0.0910 Uiso
H12 H 0.2008 0.1535 0.1248 0.0910 Uiso
C16 C 0.2156(3) 0.2450(15) 0.2210(5) 0.1368 Uani
H13 H 0.2472 0.2517 0.2241 0.2050 Uiso
H14 H 0.2097 0.1896 0.2635 0.2050 Uiso
H15 H 0.2031 0.3971 0.2118 0.2050 Uiso
C17 C 0.11761(16) 0.2239(9) 0.1232(2) 0.0519 Uani
H16 H 0.1253 0.3823 0.1371 0.0620 Uiso
H17 H 0.0880 0.1927 0.1309 0.0620 Uiso
C18 C 0.11708(18) 0.1983(13) 0.0475(3) 0.0844 Uani
H18 H 0.0939 0.2938 0.0216 0.1270 Uiso
H19 H 0.1116 0.0392 0.0342 0.1270 Uiso
H20 H 0.1454 0.2456 0.0388 0.1270 Uiso
C19 C 0.13514(9) -0.0968(5) 0.19923(15) 0.0597 Uani
H21 H 0.1046 -0.1240 0.1901 0.0720 Uiso
loop_
_atom_site_aniso_label
_atom_site_aniso_U_11
_atom_site_aniso_U_22
_atom_site_aniso_U_33
_atom_site_aniso_U_23
_atom_site_aniso_U_13
_atom_site_aniso_U_12
Zn1 0.02128(15) 0.01952(16) 0.01234(14) 0.000 -0.00045(10) 0.000
O1 0.0418(7) 0.0250(7) 0.0145(6) 0.0008(5) 0.0051(5) -0.0046(6)
O2 0.0566(9) 0.0311(8) 0.0232(7) 0.0071(6) 0.0083(6) 0.0114(7)
N1 0.0221(7) 0.0236(8) 0.0186(7) 0.0029(6) -0.0002(6) 0.0015(6)
C1 0.0269(9) 0.0296(10) 0.0243(9) 0.0003(8) -0.0025(7) 0.0006(8)
C2 0.0268(10) 0.0394(12) 0.0304(10) 0.0043(9) -0.0089(8) -0.0001(9)
C3 0.0256(9) 0.0336(12) 0.0406(11) 0.0125(9) 0.0033(8) 0.0037(8)
C4 0.0337(10) 0.0259(10) 0.0380(11) 0.0039(8) 0.0056(8) 0.0048(8)
C5 0.0306(9) 0.0252(10) 0.0255(9) 0.0006(8) 0.0019(7) 0.0004(8)
C6 0.0310(11) 0.0393(13) 0.0544(13) 0.0124(11) -0.0001(10) 0.0059(9)
C7 0.0329(11) 0.0426(14) 0.0563(14) 0.0119(11) -0.0004(10) 0.0025(10)
C8 0.0303(11) 0.0437(14) 0.0597(15) 0.0199(12) -0.0001(10) 0.0002(10)
C9 0.0333(11) 0.0485(15) 0.0593(15) 0.0148(12) -0.0079(10) 0.0000(10)
C10 0.0378(12) 0.0452(14) 0.0640(16) 0.0161(12) -0.0059(11) 0.0028(11)
C11 0.0275(9) 0.0268(10) 0.0172(8) 0.0012(7) 0.0017(7) -0.0023(7)
C12 0.0263(9) 0.0242(9) 0.0162(8) 0.0008(7) 0.0028(7) -0.0017(7)
C13 0.0387(10) 0.0263(10) 0.0181(8) -0.0022(7) 0.0087(7) 0.0041(8)
C14 0.0403(10) 0.0238(10) 0.0217(9) 0.0019(7) 0.0077(8) 0.0074(8)
O1D 0.0418 0.025 0.0145 0.0008 0.0051 -0.0046
O2D 0.0566 0.0311 0.0232 0.0071 0.0083 0.0114
C11D 0.0275 0.0268 0.0172 0.0012 0.0017 -0.0023
C12D 0.0263 0.0242 0.0162 0.0008 0.0028 -0.0017
C13D 0.0387 0.0263 0.0181 -0.0022 0.0087 0.0041
C14D 0.0403 0.0238 0.0217 0.0019 0.0077 0.0074
N1F 0.0221 0.0236 0.0186 0.0029 -0.0002 0.0015
C1F 0.0269 0.0296 0.0243 0.0003 -0.0025 0.0006
C2F 0.0268 0.0394 0.0304 0.0043 -0.0089 -0.0001
C3F 0.0256 0.0336 0.0406 0.0125 0.0033 0.0037
C4F 0.0337 0.0259 0.038 0.0039 0.0056 0.0048
C5F 0.0306 0.0252 0.0255 0.0006 0.0019 0.0004
C6F 0.031 0.0393 0.0544 0.0124 -0.0001 0.0059
C7F 0.0329 0.0426 0.0563 0.0119 -0.0004 0.0025
C8F 0.0303 0.0437 0.0597 0.0199 -0.0001 0.0002
C9F 0.0333 0.0485 0.0593 0.0148 -0.0079 0
C10F 0.0378 0.0452 0.064 0.0161 -0.0059 0.0028
Zn1D 0.02128 0.01952 0.01234 0 -0.00045 0
Zn1F 0.02128 0.01952 0.01234 0 -0.00045 0
O1A 0.0418 0.025 0.0145 -0.0008 0.0051 0.0046
N1A 0.0221 0.0236 0.0186 -0.0029 -0.0002 -0.0015
O3 0.0686(14) 0.0825(17) 0.129(2) 0.0510(16) 0.0285(14) 0.0077(12)
N2 0.0505(13) 0.0794(18) 0.0868(18) 0.0268(15) 0.0176(12) -0.0163(13)
C15 0.046(3) 0.092(5) 0.095(4) 0.020(4) 0.024(3) -0.017(3)
C16 0.075(5) 0.116(6) 0.201(9) -0.015(6) -0.012(5) -0.033(4)
C17 0.055(2) 0.050(3) 0.052(3) 0.017(2) 0.0145(19) -0.004(2)
C18 0.076(3) 0.128(6) 0.053(3) 0.022(3) 0.022(2) -0.015(3)
C19 0.0514(15) 0.0553(17) 0.0780(19) 0.0085(15) 0.0262(14) -0.0040(13)
loop_
_geom_bond_atom_site_label_1
_geom_bond_atom_site_label_2
_geom_bond_site_symmetry_1
_geom_bond_site_symmetry_2
Zn1 O1 1_555 1_555
O1 C11 1_555 1_555
O2 C11 1_555 1_555
N1 Zn1 1_555 1_555
C1 N1 1_555 1_555
H1 C1 1_555 1_555
C2 C1 1_555 1_555
H2 C2 1_555 1_555
C3 C2 1_555 1_555
C4 C3 1_555 1_555
H3 C4 1_555 1_555
C5 N1 1_555 1_555
H4 C5 1_555 1_555
C6 C3 1_555 1_555
H5 C6 1_555 1_555
C7 C6 1_555 1_555
H6 C7 1_555 1_555
C8 C7 1_555 1_555
C9 C8 1_555 1_555
H7 C9 1_555 1_555
C10 C8 1_555 1_555
H8 C10 1_555 1_555
C11 C12 1_555 1_555
C12 C13 1_555 1_555
C13 H9 1_555 1_555
C14 C12 1_555 1_555
H10 C14 1_555 1_555
O3 C19 1_555 1_555
N2 C15 1_555 1_555
C15 H11 1_555 1_555
H12 C15 1_555 1_555
C16 C15 1_555 1_555
H13 C16 1_555 1_555
H14 C16 1_555 1_555
H15 C16 1_555 1_555
C17 N2 1_555 1_555
H16 C17 1_555 1_555
H17 C17 1_555 1_555
C18 C17 1_555 1_555
H18 C18 1_555 1_555
H19 C18 1_555 1_555
H20 C18 1_555 1_555
C19 N2 1_555 1_555
H21 C19 1_555 1_555
O1D C11D 1_555 1_555
O2D C11D 1_555 1_555
C11D C12D 1_555 1_555
C12D C13D 1_555 1_555
C13D C14 1_555 1_555
H9D C13D 1_555 1_555
C14D C13 1_555 1_555
H10D C14D 1_555 1_555
N1F C1F 1_555 1_555
C1F H1F 1_555 1_555
C2F C1F 1_555 1_555
H2F C2F 1_555 1_555
C3F C2F 1_555 1_555
C4F C3F 1_555 1_555
H3F C4F 1_555 1_555
C5F N1F 1_555 1_555
H4F C5F 1_555 1_555
C6F C3F 1_555 1_555
H5F C6F 1_555 1_555
C7F C6F 1_555 1_555
H6F C7F 1_555 1_555
C8F C7F 1_555 1_555
C9F C10 1_555 1_555
H7F C9F 1_555 1_555
C10F C9 1_555 1_555
H8F C10F 1_555 1_555
Zn1D O1D 1_555 1_555
Zn1F N1F 1_555 1_555
O1A Zn1 1_555 1_555
N1A Zn1 1_555 1_555
C4 C5 1_555 1_555
C12D C14D 1_555 1_555
C4F C5F 1_555 1_555
C8F C9F 1_555 1_555
C8F C10F 1_555 1_555

#END
