
#######################################################################
#
#                 Cambridge Crystallographic Data Centre
#                                CCDC 
#
#######################################################################
#
# If this CIF has been generated from an entry in the Cambridge 
# Structural Database, then it will include bibliographic, chemical, 
# crystal, experimental, refinement or atomic coordinate data resulting 
# from the CCDC's data processing and validation procedures.
#
#######################################################################

data_PYDCUT
_chemical_formula_moiety         '(C8 H6 Cu2 N4 S3)n'
_symmetry_cell_setting           monoclinic
_symmetry_space_group_name_H-M   'C c'
_symmetry_Int_Tables_number      9
_space_group_name_Hall           'C -2yc'
loop_
_symmetry_equiv_pos_site_id
_symmetry_equiv_pos_as_xyz
1 x,y,z
2 1/2+x,1/2+y,z
3 x,-y,1/2+z
4 1/2+x,1/2-y,1/2+z
_cell_length_a                   11.238(7)
_cell_length_b                   11.644(4)
_cell_length_c                   10.020(4)
_cell_angle_alpha                90
_cell_angle_beta                 102.67(2)
_cell_angle_gamma                90
_cell_volume                     1279.24
loop_
_atom_site_label
_atom_site_type_symbol
_atom_site_fract_x
_atom_site_fract_y
_atom_site_fract_z
Cu1 Cu 0.25000 0.57450 0.25000
Cu2 Cu 0.43100 0.40480 0.29340
S1 S 0.15840 0.67480 0.05450
C1 C 0.07190 0.75820 0.12390
N1 N 0.01350 0.81750 0.17460
S2 S 0.20850 0.37270 0.20320
C2 C 0.21270 0.38010 0.03860
N2 N 0.21620 0.38570 -0.07540
S3 S 0.46810 0.60850 0.26940
C3 C 0.46400 0.61600 0.10310
N3 N 0.46350 0.62010 -0.01100
Cu2A Cu -0.06900 0.90480 0.29340
N2B N 0.21620 0.61430 0.42460
Cu1B Cu 0.25000 0.42550 -0.25000
Cu2B Cu 0.43100 0.59520 -0.20660
N1A N 0.51350 0.31750 0.17460
N3B N 0.46350 0.37990 0.48900
N4 N 0.25240 0.01880 0.45760
C4 C 0.26730 -0.08900 0.43610
C5 C 0.34070 -0.12240 0.36520
C6 C 0.41750 -0.04390 0.31860
C7 C 0.39980 0.07330 0.34480
C8 C 0.31460 0.10100 0.41400
loop_
_geom_bond_atom_site_label_1
_geom_bond_atom_site_label_2
_geom_bond_site_symmetry_1
_geom_bond_site_symmetry_2
Cu1 S1 1_555 1_555
Cu2 S2 1_555 1_555
S1 C1 1_555 1_555
C1 N1 1_555 1_555
N1 Cu2A 1_555 1_555
S2 Cu1 1_555 1_555
C2 S2 1_555 1_555
N2 C2 1_555 1_555
S3 Cu1 1_555 1_555
C3 S3 1_555 1_555
N3 C3 1_555 1_555
N4 C4 1_555 1_555
C4 C5 1_555 1_555
C5 C6 1_555 1_555
C6 C7 1_555 1_555
C7 C8 1_555 1_555
C8 N4 1_555 1_555
N2B Cu1 1_555 1_555
Cu1B N2 1_555 1_555
Cu2B N3 1_555 1_555
N1A Cu2 1_555 1_555
N3B Cu2 1_555 1_555
Cu2 S3 1_555 1_555

#END
