
#######################################################################
#
#                 Cambridge Crystallographic Data Centre
#                                CCDC 
#
#######################################################################
#
# If this CIF has been generated from an entry in the Cambridge 
# Structural Database, then it will include bibliographic, chemical, 
# crystal, experimental, refinement or atomic coordinate data resulting 
# from the CCDC's data processing and validation procedures.
#
#######################################################################

data_QEVKOS
_chemical_formula_moiety         '(C35 H34 Cu4 N11 O4 S8 W2)n'
_symmetry_cell_setting           monoclinic
_symmetry_space_group_name_H-M   'C 2/c'
_symmetry_Int_Tables_number      15
_space_group_name_Hall           '-C 2yc'
loop_
_symmetry_equiv_pos_site_id
_symmetry_equiv_pos_as_xyz
1 x,y,z
2 1/2+x,1/2+y,z
3 -x,y,1/2-z
4 1/2-x,1/2+y,1/2-z
5 -x,-y,-z
6 1/2-x,1/2-y,-z
7 x,-y,1/2+z
8 1/2+x,1/2-y,1/2+z
_cell_length_a                   25.503(2)
_cell_length_b                   11.0317(6)
_cell_length_c                   19.6110(16)
_cell_angle_alpha                90
_cell_angle_beta                 119.076(2)
_cell_angle_gamma                90
_cell_volume                     4822.06
loop_
_atom_site_label
_atom_site_type_symbol
_atom_site_fract_x
_atom_site_fract_y
_atom_site_fract_z
N5 N 0.5000 0.012(2) 0.2500
C15 C 0.5604(15) -0.022(3) 0.297(2)
H15 H 0.5637 -0.1102 0.3003
H16 H 0.5751 0.0114 0.3501
H17 H 0.5846 0.0108 0.2752
C16 C 0.5000 0.143(4) 0.2500
O1 O 0.5517(11) 0.179(2) 0.3136(15)
C15B C 0.4396(15) -0.022(3) 0.203(2)
H15B H 0.4363 -0.1102 0.1997
H16B H 0.4249 0.0114 0.1499
H17B H 0.4154 0.0108 0.2248
O1B O 0.4483(11) 0.179(2) 0.1864(15)
N6 N 0.7313(5) 0.2435(13) 0.4739(7)
C17 C 0.7852(6) 0.2148(11) 0.4768(8)
C18 C 0.6834(9) 0.2219(19) 0.4088(12)
O2 O 0.6305(10) 0.242(2) 0.3947(13)
N6E N 0.7687(5) 0.2565(13) 0.5261(7)
C17E C 0.7148(6) 0.2852(11) 0.5232(8)
C18E C 0.8166(9) 0.2781(19) 0.5912(12)
O2E O 0.8695(10) 0.258(2) 0.6053(13)
W1 W 0.256640(9) 0.587740(17) 0.255260(11)
Cu1 Cu 0.32900(3) 0.07865(6) 0.39501(4)
Cu2 Cu 0.25611(3) 0.33722(5) 0.25314(4)
S1 S 0.16958(6) 0.21826(12) 0.20079(9)
S2 S 0.25940(6) 0.47221(11) 0.16321(8)
S3 S 0.33023(6) 0.19110(12) 0.29716(9)
S4 S 0.23627(8) 0.96907(13) 0.15078(9)
N1 N 0.1640(2) 0.6692(4) 0.0117(3)
N2 N 0.1431(2) 0.8138(5) -0.0760(3)
N3 N 0.0991(2) 0.4659(4) 0.0668(3)
N4 N 0.0325(2) 0.3276(4) -0.0012(3)
C1 C 0.1404(2) 0.7773(5) -0.0124(3)
H1 H 0.1233 0.8244 0.0124
C2 C 0.1838(4) 0.6364(8) -0.0399(5)
H2 H 0.2038 0.5628 -0.0378
C3 C 0.1706(4) 0.7235(9) -0.0933(5)
H3 H 0.1789 0.7221 -0.1356
C4 C 0.1207(3) 0.9291(6) -0.1167(4)
H4 H 0.1483 0.9579 -0.1355
H5 H 0.1212 0.9898 -0.0793
C5 C 0.0576(3) 0.9214(5) -0.1858(4)
C6 C 0.0488(3) 0.9205(7) -0.2616(4)
H6 H 0.0824 0.9201 -0.2702
C7 C 0.0083(3) 0.9202(7) -0.1760(4)
H7 H 0.0135 0.9191 -0.1246
C8 C 0.0794(3) 0.3928(5) 0.0062(4)
H8 H 0.0961 0.3871 -0.0276
C9 C 0.0634(3) 0.4464(5) 0.0993(4)
H9 H 0.0669 0.4864 0.1442
C10 C 0.0221(3) 0.3612(6) 0.0577(5)
H10 H -0.0084 0.3308 0.0677
C11 C -0.0006(3) 0.2386(6) -0.0627(4)
H11 H 0.0177 0.2325 -0.0970
H12 H -0.0426 0.2663 -0.0949
C12 C -0.0003(3) 0.1151(5) -0.0291(4)
C13 C 0.0518(2) 0.0665(5) 0.0297(4)
H13 H 0.0879 0.1122 0.0504
C14 C -0.0525(2) 0.0471(5) -0.0588(4)
H14 H -0.0889 0.0792 -0.0994
W1C W 0.243360(9) 0.087740(17) 0.244740(11)
W1C_2 W 0.243360(9) 1.087740(17) 0.244740(11)
Cu1_2 Cu 0.32900(3) 1.07865(6) 0.39501(4)
Cu1C Cu 0.17100(3) 0.57865(6) 0.10499(4)
Cu1A Cu -0.17100(3) 0.57865(6) -0.60499(4)
Cu1G Cu -0.17100(3) -0.57865(6) -0.10499(4)
Cu2C Cu 0.24389(3) 0.83722(5) 0.24686(4)
S1C S 0.33042(6) 0.71826(12) 0.29921(9)
S1_2 S 0.16958(6) 1.21826(12) 0.20079(9)
S2C S 0.24060(6) -0.02779(11) 0.33679(8)
S2C_2 S 0.24060(6) 0.97221(11) 0.33679(8)
S3_2 S 0.33023(6) 1.19110(12) 0.29716(9)
S3C S 0.16977(6) 0.69110(12) 0.20284(9)
S4C S 0.26373(8) 0.46907(13) 0.34922(9)
N1C N 0.3360(2) 0.1692(4) 0.4883(3)
N1B N -0.1640(2) 0.6692(4) -0.5117(3)
N2B N -0.1431(2) 0.8138(5) -0.4240(3)
N3C N 0.4009(2) -0.0341(4) 0.4332(3)
N3D N -0.0991(2) -0.4659(4) -0.0668(3)
N4D N -0.0325(2) -0.3276(4) 0.0012(3)
C1B C -0.1404(2) 0.7773(5) -0.4876(3)
H1B H -0.1233 0.8244 -0.5124
C2B C -0.1838(4) 0.6364(8) -0.4601(5)
H2B H -0.2038 0.5628 -0.4622
C3B C -0.1706(4) 0.7235(9) -0.4067(5)
H3B H -0.1789 0.7221 -0.3644
C4B C -0.1207(3) 0.9291(6) -0.3833(4)
H4B H -0.1483 0.9579 -0.3645
H5B H -0.1212 0.9898 -0.4207
C5B C -0.0576(3) 0.9214(5) -0.3142(4)
C6B C -0.0488(3) 0.9205(7) -0.2384(4)
H6B H -0.0824 0.9201 -0.2298
C7B C -0.0083(3) 0.9202(7) -0.3240(4)
H7B H -0.0135 0.9191 -0.3754
C8D C -0.0794(3) -0.3928(5) -0.0062(4)
H8D H -0.0961 -0.3871 0.0276
C9D C -0.0634(3) -0.4464(5) -0.0993(4)
H9D H -0.0669 -0.4864 -0.1442
C10D C -0.0221(3) -0.3612(6) -0.0577(5)
H10D H 0.0084 -0.3308 -0.0677
C11D C 0.0006(3) -0.2386(6) 0.0627(4)
H11D H -0.0177 -0.2325 0.0970
H12D H 0.0426 -0.2663 0.0949
C12D C 0.0003(3) -0.1151(5) 0.0291(4)
C13D C -0.0518(2) -0.0665(5) -0.0297(4)
H13D H -0.0879 -0.1122 -0.0504
C14D C 0.0525(2) -0.0471(5) 0.0588(4)
H14D H 0.0889 -0.0792 0.0994
loop_
_geom_bond_atom_site_label_1
_geom_bond_atom_site_label_2
_geom_bond_site_symmetry_1
_geom_bond_site_symmetry_2
W1 S2 1_555 1_555
Cu1 S3 1_555 1_555
Cu2 S1 1_555 1_555
S1 W1C 1_555 1_555
S2 Cu2 1_555 1_555
S3 Cu2 1_555 1_555
S4 W1C_2 1_555 1_555
N1 C1 1_555 1_555
N2 C1 1_555 1_555
N3 C8 1_555 1_555
N4 C8 1_555 1_555
C1 H1 1_555 1_555
C2 N1 1_555 1_555
H2 C2 1_555 1_555
C3 N2 1_555 1_555
H3 C3 1_555 1_555
C4 N2 1_555 1_555
H4 C4 1_555 1_555
H5 C4 1_555 1_555
C5 C4 1_555 1_555
C6 C5 1_555 1_555
H6 C6 1_555 1_555
C7 C5 1_555 1_555
H7 C7 1_555 1_555
C8 H8 1_555 1_555
C9 N3 1_555 1_555
H9 C9 1_555 1_555
C10 N4 1_555 1_555
H10 C10 1_555 1_555
C11 N4 1_555 1_555
H11 C11 1_555 1_555
H12 C11 1_555 1_555
C12 C11 1_555 1_555
C13 C12 1_555 1_555
H13 C13 1_555 1_555
C14 C12 1_555 1_555
H14 C14 1_555 1_555
N5 C15 1_555 1_555
C15 H15 1_555 1_555
H16 C15 1_555 1_555
H17 C15 1_555 1_555
C16 N5 1_555 1_555
O1 C16 1_555 1_555
N6 C17 1_555 1_555
C17 N6E 1_555 1_555
C18 N6 1_555 1_555
O2 C18 1_555 1_555
W1C S3 1_555 1_555
W1C_2 S1_2 1_555 1_555
Cu1_2 S2C_2 1_555 1_555
Cu1C S2 1_555 1_555
Cu1A N1B 1_555 1_555
Cu1G N3D 1_555 1_555
Cu2C S4 1_555 1_555
S1C W1 1_555 1_555
S2C Cu1 1_555 1_555
S2C_2 W1C_2 1_555 1_555
S3_2 W1C_2 1_555 1_555
S3C W1 1_555 1_555
S4C W1 1_555 1_555
N1C Cu1 1_555 1_555
N1B C1B 1_555 1_555
N2B C1B 1_555 1_555
N3C Cu1 1_555 1_555
N3D C8D 1_555 1_555
N4D C8D 1_555 1_555
C1B H1B 1_555 1_555
C2B N1B 1_555 1_555
H2B C2B 1_555 1_555
C3B N2B 1_555 1_555
H3B C3B 1_555 1_555
C4B N2B 1_555 1_555
H4B C4B 1_555 1_555
H5B C4B 1_555 1_555
C5B C4B 1_555 1_555
C6B C7 1_555 1_555
H6B C6B 1_555 1_555
C7B C6 1_555 1_555
H7B C7B 1_555 1_555
C8D H8D 1_555 1_555
C9D N3D 1_555 1_555
H9D C9D 1_555 1_555
C10D N4D 1_555 1_555
H10D C10D 1_555 1_555
C11D N4D 1_555 1_555
H11D C11D 1_555 1_555
H12D C11D 1_555 1_555
C12D C11D 1_555 1_555
C13D C14 1_555 1_555
H13D C13D 1_555 1_555
C14D C13 1_555 1_555
H14D C14D 1_555 1_555
C15B N5 1_555 1_555
H15B C15B 1_555 1_555
H16B C15B 1_555 1_555
H17B C15B 1_555 1_555
O1B C16 1_555 1_555
N6E N6 1_555 1_555
C17E N6 1_555 1_555
C18E N6E 1_555 1_555
O2E C18E 1_555 1_555
Cu2 S4C 1_555 1_555
N1 Cu1C 1_555 1_555
N3 Cu1C 1_555 1_555
C2 C3 1_555 1_555
C9 C10 1_555 1_555
W1C S2C 1_555 1_555
Cu1_2 S3_2 1_555 1_555
Cu1C S3C 1_555 1_555
Cu2C S1C 1_555 1_555
Cu2C S2C_2 1_555 1_555
Cu2C S3C 1_555 1_555
C2B C3B 1_555 1_555
C5B C6B 1_555 1_555
C5B C7B 1_555 1_555
C9D C10D 1_555 1_555
C12D C13D 1_555 1_555
C12D C14D 1_555 1_555
N6E C17E 1_555 1_555

#END
