
#######################################################################
#
#                 Cambridge Crystallographic Data Centre
#                                CCDC 
#
#######################################################################
#
# If this CIF has been generated from an entry in the Cambridge 
# Structural Database, then it will include bibliographic, chemical, 
# crystal, experimental, refinement or atomic coordinate data resulting 
# from the CCDC's data processing and validation procedures.
#
#######################################################################

data_AFIXAO
_chemical_formula_moiety         '(C40 H54 Co5 N20 O2)n'
_symmetry_cell_setting           monoclinic
_symmetry_space_group_name_H-M   'P 21/n'
_symmetry_Int_Tables_number      14
_space_group_name_Hall           '-P 2yn'
loop_
_symmetry_equiv_pos_site_id
_symmetry_equiv_pos_as_xyz
1 x,y,z
2 1/2-x,1/2+y,1/2-z
3 -x,-y,-z
4 1/2+x,1/2-y,1/2+z
_cell_length_a                   24.3406(8)
_cell_length_b                   9.4526(3)
_cell_length_c                   24.8470(8)
_cell_angle_alpha                90
_cell_angle_beta                 91.877(1)
_cell_angle_gamma                90
_cell_volume                     5713.78
loop_
_atom_site_label
_atom_site_type_symbol
_atom_site_fract_x
_atom_site_fract_y
_atom_site_fract_z
Co1 Co 0.73712(4) -0.04557(10) 0.32056(4)
Co2 Co 0.51569(4) -0.25970(10) 0.28512(4)
Co3 Co 0.53079(4) 0.23538(10) 0.14190(4)
Co4 Co 0.83988(4) 0.33253(10) 0.48313(4)
Co5 Co 0.28511(4) -0.46415(11) 0.31894(4)
N1 N 0.7179(3) 0.1402(6) 0.2856(3)
N2 N 0.7269(2) 0.3316(6) 0.2339(3)
N3 N 0.6692(2) -0.1476(6) 0.3400(3)
N4 N 0.5821(3) -0.2260(7) 0.3313(3)
N5 N 0.4939(2) -0.0759(7) 0.2516(3)
N6 N 0.4975(2) 0.1133(6) 0.1976(3)
N7 N 0.4507(3) -0.3352(7) 0.3203(3)
N8 N 0.3630(3) -0.4045(8) 0.3321(3)
N9 N 0.9027(2) 0.6307(6) 0.3803(2)
N10 N 0.8536(2) 0.4721(6) 0.4251(2)
N11 N 0.9832(2) 0.2515(6) 0.5763(3)
N12 N 0.9121(2) 0.2818(6) 0.5173(3)
N13 N 0.5478(2) -0.5775(6) 0.1744(3)
N14 N 0.5416(2) -0.3872(6) 0.2277(3)
N15 N 0.7917(3) 0.4279(6) 0.5349(2)
N16 N 0.7458(3) 0.4816(6) 0.6086(3)
N17 N 0.8148(2) 0.1512(6) 0.4497(2)
N18 N 0.7797(2) 0.0039(6) 0.3870(3)
N19 N 0.2402(3) -0.3294(7) 0.2748(3)
N20 N 0.2152(3) -0.1457(6) 0.2213(3)
C1 C 0.6754(3) 0.2329(8) 0.2951(3)
H1 H 0.6470 0.2186 0.3198
C2 C 0.6815(3) 0.3479(8) 0.2631(3)
H2 H 0.6575 0.4273 0.2615
C3 C 0.7484(3) 0.2049(7) 0.2490(3)
H3 H 0.7811 0.1663 0.2352
C4 C 0.6629(4) -0.2605(10) 0.3731(4)
H4 H 0.6907 -0.2998 0.3963
C5 C 0.6095(4) -0.3086(12) 0.3675(5)
H5 H 0.5945 -0.3867 0.3861
C6 C 0.6194(3) -0.1308(8) 0.3165(3)
H6 H 0.6112 -0.0575 0.2913
C7 C 0.4543(4) 0.0195(10) 0.2663(5)
H7 H 0.4299 0.0086 0.2950
C8 C 0.4565(4) 0.1335(9) 0.2320(4)
H8 H 0.4329 0.2135 0.2326
C9 C 0.5183(3) -0.0146(8) 0.2110(3)
H9 H 0.5480 -0.0568 0.1929
C10 C 0.4381(9) -0.303(3) 0.3744(8)
H10 H 0.4598 -0.2526 0.4003
C11 C 0.3852(7) -0.365(3) 0.3805(7)
H11 H 0.3680 -0.3773 0.4139
C12 C 0.4021(3) -0.3697(9) 0.2984(3)
H12 H 0.3956 -0.3695 0.2605
C13 C 0.8533(3) 0.6087(8) 0.3522(3)
H13 H 0.8424 0.6533 0.3193
C14 C 0.8234(3) 0.5147(8) 0.3789(3)
H14 H 0.7878 0.4823 0.3683
C15 C 0.9003(3) 0.5481(8) 0.4223(3)
H15 H 0.9292 0.5419 0.4488
C16 C 0.9941(4) 0.1848(10) 0.5299(4)
H16 H 1.0269 0.1342 0.5231
C17 C 0.9505(4) 0.2015(10) 0.4939(4)
H17 H 0.9479 0.1630 0.4586
C18 C 0.9331(3) 0.3093(8) 0.5666(3)
H18 H 0.9145 0.3643 0.5924
C19 C 0.5850(3) -0.4787(8) 0.1579(3)
H19 H 0.6091 -0.4889 0.1289
C20 C 0.5811(3) -0.3617(8) 0.1910(4)
H20 H 0.6023 -0.2777 0.1886
C21 C 0.5228(3) -0.5181(8) 0.2146(3)
H21 H 0.4940 -0.5631 0.2330
C22 C 0.7658(4) 0.5505(10) 0.5258(4)
H22 H 0.7676 0.6058 0.4940
C23 C 0.7356(4) 0.5839(10) 0.5709(4)
H23 H 0.7123 0.6635 0.5747
C24 C 0.7790(3) 0.3907(8) 0.5843(3)
H24 H 0.7924 0.3067 0.6011
C25 C 0.8243(3) 0.0152(9) 0.4661(3)
H25 H 0.8435 -0.0116 0.4985
C26 C 0.8020(3) -0.0762(8) 0.4289(3)
H26 H 0.8018 -0.1765 0.4313
C27 C 0.7886(3) 0.1380(8) 0.4021(3)
H27 H 0.7772 0.2168 0.3807
C28 C 0.1872(4) -0.3496(10) 0.2559(5)
H28 H 0.1649 -0.4290 0.2637
C29 C 0.1716(4) -0.2393(10) 0.2243(5)
H29 H 0.1365 -0.2279 0.2070
C30 C 0.2549(3) -0.2047(8) 0.2530(4)
H30 H 0.2899 -0.1627 0.2593
N2A N 0.7731(2) -0.1684(6) 0.2661(3)
N9A N 0.5973(2) 0.1307(6) 0.1197(2)
N11C N 0.4832(2) 0.2485(6) 0.0763(3)
N13_2 N 0.5478(2) 0.4225(6) 0.1744(3)
N16B N 0.2542(3) -0.4816(6) 0.3914(3)
N20A N 0.2848(3) -0.6457(6) 0.2787(3)
Co1A Co 0.76288(4) 0.45443(10) 0.17944(4)
Co3A Co 0.96921(4) 0.73538(10) 0.35810(4)
Co3C Co 1.03079(4) 0.26462(10) 0.64190(4)
Co3_2 Co 0.53079(4) -0.76462(10) 0.14190(4)
Co5B Co 0.71489(4) 0.46415(11) 0.68106(4)
Co5A Co 0.21489(4) 0.03585(11) 0.18106(4)
O1 O 0.2642 -0.5247 0.1178
H31 H 0.2395 -0.5433 0.1395
C31 C 0.3145 -0.4447 0.1493
H32 H 0.3001 -0.3576 0.1658
H33 H 0.3284 -0.5066 0.1788
C32 C 0.3594 -0.4073 0.1165
H34 H 0.3843 -0.4901 0.1160
H35 H 0.3442 -0.3958 0.0793
C33 C 0.3897 -0.2983 0.1265
H36 H 0.4043 -0.3437 0.1605
C34 C 0.4442 -0.3106 0.1027
H37 H 0.4469 -0.4017 0.0842
H38 H 0.4728 -0.3046 0.1313
H39 H 0.4490 -0.2336 0.0769
C35 C 0.3748 -0.1702 0.1570
H40 H 0.3373 -0.1802 0.1698
H41 H 0.3767 -0.0872 0.1335
H42 H 0.4005 -0.1582 0.1879
O2 O 0.3362 -0.9865 0.4239
H43 H 0.3071 -1.0030 0.4060
C36 C 0.3203 -0.9282 0.4873
H44 H 0.3463 -0.8583 0.5032
H45 H 0.2816 -0.8985 0.4910
C37 C 0.3331 -1.0930 0.5040
H46 H 0.2978 -1.1296 0.5171
H47 H 0.3389 -1.1419 0.4694
C38 C 0.3777 -1.1551 0.5437
H48 H 0.3567 -1.1374 0.5769
C39 C 0.3607 -1.3311 0.5386
H49 H 0.3857 -1.3868 0.5619
H50 H 0.3638 -1.3622 0.5012
H51 H 0.3228 -1.3448 0.5499
C40 C 0.4270 -1.1317 0.5668
H52 H 0.4340 -1.0297 0.5684
H53 H 0.4552 -1.1778 0.5458
H54 H 0.4279 -1.1706 0.6034
loop_
_geom_bond_atom_site_label_1
_geom_bond_atom_site_label_2
_geom_bond_site_symmetry_1
_geom_bond_site_symmetry_2
Co1 N1 1_555 1_555
Co2 N4 1_555 1_555
Co3 N6 1_555 1_555
Co4 N10 1_555 1_555
Co5 N8 1_555 1_555
N1 C1 1_555 1_555
N2 C2 1_555 1_555
N3 Co1 1_555 1_555
N4 C5 1_555 1_555
N5 Co2 1_555 1_555
N6 C8 1_555 1_555
N7 Co2 1_555 1_555
N8 C11 1_555 1_555
N9 C13 1_555 1_555
N10 C14 1_555 1_555
N11 C16 1_555 1_555
N12 Co4 1_555 1_555
N13 C19 1_555 1_555
N14 Co2 1_555 1_555
N15 Co4 1_555 1_555
N16 C23 1_555 1_555
N17 Co4 1_555 1_555
N18 Co1 1_555 1_555
N19 Co5 1_555 1_555
N20 C29 1_555 1_555
C1 H1 1_555 1_555
C2 C1 1_555 1_555
H2 C2 1_555 1_555
C3 N1 1_555 1_555
H3 C3 1_555 1_555
C4 N3 1_555 1_555
H4 C4 1_555 1_555
C5 C4 1_555 1_555
H5 C5 1_555 1_555
C6 N3 1_555 1_555
H6 C6 1_555 1_555
C7 N5 1_555 1_555
H7 C7 1_555 1_555
C8 C7 1_555 1_555
H8 C8 1_555 1_555
C9 N5 1_555 1_555
H9 C9 1_555 1_555
C10 N7 1_555 1_555
H10 C10 1_555 1_555
C11 C10 1_555 1_555
H11 C11 1_555 1_555
C12 N7 1_555 1_555
H12 C12 1_555 1_555
C13 H13 1_555 1_555
C14 C13 1_555 1_555
H14 C14 1_555 1_555
C15 N9 1_555 1_555
H15 C15 1_555 1_555
C16 H16 1_555 1_555
C17 N12 1_555 1_555
H17 C17 1_555 1_555
C18 N11 1_555 1_555
H18 C18 1_555 1_555
C19 H19 1_555 1_555
C20 N14 1_555 1_555
H20 C20 1_555 1_555
C21 N13 1_555 1_555
H21 C21 1_555 1_555
C22 N15 1_555 1_555
H22 C22 1_555 1_555
C23 C22 1_555 1_555
H23 C23 1_555 1_555
C24 N15 1_555 1_555
H24 C24 1_555 1_555
C25 N17 1_555 1_555
H25 C25 1_555 1_555
C26 N18 1_555 1_555
H26 C26 1_555 1_555
C27 N17 1_555 1_555
H27 C27 1_555 1_555
C28 N19 1_555 1_555
H28 C28 1_555 1_555
C29 C28 1_555 1_555
H29 C29 1_555 1_555
C30 N19 1_555 1_555
H30 C30 1_555 1_555
O1 H31 1_555 1_555
C31 O1 1_555 1_555
H32 C31 1_555 1_555
H33 C31 1_555 1_555
C32 C31 1_555 1_555
H34 C32 1_555 1_555
H35 C32 1_555 1_555
C33 C32 1_555 1_555
H36 C33 1_555 1_555
C34 C33 1_555 1_555
H37 C34 1_555 1_555
H38 C34 1_555 1_555
H39 C34 1_555 1_555
C35 C33 1_555 1_555
H40 C35 1_555 1_555
H41 C35 1_555 1_555
H42 C35 1_555 1_555
O2 H43 1_555 1_555
C36 O2 1_555 1_555
H44 C36 1_555 1_555
H45 C36 1_555 1_555
C37 C36 1_555 1_555
H46 C37 1_555 1_555
H47 C37 1_555 1_555
C38 C37 1_555 1_555
H48 C38 1_555 1_555
C39 C38 1_555 1_555
H49 C39 1_555 1_555
H50 C39 1_555 1_555
H51 C39 1_555 1_555
C40 C38 1_555 1_555
H52 C40 1_555 1_555
H53 C40 1_555 1_555
H54 C40 1_555 1_555
N2A Co1 1_555 1_555
N9A Co3 1_555 1_555
N11C Co3 1_555 1_555
N13_2 Co3 1_555 1_555
N16B Co5 1_555 1_555
N20A Co5 1_555 1_555
Co1A N2 1_555 1_555
Co3A N9 1_555 1_555
Co3C N11 1_555 1_555
Co3_2 N13 1_555 1_555
Co5B N16 1_555 1_555
Co5A N20 1_555 1_555
N2 C3 1_555 1_555
N4 C6 1_555 1_555
N6 C9 1_555 1_555
N8 C12 1_555 1_555
N10 C15 1_555 1_555
N12 C18 1_555 1_555
N14 C21 1_555 1_555
N16 C24 1_555 1_555
N18 C27 1_555 1_555
N20 C30 1_555 1_555
C16 C17 1_555 1_555
C19 C20 1_555 1_555
C25 C26 1_555 1_555

#END
