
#######################################################################
#
#                 Cambridge Crystallographic Data Centre
#                                CCDC 
#
#######################################################################
#
# If this CIF has been generated from an entry in the Cambridge 
# Structural Database, then it will include bibliographic, chemical, 
# crystal, experimental, refinement or atomic coordinate data resulting 
# from the CCDC's data processing and validation procedures.
#
#######################################################################

data_AFIXES
_chemical_formula_moiety         '(C32 H36 Co5 N20 O1)n'
_symmetry_cell_setting           monoclinic
_symmetry_space_group_name_H-M   'P 21/n'
_symmetry_Int_Tables_number      14
_space_group_name_Hall           '-P 2yn'
loop_
_symmetry_equiv_pos_site_id
_symmetry_equiv_pos_as_xyz
1 x,y,z
2 1/2-x,1/2+y,1/2-z
3 -x,-y,-z
4 1/2+x,1/2-y,1/2+z
_cell_length_a                   24.246(5)
_cell_length_b                   9.5182(19)
_cell_length_c                   24.685(5)
_cell_angle_alpha                90
_cell_angle_beta                 90.96(3)
_cell_angle_gamma                90
_cell_volume                     5695.96
loop_
_atom_site_label
_atom_site_type_symbol
_atom_site_fract_x
_atom_site_fract_y
_atom_site_fract_z
Co1 Co 0.73421(3) 0.04144(8) 0.31973(3)
Co2 Co 0.83926(3) -0.32458(8) 0.48294(3)
Co3 Co 1.03040(3) -0.26885(8) 0.63850(3)
Co4 Co 0.51404(3) 0.26264(8) 0.27838(3)
Co5 Co 0.71525(3) -0.46594(9) 0.68354(3)
N1 N 0.66510(19) 0.1405(5) 0.33747(18)
N2 N 0.57994(19) 0.2246(5) 0.3240(2)
N3 N 0.77087(19) 0.1655(5) 0.26751(17)
N4 N 0.7827(2) 0.3566(5) 0.21566(19)
N5 N 0.77371(16) -0.0064(5) 0.38753(17)
N6 N 0.81022(17) -0.1503(5) 0.45020(18)
N7 N 0.91101(18) -0.2737(5) 0.5162(2)
N8 N 0.9831(2) -0.2533(5) 0.57307(19)
N9 N 0.90199(17) -0.6292(5) 0.38267(18)
N10 N 0.5477(2) 0.5829(5) 0.16963(19)
N11 N 0.53968(19) 0.3923(5) 0.22137(18)
N12 N 0.4914(2) 0.0834(5) 0.2444(2)
N13 N 0.49685(19) -0.1082(6) 0.19194(18)
N14 N 0.79475(19) -0.4239(5) 0.53639(18)
N15 N 0.7496(2) -0.4818(6) 0.61290(19)
N16 N 0.36188(19) 0.4072(6) 0.3283(2)
N17 N 0.4494(2) 0.3404(5) 0.31574(19)
N18 N 0.85309(19) -0.4622(5) 0.42558(17)
N19 N 0.7157(2) -0.6464(6) 0.7209(2)
N20 N 0.7424(2) -0.8337(6) 0.7723(2)
C1 C 0.6185(2) 0.1346(7) 0.3097(2)
H1 H 0.6129 0.0708 0.2816
C2 C 0.7527(2) 0.2907(7) 0.2525(2)
H2 H 0.7209 0.3301 0.2667
C3 C 0.8172(3) 0.1510(7) 0.2383(3)
H3 H 0.8405 0.0735 0.2397
C4 C 0.8248(3) 0.2658(7) 0.2064(2)
H4 H 0.8536 0.2797 0.1826
C5 C 0.7865(2) -0.1367(7) 0.4023(2)
H5 H 0.7791 -0.2136 0.3801
C6 C 0.7921(2) 0.0711(7) 0.4294(3)
H6 H 0.7902 0.1685 0.4319
C7 C 0.8140(3) -0.0156(8) 0.4675(2)
H7 H 0.8293 0.0129 0.5006
C8 C 0.9323(2) -0.3025(6) 0.5638(2)
H8 H 0.9134 -0.3538 0.5896
C9 C 0.9514(3) -0.1996(8) 0.4930(3)
H9 H 0.9493 -0.1618 0.4583
C10 C 0.9951(3) -0.1878(8) 0.5265(3)
H10 H 1.0280 -0.1422 0.5188
C11 C 0.8997(2) -0.5371(7) 0.4236(2)
H11 H 0.9283 -0.5261 0.4488
C12 C 0.8235(2) -0.5116(6) 0.3812(2)
H12 H 0.7885 -0.4810 0.3707
C13 C 0.8529(2) -0.6107(7) 0.3554(2)
H13 H 0.8417 -0.6585 0.3242
C14 C 0.5230(2) 0.5187(7) 0.2108(3)
H14 H 0.4955 0.5621 0.2306
C15 C 0.5797(3) 0.3727(7) 0.1842(3)
H15 H 0.6006 0.2914 0.1809
C16 C 0.5847(2) 0.4866(8) 0.1531(2)
H16 H 0.6094 0.4977 0.1251
C17 C 0.5153(2) 0.0172(7) 0.2043(2)
H17 H 0.5441 0.0579 0.1856
C18 C 0.7775(2) -0.3891(7) 0.5850(3)
H18 H 0.7849 -0.3005 0.5993
C19 C 0.3999(3) 0.3686(7) 0.2950(2)
H19 H 0.3926 0.3610 0.2580
C20 C 0.7536(3) -0.7122(7) 0.7505(3)
H20 H 0.7882 -0.6719 0.7558
C21 C 0.6612(5) 0.2694(10) 0.3637(5)
H21 H 0.6897 0.3140 0.3827
C22 C 0.6094(4) 0.3193(11) 0.3571(4)
H22 H 0.5956 0.4018 0.3718
C23 C 0.4583(5) -0.0170(13) 0.2677(5)
H23 H 0.4375 -0.0080 0.2988
C24 C 0.4624(5) -0.1312(15) 0.2355(5)
H24 H 0.4443 -0.2156 0.2417
C25 C 0.7641(5) -0.5430(12) 0.5259(6)
H25 H 0.7630 -0.5929 0.4935
C26 C 0.7361(7) -0.5743(17) 0.5710(6)
H26 H 0.7111 -0.6479 0.5738
C27 C 0.4362(6) 0.3112(15) 0.3688(4)
H27 H 0.4595 0.2703 0.3947
C28 C 0.3826(5) 0.3532(14) 0.3769(4)
H28 H 0.3635 0.3465 0.4092
C29 C 0.6862(5) -0.8304(14) 0.7693(5)
H29 H 0.6624 -0.8919 0.7866
C30 C 0.6709(4) -0.7215(12) 0.7365(5)
H30 H 0.6347 -0.7012 0.7261
N4A N 0.7173(2) -0.1434(5) 0.28434(19)
N9B N 1.09801(17) -0.3708(5) 0.61733(18)
N10C N 1.0477(2) -0.0829(5) 0.66963(19)
N13C N 0.99685(19) -0.3918(6) 0.69194(18)
N16B N 0.63812(19) -0.4072(6) 0.6717(2)
N20A N 0.7576(2) -0.3337(6) 0.7277(2)
Co1A Co 0.76579(3) 0.54144(8) 0.18027(3)
Co3B Co 0.96960(3) -0.73115(8) 0.36150(3)
Co3C Co 0.53040(3) 0.76885(8) 0.13850(3)
Co3C_2 Co 0.53040(3) -0.23115(8) 0.13850(3)
Co5B Co 0.28475(3) 0.46594(9) 0.31646(3)
Co5A Co 0.78475(3) -0.96594(9) 0.81646(3)
C31 C 0.5913(6) -0.4166(16) 0.8861(5)
H31 H 0.5976 -0.4385 0.9240
H32 H 0.5555 -0.4552 0.8763
C32 C 0.5858(7) -0.2571(18) 0.8823(6)
H33 H 0.5573 -0.2258 0.9059
H34 H 0.5766 -0.2310 0.8457
H35 H 0.6202 -0.2141 0.8928
O1 O 0.6311(3) -0.4952(10) 0.8565(3)
H36 H 0.6297 -0.5780 0.8655
loop_
_geom_bond_atom_site_label_1
_geom_bond_atom_site_label_2
_geom_bond_site_symmetry_1
_geom_bond_site_symmetry_2
Co1 N1 1_555 1_555
Co2 N6 1_555 1_555
Co3 N8 1_555 1_555
Co4 N2 1_555 1_555
Co5 N15 1_555 1_555
N1 C1 1_555 1_555
N2 C1 1_555 1_555
N3 Co1 1_555 1_555
N4 C2 1_555 1_555
N5 Co1 1_555 1_555
N6 C5 1_555 1_555
N7 Co2 1_555 1_555
N8 C8 1_555 1_555
N9 C11 1_555 1_555
N10 C14 1_555 1_555
N11 Co4 1_555 1_555
N12 Co4 1_555 1_555
N13 C17 1_555 1_555
N14 Co2 1_555 1_555
N15 C18 1_555 1_555
N16 C19 1_555 1_555
N17 Co4 1_555 1_555
N18 Co2 1_555 1_555
N19 Co5 1_555 1_555
N20 C20 1_555 1_555
C1 H1 1_555 1_555
C2 N3 1_555 1_555
H2 C2 1_555 1_555
C3 N3 1_555 1_555
H3 C3 1_555 1_555
C4 N4 1_555 1_555
H4 C4 1_555 1_555
C5 N5 1_555 1_555
H5 C5 1_555 1_555
C6 N5 1_555 1_555
H6 C6 1_555 1_555
C7 N6 1_555 1_555
H7 C7 1_555 1_555
C8 N7 1_555 1_555
H8 C8 1_555 1_555
C9 N7 1_555 1_555
H9 C9 1_555 1_555
C10 N8 1_555 1_555
H10 C10 1_555 1_555
C11 N18 1_555 1_555
H11 C11 1_555 1_555
C12 N18 1_555 1_555
H12 C12 1_555 1_555
C13 N9 1_555 1_555
H13 C13 1_555 1_555
C14 N11 1_555 1_555
H14 C14 1_555 1_555
C15 N11 1_555 1_555
H15 C15 1_555 1_555
C16 N10 1_555 1_555
H16 C16 1_555 1_555
C17 N12 1_555 1_555
H17 C17 1_555 1_555
C18 N14 1_555 1_555
H18 C18 1_555 1_555
C19 N17 1_555 1_555
H19 C19 1_555 1_555
C20 N19 1_555 1_555
H20 C20 1_555 1_555
C21 N1 1_555 1_555
H21 C21 1_555 1_555
C22 N2 1_555 1_555
H22 C22 1_555 1_555
C23 N12 1_555 1_555
H23 C23 1_555 1_555
C24 N13 1_555 1_555
H24 C24 1_555 1_555
C25 N14 1_555 1_555
H25 C25 1_555 1_555
C26 N15 1_555 1_555
H26 C26 1_555 1_555
C27 N17 1_555 1_555
H27 C27 1_555 1_555
C28 N16 1_555 1_555
H28 C28 1_555 1_555
C29 N20 1_555 1_555
H29 C29 1_555 1_555
C30 N19 1_555 1_555
H30 C30 1_555 1_555
C31 H31 1_555 1_555
H32 C31 1_555 1_555
C32 C31 1_555 1_555
H33 C32 1_555 1_555
H34 C32 1_555 1_555
H35 C32 1_555 1_555
O1 C31 1_555 1_555
H36 O1 1_555 1_555
N4A Co1 1_555 1_555
N9B Co3 1_555 1_555
N10C Co3 1_555 1_555
N13C Co3 1_555 1_555
N16B Co5 1_555 1_555
N20A Co5 1_555 1_555
Co1A N4 1_555 1_555
Co3B N9 1_555 1_555
Co3C N10 1_555 1_555
Co3C_2 N13 1_555 1_555
Co5B N16 1_555 1_555
Co5A N20 1_555 1_555
C3 C4 1_555 1_555
C6 C7 1_555 1_555
C9 C10 1_555 1_555
C12 C13 1_555 1_555
C15 C16 1_555 1_555
C21 C22 1_555 1_555
C23 C24 1_555 1_555
C25 C26 1_555 1_555
C27 C28 1_555 1_555
C29 C30 1_555 1_555

#END
