
#######################################################################
#
#                 Cambridge Crystallographic Data Centre
#                                CCDC 
#
#######################################################################
#
# If this CIF has been generated from an entry in the Cambridge 
# Structural Database, then it will include bibliographic, chemical, 
# crystal, experimental, refinement or atomic coordinate data resulting 
# from the CCDC's data processing and validation procedures.
#
#######################################################################

data_GACTOW
_chemical_formula_moiety         '(C22 H12 Mn3 O16 2-)n'
_symmetry_cell_setting           orthorhombic
_symmetry_space_group_name_H-M   'P b c m'
_symmetry_Int_Tables_number      57
_space_group_name_Hall           '-P 2c 2b'
loop_
_symmetry_equiv_pos_site_id
_symmetry_equiv_pos_as_xyz
1 x,y,z
2 -x,-y,1/2+z
3 x,1/2-y,-z
4 -x,1/2+y,1/2-z
5 -x,-y,-z
6 x,y,1/2-z
7 -x,1/2+y,z
8 x,1/2-y,1/2+z
_cell_length_a                   12.692(3)
_cell_length_b                   14.424(3)
_cell_length_c                   21.492(4)
_cell_angle_alpha                90
_cell_angle_beta                 90
_cell_angle_gamma                90
_cell_volume                     3934.53
loop_
_atom_site_label
_atom_site_type_symbol
_atom_site_fract_x
_atom_site_fract_y
_atom_site_fract_z
Mn1 Mn 0.27295(7) 0.37110(6) 0.03244(5)
O1 O 0.4081(4) 0.3813(3) -0.0346(3)
O2 O 0.2811(4) 0.4175(4) 0.1321(2)
O3 O 0.2192(3) 0.5026(3) 0.0010(2)
O4 O 0.3192(4) 0.2346(3) 0.0678(2)
O5 O 0.1194(3) 0.3230(3) 0.0178(2)
Mn2 Mn 0.5000 0.5000 0.0000
C1 C 0.3995(5) 0.3142(4) -0.0714(3)
C2 C 0.3774(6) 0.4409(5) 0.1329(3)
C3 C 0.2693(5) 0.5772(4) -0.0058(3)
O6 O 0.4270(5) 0.4474(5) 0.0843(2)
O7 O 0.3671(3) 0.5835(3) -0.0121(3)
C4 C 0.4840(8) 0.2943(7) -0.1156(5)
C5 C 0.4319(5) 0.4545(4) 0.1929(3)
C6 C 0.2086(4) 0.6664(4) -0.0037(3)
H1 H 0.5283 0.2442 -0.0993
H2 H 0.5270 0.3501 -0.1216
H3 H 0.4535 0.2755 -0.1555
C7 C 0.3801(8) 0.4468(6) 0.2500
C8 C 0.5384(6) 0.4718(5) 0.1941(4)
C9 C 0.2617(7) 0.7500 0.0000
C10 C 0.0997(4) 0.6673(4) -0.0038(3)
H4 H 0.3063 0.4358 0.2500
H5 H 0.5749 0.4797 0.1558
C11 C 0.5948(9) 0.4781(8) 0.2500
H6 H 0.3366 0.7500 0.0000
C12 C 0.0440(6) 0.7500 0.0000
H7 H 0.0623 0.6104 -0.0064
C13 C 0.7174(12) 0.4937(13) 0.2500
C14 C -0.0748(6) 0.7500 0.0000
O8 O 0.7642(14) 0.4678(14) 0.2984(7)
C1B C 0.3995(5) 0.1858(4) 0.0714(3)
O6D O 0.5730(5) 0.5526(5) -0.0843(2)
O1D O 0.5919(4) 0.6187(3) 0.0346(3)
O7D O 0.6329(3) 0.4165(3) 0.0121(3)
O4B O 0.3192(4) 0.2654(3) -0.0678(2)
O1B O 0.4081(4) 0.1187(3) 0.0346(3)
C4B C 0.4840(8) 0.2057(7) 0.1156(5)
O5B O 0.1194(3) 0.1770(3) -0.0178(2)
Mn1B Mn 0.27295(7) 0.12890(6) -0.03244(5)
Mn2B Mn 0.5000 0.0000 0.0000
H1B H 0.5283 0.2558 0.0993
H2B H 0.5270 0.1499 0.1216
H3B H 0.4535 0.2245 0.1555
O2B O 0.2811(4) 0.0825(4) -0.1321(2)
O3B O 0.2192(3) -0.0026(3) -0.0010(2)
C5E C 0.4319(5) 0.4545(4) 0.3071(3)
C6B C 0.2086(4) 0.8336(4) 0.0037(3)
C2E C 0.3774(6) 0.4409(5) 0.3671(3)
C8E C 0.5384(6) 0.4718(5) 0.3059(4)
C10B C 0.0997(4) 0.8327(4) 0.0038(3)
C3B C 0.2693(5) 0.9228(4) 0.0058(3)
O6E O 0.4270(5) 0.4474(5) 0.4157(2)
O2E O 0.2811(4) 0.4175(4) 0.3679(2)
H5E H 0.5749 0.4797 0.3442
O8E O 0.7642(14) 0.4678(14) 0.2016(7)
H7B H 0.0623 0.8896 0.0064
O3B_2 O 0.2192(3) 0.9974(3) -0.0010(2)
O7B O 0.3671(3) 0.9165(3) 0.0121(3)
O5F O -0.1194(3) 0.8230(3) 0.0178(2)
O5D O -0.1194(3) 0.6770(3) -0.0178(2)
Mn2B_2 Mn 0.5000 1.0000 0.0000
Mn2A Mn 0.5000 0.5000 0.5000
Mn1E Mn 0.27295(7) 0.37110(6) 0.46756(5)
Mn1B_2 Mn 0.27295(7) 1.12890(6) -0.03244(5)
Mn1F Mn -0.27295(7) 0.87110(6) 0.03244(5)
Mn1D Mn -0.27295(7) 0.62890(6) -0.03244(5)
loop_
_geom_bond_atom_site_label_1
_geom_bond_atom_site_label_2
_geom_bond_site_symmetry_1
_geom_bond_site_symmetry_2
Mn1 O1 1_555 1_555
O1 Mn2 1_555 1_555
O2 Mn1 1_555 1_555
O3 Mn1 1_555 1_555
O4 Mn1 1_555 1_555
O5 Mn1 1_555 1_555
Mn2 O6 1_555 1_555
C1 O1 1_555 1_555
C2 O2 1_555 1_555
C3 O3 1_555 1_555
O6 C2 1_555 1_555
O7 Mn2 1_555 1_555
C4 C1 1_555 1_555
C5 C2 1_555 1_555
C6 C3 1_555 1_555
H1 C4 1_555 1_555
H2 C4 1_555 1_555
H3 C4 1_555 1_555
C7 C5 1_555 1_555
C8 C5 1_555 1_555
C9 C6 1_555 1_555
C10 C6 1_555 1_555
H4 C7 1_555 1_555
H5 C8 1_555 1_555
C11 C8 1_555 1_555
H6 C9 1_555 1_555
C12 C10 1_555 1_555
H7 C10 1_555 1_555
C13 C11 1_555 1_555
C14 C12 1_555 1_555
O8 C13 1_555 1_555
C1B O4 1_555 1_555
O6D Mn2 1_555 1_555
O1D Mn2 1_555 1_555
O7D Mn2 1_555 1_555
O4B C1 1_555 1_555
O1B C1B 1_555 1_555
C4B C1B 1_555 1_555
O5B Mn1B 1_555 1_555
Mn1B O4B 1_555 1_555
Mn2B O1B 1_555 1_555
H1B C4B 1_555 1_555
H2B C4B 1_555 1_555
H3B C4B 1_555 1_555
O2B Mn1B 1_555 1_555
O3B Mn1B 1_555 1_555
C5E C7 1_555 1_555
C6B C9 1_555 1_555
C2E C5E 1_555 1_555
C8E C11 1_555 1_555
C10B C12 1_555 1_555
C3B C6B 1_555 1_555
O6E C2E 1_555 1_555
O2E C2E 1_555 1_555
H5E C8E 1_555 1_555
O8E C13 1_555 1_555
H7B C10B 1_555 1_555
O3B_2 C3B 1_555 1_555
O7B C3B 1_555 1_555
O5F C14 1_555 1_555
O5D C14 1_555 1_555
Mn2B_2 O7B 1_555 1_555
Mn2A O6E 1_555 1_555
Mn1E O2E 1_555 1_555
Mn1B_2 O3B_2 1_555 1_555
Mn1F O5F 1_555 1_555
Mn1D O5D 1_555 1_555
C3 O7 1_555 1_555
O1B Mn1B 1_555 1_555
C5E C8E 1_555 1_555
C6B C10B 1_555 1_555

#END
