
#######################################################################
#
#                 Cambridge Crystallographic Data Centre
#                                CCDC 
#
#######################################################################
#
# If this CIF has been generated from an entry in the Cambridge 
# Structural Database, then it will include bibliographic, chemical, 
# crystal, experimental, refinement or atomic coordinate data resulting 
# from the CCDC's data processing and validation procedures.
#
#######################################################################

data_GACVIS
_chemical_formula_moiety         '(C18 H13 Ni3 O16)n'
_symmetry_cell_setting           orthorhombic
_symmetry_space_group_name_H-M   'I m m 2'
_symmetry_Int_Tables_number      44
_space_group_name_Hall           'I 2 -2'
loop_
_symmetry_equiv_pos_site_id
_symmetry_equiv_pos_as_xyz
1 x,y,z
2 -x,-y,z
3 x,-y,z
4 -x,y,z
5 1/2+x,1/2+y,1/2+z
6 1/2-x,1/2-y,1/2+z
7 1/2+x,1/2-y,1/2+z
8 1/2-x,1/2+y,1/2+z
_cell_length_a                   9.787(2)
_cell_length_b                   12.157(2)
_cell_length_c                   15.182(3)
_cell_angle_alpha                90
_cell_angle_beta                 90
_cell_angle_gamma                90
_cell_volume                     1806.36
loop_
_atom_site_label
_atom_site_type_symbol
_atom_site_fract_x
_atom_site_fract_y
_atom_site_fract_z
C1 C 1.5000 -0.1470(5) 0.8995(4)
H1 H 1.5000 -0.1022 0.9508
C2 C 1.3785(4) -0.1794(4) 0.8623(3)
C3 C 1.3783(4) -0.2432(4) 0.7877(3)
H2 H 1.2945 -0.2623 0.7601
C4 C 1.5000 -0.2790(5) 0.7533(4)
C5 C 1.5000 -0.3522(5) 0.6738(4)
C6 C 1.2485(4) -0.1345(4) 0.9025(3)
Ni1 Ni 1.0000 0.0000 0.86322(6)
Ni2 Ni 0.83138(6) 0.0000 1.06020(4)
O1 O 1.1511(3) -0.1190(3) 0.8529(2)
O2 O 1.2553(3) -0.1156(3) 0.9825(2)
O3 O 1.3865(3) -0.3816(3) 0.6455(2)
O4 O 0.6460(5) 0.0000 1.1311(3)
H3 H 0.6429 -0.0569 1.1680
O5 O 1.0000 0.0000 0.7277(4)
H4 H 1.0000 -0.0540 0.6822
O6 O 1.0000 0.0000 0.9909(4)
C2C C 1.6215(4) -0.1794(4) 0.8623(3)
C3C C 1.6217(4) -0.2432(4) 0.7877(3)
H2C H 1.7055 -0.2623 0.7601
C6C C 1.7515(4) -0.1345(4) 0.9025(3)
O1C O 1.8489(3) -0.1190(3) 0.8529(2)
O2C O 1.7447(3) -0.1156(3) 0.9825(2)
O3C O 1.6135(3) -0.3816(3) 0.6455(2)
H3B H 0.6429 0.0569 1.1680
H4A H 1.0000 0.0540 0.6822
Ni2A Ni 1.16862(6) 0.0000 1.06020(4)
O4A O 1.3540(5) 0.0000 1.1311(3)
H3A H 1.3571 0.0569 1.1680
H3C H 1.3571 -0.0569 1.1680
C1A C 1.5000 0.1470(5) 0.8995(4)
H1A H 1.5000 0.1022 0.9508
C2B C 1.3785(4) 0.1794(4) 0.8623(3)
C3B C 1.3783(4) 0.2432(4) 0.7877(3)
H2B H 1.2945 0.2623 0.7601
C4A C 1.5000 0.2790(5) 0.7533(4)
C5A C 1.5000 0.3522(5) 0.6738(4)
C6B C 1.2485(4) 0.1345(4) 0.9025(3)
O1B O 1.1511(3) 0.1190(3) 0.8529(2)
O2B O 1.2553(3) 0.1156(3) 0.9825(2)
O3B O 1.3865(3) 0.3816(3) 0.6455(2)
C2A C 1.6215(4) 0.1794(4) 0.8623(3)
C3A C 1.6217(4) 0.2432(4) 0.7877(3)
H2A H 1.7055 0.2623 0.7601
C6A C 1.7515(4) 0.1345(4) 0.9025(3)
O1A O 1.8489(3) 0.1190(3) 0.8529(2)
O2A O 1.7447(3) 0.1156(3) 0.9825(2)
O3A O 1.6135(3) 0.3816(3) 0.6455(2)
Ni1_2 Ni 2.0000 0.0000 0.86322(6)
Ni2_2 Ni 1.83138(6) 0.0000 1.06020(4)
Ni2D Ni 1.33138(6) -0.5000 0.56020(4)
Ni2D_2 Ni 1.33138(6) 0.5000 0.56020(4)
Ni2E Ni 1.66862(6) -0.5000 0.56020(4)
Ni2E_2 Ni 1.66862(6) 0.5000 0.56020(4)
O1A_2 O 0.8489(3) 0.1190(3) 0.8529(2)
O1C_2 O 0.8489(3) -0.1190(3) 0.8529(2)
O2A_2 O 0.7447(3) 0.1156(3) 0.9825(2)
O2C_2 O 0.7447(3) -0.1156(3) 0.9825(2)
O3D O 0.8865(3) 0.1184(3) 1.1455(2)
O3E O 1.1135(3) -0.1184(3) 1.1455(2)
O3F O 0.8865(3) -0.1184(3) 1.1455(2)
O3G O 1.1135(3) 0.1184(3) 1.1455(2)
loop_
_geom_bond_atom_site_label_1
_geom_bond_atom_site_label_2
_geom_bond_site_symmetry_1
_geom_bond_site_symmetry_2
C1 H1 1_555 1_555
C2 C1 1_555 1_555
C3 C2 1_555 1_555
H2 C3 1_555 1_555
C4 C3 1_555 1_555
C5 C4 1_555 1_555
C6 C2 1_555 1_555
Ni1 O1 1_555 1_555
Ni2 O4 1_555 1_555
O1 C6 1_555 1_555
O2 C6 1_555 1_555
O3 C5 1_555 1_555
O4 H3 1_555 1_555
O5 Ni1 1_555 1_555
H4 O5 1_555 1_555
O6 Ni1 1_555 1_555
C2C C1 1_555 1_555
C3C C4 1_555 1_555
H2C C3C 1_555 1_555
C6C C2C 1_555 1_555
O1C C6C 1_555 1_555
O2C C6C 1_555 1_555
O3C C5 1_555 1_555
H3B O4 1_555 1_555
H4A O5 1_555 1_555
Ni2A O2 1_555 1_555
O4A Ni2A 1_555 1_555
H3A O4A 1_555 1_555
H3C O4A 1_555 1_555
C1A H1A 1_555 1_555
C2B C1A 1_555 1_555
C3B C2B 1_555 1_555
H2B C3B 1_555 1_555
C4A C3B 1_555 1_555
C5A C4A 1_555 1_555
C6B C2B 1_555 1_555
O1B Ni1 1_555 1_555
O2B Ni2A 1_555 1_555
O3B C5A 1_555 1_555
C2A C1A 1_555 1_555
C3A C4A 1_555 1_555
H2A C3A 1_555 1_555
C6A C2A 1_555 1_555
O1A C6A 1_555 1_555
O2A C6A 1_555 1_555
O3A C5A 1_555 1_555
Ni1_2 O1C 1_555 1_555
Ni2_2 O2C 1_555 1_555
Ni2D O3 1_555 1_555
Ni2D_2 O3B 1_555 1_555
Ni2E O3C 1_555 1_555
Ni2E_2 O3A 1_555 1_555
O1A_2 Ni1 1_555 1_555
O1C_2 Ni1 1_555 1_555
O2A_2 Ni2 1_555 1_555
O2C_2 Ni2 1_555 1_555
O3D Ni2 1_555 1_555
O3E Ni2A 1_555 1_555
O3F Ni2 1_555 1_555
O3G Ni2A 1_555 1_555
Ni2 O6 1_555 1_555
O6 Ni2A 1_555 1_555
C2C C3C 1_555 1_555
C6B O1B 1_555 1_555
C6B O2B 1_555 1_555
C2A C3A 1_555 1_555
O1A Ni1_2 1_555 1_555
O2A Ni2_2 1_555 1_555

#END
