
#######################################################################
#
#                 Cambridge Crystallographic Data Centre
#                                CCDC 
#
#######################################################################
#
# If this CIF has been generated from an entry in the Cambridge 
# Structural Database, then it will include bibliographic, chemical, 
# crystal, experimental, refinement or atomic coordinate data resulting 
# from the CCDC's data processing and validation procedures.
#
#######################################################################

data_RAVVIU
_chemical_formula_moiety         '(C13 H18 Co6 O26)n'
_symmetry_cell_setting           monoclinic
_symmetry_space_group_name_H-M   'P 21/c'
_symmetry_Int_Tables_number      14
_space_group_name_Hall           '-P 2ybc'
loop_
_symmetry_equiv_pos_site_id
_symmetry_equiv_pos_as_xyz
1 x,y,z
2 -x,1/2+y,1/2-z
3 -x,-y,-z
4 x,1/2-y,1/2+z
_cell_length_a                   11.247(2)
_cell_length_b                   9.8119(15)
_cell_length_c                   18.103(3)
_cell_angle_alpha                90
_cell_angle_beta                 127.245(3)
_cell_angle_gamma                90
_cell_volume                     1590.32
loop_
_atom_site_label
_atom_site_type_symbol
_atom_site_fract_x
_atom_site_fract_y
_atom_site_fract_z
Co1 Co 0.37793(4) 0.07973(4) 0.13304(3)
Co2 Co 0.42908(4) 0.10962(4) -0.31114(3)
Co3 Co 0.5000 0.0000 0.0000
Co4 Co 0.0000 0.0000 0.0000
O1 O 0.4357(2) 0.20098(19) 0.24499(14)
O2 O 0.5512(2) 0.0607(2) 0.36810(15)
O3 O 0.5912(2) -0.00394(19) 0.21981(15)
O4 O 0.6838(3) 0.0053(2) 0.14060(16)
O5 O 0.4555(2) 0.2578(2) 0.10840(14)
O6 O 0.4792(3) 0.2093(2) -0.00291(15)
O7 O 0.3452(2) -0.0837(2) 0.19531(15)
O8 O 0.1002(2) -0.1042(2) 0.12417(16)
O9 O 0.3390(2) -0.0277(2) 0.02344(15)
O10 O 0.1153(2) -0.1164(2) -0.03330(16)
O11 O 0.1628(2) 0.1550(2) 0.05988(15)
O12 O 0.2032(2) 0.3791(2) 0.08991(16)
C1 C 0.4985(4) 0.1731(3) 0.3301(2)
C2 C 0.6962(4) -0.0121(3) 0.2124(2)
C3 C 0.4704(4) 0.2893(3) 0.0465(2)
C4 C 0.2326(3) -0.1289(3) 0.1877(2)
C5 C 0.2269(4) -0.1079(3) -0.0301(2)
C6 C 0.1211(4) 0.2788(3) 0.0489(2)
H1 H 0.503(4) 0.244(4) 0.368(2)
H2 H 0.789(4) -0.035(4) 0.266(3)
H3 H 0.483(4) 0.383(4) 0.038(3)
H4 H 0.018(4) 0.295(3) 0.007(2)
H5 H 0.234(4) -0.161(3) -0.071(2)
H6 H 0.250(4) -0.193(4) 0.238(3)
Co1B Co 0.62207(4) -0.07973(4) -0.13304(3)
Co1B_2 Co -0.37793(4) -0.07973(4) -0.13304(3)
Co1A Co 0.62207(4) 0.57973(4) 0.36696(3)
Co2B Co 0.57092(4) -0.10962(4) 0.31114(3)
Co2C Co 0.42908(4) 0.39038(4) 0.18886(3)
Co2A Co 0.57092(4) -0.39038(4) -0.18886(3)
Co2A_2 Co -0.42908(4) -0.39038(4) -0.18886(3)
Co2B_2 Co 0.57092(4) 0.89038(4) 0.31114(3)
Co3C Co 0.5000 0.5000 0.5000
Co4_2 Co 1.0000 0.0000 0.0000
O1B O 0.5643(2) -0.20098(19) -0.24499(14)
O1C O 0.4357(2) 0.29902(19) -0.25501(14)
O1A O 0.5643(2) 0.70098(19) 0.25501(14)
O2B O 0.4488(2) -0.0607(2) -0.36810(15)
O2A O 0.4488(2) 0.5607(2) 0.13190(15)
O3B O 0.4088(2) 0.00394(19) -0.21981(15)
O3A O 0.4088(2) 0.49606(19) 0.28019(15)
O4B O 0.3162(3) -0.0053(2) -0.14060(16)
O4A O 0.3162(3) 0.5053(2) 0.35940(16)
O5B O 0.5445(2) -0.2578(2) -0.10840(14)
O5C O 0.4555(2) 0.2422(2) -0.39160(14)
O6B O 0.5208(3) -0.2093(2) 0.00291(15)
O7B O 0.6548(2) 0.0837(2) -0.19531(15)
O7A O 0.6548(2) 0.4163(2) 0.30469(15)
O8B O -0.1002(2) 0.1042(2) -0.12417(16)
O9B O 0.6610(2) 0.0277(2) -0.02344(15)
O10B O 0.8847(2) 0.1164(2) 0.03330(16)
O10B_2 O -0.1153(2) 0.1164(2) 0.03330(16)
O11B O -0.1628(2) -0.1550(2) -0.05988(15)
O11B_2 O 0.8372(2) -0.1550(2) -0.05988(15)
O12C O 0.2032(2) 0.1209(2) -0.41009(16)
O12B O -0.2032(2) -0.3791(2) -0.08991(16)
C1A C 0.5015(4) 0.6731(3) 0.1699(2)
C2B C 0.3038(4) 0.0121(3) -0.2124(2)
C2A C 0.3038(4) 0.4879(3) 0.2876(2)
C3B C 0.5296(4) -0.2893(3) -0.0465(2)
C5B C 0.7731(4) 0.1079(3) 0.0301(2)
C6B C -0.1211(4) -0.2788(3) -0.0489(2)
H1A H 0.497(4) 0.744(4) 0.132(2)
H2B H 0.211(4) 0.035(4) -0.266(3)
H2A H 0.211(4) 0.465(4) 0.234(3)
H3B H 0.517(4) -0.383(4) -0.038(3)
H4B H -0.018(4) -0.295(3) -0.007(2)
H5B H 0.766(4) 0.161(3) 0.071(2)
O13 O -0.150(5) -0.352(4) 0.245(3)
C7 C -0.028(11) -0.316(12) 0.244(10)
O14 O -0.211(5) -0.568(5) 0.150(3)
loop_
_geom_bond_atom_site_label_1
_geom_bond_atom_site_label_2
_geom_bond_site_symmetry_1
_geom_bond_site_symmetry_2
Co1 O1 1_555 1_555
Co2 O1C 1_555 1_555
Co3 O4 1_555 1_555
Co4 O8 1_555 1_555
O1 C1 1_555 1_555
O2 C1 1_555 1_555
O3 Co1 1_555 1_555
O4 C2 1_555 1_555
O5 Co1 1_555 1_555
O6 Co3 1_555 1_555
O7 Co1 1_555 1_555
O8 C4 1_555 1_555
O9 Co1 1_555 1_555
O10 Co4 1_555 1_555
O11 Co1 1_555 1_555
O12 C6 1_555 1_555
C1 H1 1_555 1_555
C2 O3 1_555 1_555
C3 O5 1_555 1_555
C4 O7 1_555 1_555
C5 O9 1_555 1_555
C6 O11 1_555 1_555
H2 C2 1_555 1_555
H3 C3 1_555 1_555
H4 C6 1_555 1_555
H5 C5 1_555 1_555
H6 C4 1_555 1_555
O13 C7 1_555 1_555
Co1B O1B 1_555 1_555
Co1B_2 O11B 1_555 1_555
Co1A O1A 1_555 1_555
Co2B O2 1_555 1_555
Co2C O1 1_555 1_555
Co2A O1B 1_555 1_555
Co2A_2 O12B 1_555 1_555
Co2B_2 O1A 1_555 1_555
Co3C O4A 1_555 1_555
Co4_2 O10B 1_555 1_555
O1A C1A 1_555 1_555
O2B Co2 1_555 1_555
O2A Co2C 1_555 1_555
O3B Co2 1_555 1_555
O3A Co1A 1_555 1_555
O4B Co3 1_555 1_555
O4A C2A 1_555 1_555
O5B Co1B 1_555 1_555
O5C Co2 1_555 1_555
O6B Co3 1_555 1_555
O7B Co2 1_555 1_555
O7A Co1A 1_555 1_555
O8B Co4 1_555 1_555
O9B Co3 1_555 1_555
O10B C5B 1_555 1_555
O10B_2 Co4 1_555 1_555
O11B Co4 1_555 1_555
O11B_2 Co1B 1_555 1_555
O12C Co2 1_555 1_555
O12B C6B 1_555 1_555
C1A O2A 1_555 1_555
C2B O3B 1_555 1_555
C2A O3A 1_555 1_555
C3B O5B 1_555 1_555
C5B O9B 1_555 1_555
C6B O11B 1_555 1_555
H1A C1A 1_555 1_555
H2B C2B 1_555 1_555
H2A C2A 1_555 1_555
H3B C3B 1_555 1_555
H4B C6B 1_555 1_555
H5B C5B 1_555 1_555
Co3 O9 1_555 1_555
Co4 O11 1_555 1_555
O3 Co2B 1_555 1_555
O5 Co2C 1_555 1_555
O6 C3 1_555 1_555
O7 Co2B 1_555 1_555
O10 C5 1_555 1_555
O12 Co2C 1_555 1_555
Co1B O3B 1_555 1_555
Co1B O7B 1_555 1_555
Co1B O9B 1_555 1_555
Co2C O3A 1_555 1_555
Co2C O7A 1_555 1_555
Co2A O5B 1_555 1_555
Co4_2 O11B_2 1_555 1_555
O4B C2B 1_555 1_555
O6B C3B 1_555 1_555

#END
