
#######################################################################
#
#                 Cambridge Crystallographic Data Centre
#                                CCDC 
#
#######################################################################
#
# If this CIF has been generated from an entry in the Cambridge 
# Structural Database, then it will include bibliographic, chemical, 
# crystal, experimental, refinement or atomic coordinate data resulting 
# from the CCDC's data processing and validation procedures.
#
#######################################################################

data_DOWQIP
_chemical_formula_moiety         '(C4 H15 N3 O16 P4 Zn5)n'
_symmetry_cell_setting           monoclinic
_symmetry_space_group_name_H-M   'P 21/n'
_symmetry_Int_Tables_number      14
_space_group_name_Hall           '-P 2yn'
loop_
_symmetry_equiv_pos_site_id
_symmetry_equiv_pos_as_xyz
1 x,y,z
2 1/2-x,1/2+y,1/2-z
3 -x,-y,-z
4 1/2+x,1/2-y,1/2+z
_cell_length_a                   15.9346(5)
_cell_length_b                   7.4039(3)
_cell_length_c                   16.2092(6)
_cell_angle_alpha                90
_cell_angle_beta                 111.8850(10)
_cell_angle_gamma                90
_cell_volume                     1774.52
loop_
_atom_site_label
_atom_site_type_symbol
_atom_site_fract_x
_atom_site_fract_y
_atom_site_fract_z
P1 P 1.1370(2) 0.2766(3) -0.3100(2)
P2 P 1.4166(2) 0.3187(3) -0.3337(2)
P3 P 1.4339(2) 0.2492(3) -0.6107(2)
P4 P 1.2189(2) -0.1677(3) -0.5317(2)
O1 O 1.4106(5) 0.4366(9) -0.5877(4)
O2 O 1.2811(4) -0.2719(9) -0.5671(4)
O3 O 1.3571(5) 0.4659(9) -0.3989(5)
O4 O 1.4637(4) 0.7778(9) -0.4400(4)
O5 O 1.3568(4) 0.2152(9) -0.2964(4)
O6 O 1.1560(4) 0.0964(9) -0.3463(4)
O7 O 1.1918(4) 0.2820(9) -0.2081(4)
O8 O 1.2778(4) -0.0190(9) -0.4663(4)
O9 O 1.1650(4) 0.4385(9) -0.3511(4)
O10 O 1.1805(4) -0.2898(9) -0.4777(4)
O11 O 1.4592(4) 0.1998(9) -0.3837(5)
O12 O 1.3834(5) 0.0995(9) -0.5856(4)
O13 O 1.4110(4) 0.2364(8) -0.7105(4)
O14 O 1.0363(4) 0.2952(8) -0.3282(4)
O15 O 1.4913(5) 0.4102(9) -0.2578(5)
O16 O 1.1436(4) -0.0736(9) -0.6058(4)
Zn1 Zn 1.38239(8) 0.5695(2) -0.50090(7)
Zn2 Zn 1.27152(8) 0.0233(2) -0.34681(7)
Zn3 Zn 1.24494(8) 0.0741(2) -0.12723(8)
Zn4 Zn 1.40192(8) 0.0140(2) -0.46829(8)
Zn5 Zn 0.95924(7) 0.1474(2) -0.28852(7)
O4B O 1.5363(4) 0.2222(9) -0.5600(4)
Zn1_2 Zn 1.38239(8) -0.4305(2) -0.50090(7)
Zn3A Zn 1.25506(8) 0.5741(2) -0.37277(8)
Zn4_2 Zn 1.40192(8) 1.0140(2) -0.46829(8)
P3B P 1.5661(2) 0.7508(3) -0.3893(2)
Zn2A Zn 1.22848(8) 0.5233(2) -0.15319(7)
Zn3A_2 Zn 1.25506(8) -0.4259(2) -0.37277(8)
Zn5C Zn 1.45924(7) 0.3526(2) -0.78852(7)
Zn5A Zn 1.54076(7) 0.6474(2) -0.21148(7)
Zn5B Zn 1.04076(7) -0.1474(2) -0.71148(7)
O2_2 O 1.2811(4) 0.7281(9) -0.5671(4)
O7A O 1.3082(4) -0.2180(9) -0.2919(4)
O3A O 1.1429(5) -0.0341(9) -0.1011(5)
O9A O 1.3350(4) -0.0615(9) -0.1489(4)
O10A O 1.3195(4) 0.2102(9) -0.0223(4)
O4_2 O 1.4637(4) -0.2222(9) -0.4400(4)
O13C O 0.9110(4) 0.2636(8) -0.2105(4)
O15A O 1.0087(5) -0.0898(9) -0.2422(5)
O16B O 0.8564(4) 0.0736(9) -0.3942(4)
N1 N 0.8004(23) 0.8554(29) -0.2257(24)
C1 C 0.8236(9) 0.6728(20) -0.2512(8)
C2 C 0.8211(8) 0.6460(26) -0.3445(9)
N2 N 0.9148(8) 0.6600(20) -0.3451(8)
C3 C 0.9120(9) 0.6821(25) -0.4381(8)
C4 C 1.0044(9) 0.7355(20) -0.4355(11)
N3 N 0.9995(24) 0.9329(23) -0.4576(22)
loop_
_geom_bond_atom_site_label_1
_geom_bond_atom_site_label_2
_geom_bond_site_symmetry_1
_geom_bond_site_symmetry_2
P1 O6 1_555 1_555
P2 O3 1_555 1_555
P3 O1 1_555 1_555
P4 O2 1_555 1_555
O1 Zn1 1_555 1_555
O2 Zn1_2 1_555 1_555
O3 Zn1 1_555 1_555
O4 Zn1 1_555 1_555
O5 P2 1_555 1_555
O6 Zn2 1_555 1_555
O7 P1 1_555 1_555
O8 P4 1_555 1_555
O9 P1 1_555 1_555
O10 P4 1_555 1_555
O11 P2 1_555 1_555
O12 P3 1_555 1_555
O13 P3 1_555 1_555
O14 P1 1_555 1_555
O15 P2 1_555 1_555
O16 P4 1_555 1_555
Zn1 O2_2 1_555 1_555
Zn2 O5 1_555 1_555
Zn3 O7 1_555 1_555
Zn4 O8 1_555 1_555
Zn5 O14 1_555 1_555
N1 C1 1_555 1_555
C1 C2 1_555 1_555
C2 N2 1_555 1_555
N2 C3 1_555 1_555
C3 C4 1_555 1_555
C4 N3 1_555 1_555
O4B P3 1_555 1_555
Zn1_2 O4_2 1_555 1_555
Zn3A O3 1_555 1_555
Zn4_2 O4 1_555 1_555
P3B O4 1_555 1_555
Zn2A O7 1_555 1_555
Zn3A_2 O10 1_555 1_555
Zn5C O13 1_555 1_555
Zn5A O15 1_555 1_555
Zn5B O16 1_555 1_555
O7A Zn2 1_555 1_555
O3A Zn3 1_555 1_555
O9A Zn3 1_555 1_555
O10A Zn3 1_555 1_555
O4_2 Zn4 1_555 1_555
O13C Zn5 1_555 1_555
O15A Zn5 1_555 1_555
O16B Zn5 1_555 1_555
O8 Zn2 1_555 1_555
O9 Zn3A 1_555 1_555
O11 Zn4 1_555 1_555
O12 Zn4 1_555 1_555
Zn3A_2 O7A 1_555 1_555

#END
