
#######################################################################
#
#                 Cambridge Crystallographic Data Centre
#                                CCDC 
#
#######################################################################
#
# If this CIF has been generated from an entry in the Cambridge 
# Structural Database, then it will include bibliographic, chemical, 
# crystal, experimental, refinement or atomic coordinate data resulting 
# from the CCDC's data processing and validation procedures.
#
#######################################################################

data_ASUKEE
_chemical_formula_moiety         '(C30 H26 Cl2 Cu2 N6 O9)n'
_symmetry_cell_setting           orthorhombic
_symmetry_space_group_name_H-M   'F d d d'
_symmetry_Int_Tables_number      70
_space_group_name_Hall           '-F 2uv 2vw'
loop_
_symmetry_equiv_pos_site_id
_symmetry_equiv_pos_as_xyz
1 x,y,z
2 x,1/2+y,1/2+z
3 x,1/4-y,1/4-z
4 1/2+x,y,1/2+z
5 1/4-x,y,1/4-z
6 1/2+x,1/2+y,z
7 1/4-x,1/4-y,z
8 1/4+x,1/4+y,-z
9 1/4+x,-y,1/4+z
10 -x,1/4+y,1/4+z
11 1/4+x,3/4+y,1/2-z
12 1/4+x,1/2-y,3/4+z
13 3/4+x,1/4+y,1/2-z
14 1/2-x,1/4+y,3/4+z
15 3/4+x,1/2-y,1/4+z
16 1/2-x,3/4+y,1/4+z
17 -x,-y,-z
18 -x,1/2-y,1/2-z
19 -x,3/4+y,3/4+z
20 1/2-x,-y,1/2-z
21 3/4+x,-y,3/4+z
22 1/2-x,1/2-y,-z
23 3/4+x,3/4+y,-z
24 3/4-x,3/4-y,z
25 3/4-x,y,3/4-z
26 x,3/4-y,3/4-z
27 3/4-x,1/4-y,1/2+z
28 3/4-x,1/2+y,1/4-z
29 1/4-x,3/4-y,1/2+z
30 1/2+x,3/4-y,1/4-z
31 1/4-x,1/2+y,3/4-z
32 1/2+x,1/4-y,3/4-z
_cell_length_a                   18.7770(8)
_cell_length_b                   23.3593(13)
_cell_length_c                   30.4231(16)
_cell_angle_alpha                90
_cell_angle_beta                 90
_cell_angle_gamma                90
_cell_volume                     13344.1
loop_
_atom_site_label
_atom_site_type_symbol
_atom_site_fract_x
_atom_site_fract_y
_atom_site_fract_z
_atom_site_U_iso_or_equiv
_atom_site_thermal_displace_type
Cu1 Cu 0.23583(4) 0.36023(3) 0.12145(2) 0.0559 Uani
N1 N 0.2878(2) 0.40542(18) 0.16730(14) 0.0480 Uani
N2 N 0.4371(2) 0.58827(17) 0.32842(14) 0.0490 Uani
N3 N 0.2292(2) 0.27642(18) 0.12170(13) 0.0497 Uani
C1 C 0.3266(3) 0.4513(2) 0.15647(17) 0.0533 Uani
H1 H 0.3336 0.4590 0.1268 0.0640 Uiso
C2 C 0.3564(3) 0.4875(2) 0.18631(18) 0.0517 Uani
H2 H 0.3822 0.5191 0.1767 0.0620 Uiso
C3 C 0.2809(3) 0.3951(2) 0.21022(18) 0.0520 Uani
H3 H 0.2555 0.3628 0.2187 0.0620 Uiso
C4 C 0.3090(3) 0.4291(2) 0.24246(17) 0.0490 Uani
H4 H 0.3019 0.4200 0.2719 0.0590 Uiso
C5 C 0.3484(3) 0.4774(2) 0.23094(16) 0.0430 Uani
C6 C 0.3795(2) 0.5151(2) 0.26475(17) 0.0437 Uani
C7 C 0.4042(3) 0.4946(2) 0.30455(17) 0.0537 Uani
H5 H 0.4020 0.4557 0.3107 0.0640 Uiso
C8 C 0.4321(3) 0.5315(2) 0.33479(17) 0.0547 Uani
H6 H 0.4484 0.5166 0.3613 0.0660 Uiso
C9 C 0.3856(3) 0.5741(2) 0.25745(18) 0.0500 Uani
H7 H 0.3709 0.5898 0.2309 0.0600 Uiso
C10 C 0.4136(3) 0.6085(2) 0.28969(18) 0.0520 Uani
H8 H 0.4164 0.6477 0.2845 0.0630 Uiso
C11 C 0.2499(3) 0.2454(2) 0.08708(18) 0.0580 Uani
H9 H 0.2644 0.2644 0.0618 0.0700 Uiso
C12 C 0.2506(3) 0.1863(2) 0.08723(18) 0.0560 Uani
H10 H 0.2651 0.1664 0.0623 0.0670 Uiso
C13 C 0.2077(3) 0.2476(2) 0.15745(18) 0.0550 Uani
H11 H 0.1918 0.2684 0.1816 0.0660 Uiso
C14 C 0.2079(3) 0.1889(2) 0.15999(17) 0.0523 Uani
H12 H 0.1935 0.1709 0.1857 0.0630 Uiso
C15 C 0.2296(3) 0.1568(2) 0.12447(16) 0.0440 Uani
C15B C 0.2296(3) 0.0932(2) 0.12553(16) 0.0440 Uani
C12B C 0.2506(3) 0.0637(2) 0.16277(18) 0.0560 Uani
C11B C 0.2499(3) 0.0046(2) 0.16292(18) 0.0580 Uani
N3B N 0.2292(2) -0.02642(18) 0.12830(13) 0.0497 Uani
C13B C 0.2077(3) 0.0024(2) 0.09255(18) 0.0550 Uani
H11B H 0.1918 -0.0184 0.0684 0.0660 Uiso
C14B C 0.2079(3) 0.0611(2) 0.09001(17) 0.0523 Uani
H12B H 0.1935 0.0791 0.0643 0.0630 Uiso
H9B H 0.2644 -0.0144 0.1882 0.0700 Uiso
H10B H 0.2651 0.0836 0.1877 0.0670 Uiso
N1T N 0.0378(2) 0.59458(18) -0.08270(14) 0.0480 Uani
N2T N 0.1871(2) 0.41173(17) 0.07842(14) 0.0490 Uani
C1T C 0.0766(3) 0.5487(2) -0.09353(17) 0.0533 Uani
H1T H 0.0836 0.5410 -0.1232 0.0640 Uiso
C2T C 0.1064(3) 0.5125(2) -0.06369(18) 0.0517 Uani
H2T H 0.1322 0.4809 -0.0733 0.0620 Uiso
C3T C 0.0309(3) 0.6049(2) -0.03978(18) 0.0520 Uani
H3T H 0.0055 0.6372 -0.0313 0.0620 Uiso
C4T C 0.0590(3) 0.5709(2) -0.00754(17) 0.0490 Uani
H4T H 0.0519 0.5800 0.0219 0.0590 Uiso
C5T C 0.0984(3) 0.5226(2) -0.01906(16) 0.0430 Uani
C6T C 0.1295(2) 0.4849(2) 0.01475(17) 0.0437 Uani
C7T C 0.1542(3) 0.5054(2) 0.05455(17) 0.0537 Uani
H5T H 0.1520 0.5443 0.0607 0.0640 Uiso
C8T C 0.1821(3) 0.4685(2) 0.08479(17) 0.0547 Uani
H6T H 0.1984 0.4834 0.1113 0.0660 Uiso
C9T C 0.1356(3) 0.4259(2) 0.00745(18) 0.0500 Uani
H7T H 0.1209 0.4102 -0.0191 0.0600 Uiso
C10T C 0.1636(3) 0.3915(2) 0.03969(18) 0.0520 Uani
H8T H 0.1664 0.3523 0.0345 0.0630 Uiso
Cu1T Cu -0.01417(4) 0.63977(3) -0.12855(2) 0.0559 Uani
Cu1H Cu 0.48583(4) 0.63977(3) 0.37145(2) 0.0559 Uani
Cu1B Cu 0.23583(4) -0.11023(3) 0.12855(2) 0.0559 Uani
N2C N -0.0629(2) 0.58827(17) -0.17158(14) 0.0490 Uani
N3T N -0.0208(2) 0.72358(18) -0.12830(13) 0.0497 Uani
Cl1 Cl 0.3750 0.3750 0.02855(6) 0.0610 Uani
O1 O 0.3227(7) 0.4218(5) 0.0195(4) 0.1230 Uani
O2 O 0.3258(6) 0.3438(5) 0.0079(3) 0.2033 Uani
O1W O 0.4273(7) 0.3282(5) 0.0195(4) 0.1230 Uani
O2W O 0.4242(6) 0.4062(5) 0.0079(3) 0.2033 Uani
Cl2 Cl 0.77566(13) 0.1250 0.1250 0.0644 Uani
O4 O 0.7344(5) 0.1631(4) 0.1024(3) 0.1827 Uani
O5 O 0.8155(6) 0.0955(5) 0.0973(3) 0.2390 Uani
O4B O 0.7344(5) 0.0869(4) 0.1476(3) 0.1827 Uani
O5B O 0.8155(6) 0.1545(5) 0.1527(3) 0.2390 Uani
O6 O 0.3346(5) 0.5398(4) 0.0138(3) 0.1240 Uani
H13 H 0.338(5) 0.549(4) 0.037(3) 0.1000 Uiso
H14 H 0.325(5) 0.506(4) 0.016(3) 0.1100 Uiso
loop_
_atom_site_aniso_label
_atom_site_aniso_U_11
_atom_site_aniso_U_22
_atom_site_aniso_U_33
_atom_site_aniso_U_23
_atom_site_aniso_U_13
_atom_site_aniso_U_12
Cu1 0.0744(5) 0.0384(4) 0.0550(5) -0.0004(3) -0.0118(3) 0.0011(3)
N1 0.056(3) 0.042(2) 0.046(3) -0.0053(19) -0.006(2) 0.004(2)
N2 0.055(3) 0.039(2) 0.053(3) 0.0002(19) -0.006(2) -0.0049(19)
N3 0.061(3) 0.039(2) 0.049(3) 0.0001(19) -0.013(2) 0.000(2)
C1 0.061(3) 0.050(3) 0.049(3) -0.002(2) -0.001(3) -0.002(3)
C2 0.052(3) 0.045(3) 0.058(3) -0.001(3) 0.000(3) -0.007(2)
C3 0.054(3) 0.042(3) 0.060(4) -0.002(2) -0.004(3) 0.002(2)
C4 0.056(3) 0.046(3) 0.045(3) -0.002(2) -0.003(2) 0.001(2)
C5 0.044(3) 0.040(3) 0.045(3) -0.004(2) -0.002(2) 0.006(2)
C6 0.038(3) 0.043(3) 0.050(3) -0.005(2) -0.001(2) -0.001(2)
C7 0.067(3) 0.039(3) 0.055(3) 0.000(2) -0.007(3) -0.004(3)
C8 0.069(4) 0.046(3) 0.049(3) 0.001(2) -0.010(3) -0.010(3)
C9 0.053(3) 0.044(3) 0.053(3) 0.001(2) -0.009(2) 0.002(2)
C10 0.061(3) 0.037(3) 0.058(3) 0.001(2) -0.008(3) -0.002(2)
C11 0.083(4) 0.046(3) 0.045(3) 0.003(2) 0.003(3) 0.005(3)
C12 0.077(4) 0.044(3) 0.047(3) -0.006(2) 0.005(3) 0.004(3)
C13 0.074(4) 0.041(3) 0.050(3) -0.008(2) -0.001(3) -0.001(3)
C14 0.068(3) 0.044(3) 0.045(3) 0.001(2) 0.001(3) -0.004(3)
C15 0.050(3) 0.036(3) 0.046(3) 0.002(2) -0.002(2) -0.003(2)
C15B 0.05 0.036 0.046 0.002 0.002 0.003
C12B 0.077 0.044 0.047 -0.006 -0.005 -0.004
C11B 0.083 0.046 0.045 0.003 -0.003 -0.005
N3B 0.061 0.039 0.049 0.0001 0.013 0
C13B 0.074 0.041 0.05 -0.008 0.001 0.001
C14B 0.068 0.044 0.045 0.001 -0.001 0.004
N1T 0.056 0.042 0.046 0.0053 -0.006 -0.004
N2T 0.055 0.039 0.053 -0.0002 -0.006 0.0049
C1T 0.061 0.05 0.049 0.002 -0.001 0.002
C2T 0.052 0.045 0.058 0.001 0 0.007
C3T 0.054 0.042 0.06 0.002 -0.004 -0.002
C4T 0.056 0.046 0.045 0.002 -0.003 -0.001
C5T 0.044 0.04 0.045 0.004 -0.002 -0.006
C6T 0.038 0.043 0.05 0.005 -0.001 0.001
C7T 0.067 0.039 0.055 0 -0.007 0.004
C8T 0.069 0.046 0.049 -0.001 -0.01 0.01
C9T 0.053 0.044 0.053 -0.001 -0.009 -0.002
C10T 0.061 0.037 0.058 -0.001 -0.008 0.002
Cu1T 0.0744 0.0384 0.055 0.0004 -0.0118 -0.0011
Cu1H 0.0744 0.0384 0.055 0.0004 -0.0118 -0.0011
Cu1B 0.0744 0.0384 0.055 -0.0004 0.0118 -0.0011
N2C 0.055 0.039 0.053 0.0002 -0.006 -0.0049
N3T 0.061 0.039 0.049 -0.0001 -0.013 0
Cl1 0.0707(13) 0.0704(12) 0.0420(11) 0.000 0.000 -0.0053(11)
O1 0.119(9) 0.103(9) 0.147(10) 0.045(8) -0.001(8) 0.039(7)
O2 0.237(10) 0.251(11) 0.122(6) -0.006(6) -0.029(6) -0.147(9)
O1W 0.119 0.103 0.147 -0.045 0.001 0.039
O2W 0.237 0.251 0.122 0.006 0.029 -0.147
Cl2 0.0903(16) 0.0514(11) 0.0516(11) 0.0024(9) 0.000 0.000
O4 0.221(9) 0.144(7) 0.183(8) 0.059(6) -0.054(7) 0.045(6)
O5 0.252(12) 0.243(11) 0.222(10) -0.092(8) 0.111(9) 0.039(9)
O4B 0.221 0.144 0.183 0.059 0.054 -0.045
O5B 0.252 0.243 0.222 -0.092 -0.111 -0.039
O6 0.192(8) 0.097(5) 0.083(5) 0.019(4) 0.003(5) -0.026(5)
loop_
_geom_bond_atom_site_label_1
_geom_bond_atom_site_label_2
_geom_bond_site_symmetry_1
_geom_bond_site_symmetry_2
Cu1 N1 1_555 1_555
N1 C1 1_555 1_555
N2 C8 1_555 1_555
N3 Cu1 1_555 1_555
C1 H1 1_555 1_555
C2 C1 1_555 1_555
H2 C2 1_555 1_555
C3 N1 1_555 1_555
H3 C3 1_555 1_555
C4 C3 1_555 1_555
H4 C4 1_555 1_555
C5 C2 1_555 1_555
C6 C5 1_555 1_555
C7 C6 1_555 1_555
H5 C7 1_555 1_555
C8 C7 1_555 1_555
H6 C8 1_555 1_555
C9 C6 1_555 1_555
H7 C9 1_555 1_555
C10 N2 1_555 1_555
H8 C10 1_555 1_555
C11 N3 1_555 1_555
H9 C11 1_555 1_555
C12 C11 1_555 1_555
H10 C12 1_555 1_555
C13 N3 1_555 1_555
H11 C13 1_555 1_555
C14 C13 1_555 1_555
H12 C14 1_555 1_555
C15 C12 1_555 1_555
Cl1 O1 1_555 1_555
O2 Cl1 1_555 1_555
Cl2 O4 1_555 1_555
O5 Cl2 1_555 1_555
O6 H13 1_555 1_555
H14 O6 1_555 1_555
C15B C15 1_555 1_555
C12B C15B 1_555 1_555
C11B C12B 1_555 1_555
N3B C11B 1_555 1_555
C13B N3B 1_555 1_555
H11B C13B 1_555 1_555
C14B C15B 1_555 1_555
H12B C14B 1_555 1_555
H9B C11B 1_555 1_555
H10B C12B 1_555 1_555
O1W Cl1 1_555 1_555
O2W Cl1 1_555 1_555
O4B Cl2 1_555 1_555
O5B Cl2 1_555 1_555
N1T C1T 1_555 1_555
N2T Cu1 1_555 1_555
C1T H1T 1_555 1_555
C2T C1T 1_555 1_555
H2T C2T 1_555 1_555
C3T N1T 1_555 1_555
H3T C3T 1_555 1_555
C4T C3T 1_555 1_555
H4T C4T 1_555 1_555
C5T C2T 1_555 1_555
C6T C5T 1_555 1_555
C7T C6T 1_555 1_555
H5T C7T 1_555 1_555
C8T N2T 1_555 1_555
H6T C8T 1_555 1_555
C9T C6T 1_555 1_555
H7T C9T 1_555 1_555
C10T N2T 1_555 1_555
H8T C10T 1_555 1_555
Cu1T N1T 1_555 1_555
Cu1H N2 1_555 1_555
Cu1B N3B 1_555 1_555
N2C Cu1T 1_555 1_555
N3T Cu1T 1_555 1_555
C4 C5 1_555 1_555
C9 C10 1_555 1_555
C14 C15 1_555 1_555
C13B C14B 1_555 1_555
C4T C5T 1_555 1_555
C7T C8T 1_555 1_555
C9T C10T 1_555 1_555

#END
