
#######################################################################
#
#                 Cambridge Crystallographic Data Centre
#                                CCDC 
#
#######################################################################
#
# If this CIF has been generated from an entry in the Cambridge 
# Structural Database, then it will include bibliographic, chemical, 
# crystal, experimental, refinement or atomic coordinate data resulting 
# from the CCDC's data processing and validation procedures.
#
#######################################################################

data_ATIRUS
_chemical_formula_moiety         '(C14 H20 N2 O19 S1 Tb2)n'
_symmetry_cell_setting           monoclinic
_symmetry_space_group_name_H-M   'C 2/c'
_symmetry_Int_Tables_number      15
_space_group_name_Hall           '-C 2yc'
loop_
_symmetry_equiv_pos_site_id
_symmetry_equiv_pos_as_xyz
1 x,y,z
2 -x,y,1/2-z
3 1/2+x,1/2+y,z
4 1/2-x,1/2+y,1/2-z
5 -x,-y,-z
6 x,-y,1/2+z
7 1/2-x,1/2-y,-z
8 1/2+x,1/2-y,1/2+z
_cell_length_a                   26.2911(15)
_cell_length_b                   13.5761(8)
_cell_length_c                   6.7620(4)
_cell_angle_alpha                90
_cell_angle_beta                 92.4430(10)
_cell_angle_gamma                90
_cell_volume                     2411.37
loop_
_atom_site_label
_atom_site_type_symbol
_atom_site_fract_x
_atom_site_fract_y
_atom_site_fract_z
_atom_site_U_iso_or_equiv
_atom_site_thermal_displace_type
Tb1 Tb 0.896405(10) 0.193154(19) 0.98843(4) 0.0190 Uani
S1 S 1.0000 0.20132(15) 1.2500 0.0193 Uani
C1 C 0.8216(2) 0.5471(4) 0.9309(9) 0.0191 Uani
H1 H 0.8569 0.5510 0.9483 0.0230 Uiso
C2 C 0.7995(2) 0.4548(4) 0.9331(8) 0.0146 Uani
C3 C 0.7466(2) 0.4487(4) 0.9107(8) 0.0150 Uani
H2 H 0.7303 0.3879 0.9104 0.0180 Uiso
C4 C 0.71864(19) 0.5355(4) 0.8888(8) 0.0140 Uani
C5 C 0.7449(2) 0.6243(4) 0.8846(8) 0.0154 Uani
H3 H 0.7262 0.6820 0.8663 0.0190 Uiso
C6 C 0.8322(2) 0.3646(4) 0.9550(8) 0.0163 Uani
C7 C 0.6614(2) 0.5362(4) 0.8646(8) 0.0164 Uani
N1 N 0.79571(17) 0.6312(3) 0.9056(7) 0.0180 Uani
O1 O 0.87857(15) 0.3753(3) 1.0073(7) 0.0265 Uani
O2 O 0.93027(18) 0.2819(3) 0.6937(7) 0.0303 Uani
H4 H 0.9609 0.2712 0.6640 0.0360 Uiso
H5 H 0.9111 0.2672 0.5936 0.0360 Uiso
O3 O 0.81320(15) 0.2808(3) 0.9228(7) 0.0232 Uani
O4 O 0.95905(18) 0.0641(3) 0.8700(8) 0.0397 Uani
H6 H 0.9653 0.0230 0.9626 0.0480 Uiso
H7 H 0.9464 0.0319 0.7622 0.0480 Uiso
O5 O 0.63805(16) 0.4597(3) 0.9041(7) 0.0285 Uani
O6 O 0.85936(19) 0.2229(4) 1.3112(7) 0.0358 Uani
H8 H 0.8660 0.1743 1.3890 0.0530 Uiso
H9 H 0.8270 0.2291 1.2952 0.0530 Uiso
O7 O 0.64042(15) 0.6155(3) 0.8091(6) 0.0229 Uani
O8 O 0.95545(15) 0.1398(4) 1.2907(7) 0.0321 Uani
O9 O 0.98452(17) 0.2605(4) 1.0781(7) 0.0362 Uani
O8A O 1.04455(15) 0.1398(4) 1.2093(7) 0.0321 Uani
O9A O 1.01548(17) 0.2605(4) 1.4219(7) 0.0362 Uani
Tb1A Tb 1.103595(10) 0.193154(19) 1.51157(4) 0.0190 Uani
C1A C 1.1784(2) 0.5471(4) 1.5691(9) 0.0191 Uani
H1A H 1.1431 0.5510 1.5517 0.0230 Uiso
C2A C 1.2005(2) 0.4548(4) 1.5669(8) 0.0146 Uani
C3A C 1.2534(2) 0.4487(4) 1.5893(8) 0.0150 Uani
H2A H 1.2697 0.3879 1.5896 0.0180 Uiso
C4A C 1.28136(19) 0.5355(4) 1.6112(8) 0.0140 Uani
C5A C 1.2551(2) 0.6243(4) 1.6154(8) 0.0154 Uani
H3A H 1.2738 0.6820 1.6337 0.0190 Uiso
C6A C 1.1678(2) 0.3646(4) 1.5450(8) 0.0163 Uani
C7A C 1.3386(2) 0.5362(4) 1.6354(8) 0.0164 Uani
N1A N 1.20429(17) 0.6312(3) 1.5944(7) 0.0180 Uani
O1A O 1.12143(15) 0.3753(3) 1.4927(7) 0.0265 Uani
O2A O 1.06973(18) 0.2819(3) 1.8063(7) 0.0303 Uani
H4A H 1.0391 0.2712 1.8360 0.0360 Uiso
H5A H 1.0889 0.2672 1.9064 0.0360 Uiso
O3A O 1.18680(15) 0.2808(3) 1.5772(7) 0.0232 Uani
O4A O 1.04095(18) 0.0641(3) 1.6300(8) 0.0397 Uani
H6A H 1.0347 0.0230 1.5374 0.0480 Uiso
H7A H 1.0536 0.0319 1.7378 0.0480 Uiso
O5A O 1.36195(16) 0.4597(3) 1.5959(7) 0.0285 Uani
O6A O 1.14064(19) 0.2229(4) 1.1888(7) 0.0358 Uani
H8A H 1.1340 0.1743 1.1110 0.0530 Uiso
H9A H 1.1730 0.2291 1.2048 0.0530 Uiso
O7A O 1.35958(15) 0.6155(3) 1.6909(6) 0.0229 Uani
Tb1B Tb 1.396405(10) 0.693154(19) 1.98843(4) 0.0190 Uani
Tb1C Tb 0.603595(10) 0.693154(19) 0.51157(4) 0.0190 Uani
Tb1F Tb 0.603595(10) 0.306846(19) 1.01157(4) 0.0190 Uani
Tb1G Tb 1.396405(10) 0.306846(19) 1.48843(4) 0.0190 Uani
O5F O 0.86195(16) 0.0403(3) 1.0959(7) 0.0285 Uani
O5G O 1.13805(16) 0.0403(3) 1.4041(7) 0.0285 Uani
O7B O 1.14042(15) 0.1155(3) 1.8091(6) 0.0229 Uani
O7C O 0.85958(15) 0.1155(3) 0.6909(6) 0.0229 Uani
O10 O 0.9506(3) 0.4848(5) 0.6533(13) 0.0868 Uani
H10 H 0.9531 0.4925 0.7781 0.1300 Uiso
H11 H 0.9377 0.4281 0.6322 0.1300 Uiso
loop_
_atom_site_aniso_label
_atom_site_aniso_U_11
_atom_site_aniso_U_22
_atom_site_aniso_U_33
_atom_site_aniso_U_23
_atom_site_aniso_U_13
_atom_site_aniso_U_12
Tb1 0.01665(18) 0.01657(18) 0.0236(2) 0.00013(11) -0.00055(12) 0.00030(10)
S1 0.0131(10) 0.0242(10) 0.0202(11) 0.000 -0.0049(8) 0.000
C1 0.016(3) 0.019(3) 0.022(3) 0.000(2) -0.002(2) -0.001(2)
C2 0.018(3) 0.011(3) 0.015(3) 0.004(2) 0.004(2) 0.004(2)
C3 0.021(3) 0.011(2) 0.013(3) 0.000(2) 0.000(2) -0.003(2)
C4 0.014(3) 0.015(3) 0.013(3) 0.000(2) 0.001(2) -0.001(2)
C5 0.018(3) 0.012(2) 0.016(3) 0.002(2) -0.001(2) 0.001(2)
C6 0.021(3) 0.016(3) 0.012(3) 0.004(2) 0.002(2) 0.008(2)
C7 0.018(3) 0.018(3) 0.013(3) -0.003(2) -0.001(2) 0.000(2)
N1 0.016(2) 0.015(2) 0.023(3) 0.003(2) -0.0004(19) -0.0005(19)
O1 0.015(2) 0.021(2) 0.043(3) -0.0016(19) -0.0036(18) 0.0030(17)
O2 0.033(3) 0.036(2) 0.022(2) 0.002(2) 0.0028(19) -0.001(2)
O3 0.020(2) 0.0136(19) 0.035(3) -0.0056(18) -0.0092(18) 0.0030(17)
O4 0.036(3) 0.027(2) 0.057(3) -0.014(2) 0.012(2) 0.004(2)
O5 0.022(2) 0.018(2) 0.046(3) 0.004(2) 0.0066(19) -0.0059(17)
O6 0.047(3) 0.038(3) 0.023(2) 0.009(2) 0.010(2) 0.027(2)
O7 0.018(2) 0.020(2) 0.030(2) 0.0055(18) -0.0059(17) 0.0025(17)
O8 0.016(2) 0.042(3) 0.038(3) 0.017(2) -0.0011(19) -0.0053(19)
O9 0.031(3) 0.040(3) 0.036(3) 0.020(2) -0.017(2) -0.014(2)
O8A 0.016 0.042 0.038 -0.017 -0.0011 0.0053
O9A 0.031 0.04 0.036 -0.02 -0.017 0.014
Tb1A 0.01665 0.01657 0.0236 -0.00013 -0.00055 -0.0003
C1A 0.016 0.019 0.022 0 -0.002 0.001
C2A 0.018 0.011 0.015 -0.004 0.004 -0.004
C3A 0.021 0.011 0.013 0 0 0.003
C4A 0.014 0.015 0.013 0 0.001 0.001
C5A 0.018 0.012 0.016 -0.002 -0.001 -0.001
C6A 0.021 0.016 0.012 -0.004 0.002 -0.008
C7A 0.018 0.018 0.013 0.003 -0.001 0
N1A 0.016 0.015 0.023 -0.003 -0.0004 0.0005
O1A 0.015 0.021 0.043 0.0016 -0.0036 -0.003
O2A 0.033 0.036 0.022 -0.002 0.0028 0.001
O3A 0.02 0.0136 0.035 0.0056 -0.0092 -0.003
O4A 0.036 0.027 0.057 0.014 0.012 -0.004
O5A 0.022 0.018 0.046 -0.004 0.0066 0.0059
O6A 0.047 0.038 0.023 -0.009 0.01 -0.027
O7A 0.018 0.02 0.03 -0.0055 -0.0059 -0.0025
Tb1B 0.01665 0.01657 0.0236 0.00013 -0.00055 0.0003
Tb1C 0.01665 0.01657 0.0236 -0.00013 -0.00055 -0.0003
Tb1F 0.01665 0.01657 0.0236 0.00013 -0.00055 0.0003
Tb1G 0.01665 0.01657 0.0236 -0.00013 -0.00055 -0.0003
O5F 0.022 0.018 0.046 0.004 0.0066 -0.0059
O5G 0.022 0.018 0.046 -0.004 0.0066 0.0059
O7B 0.018 0.02 0.03 0.0055 -0.0059 0.0025
O7C 0.018 0.02 0.03 -0.0055 -0.0059 -0.0025
O10 0.064(4) 0.046(4) 0.148(8) 0.028(4) -0.025(5) 0.000(3)
loop_
_geom_bond_atom_site_label_1
_geom_bond_atom_site_label_2
_geom_bond_site_symmetry_1
_geom_bond_site_symmetry_2
Tb1 O1 1_555 1_555
S1 O8 1_555 1_555
C1 H1 1_555 1_555
C2 C1 1_555 1_555
C3 C2 1_555 1_555
H2 C3 1_555 1_555
C4 C3 1_555 1_555
C5 C4 1_555 1_555
H3 C5 1_555 1_555
C6 C2 1_555 1_555
C7 C4 1_555 1_555
N1 C1 1_555 1_555
O1 C6 1_555 1_555
O2 Tb1 1_555 1_555
H4 O2 1_555 1_555
H5 O2 1_555 1_555
O3 Tb1 1_555 1_555
O4 Tb1 1_555 1_555
H6 O4 1_555 1_555
H7 O4 1_555 1_555
O5 C7 1_555 1_555
O6 Tb1 1_555 1_555
H8 O6 1_555 1_555
H9 O6 1_555 1_555
O7 C7 1_555 1_555
O8 Tb1 1_555 1_555
O9 Tb1 1_555 1_555
O10 H10 1_555 1_555
H11 O10 1_555 1_555
O8A S1 1_555 1_555
O9A S1 1_555 1_555
Tb1A O8A 1_555 1_555
C1A H1A 1_555 1_555
C2A C1A 1_555 1_555
C3A C2A 1_555 1_555
H2A C3A 1_555 1_555
C4A C3A 1_555 1_555
C5A C4A 1_555 1_555
H3A C5A 1_555 1_555
C6A C2A 1_555 1_555
C7A C4A 1_555 1_555
N1A C1A 1_555 1_555
O1A Tb1A 1_555 1_555
O2A Tb1A 1_555 1_555
H4A O2A 1_555 1_555
H5A O2A 1_555 1_555
O3A Tb1A 1_555 1_555
O4A Tb1A 1_555 1_555
H6A O4A 1_555 1_555
H7A O4A 1_555 1_555
O5A C7A 1_555 1_555
O6A Tb1A 1_555 1_555
H8A O6A 1_555 1_555
H9A O6A 1_555 1_555
O7A C7A 1_555 1_555
Tb1B O7A 1_555 1_555
Tb1C O7 1_555 1_555
Tb1F O5 1_555 1_555
Tb1G O5A 1_555 1_555
O5F Tb1 1_555 1_555
O5G Tb1A 1_555 1_555
O7B Tb1A 1_555 1_555
O7C Tb1 1_555 1_555
S1 O9 1_555 1_555
C5 N1 1_555 1_555
C6 O3 1_555 1_555
O9A Tb1A 1_555 1_555
C5A N1A 1_555 1_555
C6A O1A 1_555 1_555
C6A O3A 1_555 1_555

#END
