
#######################################################################
#
#                 Cambridge Crystallographic Data Centre
#                                CCDC 
#
#######################################################################
#
# If this CIF has been generated from an entry in the Cambridge 
# Structural Database, then it will include bibliographic, chemical, 
# crystal, experimental, refinement or atomic coordinate data resulting 
# from the CCDC's data processing and validation procedures.
#
#######################################################################

data_EBINUA02
_chemical_formula_moiety         '(C16 H28 Cl1 Cu1 N12 O6 1+)n'
_symmetry_cell_setting           orthorhombic
_symmetry_space_group_name_H-M   'F d d d'
_symmetry_Int_Tables_number      70
_space_group_name_Hall           '-F 2uv 2vw'
loop_
_symmetry_equiv_pos_site_id
_symmetry_equiv_pos_as_xyz
1 x,y,z
2 1/4-x,1/4-y,z
3 x,1/4-y,1/4-z
4 1/4-x,y,1/4-z
5 x,1/2+y,1/2+z
6 1/4-x,3/4-y,1/2+z
7 x,3/4-y,3/4-z
8 1/4-x,1/2+y,3/4-z
9 1/2+x,y,1/2+z
10 3/4-x,1/4-y,1/2+z
11 1/2+x,1/4-y,3/4-z
12 3/4-x,y,3/4-z
13 1/2+x,1/2+y,z
14 3/4-x,3/4-y,z
15 1/2+x,3/4-y,1/4-z
16 3/4-x,1/2+y,1/4-z
17 -x,-y,-z
18 3/4+x,3/4+y,-z
19 -x,3/4+y,3/4+z
20 3/4+x,-y,3/4+z
21 -x,1/2-y,1/2-z
22 3/4+x,1/4+y,1/2-z
23 -x,1/4+y,1/4+z
24 3/4+x,1/2-y,1/4+z
25 1/2-x,-y,1/2-z
26 1/4+x,3/4+y,1/2-z
27 1/2-x,3/4+y,1/4+z
28 1/4+x,-y,1/4+z
29 1/2-x,1/2-y,-z
30 1/4+x,1/4+y,-z
31 1/2-x,1/4+y,3/4+z
32 1/4+x,1/2-y,3/4+z
_cell_length_a                   25.054(2)
_cell_length_b                   13.2154(9)
_cell_length_c                   17.3885(13)
_cell_angle_alpha                90
_cell_angle_beta                 90
_cell_angle_gamma                90
_cell_volume                     5757.31
loop_
_atom_site_label
_atom_site_type_symbol
_atom_site_fract_x
_atom_site_fract_y
_atom_site_fract_z
_atom_site_U_iso_or_equiv
_atom_site_thermal_displace_type
Cu1 Cu 0.3750 -0.1250 -0.1250 0.0206 Uani
O1 O 0.3750 -0.1250 -0.2634(5) 0.0327 Uani
H1 H 0.3734 -0.0742 -0.2935 0.0390 Uiso
N1 N 0.2539(3) 0.0800(6) -0.0820(5) 0.0313 Uani
N2 N 0.2690(5) 0.1178(7) -0.1510(5) 0.0487 Uani
N3 N 0.3179(3) -0.0173(6) -0.1206(4) 0.0250 Uani
C1 C 0.2837(4) -0.0002(7) -0.0648(6) 0.0263 Uani
H3 H 0.2807 -0.0384 -0.0202 0.0320 Uiso
C2 C 0.3072(5) 0.0565(9) -0.1716(6) 0.0453 Uani
H4 H 0.3256 0.0633 -0.2178 0.0550 Uiso
C3 C 0.2127(4) 0.1294(8) -0.0356(7) 0.0377 Uani
H5 H 0.1875 0.1626 -0.0696 0.0460 Uiso
H6 H 0.1935 0.0783 -0.0067 0.0460 Uiso
C4 C 0.2354(5) 0.2067(8) 0.0198(6) 0.0377 Uani
H7 H 0.2065 0.2344 0.0504 0.0450 Uiso
H8 H 0.2599 0.1730 0.0545 0.0450 Uiso
Cu1Q Cu 0.1250 0.6250 0.1250 0.0206 Uani
Cu1S Cu 0.1250 -0.8750 -0.3750 0.0206 Uani
O1F O 0.3750 -0.1250 0.0134(5) 0.0327 Uani
H1M H 0.3766 -0.1758 -0.2935 0.0390 Uiso
H1F H 0.3734 -0.1758 0.0435 0.0390 Uiso
H1K H 0.3766 -0.0742 0.0435 0.0390 Uiso
N1BA N 0.2461(3) 0.4200(6) 0.0820(5) 0.0313 Uani
N1F N 0.2539(3) -0.3300(6) -0.1680(5) 0.0313 Uani
N1DA N 0.2461(3) -0.6700(6) -0.3320(5) 0.0313 Uani
N2BA N 0.2310(5) 0.3822(7) 0.1510(5) 0.0487 Uani
N2F N 0.2690(5) -0.3678(7) -0.0990(5) 0.0487 Uani
N2DA N 0.2310(5) -0.6322(7) -0.4010(5) 0.0487 Uani
N3BA N 0.1821(3) 0.5173(6) 0.1206(4) 0.0250 Uani
N3F N 0.3179(3) -0.2327(6) -0.1294(4) 0.0250 Uani
N3DA N 0.1821(3) -0.7673(6) -0.3706(4) 0.0250 Uani
N3K N 0.4321(3) -0.0173(6) -0.1294(4) 0.0250 Uani
N3M N 0.4321(3) -0.2327(6) -0.1206(4) 0.0250 Uani
C1BA C 0.2163(4) 0.5002(7) 0.0648(6) 0.0263 Uani
C1F C 0.2837(4) -0.2498(7) -0.1852(6) 0.0263 Uani
C1DA C 0.2163(4) -0.7502(7) -0.3148(6) 0.0263 Uani
H3BA H 0.2193 0.5384 0.0202 0.0320 Uiso
H3F H 0.2807 -0.2116 -0.2298 0.0320 Uiso
H3DA H 0.2193 -0.7884 -0.2702 0.0320 Uiso
C2BA C 0.1928(5) 0.4435(9) 0.1716(6) 0.0453 Uani
C2F C 0.3072(5) -0.3065(9) -0.0784(6) 0.0453 Uani
C2DA C 0.1928(5) -0.6935(9) -0.4216(6) 0.0453 Uani
H4BA H 0.1744 0.4367 0.2178 0.0550 Uiso
H4F H 0.3256 -0.3133 -0.0322 0.0550 Uiso
H4DA H 0.1744 -0.6867 -0.4678 0.0550 Uiso
C3BA C 0.2873(4) 0.3706(8) 0.0356(7) 0.0377 Uani
C3F C 0.2127(4) -0.3794(8) -0.2144(7) 0.0377 Uani
C3DA C 0.2873(4) -0.6206(8) -0.2856(7) 0.0377 Uani
H5BA H 0.3125 0.3374 0.0696 0.0460 Uiso
H5F H 0.1875 -0.4126 -0.1804 0.0460 Uiso
H5DA H 0.3125 -0.5874 -0.3196 0.0460 Uiso
H6BA H 0.3065 0.4217 0.0067 0.0460 Uiso
H6F H 0.1935 -0.3283 -0.2433 0.0460 Uiso
H6DA H 0.3065 -0.6717 -0.2567 0.0460 Uiso
C4BA C 0.2646(5) 0.2933(8) -0.0198(6) 0.0377 Uani
C4F C 0.2354(5) -0.4567(8) -0.2698(6) 0.0377 Uani
C4DA C 0.2646(5) -0.5433(8) -0.2302(6) 0.0377 Uani
H7BA H 0.2935 0.2656 -0.0504 0.0450 Uiso
H7F H 0.2065 -0.4844 -0.3004 0.0450 Uiso
H7DA H 0.2935 -0.5156 -0.1996 0.0450 Uiso
H8BA H 0.2401 0.3270 -0.0545 0.0450 Uiso
H8F H 0.2599 -0.4230 -0.3045 0.0450 Uiso
H8DA H 0.2401 -0.5770 -0.1955 0.0450 Uiso
Cl1 Cl 0.13145(14) 0.3750 0.3750 0.0380 Uani
O4 O 0.1213(6) 0.4319(15) 0.4513(7) 0.0880 Uani
O5 O 0.1078(6) 0.2797(9) 0.3873(13) 0.1183 Uani
O4F O 0.1213(6) 0.3181(15) 0.2987(7) 0.0880 Uani
O5F O 0.1078(6) 0.4703(9) 0.3627(13) 0.1183 Uani
loop_
_atom_site_aniso_label
_atom_site_aniso_U_11
_atom_site_aniso_U_22
_atom_site_aniso_U_33
_atom_site_aniso_U_23
_atom_site_aniso_U_13
_atom_site_aniso_U_12
Cu1 0.0251 0.0136 0.0232 0 0 0
O1 0.047 0.029 0.022 0 0 0.004
N1 0.034 0.026 0.034 -0.006 -0.003 0.007
N2 0.076 0.039 0.031 0.008 0.005 0.031
N3 0.033 0.019 0.023 0.001 0.001 0.006
C1 0.028 0.021 0.03 -0.001 -0.002 -0.001
C2 0.067 0.039 0.03 0.01 0.015 0.028
C3 0.029 0.038 0.046 -0.009 0.005 0.009
C4 0.037 0.036 0.04 -0.008 0.007 0.009
Cu1Q 0.0251(15) 0.0136(13) 0.0232(14) 0.000 0.000 0.000
Cu1S 0.0251 0.0136 0.0232 0 0 0
O1F 0.047 0.029 0.022 0 0 -0.004
N1BA 0.034 0.026 0.034 -0.006 -0.003 0.007
N1F 0.034 0.026 0.034 -0.006 0.003 -0.007
N1DA 0.034 0.026 0.034 -0.006 0.003 -0.007
N2BA 0.076 0.039 0.031 0.008 0.005 0.031
N2F 0.076 0.039 0.031 0.008 -0.005 -0.031
N2DA 0.076 0.039 0.031 0.008 -0.005 -0.031
N3BA 0.033 0.019 0.023 0.001 0.001 0.006
N3F 0.033 0.019 0.023 0.001 -0.001 -0.006
N3DA 0.033 0.019 0.023 0.001 -0.001 -0.006
N3K 0.033 0.019 0.023 -0.001 0.001 -0.006
N3M 0.033 0.019 0.023 -0.001 -0.001 0.006
C1BA 0.028 0.021 0.03 -0.001 -0.002 -0.001
C1F 0.028 0.021 0.03 -0.001 0.002 0.001
C1DA 0.028 0.021 0.03 -0.001 0.002 0.001
C2BA 0.067 0.039 0.03 0.01 0.015 0.028
C2F 0.067 0.039 0.03 0.01 -0.015 -0.028
C2DA 0.067 0.039 0.03 0.01 -0.015 -0.028
C3BA 0.029 0.038 0.046 -0.009 0.005 0.009
C3F 0.029 0.038 0.046 -0.009 -0.005 -0.009
C3DA 0.029 0.038 0.046 -0.009 -0.005 -0.009
C4BA 0.037 0.036 0.04 -0.008 0.007 0.009
C4F 0.037 0.036 0.04 -0.008 -0.007 -0.009
C4DA 0.037 0.036 0.04 -0.008 -0.007 -0.009
Cl1 0.032(2) 0.034(2) 0.048(2) 0.0196(17) 0.000 0.000
O4 0.099(14) 0.097(15) 0.068(12) -0.022(11) -0.007(10) 0.046(12)
O5 0.16(2) 0.087(17) 0.108(17) 0.047(14) -0.068(15) -0.034(15)
O4F 0.099 0.097 0.068 -0.022 0.007 -0.046
O5F 0.16 0.087 0.108 0.047 0.068 0.034
loop_
_geom_bond_atom_site_label_1
_geom_bond_atom_site_label_2
_geom_bond_site_symmetry_1
_geom_bond_site_symmetry_2
Cu1 O1 1_555 1_555
O1 H1 1_555 1_555
N1 N2 1_555 1_555
N2 C2 1_555 1_555
N3 Cu1 1_555 1_555
C1 N1 1_555 1_555
H3 C1 1_555 1_555
C2 N3 1_555 1_555
H4 C2 1_555 1_555
C3 N1 1_555 1_555
H5 C3 1_555 1_555
H6 C3 1_555 1_555
C4 C3 1_555 1_555
H7 C4 1_555 1_555
H8 C4 1_555 1_555
Cl1 O4 1_555 1_555
O5 Cl1 1_555 1_555
Cu1Q N3BA 1_555 1_555
Cu1S N3DA 1_555 1_555
O1F Cu1 1_555 1_555
H1M O1 1_555 1_555
H1F O1F 1_555 1_555
H1K O1F 1_555 1_555
N1BA N2BA 1_555 1_555
N1F N2F 1_555 1_555
N1DA N2DA 1_555 1_555
N2BA C2BA 1_555 1_555
N2F C2F 1_555 1_555
N2DA C2DA 1_555 1_555
N3BA C1BA 1_555 1_555
N3F Cu1 1_555 1_555
N3DA C1DA 1_555 1_555
N3K Cu1 1_555 1_555
N3M Cu1 1_555 1_555
C1BA N1BA 1_555 1_555
C1F N1F 1_555 1_555
C1DA N1DA 1_555 1_555
H3BA C1BA 1_555 1_555
H3F C1F 1_555 1_555
H3DA C1DA 1_555 1_555
C2BA N3BA 1_555 1_555
C2F N3F 1_555 1_555
C2DA N3DA 1_555 1_555
H4BA C2BA 1_555 1_555
H4F C2F 1_555 1_555
H4DA C2DA 1_555 1_555
C3BA N1BA 1_555 1_555
C3F N1F 1_555 1_555
C3DA N1DA 1_555 1_555
H5BA C3BA 1_555 1_555
H5F C3F 1_555 1_555
H5DA C3DA 1_555 1_555
H6BA C3BA 1_555 1_555
H6F C3F 1_555 1_555
H6DA C3DA 1_555 1_555
C4BA C4 1_555 1_555
C4F C3F 1_555 1_555
C4DA C3DA 1_555 1_555
H7BA C4BA 1_555 1_555
H7F C4F 1_555 1_555
H7DA C4DA 1_555 1_555
H8BA C4BA 1_555 1_555
H8F C4F 1_555 1_555
H8DA C4DA 1_555 1_555
O4F Cl1 1_555 1_555
O5F Cl1 1_555 1_555
N3 C1 1_555 1_555
N3F C1F 1_555 1_555
C3BA C4BA 1_555 1_555
C4F C4DA 1_555 1_555

#END
