
#######################################################################
#
#                 Cambridge Crystallographic Data Centre
#                                CCDC 
#
#######################################################################
#
# If this CIF has been generated from an entry in the Cambridge 
# Structural Database, then it will include bibliographic, chemical, 
# crystal, experimental, refinement or atomic coordinate data resulting 
# from the CCDC's data processing and validation procedures.
#
#######################################################################

data_JUZSEE
_chemical_formula_moiety         '(C33 H41 N29 O3 Zn4)n'
_symmetry_cell_setting           monoclinic
_symmetry_space_group_name_H-M   'C 2'
_symmetry_Int_Tables_number      5
_space_group_name_Hall           'C 2y'
loop_
_symmetry_equiv_pos_site_id
_symmetry_equiv_pos_as_xyz
1 x,y,z
2 -x,y,-z
3 1/2+x,1/2+y,z
4 1/2-x,1/2+y,-z
_cell_length_a                   17.437(13)
_cell_length_b                   10.020(7)
_cell_length_c                   17.902(14)
_cell_angle_alpha                90
_cell_angle_beta                 117.903(11)
_cell_angle_gamma                90
_cell_volume                     2764.18
loop_
_atom_site_label
_atom_site_type_symbol
_atom_site_fract_x
_atom_site_fract_y
_atom_site_fract_z
Zn1 Zn 0.87593(3) 0.85985(5) 0.80651(3)
Zn2 Zn 0.65217(3) 1.34939(6) 0.67922(3)
O1 O 0.7616(2) 1.2783(3) 0.6448(2)
N1 N 0.9562(2) 0.8318(4) 0.9319(2)
N2 N 0.5594(2) 1.3033(4) 0.5602(2)
N3 N 0.5354(3) 1.1729(4) 0.5356(2)
N4 N 0.9749(3) 0.6999(4) 0.9606(3)
N5 N 0.7143(2) 0.5274(4) 0.6970(2)
N6 N 0.7596(3) 0.7077(4) 0.6630(3)
N7 N 0.7089(3) 0.6023(4) 0.6316(3)
N8 N 0.8012(2) 0.6992(4) 0.7494(2)
N9 N 1.0589(2) 0.9075(4) 0.7190(2)
N10 N 0.9589(2) 0.9055(4) 0.7614(2)
N11 N 0.7945(2) 1.0067(4) 0.7947(2)
N12 N 0.7110(2) 1.1940(4) 0.7570(2)
N13 N 1.0694(3) 1.0149(5) 0.7686(3)
N14 N 1.0120(3) 1.0148(5) 0.7943(3)
C1 C 0.7718(4) 0.5853(5) 0.7665(3)
C2 C 0.7569(4) 0.9312(6) 0.9099(3)
H1 H 0.7910 0.8547 0.9251
C3 C 0.5000 1.3786(7) 0.5000
C4 C 1.0000 0.9056(7) 1.0000
C5 C 0.7978(4) 0.5315(7) 0.8531(3)
H2 H 0.8392 0.5906 0.8946
H3 H 0.8234 0.4448 0.8586
H4 H 0.7475 0.5247 0.8616
C6 C 0.6580(4) 1.0815(7) 0.9282(4)
H5 H 0.6267 1.1025 0.9568
C7 C 0.7080(4) 0.9637(7) 0.9494(4)
H6 H 0.7079 0.9071 0.9905
C8 C 1.0000 1.0578(8) 1.0000
C9 C 0.5000 1.5287(9) 0.5000
C10 C 0.9898(3) 0.8433(6) 0.7155(3)
C11 C 0.7656(3) 1.1139(5) 0.7436(3)
C12 C 0.7544(3) 1.0163(5) 0.8460(3)
C13 C 0.7904(3) 1.1448(5) 0.6748(3)
H7 H 0.8538 1.1416 0.6993
C14 C 0.7034(3) 1.1331(5) 0.8237(3)
C15 C 0.6545(4) 1.1668(6) 0.8656(3)
H8 H 0.6210 1.2440 0.8516
C16 C 0.7512(4) 1.0458(6) 0.6014(3)
H9 H 0.7693 1.0685 0.5599
H10 H 0.6890 1.0494 0.5761
H11 H 0.7705 0.9572 0.6220
C17 C 0.9512(4) 0.7153(7) 0.6670(4)
H12 H 0.9018 0.6901 0.6739
H13 H 0.9939 0.6456 0.6884
H14 H 0.9336 0.7292 0.6082
N1A N 1.0438(2) 0.8318(4) 1.0681(2)
N4A N 1.0251(3) 0.6999(4) 1.0394(3)
N2A N 0.4406(2) 1.3033(4) 0.4398(2)
N3A N 0.4646(3) 1.1729(4) 0.4644(2)
Zn1A Zn 0.12407(3) 0.85985(5) 0.19349(3)
Zn2A Zn 0.34783(3) 1.34939(6) 0.32078(3)
O1A O 0.2384(2) 1.2783(3) 0.3552(2)
N5A N 0.2857(2) 0.5274(4) 0.3030(2)
N6A N 0.2404(3) 0.7077(4) 0.3370(3)
N7A N 0.2911(3) 0.6023(4) 0.3684(3)
N8A N 0.1988(2) 0.6992(4) 0.2506(2)
N9A N -0.0589(2) 0.9075(4) 0.2810(2)
N10A N 0.0411(2) 0.9055(4) 0.2386(2)
N11A N 0.2055(2) 1.0067(4) 0.2053(2)
N12A N 0.2890(2) 1.1940(4) 0.2430(2)
N13A N -0.0694(3) 1.0149(5) 0.2314(3)
N14A N -0.0120(3) 1.0148(5) 0.2057(3)
C1A C 0.2282(4) 0.5853(5) 0.2335(3)
C2A C 0.2431(4) 0.9312(6) 0.0901(3)
H1A H 0.2090 0.8547 0.0749
C5A C 0.2022(4) 0.5315(7) 0.1469(3)
H2A H 0.1608 0.5906 0.1054
H3A H 0.1766 0.4448 0.1414
H4A H 0.2525 0.5247 0.1384
C6A C 0.3420(4) 1.0815(7) 0.0718(4)
H5A H 0.3733 1.1025 0.0432
C7A C 0.2920(4) 0.9637(7) 0.0506(4)
H6A H 0.2921 0.9071 0.0095
C10A C 0.0102(3) 0.8433(6) 0.2845(3)
C11A C 0.2344(3) 1.1139(5) 0.2564(3)
C12A C 0.2456(3) 1.0163(5) 0.1540(3)
C13A C 0.2096(3) 1.1448(5) 0.3252(3)
H7A H 0.1462 1.1416 0.3007
C14A C 0.2966(3) 1.1331(5) 0.1763(3)
C15A C 0.3455(4) 1.1668(6) 0.1344(3)
H8A H 0.3790 1.2440 0.1484
C16A C 0.2488(4) 1.0458(6) 0.3986(3)
H9A H 0.2307 1.0685 0.4401
H10A H 0.3110 1.0494 0.4239
H11A H 0.2295 0.9572 0.3780
C17A C 0.0488(4) 0.7153(7) 0.3330(4)
H12A H 0.0982 0.6901 0.3261
H13A H 0.0061 0.6456 0.3116
H14A H 0.0664 0.7292 0.3918
Zn1A_2 Zn 1.12407(3) 0.85985(5) 1.19349(3)
Zn2_2 Zn 0.65217(3) 0.34939(6) 0.67922(3)
Zn2A_2 Zn 0.34783(3) 0.34939(6) 0.32078(3)
Zn2B Zn 1.15217(3) 0.84939(6) 0.67922(3)
Zn2C Zn -0.15217(3) 0.84939(6) 0.32078(3)
N1A_2 N 0.0438(2) 0.8318(4) 0.0681(2)
N5_2 N 0.7143(2) 1.5274(4) 0.6970(2)
N5A_2 N 0.2857(2) 1.5274(4) 0.3030(2)
N9B N 0.5589(2) 1.4075(4) 0.7190(2)
N9C N 0.4411(2) 1.4075(4) 0.2810(2)
O2 O 0.4122(3) -0.0994(5) 0.7362(3)
N15 N 0.4922(3) -0.1390(6) 0.6661(3)
C18 C 0.4173(4) -0.1278(9) 0.5828(4)
H15 H 0.3660 -0.1135 0.5887
H16 H 0.4111 -0.2086 0.5517
H17 H 0.4254 -0.0540 0.5530
C19 C 0.5798(4) -0.1612(10) 0.6758(5)
H18 H 0.6210 -0.1632 0.7348
H19 H 0.5944 -0.0901 0.6487
H20 H 0.5813 -0.2447 0.6502
C20 C 0.4828(4) -0.1212(7) 0.7364(4)
H21 H 0.5325 -0.1255 0.7884
loop_
_geom_bond_atom_site_label_1
_geom_bond_atom_site_label_2
_geom_bond_site_symmetry_1
_geom_bond_site_symmetry_2
Zn1 N1 1_555 1_555
Zn2 O1 1_555 1_555
O1 C13 1_555 1_555
N1 N4 1_555 1_555
N2 Zn2 1_555 1_555
N3 N2 1_555 1_555
N4 N4A 1_555 1_555
N5 N7 1_555 1_555
N6 N7 1_555 1_555
N8 Zn1 1_555 1_555
N9 N13 1_555 1_555
N10 Zn1 1_555 1_555
N11 Zn1 1_555 1_555
N12 Zn2 1_555 1_555
N13 N14 1_555 1_555
N14 N10 1_555 1_555
C1 N5 1_555 1_555
C2 H1 1_555 1_555
C3 N2 1_555 1_555
C4 N1 1_555 1_555
C5 C1 1_555 1_555
H2 C5 1_555 1_555
H3 C5 1_555 1_555
H4 C5 1_555 1_555
C6 H5 1_555 1_555
C7 C2 1_555 1_555
H6 C7 1_555 1_555
C8 C4 1_555 1_555
C9 C3 1_555 1_555
C10 N9 1_555 1_555
C11 N11 1_555 1_555
C12 N11 1_555 1_555
C13 C11 1_555 1_555
H7 C13 1_555 1_555
C14 N12 1_555 1_555
C15 C6 1_555 1_555
H8 C15 1_555 1_555
C16 C13 1_555 1_555
H9 C16 1_555 1_555
H10 C16 1_555 1_555
H11 C16 1_555 1_555
C17 C10 1_555 1_555
H12 C17 1_555 1_555
H13 C17 1_555 1_555
H14 C17 1_555 1_555
O2 C20 1_555 1_555
N15 C18 1_555 1_555
C18 H15 1_555 1_555
H16 C18 1_555 1_555
H17 C18 1_555 1_555
C19 N15 1_555 1_555
H18 C19 1_555 1_555
H19 C19 1_555 1_555
H20 C19 1_555 1_555
C20 N15 1_555 1_555
H21 C20 1_555 1_555
N1A C4 1_555 1_555
N4A N1A 1_555 1_555
N2A C3 1_555 1_555
N3A N3 1_555 1_555
Zn1A N8A 1_555 1_555
Zn2A N2A 1_555 1_555
O1A Zn2A 1_555 1_555
N5A N7A 1_555 1_555
N6A N7A 1_555 1_555
N8A N6A 1_555 1_555
N9A N13A 1_555 1_555
N10A Zn1A 1_555 1_555
N11A Zn1A 1_555 1_555
N12A Zn2A 1_555 1_555
N13A N14A 1_555 1_555
N14A N10A 1_555 1_555
C1A N5A 1_555 1_555
C2A H1A 1_555 1_555
C5A C1A 1_555 1_555
H2A C5A 1_555 1_555
H3A C5A 1_555 1_555
H4A C5A 1_555 1_555
C6A H5A 1_555 1_555
C7A C2A 1_555 1_555
H6A C7A 1_555 1_555
C10A N9A 1_555 1_555
C11A N11A 1_555 1_555
C12A N11A 1_555 1_555
C13A O1A 1_555 1_555
H7A C13A 1_555 1_555
C14A N12A 1_555 1_555
C15A C6A 1_555 1_555
H8A C15A 1_555 1_555
C16A C13A 1_555 1_555
H9A C16A 1_555 1_555
H10A C16A 1_555 1_555
H11A C16A 1_555 1_555
C17A C10A 1_555 1_555
H12A C17A 1_555 1_555
H13A C17A 1_555 1_555
H14A C17A 1_555 1_555
Zn1A_2 N1A 1_555 1_555
Zn2_2 N5 1_555 1_555
Zn2A_2 N5A 1_555 1_555
Zn2B N9 1_555 1_555
Zn2C N9A 1_555 1_555
N1A_2 Zn1A 1_555 1_555
N5_2 Zn2 1_555 1_555
N5A_2 Zn2A 1_555 1_555
N9B Zn2 1_555 1_555
N9C Zn2A 1_555 1_555
N6 N8 1_555 1_555
N8 C1 1_555 1_555
N10 C10 1_555 1_555
N12 C11 1_555 1_555
C2 C12 1_555 1_555
C6 C7 1_555 1_555
C12 C14 1_555 1_555
C14 C15 1_555 1_555
N2A N3A 1_555 1_555
N8A C1A 1_555 1_555
N10A C10A 1_555 1_555
N12A C11A 1_555 1_555
C2A C12A 1_555 1_555
C6A C7A 1_555 1_555
C11A C13A 1_555 1_555
C12A C14A 1_555 1_555
C14A C15A 1_555 1_555

#END
