
#######################################################################
#
#                 Cambridge Crystallographic Data Centre
#                                CCDC 
#
#######################################################################
#
# If this CIF has been generated from an entry in the Cambridge 
# Structural Database, then it will include bibliographic, chemical, 
# crystal, experimental, refinement or atomic coordinate data resulting 
# from the CCDC's data processing and validation procedures.
#
#######################################################################

data_REXCEE
_chemical_formula_moiety         '(C101 H96 I12 N24 O2 Zn6)n'
_symmetry_cell_setting           monoclinic
_symmetry_space_group_name_H-M   'C 2'
_symmetry_Int_Tables_number      5
_space_group_name_Hall           'C 2y'
loop_
_symmetry_equiv_pos_site_id
_symmetry_equiv_pos_as_xyz
1 x,y,z
2 -x,y,-z
3 1/2+x,1/2+y,z
4 1/2-x,1/2+y,-z
_cell_length_a                   34.804(3)
_cell_length_b                   14.8607(11)
_cell_length_c                   31.624(2)
_cell_angle_alpha                90
_cell_angle_beta                 102.0830(10)
_cell_angle_gamma                90
_cell_volume                     15993.9
loop_
_atom_site_label
_atom_site_type_symbol
_atom_site_fract_x
_atom_site_fract_y
_atom_site_fract_z
I1 I 0.02622(5) 1.29820(15) 0.37376(5)
Zn1 Zn 0.08597(8) 1.26969(18) 0.33982(8)
I2 I 0.12109(8) 1.38568(14) 0.30457(7)
N1 N 0.1264(4) 1.2044(10) 0.3865(5)
C1 C 0.1218(5) 1.1142(12) 0.3936(6)
H1 H 0.1020 1.0838 0.3735
C2 C 0.1426(5) 1.0642(12) 0.4262(6)
H2 H 0.1389 1.0010 0.4272
C3 C 0.1700(5) 1.1090(11) 0.4588(6)
C4 C 0.1740(5) 1.2028(11) 0.4537(5)
H3 H 0.1911 1.2358 0.4756
C5 C 0.1531(5) 1.2489(11) 0.4169(5)
H4 H 0.1577 1.3111 0.4133
C6 C 0.1926(4) 1.0590(11) 0.4954(5)
N2 N 0.1834(4) 0.9698(11) 0.4968(4)
C7 C 0.2058(4) 0.9239(11) 0.5281(5)
N3 N 0.2355(4) 0.9605(10) 0.5609(4)
C8 C 0.2403(4) 1.0466(11) 0.5584(4)
N4 N 0.2213(3) 1.0984(9) 0.5210(4)
N5 N 0.1818(9) 0.644(2) 0.5175(9)
C9 C 0.2092(10) 0.678(3) 0.5490(12)
H5 H 0.2241 0.6382 0.5694
C10 C 0.2176(11) 0.769(3) 0.5540(13)
H6 H 0.2378 0.7871 0.5775
C11 C 0.1982(11) 0.834(2) 0.5267(12)
C12 C 0.1701(11) 0.797(2) 0.4945(10)
H7 H 0.1551 0.8358 0.4735
C13 C 0.1627(10) 0.706(2) 0.4909(9)
H8 H 0.1425 0.6865 0.4677
I3 I 0.12204(5) 0.48806(13) 0.44531(4)
Zn2 Zn 0.16946(7) 0.50697(16) 0.51862(7)
I4 I 0.22964(5) 0.41019(11) 0.54113(5)
N6 N 0.3307(4) 1.1807(11) 0.6455(4)
C14 C 0.3095(5) 1.2263(14) 0.6116(5)
H9 H 0.3157 1.2873 0.6071
C15 C 0.2788(5) 1.1851(13) 0.5835(5)
H10 H 0.2615 1.2204 0.5627
C16 C 0.2731(5) 1.0933(13) 0.5850(5)
C17 C 0.2946(5) 1.0457(14) 0.6204(5)
H11 H 0.2899 0.9839 0.6250
C18 C 0.3246(5) 1.0972(15) 0.6497(6)
H12 H 0.3406 1.0664 0.6733
I5 I 0.39003(5) 1.38438(12) 0.65579(6)
Zn3 Zn 0.37338(6) 1.24171(17) 0.69104(7)
I6 I 0.35217(4) 1.23458(16) 0.76244(4)
N7 N 0.4218(4) 1.1543(11) 0.6950(5)
C19 C 0.4369(5) 1.1113(13) 0.7283(5)
H13 H 0.4267 1.1178 0.7537
C20 C 0.4695(5) 1.0520(12) 0.7283(6)
H14 H 0.4800 1.0178 0.7535
C21 C 0.4854(4) 1.0444(11) 0.6936(4)
C22 C 0.4664(6) 1.0855(18) 0.6550(6)
H15 H 0.4736 1.0751 0.6280
C23 C 0.4357(6) 1.1440(19) 0.6601(6)
H16 H 0.4239 1.1791 0.6357
C24 C 0.5212(4) 0.9893(10) 0.6928(4)
N8 N 0.5255(3) 0.9218(8) 0.7215(4)
C25 C 0.5547(4) 0.8669(10) 0.7159(4)
N9 N 0.5779(3) 0.8741(9) 0.6870(3)
N10 N 0.5398(3) 1.0041(8) 0.6607(4)
N11 N 0.5737(4) 0.6303(10) 0.7959(4)
C26 C 0.5625(4) 0.7822(11) 0.7448(4)
C27 C 0.5968(7) 0.650(2) 0.7686(6)
H17 H 0.6178 0.6102 0.7672
C28 C 0.5926(7) 0.7246(19) 0.7422(9)
H18 H 0.6098 0.7355 0.7230
C29 C 0.5378(8) 0.763(3) 0.7722(7)
H19 H 0.5167 0.8022 0.7741
C30 C 0.5441(7) 0.686(2) 0.7970(9)
H20 H 0.5267 0.6728 0.8156
I7 I 0.52916(6) 0.49326(16) 0.87184(5)
Zn4 Zn 0.58802(8) 0.52573(17) 0.83892(8)
I8 I 0.62651(9) 0.41418(15) 0.80338(7)
N12 N 0.6212(7) 0.5908(15) 0.8920(9)
C31 C 0.6528(8) 0.551(3) 0.9158(10)
H21 H 0.6592 0.4909 0.9094
C32 C 0.6759(13) 0.596(3) 0.9494(12)
H22 H 0.6983 0.5672 0.9662
C33 C 0.6672(8) 0.683(3) 0.9592(11)
C34 C 0.6345(7) 0.7228(18) 0.9344(7)
H23 H 0.6273 0.7825 0.9403
C35 C 0.6125(7) 0.6747(15) 0.9011(7)
H24 H 0.5900 0.7024 0.8838
C36 C 0.6927(4) 0.7378(9) 0.9946(5)
N13 N 0.7211(4) 0.6943(8) 1.0220(4)
C37 C 0.7401(4) 0.7472(9) 1.0508(5)
N14 N 0.7325(4) 0.8358(7) 1.0578(4)
C38 C 0.7043(4) 0.8693(10) 1.0309(5)
N15 N 0.6813(3) 0.8217(7) 0.9984(4)
N16 N 0.8317(3) 0.6175(9) 1.1444(4)
C39 C 0.8205(5) 0.7052(11) 1.1493(6)
H25 H 0.8343 0.7382 1.1735
C40 C 0.7927(5) 0.7447(12) 1.1233(5)
H26 H 0.7866 0.8050 1.1293
C41 C 0.7713(4) 0.7044(10) 1.0870(5)
C42 C 0.7833(4) 0.6144(11) 1.0798(6)
H27 H 0.7717 0.5827 1.0542
C43 C 0.8114(4) 0.5758(11) 1.1102(5)
H28 H 0.8169 0.5140 1.1068
N17 N 0.6834(3) 1.1522(9) 1.0248(5)
C44 C 0.6586(5) 1.0944(10) 1.0011(7)
H29 H 0.6357 1.1175 0.9826
C45 C 0.6646(5) 1.0030(10) 1.0022(7)
H30 H 0.6462 0.9641 0.9846
C46 C 0.6977(3) 0.9686(9) 1.0294(5)
C47 C 0.7225(4) 1.0284(9) 1.0539(6)
H31 H 0.7447 1.0069 1.0741
C48 C 0.7157(4) 1.1193(10) 1.0496(6)
H32 H 0.7348 1.1597 1.0650
I9 I 0.62558(5) 1.30767(14) 0.94421(5)
Zn5 Zn 0.67038(7) 1.28878(16) 1.01843(8)
I10 I 0.73249(5) 1.38170(11) 1.04310(7)
I11 I 0.85351(4) 0.56453(16) 1.26233(4)
Zn6 Zn 0.87438(6) 0.55461(17) 1.19028(7)
I12 I 0.89083(5) 0.41061(12) 1.15597(6)
N18 N 0.9192(9) 0.646(2) 1.1927(8)
C49 C 0.9309(8) 0.6531(16) 1.1554(9)
H33 H 0.9176 0.6249 1.1295
C50 C 0.9638(7) 0.7049(16) 1.1575(9)
H34 H 0.9727 0.7109 1.1312
C51 C 0.9859(10) 0.749(2) 1.1925(9)
C52 C 0.9717(9) 0.738(2) 1.2294(11)
H35 H 0.9847 0.7654 1.2557
C53 C 0.9387(9) 0.6869(19) 1.2283(11)
H36 H 0.9292 0.6804 1.2542
C54 C 1.0199(4) 0.8077(11) 1.1923(4)
N19 N 1.0400(4) 0.7916(11) 1.1626(4)
C55 C 1.0695(4) 0.8489(12) 1.1593(5)
N20 N 1.0772(3) 0.9207(9) 1.1865(5)
C56 C 1.0557(4) 0.9341(12) 1.2151(4)
N21 N 1.0281(3) 0.8761(10) 1.2207(3)
N22 N 1.1393(3) 0.8090(8) 1.0667(4)
C57 C 1.1499(5) 0.8620(13) 1.1008(5)
H37 H 1.1745 0.8916 1.1038
C58 C 1.1290(4) 0.8786(15) 1.1323(6)
H38 H 1.1385 0.9178 1.1559
C59 C 1.0935(4) 0.8351(10) 1.1276(4)
C60 C 1.0817(5) 0.7801(13) 1.0923(5)
H39 H 1.0571 0.7502 1.0884
C61 C 1.1048(4) 0.7679(11) 1.0626(5)
H40 H 1.0960 0.7293 1.0386
N23 N 1.0736(4) 1.1648(10) 1.2964(5)
C62 C 1.0410(5) 1.1134(13) 1.2928(5)
H41 H 1.0221 1.1297 1.3091
C63 C 1.0340(4) 1.0391(11) 1.2667(5)
H42 H 1.0105 1.0056 1.2653
C64 C 1.0612(4) 1.0118(11) 1.2421(5)
C65 C 1.0940(4) 1.0655(11) 1.2446(6)
H43 H 1.1131 1.0505 1.2283
C66 C 1.0989(5) 1.1404(13) 1.2705(6)
H44 H 1.1211 1.1775 1.2705
N24 N 0.6388(4) 0.9959(9) 0.5675(4)
C67 C 0.6038(4) 1.0334(10) 0.5651(5)
H45 H 0.5941 1.0723 0.5414
C68 C 0.5808(5) 1.0192(11) 0.5947(4)
H46 H 0.5560 1.0483 0.5908
C69 C 0.6517(4) 0.9427(10) 0.6016(4)
H47 H 0.6769 0.9158 0.6055
C70 C 0.6285(4) 0.9266(11) 0.6309(5)
H48 H 0.6383 0.8860 0.6539
C71 C 0.5695(4) 0.9471(8) 0.6622(4)
C72 C 0.5926(4) 0.9645(11) 0.6298(5)
Zn1_2 Zn 1.08597(8) 1.26969(18) 1.33982(8)
Zn2B Zn 0.66946(7) 1.00697(16) 0.51862(7)
Zn5B Zn 1.17038(7) 0.78878(16) 1.01843(8)
N22B N 0.6393(3) 1.3090(8) 1.0667(4)
N23_2 N 0.0736(4) 1.1648(10) 0.2964(5)
N24B N 0.1388(4) 0.4959(9) 0.5675(4)
C73 C -0.0447(7) 0.9266(19) 0.3256(7)
H49 H -0.0644 0.9610 0.3382
C74 C -0.0559(9) 0.831(2) 0.3297(9)
C75 C -0.0606(10) 0.749(2) 0.3332(12)
H50 H -0.0642 0.6859 0.3359
C76 C 0.0324(8) 1.014(3) 0.4197(8)
H51 H 0.0278 1.0629 0.4392
H52 H 0.0490 1.0388 0.4007
C77 C -0.0062(7) 0.951(2) 0.3538(9)
H53 H 0.0178 0.9395 0.3448
C78 C -0.0063(7) 0.989(3) 0.3919(9)
H54 H -0.0302 0.9993 0.4011
C79 C 0.0941(19) 0.868(4) 0.5710(10)
H55 H 0.1068 0.9284 0.5736
H56 H 0.0736 0.8700 0.5884
C80 C 0.0560(11) 0.939(3) 0.4476(9)
H57 H 0.0454 0.8807 0.4357
H58 H 0.0835 0.9430 0.4437
C81 C 0.0573(3) 0.938(3) 0.4963(9)
H59 H 0.0301 0.9479 0.5002
H60 H 0.0730 0.9905 0.5091
C82 C 0.0734(14) 0.855(3) 0.5233(12)
H61 H 0.0922 0.8249 0.5084
H62 H 0.0513 0.8131 0.5226
O1 O -0.0505(7) 0.9581(19) 0.2828(8)
H63 H -0.0603 0.9169 0.2657
C83 C 0.2749(14) 0.731(3) 0.6607(17)
H64 H 0.2531 0.7151 0.6364
H65 H 0.2905 0.7791 0.6505
C84 C 0.3012(12) 0.648(3) 0.673(2)
H66 H 0.3044 0.6360 0.7039
H67 H 0.3276 0.6612 0.6668
C85 C 0.1436(9) 0.806(4) 0.6402(10)
H68 H 0.1240 0.7841 0.6563
H69 H 0.1477 0.8711 0.6472
C86 C 0.284(2) 0.564(3) 0.6469(14)
H70 H 0.3063 0.5245 0.6431
H71 H 0.2698 0.5824 0.6179
C87 C 0.2567(14) 0.511(4) 0.670(2)
H72 H 0.2450 0.5533 0.6883
H73 H 0.2351 0.4849 0.6483
C88 C 0.1253(12) 0.799(4) 0.5917(10)
H74 H 0.1133 0.7386 0.5865
H75 H 0.1470 0.8017 0.5758
C89 C 0.2831(18) 0.457(5) 0.7473(16)
H76 H 0.3110 0.4510 0.7620
H77 H 0.2752 0.5205 0.7507
C90 C 0.1826(11) 0.758(3) 0.6580(16)
H78 H 0.1766 0.7038 0.6740
H79 H 0.1930 0.7356 0.6330
C91 C 0.2575(10) 0.768(5) 0.6980(16)
H80 H 0.2757 0.8151 0.7128
H81 H 0.2576 0.7188 0.7190
C92 C 0.2160(10) 0.809(3) 0.6879(15)
H82 H 0.2190 0.8650 0.6714
C93 C 0.2038(15) 0.843(6) 0.7282(19)
H83 H 0.2261 0.8739 0.7466
H84 H 0.1957 0.7922 0.7440
H85 H 0.1818 0.8851 0.7200
C94 C 0.2787(19) 0.436(3) 0.6987(17)
H86 H 0.3050 0.4281 0.6921
H87 H 0.2641 0.3788 0.6920
C95 C 0.2195(15) 0.284(3) 0.8162(11)
H88 H 0.2185 0.2803 0.7860
C96 C 0.235(2) 0.355(4) 0.8381(14)
H89 H 0.2358 0.3609 0.8680
C97 C 0.2578(16) 0.394(3) 0.7686(14)
H90 H 0.2314 0.3889 0.7496
H91 H 0.2698 0.3334 0.7714
C98 C 0.2534(19) 0.427(3) 0.8133(16)
H92 H 0.2365 0.4812 0.8099
H93 H 0.2796 0.4441 0.8304
C99 C 0.2185(16) 0.116(3) 0.8337(14)
C100 C 0.241(2) 0.053(4) 0.831(2)
H94 H 0.2580 0.0040 0.8284
C101 C 0.2029(12) 0.209(3) 0.8381(14)
H95 H 0.2144 0.2223 0.8691
O2 O 0.1626(13) 0.214(4) 0.838(2)
H96 H 0.1498 0.2126 0.8121
loop_
_geom_bond_atom_site_label_1
_geom_bond_atom_site_label_2
_geom_bond_site_symmetry_1
_geom_bond_site_symmetry_2
I1 Zn1 1_555 1_555
Zn1 I2 1_555 1_555
N1 Zn1 1_555 1_555
C1 N1 1_555 1_555
H1 C1 1_555 1_555
C2 C1 1_555 1_555
H2 C2 1_555 1_555
C3 C2 1_555 1_555
C4 C3 1_555 1_555
H3 C4 1_555 1_555
C5 N1 1_555 1_555
H4 C5 1_555 1_555
C6 C3 1_555 1_555
N2 C6 1_555 1_555
C7 N2 1_555 1_555
N3 C7 1_555 1_555
C8 N3 1_555 1_555
N4 C6 1_555 1_555
N5 C9 1_555 1_555
C9 H5 1_555 1_555
C10 C9 1_555 1_555
H6 C10 1_555 1_555
C11 C7 1_555 1_555
C12 C11 1_555 1_555
H7 C12 1_555 1_555
C13 N5 1_555 1_555
H8 C13 1_555 1_555
I3 Zn2 1_555 1_555
Zn2 N5 1_555 1_555
I4 Zn2 1_555 1_555
N6 C14 1_555 1_555
C14 H9 1_555 1_555
C15 C14 1_555 1_555
H10 C15 1_555 1_555
C16 C8 1_555 1_555
C17 C16 1_555 1_555
H11 C17 1_555 1_555
C18 N6 1_555 1_555
H12 C18 1_555 1_555
I5 Zn3 1_555 1_555
Zn3 N6 1_555 1_555
I6 Zn3 1_555 1_555
N7 Zn3 1_555 1_555
C19 N7 1_555 1_555
H13 C19 1_555 1_555
C20 C19 1_555 1_555
H14 C20 1_555 1_555
C21 C20 1_555 1_555
C22 C21 1_555 1_555
H15 C22 1_555 1_555
C23 N7 1_555 1_555
H16 C23 1_555 1_555
C24 C21 1_555 1_555
N8 C24 1_555 1_555
C25 N8 1_555 1_555
N9 C25 1_555 1_555
N10 C24 1_555 1_555
N11 C27 1_555 1_555
C26 C25 1_555 1_555
C27 H17 1_555 1_555
C28 C26 1_555 1_555
H18 C28 1_555 1_555
C29 C26 1_555 1_555
H19 C29 1_555 1_555
C30 N11 1_555 1_555
H20 C30 1_555 1_555
I7 Zn4 1_555 1_555
Zn4 N11 1_555 1_555
I8 Zn4 1_555 1_555
N12 Zn4 1_555 1_555
C31 N12 1_555 1_555
H21 C31 1_555 1_555
C32 C31 1_555 1_555
H22 C32 1_555 1_555
C33 C32 1_555 1_555
C34 C33 1_555 1_555
H23 C34 1_555 1_555
C35 N12 1_555 1_555
H24 C35 1_555 1_555
C36 C33 1_555 1_555
N13 C36 1_555 1_555
C37 N13 1_555 1_555
N14 C37 1_555 1_555
C38 N14 1_555 1_555
N15 C36 1_555 1_555
N16 C39 1_555 1_555
C39 H25 1_555 1_555
C40 C39 1_555 1_555
H26 C40 1_555 1_555
C41 C37 1_555 1_555
C42 C41 1_555 1_555
H27 C42 1_555 1_555
C43 N16 1_555 1_555
H28 C43 1_555 1_555
N17 C44 1_555 1_555
C44 H29 1_555 1_555
C45 C44 1_555 1_555
H30 C45 1_555 1_555
C46 C38 1_555 1_555
C47 C46 1_555 1_555
H31 C47 1_555 1_555
C48 N17 1_555 1_555
H32 C48 1_555 1_555
I9 Zn5 1_555 1_555
Zn5 N17 1_555 1_555
I10 Zn5 1_555 1_555
I11 Zn6 1_555 1_555
Zn6 N16 1_555 1_555
I12 Zn6 1_555 1_555
N18 Zn6 1_555 1_555
C49 N18 1_555 1_555
H33 C49 1_555 1_555
C50 C49 1_555 1_555
H34 C50 1_555 1_555
C51 C50 1_555 1_555
C52 C51 1_555 1_555
H35 C52 1_555 1_555
C53 N18 1_555 1_555
H36 C53 1_555 1_555
C54 C51 1_555 1_555
N19 C54 1_555 1_555
C55 N19 1_555 1_555
N20 C55 1_555 1_555
C56 N20 1_555 1_555
N21 C54 1_555 1_555
N22 C57 1_555 1_555
C57 H37 1_555 1_555
C58 C57 1_555 1_555
H38 C58 1_555 1_555
C59 C55 1_555 1_555
C60 C59 1_555 1_555
H39 C60 1_555 1_555
C61 N22 1_555 1_555
H40 C61 1_555 1_555
N23 C62 1_555 1_555
C62 H41 1_555 1_555
C63 C62 1_555 1_555
H42 C63 1_555 1_555
C64 C56 1_555 1_555
C65 C64 1_555 1_555
H43 C65 1_555 1_555
C66 N23 1_555 1_555
H44 C66 1_555 1_555
N24 C67 1_555 1_555
C67 H45 1_555 1_555
C68 C67 1_555 1_555
H46 C68 1_555 1_555
C69 N24 1_555 1_555
H47 C69 1_555 1_555
C70 C69 1_555 1_555
H48 C70 1_555 1_555
C71 N9 1_555 1_555
C72 C68 1_555 1_555
C73 H49 1_555 1_555
C74 C73 1_555 1_555
C75 C74 1_555 1_555
H50 C75 1_555 1_555
C76 H51 1_555 1_555
H52 C76 1_555 1_555
C77 C73 1_555 1_555
H53 C77 1_555 1_555
C78 C76 1_555 1_555
H54 C78 1_555 1_555
C79 H55 1_555 1_555
H56 C79 1_555 1_555
C80 C76 1_555 1_555
H57 C80 1_555 1_555
H58 C80 1_555 1_555
C81 C80 1_555 1_555
H59 C81 1_555 1_555
H60 C81 1_555 1_555
C82 C79 1_555 1_555
H61 C82 1_555 1_555
H62 C82 1_555 1_555
O1 C73 1_555 1_555
H63 O1 1_555 1_555
C83 H64 1_555 1_555
H65 C83 1_555 1_555
C84 C83 1_555 1_555
H66 C84 1_555 1_555
H67 C84 1_555 1_555
C85 H68 1_555 1_555
H69 C85 1_555 1_555
C86 C84 1_555 1_555
H70 C86 1_555 1_555
H71 C86 1_555 1_555
C87 C86 1_555 1_555
H72 C87 1_555 1_555
H73 C87 1_555 1_555
C88 C79 1_555 1_555
H74 C88 1_555 1_555
H75 C88 1_555 1_555
C89 H76 1_555 1_555
H77 C89 1_555 1_555
C90 C85 1_555 1_555
H78 C90 1_555 1_555
H79 C90 1_555 1_555
C91 C83 1_555 1_555
H80 C91 1_555 1_555
H81 C91 1_555 1_555
C92 C90 1_555 1_555
H82 C92 1_555 1_555
C93 C92 1_555 1_555
H83 C93 1_555 1_555
H84 C93 1_555 1_555
H85 C93 1_555 1_555
C94 C87 1_555 1_555
H86 C94 1_555 1_555
H87 C94 1_555 1_555
C95 H88 1_555 1_555
C96 C95 1_555 1_555
H89 C96 1_555 1_555
C97 C89 1_555 1_555
H90 C97 1_555 1_555
H91 C97 1_555 1_555
C98 C96 1_555 1_555
H92 C98 1_555 1_555
H93 C98 1_555 1_555
C99 C100 1_555 1_555
C100 H94 1_555 1_555
C101 C95 1_555 1_555
H95 C101 1_555 1_555
O2 C101 1_555 1_555
H96 O2 1_555 1_555
Zn1_2 N23 1_555 1_555
Zn2B N24 1_555 1_555
Zn5B N22 1_555 1_555
N22B Zn5 1_555 1_555
N23_2 Zn1 1_555 1_555
N24B Zn2 1_555 1_555
C4 C5 1_555 1_555
C8 N4 1_555 1_555
C10 C11 1_555 1_555
C12 C13 1_555 1_555
C15 C16 1_555 1_555
C17 C18 1_555 1_555
C22 C23 1_555 1_555
N10 C71 1_555 1_555
C27 C28 1_555 1_555
C29 C30 1_555 1_555
C34 C35 1_555 1_555
C38 N15 1_555 1_555
C40 C41 1_555 1_555
C42 C43 1_555 1_555
C45 C46 1_555 1_555
C47 C48 1_555 1_555
C52 C53 1_555 1_555
C56 N21 1_555 1_555
C58 C59 1_555 1_555
C60 C61 1_555 1_555
C63 C64 1_555 1_555
C65 C66 1_555 1_555
C70 C72 1_555 1_555
C71 C72 1_555 1_555
C77 C78 1_555 1_555
C81 C82 1_555 1_555
C85 C88 1_555 1_555
C89 C94 1_555 1_555
C91 C92 1_555 1_555
C97 C98 1_555 1_555
C99 C101 1_555 1_555

#END
