
#######################################################################
#
#                 Cambridge Crystallographic Data Centre
#                                CCDC 
#
#######################################################################
#
# If this CIF has been generated from an entry in the Cambridge 
# Structural Database, then it will include bibliographic, chemical, 
# crystal, experimental, refinement or atomic coordinate data resulting 
# from the CCDC's data processing and validation procedures.
#
#######################################################################

data_REXCUU
_chemical_formula_moiety         '(C57 H46 I6 N12 O8 Zn3)n'
_symmetry_cell_setting           monoclinic
_symmetry_space_group_name_H-M   'C 2/c'
_symmetry_Int_Tables_number      15
_space_group_name_Hall           '-C 2yc'
loop_
_symmetry_equiv_pos_site_id
_symmetry_equiv_pos_as_xyz
1 x,y,z
2 -x,y,1/2-z
3 1/2+x,1/2+y,z
4 1/2-x,1/2+y,1/2-z
5 -x,-y,-z
6 x,-y,1/2+z
7 1/2-x,1/2-y,-z
8 1/2+x,1/2-y,1/2+z
_cell_length_a                   34.562(8)
_cell_length_b                   14.950(4)
_cell_length_c                   30.348(7)
_cell_angle_alpha                90
_cell_angle_beta                 100.119(3)
_cell_angle_gamma                90
_cell_volume                     15437
loop_
_atom_site_label
_atom_site_type_symbol
_atom_site_fract_x
_atom_site_fract_y
_atom_site_fract_z
_atom_site_U_iso_or_equiv
_atom_site_thermal_displace_type
Zn1 Zn -0.12964(5) 1.09709(12) -0.05641(7) 0.0648 Uani
I1 I -0.15212(4) 1.09664(15) 0.01753(6) 0.1232 Uani
I2 I -0.10871(5) 1.23223(9) -0.09657(7) 0.1310 Uani
N1 N -0.0842(3) 1.0077(8) -0.0528(4) 0.0549 Uani
C1 C -0.0694(6) 0.9935(17) -0.0897(8) 0.1062 Uani
H1 H -0.0804 1.0245 -0.1163 0.1300 Uiso
C2 C -0.0394(7) 0.937(2) -0.0905(7) 0.1153 Uani
H2 H -0.0314 0.9241 -0.1183 0.1390 Uiso
C3 C -0.0200(4) 0.8961(9) -0.0524(4) 0.0473 Uani
C4 C -0.0365(4) 0.9063(10) -0.0146(5) 0.0531 Uani
H3 H -0.0267 0.8731 0.0117 0.0640 Uiso
C5 C -0.0674(4) 0.9647(11) -0.0150(5) 0.0564 Uani
H4 H -0.0771 0.9752 0.0119 0.0670 Uiso
C6 C 0.0142(4) 0.8354(8) -0.0528(4) 0.0391 Uani
N2 N 0.0362(3) 0.8549(7) -0.0846(3) 0.0435 Uani
C7 C 0.0645(4) 0.7964(8) -0.0861(4) 0.0402 Uani
N3 N 0.0715(3) 0.7218(7) -0.0609(3) 0.0392 Uani
C8 C 0.0480(3) 0.7116(8) -0.0310(4) 0.0397 Uani
N4 N 0.0194(3) 0.7687(7) -0.0238(3) 0.0439 Uani
N5 N 0.1380(4) 0.8449(7) -0.1813(4) 0.0544 Uani
C9 C 0.1442(8) 0.7761(15) -0.1530(9) 0.1253 Uani
H5 H 0.1657 0.7373 -0.1544 0.1500 Uiso
C10 C 0.1206(7) 0.7593(14) -0.1218(8) 0.1093 Uani
H6 H 0.1265 0.7106 -0.1016 0.1310 Uiso
C11 C 0.0895(4) 0.8115(9) -0.1198(4) 0.0454 Uani
C12 C 0.0860(7) 0.8825(14) -0.1485(9) 0.1110 Uani
H7 H 0.0643 0.9219 -0.1496 0.1350 Uiso
C13 C 0.1127(7) 0.8989(14) -0.1757(8) 0.1061 Uani
H8 H 0.1116 0.9546 -0.1909 0.1270 Uiso
N6 N 0.0674(3) 0.4795(7) 0.0505(4) 0.0426 Uani
C14 C 0.0361(4) 0.5317(9) 0.0497(5) 0.0491 Uani
H9 H 0.0173 0.5141 0.0674 0.0590 Uiso
C15 C 0.0291(4) 0.6075(10) 0.0256(5) 0.0486 Uani
H10 H 0.0070 0.6434 0.0281 0.0590 Uiso
C16 C 0.0541(4) 0.6327(9) -0.0024(5) 0.0508 Uani
C17 C 0.0859(6) 0.5733(13) -0.0047(8) 0.0997 Uani
H11 H 0.1035 0.5844 -0.0249 0.1190 Uiso
C18 C 0.0905(7) 0.5007(13) 0.0223(8) 0.1009 Uani
H12 H 0.1122 0.4623 0.0207 0.1210 Uiso
Zn2 Zn 0.08267(5) 0.37405(10) 0.09434(5) 0.0461 Uani
I3 I 0.02440(3) 0.34412(8) 0.13294(4) 0.0685 Uani
I4 I 0.12064(4) 0.26470(7) 0.05517(4) 0.0715 Uani
N7 N 0.1209(3) 0.4435(7) 0.1415(3) 0.0456 Uani
C19 C 0.1135(5) 0.5288(11) 0.1520(6) 0.0825 Uani
H13 H 0.0902 0.5554 0.1361 0.0990 Uiso
C20 C 0.1358(5) 0.5795(10) 0.1827(6) 0.0751 Uani
H14 H 0.1312 0.6419 0.1846 0.0900 Uiso
C21 C 0.1659(3) 0.5378(9) 0.2115(4) 0.0422 Uani
C22 C 0.1740(4) 0.4494(8) 0.2044(4) 0.0421 Uani
H15 H 0.1951 0.4196 0.2230 0.0510 Uiso
C23 C 0.1508(4) 0.4051(9) 0.1693(5) 0.0521 Uani
H16 H 0.1563 0.3439 0.1646 0.0620 Uiso
C24 C 0.1899(3) 0.5887(8) 0.2490(5) 0.0412 Uani
N8 N 0.1804(3) 0.6760(6) 0.2511(4) 0.0391 Uani
C25 C 0.2035(4) 0.7217(9) 0.2835(5) 0.0500 Uani
N9 N 0.2316(3) 0.6880(7) 0.3120(4) 0.0417 Uani
C26 C 0.2388(4) 0.5971(8) 0.3087(5) 0.0450 Uani
N10 N 0.2185(3) 0.5480(7) 0.2752(4) 0.0439 Uani
N11 N 0.1840(4) 1.0028(8) 0.2767(5) 0.0591 Uani
C27 C 0.1618(5) 0.9461(10) 0.2507(6) 0.0651 Uani
H17 H 0.1405 0.9696 0.2299 0.0780 Uiso
C28 C 0.1672(5) 0.8566(9) 0.2515(6) 0.0685 Uani
H18 H 0.1509 0.8193 0.2307 0.0820 Uiso
C29 C 0.1967(3) 0.8199(8) 0.2830(5) 0.0472 Uani
C30 C 0.2204(5) 0.8790(10) 0.3111(7) 0.0673 Uani
H19 H 0.2411 0.8574 0.3333 0.0810 Uiso
C31 C 0.2133(5) 0.9691(11) 0.3062(6) 0.0632 Uani
H20 H 0.2301 1.0092 0.3248 0.0760 Uiso
Zn3 Zn 0.17253(6) 1.13871(11) 0.27003(7) 0.0612 Uani
I5 I 0.12968(5) 1.16066(8) 0.19416(5) 0.0905 Uani
I6 I 0.23379(4) 1.23033(8) 0.29538(7) 0.1043 Uani
N12 N 0.3278(3) 0.4671(7) 0.3985(4) 0.0528 Uani
C32 C 0.3059(5) 0.4229(10) 0.3644(6) 0.0697 Uani
H21 H 0.3104 0.3608 0.3611 0.0840 Uiso
C33 C 0.2766(5) 0.4655(9) 0.3335(6) 0.0634 Uani
H22 H 0.2618 0.4335 0.3092 0.0760 Uiso
C34 C 0.2703(3) 0.5541(8) 0.3396(4) 0.0395 Uani
C35 C 0.2917(4) 0.5999(10) 0.3755(5) 0.0618 Uani
H23 H 0.2872 0.6616 0.3803 0.0740 Uiso
C36 C 0.3197(5) 0.5521(9) 0.4038(5) 0.0588 Uani
H24 H 0.3342 0.5825 0.4289 0.0710 Uiso
Zn1G Zn 0.37036(5) 0.40291(12) 0.44359(7) 0.0648 Uani
N5E N 0.1380(4) 1.1551(7) 0.3187(4) 0.0544 Uani
Zn3E Zn 0.17253(6) 0.86129(11) -0.22997(7) 0.0612 Uani
N12G N -0.1722(3) 1.0329(7) -0.1015(4) 0.0528 Uani
O1 O -0.0720(5) 0.6406(15) 0.2412(6) 0.0743 Uani
C37 C -0.0560(6) 0.7162(13) 0.2605(8) 0.0558 Uani
C38 C -0.0659(6) 0.7944(17) 0.2396(7) 0.0752 Uani
H25 H -0.0546 0.8476 0.2533 0.1000 Uiso
C39 C -0.0928(9) 0.8025(12) 0.1974(8) 0.0776 Uani
C40 C -0.1088(9) 0.7181(11) 0.1787(9) 0.0948 Uani
C41 C -0.1348(10) 0.7149(15) 0.1385(9) 0.1013 Uani
C42 C -0.1492(9) 0.6333(18) 0.1216(8) 0.0855 Uani
C43 C -0.1380(9) 0.5552(14) 0.1445(9) 0.0790 Uani
C44 C -0.1113(9) 0.5588(13) 0.1841(9) 0.0915 Uani
C45 C -0.0981(7) 0.6403(13) 0.2022(7) 0.0523 Uani
O2 O -0.0998(9) 0.8749(12) 0.1776(9) 0.1265 Uani
C46 C -0.0327(9) 0.7022(18) 0.3021(11) 0.0765 Uani
C47 C -0.0179(8) 0.774(2) 0.3285(9) 0.0918 Uani
H26 H -0.0269 0.8329 0.3204 0.1300 Uiso
C48 C 0.0099(8) 0.7609(16) 0.3669(9) 0.0650 Uani
C49 C 0.0233(9) 0.6766(18) 0.3811(10) 0.0858 Uani
C50 C 0.0102(10) 0.605(2) 0.3537(10) 0.0922 Uani
H27 H 0.0207 0.5465 0.3606 0.0600 Uiso
C51 C -0.0185(7) 0.618(2) 0.3160(10) 0.0625 Uani
H28 H -0.0290 0.5672 0.2991 0.1200 Uiso
O3 O -0.1487(9) 0.7913(16) 0.1162(9) 0.1012 Uani
C52 C -0.1255(15) 0.828(4) 0.0865(17) 0.1329 Uani
H29 H -0.1380 0.8828 0.0729 0.1960 Uiso
H30 H -0.1231 0.7848 0.0630 0.1960 Uiso
H31 H -0.0993 0.8427 0.1032 0.1960 Uiso
O4 O -0.1763(10) 0.616(4) 0.0839(10) 0.1686 Uani
C53 C -0.205(3) 0.683(6) 0.073(4) 0.3025 Uani
H32 H -0.2270 0.6603 0.0507 0.4540 Uiso
H33 H -0.1935 0.7352 0.0605 0.4540 Uiso
H34 H -0.2151 0.7014 0.0999 0.4540 Uiso
O5 O -0.1489(9) 0.4705(16) 0.1302(12) 0.1216 Uani
C54 C -0.1881(9) 0.440(3) 0.1247(17) 0.1028 Uani
H35 H -0.1893 0.3773 0.1148 0.1530 Uiso
H36 H -0.2047 0.4765 0.1021 0.1530 Uiso
H37 H -0.1976 0.4445 0.1532 0.1530 Uiso
O6 O -0.1064(8) 0.4776(16) 0.2053(10) 0.1055 Uani
C55 C -0.0698(10) 0.432(3) 0.2090(16) 0.1061 Uani
H38 H -0.0712 0.3755 0.2247 0.1580 Uiso
H39 H -0.0490 0.4696 0.2257 0.1580 Uiso
H40 H -0.0641 0.4206 0.1790 0.1580 Uiso
O7 O 0.0267(9) 0.8251(19) 0.3963(10) 0.1062 Uani
O8 O 0.0513(9) 0.6735(19) 0.4189(10) 0.1069 Uani
C56 C 0.0706(11) 0.590(2) 0.4301(13) 0.0801 Uani
H41 H 0.0897 0.5971 0.4579 0.1200 Uiso
H42 H 0.0842 0.5719 0.4059 0.1200 Uiso
H43 H 0.0511 0.5450 0.4343 0.1200 Uiso
C57 C 0.0151(17) 0.914(2) 0.3850(18) 0.1200 Uani
H44 H 0.0288 0.9551 0.4077 0.1810 Uiso
H45 H -0.0133 0.9202 0.3836 0.1810 Uiso
H46 H 0.0217 0.9292 0.3557 0.1810 Uiso
loop_
_atom_site_aniso_label
_atom_site_aniso_U_11
_atom_site_aniso_U_22
_atom_site_aniso_U_33
_atom_site_aniso_U_23
_atom_site_aniso_U_13
_atom_site_aniso_U_12
Zn1 0.0468(9) 0.0516(10) 0.0841(13) -0.0210(9) -0.0215(9) 0.0142(8)
I1 0.0713(8) 0.1927(19) 0.0967(10) -0.0726(12) -0.0101(7) 0.0308(10)
I2 0.1164(12) 0.0575(8) 0.1813(18) 0.0256(9) -0.0778(12) -0.0228(8)
N1 0.048(7) 0.048(7) 0.064(8) 0.006(6) -0.003(6) 0.015(5)
C1 0.097(15) 0.13(2) 0.098(15) 0.053(14) 0.035(13) 0.079(15)
C2 0.103(16) 0.18(3) 0.070(12) 0.051(15) 0.035(11) 0.078(17)
C3 0.055(8) 0.036(7) 0.044(7) 0.003(5) -0.010(6) 0.006(6)
C4 0.049(8) 0.048(8) 0.061(9) 0.005(7) 0.006(7) 0.016(6)
C5 0.043(7) 0.071(10) 0.055(8) -0.016(7) 0.008(6) 0.020(7)
C6 0.048(7) 0.035(6) 0.035(6) 0.003(5) 0.009(5) 0.010(5)
N2 0.048(6) 0.044(6) 0.039(6) 0.000(5) 0.009(5) 0.000(5)
C7 0.044(7) 0.037(6) 0.037(6) -0.001(5) 0.000(5) 0.000(5)
N3 0.043(6) 0.035(5) 0.036(5) 0.001(4) -0.003(4) 0.002(4)
C8 0.029(6) 0.032(6) 0.052(7) 0.001(5) -0.010(5) -0.005(5)
N4 0.041(6) 0.042(6) 0.042(6) 0.013(5) -0.011(5) -0.004(5)
N5 0.057(7) 0.030(6) 0.076(8) 0.009(5) 0.011(6) 0.011(5)
C9 0.16(2) 0.079(14) 0.17(2) 0.059(15) 0.12(2) 0.059(15)
C10 0.15(2) 0.082(13) 0.126(18) 0.064(13) 0.107(17) 0.056(14)
C11 0.053(8) 0.043(7) 0.039(7) 0.003(6) 0.005(6) -0.006(6)
C12 0.103(15) 0.091(15) 0.16(2) 0.087(16) 0.081(16) 0.062(13)
C13 0.138(19) 0.071(13) 0.123(18) 0.073(13) 0.061(16) 0.034(13)
N6 0.035(5) 0.046(6) 0.044(6) -0.005(5) -0.001(5) 0.005(5)
C14 0.040(7) 0.042(7) 0.065(9) 0.010(6) 0.008(6) 0.006(6)
C15 0.040(7) 0.054(8) 0.048(7) 0.013(6) -0.003(6) 0.011(6)
C16 0.048(8) 0.039(7) 0.058(8) -0.012(6) -0.011(7) 0.000(6)
C17 0.103(15) 0.082(13) 0.137(18) 0.057(13) 0.084(14) 0.051(12)
C18 0.117(16) 0.077(13) 0.127(17) 0.058(12) 0.072(15) 0.067(12)
Zn2 0.0566(9) 0.0341(8) 0.0421(8) 0.0027(6) -0.0066(7) -0.0001(7)
I3 0.0727(7) 0.0646(7) 0.0636(6) 0.0065(5) -0.0008(5) -0.0194(5)
I4 0.0993(9) 0.0489(6) 0.0616(6) -0.0020(5) 0.0014(6) 0.0234(6)
N7 0.057(7) 0.037(6) 0.039(6) 0.005(5) -0.002(5) -0.001(5)
C19 0.080(12) 0.047(9) 0.097(13) -0.010(9) -0.049(10) 0.026(8)
C20 0.081(11) 0.035(7) 0.086(12) -0.013(7) -0.050(9) 0.015(7)
C21 0.028(6) 0.044(7) 0.047(7) -0.002(6) -0.014(5) -0.002(5)
C22 0.045(7) 0.026(6) 0.047(7) -0.002(5) -0.015(6) 0.001(5)
C23 0.054(8) 0.034(7) 0.062(9) -0.014(6) -0.007(7) 0.008(6)
C24 0.031(6) 0.031(6) 0.058(8) -0.010(5) -0.002(5) 0.003(5)
N8 0.034(5) 0.026(5) 0.054(6) -0.002(4) -0.001(5) 0.001(4)
C25 0.053(8) 0.035(7) 0.061(9) -0.002(6) 0.007(7) -0.004(6)
N9 0.037(6) 0.029(5) 0.059(7) -0.006(5) 0.008(5) -0.007(4)
C26 0.036(6) 0.032(6) 0.061(8) -0.010(6) -0.008(6) 0.009(5)
N10 0.028(5) 0.036(6) 0.064(7) -0.016(5) -0.002(5) -0.009(4)
N11 0.067(8) 0.032(6) 0.080(9) -0.005(6) 0.018(7) 0.015(6)
C27 0.079(11) 0.035(8) 0.077(11) -0.014(7) 0.002(9) 0.004(7)
C28 0.064(9) 0.022(6) 0.105(13) -0.019(7) -0.025(9) 0.008(6)
C29 0.024(6) 0.037(7) 0.075(9) -0.013(6) -0.007(6) -0.004(5)
C30 0.055(9) 0.036(8) 0.105(13) -0.016(8) -0.002(9) -0.001(6)
C31 0.053(9) 0.053(9) 0.079(11) -0.019(8) -0.001(8) -0.008(7)
Zn3 0.0792(12) 0.0290(8) 0.0838(13) -0.0078(8) 0.0372(10) 0.0002(8)
I5 0.1451(13) 0.0546(7) 0.0777(8) 0.0138(6) 0.0358(8) 0.0213(7)
I6 0.0988(10) 0.0537(7) 0.1799(16) -0.0478(8) 0.0781(11) -0.0291(7)
N12 0.045 0.033 0.067 0.011 -0.027 -0.015
C32 0.063(10) 0.044(8) 0.085(11) 0.001(8) -0.034(9) 0.001(7)
C33 0.064(9) 0.028(7) 0.082(11) -0.002(7) -0.032(8) -0.004(6)
C34 0.029(6) 0.036(6) 0.051(7) -0.001(5) 0.000(5) -0.006(5)
C35 0.056(9) 0.049(8) 0.068(10) -0.002(7) -0.023(7) -0.004(7)
C36 0.066(9) 0.039(8) 0.064(9) -0.006(7) -0.009(7) -0.021(7)
Zn1G 0.0468 0.0516 0.0841 0.021 -0.0215 -0.0142
N5E 0.057 0.03 0.076 -0.009 0.011 -0.011
Zn3E 0.0792 0.029 0.0838 0.0078 0.0372 -0.0002
N12G 0.045 0.033 0.067 -0.011 -0.027 0.015
O1 0.082(13) 0.071(12) 0.070(12) 0.000(10) 0.014(10) -0.007(11)
C37 0.060(14) 0.043(13) 0.071(15) 0.014(11) 0.030(12) -0.006(11)
C38 0.068(15) 0.072(16) 0.085(17) 0.004(14) 0.012(14) 0.013(13)
C39 0.079(17) 0.051(14) 0.100(18) -0.002(14) 0.008(14) -0.003(13)
C40 0.094(19) 0.092(19) 0.099(19) -0.021(16) 0.019(15) 0.016(15)
C41 0.11(2) 0.10(2) 0.097(19) -0.018(16) 0.027(16) 0.016(16)
C42 0.076(17) 0.095(18) 0.082(17) -0.016(15) 0.004(14) 0.001(15)
C43 0.078(17) 0.086(17) 0.074(16) -0.021(14) 0.016(14) 0.011(14)
C44 0.093(18) 0.080(18) 0.104(19) 0.005(15) 0.024(16) 0.009(15)
C45 0.066(14) 0.034(11) 0.060(14) 0.019(10) 0.020(12) -0.001(11)
O2 0.137(19) 0.111(18) 0.125(18) -0.001(15) 0.005(15) 0.013(15)
C46 0.060(15) 0.075(16) 0.093(17) 0.002(14) 0.009(13) -0.015(13)
C47 0.090(18) 0.10(2) 0.085(18) -0.008(16) 0.014(15) 0.013(16)
C48 0.072(15) 0.058(14) 0.070(15) -0.011(12) 0.026(13) 0.001(12)
C49 0.081(17) 0.090(18) 0.088(18) 0.011(15) 0.019(15) -0.014(15)
C50 0.110(19) 0.078(18) 0.087(18) 0.012(15) 0.013(15) -0.019(15)
C51 0.040(12) 0.073(15) 0.072(15) 0.013(13) 0.003(11) -0.012(12)
O3 0.113(14) 0.107(14) 0.087(13) -0.010(11) 0.027(11) 0.004(11)
C52 0.13(2) 0.13(2) 0.14(2) 0.017(18) 0.027(18) -0.014(18)
O4 0.17(2) 0.16(2) 0.17(2) -0.008(13) 0.014(13) 0.001(13)
C53 0.30(7) 0.31(7) 0.30(7) 0.00(2) 0.06(2) 0.00(2)
O5 0.117(15) 0.116(15) 0.133(16) -0.005(12) 0.025(12) -0.002(12)
C54 0.10(2) 0.09(2) 0.12(2) -0.007(16) 0.024(16) 0.000(16)
O6 0.109(14) 0.101(14) 0.114(14) 0.002(11) 0.040(11) 0.002(11)
C55 0.093(19) 0.12(2) 0.11(2) -0.021(16) 0.031(16) 0.027(16)
O7 0.114(16) 0.109(17) 0.098(15) -0.018(14) 0.025(13) 0.012(14)
O8 0.112(16) 0.095(16) 0.112(16) 0.010(14) 0.015(14) 0.009(13)
C56 0.086(17) 0.072(16) 0.087(17) 0.010(14) 0.028(14) 0.017(14)
C57 0.13(2) 0.11(2) 0.12(2) -0.005(17) 0.022(17) 0.012(17)
loop_
_geom_bond_atom_site_label_1
_geom_bond_atom_site_label_2
_geom_bond_site_symmetry_1
_geom_bond_site_symmetry_2
Zn1 I1 1_555 1_555
I2 Zn1 1_555 1_555
N1 Zn1 1_555 1_555
C1 N1 1_555 1_555
H1 C1 1_555 1_555
C2 C1 1_555 1_555
H2 C2 1_555 1_555
C3 C2 1_555 1_555
C4 C3 1_555 1_555
H3 C4 1_555 1_555
C5 N1 1_555 1_555
H4 C5 1_555 1_555
C6 C3 1_555 1_555
N2 C6 1_555 1_555
C7 N2 1_555 1_555
N3 C7 1_555 1_555
C8 N3 1_555 1_555
N4 C6 1_555 1_555
N5 C9 1_555 1_555
C9 H5 1_555 1_555
C10 C9 1_555 1_555
H6 C10 1_555 1_555
C11 C7 1_555 1_555
C12 C11 1_555 1_555
H7 C12 1_555 1_555
C13 N5 1_555 1_555
H8 C13 1_555 1_555
N6 C14 1_555 1_555
C14 H9 1_555 1_555
C15 C14 1_555 1_555
H10 C15 1_555 1_555
C16 C8 1_555 1_555
C17 C16 1_555 1_555
H11 C17 1_555 1_555
C18 N6 1_555 1_555
H12 C18 1_555 1_555
Zn2 N6 1_555 1_555
I3 Zn2 1_555 1_555
I4 Zn2 1_555 1_555
N7 Zn2 1_555 1_555
C19 N7 1_555 1_555
H13 C19 1_555 1_555
C20 C19 1_555 1_555
H14 C20 1_555 1_555
C21 C20 1_555 1_555
C22 C21 1_555 1_555
H15 C22 1_555 1_555
C23 N7 1_555 1_555
H16 C23 1_555 1_555
C24 C21 1_555 1_555
N8 C24 1_555 1_555
C25 N8 1_555 1_555
N9 C25 1_555 1_555
C26 N9 1_555 1_555
N10 C24 1_555 1_555
N11 C27 1_555 1_555
C27 H17 1_555 1_555
C28 C27 1_555 1_555
H18 C28 1_555 1_555
C29 C25 1_555 1_555
C30 C29 1_555 1_555
H19 C30 1_555 1_555
C31 N11 1_555 1_555
H20 C31 1_555 1_555
Zn3 N11 1_555 1_555
I5 Zn3 1_555 1_555
I6 Zn3 1_555 1_555
N12 C32 1_555 1_555
C32 H21 1_555 1_555
C33 C32 1_555 1_555
H22 C33 1_555 1_555
C34 C26 1_555 1_555
C35 C34 1_555 1_555
H23 C35 1_555 1_555
C36 N12 1_555 1_555
H24 C36 1_555 1_555
O1 C37 1_555 1_555
C37 C38 1_555 1_555
C38 H25 1_555 1_555
C39 C38 1_555 1_555
C40 C39 1_555 1_555
C41 C40 1_555 1_555
C42 C41 1_555 1_555
C43 C42 1_555 1_555
C44 C43 1_555 1_555
C45 O1 1_555 1_555
O2 C39 1_555 1_555
C46 C37 1_555 1_555
C47 C46 1_555 1_555
H26 C47 1_555 1_555
C48 C47 1_555 1_555
C49 C48 1_555 1_555
C50 C49 1_555 1_555
H27 C50 1_555 1_555
C51 C46 1_555 1_555
H28 C51 1_555 1_555
O3 C41 1_555 1_555
C52 O3 1_555 1_555
H29 C52 1_555 1_555
H30 C52 1_555 1_555
H31 C52 1_555 1_555
O4 C42 1_555 1_555
C53 O4 1_555 1_555
H32 C53 1_555 1_555
H33 C53 1_555 1_555
H34 C53 1_555 1_555
O5 C43 1_555 1_555
C54 O5 1_555 1_555
H35 C54 1_555 1_555
H36 C54 1_555 1_555
H37 C54 1_555 1_555
O6 C44 1_555 1_555
C55 O6 1_555 1_555
H38 C55 1_555 1_555
H39 C55 1_555 1_555
H40 C55 1_555 1_555
O7 C48 1_555 1_555
O8 C49 1_555 1_555
C56 O8 1_555 1_555
H41 C56 1_555 1_555
H42 C56 1_555 1_555
H43 C56 1_555 1_555
C57 O7 1_555 1_555
H44 C57 1_555 1_555
H45 C57 1_555 1_555
H46 C57 1_555 1_555
Zn1G N12 1_555 1_555
N5E Zn3 1_555 1_555
Zn3E N5 1_555 1_555
N12G Zn1 1_555 1_555
C4 C5 1_555 1_555
C8 N4 1_555 1_555
C10 C11 1_555 1_555
C12 C13 1_555 1_555
C15 C16 1_555 1_555
C17 C18 1_555 1_555
C22 C23 1_555 1_555
C26 N10 1_555 1_555
C28 C29 1_555 1_555
C30 C31 1_555 1_555
C33 C34 1_555 1_555
C35 C36 1_555 1_555
C40 C45 1_555 1_555
C44 C45 1_555 1_555
C50 C51 1_555 1_555

#END
