
#######################################################################
#
#                 Cambridge Crystallographic Data Centre
#                                CCDC 
#
#######################################################################
#
# If this CIF has been generated from an entry in the Cambridge 
# Structural Database, then it will include bibliographic, chemical, 
# crystal, experimental, refinement or atomic coordinate data resulting 
# from the CCDC's data processing and validation procedures.
#
#######################################################################

data_REXCII
_chemical_formula_moiety         '(C56 H44 I6 N12 O7 Zn3)n'
_symmetry_cell_setting           monoclinic
_symmetry_space_group_name_H-M   'C 2/c'
_symmetry_Int_Tables_number      15
_space_group_name_Hall           '-C 2yc'
loop_
_symmetry_equiv_pos_site_id
_symmetry_equiv_pos_as_xyz
1 x,y,z
2 -x,y,1/2-z
3 1/2+x,1/2+y,z
4 1/2-x,1/2+y,1/2-z
5 -x,-y,-z
6 x,-y,1/2+z
7 1/2-x,1/2-y,-z
8 1/2+x,1/2-y,1/2+z
_cell_length_a                   34.103(6)
_cell_length_b                   14.767(3)
_cell_length_c                   30.700(6)
_cell_angle_alpha                90
_cell_angle_beta                 99.802(2)
_cell_angle_gamma                90
_cell_volume                     15234.8
loop_
_atom_site_label
_atom_site_type_symbol
_atom_site_fract_x
_atom_site_fract_y
_atom_site_fract_z
_atom_site_U_iso_or_equiv
_atom_site_thermal_displace_type
I1 I 0.39111(3) 0.25675(6) 0.40138(3) 0.0722 Uani
Zn1 Zn 0.37056(4) 0.39518(9) 0.44154(5) 0.0501 Uani
I2 I 0.34539(3) 0.39919(8) 0.51363(3) 0.0811 Uani
N1 N 0.3286(3) 0.4625(6) 0.3966(3) 0.0458 Uani
C1 C 0.3077(4) 0.4203(8) 0.3613(4) 0.0581 Uani
H1 H 0.3138 0.3590 0.3560 0.0700 Uiso
C2 C 0.2778(4) 0.4617(8) 0.3329(4) 0.0577 Uani
H2 H 0.2631 0.4290 0.3089 0.0690 Uiso
C3 C 0.2695(3) 0.5502(8) 0.3392(3) 0.0413 Uani
C4 C 0.2914(4) 0.5957(7) 0.3745(4) 0.0567 Uani
H3 H 0.2865 0.6577 0.3799 0.0680 Uiso
C5 C 0.3211(4) 0.5474(8) 0.4022(4) 0.0597 Uani
H4 H 0.3365 0.5784 0.4264 0.0720 Uiso
C6 C 0.2371(3) 0.5970(7) 0.3086(3) 0.0396 Uani
N2 N 0.2172(3) 0.5451(6) 0.2759(3) 0.0411 Uani
C7 C 0.1862(3) 0.5872(6) 0.2508(3) 0.0375 Uani
N3 N 0.1767(2) 0.6733(5) 0.2538(3) 0.0361 Uani
C8 C 0.2013(3) 0.7204(7) 0.2851(3) 0.0343 Uani
N4 N 0.2307(3) 0.6847(6) 0.3146(3) 0.0406 Uani
N5 N 0.1174(3) 0.4415(6) 0.1448(3) 0.0472 Uani
C9 C 0.1079(4) 0.5240(8) 0.1549(4) 0.0528 Uani
H5 H 0.0848 0.5505 0.1381 0.0630 Uiso
C10 C 0.1299(4) 0.5759(8) 0.1891(4) 0.0556 Uani
H6 H 0.1227 0.6365 0.1944 0.0670 Uiso
C11 C 0.1624(3) 0.5350(6) 0.2145(3) 0.0369 Uani
C12 C 0.1721(4) 0.4467(7) 0.2047(4) 0.0482 Uani
H7 H 0.1944 0.4178 0.2218 0.0580 Uiso
C13 C 0.1494(4) 0.4016(7) 0.1705(4) 0.0497 Uani
H8 H 0.1561 0.3410 0.1643 0.0600 Uiso
N6 N 0.1836(3) 1.0053(6) 0.2757(3) 0.0483 Uani
C14 C 0.2126(4) 0.9709(9) 0.3043(4) 0.0623 Uani
H9 H 0.2301 1.0112 0.3224 0.0750 Uiso
C15 C 0.2193(4) 0.8784(7) 0.3097(5) 0.0593 Uani
H10 H 0.2406 0.8566 0.3311 0.0710 Uiso
C16 C 0.1949(3) 0.8193(7) 0.2839(3) 0.0380 Uani
C17 C 0.1639(4) 0.8553(7) 0.2536(4) 0.0543 Uani
H11 H 0.1459 0.8165 0.2354 0.0650 Uiso
C18 C 0.1598(4) 0.9473(8) 0.2501(4) 0.0568 Uani
H12 H 0.1390 0.9711 0.2286 0.0680 Uiso
I3 I 0.23433(3) 1.23279(7) 0.29132(4) 0.0810 Uani
Zn2 Zn 0.17139(5) 1.14252(9) 0.26822(5) 0.0553 Uani
I4 I 0.12429(4) 1.16051(7) 0.19473(3) 0.0866 Uani
I5 I 0.11705(3) 0.25847(5) 0.06057(3) 0.0685 Uani
Zn3 Zn 0.07833(4) 0.37266(8) 0.09778(4) 0.0500 Uani
I6 I 0.01753(3) 0.34885(7) 0.13433(3) 0.0718 Uani
N7 N 0.0649(3) 0.4788(6) 0.0530(3) 0.0459 Uani
C19 C 0.0911(4) 0.4997(9) 0.0271(5) 0.0695 Uani
H13 H 0.1135 0.4615 0.0273 0.0840 Uiso
C20 C 0.0869(4) 0.5747(9) -0.0002(5) 0.0671 Uani
H14 H 0.1063 0.5881 -0.0179 0.0800 Uiso
C21 C 0.0547(3) 0.6287(7) -0.0013(4) 0.0402 Uani
C22 C 0.0279(4) 0.6089(8) 0.0256(4) 0.0478 Uani
H15 H 0.0057 0.6474 0.0265 0.0580 Uiso
C23 C 0.0337(3) 0.5318(7) 0.0516(4) 0.0448 Uani
H16 H 0.0142 0.5165 0.0692 0.0540 Uiso
C24 C 0.0497(3) 0.7119(7) -0.0291(3) 0.0389 Uani
N8 N 0.0742(3) 0.7219(6) -0.0582(3) 0.0408 Uani
C25 C 0.0684(3) 0.7956(7) -0.0833(3) 0.0391 Uani
N9 N 0.0399(3) 0.8571(6) -0.0811(3) 0.0414 Uani
C26 C 0.0168(3) 0.8387(7) -0.0516(3) 0.0404 Uani
N10 N 0.0205(3) 0.7693(6) -0.0240(3) 0.0412 Uani
N11 N -0.0816(3) 1.0157(6) -0.0539(3) 0.0504 Uani
C27 C 0.1190(4) 0.9056(9) -0.1672(5) 0.0643 Uani
H17 H 0.1201 0.9638 -0.1801 0.0770 Uiso
C28 C 0.0961(4) 0.8950(9) -0.1353(5) 0.0632 Uani
H18 H 0.0817 0.9447 -0.1262 0.0760 Uiso
C29 C 0.0941(3) 0.8108(6) -0.1163(4) 0.0430 Uani
C30 C 0.1165(5) 0.7448(9) -0.1291(5) 0.0734 Uani
H19 H 0.1170 0.6869 -0.1156 0.0880 Uiso
C31 C 0.1387(5) 0.7597(10) -0.1614(6) 0.0808 Uani
H20 H 0.1538 0.7108 -0.1700 0.0970 Uiso
N12 N 0.1402(3) 0.8387(6) -0.1813(3) 0.0500 Uani
C32 C -0.0679(3) 0.9698(7) -0.0160(4) 0.0452 Uani
H21 H -0.0801 0.9772 0.0093 0.0540 Uiso
C33 C -0.0356(3) 0.9118(7) -0.0151(3) 0.0389 Uani
H22 H -0.0260 0.8786 0.0110 0.0470 Uiso
C34 C -0.0177(3) 0.9021(7) -0.0505(4) 0.0402 Uani
C35 C -0.0332(4) 0.9484(10) -0.0894(4) 0.0687 Uani
H23 H -0.0223 0.9398 -0.1156 0.0820 Uiso
C36 C -0.0641(5) 1.0057(11) -0.0891(5) 0.0746 Uani
H24 H -0.0735 1.0401 -0.1149 0.0900 Uiso
Zn1G Zn -0.12944(4) 1.10482(9) -0.05846(5) 0.0501 Uani
Zn2E Zn 0.17139(5) 0.85748(9) -0.23178(5) 0.0553 Uani
N11G N 0.4184(3) 0.4843(6) 0.4461(3) 0.0504 Uani
N12E N 0.1402(3) 1.1613(6) 0.3187(3) 0.0500 Uani
O1 O 0.0729(4) 0.6534(10) 0.2627(4) 0.1056 Uani
C37 C 0.0965(6) 0.6523(10) 0.3022(5) 0.1079 Uani
O2 O 0.0963(6) 0.8876(11) 0.3331(6) 0.1480 Uani
C38 C 0.1345(6) 0.5600(10) 0.3589(6) 0.1196 Uani
C39 C 0.0554(6) 0.7286(16) 0.2446(6) 0.1066 Uani
C40 C 0.0892(7) 0.8124(9) 0.3111(7) 0.1178 Uani
C41 C 0.1309(5) 0.7220(12) 0.3696(4) 0.1208 Uani
C42 C 0.1065(5) 0.7296(10) 0.3284(5) 0.1158 Uani
C43 C 0.0641(6) 0.8106(13) 0.2675(7) 0.1134 Uani
H25 H 0.0536 0.8657 0.2544 0.1360 Uiso
C44 C 0.1118(6) 0.5683(8) 0.3178(6) 0.1159 Uani
C45 C 0.1457(6) 0.6376(13) 0.3837(6) 0.1263 Uani
C46 C 0.0158(5) 0.6309(13) 0.1866(6) 0.1244 Uani
H26 H 0.0221 0.5765 0.2027 0.1490 Uiso
C47 C 0.0316(6) 0.7134(14) 0.2039(6) 0.1240 Uani
C48 C 0.0229(6) 0.7914(13) 0.1792(6) 0.1289 Uani
H27 H 0.0355 0.8467 0.1893 0.1540 Uiso
C49 C -0.0192(6) 0.7078(11) 0.1228(6) 0.1296 Uani
C50 C -0.0096(6) 0.6285(12) 0.1454(6) 0.1294 Uani
H28 H -0.0200 0.5724 0.1334 0.1550 Uiso
C51 C -0.0039(6) 0.7901(12) 0.1398(6) 0.1314 Uani
H29 H -0.0117 0.8449 0.1246 0.1580 Uiso
O3 O 0.1072(6) 0.4887(14) 0.2953(7) 0.1578 Uani
O4 O 0.1486(6) 0.4775(13) 0.3798(7) 0.1698 Uani
O5 O 0.1640(10) 0.621(2) 0.4223(11) 0.2281 Uani
O6 O 0.1324(9) 0.806(2) 0.3997(9) 0.2734 Uani
O7 O -0.0436(7) 0.7088(15) 0.0823(6) 0.2066 Uani
C52 C 0.1883(7) 0.451(2) 0.3815(10) 0.1570 Uani
H30 H 0.1940 0.3983 0.4010 0.2350 Uiso
H31 H 0.2060 0.5010 0.3930 0.2350 Uiso
H32 H 0.1927 0.4351 0.3518 0.2350 Uiso
C53 C 0.0692(7) 0.450(2) 0.2931(11) 0.1598 Uani
H33 H 0.0665 0.3982 0.2731 0.2400 Uiso
H34 H 0.0489 0.4956 0.2820 0.2400 Uiso
H35 H 0.0656 0.4305 0.3227 0.2400 Uiso
C54 C -0.0666(11) 0.634(2) 0.0659(13) 0.2129 Uani
H36 H -0.0808 0.6475 0.0361 0.3190 Uiso
H37 H -0.0859 0.6205 0.0853 0.3190 Uiso
H38 H -0.0492 0.5814 0.0647 0.3190 Uiso
C55 C 0.1728(10) 0.813(4) 0.3985(16) 0.2680 Uani
H39 H 0.1849 0.8578 0.4203 0.4020 Uiso
H40 H 0.1766 0.8320 0.3689 0.4020 Uiso
H41 H 0.1855 0.7540 0.4054 0.4020 Uiso
C56 C 0.2019(11) 0.638(3) 0.4460(14) 0.2474 Uani
H42 H 0.2115 0.5846 0.4633 0.3710 Uiso
H43 H 0.2008 0.6898 0.4659 0.3710 Uiso
H44 H 0.2201 0.6524 0.4254 0.3710 Uiso
loop_
_atom_site_aniso_label
_atom_site_aniso_U_11
_atom_site_aniso_U_22
_atom_site_aniso_U_33
_atom_site_aniso_U_23
_atom_site_aniso_U_13
_atom_site_aniso_U_12
I1 0.0822(7) 0.0420(5) 0.0817(6) 0.0050(4) -0.0168(5) 0.0072(4)
Zn1 0.0473(8) 0.0418(7) 0.0526(8) 0.0097(6) -0.0161(6) -0.0082(6)
I2 0.0671(6) 0.1036(8) 0.0680(6) 0.0223(6) -0.0020(5) -0.0093(6)
N1 0.044(5) 0.034(5) 0.052(5) 0.003(4) -0.013(4) -0.008(4)
C1 0.056(7) 0.036(6) 0.070(8) -0.005(6) -0.024(6) 0.001(5)
C2 0.071(8) 0.036(6) 0.053(7) -0.007(5) -0.027(6) 0.003(6)
C3 0.036(6) 0.048(6) 0.033(5) 0.004(5) -0.014(4) -0.007(5)
C4 0.072(8) 0.025(5) 0.061(7) -0.003(5) -0.023(6) -0.001(5)
C5 0.057(7) 0.048(7) 0.061(8) 0.000(6) -0.027(6) -0.015(6)
C6 0.055(7) 0.023(5) 0.037(5) -0.002(4) -0.003(5) -0.006(4)
N2 0.052(5) 0.027(4) 0.038(5) -0.006(4) -0.010(4) 0.002(4)
C7 0.036(5) 0.026(5) 0.047(6) 0.001(4) -0.003(5) -0.002(4)
N3 0.038(5) 0.027(4) 0.039(5) -0.008(4) -0.006(4) -0.006(4)
C8 0.035(5) 0.029(5) 0.037(5) -0.004(4) 0.001(4) -0.001(4)
N4 0.044(5) 0.040(5) 0.035(5) -0.005(4) -0.001(4) -0.007(4)
N5 0.061(6) 0.030(5) 0.041(5) 0.004(4) -0.019(4) -0.004(4)
C9 0.060(7) 0.039(6) 0.046(6) -0.005(5) -0.029(6) 0.008(5)
C10 0.070(8) 0.033(6) 0.050(7) -0.009(5) -0.029(6) 0.006(5)
C11 0.044(6) 0.019(5) 0.043(6) -0.001(4) -0.006(5) -0.002(4)
C12 0.060(7) 0.026(5) 0.048(6) -0.002(5) -0.021(5) 0.001(5)
C13 0.061(7) 0.030(5) 0.049(7) -0.001(5) -0.017(6) -0.007(5)
N6 0.061(6) 0.020(4) 0.065(6) -0.009(4) 0.014(5) -0.001(4)
C14 0.067(9) 0.051(7) 0.065(8) -0.015(6) 0.000(7) 0.002(6)
C15 0.059(7) 0.026(6) 0.081(9) -0.013(6) -0.022(7) 0.004(5)
C16 0.039(6) 0.033(5) 0.042(6) -0.006(4) 0.007(5) -0.003(4)
C17 0.056(7) 0.033(6) 0.065(8) -0.012(5) -0.015(6) 0.003(5)
C18 0.064(8) 0.031(6) 0.069(8) -0.003(6) -0.007(6) 0.002(5)
I3 0.0936(8) 0.0503(5) 0.1091(8) -0.0240(5) 0.0458(6) -0.0259(5)
Zn2 0.0806(10) 0.0279(7) 0.0606(9) -0.0031(6) 0.0210(8) -0.0014(6)
I4 0.1352(10) 0.0550(6) 0.0640(6) 0.0143(5) 0.0014(6) 0.0059(6)
I5 0.1051(7) 0.0300(4) 0.0598(5) -0.0008(3) -0.0160(5) 0.0029(4)
Zn3 0.0734(9) 0.0265(6) 0.0388(7) 0.0058(5) -0.0231(6) -0.0099(6)
I6 0.0877(7) 0.0633(6) 0.0566(5) 0.0077(4) -0.0102(5) -0.0273(5)
N7 0.060(6) 0.033(5) 0.037(5) 0.007(4) -0.014(4) -0.009(5)
C19 0.073(9) 0.045(7) 0.086(10) 0.030(7) 0.001(8) 0.020(7)
C20 0.067(9) 0.060(8) 0.077(9) 0.026(7) 0.020(7) 0.015(7)
C21 0.040(6) 0.033(5) 0.043(6) 0.006(5) -0.006(5) -0.002(5)
C22 0.049(7) 0.043(6) 0.047(6) 0.011(5) -0.004(5) -0.001(5)
C23 0.052(7) 0.040(6) 0.039(6) 0.014(5) -0.002(5) -0.009(5)
C24 0.034(6) 0.035(6) 0.043(6) 0.007(5) -0.007(5) -0.001(5)
N8 0.046(5) 0.026(4) 0.045(5) 0.008(4) -0.008(4) 0.000(4)
C25 0.043(6) 0.030(5) 0.042(6) 0.002(4) 0.001(5) -0.007(5)
N9 0.045(5) 0.033(5) 0.045(5) 0.007(4) 0.004(4) -0.001(4)
C26 0.043(6) 0.031(5) 0.042(6) 0.005(5) -0.008(5) -0.003(4)
N10 0.047(5) 0.037(5) 0.034(5) 0.006(4) -0.009(4) -0.006(4)
N11 0.054 0.045 0.043 0.004 -0.018 0.005
C27 0.079(9) 0.041(7) 0.076(9) 0.025(6) 0.022(8) 0.016(6)
C28 0.069(9) 0.041(7) 0.087(10) 0.013(7) 0.034(8) 0.005(6)
C29 0.057(7) 0.019(5) 0.049(6) 0.003(4) -0.002(5) 0.005(5)
C30 0.110(12) 0.038(7) 0.084(10) 0.029(7) 0.050(9) 0.011(7)
C31 0.104(12) 0.052(8) 0.099(12) 0.008(8) 0.053(10) 0.026(8)
N12 0.066 0.028 0.057 0.006 0.013 0.004
C32 0.047(6) 0.035(6) 0.048(6) -0.003(5) -0.008(5) -0.007(5)
C33 0.049(6) 0.033(5) 0.032(5) 0.003(4) -0.001(5) -0.002(5)
C34 0.045(6) 0.026(5) 0.044(6) 0.007(4) -0.008(5) -0.001(4)
C35 0.083(10) 0.078(10) 0.044(7) 0.019(7) 0.008(6) 0.038(8)
C36 0.089(10) 0.086(11) 0.048(8) 0.015(7) 0.009(7) 0.048(9)
Zn1G 0.0473 0.0418 0.0526 -0.0097 -0.0161 0.0082
Zn2E 0.0806 0.0279 0.0606 0.0031 0.021 0.0014
N11G 0.054 0.045 0.043 -0.004 -0.018 -0.005
N12E 0.066 0.028 0.057 -0.006 0.013 -0.004
O1 0.106(5) 0.099(5) 0.119(5) -0.009(5) 0.040(4) -0.007(4)
C37 0.112(5) 0.101(5) 0.119(5) -0.003(4) 0.043(4) -0.007(4)
O2 0.171(8) 0.129(8) 0.147(8) -0.010(6) 0.036(6) -0.017(6)
C38 0.123(6) 0.113(6) 0.128(6) -0.001(5) 0.036(5) -0.004(5)
C39 0.108(6) 0.101(6) 0.118(6) -0.005(5) 0.040(5) -0.007(5)
C40 0.127(6) 0.108(6) 0.124(6) -0.003(5) 0.037(5) -0.011(5)
C41 0.127(6) 0.113(6) 0.127(6) -0.001(5) 0.035(5) -0.005(5)
C42 0.122(5) 0.110(5) 0.121(5) -0.002(4) 0.037(4) -0.008(4)
C43 0.119(6) 0.105(6) 0.121(6) -0.004(5) 0.034(5) -0.010(5)
C44 0.117(6) 0.111(6) 0.125(6) -0.005(5) 0.036(5) -0.004(5)
C45 0.131(6) 0.121(6) 0.130(6) 0.000(5) 0.031(5) -0.004(5)
C46 0.121(6) 0.129(6) 0.129(6) -0.006(5) 0.038(5) -0.003(5)
C47 0.120(6) 0.130(6) 0.128(6) -0.006(5) 0.038(5) -0.001(5)
C48 0.125(6) 0.133(6) 0.135(6) -0.006(5) 0.040(5) -0.003(5)
C49 0.125(6) 0.137(7) 0.133(6) -0.006(5) 0.040(5) 0.000(5)
C50 0.125(6) 0.137(6) 0.132(6) -0.012(5) 0.038(5) -0.003(5)
C51 0.128(6) 0.136(6) 0.136(6) -0.008(5) 0.039(5) -0.002(5)
O3 0.155(9) 0.142(8) 0.179(9) -0.021(7) 0.036(7) -0.001(6)
O4 0.170(9) 0.161(9) 0.182(9) 0.001(7) 0.040(7) -0.004(7)
O5 0.226(13) 0.225(12) 0.231(12) 0.000(7) 0.032(7) -0.001(7)
O6 0.274(15) 0.274(15) 0.272(14) 0.001(7) 0.046(7) -0.003(7)
O7 0.198(11) 0.220(11) 0.209(11) -0.025(7) 0.055(7) -0.005(7)
C52 0.153(10) 0.153(10) 0.166(10) -0.002(7) 0.030(7) -0.005(7)
C53 0.155(10) 0.152(10) 0.173(10) -0.005(7) 0.030(7) -0.006(7)
C54 0.213(13) 0.216(13) 0.212(13) -0.009(7) 0.043(7) 0.001(7)
C55 0.267(16) 0.272(16) 0.265(16) -0.004(7) 0.045(8) -0.001(7)
C56 0.248(14) 0.247(14) 0.246(14) 0.000(7) 0.039(8) 0.005(7)
loop_
_geom_bond_atom_site_label_1
_geom_bond_atom_site_label_2
_geom_bond_site_symmetry_1
_geom_bond_site_symmetry_2
I1 Zn1 1_555 1_555
Zn1 I2 1_555 1_555
N1 Zn1 1_555 1_555
C1 N1 1_555 1_555
H1 C1 1_555 1_555
C2 C1 1_555 1_555
H2 C2 1_555 1_555
C3 C2 1_555 1_555
C4 C3 1_555 1_555
H3 C4 1_555 1_555
C5 N1 1_555 1_555
H4 C5 1_555 1_555
C6 C3 1_555 1_555
N2 C6 1_555 1_555
C7 N2 1_555 1_555
N3 C7 1_555 1_555
C8 N3 1_555 1_555
N4 C6 1_555 1_555
N5 C9 1_555 1_555
C9 H5 1_555 1_555
C10 C9 1_555 1_555
H6 C10 1_555 1_555
C11 C7 1_555 1_555
C12 C11 1_555 1_555
H7 C12 1_555 1_555
C13 N5 1_555 1_555
H8 C13 1_555 1_555
N6 C14 1_555 1_555
C14 H9 1_555 1_555
C15 C14 1_555 1_555
H10 C15 1_555 1_555
C16 C8 1_555 1_555
C17 C16 1_555 1_555
H11 C17 1_555 1_555
C18 N6 1_555 1_555
H12 C18 1_555 1_555
I3 Zn2 1_555 1_555
Zn2 N6 1_555 1_555
I4 Zn2 1_555 1_555
I5 Zn3 1_555 1_555
Zn3 N5 1_555 1_555
I6 Zn3 1_555 1_555
N7 Zn3 1_555 1_555
C19 N7 1_555 1_555
H13 C19 1_555 1_555
C20 C19 1_555 1_555
H14 C20 1_555 1_555
C21 C20 1_555 1_555
C22 C21 1_555 1_555
H15 C22 1_555 1_555
C23 N7 1_555 1_555
H16 C23 1_555 1_555
C24 C21 1_555 1_555
N8 C24 1_555 1_555
C25 N8 1_555 1_555
N9 C25 1_555 1_555
C26 N9 1_555 1_555
N10 C24 1_555 1_555
N11 C32 1_555 1_555
C27 H17 1_555 1_555
C28 C27 1_555 1_555
H18 C28 1_555 1_555
C29 C25 1_555 1_555
C30 C29 1_555 1_555
H19 C30 1_555 1_555
C31 C30 1_555 1_555
H20 C31 1_555 1_555
N12 C27 1_555 1_555
C32 H21 1_555 1_555
C33 C32 1_555 1_555
H22 C33 1_555 1_555
C34 C26 1_555 1_555
C35 C34 1_555 1_555
H23 C35 1_555 1_555
C36 N11 1_555 1_555
H24 C36 1_555 1_555
O1 C37 1_555 1_555
C37 C42 1_555 1_555
O2 C40 1_555 1_555
C38 C44 1_555 1_555
C39 O1 1_555 1_555
C40 C42 1_555 1_555
C41 C42 1_555 1_555
C43 C39 1_555 1_555
H25 C43 1_555 1_555
C44 C37 1_555 1_555
C45 C38 1_555 1_555
C46 H26 1_555 1_555
C47 C39 1_555 1_555
C48 C47 1_555 1_555
H27 C48 1_555 1_555
C49 C50 1_555 1_555
C50 C46 1_555 1_555
H28 C50 1_555 1_555
C51 C48 1_555 1_555
H29 C51 1_555 1_555
O3 C44 1_555 1_555
O4 C38 1_555 1_555
O5 C45 1_555 1_555
O6 C41 1_555 1_555
O7 C49 1_555 1_555
C52 O4 1_555 1_555
H30 C52 1_555 1_555
H31 C52 1_555 1_555
H32 C52 1_555 1_555
C53 O3 1_555 1_555
H33 C53 1_555 1_555
H34 C53 1_555 1_555
H35 C53 1_555 1_555
C54 O7 1_555 1_555
H36 C54 1_555 1_555
H37 C54 1_555 1_555
H38 C54 1_555 1_555
C55 O6 1_555 1_555
H39 C55 1_555 1_555
H40 C55 1_555 1_555
H41 C55 1_555 1_555
C56 O5 1_555 1_555
H42 C56 1_555 1_555
H43 C56 1_555 1_555
H44 C56 1_555 1_555
Zn1G N11 1_555 1_555
Zn2E N12 1_555 1_555
N11G Zn1 1_555 1_555
N12E Zn2 1_555 1_555
C4 C5 1_555 1_555
C8 N4 1_555 1_555
C10 C11 1_555 1_555
C12 C13 1_555 1_555
C15 C16 1_555 1_555
C17 C18 1_555 1_555
C22 C23 1_555 1_555
C26 N10 1_555 1_555
C28 C29 1_555 1_555
C31 N12 1_555 1_555
C33 C34 1_555 1_555
C35 C36 1_555 1_555
C40 C43 1_555 1_555
C41 C45 1_555 1_555
C46 C47 1_555 1_555
C49 C51 1_555 1_555

#END
