
#######################################################################
#
#                 Cambridge Crystallographic Data Centre
#                                CCDC 
#
#######################################################################
#
# If this CIF has been generated from an entry in the Cambridge 
# Structural Database, then it will include bibliographic, chemical, 
# crystal, experimental, refinement or atomic coordinate data resulting 
# from the CCDC's data processing and validation procedures.
#
#######################################################################

data_REXFEH
_chemical_formula_moiety         '(C50 H34 I6 N14 O6 Zn3)n'
_symmetry_cell_setting           monoclinic
_symmetry_space_group_name_H-M   'C 2/c'
_symmetry_Int_Tables_number      15
_space_group_name_Hall           '-C 2yc'
loop_
_symmetry_equiv_pos_site_id
_symmetry_equiv_pos_as_xyz
1 x,y,z
2 -x,y,1/2-z
3 1/2+x,1/2+y,z
4 1/2-x,1/2+y,1/2-z
5 -x,-y,-z
6 x,-y,1/2+z
7 1/2-x,1/2-y,-z
8 1/2+x,1/2-y,1/2+z
_cell_length_a                   35.602(11)
_cell_length_b                   14.879(5)
_cell_length_c                   30.538(10)
_cell_angle_alpha                90
_cell_angle_beta                 103.153(4)
_cell_angle_gamma                90
_cell_volume                     15752.3
loop_
_atom_site_label
_atom_site_type_symbol
_atom_site_fract_x
_atom_site_fract_y
_atom_site_fract_z
_atom_site_U_iso_or_equiv
_atom_site_thermal_displace_type
Zn1 Zn 0.58502(5) 0.12687(11) 0.58828(6) 0.0588 Uani
I1 I 0.61502(5) 0.24472(8) 0.54887(5) 0.0915 Uani
I2 I 0.53027(4) 0.14633(9) 0.62771(4) 0.0840 Uani
N1 N 0.5709(4) 0.0186(8) 0.5434(4) 0.0512 Uani
C1 C 0.5951(5) -0.0037(11) 0.5175(6) 0.0652 Uani
H1 H 0.6174 0.0324 0.5192 0.0780 Uiso
C2 C 0.5896(4) -0.0749(10) 0.4887(6) 0.0612 Uani
H2 H 0.6062 -0.0856 0.4689 0.0740 Uiso
C3 C 0.5590(3) -0.1307(8) 0.4897(4) 0.0403 Uani
C4 C 0.5344(4) -0.1097(10) 0.5160(4) 0.0465 Uani
H3 H 0.5128 -0.1469 0.5164 0.0560 Uiso
C5 C 0.5411(4) -0.0345(9) 0.5420(5) 0.0460 Uani
H4 H 0.5234 -0.0196 0.5599 0.0550 Uiso
C6 C 0.5518(4) -0.2117(8) 0.4587(4) 0.0505 Uani
N2 N 0.5730(3) -0.2182(6) 0.4284(3) 0.0431 Uani
C7 C 0.5652(4) -0.2912(8) 0.4023(4) 0.0473 Uani
N3 N 0.5379(3) -0.3518(7) 0.4039(4) 0.0469 Uani
C8 C 0.5192(3) -0.3376(8) 0.4365(3) 0.0369 Uani
N4 N 0.5261(3) -0.2706(6) 0.4665(4) 0.0456 Uani
N5 N 0.6379(3) -0.3440(7) 0.3133(4) 0.0506 Uani
C9 C 0.6126(5) -0.4046(10) 0.3197(6) 0.0742 Uani
H5 H 0.6109 -0.4603 0.3041 0.0890 Uiso
C10 C 0.5886(5) -0.3889(13) 0.3484(6) 0.0740 Uani
H6 H 0.5708 -0.4343 0.3521 0.0890 Uiso
C11 C 0.5893(4) -0.3125(11) 0.3712(5) 0.0524 Uani
C12 C 0.6146(6) -0.2458(11) 0.3623(8) 0.0825 Uani
H7 H 0.6147 -0.1878 0.3753 0.0990 Uiso
C13 C 0.6390(6) -0.2649(14) 0.3349(9) 0.0934 Uani
H8 H 0.6573 -0.2209 0.3309 0.1120 Uiso
N6 N 0.4254(3) -0.5127(7) 0.4426(4) 0.0504 Uani
C14 C 0.4427(4) -0.4613(8) 0.4773(4) 0.0480 Uani
H9 H 0.4336 -0.4653 0.5042 0.0580 Uiso
C15 C 0.4725(3) -0.4037(9) 0.4771(4) 0.0472 Uani
H10 H 0.4829 -0.3681 0.5028 0.0570 Uiso
C16 C 0.4873(4) -0.3974(10) 0.4396(4) 0.0428 Uani
C17 C 0.4693(5) -0.4494(13) 0.4016(6) 0.0802 Uani
H11 H 0.4771 -0.4443 0.3739 0.0960 Uiso
C18 C 0.4404(5) -0.5067(14) 0.4060(6) 0.0802 Uani
H12 H 0.4301 -0.5452 0.3814 0.0960 Uiso
Zn2 Zn 0.38024(4) -0.59530(11) 0.44225(6) 0.0488 Uani
I3 I 0.39446(3) -0.74104(7) 0.40552(4) 0.0724 Uani
I4 I 0.36454(3) -0.58364(9) 0.51859(4) 0.0696 Uani
N7 N 0.3359(3) -0.5355(8) 0.3973(4) 0.0498 Uani
C19 C 0.3147(4) -0.5784(8) 0.3605(5) 0.0528 Uani
H13 H 0.3211 -0.6384 0.3545 0.0630 Uiso
C20 C 0.2841(3) -0.5368(7) 0.3317(5) 0.0522 Uani
H14 H 0.2695 -0.5691 0.3067 0.0620 Uiso
C21 C 0.2745(3) -0.4490(7) 0.3387(4) 0.0409 Uani
C22 C 0.2959(5) -0.4033(9) 0.3754(5) 0.0681 Uani
H15 H 0.2909 -0.3418 0.3802 0.0820 Uiso
C23 C 0.3257(4) -0.4508(9) 0.4058(5) 0.0536 Uani
H16 H 0.3388 -0.4221 0.4327 0.0640 Uiso
C24 C 0.2427(4) -0.4058(8) 0.3072(5) 0.0416 Uani
N8 N 0.2232(3) -0.4563(7) 0.2730(3) 0.0378 Uani
C25 C 0.1935(4) -0.4169(9) 0.2464(5) 0.0470 Uani
N9 N 0.1840(3) -0.3301(7) 0.2474(4) 0.0444 Uani
C26 C 0.2078(4) -0.2830(8) 0.2821(4) 0.0347 Uani
N10 N 0.2362(3) -0.3158(6) 0.3129(4) 0.0391 Uani
N11 N 0.1264(4) -0.5624(9) 0.1372(4) 0.0591 Uani
C27 C 0.1199(7) -0.4729(13) 0.1429(8) 0.1258 Uani
H17 H 0.0999 -0.4436 0.1218 0.1510 Uiso
C28 C 0.1418(6) -0.4228(10) 0.1790(7) 0.1183 Uani
H18 H 0.1369 -0.3609 0.1828 0.1420 Uiso
C29 C 0.1705(4) -0.4674(7) 0.2081(4) 0.0530 Uani
C30 C 0.1775(4) -0.5566(6) 0.2008(4) 0.0411 Uani
H19 H 0.1977 -0.5880 0.2206 0.0500 Uiso
C31 C 0.1542(4) -0.6003(9) 0.1638(5) 0.0489 Uani
H20 H 0.1597 -0.6613 0.1584 0.0590 Uiso
N12 N 0.1845(3) -0.0017(7) 0.2765(4) 0.0483 Uani
C32 C 0.2160(4) -0.0352(9) 0.3054(5) 0.0492 Uani
H21 H 0.2341 0.0049 0.3230 0.0590 Uiso
C33 C 0.2222(4) -0.1269(8) 0.3096(4) 0.0468 Uani
H22 H 0.2430 -0.1490 0.3322 0.0560 Uiso
C34 C 0.1988(3) -0.1870(7) 0.2815(4) 0.0349 Uani
C35 C 0.1678(4) -0.1500(9) 0.2521(5) 0.0602 Uani
H23 H 0.1507 -0.1881 0.2318 0.0720 Uiso
C36 C 0.1608(4) -0.0595(10) 0.2512(5) 0.0528 Uani
H24 H 0.1380 -0.0373 0.2316 0.0630 Uiso
Zn3 Zn 0.17270(5) 0.13454(10) 0.26847(6) 0.0490 Uani
I5 I 0.23324(3) 0.22745(7) 0.29751(4) 0.0611 Uani
I6 I 0.12939(4) 0.15513(7) 0.19041(4) 0.0674 Uani
Zn1G Zn 0.08502(5) -0.62687(11) 0.08828(6) 0.0588 Uani
N5B N 0.1379(3) 0.1560(7) 0.3133(4) 0.0506 Uani
N11G N 0.6264(4) 0.0624(9) 0.6372(4) 0.0591 Uani
Zn3B Zn 0.67270(5) -0.36546(10) 0.26847(6) 0.0490 Uani
O1 O 0.2212(10) -0.5224(17) 0.5999(11) 0.1096 Uani
O2 O 0.2747(9) -0.974(2) 0.5293(13) 0.1331 Uani
C37 C 0.2133(6) -0.7559(14) 0.5632(11) 0.0676 Uani
H25 H 0.1866 -0.7600 0.5630 0.0810 Uiso
C38 C 0.2111(8) -0.5962(14) 0.5856(9) 0.0922 Uani
H26 H 0.1843 -0.6074 0.5827 0.1110 Uiso
C39 C 0.2904(6) -0.7428(16) 0.5602(11) 0.0698 Uani
H27 H 0.3167 -0.7381 0.5587 0.0840 Uiso
C40 C 0.2717(5) -0.8251(14) 0.5507(10) 0.0706 Uani
O3 O 0.3246(7) -0.909(3) 0.5397(14) 0.1313 Uani
C41 C 0.2327(6) -0.6745(14) 0.5716(9) 0.0832 Uani
C42 C 0.2717(6) -0.6669(15) 0.5720(9) 0.1056 Uani
H28 H 0.2852 -0.6121 0.5799 0.1240 Uiso
C43 C 0.2337(5) -0.8309(14) 0.5550(11) 0.0714 Uani
H29 H 0.2214 -0.8879 0.5524 0.0860 Uiso
N13 N 0.2910(8) -0.9041(16) 0.5397(14) 0.0961 Uani
O4 O 0.2678(10) -0.206(2) 0.4138(10) 0.1085 Uani
C44 C 0.3000(10) -0.376(2) 0.5293(9) 0.0807 Uani
H30 H 0.2923 -0.4377 0.5286 0.0970 Uiso
C45 C 0.2886(12) -0.327(2) 0.4901(9) 0.1186 Uani
H31 H 0.2750 -0.3526 0.4626 0.1420 Uiso
C46 C 0.3219(10) -0.3432(18) 0.5696(8) 0.0819 Uani
C47 C 0.2858(10) -0.182(2) 0.4514(9) 0.0760 Uani
H32 H 0.2926 -0.1201 0.4538 0.0950 Uiso
O5 O 0.3230(11) -0.471(3) 0.6085(10) 0.1392 Uani
C48 C 0.2985(12) -0.236(2) 0.4939(9) 0.1200 Uani
C49 C 0.3285(11) -0.2511(18) 0.5704(10) 0.0786 Uani
H33 H 0.3401 -0.2244 0.5985 0.0940 Uiso
C50 C 0.3194(12) -0.195(2) 0.5329(11) 0.1248 Uani
H34 H 0.3270 -0.1339 0.5339 0.1480 Uiso
O6 O 0.3545(11) -0.365(3) 0.6427(10) 0.1347 Uani
N14 N 0.3353(12) -0.396(3) 0.6091(10) 0.1261 Uani
loop_
_atom_site_aniso_label
_atom_site_aniso_U_11
_atom_site_aniso_U_22
_atom_site_aniso_U_33
_atom_site_aniso_U_23
_atom_site_aniso_U_13
_atom_site_aniso_U_12
Zn1 0.0796(12) 0.0259(8) 0.0494(10) -0.0036(7) -0.0300(9) 0.0070(8)
I1 0.1332(12) 0.0379(6) 0.0828(9) 0.0014(6) -0.0186(8) -0.0168(7)
I2 0.0972(9) 0.0709(8) 0.0663(8) -0.0129(6) -0.0180(6) 0.0271(7)
N1 0.066(8) 0.039(7) 0.034(6) -0.001(5) -0.019(6) 0.007(6)
C1 0.075(11) 0.045(9) 0.072(11) -0.011(8) 0.009(9) -0.026(8)
C2 0.075(11) 0.040(9) 0.069(11) -0.012(8) 0.017(9) -0.014(8)
C3 0.042(7) 0.024(6) 0.044(7) 0.002(5) -0.013(6) 0.008(5)
C4 0.049(8) 0.042(8) 0.038(7) 0.003(6) -0.012(6) 0.006(6)
C5 0.048(8) 0.035(7) 0.040(7) 0.000(6) -0.021(6) 0.020(6)
C6 0.058(9) 0.035(8) 0.047(8) -0.005(6) -0.012(7) -0.006(7)
N2 0.052(7) 0.026(6) 0.046(7) 0.002(5) 0.000(6) 0.005(5)
C7 0.044(8) 0.048(9) 0.047(8) 0.002(7) 0.004(6) -0.008(6)
N3 0.044(6) 0.033(6) 0.060(8) -0.003(5) 0.004(6) -0.002(5)
C8 0.036(7) 0.040(7) 0.031(7) 0.007(5) 0.000(5) 0.001(5)
N4 0.039(6) 0.040(6) 0.051(7) -0.001(5) -0.004(5) 0.003(5)
N5 0.055(7) 0.036(6) 0.058(7) -0.015(6) 0.007(6) 0.000(5)
C9 0.098(14) 0.047(10) 0.090(14) -0.002(9) 0.047(12) -0.006(9)
C10 0.081(12) 0.068(12) 0.082(13) -0.004(10) 0.037(11) -0.017(10)
C11 0.040(8) 0.052(9) 0.062(9) -0.007(8) 0.005(7) 0.003(7)
C12 0.109(15) 0.035(9) 0.114(17) -0.033(10) 0.047(14) -0.022(9)
C13 0.092(14) 0.070(13) 0.14(2) -0.053(13) 0.072(15) -0.038(11)
N6 0.047(7) 0.036(6) 0.055(8) -0.002(5) -0.016(6) 0.001(5)
C14 0.061(9) 0.048(8) 0.031(7) 0.009(6) 0.002(6) -0.002(7)
C15 0.042(7) 0.050(8) 0.039(8) -0.015(6) -0.013(6) 0.000(6)
C16 0.038(7) 0.050(8) 0.039(8) 0.001(6) 0.006(6) 0.006(6)
C17 0.096(14) 0.091(14) 0.051(10) -0.033(10) 0.011(9) -0.031(12)
C18 0.076(12) 0.118(17) 0.052(10) -0.038(10) 0.026(9) -0.053(12)
Zn2 0.0434(9) 0.0411(9) 0.0511(10) 0.0062(7) -0.0116(7) -0.0027(7)
I3 0.0747(8) 0.0415(6) 0.0843(8) -0.0001(5) -0.0169(6) 0.0072(5)
I4 0.0628(7) 0.0787(8) 0.0612(7) 0.0191(6) 0.0012(5) -0.0014(6)
N7 0.045(6) 0.034(6) 0.058(7) 0.012(5) -0.014(5) -0.008(5)
C19 0.072(10) 0.019(6) 0.052(8) -0.006(6) -0.018(7) -0.007(6)
C20 0.042(7) 0.028(7) 0.069(10) 0.003(7) -0.024(7) 0.001(6)
C21 0.039(7) 0.034(7) 0.042(7) -0.002(6) -0.007(6) -0.008(5)
C22 0.085(11) 0.020(7) 0.073(11) -0.005(7) -0.037(9) 0.002(7)
C23 0.068(9) 0.029(7) 0.047(8) -0.006(6) -0.022(7) 0.000(6)
C24 0.052(8) 0.018(6) 0.051(8) -0.011(5) 0.004(6) 0.005(5)
N8 0.048(6) 0.024(5) 0.030(5) -0.004(4) -0.015(5) -0.006(4)
C25 0.062(9) 0.028(7) 0.041(7) 0.012(6) -0.009(6) -0.008(6)
N9 0.046(6) 0.021(5) 0.048(6) 0.004(5) -0.027(5) -0.004(4)
C26 0.053(8) 0.023(6) 0.023(6) 0.005(5) -0.002(5) -0.010(5)
N10 0.040(6) 0.017(5) 0.051(6) 0.001(4) -0.009(5) -0.011(4)
N11 0.067(8) 0.042(7) 0.055(8) 0.006(6) -0.014(6) 0.002(6)
C27 0.141(18) 0.042(10) 0.126(18) -0.023(11) -0.112(15) 0.010(11)
C28 0.150(19) 0.024(8) 0.117(17) -0.025(9) -0.103(15) 0.022(10)
C29 0.070(9) 0.027(7) 0.046(8) 0.006(6) -0.020(7) -0.006(6)
C30 0.059(8) 0.011(5) 0.043(7) 0.003(5) -0.010(6) -0.004(5)
C31 0.062(9) 0.022(6) 0.055(9) 0.001(6) -0.003(7) 0.009(6)
N12 0.051(7) 0.033(6) 0.052(7) -0.002(5) -0.007(6) -0.005(5)
C32 0.060(9) 0.035(7) 0.040(7) -0.008(6) -0.015(6) -0.005(6)
C33 0.061(9) 0.025(7) 0.049(8) -0.007(6) 0.001(7) 0.001(6)
C34 0.041(7) 0.026(6) 0.029(6) -0.008(5) -0.010(5) -0.009(5)
C35 0.068(10) 0.028(7) 0.068(10) 0.003(7) -0.019(8) -0.006(7)
C36 0.052(8) 0.043(8) 0.051(9) 0.011(7) -0.014(7) 0.007(6)
Zn3 0.0635(11) 0.0281(8) 0.0544(10) -0.0011(7) 0.0116(8) 0.0020(7)
I5 0.0720(7) 0.0390(6) 0.0749(8) -0.0101(5) 0.0224(6) -0.0119(5)
I6 0.0881(8) 0.0465(6) 0.0614(7) 0.0117(5) 0.0041(6) 0.0106(5)
Zn1G 0.0796 0.0259 0.0494 0.0036 -0.03 -0.007
N5B 0.055 0.036 0.058 -0.015 0.007 0
N11G 0.067 0.042 0.055 -0.006 -0.014 -0.002
Zn3B 0.0635 0.0281 0.0544 -0.0011 0.0116 0.002
O1 0.13(2) 0.070(19) 0.12(3) 0.002(18) 0.01(2) -0.044(18)
O2 0.11(3) 0.15(4) 0.14(3) 0.04(3) 0.03(2) 0.08(3)
C37 0.037(11) 0.107(18) 0.056(12) 0.023(13) 0.005(10) -0.020(11)
C38 0.15(4) 0.10(3) 0.016(15) 0.027(18) -0.003(19) -0.02(3)
C39 0.028(11) 0.121(19) 0.055(12) 0.034(13) -0.002(10) -0.024(11)
C40 0.032(9) 0.119(17) 0.056(11) 0.033(12) 0.000(9) -0.021(10)
O3 0.046(16) 0.19(4) 0.16(3) 0.03(3) 0.028(18) -0.012(19)
C41 0.07(2) 0.17(4) 0.011(13) -0.008(18) 0.012(13) -0.03(2)
C42 0.08(2) 0.18(5) 0.037(18) 0.07(2) -0.028(17) -0.08(3)
C43 0.033(10) 0.115(17) 0.061(11) 0.029(12) 0.000(9) -0.020(10)
N13 0.10(3) 0.06(2) 0.13(3) 0.04(2) 0.03(3) 0.00(2)
O4 0.15(3) 0.08(2) 0.074(18) -0.040(16) -0.019(18) 0.037(18)
C44 0.096(18) 0.075(16) 0.068(15) 0.000(14) 0.012(14) 0.027(15)
C45 0.10(2) 0.19(4) 0.065(16) 0.01(2) 0.017(15) 0.07(3)
C46 0.097(17) 0.078(15) 0.067(14) 0.003(13) 0.011(13) 0.024(14)
C47 0.07(2) 0.09(3) 0.07(2) -0.03(2) 0.02(2) 0.04(2)
O5 0.18(3) 0.17(3) 0.082(15) 0.07(2) 0.060(17) 0.08(2)
C48 0.10(2) 0.19(4) 0.069(15) 0.01(2) 0.017(14) 0.07(3)
C49 0.096(18) 0.074(16) 0.063(14) 0.005(14) 0.012(13) 0.020(15)
C50 0.11(2) 0.19(4) 0.072(16) 0.01(2) 0.016(16) 0.07(3)
O6 0.17(3) 0.17(3) 0.063(15) 0.06(2) 0.024(18) 0.05(2)
N14 0.16(3) 0.16(3) 0.072(15) 0.07(2) 0.055(17) 0.06(2)
loop_
_geom_bond_atom_site_label_1
_geom_bond_atom_site_label_2
_geom_bond_site_symmetry_1
_geom_bond_site_symmetry_2
Zn1 I1 1_555 1_555
I2 Zn1 1_555 1_555
N1 Zn1 1_555 1_555
C1 N1 1_555 1_555
H1 C1 1_555 1_555
C2 C1 1_555 1_555
H2 C2 1_555 1_555
C3 C2 1_555 1_555
C4 C3 1_555 1_555
H3 C4 1_555 1_555
C5 N1 1_555 1_555
H4 C5 1_555 1_555
C6 C3 1_555 1_555
N2 C6 1_555 1_555
C7 N2 1_555 1_555
N3 C7 1_555 1_555
C8 N3 1_555 1_555
N4 C6 1_555 1_555
N5 C9 1_555 1_555
C9 H5 1_555 1_555
C10 C9 1_555 1_555
H6 C10 1_555 1_555
C11 C7 1_555 1_555
C12 C11 1_555 1_555
H7 C12 1_555 1_555
C13 N5 1_555 1_555
H8 C13 1_555 1_555
N6 C14 1_555 1_555
C14 H9 1_555 1_555
C15 C14 1_555 1_555
H10 C15 1_555 1_555
C16 C8 1_555 1_555
C17 C16 1_555 1_555
H11 C17 1_555 1_555
C18 N6 1_555 1_555
H12 C18 1_555 1_555
Zn2 N6 1_555 1_555
I3 Zn2 1_555 1_555
I4 Zn2 1_555 1_555
N7 Zn2 1_555 1_555
C19 N7 1_555 1_555
H13 C19 1_555 1_555
C20 C19 1_555 1_555
H14 C20 1_555 1_555
C21 C20 1_555 1_555
C22 C21 1_555 1_555
H15 C22 1_555 1_555
C23 N7 1_555 1_555
H16 C23 1_555 1_555
C24 C21 1_555 1_555
N8 C24 1_555 1_555
C25 N8 1_555 1_555
N9 C25 1_555 1_555
C26 N9 1_555 1_555
N10 C24 1_555 1_555
N11 C27 1_555 1_555
C27 H17 1_555 1_555
C28 C27 1_555 1_555
H18 C28 1_555 1_555
C29 C25 1_555 1_555
C30 C29 1_555 1_555
H19 C30 1_555 1_555
C31 N11 1_555 1_555
H20 C31 1_555 1_555
N12 C32 1_555 1_555
C32 H21 1_555 1_555
C33 C32 1_555 1_555
H22 C33 1_555 1_555
C34 C26 1_555 1_555
C35 C34 1_555 1_555
H23 C35 1_555 1_555
C36 N12 1_555 1_555
H24 C36 1_555 1_555
Zn3 N12 1_555 1_555
I5 Zn3 1_555 1_555
I6 Zn3 1_555 1_555
O1 C38 1_555 1_555
O2 N13 1_555 1_555
C37 H25 1_555 1_555
C38 H26 1_555 1_555
C39 H27 1_555 1_555
C40 C39 1_555 1_555
O3 N13 1_555 1_555
C41 C37 1_555 1_555
C42 C39 1_555 1_555
H28 C42 1_555 1_555
C43 C37 1_555 1_555
H29 C43 1_555 1_555
N13 C40 1_555 1_555
O4 C47 1_555 1_555
C44 H30 1_555 1_555
C45 C44 1_555 1_555
H31 C45 1_555 1_555
C46 C44 1_555 1_555
C47 H32 1_555 1_555
O5 N14 1_555 1_555
C48 C45 1_555 1_555
C49 C46 1_555 1_555
H33 C49 1_555 1_555
C50 C48 1_555 1_555
H34 C50 1_555 1_555
O6 N14 1_555 1_555
N14 C46 1_555 1_555
Zn1G N11 1_555 1_555
N5B Zn3 1_555 1_555
N11G Zn1 1_555 1_555
Zn3B N5 1_555 1_555
C4 C5 1_555 1_555
C8 N4 1_555 1_555
C10 C11 1_555 1_555
C12 C13 1_555 1_555
C15 C16 1_555 1_555
C17 C18 1_555 1_555
C22 C23 1_555 1_555
C26 N10 1_555 1_555
C28 C29 1_555 1_555
C30 C31 1_555 1_555
C33 C34 1_555 1_555
C35 C36 1_555 1_555
C38 C41 1_555 1_555
C40 C43 1_555 1_555
C41 C42 1_555 1_555
C47 C48 1_555 1_555
C49 C50 1_555 1_555

#END
