
#######################################################################
#
#                 Cambridge Crystallographic Data Centre
#                                CCDC 
#
#######################################################################
#
# If this CIF has been generated from an entry in the Cambridge 
# Structural Database, then it will include bibliographic, chemical, 
# crystal, experimental, refinement or atomic coordinate data resulting 
# from the CCDC's data processing and validation procedures.
#
#######################################################################

data_REXFOR
_chemical_formula_moiety         '(C51 H42 I6 N12 Zn3)n'
_symmetry_cell_setting           monoclinic
_symmetry_space_group_name_H-M   'C 2/c'
_symmetry_Int_Tables_number      15
_space_group_name_Hall           '-C 2yc'
loop_
_symmetry_equiv_pos_site_id
_symmetry_equiv_pos_as_xyz
1 x,y,z
2 -x,y,1/2-z
3 1/2+x,1/2+y,z
4 1/2-x,1/2+y,1/2-z
5 -x,-y,-z
6 x,-y,1/2+z
7 1/2-x,1/2-y,-z
8 1/2+x,1/2-y,1/2+z
_cell_length_a                   34.644(6)
_cell_length_b                   14.879(3)
_cell_length_c                   30.836(6)
_cell_angle_alpha                90
_cell_angle_beta                 101.787(2)
_cell_angle_gamma                90
_cell_volume                     15559.8
loop_
_atom_site_label
_atom_site_type_symbol
_atom_site_fract_x
_atom_site_fract_y
_atom_site_fract_z
_atom_site_U_iso_or_equiv
_atom_site_thermal_displace_type
Zn1 Zn 0.37396(4) 0.89436(10) 0.44168(5) 0.1143 Uani
I1 I 0.34772(3) 0.90860(11) 0.51195(4) 0.1713 Uani
I2 I 0.38888(4) 0.75416(7) 0.40549(5) 0.1825 Uani
N1 N 0.3341(3) 0.9632(5) 0.3941(3) 0.0858 Uani
C1 C 0.3250(4) 1.0499(7) 0.4009(4) 0.1169 Uani
H1 H 0.3383 1.0787 0.4273 0.1400 Uiso
C2 C 0.2973(4) 1.0984(7) 0.3714(4) 0.1230 Uani
H2 H 0.2934 1.1607 0.3756 0.1480 Uiso
C3 C 0.2749(3) 1.0519(6) 0.3346(3) 0.0659 Uani
C4 C 0.2831(3) 0.9637(6) 0.3290(4) 0.0913 Uani
H3 H 0.2687 0.9315 0.3043 0.1100 Uiso
C5 C 0.3120(3) 0.9212(7) 0.3589(4) 0.0955 Uani
H4 H 0.3167 0.8593 0.3546 0.1140 Uiso
C6 C 0.2417(3) 1.0977(6) 0.3054(3) 0.0635 Uani
N2 N 0.2361(2) 1.1849(4) 0.3120(3) 0.0628 Uani
C7 C 0.2067(3) 1.2219(5) 0.2834(3) 0.0512 Uani
N3 N 0.1814(2) 1.1751(4) 0.2520(2) 0.0575 Uani
C8 C 0.1914(2) 1.0916(5) 0.2489(3) 0.0474 Uani
N4 N 0.2214(2) 1.0496(4) 0.2735(2) 0.0541 Uani
N5 N 0.1873(3) 1.5049(5) 0.2816(3) 0.0787 Uani
C9 C 0.1624(4) 1.4478(7) 0.2579(4) 0.0917 Uani
H5 H 0.1395 1.4723 0.2395 0.1100 Uiso
C10 C 0.1667(4) 1.3566(6) 0.2575(5) 0.0957 Uani
H6 H 0.1481 1.3193 0.2388 0.1150 Uiso
C11 C 0.1991(3) 1.3216(5) 0.2854(3) 0.0646 Uani
C12 C 0.2240(3) 1.3777(6) 0.3109(4) 0.0721 Uani
H7 H 0.2467 1.3536 0.3300 0.0860 Uiso
C13 C 0.2182(4) 1.4683(7) 0.3105(5) 0.0978 Uani
H8 H 0.2357 1.5057 0.3303 0.1170 Uiso
N6 N 0.1171(2) 0.9462(5) 0.1427(2) 0.0662 Uani
C14 C 0.1484(3) 0.9067(6) 0.1690(3) 0.0674 Uani
H9 H 0.1535 0.8452 0.1640 0.0810 Uiso
C15 C 0.1732(3) 0.9505(5) 0.2026(3) 0.0627 Uani
H10 H 0.1954 0.9200 0.2194 0.0750 Uiso
C16 C 0.1661(2) 1.0385(5) 0.2120(3) 0.0476 Uani
C17 C 0.1354(4) 1.0788(7) 0.1835(4) 0.1245 Uani
H11 H 0.1307 1.1413 0.1862 0.1490 Uiso
C18 C 0.1116(4) 1.0306(7) 0.1517(4) 0.1295 Uani
H12 H 0.0892 1.0601 0.1347 0.1550 Uiso
Zn2 Zn 0.07699(4) 0.87674(7) 0.09669(4) 0.0751 Uani
I3 I 0.01897(3) 0.85289(6) 0.13383(3) 0.1089 Uani
I4 I 0.11319(4) 0.75975(5) 0.06072(3) 0.1240 Uani
N7 N 0.0634(3) 0.9807(5) 0.0517(3) 0.0612 Uani
C19 C 0.0341(3) 1.0369(6) 0.0490(3) 0.0625 Uani
H13 H 0.0151 1.0233 0.0663 0.0750 Uiso
C20 C 0.0279(3) 1.1124(6) 0.0242(3) 0.0591 Uani
H14 H 0.0063 1.1508 0.0254 0.0710 Uiso
C21 C 0.0533(2) 1.1318(5) -0.0022(3) 0.0509 Uani
C22 C 0.0837(3) 1.0716(7) -0.0034(3) 0.0741 Uani
H15 H 0.1011 1.0799 -0.0232 0.0890 Uiso
C23 C 0.0876(3) 0.9989(7) 0.0253(4) 0.0891 Uani
H16 H 0.1093 0.9595 0.0258 0.1070 Uiso
C24 C 0.0485(3) 1.2133(5) -0.0307(3) 0.0500 Uani
N8 N 0.0211(2) 1.2732(5) -0.0260(2) 0.0534 Uani
C25 C 0.0173(2) 1.3432(6) -0.0545(3) 0.0526 Uani
N9 N 0.0392(2) 1.3577(4) -0.0840(2) 0.0584 Uani
C26 C 0.0673(3) 1.2973(6) -0.0849(3) 0.0562 Uani
N10 N 0.0739(2) 1.2228(4) -0.0585(2) 0.0522 Uani
N11 N -0.0777(3) 1.5230(7) -0.0518(3) 0.0993 Uani
C27 C -0.0568(4) 1.5253(11) -0.0840(7) 0.1455 Uani
H17 H -0.0627 1.5700 -0.1063 0.1750 Uiso
C28 C -0.0273(4) 1.4652(12) -0.0853(4) 0.1336 Uani
H18 H -0.0153 1.4639 -0.1104 0.1600 Uiso
C29 C -0.0151(3) 1.4074(6) -0.0515(4) 0.0702 Uani
C30 C -0.0351(3) 1.4081(6) -0.0186(3) 0.0622 Uani
H19 H -0.0282 1.3673 0.0055 0.0750 Uiso
C31 C -0.0645(3) 1.4655(7) -0.0197(3) 0.0773 Uani
H20 H -0.0772 1.4654 0.0049 0.0930 Uiso
N12 N 0.1422(3) 1.3398(5) -0.1767(3) 0.0743 Uani
C32 C 0.1527(4) 1.2837(7) -0.1416(4) 0.0815 Uani
H21 H 0.1776 1.2548 -0.1373 0.0980 Uiso
C33 C 0.1289(3) 1.2668(6) -0.1122(3) 0.0657 Uani
H22 H 0.1370 1.2257 -0.0885 0.0790 Uiso
C34 C 0.0929(3) 1.3101(6) -0.1173(3) 0.0665 Uani
C35 C 0.0833(4) 1.3697(7) -0.1524(4) 0.0746 Uani
H23 H 0.0594 1.4030 -0.1562 0.0890 Uiso
C36 C 0.1081(4) 1.3808(8) -0.1817(4) 0.0876 Uani
H24 H 0.1002 1.4196 -0.2064 0.1050 Uiso
Zn3 Zn 0.17588(5) 1.35720(8) -0.22369(6) 0.1013 Uani
I5 I 0.23902(4) 1.27213(6) -0.19774(5) 0.1509 Uani
I6 I 0.13024(5) 1.33218(7) -0.29935(4) 0.1453 Uani
Zn1G Zn -0.12604(4) 1.60564(10) -0.05832(5) 0.1143 Uani
N5E N 0.1873(3) 1.4951(5) -0.2184(3) 0.0787 Uani
N11G N 0.4223(3) 0.9770(7) 0.4482(3) 0.0993 Uani
Zn3E Zn 0.17588(5) 1.64280(8) 0.27631(6) 0.1013 Uani
C37 C 0.3877(6) 1.5436(10) 0.6896(5) 0.0834 Uani
C38 C 0.3496(5) 1.5760(13) 0.6839(6) 0.0803 Uani
H25 H 0.3451 1.6114 0.7081 0.0960 Uiso
C39 C 0.3388(6) 1.4773(13) 0.5923(6) 0.1063 Uani
C40 C 0.4177(7) 1.5671(12) 0.7303(6) 0.1168 Uani
H26 H 0.4020 1.5885 0.7521 0.1390 Uiso
C41 C 0.3999(6) 1.4979(12) 0.6551(5) 0.1136 Uani
H27 H 0.4272 1.4836 0.6617 0.1360 Uiso
C42 C 0.3166(7) 1.5674(13) 0.6500(6) 0.1191 Uani
H28 H 0.2937 1.5966 0.6557 0.1420 Uiso
C43 C 0.3810(6) 1.4686(13) 0.6133(6) 0.1002 Uani
C44 C 0.3107(7) 1.5239(13) 0.6093(7) 0.1086 Uani
C45 C 0.4405(8) 1.6462(14) 0.7213(7) 0.1190 Uani
H29 H 0.4224 1.6925 0.7065 0.1770 Uiso
H30 H 0.4586 1.6286 0.7022 0.1770 Uiso
H31 H 0.4557 1.6699 0.7493 0.1770 Uiso
C46 C 0.3670(6) 1.4010(16) 0.5486(8) 0.1186 Uani
H32 H 0.3712 1.3696 0.5232 0.1420 Uiso
C47 C 0.3306(7) 1.4367(15) 0.5508(7) 0.1152 Uani
H33 H 0.3064 1.4341 0.5296 0.1380 Uiso
C48 C 0.4397(10) 1.4871(18) 0.7514(12) 0.2125 Uani
H34 H 0.4210 1.4388 0.7538 0.3160 Uiso
H35 H 0.4544 1.5032 0.7810 0.3160 Uiso
H36 H 0.4581 1.4667 0.7332 0.3160 Uiso
C49 C 0.4393(7) 1.385(2) 0.5960(11) 0.1523 Uani
H37 H 0.4447 1.3460 0.5722 0.2290 Uiso
H38 H 0.4446 1.3513 0.6240 0.2290 Uiso
H39 H 0.4563 1.4378 0.5986 0.2290 Uiso
C50 C 0.3971(7) 1.4133(15) 0.5855(7) 0.1203 Uani
C51 C 0.2724(9) 1.535(3) 0.5769(11) 0.1819 Uani
H40 H 0.2542 1.5702 0.5905 0.2750 Uiso
H41 H 0.2609 1.4755 0.5686 0.2750 Uiso
H42 H 0.2770 1.5658 0.5504 0.2750 Uiso
loop_
_atom_site_aniso_label
_atom_site_aniso_U_11
_atom_site_aniso_U_22
_atom_site_aniso_U_33
_atom_site_aniso_U_23
_atom_site_aniso_U_13
_atom_site_aniso_U_12
Zn1 0.0913(9) 0.0867(9) 0.1229(12) 0.0600(9) -0.0764(9) -0.0506(8)
I1 0.1073(8) 0.2203(14) 0.1522(10) 0.1240(10) -0.0533(7) -0.0673(8)
I2 0.1664(11) 0.0722(6) 0.2384(15) 0.0498(7) -0.1239(11) -0.0176(6)
N1 0.077(5) 0.057(5) 0.093(6) 0.022(4) -0.054(5) -0.031(4)
C1 0.145(11) 0.052(6) 0.108(9) 0.039(6) -0.081(8) -0.036(7)
C2 0.173(13) 0.056(6) 0.091(8) 0.033(6) -0.088(9) -0.057(7)
C3 0.061(5) 0.041(5) 0.072(6) 0.016(4) -0.042(5) -0.027(4)
C4 0.078(7) 0.049(5) 0.109(8) -0.003(5) -0.070(6) -0.004(5)
C5 0.088(8) 0.046(5) 0.120(10) 0.008(6) -0.055(7) -0.025(5)
C6 0.083(6) 0.040(5) 0.055(5) 0.014(4) -0.015(5) -0.012(4)
N2 0.072(5) 0.029(3) 0.073(5) -0.002(3) -0.019(4) -0.013(3)
C7 0.060(5) 0.036(4) 0.054(5) 0.006(4) 0.003(4) -0.008(4)
N3 0.068(5) 0.033(3) 0.056(4) -0.002(3) -0.024(4) -0.006(3)
C8 0.057(5) 0.036(4) 0.046(5) 0.004(3) 0.003(4) -0.015(4)
N4 0.066(4) 0.024(3) 0.055(4) 0.008(3) -0.028(3) -0.015(3)
N5 0.091(6) 0.040(4) 0.106(7) -0.018(4) 0.022(6) -0.010(4)
C9 0.107(9) 0.042(5) 0.113(9) -0.009(6) -0.008(7) 0.016(6)
C10 0.112(9) 0.033(5) 0.124(10) -0.006(6) -0.018(8) -0.006(5)
C11 0.077(6) 0.030(4) 0.076(6) -0.001(4) -0.010(5) -0.003(4)
C12 0.070(6) 0.044(5) 0.096(8) -0.009(5) 0.002(6) -0.016(4)
C13 0.096(9) 0.052(6) 0.134(11) -0.025(7) -0.003(8) -0.012(6)
N6 0.084(5) 0.048(4) 0.048(4) -0.004(3) -0.030(4) -0.002(4)
C14 0.088(7) 0.033(4) 0.070(6) -0.004(4) -0.010(5) -0.003(4)
C15 0.078(6) 0.029(4) 0.061(5) 0.007(4) -0.033(5) -0.006(4)
C16 0.047(5) 0.034(4) 0.050(5) -0.005(3) -0.018(4) -0.006(3)
C17 0.162(12) 0.046(6) 0.107(9) -0.013(6) -0.110(9) 0.037(6)
C18 0.167(12) 0.040(5) 0.127(10) -0.034(6) -0.098(10) 0.050(7)
Zn2 0.1062(9) 0.0441(6) 0.0524(6) -0.0026(5) -0.0370(6) -0.0129(6)
I3 0.1364(8) 0.1100(7) 0.0607(5) 0.0007(4) -0.0255(5) -0.0570(6)
I4 0.2074(11) 0.0427(4) 0.0937(6) -0.0069(4) -0.0351(7) 0.0260(5)
N7 0.069(5) 0.052(4) 0.053(5) -0.005(4) -0.010(4) -0.006(4)
C19 0.072(6) 0.053(5) 0.049(5) 0.000(4) -0.019(4) 0.003(5)
C20 0.051(5) 0.066(6) 0.054(6) -0.007(5) -0.004(5) -0.001(4)
C21 0.046(5) 0.053(5) 0.039(5) -0.014(4) -0.026(4) 0.002(4)
C22 0.099(8) 0.064(6) 0.056(6) 0.005(5) 0.008(5) 0.034(6)
C23 0.104(9) 0.067(7) 0.076(8) 0.003(6) -0.029(7) 0.039(7)
C24 0.048(5) 0.043(4) 0.044(5) -0.008(4) -0.026(4) 0.011(4)
N8 0.059(4) 0.055(4) 0.034(4) -0.005(3) -0.019(3) 0.014(3)
C25 0.048(5) 0.048(5) 0.049(5) -0.010(4) -0.020(4) 0.010(4)
N9 0.073(5) 0.035(4) 0.050(4) -0.007(3) -0.028(4) 0.013(3)
C26 0.074(6) 0.045(5) 0.036(5) -0.007(4) -0.021(4) -0.001(4)
N10 0.055(4) 0.042(4) 0.045(4) -0.007(3) -0.024(4) 0.000(3)
N11 0.096(7) 0.116(8) 0.068(6) -0.025(6) -0.025(5) 0.063(6)
C27 0.095(11) 0.144(14) 0.165(17) 0.008(12) -0.050(11) 0.078(10)
C28 0.129(11) 0.203(17) 0.061(7) 0.006(9) 0.001(7) 0.121(12)
C29 0.075(7) 0.051(5) 0.065(7) -0.007(5) -0.032(6) 0.012(5)
C30 0.063(6) 0.055(5) 0.052(6) -0.017(4) -0.027(5) 0.010(4)
C31 0.065(6) 0.092(8) 0.063(6) -0.022(6) -0.015(5) 0.019(6)
N12 0.119(8) 0.032(4) 0.073(6) 0.004(4) 0.022(5) -0.003(4)
C32 0.091(8) 0.060(6) 0.096(9) -0.004(6) 0.025(7) 0.026(6)
C33 0.088(7) 0.062(6) 0.043(5) 0.007(4) 0.004(5) 0.015(5)
C34 0.096(7) 0.040(5) 0.054(6) -0.005(4) -0.007(5) 0.010(5)
C35 0.087(8) 0.061(6) 0.064(6) 0.014(5) -0.012(6) 0.015(5)
C36 0.112(10) 0.062(7) 0.080(8) 0.002(6) -0.001(8) -0.001(7)
Zn3 0.1516(14) 0.0323(6) 0.1344(13) 0.0054(7) 0.0627(11) -0.0017(7)
I5 0.1803(11) 0.0576(5) 0.2495(15) 0.0630(7) 0.1253(11) 0.0478(6)
I6 0.2506(15) 0.0711(6) 0.1253(9) -0.0313(6) 0.0645(9) -0.0385(7)
Zn1G 0.0913 0.0867 0.1229 -0.06 -0.0764 0.0506
N5E 0.091 0.04 0.106 0.018 0.022 0.01
N11G 0.096 0.116 0.068 0.025 -0.025 -0.063
Zn3E 0.1516 0.0323 0.1344 -0.0054 0.0627 0.0017
C37 0.17(2) 0.041(9) 0.052(11) 0.004(8) 0.053(13) 0.003(11)
C38 0.125(17) 0.073(12) 0.045(10) 0.018(9) 0.022(11) -0.018(12)
C39 0.162(10) 0.070(7) 0.092(8) -0.003(6) 0.038(8) -0.020(8)
C40 0.23(3) 0.062(12) 0.046(10) 0.022(9) -0.001(14) -0.012(15)
C41 0.128(18) 0.083(14) 0.112(18) 0.048(14) -0.017(15) -0.053(13)
C42 0.17(3) 0.055(12) 0.14(2) 0.031(13) 0.05(2) 0.008(14)
C43 0.153(10) 0.064(7) 0.095(9) -0.004(7) 0.052(8) -0.010(8)
C44 0.164(12) 0.074(9) 0.097(10) 0.007(9) 0.048(10) -0.031(9)
C45 0.19(2) 0.091(15) 0.066(12) -0.012(11) 0.003(14) -0.077(16)
C46 0.161(10) 0.093(8) 0.104(8) -0.017(7) 0.032(8) -0.006(8)
C47 0.159(10) 0.088(8) 0.099(8) -0.007(7) 0.027(8) -0.009(8)
C48 0.20(3) 0.15(3) 0.21(4) -0.04(3) -0.14(3) -0.01(2)
C49 0.172(18) 0.128(16) 0.151(17) -0.029(14) 0.019(16) 0.003(15)
C50 0.161(10) 0.094(8) 0.110(9) -0.018(7) 0.037(8) -0.008(8)
C51 0.18(3) 0.17(3) 0.18(3) 0.00(3) 0.00(3) -0.04(3)
loop_
_geom_bond_atom_site_label_1
_geom_bond_atom_site_label_2
_geom_bond_site_symmetry_1
_geom_bond_site_symmetry_2
Zn1 I1 1_555 1_555
I2 Zn1 1_555 1_555
N1 Zn1 1_555 1_555
C1 N1 1_555 1_555
H1 C1 1_555 1_555
C2 C1 1_555 1_555
H2 C2 1_555 1_555
C3 C2 1_555 1_555
C4 C3 1_555 1_555
H3 C4 1_555 1_555
C5 N1 1_555 1_555
H4 C5 1_555 1_555
C6 C3 1_555 1_555
N2 C6 1_555 1_555
C7 N2 1_555 1_555
N3 C7 1_555 1_555
C8 N3 1_555 1_555
N4 C6 1_555 1_555
N5 C9 1_555 1_555
C9 H5 1_555 1_555
C10 C9 1_555 1_555
H6 C10 1_555 1_555
C11 C7 1_555 1_555
C12 C11 1_555 1_555
H7 C12 1_555 1_555
C13 N5 1_555 1_555
H8 C13 1_555 1_555
N6 C14 1_555 1_555
C14 H9 1_555 1_555
C15 C14 1_555 1_555
H10 C15 1_555 1_555
C16 C8 1_555 1_555
C17 C16 1_555 1_555
H11 C17 1_555 1_555
C18 N6 1_555 1_555
H12 C18 1_555 1_555
Zn2 N6 1_555 1_555
I3 Zn2 1_555 1_555
I4 Zn2 1_555 1_555
N7 Zn2 1_555 1_555
C19 N7 1_555 1_555
H13 C19 1_555 1_555
C20 C19 1_555 1_555
H14 C20 1_555 1_555
C21 C20 1_555 1_555
C22 C21 1_555 1_555
H15 C22 1_555 1_555
C23 N7 1_555 1_555
H16 C23 1_555 1_555
C24 C21 1_555 1_555
N8 C24 1_555 1_555
C25 N8 1_555 1_555
N9 C25 1_555 1_555
C26 N9 1_555 1_555
N10 C24 1_555 1_555
N11 C27 1_555 1_555
C27 H17 1_555 1_555
C28 C27 1_555 1_555
H18 C28 1_555 1_555
C29 C25 1_555 1_555
C30 C29 1_555 1_555
H19 C30 1_555 1_555
C31 N11 1_555 1_555
H20 C31 1_555 1_555
N12 C32 1_555 1_555
C32 H21 1_555 1_555
C33 C32 1_555 1_555
H22 C33 1_555 1_555
C34 C26 1_555 1_555
C35 C34 1_555 1_555
H23 C35 1_555 1_555
C36 N12 1_555 1_555
H24 C36 1_555 1_555
Zn3 N12 1_555 1_555
I5 Zn3 1_555 1_555
I6 Zn3 1_555 1_555
C37 C38 1_555 1_555
C38 H25 1_555 1_555
C39 C43 1_555 1_555
C40 C37 1_555 1_555
H26 C40 1_555 1_555
C41 C37 1_555 1_555
H27 C41 1_555 1_555
C42 C38 1_555 1_555
H28 C42 1_555 1_555
C43 C41 1_555 1_555
C44 C39 1_555 1_555
C45 C40 1_555 1_555
H29 C45 1_555 1_555
H30 C45 1_555 1_555
H31 C45 1_555 1_555
C46 H32 1_555 1_555
C47 C39 1_555 1_555
H33 C47 1_555 1_555
C48 C40 1_555 1_555
H34 C48 1_555 1_555
H35 C48 1_555 1_555
H36 C48 1_555 1_555
C49 H37 1_555 1_555
H38 C49 1_555 1_555
H39 C49 1_555 1_555
C50 C43 1_555 1_555
C51 C44 1_555 1_555
H40 C51 1_555 1_555
H41 C51 1_555 1_555
H42 C51 1_555 1_555
Zn1G N11 1_555 1_555
N5E Zn3 1_555 1_555
N11G Zn1 1_555 1_555
Zn3E N5 1_555 1_555
C4 C5 1_555 1_555
C8 N4 1_555 1_555
C10 C11 1_555 1_555
C12 C13 1_555 1_555
C15 C16 1_555 1_555
C17 C18 1_555 1_555
C22 C23 1_555 1_555
C26 N10 1_555 1_555
C28 C29 1_555 1_555
C30 C31 1_555 1_555
C33 C34 1_555 1_555
C35 C36 1_555 1_555
C42 C44 1_555 1_555
C46 C47 1_555 1_555
C46 C50 1_555 1_555
C49 C50 1_555 1_555

#END
