
#######################################################################
#
#                 Cambridge Crystallographic Data Centre
#                                CCDC 
#
#######################################################################
#
# If this CIF has been generated from an entry in the Cambridge 
# Structural Database, then it will include bibliographic, chemical, 
# crystal, experimental, refinement or atomic coordinate data resulting 
# from the CCDC's data processing and validation procedures.
#
#######################################################################

data_REXFUX
_chemical_formula_moiety         '(C41 H32 I6 N12 Zn3)n'
_symmetry_cell_setting           monoclinic
_symmetry_space_group_name_H-M   'C 2/c'
_symmetry_Int_Tables_number      15
_space_group_name_Hall           '-C 2yc'
loop_
_symmetry_equiv_pos_site_id
_symmetry_equiv_pos_as_xyz
1 x,y,z
2 -x,y,1/2-z
3 1/2+x,1/2+y,z
4 1/2-x,1/2+y,1/2-z
5 -x,-y,-z
6 x,-y,1/2+z
7 1/2-x,1/2-y,-z
8 1/2+x,1/2-y,1/2+z
_cell_length_a                   35.060(4)
_cell_length_b                   14.7672(16)
_cell_length_c                   30.527(3)
_cell_angle_alpha                90
_cell_angle_beta                 101.0880(10)
_cell_angle_gamma                90
_cell_volume                     15510
loop_
_atom_site_label
_atom_site_type_symbol
_atom_site_fract_x
_atom_site_fract_y
_atom_site_fract_z
_atom_site_U_iso_or_equiv
_atom_site_thermal_displace_type
Zn1 Zn 0.17258(2) -0.35319(4) -0.22779(2) 0.0423 Uani
I1 I 0.126643(17) -0.33623(3) -0.303049(15) 0.0627 Uani
I2 I 0.235349(15) -0.26573(3) -0.204293(19) 0.0619 Uani
N1 N 0.14005(15) -0.3334(3) -0.17955(16) 0.0410 Uani
C1 C 0.10471(19) -0.3704(4) -0.1851(2) 0.0500 Uani
H1 H 0.0959 -0.4054 -0.2112 0.0600 Uiso
C2 C 0.0806(2) -0.3605(4) -0.1552(2) 0.0510 Uani
H2 H 0.0561 -0.3900 -0.1601 0.0610 Uiso
C3 C 0.09243(16) -0.3059(4) -0.11695(18) 0.0361 Uani
C4 C 0.12903(18) -0.2667(4) -0.1119(2) 0.0419 Uani
H3 H 0.1382 -0.2291 -0.0868 0.0500 Uiso
C5 C 0.15237(18) -0.2818(4) -0.1430(2) 0.0416 Uani
H4 H 0.1775 -0.2553 -0.1386 0.0500 Uiso
C6 C 0.06733(16) -0.2935(4) -0.08454(18) 0.0347 Uani
N2 N 0.03920(13) -0.3528(3) -0.08440(15) 0.0356 Uani
C7 C 0.01671(15) -0.3392(3) -0.05376(18) 0.0331 Uani
N3 N 0.02152(13) -0.2707(3) -0.02470(14) 0.0346 Uani
C8 C 0.05004(16) -0.2130(3) -0.02870(19) 0.0350 Uani
N4 N 0.07404(13) -0.2213(3) -0.05700(15) 0.0362 Uani
N5 N -0.07857(14) -0.5169(3) -0.05804(18) 0.0432 Uani
C9 C -0.06464(18) -0.4710(4) -0.0204(2) 0.0448 Uani
H5 H -0.0764 -0.4783 0.0049 0.0540 Uiso
C10 C -0.03336(17) -0.4133(4) -0.0182(2) 0.0406 Uani
H6 H -0.0237 -0.3815 0.0087 0.0490 Uiso
C11 C -0.01603(16) -0.4011(3) -0.05433(19) 0.0353 Uani
C12 C -0.0315(2) -0.4475(5) -0.0926(2) 0.0591 Uani
H7 H -0.0211 -0.4394 -0.1189 0.0710 Uiso
C13 C -0.0622(2) -0.5060(6) -0.0926(3) 0.0707 Uani
H8 H -0.0719 -0.5398 -0.1189 0.0850 Uiso
N6 N 0.06377(14) 0.0205(3) 0.05492(16) 0.0403 Uani
C14 C 0.0898(2) 0.0002(5) 0.0302(2) 0.0572 Uani
H9 H 0.1117 0.0388 0.0314 0.0690 Uiso
C15 C 0.0863(2) -0.0755(5) 0.0026(2) 0.0573 Uani
H10 H 0.1056 -0.0887 -0.0145 0.0690 Uiso
C16 C 0.05445(16) -0.1312(4) 0.00027(18) 0.0365 Uani
C17 C 0.03332(16) -0.0326(4) 0.0530(2) 0.0387 Uani
H11 H 0.0145 -0.0179 0.0706 0.0460 Uiso
C18 C 0.02768(17) -0.1098(4) 0.02603(19) 0.0398 Uani
H12 H 0.0055 -0.1471 0.0255 0.0480 Uiso
Zn2 Zn 0.07576(2) 0.12847(4) 0.09988(2) 0.0398 Uani
I3 I 0.017019(14) 0.15305(3) 0.135706(15) 0.0575 Uani
I4 I 0.111631(15) 0.24252(3) 0.061038(16) 0.0588 Uani
N7 N 0.11495(13) 0.0607(3) 0.14853(16) 0.0375 Uani
C19 C 0.10465(18) -0.0214(4) 0.1603(2) 0.0578 Uani
H13 H 0.0805 -0.0459 0.1456 0.0690 Uiso
C20 C 0.12789(18) -0.0723(4) 0.1933(2) 0.0502 Uani
H14 H 0.1200 -0.1309 0.2008 0.0600 Uiso
C21 C 0.16258(15) -0.0363(3) 0.21477(18) 0.0341 Uani
C22 C 0.17318(16) 0.0496(3) 0.20364(19) 0.0374 Uani
H15 H 0.1966 0.0768 0.2187 0.0450 Uiso
C23 C 0.14845(17) 0.0949(4) 0.1697(2) 0.0404 Uani
H16 H 0.1559 0.1533 0.1612 0.0480 Uiso
C24 C 0.18828(15) -0.0895(3) 0.24972(19) 0.0334 Uani
N8 N 0.17813(13) -0.1776(3) 0.25432(15) 0.0342 Uani
C25 C 0.20322(15) -0.2236(3) 0.28472(17) 0.0310 Uani
N9 N 0.23351(13) -0.1895(3) 0.31240(15) 0.0337 Uani
C26 C 0.24027(15) -0.0997(3) 0.30588(19) 0.0335 Uani
N10 N 0.21948(13) -0.0496(3) 0.27348(15) 0.0340 Uani
N11 N 0.18435(15) -0.5084(3) 0.27916(17) 0.0419 Uani
C27 C 0.21519(18) -0.4744(4) 0.3060(2) 0.0460 Uani
H17 H 0.2332 -0.5147 0.3232 0.0550 Uiso
C28 C 0.22211(16) -0.3815(4) 0.3098(2) 0.0402 Uani
H18 H 0.2445 -0.3592 0.3294 0.0480 Uiso
C29 C 0.19611(15) -0.3222(3) 0.28500(18) 0.0309 Uani
C30 C 0.16316(18) -0.3583(4) 0.2590(2) 0.0498 Uani
H19 H 0.1437 -0.3195 0.2431 0.0600 Uiso
C31 C 0.15847(19) -0.4506(4) 0.2563(2) 0.0522 Uani
H20 H 0.1360 -0.4744 0.2374 0.0630 Uiso
N12 N 0.33335(13) 0.0340(3) 0.39077(16) 0.0394 Uani
C32 C 0.31237(17) 0.0750(4) 0.3546(2) 0.0491 Uani
H21 H 0.3185 0.1357 0.3485 0.0590 Uiso
C33 C 0.28279(17) 0.0332(4) 0.3266(2) 0.0466 Uani
H22 H 0.2687 0.0644 0.3014 0.0560 Uiso
C34 C 0.27342(15) -0.0561(3) 0.33535(18) 0.0305 Uani
C35 C 0.29520(18) -0.0987(4) 0.3718(2) 0.0479 Uani
H23 H 0.2900 -0.1596 0.3787 0.0570 Uiso
C36 C 0.3250(2) -0.0505(4) 0.3981(2) 0.0568 Uani
H24 H 0.3402 -0.0804 0.4230 0.0680 Uiso
I5 I -0.107826(19) -0.74286(3) -0.10483(3) 0.1030 Uani
Zn3 Zn -0.12549(2) -0.60386(5) -0.06439(3) 0.0527 Uani
I6 I -0.150139(16) -0.60236(6) 0.00814(2) 0.1092 Uani
Zn1E Zn 0.17258(2) -0.64681(4) 0.27221(2) 0.0423 Uani
N11E N 0.18435(15) -0.4916(3) -0.22084(17) 0.0419 Uani
N12G N -0.16665(13) -0.5340(3) -0.10923(16) 0.0394 Uani
Zn3G Zn 0.37451(2) 0.10386(5) 0.43561(3) 0.0527 Uani
C37 C 0.1239(3) 0.0608(7) 0.3263(4) 0.0741 Uani
C38 C 0.1068(4) 0.1119(7) 0.2857(4) 0.0759 Uani
H25 H 0.1245 0.1361 0.2688 0.0910 Uiso
C39 C 0.1614(4) 0.0482(9) 0.3371(5) 0.0953 Uani
H26 H 0.1780 0.0721 0.3187 0.1150 Uiso
H27 H 0.1720 0.0152 0.3633 0.1150 Uiso
C40 C 0.0972(4) 0.0292(10) 0.3562(5) 0.0844 Uani
H28 H 0.0702 0.0423 0.3421 0.1270 Uiso
H29 H 0.1035 0.0609 0.3849 0.1270 Uiso
H30 H 0.1003 -0.0362 0.3611 0.1270 Uiso
C41 C 0.0702(5) 0.1272(12) 0.2707(6) 0.1204 Uani
H31 H 0.0513 0.1045 0.2864 0.1430 Uiso
H32 H 0.0623 0.1612 0.2441 0.1430 Uiso
loop_
_atom_site_aniso_label
_atom_site_aniso_U_11
_atom_site_aniso_U_22
_atom_site_aniso_U_33
_atom_site_aniso_U_23
_atom_site_aniso_U_13
_atom_site_aniso_U_12
Zn1 0.0616(5) 0.0188(3) 0.0476(4) -0.0018(3) 0.0132(3) 0.0014(3)
I1 0.0998(4) 0.0388(2) 0.0471(3) 0.00834(19) 0.0081(2) 0.0109(2)
I2 0.0734(3) 0.0326(2) 0.0872(4) -0.0198(2) 0.0345(3) -0.0168(2)
N1 0.054(3) 0.025(2) 0.043(3) 0.000(2) 0.007(2) 0.005(2)
C1 0.053(4) 0.047(4) 0.048(4) -0.017(3) 0.005(3) -0.012(3)
C2 0.056(4) 0.052(4) 0.041(4) -0.003(3) -0.001(3) -0.010(3)
C3 0.043(3) 0.027(3) 0.033(3) 0.000(2) -0.006(2) 0.002(2)
C4 0.049(4) 0.033(3) 0.039(3) 0.001(2) -0.003(3) -0.004(3)
C5 0.044(3) 0.030(3) 0.046(4) -0.002(3) -0.003(3) -0.008(2)
C6 0.039(3) 0.028(3) 0.032(3) 0.005(2) -0.006(2) 0.005(2)
N2 0.036(3) 0.028(2) 0.036(3) -0.0026(19) -0.010(2) 0.0011(19)
C7 0.031(3) 0.028(3) 0.033(3) 0.002(2) -0.012(2) 0.005(2)
N3 0.040(3) 0.032(2) 0.025(2) -0.0005(19) -0.0109(19) 0.000(2)
C8 0.039(3) 0.024(3) 0.036(3) 0.000(2) -0.008(3) 0.002(2)
N4 0.037(3) 0.031(2) 0.033(3) -0.0014(19) -0.012(2) 0.000(2)
N5 0.044(3) 0.032(3) 0.047(3) 0.006(2) -0.008(2) -0.003(2)
C9 0.045(3) 0.037(3) 0.051(4) 0.009(3) 0.006(3) 0.004(3)
C10 0.045(3) 0.033(3) 0.039(3) -0.003(2) -0.004(3) -0.004(3)
C11 0.037(3) 0.024(3) 0.038(3) 0.001(2) -0.010(2) -0.002(2)
C12 0.056(4) 0.081(5) 0.039(4) -0.009(3) 0.006(3) -0.030(4)
C13 0.070(5) 0.088(6) 0.050(5) -0.027(4) 0.001(4) -0.047(4)
N6 0.042(3) 0.034(3) 0.039(3) -0.005(2) -0.007(2) 0.005(2)
C14 0.059(4) 0.048(4) 0.065(5) -0.021(3) 0.013(4) -0.021(3)
C15 0.063(4) 0.047(4) 0.066(5) -0.024(3) 0.023(4) -0.020(3)
C16 0.042(3) 0.029(3) 0.031(3) -0.003(2) -0.012(2) 0.004(2)
C17 0.034(3) 0.029(3) 0.048(4) 0.004(2) -0.005(3) 0.009(2)
C18 0.040(3) 0.034(3) 0.040(3) 0.003(3) -0.006(3) 0.000(2)
Zn2 0.0482(4) 0.0256(3) 0.0377(4) -0.0014(3) -0.0116(3) 0.0078(3)
I3 0.0589(3) 0.0576(3) 0.0496(3) 0.0026(2) -0.0057(2) 0.0246(2)
I4 0.0782(3) 0.0317(2) 0.0590(3) 0.00127(18) -0.0055(2) -0.0040(2)
N7 0.045(3) 0.023(2) 0.037(3) -0.0046(19) -0.011(2) 0.004(2)
C19 0.045(4) 0.041(4) 0.071(5) 0.019(3) -0.030(3) -0.006(3)
C20 0.051(4) 0.028(3) 0.059(4) 0.010(3) -0.021(3) -0.005(3)
C21 0.036(3) 0.020(2) 0.039(3) -0.004(2) -0.011(2) 0.007(2)
C22 0.041(3) 0.022(3) 0.040(3) -0.004(2) -0.015(3) -0.002(2)
C23 0.046(3) 0.021(3) 0.047(4) -0.004(2) -0.009(3) 0.007(2)
C24 0.037(3) 0.015(2) 0.043(3) -0.002(2) -0.005(2) 0.004(2)
N8 0.036(2) 0.017(2) 0.041(3) -0.0010(18) -0.014(2) 0.0023(18)
C25 0.036(3) 0.021(2) 0.031(3) 0.002(2) -0.006(2) 0.005(2)
N9 0.038(2) 0.018(2) 0.039(3) -0.0049(18) -0.008(2) 0.0027(18)
C26 0.035(3) 0.017(2) 0.042(3) -0.003(2) -0.009(2) 0.004(2)
N10 0.038(2) 0.020(2) 0.038(3) -0.0050(18) -0.008(2) 0.0026(18)
N11 0.052(3) 0.022(2) 0.048(3) 0.004(2) 0.000(2) 0.000(2)
C27 0.050(4) 0.026(3) 0.057(4) 0.009(3) -0.002(3) 0.006(3)
C28 0.036(3) 0.025(3) 0.050(4) 0.004(2) -0.016(3) 0.001(2)
C29 0.035(3) 0.018(2) 0.035(3) -0.002(2) -0.005(2) 0.001(2)
C30 0.043(3) 0.027(3) 0.069(4) 0.004(3) -0.015(3) 0.003(2)
C31 0.056(4) 0.029(3) 0.061(4) -0.002(3) -0.015(3) -0.008(3)
N12 0.037(3) 0.027(2) 0.047(3) -0.009(2) -0.010(2) 0.0034(19)
C32 0.046(4) 0.028(3) 0.063(4) -0.009(3) -0.015(3) 0.004(3)
C33 0.043(3) 0.027(3) 0.058(4) -0.003(3) -0.020(3) 0.000(2)
C34 0.033(3) 0.019(2) 0.035(3) -0.009(2) -0.005(2) 0.005(2)
C35 0.056(4) 0.025(3) 0.051(4) 0.000(3) -0.019(3) -0.003(3)
C36 0.063(4) 0.030(3) 0.064(4) -0.005(3) -0.021(3) 0.006(3)
I5 0.0888(4) 0.0370(3) 0.1522(6) -0.0084(3) -0.0545(4) 0.0154(3)
Zn3 0.0377(4) 0.0394(4) 0.0700(5) 0.0232(4) -0.0174(4) -0.0054(3)
I6 0.0547(3) 0.1737(7) 0.0938(5) 0.0875(5) 0.0011(3) 0.0060(4)
Zn1E 0.0616 0.0188 0.0476 0.0018 0.0132 -0.0014
N11E 0.052 0.022 0.048 -0.004 0 0
N12G 0.037 0.027 0.047 0.009 -0.01 -0.0034
Zn3G 0.0377 0.0394 0.07 -0.0232 -0.0174 0.0054
C37 0.085(9) 0.039(6) 0.110(11) -0.034(7) 0.048(8) 0.008(6)
C38 0.134(14) 0.026(6) 0.081(10) -0.013(6) 0.054(10) 0.000(7)
C39 0.118(11) 0.048(7) 0.140(12) -0.044(8) 0.075(10) 0.003(8)
C40 0.090(10) 0.057(8) 0.115(13) 0.016(8) 0.042(9) -0.016(7)
C41 0.17(2) 0.094(14) 0.089(13) 0.004(10) 0.004(14) -0.022(14)
loop_
_geom_bond_atom_site_label_1
_geom_bond_atom_site_label_2
_geom_bond_site_symmetry_1
_geom_bond_site_symmetry_2
Zn1 I1 1_555 1_555
I2 Zn1 1_555 1_555
N1 Zn1 1_555 1_555
C1 N1 1_555 1_555
H1 C1 1_555 1_555
C2 C1 1_555 1_555
H2 C2 1_555 1_555
C3 C2 1_555 1_555
C4 C3 1_555 1_555
H3 C4 1_555 1_555
C5 N1 1_555 1_555
H4 C5 1_555 1_555
C6 C3 1_555 1_555
N2 C6 1_555 1_555
C7 N2 1_555 1_555
N3 C7 1_555 1_555
C8 N3 1_555 1_555
N4 C6 1_555 1_555
N5 C9 1_555 1_555
C9 H5 1_555 1_555
C10 C9 1_555 1_555
H6 C10 1_555 1_555
C11 C7 1_555 1_555
C12 C11 1_555 1_555
H7 C12 1_555 1_555
C13 N5 1_555 1_555
H8 C13 1_555 1_555
N6 C14 1_555 1_555
C14 H9 1_555 1_555
C15 C14 1_555 1_555
H10 C15 1_555 1_555
C16 C8 1_555 1_555
C17 N6 1_555 1_555
H11 C17 1_555 1_555
C18 C16 1_555 1_555
H12 C18 1_555 1_555
Zn2 N6 1_555 1_555
I3 Zn2 1_555 1_555
I4 Zn2 1_555 1_555
N7 Zn2 1_555 1_555
C19 N7 1_555 1_555
H13 C19 1_555 1_555
C20 C19 1_555 1_555
H14 C20 1_555 1_555
C21 C20 1_555 1_555
C22 C21 1_555 1_555
H15 C22 1_555 1_555
C23 N7 1_555 1_555
H16 C23 1_555 1_555
C24 C21 1_555 1_555
N8 C24 1_555 1_555
C25 N8 1_555 1_555
N9 C25 1_555 1_555
C26 N9 1_555 1_555
N10 C24 1_555 1_555
N11 C27 1_555 1_555
C27 H17 1_555 1_555
C28 C27 1_555 1_555
H18 C28 1_555 1_555
C29 C25 1_555 1_555
C30 C29 1_555 1_555
H19 C30 1_555 1_555
C31 N11 1_555 1_555
H20 C31 1_555 1_555
N12 C32 1_555 1_555
C32 H21 1_555 1_555
C33 C32 1_555 1_555
H22 C33 1_555 1_555
C34 C26 1_555 1_555
C35 C34 1_555 1_555
H23 C35 1_555 1_555
C36 N12 1_555 1_555
H24 C36 1_555 1_555
I5 Zn3 1_555 1_555
Zn3 N5 1_555 1_555
I6 Zn3 1_555 1_555
C37 C38 1_555 1_555
C38 H25 1_555 1_555
C39 C37 1_555 1_555
H26 C39 1_555 1_555
H27 C39 1_555 1_555
C40 C37 1_555 1_555
H28 C40 1_555 1_555
H29 C40 1_555 1_555
H30 C40 1_555 1_555
C41 C38 1_555 1_555
H31 C41 1_555 1_555
H32 C41 1_555 1_555
Zn1E N11 1_555 1_555
N11E Zn1 1_555 1_555
N12G Zn3 1_555 1_555
Zn3G N12 1_555 1_555
C4 C5 1_555 1_555
C8 N4 1_555 1_555
C10 C11 1_555 1_555
C12 C13 1_555 1_555
C15 C16 1_555 1_555
C17 C18 1_555 1_555
C22 C23 1_555 1_555
C26 N10 1_555 1_555
C28 C29 1_555 1_555
C30 C31 1_555 1_555
C33 C34 1_555 1_555
C35 C36 1_555 1_555

#END
