
#######################################################################
#
#                 Cambridge Crystallographic Data Centre
#                                CCDC 
#
#######################################################################
#
# If this CIF has been generated from an entry in the Cambridge 
# Structural Database, then it will include bibliographic, chemical, 
# crystal, experimental, refinement or atomic coordinate data resulting 
# from the CCDC's data processing and validation procedures.
#
#######################################################################

data_REXFAD
_chemical_formula_moiety         '(C48 H43 I6 N13 Zn3)n'
_symmetry_cell_setting           monoclinic
_symmetry_space_group_name_H-M   'C 2/c'
_symmetry_Int_Tables_number      15
_space_group_name_Hall           '-C 2yc'
loop_
_symmetry_equiv_pos_site_id
_symmetry_equiv_pos_as_xyz
1 x,y,z
2 -x,y,1/2-z
3 1/2+x,1/2+y,z
4 1/2-x,1/2+y,1/2-z
5 -x,-y,-z
6 x,-y,1/2+z
7 1/2-x,1/2-y,-z
8 1/2+x,1/2-y,1/2+z
_cell_length_a                   35.752(9)
_cell_length_b                   14.774(4)
_cell_length_c                   30.594(7)
_cell_angle_alpha                90
_cell_angle_beta                 101.647(4)
_cell_angle_gamma                90
_cell_volume                     15827
loop_
_atom_site_label
_atom_site_type_symbol
_atom_site_fract_x
_atom_site_fract_y
_atom_site_fract_z
_atom_site_U_iso_or_equiv
_atom_site_thermal_displace_type
Zn1 Zn 0.16637(4) 0.35698(9) 0.27546(5) 0.0325 Uani
I1 I 0.22655(3) 0.26034(6) 0.29400(3) 0.0435 Uani
I2 I 0.11781(3) 0.33581(7) 0.20235(3) 0.0486 Uani
N1 N 0.1361(3) 0.3420(7) 0.3259(4) 0.0333 Uani
C1 C 0.1116(4) 0.4014(9) 0.3321(5) 0.0452 Uani
H1 H 0.1089 0.4545 0.3142 0.0540 Uiso
C2 C 0.0892(4) 0.3925(9) 0.3629(4) 0.0446 Uani
H2 H 0.0714 0.4387 0.3660 0.0530 Uiso
C3 C 0.0922(3) 0.3171(6) 0.3895(4) 0.0287 Uani
C4 C 0.1202(3) 0.2556(8) 0.3858(4) 0.0360 Uani
H3 H 0.1242 0.2039 0.4047 0.0430 Uiso
C5 C 0.1425(4) 0.2695(8) 0.3545(4) 0.0364 Uani
H4 H 0.1626 0.2284 0.3527 0.0440 Uiso
C6 C 0.0651(3) 0.3004(7) 0.4206(3) 0.0299 Uani
N2 N 0.0377(3) 0.3613(6) 0.4207(3) 0.0279 Uani
C7 C 0.0157(3) 0.3437(6) 0.4503(4) 0.0290 Uani
N3 N 0.0202(3) 0.2754(6) 0.4794(3) 0.0291 Uani
C8 C 0.0485(3) 0.2189(7) 0.4767(4) 0.0283 Uani
N4 N 0.0722(3) 0.2290(6) 0.4480(3) 0.0346 Uani
N5 N -0.0808(3) 0.5122(7) 0.4411(3) 0.0368 Uani
C9 C -0.0650(3) 0.4741(7) 0.4800(3) 0.0300 Uani
H5 H -0.0757 0.4869 0.5053 0.0360 Uiso
C10 C -0.0340(3) 0.4171(7) 0.4851(4) 0.0290 Uani
H6 H -0.0236 0.3885 0.5127 0.0350 Uiso
C11 C -0.0187(3) 0.4041(7) 0.4468(3) 0.0267 Uani
C12 C -0.0349(3) 0.4400(8) 0.4064(4) 0.0376 Uani
H7 H -0.0247 0.4293 0.3805 0.0450 Uiso
C13 C -0.0664(3) 0.4921(11) 0.4053(3) 0.0479 Uani
H8 H -0.0791 0.5156 0.3773 0.0570 Uiso
Zn2 Zn -0.12545(4) 0.60510(10) 0.43032(5) 0.0312 Uani
I3 I -0.10284(3) 0.73414(6) 0.38619(4) 0.0488 Uani
I4 I -0.15259(3) 0.62474(9) 0.49908(4) 0.0600 Uani
N6 N 0.0631(3) -0.0183(7) 0.5580(4) 0.0329 Uani
C14 C 0.0890(4) 0.0088(10) 0.5354(5) 0.0458 Uani
H9 H 0.1108 -0.0286 0.5367 0.0550 Uiso
C15 C 0.0870(3) 0.0873(9) 0.5100(4) 0.0370 Uani
H10 H 0.1075 0.1055 0.4966 0.0440 Uiso
C16 C 0.0540(3) 0.1378(7) 0.5051(4) 0.0294 Uani
C17 C 0.0262(3) 0.1137(9) 0.5280(4) 0.0353 Uani
H11 H 0.0041 0.1501 0.5273 0.0430 Uiso
C18 C 0.0320(3) 0.0320(8) 0.5529(4) 0.0337 Uani
H12 H 0.0120 0.0119 0.5668 0.0400 Uiso
Zn3 Zn 0.07443(4) -0.13116(9) 0.59999(5) 0.0296 Uani
I5 I 0.10832(3) -0.24180(6) 0.55794(3) 0.0408 Uani
I6 I 0.01634(3) -0.15541(6) 0.63386(3) 0.0405 Uani
N7 N 0.1148(3) -0.0644(6) 0.6489(3) 0.0322 Uani
C19 C 0.1047(3) 0.0168(6) 0.6613(4) 0.0347 Uani
H13 H 0.0802 0.0399 0.6484 0.0410 Uiso
C20 C 0.1289(3) 0.0684(8) 0.6925(4) 0.0367 Uani
H14 H 0.1210 0.1263 0.7007 0.0440 Uiso
C21 C 0.1640(4) 0.0356(8) 0.7112(4) 0.0332 Uani
C22 C 0.1740(3) -0.0528(8) 0.6993(4) 0.0332 Uani
H15 H 0.1978 -0.0790 0.7129 0.0400 Uiso
C23 C 0.1484(3) -0.0994(7) 0.6676(4) 0.0299 Uani
H16 H 0.1549 -0.1581 0.6590 0.0360 Uiso
C24 C 0.1912(3) 0.0908(6) 0.7441(4) 0.0310 Uani
N8 N 0.1805(3) 0.1760(6) 0.7489(3) 0.0317 Uani
C25 C 0.2051(3) 0.2207(7) 0.7802(3) 0.0254 Uani
N9 N 0.2360(3) 0.1892(6) 0.8076(3) 0.0336 Uani
C26 C 0.2428(3) 0.1025(7) 0.7995(4) 0.0309 Uani
N10 N 0.2227(3) 0.0495(6) 0.7668(3) 0.0288 Uani
N11 N 0.1801(3) 0.5056(7) 0.7793(3) 0.0386 Uani
C27 C 0.2118(3) 0.4740(7) 0.8055(4) 0.0345 Uani
H17 H 0.2292 0.5150 0.8229 0.0420 Uiso
C28 C 0.2195(3) 0.3833(6) 0.8079(4) 0.0304 Uani
H18 H 0.2416 0.3623 0.8279 0.0370 Uiso
C29 C 0.1960(3) 0.3215(7) 0.7820(4) 0.0315 Uani
C30 C 0.1639(3) 0.3562(7) 0.7543(4) 0.0401 Uani
H19 H 0.1468 0.3167 0.7355 0.0480 Uiso
C31 C 0.1566(4) 0.4477(6) 0.7538(5) 0.0417 Uani
H20 H 0.1342 0.4703 0.7348 0.0500 Uiso
N12 N 0.3336(3) -0.0351(5) 0.8843(3) 0.0337 Uani
C32 C 0.3130(3) -0.0770(7) 0.8490(4) 0.0409 Uani
H21 H 0.3191 -0.1374 0.8424 0.0490 Uiso
C33 C 0.2831(3) -0.0339(6) 0.8221(4) 0.0394 Uani
H22 H 0.2672 -0.0657 0.7984 0.0470 Uiso
C34 C 0.2762(3) 0.0558(6) 0.8295(3) 0.0250 Uani
C35 C 0.2988(3) 0.0999(8) 0.8645(4) 0.0373 Uani
H23 H 0.2946 0.1620 0.8699 0.0450 Uiso
C36 C 0.3276(3) 0.0529(6) 0.8919(4) 0.0373 Uani
H24 H 0.3435 0.0829 0.9162 0.0450 Uiso
Zn1E Zn 0.16637(4) 0.64302(9) 0.77546(5) 0.0325 Uani
Zn2G Zn 0.37455(4) -0.10510(10) 0.93032(5) 0.0312 Uani
N11E N 0.1801(3) 0.4944(7) 0.2793(3) 0.0386 Uani
N12G N -0.1664(3) 0.5351(5) 0.3843(3) 0.0337 Uani
C37 C 0.1463(4) 0.0292(12) 0.3484(4) 0.0423 Uani
C38 C 0.1648(4) 0.0113(12) 0.3922(4) 0.0464 Uani
C39 C 0.1421(4) -0.0128(13) 0.4224(4) 0.0478 Uani
H25 H 0.1540 -0.0221 0.4528 0.0580 Uiso
C40 C 0.1028(4) -0.024(2) 0.4099(5) 0.0747 Uani
H26 H 0.0882 -0.0469 0.4301 0.0910 Uiso
C41 C 0.0858(4) -0.000(2) 0.3666(5) 0.0852 Uani
H27 H 0.0587 0.0019 0.3586 0.1010 Uiso
C42 C 0.2078(6) 0.0146(12) 0.4067(6) 0.0513 Uani
H28 H 0.2187 -0.0109 0.3816 0.0620 Uiso
C43 C 0.2232(7) 0.1105(15) 0.4147(9) 0.0770 Uani
H29 H 0.2511 0.1088 0.4235 0.1140 Uiso
H30 H 0.2126 0.1386 0.4386 0.1140 Uiso
H31 H 0.2157 0.1460 0.3873 0.1140 Uiso
C44 C 0.2252(8) -0.0432(17) 0.4501(8) 0.0751 Uani
H32 H 0.2532 -0.0383 0.4563 0.1130 Uiso
H33 H 0.2178 -0.1067 0.4451 0.1130 Uiso
H34 H 0.2155 -0.0199 0.4756 0.1130 Uiso
C45 C 0.0852(6) 0.0461(14) 0.2872(8) 0.0678 Uani
H35 H 0.1044 0.0420 0.2675 0.0820 Uiso
C46 C 0.0661(11) 0.1400(14) 0.2780(13) 0.1249 Uani
H36 H 0.0534 0.1440 0.2466 0.1850 Uiso
H37 H 0.0856 0.1874 0.2847 0.1850 Uiso
H38 H 0.0473 0.1481 0.2969 0.1850 Uiso
C47 C 0.1068(4) 0.0224(16) 0.3344(4) 0.0617 Uani
C48 C 0.0535(8) -0.0212(17) 0.2681(9) 0.0959 Uani
H39 H 0.0408 -0.0018 0.2382 0.1440 Uiso
H40 H 0.0348 -0.0234 0.2876 0.1440 Uiso
H41 H 0.0646 -0.0815 0.2665 0.1440 Uiso
N13 N 0.1684(5) 0.0494(14) 0.3180(5) 0.0591 Uani
H42 H 0.1577 0.0580 0.2898 0.0710 Uiso
H43 H 0.1934 0.0538 0.3266 0.0710 Uiso
loop_
_atom_site_aniso_label
_atom_site_aniso_U_11
_atom_site_aniso_U_22
_atom_site_aniso_U_33
_atom_site_aniso_U_23
_atom_site_aniso_U_13
_atom_site_aniso_U_12
Zn1 0.0420(8) 0.0182(7) 0.0373(8) 0.0040(5) 0.0079(6) -0.0009(6)
I1 0.0495(6) 0.0305(5) 0.0541(6) 0.0131(4) 0.0187(4) 0.0102(4)
I2 0.0639(7) 0.0375(5) 0.0394(5) -0.0049(4) -0.0014(4) -0.0040(4)
N1 0.038(5) 0.022(5) 0.034(5) 0.007(4) -0.007(4) -0.001(4)
C1 0.052(8) 0.026(7) 0.058(9) 0.020(6) 0.012(7) 0.008(6)
C2 0.044(8) 0.045(8) 0.038(7) 0.004(6) -0.008(6) -0.002(6)
C3 0.031(6) 0.020(6) 0.032(6) -0.003(5) -0.001(5) -0.008(5)
C4 0.048(6) 0.026(5) 0.035(6) 0.011(5) 0.011(5) 0.007(5)
C5 0.044(6) 0.022(5) 0.042(5) 0.007(4) 0.006(5) 0.003(4)
C6 0.033(6) 0.029(6) 0.022(5) 0.009(5) -0.008(5) 0.009(5)
N2 0.033(5) 0.010(4) 0.037(5) 0.003(3) -0.002(4) 0.000(4)
C7 0.033(5) 0.013(4) 0.036(5) -0.001(4) -0.005(4) -0.002(4)
N3 0.031(5) 0.019(4) 0.033(5) 0.004(4) -0.004(4) 0.002(4)
C8 0.025(6) 0.016(5) 0.039(6) 0.004(5) -0.005(5) 0.006(4)
N4 0.047(6) 0.012(5) 0.044(6) 0.002(4) 0.007(5) 0.000(4)
N5 0.046(6) 0.022(5) 0.040(6) 0.009(4) 0.003(5) 0.004(4)
C9 0.035(6) 0.018(5) 0.032(6) 0.004(5) -0.005(5) 0.009(5)
C10 0.035(6) 0.024(6) 0.025(5) -0.001(4) -0.001(5) -0.007(5)
C11 0.019(5) 0.023(6) 0.035(6) -0.010(5) -0.002(5) -0.004(4)
C12 0.045(7) 0.025(6) 0.042(7) 0.009(5) 0.007(6) 0.012(5)
C13 0.038(7) 0.067(10) 0.026(6) -0.005(6) -0.024(6) 0.025(7)
Zn2 0.0275(7) 0.0282(7) 0.0340(7) -0.0058(6) -0.0028(6) -0.0007(5)
I3 0.0490(6) 0.0327(5) 0.0620(6) 0.0048(4) 0.0050(5) -0.0049(4)
I4 0.0516(6) 0.0847(8) 0.0444(6) -0.0199(5) 0.0111(5) -0.0104(5)
N6 0.034(6) 0.023(5) 0.037(6) -0.001(4) -0.004(4) -0.007(4)
C14 0.035(7) 0.040(8) 0.056(9) 0.027(7) -0.006(6) -0.001(6)
C15 0.027(6) 0.044(8) 0.036(7) 0.013(6) -0.003(5) 0.003(5)
C16 0.032(6) 0.021(6) 0.030(6) -0.004(5) -0.006(5) -0.005(5)
C17 0.040(7) 0.029(6) 0.033(6) 0.009(5) -0.002(5) 0.003(5)
C18 0.023(6) 0.028(6) 0.044(7) 0.017(5) -0.008(5) -0.004(5)
Zn3 0.0334(8) 0.0201(7) 0.0297(7) 0.0004(5) -0.0070(6) -0.0031(5)
I5 0.0480(5) 0.0257(4) 0.0459(5) -0.0033(3) 0.0027(4) -0.0001(3)
I6 0.0438(5) 0.0388(5) 0.0361(5) 0.0017(3) 0.0015(4) -0.0100(4)
N7 0.038(5) 0.018(4) 0.033(4) -0.002(3) -0.011(4) -0.007(4)
C19 0.033(5) 0.017(4) 0.044(5) -0.003(4) -0.016(4) 0.002(4)
C20 0.034(5) 0.017(5) 0.050(6) -0.002(4) -0.013(5) -0.001(4)
C21 0.036(5) 0.020(5) 0.036(5) 0.008(4) -0.011(4) -0.005(4)
C22 0.041(5) 0.019(5) 0.034(5) -0.005(4) -0.006(4) -0.004(4)
C23 0.038(5) 0.012(4) 0.035(5) -0.001(4) -0.004(4) -0.005(4)
C24 0.038(7) 0.022(6) 0.030(6) 0.001(5) 0.000(5) -0.005(5)
N8 0.029(5) 0.031(5) 0.031(5) -0.011(4) -0.004(4) -0.003(4)
C25 0.028(6) 0.016(5) 0.033(6) 0.002(4) 0.008(5) -0.005(4)
N9 0.041(6) 0.022(5) 0.035(5) 0.003(4) 0.001(5) -0.005(4)
C26 0.028(6) 0.030(6) 0.029(6) -0.011(5) -0.008(5) 0.001(5)
N10 0.027(5) 0.015(4) 0.038(5) 0.004(4) -0.009(4) -0.002(4)
N11 0.039(6) 0.039(6) 0.037(6) -0.004(5) 0.006(5) 0.009(5)
C27 0.029(6) 0.037(7) 0.036(7) -0.004(5) 0.003(5) 0.002(5)
C28 0.032(6) 0.026(6) 0.029(6) 0.008(5) -0.004(5) -0.002(5)
C29 0.034(6) 0.015(5) 0.041(6) -0.001(4) -0.003(5) 0.003(4)
C30 0.044(6) 0.019(5) 0.049(6) -0.003(4) -0.010(5) 0.002(4)
C31 0.045(6) 0.022(5) 0.049(6) -0.013(5) -0.012(5) 0.001(5)
N12 0.038(5) 0.016(4) 0.042(5) -0.003(4) -0.004(4) -0.001(4)
C32 0.041(7) 0.018(6) 0.061(9) 0.007(6) 0.004(6) 0.005(5)
C33 0.038(7) 0.025(6) 0.047(8) 0.000(5) -0.011(6) -0.010(5)
C34 0.029(6) 0.010(5) 0.032(6) 0.001(4) -0.003(5) -0.005(4)
C35 0.040(6) 0.028(6) 0.036(6) 0.004(5) -0.011(5) 0.001(5)
C36 0.042(5) 0.023(5) 0.040(5) -0.004(4) -0.008(5) 0.002(4)
Zn1E 0.042 0.0182 0.0373 -0.004 0.0079 0.0009
Zn2G 0.0275 0.0282 0.034 0.0058 -0.0028 0.0007
N11E 0.039 0.039 0.037 0.004 0.006 -0.009
N12G 0.038 0.016 0.042 0.003 -0.004 0.001
C37 0.050(8) 0.036(7) 0.050(7) -0.007(6) 0.032(6) 0.003(6)
C38 0.054(8) 0.036(7) 0.057(7) -0.003(6) 0.030(7) 0.006(6)
C39 0.059(9) 0.040(8) 0.050(8) 0.000(7) 0.024(8) 0.002(7)
C40 0.085(18) 0.09(2) 0.059(14) 0.012(14) 0.038(14) -0.008(15)
C41 0.064(16) 0.13(3) 0.062(16) -0.015(16) 0.014(13) 0.008(16)
C42 0.058(11) 0.044(10) 0.049(10) 0.001(8) 0.004(8) 0.014(8)
C43 0.045(13) 0.11(2) 0.084(18) 0.031(16) 0.032(12) -0.001(13)
C44 0.083(13) 0.053(11) 0.082(13) 0.014(10) -0.001(11) 0.002(10)
C45 0.071(14) 0.076(15) 0.063(12) -0.021(11) 0.029(11) -0.036(12)
C46 0.17(4) 0.043(16) 0.12(3) 0.007(16) -0.07(3) -0.015(18)
C47 0.074(15) 0.078(16) 0.046(12) -0.011(11) 0.043(11) -0.011(12)
C48 0.100(17) 0.102(18) 0.076(15) -0.022(14) -0.005(13) -0.034(15)
N13 0.049(9) 0.089(12) 0.041(8) -0.009(8) 0.013(7) -0.025(9)
loop_
_geom_bond_atom_site_label_1
_geom_bond_atom_site_label_2
_geom_bond_site_symmetry_1
_geom_bond_site_symmetry_2
Zn1 I1 1_555 1_555
I2 Zn1 1_555 1_555
N1 Zn1 1_555 1_555
C1 N1 1_555 1_555
H1 C1 1_555 1_555
C2 C1 1_555 1_555
H2 C2 1_555 1_555
C3 C2 1_555 1_555
C4 C3 1_555 1_555
H3 C4 1_555 1_555
C5 N1 1_555 1_555
H4 C5 1_555 1_555
C6 C3 1_555 1_555
N2 C6 1_555 1_555
C7 N2 1_555 1_555
N3 C7 1_555 1_555
C8 N3 1_555 1_555
N4 C6 1_555 1_555
N5 C9 1_555 1_555
C9 H5 1_555 1_555
C10 C9 1_555 1_555
H6 C10 1_555 1_555
C11 C7 1_555 1_555
C12 C11 1_555 1_555
H7 C12 1_555 1_555
C13 N5 1_555 1_555
H8 C13 1_555 1_555
Zn2 N5 1_555 1_555
I3 Zn2 1_555 1_555
I4 Zn2 1_555 1_555
N6 C14 1_555 1_555
C14 H9 1_555 1_555
C15 C14 1_555 1_555
H10 C15 1_555 1_555
C16 C8 1_555 1_555
C17 C16 1_555 1_555
H11 C17 1_555 1_555
C18 N6 1_555 1_555
H12 C18 1_555 1_555
Zn3 N6 1_555 1_555
I5 Zn3 1_555 1_555
I6 Zn3 1_555 1_555
N7 Zn3 1_555 1_555
C19 N7 1_555 1_555
H13 C19 1_555 1_555
C20 C19 1_555 1_555
H14 C20 1_555 1_555
C21 C20 1_555 1_555
C22 C21 1_555 1_555
H15 C22 1_555 1_555
C23 N7 1_555 1_555
H16 C23 1_555 1_555
C24 C21 1_555 1_555
N8 C24 1_555 1_555
C25 N8 1_555 1_555
N9 C25 1_555 1_555
C26 N9 1_555 1_555
N10 C24 1_555 1_555
N11 C27 1_555 1_555
C27 H17 1_555 1_555
C28 C27 1_555 1_555
H18 C28 1_555 1_555
C29 C25 1_555 1_555
C30 C29 1_555 1_555
H19 C30 1_555 1_555
C31 N11 1_555 1_555
H20 C31 1_555 1_555
N12 C32 1_555 1_555
C32 H21 1_555 1_555
C33 C32 1_555 1_555
H22 C33 1_555 1_555
C34 C26 1_555 1_555
C35 C34 1_555 1_555
H23 C35 1_555 1_555
C36 N12 1_555 1_555
H24 C36 1_555 1_555
C37 C38 1_555 1_555
C38 C39 1_555 1_555
C39 H25 1_555 1_555
C40 C39 1_555 1_555
H26 C40 1_555 1_555
C41 C40 1_555 1_555
H27 C41 1_555 1_555
C42 C38 1_555 1_555
H28 C42 1_555 1_555
C43 C42 1_555 1_555
H29 C43 1_555 1_555
H30 C43 1_555 1_555
H31 C43 1_555 1_555
C44 C42 1_555 1_555
H32 C44 1_555 1_555
H33 C44 1_555 1_555
H34 C44 1_555 1_555
C45 H35 1_555 1_555
C46 C45 1_555 1_555
H36 C46 1_555 1_555
H37 C46 1_555 1_555
H38 C46 1_555 1_555
C47 C37 1_555 1_555
C48 C45 1_555 1_555
H39 C48 1_555 1_555
H40 C48 1_555 1_555
H41 C48 1_555 1_555
N13 C37 1_555 1_555
H42 N13 1_555 1_555
H43 N13 1_555 1_555
Zn1E N11 1_555 1_555
Zn2G N12 1_555 1_555
N11E Zn1 1_555 1_555
N12G Zn2 1_555 1_555
C4 C5 1_555 1_555
C8 N4 1_555 1_555
C10 C11 1_555 1_555
C12 C13 1_555 1_555
C15 C16 1_555 1_555
C17 C18 1_555 1_555
C22 C23 1_555 1_555
C26 N10 1_555 1_555
C28 C29 1_555 1_555
C30 C31 1_555 1_555
C33 C34 1_555 1_555
C35 C36 1_555 1_555
C41 C47 1_555 1_555
C45 C47 1_555 1_555

#END
