
#######################################################################
#
#                 Cambridge Crystallographic Data Centre
#                                CCDC 
#
#######################################################################
#
# If this CIF has been generated from an entry in the Cambridge 
# Structural Database, then it will include bibliographic, chemical, 
# crystal, experimental, refinement or atomic coordinate data resulting 
# from the CCDC's data processing and validation procedures.
#
#######################################################################

data_KINNEC
_chemical_formula_moiety         '(C12 Cu1 F4 N4 1-)n'
_symmetry_cell_setting           tetragonal
_symmetry_space_group_name_H-M   'P 42/m m c'
_symmetry_Int_Tables_number      131
_space_group_name_Hall           '-P 4c 2'
loop_
_symmetry_equiv_pos_site_id
_symmetry_equiv_pos_as_xyz
1 x,y,z
2 x,-y,-z
3 -x,-y,z
4 -x,y,-z
5 y,x,1/2-z
6 y,-x,1/2+z
7 -y,x,1/2+z
8 -y,-x,1/2-z
9 -x,-y,-z
10 -x,y,z
11 x,y,-z
12 x,-y,z
13 -y,-x,1/2+z
14 -y,x,1/2-z
15 y,-x,1/2-z
16 y,x,1/2+z
_cell_length_a                   7.47360(10)
_cell_length_b                   7.47360(10)
_cell_length_c                   22.0963(4)
_cell_angle_alpha                90
_cell_angle_beta                 90
_cell_angle_gamma                90
_cell_volume                     1234.18
loop_
_atom_site_label
_atom_site_type_symbol
_atom_site_fract_x
_atom_site_fract_y
_atom_site_fract_z
Cu1 Cu 0.5000 0.5000 0.2500
C1 C 0.5000 0.0000 0.0662(2)
C2 C 0.5000 0.1585(5) 0.16700(14)
N1 N 0.5000 0.2816(4) 0.19771(12)
C3 C 0.5000 0.1539(5) 0.03137(15)
C4 C 0.5000 0.0000 0.1326(2)
F1 F 0.5000 0.3121(4) 0.05868(10)
C2B C 0.5000 -0.1585(5) 0.16700(14)
N1B N 0.5000 -0.2816(4) 0.19771(12)
C3B C 0.5000 -0.1539(5) 0.03137(15)
F1B F 0.5000 -0.3121(4) 0.05868(10)
C1A C 0.5000 -0.0000 -0.0662(2)
C2C C 0.5000 0.1585(5) -0.16700(14)
N1C N 0.5000 0.2816(4) -0.19771(12)
C3C C 0.5000 0.1539(5) -0.03137(15)
C4A C 0.5000 -0.0000 -0.1326(2)
F1C F 0.5000 0.3121(4) -0.05868(10)
C2A C 0.5000 -0.1585(5) -0.16700(14)
N1A N 0.5000 -0.2816(4) -0.19771(12)
C3A C 0.5000 -0.1539(5) -0.03137(15)
F1A F 0.5000 -0.3121(4) -0.05868(10)
Cu1_2 Cu 0.5000 -0.5000 0.2500
Cu1A Cu 0.5000 -0.5000 -0.2500
Cu1A_2 Cu 0.5000 0.5000 -0.2500
N1B_2 N 0.5000 0.7184(4) 0.19771(12)
N1D N 0.2816(4) 0.5000 0.30229(12)
N1G N 0.7184(4) 0.5000 0.30229(12)
loop_
_geom_bond_atom_site_label_1
_geom_bond_atom_site_label_2
_geom_bond_site_symmetry_1
_geom_bond_site_symmetry_2
Cu1 N1 1_555 1_555
C1 C3 1_555 1_555
C2 N1 1_555 1_555
C3 F1 1_555 1_555
C4 C1 1_555 1_555
C2B C4 1_555 1_555
N1B C2B 1_555 1_555
C3B C1 1_555 1_555
F1B C3B 1_555 1_555
C1A C3C 1_555 1_555
C2C N1C 1_555 1_555
N1C Cu1A_2 1_555 1_555
C3C C3 1_555 1_555
C4A C1A 1_555 1_555
F1C C3C 1_555 1_555
C2A C4A 1_555 1_555
N1A C2A 1_555 1_555
C3A C3B 1_555 1_555
F1A C3A 1_555 1_555
Cu1_2 N1B 1_555 1_555
Cu1A N1A 1_555 1_555
N1B_2 Cu1 1_555 1_555
N1D Cu1 1_555 1_555
N1G Cu1 1_555 1_555
C2 C4 1_555 1_555
C1A C3A 1_555 1_555
C2C C4A 1_555 1_555

#END
