
#######################################################################
#
#                 Cambridge Crystallographic Data Centre
#                                CCDC 
#
#######################################################################
#
# If this CIF has been generated from an entry in the Cambridge 
# Structural Database, then it will include bibliographic, chemical, 
# crystal, experimental, refinement or atomic coordinate data resulting 
# from the CCDC's data processing and validation procedures.
#
#######################################################################

data_KINNIG
_chemical_formula_moiety         '(C20 H20 Cu1 F4 N5)n'
_symmetry_cell_setting           orthorhombic
_symmetry_space_group_name_H-M   'P n n a'
_symmetry_Int_Tables_number      52
_space_group_name_Hall           '-P 2a 2bc'
loop_
_symmetry_equiv_pos_site_id
_symmetry_equiv_pos_as_xyz
1 x,y,z
2 1/2-x,-y,z
3 1/2-x,1/2+y,1/2-z
4 x,1/2-y,1/2-z
5 -x,-y,-z
6 1/2+x,y,-z
7 1/2+x,1/2-y,1/2+z
8 -x,1/2+y,1/2+z
_cell_length_a                   22.1760(4)
_cell_length_b                   9.6360(3)
_cell_length_c                   11.2931(3)
_cell_angle_alpha                90
_cell_angle_beta                 90
_cell_angle_gamma                90
_cell_volume                     2413.2
loop_
_atom_site_label
_atom_site_type_symbol
_atom_site_fract_x
_atom_site_fract_y
_atom_site_fract_z
_atom_site_U_iso_or_equiv
_atom_site_thermal_displace_type
N3 N 0.60952(15) 0.7500 -0.2500 0.0209 Uani
C9 C 0.64830(13) 0.7544(3) -0.1400(3) 0.0238 Uani
H1 H 0.6216 0.7615 -0.0699 0.0290 Uiso
H2 H 0.6734 0.8393 -0.1425 0.0290 Uiso
C10 C 0.56999(13) 0.8792(3) -0.2485(3) 0.0269 Uani
H3 H 0.5410 0.8709 -0.1821 0.0320 Uiso
H4 H 0.5959 0.9606 -0.2322 0.0320 Uiso
C11 C 0.68951(14) 0.6295(3) -0.1241(3) 0.0290 Uani
H5 H 0.7180 0.6248 -0.1903 0.0440 Uiso
H6 H 0.6652 0.5446 -0.1220 0.0440 Uiso
H7 H 0.7119 0.6387 -0.0496 0.0440 Uiso
C12 C 0.53488(16) 0.9066(4) -0.3609(4) 0.0413 Uani
H8 H 0.5111 0.8243 -0.3812 0.0620 Uiso
H9 H 0.5630 0.9274 -0.4255 0.0620 Uiso
H10 H 0.5079 0.9858 -0.3487 0.0620 Uiso
C9C C 0.64830(13) 0.7456(3) -0.3600(3) 0.0238 Uani
H1C H 0.6216 0.7385 -0.4301 0.0290 Uiso
H2C H 0.6734 0.6607 -0.3575 0.0290 Uiso
C10C C 0.56999(13) 0.6208(3) -0.2515(3) 0.0269 Uani
H3C H 0.5410 0.6291 -0.3179 0.0320 Uiso
H4C H 0.5959 0.5394 -0.2678 0.0320 Uiso
C11C C 0.68951(14) 0.8705(3) -0.3759(3) 0.0290 Uani
H5C H 0.7180 0.8752 -0.3097 0.0440 Uiso
H6C H 0.6652 0.9554 -0.3780 0.0440 Uiso
H7C H 0.7119 0.8613 -0.4504 0.0440 Uiso
C12C C 0.53488(16) 0.5934(4) -0.1391(4) 0.0413 Uani
H8C H 0.5111 0.6757 -0.1188 0.0620 Uiso
H9C H 0.5630 0.5726 -0.0745 0.0620 Uiso
H10C H 0.5079 0.5142 -0.1513 0.0620 Uiso
Cu1 Cu 0.2500 0.0000 0.99140(4) 0.0141 Uani
F1 F 0.56251(7) 0.35390(18) 0.56017(13) 0.0211 Uani
F2 F 0.44515(7) 0.36117(17) 0.56326(13) 0.0204 Uani
C1 C 0.63583(15) 0.2500 0.7500 0.0146 Uani
N1 N 0.70031(10) 0.1180(2) 0.9002(2) 0.0187 Uani
N2 N 0.30517(10) 0.1098(2) 0.8902(2) 0.0199 Uani
C2 C 0.43775(15) 0.2500 0.7500 0.0131 Uani
C3 C 0.53495(11) 0.3022(3) 0.6567(2) 0.0139 Uani
C4 C 0.47272(11) 0.3043(3) 0.6578(2) 0.0146 Uani
C5 C 0.33719(11) 0.1716(3) 0.8291(2) 0.0156 Uani
C6 C 0.66994(11) 0.1775(2) 0.8343(2) 0.0146 Uani
C7 C 0.37190(16) 0.2500 0.7500 0.0159 Uani
C8 C 0.56982(15) 0.2500 0.7500 0.0130 Uani
F1C F 0.56251(7) 0.14610(18) 0.93983(13) 0.0211 Uani
F2C F 0.44515(7) 0.13883(17) 0.93674(13) 0.0204 Uani
N1C N 0.70031(10) 0.3820(2) 0.5998(2) 0.0187 Uani
N2C N 0.30517(10) 0.3902(2) 0.6098(2) 0.0199 Uani
C3C C 0.53495(11) 0.1978(3) 0.8433(2) 0.0139 Uani
C4C C 0.47272(11) 0.1957(3) 0.8422(2) 0.0146 Uani
C5C C 0.33719(11) 0.3284(3) 0.6709(2) 0.0156 Uani
C6C C 0.66994(11) 0.3225(2) 0.6657(2) 0.0146 Uani
Cu1B Cu 0.2500 0.5000 0.50860(4) 0.0141 Uani
Cu1D Cu 0.7500 0.0000 1.00860(4) 0.0141 Uani
Cu1F Cu 0.7500 0.5000 0.49140(4) 0.0141 Uani
N1D N 0.29969(10) -0.1180(2) 1.0998(2) 0.0187 Uani
N1E N 0.20031(10) 0.1180(2) 1.0998(2) 0.0187 Uani
N2A N 0.19483(10) -0.1098(2) 0.8902(2) 0.0199 Uani
loop_
_atom_site_aniso_label
_atom_site_aniso_U_11
_atom_site_aniso_U_22
_atom_site_aniso_U_33
_atom_site_aniso_U_23
_atom_site_aniso_U_13
_atom_site_aniso_U_12
N3 0.0183(15) 0.0189(15) 0.0254(17) -0.0066(13) 0.000 0.000
C9 0.0215(13) 0.0253(13) 0.0245(14) -0.0066(11) 0.0005(11) -0.0025(11)
C10 0.0229(13) 0.0212(14) 0.0366(16) -0.0098(12) -0.0017(12) 0.0034(11)
C11 0.0278(15) 0.0287(15) 0.0306(15) -0.0008(12) -0.0035(12) 0.0011(12)
C12 0.0362(18) 0.0337(17) 0.054(2) -0.0112(16) -0.0169(16) 0.0132(15)
C9C 0.0215 0.0253 0.0245 -0.0066 -0.0005 0.0025
C10C 0.0229 0.0212 0.0366 -0.0098 0.0017 -0.0034
C11C 0.0278 0.0287 0.0306 -0.0008 0.0035 -0.0011
C12C 0.0362 0.0337 0.054 -0.0112 0.0169 -0.0132
Cu1 0.0106(3) 0.0175(3) 0.0142(3) 0.000 0.000 -0.00101(18)
F1 0.0140(7) 0.0334(9) 0.0160(8) 0.0101(6) 0.0011(6) -0.0034(6)
F2 0.0134(7) 0.0318(9) 0.0159(8) 0.0106(6) -0.0034(6) -0.0007(6)
C1 0.0107 0.0166 0.0165 0.0038 0 0
N1 0.011 0.0232 0.0218 0.0049 0.0001 0.0001
N2 0.0115(10) 0.0286(12) 0.0195(11) 0.0056(9) -0.0007(8) -0.0025(9)
C2 0.0111(16) 0.0159(16) 0.0124(16) 0.0007(12) 0.000 0.000
C3 0.0131(12) 0.0160(11) 0.0126(11) 0.0028(9) 0.0023(9) -0.0027(9)
C4 0.0133(12) 0.0180(12) 0.0125(11) 0.0025(9) -0.0034(9) 0.0003(9)
C5 0.0116(11) 0.0199(12) 0.0154(12) 0.0001(10) -0.0028(9) 0.0010(9)
C6 0.0103 0.016 0.0174 -0.0001 0.0028 -0.0026
C7 0.0107(16) 0.0185(16) 0.0185(17) 0.0042(13) 0.000 0.000
C8 0.0107(16) 0.0137(15) 0.0145(16) -0.0007(12) 0.000 0.000
F1C 0.014 0.0334 0.016 0.0101 -0.0011 0.0034
F2C 0.0134 0.0318 0.0159 0.0106 0.0034 0.0007
N1C 0.011 0.0232 0.0218 0.0049 -0.0001 -0.0001
N2C 0.0115 0.0286 0.0195 0.0056 0.0007 0.0025
C3C 0.0131 0.016 0.0126 0.0028 -0.0023 0.0027
C4C 0.0133 0.018 0.0125 0.0025 0.0034 -0.0003
C5C 0.0116 0.0199 0.0154 0.0001 0.0028 -0.001
C6C 0.0103 0.016 0.0174 -0.0001 -0.0028 0.0026
Cu1B 0.0106 0.0175 0.0142 0 0 0.00101
Cu1D 0.0106 0.0175 0.0142 0 0 -0.00101
Cu1F 0.0106 0.0175 0.0142 0 0 0.00101
N1D 0.011 0.0232 0.0218 0.0049 0.0001 0.0001
N1E 0.011 0.0232 0.0218 -0.0049 -0.0001 0.0001
N2A 0.0115 0.0286 0.0195 -0.0056 0.0007 -0.0025
loop_
_geom_bond_atom_site_label_1
_geom_bond_atom_site_label_2
_geom_bond_site_symmetry_1
_geom_bond_site_symmetry_2
Cu1 N2 1_555 1_555
F1 C3 1_555 1_555
F2 C4 1_555 1_555
C1 C6 1_555 1_555
N1 C6 1_555 1_555
N2 C5 1_555 1_555
C2 C4 1_555 1_555
C3 C4 1_555 1_555
C5 C7 1_555 1_555
C7 C2 1_555 1_555
C8 C1 1_555 1_555
N3 C9 1_555 1_555
C9 H1 1_555 1_555
H2 C9 1_555 1_555
C10 N3 1_555 1_555
H3 C10 1_555 1_555
H4 C10 1_555 1_555
C11 C9 1_555 1_555
H5 C11 1_555 1_555
H6 C11 1_555 1_555
H7 C11 1_555 1_555
C12 C10 1_555 1_555
H8 C12 1_555 1_555
H9 C12 1_555 1_555
H10 C12 1_555 1_555
F1C C3C 1_555 1_555
F2C C4C 1_555 1_555
N1C C6C 1_555 1_555
N2C C5C 1_555 1_555
C3C C8 1_555 1_555
C4C C2 1_555 1_555
C5C C7 1_555 1_555
C6C C1 1_555 1_555
Cu1B N2C 1_555 1_555
Cu1D N1 1_555 1_555
Cu1F N1C 1_555 1_555
N1D Cu1 1_555 1_555
N1E Cu1 1_555 1_555
N2A Cu1 1_555 1_555
C9C N3 1_555 1_555
H1C C9C 1_555 1_555
H2C C9C 1_555 1_555
C10C N3 1_555 1_555
H3C C10C 1_555 1_555
H4C C10C 1_555 1_555
C11C C9C 1_555 1_555
H5C C11C 1_555 1_555
H6C C11C 1_555 1_555
H7C C11C 1_555 1_555
C12C C10C 1_555 1_555
H8C C12C 1_555 1_555
H9C C12C 1_555 1_555
H10C C12C 1_555 1_555
C3 C8 1_555 1_555
C3C C4C 1_555 1_555

#END
