
#######################################################################
#
#                 Cambridge Crystallographic Data Centre
#                                CCDC 
#
#######################################################################
#
# If this CIF has been generated from an entry in the Cambridge 
# Structural Database, then it will include bibliographic, chemical, 
# crystal, experimental, refinement or atomic coordinate data resulting 
# from the CCDC's data processing and validation procedures.
#
#######################################################################

data_BAZJET
_chemical_formula_moiety         '(C45 H41 Mn3 N27 O4)n'
_symmetry_cell_setting           hexagonal
_symmetry_space_group_name_H-M   'P 63/m'
_symmetry_Int_Tables_number      176
_space_group_name_Hall           '-P 6c'
loop_
_symmetry_equiv_pos_site_id
_symmetry_equiv_pos_as_xyz
1 x,y,z
2 -y,x-y,z
3 -x+y,-x,z
4 -x,-y,1/2+z
5 y,-x+y,1/2+z
6 x-y,x,1/2+z
7 -x,-y,-z
8 y,-x+y,-z
9 x-y,x,-z
10 x,y,1/2-z
11 -y,x-y,1/2-z
12 -x+y,-x,1/2-z
_cell_length_a                   20.792(4)
_cell_length_b                   20.792(4)
_cell_length_c                   13.814(3)
_cell_angle_alpha                90
_cell_angle_beta                 90
_cell_angle_gamma                120
_cell_volume                     5171.81
loop_
_atom_site_label
_atom_site_type_symbol
_atom_site_fract_x
_atom_site_fract_y
_atom_site_fract_z
Mn1 Mn 0.62052(2) 0.40103(2) 0.7500
O1 O 0.6667 0.3333 0.7500
O2 O 0.57726(13) 0.47211(13) 0.7500
N1 N 0.54063(9) 0.31651(10) 0.63680(14)
N2 N 0.52882(9) 0.24621(10) 0.64401(14)
N3 N 0.47157(11) 0.20080(12) 0.59079(17)
N4 N 0.44424(12) 0.24006(12) 0.54645(18)
C1 C 0.53601(12) 0.50506(12) 0.50930(17)
C2 C 0.54205(12) 0.44260(12) 0.53560(17)
H1 H 0.5897 0.4485 0.5476
C3 C 0.48017(12) 0.37346(12) 0.54406(18)
C4 C 0.40871(13) 0.36334(14) 0.5232(2)
H2 H 0.3660 0.3152 0.5273
C5 C 0.59855(12) 0.57716(13) 0.5028(2)
H3 H 0.6465 0.5844 0.5168
C6 C 0.48806(12) 0.31032(13) 0.57576(17)
N5 N 0.5636(4) 0.5741(3) 0.7500
C7 C 0.6064(3) 0.5416(3) 0.7500
H4 H 0.6590 0.5718 0.7500
C8 C 0.4823(5) 0.5260(6) 0.7500
C9 C 0.6064(8) 0.6585(5) 0.7500
Mn1B Mn 0.78051(3) 0.37948(2) 0.7500
Mn1A Mn 0.59897(2) 0.21949(3) 0.7500
Mn1C Mn 0.37948(2) 0.59897(2) 0.2500
Mn1D Mn 0.40103(2) 0.78051(3) 0.2500
Mn1E Mn 1.21949(3) 0.62052(2) 1.2500
Mn1C_2 Mn 1.37948(2) 0.59897(2) 1.2500
Mn1D_2 Mn 0.40103(2) -0.21949(3) 1.2500
Mn1E_2 Mn 0.21949(3) -0.37948(2) 1.2500
O2B O 0.89485(18) 0.42274(13) 0.7500
O2A O 0.52789(13) 0.10515(18) 0.7500
N1F N 0.45937(9) 0.68349(10) 0.36320(14)
N1I N 0.54063(9) 0.31651(10) 0.86320(14)
N1B N 0.77588(13) 0.45937(9) 0.63680(14)
N1K N 0.77588(13) 0.45937(9) 0.86320(14)
N1A N 0.68349(10) 0.22412(13) 0.63680(14)
N1J N 0.68349(10) 0.22412(13) 0.86320(14)
N1E N 1.22412(13) 0.54063(9) 1.13680(14)
N1D N 0.31651(10) -0.22412(13) 1.13680(14)
N2F N 0.47118(9) 0.75379(10) 0.35599(14)
N2B N 0.71739(13) 0.47118(9) 0.64401(14)
N2K N 0.71739(13) 0.47118(9) 0.85599(14)
N2A N 0.75379(10) 0.28261(13) 0.64401(14)
N2J N 0.75379(10) 0.28261(13) 0.85599(14)
N2I N 0.52882(9) 0.24621(10) 0.85599(14)
N2E N 1.28261(13) 0.52882(9) 1.14401(14)
N2D N 0.24621(10) -0.28261(13) 1.14401(14)
N3F N 0.52843(11) 0.79920(12) 0.40921(17)
N3K N 0.72923(16) 0.52843(11) 0.90921(17)
N3E N 1.27077(16) 0.47157(11) 1.09079(17)
N3J N 0.79920(12) 0.27077(16) 0.90921(17)
N3D N 0.20080(12) -0.27077(16) 1.09079(17)
N4F N 0.55576(12) 0.75994(12) 0.45355(18)
N4K N 0.79582(17) 0.55576(12) 0.95355(18)
N4E N 1.20418(17) 0.44424(12) 1.04645(18)
N4J N 0.75994(12) 0.20418(17) 0.95355(18)
N4D N 0.24006(12) -0.20418(17) 1.04645(18)
C1F C 0.46399(12) 0.49494(12) 0.49070(17)
C1K C 0.96905(17) 0.46399(12) 0.99070(17)
C1E C 1.03095(17) 0.53601(12) 1.00930(17)
C1J C 0.49494(12) 0.03095(17) 0.99070(17)
C1D C 0.50506(12) -0.03095(17) 1.00930(17)
C2F C 0.45795(12) 0.55740(12) 0.46440(17)
C2K C 0.90055(17) 0.45795(12) 0.96440(17)
C2E C 1.09945(17) 0.54205(12) 1.03560(17)
C2J C 0.55740(12) 0.09945(17) 0.96440(17)
C2D C 0.44260(12) -0.09945(17) 1.03560(17)
H1F H 0.4103 0.5515 0.4524
H1K H 0.8588 0.4103 0.9524
H1E H 1.1412 0.5897 1.0476
H1J H 0.5515 0.1412 0.9524
H1D H 0.4485 -0.1412 1.0476
C3F C 0.51983(12) 0.62654(12) 0.45594(18)
C3K C 0.89329(17) 0.51983(12) 0.95594(18)
C3E C 1.10671(17) 0.48017(12) 1.04406(18)
C3J C 0.62654(12) 0.10671(17) 0.95594(18)
C3D C 0.37346(12) -0.10671(17) 1.04406(18)
C4F C 0.59129(13) 0.63666(14) 0.4768(2)
C4K C 0.95463(19) 0.59129(13) 0.9768(2)
C4E C 1.04537(19) 0.40871(13) 1.0232(2)
C4J C 0.63666(14) 0.04537(19) 0.9768(2)
C4D C 0.36334(14) -0.04537(19) 1.0232(2)
H2F H 0.6340 0.6848 0.4727
H2K H 0.9492 0.6340 0.9727
H2E H 1.0508 0.3660 1.0273
H2J H 0.6848 0.0508 0.9727
H2D H 0.3152 -0.0508 1.0273
C5F C 0.40145(12) 0.42284(13) 0.4972(2)
C5E C 1.02139(18) 0.59855(12) 1.0028(2)
C5K C 0.97861(18) 0.40145(12) 0.9972(2)
C5D C 0.57716(13) -0.02139(18) 1.0028(2)
C5J C 0.42284(13) 0.02139(18) 0.9972(2)
H3F H 0.3535 0.4156 0.4832
H3E H 1.0621 0.6465 1.0168
H3K H 0.9379 0.3535 0.9832
H3D H 0.5844 -0.0621 1.0168
H3J H 0.4156 0.0621 0.9832
C6F C 0.51194(12) 0.68968(13) 0.42424(17)
C6K C 0.82226(18) 0.51194(12) 0.92424(17)
C6E C 1.17774(18) 0.48806(12) 1.07576(17)
C6J C 0.68968(13) 0.17774(18) 0.92424(17)
C6D C 0.31032(13) -0.17774(18) 1.07576(17)
N5B N 1.0105(5) 0.4364(4) 0.7500
N5A N 0.4259(3) -0.0105(5) 0.7500
C7B C 0.9352(4) 0.3936(3) 0.7500
C7A C 0.4584(3) 0.0648(4) 0.7500
H4B H 0.9128 0.3410 0.7500
H4A H 0.4282 0.0872 0.7500
C8B C 1.0437(8) 0.5177(5) 0.7500
C8A C 0.4740(6) -0.0437(8) 0.7500
C9B C 1.0521(9) 0.3936(8) 0.7500
C9A C 0.3415(5) -0.0521(9) 0.7500
loop_
_geom_bond_atom_site_label_1
_geom_bond_atom_site_label_2
_geom_bond_site_symmetry_1
_geom_bond_site_symmetry_2
Mn1 O1 1_555 1_555
O1 Mn1B 1_555 1_555
O2 Mn1 1_555 1_555
N1 Mn1 1_555 1_555
N2 N1 1_555 1_555
N3 N2 1_555 1_555
N4 N3 1_555 1_555
C1 C2 1_555 1_555
C2 H1 1_555 1_555
C3 C2 1_555 1_555
C4 C3 1_555 1_555
H2 C4 1_555 1_555
C5 C1 1_555 1_555
H3 C5 1_555 1_555
C6 N1 1_555 1_555
N5 C7 1_555 1_555
C7 O2 1_555 1_555
H4 C7 1_555 1_555
C8 N5 1_555 1_555
C9 N5 1_555 1_555
Mn1B O2B 1_555 1_555
Mn1A O1 1_555 1_555
Mn1C N1F 1_555 1_555
Mn1D N2F 1_555 1_555
Mn1E N1E 1_555 1_555
Mn1C_2 N2E 1_555 1_555
Mn1D_2 N1D 1_555 1_555
Mn1E_2 N2D 1_555 1_555
O2B C7B 1_555 1_555
O2A Mn1A 1_555 1_555
N1F N2F 1_555 1_555
N1I Mn1 1_555 1_555
N1B Mn1B 1_555 1_555
N1K Mn1B 1_555 1_555
N1A Mn1A 1_555 1_555
N1J Mn1A 1_555 1_555
N1E N2E 1_555 1_555
N1D N2D 1_555 1_555
N2F N3F 1_555 1_555
N2B Mn1 1_555 1_555
N2K Mn1 1_555 1_555
N2A Mn1B 1_555 1_555
N2J Mn1B 1_555 1_555
N2I Mn1A 1_555 1_555
N2E N3E 1_555 1_555
N2D N3D 1_555 1_555
N3F N4F 1_555 1_555
N3K N2K 1_555 1_555
N3E N4E 1_555 1_555
N3J N2J 1_555 1_555
N3D N4D 1_555 1_555
N4F C6F 1_555 1_555
N4K N3K 1_555 1_555
N4E C6E 1_555 1_555
N4J N3J 1_555 1_555
N4D C6D 1_555 1_555
C1F C1 1_555 1_555
C1K C1E 1_555 1_555
C1E C2E 1_555 1_555
C1J C1D 1_555 1_555
C1D C2D 1_555 1_555
C2F C1F 1_555 1_555
C2K C1K 1_555 1_555
C2E H1E 1_555 1_555
C2J C1J 1_555 1_555
C2D H1D 1_555 1_555
H1F C2F 1_555 1_555
H1K C2K 1_555 1_555
H1J C2J 1_555 1_555
C3F C2F 1_555 1_555
C3K C2K 1_555 1_555
C3E C2E 1_555 1_555
C3J C2J 1_555 1_555
C3D C2D 1_555 1_555
C4F C5 1_555 1_555
C4K C3K 1_555 1_555
C4E C3E 1_555 1_555
C4J C3J 1_555 1_555
C4D C3D 1_555 1_555
H2F C4F 1_555 1_555
H2K C4K 1_555 1_555
H2E C4E 1_555 1_555
H2J C4J 1_555 1_555
H2D C4D 1_555 1_555
C5F C4 1_555 1_555
C5E C1E 1_555 1_555
C5K C1K 1_555 1_555
C5D C1D 1_555 1_555
C5J C1J 1_555 1_555
H3F C5F 1_555 1_555
H3E C5E 1_555 1_555
H3K C5K 1_555 1_555
H3D C5D 1_555 1_555
H3J C5J 1_555 1_555
C6F N1F 1_555 1_555
C6K N1K 1_555 1_555
C6E N1E 1_555 1_555
C6J N1J 1_555 1_555
C6D N1D 1_555 1_555
N5B C7B 1_555 1_555
N5A C7A 1_555 1_555
C7B H4B 1_555 1_555
C7A O2A 1_555 1_555
H4A C7A 1_555 1_555
C8B N5B 1_555 1_555
C8A N5A 1_555 1_555
C9B N5B 1_555 1_555
C9A N5A 1_555 1_555
N2 Mn1A 1_555 1_555
N4 C6 1_555 1_555
C3 C6 1_555 1_555
N1K N2K 1_555 1_555
N1J N2J 1_555 1_555
N4K C6K 1_555 1_555
N4J C6J 1_555 1_555
C1F C5F 1_555 1_555
C3F C4F 1_555 1_555
C3F C6F 1_555 1_555
C3K C6K 1_555 1_555
C3E C6E 1_555 1_555
C3J C6J 1_555 1_555
C3D C6D 1_555 1_555
C4K C5E 1_555 1_555
C4E C5K 1_555 1_555
C4J C5D 1_555 1_555
C4D C5J 1_555 1_555

#END
