
#######################################################################
#
#                 Cambridge Crystallographic Data Centre
#                                CCDC 
#
#######################################################################
#
# If this CIF has been generated from an entry in the Cambridge 
# Structural Database, then it will include bibliographic, chemical, 
# crystal, experimental, refinement or atomic coordinate data resulting 
# from the CCDC's data processing and validation procedures.
#
#######################################################################

data_BAZJIX
_chemical_formula_moiety         '(C72 H82 Mn5 N40 O10)n'
_symmetry_cell_setting           monoclinic
_symmetry_space_group_name_H-M   'C 2/c'
_symmetry_Int_Tables_number      15
_space_group_name_Hall           '-C 2yc'
loop_
_symmetry_equiv_pos_site_id
_symmetry_equiv_pos_as_xyz
1 x,y,z
2 -x,y,1/2-z
3 1/2+x,1/2+y,z
4 1/2-x,1/2+y,1/2-z
5 -x,-y,-z
6 x,-y,1/2+z
7 1/2-x,1/2-y,-z
8 1/2+x,1/2-y,1/2+z
_cell_length_a                   36.795(7)
_cell_length_b                   15.904(3)
_cell_length_c                   26.761(5)
_cell_angle_alpha                90
_cell_angle_beta                 131.73(3)
_cell_angle_gamma                90
_cell_volume                     11687.1
loop_
_atom_site_label
_atom_site_type_symbol
_atom_site_fract_x
_atom_site_fract_y
_atom_site_fract_z
Mn1 Mn 1.0000 1.00070(3) 0.2500
Mn2 Mn 0.987099(15) 0.86328(3) 0.127852(18)
Mn3 Mn 0.888587(14) 0.99964(2) 0.087102(18)
O1 O 0.96589(6) 0.98032(12) 0.14728(8)
N1 N 0.90077(8) 1.10428(15) 0.15795(10)
N2 N 0.94418(8) 1.09463(15) 0.22130(10)
N3 N 0.94590(10) 1.14362(18) 0.26286(12)
N4 N 0.90425(11) 1.1864(2) 0.22840(13)
N5 N 1.10126(7) 0.89695(14) 0.34139(10)
N6 N 1.05813(8) 0.90855(14) 0.27924(10)
N7 N 1.05493(8) 0.85846(15) 0.23719(11)
N8 N 1.09577(8) 0.81269(16) 0.27059(11)
N9 N 0.89638(10) 0.8173(2) -0.02817(13)
N10 N 0.91289(9) 0.86447(18) 0.02475(11)
N11 N 0.87653(8) 0.90438(16) 0.01235(10)
N12 N 0.83502(8) 0.88613(16) -0.04913(10)
N13 N 0.65028(9) 0.61873(16) -0.46594(11)
N14 N 0.60939(8) 0.59282(16) -0.52591(10)
N15 N 0.57084(9) 0.61483(19) -0.53555(12)
N16 N 0.58576(10) 0.6604(2) -0.48268(13)
C1 C 0.87738(11) 1.1609(2) 0.16456(14)
C2 C 0.76486(12) 1.2364(2) -0.00651(15)
C3 C 0.81165(11) 1.2026(2) 0.04574(14)
H1 H 0.8315 1.1844 0.0368
C4 C 0.82851(11) 1.1960(2) 0.10957(14)
C5 C 0.79979(12) 1.2253(2) 0.12305(15)
H2 H 0.8121 1.2221 0.1674
C6 C 0.74561(12) 1.2415(3) -0.07344(15)
H3 H 0.7643 1.2217 -0.0838
C7 C 1.12333(9) 0.83726(18) 0.33422(12)
C8 C 1.19301(10) 0.81317(19) 0.45456(13)
H4 H 1.1775 0.8478 0.4644
C9 C 1.17108(9) 0.79916(18) 0.38919(13)
C10 C 1.19323(11) 0.7455(2) 0.37386(14)
H5 H 1.1775 0.7349 0.3285
C11 C 1.23717(11) 0.7089(2) 0.42423(13)
H6 H 1.2518 0.6731 0.4135
C12 C 1.23869(9) 0.77632(18) 0.50743(12)
C13 C 0.84820(11) 0.8322(2) -0.07269(14)
C14 C 0.83069(13) 0.7303(3) -0.15789(19)
H7 H 0.8639 0.7136 -0.1267
C15 C 0.81388(11) 0.7936(3) -0.13939(15)
C16 C 0.76574(12) 0.8153(3) -0.18347(16)
H8 H 0.7544 0.8566 -0.1710
C17 C 0.73232(12) 0.7772(3) -0.24763(16)
C18 C 0.68173(13) 0.7980(3) -0.29387(18)
H9 H 0.6697 0.8384 -0.2818
C19 C 0.65038(12) 0.7602(3) -0.35540(17)
H10 H 0.6168 0.7744 -0.3856
C20 C 0.66764(11) 0.7000(3) -0.37455(15)
C21 C 0.71630(12) 0.6777(3) -0.33031(15)
H11 H 0.7276 0.6361 -0.3426
C22 C 0.74938(12) 0.7170(3) -0.26662(16)
C23 C 0.79980(12) 0.6937(3) -0.21953(19)
H12 H 0.8117 0.6525 -0.2313
C24 C 0.63432(11) 0.6598(2) -0.44117(14)
O2 O 0.81219(8) 1.00909(13) 0.02986(11)
N17 N 0.73308(10) 1.0246(2) -0.06187(15)
C25 C 0.77852(12) 1.0141(2) -0.03213(17)
H13 H 0.7866 1.0101 -0.0591
C26 C 0.71859(17) 1.0332(5) -0.0239(3)
H14 H 0.7188 0.9779 -0.0077
H15 H 0.6857 1.0570 -0.0525
H16 H 0.7414 1.0706 0.0143
C27 C 0.69482(14) 1.0278(4) -0.1354(2)
H17 H 0.7099 1.0303 -0.1547
H18 H 0.6746 1.0778 -0.1487
H19 H 0.6745 0.9773 -0.1516
O3 O 1.00753(9) 0.75780(16) 0.09962(13)
N18 N 0.9996(3) 0.6880(4) 0.0191(4)
C28 C 1.00956(17) 0.7534(3) 0.0534(3)
H20 H 1.0191 0.8025 0.0444
C29 C 1.0013(4) 0.6870(7) -0.0346(5)
H21 H 1.0204 0.7350 -0.0290
H22 H 0.9681 0.6906 -0.0782
H23 H 1.0165 0.6346 -0.0320
C30 C 0.9673(7) 0.6195(7) 0.0110(9)
H24 H 0.9872 0.5799 0.0485
H25 H 0.9509 0.5895 -0.0312
H26 H 0.9428 0.6449 0.0106
O4 O 1.02266(8) 0.94066(15) 0.10443(10)
N19 N 1.0654(3) 1.0505(5) 0.1078(3)
C31 C 1.04146(19) 1.0134(3) 0.1223(2)
H27 H 1.0379 1.0446 0.1491
C32 C 1.0712(2) 1.0117(4) 0.0647(3)
H28 H 1.0674 0.9506 0.0643
H29 H 1.1037 1.0244 0.0813
H30 H 1.0465 1.0336 0.0191
C33 C 1.0838(3) 1.1355(4) 0.1306(4)
H31 H 1.0724 1.1587 0.1519
H32 H 1.0720 1.1706 0.0922
H33 H 1.1195 1.1346 0.1629
O5 O 0.95625(8) 0.76474(14) 0.14761(11)
N20 N 0.9053(3) 0.6577(5) 0.1110(5)
C34 C 0.9244(2) 0.7202(4) 0.1025(3)
H34 H 0.9126 0.7303 0.0589
C35 C 0.9211(7) 0.6390(11) 0.1782(12)
H35 H 0.9522 0.6672 0.2133
H36 H 0.9251 0.5782 0.1860
H37 H 0.8964 0.6595 0.1790
C36 C 0.8651(4) 0.6091(7) 0.0497(7)
H38 H 0.8632 0.6244 0.0126
H39 H 0.8341 0.6224 0.0377
H40 H 0.8716 0.5488 0.0587
Mn1F Mn 0.5000 1.49930(3) -0.2500
Mn1F_2 Mn 1.5000 0.49930(3) 0.7500
Mn2A Mn 1.012901(15) 0.86328(3) 0.372148(18)
Mn2F Mn 1.512901(15) 0.63672(3) 0.872148(18)
Mn2C Mn 0.512901(15) 1.36328(3) -0.627852(18)
Mn3A Mn 1.111413(14) 0.99964(2) 0.412898(18)
Mn3C Mn 0.611413(14) 0.49964(2) -0.587102(18)
Mn3F Mn 0.611413(14) 1.50036(2) -0.087102(18)
Mn3G Mn 1.388587(14) 0.50036(2) 0.587102(18)
Mn3C_2 Mn 0.611413(14) 1.49964(2) -0.587102(18)
O1A O 1.03411(6) 0.98032(12) 0.35272(8)
N1F N 0.59923(8) 1.39572(15) -0.15795(10)
N1A N 1.09923(8) 1.10428(15) 0.34205(10)
N2F N 0.55582(8) 1.40537(15) -0.22130(10)
N2A N 1.05582(8) 1.09463(15) 0.27870(10)
N3F N 0.55410(10) 1.35638(18) -0.26286(12)
N4F N 0.59575(11) 1.3136(2) -0.22840(13)
N5F N 1.39874(7) 0.60305(14) 0.65861(10)
N5A N 0.89874(7) 0.89695(14) 0.15861(10)
N6F N 1.44187(8) 0.59145(14) 0.72076(10)
N6A N 0.94187(8) 0.90855(14) 0.22076(10)
N7F N 1.44507(8) 0.64154(15) 0.76281(11)
N7A N 0.94507(8) 0.85846(15) 0.26281(11)
N8F N 1.40423(8) 0.68731(16) 0.72941(11)
N9C N 0.60362(10) 1.3173(2) -0.47183(13)
N10C N 0.58711(9) 1.36447(18) -0.52475(11)
N10A N 1.08711(9) 0.86447(18) 0.47525(11)
N11C N 0.62347(8) 1.40438(16) -0.51235(10)
N11A N 1.12347(8) 0.90438(16) 0.48765(10)
N12C N 0.66498(8) 1.38613(16) -0.45087(10)
N13C N 0.84972(9) 1.11873(16) -0.03406(11)
N14C N 0.89061(8) 1.09282(16) 0.02591(10)
N14B N 1.10939(8) 1.09282(16) 0.47409(10)
N15C N 0.92916(9) 1.11483(19) 0.03555(12)
N16C N 0.91424(10) 1.1604(2) -0.01732(13)
C1F C 0.62262(11) 1.3391(2) -0.16456(14)
C2F C 0.73514(12) 1.2636(2) 0.00651(15)
C3F C 0.68835(11) 1.2974(2) -0.04574(14)
H1F H 0.6685 1.3156 -0.0368
C4F C 0.67149(11) 1.3040(2) -0.10957(14)
C5F C 0.70021(12) 1.2747(2) -0.12305(15)
H2F H 0.6879 1.2779 -0.1674
C6F C 0.75439(12) 1.2585(3) 0.07344(15)
H3F H 0.7357 1.2783 0.0838
C7F C 1.37667(9) 0.66274(18) 0.66578(12)
C8F C 1.30699(10) 0.68683(19) 0.54544(13)
H4F H 1.3225 0.6522 0.5356
C9F C 1.32892(9) 0.70084(18) 0.61081(13)
C10F C 1.30677(11) 0.7545(2) 0.62614(14)
H5F H 1.3225 0.7651 0.6715
C11F C 1.26283(11) 0.7911(2) 0.57577(13)
H6F H 1.2482 0.8269 0.5865
C12F C 1.26131(9) 0.72368(18) 0.49257(12)
C13C C 0.65180(11) 1.3322(2) -0.42731(14)
C14C C 0.66931(13) 1.2303(3) -0.34211(19)
H7C H 0.6361 1.2136 -0.3733
C15C C 0.68612(11) 1.2936(3) -0.36061(15)
C16C C 0.73426(12) 1.3153(3) -0.31653(16)
H8C H 0.7456 1.3566 -0.3290
C17C C 0.76768(12) 1.2772(3) -0.25237(16)
C18C C 0.81827(13) 1.2980(3) -0.20613(18)
H9C H 0.8303 1.3384 -0.2182
C19C C 0.84962(12) 1.2602(3) -0.14460(17)
H10C H 0.8832 1.2744 -0.1144
C20C C 0.83236(11) 1.2000(3) -0.12545(15)
C21C C 0.78370(12) 1.1777(3) -0.16969(15)
H11C H 0.7724 1.1361 -0.1574
C22C C 0.75062(12) 1.2170(3) -0.23338(16)
C23C C 0.70020(12) 1.1937(3) -0.28047(19)
H12C H 0.6883 1.1525 -0.2687
C24C C 0.86568(11) 1.1598(2) -0.05883(14)
O2A O 1.18781(8) 1.00909(13) 0.47014(11)
N17A N 1.26692(10) 1.0246(2) 0.56187(15)
C25A C 1.22148(12) 1.0141(2) 0.53213(17)
H13A H 1.2134 1.0101 0.5591
C26A C 1.28141(17) 1.0332(5) 0.5239(3)
H14A H 1.2812 0.9779 0.5077
H15A H 1.3143 1.0570 0.5525
H16A H 1.2586 1.0706 0.4857
C27A C 1.30518(14) 1.0278(4) 0.6354(2)
H17A H 1.2901 1.0303 0.6547
H18A H 1.3254 1.0778 0.6487
H19A H 1.3255 0.9773 0.6516
O3A O 0.99247(9) 0.75780(16) 0.40038(13)
N18A N 1.0004(3) 0.6880(4) 0.4809(4)
C28A C 0.99044(17) 0.7534(3) 0.4466(3)
H20A H 0.9809 0.8025 0.4556
C29A C 0.9987(4) 0.6870(7) 0.5346(5)
H21A H 0.9796 0.7350 0.5290
H22A H 1.0319 0.6906 0.5782
H23A H 0.9835 0.6346 0.5320
C30A C 1.0327(7) 0.6195(7) 0.4890(9)
H24A H 1.0128 0.5799 0.4515
H25A H 1.0491 0.5895 0.5312
H26A H 1.0572 0.6449 0.4894
O4A O 0.97734(8) 0.94066(15) 0.39557(10)
N19A N 0.9346(3) 1.0505(5) 0.3922(3)
C31A C 0.95854(19) 1.0134(3) 0.3777(2)
H27A H 0.9621 1.0446 0.3509
C32A C 0.9288(2) 1.0117(4) 0.4353(3)
H28A H 0.9326 0.9506 0.4357
H29A H 0.8963 1.0244 0.4187
H30A H 0.9535 1.0336 0.4809
C33A C 0.9162(3) 1.1355(4) 0.3694(4)
H31A H 0.9276 1.1587 0.3481
H32A H 0.9280 1.1706 0.4078
H33A H 0.8805 1.1346 0.3371
O5A O 1.04375(8) 0.76474(14) 0.35239(11)
N20A N 1.0947(3) 0.6577(5) 0.3890(5)
C34A C 1.0756(2) 0.7202(4) 0.3975(3)
H34A H 1.0874 0.7303 0.4411
C35A C 1.0789(7) 0.6390(11) 0.3218(12)
H35A H 1.0478 0.6672 0.2867
H36A H 1.0749 0.5782 0.3140
H37A H 1.1036 0.6595 0.3210
C36A C 1.1349(4) 0.6091(7) 0.4503(7)
H38A H 1.1368 0.6244 0.4874
H39A H 1.1659 0.6224 0.4623
H40A H 1.1284 0.5488 0.4413
loop_
_geom_bond_atom_site_label_1
_geom_bond_atom_site_label_2
_geom_bond_site_symmetry_1
_geom_bond_site_symmetry_2
Mn1 O1 1_555 1_555
Mn2 O1 1_555 1_555
Mn3 O1 1_555 1_555
N1 Mn3 1_555 1_555
N2 Mn1 1_555 1_555
N3 N2 1_555 1_555
N4 N3 1_555 1_555
N5 N6 1_555 1_555
N6 Mn1 1_555 1_555
N7 Mn2 1_555 1_555
N8 N7 1_555 1_555
N9 N10 1_555 1_555
N10 Mn2 1_555 1_555
N11 Mn3 1_555 1_555
N12 N11 1_555 1_555
N13 N14 1_555 1_555
N14 N15 1_555 1_555
N15 N16 1_555 1_555
N16 C24 1_555 1_555
C1 N1 1_555 1_555
C2 C3 1_555 1_555
C3 H1 1_555 1_555
C4 C1 1_555 1_555
C5 C4 1_555 1_555
H2 C5 1_555 1_555
C6 C2 1_555 1_555
H3 C6 1_555 1_555
C7 N5 1_555 1_555
C8 H4 1_555 1_555
C9 C7 1_555 1_555
C10 C9 1_555 1_555
H5 C10 1_555 1_555
C11 C10 1_555 1_555
H6 C11 1_555 1_555
C12 C8 1_555 1_555
C13 N9 1_555 1_555
C14 H7 1_555 1_555
C15 C13 1_555 1_555
C16 C15 1_555 1_555
H8 C16 1_555 1_555
C17 C16 1_555 1_555
C18 C17 1_555 1_555
H9 C18 1_555 1_555
C19 C18 1_555 1_555
H10 C19 1_555 1_555
C20 C19 1_555 1_555
C21 C20 1_555 1_555
H11 C21 1_555 1_555
C22 C17 1_555 1_555
C23 C14 1_555 1_555
H12 C23 1_555 1_555
C24 N13 1_555 1_555
O2 Mn3 1_555 1_555
N17 C25 1_555 1_555
C25 O2 1_555 1_555
H13 C25 1_555 1_555
C26 N17 1_555 1_555
H14 C26 1_555 1_555
H15 C26 1_555 1_555
H16 C26 1_555 1_555
C27 N17 1_555 1_555
H17 C27 1_555 1_555
H18 C27 1_555 1_555
H19 C27 1_555 1_555
O3 Mn2 1_555 1_555
N18 C28 1_555 1_555
C28 O3 1_555 1_555
H20 C28 1_555 1_555
C29 N18 1_555 1_555
H21 C29 1_555 1_555
H22 C29 1_555 1_555
H23 C29 1_555 1_555
C30 N18 1_555 1_555
H24 C30 1_555 1_555
H25 C30 1_555 1_555
H26 C30 1_555 1_555
O4 Mn2 1_555 1_555
N19 C31 1_555 1_555
C31 O4 1_555 1_555
H27 C31 1_555 1_555
C32 N19 1_555 1_555
H28 C32 1_555 1_555
H29 C32 1_555 1_555
H30 C32 1_555 1_555
C33 N19 1_555 1_555
H31 C33 1_555 1_555
H32 C33 1_555 1_555
H33 C33 1_555 1_555
O5 Mn2 1_555 1_555
N20 C34 1_555 1_555
C34 O5 1_555 1_555
H34 C34 1_555 1_555
C35 N20 1_555 1_555
H35 C35 1_555 1_555
H36 C35 1_555 1_555
H37 C35 1_555 1_555
C36 N20 1_555 1_555
H38 C36 1_555 1_555
H39 C36 1_555 1_555
H40 C36 1_555 1_555
Mn1F N2F 1_555 1_555
Mn1F_2 N6F 1_555 1_555
Mn2A O1A 1_555 1_555
Mn2F N7F 1_555 1_555
Mn2C N10C 1_555 1_555
Mn3A N5 1_555 1_555
Mn3C N14 1_555 1_555
Mn3F N1F 1_555 1_555
Mn3G N5F 1_555 1_555
Mn3C_2 N11C 1_555 1_555
O1A Mn1 1_555 1_555
N1F N2F 1_555 1_555
N1A Mn3A 1_555 1_555
N2F N3F 1_555 1_555
N2A Mn1 1_555 1_555
N3F N4F 1_555 1_555
N4F C1F 1_555 1_555
N5F N6F 1_555 1_555
N5A Mn3 1_555 1_555
N6F N7F 1_555 1_555
N6A Mn1 1_555 1_555
N7F N8F 1_555 1_555
N7A Mn2A 1_555 1_555
N8F C7F 1_555 1_555
N9C N10C 1_555 1_555
N10C N11C 1_555 1_555
N10A Mn2A 1_555 1_555
N11C N12C 1_555 1_555
N11A Mn3A 1_555 1_555
N12C C13C 1_555 1_555
N13C N14C 1_555 1_555
N14C Mn3 1_555 1_555
N14B Mn3A 1_555 1_555
N15C N14C 1_555 1_555
N16C N15C 1_555 1_555
C1F N1F 1_555 1_555
C2F C2 1_555 1_555
C3F C2F 1_555 1_555
H1F C3F 1_555 1_555
C4F C1F 1_555 1_555
C5F C6 1_555 1_555
H2F C5F 1_555 1_555
C6F C5 1_555 1_555
H3F C6F 1_555 1_555
C7F N5F 1_555 1_555
C8F H4F 1_555 1_555
C9F C7F 1_555 1_555
C10F C9F 1_555 1_555
H5F C10F 1_555 1_555
C11F C12 1_555 1_555
H6F C11F 1_555 1_555
C12F C11 1_555 1_555
C13C N9C 1_555 1_555
C14C H7C 1_555 1_555
C15C C13C 1_555 1_555
C16C C15C 1_555 1_555
H8C C16C 1_555 1_555
C17C C16C 1_555 1_555
C18C C17C 1_555 1_555
H9C C18C 1_555 1_555
C19C C18C 1_555 1_555
H10C C19C 1_555 1_555
C20C C19C 1_555 1_555
C21C C20C 1_555 1_555
H11C C21C 1_555 1_555
C22C C17C 1_555 1_555
C23C C14C 1_555 1_555
H12C C23C 1_555 1_555
C24C N13C 1_555 1_555
O2A Mn3A 1_555 1_555
N17A C25A 1_555 1_555
C25A O2A 1_555 1_555
H13A C25A 1_555 1_555
C26A N17A 1_555 1_555
H14A C26A 1_555 1_555
H15A C26A 1_555 1_555
H16A C26A 1_555 1_555
C27A N17A 1_555 1_555
H17A C27A 1_555 1_555
H18A C27A 1_555 1_555
H19A C27A 1_555 1_555
O3A Mn2A 1_555 1_555
N18A C28A 1_555 1_555
C28A O3A 1_555 1_555
H20A C28A 1_555 1_555
C29A N18A 1_555 1_555
H21A C29A 1_555 1_555
H22A C29A 1_555 1_555
H23A C29A 1_555 1_555
C30A N18A 1_555 1_555
H24A C30A 1_555 1_555
H25A C30A 1_555 1_555
H26A C30A 1_555 1_555
O4A Mn2A 1_555 1_555
N19A C31A 1_555 1_555
C31A O4A 1_555 1_555
H27A C31A 1_555 1_555
C32A N19A 1_555 1_555
H28A C32A 1_555 1_555
H29A C32A 1_555 1_555
H30A C32A 1_555 1_555
C33A N19A 1_555 1_555
H31A C33A 1_555 1_555
H32A C33A 1_555 1_555
H33A C33A 1_555 1_555
O5A Mn2A 1_555 1_555
N20A C34A 1_555 1_555
C34A O5A 1_555 1_555
H34A C34A 1_555 1_555
C35A N20A 1_555 1_555
H35A C35A 1_555 1_555
H36A C35A 1_555 1_555
H37A C35A 1_555 1_555
C36A N20A 1_555 1_555
H38A C36A 1_555 1_555
H39A C36A 1_555 1_555
H40A C36A 1_555 1_555
N1 N2 1_555 1_555
N4 C1 1_555 1_555
N6 N7 1_555 1_555
N8 C7 1_555 1_555
N10 N11 1_555 1_555
N12 C13 1_555 1_555
C3 C4 1_555 1_555
C8 C9 1_555 1_555
C12 C12F 1_555 1_555
C14 C15 1_555 1_555
C20 C24 1_555 1_555
C21 C22 1_555 1_555
C22 C23 1_555 1_555
Mn3A O1A 1_555 1_555
N1A N2A 1_555 1_555
N5A N6A 1_555 1_555
N6A N7A 1_555 1_555
N10A N11A 1_555 1_555
N16C C24C 1_555 1_555
C2F C6F 1_555 1_555
C3F C4F 1_555 1_555
C4F C5F 1_555 1_555
C8F C9F 1_555 1_555
C8F C12F 1_555 1_555
C10F C11F 1_555 1_555
C14C C15C 1_555 1_555
C20C C24C 1_555 1_555
C21C C22C 1_555 1_555
C22C C23C 1_555 1_555

#END
