
#######################################################################
#
#                 Cambridge Crystallographic Data Centre
#                                CCDC 
#
#######################################################################
#
# If this CIF has been generated from an entry in the Cambridge 
# Structural Database, then it will include bibliographic, chemical, 
# crystal, experimental, refinement or atomic coordinate data resulting 
# from the CCDC's data processing and validation procedures.
#
#######################################################################

data_SAMLAV01
_chemical_formula_moiety         '(C12 H7 Cd1 N3 O6)n'
_symmetry_cell_setting           monoclinic
_symmetry_space_group_name_H-M   'P 21/c'
_symmetry_Int_Tables_number      14
_space_group_name_Hall           '-P 2ybc'
loop_
_symmetry_equiv_pos_site_id
_symmetry_equiv_pos_as_xyz
1 x,y,z
2 -x,1/2+y,1/2-z
3 -x,-y,-z
4 x,1/2-y,1/2+z
_cell_length_a                   7.4058(3)
_cell_length_b                   20.7757(7)
_cell_length_c                   14.2332(6)
_cell_angle_alpha                90
_cell_angle_beta                 99.132(4)
_cell_angle_gamma                90
_cell_volume                     2162.17
loop_
_atom_site_label
_atom_site_type_symbol
_atom_site_fract_x
_atom_site_fract_y
_atom_site_fract_z
Cd1 Cd -0.46179(7) 0.43581(2) -0.39866(3)
C1 C -0.4651(12) 0.2520(4) -0.2760(5)
C2 C -0.4810(16) 0.1961(4) -0.3293(6)
C3 C -0.5056(14) 0.1365(4) -0.2909(6)
H1 H -0.5188 0.0993 -0.3300
C4 C -0.5107(11) 0.1317(3) -0.1936(5)
C5 C -0.4909(11) 0.1864(4) -0.1373(6)
H2 H -0.4906 0.1834 -0.0707
C6 C -0.4714(12) 0.2466(3) -0.1801(5)
H3 H -0.4625 0.2843 -0.1420
C7 C -0.4562(10) 0.3182(3) -0.3200(5)
C8 C -0.5327(9) 0.0662(3) -0.1529(5)
C9 C -0.8899(10) 0.4121(4) -0.4740(5)
H4 H -0.8379 0.3923 -0.5236
C10 C -1.0785(10) 0.4122(4) -0.4750(5)
H5 H -1.1550 0.3929 -0.5273
C11 C -1.0399(10) 0.4689(4) -0.3352(5)
H6 H -1.0885 0.4905 -0.2859
C12 C -0.8519(10) 0.4690(4) -0.3341(6)
H7 H -0.7728 0.4897 -0.2841
N1 N -0.4448(18) 0.1946(6) -0.4287(9)
N2 N -0.7863(7) 0.4404(2) -0.4020(3)
N3 N -1.1563(8) 0.4386(2) -0.4051(4)
O1 O -0.4983(9) 0.3238(3) -0.4076(4)
O2 O -0.4059(11) 0.3639(3) -0.2673(4)
O3 O -0.5147(7) 0.0589(2) -0.0633(4)
O4 O -0.5643(7) 0.0191(2) -0.2091(4)
O5 O -0.5737(17) 0.1755(6) -0.4853(8)
O6 O -0.294(2) 0.2148(6) -0.4468(8)
Cd1_2 Cd -1.46179(7) 0.43581(2) -0.39866(3)
Cd1A Cd -0.53821(7) -0.06419(2) -0.10134(3)
Cd1C Cd -0.46179(7) 0.06419(2) 0.10134(3)
N3_2 N -0.1563(8) 0.4386(2) -0.4051(4)
O3A O -0.4853(7) 0.5589(2) -0.4367(4)
O3C O -0.5147(7) 0.4411(2) -0.5633(4)
O4A O -0.4357(7) 0.5191(2) -0.2909(4)
loop_
_geom_bond_atom_site_label_1
_geom_bond_atom_site_label_2
_geom_bond_site_symmetry_1
_geom_bond_site_symmetry_2
Cd1 N2 1_555 1_555
C1 C2 1_555 1_555
C2 C3 1_555 1_555
C3 H1 1_555 1_555
C4 C3 1_555 1_555
C5 C4 1_555 1_555
H2 C5 1_555 1_555
C6 C1 1_555 1_555
H3 C6 1_555 1_555
C7 C1 1_555 1_555
C8 C4 1_555 1_555
C9 H4 1_555 1_555
C10 C9 1_555 1_555
H5 C10 1_555 1_555
C11 H6 1_555 1_555
C12 C11 1_555 1_555
H7 C12 1_555 1_555
N1 C2 1_555 1_555
N2 C9 1_555 1_555
N3 C10 1_555 1_555
O1 Cd1 1_555 1_555
O2 Cd1 1_555 1_555
O3 C8 1_555 1_555
O4 C8 1_555 1_555
O5 N1 1_555 1_555
O6 N1 1_555 1_555
Cd1_2 N3 1_555 1_555
Cd1A O3 1_555 1_555
Cd1C O3 1_555 1_555
N3_2 Cd1 1_555 1_555
O3A Cd1 1_555 1_555
O3C Cd1 1_555 1_555
O4A Cd1 1_555 1_555
C5 C6 1_555 1_555
C7 O1 1_555 1_555
C7 O2 1_555 1_555
C11 N3 1_555 1_555
C12 N2 1_555 1_555
O4 Cd1A 1_555 1_555

#END
