
#######################################################################
#
#                 Cambridge Crystallographic Data Centre
#                                CCDC 
#
#######################################################################
#
# If this CIF has been generated from an entry in the Cambridge 
# Structural Database, then it will include bibliographic, chemical, 
# crystal, experimental, refinement or atomic coordinate data resulting 
# from the CCDC's data processing and validation procedures.
#
#######################################################################

data_SAMLAV03
_chemical_formula_moiety         '(C12 H7 Cd1 N3 O6)n'
_symmetry_cell_setting           orthorhombic
_symmetry_space_group_name_H-M   'P b a m'
_symmetry_Int_Tables_number      55
_space_group_name_Hall           '-P 2 2ab'
loop_
_symmetry_equiv_pos_site_id
_symmetry_equiv_pos_as_xyz
1 x,y,z
2 -x,-y,z
3 1/2-x,1/2+y,-z
4 1/2+x,1/2-y,-z
5 -x,-y,-z
6 x,y,-z
7 1/2+x,1/2-y,z
8 1/2-x,1/2+y,z
_cell_length_a                   20.993(4)
_cell_length_b                   14.236(3)
_cell_length_c                   7.4471(15)
_cell_angle_alpha                90
_cell_angle_beta                 90
_cell_angle_gamma                90
_cell_volume                     2225.61
loop_
_atom_site_label
_atom_site_type_symbol
_atom_site_fract_x
_atom_site_fract_y
_atom_site_fract_z
Cd1 Cd -0.43656(3) 0.39829(5) 0.5000
C1 C -0.2555(5) 0.2745(7) 0.5000
C2 C -0.2017(6) 0.3271(8) 0.5000
C3 C -0.1408(6) 0.2868(8) 0.5000
H1 H -0.1047 0.3247 0.5000
C4 C -0.1351(5) 0.1902(6) 0.5000
C5 C -0.1865(8) 0.1400(8) 0.5000
H2 H -0.1823 0.0749 0.5000
C6 C -0.2473(6) 0.1774(8) 0.5000
H3 H -0.2826 0.1379 0.5000
C7 C -0.3205(5) 0.3155(7) 0.5000
C8 C -0.0683(5) 0.1503(7) 0.5000
C9 C -0.4123(4) 0.4696(7) 0.9061(12)
H4 H -0.3919 0.5183 0.8459
C10 C -0.4680(5) 0.3367(6) 0.9057(11)
H5 H -0.4884 0.2880 0.8454
N1 N -0.1932(15) 0.4324(17) 0.5000
N2 N -0.4401(3) 0.4033(5) 0.8115(10)
O1 O -0.3257(4) 0.4014(6) 0.5000
O2 O -0.3672(5) 0.2663(6) 0.5000
O3 O -0.0596(4) 0.0627(7) 0.5000
O4 O -0.0210(3) 0.2031(5) 0.5000
O5 O -0.1995(13) 0.4592(19) 0.342(3)
Cd1B Cd -0.06344(3) -0.10171(5) 0.5000
Cd1C Cd 0.06344(3) 0.10171(5) 0.5000
Cd1_2 Cd -0.43656(3) 0.39829(5) 1.5000
C9E C -0.4123(4) 0.4696(7) 1.0939(12)
H4E H -0.3919 0.5183 1.1541
C10E C -0.4680(5) 0.3367(6) 1.0943(11)
H5E H -0.4884 0.2880 1.1546
N2E N -0.4401(3) 0.4033(5) 1.1885(10)
N2E_2 N -0.4401(3) 0.4033(5) 0.1885(10)
O3B O -0.4404(4) 0.5627(7) 0.5000
O3C O -0.5596(4) 0.4373(7) 0.5000
O4C O -0.5210(3) 0.2969(5) 0.5000
O5E O -0.1995(13) 0.4592(19) 0.658(3)
loop_
_geom_bond_atom_site_label_1
_geom_bond_atom_site_label_2
_geom_bond_site_symmetry_1
_geom_bond_site_symmetry_2
Cd1 N2 1_555 1_555
C1 C2 1_555 1_555
C2 C3 1_555 1_555
C3 H1 1_555 1_555
C4 C3 1_555 1_555
C5 C4 1_555 1_555
H2 C5 1_555 1_555
C6 C1 1_555 1_555
H3 C6 1_555 1_555
C7 C1 1_555 1_555
C8 C4 1_555 1_555
C9 H4 1_555 1_555
C10 H5 1_555 1_555
N1 C2 1_555 1_555
N2 C9 1_555 1_555
O1 Cd1 1_555 1_555
O2 Cd1 1_555 1_555
O3 C8 1_555 1_555
O4 C8 1_555 1_555
O5 N1 1_555 1_555
Cd1B O3 1_555 1_555
Cd1C O3 1_555 1_555
Cd1_2 N2E 1_555 1_555
C9E C9 1_555 1_555
H4E C9E 1_555 1_555
C10E C10 1_555 1_555
H5E C10E 1_555 1_555
N2E C9E 1_555 1_555
N2E_2 Cd1 1_555 1_555
O3B Cd1 1_555 1_555
O3C Cd1 1_555 1_555
O4C Cd1 1_555 1_555
O5E N1 1_555 1_555
C5 C6 1_555 1_555
C7 O1 1_555 1_555
C7 O2 1_555 1_555
C10 N2 1_555 1_555
O4 Cd1C 1_555 1_555
C10E N2E 1_555 1_555

#END
