
#######################################################################
#
#                 Cambridge Crystallographic Data Centre
#                                CCDC 
#
#######################################################################
#
# If this CIF has been generated from an entry in the Cambridge 
# Structural Database, then it will include bibliographic, chemical, 
# crystal, experimental, refinement or atomic coordinate data resulting 
# from the CCDC's data processing and validation procedures.
#
#######################################################################

data_SAMLAV02
_chemical_formula_moiety         '(C12 H7 Cd1 N3 O6)n'
_symmetry_cell_setting           monoclinic
_symmetry_space_group_name_H-M   'P 21/c'
_symmetry_Int_Tables_number      14
_space_group_name_Hall           '-P 2ybc'
loop_
_symmetry_equiv_pos_site_id
_symmetry_equiv_pos_as_xyz
1 x,y,z
2 -x,1/2+y,1/2-z
3 -x,-y,-z
4 x,1/2-y,1/2+z
_cell_length_a                   7.4378(3)
_cell_length_b                   20.9108(7)
_cell_length_c                   14.3257(6)
_cell_angle_alpha                90
_cell_angle_beta                 92.650(4)
_cell_angle_gamma                90
_cell_volume                     2225.7
loop_
_atom_site_label
_atom_site_type_symbol
_atom_site_fract_x
_atom_site_fract_y
_atom_site_fract_z
Cd1 Cd -0.48840(6) 0.43640(2) -0.39800(3)
C1 C -0.4898(11) 0.2546(3) -0.2723(5)
C2 C -0.4951(14) 0.1997(4) -0.3259(5)
C3 C -0.5021(12) 0.1394(4) -0.2840(6)
H1 H -0.5064 0.1020 -0.3217
C4 C -0.5030(9) 0.1342(3) -0.1891(5)
C5 C -0.4911(11) 0.1891(3) -0.1336(6)
H2 H -0.4834 0.1857 -0.0674
C6 C -0.4908(11) 0.2479(3) -0.1760(6)
H3 H -0.4914 0.2852 -0.1382
C7 C -0.4832(11) 0.3196(3) -0.3167(6)
C8 C -0.5085(10) 0.0688(3) -0.1463(5)
C9 C -0.9040(9) 0.4110(4) -0.4686(6)
H4 H -0.8455 0.3891 -0.5166
C10 C -1.0889(8) 0.4103(4) -0.4695(6)
H5 H -1.1546 0.3876 -0.5172
C11 C -1.0759(9) 0.4713(4) -0.3402(6)
H6 H -1.1343 0.4943 -0.2931
C12 C -0.8907(9) 0.4710(4) -0.3386(6)
H7 H -0.8249 0.4928 -0.2899
N1 N -0.488(2) 0.1940(6) -0.4355(7)
N2 N -0.8037(8) 0.4412(2) -0.4032(4)
N3 N -1.1762(9) 0.4408(3) -0.4051(5)
O1 O -0.4977(8) 0.3252(3) -0.4012(4)
O2 O -0.4717(10) 0.3667(4) -0.2659(5)
O3 O -0.5038(9) 0.0616(2) -0.0598(4)
O4 O -0.5188(7) 0.0212(2) -0.2018(4)
O5 O -0.645(2) 0.1974(7) -0.4637(10)
O6 O -0.333(2) 0.2033(7) -0.4553(10)
Cd1_2 Cd -1.48840(6) 0.43640(2) -0.39800(3)
Cd1A Cd -0.51160(6) -0.06360(2) -0.10200(3)
Cd1C Cd -0.48840(6) 0.06360(2) 0.10200(3)
N3_2 N -0.1762(9) 0.4408(3) -0.4051(5)
O3A O -0.4962(9) 0.5616(2) -0.4402(4)
O3C O -0.5038(9) 0.4384(2) -0.5598(4)
O4A O -0.4812(7) 0.5212(2) -0.2982(4)
loop_
_geom_bond_atom_site_label_1
_geom_bond_atom_site_label_2
_geom_bond_site_symmetry_1
_geom_bond_site_symmetry_2
Cd1 N2 1_555 1_555
C1 C2 1_555 1_555
C2 C3 1_555 1_555
C3 H1 1_555 1_555
C4 C3 1_555 1_555
C5 C4 1_555 1_555
H2 C5 1_555 1_555
C6 C1 1_555 1_555
H3 C6 1_555 1_555
C7 C1 1_555 1_555
C8 C4 1_555 1_555
C9 H4 1_555 1_555
C10 C9 1_555 1_555
H5 C10 1_555 1_555
C11 H6 1_555 1_555
C12 C11 1_555 1_555
H7 C12 1_555 1_555
N1 C2 1_555 1_555
N2 C9 1_555 1_555
N3 C10 1_555 1_555
O1 Cd1 1_555 1_555
O2 Cd1 1_555 1_555
O3 C8 1_555 1_555
O4 C8 1_555 1_555
O5 N1 1_555 1_555
O6 N1 1_555 1_555
Cd1_2 N3 1_555 1_555
Cd1A O3 1_555 1_555
Cd1C O3 1_555 1_555
N3_2 Cd1 1_555 1_555
O3A Cd1 1_555 1_555
O3C Cd1 1_555 1_555
O4A Cd1 1_555 1_555
C5 C6 1_555 1_555
C7 O1 1_555 1_555
C7 O2 1_555 1_555
C11 N3 1_555 1_555
C12 N2 1_555 1_555
O4 Cd1A 1_555 1_555

#END
