
#######################################################################
#
#                 Cambridge Crystallographic Data Centre
#                                CCDC 
#
#######################################################################
#
# If this CIF has been generated from an entry in the Cambridge 
# Structural Database, then it will include bibliographic, chemical, 
# crystal, experimental, refinement or atomic coordinate data resulting 
# from the CCDC's data processing and validation procedures.
#
#######################################################################

data_EQOXIT
_chemical_formula_moiety         '(C72 H50 N12 O22 Zn6)n'
_symmetry_cell_setting           monoclinic
_symmetry_space_group_name_H-M   'P 21'
_symmetry_Int_Tables_number      4
_space_group_name_Hall           'P 2yb'
loop_
_symmetry_equiv_pos_site_id
_symmetry_equiv_pos_as_xyz
1 x,y,z
2 -x,1/2+y,-z
_cell_length_a                   14.7409(5)
_cell_length_b                   15.3429(6)
_cell_length_c                   22.1924(8)
_cell_angle_alpha                90
_cell_angle_beta                 103.716(2)
_cell_angle_gamma                90
_cell_volume                     4876.08
loop_
_atom_site_label
_atom_site_type_symbol
_atom_site_fract_x
_atom_site_fract_y
_atom_site_fract_z
C1 C 0.1658(8) 0.6744(10) 1.1644(5)
H1 H 0.1663 0.6142 1.1594
C2 C 0.1668(7) 0.7301(8) 1.1131(4)
O1 O 0.1646(6) 0.8761(7) 1.0760(3)
C3 C 0.1654(7) 0.8211(8) 1.1178(5)
C4 C 0.1613(8) 0.8522(11) 1.1808(5)
H2 H 0.1567 0.9118 1.1871
C5 C 0.1640(9) 0.7981(10) 1.2292(5)
H3 H 0.1656 0.8205 1.2683
C6 C 0.1643(8) 0.7083(8) 1.2199(5)
N1 N 0.1635(6) 0.6478(6) 1.2661(4)
O2 O 0.0206(4) 0.7887(5) 0.7548(3)
C7 C -0.0555(6) 0.7951(7) 0.7732(5)
C8 C -0.1385(8) 0.7848(9) 0.7310(6)
H4 H -0.1363 0.7728 0.6903
C9 C -0.0566(6) 0.8172(8) 0.8351(4)
C10 C -0.1475(7) 0.8168(8) 0.8495(5)
H5 H -0.1503 0.8210 0.8908
C11 C -0.2237(8) 0.7904(9) 0.7432(5)
H6 H -0.2770 0.7810 0.7118
C12 C -0.2318(6) 0.8106(8) 0.8040(4)
N2 N -0.3114(5) 0.8106(7) 0.8271(4)
O3 O 0.2772(6) 0.6263(6) 0.9336(3)
Zn1 Zn 0.15394(9) 0.59981(10) 0.95404(6)
O4 O 0.1668(6) 0.6030(7) 1.0485(3)
O5 O 0.1592(5) 0.7287(6) 1.0012(3)
C13 C 0.1638(7) 0.6870(10) 1.0534(5)
O6 O 0.2836(6) 0.8632(9) 0.9727(4)
Zn2 Zn 0.14892(9) 0.86595(11) 0.98783(6)
O7 O 0.1053(4) 0.8185(5) 0.8802(3)
C14 C 0.0217(7) 0.8284(8) 0.8873(5)
N3 N 0.1450(6) 1.0064(5) 0.9836(4)
C15 C 0.2157(6) 1.0530(6) 1.0232(4)
H7 H 0.2607 1.0237 1.0527
C16 C 0.2190(7) 1.1432(6) 1.0186(5)
H8 H 0.2663 1.1743 1.0451
C17 C 0.1517(8) 1.1869(5) 0.9745(5)
C18 C 0.0810(6) 1.1404(6) 0.9349(4)
H9 H 0.0360 1.1696 0.9054
C19 C 0.0777(5) 1.0501(6) 0.9395(4)
H10 H 0.0304 1.0190 0.9130
O8 O 0.0108(4) 0.8561(6) 0.9391(3)
N4 N 0.1564(5) 1.4638(4) 0.9574(3)
C20 C 0.2397(4) 1.4191(5) 0.9792(4)
H11 H 0.2957 1.4497 0.9907
C21 C 0.2395(5) 1.3288(5) 0.9839(5)
H12 H 0.2952 1.2989 0.9985
C22 C 0.1558(6) 1.2831(4) 0.9667(4)
C23 C 0.0725(5) 1.3278(5) 0.9449(4)
H13 H 0.0166 1.2973 0.9334
C24 C 0.0727(4) 1.4182(5) 0.9403(3)
H14 H 0.0170 1.4481 0.9257
Zn3 Zn 0.15251(8) 0.80752(9) 0.80565(6)
C25 C -0.7197(7) 0.7483(8) 0.7286(5)
C26 C -0.6417(7) 0.7918(8) 0.8410(5)
C27 C -0.6354(6) 0.7713(9) 0.7800(5)
C28 C -0.5500(6) 0.7715(8) 0.7622(5)
H15 H -0.5471 0.7559 0.7222
C29 C -0.4700(7) 0.7958(9) 0.8062(5)
C30 C -0.4731(8) 0.8125(11) 0.8679(5)
H16 H -0.4184 0.8246 0.8974
C31 C -0.5565(6) 0.8111(9) 0.8843(5)
H17 H -0.5577 0.8230 0.9252
C32 C 0.1528(8) 0.6480(8) 1.5324(5)
C33 C 0.1563(7) 0.6053(9) 1.4737(4)
C34 C 0.1589(7) 0.6525(8) 1.4218(5)
H18 H 0.1588 0.7128 1.4255
C35 C 0.1616(8) 0.6185(8) 1.3639(5)
C36 C 0.1633(8) 0.5283(7) 1.3597(4)
H19 H 0.1658 0.5034 1.3220
C37 C 0.1615(8) 0.4723(10) 1.4102(5)
H20 H 0.1620 0.4121 1.4052
C38 C 0.1586(7) 0.5099(7) 1.4703(5)
N5 N 0.1629(8) 0.6741(8) 1.3170(5)
N6 N -0.3850(6) 0.7933(7) 0.7867(4)
O9 O -0.7202(4) 0.7879(6) 0.8607(3)
O10 O -0.8019(5) 0.7455(7) 0.7385(3)
O11 O -0.7117(5) 0.7321(6) 0.6755(3)
O12 O 0.1515(5) 0.6079(6) 1.5833(4)
O13 O 0.1458(6) 0.7291(6) 1.5320(3)
O14 O 0.1527(6) 0.4561(6) 1.5126(4)
C39 C -0.7726(11) 0.0772(12) 0.8086(10)
H21 H -0.7183 0.1063 0.8281
C40 C -0.7674(10) -0.0090(10) 0.8054(8)
H22 H -0.7092 -0.0359 0.8130
N7 N -0.8431(6) -0.0564(8) 0.7916(5)
C41 C -0.9181(11) -0.0125(10) 0.7743(8)
H23 H -0.9730 -0.0448 0.7644
C42 C -0.9350(11) 0.2663(10) 0.7596(8)
H24 H -0.9891 0.2356 0.7416
C43 C -0.9340(10) 0.3562(10) 0.7588(7)
H25 H -0.9871 0.3859 0.7378
C44 C -0.8493(10) 0.2205(9) 0.7892(6)
N8 N -0.8557(7) 0.4033(8) 0.7886(4)
C45 C -0.7785(9) 0.2722(9) 0.8214(8)
H26 H -0.7251 0.2455 0.8450
C46 C -0.7828(10) 0.3596(11) 0.8205(7)
H27 H -0.7322 0.3908 0.8433
C47 C -0.9280(11) 0.0705(13) 0.7687(9)
H28 H -0.9863 0.0956 0.7531
C48 C -0.8442(9) 0.1238(9) 0.7876(5)
C49 C 0.0278(7) 0.5999(8) 0.8518(5)
C50 C -0.0568(6) 0.5851(7) 0.7999(4)
C51 C -0.1426(7) 0.5875(7) 0.8156(4)
H29 H -0.1435 0.5990 0.8566
C52 C -0.2278(7) 0.5736(8) 0.7728(5)
C53 C -0.2220(7) 0.5503(10) 0.7140(5)
H30 H -0.2766 0.5352 0.6853
C54 C -0.1414(7) 0.5484(10) 0.6963(5)
H31 H -0.1418 0.5362 0.6552
C55 C -0.0528(7) 0.5655(7) 0.7407(4)
C56 C -0.7118(6) 0.5142(7) 0.6939(4)
C57 C -0.6302(6) 0.5379(7) 0.7471(4)
C58 C -0.6391(7) 0.5537(8) 0.8070(5)
C59 C -0.5528(7) 0.5741(10) 0.8541(5)
H32 H -0.5555 0.5880 0.8944
C60 C -0.4691(8) 0.5724(10) 0.8381(5)
H33 H -0.4141 0.5805 0.8683
C61 C -0.4659(7) 0.5589(8) 0.7773(5)
C62 C -0.5434(7) 0.5360(10) 0.7333(5)
H34 H -0.5381 0.5192 0.6940
N9 N -0.3794(5) 0.5596(7) 0.7570(4)
N10 N -0.3088(6) 0.5767(6) 0.7970(4)
O15 O -0.7212(4) 0.5565(6) 0.8252(3)
O16 O -0.7967(5) 0.5232(6) 0.6989(3)
O17 O -0.6970(5) 0.4878(6) 0.6452(3)
O18 O 0.0191(5) 0.6115(7) 0.9054(3)
O19 O 0.1091(4) 0.5961(6) 0.8423(3)
O20 O 0.0232(4) 0.5571(6) 0.7204(3)
O21 O -0.9789(5) 0.4837(6) 0.6114(3)
Zn4 Zn -0.84760(8) 0.53879(9) 0.77490(6)
Zn5 Zn -0.84263(9) 0.47769(9) 0.59980(5)
C63 C -0.7694(9) 1.2942(11) 0.6475(7)
H35 H -0.7182 1.3237 0.6713
C64 C -0.7669(10) 1.2063(11) 0.6482(9)
H36 H -0.7130 1.1786 0.6699
C65 C -0.8374(7) 1.1588(8) 0.6196(6)
C66 C -0.9137(11) 1.2054(10) 0.5886(10)
H37 H -0.9674 1.1760 0.5681
C67 C -0.9120(11) 1.2948(12) 0.5873(8)
H38 H -0.9651 1.3236 0.5654
C68 C -0.7669(10) 0.9209(10) 0.6362(9)
H39 H -0.7103 0.8911 0.6450
C69 C -0.7617(9) 1.0113(9) 0.6382(8)
H40 H -0.7042 1.0377 0.6539
C70 C -0.8397(7) 1.0632(8) 0.6177(6)
C71 C -0.9206(9) 1.0149(9) 0.6053(7)
H41 H -0.9778 1.0436 0.5948
C72 C -0.9193(9) 0.9243(9) 0.6081(7)
H42 H -0.9767 0.8959 0.5986
N11 N -0.8399(6) 1.3421(7) 0.6151(4)
N12 N -0.8413(6) 0.8735(7) 0.6235(4)
O22 O -0.9714(5) 0.7245(6) 0.6442(4)
Zn6 Zn -0.84435(9) 0.74224(9) 0.62598(6)
Zn1_2 Zn 0.15394(9) 1.59981(10) 0.95404(6)
N4_2 N 0.1564(5) 0.4638(4) 0.9574(3)
Zn3_2 Zn -0.84749(8) -0.19248(9) 0.80565(6)
Zn3_3 Zn -0.84749(8) 0.80752(9) 0.80565(6)
O9_2 O 0.2798(4) 0.7879(6) 0.8607(3)
O10_2 O 0.1981(5) 0.7455(7) 0.7385(3)
O12_2 O -0.8485(5) 0.6079(6) 0.5833(4)
O13_2 O -0.8542(6) 0.7291(6) 0.5320(3)
O14_2 O -0.8473(6) 0.4561(6) 0.5126(4)
N7_2 N 0.1569(6) 0.9436(8) 0.7916(5)
O19_2 O -0.8909(4) 0.5961(6) 0.8423(3)
O20_2 O -0.9768(4) 0.5571(6) 0.7204(3)
Zn4_2 Zn 0.15240(8) 0.53879(9) 0.77490(6)
Zn5_2 Zn -0.84263(9) 1.47769(9) 0.59980(5)
Zn5_3 Zn 0.15737(9) 0.47769(9) 1.59980(5)
N11_2 N -0.8399(6) 0.3421(7) 0.6151(4)
Zn6_2 Zn 0.15565(9) 0.74224(9) 1.62598(6)
loop_
_geom_bond_atom_site_label_1
_geom_bond_atom_site_label_2
_geom_bond_site_symmetry_1
_geom_bond_site_symmetry_2
C1 H1 1_555 1_555
C2 C1 1_555 1_555
O1 C3 1_555 1_555
C3 C2 1_555 1_555
C4 C3 1_555 1_555
H2 C4 1_555 1_555
C5 C4 1_555 1_555
H3 C5 1_555 1_555
C6 C1 1_555 1_555
N1 C6 1_555 1_555
O2 C7 1_555 1_555
C7 C8 1_555 1_555
C8 H4 1_555 1_555
C9 C7 1_555 1_555
C10 C9 1_555 1_555
H5 C10 1_555 1_555
C11 C8 1_555 1_555
H6 C11 1_555 1_555
C12 C10 1_555 1_555
N2 C12 1_555 1_555
O3 Zn1 1_555 1_555
Zn1 O4 1_555 1_555
O4 C13 1_555 1_555
O5 Zn1 1_555 1_555
C13 C2 1_555 1_555
O6 Zn2 1_555 1_555
Zn2 O1 1_555 1_555
O7 Zn2 1_555 1_555
C14 C9 1_555 1_555
N3 Zn2 1_555 1_555
C15 N3 1_555 1_555
H7 C15 1_555 1_555
C16 C15 1_555 1_555
H8 C16 1_555 1_555
C17 C16 1_555 1_555
C18 C17 1_555 1_555
H9 C18 1_555 1_555
C19 N3 1_555 1_555
H10 C19 1_555 1_555
O8 Zn2 1_555 1_555
N4 C20 1_555 1_555
C20 H11 1_555 1_555
C21 C20 1_555 1_555
H12 C21 1_555 1_555
C22 C17 1_555 1_555
C23 C22 1_555 1_555
H13 C23 1_555 1_555
C24 N4 1_555 1_555
H14 C24 1_555 1_555
Zn3 O2 1_555 1_555
C25 C27 1_555 1_555
C26 C27 1_555 1_555
C27 C28 1_555 1_555
C28 H15 1_555 1_555
C29 C28 1_555 1_555
C30 C29 1_555 1_555
H16 C30 1_555 1_555
C31 C26 1_555 1_555
H17 C31 1_555 1_555
C32 C33 1_555 1_555
C33 C34 1_555 1_555
C34 H18 1_555 1_555
C35 C34 1_555 1_555
C36 C35 1_555 1_555
H19 C36 1_555 1_555
C37 C36 1_555 1_555
H20 C37 1_555 1_555
C38 C33 1_555 1_555
N5 N1 1_555 1_555
N6 N2 1_555 1_555
O9 C26 1_555 1_555
O10 C25 1_555 1_555
O11 C25 1_555 1_555
O12 C32 1_555 1_555
O13 C32 1_555 1_555
O14 C38 1_555 1_555
C39 H21 1_555 1_555
C40 C39 1_555 1_555
H22 C40 1_555 1_555
N7 C40 1_555 1_555
C41 N7 1_555 1_555
H23 C41 1_555 1_555
C42 H24 1_555 1_555
C43 C42 1_555 1_555
H25 C43 1_555 1_555
C44 C42 1_555 1_555
N8 C43 1_555 1_555
C45 C44 1_555 1_555
H26 C45 1_555 1_555
C46 N8 1_555 1_555
H27 C46 1_555 1_555
C47 C41 1_555 1_555
H28 C47 1_555 1_555
C48 C39 1_555 1_555
C49 C50 1_555 1_555
C50 C51 1_555 1_555
C51 H29 1_555 1_555
C52 C51 1_555 1_555
C53 C52 1_555 1_555
H30 C53 1_555 1_555
C54 C53 1_555 1_555
H31 C54 1_555 1_555
C55 C50 1_555 1_555
C56 C57 1_555 1_555
C57 C58 1_555 1_555
C58 C59 1_555 1_555
C59 H32 1_555 1_555
C60 C59 1_555 1_555
H33 C60 1_555 1_555
C61 C60 1_555 1_555
C62 C57 1_555 1_555
H34 C62 1_555 1_555
N9 C61 1_555 1_555
N10 C52 1_555 1_555
O15 C58 1_555 1_555
O16 C56 1_555 1_555
O17 C56 1_555 1_555
O18 Zn1 1_555 1_555
O19 Zn1 1_555 1_555
O20 C55 1_555 1_555
O21 Zn5 1_555 1_555
Zn4 N8 1_555 1_555
Zn5 O16 1_555 1_555
C63 H35 1_555 1_555
C64 C63 1_555 1_555
H36 C64 1_555 1_555
C65 C64 1_555 1_555
C66 C65 1_555 1_555
H37 C66 1_555 1_555
C67 C66 1_555 1_555
H38 C67 1_555 1_555
C68 H39 1_555 1_555
C69 C68 1_555 1_555
H40 C69 1_555 1_555
C70 C65 1_555 1_555
C71 C70 1_555 1_555
H41 C71 1_555 1_555
C72 C71 1_555 1_555
H42 C72 1_555 1_555
N11 C63 1_555 1_555
N12 C68 1_555 1_555
O22 Zn6 1_555 1_555
Zn6 O10 1_555 1_555
Zn1_2 N4 1_555 1_555
N4_2 Zn1 1_555 1_555
Zn3_2 N7 1_555 1_555
Zn3_3 O9 1_555 1_555
O9_2 Zn3 1_555 1_555
O10_2 Zn3 1_555 1_555
O12_2 Zn5 1_555 1_555
O13_2 Zn6 1_555 1_555
O14_2 Zn5 1_555 1_555
N7_2 Zn3 1_555 1_555
O19_2 Zn4 1_555 1_555
O20_2 Zn4 1_555 1_555
Zn4_2 O19 1_555 1_555
Zn5_2 N11 1_555 1_555
Zn5_3 O12 1_555 1_555
N11_2 Zn5 1_555 1_555
Zn6_2 O12 1_555 1_555
C5 C6 1_555 1_555
C11 C12 1_555 1_555
O5 C13 1_555 1_555
O5 Zn2 1_555 1_555
O7 C14 1_555 1_555
O7 Zn3 1_555 1_555
C14 O8 1_555 1_555
C18 C19 1_555 1_555
C21 C22 1_555 1_555
C23 C24 1_555 1_555
C29 N6 1_555 1_555
C30 C31 1_555 1_555
C35 N5 1_555 1_555
C37 C38 1_555 1_555
O10 Zn3_3 1_555 1_555
O11 Zn6 1_555 1_555
O13 Zn6_2 1_555 1_555
O14 Zn5_3 1_555 1_555
C44 C48 1_555 1_555
C45 C46 1_555 1_555
C47 C48 1_555 1_555
C49 O18 1_555 1_555
C49 O19 1_555 1_555
C54 C55 1_555 1_555
C61 C62 1_555 1_555
N9 N10 1_555 1_555
O15 Zn4 1_555 1_555
O16 Zn4 1_555 1_555
O17 Zn5 1_555 1_555
O20 Zn4_2 1_555 1_555
C67 N11 1_555 1_555
C69 C70 1_555 1_555
C72 N12 1_555 1_555
N12 Zn6 1_555 1_555
Zn6 O12_2 1_555 1_555

#END
