
#######################################################################
#
#                 Cambridge Crystallographic Data Centre
#                                CCDC 
#
#######################################################################
#
# If this CIF has been generated from an entry in the Cambridge 
# Structural Database, then it will include bibliographic, chemical, 
# crystal, experimental, refinement or atomic coordinate data resulting 
# from the CCDC's data processing and validation procedures.
#
#######################################################################

data_DUXLUF01
_chemical_formula_moiety         'C108 H66 O42 Zn24'
_symmetry_cell_setting           rhombohedral
_symmetry_space_group_name_H-M   'R -3 m'
_symmetry_Int_Tables_number      166
_space_group_name_Hall           '-R 3 2"'
loop_
_symmetry_equiv_pos_site_id
_symmetry_equiv_pos_as_xyz
1 x,y,z
2 -y,x-y,z
3 -x+y,-x,z
4 x-y,-y,-z
5 -x,-x+y,-z
6 y,x,-z
7 2/3+x,1/3+y,1/3+z
8 2/3-y,1/3+x-y,1/3+z
9 2/3-x+y,1/3-x,1/3+z
10 2/3+x-y,1/3-y,1/3-z
11 2/3-x,1/3-x+y,1/3-z
12 2/3+y,1/3+x,1/3-z
13 1/3+x,2/3+y,2/3+z
14 1/3-y,2/3+x-y,2/3+z
15 1/3-x+y,2/3-x,2/3+z
16 1/3+x-y,2/3-y,2/3-z
17 1/3-x,2/3-x+y,2/3-z
18 1/3+y,2/3+x,2/3-z
19 -x,-y,-z
20 y,-x+y,-z
21 x-y,x,-z
22 -x+y,y,z
23 x,x-y,z
24 -y,-x,z
25 1/3-x,2/3-y,2/3-z
26 1/3+y,2/3-x+y,2/3-z
27 1/3+x-y,2/3+x,2/3-z
28 1/3-x+y,2/3+y,2/3+z
29 1/3+x,2/3+x-y,2/3+z
30 1/3-y,2/3-x,2/3+z
31 2/3-x,1/3-y,1/3-z
32 2/3+y,1/3-x+y,1/3-z
33 2/3+x-y,1/3+x,1/3-z
34 2/3-x+y,1/3+y,1/3+z
35 2/3+x,1/3+x-y,1/3+z
36 2/3-y,1/3-x,1/3+z
_cell_length_a                   28.7527(18)
_cell_length_b                   28.7527(18)
_cell_length_c                   8.1940(11)
_cell_angle_alpha                90
_cell_angle_beta                 90
_cell_angle_gamma                120
_cell_volume                     5866.56
loop_
_atom_site_label
_atom_site_type_symbol
_atom_site_fract_x
_atom_site_fract_y
_atom_site_fract_z
Zn1 Zn 0.04207(15) 0.70874(15) 0.3333
O1 O 0.0502(11) 0.6484(10) 0.389(3)
O2 O 0.0140(18) 0.5908(10) 0.182(3)
C1 C 0.0390(12) 0.6057(12) 0.314(4)
C2 C 0.0567(11) 0.5699(11) 0.390(3)
C3 C 0.0873(14) 0.5851(12) 0.533(4)
C4 C 0.0423(17) 0.5211(8) 0.317(5)
C5 C 0.1036(18) 0.5518(9) 0.603(5)
H1 H 0.093(18) 0.611(19) 0.58(5)
C6 C 0.137(2) 0.5684(12) 0.754(6)
C7 C 0.186(8) 0.561(8) 0.76(2)
C8 C 0.127(9) 0.592(7) 0.88(2)
C9 C 0.218(10) 0.577(10) 0.90(3)
H2 H 0.1960 0.5481 0.6623
C10 C 0.163(11) 0.609(8) 1.02(2)
H3 H 0.0971 0.5976 0.8765
C11 C 0.204(5) 0.602(3) 1.036(15)
H4 H 0.2437 0.5662 0.9219
H5 H 0.1547 0.6258 1.1072
H6 H 0.2267 0.6134 1.1305
O1V O 0.0502(11) 0.4018(15) 0.389(3)
C1V C 0.0390(12) 0.4333(17) 0.314(4)
C2V C 0.0567(11) 0.4868(16) 0.390(3)
C3V C 0.0873(14) 0.5022(18) 0.533(4)
H1V H 0.093(18) 0.482(26) 0.58(5)
C7V C 0.186(8) 0.625(11) 0.76(2)
C8V C 0.127(9) 0.535(11) 0.88(2)
C9V C 0.218(10) 0.641(14) 0.90(3)
H2V H 0.1960 0.6479 0.6623
C10V C 0.163(11) 0.554(14) 1.02(2)
H3V H 0.0971 0.4995 0.8765
H4V H 0.2437 0.6775 0.9219
H5V H 0.1547 0.5289 1.1072
O2V O 0.0140(18) 0.4232(21) 0.182(3)
Zn1V Zn 0.04207(15) 0.33333(21) 0.3333
Zn1I Zn -0.00000(21) 0.62459(15) 0.0000
Zn1FA Zn -0.00000(21) 0.37540(15) 0.0000
O1Q O -0.0183(10) 0.7169(11) 0.278(3)
O1Y O -0.0183(10) 0.2649(15) 0.278(3)
O2G O 0.0759(10) 0.7565(21) 0.515(3)
O2I O 0.0899(21) 0.7425(10) 0.151(3)
O2FA O 0.0899(21) 0.3473(18) 0.151(3)
O2IA O 0.0759(10) 0.3193(18) 0.515(3)
O1K O 0.3151(10) 0.3835(11) 0.944(3)
C1K C 0.2724(12) 0.3723(12) 1.019(4)
C2K C 0.2366(11) 0.3900(11) 0.943(3)
C3K C 0.2518(12) 0.4206(14) 0.800(4)
C4K C 0.1878(8) 0.3756(17) 1.016(5)
C5K C 0.2185(9) 0.4369(18) 0.730(5)
H1K H 0.278(19) 0.426(18) 0.75(5)
C6K C 0.2351(12) 0.470(2) 0.579(6)
C7K C 0.228(8) 0.519(8) 0.57(2)
C8K C 0.259(7) 0.460(9) 0.45(2)
C9K C 0.244(10) 0.551(10) 0.43(3)
H2K H 0.2148 0.5293 0.6710
C10K C 0.276(8) 0.496(11) 0.31(2)
H3K H 0.2643 0.4304 0.4568
C11K C 0.269(3) 0.537(5) 0.297(15)
H4K H 0.2329 0.5770 0.4114
H5K H 0.2925 0.4880 0.2261
H6K H 0.2801 0.5600 0.2028
O2K O 0.2575(10) 0.3473(18) 1.151(3)
O1FA O 0.0685(15) 0.3835(11) 0.944(3)
C1FA C 0.1000(17) 0.3723(12) 1.019(4)
C2FA C 0.1535(16) 0.3900(11) 0.943(3)
C3FA C 0.1689(18) 0.4206(14) 0.800(4)
H1FA H 0.149(26) 0.426(18) 0.75(5)
C7FA C 0.292(11) 0.519(8) 0.57(2)
C8FA C 0.202(11) 0.460(9) 0.45(2)
C9FA C 0.308(14) 0.551(10) 0.43(3)
H2FA H 0.3146 0.5293 0.6710
C10FA C 0.221(14) 0.496(11) 0.31(2)
H3FA H 0.1662 0.4304 0.4568
H4FA H 0.3442 0.5770 0.4114
H5FA H 0.1956 0.4880 0.2261
O2FA_2 O 0.0899(21) 0.3473(18) 1.151(3)
Zn1A Zn 0.29126(15) 0.33333(21) 1.3333
Zn1K Zn 0.37541(15) 0.37540(15) 1.0000
Zn1V_2 Zn 0.04207(15) 0.33333(21) 1.3333
Zn1FA_2 Zn -0.00000(21) 0.37540(15) 1.0000
O1EA O 0.3151(10) 0.9315(15) 0.944(3)
C1EA C 0.2724(12) 0.9000(17) 1.019(4)
C2EA C 0.2366(11) 0.8465(16) 0.943(3)
C3EA C 0.2518(12) 0.8311(18) 0.800(4)
C4I C 0.1879(19) 0.8122(8) 1.016(5)
C5I C 0.2185(20) 0.7815(9) 0.730(5)
H1EA H 0.278(19) 0.851(26) 0.75(5)
C6I C 0.2353(23) 0.7649(12) 0.579(6)
C7EA C 0.228(8) 0.708(11) 0.57(2)
C8EA C 0.259(7) 0.798(11) 0.45(2)
C9EA C 0.244(10) 0.692(14) 0.43(3)
H2EA H 0.2148 0.6854 0.6710
C10EA C 0.276(8) 0.779(14) 0.31(2)
H3EA H 0.2643 0.8338 0.4568
C11I C 0.269(6) 0.731(3) 0.297(15)
H4EA H 0.2329 0.6558 0.4114
H5EA H 0.2925 0.8044 0.2261
H6I H 0.2800 0.7199 0.2028
O2EA O 0.2575(10) 0.9101(21) 1.151(3)
O1I O 0.0685(15) 0.6849(10) 0.944(3)
C1I C 0.1000(17) 0.7276(12) 1.019(4)
C2I C 0.1535(16) 0.7634(11) 0.943(3)
C3I C 0.1689(18) 0.7482(12) 0.800(4)
H1I H 0.149(26) 0.722(19) 0.75(5)
C7I C 0.292(11) 0.772(8) 0.57(2)
C8I C 0.202(11) 0.741(7) 0.45(2)
C9I C 0.308(14) 0.756(10) 0.43(3)
H2I H 0.3146 0.7852 0.6710
C10I C 0.221(14) 0.724(8) 0.31(2)
H3I H 0.1662 0.7357 0.4568
H4I H 0.3442 0.7671 0.4114
H5I H 0.1956 0.7075 0.2261
O2I_2 O 0.0899(21) 0.7425(10) 1.151(3)
Zn1_2 Zn 0.04207(15) 0.70874(15) 1.3333
Zn1I_2 Zn -0.00000(21) 0.62459(15) 1.0000
Zn1W Zn 0.29126(15) 0.95793(15) 1.3333
Zn1EA Zn 0.37541(15) 1.00000(21) 1.0000
O1U O 0.5982(15) 0.6484(10) 0.389(3)
C1U C 0.5667(17) 0.6057(12) 0.314(4)
C2U C 0.5132(16) 0.5699(11) 0.390(3)
C3U C 0.4978(18) 0.5851(12) 0.533(4)
C4A C 0.4789(8) 0.5212(19) 0.317(5)
C5A C 0.4482(9) 0.5518(20) 0.603(5)
H1U H 0.518(26) 0.611(19) 0.58(5)
C6A C 0.4316(12) 0.5686(23) 0.754(6)
C7U C 0.375(11) 0.561(8) 0.76(2)
C8U C 0.465(11) 0.592(7) 0.88(2)
C9U C 0.359(14) 0.577(10) 0.90(3)
H2U H 0.3521 0.5481 0.6623
C10U C 0.446(14) 0.609(8) 1.02(2)
H3U H 0.5005 0.5976 0.8765
C11A C 0.398(3) 0.602(6) 1.036(15)
H4U H 0.3225 0.5662 0.9219
H5U H 0.4711 0.6258 1.1072
H6A H 0.3866 0.6133 1.1305
O2U O 0.5768(21) 0.5908(10) 0.182(3)
O1A O 0.3516(10) 0.4018(15) 0.389(3)
C1A C 0.3943(12) 0.4333(17) 0.314(4)
C2A C 0.4301(11) 0.4868(16) 0.390(3)
C3A C 0.4149(12) 0.5022(18) 0.533(4)
H1A H 0.389(19) 0.482(26) 0.58(5)
C7A C 0.439(8) 0.625(11) 0.76(2)
C8A C 0.408(7) 0.535(11) 0.88(2)
C9A C 0.423(10) 0.641(14) 0.90(3)
H2A H 0.4519 0.6479 0.6623
C10A C 0.391(8) 0.554(14) 1.02(2)
H3A H 0.4024 0.4995 0.8765
H4A H 0.4338 0.6775 0.9219
H5A H 0.3742 0.5289 1.1072
O2A O 0.4092(10) 0.4232(21) 0.182(3)
Zn1A_2 Zn 0.29126(15) 0.33333(21) 0.3333
Zn1U Zn 0.66667(21) 0.70874(15) 0.3333
Zn1K_2 Zn 0.37541(15) 0.37540(15) 0.0000
Zn1DA Zn 0.62460(15) 0.62459(15) 0.0000
O1P O 0.2831(11) 0.2649(15) 0.278(3)
O1Z O 0.7351(15) 0.7169(11) 0.278(3)
O2H O 0.2435(21) 0.3193(18) 0.515(3)
O2K_2 O 0.2575(10) 0.3473(18) 0.151(3)
O2DA O 0.6527(18) 0.7425(10) 0.151(3)
O2HA O 0.6807(18) 0.7565(21) 0.515(3)
O1B O 0.5982(15) 0.9498(11) 0.389(3)
C1B C 0.5667(17) 0.9610(12) 0.314(4)
C2B C 0.5132(16) 0.9433(11) 0.390(3)
C3B C 0.4978(18) 0.9127(14) 0.533(4)
C4B C 0.4788(19) 0.9577(17) 0.317(5)
C5B C 0.4482(20) 0.8964(18) 0.603(5)
H1B H 0.518(26) 0.907(18) 0.58(5)
C6B C 0.4314(23) 0.863(2) 0.754(6)
C7B C 0.375(11) 0.814(8) 0.76(2)
C8B C 0.465(11) 0.873(9) 0.88(2)
C9B C 0.359(14) 0.782(10) 0.90(3)
H2B H 0.3521 0.8040 0.6623
C10B C 0.446(14) 0.837(11) 1.02(2)
H3B H 0.5005 0.9029 0.8765
C11B C 0.398(6) 0.796(5) 1.036(15)
H4B H 0.3225 0.7563 0.9219
H5B H 0.4711 0.8453 1.1072
H6B H 0.3867 0.7733 1.1305
O2B O 0.5768(21) 0.9860(18) 0.182(3)
O1W O 0.3516(10) 0.9498(11) 0.389(3)
C1W C 0.3943(12) 0.9610(12) 0.314(4)
C2W C 0.4301(11) 0.9433(11) 0.390(3)
C3W C 0.4149(12) 0.9127(14) 0.533(4)
H1W H 0.389(19) 0.907(18) 0.58(5)
C7W C 0.439(8) 0.814(8) 0.76(2)
C8W C 0.408(7) 0.873(9) 0.88(2)
C9W C 0.423(10) 0.782(10) 0.90(3)
H2W H 0.4519 0.8040 0.6623
C10W C 0.391(8) 0.837(11) 1.02(2)
H3W H 0.4024 0.9029 0.8765
H4W H 0.4338 0.7563 0.9219
H5W H 0.3742 0.8453 1.1072
O2W O 0.4092(10) 0.9860(18) 0.182(3)
Zn1B Zn 0.66667(21) 0.95793(15) 0.3333
Zn1W_2 Zn 0.29126(15) 0.95793(15) 0.3333
Zn1J Zn 0.62460(15) 1.00000(21) 0.0000
Zn1EA_2 Zn 0.37541(15) 1.00000(21) 0.0000
O1O O 0.7351(15) 1.0183(10) 0.278(3)
O1X O 0.2831(11) 1.0183(10) 0.278(3)
O2F O 0.6807(18) 0.9241(10) 0.515(3)
O2J O 0.6527(18) 0.9101(21) 0.151(3)
O2EA_2 O 0.2575(10) 0.9101(21) 0.151(3)
O2GA O 0.2435(21) 0.9241(10) 0.515(3)
O1J O 0.6165(11) 0.9315(15) 0.944(3)
C1J C 0.6277(12) 0.9000(17) 1.019(4)
C2J C 0.6100(11) 0.8465(16) 0.943(3)
C3J C 0.5794(14) 0.8311(18) 0.800(4)
C4J C 0.6244(17) 0.8121(19) 1.016(5)
C5J C 0.5631(18) 0.7815(20) 0.730(5)
H1J H 0.574(18) 0.851(26) 0.75(5)
C6J C 0.530(2) 0.7647(23) 0.579(6)
C7J C 0.481(8) 0.708(11) 0.57(2)
C8J C 0.540(9) 0.798(11) 0.45(2)
C9J C 0.449(10) 0.692(14) 0.43(3)
H2J H 0.4707 0.6854 0.6710
C10J C 0.504(11) 0.779(14) 0.31(2)
H3J H 0.5696 0.8338 0.4568
C11J C 0.463(5) 0.731(6) 0.297(15)
H4J H 0.4230 0.6558 0.4114
H5J H 0.5120 0.8044 0.2261
H6J H 0.4400 0.7200 0.2028
O2J_2 O 0.6527(18) 0.9101(21) 1.151(3)
O1DA O 0.6165(11) 0.6849(10) 0.944(3)
C1DA C 0.6277(12) 0.7276(12) 1.019(4)
C2DA C 0.6100(11) 0.7634(11) 0.943(3)
C3DA C 0.5794(14) 0.7482(12) 0.800(4)
H1DA H 0.574(18) 0.722(19) 0.75(5)
C7DA C 0.481(8) 0.772(8) 0.57(2)
C8DA C 0.540(9) 0.741(7) 0.45(2)
C9DA C 0.449(10) 0.756(10) 0.43(3)
H2DA H 0.4707 0.7852 0.6710
C10DA C 0.504(11) 0.724(8) 0.31(2)
H3DA H 0.5696 0.7357 0.4568
H4DA H 0.4230 0.7671 0.4114
H5DA H 0.5120 0.7075 0.2261
O2DA_2 O 0.6527(18) 0.7425(10) 1.151(3)
Zn1B_2 Zn 0.66667(21) 0.95793(15) 1.3333
Zn1J_2 Zn 0.62460(15) 1.00000(21) 1.0000
Zn1U_2 Zn 0.66667(21) 0.70874(15) 1.3333
Zn1DA_2 Zn 0.62460(15) 0.62459(15) 1.0000
loop_
_geom_bond_atom_site_label_1
_geom_bond_atom_site_label_2
_geom_bond_site_symmetry_1
_geom_bond_site_symmetry_2
Zn1 O1 1_555 1_555
O1 C1 1_555 1_555
O2 C1 1_555 1_555
C1 C2 1_555 1_555
C2 C3 1_555 1_555
C3 C5 1_555 1_555
C4 C2 1_555 1_555
C5 C6 1_555 1_555
H1 C3 1_555 1_555
C6 C7 1_555 1_555
C7 C9 1_555 1_555
C8 C6 1_555 1_555
C9 C11 1_555 1_555
H2 C7 1_555 1_555
C10 C8 1_555 1_555
H3 C8 1_555 1_555
C11 C10 1_555 1_555
H4 C9 1_555 1_555
H5 C10 1_555 1_555
H6 C11 1_555 1_555
O1V C1V 1_555 1_555
C1V C2V 1_555 1_555
C2V C4 1_555 1_555
C3V C5 1_555 1_555
H1V C3V 1_555 1_555
C7V C6 1_555 1_555
C8V C6 1_555 1_555
C9V C11 1_555 1_555
H2V C7V 1_555 1_555
C10V C11 1_555 1_555
H3V C8V 1_555 1_555
H4V C9V 1_555 1_555
H5V C10V 1_555 1_555
O2V C1V 1_555 1_555
Zn1V O1V 1_555 1_555
Zn1I O2 1_555 1_555
Zn1FA O2V 1_555 1_555
O1Q Zn1 1_555 1_555
O1Y Zn1V 1_555 1_555
O2G Zn1 1_555 1_555
O2I Zn1 1_555 1_555
O2FA Zn1V 1_555 1_555
O2IA Zn1V 1_555 1_555
O1K C1K 1_555 1_555
C1K C2K 1_555 1_555
C2K C3K 1_555 1_555
C3K C5K 1_555 1_555
C4K C2K 1_555 1_555
C5K C6K 1_555 1_555
H1K C3K 1_555 1_555
C6K C7K 1_555 1_555
C7K C9K 1_555 1_555
C8K C6K 1_555 1_555
C9K C11K 1_555 1_555
H2K C7K 1_555 1_555
C10K C8K 1_555 1_555
H3K C8K 1_555 1_555
C11K C10K 1_555 1_555
H4K C9K 1_555 1_555
H5K C10K 1_555 1_555
H6K C11K 1_555 1_555
O2K C1K 1_555 1_555
O1FA C1FA 1_555 1_555
C1FA C2FA 1_555 1_555
C2FA C4K 1_555 1_555
C3FA C5K 1_555 1_555
H1FA C3FA 1_555 1_555
C7FA C6K 1_555 1_555
C8FA C6K 1_555 1_555
C9FA C11K 1_555 1_555
H2FA C7FA 1_555 1_555
C10FA C11K 1_555 1_555
H3FA C8FA 1_555 1_555
H4FA C9FA 1_555 1_555
H5FA C10FA 1_555 1_555
O2FA_2 C1FA 1_555 1_555
Zn1A O2K 1_555 1_555
Zn1K O1K 1_555 1_555
Zn1V_2 O2FA_2 1_555 1_555
Zn1FA_2 O1FA 1_555 1_555
O1EA C1EA 1_555 1_555
C1EA C2EA 1_555 1_555
C2EA C3EA 1_555 1_555
C3EA C5I 1_555 1_555
C4I C2EA 1_555 1_555
C5I C6I 1_555 1_555
H1EA C3EA 1_555 1_555
C6I C7EA 1_555 1_555
C7EA C9EA 1_555 1_555
C8EA C6I 1_555 1_555
C9EA C11I 1_555 1_555
H2EA C7EA 1_555 1_555
C10EA C8EA 1_555 1_555
H3EA C8EA 1_555 1_555
C11I C10EA 1_555 1_555
H4EA C9EA 1_555 1_555
H5EA C10EA 1_555 1_555
H6I C11I 1_555 1_555
O2EA C1EA 1_555 1_555
O1I C1I 1_555 1_555
C1I C2I 1_555 1_555
C2I C4I 1_555 1_555
C3I C5I 1_555 1_555
H1I C3I 1_555 1_555
C7I C6I 1_555 1_555
C8I C6I 1_555 1_555
C9I C11I 1_555 1_555
H2I C7I 1_555 1_555
C10I C11I 1_555 1_555
H3I C8I 1_555 1_555
H4I C9I 1_555 1_555
H5I C10I 1_555 1_555
O2I_2 C1I 1_555 1_555
Zn1_2 O2I_2 1_555 1_555
Zn1I_2 O1I 1_555 1_555
Zn1W O2EA 1_555 1_555
Zn1EA O1EA 1_555 1_555
O1U C1U 1_555 1_555
C1U C2U 1_555 1_555
C2U C3U 1_555 1_555
C3U C5A 1_555 1_555
C4A C2U 1_555 1_555
C5A C6A 1_555 1_555
H1U C3U 1_555 1_555
C6A C7U 1_555 1_555
C7U C9U 1_555 1_555
C8U C6A 1_555 1_555
C9U C11A 1_555 1_555
H2U C7U 1_555 1_555
C10U C8U 1_555 1_555
H3U C8U 1_555 1_555
C11A C10U 1_555 1_555
H4U C9U 1_555 1_555
H5U C10U 1_555 1_555
H6A C11A 1_555 1_555
O2U C1U 1_555 1_555
O1A C1A 1_555 1_555
C1A C2A 1_555 1_555
C2A C4A 1_555 1_555
C3A C5A 1_555 1_555
H1A C3A 1_555 1_555
C7A C6A 1_555 1_555
C8A C6A 1_555 1_555
C9A C11A 1_555 1_555
H2A C7A 1_555 1_555
C10A C11A 1_555 1_555
H3A C8A 1_555 1_555
H4A C9A 1_555 1_555
H5A C10A 1_555 1_555
O2A C1A 1_555 1_555
Zn1A_2 O1A 1_555 1_555
Zn1U O1U 1_555 1_555
Zn1K_2 O2A 1_555 1_555
Zn1DA O2U 1_555 1_555
O1P Zn1A_2 1_555 1_555
O1Z Zn1U 1_555 1_555
O2H Zn1A_2 1_555 1_555
O2K_2 Zn1A_2 1_555 1_555
O2DA Zn1U 1_555 1_555
O2HA Zn1U 1_555 1_555
O1B C1B 1_555 1_555
C1B C2B 1_555 1_555
C2B C3B 1_555 1_555
C3B C5B 1_555 1_555
C4B C2B 1_555 1_555
C5B C6B 1_555 1_555
H1B C3B 1_555 1_555
C6B C7B 1_555 1_555
C7B C9B 1_555 1_555
C8B C6B 1_555 1_555
C9B C11B 1_555 1_555
H2B C7B 1_555 1_555
C10B C8B 1_555 1_555
H3B C8B 1_555 1_555
C11B C10B 1_555 1_555
H4B C9B 1_555 1_555
H5B C10B 1_555 1_555
H6B C11B 1_555 1_555
O2B C1B 1_555 1_555
O1W C1W 1_555 1_555
C1W C2W 1_555 1_555
C2W C4B 1_555 1_555
C3W C5B 1_555 1_555
H1W C3W 1_555 1_555
C7W C6B 1_555 1_555
C8W C6B 1_555 1_555
C9W C11B 1_555 1_555
H2W C7W 1_555 1_555
C10W C11B 1_555 1_555
H3W C8W 1_555 1_555
H4W C9W 1_555 1_555
H5W C10W 1_555 1_555
O2W C1W 1_555 1_555
Zn1B O1B 1_555 1_555
Zn1W_2 O1W 1_555 1_555
Zn1J O2B 1_555 1_555
Zn1EA_2 O2W 1_555 1_555
O1O Zn1B 1_555 1_555
O1X Zn1W_2 1_555 1_555
O2F Zn1B 1_555 1_555
O2J Zn1B 1_555 1_555
O2EA_2 Zn1W_2 1_555 1_555
O2GA Zn1W_2 1_555 1_555
O1J C1J 1_555 1_555
C1J C2J 1_555 1_555
C2J C3J 1_555 1_555
C3J C5J 1_555 1_555
C4J C2J 1_555 1_555
C5J C6J 1_555 1_555
H1J C3J 1_555 1_555
C6J C7J 1_555 1_555
C7J C9J 1_555 1_555
C8J C6J 1_555 1_555
C9J C11J 1_555 1_555
H2J C7J 1_555 1_555
C10J C8J 1_555 1_555
H3J C8J 1_555 1_555
C11J C10J 1_555 1_555
H4J C9J 1_555 1_555
H5J C10J 1_555 1_555
H6J C11J 1_555 1_555
O2J_2 C1J 1_555 1_555
O1DA C1DA 1_555 1_555
C1DA C2DA 1_555 1_555
C2DA C4J 1_555 1_555
C3DA C5J 1_555 1_555
H1DA C3DA 1_555 1_555
C7DA C6J 1_555 1_555
C8DA C6J 1_555 1_555
C9DA C11J 1_555 1_555
H2DA C7DA 1_555 1_555
C10DA C11J 1_555 1_555
H3DA C8DA 1_555 1_555
H4DA C9DA 1_555 1_555
H5DA C10DA 1_555 1_555
O2DA_2 C1DA 1_555 1_555
Zn1B_2 O2J_2 1_555 1_555
Zn1J_2 O1J 1_555 1_555
Zn1U_2 O2DA_2 1_555 1_555
Zn1DA_2 O1DA 1_555 1_555
C2V C3V 1_555 1_555
C7V C9V 1_555 1_555
C8V C10V 1_555 1_555
C2FA C3FA 1_555 1_555
C7FA C9FA 1_555 1_555
C8FA C10FA 1_555 1_555
C2I C3I 1_555 1_555
C7I C9I 1_555 1_555
C8I C10I 1_555 1_555
C2A C3A 1_555 1_555
C7A C9A 1_555 1_555
C8A C10A 1_555 1_555
C2W C3W 1_555 1_555
C7W C9W 1_555 1_555
C8W C10W 1_555 1_555
C2DA C3DA 1_555 1_555
C7DA C9DA 1_555 1_555
C8DA C10DA 1_555 1_555

#END
