
#######################################################################
#
#                 Cambridge Crystallographic Data Centre
#                                CCDC 
#
#######################################################################
#
# If this CIF has been generated from an entry in the Cambridge 
# Structural Database, then it will include bibliographic, chemical, 
# crystal, experimental, refinement or atomic coordinate data resulting 
# from the CCDC's data processing and validation procedures.
#
#######################################################################

data_DUXLUF03
_chemical_formula_moiety         'C108 H66 O42 Zn24'
_symmetry_cell_setting           rhombohedral
_symmetry_space_group_name_H-M   'R -3 m'
_symmetry_Int_Tables_number      166
_space_group_name_Hall           '-R 3 2"'
loop_
_symmetry_equiv_pos_site_id
_symmetry_equiv_pos_as_xyz
1 x,y,z
2 -y,x-y,z
3 -x+y,-x,z
4 x-y,-y,-z
5 -x,-x+y,-z
6 y,x,-z
7 2/3+x,1/3+y,1/3+z
8 2/3-y,1/3+x-y,1/3+z
9 2/3-x+y,1/3-x,1/3+z
10 2/3+x-y,1/3-y,1/3-z
11 2/3-x,1/3-x+y,1/3-z
12 2/3+y,1/3+x,1/3-z
13 1/3+x,2/3+y,2/3+z
14 1/3-y,2/3+x-y,2/3+z
15 1/3-x+y,2/3-x,2/3+z
16 1/3+x-y,2/3-y,2/3-z
17 1/3-x,2/3-x+y,2/3-z
18 1/3+y,2/3+x,2/3-z
19 -x,-y,-z
20 y,-x+y,-z
21 x-y,x,-z
22 -x+y,y,z
23 x,x-y,z
24 -y,-x,z
25 1/3-x,2/3-y,2/3-z
26 1/3+y,2/3-x+y,2/3-z
27 1/3+x-y,2/3+x,2/3-z
28 1/3-x+y,2/3+y,2/3+z
29 1/3+x,2/3+x-y,2/3+z
30 1/3-y,2/3-x,2/3+z
31 2/3-x,1/3-y,1/3-z
32 2/3+y,1/3-x+y,1/3-z
33 2/3+x-y,1/3+x,1/3-z
34 2/3-x+y,1/3+y,1/3+z
35 2/3+x,1/3+x-y,1/3+z
36 2/3-y,1/3-x,1/3+z
_cell_length_a                   28.7660(19)
_cell_length_b                   28.7660(19)
_cell_length_c                   8.1516(11)
_cell_angle_alpha                90
_cell_angle_beta                 90
_cell_angle_gamma                120
_cell_volume                     5841.61
loop_
_atom_site_label
_atom_site_type_symbol
_atom_site_fract_x
_atom_site_fract_y
_atom_site_fract_z
Zn1 Zn 0.04199(11) 0.70866(11) 0.3333
C1 C 0.2677(10) 0.7323(10) -0.710(6)
C2 C 0.240(6) 0.693(4) -0.577(13)
H1 H 0.2308 0.6566 -0.5946
C3 C 0.274(4) 0.781(5) -0.695(11)
H2 H 0.2865 0.8037 -0.7906
C4 C 0.226(5) 0.709(4) -0.434(12)
H3 H 0.2096 0.6849 -0.3431
C5 C 0.257(4) 0.799(4) -0.554(11)
H4 H 0.2654 0.8352 -0.5469
C6 C 0.2354(7) 0.7646(7) -0.426(4)
C7 C 0.2187(6) 0.7813(6) -0.275(4)
C8 C 0.1685(9) 0.7481(9) -0.204(3)
C9 C 0.1537(8) 0.7635(8) -0.059(3)
C10 C 0.1878(6) 0.8122(6) 0.014(4)
C11 C 0.1001(8) 0.7275(9) 0.017(3)
O1 O 0.0686(6) 0.6848(6) -0.059(2)
O2 O 0.0902(6) 0.7426(7) 0.1507(18)
H5 H 0.173(9) 0.827(9) 0.12(5)
H6 H 0.141(11) 0.720(11) -0.26(3)
C2W C 0.307(4) 0.760(6) -0.577(13)
H1W H 0.3434 0.7692 -0.5946
C3W C 0.219(5) 0.726(4) -0.695(11)
H2W H 0.1963 0.7135 -0.7906
C4W C 0.291(4) 0.774(5) -0.434(12)
H3W H 0.3151 0.7904 -0.3431
C5W C 0.201(4) 0.743(4) -0.554(11)
H4W H 0.1648 0.7346 -0.5469
C8W C 0.2519(9) 0.8315(9) -0.204(3)
C9W C 0.2365(8) 0.8463(8) -0.059(3)
C11W C 0.2725(9) 0.8999(8) 0.017(3)
O1W O 0.3152(6) 0.9314(6) -0.059(2)
O2W O 0.2574(7) 0.9098(6) 0.1507(18)
H6W H 0.280(11) 0.859(11) -0.26(3)
Zn1W Zn 0.29134(11) 0.95801(11) 0.3333
Zn1I Zn -0.00000(16) 0.62467(11) 0.0000
Zn1EA Zn 0.37533(11) 1.00000(16) 0.0000
O1G O -0.0181(6) 0.7171(8) 0.274(2)
O1I O 0.0505(8) 0.6485(6) 0.392(2)
O1EA O 0.3515(6) 0.9495(8) 0.392(2)
O1GA O 0.2829(8) 1.0181(6) 0.274(2)
O2Q O 0.0759(7) 0.7569(6) 0.5160(18)
O2X O 0.2431(6) 0.9241(7) 0.5160(18)
C1I C 0.2021(14) 0.6010(10) 0.043(6)
C2I C 0.214(7) 0.640(4) -0.090(13)
H1I H 0.2409 0.6767 -0.0721
C3I C 0.160(6) 0.552(5) 0.028(11)
H2I H 0.1495 0.5296 0.1239
C4I C 0.184(6) 0.624(4) -0.233(12)
H3I H 0.1914 0.6484 -0.3236
C5I C 0.125(6) 0.534(4) -0.113(11)
H4I H 0.0969 0.4981 -0.1198
C6I C 0.1375(10) 0.5687(7) -0.241(4)
C7I C 0.1041(8) 0.5520(6) -0.392(4)
C8I C 0.0871(13) 0.5852(9) -0.463(3)
C9I C 0.0569(11) 0.5698(8) -0.608(3)
C10I C 0.0423(8) 0.5211(6) -0.681(4)
C11I C 0.0393(12) 0.6058(9) -0.684(3)
O1I_2 O 0.0505(8) 0.6485(6) -0.608(2)
O2I O 0.0143(9) 0.5907(7) -0.8174(18)
H5I H 0.013(13) 0.506(9) -0.79(5)
H6I H 0.088(16) 0.613(11) -0.41(3)
C2FA C 0.214(7) 0.573(6) -0.090(13)
H1FA H 0.2409 0.5641 -0.0721
C3FA C 0.160(6) 0.607(4) 0.028(11)
H2FA H 0.1495 0.6198 0.1239
C4FA C 0.184(6) 0.559(5) -0.233(12)
H3FA H 0.1914 0.5429 -0.3236
C5FA C 0.125(6) 0.590(4) -0.113(11)
H4FA H 0.0969 0.5987 -0.1198
C8FA C 0.0871(13) 0.5018(9) -0.463(3)
C9FA C 0.0569(11) 0.4870(8) -0.608(3)
C11FA C 0.0393(12) 0.4334(8) -0.684(3)
O1FA O 0.0505(8) 0.4019(6) -0.608(2)
O2FA O 0.0143(9) 0.4235(6) -0.8174(18)
H6FA H 0.088(16) 0.474(11) -0.41(3)
Zn1_2 Zn 0.04199(11) 0.70866(11) -0.6667
Zn1I_2 Zn -0.00000(16) 0.62467(11) -1.0000
Zn1V Zn 0.04199(11) 0.33333(16) -0.6667
Zn1FA Zn -0.00000(16) 0.37532(11) -1.0000
C1J C 0.3990(10) 0.7979(14) 0.043(6)
C2EA C 0.360(4) 0.786(7) -0.090(13)
H1EA H 0.3233 0.7591 -0.0721
C3EA C 0.448(5) 0.840(6) 0.028(11)
H2EA H 0.4704 0.8505 0.1239
C4EA C 0.376(4) 0.816(6) -0.233(12)
H3EA H 0.3516 0.8086 -0.3236
C5EA C 0.466(4) 0.875(6) -0.113(11)
H4EA H 0.5019 0.9031 -0.1198
C6J C 0.4313(7) 0.8625(10) -0.241(4)
C7J C 0.4480(6) 0.8959(8) -0.392(4)
C8EA C 0.4148(9) 0.9129(13) -0.463(3)
C9EA C 0.4302(8) 0.9431(11) -0.608(3)
C10J C 0.4789(6) 0.9577(8) -0.681(4)
C11EA C 0.3942(9) 0.9607(12) -0.684(3)
O1EA_2 O 0.3515(6) 0.9495(8) -0.608(2)
O2EA O 0.4093(7) 0.9857(9) -0.8174(18)
H5J H 0.494(9) 0.987(13) -0.79(5)
H6EA H 0.387(11) 0.912(16) -0.41(3)
C2J C 0.427(6) 0.786(7) -0.090(13)
H1J H 0.4359 0.7591 -0.0721
C3J C 0.393(4) 0.840(6) 0.028(11)
H2J H 0.3802 0.8505 0.1239
C4J C 0.441(5) 0.816(6) -0.233(12)
H3J H 0.4571 0.8086 -0.3236
C5J C 0.410(4) 0.875(6) -0.113(11)
H4J H 0.4013 0.9031 -0.1198
C8J C 0.4982(9) 0.9129(13) -0.463(3)
C9J C 0.5130(8) 0.9431(11) -0.608(3)
C11J C 0.5666(8) 0.9607(12) -0.684(3)
O1J O 0.5981(6) 0.9495(8) -0.608(2)
O2J O 0.5765(6) 0.9857(9) -0.8174(18)
H6J H 0.526(11) 0.912(16) -0.41(3)
Zn1B Zn 0.66667(16) 0.95801(11) -0.6667
Zn1J Zn 0.62468(11) 1.00000(16) -1.0000
Zn1W_2 Zn 0.29134(11) 0.95801(11) -0.6667
Zn1EA_2 Zn 0.37533(11) 1.00000(16) -1.0000
C1A C 0.2677(10) 0.5354(14) -0.710(6)
C2V C 0.240(6) 0.547(7) -0.577(13)
H1V H 0.2308 0.5742 -0.5946
C3V C 0.274(4) 0.493(6) -0.695(11)
H2V H 0.2865 0.4828 -0.7906
C4V C 0.226(5) 0.517(6) -0.434(12)
H3V H 0.2096 0.5247 -0.3431
C5V C 0.257(4) 0.458(6) -0.554(11)
H4V H 0.2654 0.4302 -0.5469
C6A C 0.2354(7) 0.4708(10) -0.426(4)
C7A C 0.2187(6) 0.4374(8) -0.275(4)
C8V C 0.1685(9) 0.4204(13) -0.204(3)
C9V C 0.1537(8) 0.3902(11) -0.059(3)
C10A C 0.1878(6) 0.3756(8) 0.014(4)
C11V C 0.1001(8) 0.3726(12) 0.017(3)
O1V O 0.0686(6) 0.3838(8) -0.059(2)
O2V O 0.0902(6) 0.3476(9) 0.1507(18)
H5A H 0.173(9) 0.346(13) 0.12(5)
H6V H 0.141(11) 0.421(16) -0.26(3)
C2A C 0.307(4) 0.547(7) -0.577(13)
H1A H 0.3434 0.5742 -0.5946
C3A C 0.219(5) 0.493(6) -0.695(11)
H2A H 0.1963 0.4828 -0.7906
C4A C 0.291(4) 0.517(6) -0.434(12)
H3A H 0.3151 0.5247 -0.3431
C5A C 0.201(4) 0.458(6) -0.554(11)
H4A H 0.1648 0.4302 -0.5469
C8A C 0.2519(9) 0.4204(13) -0.204(3)
C9A C 0.2365(8) 0.3902(11) -0.059(3)
C11A C 0.2725(9) 0.3726(12) 0.017(3)
O1A O 0.3152(6) 0.3838(8) -0.059(2)
O2A O 0.2574(7) 0.3476(9) 0.1507(18)
H6A H 0.280(11) 0.421(16) -0.26(3)
Zn1A Zn 0.29134(11) 0.33333(16) 0.3333
Zn1V_2 Zn 0.04199(11) 0.33333(16) 0.3333
Zn1K Zn 0.37533(11) 0.37532(11) 0.0000
Zn1FA_2 Zn -0.00000(16) 0.37532(11) 0.0000
O1H O 0.2829(8) 0.2647(6) 0.274(2)
O1K O 0.3515(6) 0.4019(6) 0.392(2)
O1FA_2 O 0.0505(8) 0.4019(6) 0.392(2)
O1IA O -0.0181(6) 0.2647(6) 0.274(2)
O2P O 0.2431(6) 0.3191(9) 0.5160(18)
O2Y O 0.0759(7) 0.3191(9) 0.5160(18)
C1B C 0.4646(14) 0.7323(10) -0.710(6)
C2B C 0.453(7) 0.760(6) -0.577(13)
H1B H 0.4258 0.7692 -0.5946
C3B C 0.507(6) 0.726(4) -0.695(11)
H2B H 0.5172 0.7135 -0.7906
C4B C 0.483(6) 0.774(5) -0.434(12)
H3B H 0.4753 0.7904 -0.3431
C5B C 0.542(6) 0.743(4) -0.554(11)
H4B H 0.5698 0.7346 -0.5469
C6B C 0.5292(10) 0.7646(7) -0.426(4)
C7B C 0.5626(8) 0.7813(6) -0.275(4)
C8B C 0.5796(13) 0.8315(9) -0.204(3)
C9B C 0.6098(11) 0.8463(8) -0.059(3)
C10B C 0.6244(8) 0.8122(6) 0.014(4)
C11B C 0.6274(12) 0.8999(8) 0.017(3)
O1B O 0.6162(8) 0.9314(6) -0.059(2)
O2B O 0.6524(9) 0.9098(6) 0.1507(18)
H5B H 0.654(13) 0.827(9) 0.12(5)
H6B H 0.579(16) 0.859(11) -0.26(3)
C2U C 0.453(7) 0.693(4) -0.577(13)
H1U H 0.4258 0.6566 -0.5946
C3U C 0.507(6) 0.781(5) -0.695(11)
H2U H 0.5172 0.8037 -0.7906
C4U C 0.483(6) 0.709(4) -0.434(12)
H3U H 0.4753 0.6849 -0.3431
C5U C 0.542(6) 0.799(4) -0.554(11)
H4U H 0.5698 0.8352 -0.5469
C8U C 0.5796(13) 0.7481(9) -0.204(3)
C9U C 0.6098(11) 0.7635(8) -0.059(3)
C11U C 0.6274(12) 0.7275(9) 0.017(3)
O1U O 0.6162(8) 0.6848(6) -0.059(2)
O2U O 0.6524(9) 0.7426(7) 0.1507(18)
H6U H 0.579(16) 0.720(11) -0.26(3)
Zn1B_2 Zn 0.66667(16) 0.95801(11) 0.3333
Zn1U Zn 0.66667(16) 0.70866(11) 0.3333
Zn1J_2 Zn 0.62468(11) 1.00000(16) 0.0000
Zn1DA Zn 0.62468(11) 0.62467(11) 0.0000
O1F O 0.7353(6) 1.0181(6) 0.274(2)
O1J_2 O 0.5981(6) 0.9495(8) 0.392(2)
O1DA O 0.5981(6) 0.6485(6) 0.392(2)
O1HA O 0.7353(6) 0.7171(8) 0.274(2)
O2O O 0.6809(9) 0.9241(7) 0.5160(18)
O2Z O 0.6809(9) 0.7569(6) 0.5160(18)
C1K C 0.3990(10) 0.6010(10) 0.043(6)
C2K C 0.360(4) 0.573(6) -0.090(13)
H1K H 0.3233 0.5641 -0.0721
C3K C 0.448(5) 0.607(4) 0.028(11)
H2K H 0.4704 0.6198 0.1239
C4K C 0.376(4) 0.559(5) -0.233(12)
H3K H 0.3516 0.5429 -0.3236
C5K C 0.466(4) 0.590(4) -0.113(11)
H4K H 0.5019 0.5987 -0.1198
C6K C 0.4313(7) 0.5687(7) -0.241(4)
C7K C 0.4480(6) 0.5520(6) -0.392(4)
C8K C 0.4148(9) 0.5018(9) -0.463(3)
C9K C 0.4302(8) 0.4870(8) -0.608(3)
C10K C 0.4789(6) 0.5211(6) -0.681(4)
C11K C 0.3942(9) 0.4334(8) -0.684(3)
O1K_2 O 0.3515(6) 0.4019(6) -0.608(2)
O2K O 0.4093(7) 0.4235(6) -0.8174(18)
H5K H 0.494(9) 0.506(9) -0.79(5)
H6K H 0.387(11) 0.474(11) -0.41(3)
C2DA C 0.427(6) 0.640(4) -0.090(13)
H1DA H 0.4359 0.6767 -0.0721
C3DA C 0.393(4) 0.552(5) 0.028(11)
H2DA H 0.3802 0.5296 0.1239
C4DA C 0.441(5) 0.624(4) -0.233(12)
H3DA H 0.4571 0.6484 -0.3236
C5DA C 0.410(4) 0.534(4) -0.113(11)
H4DA H 0.4013 0.4981 -0.1198
C8DA C 0.4982(9) 0.5852(9) -0.463(3)
C9DA C 0.5130(8) 0.5698(8) -0.608(3)
C11DA C 0.5666(8) 0.6058(9) -0.684(3)
O1DA_2 O 0.5981(6) 0.6485(6) -0.608(2)
O2DA O 0.5765(6) 0.5907(7) -0.8174(18)
H6DA H 0.526(11) 0.613(11) -0.41(3)
Zn1A_2 Zn 0.29134(11) 0.33333(16) -0.6667
Zn1K_2 Zn 0.37533(11) 0.37532(11) -1.0000
Zn1U_2 Zn 0.66667(16) 0.70866(11) -0.6667
Zn1DA_2 Zn 0.62468(11) 0.62467(11) -1.0000
loop_
_geom_bond_atom_site_label_1
_geom_bond_atom_site_label_2
_geom_bond_site_symmetry_1
_geom_bond_site_symmetry_2
Zn1 O2 1_555 1_555
C1 C2 1_555 1_555
C2 H1 1_555 1_555
C3 C1 1_555 1_555
H2 C3 1_555 1_555
C4 C2 1_555 1_555
H3 C4 1_555 1_555
C5 C3 1_555 1_555
H4 C5 1_555 1_555
C6 C4 1_555 1_555
C7 C6 1_555 1_555
C8 C7 1_555 1_555
C9 C8 1_555 1_555
C10 C9 1_555 1_555
C11 C9 1_555 1_555
O1 C11 1_555 1_555
O2 C11 1_555 1_555
H5 C10 1_555 1_555
H6 C8 1_555 1_555
C2W C1 1_555 1_555
H1W C2W 1_555 1_555
C3W C1 1_555 1_555
H2W C3W 1_555 1_555
C4W C6 1_555 1_555
H3W C4W 1_555 1_555
C5W C6 1_555 1_555
H4W C5W 1_555 1_555
C8W C7 1_555 1_555
C9W C10 1_555 1_555
C11W C9W 1_555 1_555
O1W C11W 1_555 1_555
O2W C11W 1_555 1_555
H6W C8W 1_555 1_555
Zn1W O2W 1_555 1_555
Zn1I O1 1_555 1_555
Zn1EA O1W 1_555 1_555
O1G Zn1 1_555 1_555
O1I Zn1 1_555 1_555
O1EA Zn1W 1_555 1_555
O1GA Zn1W 1_555 1_555
O2Q Zn1 1_555 1_555
O2X Zn1W 1_555 1_555
C1I C2I 1_555 1_555
C2I H1I 1_555 1_555
C3I C1I 1_555 1_555
H2I C3I 1_555 1_555
C4I C2I 1_555 1_555
H3I C4I 1_555 1_555
C5I C3I 1_555 1_555
H4I C5I 1_555 1_555
C6I C4I 1_555 1_555
C7I C6I 1_555 1_555
C8I C7I 1_555 1_555
C9I C8I 1_555 1_555
C10I C9I 1_555 1_555
C11I C9I 1_555 1_555
O1I_2 C11I 1_555 1_555
O2I C11I 1_555 1_555
H5I C10I 1_555 1_555
H6I C8I 1_555 1_555
C2FA C1I 1_555 1_555
H1FA C2FA 1_555 1_555
C3FA C1I 1_555 1_555
H2FA C3FA 1_555 1_555
C4FA C6I 1_555 1_555
H3FA C4FA 1_555 1_555
C5FA C6I 1_555 1_555
H4FA C5FA 1_555 1_555
C8FA C7I 1_555 1_555
C9FA C10I 1_555 1_555
C11FA C9FA 1_555 1_555
O1FA C11FA 1_555 1_555
O2FA C11FA 1_555 1_555
H6FA C8FA 1_555 1_555
Zn1_2 O1I_2 1_555 1_555
Zn1I_2 O2I 1_555 1_555
Zn1V O1FA 1_555 1_555
Zn1FA O2FA 1_555 1_555
C1J C2EA 1_555 1_555
C2EA H1EA 1_555 1_555
C3EA C1J 1_555 1_555
H2EA C3EA 1_555 1_555
C4EA C2EA 1_555 1_555
H3EA C4EA 1_555 1_555
C5EA C3EA 1_555 1_555
H4EA C5EA 1_555 1_555
C6J C4EA 1_555 1_555
C7J C6J 1_555 1_555
C8EA C7J 1_555 1_555
C9EA C8EA 1_555 1_555
C10J C9EA 1_555 1_555
C11EA C9EA 1_555 1_555
O1EA_2 C11EA 1_555 1_555
O2EA C11EA 1_555 1_555
H5J C10J 1_555 1_555
H6EA C8EA 1_555 1_555
C2J C1J 1_555 1_555
H1J C2J 1_555 1_555
C3J C1J 1_555 1_555
H2J C3J 1_555 1_555
C4J C6J 1_555 1_555
H3J C4J 1_555 1_555
C5J C6J 1_555 1_555
H4J C5J 1_555 1_555
C8J C7J 1_555 1_555
C9J C10J 1_555 1_555
C11J C9J 1_555 1_555
O1J C11J 1_555 1_555
O2J C11J 1_555 1_555
H6J C8J 1_555 1_555
Zn1B O1J 1_555 1_555
Zn1J O2J 1_555 1_555
Zn1W_2 O1EA_2 1_555 1_555
Zn1EA_2 O2EA 1_555 1_555
C1A C2V 1_555 1_555
C2V H1V 1_555 1_555
C3V C1A 1_555 1_555
H2V C3V 1_555 1_555
C4V C2V 1_555 1_555
H3V C4V 1_555 1_555
C5V C3V 1_555 1_555
H4V C5V 1_555 1_555
C6A C4V 1_555 1_555
C7A C6A 1_555 1_555
C8V C7A 1_555 1_555
C9V C8V 1_555 1_555
C10A C9V 1_555 1_555
C11V C9V 1_555 1_555
O1V C11V 1_555 1_555
O2V C11V 1_555 1_555
H5A C10A 1_555 1_555
H6V C8V 1_555 1_555
C2A C1A 1_555 1_555
H1A C2A 1_555 1_555
C3A C1A 1_555 1_555
H2A C3A 1_555 1_555
C4A C6A 1_555 1_555
H3A C4A 1_555 1_555
C5A C6A 1_555 1_555
H4A C5A 1_555 1_555
C8A C7A 1_555 1_555
C9A C10A 1_555 1_555
C11A C9A 1_555 1_555
O1A C11A 1_555 1_555
O2A C11A 1_555 1_555
H6A C8A 1_555 1_555
Zn1A O2A 1_555 1_555
Zn1V_2 O2V 1_555 1_555
Zn1K O1A 1_555 1_555
Zn1FA_2 O1V 1_555 1_555
O1H Zn1A 1_555 1_555
O1K Zn1A 1_555 1_555
O1FA_2 Zn1V_2 1_555 1_555
O1IA Zn1V_2 1_555 1_555
O2P Zn1A 1_555 1_555
O2Y Zn1V_2 1_555 1_555
C1B C2B 1_555 1_555
C2B H1B 1_555 1_555
C3B C1B 1_555 1_555
H2B C3B 1_555 1_555
C4B C2B 1_555 1_555
H3B C4B 1_555 1_555
C5B C3B 1_555 1_555
H4B C5B 1_555 1_555
C6B C4B 1_555 1_555
C7B C6B 1_555 1_555
C8B C7B 1_555 1_555
C9B C8B 1_555 1_555
C10B C9B 1_555 1_555
C11B C9B 1_555 1_555
O1B C11B 1_555 1_555
O2B C11B 1_555 1_555
H5B C10B 1_555 1_555
H6B C8B 1_555 1_555
C2U C1B 1_555 1_555
H1U C2U 1_555 1_555
C3U C1B 1_555 1_555
H2U C3U 1_555 1_555
C4U C6B 1_555 1_555
H3U C4U 1_555 1_555
C5U C6B 1_555 1_555
H4U C5U 1_555 1_555
C8U C7B 1_555 1_555
C9U C10B 1_555 1_555
C11U C9U 1_555 1_555
O1U C11U 1_555 1_555
O2U C11U 1_555 1_555
H6U C8U 1_555 1_555
Zn1B_2 O2B 1_555 1_555
Zn1U O2U 1_555 1_555
Zn1J_2 O1B 1_555 1_555
Zn1DA O1U 1_555 1_555
O1F Zn1B_2 1_555 1_555
O1J_2 Zn1B_2 1_555 1_555
O1DA Zn1U 1_555 1_555
O1HA Zn1U 1_555 1_555
O2O Zn1B_2 1_555 1_555
O2Z Zn1U 1_555 1_555
C1K C2K 1_555 1_555
C2K H1K 1_555 1_555
C3K C1K 1_555 1_555
H2K C3K 1_555 1_555
C4K C2K 1_555 1_555
H3K C4K 1_555 1_555
C5K C3K 1_555 1_555
H4K C5K 1_555 1_555
C6K C4K 1_555 1_555
C7K C6K 1_555 1_555
C8K C7K 1_555 1_555
C9K C8K 1_555 1_555
C10K C9K 1_555 1_555
C11K C9K 1_555 1_555
O1K_2 C11K 1_555 1_555
O2K C11K 1_555 1_555
H5K C10K 1_555 1_555
H6K C8K 1_555 1_555
C2DA C1K 1_555 1_555
H1DA C2DA 1_555 1_555
C3DA C1K 1_555 1_555
H2DA C3DA 1_555 1_555
C4DA C6K 1_555 1_555
H3DA C4DA 1_555 1_555
C5DA C6K 1_555 1_555
H4DA C5DA 1_555 1_555
C8DA C7K 1_555 1_555
C9DA C10K 1_555 1_555
C11DA C9DA 1_555 1_555
O1DA_2 C11DA 1_555 1_555
O2DA C11DA 1_555 1_555
H6DA C8DA 1_555 1_555
Zn1A_2 O1K_2 1_555 1_555
Zn1K_2 O2K 1_555 1_555
Zn1U_2 O1DA_2 1_555 1_555
Zn1DA_2 O2DA 1_555 1_555
C5 C6 1_555 1_555
C2W C4W 1_555 1_555
C3W C5W 1_555 1_555
C8W C9W 1_555 1_555
C5I C6I 1_555 1_555
C2FA C4FA 1_555 1_555
C3FA C5FA 1_555 1_555
C8FA C9FA 1_555 1_555
C5EA C6J 1_555 1_555
C2J C4J 1_555 1_555
C3J C5J 1_555 1_555
C8J C9J 1_555 1_555
C5V C6A 1_555 1_555
C2A C4A 1_555 1_555
C3A C5A 1_555 1_555
C8A C9A 1_555 1_555
C5B C6B 1_555 1_555
C2U C4U 1_555 1_555
C3U C5U 1_555 1_555
C8U C9U 1_555 1_555
C5K C6K 1_555 1_555
C2DA C4DA 1_555 1_555
C3DA C5DA 1_555 1_555
C8DA C9DA 1_555 1_555

#END
