
#######################################################################
#
#                 Cambridge Crystallographic Data Centre
#                                CCDC 
#
#######################################################################
#
# If this CIF has been generated from an entry in the Cambridge 
# Structural Database, then it will include bibliographic, chemical, 
# crystal, experimental, refinement or atomic coordinate data resulting 
# from the CCDC's data processing and validation procedures.
#
#######################################################################

data_DUXLUF
_chemical_formula_moiety         'C18 H12 O7 Zn4'
_symmetry_cell_setting           rhombohedral
_symmetry_space_group_name_H-M   'R -3 m'
_symmetry_Int_Tables_number      166
_space_group_name_Hall           '-R 3 2"'
loop_
_symmetry_equiv_pos_site_id
_symmetry_equiv_pos_as_xyz
1 x,y,z
2 -y,x-y,z
3 -x+y,-x,z
4 x-y,-y,-z
5 -x,-x+y,-z
6 y,x,-z
7 2/3+x,1/3+y,1/3+z
8 2/3-y,1/3+x-y,1/3+z
9 2/3-x+y,1/3-x,1/3+z
10 2/3+x-y,1/3-y,1/3-z
11 2/3-x,1/3-x+y,1/3-z
12 2/3+y,1/3+x,1/3-z
13 1/3+x,2/3+y,2/3+z
14 1/3-y,2/3+x-y,2/3+z
15 1/3-x+y,2/3-x,2/3+z
16 1/3+x-y,2/3-y,2/3-z
17 1/3-x,2/3-x+y,2/3-z
18 1/3+y,2/3+x,2/3-z
19 -x,-y,-z
20 y,-x+y,-z
21 x-y,x,-z
22 -x+y,y,z
23 x,x-y,z
24 -y,-x,z
25 1/3-x,2/3-y,2/3-z
26 1/3+y,2/3-x+y,2/3-z
27 1/3+x-y,2/3+x,2/3-z
28 1/3-x+y,2/3+y,2/3+z
29 1/3+x,2/3+x-y,2/3+z
30 1/3-y,2/3-x,2/3+z
31 2/3-x,1/3-y,1/3-z
32 2/3+y,1/3-x+y,1/3-z
33 2/3+x-y,1/3+x,1/3-z
34 2/3-x+y,1/3+y,1/3+z
35 2/3+x,1/3+x-y,1/3+z
36 2/3-y,1/3-x,1/3+z
_cell_length_a                   28.684(3)
_cell_length_b                   28.684(3)
_cell_length_c                   8.1780(17)
_cell_angle_alpha                90
_cell_angle_beta                 90
_cell_angle_gamma                120
_cell_volume                     5827.16
loop_
_atom_site_label
_atom_site_type_symbol
_atom_site_fract_x
_atom_site_fract_y
_atom_site_fract_z
_atom_site_U_iso_or_equiv
_atom_site_thermal_displace_type
Zn1 Zn 0.04200(2) 0.70867(2) 0.3333 0.0202 Uani
C1 C 0.06760(18) 0.93240(18) 1.3786(11) 0.0521 Uani
H1 H 0.0583 0.9417 1.4777 0.0630 Uiso
C2 C 0.1149(4) 0.9371(4) 1.3597(15) 0.0517 Uani
H2 H 0.1386 0.9486 1.4522 0.0620 Uiso
C3 C 0.0285(5) 0.9087(5) 1.2415(16) 0.0617 Uani
H3 H -0.0069 0.9042 1.2523 0.0740 Uiso
C4 C 0.0435(8) 0.8923(9) 1.092(3) 0.1323 Uani
H4 H 0.0196 0.8771 1.0001 0.1590 Uiso
C5 C 0.1342(8) 0.9262(8) 1.209(3) 0.1250 Uani
H5 H 0.1714 0.9368 1.1951 0.1500 Uiso
C6 C 0.09865(15) 0.90135(15) 1.0911(9) 0.0368 Uani
C7 C 0.11464(14) 0.88536(14) 0.9341(8) 0.0310 Uani
C8 C 0.08145(17) 0.83481(17) 0.8669(6) 0.0324 Uani
H6 H 0.0491 0.8111 0.9177 0.0390 Uiso
C9 C 0.09656(15) 0.81965(15) 0.7233(5) 0.0250 Uani
C10 C 0.14555(13) 0.85445(13) 0.6472(8) 0.0270 Uani
H7 H 0.1548 0.8452 0.5482 0.0320 Uiso
C11 C 0.06145(16) 0.76701(16) 0.6472(5) 0.0293 Uani
O1 O 0.07569(13) 0.75635(13) 0.5143(4) 0.0415 Uani
O2 O 0.01863(13) 0.73512(13) 0.7246(4) 0.0421 Uani
C2W C 0.0629(4) 0.8851(4) 1.3597(15) 0.0517 Uani
H2W H 0.0514 0.8614 1.4522 0.0620 Uiso
C3W C 0.0913(5) 0.9715(5) 1.2415(16) 0.0617 Uani
H3W H 0.0958 1.0069 1.2523 0.0740 Uiso
C4W C 0.1077(9) 0.9565(8) 1.092(3) 0.1323 Uani
H4W H 0.1229 0.9804 1.0001 0.1590 Uiso
C5W C 0.0738(8) 0.8658(8) 1.209(3) 0.1250 Uani
H5W H 0.0632 0.8286 1.1951 0.1500 Uiso
C8W C 0.16519(17) 0.91855(17) 0.8669(6) 0.0324 Uani
H6W H 0.1889 0.9509 0.9177 0.0390 Uiso
C9W C 0.18035(15) 0.90344(15) 0.7233(5) 0.0250 Uani
C11W C 0.23299(16) 0.93855(16) 0.6472(5) 0.0293 Uani
O1W O 0.24365(13) 0.92431(13) 0.5143(4) 0.0415 Uani
O2W O 0.26488(13) 0.98137(13) 0.7246(4) 0.0421 Uani
Zn1D Zn -0.04200(2) 0.66667(3) 0.6667 0.0202 Uani
Zn1T Zn 0.33333(3) 1.04200(2) 0.6667 0.0202 Uani
Zn1W Zn 0.29133(2) 0.95800(2) 0.3333 0.0202 Uani
O1Q O 0.08968(13) 0.74236(13) 0.1524(4) 0.0415 Uani
O2D O -0.01863(13) 0.71649(18) 0.2754(4) 0.0421 Uani
O2N O 0.04982(18) 0.64804(13) 0.3913(4) 0.0421 Uani
loop_
_atom_site_aniso_label
_atom_site_aniso_U_11
_atom_site_aniso_U_22
_atom_site_aniso_U_33
_atom_site_aniso_U_23
_atom_site_aniso_U_13
_atom_site_aniso_U_12
Zn1 0.02014(14) 0.02014(14) 0.0202(3) -0.00014(13) 0.00014(13) 0.01009(18)
C1 0.052(2) 0.052(2) 0.051(5) -0.001(2) 0.001(2) 0.025(3)
C2 0.052(5) 0.051(5) 0.051(6) -0.001(5) 0.001(5) 0.025(4)
C3 0.060(6) 0.063(6) 0.061(7) -0.001(6) 0.002(6) 0.030(5)
C4 0.131(14) 0.136(14) 0.133(18) -0.006(14) 0.001(14) 0.069(11)
C5 0.128(13) 0.127(13) 0.123(16) -0.004(13) 0.000(13) 0.066(10)
C6 0.0364(16) 0.0364(16) 0.036(4) -0.0007(16) 0.0007(16) 0.017(2)
C7 0.0308(14) 0.0308(14) 0.031(3) -0.0002(14) 0.0002(14) 0.0152(19)
C8 0.0324(18) 0.0324(18) 0.032(2) -0.0003(18) 0.0007(18) 0.0159(14)
C9 0.0248(16) 0.0248(16) 0.025(2) -0.0002(15) 0.0001(16) 0.0122(12)
C10 0.0269(13) 0.0269(13) 0.027(3) 0.0000(13) 0.0000(13) 0.0132(18)
C11 0.0295(17) 0.0291(17) 0.029(2) -0.0002(17) 0.0001(17) 0.0145(13)
O1 0.0416(14) 0.0414(15) 0.0409(19) -0.0010(14) 0.0002(15) 0.0203(11)
O2 0.0419(15) 0.0414(15) 0.0420(18) -0.0004(14) 0.0005(15) 0.0200(11)
C2W 0.051 0.052 0.051 -0.001 0.001 0.025
C3W 0.063 0.06 0.061 -0.002 0.001 0.03
C4W 0.136 0.131 0.133 -0.001 0.006 0.069
C5W 0.127 0.128 0.123 0 0.004 0.066
C8W 0.0324 0.0324 0.032 -0.0007 0.0003 0.0159
C9W 0.0248 0.0248 0.025 -0.0001 0.0002 0.0122
C11W 0.0291 0.0295 0.029 -0.0001 0.0002 0.0145
O1W 0.0414 0.0416 0.0409 -0.0002 0.001 0.0203
O2W 0.0414 0.0419 0.042 -0.0005 0.0004 0.02
Zn1D 0.02014 0.0201 0.0202 0.00028 0.00014 0.01005
Zn1T 0.0201 0.02014 0.0202 -0.00014 -0.00028 0.01005
Zn1W 0.02014 0.02014 0.0202 -0.00014 0.00014 0.01009
O1Q 0.0414 0.0416 0.0409 -0.0002 0.001 0.0203
O2D 0.0419 0.0433 0.042 0.0009 0.0005 0.0219
O2N 0.0433 0.0419 0.042 -0.0005 -0.0009 0.0219
loop_
_geom_bond_atom_site_label_1
_geom_bond_atom_site_label_2
_geom_bond_site_symmetry_1
_geom_bond_site_symmetry_2
Zn1 O1 1_555 1_555
C1 H1 1_555 1_555
C2 C1 1_555 1_555
H2 C2 1_555 1_555
C3 C1 1_555 1_555
H3 C3 1_555 1_555
C4 C3 1_555 1_555
H4 C4 1_555 1_555
C5 C2 1_555 1_555
H5 C5 1_555 1_555
C6 C4 1_555 1_555
C7 C6 1_555 1_555
C8 C7 1_555 1_555
H6 C8 1_555 1_555
C9 C8 1_555 1_555
C10 C9 1_555 1_555
H7 C10 1_555 1_555
C11 C9 1_555 1_555
O1 C11 1_555 1_555
O2 C11 1_555 1_555
C2W C1 1_555 1_555
H2W C2W 1_555 1_555
C3W C1 1_555 1_555
H3W C3W 1_555 1_555
C4W C6 1_555 1_555
H4W C4W 1_555 1_555
C5W C6 1_555 1_555
H5W C5W 1_555 1_555
C8W C7 1_555 1_555
H6W C8W 1_555 1_555
C9W C10 1_555 1_555
C11W C9W 1_555 1_555
O1W C11W 1_555 1_555
O2W C11W 1_555 1_555
Zn1D O2 1_555 1_555
Zn1T O2W 1_555 1_555
Zn1W O1W 1_555 1_555
O1Q Zn1 1_555 1_555
O2D Zn1 1_555 1_555
O2N Zn1 1_555 1_555
C5 C6 1_555 1_555
C2W C5W 1_555 1_555
C3W C4W 1_555 1_555
C8W C9W 1_555 1_555

#END
