
#######################################################################
#
#                 Cambridge Crystallographic Data Centre
#                                CCDC 
#
#######################################################################
#
# If this CIF has been generated from an entry in the Cambridge 
# Structural Database, then it will include bibliographic, chemical, 
# crystal, experimental, refinement or atomic coordinate data resulting 
# from the CCDC's data processing and validation procedures.
#
#######################################################################

data_DUXLUF02
_chemical_formula_moiety         'C18 H12 O7 Zn4'
_symmetry_cell_setting           rhombohedral
_symmetry_space_group_name_H-M   'R -3 m'
_symmetry_Int_Tables_number      166
_space_group_name_Hall           '-R 3 2"'
loop_
_symmetry_equiv_pos_site_id
_symmetry_equiv_pos_as_xyz
1 x,y,z
2 -y,x-y,z
3 -x+y,-x,z
4 x-y,-y,-z
5 -x,-x+y,-z
6 y,x,-z
7 2/3+x,1/3+y,1/3+z
8 2/3-y,1/3+x-y,1/3+z
9 2/3-x+y,1/3-x,1/3+z
10 2/3+x-y,1/3-y,1/3-z
11 2/3-x,1/3-x+y,1/3-z
12 2/3+y,1/3+x,1/3-z
13 1/3+x,2/3+y,2/3+z
14 1/3-y,2/3+x-y,2/3+z
15 1/3-x+y,2/3-x,2/3+z
16 1/3+x-y,2/3-y,2/3-z
17 1/3-x,2/3-x+y,2/3-z
18 1/3+y,2/3+x,2/3-z
19 -x,-y,-z
20 y,-x+y,-z
21 x-y,x,-z
22 -x+y,y,z
23 x,x-y,z
24 -y,-x,z
25 1/3-x,2/3-y,2/3-z
26 1/3+y,2/3-x+y,2/3-z
27 1/3+x-y,2/3+x,2/3-z
28 1/3-x+y,2/3+y,2/3+z
29 1/3+x,2/3+x-y,2/3+z
30 1/3-y,2/3-x,2/3+z
31 2/3-x,1/3-y,1/3-z
32 2/3+y,1/3-x+y,1/3-z
33 2/3+x-y,1/3+x,1/3-z
34 2/3-x+y,1/3+y,1/3+z
35 2/3+x,1/3+x-y,1/3+z
36 2/3-y,1/3-x,1/3+z
_cell_length_a                   28.7611(18)
_cell_length_b                   28.7611(18)
_cell_length_c                   8.1675(11)
_cell_angle_alpha                90
_cell_angle_beta                 90
_cell_angle_gamma                120
_cell_volume                     5851.01
loop_
_atom_site_label
_atom_site_type_symbol
_atom_site_fract_x
_atom_site_fract_y
_atom_site_fract_z
_atom_site_U_iso_or_equiv
_atom_site_thermal_displace_type
Zn1 Zn 0.04200(13) 0.70867(13) 0.3333 0.0132 Uani
C1 C 0.216(9) 0.576(10) 0.91(2) 0.2178 Uani
H1 H 0.2456 0.5693 0.9178 0.2370 Uiso
C2 C 0.202(3) 0.6012(16) 1.042(10) 0.0789 Uani
H2 H 0.2237 0.6119 1.1399 0.0940 Uiso
C3 C 0.185(7) 0.561(7) 0.760(17) 0.1356 Uani
H3 H 0.1927 0.5459 0.6675 0.1620 Uiso
C4 C 0.161(9) 0.609(7) 1.027(15) 0.1444 Uani
H4 H 0.1526 0.6254 1.1170 0.1770 Uiso
C5 C 0.124(7) 0.591(5) 0.885(14) 0.1122 Uani
H5 H 0.0949 0.5981 0.8775 0.1350 Uiso
C6 C 0.1369(18) 0.5684(9) 0.757(5) 0.0313 Uani
C7 C 0.1037(15) 0.5519(7) 0.606(4) 0.0220 Uani
C8 C 0.0874(11) 0.5854(10) 0.536(3) 0.0218 Uani
C9 C 0.0569(10) 0.5699(9) 0.391(3) 0.0173 Uani
C10 C 0.0393(10) 0.6060(10) 0.316(3) 0.0206 Uani
C11 C 0.0421(14) 0.5211(7) 0.319(4) 0.0176 Uani
O1 O 0.0141(8) 0.5908(8) 0.182(2) 0.0281 Uani
O2 O 0.0505(9) 0.6486(8) 0.391(2) 0.0311 Uani
H6 H 0.0127 0.5063 0.2110 0.0370 Uiso
H7 H 0.0897 0.6157 0.5916 0.0370 Uiso
C1V C 0.216(9) 0.640(13) 0.91(2) 0.2178 Uani
H1V H 0.2456 0.6763 0.9178 0.2370 Uiso
C3V C 0.185(7) 0.624(10) 0.760(17) 0.1356 Uani
H3V H 0.1927 0.6468 0.6675 0.1620 Uiso
C4V C 0.161(9) 0.552(11) 1.027(15) 0.1444 Uani
H4V H 0.1526 0.5272 1.1170 0.1770 Uiso
C5V C 0.124(7) 0.533(9) 0.885(14) 0.1122 Uani
H5V H 0.0949 0.4968 0.8775 0.1350 Uiso
C8V C 0.0874(11) 0.5020(15) 0.536(3) 0.0218 Uani
C9V C 0.0569(10) 0.4870(13) 0.391(3) 0.0173 Uani
C10V C 0.0393(10) 0.4333(14) 0.316(3) 0.0206 Uani
O1V O 0.0141(8) 0.4233(11) 0.182(2) 0.0281 Uani
O2V O 0.0505(9) 0.4019(12) 0.391(2) 0.0311 Uani
H7V H 0.0897 0.4740 0.5916 0.0370 Uiso
Zn1I Zn -0.00000(18) 0.62466(13) 0.0000 0.0132 Uani
Zn1V Zn 0.04200(13) 0.33333(18) 0.3333 0.0132 Uani
Zn1FA Zn -0.00000(18) 0.37533(13) 0.0000 0.0132 Uani
O1G O 0.0759(8) 0.7566(11) 0.515(2) 0.0281 Uani
O1I O 0.0900(11) 0.7425(8) 0.151(2) 0.0281 Uani
O2Q O -0.0181(8) 0.7172(9) 0.276(2) 0.0311 Uani
loop_
_atom_site_aniso_label
_atom_site_aniso_U_11
_atom_site_aniso_U_22
_atom_site_aniso_U_33
_atom_site_aniso_U_23
_atom_site_aniso_U_13
_atom_site_aniso_U_12
Zn1 0.0132(15) 0.0132(15) 0.0136(17) -0.0020(7) 0.0020(7) 0.0069(15)
C1 0.3(3) 0.4(3) 0.12(13) -0.08(16) -0.08(16) 0.3(3)
C2 0.09(5) 0.06(3) 0.09(5) -0.04(2) -0.07(5) 0.04(3)
C3 0.20(6) 0.18(5) 0.10(5) -0.08(4) -0.08(4) 0.15(4)
C4 0.26(17) 0.13(13) 0.06(7) -0.02(8) -0.03(11) 0.11(15)
C5 0.18(15) 0.11(10) 0.07(7) -0.02(7) -0.03(8) 0.09(11)
C6 0.05(2) 0.027(13) 0.022(18) -0.009(8) -0.018(17) 0.023(12)
C7 0.023(18) 0.021(12) 0.022(17) -0.003(7) -0.006(14) 0.011(9)
C8 0.027(13) 0.019(12) 0.024(13) -0.009(10) -0.011(10) 0.015(10)
C9 0.020(12) 0.019(11) 0.016(11) -0.002(9) -0.007(9) 0.012(10)
C10 0.025(12) 0.024(12) 0.019(11) 0.000(9) -0.002(9) 0.017(11)
C11 0.022(17) 0.015(11) 0.018(16) -0.001(6) -0.001(13) 0.011(8)
O1 0.042(12) 0.030(10) 0.019(9) -0.004(8) -0.015(8) 0.023(9)
O2 0.047(13) 0.027(10) 0.032(10) -0.010(8) -0.017(9) 0.028(10)
C1V 0.3 0.1 0.12 1.10282e-17 -0.08 -3.3632e-17
C3V 0.2 0.08 0.1 1.10282e-17 -0.08 0.05
C4V 0.26 0.17 0.06 -0.01 -0.03 0.15
C5V 0.18 0.11 0.07 -0.01 -0.03 0.09
C8V 0.027 0.016 0.024 -0.002 -0.011 0.012
C9V 0.02 0.015 0.016 -0.005 -0.007 0.008
C10V 0.025 0.015 0.019 -0.002 -0.002 0.008
O1V 0.042 0.026 0.019 -0.011 -0.015 0.019
O2V 0.047 0.018 0.032 -0.007 -0.017 0.019
Zn1I 0.0126 0.0132 0.0136 -0.002 -0.004 0.0063
Zn1V 0.0132 0.0126 0.0136 0.004 0.002 0.0063
Zn1FA 0.0126 0.0132 0.0136 -0.002 -0.004 0.0063
O1G 0.03 0.026 0.019 -0.011 0.004 0.007
O1I 0.026 0.03 0.019 -0.004 0.011 0.007
O2Q 0.027 0.047 0.032 0.017 0.01 0.028
loop_
_geom_bond_atom_site_label_1
_geom_bond_atom_site_label_2
_geom_bond_site_symmetry_1
_geom_bond_site_symmetry_2
Zn1 O2 1_555 1_555
C1 H1 1_555 1_555
C2 C1 1_555 1_555
H2 C2 1_555 1_555
C3 C1 1_555 1_555
H3 C3 1_555 1_555
C4 C2 1_555 1_555
H4 C4 1_555 1_555
C5 C4 1_555 1_555
H5 C5 1_555 1_555
C6 C3 1_555 1_555
C7 C6 1_555 1_555
C8 C7 1_555 1_555
C9 C8 1_555 1_555
C10 C9 1_555 1_555
C11 C9 1_555 1_555
O1 C10 1_555 1_555
O2 C10 1_555 1_555
H6 C11 1_555 1_555
H7 C8 1_555 1_555
C1V C2 1_555 1_555
H1V C1V 1_555 1_555
C3V C6 1_555 1_555
H3V C3V 1_555 1_555
C4V C2 1_555 1_555
H4V C4V 1_555 1_555
C5V C6 1_555 1_555
H5V C5V 1_555 1_555
C8V C7 1_555 1_555
C9V C11 1_555 1_555
C10V C9V 1_555 1_555
O1V C10V 1_555 1_555
O2V C10V 1_555 1_555
H7V C8V 1_555 1_555
Zn1I O1 1_555 1_555
Zn1V O2V 1_555 1_555
Zn1FA O1V 1_555 1_555
O1G Zn1 1_555 1_555
O1I Zn1 1_555 1_555
O2Q Zn1 1_555 1_555
C5 C6 1_555 1_555
C1V C3V 1_555 1_555
C4V C5V 1_555 1_555
C8V C9V 1_555 1_555

#END
