
#######################################################################
#
#                 Cambridge Crystallographic Data Centre
#                                CCDC 
#
#######################################################################
#
# If this CIF has been generated from an entry in the Cambridge 
# Structural Database, then it will include bibliographic, chemical, 
# crystal, experimental, refinement or atomic coordinate data resulting 
# from the CCDC's data processing and validation procedures.
#
#######################################################################

data_JUSGOV
_chemical_formula_moiety         'C66 H24 N24 O26 Zr12'
_symmetry_cell_setting           cubic
_symmetry_space_group_name_H-M   'F m -3 m'
_symmetry_Int_Tables_number      225
_space_group_name_Hall           '-F 4 2 3'
loop_
_symmetry_equiv_pos_site_id
_symmetry_equiv_pos_as_xyz
1 x,y,z
2 -y,x,z
3 -x,-y,z
4 y,-x,z
5 x,-y,-z
6 y,x,-z
7 -x,y,-z
8 -y,-x,-z
9 z,x,y
10 -x,z,y
11 -z,-x,y
12 x,-z,y
13 z,-x,-y
14 x,z,-y
15 -z,x,-y
16 -x,-z,-y
17 y,z,x
18 -z,-y,-x
19 -z,y,x
20 z,y,-x
21 z,-y,x
22 y,-z,-x
23 -y,-z,x
24 -y,z,-x
25 x,1/2+y,1/2+z
26 -y,1/2+x,1/2+z
27 -x,1/2-y,1/2+z
28 y,1/2-x,1/2+z
29 x,1/2-y,1/2-z
30 y,1/2+x,1/2-z
31 -x,1/2+y,1/2-z
32 -y,1/2-x,1/2-z
33 z,1/2+x,1/2+y
34 -x,1/2+z,1/2+y
35 -z,1/2-x,1/2+y
36 x,1/2-z,1/2+y
37 z,1/2-x,1/2-y
38 x,1/2+z,1/2-y
39 -z,1/2+x,1/2-y
40 -x,1/2-z,1/2-y
41 y,1/2+z,1/2+x
42 -z,1/2-y,1/2-x
43 -z,1/2+y,1/2+x
44 z,1/2+y,1/2-x
45 z,1/2-y,1/2+x
46 y,1/2-z,1/2-x
47 -y,1/2-z,1/2+x
48 -y,1/2+z,1/2-x
49 1/2+x,y,1/2+z
50 1/2-y,x,1/2+z
51 1/2-x,-y,1/2+z
52 1/2+y,-x,1/2+z
53 1/2+x,-y,1/2-z
54 1/2+y,x,1/2-z
55 1/2-x,y,1/2-z
56 1/2-y,-x,1/2-z
57 1/2+z,x,1/2+y
58 1/2-x,z,1/2+y
59 1/2-z,-x,1/2+y
60 1/2+x,-z,1/2+y
61 1/2+z,-x,1/2-y
62 1/2+x,z,1/2-y
63 1/2-z,x,1/2-y
64 1/2-x,-z,1/2-y
65 1/2+y,z,1/2+x
66 1/2-z,-y,1/2-x
67 1/2-z,y,1/2+x
68 1/2+z,y,1/2-x
69 1/2+z,-y,1/2+x
70 1/2+y,-z,1/2-x
71 1/2-y,-z,1/2+x
72 1/2-y,z,1/2-x
73 1/2+x,1/2+y,z
74 1/2-y,1/2+x,z
75 1/2-x,1/2-y,z
76 1/2+y,1/2-x,z
77 1/2+x,1/2-y,-z
78 1/2+y,1/2+x,-z
79 1/2-x,1/2+y,-z
80 1/2-y,1/2-x,-z
81 1/2+z,1/2+x,y
82 1/2-x,1/2+z,y
83 1/2-z,1/2-x,y
84 1/2+x,1/2-z,y
85 1/2+z,1/2-x,-y
86 1/2+x,1/2+z,-y
87 1/2-z,1/2+x,-y
88 1/2-x,1/2-z,-y
89 1/2+y,1/2+z,x
90 1/2-z,1/2-y,-x
91 1/2-z,1/2+y,x
92 1/2+z,1/2+y,-x
93 1/2+z,1/2-y,x
94 1/2+y,1/2-z,-x
95 1/2-y,1/2-z,x
96 1/2-y,1/2+z,-x
97 -x,-y,-z
98 y,-x,-z
99 x,y,-z
100 -y,x,-z
101 -x,y,z
102 -y,-x,z
103 x,-y,z
104 y,x,z
105 -z,-x,-y
106 x,-z,-y
107 z,x,-y
108 -x,z,-y
109 -z,x,y
110 -x,-z,y
111 z,-x,y
112 x,z,y
113 -y,-z,-x
114 z,y,x
115 z,-y,-x
116 -z,-y,x
117 -z,y,-x
118 -y,z,x
119 y,z,-x
120 y,-z,x
121 -x,1/2-y,1/2-z
122 y,1/2-x,1/2-z
123 x,1/2+y,1/2-z
124 -y,1/2+x,1/2-z
125 -x,1/2+y,1/2+z
126 -y,1/2-x,1/2+z
127 x,1/2-y,1/2+z
128 y,1/2+x,1/2+z
129 -z,1/2-x,1/2-y
130 x,1/2-z,1/2-y
131 z,1/2+x,1/2-y
132 -x,1/2+z,1/2-y
133 -z,1/2+x,1/2+y
134 -x,1/2-z,1/2+y
135 z,1/2-x,1/2+y
136 x,1/2+z,1/2+y
137 -y,1/2-z,1/2-x
138 z,1/2+y,1/2+x
139 z,1/2-y,1/2-x
140 -z,1/2-y,1/2+x
141 -z,1/2+y,1/2-x
142 -y,1/2+z,1/2+x
143 y,1/2+z,1/2-x
144 y,1/2-z,1/2+x
145 1/2-x,-y,1/2-z
146 1/2+y,-x,1/2-z
147 1/2+x,y,1/2-z
148 1/2-y,x,1/2-z
149 1/2-x,y,1/2+z
150 1/2-y,-x,1/2+z
151 1/2+x,-y,1/2+z
152 1/2+y,x,1/2+z
153 1/2-z,-x,1/2-y
154 1/2+x,-z,1/2-y
155 1/2+z,x,1/2-y
156 1/2-x,z,1/2-y
157 1/2-z,x,1/2+y
158 1/2-x,-z,1/2+y
159 1/2+z,-x,1/2+y
160 1/2+x,z,1/2+y
161 1/2-y,-z,1/2-x
162 1/2+z,y,1/2+x
163 1/2+z,-y,1/2-x
164 1/2-z,-y,1/2+x
165 1/2-z,y,1/2-x
166 1/2-y,z,1/2+x
167 1/2+y,z,1/2-x
168 1/2+y,-z,1/2+x
169 1/2-x,1/2-y,-z
170 1/2+y,1/2-x,-z
171 1/2+x,1/2+y,-z
172 1/2-y,1/2+x,-z
173 1/2-x,1/2+y,z
174 1/2-y,1/2-x,z
175 1/2+x,1/2-y,z
176 1/2+y,1/2+x,z
177 1/2-z,1/2-x,-y
178 1/2+x,1/2-z,-y
179 1/2+z,1/2+x,-y
180 1/2-x,1/2+z,-y
181 1/2-z,1/2+x,y
182 1/2-x,1/2-z,y
183 1/2+z,1/2-x,y
184 1/2+x,1/2+z,y
185 1/2-y,1/2-z,-x
186 1/2+z,1/2+y,x
187 1/2+z,1/2-y,-x
188 1/2-z,1/2-y,x
189 1/2-z,1/2+y,-x
190 1/2-y,1/2+z,x
191 1/2+y,1/2+z,-x
192 1/2+y,1/2-z,x
_cell_length_a                   26.7882(6)
_cell_length_b                   26.7882(6)
_cell_length_c                   26.7882(6)
_cell_angle_alpha                90
_cell_angle_beta                 90
_cell_angle_gamma                90
_cell_volume                     19223.4
loop_
_atom_site_label
_atom_site_type_symbol
_atom_site_fract_x
_atom_site_fract_y
_atom_site_fract_z
Zr1 Zr -0.00000 -0.00000 0.09217(2)
O1 O 0.00000 -0.07210(12) 0.13303(11)
O2 O -0.04574(17) -0.04574(17) 0.04574(17)
C1 C 0.00000 -0.11735(16) 0.11735(16)
C2 C 0.00000 -0.1568(2) 0.1568(2)
C3 C 0.0173(5) -0.1451(3) 0.2050(3)
C4 C 0.0189(5) -0.1816(3) 0.2427(3)
C5 C 0.00000 -0.23023(19) 0.23023(19)
N1 N 0.046(3) -0.1682(16) 0.2865(17)
H1 H 0.03040 -0.10930 0.21310
O1O O 0.00000 -0.13303(11) 0.07210(12)
C3O C -0.0173(5) -0.2050(3) 0.1451(3)
C4O C -0.0189(5) -0.2427(3) 0.1816(3)
N1O N -0.046(3) -0.2865(17) 0.1682(16)
H1O H -0.03040 -0.21310 0.10930
C3VC C -0.0173(5) -0.1451(3) 0.2050(3)
C4VC C -0.0189(5) -0.1816(3) 0.2427(3)
N1VC N -0.046(3) -0.1682(16) 0.2865(17)
H1VC H -0.03040 -0.10930 0.21310
C3AD C 0.0173(5) -0.2050(3) 0.1451(3)
C4AD C 0.0189(5) -0.2427(3) 0.1816(3)
N1AD N 0.046(3) -0.2865(17) 0.1682(16)
H1AD H 0.03040 -0.21310 0.10930
O1BA O 0.00000 -0.42790(12) 0.36697(11)
C1BA C 0.00000 -0.38265(16) 0.38265(16)
C2BA C 0.00000 -0.3432(2) 0.3432(2)
C3BA C 0.0173(5) -0.3549(3) 0.2950(3)
C4BA C 0.0189(5) -0.3184(3) 0.2573(3)
C5BA C 0.00000 -0.26977(19) 0.26977(19)
N1BA N 0.046(3) -0.3318(16) 0.2135(17)
H1BA H 0.03040 -0.39070 0.28690
O1GA O 0.00000 -0.36697(11) 0.42790(12)
C3GA C -0.0173(5) -0.2950(3) 0.3549(3)
C4GA C -0.0189(5) -0.2573(3) 0.3184(3)
N1GA N -0.046(3) -0.2135(17) 0.3318(16)
H1GA H -0.03040 -0.28690 0.39070
C3PD C -0.0173(5) -0.3549(3) 0.2950(3)
C4PD C -0.0189(5) -0.3184(3) 0.2573(3)
N1PD N -0.046(3) -0.3318(16) 0.2135(17)
H1PD H -0.03040 -0.39070 0.28690
C3EE C 0.0173(5) -0.2950(3) 0.3549(3)
C4EE C 0.0189(5) -0.2573(3) 0.3184(3)
N1EE N 0.046(3) -0.2135(17) 0.3318(16)
H1EE H 0.03040 -0.28690 0.39070
O1A O 0.07210(12) 0.00000 0.13303(11)
O2A O 0.04574(17) -0.04574(17) 0.04574(17)
C1A C 0.11735(16) 0.00000 0.11735(16)
C2A C 0.1568(2) -0.00000 0.1568(2)
C3A C 0.1451(3) 0.0173(5) 0.2050(3)
C4A C 0.1816(3) 0.0189(5) 0.2427(3)
C5A C 0.23023(19) 0.00000 0.23023(19)
N1A N 0.1682(16) 0.046(3) 0.2865(17)
H1A H 0.10930 0.03040 0.21310
O1L O 0.13303(11) -0.00000 0.07210(12)
C3L C 0.2050(3) -0.0173(5) 0.1451(3)
C4L C 0.2427(3) -0.0189(5) 0.1816(3)
N1L N 0.2865(17) -0.046(3) 0.1682(16)
H1L H 0.21310 -0.03040 0.10930
C3WC C 0.1451(3) -0.0173(5) 0.2050(3)
C4WC C 0.1816(3) -0.0189(5) 0.2427(3)
N1WC N 0.1682(16) -0.046(3) 0.2865(17)
H1WC H 0.10930 -0.03040 0.21310
C3BD C 0.2050(3) 0.0173(5) 0.1451(3)
C4BD C 0.2427(3) 0.0189(5) 0.1816(3)
N1BD N 0.2865(17) 0.046(3) 0.1682(16)
H1BD H 0.21310 0.03040 0.10930
O1AB O 0.42790(12) 0.00000 0.36697(11)
C1AB C 0.38265(16) -0.00000 0.38265(16)
C2AB C 0.3432(2) 0.00000 0.3432(2)
C3AB C 0.3549(3) 0.0173(5) 0.2950(3)
C4AB C 0.3184(3) 0.0189(5) 0.2573(3)
C5AB C 0.26977(19) 0.00000 0.26977(19)
N1AB N 0.3318(16) 0.046(3) 0.2135(17)
H1AB H 0.39070 0.03040 0.28690
O1FB O 0.36697(11) -0.00000 0.42790(12)
C3FB C 0.2950(3) -0.0173(5) 0.3549(3)
C4FB C 0.2573(3) -0.0189(5) 0.3184(3)
N1FB N 0.2135(17) -0.046(3) 0.3318(16)
H1FB H 0.28690 -0.03040 0.39070
C3OE C 0.3549(3) -0.0173(5) 0.2950(3)
C4OE C 0.3184(3) -0.0189(5) 0.2573(3)
N1OE N 0.3318(16) -0.046(3) 0.2135(17)
H1OE H 0.39070 -0.03040 0.28690
C3ZE C 0.2950(3) 0.0173(5) 0.3549(3)
C4ZE C 0.2573(3) 0.0189(5) 0.3184(3)
N1ZE N 0.2135(17) 0.046(3) 0.3318(16)
H1ZE H 0.28690 0.03040 0.39070
O1B O -0.00000 0.07210(12) 0.13303(11)
O2B O 0.04574(17) 0.04574(17) 0.04574(17)
C1B C 0.00000 0.11735(16) 0.11735(16)
C2B C -0.00000 0.1568(2) 0.1568(2)
C3B C -0.0173(5) 0.1451(3) 0.2050(3)
C4B C -0.0189(5) 0.1816(3) 0.2427(3)
C5B C 0.00000 0.23023(19) 0.23023(19)
N1B N -0.046(3) 0.1682(16) 0.2865(17)
H1B H -0.03040 0.10930 0.21310
O1M O -0.00000 0.13303(11) 0.07210(12)
C3M C 0.0173(5) 0.2050(3) 0.1451(3)
C4M C 0.0189(5) 0.2427(3) 0.1816(3)
N1M N 0.046(3) 0.2865(17) 0.1682(16)
H1M H 0.03040 0.21310 0.10930
C3XC C 0.0173(5) 0.1451(3) 0.2050(3)
C4XC C 0.0189(5) 0.1816(3) 0.2427(3)
N1XC N 0.046(3) 0.1682(16) 0.2865(17)
H1XC H 0.03040 0.10930 0.21310
C3CD C -0.0173(5) 0.2050(3) 0.1451(3)
C4CD C -0.0189(5) 0.2427(3) 0.1816(3)
N1CD N -0.046(3) 0.2865(17) 0.1682(16)
H1CD H -0.03040 0.21310 0.10930
O1DA O 0.00000 0.42790(12) 0.36697(11)
C1DA C -0.00000 0.38265(16) 0.38265(16)
C2DA C 0.00000 0.3432(2) 0.3432(2)
C3DA C -0.0173(5) 0.3549(3) 0.2950(3)
C4DA C -0.0189(5) 0.3184(3) 0.2573(3)
C5DA C 0.00000 0.26977(19) 0.26977(19)
N1DA N -0.046(3) 0.3318(16) 0.2135(17)
H1DA H -0.03040 0.39070 0.28690
O1IA O 0.00000 0.36697(11) 0.42790(12)
C3IA C 0.0173(5) 0.2950(3) 0.3549(3)
C4IA C 0.0189(5) 0.2573(3) 0.3184(3)
N1IA N 0.046(3) 0.2135(17) 0.3318(16)
H1IA H 0.03040 0.28690 0.39070
C3RD C 0.0173(5) 0.3549(3) 0.2950(3)
C4RD C 0.0189(5) 0.3184(3) 0.2573(3)
N1RD N 0.046(3) 0.3318(16) 0.2135(17)
H1RD H 0.03040 0.39070 0.28690
C3CE C -0.0173(5) 0.2950(3) 0.3549(3)
C4CE C -0.0189(5) 0.2573(3) 0.3184(3)
N1CE N -0.046(3) 0.2135(17) 0.3318(16)
H1CE H -0.03040 0.28690 0.39070
O2C O -0.04574(17) 0.04574(17) 0.04574(17)
Zr1H Zr 0.09217(2) 0.00000 0.00000
Zr1I Zr -0.00000 0.09217(2) 0.00000
Zr1D Zr 0.00000 0.00000 -0.09217(2)
Zr1J Zr -0.09217(2) 0.00000 0.00000
Zr1K Zr 0.00000 -0.09217(2) 0.00000
Zr1BA Zr 0.00000 -0.50000 0.40783(2)
Zr1BA_2 Zr -0.00000 0.50000 0.40783(2)
Zr1GA Zr 0.00000 -0.40783(2) 0.50000
Zr1IA Zr -0.00000 0.40783(2) 0.50000
Zr1ZA Zr 0.50000 -0.00000 0.40783(2)
Zr1FB Zr 0.40783(2) -0.00000 0.50000
O1C O -0.07210(12) 0.00000 0.13303(11)
O1H O 0.13303(11) 0.00000 -0.07210(12)
O1I O 0.00000 0.13303(11) -0.07210(12)
O1P O -0.07210(12) 0.13303(11) 0.00000
O1S O 0.13303(11) -0.07210(12) 0.00000
O1T O 0.13303(11) 0.07210(12) 0.00000
O1W O 0.07210(12) 0.13303(11) 0.00000
O2D O -0.04574(17) 0.04574(17) -0.04574(17)
O2F O 0.04574(17) -0.04574(17) -0.04574(17)
O2G O 0.04574(17) 0.04574(17) -0.04574(17)
loop_
_geom_bond_atom_site_label_1
_geom_bond_atom_site_label_2
_geom_bond_site_symmetry_1
_geom_bond_site_symmetry_2
Zr1 O1 1_555 1_555
O1 C1 1_555 1_555
O2 Zr1 1_555 1_555
C1 C2 1_555 1_555
C2 C3 1_555 1_555
C3 C4 1_555 1_555
C4 C5 1_555 1_555
C5 C4O 1_555 1_555
N1 C4 1_555 1_555
H1 C3 1_555 1_555
O1O C1 1_555 1_555
C3O C2 1_555 1_555
C4O C3O 1_555 1_555
N1O C4O 1_555 1_555
H1O C3O 1_555 1_555
C3VC C2 1_555 1_555
C4VC C3 1_555 1_555
N1VC C4VC 1_555 1_555
H1VC C3VC 1_555 1_555
C3AD C2 1_555 1_555
C4AD C5 1_555 1_555
N1AD C4AD 1_555 1_555
H1AD C3AD 1_555 1_555
O1BA C1BA 1_555 1_555
C1BA C2BA 1_555 1_555
C2BA C3BA 1_555 1_555
C3BA C4BA 1_555 1_555
C4BA C5BA 1_555 1_555
C5BA C5 1_555 1_555
N1BA N1AD 1_555 1_555
H1BA C3BA 1_555 1_555
O1GA C1BA 1_555 1_555
C3GA C2BA 1_555 1_555
C4GA C5BA 1_555 1_555
N1GA N1VC 1_555 1_555
H1GA C3GA 1_555 1_555
C3PD C2BA 1_555 1_555
C4PD C3BA 1_555 1_555
N1PD N1O 1_555 1_555
H1PD C3PD 1_555 1_555
C3EE C2BA 1_555 1_555
C4EE C5BA 1_555 1_555
N1EE N1 1_555 1_555
H1EE C3EE 1_555 1_555
O1A Zr1 1_555 1_555
O2A Zr1 1_555 1_555
C1A O1A 1_555 1_555
C2A C1A 1_555 1_555
C3A C2A 1_555 1_555
C4A C3A 1_555 1_555
C5A C4A 1_555 1_555
N1A C4A 1_555 1_555
H1A C3A 1_555 1_555
O1L C1A 1_555 1_555
C3L C2A 1_555 1_555
C4L C5A 1_555 1_555
N1L C4L 1_555 1_555
H1L C3L 1_555 1_555
C3WC C2A 1_555 1_555
C4WC C3A 1_555 1_555
N1WC C4WC 1_555 1_555
H1WC C3WC 1_555 1_555
C3BD C2A 1_555 1_555
C4BD C5A 1_555 1_555
N1BD C4BD 1_555 1_555
H1BD C3BD 1_555 1_555
O1AB C1AB 1_555 1_555
C1AB C2AB 1_555 1_555
C2AB C3AB 1_555 1_555
C3AB C4AB 1_555 1_555
C4AB C5AB 1_555 1_555
C5AB C5A 1_555 1_555
N1AB N1BD 1_555 1_555
H1AB C3AB 1_555 1_555
O1FB C1AB 1_555 1_555
C3FB C2AB 1_555 1_555
C4FB C5AB 1_555 1_555
N1FB N1WC 1_555 1_555
H1FB C3FB 1_555 1_555
C3OE C2AB 1_555 1_555
C4OE C3AB 1_555 1_555
N1OE N1L 1_555 1_555
H1OE C3OE 1_555 1_555
C3ZE C2AB 1_555 1_555
C4ZE C5AB 1_555 1_555
N1ZE N1A 1_555 1_555
H1ZE C3ZE 1_555 1_555
O1B Zr1 1_555 1_555
O2B Zr1 1_555 1_555
C1B O1B 1_555 1_555
C2B C1B 1_555 1_555
C3B C2B 1_555 1_555
C4B C3B 1_555 1_555
C5B C4B 1_555 1_555
N1B C4B 1_555 1_555
H1B C3B 1_555 1_555
O1M C1B 1_555 1_555
C3M C2B 1_555 1_555
C4M C5B 1_555 1_555
N1M C4M 1_555 1_555
H1M C3M 1_555 1_555
C3XC C2B 1_555 1_555
C4XC C3B 1_555 1_555
N1XC C4XC 1_555 1_555
H1XC C3XC 1_555 1_555
C3CD C2B 1_555 1_555
C4CD C5B 1_555 1_555
N1CD C4CD 1_555 1_555
H1CD C3CD 1_555 1_555
O1DA C1DA 1_555 1_555
C1DA C2DA 1_555 1_555
C2DA C3DA 1_555 1_555
C3DA C4DA 1_555 1_555
C4DA C5DA 1_555 1_555
C5DA C5B 1_555 1_555
N1DA N1CD 1_555 1_555
H1DA C3DA 1_555 1_555
O1IA C1DA 1_555 1_555
C3IA C2DA 1_555 1_555
C4IA C5DA 1_555 1_555
N1IA N1XC 1_555 1_555
H1IA C3IA 1_555 1_555
C3RD C2DA 1_555 1_555
C4RD C3DA 1_555 1_555
N1RD N1M 1_555 1_555
H1RD C3RD 1_555 1_555
C3CE C2DA 1_555 1_555
C4CE C5DA 1_555 1_555
N1CE N1B 1_555 1_555
H1CE C3CE 1_555 1_555
O2C Zr1 1_555 1_555
Zr1H Zr1 1_555 1_555
Zr1I Zr1 1_555 1_555
Zr1D Zr1H 1_555 1_555
Zr1J Zr1 1_555 1_555
Zr1K Zr1 1_555 1_555
Zr1BA O1BA 1_555 1_555
Zr1BA_2 O1DA 1_555 1_555
Zr1GA O1GA 1_555 1_555
Zr1IA O1IA 1_555 1_555
Zr1ZA O1AB 1_555 1_555
Zr1FB O1FB 1_555 1_555
O1C Zr1 1_555 1_555
O1H Zr1H 1_555 1_555
O1I Zr1I 1_555 1_555
O1P Zr1I 1_555 1_555
O1S Zr1H 1_555 1_555
O1T Zr1H 1_555 1_555
O1W Zr1I 1_555 1_555
O2D Zr1I 1_555 1_555
O2F Zr1H 1_555 1_555
O2G Zr1H 1_555 1_555
O2 Zr1J 1_555 1_555
O2 Zr1K 1_555 1_555
C3 C3VC 1_555 1_555
C4 C3VC 1_555 1_555
C4 C4VC 1_555 1_555
C5 C4VC 1_555 1_555
O1O Zr1K 1_555 1_555
C3O C3AD 1_555 1_555
C3O C4AD 1_555 1_555
C4O C3AD 1_555 1_555
C4O C4AD 1_555 1_555
C3VC C4VC 1_555 1_555
C3AD C4AD 1_555 1_555
C3BA C3PD 1_555 1_555
C4BA N1BA 1_555 1_555
C4BA C3PD 1_555 1_555
C4BA C4PD 1_555 1_555
C5BA C4PD 1_555 1_555
C3GA C4GA 1_555 1_555
C3GA C3EE 1_555 1_555
C3GA C4EE 1_555 1_555
C4GA N1GA 1_555 1_555
C4GA C3EE 1_555 1_555
C4GA C4EE 1_555 1_555
C3PD C4PD 1_555 1_555
C4PD N1PD 1_555 1_555
C3EE C4EE 1_555 1_555
C4EE N1EE 1_555 1_555
O2A Zr1H 1_555 1_555
O2A Zr1K 1_555 1_555
C3A C3WC 1_555 1_555
C4A C3WC 1_555 1_555
C4A C4WC 1_555 1_555
C5A C4WC 1_555 1_555
O1L Zr1H 1_555 1_555
C3L C4L 1_555 1_555
C3L C3BD 1_555 1_555
C3L C4BD 1_555 1_555
C4L C3BD 1_555 1_555
C4L C4BD 1_555 1_555
C3WC C4WC 1_555 1_555
C3BD C4BD 1_555 1_555
C3AB C3OE 1_555 1_555
C4AB N1AB 1_555 1_555
C4AB C3OE 1_555 1_555
C4AB C4OE 1_555 1_555
C5AB C4OE 1_555 1_555
C3FB C4FB 1_555 1_555
C3FB C3ZE 1_555 1_555
C3FB C4ZE 1_555 1_555
C4FB N1FB 1_555 1_555
C4FB C3ZE 1_555 1_555
C4FB C4ZE 1_555 1_555
C3OE C4OE 1_555 1_555
C4OE N1OE 1_555 1_555
C3ZE C4ZE 1_555 1_555
C4ZE N1ZE 1_555 1_555
O2B Zr1H 1_555 1_555
O2B Zr1I 1_555 1_555
C3B C3XC 1_555 1_555
C4B C3XC 1_555 1_555
C4B C4XC 1_555 1_555
C5B C4XC 1_555 1_555
O1M Zr1I 1_555 1_555
C3M C4M 1_555 1_555
C3M C3CD 1_555 1_555
C3M C4CD 1_555 1_555
C4M C3CD 1_555 1_555
C4M C4CD 1_555 1_555
C3XC C4XC 1_555 1_555
C3CD C4CD 1_555 1_555
C3DA C3RD 1_555 1_555
C4DA N1DA 1_555 1_555
C4DA C3RD 1_555 1_555
C4DA C4RD 1_555 1_555
C5DA C4RD 1_555 1_555
C3IA C4IA 1_555 1_555
C3IA C3CE 1_555 1_555
C3IA C4CE 1_555 1_555
C4IA N1IA 1_555 1_555
C4IA C3CE 1_555 1_555
C4IA C4CE 1_555 1_555
C3RD C4RD 1_555 1_555
C4RD N1RD 1_555 1_555
C3CE C4CE 1_555 1_555
C4CE N1CE 1_555 1_555
O2C Zr1I 1_555 1_555
O2C Zr1J 1_555 1_555
Zr1H Zr1I 1_555 1_555
Zr1H Zr1K 1_555 1_555
Zr1I Zr1D 1_555 1_555
Zr1I Zr1J 1_555 1_555
Zr1I O2G 1_555 1_555
Zr1D Zr1J 1_555 1_555
Zr1D Zr1K 1_555 1_555
Zr1D O2D 1_555 1_555
Zr1D O2F 1_555 1_555
Zr1D O2G 1_555 1_555
Zr1J Zr1K 1_555 1_555
Zr1J O2D 1_555 1_555
Zr1K O2F 1_555 1_555
Zr1BA Zr1GA 1_555 1_555
Zr1BA_2 Zr1IA 1_555 1_555
Zr1ZA Zr1FB 1_555 1_555

#END
