
#######################################################################
#
#                 Cambridge Crystallographic Data Centre
#                                CCDC 
#
#######################################################################
#
# If this CIF has been generated from an entry in the Cambridge 
# Structural Database, then it will include bibliographic, chemical, 
# crystal, experimental, refinement or atomic coordinate data resulting 
# from the CCDC's data processing and validation procedures.
#
#######################################################################

data_VETTUK
_chemical_formula_moiety         '(C150 H94 Cl3 Dy4 N14 O30)n'
_symmetry_cell_setting           monoclinic
_symmetry_space_group_name_H-M   'C 2/c'
_symmetry_Int_Tables_number      15
_space_group_name_Hall           '-C 2yc'
loop_
_symmetry_equiv_pos_site_id
_symmetry_equiv_pos_as_xyz
1 x,y,z
2 1/2+x,1/2+y,z
3 -x,y,1/2-z
4 1/2-x,1/2+y,1/2-z
5 -x,-y,-z
6 1/2-x,1/2-y,-z
7 x,-y,1/2+z
8 1/2+x,1/2-y,1/2+z
_cell_length_a                   21.6561(4)
_cell_length_b                   23.9803(5)
_cell_length_c                   30.9598(9)
_cell_angle_alpha                90
_cell_angle_beta                 106.264(2)
_cell_angle_gamma                90
_cell_volume                     15434.6
loop_
_atom_site_label
_atom_site_type_symbol
_atom_site_fract_x
_atom_site_fract_y
_atom_site_fract_z
Dy1 Dy 0.086634(12) 0.273079(11) 0.301161(8)
Dy2 Dy 0.176920(13) 0.191220(11) 0.412650(9)
C1 C 0.1369(3) 0.6451(2) 0.51125(19)
C2 C 0.1190(3) 0.5936(3) 0.5281(2)
H1 H 0.1060 0.5891 0.5548
C3 C 0.1238(3) 0.5533(3) 0.4999(2)
H2 H 0.1149 0.5148 0.5024
C4 C 0.1451(3) 0.5792(3) 0.4645(2)
C5 C 0.1618(3) 0.5502(2) 0.4296(2)
C6 C 0.1825(3) 0.5768(2) 0.39592(19)
C7 C 0.2028(3) 0.5474(3) 0.3614(2)
H3 H 0.2083 0.5083 0.3594
C8 C 0.2123(3) 0.5864(2) 0.3328(2)
H4 H 0.2262 0.5797 0.3067
C9 C 0.1978(3) 0.6400(2) 0.34852(18)
C10 C 0.1923(2) 0.6896(2) 0.32433(18)
C11 C 0.1726(2) 0.7407(2) 0.33963(19)
C12 C 0.1599(3) 0.7906(3) 0.3149(2)
H5 H 0.1574 0.7948 0.2840
C13 C 0.1517(3) 0.8314(3) 0.3428(2)
H6 H 0.1411 0.8692 0.3352
C14 C 0.1622(3) 0.8060(2) 0.3866(2)
C15 C 0.1700(3) 0.8350(3) 0.4270(2)
C16 C 0.1767(3) 0.8081(2) 0.46862(19)
C17 C 0.1855(3) 0.8358(3) 0.5113(2)
H7 H 0.1954 0.8741 0.5172
C18 C 0.1773(3) 0.7977(2) 0.5413(2)
H8 H 0.1795 0.8040 0.5720
C19 C 0.1643(3) 0.7450(2) 0.51701(19)
C20 C 0.1445(3) 0.6958(2) 0.53383(19)
N1 N 0.1507(2) 0.63526(19) 0.47115(16)
N2 N 0.1807(2) 0.63260(19) 0.38792(15)
N3 N 0.1703(2) 0.74970(19) 0.38283(15)
N4 N 0.1677(2) 0.75147(18) 0.47342(16)
C21 C 0.1593(3) 0.4882(2) 0.4282(2)
C22 C 0.2125(3) 0.4566(3) 0.4488(2)
H9 H 0.2490 0.4745 0.4681
C23 C 0.2148(3) 0.4007(2) 0.44247(18)
H10 H 0.2526 0.3803 0.4568
C24 C 0.1609(3) 0.3730(3) 0.41466(17)
C25 C 0.1060(3) 0.4044(3) 0.3956(2)
H11 H 0.0687 0.3864 0.3773
C26 C 0.1045(3) 0.4611(3) 0.4025(2)
H12 H 0.0662 0.4815 0.3897
C27 C 0.1636(3) 0.3122(3) 0.40719(19)
O1 O 0.2106(2) 0.28521(18) 0.42767(15)
O2 O 0.11473(19) 0.28891(16) 0.37883(13)
C28 C 0.2101(3) 0.6893(2) 0.28147(19)
C29 C 0.1663(3) 0.6987(3) 0.2398(2)
H13 H 0.1223 0.7044 0.2382
C30 C 0.1846(3) 0.7001(3) 0.2003(2)
H14 H 0.1537 0.7060 0.1721
C31 C 0.2484(3) 0.6926(2) 0.20268(18)
C32 C 0.2926(3) 0.6792(2) 0.2429(2)
H15 H 0.3357 0.6706 0.2436
C33 C 0.2737(3) 0.6783(2) 0.2823(2)
H16 H 0.3045 0.6701 0.3102
C34 C 0.2716(3) 0.7000(2) 0.16154(18)
O3 O 0.23246(19) 0.69788(17) 0.12289(13)
O4 O 0.33136(17) 0.70771(16) 0.16624(12)
C35 C 0.1705(3) 0.8972(3) 0.4257(2)
C36 C 0.2145(3) 0.9247(3) 0.4094(3)
H17 H 0.2453 0.9035 0.3998
C37 C 0.2161(4) 0.9819(3) 0.4065(3)
H18 H 0.2464 0.9998 0.3941
C38 C 0.1714(4) 1.0139(3) 0.4223(3)
C39 C 0.1259(4) 0.9862(3) 0.4379(3)
H19 H 0.0947 1.0066 0.4477
C40 C 0.1260(3) 0.9281(3) 0.4391(2)
H20 H 0.0943 0.9094 0.4495
C41 C 0.1744(5) 1.0764(3) 0.4190(3)
O5 O 0.1959(3) 1.09888(19) 0.3901(2)
O6 O 0.1530(4) 1.1048(2) 0.4467(2)
C42 C 0.1282(3) 0.6995(2) 0.57723(19)
C43 C 0.0637(3) 0.6997(3) 0.5769(2)
H21 H 0.0311 0.6963 0.5491
C44 C 0.0463(3) 0.7050(3) 0.6172(2)
H22 H 0.0023 0.7044 0.6168
C45 C 0.0935(3) 0.7111(2) 0.65694(19)
C46 C 0.1581(3) 0.7079(3) 0.65773(19)
H23 H 0.1906 0.7092 0.6856
C47 C 0.1748(3) 0.7028(2) 0.6186(2)
H24 H 0.2190 0.7016 0.6195
C48 C 0.0749(3) 0.7204(2) 0.6991(2)
O7 O 0.01550(19) 0.72482(16) 0.69709(14)
O8 O 0.1182(2) 0.72319(16) 0.73621(13)
Cl1 Cl 0.16686(7) 0.69224(6) 0.42849(5)
C49 C 0.0000 -0.0814(3) 0.2500
C50 C -0.0074(2) -0.1086(2) 0.28802(19)
C51 C -0.0158(3) -0.0806(2) 0.3277(2)
H25 H -0.0168 -0.0414 0.3323
C52 C -0.0220(3) -0.1204(2) 0.35637(19)
H26 H -0.0274 -0.1148 0.3855
C53 C -0.0189(3) -0.1739(2) 0.33514(19)
C54 C -0.0212(3) -0.2255(2) 0.35558(19)
C55 C -0.0113(2) -0.2772(2) 0.33771(19)
C56 C -0.0116(3) -0.3298(2) 0.3595(2)
H27 H -0.0160 -0.3351 0.3889
C57 C -0.0046(3) -0.3708(3) 0.3312(2)
H28 H -0.0026 -0.4098 0.3369
C58 C -0.0007(3) -0.3430(2) 0.28970(19)
C59 C 0.0000 -0.3712(3) 0.2500
N5 N -0.0094(2) -0.16552(19) 0.29333(15)
N6 N -0.0037(2) -0.28579(19) 0.29545(16)
C60 C 0.0000 -0.0185(3) 0.2500
C61 C 0.0513(3) 0.0109(2) 0.2762(2)
H29 H 0.0871 -0.0089 0.2945
C62 C 0.0523(3) 0.0695(2) 0.2766(2)
H30 H 0.0887 0.0886 0.2950
C63 C 0.0000 0.0998(3) 0.2500
C64 C 0.0000 0.1607(3) 0.2500
O9 O 0.04884(19) 0.18588(15) 0.27388(15)
C65 C -0.0360(3) -0.2244(2) 0.4002(2)
C66 C 0.0118(3) -0.2203(4) 0.4388(2)
H31 H 0.0551 -0.2219 0.4374
C67 C 0.0005(3) -0.2141(5) 0.4797(2)
H32 H 0.0358 -0.2104 0.5059
C68 C -0.0622(3) -0.2131(3) 0.4836(2)
C69 C -0.1118(3) -0.2185(3) 0.4444(3)
H33 H -0.1551 -0.2196 0.4458
C70 C -0.0987(3) -0.2226(3) 0.4027(3)
H34 H -0.1333 -0.2241 0.3759
C71 C -0.0738(4) -0.2060(3) 0.5295(3)
O10 O -0.0281(3) -0.1884(4) 0.56050(19)
O11 O -0.1290(2) -0.21777(18) 0.53278(16)
C72 C 0.0000 -0.4326(3) 0.2500
C73 C 0.0512(3) -0.4636(2) 0.2772(2)
H35 H 0.0872 -0.4443 0.2958
C74 C 0.0512(3) -0.5208(2) 0.2778(2)
H36 H 0.0862 -0.5402 0.2974
C75 C 0.0000 -0.5509(3) 0.2500
C76 C 0.0000 -0.6141(3) 0.2500
O12 O 0.04917(19) -0.63879(16) 0.27454(14)
Cl2 Cl -0.0000 -0.22493(11) 0.2500
O13 O 0.18416(19) 0.32628(17) 0.31908(13)
C77 C 0.2202(3) 0.3385(3) 0.2960(2)
H37 H 0.2091 0.3249 0.2660
N7 N 0.2728(3) 0.3689(3) 0.3096(2)
C78 C 0.2945(4) 0.3903(4) 0.3544(3)
H38 H 0.2698 0.4238 0.3569
H39 H 0.3403 0.3997 0.3613
H40 H 0.2882 0.3620 0.3756
C79 C 0.3148(4) 0.3795(4) 0.2803(3)
H41 H 0.2966 0.3613 0.2511
H42 H 0.3578 0.3644 0.2944
H43 H 0.3179 0.4197 0.2758
O14 O 0.2692(3) 0.1875(3) 0.4747(2)
H44 H 0.2564 0.1871 0.5020
H45 H 0.2943 0.2204 0.4740
O15 O 0.0696(3) 0.1745(3) 0.37109(19)
H46 H 0.0472 0.2094 0.3654
H47 H 0.0691 0.1572 0.3430
Dy1C Dy 0.413366(12) -0.226921(11) 0.198839(8)
Dy1C_2 Dy 0.413366(12) 0.773079(11) 0.198839(8)
Dy1D Dy -0.086634(12) 0.726921(11) 0.698839(8)
Dy1F Dy 0.086634(12) 0.726921(11) 0.801161(8)
Dy1_2 Dy 0.086634(12) -0.726921(11) 0.301161(8)
Dy1B Dy -0.086634(12) 0.273079(11) 0.198839(8)
Dy1B_2 Dy -0.086634(12) -0.726921(11) 0.198839(8)
Dy1G Dy 0.586634(12) 0.226921(11) -0.198839(8)
Dy1E Dy 0.413366(12) 0.226921(11) -0.301161(8)
Dy2C Dy 0.323080(13) -0.308780(11) 0.087350(9)
Dy2C_2 Dy 0.323080(13) 0.691220(11) 0.087350(9)
Dy2_2 Dy 0.176920(13) 1.191220(11) 0.412650(9)
Dy2D Dy -0.176920(13) -0.191220(11) 0.587350(9)
Dy2F Dy 0.176920(13) -0.191220(11) -0.087350(9)
C1C C 0.3631(3) 0.1451(2) -0.01125(19)
C2C C 0.3810(3) 0.0936(3) -0.0281(2)
H1C H 0.3940 0.0891 -0.0548
C3C C 0.3762(3) 0.0533(3) 0.0001(2)
H2C H 0.3851 0.0148 -0.0024
C4C C 0.3549(3) 0.0792(3) 0.0355(2)
C5C C 0.3382(3) 0.0502(2) 0.0704(2)
C6C C 0.3175(3) 0.0768(2) 0.10408(19)
C7C C 0.2972(3) 0.0474(3) 0.1386(2)
H3C H 0.2917 0.0083 0.1406
C8C C 0.2877(3) 0.0864(2) 0.1672(2)
H4C H 0.2738 0.0797 0.1933
C9C C 0.3022(3) 0.1400(2) 0.15148(18)
C10C C 0.3077(2) 0.1896(2) 0.17567(18)
C11C C 0.3274(2) 0.2407(2) 0.16037(19)
C12C C 0.3401(3) 0.2906(3) 0.1851(2)
H5C H 0.3426 0.2948 0.2160
C13C C 0.3483(3) 0.3314(3) 0.1572(2)
H6C H 0.3589 0.3692 0.1648
C14C C 0.3378(3) 0.3060(2) 0.1134(2)
C15C C 0.3300(3) 0.3350(3) 0.0730(2)
C16C C 0.3233(3) 0.3081(2) 0.03138(19)
C17C C 0.3145(3) 0.3358(3) -0.0113(2)
H7C H 0.3046 0.3741 -0.0172
C18C C 0.3227(3) 0.2977(2) -0.0413(2)
H8C H 0.3205 0.3040 -0.0720
C19C C 0.3357(3) 0.2450(2) -0.01701(19)
C20C C 0.3555(3) 0.1958(2) -0.03383(19)
N1C N 0.3493(2) 0.13526(19) 0.02885(16)
N2C N 0.3193(2) 0.13260(19) 0.11208(15)
N3C N 0.3297(2) 0.24970(19) 0.11717(15)
N4C N 0.3323(2) 0.25147(18) 0.02658(16)
C21C C 0.3407(3) -0.0118(2) 0.0718(2)
C22C C 0.2875(3) -0.0434(3) 0.0512(2)
H9C H 0.2510 -0.0255 0.0319
C23C C 0.2852(3) -0.0993(2) 0.05753(18)
H10C H 0.2474 -0.1197 0.0432
C24C C 0.3391(3) -0.1270(3) 0.08534(17)
C25C C 0.3940(3) -0.0956(3) 0.1044(2)
H11C H 0.4313 -0.1136 0.1227
C26C C 0.3955(3) -0.0389(3) 0.0975(2)
H12C H 0.4338 -0.0185 0.1103
C27C C 0.3364(3) -0.1878(3) 0.09281(19)
O1C O 0.2894(2) -0.21479(18) 0.07233(15)
O2C O 0.38527(19) -0.21109(16) 0.12117(13)
C28C C 0.2899(3) 0.1893(2) 0.21853(19)
C29C C 0.3337(3) 0.1987(3) 0.2602(2)
H13C H 0.3777 0.2044 0.2618
C30C C 0.3154(3) 0.2001(3) 0.2997(2)
H14C H 0.3463 0.2060 0.3279
C31C C 0.2516(3) 0.1926(2) 0.29732(18)
C32C C 0.2074(3) 0.1792(2) 0.2571(2)
H15C H 0.1643 0.1706 0.2564
C33C C 0.2263(3) 0.1783(2) 0.2177(2)
H16C H 0.1955 0.1701 0.1898
C34C C 0.2284(3) 0.2000(2) 0.33846(18)
O3C O 0.26754(19) 0.19788(17) 0.37711(13)
O3_2 O 0.23246(19) -0.30212(17) 0.12289(13)
O4C O 0.16864(17) 0.20771(16) 0.33376(12)
O4_2 O 0.33136(17) -0.29229(16) 0.16624(12)
C35C C 0.3295(3) 0.3972(3) 0.0743(2)
C36C C 0.2855(3) 0.4247(3) 0.0906(3)
H17C H 0.2547 0.4035 0.1002
C37C C 0.2839(4) 0.4819(3) 0.0935(3)
H18C H 0.2536 0.4998 0.1059
C38C C 0.3286(4) 0.5139(3) 0.0777(3)
C39C C 0.3741(4) 0.4862(3) 0.0621(3)
H19C H 0.4053 0.5066 0.0523
C40C C 0.3740(3) 0.4281(3) 0.0609(2)
H20C H 0.4057 0.4094 0.0505
C41C C 0.3256(5) 0.5764(3) 0.0810(3)
O5C O 0.3041(3) 0.59888(19) 0.1099(2)
O5_2 O 0.1959(3) 0.09888(19) 0.3901(2)
O5C_2 O 0.3041(3) -0.40112(19) 0.1099(2)
O6C O 0.3470(4) 0.6048(2) 0.0533(2)
O6_2 O 0.1530(4) 0.1048(2) 0.4467(2)
O6C_2 O 0.3470(4) -0.3952(2) 0.0533(2)
C42C C 0.3718(3) 0.1995(2) -0.07723(19)
C43C C 0.4363(3) 0.1997(3) -0.0769(2)
H21C H 0.4689 0.1963 -0.0491
C44C C 0.4537(3) 0.2050(3) -0.1172(2)
H22C H 0.4977 0.2044 -0.1168
C45C C 0.4065(3) 0.2111(2) -0.15694(19)
C46C C 0.3419(3) 0.2079(3) -0.15773(19)
H23C H 0.3094 0.2092 -0.1856
C47C C 0.3252(3) 0.2028(2) -0.1186(2)
H24C H 0.2810 0.2016 -0.1195
C48C C 0.4251(3) 0.2204(2) -0.1991(2)
O7C O 0.48450(19) 0.22482(16) -0.19709(14)
O7D O -0.01550(19) 0.27518(16) 0.30291(14)
O7G O 0.51550(19) -0.22482(16) 0.19709(14)
O8C O 0.3818(2) 0.22319(16) -0.23621(13)
O8F O 0.1182(2) 0.27681(16) 0.23621(13)
O8E O 0.3818(2) -0.22319(16) 0.26379(13)
Cl1C Cl 0.33314(7) 0.19224(6) 0.07151(5)
C50B C 0.0074(2) -0.1086(2) 0.21198(19)
C51B C 0.0158(3) -0.0806(2) 0.1723(2)
H25B H 0.0168 -0.0414 0.1677
C52B C 0.0220(3) -0.1204(2) 0.14363(19)
H26B H 0.0274 -0.1148 0.1145
C53B C 0.0189(3) -0.1739(2) 0.16486(19)
C54B C 0.0212(3) -0.2255(2) 0.14442(19)
C55B C 0.0113(2) -0.2772(2) 0.16229(19)
C56B C 0.0116(3) -0.3298(2) 0.1405(2)
H27B H 0.0160 -0.3351 0.1111
C57B C 0.0046(3) -0.3708(3) 0.1688(2)
H28B H 0.0026 -0.4098 0.1631
C58B C 0.0007(3) -0.3430(2) 0.21030(19)
N5B N 0.0094(2) -0.16552(19) 0.20667(15)
N6B N 0.0037(2) -0.28579(19) 0.20455(16)
C61B C -0.0513(3) 0.0109(2) 0.2238(2)
H29B H -0.0871 -0.0089 0.2055
C62B C -0.0523(3) 0.0695(2) 0.2234(2)
H30B H -0.0887 0.0886 0.2050
O9B O -0.04884(19) 0.18588(15) 0.22612(15)
O9C O 0.45116(19) -0.31412(15) 0.22612(15)
C65B C 0.0360(3) -0.2244(2) 0.0998(2)
C66B C -0.0118(3) -0.2203(4) 0.0612(2)
H31B H -0.0551 -0.2219 0.0626
C67B C -0.0005(3) -0.2141(5) 0.0203(2)
H32B H -0.0358 -0.2104 -0.0059
C68B C 0.0622(3) -0.2131(3) 0.0164(2)
C69B C 0.1118(3) -0.2185(3) 0.0556(3)
H33B H 0.1551 -0.2196 0.0542
C70B C 0.0987(3) -0.2226(3) 0.0973(3)
H34B H 0.1333 -0.2241 0.1241
C71B C 0.0738(4) -0.2060(3) -0.0295(3)
O10B O 0.0281(3) -0.1884(4) -0.06050(19)
O11B O 0.1290(2) -0.21777(18) -0.03278(16)
O11D O 0.1290(2) 0.21777(18) 0.46722(16)
O11G O 0.3710(2) -0.28223(18) 0.03278(16)
C73B C -0.0512(3) -0.4636(2) 0.2228(2)
H35B H -0.0872 -0.4443 0.2042
C74B C -0.0512(3) -0.5208(2) 0.2222(2)
H36B H -0.0862 -0.5402 0.2026
O12B O -0.04917(19) -0.63879(16) 0.22546(14)
O12_2 O 0.04917(19) 0.36121(16) 0.27454(14)
O12C O 0.45083(19) -0.13879(16) 0.22546(14)
O13C O 0.31584(19) -0.17372(17) 0.18092(13)
C77C C 0.2798(3) -0.1615(3) 0.2040(2)
H37C H 0.2909 -0.1751 0.2340
N7C N 0.2272(3) -0.1311(3) 0.1904(2)
C78C C 0.2055(4) -0.1097(4) 0.1456(3)
H38C H 0.2302 -0.0762 0.1431
H39C H 0.1597 -0.1003 0.1387
H40C H 0.2118 -0.1380 0.1244
C79C C 0.1852(4) -0.1205(4) 0.2197(3)
H41C H 0.2034 -0.1387 0.2489
H42C H 0.1422 -0.1356 0.2056
H43C H 0.1821 -0.0803 0.2242
O14C O 0.2308(3) -0.3125(3) 0.0253(2)
H44C H 0.2436 -0.3129 -0.0020
H45C H 0.2057 -0.2796 0.0260
O15C O 0.4304(3) -0.3255(3) 0.12891(19)
H46C H 0.4528 -0.2906 0.1346
H47C H 0.4309 -0.3428 0.1570
loop_
_geom_bond_atom_site_label_1
_geom_bond_atom_site_label_2
_geom_bond_site_symmetry_1
_geom_bond_site_symmetry_2
Dy1 O2 1_555 1_555
Dy2 O1 1_555 1_555
C1 C2 1_555 1_555
C2 H1 1_555 1_555
C3 C2 1_555 1_555
H2 C3 1_555 1_555
C4 C3 1_555 1_555
C5 C4 1_555 1_555
C6 C5 1_555 1_555
C7 C6 1_555 1_555
H3 C7 1_555 1_555
C8 C7 1_555 1_555
H4 C8 1_555 1_555
C9 C8 1_555 1_555
C10 C9 1_555 1_555
C11 C10 1_555 1_555
C12 C11 1_555 1_555
H5 C12 1_555 1_555
C13 C12 1_555 1_555
H6 C13 1_555 1_555
C14 C13 1_555 1_555
C15 C14 1_555 1_555
C16 C15 1_555 1_555
C17 C16 1_555 1_555
H7 C17 1_555 1_555
C18 C17 1_555 1_555
H8 C18 1_555 1_555
C19 C18 1_555 1_555
C20 C1 1_555 1_555
N1 C1 1_555 1_555
N2 C6 1_555 1_555
N3 C11 1_555 1_555
N4 C16 1_555 1_555
C21 C5 1_555 1_555
C22 C21 1_555 1_555
H9 C22 1_555 1_555
C23 C22 1_555 1_555
H10 C23 1_555 1_555
C24 C23 1_555 1_555
C25 C24 1_555 1_555
H11 C25 1_555 1_555
C26 C21 1_555 1_555
H12 C26 1_555 1_555
C27 C24 1_555 1_555
O1 C27 1_555 1_555
O2 C27 1_555 1_555
C28 C10 1_555 1_555
C29 C28 1_555 1_555
H13 C29 1_555 1_555
C30 C29 1_555 1_555
H14 C30 1_555 1_555
C31 C30 1_555 1_555
C32 C31 1_555 1_555
H15 C32 1_555 1_555
C33 C28 1_555 1_555
H16 C33 1_555 1_555
C34 C31 1_555 1_555
O3 C34 1_555 1_555
O4 C34 1_555 1_555
C35 C15 1_555 1_555
C36 C35 1_555 1_555
H17 C36 1_555 1_555
C37 C36 1_555 1_555
H18 C37 1_555 1_555
C38 C37 1_555 1_555
C39 C38 1_555 1_555
H19 C39 1_555 1_555
C40 C35 1_555 1_555
H20 C40 1_555 1_555
C41 C38 1_555 1_555
O5 C41 1_555 1_555
O6 C41 1_555 1_555
C42 C20 1_555 1_555
C43 C42 1_555 1_555
H21 C43 1_555 1_555
C44 C43 1_555 1_555
H22 C44 1_555 1_555
C45 C44 1_555 1_555
C46 C45 1_555 1_555
H23 C46 1_555 1_555
C47 C42 1_555 1_555
H24 C47 1_555 1_555
C48 C45 1_555 1_555
O7 C48 1_555 1_555
O8 C48 1_555 1_555
Cl1 N1 1_555 1_555
C49 C50 1_555 1_555
C50 C51 1_555 1_555
C51 H25 1_555 1_555
C52 C51 1_555 1_555
H26 C52 1_555 1_555
C53 C52 1_555 1_555
C54 C53 1_555 1_555
C55 C54 1_555 1_555
C56 C55 1_555 1_555
H27 C56 1_555 1_555
C57 C56 1_555 1_555
H28 C57 1_555 1_555
C58 C57 1_555 1_555
C59 C58 1_555 1_555
N5 C50 1_555 1_555
N6 C55 1_555 1_555
C60 C49 1_555 1_555
C61 C60 1_555 1_555
H29 C61 1_555 1_555
C62 C61 1_555 1_555
H30 C62 1_555 1_555
C63 C62 1_555 1_555
C64 C63 1_555 1_555
O9 Dy1 1_555 1_555
C65 C54 1_555 1_555
C66 C65 1_555 1_555
H31 C66 1_555 1_555
C67 C66 1_555 1_555
H32 C67 1_555 1_555
C68 C67 1_555 1_555
C69 C68 1_555 1_555
H33 C69 1_555 1_555
C70 C65 1_555 1_555
H34 C70 1_555 1_555
C71 C68 1_555 1_555
O10 C71 1_555 1_555
O11 C71 1_555 1_555
C72 C59 1_555 1_555
C73 C72 1_555 1_555
H35 C73 1_555 1_555
C74 C73 1_555 1_555
H36 C74 1_555 1_555
C75 C74 1_555 1_555
C76 C75 1_555 1_555
O12 C76 1_555 1_555
Cl2 N5 1_555 1_555
O13 Dy1 1_555 1_555
C77 O13 1_555 1_555
H37 C77 1_555 1_555
N7 C77 1_555 1_555
C78 N7 1_555 1_555
H38 C78 1_555 1_555
H39 C78 1_555 1_555
H40 C78 1_555 1_555
C79 N7 1_555 1_555
H41 C79 1_555 1_555
H42 C79 1_555 1_555
H43 C79 1_555 1_555
O14 Dy2 1_555 1_555
H44 O14 1_555 1_555
H45 O14 1_555 1_555
O15 Dy2 1_555 1_555
H46 O15 1_555 1_555
H47 O15 1_555 1_555
Dy1C O2C 1_555 1_555
Dy1C_2 O4 1_555 1_555
Dy1D O7 1_555 1_555
Dy1F O8 1_555 1_555
Dy1_2 O12 1_555 1_555
Dy1B O9B 1_555 1_555
Dy1B_2 O12B 1_555 1_555
Dy1G O7C 1_555 1_555
Dy1E O8C 1_555 1_555
Dy2C O1C 1_555 1_555
Dy2C_2 O3 1_555 1_555
Dy2_2 O5 1_555 1_555
Dy2D O11 1_555 1_555
Dy2F O11B 1_555 1_555
C1C C2C 1_555 1_555
C2C H1C 1_555 1_555
C3C C2C 1_555 1_555
H2C C3C 1_555 1_555
C4C C3C 1_555 1_555
C5C C4C 1_555 1_555
C6C C5C 1_555 1_555
C7C C6C 1_555 1_555
H3C C7C 1_555 1_555
C8C C7C 1_555 1_555
H4C C8C 1_555 1_555
C9C C8C 1_555 1_555
C10C C9C 1_555 1_555
C11C C10C 1_555 1_555
C12C C11C 1_555 1_555
H5C C12C 1_555 1_555
C13C C12C 1_555 1_555
H6C C13C 1_555 1_555
C14C C13C 1_555 1_555
C15C C14C 1_555 1_555
C16C C15C 1_555 1_555
C17C C16C 1_555 1_555
H7C C17C 1_555 1_555
C18C C17C 1_555 1_555
H8C C18C 1_555 1_555
C19C C18C 1_555 1_555
C20C C1C 1_555 1_555
N1C C1C 1_555 1_555
N2C C6C 1_555 1_555
N3C C11C 1_555 1_555
N4C C16C 1_555 1_555
C21C C5C 1_555 1_555
C22C C21C 1_555 1_555
H9C C22C 1_555 1_555
C23C C22C 1_555 1_555
H10C C23C 1_555 1_555
C24C C23C 1_555 1_555
C25C C24C 1_555 1_555
H11C C25C 1_555 1_555
C26C C21C 1_555 1_555
H12C C26C 1_555 1_555
C27C C24C 1_555 1_555
O1C C27C 1_555 1_555
O2C C27C 1_555 1_555
C28C C10C 1_555 1_555
C29C C28C 1_555 1_555
H13C C29C 1_555 1_555
C30C C29C 1_555 1_555
H14C C30C 1_555 1_555
C31C C30C 1_555 1_555
C32C C31C 1_555 1_555
H15C C32C 1_555 1_555
C33C C28C 1_555 1_555
H16C C33C 1_555 1_555
C34C C31C 1_555 1_555
O3C Dy2 1_555 1_555
O3_2 Dy2C 1_555 1_555
O4C Dy1 1_555 1_555
O4_2 Dy1C 1_555 1_555
C35C C15C 1_555 1_555
C36C C35C 1_555 1_555
H17C C36C 1_555 1_555
C37C C36C 1_555 1_555
H18C C37C 1_555 1_555
C38C C37C 1_555 1_555
C39C C38C 1_555 1_555
H19C C39C 1_555 1_555
C40C C35C 1_555 1_555
H20C C40C 1_555 1_555
C41C C38C 1_555 1_555
O5C Dy2C_2 1_555 1_555
O5_2 Dy2 1_555 1_555
O5C_2 Dy2C 1_555 1_555
O6C Dy2C_2 1_555 1_555
O6_2 Dy2 1_555 1_555
O6C_2 Dy2C 1_555 1_555
C42C C20C 1_555 1_555
C43C C42C 1_555 1_555
H21C C43C 1_555 1_555
C44C C43C 1_555 1_555
H22C C44C 1_555 1_555
C45C C44C 1_555 1_555
C46C C45C 1_555 1_555
H23C C46C 1_555 1_555
C47C C42C 1_555 1_555
H24C C47C 1_555 1_555
C48C C45C 1_555 1_555
O7C C48C 1_555 1_555
O7D Dy1 1_555 1_555
O7G Dy1C 1_555 1_555
O8C C48C 1_555 1_555
O8F Dy1 1_555 1_555
O8E Dy1C 1_555 1_555
Cl1C N1C 1_555 1_555
C50B C49 1_555 1_555
C51B C50B 1_555 1_555
H25B C51B 1_555 1_555
C52B C51B 1_555 1_555
H26B C52B 1_555 1_555
C53B C52B 1_555 1_555
C54B C53B 1_555 1_555
C55B C54B 1_555 1_555
C56B C55B 1_555 1_555
H27B C56B 1_555 1_555
C57B C56B 1_555 1_555
H28B C57B 1_555 1_555
C58B C59 1_555 1_555
N5B Cl2 1_555 1_555
N6B Cl2 1_555 1_555
C61B C60 1_555 1_555
H29B C61B 1_555 1_555
C62B C63 1_555 1_555
H30B C62B 1_555 1_555
O9B C64 1_555 1_555
O9C Dy1C 1_555 1_555
C65B C54B 1_555 1_555
C66B C65B 1_555 1_555
H31B C66B 1_555 1_555
C67B C66B 1_555 1_555
H32B C67B 1_555 1_555
C68B C67B 1_555 1_555
C69B C68B 1_555 1_555
H33B C69B 1_555 1_555
C70B C65B 1_555 1_555
H34B C70B 1_555 1_555
C71B C68B 1_555 1_555
O10B C71B 1_555 1_555
O11B C71B 1_555 1_555
O11D Dy2 1_555 1_555
O11G Dy2C 1_555 1_555
C73B C72 1_555 1_555
H35B C73B 1_555 1_555
C74B C75 1_555 1_555
H36B C74B 1_555 1_555
O12B C76 1_555 1_555
O12_2 Dy1 1_555 1_555
O12C Dy1C 1_555 1_555
O13C Dy1C 1_555 1_555
C77C O13C 1_555 1_555
H37C C77C 1_555 1_555
N7C C77C 1_555 1_555
C78C N7C 1_555 1_555
H38C C78C 1_555 1_555
H39C C78C 1_555 1_555
H40C C78C 1_555 1_555
C79C N7C 1_555 1_555
H41C C79C 1_555 1_555
H42C C79C 1_555 1_555
H43C C79C 1_555 1_555
O14C Dy2C 1_555 1_555
H44C O14C 1_555 1_555
H45C O14C 1_555 1_555
O15C Dy2C 1_555 1_555
H46C O15C 1_555 1_555
H47C O15C 1_555 1_555
Dy2 O4C 1_555 1_555
C4 N1 1_555 1_555
C9 N2 1_555 1_555
C14 N3 1_555 1_555
C19 C20 1_555 1_555
C19 N4 1_555 1_555
N2 Cl1 1_555 1_555
N3 Cl1 1_555 1_555
N4 Cl1 1_555 1_555
C25 C26 1_555 1_555
C32 C33 1_555 1_555
O4 Dy2C_2 1_555 1_555
C39 C40 1_555 1_555
O6 Dy2_2 1_555 1_555
C46 C47 1_555 1_555
C53 N5 1_555 1_555
C58 N6 1_555 1_555
N6 Cl2 1_555 1_555
C64 O9 1_555 1_555
C69 C70 1_555 1_555
Dy2C O4_2 1_555 1_555
C4C N1C 1_555 1_555
C9C N2C 1_555 1_555
C14C N3C 1_555 1_555
C19C C20C 1_555 1_555
C19C N4C 1_555 1_555
N2C Cl1C 1_555 1_555
N3C Cl1C 1_555 1_555
N4C Cl1C 1_555 1_555
C25C C26C 1_555 1_555
C32C C33C 1_555 1_555
C34C O3C 1_555 1_555
C34C O4C 1_555 1_555
C39C C40C 1_555 1_555
C41C O5C 1_555 1_555
C41C O6C 1_555 1_555
C46C C47C 1_555 1_555
C50B N5B 1_555 1_555
C53B N5B 1_555 1_555
C55B N6B 1_555 1_555
C57B C58B 1_555 1_555
C58B N6B 1_555 1_555
C61B C62B 1_555 1_555
C69B C70B 1_555 1_555
C73B C74B 1_555 1_555

#END
