
#######################################################################
#
#                 Cambridge Crystallographic Data Centre
#                                CCDC 
#
#######################################################################
#
# If this CIF has been generated from an entry in the Cambridge 
# Structural Database, then it will include bibliographic, chemical, 
# crystal, experimental, refinement or atomic coordinate data resulting 
# from the CCDC's data processing and validation procedures.
#
#######################################################################

data_CAVMOD
_chemical_formula_moiety         '(C90 H119 N11 O23 Zn4)n'
_symmetry_cell_setting           monoclinic
_symmetry_space_group_name_H-M   'P 21/n'
_symmetry_Int_Tables_number      14
_space_group_name_Hall           '-P 2yn'
loop_
_symmetry_equiv_pos_site_id
_symmetry_equiv_pos_as_xyz
1 x,y,z
2 1/2-x,1/2+y,1/2-z
3 -x,-y,-z
4 1/2+x,1/2-y,1/2+z
_cell_length_a                   23.0013(6)
_cell_length_b                   14.0578(4)
_cell_length_c                   31.2380(8)
_cell_angle_alpha                90
_cell_angle_beta                 90.881(2)
_cell_angle_gamma                90
_cell_volume                     10099.5
loop_
_atom_site_label
_atom_site_type_symbol
_atom_site_fract_x
_atom_site_fract_y
_atom_site_fract_z
Zn1 Zn 0.73208(6) 0.70127(9) 0.65743(4)
Zn2 Zn 0.78582(6) 1.49440(9) 0.65038(4)
Zn3 Zn 0.96958(7) 0.66602(10) 0.39157(5)
Zn4 Zn 1.03087(7) 0.78750(10) 0.87314(4)
C1 C 0.8232(5) 0.6106(9) 0.5868(3)
C2 C 0.8545(3) 0.6413(4) 0.54762(19)
C3 C 0.8527(3) 0.7363(4) 0.5354(2)
H1 H 0.8318 0.7799 0.5514
C4 C 0.8822(4) 0.7661(3) 0.4993(2)
C5 C 0.9136(3) 0.7009(4) 0.4754(2)
C6 C 0.9154(3) 0.6059(4) 0.4877(2)
C7 C 0.8858(3) 0.5760(3) 0.5238(2)
H2 H 0.8871 0.5125 0.5319
C8 C 0.8802(6) 0.8742(8) 0.4858(4)
C9 C 0.8543(7) 0.8860(10) 0.4417(4)
H3 H 0.8767 0.8505 0.4216
H4 H 0.8545 0.9521 0.4340
H5 H 0.8150 0.8630 0.4414
C10 C 0.8405(6) 0.9329(9) 0.5163(4)
H6 H 0.8403 0.9984 0.5076
H7 H 0.8551 0.9280 0.5451
H8 H 0.8016 0.9082 0.5148
C11 C 0.9409(6) 0.9164(9) 0.4886(5)
H9 H 0.9664 0.8811 0.4705
H10 H 0.9550 0.9132 0.5177
H11 H 0.9397 0.9816 0.4795
C12 C 0.9455(6) 0.5312(9) 0.4647(4)
H12 H 0.9474 0.4717 0.4777
C13 C 0.9957(3) 0.4634(4) 0.4064(2)
C14 C 0.9924(4) 0.3692(5) 0.4197(2)
H13 H 0.9724 0.3537 0.4444
C15 C 1.0190(4) 0.2981(3) 0.3960(2)
H14 H 1.0169 0.2351 0.4049
C16 C 1.0489(4) 0.3213(4) 0.3591(2)
H15 H 1.0667 0.2737 0.3433
C17 C 1.0522(3) 0.4155(5) 0.3459(2)
H16 H 1.0722 0.4310 0.3212
C18 C 1.0256(3) 0.4865(3) 0.3695(2)
C19 C 1.0621(5) 0.6152(8) 0.3291(3)
H17 H 1.0847 0.5706 0.3150
C20 C 1.0688(3) 0.7153(3) 0.3166(2)
C21 C 1.0431(3) 0.7920(4) 0.33706(18)
C22 C 1.0551(3) 0.8843(3) 0.3238(2)
C23 C 1.0926(3) 0.8997(3) 0.2900(2)
H18 H 1.1006 0.9614 0.2812
C24 C 1.1183(3) 0.8229(4) 0.26959(17)
C25 C 1.1063(3) 0.7307(3) 0.28288(19)
H19 H 1.1235 0.6793 0.2692
C26 C 1.0290(6) 0.9735(8) 0.3469(4)
C27 C 0.9646(7) 0.9717(11) 0.3432(5)
H20 H 0.9489 1.0264 0.3573
H21 H 0.9501 0.9149 0.3563
H22 H 0.9532 0.9727 0.3135
C28 C 1.0483(8) 0.9753(11) 0.3933(4)
H23 H 1.0320 1.0300 0.4071
H24 H 1.0900 0.9787 0.3951
H25 H 1.0353 0.9186 0.4073
C29 C 1.0490(9) 1.0654(9) 0.3271(6)
H26 H 1.0320 1.1180 0.3420
H27 H 1.0372 1.0673 0.2976
H28 H 1.0906 1.0695 0.3293
C30 C 1.1577(4) 0.8448(8) 0.2328(3)
C31 C 0.8300(4) 0.6149(8) 0.7169(3)
C32 C 0.8721(3) 0.6314(4) 0.75351(18)
C33 C 0.8874(3) 0.7238(3) 0.76488(19)
H29 H 0.8717 0.7750 0.7498
C34 C 0.9260(3) 0.7395(3) 0.7988(2)
C35 C 0.9494(3) 0.6629(4) 0.82128(19)
C36 C 0.9341(3) 0.5706(4) 0.8099(2)
C37 C 0.8954(3) 0.5548(3) 0.7760(2)
H30 H 0.8852 0.4930 0.7684
C38 C 0.9548(7) 0.4827(8) 0.8373(5)
C39 C 1.0221(7) 0.4784(13) 0.8349(5)
H31 H 1.0363 0.4256 0.8515
H32 H 1.0384 0.5364 0.8461
H33 H 1.0333 0.4708 0.8056
C40 C 0.9353(9) 0.4936(12) 0.8835(5)
H34 H 0.9481 0.4396 0.8999
H35 H 0.8937 0.4976 0.8841
H36 H 0.9519 0.5505 0.8955
C41 C 0.9308(10) 0.3885(9) 0.8187(6)
H37 H 0.9439 0.3363 0.8362
H38 H 0.9445 0.3802 0.7901
H39 H 0.8891 0.3903 0.8183
C42 C 0.9341(5) 0.8399(8) 0.8102(3)
H40 H 0.9108 0.8844 0.7962
C43 C 0.9749(4) 0.9679(3) 0.8501(2)
C44 C 0.9509(4) 1.0413(4) 0.82578(19)
H41 H 0.9316 1.0279 0.8001
C45 C 0.9557(4) 1.1348(4) 0.8399(2)
H42 H 0.9396 1.1839 0.8236
C46 C 0.9845(4) 1.1549(3) 0.8782(3)
H43 H 0.9877 1.2175 0.8877
C47 C 1.0085(4) 1.0815(4) 0.9025(2)
H44 H 1.0278 1.0950 0.9282
C48 C 1.0037(3) 0.9880(4) 0.8885(2)
C49 C 1.0482(6) 0.9161(9) 0.9491(4)
H45 H 1.0433 0.9744 0.9627
C50 C 1.0770(3) 0.8407(4) 0.97320(19)
C51 C 1.0847(3) 0.7476(4) 0.95937(17)
C52 C 1.1129(3) 0.6821(3) 0.9857(2)
C53 C 1.1335(3) 0.7097(4) 1.02592(19)
H46 H 1.1524 0.6658 1.0436
C54 C 1.1259(3) 0.8028(4) 1.03974(17)
C55 C 1.0976(3) 0.8683(3) 1.0134(2)
H47 H 1.0925 0.9306 1.0226
C56 C 1.1261(6) 0.5782(8) 0.9705(4)
C57 C 1.1620(7) 0.5778(10) 0.9303(4)
H48 H 1.1691 0.5134 0.9217
H49 H 1.1984 0.6091 0.9360
H50 H 1.1414 0.6108 0.9079
C58 C 1.0671(6) 0.5277(10) 0.9616(5)
H51 H 1.0741 0.4638 0.9521
H52 H 1.0458 0.5618 0.9398
H53 H 1.0450 0.5262 0.9874
C59 C 1.1593(7) 0.5194(9) 1.0040(4)
H54 H 1.1660 0.4566 0.9930
H55 H 1.1369 0.5153 1.0296
H56 H 1.1959 0.5493 1.0104
C60 C 1.1513(5) 0.8328(9) 1.0824(4)
C61 C 0.7478(3) 1.3056(4) 0.68191(18)
H57 H 0.7298 1.3418 0.7028
C62 C 0.7431(3) 1.2071(4) 0.68250(19)
H58 H 0.7220 1.1773 0.7038
C63 C 0.7699(3) 1.1530(3) 0.6512(2)
C64 C 0.8015(3) 1.1975(4) 0.61934(19)
H59 H 0.8194 1.1614 0.5984
C65 C 0.8062(3) 1.2961(4) 0.61875(18)
H60 H 0.8273 1.3259 0.5974
N1 N 0.7794(3) 1.3502(3) 0.65003(19)
N2 N 0.9701(4) 0.5399(7) 0.4279(3)
C66 C 0.7635(3) 1.0447(3) 0.65199(19)
C67 C 0.7590(3) 0.9986(4) 0.69116(15)
H61 H 0.7605 1.0335 0.7165
C68 C 0.7523(3) 0.9004(4) 0.69254(13)
H62 H 0.7493 0.8696 0.7188
N3 N 0.7501(3) 0.8483(3) 0.65474(17)
C69 C 0.7545(3) 0.8944(4) 0.61556(13)
H63 H 0.7530 0.8595 0.5903
C70 C 0.7612(3) 0.9926(4) 0.61418(14)
H64 H 0.7642 1.0235 0.5880
N7 N 1.0275(4) 0.5838(6) 0.3580(3)
N8 N 0.9717(4) 0.8713(6) 0.8385(3)
N9 N 1.0288(4) 0.9082(6) 0.9101(3)
O2 O 0.8249(3) 0.5235(5) 0.5982(2)
O3 O 0.7954(3) 0.6755(5) 0.6072(2)
O4 O 0.9446(4) 0.7327(6) 0.4424(3)
O5 O 1.0058(4) 0.7800(5) 0.3684(3)
O6 O 1.1690(3) 0.9317(5) 0.2268(2)
O7 O 1.1773(3) 0.7778(5) 0.2098(2)
O8 O 0.8260(3) 0.5270(5) 0.7041(2)
O9 O 0.8012(3) 0.6825(5) 0.7019(2)
O10 O 0.9882(4) 0.6751(5) 0.8526(3)
O11 O 1.0668(4) 0.7189(5) 0.9216(3)
O12 O 1.1721(3) 0.7732(5) 1.1072(2)
O13 O 1.1515(4) 0.9231(6) 1.0897(2)
O14 O 0.7104(3) 0.5541(4) 0.6538(2)
O15 O 0.8945(4) 0.6540(7) 0.3555(3)
O19 O 1.1015(5) 0.7974(8) 0.8348(3)
C87 C 1.1845(18) 0.931(2) 0.8553(12)
H65 H 1.1613 0.9678 0.8744
H66 H 1.1933 0.9680 0.8304
H67 H 1.2201 0.9125 0.8695
C88 C 1.1494(10) 0.837(3) 0.8410(12)
C89 C 1.2300(14) 0.855(2) 0.7896(9)
H68 H 1.2557 0.8211 0.7711
H69 H 1.2523 0.8879 0.8112
H70 H 1.2079 0.9005 0.7730
C90 C 1.1864(17) 0.6867(19) 0.8059(12)
H71 H 1.2155 0.6653 0.7864
H72 H 1.1486 0.6694 0.7950
H73 H 1.1927 0.6575 0.8333
N11 N 1.1898(10) 0.7872(18) 0.8102(7)
Zn1C Zn 1.23208(6) 0.79873(9) 0.15743(4)
Zn1C_2 Zn 1.23208(6) 0.79873(9) 1.15743(4)
Zn2_2 Zn 0.78582(6) 0.49440(9) 0.65038(4)
O2_2 O 0.8249(3) 1.5235(5) 0.5982(2)
O7C O 0.6773(3) 0.7222(5) 0.7098(2)
O8_2 O 0.8260(3) 1.5270(5) 0.7041(2)
O12C O 0.6721(3) 0.7268(5) 0.6072(2)
O14_2 O 0.7104(3) 1.5541(4) 0.6538(2)
N4 N 0.1196(6) 0.2094(10) 0.0527(4)
C71 C 0.1534(10) 0.1325(15) 0.0727(7)
C72 C 0.1248(11) 0.3053(15) 0.0734(8)
C79 C 0.0545(9) 0.2743(14) -0.0059(7)
C81 C 0.0870(8) 0.1948(12) 0.0156(5)
O17 O 0.0863(7) 0.1112(11) 0.0008(5)
N5 N 0.1644(13) 0.822(2) 0.5421(10)
C73 C 0.1106(12) 0.829(2) 0.5682(8)
C74 C 0.2262(14) 0.830(3) 0.5580(12)
C75 C 0.1497(15) 0.785(3) 0.4988(12)
O16 O 0.2008(17) 0.791(3) 0.4857(11)
C80 C 0.0886(14) 0.773(2) 0.4822(10)
N6 N 0.8717(12) 0.9138(19) 0.2495(9)
C76 C 0.8183(15) 0.953(3) 0.2701(12)
C77 C 0.9122(17) 0.949(2) 0.2146(10)
C78 C 0.8995(12) 0.8163(17) 0.2598(8)
O1 O 0.9416(10) 0.7633(16) 0.2519(7)
C82 C 0.8596(10) 0.7841(19) 0.2954(7)
N10 N 0.7735(14) 0.494(2) 0.4581(10)
O18 O 0.8044(8) 0.5752(14) 0.3990(6)
C83 C 0.8188(15) 0.435(3) 0.4359(12)
C84 C 0.7343(11) 0.510(2) 0.4954(8)
C85 C 0.7730(18) 0.584(3) 0.4330(10)
C86 C 0.7398(16) 0.672(2) 0.4535(11)
O20 O 0.114(2) 0.576(4) 0.6860(17)
O21 O 0.060(2) 0.708(4) 0.7331(18)
O22 O 0.8779(15) 0.615(2) 0.2739(11)
O23 O 0.871(3) 0.683(4) 0.1933(12)
loop_
_geom_bond_atom_site_label_1
_geom_bond_atom_site_label_2
_geom_bond_site_symmetry_1
_geom_bond_site_symmetry_2
Zn1 N3 1_555 1_555
Zn2 N1 1_555 1_555
Zn3 N2 1_555 1_555
Zn4 N8 1_555 1_555
C1 C2 1_555 1_555
C2 C3 1_555 1_555
C3 H1 1_555 1_555
C4 C3 1_555 1_555
C5 C4 1_555 1_555
C6 C5 1_555 1_555
C7 C2 1_555 1_555
H2 C7 1_555 1_555
C8 C4 1_555 1_555
C9 C8 1_555 1_555
H3 C9 1_555 1_555
H4 C9 1_555 1_555
H5 C9 1_555 1_555
C10 C8 1_555 1_555
H6 C10 1_555 1_555
H7 C10 1_555 1_555
H8 C10 1_555 1_555
C11 C8 1_555 1_555
H9 C11 1_555 1_555
H10 C11 1_555 1_555
H11 C11 1_555 1_555
C12 C6 1_555 1_555
H12 C12 1_555 1_555
C13 C14 1_555 1_555
C14 H13 1_555 1_555
C15 C14 1_555 1_555
H14 C15 1_555 1_555
C16 C15 1_555 1_555
H15 C16 1_555 1_555
C17 C16 1_555 1_555
H16 C17 1_555 1_555
C18 C13 1_555 1_555
C19 H17 1_555 1_555
C20 C19 1_555 1_555
C21 C20 1_555 1_555
C22 C21 1_555 1_555
C23 C22 1_555 1_555
H18 C23 1_555 1_555
C24 C23 1_555 1_555
C25 C20 1_555 1_555
H19 C25 1_555 1_555
C26 C22 1_555 1_555
C27 C26 1_555 1_555
H20 C27 1_555 1_555
H21 C27 1_555 1_555
H22 C27 1_555 1_555
C28 C26 1_555 1_555
H23 C28 1_555 1_555
H24 C28 1_555 1_555
H25 C28 1_555 1_555
C29 C26 1_555 1_555
H26 C29 1_555 1_555
H27 C29 1_555 1_555
H28 C29 1_555 1_555
C30 C24 1_555 1_555
C31 C32 1_555 1_555
C32 C33 1_555 1_555
C33 H29 1_555 1_555
C34 C33 1_555 1_555
C35 C34 1_555 1_555
C36 C35 1_555 1_555
C37 C32 1_555 1_555
H30 C37 1_555 1_555
C38 C36 1_555 1_555
C39 C38 1_555 1_555
H31 C39 1_555 1_555
H32 C39 1_555 1_555
H33 C39 1_555 1_555
C40 C38 1_555 1_555
H34 C40 1_555 1_555
H35 C40 1_555 1_555
H36 C40 1_555 1_555
C41 C38 1_555 1_555
H37 C41 1_555 1_555
H38 C41 1_555 1_555
H39 C41 1_555 1_555
C42 C34 1_555 1_555
H40 C42 1_555 1_555
C43 C44 1_555 1_555
C44 H41 1_555 1_555
C45 C44 1_555 1_555
H42 C45 1_555 1_555
C46 C45 1_555 1_555
H43 C46 1_555 1_555
C47 C46 1_555 1_555
H44 C47 1_555 1_555
C48 C43 1_555 1_555
C49 H45 1_555 1_555
C50 C49 1_555 1_555
C51 C50 1_555 1_555
C52 C51 1_555 1_555
C53 C52 1_555 1_555
H46 C53 1_555 1_555
C54 C53 1_555 1_555
C55 C50 1_555 1_555
H47 C55 1_555 1_555
C56 C52 1_555 1_555
C57 C56 1_555 1_555
H48 C57 1_555 1_555
H49 C57 1_555 1_555
H50 C57 1_555 1_555
C58 C56 1_555 1_555
H51 C58 1_555 1_555
H52 C58 1_555 1_555
H53 C58 1_555 1_555
C59 C56 1_555 1_555
H54 C59 1_555 1_555
H55 C59 1_555 1_555
H56 C59 1_555 1_555
C60 C54 1_555 1_555
C61 H57 1_555 1_555
C62 C61 1_555 1_555
H58 C62 1_555 1_555
C63 C62 1_555 1_555
C64 C63 1_555 1_555
H59 C64 1_555 1_555
C65 C64 1_555 1_555
H60 C65 1_555 1_555
N1 C61 1_555 1_555
N2 C12 1_555 1_555
C66 C63 1_555 1_555
C67 C66 1_555 1_555
H61 C67 1_555 1_555
C68 C67 1_555 1_555
H62 C68 1_555 1_555
N3 C68 1_555 1_555
C69 N3 1_555 1_555
H63 C69 1_555 1_555
C70 C66 1_555 1_555
H64 C70 1_555 1_555
N4 C71 1_555 1_555
C72 N4 1_555 1_555
N5 C73 1_555 1_555
C74 N5 1_555 1_555
C75 N5 1_555 1_555
N6 C76 1_555 1_555
C77 N6 1_555 1_555
C78 N6 1_555 1_555
O1 C78 1_555 1_555
N7 Zn3 1_555 1_555
N8 C42 1_555 1_555
N9 Zn4 1_555 1_555
O2 C1 1_555 1_555
O3 Zn1 1_555 1_555
O4 Zn3 1_555 1_555
O5 Zn3 1_555 1_555
O6 C30 1_555 1_555
O7 C30 1_555 1_555
O8 C31 1_555 1_555
O9 Zn1 1_555 1_555
O10 Zn4 1_555 1_555
O11 Zn4 1_555 1_555
O12 C60 1_555 1_555
O13 C60 1_555 1_555
O14 Zn1 1_555 1_555
O15 Zn3 1_555 1_555
O16 C75 1_555 1_555
C79 C81 1_555 1_555
C80 C75 1_555 1_555
C81 N4 1_555 1_555
O17 C81 1_555 1_555
N10 C83 1_555 1_555
O18 C85 1_555 1_555
C82 C78 1_555 1_555
C84 N10 1_555 1_555
C85 N10 1_555 1_555
C86 C85 1_555 1_555
O19 Zn4 1_555 1_555
C87 H65 1_555 1_555
H66 C87 1_555 1_555
H67 C87 1_555 1_555
C88 O19 1_555 1_555
C89 H68 1_555 1_555
H69 C89 1_555 1_555
H70 C89 1_555 1_555
C90 H71 1_555 1_555
H72 C90 1_555 1_555
H73 C90 1_555 1_555
N11 C88 1_555 1_555
Zn1C O7 1_555 1_555
Zn1C_2 O12 1_555 1_555
Zn2_2 O2 1_555 1_555
O2_2 Zn2 1_555 1_555
O7C Zn1 1_555 1_555
O8_2 Zn2 1_555 1_555
O12C Zn1 1_555 1_555
O14_2 Zn2 1_555 1_555
C1 O3 1_555 1_555
C5 O4 1_555 1_555
C6 C7 1_555 1_555
C13 N2 1_555 1_555
C17 C18 1_555 1_555
C18 N7 1_555 1_555
C19 N7 1_555 1_555
C21 O5 1_555 1_555
C24 C25 1_555 1_555
C31 O9 1_555 1_555
C35 O10 1_555 1_555
C36 C37 1_555 1_555
C43 N8 1_555 1_555
C47 C48 1_555 1_555
C48 N9 1_555 1_555
C49 N9 1_555 1_555
C51 O11 1_555 1_555
C54 C55 1_555 1_555
C65 N1 1_555 1_555
C69 C70 1_555 1_555
O8 Zn2_2 1_555 1_555
O14 Zn2_2 1_555 1_555
C87 C88 1_555 1_555
C89 N11 1_555 1_555
C90 N11 1_555 1_555

#END
