
#######################################################################
#
#                 Cambridge Crystallographic Data Centre
#                                CCDC 
#
#######################################################################
#
# If this CIF has been generated from an entry in the Cambridge 
# Structural Database, then it will include bibliographic, chemical, 
# crystal, experimental, refinement or atomic coordinate data resulting 
# from the CCDC's data processing and validation procedures.
#
#######################################################################

data_CAVMIX
_chemical_formula_moiety         '(C100 H114 N6 O24 S5 Zn7)n'
_symmetry_cell_setting           monoclinic
_symmetry_space_group_name_H-M   'P 21/n'
_symmetry_Int_Tables_number      14
_space_group_name_Hall           '-P 2yn'
loop_
_symmetry_equiv_pos_site_id
_symmetry_equiv_pos_as_xyz
1 x,y,z
2 1/2-x,1/2+y,1/2-z
3 -x,-y,-z
4 1/2+x,1/2-y,1/2+z
_cell_length_a                   22.286(2)
_cell_length_b                   19.845(2)
_cell_length_c                   34.290(4)
_cell_angle_alpha                90
_cell_angle_beta                 90.968(3)
_cell_angle_gamma                90
_cell_volume                     15163.1
loop_
_atom_site_label
_atom_site_type_symbol
_atom_site_fract_x
_atom_site_fract_y
_atom_site_fract_z
Zn1 Zn 0.54603(3) 0.65287(3) 0.11973(2)
Zn2 Zn 0.26925(3) 0.32043(3) 0.46641(2)
Zn3 Zn 0.57607(3) 0.20300(3) 0.223679(18)
Zn4 Zn 0.43731(3) 0.22678(3) 0.221733(18)
Zn5 Zn 0.49134(3) 0.08559(3) 0.257548(19)
Zn6 Zn 0.48841(3) 0.11767(3) 0.167637(18)
Zn7 Zn 0.18526(4) 0.22597(4) -0.01840(2)
C1 C 0.5238(4) 0.3348(3) 0.2088(2)
C2 C 0.54248(19) 0.39862(16) 0.18843(12)
C3 C 0.50077(14) 0.4367(2) 0.16740(13)
H1 H 0.4609 0.4228 0.1657
C4 C 0.51857(16) 0.49546(19) 0.14883(12)
C5 C 0.57809(17) 0.51619(16) 0.15130(12)
C6 C 0.61981(13) 0.47813(19) 0.17234(13)
C7 C 0.60200(17) 0.41935(19) 0.19090(12)
H2 H 0.6299 0.3939 0.2050
C8 C 0.6874(3) 0.4975(3) 0.1742(2)
C9 C 0.7146(4) 0.4968(5) 0.1320(3)
H3 H 0.7095 0.4529 0.1207
H4 H 0.7566 0.5075 0.1336
H5 H 0.6942 0.5296 0.1160
C10 C 0.6950(4) 0.5682(4) 0.1931(3)
H6 H 0.6782 0.5679 0.2187
H7 H 0.6745 0.6012 0.1773
H8 H 0.7369 0.5793 0.1950
C11 C 0.7267(3) 0.4482(4) 0.1981(3)
H9 H 0.7128 0.4464 0.2244
H10 H 0.7676 0.4633 0.1981
H11 H 0.7242 0.4041 0.1866
C12 C 0.4721(3) 0.5261(3) 0.1249(2)
H12 H 0.4361 0.5031 0.1216
C13 C 0.43087(18) 0.61364(18) 0.08423(12)
C14 C 0.3912(2) 0.57621(15) 0.06121(14)
H13 H 0.3934 0.5294 0.0613
C15 C 0.34831(19) 0.6087(2) 0.03812(14)
H14 H 0.3218 0.5837 0.0227
C16 C 0.34507(19) 0.6787(2) 0.03805(14)
H15 H 0.3164 0.7004 0.0226
C17 C 0.3847(2) 0.71611(15) 0.06106(14)
H16 H 0.3825 0.7629 0.0610
C18 C 0.42762(18) 0.68359(18) 0.08415(12)
C19 C 0.4668(3) 0.7772(3) 0.12054(19)
H17 H 0.4335 0.8017 0.1121
C20 C 0.50972(17) 0.81107(17) 0.14680(11)
C21 C 0.49694(15) 0.87849(18) 0.15385(12)
H18 H 0.4655 0.8995 0.1404
C22 C 0.53113(18) 0.91454(14) 0.18095(12)
C23 C 0.57810(17) 0.88316(18) 0.20101(11)
H19 H 0.6010 0.9073 0.2191
C24 C 0.59088(16) 0.81574(18) 0.19397(12)
C25 C 0.55669(18) 0.77969(14) 0.16686(12)
C26 C 0.6466(3) 0.7826(3) 0.2158(2)
C27 C 0.6251(4) 0.7225(4) 0.2394(2)
H20 H 0.6587 0.7021 0.2528
H21 H 0.6066 0.6901 0.2223
H22 H 0.5964 0.7374 0.2582
C28 C 0.6931(4) 0.7606(4) 0.1863(3)
H23 H 0.7267 0.7404 0.1998
H24 H 0.7065 0.7991 0.1719
H25 H 0.6755 0.7283 0.1686
C29 C 0.6786(5) 0.8322(4) 0.2443(3)
H26 H 0.7119 0.8098 0.2568
H27 H 0.6508 0.8469 0.2636
H28 H 0.6928 0.8704 0.2300
C30 C 0.5182(3) 0.9872(3) 0.1885(2)
C31 C 0.3783(3) 0.1938(3) 0.14709(18)
C32 C 0.33405(18) 0.2123(2) 0.11617(10)
C33 C 0.32373(18) 0.16949(16) 0.08467(12)
H29 H 0.3436 0.1284 0.0834
C34 C 0.2837(2) 0.18815(19) 0.05509(10)
C35 C 0.2539(2) 0.2496(2) 0.05702(11)
C36 C 0.2642(2) 0.29238(19) 0.08852(13)
C37 C 0.3043(2) 0.2737(2) 0.11810(11)
H30 H 0.3112 0.3023 0.1392
C38 C 0.2354(9) 0.3672(7) 0.0891(4)
C39 C 0.1681(8) 0.3619(10) 0.0862(5)
H31 H 0.1535 0.3374 0.1083
H32 H 0.1570 0.3387 0.0626
H33 H 0.1510 0.4063 0.0859
C40 C 0.2678(7) 0.4093(5) 0.0516(4)
H34 H 0.2556 0.3892 0.0273
H35 H 0.3107 0.4068 0.0544
H36 H 0.2555 0.4556 0.0520
C41 C 0.2566(9) 0.4033(7) 0.1279(4)
H37 H 0.2388 0.3814 0.1498
H38 H 0.2443 0.4497 0.1272
H39 H 0.2995 0.4009 0.1303
C42 C 0.2740(3) 0.1385(3) 0.0255(2)
H40 H 0.2974 0.0998 0.0274
C43 C 0.2298(2) 0.0881(2) -0.03075(12)
C44 C 0.2408(2) 0.0207(2) -0.02243(13)
H41 H 0.2563 0.0083 0.0019
C45 C 0.2288(3) -0.02830(18) -0.05047(17)
H42 H 0.2362 -0.0734 -0.0449
C46 C 0.2057(3) -0.0098(2) -0.08683(15)
H43 H 0.1977 -0.0426 -0.1056
C47 C 0.1947(3) 0.0577(3) -0.09515(11)
H44 H 0.1793 0.0700 -0.1195
C48 C 0.2067(2) 0.10663(18) -0.06711(13)
C49 C 0.1850(3) 0.2036(3) -0.1060(2)
H45 H 0.1916 0.1769 -0.1277
C50 C 0.1672(2) 0.27294(16) -0.11262(11)
C51 C 0.15086(19) 0.28602(17) -0.15118(10)
H46 H 0.1568 0.2535 -0.1702
C52 C 0.12557(18) 0.34776(19) -0.16127(8)
C53 C 0.11662(17) 0.39643(15) -0.13280(11)
H47 H 0.0997 0.4377 -0.1396
C54 C 0.13295(19) 0.38335(18) -0.09424(10)
C55 C 0.1582(2) 0.3216(2) -0.08415(8)
C56 C 0.1260(3) 0.4392(3) -0.06267(19)
C57 C 0.0861(4) 0.4169(4) -0.0298(2)
H48 H 0.1024 0.3769 -0.0179
H49 H 0.0465 0.4077 -0.0399
H50 H 0.0840 0.4521 -0.0106
C58 C 0.1870(3) 0.4596(4) -0.0460(2)
H51 H 0.2065 0.4208 -0.0348
H52 H 0.1819 0.4932 -0.0262
H53 H 0.2112 0.4775 -0.0665
C59 C 0.0974(3) 0.5044(3) -0.0805(2)
H54 H 0.0937 0.5379 -0.0605
H55 H 0.0583 0.4940 -0.0912
H56 H 0.1224 0.5213 -0.1008
C60 C 0.1027(3) 0.3581(3) -0.20290(17)
C61 C 0.4099(3) 0.1944(3) 0.29896(18)
C62 C 0.37801(15) 0.20521(16) 0.33714(6)
C63 C 0.33879(14) 0.25881(14) 0.34231(7)
H57 H 0.3294 0.2872 0.3215
C64 C 0.31361(12) 0.26995(12) 0.37856(7)
C65 C 0.32764(11) 0.22749(11) 0.40963(6)
C66 C 0.36686(9) 0.17388(10) 0.40446(6)
C67 C 0.39205(12) 0.16274(13) 0.36822(7)
H58 H 0.4183 0.1269 0.3648
C68 C 0.37863(13) 0.12017(13) 0.43772(7)
C69 C 0.41537(17) 0.05905(14) 0.42429(10)
H59 H 0.4539 0.0739 0.4157
H60 H 0.3945 0.0369 0.4032
H61 H 0.4206 0.0282 0.4456
C70 C 0.31585(16) 0.09023(17) 0.45135(11)
H62 H 0.2952 0.0703 0.4294
H63 H 0.2918 0.1258 0.4618
H64 H 0.3228 0.0566 0.4710
C71 C 0.41608(18) 0.1543(2) 0.47225(8)
H65 H 0.4532 0.1713 0.4624
H66 H 0.4243 0.1215 0.4922
H67 H 0.3933 0.1907 0.4830
C72 C 0.26915(16) 0.32439(16) 0.37824(10)
H68 H 0.2593 0.3448 0.3546
C73 C 0.19757(15) 0.39643(18) 0.40806(11)
C74 C 0.18258(17) 0.4336(2) 0.37495(9)
H69 H 0.2023 0.4256 0.3517
C75 C 0.13820(18) 0.4827(2) 0.37659(10)
H70 H 0.1282 0.5075 0.3544
C76 C 0.10881(16) 0.49459(18) 0.41135(12)
H71 H 0.0791 0.5274 0.4124
C77 C 0.12379(16) 0.4574(2) 0.44446(10)
H72 H 0.1041 0.4654 0.4677
C78 C 0.16817(16) 0.40835(18) 0.44282(9)
C79 C 0.1561(3) 0.3629(3) 0.50628(17)
H73 H 0.1181 0.3825 0.5056
C80 C 0.17315(15) 0.32833(18) 0.54193(8)
C81 C 0.13312(12) 0.33691(18) 0.57218(11)
H74 H 0.0972 0.3598 0.5678
C82 C 0.14677(15) 0.3113(2) 0.60901(9)
C83 C 0.20044(17) 0.2772(2) 0.61560(8)
H75 H 0.2096 0.2601 0.6402
C84 C 0.24048(13) 0.26861(19) 0.58535(11)
C85 C 0.22683(14) 0.29417(19) 0.54852(9)
C86 C 0.3017(3) 0.2320(4) 0.5942(2)
C87 C 0.3039(6) 0.1679(5) 0.5680(3)
H76 H 0.3411 0.1446 0.5726
H77 H 0.3009 0.1808 0.5410
H78 H 0.2710 0.1387 0.5742
C88 C 0.3542(4) 0.2780(6) 0.5834(3)
H79 H 0.3537 0.3177 0.5994
H80 H 0.3504 0.2908 0.5565
H81 H 0.3913 0.2544 0.5876
C89 C 0.3086(5) 0.2105(6) 0.6372(3)
H82 H 0.3075 0.2497 0.6536
H83 H 0.3462 0.1877 0.6409
H84 H 0.2764 0.1807 0.6438
C90 C 0.1041(3) 0.3223(3) 0.64253(19)
C91 C 0.6235(5) 0.5704(5) 0.0355(4)
H85 H 0.6091 0.5429 0.0564
H86 H 0.6589 0.5504 0.0250
H87 H 0.5931 0.5737 0.0155
C92 C 0.6675(10) 0.6963(11) 0.0151(5)
H88 H 0.6764 0.7411 0.0241
H89 H 0.6380 0.6983 -0.0056
H90 H 0.7034 0.6757 0.0056
C93 C 0.0369(10) 0.2531(10) 0.0526(7)
H91 H 0.0647 0.2866 0.0620
H92 H 0.0138 0.2365 0.0740
H93 H 0.0105 0.2728 0.0334
C94 C 0.0017(7) 0.1663(12) 0.0221(7)
H94 H -0.0003 0.1216 0.0115
H95 H -0.0151 0.1977 0.0036
H96 H -0.0208 0.1681 0.0457
C95 C 0.4670(4) 0.3989(12) 0.4697(6)
H97 H 0.4719 0.3614 0.4523
H98 H 0.4957 0.3957 0.4907
H99 H 0.4731 0.4402 0.4557
C96 C 0.4180(7) 0.4671(10) 0.5169(6)
H100 H 0.3846 0.4856 0.5307
H101 H 0.4344 0.5009 0.5001
H102 H 0.4482 0.4525 0.5353
C97 C 0.2914(6) 0.0763(10) 0.2073(5)
H103 H 0.3006 0.0756 0.1801
H104 H 0.2871 0.1221 0.2158
H105 H 0.2546 0.0523 0.2114
C98 C 0.3224(6) 0.0456(11) 0.2806(3)
H106 H 0.3514 0.0264 0.2984
H107 H 0.2851 0.0218 0.2827
H108 H 0.3165 0.0922 0.2868
C99 C 0.5626(4) -0.0669(6) 0.3098(4)
C100 C 0.4645(8) -0.0923(6) 0.3416(4)
O1 O 0.5645(2) 0.3018(2) 0.22610(14)
O2 O 0.4704(2) 0.3172(2) 0.20706(14)
O3 O 0.59543(17) 0.5736(2) 0.13514(14)
O4 O 0.5712(2) 0.7157(2) 0.16079(15)
O5 O 0.49133(19) 1.02044(19) 0.16182(13)
O6 O 0.53451(19) 1.0125(2) 0.22065(13)
O7 O 0.37743(19) 0.2245(2) 0.17923(12)
O8 O 0.41741(18) 0.1483(2) 0.13888(12)
O9 O 0.2158(2) 0.2701(3) 0.02888(13)
O10 O 0.1728(2) 0.3102(2) -0.04733(13)
O11 O 0.11821(18) 0.3143(2) -0.22826(12)
O12 O 0.06976(18) 0.4068(2) -0.20979(11)
O13 O 0.39632(19) 0.2339(2) 0.27099(12)
O14 O 0.4484(2) 0.1491(2) 0.29796(12)
O15 O 0.3091(2) 0.2403(2) 0.44534(12)
O16 O 0.26502(19) 0.2854(2) 0.52005(12)
O17 O 0.05391(19) 0.3474(2) 0.63457(12)
O18 O 0.12241(18) 0.3061(3) 0.67618(12)
O19 O 0.5845(2) 0.6786(3) 0.0686(2)
O20 O 0.1017(3) 0.1986(4) -0.0058(2)
O21 O 0.3334(3) 0.3898(3) 0.47080(18)
O22 O 0.4053(2) 0.0732(3) 0.22678(17)
O23 O 0.4653(2) 0.0049(3) 0.29287(17)
O24 O 0.49924(14) 0.15955(16) 0.21795(9)
N1 N 0.4717(2) 0.7161(2) 0.10814(15)
N2 N 0.4780(2) 0.5850(2) 0.10750(16)
N3 N 0.2426(2) 0.3457(2) 0.40969(14)
N4 N 0.18780(19) 0.3695(2) 0.47540(14)
N5 N 0.1923(2) 0.1762(3) -0.07219(16)
N6 N 0.2369(2) 0.1410(3) -0.00339(15)
S1 S 0.6403(2) 0.6494(2) 0.05297(14)
S2 S 0.0760(4) 0.1874(5) 0.0321(3)
S3 S 0.3934(4) 0.3977(5) 0.4886(3)
S4 S 0.34821(18) 0.0387(2) 0.23336(12)
S5 S 0.4896(4) -0.0638(4) 0.2954(2)
Zn3C Zn 0.07607(3) 0.29700(3) -0.276321(18)
Zn3C_2 Zn 0.07607(3) 0.29700(3) 0.723679(18)
Zn5_2 Zn 0.49134(3) 1.08559(3) 0.257548(19)
Zn5C Zn -0.00866(3) 0.41441(3) -0.242452(19)
Zn6_2 Zn 0.48841(3) 1.11767(3) 0.167637(18)
Zn6C Zn -0.01159(3) 0.38233(3) 0.667637(18)
O5_2 O 0.49133(19) 0.02044(19) 0.16182(13)
O6_2 O 0.53451(19) 0.0125(2) 0.22065(13)
O11C O 0.61821(18) 0.1857(2) 0.27174(12)
O12C O 0.56976(18) 0.0932(2) 0.29021(11)
O17C O 0.55391(19) 0.1526(2) 0.13457(12)
O18C O 0.62241(18) 0.1939(3) 0.17618(12)
loop_
_geom_bond_atom_site_label_1
_geom_bond_atom_site_label_2
_geom_bond_site_symmetry_1
_geom_bond_site_symmetry_2
Zn1 O3 1_555 1_555
Zn2 O15 1_555 1_555
Zn3 O1 1_555 1_555
Zn4 O2 1_555 1_555
Zn5 O14 1_555 1_555
Zn6 O8 1_555 1_555
Zn7 O9 1_555 1_555
C1 C2 1_555 1_555
C2 C3 1_555 1_555
C3 H1 1_555 1_555
C4 C3 1_555 1_555
C5 C4 1_555 1_555
C6 C5 1_555 1_555
C7 C2 1_555 1_555
H2 C7 1_555 1_555
C8 C6 1_555 1_555
C9 C8 1_555 1_555
H3 C9 1_555 1_555
H4 C9 1_555 1_555
H5 C9 1_555 1_555
C10 C8 1_555 1_555
H6 C10 1_555 1_555
H7 C10 1_555 1_555
H8 C10 1_555 1_555
C11 C8 1_555 1_555
H9 C11 1_555 1_555
H10 C11 1_555 1_555
H11 C11 1_555 1_555
C12 C4 1_555 1_555
H12 C12 1_555 1_555
C13 C14 1_555 1_555
C14 H13 1_555 1_555
C15 C14 1_555 1_555
H14 C15 1_555 1_555
C16 C15 1_555 1_555
H15 C16 1_555 1_555
C17 C16 1_555 1_555
H16 C17 1_555 1_555
C18 C13 1_555 1_555
C19 H17 1_555 1_555
C20 C19 1_555 1_555
C21 C20 1_555 1_555
H18 C21 1_555 1_555
C22 C21 1_555 1_555
C23 C22 1_555 1_555
H19 C23 1_555 1_555
C24 C23 1_555 1_555
C25 C20 1_555 1_555
C26 C24 1_555 1_555
C27 C26 1_555 1_555
H20 C27 1_555 1_555
H21 C27 1_555 1_555
H22 C27 1_555 1_555
C28 C26 1_555 1_555
H23 C28 1_555 1_555
H24 C28 1_555 1_555
H25 C28 1_555 1_555
C29 C26 1_555 1_555
H26 C29 1_555 1_555
H27 C29 1_555 1_555
H28 C29 1_555 1_555
C30 C22 1_555 1_555
C31 C32 1_555 1_555
C32 C33 1_555 1_555
C33 H29 1_555 1_555
C34 C33 1_555 1_555
C35 C34 1_555 1_555
C36 C35 1_555 1_555
C37 C32 1_555 1_555
H30 C37 1_555 1_555
C38 C36 1_555 1_555
C39 C38 1_555 1_555
H31 C39 1_555 1_555
H32 C39 1_555 1_555
H33 C39 1_555 1_555
C40 C38 1_555 1_555
H34 C40 1_555 1_555
H35 C40 1_555 1_555
H36 C40 1_555 1_555
C41 C38 1_555 1_555
H37 C41 1_555 1_555
H38 C41 1_555 1_555
H39 C41 1_555 1_555
C42 C34 1_555 1_555
H40 C42 1_555 1_555
C43 C44 1_555 1_555
C44 H41 1_555 1_555
C45 C44 1_555 1_555
H42 C45 1_555 1_555
C46 C45 1_555 1_555
H43 C46 1_555 1_555
C47 C46 1_555 1_555
H44 C47 1_555 1_555
C48 C43 1_555 1_555
C49 H45 1_555 1_555
C50 C49 1_555 1_555
C51 C50 1_555 1_555
H46 C51 1_555 1_555
C52 C51 1_555 1_555
C53 C52 1_555 1_555
H47 C53 1_555 1_555
C54 C53 1_555 1_555
C55 C50 1_555 1_555
C56 C54 1_555 1_555
C57 C56 1_555 1_555
H48 C57 1_555 1_555
H49 C57 1_555 1_555
H50 C57 1_555 1_555
C58 C56 1_555 1_555
H51 C58 1_555 1_555
H52 C58 1_555 1_555
H53 C58 1_555 1_555
C59 C56 1_555 1_555
H54 C59 1_555 1_555
H55 C59 1_555 1_555
H56 C59 1_555 1_555
C60 C52 1_555 1_555
C61 C62 1_555 1_555
C62 C63 1_555 1_555
C63 H57 1_555 1_555
C64 C63 1_555 1_555
C65 C64 1_555 1_555
C66 C65 1_555 1_555
C67 C62 1_555 1_555
H58 C67 1_555 1_555
C68 C66 1_555 1_555
C69 C68 1_555 1_555
H59 C69 1_555 1_555
H60 C69 1_555 1_555
H61 C69 1_555 1_555
C70 C68 1_555 1_555
H62 C70 1_555 1_555
H63 C70 1_555 1_555
H64 C70 1_555 1_555
C71 C68 1_555 1_555
H65 C71 1_555 1_555
H66 C71 1_555 1_555
H67 C71 1_555 1_555
C72 C64 1_555 1_555
H68 C72 1_555 1_555
C73 C74 1_555 1_555
C74 H69 1_555 1_555
C75 C74 1_555 1_555
H70 C75 1_555 1_555
C76 C75 1_555 1_555
H71 C76 1_555 1_555
C77 C76 1_555 1_555
H72 C77 1_555 1_555
C78 C73 1_555 1_555
C79 H73 1_555 1_555
C80 C79 1_555 1_555
C81 C80 1_555 1_555
H74 C81 1_555 1_555
C82 C81 1_555 1_555
C83 C82 1_555 1_555
H75 C83 1_555 1_555
C84 C83 1_555 1_555
C85 C80 1_555 1_555
C86 C84 1_555 1_555
C87 C86 1_555 1_555
H76 C87 1_555 1_555
H77 C87 1_555 1_555
H78 C87 1_555 1_555
C88 C86 1_555 1_555
H79 C88 1_555 1_555
H80 C88 1_555 1_555
H81 C88 1_555 1_555
C89 C86 1_555 1_555
H82 C89 1_555 1_555
H83 C89 1_555 1_555
H84 C89 1_555 1_555
C90 C82 1_555 1_555
C91 H85 1_555 1_555
H86 C91 1_555 1_555
H87 C91 1_555 1_555
C92 H88 1_555 1_555
H89 C92 1_555 1_555
H90 C92 1_555 1_555
C93 H91 1_555 1_555
H92 C93 1_555 1_555
H93 C93 1_555 1_555
C94 H94 1_555 1_555
H95 C94 1_555 1_555
H96 C94 1_555 1_555
C95 H97 1_555 1_555
H98 C95 1_555 1_555
H99 C95 1_555 1_555
C96 H100 1_555 1_555
H101 C96 1_555 1_555
H102 C96 1_555 1_555
C97 H103 1_555 1_555
H104 C97 1_555 1_555
H105 C97 1_555 1_555
C98 H106 1_555 1_555
H107 C98 1_555 1_555
H108 C98 1_555 1_555
C99 S5 1_555 1_555
C100 S5 1_555 1_555
O1 C1 1_555 1_555
O2 C1 1_555 1_555
O3 C5 1_555 1_555
O4 Zn1 1_555 1_555
O5 C30 1_555 1_555
O6 C30 1_555 1_555
O7 Zn4 1_555 1_555
O8 C31 1_555 1_555
O9 C35 1_555 1_555
O10 Zn7 1_555 1_555
O11 C60 1_555 1_555
O12 C60 1_555 1_555
O13 Zn4 1_555 1_555
O14 C61 1_555 1_555
O15 C65 1_555 1_555
O16 Zn2 1_555 1_555
O17 C90 1_555 1_555
O18 C90 1_555 1_555
O19 Zn1 1_555 1_555
O20 Zn7 1_555 1_555
O21 Zn2 1_555 1_555
O22 Zn5 1_555 1_555
O23 Zn5 1_555 1_555
O24 Zn3 1_555 1_555
N1 Zn1 1_555 1_555
N2 Zn1 1_555 1_555
N3 Zn2 1_555 1_555
N4 Zn2 1_555 1_555
N5 Zn7 1_555 1_555
N6 Zn7 1_555 1_555
S1 C91 1_555 1_555
S2 C93 1_555 1_555
S3 C95 1_555 1_555
S4 C97 1_555 1_555
S5 O23 1_555 1_555
Zn3C O11 1_555 1_555
Zn3C_2 O18 1_555 1_555
Zn5_2 O6 1_555 1_555
Zn5C O12 1_555 1_555
Zn6_2 O5 1_555 1_555
Zn6C O17 1_555 1_555
O5_2 Zn6 1_555 1_555
O6_2 Zn5 1_555 1_555
O11C Zn3 1_555 1_555
O12C Zn5 1_555 1_555
O17C Zn6 1_555 1_555
O18C Zn3 1_555 1_555
Zn4 O24 1_555 1_555
Zn5 O24 1_555 1_555
Zn6 O24 1_555 1_555
C6 C7 1_555 1_555
C12 N2 1_555 1_555
C13 N2 1_555 1_555
C17 C18 1_555 1_555
C18 N1 1_555 1_555
C19 N1 1_555 1_555
C24 C25 1_555 1_555
C25 O4 1_555 1_555
C31 O7 1_555 1_555
C36 C37 1_555 1_555
C42 N6 1_555 1_555
C43 N6 1_555 1_555
C47 C48 1_555 1_555
C48 N5 1_555 1_555
C49 N5 1_555 1_555
C54 C55 1_555 1_555
C55 O10 1_555 1_555
C61 O13 1_555 1_555
C66 C67 1_555 1_555
C72 N3 1_555 1_555
C73 N3 1_555 1_555
C77 C78 1_555 1_555
C78 N4 1_555 1_555
C79 N4 1_555 1_555
C84 C85 1_555 1_555
C85 O16 1_555 1_555
C92 S1 1_555 1_555
C94 S2 1_555 1_555
C96 S3 1_555 1_555
C98 S4 1_555 1_555
O19 S1 1_555 1_555
O20 S2 1_555 1_555
O21 S3 1_555 1_555
O22 S4 1_555 1_555

#END
