
#######################################################################
#
#                 Cambridge Crystallographic Data Centre
#                                CCDC 
#
#######################################################################
#
# If this CIF has been generated from an entry in the Cambridge 
# Structural Database, then it will include bibliographic, chemical, 
# crystal, experimental, refinement or atomic coordinate data resulting 
# from the CCDC's data processing and validation procedures.
#
#######################################################################

data_HISJIE
_chemical_formula_moiety         '(C54 H46 Co5 O28)n'
_symmetry_cell_setting           orthorhombic
_symmetry_space_group_name_H-M   'P n a 21'
_symmetry_Int_Tables_number      33
_space_group_name_Hall           'P 2c -2n'
loop_
_symmetry_equiv_pos_site_id
_symmetry_equiv_pos_as_xyz
1 x,y,z
2 -x,-y,1/2+z
3 1/2+x,1/2-y,z
4 1/2-x,1/2+y,1/2+z
_cell_length_a                   14.3747(15)
_cell_length_b                   23.957(3)
_cell_length_c                   18.633(2)
_cell_angle_alpha                90
_cell_angle_beta                 90
_cell_angle_gamma                90
_cell_volume                     6416.73
loop_
_atom_site_label
_atom_site_type_symbol
_atom_site_fract_x
_atom_site_fract_y
_atom_site_fract_z
Co1 Co 0.81533(3) 0.428873(19) 0.17536(3)
Co2 Co 0.61975(3) 0.499111(18) 0.23587(3)
Co3 Co 0.42317(3) 0.568361(19) 0.29905(2)
Co4 Co 0.94303(4) 0.59399(2) 0.28922(3)
Co5 Co 0.30086(4) 0.406841(19) 0.18236(3)
O1 O 0.27939(19) 0.50398(10) 0.65007(14)
O2 O 0.2312(2) 0.55689(11) 0.56281(16)
O3 O 0.63910(19) 0.58489(10) 0.23515(17)
O4 O 0.52418(19) 0.63055(10) 0.29258(17)
O5 O 0.7127(2) 0.36844(11) 0.17867(18)
O6 O 0.59951(19) 0.41270(10) 0.23830(17)
O7 O 0.52156(19) 0.50158(10) 0.32338(14)
O8 O 0.46962(19) 0.55561(11) 0.40915(14)
O9 O 0.2522(2) 0.47579(12) 0.13715(15)
O10 O 0.2615(3) 0.41884(13) 0.04445(19)
O11 O 0.7396(2) 0.16772(11) 0.18309(18)
H1 H 0.7654 0.2008 0.1662
O12 O 0.6258(3) 0.11582(13) 0.2237(3)
O13 O 0.31453(19) 0.50512(11) 0.30737(15)
O14 O 0.3237(2) 0.41408(12) 0.28684(18)
O15 O 0.5885(2) 0.42624(12) 0.69127(15)
O16 O 0.49026(19) 0.49469(11) 0.66257(15)
O17 O 1.0083(2) 0.47258(12) -0.16065(16)
O18 O 1.0112(3) 0.41538(13) -0.0685(2)
O19 O 0.1736(2) 0.57701(12) -0.21686(16)
O20 O 0.2673(2) 0.50561(11) -0.19467(16)
O21 O 0.92477(19) 0.49039(11) 0.17544(16)
O22 O 0.9251(2) 0.58257(13) 0.18505(19)
O23 O 0.6253(3) 0.88252(12) 0.2469(3)
O24 O 0.9127(3) 0.36861(16) 0.1468(2)
O25 O 0.3194(3) 0.62699(14) 0.3227(2)
O26 O 0.8140(2) 0.60714(18) 0.3293(3)
O27 O 0.5061(2) 0.83256(11) 0.28633(18)
H2 H 0.4803 0.7995 0.3033
O28 O 0.4303(2) 0.39251(15) 0.1404(2)
C1 C 0.2720(2) 0.51350(15) 0.5828(2)
C2 C 0.3056(2) 0.47246(14) 0.53003(18)
C3 C 0.3010(2) 0.48372(15) 0.45658(19)
H3 H 0.2808 0.5185 0.4408
C4 C 0.3266(2) 0.44317(14) 0.40692(19)
C5 C 0.3546(3) 0.39059(15) 0.4316(2)
H4 H 0.3709 0.3633 0.3985
C6 C 0.3585(3) 0.37825(15) 0.5041(2)
C7 C 0.3351(3) 0.41916(15) 0.5528(2)
H5 H 0.3389 0.4115 0.6017
C8 C 0.3888(3) 0.31997(17) 0.5290(3)
H6 H 0.3875 0.3183 0.5805
H7 H 0.4508 0.3126 0.5124
H8 H 0.3471 0.2925 0.5098
C9 C 0.5993(3) 0.62834(14) 0.25732(19)
C10 C 0.6430(3) 0.68345(13) 0.2376(2)
C11 C 0.7281(3) 0.68599(14) 0.2046(2)
H9 H 0.7592 0.6530 0.1936
C12 C 0.7694(3) 0.73750(15) 0.1871(3)
C13 C 0.7216(3) 0.78610(15) 0.2046(2)
H10 H 0.7476 0.8206 0.1934
C14 C 0.6358(3) 0.78387(14) 0.2384(2)
C15 C 0.5965(3) 0.73267(14) 0.2561(2)
H11 H 0.5397 0.7312 0.2799
C16 C 0.5874(3) 0.83656(17) 0.2578(2)
C17 C 0.8644(3) 0.73917(19) 0.1513(3)
H12 H 0.8823 0.7773 0.1434
H13 H 0.8615 0.7200 0.1061
H14 H 0.9094 0.7213 0.1817
C18 C 0.6398(3) 0.36969(14) 0.2168(2)
C19 C 0.5973(2) 0.31409(13) 0.2343(2)
C20 C 0.5104(3) 0.30954(15) 0.2694(2)
H15 H 0.4787 0.3417 0.2831
C21 C 0.4720(3) 0.25778(17) 0.2836(2)
C22 C 0.5202(3) 0.21061(16) 0.2654(2)
H16 H 0.4949 0.1758 0.2758
C23 C 0.6442(3) 0.26619(14) 0.2161(2)
H17 H 0.7016 0.2687 0.1932
C24 C 0.3779(3) 0.2520(2) 0.3179(3)
H18 H 0.3633 0.2132 0.3238
H19 H 0.3319 0.2693 0.2878
H20 H 0.3783 0.2700 0.3640
C25 C 0.5135(2) 0.51274(14) 0.38984(18)
C26 C 0.5479(2) 0.47240(14) 0.44493(19)
C27 C 0.5842(3) 0.42093(16) 0.4232(2)
H21 H 0.5907 0.4130 0.3746
C28 C 0.6108(3) 0.38128(15) 0.4744(2)
C29 C 0.6021(3) 0.39443(15) 0.5464(2)
H22 H 0.6219 0.3688 0.5807
C30 C 0.5643(2) 0.44551(16) 0.5687(2)
C31 C 0.5366(2) 0.48452(15) 0.51718(19)
H23 H 0.5108 0.5184 0.5313
C32 C 0.6449(3) 0.32457(16) 0.4506(2)
H24 H 0.6460 0.3231 0.3991
H25 H 0.6038 0.2962 0.4686
H26 H 0.7065 0.3184 0.4689
C33 C 0.5470(3) 0.45690(15) 0.6468(2)
C34 C 0.6580(3) 0.16210(16) 0.2112(2)
C35 C 0.6066(3) 0.21379(15) 0.2315(2)
C36 C 0.3217(2) 0.45590(15) 0.3276(2)
C37 C 0.2436(3) 0.46566(17) 0.0700(2)
C38 C 0.2117(3) 0.51263(16) 0.0229(2)
C39 C 0.1764(3) 0.56229(15) 0.0512(2)
H27 H 0.1724 0.5668 0.1006
C40 C 0.1473(3) 0.60491(16) 0.0060(2)
C41 C 0.1538(3) 0.59710(15) -0.0682(2)
H28 H 0.1310 0.6244 -0.0990
C42 C 0.1935(2) 0.54951(16) -0.0964(2)
C43 C 0.2213(3) 0.50612(15) -0.0508(2)
H29 H 0.2459 0.4734 -0.0697
C44 C 0.1127(3) 0.65908(18) 0.0377(3)
H30 H 0.1135 0.6566 0.0891
H31 H 0.0503 0.6660 0.0216
H32 H 0.1523 0.6891 0.0225
C45 C 0.9959(3) 0.46214(17) -0.0943(2)
C46 C 0.9607(3) 0.50823(16) -0.0475(2)
C47 C 0.9540(3) 0.50194(16) 0.0254(2)
H33 H 0.9690 0.4678 0.0461
C48 C 0.9254(2) 0.54535(15) 0.0689(2)
C49 C 0.8993(3) 0.59577(15) 0.0377(2)
H34 H 0.8783 0.6248 0.0666
C50 C 0.9042(3) 0.60344(16) -0.0365(2)
C51 C 0.9361(3) 0.55998(17) -0.0786(2)
H35 H 0.9415 0.5648 -0.1279
C52 C 0.8756(3) 0.65918(19) -0.0702(3)
H36 H 0.8833 0.6573 -0.1213
H37 H 0.9139 0.6885 -0.0512
H38 H 0.8116 0.6667 -0.0592
C53 C 0.2117(3) 0.54343(15) -0.1754(2)
C54 C 0.9229(3) 0.53852(16) 0.1480(2)
Co1A Co 0.18467(3) 0.571127(19) -0.32464(3)
Co1A_2 Co 0.18467(3) 0.571127(19) 0.67536(3)
Co2A Co 0.38025(3) 0.500889(18) -0.26413(3)
Co2A_2 Co 0.38025(3) 0.500889(18) 0.73587(3)
Co3A Co 0.57683(3) 0.431639(19) 0.79905(2)
Co4A Co 1.05697(4) 0.40601(2) -0.21078(3)
Co4B Co 0.44303(4) 0.90601(2) 0.28922(3)
Co5B Co 0.80086(4) 0.093159(19) 0.18236(3)
O1A O 0.72061(19) 0.49602(10) 0.15007(14)
O2A O 0.7688(2) 0.44311(11) 0.06281(16)
O11B O 0.2396(2) 0.33228(11) 0.18309(18)
O15A O 0.4115(2) 0.57376(12) 0.19127(15)
O16A O 0.50974(19) 0.50531(11) 0.16257(15)
O17A O 0.9917(2) 0.52742(12) 0.33935(16)
O19A O 0.8264(2) 0.42299(12) 0.28314(16)
O20A O 0.7327(2) 0.49439(11) 0.30533(16)
O27B O 1.0061(2) 0.66744(11) 0.28633(18)
loop_
_geom_bond_atom_site_label_1
_geom_bond_atom_site_label_2
_geom_bond_site_symmetry_1
_geom_bond_site_symmetry_2
Co1 O5 1_555 1_555
Co2 O3 1_555 1_555
Co3 O4 1_555 1_555
Co4 O22 1_555 1_555
Co5 O9 1_555 1_555
O1 C1 1_555 1_555
O2 C1 1_555 1_555
O3 C9 1_555 1_555
O4 C9 1_555 1_555
O5 C18 1_555 1_555
O6 Co2 1_555 1_555
O7 Co2 1_555 1_555
O8 Co3 1_555 1_555
O9 C37 1_555 1_555
O10 C37 1_555 1_555
O11 H1 1_555 1_555
O12 C34 1_555 1_555
O13 Co3 1_555 1_555
O14 Co5 1_555 1_555
O15 C33 1_555 1_555
O16 C33 1_555 1_555
O17 C45 1_555 1_555
O18 C45 1_555 1_555
O19 C53 1_555 1_555
O20 C53 1_555 1_555
O21 Co1 1_555 1_555
O22 C54 1_555 1_555
O23 C16 1_555 1_555
O24 Co1 1_555 1_555
O25 Co3 1_555 1_555
O26 Co4 1_555 1_555
O27 H2 1_555 1_555
O28 Co5 1_555 1_555
C1 C2 1_555 1_555
C2 C3 1_555 1_555
C3 H3 1_555 1_555
C4 C3 1_555 1_555
C5 C4 1_555 1_555
H4 C5 1_555 1_555
C6 C5 1_555 1_555
C7 C2 1_555 1_555
H5 C7 1_555 1_555
C8 C6 1_555 1_555
H6 C8 1_555 1_555
H7 C8 1_555 1_555
H8 C8 1_555 1_555
C9 C10 1_555 1_555
C10 C11 1_555 1_555
C11 H9 1_555 1_555
C12 C11 1_555 1_555
C13 C12 1_555 1_555
H10 C13 1_555 1_555
C14 C13 1_555 1_555
C15 C10 1_555 1_555
H11 C15 1_555 1_555
C16 O27 1_555 1_555
C17 C12 1_555 1_555
H12 C17 1_555 1_555
H13 C17 1_555 1_555
H14 C17 1_555 1_555
C18 O6 1_555 1_555
C19 C18 1_555 1_555
C20 C19 1_555 1_555
H15 C20 1_555 1_555
C21 C20 1_555 1_555
C22 C21 1_555 1_555
H16 C22 1_555 1_555
C23 C19 1_555 1_555
H17 C23 1_555 1_555
C24 C21 1_555 1_555
H18 C24 1_555 1_555
H19 C24 1_555 1_555
H20 C24 1_555 1_555
C25 O7 1_555 1_555
C26 C25 1_555 1_555
C27 C26 1_555 1_555
H21 C27 1_555 1_555
C28 C27 1_555 1_555
C29 C28 1_555 1_555
H22 C29 1_555 1_555
C30 C29 1_555 1_555
C31 C26 1_555 1_555
H23 C31 1_555 1_555
C32 C28 1_555 1_555
H24 C32 1_555 1_555
H25 C32 1_555 1_555
H26 C32 1_555 1_555
C33 C30 1_555 1_555
C34 O11 1_555 1_555
C35 C22 1_555 1_555
C36 O13 1_555 1_555
C37 C38 1_555 1_555
C38 C39 1_555 1_555
C39 H27 1_555 1_555
C40 C39 1_555 1_555
C41 C40 1_555 1_555
H28 C41 1_555 1_555
C42 C41 1_555 1_555
C43 C38 1_555 1_555
H29 C43 1_555 1_555
C44 C40 1_555 1_555
H30 C44 1_555 1_555
H31 C44 1_555 1_555
H32 C44 1_555 1_555
C45 C46 1_555 1_555
C46 C47 1_555 1_555
C47 H33 1_555 1_555
C48 C47 1_555 1_555
C49 C48 1_555 1_555
H34 C49 1_555 1_555
C50 C49 1_555 1_555
C51 C46 1_555 1_555
H35 C51 1_555 1_555
C52 C50 1_555 1_555
H36 C52 1_555 1_555
H37 C52 1_555 1_555
H38 C52 1_555 1_555
C53 C42 1_555 1_555
C54 O21 1_555 1_555
Co1A O19 1_555 1_555
Co1A_2 O1 1_555 1_555
Co2A O20 1_555 1_555
Co2A_2 O1 1_555 1_555
Co3A O15 1_555 1_555
Co4A O17 1_555 1_555
Co4B O27 1_555 1_555
Co5B O11 1_555 1_555
O1A Co1 1_555 1_555
O2A Co1 1_555 1_555
O11B Co5 1_555 1_555
O15A Co3 1_555 1_555
O16A Co2 1_555 1_555
O17A Co4 1_555 1_555
O19A Co1 1_555 1_555
O20A Co2 1_555 1_555
O27B Co4 1_555 1_555
Co2 O1A 1_555 1_555
Co3 O7 1_555 1_555
O2 Co1A_2 1_555 1_555
O8 C25 1_555 1_555
O14 C36 1_555 1_555
O16 Co2A_2 1_555 1_555
C4 C36 1_555 1_555
C6 C7 1_555 1_555
C14 C15 1_555 1_555
C14 C16 1_555 1_555
C23 C35 1_555 1_555
C30 C31 1_555 1_555
C34 C35 1_555 1_555
C42 C43 1_555 1_555
C48 C54 1_555 1_555
C50 C51 1_555 1_555

#END
