
#######################################################################
#
#                 Cambridge Crystallographic Data Centre
#                                CCDC 
#
#######################################################################
#
# If this CIF has been generated from an entry in the Cambridge 
# Structural Database, then it will include bibliographic, chemical, 
# crystal, experimental, refinement or atomic coordinate data resulting 
# from the CCDC's data processing and validation procedures.
#
#######################################################################

data_ATOGEV
_chemical_formula_moiety         '(C4 H24 N4 Ni1 O14 P4 Zn3)n'
_symmetry_cell_setting           monoclinic
_symmetry_space_group_name_H-M   'P 21/n'
_symmetry_Int_Tables_number      14
_space_group_name_Hall           '-P 2yn'
loop_
_symmetry_equiv_pos_site_id
_symmetry_equiv_pos_as_xyz
1 x,y,z
2 1/2+x,1/2-y,1/2+z
3 -x,-y,-z
4 1/2-x,1/2+y,1/2-z
_cell_length_a                   9.9144(3)
_cell_length_b                   14.4414(4)
_cell_length_c                   14.9785(3)
_cell_angle_alpha                90
_cell_angle_beta                 98.8870(10)
_cell_angle_gamma                90
_cell_volume                     2118.84
loop_
_atom_site_label
_atom_site_type_symbol
_atom_site_fract_x
_atom_site_fract_y
_atom_site_fract_z
Zn1 Zn 0.34068(9) 0.74059(6) -0.00204(6)
Zn2 Zn 0.31511(9) 0.62062(7) 0.37396(6)
Zn3 Zn 0.20854(9) 0.41675(7) 0.18358(6)
P1 P 0.2529(2) 0.91561(15) 0.09966(15)
H1 H 0.144(10) 0.858(5) 0.1055(6)
P2 P 0.2900(2) 0.62290(15) 0.16588(14)
H2 H 0.210(8) 0.689(7) 0.1771(12)
P3 P 0.0233(2) 0.71399(15) -0.05825(14)
H3 H 0.0380(14) 0.677(3) 0.027(8)
P4 P 0.6008(2) 0.72572(15) -0.11031(15)
H4 H 0.688(8) 0.7081(15) -0.027(7)
O1 O 0.3400(6) 0.8690(4) 0.0372(4)
O2 O 0.1662(6) 0.7252(4) -0.0818(4)
O3 O 0.3776(6) 0.6559(4) 0.0971(4)
O4 O 0.4556(6) 0.7195(4) -0.0916(4)
O5 O 0.3796(6) 0.6061(4) 0.2571(4)
O6 O 0.1957(7) 1.0063(4) 0.0604(4)
O7 O 0.6332(6) 0.8224(4) -0.1409(5)
O8 O -0.0497(7) 0.8045(5) -0.0548(5)
O9 O 0.2024(7) 0.5413(4) 0.1342(4)
O10 O 0.6256(6) 0.6500(5) -0.1757(4)
O11 O 0.3319(6) 0.9262(5) 0.1946(4)
O12 O -0.0528(7) 0.6447(5) -0.1197(5)
O6C O 0.3043(7) 0.5063(4) 0.4396(4)
O7A O 0.1332(6) 0.6776(4) 0.3591(5)
O8A O 0.4503(7) 0.6955(5) 0.4452(5)
O10B O 0.3744(6) 0.3500(5) 0.1757(4)
O11C O 0.1681(6) 0.4262(5) 0.3054(4)
O12B O 0.0528(7) 0.3553(5) 0.1197(5)
Zn2C Zn 0.18489(9) 1.12062(7) 0.12604(6)
Zn2A Zn 0.81511(9) 0.87938(7) -0.12604(6)
Zn2A_2 Zn -0.18489(9) 0.87938(7) -0.12604(6)
Zn3B Zn 0.79146(9) 0.58325(7) -0.18358(6)
Zn3C Zn 0.29146(9) 0.91675(7) 0.31642(6)
Zn3B_2 Zn -0.20854(9) 0.58325(7) -0.18358(6)
Ni1 Ni 0.23462(11) 0.48854(7) 0.72640(7)
O13 O 0.3391(6) 0.3586(4) 0.7219(4)
O14 O 0.0884(6) 0.4474(4) 0.6144(4)
N1 N 0.1164(8) 0.4280(6) 0.8154(6)
H5 H 0.0303 0.4496 0.8042
H6 H 0.1141 0.3661 0.8082
N2 N 0.3683(8) 0.5158(5) 0.8468(5)
H7 H 0.4529 0.4961 0.8414
H8 H 0.3721 0.5771 0.8572
N3 N 0.1375(8) 0.6168(5) 0.7179(5)
H9 H 0.0463 0.6093 0.7089
H10 H 0.1616 0.6489 0.7694
N4 N 0.3603(8) 0.5523(6) 0.6448(5)
H11 H 0.4486 0.5416 0.6667
H12 H 0.3427 0.5297 0.5882
C1 C 0.1788(12) 0.4517(11) 0.9076(8)
H13 H 0.1333 0.5063 0.9261
H14 H 0.1612 0.4015 0.9472
C2 C 0.3217(13) 0.4691(10) 0.9213(7)
H15 H 0.3697 0.4106 0.9315
H16 H 0.3451 0.5064 0.9753
C3 C 0.1805(10) 0.6661(7) 0.6417(7)
H17 H 0.1595 0.7315 0.6452
H18 H 0.1320 0.6421 0.5852
C4 C 0.3311(10) 0.6533(7) 0.6448(7)
H19 H 0.3605 0.6824 0.5927
H20 H 0.3802 0.6817 0.6990
loop_
_geom_bond_atom_site_label_1
_geom_bond_atom_site_label_2
_geom_bond_site_symmetry_1
_geom_bond_site_symmetry_2
Zn1 O1 1_555 1_555
Zn2 O5 1_555 1_555
Zn3 O9 1_555 1_555
Ni1 O13 1_555 1_555
P1 H1 1_555 1_555
P2 H2 1_555 1_555
P3 H3 1_555 1_555
P4 H4 1_555 1_555
O1 P1 1_555 1_555
O2 Zn1 1_555 1_555
O3 Zn1 1_555 1_555
O4 Zn1 1_555 1_555
O5 P2 1_555 1_555
O6 P1 1_555 1_555
O7 P4 1_555 1_555
O8 P3 1_555 1_555
O9 P2 1_555 1_555
O10 P4 1_555 1_555
O11 P1 1_555 1_555
O12 P3 1_555 1_555
O14 Ni1 1_555 1_555
N1 Ni1 1_555 1_555
H5 N1 1_555 1_555
H6 N1 1_555 1_555
N2 Ni1 1_555 1_555
H7 N2 1_555 1_555
H8 N2 1_555 1_555
N3 Ni1 1_555 1_555
H9 N3 1_555 1_555
H10 N3 1_555 1_555
N4 Ni1 1_555 1_555
H11 N4 1_555 1_555
H12 N4 1_555 1_555
C1 N1 1_555 1_555
H13 C1 1_555 1_555
H14 C1 1_555 1_555
C2 N2 1_555 1_555
H15 C2 1_555 1_555
H16 C2 1_555 1_555
C3 N3 1_555 1_555
H17 C3 1_555 1_555
H18 C3 1_555 1_555
C4 N4 1_555 1_555
H19 C4 1_555 1_555
H20 C4 1_555 1_555
O6C Zn2 1_555 1_555
O7A Zn2 1_555 1_555
O8A Zn2 1_555 1_555
O10B Zn3 1_555 1_555
O11C Zn3 1_555 1_555
O12B Zn3 1_555 1_555
Zn2C O6 1_555 1_555
Zn2A O7 1_555 1_555
Zn2A_2 O8 1_555 1_555
Zn3B O10 1_555 1_555
Zn3C O11 1_555 1_555
Zn3B_2 O12 1_555 1_555
P2 O3 1_555 1_555
P3 O2 1_555 1_555
P4 O4 1_555 1_555
C1 C2 1_555 1_555
C3 C4 1_555 1_555

#END
