
#######################################################################
#
#                 Cambridge Crystallographic Data Centre
#                                CCDC 
#
#######################################################################
#
# If this CIF has been generated from an entry in the Cambridge 
# Structural Database, then it will include bibliographic, chemical, 
# crystal, experimental, refinement or atomic coordinate data resulting 
# from the CCDC's data processing and validation procedures.
#
#######################################################################

data_AGUBUA
_chemical_formula_moiety         '(C8 H10 N2 O12 P4 Zn3 2-)n'
_symmetry_cell_setting           orthorhombic
_symmetry_space_group_name_H-M   'P b c n'
_symmetry_Int_Tables_number      60
_space_group_name_Hall           '-P 2n 2ab'
loop_
_symmetry_equiv_pos_site_id
_symmetry_equiv_pos_as_xyz
1 x,y,z
2 1/2-x,1/2-y,1/2+z
3 -x,y,1/2-z
4 1/2+x,1/2-y,-z
5 -x,-y,-z
6 1/2+x,1/2+y,1/2-z
7 x,-y,1/2+z
8 1/2-x,1/2+y,z
_cell_length_a                   10.089(2)
_cell_length_b                   14.789(3)
_cell_length_c                   13.988(3)
_cell_angle_alpha                90
_cell_angle_beta                 90
_cell_angle_gamma                90
_cell_volume                     2087.1
loop_
_atom_site_label
_atom_site_type_symbol
_atom_site_fract_x
_atom_site_fract_y
_atom_site_fract_z
N1 N -0.7020(6) 0.6877(4) 0.0340(5)
H2 H -0.7637 0.7097 0.0731
H3 H -0.7405 0.6542 -0.0110
H4 H -0.6584 0.7332 0.0067
C1 C -0.614(3) 0.6350(17) 0.085(3)
C2 C -0.511(2) 0.592(2) 0.044(3)
C3 C -0.566(3) 0.512(2) 0.008(3)
C4 C -0.411(3) 0.652(2) 0.073(4)
N1D N -0.2980(6) 0.3123(4) -0.0340(5)
H2D H -0.2363 0.2903 -0.0731
H3D H -0.2595 0.3458 0.0110
H4D H -0.3416 0.2668 -0.0067
C1D C -0.386(3) 0.3650(17) -0.085(3)
C2D C -0.489(2) 0.408(2) -0.044(3)
C3D C -0.434(3) 0.488(2) -0.008(3)
C4D C -0.589(3) 0.348(2) -0.073(4)
Zn1 Zn 0.04048(5) 0.41273(4) 0.10600(4)
Zn2 Zn 0.0000 0.21703(5) -0.2500
P1 P 0.01889(13) 0.37686(9) -0.11038(8)
H1 H 0.117(5) 0.393(4) -0.167(4)
P2 P 0.26875(16) 0.10697(14) -0.21872(12)
O1 O 0.0862(4) 0.3568(3) -0.0154(3)
O2 O -0.0590(4) 0.2956(2) -0.1463(3)
O3 O -0.0689(4) 0.4591(3) -0.1055(3)
O4 O 0.3370(4) 0.1451(3) -0.3082(3)
O5 O 0.1422(4) 0.1502(4) -0.1970(4)
O6 O 0.3555(4) 0.1137(4) -0.1300(3)
Zn1B Zn -0.04048(5) 0.41273(4) -0.60600(4)
Zn1D Zn -0.04048(5) 0.58727(4) -0.10600(4)
Zn1A Zn 0.45952(5) 0.08727(4) -0.39400(4)
Zn1C Zn 0.54048(5) 0.08727(4) -0.10600(4)
Zn1F Zn 0.04048(5) 0.58727(4) -0.39400(4)
Zn1C_2 Zn -0.45952(5) 0.08727(4) -0.10600(4)
Zn1A_2 Zn -0.54048(5) 0.08727(4) -0.39400(4)
P1B P -0.01889(13) 0.37686(9) -0.38962(8)
H1B H -0.117(5) 0.393(4) -0.333(4)
P2B P -0.26875(16) 0.10697(14) -0.28128(12)
O1B O -0.0862(4) 0.3568(3) -0.4846(3)
O2B O 0.0590(4) 0.2956(2) -0.3537(3)
O3B O 0.0689(4) 0.4591(3) -0.3945(3)
O3D O 0.0689(4) 0.5409(3) 0.1055(3)
O3F O -0.0689(4) 0.5409(3) -0.6055(3)
O4B O -0.3370(4) 0.1451(3) -0.1918(3)
O4A O 0.1630(4) 0.3549(3) 0.1918(3)
O4C O -0.1630(4) 0.3549(3) -0.6918(3)
O5B O -0.1422(4) 0.1502(4) -0.3030(4)
O6B O -0.3555(4) 0.1137(4) -0.3700(3)
O6C O -0.1445(4) 0.3863(4) 0.1300(3)
O6A O 0.1445(4) 0.3863(4) -0.6300(3)
loop_
_geom_bond_atom_site_label_1
_geom_bond_atom_site_label_2
_geom_bond_site_symmetry_1
_geom_bond_site_symmetry_2
Zn1 O1 1_555 1_555
Zn2 O2 1_555 1_555
P1 H1 1_555 1_555
P2 O4 1_555 1_555
O1 P1 1_555 1_555
O2 P1 1_555 1_555
O3 P1 1_555 1_555
O4 Zn1A 1_555 1_555
O5 Zn2 1_555 1_555
O6 P2 1_555 1_555
N1 H2 1_555 1_555
H3 N1 1_555 1_555
H4 N1 1_555 1_555
C1 N1 1_555 1_555
C2 C1 1_555 1_555
C3 C2 1_555 1_555
C4 C2 1_555 1_555
Zn1B O1B 1_555 1_555
Zn1D O3 1_555 1_555
Zn1C O6 1_555 1_555
Zn1F O3B 1_555 1_555
Zn1C_2 O4B 1_555 1_555
Zn1A_2 O6B 1_555 1_555
P1B H1B 1_555 1_555
P2B O4B 1_555 1_555
O1B P1B 1_555 1_555
O2B Zn2 1_555 1_555
O3B P1B 1_555 1_555
O3D Zn1 1_555 1_555
O3F Zn1B 1_555 1_555
O4A Zn1 1_555 1_555
O4C Zn1B 1_555 1_555
O5B Zn2 1_555 1_555
O6B P2B 1_555 1_555
O6C Zn1 1_555 1_555
O6A Zn1B 1_555 1_555
N1D H2D 1_555 1_555
H3D N1D 1_555 1_555
H4D N1D 1_555 1_555
C1D N1D 1_555 1_555
C2D C1D 1_555 1_555
C3D C3 1_555 1_555
C4D C2D 1_555 1_555
P2 O5 1_555 1_555
P1B O2B 1_555 1_555
P2B O5B 1_555 1_555
C2D C3D 1_555 1_555

#END
