
#######################################################################
#
#                 Cambridge Crystallographic Data Centre
#                                CCDC 
#
#######################################################################
#
# If this CIF has been generated from an entry in the Cambridge 
# Structural Database, then it will include bibliographic, chemical, 
# crystal, experimental, refinement or atomic coordinate data resulting 
# from the CCDC's data processing and validation procedures.
#
#######################################################################

data_AWAROF
_chemical_formula_moiety         'C6 H14 F4 N19 O1 Zn8'
_symmetry_cell_setting           rhombohedral
_symmetry_space_group_name_H-M   'R -3 c'
_symmetry_Int_Tables_number      167
_space_group_name_Hall           '-R 3 2"c'
loop_
_symmetry_equiv_pos_site_id
_symmetry_equiv_pos_as_xyz
1 x,y,z
2 -y,x-y,z
3 -x+y,-x,z
4 y,x,1/2-z
5 2/3+x,1/3+y,1/3+z
6 2/3-y,1/3+x-y,1/3+z
7 2/3-x+y,1/3-x,1/3+z
8 2/3+y,1/3+x,5/6-z
9 1/3+x,2/3+y,2/3+z
10 1/3+y,2/3+x,1/6-z
11 -x+y,y,1/2+z
12 x,x-y,1/2+z
13 2/3+y,1/3-x+y,1/3-z
14 2/3+x-y,1/3+x,1/3-z
15 2/3-x+y,1/3+y,5/6+z
16 2/3+x,1/3+x-y,5/6+z
17 1/3-x+y,2/3+y,1/6+z
18 1/3+x,2/3+x-y,1/6+z
19 -x,-y,-z
20 y,-x+y,-z
21 x-y,x,-z
22 -y,-x,1/2+z
23 1/3-x,2/3-y,2/3-z
24 1/3+y,2/3-x+y,2/3-z
25 1/3+x-y,2/3+x,2/3-z
26 1/3-y,2/3-x,1/6+z
27 2/3-x,1/3-y,1/3-z
28 2/3-y,1/3-x,5/6+z
29 x-y,-y,1/2-z
30 -x,-x+y,1/2-z
31 1/3-y,2/3+x-y,2/3+z
32 1/3-x+y,2/3-x,2/3+z
33 1/3+x-y,2/3-y,1/6-z
34 1/3-x,2/3-x+y,1/6-z
35 2/3+x-y,1/3-y,5/6-z
36 2/3-x,1/3-x+y,5/6-z
_cell_length_a                   18.5744(7)
_cell_length_b                   18.5744(7)
_cell_length_c                   9.8413(7)
_cell_angle_alpha                90
_cell_angle_beta                 90
_cell_angle_gamma                120.00
_cell_volume                     2940.44
loop_
_atom_site_label
_atom_site_type_symbol
_atom_site_fract_x
_atom_site_fract_y
_atom_site_fract_z
O2 O 0.514(5) 0.256(5) 0.063(8)
Zn1 Zn 0.376625(18) 0.376625(18) 0.2500
F1 F 0.41173(10) 0.3333 0.0833
C1 C 0.37304(15) 0.21590(14) 0.3308(2)
N1 N 0.4292(3) 0.2191(3) 0.2346(4)
H2 H 0.4588 0.2643 0.1896
H3 H 0.4347 0.1762 0.2204
N2 N 0.35932(12) 0.27739(11) 0.36010(18)
N3 N 0.3333 0.15076(14) 0.4167
N2IA N 0.30735(12) 0.25140(16) 0.47323(18)
C1IA C 0.29363(15) 0.17619(21) 0.5025(2)
N1IA N 0.2375(3) 0.1232(4) 0.5987(4)
H2IA H 0.2079 0.1388 0.6437
H3IA H 0.2320 0.0748 0.6129
F1C F 0.3333 0.41173(10) 0.4167
N2C N 0.27739(11) 0.35932(12) 0.13990(18)
N3N N 0.48413(14) 0.48409(14) 0.2500
Zn1EA Zn 0.333333(25) 0.290042(18) -0.0833
Zn1P Zn 0.333333(25) 0.043292(18) 0.4167
Zn1E Zn 0.290042(18) 0.333333(25) 0.5833
C1N C 0.50953(21) 0.54923(14) 0.1641(2)
C1W C 0.54923(14) 0.50953(21) 0.3359(2)
C1C C 0.21590(14) 0.37304(15) 0.1692(2)
N2EA N 0.25140(16) 0.30735(12) 0.02677(18)
N1W N 0.5524(3) 0.4566(4) 0.4321(4)
N2W N 0.61072(11) 0.58474(16) 0.30657(18)
N1N N 0.4566(4) 0.5524(3) 0.0679(4)
N2N N 0.58474(16) 0.61072(11) 0.19343(18)
C1EA C 0.17619(21) 0.29363(15) -0.0025(2)
N1C N 0.2191(3) 0.4292(3) 0.2654(4)
N3C N 0.15076(14) 0.3333 0.0833
H2W H 0.5976 0.4722 0.4771
H3W H 0.5095 0.4082 0.4463
H2N H 0.4722 0.5976 0.0229
H3N H 0.4082 0.5095 0.0537
Zn1M Zn 0.666667(25) 0.709958(18) 0.0833
Zn1Q Zn 0.709958(18) 0.666667(25) 0.4167
N1EA N 0.1232(4) 0.2375(3) -0.0987(4)
Zn1L Zn 0.043292(18) 0.333333(25) 0.0833
H2C H 0.2643 0.4588 0.3104
H3C H 0.1762 0.4347 0.2796
H2EA H 0.1388 0.2079 -0.1437
H3EA H 0.0748 0.2320 -0.1129
F1EA F 0.25490(10) 0.25494(10) -0.2500
N2FA N 0.41526(16) 0.38928(11) -0.19343(18)
N3K N 0.3333 0.18254(14) -0.0833
Zn1E_2 Zn 0.290042(18) 0.333333(25) -0.4167
F1EA_2 F 0.25490(10) 0.25494(10) 0.7500
N2E N 0.38928(11) 0.41526(16) 0.69343(18)
N3T N 0.18254(14) 0.3333 0.5833
loop_
_geom_bond_atom_site_label_1
_geom_bond_atom_site_label_2
_geom_bond_site_symmetry_1
_geom_bond_site_symmetry_2
Zn1 F1 1_555 1_555
F1 Zn1EA 1_555 1_555
C1 N1 1_555 1_555
N1 H2 1_555 1_555
H3 N1 1_555 1_555
N2 Zn1 1_555 1_555
N3 C1 1_555 1_555
N2IA N2 1_555 1_555
C1IA N3 1_555 1_555
N1IA C1IA 1_555 1_555
H2IA N1IA 1_555 1_555
H3IA N1IA 1_555 1_555
F1C Zn1 1_555 1_555
N2C Zn1 1_555 1_555
N3N Zn1 1_555 1_555
Zn1EA N2EA 1_555 1_555
Zn1P N3 1_555 1_555
Zn1E N2IA 1_555 1_555
C1N N3N 1_555 1_555
C1W N3N 1_555 1_555
C1C N2C 1_555 1_555
N2EA N2C 1_555 1_555
N1W C1W 1_555 1_555
N2W C1W 1_555 1_555
N1N C1N 1_555 1_555
N2N C1N 1_555 1_555
C1EA N2EA 1_555 1_555
N1C C1C 1_555 1_555
N3C C1C 1_555 1_555
H2W N1W 1_555 1_555
H3W N1W 1_555 1_555
H2N N1N 1_555 1_555
H3N N1N 1_555 1_555
Zn1M N2N 1_555 1_555
Zn1Q N2W 1_555 1_555
N1EA C1EA 1_555 1_555
Zn1L N3C 1_555 1_555
H2C N1C 1_555 1_555
H3C N1C 1_555 1_555
H2EA N1EA 1_555 1_555
H3EA N1EA 1_555 1_555
F1EA Zn1EA 1_555 1_555
N2FA Zn1EA 1_555 1_555
N3K Zn1EA 1_555 1_555
Zn1E_2 F1EA 1_555 1_555
F1EA_2 Zn1E 1_555 1_555
N2E Zn1E 1_555 1_555
N3T Zn1E 1_555 1_555
C1 N2 1_555 1_555
N2IA C1IA 1_555 1_555
F1C Zn1E 1_555 1_555
N2W N2N 1_555 1_555
C1EA N3C 1_555 1_555

#END
