
#######################################################################
#
#                 Cambridge Crystallographic Data Centre
#                                CCDC 
#
#######################################################################
#
# If this CIF has been generated from an entry in the Cambridge 
# Structural Database, then it will include bibliographic, chemical, 
# crystal, experimental, refinement or atomic coordinate data resulting 
# from the CCDC's data processing and validation procedures.
#
#######################################################################

data_XOMJOY
_chemical_formula_moiety         '(C103 H86 Cl6 Gd2 N5 O22)n'
_symmetry_cell_setting           orthorhombic
_symmetry_space_group_name_H-M   'C 2 2 21'
_symmetry_Int_Tables_number      20
_space_group_name_Hall           'C 2c 2'
loop_
_symmetry_equiv_pos_site_id
_symmetry_equiv_pos_as_xyz
1 x,y,z
2 -x,-y,1/2+z
3 -x,y,1/2-z
4 x,-y,-z
5 1/2+x,1/2+y,z
6 1/2-x,1/2-y,1/2+z
7 1/2-x,1/2+y,1/2-z
8 1/2+x,1/2-y,-z
_cell_length_a                   12.816(3)
_cell_length_b                   34.481(7)
_cell_length_c                   24.816(5)
_cell_angle_alpha                90
_cell_angle_beta                 90
_cell_angle_gamma                90
_cell_volume                     10966.4
loop_
_atom_site_label
_atom_site_type_symbol
_atom_site_fract_x
_atom_site_fract_y
_atom_site_fract_z
N3 N 0.5000 -0.0787(17) 0.2500
C50 C 0.5000 -0.0378(17) 0.2500
C51 C 0.415(3) -0.0999(11) 0.2203(17)
C52 C 0.497(3) -0.1199(12) 0.1847(16)
O11 O 0.443(4) -0.0281(15) 0.2905(17)
O11B O 0.557(4) -0.0281(15) 0.2095(17)
C51B C 0.585(3) -0.0999(11) 0.2797(17)
C52B C 0.503(3) -0.1199(12) 0.3153(16)
Gd1 Gd 0.65399(2) 0.114963(7) 0.214285(10)
O1 O 0.6832(5) 0.12177(15) 0.11758(17)
O2 O 0.7482(4) 0.16811(13) 0.16739(18)
O3 O 0.7415(4) 0.27317(14) 0.0151(2)
O4 O 1.0260(4) 0.33947(16) -0.1875(2)
O5 O 0.8596(3) 0.34223(13) -0.2149(2)
O6 O 0.9718(4) 0.27093(14) -0.00803(19)
O7 O 0.5152(5) 0.07824(18) 0.1901(2)
O8 O 0.3490(5) 0.07038(15) 0.2118(2)
O9 O 0.5200(5) 0.05412(19) -0.0082(2)
O10 O 0.8270(3) 0.11795(15) 0.25345(18)
N1 N 0.7519(7) 0.05522(19) 0.1818(3)
C1 C 0.8438(8) 0.0421(3) 0.2053(5)
H1 H 0.8714 0.0549 0.2350
C2 C 0.8946(10) 0.0099(4) 0.1842(7)
H2 H 0.9562 0.0011 0.1999
C3 C 0.8535(14) -0.0092(3) 0.1397(6)
H3 H 0.8874 -0.0308 0.1257
C4 C 0.7615(15) 0.0039(4) 0.1163(5)
H4 H 0.7339 -0.0089 0.0865
C5 C 0.7107(11) 0.0361(3) 0.1374(5)
H5 H 0.6491 0.0449 0.1217
N2 N 0.9291(5) 0.1467(2) 0.3171(3)
C6 C 0.8186(5) 0.21747(18) -0.0203(3)
C7 C 0.7645(5) 0.23464(18) 0.0214(3)
C8 C 0.7383(5) 0.21365(19) 0.0682(3)
H6 H 0.7043 0.2260 0.0965
C9 C 0.7631(5) 0.17475(18) 0.0721(3)
C10 C 0.8182(4) 0.15605(18) 0.0306(2)
C11 C 0.8504(5) 0.11709(17) 0.0347(3)
H7 H 0.8327 0.1027 0.0650
C12 C 0.9078(6) 0.10027(19) -0.0059(3)
C13 C 0.9357(6) 0.12101(19) -0.0519(3)
H8 H 0.9746 0.1091 -0.0789
C14 C 0.9056(5) 0.15913(19) -0.0572(3)
H9 H 0.9238 0.1728 -0.0881
C15 C 0.8469(5) 0.17785(17) -0.0161(2)
C16 C 0.7287(5) 0.1534(2) 0.1222(2)
C17 C 0.6878(6) 0.2934(2) 0.0574(3)
H10 H 0.7225 0.2893 0.0916
H11 H 0.6164 0.2842 0.0603
C18 C 0.6894(7) 0.3363(2) 0.0424(5)
H12 H 0.6540 0.3510 0.0697
H13 H 0.6549 0.3399 0.0084
H14 H 0.7604 0.3450 0.0397
C19 C 0.8514(5) 0.24206(16) -0.0672(2)
C20 C 0.9268(5) 0.27025(19) -0.0584(3)
C21 C 0.9537(5) 0.29678(17) -0.0991(3)
H15 H 1.0050 0.3152 -0.0923
C22 C 0.9066(4) 0.29619(17) -0.1479(3)
C23 C 0.8309(5) 0.26710(17) -0.1603(2)
C24 C 0.7811(5) 0.26349(19) -0.2124(3)
H16 H 0.7980 0.2805 -0.2401
C25 C 0.7094(6) 0.2350(2) -0.2205(3)
C26 C 0.6810(6) 0.2086(2) -0.1800(3)
H17 H 0.6293 0.1902 -0.1863
C27 C 0.7298(6) 0.2102(2) -0.1317(3)
H18 H 0.7143 0.1914 -0.1061
C28 C 0.8047(4) 0.23974(17) -0.1184(2)
C29 C 0.9337(6) 0.32812(19) -0.1875(3)
C30 C 0.9951(6) 0.3085(2) 0.0142(3)
H19 H 0.9478 0.3278 -0.0004
H20 H 1.0660 0.3160 0.0053
C31 C 0.9823(7) 0.3057(3) 0.0741(4)
H21 H 0.9972 0.3304 0.0902
H22 H 1.0297 0.2866 0.0881
H23 H 0.9120 0.2983 0.0824
C32 C 0.3982(6) 0.0101(3) 0.0267(3)
C33 C 0.4624(6) 0.0411(2) 0.0351(3)
C34 C 0.4687(6) 0.0588(2) 0.0860(3)
H24 H 0.5131 0.0798 0.0912
C35 C 0.4093(5) 0.04529(18) 0.1283(3)
C36 C 0.3389(6) 0.0144(2) 0.1206(3)
C37 C 0.2759(7) -0.0009(3) 0.1623(4)
H25 H 0.2781 0.0096 0.1968
C38 C 0.2127(12) -0.0309(5) 0.1512(6)
C39 C 0.2072(11) -0.0495(5) 0.1015(6)
H26 H 0.1643 -0.0709 0.0965
C40 C 0.2662(9) -0.0354(4) 0.0607(5)
H27 H 0.2607 -0.0467 0.0268
C41 C 0.3370(6) -0.0036(2) 0.0682(4)
C42 C 0.4250(7) 0.0659(2) 0.1811(3)
C43 C 0.5840(9) 0.0865(3) -0.0037(4)
H28 H 0.6392 0.0813 0.0221
H29 H 0.5436 0.1083 0.0094
C44 C 0.6288(10) 0.0959(4) -0.0552(4)
H30 H 0.6726 0.1183 -0.0517
H31 H 0.5741 0.1012 -0.0806
H32 H 0.6697 0.0744 -0.0678
C45 C 0.8679(5) 0.1461(3) 0.2732(3)
H33 H 0.8559 0.1697 0.2563
C46 C 0.9567(9) 0.1100(3) 0.3404(5)
H34 H 1.0212 0.1128 0.3604
H35 H 0.9686 0.0913 0.3118
C47 C 0.8719(13) 0.0944(4) 0.3781(6)
H36 H 0.8939 0.0700 0.3929
H37 H 0.8083 0.0909 0.3583
H38 H 0.8605 0.1126 0.4068
C48 C 0.9768(7) 0.1818(3) 0.3391(5)
H39 H 0.9583 0.2037 0.3165
H40 H 1.0521 0.1790 0.3382
C49 C 0.9424(10) 0.1898(4) 0.3962(5)
H41 H 0.9754 0.2130 0.4090
H42 H 0.9620 0.1684 0.4188
H43 H 0.8680 0.1929 0.3972
Cl1 Cl 0.9519(2) 0.05229(6) -0.00022(11)
Cl2 Cl 0.64848(18) 0.23178(7) -0.28393(8)
Cl3 Cl 0.1352(4) -0.05077(17) 0.2035(2)
C32C C 0.3982(6) -0.0101(3) -0.0267(3)
C33C C 0.4624(6) -0.0411(2) -0.0351(3)
O9C O 0.5200(5) -0.05412(19) 0.0082(2)
C43C C 0.5840(9) -0.0865(3) 0.0037(4)
H28C H 0.6392 -0.0813 -0.0221
H29C H 0.5436 -0.1083 -0.0094
C44C C 0.6288(10) -0.0959(4) 0.0552(4)
H30C H 0.6726 -0.1183 0.0517
H31C H 0.5741 -0.1012 0.0806
H32C H 0.6697 -0.0744 0.0678
C34C C 0.4687(6) -0.0588(2) -0.0860(3)
H24C H 0.5131 -0.0798 -0.0912
C35C C 0.4093(5) -0.04529(18) -0.1283(3)
C36C C 0.3389(6) -0.0144(2) -0.1206(3)
C37C C 0.2759(7) 0.0009(3) -0.1623(4)
H25C H 0.2781 -0.0096 -0.1968
C38C C 0.2127(12) 0.0309(5) -0.1512(6)
C39C C 0.2072(11) 0.0495(5) -0.1015(6)
H26C H 0.1643 0.0709 -0.0965
C40C C 0.2662(9) 0.0354(4) -0.0607(5)
H27C H 0.2607 0.0467 -0.0268
C41C C 0.3370(6) 0.0036(2) -0.0682(4)
Cl3C Cl 0.1352(4) 0.05077(17) -0.2035(2)
C42C C 0.4250(7) -0.0659(2) -0.1811(3)
O7C O 0.5152(5) -0.07824(18) -0.1901(2)
O8C O 0.3490(5) -0.07038(15) -0.2118(2)
O1G O 0.1832(5) 0.37823(15) -0.11758(17)
O2G O 0.2482(4) 0.33189(13) -0.16739(18)
O3G O 0.2415(4) 0.22683(14) -0.0151(2)
O4G O 0.5260(4) 0.16053(16) 0.1875(2)
O5G O 0.3596(3) 0.15777(13) 0.2149(2)
O6G O 0.4718(4) 0.22907(14) 0.00803(19)
C6G C 0.3186(5) 0.28253(18) 0.0203(3)
C7G C 0.2645(5) 0.26536(18) -0.0214(3)
C8G C 0.2383(5) 0.28635(19) -0.0682(3)
H6G H 0.2043 0.2740 -0.0965
C9G C 0.2631(5) 0.32525(18) -0.0721(3)
C10G C 0.3182(4) 0.34395(18) -0.0306(2)
C11G C 0.3504(5) 0.38291(17) -0.0347(3)
H7G H 0.3327 0.3973 -0.0650
C12G C 0.4078(6) 0.39973(19) 0.0059(3)
C13G C 0.4357(6) 0.37899(19) 0.0519(3)
H8G H 0.4746 0.3909 0.0789
C14G C 0.4056(5) 0.34087(19) 0.0572(3)
H9G H 0.4238 0.3272 0.0881
C15G C 0.3469(5) 0.32215(17) 0.0161(2)
C16G C 0.2287(5) 0.3466(2) -0.1222(2)
C17G C 0.1878(6) 0.2066(2) -0.0574(3)
H10G H 0.2225 0.2107 -0.0916
H11G H 0.1164 0.2158 -0.0603
C18G C 0.1894(7) 0.1637(2) -0.0424(5)
H12G H 0.1540 0.1490 -0.0697
H13G H 0.1549 0.1601 -0.0084
H14G H 0.2604 0.1550 -0.0397
C19G C 0.3514(5) 0.25794(16) 0.0672(2)
C20G C 0.4268(5) 0.22975(19) 0.0584(3)
C21G C 0.4537(5) 0.20322(17) 0.0991(3)
H15G H 0.5050 0.1848 0.0923
C22G C 0.4066(4) 0.20381(17) 0.1479(3)
C23G C 0.3309(5) 0.23290(17) 0.1603(2)
C24G C 0.2811(5) 0.23651(19) 0.2124(3)
H16G H 0.2980 0.2195 0.2401
C25G C 0.2094(6) 0.2650(2) 0.2205(3)
C26G C 0.1810(6) 0.2914(2) 0.1800(3)
H17G H 0.1293 0.3098 0.1863
C27G C 0.2298(6) 0.2898(2) 0.1317(3)
H18G H 0.2143 0.3086 0.1061
C28G C 0.3047(4) 0.26026(17) 0.1184(2)
C29G C 0.4337(6) 0.17188(19) 0.1875(3)
C30G C 0.4951(6) 0.1915(2) -0.0142(3)
H19G H 0.4478 0.1722 0.0004
H20G H 0.5660 0.1840 -0.0053
C31G C 0.4823(7) 0.1943(3) -0.0741(4)
H21G H 0.4972 0.1696 -0.0902
H22G H 0.5297 0.2134 -0.0881
H23G H 0.4120 0.2017 -0.0824
Cl1G Cl 0.4519(2) 0.44771(6) 0.00022(11)
Cl2G Cl 0.14848(18) 0.26822(7) 0.28393(8)
Gd1G Gd 0.15399(2) 0.385037(7) -0.214285(10)
O10G O 0.3270(3) 0.38205(15) -0.25345(18)
N2G N 0.4291(5) 0.3533(2) -0.3171(3)
C45G C 0.3679(5) 0.3539(3) -0.2732(3)
H33G H 0.3559 0.3303 -0.2563
C46G C 0.4567(9) 0.3900(3) -0.3404(5)
H34G H 0.5212 0.3872 -0.3604
H35G H 0.4686 0.4087 -0.3118
C47G C 0.3719(13) 0.4056(4) -0.3781(6)
H36G H 0.3939 0.4300 -0.3929
H37G H 0.3083 0.4091 -0.3583
H38G H 0.3605 0.3874 -0.4068
C48G C 0.4768(7) 0.3182(3) -0.3391(5)
H39G H 0.4583 0.2963 -0.3165
H40G H 0.5521 0.3210 -0.3382
C49G C 0.4424(10) 0.3102(4) -0.3962(5)
H41G H 0.4754 0.2870 -0.4090
H42G H 0.4620 0.3316 -0.4188
H43G H 0.3680 0.3071 -0.3972
N1G N 0.2519(7) 0.44478(19) -0.1818(3)
C1G C 0.3438(8) 0.4579(3) -0.2053(5)
H1G H 0.3714 0.4451 -0.2350
C2G C 0.3946(10) 0.4901(4) -0.1842(7)
H2G H 0.4562 0.4989 -0.1999
C3G C 0.3535(14) 0.5092(3) -0.1397(6)
H3G H 0.3874 0.5308 -0.1257
C4G C 0.2615(15) 0.4961(4) -0.1163(5)
H4G H 0.2339 0.5089 -0.0865
C5G C 0.2107(11) 0.4639(3) -0.1374(5)
H5G H 0.1491 0.4551 -0.1217
O5E O 0.6404(3) 0.15777(13) 0.2851(2)
O8B O 0.6510(5) 0.07038(15) 0.2882(2)
Gd1G_2 Gd 1.15399(2) 0.385037(7) -0.214285(10)
Gd1E Gd 0.84601(2) 0.385037(7) -0.285715(10)
Gd1B Gd 0.34601(2) 0.114963(7) 0.285715(10)
Gd1C Gd 0.65399(2) -0.114963(7) -0.214285(10)
Gd1A Gd 0.34601(2) -0.114963(7) -0.285715(10)
O4_2 O 0.0260(4) 0.33947(16) -0.1875(2)
O5B O 0.1404(3) 0.34223(13) -0.2851(2)
O7G O 0.0152(5) 0.42176(18) -0.1901(2)
O8E O 0.1510(5) 0.42962(15) -0.2882(2)
loop_
_geom_bond_atom_site_label_1
_geom_bond_atom_site_label_2
_geom_bond_site_symmetry_1
_geom_bond_site_symmetry_2
Gd1 O1 1_555 1_555
O1 C16 1_555 1_555
O2 Gd1 1_555 1_555
O3 C7 1_555 1_555
O4 C29 1_555 1_555
O5 C29 1_555 1_555
O6 C20 1_555 1_555
O7 Gd1 1_555 1_555
O8 C42 1_555 1_555
O9 C33 1_555 1_555
O10 Gd1 1_555 1_555
N1 Gd1 1_555 1_555
C1 N1 1_555 1_555
H1 C1 1_555 1_555
C2 C1 1_555 1_555
H2 C2 1_555 1_555
C3 C2 1_555 1_555
H3 C3 1_555 1_555
C4 C3 1_555 1_555
H4 C4 1_555 1_555
C5 N1 1_555 1_555
H5 C5 1_555 1_555
N2 C45 1_555 1_555
C6 C7 1_555 1_555
C7 C8 1_555 1_555
C8 H6 1_555 1_555
C9 C8 1_555 1_555
C10 C9 1_555 1_555
C11 C10 1_555 1_555
H7 C11 1_555 1_555
C12 C11 1_555 1_555
C13 C12 1_555 1_555
H8 C13 1_555 1_555
C14 C13 1_555 1_555
H9 C14 1_555 1_555
C15 C6 1_555 1_555
C16 O2 1_555 1_555
C17 O3 1_555 1_555
H10 C17 1_555 1_555
H11 C17 1_555 1_555
C18 C17 1_555 1_555
H12 C18 1_555 1_555
H13 C18 1_555 1_555
H14 C18 1_555 1_555
C19 C6 1_555 1_555
C20 C19 1_555 1_555
C21 C20 1_555 1_555
H15 C21 1_555 1_555
C22 C21 1_555 1_555
C23 C22 1_555 1_555
C24 C23 1_555 1_555
H16 C24 1_555 1_555
C25 C24 1_555 1_555
C26 C25 1_555 1_555
H17 C26 1_555 1_555
C27 C26 1_555 1_555
H18 C27 1_555 1_555
C28 C19 1_555 1_555
C29 C22 1_555 1_555
C30 O6 1_555 1_555
H19 C30 1_555 1_555
H20 C30 1_555 1_555
C31 C30 1_555 1_555
H21 C31 1_555 1_555
H22 C31 1_555 1_555
H23 C31 1_555 1_555
C32 C33 1_555 1_555
C33 C34 1_555 1_555
C34 H24 1_555 1_555
C35 C34 1_555 1_555
C36 C35 1_555 1_555
C37 C36 1_555 1_555
H25 C37 1_555 1_555
C38 C37 1_555 1_555
C39 C38 1_555 1_555
H26 C39 1_555 1_555
C40 C39 1_555 1_555
H27 C40 1_555 1_555
C41 C32 1_555 1_555
C42 O7 1_555 1_555
C43 O9 1_555 1_555
H28 C43 1_555 1_555
H29 C43 1_555 1_555
C44 C43 1_555 1_555
H30 C44 1_555 1_555
H31 C44 1_555 1_555
H32 C44 1_555 1_555
C45 O10 1_555 1_555
H33 C45 1_555 1_555
C46 N2 1_555 1_555
H34 C46 1_555 1_555
H35 C46 1_555 1_555
C47 C46 1_555 1_555
H36 C47 1_555 1_555
H37 C47 1_555 1_555
H38 C47 1_555 1_555
C48 N2 1_555 1_555
H39 C48 1_555 1_555
H40 C48 1_555 1_555
C49 C48 1_555 1_555
H41 C49 1_555 1_555
H42 C49 1_555 1_555
H43 C49 1_555 1_555
Cl1 C12 1_555 1_555
Cl2 C25 1_555 1_555
Cl3 C38 1_555 1_555
N3 C50 1_555 1_555
C50 O11 1_555 1_555
C51 N3 1_555 1_555
C52 C51 1_555 1_555
C32C C32 1_555 1_555
C33C C32C 1_555 1_555
O9C C33C 1_555 1_555
C43C O9C 1_555 1_555
H28C C43C 1_555 1_555
H29C C43C 1_555 1_555
C44C C43C 1_555 1_555
H30C C44C 1_555 1_555
H31C C44C 1_555 1_555
H32C C44C 1_555 1_555
C34C C33C 1_555 1_555
H24C C34C 1_555 1_555
C35C C34C 1_555 1_555
C36C C35C 1_555 1_555
C37C C36C 1_555 1_555
H25C C37C 1_555 1_555
C38C C37C 1_555 1_555
C39C C38C 1_555 1_555
H26C C39C 1_555 1_555
C40C C39C 1_555 1_555
H27C C40C 1_555 1_555
C41C C32C 1_555 1_555
Cl3C C38C 1_555 1_555
C42C C35C 1_555 1_555
O7C C42C 1_555 1_555
O8C C42C 1_555 1_555
O11B C50 1_555 1_555
C51B N3 1_555 1_555
C52B C51B 1_555 1_555
O1G C16G 1_555 1_555
O2G C16G 1_555 1_555
O3G C7G 1_555 1_555
O4G Gd1 1_555 1_555
O5G C29G 1_555 1_555
O6G C20G 1_555 1_555
C6G C7G 1_555 1_555
C7G C8G 1_555 1_555
C8G H6G 1_555 1_555
C9G C8G 1_555 1_555
C10G C9G 1_555 1_555
C11G C10G 1_555 1_555
H7G C11G 1_555 1_555
C12G C11G 1_555 1_555
C13G C12G 1_555 1_555
H8G C13G 1_555 1_555
C14G C13G 1_555 1_555
H9G C14G 1_555 1_555
C15G C6G 1_555 1_555
C16G C9G 1_555 1_555
C17G O3G 1_555 1_555
H10G C17G 1_555 1_555
H11G C17G 1_555 1_555
C18G C17G 1_555 1_555
H12G C18G 1_555 1_555
H13G C18G 1_555 1_555
H14G C18G 1_555 1_555
C19G C6G 1_555 1_555
C20G C19G 1_555 1_555
C21G C20G 1_555 1_555
H15G C21G 1_555 1_555
C22G C21G 1_555 1_555
C23G C22G 1_555 1_555
C24G C23G 1_555 1_555
H16G C24G 1_555 1_555
C25G C24G 1_555 1_555
C26G C25G 1_555 1_555
H17G C26G 1_555 1_555
C27G C26G 1_555 1_555
H18G C27G 1_555 1_555
C28G C19G 1_555 1_555
C29G O4G 1_555 1_555
C30G O6G 1_555 1_555
H19G C30G 1_555 1_555
H20G C30G 1_555 1_555
C31G C30G 1_555 1_555
H21G C31G 1_555 1_555
H22G C31G 1_555 1_555
H23G C31G 1_555 1_555
Cl1G C12G 1_555 1_555
Cl2G C25G 1_555 1_555
Gd1G O1G 1_555 1_555
O10G Gd1G 1_555 1_555
N2G C45G 1_555 1_555
C45G O10G 1_555 1_555
H33G C45G 1_555 1_555
C46G N2G 1_555 1_555
H34G C46G 1_555 1_555
H35G C46G 1_555 1_555
C47G C46G 1_555 1_555
H36G C47G 1_555 1_555
H37G C47G 1_555 1_555
H38G C47G 1_555 1_555
C48G N2G 1_555 1_555
H39G C48G 1_555 1_555
H40G C48G 1_555 1_555
C49G C48G 1_555 1_555
H41G C49G 1_555 1_555
H42G C49G 1_555 1_555
H43G C49G 1_555 1_555
N1G Gd1G 1_555 1_555
C1G N1G 1_555 1_555
H1G C1G 1_555 1_555
C2G C1G 1_555 1_555
H2G C2G 1_555 1_555
C3G C2G 1_555 1_555
H3G C3G 1_555 1_555
C4G C3G 1_555 1_555
H4G C4G 1_555 1_555
C5G N1G 1_555 1_555
H5G C5G 1_555 1_555
O5E Gd1 1_555 1_555
O8B Gd1 1_555 1_555
Gd1G_2 O4 1_555 1_555
Gd1E O5 1_555 1_555
Gd1B O8 1_555 1_555
Gd1C O7C 1_555 1_555
Gd1A O8C 1_555 1_555
O4_2 Gd1G 1_555 1_555
O5B Gd1G 1_555 1_555
O7G Gd1G 1_555 1_555
O8E Gd1G 1_555 1_555
C4 C5 1_555 1_555
C9 C16 1_555 1_555
C10 C15 1_555 1_555
C14 C15 1_555 1_555
C23 C28 1_555 1_555
C27 C28 1_555 1_555
C35 C42 1_555 1_555
C36 C41 1_555 1_555
C40 C41 1_555 1_555
C36C C41C 1_555 1_555
C40C C41C 1_555 1_555
O2G Gd1G 1_555 1_555
O5G Gd1B 1_555 1_555
C10G C15G 1_555 1_555
C14G C15G 1_555 1_555
C22G C29G 1_555 1_555
C23G C28G 1_555 1_555
C27G C28G 1_555 1_555
C4G C5G 1_555 1_555

#END
