
#######################################################################
#
#                 Cambridge Crystallographic Data Centre
#                                CCDC 
#
#######################################################################
#
# If this CIF has been generated from an entry in the Cambridge 
# Structural Database, then it will include bibliographic, chemical, 
# crystal, experimental, refinement or atomic coordinate data resulting 
# from the CCDC's data processing and validation procedures.
#
#######################################################################

data_XOMJUE
_chemical_formula_moiety         '(C104 H86 Cl6 Er2 N5 O22)n'
_symmetry_cell_setting           orthorhombic
_symmetry_space_group_name_H-M   'C 2 2 21'
_symmetry_Int_Tables_number      20
_space_group_name_Hall           'C 2c 2'
loop_
_symmetry_equiv_pos_site_id
_symmetry_equiv_pos_as_xyz
1 x,y,z
2 -x,-y,1/2+z
3 -x,y,1/2-z
4 x,-y,-z
5 1/2+x,1/2+y,z
6 1/2-x,1/2-y,1/2+z
7 1/2-x,1/2+y,1/2-z
8 1/2+x,1/2-y,-z
_cell_length_a                   12.776(3)
_cell_length_b                   34.298(7)
_cell_length_c                   24.724(5)
_cell_angle_alpha                90
_cell_angle_beta                 90
_cell_angle_gamma                90
_cell_volume                     10833.8
loop_
_atom_site_label
_atom_site_type_symbol
_atom_site_fract_x
_atom_site_fract_y
_atom_site_fract_z
N4 N 0.0000 -0.1569(10) 0.2500
C53 C 0.093(3) -0.1446(15) 0.286(3)
C54 C -0.062(2) -0.1634(8) 0.2977(10)
C55 C -0.057(3) -0.2064(8) 0.2970(13)
O12 O 0.076(4) -0.1128(13) 0.3115(18)
C53B C -0.093(3) -0.1446(15) 0.214(3)
O12B O -0.076(4) -0.1128(13) 0.1885(18)
C54B C 0.062(2) -0.1634(8) 0.2023(10)
C55B C 0.057(3) -0.2064(8) 0.2030(13)
Er1 Er 0.65453(2) 0.115260(8) 0.214348(10)
O1 O 0.6846(4) 0.12155(15) 0.11967(17)
O2 O 0.7465(4) 0.16859(14) 0.16938(18)
O3 O 0.7417(4) 0.27413(15) 0.0162(2)
O4 O 1.0278(4) 0.34035(18) -0.1873(2)
O5 O 0.8623(4) 0.34275(14) -0.2158(2)
O6 O 0.9705(4) 0.27232(16) -0.0070(2)
O7 O 0.5195(5) 0.07800(18) 0.1900(2)
O8 O 0.3525(5) 0.07227(14) 0.2121(2)
O9 O 0.5208(5) 0.0532(2) -0.0090(2)
O10 O 0.8247(4) 0.11863(17) 0.25357(18)
N1 N 0.7531(7) 0.05514(19) 0.1835(3)
C1 C 0.8464(8) 0.0431(3) 0.2071(4)
H1 H 0.8714 0.0557 0.2379
C2 C 0.9025(9) 0.0123(4) 0.1849(6)
H2 H 0.9649 0.0043 0.2007
C3 C 0.8652(12) -0.0065(3) 0.1389(6)
H3 H 0.9027 -0.0271 0.1240
C4 C 0.7719(13) 0.0055(3) 0.1153(5)
H4 H 0.7469 -0.0071 0.0846
C5 C 0.7158(9) 0.0363(3) 0.1376(4)
H5 H 0.6534 0.0444 0.1217
N2 N 0.9261(5) 0.1473(2) 0.3165(3)
C6 C 0.8190(5) 0.2178(2) -0.0193(3)
C7 C 0.7645(5) 0.2353(2) 0.0230(3)
C8 C 0.7376(6) 0.2145(2) 0.0692(3)
H6 H 0.7019 0.2269 0.0971
C9 C 0.7640(5) 0.1751(2) 0.0737(3)
C10 C 0.8512(6) 0.1165(2) 0.0350(3)
H7 H 0.8336 0.1017 0.0652
C11 C 0.9077(6) 0.1002(2) -0.0055(3)
C12 C 0.9349(6) 0.1210(2) -0.0520(3)
H8 H 0.9725 0.1089 -0.0795
C13 C 0.9060(6) 0.1596(2) -0.0572(3)
H9 H 0.9246 0.1735 -0.0881
C14 C 0.8475(6) 0.17824(19) -0.0152(2)
C15 C 0.8187(5) 0.1562(2) 0.0315(2)
C16 C 0.7296(6) 0.1535(2) 0.1238(2)
C17 C 0.6877(6) 0.2942(2) 0.0585(3)
H10 H 0.7222 0.2899 0.0930
H11 H 0.6160 0.2851 0.0612
C18 C 0.6903(8) 0.3373(3) 0.0437(4)
H12 H 0.6551 0.3521 0.0712
H13 H 0.6558 0.3411 0.0096
H14 H 0.7617 0.3458 0.0410
C19 C 0.8512(6) 0.24287(18) -0.0667(2)
C20 C 0.9270(5) 0.2712(2) -0.0574(3)
C21 C 0.9545(5) 0.2980(2) -0.0987(2)
H15 H 1.0056 0.3167 -0.0920
C22 C 0.9074(5) 0.29681(19) -0.1477(3)
C23 C 0.7835(5) 0.2635(2) -0.2130(3)
H16 H 0.8019 0.2801 -0.2412
C24 C 0.7109(6) 0.2347(2) -0.2210(3)
C25 C 0.6821(7) 0.2085(2) -0.1798(3)
H17 H 0.6301 0.1900 -0.1858
C26 C 0.7307(6) 0.2104(2) -0.1311(3)
H18 H 0.7149 0.1917 -0.1051
C27 C 0.8056(5) 0.2401(2) -0.1184(3)
C28 C 0.8313(5) 0.26784(19) -0.1602(2)
C29 C 0.9355(6) 0.3291(2) -0.1880(3)
C30 C 0.9956(7) 0.3103(3) 0.0141(3)
H19 H 0.9490 0.3298 -0.0009
H20 H 1.0671 0.3173 0.0050
C31 C 0.9823(8) 0.3079(3) 0.0751(3)
H21 H 0.9985 0.3327 0.0910
H22 H 1.0286 0.2884 0.0894
H23 H 0.9112 0.3011 0.0835
C32 C 0.3963(6) 0.0102(3) 0.0266(3)
C33 C 0.4625(6) 0.0409(3) 0.0350(3)
C34 C 0.4702(6) 0.0592(2) 0.0859(3)
H24 H 0.5161 0.0800 0.0907
C35 C 0.4094(6) 0.0462(2) 0.1287(3)
C36 C 0.2753(7) 0.0004(3) 0.1637(4)
H25 H 0.2794 0.0112 0.1982
C37 C 0.2102(10) -0.0300(4) 0.1539(5)
C38 C 0.2034(10) -0.0482(4) 0.1044(6)
H26 H 0.1590 -0.0694 0.0996
C39 C 0.2632(9) -0.0346(3) 0.0621(5)
H27 H 0.2573 -0.0463 0.0283
C40 C 0.3343(7) -0.0027(2) 0.0691(3)
C41 C 0.3365(6) 0.0157(2) 0.1214(3)
C42 C 0.4295(7) 0.0670(2) 0.1811(3)
C43 C 0.5926(10) 0.0834(4) -0.0046(4)
H28 H 0.6491 0.0759 0.0195
H29 H 0.5589 0.1064 0.0102
C44 C 0.6342(11) 0.0920(4) -0.0583(4)
H30 H 0.6831 0.1132 -0.0559
H31 H 0.5778 0.0992 -0.0820
H32 H 0.6689 0.0694 -0.0723
C45 C 0.8651(7) 0.1471(3) 0.2731(3)
H33 H 0.8524 0.1709 0.2564
C46 C 0.9544(10) 0.1102(3) 0.3403(4)
H34 H 1.0186 0.1130 0.3608
H35 H 0.9665 0.0912 0.3119
C47 C 0.8669(14) 0.0960(4) 0.3773(6)
H36 H 0.8863 0.0714 0.3930
H37 H 0.8037 0.0930 0.3568
H38 H 0.8557 0.1147 0.4056
C48 C 0.9748(8) 0.1824(3) 0.3387(4)
H39 H 0.9578 0.2044 0.3157
H40 H 1.0502 0.1792 0.3382
C49 C 0.9416(10) 0.1915(4) 0.3948(5)
H41 H 0.9760 0.2148 0.4069
H42 H 0.9600 0.1702 0.4182
H43 H 0.8672 0.1953 0.3957
Cl1 Cl 0.9508(2) 0.05182(6) -0.00027(11)
Cl2 Cl 0.65080(19) 0.23090(7) -0.28485(8)
Cl3 Cl 0.1328(3) -0.04914(14) 0.20673(19)
C32C C 0.3963(6) -0.0102(3) -0.0266(3)
C33C C 0.4625(6) -0.0409(3) -0.0350(3)
O9C O 0.5208(5) -0.0532(2) 0.0090(2)
C43C C 0.5926(10) -0.0834(4) 0.0046(4)
H28C H 0.6491 -0.0759 -0.0195
H29C H 0.5589 -0.1064 -0.0102
C44C C 0.6342(11) -0.0920(4) 0.0583(4)
H30C H 0.6831 -0.1132 0.0559
H31C H 0.5778 -0.0992 0.0820
H32C H 0.6689 -0.0694 0.0723
C34C C 0.4702(6) -0.0592(2) -0.0859(3)
H24C H 0.5161 -0.0800 -0.0907
C35C C 0.4094(6) -0.0462(2) -0.1287(3)
C41C C 0.3365(6) -0.0157(2) -0.1214(3)
C36C C 0.2753(7) -0.0004(3) -0.1637(4)
H25C H 0.2794 -0.0112 -0.1982
C37C C 0.2102(10) 0.0300(4) -0.1539(5)
C38C C 0.2034(10) 0.0482(4) -0.1044(6)
H26C H 0.1590 0.0694 -0.0996
C39C C 0.2632(9) 0.0346(3) -0.0621(5)
H27C H 0.2573 0.0463 -0.0283
C40C C 0.3343(7) 0.0027(2) -0.0691(3)
Cl3C Cl 0.1328(3) 0.04914(14) -0.20673(19)
C42C C 0.4295(7) -0.0670(2) -0.1811(3)
O7C O 0.5195(5) -0.07800(18) -0.1900(2)
O8C O 0.3525(5) -0.07227(14) -0.2121(2)
O1G O 0.1846(4) 0.37845(15) -0.11967(17)
O2G O 0.2465(4) 0.33141(14) -0.16938(18)
O3G O 0.2417(4) 0.22587(15) -0.0162(2)
O4G O 0.5278(4) 0.15965(18) 0.1873(2)
O5G O 0.3623(4) 0.15725(14) 0.2158(2)
O6G O 0.4705(4) 0.22768(16) 0.0070(2)
C6G C 0.3190(5) 0.2822(2) 0.0193(3)
C7G C 0.2645(5) 0.2647(2) -0.0230(3)
C8G C 0.2376(6) 0.2855(2) -0.0692(3)
H6G H 0.2019 0.2731 -0.0971
C9G C 0.2640(5) 0.3249(2) -0.0737(3)
C10G C 0.3512(6) 0.3835(2) -0.0350(3)
H7G H 0.3336 0.3983 -0.0652
C11G C 0.4077(6) 0.3998(2) 0.0055(3)
C12G C 0.4349(6) 0.3790(2) 0.0520(3)
H8G H 0.4725 0.3911 0.0795
C13G C 0.4060(6) 0.3404(2) 0.0572(3)
H9G H 0.4246 0.3265 0.0881
C14G C 0.3475(6) 0.32176(19) 0.0152(2)
C15G C 0.3187(5) 0.3438(2) -0.0315(2)
C16G C 0.2296(6) 0.3465(2) -0.1238(2)
C17G C 0.1877(6) 0.2058(2) -0.0585(3)
H10G H 0.2222 0.2101 -0.0930
H11G H 0.1160 0.2149 -0.0612
C18G C 0.1903(8) 0.1627(3) -0.0437(4)
H12G H 0.1551 0.1479 -0.0712
H13G H 0.1558 0.1589 -0.0096
H14G H 0.2617 0.1542 -0.0410
C19G C 0.3512(6) 0.25713(18) 0.0667(2)
C20G C 0.4270(5) 0.2288(2) 0.0574(3)
C21G C 0.4545(5) 0.2020(2) 0.0987(2)
H15G H 0.5056 0.1833 0.0920
C22G C 0.4074(5) 0.20319(19) 0.1477(3)
C23G C 0.2835(5) 0.2365(2) 0.2130(3)
H16G H 0.3019 0.2199 0.2412
C24G C 0.2109(6) 0.2653(2) 0.2210(3)
C25G C 0.1821(7) 0.2915(2) 0.1798(3)
H17G H 0.1301 0.3100 0.1858
C26G C 0.2307(6) 0.2896(2) 0.1311(3)
H18G H 0.2149 0.3083 0.1051
C27G C 0.3056(5) 0.2599(2) 0.1184(3)
C28G C 0.3313(5) 0.23216(19) 0.1602(2)
C29G C 0.4355(6) 0.1709(2) 0.1880(3)
C30G C 0.4956(7) 0.1897(3) -0.0141(3)
H19G H 0.4490 0.1702 0.0009
H20G H 0.5671 0.1827 -0.0050
C31G C 0.4823(8) 0.1921(3) -0.0751(3)
H21G H 0.4985 0.1673 -0.0910
H22G H 0.5286 0.2116 -0.0894
H23G H 0.4112 0.1989 -0.0835
Cl1G Cl 0.4508(2) 0.44818(6) 0.00027(11)
Cl2G Cl 0.15080(19) 0.26910(7) 0.28485(8)
Er1G Er 0.15453(2) 0.384740(8) -0.214348(10)
O10G O 0.3247(4) 0.38137(17) -0.25357(18)
N2G N 0.4261(5) 0.3527(2) -0.3165(3)
C45G C 0.3651(7) 0.3529(3) -0.2731(3)
H33G H 0.3524 0.3291 -0.2564
C46G C 0.4544(10) 0.3898(3) -0.3403(4)
H34G H 0.5186 0.3870 -0.3608
H35G H 0.4665 0.4088 -0.3119
C47G C 0.3669(14) 0.4040(4) -0.3773(6)
H36G H 0.3863 0.4286 -0.3930
H37G H 0.3037 0.4070 -0.3568
H38G H 0.3557 0.3853 -0.4056
C48G C 0.4748(8) 0.3176(3) -0.3387(4)
H39G H 0.4578 0.2956 -0.3157
H40G H 0.5502 0.3208 -0.3382
C49G C 0.4416(10) 0.3085(4) -0.3948(5)
H41G H 0.4760 0.2852 -0.4069
H42G H 0.4600 0.3298 -0.4182
H43G H 0.3672 0.3047 -0.3957
N1G N 0.2531(7) 0.44486(19) -0.1835(3)
C1G C 0.3464(8) 0.4569(3) -0.2071(4)
H1G H 0.3714 0.4443 -0.2379
C2G C 0.4025(9) 0.4877(4) -0.1849(6)
H2G H 0.4649 0.4957 -0.2007
C3G C 0.3652(12) 0.5065(3) -0.1389(6)
H3G H 0.4027 0.5271 -0.1240
C4G C 0.2719(13) 0.4945(3) -0.1153(5)
H4G H 0.2469 0.5071 -0.0846
C5G C 0.2158(9) 0.4637(3) -0.1376(4)
H5G H 0.1534 0.4556 -0.1217
O5E O 0.6377(4) 0.15725(14) 0.2842(2)
O8B O 0.6475(5) 0.07227(14) 0.2879(2)
Er1G_2 Er 1.15453(2) 0.384740(8) -0.214348(10)
Er1E Er 0.84547(2) 0.384740(8) -0.285652(10)
Er1B Er 0.34547(2) 0.115260(8) 0.285652(10)
Er1C Er 0.65453(2) -0.115260(8) -0.214348(10)
Er1A Er 0.34547(2) -0.115260(8) -0.285652(10)
O4_2 O 0.0278(4) 0.34035(18) -0.1873(2)
O5B O 0.1377(4) 0.34275(14) -0.2842(2)
O7G O 0.0195(5) 0.42200(18) -0.1900(2)
O8E O 0.1475(5) 0.42773(14) -0.2879(2)
loop_
_geom_bond_atom_site_label_1
_geom_bond_atom_site_label_2
_geom_bond_site_symmetry_1
_geom_bond_site_symmetry_2
Er1 O1 1_555 1_555
O1 C16 1_555 1_555
O2 Er1 1_555 1_555
O3 C7 1_555 1_555
O4 C29 1_555 1_555
O5 C29 1_555 1_555
O6 C20 1_555 1_555
O7 Er1 1_555 1_555
O8 C42 1_555 1_555
O9 C33 1_555 1_555
O10 Er1 1_555 1_555
N1 Er1 1_555 1_555
C1 N1 1_555 1_555
H1 C1 1_555 1_555
C2 C1 1_555 1_555
H2 C2 1_555 1_555
C3 C2 1_555 1_555
H3 C3 1_555 1_555
C4 C3 1_555 1_555
H4 C4 1_555 1_555
C5 N1 1_555 1_555
H5 C5 1_555 1_555
N2 C45 1_555 1_555
C6 C7 1_555 1_555
C7 C8 1_555 1_555
C8 H6 1_555 1_555
C9 C8 1_555 1_555
C10 H7 1_555 1_555
C11 C10 1_555 1_555
C12 C11 1_555 1_555
H8 C12 1_555 1_555
C13 C12 1_555 1_555
H9 C13 1_555 1_555
C14 C6 1_555 1_555
C15 C9 1_555 1_555
C16 O2 1_555 1_555
C17 O3 1_555 1_555
H10 C17 1_555 1_555
H11 C17 1_555 1_555
C18 C17 1_555 1_555
H12 C18 1_555 1_555
H13 C18 1_555 1_555
H14 C18 1_555 1_555
C19 C6 1_555 1_555
C20 C19 1_555 1_555
C21 C20 1_555 1_555
H15 C21 1_555 1_555
C22 C21 1_555 1_555
C23 H16 1_555 1_555
C24 C23 1_555 1_555
C25 C24 1_555 1_555
H17 C25 1_555 1_555
C26 C25 1_555 1_555
H18 C26 1_555 1_555
C27 C19 1_555 1_555
C28 C22 1_555 1_555
C29 C22 1_555 1_555
C30 O6 1_555 1_555
H19 C30 1_555 1_555
H20 C30 1_555 1_555
C31 C30 1_555 1_555
H21 C31 1_555 1_555
H22 C31 1_555 1_555
H23 C31 1_555 1_555
C32 C33 1_555 1_555
C33 C34 1_555 1_555
C34 H24 1_555 1_555
C35 C34 1_555 1_555
C36 H25 1_555 1_555
C37 C36 1_555 1_555
C38 C37 1_555 1_555
H26 C38 1_555 1_555
C39 C38 1_555 1_555
H27 C39 1_555 1_555
C40 C32 1_555 1_555
C41 C35 1_555 1_555
C42 O7 1_555 1_555
C43 O9 1_555 1_555
H28 C43 1_555 1_555
H29 C43 1_555 1_555
C44 C43 1_555 1_555
H30 C44 1_555 1_555
H31 C44 1_555 1_555
H32 C44 1_555 1_555
C45 O10 1_555 1_555
H33 C45 1_555 1_555
C46 N2 1_555 1_555
H34 C46 1_555 1_555
H35 C46 1_555 1_555
C47 C46 1_555 1_555
H36 C47 1_555 1_555
H37 C47 1_555 1_555
H38 C47 1_555 1_555
C48 N2 1_555 1_555
H39 C48 1_555 1_555
H40 C48 1_555 1_555
C49 C48 1_555 1_555
H41 C49 1_555 1_555
H42 C49 1_555 1_555
H43 C49 1_555 1_555
Cl1 C11 1_555 1_555
Cl2 C24 1_555 1_555
Cl3 C37 1_555 1_555
N4 C53 1_555 1_555
C53 O12 1_555 1_555
C54 N4 1_555 1_555
C55 C54 1_555 1_555
C32C C32 1_555 1_555
C33C C32C 1_555 1_555
O9C C33C 1_555 1_555
C43C O9C 1_555 1_555
H28C C43C 1_555 1_555
H29C C43C 1_555 1_555
C44C C43C 1_555 1_555
H30C C44C 1_555 1_555
H31C C44C 1_555 1_555
H32C C44C 1_555 1_555
C34C C33C 1_555 1_555
H24C C34C 1_555 1_555
C35C C34C 1_555 1_555
C41C C35C 1_555 1_555
C36C C41C 1_555 1_555
H25C C36C 1_555 1_555
C37C C36C 1_555 1_555
C38C C37C 1_555 1_555
H26C C38C 1_555 1_555
C39C C38C 1_555 1_555
H27C C39C 1_555 1_555
C40C C32C 1_555 1_555
Cl3C C37C 1_555 1_555
C42C C35C 1_555 1_555
O7C C42C 1_555 1_555
O8C C42C 1_555 1_555
C53B N4 1_555 1_555
O12B C53B 1_555 1_555
C54B N4 1_555 1_555
C55B C54B 1_555 1_555
O1G C16G 1_555 1_555
O2G C16G 1_555 1_555
O3G C7G 1_555 1_555
O4G Er1 1_555 1_555
O5G C29G 1_555 1_555
O6G C20G 1_555 1_555
C6G C7G 1_555 1_555
C7G C8G 1_555 1_555
C8G H6G 1_555 1_555
C9G C8G 1_555 1_555
C10G H7G 1_555 1_555
C11G C10G 1_555 1_555
C12G C11G 1_555 1_555
H8G C12G 1_555 1_555
C13G C12G 1_555 1_555
H9G C13G 1_555 1_555
C14G C6G 1_555 1_555
C15G C9G 1_555 1_555
C16G C9G 1_555 1_555
C17G O3G 1_555 1_555
H10G C17G 1_555 1_555
H11G C17G 1_555 1_555
C18G C17G 1_555 1_555
H12G C18G 1_555 1_555
H13G C18G 1_555 1_555
H14G C18G 1_555 1_555
C19G C6G 1_555 1_555
C20G C19G 1_555 1_555
C21G C20G 1_555 1_555
H15G C21G 1_555 1_555
C22G C21G 1_555 1_555
C23G H16G 1_555 1_555
C24G C23G 1_555 1_555
C25G C24G 1_555 1_555
H17G C25G 1_555 1_555
C26G C25G 1_555 1_555
H18G C26G 1_555 1_555
C27G C19G 1_555 1_555
C28G C22G 1_555 1_555
C29G O4G 1_555 1_555
C30G O6G 1_555 1_555
H19G C30G 1_555 1_555
H20G C30G 1_555 1_555
C31G C30G 1_555 1_555
H21G C31G 1_555 1_555
H22G C31G 1_555 1_555
H23G C31G 1_555 1_555
Cl1G C11G 1_555 1_555
Cl2G C24G 1_555 1_555
Er1G O1G 1_555 1_555
O10G Er1G 1_555 1_555
N2G C45G 1_555 1_555
C45G O10G 1_555 1_555
H33G C45G 1_555 1_555
C46G N2G 1_555 1_555
H34G C46G 1_555 1_555
H35G C46G 1_555 1_555
C47G C46G 1_555 1_555
H36G C47G 1_555 1_555
H37G C47G 1_555 1_555
H38G C47G 1_555 1_555
C48G N2G 1_555 1_555
H39G C48G 1_555 1_555
H40G C48G 1_555 1_555
C49G C48G 1_555 1_555
H41G C49G 1_555 1_555
H42G C49G 1_555 1_555
H43G C49G 1_555 1_555
N1G Er1G 1_555 1_555
C1G N1G 1_555 1_555
H1G C1G 1_555 1_555
C2G C1G 1_555 1_555
H2G C2G 1_555 1_555
C3G C2G 1_555 1_555
H3G C3G 1_555 1_555
C4G C3G 1_555 1_555
H4G C4G 1_555 1_555
C5G N1G 1_555 1_555
H5G C5G 1_555 1_555
O5E Er1 1_555 1_555
O8B Er1 1_555 1_555
Er1G_2 O4 1_555 1_555
Er1E O5 1_555 1_555
Er1B O8 1_555 1_555
Er1C O7C 1_555 1_555
Er1A O8C 1_555 1_555
O4_2 Er1G 1_555 1_555
O5B Er1G 1_555 1_555
O7G Er1G 1_555 1_555
O8E Er1G 1_555 1_555
C4 C5 1_555 1_555
C9 C16 1_555 1_555
C10 C15 1_555 1_555
C13 C14 1_555 1_555
C14 C15 1_555 1_555
C23 C28 1_555 1_555
C26 C27 1_555 1_555
C27 C28 1_555 1_555
C35 C42 1_555 1_555
C36 C41 1_555 1_555
C39 C40 1_555 1_555
C40 C41 1_555 1_555
C41C C40C 1_555 1_555
C39C C40C 1_555 1_555
O2G Er1G 1_555 1_555
O5G Er1B 1_555 1_555
C10G C15G 1_555 1_555
C13G C14G 1_555 1_555
C14G C15G 1_555 1_555
C22G C29G 1_555 1_555
C23G C28G 1_555 1_555
C26G C27G 1_555 1_555
C27G C28G 1_555 1_555
C4G C5G 1_555 1_555

#END
