
#######################################################################
#
#                 Cambridge Crystallographic Data Centre
#                                CCDC 
#
#######################################################################
#
# If this CIF has been generated from an entry in the Cambridge 
# Structural Database, then it will include bibliographic, chemical, 
# crystal, experimental, refinement or atomic coordinate data resulting 
# from the CCDC's data processing and validation procedures.
#
#######################################################################

data_QUFFED
_chemical_formula_moiety         '(C26 H22 N4 O8 Zn2)n'
_symmetry_cell_setting           monoclinic
_symmetry_space_group_name_H-M   'C 2/c'
_symmetry_Int_Tables_number      15
_space_group_name_Hall           '-C 2yc'
loop_
_symmetry_equiv_pos_site_id
_symmetry_equiv_pos_as_xyz
1 x,y,z
2 -x,y,1/2-z
3 1/2+x,1/2+y,z
4 1/2-x,1/2+y,1/2-z
5 -x,-y,-z
6 x,-y,1/2+z
7 1/2-x,1/2-y,-z
8 1/2+x,1/2-y,1/2+z
_cell_length_a                   14.1713(12)
_cell_length_b                   16.6592(14)
_cell_length_c                   12.4549(9)
_cell_angle_alpha                90
_cell_angle_beta                 108.035(9)
_cell_angle_gamma                90
_cell_volume                     2795.92
loop_
_atom_site_label
_atom_site_type_symbol
_atom_site_fract_x
_atom_site_fract_y
_atom_site_fract_z
C1 C 0.47632(17) 0.24119(14) 0.29549(18)
C2 C 0.87123(18) -0.18927(18) 0.7323(2)
C3 C 0.8076(2) -0.11841(16) 0.7409(2)
C4 C 0.8170(3) -0.0842(2) 0.8452(3)
C5 C 0.7576(3) -0.0193(2) 0.8527(3)
C6 C 0.6889(2) 0.01186(16) 0.7574(3)
C7 C 0.6253(2) 0.08312(16) 0.7645(2)
C8 C 0.6794(2) -0.02263(16) 0.6535(3)
C9 C 0.7391(2) -0.08696(17) 0.6450(3)
N1 N 0.44659(13) 0.21629(11) 0.45867(15)
O1 O 0.92894(14) -0.21682(10) 0.82153(15)
O2 O 0.86045(13) -0.21716(10) 0.63435(15)
O3 O 0.56672(15) 0.10906(11) 0.67458(16)
O4 O 0.63728(15) 0.11247(12) 0.86170(18)
Zn1 Zn 0.461577(19) 0.197617(17) 0.62370(2)
C10 C 0.4018(8) 0.2893(6) 0.3077(8)
C11 C 0.3467(7) 0.3530(6) 0.2305(7)
H1 H 0.271 0.3380 0.201
H2 H 0.375 0.358 0.162
H3 H 0.355 0.408 0.274
C12 C 0.5785(5) 0.1270(5) 0.4242(5)
H4 H 0.614 0.1319 0.494
H5 H 0.616 0.1308 0.382
H6 H 0.5497 0.081 0.414
N2 N 0.3858(10) 0.2730(7) 0.4024(12)
H7 H 0.347 0.2933 0.4229
C13 C 0.5026(4) 0.1915(4) 0.3946(4)
H8 H 0.859 -0.1038 0.912
H9 H 0.769 0.0079 0.923
H10 H 0.630 -0.0047 0.589
H11 H 0.7328 -0.1086 0.578
C1A C 0.52368(17) 0.24119(14) 0.20451(18)
C2B C 0.37123(18) 0.31073(18) 0.7323(2)
C3B C 0.3076(2) 0.38159(16) 0.7409(2)
C4B C 0.3170(3) 0.4158(2) 0.8452(3)
C5B C 0.2576(3) 0.4807(2) 0.8527(3)
C6B C 0.1889(2) 0.51186(16) 0.7574(3)
C7B C 0.1253(2) 0.58312(16) 0.7645(2)
C8B C 0.1794(2) 0.47737(16) 0.6535(3)
C9B C 0.2391(2) 0.41304(17) 0.6450(3)
N1A N 0.55341(13) 0.21629(11) 0.04133(15)
O1B O 0.42894(14) 0.28318(10) 0.82153(15)
O1C O 0.57106(14) 0.28318(10) 0.67847(15)
O1B_2 O 0.42894(14) 0.28318(10) -0.17847(15)
O2B O 0.36045(13) 0.28284(10) 0.63435(15)
O2C O 0.63955(13) 0.28284(10) -0.13435(15)
O3B O 0.06672(15) 0.60906(11) 0.67458(16)
O3A O 0.43328(15) 0.10906(11) -0.17458(16)
O4B O 0.13728(15) 0.61247(12) 0.86170(18)
O4A O 0.36272(15) 0.11247(12) 0.63830(18)
O4_2 O 0.63728(15) 0.11247(12) -0.13830(18)
Zn1A Zn 0.538423(19) 0.197617(17) -0.12370(2)
Zn1C Zn 1.038423(19) -0.302383(17) 0.87630(2)
Zn1B Zn 0.961577(19) -0.302383(17) 0.62370(2)
Zn1A_2 Zn 0.538423(19) 0.197617(17) 0.87630(2)
Zn1B_2 Zn -0.038423(19) 0.697617(17) 0.62370(2)
Zn1C_2 Zn 0.038423(19) 0.697617(17) 0.87630(2)
C10A C 0.5982(8) 0.2893(6) 0.1923(8)
C11A C 0.6533(7) 0.3530(6) 0.2695(7)
H1A H 0.729 0.3380 0.299
H2A H 0.625 0.358 0.338
H3A H 0.645 0.408 0.226
C12A C 0.4215(5) 0.1270(5) 0.0758(5)
H4A H 0.386 0.1319 0.006
H5A H 0.384 0.1308 0.118
H6A H 0.4503 0.081 0.086
N2A N 0.6142(10) 0.2730(7) 0.0976(12)
H7A H 0.653 0.2933 0.0771
C13A C 0.4974(4) 0.1915(4) 0.1054(4)
H8B H 0.359 0.3962 0.912
H9B H 0.269 0.5079 0.923
H10B H 0.130 0.4953 0.589
H11B H 0.2328 0.3914 0.578
loop_
_geom_bond_atom_site_label_1
_geom_bond_atom_site_label_2
_geom_bond_site_symmetry_1
_geom_bond_site_symmetry_2
C1 C10 1_555 1_555
C2 C3 1_555 1_555
C3 C4 1_555 1_555
C4 C5 1_555 1_555
C5 C6 1_555 1_555
C6 C7 1_555 1_555
C7 O3 1_555 1_555
C8 C6 1_555 1_555
C9 C3 1_555 1_555
N1 Zn1 1_555 1_555
O1 C2 1_555 1_555
O2 C2 1_555 1_555
O3 Zn1 1_555 1_555
O4 C7 1_555 1_555
Zn1 O1C 1_555 1_555
C10 C11 1_555 1_555
C11 H1 1_555 1_555
H2 C11 1_555 1_555
H3 C11 1_555 1_555
C12 H4 1_555 1_555
H5 C12 1_555 1_555
H6 C12 1_555 1_555
N2 N1 1_555 1_555
H7 N2 1_555 1_555
C13 C1 1_555 1_555
H8 C4 1_555 1_555
H9 C5 1_555 1_555
H10 C8 1_555 1_555
H11 C9 1_555 1_555
C1A C1 1_555 1_555
C2B C3B 1_555 1_555
C3B C4B 1_555 1_555
C4B C5B 1_555 1_555
C5B C6B 1_555 1_555
C6B C7B 1_555 1_555
C7B O3B 1_555 1_555
C8B C6B 1_555 1_555
C9B C3B 1_555 1_555
N1A Zn1A 1_555 1_555
O1B C2B 1_555 1_555
O1B_2 Zn1A 1_555 1_555
O2B Zn1 1_555 1_555
O2C Zn1A 1_555 1_555
O3B Zn1B_2 1_555 1_555
O3A Zn1A 1_555 1_555
O4B C7B 1_555 1_555
O4A Zn1 1_555 1_555
O4_2 Zn1A 1_555 1_555
Zn1C O1 1_555 1_555
Zn1B O2 1_555 1_555
Zn1A_2 O4 1_555 1_555
Zn1C_2 O4B 1_555 1_555
C10A C1A 1_555 1_555
C11A C10A 1_555 1_555
H1A C11A 1_555 1_555
H2A C11A 1_555 1_555
H3A C11A 1_555 1_555
C12A H4A 1_555 1_555
H5A C12A 1_555 1_555
H6A C12A 1_555 1_555
N2A N1A 1_555 1_555
H7A N2A 1_555 1_555
C13A C1A 1_555 1_555
H8B C4B 1_555 1_555
H9B C5B 1_555 1_555
H10B C8B 1_555 1_555
H11B C9B 1_555 1_555
C8 C9 1_555 1_555
N1 C13 1_555 1_555
C10 N2 1_555 1_555
C12 C13 1_555 1_555
C2B O2B 1_555 1_555
C8B C9B 1_555 1_555
N1A C13A 1_555 1_555
O1B Zn1A_2 1_555 1_555
C10A N2A 1_555 1_555
C12A C13A 1_555 1_555

#END
