
#######################################################################
#
#                 Cambridge Crystallographic Data Centre
#                                CCDC 
#
#######################################################################
#
# If this CIF has been generated from an entry in the Cambridge 
# Structural Database, then it will include bibliographic, chemical, 
# crystal, experimental, refinement or atomic coordinate data resulting 
# from the CCDC's data processing and validation procedures.
#
#######################################################################

data_MOCKEV
_chemical_formula_moiety         '(C16 H10 Cu2 N2 O10)n'
_symmetry_cell_setting           rhombohedral
_symmetry_space_group_name_H-M   'R -3'
_symmetry_Int_Tables_number      148
_space_group_name_Hall           '-R 3'
loop_
_symmetry_equiv_pos_site_id
_symmetry_equiv_pos_as_xyz
1 x,y,z
2 -y,x-y,z
3 -x+y,-x,z
4 2/3+x,1/3+y,1/3+z
5 2/3-y,1/3+x-y,1/3+z
6 2/3-x+y,1/3-x,1/3+z
7 1/3+x,2/3+y,2/3+z
8 1/3-y,2/3+x-y,2/3+z
9 1/3-x+y,2/3-x,2/3+z
10 -x,-y,-z
11 y,-x+y,-z
12 x-y,x,-z
13 1/3-x,2/3-y,2/3-z
14 1/3+y,2/3-x+y,2/3-z
15 1/3+x-y,2/3+x,2/3-z
16 2/3-x,1/3-y,1/3-z
17 2/3+y,1/3-x+y,1/3-z
18 2/3+x-y,1/3+x,1/3-z
_cell_length_a                   18.799(15)
_cell_length_b                   18.799(15)
_cell_length_c                   30.61(4)
_cell_angle_alpha                90
_cell_angle_beta                 90
_cell_angle_gamma                120.00
_cell_volume                     9368.36
loop_
_atom_site_label
_atom_site_type_symbol
_atom_site_fract_x
_atom_site_fract_y
_atom_site_fract_z
Cu1 Cu -0.52247(10) -0.47756(10) 0.03636(5)
O1 O -0.3748(6) -0.4868(6) -0.0083(3)
C1 C -0.2818(9) -0.4283(8) 0.0524(6)
C2 C -0.1484(10) -0.4326(8) 0.0542(6)
C3 C -0.2222(12) -0.4488(7) 0.0326(5)
H1 H -0.0998 -0.1934 0.3285
O2 O -0.5496(11) -0.4494(11) 0.1004(6)
C4 C -0.2627(10) -0.3986(8) 0.0933(7)
H2 H -0.3000 -0.3882 0.1085
C5 C -0.3558(10) -0.4523(7) 0.0287(6)
N1 N -0.173(5) -0.343(5) 0.1530(14)
C6 C -0.1303(12) -0.3939(9) 0.0948(6)
H3 H -0.0795 -0.3762 0.1087
C7 C -0.1923(13) -0.3829(10) 0.1140(5)
O3 O -0.2196(6) -0.1813(6) 0.3419(3)
C8 C -0.2427(9) -0.2120(8) 0.3037(6)
O4 O -0.3002(5) -0.2214(5) 0.2782(3)
O5 O -0.4090(6) -0.4408(5) 0.0537(3)
H4 H -0.575(5) -0.425(5) 0.096(4)
H5 H -0.545(7) -0.450(7) 0.1263(10)
Cu1I Cu -0.47753(10) -0.52244(10) -0.03636(5)
Cu1E Cu -0.28842(14) -0.14420(10) 0.36969(5)
Cu1Q Cu -0.37824(14) -0.18914(10) 0.29697(5)
Cu1C Cu 0.14420(10) -0.14423(10) 0.36969(5)
Cu1O Cu 0.18914(10) -0.18911(10) 0.29697(5)
Cu1K Cu -0.04491(14) -0.52247(10) -0.03636(5)
Cu1B Cu 0.04491(14) -0.47753(10) 0.03636(5)
O1I O -0.6252(6) -0.5132(6) 0.0083(3)
O1Q O -0.2213(8) -0.0415(6) 0.3416(3)
O1O O 0.0415(6) -0.1799(6) 0.3416(3)
C1O C -0.0515(9) -0.2384(8) 0.2809(6)
C2O C -0.1849(10) -0.2341(8) 0.2791(6)
C3O C -0.1111(12) -0.2179(7) 0.3007(5)
H1O H -0.2335 -0.4733 0.0048
O2E O -0.2331(16) -0.1171(11) 0.4337(6)
C4O C -0.0706(10) -0.2681(8) 0.2400(7)
H2O H -0.0333 -0.2785 0.2248
C5O C 0.0225(10) -0.2144(7) 0.3046(6)
N1O N -0.160(5) -0.324(5) 0.1803(14)
C6O C -0.2030(12) -0.2728(9) 0.2385(6)
H3O H -0.2538 -0.2905 0.2246
C7O C -0.1410(13) -0.2838(10) 0.2193(5)
O3G O -0.4854(6) -0.3716(8) 0.0086(3)
O3O O -0.1137(6) -0.4854(6) -0.0086(3)
C8O C -0.0906(9) -0.4547(8) 0.0296(6)
O4P O -0.5547(5) -0.5879(7) 0.0551(3)
O4L O -0.3665(5) -0.1119(5) 0.3885(3)
O4O O -0.0331(5) -0.4453(5) 0.0551(3)
O5E O -0.3651(8) -0.2577(6) 0.3870(3)
O5O O 0.0757(6) -0.2259(5) 0.2796(3)
H4E H -0.183(7) -0.092(5) 0.429(4)
H5E H -0.238(10) -0.122(7) 0.4596(10)
loop_
_geom_bond_atom_site_label_1
_geom_bond_atom_site_label_2
_geom_bond_site_symmetry_1
_geom_bond_site_symmetry_2
Cu1 O2 1_555 1_555
O1 C5 1_555 1_555
C1 C3 1_555 1_555
C2 C3 1_555 1_555
C3 H1O 1_555 1_555
H1 C3O 1_555 1_555
O2 H4 1_555 1_555
C4 C1 1_555 1_555
H2 C4 1_555 1_555
C5 C1 1_555 1_555
N1 C7 1_555 1_555
C6 C2 1_555 1_555
H3 C6 1_555 1_555
C7 C4 1_555 1_555
O3 C8 1_555 1_555
C8 O4 1_555 1_555
O4 Cu1Q 1_555 1_555
O5 Cu1 1_555 1_555
H5 O2 1_555 1_555
Cu1I Cu1 1_555 1_555
Cu1E O3 1_555 1_555
Cu1Q Cu1E 1_555 1_555
Cu1C Cu1O 1_555 1_555
Cu1O O5O 1_555 1_555
Cu1K Cu1B 1_555 1_555
Cu1B O4O 1_555 1_555
O1I Cu1 1_555 1_555
O1Q Cu1E 1_555 1_555
O1O Cu1C 1_555 1_555
C1O C3O 1_555 1_555
C2O C8 1_555 1_555
C3O C2O 1_555 1_555
O2E Cu1E 1_555 1_555
C4O C1O 1_555 1_555
H2O C4O 1_555 1_555
C5O O1O 1_555 1_555
N1O N1 1_555 1_555
C6O C2O 1_555 1_555
H3O C6O 1_555 1_555
C7O C4O 1_555 1_555
O3G Cu1 1_555 1_555
O3O Cu1K 1_555 1_555
C8O C2 1_555 1_555
O4P Cu1 1_555 1_555
O4L Cu1E 1_555 1_555
O4O C8O 1_555 1_555
O5E Cu1E 1_555 1_555
O5O C5O 1_555 1_555
H4E O2E 1_555 1_555
H5E O2E 1_555 1_555
O1 Cu1I 1_555 1_555
C5 O5 1_555 1_555
C6 C7 1_555 1_555
C1O C5O 1_555 1_555
N1O C7O 1_555 1_555
C6O C7O 1_555 1_555
O3O C8O 1_555 1_555

#END
