
#######################################################################
#
#                 Cambridge Crystallographic Data Centre
#                                CCDC 
#
#######################################################################
#
# If this CIF has been generated from an entry in the Cambridge 
# Structural Database, then it will include bibliographic, chemical, 
# crystal, experimental, refinement or atomic coordinate data resulting 
# from the CCDC's data processing and validation procedures.
#
#######################################################################

data_HARHOA
_chemical_formula_moiety         '(C60 H58 K2 N5 O27 Zn3 1-)n'
_symmetry_cell_setting           monoclinic
_symmetry_space_group_name_H-M   'C 2/c'
_symmetry_Int_Tables_number      15
_space_group_name_Hall           '-C 2yc'
loop_
_symmetry_equiv_pos_site_id
_symmetry_equiv_pos_as_xyz
1 x,y,z
2 -x,y,1/2-z
3 1/2+x,1/2+y,z
4 1/2-x,1/2+y,1/2-z
5 -x,-y,-z
6 x,-y,1/2+z
7 1/2-x,1/2-y,-z
8 1/2+x,1/2-y,1/2+z
_cell_length_a                   29.1925(8)
_cell_length_b                   10.4327(3)
_cell_length_c                   26.0659(7)
_cell_angle_alpha                90
_cell_angle_beta                 114.2340(10)
_cell_angle_gamma                90
_cell_volume                     7238.97
loop_
_atom_site_label
_atom_site_type_symbol
_atom_site_fract_x
_atom_site_fract_y
_atom_site_fract_z
Zn1 Zn 0.0000 -0.88595(8) 0.2500
Zn2 Zn -0.17895(2) -0.37417(5) 0.25321(2)
K1 K -0.22672(5) -0.63590(12) 0.31356(6)
O1 O 0.1066(7) -1.2123(15) 0.2751(7)
O2 O 0.18547(15) -1.2699(5) 0.31273(16)
O3 O 0.06676(15) -0.9672(4) 0.28620(16)
O4 O 0.03240(16) -1.0921(5) 0.3293(2)
O5 O 0.2035(2) -0.6104(4) 0.6700(2)
O6 O 0.19605(17) -0.7893(5) 0.70860(17)
O7 O 0.27870(13) -0.9781(4) 0.70913(14)
O8 O 0.21275(16) -1.1077(4) 0.67946(17)
O9 O 0.00487(19) -0.8022(5) 0.31907(17)
O10 O -0.05503(16) -0.6657(4) 0.27007(16)
O11 O -0.11185(15) -0.4334(4) 0.30267(17)
O12 O -0.13576(15) -0.6319(4) 0.31123(18)
C1 C 0.1763(2) -1.0023(5) 0.4673(2)
C2 C 0.1305(2) -0.9929(5) 0.4211(2)
H1 H 0.1058 -0.9391 0.4231
C3 C 0.12034(19) -1.0616(5) 0.3719(2)
C4 C 0.15782(19) -1.1405(5) 0.3683(2)
C5 C 0.2034(2) -1.1485(6) 0.4142(2)
H2 H 0.2283 -1.2008 0.4121
C6 C 0.2132(2) -1.0811(7) 0.4635(2)
H3 H 0.2442 -1.0885 0.4938
C7 C 0.0689(2) -1.0432(5) 0.3251(2)
C8 C 0.1479(2) -1.2213(5) 0.3170(2)
C9 C 0.1853(2) -0.9313(5) 0.5197(2)
C10 C 0.20495(19) -0.9946(5) 0.57159(19)
H4 H 0.2135 -1.0807 0.5728
C11 C 0.21204(18) -0.9324(5) 0.62124(19)
C12 C 0.1994(2) -0.8027(5) 0.6196(2)
C13 C 0.1814(3) -0.7379(6) 0.5688(2)
H5 H 0.1742 -0.6509 0.5680
C14 C 0.1738(3) -0.8012(6) 0.5192(2)
H6 H 0.1610 -0.7566 0.4853
C15 C 0.23448(19) -1.0116(5) 0.67411(19)
C16 C 0.2008(2) -0.7303(6) 0.6701(2)
C17 C -0.0036(2) -0.5299(5) 0.4726(2)
C18 C -0.04667(19) -0.5087(5) 0.4241(2)
H7 H -0.0713 -0.4546 0.4258
C19 C -0.05433(19) -0.5658(5) 0.3728(2)
C20 C -0.0180(2) -0.6465(5) 0.3693(2)
C21 C 0.0248(2) -0.6682(7) 0.4176(2)
H8 H 0.0493 -0.7232 0.4160
C22 C 0.0323(3) -0.6108(7) 0.4682(2)
H9 H 0.0619 -0.6267 0.4997
C23 C -0.10475(19) -0.5446(5) 0.3242(2)
C24 C -0.0240(2) -0.7081(5) 0.3151(2)
O13 O -0.1786(3) -0.6323(8) 0.4283(4)
N1 N -0.1126(4) -0.6934(10) 0.5017(4)
C25 C -0.1391(5) -0.6914(13) 0.4500(6)
H10 H -0.1282 -0.7378 0.4267
C26 C -0.0661(5) -0.7558(12) 0.5332(5)
H11 H -0.0557 -0.8027 0.5080
H12 H -0.0700 -0.8138 0.5596
H13 H -0.0410 -0.6929 0.5530
C27 C -0.1282(5) -0.6156(11) 0.5372(5)
H14 H -0.1529 -0.5548 0.5146
H15 H -0.0996 -0.5707 0.5639
H16 H -0.1423 -0.6693 0.5569
O9D O -0.00487(19) -0.1978(5) 0.68093(17)
O10D O 0.05503(16) -0.3343(4) 0.72993(16)
O11D O 0.11185(15) -0.5666(4) 0.69733(17)
O12D O 0.13576(15) -0.3681(4) 0.68877(18)
C17D C 0.0036(2) -0.4701(5) 0.5274(2)
C18D C 0.04667(19) -0.4913(5) 0.5759(2)
H7D H 0.0713 -0.5454 0.5742
C19D C 0.05433(19) -0.4342(5) 0.6272(2)
C20D C 0.0180(2) -0.3535(5) 0.6307(2)
C21D C -0.0248(2) -0.3318(7) 0.5824(2)
H8D H -0.0493 -0.2768 0.5840
C22D C -0.0323(3) -0.3892(7) 0.5318(2)
H9D H -0.0619 -0.3733 0.5003
C23D C 0.10475(19) -0.4554(5) 0.6758(2)
C24D C 0.0240(2) -0.2919(5) 0.6849(2)
O1A O -0.1066(7) -1.2123(15) 0.2249(7)
O2A O -0.18547(15) -1.2699(5) 0.18727(16)
O3A O -0.06676(15) -0.9672(4) 0.21380(16)
O4A O -0.03240(16) -1.0921(5) 0.1707(2)
O5A O -0.2035(2) -0.6104(4) -0.1700(2)
O6A O -0.19605(17) -0.7893(5) -0.20860(17)
O7A O -0.27870(13) -0.9781(4) -0.20913(14)
O8A O -0.21275(16) -1.1077(4) -0.17946(17)
C1A C -0.1763(2) -1.0023(5) 0.0327(2)
C2A C -0.1305(2) -0.9929(5) 0.0789(2)
H1A H -0.1058 -0.9391 0.0769
C3A C -0.12034(19) -1.0616(5) 0.1281(2)
C4A C -0.15782(19) -1.1405(5) 0.1317(2)
C5A C -0.2034(2) -1.1485(6) 0.0858(2)
H2A H -0.2283 -1.2008 0.0879
C6A C -0.2132(2) -1.0811(7) 0.0365(2)
H3A H -0.2442 -1.0885 0.0062
C7A C -0.0689(2) -1.0432(5) 0.1749(2)
C8A C -0.1479(2) -1.2213(5) 0.1830(2)
C9A C -0.1853(2) -0.9313(5) -0.0197(2)
C10A C -0.20495(19) -0.9946(5) -0.07159(19)
H4A H -0.2135 -1.0807 -0.0728
C11A C -0.21204(18) -0.9324(5) -0.12124(19)
C12A C -0.1994(2) -0.8027(5) -0.1196(2)
C13A C -0.1814(3) -0.7379(6) -0.0688(2)
H5A H -0.1742 -0.6509 -0.0680
C14A C -0.1738(3) -0.8012(6) -0.0192(2)
H6A H -0.1610 -0.7566 0.0147
C15A C -0.23448(19) -1.0116(5) -0.17411(19)
C16A C -0.2008(2) -0.7303(6) -0.1701(2)
K1B K 0.27328(5) -1.13590(12) 0.31356(6)
O13B O 0.3214(3) -1.1323(8) 0.4283(4)
N1B N 0.3874(4) -1.1934(10) 0.5017(4)
C25B C 0.3609(5) -1.1914(13) 0.4500(6)
H10B H 0.3718 -1.2378 0.4267
C26B C 0.4339(5) -1.2558(12) 0.5332(5)
H11B H 0.4443 -1.3027 0.5080
H12B H 0.4300 -1.3138 0.5596
H13B H 0.4590 -1.1929 0.5530
C27B C 0.3718(5) -1.1156(11) 0.5372(5)
H14B H 0.3471 -1.0548 0.5146
H15B H 0.4004 -1.0707 0.5639
H16B H 0.3577 -1.1693 0.5569
Zn2A Zn 0.17895(2) -1.37417(5) 0.24679(2)
Zn1D Zn 0.0000 -0.11405(8) 0.7500
Zn2_2 Zn -0.17895(2) -1.37417(5) 0.25321(2)
Zn2D Zn 0.17895(2) -0.62583(5) 0.74679(2)
Zn2E Zn -0.17895(2) -0.62583(5) -0.24679(2)
Zn2F Zn -0.32105(2) -1.12583(5) -0.25321(2)
Zn2G Zn 0.32105(2) -1.12583(5) 0.75321(2)
K1C K -0.27328(5) -1.13590(12) 0.18644(6)
K1D K 0.22672(5) -1.36410(12) 0.68644(6)
K1D_2 K 0.22672(5) -0.36410(12) 0.68644(6)
K1E K -0.22672(5) -1.36410(12) -0.18644(6)
K1E_2 K -0.22672(5) -0.36410(12) -0.18644(6)
K1F K -0.27328(5) -0.86410(12) -0.31356(6)
K1G K 0.27328(5) -0.86410(12) 0.81356(6)
O2A_2 O -0.18547(15) -0.2699(5) 0.18727(16)
O2B O -0.31453(15) -0.7699(5) 0.31273(16)
O5D O -0.2035(2) -0.3896(4) 0.3300(2)
O5E O 0.2035(2) -1.3896(4) 0.1700(2)
O5F O 0.2965(2) -0.8896(4) 0.3300(2)
O6D O -0.19605(17) -0.2107(5) 0.29140(17)
O6E O 0.19605(17) -1.2107(5) 0.20860(17)
O6G O -0.30395(17) -0.7107(5) 0.20860(17)
O7E O 0.27870(13) -1.0219(4) 0.20913(14)
O7F O 0.22130(13) -1.5219(4) 0.29087(14)
O7G O -0.22130(13) -0.5219(4) 0.20913(14)
O8D O -0.21275(16) -0.8923(4) 0.32054(17)
O8F O 0.28725(16) -1.3923(4) 0.32054(17)
O9A O -0.00487(19) -0.8022(5) 0.18093(17)
O11A O 0.11185(15) -1.4334(4) 0.19733(17)
O12B O 0.36424(15) -1.1319(4) 0.31123(18)
N2 N -0.0649(6) -0.0650(14) 0.3355(6)
H17 H -0.0760 -0.0913 0.2995
H18 H -0.0336 -0.0346 0.3451
C28 C -0.0937(7) 0.0361(17) 0.3360(7)
H19 H -0.1099 0.0181 0.3607
H20 H -0.1187 0.0510 0.2987
H21 H -0.0730 0.1109 0.3490
C29 C -0.0607(7) -0.1644(17) 0.3651(7)
H22 H -0.0654 -0.1418 0.3983
H23 H -0.0279 -0.2010 0.3756
H24 H -0.0858 -0.2259 0.3437
N3 N 0.1540(4) -0.7017(9) 0.3033(4)
H25 H 0.1738 -0.6428 0.2973
H26 H 0.1235 -0.6960 0.2746
C30 C 0.1492(4) -0.6701(11) 0.3523(5)
H27 H 0.1218 -0.7170 0.3544
H28 H 0.1429 -0.5798 0.3526
H29 H 0.1797 -0.6913 0.3841
C31 C 0.1747(4) -0.8298(11) 0.3015(5)
H30 H 0.2037 -0.8447 0.3359
H31 H 0.1840 -0.8342 0.2703
H32 H 0.1497 -0.8938 0.2972
N4 N 0.0000 0.6897(12) 0.2500
H33 H -0.0270 0.7407 0.2415
C32 C 0.0063(4) 0.6168(9) 0.2981(4)
H34 H -0.0248 0.5756 0.2924
H35 H 0.0162 0.6722 0.3303
H36 H 0.0317 0.5530 0.3043
H33A H 0.0270 0.7407 0.2585
C32A C -0.0063(4) 0.6168(9) 0.2019(4)
H34A H 0.0248 0.5756 0.2076
H35A H -0.0162 0.6722 0.1697
H36A H -0.0317 0.5530 0.1957
O15 O 0.0150(10) 0.0295(10) 0.4891(5)
loop_
_geom_bond_atom_site_label_1
_geom_bond_atom_site_label_2
_geom_bond_site_symmetry_1
_geom_bond_site_symmetry_2
Zn1 O3 1_555 1_555
Zn2 O11 1_555 1_555
K1 O12 1_555 1_555
O1 C8 1_555 1_555
O2 C8 1_555 1_555
O3 C7 1_555 1_555
O4 C7 1_555 1_555
O5 C16 1_555 1_555
O6 C16 1_555 1_555
O7 C15 1_555 1_555
O8 C15 1_555 1_555
O9 Zn1 1_555 1_555
O10 C24 1_555 1_555
O11 C23 1_555 1_555
O12 C23 1_555 1_555
C1 C2 1_555 1_555
C2 H1 1_555 1_555
C3 C2 1_555 1_555
C4 C3 1_555 1_555
C5 C4 1_555 1_555
H2 C5 1_555 1_555
C6 C1 1_555 1_555
H3 C6 1_555 1_555
C7 C3 1_555 1_555
C8 C4 1_555 1_555
C9 C1 1_555 1_555
C10 C9 1_555 1_555
H4 C10 1_555 1_555
C11 C10 1_555 1_555
C12 C11 1_555 1_555
C13 C12 1_555 1_555
H5 C13 1_555 1_555
C14 C9 1_555 1_555
H6 C14 1_555 1_555
C15 C11 1_555 1_555
C16 C12 1_555 1_555
C17 C18 1_555 1_555
C18 H7 1_555 1_555
C19 C18 1_555 1_555
C20 C19 1_555 1_555
C21 C20 1_555 1_555
H8 C21 1_555 1_555
C22 C17 1_555 1_555
H9 C22 1_555 1_555
C23 C19 1_555 1_555
C24 O9 1_555 1_555
O13 K1 1_555 1_555
N1 C25 1_555 1_555
C25 O13 1_555 1_555
H10 C25 1_555 1_555
C26 N1 1_555 1_555
H11 C26 1_555 1_555
H12 C26 1_555 1_555
H13 C26 1_555 1_555
C27 N1 1_555 1_555
H14 C27 1_555 1_555
H15 C27 1_555 1_555
H16 C27 1_555 1_555
N2 H17 1_555 1_555
H18 N2 1_555 1_555
C28 N2 1_555 1_555
H19 C28 1_555 1_555
H20 C28 1_555 1_555
H21 C28 1_555 1_555
C29 N2 1_555 1_555
H22 C29 1_555 1_555
H23 C29 1_555 1_555
H24 C29 1_555 1_555
N3 H25 1_555 1_555
H26 N3 1_555 1_555
C30 N3 1_555 1_555
H27 C30 1_555 1_555
H28 C30 1_555 1_555
H29 C30 1_555 1_555
C31 N3 1_555 1_555
H30 C31 1_555 1_555
H31 C31 1_555 1_555
H32 C31 1_555 1_555
N4 H33 1_555 1_555
C32 N4 1_555 1_555
H34 C32 1_555 1_555
H35 C32 1_555 1_555
H36 C32 1_555 1_555
O9D C24D 1_555 1_555
O10D C24D 1_555 1_555
O11D C23D 1_555 1_555
O12D C23D 1_555 1_555
C17D C17 1_555 1_555
C18D C17D 1_555 1_555
H7D C18D 1_555 1_555
C19D C18D 1_555 1_555
C20D C19D 1_555 1_555
C21D C20D 1_555 1_555
H8D C21D 1_555 1_555
C22D C17D 1_555 1_555
H9D C22D 1_555 1_555
C23D C19D 1_555 1_555
C24D C20D 1_555 1_555
O1A C8A 1_555 1_555
O2A C8A 1_555 1_555
O3A Zn1 1_555 1_555
O4A C7A 1_555 1_555
O5A C16A 1_555 1_555
O6A C16A 1_555 1_555
O7A C15A 1_555 1_555
O8A C15A 1_555 1_555
C1A C2A 1_555 1_555
C2A H1A 1_555 1_555
C3A C2A 1_555 1_555
C4A C3A 1_555 1_555
C5A C4A 1_555 1_555
H2A C5A 1_555 1_555
C6A C1A 1_555 1_555
H3A C6A 1_555 1_555
C7A O3A 1_555 1_555
C8A C4A 1_555 1_555
C9A C1A 1_555 1_555
C10A C9A 1_555 1_555
H4A C10A 1_555 1_555
C11A C10A 1_555 1_555
C12A C11A 1_555 1_555
C13A C12A 1_555 1_555
H5A C13A 1_555 1_555
C14A C9A 1_555 1_555
H6A C14A 1_555 1_555
C15A C11A 1_555 1_555
C16A C12A 1_555 1_555
K1B O2 1_555 1_555
O13B K1B 1_555 1_555
N1B C25B 1_555 1_555
C25B O13B 1_555 1_555
H10B C25B 1_555 1_555
C26B N1B 1_555 1_555
H11B C26B 1_555 1_555
H12B C26B 1_555 1_555
H13B C26B 1_555 1_555
C27B N1B 1_555 1_555
H14B C27B 1_555 1_555
H15B C27B 1_555 1_555
H16B C27B 1_555 1_555
Zn2A O2 1_555 1_555
Zn1D O9D 1_555 1_555
Zn2_2 O2A 1_555 1_555
Zn2D O5 1_555 1_555
Zn2E O5A 1_555 1_555
Zn2F O7A 1_555 1_555
Zn2G O7 1_555 1_555
K1C O2A 1_555 1_555
K1D O8 1_555 1_555
K1D_2 O5 1_555 1_555
K1E O8A 1_555 1_555
K1E_2 O5A 1_555 1_555
K1F O6A 1_555 1_555
K1G O6 1_555 1_555
O2A_2 Zn2 1_555 1_555
O2B K1 1_555 1_555
O5D Zn2 1_555 1_555
O5E Zn2A 1_555 1_555
O5F K1B 1_555 1_555
O6D Zn2 1_555 1_555
O6E K1B 1_555 1_555
O6G K1 1_555 1_555
O7E K1B 1_555 1_555
O7F Zn2A 1_555 1_555
O7G Zn2 1_555 1_555
O8D K1 1_555 1_555
O8F K1B 1_555 1_555
O9A Zn1 1_555 1_555
O11A Zn2A 1_555 1_555
O12B K1B 1_555 1_555
H33A N4 1_555 1_555
C32A N4 1_555 1_555
H34A C32A 1_555 1_555
H35A C32A 1_555 1_555
H36A C32A 1_555 1_555
K1 O5D 1_555 1_555
K1 O7G 1_555 1_555
O6 Zn2D 1_555 1_555
O7 K1G 1_555 1_555
C5 C6 1_555 1_555
C13 C14 1_555 1_555
C20 C24 1_555 1_555
C21 C22 1_555 1_555
O11D Zn2D 1_555 1_555
O12D K1D_2 1_555 1_555
C21D C22D 1_555 1_555
O6A Zn2E 1_555 1_555
O7A K1F 1_555 1_555
C3A C7A 1_555 1_555
C5A C6A 1_555 1_555
C13A C14A 1_555 1_555
Zn2A O6E 1_555 1_555

#END
