
#######################################################################
#
#                 Cambridge Crystallographic Data Centre
#                                CCDC 
#
#######################################################################
#
# If this CIF has been generated from an entry in the Cambridge 
# Structural Database, then it will include bibliographic, chemical, 
# crystal, experimental, refinement or atomic coordinate data resulting 
# from the CCDC's data processing and validation procedures.
#
#######################################################################

data_ATUZEW
_chemical_formula_moiety         'C30 H10 Cu8 O24'
_symmetry_cell_setting           rhombohedral
_symmetry_space_group_name_H-M   'R -3 m'
_symmetry_Int_Tables_number      166
_space_group_name_Hall           '-R 3 2"'
loop_
_symmetry_equiv_pos_site_id
_symmetry_equiv_pos_as_xyz
1 x,y,z
2 -y,x-y,z
3 y,x,-z
4 -x+y,-x,z
5 x-y,-y,-z
6 -x,-x+y,-z
7 2/3+x,1/3+y,1/3+z
8 2/3-y,1/3+x-y,1/3+z
9 2/3+y,1/3+x,1/3-z
10 2/3-x+y,1/3-x,1/3+z
11 2/3+x-y,1/3-y,1/3-z
12 2/3-x,1/3-x+y,1/3-z
13 1/3+x,2/3+y,2/3+z
14 1/3-y,2/3+x-y,2/3+z
15 1/3+y,2/3+x,2/3-z
16 1/3-x+y,2/3-x,2/3+z
17 1/3+x-y,2/3-y,2/3-z
18 1/3-x,2/3-x+y,2/3-z
19 -x,-y,-z
20 y,-x+y,-z
21 -y,-x,z
22 x-y,x,-z
23 -x+y,y,z
24 x,x-y,z
25 1/3-x,2/3-y,2/3-z
26 1/3+y,2/3-x+y,2/3-z
27 1/3-y,2/3-x,2/3+z
28 1/3+x-y,2/3+x,2/3-z
29 1/3-x+y,2/3+y,2/3+z
30 1/3+x,2/3+x-y,2/3+z
31 2/3-x,1/3-y,1/3-z
32 2/3+y,1/3-x+y,1/3-z
33 2/3-y,1/3-x,1/3+z
34 2/3+x-y,1/3+x,1/3-z
35 2/3-x+y,1/3+y,1/3+z
36 2/3+x,1/3+x-y,1/3+z
_cell_length_a                   18.6923(4)
_cell_length_b                   18.6923(4)
_cell_length_c                   38.2023(6)
_cell_angle_alpha                90
_cell_angle_beta                 90
_cell_angle_gamma                120
_cell_volume                     11559.7
loop_
_atom_site_label
_atom_site_type_symbol
_atom_site_fract_x
_atom_site_fract_y
_atom_site_fract_z
Cu1 Cu 0.476899(16) 0.523101(16) 0.528733(13)
O1 O 0.58928(16) 0.5568(2) 0.54377(6)
O2 O 0.44438(15) 0.55562(15) 0.57715(10)
H1 H 0.4104 0.5136 0.5873
C1 C 0.8214(3) 0.6428(5) 0.63146(16)
C2 C 0.7194(2) 0.5671(2) 0.54309(9)
C3 C 0.6394(2) 0.5458(2) 0.52595(8)
C4 C 0.77536(17) 0.5507(3) 0.52638(12)
H2 H 0.7643 0.5286 0.5039
C5 C 0.8065(2) 0.6130(4) 0.59452(16)
C6 C 0.7351(2) 0.5979(3) 0.57705(10)
H3 H 0.6972 0.6086 0.5883
C7 C 0.8990(6) 0.7016(8) 0.6434(2)
C8 C 0.7570(5) 0.6070(7) 0.6554(2)
O3 O 1.0471(6) 0.7783(8) 0.6274(2)
O4 O 0.9680(7) 0.7762(7) 0.5933(3)
C9 C 0.9777(13) 0.7646(16) 0.6181(5)
O5 O 0.62854(17) 0.5174(2) 0.49549(6)
O1V O 0.96752(26) 0.5568(2) 0.54377(6)
C2V C 0.8477(3) 0.5671(2) 0.54309(9)
C3V C 0.9064(3) 0.5458(2) 0.52595(8)
C6V C 0.8628(4) 0.5979(3) 0.57705(10)
H3V H 0.9114 0.6086 0.5883
C7V C 0.8026(10) 0.7016(8) 0.6434(2)
C8V C 0.8500(9) 0.6070(7) 0.6554(2)
O3V O 0.7312(10) 0.7783(8) 0.6274(2)
O4V O 0.8082(10) 0.7762(7) 0.5933(3)
C9V C 0.7869(21) 0.7646(16) 0.6181(5)
O5V O 0.88886(26) 0.5174(2) 0.49549(6)
O1DA O 1.07739(16) 0.7765(2) 0.78956(6)
C1J C 0.8453(6) 0.6905(5) 0.70187(16)
C2DA C 0.9473(2) 0.7662(2) 0.79024(9)
C3DA C 1.0273(2) 0.7875(2) 0.80738(8)
C4J C 0.89133(34) 0.7826(3) 0.80695(12)
H2J H 0.9024 0.8047 0.8294
C5J C 0.8602(4) 0.7203(4) 0.73881(16)
C6DA C 0.9316(2) 0.7354(3) 0.75628(10)
H3DA H 0.9695 0.7247 0.7450
C7DA C 0.7677(6) 0.6317(8) 0.6899(2)
C8DA C 0.9097(5) 0.7263(7) 0.6779(2)
O3DA O 0.6196(6) 0.5550(8) 0.7059(2)
O4DA O 0.6987(7) 0.5571(7) 0.7400(3)
C9DA C 0.6890(13) 0.5687(16) 0.7152(5)
O5DA O 1.03813(17) 0.8159(2) 0.83784(6)
O1J O 0.69915(26) 0.7765(2) 0.78956(6)
C2J C 0.8190(3) 0.7662(2) 0.79024(9)
C3J C 0.7603(3) 0.7875(2) 0.80738(8)
C6J C 0.8039(4) 0.7354(3) 0.75628(10)
H3J H 0.7553 0.7247 0.7450
C7J C 0.8641(10) 0.6317(8) 0.6899(2)
C8J C 0.8167(9) 0.7263(7) 0.6779(2)
O3J O 0.9355(10) 0.5550(8) 0.7059(2)
O4J O 0.8585(10) 0.5571(7) 0.7400(3)
C9J C 0.8798(21) 0.5687(16) 0.7152(5)
O5J O 0.77781(26) 0.8159(2) 0.83784(6)
H1T H 0.4864 0.5896 0.5873
Cu1B Cu 0.523101(16) 0.476899(16) 0.471267(13)
O2B O 0.55562(15) 0.44438(15) 0.42285(10)
H1B H 0.5136 0.4104 0.4127
H1R H 0.5896 0.4864 0.4127
Cu1C Cu 1.046202(23) 0.523101(16) 0.528733(13)
Cu1D Cu 0.953798(23) 0.476899(16) 0.471267(13)
Cu1F Cu 1.143566(16) 0.856434(16) 0.862066(13)
Cu1H Cu 1.189768(16) 0.810232(16) 0.804600(13)
Cu1I Cu 0.712869(23) 0.856434(16) 0.862066(13)
Cu1J Cu 0.620465(23) 0.810232(16) 0.804600(13)
O1B O 0.5568(2) 0.58928(16) 0.45623(6)
O1R O 0.41072(16) 0.4432(2) 0.45623(6)
O1T O 0.4432(2) 0.41072(16) 0.54377(6)
O5B O 0.5174(2) 0.62854(17) 0.50451(6)
O5R O 0.37146(17) 0.4826(2) 0.50451(6)
O5T O 0.4826(2) 0.37146(17) 0.49549(6)
loop_
_geom_bond_atom_site_label_1
_geom_bond_atom_site_label_2
_geom_bond_site_symmetry_1
_geom_bond_site_symmetry_2
Cu1 O1 1_555 1_555
O1 C3 1_555 1_555
O2 Cu1 1_555 1_555
H1 O2 1_555 1_555
C1 C5 1_555 1_555
C2 C3 1_555 1_555
C3 O5 1_555 1_555
C4 C2 1_555 1_555
H2 C4 1_555 1_555
C5 C6 1_555 1_555
C6 C2 1_555 1_555
H3 C6 1_555 1_555
C7 C1 1_555 1_555
C8 C1 1_555 1_555
O3 C9 1_555 1_555
O4 C9 1_555 1_555
C9 C7 1_555 1_555
O5 Cu1B 1_555 1_555
O1V C3V 1_555 1_555
C2V C4 1_555 1_555
C3V C2V 1_555 1_555
C6V C5 1_555 1_555
H3V C6V 1_555 1_555
C7V C1 1_555 1_555
C8V C1 1_555 1_555
O3V C9V 1_555 1_555
O4V C9V 1_555 1_555
C9V C7V 1_555 1_555
O5V C3V 1_555 1_555
O1DA C3DA 1_555 1_555
C1J C5J 1_555 1_555
C2DA C3DA 1_555 1_555
C3DA O5DA 1_555 1_555
C4J C2DA 1_555 1_555
H2J C4J 1_555 1_555
C5J C6DA 1_555 1_555
C6DA C2DA 1_555 1_555
H3DA C6DA 1_555 1_555
C7DA C8 1_555 1_555
C8DA C7 1_555 1_555
O3DA C9DA 1_555 1_555
O4DA C9DA 1_555 1_555
C9DA C7DA 1_555 1_555
O5DA Cu1F 1_555 1_555
O1J C3J 1_555 1_555
C2J C4J 1_555 1_555
C3J C2J 1_555 1_555
C6J C5J 1_555 1_555
H3J C6J 1_555 1_555
C7J C8V 1_555 1_555
C8J C7V 1_555 1_555
O3J C9J 1_555 1_555
O4J C9J 1_555 1_555
C9J C7J 1_555 1_555
O5J C3J 1_555 1_555
H1T O2 1_555 1_555
Cu1B Cu1 1_555 1_555
O2B Cu1B 1_555 1_555
H1B O2B 1_555 1_555
H1R O2B 1_555 1_555
Cu1C O1V 1_555 1_555
Cu1D O5V 1_555 1_555
Cu1F Cu1H 1_555 1_555
Cu1H O1DA 1_555 1_555
Cu1I O5J 1_555 1_555
Cu1J O1J 1_555 1_555
O1B Cu1B 1_555 1_555
O1R Cu1B 1_555 1_555
O1T Cu1 1_555 1_555
O5B Cu1 1_555 1_555
O5R Cu1 1_555 1_555
O5T Cu1B 1_555 1_555
C7 C7V 1_555 1_555
C7 C8V 1_555 1_555
C8 C7V 1_555 1_555
C8 C8V 1_555 1_555
C2V C6V 1_555 1_555
C1J C7DA 1_555 1_555
C1J C8DA 1_555 1_555
C1J C7J 1_555 1_555
C1J C8J 1_555 1_555
C7DA C7J 1_555 1_555
C7DA C8J 1_555 1_555
C8DA C7J 1_555 1_555
C8DA C8J 1_555 1_555
C2J C6J 1_555 1_555
Cu1C Cu1D 1_555 1_555
Cu1I Cu1J 1_555 1_555

#END
