
#######################################################################
#
#                 Cambridge Crystallographic Data Centre
#                                CCDC 
#
#######################################################################
#
# If this CIF has been generated from an entry in the Cambridge 
# Structural Database, then it will include bibliographic, chemical, 
# crystal, experimental, refinement or atomic coordinate data resulting 
# from the CCDC's data processing and validation procedures.
#
#######################################################################

data_BIRLIZ
_chemical_formula_moiety         '(C39 H96 Ag6 F9 O9 S27 3+)n'
_symmetry_cell_setting           monoclinic
_symmetry_space_group_name_H-M   'C 2'
_symmetry_Int_Tables_number      5
_space_group_name_Hall           'C 2y'
loop_
_symmetry_equiv_pos_site_id
_symmetry_equiv_pos_as_xyz
1 x,y,z
2 -x,y,-z
3 1/2+x,1/2+y,z
4 1/2-x,1/2+y,-z
_cell_length_a                   17.3226(2)
_cell_length_b                   9.28200(10)
_cell_length_c                   29.8388(3)
_cell_angle_alpha                90
_cell_angle_beta                 93.7260(10)
_cell_angle_gamma                90
_cell_volume                     4787.59
loop_
_atom_site_label
_atom_site_type_symbol
_atom_site_fract_x
_atom_site_fract_y
_atom_site_fract_z
Ag1 Ag 0.502581(19) 0.08860(4) 0.111685(11)
Ag2 Ag 0.819344(19) 0.10588(4) 0.220640(11)
Ag3 Ag 0.833485(19) -0.00560(4) 0.443779(11)
S1 S 0.92451(7) 0.19709(14) 0.47199(4)
S2 S 0.58379(7) -0.13436(14) 0.14516(4)
S3 S 0.74295(7) -0.12326(14) 0.19496(4)
S4 S 0.88678(7) -0.23190(14) 0.48465(4)
S5 S 1.04539(7) -0.19124(14) 0.16246(4)
S6 S 0.80237(7) -0.00241(15) 0.35883(4)
S7 S 0.80413(7) -0.48132(14) 0.52739(4)
S8 S 0.95741(7) 0.05263(14) 0.20366(4)
S9 S 0.56205(6) 0.09338(15) 0.03528(4)
S10 S 0.35970(7) 0.05112(13) 0.12083(4)
S11 S 0.26744(7) -0.18902(13) 0.16213(4)
S12 S 0.77394(7) 0.23647(14) 0.28858(4)
C1 C 1.0000 0.0887(8) 0.5000
H1 H 1.0231 0.0259 0.4776
C2 C 0.6607(3) -0.0252(6) 0.17055(16)
H2 H 0.6394 0.0346 0.1943
H3 H 0.6788 0.0410 0.1474
C3 C 0.3076(3) 0.0221(6) 0.06718(17)
H4 H 0.3407 -0.0299 0.0472
H5 H 0.2928 0.1152 0.0537
H6 H 0.2610 -0.0349 0.0715
C4 C 0.8656(3) -0.4459(7) 0.57751(19)
H7 H 0.9159 -0.4105 0.5690
H8 H 0.8729 -0.5349 0.5949
H9 H 0.8413 -0.3729 0.5957
C5 C 0.9763(3) 0.2544(7) 0.42437(17)
H10 H 1.0236 0.3053 0.4350
H11 H 0.9435 0.3190 0.4054
H12 H 0.9900 0.1699 0.4068
C6 C 0.6325(3) -0.2081(6) 0.09825(17)
H13 H 0.6541 -0.1293 0.0811
H14 H 0.5954 -0.2626 0.0787
H15 H 0.6743 -0.2721 0.1096
C7 C 0.6480(3) 0.2042(6) 0.04268(16)
H16 H 0.6710 0.2158 0.0137
H17 H 0.6854 0.1577 0.0641
H18 H 0.6341 0.2989 0.0542
C8 C 0.8183(3) 0.1824(6) 0.34220(15)
H19 H 0.7989 0.2465 0.3655
H20 H 0.8747 0.1984 0.3418
C9 C 0.9526(3) -0.1267(6) 0.18051(16)
H21 H 0.9141 -0.1280 0.1545
H22 H 0.9343 -0.1936 0.2034
C10 C 0.5000 0.2097(8) 0.0000
H23 H 0.5314 0.2720 -0.0187
C11 C 0.3609(3) -0.1280(6) 0.14466(16)
H24 H 0.3987 -0.1302 0.1710
H25 H 0.3790 -0.1966 0.1222
C12 C 1.0674(3) -0.0489(6) 0.12369(17)
H26 H 1.0324 -0.0559 0.0966
H27 H 1.1210 -0.0588 0.1155
H28 H 1.0607 0.0449 0.1380
C13 C 0.2416(3) -0.0418(5) 0.19787(16)
H29 H 0.2825 -0.0280 0.2218
H30 H 0.1928 -0.0641 0.2112
H31 H 0.2356 0.0465 0.1800
C14 C 0.6737(3) 0.1969(6) 0.29665(16)
H32 H 0.6684 0.0949 0.3044
H33 H 0.6423 0.2175 0.2689
H34 H 0.6560 0.2567 0.3210
C15 C 0.7965(3) -0.3036(6) 0.50296(16)
H35 H 0.7765 -0.2368 0.5253
H36 H 0.7582 -0.3066 0.4769
C16 C 0.8764(3) -0.0968(6) 0.33036(18)
H37 H 0.8719 -0.0726 0.2983
H38 H 0.8698 -0.2009 0.3341
H39 H 0.9276 -0.0681 0.3433
C17 C 0.7024(3) -0.2000(6) 0.24406(17)
H40 H 0.6881 -0.1224 0.2642
H41 H 0.7408 -0.2627 0.2598
H42 H 0.6563 -0.2564 0.2348
C18 C 0.9088(3) -0.3618(7) 0.44221(19)
H43 H 0.9149 -0.4574 0.4559
H44 H 0.9569 -0.3343 0.4289
H45 H 0.8665 -0.3642 0.4188
C19 C 1.0192(3) 0.0262(8) 0.2540(2)
H46 H 0.9992 -0.0533 0.2714
H47 H 1.0203 0.1145 0.2720
H48 H 1.0717 0.0032 0.2459
S1A S 1.07549(7) 0.19709(14) 0.52801(4)
H1A H 0.9769 0.0259 0.5224
C5A C 1.0237(3) 0.2544(7) 0.57563(17)
H10A H 0.9764 0.3053 0.5650
H11A H 1.0565 0.3190 0.5946
H12A H 1.0100 0.1699 0.5932
S9A S 0.43795(6) 0.09338(15) -0.03528(4)
C7A C 0.3520(3) 0.2042(6) -0.04268(16)
H16A H 0.3290 0.2158 -0.0137
H17A H 0.3146 0.1577 -0.0641
H18A H 0.3659 0.2989 -0.0542
H23A H 0.4686 0.2720 0.0187
Ag1A Ag 0.497419(19) 0.08860(4) -0.111685(11)
Ag2A Ag 0.180656(19) 0.10588(4) -0.220640(11)
Ag3A Ag 0.166515(19) -0.00560(4) -0.443779(11)
S2A S 0.41621(7) -0.13436(14) -0.14516(4)
S3A S 0.25705(7) -0.12326(14) -0.19496(4)
S4A S 0.11322(7) -0.23190(14) -0.48465(4)
S5A S -0.04539(7) -0.19124(14) -0.16246(4)
S6A S 0.19763(7) -0.00241(15) -0.35883(4)
S7A S 0.19587(7) -0.48132(14) -0.52739(4)
S8A S 0.04259(7) 0.05263(14) -0.20366(4)
S10A S 0.64030(7) 0.05112(13) -0.12083(4)
S11A S 0.73256(7) -0.18902(13) -0.16213(4)
S12A S 0.22606(7) 0.23647(14) -0.28858(4)
C2A C 0.3393(3) -0.0252(6) -0.17055(16)
H2A H 0.3606 0.0346 -0.1943
H3A H 0.3212 0.0410 -0.1474
C3A C 0.6924(3) 0.0221(6) -0.06718(17)
H4A H 0.6593 -0.0299 -0.0472
H5A H 0.7072 0.1152 -0.0537
H6A H 0.7390 -0.0349 -0.0715
C4A C 0.1344(3) -0.4459(7) -0.57751(19)
H7A H 0.0841 -0.4105 -0.5690
H8A H 0.1271 -0.5349 -0.5949
H9A H 0.1587 -0.3729 -0.5957
C6A C 0.3675(3) -0.2081(6) -0.09825(17)
H13A H 0.3459 -0.1293 -0.0811
H14A H 0.4046 -0.2626 -0.0787
H15A H 0.3257 -0.2721 -0.1096
C8A C 0.1817(3) 0.1824(6) -0.34220(15)
H19A H 0.2011 0.2465 -0.3655
H20A H 0.1253 0.1984 -0.3418
C9A C 0.0474(3) -0.1267(6) -0.18051(16)
H21A H 0.0859 -0.1280 -0.1545
H22A H 0.0657 -0.1936 -0.2034
C11A C 0.6391(3) -0.1280(6) -0.14466(16)
H24A H 0.6013 -0.1302 -0.1710
H25A H 0.6210 -0.1966 -0.1222
C12A C -0.0674(3) -0.0489(6) -0.12369(17)
H26A H -0.0324 -0.0559 -0.0966
H27A H -0.1210 -0.0588 -0.1155
H28A H -0.0607 0.0449 -0.1380
C13A C 0.7584(3) -0.0418(5) -0.19787(16)
H29A H 0.7175 -0.0280 -0.2218
H30A H 0.8072 -0.0641 -0.2112
H31A H 0.7644 0.0465 -0.1800
C14A C 0.3263(3) 0.1969(6) -0.29665(16)
H32A H 0.3316 0.0949 -0.3044
H33A H 0.3577 0.2175 -0.2689
H34A H 0.3440 0.2567 -0.3210
C15A C 0.2035(3) -0.3036(6) -0.50296(16)
H35A H 0.2235 -0.2368 -0.5253
H36A H 0.2418 -0.3066 -0.4769
C16A C 0.1236(3) -0.0968(6) -0.33036(18)
H37A H 0.1281 -0.0726 -0.2983
H38A H 0.1302 -0.2009 -0.3341
H39A H 0.0724 -0.0681 -0.3433
C17A C 0.2976(3) -0.2000(6) -0.24406(17)
H40A H 0.3119 -0.1224 -0.2642
H41A H 0.2592 -0.2627 -0.2598
H42A H 0.3437 -0.2564 -0.2348
C18A C 0.0912(3) -0.3618(7) -0.44221(19)
H43A H 0.0851 -0.4574 -0.4559
H44A H 0.0431 -0.3343 -0.4289
H45A H 0.1335 -0.3642 -0.4188
C19A C -0.0192(3) 0.0262(8) -0.2540(2)
H46A H 0.0008 -0.0533 -0.2714
H47A H -0.0203 0.1145 -0.2720
H48A H -0.0717 0.0032 -0.2459
Ag1B Ag 1.002581(19) -0.41140(4) 0.111685(11)
Ag1C Ag -0.002581(19) -0.41140(4) -0.111685(11)
Ag2B Ag 0.319344(19) -0.39412(4) 0.220640(11)
Ag2C Ag 0.680656(19) -0.39412(4) -0.220640(11)
Ag3A_2 Ag 1.166515(19) -0.00560(4) 0.556221(11)
Ag3B Ag 0.333485(19) -0.50560(4) -0.556221(11)
Ag3C Ag 0.666515(19) -0.50560(4) 0.556221(11)
S1A_2 S 0.07549(7) 0.19709(14) -0.47199(4)
S5B S 0.54539(7) 0.30876(14) 0.16246(4)
S5C S 0.45461(7) 0.30876(14) -0.16246(4)
S7B S 0.30413(7) 0.01868(14) -0.47261(4)
S7C S 0.69587(7) 0.01868(14) 0.47261(4)
S11B S 0.76744(7) 0.31098(13) 0.16213(4)
S11C S 0.23256(7) 0.31098(13) -0.16213(4)
S13 S 0.83476(7) -0.03181(14) 0.06417(4)
F1 F 0.83309(18) 0.2057(4) 0.01599(11)
F2 F 0.90928(19) 0.0417(4) -0.00640(11)
F3 F 0.94200(18) 0.1650(4) 0.05304(11)
O1 O 0.8148(2) 0.0497(4) 0.10284(13)
O2 O 0.7705(2) -0.0798(5) 0.03474(13)
O3 O 0.8947(2) -0.1378(4) 0.07304(12)
C20 C 0.8816(3) 0.1016(6) 0.02965(17)
S14 S 0.64960(7) 0.48565(16) 0.40225(4)
F4 F 0.6823(3) 0.5462(4) 0.31975(12)
F5 F 0.7466(2) 0.6692(5) 0.37057(15)
F6 F 0.6277(2) 0.7181(5) 0.35336(14)
O4 O 0.7102(3) 0.3809(5) 0.40283(14)
O5 O 0.6495(2) 0.5733(5) 0.44203(13)
O6 O 0.5748(3) 0.4370(6) 0.38563(15)
C21 C 0.6776(3) 0.6115(7) 0.35933(19)
S15 S 0.45422(7) 0.01815(15) 0.25802(4)
F7 F 0.5333(2) -0.0662(4) 0.33121(12)
F8 F 0.50617(19) 0.1605(4) 0.33019(11)
F9 F 0.41725(19) 0.0043(4) 0.34152(11)
O7 O 0.5247(2) 0.0553(5) 0.23818(14)
O8 O 0.3934(2) 0.1238(5) 0.25152(12)
O9 O 0.4303(2) -0.1299(5) 0.25241(13)
C22 C 0.4785(3) 0.0288(6) 0.31821(18)
loop_
_geom_bond_atom_site_label_1
_geom_bond_atom_site_label_2
_geom_bond_site_symmetry_1
_geom_bond_site_symmetry_2
Ag1 S2 1_555 1_555
Ag2 S3 1_555 1_555
Ag3 S1 1_555 1_555
S1 C1 1_555 1_555
S2 C2 1_555 1_555
S3 C2 1_555 1_555
S4 Ag3 1_555 1_555
S5 C9 1_555 1_555
S6 Ag3 1_555 1_555
S7 C4 1_555 1_555
S8 Ag2 1_555 1_555
S9 Ag1 1_555 1_555
S10 Ag1 1_555 1_555
S11 C11 1_555 1_555
S12 Ag2 1_555 1_555
C1 H1 1_555 1_555
C2 H2 1_555 1_555
H3 C2 1_555 1_555
C3 S10 1_555 1_555
H4 C3 1_555 1_555
H5 C3 1_555 1_555
H6 C3 1_555 1_555
C4 H7 1_555 1_555
H8 C4 1_555 1_555
H9 C4 1_555 1_555
C5 S1 1_555 1_555
H10 C5 1_555 1_555
H11 C5 1_555 1_555
H12 C5 1_555 1_555
C6 S2 1_555 1_555
H13 C6 1_555 1_555
H14 C6 1_555 1_555
H15 C6 1_555 1_555
C7 S9 1_555 1_555
H16 C7 1_555 1_555
H17 C7 1_555 1_555
H18 C7 1_555 1_555
C8 S6 1_555 1_555
H19 C8 1_555 1_555
H20 C8 1_555 1_555
C9 S8 1_555 1_555
H21 C9 1_555 1_555
H22 C9 1_555 1_555
C10 S9 1_555 1_555
H23 C10 1_555 1_555
C11 S10 1_555 1_555
H24 C11 1_555 1_555
H25 C11 1_555 1_555
C12 S5 1_555 1_555
H26 C12 1_555 1_555
H27 C12 1_555 1_555
H28 C12 1_555 1_555
C13 S11 1_555 1_555
H29 C13 1_555 1_555
H30 C13 1_555 1_555
H31 C13 1_555 1_555
C14 S12 1_555 1_555
H32 C14 1_555 1_555
H33 C14 1_555 1_555
H34 C14 1_555 1_555
C15 S4 1_555 1_555
H35 C15 1_555 1_555
H36 C15 1_555 1_555
C16 S6 1_555 1_555
H37 C16 1_555 1_555
H38 C16 1_555 1_555
H39 C16 1_555 1_555
C17 S3 1_555 1_555
H40 C17 1_555 1_555
H41 C17 1_555 1_555
H42 C17 1_555 1_555
C18 S4 1_555 1_555
H43 C18 1_555 1_555
H44 C18 1_555 1_555
H45 C18 1_555 1_555
C19 S8 1_555 1_555
H46 C19 1_555 1_555
H47 C19 1_555 1_555
H48 C19 1_555 1_555
S13 O1 1_555 1_555
F1 C20 1_555 1_555
F2 C20 1_555 1_555
F3 C20 1_555 1_555
O2 S13 1_555 1_555
O3 S13 1_555 1_555
C20 S13 1_555 1_555
S14 O4 1_555 1_555
F4 C21 1_555 1_555
F5 C21 1_555 1_555
F6 C21 1_555 1_555
O5 S14 1_555 1_555
O6 S14 1_555 1_555
C21 S14 1_555 1_555
S15 O7 1_555 1_555
F7 C22 1_555 1_555
F8 C22 1_555 1_555
F9 C22 1_555 1_555
O8 S15 1_555 1_555
O9 S15 1_555 1_555
C22 S15 1_555 1_555
S1A C1 1_555 1_555
H1A C1 1_555 1_555
C5A S1A 1_555 1_555
H10A C5A 1_555 1_555
H11A C5A 1_555 1_555
H12A C5A 1_555 1_555
S9A C10 1_555 1_555
C7A S9A 1_555 1_555
H16A C7A 1_555 1_555
H17A C7A 1_555 1_555
H18A C7A 1_555 1_555
H23A C10 1_555 1_555
Ag1A S9A 1_555 1_555
Ag2A S3A 1_555 1_555
Ag3A S4A 1_555 1_555
S2A Ag1A 1_555 1_555
S3A C2A 1_555 1_555
S4A C15A 1_555 1_555
S5A C9A 1_555 1_555
S6A Ag3A 1_555 1_555
S7A C4A 1_555 1_555
S8A Ag2A 1_555 1_555
S10A Ag1A 1_555 1_555
S11A C11A 1_555 1_555
S12A Ag2A 1_555 1_555
C2A S2A 1_555 1_555
H2A C2A 1_555 1_555
H3A C2A 1_555 1_555
C3A S10A 1_555 1_555
H4A C3A 1_555 1_555
H5A C3A 1_555 1_555
H6A C3A 1_555 1_555
C4A H7A 1_555 1_555
H8A C4A 1_555 1_555
H9A C4A 1_555 1_555
C6A S2A 1_555 1_555
H13A C6A 1_555 1_555
H14A C6A 1_555 1_555
H15A C6A 1_555 1_555
C8A S6A 1_555 1_555
H19A C8A 1_555 1_555
H20A C8A 1_555 1_555
C9A S8A 1_555 1_555
H21A C9A 1_555 1_555
H22A C9A 1_555 1_555
C11A S10A 1_555 1_555
H24A C11A 1_555 1_555
H25A C11A 1_555 1_555
C12A S5A 1_555 1_555
H26A C12A 1_555 1_555
H27A C12A 1_555 1_555
H28A C12A 1_555 1_555
C13A S11A 1_555 1_555
H29A C13A 1_555 1_555
H30A C13A 1_555 1_555
H31A C13A 1_555 1_555
C14A S12A 1_555 1_555
H32A C14A 1_555 1_555
H33A C14A 1_555 1_555
H34A C14A 1_555 1_555
C15A S7A 1_555 1_555
H35A C15A 1_555 1_555
H36A C15A 1_555 1_555
C16A S6A 1_555 1_555
H37A C16A 1_555 1_555
H38A C16A 1_555 1_555
H39A C16A 1_555 1_555
C17A S3A 1_555 1_555
H40A C17A 1_555 1_555
H41A C17A 1_555 1_555
H42A C17A 1_555 1_555
C18A S4A 1_555 1_555
H43A C18A 1_555 1_555
H44A C18A 1_555 1_555
H45A C18A 1_555 1_555
C19A S8A 1_555 1_555
H46A C19A 1_555 1_555
H47A C19A 1_555 1_555
H48A C19A 1_555 1_555
Ag1B S5 1_555 1_555
Ag1C S5A 1_555 1_555
Ag2B S11 1_555 1_555
Ag2C S11A 1_555 1_555
Ag3A_2 S1A 1_555 1_555
Ag3B S7A 1_555 1_555
Ag3C S7 1_555 1_555
S1A_2 Ag3A 1_555 1_555
S5B Ag1 1_555 1_555
S5C Ag1A 1_555 1_555
S7B Ag3A 1_555 1_555
S7C Ag3 1_555 1_555
S11B Ag2 1_555 1_555
S11C Ag2A 1_555 1_555
S7 C15 1_555 1_555
S12 C8 1_555 1_555
S12A C8A 1_555 1_555

#END
