
#######################################################################
#
#                 Cambridge Crystallographic Data Centre
#                                CCDC 
#
#######################################################################
#
# If this CIF has been generated from an entry in the Cambridge 
# Structural Database, then it will include bibliographic, chemical, 
# crystal, experimental, refinement or atomic coordinate data resulting 
# from the CCDC's data processing and validation procedures.
#
#######################################################################

data_RAYFEE
_chemical_formula_moiety         '(C13 H19 Cu2 N7 O7 S2)n'
_symmetry_cell_setting           rhombohedral
_symmetry_space_group_name_H-M   'R -3'
_symmetry_Int_Tables_number      148
_space_group_name_Hall           '-R 3'
loop_
_symmetry_equiv_pos_site_id
_symmetry_equiv_pos_as_xyz
1 x,y,z
2 -y,x-y,z
3 -x+y,-x,z
4 2/3+x,1/3+y,1/3+z
5 2/3-y,1/3+x-y,1/3+z
6 2/3-x+y,1/3-x,1/3+z
7 1/3+x,2/3+y,2/3+z
8 1/3-y,2/3+x-y,2/3+z
9 1/3-x+y,2/3-x,2/3+z
10 -x,-y,-z
11 y,-x+y,-z
12 x-y,x,-z
13 1/3-x,2/3-y,2/3-z
14 1/3+y,2/3-x+y,2/3-z
15 1/3+x-y,2/3+x,2/3-z
16 2/3-x,1/3-y,1/3-z
17 2/3+y,1/3-x+y,1/3-z
18 2/3+x-y,1/3+x,1/3-z
_cell_length_a                   34.4325(12)
_cell_length_b                   34.4325(12)
_cell_length_c                   13.0911(9)
_cell_angle_alpha                90
_cell_angle_beta                 90
_cell_angle_gamma                120
_cell_volume                     13441.4
loop_
_atom_site_label
_atom_site_type_symbol
_atom_site_fract_x
_atom_site_fract_y
_atom_site_fract_z
Cu1 Cu 0.620552(17) 0.068099(19) 0.68097(4)
Cu2 Cu 0.76715(2) 0.14445(2) 0.69085(5)
N1 N 0.58809(14) 0.01854(15) 0.5765(3)
N2 N 0.67231(14) 0.07577(14) 0.5994(3)
N3 N 0.71736(13) 0.09924(14) 0.6027(3)
N4 N 0.69747(14) 0.05181(15) 0.4699(3)
N5 N 0.80321(14) 0.13290(14) 0.5861(3)
N6 N 0.84697(14) 0.14616(14) 0.5633(3)
N7 N 0.80336(12) 0.09559(13) 0.4485(3)
S1 S 0.68868(11) 0.13068(12) 0.8367(2)
O1 O 0.65269(16) 0.12195(19) 0.7639(4)
O2 O 0.6852(3) 0.0886(2) 0.8646(5)
O3 O 0.6884(3) 0.1558(3) 0.9232(5)
O4 O 0.73139(17) 0.1589(2) 0.7807(5)
O5 O 0.58871(16) 0.10359(15) 0.5982(4)
O6 O 0.7584(3) 0.0847(3) 0.8033(7)
H1 H 0.7619 0.0898 0.8733
O7 O 0.7767(4) 0.2075(4) 0.5777(10)
H2 H 0.7709 0.2051 0.5079
S2 S 0.60534(14) 0.15184(11) 0.5932(4)
C1 C 0.5434(2) -0.0088(2) 0.5675(5)
H3 H 0.5247 -0.0078 0.6176
C2 C 0.5246(3) -0.0377(3) 0.4887(6)
H4 H 0.4937 -0.0566 0.4863
C3 C 0.5506(3) -0.0391(3) 0.4137(7)
H5 H 0.5380 -0.0578 0.3574
C4 C 0.5977(3) -0.0113(3) 0.4229(5)
H6 H 0.6168 -0.0124 0.3743
C5 C 0.61421(19) 0.0166(2) 0.5036(4)
C6 C 0.66176(17) 0.04805(17) 0.5216(4)
C7 C 0.73046(16) 0.08353(16) 0.5247(4)
C8 C 0.77886(15) 0.10316(16) 0.5163(3)
C9 C 0.84544(16) 0.12249(16) 0.4818(4)
H7 H 0.8707 0.1244 0.4511
C10 C 0.5997(10) 0.1787(7) 0.6996(15)
H8 H 0.5685 0.1671 0.7136
H9 H 0.6139 0.2103 0.6866
H10 H 0.6136 0.1734 0.7574
C11 C 0.5653(6) 0.1621(7) 0.543(2)
H11 H 0.5546 0.1464 0.4799
H12 H 0.5781 0.1937 0.5320
H13 H 0.5408 0.1520 0.5906
C12 C 0.7487(6) 0.0441(9) 0.767(2)
H14 H 0.7748 0.0459 0.7354
H15 H 0.7376 0.0214 0.8186
H16 H 0.7260 0.0367 0.7157
C13 C 0.7952(5) 0.2549(6) 0.6470(12)
H17 H 0.8151 0.2570 0.7008
H18 H 0.8108 0.2798 0.6012
H19 H 0.7698 0.2554 0.6756
Cu1H Cu 0.780880(25) 0.046115(17) 0.34764(4)
Cu2O Cu 0.89952(2) 0.18888(2) 0.64248(5)
N6O N 0.81970(14) 0.18717(14) 0.7700(3)
N7D N 0.57108(13) 0.04110(18) 0.7818(3)
loop_
_geom_bond_atom_site_label_1
_geom_bond_atom_site_label_2
_geom_bond_site_symmetry_1
_geom_bond_site_symmetry_2
Cu1 N1 1_555 1_555
Cu2 N3 1_555 1_555
N1 C1 1_555 1_555
N2 Cu1 1_555 1_555
N3 N2 1_555 1_555
N4 C6 1_555 1_555
N5 Cu2 1_555 1_555
N6 N5 1_555 1_555
N7 C8 1_555 1_555
S1 O1 1_555 1_555
O1 Cu1 1_555 1_555
O2 S1 1_555 1_555
O3 S1 1_555 1_555
O4 Cu2 1_555 1_555
O5 Cu1 1_555 1_555
O6 Cu2 1_555 1_555
H1 O6 1_555 1_555
O7 Cu2 1_555 1_555
H2 O7 1_555 1_555
S2 O5 1_555 1_555
C1 H3 1_555 1_555
C2 C1 1_555 1_555
H4 C2 1_555 1_555
C3 C2 1_555 1_555
H5 C3 1_555 1_555
C4 C3 1_555 1_555
H6 C4 1_555 1_555
C5 N1 1_555 1_555
C6 N2 1_555 1_555
C7 N3 1_555 1_555
C8 N5 1_555 1_555
C9 N6 1_555 1_555
H7 C9 1_555 1_555
C10 S2 1_555 1_555
H8 C10 1_555 1_555
H9 C10 1_555 1_555
H10 C10 1_555 1_555
C11 S2 1_555 1_555
H11 C11 1_555 1_555
H12 C11 1_555 1_555
H13 C11 1_555 1_555
C12 O6 1_555 1_555
H14 C12 1_555 1_555
H15 C12 1_555 1_555
H16 C12 1_555 1_555
C13 O7 1_555 1_555
H17 C13 1_555 1_555
H18 C13 1_555 1_555
H19 C13 1_555 1_555
Cu1H N7 1_555 1_555
Cu2O N6 1_555 1_555
N6O Cu2 1_555 1_555
N7D Cu1 1_555 1_555
N4 C7 1_555 1_555
N7 C9 1_555 1_555
S1 O4 1_555 1_555
C4 C5 1_555 1_555
C5 C6 1_555 1_555
C7 C8 1_555 1_555

#END
