
#######################################################################
#
#                 Cambridge Crystallographic Data Centre
#                                CCDC 
#
#######################################################################
#
# If this CIF has been generated from an entry in the Cambridge 
# Structural Database, then it will include bibliographic, chemical, 
# crystal, experimental, refinement or atomic coordinate data resulting 
# from the CCDC's data processing and validation procedures.
#
#######################################################################

data_ABULOB
_chemical_formula_moiety         '(C6 H22 Be3 N2 O12 P4)n'
_symmetry_cell_setting           orthorhombic
_symmetry_space_group_name_H-M   'P b c n'
_symmetry_Int_Tables_number      60
_space_group_name_Hall           '-P 2n 2ab'
loop_
_symmetry_equiv_pos_site_id
_symmetry_equiv_pos_as_xyz
1 x,y,z
2 1/2-x,1/2-y,1/2+z
3 -x,y,1/2-z
4 1/2+x,1/2-y,-z
5 -x,-y,-z
6 1/2+x,1/2+y,1/2-z
7 x,-y,1/2+z
8 1/2-x,1/2+y,z
_cell_length_a                   8.5009(7)
_cell_length_b                   15.36520(10)
_cell_length_c                   13.3740(7)
_cell_angle_alpha                90
_cell_angle_beta                 90
_cell_angle_gamma                90
_cell_volume                     1746.89
loop_
_atom_site_label
_atom_site_type_symbol
_atom_site_fract_x
_atom_site_fract_y
_atom_site_fract_z
Be1 Be -0.0000 0.2371(2) 0.2500
Be2 Be 0.5343(3) 0.41127(17) 0.39087(19)
P1 P 0.02744(6) 0.09807(3) 0.38781(4)
H1 H 0.1577 0.0902 0.3378
P2 P 0.25290(6) 0.36865(3) 0.27254(4)
H2 H 0.1669 0.4385 0.2606
O1 O 0.07181(19) 0.12049(9) 0.49494(10)
O2 O -0.06317(17) 0.01426(9) 0.37758(11)
O3 O -0.06284(16) 0.17388(9) 0.34073(10)
O4 O 0.1420(2) 0.29438(11) 0.29409(11)
O5 O 0.34447(18) 0.35553(9) 0.17718(10)
O6 O 0.35271(18) 0.38425(10) 0.36507(11)
Be2B Be -0.5343(3) 0.41127(17) 0.10913(19)
P1B P -0.02744(6) 0.09807(3) 0.11219(4)
H1B H -0.1577 0.0902 0.1622
P2B P -0.25290(6) 0.36865(3) 0.22746(4)
H2B H -0.1669 0.4385 0.2394
O1B O -0.07181(19) 0.12049(9) 0.00506(10)
O2B O 0.06317(17) 0.01426(9) 0.12242(11)
O3B O 0.06284(16) 0.17388(9) 0.15927(10)
O4B O -0.1420(2) 0.29438(11) 0.20591(11)
O5B O -0.34447(18) 0.35553(9) 0.32282(10)
O6B O -0.35271(18) 0.38425(10) 0.13493(11)
Be2_2 Be -0.4657(3) 0.41127(17) 0.39087(19)
Be2A Be -0.0343(3) 0.08873(17) -0.10913(19)
Be2B_2 Be 0.4657(3) 0.41127(17) 0.10913(19)
Be2C Be 0.0343(3) 0.08873(17) 0.60913(19)
Be2E Be 0.0343(3) -0.08873(17) 0.10913(19)
Be2G Be -0.0343(3) -0.08873(17) 0.39087(19)
O1A O -0.57181(19) 0.37951(9) -0.00506(10)
O1C O 0.57181(19) 0.37951(9) 0.50506(10)
O2E O -0.56317(17) 0.51426(9) 0.12242(11)
O2G O 0.56317(17) 0.51426(9) 0.37758(11)
O5_2 O -0.65553(18) 0.35553(9) 0.17718(10)
O5B_2 O 0.65553(18) 0.35553(9) 0.32282(10)
C1 C 0.5228(3) 0.17092(16) 0.4318(2)
H3 H 0.4813 0.2089 0.3802
H4 H 0.4476 0.1695 0.4863
C2 C 0.5418(3) 0.08023(16) 0.38964(18)
H5 H 0.6292 0.0806 0.3430
H6 H 0.4477 0.0658 0.3521
C3 C 0.5704(3) 0.00862(15) 0.46642(19)
H7 H 0.6596 0.0248 0.5077
H8 H 0.5975 -0.0447 0.4316
N1 N 0.6750(2) 0.20700(11) 0.46908(14)
H9 H 0.7067 0.1766 0.5220
H10 H 0.6618 0.2624 0.4864
H11 H 0.7471 0.2035 0.4210
C1D C 0.4772(3) -0.17092(16) 0.5682(2)
H3D H 0.5187 -0.2089 0.6198
H4D H 0.5524 -0.1695 0.5137
C2D C 0.4582(3) -0.08023(16) 0.61036(18)
H5D H 0.3708 -0.0806 0.6570
H6D H 0.5523 -0.0658 0.6479
C3D C 0.4296(3) -0.00862(15) 0.53358(19)
H7D H 0.3404 -0.0248 0.4923
H8D H 0.4025 0.0447 0.5684
N1D N 0.3250(2) -0.20700(11) 0.53092(14)
H9D H 0.2933 -0.1766 0.4780
H10D H 0.3382 -0.2624 0.5136
H11D H 0.2529 -0.2035 0.5790
loop_
_geom_bond_atom_site_label_1
_geom_bond_atom_site_label_2
_geom_bond_site_symmetry_1
_geom_bond_site_symmetry_2
Be1 O3 1_555 1_555
Be2 O6 1_555 1_555
P1 H1 1_555 1_555
P2 H2 1_555 1_555
O1 P1 1_555 1_555
O2 P1 1_555 1_555
O3 P1 1_555 1_555
O4 Be1 1_555 1_555
O5 P2 1_555 1_555
O6 P2 1_555 1_555
C1 H3 1_555 1_555
H4 C1 1_555 1_555
C2 C1 1_555 1_555
H5 C2 1_555 1_555
H6 C2 1_555 1_555
C3 C2 1_555 1_555
H7 C3 1_555 1_555
H8 C3 1_555 1_555
N1 C1 1_555 1_555
H9 N1 1_555 1_555
H10 N1 1_555 1_555
H11 N1 1_555 1_555
Be2B O6B 1_555 1_555
P1B H1B 1_555 1_555
P2B H2B 1_555 1_555
O1B P1B 1_555 1_555
O2B P1B 1_555 1_555
O3B Be1 1_555 1_555
O4B Be1 1_555 1_555
O5B P2B 1_555 1_555
O6B P2B 1_555 1_555
Be2_2 O5B 1_555 1_555
Be2A O1B 1_555 1_555
Be2B_2 O5 1_555 1_555
Be2C O1 1_555 1_555
Be2E O2B 1_555 1_555
Be2G O2 1_555 1_555
O1A Be2B 1_555 1_555
O1C Be2 1_555 1_555
O2E Be2B 1_555 1_555
O2G Be2 1_555 1_555
O5_2 Be2B 1_555 1_555
O5B_2 Be2 1_555 1_555
C1D H3D 1_555 1_555
H4D C1D 1_555 1_555
C2D C1D 1_555 1_555
H5D C2D 1_555 1_555
H6D C2D 1_555 1_555
C3D C3 1_555 1_555
H7D C3D 1_555 1_555
H8D C3D 1_555 1_555
N1D C1D 1_555 1_555
H9D N1D 1_555 1_555
H10D N1D 1_555 1_555
H11D N1D 1_555 1_555
P2 O4 1_555 1_555
P1B O3B 1_555 1_555
P2B O4B 1_555 1_555
C2D C3D 1_555 1_555

#END
