
#######################################################################
#
#                 Cambridge Crystallographic Data Centre
#                                CCDC 
#
#######################################################################
#
# If this CIF has been generated from an entry in the Cambridge 
# Structural Database, then it will include bibliographic, chemical, 
# crystal, experimental, refinement or atomic coordinate data resulting 
# from the CCDC's data processing and validation procedures.
#
#######################################################################

data_RUGPEQ
_chemical_formula_moiety         '(C52 H43 Cd3 N5 O14)n'
_symmetry_cell_setting           orthorhombic
_symmetry_space_group_name_H-M   'P b c n'
_symmetry_Int_Tables_number      60
_space_group_name_Hall           '-P 2n 2ab'
loop_
_symmetry_equiv_pos_site_id
_symmetry_equiv_pos_as_xyz
1 x,y,z
2 1/2-x,1/2-y,1/2+z
3 1/2+x,1/2-y,-z
4 -x,y,1/2-z
5 -x,-y,-z
6 1/2+x,1/2+y,1/2-z
7 1/2-x,1/2+y,z
8 x,-y,1/2+z
_cell_length_a                   11.7865(19)
_cell_length_b                   16.716(3)
_cell_length_c                   52.892(8)
_cell_angle_alpha                90
_cell_angle_beta                 90
_cell_angle_gamma                90
_cell_volume                     10420.9
loop_
_atom_site_label
_atom_site_type_symbol
_atom_site_fract_x
_atom_site_fract_y
_atom_site_fract_z
C1 C 0.8123(3) 0.4367(2) 0.85722(7)
C2 C 0.7720(3) 0.5039(2) 0.87345(7)
C3 C 0.6967(4) 0.5594(2) 0.86376(8)
H1 H 0.6692 0.5533 0.8474
C4 C 0.6622(4) 0.6233(2) 0.87801(8)
H2 H 0.6092 0.6592 0.8716
C5 C 0.7069(4) 0.6342(2) 0.90208(7)
C6 C 0.7817(4) 0.5796(3) 0.91162(8)
H3 H 0.8110 0.5870 0.9278
C7 C 0.8148(4) 0.5135(3) 0.89765(8)
H4 H 0.8648 0.4762 0.9044
C8 C 0.6707(4) 0.7043(2) 0.91750(8)
C9 C 1.0597(3) 0.2075(2) 0.82965(7)
C10 C 1.1398(3) 0.1385(2) 0.83320(7)
C11 C 1.1454(4) 0.0989(2) 0.85579(8)
H5 H 1.0995 0.1147 0.8692
C12 C 1.2191(4) 0.0354(2) 0.85875(8)
H6 H 1.2211 0.0086 0.8742
C13 C 1.2896(3) 0.0106(2) 0.83957(7)
C14 C 1.2808(4) 0.0488(2) 0.81639(8)
H7 H 1.3259 0.0321 0.8030
C15 C 1.2061(4) 0.1111(2) 0.81303(8)
H8 H 1.1996 0.1351 0.7972
C16 C 1.3728(4) -0.0586(2) 0.84315(8)
C17 C 0.8694(5) 0.3135(4) 0.76371(10)
H9 H 0.9227 0.2733 0.7663
C18 C 0.8157(5) 0.3157(4) 0.74012(10)
H10 H 0.8361 0.2796 0.7275
C19 C 0.7336(4) 0.3708(3) 0.73570(9)
C20 C 0.7159(5) 0.4243(4) 0.75467(9)
H11 H 0.6640 0.4658 0.7526
C21 C 0.7758(5) 0.4165(4) 0.77697(10)
H12 H 0.7604 0.4538 0.7896
C22 C 0.6677(4) 0.3739(3) 0.71185(9)
C23 C 0.6998(4) 0.3286(3) 0.69103(8)
H13 H 0.7634 0.2959 0.6923
C24 C 0.6410(4) 0.3303(3) 0.66847(8)
H14 H 0.6656 0.2995 0.6549
C25 C 0.5456(4) 0.3776(3) 0.66608(9)
C26 C 0.5136(4) 0.4237(3) 0.68690(9)
H15 H 0.4506 0.4570 0.6857
C27 C 0.5736(4) 0.4207(4) 0.70917(9)
H16 H 0.5493 0.4514 0.7228
C28 C 0.5000(4) 0.3602(3) 0.61961(9)
C29 C 0.4065(4) 0.3423(4) 0.60447(9)
H17 H 0.3340 0.3454 0.6113
C30 C 0.4192(4) 0.3206(4) 0.58000(9)
H18 H 0.3552 0.3102 0.5703
C31 C 0.5271(4) 0.3135(4) 0.56897(9)
C32 C 0.6188(4) 0.3320(3) 0.58468(9)
H19 H 0.6916 0.3292 0.5780
C33 C 0.6066(4) 0.3540(3) 0.60928(9)
H20 H 0.6703 0.3647 0.6191
C34 C 0.4648(5) 0.2530(4) 0.50224(11)
H21 H 0.4007 0.2475 0.4921
C35 C 0.4490(5) 0.2816(4) 0.52638(10)
H22 H 0.3774 0.2979 0.5317
C36 C 0.5405(4) 0.2861(4) 0.54263(9)
C37 C 0.6394(5) 0.2700(4) 0.53193(10)
H23 H 0.7063 0.2786 0.5408
C38 C 0.6436(5) 0.2403(4) 0.50736(10)
H24 H 0.7145 0.2242 0.5016
C39 C 0.1385(4) 1.2066(3) 0.92366(8)
C40 C 0.2151(4) 1.1353(3) 0.92735(9)
C41 C 0.1966(5) 1.0853(3) 0.94748(10)
H25 H 0.1367 1.0954 0.9585
C42 C 0.2661(5) 1.0198(3) 0.95158(10)
H26 H 0.2546 0.9871 0.9656
C43 C 0.3527(4) 1.0032(3) 0.93473(8)
C44 C 0.3705(4) 1.0542(3) 0.91509(9)
H27 H 0.4297 1.0443 0.9039
C45 C 0.3027(4) 1.1196(3) 0.91151(9)
H28 H 0.3170 1.1538 0.8980
C46 C 0.4261(4) 0.9327(3) 0.93931(9)
C47 C 0.6954(5) 0.2287(3) 0.83797(13)
H29 H 0.7035 0.2549 0.8534
C48 C 0.5962(7) 0.1328(5) 0.81403(16)
H30 H 0.5440 0.1580 0.8026
H31 H 0.5684 0.0806 0.8185
H32 H 0.6690 0.1278 0.8060
C49 C 0.5308(6) 0.1600(4) 0.85597(14)
H33 H 0.5296 0.1031 0.8584
H34 H 0.4560 0.1784 0.8518
H35 H 0.5558 0.1855 0.8713
C50 C 0.6927(7) 0.9575(4) 0.97098(13)
H36 H 0.6203 0.9675 0.9772
C51 C 0.8823(8) 1.0011(5) 0.96300(18)
H37 H 0.9355 0.9831 0.9755
H38 H 0.9088 1.0501 0.9556
H39 H 0.8749 0.9612 0.9501
C52 C 0.7607(10) 1.0844(5) 0.98735(17)
H40 H 0.7884 1.0786 1.0043
H41 H 0.6814 1.0976 0.9878
H42 H 0.8017 1.1263 0.9790
Cd1 Cd 0.91535(2) 0.335792(16) 0.822208(5)
Cd2 Cd 1.02490(2) 0.324153(15) 0.885134(5)
Cd3 Cd 0.56716(2) 0.806785(16) 0.950576(5)
N1 N 0.8517(3) 0.3622(2) 0.78221(6)
N2 N 0.5631(3) 0.2326(3) 0.49220(6)
N3 N 0.4766(4) 0.3836(3) 0.64448(7)
N4 N 0.6068(4) 0.1794(3) 0.83595(10)
N5 N 0.7756(8) 1.0141(4) 0.97450(11)
O1 O 0.7805(3) 0.4337(2) 0.83476(6)
O2 O 0.8754(3) 0.38260(17) 0.86608(5)
O3 O 0.6221(2) 0.76141(17) 0.90693(5)
O4 O 0.6906(3) 0.70462(18) 0.94070(5)
O5 O 1.0174(2) 0.24122(16) 0.84882(5)
O6 O 1.0352(3) 0.23020(17) 0.80783(5)
O7 O 1.3662(2) -0.09194(17) 0.86437(5)
O8 O 1.4404(2) -0.07324(17) 0.82610(5)
O9 O 0.4848(2) 0.90376(15) 0.92158(5)
O10 O 0.4302(3) 0.9033(2) 0.96091(6)
O11 O 0.0779(3) 1.2240(2) 0.94215(6)
O12 O 0.1424(3) 1.24051(18) 0.90306(5)
O13 O 0.7652(3) 0.2431(2) 0.82232(8)
O14 O 0.7106(3) 0.8950(2) 0.96004(7)
Cd1F Cd 1.58465(2) -0.164208(16) 0.822208(5)
Cd2_2 Cd 0.02490(2) 1.324153(15) 0.885134(5)
Cd2F Cd 0.47510(2) 0.824153(15) 0.885134(5)
Cd2F_2 Cd 1.47510(2) -0.175847(15) 0.885134(5)
Cd3F Cd -0.06716(2) 1.306785(16) 0.950576(5)
Cd3G Cd 0.56716(2) 0.193215(16) 0.450576(5)
N2G N 0.5631(3) 0.7674(3) 0.99220(6)
O3F O 0.8779(2) 0.26141(17) 0.90693(5)
O7F O 1.1338(2) 0.40806(17) 0.86437(5)
O8F O 1.0596(2) 0.42676(17) 0.82610(5)
O9F O 1.0152(2) 0.40376(15) 0.92158(5)
O11F O 0.4221(3) 0.7240(2) 0.94215(6)
O12_2 O 1.1424(3) 0.24051(18) 0.90306(5)
loop_
_geom_bond_atom_site_label_1
_geom_bond_atom_site_label_2
_geom_bond_site_symmetry_1
_geom_bond_site_symmetry_2
C1 C2 1_555 1_555
C2 C3 1_555 1_555
C3 H1 1_555 1_555
C4 C3 1_555 1_555
H2 C4 1_555 1_555
C5 C4 1_555 1_555
C6 C5 1_555 1_555
H3 C6 1_555 1_555
C7 C2 1_555 1_555
H4 C7 1_555 1_555
C8 C5 1_555 1_555
C9 C10 1_555 1_555
C10 C11 1_555 1_555
C11 H5 1_555 1_555
C12 C11 1_555 1_555
H6 C12 1_555 1_555
C13 C12 1_555 1_555
C14 C13 1_555 1_555
H7 C14 1_555 1_555
C15 C10 1_555 1_555
H8 C15 1_555 1_555
C16 C13 1_555 1_555
C17 H9 1_555 1_555
C18 C17 1_555 1_555
H10 C18 1_555 1_555
C19 C18 1_555 1_555
C20 C19 1_555 1_555
H11 C20 1_555 1_555
C21 C20 1_555 1_555
H12 C21 1_555 1_555
C22 C19 1_555 1_555
C23 C22 1_555 1_555
H13 C23 1_555 1_555
C24 C23 1_555 1_555
H14 C24 1_555 1_555
C25 C24 1_555 1_555
C26 C25 1_555 1_555
H15 C26 1_555 1_555
C27 C22 1_555 1_555
H16 C27 1_555 1_555
C28 C29 1_555 1_555
C29 H17 1_555 1_555
C30 C29 1_555 1_555
H18 C30 1_555 1_555
C31 C30 1_555 1_555
C32 C31 1_555 1_555
H19 C32 1_555 1_555
C33 C28 1_555 1_555
H20 C33 1_555 1_555
C34 H21 1_555 1_555
C35 C34 1_555 1_555
H22 C35 1_555 1_555
C36 C31 1_555 1_555
C37 C36 1_555 1_555
H23 C37 1_555 1_555
C38 C37 1_555 1_555
H24 C38 1_555 1_555
C39 C40 1_555 1_555
C40 C41 1_555 1_555
C41 H25 1_555 1_555
C42 C41 1_555 1_555
H26 C42 1_555 1_555
C43 C42 1_555 1_555
C44 C43 1_555 1_555
H27 C44 1_555 1_555
C45 C40 1_555 1_555
H28 C45 1_555 1_555
C46 C43 1_555 1_555
C47 H29 1_555 1_555
C48 H30 1_555 1_555
H31 C48 1_555 1_555
H32 C48 1_555 1_555
C49 H33 1_555 1_555
H34 C49 1_555 1_555
H35 C49 1_555 1_555
C50 H36 1_555 1_555
C51 H37 1_555 1_555
H38 C51 1_555 1_555
H39 C51 1_555 1_555
C52 H40 1_555 1_555
H41 C52 1_555 1_555
H42 C52 1_555 1_555
Cd1 N1 1_555 1_555
Cd2 O2 1_555 1_555
Cd3 O3 1_555 1_555
N1 C17 1_555 1_555
N2 C34 1_555 1_555
N3 C25 1_555 1_555
N4 C47 1_555 1_555
N5 C50 1_555 1_555
O1 C1 1_555 1_555
O2 C1 1_555 1_555
O3 C8 1_555 1_555
O4 C8 1_555 1_555
O5 C9 1_555 1_555
O6 C9 1_555 1_555
O7 C16 1_555 1_555
O8 C16 1_555 1_555
O9 C46 1_555 1_555
O10 C46 1_555 1_555
O11 C39 1_555 1_555
O12 C39 1_555 1_555
O13 C47 1_555 1_555
O14 C50 1_555 1_555
Cd1F O8 1_555 1_555
Cd2_2 O12 1_555 1_555
Cd2F O3 1_555 1_555
Cd2F_2 O7 1_555 1_555
Cd3F O11 1_555 1_555
Cd3G N2 1_555 1_555
N2G Cd3 1_555 1_555
O3F Cd2 1_555 1_555
O7F Cd2 1_555 1_555
O8F Cd1 1_555 1_555
O9F Cd2 1_555 1_555
O11F Cd3 1_555 1_555
O12_2 Cd2 1_555 1_555
C6 C7 1_555 1_555
C14 C15 1_555 1_555
C21 N1 1_555 1_555
C26 C27 1_555 1_555
C28 N3 1_555 1_555
C32 C33 1_555 1_555
C35 C36 1_555 1_555
C38 N2 1_555 1_555
C44 C45 1_555 1_555
C48 N4 1_555 1_555
C49 N4 1_555 1_555
C51 N5 1_555 1_555
C52 N5 1_555 1_555
Cd1 O1 1_555 1_555
Cd1 O2 1_555 1_555
Cd1 O5 1_555 1_555
Cd1 O6 1_555 1_555
Cd1 O13 1_555 1_555
Cd2 O5 1_555 1_555
Cd3 O4 1_555 1_555
Cd3 O9 1_555 1_555
Cd3 O10 1_555 1_555
Cd3 O14 1_555 1_555
O9 Cd2F 1_555 1_555

#END
