
#######################################################################
#
#                 Cambridge Crystallographic Data Centre
#                                CCDC 
#
#######################################################################
#
# If this CIF has been generated from an entry in the Cambridge 
# Structural Database, then it will include bibliographic, chemical, 
# crystal, experimental, refinement or atomic coordinate data resulting 
# from the CCDC's data processing and validation procedures.
#
#######################################################################

data_HICVUM
_chemical_formula_moiety         '(C27 H29 Cd2 N9 O9)n'
_symmetry_cell_setting           monoclinic
_symmetry_space_group_name_H-M   'C 2/c'
_symmetry_Int_Tables_number      15
_space_group_name_Hall           '-C 2yc'
loop_
_symmetry_equiv_pos_site_id
_symmetry_equiv_pos_as_xyz
1 x,y,z
2 -x,y,1/2-z
3 1/2+x,1/2+y,z
4 1/2-x,1/2+y,1/2-z
5 -x,-y,-z
6 x,-y,1/2+z
7 1/2-x,1/2-y,-z
8 1/2+x,1/2-y,1/2+z
_cell_length_a                   20.730(8)
_cell_length_b                   14.751(5)
_cell_length_c                   20.709(8)
_cell_angle_alpha                90
_cell_angle_beta                 97.174(4)
_cell_angle_gamma                90
_cell_volume                     6282.99
loop_
_atom_site_label
_atom_site_type_symbol
_atom_site_fract_x
_atom_site_fract_y
_atom_site_fract_z
_atom_site_U_iso_or_equiv
_atom_site_thermal_displace_type
Cd1 Cd 0.43240(2) 0.49859(3) 0.17921(2) 0.0173 Uani
Cd2 Cd 0.45381(2) 0.00001(3) 0.10118(2) 0.0185 Uani
C1 C 0.4730(3) 0.3116(4) 0.1293(3) 0.0216 Uani
H1 H 0.4910 0.3541 0.1036 0.0260 Uiso
N1 N 0.4465(3) 0.3394(4) 0.1814(3) 0.0195 Uani
C2 C 0.4264(3) 0.1851(4) 0.2032(3) 0.0215 Uani
H2 H 0.4106 0.1424 0.2303 0.0260 Uiso
N2 N 0.4515(3) 0.1562(4) 0.1506(3) 0.0244 Uani
C3 C 0.4230(3) 0.2745(5) 0.2189(3) 0.0257 Uani
H3 H 0.4043 0.2914 0.2556 0.0310 Uiso
C4 C 0.4742(3) 0.2202(4) 0.1126(3) 0.0219 Uani
N3 N 0.4992(3) 0.1052(3) 0.0352(3) 0.0206 Uani
C5 C 0.4964(3) 0.1919(4) 0.0528(3) 0.0192 Uani
N4 N 0.5135(3) 0.2513(4) 0.0083(3) 0.0259 Uani
C6 C 0.2897(4) 0.5123(4) 0.3535(3) 0.0207 Uani
H4 H 0.2691 0.5109 0.3110 0.0250 Uiso
O1 O 0.3621(3) 0.4985(4) 0.2525(3) 0.0401 Uani
C7 C 0.3959(4) 0.5063(4) 0.3068(3) 0.0208 Uani
C8 C 0.3582(3) 0.5115(4) 0.3653(4) 0.0215 Uani
N5 N 0.5173(3) 0.1061(4) -0.0255(3) 0.0203 Uani
C9 C 0.5459(3) 0.3128(5) -0.1181(4) 0.0241 Uani
H5 H 0.5331 0.3551 -0.0888 0.0290 Uiso
C10 C 0.5452(3) 0.2223(5) -0.1020(3) 0.0225 Uani
C11 C 0.5261(4) 0.1938(4) -0.0393(3) 0.0248 Uani
O2 O 0.4556(3) 0.5089(3) 0.3141(3) 0.0342 Uani
C12 C 0.1795(4) 0.5116(4) 0.3937(4) 0.0237 Uani
C13 C 0.3522(3) 0.5150(4) 0.4808(3) 0.0223 Uani
C14 C 0.3891(3) 0.5126(4) 0.4286(3) 0.0203 Uani
H6 H 0.4342 0.5117 0.4364 0.0240 Uiso
C15 C 0.2841(3) 0.5164(5) 0.4684(3) 0.0231 Uani
H7 H 0.2596 0.5183 0.5030 0.0280 Uiso
N6 N 0.5639(3) 0.3420(4) -0.1730(3) 0.0233 Uani
C16 C 0.2530(3) 0.5152(4) 0.4049(4) 0.0210 Uani
N7 N 0.5601(3) 0.1574(4) -0.1425(3) 0.0233 Uani
C17 C 0.5792(4) 0.2766(5) -0.2144(4) 0.0295 Uani
H8 H 0.5913 0.2935 -0.2544 0.0350 Uiso
C18 C 0.5773(4) 0.1860(5) -0.1992(4) 0.0301 Uani
H9 H 0.5884 0.1435 -0.2291 0.0360 Uiso
O3 O 0.4441(2) 0.5062(3) 0.5633(2) 0.0216 Uani
O4 O 0.1514(3) 0.5042(3) 0.3366(3) 0.0292 Uani
O5 O 0.1496(3) 0.5162(4) 0.4428(3) 0.0333 Uani
C19 C 0.3841(3) 0.5126(4) 0.5504(3) 0.0200 Uani
O6 O 0.5479(3) -0.0136(3) 0.1719(3) 0.0339 Uani
O7 O 0.3469(3) 0.5171(4) 0.5952(2) 0.0304 Uani
Cd1A Cd 0.56760(2) 0.49859(3) 0.32079(2) 0.0173 Uani
Cd1D Cd 0.56760(2) 0.50141(3) -0.17921(2) 0.0173 Uani
Cd1E Cd 0.43240(2) 0.50141(3) 0.67921(2) 0.0173 Uani
Cd2C Cd 0.04619(2) 0.50001(3) 0.39882(2) 0.0185 Uani
Cd2D Cd 0.54619(2) -0.00001(3) -0.10118(2) 0.0185 Uani
N5D N 0.4827(3) -0.1061(4) 0.0255(3) 0.0203 Uani
O2A O 0.5444(3) 0.5089(3) 0.1859(3) 0.0342 Uani
N6D N 0.4361(3) 0.6580(4) 0.1730(3) 0.0233 Uani
N7D N 0.4399(3) -0.1574(4) 0.1425(3) 0.0233 Uani
O3E O 0.4441(2) 0.4938(3) 0.0633(2) 0.0216 Uani
O4C O 0.3486(3) 0.0042(3) 0.1634(3) 0.0292 Uani
O5C O 0.3504(3) 0.0162(4) 0.0572(3) 0.0333 Uani
O7E O 0.3469(3) 0.4829(4) 0.0952(2) 0.0304 Uani
N8 N 0.2036(4) 0.3051(5) 0.6130(4) 0.0492 Uani
O8 O 0.1207(3) 0.3597(4) 0.6617(3) 0.0425 Uani
C20 C 0.1741(4) 0.3706(6) 0.6448(4) 0.0437 Uani
C21 C 0.2120(6) 0.4586(9) 0.6601(7) 0.0852 Uani
H10 H 0.1901 0.4949 0.6891 0.1280 Uiso
H11 H 0.2146 0.4914 0.6206 0.1280 Uiso
H12 H 0.2550 0.4445 0.6804 0.1280 Uiso
C22 C 0.1676(6) 0.2222(7) 0.5964(7) 0.0889 Uani
H13 H 0.1373 0.2120 0.6271 0.1330 Uiso
H14 H 0.1973 0.1721 0.5975 0.1330 Uiso
H15 H 0.1444 0.2276 0.5535 0.1330 Uiso
C23 C 0.2682(5) 0.3147(7) 0.5885(6) 0.0699 Uani
H16 H 0.2873 0.3719 0.6023 0.1050 Uiso
H17 H 0.2624 0.3120 0.5418 0.1050 Uiso
H18 H 0.2964 0.2664 0.6055 0.1050 Uiso
O9 O 0.6213(3) -0.1692(4) 0.1603(3) 0.0537 Uani
N9 N 0.7206(5) -0.2114(7) 0.1419(9) 0.1253 Uani
C24 C 0.6659(6) -0.1896(8) 0.1306(6) 0.0937 Uani
C25 C 0.6479(6) -0.2017(12) 0.0505(6) 0.1030 Uani
H19 H 0.6731 -0.1598 0.0286 0.1550 Uiso
H20 H 0.6025 -0.1900 0.0383 0.1550 Uiso
H21 H 0.6577 -0.2625 0.0383 0.1550 Uiso
C26 C 0.7427(7) -0.1969(13) 0.2186(6) 0.1222 Uani
H22 H 0.7803 -0.1583 0.2247 0.1830 Uiso
H23 H 0.7531 -0.2545 0.2389 0.1830 Uiso
H24 H 0.7079 -0.1692 0.2381 0.1830 Uiso
C27 C 0.7734(4) -0.2296(8) 0.1040(5) 0.0663 Uani
H25 H 0.7562 -0.2540 0.0624 0.0990 Uiso
H26 H 0.8027 -0.2727 0.1267 0.0990 Uiso
H27 H 0.7963 -0.1744 0.0979 0.0990 Uiso
loop_
_atom_site_aniso_label
_atom_site_aniso_U_11
_atom_site_aniso_U_22
_atom_site_aniso_U_33
_atom_site_aniso_U_23
_atom_site_aniso_U_13
_atom_site_aniso_U_12
Cd1 0.0196(7) 0.0207(7) 0.0120(7) -0.00013(17) 0.0039(2) 0.00080(17)
Cd2 0.0193(7) 0.0189(7) 0.0178(7) 0.00000(17) 0.0040(2) -0.00006(17)
C1 0.023(4) 0.022(3) 0.021(4) -0.001(3) 0.008(3) 0.000(3)
N1 0.018(3) 0.028(3) 0.013(3) -0.005(2) 0.004(2) 0.003(2)
C2 0.027(4) 0.026(3) 0.012(3) 0.004(3) 0.004(3) -0.007(3)
N2 0.029(3) 0.021(3) 0.023(3) 0.001(2) 0.002(2) 0.001(2)
C3 0.033(4) 0.031(4) 0.015(3) 0.010(3) 0.010(3) -0.002(3)
C4 0.020(3) 0.020(3) 0.026(4) 0.001(3) 0.004(3) -0.002(3)
N3 0.022(3) 0.017(3) 0.024(3) 0.000(2) 0.008(2) -0.001(2)
C5 0.026(3) 0.020(3) 0.014(3) 0.007(2) 0.012(2) 0.002(2)
N4 0.046(4) 0.021(3) 0.014(3) -0.004(2) 0.017(3) -0.005(3)
C6 0.027(4) 0.023(4) 0.012(3) 0.002(2) 0.002(3) -0.001(3)
O1 0.027(3) 0.080(5) 0.014(3) -0.009(2) 0.005(2) -0.002(2)
C7 0.024(4) 0.021(4) 0.018(4) 0.005(3) 0.005(3) 0.009(3)
C8 0.017(3) 0.025(4) 0.023(4) -0.001(3) 0.005(3) -0.003(2)
N5 0.021(3) 0.022(3) 0.018(3) 0.001(2) 0.003(2) -0.002(2)
C9 0.024(4) 0.029(4) 0.022(4) -0.004(3) 0.014(3) -0.001(3)
C10 0.022(4) 0.029(4) 0.019(4) -0.003(3) 0.013(3) -0.003(3)
C11 0.037(4) 0.020(3) 0.018(4) 0.000(3) 0.006(3) 0.000(3)
O2 0.023(3) 0.060(4) 0.020(3) -0.003(2) 0.004(2) 0.001(2)
C12 0.024(4) 0.025(4) 0.022(4) -0.004(3) 0.002(3) 0.002(3)
C13 0.023(4) 0.033(4) 0.011(3) -0.007(3) 0.003(3) 0.002(3)
C14 0.015(3) 0.025(3) 0.022(4) -0.004(3) 0.007(3) 0.003(2)
C15 0.015(3) 0.038(4) 0.018(4) 0.001(3) 0.009(3) 0.001(3)
N6 0.032(3) 0.019(3) 0.019(3) -0.005(2) 0.003(2) -0.001(2)
C16 0.015(3) 0.026(3) 0.023(4) -0.005(3) 0.006(3) 0.003(3)
N7 0.028(3) 0.027(3) 0.017(3) -0.008(2) 0.011(2) -0.001(2)
C17 0.041(4) 0.027(4) 0.021(4) 0.003(3) 0.006(3) 0.002(3)
C18 0.035(4) 0.034(4) 0.023(4) 0.000(3) 0.010(3) -0.006(3)
O3 0.021(3) 0.026(3) 0.018(3) -0.0004(18) 0.003(2) 0.0018(18)
O4 0.023(3) 0.040(3) 0.024(3) 0.004(2) 0.000(2) 0.000(2)
O5 0.022(3) 0.058(3) 0.022(3) -0.001(2) 0.011(2) 0.001(2)
C19 0.026(4) 0.015(3) 0.020(4) -0.002(2) 0.007(3) 0.000(2)
O6 0.029(3) 0.043(3) 0.028(3) 0.007(2) -0.003(2) 0.004(2)
O7 0.027(3) 0.053(3) 0.012(3) -0.003(2) 0.006(2) -0.001(2)
Cd1A 0.0196 0.0207 0.012 0.00013 0.0039 -0.0008
Cd1D 0.0196 0.0207 0.012 -0.00013 0.0039 0.0008
Cd1E 0.0196 0.0207 0.012 0.00013 0.0039 -0.0008
Cd2C 0.0193 0.0189 0.0178 0 0.004 6e-05
Cd2D 0.0193 0.0189 0.0178 0 0.004 -6e-05
N5D 0.021 0.022 0.018 0.001 0.003 -0.002
O2A 0.023 0.06 0.02 0.003 0.004 -0.001
N6D 0.032 0.019 0.019 -0.005 0.003 -0.001
N7D 0.028 0.027 0.017 -0.008 0.011 -0.001
O3E 0.021 0.026 0.018 0.0004 0.003 -0.0018
O4C 0.023 0.04 0.024 -0.004 0 0
O5C 0.022 0.058 0.022 0.001 0.011 -0.001
O7E 0.027 0.053 0.012 0.003 0.006 0.001
N8 0.040(4) 0.054(5) 0.056(5) 0.006(4) 0.016(4) 0.001(3)
O8 0.033(3) 0.057(4) 0.042(3) 0.006(3) 0.023(3) 0.002(3)
C20 0.045(5) 0.055(5) 0.033(5) 0.004(4) 0.012(4) 0.006(4)
C21 0.065(7) 0.093(9) 0.105(10) -0.052(8) 0.040(7) -0.027(7)
C22 0.077(8) 0.039(6) 0.154(14) -0.014(7) 0.028(8) -0.006(5)
C23 0.074(8) 0.062(7) 0.080(8) -0.015(6) 0.035(6) -0.012(6)
O9 0.053(4) 0.056(4) 0.056(4) 0.005(3) 0.022(3) 0.019(3)
N9 0.055(7) 0.067(7) 0.27(2) -0.012(9) 0.084(9) 0.003(5)
C24 0.070(9) 0.058(7) 0.161(15) 0.039(8) 0.046(9) 0.008(6)
C25 0.061(8) 0.179(15) 0.065(9) -0.003(9) -0.008(6) 0.000(9)
C26 0.112(12) 0.225(19) 0.025(6) 0.003(9) -0.010(7) -0.024(12)
C27 0.033(5) 0.101(9) 0.063(7) -0.023(6) -0.002(5) 0.006(5)
loop_
_geom_bond_atom_site_label_1
_geom_bond_atom_site_label_2
_geom_bond_site_symmetry_1
_geom_bond_site_symmetry_2
Cd1 N1 1_555 1_555
Cd2 N2 1_555 1_555
C1 H1 1_555 1_555
N1 C1 1_555 1_555
C2 H2 1_555 1_555
N2 C2 1_555 1_555
C3 N1 1_555 1_555
H3 C3 1_555 1_555
C4 C1 1_555 1_555
N3 Cd2 1_555 1_555
C5 C4 1_555 1_555
N4 C5 1_555 1_555
C6 H4 1_555 1_555
O1 Cd1 1_555 1_555
C7 O1 1_555 1_555
C8 C6 1_555 1_555
N5 N3 1_555 1_555
C9 H5 1_555 1_555
C10 C9 1_555 1_555
C11 N4 1_555 1_555
O2 Cd1 1_555 1_555
C12 C16 1_555 1_555
C13 C14 1_555 1_555
C14 C8 1_555 1_555
H6 C14 1_555 1_555
C15 C13 1_555 1_555
H7 C15 1_555 1_555
N6 C9 1_555 1_555
C16 C6 1_555 1_555
N7 C10 1_555 1_555
C17 N6 1_555 1_555
H8 C17 1_555 1_555
C18 N7 1_555 1_555
H9 C18 1_555 1_555
O3 C19 1_555 1_555
O4 C12 1_555 1_555
O5 C12 1_555 1_555
C19 C13 1_555 1_555
O6 Cd2 1_555 1_555
O7 C19 1_555 1_555
N8 C20 1_555 1_555
O8 C20 1_555 1_555
C20 C21 1_555 1_555
C21 H10 1_555 1_555
H11 C21 1_555 1_555
H12 C21 1_555 1_555
C22 N8 1_555 1_555
H13 C22 1_555 1_555
H14 C22 1_555 1_555
H15 C22 1_555 1_555
C23 N8 1_555 1_555
H16 C23 1_555 1_555
H17 C23 1_555 1_555
H18 C23 1_555 1_555
O9 C24 1_555 1_555
N9 C24 1_555 1_555
C24 C25 1_555 1_555
C25 H19 1_555 1_555
H20 C25 1_555 1_555
H21 C25 1_555 1_555
C26 N9 1_555 1_555
H22 C26 1_555 1_555
H23 C26 1_555 1_555
H24 C26 1_555 1_555
C27 N9 1_555 1_555
H25 C27 1_555 1_555
H26 C27 1_555 1_555
H27 C27 1_555 1_555
Cd1A O2 1_555 1_555
Cd1D N6 1_555 1_555
Cd1E O3 1_555 1_555
Cd2C O4 1_555 1_555
Cd2D N5 1_555 1_555
N5D Cd2 1_555 1_555
O2A Cd1 1_555 1_555
N6D Cd1 1_555 1_555
N7D Cd2 1_555 1_555
O3E Cd1 1_555 1_555
O4C Cd2 1_555 1_555
O5C Cd2 1_555 1_555
O7E Cd1 1_555 1_555
C2 C3 1_555 1_555
N2 C4 1_555 1_555
N3 C5 1_555 1_555
C7 C8 1_555 1_555
C7 O2 1_555 1_555
N5 C11 1_555 1_555
C10 C11 1_555 1_555
C15 C16 1_555 1_555
N7 Cd2D 1_555 1_555
C17 C18 1_555 1_555
O5 Cd2C 1_555 1_555
O7 Cd1E 1_555 1_555
Cd1A O2A 1_555 1_555

#END
