
#######################################################################
#
#                 Cambridge Crystallographic Data Centre
#                                CCDC 
#
#######################################################################
#
# If this CIF has been generated from an entry in the Cambridge 
# Structural Database, then it will include bibliographic, chemical, 
# crystal, experimental, refinement or atomic coordinate data resulting 
# from the CCDC's data processing and validation procedures.
#
#######################################################################

data_MURFIQ
_chemical_formula_moiety         '(C40 H26 Mn1 N8 O1)n'
_symmetry_cell_setting           rhombohedral
_symmetry_space_group_name_H-M   'R -3'
_symmetry_Int_Tables_number      148
_space_group_name_Hall           '-R 3'
loop_
_symmetry_equiv_pos_site_id
_symmetry_equiv_pos_as_xyz
1 x,y,z
2 -y,x-y,z
3 -x+y,-x,z
4 2/3+x,1/3+y,1/3+z
5 2/3-y,1/3+x-y,1/3+z
6 2/3-x+y,1/3-x,1/3+z
7 1/3+x,2/3+y,2/3+z
8 1/3-y,2/3+x-y,2/3+z
9 1/3-x+y,2/3-x,2/3+z
10 -x,-y,-z
11 y,-x+y,-z
12 x-y,x,-z
13 1/3-x,2/3-y,2/3-z
14 1/3+y,2/3-x+y,2/3-z
15 1/3+x-y,2/3+x,2/3-z
16 2/3-x,1/3-y,1/3-z
17 2/3+y,1/3-x+y,1/3-z
18 2/3+x-y,1/3+x,1/3-z
_cell_length_a                   33.320(3)
_cell_length_b                   33.320(3)
_cell_length_c                   9.2856(18)
_cell_angle_alpha                90
_cell_angle_beta                 90
_cell_angle_gamma                120
_cell_volume                     8927.93
loop_
_atom_site_label
_atom_site_type_symbol
_atom_site_fract_x
_atom_site_fract_y
_atom_site_fract_z
_atom_site_U_iso_or_equiv
_atom_site_thermal_displace_type
Mn1 Mn 0.5000 1.0000 0.5000 0.0262 Uani
C1 C 0.46959(9) 0.92887(10) 0.1970(3) 0.0320 Uani
C2 C 0.43439(9) 0.91839(10) 0.2993(3) 0.0325 Uani
C3 C 0.39775(8) 0.92248(9) 0.4916(3) 0.0312 Uani
C4 C 0.38881(9) 0.93767(10) 0.6226(3) 0.0337 Uani
C5 C 0.38591(10) 0.88376(11) 0.2836(4) 0.0445 Uani
H1 H 0.3726 0.8636 0.2063 0.0530 Uiso
C6 C 0.51606(9) 0.96600(10) 0.2049(3) 0.0319 Uani
C7 C 0.58041(9) 1.02628(10) 0.2874(3) 0.0335 Uani
C8 C 0.45694(10) 0.89724(11) 0.0706(3) 0.0389 Uani
C9 C 0.36355(10) 0.88609(11) 0.4015(3) 0.0450 Uani
H2 H 0.3321 0.8677 0.4211 0.0540 Uiso
C10 C 0.55346(11) 0.97201(12) 0.1113(4) 0.0483 Uani
H3 H 0.5511 0.9540 0.0317 0.0580 Uiso
C11 C 0.45762(11) 0.91253(12) -0.0683(3) 0.0473 Uani
H4 H 0.4671 0.9435 -0.0854 0.0570 Uiso
C12 C 0.59282(11) 1.00934(12) 0.1629(4) 0.0517 Uani
H5 H 0.6224 1.0216 0.1243 0.0620 Uiso
C13 C 0.44291(13) 0.85070(12) 0.0876(4) 0.0574 Uani
H6 H 0.4417 0.8387 0.1789 0.0690 Uiso
C14 C 0.43082(17) 0.82253(14) -0.0313(5) 0.0778 Uani
H7 H 0.4219 0.7915 -0.0179 0.0930 Uiso
C15 C 0.44442(13) 0.88216(15) -0.1798(4) 0.0634 Uani
H8 H 0.4445 0.8932 -0.2719 0.0760 Uiso
C16 C 0.33819(9) 0.91307(10) 0.6659(3) 0.0353 Uani
C17 C 0.30726(10) 0.92385(12) 0.6029(4) 0.0482 Uani
H9 H 0.3173 0.9471 0.5337 0.0580 Uiso
C18 C 0.32136(10) 0.87870(12) 0.7693(4) 0.0500 Uani
H10 H 0.3409 0.8705 0.8161 0.0600 Uiso
C19 C 0.26138(10) 0.89992(12) 0.6432(4) 0.0468 Uani
H11 H 0.2410 0.9075 0.5990 0.0560 Uiso
C20 C 0.27463(11) 0.85679(13) 0.8011(4) 0.0510 Uani
H12 H 0.2634 0.8333 0.8698 0.0620 Uiso
N1 N 0.44029(7) 0.94077(8) 0.4266(2) 0.0291 Uani
N2 N 0.53341(7) 0.99965(8) 0.3081(2) 0.0296 Uani
N3 N 0.24479(8) 0.86670(9) 0.7414(3) 0.0386 Uani
N4 N 0.43125(13) 0.83725(14) -0.1648(4) 0.0773 Uani
C1I C 0.53041(9) 1.07113(10) 0.8030(3) 0.0320 Uani
C2I C 0.56561(9) 1.08161(10) 0.7007(3) 0.0325 Uani
C3I C 0.60225(8) 1.07752(9) 0.5084(3) 0.0312 Uani
C4I C 0.61119(9) 1.06233(10) 0.3774(3) 0.0337 Uani
C5I C 0.61409(10) 1.11624(11) 0.7164(4) 0.0445 Uani
H1I H 0.6274 1.1364 0.7937 0.0530 Uiso
C6I C 0.48394(9) 1.03400(10) 0.7951(3) 0.0319 Uani
C7I C 0.41959(9) 0.97372(10) 0.7126(3) 0.0335 Uani
C8I C 0.54306(10) 1.10276(11) 0.9294(3) 0.0389 Uani
C9I C 0.63645(10) 1.11391(11) 0.5985(3) 0.0450 Uani
H2I H 0.6679 1.1323 0.5789 0.0540 Uiso
C10I C 0.44654(11) 1.02799(12) 0.8887(4) 0.0483 Uani
H3I H 0.4489 1.0460 0.9683 0.0580 Uiso
C11I C 0.54238(11) 1.08747(12) 1.0683(3) 0.0473 Uani
H4I H 0.5329 1.0565 1.0854 0.0570 Uiso
C12I C 0.40718(11) 0.99066(12) 0.8371(4) 0.0517 Uani
H5I H 0.3776 0.9784 0.8757 0.0620 Uiso
C13I C 0.55709(13) 1.14930(12) 0.9124(4) 0.0574 Uani
H6I H 0.5583 1.1613 0.8211 0.0690 Uiso
C14I C 0.56918(17) 1.17747(14) 1.0313(5) 0.0778 Uani
H7I H 0.5781 1.2085 1.0179 0.0930 Uiso
C15I C 0.55558(13) 1.11784(15) 1.1798(4) 0.0634 Uani
H8I H 0.5555 1.1068 1.2719 0.0760 Uiso
C16I C 0.66181(9) 1.08693(10) 0.3341(3) 0.0353 Uani
C17I C 0.69274(10) 1.07615(12) 0.3971(4) 0.0482 Uani
H9I H 0.6827 1.0529 0.4663 0.0580 Uiso
C18I C 0.67864(10) 1.12130(12) 0.2307(4) 0.0500 Uani
H10I H 0.6591 1.1295 0.1839 0.0600 Uiso
C19I C 0.73862(10) 1.10008(12) 0.3568(4) 0.0468 Uani
H11I H 0.7590 1.0925 0.4010 0.0560 Uiso
C20I C 0.72537(11) 1.14321(13) 0.1989(4) 0.0510 Uani
H12I H 0.7366 1.1667 0.1302 0.0620 Uiso
N1I N 0.55971(7) 1.05923(8) 0.5734(2) 0.0291 Uani
N2I N 0.46659(7) 1.00035(8) 0.6919(2) 0.0296 Uani
N3I N 0.75521(8) 1.13330(9) 0.2586(3) 0.0386 Uani
N4I N 0.56875(13) 1.16275(14) 1.1648(4) 0.0773 Uani
Mn1E Mn 0.1667 0.8333 0.8333 0.0262 Uani
Mn1H Mn 0.8333 1.1667 0.1667 0.0262 Uani
N3G N 0.46663(9) 1.04476(12) 0.4081(3) 0.0386 Uani
N3P N 0.53337(9) 0.95524(12) 0.5919(3) 0.0386 Uani
O1 O 0.3901(2) 0.7617(3) 0.6426(7) 0.1544 Uiso
H13 H 0.4194(11) 0.7838(17) 0.651(11) 0.2700 Uiso
H14 H 0.385(2) 0.7357(12) 0.688(6) 0.1500 Uiso
loop_
_atom_site_aniso_label
_atom_site_aniso_U_11
_atom_site_aniso_U_22
_atom_site_aniso_U_33
_atom_site_aniso_U_23
_atom_site_aniso_U_13
_atom_site_aniso_U_12
Mn1 0.0181(3) 0.0302(3) 0.0306(3) 0.0035(2) 0.0047(2) 0.0123(2)
C1 0.0284(14) 0.0367(15) 0.0324(14) 0.0016(12) 0.0014(11) 0.0175(12)
C2 0.0253(13) 0.0332(14) 0.0391(16) 0.0033(12) 0.0008(11) 0.0148(12)
C3 0.0191(12) 0.0338(14) 0.0375(15) 0.0064(12) 0.0050(11) 0.0108(11)
C4 0.0196(13) 0.0403(16) 0.0375(15) 0.0069(12) 0.0069(11) 0.0122(12)
C5 0.0275(15) 0.0437(17) 0.0474(18) -0.0080(14) -0.0005(13) 0.0067(13)
C6 0.0255(13) 0.0373(15) 0.0314(14) 0.0024(12) 0.0053(11) 0.0145(12)
C7 0.0230(13) 0.0418(16) 0.0335(15) 0.0050(12) 0.0077(11) 0.0145(12)
C8 0.0286(14) 0.0440(17) 0.0417(17) -0.0030(13) 0.0042(12) 0.0163(13)
C9 0.0242(14) 0.0475(18) 0.0483(18) -0.0075(15) 0.0032(13) 0.0066(13)
C10 0.0348(16) 0.057(2) 0.0453(18) -0.0122(15) 0.0096(14) 0.0170(15)
C11 0.0448(18) 0.0508(19) 0.0398(17) -0.0019(15) -0.0016(14) 0.0191(16)
C12 0.0271(15) 0.066(2) 0.053(2) -0.0064(17) 0.0147(14) 0.0165(15)
C13 0.066(2) 0.045(2) 0.058(2) -0.0026(17) 0.0063(18) 0.0254(18)
C14 0.087(3) 0.046(2) 0.088(3) -0.014(2) 0.006(3) 0.024(2)
C15 0.060(2) 0.079(3) 0.045(2) -0.0086(19) -0.0011(17) 0.030(2)
C16 0.0214(13) 0.0399(16) 0.0359(15) 0.0000(12) 0.0078(11) 0.0088(12)
C17 0.0300(16) 0.060(2) 0.0496(19) 0.0190(16) 0.0145(14) 0.0188(15)
C18 0.0314(16) 0.063(2) 0.054(2) 0.0204(17) 0.0129(14) 0.0225(16)
C19 0.0286(15) 0.062(2) 0.0488(19) 0.0100(16) 0.0066(13) 0.0218(15)
C20 0.0338(17) 0.056(2) 0.057(2) 0.0196(17) 0.0142(15) 0.0177(15)
N1 0.0214(11) 0.0345(12) 0.0326(12) 0.0049(10) 0.0043(9) 0.0148(10)
N2 0.0218(11) 0.0335(12) 0.0310(12) 0.0049(9) 0.0050(9) 0.0120(10)
N3 0.0229(12) 0.0447(14) 0.0400(14) 0.0030(11) 0.0093(10) 0.0107(11)
N4 0.070(2) 0.078(3) 0.072(3) -0.032(2) -0.0032(19) 0.028(2)
C1I 0.0284 0.0367 0.0324 0.0016 0.0014 0.0175
C2I 0.0253 0.0332 0.0391 0.0033 0.0008 0.0148
C3I 0.0191 0.0338 0.0375 0.0064 0.005 0.0108
C4I 0.0196 0.0403 0.0375 0.0069 0.0069 0.0122
C5I 0.0275 0.0437 0.0474 -0.008 -0.0005 0.0067
C6I 0.0255 0.0373 0.0314 0.0024 0.0053 0.0145
C7I 0.023 0.0418 0.0335 0.005 0.0077 0.0145
C8I 0.0286 0.044 0.0417 -0.003 0.0042 0.0163
C9I 0.0242 0.0475 0.0483 -0.0075 0.0032 0.0066
C10I 0.0348 0.057 0.0453 -0.0122 0.0096 0.017
C11I 0.0448 0.0508 0.0398 -0.0019 -0.0016 0.0191
C12I 0.0271 0.066 0.053 -0.0064 0.0147 0.0165
C13I 0.066 0.045 0.058 -0.0026 0.0063 0.0254
C14I 0.087 0.046 0.088 -0.014 0.006 0.024
C15I 0.06 0.079 0.045 -0.0086 -0.0011 0.03
C16I 0.0214 0.0399 0.0359 0 0.0078 0.0088
C17I 0.03 0.06 0.0496 0.019 0.0145 0.0188
C18I 0.0314 0.063 0.054 0.0204 0.0129 0.0225
C19I 0.0286 0.062 0.0488 0.01 0.0066 0.0218
C20I 0.0338 0.056 0.057 0.0196 0.0142 0.0177
N1I 0.0214 0.0345 0.0326 0.0049 0.0043 0.0148
N2I 0.0218 0.0335 0.031 0.0049 0.005 0.012
N3I 0.0229 0.0447 0.04 0.003 0.0093 0.0107
N4I 0.07 0.078 0.072 -0.032 -0.0032 0.028
Mn1E 0.0237 0.0181 0.0306 -0.0047 -0.0012 0.0058
Mn1H 0.0237 0.0181 0.0306 -0.0047 -0.0012 0.0058
N3G 0.0447 0.0462 0.04 0.0063 -0.003 0.034
N3P 0.0447 0.0462 0.04 0.0063 -0.003 0.034
loop_
_geom_bond_atom_site_label_1
_geom_bond_atom_site_label_2
_geom_bond_site_symmetry_1
_geom_bond_site_symmetry_2
Mn1 N1 1_555 1_555
C1 C2 1_555 1_555
C2 C5 1_555 1_555
C3 C4 1_555 1_555
C4 C16 1_555 1_555
C5 H1 1_555 1_555
C6 C1 1_555 1_555
C7 C12 1_555 1_555
C8 C1 1_555 1_555
C9 C3 1_555 1_555
H2 C9 1_555 1_555
C10 C6 1_555 1_555
H3 C10 1_555 1_555
C11 C8 1_555 1_555
H4 C11 1_555 1_555
C12 C10 1_555 1_555
H5 C12 1_555 1_555
C13 C8 1_555 1_555
H6 C13 1_555 1_555
C14 C13 1_555 1_555
H7 C14 1_555 1_555
C15 C11 1_555 1_555
H8 C15 1_555 1_555
C16 C17 1_555 1_555
C17 H9 1_555 1_555
C18 C16 1_555 1_555
H10 C18 1_555 1_555
C19 C17 1_555 1_555
H11 C19 1_555 1_555
C20 C18 1_555 1_555
H12 C20 1_555 1_555
N1 C2 1_555 1_555
N2 Mn1 1_555 1_555
N3 C19 1_555 1_555
N4 C14 1_555 1_555
O1 H13 1_555 1_555
H14 O1 1_555 1_555
C1I C2I 1_555 1_555
C2I C5I 1_555 1_555
C3I C4I 1_555 1_555
C4I C7 1_555 1_555
C5I H1I 1_555 1_555
C6I C1I 1_555 1_555
C7I C4 1_555 1_555
C8I C1I 1_555 1_555
C9I C3I 1_555 1_555
H2I C9I 1_555 1_555
C10I C6I 1_555 1_555
H3I C10I 1_555 1_555
C11I C8I 1_555 1_555
H4I C11I 1_555 1_555
C12I C7I 1_555 1_555
H5I C12I 1_555 1_555
C13I C8I 1_555 1_555
H6I C13I 1_555 1_555
C14I C13I 1_555 1_555
H7I C14I 1_555 1_555
C15I C11I 1_555 1_555
H8I C15I 1_555 1_555
C16I C4I 1_555 1_555
C17I C16I 1_555 1_555
H9I C17I 1_555 1_555
C18I C16I 1_555 1_555
H10I C18I 1_555 1_555
C19I C17I 1_555 1_555
H11I C19I 1_555 1_555
C20I C18I 1_555 1_555
H12I C20I 1_555 1_555
N1I Mn1 1_555 1_555
N2I Mn1 1_555 1_555
N3I C19I 1_555 1_555
N4I C14I 1_555 1_555
Mn1E N3 1_555 1_555
Mn1H N3I 1_555 1_555
N3G Mn1 1_555 1_555
N3P Mn1 1_555 1_555
C3 N1 1_555 1_555
C5 C9 1_555 1_555
C6 N2 1_555 1_555
C7 N2 1_555 1_555
C15 N4 1_555 1_555
C20 N3 1_555 1_555
C2I N1I 1_555 1_555
C3I N1I 1_555 1_555
C5I C9I 1_555 1_555
C6I N2I 1_555 1_555
C7I N2I 1_555 1_555
C10I C12I 1_555 1_555
C15I N4I 1_555 1_555
C20I N3I 1_555 1_555

#END
