
#######################################################################
#
#                 Cambridge Crystallographic Data Centre
#                                CCDC 
#
#######################################################################
#
# If this CIF has been generated from an entry in the Cambridge 
# Structural Database, then it will include bibliographic, chemical, 
# crystal, experimental, refinement or atomic coordinate data resulting 
# from the CCDC's data processing and validation procedures.
#
#######################################################################

data_NOPJOT
_chemical_formula_moiety         '(C36 H30 Mn3 N2 O17)n'
_symmetry_cell_setting           monoclinic
_symmetry_space_group_name_H-M   'P 21/c'
_symmetry_Int_Tables_number      14
_space_group_name_Hall           '-P 2ybc'
loop_
_symmetry_equiv_pos_site_id
_symmetry_equiv_pos_as_xyz
1 x,y,z
2 -x,1/2+y,1/2-z
3 -x,-y,-z
4 x,1/2-y,1/2+z
_cell_length_a                   19.7020(18)
_cell_length_b                   18.1181(15)
_cell_length_c                   14.3185(12)
_cell_angle_alpha                90
_cell_angle_beta                 97.583(2)
_cell_angle_gamma                90
_cell_volume                     5066.47
loop_
_atom_site_label
_atom_site_type_symbol
_atom_site_fract_x
_atom_site_fract_y
_atom_site_fract_z
Mn1 Mn 0.24780(4) 0.85554(5) 0.05781(6)
Mn2 Mn 0.29284(4) 0.85659(5) 0.39312(6)
Mn3 Mn 0.27325(5) 0.99025(5) 0.22796(6)
C1 C -0.1740(3) 0.9806(3) -0.0889(4)
C2 C -0.1160(3) 0.9620(3) -0.0142(4)
C3 C -0.0928(3) 1.0131(4) 0.0537(5)
H1 H -0.1142 1.0587 0.0551
C4 C -0.0837(4) 0.8939(4) -0.0153(5)
H2 H -0.0982 0.8596 -0.0619
C5 C -0.0368(3) 0.9960(4) 0.1204(5)
H3 H -0.0202 1.0306 0.1656
C6 C -0.0297(4) 0.8779(4) 0.0536(5)
H4 H -0.0090 0.8317 0.0550
C7 C -0.0070(3) 0.9295(4) 0.1192(5)
C8 C 0.0487(3) 0.8601(4) 0.2479(5)
C9 C -0.0116(4) 0.8413(5) 0.2821(6)
H5 H -0.0525 0.8649 0.2602
C10 C 0.1111(3) 0.8272(3) 0.2818(4)
C11 C 0.1733(3) 0.8517(3) 0.2369(4)
C12 C -0.0093(4) 0.7861(5) 0.3503(6)
H6 H -0.0494 0.7712 0.3726
C13 C 0.1118(3) 0.7743(4) 0.3521(4)
C14 C 0.1772(3) 0.7367(3) 0.3935(4)
C15 C 0.0515(3) 0.7541(5) 0.3843(5)
H7 H 0.0523 0.7177 0.4303
C16 C 0.6657(4) 0.9726(4) 0.6000(5)
C17 C 0.6217(3) 0.9555(3) 0.5121(4)
C18 C 0.5806(3) 1.0083(3) 0.4651(4)
H8 H 0.5818 1.0563 0.4883
C19 C 0.6191(4) 0.8831(4) 0.4750(5)
H9 H 0.6477 0.8466 0.5040
C20 C 0.5378(3) 0.9917(3) 0.3845(4)
H10 H 0.5106 1.0284 0.3535
C21 C 0.5735(4) 0.8665(4) 0.3944(5)
H11 H 0.5697 0.8183 0.3718
C22 C 0.5348(3) 0.9212(4) 0.3492(4)
C23 C 0.4916(3) 0.8525(4) 0.2099(5)
C24 C 0.5519(3) 0.8321(5) 0.1782(6)
H12 H 0.5931 0.8542 0.2024
C25 C 0.4290(3) 0.8220(3) 0.1732(4)
C26 C 0.3667(3) 0.8471(3) 0.2148(4)
C27 C 0.5501(4) 0.7784(5) 0.1100(6)
H13 H 0.5905 0.7637 0.0886
C28 C 0.4289(3) 0.7686(3) 0.1019(4)
C29 C 0.3628(3) 0.7338(3) 0.0573(4)
C30 C 0.4897(3) 0.7461(5) 0.0733(5)
H14 H 0.4896 0.7088 0.0287
C31 C 0.3360(5) 0.8733(6) -0.1023(7)
H15 H 0.3300 0.8225 -0.1067
C32 C 0.4116(8) 0.8614(7) -0.2215(10)
H16 H 0.4039 0.8823 -0.2836
H17 H 0.3979 0.8105 -0.2240
H18 H 0.4594 0.8649 -0.1975
C33 C 0.3694(13) 0.9790(12) -0.1779(18)
H19 H 0.3293 0.9903 -0.2212
H20 H 0.4095 0.9938 -0.2045
H21 H 0.3676 1.0050 -0.1198
C34 C 0.2031(4) 0.8758(5) 0.5541(6)
H22 H 0.2174 0.8288 0.5739
C35 C 0.1223(8) 0.8715(8) 0.6677(10)
H23 H 0.0795 0.8502 0.6411
H24 H 0.1142 0.9084 0.7131
H25 H 0.1514 0.8336 0.6981
C36 C 0.1412(14) 0.9768(10) 0.5604(18)
H26 H 0.1786 0.9941 0.5294
H27 H 0.1356 1.0088 0.6123
H28 H 0.0999 0.9767 0.5165
N1 N 0.3720(6) 0.9014(5) -0.1602(8)
N2 N 0.1552(5) 0.9051(5) 0.5938(7)
O1 O -0.2110(2) 1.0351(2) -0.0761(3)
O2 O -0.1862(3) 0.9419(3) -0.1617(3)
O3 O 0.0513(2) 0.9166(3) 0.1833(3)
O4 O 0.1823(2) 0.8224(2) 0.1618(3)
O5 O 0.20918(19) 0.9030(2) 0.2797(3)
O6 O 0.23355(19) 0.7600(2) 0.3694(3)
O7 O 0.1718(2) 0.6856(2) 0.4521(3)
O8 O 0.7032(3) 0.9265(3) 0.6445(4)
O9 O 0.6647(2) 1.0375(2) 0.6332(3)
O10 O 0.4872(2) 0.9116(3) 0.2709(3)
O11 O 0.35656(19) 0.8192(2) 0.2893(3)
O12 O 0.33151(19) 0.8988(2) 0.1714(3)
O13 O 0.30703(19) 0.7578(2) 0.0802(3)
O14 O 0.3681(2) 0.6841(2) -0.0015(3)
O15 O 0.3420(4) 1.0611(4) 0.1603(6)
O16 O 0.3090(3) 0.9029(3) -0.0434(4)
O17 O 0.2318(3) 0.9041(3) 0.4927(3)
Mn1B Mn -0.24780(4) 1.14446(5) -0.05781(6)
Mn1C Mn 0.24780(4) 0.64446(5) 0.55781(6)
Mn2B Mn 0.70716(4) 1.14341(5) 0.60688(6)
Mn2C Mn 0.29284(4) 0.64341(5) -0.10688(6)
Mn3B Mn -0.27325(5) 1.00975(5) -0.22796(6)
Mn3B_2 Mn 0.72675(5) 1.00975(5) 0.77204(6)
O1B O 0.2110(2) 0.9649(2) 0.0761(3)
O2B O 0.1862(3) 1.0581(3) 0.1617(3)
O7C O 0.1718(2) 0.8144(2) -0.0479(3)
O8B O 0.2968(3) 1.0735(3) 0.3555(4)
O9B O 0.3353(2) 0.9625(2) 0.3668(3)
O14C O 0.3681(2) 0.8159(2) 0.4985(3)
loop_
_geom_bond_atom_site_label_1
_geom_bond_atom_site_label_2
_geom_bond_site_symmetry_1
_geom_bond_site_symmetry_2
Mn1 O4 1_555 1_555
Mn2 O5 1_555 1_555
Mn3 O5 1_555 1_555
C1 C2 1_555 1_555
C2 C3 1_555 1_555
C3 H1 1_555 1_555
C4 C2 1_555 1_555
H2 C4 1_555 1_555
C5 C3 1_555 1_555
H3 C5 1_555 1_555
C6 C4 1_555 1_555
H4 C6 1_555 1_555
C7 C5 1_555 1_555
C8 C9 1_555 1_555
C9 H5 1_555 1_555
C10 C8 1_555 1_555
C11 C10 1_555 1_555
C12 C9 1_555 1_555
H6 C12 1_555 1_555
C13 C10 1_555 1_555
C14 C13 1_555 1_555
C15 C12 1_555 1_555
H7 C15 1_555 1_555
C16 C17 1_555 1_555
C17 C18 1_555 1_555
C18 H8 1_555 1_555
C19 C17 1_555 1_555
H9 C19 1_555 1_555
C20 C18 1_555 1_555
H10 C20 1_555 1_555
C21 C19 1_555 1_555
H11 C21 1_555 1_555
C22 C20 1_555 1_555
C23 C24 1_555 1_555
C24 H12 1_555 1_555
C25 C23 1_555 1_555
C26 C25 1_555 1_555
C27 C24 1_555 1_555
H13 C27 1_555 1_555
C28 C25 1_555 1_555
C29 C28 1_555 1_555
C30 C27 1_555 1_555
H14 C30 1_555 1_555
C31 H15 1_555 1_555
C32 H16 1_555 1_555
H17 C32 1_555 1_555
H18 C32 1_555 1_555
C33 H19 1_555 1_555
H20 C33 1_555 1_555
H21 C33 1_555 1_555
C34 H22 1_555 1_555
C35 H23 1_555 1_555
H24 C35 1_555 1_555
H25 C35 1_555 1_555
C36 H26 1_555 1_555
H27 C36 1_555 1_555
H28 C36 1_555 1_555
N1 C31 1_555 1_555
N2 C34 1_555 1_555
O1 C1 1_555 1_555
O2 C1 1_555 1_555
O3 C7 1_555 1_555
O4 C11 1_555 1_555
O5 C11 1_555 1_555
O6 Mn2 1_555 1_555
O7 C14 1_555 1_555
O8 C16 1_555 1_555
O9 C16 1_555 1_555
O10 C22 1_555 1_555
O11 Mn2 1_555 1_555
O12 Mn1 1_555 1_555
O13 Mn1 1_555 1_555
O14 C29 1_555 1_555
O15 Mn3 1_555 1_555
O16 Mn1 1_555 1_555
O17 Mn2 1_555 1_555
Mn1B O1 1_555 1_555
Mn1C O7 1_555 1_555
Mn2B O9 1_555 1_555
Mn2C O14 1_555 1_555
Mn3B O1 1_555 1_555
Mn3B_2 O8 1_555 1_555
O1B Mn1 1_555 1_555
O2B Mn3 1_555 1_555
O7C Mn1 1_555 1_555
O8B Mn3 1_555 1_555
O9B Mn2 1_555 1_555
O14C Mn2 1_555 1_555
Mn3 O12 1_555 1_555
Mn3 O1B 1_555 1_555
Mn3 O9B 1_555 1_555
C6 C7 1_555 1_555
C8 O3 1_555 1_555
C13 C15 1_555 1_555
C14 O6 1_555 1_555
C21 C22 1_555 1_555
C23 O10 1_555 1_555
C26 O11 1_555 1_555
C26 O12 1_555 1_555
C28 C30 1_555 1_555
C29 O13 1_555 1_555
C31 O16 1_555 1_555
C32 N1 1_555 1_555
C33 N1 1_555 1_555
C34 O17 1_555 1_555
C35 N2 1_555 1_555
C36 N2 1_555 1_555
O2 Mn3B 1_555 1_555
O9 Mn3B_2 1_555 1_555

#END
