
#######################################################################
#
#                 Cambridge Crystallographic Data Centre
#                                CCDC 
#
#######################################################################
#
# If this CIF has been generated from an entry in the Cambridge 
# Structural Database, then it will include bibliographic, chemical, 
# crystal, experimental, refinement or atomic coordinate data resulting 
# from the CCDC's data processing and validation procedures.
#
#######################################################################

data_ODERIZ
_chemical_formula_moiety         '(C8 H8 F2 N4 O4 Pd1)n'
_symmetry_cell_setting           cubic
_symmetry_space_group_name_H-M   'P n -3 m'
_symmetry_Int_Tables_number      224
_space_group_name_Hall           '-P 4bc 2bc 3'
loop_
_symmetry_equiv_pos_site_id
_symmetry_equiv_pos_as_xyz
1 x,y,z
2 1/2-x,y,1/2-z
3 1/2-x,1/2-y,z
4 x,1/2-y,1/2-z
5 -y,1/2+x,1/2+z
6 1/2+y,-x,1/2+z
7 1/2+z,1/2+y,-x
8 -z,1/2+y,1/2+x
9 -y,-x,-z
10 1/2+y,1/2+x,-z
11 z,x,y
12 y,z,x
13 -z,-y,-x
14 -x,-z,-y
15 z,1/2-x,1/2-y
16 y,1/2-z,1/2-x
17 1/2-z,x,1/2-y
18 1/2-y,z,1/2-x
19 1/2-z,1/2-x,y
20 1/2-y,1/2-z,x
21 -x,1/2+z,1/2+y
22 1/2+x,-z,1/2+y
23 1/2+z,-y,1/2+x
24 1/2+x,1/2+z,-y
25 -x,-y,-z
26 1/2+x,-y,1/2+z
27 1/2+x,1/2+y,-z
28 -x,1/2+y,1/2+z
29 y,1/2-x,1/2-z
30 1/2-y,x,1/2-z
31 1/2-z,1/2-y,x
32 z,1/2-y,1/2-x
33 y,x,z
34 1/2-y,1/2-x,z
35 -z,-x,-y
36 -y,-z,-x
37 z,y,x
38 x,z,y
39 -z,1/2+x,1/2+y
40 -y,1/2+z,1/2+x
41 1/2+z,-x,1/2+y
42 1/2+y,-z,1/2+x
43 1/2+z,1/2+x,-y
44 1/2+y,1/2+z,-x
45 x,1/2-z,1/2-y
46 1/2-x,z,1/2-y
47 1/2-z,y,1/2-x
48 1/2-x,1/2-z,y
_cell_length_a                   16.31134(85)
_cell_length_b                   16.31134(85)
_cell_length_c                   16.31134(85)
_cell_angle_alpha                90
_cell_angle_beta                 90
_cell_angle_gamma                90
_cell_volume                     4339.79
loop_
_atom_site_label
_atom_site_type_symbol
_atom_site_fract_x
_atom_site_fract_y
_atom_site_fract_z
Pd1 Pd 0.75000 0.25000 0.50000
N1 N 0.687070 0.304460 0.585720
C1 C 0.707860 0.381820 0.606470
C2 C 0.625990 0.265770 0.626000
C3 C 0.667580 0.420510 0.667550
O1 O 0.606750 0.194140 0.606750
F1 F 0.688370 0.497870 0.688330
N1JA N 0.585720 0.304460 0.687070
C1JA C 0.606470 0.381820 0.707860
N1B N 0.812930 0.195540 0.585720
C1B C 0.792140 0.118180 0.606470
C2B C 0.874010 0.234230 0.626000
C3B C 0.832420 0.079490 0.667550
O1B O 0.893250 0.305860 0.606750
F1B F 0.811630 0.002130 0.688330
N1DA N 0.914280 0.195540 0.687070
C1DA C 0.893530 0.118180 0.707860
Pd1DA Pd 1.00000 0.25000 0.75000
Pd1EA Pd 0.50000 0.25000 0.75000
N1H N 0.695540 0.312930 0.414280
N1I N 0.804460 0.187070 0.414280
O2 O 0.9669(16) 0.6377(12) 0.6377(12)
O3 O 0.9029(13) 0.5020(13) 0.5020(13)
loop_
_geom_bond_atom_site_label_1
_geom_bond_atom_site_label_2
_geom_bond_site_symmetry_1
_geom_bond_site_symmetry_2
Pd1 N1 1_555 1_555
N1 C1 1_555 1_555
C1 C3 1_555 1_555
C2 N1 1_555 1_555
C3 F1 1_555 1_555
O1 C2 1_555 1_555
N1JA C2 1_555 1_555
C1JA C3 1_555 1_555
N1B Pd1 1_555 1_555
C1B N1B 1_555 1_555
C2B N1B 1_555 1_555
C3B C1B 1_555 1_555
O1B C2B 1_555 1_555
F1B C3B 1_555 1_555
N1DA C2B 1_555 1_555
C1DA C3B 1_555 1_555
Pd1DA N1DA 1_555 1_555
Pd1EA N1JA 1_555 1_555
N1H Pd1 1_555 1_555
N1I Pd1 1_555 1_555
N1JA C1JA 1_555 1_555
N1DA C1DA 1_555 1_555

#END
