
#######################################################################
#
#                 Cambridge Crystallographic Data Centre
#                                CCDC 
#
#######################################################################
#
# If this CIF has been generated from an entry in the Cambridge 
# Structural Database, then it will include bibliographic, chemical, 
# crystal, experimental, refinement or atomic coordinate data resulting 
# from the CCDC's data processing and validation procedures.
#
#######################################################################

data_XINWUO
_chemical_formula_moiety         '(C5 H9 N3 O3 Zn1)n'
_symmetry_cell_setting           tetragonal
_symmetry_space_group_name_H-M   'I 41/a'
_symmetry_Int_Tables_number      88
_space_group_name_Hall           '-I 4ad'
loop_
_symmetry_equiv_pos_site_id
_symmetry_equiv_pos_as_xyz
1 x,y,z
2 1/2-x,-y,1/2+z
3 3/4-y,1/4+x,1/4+z
4 3/4+y,3/4-x,3/4+z
5 1/2+x,1/2+y,1/2+z
6 -x,1/2-y,z
7 1/4-y,3/4+x,3/4+z
8 1/4+y,1/4-x,1/4+z
9 -x,-y,-z
10 1/2+x,y,1/2-z
11 1/4+y,3/4-x,3/4-z
12 1/4-y,1/4+x,1/4-z
13 1/2-x,1/2-y,1/2-z
14 x,1/2+y,-z
15 3/4+y,1/4-x,1/4-z
16 3/4-y,3/4+x,3/4-z
_cell_length_a                   17.6987(9)
_cell_length_b                   17.6987(9)
_cell_length_c                   11.3887(11)
_cell_angle_alpha                90
_cell_angle_beta                 90
_cell_angle_gamma                90
_cell_volume                     3567.44
loop_
_atom_site_label
_atom_site_type_symbol
_atom_site_fract_x
_atom_site_fract_y
_atom_site_fract_z
_atom_site_U_iso_or_equiv
_atom_site_thermal_displace_type
Zn1 Zn 0.46107(2) -0.01187(2) -0.34899(3) 0.0280 Uani
N1 N 0.41826(15) 0.05494(15) -0.4742(2) 0.0303 Uani
N2 N 0.44840(16) 0.06543(16) -0.5846(2) 0.0311 Uani
N3 N 0.34580(16) 0.13531(16) -0.5693(2) 0.0316 Uani
C1 C 0.4156(3) 0.1403(3) -0.7612(4) 0.0707 Uani
H1 H 0.4606 0.1176 -0.7926 0.1060 Uiso
H2 H 0.4210 0.1943 -0.7615 0.1060 Uiso
H3 H 0.3730 0.1262 -0.8086 0.1060 Uiso
C2 C 0.4037(2) 0.1134(2) -0.6381(3) 0.0358 Uani
C3 C 0.35758(18) 0.09707(18) -0.4692(3) 0.0320 Uani
H4 H 0.3262 0.1002 -0.4038 0.0380 Uiso
C4 C 0.5266(3) 0.1045(3) -0.0558(4) 0.0747 Uani
H5 H 0.5720 0.1340 -0.0541 0.1120 Uiso
H6 H 0.5297 0.0652 0.0021 0.1120 Uiso
H7 H 0.4840 0.1364 -0.0388 0.1120 Uiso
C5 C 0.5170(3) 0.0702(3) -0.1746(4) 0.0542 Uani
O1 O 0.46037(17) 0.02990(18) -0.1915(3) 0.0561 Uani
O2 O 0.5638(2) 0.0806(2) -0.2532(3) 0.0830 Uani
Zn1F Zn 0.26187(2) 0.21107(2) -0.59899(3) 0.0280 Uani
Zn1H Zn 0.53893(2) 0.01187(2) -0.65101(3) 0.0280 Uani
N2H N 0.55160(16) -0.06543(16) -0.4154(2) 0.0311 Uani
N3G N 0.38531(16) -0.09580(16) -0.3193(2) 0.0316 Uani
O3 O 0.2841(3) 0.0270(3) -0.0194(5) 0.1257 Uani
H8 H 0.2579 0.0570 0.0329 0.1510 Uiso
H9 H 0.3350 0.0452 -0.0334 0.1510 Uiso
loop_
_atom_site_aniso_label
_atom_site_aniso_U_11
_atom_site_aniso_U_22
_atom_site_aniso_U_33
_atom_site_aniso_U_23
_atom_site_aniso_U_13
_atom_site_aniso_U_12
Zn1 0.0314(2) 0.0306(2) 0.0219(2) 0.00626(14) 0.00235(14) 0.00040(15)
N1 0.0343(14) 0.0339(14) 0.0228(13) 0.0068(11) 0.0010(11) 0.0020(12)
N2 0.0330(14) 0.0368(15) 0.0235(13) 0.0072(11) 0.0028(11) 0.0044(12)
N3 0.0325(14) 0.0376(15) 0.0247(13) 0.0046(11) -0.0023(11) 0.0063(12)
C1 0.078(3) 0.103(4) 0.031(2) 0.030(2) 0.017(2) 0.049(3)
C2 0.0401(19) 0.043(2) 0.0243(16) 0.0077(15) -0.0003(14) 0.0051(16)
C3 0.0347(17) 0.0375(18) 0.0238(16) 0.0049(14) 0.0026(13) 0.0048(14)
C4 0.103(4) 0.080(4) 0.041(2) -0.009(2) -0.006(3) -0.027(3)
C5 0.064(2) 0.059(2) 0.0396(17) 0.0032(16) 0.0002(16) -0.0068(17)
O1 0.0627(17) 0.0634(17) 0.0421(14) -0.0062(13) -0.0007(13) -0.0151(14)
O2 0.088(2) 0.098(2) 0.0629(18) -0.0025(17) 0.0102(16) -0.0198(17)
Zn1F 0.0306 0.0314 0.0219 0.00235 -0.00626 -0.0004
Zn1H 0.0314 0.0306 0.0219 0.00626 0.00235 0.0004
N2H 0.033 0.0368 0.0235 0.0072 0.0028 0.0044
N3G 0.0376 0.0325 0.0247 0.0023 0.0046 -0.0063
O3 0.131(4) 0.116(4) 0.130(4) -0.018(3) 0.004(4) -0.015(3)
loop_
_geom_bond_atom_site_label_1
_geom_bond_atom_site_label_2
_geom_bond_site_symmetry_1
_geom_bond_site_symmetry_2
Zn1 N1 1_555 1_555
N1 N2 1_555 1_555
N2 C2 1_555 1_555
N3 C2 1_555 1_555
C1 H1 1_555 1_555
H2 C1 1_555 1_555
H3 C1 1_555 1_555
C2 C1 1_555 1_555
C3 N1 1_555 1_555
H4 C3 1_555 1_555
C4 H5 1_555 1_555
H6 C4 1_555 1_555
H7 C4 1_555 1_555
C5 C4 1_555 1_555
O1 Zn1 1_555 1_555
O2 C5 1_555 1_555
O3 H8 1_555 1_555
H9 O3 1_555 1_555
Zn1F N3 1_555 1_555
Zn1H N2 1_555 1_555
N2H Zn1 1_555 1_555
N3G Zn1 1_555 1_555
N3 C3 1_555 1_555
C5 O1 1_555 1_555

#END
