
#######################################################################
#
#                 Cambridge Crystallographic Data Centre
#                                CCDC 
#
#######################################################################
#
# If this CIF has been generated from an entry in the Cambridge 
# Structural Database, then it will include bibliographic, chemical, 
# crystal, experimental, refinement or atomic coordinate data resulting 
# from the CCDC's data processing and validation procedures.
#
#######################################################################

data_ADOLOV
_chemical_formula_moiety         '(C57 H36 N6 Ni3 O18)n'
_symmetry_cell_setting           hexagonal
_symmetry_space_group_name_H-M   'P -6 2 m'
_symmetry_Int_Tables_number      189
_space_group_name_Hall           'P -6 -2'
loop_
_symmetry_equiv_pos_site_id
_symmetry_equiv_pos_as_xyz
1 x,y,z
2 -x+y,-x,-z
3 -y,x-y,z
4 x,y,-z
5 -x+y,-x,z
6 -y,x-y,-z
7 y,x,z
8 x-y,-y,-z
9 -x,-x+y,z
10 y,x,-z
11 x-y,-y,z
12 -x,-x+y,-z
_cell_length_a                   16.634(2)
_cell_length_b                   16.634(2)
_cell_length_c                   11.234(2)
_cell_angle_alpha                90
_cell_angle_beta                 90
_cell_angle_gamma                120
_cell_volume                     2691.9
loop_
_atom_site_label
_atom_site_type_symbol
_atom_site_fract_x
_atom_site_fract_y
_atom_site_fract_z
C1 C 0.1742(4) 0.1742(4) 0.0000
C2 C 0.0838(4) 0.0838(4) 0.0000
C3 C -0.0000 0.0830(4) 0.0000
H1 H 0.0000 0.1389 0.0000
C4 C 0.5306(3) 0.3923(3) 0.0000
C5 C 0.6013(3) 0.3626(4) 0.0000
C6 C 0.5724(3) 0.2684(3) 0.0000
H2 H 0.5093 0.2249 0.0000
C7 C 0.3210(3) 0.3210(3) 0.4342(5)
C8 C 0.2853(10) 0.3625(10) 0.3684(7)
H3 H 0.2555 0.3900 0.4066
C9 C 0.2910(10) 0.3660(10) 0.2462(7)
H4 H 0.2716 0.4021 0.2055
N1 N 0.3217(2) 0.3217(2) 0.1861(3)
Ni1 Ni 0.31981(4) 0.31981(4) 0.0000
O1 O 0.2498(2) 0.17319(19) 0.0000
O2 O 0.4492(2) 0.3340(2) 0.0000
O3 O 0.5615(3) 0.4786(3) 0.0000
C1B C -0.1742(4) 0.0000(6) 0.0000
C1A C 0.0000(6) -0.1742(4) 0.0000
C2B C -0.0838(4) 0.0000(6) 0.0000
C2A C 0.0000(6) -0.0838(4) 0.0000
C3B C -0.0830(4) -0.0830(4) 0.0000
C3A C 0.0830(4) 0.0000 0.0000
H1A H 0.1389 0.0000 0.0000
H1B H -0.1389 -0.1389 0.0000
C4B C 0.6077(3) 0.1383(4) 0.0000
C4A C 0.8617(4) 0.4694(3) 0.0000
C4F C 0.3923(3) 0.5306(3) 0.0000
C4G C 0.1383(4) 0.6077(3) 0.0000
C4H C 0.4694(3) 0.8617(4) 0.0000
C5B C 0.6374(4) 0.2387(5) 0.0000
C5A C 0.7613(5) 0.3987(3) 0.0000
C5F C 0.3626(4) 0.6013(3) 0.0000
C5G C 0.2387(5) 0.6374(4) 0.0000
C5H C 0.3987(3) 0.7613(5) 0.0000
C6B C 0.7316(3) 0.3040(4) 0.0000
C6A C 0.6960(4) 0.4276(3) 0.0000
C6F C 0.2684(3) 0.5724(3) 0.0000
C6G C 0.3040(4) 0.7316(3) 0.0000
C6H C 0.4276(3) 0.6960(4) 0.0000
H2A H 0.7156 0.4907 0.0000
H2B H 0.7751 0.2844 0.0000
H2F H 0.2249 0.5093 0.0000
H2H H 0.4907 0.7156 0.0000
H2G H 0.2844 0.7751 0.0000
C7C C 0.3210(3) 0.3210(3) 0.5658(5)
C7C_2 C 0.3210(3) 0.3210(3) -0.4342(5)
C7_2 C 0.3210(3) 0.3210(3) -0.5658(5)
C7_3 C 0.3210(3) 0.3210(3) 1.4342(5)
C7C_3 C 0.3210(3) 0.3210(3) 1.5658(5)
C8C C 0.2853(10) 0.3625(10) 0.6316(7)
C8I C 0.3625(10) 0.2853(10) 0.6316(7)
C8F C 0.3625(10) 0.2853(10) 0.3684(7)
C8C_2 C 0.2853(10) 0.3625(10) -0.3684(7)
C8_2 C 0.2853(10) 0.3625(10) -0.6316(7)
C8F_2 C 0.3625(10) 0.2853(10) -0.6316(7)
C8I_2 C 0.3625(10) 0.2853(10) -0.3684(7)
C8_3 C 0.2853(10) 0.3625(10) 1.3684(7)
C8C_3 C 0.2853(10) 0.3625(10) 1.6316(7)
C8I_3 C 0.3625(10) 0.2853(10) 1.6316(7)
C8F_3 C 0.3625(10) 0.2853(10) 1.3684(7)
H3C H 0.2555 0.3900 0.5934
H3I H 0.3900 0.2555 0.5934
H3F H 0.3900 0.2555 0.4066
H3C_2 H 0.2555 0.3900 -0.4066
H3_2 H 0.2555 0.3900 -0.5934
H3F_2 H 0.3900 0.2555 -0.5934
H3I_2 H 0.3900 0.2555 -0.4066
H3_3 H 0.2555 0.3900 1.4066
H3C_3 H 0.2555 0.3900 1.5934
H3I_3 H 0.3900 0.2555 1.5934
H3F_3 H 0.3900 0.2555 1.4066
C9C C 0.2910(10) 0.3660(10) 0.7538(7)
C9I C 0.3660(10) 0.2910(10) 0.7538(7)
C9F C 0.3660(10) 0.2910(10) 0.2462(7)
C9C_2 C 0.2910(10) 0.3660(10) -0.2462(7)
C9_2 C 0.2910(10) 0.3660(10) -0.7538(7)
C9F_2 C 0.3660(10) 0.2910(10) -0.7538(7)
C9I_2 C 0.3660(10) 0.2910(10) -0.2462(7)
C9_3 C 0.2910(10) 0.3660(10) 1.2462(7)
C9C_3 C 0.2910(10) 0.3660(10) 1.7538(7)
C9I_3 C 0.3660(10) 0.2910(10) 1.7538(7)
C9F_3 C 0.3660(10) 0.2910(10) 1.2462(7)
H4C H 0.2716 0.4021 0.7945
H4I H 0.4021 0.2716 0.7945
H4F H 0.4021 0.2716 0.2055
H4C_2 H 0.2716 0.4021 -0.2055
H4_2 H 0.2716 0.4021 -0.7945
H4F_2 H 0.4021 0.2716 -0.7945
H4I_2 H 0.4021 0.2716 -0.2055
H4_3 H 0.2716 0.4021 1.2055
H4C_3 H 0.2716 0.4021 1.7945
H4I_3 H 0.4021 0.2716 1.7945
H4F_3 H 0.4021 0.2716 1.2055
N1C N 0.3217(2) 0.3217(2) 0.8139(3)
N1C_2 N 0.3217(2) 0.3217(2) -0.1861(3)
N1_2 N 0.3217(2) 0.3217(2) -0.8139(3)
N1_3 N 0.3217(2) 0.3217(2) 1.1861(3)
N1C_3 N 0.3217(2) 0.3217(2) 1.8139(3)
N1C_4 N 0.3217(2) 0.3217(2) -1.1861(3)
Ni1_2 Ni 0.31981(4) 0.31981(4) 1.0000
Ni1_3 Ni 0.31981(4) 0.31981(4) -1.0000
Ni1B Ni -0.31981(4) 0.00000(6) 0.0000
Ni1A Ni 0.00000(6) -0.31981(4) 0.0000
Ni1B_2 Ni 0.68019(4) 0.00000(6) 0.0000
Ni1A_2 Ni 1.00000(6) 0.68019(4) 0.0000
Ni1A_3 Ni -0.00000(6) 0.68019(4) 0.0000
Ni1B_3 Ni 0.68019(4) 1.00000(6) 0.0000
Ni1_4 Ni 0.31981(4) 0.31981(4) 2.0000
O1B O -0.17319(19) 0.07661(28) 0.0000
O1H O -0.2498(2) -0.07661(28) 0.0000
O1A O -0.07661(28) -0.2498(2) 0.0000
O1G O 0.07661(28) -0.17319(19) 0.0000
O1F O 0.17319(19) 0.2498(2) 0.0000
O1_2 O 0.2498(2) 0.17319(19) 1.0000
O1F_2 O 0.17319(19) 0.2498(2) 1.0000
O1_3 O 0.2498(2) 0.17319(19) -1.0000
O1F_3 O 0.17319(19) 0.2498(2) -1.0000
O2B O 0.6660(2) 0.1152(3) 0.0000
O2A O 0.8848(3) 0.5508(2) 0.0000
O2F O 0.3340(2) 0.4492(2) 0.0000
O2G O 0.1152(3) 0.6660(2) 0.0000
O2H O 0.5508(2) 0.8848(3) 0.0000
O2_2 O 0.4492(2) 0.3340(2) 1.0000
O2F_2 O 0.3340(2) 0.4492(2) 1.0000
O2_3 O 0.4492(2) 0.3340(2) -1.0000
O2F_3 O 0.3340(2) 0.4492(2) -1.0000
O3B O 0.5214(3) 0.0829(4) 0.0000
O3A O 0.9171(4) 0.4385(3) 0.0000
O3F O 0.4786(3) 0.5615(3) 0.0000
O3G O 0.0829(4) 0.5214(3) 0.0000
O3H O 0.4385(3) 0.9171(4) 0.0000
loop_
_geom_bond_atom_site_label_1
_geom_bond_atom_site_label_2
_geom_bond_site_symmetry_1
_geom_bond_site_symmetry_2
C1 C2 1_555 1_555
C2 C3 1_555 1_555
C3 H1 1_555 1_555
C4 C5 1_555 1_555
C5 C6 1_555 1_555
C6 H2 1_555 1_555
C7 C8 1_555 1_555
C8 H3 1_555 1_555
C9 C8 1_555 1_555
H4 C9 1_555 1_555
N1 C9 1_555 1_555
Ni1 N1 1_555 1_555
O1 C1 1_555 1_555
O2 C4 1_555 1_555
O3 C4 1_555 1_555
C1B C2B 1_555 1_555
C1A C2A 1_555 1_555
C2B C3 1_555 1_555
C2A C3B 1_555 1_555
C3B C2B 1_555 1_555
C3A C2 1_555 1_555
H1A C3A 1_555 1_555
H1B C3B 1_555 1_555
C4B C5B 1_555 1_555
C4A C5A 1_555 1_555
C4F C5F 1_555 1_555
C4G C5G 1_555 1_555
C4H C5H 1_555 1_555
C5B C6 1_555 1_555
C5A C6B 1_555 1_555
C5F C6F 1_555 1_555
C5G C6F 1_555 1_555
C5H C6G 1_555 1_555
C6B C5B 1_555 1_555
C6A C5 1_555 1_555
C6F H2F 1_555 1_555
C6G C5G 1_555 1_555
C6H C5F 1_555 1_555
H2A C6A 1_555 1_555
H2B C6B 1_555 1_555
H2H C6H 1_555 1_555
H2G C6G 1_555 1_555
C7C C7 1_555 1_555
C7C_2 C7_2 1_555 1_555
C7_2 C8_2 1_555 1_555
C7_3 C7C_3 1_555 1_555
C7C_3 C8C_3 1_555 1_555
C8C C7C 1_555 1_555
C8I C7C 1_555 1_555
C8F C7 1_555 1_555
C8C_2 C7C_2 1_555 1_555
C8_2 H3_2 1_555 1_555
C8F_2 C7_2 1_555 1_555
C8I_2 C7C_2 1_555 1_555
C8_3 C7_3 1_555 1_555
C8C_3 H3C_3 1_555 1_555
C8I_3 C7C_3 1_555 1_555
C8F_3 C7_3 1_555 1_555
H3C C8C 1_555 1_555
H3I C8I 1_555 1_555
H3F C8F 1_555 1_555
H3C_2 C8C_2 1_555 1_555
H3F_2 C8F_2 1_555 1_555
H3I_2 C8I_2 1_555 1_555
H3_3 C8_3 1_555 1_555
H3I_3 C8I_3 1_555 1_555
H3F_3 C8F_3 1_555 1_555
C9C C8C 1_555 1_555
C9I C8I 1_555 1_555
C9F N1 1_555 1_555
C9C_2 C8C_2 1_555 1_555
C9_2 C8_2 1_555 1_555
C9F_2 C8F_2 1_555 1_555
C9I_2 C8I_2 1_555 1_555
C9_3 C8_3 1_555 1_555
C9C_3 C8C_3 1_555 1_555
C9I_3 C8I_3 1_555 1_555
C9F_3 C8F_3 1_555 1_555
H4C C9C 1_555 1_555
H4I C9I 1_555 1_555
H4F C9F 1_555 1_555
H4C_2 C9C_2 1_555 1_555
H4_2 C9_2 1_555 1_555
H4F_2 C9F_2 1_555 1_555
H4I_2 C9I_2 1_555 1_555
H4_3 C9_3 1_555 1_555
H4C_3 C9C_3 1_555 1_555
H4I_3 C9I_3 1_555 1_555
H4F_3 C9F_3 1_555 1_555
N1C C9C 1_555 1_555
N1C_2 Ni1 1_555 1_555
N1_2 C9_2 1_555 1_555
N1_3 C9_3 1_555 1_555
N1C_3 C9C_3 1_555 1_555
N1C_4 Ni1_3 1_555 1_555
Ni1_2 N1C 1_555 1_555
Ni1_3 N1_2 1_555 1_555
Ni1B O1B 1_555 1_555
Ni1A O1A 1_555 1_555
Ni1B_2 O2B 1_555 1_555
Ni1A_2 O2A 1_555 1_555
Ni1A_3 O2G 1_555 1_555
Ni1B_3 O2H 1_555 1_555
Ni1_4 N1C_3 1_555 1_555
O1B C1B 1_555 1_555
O1H C1B 1_555 1_555
O1A C1A 1_555 1_555
O1G C1A 1_555 1_555
O1F C1 1_555 1_555
O1_2 Ni1_2 1_555 1_555
O1F_2 Ni1_2 1_555 1_555
O1_3 Ni1_3 1_555 1_555
O1F_3 Ni1_3 1_555 1_555
O2B C4B 1_555 1_555
O2A C4A 1_555 1_555
O2F Ni1 1_555 1_555
O2G C4G 1_555 1_555
O2H C4H 1_555 1_555
O2_2 Ni1_2 1_555 1_555
O2F_2 Ni1_2 1_555 1_555
O2_3 Ni1_3 1_555 1_555
O2F_3 Ni1_3 1_555 1_555
O3B C4B 1_555 1_555
O3A C4A 1_555 1_555
O3F C4F 1_555 1_555
O3G C4G 1_555 1_555
O3H C4H 1_555 1_555
Ni1 O1 1_555 1_555
Ni1 O2 1_555 1_555
Ni1 O1F 1_555 1_555
C2A C3A 1_555 1_555
C4F O2F 1_555 1_555
C5A C6A 1_555 1_555
C5H C6H 1_555 1_555
C8F C9F 1_555 1_555
C9I N1C 1_555 1_555
C9C_2 N1C_2 1_555 1_555
C9F_2 N1_2 1_555 1_555
C9I_2 N1C_2 1_555 1_555
C9I_3 N1C_3 1_555 1_555
C9F_3 N1_3 1_555 1_555
N1_3 Ni1_2 1_555 1_555
Ni1B O1H 1_555 1_555
Ni1A O1G 1_555 1_555

#END
