
#######################################################################
#
#                 Cambridge Crystallographic Data Centre
#                                CCDC 
#
#######################################################################
#
# If this CIF has been generated from an entry in the Cambridge 
# Structural Database, then it will include bibliographic, chemical, 
# crystal, experimental, refinement or atomic coordinate data resulting 
# from the CCDC's data processing and validation procedures.
#
#######################################################################

data_NIXPOA
_chemical_formula_moiety         '(C40 H32 Ag4 F12 N8 O12 S20)n'
_symmetry_cell_setting           orthorhombic
_symmetry_space_group_name_H-M   'P n n m'
_symmetry_Int_Tables_number      58
_space_group_name_Hall           '-P 2 2n'
loop_
_symmetry_equiv_pos_site_id
_symmetry_equiv_pos_as_xyz
1 x,y,z
2 -x,-y,z
3 1/2+x,1/2-y,1/2-z
4 1/2-x,1/2+y,1/2-z
5 -x,-y,-z
6 x,y,-z
7 1/2-x,1/2+y,1/2+z
8 1/2+x,1/2-y,1/2+z
_cell_length_a                   26.870(7)
_cell_length_b                   12.316(3)
_cell_length_c                   21.468(6)
_cell_angle_alpha                90
_cell_angle_beta                 90
_cell_angle_gamma                90
_cell_volume                     7104.42
loop_
_atom_site_label
_atom_site_type_symbol
_atom_site_fract_x
_atom_site_fract_y
_atom_site_fract_z
Ag1 Ag 0.5000 0.0000 0.11794(3)
Ag2 Ag 0.5000 0.0000 0.36794(3)
Ag3 Ag 0.77426(2) -0.09494(4) 0.24578(2)
S1 S 0.55127(5) 0.2661(1) 0.31858(6)
S2 S 0.55258(5) 0.2885(1) 0.18219(6)
S3 S 0.56247(5) 0.5514(1) 0.19672(6)
S4 S 0.56417(5) 0.5281(1) 0.33315(6)
S5 S 0.58253(5) 0.0539(1) 0.16245(6)
S6 S 0.58168(5) 0.0279(1) 0.31248(6)
S7 S 0.59267(7) 0.7880(1) 0.20267(8)
S8 S 0.59283(5) 0.7600(1) 0.35476(7)
S9 S 0.48255(9) 0.1712(3) 0.0000
S10 S 0.49667(7) 0.1687(2) 0.5000
F1 F 0.4956(4) 0.3602(6) 0.0504(3)
F2 F 0.4306(4) 0.3468(7) 0.0000
F3 F 0.4945(2) 0.3624(3) 0.4500(2)
F4 F 0.5605(3) 0.3279(5) 0.5000
O1 O 0.4599(3) 0.1394(6) 0.0564(3)
O2 O 0.5347(4) 0.148(1) 0.0000
O3 O 0.5204(2) 0.1317(3) 0.4436(2)
O4 O 0.4433(2) 0.1624(5) 0.5000
N1 N 0.7170(2) 0.0128(5) 0.1921(3)
N2 N 0.6903(2) 0.2667(5) 0.3036(3)
N3 N 0.6964(2) 0.5484(5) 0.2041(3)
N4 N 0.7255(2) 0.7941(5) 0.3076(3)
C1 C 0.5572(2) 0.3541(4) 0.2546(2)
C2 C 0.5719(2) 0.1632(4) 0.2128(2)
C3 C 0.5720(2) 0.1534(4) 0.2753(2)
C4 C 0.5623(2) 0.4631(4) 0.2605(2)
C5 C 0.5831(2) 0.6639(4) 0.2406(2)
C6 C 0.5835(2) 0.6530(4) 0.3025(2)
C7 C 0.6207(2) 0.1129(4) 0.1012(2)
C8 C 0.6703(2) 0.1561(5) 0.1256(3)
C9 C 0.6969(2) 0.0759(5) 0.1631(3)
C10 C 0.6224(2) 0.0611(5) 0.3771(3)
C11 C 0.6760(3) 0.0814(6) 0.3584(3)
C12 C 0.6835(2) 0.1859(6) 0.3266(3)
C13 C 0.6267(2) 0.7506(5) 0.1332(3)
C14 C 0.6810(3) 0.7261(6) 0.1423(4)
C15 C 0.6898(2) 0.6251(6) 0.1776(3)
C16 C 0.6356(2) 0.7012(5) 0.4103(3)
C17 C 0.6831(2) 0.6567(5) 0.3813(3)
C18 C 0.7073(2) 0.7351(5) 0.3405(3)
C19 C 0.4806(6) 0.316(1) 0.0000
C20 C 0.5115(4) 0.3140(7) 0.5000
H1 H 0.6272 0.0587 0.0707
H2 H 0.6028 0.1710 0.0826
H3 H 0.6905 0.1759 0.0911
H4 H 0.6640 0.2184 0.1505
H5 H 0.6101 0.1247 0.3968
H6 H 0.6218 0.0024 0.4058
H7 H 0.6960 0.0803 0.3949
H8 H 0.6862 0.0248 0.3312
H9 H 0.6114 0.6877 0.1161
H10 H 0.6241 0.8089 0.1044
H11 H 0.6963 0.7194 0.1026
H12 H 0.6958 0.7848 0.1643
H13 H 0.6445 0.7556 0.4396
H14 H 0.6191 0.6435 0.4311
H15 H 0.7056 0.6377 0.4138
H16 H 0.6751 0.5937 0.3578
Ag1E Ag 0.5000 0.0000 -0.11794(3)
Ag2E Ag 0.5000 -0.0000 0.63206(3)
Ag3A Ag 0.22574(2) 0.09494(4) 0.24578(2)
Ag3C Ag 0.72574(2) 0.40506(4) 0.25422(2)
Ag3_2 Ag 0.77426(2) 0.90506(4) 0.24578(2)
Ag3B Ag 0.27426(2) -0.40506(4) 0.25422(2)
Ag3A_2 Ag 0.22574(2) -0.90506(4) 0.24578(2)
S1A S 0.44873(5) -0.2661(1) 0.31858(6)
S2A S 0.44742(5) -0.2885(1) 0.18219(6)
S3A S 0.43753(5) -0.5514(1) 0.19672(6)
S4A S 0.43583(5) -0.5281(1) 0.33315(6)
S5A S 0.41747(5) -0.0539(1) 0.16245(6)
S6A S 0.41832(5) -0.0279(1) 0.31248(6)
S7A S 0.40733(7) -0.7880(1) 0.20267(8)
S8A S 0.40717(5) -0.7600(1) 0.35476(7)
F1E F 0.4956(4) 0.3602(6) -0.0504(3)
F3E F 0.4945(2) 0.3624(3) 0.5500(2)
O1E O 0.4599(3) 0.1394(6) -0.0564(3)
O1A O 0.5401(3) -0.1394(6) 0.0564(3)
O3E O 0.5204(2) 0.1317(3) 0.5564(2)
O3A O 0.4796(2) -0.1317(3) 0.4436(2)
N1A N 0.2830(2) -0.0128(5) 0.1921(3)
N2A N 0.3097(2) -0.2667(5) 0.3036(3)
N2C N 0.8097(2) -0.2333(5) 0.1964(3)
N2B N 0.1903(2) 0.2333(5) 0.1964(3)
N3A N 0.3036(2) -0.5484(5) 0.2041(3)
N3C N 0.8036(2) 0.0484(5) 0.2959(3)
N3B N 0.1964(2) -0.0484(5) 0.2959(3)
N4A N 0.2745(2) -0.7941(5) 0.3076(3)
N4_2 N 0.7255(2) -0.2059(5) 0.3076(3)
N4A_2 N 0.2745(2) 0.2059(5) 0.3076(3)
C1A C 0.4428(2) -0.3541(4) 0.2546(2)
C2A C 0.4281(2) -0.1632(4) 0.2128(2)
C3A C 0.4280(2) -0.1534(4) 0.2753(2)
C4A C 0.4377(2) -0.4631(4) 0.2605(2)
C5A C 0.4169(2) -0.6639(4) 0.2406(2)
C6A C 0.4165(2) -0.6530(4) 0.3025(2)
C7A C 0.3793(2) -0.1129(4) 0.1012(2)
C8A C 0.3297(2) -0.1561(5) 0.1256(3)
C9A C 0.3031(2) -0.0759(5) 0.1631(3)
C10A C 0.3776(2) -0.0611(5) 0.3771(3)
C11A C 0.3240(3) -0.0814(6) 0.3584(3)
C12A C 0.3165(2) -0.1859(6) 0.3266(3)
C13A C 0.3733(2) -0.7506(5) 0.1332(3)
C14A C 0.3190(3) -0.7261(6) 0.1423(4)
C15A C 0.3102(2) -0.6251(6) 0.1776(3)
C16A C 0.3644(2) -0.7012(5) 0.4103(3)
C17A C 0.3169(2) -0.6567(5) 0.3813(3)
C18A C 0.2927(2) -0.7351(5) 0.3405(3)
H1A H 0.3728 -0.0587 0.0707
H2A H 0.3972 -0.1710 0.0826
H3A H 0.3095 -0.1759 0.0911
H4A H 0.3360 -0.2184 0.1505
H5A H 0.3899 -0.1247 0.3968
H6A H 0.3782 -0.0024 0.4058
H7A H 0.3040 -0.0803 0.3949
H8A H 0.3138 -0.0248 0.3312
H9A H 0.3886 -0.6877 0.1161
H10A H 0.3759 -0.8089 0.1044
H11A H 0.3037 -0.7194 0.1026
H12A H 0.3042 -0.7848 0.1643
H13A H 0.3555 -0.7556 0.4396
H14A H 0.3809 -0.6435 0.4311
H15A H 0.2944 -0.6377 0.4138
H16A H 0.3249 -0.5937 0.3578
S11 S 0.7759(1) 0.4470(2) 0.5000
F5 F 0.6919(4) 0.4035(9) 0.4503(6)
F6 F 0.7196(5) 0.2798(8) 0.5000
O5 O 0.7980(4) 0.4176(6) 0.4436(4)
O6 O 0.7627(4) 0.5602(7) 0.5000
C21 C 0.7176(6) 0.385(1) 0.5000
F5E F 0.6919(4) 0.4035(9) 0.5497(6)
O5E O 0.7980(4) 0.4176(6) 0.5564(4)
S12 S 0.7589(2) 0.4142(4) 0.0000
F7 F 0.6765(5) 0.457(1) 0.0502(7)
F9 F 0.6733(9) 0.332(2) 0.0000
O7 O 0.7755(5) 0.390(1) 0.0573(5)
O9 O 0.7725(9) 0.541(2) 0.0000
C22 C 0.694(1) 0.431(2) 0.0000
F7E F 0.6765(5) 0.457(1) -0.0502(7)
O7E O 0.7755(5) 0.390(1) -0.0573(5)
loop_
_geom_bond_atom_site_label_1
_geom_bond_atom_site_label_2
_geom_bond_site_symmetry_1
_geom_bond_site_symmetry_2
Ag1 S5 1_555 1_555
Ag2 S6 1_555 1_555
Ag3 N1 1_555 1_555
S1 C1 1_555 1_555
S2 C1 1_555 1_555
S3 C4 1_555 1_555
S4 C4 1_555 1_555
S5 C2 1_555 1_555
S6 C3 1_555 1_555
S7 C5 1_555 1_555
S8 C6 1_555 1_555
S9 O1 1_555 1_555
S10 O3 1_555 1_555
S11 O5 1_555 1_555
S12 O7 1_555 1_555
F1 C19 1_555 1_555
F2 C19 1_555 1_555
F3 C20 1_555 1_555
F4 C20 1_555 1_555
F5 C21 1_555 1_555
F6 C21 1_555 1_555
F7 C22 1_555 1_555
F9 C22 1_555 1_555
O1 Ag1 1_555 1_555
O2 S9 1_555 1_555
O3 Ag2 1_555 1_555
O4 S10 1_555 1_555
O6 S11 1_555 1_555
O9 S12 1_555 1_555
N1 C9 1_555 1_555
N2 C12 1_555 1_555
N3 C15 1_555 1_555
N4 C18 1_555 1_555
C1 C4 1_555 1_555
C2 S2 1_555 1_555
C3 S1 1_555 1_555
C5 S3 1_555 1_555
C6 S4 1_555 1_555
C7 S5 1_555 1_555
C8 C7 1_555 1_555
C9 C8 1_555 1_555
C10 S6 1_555 1_555
C11 C10 1_555 1_555
C12 C11 1_555 1_555
C13 S7 1_555 1_555
C14 C13 1_555 1_555
C15 C14 1_555 1_555
C16 S8 1_555 1_555
C17 C16 1_555 1_555
C18 C17 1_555 1_555
C19 S9 1_555 1_555
C20 S10 1_555 1_555
C21 S11 1_555 1_555
C22 S12 1_555 1_555
H1 C7 1_555 1_555
H2 C7 1_555 1_555
H3 C8 1_555 1_555
H4 C8 1_555 1_555
H5 C10 1_555 1_555
H6 C10 1_555 1_555
H7 C11 1_555 1_555
H8 C11 1_555 1_555
H9 C13 1_555 1_555
H10 C13 1_555 1_555
H11 C14 1_555 1_555
H12 C14 1_555 1_555
H13 C16 1_555 1_555
H14 C16 1_555 1_555
H15 C17 1_555 1_555
H16 C17 1_555 1_555
Ag1E O1E 1_555 1_555
Ag2E O3E 1_555 1_555
Ag3A N1A 1_555 1_555
Ag3C N2 1_555 1_555
Ag3_2 N4 1_555 1_555
Ag3B N2A 1_555 1_555
Ag3A_2 N4A 1_555 1_555
S1A C1A 1_555 1_555
S2A C1A 1_555 1_555
S3A C4A 1_555 1_555
S4A C4A 1_555 1_555
S5A Ag1 1_555 1_555
S6A Ag2 1_555 1_555
S7A C5A 1_555 1_555
S8A C6A 1_555 1_555
F1E C19 1_555 1_555
F3E C20 1_555 1_555
F5E C21 1_555 1_555
F7E C22 1_555 1_555
O1E S9 1_555 1_555
O1A Ag1 1_555 1_555
O3E S10 1_555 1_555
O3A Ag2 1_555 1_555
O5E S11 1_555 1_555
O7E S12 1_555 1_555
N1A C9A 1_555 1_555
N2A C12A 1_555 1_555
N2C Ag3 1_555 1_555
N2B Ag3A 1_555 1_555
N3A Ag3B 1_555 1_555
N3C Ag3 1_555 1_555
N3B Ag3A 1_555 1_555
N4A C18A 1_555 1_555
N4_2 Ag3 1_555 1_555
N4A_2 Ag3A 1_555 1_555
C1A C4A 1_555 1_555
C2A S2A 1_555 1_555
C3A S1A 1_555 1_555
C5A S3A 1_555 1_555
C6A S4A 1_555 1_555
C7A S5A 1_555 1_555
C8A C7A 1_555 1_555
C9A C8A 1_555 1_555
C10A S6A 1_555 1_555
C11A C10A 1_555 1_555
C12A C11A 1_555 1_555
C13A S7A 1_555 1_555
C14A C13A 1_555 1_555
C15A N3A 1_555 1_555
C16A S8A 1_555 1_555
C17A C16A 1_555 1_555
C18A C17A 1_555 1_555
H1A C7A 1_555 1_555
H2A C7A 1_555 1_555
H3A C8A 1_555 1_555
H4A C8A 1_555 1_555
H5A C10A 1_555 1_555
H6A C10A 1_555 1_555
H7A C11A 1_555 1_555
H8A C11A 1_555 1_555
H9A C13A 1_555 1_555
H10A C13A 1_555 1_555
H11A C14A 1_555 1_555
H12A C14A 1_555 1_555
H13A C16A 1_555 1_555
H14A C16A 1_555 1_555
H15A C17A 1_555 1_555
H16A C17A 1_555 1_555
N3 Ag3C 1_555 1_555
C2 C3 1_555 1_555
C5 C6 1_555 1_555
S5A C2A 1_555 1_555
S6A C3A 1_555 1_555
C2A C3A 1_555 1_555
C5A C6A 1_555 1_555
C14A C15A 1_555 1_555

#END
