
#######################################################################
#
#                 Cambridge Crystallographic Data Centre
#                                CCDC 
#
#######################################################################
#
# If this CIF has been generated from an entry in the Cambridge 
# Structural Database, then it will include bibliographic, chemical, 
# crystal, experimental, refinement or atomic coordinate data resulting 
# from the CCDC's data processing and validation procedures.
#
#######################################################################

data_UZAMUE
_chemical_formula_moiety         '(C13 H15 Eu1 N2 O13 Zn1)n'
_symmetry_cell_setting           monoclinic
_symmetry_space_group_name_H-M   'P 21/c'
_symmetry_Int_Tables_number      14
_space_group_name_Hall           '-P 2ybc'
loop_
_symmetry_equiv_pos_site_id
_symmetry_equiv_pos_as_xyz
1 x,y,z
2 -x,1/2+y,1/2-z
3 -x,-y,-z
4 x,1/2-y,1/2+z
_cell_length_a                   10.1255(8)
_cell_length_b                   9.5868(7)
_cell_length_c                   20.4418(14)
_cell_angle_alpha                90
_cell_angle_beta                 105.693(3)
_cell_angle_gamma                90
_cell_volume                     1910.34
loop_
_atom_site_label
_atom_site_type_symbol
_atom_site_fract_x
_atom_site_fract_y
_atom_site_fract_z
_atom_site_U_iso_or_equiv
_atom_site_thermal_displace_type
C1 C 0.1359(4) 0.8093(4) 1.1104(2) 0.0223 Uani
C2 C 0.1857(6) 0.9439(5) 1.1124(2) 0.0409 Uani
H1 H 0.2094 0.9922 1.1533 0.0490 Uiso
C3 C 0.2005(7) 1.0071(5) 1.0543(3) 0.0552 Uani
H2 H 0.2345 1.0975 1.0563 0.0660 Uiso
C4 C 0.1652(6) 0.9370(5) 0.9936(2) 0.0377 Uani
H3 H 0.1750 0.9804 0.9545 0.0450 Uiso
C5 C 0.1150(4) 0.8021(4) 0.99012(19) 0.0209 Uani
C6 C 0.0989(4) 0.7383(4) 1.04888(18) 0.0177 Uani
H4 H 0.0634 0.6484 1.0468 0.0210 Uiso
C7 C 0.0787(4) 0.7253(4) 0.92411(19) 0.0167 Uani
C8 C 0.1206(4) 0.7412(4) 1.17444(19) 0.0169 Uani
C9 C 0.2037(4) 0.2977(4) 0.73895(18) 0.0148 Uani
C10 C 0.3408(4) 0.3610(4) 0.75256(19) 0.0163 Uani
C11 C 0.4088(4) 0.4635(4) 0.7961(2) 0.0183 Uani
C12 C 0.3747(4) 0.5510(4) 0.84879(19) 0.0166 Uani
C13 C 0.5423(4) 0.3861(4) 0.7373(2) 0.0245 Uani
H5 H 0.6182 0.3743 0.7204 0.0290 Uiso
Eu1 Eu 0.029595(18) 0.570594(19) 0.798433(9) 0.0138 Uani
N1 N 0.4264(3) 0.3130(3) 0.71580(17) 0.0203 Uani
N2 N 0.5372(3) 0.4784(4) 0.78568(17) 0.0207 Uani
O1 O 0.0998(3) 0.7804(3) 0.87193(13) 0.0230 Uani
O2 O 0.0302(3) 0.6028(3) 0.92087(13) 0.0209 Uani
O3 O 0.0926(3) 0.6137(3) 1.17173(14) 0.0247 Uani
O4 O 0.1405(3) 0.8144(3) 1.22737(13) 0.0232 Uani
O5 O 0.1093(3) 0.3481(3) 0.75917(14) 0.0220 Uani
O6 O 0.1886(3) 0.1858(3) 0.70345(13) 0.0188 Uani
O7 O 0.2612(3) 0.5320(3) 0.86229(14) 0.0228 Uani
O8 O 0.4627(3) 0.6380(3) 0.87800(14) 0.0249 Uani
O12 O -0.1248(3) 0.5271(3) 0.68852(15) 0.0329 Uani
H12 H -0.1304 0.4499 0.6717 0.0490 Uiso
H13 H -0.1718 0.5773 0.6595 0.0490 Uiso
O13 O 0.2365(3) 0.1164(3) 0.57230(15) 0.0309 Uani
H14 H 0.1559 0.0931 0.5611 0.0460 Uiso
H15 H 0.2729 0.0692 0.5486 0.0460 Uiso
Zn1 Zn 0.36073(4) 0.13871(5) 0.66367(2) 0.0207 Uani
Eu1B Eu -0.029595(18) 0.429406(19) 1.201567(9) 0.0138 Uani
Eu1C Eu 0.029595(18) 0.929406(19) 1.298433(9) 0.0138 Uani
Eu1A Eu -0.029595(18) 0.070594(19) 0.701567(9) 0.0138 Uani
N2A N 0.4628(3) -0.0216(4) 0.71432(17) 0.0207 Uani
O3B O -0.0926(3) 0.3863(3) 0.82827(14) 0.0247 Uani
O4C O 0.1405(3) 0.6856(3) 0.72737(13) 0.0232 Uani
O5A O -0.1093(3) 0.8481(3) 0.74083(14) 0.0220 Uani
O6A O -0.1886(3) 0.6858(3) 0.79655(13) 0.0188 Uani
O8A O 0.5373(3) 0.1380(3) 0.62200(14) 0.0249 Uani
Zn1A Zn 0.63927(4) 0.63871(5) 0.83633(2) 0.0207 Uani
O9 O 0.3620(4) 0.5513(5) 1.00452(19) 0.0575 Uani
H6 H 0.3898 0.6341 1.0166 0.0860 Uiso
H7 H 0.3138 0.5540 0.9625 0.0860 Uiso
O10 O 0.2557(6) 0.2193(5) 0.9046(3) 0.0991 Uani
H8 H 0.3310 0.1888 0.8965 0.1490 Uiso
H9 H 0.2787 0.2900 0.9319 0.1490 Uiso
O11 O 0.4973(7) 0.8338(8) 0.9903(4) 0.1447 Uani
H10 H 0.4535 0.8694 0.9509 0.2170 Uiso
H11 H 0.4710 0.8797 1.0215 0.2170 Uiso
loop_
_atom_site_aniso_label
_atom_site_aniso_U_11
_atom_site_aniso_U_22
_atom_site_aniso_U_33
_atom_site_aniso_U_23
_atom_site_aniso_U_13
_atom_site_aniso_U_12
C1 0.030(2) 0.022(2) 0.017(2) -0.0026(16) 0.0097(17) -0.0065(17)
C2 0.076(4) 0.028(3) 0.021(2) -0.0114(19) 0.017(2) -0.022(2)
C3 0.106(5) 0.030(3) 0.037(3) -0.009(2) 0.032(3) -0.038(3)
C4 0.064(3) 0.030(3) 0.021(2) 0.0017(19) 0.015(2) -0.017(2)
C5 0.028(2) 0.018(2) 0.018(2) -0.0008(16) 0.0085(17) -0.0008(16)
C6 0.022(2) 0.0176(19) 0.0146(19) -0.0024(15) 0.0068(16) -0.0041(15)
C7 0.0148(18) 0.0188(19) 0.0174(19) -0.0008(15) 0.0057(15) 0.0025(15)
C8 0.0159(18) 0.020(2) 0.0166(19) -0.0042(15) 0.0074(15) -0.0006(15)
C9 0.0132(18) 0.0163(18) 0.0144(18) 0.0039(15) 0.0028(15) -0.0005(14)
C10 0.0156(19) 0.0151(18) 0.020(2) 0.0009(15) 0.0079(16) -0.0019(14)
C11 0.0126(18) 0.018(2) 0.025(2) 0.0032(16) 0.0061(16) -0.0008(14)
C12 0.0140(19) 0.0185(19) 0.0171(19) 0.0026(15) 0.0040(15) 0.0019(14)
C13 0.019(2) 0.024(2) 0.035(2) -0.0029(18) 0.0151(19) -0.0004(16)
Eu1 0.01269(12) 0.01693(12) 0.01246(12) -0.00077(7) 0.00447(8) 0.00071(7)
N1 0.0132(16) 0.0204(17) 0.0295(19) -0.0042(14) 0.0093(14) -0.0004(13)
N2 0.0124(16) 0.0218(18) 0.0306(19) -0.0016(14) 0.0102(14) -0.0035(13)
O1 0.0332(16) 0.0217(14) 0.0150(14) 0.0012(11) 0.0079(12) -0.0030(12)
O2 0.0236(15) 0.0229(15) 0.0171(14) -0.0044(11) 0.0070(12) -0.0064(11)
O3 0.0314(16) 0.0227(15) 0.0238(15) -0.0033(12) 0.0141(13) -0.0066(12)
O4 0.0286(15) 0.0270(15) 0.0173(14) -0.0059(12) 0.0120(12) -0.0040(12)
O5 0.0134(14) 0.0286(15) 0.0260(15) -0.0040(12) 0.0085(12) 0.0012(11)
O6 0.0164(13) 0.0175(14) 0.0237(14) -0.0014(11) 0.0075(11) -0.0028(11)
O7 0.0155(14) 0.0327(16) 0.0209(15) -0.0001(12) 0.0063(12) -0.0009(11)
O8 0.0199(15) 0.0312(16) 0.0251(16) -0.0073(12) 0.0088(12) -0.0088(12)
O12 0.0425(19) 0.0269(16) 0.0206(15) -0.0057(13) -0.0062(14) 0.0101(14)
O13 0.0195(15) 0.0476(19) 0.0251(16) -0.0061(14) 0.0052(13) 0.0019(13)
Zn1 0.0169(2) 0.0194(2) 0.0255(3) -0.00143(19) 0.00539(19) 0.00434(18)
Eu1B 0.01269 0.01693 0.01246 -0.00077 0.00447 0.00071
Eu1C 0.01269 0.01693 0.01246 0.00077 0.00447 -0.00071
Eu1A 0.01269 0.01693 0.01246 0.00077 0.00447 -0.00071
N2A 0.0124 0.0218 0.0306 0.0016 0.0102 0.0035
O3B 0.0314 0.0227 0.0238 -0.0033 0.0141 -0.0066
O4C 0.0286 0.027 0.0173 0.0059 0.012 0.004
O5A 0.0134 0.0286 0.026 0.004 0.0085 -0.0012
O6A 0.0164 0.0175 0.0237 0.0014 0.0075 0.0028
O8A 0.0199 0.0312 0.0251 0.0073 0.0088 0.0088
Zn1A 0.0169 0.0194 0.0255 0.00143 0.00539 -0.00434
O9 0.046(2) 0.095(3) 0.034(2) 0.019(2) 0.0150(18) 0.008(2)
O10 0.132(5) 0.061(3) 0.079(4) 0.005(3) -0.015(3) -0.037(3)
O11 0.112(5) 0.153(6) 0.162(7) -0.068(6) 0.025(5) 0.007(5)
loop_
_geom_bond_atom_site_label_1
_geom_bond_atom_site_label_2
_geom_bond_site_symmetry_1
_geom_bond_site_symmetry_2
C1 C2 1_555 1_555
C2 H1 1_555 1_555
C3 C2 1_555 1_555
H2 C3 1_555 1_555
C4 C3 1_555 1_555
H3 C4 1_555 1_555
C5 C4 1_555 1_555
C6 C1 1_555 1_555
H4 C6 1_555 1_555
C7 C5 1_555 1_555
C8 C1 1_555 1_555
C9 C10 1_555 1_555
C10 C11 1_555 1_555
C11 C12 1_555 1_555
C12 O7 1_555 1_555
C13 H5 1_555 1_555
Eu1 O1 1_555 1_555
N1 C10 1_555 1_555
N2 C11 1_555 1_555
O1 C7 1_555 1_555
O2 C7 1_555 1_555
O3 C8 1_555 1_555
O4 C8 1_555 1_555
O5 C9 1_555 1_555
O6 C9 1_555 1_555
O7 Eu1 1_555 1_555
O8 C12 1_555 1_555
O9 H6 1_555 1_555
H7 O9 1_555 1_555
O10 H8 1_555 1_555
H9 O10 1_555 1_555
O11 H10 1_555 1_555
H11 O11 1_555 1_555
O12 Eu1 1_555 1_555
H12 O12 1_555 1_555
H13 O12 1_555 1_555
O13 H14 1_555 1_555
H15 O13 1_555 1_555
Zn1 N1 1_555 1_555
Eu1B O3 1_555 1_555
Eu1C O4 1_555 1_555
Eu1A O5 1_555 1_555
N2A Zn1 1_555 1_555
O3B Eu1 1_555 1_555
O4C Eu1 1_555 1_555
O5A Eu1 1_555 1_555
O6A Eu1 1_555 1_555
O8A Zn1 1_555 1_555
Zn1A N2 1_555 1_555
C5 C6 1_555 1_555
C13 N1 1_555 1_555
C13 N2 1_555 1_555
Eu1 O2 1_555 1_555
Eu1 O5 1_555 1_555
O6 Zn1 1_555 1_555
O6 Eu1A 1_555 1_555
O8 Zn1A 1_555 1_555
O13 Zn1 1_555 1_555

#END
