
#######################################################################
#
#                 Cambridge Crystallographic Data Centre
#                                CCDC 
#
#######################################################################
#
# If this CIF has been generated from an entry in the Cambridge 
# Structural Database, then it will include bibliographic, chemical, 
# crystal, experimental, refinement or atomic coordinate data resulting 
# from the CCDC's data processing and validation procedures.
#
#######################################################################

data_KUNWEW
_chemical_formula_moiety         '(C25 H23 N3 O12 Zn2)n'
_symmetry_cell_setting           orthorhombic
_symmetry_space_group_name_H-M   'I b a 2'
_symmetry_Int_Tables_number      45
_space_group_name_Hall           'I 2 -2c'
loop_
_symmetry_equiv_pos_site_id
_symmetry_equiv_pos_as_xyz
1 x,y,z
2 -x,-y,z
3 -x,y,1/2+z
4 x,-y,1/2+z
5 1/2+x,1/2+y,1/2+z
6 1/2-x,1/2-y,1/2+z
7 1/2-x,1/2+y,z
8 1/2+x,1/2-y,z
_cell_length_a                   30.6820(10)
_cell_length_b                   10.9290(10)
_cell_length_c                   16.594(2)
_cell_angle_alpha                90
_cell_angle_beta                 90
_cell_angle_gamma                90
_cell_volume                     5564.36
loop_
_atom_site_label
_atom_site_type_symbol
_atom_site_fract_x
_atom_site_fract_y
_atom_site_fract_z
_atom_site_U_iso_or_equiv
_atom_site_thermal_displace_type
Zn1 Zn 0.675384(18) 1.10127(5) 0.88994(5) 0.0291 Uani
Zn2 Zn 0.42329(2) 0.78760(9) 0.94613(5) 0.0452 Uani
C1 C 0.61711(17) 0.8955(5) 1.1392(4) 0.0297 Uani
H1 H 0.6458 0.9103 1.1546 0.0350 Uiso
C2 C 0.58824(18) 0.8450(5) 1.1937(3) 0.0270 Uani
C3 C 0.54544(19) 0.8225(6) 1.1699(4) 0.0360 Uani
H2 H 0.5255 0.7913 1.2067 0.0440 Uiso
C4 C 0.5324(2) 0.8470(6) 1.0902(4) 0.0407 Uani
C5 C 0.5616(2) 0.8995(6) 1.0385(4) 0.0363 Uani
H3 H 0.5528 0.9188 0.9864 0.0430 Uiso
C6 C 0.60363(18) 0.9242(5) 1.0617(4) 0.0317 Uani
C7 C 0.4867(2) 0.8174(7) 1.0628(5) 0.0517 Uani
C8 C 0.63452(19) 0.9846(6) 1.0031(4) 0.0360 Uani
C9 C 0.60176(18) 0.8213(5) 1.2786(3) 0.0273 Uani
C10 C 0.6881(2) 0.8016(6) 0.7261(4) 0.0423 Uani
H4 H 0.6795 0.7420 0.6894 0.0510 Uiso
C11 C 0.6621(2) 0.8703(6) 0.7722(4) 0.0403 Uani
H5 H 0.6319 0.8646 0.7737 0.0480 Uiso
C12 C 0.72741(18) 0.9302(5) 0.7973(3) 0.0297 Uani
C13 C 0.76247(18) 1.0034(5) 0.8346(4) 0.0303 Uani
C14 C 0.8060(2) 0.9777(6) 0.8318(4) 0.0387 Uani
H6 H 0.8163 0.9082 0.8056 0.0470 Uiso
C15 C 0.8348(2) 1.0595(7) 0.8696(4) 0.0467 Uani
H7 H 0.8647 1.0468 0.8670 0.0560 Uiso
C16 C 0.8186(2) 1.1575(6) 0.9101(4) 0.0447 Uani
H8 H 0.8370 1.2119 0.9364 0.0540 Uiso
C17 C 0.7747(2) 1.1738(6) 0.9112(4) 0.0400 Uani
H9 H 0.7639 1.2406 0.9396 0.0480 Uiso
C18 C 0.7691(2) 0.7923(5) 0.6982(4) 0.0357 Uani
H10 H 0.7611 0.7226 0.6652 0.0430 Uiso
H11 H 0.7914 0.7661 0.7360 0.0430 Uiso
C19 C 0.78748(19) 0.8942(5) 0.6442(4) 0.0293 Uani
C20 C 0.8315(2) 0.9116(6) 0.6392(5) 0.0413 Uani
H12 H 0.8501 0.8612 0.6684 0.0500 Uiso
C21 C 0.84873(19) 1.0037(6) 0.5910(4) 0.0430 Uani
H13 H 0.8787 1.0143 0.5876 0.0520 Uiso
C22 C 0.82125(18) 1.0788(5) 0.5484(4) 0.0320 Uani
C23 C 0.77669(19) 1.0580(6) 0.5524(4) 0.0353 Uani
H14 H 0.7580 1.1058 0.5215 0.0420 Uiso
C24 C 0.75968(19) 0.9693(5) 0.6005(4) 0.0343 Uani
H15 H 0.7296 0.9590 0.6041 0.0410 Uiso
C25 C 0.84005(18) 1.1791(5) 0.4971(4) 0.0330 Uani
N1 N 0.73008(16) 0.8366(4) 0.7434(3) 0.0343 Uani
N2 N 0.68622(16) 0.9497(5) 0.8168(3) 0.0360 Uani
N3 N 0.74577(15) 1.1000(4) 0.8741(3) 0.0317 Uani
O1 O 0.47833(14) 0.8410(5) 0.9894(3) 0.0490 Uani
O2 O 0.4554(3) 0.6033(8) 0.9222(7) 0.1357 Uani
O3 O 0.4565(3) 0.8022(10) 1.1146(7) 0.0440 Uiso
O4 O 0.67406(13) 0.9689(5) 1.0085(3) 0.0510 Uani
O5 O 0.61790(12) 1.0500(4) 0.9473(3) 0.0380 Uani
O6 O 0.64167(12) 0.8158(4) 1.2954(2) 0.0300 Uani
O7 O 0.57136(13) 0.8101(5) 1.3301(3) 0.0470 Uani
O8 O 0.81495(12) 1.2474(4) 0.4597(3) 0.0376 Uani
O9 O 0.88129(14) 1.1867(5) 0.4969(4) 0.0610 Uani
Zn1C Zn 0.675384(18) 0.89873(5) 1.38994(5) 0.0291 Uani
Zn1E Zn 0.824616(18) 1.39873(5) 0.38994(5) 0.0291 Uani
Zn2A Zn 0.57671(2) 1.21240(9) 0.94613(5) 0.0452 Uani
Zn2B Zn 0.57671(2) 0.78760(9) 1.44613(5) 0.0452 Uani
Zn2D Zn 0.92329(2) 1.28760(9) 0.44613(5) 0.0452 Uani
O5A O 0.38210(12) 0.9500(4) 0.9473(3) 0.0380 Uani
O6C O 0.64167(12) 1.1842(4) 0.7954(2) 0.0300 Uani
O7B O 0.42864(13) 0.8101(5) 0.8301(3) 0.0470 Uani
O8E O 0.68505(12) 1.2526(4) 0.9597(3) 0.0376 Uani
O9D O 0.38129(14) 0.6867(5) 0.9969(4) 0.0610 Uani
O10 O 0.5551(6) 0.8662(17) 0.7763(11) 0.1010 Uiso
O11 O 0.9515(15) 1.018(5) 0.766(3) 0.3300 Uiso
O12 O 0.9690(10) 1.020(4) 0.632(2) 0.2380 Uiso
loop_
_atom_site_aniso_label
_atom_site_aniso_U_11
_atom_site_aniso_U_22
_atom_site_aniso_U_33
_atom_site_aniso_U_23
_atom_site_aniso_U_13
_atom_site_aniso_U_12
Zn1 0.0302(3) 0.0346(3) 0.0224(3) -0.0003(3) 0.0011(3) -0.0028(2)
Zn2 0.0286(3) 0.0826(6) 0.0245(4) 0.0087(4) -0.0055(3) -0.0195(3)
C1 0.023(3) 0.041(3) 0.025(3) -0.003(2) -0.004(2) 0.000(2)
C2 0.030(3) 0.033(3) 0.018(3) -0.002(2) 0.000(2) 0.000(2)
C3 0.030(3) 0.052(4) 0.026(3) 0.010(3) 0.000(2) -0.002(3)
C4 0.036(3) 0.054(4) 0.032(4) 0.006(3) -0.013(3) -0.013(3)
C5 0.038(3) 0.047(4) 0.024(4) 0.007(3) -0.004(3) -0.010(3)
C6 0.030(3) 0.039(3) 0.026(3) 0.004(2) 0.001(2) -0.002(2)
C7 0.031(3) 0.088(5) 0.036(4) 0.014(4) -0.005(3) -0.023(3)
C8 0.037(3) 0.051(3) 0.020(3) 0.005(3) 0.000(2) -0.018(3)
C9 0.028(3) 0.035(3) 0.019(3) -0.001(2) 0.000(2) 0.004(2)
C10 0.054(4) 0.041(3) 0.032(4) -0.007(3) 0.003(3) -0.015(3)
C11 0.039(3) 0.046(3) 0.036(4) -0.002(3) -0.007(3) -0.005(3)
C12 0.035(3) 0.035(3) 0.019(3) 0.001(2) 0.001(2) 0.001(2)
C13 0.034(3) 0.033(3) 0.024(3) 0.000(2) -0.002(3) -0.002(2)
C14 0.041(3) 0.040(3) 0.035(4) -0.003(3) 0.006(3) 0.004(3)
C15 0.034(3) 0.065(4) 0.041(5) 0.008(3) -0.005(3) 0.003(3)
C16 0.047(4) 0.045(4) 0.042(4) 0.001(3) -0.011(3) -0.013(3)
C17 0.045(3) 0.038(3) 0.037(4) -0.006(3) -0.001(3) -0.006(3)
C18 0.044(3) 0.035(3) 0.028(3) 0.000(2) 0.011(3) 0.001(3)
C19 0.037(3) 0.030(3) 0.021(3) 0.003(2) 0.002(2) 0.003(2)
C20 0.039(3) 0.045(3) 0.040(4) 0.020(3) -0.002(3) 0.011(3)
C21 0.028(3) 0.058(4) 0.043(4) 0.018(3) 0.008(3) 0.004(3)
C22 0.034(3) 0.037(3) 0.025(3) -0.002(2) -0.002(2) 0.001(2)
C23 0.035(3) 0.037(3) 0.034(3) 0.010(3) -0.007(3) 0.000(2)
C24 0.034(3) 0.038(3) 0.031(4) 0.000(3) 0.001(3) -0.004(2)
C25 0.031 0.044 0.024 -0.001 -0.003 -0.003
N1 0.040(3) 0.035(3) 0.028(3) 0.002(2) 0.005(2) 0.001(2)
N2 0.036(3) 0.039(3) 0.033(3) 0.002(2) -0.002(2) 0.000(2)
N3 0.032(2) 0.037(2) 0.026(3) 0.000(2) 0.004(2) -0.0026(18)
O1 0.035(2) 0.071(3) 0.041(3) 0.012(2) -0.016(2) -0.013(2)
O2 0.109(7) 0.110(6) 0.188(12) -0.008(6) 0.029(6) 0.034(5)
O4 0.032(2) 0.084(4) 0.037(3) 0.008(3) 0.000(2) -0.009(2)
O5 0.042(2) 0.042(2) 0.030(2) 0.009(2) 0.003(2) -0.0063(17)
O6 0.030(2) 0.041(2) 0.019(2) -0.0059(17) -0.0045(17) 0.0037(16)
O7 0.032(2) 0.088(4) 0.021(2) -0.001(2) 0.0049(19) -0.003(2)
O8 0.0327 0.045 0.035 0.016 0.0002 -0.0008
O9 0.031 0.074 0.078 0.036 -0.007 -0.009
Zn1C 0.0302 0.0346 0.0224 0.0003 0.0011 0.0028
Zn1E 0.0302 0.0346 0.0224 0.0003 -0.0011 -0.0028
Zn2A 0.0286 0.0826 0.0245 -0.0087 0.0055 -0.0195
Zn2B 0.0286 0.0826 0.0245 0.0087 0.0055 0.0195
Zn2D 0.0286 0.0826 0.0245 0.0087 -0.0055 -0.0195
O5A 0.042 0.042 0.03 -0.009 -0.003 -0.0063
O6C 0.03 0.041 0.019 0.0059 -0.0045 -0.0037
O7B 0.032 0.088 0.021 -0.001 -0.0049 0.003
O8E 0.0327 0.045 0.035 -0.016 -0.0002 -0.0008
O9D 0.031 0.074 0.078 0.036 -0.007 -0.009
loop_
_geom_bond_atom_site_label_1
_geom_bond_atom_site_label_2
_geom_bond_site_symmetry_1
_geom_bond_site_symmetry_2
Zn1 N2 1_555 1_555
Zn2 O1 1_555 1_555
C1 H1 1_555 1_555
C2 C1 1_555 1_555
C3 C2 1_555 1_555
H2 C3 1_555 1_555
C4 C3 1_555 1_555
C5 C4 1_555 1_555
H3 C5 1_555 1_555
C6 C1 1_555 1_555
C7 C4 1_555 1_555
C8 C6 1_555 1_555
C9 C2 1_555 1_555
C10 H4 1_555 1_555
C11 C10 1_555 1_555
H5 C11 1_555 1_555
C12 C13 1_555 1_555
C13 C14 1_555 1_555
C14 H6 1_555 1_555
C15 C14 1_555 1_555
H7 C15 1_555 1_555
C16 C15 1_555 1_555
H8 C16 1_555 1_555
C17 C16 1_555 1_555
H9 C17 1_555 1_555
C18 H10 1_555 1_555
H11 C18 1_555 1_555
C19 C18 1_555 1_555
C20 C19 1_555 1_555
H12 C20 1_555 1_555
C21 C20 1_555 1_555
H13 C21 1_555 1_555
C22 C21 1_555 1_555
C23 C22 1_555 1_555
H14 C23 1_555 1_555
C24 C19 1_555 1_555
H15 C24 1_555 1_555
C25 C22 1_555 1_555
N1 C10 1_555 1_555
N2 C11 1_555 1_555
N3 Zn1 1_555 1_555
O1 C7 1_555 1_555
O2 Zn2 1_555 1_555
O3 C7 1_555 1_555
O4 Zn1 1_555 1_555
O5 Zn1 1_555 1_555
O6 C9 1_555 1_555
O7 C9 1_555 1_555
O8 C25 1_555 1_555
O9 C25 1_555 1_555
Zn1C O6 1_555 1_555
Zn1E O8 1_555 1_555
Zn2A O5 1_555 1_555
Zn2B O7 1_555 1_555
Zn2D O9 1_555 1_555
O5A Zn2 1_555 1_555
O6C Zn1 1_555 1_555
O7B Zn2 1_555 1_555
O8E Zn1 1_555 1_555
O9D Zn2 1_555 1_555
C5 C6 1_555 1_555
C8 O4 1_555 1_555
C8 O5 1_555 1_555
C12 N1 1_555 1_555
C12 N2 1_555 1_555
C13 N3 1_555 1_555
C17 N3 1_555 1_555
C18 N1 1_555 1_555
C23 C24 1_555 1_555

#END
