
#######################################################################
#
#                 Cambridge Crystallographic Data Centre
#                                CCDC 
#
#######################################################################
#
# If this CIF has been generated from an entry in the Cambridge 
# Structural Database, then it will include bibliographic, chemical, 
# crystal, experimental, refinement or atomic coordinate data resulting 
# from the CCDC's data processing and validation procedures.
#
#######################################################################

data_IDORIE
_chemical_formula_moiety         'C61 H51 Cu14 N45 O45 Si1 W12'
_symmetry_cell_setting           orthorhombic
_symmetry_space_group_name_H-M   'P n a 21'
_symmetry_Int_Tables_number      33
_space_group_name_Hall           'P 2c -2n'
loop_
_symmetry_equiv_pos_site_id
_symmetry_equiv_pos_as_xyz
1 x,y,z
2 -x,-y,1/2+z
3 1/2-x,1/2+y,1/2+z
4 1/2+x,1/2-y,z
_cell_length_a                   23.8670(11)
_cell_length_b                   18.1770(13)
_cell_length_c                   22.4250(14)
_cell_angle_alpha                90
_cell_angle_beta                 90
_cell_angle_gamma                90
_cell_volume                     9728.65
loop_
_atom_site_label
_atom_site_type_symbol
_atom_site_fract_x
_atom_site_fract_y
_atom_site_fract_z
O42 O 0.5942(7) 0.6704(11) 0.6368(9)
O43 O 0.0345(5) 0.8863(7) 0.2483(6)
O44 O 0.0933(11) 0.821(2) 0.4967(14)
O45 O 0.5175(10) 0.7930(15) 0.5459(10)
N1 N 0.2236(5) 0.7476(7) 0.4591(6)
N2 N 0.2109(5) 0.9026(8) 0.5676(6)
N3 N 0.1651(5) 0.9451(8) 0.5643(6)
N4 N 0.1662(5) 0.9918(7) 0.6074(6)
N5 N 0.2143(5) 0.9830(7) 0.6397(6)
N6 N 0.1705(4) 1.0700(6) 0.8029(5)
N7 N 0.1749(4) 1.0711(6) 0.7427(5)
N8 N 0.1242(5) 1.0707(7) 0.7203(5)
N9 N 0.2343(4) 0.6569(6) 0.3972(5)
N10 N 0.1806(5) 0.6554(7) 0.4197(5)
N11 N 0.1747(5) 0.7091(8) 0.4585(6)
N12 N 0.3997(5) 1.0429(7) 0.7730(6)
N13 N 0.3121(5) 1.0620(7) 0.7913(5)
N14 N 0.3167(4) 1.0620(6) 0.7312(5)
N15 N 0.2183(5) 0.4012(8) 0.4674(7)
N16 N 0.2319(5) 0.4911(7) 0.4048(6)
N17 N 0.1794(5) 0.4963(7) 0.4283(6)
N18 N 0.1712(5) 0.4402(7) 0.4661(6)
N19 N 0.3620(5) 1.0523(8) 0.8148(5)
N20 N 0.4955(5) 1.0240(7) 0.5047(6)
N21 N 0.0853(5) 1.0694(7) 0.7643(5)
N22 N 0.5624(5) 0.9881(8) 0.4444(6)
N23 N 0.2202(5) 1.2242(6) 0.5525(5)
N24 N -0.0484(5) 0.9966(7) 1.1035(6)
N25 N 0.0109(5) 1.0489(7) 1.0418(5)
N26 N 0.1708(5) 1.1900(7) 0.5567(6)
N27 N 0.1732(5) 1.1459(7) 0.6031(6)
N28 N 0.4795(5) 1.2738(7) 0.6373(7)
N29 N 0.2236(5) 1.1483(7) 0.6275(6)
N30 N 0.4456(6) 0.8145(8) 0.6979(7)
N31 N 0.5264(6) 0.7562(10) 0.7004(8)
N32 N 0.5646(5) 0.8513(8) 0.3878(6)
N33 N 0.4844(5) 0.7932(7) 0.3752(6)
N34 N 0.5561(5) 1.3434(7) 0.6343(5)
C1 C 0.1151(6) 1.0707(8) 0.8143(7)
C2 C 0.3727(6) 1.0502(8) 0.7208(6)
C3 C 0.4016(6) 1.0446(8) 0.6640(7)
C4 C 0.4594(6) 1.0372(10) 0.6667(8)
H1 H 0.4774 1.0359 0.7035
C5 C 0.4912(7) 1.0314(9) 0.6133(7)
H2 H 0.5301 1.0281 0.6148
C6 C 0.4640(6) 1.0305(9) 0.5595(7)
C7 C 0.4056(7) 1.0398(9) 0.5558(7)
H3 H 0.3875 1.0411 0.5190
C8 C 0.3758(7) 1.0468(10) 0.6080(7)
H4 H 0.3372 1.0532 0.6061
C9 C 0.0900(6) 1.0703(8) 0.8728(7)
C10 C 0.0065(6) 1.0686(10) 0.9347(8)
H5 H -0.0323 1.0723 0.9378
C11 C 0.1205(6) 1.0709(8) 0.9263(7)
H6 H 0.1593 1.0751 0.9239
C12 C 0.0381(6) 1.0621(8) 0.9854(7)
C13 C 0.0318(7) 1.0699(10) 0.8786(8)
H7 H 0.0095 1.0706 0.8446
C14 C 0.0969(6) 1.0657(8) 0.9814(7)
H8 H 0.1190 1.0645 1.0155
C15 C 0.3119(6) 0.4081(9) 0.4228(7)
C16 C 0.3373(7) 0.3971(9) 0.3663(8)
H9 H 0.3172 0.4055 0.3314
C17 C 0.3929(7) 0.3735(10) 0.3636(8)
H10 H 0.4107 0.3677 0.3270
C18 C 0.2543(6) 0.4328(9) 0.4288(7)
C19 C 0.4833(7) 1.0538(11) 0.4498(8)
H11 H 0.4532 1.0841 0.4401
C20 C 0.5431(6) 0.9853(9) 0.4995(7)
H12 H 0.5602 0.9598 0.5305
C21 C 0.4217(6) 0.3586(9) 0.4169(9)
C22 C 0.3428(7) 0.3959(10) 0.4747(7)
H13 H 0.3263 0.4041 0.5117
C23 C 0.3983(7) 0.3715(9) 0.4718(8)
H14 H 0.4190 0.3641 0.5064
C24 C 0.0302(7) 1.0618(9) 1.0961(7)
H15 H 0.0626 1.0876 1.1058
C25 C 0.2522(6) 1.1980(8) 0.5974(6)
C26 C 0.3296(7) 1.2322(9) 0.6654(8)
H16 H 0.3044 1.2289 0.6968
C27 C 0.3117(6) 1.2178(9) 0.6070(7)
C28 C 0.3495(6) 1.2197(8) 0.5600(8)
H17 H 0.3376 1.2112 0.5212
C29 C 0.4054(6) 1.2345(8) 0.5719(7)
H18 H 0.4313 1.2335 0.5409
C30 C 0.4231(6) 1.2502(9) 0.6278(7)
C31 C 0.5019(6) 1.3395(9) 0.6220(7)
H19 H 0.4816 1.3777 0.6048
C32 C -0.0072(6) 1.0295(9) 1.1360(7)
H20 H -0.0045 1.0302 1.1774
C33 C 0.5223(6) 1.2344(9) 0.6620(7)
H21 H 0.5199 1.1869 0.6772
C34 C 0.2937(6) 0.8947(9) 0.6358(7)
C35 C 0.3336(7) 0.8723(9) 0.5971(9)
H22 H 0.3266 0.8752 0.5563
C36 C 0.3370(5) 0.7394(8) 0.3486(7)
H23 H 0.3136 0.7291 0.3165
C37 C 0.3018(6) 0.8890(8) 0.6972(7)
H24 H 0.2738 0.9035 0.7236
C38 C 0.4279(6) 0.7754(8) 0.3847(8)
C39 C 0.3907(6) 0.7592(9) 0.3394(8)
H25 H 0.4035 0.7621 0.3003
C40 C 0.5121(6) 0.8476(8) 0.4014(7)
H26 H 0.4950 0.8805 0.4275
C41 C 0.3926(6) 0.8402(9) 0.6777(8)
C42 C 0.5680(6) 1.2763(9) 0.6605(8)
H27 H 0.6029 1.2624 0.6750
C43 C 0.2395(6) 0.9258(8) 0.6138(7)
C44 C 0.5221(6) 0.7582(9) 0.3393(7)
H28 H 0.5153 0.7184 0.3143
C45 C 0.3517(7) 0.8617(10) 0.7180(8)
H29 H 0.3580 0.8576 0.7588
C46 C 0.3527(7) 0.7552(10) 0.4543(8)
H30 H 0.3393 0.7574 0.4932
C47 C 0.3858(7) 1.2516(11) 0.6764(8)
H31 H 0.3978 1.2648 0.7144
C48 C 0.2589(6) 0.7142(8) 0.4216(6)
C49 C 0.3162(6) 0.7345(9) 0.4086(7)
C50 C 0.4757(8) 0.7638(10) 0.6731(9)
H32 H 0.4641 0.7359 0.6406
C51 C 0.3846(7) 0.8452(9) 0.6167(8)
H33 H 0.4124 0.8310 0.5900
C52 C 0.4079(6) 0.7726(9) 0.4434(7)
H34 H 0.4320 0.7825 0.4750
C53 C 0.5241(7) 1.0300(10) 0.4129(8)
H35 H 0.5262 1.0403 0.3724
C54 C 0.5280(8) 0.8089(12) 0.7428(12)
H36 H 0.5580 0.8190 0.7679
C55 C 0.5728(7) 0.7940(9) 0.3478(8)
H37 H 0.6066 0.7818 0.3297
C56 C -0.0355(6) 1.0054(8) 1.0470(7)
H38 H -0.0550 0.9850 1.0151
C57 C 0.4777(8) 0.8446(12) 0.7421(11)
H39 H 0.4671 0.8828 0.7674
Cu1 Cu 0.25762(7) 0.57032(10) 0.34477(8)
Cu2 Cu 0.24565(7) 1.07052(10) 0.68936(8)
Cu3 Cu 0.10966(7) 1.07277(10) 0.62528(8)
Cu4 Cu 0.12194(7) 0.57319(10) 0.40725(8)
Cu5 Cu 0.22243(8) 1.30977(11) 0.50620(10)
Cu6 Cu 0.22352(8) 0.82758(11) 0.51145(10)
Cu7 Cu 0.1168(2) 1.2107(4) 0.5002(3)
N35 N 0.4798(5) 0.3317(7) 0.4160(7)
O1 O 0.3172(4) 1.0623(6) 0.4053(5)
O2 O 0.3547(4) 0.9559(6) 0.3389(5)
O3 O 0.3874(4) 1.0891(7) 0.3181(5)
O4 O 0.3522(4) 1.2277(6) 0.3117(5)
O5 O 0.2458(4) 1.2723(6) 0.3030(5)
O6 O 0.1363(5) 1.1628(7) 0.1816(5)
O7 O 0.1154(5) 1.0134(9) 0.4420(6)
O8 O 0.2735(4) 0.8740(6) 0.2487(5)
O9 O 0.1593(5) 0.9147(6) 0.3589(5)
O10 O 0.1739(4) 1.0548(6) 0.1139(5)
O11 O 0.2780(5) 1.1070(6) 0.1285(5)
O12 O 0.2394(4) 0.9434(6) 0.1537(5)
O13 O 0.3454(4) 1.1720(6) 0.2034(5)
O14 O 0.1251(4) 1.0475(7) 0.3207(5)
O15 O 0.1052(4) 1.0237(6) 0.2038(5)
O16 O 0.1692(4) 0.9150(6) 0.2385(5)
O17 O 0.3259(5) 0.8361(7) 0.1396(7)
O18 O 0.1957(5) 1.1982(7) 0.0787(5)
O19 O 0.2417(4) 1.2131(6) 0.1932(6)
O20 O 0.2037(4) 1.0678(6) 0.2249(4)
O21 O 0.2400(4) 0.9984(6) 0.3212(5)
O22 O 0.2723(4) 1.1346(6) 0.2996(4)
O23 O 0.3104(4) 1.0246(6) 0.2334(5)
O24 O 0.2808(4) 1.2029(6) 0.4004(5)
O25 O 0.3922(4) 1.1799(6) 0.4215(5)
O26 O 0.3924(5) 1.1173(8) 0.0949(6)
O27 O 0.3445(5) 0.9848(6) 0.1283(6)
O28 O 0.3794(5) 0.9165(6) 0.2264(5)
O29 O 0.4647(5) 0.9770(7) 0.2944(6)
O30 O 0.2646(4) 0.8751(7) 0.3669(5)
O31 O 0.0487(5) 1.1372(8) 0.2601(6)
O32 O 0.1265(4) 0.9152(7) 0.1211(5)
O33 O 0.1920(5) 0.7861(7) 0.3030(6)
O34 O 0.4122(5) 1.0537(7) 0.2050(5)
O35 O 0.3326(6) 0.9240(7) 0.4602(6)
O36 O 0.2282(5) 0.9833(7) 0.4341(6)
O37 O 0.3224(5) 1.3217(7) 0.2201(6)
O38 O 0.1563(4) 1.1818(7) 0.2971(5)
O39 O 0.1741(4) 1.2651(7) 0.4012(6)
O40 O 0.1923(5) 1.1122(7) 0.3927(5)
Si1 Si 0.25644(15) 1.0560(2) 0.26941(19)
W1 W 0.34369(2) 1.15089(4) 0.37083(3)
W2 W 0.20543(3) 1.14602(4) 0.14169(3)
W3 W 0.39755(2) 0.99887(4) 0.27702(3)
W4 W 0.35254(3) 1.08589(4) 0.15297(3)
W5 W 0.16449(3) 0.97135(4) 0.16668(3)
W6 W 0.30063(3) 1.23858(3) 0.24676(3)
W7 W 0.20997(3) 1.20543(4) 0.35785(3)
W8 W 0.29955(3) 0.95955(4) 0.39895(3)
W9 W 0.31177(3) 0.91211(4) 0.18117(3)
W10 W 0.21136(3) 0.87525(4) 0.30297(3)
W11 W 0.16576(3) 1.01415(4) 0.38850(3)
W12 W 0.11532(2) 1.10947(4) 0.25347(3)
O41 O 0.0957(6) 1.3419(8) 0.5286(7)
H40 H 0.5716 0.2257 0.4712
H41 H 0.4702 0.2227 0.4440
H42 H 0.5302 0.4245 0.4038
N36 N 0.5720(9) 0.3344(12) 0.4407(11)
C58 C 0.5279(7) 0.3760(9) 0.4168(10)
C59 C 0.5512(9) 0.2643(12) 0.4547(12)
C60 C 0.4942(7) 0.2626(10) 0.4394(10)
N6B N 0.3295(4) 0.5700(6) 0.3029(5)
N13B N 0.1879(5) 0.5620(7) 0.2913(5)
N15_2 N 0.2183(5) 1.4012(8) 0.4674(7)
N19B N 0.1380(5) 0.5523(8) 0.3148(5)
N22C N 0.0624(5) 0.5119(8) 0.4444(6)
N24A N 0.0484(5) 1.0034(7) 0.6035(6)
N32C N 0.0646(5) 0.6487(8) 0.3878(6)
N34C N 0.0561(5) 1.1566(7) 0.6343(5)
Cu1B Cu 0.24238(7) 1.07032(10) 0.84477(8)
Cu3A Cu -0.10966(7) 0.92723(10) 1.12528(8)
Cu3C Cu 0.60966(7) 1.42723(10) 0.62528(8)
Cu4B Cu 0.37806(7) 1.07319(10) 0.90725(8)
Cu4C Cu 0.62194(7) 0.92681(10) 0.40725(8)
Cu5_2 Cu 0.22243(8) 0.30977(11) 0.50620(10)
Cu7C Cu 0.6168(2) 0.2893(4) 0.5002(3)
H40C H 0.0716 1.2743 0.4712
N36C N 0.0720(9) 1.1656(12) 0.4407(11)
C59C C 0.0512(9) 1.2357(12) 0.4547(12)
loop_
_geom_bond_atom_site_label_1
_geom_bond_atom_site_label_2
_geom_bond_site_symmetry_1
_geom_bond_site_symmetry_2
N1 N11 1_555 1_555
N2 N3 1_555 1_555
N3 N4 1_555 1_555
N4 N5 1_555 1_555
N5 C43 1_555 1_555
N6 N7 1_555 1_555
N7 N8 1_555 1_555
N8 N21 1_555 1_555
N9 N10 1_555 1_555
N10 N11 1_555 1_555
N11 Cu6 1_555 1_555
N12 N19 1_555 1_555
N13 N14 1_555 1_555
N14 C2 1_555 1_555
N15 N18 1_555 1_555
N16 N17 1_555 1_555
N17 N18 1_555 1_555
N19 N13 1_555 1_555
N20 C6 1_555 1_555
N21 C1 1_555 1_555
N22 C20 1_555 1_555
N23 N26 1_555 1_555
N24 C32 1_555 1_555
N25 C12 1_555 1_555
N26 N27 1_555 1_555
N27 N29 1_555 1_555
N28 C30 1_555 1_555
N29 C25 1_555 1_555
N30 C41 1_555 1_555
N31 C50 1_555 1_555
N32 C40 1_555 1_555
N33 C38 1_555 1_555
N34 C31 1_555 1_555
C1 N6 1_555 1_555
C2 N12 1_555 1_555
C3 C2 1_555 1_555
C4 C3 1_555 1_555
H1 C4 1_555 1_555
C5 C4 1_555 1_555
H2 C5 1_555 1_555
C6 C5 1_555 1_555
C7 C6 1_555 1_555
H3 C7 1_555 1_555
C8 C3 1_555 1_555
H4 C8 1_555 1_555
C9 C1 1_555 1_555
C10 H5 1_555 1_555
C11 C9 1_555 1_555
H6 C11 1_555 1_555
C12 C10 1_555 1_555
C13 C9 1_555 1_555
H7 C13 1_555 1_555
C14 C11 1_555 1_555
H8 C14 1_555 1_555
C15 C16 1_555 1_555
C16 H9 1_555 1_555
C17 C16 1_555 1_555
H10 C17 1_555 1_555
C18 N15 1_555 1_555
C19 N20 1_555 1_555
H11 C19 1_555 1_555
C20 N20 1_555 1_555
H12 C20 1_555 1_555
C21 C17 1_555 1_555
C22 C15 1_555 1_555
H13 C22 1_555 1_555
C23 C21 1_555 1_555
H14 C23 1_555 1_555
C24 N25 1_555 1_555
H15 C24 1_555 1_555
C25 N23 1_555 1_555
C26 H16 1_555 1_555
C27 C25 1_555 1_555
C28 C27 1_555 1_555
H17 C28 1_555 1_555
C29 C28 1_555 1_555
H18 C29 1_555 1_555
C30 C29 1_555 1_555
C31 N28 1_555 1_555
H19 C31 1_555 1_555
C32 C24 1_555 1_555
H20 C32 1_555 1_555
C33 N28 1_555 1_555
H21 C33 1_555 1_555
C34 C35 1_555 1_555
C35 H22 1_555 1_555
C36 H23 1_555 1_555
C37 C34 1_555 1_555
H24 C37 1_555 1_555
C38 C39 1_555 1_555
C39 C36 1_555 1_555
H25 C39 1_555 1_555
C40 N33 1_555 1_555
H26 C40 1_555 1_555
C41 C45 1_555 1_555
C42 N34 1_555 1_555
H27 C42 1_555 1_555
C43 N2 1_555 1_555
C44 N33 1_555 1_555
H28 C44 1_555 1_555
C45 C37 1_555 1_555
H29 C45 1_555 1_555
C46 H30 1_555 1_555
C47 C26 1_555 1_555
H31 C47 1_555 1_555
C48 N1 1_555 1_555
C49 C36 1_555 1_555
C50 N30 1_555 1_555
H32 C50 1_555 1_555
C51 C35 1_555 1_555
H33 C51 1_555 1_555
C52 C38 1_555 1_555
H34 C52 1_555 1_555
C53 N22 1_555 1_555
H35 C53 1_555 1_555
C54 N31 1_555 1_555
H36 C54 1_555 1_555
C55 N32 1_555 1_555
H37 C55 1_555 1_555
C56 N24 1_555 1_555
H38 C56 1_555 1_555
C57 N30 1_555 1_555
H39 C57 1_555 1_555
Cu1 N9 1_555 1_555
Cu2 N5 1_555 1_555
Cu3 N4 1_555 1_555
Cu4 N10 1_555 1_555
Cu5 N23 1_555 1_555
Cu6 N1 1_555 1_555
Cu7 N23 1_555 1_555
N35 C21 1_555 1_555
O1 W1 1_555 1_555
O2 W3 1_555 1_555
O3 W1 1_555 1_555
O4 W1 1_555 1_555
O5 W6 1_555 1_555
O6 W2 1_555 1_555
O7 W11 1_555 1_555
O8 W9 1_555 1_555
O9 W10 1_555 1_555
O10 W2 1_555 1_555
O11 W2 1_555 1_555
O12 W5 1_555 1_555
O13 W4 1_555 1_555
O14 W11 1_555 1_555
O15 W5 1_555 1_555
O16 W5 1_555 1_555
O17 W9 1_555 1_555
O18 W2 1_555 1_555
O19 W2 1_555 1_555
O20 Si1 1_555 1_555
O21 Si1 1_555 1_555
O22 Si1 1_555 1_555
O23 Si1 1_555 1_555
O24 W1 1_555 1_555
O25 W1 1_555 1_555
O26 W4 1_555 1_555
O27 W4 1_555 1_555
O28 W3 1_555 1_555
O29 W3 1_555 1_555
O30 W8 1_555 1_555
O31 W12 1_555 1_555
O32 W5 1_555 1_555
O33 W10 1_555 1_555
O34 W3 1_555 1_555
O35 W8 1_555 1_555
O36 W8 1_555 1_555
O37 W6 1_555 1_555
O38 W7 1_555 1_555
O39 Cu5 1_555 1_555
O40 W7 1_555 1_555
W1 O22 1_555 1_555
W2 O20 1_555 1_555
W3 O3 1_555 1_555
W4 O11 1_555 1_555
W5 O10 1_555 1_555
W6 O4 1_555 1_555
W7 O5 1_555 1_555
W8 O1 1_555 1_555
W9 O12 1_555 1_555
W10 O8 1_555 1_555
W11 O9 1_555 1_555
W12 O6 1_555 1_555
O41 Cu7 1_555 1_555
H40 C59 1_555 1_555
H41 C60 1_555 1_555
H42 C58 1_555 1_555
N36 C58 1_555 1_555
C58 N35 1_555 1_555
C59 N36 1_555 1_555
C60 N35 1_555 1_555
N6B Cu1 1_555 1_555
N13B Cu1 1_555 1_555
N15_2 Cu5 1_555 1_555
N19B Cu4 1_555 1_555
N22C Cu4 1_555 1_555
N24A Cu3 1_555 1_555
N32C Cu4 1_555 1_555
N34C Cu3 1_555 1_555
Cu1B N6 1_555 1_555
Cu3A N24 1_555 1_555
Cu3C N34 1_555 1_555
Cu4B N19 1_555 1_555
Cu4C N22 1_555 1_555
Cu5_2 N15 1_555 1_555
Cu7C H40 1_555 1_555
H40C Cu7 1_555 1_555
N36C Cu7 1_555 1_555
C59C Cu7 1_555 1_555
N2 Cu6 1_555 1_555
N7 Cu2 1_555 1_555
N8 Cu3 1_555 1_555
N9 C48 1_555 1_555
N13 Cu1B 1_555 1_555
N14 Cu2 1_555 1_555
N16 C18 1_555 1_555
N16 Cu1 1_555 1_555
N17 Cu4 1_555 1_555
N25 C56 1_555 1_555
N26 Cu5 1_555 1_555
N26 Cu7 1_555 1_555
N27 Cu3 1_555 1_555
N29 Cu2 1_555 1_555
N32 Cu4C 1_555 1_555
C7 C8 1_555 1_555
C10 C13 1_555 1_555
C12 C14 1_555 1_555
C15 C18 1_555 1_555
C19 C53 1_555 1_555
C22 C23 1_555 1_555
C26 C27 1_555 1_555
C30 C47 1_555 1_555
C33 C42 1_555 1_555
C34 C43 1_555 1_555
C41 C51 1_555 1_555
C44 C55 1_555 1_555
C46 C49 1_555 1_555
C46 C52 1_555 1_555
C48 C49 1_555 1_555
C54 C57 1_555 1_555
Cu7 O39 1_555 1_555
O2 W8 1_555 1_555
O13 W6 1_555 1_555
O14 W12 1_555 1_555
O15 W12 1_555 1_555
O16 W10 1_555 1_555
O19 W6 1_555 1_555
O20 W5 1_555 1_555
O20 W12 1_555 1_555
O21 W8 1_555 1_555
O21 W10 1_555 1_555
O21 W11 1_555 1_555
O22 W6 1_555 1_555
O22 W7 1_555 1_555
O23 W3 1_555 1_555
O23 W4 1_555 1_555
O23 W9 1_555 1_555
O24 W7 1_555 1_555
O27 W9 1_555 1_555
O28 W9 1_555 1_555
O30 W10 1_555 1_555
O34 W4 1_555 1_555
O36 W11 1_555 1_555
O38 W12 1_555 1_555
O39 W7 1_555 1_555
O40 W11 1_555 1_555
N36 Cu7C 1_555 1_555
C59 C60 1_555 1_555
C59 Cu7C 1_555 1_555
N13B N19B 1_555 1_555
H40C C59C 1_555 1_555
N36C C59C 1_555 1_555

#END
