
#######################################################################
#
#                 Cambridge Crystallographic Data Centre
#                                CCDC 
#
#######################################################################
#
# If this CIF has been generated from an entry in the Cambridge 
# Structural Database, then it will include bibliographic, chemical, 
# crystal, experimental, refinement or atomic coordinate data resulting 
# from the CCDC's data processing and validation procedures.
#
#######################################################################

data_OHAKIS
_chemical_formula_moiety         '(C25 H27 Cd1 N5 O6)n'
_symmetry_cell_setting           orthorhombic
_symmetry_space_group_name_H-M   'P b c a'
_symmetry_Int_Tables_number      61
_space_group_name_Hall           '-P 2ac 2ab'
loop_
_symmetry_equiv_pos_site_id
_symmetry_equiv_pos_as_xyz
1 x,y,z
2 1/2-x,-y,1/2+z
3 1/2+x,1/2-y,-z
4 -x,1/2+y,1/2-z
5 -x,-y,-z
6 1/2+x,y,1/2-z
7 1/2-x,1/2+y,z
8 x,1/2-y,1/2+z
_cell_length_a                   16.720(6)
_cell_length_b                   17.081(5)
_cell_length_c                   18.432(7)
_cell_angle_alpha                90
_cell_angle_beta                 90
_cell_angle_gamma                90
_cell_volume                     5264.07
loop_
_atom_site_label
_atom_site_type_symbol
_atom_site_fract_x
_atom_site_fract_y
_atom_site_fract_z
_atom_site_U_iso_or_equiv
_atom_site_thermal_displace_type
Cd1 Cd 0.22313(2) 0.00850(2) 0.48090(2) 0.0207 Uani
N1 N 0.3513(3) -0.0213(3) 0.4541(3) 0.0253 Uani
N2 N 0.4574(3) -0.0986(3) 0.4481(2) 0.0250 Uani
N3 N 0.2406(3) 0.0416(3) 0.5980(2) 0.0273 Uani
N4 N 0.2436(3) 0.1115(3) 0.6981(2) 0.0270 Uani
O1 O 0.6153(3) -0.4319(3) 0.5166(2) 0.0397 Uani
O2 O 0.7210(2) -0.3680(3) 0.4778(2) 0.0337 Uani
O3 O 0.2013(2) 0.3555(2) 0.9593(2) 0.0293 Uani
O4 O 0.2100(2) 0.4366(2) 0.8663(2) 0.0302 Uani
C1 C 0.4086(4) 0.0131(3) 0.4100(4) 0.0343 Uani
H1 H 0.4025 0.0608 0.3864 0.0410 Uiso
C2 C 0.4744(4) -0.0326(4) 0.4062(4) 0.0380 Uani
H2 H 0.5214 -0.0223 0.3810 0.0460 Uiso
C3 C 0.3841(3) -0.0879(3) 0.4760(3) 0.0237 Uani
H3 H 0.3592 -0.1231 0.5072 0.0280 Uiso
C4 C 0.5060(3) -0.1661(3) 0.4583(3) 0.0250 Uani
C5 C 0.5880(3) -0.1612(3) 0.4558(3) 0.0287 Uani
H4 H 0.6127 -0.1134 0.4468 0.0340 Uiso
C6 C 0.6337(3) -0.2276(3) 0.4666(3) 0.0280 Uani
H5 H 0.6892 -0.2241 0.4651 0.0340 Uiso
C7 C 0.5976(3) -0.2996(3) 0.4797(3) 0.0243 Uani
C8 C 0.5142(3) -0.3039(3) 0.4813(3) 0.0260 Uani
H6 H 0.4895 -0.3516 0.4904 0.0310 Uiso
C9 C 0.4684(3) -0.2386(3) 0.4697(3) 0.0270 Uani
H7 H 0.4130 -0.2423 0.4694 0.0320 Uiso
C10 C 0.6476(3) -0.3705(3) 0.4916(3) 0.0277 Uani
C11 C 0.2854(4) 0.0019(3) 0.6490(3) 0.0327 Uani
H8 H 0.3103 -0.0461 0.6418 0.0390 Uiso
C12 C 0.2873(4) 0.0442(3) 0.7116(3) 0.0337 Uani
H9 H 0.3128 0.0306 0.7547 0.0400 Uiso
C13 C 0.2171(3) 0.1067(3) 0.6290(3) 0.0253 Uani
H10 H 0.1861 0.1447 0.6063 0.0300 Uiso
C14 C 0.2318(3) 0.1753(3) 0.7473(3) 0.0260 Uani
C15 C 0.2244(4) 0.2515(3) 0.7183(3) 0.0297 Uani
H11 H 0.2261 0.2604 0.6686 0.0360 Uiso
C16 C 0.2147(4) 0.3126(3) 0.7674(3) 0.0320 Uani
H12 H 0.2084 0.3632 0.7498 0.0380 Uiso
C17 C 0.2140(3) 0.3003(3) 0.8410(3) 0.0263 Uani
C18 C 0.2229(3) 0.2240(3) 0.8675(3) 0.0263 Uani
H13 H 0.2234 0.2154 0.9173 0.0320 Uiso
C19 C 0.2309(3) 0.1614(3) 0.8206(3) 0.0277 Uani
H14 H 0.2356 0.1107 0.8384 0.0330 Uiso
C20 C 0.2072(3) 0.3690(3) 0.8916(3) 0.0260 Uani
Cd1B Cd 0.72313(2) -0.50850(2) 0.51910(2) 0.0207 Uani
Cd1G Cd 0.22313(2) 0.49150(2) 0.98090(2) 0.0207 Uani
O1B O 0.1153(3) -0.0681(3) 0.4834(2) 0.0397 Uani
O2B O 0.2210(2) -0.1320(3) 0.5222(2) 0.0337 Uani
O3G O 0.2013(2) 0.1445(2) 0.4593(2) 0.0293 Uani
O4G O 0.2100(2) 0.0634(2) 0.3663(2) 0.0302 Uani
C10B C 0.1476(3) -0.1295(3) 0.5084(3) 0.0277 Uani
C20G C 0.2072(3) 0.1310(3) 0.3916(3) 0.0260 Uani
N5 N 0.5124(4) -0.1807(5) 0.7207(3) 0.0580 Uani
O5 O 0.4266(3) -0.1314(4) 0.6388(3) 0.0657 Uani
C21 C 0.5552(9) -0.2501(10) 0.7166(16) 0.2807 Uani
H15 H 0.6033 -0.2448 0.7456 0.3360 Uiso
H16 H 0.5716 -0.2582 0.6667 0.3360 Uiso
C22 C 0.5086(11) -0.3234(10) 0.7425(17) 0.2517 Uani
H17 H 0.5410 -0.3692 0.7356 0.3760 Uiso
H18 H 0.4601 -0.3284 0.7150 0.3760 Uiso
H19 H 0.4959 -0.3180 0.7931 0.3760 Uiso
C23 C 0.5130(13) -0.1390(8) 0.7852(7) 0.1763 Uani
H20 H 0.5117 -0.1758 0.8253 0.2130 Uiso
H21 H 0.4647 -0.1076 0.7878 0.2130 Uiso
C24 C 0.5847(10) -0.0857(7) 0.7945(7) 0.1423 Uani
H22 H 0.5802 -0.0579 0.8396 0.2130 Uiso
H23 H 0.5866 -0.0490 0.7551 0.2130 Uiso
H24 H 0.6327 -0.1165 0.7948 0.2130 Uiso
C25 C 0.4744(8) -0.1694(10) 0.6667(9) 0.1913 Uani
H25 H 0.4901 -0.2072 0.6332 0.2300 Uiso
O6 O 0.4664(7) -0.4644(8) 0.5898(8) 0.1803 Uani
loop_
_atom_site_aniso_label
_atom_site_aniso_U_11
_atom_site_aniso_U_22
_atom_site_aniso_U_33
_atom_site_aniso_U_23
_atom_site_aniso_U_13
_atom_site_aniso_U_12
Cd1 0.0226(3) 0.0166(3) 0.0229(3) -0.00036(13) 0.00125(14) 0.00062(13)
N1 0.020(2) 0.027(2) 0.029(2) 0.0054(19) 0.0033(19) 0.0036(18)
N2 0.020(2) 0.022(2) 0.033(2) 0.0055(18) 0.0025(19) 0.0031(17)
N3 0.034(3) 0.021(2) 0.027(2) -0.0027(19) 0.000(2) 0.0019(19)
N4 0.033(3) 0.022(2) 0.026(2) -0.0028(19) -0.002(2) 0.0048(19)
O1 0.038(3) 0.025(2) 0.056(3) 0.0138(19) 0.006(2) 0.0045(19)
O2 0.023(2) 0.023(2) 0.055(3) -0.0088(18) -0.0036(18) 0.0028(15)
O3 0.034 0.023 0.031 -0.0015 0.0022 0.002
O4 0.045 0.0156 0.03 0.0009 0.0018 0.0013
C1 0.034(3) 0.030(3) 0.039(3) 0.011(3) 0.011(3) 0.004(2)
C2 0.030(3) 0.032(3) 0.052(4) 0.015(3) 0.013(3) 0.009(3)
C3 0.026(3) 0.017(3) 0.028(3) -0.0011(19) 0.000(2) -0.003(2)
C4 0.026(3) 0.021(3) 0.028(3) 0.001(2) -0.001(2) 0.001(2)
C5 0.022(3) 0.023(3) 0.041(3) 0.001(2) 0.001(2) -0.003(2)
C6 0.021(3) 0.024(3) 0.039(3) -0.005(2) 0.001(2) -0.001(2)
C7 0.022(3) 0.024(3) 0.027(3) 0.000(2) 0.001(2) 0.003(2)
C8 0.022(3) 0.021(3) 0.035(3) 0.003(2) -0.002(2) -0.004(2)
C9 0.022(3) 0.021(3) 0.038(3) 0.002(2) -0.002(2) -0.002(2)
C10 0.027(3) 0.026(3) 0.030(3) -0.005(2) -0.007(2) 0.000(2)
C11 0.055(4) 0.020(3) 0.023(3) 0.009(2) 0.004(3) 0.009(2)
C12 0.051(4) 0.018(3) 0.032(3) -0.001(2) -0.005(3) 0.010(2)
C13 0.032(3) 0.019(3) 0.025(3) 0.001(2) -0.002(2) 0.000(2)
C14 0.032(3) 0.017(3) 0.029(3) -0.004(2) -0.003(2) 0.000(2)
C15 0.048(4) 0.018(3) 0.023(3) -0.001(2) -0.002(2) -0.001(2)
C16 0.049(4) 0.017(3) 0.030(3) -0.001(2) -0.001(3) 0.006(2)
C17 0.027(3) 0.022(3) 0.030(3) 0.002(2) -0.003(2) -0.002(2)
C18 0.028(3) 0.024(3) 0.027(3) -0.002(2) 0.000(2) -0.001(2)
C19 0.032(3) 0.020(3) 0.031(3) 0.003(2) -0.001(2) 0.000(2)
C20 0.023 0.023 0.032 -0.004 0 0.002
Cd1B 0.0226 0.0166 0.0229 -0.00036 -0.00125 -0.00062
Cd1G 0.0226 0.0166 0.0229 0.00036 0.00125 -0.00062
O1B 0.038 0.025 0.056 0.0138 -0.006 -0.0045
O2B 0.023 0.023 0.055 -0.0088 0.0036 -0.0028
O3G 0.034 0.023 0.031 0.0015 0.0022 -0.002
O4G 0.045 0.0156 0.03 -0.0009 0.0018 -0.0013
C10B 0.027 0.026 0.03 -0.005 0.007 0
C20G 0.023 0.023 0.032 0.004 0 -0.002
N5 0.034(3) 0.091(6) 0.049(3) 0.001(4) -0.006(3) 0.013(3)
O5 0.060(4) 0.088(4) 0.049(3) 0.028(3) 0.008(3) 0.031(3)
C21 0.042(7) 0.19(2) 0.61(5) -0.22(3) -0.005(16) 0.013(9)
C22 0.139(14) 0.086(11) 0.53(5) -0.101(18) -0.18(2) 0.040(10)
C23 0.38(3) 0.086(9) 0.063(7) -0.013(7) 0.041(12) -0.090(14)
C24 0.228(18) 0.094(9) 0.105(9) -0.011(7) -0.099(11) -0.029(10)
C25 0.126(11) 0.258(19) 0.190(15) 0.196(15) -0.107(11) -0.135(13)
O6 0.162(11) 0.205(12) 0.174(11) 0.008(11) 0.022(10) -0.005(11)
loop_
_geom_bond_atom_site_label_1
_geom_bond_atom_site_label_2
_geom_bond_site_symmetry_1
_geom_bond_site_symmetry_2
Cd1 N1 1_555 1_555
N1 C1 1_555 1_555
N2 C2 1_555 1_555
N3 Cd1 1_555 1_555
N4 C12 1_555 1_555
N5 C21 1_555 1_555
O1 C10 1_555 1_555
O2 C10 1_555 1_555
O3 C20 1_555 1_555
O4 C20 1_555 1_555
O5 C25 1_555 1_555
C1 H1 1_555 1_555
C2 C1 1_555 1_555
H2 C2 1_555 1_555
C3 N1 1_555 1_555
H3 C3 1_555 1_555
C4 N2 1_555 1_555
C5 C4 1_555 1_555
H4 C5 1_555 1_555
C6 C5 1_555 1_555
H5 C6 1_555 1_555
C7 C6 1_555 1_555
C8 C7 1_555 1_555
H6 C8 1_555 1_555
C9 C4 1_555 1_555
H7 C9 1_555 1_555
C10 C7 1_555 1_555
C11 N3 1_555 1_555
H8 C11 1_555 1_555
C12 C11 1_555 1_555
H9 C12 1_555 1_555
C13 N3 1_555 1_555
H10 C13 1_555 1_555
C14 N4 1_555 1_555
C15 C14 1_555 1_555
H11 C15 1_555 1_555
C16 C15 1_555 1_555
H12 C16 1_555 1_555
C17 C16 1_555 1_555
C18 C17 1_555 1_555
H13 C18 1_555 1_555
C19 C14 1_555 1_555
H14 C19 1_555 1_555
C20 C17 1_555 1_555
C21 H15 1_555 1_555
H16 C21 1_555 1_555
C22 C21 1_555 1_555
H17 C22 1_555 1_555
H18 C22 1_555 1_555
H19 C22 1_555 1_555
C23 N5 1_555 1_555
H20 C23 1_555 1_555
H21 C23 1_555 1_555
C24 C23 1_555 1_555
H22 C24 1_555 1_555
H23 C24 1_555 1_555
H24 C24 1_555 1_555
C25 N5 1_555 1_555
H25 C25 1_555 1_555
Cd1B O1 1_555 1_555
Cd1G O3 1_555 1_555
O1B Cd1 1_555 1_555
O2B Cd1 1_555 1_555
O3G Cd1 1_555 1_555
O4G Cd1 1_555 1_555
C10B O1B 1_555 1_555
C20G O3G 1_555 1_555
N2 C3 1_555 1_555
N4 C13 1_555 1_555
O2 Cd1B 1_555 1_555
O4 Cd1G 1_555 1_555
C8 C9 1_555 1_555
C18 C19 1_555 1_555
O2B C10B 1_555 1_555
O4G C20G 1_555 1_555

#END
