
#######################################################################
#
#                 Cambridge Crystallographic Data Centre
#                                CCDC 
#
#######################################################################
#
# If this CIF has been generated from an entry in the Cambridge 
# Structural Database, then it will include bibliographic, chemical, 
# crystal, experimental, refinement or atomic coordinate data resulting 
# from the CCDC's data processing and validation procedures.
#
#######################################################################

data_VIDPIJ
_chemical_formula_moiety         '(C24 H36 Mn11 N30 O39)n'
_symmetry_cell_setting           tetragonal
_symmetry_space_group_name_H-M   'P -4 n 2'
_symmetry_Int_Tables_number      118
_space_group_name_Hall           'P -4 -2n'
loop_
_symmetry_equiv_pos_site_id
_symmetry_equiv_pos_as_xyz
1 x,y,z
2 -x,-y,z
3 y,-x,-z
4 -y,x,-z
5 1/2+x,1/2-y,1/2+z
6 1/2-x,1/2+y,1/2+z
7 1/2+y,1/2+x,1/2-z
8 1/2-y,1/2-x,1/2-z
_cell_length_a                   20.019(3)
_cell_length_b                   20.019(3)
_cell_length_c                   18.861(4)
_cell_angle_alpha                90
_cell_angle_beta                 90
_cell_angle_gamma                90
_cell_volume                     7558.74
loop_
_atom_site_label
_atom_site_type_symbol
_atom_site_fract_x
_atom_site_fract_y
_atom_site_fract_z
Mn1 Mn 0.78987(7) 0.21956(7) 0.65197(7)
Mn2 Mn 0.79018(7) 0.29018(7) 0.2500
Mn3 Mn 0.83531(6) 0.21578(7) 0.44591(7)
Mn4 Mn 1.05178(7) 0.20402(7) 0.44707(8)
Mn5 Mn 1.07860(8) 0.20631(10) 0.77516(8)
Mn6 Mn 1.07194(10) 0.26829(18) 0.12050(11)
O1 O 0.7613(3) 0.2364(4) 0.3681(3)
O2 O 0.6862(3) 0.2766(4) 0.2962(3)
O3 O 1.0836(7) 0.3817(6) 0.1209(8)
H1 H 1.0735 0.4183 0.1411
H2 H 1.1185 0.3927 0.0981
O4 O 0.7610(3) 0.2156(4) 0.5295(3)
O5 O 1.0885(6) 0.1011(6) 0.8087(6)
H3 H 1.0980 0.0718 0.7777
H4 H 1.1010 0.0716 0.8383
O6 O 0.6786(4) 0.2281(4) 0.6039(3)
O7 O 1.0747(6) 0.3132(6) 0.7365(6)
H5 H 1.0596 0.3468 0.7589
H6 H 1.0624 0.3280 0.6963
O8 O 0.8735(4) 0.3063(4) 0.1710(4)
O9 O 0.7263(3) 0.2263(3) 0.7500
H7 H 0.7204 0.1844 0.7541
O10 O 0.9760(5) 0.2855(7) 0.1371(5)
O11 O 0.8384(5) 0.3282(4) 0.4618(4)
H8 H 0.8173 0.3424 0.4258
H9 H 0.8225 0.3671 0.4681
O12 O 1.1078(3) 0.2258(3) 0.3434(3)
O13 O 0.7900(5) 0.3268(4) 0.6525(5)
H10 H 0.7577 0.3484 0.6706
H11 H 0.7948 0.3528 0.6172
O14 O 1.0974(4) 0.2567(5) 0.2301(4)
O15 O 1.0960(3) 0.1739(4) 0.6677(3)
O16 O 1.1052(3) 0.1767(3) 0.5514(3)
O17 O 0.9747(4) 0.1990(5) 0.7660(4)
O18 O 0.8673(3) 0.2112(4) 0.7373(3)
N1 N 0.5856(5) 0.2388(7) 0.5051(5)
N2 N 0.5477(4) 0.2498(8) 0.4473(5)
N3 N 0.5862(5) 0.2578(6) 0.3914(4)
N4 N 0.8895(4) 0.2540(4) 0.2966(4)
N5 N 0.9088(4) 0.2320(4) 0.3605(4)
N6 N 0.9747(4) 0.2262(4) 0.3629(4)
N7 N 0.8889(4) 0.2107(4) 0.6003(4)
N8 N 0.9095(4) 0.2062(4) 0.5344(4)
N9 N 0.9756(4) 0.1954(4) 0.5316(4)
N10 N 1.0694(5) 0.3092(5) 0.4699(5)
N11 N 1.0624(9) 0.3299(9) 0.5282(13)
N12 N 1.0566(15) 0.3542(12) 0.5956(14)
N13 N 1.0524(5) 0.1017(5) 0.4161(4)
N14 N 1.0306(13) 0.0861(11) 0.3473(19)
N15 N 1.0302(12) 0.0682(9) 0.2713(10)
C1 C 1.0718(5) 0.1800(5) 0.6076(5)
C2 C 1.0725(5) 0.2419(5) 0.2886(5)
C3 C 0.9442(5) 0.2012(5) 0.6428(5)
C4 C 0.7003(5) 0.2261(5) 0.5397(5)
C5 C 0.9996(5) 0.2445(5) 0.2988(5)
C6 C 0.9435(5) 0.2604(5) 0.2565(4)
C7 C 0.7039(5) 0.2531(5) 0.3562(5)
C8 C 0.9296(5) 0.2032(6) 0.7220(5)
C9 C 0.6503(5) 0.2355(6) 0.4829(5)
C10 C 0.9981(5) 0.1934(5) 0.5992(4)
C11 C 0.6503(5) 0.2484(6) 0.4123(5)
C12 C 0.9311(5) 0.2875(6) 0.1824(5)
O19 O 1.0626(9) 0.1802(13) 0.1240(7)
H7F H 0.6844 0.2204 0.7459
Mn1B Mn 1.21956(7) 0.21013(7) 0.34803(7)
Mn3B Mn 1.21578(7) 0.16469(6) 0.55409(7)
Mn4B Mn 1.20402(7) -0.05178(7) 0.55293(8)
Mn5B Mn 1.20631(10) -0.07860(8) 0.22484(8)
Mn6B Mn 1.26829(18) -0.07194(10) 0.87950(11)
O1B O 1.2364(4) 0.2387(3) 0.6319(3)
O2B O 1.2766(4) 0.3138(3) 0.7038(3)
O3B O 1.3817(6) -0.0836(7) 0.8791(8)
H1B H 1.4183 -0.0735 0.8589
H2B H 1.3927 -0.1185 0.9019
O4B O 1.2156(4) 0.2390(3) 0.4705(3)
O5B O 1.1011(6) -0.0885(6) 0.1913(6)
H3B H 1.0718 -0.0980 0.2223
H4B H 1.0716 -0.1010 0.1617
O6B O 1.2281(4) 0.3214(4) 0.3961(3)
O7B O 1.3132(6) -0.0747(6) 0.2635(6)
H5B H 1.3468 -0.0596 0.2411
H6B H 1.3280 -0.0624 0.3037
O8B O 1.3063(4) 0.1265(4) 0.8290(4)
O10B O 1.2855(7) 0.0240(5) 0.8629(5)
O11B O 1.3282(4) 0.1616(5) 0.5382(4)
H8B H 1.3424 0.1827 0.5742
H9B H 1.3671 0.1775 0.5319
O12B O 1.2258(3) -0.1078(3) 0.6566(3)
O13B O 1.3268(4) 0.2100(5) 0.3475(5)
H10B H 1.3484 0.2423 0.3294
H11B H 1.3528 0.2052 0.3828
O14B O 1.2567(5) -0.0974(4) 0.7699(4)
O15B O 1.1739(4) -0.0960(3) 0.3323(3)
O16B O 1.1767(3) -0.1052(3) 0.4486(3)
O17B O 1.1990(5) 0.0253(4) 0.2340(4)
O18B O 1.2112(4) 0.1327(3) 0.2627(3)
N1B N 1.2388(7) 0.4144(5) 0.4949(5)
N2B N 1.2498(8) 0.4523(4) 0.5527(5)
N3B N 1.2578(6) 0.4138(5) 0.6086(4)
N4B N 1.2540(4) 0.1105(4) 0.7034(4)
N5B N 1.2320(4) 0.0912(4) 0.6395(4)
N6B N 1.2262(4) 0.0253(4) 0.6371(4)
N7B N 1.2107(4) 0.1111(4) 0.3997(4)
N8B N 1.2062(4) 0.0905(4) 0.4656(4)
N9B N 1.1954(4) 0.0244(4) 0.4684(4)
N10B N 1.3092(5) -0.0694(5) 0.5301(5)
N11B N 1.3299(9) -0.0624(9) 0.4718(13)
N12B N 1.3542(12) -0.0566(15) 0.4044(14)
N13B N 1.1017(5) -0.0524(5) 0.5839(4)
N14B N 1.0861(11) -0.0306(13) 0.6527(19)
N15B N 1.0682(9) -0.0302(12) 0.7287(10)
C1B C 1.1800(5) -0.0718(5) 0.3924(5)
C2B C 1.2419(5) -0.0725(5) 0.7114(5)
C3B C 1.2012(5) 0.0558(5) 0.3572(5)
C4B C 1.2261(5) 0.2997(5) 0.4603(5)
C5B C 1.2445(5) 0.0004(5) 0.7012(5)
C6B C 1.2604(5) 0.0565(5) 0.7435(4)
C7B C 1.2531(5) 0.2961(5) 0.6438(5)
C8B C 1.2032(6) 0.0704(5) 0.2780(5)
C9B C 1.2355(6) 0.3497(5) 0.5171(5)
C10B C 1.1934(5) 0.0019(5) 0.4008(4)
C11B C 1.2484(6) 0.3497(5) 0.5877(5)
C12B C 1.2875(6) 0.0689(5) 0.8176(5)
O19B O 1.1802(13) -0.0626(9) 0.8760(7)
Mn1A Mn 1.21013(7) -0.21956(7) 0.65197(7)
Mn1F Mn 0.71956(7) 0.28987(7) 0.84803(7)
Mn2B Mn 1.29018(7) 0.20982(7) 0.7500
Mn3A Mn 1.16469(6) -0.21578(7) 0.44591(7)
Mn5D Mn 0.57860(8) 0.29369(10) 0.27516(8)
Mn5G Mn 1.29369(10) 0.42140(8) 0.72484(8)
Mn6D Mn 0.57194(10) 0.23171(18) 0.62050(11)
Mn6G Mn 1.23171(18) 0.42806(10) 0.37950(11)
O2D O 1.1862(3) 0.2234(4) 0.7962(3)
O2F O 0.7766(4) 0.1862(3) 0.2038(3)
O2G O 1.2234(4) -0.1862(3) 0.2038(3)
O6D O 1.1786(4) 0.2719(4) 0.1039(3)
O6G O 1.2719(4) -0.1786(4) 0.8961(3)
O8F O 0.8063(4) 0.3735(4) 0.3290(4)
O9B O 1.2263(3) 0.2737(3) 0.2500
O12C O 0.7742(3) 0.1078(3) 0.6566(3)
O16C O 0.8233(3) 0.1052(3) 0.4486(3)
N1D N 1.0856(5) 0.2612(7) 0.0051(5)
N1G N 1.2612(7) -0.0856(5) 0.9949(5)
N3D N 1.0862(5) 0.2422(6) 0.8914(4)
N3G N 1.2422(6) -0.0862(5) 0.1086(4)
N4F N 0.7540(4) 0.3895(4) 0.2034(4)
O20 O 0.4054(7) 0.2615(16) 0.4633(10)
H12 H 0.3985 0.2791 0.5037
H13 H 0.4463 0.2646 0.4520
O21 O 1.0000 -0.0000 0.5000
loop_
_geom_bond_atom_site_label_1
_geom_bond_atom_site_label_2
_geom_bond_site_symmetry_1
_geom_bond_site_symmetry_2
Mn1 O4 1_555 1_555
Mn2 O2 1_555 1_555
Mn3 O1 1_555 1_555
Mn4 O12 1_555 1_555
Mn5 O5 1_555 1_555
Mn6 O3 1_555 1_555
O1 C7 1_555 1_555
O2 C7 1_555 1_555
O3 H1 1_555 1_555
H2 O3 1_555 1_555
O4 Mn3 1_555 1_555
O5 H3 1_555 1_555
H4 O5 1_555 1_555
O6 Mn1 1_555 1_555
O7 Mn5 1_555 1_555
H5 O7 1_555 1_555
H6 O7 1_555 1_555
O8 Mn2 1_555 1_555
O9 Mn1 1_555 1_555
H7 O9 1_555 1_555
O10 Mn6 1_555 1_555
O11 Mn3 1_555 1_555
H8 O11 1_555 1_555
H9 O11 1_555 1_555
O12 C2 1_555 1_555
O13 Mn1 1_555 1_555
H10 O13 1_555 1_555
H11 O13 1_555 1_555
O14 Mn6 1_555 1_555
O15 Mn5 1_555 1_555
O16 Mn4 1_555 1_555
O17 Mn5 1_555 1_555
O18 Mn1 1_555 1_555
N1 N2 1_555 1_555
N2 N3 1_555 1_555
N3 C11 1_555 1_555
N4 Mn2 1_555 1_555
N5 Mn3 1_555 1_555
N6 Mn4 1_555 1_555
N7 Mn1 1_555 1_555
N8 Mn3 1_555 1_555
N9 Mn4 1_555 1_555
N10 Mn4 1_555 1_555
N11 N10 1_555 1_555
N12 N11 1_555 1_555
N13 Mn4 1_555 1_555
N14 N13 1_555 1_555
N15 N14 1_555 1_555
C1 O15 1_555 1_555
C2 O14 1_555 1_555
C3 N7 1_555 1_555
C4 O4 1_555 1_555
C5 N6 1_555 1_555
C6 N4 1_555 1_555
C7 C11 1_555 1_555
C8 O17 1_555 1_555
C9 N1 1_555 1_555
C10 N9 1_555 1_555
C11 C9 1_555 1_555
C12 O8 1_555 1_555
O19 Mn6 1_555 1_555
O20 H12 1_555 1_555
H13 O20 1_555 1_555
H7F O9 1_555 1_555
Mn1B O12 1_555 1_555
Mn3B O16 1_555 1_555
Mn4B O12B 1_555 1_555
Mn5B O5B 1_555 1_555
Mn6B O3B 1_555 1_555
O1B Mn3B 1_555 1_555
O2B C7B 1_555 1_555
O3B H1B 1_555 1_555
H2B O3B 1_555 1_555
O4B Mn1B 1_555 1_555
O5B H3B 1_555 1_555
H4B O5B 1_555 1_555
O6B Mn1B 1_555 1_555
O7B Mn5B 1_555 1_555
H5B O7B 1_555 1_555
H6B O7B 1_555 1_555
O8B C12B 1_555 1_555
O10B Mn6B 1_555 1_555
O11B Mn3B 1_555 1_555
H8B O11B 1_555 1_555
H9B O11B 1_555 1_555
O12B C2B 1_555 1_555
O13B Mn1B 1_555 1_555
H10B O13B 1_555 1_555
H11B O13B 1_555 1_555
O14B Mn6B 1_555 1_555
O15B Mn5B 1_555 1_555
O16B Mn4B 1_555 1_555
O17B Mn5B 1_555 1_555
O18B Mn1B 1_555 1_555
N1B N2B 1_555 1_555
N2B N3B 1_555 1_555
N3B C11B 1_555 1_555
N4B N5B 1_555 1_555
N5B Mn3B 1_555 1_555
N6B Mn4B 1_555 1_555
N7B Mn1B 1_555 1_555
N8B Mn3B 1_555 1_555
N9B Mn4B 1_555 1_555
N10B Mn4B 1_555 1_555
N11B N10B 1_555 1_555
N12B N11B 1_555 1_555
N13B Mn4B 1_555 1_555
N14B N13B 1_555 1_555
N15B N14B 1_555 1_555
C1B O15B 1_555 1_555
C2B O14B 1_555 1_555
C3B N7B 1_555 1_555
C4B O4B 1_555 1_555
C5B N6B 1_555 1_555
C6B N4B 1_555 1_555
C7B O1B 1_555 1_555
C8B O17B 1_555 1_555
C9B N1B 1_555 1_555
C10B N9B 1_555 1_555
C11B C7B 1_555 1_555
C12B O10B 1_555 1_555
O19B Mn6B 1_555 1_555
Mn1A O12B 1_555 1_555
Mn1F O9 1_555 1_555
Mn2B O2B 1_555 1_555
Mn3A O16B 1_555 1_555
Mn5D O2 1_555 1_555
Mn5G O2B 1_555 1_555
Mn6D O6 1_555 1_555
Mn6G O6B 1_555 1_555
O2D Mn5 1_555 1_555
O2F Mn2 1_555 1_555
O2G Mn5B 1_555 1_555
O6D Mn6 1_555 1_555
O6G Mn6B 1_555 1_555
O8F Mn2 1_555 1_555
O9B Mn1B 1_555 1_555
O12C Mn1 1_555 1_555
O16C Mn3 1_555 1_555
N1D Mn6 1_555 1_555
N1G Mn6B 1_555 1_555
N3D Mn5 1_555 1_555
N3G Mn5B 1_555 1_555
N4F Mn2 1_555 1_555
O6 C4 1_555 1_555
O10 C12 1_555 1_555
O16 C1 1_555 1_555
O18 C8 1_555 1_555
N1 Mn6D 1_555 1_555
N3 Mn5D 1_555 1_555
N4 N5 1_555 1_555
N5 N6 1_555 1_555
N7 N8 1_555 1_555
N8 N9 1_555 1_555
C1 C10 1_555 1_555
C2 C5 1_555 1_555
C3 C8 1_555 1_555
C3 C10 1_555 1_555
C4 C9 1_555 1_555
C5 C6 1_555 1_555
C6 C12 1_555 1_555
Mn3B O4B 1_555 1_555
O6B C4B 1_555 1_555
O8B Mn2B 1_555 1_555
O16B C1B 1_555 1_555
O18B C8B 1_555 1_555
N1B Mn6G 1_555 1_555
N3B Mn5G 1_555 1_555
N4B Mn2B 1_555 1_555
N5B N6B 1_555 1_555
N7B N8B 1_555 1_555
N8B N9B 1_555 1_555
C1B C10B 1_555 1_555
C2B C5B 1_555 1_555
C3B C8B 1_555 1_555
C3B C10B 1_555 1_555
C4B C9B 1_555 1_555
C5B C6B 1_555 1_555
C6B C12B 1_555 1_555
C9B C11B 1_555 1_555
Mn2B O2D 1_555 1_555

#END
