
#######################################################################
#
#                 Cambridge Crystallographic Data Centre
#                                CCDC 
#
#######################################################################
#
# If this CIF has been generated from an entry in the Cambridge 
# Structural Database, then it will include bibliographic, chemical, 
# crystal, experimental, refinement or atomic coordinate data resulting 
# from the CCDC's data processing and validation procedures.
#
#######################################################################

data_XUJCUB
_chemical_formula_moiety         '(C4 H10 Cl2 N2 Ni1)n'
_symmetry_cell_setting           monoclinic
_symmetry_space_group_name_H-M   'C 2/c'
_symmetry_Int_Tables_number      15
_space_group_name_Hall           '-C 2yc'
loop_
_symmetry_equiv_pos_site_id
_symmetry_equiv_pos_as_xyz
1 x,y,z
2 -x,y,1/2-z
3 1/2+x,1/2+y,z
4 1/2-x,1/2+y,1/2-z
5 -x,-y,-z
6 x,-y,1/2+z
7 1/2-x,1/2-y,-z
8 1/2+x,1/2-y,1/2+z
_cell_length_a                   9.2889(19)
_cell_length_b                   12.895(3)
_cell_length_c                   6.3072(13)
_cell_angle_alpha                90
_cell_angle_beta                 92.48(3)
_cell_angle_gamma                90
_cell_volume                     754.771
loop_
_atom_site_label
_atom_site_type_symbol
_atom_site_fract_x
_atom_site_fract_y
_atom_site_fract_z
Ni1 Ni 0.5000 0.42725(3) 0.2500
Cl1 Cl 0.64375(6) 0.43243(4) -0.06563(9)
N1 N 0.3557(2) 0.32809(16) 0.0778(3)
H1 H 0.360(3) 0.362(2) -0.035(4)
C1 C 0.2042(3) 0.3277(2) 0.1434(4)
H2 H 0.200(3) 0.290(2) 0.276(5)
H3 H 0.173(3) 0.398(2) 0.172(5)
C2 C 0.3968(3) 0.2203(2) 0.0256(4)
H4 H 0.494(3) 0.221(2) -0.026(5)
H5 H 0.393(3) 0.180(2) 0.155(5)
Ni1D Ni 0.5000 0.57275(3) -0.2500
Ni1F Ni 0.0000 0.07275(3) -0.2500
Ni1D_2 Ni 0.5000 0.57275(3) 0.7500
Cl1A Cl 0.35625(6) 0.43243(4) 0.56563(9)
Cl1D Cl 0.35625(6) 0.56757(4) 0.06563(9)
Cl1E Cl 0.64375(6) 0.56757(4) 0.43437(9)
N1F N 0.1443(2) 0.17191(16) -0.0778(3)
N1A N 0.6443(2) 0.32809(16) 0.4222(3)
H1F H 0.140(3) 0.138(2) 0.035(4)
H1A H 0.640(3) 0.362(2) 0.535(4)
C1F C 0.2958(3) 0.1723(2) -0.1434(4)
H2F H 0.300(3) 0.210(2) -0.276(5)
H3F H 0.327(3) 0.102(2) -0.172(5)
C2F C 0.1032(3) 0.2797(2) -0.0256(4)
H4F H 0.006(3) 0.279(2) 0.026(5)
H5F H 0.107(3) 0.320(2) -0.155(5)
loop_
_geom_bond_atom_site_label_1
_geom_bond_atom_site_label_2
_geom_bond_site_symmetry_1
_geom_bond_site_symmetry_2
Ni1 Cl1 1_555 1_555
Cl1 Ni1D 1_555 1_555
N1 Ni1 1_555 1_555
H1 N1 1_555 1_555
C1 N1 1_555 1_555
H2 C1 1_555 1_555
H3 C1 1_555 1_555
C2 N1 1_555 1_555
H4 C2 1_555 1_555
H5 C2 1_555 1_555
Ni1D Cl1D 1_555 1_555
Ni1F N1F 1_555 1_555
Ni1D_2 Cl1A 1_555 1_555
Cl1A Ni1 1_555 1_555
Cl1D Ni1 1_555 1_555
Cl1E Ni1 1_555 1_555
N1F H1F 1_555 1_555
N1A Ni1 1_555 1_555
H1A N1A 1_555 1_555
C1F C2 1_555 1_555
H2F C1F 1_555 1_555
H3F C1F 1_555 1_555
C2F C1 1_555 1_555
H4F C2F 1_555 1_555
H5F C2F 1_555 1_555
Ni1D_2 Cl1E 1_555 1_555
N1F C1F 1_555 1_555
N1F C2F 1_555 1_555

#END
