
#######################################################################
#
#                 Cambridge Crystallographic Data Centre
#                                CCDC 
#
#######################################################################
#
# If this CIF has been generated from an entry in the Cambridge 
# Structural Database, then it will include bibliographic, chemical, 
# crystal, experimental, refinement or atomic coordinate data resulting 
# from the CCDC's data processing and validation procedures.
#
#######################################################################

data_COTXIU
_chemical_formula_moiety         '(C54 H40 Cd1 Cl1 N12 O6 1+)n'
_symmetry_cell_setting           tetragonal
_symmetry_space_group_name_H-M   'P 43 21 2'
_symmetry_Int_Tables_number      96
_space_group_name_Hall           'P 4nw 2abw'
loop_
_symmetry_equiv_pos_site_id
_symmetry_equiv_pos_as_xyz
1 x,y,z
2 -x,-y,1/2+z
3 1/2-y,1/2+x,3/4+z
4 1/2+y,1/2-x,1/4+z
5 1/2-x,1/2+y,3/4-z
6 1/2+x,1/2-y,1/4-z
7 y,x,-z
8 -y,-x,1/2-z
_cell_length_a                   15.89830(10)
_cell_length_b                   15.89830(10)
_cell_length_c                   21.6675(7)
_cell_angle_alpha                90
_cell_angle_beta                 90
_cell_angle_gamma                90
_cell_volume                     5476.59
loop_
_atom_site_label
_atom_site_type_symbol
_atom_site_fract_x
_atom_site_fract_y
_atom_site_fract_z
C25 C 0.0749(7) 0.5059(7) 1.0613(6)
C26 C 0.1296(8) 0.4452(9) 1.0307(10)
H19 H 0.1760 0.4237 1.0515
C27 C 0.1138(9) 0.4201(11) 0.9730(10)
H20 H 0.1497 0.3816 0.9544
C28 C 0.0401(9) 0.4521(9) 0.9380(6)
C29 C -0.0148(7) 0.5136(8) 0.9692(7)
H21 H -0.0612 0.5355 0.9485
C30 C 0.0018(6) 0.5380(7) 1.0269(7)
H22 H -0.0340 0.5764 1.0459
O1 O 0.0982(6) 0.5223(7) 1.1133(6)
O2 O 0.0153(10) 0.4358(9) 0.8852(6)
Cl1 Cl 0.37992(9) 0.37992(9) 1.0000
O3 O 0.3267(8) 0.4009(7) 0.9500(5)
O4 O 0.4542(7) 0.4078(10) 0.9744(7)
O3F O 0.4009(7) 0.3267(8) 1.0500(5)
O4F O 0.4078(10) 0.4542(7) 1.0256(7)
C1 C 0.7425(3) 0.5383(3) 0.2870(2)
H1 H 0.7372 0.5082 0.3235
C2 C 0.8082(3) 0.5958(3) 0.2821(2)
H2 H 0.8451 0.6033 0.3150
C3 C 0.8186(3) 0.6418(3) 0.2282(2)
C4 C 0.7619(3) 0.6240(3) 0.1802(2)
H3 H 0.7673 0.6510 0.1423
C5 C 0.6983(3) 0.5662(3) 0.1895(2)
H4 H 0.6612 0.5560 0.1572
C6 C 0.8836(3) 0.7085(3) 0.2222(2)
C7 C 0.9540(3) 0.7100(3) 0.2601(3)
H5 H 0.9613 0.6680 0.2896
C8 C 1.0139(3) 0.7737(4) 0.2546(3)
H6 H 1.0613 0.7736 0.2799
C9 C 1.0030(3) 0.8367(3) 0.2119(2)
H7 H 1.0433 0.8787 0.2081
C10 C 0.9327(3) 0.8381(2) 0.17473(19)
C11 C 0.8739(3) 0.7730(3) 0.1791(2)
H8 H 0.8276 0.7727 0.1529
C12 C 0.9235(2) 0.9073(2) 0.13003(18)
C13 C 0.8719(2) 1.0026(2) 0.06773(18)
C14 C 0.8096(2) 1.0577(3) 0.03761(19)
C15 C 0.7788(3) 1.0422(3) -0.0220(2)
H9 H 0.7973 0.9958 -0.0443
C16 C 0.7207(3) 1.0968(4) -0.0470(2)
H10 H 0.7015 1.0879 -0.0870
C17 C 0.6904(3) 1.1648(3) -0.0136(2)
H11 H 0.6503 1.2000 -0.0311
C18 C 0.7192(3) 1.1807(3) 0.04579(19)
C19 C 0.7798(3) 1.1259(3) 0.0704(2)
H12 H 0.8004 1.1358 0.1099
C20 C 0.6885(3) 1.2531(3) 0.0828(2)
C21 C 0.6150(3) 1.2979(3) 0.0683(2)
H13 H 0.5858 1.2863 0.0321
C22 C 0.5864(3) 1.3595(3) 0.1085(2)
H14 H 0.5376 1.3883 0.0980
C23 C 0.6983(3) 1.3415(3) 0.1731(2)
H15 H 0.7282 1.3575 0.2080
C24 C 0.7313(3) 1.2797(3) 0.1359(2)
H16 H 0.7826 1.2552 0.1460
Cd1 Cd 1.058775(16) 1.058775(16) 0.0000
N1 N 0.6868(2) 0.5241(2) 0.24230(18)
N2 N 0.9876(2) 0.9467(2) 0.10489(17)
N3 N 0.9548(2) 1.0076(2) 0.06595(17)
N4 N 0.85036(19) 0.9401(2) 0.10774(16)
N5 N 0.7685(2) 0.9170(3) 0.1257(2)
H17 H 0.7434 0.8884 0.0951
H18 H 0.7590 0.9662 0.1412
N6 N 0.6242(2) 1.3801(2) 0.16108(16)
C1F C 0.5383(3) 0.7425(3) -0.2870(2)
H1F H 0.5082 0.7372 -0.3235
C2F C 0.5958(3) 0.8082(3) -0.2821(2)
H2F H 0.6033 0.8451 -0.3150
C3F C 0.6418(3) 0.8186(3) -0.2282(2)
C4F C 0.6240(3) 0.7619(3) -0.1802(2)
H3F H 0.6510 0.7673 -0.1423
C5F C 0.5662(3) 0.6983(3) -0.1895(2)
H4F H 0.5560 0.6612 -0.1572
C6F C 0.7085(3) 0.8836(3) -0.2222(2)
C7F C 0.7100(3) 0.9540(3) -0.2601(3)
H5F H 0.6680 0.9613 -0.2896
C8F C 0.7737(4) 1.0139(3) -0.2546(3)
H6F H 0.7736 1.0613 -0.2799
C9F C 0.8367(3) 1.0030(3) -0.2119(2)
H7F H 0.8787 1.0433 -0.2081
C10F C 0.8381(2) 0.9327(3) -0.17473(19)
C11F C 0.7730(3) 0.8739(3) -0.1791(2)
H8F H 0.7727 0.8276 -0.1529
C12F C 0.9073(2) 0.9235(2) -0.13003(18)
C13F C 1.0026(2) 0.8719(2) -0.06773(18)
C14F C 1.0577(3) 0.8096(2) -0.03761(19)
C15F C 1.0422(3) 0.7788(3) 0.0220(2)
H9F H 0.9958 0.7973 0.0443
C16F C 1.0968(4) 0.7207(3) 0.0470(2)
H10F H 1.0879 0.7015 0.0870
C17F C 1.1648(3) 0.6904(3) 0.0136(2)
H11F H 1.2000 0.6503 0.0311
C18F C 1.1807(3) 0.7192(3) -0.04579(19)
C19F C 1.1259(3) 0.7798(3) -0.0704(2)
H12F H 1.1358 0.8004 -0.1099
C20F C 1.2531(3) 0.6885(3) -0.0828(2)
C21F C 1.2979(3) 0.6150(3) -0.0683(2)
H13F H 1.2863 0.5858 -0.0321
C22F C 1.3595(3) 0.5864(3) -0.1085(2)
H14F H 1.3883 0.5376 -0.0980
C23F C 1.3415(3) 0.6983(3) -0.1731(2)
H15F H 1.3575 0.7282 -0.2080
C24F C 1.2797(3) 0.7313(3) -0.1359(2)
H16F H 1.2552 0.7826 -0.1460
N1F N 0.5241(2) 0.6868(2) -0.24230(18)
N2F N 0.9467(2) 0.9876(2) -0.10489(17)
N3F N 1.0076(2) 0.9548(2) -0.06595(17)
N4F N 0.9401(2) 0.85036(19) -0.10774(16)
N5F N 0.9170(3) 0.7685(2) -0.1257(2)
H17F H 0.8884 0.7434 -0.0951
H18F H 0.9662 0.7590 -0.1412
N6F N 1.3801(2) 0.6242(2) -0.16108(16)
Cd1B Cd 0.441225(16) 0.558775(16) -0.2500
Cd1B_2 Cd 1.441225(16) 0.558775(16) -0.2500
Cd1C Cd 0.558775(16) 0.441225(16) 0.2500
Cd1C_2 Cd 0.558775(16) 1.441225(16) 0.2500
N1B N 0.9759(2) 1.1868(2) -0.00770(18)
N1E N 1.1868(2) 0.9759(2) 0.00770(18)
N6B N 1.1199(2) 1.1242(2) -0.08892(16)
N6E N 1.1242(2) 1.1199(2) 0.08892(16)
loop_
_geom_bond_atom_site_label_1
_geom_bond_atom_site_label_2
_geom_bond_site_symmetry_1
_geom_bond_site_symmetry_2
C1 H1 1_555 1_555
C2 C1 1_555 1_555
H2 C2 1_555 1_555
C3 C2 1_555 1_555
C4 C3 1_555 1_555
H3 C4 1_555 1_555
C5 C4 1_555 1_555
H4 C5 1_555 1_555
C6 C3 1_555 1_555
C7 C6 1_555 1_555
H5 C7 1_555 1_555
C8 C7 1_555 1_555
H6 C8 1_555 1_555
C9 C8 1_555 1_555
H7 C9 1_555 1_555
C10 C9 1_555 1_555
C11 C6 1_555 1_555
H8 C11 1_555 1_555
C12 C10 1_555 1_555
C13 C14 1_555 1_555
C14 C15 1_555 1_555
C15 H9 1_555 1_555
C16 C15 1_555 1_555
H10 C16 1_555 1_555
C17 C16 1_555 1_555
H11 C17 1_555 1_555
C18 C17 1_555 1_555
C19 C14 1_555 1_555
H12 C19 1_555 1_555
C20 C18 1_555 1_555
C21 C20 1_555 1_555
H13 C21 1_555 1_555
C22 C21 1_555 1_555
H14 C22 1_555 1_555
C23 H15 1_555 1_555
C24 C20 1_555 1_555
H16 C24 1_555 1_555
Cd1 N3 1_555 1_555
N1 C1 1_555 1_555
N2 C12 1_555 1_555
N3 C13 1_555 1_555
N4 C12 1_555 1_555
N5 N4 1_555 1_555
H17 N5 1_555 1_555
H18 N5 1_555 1_555
N6 C22 1_555 1_555
C25 C26 1_555 1_555
C26 H19 1_555 1_555
C27 C26 1_555 1_555
H20 C27 1_555 1_555
C28 C27 1_555 1_555
C29 C28 1_555 1_555
H21 C29 1_555 1_555
C30 C25 1_555 1_555
H22 C30 1_555 1_555
O1 C25 1_555 1_555
O2 C28 1_555 1_555
Cl1 O3 1_555 1_555
O4 Cl1 1_555 1_555
C1F H1F 1_555 1_555
C2F C1F 1_555 1_555
H2F C2F 1_555 1_555
C3F C2F 1_555 1_555
C4F C3F 1_555 1_555
H3F C4F 1_555 1_555
C5F C4F 1_555 1_555
H4F C5F 1_555 1_555
C6F C3F 1_555 1_555
C7F C6F 1_555 1_555
H5F C7F 1_555 1_555
C8F C7F 1_555 1_555
H6F C8F 1_555 1_555
C9F C8F 1_555 1_555
H7F C9F 1_555 1_555
C10F C9F 1_555 1_555
C11F C6F 1_555 1_555
H8F C11F 1_555 1_555
C12F C10F 1_555 1_555
C13F C14F 1_555 1_555
C14F C15F 1_555 1_555
C15F H9F 1_555 1_555
C16F C15F 1_555 1_555
H10F C16F 1_555 1_555
C17F C16F 1_555 1_555
H11F C17F 1_555 1_555
C18F C17F 1_555 1_555
C19F C14F 1_555 1_555
H12F C19F 1_555 1_555
C20F C18F 1_555 1_555
C21F C20F 1_555 1_555
H13F C21F 1_555 1_555
C22F C21F 1_555 1_555
H14F C22F 1_555 1_555
C23F H15F 1_555 1_555
C24F C20F 1_555 1_555
H16F C24F 1_555 1_555
N1F C1F 1_555 1_555
N2F C12F 1_555 1_555
N3F Cd1 1_555 1_555
N4F C12F 1_555 1_555
N5F N4F 1_555 1_555
H17F N5F 1_555 1_555
H18F N5F 1_555 1_555
N6F C22F 1_555 1_555
Cd1B N1F 1_555 1_555
Cd1B_2 N6F 1_555 1_555
Cd1C N1 1_555 1_555
Cd1C_2 N6 1_555 1_555
N1B Cd1 1_555 1_555
N1E Cd1 1_555 1_555
N6B Cd1 1_555 1_555
N6E Cd1 1_555 1_555
O3F Cl1 1_555 1_555
O4F Cl1 1_555 1_555
C5 N1 1_555 1_555
C10 C11 1_555 1_555
C13 N4 1_555 1_555
C18 C19 1_555 1_555
C23 C24 1_555 1_555
C23 N6 1_555 1_555
N2 N3 1_555 1_555
C29 C30 1_555 1_555
C5F N1F 1_555 1_555
C10F C11F 1_555 1_555
C13F N3F 1_555 1_555
C13F N4F 1_555 1_555
C18F C19F 1_555 1_555
C23F C24F 1_555 1_555
C23F N6F 1_555 1_555
N2F N3F 1_555 1_555

#END
