
#######################################################################
#
#                 Cambridge Crystallographic Data Centre
#                                CCDC 
#
#######################################################################
#
# If this CIF has been generated from an entry in the Cambridge 
# Structural Database, then it will include bibliographic, chemical, 
# crystal, experimental, refinement or atomic coordinate data resulting 
# from the CCDC's data processing and validation procedures.
#
#######################################################################

data_COTXOA
_chemical_formula_moiety         '(C54 H42 Cd1 Cl1 N12 O6 1+)n'
_symmetry_cell_setting           tetragonal
_symmetry_space_group_name_H-M   'P 41 21 2'
_symmetry_Int_Tables_number      92
_space_group_name_Hall           'P 4abw 2nw'
loop_
_symmetry_equiv_pos_site_id
_symmetry_equiv_pos_as_xyz
1 x,y,z
2 1/2-y,1/2+x,1/4+z
3 1/2+x,1/2-y,3/4-z
4 -x,-y,1/2+z
5 -y,-x,1/2-z
6 y,x,-z
7 1/2+y,1/2-x,3/4+z
8 1/2-x,1/2+y,1/4-z
_cell_length_a                   15.90821(18)
_cell_length_b                   15.90821(18)
_cell_length_c                   21.6184(4)
_cell_angle_alpha                90
_cell_angle_beta                 90
_cell_angle_gamma                90
_cell_volume                     5470.99
loop_
_atom_site_label
_atom_site_type_symbol
_atom_site_fract_x
_atom_site_fract_y
_atom_site_fract_z
Cl1 Cl 0.12069(11) 0.87931(11) 0.2500
O1 O 0.1001(6) 0.8232(6) 0.2977(4)
O2 O 0.1346(8) 0.9441(6) 0.2902(4)
O1D O 0.1768(6) 0.8999(6) 0.2023(4)
O2D O 0.0559(6) 0.8654(8) 0.2098(4)
C25 C 0.4932(8) 0.9319(8) 0.5587(7)
H19 H 0.4856 0.9201 0.6005
C26 C 0.4537(8) 1.0014(8) 0.5288(7)
H20 H 0.4191 1.0364 0.5520
C27 C 0.4647(8) 1.0184(8) 0.4679(7)
C28 C 0.5176(10) 0.9653(10) 0.4316(7)
H21 H 0.5255 0.9763 0.3897
C29 C 0.5567(11) 0.8978(11) 0.4588(8)
H22 H 0.5915 0.8626 0.4359
C30 C 0.5434(9) 0.8835(9) 0.5210(8)
O3 O 0.4224(13) 1.0907(11) 0.4385(11)
H23 H 0.4472 1.1340 0.4480
O4 O 0.5837(12) 0.8115(11) 0.5509(10)
H24 H 0.5678 0.7680 0.5344
C1 C 0.9134(3) 0.8594(3) 0.3588(2)
H1 H 0.9623 0.8880 0.3481
C2 C 0.8845(3) 0.7978(3) 0.3189(2)
H2 H 0.9140 0.7857 0.2828
C3 C 0.8108(3) 0.7537(3) 0.3328(2)
C4 C 0.7681(3) 0.7809(3) 0.3856(2)
H3 H 0.7165 0.7572 0.3956
C5 C 0.8013(3) 0.8420(3) 0.4228(2)
H4 H 0.7712 0.8581 0.4577
C6 C 0.7800(3) 0.6815(3) 0.2959(2)
C7 C 0.8095(3) 0.6651(3) 0.2365(2)
H5 H 0.8497 0.7004 0.2190
C8 C 0.7799(4) 0.5973(4) 0.2032(2)
H6 H 0.7997 0.5880 0.1633
C9 C 0.7209(3) 0.5428(4) 0.2285(2)
H7 H 0.7022 0.4964 0.2063
C10 C 0.6902(3) 0.5588(3) 0.28779(18)
C11 C 0.7198(3) 0.6269(3) 0.32052(19)
H8 H 0.6993 0.6368 0.3601
C12 C 0.6272(3) 0.5033(3) 0.31857(18)
C13 C 0.5767(3) 0.4083(3) 0.38105(18)
C14 C 0.5687(3) 0.3389(3) 0.42555(19)
C15 C 0.4970(4) 0.3370(4) 0.4630(2)
H9 H 0.4567 0.3790 0.4595
C16 C 0.4862(3) 0.2732(4) 0.5051(3)
H10 H 0.4388 0.2729 0.5304
C17 C 0.5450(3) 0.2089(3) 0.5106(3)
H11 H 0.5373 0.1665 0.5396
C18 C 0.6167(3) 0.2084(3) 0.4717(2)
C19 C 0.6271(3) 0.2732(3) 0.4296(2)
H12 H 0.6736 0.2732 0.4036
C20 C 0.6813(3) 0.1427(3) 0.4779(2)
C21 C 0.6909(3) 0.0950(3) 0.5318(2)
H13 H 0.6535 0.1017 0.5644
C22 C 0.7564(3) 0.0376(3) 0.5364(2)
H14 H 0.7611 0.0066 0.5727
C23 C 0.8027(3) 0.0670(3) 0.4394(2)
H15 H 0.8404 0.0575 0.4072
C24 C 0.7389(3) 0.1248(3) 0.4303(2)
H16 H 0.7341 0.1522 0.3925
Cd1 Cd 0.441149(18) 0.558851(18) 0.2500
N1 N 0.8756(2) 0.8802(3) 0.41147(16)
N2 N 0.5456(2) 0.5077(2) 0.31612(17)
N3 N 0.5127(2) 0.4468(3) 0.35555(17)
N4 N 0.6493(2) 0.4422(3) 0.35865(16)
N5 N 0.7316(3) 0.4214(3) 0.3783(2)
H17 H 0.7760 0.4533 0.3770
H18 H 0.7581 0.3913 0.3499
N6 N 0.8130(2) 0.0241(2) 0.49202(17)
C1D C 0.1406(3) 0.0866(3) 0.1412(2)
H1D H 0.1120 0.0377 0.1519
C2D C 0.2022(3) 0.1155(3) 0.1811(2)
H2D H 0.2143 0.0860 0.2172
C3D C 0.2463(3) 0.1892(3) 0.1672(2)
C4D C 0.2191(3) 0.2319(3) 0.1144(2)
H3D H 0.2428 0.2835 0.1044
C5D C 0.1580(3) 0.1987(3) 0.0772(2)
H4D H 0.1419 0.2288 0.0423
C6D C 0.3185(3) 0.2200(3) 0.2041(2)
C7D C 0.3349(3) 0.1905(3) 0.2635(2)
H5D H 0.2996 0.1503 0.2810
C8D C 0.4027(4) 0.2201(4) 0.2968(2)
H6D H 0.4120 0.2003 0.3367
C9D C 0.4572(4) 0.2791(3) 0.2715(2)
H7D H 0.5036 0.2978 0.2937
C10D C 0.4412(3) 0.3098(3) 0.21221(18)
C11D C 0.3731(3) 0.2802(3) 0.17948(19)
H8D H 0.3632 0.3007 0.1399
C12D C 0.4967(3) 0.3728(3) 0.18143(18)
C13D C 0.5917(3) 0.4233(3) 0.11895(18)
C14D C 0.6611(3) 0.4313(3) 0.07445(19)
C15D C 0.6630(4) 0.5030(4) 0.0370(2)
H9D H 0.6210 0.5433 0.0405
C16D C 0.7268(4) 0.5138(3) -0.0051(3)
H10D H 0.7271 0.5612 -0.0304
C17D C 0.7911(3) 0.4550(3) -0.0106(3)
H11D H 0.8335 0.4627 -0.0396
C18D C 0.7916(3) 0.3833(3) 0.0283(2)
C19D C 0.7268(3) 0.3729(3) 0.0704(2)
H12D H 0.7268 0.3264 0.0964
C20D C 0.8573(3) 0.3187(3) 0.0221(2)
C21D C 0.9050(3) 0.3091(3) -0.0318(2)
H13D H 0.8983 0.3465 -0.0644
C22D C 0.9624(3) 0.2436(3) -0.0364(2)
H14D H 0.9934 0.2389 -0.0727
C23D C 0.9330(3) 0.1973(3) 0.0606(2)
H15D H 0.9425 0.1596 0.0928
C24D C 0.8752(3) 0.2611(3) 0.0697(2)
H16D H 0.8478 0.2659 0.1075
N1D N 0.1198(3) 0.1244(2) 0.08853(16)
N2D N 0.4923(2) 0.4544(2) 0.18388(17)
N3D N 0.5532(3) 0.4873(2) 0.14445(17)
N4D N 0.5578(3) 0.3507(2) 0.14135(16)
N5D N 0.5786(3) 0.2684(3) 0.1217(2)
H17D H 0.5467 0.2240 0.1230
H18D H 0.6087 0.2419 0.1501
N6D N 0.9759(2) 0.1870(2) 0.00798(17)
Cd1A Cd 0.941149(18) -0.058851(18) 0.5000
Cd1A_2 Cd 0.941149(18) 0.941149(18) 0.5000
Cd1F Cd 0.058851(18) 0.058851(18) 0.0000
Cd1F_2 Cd 1.058851(18) 0.058851(18) 0.0000
N1B N 0.3756(2) 0.6198(3) 0.33853(16)
N1F N 0.3802(3) 0.6244(2) 0.16147(16)
N6B N 0.3130(2) 0.4759(2) 0.25798(17)
N6F N 0.5241(2) 0.6870(2) 0.24202(17)
loop_
_geom_bond_atom_site_label_1
_geom_bond_atom_site_label_2
_geom_bond_site_symmetry_1
_geom_bond_site_symmetry_2
C1 H1 1_555 1_555
C2 C1 1_555 1_555
H2 C2 1_555 1_555
C3 C2 1_555 1_555
C4 C3 1_555 1_555
H3 C4 1_555 1_555
C5 C4 1_555 1_555
H4 C5 1_555 1_555
C6 C3 1_555 1_555
C7 C6 1_555 1_555
H5 C7 1_555 1_555
C8 C7 1_555 1_555
H6 C8 1_555 1_555
C9 C8 1_555 1_555
H7 C9 1_555 1_555
C10 C9 1_555 1_555
C11 C6 1_555 1_555
H8 C11 1_555 1_555
C12 C10 1_555 1_555
C13 C14 1_555 1_555
C14 C15 1_555 1_555
C15 H9 1_555 1_555
C16 C15 1_555 1_555
H10 C16 1_555 1_555
C17 C16 1_555 1_555
H11 C17 1_555 1_555
C18 C17 1_555 1_555
C19 C14 1_555 1_555
H12 C19 1_555 1_555
C20 C18 1_555 1_555
C21 C20 1_555 1_555
H13 C21 1_555 1_555
C22 C21 1_555 1_555
H14 C22 1_555 1_555
C23 H15 1_555 1_555
C24 C20 1_555 1_555
H16 C24 1_555 1_555
Cd1 N2 1_555 1_555
N1 C1 1_555 1_555
N2 C12 1_555 1_555
N3 C13 1_555 1_555
N4 C12 1_555 1_555
N5 N4 1_555 1_555
H17 N5 1_555 1_555
H18 N5 1_555 1_555
N6 C22 1_555 1_555
Cl1 O1 1_555 1_555
O2 Cl1 1_555 1_555
C25 H19 1_555 1_555
C26 C25 1_555 1_555
H20 C26 1_555 1_555
C27 C26 1_555 1_555
C28 C27 1_555 1_555
H21 C28 1_555 1_555
C29 C28 1_555 1_555
H22 C29 1_555 1_555
C30 C25 1_555 1_555
O3 C27 1_555 1_555
H23 O3 1_555 1_555
O4 C30 1_555 1_555
H24 O4 1_555 1_555
C1D H1D 1_555 1_555
C2D C1D 1_555 1_555
H2D C2D 1_555 1_555
C3D C2D 1_555 1_555
C4D C3D 1_555 1_555
H3D C4D 1_555 1_555
C5D C4D 1_555 1_555
H4D C5D 1_555 1_555
C6D C3D 1_555 1_555
C7D C6D 1_555 1_555
H5D C7D 1_555 1_555
C8D C7D 1_555 1_555
H6D C8D 1_555 1_555
C9D C8D 1_555 1_555
H7D C9D 1_555 1_555
C10D C9D 1_555 1_555
C11D C6D 1_555 1_555
H8D C11D 1_555 1_555
C12D C10D 1_555 1_555
C13D C14D 1_555 1_555
C14D C15D 1_555 1_555
C15D H9D 1_555 1_555
C16D C15D 1_555 1_555
H10D C16D 1_555 1_555
C17D C16D 1_555 1_555
H11D C17D 1_555 1_555
C18D C17D 1_555 1_555
C19D C14D 1_555 1_555
H12D C19D 1_555 1_555
C20D C18D 1_555 1_555
C21D C20D 1_555 1_555
H13D C21D 1_555 1_555
C22D C21D 1_555 1_555
H14D C22D 1_555 1_555
C23D H15D 1_555 1_555
C24D C20D 1_555 1_555
H16D C24D 1_555 1_555
N1D C1D 1_555 1_555
N2D Cd1 1_555 1_555
N3D C13D 1_555 1_555
N4D C12D 1_555 1_555
N5D N4D 1_555 1_555
H17D N5D 1_555 1_555
H18D N5D 1_555 1_555
N6D C22D 1_555 1_555
Cd1A N6 1_555 1_555
Cd1A_2 N1 1_555 1_555
Cd1F N1D 1_555 1_555
Cd1F_2 N6D 1_555 1_555
N1B Cd1 1_555 1_555
N1F Cd1 1_555 1_555
N6B Cd1 1_555 1_555
N6F Cd1 1_555 1_555
O1D Cl1 1_555 1_555
O2D Cl1 1_555 1_555
C5 N1 1_555 1_555
C10 C11 1_555 1_555
C13 N4 1_555 1_555
C18 C19 1_555 1_555
C23 C24 1_555 1_555
C23 N6 1_555 1_555
N2 N3 1_555 1_555
C29 C30 1_555 1_555
C5D N1D 1_555 1_555
C10D C11D 1_555 1_555
C12D N2D 1_555 1_555
C13D N4D 1_555 1_555
C18D C19D 1_555 1_555
C23D C24D 1_555 1_555
C23D N6D 1_555 1_555
N2D N3D 1_555 1_555

#END
