
#######################################################################
#
#                 Cambridge Crystallographic Data Centre
#                                CCDC 
#
#######################################################################
#
# If this CIF has been generated from an entry in the Cambridge 
# Structural Database, then it will include bibliographic, chemical, 
# crystal, experimental, refinement or atomic coordinate data resulting 
# from the CCDC's data processing and validation procedures.
#
#######################################################################

data_COTXEQ
_chemical_formula_moiety         '(C54 H40 Cd1 Cl1 N12 O6 1+)n'
_symmetry_cell_setting           tetragonal
_symmetry_space_group_name_H-M   'P 43 21 2'
_symmetry_Int_Tables_number      96
_space_group_name_Hall           'P 4nw 2abw'
loop_
_symmetry_equiv_pos_site_id
_symmetry_equiv_pos_as_xyz
1 x,y,z
2 1/2-y,1/2+x,3/4+z
3 1/2+x,1/2-y,1/4-z
4 -x,-y,1/2+z
5 -y,-x,1/2-z
6 y,x,-z
7 1/2+y,1/2-x,1/4+z
8 1/2-x,1/2+y,3/4-z
_cell_length_a                   15.8664(4)
_cell_length_b                   15.8664(4)
_cell_length_c                   21.7986(13)
_cell_angle_alpha                90
_cell_angle_beta                 90
_cell_angle_gamma                90
_cell_volume                     5487.64
loop_
_atom_site_label
_atom_site_type_symbol
_atom_site_fract_x
_atom_site_fract_y
_atom_site_fract_z
C1 C 0.7560(3) 0.9629(3) 0.7862(2)
H1 H 0.7603 0.9941 0.8222
C2 C 0.6913(3) 0.9045(3) 0.7816(2)
H2 H 0.6543 0.8969 0.8142
C3 C 0.6815(3) 0.8568(3) 0.7281(2)
C4 C 0.7383(3) 0.8753(3) 0.6802(2)
H3 H 0.7334 0.8480 0.6427
C5 C 0.8014(3) 0.9341(3) 0.6893(2)
H4 H 0.8383 0.9447 0.6571
C6 C 0.6164(3) 0.7904(3) 0.7226(2)
C7 C 0.5472(3) 0.7854(3) 0.7620(2)
H5 H 0.5404 0.8259 0.7925
C8 C 0.4890(3) 0.7215(4) 0.7566(3)
H6 H 0.4427 0.7203 0.7828
C9 C 0.4983(4) 0.6593(3) 0.7128(2)
H7 H 0.4580 0.6171 0.7090
C10 C 0.5688(3) 0.6600(3) 0.6742(2)
C11 C 0.6269(3) 0.7258(3) 0.6789(2)
H8 H 0.6733 0.7270 0.6528
C12 C 0.5768(3) 0.5917(3) 0.62934(19)
C13 C 0.6285(3) 0.4972(3) 0.56697(18)
C14 C 0.6911(3) 0.4412(3) 0.53705(19)
C15 C 0.7217(3) 0.4573(3) 0.4779(2)
H9 H 0.7031 0.5039 0.4559
C16 C 0.7807(4) 0.4019(4) 0.4526(2)
H10 H 0.8003 0.4109 0.4130
C17 C 0.8103(3) 0.3337(3) 0.4861(2)
H11 H 0.8494 0.2974 0.4686
C18 C 0.7820(3) 0.3190(3) 0.5457(2)
C19 C 0.7207(3) 0.3741(3) 0.5697(2)
H12 H 0.6999 0.3644 0.6090
C20 C 0.8123(3) 0.2468(3) 0.5828(2)
C21 C 0.7693(3) 0.2211(3) 0.6354(2)
H13 H 0.7180 0.2458 0.6455
C22 C 0.8027(3) 0.1594(3) 0.6724(2)
H14 H 0.7724 0.1434 0.7070
C23 C 0.9150(3) 0.1398(3) 0.6089(2)
H15 H 0.9636 0.1103 0.5984
C24 C 0.8858(3) 0.2021(3) 0.5688(2)
H16 H 0.9152 0.2138 0.5329
Cd1 Cd 0.440916(18) 0.440916(18) 0.5000
N1 N 0.8126(2) 0.9768(2) 0.74193(19)
N2 N 0.5129(2) 0.5523(3) 0.60443(18)
N3 N 0.5458(2) 0.4922(2) 0.56505(17)
N4 N 0.6501(2) 0.5588(3) 0.60694(17)
N5 N 0.7327(3) 0.5816(3) 0.6248(2)
N6 N 0.8768(2) 0.1205(2) 0.66150(16)
H17 H 0.7612 0.5334 0.6208
H18 H 0.7419 0.6150 0.5910
C1E C 0.9629(3) 0.7560(3) 0.2138(2)
H1E H 0.9941 0.7603 0.1778
C2E C 0.9045(3) 0.6913(3) 0.2184(2)
H2E H 0.8969 0.6543 0.1858
C3E C 0.8568(3) 0.6815(3) 0.2719(2)
C4E C 0.8753(3) 0.7383(3) 0.3198(2)
H3E H 0.8480 0.7334 0.3573
C5E C 0.9341(3) 0.8014(3) 0.3107(2)
H4E H 0.9447 0.8383 0.3429
C6E C 0.7904(3) 0.6164(3) 0.2774(2)
C7E C 0.7854(3) 0.5472(3) 0.2380(2)
H5E H 0.8259 0.5404 0.2075
C8E C 0.7215(4) 0.4890(3) 0.2434(3)
H6E H 0.7203 0.4427 0.2172
C9E C 0.6593(3) 0.4983(4) 0.2872(2)
H7E H 0.6171 0.4580 0.2910
C10E C 0.6600(3) 0.5688(3) 0.3258(2)
C11E C 0.7258(3) 0.6269(3) 0.3211(2)
H8E H 0.7270 0.6733 0.3472
C12E C 0.5917(3) 0.5768(3) 0.37066(19)
C13E C 0.4972(3) 0.6285(3) 0.43303(18)
C14E C 0.4412(3) 0.6911(3) 0.46295(19)
C15E C 0.4573(3) 0.7217(3) 0.5221(2)
H9E H 0.5039 0.7031 0.5441
C16E C 0.4019(4) 0.7807(4) 0.5474(2)
H10E H 0.4109 0.8003 0.5870
C17E C 0.3337(3) 0.8103(3) 0.5139(2)
H11E H 0.2974 0.8494 0.5314
C18E C 0.3190(3) 0.7820(3) 0.4543(2)
C19E C 0.3741(3) 0.7207(3) 0.4303(2)
H12E H 0.3644 0.6999 0.3910
C20E C 0.2468(3) 0.8123(3) 0.4172(2)
C21E C 0.2211(3) 0.7693(3) 0.3646(2)
H13E H 0.2458 0.7180 0.3545
C22E C 0.1594(3) 0.8027(3) 0.3276(2)
H14E H 0.1434 0.7724 0.2930
C23E C 0.1398(3) 0.9150(3) 0.3911(2)
H15E H 0.1103 0.9636 0.4016
C24E C 0.2021(3) 0.8858(3) 0.4312(2)
H16E H 0.2138 0.9152 0.4671
N1E N 0.9768(2) 0.8126(2) 0.25807(19)
N2E N 0.5523(3) 0.5129(2) 0.39557(18)
N3E N 0.4922(2) 0.5458(2) 0.43495(17)
N4E N 0.5588(3) 0.6501(2) 0.39306(17)
N5E N 0.5816(3) 0.7327(3) 0.3752(2)
N6E N 0.1205(2) 0.8768(2) 0.33850(16)
H17E H 0.5334 0.7612 0.3792
H18E H 0.6150 0.7419 0.4090
Cd1A Cd 0.059084(18) 0.940916(18) 0.2500
Cd1A_2 Cd 1.059084(18) 0.940916(18) 0.2500
Cd1B Cd 0.940916(18) 0.059084(18) 0.7500
Cd1B_2 Cd 0.940916(18) 1.059084(18) 0.7500
N1A N 0.5232(2) 0.3126(2) 0.49193(19)
N1B N 0.3126(2) 0.5232(2) 0.50807(19)
N6A N 0.3795(2) 0.3768(2) 0.41150(16)
N6B N 0.3768(2) 0.3795(2) 0.58850(16)
C25 C 0.4974(6) 0.0837(5) 0.8096(3)
C26 C 0.4692(6) 0.0056(5) 0.7782(4)
H19 H 0.4321 -0.0315 0.7973
C27 C 0.5524(7) 0.1438(5) 0.7779(5)
H20 H 0.5685 0.1943 0.7961
O1 O 0.4787(5) 0.0992(5) 0.8619(4)
C28 C 0.4976(6) -0.0098(5) 0.7231(4)
H21 H 0.4786 -0.0581 0.7033
C29 C 0.5579(6) 0.0447(5) 0.6902(3)
C30 C 0.5783(6) 0.1231(6) 0.7224(5)
H22 H 0.6124 0.1616 0.7019
O2 O 0.5858(6) 0.0266(6) 0.6409(4)
Cl1 Cl 0.61996(9) 0.38004(9) 0.7500
O3 O 0.6386(7) 0.4496(6) 0.7142(4)
O4 O 0.5989(5) 0.3251(6) 0.6974(4)
O3D O 0.5504(6) 0.3614(7) 0.7858(4)
O4D O 0.6749(6) 0.4011(5) 0.8026(4)
loop_
_geom_bond_atom_site_label_1
_geom_bond_atom_site_label_2
_geom_bond_site_symmetry_1
_geom_bond_site_symmetry_2
C1 H1 1_555 1_555
C2 C1 1_555 1_555
H2 C2 1_555 1_555
C3 C2 1_555 1_555
C4 C3 1_555 1_555
H3 C4 1_555 1_555
C5 C4 1_555 1_555
H4 C5 1_555 1_555
C6 C3 1_555 1_555
C7 C6 1_555 1_555
H5 C7 1_555 1_555
C8 C7 1_555 1_555
H6 C8 1_555 1_555
C9 C8 1_555 1_555
H7 C9 1_555 1_555
C10 C9 1_555 1_555
C11 C6 1_555 1_555
H8 C11 1_555 1_555
C12 C10 1_555 1_555
C13 C14 1_555 1_555
C14 C15 1_555 1_555
C15 H9 1_555 1_555
C16 C15 1_555 1_555
H10 C16 1_555 1_555
C17 C16 1_555 1_555
H11 C17 1_555 1_555
C18 C17 1_555 1_555
C19 C14 1_555 1_555
H12 C19 1_555 1_555
C20 C18 1_555 1_555
C21 C20 1_555 1_555
H13 C21 1_555 1_555
C22 C21 1_555 1_555
H14 C22 1_555 1_555
C23 H15 1_555 1_555
C24 C20 1_555 1_555
H16 C24 1_555 1_555
Cd1 N3 1_555 1_555
N1 C1 1_555 1_555
N2 C12 1_555 1_555
N3 C13 1_555 1_555
N4 C12 1_555 1_555
N5 N4 1_555 1_555
N6 C22 1_555 1_555
H17 N5 1_555 1_555
H18 N5 1_555 1_555
C25 C26 1_555 1_555
C26 H19 1_555 1_555
C27 C25 1_555 1_555
H20 C27 1_555 1_555
O1 C25 1_555 1_555
C28 C26 1_555 1_555
H21 C28 1_555 1_555
C29 C28 1_555 1_555
C30 C27 1_555 1_555
H22 C30 1_555 1_555
O2 C29 1_555 1_555
Cl1 O3 1_555 1_555
O4 Cl1 1_555 1_555
C1E H1E 1_555 1_555
C2E C1E 1_555 1_555
H2E C2E 1_555 1_555
C3E C2E 1_555 1_555
C4E C3E 1_555 1_555
H3E C4E 1_555 1_555
C5E C4E 1_555 1_555
H4E C5E 1_555 1_555
C6E C3E 1_555 1_555
C7E C6E 1_555 1_555
H5E C7E 1_555 1_555
C8E C7E 1_555 1_555
H6E C8E 1_555 1_555
C9E C8E 1_555 1_555
H7E C9E 1_555 1_555
C10E C9E 1_555 1_555
C11E C6E 1_555 1_555
H8E C11E 1_555 1_555
C12E C10E 1_555 1_555
C13E C14E 1_555 1_555
C14E C15E 1_555 1_555
C15E H9E 1_555 1_555
C16E C15E 1_555 1_555
H10E C16E 1_555 1_555
C17E C16E 1_555 1_555
H11E C17E 1_555 1_555
C18E C17E 1_555 1_555
C19E C14E 1_555 1_555
H12E C19E 1_555 1_555
C20E C18E 1_555 1_555
C21E C20E 1_555 1_555
H13E C21E 1_555 1_555
C22E C21E 1_555 1_555
H14E C22E 1_555 1_555
C23E H15E 1_555 1_555
C24E C20E 1_555 1_555
H16E C24E 1_555 1_555
N1E C1E 1_555 1_555
N2E C12E 1_555 1_555
N3E Cd1 1_555 1_555
N4E C12E 1_555 1_555
N5E N4E 1_555 1_555
N6E C22E 1_555 1_555
H17E N5E 1_555 1_555
H18E N5E 1_555 1_555
Cd1A N6E 1_555 1_555
Cd1A_2 N1E 1_555 1_555
Cd1B N6 1_555 1_555
Cd1B_2 N1 1_555 1_555
N1A Cd1 1_555 1_555
N1B Cd1 1_555 1_555
N6A Cd1 1_555 1_555
N6B Cd1 1_555 1_555
O3D Cl1 1_555 1_555
O4D Cl1 1_555 1_555
C5 N1 1_555 1_555
C10 C11 1_555 1_555
C13 N4 1_555 1_555
C18 C19 1_555 1_555
C23 C24 1_555 1_555
C23 N6 1_555 1_555
N2 N3 1_555 1_555
C29 C30 1_555 1_555
C5E N1E 1_555 1_555
C10E C11E 1_555 1_555
C13E N3E 1_555 1_555
C13E N4E 1_555 1_555
C18E C19E 1_555 1_555
C23E C24E 1_555 1_555
C23E N6E 1_555 1_555
N2E N3E 1_555 1_555

#END
