
#######################################################################
#
#                 Cambridge Crystallographic Data Centre
#                                CCDC 
#
#######################################################################
#
# If this CIF has been generated from an entry in the Cambridge 
# Structural Database, then it will include bibliographic, chemical, 
# crystal, experimental, refinement or atomic coordinate data resulting 
# from the CCDC's data processing and validation procedures.
#
#######################################################################

data_LAHYOL
_chemical_formula_moiety         '(C104 H78 Ba5 O25)n'
_symmetry_cell_setting           triclinic
_symmetry_space_group_name_H-M   'P -1'
_symmetry_Int_Tables_number      2
_space_group_name_Hall           '-P 1'
loop_
_symmetry_equiv_pos_site_id
_symmetry_equiv_pos_as_xyz
1 x,y,z
2 -x,-y,-z
_cell_length_a                   10.8177(3)
_cell_length_b                   19.8483(6)
_cell_length_c                   25.8687(5)
_cell_angle_alpha                101.117(2)
_cell_angle_beta                 101.1081(18)
_cell_angle_gamma                94.827(2)
_cell_volume                     5305.41
loop_
_atom_site_label
_atom_site_type_symbol
_atom_site_fract_x
_atom_site_fract_y
_atom_site_fract_z
Ba1 Ba 0.82653(11) 0.18894(6) 0.28947(4)
Ba2 Ba 0.53567(11) 0.29864(6) 0.19253(5)
Ba3 Ba 0.46462(12) 0.20723(7) 0.34293(5)
Ba4 Ba 0.93015(12) -0.63601(6) 0.22817(5)
O1 O 0.9233(15) 0.2158(8) 0.3974(6)
O2 O 0.8936(14) 0.2153(8) 0.1937(6)
O3 O 0.5979(15) -0.1795(8) -0.2194(6)
O4 O 0.7120(16) -0.2892(8) -0.1609(7)
O5 O 0.7915(15) 0.0626(8) 0.3174(6)
O6 O 0.6823(15) 0.2002(8) 0.1815(6)
O7 O 0.8082(15) 0.0455(8) 0.2299(7)
O8 O 0.9508(15) -0.1459(8) 0.7088(6)
C1 C 0.514(2) -0.1349(13) -0.2215(10)
O9 O 0.7165(15) 0.2252(8) 0.3809(6)
C2 C 0.785(2) 0.1891(11) 0.1663(9)
O10 O 0.5706(15) 0.3085(8) 0.3009(6)
O11 O 0.7713(15) 0.3292(8) 0.2905(6)
O12 O 0.8981(16) -0.3170(8) -0.1752(7)
O13 O 0.5886(16) -0.5597(8) 0.2227(7)
O14 O 0.7516(15) -0.1195(8) 0.6985(6)
O15 O 0.9360(15) 0.7059(8) 0.7058(7)
C3 C 0.856(2) -0.1180(12) 0.6867(9)
O16 O 0.5536(16) -0.6944(9) 0.0882(7)
C4 C 0.889(2) 0.1889(13) 0.6767(10)
H1 H 0.9077 0.2100 0.7132
C5 C 0.880(2) 0.1376(12) 0.4767(9)
H2 H 0.9552 0.1368 0.4647
O17 O 0.4291(16) -0.1397(8) -0.2624(7)
O18 O 0.7388(17) -0.6617(9) 0.1462(7)
O19 O 0.7308(15) 0.7198(8) 0.6912(7)
O20 O 0.8009(17) -0.5273(9) 0.2488(7)
C6 C 0.817(2) 0.2086(12) 0.4088(10)
C7 C 0.827(2) 0.6934(13) 0.6769(10)
C8 C 0.659(2) -0.5450(13) -0.0028(10)
O21 O 1.1501(17) -0.5435(9) 0.2707(7)
H3 H 1.2340 -0.5552 0.2909
H4 H 1.1601 -0.4923 0.2688
C9 C 0.881(2) 0.6788(13) 0.4961(10)
H5 H 0.8944 0.7105 0.5288
C10 C 1.025(2) -0.2278(13) 0.1652(10)
H6 H 1.0845 -0.2076 0.1496
O22 O 0.9693(17) -0.5152(9) 0.1846(7)
H7 H 1.0329 -0.4808 0.1982
H8 H 0.9197 -0.5063 0.1555
C11 C 0.675(2) -0.5405(13) -0.1449(10)
H9 H 0.6792 -0.5091 -0.1671
C12 C 0.616(2) -0.0691(11) -0.1302(9)
H10 H 0.6840 -0.0943 -0.1338
C13 C 0.628(2) -0.0177(11) -0.0791(9)
C14 C 0.802(2) -0.3266(12) -0.1561(10)
C15 C 0.666(2) -0.4721(13) 0.0193(10)
C16 C 0.834(2) 0.0098(13) 0.5899(10)
C17 C 0.777(2) 0.1410(11) 0.1125(9)
H11 H 0.8499 0.1239 0.1047
C18 C 0.663(2) -0.6599(13) 0.1032(11)
C19 C 0.688(2) -0.4221(13) -0.0116(10)
C20 C 0.844(2) 0.0237(13) 0.4974(10)
C21 C 0.708(2) -0.0231(11) 0.0693(9)
H12 H 0.7215 0.0060 0.1031
C22 C 0.896(2) 0.2268(13) 0.6438(10)
H13 H 0.9059 0.2746 0.6560
C23 C 0.704(2) -0.3899(13) -0.0963(10)
H14 H 0.6475 -0.3574 -0.0944
C24 C 0.863(2) 0.0950(13) 0.5149(10)
C25 C 0.787(2) -0.1205(13) 0.4605(10)
H15 H 0.7668 -0.1680 0.4478
C26 C 0.618(2) 0.0968(11) -0.0235(9)
C27 C 0.798(2) 0.0251(12) 0.2726(10)
C28 C 0.672(2) -0.2067(13) 0.2547(10)
C29 C 0.682(2) 0.3390(12) 0.3169(10)
C30 C 0.693(3) -0.5157(14) 0.2347(11)
C31 C 0.943(2) -0.1908(13) 0.1849(10)
H16 H 0.9446 -0.1449 0.1816
C32 C 0.521(2) -0.0812(11) -0.1693(9)
H17 H 0.4523 -0.0566 -0.1662
C33 C 0.608(2) 0.0507(11) -0.0761(9)
C34 C 0.678(2) -0.5159(13) -0.0891(10)
C35 C 0.798(2) 0.1779(12) 0.4568(10)
H18 H 0.7291 0.1874 0.4725
C36 C 0.852(2) 0.6544(13) 0.3992(10)
H19 H 0.8464 0.6713 0.3678
C37 C 0.850(2) -0.2889(13) 0.2146(10)
C38 C 0.799(2) -0.0504(12) 0.2726(10)
H20 H 0.8229 -0.0627 0.3057
C39 C 0.853(2) 0.4829(13) 0.5881(10)
H21 H 0.8655 0.5134 0.6213
C40 C 0.704(2) -0.1356(12) 0.0148(9)
H22 H 0.7144 -0.1820 0.0130
C41 C 0.718(2) -0.0914(11) 0.0647(9)
H23 H 0.7339 -0.1092 0.0957
C42 C 0.767(2) -0.1015(12) 0.2284(10)
H24 H 0.7454 -0.0903 0.1948
C43 C 0.632(2) -0.5969(13) 0.0273(10)
H25 H 0.5577 -0.6273 0.0131
C44 C 0.676(2) -0.1124(11) -0.0306(9)
H26 H 0.6674 -0.1434 -0.0634
C45 C 0.763(2) -0.3180(13) 0.2405(10)
C46 C 0.487(2) -0.1999(13) 0.2958(10)
H27 H 0.4230 -0.1752 0.3062
C47 C 0.792(2) -0.3832(13) -0.1275(10)
H28 H 0.8478 -0.4162 -0.1307
C48 C 0.651(2) -0.4475(13) 0.0750(10)
H29 H 0.6356 -0.4796 0.0956
C49 C 0.865(2) 0.6058(13) 0.4954(10)
C50 C 0.824(2) -0.0193(13) 0.5345(10)
C51 C 0.577(2) 0.0802(11) -0.1235(9)
H30 H 0.5730 0.0523 -0.1572
C52 C 0.799(2) 0.6477(13) 0.6219(10)
H31 H 0.7150 0.6309 0.6057
C53 C 0.669(2) -0.5643(13) -0.0567(10)
C54 C 0.705(2) -0.3491(13) 0.0146(10)
H32 H 0.7254 -0.3157 -0.0042
C55 C 0.853(2) 0.0836(13) 0.6088(10)
C56 C 0.660(2) -0.0430(11) -0.0306(9)
C57 C 0.877(2) 0.7021(13) 0.4498(10)
H33 H 0.8905 0.7494 0.4512
C58 C 0.765(2) -0.3917(13) 0.2456(10)
H34 H 0.8426 -0.4029 0.2624
C59 C 0.656(2) 0.0725(11) 0.0230(9)
C60 C 0.851(2) -0.2171(13) 0.2109(10)
C61 C 0.832(2) -0.0094(13) 0.4408(10)
H35 H 0.8416 0.0176 0.4158
C62 C 1.021(2) -0.3000(13) 0.1680(10)
H36 H 1.0739 -0.3277 0.1515
C63 C 0.819(2) 0.3895(13) 0.4888(10)
H37 H 0.8127 0.3577 0.4566
C64 C 0.864(2) 0.1256(13) 0.5683(10)
C65 C 0.765(2) -0.1765(13) 0.2316(10)
C66 C 0.666(2) -0.6113(13) -0.1666(11)
H38 H 0.6622 -0.6268 -0.2033
C67 C 0.883(2) -0.0775(12) 0.6446(9)
H39 H 0.9508 -0.0869 0.6283
C68 C 0.865(2) 0.5814(13) 0.5428(10)
C69 C 0.807(2) -0.0779(13) 0.4249(10)
H40 H 0.8035 -0.0981 0.3890
C70 C 0.941(2) -0.3263(13) 0.1950(10)
H41 H 0.9461 -0.3709 0.2007
C71 C 0.849(2) 0.5078(13) 0.5404(10)
C72 C 0.677(2) 0.0040(11) 0.0215(9)
C73 C 0.671(2) -0.2782(13) 0.2597(10)
C74 C 0.856(2) 0.1163(13) 0.6628(10)
H42 H 0.8376 0.0914 0.6878
C75 C 0.661(2) -0.3799(13) 0.0964(11)
H43 H 0.6478 -0.3656 0.1311
C76 C 0.669(2) 0.1220(11) 0.0757(9)
H44 H 0.5964 0.1406 0.0833
C77 C 0.816(2) -0.0317(12) 0.6311(9)
H45 H 0.7501 -0.0230 0.6486
C78 C 0.841(2) 0.5574(13) 0.4432(10)
C79 C 0.671(3) -0.4424(13) 0.2292(10)
H46 H 0.5906 -0.4334 0.2141
C80 C 0.691(2) -0.3292(13) 0.0665(10)
H47 H 0.7009 -0.2823 0.0826
C81 C 0.588(2) 0.1668(11) -0.0229(9)
H48 H 0.5902 0.1964 0.0100
C82 C 0.694(2) -0.4438(13) -0.0662(10)
C83 C 0.825(2) 0.4873(13) 0.4411(10)
C84 C 0.576(2) -0.1697(13) 0.2724(10)
H49 H 0.5729 -0.1243 0.2682
C85 C 0.829(2) 0.4614(13) 0.4883(10)
C86 C 0.554(2) 0.1458(11) -0.1205(9)
H50 H 0.5362 0.1628 -0.1519
C87 C 0.835(2) 0.5843(13) 0.3955(10)
H51 H 0.8209 0.5542 0.3620
C88 C 0.840(2) 0.4141(13) 0.5846(10)
H52 H 0.8434 0.3974 0.6160
C89 C 0.796(2) -0.0922(13) 0.5143(10)
H53 H 0.7844 -0.1210 0.5378
C90 C 0.557(2) 0.1901(12) -0.0696(9)
H54 H 0.5370 0.2351 -0.0682
C91 C 0.890(2) 0.6295(13) 0.5944(10)
H55 H 0.9738 0.6491 0.6097
C92 C 0.492(2) -0.2676(13) 0.3038(10)
H56 H 0.4327 -0.2879 0.3196
C93 C 0.709(2) 0.3879(12) 0.3693(10)
H57 H 0.6524 0.3836 0.3915
C94 C 0.587(2) -0.3038(13) 0.2880(10)
H58 H 0.5945 -0.3468 0.2966
C95 C 0.807(2) 0.4378(12) 0.3887(10)
H59 H 0.8676 0.4418 0.3680
C96 C 0.820(2) 0.3661(13) 0.5344(10)
H60 H 0.8072 0.3188 0.5330
C97 C 0.703(2) -0.6056(13) 0.0733(10)
H61 H 0.7792 -0.5773 0.0878
C98 C 0.890(2) 0.2004(13) 0.5903(10)
H62 H 0.9017 0.2302 0.5676
C99 C 0.667(2) -0.6375(13) -0.0805(10)
H63 H 0.6686 -0.6698 -0.0588
C100 C 0.664(2) -0.6588(13) -0.1334(10)
H64 H 0.6600 -0.7057 -0.1480
O23 O 0.5694(15) 0.0746(8) 0.3597(7)
H65 H 0.6499(18) 0.076(2) 0.367(7)
C101 C 0.515(2) 0.0062(12) 0.3451(10)
H66 H 0.5212 -0.0246 0.3682
C102 C 0.440(2) -0.0130(13) 0.2837(10)
H67 H 0.4965 -0.0021 0.2611
H68 H 0.3697 0.0130 0.2793
H69 H 0.4103 -0.0616 0.2738
Ba5 Ba 1.14841(10) 0.19282(6) 0.21056(4)
O24 O 1.0920(15) 0.1514(9) 0.0998(7)
H70 H 1.0995 0.1048 0.0792
H71 H 1.0610 0.1808 0.0742
O25 O 1.0021(15) 0.0625(8) 0.1778(7)
H72 H 0.929(10) 0.053(3) 0.184(9)
C103 C 1.046(2) -0.0000(12) 0.1543(10)
H73 H 1.0812 0.0081 0.1240
H74 H 0.9731 -0.0354 0.1402
C104 C 1.144(2) -0.0275(13) 0.1918(10)
H75 H 1.2162 -0.0347 0.1760
H76 H 1.1081 -0.0707 0.1977
H77 H 1.1693 0.0052 0.2256
Ba1A Ba 0.17347(11) -0.18894(6) -0.28947(4)
Ba1A_2 Ba 1.17347(11) -0.18894(6) 0.71053(4)
Ba1A_3 Ba 1.17347(11) 0.81106(6) 0.71053(4)
Ba2_2 Ba 0.53567(11) -0.70136(6) 0.19253(5)
Ba2A Ba 0.46433(11) -0.29864(6) -0.19253(5)
Ba3A Ba 0.53538(12) -0.20723(7) -0.34293(5)
Ba3A_2 Ba 0.53538(12) -0.20723(7) 0.65707(5)
Ba3A_3 Ba 0.53538(12) 0.79277(7) 0.65707(5)
Ba4_2 Ba 0.93015(12) 0.36399(6) 0.22817(5)
Ba4A Ba 1.06985(12) -0.36399(6) -0.22817(5)
Ba4A_2 Ba 1.06985(12) 0.63601(6) 0.77183(5)
O2_2 O 0.8936(14) -0.7847(8) 0.1937(6)
O3A O 0.4021(15) 0.1795(8) 0.2194(6)
O3A_2 O 1.4021(15) 0.1795(8) 0.2194(6)
O4A O 0.2880(16) 0.2892(8) 0.1609(7)
O4A_2 O 1.2880(16) 0.2892(8) 0.1609(7)
O8A O 1.0492(15) 0.1459(8) 0.2912(6)
O11_2 O 0.7713(15) -0.6708(8) 0.2905(6)
O12A O 1.1019(16) -0.6830(8) 0.1752(7)
O12A_2 O 1.1019(16) 0.3170(8) 0.1752(7)
O13_2 O 0.5886(16) 0.4403(8) 0.2227(7)
O14A O 0.2484(15) 0.1195(8) 0.3015(6)
O14A_2 O 1.2484(15) 0.1195(8) 0.3015(6)
O15A O 1.0640(15) -0.7059(8) 0.2942(7)
O15A_2 O 1.0640(15) 0.2941(8) 0.2942(7)
O16_2 O 0.5536(16) 0.3056(9) 0.0882(7)
O17A O 0.5709(16) 0.1397(8) 0.2624(7)
O18_2 O 0.7388(17) 0.3383(9) 0.1462(7)
O19A O 0.2692(15) 0.2802(8) 0.3088(7)
O19A_2 O 1.2692(15) 0.2802(8) 0.3088(7)
Ba5A Ba 0.85159(10) -0.19282(6) -0.21056(4)
Ba5A_2 Ba 0.85159(10) -0.19282(6) 0.78944(4)
Ba5A_3 Ba 0.85159(10) 0.80718(6) 0.78944(4)
loop_
_geom_bond_atom_site_label_1
_geom_bond_atom_site_label_2
_geom_bond_site_symmetry_1
_geom_bond_site_symmetry_2
Ba1 O1 1_555 1_555
Ba2 O6 1_555 1_555
Ba3 O9 1_555 1_555
Ba4 O18 1_555 1_555
O1 C6 1_555 1_555
O2 Ba1 1_555 1_555
O3 C1 1_555 1_555
O4 C14 1_555 1_555
O5 Ba1 1_555 1_555
O6 Ba1 1_555 1_555
O7 Ba1 1_555 1_555
O8 C3 1_555 1_555
C1 O17 1_555 1_555
O9 Ba1 1_555 1_555
C2 O2 1_555 1_555
O10 Ba2 1_555 1_555
O11 Ba1 1_555 1_555
O12 C14 1_555 1_555
O13 C30 1_555 1_555
O14 C3 1_555 1_555
O15 C7 1_555 1_555
C3 C67 1_555 1_555
O16 C18 1_555 1_555
C4 H1 1_555 1_555
C5 H2 1_555 1_555
O17 Ba1A 1_555 1_555
O18 C18 1_555 1_555
O19 C7 1_555 1_555
O20 Ba4 1_555 1_555
C6 O9 1_555 1_555
C7 C52 1_555 1_555
C8 C15 1_555 1_555
O21 Ba4 1_555 1_555
H3 O21 1_555 1_555
H4 O21 1_555 1_555
C9 H5 1_555 1_555
C10 H6 1_555 1_555
O22 Ba4 1_555 1_555
H7 O22 1_555 1_555
H8 O22 1_555 1_555
C11 H9 1_555 1_555
C12 H10 1_555 1_555
C13 C12 1_555 1_555
C14 C47 1_555 1_555
C15 C19 1_555 1_555
C16 C50 1_555 1_555
C17 C2 1_555 1_555
H11 C17 1_555 1_555
C18 C97 1_555 1_555
C19 C54 1_555 1_555
C20 C24 1_555 1_555
C21 H12 1_555 1_555
C22 C4 1_555 1_555
H13 C22 1_555 1_555
C23 H14 1_555 1_555
C24 C5 1_555 1_555
C25 H15 1_555 1_555
C26 C33 1_555 1_555
C27 O5 1_555 1_555
C28 C65 1_555 1_555
C29 O10 1_555 1_555
C30 O20 1_555 1_555
C31 C10 1_555 1_555
H16 C31 1_555 1_555
C32 C1 1_555 1_555
H17 C32 1_555 1_555
C33 C13 1_555 1_555
C34 C11 1_555 1_555
C35 C5 1_555 1_555
H18 C35 1_555 1_555
C36 H19 1_555 1_555
C37 C45 1_555 1_555
C38 C27 1_555 1_555
H20 C38 1_555 1_555
C39 H21 1_555 1_555
C40 H22 1_555 1_555
C41 C21 1_555 1_555
H23 C41 1_555 1_555
C42 C38 1_555 1_555
H24 C42 1_555 1_555
C43 C8 1_555 1_555
H25 C43 1_555 1_555
C44 C40 1_555 1_555
H26 C44 1_555 1_555
C45 C58 1_555 1_555
C46 H27 1_555 1_555
C47 C23 1_555 1_555
H28 C47 1_555 1_555
C48 C15 1_555 1_555
H29 C48 1_555 1_555
C49 C9 1_555 1_555
C50 C20 1_555 1_555
C51 C33 1_555 1_555
H30 C51 1_555 1_555
C52 H31 1_555 1_555
C53 C8 1_555 1_555
C54 H32 1_555 1_555
C55 C16 1_555 1_555
C56 C13 1_555 1_555
C57 C9 1_555 1_555
H33 C57 1_555 1_555
C58 H34 1_555 1_555
C59 C26 1_555 1_555
C60 C31 1_555 1_555
C61 C20 1_555 1_555
H35 C61 1_555 1_555
C62 C10 1_555 1_555
H36 C62 1_555 1_555
C63 H37 1_555 1_555
C64 C24 1_555 1_555
C65 C42 1_555 1_555
C66 C11 1_555 1_555
H38 C66 1_555 1_555
C67 H39 1_555 1_555
C68 C49 1_555 1_555
C69 C25 1_555 1_555
H40 C69 1_555 1_555
C70 C37 1_555 1_555
H41 C70 1_555 1_555
C71 C39 1_555 1_555
C72 C21 1_555 1_555
C73 C28 1_555 1_555
C74 C4 1_555 1_555
H42 C74 1_555 1_555
C75 C48 1_555 1_555
H43 C75 1_555 1_555
C76 C17 1_555 1_555
H44 C76 1_555 1_555
C77 C16 1_555 1_555
H45 C77 1_555 1_555
C78 C49 1_555 1_555
C79 C30 1_555 1_555
H46 C79 1_555 1_555
C80 C54 1_555 1_555
H47 C80 1_555 1_555
C81 C26 1_555 1_555
H48 C81 1_555 1_555
C82 C19 1_555 1_555
C83 C78 1_555 1_555
C84 C28 1_555 1_555
H49 C84 1_555 1_555
C85 C63 1_555 1_555
C86 C51 1_555 1_555
H50 C86 1_555 1_555
C87 C36 1_555 1_555
H51 C87 1_555 1_555
C88 C39 1_555 1_555
H52 C88 1_555 1_555
C89 C25 1_555 1_555
H53 C89 1_555 1_555
C90 C81 1_555 1_555
H54 C90 1_555 1_555
C91 C52 1_555 1_555
H55 C91 1_555 1_555
C92 C46 1_555 1_555
H56 C92 1_555 1_555
C93 C29 1_555 1_555
H57 C93 1_555 1_555
C94 C73 1_555 1_555
H58 C94 1_555 1_555
C95 C83 1_555 1_555
H59 C95 1_555 1_555
C96 C63 1_555 1_555
H60 C96 1_555 1_555
C97 C43 1_555 1_555
H61 C97 1_555 1_555
C98 C22 1_555 1_555
H62 C98 1_555 1_555
C99 C53 1_555 1_555
H63 C99 1_555 1_555
C100 C66 1_555 1_555
H64 C100 1_555 1_555
O23 Ba3 1_555 1_555
H65 O23 1_555 1_555
C101 O23 1_555 1_555
H66 C101 1_555 1_555
C102 C101 1_555 1_555
H67 C102 1_555 1_555
H68 C102 1_555 1_555
H69 C102 1_555 1_555
Ba5 O2 1_555 1_555
O24 Ba5 1_555 1_555
H70 O24 1_555 1_555
H71 O24 1_555 1_555
O25 Ba5 1_555 1_555
H72 O25 1_555 1_555
C103 O25 1_555 1_555
H73 C103 1_555 1_555
H74 C103 1_555 1_555
C104 C103 1_555 1_555
H75 C104 1_555 1_555
H76 C104 1_555 1_555
H77 C104 1_555 1_555
Ba1A_2 O8 1_555 1_555
Ba1A_3 O15 1_555 1_555
Ba2_2 O13 1_555 1_555
Ba2A O3 1_555 1_555
Ba3A O3 1_555 1_555
Ba3A_2 O14 1_555 1_555
Ba3A_3 O19 1_555 1_555
Ba4_2 O2 1_555 1_555
Ba4A O12 1_555 1_555
Ba4A_2 O15 1_555 1_555
O2_2 Ba4 1_555 1_555
O3A Ba2 1_555 1_555
O3A_2 Ba5 1_555 1_555
O4A Ba2 1_555 1_555
O4A_2 Ba5 1_555 1_555
O8A Ba1 1_555 1_555
O11_2 Ba4 1_555 1_555
O12A Ba4 1_555 1_555
O12A_2 Ba5 1_555 1_555
O13_2 Ba2 1_555 1_555
O14A Ba3 1_555 1_555
O14A_2 Ba5 1_555 1_555
O15A Ba4 1_555 1_555
O15A_2 Ba1 1_555 1_555
O16_2 Ba2 1_555 1_555
O17A Ba1 1_555 1_555
O18_2 Ba2 1_555 1_555
O19A Ba3 1_555 1_555
O19A_2 Ba5 1_555 1_555
Ba5A O3 1_555 1_555
Ba5A_2 O8 1_555 1_555
Ba5A_3 O15 1_555 1_555
Ba2 O11 1_555 1_555
Ba3 O10 1_555 1_555
Ba3 O3A 1_555 1_555
Ba3 O17A 1_555 1_555
O4 Ba2A 1_555 1_555
O4 Ba5A 1_555 1_555
O6 C2 1_555 1_555
O7 C27 1_555 1_555
O11 C29 1_555 1_555
O11 Ba4_2 1_555 1_555
O12 Ba5A 1_555 1_555
O14 Ba5A_2 1_555 1_555
O16 Ba2_2 1_555 1_555
O17 Ba3A 1_555 1_555
O18 Ba2_2 1_555 1_555
O19 Ba5A_3 1_555 1_555
C6 C35 1_555 1_555
C12 C32 1_555 1_555
C23 C82 1_555 1_555
C34 C53 1_555 1_555
C34 C82 1_555 1_555
C36 C57 1_555 1_555
C37 C60 1_555 1_555
C40 C41 1_555 1_555
C44 C56 1_555 1_555
C45 C73 1_555 1_555
C46 C84 1_555 1_555
C50 C89 1_555 1_555
C55 C64 1_555 1_555
C55 C74 1_555 1_555
C56 C72 1_555 1_555
C58 C79 1_555 1_555
C59 C72 1_555 1_555
C59 C76 1_555 1_555
C60 C65 1_555 1_555
C61 C69 1_555 1_555
C62 C70 1_555 1_555
C64 C98 1_555 1_555
C67 C77 1_555 1_555
C68 C71 1_555 1_555
C68 C91 1_555 1_555
C71 C85 1_555 1_555
C75 C80 1_555 1_555
C78 C87 1_555 1_555
C83 C85 1_555 1_555
C86 C90 1_555 1_555
C88 C96 1_555 1_555
C92 C94 1_555 1_555
C93 C95 1_555 1_555
C99 C100 1_555 1_555
Ba5 O8A 1_555 1_555
Ba5 O15A_2 1_555 1_555
Ba2_2 O11_2 1_555 1_555
Ba4_2 O12A_2 1_555 1_555
Ba4_2 O15A_2 1_555 1_555
Ba4_2 O18_2 1_555 1_555

#END
