
#######################################################################
#
#                 Cambridge Crystallographic Data Centre
#                                CCDC 
#
#######################################################################
#
# If this CIF has been generated from an entry in the Cambridge 
# Structural Database, then it will include bibliographic, chemical, 
# crystal, experimental, refinement or atomic coordinate data resulting 
# from the CCDC's data processing and validation procedures.
#
#######################################################################

data_OBEDEE
_chemical_formula_moiety         '(C35 H25 Ag1 F3 N3 O4 S1)n'
_symmetry_cell_setting           monoclinic
_symmetry_space_group_name_H-M   'P 21/n'
_symmetry_Int_Tables_number      14
_space_group_name_Hall           '-P 2yn'
loop_
_symmetry_equiv_pos_site_id
_symmetry_equiv_pos_as_xyz
1 x,y,z
2 1/2-x,1/2+y,1/2-z
3 -x,-y,-z
4 1/2+x,1/2-y,1/2+z
_cell_length_a                   10.230(2)
_cell_length_b                   11.839(2)
_cell_length_c                   26.071(4)
_cell_angle_alpha                90
_cell_angle_beta                 90.589(8)
_cell_angle_gamma                90
_cell_volume                     3157.37
loop_
_atom_site_label
_atom_site_type_symbol
_atom_site_fract_x
_atom_site_fract_y
_atom_site_fract_z
Ag1 Ag 0.15859(6) 0.03042(5) 0.04478(2)
C1 C 0.3186(6) -0.1332(5) -0.2891(2)
C2 C 0.3644(5) -0.0269(5) -0.3142(2)
C3 C 0.2793(6) 0.0562(5) -0.3341(2)
C4 C 0.3238(6) 0.1537(5) -0.3581(2)
C5 C 0.4573(6) 0.1714(5) -0.3619(2)
C6 C 0.5427(7) 0.0934(5) -0.3419(2)
C7 C 0.4986(6) -0.0034(5) -0.3180(2)
C8 C 0.5106(6) 0.2674(5) -0.3879(2)
C9 C 0.1990(6) -0.1903(5) -0.3143(2)
C10 C 0.1251(5) -0.2650(5) -0.2862(2)
C11 C 0.0301(6) -0.3300(5) -0.3090(2)
C12 C 0.0072(6) -0.3208(5) -0.3629(2)
C13 C 0.0817(6) -0.2444(5) -0.3903(2)
C14 C 0.1782(6) -0.1798(5) -0.3662(2)
C15 C -0.0881(6) -0.3898(5) -0.3887(2)
C16 C 0.2949(6) -0.1027(5) -0.2324(2)
C17 C 0.3893(6) -0.1285(5) -0.1950(2)
C18 C 0.3721(6) -0.0952(5) -0.1452(2)
C19 C 0.2626(5) -0.0348(5) -0.1318(2)
C20 C 0.1679(5) -0.0078(5) -0.1680(2)
C21 C 0.1860(5) -0.0428(5) -0.2188(2)
C22 C 0.2437(6) -0.0002(5) -0.0787(2)
H1 H 0.4436(44) -0.2220(37) -0.3175(15)
H2 H 0.1897(6) 0.0454(5) -0.3311(2)
H3 H 0.2648(6) 0.2062(5) -0.3713(2)
H4 H 0.6322(7) 0.1057(5) -0.3446(2)
H5 H 0.5589(6) -0.0539(5) -0.3041(2)
H6 H 0.1400(5) -0.2714(5) -0.2511(2)
H7 H -0.0191(6) -0.3797(5) -0.2895(2)
H8 H 0.0670(6) -0.2361(5) -0.4254(2)
H9 H 0.2283(6) -0.1297(5) -0.3852(2)
H10 H 0.4640(6) -0.1684(5) -0.2040(2)
H11 H 0.4345(6) -0.1134(5) -0.1203(2)
H12 H 0.0937(5) 0.0326(5) -0.1589(2)
H13 H 0.1233(5) -0.0251(5) -0.2436(2)
N1 N 0.2277(4) 0.0252(5) -0.03679(14)
N2 N -0.1561(5) -0.4542(5) -0.4077(2)
N3 N 0.5539(5) 0.3432(4) -0.4090(2)
O1 O 0.4213(4) -0.2152(3) -0.28780(14)
C41 C -0.0302(9) -0.3427(7) 0.0377(3)
F1 F -0.1440(5) -0.2991(4) 0.0211(2)
F2 F -0.0627(4) -0.4352(3) 0.06437(12)
F3 F 0.0322(5) -0.3793(4) -0.0044(2)
O2 O -0.0222(5) -0.2114(4) 0.11462(13)
O3 O 0.0819(4) -0.1567(4) 0.03518(14)
O4 O 0.1769(5) -0.3070(5) 0.0891(2)
S1 S 0.0616(2) -0.2437(5) 0.07372(7)
N2C N 0.3439(5) -0.0458(5) 0.0923(2)
N3C N 0.0539(5) 0.1568(4) 0.0910(2)
Ag1C Ag -0.34141(6) -0.53042(5) -0.45522(2)
Ag1C_2 Ag 0.65859(6) 0.46958(5) -0.45522(2)
C23 C 0.5006(8) -0.2054(7) -0.0267(2)
C24 C 0.6033(8) -0.2583(7) -0.0479(2)
C25 C 0.5976(8) -0.3679(7) -0.0624(2)
C26 C 0.4833(7) -0.4319(6) -0.0557(2)
C27 C 0.3760(8) -0.3753(6) -0.0329(2)
C28 C 0.3838(8) -0.2622(7) -0.0196(2)
H14 H 0.5082(8) -0.1302(7) -0.0167(2)
H15 H 0.6803(8) -0.2182(7) -0.0528(2)
H16 H 0.6705(8) -0.4014(7) -0.0770(2)
H17 H 0.4782(7) -0.5073(6) -0.0656(2)
H18 H 0.2992(8) -0.4148(6) -0.0269(2)
H19 H 0.3118(8) -0.2251(7) -0.0061(2)
C29 C 0.3868(16) 0.4393(12) 0.2048(6)
C30 C 0.3565(13) 0.5508(12) 0.1867(5)
C31 C 0.3042(13) 0.6330(12) 0.2194(6)
C32 C 0.2931(13) 0.6053(12) 0.2722(5)
C33 C 0.3222(15) 0.5015(12) 0.2885(6)
C34 C 0.3680(14) 0.4225(13) 0.2586(5)
H20 H 0.4164(16) 0.3823(12) 0.1833(6)
H21 H 0.3718(13) 0.5690(12) 0.1526(5)
H22 H 0.2777(13) 0.7031(12) 0.2070(6)
H23 H 0.2655(13) 0.6598(12) 0.2954(5)
H24 H 0.3093(15) 0.4844(12) 0.3229(6)
H25 H 0.3891(14) 0.3528(13) 0.2728(5)
loop_
_geom_bond_atom_site_label_1
_geom_bond_atom_site_label_2
_geom_bond_site_symmetry_1
_geom_bond_site_symmetry_2
Ag1 N1 1_555 1_555
C1 C2 1_555 1_555
C2 C3 1_555 1_555
C3 C4 1_555 1_555
C4 C5 1_555 1_555
C5 C6 1_555 1_555
C6 C7 1_555 1_555
C7 C2 1_555 1_555
C8 C5 1_555 1_555
C9 C1 1_555 1_555
C10 C9 1_555 1_555
C11 C10 1_555 1_555
C12 C11 1_555 1_555
C13 C12 1_555 1_555
C14 C9 1_555 1_555
C15 C12 1_555 1_555
C16 C1 1_555 1_555
C17 C16 1_555 1_555
C18 C17 1_555 1_555
C19 C18 1_555 1_555
C20 C19 1_555 1_555
C21 C16 1_555 1_555
C22 C19 1_555 1_555
H1 O1 1_555 1_555
H2 C3 1_555 1_555
H3 C4 1_555 1_555
H4 C6 1_555 1_555
H5 C7 1_555 1_555
H6 C10 1_555 1_555
H7 C11 1_555 1_555
H8 C13 1_555 1_555
H9 C14 1_555 1_555
H10 C17 1_555 1_555
H11 C18 1_555 1_555
H12 C20 1_555 1_555
H13 C21 1_555 1_555
N1 C22 1_555 1_555
N2 C15 1_555 1_555
N3 C8 1_555 1_555
O1 C1 1_555 1_555
C23 C24 1_555 1_555
C24 C25 1_555 1_555
C25 C26 1_555 1_555
C26 C27 1_555 1_555
C27 C28 1_555 1_555
C28 C23 1_555 1_555
C29 C30 1_555 1_555
C30 C31 1_555 1_555
C31 C32 1_555 1_555
C32 C33 1_555 1_555
C33 C34 1_555 1_555
C34 C29 1_555 1_555
H14 C23 1_555 1_555
H15 C24 1_555 1_555
H16 C25 1_555 1_555
H17 C26 1_555 1_555
H18 C27 1_555 1_555
H19 C28 1_555 1_555
H20 C29 1_555 1_555
H21 C30 1_555 1_555
H22 C31 1_555 1_555
H23 C32 1_555 1_555
H24 C33 1_555 1_555
H25 C34 1_555 1_555
C41 F1 1_555 1_555
F2 C41 1_555 1_555
F3 C41 1_555 1_555
O2 S1 1_555 1_555
O3 Ag1 1_555 1_555
O4 S1 1_555 1_555
S1 C41 1_555 1_555
N2C Ag1 1_555 1_555
N3C Ag1 1_555 1_555
Ag1C N2 1_555 1_555
Ag1C_2 N3 1_555 1_555
C13 C14 1_555 1_555
C20 C21 1_555 1_555
O3 S1 1_555 1_555

#END
