
#######################################################################
#
#                 Cambridge Crystallographic Data Centre
#                                CCDC 
#
#######################################################################
#
# If this CIF has been generated from an entry in the Cambridge 
# Structural Database, then it will include bibliographic, chemical, 
# crystal, experimental, refinement or atomic coordinate data resulting 
# from the CCDC's data processing and validation procedures.
#
#######################################################################

data_QUSBOW
_chemical_formula_moiety         'C26 Cd3 Li3 O14'
_symmetry_cell_setting           tetragonal
_symmetry_space_group_name_H-M   'P -4 m 2'
_symmetry_Int_Tables_number      115
_space_group_name_Hall           'P -4 -2'
loop_
_symmetry_equiv_pos_site_id
_symmetry_equiv_pos_as_xyz
1 x,y,z
2 -x,-y,z
3 y,-x,-z
4 -y,x,-z
5 x,-y,z
6 -x,y,z
7 y,x,-z
8 -y,-x,-z
_cell_length_a                   9.824(2)
_cell_length_b                   9.824(2)
_cell_length_c                   6.536(2)
_cell_angle_alpha                90
_cell_angle_beta                 90
_cell_angle_gamma                90
_cell_volume                     630.796
loop_
_atom_site_label
_atom_site_type_symbol
_atom_site_fract_x
_atom_site_fract_y
_atom_site_fract_z
Cd1 Cd 1.5000 0.5000 -0.5000
O1 O 1.2523(4) 0.5000 -0.503(3)
O2 O 1.3621(5) 0.5000 -0.2027(11)
C1 C 1.2540(7) 0.5000 -0.2967(13)
C2 C 1.1225(6) 0.4497(8) -0.1839(12)
C3 C 1.1250(9) 0.4122(12) 0.001(3)
C4 C 1.0000 0.395(2) 0.131(2)
C5 C 1.0000 0.5000 -0.2840(14)
Li1 Li 1.5000 0.5000 0.0000
Cd1_2 Cd 0.5000 0.5000 -0.5000
Cd1_3 Cd 2.5000 0.5000 -0.5000
O1A O 0.7477(4) 0.5000 -0.503(3)
O1A_2 O 1.7477(4) 0.5000 -0.503(3)
O1_2 O 2.2523(4) 0.5000 -0.503(3)
O1B O 1.5000 0.7477(4) -0.497(3)
O1C O 1.5000 0.2523(4) -0.497(3)
O2A O 0.6379(5) 0.5000 -0.2027(11)
O2A_2 O 1.6379(5) 0.5000 -0.2027(11)
O2_2 O 2.3621(5) 0.5000 -0.2027(11)
O2B O 1.5000 0.6379(5) -0.7973(11)
O2C O 1.5000 0.3621(5) -0.7973(11)
O2C_2 O 1.5000 0.3621(5) 0.2027(11)
O2B_2 O 1.5000 0.6379(5) 0.2027(11)
C1A C 0.7460(7) 0.5000 -0.2967(13)
C1A_2 C 1.7460(7) 0.5000 -0.2967(13)
C1_2 C 2.2540(7) 0.5000 -0.2967(13)
C2D C 1.1225(6) 0.5503(8) -0.1839(12)
C2A C 0.8775(6) 0.5503(8) -0.1839(12)
C2E C 0.8775(6) 0.4497(8) -0.1839(12)
C2A_2 C 1.8775(6) 0.5503(8) -0.1839(12)
C2E_2 C 1.8775(6) 0.4497(8) -0.1839(12)
C2_2 C 2.1225(6) 0.4497(8) -0.1839(12)
C2D_2 C 2.1225(6) 0.5503(8) -0.1839(12)
C3D C 1.1250(9) 0.5878(12) 0.001(3)
C3E C 0.8750(9) 0.4122(12) 0.001(3)
C3A C 0.8750(9) 0.5878(12) 0.001(3)
C3A_2 C 1.8750(9) 0.5878(12) 0.001(3)
C3E_2 C 1.8750(9) 0.4122(12) 0.001(3)
C3D_2 C 2.1250(9) 0.5878(12) 0.001(3)
C3_2 C 2.1250(9) 0.4122(12) 0.001(3)
C4A C 1.0000 0.605(2) 0.131(2)
C4A_2 C 2.0000 0.605(2) 0.131(2)
C4_2 C 2.0000 0.395(2) 0.131(2)
C5_2 C 2.0000 0.5000 -0.2840(14)
Li1_2 Li 0.5000 0.5000 0.0000
Li1_3 Li 2.5000 0.5000 0.0000
loop_
_geom_bond_atom_site_label_1
_geom_bond_atom_site_label_2
_geom_bond_site_symmetry_1
_geom_bond_site_symmetry_2
Cd1 O1 1_555 1_555
O1 C1 1_555 1_555
O2 Cd1 1_555 1_555
C1 O2 1_555 1_555
C2 C1 1_555 1_555
C3 C2 1_555 1_555
C4 C3 1_555 1_555
C5 C2 1_555 1_555
Li1 O2 1_555 1_555
Cd1_2 O1A 1_555 1_555
Cd1_3 O1_2 1_555 1_555
O1A C1A 1_555 1_555
O1A_2 Cd1 1_555 1_555
O1_2 C1_2 1_555 1_555
O1B Cd1 1_555 1_555
O1C Cd1 1_555 1_555
O2A Cd1_2 1_555 1_555
O2A_2 Cd1 1_555 1_555
O2_2 Cd1_3 1_555 1_555
O2B Cd1 1_555 1_555
O2C Cd1 1_555 1_555
O2C_2 Li1 1_555 1_555
O2B_2 Li1 1_555 1_555
C1A O2A 1_555 1_555
C1A_2 O1A_2 1_555 1_555
C1_2 O2_2 1_555 1_555
C2D C1 1_555 1_555
C2A C5 1_555 1_555
C2E C5 1_555 1_555
C2A_2 C1A_2 1_555 1_555
C2E_2 C1A_2 1_555 1_555
C2_2 C1_2 1_555 1_555
C2D_2 C1_2 1_555 1_555
C3D C2 1_555 1_555
C3E C4 1_555 1_555
C3A C2A 1_555 1_555
C3A_2 C2A_2 1_555 1_555
C3E_2 C2A_2 1_555 1_555
C3D_2 C2_2 1_555 1_555
C3_2 C2_2 1_555 1_555
C4A C3D 1_555 1_555
C4A_2 C3A_2 1_555 1_555
C4_2 C3E_2 1_555 1_555
C5_2 C2A_2 1_555 1_555
Li1_2 O2A 1_555 1_555
Li1_3 O2_2 1_555 1_555
C2 C2D 1_555 1_555
C3 C2D 1_555 1_555
C3 C3D 1_555 1_555
C5 C2D 1_555 1_555
Li1 O2A_2 1_555 1_555
O2A_2 C1A_2 1_555 1_555
C1A C2A 1_555 1_555
C1A C2E 1_555 1_555
C2D C3D 1_555 1_555
C2A C2E 1_555 1_555
C2A C3E 1_555 1_555
C2E C3E 1_555 1_555
C2E C3A 1_555 1_555
C2A_2 C2E_2 1_555 1_555
C2E_2 C3A_2 1_555 1_555
C2E_2 C3E_2 1_555 1_555
C2E_2 C5_2 1_555 1_555
C2_2 C2D_2 1_555 1_555
C2_2 C5_2 1_555 1_555
C2D_2 C3D_2 1_555 1_555
C2D_2 C3_2 1_555 1_555
C2D_2 C5_2 1_555 1_555
C3E C3A 1_555 1_555
C3A C4A 1_555 1_555
C3A_2 C3E_2 1_555 1_555
C3D_2 C3_2 1_555 1_555
C3D_2 C4A_2 1_555 1_555
C3_2 C4_2 1_555 1_555

#END
