
#######################################################################
#
#                 Cambridge Crystallographic Data Centre
#                                CCDC 
#
#######################################################################
#
# If this CIF has been generated from an entry in the Cambridge 
# Structural Database, then it will include bibliographic, chemical, 
# crystal, experimental, refinement or atomic coordinate data resulting 
# from the CCDC's data processing and validation procedures.
#
#######################################################################

data_DIYKAZ
_chemical_formula_moiety         '(C28 H22 Cd2 N4 O8)n'
_symmetry_cell_setting           monoclinic
_symmetry_space_group_name_H-M   'C 2/c'
_symmetry_Int_Tables_number      15
_space_group_name_Hall           '-C 2yc'
loop_
_symmetry_equiv_pos_site_id
_symmetry_equiv_pos_as_xyz
1 x,y,z
2 -x,y,1/2-z
3 1/2+x,1/2+y,z
4 1/2-x,1/2+y,1/2-z
5 -x,-y,-z
6 x,-y,1/2+z
7 1/2-x,1/2-y,-z
8 1/2+x,1/2-y,1/2+z
_cell_length_a                   16.3552(6)
_cell_length_b                   16.0035(6)
_cell_length_c                   12.1024(5)
_cell_angle_alpha                90
_cell_angle_beta                 111.3990(10)
_cell_angle_gamma                90
_cell_volume                     2949.31
loop_
_atom_site_label
_atom_site_type_symbol
_atom_site_fract_x
_atom_site_fract_y
_atom_site_fract_z
Cd1 Cd 0.488087(14) 0.180599(13) 0.591787(18)
N1 N 0.42641(17) 0.22520(17) 0.4000(2)
N2 N 0.38504(17) 0.07038(17) 0.5633(2)
O1 O 0.42895(14) -0.07910(14) 0.49112(19)
O2 O 0.40259(16) -0.08825(16) 0.3007(2)
C1 C 0.3876(2) -0.05613(19) 0.3862(3)
O3 O 0.11605(14) 0.24859(14) 0.3565(2)
O4 O 0.07618(16) 0.21291(16) 0.1649(2)
C2 C 0.3810(3) 0.2963(2) 0.3694(3)
C3 C 0.4235(2) 0.1732(2) 0.3127(3)
H1 H 0.4141 0.0214 0.5760
H2 H 0.3600 0.0752 0.6180
C4 C 0.3172(2) 0.0682(2) 0.4483(3)
C5 C 0.3196(2) 0.01127(19) 0.3609(3)
C6 C 0.3327(3) 0.3164(2) 0.2521(4)
H3 H 0.3819 0.3337 0.4287
C7 C 0.3768(2) 0.1895(2) 0.1948(3)
H4 H 0.4547 0.1234 0.3325
C8 C 0.2519(2) 0.1292(2) 0.4200(3)
C9 C 0.2575(2) 0.0202(2) 0.2453(3)
H5 H 0.3016 0.3664 0.2341
C10 C 0.3306(3) 0.2626(2) 0.1620(3)
H6 H 0.3765 0.1509 0.1372
C11 C 0.1904(2) 0.1365(2) 0.3047(3)
H7 H 0.2493 0.1655 0.4786
C12 C 0.1938(2) 0.0815(2) 0.2168(3)
H8 H 0.2593 -0.0162 0.1864
C13 C 0.2802(4) 0.2819(3) 0.0320(4)
C14 C 0.1216(2) 0.2049(2) 0.2736(3)
H9 H 0.1534 0.0862 0.1396
H10 H 0.2479 0.3335 0.0267
H11 H 0.3221 0.2912 -0.0066
N1F N 0.07359(17) 0.27480(17) -0.4000(2)
C2F C 0.1190(3) 0.2037(2) -0.3694(3)
C3F C 0.0765(2) 0.3268(2) -0.3127(3)
C6F C 0.1673(3) 0.1836(2) -0.2521(4)
H3F H 0.1181 0.1663 -0.4287
C7F C 0.1232(2) 0.3105(2) -0.1948(3)
H4F H 0.0453 0.3766 -0.3325
H5F H 0.1984 0.1336 -0.2341
C10F C 0.1694(3) 0.2374(2) -0.1620(3)
H6F H 0.1235 0.3491 -0.1372
C13F C 0.2198(4) 0.2181(3) -0.0320(4)
H10F H 0.2521 0.1665 -0.0267
H11F H 0.1779 0.2088 0.0066
Cd1D Cd 0.511913(14) -0.180599(13) 0.408213(18)
N2D N 0.61496(17) -0.07038(17) 0.4367(2)
O1D O 0.57105(14) 0.07910(14) 0.50888(19)
O2D O 0.59741(16) 0.08825(16) 0.6993(2)
C1D C 0.6124(2) 0.05613(19) 0.6138(3)
O3D O 0.88395(14) -0.24859(14) 0.6435(2)
O4D O 0.92382(16) -0.21291(16) 0.8351(2)
H1D H 0.5859 -0.0214 0.4240
H2D H 0.6400 -0.0752 0.3820
C4D C 0.6828(2) -0.0682(2) 0.5517(3)
C5D C 0.6804(2) -0.01127(19) 0.6391(3)
C8D C 0.7481(2) -0.1292(2) 0.5800(3)
C9D C 0.7425(2) -0.0202(2) 0.7547(3)
C11D C 0.8096(2) -0.1365(2) 0.6953(3)
H7D H 0.7507 -0.1655 0.5214
C12D C 0.8062(2) -0.0815(2) 0.7832(3)
H8D H 0.7407 0.0162 0.8136
C14D C 0.8784(2) -0.2049(2) 0.7264(3)
H9D H 0.8466 -0.0862 0.8604
Cd1B Cd 0.988087(14) -0.319401(13) 0.591787(18)
Cd1C Cd 1.011913(14) -0.319401(13) 0.908213(18)
Cd1F Cd 0.011913(14) 0.319401(13) -0.591787(18)
Cd1F_2 Cd 0.011913(14) 0.319401(13) 0.408213(18)
Cd1G Cd -0.011913(14) 0.319401(13) 0.091787(18)
N1D N 0.57359(17) -0.22520(17) 0.6000(2)
O3B O 0.61605(14) -0.25141(14) 0.3565(2)
O3F O 0.38395(14) 0.25141(14) 0.6435(2)
O4C O 0.42382(16) -0.28709(16) 0.3351(2)
O4G O 0.57618(16) 0.28709(16) 0.6649(2)
loop_
_geom_bond_atom_site_label_1
_geom_bond_atom_site_label_2
_geom_bond_site_symmetry_1
_geom_bond_site_symmetry_2
Cd1 N1 1_555 1_555
N1 C2 1_555 1_555
N2 Cd1 1_555 1_555
O1 C1 1_555 1_555
O2 C1 1_555 1_555
C1 C5 1_555 1_555
O3 C14 1_555 1_555
O4 C14 1_555 1_555
C2 C6 1_555 1_555
C3 N1 1_555 1_555
H1 N2 1_555 1_555
H2 N2 1_555 1_555
C4 N2 1_555 1_555
C5 C4 1_555 1_555
C6 H5 1_555 1_555
H3 C2 1_555 1_555
C7 C3 1_555 1_555
H4 C3 1_555 1_555
C8 C4 1_555 1_555
C9 C5 1_555 1_555
C10 C6 1_555 1_555
H6 C7 1_555 1_555
C11 C8 1_555 1_555
H7 C8 1_555 1_555
C12 C9 1_555 1_555
H8 C9 1_555 1_555
C13 C10 1_555 1_555
C14 C11 1_555 1_555
H9 C12 1_555 1_555
H10 C13 1_555 1_555
H11 C13 1_555 1_555
N1F C2F 1_555 1_555
C2F C6F 1_555 1_555
C3F N1F 1_555 1_555
C6F H5F 1_555 1_555
H3F C2F 1_555 1_555
C7F C3F 1_555 1_555
H4F C3F 1_555 1_555
C10F C6F 1_555 1_555
H6F C7F 1_555 1_555
C13F C13 1_555 1_555
H10F C13F 1_555 1_555
H11F C13F 1_555 1_555
Cd1D O1 1_555 1_555
N2D Cd1D 1_555 1_555
O1D Cd1 1_555 1_555
O2D Cd1 1_555 1_555
C1D O1D 1_555 1_555
O3D C14D 1_555 1_555
O4D C14D 1_555 1_555
H1D N2D 1_555 1_555
H2D N2D 1_555 1_555
C4D N2D 1_555 1_555
C5D C1D 1_555 1_555
C8D C4D 1_555 1_555
C9D C5D 1_555 1_555
C11D C8D 1_555 1_555
H7D C8D 1_555 1_555
C12D C9D 1_555 1_555
H8D C9D 1_555 1_555
C14D C11D 1_555 1_555
H9D C12D 1_555 1_555
Cd1B O3D 1_555 1_555
Cd1C O4D 1_555 1_555
Cd1F N1F 1_555 1_555
Cd1F_2 O3 1_555 1_555
Cd1G O4 1_555 1_555
N1D Cd1D 1_555 1_555
O3B Cd1D 1_555 1_555
O3F Cd1 1_555 1_555
O4C Cd1D 1_555 1_555
O4G Cd1 1_555 1_555
O2 Cd1D 1_555 1_555
C7 C10 1_555 1_555
C11 C12 1_555 1_555
C7F C10F 1_555 1_555
C10F C13F 1_555 1_555
O2D C1D 1_555 1_555
C4D C5D 1_555 1_555
C11D C12D 1_555 1_555

#END
