
#######################################################################
#
#                 Cambridge Crystallographic Data Centre
#                                CCDC 
#
#######################################################################
#
# If this CIF has been generated from an entry in the Cambridge 
# Structural Database, then it will include bibliographic, chemical, 
# crystal, experimental, refinement or atomic coordinate data resulting 
# from the CCDC's data processing and validation procedures.
#
#######################################################################

data_CAXZUY
_chemical_formula_moiety         '(C114 H122 N12 Ni4 O29)n'
_symmetry_cell_setting           tetragonal
_symmetry_space_group_name_H-M   'I 4'
_symmetry_Int_Tables_number      79
_space_group_name_Hall           'I 4'
loop_
_symmetry_equiv_pos_site_id
_symmetry_equiv_pos_as_xyz
1 x,y,z
2 -y,x,z
3 -x,-y,z
4 y,-x,z
5 1/2+x,1/2+y,1/2+z
6 1/2-y,1/2+x,1/2+z
7 1/2-x,1/2-y,1/2+z
8 1/2+y,1/2-x,1/2+z
_cell_length_a                   31.8199(19)
_cell_length_b                   31.8199(19)
_cell_length_c                   25.1149(15)
_cell_angle_alpha                90
_cell_angle_beta                 90
_cell_angle_gamma                90
_cell_volume                     25429
loop_
_atom_site_label
_atom_site_type_symbol
_atom_site_fract_x
_atom_site_fract_y
_atom_site_fract_z
Ni1 Ni -0.48670(4) 0.25755(4) -0.35960(12)
Ni2 Ni -0.74329(5) 0.01475(4) -0.60703(11)
Ni3 Ni 0.01507(4) -0.24418(4) -0.35971(12)
Ni4 Ni -0.25662(5) -0.01377(4) -0.10882(12)
N1 N -0.4705(3) -0.2252(3) 0.0986(4)
C1 C -0.4296(3) -0.2230(4) 0.1155(5)
H1 H -0.4230 -0.2353 0.1489
C2 C -0.3967(4) -0.2037(5) 0.0871(5)
H2 H -0.3686 -0.2037 0.0997
C3 C -0.4085(4) -0.1838(4) 0.0372(5)
C4 C -0.4490(4) -0.1854(4) 0.0202(5)
H3 H -0.4572 -0.1724 -0.0122
C5 C -0.4783(4) -0.2067(4) 0.0516(4)
H4 H -0.5063 -0.2083 0.0385
C6 C -0.3766(4) -0.1593(4) 0.0069(4)
C7 C -0.3409(4) -0.1425(4) 0.0326(5)
H5 H -0.3355 -0.1500 0.0685
C8 C -0.3134(4) -0.1153(4) 0.0067(5)
H6 H -0.2912 -0.1018 0.0255
C9 C -0.3194(4) -0.1083(4) -0.0476(5)
C10 C -0.3515(4) -0.1257(4) -0.0744(5)
H7 H -0.3549 -0.1203 -0.1114
C11 C -0.3810(4) -0.1528(5) -0.0470(5)
H8 H -0.4032 -0.1659 -0.0660
C12 C -0.2922(4) -0.0754(4) -0.0738(4)
O1 O -0.2670(2) -0.0544(2) -0.0469(3)
O2 O -0.2966(3) -0.0689(3) -0.1237(3)
N2 N -0.4588(3) 0.2048(3) -0.3275(4)
C13 C -0.4650(4) 0.1991(4) -0.2741(5)
H9 H -0.4851 0.2152 -0.2551
C14 C -0.4403(4) 0.1683(4) -0.2484(5)
H10 H -0.4434 0.1648 -0.2110
C15 C -0.4123(4) 0.1435(4) -0.2743(5)
C16 C -0.4090(5) 0.1490(6) -0.3280(6)
H11 H -0.3904 0.1317 -0.3479
C17 C -0.4325(5) 0.1796(4) -0.3539(7)
H12 H -0.4298 0.1827 -0.3913
C18 C -0.3892(4) 0.1123(5) -0.2441(5)
C19 C -0.3998(4) 0.0959(5) -0.1962(6)
H13 H -0.4267 0.1024 -0.1821
C20 C -0.3742(4) 0.0707(5) -0.1674(6)
H14 H -0.3836 0.0607 -0.1337
C21 C -0.3347(4) 0.0591(4) -0.1857(5)
C22 C -0.3218(4) 0.0742(4) -0.2350(5)
H15 H -0.2957 0.0656 -0.2498
C23 C -0.3477(5) 0.1024(5) -0.2627(5)
H16 H -0.3376 0.1151 -0.2945
C24 C -0.3062(4) 0.0317(3) -0.1531(4)
O3 O -0.3146(3) 0.0217(2) -0.1052(3)
O4 O -0.2707(2) 0.0219(2) -0.1731(3)
N3 N -0.2747(3) 0.4689(3) -0.5670(4)
C25 C -0.2926(5) 0.4775(4) -0.5202(5)
H17 H -0.2915 0.5056 -0.5078
C26 C -0.3132(5) 0.4474(4) -0.4878(6)
H18 H -0.3246 0.4550 -0.4542
C27 C -0.3160(4) 0.4072(4) -0.5061(5)
C28 C -0.2973(4) 0.3958(4) -0.5549(5)
H19 H -0.2979 0.3678 -0.5678
C29 C -0.2772(4) 0.4293(4) -0.5837(5)
H20 H -0.2648 0.4227 -0.6171
C30 C -0.3403(5) 0.3757(4) -0.4749(5)
C31 C -0.3458(6) 0.3803(5) -0.4209(6)
H21 H -0.3316 0.4018 -0.4017
C32 C -0.3736(5) 0.3519(5) -0.3944(5)
H22 H -0.3798 0.3558 -0.3578
C33 C -0.3910(4) 0.3192(4) -0.4211(5)
C34 C -0.3836(4) 0.3128(4) -0.4740(5)
H23 H -0.3965 0.2901 -0.4923
C35 C -0.3562(4) 0.3409(4) -0.5012(5)
H24 H -0.3489 0.3358 -0.5373
C36 C -0.4244(4) 0.2928(4) -0.3947(5)
O5 O -0.4314(3) 0.2964(3) -0.3445(3)
O6 O -0.4458(2) 0.2676(2) -0.4214(3)
N4 N -0.2041(3) -0.0418(3) -0.1420(4)
C37 C -0.1816(5) -0.0700(5) -0.1170(5)
H25 H -0.1869 -0.0750 -0.0803
C38 C -0.1514(5) -0.0920(4) -0.1414(6)
H26 H -0.1349 -0.1110 -0.1210
C39 C -0.1433(4) -0.0881(4) -0.1953(5)
C40 C -0.1672(4) -0.0606(4) -0.2216(4)
H27 H -0.1637 -0.0569 -0.2589
C41 C -0.1985(4) -0.0363(4) -0.1933(5)
H28 H -0.2150 -0.0162 -0.2119
C42 C -0.1117(4) -0.1123(4) -0.2254(5)
C43 C -0.0940(4) -0.0991(4) -0.2708(5)
H29 H -0.1008 -0.0721 -0.2846
C44 C -0.0652(4) -0.1255(4) -0.2982(6)
H30 H -0.0502 -0.1144 -0.3277
C45 C -0.0586(4) -0.1656(4) -0.2836(5)
C46 C -0.0770(4) -0.1798(5) -0.2351(6)
H31 H -0.0698 -0.2067 -0.2214
C47 C -0.1048(5) -0.1553(4) -0.2083(6)
H32 H -0.1195 -0.1662 -0.1785
C48 C -0.0309(4) -0.1948(4) -0.3159(5)
O7 O -0.0194(2) -0.1847(3) -0.3611(4)
O8 O -0.0208(2) -0.2296(3) -0.2960(3)
N5 N -0.7728(3) -0.0312(3) -0.5651(4)
C49 C -0.7761(4) -0.0710(4) -0.5840(5)
H33 H -0.7639 -0.0769 -0.6177
C50 C -0.7960(4) -0.1039(4) -0.5571(5)
H34 H -0.7981 -0.1310 -0.5728
C51 C -0.8129(4) -0.0960(4) -0.5064(4)
C52 C -0.8076(4) -0.0538(4) -0.4872(5)
H35 H -0.8174 -0.0466 -0.4527
C53 C -0.7889(4) -0.0245(4) -0.5172(5)
H36 H -0.7870 0.0032 -0.5031
C54 C -0.8363(4) -0.1281(4) -0.4764(4)
C55 C -0.8413(4) -0.1251(5) -0.4222(5)
H37 H -0.8263 -0.1043 -0.4028
C56 C -0.8690(5) -0.1531(5) -0.3947(5)
H38 H -0.8735 -0.1498 -0.3575
C57 C -0.8891(4) -0.1844(4) -0.4215(4)
C58 C -0.8824(3) -0.1885(4) -0.4757(4)
H39 H -0.8968 -0.2098 -0.4949
C59 C -0.8547(4) -0.1618(4) -0.5030(4)
H40 H -0.8485 -0.1668 -0.5395
C60 C -0.9218(3) -0.2098(4) -0.3930(5)
O9 O -0.9443(2) -0.2345(2) -0.4207(3)
O10 O -0.9286(3) -0.2057(3) -0.3451(3)
N6 N -0.5410(3) -0.2031(3) -0.8266(4)
C61 C -0.5639(4) -0.1746(4) -0.8533(6)
H41 H -0.5654 -0.1771 -0.8910
C62 C -0.5856(4) -0.1420(5) -0.8297(5)
H42 H -0.6005 -0.1220 -0.8506
C63 C -0.5848(4) -0.1390(4) -0.7731(6)
C64 C -0.5597(4) -0.1655(4) -0.7485(5)
H43 H -0.5563 -0.1629 -0.7110
C65 C -0.5381(4) -0.1967(4) -0.7748(5)
H44 H -0.5203 -0.2146 -0.7546
C66 C -0.6100(4) -0.1069(4) -0.7451(5)
C67 C -0.6501(5) -0.0982(5) -0.7631(6)
H45 H -0.6594 -0.1094 -0.7962
C68 C -0.6774(5) -0.0726(4) -0.7326(6)
H46 H -0.7053 -0.0672 -0.7442
C69 C -0.6629(4) -0.0559(4) -0.6862(5)
C70 C -0.6213(4) -0.0618(4) -0.6699(5)
H47 H -0.6108 -0.0480 -0.6391
C71 C -0.5957(4) -0.0882(4) -0.6994(5)
H48 H -0.5678 -0.0933 -0.6879
C72 C -0.6924(4) -0.0298(3) -0.6529(4)
O11 O -0.7278(3) -0.0203(2) -0.6719(3)
O12 O -0.6821(3) -0.0175(3) -0.6060(3)
N7 N -0.5314(3) 0.2266(3) -0.4004(4)
C73 C -0.5245(4) 0.2109(5) -0.4489(5)
H49 H -0.4968 0.2130 -0.4627
C74 C -0.5547(4) 0.1915(4) -0.4812(5)
H50 H -0.5480 0.1814 -0.5158
C75 C -0.5964(4) 0.1876(3) -0.4594(4)
C76 C -0.6047(4) 0.2035(4) -0.4101(5)
H51 H -0.6320 0.2012 -0.3950
C77 C -0.5717(4) 0.2236(4) -0.3817(5)
H52 H -0.5780 0.2355 -0.3479
C78 C -0.6288(4) 0.1642(4) -0.4903(5)
C79 C -0.6253(5) 0.1604(4) -0.5453(5)
H53 H -0.6044 0.1754 -0.5645
C80 C -0.6538(5) 0.1337(5) -0.5716(5)
H54 H -0.6522 0.1314 -0.6092
C81 C -0.6840(4) 0.1108(4) -0.5449(4)
C82 C -0.6884(4) 0.1170(4) -0.4914(4)
H55 H -0.7096 0.1022 -0.4725
C83 C -0.6615(3) 0.1454(4) -0.4635(4)
H56 H -0.6661 0.1511 -0.4268
C84 C -0.7101(4) 0.0775(4) -0.5727(4)
O13 O -0.7057(3) 0.0722(3) -0.6221(3)
O14 O -0.7338(2) 0.0558(2) -0.5446(3)
N8 N -0.7040(3) 0.4595(3) -0.1386(4)
C85 C -0.6995(4) 0.4630(4) -0.1923(5)
H57 H -0.7180 0.4804 -0.2121
C86 C -0.6670(4) 0.4404(4) -0.2186(5)
H58 H -0.6642 0.4427 -0.2561
C87 C -0.6406(4) 0.4162(4) -0.1920(5)
C88 C -0.6417(5) 0.4147(4) -0.1362(5)
H59 H -0.6217 0.3994 -0.1159
C89 C -0.6759(4) 0.4381(4) -0.1120(6)
H60 H -0.6779 0.4379 -0.0743
C90 C -0.6071(4) 0.3912(4) -0.2196(5)
C91 C -0.5897(5) 0.4032(4) -0.2680(5)
H61 H -0.5949 0.4308 -0.2806
C92 C -0.5661(5) 0.3779(4) -0.2976(5)
H62 H -0.5560 0.3877 -0.3310
C93 C -0.5707(4) 0.3242(4) -0.2299(5)
H63 H -0.5622 0.2979 -0.2154
C94 C -0.5980(4) 0.3504(4) -0.2008(5)
H64 H -0.6102 0.3406 -0.1686
C95 C -0.5314(3) 0.3078(4) -0.3137(4)
O15 O -0.5217(2) 0.2720(3) -0.2930(3)
O16 O -0.5209(2) 0.3181(2) -0.3598(4)
C113 C -0.5557(4) 0.3368(4) -0.2808(5)
Ni2F Ni -0.75671(5) 0.48525(4) -0.10703(11)
Ni3F Ni -0.51507(4) -0.25582(4) 0.14029(12)
Ni3_2 Ni -0.98493(4) -0.24418(4) -0.35971(12)
Ni3F_2 Ni -0.51507(4) -0.25582(4) -0.85971(12)
Ni4F Ni -0.24338(5) 0.51377(4) -0.60882(12)
N1F N -0.0295(3) -0.2748(3) -0.4014(4)
N3F N -0.2253(3) 0.0311(3) -0.0670(4)
O9_2 O 0.0557(2) -0.2345(2) -0.4207(3)
O10_2 O 0.0714(3) -0.2057(3) -0.3451(3)
N6F N 0.0410(3) -0.2969(3) -0.3266(4)
N8F N -0.7960(3) 0.0405(3) -0.6386(4)
O17 O -0.8124(4) -0.8158(5) 0.3615(5)
C96 C -0.7866(5) -0.8384(6) 0.3386(4)
H65 H -0.7695 -0.8561 0.3599
N9 N -0.7813(4) -0.8397(4) 0.2864(4)
C97 C -0.7493(5) -0.8670(5) 0.2639(6)
H66 H -0.7280 -0.8731 0.2910
H67 H -0.7360 -0.8530 0.2335
H68 H -0.7622 -0.8933 0.2520
C98 C -0.8032(7) -0.8103(7) 0.2523(6)
H69 H -0.8266 -0.7976 0.2720
H70 H -0.8142 -0.8251 0.2211
H71 H -0.7838 -0.7882 0.2407
O18 O -0.3046(6) -0.1916(5) 0.1472(8)
C99 C -0.2701(6) -0.1944(5) 0.1255(11)
H72 H -0.2540 -0.1694 0.1225
N10 N -0.2537(6) -0.2291(6) 0.1061(11)
C100 C -0.2762(9) -0.2685(5) 0.1084(12)
H73 H -0.2923 -0.2699 0.1416
H74 H -0.2562 -0.2919 0.1071
H75 H -0.2955 -0.2704 0.0781
C112 C -0.2165(9) -0.2373(9) 0.0858(14)
H102 H -0.2086 -0.2149 0.0609
H103 H -0.2174 -0.2642 0.0669
H104 H -0.1956 -0.2388 0.1145
O19 O -0.3120(4) -0.1843(4) -0.3269(5)
C101 C -0.2859(5) -0.1617(6) -0.3049(4)
H76 H -0.2698 -0.1433 -0.3268
N11 N -0.2786(4) -0.1610(4) -0.2531(4)
C102 C -0.2992(9) -0.1907(8) -0.2182(6)
H77 H -0.3183 -0.1757 -0.1943
H78 H -0.2780 -0.2057 -0.1972
H79 H -0.3152 -0.2109 -0.2396
C103 C -0.2457(5) -0.1344(6) -0.2318(6)
H80 H -0.2317 -0.1196 -0.2610
H81 H -0.2252 -0.1517 -0.2128
H82 H -0.2580 -0.1139 -0.2072
O20 O -0.1925(5) 0.1990(6) -0.1116(8)
C104 C -0.1963(5) 0.2333(6) -0.0896(10)
H83 H -0.1725 0.2515 -0.0896
N12 N -0.2308(5) 0.2468(6) -0.0662(10)
C105 C -0.2694(5) 0.2232(8) -0.0697(11)
H84 H -0.2638 0.1956 -0.0854
H85 H -0.2895 0.2385 -0.0921
H86 H -0.2813 0.2196 -0.0339
C106 C -0.2330(8) 0.2887(6) -0.0442(13)
H87 H -0.2067 0.2952 -0.0257
H88 H -0.2565 0.2904 -0.0190
H89 H -0.2374 0.3090 -0.0730
O21 O -0.966(2) -0.399(2) -0.0068(17)
C107 C -0.9796(18) -0.4025(16) -0.0609(16)
H90 H -0.9699 -0.3755 -0.0762
H91 H -1.0104 -0.3994 -0.0575
C108 C -0.9755(19) -0.4326(17) -0.1087(19)
H92 H -0.9501 -0.4256 -0.1290
H93 H -1.0002 -0.4297 -0.1317
H94 H -0.9735 -0.4616 -0.0958
C109 C -0.326(2) -0.2312(16) 0.3033(16)
H95 H -0.2983 -0.2260 0.3190
H96 H -0.3390 -0.2029 0.2995
C110 C -0.315(2) -0.242(2) 0.2452(15)
H97 H -0.3382 -0.2583 0.2293
H98 H -0.2893 -0.2588 0.2445
H99 H -0.3110 -0.2161 0.2249
O27 O -0.3490(10) -0.2478(11) 0.3478(12)
O22 O -0.039(2) 0.084(2) 0.041(3)
O23 O -0.0174(16) -0.1022(16) -0.136(2)
C111 C -0.0902(18) -0.473(3) -0.0252(13)
H100 H -0.0612 -0.4621 -0.0246
H101 H -0.0868 -0.5042 -0.0230
O26 O -0.1015(13) -0.4678(13) -0.0799(12)
C114 C -0.106(2) -0.463(2) 0.0313(13)
H105 H -0.1245 -0.4383 0.0297
H106 H -0.0815 -0.4560 0.0540
H107 H -0.1208 -0.4868 0.0461
O24 O -0.3570(18) -0.2514(18) -0.310(2)
O25 O -0.946(2) -0.528(2) -0.375(3)
O28 O -0.9071(16) -0.4362(16) -0.422(2)
O30 O -0.974(3) -0.939(3) 0.353(3)
loop_
_geom_bond_atom_site_label_1
_geom_bond_atom_site_label_2
_geom_bond_site_symmetry_1
_geom_bond_site_symmetry_2
Ni1 N2 1_555 1_555
Ni2 N5 1_555 1_555
Ni3 O7 1_555 1_555
Ni4 O1 1_555 1_555
N1 C1 1_555 1_555
C1 H1 1_555 1_555
C2 C1 1_555 1_555
H2 C2 1_555 1_555
C3 C2 1_555 1_555
C4 C3 1_555 1_555
H3 C4 1_555 1_555
C5 N1 1_555 1_555
H4 C5 1_555 1_555
C6 C3 1_555 1_555
C7 C6 1_555 1_555
H5 C7 1_555 1_555
C8 C7 1_555 1_555
H6 C8 1_555 1_555
C9 C8 1_555 1_555
C10 C9 1_555 1_555
H7 C10 1_555 1_555
C11 C6 1_555 1_555
H8 C11 1_555 1_555
C12 C9 1_555 1_555
O1 C12 1_555 1_555
O2 Ni4 1_555 1_555
N2 C13 1_555 1_555
C13 H9 1_555 1_555
C14 C13 1_555 1_555
H10 C14 1_555 1_555
C15 C14 1_555 1_555
C16 C15 1_555 1_555
H11 C16 1_555 1_555
C17 N2 1_555 1_555
H12 C17 1_555 1_555
C18 C15 1_555 1_555
C19 C18 1_555 1_555
H13 C19 1_555 1_555
C20 C19 1_555 1_555
H14 C20 1_555 1_555
C21 C20 1_555 1_555
C22 C21 1_555 1_555
H15 C22 1_555 1_555
C23 C18 1_555 1_555
H16 C23 1_555 1_555
C24 C21 1_555 1_555
O3 Ni4 1_555 1_555
O4 Ni4 1_555 1_555
N3 C25 1_555 1_555
C25 H17 1_555 1_555
C26 C25 1_555 1_555
H18 C26 1_555 1_555
C27 C26 1_555 1_555
C28 C27 1_555 1_555
H19 C28 1_555 1_555
C29 N3 1_555 1_555
H20 C29 1_555 1_555
C30 C27 1_555 1_555
C31 C30 1_555 1_555
H21 C31 1_555 1_555
C32 C31 1_555 1_555
H22 C32 1_555 1_555
C33 C32 1_555 1_555
C34 C33 1_555 1_555
H23 C34 1_555 1_555
C35 C30 1_555 1_555
H24 C35 1_555 1_555
C36 C33 1_555 1_555
O5 Ni1 1_555 1_555
O6 Ni1 1_555 1_555
N4 Ni4 1_555 1_555
C37 N4 1_555 1_555
H25 C37 1_555 1_555
C38 C37 1_555 1_555
H26 C38 1_555 1_555
C39 C38 1_555 1_555
C40 C39 1_555 1_555
H27 C40 1_555 1_555
C41 N4 1_555 1_555
H28 C41 1_555 1_555
C42 C39 1_555 1_555
C43 C42 1_555 1_555
H29 C43 1_555 1_555
C44 C43 1_555 1_555
H30 C44 1_555 1_555
C45 C44 1_555 1_555
C46 C45 1_555 1_555
H31 C46 1_555 1_555
C47 C42 1_555 1_555
H32 C47 1_555 1_555
C48 C45 1_555 1_555
O7 C48 1_555 1_555
O8 Ni3 1_555 1_555
N5 C49 1_555 1_555
C49 H33 1_555 1_555
C50 C49 1_555 1_555
H34 C50 1_555 1_555
C51 C50 1_555 1_555
C52 C51 1_555 1_555
H35 C52 1_555 1_555
C53 N5 1_555 1_555
H36 C53 1_555 1_555
C54 C51 1_555 1_555
C55 C54 1_555 1_555
H37 C55 1_555 1_555
C56 C55 1_555 1_555
H38 C56 1_555 1_555
C57 C56 1_555 1_555
C58 C57 1_555 1_555
H39 C58 1_555 1_555
C59 C54 1_555 1_555
H40 C59 1_555 1_555
C60 C57 1_555 1_555
O9 C60 1_555 1_555
O10 C60 1_555 1_555
N6 C61 1_555 1_555
C61 H41 1_555 1_555
C62 C61 1_555 1_555
H42 C62 1_555 1_555
C63 C62 1_555 1_555
C64 C63 1_555 1_555
H43 C64 1_555 1_555
C65 N6 1_555 1_555
H44 C65 1_555 1_555
C66 C63 1_555 1_555
C67 C66 1_555 1_555
H45 C67 1_555 1_555
C68 C67 1_555 1_555
H46 C68 1_555 1_555
C69 C68 1_555 1_555
C70 C69 1_555 1_555
H47 C70 1_555 1_555
C71 C66 1_555 1_555
H48 C71 1_555 1_555
C72 C69 1_555 1_555
O11 Ni2 1_555 1_555
O12 Ni2 1_555 1_555
N7 Ni1 1_555 1_555
C73 N7 1_555 1_555
H49 C73 1_555 1_555
C74 C73 1_555 1_555
H50 C74 1_555 1_555
C75 C74 1_555 1_555
C76 C75 1_555 1_555
H51 C76 1_555 1_555
C77 N7 1_555 1_555
H52 C77 1_555 1_555
C78 C75 1_555 1_555
C79 C78 1_555 1_555
H53 C79 1_555 1_555
C80 C79 1_555 1_555
H54 C80 1_555 1_555
C81 C80 1_555 1_555
C82 C81 1_555 1_555
H55 C82 1_555 1_555
C83 C78 1_555 1_555
H56 C83 1_555 1_555
C84 C81 1_555 1_555
O13 Ni2 1_555 1_555
O14 Ni2 1_555 1_555
N8 C85 1_555 1_555
C85 H57 1_555 1_555
C86 C85 1_555 1_555
H58 C86 1_555 1_555
C87 C86 1_555 1_555
C88 C87 1_555 1_555
H59 C88 1_555 1_555
C89 N8 1_555 1_555
H60 C89 1_555 1_555
C90 C87 1_555 1_555
C91 C90 1_555 1_555
H61 C91 1_555 1_555
C92 C91 1_555 1_555
H62 C92 1_555 1_555
C93 H63 1_555 1_555
C94 C90 1_555 1_555
H64 C94 1_555 1_555
C95 O15 1_555 1_555
O15 Ni1 1_555 1_555
O16 Ni1 1_555 1_555
O17 C96 1_555 1_555
C96 H65 1_555 1_555
N9 C96 1_555 1_555
C97 N9 1_555 1_555
H66 C97 1_555 1_555
H67 C97 1_555 1_555
H68 C97 1_555 1_555
C98 N9 1_555 1_555
H69 C98 1_555 1_555
H70 C98 1_555 1_555
H71 C98 1_555 1_555
O18 C99 1_555 1_555
C99 H72 1_555 1_555
N10 C99 1_555 1_555
C100 N10 1_555 1_555
H73 C100 1_555 1_555
H74 C100 1_555 1_555
H75 C100 1_555 1_555
O19 C101 1_555 1_555
C101 H76 1_555 1_555
N11 C101 1_555 1_555
C102 N11 1_555 1_555
H77 C102 1_555 1_555
H78 C102 1_555 1_555
H79 C102 1_555 1_555
C103 N11 1_555 1_555
H80 C103 1_555 1_555
H81 C103 1_555 1_555
H82 C103 1_555 1_555
O20 C104 1_555 1_555
C104 H83 1_555 1_555
N12 C104 1_555 1_555
C105 N12 1_555 1_555
H84 C105 1_555 1_555
H85 C105 1_555 1_555
H86 C105 1_555 1_555
C106 N12 1_555 1_555
H87 C106 1_555 1_555
H88 C106 1_555 1_555
H89 C106 1_555 1_555
O21 C107 1_555 1_555
C107 H90 1_555 1_555
H91 C107 1_555 1_555
C108 C107 1_555 1_555
H92 C108 1_555 1_555
H93 C108 1_555 1_555
H94 C108 1_555 1_555
C109 H95 1_555 1_555
H96 C109 1_555 1_555
C110 C109 1_555 1_555
H97 C110 1_555 1_555
H98 C110 1_555 1_555
H99 C110 1_555 1_555
C111 H100 1_555 1_555
H101 C111 1_555 1_555
C112 N10 1_555 1_555
H102 C112 1_555 1_555
H103 C112 1_555 1_555
H104 C112 1_555 1_555
C113 C92 1_555 1_555
O26 C111 1_555 1_555
O27 C109 1_555 1_555
C114 C111 1_555 1_555
H105 C114 1_555 1_555
H106 C114 1_555 1_555
H107 C114 1_555 1_555
Ni2F N8 1_555 1_555
Ni3F N1 1_555 1_555
Ni3_2 O9 1_555 1_555
Ni3F_2 N6 1_555 1_555
Ni4F N3 1_555 1_555
N1F Ni3 1_555 1_555
N3F Ni4 1_555 1_555
O9_2 Ni3 1_555 1_555
O10_2 Ni3 1_555 1_555
N6F Ni3 1_555 1_555
N8F Ni2 1_555 1_555
C4 C5 1_555 1_555
C10 C11 1_555 1_555
C12 O2 1_555 1_555
C16 C17 1_555 1_555
C22 C23 1_555 1_555
C24 O3 1_555 1_555
C24 O4 1_555 1_555
C28 C29 1_555 1_555
C34 C35 1_555 1_555
C36 O5 1_555 1_555
C36 O6 1_555 1_555
C40 C41 1_555 1_555
C46 C47 1_555 1_555
C48 O8 1_555 1_555
C52 C53 1_555 1_555
C58 C59 1_555 1_555
O10 Ni3_2 1_555 1_555
C64 C65 1_555 1_555
C70 C71 1_555 1_555
C72 O11 1_555 1_555
C72 O12 1_555 1_555
C76 C77 1_555 1_555
C82 C83 1_555 1_555
C84 O13 1_555 1_555
C84 O14 1_555 1_555
C88 C89 1_555 1_555
C93 C94 1_555 1_555
C93 C113 1_555 1_555
C95 O16 1_555 1_555
C95 C113 1_555 1_555

#END
