
#######################################################################
#
#                 Cambridge Crystallographic Data Centre
#                                CCDC 
#
#######################################################################
#
# If this CIF has been generated from an entry in the Cambridge 
# Structural Database, then it will include bibliographic, chemical, 
# crystal, experimental, refinement or atomic coordinate data resulting 
# from the CCDC's data processing and validation procedures.
#
#######################################################################

data_JIVSEN01
_chemical_formula_moiety         'C48 H30 Cl4 Cu1 N2 O38 Sm11'
_symmetry_cell_setting           monoclinic
_symmetry_space_group_name_H-M   'C 2/m'
_symmetry_Int_Tables_number      12
_space_group_name_Hall           '-C 2y'
loop_
_symmetry_equiv_pos_site_id
_symmetry_equiv_pos_as_xyz
1 x,y,z
2 1/2+x,1/2+y,z
3 -x,y,-z
4 1/2-x,1/2+y,-z
5 -x,-y,-z
6 1/2-x,1/2-y,-z
7 x,-y,z
8 1/2+x,1/2-y,z
_cell_length_a                   36.840(7)
_cell_length_b                   7.0063(14)
_cell_length_c                   6.1988(12)
_cell_angle_alpha                90
_cell_angle_beta                 97.45(3)
_cell_angle_gamma                90
_cell_volume                     1586.48
loop_
_atom_site_label
_atom_site_type_symbol
_atom_site_fract_x
_atom_site_fract_y
_atom_site_fract_z
Sm1 Sm 0.28005(2) 0.5000 0.47849(13)
Cu1 Cu 0.5000 0.5000 0.0000
O1 O 0.3192(3) 0.5000 0.1918(18)
O2 O 0.3467(4) 0.441(2) 0.512(3)
O3 O 0.2327(3) 0.5000 0.1663(17)
O4 O 0.2005(3) 0.1902(12) 0.2114(14)
O6 O 0.2241(2) 0.3469(12) -0.3794(17)
N1 N 0.4539(4) 0.5000 0.097(2)
C1 C 0.4497(5) 0.432(2) 0.302(3)
H1 H 0.4701(13) 0.37(3) 0.390(16)
C2 C 0.4151(4) 0.424(3) 0.369(3)
H2 H 0.4112(10) 0.35(2) 0.493(18)
C3 C 0.3852(4) 0.5000 0.236(2)
C4 C 0.3880(4) 0.542(3) 0.018(2)
H3 H 0.3682(5) 0.5000 -0.091(3)
C5 C 0.4231(4) 0.552(3) -0.044(3)
H4 H 0.4254(8) 0.58(3) -0.194(9)
C6 C 0.3486(4) 0.5000 0.317(3)
C7 C 0.17491(18) 0.5000 -0.2375(11)
C8 C 0.17331(19) 0.4211(9) -0.0309(11)
C9 C 0.1398(2) 0.4101(10) 0.0510(14)
H5 H 0.1387 0.3581 0.1927
C10 C 0.1080(2) 0.4751(9) -0.0737(14)
H6 H 0.0850 0.4677 -0.0175
C11 C 0.1096(2) 0.5511(13) -0.2802(13)
H7 H 0.0878 0.5957 -0.3657
C12 C 0.1431(2) 0.5620(10) -0.3622(12)
H8 H 0.1441 0.6123 -0.5048
C13 C 0.20940(19) 0.5008(5) -0.3353(11)
C14 C 0.2063(2) 0.361(2) 0.1257(12)
Sm1D Sm 0.71995(2) 0.5000 -0.47849(13)
Sm1E Sm 0.21995(2) -0.0000 0.52151(13)
Sm1_2 Sm 0.28005(2) 0.5000 -0.52151(13)
Sm1E_2 Sm 0.21995(2) 0.0000 -0.47849(13)
Sm1E_3 Sm 0.21995(2) 1.0000 0.52151(13)
Sm1E_4 Sm 0.21995(2) 1.0000 -0.47849(13)
Sm1_3 Sm 0.28005(2) 0.5000 1.47849(13)
Sm1E_5 Sm 0.21995(2) 0.0000 1.52151(13)
Sm1_4 Sm 0.28005(2) -0.5000 0.47849(13)
Sm1_5 Sm 0.28005(2) -0.5000 1.47849(13)
O1D O 0.6808(3) 0.5000 -0.1918(18)
O2F O 0.3467(4) 0.559(2) 0.512(3)
O2D O 0.6533(4) 0.559(2) -0.512(3)
O2B O 0.6533(4) 0.441(2) -0.512(3)
O3E O 0.2673(3) 0.0000 0.8337(17)
O3D O 0.7673(3) 0.5000 -0.1663(17)
O4F O 0.2005(3) 0.8098(12) 0.2114(14)
O4E O 0.2995(3) 0.3098(12) 0.7886(14)
O4C O 0.2995(3) -0.3098(12) 0.7886(14)
O4C_2 O 0.2995(3) 0.6902(12) 0.7886(14)
O4A O 0.7005(3) 0.6902(12) -0.7886(14)
O4G O 0.7005(3) 0.3098(12) -0.7886(14)
O6F O 0.2241(2) 0.6531(12) -0.3794(17)
O6E O 0.2759(2) 0.1531(12) 1.3794(17)
O6C O 0.2759(2) -0.1531(12) 1.3794(17)
O6_2 O 0.2241(2) 0.3469(12) 0.6206(17)
O6F_2 O 0.2241(2) 0.6531(12) 0.6206(17)
O6E_2 O 0.2759(2) 0.1531(12) 0.3794(17)
O6C_2 O 0.2759(2) 0.8469(12) 0.3794(17)
O6A O 0.7241(2) 0.8469(12) -0.3794(17)
O6G O 0.7241(2) 0.1531(12) -0.3794(17)
O6D O 0.7759(2) 0.6531(12) -0.6206(17)
O6B O 0.7759(2) 0.3469(12) -0.6206(17)
N1D N 0.5461(4) 0.5000 -0.097(2)
C1F C 0.4497(5) 0.568(2) 0.302(3)
C1D C 0.5503(5) 0.568(2) -0.302(3)
C1B C 0.5503(5) 0.432(2) -0.302(3)
H1F H 0.4701(13) 0.63(3) 0.390(16)
H1D H 0.5299(13) 0.63(3) -0.390(16)
H1B H 0.5299(13) 0.37(3) -0.390(16)
C2F C 0.4151(4) 0.576(3) 0.369(3)
C2D C 0.5849(4) 0.576(3) -0.369(3)
C2B C 0.5849(4) 0.424(3) -0.369(3)
H2F H 0.4112(10) 0.65(2) 0.493(18)
H2D H 0.5888(10) 0.65(2) -0.493(18)
H2B H 0.5888(10) 0.35(2) -0.493(18)
C3D C 0.6148(4) 0.5000 -0.236(2)
C4F C 0.3880(4) 0.458(3) 0.018(2)
C4D C 0.6120(4) 0.458(3) -0.018(2)
C4B C 0.6120(4) 0.542(3) -0.018(2)
H3D H 0.6318(5) 0.5000 0.091(3)
C5F C 0.4231(4) 0.448(3) -0.044(3)
C5D C 0.5769(4) 0.448(3) 0.044(3)
C5B C 0.5769(4) 0.552(3) 0.044(3)
H4F H 0.4254(8) 0.42(3) -0.194(9)
H4D H 0.5746(8) 0.42(3) 0.194(9)
H4B H 0.5746(8) 0.58(3) 0.194(9)
C6D C 0.6514(4) 0.5000 -0.317(3)
C7E C 0.32509(18) 0.0000 1.2375(11)
C8F C 0.17331(19) 0.5789(9) -0.0309(11)
C8E C 0.32669(19) 0.0789(9) 1.0309(11)
C8C C 0.32669(19) -0.0789(9) 1.0309(11)
C9F C 0.1398(2) 0.5899(10) 0.0510(14)
C9E C 0.3602(2) 0.0899(10) 0.9490(14)
C9C C 0.3602(2) -0.0899(10) 0.9490(14)
H5F H 0.1387 0.6419 0.1927
H5E H 0.3613 0.1419 0.8073
H5C H 0.3613 -0.1419 0.8073
C10F C 0.1080(2) 0.5249(9) -0.0737(14)
C10E C 0.3920(2) 0.0249(9) 1.0737(14)
C10C C 0.3920(2) -0.0249(9) 1.0737(14)
H6F H 0.0850 0.5323 -0.0175
H6E H 0.4150 0.0323 1.0175
H6C H 0.4150 -0.0323 1.0175
C11F C 0.1096(2) 0.4489(13) -0.2802(13)
C11E C 0.3904(2) -0.0511(13) 1.2802(13)
C11C C 0.3904(2) 0.0511(13) 1.2802(13)
H7F H 0.0878 0.4043 -0.3657
H7E H 0.4122 -0.0957 1.3657
H7C H 0.4122 0.0957 1.3657
C12F C 0.1431(2) 0.4380(10) -0.3622(12)
C12E C 0.3569(2) -0.0620(10) 1.3622(12)
C12C C 0.3569(2) 0.0620(10) 1.3622(12)
H8F H 0.1441 0.3877 -0.5048
H8E H 0.3559 -0.1123 1.5048
H8C H 0.3559 0.1123 1.5048
C13E C 0.29060(19) -0.0008(5) 1.3353(11)
C14F C 0.2063(2) 0.639(2) 0.1257(12)
C14E C 0.2937(2) 0.139(2) 0.8743(12)
C14C C 0.2937(2) -0.139(2) 0.8743(12)
Cl1 Cl 0.4850(5) -0.009(4) -0.236(3)
O7 O 0.4997(4) -0.010(5) -0.002(3)
O8 O 0.4657(4) 0.158(4) -0.299(3)
O9 O 0.5163(5) -0.010(5) -0.347(3)
Cl1F Cl 0.4850(5) 0.009(4) -0.236(3)
Cl1D Cl 0.5150(5) 0.009(4) 0.236(3)
Cl1B Cl 0.5150(5) -0.009(4) 0.236(3)
O7F O 0.4997(4) 0.010(5) -0.002(3)
O8F O 0.4657(4) -0.158(4) -0.299(3)
O8B O 0.5343(4) 0.158(4) 0.299(3)
O8D O 0.5343(4) -0.158(4) 0.299(3)
O9F O 0.5163(5) 0.010(5) -0.347(3)
O9B O 0.4837(5) -0.010(5) 0.347(3)
O9D O 0.4837(5) 0.010(5) 0.347(3)
loop_
_geom_bond_atom_site_label_1
_geom_bond_atom_site_label_2
_geom_bond_site_symmetry_1
_geom_bond_site_symmetry_2
Sm1 O1 1_555 1_555
Cu1 N1 1_555 1_555
O1 C6 1_555 1_555
O2 Sm1 1_555 1_555
O3 Sm1 1_555 1_555
O4 C14 1_555 1_555
O6 C13 1_555 1_555
N1 C1 1_555 1_555
C1 H1 1_555 1_555
C2 C1 1_555 1_555
H2 C2 1_555 1_555
C3 C2 1_555 1_555
C4 C3 1_555 1_555
H3 C4 1_555 1_555
C5 N1 1_555 1_555
H4 C5 1_555 1_555
C6 O2 1_555 1_555
C7 C8 1_555 1_555
C8 C9 1_555 1_555
C9 H5 1_555 1_555
C10 C9 1_555 1_555
H6 C10 1_555 1_555
C11 C10 1_555 1_555
H7 C11 1_555 1_555
C12 C7 1_555 1_555
H8 C12 1_555 1_555
C13 C7 1_555 1_555
C14 O3 1_555 1_555
Cl1 O7 1_555 1_555
O7 Cl1F 1_555 1_555
O8 Cl1 1_555 1_555
O9 Cl1 1_555 1_555
Sm1D O1D 1_555 1_555
Sm1E O4 1_555 1_555
Sm1_2 O6 1_555 1_555
Sm1E_2 O6 1_555 1_555
Sm1E_3 O4F 1_555 1_555
Sm1E_4 O6F 1_555 1_555
Sm1_3 O6E 1_555 1_555
Sm1E_5 O6E 1_555 1_555
Sm1_4 O4C 1_555 1_555
Sm1_5 O6C 1_555 1_555
O1D C6D 1_555 1_555
O2F Sm1 1_555 1_555
O2D Sm1D 1_555 1_555
O2B Sm1D 1_555 1_555
O3E Sm1E 1_555 1_555
O3D Sm1D 1_555 1_555
O4F C14F 1_555 1_555
O4E Sm1 1_555 1_555
O4C C14C 1_555 1_555
O4C_2 Sm1 1_555 1_555
O4A Sm1D 1_555 1_555
O4G Sm1D 1_555 1_555
O6F C13 1_555 1_555
O6E C13E 1_555 1_555
O6C Sm1E_5 1_555 1_555
O6_2 Sm1 1_555 1_555
O6F_2 Sm1 1_555 1_555
O6E_2 Sm1 1_555 1_555
O6C_2 Sm1 1_555 1_555
O6A Sm1D 1_555 1_555
O6G Sm1D 1_555 1_555
O6D Sm1D 1_555 1_555
O6B Sm1D 1_555 1_555
N1D Cu1 1_555 1_555
C1F N1 1_555 1_555
C1D N1D 1_555 1_555
C1B N1D 1_555 1_555
H1F C1F 1_555 1_555
H1D C1D 1_555 1_555
H1B C1B 1_555 1_555
C2F C1 1_555 1_555
C2D C1D 1_555 1_555
C2B C1D 1_555 1_555
H2F C2F 1_555 1_555
H2D C2D 1_555 1_555
H2B C2B 1_555 1_555
C3D C2D 1_555 1_555
C4F C3 1_555 1_555
C4D C3D 1_555 1_555
C4B C3D 1_555 1_555
H3D C4D 1_555 1_555
C5F N1 1_555 1_555
C5D N1D 1_555 1_555
C5B N1D 1_555 1_555
H4F C5F 1_555 1_555
H4D C5D 1_555 1_555
H4B C5B 1_555 1_555
C6D O2D 1_555 1_555
C7E C8E 1_555 1_555
C8F C7 1_555 1_555
C8E C8C 1_555 1_555
C8C C7E 1_555 1_555
C9F C9 1_555 1_555
C9E C8E 1_555 1_555
C9C C8C 1_555 1_555
H5F C9F 1_555 1_555
H5E C9E 1_555 1_555
H5C C9C 1_555 1_555
C10F C9 1_555 1_555
C10E C9E 1_555 1_555
C10C C9E 1_555 1_555
H6F C10 1_555 1_555
H6E C10E 1_555 1_555
H6C C10E 1_555 1_555
C11F C10 1_555 1_555
C11E C10E 1_555 1_555
C11C C10E 1_555 1_555
H7F C11F 1_555 1_555
H7E C11E 1_555 1_555
H7C C11C 1_555 1_555
C12F C7 1_555 1_555
C12E C7E 1_555 1_555
C12C C7E 1_555 1_555
H8F C12F 1_555 1_555
H8E C12E 1_555 1_555
H8C C12C 1_555 1_555
C13E O6C 1_555 1_555
C14F O3 1_555 1_555
C14E O3E 1_555 1_555
C14C O3E 1_555 1_555
Cl1F Cl1 1_555 1_555
Cl1D O7 1_555 1_555
Cl1B O7 1_555 1_555
O7F Cl1 1_555 1_555
O8F Cl1 1_555 1_555
O8B Cl1D 1_555 1_555
O8D Cl1D 1_555 1_555
O9F Cl1 1_555 1_555
O9B Cl1D 1_555 1_555
O9D Cl1D 1_555 1_555
O2 O2F 1_555 1_555
C1 C1F 1_555 1_555
C2 C1F 1_555 1_555
C2 C2F 1_555 1_555
C3 C6 1_555 1_555
C3 C2F 1_555 1_555
C4 C5 1_555 1_555
C4 C4F 1_555 1_555
C4 C5F 1_555 1_555
H3 C4F 1_555 1_555
C5 C4F 1_555 1_555
C5 C5F 1_555 1_555
C6 O2F 1_555 1_555
C8 C14 1_555 1_555
C8 C8F 1_555 1_555
C10 C9F 1_555 1_555
C10 C10F 1_555 1_555
H6 C10F 1_555 1_555
H6 H6F 1_555 1_555
C11 C12 1_555 1_555
C11 C10F 1_555 1_555
C11 C11F 1_555 1_555
C11 C12F 1_555 1_555
C12 C11F 1_555 1_555
C12 C12F 1_555 1_555
O7 O7F 1_555 1_555
O8 Cl1F 1_555 1_555
O9 Cl1F 1_555 1_555
O9 O9F 1_555 1_555
Sm1E O6_2 1_555 1_555
Sm1E O6E_2 1_555 1_555
Sm1_2 O6F 1_555 1_555
Sm1E_3 O6F_2 1_555 1_555
Sm1E_3 O6C_2 1_555 1_555
O2D O2B 1_555 1_555
O2B C6D 1_555 1_555
O4E C14E 1_555 1_555
C1F C2F 1_555 1_555
C1D C1B 1_555 1_555
C1B C2D 1_555 1_555
C1B C2B 1_555 1_555
C2D C2B 1_555 1_555
C2B C3D 1_555 1_555
C3D C6D 1_555 1_555
C4F C5F 1_555 1_555
C4D C4B 1_555 1_555
C4D C5D 1_555 1_555
C4D C5B 1_555 1_555
C4B H3D 1_555 1_555
C4B C5D 1_555 1_555
C4B C5B 1_555 1_555
C5D C5B 1_555 1_555
C7E C13E 1_555 1_555
C8F C9F 1_555 1_555
C8F C14F 1_555 1_555
C8E C14E 1_555 1_555
C8C C14C 1_555 1_555
C9F C10F 1_555 1_555
C9E C9C 1_555 1_555
C9C C10E 1_555 1_555
C9C C10C 1_555 1_555
C10F H6F 1_555 1_555
C10F C11F 1_555 1_555
C10E C10C 1_555 1_555
C10C H6E 1_555 1_555
C10C H6C 1_555 1_555
C10C C11E 1_555 1_555
C10C C11C 1_555 1_555
H6E H6C 1_555 1_555
C11F C12F 1_555 1_555
C11E C11C 1_555 1_555
C11E C12E 1_555 1_555
C11E C12C 1_555 1_555
C11C C12E 1_555 1_555
C11C C12C 1_555 1_555
C12E C12C 1_555 1_555
Cl1F O7F 1_555 1_555
Cl1F O8F 1_555 1_555
Cl1F O9F 1_555 1_555
Cl1D Cl1B 1_555 1_555
Cl1D O7F 1_555 1_555
Cl1B O7F 1_555 1_555
Cl1B O8B 1_555 1_555
Cl1B O8D 1_555 1_555
Cl1B O9B 1_555 1_555
Cl1B O9D 1_555 1_555
O9B O9D 1_555 1_555

#END
