
#######################################################################
#
#                 Cambridge Crystallographic Data Centre
#                                CCDC 
#
#######################################################################
#
# If this CIF has been generated from an entry in the Cambridge 
# Structural Database, then it will include bibliographic, chemical, 
# crystal, experimental, refinement or atomic coordinate data resulting 
# from the CCDC's data processing and validation procedures.
#
#######################################################################

data_PORLEP
_chemical_formula_moiety         'C116 H101 Cu20 I23 N31 O2'
_symmetry_cell_setting           monoclinic
_symmetry_space_group_name_H-M   'C 2/c'
_symmetry_Int_Tables_number      15
_space_group_name_Hall           '-C 2yc'
loop_
_symmetry_equiv_pos_site_id
_symmetry_equiv_pos_as_xyz
1 x,y,z
2 -x,y,1/2-z
3 1/2+x,1/2+y,z
4 1/2-x,1/2+y,1/2-z
5 -x,-y,-z
6 x,-y,1/2+z
7 1/2-x,1/2-y,-z
8 1/2+x,1/2-y,1/2+z
_cell_length_a                   52.421(3)
_cell_length_b                   38.733(3)
_cell_length_c                   15.4272(10)
_cell_angle_alpha                90
_cell_angle_beta                 102.3770(10)
_cell_angle_gamma                90
_cell_volume                     30595.7
loop_
_atom_site_label
_atom_site_type_symbol
_atom_site_fract_x
_atom_site_fract_y
_atom_site_fract_z
O1 O 0.2927(7) 0.3727(9) 0.687(3)
N29 N 0.2601(4) 0.3449(5) 0.7430(12)
C109 C 0.2696(6) 0.3732(5) 0.7008(14)
C110 C 0.2329(4) 0.3440(10) 0.762(3)
H84 H 0.2235 0.3240 0.7323
H85 H 0.2235 0.3652 0.7391
H86 H 0.2341 0.3424 0.8259
C111 C 0.2773(4) 0.3140(5) 0.7723(13)
H87 H 0.2881 0.3094 0.7289
H88 H 0.2663 0.2938 0.7766
H89 H 0.2886 0.3186 0.8304
C112 C 0.2522(7) 0.4008(10) 0.661(2)
H90 H 0.2563 0.4219 0.6964
H91 H 0.2341 0.3940 0.6596
H92 H 0.2544 0.4050 0.6005
O2 O 0.2116(2) 0.4192(3) -0.1829(8)
N30 N 0.1878(3) 0.3722(3) -0.1482(12)
C113 C 0.1808(6) 0.3482(5) -0.0788(16)
H93 H 0.1617 0.3470 -0.0869
H94 H 0.1884 0.3570 -0.0194
H95 H 0.1876 0.3250 -0.0855
C114 C 0.1763(6) 0.3687(7) -0.2485(13)
H96 H 0.1874 0.3535 -0.2752
H97 H 0.1754 0.3915 -0.2764
H98 H 0.1587 0.3589 -0.2576
C115 C 0.2130(3) 0.4047(5) -0.0229(10)
H99 H 0.2263 0.4228 -0.0075
H100 H 0.2199 0.3830 0.0055
H101 H 0.1973 0.4113 -0.0021
C116 C 0.2062(4) 0.3998(4) -0.1238(11)
I1 I 0.15738(2) -0.17957(3) 1.26023(6)
Cu1 Cu 0.17682(4) -0.12295(5) 1.20380(11)
Cu2 Cu 0.20648(4) -0.16362(5) 1.32000(13)
Cu3 Cu 0.17024(4) -0.12421(5) 1.37592(12)
I2 I 0.16183(2) -0.06644(3) 1.28441(7)
I3 I 0.227657(19) -0.12406(3) 1.20686(6)
N1 N 0.1589(2) -0.1166(3) 1.0775(7)
I4 I 0.21741(2) -0.13140(3) 1.48363(6)
N2 N 0.2297(2) -0.2050(3) 1.3392(8)
N3 N 0.1460(2) -0.1307(3) 1.4584(6)
Cu4 Cu 0.21067(4) -0.09112(5) 1.33704(12)
C1 C 0.1680(3) -0.1003(3) 1.0175(9)
C2 C 0.1334(3) -0.1237(4) 1.0383(9)
C3 C 0.2554(3) -0.2020(4) 1.3687(9)
C4 C 0.2258(3) -0.2388(4) 1.3415(9)
N4 N 0.2339(2) -0.0497(3) 1.3658(7)
N5 N 0.1508(2) -0.0961(3) 0.9390(7)
H1 H 0.1854 -0.0919 1.0276
H2 H 0.1213 -0.1358 1.0649
C5 C 0.1283(3) -0.1101(4) 0.9529(11)
N6 N 0.2681(2) -0.2325(3) 1.3902(7)
H3 H 0.2641 -0.1804 1.3742
H4 H 0.2092 -0.2494 1.3226
C6 C 0.2479(3) -0.2567(4) 1.3736(9)
C7 C 0.2569(3) -0.0445(4) 1.3459(9)
C8 C 0.2301(3) -0.0204(4) 1.4093(8)
C9 C 0.1545(3) -0.0795(3) 0.8613(9)
H5 H 0.1120 -0.1106 0.9117
C10 C 0.2951(3) -0.2371(4) 1.4284(8)
H6 H 0.2494 -0.2809 1.3831
N7 N 0.2678(2) -0.0145(3) 1.3750(7)
H7 H 0.2649 -0.0607 1.3139
H8 H 0.2151 -0.0159 1.4330
C11 C 0.2503(3) 0.0018(4) 1.4148(9)
C12 C 0.1742(3) -0.0535(4) 0.8687(8)
C13 C 0.1402(4) -0.0854(4) 0.7776(10)
C14 C 0.3120(3) -0.2129(4) 1.4215(9)
C15 C 0.3030(3) -0.2671(4) 1.4715(9)
C16 C 0.2931(3) -0.0030(4) 1.3677(8)
H9 H 0.2520 0.0241 1.4410
H10 H 0.1845 -0.0480 0.9254
C17 C 0.1783(3) -0.0367(4) 0.7960(9)
C18 C 0.1434(3) -0.0699(4) 0.7073(10)
H11 H 0.1268 -0.1022 0.7711
C19 C 0.3376(3) -0.2153(4) 1.4677(9)
H12 H 0.3067 -0.1935 1.3843
H13 H 0.2910 -0.2855 1.4703
C20 C 0.3285(3) -0.2707(4) 1.5167(9)
C21 C 0.3110(3) -0.0263(4) 1.3492(9)
C22 C 0.3001(3) 0.0315(5) 1.3787(11)
H14 H 0.1914 -0.0193 0.8017
C23 C 0.1629(3) -0.0453(4) 0.7108(9)
H15 H 0.1323 -0.0754 0.6518
C24 C 0.3458(3) -0.2434(4) 1.5193(8)
H16 H 0.3496 -0.1973 1.4636
H17 H 0.3342 -0.2918 1.5460
H18 H 0.3067 -0.0501 1.3412
C25 C 0.3346(4) -0.0144(4) 1.3428(9)
C26 C 0.3252(4) 0.0423(4) 1.3729(10)
H19 H 0.2878 0.0480 1.3903
N8 N 0.1679(3) -0.0287(3) 0.6344(8)
N9 N 0.3713(2) -0.2452(3) 1.5742(7)
H20 H 0.3469 -0.0304 1.3289
C27 C 0.3422(3) 0.0202(4) 1.3554(8)
H21 H 0.3299 0.0659 1.3818
C28 C 0.1939(3) -0.0163(4) 0.6338(9)
C29 C 0.1476(3) -0.0169(3) 0.5717(9)
C30 C 0.3738(3) -0.2268(4) 1.6587(10)
C31 C 0.3936(4) -0.2582(6) 1.5463(14)
N10 N 0.3679(2) 0.0309(3) 1.3475(7)
C32 C 0.2142(3) -0.0376(4) 0.6476(10)
C33 C 0.1977(3) 0.0178(4) 0.6174(8)
C34 C 0.1468(3) -0.0191(4) 0.4826(10)
C35 C 0.1274(4) 0.0010(5) 0.5928(10)
C36 C 0.3971(3) -0.2075(3) 1.6887(8)
C37 C 0.3552(3) -0.2258(5) 1.7063(10)
C38 C 0.4136(3) -0.2746(6) 1.6112(14)
C39 C 0.3955(3) -0.2534(6) 1.4553(13)
C40 C 0.3713(3) 0.0490(4) 1.2709(9)
C41 C 0.3882(3) 0.0133(4) 1.3993(10)
C42 C 0.2391(3) -0.0270(4) 0.6504(10)
H22 H 0.2111 -0.0614 0.6559
H23 H 0.1834 0.0334 0.6070
C43 C 0.2224(3) 0.0297(4) 0.6160(9)
C44 C 0.1274(3) -0.0051(5) 0.4203(10)
H24 H 0.1606 -0.0309 0.4636
H25 H 0.1267 0.0035 0.6534
C45 C 0.1072(3) 0.0163(5) 0.5259(11)
C46 C 0.4003(3) -0.1880(4) 1.7647(9)
H26 H 0.4105 -0.2081 1.6560
H27 H 0.3394 -0.2381 1.6857
C47 C 0.3583(3) -0.2075(4) 1.7837(9)
H28 H 0.4120 -0.2773 1.6710
C48 C 0.4354(4) -0.2864(6) 1.5828(14)
H29 H 0.3823 -0.2426 1.4122
C49 C 0.4186(3) -0.2661(6) 1.4364(14)
C50 C 0.3516(3) 0.0523(4) 1.1994(10)
C51 C 0.3954(3) 0.0638(5) 1.2693(10)
C52 C 0.3883(3) 0.0161(4) 1.4892(11)
C53 C 0.4058(3) -0.0086(4) 1.3709(8)
C54 C 0.2433(3) 0.0070(4) 0.6322(8)
H30 H 0.2533 -0.0428 0.6645
H31 H 0.2251 0.0534 0.6039
C55 C 0.1077(3) 0.0130(4) 0.4422(9)
H32 H 0.1276 -0.0082 0.3594
H33 H 0.0935 0.0289 0.5429
C56 C 0.3808(3) -0.1891(4) 1.8155(8)
H34 H 0.4154 -0.1739 1.7828
H35 H 0.3448 -0.2074 1.8159
C57 C 0.4384(4) -0.2817(6) 1.4986(15)
H36 H 0.4487 -0.2982 1.6236
H37 H 0.4210 -0.2640 1.3773
C58 C 0.3560(3) 0.0706(5) 1.1237(11)
H38 H 0.3350 0.0426 1.1993
H39 H 0.4095 0.0611 1.3190
C59 C 0.3992(3) 0.0826(4) 1.1966(10)
H40 H 0.3763 0.0311 1.5085
C60 C 0.4060(3) -0.0031(4) 1.5507(8)
C61 C 0.4234(3) -0.0278(4) 1.4325(11)
H41 H 0.4057 -0.0105 1.3095
N11 N 0.2693(2) 0.0198(3) 0.6273(7)
N12 N 0.0867(4) 0.0284(4) 0.3696(10)
N13 N 0.3834(2) -0.1690(3) 1.8932(7)
N14 N 0.4618(3) -0.2934(5) 1.4752(12)
C62 C 0.3791(3) 0.0855(4) 1.1236(9)
H42 H 0.3424 0.0721 1.0722
H43 H 0.4155 0.0934 1.1973
H44 H 0.4060 -0.0012 1.6122
C63 C 0.4235(3) -0.0250(4) 1.5224(10)
H45 H 0.4354 -0.0428 1.4131
C64 C 0.2772(3) 0.0533(4) 0.6340(9)
C65 C 0.2898(3) -0.0006(4) 0.6197(8)
C66 C 0.0708(3) 0.0478(5) 0.3807(11)
C67 C 0.0837(6) 0.0197(9) 0.2840(19)
C68 C 0.3741(3) -0.1756(4) 1.9647(9)
C69 C 0.3945(5) -0.1362(5) 1.9044(12)
C70 C 0.4872(4) -0.2850(6) 1.5133(15)
C71 C 0.4624(4) -0.3154(6) 1.4152(14)
N15 N 0.3829(2) 0.1056(3) 1.0496(7)
N16 N 0.4425(2) -0.0389(4) 1.5867(9)
N17 N 0.3018(2) 0.0554(3) 0.6286(7)
H46 H 0.2665 0.0724 0.6415
C72 C 0.3096(3) 0.0218(4) 0.6173(9)
H47 H 0.2902 -0.0251 0.6168
N18 N 0.0568(4) 0.0598(5) 0.3063(15)
H48 H 0.0683 0.0542 0.4377
C73 C 0.0663(6) 0.0440(12) 0.236(2)
H49 H 0.0916 0.0008 0.2606
N19 N 0.3777(3) -0.1500(3) 2.0233(8)
H50 H 0.3657 -0.1967 1.9733
C74 C 0.3898(4) -0.1258(5) 1.9873(14)
H51 H 0.4032 -0.1239 1.8658
H52 H 0.4928 -0.2707 1.5638
C75 C 0.5032(4) -0.3010(6) 1.4652(14)
N20 N 0.4877(3) -0.3226(5) 1.4125(12)
H53 H 0.4475 -0.3254 1.3777
C76 C 0.3690(3) 0.1030(4) 0.9645(10)
C77 C 0.3986(3) 0.1340(4) 1.0491(10)
C78 C 0.4504(3) -0.0735(4) 1.5766(9)
C79 C 0.4555(3) -0.0272(3) 1.6721(11)
Cu5 Cu 0.32306(4) 0.09842(5) 0.64770(12)
H54 H 0.3264 0.0154 0.6090
Cu6 Cu 0.02577(6) 0.09173(8) 0.27776(19)
H55 H 0.0621 0.0486 0.1741
Cu7 Cu 0.35903(4) -0.14268(5) 2.12089(12)
H56 H 0.3948 -0.1040 2.0138
H57 H 0.5213 -0.2972 1.4692
Cu8 Cu 0.49701(6) -0.35937(9) 1.3293(2)
N21 N 0.3758(2) 0.1252(3) 0.9136(8)
H58 H 0.3557 0.0863 0.9455
C80 C 0.3934(3) 0.1444(4) 0.9656(10)
H59 H 0.4105 0.1440 1.0979
H60 H 0.4447 -0.0876 1.5258
N22 N 0.4682(3) -0.0832(3) 1.6558(11)
C81 C 0.4713(3) -0.0546(5) 1.7148(8)
I5 I 0.30889(2) 0.13789(3) 0.50466(6)
I6 I 0.37299(2) 0.08040(3) 0.69056(7)
I7 I 0.305903(18) 0.12370(2) 0.79428(6)
I8 I 0.04568(3) 0.15388(5) 0.32017(13)
I9 I -0.00491(3) 0.07771(5) 0.39396(11)
I10 I 0.362226(18) -0.19591(3) 2.23008(6)
Cu9 Cu 0.35603(4) 0.13161(5) 0.78397(11)
H61 H 0.4015 0.1638 0.9452
Cu10 Cu 0.4810(3) -0.1306(4) 1.6899(13)
H62 H 0.4822 -0.0540 1.7726
Cu11 Cu 0.31603(3) 0.16706(5) 0.66729(12)
I11 I 0.46460(15) -0.18871(19) 1.6231(6)
I12 I 0.53377(5) -0.12588(7) 1.6340(2)
N23 N 0.2857(2) 0.2009(3) 0.6499(7)
C82 C 0.2637(3) 0.1938(4) 0.5935(9)
C83 C 0.2823(3) 0.2313(4) 0.6882(8)
N24 N 0.2456(2) 0.2196(3) 0.5982(7)
H63 H 0.2607 0.1743 0.5555
H64 H 0.2955 0.2428 0.7302
C84 C 0.2577(3) 0.2433(4) 0.6593(9)
C85 C 0.2195(3) 0.2207(4) 0.5520(9)
H65 H 0.2504 0.2638 0.6775
C86 C 0.2058(3) 0.2510(4) 0.5330(8)
C87 C 0.2071(3) 0.1886(4) 0.5171(9)
H66 H 0.2142 0.2723 0.5517
C88 C 0.1795(3) 0.2511(4) 0.4862(9)
C89 C 0.1819(3) 0.1897(4) 0.4730(10)
H67 H 0.2164 0.1674 0.5251
H68 H 0.1699 0.2721 0.4770
C90 C 0.1680(3) 0.2200(4) 0.4539(8)
H69 H 0.1733 0.1685 0.4542
N25 N 0.1417(2) 0.2202(3) 0.4049(7)
C91 C 0.1380(3) 0.2050(3) 0.3215(9)
C92 C 0.1206(3) 0.2282(4) 0.4463(8)
C93 C 0.1564(3) 0.2079(3) 0.2699(9)
C94 C 0.1158(3) 0.1839(4) 0.2831(8)
C95 C 0.0981(3) 0.2417(4) 0.4007(9)
C96 C 0.1244(3) 0.2212(4) 0.5342(9)
C97 C 0.1543(3) 0.1936(4) 0.1887(10)
H70 H 0.1716 0.2209 0.2931
C98 C 0.1143(2) 0.1674(4) 0.2020(8)
H71 H 0.1020 0.1813 0.3136
C99 C 0.0785(3) 0.2500(4) 0.4470(11)
H72 H 0.0954 0.2455 0.3386
H73 H 0.1403 0.2109 0.5647
C100 C 0.1048(4) 0.2291(5) 0.5796(10)
C101 C 0.1336(3) 0.1716(4) 0.1564(7)
H74 H 0.1668 0.1986 0.1542
H75 H 0.0997 0.1532 0.1784
C102 C 0.0822(3) 0.2430(5) 0.5361(10)
H76 H 0.0627 0.2605 0.4166
H77 H 0.1074 0.2246 0.6414
N26 N 0.13215(19) 0.1553(3) 0.0758(5)
N27 N 0.0613(2) 0.2496(5) 0.5864(9)
C103 C 0.15457(14) 0.1458(3) 0.0435(6)
C104 C 0.10970(14) 0.1461(4) 0.0107(8)
C105 C 0.0500(3) 0.2798(5) 0.5894(10)
C106 C 0.0537(3) 0.2278(5) 0.6448(12)
H78 H 0.1722 0.1490 0.0736
H79 H 0.0921 0.1495 0.0149
C107 C 0.1182(2) 0.1309(4) -0.0619(7)
N28 N 0.0351(2) 0.2797(4) 0.6462(9)
H80 H 0.0524 0.2991 0.5543
C108 C 0.0381(4) 0.2454(5) 0.6827(12)
H81 H 0.0587 0.2044 0.6558
H82 H 0.1073 0.1223 -0.1148
Cu12 Cu 0.01644(4) 0.31809(6) 0.69553(14)
H83 H 0.0299 0.2369 0.7277
I9A I 0.00491(3) 0.07771(5) 0.10604(11)
I5E I 0.30889(2) -0.13789(3) 2.00466(6)
I6E I 0.37299(2) -0.08040(3) 2.19056(7)
I8C I 0.45432(3) -0.34612(5) 1.17983(13)
I9B I 0.49509(3) -0.42229(5) 1.39396(11)
I8B I 0.54568(3) -0.34612(5) 1.32017(13)
Cu7E Cu 0.35903(4) 0.14268(5) 0.62089(12)
Cu6C Cu 0.47423(6) -0.40827(8) 1.22224(19)
Cu8A Cu 0.50299(6) -0.35937(9) 1.1707(2)
Cu6B Cu 0.52577(6) -0.40827(8) 1.27776(19)
I10E I 0.362226(18) 0.19591(3) 0.73008(6)
I12A I 0.46623(5) -0.12588(7) 1.8660(2)
N3E N 0.1460(2) 0.1307(3) -0.0416(6)
Cu3E Cu 0.17024(4) 0.12421(5) -0.12408(12)
I11C I 0.03540(15) 0.31129(19) 0.8769(6)
I12B I 0.03377(5) 0.37412(7) 0.6340(2)
I11B I -0.03540(15) 0.31129(19) 0.6231(6)
Cu10C Cu 0.0190(3) 0.3694(4) 0.8101(13)
Cu12A Cu -0.01644(4) 0.31809(6) 0.80447(14)
Cu10B Cu -0.0190(3) 0.3694(4) 0.6899(13)
loop_
_geom_bond_atom_site_label_1
_geom_bond_atom_site_label_2
_geom_bond_site_symmetry_1
_geom_bond_site_symmetry_2
I1 Cu1 1_555 1_555
Cu1 I2 1_555 1_555
Cu2 I1 1_555 1_555
Cu3 I1 1_555 1_555
I2 Cu3 1_555 1_555
I3 Cu1 1_555 1_555
N1 Cu1 1_555 1_555
I4 Cu2 1_555 1_555
N2 Cu2 1_555 1_555
N3 Cu3 1_555 1_555
Cu4 I2 1_555 1_555
C1 N1 1_555 1_555
C2 N1 1_555 1_555
C3 N2 1_555 1_555
C4 N2 1_555 1_555
N4 Cu4 1_555 1_555
N5 C1 1_555 1_555
H1 C1 1_555 1_555
H2 C2 1_555 1_555
C5 C2 1_555 1_555
N6 C3 1_555 1_555
H3 C3 1_555 1_555
H4 C4 1_555 1_555
C6 C4 1_555 1_555
C7 N4 1_555 1_555
C8 N4 1_555 1_555
C9 N5 1_555 1_555
H5 C5 1_555 1_555
C10 N6 1_555 1_555
H6 C6 1_555 1_555
N7 C7 1_555 1_555
H7 C7 1_555 1_555
H8 C8 1_555 1_555
C11 C8 1_555 1_555
C12 C9 1_555 1_555
C13 C9 1_555 1_555
C14 C10 1_555 1_555
C15 C10 1_555 1_555
C16 N7 1_555 1_555
H9 C11 1_555 1_555
H10 C12 1_555 1_555
C17 C12 1_555 1_555
C18 C13 1_555 1_555
H11 C13 1_555 1_555
C19 C14 1_555 1_555
H12 C14 1_555 1_555
H13 C15 1_555 1_555
C20 C15 1_555 1_555
C21 C16 1_555 1_555
C22 C16 1_555 1_555
H14 C17 1_555 1_555
C23 C17 1_555 1_555
H15 C18 1_555 1_555
C24 C19 1_555 1_555
H16 C19 1_555 1_555
H17 C20 1_555 1_555
H18 C21 1_555 1_555
C25 C21 1_555 1_555
C26 C22 1_555 1_555
H19 C22 1_555 1_555
N8 C23 1_555 1_555
N9 C24 1_555 1_555
H20 C25 1_555 1_555
C27 C25 1_555 1_555
H21 C26 1_555 1_555
C28 N8 1_555 1_555
C29 N8 1_555 1_555
C30 N9 1_555 1_555
C31 N9 1_555 1_555
N10 C27 1_555 1_555
C32 C28 1_555 1_555
C33 C28 1_555 1_555
C34 C29 1_555 1_555
C35 C29 1_555 1_555
C36 C30 1_555 1_555
C37 C30 1_555 1_555
C38 C31 1_555 1_555
C39 C31 1_555 1_555
C40 N10 1_555 1_555
C41 N10 1_555 1_555
C42 C32 1_555 1_555
H22 C32 1_555 1_555
H23 C33 1_555 1_555
C43 C33 1_555 1_555
C44 C34 1_555 1_555
H24 C34 1_555 1_555
H25 C35 1_555 1_555
C45 C35 1_555 1_555
C46 C36 1_555 1_555
H26 C36 1_555 1_555
H27 C37 1_555 1_555
C47 C37 1_555 1_555
H28 C38 1_555 1_555
C48 C38 1_555 1_555
H29 C39 1_555 1_555
C49 C39 1_555 1_555
C50 C40 1_555 1_555
C51 C40 1_555 1_555
C52 C41 1_555 1_555
C53 C41 1_555 1_555
C54 C42 1_555 1_555
H30 C42 1_555 1_555
H31 C43 1_555 1_555
C55 C44 1_555 1_555
H32 C44 1_555 1_555
H33 C45 1_555 1_555
C56 C46 1_555 1_555
H34 C46 1_555 1_555
H35 C47 1_555 1_555
C57 C48 1_555 1_555
H36 C48 1_555 1_555
H37 C49 1_555 1_555
C58 C50 1_555 1_555
H38 C50 1_555 1_555
H39 C51 1_555 1_555
C59 C51 1_555 1_555
H40 C52 1_555 1_555
C60 C52 1_555 1_555
C61 C53 1_555 1_555
H41 C53 1_555 1_555
N11 C54 1_555 1_555
N12 C55 1_555 1_555
N13 C56 1_555 1_555
N14 C57 1_555 1_555
C62 C58 1_555 1_555
H42 C58 1_555 1_555
H43 C59 1_555 1_555
H44 C60 1_555 1_555
C63 C60 1_555 1_555
H45 C61 1_555 1_555
C64 N11 1_555 1_555
C65 N11 1_555 1_555
C66 N12 1_555 1_555
C67 N12 1_555 1_555
C68 N13 1_555 1_555
C69 N13 1_555 1_555
C70 N14 1_555 1_555
C71 N14 1_555 1_555
N15 C62 1_555 1_555
N16 C63 1_555 1_555
N17 C64 1_555 1_555
H46 C64 1_555 1_555
C72 C65 1_555 1_555
H47 C65 1_555 1_555
N18 C66 1_555 1_555
H48 C66 1_555 1_555
C73 C67 1_555 1_555
H49 C67 1_555 1_555
N19 C68 1_555 1_555
H50 C68 1_555 1_555
C74 C69 1_555 1_555
H51 C69 1_555 1_555
H52 C70 1_555 1_555
C75 C70 1_555 1_555
N20 C71 1_555 1_555
H53 C71 1_555 1_555
C76 N15 1_555 1_555
C77 N15 1_555 1_555
C78 N16 1_555 1_555
C79 N16 1_555 1_555
Cu5 N17 1_555 1_555
H54 C72 1_555 1_555
Cu6 N18 1_555 1_555
H55 C73 1_555 1_555
Cu7 N19 1_555 1_555
H56 C74 1_555 1_555
H57 C75 1_555 1_555
Cu8 N20 1_555 1_555
N21 C76 1_555 1_555
H58 C76 1_555 1_555
C80 C77 1_555 1_555
H59 C77 1_555 1_555
H60 C78 1_555 1_555
N22 C78 1_555 1_555
C81 C79 1_555 1_555
I5 Cu5 1_555 1_555
I6 Cu5 1_555 1_555
I7 Cu5 1_555 1_555
I8 Cu6 1_555 1_555
I9 Cu6 1_555 1_555
I10 Cu7 1_555 1_555
Cu9 N21 1_555 1_555
H61 C80 1_555 1_555
Cu10 N22 1_555 1_555
H62 C81 1_555 1_555
Cu11 I5 1_555 1_555
I11 Cu10 1_555 1_555
I12 Cu10 1_555 1_555
N23 Cu11 1_555 1_555
C82 N23 1_555 1_555
C83 N23 1_555 1_555
N24 C82 1_555 1_555
H63 C82 1_555 1_555
H64 C83 1_555 1_555
C84 C83 1_555 1_555
C85 N24 1_555 1_555
H65 C84 1_555 1_555
C86 C85 1_555 1_555
C87 C85 1_555 1_555
H66 C86 1_555 1_555
C88 C86 1_555 1_555
C89 C87 1_555 1_555
H67 C87 1_555 1_555
H68 C88 1_555 1_555
C90 C88 1_555 1_555
H69 C89 1_555 1_555
N25 C90 1_555 1_555
C91 N25 1_555 1_555
C92 N25 1_555 1_555
C93 C91 1_555 1_555
C94 C91 1_555 1_555
C95 C92 1_555 1_555
C96 C92 1_555 1_555
C97 C93 1_555 1_555
H70 C93 1_555 1_555
C98 C94 1_555 1_555
H71 C94 1_555 1_555
C99 C95 1_555 1_555
H72 C95 1_555 1_555
H73 C96 1_555 1_555
C100 C96 1_555 1_555
C101 C97 1_555 1_555
H74 C97 1_555 1_555
H75 C98 1_555 1_555
C102 C99 1_555 1_555
H76 C99 1_555 1_555
H77 C100 1_555 1_555
N26 C101 1_555 1_555
N27 C102 1_555 1_555
C103 N26 1_555 1_555
C104 N26 1_555 1_555
C105 N27 1_555 1_555
C106 N27 1_555 1_555
H78 C103 1_555 1_555
H79 C104 1_555 1_555
C107 C104 1_555 1_555
N28 C105 1_555 1_555
H80 C105 1_555 1_555
C108 C106 1_555 1_555
H81 C106 1_555 1_555
H82 C107 1_555 1_555
Cu12 N28 1_555 1_555
H83 C108 1_555 1_555
O1 C109 1_555 1_555
N29 C109 1_555 1_555
C109 C112 1_555 1_555
C110 N29 1_555 1_555
H84 C110 1_555 1_555
H85 C110 1_555 1_555
H86 C110 1_555 1_555
C111 N29 1_555 1_555
H87 C111 1_555 1_555
H88 C111 1_555 1_555
H89 C111 1_555 1_555
C112 H90 1_555 1_555
H91 C112 1_555 1_555
H92 C112 1_555 1_555
O2 C116 1_555 1_555
N30 C113 1_555 1_555
C113 H93 1_555 1_555
H94 C113 1_555 1_555
H95 C113 1_555 1_555
C114 N30 1_555 1_555
H96 C114 1_555 1_555
H97 C114 1_555 1_555
H98 C114 1_555 1_555
C115 H99 1_555 1_555
H100 C115 1_555 1_555
H101 C115 1_555 1_555
C116 N30 1_555 1_555
I9A Cu6 1_555 1_555
I5E Cu7 1_555 1_555
I6E Cu7 1_555 1_555
I8C Cu8 1_555 1_555
I9B Cu8 1_555 1_555
I8B Cu8 1_555 1_555
Cu7E I5 1_555 1_555
Cu6C I8C 1_555 1_555
Cu8A I8C 1_555 1_555
Cu6B I9B 1_555 1_555
I10E Cu9 1_555 1_555
I12A Cu10 1_555 1_555
N3E C103 1_555 1_555
Cu3E N3E 1_555 1_555
I11C Cu12 1_555 1_555
I12B Cu12 1_555 1_555
I11B Cu12 1_555 1_555
Cu10C I11C 1_555 1_555
Cu12A I11C 1_555 1_555
Cu10B I12B 1_555 1_555
Cu2 I3 1_555 1_555
Cu3 I4 1_555 1_555
I3 Cu4 1_555 1_555
I4 Cu4 1_555 1_555
N5 C5 1_555 1_555
N6 C6 1_555 1_555
N7 C11 1_555 1_555
C18 C23 1_555 1_555
C20 C24 1_555 1_555
C26 C27 1_555 1_555
C43 C54 1_555 1_555
C45 C55 1_555 1_555
C47 C56 1_555 1_555
C49 C57 1_555 1_555
C59 C62 1_555 1_555
C61 C63 1_555 1_555
N17 C72 1_555 1_555
N18 C73 1_555 1_555
N19 C74 1_555 1_555
C75 N20 1_555 1_555
N21 C80 1_555 1_555
N22 C81 1_555 1_555
I6 Cu9 1_555 1_555
I6 Cu7E 1_555 1_555
I7 Cu9 1_555 1_555
I7 Cu11 1_555 1_555
Cu11 I10E 1_555 1_555
N24 C84 1_555 1_555
C89 C90 1_555 1_555
C98 C101 1_555 1_555
C100 C102 1_555 1_555
C107 N3E 1_555 1_555
N28 C108 1_555 1_555
C115 C116 1_555 1_555
I9B Cu6C 1_555 1_555
I8B Cu8A 1_555 1_555
I8B Cu6B 1_555 1_555
Cu7E I10E 1_555 1_555
I12B Cu10C 1_555 1_555
I11B Cu12A 1_555 1_555
I11B Cu10B 1_555 1_555

#END
