
#######################################################################
#
#                 Cambridge Crystallographic Data Centre
#                                CCDC 
#
#######################################################################
#
# If this CIF has been generated from an entry in the Cambridge 
# Structural Database, then it will include bibliographic, chemical, 
# crystal, experimental, refinement or atomic coordinate data resulting 
# from the CCDC's data processing and validation procedures.
#
#######################################################################

data_GABYUG
_chemical_formula_moiety         'C48 H32 Cd17 Cl8 N40 O7'
_symmetry_cell_setting           cubic
_symmetry_space_group_name_H-M   'P 41 3 2'
_symmetry_Int_Tables_number      213
_space_group_name_Hall           'P 4bd 2ab 3'
loop_
_symmetry_equiv_pos_site_id
_symmetry_equiv_pos_as_xyz
1 x,y,z
2 1/2-x,-y,1/2+z
3 -x,1/2+y,1/2-z
4 1/2+x,1/2-y,-z
5 z,x,y
6 1/2+z,1/2-x,-y
7 1/2-z,-x,1/2+y
8 -z,1/2+x,1/2-y
9 y,z,x
10 -y,1/2+z,1/2-x
11 1/2+y,1/2-z,-x
12 1/2-y,-z,1/2+x
13 3/4+y,1/4+x,1/4-z
14 3/4-y,3/4-x,3/4-z
15 1/4+y,1/4-x,3/4+z
16 1/4-y,3/4+x,1/4+z
17 3/4+x,1/4+z,1/4-y
18 1/4-x,3/4+z,1/4+y
19 3/4-x,3/4-z,3/4-y
20 1/4+x,1/4-z,3/4+y
21 3/4+z,1/4+y,1/4-x
22 1/4+z,1/4-y,3/4+x
23 1/4-z,3/4+y,1/4+x
24 3/4-z,3/4-y,3/4-x
_cell_length_a                   20.8320(11)
_cell_length_b                   20.8320(11)
_cell_length_c                   20.8320(11)
_cell_angle_alpha                90
_cell_angle_beta                 90
_cell_angle_gamma                90
_cell_volume                     9040.51
loop_
_atom_site_label
_atom_site_type_symbol
_atom_site_fract_x
_atom_site_fract_y
_atom_site_fract_z
O2 O 0.2686(14) 0.2314(14) 0.7686(14)
Cd1 Cd 0.04408(3) 0.29408(3) 1.1250
Cd2 Cd -0.06593(3) 0.43407(3) 1.06593(3)
Cl1 Cl 0.05330(10) 0.39878(11) 1.05759(11)
N1 N 0.1953(4) 0.1764(4) 1.0279(3)
N2 N 0.1755(4) 0.1970(4) 0.9710(4)
N3 N 0.1580(3) 0.1974(3) 1.0736(3)
N4 N 0.1114(3) 0.2332(4) 1.0473(4)
C1 C 0.1237(5) 0.2323(5) 0.9849(5)
C2 C 0.0863(4) 0.2658(5) 0.9353(4)
C3 C 0.1175(4) 0.2985(7) 0.8862(6)
H1 H 0.1630 0.2998 0.8850
C4 C 0.0820(6) 0.3294(7) 0.8389(6)
H2 H 0.1032 0.3518 0.8054
C5 C 0.0153(6) 0.3276(6) 0.8407(5)
C6 C -0.0159(4) 0.2948(7) 0.8898(5)
H3 H -0.0615 0.2936 0.8910
C7 C 0.0196(4) 0.2639(5) 0.9371(4)
H4 H -0.0017 0.2416 0.9706
C8 C -0.0230(9) 0.3609(11) 0.7897(7)
O1 O -0.0809(9) 0.3471(14) 0.7818(9)
N5 N 0.0048(13) 0.4055(12) 0.7526(10)
H5 H 0.0487 0.4160 0.7586
N1W N -0.2779(3) 0.5736(4) 0.5547(4)
N2W N -0.2210(4) 0.5530(4) 0.5745(4)
N3W N -0.3236(3) 0.5526(3) 0.5920(3)
N4W N -0.2973(4) 0.5168(4) 0.6386(3)
C1W C -0.2349(5) 0.5177(5) 0.6263(5)
C2W C -0.1853(4) 0.4842(5) 0.6637(4)
C3W C -0.1362(6) 0.4515(7) 0.6325(4)
H1W H -0.1350 0.4502 0.5870
C4W C -0.0889(6) 0.4206(7) 0.6680(6)
H2W H -0.0554 0.3982 0.6468
C5W C -0.0907(5) 0.4224(6) 0.7347(6)
C6W C -0.1398(5) 0.4552(7) 0.7659(4)
H3W H -0.1410 0.4564 0.8115
C7W C -0.1871(4) 0.4861(5) 0.7304(4)
H4W H -0.2206 0.5084 0.7517
C8W C -0.0397(7) 0.3891(11) 0.7730(9)
O1W O -0.0318(9) 0.4029(14) 0.8309(9)
N5W N -0.0026(10) 0.3445(12) 0.7452(13)
H5W H -0.0086 0.3340 0.7013
Cd1D Cd 0.1250 0.04408(3) 1.29408(3)
Cl1D Cl 0.05759(11) 0.05330(10) 1.39878(11)
N1D N 0.0279(3) 0.1953(4) 1.1764(4)
N2D N -0.0290(4) 0.1755(4) 1.1970(4)
N3D N 0.0736(3) 0.1580(3) 1.1974(3)
N4D N 0.0473(4) 0.1114(3) 1.2332(4)
C1D C -0.0151(5) 0.1237(5) 1.2323(5)
C2D C -0.0647(4) 0.0863(4) 1.2658(5)
C3D C -0.1138(6) 0.1175(4) 1.2985(7)
H1D H -0.1150 0.1630 1.2998
C4D C -0.1611(6) 0.0820(6) 1.3294(7)
H2D H -0.1946 0.1032 1.3518
C5D C -0.1593(5) 0.0153(6) 1.3276(6)
C6D C -0.1102(5) -0.0159(4) 1.2948(7)
H3D H -0.1090 -0.0615 1.2936
C7D C -0.0629(4) 0.0196(4) 1.2639(5)
H4D H -0.0294 -0.0017 1.2416
C8D C -0.2103(7) -0.0230(9) 1.3609(11)
O1D O -0.2182(9) -0.0809(9) 1.3471(14)
N5D N -0.2474(10) 0.0048(13) 1.4055(12)
H5D H -0.2414 0.0487 1.4160
N1R N -0.4453(4) -0.2779(3) 1.5736(4)
N2R N -0.4255(4) -0.2210(4) 1.5530(4)
N3R N -0.4080(3) -0.3236(3) 1.5526(3)
N4R N -0.3614(3) -0.2973(4) 1.5168(4)
C1R C -0.3737(5) -0.2349(5) 1.5177(5)
C2R C -0.3363(4) -0.1853(4) 1.4842(5)
C3R C -0.3675(4) -0.1362(6) 1.4515(7)
H1R H -0.4130 -0.1350 1.4502
C4R C -0.3320(6) -0.0889(6) 1.4206(7)
H2R H -0.3532 -0.0554 1.3982
C5R C -0.2653(6) -0.0907(5) 1.4224(6)
C6R C -0.2341(4) -0.1398(5) 1.4552(7)
H3R H -0.1885 -0.1410 1.4564
C7R C -0.2696(4) -0.1871(4) 1.4861(5)
H4R H -0.2483 -0.2206 1.5084
C8R C -0.2270(9) -0.0397(7) 1.3891(11)
O1R O -0.1691(9) -0.0318(9) 1.4029(14)
N5R N -0.2548(13) -0.0026(10) 1.3445(12)
H5R H -0.2987 -0.0086 1.3340
Cl1G Cl -0.05759(11) 0.55330(10) 1.10122(11)
N1P N -0.0547(4) 0.2779(3) 1.0736(4)
N2P N -0.0745(4) 0.2210(4) 1.0530(4)
N3P N -0.0920(3) 0.3236(3) 1.0526(3)
N4P N -0.1386(3) 0.2973(4) 1.0168(4)
C1P C -0.1263(5) 0.2349(5) 1.0177(5)
C2P C -0.1637(4) 0.1853(4) 0.9842(5)
C3P C -0.1325(4) 0.1362(6) 0.9515(7)
H1P H -0.0870 0.1350 0.9502
C4P C -0.1680(6) 0.0889(6) 0.9206(7)
H2P H -0.1468 0.0554 0.8982
C5P C -0.2347(6) 0.0907(5) 0.9224(6)
C6P C -0.2659(4) 0.1398(5) 0.9552(7)
H3P H -0.3115 0.1410 0.9564
C7P C -0.2304(4) 0.1871(4) 0.9861(5)
H4P H -0.2517 0.2206 1.0084
C8P C -0.2730(9) 0.0397(7) 0.8891(11)
O1P O -0.3309(9) 0.0318(9) 0.9029(14)
N5P N -0.2452(13) 0.0026(10) 0.8445(12)
H5P H -0.2013 0.0086 0.8340
N1F N -0.5279(3) -0.1953(4) 0.6764(4)
N2F N -0.4710(4) -0.1755(4) 0.6970(4)
N3F N -0.5736(3) -0.1580(3) 0.6974(3)
N4F N -0.5473(4) -0.1114(3) 0.7332(4)
C1F C -0.4849(5) -0.1237(5) 0.7323(5)
C2F C -0.4353(4) -0.0863(4) 0.7658(5)
C3F C -0.3862(6) -0.1175(4) 0.7985(7)
H1F H -0.3850 -0.1630 0.7998
C4F C -0.3389(6) -0.0820(6) 0.8294(7)
H2F H -0.3054 -0.1032 0.8518
C5F C -0.3407(5) -0.0153(6) 0.8276(6)
C6F C -0.3898(5) 0.0159(4) 0.7948(7)
H3F H -0.3910 0.0615 0.7936
C7F C -0.4371(4) -0.0196(4) 0.7639(5)
H4F H -0.4706 0.0017 0.7416
C8F C -0.2897(7) 0.0230(9) 0.8609(11)
O1F O -0.2818(9) 0.0809(9) 0.8471(14)
N5F N -0.2526(10) -0.0048(13) 0.9055(12)
H5F H -0.2586 -0.0487 0.9160
Cl1L Cl 0.14878(11) 0.30330(10) 1.19241(11)
Cl1J Cl -0.10122(11) 0.44241(11) 0.94670(10)
Cl1V Cl 0.19241(11) 0.14878(11) 1.30330(10)
Cd1H Cd 0.29408(3) 0.1250 1.04408(3)
Cd2L Cd 0.18407(3) 0.18407(3) 1.18407(3)
Cd1A Cd -0.54408(3) -0.29408(3) 0.6250
Cd1A_2 Cd -0.54408(3) -0.29408(3) 1.6250
Cd1E Cd -0.3750 0.45592(3) 0.70592(3)
Cd1F Cd -0.6250 -0.04408(3) 0.79408(3)
Cd1G Cd -0.1250 0.54408(3) 1.20592(3)
Cd1I Cd -0.29408(3) -0.3750 1.45592(3)
Cd1I_2 Cd -0.29408(3) 0.6250 0.45592(3)
Cd1J Cd -0.20592(3) 0.3750 0.95592(3)
Cd2A Cd -0.43407(3) -0.43407(3) 1.56593(3)
Cd2A_2 Cd -0.43407(3) 0.56593(3) 0.56593(3)
Cd2B Cd 0.06593(3) -0.06593(3) 1.43407(3)
Cd2M Cd -0.68407(3) -0.18407(3) 0.68407(3)
Cl1H Cl 0.39878(11) 0.05759(11) 1.05330(10)
Cl1S Cl 0.30330(10) 0.19241(11) 1.14878(11)
N1H N 0.1764(4) 0.0279(3) 1.1953(4)
N1O N 0.0736(4) -0.0547(4) 1.2779(3)
N1U N 0.2779(3) 0.0736(4) 0.9453(4)
N3H N 0.1974(3) 0.0736(3) 1.1580(3)
N3L N -0.0526(3) 0.4080(3) 1.1764(3)
N3T N -0.1764(3) 0.4474(3) 1.0920(3)
N4H N 0.2332(4) 0.0473(4) 1.1114(3)
N4L N -0.0168(4) 0.3614(3) 1.2027(4)
N4S N 0.3614(3) 0.2027(4) 0.9832(4)
N4V N 0.2027(4) -0.0168(4) 1.3614(3)
loop_
_geom_bond_atom_site_label_1
_geom_bond_atom_site_label_2
_geom_bond_site_symmetry_1
_geom_bond_site_symmetry_2
Cd1 Cl1 1_555 1_555
Cd2 Cl1 1_555 1_555
N1 N2 1_555 1_555
N2 C1 1_555 1_555
N3 N1 1_555 1_555
N4 Cd1 1_555 1_555
C1 N4 1_555 1_555
C2 C1 1_555 1_555
C3 C2 1_555 1_555
H1 C3 1_555 1_555
C4 C3 1_555 1_555
H2 C4 1_555 1_555
C5 C4 1_555 1_555
C6 C5 1_555 1_555
H3 C6 1_555 1_555
C7 C2 1_555 1_555
H4 C7 1_555 1_555
C8 C5 1_555 1_555
O1 C8 1_555 1_555
N5 C8 1_555 1_555
H5 N5 1_555 1_555
N1W N2W 1_555 1_555
N2W C1W 1_555 1_555
N3W N1W 1_555 1_555
N4W N3W 1_555 1_555
C1W N4W 1_555 1_555
C2W C1W 1_555 1_555
C3W C2W 1_555 1_555
H1W C3W 1_555 1_555
C4W C3W 1_555 1_555
H2W C4W 1_555 1_555
C5W C4W 1_555 1_555
C6W C5W 1_555 1_555
H3W C6W 1_555 1_555
C7W C2W 1_555 1_555
H4W C7W 1_555 1_555
C8W C8 1_555 1_555
O1W C8 1_555 1_555
N5W C8 1_555 1_555
H5W N5W 1_555 1_555
Cd1D Cl1D 1_555 1_555
Cl1D Cd2B 1_555 1_555
N1D Cd1 1_555 1_555
N2D N1D 1_555 1_555
N3D N1D 1_555 1_555
N4D Cd1D 1_555 1_555
C1D N2D 1_555 1_555
C2D C1D 1_555 1_555
C3D C2D 1_555 1_555
H1D C3D 1_555 1_555
C4D C3D 1_555 1_555
H2D C4D 1_555 1_555
C5D C4D 1_555 1_555
C6D C5D 1_555 1_555
H3D C6D 1_555 1_555
C7D C2D 1_555 1_555
H4D C7D 1_555 1_555
C8D C5D 1_555 1_555
O1D C8D 1_555 1_555
N5D C8D 1_555 1_555
H5D N5D 1_555 1_555
N1R N2R 1_555 1_555
N2R C1R 1_555 1_555
N3R N1R 1_555 1_555
N4R N3R 1_555 1_555
C1R N4R 1_555 1_555
C2R C1R 1_555 1_555
C3R C2R 1_555 1_555
H1R C3R 1_555 1_555
C4R C3R 1_555 1_555
H2R C4R 1_555 1_555
C5R C4R 1_555 1_555
C6R C5R 1_555 1_555
H3R C6R 1_555 1_555
C7R C2R 1_555 1_555
H4R C7R 1_555 1_555
C8R C8D 1_555 1_555
O1R C8D 1_555 1_555
N5R C8D 1_555 1_555
H5R N5R 1_555 1_555
Cl1G Cd2 1_555 1_555
N1P Cd1 1_555 1_555
N2P N1P 1_555 1_555
N3P Cd2 1_555 1_555
N4P N3P 1_555 1_555
C1P N2P 1_555 1_555
C2P C1P 1_555 1_555
C3P C2P 1_555 1_555
H1P C3P 1_555 1_555
C4P C3P 1_555 1_555
H2P C4P 1_555 1_555
C5P C4P 1_555 1_555
C6P C5P 1_555 1_555
H3P C6P 1_555 1_555
C7P C2P 1_555 1_555
H4P C7P 1_555 1_555
C8P C5P 1_555 1_555
O1P C8P 1_555 1_555
N5P C8P 1_555 1_555
H5P N5P 1_555 1_555
N1F N2F 1_555 1_555
N2F C1F 1_555 1_555
N3F N1F 1_555 1_555
N4F N3F 1_555 1_555
C1F N4F 1_555 1_555
C2F C1F 1_555 1_555
C3F C2F 1_555 1_555
H1F C3F 1_555 1_555
C4F C3F 1_555 1_555
H2F C4F 1_555 1_555
C5F C4F 1_555 1_555
C6F C5F 1_555 1_555
H3F C6F 1_555 1_555
C7F C2F 1_555 1_555
H4F C7F 1_555 1_555
C8F C8P 1_555 1_555
O1F C8P 1_555 1_555
N5F C8P 1_555 1_555
H5F N5F 1_555 1_555
Cl1L Cd1 1_555 1_555
Cl1J Cd2 1_555 1_555
Cl1V Cd1D 1_555 1_555
Cd1H N1 1_555 1_555
Cd2L N3 1_555 1_555
Cd1A N1F 1_555 1_555
Cd1A_2 N1R 1_555 1_555
Cd1E N4W 1_555 1_555
Cd1F N4F 1_555 1_555
Cd1G Cl1G 1_555 1_555
Cd1I N4R 1_555 1_555
Cd1I_2 N1W 1_555 1_555
Cd1J N4P 1_555 1_555
Cd2A N3R 1_555 1_555
Cd2A_2 N3W 1_555 1_555
Cd2M N3F 1_555 1_555
Cl1H Cd1H 1_555 1_555
Cl1S Cd1H 1_555 1_555
N1H Cd1D 1_555 1_555
N1O Cd1D 1_555 1_555
N1U Cd1H 1_555 1_555
N3H Cd2L 1_555 1_555
N3L Cd2 1_555 1_555
N3T Cd2 1_555 1_555
N4H Cd1H 1_555 1_555
N4L Cd1 1_555 1_555
N4S Cd1H 1_555 1_555
N4V Cd1D 1_555 1_555
N3 N4 1_555 1_555
C6 C7 1_555 1_555
O1 C8W 1_555 1_555
O1 N5W 1_555 1_555
N5 C8W 1_555 1_555
N5 O1W 1_555 1_555
N5 N5W 1_555 1_555
C5W C8W 1_555 1_555
C6W C7W 1_555 1_555
C8W O1W 1_555 1_555
C8W N5W 1_555 1_555
N3D N4D 1_555 1_555
N3D Cd2L 1_555 1_555
N4D C1D 1_555 1_555
C6D C7D 1_555 1_555
O1D C8R 1_555 1_555
O1D N5R 1_555 1_555
N5D C8R 1_555 1_555
N5D O1R 1_555 1_555
N5D N5R 1_555 1_555
C5R C8R 1_555 1_555
C6R C7R 1_555 1_555
C8R O1R 1_555 1_555
C8R N5R 1_555 1_555
N1P N3P 1_555 1_555
N4P C1P 1_555 1_555
C6P C7P 1_555 1_555
O1P C8F 1_555 1_555
O1P N5F 1_555 1_555
N5P C8F 1_555 1_555
N5P O1F 1_555 1_555
N5P N5F 1_555 1_555
C5F C8F 1_555 1_555
C6F C7F 1_555 1_555
C8F O1F 1_555 1_555
C8F N5F 1_555 1_555
Cl1L Cd2L 1_555 1_555
Cl1J Cd1J 1_555 1_555
Cl1V Cd2L 1_555 1_555
Cd2L Cl1S 1_555 1_555
N1H N3H 1_555 1_555
N3H N4H 1_555 1_555
N3L N4L 1_555 1_555

#END
