
#######################################################################
#
#                 Cambridge Crystallographic Data Centre
#                                CCDC 
#
#######################################################################
#
# If this CIF has been generated from an entry in the Cambridge 
# Structural Database, then it will include bibliographic, chemical, 
# crystal, experimental, refinement or atomic coordinate data resulting 
# from the CCDC's data processing and validation procedures.
#
#######################################################################

data_LAHVAU
_chemical_formula_moiety         'C74 H38 Cd9 N14 O24'
_symmetry_cell_setting           monoclinic
_symmetry_space_group_name_H-M   'P 2/m'
_symmetry_Int_Tables_number      10
_space_group_name_Hall           '-P 2y'
loop_
_symmetry_equiv_pos_site_id
_symmetry_equiv_pos_as_xyz
1 x,y,z
2 -x,y,-z
3 -x,-y,-z
4 x,-y,z
_cell_length_a                   12.20(2)
_cell_length_b                   26.58(5)
_cell_length_c                   18.62(3)
_cell_angle_alpha                90
_cell_angle_beta                 104.82(2)
_cell_angle_gamma                90
_cell_volume                     5837.16
loop_
_atom_site_label
_atom_site_type_symbol
_atom_site_fract_x
_atom_site_fract_y
_atom_site_fract_z
Cd1 Cd -0.21596(7) 0.82999(3) 0.79638(5)
Cd2 Cd 0.38388(8) 0.67129(3) 0.77853(6)
O1 O 0.2153(7) 0.6227(3) 0.7300(6)
O2 O -0.0758(7) 0.8761(3) 0.7524(4)
O3 O 0.3450(9) 0.5960(4) 0.8216(5)
C1 C -0.4385(9) 0.8192(4) 0.6644(5)
H1 H -0.4632 0.8043 0.7027
O4 O 0.3068(7) 0.7300(3) 0.8365(5)
O5 O -0.1409(8) 0.9049(3) 0.8444(5)
O6 O -0.0965(8) 0.7670(3) 0.8413(7)
N1 N -0.3309(8) 0.8340(3) 0.8730(5)
N2 N 0.4320(9) 0.6619(3) 0.6704(6)
O7 O 0.3686(8) 0.7583(3) 0.7408(6)
C2 C -0.0609(13) 1.0000 0.8092(7)
H2 H -0.1354 1.0000 0.8131
O8 O 0.5529(10) 0.6740(3) 0.8616(7)
O9 O -0.2478(8) 0.7421(3) 0.7607(6)
C3 C -0.4648(9) 0.8387(4) 0.9734(7)
C4 C 0.0135(10) 0.6764(5) 0.8440(6)
H3 H 0.0486 0.7002 0.8790
N3 N -0.3370(10) 0.8403(3) 0.6840(5)
C5 C 0.2509(11) 0.5937(4) 0.7764(9)
C6 C 0.2887(10) 0.8549(5) 0.7551(6)
H4 H 0.3302 0.8501 0.7201
C7 C -0.1454(10) 0.7350(5) 0.8025(8)
C8 C -0.0774(10) 0.9090(4) 0.8001(7)
C9 C -0.5122(11) 0.8161(5) 0.5951(7)
C10 C 0.0211(18) 0.5000 0.7861(16)
H5 H -0.0557 0.5000 0.7847
C11 C 0.0128(10) 0.5936(4) 0.7889(8)
C12 C 0.2155(11) 0.8249(5) 0.8538(7)
H6 H 0.2137 0.8003 0.8890
C13 C 0.1054(11) 0.9555(4) 0.8052(6)
C14 C 0.0729(9) 0.5461(4) 0.7871(7)
C15 C 0.2754(11) 0.8163(5) 0.8035(7)
C16 C -0.0079(8) 0.9552(4) 0.8064(5)
C17 C -0.4615(9) 0.7977(5) 0.9304(7)
H7 H -0.5062 0.7698 0.9333
C18 C 0.1637(15) 1.0000 0.8080(9)
H8 H 0.2412 1.0000 0.8118
C19 C 0.3608(11) 0.6444(5) 0.6085(8)
H9 H 0.2933 0.6300 0.6130
C20 C -0.3291(11) 0.8755(5) 0.9193(8)
H10 H -0.2816 0.9021 0.9152
C21 C 0.3213(11) 0.7661(5) 0.7940(7)
C22 C 0.1698(10) 0.9083(4) 0.8057(6)
C23 C 0.1583(10) 0.8680(5) 0.8547(8)
H11 H 0.1116 0.8717 0.8868
C24 C 0.2387(10) 0.8992(5) 0.7615(8)
H12 H 0.2532 0.9258 0.7328
C25 C -0.4662(17) 0.8380(6) 0.5375(8)
C26 C -0.1005(14) 0.6860(6) 0.7948(8)
C27 C 0.5240(13) 0.6820(5) 0.6569(11)
H13 H 0.5719 0.6964 0.6988
C28 C 0.0669(14) 0.6316(5) 0.8369(9)
H14 H 0.1410 0.6266 0.8649
C29 C 0.1883(11) 0.5460(4) 0.7867(7)
C30 C -0.3943(10) 0.7976(4) 0.8843(6)
H15 H -0.3929 0.7682 0.8574
C31 C 0.2419(18) 0.5000 0.7842(11)
H16 H 0.3166 0.5000 0.7808
C32 C 0.5618(13) 0.6860(5) 0.5992(9)
C33 C -0.3892(12) 0.8798(4) 0.9682(8)
C34 C -0.1526(12) 0.6486(5) 0.7506(7)
H17 H -0.2274 0.6527 0.7233
C35 C -0.2983(14) 0.8603(5) 0.6289(7)
H18 H -0.2299 0.8777 0.6408
N4 N -0.626(2) 0.7987(9) 0.5869(12)
C36 C -0.3556(16) 0.8560(7) 0.5568(9)
H19 H -0.3207 0.8651 0.5198
C37 C -0.0937(13) 0.6018(5) 0.7446(9)
H20 H -0.1286 0.5774 0.7106
C38 C 0.3792(15) 0.6460(6) 0.5395(9)
H21 H 0.3258 0.6352 0.4973
C39 C 0.4892(14) 0.6661(6) 0.5373(9)
N5 N 0.6628(17) 0.7065(7) 0.6044(10)
N6 N -0.3888(16) 0.9269(7) 1.0041(10)
O1C O 0.2153(7) 0.3773(3) 0.7300(6)
O3C O 0.3450(9) 0.4040(4) 0.8216(5)
O6C O -0.0965(8) 0.2330(3) 0.8413(7)
O9C O -0.2478(8) 0.2579(3) 0.7607(6)
C4C C 0.0135(10) 0.3236(5) 0.8440(6)
H3C H 0.0486 0.2998 0.8790
C5C C 0.2509(11) 0.4063(4) 0.7764(9)
C7C C -0.1454(10) 0.2650(5) 0.8025(8)
C11C C 0.0128(10) 0.4064(4) 0.7889(8)
C14C C 0.0729(9) 0.4539(4) 0.7871(7)
C26C C -0.1005(14) 0.3140(6) 0.7948(8)
C28C C 0.0669(14) 0.3684(5) 0.8369(9)
H14C H 0.1410 0.3734 0.8649
C29C C 0.1883(11) 0.4540(4) 0.7867(7)
C34C C -0.1526(12) 0.3514(5) 0.7506(7)
H17C H -0.2274 0.3473 0.7233
C37C C -0.0937(13) 0.3982(5) 0.7446(9)
H20C H -0.1286 0.4226 0.7106
O2C O -0.0758(7) 1.1239(3) 0.7524(4)
O4C O 0.3068(7) 1.2700(3) 0.8365(5)
O5C O -0.1409(8) 1.0951(3) 0.8444(5)
O7C O 0.3686(8) 1.2417(3) 0.7408(6)
C6C C 0.2887(10) 1.1451(5) 0.7551(6)
H4C H 0.3302 1.1499 0.7201
C8C C -0.0774(10) 1.0910(4) 0.8001(7)
C12C C 0.2155(11) 1.1751(5) 0.8538(7)
H6C H 0.2137 1.1997 0.8890
C13C C 0.1054(11) 1.0445(4) 0.8052(6)
C15C C 0.2754(11) 1.1837(5) 0.8035(7)
C16C C -0.0079(8) 1.0448(4) 0.8064(5)
C21C C 0.3213(11) 1.2339(5) 0.7940(7)
C22C C 0.1698(10) 1.0917(4) 0.8057(6)
C23C C 0.1583(10) 1.1320(5) 0.8547(8)
H11C H 0.1116 1.1283 0.8868
C24C C 0.2387(10) 1.1008(5) 0.7615(8)
H12C H 0.2532 1.0742 0.7328
C1A C -0.5615(9) 0.8192(4) 0.3356(5)
H1A H -0.5368 0.8043 0.2973
N3A N -0.6630(10) 0.8403(3) 0.3160(5)
C9A C -0.4878(11) 0.8161(5) 0.4049(7)
C25A C -0.5338(17) 0.8380(6) 0.4625(8)
C35A C -0.7017(14) 0.8603(5) 0.3711(7)
H18A H -0.7701 0.8777 0.3592
N4A N -0.374(2) 0.7987(9) 0.4131(12)
C36A C -0.6444(16) 0.8560(7) 0.4432(9)
H19A H -0.6793 0.8651 0.4802
N1A N -0.6691(8) 0.8340(3) 1.1270(5)
C3A C -0.5352(9) 0.8387(4) 1.0266(7)
C17A C -0.5385(9) 0.7977(5) 1.0696(7)
H7A H -0.4938 0.7698 1.0667
C20A C -0.6709(11) 0.8755(5) 1.0807(8)
H10A H -0.7184 0.9021 1.0848
C30A C -0.6057(10) 0.7976(4) 1.1157(6)
H15A H -0.6071 0.7682 1.1426
C33A C -0.6108(12) 0.8798(4) 1.0318(8)
N6A N -0.6112(16) 0.9269(7) 0.9959(10)
N2A N 0.5680(9) 0.6619(3) 0.3296(6)
C19A C 0.6392(11) 0.6444(5) 0.3915(8)
H9A H 0.7067 0.6300 0.3870
C27A C 0.4760(13) 0.6820(5) 0.3431(11)
H13A H 0.4281 0.6964 0.3012
C32A C 0.4382(13) 0.6860(5) 0.4008(9)
C38A C 0.6208(15) 0.6460(6) 0.4605(9)
H21A H 0.6742 0.6352 0.5027
C39A C 0.5108(14) 0.6661(6) 0.4627(9)
N5A N 0.3372(17) 0.7065(7) 0.3956(10)
Cd1A Cd -0.78404(7) 0.82999(3) 0.20362(5)
Cd2C Cd 0.38388(8) 0.32871(3) 0.77853(6)
O8C O 0.5529(10) 0.3260(3) 0.8616(7)
Cd1A_2 Cd -0.78404(7) 0.82999(3) 1.20362(5)
Cd1C Cd -0.21596(7) 0.17001(3) 0.79638(5)
Cd1C_2 Cd -0.21596(7) 1.17001(3) 0.79638(5)
Cd2A Cd 0.61612(8) 0.67129(3) 0.22147(6)
Cd2C_2 Cd 0.38388(8) 1.32871(3) 0.77853(6)
O2A O -0.9242(7) 0.8761(3) 0.2476(4)
O4C_2 O 0.3068(7) 0.2700(3) 0.8365(5)
O5A O -0.8591(8) 0.9049(3) 0.1556(5)
O6A O -0.9035(8) 0.7670(3) 0.1587(7)
N1A_2 N -0.6691(8) 0.8340(3) 0.1270(5)
N2C N 0.4320(9) 0.3381(3) 0.6704(6)
O7C_2 O 0.3686(8) 0.2417(3) 0.7408(6)
O9A O -0.7522(8) 0.7421(3) 0.2393(6)
loop_
_geom_bond_atom_site_label_1
_geom_bond_atom_site_label_2
_geom_bond_site_symmetry_1
_geom_bond_site_symmetry_2
Cd1 O2 1_555 1_555
Cd2 O1 1_555 1_555
O1 C5 1_555 1_555
O2 C8 1_555 1_555
O3 Cd2 1_555 1_555
C1 H1 1_555 1_555
O4 Cd2 1_555 1_555
O5 Cd1 1_555 1_555
O6 Cd1 1_555 1_555
N1 Cd1 1_555 1_555
N2 Cd2 1_555 1_555
O7 Cd2 1_555 1_555
C2 H2 1_555 1_555
O8 Cd2 1_555 1_555
O9 Cd1 1_555 1_555
C3 C17 1_555 1_555
C4 H3 1_555 1_555
N3 Cd1 1_555 1_555
C5 O3 1_555 1_555
C6 H4 1_555 1_555
C7 O6 1_555 1_555
C8 O5 1_555 1_555
C9 C1 1_555 1_555
C10 H5 1_555 1_555
C11 C14 1_555 1_555
C12 H6 1_555 1_555
C13 C16 1_555 1_555
C14 C10 1_555 1_555
C15 C6 1_555 1_555
C16 C2 1_555 1_555
C17 H7 1_555 1_555
C18 C13 1_555 1_555
H8 C18 1_555 1_555
C19 N2 1_555 1_555
H9 C19 1_555 1_555
C20 N1 1_555 1_555
H10 C20 1_555 1_555
C21 O4 1_555 1_555
C22 C13 1_555 1_555
C23 C12 1_555 1_555
H11 C23 1_555 1_555
C24 C6 1_555 1_555
H12 C24 1_555 1_555
C25 C9 1_555 1_555
C26 C4 1_555 1_555
C27 N2 1_555 1_555
H13 C27 1_555 1_555
C28 C4 1_555 1_555
H14 C28 1_555 1_555
C29 C5 1_555 1_555
C30 N1 1_555 1_555
H15 C30 1_555 1_555
C31 C29 1_555 1_555
H16 C31 1_555 1_555
C32 C27 1_555 1_555
C33 C3 1_555 1_555
C34 C26 1_555 1_555
H17 C34 1_555 1_555
C35 N3 1_555 1_555
H18 C35 1_555 1_555
N4 C9 1_555 1_555
C36 C25 1_555 1_555
H19 C36 1_555 1_555
C37 C11 1_555 1_555
H20 C37 1_555 1_555
C38 C19 1_555 1_555
H21 C38 1_555 1_555
C39 C32 1_555 1_555
N5 C32 1_555 1_555
N6 C33 1_555 1_555
O1C C5C 1_555 1_555
O3C C5C 1_555 1_555
O6C C7C 1_555 1_555
O9C C7C 1_555 1_555
C4C H3C 1_555 1_555
C5C C29C 1_555 1_555
C7C C26C 1_555 1_555
C11C C14C 1_555 1_555
C14C C10 1_555 1_555
C26C C4C 1_555 1_555
C28C C4C 1_555 1_555
H14C C28C 1_555 1_555
C29C C31 1_555 1_555
C34C C26C 1_555 1_555
H17C C34C 1_555 1_555
C37C C11C 1_555 1_555
H20C C37C 1_555 1_555
O2C C8C 1_555 1_555
O4C C21C 1_555 1_555
O5C C8C 1_555 1_555
O7C C21C 1_555 1_555
C6C H4C 1_555 1_555
C8C C16C 1_555 1_555
C12C H6C 1_555 1_555
C13C C18 1_555 1_555
C15C C6C 1_555 1_555
C16C C2 1_555 1_555
C21C C15C 1_555 1_555
C22C C13C 1_555 1_555
C23C C12C 1_555 1_555
H11C C23C 1_555 1_555
C24C C6C 1_555 1_555
H12C C24C 1_555 1_555
C1A H1A 1_555 1_555
N3A C1A 1_555 1_555
C9A C1A 1_555 1_555
C25A C25 1_555 1_555
C35A N3A 1_555 1_555
H18A C35A 1_555 1_555
N4A C9A 1_555 1_555
C36A C25A 1_555 1_555
H19A C36A 1_555 1_555
N1A C20A 1_555 1_555
C3A C3 1_555 1_555
C17A C3A 1_555 1_555
H7A C17A 1_555 1_555
C20A H10A 1_555 1_555
C30A N1A 1_555 1_555
H15A C30A 1_555 1_555
C33A C3A 1_555 1_555
N6A C33A 1_555 1_555
N2A C19A 1_555 1_555
C19A H9A 1_555 1_555
C27A N2A 1_555 1_555
H13A C27A 1_555 1_555
C32A C27A 1_555 1_555
C38A C19A 1_555 1_555
H21A C38A 1_555 1_555
C39A C39 1_555 1_555
N5A C32A 1_555 1_555
Cd1A N3A 1_555 1_555
Cd2C O1C 1_555 1_555
O8C Cd2C 1_555 1_555
Cd1A_2 N1A 1_555 1_555
Cd1C O6C 1_555 1_555
Cd1C_2 O2C 1_555 1_555
Cd2A N2A 1_555 1_555
Cd2C_2 O4C 1_555 1_555
O2A Cd1A 1_555 1_555
O4C_2 Cd2C 1_555 1_555
O5A Cd1A 1_555 1_555
O6A Cd1A 1_555 1_555
N1A_2 Cd1A 1_555 1_555
N2C Cd2C 1_555 1_555
O7C_2 Cd2C 1_555 1_555
O9A Cd1A 1_555 1_555
C1 N3 1_555 1_555
O7 C21 1_555 1_555
O9 C7 1_555 1_555
C7 C26 1_555 1_555
C8 C16 1_555 1_555
C11 C28 1_555 1_555
C12 C15 1_555 1_555
C14 C29 1_555 1_555
C15 C21 1_555 1_555
C17 C30 1_555 1_555
C20 C33 1_555 1_555
C22 C23 1_555 1_555
C22 C24 1_555 1_555
C34 C37 1_555 1_555
C35 C36 1_555 1_555
C38 C39 1_555 1_555
O3C Cd2C 1_555 1_555
O9C Cd1C 1_555 1_555
C11C C28C 1_555 1_555
C14C C29C 1_555 1_555
C34C C37C 1_555 1_555
O5C Cd1C_2 1_555 1_555
O7C Cd2C_2 1_555 1_555
C12C C15C 1_555 1_555
C13C C16C 1_555 1_555
C22C C23C 1_555 1_555
C22C C24C 1_555 1_555
C9A C25A 1_555 1_555
C35A C36A 1_555 1_555
C17A C30A 1_555 1_555
C20A C33A 1_555 1_555
C32A C39A 1_555 1_555
C38A C39A 1_555 1_555

#END
