
#######################################################################
#
#                 Cambridge Crystallographic Data Centre
#                                CCDC 
#
#######################################################################
#
# If this CIF has been generated from an entry in the Cambridge 
# Structural Database, then it will include bibliographic, chemical, 
# crystal, experimental, refinement or atomic coordinate data resulting 
# from the CCDC's data processing and validation procedures.
#
#######################################################################

data_KUPTIA
_chemical_formula_moiety         '(C31 H35 Cu2 I1 N7 O7)n'
_symmetry_cell_setting           rhombohedral
_symmetry_space_group_name_H-M   'R -3'
_symmetry_Int_Tables_number      148
_space_group_name_Hall           '-R 3'
loop_
_symmetry_equiv_pos_site_id
_symmetry_equiv_pos_as_xyz
1 x,y,z
2 -y,x-y,z
3 -x+y,-x,z
4 2/3+x,1/3+y,1/3+z
5 2/3-y,1/3+x-y,1/3+z
6 2/3-x+y,1/3-x,1/3+z
7 1/3+x,2/3+y,2/3+z
8 1/3-y,2/3+x-y,2/3+z
9 1/3-x+y,2/3-x,2/3+z
10 -x,-y,-z
11 y,-x+y,-z
12 x-y,x,-z
13 1/3-x,2/3-y,2/3-z
14 1/3+y,2/3-x+y,2/3-z
15 1/3+x-y,2/3+x,2/3-z
16 2/3-x,1/3-y,1/3-z
17 2/3+y,1/3-x+y,1/3-z
18 2/3+x-y,1/3+x,1/3-z
_cell_length_a                   40.979(4)
_cell_length_b                   40.979(4)
_cell_length_c                   16.064(3)
_cell_angle_alpha                90
_cell_angle_beta                 90
_cell_angle_gamma                120
_cell_volume                     23361.8
loop_
_atom_site_label
_atom_site_type_symbol
_atom_site_fract_x
_atom_site_fract_y
_atom_site_fract_z
_atom_site_U_iso_or_equiv
_atom_site_thermal_displace_type
I1 I 0.126210(12) 0.779869(11) 0.26133(2) 0.0599 Uani
Cu1 Cu 0.19102(2) 0.842494(19) 0.27333(4) 0.0505 Uani
Cu2 Cu 0.483979(16) 0.988719(17) 0.57337(4) 0.0312 Uani
O1 O 0.44233(10) 0.94954(12) 0.5091(2) 0.0495 Uani
O2 O 0.46926(10) 0.96822(11) 0.3831(2) 0.0465 Uani
O3 O 0.31127(12) 1.10889(9) 0.2106(2) 0.0487 Uani
O4 O 0.29133(11) 1.11628(9) 0.0862(2) 0.0464 Uani
N1 N 0.23389(15) 0.83031(17) 0.2603(4) 0.0683 Uani
N2 N 0.25719(15) 0.79373(17) 0.1978(4) 0.0683 Uani
N3 N 0.19484(13) 0.87496(11) 0.1709(3) 0.0436 Uani
N4 N 0.18623(11) 0.87873(11) 0.0264(2) 0.0347 Uani
C1 C 0.23098(19) 0.8017(2) 0.2172(5) 0.0683 Uani
H1 H 0.2069 0.7848 0.1978 0.0800 Uiso
C2 C 0.26867(18) 0.85342(18) 0.2911(4) 0.0582 Uani
H2 H 0.2726 0.8743 0.3218 0.0800 Uiso
C3 C 0.29840(18) 0.8476(2) 0.2795(4) 0.0611 Uani
C4 C 0.29107(19) 0.8172(2) 0.2288(5) 0.0683 Uani
H3 H 0.3108 0.8131 0.2160 0.0800 Uiso
C5 C 0.33565(18) 0.87285(19) 0.3164(4) 0.0586 Uani
C6 C 0.33761(18) 0.8858(2) 0.3959(4) 0.0693 Uani
H4 H 0.3154 0.8789 0.4247 0.0800 Uiso
C7 C 0.37199(17) 0.9091(2) 0.4347(4) 0.0641 Uani
H5 H 0.3727 0.9168 0.4895 0.0800 Uiso
C8 C 0.40495(19) 0.9207(2) 0.3910(5) 0.0683 Uani
C9 C 0.40324(17) 0.9087(2) 0.3102(4) 0.0671 Uani
H6 H 0.4254 0.9172 0.2798 0.0800 Uiso
C10 C 0.3691(2) 0.8841(3) 0.2736(4) 0.0760 Uani
H7 H 0.3685 0.8750 0.2203 0.0800 Uiso
C11 C 0.4421(2) 0.9483(2) 0.4304(5) 0.0683 Uani
C12 C 0.18196(14) 0.85952(13) 0.0952(3) 0.0372 Uani
H8 H 0.1691 0.8334 0.0914 0.0800 Uiso
C13 C 0.21276(17) 0.91280(14) 0.1743(3) 0.0473 Uani
H9 H 0.2222 0.9245 0.2253 0.0800 Uiso
C14 C 0.21780(15) 0.93526(13) 0.1056(3) 0.0383 Uani
C15 C 0.20406(15) 0.91627(14) 0.0315(3) 0.0398 Uani
H10 H 0.2073 0.9301 -0.0168 0.0800 Uiso
C16 C 0.23688(16) 0.97665(13) 0.1139(3) 0.0414 Uani
C17 C 0.26805(18) 0.99524(15) 0.1663(4) 0.0497 Uani
H11 H 0.2769 0.9816 0.1953 0.0800 Uiso
C18 C 0.28567(17) 1.03379(14) 0.1752(4) 0.0471 Uani
H12 H 0.3062 1.0459 0.2108 0.0800 Uiso
C19 C 0.27353(16) 1.05481(14) 0.1327(3) 0.0418 Uani
C20 C 0.24324(19) 1.03636(16) 0.0781(4) 0.0551 Uani
H13 H 0.2351 1.0501 0.0471 0.0800 Uiso
C21 C 0.22514(19) 0.99750(16) 0.0701(4) 0.0568 Uani
H14 H 0.2047 0.9854 0.0343 0.0800 Uiso
C22 C 0.29330(16) 1.09665(14) 0.1444(3) 0.0401 Uani
I1L I 0.207123(12) 0.886798(11) 0.40534(2) 0.0599 Uani
Cu1L Cu 0.14231(2) 0.824173(19) 0.39334(4) 0.0505 Uani
Cu2E Cu 0.171407(23) 0.849354(16) -0.09330(4) 0.0312 Uani
Cu2G Cu 0.344614(17) 1.161927(23) 0.24004(4) 0.0312 Uani
Cu2I Cu 0.516021(16) 1.011281(17) 0.42663(4) 0.0312 Uani
Cu2M Cu 0.322052(17) 1.171407(23) 0.09330(4) 0.0312 Uani
O2I O 0.53074(10) 1.03178(11) 0.6169(2) 0.0465 Uani
O3E O 0.46429(15) 1.02206(12) 0.5439(2) 0.0487 Uani
O4N O 0.50838(14) 0.95800(11) 0.5805(2) 0.0464 Uani
N4G N 0.45460(11) 0.97417(16) 0.6931(2) 0.0347 Uani
O5 O 0.0204(3) 0.2922(3) 0.9144(6) 0.0690 Uiso
N5 N -0.0278(3) 0.2978(3) 0.9659(7) 0.0560 Uiso
C23 C -0.0130(6) 0.2807(8) 0.9239(18) 0.1690 Uiso
H15 H -0.0297 0.2577 0.8995 0.1000 Uiso
C24 C -0.0662(5) 0.2738(7) 0.9570(16) 0.1350 Uiso
H16 H -0.0706 0.2535 0.9205 0.1000 Uiso
H17 H -0.0774 0.2875 0.9339 0.1000 Uiso
H18 H -0.0771 0.2639 1.0105 0.1000 Uiso
C25 C -0.0133(8) 0.3278(7) 1.0101(17) 0.1550 Uiso
H19 H 0.0137 0.3396 1.0084 0.1000 Uiso
H20 H -0.0217 0.3214 1.0666 0.1000 Uiso
H21 H -0.0208 0.3448 0.9886 0.1000 Uiso
O6 O 0.0703(4) 0.3728(4) 0.1657(10) 0.1270 Uiso
N6 N 0.1076(4) 0.4200(3) 0.0647(8) 0.0720 Uiso
C26 C 0.0791(5) 0.4011(6) 0.1160(12) 0.1090 Uiso
H22 H 0.0619 0.4096 0.1168 0.1000 Uiso
C27 C 0.1277(5) 0.4030(5) 0.0534(12) 0.0970 Uiso
H23 H 0.1472 0.4169 0.0134 0.1000 Uiso
H24 H 0.1115 0.3779 0.0333 0.1000 Uiso
H25 H 0.1388 0.4020 0.1053 0.1000 Uiso
C28 C 0.1107(6) 0.4516(5) 0.0308(13) 0.1130 Uiso
H26 H 0.1324 0.4632 -0.0048 0.1000 Uiso
H27 H 0.1133 0.4688 0.0743 0.1000 Uiso
H28 H 0.0885 0.4452 -0.0012 0.1000 Uiso
O7 O 0.0708(11) 0.2011(12) 0.040(3) 0.1810 Uiso
N7 N 0.1186(8) 0.2274(9) 0.133(2) 0.1210 Uiso
C29 C 0.1040(11) 0.2067(15) 0.065(2) 0.1900 Uiso
H29 H 0.1166 0.1967 0.0355 0.1000 Uiso
C30 C 0.1045(11) 0.2087(14) 0.204(2) 0.1600 Uiso
H30 H 0.0775 0.1969 0.2024 0.1000 Uiso
H31 H 0.1142 0.2259 0.2498 0.1000 Uiso
H32 H 0.1116 0.1898 0.2097 0.1000 Uiso
C31 C 0.1563(8) 0.2427(9) 0.131(2) 0.0920 Uiso
H33 H 0.1658 0.2566 0.0802 0.1000 Uiso
H34 H 0.1625 0.2231 0.1335 0.1000 Uiso
H35 H 0.1673 0.2593 0.1776 0.1000 Uiso
loop_
_atom_site_aniso_label
_atom_site_aniso_U_11
_atom_site_aniso_U_22
_atom_site_aniso_U_33
_atom_site_aniso_U_23
_atom_site_aniso_U_13
_atom_site_aniso_U_12
I1 0.0580(3) 0.0399(2) 0.0420(2) -0.00498(16) -0.00866(17) -0.00528(18)
Cu1 0.0490(4) 0.0385(4) 0.0418(4) 0.0040(3) -0.0093(3) 0.0053(3)
Cu2 0.0270(3) 0.0460(4) 0.0283(3) 0.0042(3) 0.0028(2) 0.0240(3)
O1 0.038(2) 0.062(3) 0.039(2) -0.0037(18) -0.0046(16) 0.0178(19)
O2 0.0315(19) 0.058(2) 0.040(2) -0.0036(18) 0.0009(16) 0.0148(19)
O3 0.073(3) 0.0228(18) 0.045(2) -0.0045(16) -0.016(2) 0.0200(18)
O4 0.066(3) 0.0257(18) 0.046(2) -0.0033(16) -0.0129(19) 0.0217(18)
N1 0.0520(15) 0.0666(17) 0.0803(19) -0.0249(13) -0.0202(13) 0.0252(13)
N2 0.0520(15) 0.0666(17) 0.0803(19) -0.0249(13) -0.0202(13) 0.0252(13)
N3 0.055(3) 0.027(2) 0.032(2) 0.0015(17) -0.001(2) 0.008(2)
N4 0.036(2) 0.027(2) 0.027(2) -0.0007(16) -0.0023(17) 0.0052(18)
C1 0.0520(15) 0.0666(17) 0.0803(19) -0.0249(13) -0.0202(13) 0.0252(13)
C2 0.050(4) 0.047(4) 0.056(4) -0.005(3) -0.011(3) 0.008(3)
C3 0.046(4) 0.063(4) 0.066(4) -0.012(3) -0.012(3) 0.021(3)
C4 0.0520(15) 0.0666(17) 0.0803(19) -0.0249(13) -0.0202(13) 0.0252(13)
C5 0.046(4) 0.065(4) 0.057(4) -0.008(3) -0.006(3) 0.022(3)
C6 0.038(3) 0.083(5) 0.060(4) -0.009(4) -0.004(3) 0.010(3)
C7 0.035(3) 0.090(5) 0.047(4) -0.009(3) -0.002(3) 0.016(3)
C8 0.0520(15) 0.0666(17) 0.0803(19) -0.0249(13) -0.0202(13) 0.0252(13)
C9 0.039(3) 0.096(5) 0.052(4) -0.025(4) -0.002(3) 0.023(4)
C10 0.053(4) 0.112(6) 0.052(4) -0.030(4) -0.008(3) 0.033(4)
C11 0.0520(15) 0.0666(17) 0.0803(19) -0.0249(13) -0.0202(13) 0.0252(13)
C12 0.038(3) 0.024(2) 0.033(3) -0.0014(19) -0.006(2) 0.003(2)
C13 0.065(4) 0.028(3) 0.030(3) -0.003(2) -0.002(3) 0.009(3)
C14 0.045(3) 0.021(2) 0.039(3) -0.001(2) -0.004(2) 0.009(2)
C15 0.049(3) 0.029(3) 0.030(3) 0.002(2) 0.000(2) 0.011(2)
C16 0.055(3) 0.022(2) 0.035(3) -0.004(2) -0.005(2) 0.010(2)
C17 0.064(4) 0.027(3) 0.049(3) -0.002(2) -0.016(3) 0.016(3)
C18 0.056(4) 0.026(3) 0.052(3) -0.011(2) -0.022(3) 0.015(2)
C19 0.052(3) 0.024(2) 0.044(3) -0.004(2) -0.003(2) 0.015(2)
C20 0.068(4) 0.036(3) 0.060(4) -0.004(3) -0.022(3) 0.025(3)
C21 0.067(4) 0.034(3) 0.057(4) -0.011(3) -0.026(3) 0.016(3)
C22 0.047(3) 0.028(3) 0.047(3) -0.003(2) -0.003(3) 0.020(2)
I1L 0.058 0.0399 0.042 -0.00498 -0.00866 -0.00528
Cu1L 0.049 0.0385 0.0418 0.004 -0.0093 0.0053
Cu2E 0.025 0.027 0.0283 -0.0028 0.0014 0.003
Cu2G 0.046 0.025 0.0283 -0.0014 -0.0042 0.022
Cu2I 0.027 0.046 0.0283 0.0042 0.0028 0.024
Cu2M 0.046 0.025 0.0283 -0.0014 -0.0042 0.022
O2I 0.0315 0.058 0.04 -0.0036 0.0009 0.0148
O3E 0.0558 0.073 0.045 0.016 0.0115 0.053
O4N 0.0483 0.066 0.046 0.0129 0.0096 0.0443
N4G 0.027 0.0526 0.027 -0.0016 0.0007 0.0218
loop_
_geom_bond_atom_site_label_1
_geom_bond_atom_site_label_2
_geom_bond_site_symmetry_1
_geom_bond_site_symmetry_2
I1 Cu1 1_555 1_555
Cu1 N1 1_555 1_555
Cu2 O1 1_555 1_555
O1 C11 1_555 1_555
O2 C11 1_555 1_555
O3 C22 1_555 1_555
O4 C22 1_555 1_555
N1 C1 1_555 1_555
N2 C1 1_555 1_555
N3 Cu1 1_555 1_555
N4 C12 1_555 1_555
C1 H1 1_555 1_555
C2 N1 1_555 1_555
H2 C2 1_555 1_555
C3 C2 1_555 1_555
C4 N2 1_555 1_555
H3 C4 1_555 1_555
C5 C3 1_555 1_555
C6 C5 1_555 1_555
H4 C6 1_555 1_555
C7 C6 1_555 1_555
H5 C7 1_555 1_555
C8 C7 1_555 1_555
C9 C8 1_555 1_555
H6 C9 1_555 1_555
C10 C5 1_555 1_555
H7 C10 1_555 1_555
C11 C8 1_555 1_555
C12 N3 1_555 1_555
H8 C12 1_555 1_555
C13 N3 1_555 1_555
H9 C13 1_555 1_555
C14 C13 1_555 1_555
C15 N4 1_555 1_555
H10 C15 1_555 1_555
C16 C14 1_555 1_555
C17 C16 1_555 1_555
H11 C17 1_555 1_555
C18 C17 1_555 1_555
H12 C18 1_555 1_555
C19 C18 1_555 1_555
C20 C19 1_555 1_555
H13 C20 1_555 1_555
C21 C16 1_555 1_555
H14 C21 1_555 1_555
C22 C19 1_555 1_555
O5 C23 1_555 1_555
N5 C23 1_555 1_555
C23 H15 1_555 1_555
C24 N5 1_555 1_555
H16 C24 1_555 1_555
H17 C24 1_555 1_555
H18 C24 1_555 1_555
C25 N5 1_555 1_555
H19 C25 1_555 1_555
H20 C25 1_555 1_555
H21 C25 1_555 1_555
O6 C26 1_555 1_555
N6 C26 1_555 1_555
C26 H22 1_555 1_555
C27 N6 1_555 1_555
H23 C27 1_555 1_555
H24 C27 1_555 1_555
H25 C27 1_555 1_555
C28 N6 1_555 1_555
H26 C28 1_555 1_555
H27 C28 1_555 1_555
H28 C28 1_555 1_555
O7 C29 1_555 1_555
N7 C29 1_555 1_555
C29 H29 1_555 1_555
C30 N7 1_555 1_555
H30 C30 1_555 1_555
H31 C30 1_555 1_555
H32 C30 1_555 1_555
C31 N7 1_555 1_555
H33 C31 1_555 1_555
H34 C31 1_555 1_555
H35 C31 1_555 1_555
I1L Cu1 1_555 1_555
Cu1L I1 1_555 1_555
Cu2E N4 1_555 1_555
Cu2G O3 1_555 1_555
Cu2I Cu2 1_555 1_555
Cu2M O4 1_555 1_555
O2I Cu2 1_555 1_555
O3E Cu2 1_555 1_555
O4N Cu2 1_555 1_555
N4G Cu2 1_555 1_555
Cu1 Cu1L 1_555 1_555
O2 Cu2I 1_555 1_555
C3 C4 1_555 1_555
C9 C10 1_555 1_555
C14 C15 1_555 1_555
C20 C21 1_555 1_555
I1L Cu1L 1_555 1_555
Cu2G Cu2M 1_555 1_555

#END
