
#######################################################################
#
#                 Cambridge Crystallographic Data Centre
#                                CCDC 
#
#######################################################################
#
# If this CIF has been generated from an entry in the Cambridge 
# Structural Database, then it will include bibliographic, chemical, 
# crystal, experimental, refinement or atomic coordinate data resulting 
# from the CCDC's data processing and validation procedures.
#
#######################################################################

data_INASAT
_chemical_formula_moiety         '(C37 H18 N9 O17 Zn4 1-)n'
_symmetry_cell_setting           monoclinic
_symmetry_space_group_name_H-M   'P 21/c'
_symmetry_Int_Tables_number      14
_space_group_name_Hall           '-P 2ybc'
loop_
_symmetry_equiv_pos_site_id
_symmetry_equiv_pos_as_xyz
1 x,y,z
2 -x,1/2+y,1/2-z
3 -x,-y,-z
4 x,1/2-y,1/2+z
_cell_length_a                   18.5283(5)
_cell_length_b                   14.2219(4)
_cell_length_c                   21.9146(5)
_cell_angle_alpha                90
_cell_angle_beta                 93.8970(10)
_cell_angle_gamma                90
_cell_volume                     5761.31
loop_
_atom_site_label
_atom_site_type_symbol
_atom_site_fract_x
_atom_site_fract_y
_atom_site_fract_z
C1 C 0.3602(2) 0.4287(3) 0.50039(19)
C2 C 0.4055(2) 0.5116(3) 0.52148(17)
C3 C 0.4051(2) 0.5925(3) 0.48576(19)
H1 H 0.3777 0.5952 0.4475
C4 C 0.4456(3) 0.6696(3) 0.50733(19)
C5 C 0.4903(2) 0.6643(3) 0.56001(19)
H2 H 0.5183 0.7173 0.5734
C6 C 0.4944(2) 0.5829(3) 0.59306(18)
C7 C 0.4500(2) 0.5075(3) 0.57473(18)
H3 H 0.4502 0.4523 0.5992
C8 C 0.5449(3) 0.5723(4) 0.6489(2)
C9 C 0.4389(3) 0.9092(3) 0.4626(2)
C10 C 0.4825(3) 0.9164(3) 0.4137(2)
H4 H 0.5103 0.8640 0.4023
C11 C 0.4853(3) 0.9998(3) 0.3817(2)
C12 C 0.4425(3) 1.0749(3) 0.3965(2)
H5 H 0.4429 1.1311 0.3732
C13 C 0.3989(3) 1.0683(3) 0.4455(2)
C14 C 0.3980(3) 0.9854(3) 0.4794(2)
H6 H 0.3696 0.9811 0.5138
C15 C 0.3562(3) 1.1510(3) 0.4626(2)
C16 C 0.5397(4) 1.0112(5) 0.3319(3)
C17 C 0.2649(4) 0.5327(4) 0.3108(2)
C18 C 0.2191(4) 0.6116(4) 0.3321(3)
C19 C 0.2205(4) 0.7000(4) 0.3034(3)
H7 H 0.2500 0.7105 0.2703
C20 C 0.1776(5) 0.7718(4) 0.3244(4)
C21 C 0.1339(6) 0.7568(5) 0.3712(5)
H8 H 0.1056 0.8070 0.3855
C22 C 0.1305(6) 0.6701(5) 0.3976(4)
C23 C 0.1742(5) 0.5970(4) 0.3790(3)
H9 H 0.1730 0.5375 0.3985
C24 C 0.1771(5) 0.8670(4) 0.2948(4)
C25 C 0.0285(3) 0.6112(6) 0.5214(3)
C26 C 0.0506(3) 0.5755(6) 0.5778(3)
H10 H 0.0981 0.5512 0.5851
C27 C 0.0039(3) 0.5752(5) 0.6234(3)
C28 C -0.0663(3) 0.6091(4) 0.6129(2)
H11 H -0.0983 0.6093 0.6450
C29 C -0.0893(3) 0.6420(4) 0.5560(3)
C30 C -0.0418(3) 0.6438(5) 0.5096(3)
H12 H -0.0572 0.6670 0.4702
C31 C -0.1662(3) 0.6742(4) 0.5441(3)
C32 C 0.0275(4) 0.5399(7) 0.6858(3)
N1 N 0.3095(4) 0.3243(6) 0.2188(3)
C33 C 0.3023(5) 0.3121(7) 0.1581(4)
H13 H 0.3259 0.3565 0.1340
N2 N 0.2654(5) 0.2441(6) 0.1281(5)
C34 C 0.2268(4) 0.1795(5) 0.1591(4)
C35 C 0.2321(4) 0.1855(5) 0.2226(3)
C36 C 0.2748(4) 0.2579(5) 0.2508(5)
N3 N 0.2732(6) 0.2484(7) 0.3116(4)
C37 C 0.2326(6) 0.1733(7) 0.3197(4)
H14 H 0.2225 0.1511 0.3591
N4 N 0.2064(7) 0.1308(9) 0.2674(4)
N5 N 0.1812(7) 0.1183(8) 0.1292(6)
H15 H 0.1758 0.1194 0.0890
H16 H 0.1569 0.0774 0.1499
N6 N 0.4423(2) 0.7519(2) 0.46918(18)
N7 N 0.4367(2) 0.8257(2) 0.49956(18)
N8 N 0.0697(3) 0.6675(3) 0.4454(3)
N9 N 0.0844(4) 0.6075(4) 0.4769(3)
O1 O 0.33446(17) 0.42962(19) 0.44686(14)
O2 O 0.35250(18) 0.3652(2) 0.53976(14)
O3 O 0.5414(2) 0.5014(3) 0.68131(17)
O4 O 0.59207(18) 0.6356(3) 0.66186(14)
O5 O 0.3274(2) 1.1482(2) 0.51292(16)
O6 O 0.3510(2) 1.2187(2) 0.42645(18)
O7 O 0.5553(4) 1.0896(4) 0.3161(2)
O8 O 0.5645(3) 0.9387(3) 0.3133(2)
O9 O 0.3091(3) 0.5533(3) 0.2701(2)
O10 O 0.2575(3) 0.4538(2) 0.33213(17)
O11 O 0.2103(4) 0.8794(3) 0.2489(3)
O12 O 0.1438(3) 0.9314(3) 0.3212(2)
O13 O -0.1881(2) 0.6840(3) 0.48897(19)
O14 O -0.20172(18) 0.6904(3) 0.58813(19)
O15 O -0.0070(4) 0.5580(6) 0.7281(3)
O16 O 0.0581(4) 0.1128(4) 0.3219(3)
O17 O 0.0852(3) 0.4897(4) 0.6894(2)
Zn1 Zn 0.30438(3) 0.33512(4) 0.38042(2)
Zn2 Zn 0.28090(3) 0.26241(4) 0.53712(2)
Zn3 Zn 0.37288(4) 0.44588(5) 0.25451(3)
Zn4 Zn 0.12409(4) 0.03962(5) 0.27130(3)
N2C N 0.2654(5) 0.2559(6) 0.6281(5)
O3B O 0.4586(2) 0.4986(3) 0.31869(17)
O4B O 0.40793(18) 0.3644(3) 0.33814(14)
O5_2 O 0.3274(2) 0.1482(2) 0.51292(16)
O6_2 O 0.3510(2) 0.2187(2) 0.42645(18)
O8A O 0.4355(3) 0.4387(3) 0.1867(2)
O12_2 O 0.1438(3) -0.0686(3) 0.3212(2)
O13B O 0.1881(2) 0.3160(3) 0.51103(19)
O14B O 0.20172(18) 0.3096(3) 0.41187(19)
O17C O 0.0852(3) 0.0103(4) 0.1894(2)
Zn1_2 Zn 0.30438(3) 1.33512(4) 0.38042(2)
Zn1B Zn -0.30438(3) 0.66488(4) 0.61958(2)
Zn1B_2 Zn 0.69562(3) 0.66488(4) 0.61958(2)
Zn2_2 Zn 0.28090(3) 1.26241(4) 0.53712(2)
Zn2B Zn -0.28090(3) 0.73759(4) 0.46288(2)
Zn2C Zn 0.28090(3) 0.23759(4) 0.03712(2)
Zn3A Zn 0.62712(4) 0.94588(5) 0.24549(3)
Zn3B Zn 0.62712(4) 0.55412(5) 0.74549(3)
Zn4_2 Zn 0.12409(4) 1.03962(5) 0.27130(3)
Zn4C Zn 0.12409(4) 0.46038(5) 0.77130(3)
loop_
_geom_bond_atom_site_label_1
_geom_bond_atom_site_label_2
_geom_bond_site_symmetry_1
_geom_bond_site_symmetry_2
C1 C2 1_555 1_555
C2 C3 1_555 1_555
C3 H1 1_555 1_555
C4 C3 1_555 1_555
C5 C4 1_555 1_555
H2 C5 1_555 1_555
C6 C5 1_555 1_555
C7 C2 1_555 1_555
H3 C7 1_555 1_555
C8 C6 1_555 1_555
C9 C10 1_555 1_555
C10 H4 1_555 1_555
C11 C10 1_555 1_555
C12 C11 1_555 1_555
H5 C12 1_555 1_555
C13 C12 1_555 1_555
C14 C9 1_555 1_555
H6 C14 1_555 1_555
C15 C13 1_555 1_555
C16 C11 1_555 1_555
C17 C18 1_555 1_555
C18 C19 1_555 1_555
C19 H7 1_555 1_555
C20 C19 1_555 1_555
C21 C20 1_555 1_555
H8 C21 1_555 1_555
C22 C21 1_555 1_555
C23 C18 1_555 1_555
H9 C23 1_555 1_555
C24 C20 1_555 1_555
C25 C26 1_555 1_555
C26 H10 1_555 1_555
C27 C26 1_555 1_555
C28 C27 1_555 1_555
H11 C28 1_555 1_555
C29 C28 1_555 1_555
C30 C25 1_555 1_555
H12 C30 1_555 1_555
C31 C29 1_555 1_555
C32 C27 1_555 1_555
N1 C33 1_555 1_555
C33 H13 1_555 1_555
N2 C33 1_555 1_555
C34 N2 1_555 1_555
C35 C34 1_555 1_555
C36 N1 1_555 1_555
N3 C36 1_555 1_555
C37 N3 1_555 1_555
H14 C37 1_555 1_555
N4 C35 1_555 1_555
N5 C34 1_555 1_555
H15 N5 1_555 1_555
H16 N5 1_555 1_555
N6 C4 1_555 1_555
N7 C9 1_555 1_555
N8 C22 1_555 1_555
N9 C25 1_555 1_555
O1 C1 1_555 1_555
O2 C1 1_555 1_555
O3 C8 1_555 1_555
O4 C8 1_555 1_555
O5 C15 1_555 1_555
O6 C15 1_555 1_555
O7 C16 1_555 1_555
O8 C16 1_555 1_555
O9 C17 1_555 1_555
O10 C17 1_555 1_555
O11 C24 1_555 1_555
O12 C24 1_555 1_555
O13 C31 1_555 1_555
O14 C31 1_555 1_555
O15 C32 1_555 1_555
O16 Zn4 1_555 1_555
O17 C32 1_555 1_555
Zn1 N3 1_555 1_555
Zn2 O2 1_555 1_555
Zn3 N1 1_555 1_555
Zn4 N4 1_555 1_555
N2C Zn2 1_555 1_555
O3B Zn3 1_555 1_555
O4B Zn1 1_555 1_555
O5_2 Zn2 1_555 1_555
O6_2 Zn1 1_555 1_555
O8A Zn3 1_555 1_555
O12_2 Zn4 1_555 1_555
O13B Zn2 1_555 1_555
O14B Zn1 1_555 1_555
O17C Zn4 1_555 1_555
Zn1_2 O6 1_555 1_555
Zn1B O14 1_555 1_555
Zn1B_2 O4 1_555 1_555
Zn2_2 O5 1_555 1_555
Zn2B O13 1_555 1_555
Zn2C N2 1_555 1_555
Zn3A O8 1_555 1_555
Zn3B O3 1_555 1_555
Zn4_2 O12 1_555 1_555
Zn4C O17 1_555 1_555
C6 C7 1_555 1_555
C13 C14 1_555 1_555
C22 C23 1_555 1_555
C29 C30 1_555 1_555
C35 C36 1_555 1_555
C37 N4 1_555 1_555
N6 N7 1_555 1_555
N8 N9 1_555 1_555
O1 Zn1 1_555 1_555
O4 Zn3B 1_555 1_555
O9 Zn3 1_555 1_555
O10 Zn1 1_555 1_555
Zn3 O4B 1_555 1_555

#END
