
#######################################################################
#
#                 Cambridge Crystallographic Data Centre
#                                CCDC 
#
#######################################################################
#
# If this CIF has been generated from an entry in the Cambridge 
# Structural Database, then it will include bibliographic, chemical, 
# crystal, experimental, refinement or atomic coordinate data resulting 
# from the CCDC's data processing and validation procedures.
#
#######################################################################

data_QATPUX
_chemical_formula_moiety         '(C8 H2 Co3 O10)n'
_symmetry_cell_setting           monoclinic
_symmetry_space_group_name_H-M   'C 2/m'
_symmetry_Int_Tables_number      12
_space_group_name_Hall           '-C 2y'
loop_
_symmetry_equiv_pos_site_id
_symmetry_equiv_pos_as_xyz
1 x,y,z
2 1/2+x,1/2+y,z
3 -x,y,-z
4 1/2-x,1/2+y,-z
5 -x,-y,-z
6 1/2-x,1/2-y,-z
7 x,-y,z
8 1/2+x,1/2-y,z
_cell_length_a                   9.4684(11)
_cell_length_b                   12.7225(15)
_cell_length_c                   5.4873(7)
_cell_angle_alpha                90
_cell_angle_beta                 90.314(2)
_cell_angle_gamma                90
_cell_volume                     661
loop_
_atom_site_label
_atom_site_type_symbol
_atom_site_fract_x
_atom_site_fract_y
_atom_site_fract_z
Co1 Co 0.5000 0.5000 0.5000
Co2 Co 0.5000 0.37601(3) 0.0000
O1 O 0.37751(17) 0.26220(13) 0.1478(3)
O2 O 0.3995(3) 0.5000 0.1726(4)
H1 H 0.329(5) 0.5000 0.158(8)
C1 C 0.3081(2) 0.25720(19) 0.3396(4)
O3 O 0.37308(18) 0.38656(13) 0.6723(3)
C2 C 0.3054(2) 0.31136(18) 0.5760(4)
Co1A Co 0.0000 0.0000 0.5000
Co1A_2 Co 0.0000 1.0000 0.5000
Co2G Co -0.0000 0.12399(3) 1.0000
Co2F Co 0.5000 0.62399(3) 0.0000
Co2_2 Co 0.5000 0.37601(3) 1.0000
Co2G_2 Co 0.0000 0.12399(3) 0.0000
Co2F_2 Co 0.5000 0.62399(3) 1.0000
Co2A Co 0.0000 0.87601(3) 1.0000
Co2A_2 Co 0.0000 0.87601(3) 0.0000
O1E O 0.12249(17) 0.23780(13) 0.8522(3)
O1F O 0.37751(17) 0.73780(13) 0.1478(3)
O1C O 0.12249(17) 0.76220(13) 0.8522(3)
O1B O 0.62249(17) 0.26220(13) -0.1478(3)
O1G O -0.12249(17) 0.23780(13) 1.1478(3)
O2D O 0.6005(3) 0.5000 0.8274(4)
O2D_2 O 0.6005(3) 0.5000 -0.1726(4)
O2A O -0.1005(3) 0.0000 1.1726(4)
O2E O 0.1005(3) -0.0000 0.8274(4)
H1D H 0.671(5) 0.5000 0.842(8)
H1D_2 H 0.671(5) 0.5000 -0.158(8)
H1A H -0.171(5) -0.0000 1.158(8)
H1E H 0.171(5) -0.0000 0.842(8)
C1E C 0.1919(2) 0.24280(19) 0.6604(4)
C1F C 0.3081(2) 0.74280(19) 0.3396(4)
C1C C 0.1919(2) 0.75720(19) 0.6604(4)
O3E O 0.12692(18) 0.11344(13) 0.3277(3)
O3F O 0.37308(18) 0.61344(13) 0.6723(3)
O3C O 0.12692(18) 0.88656(13) 0.3277(3)
O3D O 0.62692(18) 0.61344(13) 0.3277(3)
O3B O 0.62692(18) 0.38656(13) 0.3277(3)
O3_2 O 0.37308(18) 0.38656(13) -0.3277(3)
O3G O -0.12692(18) 0.11344(13) 0.6723(3)
O3E_2 O 0.12692(18) 0.11344(13) 1.3277(3)
C2E C 0.1946(2) 0.18864(18) 0.4240(4)
C2F C 0.3054(2) 0.68864(18) 0.5760(4)
C2C C 0.1946(2) 0.81136(18) 0.4240(4)
loop_
_geom_bond_atom_site_label_1
_geom_bond_atom_site_label_2
_geom_bond_site_symmetry_1
_geom_bond_site_symmetry_2
Co1 O2 1_555 1_555
Co2 O1 1_555 1_555
O1 C1 1_555 1_555
O2 Co2 1_555 1_555
H1 O2 1_555 1_555
C1 C2 1_555 1_555
O3 Co1 1_555 1_555
C2 O3 1_555 1_555
Co1A O2E 1_555 1_555
Co1A_2 O3C 1_555 1_555
Co2G O1E 1_555 1_555
Co2F O2 1_555 1_555
Co2_2 O3 1_555 1_555
Co2G_2 O3E 1_555 1_555
Co2F_2 O2D 1_555 1_555
Co2A O1C 1_555 1_555
Co2A_2 O3C 1_555 1_555
O1E C1E 1_555 1_555
O1F Co2F 1_555 1_555
O1C C1C 1_555 1_555
O1B Co2 1_555 1_555
O1G Co2G 1_555 1_555
O2D Co1 1_555 1_555
O2D_2 Co2 1_555 1_555
O2A Co2G 1_555 1_555
O2E Co2G 1_555 1_555
H1D O2D 1_555 1_555
H1D_2 O2D_2 1_555 1_555
H1A O2A 1_555 1_555
H1E O2E 1_555 1_555
C1E C2 1_555 1_555
C1F O1F 1_555 1_555
C1C C2F 1_555 1_555
O3E Co1A 1_555 1_555
O3F Co1 1_555 1_555
O3C C2C 1_555 1_555
O3D Co1 1_555 1_555
O3B Co1 1_555 1_555
O3_2 Co2 1_555 1_555
O3G Co1A 1_555 1_555
O3E_2 Co2G 1_555 1_555
C2E C1 1_555 1_555
C2F C1F 1_555 1_555
C2C C1F 1_555 1_555
Co2 O3B 1_555 1_555
Co2G O3G 1_555 1_555
Co2F O2D_2 1_555 1_555
Co2F O3D 1_555 1_555
Co2_2 O2D 1_555 1_555
Co2F_2 O3F 1_555 1_555
C1E C2E 1_555 1_555
C1C C2C 1_555 1_555
O3E C2E 1_555 1_555
O3F C2F 1_555 1_555

#END
