
#######################################################################
#
#                 Cambridge Crystallographic Data Centre
#                                CCDC 
#
#######################################################################
#
# If this CIF has been generated from an entry in the Cambridge 
# Structural Database, then it will include bibliographic, chemical, 
# crystal, experimental, refinement or atomic coordinate data resulting 
# from the CCDC's data processing and validation procedures.
#
#######################################################################

data_SAKZEL
_chemical_formula_moiety         'C48 N4 O14 Zn9'
_symmetry_cell_setting           tetragonal
_symmetry_space_group_name_H-M   'P 4/m m m'
_symmetry_Int_Tables_number      123
_space_group_name_Hall           '-P 4 2'
loop_
_symmetry_equiv_pos_site_id
_symmetry_equiv_pos_as_xyz
1 x,y,z
2 -y,x,z
3 x,-y,-z
4 -x,-y,z
5 y,x,-z
6 y,-x,z
7 -x,y,-z
8 -y,-x,-z
9 -x,-y,-z
10 y,-x,-z
11 -x,y,z
12 x,y,-z
13 -y,-x,z
14 -y,x,-z
15 x,-y,z
16 y,x,z
_cell_length_a                   16.6179(16)
_cell_length_b                   16.6179(16)
_cell_length_c                   22.266(4)
_cell_angle_alpha                90
_cell_angle_beta                 90
_cell_angle_gamma                90
_cell_volume                     6148.86
loop_
_atom_site_label
_atom_site_type_symbol
_atom_site_fract_x
_atom_site_fract_y
_atom_site_fract_z
Zn1 Zn 0.5000 0.5000 0.5000
Zn2 Zn 1.0000 1.0000 0.56564(6)
O1 O 0.91578(13) 0.91578(13) 0.55240(18)
N1 N 0.6209(2) 0.5000 0.5000
C1 C 0.8942(2) 0.8942(2) 0.5000
C2 C 0.8272(2) 0.8272(2) 0.5000
C3 C 0.79937(19) 0.79937(19) 0.5531(3)
C4 C 0.7387(2) 0.7387(2) 0.5508(3)
C5 C 0.7102(2) 0.7102(2) 0.5000
C6 C 0.6459(2) 0.6459(2) 0.5000
C7 C 0.6715(2) 0.5664(2) 0.5000
C8 C 0.7550(2) 0.5411(2) 0.5000
Zn2B Zn 1.0000 1.0000 0.43436(6)
Zn2B_2 Zn 1.0000 0.0000 0.43436(6)
Zn2_2 Zn 1.0000 -0.0000 0.56564(6)
Zn2B_3 Zn 0.0000 0.0000 0.43436(6)
Zn2_3 Zn -0.0000 -0.0000 0.56564(6)
Zn2B_4 Zn 0.0000 1.0000 0.43436(6)
Zn2_4 Zn -0.0000 1.0000 0.56564(6)
O1D O 0.91578(13) 0.91578(13) 0.44760(18)
O1B O 0.91578(13) 0.08422(13) 0.44760(18)
O1E O 0.91578(13) 0.08422(13) 0.55240(18)
O1G O 0.08422(13) 0.08422(13) 0.44760(18)
O1C O 0.08422(13) 0.08422(13) 0.55240(18)
O1F O 0.08422(13) 0.91578(13) 0.44760(18)
O1A O 0.08422(13) 0.91578(13) 0.55240(18)
O1A_2 O 1.08422(13) 0.91578(13) 0.55240(18)
O1C_2 O 1.08422(13) 1.08422(13) 0.55240(18)
O1E_2 O 0.91578(13) 1.08422(13) 0.55240(18)
O1B_2 O 0.91578(13) 1.08422(13) 0.44760(18)
O1G_2 O 1.08422(13) 1.08422(13) 0.44760(18)
O1F_2 O 1.08422(13) 0.91578(13) 0.44760(18)
N1E N 0.5000 0.3791(2) 0.5000
N1C N 0.3791(2) 0.5000 0.5000
N1A N 0.5000 0.6209(2) 0.5000
C1B C 0.8942(2) 0.1058(2) 0.5000
C1C C 0.1058(2) 0.1058(2) 0.5000
C1A C 0.1058(2) 0.8942(2) 0.5000
C2B C 0.8272(2) 0.1728(2) 0.5000
C2C C 0.1728(2) 0.1728(2) 0.5000
C2A C 0.1728(2) 0.8272(2) 0.5000
C3D C 0.79937(19) 0.79937(19) 0.4469(3)
C3B C 0.79937(19) 0.20063(19) 0.4469(3)
C3E C 0.79937(19) 0.20063(19) 0.5531(3)
C3G C 0.20063(19) 0.20063(19) 0.4469(3)
C3C C 0.20063(19) 0.20063(19) 0.5531(3)
C3F C 0.20063(19) 0.79937(19) 0.4469(3)
C3A C 0.20063(19) 0.79937(19) 0.5531(3)
C4D C 0.7387(2) 0.7387(2) 0.4492(3)
C4B C 0.7387(2) 0.2613(2) 0.4492(3)
C4E C 0.7387(2) 0.2613(2) 0.5508(3)
C4G C 0.2613(2) 0.2613(2) 0.4492(3)
C4C C 0.2613(2) 0.2613(2) 0.5508(3)
C4F C 0.2613(2) 0.7387(2) 0.4492(3)
C4A C 0.2613(2) 0.7387(2) 0.5508(3)
C5B C 0.7102(2) 0.2898(2) 0.5000
C5C C 0.2898(2) 0.2898(2) 0.5000
C5A C 0.2898(2) 0.7102(2) 0.5000
C6B C 0.6459(2) 0.3541(2) 0.5000
C6C C 0.3541(2) 0.3541(2) 0.5000
C6A C 0.3541(2) 0.6459(2) 0.5000
C7B C 0.6715(2) 0.4336(2) 0.5000
C7E C 0.5664(2) 0.3285(2) 0.5000
C7G C 0.4336(2) 0.3285(2) 0.5000
C7C C 0.3285(2) 0.4336(2) 0.5000
C7F C 0.3285(2) 0.5664(2) 0.5000
C7A C 0.4336(2) 0.6715(2) 0.5000
C7D C 0.5664(2) 0.6715(2) 0.5000
C8D C 0.5411(2) 0.7550(2) 0.5000
C8A C 0.4589(2) 0.7550(2) 0.5000
C8F C 0.2450(2) 0.5411(2) 0.5000
C8C C 0.2450(2) 0.4589(2) 0.5000
C8G C 0.4589(2) 0.2450(2) 0.5000
C8E C 0.5411(2) 0.2450(2) 0.5000
C8B C 0.7550(2) 0.4589(2) 0.5000
loop_
_geom_bond_atom_site_label_1
_geom_bond_atom_site_label_2
_geom_bond_site_symmetry_1
_geom_bond_site_symmetry_2
Zn1 N1 1_555 1_555
Zn2 O1 1_555 1_555
O1 C1 1_555 1_555
N1 C7 1_555 1_555
C1 C2 1_555 1_555
C2 C3 1_555 1_555
C3 C4 1_555 1_555
C4 C5 1_555 1_555
C5 C6 1_555 1_555
C6 C7 1_555 1_555
C7 C8 1_555 1_555
C8 C8B 1_555 1_555
Zn2B O1D 1_555 1_555
Zn2B_2 O1B 1_555 1_555
Zn2_2 O1E 1_555 1_555
Zn2B_3 O1G 1_555 1_555
Zn2_3 O1C 1_555 1_555
Zn2B_4 O1F 1_555 1_555
Zn2_4 O1A 1_555 1_555
O1D C1 1_555 1_555
O1B C1B 1_555 1_555
O1E C1B 1_555 1_555
O1G C1C 1_555 1_555
O1C C1C 1_555 1_555
O1F C1A 1_555 1_555
O1A C1A 1_555 1_555
O1A_2 Zn2 1_555 1_555
O1C_2 Zn2 1_555 1_555
O1E_2 Zn2 1_555 1_555
O1B_2 Zn2B 1_555 1_555
O1G_2 Zn2B 1_555 1_555
O1F_2 Zn2B 1_555 1_555
N1E Zn1 1_555 1_555
N1C Zn1 1_555 1_555
N1A Zn1 1_555 1_555
C1B C2B 1_555 1_555
C1C C2C 1_555 1_555
C1A C2A 1_555 1_555
C2B C3B 1_555 1_555
C2C C3G 1_555 1_555
C2A C3F 1_555 1_555
C3D C2 1_555 1_555
C3B C4B 1_555 1_555
C3E C2B 1_555 1_555
C3G C4G 1_555 1_555
C3C C2C 1_555 1_555
C3F C4F 1_555 1_555
C3A C2A 1_555 1_555
C4D C5 1_555 1_555
C4B C5B 1_555 1_555
C4E C3E 1_555 1_555
C4G C5C 1_555 1_555
C4C C3C 1_555 1_555
C4F C5A 1_555 1_555
C4A C3A 1_555 1_555
C5B C4E 1_555 1_555
C5C C4C 1_555 1_555
C5A C4A 1_555 1_555
C6B C5B 1_555 1_555
C6C C5C 1_555 1_555
C6A C5A 1_555 1_555
C7B N1 1_555 1_555
C7E N1E 1_555 1_555
C7G N1E 1_555 1_555
C7C N1C 1_555 1_555
C7F N1C 1_555 1_555
C7A N1A 1_555 1_555
C7D C6 1_555 1_555
C8D C7D 1_555 1_555
C8A C7A 1_555 1_555
C8F C7F 1_555 1_555
C8C C7C 1_555 1_555
C8G C7G 1_555 1_555
C8E C7E 1_555 1_555
C8B C7B 1_555 1_555
N1A C7D 1_555 1_555
C3D C4D 1_555 1_555
C6B C7B 1_555 1_555
C6B C7E 1_555 1_555
C6C C7G 1_555 1_555
C6C C7C 1_555 1_555
C6A C7F 1_555 1_555
C6A C7A 1_555 1_555
C8D C8A 1_555 1_555
C8F C8C 1_555 1_555
C8G C8E 1_555 1_555

#END
