
#######################################################################
#
#                 Cambridge Crystallographic Data Centre
#                                CCDC 
#
#######################################################################
#
# If this CIF has been generated from an entry in the Cambridge 
# Structural Database, then it will include bibliographic, chemical, 
# crystal, experimental, refinement or atomic coordinate data resulting 
# from the CCDC's data processing and validation procedures.
#
#######################################################################

data_MANDUD
_chemical_formula_moiety         '(C48 H32 Gd2 O16)n'
_symmetry_cell_setting           monoclinic
_symmetry_space_group_name_H-M   'C 2/c'
_symmetry_Int_Tables_number      15
_space_group_name_Hall           '-C 2yc'
loop_
_symmetry_equiv_pos_site_id
_symmetry_equiv_pos_as_xyz
1 x,y,z
2 -x,y,1/2-z
3 1/2+x,1/2+y,z
4 1/2-x,1/2+y,1/2-z
5 -x,-y,-z
6 x,-y,1/2+z
7 1/2-x,1/2-y,-z
8 1/2+x,1/2-y,1/2+z
_cell_length_a                   35.067(3)
_cell_length_b                   24.035(3)
_cell_length_c                   26.081(3)
_cell_angle_alpha                90
_cell_angle_beta                 132.068(3)
_cell_angle_gamma                90
_cell_volume                     16318.3
loop_
_atom_site_label
_atom_site_type_symbol
_atom_site_fract_x
_atom_site_fract_y
_atom_site_fract_z
Gd1 Gd 0.40547(4) 0.23478(4) 0.39978(6)
Gd2 Gd 0.24023(4) 0.26517(4) 0.26238(5)
O1 O 0.4648(9) 0.2088(11) 0.5173(17)
H1 H 0.480612 0.230228 0.553360
H2 H 0.473142 0.174698 0.534060
O2 O 0.4758(6) 0.2997(11) 0.4582(14)
H3 H 0.499865 0.302374 0.502645
H4 H 0.481005 0.322494 0.439464
O3 O 0.1783(8) 0.2869(9) 0.1383(10)
H5 H 0.168853 0.320082 0.121259
H6 H 0.163133 0.263802 0.105619
O4 O 0.1714(9) 0.1977(11) 0.214(2)
H7 H 0.169477 0.176048 0.242688
H8 H 0.146207 0.190928 0.175848
O5 O 0.3572(8) 0.1769(7) 0.4092(10)
O6 O 0.2728(8) 0.1917(6) 0.3402(10)
O7 O 0.3432(8) -0.2025(7) 0.7859(8)
O8 O 0.2551(8) -0.1992(6) 0.7144(8)
O9 O 0.3728(7) 0.3103(7) 0.3270(9)
O10 O 0.2858(7) 0.3186(6) 0.2450(8)
O11 O 0.3863(6) 0.7043(6) -0.0487(8)
O12 O 0.3032(7) 0.6955(7) -0.1332(8)
O13 O 0.4409(6) 0.1438(6) 0.4066(8)
O14 O 0.4530(8) 0.2108(9) 0.3670(14)
O15 O 0.6967(6) -0.1494(6) 0.2488(8)
O16 O 0.6991(8) -0.2160(7) 0.3125(13)
C1 C 0.3124(12) 0.1656(9) 0.3845(14)
C2 C 0.3108(10) 0.1208(10) 0.4231(13)
C3 C 0.3019(13) -0.1493(11) 0.6879(15)
C4 C 0.2674(11) 0.1145(11) 0.4133(16)
H9 H 0.238981 0.137093 0.381757
C5 C 0.3493(11) 0.0834(10) 0.4655(14)
H10 H 0.379081 0.087444 0.472879
C6 C 0.2656(12) 0.0747(12) 0.4504(18)
H11 H 0.237229 0.074687 0.446425
C7 C 0.3474(10) 0.0421(10) 0.4965(13)
H12 H 0.373955 0.016279 0.521817
C8 C 0.3020(12) 0.0364(11) 0.4912(17)
C9 C 0.3030(11) -0.0045(9) 0.5302(13)
C10 C 0.3002(13) -0.0384(10) 0.5607(16)
C11 C 0.2535(15) -0.0917(13) 0.5833(17)
H13 H 0.221991 -0.077777 0.543962
C12 C 0.3444(15) -0.0978(11) 0.6580(19)
H14 H 0.374809 -0.088997 0.668691
C13 C 0.2979(14) -0.0773(11) 0.5984(17)
C14 C 0.2561(14) -0.1268(12) 0.6267(15)
H15 H 0.225498 -0.136607 0.615050
C15 C 0.3450(15) -0.1323(13) 0.7023(19)
H16 H 0.376590 -0.143885 0.743516
C16 C 0.3022(11) -0.1878(9) 0.7344(11)
C17 C 0.3310(10) 0.3316(9) 0.2713(13)
C18 C 0.3368(11) 0.3703(10) 0.2338(14)
C19 C 0.2928(13) 0.3925(12) 0.1730(16)
H17 H 0.261010 0.382113 0.157613
C20 C 0.3806(18) 0.388(2) 0.252(3)
H18 H 0.410685 0.373848 0.293314
C21 C 0.2948(15) 0.4317(15) 0.1328(17)
H19 H 0.265506 0.450369 0.095466
C22 C 0.3861(16) 0.4228(19) 0.219(2)
H20 H 0.418042 0.435940 0.237075
C23 C 0.3377(16) 0.4395(13) 0.150(2)
C24 C 0.3483(16) 0.4825(13) 0.117(2)
C25 C 0.3470(15) 0.5138(11) 0.0803(19)
C26 C 0.3449(15) 0.5559(12) 0.0397(19)
C27 C 0.3025(16) 0.5681(12) -0.025(2)
H21 H 0.272513 0.548220 -0.046003
C28 C 0.3908(15) 0.5832(13) 0.0684(17)
H22 H 0.421102 0.573256 0.112198
C29 C 0.3024(12) 0.6094(12) -0.0620(16)
H23 H 0.271625 0.619511 -0.105157
C30 C 0.3916(12) 0.6244(11) 0.0324(12)
H24 H 0.421645 0.644504 0.053735
C31 C 0.3477(10) 0.6362(9) -0.0356(11)
C32 C 0.3480(9) 0.6805(9) -0.0721(10)
C33 C 0.4613(12) 0.1654(12) 0.3848(18)
C34 C 0.4831(12) 0.1202(14) 0.3687(17)
C35 C 0.5058(15) 0.1385(15) 0.343(2)
H25 H 0.503085 0.175927 0.331435
C36 C 0.4863(9) 0.0669(11) 0.3814(11)
H26 H 0.471644 0.054710 0.398633
C37 C 0.5313(15) 0.1040(15) 0.333(2)
H27 H 0.548890 0.118021 0.320426
C38 C 0.5099(10) 0.0260(12) 0.3716(12)
H28 H 0.512120 -0.011156 0.383385
C39 C 0.5302(11) 0.0459(12) 0.3422(15)
C40 C 0.5599(11) 0.0114(13) 0.3353(14)
C41 C 0.5795(11) -0.0220(14) 0.3255(16)
C42 C 0.6035(10) -0.0604(12) 0.3116(14)
C43 C 0.6218(11) -0.1104(12) 0.3444(16)
H29 H 0.615341 -0.122062 0.371997
C44 C 0.6169(11) -0.0412(12) 0.2737(15)
H30 H 0.609530 -0.004826 0.257324
C45 C 0.6505(11) -0.1448(12) 0.3369(17)
H31 H 0.663539 -0.178848 0.359397
C46 C 0.6408(11) -0.0771(11) 0.2616(15)
H32 H 0.644391 -0.067331 0.230513
C47 C 0.6586(10) -0.1255(10) 0.2944(15)
C48 C 0.6854(12) -0.1686(11) 0.2821(17)
Gd1E Gd 0.40547(4) -0.23478(4) 0.89978(6)
Gd1E_2 Gd 0.40547(4) 0.76522(4) -0.10022(6)
Gd2B Gd 0.74023(4) -0.23483(4) 0.26238(5)
Gd2E Gd 0.24023(4) -0.26517(4) 0.76238(5)
Gd2E_2 Gd 0.24023(4) 0.73483(4) -0.23762(5)
O7E O 0.3432(8) 0.2025(7) 0.2859(8)
O8E O 0.2551(8) 0.1992(6) 0.2144(8)
O11E O 0.3863(6) 0.2957(6) 0.4513(8)
O12E O 0.3032(7) 0.3045(7) 0.3668(8)
O15B O 0.1967(6) 0.3506(6) 0.2488(8)
O16B O 0.1991(8) 0.2840(7) 0.3125(13)
loop_
_geom_bond_atom_site_label_1
_geom_bond_atom_site_label_2
_geom_bond_site_symmetry_1
_geom_bond_site_symmetry_2
Gd1 O1 1_555 1_555
Gd2 O3 1_555 1_555
O1 H1 1_555 1_555
H2 O1 1_555 1_555
O2 Gd1 1_555 1_555
H3 O2 1_555 1_555
H4 O2 1_555 1_555
O3 H5 1_555 1_555
H6 O3 1_555 1_555
O4 Gd2 1_555 1_555
H7 O4 1_555 1_555
H8 O4 1_555 1_555
O5 Gd1 1_555 1_555
O6 Gd2 1_555 1_555
O7 C16 1_555 1_555
O8 C16 1_555 1_555
O9 Gd1 1_555 1_555
O10 Gd2 1_555 1_555
O11 C32 1_555 1_555
O12 C32 1_555 1_555
O13 Gd1 1_555 1_555
O14 Gd1 1_555 1_555
O15 C48 1_555 1_555
O16 C48 1_555 1_555
C1 O5 1_555 1_555
C2 C1 1_555 1_555
C3 C14 1_555 1_555
C4 C2 1_555 1_555
H9 C4 1_555 1_555
C5 C2 1_555 1_555
H10 C5 1_555 1_555
C6 C4 1_555 1_555
H11 C6 1_555 1_555
C7 C5 1_555 1_555
H12 C7 1_555 1_555
C8 C6 1_555 1_555
C9 C8 1_555 1_555
C10 C9 1_555 1_555
C11 H13 1_555 1_555
C12 H14 1_555 1_555
C13 C10 1_555 1_555
C14 C11 1_555 1_555
H15 C14 1_555 1_555
C15 C3 1_555 1_555
H16 C15 1_555 1_555
C16 C3 1_555 1_555
C17 O9 1_555 1_555
C18 C17 1_555 1_555
C19 C18 1_555 1_555
H17 C19 1_555 1_555
C20 C18 1_555 1_555
H18 C20 1_555 1_555
C21 C19 1_555 1_555
H19 C21 1_555 1_555
C22 C20 1_555 1_555
H20 C22 1_555 1_555
C23 C21 1_555 1_555
C24 C23 1_555 1_555
C25 C24 1_555 1_555
C26 C25 1_555 1_555
C27 C26 1_555 1_555
H21 C27 1_555 1_555
C28 C26 1_555 1_555
H22 C28 1_555 1_555
C29 C27 1_555 1_555
H23 C29 1_555 1_555
C30 C28 1_555 1_555
H24 C30 1_555 1_555
C31 C29 1_555 1_555
C32 C31 1_555 1_555
C33 O13 1_555 1_555
C34 C33 1_555 1_555
C35 C34 1_555 1_555
H25 C35 1_555 1_555
C36 C34 1_555 1_555
H26 C36 1_555 1_555
C37 C35 1_555 1_555
H27 C37 1_555 1_555
C38 C36 1_555 1_555
H28 C38 1_555 1_555
C39 C37 1_555 1_555
C40 C39 1_555 1_555
C41 C40 1_555 1_555
C42 C41 1_555 1_555
C43 C42 1_555 1_555
H29 C43 1_555 1_555
C44 C42 1_555 1_555
H30 C44 1_555 1_555
C45 C43 1_555 1_555
H31 C45 1_555 1_555
C46 C44 1_555 1_555
H32 C46 1_555 1_555
C47 C45 1_555 1_555
C48 C47 1_555 1_555
Gd1E O7 1_555 1_555
Gd1E_2 O11 1_555 1_555
Gd2B O15 1_555 1_555
Gd2E O8 1_555 1_555
Gd2E_2 O12 1_555 1_555
O7E Gd1 1_555 1_555
O8E Gd2 1_555 1_555
O11E Gd1 1_555 1_555
O12E Gd2 1_555 1_555
O15B Gd2 1_555 1_555
O16B Gd2 1_555 1_555
O6 C1 1_555 1_555
O10 C17 1_555 1_555
O14 C33 1_555 1_555
O16 Gd2B 1_555 1_555
C7 C8 1_555 1_555
C11 C13 1_555 1_555
C12 C13 1_555 1_555
C12 C15 1_555 1_555
C22 C23 1_555 1_555
C30 C31 1_555 1_555
C38 C39 1_555 1_555
C46 C47 1_555 1_555

#END
