
#######################################################################
#
#                 Cambridge Crystallographic Data Centre
#                                CCDC 
#
#######################################################################
#
# If this CIF has been generated from an entry in the Cambridge 
# Structural Database, then it will include bibliographic, chemical, 
# crystal, experimental, refinement or atomic coordinate data resulting 
# from the CCDC's data processing and validation procedures.
#
#######################################################################

data_NUJGEG
_chemical_formula_moiety         '(C28 H42 Cl2 Mn1 N8 O4 P2)n'
_symmetry_cell_setting           trigonal
_symmetry_space_group_name_H-M   'P 31 2 1'
_symmetry_Int_Tables_number      152
_space_group_name_Hall           'P 31 2"'
loop_
_symmetry_equiv_pos_site_id
_symmetry_equiv_pos_as_xyz
1 x,y,z
2 -y,x-y,1/3+z
3 -x+y,-x,2/3+z
4 y,x,-z
5 -x,-x+y,1/3-z
6 x-y,-y,2/3-z
_cell_length_a                   16.7451(5)
_cell_length_b                   16.7451(5)
_cell_length_c                   25.7864(9)
_cell_angle_alpha                90
_cell_angle_beta                 90
_cell_angle_gamma                120
_cell_volume                     6261.77
loop_
_atom_site_label
_atom_site_type_symbol
_atom_site_fract_x
_atom_site_fract_y
_atom_site_fract_z
Mn1 Mn 0.44846(8) 0.46150(8) 0.25164(4)
Cl1 Cl 0.4981(2) 0.62939(17) 0.24988(8)
Cl2 Cl 0.30959(17) 0.40750(19) 0.31016(7)
O1 O 0.5722(4) 0.4874(4) 0.20729(18)
O2 O 0.3695(4) 0.4353(4) 0.18031(19)
N1 N 0.5887(5) 0.8961(9) 0.0874(2)
N2 N 0.0537(14) 0.5187(11) 0.3422(2)
P1 P 0.62636(19) 0.52876(19) 0.16031(9)
P2 P 0.28399(15) 0.42694(16) 0.15820(7)
C1 C 0.6123(7) 0.8609(12) 0.0474(3)
C2 C 0.5880(7) 0.8607(11) 0.1338(3)
C3 C 0.1407(16) 0.5374(13) 0.3401(3)
C4 C 0.0015(18) 0.4818(14) 0.3004(3)
N3 N 0.6159(5) 0.6224(5) 0.1472(3)
N4 N 0.600(2) 0.4688(16) 0.1100(10)
N5 N 0.2295(8) 0.4464(6) 0.2084(2)
N6 N 0.3080(5) 0.5006(5) 0.1124(2)
N7 N 0.204(2) 0.3257(11) 0.1346(11)
C5 C 0.6345(7) 0.7920(11) 0.0528(3)
H1 H 0.6139 0.8840 0.0144
H2 H 0.5720 0.8838 0.1623
C6 C 0.6090(7) 0.7934(11) 0.1424(3)
H3 H 0.1781 0.5653 0.3688
C7 C 0.1792(18) 0.5177(14) 0.2975(3)
C8 C 0.0352(20) 0.4640(16) 0.2550(3)
H4 H -0.0598 0.4672 0.3015
H5 H 0.5831 0.6334 0.1686
C9 C 0.6538(7) 0.6816(6) 0.1064(3)
C10 C 0.528(2) 0.4576(15) 0.0758(8)
C11 C 0.621(2) 0.3973(16) 0.1026(6)
H6 H 0.2480 0.4437 0.2392
C12 C 0.1592(10) 0.4636(7) 0.2046(3)
C13 C 0.3807(8) 0.5986(7) 0.1204(4)
C14 C 0.2424(7) 0.5015(9) 0.0724(3)
C15 C 0.2211(19) 0.2932(14) 0.0836(9)
C16 C 0.1486(18) 0.2450(14) 0.1695(8)
C17 C 0.6317(6) 0.7580(10) 0.1012(3)
H7 H 0.6508 0.7695 0.0241
H8 H 0.6078 0.7719 0.1758
H9 H 0.2396 0.5292 0.2985
C18 C 0.1260(16) 0.4812(13) 0.2543(3)
H10 H -0.0019 0.4413 0.2257
O3 O 0.7025(6) 0.6746(6) 0.0737(3)
H11 H 0.5474 0.5117 0.0543
H12 H 0.4729 0.4450 0.0948
C19 C 0.5123(16) 0.3749(15) 0.0438(7)
C20 C 0.5999(14) 0.3692(14) 0.0464(5)
H13 H 0.5842 0.3455 0.1252
H14 H 0.6860 0.4197 0.1098
O4 O 0.1209(11) 0.4587(9) 0.1646(2)
H15 H 0.3837 0.6149 0.1567
H16 H 0.4403 0.6074 0.1102
C21 C 0.3576(11) 0.6574(10) 0.0886(5)
C22 C 0.2599(11) 0.5979(12) 0.0716(5)
H17 H 0.2542 0.4843 0.0385
H18 H 0.1789 0.4588 0.0819
H19 H 0.2850 0.3299 0.0728
H20 H 0.1813 0.2942 0.0566
C23 C 0.1969(17) 0.1963(13) 0.0971(8)
C24 C 0.1332(19) 0.1600(13) 0.1427(9)
H21 H 0.1812 0.2526 0.2018
H22 H 0.0899 0.2408 0.1772
H23 H 0.4987 0.3823 0.0081
H24 H 0.4606 0.3190 0.0575
H25 H 0.5887 0.3074 0.0401
H26 H 0.6474 0.4125 0.0232
H27 H 0.3982 0.6811 0.0588
H28 H 0.3641 0.7092 0.1089
H29 H 0.2512 0.6148 0.0370
H30 H 0.2183 0.6045 0.0951
H31 H 0.1679 0.1566 0.0674
H32 H 0.2530 0.1950 0.1049
H33 H 0.0696 0.1228 0.1316
H34 H 0.1489 0.1232 0.1650
N8 N 0.7313(11) 0.5528(21) 0.1694(5)
C25 C 0.7958(12) 0.5639(25) 0.1244(7)
H35 H 0.8077 0.6154 0.1021
C26 C 0.8784(12) 0.5823(24) 0.1552(6)
H36 H 0.9325 0.6312 0.1382
C27 C 0.8794(12) 0.6089(25) 0.2101(7)
H37 H 0.9194 0.6747 0.2148
C28 C 0.7815(11) 0.5812(24) 0.2212(7)
H38 H 0.7776 0.6324 0.2360
H39 H 0.7724 0.5081 0.1039
H40 H 0.7547 0.5301 0.2455
H41 H 0.8840 0.5274 0.1544
H42 H 0.9002 0.5765 0.2326
Mn1D Mn 0.55154(8) 1.01304(11) 0.08169(4)
Mn1E Mn -0.01304(11) 0.53850(8) 0.41503(4)
N1D N 0.4113(5) 0.3074(10) 0.2459(2)
N2E N 0.5350(18) 0.4813(11) 0.3245(2)
loop_
_geom_bond_atom_site_label_1
_geom_bond_atom_site_label_2
_geom_bond_site_symmetry_1
_geom_bond_site_symmetry_2
Mn1 Cl1 1_555 1_555
Cl2 Mn1 1_555 1_555
O1 Mn1 1_555 1_555
O2 Mn1 1_555 1_555
N1 C1 1_555 1_555
N2 C3 1_555 1_555
P1 O1 1_555 1_555
P2 O2 1_555 1_555
C1 C5 1_555 1_555
C2 N1 1_555 1_555
C3 H3 1_555 1_555
C4 N2 1_555 1_555
N3 P1 1_555 1_555
N4 P1 1_555 1_555
N5 P2 1_555 1_555
N6 P2 1_555 1_555
N7 P2 1_555 1_555
C5 C17 1_555 1_555
H1 C1 1_555 1_555
H2 C2 1_555 1_555
C6 C2 1_555 1_555
C7 C3 1_555 1_555
C8 C4 1_555 1_555
H4 C4 1_555 1_555
H5 N3 1_555 1_555
C9 N3 1_555 1_555
C10 N4 1_555 1_555
C11 N4 1_555 1_555
H6 N5 1_555 1_555
C12 N5 1_555 1_555
C13 N6 1_555 1_555
C14 N6 1_555 1_555
C15 N7 1_555 1_555
C16 N7 1_555 1_555
C17 C6 1_555 1_555
H7 C5 1_555 1_555
H8 C6 1_555 1_555
H9 C7 1_555 1_555
C18 C7 1_555 1_555
H10 C8 1_555 1_555
O3 C9 1_555 1_555
H11 C10 1_555 1_555
H12 C10 1_555 1_555
C19 C10 1_555 1_555
C20 C11 1_555 1_555
H13 C11 1_555 1_555
H14 C11 1_555 1_555
O4 C12 1_555 1_555
H15 C13 1_555 1_555
H16 C13 1_555 1_555
C21 C13 1_555 1_555
C22 C14 1_555 1_555
H17 C14 1_555 1_555
H18 C14 1_555 1_555
H19 C15 1_555 1_555
H20 C15 1_555 1_555
C23 C15 1_555 1_555
C24 C16 1_555 1_555
H21 C16 1_555 1_555
H22 C16 1_555 1_555
H23 C19 1_555 1_555
H24 C19 1_555 1_555
H25 C20 1_555 1_555
H26 C20 1_555 1_555
H27 C21 1_555 1_555
H28 C21 1_555 1_555
H29 C22 1_555 1_555
H30 C22 1_555 1_555
H31 C23 1_555 1_555
H32 C23 1_555 1_555
H33 C24 1_555 1_555
H34 C24 1_555 1_555
N8 P1 1_555 1_555
C25 N8 1_555 1_555
H35 C25 1_555 1_555
C26 C25 1_555 1_555
H36 C26 1_555 1_555
C27 C26 1_555 1_555
H37 C27 1_555 1_555
C28 N8 1_555 1_555
H38 C28 1_555 1_555
H39 C25 1_555 1_555
H40 C28 1_555 1_555
H41 C26 1_555 1_555
H42 C27 1_555 1_555
Mn1D N1 1_555 1_555
Mn1E N2 1_555 1_555
N1D Mn1 1_555 1_555
N2E Mn1 1_555 1_555
C8 C18 1_555 1_555
C9 C17 1_555 1_555
C12 C18 1_555 1_555
C19 C20 1_555 1_555
C21 C22 1_555 1_555
C23 C24 1_555 1_555
C27 C28 1_555 1_555

#END
