
#######################################################################
#
#                 Cambridge Crystallographic Data Centre
#                                CCDC 
#
#######################################################################
#
# If this CIF has been generated from an entry in the Cambridge 
# Structural Database, then it will include bibliographic, chemical, 
# crystal, experimental, refinement or atomic coordinate data resulting 
# from the CCDC's data processing and validation procedures.
#
#######################################################################

data_ZESFUY
_chemical_formula_moiety         '(C20 H16 F6 N4 Si1 Zn1)n'
_symmetry_cell_setting           tetragonal
_symmetry_space_group_name_H-M   'P 4/m m m'
_symmetry_Int_Tables_number      123
_space_group_name_Hall           '-P 4 2'
loop_
_symmetry_equiv_pos_site_id
_symmetry_equiv_pos_as_xyz
1 x,y,z
2 -y,x,z
3 x,-y,-z
4 -x,-y,z
5 y,x,-z
6 y,-x,z
7 -x,y,-z
8 -y,-x,-z
9 -x,-y,-z
10 y,-x,-z
11 -x,y,z
12 x,y,-z
13 -y,-x,z
14 -y,x,-z
15 x,-y,z
16 y,x,z
_cell_length_a                   11.3959(11)
_cell_length_b                   11.3959(11)
_cell_length_c                   7.6775(9)
_cell_angle_alpha                90
_cell_angle_beta                 90
_cell_angle_gamma                90
_cell_volume                     997.05
loop_
_atom_site_label
_atom_site_type_symbol
_atom_site_fract_x
_atom_site_fract_y
_atom_site_fract_z
Zn1 Zn 0.0000 0.0000 0.0000
Si1 Si -0.0000 -0.0000 0.5000
F1 F 0.0000 0.0000 0.2712(13)
F2 F 0.1030(3) 0.1030 0.5000
N1 N -0.0000 0.1893(7) 0.0000
C1 C -0.0000 0.2499(7) 0.1412(12)
C2 C -0.0000 0.3715(7) 0.1445(12)
C3 C 0.0000 0.4332(8) 0.0000
H1 H -0.0000 0.205 0.258
H2 H 0.0000 0.415 0.263
F1B F 0.0000 0.0000 0.7288(13)
F2A F -0.1030 0.1030(3) 0.5000
F2B F 0.1030(3) -0.1030 0.5000
F2C F -0.1030(3) -0.1030 0.5000
C2F C 0.0000 0.3715(7) -0.1445(12)
C1F C -0.0000 0.2499(7) -0.1412(12)
H1F H 0.0000 0.205 -0.258
H2F H 0.0000 0.415 -0.263
C3B C -0.0000 0.5668(8) 0.0000
C2B C -0.0000 0.6285(7) -0.1445(12)
C1B C -0.0000 0.7501(7) -0.1412(12)
N1B N -0.0000 0.8107(7) 0.0000
C1C C -0.0000 0.7501(7) 0.1412(12)
C2C C 0.0000 0.6285(7) 0.1445(12)
H2C H 0.0000 0.585 0.263
H1C H -0.0000 0.795 0.258
H1B H 0.0000 0.795 -0.258
H2B H -0.0000 0.585 -0.263
N1A N -0.1893(7) 0.0000 0.0000
C1A C -0.2499(7) -0.0000 0.1412(12)
C2A C -0.3715(7) -0.0000 0.1445(12)
C3A C -0.4332(8) 0.0000 0.0000
H1A H -0.205 0.0000 0.258
H2A H -0.415 -0.0000 0.263
C2G C -0.3715(7) 0.0000 -0.1445(12)
C1G C -0.2499(7) 0.0000 -0.1412(12)
H1G H -0.205 0.0000 -0.258
H2G H -0.415 0.0000 -0.263
C3D C -0.5668(8) 0.0000 0.0000
C2D C -0.6285(7) 0.0000 -0.1445(12)
C1D C -0.7501(7) 0.0000 -0.1412(12)
N1D N -0.8107(7) 0.0000 0.0000
C1E C -0.7501(7) -0.0000 0.1412(12)
C2E C -0.6285(7) -0.0000 0.1445(12)
H2E H -0.585 -0.0000 0.263
H1E H -0.795 0.0000 0.258
H1D H -0.795 0.0000 -0.258
H2D H -0.585 0.0000 -0.263
F1B_2 F 0.0000 0.0000 -0.2712(13)
N1B_2 N 0.0000 -0.1893(7) 0.0000
N1D_2 N 0.1893(7) 0.0000 0.0000
Zn1_2 Zn -0.0000 -0.0000 1.0000
Zn1_3 Zn 0.0000 1.0000 0.0000
Zn1_4 Zn -1.0000 0.0000 0.0000
loop_
_geom_bond_atom_site_label_1
_geom_bond_atom_site_label_2
_geom_bond_site_symmetry_1
_geom_bond_site_symmetry_2
Zn1 F1 1_555 1_555
Si1 F1 1_555 1_555
F2 Si1 1_555 1_555
N1 Zn1 1_555 1_555
C1 N1 1_555 1_555
C2 C1 1_555 1_555
C3 C2 1_555 1_555
H1 C1 1_555 1_555
H2 C2 1_555 1_555
F1B Si1 1_555 1_555
F2A Si1 1_555 1_555
F2B Si1 1_555 1_555
F2C Si1 1_555 1_555
C2F C3 1_555 1_555
C1F N1 1_555 1_555
H1F C1F 1_555 1_555
H2F C2F 1_555 1_555
C3B C3 1_555 1_555
C2B C3B 1_555 1_555
C1B C2B 1_555 1_555
N1B C1B 1_555 1_555
C1C N1B 1_555 1_555
C2C C3B 1_555 1_555
H2C C2C 1_555 1_555
H1C C1C 1_555 1_555
H1B C1B 1_555 1_555
H2B C2B 1_555 1_555
N1A Zn1 1_555 1_555
C1A N1A 1_555 1_555
C2A C1A 1_555 1_555
C3A C2A 1_555 1_555
H1A C1A 1_555 1_555
H2A C2A 1_555 1_555
C2G C3A 1_555 1_555
C1G N1A 1_555 1_555
H1G C1G 1_555 1_555
H2G C2G 1_555 1_555
C3D C3A 1_555 1_555
C2D C3D 1_555 1_555
C1D C2D 1_555 1_555
N1D C1D 1_555 1_555
C1E N1D 1_555 1_555
C2E C3D 1_555 1_555
H2E C2E 1_555 1_555
H1E C1E 1_555 1_555
H1D C1D 1_555 1_555
H2D C2D 1_555 1_555
F1B_2 Zn1 1_555 1_555
N1B_2 Zn1 1_555 1_555
N1D_2 Zn1 1_555 1_555
Zn1_2 F1B 1_555 1_555
Zn1_3 N1B 1_555 1_555
Zn1_4 N1D 1_555 1_555
C2F C1F 1_555 1_555
C1C C2C 1_555 1_555
C2G C1G 1_555 1_555
C1E C2E 1_555 1_555

#END
