
#######################################################################
#
#                 Cambridge Crystallographic Data Centre
#                                CCDC 
#
#######################################################################
#
# If this CIF has been generated from an entry in the Cambridge 
# Structural Database, then it will include bibliographic, chemical, 
# crystal, experimental, refinement or atomic coordinate data resulting 
# from the CCDC's data processing and validation procedures.
#
#######################################################################

data_FAHGAY
_chemical_formula_moiety         '(C36 H12 Be3 O24 6-)n'
_symmetry_cell_setting           cubic
_symmetry_space_group_name_H-M   'I -4 3 d'
_symmetry_Int_Tables_number      220
_space_group_name_Hall           'I -4bd 2c 3'
loop_
_symmetry_equiv_pos_site_id
_symmetry_equiv_pos_as_xyz
1 x,y,z
2 1/2-x,-y,1/2+z
3 -x,1/2+y,1/2-z
4 1/2+x,1/2-y,-z
5 z,x,y
6 1/2+z,1/2-x,-y
7 1/2-z,-x,1/2+y
8 -z,1/2+x,1/2-y
9 y,z,x
10 -y,1/2+z,1/2-x
11 1/2+y,1/2-z,-x
12 1/2-y,-z,1/2+x
13 1/4+y,1/4+x,1/4+z
14 1/4-y,3/4-x,3/4+z
15 3/4+y,1/4-x,3/4-z
16 3/4-y,3/4+x,1/4-z
17 1/4+x,1/4+z,1/4+y
18 3/4-x,3/4+z,1/4-y
19 1/4-x,3/4-z,3/4+y
20 3/4+x,1/4-z,3/4-y
21 1/4+z,1/4+y,1/4+x
22 3/4+z,1/4-y,3/4-x
23 3/4-z,3/4+y,1/4-x
24 1/4-z,3/4-y,3/4+x
25 1/2+x,1/2+y,1/2+z
26 -x,1/2-y,z
27 1/2-x,y,-z
28 x,-y,1/2-z
29 1/2+z,1/2+x,1/2+y
30 z,-x,1/2-y
31 -z,1/2-x,y
32 1/2-z,x,-y
33 1/2+y,1/2+z,1/2+x
34 1/2-y,z,-x
35 y,-z,1/2-x
36 -y,1/2-z,x
37 3/4+y,3/4+x,3/4+z
38 3/4-y,1/4-x,1/4+z
39 1/4+y,3/4-x,1/4-z
40 1/4-y,1/4+x,3/4-z
41 3/4+x,3/4+z,3/4+y
42 1/4-x,1/4+z,3/4-y
43 3/4-x,1/4-z,1/4+y
44 1/4+x,3/4-z,1/4-y
45 3/4+z,3/4+y,3/4+x
46 1/4+z,3/4-y,1/4-x
47 1/4-z,1/4+y,3/4-x
48 3/4-z,1/4-y,1/4+x
_cell_length_a                   19.3050(2)
_cell_length_b                   19.3050(2)
_cell_length_c                   19.3050(2)
_cell_angle_alpha                90
_cell_angle_beta                 90
_cell_angle_gamma                90
_cell_volume                     7194.65
loop_
_atom_site_label
_atom_site_type_symbol
_atom_site_fract_x
_atom_site_fract_y
_atom_site_fract_z
_atom_site_U_iso_or_equiv
_atom_site_thermal_displace_type
Be1 Be 1.0000 0.7500 0.6250 0.0297 Uani
O1 O 1.00996(12) 0.81951(12) 0.57924(12) 0.0453 Uani
O2 O 0.9189(4) 0.8208(4) 0.5080(5) 0.0993 Uani
C1 C 0.97364(18) 0.93735(18) 0.43946(18) 0.0393 Uani
H1 H 0.9342 0.9171 0.4207 0.0470 Uiso
C2 C 1.00413(18) 0.90871(17) 0.49830(18) 0.0390 Uani
C3 C 0.9748(2) 0.8431(2) 0.5299(2) 0.0527 Uani
Be1I Be 1.2500 1.1250 0.5000 0.0297 Uani
Be1F Be 0.8750 1.0000 0.2500 0.0297 Uani
Be1D Be 0.6250 1.0000 0.7500 0.0297 Uani
Be1H Be 0.7500 0.6250 1.0000 0.0297 Uani
Be1K Be 0.7500 0.3750 0.5000 0.0297 Uani
Be1E Be 1.1250 0.5000 0.2500 0.0297 Uani
Be1G Be 1.3750 0.5000 0.7500 0.0297 Uani
Be1J Be 1.2500 0.8750 1.0000 0.0297 Uani
O1I O 1.18049(12) 1.07924(12) 0.49004(12) 0.0453 Uani
O1F O 0.92076(12) 0.99004(12) 0.31951(12) 0.0453 Uani
O1O O 0.93049(12) 0.75996(12) 0.67076(12) 0.0453 Uani
O1W O 0.67076(12) 0.93049(12) 0.75996(12) 0.0453 Uani
O1S O 0.75996(12) 0.67076(12) 0.93049(12) 0.0453 Uani
O1Y O 0.99004(12) 0.68049(12) 0.57924(12) 0.0453 Uani
O1HA O 0.81951(12) 0.42076(12) 0.49004(12) 0.0453 Uani
O1BA O 1.07924(12) 0.50996(12) 0.31951(12) 0.0453 Uani
O1LA O 1.06951(12) 0.74004(12) 0.67076(12) 0.0453 Uani
O1RA O 1.32924(12) 0.56951(12) 0.75996(12) 0.0453 Uani
O1OA O 1.24004(12) 0.82924(12) 0.93049(12) 0.0453 Uani
O1R O 1.24004(12) 1.17076(12) 0.56951(12) 0.0453 Uani
O1FA O 1.31951(12) 1.07924(12) 0.50996(12) 0.0453 Uani
O1QA O 1.25996(12) 1.17076(12) 0.43049(12) 0.0453 Uani
O1T O 0.82924(12) 1.06951(12) 0.25996(12) 0.0453 Uani
O1EA O 0.92076(12) 1.00996(12) 0.18049(12) 0.0453 Uani
O1SA O 0.82924(12) 0.93049(12) 0.24004(12) 0.0453 Uani
O2I O 1.1792(4) 1.0080(5) 0.5811(4) 0.0993 Uani
O2F O 0.9920(5) 1.0811(4) 0.3208(4) 0.0993 Uani
O2O O 0.9292(4) 0.6689(4) 0.7420(5) 0.0993 Uani
O2W O 0.7420(5) 0.9292(4) 0.6689(4) 0.0993 Uani
O2S O 0.6689(4) 0.7420(5) 0.9292(4) 0.0993 Uani
O2Y O 1.0811(4) 0.6792(4) 0.5080(5) 0.0993 Uani
O2HA O 0.8208(4) 0.4920(5) 0.5811(4) 0.0993 Uani
O2BA O 1.0080(5) 0.4189(4) 0.3208(4) 0.0993 Uani
O2LA O 1.0708(4) 0.8311(4) 0.7420(5) 0.0993 Uani
O2RA O 1.2580(5) 0.5708(4) 0.6689(4) 0.0993 Uani
O2OA O 1.3311(4) 0.7580(5) 0.9292(4) 0.0993 Uani
C1F C 1.06054(18) 1.02636(18) 0.43735(18) 0.0393 Uani
C1I C 1.06265(18) 0.93946(18) 0.52636(18) 0.0393 Uani
C1O C 0.81265(18) 0.72364(18) 0.81054(18) 0.0393 Uani
C1S C 0.72364(18) 0.81054(18) 0.81265(18) 0.0393 Uani
C1W C 0.81054(18) 0.81265(18) 0.72364(18) 0.0393 Uani
C1Y C 1.02636(18) 0.56265(18) 0.43946(18) 0.0393 Uani
C1BA C 0.93946(18) 0.47364(18) 0.43735(18) 0.0393 Uani
C1HA C 0.93735(18) 0.56054(18) 0.52636(18) 0.0393 Uani
C1LA C 1.18735(18) 0.77636(18) 0.81054(18) 0.0393 Uani
C1OA C 1.27636(18) 0.68946(18) 0.81265(18) 0.0393 Uani
C1RA C 1.18946(18) 0.68735(18) 0.72364(18) 0.0393 Uani
H1F H 1.0793 1.0658 0.4171 0.0470 Uiso
H1I H 1.0829 0.9207 0.5658 0.0470 Uiso
H1O H 0.8329 0.6842 0.8293 0.0470 Uiso
H1S H 0.6842 0.8293 0.8329 0.0470 Uiso
H1W H 0.8293 0.8329 0.6842 0.0470 Uiso
H1Y H 1.0658 0.5829 0.4207 0.0470 Uiso
H1BA H 0.9207 0.4342 0.4171 0.0470 Uiso
H1HA H 0.9171 0.5793 0.5658 0.0470 Uiso
H1LA H 1.1671 0.8158 0.8293 0.0470 Uiso
H1OA H 1.3158 0.6707 0.8329 0.0470 Uiso
H1RA H 1.1707 0.6671 0.6842 0.0470 Uiso
C2F C 1.00170(18) 0.99587(18) 0.40871(17) 0.0390 Uani
C2I C 1.09129(17) 0.99830(18) 0.49587(18) 0.0390 Uani
C2O C 0.84129(17) 0.75413(18) 0.75170(18) 0.0390 Uani
C2S C 0.75413(18) 0.75170(18) 0.84129(17) 0.0390 Uani
C2W C 0.75170(18) 0.84129(17) 0.75413(18) 0.0390 Uani
C2Y C 0.99587(18) 0.59129(17) 0.49830(18) 0.0390 Uani
C2BA C 0.99830(18) 0.50413(18) 0.40871(17) 0.0390 Uani
C2HA C 0.90871(17) 0.50170(18) 0.49587(18) 0.0390 Uani
C2LA C 1.15871(17) 0.74587(18) 0.75170(18) 0.0390 Uani
C2OA C 1.24587(18) 0.74830(18) 0.84129(17) 0.0390 Uani
C2RA C 1.24830(18) 0.65871(17) 0.75413(18) 0.0390 Uani
C3I C 1.1569(2) 1.0299(2) 0.5252(2) 0.0527 Uani
C3F C 0.9701(2) 1.0252(2) 0.3431(2) 0.0527 Uani
C3O C 0.9069(2) 0.7248(2) 0.7201(2) 0.0527 Uani
C3W C 0.7201(2) 0.9069(2) 0.7248(2) 0.0527 Uani
C3S C 0.7248(2) 0.7201(2) 0.9069(2) 0.0527 Uani
C3Y C 1.0252(2) 0.6569(2) 0.5299(2) 0.0527 Uani
C3HA C 0.8431(2) 0.4701(2) 0.5252(2) 0.0527 Uani
C3BA C 1.0299(2) 0.4748(2) 0.3431(2) 0.0527 Uani
C3LA C 1.0931(2) 0.7752(2) 0.7201(2) 0.0527 Uani
C3RA C 1.2799(2) 0.5931(2) 0.7248(2) 0.0527 Uani
C3OA C 1.2752(2) 0.7799(2) 0.9069(2) 0.0527 Uani
loop_
_atom_site_aniso_label
_atom_site_aniso_U_11
_atom_site_aniso_U_22
_atom_site_aniso_U_33
_atom_site_aniso_U_23
_atom_site_aniso_U_13
_atom_site_aniso_U_12
Be1 0.029(2) 0.029(2) 0.031(4) 0.000 0.000 0.000
O1 0.0469(14) 0.0458(15) 0.0431(13) 0.0138(12) -0.0070(11) -0.0066(12)
O2 0.065(4) 0.097(6) 0.136(6) 0.094(6) -0.069(4) -0.056(4)
C1 0.0338(16) 0.0392(18) 0.0450(19) 0.0062(16) -0.0052(16) -0.0035(15)
C2 0.0395(18) 0.0404(18) 0.0372(17) 0.0083(16) -0.0005(16) -0.0043(15)
C3 0.045(2) 0.058(2) 0.055(2) 0.022(2) -0.0130(19) -0.022(2)
Be1I 0.029 0.031 0.029 0 0 0
Be1F 0.031 0.029 0.029 0 0 0
Be1D 0.031 0.029 0.029 0 0 0
Be1H 0.029 0.031 0.029 0 0 0
Be1K 0.029 0.031 0.029 0 0 0
Be1E 0.031 0.029 0.029 0 0 0
Be1G 0.031 0.029 0.029 0 0 0
Be1J 0.029 0.031 0.029 0 0 0
O1I 0.0458 0.0431 0.0469 0.007 -0.0066 -0.0138
O1F 0.0431 0.0469 0.0458 0.0066 -0.0138 -0.007
O1O 0.0458 0.0469 0.0431 0.007 0.0138 0.0066
O1W 0.0431 0.0458 0.0469 0.0066 0.007 0.0138
O1S 0.0469 0.0431 0.0458 0.0138 0.0066 0.007
O1Y 0.0469 0.0458 0.0431 -0.0138 0.007 -0.0066
O1HA 0.0458 0.0431 0.0469 -0.007 0.0066 -0.0138
O1BA 0.0431 0.0469 0.0458 -0.0066 0.0138 -0.007
O1LA 0.0458 0.0469 0.0431 -0.007 -0.0138 0.0066
O1RA 0.0431 0.0458 0.0469 -0.0066 -0.007 0.0138
O1OA 0.0469 0.0431 0.0458 -0.0138 -0.0066 0.007
O1R 0.0469 0.0431 0.0458 -0.0138 0.0066 -0.007
O1FA 0.0458 0.0431 0.0469 -0.007 -0.0066 0.0138
O1QA 0.0469 0.0431 0.0458 0.0138 0.0066 0.007
O1T 0.0431 0.0458 0.0469 -0.0066 -0.007 0.0138
O1EA 0.0431 0.0469 0.0458 0.0066 0.0138 0.007
O1SA 0.0431 0.0458 0.0469 -0.0066 0.007 -0.0138
O2I 0.097 0.136 0.065 0.069 -0.056 -0.094
O2F 0.136 0.065 0.097 0.056 -0.094 -0.069
O2O 0.097 0.065 0.136 0.069 0.094 0.056
O2W 0.136 0.097 0.065 0.056 0.069 0.094
O2S 0.065 0.136 0.097 0.094 0.056 0.069
O2Y 0.065 0.097 0.136 -0.094 0.069 -0.056
O2HA 0.097 0.136 0.065 -0.069 0.056 -0.094
O2BA 0.136 0.065 0.097 -0.056 0.094 -0.069
O2LA 0.097 0.065 0.136 -0.069 -0.094 0.056
O2RA 0.136 0.097 0.065 -0.056 -0.069 0.094
O2OA 0.065 0.136 0.097 -0.094 -0.056 0.069
C1F 0.045 0.0338 0.0392 0.0035 -0.0062 -0.0052
C1I 0.0392 0.045 0.0338 0.0052 -0.0035 -0.0062
C1O 0.0392 0.0338 0.045 0.0052 0.0062 0.0035
C1S 0.0338 0.045 0.0392 0.0062 0.0035 0.0052
C1W 0.045 0.0392 0.0338 0.0035 0.0052 0.0062
C1Y 0.0338 0.0392 0.045 -0.0062 0.0052 -0.0035
C1BA 0.045 0.0338 0.0392 -0.0035 0.0062 -0.0052
C1HA 0.0392 0.045 0.0338 -0.0052 0.0035 -0.0062
C1LA 0.0392 0.0338 0.045 -0.0052 -0.0062 0.0035
C1OA 0.0338 0.045 0.0392 -0.0062 -0.0035 0.0052
C1RA 0.045 0.0392 0.0338 -0.0035 -0.0052 0.0062
C2F 0.0372 0.0395 0.0404 0.0043 -0.0083 -0.0005
C2I 0.0404 0.0372 0.0395 0.0005 -0.0043 -0.0083
C2O 0.0404 0.0395 0.0372 0.0005 0.0083 0.0043
C2S 0.0395 0.0372 0.0404 0.0083 0.0043 0.0005
C2W 0.0372 0.0404 0.0395 0.0043 0.0005 0.0083
C2Y 0.0395 0.0404 0.0372 -0.0083 0.0005 -0.0043
C2BA 0.0372 0.0395 0.0404 -0.0043 0.0083 -0.0005
C2HA 0.0404 0.0372 0.0395 -0.0005 0.0043 -0.0083
C2LA 0.0404 0.0395 0.0372 -0.0005 -0.0083 0.0043
C2OA 0.0395 0.0372 0.0404 -0.0083 -0.0043 0.0005
C2RA 0.0372 0.0404 0.0395 -0.0043 -0.0005 0.0083
C3I 0.058 0.055 0.045 0.013 -0.022 -0.022
C3F 0.055 0.045 0.058 0.022 -0.022 -0.013
C3O 0.058 0.045 0.055 0.013 0.022 0.022
C3W 0.055 0.058 0.045 0.022 0.013 0.022
C3S 0.045 0.055 0.058 0.022 0.022 0.013
C3Y 0.045 0.058 0.055 -0.022 0.013 -0.022
C3HA 0.058 0.055 0.045 -0.013 0.022 -0.022
C3BA 0.055 0.045 0.058 -0.022 0.022 -0.013
C3LA 0.058 0.045 0.055 -0.013 -0.022 0.022
C3RA 0.055 0.058 0.045 -0.022 -0.013 0.022
C3OA 0.045 0.055 0.058 -0.022 -0.022 0.013
loop_
_geom_bond_atom_site_label_1
_geom_bond_atom_site_label_2
_geom_bond_site_symmetry_1
_geom_bond_site_symmetry_2
Be1 O1 1_555 1_555
O1 C3 1_555 1_555
O2 C3 1_555 1_555
C1 H1 1_555 1_555
C2 C1 1_555 1_555
C3 C2 1_555 1_555
Be1I O1I 1_555 1_555
Be1F O1F 1_555 1_555
Be1D O1W 1_555 1_555
Be1H O1S 1_555 1_555
Be1K O1HA 1_555 1_555
Be1E O1BA 1_555 1_555
Be1G O1RA 1_555 1_555
Be1J O1OA 1_555 1_555
O1I C3I 1_555 1_555
O1F C3F 1_555 1_555
O1O Be1 1_555 1_555
O1W C3W 1_555 1_555
O1S C3S 1_555 1_555
O1Y Be1 1_555 1_555
O1HA C3HA 1_555 1_555
O1BA C3BA 1_555 1_555
O1LA Be1 1_555 1_555
O1RA C3RA 1_555 1_555
O1OA C3OA 1_555 1_555
O1R Be1I 1_555 1_555
O1FA Be1I 1_555 1_555
O1QA Be1I 1_555 1_555
O1T Be1F 1_555 1_555
O1EA Be1F 1_555 1_555
O1SA Be1F 1_555 1_555
O2I C3I 1_555 1_555
O2F C3F 1_555 1_555
O2O C3O 1_555 1_555
O2W C3W 1_555 1_555
O2S C3S 1_555 1_555
O2Y C3Y 1_555 1_555
O2HA C3HA 1_555 1_555
O2BA C3BA 1_555 1_555
O2LA C3LA 1_555 1_555
O2RA C3RA 1_555 1_555
O2OA C3OA 1_555 1_555
C1F H1F 1_555 1_555
C1I C2 1_555 1_555
C1O H1O 1_555 1_555
C1S H1S 1_555 1_555
C1W H1W 1_555 1_555
C1Y H1Y 1_555 1_555
C1BA H1BA 1_555 1_555
C1HA H1HA 1_555 1_555
C1LA H1LA 1_555 1_555
C1OA H1OA 1_555 1_555
C1RA H1RA 1_555 1_555
H1I C1I 1_555 1_555
C2F C1 1_555 1_555
C2I C1F 1_555 1_555
C2O C1O 1_555 1_555
C2S C1O 1_555 1_555
C2W C1S 1_555 1_555
C2Y C1Y 1_555 1_555
C2BA C1Y 1_555 1_555
C2HA C1BA 1_555 1_555
C2LA C1LA 1_555 1_555
C2OA C1LA 1_555 1_555
C2RA C1OA 1_555 1_555
C3I C2I 1_555 1_555
C3F C2F 1_555 1_555
C3O O1O 1_555 1_555
C3W C2W 1_555 1_555
C3S C2S 1_555 1_555
C3Y O1Y 1_555 1_555
C3HA C2HA 1_555 1_555
C3BA C2BA 1_555 1_555
C3LA O1LA 1_555 1_555
C3RA C2RA 1_555 1_555
C3OA C2OA 1_555 1_555
C1F C2F 1_555 1_555
C1I C2I 1_555 1_555
C1S C2S 1_555 1_555
C1W C2O 1_555 1_555
C1W C2W 1_555 1_555
C1BA C2BA 1_555 1_555
C1HA C2Y 1_555 1_555
C1HA C2HA 1_555 1_555
C1OA C2OA 1_555 1_555
C1RA C2LA 1_555 1_555
C1RA C2RA 1_555 1_555
C2O C3O 1_555 1_555
C2Y C3Y 1_555 1_555
C2LA C3LA 1_555 1_555

#END
