
#######################################################################
#
#                 Cambridge Crystallographic Data Centre
#                                CCDC 
#
#######################################################################
#
# If this CIF has been generated from an entry in the Cambridge 
# Structural Database, then it will include bibliographic, chemical, 
# crystal, experimental, refinement or atomic coordinate data resulting 
# from the CCDC's data processing and validation procedures.
#
#######################################################################

data_OYOVOP
_chemical_formula_moiety         '(C55 H54 N2 O13 Zn2)n'
_symmetry_cell_setting           orthorhombic
_symmetry_space_group_name_H-M   'P b c a'
_symmetry_Int_Tables_number      61
_space_group_name_Hall           '-P 2ac 2ab'
loop_
_symmetry_equiv_pos_site_id
_symmetry_equiv_pos_as_xyz
1 x,y,z
2 1/2-x,-y,1/2+z
3 -x,1/2+y,1/2-z
4 1/2+x,1/2-y,-z
5 -x,-y,-z
6 1/2+x,y,1/2-z
7 x,1/2-y,1/2+z
8 1/2-x,1/2+y,z
_cell_length_a                   31.654(2)
_cell_length_b                   9.7728(7)
_cell_length_c                   37.310(2)
_cell_angle_alpha                90
_cell_angle_beta                 90
_cell_angle_gamma                90
_cell_volume                     11541.8
loop_
_atom_site_label
_atom_site_type_symbol
_atom_site_fract_x
_atom_site_fract_y
_atom_site_fract_z
_atom_site_U_iso_or_equiv
_atom_site_thermal_displace_type
C1 C 0.7007(6) 0.1318(18) 0.5662(4) 0.0790 Uani
H1 H 0.7171 0.0493 0.5728 0.0950 Uiso
H2 H 0.6742 0.1002 0.5547 0.0950 Uiso
Zn1 Zn 0.93133(8) 0.8533(3) 0.82180(6) 0.0896 Uani
O1 O 0.7021(4) 0.4607(13) 0.4659(3) 0.0943 Uani
C2 C 0.7980(6) 0.1286(19) 0.5613(4) 0.0843 Uani
H3 H 0.7820 0.0479 0.5699 0.1010 Uiso
H4 H 0.8228 0.0948 0.5477 0.1010 Uiso
Zn2 Zn 0.89185(9) 0.5556(3) 0.85674(7) 0.1100 Uani
O2 O 0.8607(5) 0.7834(15) 0.3741(4) 0.1140 Uani
C3 C 0.7540(5) 0.1179(19) 0.6347(5) 0.0837 Uani
H5 H 0.7559 0.0772 0.6589 0.1000 Uiso
H6 H 0.7524 0.0415 0.6173 0.1000 Uiso
O3 O 0.8913(5) 0.5874(15) 0.3591(4) 0.1143 Uani
O4 O 0.9017(4) 0.4417(15) 0.6154(3) 0.0980 Uani
O5 O 0.9092(5) 0.7564(17) 0.7796(4) 0.1103 Uani
O6 O 0.9124(6) 0.5574(16) 0.8072(4) 0.1247 Uani
O7 O 0.6522(5) 0.4261(14) 0.6922(4) 0.1017 Uani
O8 O 0.4807(5) 0.7613(16) 0.6578(4) 0.1060 Uani
O9 O 0.4477(5) 0.6064(19) 0.6237(4) 0.1300 Uani
C4 C 0.7256(6) 0.2109(18) 0.5389(4) 0.0780 Uani
C5 C 0.7702(5) 0.2093(17) 0.5362(4) 0.0710 Uani
C6 C 0.7888(6) 0.2880(18) 0.5102(5) 0.0793 Uani
H7 H 0.8188 0.2854 0.5088 0.0950 Uiso
O10 O 0.8829(10) 0.415(3) 0.8949(8) 0.2000 Uiso
C7 C 0.7681(6) 0.3706(19) 0.4859(5) 0.0810 Uani
O11 O 0.9226(10) 0.329(3) 0.8592(8) 0.2000 Uiso
C8 C 0.7241(6) 0.3789(19) 0.4898(5) 0.0803 Uani
C9 C 0.7045(6) 0.3028(17) 0.5165(4) 0.0750 Uani
H8 H 0.6749 0.3139 0.5197 0.0900 Uiso
C10 C 0.6561(6) 0.464(2) 0.4668(6) 0.0957 Uani
H9 H 0.6457 0.5265 0.4483 0.1430 Uiso
H10 H 0.6451 0.3718 0.4623 0.1430 Uiso
H11 H 0.6466 0.4956 0.4904 0.1430 Uiso
C11 C 0.7905(6) 0.445(2) 0.4559(5) 0.0810 Uani
C12 C 0.8232(7) 0.380(2) 0.4373(6) 0.0997 Uani
H12 H 0.8302 0.2881 0.4427 0.1200 Uiso
C13 C 0.8457(7) 0.449(2) 0.4108(6) 0.1010 Uani
H13 H 0.8662 0.4011 0.3972 0.1210 Uiso
C14 C 0.8388(7) 0.584(2) 0.4042(5) 0.0947 Uani
C15 C 0.8078(7) 0.652(2) 0.4229(6) 0.0943 Uani
H14 H 0.8034 0.7467 0.4190 0.1130 Uiso
C16 C 0.7821(6) 0.581(2) 0.4483(5) 0.0820 Uani
H15 H 0.7595 0.6266 0.4599 0.0980 Uiso
C17 C 0.8662(7) 0.663(2) 0.3785(6) 0.0900 Uani
C18 C 0.8133(6) 0.2084(18) 0.5933(4) 0.0773 Uani
C19 C 0.7941(5) 0.1967(17) 0.6276(4) 0.0733 Uani
C20 C 0.8106(6) 0.2783(18) 0.6558(5) 0.0787 Uani
H16 H 0.7956 0.2806 0.6778 0.0940 Uiso
C21 C 0.8461(6) 0.3527(19) 0.6530(4) 0.0770 Uani
C22 C 0.8646(6) 0.3669(19) 0.6173(5) 0.0760 Uani
C23 C 0.8490(6) 0.2904(19) 0.5893(5) 0.0807 Uani
H17 H 0.8629 0.2936 0.5668 0.0970 Uiso
C24 C 0.9250(7) 0.437(3) 0.5812(6) 0.1273 Uani
H18 H 0.9505 0.4929 0.5830 0.1910 Uiso
H19 H 0.9330 0.3418 0.5759 0.1910 Uiso
H20 H 0.9070 0.4717 0.5619 0.1910 Uiso
C25 C 0.8642(6) 0.429(2) 0.6842(5) 0.0813 Uani
C26 C 0.8658(7) 0.360(2) 0.7155(5) 0.1017 Uani
H21 H 0.8565 0.2674 0.7170 0.1230 Uiso
C27 C 0.8821(7) 0.430(3) 0.7465(6) 0.1113 Uani
H22 H 0.8846 0.3800 0.7682 0.1330 Uiso
C28 C 0.8939(7) 0.561(2) 0.7470(5) 0.0963 Uani
C29 C 0.8921(6) 0.628(2) 0.7139(6) 0.0950 Uani
H23 H 0.9005 0.7212 0.7127 0.1140 Uiso
C30 C 0.8789(7) 0.566(2) 0.6836(6) 0.0977 Uani
H24 H 0.8795 0.6144 0.6616 0.1170 Uiso
C31 C 0.9059(7) 0.636(3) 0.7808(6) 0.1007 Uani
C32 C 0.7134(5) 0.1986(17) 0.6324(4) 0.0760 Uani
C33 C 0.6890(6) 0.2072(18) 0.6006(4) 0.0780 Uani
C34 C 0.6529(6) 0.289(2) 0.6029(5) 0.0843 Uani
H25 H 0.6356 0.2935 0.5822 0.1010 Uiso
C35 C 0.6406(6) 0.361(2) 0.6307(5) 0.0853 Uani
C36 C 0.6662(7) 0.353(2) 0.6625(5) 0.0843 Uani
C37 C 0.7012(6) 0.2805(18) 0.6633(4) 0.0797 Uani
H26 H 0.7185 0.2814 0.6841 0.0960 Uiso
C38 C 0.6788(8) 0.406(3) 0.7223(5) 0.1333 Uani
H27 H 0.6679 0.4592 0.7426 0.1990 Uiso
H28 H 0.6794 0.3090 0.7285 0.1990 Uiso
H29 H 0.7074 0.4373 0.7165 0.1990 Uiso
C39 C 0.6001(6) 0.442(2) 0.6307(5) 0.0837 Uani
C40 C 0.5640(7) 0.393(2) 0.6141(5) 0.0927 Uani
H30 H 0.5652 0.3075 0.6018 0.1110 Uiso
C41 C 0.5264(7) 0.464(2) 0.6148(5) 0.0983 Uani
H31 H 0.5027 0.4291 0.6021 0.1180 Uiso
C42 C 0.5223(6) 0.591(2) 0.6347(5) 0.0870 Uani
C43 C 0.5577(6) 0.637(2) 0.6494(5) 0.0847 Uani
H32 H 0.5569 0.7231 0.6612 0.1020 Uiso
C44 C 0.5958(6) 0.568(2) 0.6488(5) 0.0867 Uani
H33 H 0.6195 0.6054 0.6608 0.1040 Uiso
C45 C 0.4790(7) 0.653(3) 0.6368(6) 0.0977 Uani
C46 C 0.9133(12) 0.339(4) 0.8917(11) 0.2000 Uiso
O12 O 0.9559(5) 1.0131(14) 0.7966(4) 0.1100 Uani
C47 C 0.9779(5) 1.1113(15) 0.8057(4) 0.1210 Uani
C48 C 0.9946(8) 1.111(3) 0.8434(4) 0.1420 Uani
H34 H 1.0115 1.1935 0.8475 0.2160 Uiso
H35 H 0.9710 1.1092 0.8604 0.2160 Uiso
H36 H 1.0123 1.0297 0.8471 0.2160 Uiso
N1 N 0.9852(5) 1.2110(15) 0.7831(3) 0.0997 Uani
C49 C 0.9698(7) 1.202(2) 0.7461(4) 0.1253 Uani
H37 H 0.9780 1.2843 0.7330 0.1880 Uiso
H38 H 0.9822 1.1212 0.7345 0.1880 Uiso
H39 H 0.9390 1.1933 0.7462 0.1880 Uiso
C50 C 1.0088(8) 1.3337(19) 0.7929(6) 0.1247 Uani
H40 H 1.0106 1.3948 0.7721 0.1890 Uiso
H41 H 0.9942 1.3807 0.8126 0.1890 Uiso
H42 H 1.0373 1.3079 0.8006 0.1890 Uiso
O13 O 0.8378(10) 0.485(3) 0.8311(9) 0.2660 Uiso
C51 C 0.7992(10) 0.477(3) 0.8342(12) 0.2840 Uiso
C52 C 0.785(2) 0.447(8) 0.8719(13) 0.2840 Uiso
H43 H 0.7544 0.4416 0.8727 0.4270 Uiso
H44 H 0.7974 0.3598 0.8797 0.4270 Uiso
H45 H 0.7950 0.5204 0.8878 0.4270 Uiso
N2 N 0.7709(11) 0.491(6) 0.8091(13) 0.2840 Uiso
C53 C 0.784(2) 0.516(8) 0.7719(13) 0.2840 Uiso
H46 H 0.7582 0.5237 0.7569 0.4270 Uiso
H47 H 0.7996 0.6016 0.7706 0.4270 Uiso
H48 H 0.8010 0.4402 0.7634 0.4270 Uiso
C54 C 0.7256(12) 0.476(8) 0.8158(18) 0.2840 Uiso
H49 H 0.7100 0.4902 0.7934 0.4270 Uiso
H50 H 0.7198 0.3838 0.8249 0.4270 Uiso
H51 H 0.7165 0.5438 0.8336 0.4270 Uiso
C55 C 0.9363(15) 0.268(5) 0.9234(13) 0.2000 Uiso
H52 H 0.9597 0.2129 0.9141 0.3000 Uiso
H53 H 0.9473 0.3375 0.9399 0.3000 Uiso
H54 H 0.9164 0.2088 0.9361 0.3000 Uiso
Zn1E Zn 0.43133(8) 0.8533(3) 0.67820(6) 0.0896 Uani
Zn1F Zn 0.93133(8) 0.6467(3) 0.32180(6) 0.0896 Uani
Zn2E Zn 0.39185(9) 0.5556(3) 0.64326(7) 0.1100 Uani
Zn2F Zn 0.89185(9) 0.9444(3) 0.35674(7) 0.1100 Uani
O2F O 0.8607(5) 0.7166(15) 0.8741(4) 0.1140 Uani
O3F O 0.8913(5) 0.9126(15) 0.8591(4) 0.1143 Uani
O8E O 0.9807(5) 0.7613(16) 0.8422(4) 0.1060 Uani
O9E O 0.9477(5) 0.6064(19) 0.8763(4) 0.1300 Uani
loop_
_atom_site_aniso_label
_atom_site_aniso_U_11
_atom_site_aniso_U_22
_atom_site_aniso_U_33
_atom_site_aniso_U_23
_atom_site_aniso_U_13
_atom_site_aniso_U_12
C1 0.087(11) 0.078(11) 0.072(9) 0.000(7) -0.003(7) -0.003(9)
Zn1 0.1038(18) 0.0999(19) 0.0651(14) -0.0052(13) 0.0024(13) 0.0017(15)
O1 0.109(9) 0.088(9) 0.086(8) 0.000(7) -0.005(7) -0.001(8)
C2 0.090(11) 0.088(11) 0.075(9) -0.001(8) 0.008(8) 0.004(9)
Zn2 0.124(2) 0.107(2) 0.099(2) 0.0038(16) 0.0114(16) -0.0022(18)
O2 0.130(12) 0.081(9) 0.131(12) 0.018(8) 0.007(9) 0.009(8)
C3 0.094(9) 0.087(11) 0.070(10) 0.010(9) -0.004(8) -0.005(7)
O3 0.130(11) 0.111(11) 0.102(10) 0.019(8) 0.031(8) 0.006(9)
O4 0.095(9) 0.112(10) 0.087(8) 0.009(7) -0.004(6) -0.006(7)
O5 0.136(11) 0.104(9) 0.091(9) -0.024(7) -0.016(8) 0.012(9)
O6 0.201(15) 0.113(10) 0.060(7) -0.017(7) -0.016(8) 0.019(10)
O7 0.123(10) 0.099(10) 0.083(8) -0.010(7) 0.002(7) 0.007(8)
O8 0.128(11) 0.115(11) 0.075(9) 0.022(7) -0.003(8) 0.001(8)
O9 0.102(10) 0.182(15) 0.106(11) -0.030(10) -0.024(8) 0.012(9)
C4 0.094(9) 0.067(11) 0.073(9) -0.012(7) 0.008(7) 0.003(8)
C5 0.089(9) 0.058(10) 0.066(9) -0.017(7) 0.007(7) 0.006(8)
C6 0.097(11) 0.072(11) 0.069(10) -0.011(8) 0.006(8) -0.001(8)
C7 0.099(9) 0.074(11) 0.070(9) -0.012(7) 0.005(7) 0.000(8)
C8 0.102(9) 0.078(11) 0.061(9) -0.013(8) 0.001(7) -0.004(8)
C9 0.096(11) 0.066(10) 0.063(9) -0.012(7) 0.009(8) 0.004(8)
C10 0.108(11) 0.078(14) 0.101(15) 0.002(12) -0.001(10) -0.008(11)
C11 0.094(11) 0.077(10) 0.072(10) -0.006(8) 0.003(8) -0.004(8)
C12 0.118(13) 0.086(12) 0.095(13) 0.006(9) 0.023(10) 0.009(10)
C13 0.114(14) 0.085(11) 0.104(13) 0.005(9) 0.033(11) 0.004(10)
C14 0.113(12) 0.089(11) 0.082(11) -0.004(9) 0.007(9) 0.001(9)
C15 0.107(13) 0.078(11) 0.098(12) -0.001(9) 0.016(10) -0.003(9)
C16 0.094(12) 0.082(10) 0.070(11) -0.010(8) -0.002(8) -0.002(9)
C17 0.106(12) 0.077(11) 0.087(12) 0.005(9) 0.002(9) 0.002(9)
C18 0.090(10) 0.065(11) 0.077(8) 0.002(7) 0.002(7) 0.012(8)
C19 0.085(9) 0.064(10) 0.071(8) 0.002(7) -0.003(7) 0.011(7)
C20 0.079(10) 0.081(11) 0.076(10) -0.003(8) 0.002(8) 0.008(8)
C21 0.086(10) 0.084(11) 0.061(8) 0.005(7) -0.005(7) 0.008(8)
C22 0.092(10) 0.070(11) 0.066(8) 0.011(7) -0.001(7) 0.007(8)
C23 0.088(11) 0.091(12) 0.063(9) 0.004(8) 0.005(8) 0.007(9)
C24 0.124(16) 0.16(2) 0.098(13) -0.014(14) 0.020(12) -0.041(16)
C25 0.077(11) 0.102(11) 0.065(8) -0.005(7) 0.002(8) 0.018(9)
C26 0.133(16) 0.106(12) 0.066(9) -0.002(8) -0.014(9) -0.003(11)
C27 0.150(18) 0.116(12) 0.068(10) -0.010(9) -0.019(10) 0.005(11)
C28 0.107(14) 0.106(11) 0.076(9) -0.019(8) -0.009(9) 0.013(10)
C29 0.088(13) 0.108(12) 0.089(10) -0.010(9) -0.002(9) 0.019(10)
C30 0.109(14) 0.106(11) 0.078(10) -0.002(9) 0.000(9) 0.005(10)
C31 0.117(15) 0.105(11) 0.080(9) -0.013(8) -0.012(9) 0.014(10)
C32 0.085(9) 0.078(11) 0.065(8) 0.006(7) 0.003(7) -0.010(8)
C33 0.086(10) 0.078(11) 0.070(8) 0.005(7) 0.003(7) -0.009(8)
C34 0.084(10) 0.101(13) 0.068(9) -0.005(9) 0.004(8) 0.001(9)
C35 0.086(9) 0.092(11) 0.078(9) -0.001(8) 0.010(7) -0.005(8)
C36 0.093(10) 0.083(12) 0.077(9) 0.000(8) 0.010(7) -0.010(9)
C37 0.092(11) 0.083(12) 0.064(9) 0.000(8) 0.001(8) -0.009(9)
C38 0.16(2) 0.15(2) 0.090(13) -0.016(13) -0.008(12) 0.017(16)
C39 0.083(9) 0.093(11) 0.075(11) 0.011(9) 0.013(8) -0.004(8)
C40 0.089(10) 0.106(13) 0.083(12) 0.007(10) 0.002(9) -0.007(9)
C41 0.090(11) 0.124(13) 0.081(12) 0.008(10) -0.005(9) -0.002(9)
C42 0.087(9) 0.106(12) 0.068(11) 0.024(8) 0.008(8) -0.009(8)
C43 0.086(10) 0.095(12) 0.073(11) 0.018(9) 0.017(8) -0.001(9)
C44 0.080(10) 0.095(11) 0.085(12) 0.004(9) 0.010(9) -0.009(8)
C45 0.097(10) 0.132(14) 0.064(12) 0.017(9) 0.008(8) 0.001(10)
O12 0.156(12) 0.097(9) 0.077(9) -0.003(7) 0.002(8) -0.014(8)
C47 0.171(18) 0.116(13) 0.076(10) 0.000(9) 0.004(11) -0.030(12)
C48 0.20(2) 0.15(2) 0.076(11) -0.011(12) -0.004(13) -0.027(18)
N1 0.136(13) 0.095(11) 0.068(9) 0.001(8) 0.019(9) -0.001(9)
C49 0.149(19) 0.137(19) 0.090(11) -0.002(11) 0.015(11) 0.008(14)
C50 0.16(2) 0.117(14) 0.097(15) 0.008(11) 0.016(13) -0.012(13)
Zn1E 0.1038 0.0999 0.0651 0.0052 -0.0024 0.0017
Zn1F 0.1038 0.0999 0.0651 0.0052 0.0024 -0.0017
Zn2E 0.124 0.107 0.099 -0.0038 -0.0114 -0.0022
Zn2F 0.124 0.107 0.099 -0.0038 0.0114 0.0022
O2F 0.13 0.081 0.131 -0.018 0.007 -0.009
O3F 0.13 0.111 0.102 -0.019 0.031 -0.006
O8E 0.128 0.115 0.075 -0.022 0.003 0.001
O9E 0.102 0.182 0.106 0.03 0.024 0.012
loop_
_geom_bond_atom_site_label_1
_geom_bond_atom_site_label_2
_geom_bond_site_symmetry_1
_geom_bond_site_symmetry_2
C1 H1 1_555 1_555
H2 C1 1_555 1_555
Zn1 O5 1_555 1_555
O1 C8 1_555 1_555
C2 H3 1_555 1_555
H4 C2 1_555 1_555
Zn2 O6 1_555 1_555
O2 C17 1_555 1_555
C3 H5 1_555 1_555
H6 C3 1_555 1_555
O3 C17 1_555 1_555
O4 C22 1_555 1_555
O5 C31 1_555 1_555
O6 C31 1_555 1_555
O7 C36 1_555 1_555
O8 C45 1_555 1_555
O9 C45 1_555 1_555
C4 C1 1_555 1_555
C5 C2 1_555 1_555
C6 C5 1_555 1_555
H7 C6 1_555 1_555
O10 Zn2 1_555 1_555
C7 C6 1_555 1_555
O11 Zn2 1_555 1_555
C8 C7 1_555 1_555
C9 C4 1_555 1_555
H8 C9 1_555 1_555
C10 O1 1_555 1_555
H9 C10 1_555 1_555
H10 C10 1_555 1_555
H11 C10 1_555 1_555
C11 C7 1_555 1_555
C12 C11 1_555 1_555
H12 C12 1_555 1_555
C13 C12 1_555 1_555
H13 C13 1_555 1_555
C14 C13 1_555 1_555
C15 C14 1_555 1_555
H14 C15 1_555 1_555
C16 C11 1_555 1_555
H15 C16 1_555 1_555
C17 C14 1_555 1_555
C18 C2 1_555 1_555
C19 C3 1_555 1_555
C20 C19 1_555 1_555
H16 C20 1_555 1_555
C21 C20 1_555 1_555
C22 C21 1_555 1_555
C23 C18 1_555 1_555
H17 C23 1_555 1_555
C24 O4 1_555 1_555
H18 C24 1_555 1_555
H19 C24 1_555 1_555
H20 C24 1_555 1_555
C25 C21 1_555 1_555
C26 C25 1_555 1_555
H21 C26 1_555 1_555
C27 C26 1_555 1_555
H22 C27 1_555 1_555
C28 C27 1_555 1_555
C29 C28 1_555 1_555
H23 C29 1_555 1_555
C30 C25 1_555 1_555
H24 C30 1_555 1_555
C31 C28 1_555 1_555
C32 C3 1_555 1_555
C33 C1 1_555 1_555
C34 C33 1_555 1_555
H25 C34 1_555 1_555
C35 C34 1_555 1_555
C36 C35 1_555 1_555
C37 C32 1_555 1_555
H26 C37 1_555 1_555
C38 O7 1_555 1_555
H27 C38 1_555 1_555
H28 C38 1_555 1_555
H29 C38 1_555 1_555
C39 C35 1_555 1_555
C40 C39 1_555 1_555
H30 C40 1_555 1_555
C41 C40 1_555 1_555
H31 C41 1_555 1_555
C42 C41 1_555 1_555
C43 C42 1_555 1_555
H32 C43 1_555 1_555
C44 C39 1_555 1_555
H33 C44 1_555 1_555
C45 C42 1_555 1_555
C46 O10 1_555 1_555
O12 Zn1 1_555 1_555
C47 O12 1_555 1_555
C48 C47 1_555 1_555
H34 C48 1_555 1_555
H35 C48 1_555 1_555
H36 C48 1_555 1_555
N1 C47 1_555 1_555
C49 N1 1_555 1_555
H37 C49 1_555 1_555
H38 C49 1_555 1_555
H39 C49 1_555 1_555
C50 N1 1_555 1_555
H40 C50 1_555 1_555
H41 C50 1_555 1_555
H42 C50 1_555 1_555
O13 Zn2 1_555 1_555
C51 O13 1_555 1_555
C52 C51 1_555 1_555
H43 C52 1_555 1_555
H44 C52 1_555 1_555
H45 C52 1_555 1_555
N2 C51 1_555 1_555
C53 N2 1_555 1_555
H46 C53 1_555 1_555
H47 C53 1_555 1_555
H48 C53 1_555 1_555
C54 N2 1_555 1_555
H49 C54 1_555 1_555
H50 C54 1_555 1_555
H51 C54 1_555 1_555
C55 C46 1_555 1_555
H52 C55 1_555 1_555
H53 C55 1_555 1_555
H54 C55 1_555 1_555
Zn1E O8 1_555 1_555
Zn1F O3 1_555 1_555
Zn2E O9 1_555 1_555
Zn2F O2 1_555 1_555
O2F Zn2 1_555 1_555
O3F Zn1 1_555 1_555
O8E Zn1 1_555 1_555
O9E Zn2 1_555 1_555
C4 C5 1_555 1_555
O11 C46 1_555 1_555
C8 C9 1_555 1_555
C15 C16 1_555 1_555
C18 C19 1_555 1_555
C22 C23 1_555 1_555
C29 C30 1_555 1_555
C32 C33 1_555 1_555
C36 C37 1_555 1_555
C43 C44 1_555 1_555

#END
