
#######################################################################
#
#                 Cambridge Crystallographic Data Centre
#                                CCDC 
#
#######################################################################
#
# If this CIF has been generated from an entry in the Cambridge 
# Structural Database, then it will include bibliographic, chemical, 
# crystal, experimental, refinement or atomic coordinate data resulting 
# from the CCDC's data processing and validation procedures.
#
#######################################################################

data_YOYZAP
_chemical_formula_moiety         '(C52 H70 B2 Co1 Cu4 N18 O16)n'
_symmetry_cell_setting           monoclinic
_symmetry_space_group_name_H-M   'C 2'
_symmetry_Int_Tables_number      5
_space_group_name_Hall           'C 2y'
loop_
_symmetry_equiv_pos_site_id
_symmetry_equiv_pos_as_xyz
1 x,y,z
2 -x,y,-z
3 1/2+x,1/2+y,z
4 1/2-x,1/2+y,-z
_cell_length_a                   26.676(5)
_cell_length_b                   18.145(4)
_cell_length_c                   18.954(4)
_cell_angle_alpha                90
_cell_angle_beta                 118.54(3)
_cell_angle_gamma                90
_cell_volume                     8059.58
loop_
_atom_site_label
_atom_site_type_symbol
_atom_site_fract_x
_atom_site_fract_y
_atom_site_fract_z
Co1 Co -0.00348(2) 1.12597(4) 0.77782(3)
B1 B -0.0395(3) 0.9949(4) 0.8566(4)
H1 H -0.0514 0.9542 0.8810
N1 N 0.0504(2) 1.0393(3) 0.8558(3)
N2 N 0.0243(2) 0.9890(3) 0.8833(3)
C1 C 0.1009(3) 1.0125(3) 0.8815(4)
H2 H 0.1292 1.0387 0.8750
C2 C 0.0637(3) 0.9361(4) 0.9211(3)
H3 H 0.0582 0.8950 0.9476
N3 N 0.1118(2) 0.9487(3) 0.9165(3)
N4 N -0.0632(2) 1.0411(3) 0.7187(3)
N5 N -0.0706(2) 0.9883(3) 0.7660(3)
C3 C -0.0947(3) 1.0150(4) 0.6446(4)
H4 H -0.1001 1.0413 0.5981
C4 C -0.1019(3) 0.9343(4) 0.7214(4)
H5 H -0.1124 0.8916 0.7403
N6 N -0.1178(2) 0.9497(3) 0.6406(3)
N7 N -0.03875(18) 1.1300(3) 0.8562(2)
N8 N -0.0518(2) 1.0686(3) 0.8817(3)
C5 C -0.0542(3) 1.1865(4) 0.8880(3)
H6 H -0.0499 1.2372 0.8796
C6 C -0.0742(3) 1.0870(4) 0.9299(4)
H7 H -0.0863 1.0529 0.9568
N9 N -0.0769(2) 1.1601(3) 0.9342(3)
B2 B 0.0278(3) 1.2552(5) 0.6887(4)
H8 H 0.0388 1.2941 0.6613
N10 N 0.03001(19) 1.1167(3) 0.6990(3)
N11 N 0.0409(2) 1.1772(4) 0.6680(3)
C7 C 0.0411(4) 1.0623(7) 0.6610(5)
H9 H 0.0350 1.0122 0.6690
C8 C 0.0577(4) 1.1536(7) 0.6131(4)
H10 H 0.0660 1.1854 0.5802
N12 N 0.0607(3) 1.0810(7) 0.6128(5)
N13 N -0.0589(2) 1.2129(3) 0.6975(3)
N14 N -0.0338(2) 1.2600(3) 0.6644(3)
C9 C -0.1090(4) 1.2323(4) 0.6624(4)
H11 H -0.1372 1.2051 0.6683
C10 C -0.0742(3) 1.3040(4) 0.6164(4)
H12 H -0.0687 1.3406 0.5850
N15 N -0.1236(3) 1.2931(4) 0.6150(4)
N16 N 0.0565(2) 1.2143(3) 0.8332(3)
N17 N 0.0627(2) 1.2636(3) 0.7821(3)
C11 C 0.0902(3) 1.2406(4) 0.9031(4)
H13 H 0.0966 1.2153 0.9505
C12 C 0.0983(3) 1.3160(4) 0.8263(4)
H14 H 0.1100 1.3560 0.8051
N18 N 0.1162(3) 1.3055(3) 0.9066(4)
Cu1 Cu 0.19407(3) 0.89142(3) 0.96621(4)
Cu2 Cu 0.30311(3) 0.85671(3) 1.02480(4)
O1 O 0.2104(2) 0.9427(2) 0.8887(2)
O2 O 0.3031(2) 0.9084(3) 0.9346(2)
C13 C 0.2560(3) 0.9406(3) 0.8844(3)
C14 C 0.2586(4) 0.9795(3) 0.8142(3)
O3 O 0.1792(2) 0.8016(3) 0.9006(2)
O4 O 0.2687(2) 0.7707(2) 0.9543(3)
C15 C 0.2181(3) 0.7587(3) 0.9105(3)
C16 C 0.2026(4) 0.6876(3) 0.8619(3)
H15 H 0.1651 0.6942 0.8122
C17 C 0.2490(6) 0.6633(4) 0.8376(6)
H16 H 0.2371 0.6774 0.7814
H17 H 0.2861 0.6868 0.8732
C18 C 0.1982(4) 0.6223(4) 0.9107(4)
C19 C 0.2479(4) 0.6239(4) 0.9991(3)
H18 H 0.2519 0.6739 1.0208
H19 H 0.2836 0.6092 1.0001
H20 H 0.2393 0.5896 1.0319
C20 C 0.1389(6) 0.6227(7) 0.9067(9)
H21 H 0.1337 0.6692 0.9289
H22 H 0.1363 0.5814 0.9380
H23 H 0.1091 0.6180 0.8507
O5 O 0.1911(2) 0.8289(3) 1.0492(3)
O6 O 0.2836(2) 0.8146(2) 1.1068(2)
C21 C 0.2342(4) 0.8072(3) 1.1014(4)
C22 C 0.2360(4) 0.7650(4) 1.1716(4)
C23 C 0.2823(6) 0.7062(9) 1.2066(9)
C24 C 0.1721(6) 0.7380(9) 1.1545(9)
C25 C 0.2452(7) 0.8144(4) 1.2439(6)
C26 C 0.3196(5) 0.8350(7) 1.2962(7)
O7 O 0.2695(2) 0.4700(2) 0.9531(2)
O8 O 0.17756(19) 0.4491(2) 0.9139(2)
C27 C 0.2169(3) 0.4846(3) 0.9128(3)
C28 C 0.2004(4) 0.5541(3) 0.8619(3)
C29 C 0.1512(4) 0.5416(4) 0.7854(4)
H24 H 0.1620 0.5112 0.7520
H25 H 0.1363 0.5890 0.7587
H26 H 0.1218 0.5162 0.7931
C30 C 0.2533(4) 0.5814(4) 0.8470(5)
H27 H 0.2903 0.5675 0.8933
H28 H 0.2505 0.5581 0.7980
Cu3 Cu -0.19223(3) 0.88956(4) 0.54986(4)
Cu4 Cu -0.29786(3) 0.84408(4) 0.46088(4)
O9 O 0.1987(2) 0.9327(2) 0.5475(2)
O10 O 0.2906(2) 0.9058(3) 0.6199(2)
C31 C 0.2453(4) 0.9358(3) 0.6109(4)
C32 C 0.2479(4) 0.9785(4) 0.6820(4)
C33 C 0.3086(7) 1.0077(7) 0.7420(8)
C34 C 0.2052(6) 1.0376(9) 0.6567(10)
O11 O -0.2593(2) 0.4715(3) 0.4414(3)
O12 O -0.1716(2) 0.4307(3) 0.5115(3)
C35 C -0.2079(3) 0.4792(3) 0.4680(3)
C36 C -0.1851(4) 0.5482(4) 0.4500(5)
H29 H -0.1456 0.5372 0.4594
O13 O 0.1952(2) 0.8370(3) 1.3628(2)
O14 O 0.2848(2) 0.7957(2) 1.4368(2)
C37 C 0.2414(3) 0.8018(4) 1.3742(4)
C38 C 0.2352(4) 0.7634(3) 1.2990(4)
H30 H 0.2645 0.7236 1.3165
C39 C 0.1774(5) 0.7278(6) 1.2503(7)
H31 H 0.1468 0.7548 1.2549
H32 H 0.1773 0.6754 1.2648
O15 O -0.1676(2) 0.7950(3) 0.5248(3)
O16 O -0.2593(2) 0.7656(2) 0.4396(2)
C40 C -0.2041(4) 0.7522(4) 0.4745(4)
C41 C -0.1854(4) 0.6804(4) 0.4491(5)
C42 C -0.2347(8) 0.6477(6) 0.3662(6)
H33 H -0.2724 0.6506 0.3643
H34 H -0.2365 0.6746 0.3196
C43 C -0.2183(6) 0.5742(4) 0.3668(5)
H35 H -0.1951 0.5702 0.3390
H36 H -0.2527 0.5430 0.3378
C44 C -0.1384(7) 0.7004(7) 0.4364(12)
H37 H -0.1088 0.7246 0.4846
H38 H -0.1516 0.7343 0.3907
H39 H -0.1225 0.6560 0.4251
C45 C -0.1811(4) 0.6147(4) 0.5035(4)
C46 C -0.2300(6) 0.6139(5) 0.5232(7)
H40 H -0.2356 0.5636 0.5370
H41 H -0.2650 0.6308 0.4765
H42 H -0.2210 0.6466 0.5689
C47 C -0.1224(6) 0.6056(11) 0.5726(9)
H43 H -0.1224 0.6194 0.6226
H44 H -0.0957 0.6372 0.5647
H45 H -0.1105 0.5540 0.5759
C48 C 0.2306(4) 0.8853(6) 1.2332(6)
C49 C 0.2468(4) 0.8573(5) 0.7467(6)
C50 C 0.2316(4) 0.9322(6) 0.7360(7)
C51 C 0.3125(5) 1.0140(7) 0.8308(8)
C52 C 0.1665(5) 0.9177(7) 0.6975(8)
N15C N -0.3764(3) 0.7931(4) 0.3850(4)
N18C N 0.3838(3) 0.8055(3) 1.0934(4)
Cu1C Cu 0.30593(3) 0.39142(3) 1.03379(4)
Cu2C Cu 0.19689(3) 0.35671(3) 0.97520(4)
Cu2C_2 Cu 0.19689(3) 1.35671(3) 0.97520(4)
O7C O 0.2305(2) 0.9700(2) 1.0469(2)
O8C O 0.32244(19) 0.9491(2) 1.0861(2)
Cu3A Cu 0.19223(3) 0.88956(4) 0.45014(4)
Cu3A_2 Cu 0.19223(3) 0.88956(4) 1.45014(4)
Cu3C Cu -0.30777(3) 0.38956(4) 0.45014(4)
Cu4A Cu 0.29786(3) 0.84408(4) 0.53912(4)
Cu4A_2 Cu 0.29786(3) 0.84408(4) 1.53912(4)
Cu4C Cu -0.20214(3) 0.34408(4) 0.53912(4)
Cu4C_2 Cu -0.20214(3) 1.34408(4) 0.53912(4)
O9A O -0.1987(2) 0.9327(2) 0.4525(2)
O10A O -0.2906(2) 0.9058(3) 0.3801(2)
O11C O -0.2407(2) 0.9715(3) 0.5586(3)
O12C O -0.3284(2) 0.9307(3) 0.4885(3)
O13A O -0.1952(2) 0.8370(3) 0.6372(2)
O14A O -0.2848(2) 0.7957(2) 0.5632(2)
loop_
_geom_bond_atom_site_label_1
_geom_bond_atom_site_label_2
_geom_bond_site_symmetry_1
_geom_bond_site_symmetry_2
Co1 N1 1_555 1_555
B1 H1 1_555 1_555
N1 N2 1_555 1_555
N2 B1 1_555 1_555
C1 N1 1_555 1_555
H2 C1 1_555 1_555
C2 N2 1_555 1_555
H3 C2 1_555 1_555
N3 C1 1_555 1_555
N4 Co1 1_555 1_555
N5 B1 1_555 1_555
C3 N4 1_555 1_555
H4 C3 1_555 1_555
C4 N5 1_555 1_555
H5 C4 1_555 1_555
N6 C3 1_555 1_555
N7 Co1 1_555 1_555
N8 B1 1_555 1_555
C5 N7 1_555 1_555
H6 C5 1_555 1_555
C6 N8 1_555 1_555
H7 C6 1_555 1_555
N9 C5 1_555 1_555
B2 H8 1_555 1_555
N10 Co1 1_555 1_555
N11 B2 1_555 1_555
C7 N10 1_555 1_555
H9 C7 1_555 1_555
C8 N11 1_555 1_555
H10 C8 1_555 1_555
N12 C7 1_555 1_555
N13 Co1 1_555 1_555
N14 B2 1_555 1_555
C9 N13 1_555 1_555
H11 C9 1_555 1_555
C10 N14 1_555 1_555
H12 C10 1_555 1_555
N15 C9 1_555 1_555
N16 Co1 1_555 1_555
N17 B2 1_555 1_555
C11 N16 1_555 1_555
H13 C11 1_555 1_555
C12 N17 1_555 1_555
H14 C12 1_555 1_555
N18 C11 1_555 1_555
Cu1 N3 1_555 1_555
Cu2 Cu1 1_555 1_555
O1 Cu1 1_555 1_555
O2 Cu2 1_555 1_555
C13 O1 1_555 1_555
C14 C13 1_555 1_555
O3 Cu1 1_555 1_555
O4 Cu2 1_555 1_555
C15 O3 1_555 1_555
C16 C15 1_555 1_555
H15 C16 1_555 1_555
C17 C16 1_555 1_555
H16 C17 1_555 1_555
H17 C17 1_555 1_555
C18 C16 1_555 1_555
C19 C18 1_555 1_555
H18 C19 1_555 1_555
H19 C19 1_555 1_555
H20 C19 1_555 1_555
C20 C18 1_555 1_555
H21 C20 1_555 1_555
H22 C20 1_555 1_555
H23 C20 1_555 1_555
O5 Cu1 1_555 1_555
O6 Cu2 1_555 1_555
C21 O5 1_555 1_555
C22 C21 1_555 1_555
C23 C22 1_555 1_555
C24 C22 1_555 1_555
C25 C22 1_555 1_555
C26 C25 1_555 1_555
O7 C27 1_555 1_555
O8 C27 1_555 1_555
C27 C28 1_555 1_555
C28 C18 1_555 1_555
C29 C28 1_555 1_555
H24 C29 1_555 1_555
H25 C29 1_555 1_555
H26 C29 1_555 1_555
C30 C17 1_555 1_555
H27 C30 1_555 1_555
H28 C30 1_555 1_555
Cu3 N6 1_555 1_555
Cu4 Cu3 1_555 1_555
O9 C31 1_555 1_555
O10 C31 1_555 1_555
C31 C32 1_555 1_555
C32 C33 1_555 1_555
C33 C51 1_555 1_555
C34 C32 1_555 1_555
O11 C35 1_555 1_555
O12 C35 1_555 1_555
C35 C36 1_555 1_555
C36 H29 1_555 1_555
O13 C37 1_555 1_555
O14 C37 1_555 1_555
C37 C38 1_555 1_555
C38 C25 1_555 1_555
H30 C38 1_555 1_555
C39 C24 1_555 1_555
H31 C39 1_555 1_555
H32 C39 1_555 1_555
O15 Cu3 1_555 1_555
O16 Cu4 1_555 1_555
C40 O15 1_555 1_555
C41 C40 1_555 1_555
C42 C41 1_555 1_555
H33 C42 1_555 1_555
H34 C42 1_555 1_555
C43 C36 1_555 1_555
H35 C43 1_555 1_555
H36 C43 1_555 1_555
C44 C41 1_555 1_555
H37 C44 1_555 1_555
H38 C44 1_555 1_555
H39 C44 1_555 1_555
C45 C36 1_555 1_555
C46 C45 1_555 1_555
H40 C46 1_555 1_555
H41 C46 1_555 1_555
H42 C46 1_555 1_555
C47 C45 1_555 1_555
H43 C47 1_555 1_555
H44 C47 1_555 1_555
H45 C47 1_555 1_555
C48 C25 1_555 1_555
C49 C50 1_555 1_555
C50 C14 1_555 1_555
C51 C14 1_555 1_555
C52 C50 1_555 1_555
N15C Cu4 1_555 1_555
N18C Cu2 1_555 1_555
Cu1C O7 1_555 1_555
Cu2C O8 1_555 1_555
Cu2C_2 N18 1_555 1_555
O7C Cu1 1_555 1_555
O8C Cu2 1_555 1_555
Cu3A O9 1_555 1_555
Cu3A_2 O13 1_555 1_555
Cu3C O11 1_555 1_555
Cu4A O10 1_555 1_555
Cu4A_2 O14 1_555 1_555
Cu4C O12 1_555 1_555
Cu4C_2 N15 1_555 1_555
O9A Cu3 1_555 1_555
O10A Cu4 1_555 1_555
O11C Cu3 1_555 1_555
O12C Cu4 1_555 1_555
O13A Cu3 1_555 1_555
O14A Cu4 1_555 1_555
C2 N3 1_555 1_555
N4 N5 1_555 1_555
C4 N6 1_555 1_555
N7 N8 1_555 1_555
C6 N9 1_555 1_555
N10 N11 1_555 1_555
C8 N12 1_555 1_555
N13 N14 1_555 1_555
C10 N15 1_555 1_555
N16 N17 1_555 1_555
C12 N18 1_555 1_555
O2 C13 1_555 1_555
O4 C15 1_555 1_555
O6 C21 1_555 1_555
C28 C30 1_555 1_555
C32 C50 1_555 1_555
C38 C39 1_555 1_555
O16 C40 1_555 1_555
C41 C45 1_555 1_555
C42 C43 1_555 1_555
Cu1C Cu2C 1_555 1_555
Cu3A Cu4A 1_555 1_555
Cu3A_2 Cu4A_2 1_555 1_555
Cu3C Cu4C 1_555 1_555

#END
