
#######################################################################
#
#                 Cambridge Crystallographic Data Centre
#                                CCDC 
#
#######################################################################
#
# If this CIF has been generated from an entry in the Cambridge 
# Structural Database, then it will include bibliographic, chemical, 
# crystal, experimental, refinement or atomic coordinate data resulting 
# from the CCDC's data processing and validation procedures.
#
#######################################################################

data_MECWOH
_chemical_formula_moiety         '(C20 H30 N8 O1 Zn2)n'
_symmetry_cell_setting           cubic
_symmetry_space_group_name_H-M   'I m -3 m'
_symmetry_Int_Tables_number      229
_space_group_name_Hall           '-I 4 2 3'
loop_
_symmetry_equiv_pos_site_id
_symmetry_equiv_pos_as_xyz
1 x,y,z
2 z,x,y
3 y,z,x
4 y,x,-z
5 y,-x,z
6 -y,x,z
7 x,z,-y
8 -x,z,y
9 x,-z,y
10 z,y,-x
11 z,-y,x
12 -z,y,x
13 1/2+x,1/2+y,1/2+z
14 1/2+z,1/2+x,1/2+y
15 1/2+y,1/2+z,1/2+x
16 1/2+y,1/2+x,1/2-z
17 1/2+y,1/2-x,1/2+z
18 1/2-y,1/2+x,1/2+z
19 1/2+x,1/2+z,1/2-y
20 1/2-x,1/2+z,1/2+y
21 1/2+x,1/2-z,1/2+y
22 1/2+z,1/2+y,1/2-x
23 1/2+z,1/2-y,1/2+x
24 1/2-z,1/2+y,1/2+x
25 -x,-y,z
26 -x,y,-z
27 x,-y,-z
28 z,-x,-y
29 -z,-x,y
30 -z,x,-y
31 -y,z,-x
32 y,-z,-x
33 -y,-z,x
34 -y,-x,-z
35 -x,-z,-y
36 -z,-y,-x
37 1/2-x,1/2-y,1/2+z
38 1/2-x,1/2+y,1/2-z
39 1/2+x,1/2-y,1/2-z
40 1/2+z,1/2-x,1/2-y
41 1/2-z,1/2-x,1/2+y
42 1/2-z,1/2+x,1/2-y
43 1/2-y,1/2+z,1/2-x
44 1/2+y,1/2-z,1/2-x
45 1/2-y,1/2-z,1/2+x
46 1/2-y,1/2-x,1/2-z
47 1/2-x,1/2-z,1/2-y
48 1/2-z,1/2-y,1/2-x
49 -x,-y,-z
50 -z,-x,-y
51 -y,-z,-x
52 -y,-x,z
53 -y,x,-z
54 y,-x,-z
55 -x,-z,y
56 x,-z,-y
57 -x,z,-y
58 -z,-y,x
59 -z,y,-x
60 z,-y,-x
61 1/2-x,1/2-y,1/2-z
62 1/2-z,1/2-x,1/2-y
63 1/2-y,1/2-z,1/2-x
64 1/2-y,1/2-x,1/2+z
65 1/2-y,1/2+x,1/2-z
66 1/2+y,1/2-x,1/2-z
67 1/2-x,1/2-z,1/2+y
68 1/2+x,1/2-z,1/2-y
69 1/2-x,1/2+z,1/2-y
70 1/2-z,1/2-y,1/2+x
71 1/2-z,1/2+y,1/2-x
72 1/2+z,1/2-y,1/2-x
73 x,y,-z
74 x,-y,z
75 -x,y,z
76 -z,x,y
77 z,x,-y
78 z,-x,y
79 y,-z,x
80 -y,z,x
81 y,z,-x
82 y,x,z
83 x,z,y
84 z,y,x
85 1/2+x,1/2+y,1/2-z
86 1/2+x,1/2-y,1/2+z
87 1/2-x,1/2+y,1/2+z
88 1/2-z,1/2+x,1/2+y
89 1/2+z,1/2+x,1/2-y
90 1/2+z,1/2-x,1/2+y
91 1/2+y,1/2-z,1/2+x
92 1/2-y,1/2+z,1/2+x
93 1/2+y,1/2+z,1/2-x
94 1/2+y,1/2+x,1/2+z
95 1/2+x,1/2+z,1/2+y
96 1/2+z,1/2+y,1/2+x
_cell_length_a                   29.2582(5)
_cell_length_b                   29.2582(5)
_cell_length_c                   29.2582(5)
_cell_angle_alpha                90
_cell_angle_beta                 90
_cell_angle_gamma                90
_cell_volume                     25046.3
loop_
_atom_site_label
_atom_site_type_symbol
_atom_site_fract_x
_atom_site_fract_y
_atom_site_fract_z
Zn1 Zn 0.2500 0.396246(10) 0.103755(10)
N1 N 0.23073(8) 0.38610(7) 0.03823(8)
N2 N 0.19408(9) 0.38172(8) 0.14001(9)
C1 C 0.20110(17) 0.35506(18) 0.02312(18)
H1 H 0.1826 0.3357 0.0421
C2 C 0.2499(3) 0.4046(3) 0.0000
C3 C 0.2876(3) 0.4406(3) 0.0000
H2 H 0.2843 0.4596 0.0266
C4 C 0.3349(6) 0.4179(6) 0.0000
H3 H 0.3576 0.4416 0.0000
H4 H 0.3385 0.3993 0.0268
C5 C 0.14928(19) 0.38964(17) 0.11643(19)
H5 H 0.1447 0.3936 0.0842
C6 C 0.1813(4) 0.37994(18) 0.1813(4)
C7 C 0.2177(2) 0.3737(3) 0.2177(2)
H6 H 0.2079 0.3883 0.2456
C8 C 0.2272(3) 0.3237(4) 0.2272(3)
Zn1TB Zn 0.2500 0.396246(10) -0.103755(10)
Zn1EC Zn 0.103755(10) 0.396246(10) 0.2500
Zn1UB Zn 0.2500 0.603754(10) 0.103755(10)
Zn1CC Zn 0.396246(10) 0.2500 0.103755(10)
N1TB N 0.23073(8) 0.38610(7) -0.03823(8)
N1TA N 0.26927(8) 0.46177(8) 0.11390(7)
N1PB N 0.26927(8) 0.53823(8) 0.11390(7)
N1NB N 0.26927(8) 0.46177(8) -0.11390(7)
N2EC N 0.14001(9) 0.38172(8) 0.19408(9)
N2TA N 0.30592(9) 0.35999(9) 0.11828(8)
N2IB N 0.35999(9) 0.30592(9) 0.11828(8)
N2TB N 0.19408(9) 0.38172(8) -0.14001(9)
N2NB N 0.30592(9) 0.35999(9) -0.11828(8)
C1TB C 0.20110(17) 0.35506(18) -0.02312(18)
C1TA C 0.29890(17) 0.47688(18) 0.14494(18)
C1PB C 0.29890(17) 0.52312(18) 0.14494(18)
H1TB H 0.1826 0.3357 -0.0421
H1TA H 0.3174 0.4579 0.1643
H1PB H 0.3174 0.5421 0.1643
C2PB C 0.2501(3) 0.5000 0.0954(3)
C3PB C 0.2124(3) 0.5000 0.0594(3)
H2TB H 0.2843 0.4596 -0.0266
H2TA H 0.2157 0.4734 0.0404
H2PB H 0.2157 0.5266 0.0404
C4PB C 0.1651(6) 0.5000 0.0821(6)
H3PB H 0.1424 0.5000 0.0584
H4TB H 0.3385 0.3993 -0.0268
H4TA H 0.1615 0.4732 0.1007
H4PB H 0.1615 0.5268 0.1007
C5EC C 0.11643(19) 0.38964(17) 0.14928(19)
C5TA C 0.35072(19) 0.38357(19) 0.11036(17)
C5IB C 0.38357(19) 0.35072(19) 0.11036(17)
H5EC H 0.0842 0.3936 0.1447
H5TA H 0.3553 0.4158 0.1064
H5IB H 0.4158 0.3553 0.1064
C6IB C 0.3187(4) 0.3187(4) 0.12006(18)
C7IB C 0.2823(2) 0.2823(2) 0.1263(3)
H6EC H 0.2456 0.3883 0.2079
H6TA H 0.2921 0.2544 0.1117
H6IB H 0.2544 0.2921 0.1117
C8IB C 0.2728(3) 0.2728(3) 0.1763(4)
O1 O 0.2382(10) 0.5000 0.2382(10)
loop_
_geom_bond_atom_site_label_1
_geom_bond_atom_site_label_2
_geom_bond_site_symmetry_1
_geom_bond_site_symmetry_2
Zn1 N1 1_555 1_555
N1 C1 1_555 1_555
N2 Zn1 1_555 1_555
C1 H1 1_555 1_555
C2 N1 1_555 1_555
C3 C2 1_555 1_555
H2 C3 1_555 1_555
C4 C3 1_555 1_555
H3 C4 1_555 1_555
H4 C4 1_555 1_555
C5 N2 1_555 1_555
H5 C5 1_555 1_555
C6 N2 1_555 1_555
C7 C6 1_555 1_555
H6 C7 1_555 1_555
C8 C7 1_555 1_555
Zn1TB N1TB 1_555 1_555
Zn1EC N2EC 1_555 1_555
Zn1UB N1PB 1_555 1_555
Zn1CC N2IB 1_555 1_555
N1TB C2 1_555 1_555
N1TA Zn1 1_555 1_555
N1PB C1PB 1_555 1_555
N1NB Zn1TB 1_555 1_555
N2EC C6 1_555 1_555
N2TA Zn1 1_555 1_555
N2IB C5IB 1_555 1_555
N2TB Zn1TB 1_555 1_555
N2NB Zn1TB 1_555 1_555
C1TB C1 1_555 1_555
C1TA N1TA 1_555 1_555
C1PB C1TA 1_555 1_555
H1TB C1TB 1_555 1_555
H1TA C1TA 1_555 1_555
H1PB C1PB 1_555 1_555
C2PB N1TA 1_555 1_555
C3PB C2PB 1_555 1_555
H2TB C3 1_555 1_555
H2TA C3PB 1_555 1_555
H2PB C3PB 1_555 1_555
C4PB C3PB 1_555 1_555
H3PB C4PB 1_555 1_555
H4TB C4 1_555 1_555
H4TA C4PB 1_555 1_555
H4PB C4PB 1_555 1_555
C5EC C5 1_555 1_555
C5TA N2TA 1_555 1_555
C5IB C5TA 1_555 1_555
H5EC C5EC 1_555 1_555
H5TA C5TA 1_555 1_555
H5IB C5IB 1_555 1_555
C6IB N2TA 1_555 1_555
C7IB C6IB 1_555 1_555
H6EC C7 1_555 1_555
H6TA C7IB 1_555 1_555
H6IB C7IB 1_555 1_555
C8IB C7IB 1_555 1_555
N1TB C1TB 1_555 1_555
N1PB C2PB 1_555 1_555
N2EC C5EC 1_555 1_555
N2IB C6IB 1_555 1_555

#END
