
#######################################################################
#
#                 Cambridge Crystallographic Data Centre
#                                CCDC 
#
#######################################################################
#
# If this CIF has been generated from an entry in the Cambridge 
# Structural Database, then it will include bibliographic, chemical, 
# crystal, experimental, refinement or atomic coordinate data resulting 
# from the CCDC's data processing and validation procedures.
#
#######################################################################

data_MECWIB
_chemical_formula_moiety         '(C10 H16 N4 O1 Zn1)n'
_symmetry_cell_setting           cubic
_symmetry_space_group_name_H-M   'I a -3 d'
_symmetry_Int_Tables_number      230
_space_group_name_Hall           '-I 4bd 2c 3'
loop_
_symmetry_equiv_pos_site_id
_symmetry_equiv_pos_as_xyz
1 x,y,z
2 z,x,y
3 y,z,x
4 3/4+y,1/4+x,1/4-z
5 1/4+y,1/4-x,3/4+z
6 1/4-y,3/4+x,1/4+z
7 3/4+x,1/4+z,1/4-y
8 1/4-x,3/4+z,1/4+y
9 1/4+x,1/4-z,3/4+y
10 3/4+z,1/4+y,1/4-x
11 1/4+z,1/4-y,3/4+x
12 1/4-z,3/4+y,1/4+x
13 1/2+x,1/2+y,1/2+z
14 1/2+z,1/2+x,1/2+y
15 1/2+y,1/2+z,1/2+x
16 1/4+y,3/4+x,3/4-z
17 1/4-y,1/4-x,1/4-z
18 3/4+y,3/4-x,1/4+z
19 3/4-y,1/4+x,3/4+z
20 1/4+x,3/4+z,3/4-y
21 3/4-x,1/4+z,3/4+y
22 1/4-x,1/4-z,1/4-y
23 3/4+x,3/4-z,1/4+y
24 1/4+z,3/4+y,3/4-x
25 3/4+z,3/4-y,1/4+x
26 3/4-z,1/4+y,3/4+x
27 1/4-z,1/4-y,1/4-x
28 1/2-x,-y,1/2+z
29 -x,1/2+y,1/2-z
30 1/2+x,1/2-y,-z
31 1/2+z,1/2-x,-y
32 1/2-z,-x,1/2+y
33 -z,1/2+x,1/2-y
34 -y,1/2+z,1/2-x
35 1/2+y,1/2-z,-x
36 1/2-y,-z,1/2+x
37 3/4-y,3/4-x,3/4-z
38 3/4-x,3/4-z,3/4-y
39 3/4-z,3/4-y,3/4-x
40 -x,1/2-y,z
41 1/2-x,y,-z
42 x,-y,1/2-z
43 z,-x,1/2-y
44 -z,1/2-x,y
45 1/2-z,x,-y
46 1/2-y,z,-x
47 y,-z,1/2-x
48 -y,1/2-z,x
49 -x,-y,-z
50 -z,-x,-y
51 -y,-z,-x
52 1/4-y,3/4-x,3/4+z
53 3/4-y,3/4+x,1/4-z
54 3/4+y,1/4-x,3/4-z
55 1/4-x,3/4-z,3/4+y
56 3/4+x,1/4-z,3/4-y
57 3/4-x,3/4+z,1/4-y
58 1/4-z,3/4-y,3/4+x
59 3/4-z,3/4+y,1/4-x
60 3/4+z,1/4-y,3/4-x
61 1/2-x,1/2-y,1/2-z
62 1/2-z,1/2-x,1/2-y
63 1/2-y,1/2-z,1/2-x
64 3/4-y,1/4-x,1/4+z
65 3/4+y,3/4+x,3/4+z
66 1/4-y,1/4+x,3/4-z
67 1/4+y,3/4-x,1/4-z
68 3/4-x,1/4-z,1/4+y
69 1/4+x,3/4-z,1/4-y
70 3/4+x,3/4+z,3/4+y
71 1/4-x,1/4+z,3/4-y
72 3/4-z,1/4-y,1/4+x
73 1/4-z,1/4+y,3/4-x
74 1/4+z,3/4-y,1/4-x
75 3/4+z,3/4+y,3/4+x
76 1/2+x,y,1/2-z
77 x,1/2-y,1/2+z
78 1/2-x,1/2+y,z
79 1/2-z,1/2+x,y
80 1/2+z,x,1/2-y
81 z,1/2-x,1/2+y
82 y,1/2-z,1/2+x
83 1/2-y,1/2+z,x
84 1/2+y,z,1/2-x
85 1/4+y,1/4+x,1/4+z
86 1/4+x,1/4+z,1/4+y
87 1/4+z,1/4+y,1/4+x
88 x,1/2+y,-z
89 1/2+x,-y,z
90 -x,y,1/2+z
91 -z,x,1/2+y
92 z,1/2+x,-y
93 1/2+z,-x,y
94 1/2+y,-z,x
95 -y,z,1/2+x
96 y,1/2+z,-x
_cell_length_a                   26.531(1)
_cell_length_b                   26.531(1)
_cell_length_c                   26.531(1)
_cell_angle_alpha                90
_cell_angle_beta                 90
_cell_angle_gamma                90
_cell_volume                     18675
loop_
_atom_site_label
_atom_site_type_symbol
_atom_site_fract_x
_atom_site_fract_y
_atom_site_fract_z
_atom_site_U_iso_or_equiv
_atom_site_thermal_displace_type
Zn1 Zn 0.1250 0.838680(9) 0.088680(9) 0.0157 Uani
N1 N 0.11956(7) 0.84801(7) 0.01344(7) 0.0191 Uani
N2 N 0.13377(7) 0.87434(7) -0.06531(7) 0.0185 Uani
C1 C 0.10406(9) 0.81082(8) -0.01949(8) 0.0221 Uani
H1 H 0.0895 0.7794 -0.0102 0.0270 Uiso
C2 C 0.11308(9) 0.82659(8) -0.06732(9) 0.0215 Uani
H2 H 0.1063 0.8079 -0.0971 0.0260 Uiso
C3 C 0.13673(8) 0.88554(8) -0.01610(8) 0.0188 Uani
C4 C 0.15514(11) 0.93506(9) 0.00345(9) 0.0314 Uani
H3 H 0.1404 0.9617 -0.0168 0.0380 Uiso
H4 H 0.1428 0.9393 0.0376 0.0380 Uiso
C5 C 0.2107(2) 0.9416(3) 0.0037(2) 0.0457 Uani
H5 H 0.2191 0.9749 0.0171 0.0680 Uiso
H6 H 0.2236 0.9385 -0.0307 0.0680 Uiso
H7 H 0.2260 0.9155 0.0250 0.0680 Uiso
Zn1XA Zn 0.161320(9) 0.911320(9) -0.1250 0.0157 Uani
Zn1MC Zn 0.088680(9) 0.6250 0.161320(9) 0.0157 Uani
N1G N 0.13044(7) 0.76344(7) 0.09801(7) 0.0191 Uani
N2G N 0.11623(7) 0.68469(7) 0.12434(7) 0.0185 Uani
N2WA N 0.06531(7) 0.86623(7) 0.12566(7) 0.0185 Uani
N2UB N 0.18469(7) 0.87566(7) 0.11623(7) 0.0185 Uani
C1G C 0.14594(9) 0.73051(8) 0.06082(8) 0.0221 Uani
H1G H 0.1605 0.7398 0.0294 0.0270 Uiso
C2G C 0.13692(9) 0.68268(9) 0.07659(8) 0.0215 Uani
H2G H 0.1437 0.6529 0.0579 0.0260 Uiso
C3G C 0.11327(8) 0.73390(8) 0.13554(8) 0.0188 Uani
C4G C 0.09486(11) 0.75345(9) 0.18506(9) 0.0314 Uani
H3G H 0.1096 0.7332 0.2117 0.0380 Uiso
H4G H 0.1072 0.7876 0.1893 0.0380 Uiso
C5G C 0.0393(2) 0.7537(2) 0.1916(3) 0.0457 Uani
H5G H 0.0309 0.7671 0.2249 0.0680 Uiso
H6G H 0.0264 0.7193 0.1885 0.0680 Uiso
H7G H 0.0240 0.7750 0.1655 0.0680 Uiso
O1 O 0.1981(15) 1.1250 0.0519(15) 0.1350 Uiso
loop_
_atom_site_aniso_label
_atom_site_aniso_U_11
_atom_site_aniso_U_22
_atom_site_aniso_U_33
_atom_site_aniso_U_23
_atom_site_aniso_U_13
_atom_site_aniso_U_12
Zn1 0.0146(2) 0.01618(17) 0.01618(17) 0.00105(12) 0.00153(8) -0.00153(8)
N1 0.0202(9) 0.0204(9) 0.0166(9) 0.0013(7) 0.0014(7) -0.0023(7)
N2 0.0204(9) 0.0187(9) 0.0165(9) 0.0011(7) -0.0004(7) -0.0003(7)
C1 0.0239(11) 0.0209(10) 0.0215(11) 0.0019(8) -0.0011(8) -0.0042(8)
C2 0.0257(11) 0.0191(10) 0.0198(11) 0.0002(8) -0.0027(9) -0.0022(9)
C3 0.0198(10) 0.0184(10) 0.0181(10) 0.0016(8) 0.0004(8) 0.0002(8)
C4 0.0537(16) 0.0218(12) 0.0188(11) 0.0009(9) 0.0000(11) -0.0106(10)
C5 0.050(4) 0.045(3) 0.042(3) 0.005(3) -0.005(3) -0.018(3)
Zn1XA 0.01618 0.01618 0.0146 0.00153 -0.00153 0.00105
Zn1MC 0.01618 0.0146 0.01618 0.00153 -0.00105 0.00153
N1G 0.0202 0.0166 0.0204 0.0013 0.0023 -0.0014
N2G 0.0204 0.0165 0.0187 0.0011 0.0003 0.0004
N2WA 0.0165 0.0204 0.0187 -0.0003 0.0011 -0.0004
N2UB 0.0165 0.0187 0.0204 -0.0003 0.0004 -0.0011
C1G 0.0239 0.0215 0.0209 0.0019 0.0042 0.0011
C2G 0.0257 0.0198 0.0191 0.0002 0.0022 0.0027
C3G 0.0198 0.0181 0.0184 0.0016 -0.0002 -0.0004
C4G 0.0537 0.0188 0.0218 0.0009 0.0106 0
C5G 0.05 0.042 0.045 0.005 0.018 0.005
loop_
_geom_bond_atom_site_label_1
_geom_bond_atom_site_label_2
_geom_bond_site_symmetry_1
_geom_bond_site_symmetry_2
Zn1 N1 1_555 1_555
N1 C1 1_555 1_555
N2 C2 1_555 1_555
C1 H1 1_555 1_555
C2 C1 1_555 1_555
H2 C2 1_555 1_555
C3 N1 1_555 1_555
C4 C3 1_555 1_555
H3 C4 1_555 1_555
H4 C4 1_555 1_555
C5 C4 1_555 1_555
H5 C5 1_555 1_555
H6 C5 1_555 1_555
H7 C5 1_555 1_555
Zn1XA N2 1_555 1_555
Zn1MC N2G 1_555 1_555
N1G Zn1 1_555 1_555
N2G C2G 1_555 1_555
N2WA Zn1 1_555 1_555
N2UB Zn1 1_555 1_555
C1G N1G 1_555 1_555
H1G C1G 1_555 1_555
C2G C1G 1_555 1_555
H2G C2G 1_555 1_555
C3G N1G 1_555 1_555
C4G C3G 1_555 1_555
H3G C4G 1_555 1_555
H4G C4G 1_555 1_555
C5G C4G 1_555 1_555
H5G C5G 1_555 1_555
H6G C5G 1_555 1_555
H7G C5G 1_555 1_555
N2 C3 1_555 1_555
N2G C3G 1_555 1_555

#END
