
#######################################################################
#
#                 Cambridge Crystallographic Data Centre
#                                CCDC 
#
#######################################################################
#
# If this CIF has been generated from an entry in the Cambridge 
# Structural Database, then it will include bibliographic, chemical, 
# crystal, experimental, refinement or atomic coordinate data resulting 
# from the CCDC's data processing and validation procedures.
#
#######################################################################

data_TUPDEP
_chemical_formula_moiety         '(C24 H26 Cu1 N8 O6)n'
_symmetry_cell_setting           orthorhombic
_symmetry_space_group_name_H-M   'P n n a'
_symmetry_Int_Tables_number      52
_space_group_name_Hall           '-P 2a 2bc'
loop_
_symmetry_equiv_pos_site_id
_symmetry_equiv_pos_as_xyz
1 x,y,z
2 1/2-x,-y,z
3 x,1/2-y,1/2-z
4 1/2-x,1/2+y,1/2-z
5 -x,-y,-z
6 1/2+x,y,-z
7 -x,1/2+y,1/2+z
8 1/2+x,1/2-y,1/2+z
_cell_length_a                   12.7307(6)
_cell_length_b                   9.8601(3)
_cell_length_c                   17.6478(10)
_cell_angle_alpha                90
_cell_angle_beta                 90
_cell_angle_gamma                90
_cell_volume                     2215.26
loop_
_atom_site_label
_atom_site_type_symbol
_atom_site_fract_x
_atom_site_fract_y
_atom_site_fract_z
O3 O 0.8772(10) 0.7874(11) 0.1053(7)
N4 N 0.7475(12) 0.9250(18) 0.1402(8)
C10 C 0.7321(16) 0.854(2) 0.2106(9)
H7 H 0.7811 0.7804 0.2148
H8 H 0.7421 0.9156 0.2521
H9 H 0.6617 0.8192 0.2118
C11 C 0.682(2) 1.042(2) 0.1192(11)
H10 H 0.7057 1.0739 0.0708
H11 H 0.6096 1.0159 0.1158
H12 H 0.6899 1.1123 0.1562
C12 C 0.8205(14) 0.8813(18) 0.0942(9)
H13 H 0.8414 0.9255 0.0501
O3A O 0.6228(10) 1.2126(11) 0.1053(7)
N4A N 0.7525(12) 1.0750(18) 0.1402(8)
C10A C 0.7679(16) 1.146(2) 0.2106(9)
H7A H 0.7189 1.2196 0.2148
H8A H 0.7579 1.0844 0.2521
H9A H 0.8383 1.1808 0.2118
C11A C 0.818(2) 0.958(2) 0.1192(11)
H10A H 0.7943 0.9261 0.0708
H11A H 0.8904 0.9841 0.1158
H12A H 0.8101 0.8877 0.1562
C12A C 0.6795(14) 1.1187(18) 0.0942(9)
H13A H 0.6586 1.0745 0.0501
Cu1 Cu 0.7500 1.0000 -0.16008(4)
O1 O 0.6481(3) 0.9487(4) -0.08041(18)
O2 O 0.7241(3) 0.7587(4) -0.1179(2)
N1 N 0.4681(4) 0.5473(5) 0.1706(2)
N2 N 0.5226(4) 0.4529(6) 0.2123(3)
N3 N 0.3640(4) 0.4922(4) 0.2626(2)
C1 C 0.6647(3) 0.8214(5) -0.0750(3)
C2 C 0.6093(4) 0.7476(5) -0.0123(3)
C3 C 0.5268(5) 0.8054(6) 0.0273(4)
H1 H 0.5025 0.8928 0.0130
C4 C 0.4790(5) 0.7398(6) 0.0867(4)
H2 H 0.4221 0.7807 0.1130
C5 C 0.5151(4) 0.6140(5) 0.1073(3)
C6 C 0.5962(6) 0.5515(7) 0.0692(4)
H3 H 0.6196 0.4636 0.0835
C7 C 0.6430(5) 0.6205(6) 0.0093(4)
H4 H 0.6993 0.5791 -0.0173
C8 C 0.4574(5) 0.4237(7) 0.2673(3)
H5 H 0.4733 0.3611 0.3065
C9 C 0.3737(4) 0.5694(5) 0.2014(3)
H6 H 0.3220 0.6302 0.1826
O1A O 0.8519(3) 1.0513(4) -0.08041(18)
O2A O 0.7759(3) 1.2413(4) -0.1179(2)
N1A N 1.0319(4) 1.4527(5) 0.1706(2)
N2A N 0.9774(4) 1.5471(6) 0.2123(3)
N3A N 1.1360(4) 1.5078(4) 0.2626(2)
C1A C 0.8353(3) 1.1786(5) -0.0750(3)
C2A C 0.8907(4) 1.2524(5) -0.0123(3)
C3A C 0.9732(5) 1.1946(6) 0.0273(4)
H1A H 0.9975 1.1072 0.0130
C4A C 1.0210(5) 1.2602(6) 0.0867(4)
H2A H 1.0779 1.2193 0.1130
C5A C 0.9849(4) 1.3860(5) 0.1073(3)
C6A C 0.9038(6) 1.4485(7) 0.0692(4)
H3A H 0.8804 1.5364 0.0835
C7A C 0.8570(5) 1.3795(6) 0.0093(4)
H4A H 0.8007 1.4209 -0.0173
C8A C 1.0426(5) 1.5763(7) 0.2673(3)
H5A H 1.0267 1.6389 0.3065
C9A C 1.1263(4) 1.4306(5) 0.2014(3)
H6A H 1.1780 1.3698 0.1826
Cu1F Cu 0.2500 0.5000 0.33992(4)
Cu1F_2 Cu 1.2500 1.5000 0.33992(4)
N3F N 0.6360(4) 0.9922(4) -0.2374(2)
N3G N 0.8640(4) 1.0078(4) -0.2374(2)
loop_
_geom_bond_atom_site_label_1
_geom_bond_atom_site_label_2
_geom_bond_site_symmetry_1
_geom_bond_site_symmetry_2
Cu1 O1 1_555 1_555
O1 C1 1_555 1_555
O2 Cu1 1_555 1_555
N1 N2 1_555 1_555
N2 C8 1_555 1_555
N3 C8 1_555 1_555
C1 O2 1_555 1_555
C2 C1 1_555 1_555
C3 C2 1_555 1_555
H1 C3 1_555 1_555
C4 C3 1_555 1_555
H2 C4 1_555 1_555
C5 N1 1_555 1_555
C6 C5 1_555 1_555
H3 C6 1_555 1_555
C7 C2 1_555 1_555
H4 C7 1_555 1_555
C8 H5 1_555 1_555
C9 N1 1_555 1_555
H6 C9 1_555 1_555
O3 C12 1_555 1_555
N4 C10 1_555 1_555
C10 H7 1_555 1_555
H8 C10 1_555 1_555
H9 C10 1_555 1_555
C11 N4 1_555 1_555
H10 C11 1_555 1_555
H11 C11 1_555 1_555
H12 C11 1_555 1_555
C12 N4 1_555 1_555
H13 C12 1_555 1_555
O1A Cu1 1_555 1_555
O2A Cu1 1_555 1_555
N1A N2A 1_555 1_555
N2A C8A 1_555 1_555
N3A C8A 1_555 1_555
C1A O1A 1_555 1_555
C2A C1A 1_555 1_555
C3A C2A 1_555 1_555
H1A C3A 1_555 1_555
C4A C3A 1_555 1_555
H2A C4A 1_555 1_555
C5A N1A 1_555 1_555
C6A C5A 1_555 1_555
H3A C6A 1_555 1_555
C7A C2A 1_555 1_555
H4A C7A 1_555 1_555
C8A H5A 1_555 1_555
C9A N1A 1_555 1_555
H6A C9A 1_555 1_555
Cu1F N3 1_555 1_555
Cu1F_2 N3A 1_555 1_555
N3F Cu1 1_555 1_555
N3G Cu1 1_555 1_555
O3A C12A 1_555 1_555
N4A N4 1_555 1_555
C10A N4A 1_555 1_555
H7A C10A 1_555 1_555
H8A C10A 1_555 1_555
H9A C10A 1_555 1_555
C11A N4 1_555 1_555
H10A C12 1_555 1_555
H11A C11A 1_555 1_555
H12A N4 1_555 1_555
C12A C11 1_555 1_555
H13A C11 1_555 1_555
N3 C9 1_555 1_555
C4 C5 1_555 1_555
C6 C7 1_555 1_555
C11 N4A 1_555 1_555
H10 C12A 1_555 1_555
H12 N4A 1_555 1_555
H12 C12A 1_555 1_555
C12 C11A 1_555 1_555
C12 H12A 1_555 1_555
H13 C11A 1_555 1_555
O2A C1A 1_555 1_555
N3A C9A 1_555 1_555
C4A C5A 1_555 1_555
C6A C7A 1_555 1_555
N4A C11A 1_555 1_555
N4A C12A 1_555 1_555
C11A H10A 1_555 1_555
C11A H12A 1_555 1_555
C12A H13A 1_555 1_555

#END
