
#######################################################################
#
#                 Cambridge Crystallographic Data Centre
#                                CCDC 
#
#######################################################################
#
# If this CIF has been generated from an entry in the Cambridge 
# Structural Database, then it will include bibliographic, chemical, 
# crystal, experimental, refinement or atomic coordinate data resulting 
# from the CCDC's data processing and validation procedures.
#
#######################################################################

data_EXALIZ
_chemical_formula_moiety         'C40 H68 Mo29 N33 Ni7 O105 P2'
_symmetry_cell_setting           triclinic
_symmetry_space_group_name_H-M   'P -1'
_symmetry_Int_Tables_number      2
_space_group_name_Hall           '-P 1'
loop_
_symmetry_equiv_pos_site_id
_symmetry_equiv_pos_as_xyz
1 x,y,z
2 -x,-y,-z
_cell_length_a                   13.0024(8)
_cell_length_b                   13.4765(9)
_cell_length_c                   19.0107(13)
_cell_angle_alpha                76.2940(10)
_cell_angle_beta                 85.2840(10)
_cell_angle_gamma                74.7680(10)
_cell_volume                     3121.93
loop_
_atom_site_label
_atom_site_type_symbol
_atom_site_fract_x
_atom_site_fract_y
_atom_site_fract_z
Ni1 Ni -0.34789(10) -0.23395(10) 0.85385(7)
Ni2 Ni 0.0000 -1.0000 0.5000
Mo1 Mo -0.20377(13) 0.18128(10) 0.88729(9)
Mo2 Mo -0.23120(9) 0.14109(11) 1.07872(8)
Mo3 Mo 0.01807(12) 0.02419(11) 0.80972(6)
Mo4 Mo -0.17818(10) -0.13733(10) 1.10589(6)
Mo5 Mo -0.17106(9) -0.09545(9) 0.91497(6)
Mo6 Mo 0.04440(9) -0.27749(8) 1.01585(6)
O23 O -0.0790(11) -0.0027(10) 1.0626(7)
O24 O -0.0500(11) -0.0900(11) 1.0092(7)
O25 O -0.0812(11) 0.1048(9) 0.9952(7)
O26 O -0.0654(12) 0.0186(11) 0.9297(7)
O27 O -0.1041(10) 0.1435(8) 0.8194(9)
O28 O -0.2401(10) 0.0465(9) 0.8941(9)
O29 O -0.1345(11) 0.0830(10) 1.1599(7)
O30 O -0.2572(10) 0.0095(9) 1.0954(7)
O31 O -0.2687(10) -0.1951(10) 1.1505(7)
O32 O -0.3359(8) 0.2118(11) 1.1155(9)
O33 O -0.0744(9) -0.0623(8) 0.8362(8)
O34 O 0.0259(12) 0.0402(10) 0.7214(5)
O35 O -0.0606(7) -0.2201(9) 0.9446(4)
O36 O -0.1510(9) 0.2450(10) 1.0506(6)
O37 O 0.1027(11) 0.1201(8) 0.8221(6)
O38 O -0.2265(8) -0.1146(10) 1.0065(5)
O39 O -0.2448(6) -0.1472(7) 0.8740(4)
O40 O 0.0624(11) -0.4038(7) 1.0223(6)
O41 O -0.1358(10) 0.2736(10) 0.9099(6)
O42 O -0.0706(10) -0.2499(10) 1.0856(5)
O43 O -0.2993(11) 0.2626(10) 0.8353(8)
O44 O -0.2738(10) 0.1728(11) 0.9845(7)
N1 N -0.3941(14) -0.0511(10) 0.6431(7)
N2 N -0.2944(12) -0.0493(9) 0.6481(6)
N3 N -0.3478(7) -0.1473(8) 0.7488(5)
N4 N -0.1399(8) -0.4791(8) 0.7801(6)
N5 N -0.0644(8) -0.4659(8) 0.8222(6)
N6 N -0.2216(7) -0.3495(7) 0.8283(5)
N7 N -0.3484(7) -0.3078(8) -0.0369(5)
N8 N -0.4122(12) -0.3655(18) 0.0738(9)
N9 N -0.3106(10) -0.3861(10) 0.0755(6)
N10 N -0.0711(8) -0.7723(7) 0.3043(5)
N11 N 0.0119(9) -0.7381(7) 0.3229(5)
N12 N -0.0214(7) -0.8755(6) 0.4074(5)
N13 N 0.0645(8) -0.9096(6) 0.5515(4)
N14 N 0.1819(10) -0.8522(10) 0.6008(8)
N15 N 0.0830(10) -0.7911(9) 0.6039(7)
C1 C 0.058(2) -0.7194(18) 0.6592(14)
H1 H 0.1245 -0.7072 0.6714
H2 H 0.0283 -0.7552 0.7032
C2 C -0.0897(10) -0.8527(8) 0.3538(6)
H3 H -0.1419 -0.8877 0.3518
C3 C -0.011(2) -0.6243(18) 0.6327(14)
H4 H 0.0168 -0.5906 0.5870
H5 H -0.0787 -0.6363 0.6234
C4 C -0.450(2) -0.0304(15) 0.5303(10)
H6 H -0.3823 -0.0199 0.5092
H7 H -0.4450 -0.1056 0.5446
C5 C -0.4762(19) 0.0139(16) 0.5878(11)
H8 H -0.4727 0.0870 0.5753
H9 H -0.5475 0.0106 0.6059
C6 C -0.0302(15) -0.5502(15) 0.6853(11)
H10 H -0.0497 -0.4778 0.6577
H11 H 0.0360 -0.5602 0.7092
C7 C -0.1780(10) -0.6062(9) 0.2304(6)
H12 H -0.2304 -0.5986 0.2694
H13 H -0.1244 -0.5705 0.2360
C8 C -0.1202(11) -0.3893(9) 0.8511(6)
H14 H -0.0923 -0.3641 0.8849
C9 C -0.1122(14) -0.5659(13) 0.7399(10)
H15 H -0.1753 -0.5681 0.7171
H16 H -0.0874 -0.6330 0.7737
C10 C 0.1663(10) -0.9220(10) 0.5681(7)
H17 H 0.2215 -0.9762 0.5571
C11 C -0.2754(11) -0.3492(9) 0.0112(6)
H18 H -0.2037 -0.3522 0.0007
C12 C -0.1269(12) -0.7201(9) 0.2356(6)
H19 H -0.0762 -0.7274 0.1956
H20 H -0.1811 -0.7556 0.2310
C13 C -0.2279(12) -0.4100(11) 0.7848(8)
H21 H -0.2891 -0.4036 0.7602
C14 C -0.2675(13) -0.1090(12) 0.7117(6)
H22 H -0.1996 -0.1241 0.7301
C15 C -0.2323(11) -0.5545(10) 0.1579(7)
H23 H -0.2984 -0.5751 0.1581
H24 H -0.1865 -0.5793 0.1194
C16 C -0.4316(13) -0.1058(12) 0.7054(8)
H25 H -0.5009 -0.1128 0.7156
C17 C -0.2550(13) -0.4384(11) 0.1436(7)
H26 H -0.1885 -0.4181 0.1420
H27 H -0.2984 -0.4142 0.1832
C18 C 0.0136(10) -0.8273(9) 0.5766(7)
H28 H -0.0598 -0.7988 0.5755
C19 C -0.4350(14) -0.311(2) 0.0048(10)
H29 H -0.5040 -0.2796 -0.0116
C20 C 0.0356(10) -0.8038(8) 0.3850(6)
H30 H 0.0901 -0.8011 0.4127
P2 P 0.0000 0.0000 1.0000
O45 O -0.4727(7) -0.1126(7) 0.8768(5)
O46 O -0.4597(6) -0.3092(7) 0.8328(5)
O47 O 0.1544(6) -1.0581(6) 0.4586(4)
Ni1A Ni 0.34789(10) -1.76605(10) 0.14615(7)
Ni1_2 Ni -0.34789(10) -0.23395(10) -0.14615(7)
Ni1A_2 Ni -0.65211(10) 0.23395(10) 0.14615(7)
Ni1A_3 Ni 0.34789(10) -1.76605(10) 1.14615(7)
Ni1A_4 Ni 0.34789(10) 0.23395(10) 1.14615(7)
Mo1A Mo 0.20377(13) -0.18128(10) 1.11271(9)
Mo1A_2 Mo 0.20377(13) -2.18128(10) 0.11271(9)
Mo2A Mo 0.23120(9) -0.14109(11) 0.92128(8)
Mo3A Mo -0.01807(12) -0.02419(11) 1.19028(6)
Mo3A_2 Mo -0.01807(12) -2.02419(11) 0.19028(6)
Mo4A Mo 0.17818(10) 0.13733(10) 0.89411(6)
Mo4A_2 Mo 0.17818(10) -1.86267(10) -0.10589(6)
Mo5A Mo 0.17106(9) -1.90455(9) 0.08503(6)
Mo5A_2 Mo 0.17106(9) 0.09545(9) 1.08503(6)
Mo6A Mo -0.04440(9) 0.27749(8) 0.98415(6)
Mo6A_2 Mo -0.04440(9) -1.72251(8) -0.01585(6)
O23A O 0.0790(11) 0.0027(10) 0.9374(7)
O24A O 0.0500(11) 0.0900(11) 0.9908(7)
O24A_2 O 0.0500(11) -1.9100(11) -0.0092(7)
O25A O 0.0812(11) -0.1048(9) 1.0048(7)
O26A O 0.0654(12) -0.0186(11) 1.0703(7)
O26A_2 O 0.0654(12) -2.0186(11) 0.0703(7)
O27A O 0.1041(10) -0.1435(8) 1.1806(9)
O28A O 0.2401(10) -2.0465(9) 0.1059(9)
O28A_2 O 0.2401(10) -0.0465(9) 1.1059(9)
O29A O 0.1345(11) -0.0830(10) 0.8401(7)
O30A O 0.2572(10) -0.0095(9) 0.9046(7)
O31A O 0.2687(10) 0.1951(10) 0.8495(7)
O32A O 0.3359(8) -0.2118(11) 0.8845(9)
O33A O 0.0744(9) -1.9377(8) 0.1638(8)
O33A_2 O 0.0744(9) 0.0623(8) 1.1638(8)
O34A O -0.0259(12) -0.0402(10) 1.2786(5)
O35A O 0.0606(7) -1.7799(9) 0.0554(4)
O35A_2 O 0.0606(7) 0.2201(9) 1.0554(4)
O36A O 0.1510(9) -0.2450(10) 0.9494(6)
O37A O -0.1027(11) -0.1201(8) 1.1779(6)
O38A O 0.2265(8) -1.8854(10) -0.0065(5)
O38A_2 O 0.2265(8) 0.1146(10) 0.9935(5)
O39A O 0.2448(6) -1.8528(7) 0.1260(4)
O39A_2 O 0.2448(6) 0.1472(7) 1.1260(4)
O40A O -0.0624(11) 0.4038(7) 0.9777(6)
O41A O 0.1358(10) -0.2736(10) 1.0901(6)
O42A O 0.0706(10) 0.2499(10) 0.9144(5)
O43A O 0.2993(11) -0.2626(10) 1.1647(8)
O44A O 0.2738(10) -0.1728(11) 1.0155(7)
N1A N -0.6059(14) 0.0511(10) 0.3569(7)
N2A N -0.7056(12) 0.0493(9) 0.3519(6)
N3A N -0.6522(7) 0.1473(8) 0.2512(5)
N3A_2 N 0.3478(7) -1.8527(8) 0.2512(5)
N4A N 0.1399(8) -1.5209(8) 0.2199(6)
N5A N 0.0644(8) -1.5341(8) 0.1778(6)
N6A N 0.2216(7) -1.6505(7) 0.1717(5)
N7A N 0.3484(7) -1.6922(8) 1.0369(5)
N7_2 N -0.3484(7) -0.3078(8) 0.9631(5)
N7A_2 N 0.3484(7) -1.6922(8) 0.0369(5)
N8A N 0.4122(12) -1.6345(18) 0.9262(9)
N9A N 0.3106(10) -1.6139(10) 0.9245(6)
N10A N 0.0711(8) -1.2277(7) 0.6957(5)
N11A N -0.0119(9) -1.2619(7) 0.6771(5)
N12A N 0.0214(7) -1.1245(6) 0.5926(5)
N13A N -0.0645(8) -1.0904(6) 0.4485(4)
N14A N -0.1819(10) -1.1478(10) 0.3992(8)
N15A N -0.0830(10) -1.2089(9) 0.3961(7)
C1A C -0.058(2) -1.2806(18) 0.3408(14)
H1A H -0.1245 -1.2928 0.3286
H2A H -0.0283 -1.2448 0.2968
C2A C 0.0897(10) -1.1473(8) 0.6462(6)
H3A H 0.1419 -1.1123 0.6482
C3A C 0.011(2) -1.3757(18) 0.3673(14)
H4A H -0.0168 -1.4094 0.4130
H5A H 0.0787 -1.3637 0.3766
C4A C -0.550(2) 0.0304(15) 0.4697(10)
H6A H -0.6177 0.0199 0.4908
H7A H -0.5550 0.1056 0.4554
C5A C -0.5238(19) -0.0139(16) 0.4122(11)
H8A H -0.5273 -0.0870 0.4247
H9A H -0.4525 -0.0106 0.3941
C6A C 0.0302(15) -1.4498(15) 0.3147(11)
H10A H 0.0497 -1.5222 0.3423
H11A H -0.0360 -1.4398 0.2908
C7A C 0.1780(10) -1.3938(9) 0.7696(6)
H12A H 0.2304 -1.4014 0.7306
H13A H 0.1244 -1.4295 0.7640
C8A C 0.1202(11) -1.6107(9) 0.1489(6)
H14A H 0.0923 -1.6359 0.1151
C9A C 0.1122(14) -1.4341(13) 0.2601(10)
H15A H 0.1753 -1.4319 0.2829
H16A H 0.0874 -1.3670 0.2263
C10A C -0.1663(10) -1.0780(10) 0.4319(7)
H17A H -0.2215 -1.0238 0.4429
C11A C 0.2754(11) -1.6508(9) 0.9888(6)
H18A H 0.2037 -1.6478 0.9993
C12A C 0.1269(12) -1.2799(9) 0.7644(6)
H19A H 0.0762 -1.2726 0.8044
H20A H 0.1811 -1.2444 0.7690
C13A C 0.2279(12) -1.5900(11) 0.2152(8)
H21A H 0.2891 -1.5964 0.2398
C14A C -0.7325(13) 0.1090(12) 0.2883(6)
H22A H -0.8004 0.1241 0.2699
C15A C 0.2323(11) -1.4455(10) 0.8421(7)
H23A H 0.2984 -1.4249 0.8419
H24A H 0.1865 -1.4207 0.8806
C16A C -0.5684(13) 0.1058(12) 0.2946(8)
H25A H -0.4991 0.1128 0.2844
C17A C 0.2550(13) -1.5616(11) 0.8564(7)
H26A H 0.1885 -1.5819 0.8580
H27A H 0.2984 -1.5858 0.8168
C18A C -0.0136(10) -1.1727(9) 0.4234(7)
H28A H 0.0598 -1.2012 0.4245
C19A C 0.4350(14) -1.689(2) 0.9952(10)
H29A H 0.5040 -1.7204 1.0116
C20A C -0.0356(10) -1.1962(8) 0.6150(6)
H30A H -0.0901 -1.1989 0.5873
O45A O 0.4727(7) -1.8874(7) 0.1232(5)
O46A O 0.4597(6) -1.6908(7) 0.1672(5)
O47A O -0.1544(6) -0.9419(6) 0.5414(4)
O48 O 0.5344(16) 0.080(2) 0.9856(12)
O49 O 0.577(3) 0.4898(16) 0.9204(10)
O50 O 0.4888(17) 0.9105(15) 0.1995(13)
O51 O 0.6702(14) 0.9862(14) 0.2750(9)
P1 P 0.5000 0.5000 0.5000
Mo7 Mo 0.33059(8) 0.36248(7) 0.44641(6)
Mo8 Mo 0.38131(9) 0.32953(8) 0.63300(5)
Mo9 Mo 0.48076(8) 0.50471(8) 0.31304(5)
Mo10 Mo 0.22079(7) 0.57207(7) 0.53647(5)
Mo11 Mo 0.33647(7) 0.72247(7) 0.38444(5)
Mo12 Mo 0.38699(7) 0.72905(6) 0.56636(5)
O1 O 0.3956(9) 0.4633(9) 0.5209(7)
O2 O 0.4848(10) 0.5726(9) 0.4242(7)
O3 O 0.5083(10) 0.5666(9) 0.5516(7)
O4 O 0.5938(9) 0.4117(8) 0.5027(7)
O5 O 0.4263(7) 0.4158(8) 0.6918(7)
O6 O 0.3503(10) 0.2973(7) 0.5512(5)
O7 O 0.5257(6) 0.7343(8) 0.5567(5)
O8 O 0.4250(6) 0.6238(8) 0.6572(6)
O9 O 0.3709(7) 0.6289(8) 0.3268(7)
O10 O 0.2649(10) 0.4572(7) 0.6095(5)
O11 O 0.4819(8) 0.7458(9) 0.3620(6)
O12 O 0.3666(7) 0.4358(8) 0.3590(6)
O13 O 0.0897(6) 0.6055(9) 0.5469(5)
O14 O 0.3288(8) 0.8347(6) 0.5989(5)
O15 O 0.2666(7) 0.6631(8) 0.5767(4)
O16 O 0.2335(9) 0.4699(7) 0.4738(5)
O17 O 0.2376(7) 0.6642(7) 0.4409(4)
O18 O 0.3259(7) 0.2543(7) 0.6980(5)
O19 O 0.3540(8) 0.7766(7) 0.4706(4)
O20 O 0.2568(7) 0.2921(6) 0.4247(5)
O21 O 0.4631(7) 0.5080(7) 0.2271(4)
O22 O 0.2614(8) 0.8301(6) 0.3341(5)
Mo7A Mo 0.66941(8) 0.63752(7) 0.55359(6)
Mo8A Mo 0.61869(9) 0.67047(8) 0.36700(5)
Mo9A Mo 0.51924(8) 0.49529(8) 0.68696(5)
Mo10A Mo 0.77921(7) 0.42793(7) 0.46353(5)
Mo11A Mo 0.66353(7) 0.27753(7) 0.61556(5)
Mo12A Mo 0.61301(7) 0.27095(6) 0.43364(5)
O1A O 0.6044(9) 0.5367(9) 0.4791(7)
O2A O 0.5152(10) 0.4274(9) 0.5758(7)
O3A O 0.4917(10) 0.4334(9) 0.4484(7)
O4A O 0.4062(9) 0.5883(8) 0.4973(7)
O5A O 0.5737(7) 0.5842(8) 0.3082(7)
O6A O 0.6497(10) 0.7027(7) 0.4488(5)
O7A O 0.4743(6) 0.2657(8) 0.4433(5)
O8A O 0.5750(6) 0.3762(8) 0.3428(6)
O9A O 0.6291(7) 0.3711(8) 0.6732(7)
O10A O 0.7351(10) 0.5428(7) 0.3905(5)
O11A O 0.5181(8) 0.2542(9) 0.6380(6)
O12A O 0.6334(7) 0.5642(8) 0.6410(6)
O13A O 0.9103(6) 0.3945(9) 0.4531(5)
O14A O 0.6712(8) 0.1653(6) 0.4011(5)
O15A O 0.7334(7) 0.3369(8) 0.4233(4)
O16A O 0.7665(9) 0.5301(7) 0.5262(5)
O17A O 0.7624(7) 0.3358(7) 0.5591(4)
O18A O 0.6741(7) 0.7457(7) 0.3020(5)
O19A O 0.6460(8) 0.2234(7) 0.5294(4)
O20A O 0.7432(7) 0.7079(6) 0.5753(5)
O21A O 0.5369(7) 0.4920(7) 0.7729(4)
O22A O 0.7386(8) 0.1699(6) 0.6659(5)
loop_
_geom_bond_atom_site_label_1
_geom_bond_atom_site_label_2
_geom_bond_site_symmetry_1
_geom_bond_site_symmetry_2
P1 O1 1_555 1_555
Ni1 O39 1_555 1_555
Ni2 N12 1_555 1_555
Mo1 O26 1_555 1_555
Mo2 O23 1_555 1_555
Mo3 O26 1_555 1_555
Mo4 O23 1_555 1_555
Mo5 O24 1_555 1_555
Mo6 O24 1_555 1_555
Mo7 O1 1_555 1_555
Mo8 O1 1_555 1_555
Mo9 O2 1_555 1_555
Mo10 O1 1_555 1_555
Mo11 O2 1_555 1_555
Mo12 O3 1_555 1_555
O1 O2A 1_555 1_555
O2 P1 1_555 1_555
O3 P1 1_555 1_555
O4 P1 1_555 1_555
O5 Mo8 1_555 1_555
O6 Mo7 1_555 1_555
O7 Mo12 1_555 1_555
O8 Mo12 1_555 1_555
O9 Mo9 1_555 1_555
O10 Mo8 1_555 1_555
O11 Mo11 1_555 1_555
O12 Mo7 1_555 1_555
O13 Mo10 1_555 1_555
O14 Mo12 1_555 1_555
O15 Mo10 1_555 1_555
O16 Mo7 1_555 1_555
O17 Mo10 1_555 1_555
O18 Mo8 1_555 1_555
O19 Mo11 1_555 1_555
O20 Mo7 1_555 1_555
O21 Mo9 1_555 1_555
O22 Mo11 1_555 1_555
O23 O24 1_555 1_555
O24 Mo4 1_555 1_555
O25 Mo2 1_555 1_555
O26 Mo5 1_555 1_555
O27 Mo1 1_555 1_555
O28 Mo1 1_555 1_555
O29 Mo2 1_555 1_555
O30 Mo2 1_555 1_555
O31 Mo4 1_555 1_555
O32 Mo2 1_555 1_555
O33 Mo3 1_555 1_555
O34 Mo3 1_555 1_555
O35 Mo5 1_555 1_555
O36 Mo2 1_555 1_555
O37 Mo3 1_555 1_555
O38 Mo4 1_555 1_555
O39 Mo5 1_555 1_555
O40 Mo6 1_555 1_555
O41 Mo1 1_555 1_555
O42 Mo4 1_555 1_555
O43 Mo1 1_555 1_555
O44 Mo1 1_555 1_555
N1 N2 1_555 1_555
N2 C14 1_555 1_555
N3 Ni1 1_555 1_555
N4 N5 1_555 1_555
N5 C8 1_555 1_555
N6 Ni1 1_555 1_555
N7 C11 1_555 1_555
N8 N9 1_555 1_555
N9 C11 1_555 1_555
N10 N11 1_555 1_555
N11 C20 1_555 1_555
N12 C2 1_555 1_555
N13 Ni2 1_555 1_555
N14 N15 1_555 1_555
N15 C1 1_555 1_555
C1 H1 1_555 1_555
H2 C1 1_555 1_555
C2 N10 1_555 1_555
H3 C2 1_555 1_555
C3 C1 1_555 1_555
H4 C3 1_555 1_555
H5 C3 1_555 1_555
C4 H6 1_555 1_555
H7 C4 1_555 1_555
C5 N1 1_555 1_555
H8 C5 1_555 1_555
H9 C5 1_555 1_555
C6 C3 1_555 1_555
H10 C6 1_555 1_555
H11 C6 1_555 1_555
C7 H12 1_555 1_555
H13 C7 1_555 1_555
C8 N6 1_555 1_555
H14 C8 1_555 1_555
C9 N4 1_555 1_555
H15 C9 1_555 1_555
H16 C9 1_555 1_555
C10 N13 1_555 1_555
H17 C10 1_555 1_555
C11 H18 1_555 1_555
C12 N10 1_555 1_555
H19 C12 1_555 1_555
H20 C12 1_555 1_555
C13 N4 1_555 1_555
H21 C13 1_555 1_555
C14 N3 1_555 1_555
H22 C14 1_555 1_555
C15 C7 1_555 1_555
H23 C15 1_555 1_555
H24 C15 1_555 1_555
C16 N1 1_555 1_555
H25 C16 1_555 1_555
C17 N9 1_555 1_555
H26 C17 1_555 1_555
H27 C17 1_555 1_555
C18 N13 1_555 1_555
H28 C18 1_555 1_555
C19 N7 1_555 1_555
H29 C19 1_555 1_555
C20 N12 1_555 1_555
H30 C20 1_555 1_555
P2 O23 1_555 1_555
O45 Ni1 1_555 1_555
O46 Ni1 1_555 1_555
O47 Ni2 1_555 1_555
Ni1A O39A 1_555 1_555
Ni1_2 N7 1_555 1_555
Ni1A_2 N3A 1_555 1_555
Ni1A_3 N7A 1_555 1_555
Ni1A_4 O39A_2 1_555 1_555
Mo1A O26A 1_555 1_555
Mo1A_2 O26A_2 1_555 1_555
Mo2A O23A 1_555 1_555
Mo3A O29 1_555 1_555
Mo3A_2 O26A_2 1_555 1_555
Mo4A O37 1_555 1_555
Mo4A_2 O24A_2 1_555 1_555
Mo5A O24A_2 1_555 1_555
Mo5A_2 O24A 1_555 1_555
Mo6A O25 1_555 1_555
Mo6A_2 O24A_2 1_555 1_555
Mo7A O3 1_555 1_555
Mo8A O2 1_555 1_555
Mo9A O3 1_555 1_555
Mo10A O4 1_555 1_555
Mo11A O4 1_555 1_555
Mo12A O4 1_555 1_555
O1A P1 1_555 1_555
O2A P1 1_555 1_555
O3A P1 1_555 1_555
O4A P1 1_555 1_555
O5A Mo9 1_555 1_555
O6A Mo7A 1_555 1_555
O7A Mo7 1_555 1_555
O8A Mo9 1_555 1_555
O9A Mo9A 1_555 1_555
O10A Mo8A 1_555 1_555
O11A Mo8 1_555 1_555
O12A Mo7A 1_555 1_555
O13A Mo10A 1_555 1_555
O14A Mo12A 1_555 1_555
O15A Mo10A 1_555 1_555
O16A Mo7A 1_555 1_555
O17A Mo10A 1_555 1_555
O18A Mo8A 1_555 1_555
O19A Mo11A 1_555 1_555
O20A Mo7A 1_555 1_555
O21A Mo9A 1_555 1_555
O22A Mo11A 1_555 1_555
O23A P2 1_555 1_555
O24A O25 1_555 1_555
O24A_2 O26A_2 1_555 1_555
O25A Mo6 1_555 1_555
O26A P2 1_555 1_555
O26A_2 Mo5A 1_555 1_555
O27A Mo1A 1_555 1_555
O28A Mo1A_2 1_555 1_555
O28A_2 Mo1A 1_555 1_555
O29A Mo3 1_555 1_555
O30A Mo2A 1_555 1_555
O31A Mo4A 1_555 1_555
O32A Mo2A 1_555 1_555
O33A Mo3A_2 1_555 1_555
O33A_2 Mo3A 1_555 1_555
O34A Mo3A 1_555 1_555
O35A Mo5A 1_555 1_555
O35A_2 Mo5A_2 1_555 1_555
O36A Mo6 1_555 1_555
O37A Mo4 1_555 1_555
O38A Mo4A_2 1_555 1_555
O38A_2 Mo4A 1_555 1_555
O39A Mo5A 1_555 1_555
O39A_2 Mo5A_2 1_555 1_555
O40A Mo6A 1_555 1_555
O41A Mo6 1_555 1_555
O42A Mo4A 1_555 1_555
O43A Mo1A 1_555 1_555
O44A Mo1A 1_555 1_555
N1A N2A 1_555 1_555
N2A C14A 1_555 1_555
N3A C14A 1_555 1_555
N3A_2 Ni1A 1_555 1_555
N4A N5A 1_555 1_555
N5A C8A 1_555 1_555
N6A Ni1A 1_555 1_555
N7A C11A 1_555 1_555
N7_2 Ni1 1_555 1_555
N7A_2 Ni1A 1_555 1_555
N8A N9A 1_555 1_555
N9A C11A 1_555 1_555
N10A N11A 1_555 1_555
N11A C20A 1_555 1_555
N12A Ni2 1_555 1_555
N13A Ni2 1_555 1_555
N14A N15A 1_555 1_555
N15A C1A 1_555 1_555
C1A H1A 1_555 1_555
H2A C1A 1_555 1_555
C2A N10A 1_555 1_555
H3A C2A 1_555 1_555
C3A C1A 1_555 1_555
H4A C3A 1_555 1_555
H5A C3A 1_555 1_555
C4A C4 1_555 1_555
H6A C4A 1_555 1_555
H7A C4A 1_555 1_555
C5A N1A 1_555 1_555
H8A C5A 1_555 1_555
H9A C5A 1_555 1_555
C6A C3A 1_555 1_555
H10A C6A 1_555 1_555
H11A C6A 1_555 1_555
C7A H12A 1_555 1_555
H13A C7A 1_555 1_555
C8A N6A 1_555 1_555
H14A C8A 1_555 1_555
C9A N4A 1_555 1_555
H15A C9A 1_555 1_555
H16A C9A 1_555 1_555
C10A N13A 1_555 1_555
H17A C10A 1_555 1_555
C11A H18A 1_555 1_555
C12A N10A 1_555 1_555
H19A C12A 1_555 1_555
H20A C12A 1_555 1_555
C13A N4A 1_555 1_555
H21A C13A 1_555 1_555
C14A H22A 1_555 1_555
C15A C7A 1_555 1_555
H23A C15A 1_555 1_555
H24A C15A 1_555 1_555
C16A N1A 1_555 1_555
H25A C16A 1_555 1_555
C17A N9A 1_555 1_555
H26A C17A 1_555 1_555
H27A C17A 1_555 1_555
C18A N13A 1_555 1_555
H28A C18A 1_555 1_555
C19A N7A 1_555 1_555
H29A C19A 1_555 1_555
C20A N12A 1_555 1_555
H30A C20A 1_555 1_555
O45A Ni1A 1_555 1_555
O46A Ni1A 1_555 1_555
O47A Ni2 1_555 1_555
Mo2 O44 1_555 1_555
Mo3 O27 1_555 1_555
Mo4 O30 1_555 1_555
Mo5 O28 1_555 1_555
Mo5 O33 1_555 1_555
Mo5 O38 1_555 1_555
Mo6 O35 1_555 1_555
Mo6 O42 1_555 1_555
Mo7 O3A 1_555 1_555
Mo8 O6 1_555 1_555
Mo8 O2A 1_555 1_555
Mo9 O12 1_555 1_555
Mo9 O3A 1_555 1_555
Mo10 O10 1_555 1_555
Mo10 O16 1_555 1_555
Mo10 O4A 1_555 1_555
Mo11 O9 1_555 1_555
Mo11 O17 1_555 1_555
Mo11 O4A 1_555 1_555
Mo12 O15 1_555 1_555
Mo12 O19 1_555 1_555
Mo12 O4A 1_555 1_555
O1 O3A 1_555 1_555
O1 O4A 1_555 1_555
O2 O1A 1_555 1_555
O2 O3A 1_555 1_555
O2 O4A 1_555 1_555
O3 O1A 1_555 1_555
O3 O2A 1_555 1_555
O3 O4A 1_555 1_555
O4 O1A 1_555 1_555
O4 O2A 1_555 1_555
O4 O3A 1_555 1_555
O5 Mo9A 1_555 1_555
O7 Mo7A 1_555 1_555
O8 Mo9A 1_555 1_555
O11 Mo8A 1_555 1_555
O23 O25 1_555 1_555
O24 O26 1_555 1_555
O24 P2 1_555 1_555
O24 O25A 1_555 1_555
O25 P2 1_555 1_555
O26 P2 1_555 1_555
O36 Mo6A 1_555 1_555
O41 Mo6A 1_555 1_555
N3 C16 1_555 1_555
N6 C13 1_555 1_555
N8 C19 1_555 1_555
N14 C10 1_555 1_555
N15 C18 1_555 1_555
C4 C5 1_555 1_555
C6 C9 1_555 1_555
C7 C12 1_555 1_555
C15 C17 1_555 1_555
P2 O24A 1_555 1_555
P2 O25A 1_555 1_555
Mo1A O41A 1_555 1_555
Mo2A O25A 1_555 1_555
Mo2A O29A 1_555 1_555
Mo2A O36A 1_555 1_555
Mo2A O44A 1_555 1_555
Mo3A O26A 1_555 1_555
Mo3A O27A 1_555 1_555
Mo3A O37A 1_555 1_555
Mo4A O23A 1_555 1_555
Mo4A O24A 1_555 1_555
Mo4A O30A 1_555 1_555
Mo5A O28A 1_555 1_555
Mo5A O33A 1_555 1_555
Mo5A O38A 1_555 1_555
Mo5A_2 O26A 1_555 1_555
Mo5A_2 O28A_2 1_555 1_555
Mo5A_2 O33A_2 1_555 1_555
Mo5A_2 O38A_2 1_555 1_555
Mo6A O24A 1_555 1_555
Mo6A O35A_2 1_555 1_555
Mo6A O42A 1_555 1_555
Mo6A_2 O35A 1_555 1_555
Mo7A O1A 1_555 1_555
Mo8A O1A 1_555 1_555
Mo8A O5A 1_555 1_555
Mo8A O6A 1_555 1_555
Mo9A O2A 1_555 1_555
Mo9A O12A 1_555 1_555
Mo10A O1A 1_555 1_555
Mo10A O10A 1_555 1_555
Mo10A O16A 1_555 1_555
Mo11A O2A 1_555 1_555
Mo11A O9A 1_555 1_555
Mo11A O11A 1_555 1_555
Mo11A O17A 1_555 1_555
Mo12A O3A 1_555 1_555
Mo12A O7A 1_555 1_555
Mo12A O8A 1_555 1_555
Mo12A O15A 1_555 1_555
Mo12A O19A 1_555 1_555
O23A O24A 1_555 1_555
O23A O25A 1_555 1_555
O24A O26A 1_555 1_555
N3A C16A 1_555 1_555
N6A C13A 1_555 1_555
N8A C19A 1_555 1_555
N12A C2A 1_555 1_555
N14A C10A 1_555 1_555
N15A C18A 1_555 1_555
C4A C5A 1_555 1_555
C6A C9A 1_555 1_555
C7A C12A 1_555 1_555
C15A C17A 1_555 1_555

#END
