
#######################################################################
#
#                 Cambridge Crystallographic Data Centre
#                                CCDC 
#
#######################################################################
#
# If this CIF has been generated from an entry in the Cambridge 
# Structural Database, then it will include bibliographic, chemical, 
# crystal, experimental, refinement or atomic coordinate data resulting 
# from the CCDC's data processing and validation procedures.
#
#######################################################################

data_TASVUG
_chemical_formula_moiety         '(C26 H15 Cl12 O9 Tb1)n'
_symmetry_cell_setting           orthorhombic
_symmetry_space_group_name_H-M   'P n n a'
_symmetry_Int_Tables_number      52
_space_group_name_Hall           '-P 2a 2bc'
loop_
_symmetry_equiv_pos_site_id
_symmetry_equiv_pos_as_xyz
1 x,y,z
2 1/2-x,-y,z
3 1/2-x,1/2+y,1/2-z
4 x,1/2-y,1/2-z
5 -x,-y,-z
6 1/2+x,y,-z
7 1/2+x,1/2-y,1/2+z
8 -x,1/2+y,1/2+z
_cell_length_a                   25.73(2)
_cell_length_b                   26.94(3)
_cell_length_c                   15.188(13)
_cell_angle_alpha                90
_cell_angle_beta                 90
_cell_angle_gamma                90
_cell_volume                     10527.8
loop_
_atom_site_label
_atom_site_type_symbol
_atom_site_fract_x
_atom_site_fract_y
_atom_site_fract_z
_atom_site_U_iso_or_equiv
_atom_site_thermal_displace_type
Tb1 Tb 0.60286(2) 0.183664(19) 0.64990(5) 0.0569 Uani
Cl1 Cl 0.36142(19) 0.37582(13) 0.2030(4) 0.1156 Uani
O1 O 0.4742(5) 0.5577(4) 0.1423(10) 0.1257 Uani
C1 C 0.3777(6) 0.3882(7) 0.4112(13) 0.1137 Uani
H1 H 0.3637 0.4102 0.4567 0.1370 Uiso
Cl2 Cl 0.3857(2) 0.47088(18) 0.0852(4) 0.1233 Uani
C2 C 0.3910(5) 0.4288(5) 0.3496(12) 0.0773 Uani
Cl3 Cl 0.45454(15) 0.56709(12) 0.3845(3) 0.0952 Uani
C3 C 0.3838(5) 0.4296(4) 0.2565(13) 0.0873 Uani
Cl4 Cl 0.42174(18) 0.47808(16) 0.5058(3) 0.1063 Uani
C4 C 0.3967(5) 0.4712(5) 0.2044(12) 0.0857 Uani
O2 O 0.5496(3) 0.2532(3) 0.6366(6) 0.0757 Uani
Cl5 Cl 0.4883(2) 0.3640(2) 0.3321(3) 0.1190 Uani
O3 O 0.1618(3) 0.2509(3) 0.3945(6) 0.0693 Uani
C5 C 0.4179(5) 0.5140(4) 0.2392(10) 0.0650 Uani
C6 C 0.4248(5) 0.5154(4) 0.3321(11) 0.0717 Uani
O4 O 0.4005(3) 0.5957(3) 0.1815(6) 0.0673 Uani
Cl6 Cl 0.57008(15) 0.32190(16) 0.4667(3) 0.0993 Uani
Cl7 Cl 0.42901(17) 0.31706(18) 0.7336(4) 0.1137 Uani
O5 O 0.1589(4) 0.3059(4) 0.2741(7) 0.0893 Uani
C7 C 0.4133(5) 0.4733(5) 0.3898(11) 0.0790 Uani
Cl8 Cl 0.34751(14) 0.36484(17) 0.6067(4) 0.1209 Uani
O6 O 0.5495(3) 0.3231(3) 0.7201(7) 0.0713 Uani
C8 C 0.4318(6) 0.5598(4) 0.1841(11) 0.0773 Uani
Cl9 Cl 0.28227(18) 0.44839(12) 0.4289(4) 0.1235 Uani
C9 C 0.4197(5) 0.3633(4) 0.4738(12) 0.0760 Uani
O7 O 0.5254(4) 0.1518(3) 0.5784(8) 0.1017 Uani
H2 H 0.5204 0.1192 0.5890 0.1530 Uiso
Cl10 Cl 0.17724(16) 0.39666(15) 0.3979(4) 0.1190 Uani
C10 C 0.4714(5) 0.3516(5) 0.4428(10) 0.0750 Uani
O8 O 0.6075(6) 0.1906(6) 0.4868(12) 0.1550 Uani
H3 H 0.6342 0.1765 0.4577 0.1860 Uiso
H4 H 0.5829 0.2072 0.4569 0.1860 Uiso
Cl11 Cl 0.27399(15) 0.21840(13) 0.3548(3) 0.0993 Uani
C11 C 0.5072(5) 0.3307(4) 0.5031(10) 0.0640 Uani
O9 O 0.6797(6) 0.1413(5) 0.5867(13) 0.1800 Uani
H5 H 0.6944 0.1596 0.5437 0.2700 Uiso
Cl12 Cl 0.37941(14) 0.26894(16) 0.3763(3) 0.1016 Uani
C12 C 0.4960(4) 0.3199(3) 0.5919(10) 0.0583 Uani
C13 C 0.4448(5) 0.3293(4) 0.6221(9) 0.0617 Uani
C14 C 0.4081(5) 0.3515(4) 0.5604(12) 0.0763 Uani
C15 C 0.5353(4) 0.2966(4) 0.6554(9) 0.0557 Uani
C16 C 0.3278(5) 0.3573(4) 0.4023(12) 0.0843 Uani
C17 C 0.2815(5) 0.3855(4) 0.4039(11) 0.0817 Uani
C18 C 0.2331(5) 0.3623(4) 0.3951(11) 0.0803 Uani
C19 C 0.2298(5) 0.3112(4) 0.3689(10) 0.0703 Uani
C20 C 0.2757(5) 0.2834(5) 0.3779(11) 0.0820 Uani
C21 C 0.3244(5) 0.3058(5) 0.3859(11) 0.0733 Uani
C22 C 0.1789(4) 0.2860(5) 0.3481(10) 0.0663 Uani
C23 C 0.4880(9) 0.1725(8) 0.5192(17) 0.2130 Uani
H6 H 0.4948 0.2079 0.5152 0.2570 Uiso
H7 H 0.4540 0.1686 0.5459 0.2570 Uiso
C24 C 0.4849(19) 0.1520(19) 0.425(2) 0.4467 Uani
H8 H 0.4577 0.1689 0.3932 0.6680 Uiso
H9 H 0.4774 0.1171 0.4266 0.6680 Uiso
H10 H 0.5174 0.1573 0.3954 0.6680 Uiso
C25 C 0.7064(12) 0.0950(8) 0.593(5) 0.4433 Uani
H11 H 0.7414 0.1084 0.5943 0.5320 Uiso
H12 H 0.7017 0.0847 0.5328 0.5320 Uiso
C26 C 0.720(3) 0.0434(15) 0.631(4) 0.6467 Uani
H13 H 0.7568 0.0410 0.6392 0.9760 Uiso
H14 H 0.7086 0.0182 0.5905 0.9760 Uiso
H15 H 0.7026 0.0390 0.6864 0.9760 Uiso
Tb1E Tb 0.10286(2) 0.183664(19) 0.35010(5) 0.0569 Uani
Tb1G Tb 0.39714(2) 0.683664(19) 0.14990(5) 0.0569 Uani
Tb1F Tb 0.10286(2) 0.316336(19) 0.14990(5) 0.0569 Uani
Tb1C Tb 0.60286(2) 0.316336(19) 0.85010(5) 0.0569 Uani
O3E O 0.6618(3) 0.2509(3) 0.6055(6) 0.0693 Uani
O4G O 0.5995(3) 0.0957(3) 0.6815(6) 0.0673 Uani
O5F O 0.6589(4) 0.1941(4) 0.7741(7) 0.0893 Uani
O6C O 0.5495(3) 0.1769(3) 0.7799(7) 0.0713 Uani
loop_
_atom_site_aniso_label
_atom_site_aniso_U_11
_atom_site_aniso_U_22
_atom_site_aniso_U_33
_atom_site_aniso_U_23
_atom_site_aniso_U_13
_atom_site_aniso_U_12
Tb1 0.0394(3) 0.0385(3) 0.0929(5) 0.0118(3) -0.0024(3) -0.0005(2)
Cl1 0.111(3) 0.0447(17) 0.191(5) -0.002(2) -0.027(3) -0.0152(19)
O1 0.102(9) 0.059(6) 0.216(14) 0.036(7) 0.058(9) 0.016(6)
C1 0.073(3) 0.130(4) 0.138(4) 0.038(3) 0.018(3) 0.017(2)
Cl2 0.162(5) 0.084(3) 0.124(4) 0.002(3) -0.016(3) 0.003(3)
C2 0.043(7) 0.057(7) 0.132(13) 0.037(8) -0.019(8) -0.006(5)
Cl3 0.086(3) 0.0487(17) 0.151(4) 0.0107(19) -0.031(2) -0.0178(17)
C3 0.066(8) 0.034(6) 0.162(16) 0.026(7) -0.054(9) -0.009(5)
Cl4 0.093(3) 0.093(3) 0.133(4) 0.038(3) -0.036(3) -0.014(2)
C4 0.076(9) 0.054(7) 0.127(14) 0.016(8) -0.026(9) 0.010(7)
O2 0.052(5) 0.049(4) 0.126(8) 0.016(5) -0.002(5) 0.007(4)
Cl5 0.123(4) 0.125(4) 0.109(4) 0.042(3) -0.018(3) -0.011(3)
O3 0.049 0.06 0.099 0 0.001 -0.018
C5 0.057(7) 0.051(7) 0.087(10) 0.017(6) -0.006(7) 0.008(6)
C6 0.042(6) 0.023(5) 0.150(14) 0.009(6) -0.007(8) -0.004(4)
O4 0.056 0.047 0.099 0.01 -0.001 -0.007
Cl6 0.059(2) 0.106(3) 0.133(4) 0.027(2) 0.016(2) 0.0168(19)
Cl7 0.073(3) 0.130(4) 0.138(4) 0.038(3) 0.018(3) 0.017(2)
O5 0.049 0.114 0.105 -0.023 -0.027 0.01
C7 0.051(7) 0.060(8) 0.126(13) 0.026(8) -0.024(8) -0.017(6)
Cl8 0.0448(19) 0.103(3) 0.215(5) 0.007(3) -0.001(3) 0.020(2)
O6 0.052 0.056 0.106 0.028 -0.014 -0.002
C8 0.059(8) 0.044(6) 0.129(12) 0.013(7) 0.008(8) 0.004(6)
Cl9 0.107(3) 0.0414(16) 0.222(6) -0.005(2) -0.068(3) -0.0096(18)
C9 0.048(7) 0.042(6) 0.138(14) 0.035(7) -0.025(8) -0.007(5)
O7 0.079(6) 0.055(5) 0.171(10) 0.023(6) -0.051(7) -0.014(5)
Cl10 0.066(2) 0.078(2) 0.213(5) -0.047(3) -0.024(3) 0.0186(19)
C10 0.061(8) 0.058(7) 0.106(11) 0.025(7) -0.014(8) -0.013(6)
O8 0.127(13) 0.193(17) 0.145(14) -0.036(11) 0.015(9) -0.032(10)
Cl11 0.068(2) 0.0478(17) 0.182(4) -0.018(2) -0.009(2) 0.0036(15)
C11 0.046(7) 0.052(6) 0.094(11) 0.016(6) -0.002(7) -0.005(5)
O9 0.128(12) 0.092(8) 0.32(2) -0.033(11) 0.113(14) -0.028(8)
Cl12 0.0469(17) 0.089(3) 0.169(4) 0.003(3) -0.012(2) 0.0132(18)
C12 0.038(6) 0.032(5) 0.105(11) 0.015(5) -0.016(6) 0.002(4)
C13 0.045(7) 0.055(6) 0.085(9) 0.017(6) -0.007(6) 0.003(5)
C14 0.043(7) 0.044(6) 0.142(15) 0.007(8) -0.020(8) -0.001(5)
C15 0.046(6) 0.038(5) 0.083(9) 0.003(6) -0.005(6) 0.002(5)
C16 0.048(7) 0.042(6) 0.163(14) 0.020(7) -0.052(9) -0.014(5)
C17 0.065(8) 0.044(6) 0.136(13) -0.018(7) -0.049(9) 0.000(6)
C18 0.054(7) 0.040(6) 0.147(13) -0.003(7) -0.031(8) 0.007(5)
C19 0.052(7) 0.050(7) 0.109(12) 0.003(7) -0.009(7) -0.002(5)
C20 0.060(8) 0.043(6) 0.143(14) -0.001(7) -0.007(8) -0.005(6)
C21 0.042(7) 0.054(7) 0.124(12) 0.012(7) -0.001(7) -0.003(5)
C22 0.033(6) 0.068(8) 0.098(11) -0.032(8) -0.005(7) 0.006(5)
C23 0.21(3) 0.139(19) 0.29(3) 0.078(19) -0.18(2) -0.041(18)
C24 0.52(6) 0.43(6) 0.39(4) -0.08(4) -0.39(5) 0.10(5)
C25 0.16(3) 0.12(2) 1.05(13) 0.03(4) 0.12(5) 0.004(18)
C26 0.9(2) 0.25(6) 0.79(16) -0.07(6) -0.17(12) 0.32(9)
Tb1E 0.0394 0.0385 0.0929 -0.0118 0.0024 -0.0005
Tb1G 0.0394 0.0385 0.0929 0.0118 0.0024 0.0005
Tb1F 0.0394 0.0385 0.0929 -0.0118 -0.0024 0.0005
Tb1C 0.0394 0.0385 0.0929 0.0118 0.0024 0.0005
O3E 0.049 0.06 0.099 0 -0.001 -0.018
O4G 0.056 0.047 0.099 0.01 0.001 0.007
O5F 0.049 0.114 0.105 0.023 -0.027 -0.01
O6C 0.052 0.056 0.106 0.028 0.014 0.002
loop_
_geom_bond_atom_site_label_1
_geom_bond_atom_site_label_2
_geom_bond_site_symmetry_1
_geom_bond_site_symmetry_2
Tb1 O2 1_555 1_555
Cl1 C3 1_555 1_555
O1 C8 1_555 1_555
C1 H1 1_555 1_555
Cl2 C4 1_555 1_555
C2 C1 1_555 1_555
Cl3 C6 1_555 1_555
C3 C2 1_555 1_555
Cl4 C7 1_555 1_555
C4 C3 1_555 1_555
O2 C15 1_555 1_555
Cl5 C10 1_555 1_555
O3 C22 1_555 1_555
C5 C4 1_555 1_555
C6 C5 1_555 1_555
O4 C8 1_555 1_555
Cl6 C11 1_555 1_555
Cl7 C13 1_555 1_555
O5 C22 1_555 1_555
C7 C2 1_555 1_555
Cl8 C14 1_555 1_555
O6 C15 1_555 1_555
C8 C5 1_555 1_555
Cl9 C17 1_555 1_555
C9 C1 1_555 1_555
O7 Tb1 1_555 1_555
H2 O7 1_555 1_555
Cl10 C18 1_555 1_555
C10 C9 1_555 1_555
O8 Tb1 1_555 1_555
H3 O8 1_555 1_555
H4 O8 1_555 1_555
Cl11 C20 1_555 1_555
C11 C10 1_555 1_555
O9 Tb1 1_555 1_555
H5 O9 1_555 1_555
Cl12 C21 1_555 1_555
C12 C11 1_555 1_555
C13 C12 1_555 1_555
C14 C9 1_555 1_555
C15 C12 1_555 1_555
C16 C1 1_555 1_555
C17 C16 1_555 1_555
C18 C17 1_555 1_555
C19 C18 1_555 1_555
C20 C19 1_555 1_555
C21 C16 1_555 1_555
C22 C19 1_555 1_555
C23 O7 1_555 1_555
H6 C23 1_555 1_555
H7 C23 1_555 1_555
C24 C23 1_555 1_555
H8 C24 1_555 1_555
H9 C24 1_555 1_555
H10 C24 1_555 1_555
C25 O9 1_555 1_555
H11 C25 1_555 1_555
H12 C25 1_555 1_555
C26 C25 1_555 1_555
H13 C26 1_555 1_555
H14 C26 1_555 1_555
H15 C26 1_555 1_555
Tb1E O3 1_555 1_555
Tb1G O4 1_555 1_555
Tb1F O5 1_555 1_555
Tb1C O6 1_555 1_555
O3E Tb1 1_555 1_555
O4G Tb1 1_555 1_555
O5F Tb1 1_555 1_555
O6C Tb1 1_555 1_555
C6 C7 1_555 1_555
C13 C14 1_555 1_555
C20 C21 1_555 1_555

#END
