
#######################################################################
#
#                 Cambridge Crystallographic Data Centre
#                                CCDC 
#
#######################################################################
#
# If this CIF has been generated from an entry in the Cambridge 
# Structural Database, then it will include bibliographic, chemical, 
# crystal, experimental, refinement or atomic coordinate data resulting 
# from the CCDC's data processing and validation procedures.
#
#######################################################################

data_EGOKOB
_chemical_formula_moiety         '(C38 H36 Mn2 N6 O11)n'
_symmetry_cell_setting           monoclinic
_symmetry_space_group_name_H-M   'P 21'
_symmetry_Int_Tables_number      4
_space_group_name_Hall           'P 2yb'
loop_
_symmetry_equiv_pos_site_id
_symmetry_equiv_pos_as_xyz
1 x,y,z
2 -x,1/2+y,-z
_cell_length_a                   8.8061(3)
_cell_length_b                   17.9304(7)
_cell_length_c                   11.6984(4)
_cell_angle_alpha                90
_cell_angle_beta                 100.884(2)
_cell_angle_gamma                90
_cell_volume                     1813.91
loop_
_atom_site_label
_atom_site_type_symbol
_atom_site_fract_x
_atom_site_fract_y
_atom_site_fract_z
Mn1 Mn 0.95325(9) 0.91095(4) 0.11616(7)
Mn2 Mn 1.46284(9) 1.06907(4) 0.12187(7)
O1 O 1.2205(4) 1.0480(3) 0.0952(3)
O2 O 1.7087(4) 1.0908(3) 0.1670(3)
H1 H 1.7246 1.1376 0.1710
H2 H 1.7918 1.0757 0.1478
O3 O 0.9751(4) 1.0322(3) 0.1151(3)
O4 O 1.1984(4) 0.8866(3) 0.1595(3)
H3 H 1.2126 0.8399 0.1550
H4 H 1.2767 0.9076 0.1408
O5 O 0.8339(5) 1.2443(3) -0.1313(4)
O6 O 1.0733(6) 1.2917(3) -0.1111(4)
O7 O 1.1420(14) 1.2026(7) 0.1362(10)
H5 H 1.2326 1.1976 0.1301
O8 O 0.4731(5) 0.9476(3) 0.1120(3)
O9 O 0.7092(4) 0.9354(3) 0.0772(3)
O10 O 0.3240(5) 0.7380(3) -0.1645(5)
O11 O 0.5610(5) 0.6901(3) -0.1150(4)
C1 C 1.0852(6) 1.0714(5) 0.0950(5)
C2 C 1.0500(7) 1.1522(4) 0.0617(5)
H6 H 0.9436 1.1608 0.0722
C3 C 1.0487(7) 1.1637(4) -0.0661(5)
H7 H 0.9889 1.1243 -0.1104
H8 H 1.1537 1.1607 -0.0801
C4 C 0.9794(8) 1.2392(4) -0.1076(5)
C5 C 0.5802(6) 0.9082(4) 0.0826(4)
C6 C 0.5457(7) 0.8276(4) 0.0481(5)
H9 H 0.4517 0.8115 0.0727
H10 H 0.6299 0.7958 0.0851
C7 C 0.4656(7) 0.7441(4) -0.1252(5)
C8 C 0.5260(8) 0.8219(4) -0.0873(5)
H11 H 0.4536 0.8594 -0.1241
H12 H 0.6245 0.8303 -0.1107
C9 C 0.8667(7) 0.9599(4) -0.1499(5)
H13 H 0.8048 0.9926 -0.1171
C10 C 0.8623(7) 0.9642(4) -0.2697(5)
H14 H 0.8046 1.0007 -0.3148
C11 C 0.9482(6) 0.9113(5) -0.3199(5)
C12 C 1.0395(7) 0.8621(4) -0.2469(5)
H15 H 1.1001 0.8275 -0.2770
C13 C 1.0405(7) 0.8644(4) -0.1299(5)
H16 H 1.1046 0.8311 -0.0824
C14 C 0.8234(7) 0.9419(4) -0.6442(5)
H17 H 0.7403 0.9629 -0.6948
C15 C 0.8215(7) 0.9424(4) -0.5283(5)
H18 H 0.7374 0.9631 -0.5021
C16 C 0.9444(6) 0.9123(5) -0.4475(5)
C17 C 1.0630(7) 0.8794(4) -0.4948(5)
H19 H 1.1459 0.8564 -0.4468
C18 C 1.0546(7) 0.8818(5) -0.6140(5)
H20 H 1.1355 0.8603 -0.6433
C19 C 1.5556(7) 1.1140(4) -0.1191(5)
H21 H 1.6230 1.1448 -0.0696
C20 C 1.5613(7) 1.1144(4) -0.2373(5)
H22 H 1.6325 1.1445 -0.2647
C21 C 1.4595(6) 1.0692(4) -0.3155(5)
C22 C 1.3543(7) 1.0284(4) -0.2650(5)
H23 H 1.2791 0.9999 -0.3121
C23 C 1.3604(8) 1.0298(5) -0.1488(5)
H24 H 1.2915 0.9994 -0.1191
C24 C 1.5504(8) 1.1147(5) -0.6103(5)
H25 H 1.6152 1.1471 -0.6408
C25 C 1.5518(7) 1.1168(5) -0.4923(5)
H26 H 1.6152 1.1508 -0.4458
C26 C 1.4607(6) 1.0694(5) -0.4428(4)
C27 C 1.3724(8) 1.0207(4) -0.5166(5)
H27 H 1.3101 0.9864 -0.4877
C28 C 1.3753(8) 1.0223(5) -0.6343(6)
H28 H 1.3131 0.9888 -0.6825
N3 N 0.9551(5) 0.9114(4) -0.0794(4)
N4 N 0.9410(5) 0.9122(4) -0.6896(4)
N5 N 1.4574(5) 1.0712(4) -0.0735(4)
N6 N 1.4616(5) 1.0688(4) -0.6823(4)
Mn1A Mn 1.04675(9) 1.41095(4) -0.11616(7)
Mn1_2 Mn 0.95325(9) 0.91095(4) -0.88384(7)
Mn2_2 Mn 0.46284(9) 1.06907(4) 0.12187(7)
Mn2A Mn 0.53716(9) 0.56907(4) -0.12187(7)
Mn2_3 Mn 1.46284(9) 1.06907(4) -0.87813(7)
O6A O 0.9267(6) 0.7917(3) 0.1111(4)
O8_2 O 1.4731(5) 0.9476(3) 0.1120(3)
O11A O 1.4390(5) 1.1901(3) 0.1150(4)
N4_2 N 0.9410(5) 0.9122(4) 0.3104(4)
N6_2 N 1.4616(5) 1.0688(4) 0.3177(4)
N1 N 1.0804(5) 0.6137(3) 0.4734(4)
C29 C 1.0208(6) 0.6185(3) 0.5750(3)
H29 H 1.0627 0.5896 0.6392
C30 C 0.8986(5) 0.6666(3) 0.5806(3)
H30 H 0.8587 0.6698 0.6486
C31 C 0.8360(4) 0.7098(3) 0.4846(4)
C32 C 0.8956(5) 0.7050(3) 0.3830(3)
H31 H 0.8537 0.7339 0.3188
C33 C 1.0178(5) 0.6569(3) 0.3774(3)
H32 H 1.0576 0.6536 0.3094
N2 N 0.4323(4) 0.8417(3) 0.4954(4)
C34 C 0.4697(5) 0.8213(3) 0.3895(3)
H33 H 0.4060 0.8355 0.3202
C35 C 0.6023(5) 0.7798(3) 0.3871(3)
H34 H 0.6273 0.7661 0.3162
C36 C 0.6975(4) 0.7586(3) 0.4907(4)
C37 C 0.6601(4) 0.7790(3) 0.5966(3)
H35 H 0.7238 0.7648 0.6659
C38 C 0.5275(5) 0.8205(3) 0.5990(3)
H36 H 0.5025 0.8342 0.6699
loop_
_geom_bond_atom_site_label_1
_geom_bond_atom_site_label_2
_geom_bond_site_symmetry_1
_geom_bond_site_symmetry_2
Mn1 O3 1_555 1_555
Mn2 O1 1_555 1_555
O1 C1 1_555 1_555
O2 Mn2 1_555 1_555
H1 O2 1_555 1_555
H2 O2 1_555 1_555
O3 C1 1_555 1_555
O4 Mn1 1_555 1_555
H3 O4 1_555 1_555
H4 O4 1_555 1_555
O5 C4 1_555 1_555
O6 C4 1_555 1_555
O7 H5 1_555 1_555
O8 C5 1_555 1_555
O9 Mn1 1_555 1_555
O10 C7 1_555 1_555
O11 C7 1_555 1_555
C1 C2 1_555 1_555
C2 O7 1_555 1_555
H6 C2 1_555 1_555
C3 C2 1_555 1_555
H7 C3 1_555 1_555
H8 C3 1_555 1_555
C4 C3 1_555 1_555
C5 O9 1_555 1_555
C6 C5 1_555 1_555
H9 C6 1_555 1_555
H10 C6 1_555 1_555
C7 C8 1_555 1_555
C8 C6 1_555 1_555
H11 C8 1_555 1_555
H12 C8 1_555 1_555
C9 H13 1_555 1_555
C10 C9 1_555 1_555
H14 C10 1_555 1_555
C11 C10 1_555 1_555
C12 C11 1_555 1_555
H15 C12 1_555 1_555
C13 C12 1_555 1_555
H16 C13 1_555 1_555
C14 H17 1_555 1_555
C15 C14 1_555 1_555
H18 C15 1_555 1_555
C16 C11 1_555 1_555
C17 C16 1_555 1_555
H19 C17 1_555 1_555
C18 C17 1_555 1_555
H20 C18 1_555 1_555
C19 H21 1_555 1_555
C20 C19 1_555 1_555
H22 C20 1_555 1_555
C21 C20 1_555 1_555
C22 C21 1_555 1_555
H23 C22 1_555 1_555
C23 C22 1_555 1_555
H24 C23 1_555 1_555
C24 H25 1_555 1_555
C25 C24 1_555 1_555
H26 C25 1_555 1_555
C26 C21 1_555 1_555
C27 C26 1_555 1_555
H27 C27 1_555 1_555
C28 C27 1_555 1_555
H28 C28 1_555 1_555
N1 C29 1_555 1_555
C29 H29 1_555 1_555
C30 C29 1_555 1_555
H30 C30 1_555 1_555
C31 C30 1_555 1_555
C32 C31 1_555 1_555
H31 C32 1_555 1_555
C33 N1 1_555 1_555
H32 C33 1_555 1_555
N2 C34 1_555 1_555
C34 H33 1_555 1_555
C35 C34 1_555 1_555
H34 C35 1_555 1_555
C36 C31 1_555 1_555
C37 C36 1_555 1_555
H35 C37 1_555 1_555
C38 N2 1_555 1_555
H36 C38 1_555 1_555
N3 Mn1 1_555 1_555
N4 C14 1_555 1_555
N5 Mn2 1_555 1_555
N6 C24 1_555 1_555
Mn1A O6 1_555 1_555
Mn1_2 N4 1_555 1_555
Mn2_2 O8 1_555 1_555
Mn2A O11 1_555 1_555
Mn2_3 N6 1_555 1_555
O6A Mn1 1_555 1_555
O8_2 Mn2 1_555 1_555
O11A Mn2 1_555 1_555
N4_2 Mn1 1_555 1_555
N6_2 Mn2 1_555 1_555
C9 N3 1_555 1_555
C13 N3 1_555 1_555
C15 C16 1_555 1_555
C18 N4 1_555 1_555
C19 N5 1_555 1_555
C23 N5 1_555 1_555
C25 C26 1_555 1_555
C28 N6 1_555 1_555
C32 C33 1_555 1_555
C35 C36 1_555 1_555
C37 C38 1_555 1_555

#END
