
#######################################################################
#
#                 Cambridge Crystallographic Data Centre
#                                CCDC 
#
#######################################################################
#
# If this CIF has been generated from an entry in the Cambridge 
# Structural Database, then it will include bibliographic, chemical, 
# crystal, experimental, refinement or atomic coordinate data resulting 
# from the CCDC's data processing and validation procedures.
#
#######################################################################

data_TEFWOR
_chemical_formula_moiety         '(C30 H16 In3 N12 O26)n'
_symmetry_cell_setting           cubic
_symmetry_space_group_name_H-M   'F d -3 c'
_symmetry_Int_Tables_number      228
_space_group_name_Hall           '-F 4ud 2vw 3'
loop_
_symmetry_equiv_pos_site_id
_symmetry_equiv_pos_as_xyz
1 x,y,z
2 z,x,y
3 y,z,x
4 3/4+y,1/4+x,-z
5 1/4+y,-x,3/4+z
6 -y,3/4+x,1/4+z
7 3/4+x,1/4+z,-y
8 -x,3/4+z,1/4+y
9 1/4+x,-z,3/4+y
10 3/4+z,1/4+y,-x
11 1/4+z,-y,3/4+x
12 -z,3/4+y,1/4+x
13 x,1/2+y,1/2+z
14 1/4-x,1/4-y,z
15 z,1/2+x,1/2+y
16 1/4-z,1/4-x,y
17 y,1/2+z,1/2+x
18 1/4-y,1/4-z,x
19 1/4+y,1/2-x,1/4+z
20 -y,1/4+x,3/4+z
21 -x,1/4+z,3/4+y
22 1/4+x,1/2-z,1/4+y
23 1/4+z,1/2-y,1/4+x
24 -z,1/4+y,3/4+x
25 1/2+x,y,1/2+z
26 x,1/4-y,1/4-z
27 1/2+z,x,1/2+y
28 z,1/4-x,1/4-y
29 1/2+y,z,1/2+x
30 y,1/4-z,1/4-x
31 1/4+y,1/4+x,1/2-z
32 3/4+y,-x,1/4+z
33 1/4+x,1/4+z,1/2-y
34 3/4+x,-z,1/4+y
35 1/4+z,1/4+y,1/2-x
36 3/4+z,-y,1/4+x
37 1/2+x,1/2+y,z
38 1/4-x,y,1/4-z
39 1/2+z,1/2+x,y
40 1/4-z,x,1/4-y
41 1/2+y,1/2+z,x
42 1/4-y,z,1/4-x
43 1/4+y,3/4+x,-z
44 1/2-y,1/4+x,1/4+z
45 1/4+x,3/4+z,-y
46 1/2-x,1/4+z,1/4+y
47 1/4+z,3/4+y,-x
48 1/2-z,1/4+y,1/4+x
49 1/4-x,3/4-y,1/2+z
50 3/4-x,1/2+y,1/4-z
51 1/2+x,1/4-y,3/4-z
52 1/2+z,1/4-x,3/4-y
53 1/4-z,3/4-x,1/2+y
54 3/4-z,1/2+x,1/4-y
55 3/4-y,1/2+z,1/4-x
56 1/2+y,1/4-z,3/4-x
57 1/4-y,3/4-z,1/2+x
58 1/2-y,1/2-x,1/2-z
59 1/2-x,1/2-z,1/2-y
60 1/2-z,1/2-y,1/2-x
61 3/4-x,y,3/4-z
62 1/2+x,3/4-y,1/4-z
63 1/2+z,3/4-x,1/4-y
64 3/4-z,x,3/4-y
65 3/4-y,z,3/4-x
66 1/2+y,3/4-z,1/4-x
67 3/4+y,3/4+x,1/2-z
68 1/2-y,-x,-z
69 3/4+x,3/4+z,1/2-y
70 1/2-x,-z,-y
71 3/4+z,3/4+y,1/2-x
72 1/2-z,-y,-x
73 3/4-x,3/4-y,z
74 1/4-x,1/2+y,3/4-z
75 3/4-z,3/4-x,y
76 1/4-z,1/2+x,3/4-y
77 1/4-y,1/2+z,3/4-x
78 3/4-y,3/4-z,x
79 -y,1/2-x,-z
80 1/2-y,3/4+x,3/4+z
81 1/2-x,3/4+z,3/4+y
82 -x,1/2-z,-y
83 1/2-z,3/4+y,3/4+x
84 -z,1/2-y,-x
85 3/4-x,1/4-y,1/2+z
86 x,3/4-y,3/4-z
87 z,3/4-x,3/4-y
88 3/4-z,1/4-x,1/2+y
89 y,3/4-z,3/4-x
90 3/4-y,1/4-z,1/2+x
91 -y,-x,1/2-z
92 3/4+y,1/2-x,3/4+z
93 -x,-z,1/2-y
94 3/4+x,1/2-z,3/4+y
95 3/4+z,1/2-y,3/4+x
96 -z,-y,1/2-x
97 -x,-y,-z
98 -z,-x,-y
99 -y,-z,-x
100 1/4-y,3/4-x,z
101 3/4-y,x,1/4-z
102 y,1/4-x,3/4-z
103 1/4-x,3/4-z,y
104 x,1/4-z,3/4-y
105 3/4-x,z,1/4-y
106 1/4-z,3/4-y,x
107 3/4-z,y,1/4-x
108 z,1/4-y,3/4-x
109 -x,1/2-y,1/2-z
110 3/4+x,3/4+y,-z
111 -z,1/2-x,1/2-y
112 3/4+z,3/4+x,-y
113 -y,1/2-z,1/2-x
114 3/4+y,3/4+z,-x
115 3/4-y,1/2+x,3/4-z
116 y,3/4-x,1/4-z
117 x,3/4-z,1/4-y
118 3/4-x,1/2+z,3/4-y
119 3/4-z,1/2+y,3/4-x
120 z,3/4-y,1/4-x
121 1/2-x,-y,1/2-z
122 -x,3/4+y,3/4+z
123 1/2-z,-x,1/2-y
124 -z,3/4+x,3/4+y
125 1/2-y,-z,1/2-x
126 -y,3/4+z,3/4+x
127 3/4-y,3/4-x,1/2+z
128 1/4-y,x,3/4-z
129 3/4-x,3/4-z,1/2+y
130 1/4-x,z,3/4-y
131 3/4-z,3/4-y,1/2+x
132 1/4-z,y,3/4-x
133 1/2-x,1/2-y,-z
134 3/4+x,-y,3/4+z
135 1/2-z,1/2-x,-y
136 3/4+z,-x,3/4+y
137 1/2-y,1/2-z,-x
138 3/4+y,-z,3/4+x
139 3/4-y,1/4-x,z
140 1/2+y,3/4-x,3/4-z
141 3/4-x,1/4-z,y
142 1/2+x,3/4-z,3/4-y
143 3/4-z,1/4-y,x
144 1/2+z,3/4-y,3/4-x
145 3/4+x,1/4+y,1/2-z
146 1/4+x,1/2-y,3/4+z
147 1/2-x,3/4+y,1/4+z
148 1/2-z,3/4+x,1/4+y
149 3/4+z,1/4+x,1/2-y
150 1/4+z,1/2-x,3/4+y
151 1/4+y,1/2-z,3/4+x
152 1/2-y,3/4+z,1/4+x
153 3/4+y,1/4+z,1/2-x
154 1/2+y,1/2+x,1/2+z
155 1/2+x,1/2+z,1/2+y
156 1/2+z,1/2+y,1/2+x
157 1/4+x,-y,1/4+z
158 1/2-x,1/4+y,3/4+z
159 1/2-z,1/4+x,3/4+y
160 1/4+z,-x,1/4+y
161 1/4+y,-z,1/4+x
162 1/2-y,1/4+z,3/4+x
163 1/4-y,1/4-x,1/2+z
164 1/2+y,x,z
165 1/4-x,1/4-z,1/2+y
166 1/2+x,z,y
167 1/4-z,1/4-y,1/2+x
168 1/2+z,y,x
169 1/4+x,1/4+y,-z
170 3/4+x,1/2-y,1/4+z
171 1/4+z,1/4+x,-y
172 3/4+z,1/2-x,1/4+y
173 3/4+y,1/2-z,1/4+x
174 1/4+y,1/4+z,-x
175 y,1/2+x,z
176 1/2+y,1/4-x,1/4-z
177 1/2+x,1/4-z,1/4-y
178 x,1/2+z,y
179 1/2+z,1/4-y,1/4-x
180 z,1/2+y,x
181 1/4+x,3/4+y,1/2-z
182 -x,1/4+y,1/4+z
183 -z,1/4+x,1/4+y
184 1/4+z,3/4+x,1/2-y
185 -y,1/4+z,1/4+x
186 1/4+y,3/4+z,1/2-x
187 y,x,1/2+z
188 1/4-y,1/2+x,1/4-z
189 x,z,1/2+y
190 1/4-x,1/2+z,1/4-y
191 1/4-z,1/2+y,1/4-x
192 z,y,1/2+x
_cell_length_a                   36.0435(11)
_cell_length_b                   36.0435(11)
_cell_length_c                   36.0435(11)
_cell_angle_alpha                90
_cell_angle_beta                 90
_cell_angle_gamma                90
_cell_volume                     46825.3
loop_
_atom_site_label
_atom_site_type_symbol
_atom_site_fract_x
_atom_site_fract_y
_atom_site_fract_z
_atom_site_U_iso_or_equiv
_atom_site_thermal_displace_type
In1 In 0.11802(2) 0.88198(2) 0.7500 0.0787 Uani
O1 O 0.1906(3) 0.8605(3) 0.7801(3) 0.1017 Uani
O2 O 0.2296(3) 0.8837(3) 0.8233(3) 0.1210 Uani
N1 N 0.1406(3) 0.9182(3) 0.7936(3) 0.0753 Uani
C1 C 0.1721(3) 0.9134(4) 0.8145(4) 0.0840 Uani
C2 C 0.1983(3) 0.8827(4) 0.8038(4) 0.0917 Uani
C3 C 0.1227(3) 0.9467(3) 0.8094(3) 0.0743 Uani
H1 H 0.1000 0.9559 0.8013 0.1120 Uiso
C4 C 0.1723(3) 0.9396(4) 0.8420(4) 0.0830 Uani
N2 N 0.1415(3) 0.9600(3) 0.8380(3) 0.0743 Uani
C5 C 0.1992(4) 0.9497(5) 0.8728(4) 0.0973 Uani
O3 O 0.1884(2) 0.9736(3) 0.8949(3) 0.0867 Uani
O4 O 0.2285(3) 0.9326(3) 0.8726(3) 0.1200 Uani
In1SD In 0.2500 0.86802(2) 0.63198(2) 0.0787 Uani
In1TE In 0.13198(2) 0.7500 0.86802(2) 0.0787 Uani
In1QF In 0.13198(2) 1.0000 0.88198(2) 0.0787 Uani
In1AG In 0.0000 0.86802(2) 0.61802(2) 0.0787 Uani
In1BA In 0.38198(2) 0.7500 0.61802(2) 0.0787 Uani
In1FA In 0.36802(2) 1.0000 0.61802(2) 0.0787 Uani
O1LC O 0.1395(3) 0.8094(3) 0.7199(3) 0.1017 Uani
O1SD O 0.2199(3) 0.9406(3) 0.6105(3) 0.1017 Uani
O1YD O 0.0594(3) 0.7801(3) 0.8895(3) 0.1017 Uani
O1ME O 0.2801(3) 0.8895(3) 0.5594(3) 0.1017 Uani
O1DB O 0.3895(3) 0.9699(3) 0.6906(3) 0.1017 Uani
O2LC O 0.1163(3) 0.7704(3) 0.6767(3) 0.1210 Uani
O2SD O 0.1767(3) 0.9796(3) 0.6337(3) 0.1210 Uani
O2YD O 0.0204(3) 0.8233(3) 0.8663(3) 0.1210 Uani
O2ME O 0.3233(3) 0.8663(3) 0.5204(3) 0.1210 Uani
O2DB O 0.3663(3) 0.9267(3) 0.7296(3) 0.1210 Uani
N1LC N 0.0818(3) 0.8594(3) 0.7064(3) 0.0753 Uani
N1SD N 0.2064(3) 0.8906(3) 0.6682(3) 0.0753 Uani
N1YD N 0.1094(3) 0.7936(3) 0.8318(3) 0.0753 Uani
N1ME N 0.2936(3) 0.8318(3) 0.6094(3) 0.0753 Uani
N1DB N 0.3318(3) 0.9564(3) 0.6406(3) 0.0753 Uani
N1TE N 0.1682(3) 0.7064(3) 0.8906(3) 0.0753 Uani
C1LC C 0.0866(4) 0.8279(3) 0.6855(4) 0.0840 Uani
C1SD C 0.1855(4) 0.9221(3) 0.6634(4) 0.0840 Uani
C1YD C 0.0779(3) 0.8145(4) 0.8366(4) 0.0840 Uani
C1ME C 0.3145(4) 0.8366(4) 0.5779(3) 0.0840 Uani
C1DB C 0.3366(4) 0.9355(4) 0.6721(3) 0.0840 Uani
C2LC C 0.1173(4) 0.8017(3) 0.6962(4) 0.0917 Uani
C2SD C 0.1962(4) 0.9483(3) 0.6327(4) 0.0917 Uani
C2YD C 0.0517(3) 0.8038(4) 0.8673(4) 0.0917 Uani
C2ME C 0.3038(4) 0.8673(4) 0.5517(3) 0.0917 Uani
C2DB C 0.3673(4) 0.9462(4) 0.6983(3) 0.0917 Uani
C3LC C 0.0533(3) 0.8773(3) 0.6906(3) 0.0743 Uani
C3SD C 0.1906(3) 0.8727(3) 0.6967(3) 0.0743 Uani
C3YD C 0.1273(3) 0.8094(3) 0.8033(3) 0.0743 Uani
C3ME C 0.3094(3) 0.8033(3) 0.6273(3) 0.0743 Uani
C3DB C 0.3033(3) 0.9406(3) 0.6227(3) 0.0743 Uani
H1LC H 0.0441 0.9000 0.6987 0.1120 Uiso
H1SD H 0.1987 0.8500 0.7059 0.1120 Uiso
H1YD H 0.1500 0.8013 0.7941 0.1120 Uiso
H1ME H 0.3013 0.7941 0.6500 0.1120 Uiso
H1DB H 0.2941 0.9487 0.6000 0.1120 Uiso
C4LC C 0.0604(4) 0.8277(3) 0.6580(4) 0.0830 Uani
C4SD C 0.1580(4) 0.9223(3) 0.6896(4) 0.0830 Uani
C4YD C 0.0777(3) 0.8420(4) 0.8104(4) 0.0830 Uani
C4ME C 0.3420(4) 0.8104(4) 0.5777(3) 0.0830 Uani
C4DB C 0.3104(4) 0.9080(4) 0.6723(3) 0.0830 Uani
N2LC N 0.0400(3) 0.8585(3) 0.6620(3) 0.0743 Uani
N2SD N 0.1620(3) 0.8915(3) 0.7100(3) 0.0743 Uani
N2YD N 0.1085(3) 0.8380(3) 0.7900(3) 0.0743 Uani
N2ME N 0.3380(3) 0.7900(3) 0.6085(3) 0.0743 Uani
N2DB N 0.2900(3) 0.9120(3) 0.6415(3) 0.0743 Uani
N2D N 0.2100(3) 0.8585(3) 0.5880(3) 0.0743 Uani
N2TA N 0.0880(3) 0.7100(3) 0.8585(3) 0.0743 Uani
N2GC N 0.1415(3) 0.7900(3) 0.9120(3) 0.0743 Uani
C5LC C 0.0503(5) 0.8008(4) 0.6272(4) 0.0973 Uani
C5SD C 0.1272(4) 0.9492(4) 0.6997(5) 0.0973 Uani
C5YD C 0.0508(4) 0.8728(4) 0.8003(5) 0.0973 Uani
C5ME C 0.3728(4) 0.8003(5) 0.5508(4) 0.0973 Uani
C5DB C 0.3003(5) 0.8772(4) 0.6992(4) 0.0973 Uani
O3LC O 0.0264(3) 0.8116(2) 0.6051(3) 0.0867 Uani
O3SD O 0.1051(3) 0.9384(2) 0.7236(3) 0.0867 Uani
O3YD O 0.0616(2) 0.8949(3) 0.7764(3) 0.0867 Uani
O3ME O 0.3949(3) 0.7764(3) 0.5616(2) 0.0867 Uani
O3DB O 0.2764(3) 0.8551(3) 0.6884(2) 0.0867 Uani
O3D O 0.2236(3) 0.8116(2) 0.6449(3) 0.0867 Uani
O3TA O 0.1449(3) 0.7236(3) 0.8116(2) 0.0867 Uani
O3GC O 0.1884(2) 0.7764(3) 0.8551(3) 0.0867 Uani
O4LC O 0.0674(3) 0.7715(3) 0.6274(3) 0.1200 Uani
O4SD O 0.1274(3) 0.9785(3) 0.6826(3) 0.1200 Uani
O4YD O 0.0215(3) 0.8726(3) 0.8174(3) 0.1200 Uani
O4ME O 0.3726(3) 0.8174(3) 0.5215(3) 0.1200 Uani
O4DB O 0.3174(3) 0.8774(3) 0.7285(3) 0.1200 Uani
O5 O 0.0037(19) 0.801(3) 0.757(3) 0.3233 Uani
O6 O -0.056(2) 0.806(2) 0.806(2) 0.2500 Uani
loop_
_atom_site_aniso_label
_atom_site_aniso_U_11
_atom_site_aniso_U_22
_atom_site_aniso_U_33
_atom_site_aniso_U_23
_atom_site_aniso_U_13
_atom_site_aniso_U_12
In1 0.0775(6) 0.0775(6) 0.0811(9) -0.0023(5) -0.0023(5) 0.0189(6)
O1 0.103(7) 0.107(7) 0.095(7) 0.014(5) 0.019(5) 0.030(6)
O2 0.076(6) 0.139(8) 0.148(9) 0.030(7) -0.014(6) 0.043(6)
N1 0.076(6) 0.072(6) 0.078(6) 0.000(5) -0.008(5) 0.013(5)
C1 0.057(7) 0.094(9) 0.101(9) 0.023(7) -0.011(6) 0.004(6)
C2 0.057(7) 0.116(11) 0.102(10) 0.031(9) 0.017(7) 0.024(7)
C3 0.067(6) 0.092(8) 0.064(7) -0.007(6) -0.016(5) 0.013(6)
C4 0.059(7) 0.101(9) 0.089(9) 0.011(7) -0.023(6) -0.001(7)
N2 0.066(6) 0.080(6) 0.077(6) 0.006(5) -0.013(5) 0.003(5)
C5 0.069(8) 0.118(11) 0.105(11) 0.032(9) -0.012(7) 0.017(8)
O3 0.068(5) 0.099(6) 0.093(6) 0.010(5) -0.019(4) 0.000(4)
O4 0.074(6) 0.156(10) 0.130(8) -0.001(7) -0.038(5) 0.022(6)
In1SD 0.0811 0.0775 0.0775 0.0189 0.0023 0.0023
In1TE 0.0775 0.0811 0.0775 0.0023 0.0189 0.0023
In1QF 0.0775 0.0811 0.0775 0.0023 -0.0189 -0.0023
In1AG 0.0811 0.0775 0.0775 -0.0189 0.0023 -0.0023
In1BA 0.0775 0.0811 0.0775 -0.0023 0.0189 -0.0023
In1FA 0.0775 0.0811 0.0775 0.0023 -0.0189 -0.0023
O1LC 0.107 0.103 0.095 0.019 0.014 0.03
O1SD 0.095 0.103 0.107 0.03 -0.014 -0.019
O1YD 0.103 0.095 0.107 -0.014 0.03 -0.019
O1ME 0.095 0.107 0.103 0.03 -0.019 -0.014
O1DB 0.107 0.095 0.103 -0.019 -0.03 0.014
O2LC 0.139 0.076 0.148 -0.014 0.03 0.043
O2SD 0.148 0.076 0.139 0.043 -0.03 0.014
O2YD 0.076 0.148 0.139 -0.03 0.043 0.014
O2ME 0.148 0.139 0.076 0.043 0.014 -0.03
O2DB 0.139 0.148 0.076 0.014 -0.043 0.03
N1LC 0.072 0.076 0.078 -0.008 0 0.013
N1SD 0.078 0.076 0.072 0.013 0 0.008
N1YD 0.076 0.078 0.072 0 0.013 0.008
N1ME 0.078 0.072 0.076 0.013 0.008 0
N1DB 0.072 0.078 0.076 0.008 -0.013 0
N1TE 0.072 0.078 0.076 0.008 0.013 0
C1LC 0.094 0.057 0.101 -0.011 0.023 0.004
C1SD 0.101 0.057 0.094 0.004 -0.023 0.011
C1YD 0.057 0.101 0.094 -0.023 0.004 0.011
C1ME 0.101 0.094 0.057 0.004 0.011 -0.023
C1DB 0.094 0.101 0.057 0.011 -0.004 0.023
C2LC 0.116 0.057 0.102 0.017 0.031 0.024
C2SD 0.102 0.057 0.116 0.024 -0.031 -0.017
C2YD 0.057 0.102 0.116 -0.031 0.024 -0.017
C2ME 0.102 0.116 0.057 0.024 -0.017 -0.031
C2DB 0.116 0.102 0.057 -0.017 -0.024 0.031
C3LC 0.092 0.067 0.064 -0.016 -0.007 0.013
C3SD 0.064 0.067 0.092 0.013 0.007 0.016
C3YD 0.067 0.064 0.092 0.007 0.013 0.016
C3ME 0.064 0.092 0.067 0.013 0.016 0.007
C3DB 0.092 0.064 0.067 0.016 -0.013 -0.007
C4LC 0.101 0.059 0.089 -0.023 0.011 -0.001
C4SD 0.089 0.059 0.101 -0.001 -0.011 0.023
C4YD 0.059 0.089 0.101 -0.011 -0.001 0.023
C4ME 0.089 0.101 0.059 -0.001 0.023 -0.011
C4DB 0.101 0.089 0.059 0.023 0.001 0.011
N2LC 0.08 0.066 0.077 -0.013 0.006 0.003
N2SD 0.077 0.066 0.08 0.003 -0.006 0.013
N2YD 0.066 0.077 0.08 -0.006 0.003 0.013
N2ME 0.077 0.08 0.066 0.003 0.013 -0.006
N2DB 0.08 0.077 0.066 0.013 -0.003 0.006
N2D 0.08 0.066 0.077 0.013 0.006 -0.003
N2TA 0.077 0.08 0.066 -0.003 0.013 0.006
N2GC 0.066 0.08 0.077 0.006 0.013 -0.003
C5LC 0.118 0.069 0.105 -0.012 0.032 0.017
C5SD 0.105 0.069 0.118 0.017 -0.032 0.012
C5YD 0.069 0.105 0.118 -0.032 0.017 0.012
C5ME 0.105 0.118 0.069 0.017 0.012 -0.032
C5DB 0.118 0.105 0.069 0.012 -0.017 0.032
O3LC 0.099 0.068 0.093 -0.019 0.01 0
O3SD 0.093 0.068 0.099 0 -0.01 0.019
O3YD 0.068 0.093 0.099 -0.01 0 0.019
O3ME 0.093 0.099 0.068 0 0.019 -0.01
O3DB 0.099 0.093 0.068 0.019 0 0.01
O3D 0.099 0.068 0.093 0.019 0.01 0
O3TA 0.093 0.099 0.068 0 0.019 0.01
O3GC 0.068 0.099 0.093 0.01 0.019 0
O4LC 0.156 0.074 0.13 -0.038 -0.001 0.022
O4SD 0.13 0.074 0.156 0.022 0.001 0.038
O4YD 0.074 0.13 0.156 0.001 0.022 0.038
O4ME 0.13 0.156 0.074 0.022 0.038 0.001
O4DB 0.156 0.13 0.074 0.038 -0.022 -0.001
O5 0.14(5) 0.43(9) 0.40(10) -0.37(8) -0.06(6) -0.06(6)
O6 0.25(5) 0.25(5) 0.25(5) 0.13(6) -0.13(6) -0.13(6)
loop_
_geom_bond_atom_site_label_1
_geom_bond_atom_site_label_2
_geom_bond_site_symmetry_1
_geom_bond_site_symmetry_2
In1 N1 1_555 1_555
O1 C2 1_555 1_555
O2 C2 1_555 1_555
N1 C1 1_555 1_555
C1 C2 1_555 1_555
C3 N1 1_555 1_555
H1 C3 1_555 1_555
C4 C1 1_555 1_555
N2 C3 1_555 1_555
C5 C4 1_555 1_555
O3 C5 1_555 1_555
O4 C5 1_555 1_555
In1SD N1SD 1_555 1_555
In1TE N1YD 1_555 1_555
In1QF N2 1_555 1_555
In1AG N2LC 1_555 1_555
In1BA N2ME 1_555 1_555
In1FA N1DB 1_555 1_555
O1LC C2LC 1_555 1_555
O1SD C2SD 1_555 1_555
O1YD C2YD 1_555 1_555
O1ME C2ME 1_555 1_555
O1DB C2DB 1_555 1_555
O2LC C2LC 1_555 1_555
O2SD C2SD 1_555 1_555
O2YD C2YD 1_555 1_555
O2ME C2ME 1_555 1_555
O2DB C2DB 1_555 1_555
N1LC In1 1_555 1_555
N1SD C1SD 1_555 1_555
N1YD C1YD 1_555 1_555
N1ME In1SD 1_555 1_555
N1DB C1DB 1_555 1_555
N1TE In1TE 1_555 1_555
C1LC N1LC 1_555 1_555
C1SD C2SD 1_555 1_555
C1YD C2YD 1_555 1_555
C1ME N1ME 1_555 1_555
C1DB C2DB 1_555 1_555
C2LC C1LC 1_555 1_555
C2ME C1ME 1_555 1_555
C3LC N1LC 1_555 1_555
C3SD N1SD 1_555 1_555
C3YD N1YD 1_555 1_555
C3ME N1ME 1_555 1_555
C3DB N1DB 1_555 1_555
H1LC C3LC 1_555 1_555
H1SD C3SD 1_555 1_555
H1YD C3YD 1_555 1_555
H1ME C3ME 1_555 1_555
H1DB C3DB 1_555 1_555
C4LC C1LC 1_555 1_555
C4SD C1SD 1_555 1_555
C4YD C1YD 1_555 1_555
C4ME C1ME 1_555 1_555
C4DB C1DB 1_555 1_555
N2LC C3LC 1_555 1_555
N2SD In1 1_555 1_555
N2YD In1 1_555 1_555
N2ME C3ME 1_555 1_555
N2DB In1SD 1_555 1_555
N2D In1SD 1_555 1_555
N2TA In1TE 1_555 1_555
N2GC In1TE 1_555 1_555
C5LC C4LC 1_555 1_555
C5SD C4SD 1_555 1_555
C5YD C4YD 1_555 1_555
C5ME C4ME 1_555 1_555
C5DB C4DB 1_555 1_555
O3LC In1AG 1_555 1_555
O3SD In1 1_555 1_555
O3YD In1 1_555 1_555
O3ME In1BA 1_555 1_555
O3DB In1SD 1_555 1_555
O3D In1SD 1_555 1_555
O3TA In1TE 1_555 1_555
O3GC In1TE 1_555 1_555
O4LC C5LC 1_555 1_555
O4SD C5SD 1_555 1_555
O4YD C5YD 1_555 1_555
O4ME C5ME 1_555 1_555
O4DB C5DB 1_555 1_555
C4 N2 1_555 1_555
O3 In1QF 1_555 1_555
C3SD N2SD 1_555 1_555
C3YD N2YD 1_555 1_555
C3DB N2DB 1_555 1_555
C4LC N2LC 1_555 1_555
C4SD N2SD 1_555 1_555
C4YD N2YD 1_555 1_555
C4ME N2ME 1_555 1_555
C4DB N2DB 1_555 1_555
C5LC O3LC 1_555 1_555
C5SD O3SD 1_555 1_555
C5YD O3YD 1_555 1_555
C5ME O3ME 1_555 1_555
C5DB O3DB 1_555 1_555

#END
