
#######################################################################
#
#                 Cambridge Crystallographic Data Centre
#                                CCDC 
#
#######################################################################
#
# If this CIF has been generated from an entry in the Cambridge 
# Structural Database, then it will include bibliographic, chemical, 
# crystal, experimental, refinement or atomic coordinate data resulting 
# from the CCDC's data processing and validation procedures.
#
#######################################################################

data_ABEYIR
_chemical_formula_moiety         '(C14 H20 Gd2 N4 O20)n'
_symmetry_cell_setting           orthorhombic
_symmetry_space_group_name_H-M   'P n a 21'
_symmetry_Int_Tables_number      33
_space_group_name_Hall           'P 2c -2n'
loop_
_symmetry_equiv_pos_site_id
_symmetry_equiv_pos_as_xyz
1 x,y,z
2 -x,-y,1/2+z
3 1/2-x,1/2+y,1/2+z
4 1/2+x,1/2-y,z
_cell_length_a                   11.7927(4)
_cell_length_b                   10.9340(3)
_cell_length_c                   19.2152(7)
_cell_angle_alpha                90
_cell_angle_beta                 90
_cell_angle_gamma                90
_cell_volume                     2477.63
loop_
_atom_site_label
_atom_site_type_symbol
_atom_site_fract_x
_atom_site_fract_y
_atom_site_fract_z
Gd1 Gd 0.15724(2) -0.36210(2) -0.425840(15)
Gd2 Gd -0.02944(2) 0.11914(2) -0.211370(17)
N1 N 0.1165(4) -0.2698(4) -0.3016(3)
C1 C 0.0570(5) -0.1685(5) -0.2888(3)
H1 H 0.0031 -0.1458 -0.3216
N2 N 0.0682(4) -0.0971(4) -0.2331(3)
C2 C 0.1407(5) -0.1350(5) -0.1847(3)
C3 C 0.2031(5) -0.2429(5) -0.1914(3)
H2 H 0.2507 -0.2707 -0.1563
C4 C 0.1902(5) -0.3050(5) -0.2521(3)
C5 C 0.2672(5) -0.4139(5) -0.2696(3)
O1 O 0.2595(4) -0.4538(3) -0.3314(2)
O2 O 0.3327(3) -0.4507(3) -0.2237(2)
C6 C 0.1589(6) -0.0524(5) -0.1223(3)
O3 O 0.1015(4) 0.0459(3) -0.1219(2)
O4 O 0.2280(5) -0.0867(4) -0.0793(3)
N3 N 0.0092(4) -0.4992(4) -0.3512(3)
C7 C 0.0271(5) -0.6016(5) -0.3142(3)
H3 H 0.1014 -0.6294 -0.3113
N4 N -0.0514(4) -0.6669(4) -0.2813(3)
C8 C -0.1583(5) -0.6266(5) -0.2864(3)
C9 C -0.1862(5) -0.5210(5) -0.3224(3)
H4 H -0.2606 -0.4932 -0.3257
C10 C -0.0973(5) -0.4601(5) -0.3528(3)
C11 C -0.1164(5) -0.3396(5) -0.3910(3)
O5 O -0.0354(3) -0.2954(3) -0.4254(3)
O6 O -0.2123(3) -0.2915(3) -0.3833(2)
C12 C -0.2497(5) -0.7035(5) -0.2509(3)
O7 O -0.2176(3) -0.8002(3) -0.2220(2)
O8 O -0.3488(4) -0.6658(3) -0.2549(2)
O9 O -0.0825(4) 0.3893(3) -0.0423(2)
C13 C -0.0692(6) 0.2995(5) -0.0804(3)
O10 O -0.0151(4) 0.2953(3) -0.1372(3)
O11 O -0.1536(4) 0.1731(3) 0.0065(2)
C14 C -0.1207(5) 0.1774(5) -0.0550(4)
O12 O -0.1249(4) 0.0909(3) -0.1003(2)
O13 O 0.1776(3) -0.5751(3) -0.4524(2)
O14 O 0.3354(3) -0.3836(3) -0.4864(2)
O15 O -0.0485(3) 0.0840(3) -0.3354(2)
H5 H 0.1274 -0.6318 -0.4516
H6 H 0.2076 -0.5828 -0.4929
H7 H 0.3457 -0.3905 -0.5316
H8 H 0.3781 -0.3195 -0.4776
H9 H -0.1138 0.0480 -0.3425
H10 H -0.0419 0.1295 -0.3722
Gd1C Gd -0.34276(2) -0.13790(2) -0.425840(15)
Gd1A Gd -0.15724(2) 0.36210(2) 0.074160(15)
Gd2C Gd 0.47056(2) -0.61914(2) -0.211370(17)
Gd2_2 Gd -0.02944(2) -0.88086(2) -0.211370(17)
Gd2C_2 Gd -0.52944(2) -0.61914(2) -0.211370(17)
O2C O -0.1673(3) -0.0493(3) -0.2237(2)
N4_2 N -0.0514(4) 0.3331(4) -0.2813(3)
O6C O 0.2877(3) -0.2085(3) -0.3833(2)
O7_2 O -0.2176(3) 0.1998(3) -0.2220(2)
O8C O 0.1512(4) 0.1658(3) -0.2549(2)
O9A O 0.0825(4) -0.3893(3) -0.5423(2)
O11A O 0.1536(4) -0.1731(3) -0.4935(2)
O16 O 0.0056(4) 0.2454(3) -0.4411(2)
O17 O -0.1125(4) -0.1485(4) -0.0518(3)
O18 O -0.1602(5) -0.6076(4) -0.4934(3)
O19 O -0.1330(4) -0.4916(4) -0.6275(2)
O20 O 0.4483(4) -0.1545(4) -0.1367(3)
loop_
_geom_bond_atom_site_label_1
_geom_bond_atom_site_label_2
_geom_bond_site_symmetry_1
_geom_bond_site_symmetry_2
Gd1 N1 1_555 1_555
Gd2 N2 1_555 1_555
N1 C1 1_555 1_555
C1 H1 1_555 1_555
N2 C1 1_555 1_555
C2 N2 1_555 1_555
C3 C2 1_555 1_555
H2 C3 1_555 1_555
C4 N1 1_555 1_555
C5 C4 1_555 1_555
O1 Gd1 1_555 1_555
O2 C5 1_555 1_555
C6 C2 1_555 1_555
O3 Gd2 1_555 1_555
O4 C6 1_555 1_555
N3 Gd1 1_555 1_555
C7 N3 1_555 1_555
H3 C7 1_555 1_555
N4 C7 1_555 1_555
C8 N4 1_555 1_555
C9 C8 1_555 1_555
H4 C9 1_555 1_555
C10 N3 1_555 1_555
C11 C10 1_555 1_555
O5 Gd1 1_555 1_555
O6 C11 1_555 1_555
C12 C8 1_555 1_555
O7 C12 1_555 1_555
O8 C12 1_555 1_555
O9 C13 1_555 1_555
C13 O10 1_555 1_555
O10 Gd2 1_555 1_555
O11 C14 1_555 1_555
C14 C13 1_555 1_555
O12 Gd2 1_555 1_555
O13 Gd1 1_555 1_555
O14 Gd1 1_555 1_555
O15 Gd2 1_555 1_555
H5 O13 1_555 1_555
H6 O13 1_555 1_555
H7 O14 1_555 1_555
H8 O14 1_555 1_555
H9 O15 1_555 1_555
H10 O15 1_555 1_555
Gd1C O6 1_555 1_555
Gd1A O9 1_555 1_555
Gd2C O2 1_555 1_555
Gd2_2 N4 1_555 1_555
Gd2C_2 O8 1_555 1_555
O2C Gd2 1_555 1_555
N4_2 Gd2 1_555 1_555
O6C Gd1 1_555 1_555
O7_2 Gd2 1_555 1_555
O8C Gd2 1_555 1_555
O9A Gd1 1_555 1_555
O11A Gd1 1_555 1_555
C3 C4 1_555 1_555
C5 O1 1_555 1_555
C6 O3 1_555 1_555
C9 C10 1_555 1_555
C11 O5 1_555 1_555
O7 Gd2_2 1_555 1_555
O11 Gd1A 1_555 1_555
C14 O12 1_555 1_555

#END
