
#######################################################################
#
#                 Cambridge Crystallographic Data Centre
#                                CCDC 
#
#######################################################################
#
# If this CIF has been generated from an entry in the Cambridge 
# Structural Database, then it will include bibliographic, chemical, 
# crystal, experimental, refinement or atomic coordinate data resulting 
# from the CCDC's data processing and validation procedures.
#
#######################################################################

data_NOMPOW
_chemical_formula_moiety         '(C79 H61 Co5 N5 O23)n'
_symmetry_cell_setting           monoclinic
_symmetry_space_group_name_H-M   'P 21/c'
_symmetry_Int_Tables_number      14
_space_group_name_Hall           '-P 2ybc'
loop_
_symmetry_equiv_pos_site_id
_symmetry_equiv_pos_as_xyz
1 x,y,z
2 -x,1/2+y,1/2-z
3 -x,-y,-z
4 x,1/2-y,1/2+z
_cell_length_a                   18.7481(18)
_cell_length_b                   20.0714(19)
_cell_length_c                   32.865(3)
_cell_angle_alpha                90
_cell_angle_beta                 98.5350(10)
_cell_angle_gamma                90
_cell_volume                     12230.2
loop_
_atom_site_label
_atom_site_type_symbol
_atom_site_fract_x
_atom_site_fract_y
_atom_site_fract_z
Co1 Co 0.79112(4) 0.19191(4) 0.99918(2)
Co2 Co 0.72417(4) 0.34000(4) 1.03839(2)
Co3 Co 0.77332(4) 0.35522(4) 0.94643(2)
Co4 Co 0.82347(4) 0.20818(4) 0.90729(2)
Co5 Co 0.67761(4) 0.18940(4) 1.07593(2)
N1 N 0.8748(3) 0.1529(3) 0.86348(15)
N2 N 1.2727(2) 0.5507(2) 0.95023(15)
N3 N 0.7699(2) 0.4639(2) 0.94636(15)
N4 N 0.6226(3) 0.3625(3) 0.61996(15)
O1 O 0.7187(2) 0.2437(2) 0.62249(12)
O2 O 0.7838(2) 0.1659(2) 0.59561(12)
O3 O 1.1813(2) -0.1196(2) 0.95867(12)
O4 O 1.2311(2) -0.1318(2) 0.90176(14)
O5 O 0.8753(2) 0.36247(19) 0.92858(13)
O6 O 0.9206(2) 0.2596(2) 0.92213(14)
O7 O 1.6217(2) 0.2614(2) 0.94642(16)
O8 O 1.67158(19) 0.35658(19) 0.97240(12)
O9 O 1.1246(2) 0.7494(2) 0.97237(13)
O10 O 1.17523(19) 0.64882(19) 0.98681(11)
O11 O 0.4233(2) 0.7603(2) 0.94150(14)
O12 O 0.3775(2) 0.6568(2) 0.94320(13)
O13 O 0.7185(2) 0.3562(2) 0.88720(12)
O14 O 0.7722(2) 0.2685(2) 0.86071(12)
O15 O 0.2575(2) 0.6360(2) 0.59935(13)
O16 O 0.2825(2) 0.6225(2) 0.53490(12)
O17 O 0.77056(19) 0.25428(18) 0.94941(11)
O18 O 0.8747(2) 0.1490(2) 0.96320(13)
O19 O 0.71301(19) 0.23824(18) 1.02719(11)
O20 O 0.6424(2) 0.1093(2) 1.03137(13)
C1 C 0.9277(3) 0.1092(3) 0.87493(18)
H1 H 0.9433 0.1035 0.9029
C2 C 0.9611(4) 0.0715(4) 0.8473(2)
C3 C 0.9395(4) 0.0833(4) 0.8051(2)
H2 H 0.9611 0.0601 0.7857
C4 C 0.8857(4) 0.1299(4) 0.7923(2)
C5 C 0.8546(4) 0.1620(3) 0.82315(18)
H3 H 0.8171 0.1918 0.8150
C6 C 1.0177(4) 0.0227(4) 0.8638(2)
C7 C 1.0105(4) -0.0106(4) 0.8999(2)
H4 H 0.9696 -0.0040 0.9123
C8 C 1.0639(4) -0.0536(4) 0.9175(2)
H5 H 1.0585 -0.0752 0.9419
C9 C 1.1253(3) -0.0652(4) 0.89958(19)
C10 C 1.1296(4) -0.0354(4) 0.8618(2)
H6 H 1.1685 -0.0448 0.8482
C11 C 1.0766(4) 0.0079(4) 0.8444(2)
H7 H 1.0804 0.0276 0.8192
C12 C 1.1842(3) -0.1099(3) 0.92118(19)
C13 C 0.8598(4) 0.1465(4) 0.7487(2)
C14 C 0.8613(6) 0.1055(5) 0.7171(2)
H8 H 0.8833 0.0642 0.7221
C15 C 0.8318(5) 0.1211(5) 0.6774(2)
H9 H 0.8341 0.0900 0.6566
C16 C 0.7999(4) 0.1798(3) 0.66773(19)
C17 C 0.8096(5) 0.2284(4) 0.6985(2)
H10 H 0.7961 0.2722 0.6921
C18 C 0.8386(5) 0.2124(4) 0.7379(3)
H11 H 0.8444 0.2455 0.7579
C19 C 0.7645(3) 0.1983(3) 0.62504(18)
C20 C 1.3332(3) 0.5170(3) 0.94827(19)
H12 H 1.3763 0.5407 0.9513
C21 C 1.3361(3) 0.4485(3) 0.9420(2)
C22 C 1.2706(3) 0.4140(3) 0.9361(2)
H13 H 1.2699 0.3683 0.9314
C23 C 1.2062(3) 0.4483(3) 0.93726(19)
C24 C 1.2107(3) 0.5169(3) 0.94463(19)
H14 H 1.1681 0.5403 0.9457
C25 C 1.4077(3) 0.4147(3) 0.9429(2)
C26 C 1.4686(3) 0.4460(4) 0.9629(2)
H15 H 1.4644 0.4879 0.9744
C27 C 1.5363(3) 0.4160(3) 0.9661(2)
H16 H 1.5765 0.4385 0.9793
C28 C 1.5447(3) 0.3537(3) 0.94993(19)
C29 C 1.4844(4) 0.3220(4) 0.9305(3)
H17 H 1.4886 0.2798 0.9194
C30 C 1.4169(4) 0.3519(4) 0.9271(3)
H18 H 1.3769 0.3291 0.9138
C31 C 1.6173(3) 0.3208(3) 0.95602(18)
C32 C 1.1352(3) 0.4139(3) 0.9321(2)
C33 C 1.1283(3) 0.3488(3) 0.9450(2)
H19 H 1.1693 0.3251 0.9560
C34 C 1.0611(3) 0.3183(3) 0.9417(2)
H20 H 1.0576 0.2744 0.9502
C35 C 0.9992(3) 0.3527(3) 0.92575(19)
C36 C 1.0063(3) 0.4171(3) 0.9116(2)
H21 H 0.9655 0.4404 0.8999
C37 C 1.0731(3) 0.4472(3) 0.9145(2)
H22 H 1.0766 0.4903 0.9046
C38 C 0.9258(3) 0.3224(3) 0.92570(18)
C39 C 0.7089(3) 0.4989(3) 0.94464(19)
H23 H 0.6659 0.4755 0.9434
C40 C 0.7059(3) 0.5673(3) 0.9445(2)
C41 C 0.7720(3) 0.6020(3) 0.9476(2)
H24 H 0.7724 0.6484 0.9483
C42 C 0.8365(3) 0.5670(3) 0.94945(19)
C43 C 0.8318(3) 0.4977(3) 0.94784(19)
H25 H 0.8741 0.4735 0.9478
C44 C 0.9088(3) 0.6001(3) 0.9538(2)
C45 C 0.9704(3) 0.5620(3) 0.9665(2)
H26 H 0.9656 0.5165 0.9705
C46 C 1.0379(3) 0.5900(3) 0.9731(2)
H27 H 1.0778 0.5634 0.9820
C47 C 1.0473(3) 0.6567(3) 0.96673(18)
C48 C 0.9872(3) 0.6951(3) 0.9533(3)
H28 H 0.9927 0.7403 0.9483
C49 C 0.9195(4) 0.6674(3) 0.9472(3)
H29 H 0.8798 0.6944 0.9385
C50 C 1.1207(3) 0.6875(3) 0.97534(17)
C51 C 0.6358(3) 0.6031(3) 0.9422(2)
C52 C 0.5735(3) 0.5748(3) 0.9215(2)
H30 H 0.5760 0.5345 0.9079
C53 C 0.5066(3) 0.6063(3) 0.9209(2)
H31 H 0.4653 0.5863 0.9070
C54 C 0.5009(3) 0.6668(3) 0.94044(19)
C55 C 0.5641(3) 0.6957(3) 0.9607(2)
H32 H 0.5620 0.7369 0.9735
C56 C 0.6300(3) 0.6636(4) 0.9621(2)
H33 H 0.6712 0.6830 0.9766
C57 C 0.4280(3) 0.6974(3) 0.94158(18)
C58 C 0.6453(3) 0.3550(3) 0.66010(18)
H34 H 0.6863 0.3293 0.6683
C59 C 0.6106(4) 0.3838(4) 0.6903(2)
C60 C 0.5525(4) 0.4250(4) 0.6780(2)
H35 H 0.5295 0.4463 0.6976
C61 C 0.5279(4) 0.4351(4) 0.6357(2)
C62 C 0.5648(3) 0.4008(3) 0.60863(19)
H36 H 0.5481 0.4047 0.5806
C63 C 0.6381(4) 0.3694(4) 0.7342(2)
C64 C 0.6610(5) 0.3031(5) 0.7446(3)
H37 H 0.6566 0.2704 0.7244
C65 C 0.6898(5) 0.2868(5) 0.7850(3)
H38 H 0.7048 0.2435 0.7917
C66 C 0.6960(4) 0.3367(4) 0.81575(19)
C67 C 0.6616(6) 0.3949(5) 0.8060(2)
H39 H 0.6572 0.4255 0.8267
C68 C 0.6326(6) 0.4102(5) 0.7657(2)
H40 H 0.6084 0.4504 0.7604
C69 C 0.7318(3) 0.3183(3) 0.85816(18)
C70 C 0.4667(4) 0.4789(4) 0.62031(19)
C71 C 0.4300(8) 0.4726(8) 0.5799(4)
H41 H 0.4434 0.4388 0.5633
C72 C 0.3745(8) 0.5151(8) 0.5643(4)
H42 H 0.3517 0.5103 0.5373
C73 C 0.3849(10) 0.5680(10) 0.6296(4)
H43 H 0.3685 0.5985 0.6474
C74 C 0.4413(10) 0.5254(10) 0.6444(4)
H44 H 0.4624 0.5290 0.6717
C75 C 0.3530(4) 0.5655(4) 0.5893(2)
C76 C 0.2925(3) 0.6115(3) 0.57314(18)
Co1A Co 0.20888(4) 0.69191(4) 0.50082(2)
Co1B Co 1.20888(4) -0.19191(4) 1.00082(2)
Co1B_2 Co 1.20888(4) 0.80809(4) 1.00082(2)
Co2_2 Co 1.72417(4) 0.34000(4) 1.03839(2)
Co2B Co 0.27583(4) 0.66000(4) 0.96161(2)
Co2B_2 Co 1.27583(4) 0.66000(4) 0.96161(2)
Co2C Co 0.72417(4) 0.16000(4) 0.53839(2)
Co3_2 Co 1.77332(4) 0.35522(4) 0.94643(2)
Co3B Co 1.22668(4) 0.64478(4) 1.05357(2)
Co4A Co 0.17653(4) 0.70818(4) 0.59271(2)
Co5B Co 0.32239(4) 0.81060(4) 0.92407(2)
Co5B_2 Co 1.32239(4) -0.18940(4) 0.92407(2)
Co5C Co 0.67761(4) 0.31060(4) 0.57593(2)
N2B N 0.7273(2) 0.4493(2) 1.04977(15)
N4C N 0.6226(3) 0.1375(3) 1.11996(15)
O1C O 0.7187(2) 0.2563(2) 1.12249(12)
O2C O 0.7838(2) 0.3341(2) 1.09561(12)
O3B O 0.8187(2) 0.1196(2) 1.04133(12)
O4B O 0.7689(2) 0.1318(2) 1.09824(14)
O8_2 O 0.67158(19) 0.35658(19) 0.97240(12)
O9B O 0.8754(2) 0.2506(2) 1.02763(13)
O10B O 0.82477(19) 0.35118(19) 1.01319(11)
O11B O 0.5767(2) 0.2397(2) 1.05850(14)
O12B O 0.6225(2) 0.3432(2) 1.05680(13)
O15A O 0.7425(2) 0.1360(2) 0.90065(13)
O16A O 0.7175(2) 0.1225(2) 0.96510(12)
N5 N 0.8676(9) 0.9325(8) 0.0076(5)
C77 C 0.8541(9) 0.9937(7) -0.0117(6)
H45 H 0.8119 1.0157 -0.0080
C78 C 0.9403(15) 0.8992(12) 0.0035(10)
H46 H 0.9340 0.8693 -0.0196
H47 H 0.9572 0.8748 0.0282
H48 H 0.9749 0.9328 -0.0007
C79 C 0.8326(19) 0.9047(14) 0.0435(9)
H49 H 0.8442 0.9330 0.0671
H50 H 0.8505 0.8606 0.0502
H51 H 0.7812 0.9031 0.0358
O21 O 0.8905(7) 1.0187(5) -0.0316(3)
O22 O 0.6533(15) 0.9747(8) 0.0555(9)
O23 O 0.4903(12) 0.8397(11) 0.0176(9)
loop_
_geom_bond_atom_site_label_1
_geom_bond_atom_site_label_2
_geom_bond_site_symmetry_1
_geom_bond_site_symmetry_2
Co1 O17 1_555 1_555
Co2 O19 1_555 1_555
Co3 N3 1_555 1_555
Co4 N1 1_555 1_555
Co5 O19 1_555 1_555
N1 C1 1_555 1_555
N2 C20 1_555 1_555
N3 C39 1_555 1_555
N4 C58 1_555 1_555
O1 C19 1_555 1_555
O2 C19 1_555 1_555
O3 C12 1_555 1_555
O4 C12 1_555 1_555
O5 Co3 1_555 1_555
O6 Co4 1_555 1_555
O7 C31 1_555 1_555
O8 C31 1_555 1_555
O9 C50 1_555 1_555
O10 C50 1_555 1_555
O11 C57 1_555 1_555
O12 C57 1_555 1_555
O13 Co3 1_555 1_555
O14 Co4 1_555 1_555
O15 C76 1_555 1_555
O16 C76 1_555 1_555
O17 Co3 1_555 1_555
O18 Co1 1_555 1_555
O19 Co1 1_555 1_555
O20 Co5 1_555 1_555
C1 H1 1_555 1_555
C2 C1 1_555 1_555
C3 C2 1_555 1_555
H2 C3 1_555 1_555
C4 C3 1_555 1_555
C5 N1 1_555 1_555
H3 C5 1_555 1_555
C6 C2 1_555 1_555
C7 C6 1_555 1_555
H4 C7 1_555 1_555
C8 C7 1_555 1_555
H5 C8 1_555 1_555
C9 C8 1_555 1_555
C10 C9 1_555 1_555
H6 C10 1_555 1_555
C11 C6 1_555 1_555
H7 C11 1_555 1_555
C12 C9 1_555 1_555
C13 C4 1_555 1_555
C14 C13 1_555 1_555
H8 C14 1_555 1_555
C15 C14 1_555 1_555
H9 C15 1_555 1_555
C16 C15 1_555 1_555
C17 C16 1_555 1_555
H10 C17 1_555 1_555
C18 C13 1_555 1_555
H11 C18 1_555 1_555
C19 C16 1_555 1_555
C20 H12 1_555 1_555
C21 C20 1_555 1_555
C22 C21 1_555 1_555
H13 C22 1_555 1_555
C23 C22 1_555 1_555
C24 N2 1_555 1_555
H14 C24 1_555 1_555
C25 C21 1_555 1_555
C26 C25 1_555 1_555
H15 C26 1_555 1_555
C27 C26 1_555 1_555
H16 C27 1_555 1_555
C28 C27 1_555 1_555
C29 C28 1_555 1_555
H17 C29 1_555 1_555
C30 C25 1_555 1_555
H18 C30 1_555 1_555
C31 C28 1_555 1_555
C32 C23 1_555 1_555
C33 C32 1_555 1_555
H19 C33 1_555 1_555
C34 C33 1_555 1_555
H20 C34 1_555 1_555
C35 C34 1_555 1_555
C36 C35 1_555 1_555
H21 C36 1_555 1_555
C37 C32 1_555 1_555
H22 C37 1_555 1_555
C38 O5 1_555 1_555
C39 H23 1_555 1_555
C40 C39 1_555 1_555
C41 C40 1_555 1_555
H24 C41 1_555 1_555
C42 C41 1_555 1_555
C43 N3 1_555 1_555
H25 C43 1_555 1_555
C44 C42 1_555 1_555
C45 C44 1_555 1_555
H26 C45 1_555 1_555
C46 C45 1_555 1_555
H27 C46 1_555 1_555
C47 C46 1_555 1_555
C48 C47 1_555 1_555
H28 C48 1_555 1_555
C49 C44 1_555 1_555
H29 C49 1_555 1_555
C50 C47 1_555 1_555
C51 C40 1_555 1_555
C52 C51 1_555 1_555
H30 C52 1_555 1_555
C53 C52 1_555 1_555
H31 C53 1_555 1_555
C54 C53 1_555 1_555
C55 C54 1_555 1_555
H32 C55 1_555 1_555
C56 C51 1_555 1_555
H33 C56 1_555 1_555
C57 C54 1_555 1_555
C58 H34 1_555 1_555
C59 C58 1_555 1_555
C60 C59 1_555 1_555
H35 C60 1_555 1_555
C61 C60 1_555 1_555
C62 N4 1_555 1_555
H36 C62 1_555 1_555
C63 C59 1_555 1_555
C64 C63 1_555 1_555
H37 C64 1_555 1_555
C65 C64 1_555 1_555
H38 C65 1_555 1_555
C66 C65 1_555 1_555
C67 C66 1_555 1_555
H39 C67 1_555 1_555
C68 C63 1_555 1_555
H40 C68 1_555 1_555
C69 O13 1_555 1_555
C70 C61 1_555 1_555
C71 C70 1_555 1_555
H41 C71 1_555 1_555
C72 C71 1_555 1_555
H42 C72 1_555 1_555
C73 H43 1_555 1_555
C74 C70 1_555 1_555
H44 C74 1_555 1_555
C75 C72 1_555 1_555
C76 C75 1_555 1_555
N5 C77 1_555 1_555
C77 H45 1_555 1_555
C78 N5 1_555 1_555
H46 C78 1_555 1_555
H47 C78 1_555 1_555
H48 C78 1_555 1_555
C79 N5 1_555 1_555
H49 C79 1_555 1_555
H50 C79 1_555 1_555
H51 C79 1_555 1_555
O21 C77 1_555 1_555
Co1A O16 1_555 1_555
Co1B O3 1_555 1_555
Co1B_2 O9 1_555 1_555
Co2_2 O8 1_555 1_555
Co2B O12 1_555 1_555
Co2B_2 N2 1_555 1_555
Co2C O2 1_555 1_555
Co3_2 O8 1_555 1_555
Co3B O10 1_555 1_555
Co4A O15 1_555 1_555
Co5B O11 1_555 1_555
Co5B_2 O4 1_555 1_555
Co5C N4 1_555 1_555
N2B Co2 1_555 1_555
N4C Co5 1_555 1_555
O1C Co5 1_555 1_555
O2C Co2 1_555 1_555
O3B Co1 1_555 1_555
O4B Co5 1_555 1_555
O8_2 Co2 1_555 1_555
O9B Co1 1_555 1_555
O10B Co2 1_555 1_555
O11B Co5 1_555 1_555
O12B Co2 1_555 1_555
O15A Co4 1_555 1_555
O16A Co1 1_555 1_555
Co3 O8_2 1_555 1_555
Co3 O10B 1_555 1_555
Co4 O17 1_555 1_555
Co4 O18 1_555 1_555
O1 Co5C 1_555 1_555
O6 C38 1_555 1_555
O10 Co2B_2 1_555 1_555
O14 C69 1_555 1_555
C4 C5 1_555 1_555
C10 C11 1_555 1_555
C17 C18 1_555 1_555
C23 C24 1_555 1_555
C29 C30 1_555 1_555
C35 C38 1_555 1_555
C36 C37 1_555 1_555
C42 C43 1_555 1_555
C48 C49 1_555 1_555
C55 C56 1_555 1_555
C61 C62 1_555 1_555
C66 C69 1_555 1_555
C67 C68 1_555 1_555
C73 C74 1_555 1_555
C73 C75 1_555 1_555

#END
