
#######################################################################
#
#                 Cambridge Crystallographic Data Centre
#                                CCDC 
#
#######################################################################
#
# If this CIF has been generated from an entry in the Cambridge 
# Structural Database, then it will include bibliographic, chemical, 
# crystal, experimental, refinement or atomic coordinate data resulting 
# from the CCDC's data processing and validation procedures.
#
#######################################################################

data_YONNAR
_chemical_formula_moiety         'C126 H89 N12 O71 Zn23'
_symmetry_cell_setting           orthorhombic
_symmetry_space_group_name_H-M   'P c a 21'
_symmetry_Int_Tables_number      29
_space_group_name_Hall           'P 2c -2ac'
loop_
_symmetry_equiv_pos_site_id
_symmetry_equiv_pos_as_xyz
1 x,y,z
2 -x,-y,1/2+z
3 1/2+x,-y,z
4 1/2-x,y,1/2+z
_cell_length_a                   27.4099(6)
_cell_length_b                   45.3338(8)
_cell_length_c                   20.1308(4)
_cell_angle_alpha                90
_cell_angle_beta                 90
_cell_angle_gamma                90
_cell_volume                     25014.4
loop_
_atom_site_label
_atom_site_type_symbol
_atom_site_fract_x
_atom_site_fract_y
_atom_site_fract_z
Zn1 Zn 0.75097(3) 0.409812(15) 0.31364(4)
Zn2 Zn 0.87102(2) 0.415994(12) 0.27102(3)
Zn3 Zn 0.81361(2) 0.352789(12) 0.25962(3)
Zn4 Zn 1.32000(3) 0.349190(13) 0.97464(3)
Zn5 Zn 1.21248(2) 0.415160(12) 0.54082(3)
Zn6 Zn 1.13342(3) 0.412970(13) 0.42392(4)
Zn7 Zn 1.24906(3) 0.085170(13) 0.90922(3)
Zn8 Zn 1.12813(2) 0.082970(12) 0.43158(3)
Zn9 Zn 1.18850(2) 0.144010(12) 0.45605(3)
Zn10 Zn 0.67616(3) 0.149190(15) 0.74742(4)
Zn11 Zn 0.68583(3) 0.082510(13) 0.67275(4)
Zn12 Zn 0.81142(3) 0.084720(14) 0.32939(4)
O1 O 1.2069(3) 0.11756(10) 0.5921(2)
O2 O 1.20469(18) 0.16140(8) 0.54030(19)
O3 O 1.26424(19) 0.11606(8) 0.82992(19)
O4 O 1.27778(19) 0.15974(9) 0.87920(19)
O5 O 1.2570(2) 0.38179(10) 0.8570(3)
O6 O 1.27268(19) 0.33775(9) 0.9006(2)
O7 O 1.2244(2) 0.38896(8) 0.6161(2)
O8 O 1.2287(2) 0.34764(11) 0.5535(2)
O9 O 0.80854(14) 0.39618(8) 0.25227(19)
H1 H 0.8007 0.4002 0.2124
C1 C 1.2353(3) 0.20613(12) 0.7135(3)
C2 C 1.2233(3) 0.19089(13) 0.6554(3)
H2 H 1.2148 0.2013 0.6174
C3 C 1.2241(3) 0.16066(12) 0.6541(3)
C4 C 1.2368(3) 0.14490(12) 0.7113(3)
H3 H 1.2372 0.1244 0.7105
C5 C 1.2490(3) 0.15991(12) 0.7693(3)
C6 C 1.2478(3) 0.19036(13) 0.7705(3)
H4 H 1.2555 0.2004 0.8094
C7 C 1.2107(3) 0.14432(12) 0.5920(3)
C8 C 1.2653(3) 0.14381(13) 0.8305(3)
C9 C 1.2371(4) 0.29531(13) 0.7232(3)
C10 C 1.2462(3) 0.30935(13) 0.7834(3)
H5 H 1.2511 0.2979 0.8211
C11 C 1.2482(3) 0.33950(13) 0.7890(3)
C12 C 1.2418(3) 0.35648(12) 0.7313(3)
H6 H 1.2431 0.3769 0.7337
C13 C 1.2337(3) 0.34300(13) 0.6710(3)
C14 C 1.2312(4) 0.31254(13) 0.6659(4)
H7 H 1.2256 0.3037 0.6249
C15 C 1.2597(3) 0.35406(13) 0.8543(3)
C16 C 1.2289(3) 0.36121(14) 0.6093(3)
C17 C 1.2328(5) 0.23810(15) 0.7163(4)
C18 C 1.2353(4) 0.26416(13) 0.7189(3)
O10 O 0.91710(18) 0.38447(9) 0.2982(3)
O11 O 0.88298(17) 0.34120(9) 0.2727(3)
O12 O 1.0795(2) 0.38849(10) 0.3966(3)
O13 O 1.1231(2) 0.34731(11) 0.4032(4)
O14 O 1.08783(18) 0.11630(8) 0.3972(2)
O15 O 1.12179(18) 0.15782(9) 0.4335(3)
O16 O 0.9275(2) 0.11829(10) 0.2881(4)
O17 O 0.89272(18) 0.16191(9) 0.2666(3)
C19 C 1.0050(3) 0.29666(13) 0.3445(5)
C20 C 0.9641(2) 0.31103(12) 0.3196(4)
H8 H 0.9383 0.3001 0.3027
C21 C 0.9616(2) 0.34122(11) 0.3198(3)
C22 C 1.0010(3) 0.35777(12) 0.3434(4)
H9 H 0.9994 0.3783 0.3427
C23 C 1.0420(3) 0.34408(14) 0.3674(4)
C24 C 1.0438(3) 0.31295(13) 0.3670(5)
H10 H 1.0716 0.3034 0.3823
C25 C 0.9172(2) 0.35708(12) 0.2952(3)
C26 C 1.0858(3) 0.36088(14) 0.3909(4)
C27 C 1.0094(3) 0.20740(12) 0.3483(4)
C28 C 1.0481(2) 0.19144(13) 0.3767(4)
H11 H 1.0741 0.2012 0.3965
C29 C 1.0469(2) 0.16077(12) 0.3747(3)
C30 C 1.0078(2) 0.14622(12) 0.3471(4)
H12 H 1.0073 0.1257 0.3473
C31 C 0.9698(2) 0.16124(12) 0.3197(4)
C32 C 0.9711(2) 0.19228(12) 0.3193(4)
H13 H 0.9459 0.2028 0.2993
C33 C 1.0894(2) 0.14343(11) 0.4056(3)
C34 C 0.9260(3) 0.14531(14) 0.2900(4)
C35 C 1.0071(3) 0.26543(14) 0.3468(6)
C36 C 1.0096(3) 0.23885(14) 0.3489(6)
O18 O 0.7719(2) 0.37977(9) 0.3891(2)
O19 O 0.7867(2) 0.33621(9) 0.3395(2)
O20 O 0.7147(3) 0.37904(9) 0.6260(2)
O21 O 0.70653(18) 0.33490(8) 0.6769(2)
O22 O 0.7026(2) 0.10905(11) 0.6016(3)
O23 O 0.6710(3) 0.14979(12) 0.6456(3)
O24 O 0.7782(3) 0.11057(11) 0.3888(3)
O25 O 0.8054(3) 0.15340(14) 0.3451(4)
C37 C 0.7419(4) 0.28955(13) 0.5043(4)
C38 C 0.7567(4) 0.30517(14) 0.4490(3)
H14 H 0.7663 0.2951 0.4110
C39 C 0.7574(3) 0.33596(12) 0.4498(3)
C40 C 0.7449(3) 0.35114(12) 0.5081(3)
H15 H 0.7463 0.3716 0.5092
C41 C 0.7306(3) 0.33549(12) 0.5644(3)
C42 C 0.7287(3) 0.30477(12) 0.5612(3)
H16 H 0.7183 0.2942 0.5982
C43 C 0.7739(3) 0.35267(13) 0.3882(3)
C44 C 0.7163(3) 0.35145(12) 0.6270(3)
C45 C 0.7380(4) 0.20017(13) 0.4988(4)
C46 C 0.7187(4) 0.18420(15) 0.5492(4)
H17 H 0.7063 0.1941 0.5859
C47 C 0.7168(3) 0.15345(14) 0.5484(4)
C48 C 0.7380(3) 0.13928(14) 0.4939(4)
H18 H 0.7373 0.1188 0.4916
C49 C 0.7596(4) 0.15483(15) 0.4440(4)
C50 C 0.7592(4) 0.18490(16) 0.4446(4)
H19 H 0.7728 0.1954 0.4094
C51 C 0.6951(4) 0.13664(15) 0.6025(4)
C52 C 0.7835(4) 0.13854(17) 0.3880(4)
C53 C 0.7400(4) 0.25845(14) 0.5027(4)
C54 C 0.7399(5) 0.23178(15) 0.5010(4)
O26 O 0.72995(19) 0.05144(10) 0.8053(2)
O27 O 0.74796(18) 0.06299(10) 0.6997(3)
O28 O 0.78574(17) -0.05191(9) 0.8602(2)
O29 O 0.86583(17) -0.05913(9) 0.8511(2)
O30 O 1.14995(19) -0.05025(11) 0.6352(3)
O31 O 1.0926(4) -0.0580(2) 0.7079(6)
O32 O 1.1449(2) 0.03866(14) 0.4966(3)
O33 O 1.07977(19) 0.06723(10) 0.4967(3)
C55 C 0.8771(2) 0.01242(15) 0.7203(3)
C56 C 0.8380(3) 0.03143(12) 0.7168(3)
H20 H 0.8395 0.0476 0.6886
C57 C 0.7972(2) 0.02695(12) 0.7536(3)
C58 C 0.7925(2) 0.00209(12) 0.7947(3)
H21 H 0.7645 -0.0008 0.8199
C59 C 0.8310(2) -0.01834(12) 0.7968(3)
C60 C 0.8730(2) -0.01294(13) 0.7612(3)
H22 H 0.8989 -0.0261 0.7640
C61 C 0.7543(2) 0.04906(13) 0.7519(3)
C62 C 0.8266(2) -0.04525(12) 0.8398(3)
C63 C 1.0099(2) 0.01189(15) 0.6355(3)
C64 C 1.0357(3) -0.01271(16) 0.6576(4)
H23 H 1.0216 -0.0253 0.6887
C65 C 1.0821(2) -0.01866(14) 0.6335(3)
C66 C 1.1024(2) -0.00051(14) 0.5873(3)
H24 H 1.1329 -0.0050 0.5697
C67 C 1.0780(2) 0.02468(12) 0.5662(3)
C68 C 1.0321(2) 0.03114(14) 0.5897(3)
H25 H 1.0159 0.0480 0.5754
C69 C 1.1101(3) -0.04424(15) 0.6609(4)
C70 C 1.1031(3) 0.04461(15) 0.5173(3)
C71 C 0.9222(3) 0.01642(15) 0.6860(4)
C72 C 0.9613(3) 0.01658(16) 0.6612(4)
O34 O 1.19081(14) 0.39435(8) 0.46094(19)
H26 H 1.2134 0.3962 0.4323
O35 O 1.16055(17) 0.44177(9) 0.5740(2)
O36 O 1.10805(19) 0.44081(10) 0.4878(3)
O37 O 1.1563(2) 0.53553(15) 0.7078(4)
O38 O 1.0909(2) 0.56352(10) 0.7037(3)
O39 O 0.72548(19) 0.53991(11) 0.4527(3)
O40 O 0.77092(16) 0.56108(9) 0.5308(3)
O41 O 0.78576(16) 0.44579(9) 0.3539(2)
O42 O 0.86625(17) 0.43824(10) 0.3536(2)
C73 C 1.0223(3) 0.50590(15) 0.5717(4)
C74 C 1.0496(2) 0.48175(14) 0.5475(4)
H27 H 1.0362 0.4692 0.5159
C75 C 1.0963(2) 0.47679(12) 0.5710(3)
C76 C 1.1166(3) 0.49508(15) 0.6176(3)
H28 H 1.1472 0.4908 0.6351
C77 C 1.0916(3) 0.52000(14) 0.6386(3)
C78 C 1.0440(2) 0.52484(14) 0.6159(3)
H29 H 1.0268 0.5412 0.6311
C79 C 1.1236(2) 0.45072(12) 0.5421(3)
C80 C 1.1148(3) 0.54047(14) 0.6875(4)
C81 C 0.8878(2) 0.50506(15) 0.4903(4)
C82 C 0.8495(3) 0.52491(14) 0.5020(3)
H30 H 0.8542 0.5407 0.5308
C83 C 0.8051(2) 0.52128(13) 0.4716(3)
C84 C 0.7981(2) 0.49744(12) 0.4285(3)
H31 H 0.7681 0.4949 0.4077
C85 C 0.8355(2) 0.47766(12) 0.4168(3)
C86 C 0.8802(2) 0.48207(15) 0.4473(4)
H32 H 0.9057 0.4691 0.4385
C87 C 0.7634(2) 0.54179(14) 0.4848(4)
C88 C 0.8274(2) 0.45192(12) 0.3705(3)
C89 C 0.9742(3) 0.50940(15) 0.5461(4)
C90 C 0.9346(3) 0.50856(16) 0.5226(4)
O43 O 0.6901(2) 0.42129(18) 0.3698(5)
N1 N 0.6601(15) 0.4499(10) 0.434(3)
C91 C 0.6947(12) 0.4304(7) 0.4269(8)
H33 H 0.7178 0.4247 0.4581
O44 O 0.7122(2) 0.37297(17) 0.2734(4)
N2 N 0.6427(8) 0.3464(4) 0.2624(12)
C92 C 0.6702(4) 0.3677(4) 0.2859(10)
H34 H 0.6553 0.3803 0.3161
O45 O 0.7173(3) 0.43346(18) 0.2411(4)
N3 N 0.7151(6) 0.4522(4) 0.1409(8)
C93 C 0.7368(6) 0.4454(3) 0.1968(7)
H35 H 0.7695 0.4504 0.2016
C94 C 0.7426(10) 0.4662(6) 0.0846(13)
C95 C 0.6644(7) 0.4419(6) 0.1344(16)
O46 O 1.3346(3) 0.30509(12) 0.9951(3)
N4 N 1.3282(6) 0.2575(3) 0.9819(9)
C96 C 1.3142(5) 0.2848(3) 0.9693(8)
H36 H 1.2884 0.2883 0.9403
C97 C 1.3015(13) 0.2337(8) 0.945(2)
C98 C 1.3611(10) 0.2495(6) 1.0389(13)
C99 C 1.2460(13) 0.2383(7) 0.953(2)
O47 O 1.3741(3) 0.36423(16) 1.0434(4)
N5 N 1.4127(10) 0.3572(5) 1.1415(11)
C100 C 1.3943(7) 0.3489(4) 1.0837(8)
H37 H 1.3974 0.3290 1.0730
O48 O 1.2073(2) 0.11754(12) 0.9538(3)
N6 N 1.1344(4) 0.1402(3) 0.9666(8)
C101 C 1.1627(3) 0.1180(3) 0.9545(8)
H38 H 1.1472 0.1002 0.9452
C102 C 1.1563(14) 0.1642(7) 1.0097(18)
O49 O 1.18833(19) 0.07086(14) 0.8540(3)
N7 N 1.1660(4) 0.0527(2) 0.7563(4)
C103 C 1.1909(4) 0.0699(2) 0.7937(4)
H39 H 1.2127 0.0827 0.7731
C104 C 1.1729(6) 0.0536(3) 0.6829(6)
H40 H 1.1831 0.0732 0.6695
H41 H 1.1422 0.0492 0.6611
C105 C 1.2116(6) 0.0309(4) 0.6614(10)
H42 H 1.2243 0.0211 0.6999
H43 H 1.2376 0.0409 0.6387
H44 H 1.1970 0.0167 0.6322
C106 C 1.1218(6) 0.0361(4) 0.7800(13)
H45 H 1.0985 0.0338 0.7441
H46 H 1.1062 0.0466 0.8161
C107 C 1.1395(10) 0.0057(5) 0.8037(15)
H47 H 1.1680 0.0001 0.7790
H48 H 1.1142 -0.0086 0.7970
H49 H 1.1474 0.0067 0.8502
O50 O 1.2270(2) 0.05551(11) 0.9824(3)
N8 N 1.2140(4) 0.0083(2) 1.0132(8)
C108 C 1.2395(3) 0.02931(15) 0.9837(5)
H50 H 1.2686 0.0241 0.9629
C109 C 1.1658(5) 0.0148(4) 1.0471(9)
H51 H 1.1641 0.0351 1.0617
H52 H 1.1607 0.0019 1.0849
C110 C 1.2429(7) -0.0166(4) 1.0436(11)
H53 H 1.2375 -0.0181 1.0911
H54 H 1.2775 -0.0146 1.0349
C111 C 1.1286(10) 0.0085(7) 0.9917(14)
H55 H 1.1455 0.0040 0.9512
H56 H 1.1084 0.0256 0.9851
H57 H 1.1085 -0.0080 1.0041
C112 C 1.2211(12) -0.0427(5) 1.0067(16)
H58 H 1.1883 -0.0381 0.9936
H59 H 1.2208 -0.0597 1.0353
H60 H 1.2403 -0.0469 0.9680
O51 O 0.8652(2) 0.06895(16) 0.3831(3)
N9 N 0.9446(3) 0.0615(2) 0.4008(4)
C113 C 0.9069(3) 0.06424(17) 0.3627(4)
H61 H 0.9116 0.0625 0.3171
C114 C 0.9405(6) 0.0662(3) 0.4739(5)
H62 H 0.9621 0.0527 0.4969
H63 H 0.9073 0.0622 0.4881
C115 C 0.9934(4) 0.0567(3) 0.3706(7)
H64 H 1.0168 0.0704 0.3895
H65 H 0.9919 0.0602 0.3231
C116 C 1.0097(8) 0.0248(3) 0.3841(11)
H66 H 1.0220 0.0233 0.4286
H67 H 1.0349 0.0194 0.3532
H68 H 0.9824 0.0118 0.3789
C117 C 0.9536(9) 0.0974(4) 0.4913(12)
H69 H 0.9880 0.1003 0.4851
H70 H 0.9453 0.1011 0.5369
H71 H 0.9359 0.1107 0.4632
O52 O 0.7509(3) 0.13670(18) 0.7279(6)
N10 N 0.8276(8) 0.1438(4) 0.7305(12)
C118 C 0.7840(7) 0.1515(5) 0.7482(13)
H72 H 0.7786 0.1677 0.7756
O53 O 0.6980(3) 0.19384(14) 0.7397(5)
N11 N 0.6936(8) 0.2390(4) 0.7606(14)
C119 C 0.6702(6) 0.2138(2) 0.7513(14)
H73 H 0.6365 0.2117 0.7534
C120 C 0.6668(12) 0.2672(6) 0.7745(18)
H74 H 0.6880 0.2843 0.7746
H75 H 0.6395 0.2703 0.7446
C121 C 0.7427(10) 0.2446(6) 0.7298(17)
H76 H 0.7475 0.2333 0.6894
H77 H 0.7481 0.2654 0.7210
C122 C 0.7745(18) 0.2332(11) 0.788(2)
H78 H 0.7685 0.2125 0.7943
H79 H 0.8084 0.2361 0.7774
H80 H 0.7665 0.2437 0.8276
C123 C 0.6505(17) 0.2580(8) 0.845(2)
H81 H 0.6682 0.2407 0.8584
H82 H 0.6571 0.2737 0.8755
H83 H 0.6162 0.2538 0.8448
O54 O 1.1481(3) 0.43259(15) 0.3388(3)
N12 N 1.1995(6) 0.4437(4) 0.2555(6)
C124 C 1.1893(4) 0.4380(3) 0.3177(5)
H84 H 1.2151 0.4253 0.3274
C125 C 1.2502(14) 0.4710(7) 0.248(2)
C126 C 1.1596(13) 0.4468(9) 0.2038(18)
O55 O 1.31014(13) 0.10083(7) 0.96132(17)
H85 H 1.3063 0.0962 1.0019
O56 O 0.66269(15) 0.10412(8) 0.7509(2)
H86 H 0.6319 0.1020 0.7521
Zn2A Zn 1.12898(2) 0.584006(12) 0.77102(3)
Zn3C Zn 0.68639(2) 0.352789(12) 0.75962(3)
Zn4C Zn 1.18000(3) 0.349190(13) 0.47464(3)
Zn5B Zn 0.71248(2) 0.584840(12) 0.54082(3)
Zn7B Zn 0.74906(3) -0.085170(13) 0.90922(3)
Zn8A Zn 0.87187(2) -0.082970(12) 0.93158(3)
Zn8C Zn 1.37187(2) 0.082970(12) 0.93158(3)
Zn9C Zn 1.31150(2) 0.144010(12) 0.95605(3)
Zn10C Zn 0.82384(3) 0.149190(15) 0.24742(4)
Zn11B Zn 1.18583(3) -0.082510(13) 0.67275(4)
Zn12C Zn 0.68858(3) 0.084720(14) 0.82939(4)
O4C O 1.22222(19) 0.15974(9) 0.37920(19)
O8C O 1.2713(2) 0.34764(11) 1.0535(2)
O13C O 1.3769(2) 0.34731(11) 0.9032(4)
O17C O 0.60728(18) 0.16191(9) 0.7666(3)
O21C O 0.79347(18) 0.33490(8) 0.1769(2)
O25C O 0.6946(3) 0.15340(14) 0.8451(4)
O26C O 0.77005(19) 0.05144(10) 0.3053(2)
O28B O 1.28574(17) 0.05191(9) 0.8602(2)
O29A O 1.13417(17) 0.05913(9) 0.3511(2)
O30B O 0.64995(19) 0.05025(11) 0.6352(3)
O34C O 1.30919(14) 0.39435(8) 0.96094(19)
H26C H 1.2866 0.3962 0.9323
O38A O 0.9091(2) 0.43648(10) 0.2037(3)
O40B O 1.27092(16) 0.43892(9) 0.5308(3)
O55C O 1.18986(13) 0.10083(7) 0.46132(17)
H85C H 1.1937 0.0962 0.5019
O56C O 0.83731(15) 0.10412(8) 0.2509(2)
H86C H 0.8681 0.1020 0.2521
loop_
_geom_bond_atom_site_label_1
_geom_bond_atom_site_label_2
_geom_bond_site_symmetry_1
_geom_bond_site_symmetry_2
Zn1 O9 1_555 1_555
Zn2 O9 1_555 1_555
Zn3 O9 1_555 1_555
Zn4 O6 1_555 1_555
Zn5 O7 1_555 1_555
Zn6 O12 1_555 1_555
Zn7 O3 1_555 1_555
Zn8 O14 1_555 1_555
Zn9 O2 1_555 1_555
Zn10 O23 1_555 1_555
Zn11 O22 1_555 1_555
Zn12 O24 1_555 1_555
O1 C7 1_555 1_555
O2 C7 1_555 1_555
O3 C8 1_555 1_555
O4 C8 1_555 1_555
O5 C15 1_555 1_555
O6 C15 1_555 1_555
O7 C16 1_555 1_555
O8 C16 1_555 1_555
O9 H1 1_555 1_555
C1 C2 1_555 1_555
C2 H2 1_555 1_555
C3 C2 1_555 1_555
C4 C3 1_555 1_555
H3 C4 1_555 1_555
C5 C4 1_555 1_555
C6 C1 1_555 1_555
H4 C6 1_555 1_555
C7 C3 1_555 1_555
C8 C5 1_555 1_555
C9 C10 1_555 1_555
C10 H5 1_555 1_555
C11 C10 1_555 1_555
C12 C11 1_555 1_555
H6 C12 1_555 1_555
C13 C12 1_555 1_555
C14 C9 1_555 1_555
H7 C14 1_555 1_555
C15 C11 1_555 1_555
C16 C13 1_555 1_555
C17 C1 1_555 1_555
C18 C9 1_555 1_555
O10 Zn2 1_555 1_555
O11 Zn3 1_555 1_555
O12 C26 1_555 1_555
O13 C26 1_555 1_555
O14 C33 1_555 1_555
O15 Zn9 1_555 1_555
O16 C34 1_555 1_555
O17 C34 1_555 1_555
C19 C20 1_555 1_555
C20 H8 1_555 1_555
C21 C20 1_555 1_555
C22 C21 1_555 1_555
H9 C22 1_555 1_555
C23 C22 1_555 1_555
C24 C19 1_555 1_555
H10 C24 1_555 1_555
C25 O10 1_555 1_555
C26 C23 1_555 1_555
C27 C28 1_555 1_555
C28 H11 1_555 1_555
C29 C28 1_555 1_555
C30 C29 1_555 1_555
H12 C30 1_555 1_555
C31 C30 1_555 1_555
C32 C27 1_555 1_555
H13 C32 1_555 1_555
C33 O15 1_555 1_555
C34 C31 1_555 1_555
C35 C19 1_555 1_555
C36 C27 1_555 1_555
O18 Zn1 1_555 1_555
O19 Zn3 1_555 1_555
O20 C44 1_555 1_555
O21 C44 1_555 1_555
O22 C51 1_555 1_555
O23 C51 1_555 1_555
O24 C52 1_555 1_555
O25 C52 1_555 1_555
C37 C38 1_555 1_555
C38 H14 1_555 1_555
C39 C38 1_555 1_555
C40 C39 1_555 1_555
H15 C40 1_555 1_555
C41 C40 1_555 1_555
C42 C37 1_555 1_555
H16 C42 1_555 1_555
C43 O18 1_555 1_555
C44 C41 1_555 1_555
C45 C46 1_555 1_555
C46 H17 1_555 1_555
C47 C46 1_555 1_555
C48 C47 1_555 1_555
H18 C48 1_555 1_555
C49 C48 1_555 1_555
C50 C45 1_555 1_555
H19 C50 1_555 1_555
C51 C47 1_555 1_555
C52 C49 1_555 1_555
C53 C37 1_555 1_555
C54 C45 1_555 1_555
O26 C61 1_555 1_555
O27 Zn11 1_555 1_555
O28 C62 1_555 1_555
O29 C62 1_555 1_555
O30 C69 1_555 1_555
O31 C69 1_555 1_555
O32 Zn8 1_555 1_555
O33 Zn8 1_555 1_555
C55 C56 1_555 1_555
C56 H20 1_555 1_555
C57 C56 1_555 1_555
C58 C57 1_555 1_555
H21 C58 1_555 1_555
C59 C58 1_555 1_555
C60 C55 1_555 1_555
H22 C60 1_555 1_555
C61 O27 1_555 1_555
C62 C59 1_555 1_555
C63 C64 1_555 1_555
C64 H23 1_555 1_555
C65 C64 1_555 1_555
C66 C65 1_555 1_555
H24 C66 1_555 1_555
C67 C66 1_555 1_555
C68 C63 1_555 1_555
H25 C68 1_555 1_555
C69 C65 1_555 1_555
C70 O32 1_555 1_555
C71 C55 1_555 1_555
C72 C63 1_555 1_555
O34 Zn5 1_555 1_555
H26 O34 1_555 1_555
O35 Zn5 1_555 1_555
O36 Zn6 1_555 1_555
O37 C80 1_555 1_555
O38 C80 1_555 1_555
O39 C87 1_555 1_555
O40 C87 1_555 1_555
O41 Zn1 1_555 1_555
O42 Zn2 1_555 1_555
C73 C74 1_555 1_555
C74 H27 1_555 1_555
C75 C74 1_555 1_555
C76 C75 1_555 1_555
H28 C76 1_555 1_555
C77 C76 1_555 1_555
C78 C73 1_555 1_555
H29 C78 1_555 1_555
C79 O35 1_555 1_555
C80 C77 1_555 1_555
C81 C82 1_555 1_555
C82 H30 1_555 1_555
C83 C82 1_555 1_555
C84 C83 1_555 1_555
H31 C84 1_555 1_555
C85 C84 1_555 1_555
C86 C81 1_555 1_555
H32 C86 1_555 1_555
C87 C83 1_555 1_555
C88 O41 1_555 1_555
C89 C73 1_555 1_555
C90 C81 1_555 1_555
O43 Zn1 1_555 1_555
N1 C91 1_555 1_555
C91 O43 1_555 1_555
H33 C91 1_555 1_555
O44 Zn1 1_555 1_555
N2 C92 1_555 1_555
C92 O44 1_555 1_555
H34 C92 1_555 1_555
O45 Zn1 1_555 1_555
N3 C93 1_555 1_555
C93 O45 1_555 1_555
H35 C93 1_555 1_555
C94 N3 1_555 1_555
C95 N3 1_555 1_555
O46 Zn4 1_555 1_555
N4 C96 1_555 1_555
C96 O46 1_555 1_555
H36 C96 1_555 1_555
C97 N4 1_555 1_555
C98 N4 1_555 1_555
C99 C97 1_555 1_555
O47 Zn4 1_555 1_555
N5 C100 1_555 1_555
C100 O47 1_555 1_555
H37 C100 1_555 1_555
O48 Zn7 1_555 1_555
N6 C101 1_555 1_555
C101 O48 1_555 1_555
H38 C101 1_555 1_555
C102 N6 1_555 1_555
O49 Zn7 1_555 1_555
N7 C103 1_555 1_555
C103 O49 1_555 1_555
H39 C103 1_555 1_555
C104 N7 1_555 1_555
H40 C104 1_555 1_555
H41 C104 1_555 1_555
C105 C104 1_555 1_555
H42 C105 1_555 1_555
H43 C105 1_555 1_555
H44 C105 1_555 1_555
C106 N7 1_555 1_555
H45 C106 1_555 1_555
H46 C106 1_555 1_555
C107 C106 1_555 1_555
H47 C107 1_555 1_555
H48 C107 1_555 1_555
H49 C107 1_555 1_555
O50 Zn7 1_555 1_555
N8 C108 1_555 1_555
C108 O50 1_555 1_555
H50 C108 1_555 1_555
C109 N8 1_555 1_555
H51 C109 1_555 1_555
H52 C109 1_555 1_555
C110 N8 1_555 1_555
H53 C110 1_555 1_555
H54 C110 1_555 1_555
C111 C109 1_555 1_555
H55 C111 1_555 1_555
H56 C111 1_555 1_555
H57 C111 1_555 1_555
C112 C110 1_555 1_555
H58 C112 1_555 1_555
H59 C112 1_555 1_555
H60 C112 1_555 1_555
O51 Zn12 1_555 1_555
N9 C113 1_555 1_555
C113 O51 1_555 1_555
H61 C113 1_555 1_555
C114 N9 1_555 1_555
H62 C114 1_555 1_555
H63 C114 1_555 1_555
C115 N9 1_555 1_555
H64 C115 1_555 1_555
H65 C115 1_555 1_555
C116 C115 1_555 1_555
H66 C116 1_555 1_555
H67 C116 1_555 1_555
H68 C116 1_555 1_555
C117 C114 1_555 1_555
H69 C117 1_555 1_555
H70 C117 1_555 1_555
H71 C117 1_555 1_555
O52 Zn10 1_555 1_555
N10 C118 1_555 1_555
C118 O52 1_555 1_555
H72 C118 1_555 1_555
O53 Zn10 1_555 1_555
N11 C119 1_555 1_555
C119 O53 1_555 1_555
H73 C119 1_555 1_555
C120 N11 1_555 1_555
H74 C120 1_555 1_555
H75 C120 1_555 1_555
C121 N11 1_555 1_555
H76 C121 1_555 1_555
H77 C121 1_555 1_555
C122 C121 1_555 1_555
H78 C122 1_555 1_555
H79 C122 1_555 1_555
H80 C122 1_555 1_555
C123 C120 1_555 1_555
H81 C123 1_555 1_555
H82 C123 1_555 1_555
H83 C123 1_555 1_555
O54 Zn6 1_555 1_555
N12 C124 1_555 1_555
C124 O54 1_555 1_555
H84 C124 1_555 1_555
C125 N12 1_555 1_555
C126 N12 1_555 1_555
O55 Zn7 1_555 1_555
H85 O55 1_555 1_555
O56 Zn10 1_555 1_555
H86 O56 1_555 1_555
Zn2A O38 1_555 1_555
Zn3C O21 1_555 1_555
Zn4C O8 1_555 1_555
Zn5B O40 1_555 1_555
Zn7B O28 1_555 1_555
Zn8A O29 1_555 1_555
Zn8C O55 1_555 1_555
Zn9C O4 1_555 1_555
Zn10C O17 1_555 1_555
Zn11B O30 1_555 1_555
Zn12C O26 1_555 1_555
O4C Zn9 1_555 1_555
O8C Zn4 1_555 1_555
O13C Zn4 1_555 1_555
O17C Zn10 1_555 1_555
O21C Zn3 1_555 1_555
O25C Zn10 1_555 1_555
O26C Zn12 1_555 1_555
O28B Zn7 1_555 1_555
O29A Zn8 1_555 1_555
O30B Zn11 1_555 1_555
O34C Zn4 1_555 1_555
H26C O34C 1_555 1_555
O38A Zn2 1_555 1_555
O40B Zn5 1_555 1_555
O55C Zn8 1_555 1_555
H85C O55C 1_555 1_555
O56C Zn12 1_555 1_555
H86C O56C 1_555 1_555
Zn6 O34 1_555 1_555
Zn9 O55C 1_555 1_555
Zn11 O56 1_555 1_555
C5 C6 1_555 1_555
C13 C14 1_555 1_555
C17 C18 1_555 1_555
O11 C25 1_555 1_555
O13 Zn4C 1_555 1_555
C21 C25 1_555 1_555
C23 C24 1_555 1_555
C29 C33 1_555 1_555
C31 C32 1_555 1_555
C35 C36 1_555 1_555
O19 C43 1_555 1_555
O25 Zn10C 1_555 1_555
C39 C43 1_555 1_555
C41 C42 1_555 1_555
C49 C50 1_555 1_555
C53 C54 1_555 1_555
O33 C70 1_555 1_555
C57 C61 1_555 1_555
C59 C60 1_555 1_555
C67 C68 1_555 1_555
C67 C70 1_555 1_555
C71 C72 1_555 1_555
O34 Zn4C 1_555 1_555
O36 C79 1_555 1_555
O42 C88 1_555 1_555
C75 C79 1_555 1_555
C77 C78 1_555 1_555
C85 C86 1_555 1_555
C85 C88 1_555 1_555
C89 C90 1_555 1_555
O55 Zn9C 1_555 1_555
O56 Zn12C 1_555 1_555
Zn10C O56C 1_555 1_555

#END
