
#######################################################################
#
#                 Cambridge Crystallographic Data Centre
#                                CCDC 
#
#######################################################################
#
# If this CIF has been generated from an entry in the Cambridge 
# Structural Database, then it will include bibliographic, chemical, 
# crystal, experimental, refinement or atomic coordinate data resulting 
# from the CCDC's data processing and validation procedures.
#
#######################################################################

data_HURFIL
_chemical_formula_moiety         'C47 H55 N13 O24 Zn12'
_symmetry_cell_setting           orthorhombic
_symmetry_space_group_name_H-M   'P n m a'
_symmetry_Int_Tables_number      62
_space_group_name_Hall           '-P 2ac 2n'
loop_
_symmetry_equiv_pos_site_id
_symmetry_equiv_pos_as_xyz
1 x,y,z
2 1/2-x,-y,1/2+z
3 -x,1/2+y,-z
4 1/2+x,1/2-y,1/2-z
5 -x,-y,-z
6 1/2+x,y,1/2-z
7 x,1/2-y,z
8 1/2-x,1/2+y,1/2+z
_cell_length_a                   15.1796(19)
_cell_length_b                   19.303(2)
_cell_length_c                   25.806(3)
_cell_angle_alpha                90
_cell_angle_beta                 90
_cell_angle_gamma                90
_cell_volume                     7561.46
loop_
_atom_site_label
_atom_site_type_symbol
_atom_site_fract_x
_atom_site_fract_y
_atom_site_fract_z
C24 C 0.7783(9) 0.7500 0.8611(5)
H26 H 0.7193 0.7500 0.8708
C25 C 0.8118(14) 0.7500 0.9539(6)
C26 C 0.9268(11) 0.7500 0.8899(7)
N6 N 0.8346(8) 0.7500 0.8987(4)
O10 O 0.7925(5) 0.7500 0.8157(3)
Zn1 Zn 0.69910(7) 0.7500 0.68767(4)
Zn2 Zn 0.52963(6) 0.96428(4) 0.54850(3)
Zn3 Zn 0.57345(5) 0.83853(4) 0.76664(3)
N1 N 0.6397(4) 0.8346(3) 0.6598(2)
N2 N 0.5803(3) 0.8694(3) 0.69184(19)
N3 N 0.5737(4) 0.9153(3) 0.61318(19)
N4 N 0.4607(3) 0.7859(3) 0.7840(2)
N5 N 0.3292(5) 0.7500 0.8057(3)
O1 O 0.5269(4) 1.0656(2) 0.5711(2)
O2 O 0.4859(4) 1.1207(2) 0.4990(2)
O3 O 0.6450(3) 0.9820(3) 0.5091(2)
O4 O 0.6027(4) 1.0383(3) 0.4384(2)
O5 O 0.8397(5) 1.1209(3) 0.3177(2)
O6 O 0.9582(4) 1.0609(4) 0.3098(2)
O7 O 0.6466(4) 0.7500 0.7575(2)
H1 H 0.6886 0.7500 0.7793
O8 O 0.5449(13) 1.2500 0.7061(5)
O9 O 0.9625(6) 0.9149(5) 0.4720(4)
C1 C 0.6921(6) 0.8442(5) 0.5690(3)
H2 H 0.7392 0.8151 0.5809
H3 H 0.7161 0.8851 0.5533
H4 H 0.6575 0.8194 0.5439
C2 C 0.6351(5) 0.8642(4) 0.6139(2)
C3 C 0.5424(5) 0.9168(3) 0.6621(2)
C4 C 0.4737(6) 0.9658(5) 0.6805(3)
H5 H 0.4174 0.9433 0.6801
H6 H 0.4721 1.0055 0.6580
H7 H 0.4873 0.9804 0.7151
C5 C 0.5106(5) 1.1189(4) 0.5468(3)
C6 C 0.5157(6) 1.1878(4) 0.5741(3)
C7 C 0.5262(9) 1.1878(5) 0.6267(4)
H8 H 0.5309 1.1462 0.6447
C8 C 0.5298(15) 1.2500 0.6528(6)
C9 C 0.5059(8) 1.2500 0.5475(4)
H9 H 0.4931 1.2500 0.5122
C10 C 0.8866(6) 1.0730(5) 0.3321(3)
C11 C 0.8591(6) 1.0311(4) 0.3786(3)
C12 C 0.9221(7) 0.9875(6) 0.4020(4)
H10 H 0.9766 0.9803 0.3864
C13 C 0.9013(7) 0.9551(7) 0.4491(5)
C14 C 0.8153(7) 0.9623(6) 0.4689(4)
H11 H 0.8002 0.9396 0.4995
C15 C 0.7524(6) 1.0026(4) 0.4439(3)
C16 C 0.7747(5) 1.0375(4) 0.3984(3)
H12 H 0.7332 1.0647 0.3815
C17 C 0.6599(6) 1.0080(4) 0.4663(3)
C18 C 0.3500(6) 0.8784(4) 0.7980(5)
H13 H 0.3961 0.9086 0.7862
H14 H 0.3344 0.8902 0.8330
H15 H 0.2993 0.8836 0.7761
C19 C 0.3812(5) 0.8051(4) 0.7961(3)
C20 C 0.570(3) 1.186(2) 0.7347(16)
H16 H 0.6308 1.1710 0.7328
H17 H 0.5324 1.1482 0.7225
C21 C 0.526(5) 1.2138(3) 0.787(2)
H18 H 0.5667 1.2129 0.8151
H19 H 0.4863 1.1751 0.7896
H20 H 0.4925 1.2557 0.7878
C22 C 0.9499(14) 0.8849(12) 0.5207(8)
H21 H 0.9038 0.8501 0.5199
H22 H 0.9357 0.9195 0.5467
C23 C 1.0445(16) 0.8511(11) 0.5307(11)
H23 H 1.0382 0.8026 0.5379
H24 H 1.0734 0.8733 0.5593
H25 H 1.0791 0.8571 0.4999
N4F N 0.4607(3) 0.7141(3) 0.7840(2)
C18F C 0.3500(6) 0.6216(4) 0.7980(5)
H13F H 0.3961 0.5914 0.7862
H14F H 0.3344 0.6098 0.8330
H15F H 0.2993 0.6164 0.7761
C19F C 0.3812(5) 0.6949(4) 0.7961(3)
O1F O 0.5269(4) 1.4344(2) 0.5711(2)
O2F O 0.4859(4) 1.3793(2) 0.4990(2)
C5F C 0.5106(5) 1.3811(4) 0.5468(3)
C6F C 0.5157(6) 1.3122(4) 0.5741(3)
C7F C 0.5262(9) 1.3122(5) 0.6267(4)
H8F H 0.5309 1.3538 0.6447
C20F C 0.570(3) 1.314(2) 0.7347(16)
H16F H 0.6308 1.3290 0.7328
H17F H 0.5324 1.3518 0.7225
C21F C 0.526(5) 1.2862(3) 0.787(2)
H18F H 0.5667 1.2871 0.8151
H19F H 0.4863 1.3249 0.7896
H20F H 0.4925 1.2443 0.7878
Zn2D Zn 0.47037(6) 1.03572(4) 0.45150(3)
Zn3D Zn 0.42655(5) 1.16147(4) 0.23336(3)
N1D N 0.3603(4) 1.1654(3) 0.3402(2)
N2D N 0.4197(3) 1.1306(3) 0.30816(19)
N3D N 0.4263(4) 1.0847(3) 0.38682(19)
O3D O 0.3550(3) 1.0180(3) 0.4909(2)
O4D O 0.3973(4) 0.9617(3) 0.5616(2)
O5D O 0.1603(5) 0.8791(3) 0.6823(2)
O6D O 0.0418(4) 0.9391(4) 0.6902(2)
O9D O 0.0375(6) 1.0851(5) 0.5280(4)
C1D C 0.3079(6) 1.1558(5) 0.4310(3)
H2D H 0.2608 1.1849 0.4191
H3D H 0.2839 1.1149 0.4467
H4D H 0.3425 1.1806 0.4561
C2D C 0.3649(5) 1.1358(4) 0.3861(2)
C3D C 0.4576(5) 1.0832(3) 0.3379(2)
C4D C 0.5263(6) 1.0342(5) 0.3195(3)
H5D H 0.5826 1.0567 0.3199
H6D H 0.5279 0.9945 0.3420
H7D H 0.5127 1.0196 0.2849
C10D C 0.1134(6) 0.9270(5) 0.6679(3)
C11D C 0.1409(6) 0.9689(4) 0.6214(3)
C12D C 0.0779(7) 1.0125(6) 0.5980(4)
H10D H 0.0234 1.0197 0.6136
C13D C 0.0987(7) 1.0449(7) 0.5509(5)
C14D C 0.1847(7) 1.0377(6) 0.5311(4)
H11D H 0.1998 1.0604 0.5005
C15D C 0.2476(6) 0.9974(4) 0.5561(3)
C16D C 0.2253(5) 0.9625(4) 0.6016(3)
H12D H 0.2668 0.9353 0.6185
C17D C 0.3401(6) 0.9920(4) 0.5337(3)
C22D C 0.0501(14) 1.1151(12) 0.4793(8)
H21D H 0.0962 1.1499 0.4801
H22D H 0.0643 1.0805 0.4533
C23D C -0.0445(16) 1.1489(11) 0.4693(11)
H23D H -0.0382 1.1974 0.4621
H24D H -0.0734 1.1267 0.4407
H25D H -0.0791 1.1429 0.5001
Zn1B Zn 0.30090(7) 1.2500 0.31233(4)
Zn1C Zn 0.19910(7) 0.7500 0.81233(4)
Zn2B Zn 0.47037(6) 1.46428(4) 0.45150(3)
Zn2F Zn 0.52963(6) 1.53572(4) 0.54850(3)
Zn3A Zn 0.92655(5) 1.16147(4) 0.26664(3)
Zn3E Zn 0.07345(5) 0.83853(4) 0.73336(3)
Zn3F Zn 0.57345(5) 0.66147(4) 0.76664(3)
N1F N 0.6397(4) 0.6654(3) 0.6598(2)
N4D N 0.5393(3) 1.2141(3) 0.2160(2)
N5C N 0.8292(5) 0.7500 0.6943(3)
O1D O 0.4731(4) 0.9344(2) 0.4289(2)
O2D O 0.5141(4) 0.8793(2) 0.5010(2)
O5A O 0.6603(5) 0.8791(3) 0.8177(2)
O5E O 0.3397(5) 1.1209(3) 0.1823(2)
O6A O 0.5418(4) 0.9391(4) 0.8098(2)
O6E O 0.4582(4) 1.0609(4) 0.1902(2)
O7B O 0.3534(4) 1.2500 0.2425(2)
loop_
_geom_bond_atom_site_label_1
_geom_bond_atom_site_label_2
_geom_bond_site_symmetry_1
_geom_bond_site_symmetry_2
Zn1 N1 1_555 1_555
Zn2 N3 1_555 1_555
Zn3 N2 1_555 1_555
N1 N2 1_555 1_555
N2 C3 1_555 1_555
N3 C2 1_555 1_555
N4 Zn3 1_555 1_555
N5 C19 1_555 1_555
O1 Zn2 1_555 1_555
O2 C5 1_555 1_555
O3 Zn2 1_555 1_555
O4 C17 1_555 1_555
O5 C10 1_555 1_555
O6 C10 1_555 1_555
O7 Zn1 1_555 1_555
H1 O7 1_555 1_555
O8 C8 1_555 1_555
O9 C13 1_555 1_555
C1 H2 1_555 1_555
H3 C1 1_555 1_555
H4 C1 1_555 1_555
C2 N1 1_555 1_555
C3 N3 1_555 1_555
C4 C3 1_555 1_555
H5 C4 1_555 1_555
H6 C4 1_555 1_555
H7 C4 1_555 1_555
C5 O1 1_555 1_555
C6 C5 1_555 1_555
C7 C6 1_555 1_555
H8 C7 1_555 1_555
C8 C7 1_555 1_555
C9 C6 1_555 1_555
H9 C9 1_555 1_555
C10 C11 1_555 1_555
C11 C12 1_555 1_555
C12 H10 1_555 1_555
C13 C12 1_555 1_555
C14 C13 1_555 1_555
H11 C14 1_555 1_555
C15 C14 1_555 1_555
C16 C11 1_555 1_555
H12 C16 1_555 1_555
C17 O3 1_555 1_555
C18 H13 1_555 1_555
H14 C18 1_555 1_555
H15 C18 1_555 1_555
C19 N4 1_555 1_555
C20 O8 1_555 1_555
H16 C20 1_555 1_555
H17 C20 1_555 1_555
C21 C20 1_555 1_555
H18 C21 1_555 1_555
H19 C21 1_555 1_555
H20 C21 1_555 1_555
C22 O9 1_555 1_555
H21 C22 1_555 1_555
H22 C22 1_555 1_555
C23 C22 1_555 1_555
H23 C23 1_555 1_555
H24 C23 1_555 1_555
H25 C23 1_555 1_555
C24 H26 1_555 1_555
C25 N6 1_555 1_555
C26 N6 1_555 1_555
N6 C24 1_555 1_555
O10 C24 1_555 1_555
N4F N4 1_555 1_555
C18F H13F 1_555 1_555
H14F C18F 1_555 1_555
H15F C18F 1_555 1_555
C19F N5 1_555 1_555
O1F C5F 1_555 1_555
O2F C5F 1_555 1_555
C5F C6F 1_555 1_555
C6F C9 1_555 1_555
C7F C8 1_555 1_555
H8F C7F 1_555 1_555
C20F O8 1_555 1_555
H16F C20F 1_555 1_555
H17F C20F 1_555 1_555
C21F C20F 1_555 1_555
H18F C21F 1_555 1_555
H19F C21F 1_555 1_555
H20F C21F 1_555 1_555
Zn2D O2 1_555 1_555
Zn3D N2D 1_555 1_555
N1D N2D 1_555 1_555
N2D C3D 1_555 1_555
N3D Zn2D 1_555 1_555
O3D Zn2D 1_555 1_555
O4D Zn2 1_555 1_555
O5D C10D 1_555 1_555
O6D C10D 1_555 1_555
O9D C13D 1_555 1_555
C1D H2D 1_555 1_555
H3D C1D 1_555 1_555
H4D C1D 1_555 1_555
C2D N1D 1_555 1_555
C3D N3D 1_555 1_555
C4D C3D 1_555 1_555
H5D C4D 1_555 1_555
H6D C4D 1_555 1_555
H7D C4D 1_555 1_555
C10D C11D 1_555 1_555
C11D C12D 1_555 1_555
C12D H10D 1_555 1_555
C13D C12D 1_555 1_555
C14D C13D 1_555 1_555
H11D C14D 1_555 1_555
C15D C14D 1_555 1_555
C16D C11D 1_555 1_555
H12D C16D 1_555 1_555
C17D O3D 1_555 1_555
C22D O9D 1_555 1_555
H21D C22D 1_555 1_555
H22D C22D 1_555 1_555
C23D C22D 1_555 1_555
H23D C23D 1_555 1_555
H24D C23D 1_555 1_555
H25D C23D 1_555 1_555
Zn1B N1D 1_555 1_555
Zn1C N5 1_555 1_555
Zn2B O2F 1_555 1_555
Zn2F O1F 1_555 1_555
Zn3A O5 1_555 1_555
Zn3E O5D 1_555 1_555
Zn3F O7 1_555 1_555
N1F Zn1 1_555 1_555
N4D Zn3D 1_555 1_555
N5C Zn1 1_555 1_555
O1D Zn2D 1_555 1_555
O2D Zn2 1_555 1_555
O5A Zn3 1_555 1_555
O5E Zn3D 1_555 1_555
O6A Zn3 1_555 1_555
O6E Zn3D 1_555 1_555
O7B Zn3D 1_555 1_555
Zn3 O7 1_555 1_555
O4 Zn2D 1_555 1_555
O6 Zn3A 1_555 1_555
C1 C2 1_555 1_555
C15 C16 1_555 1_555
C15 C17 1_555 1_555
C18 C19 1_555 1_555
N4F C19F 1_555 1_555
N4F Zn3F 1_555 1_555
C18F C19F 1_555 1_555
C6F C7F 1_555 1_555
N3D C2D 1_555 1_555
O4D C17D 1_555 1_555
O6D Zn3E 1_555 1_555
C1D C2D 1_555 1_555
C15D C16D 1_555 1_555
C15D C17D 1_555 1_555
Zn1B O7B 1_555 1_555

#END
