
#######################################################################
#
#                 Cambridge Crystallographic Data Centre
#                                CCDC 
#
#######################################################################
#
# If this CIF has been generated from an entry in the Cambridge 
# Structural Database, then it will include bibliographic, chemical, 
# crystal, experimental, refinement or atomic coordinate data resulting 
# from the CCDC's data processing and validation procedures.
#
#######################################################################

data_HURFEH
_chemical_formula_moiety         '(C56 H83 N19 O19 Zn5)n'
_symmetry_cell_setting           orthorhombic
_symmetry_space_group_name_H-M   'P 21 21 21'
_symmetry_Int_Tables_number      19
_space_group_name_Hall           'P 2ac 2ab'
loop_
_symmetry_equiv_pos_site_id
_symmetry_equiv_pos_as_xyz
1 x,y,z
2 1/2-x,-y,1/2+z
3 1/2+x,1/2-y,-z
4 -x,1/2+y,1/2-z
_cell_length_a                   15.4775(9)
_cell_length_b                   19.1313(12)
_cell_length_c                   25.5440(15)
_cell_angle_alpha                90
_cell_angle_beta                 90
_cell_angle_gamma                90
_cell_volume                     7563.7
loop_
_atom_site_label
_atom_site_type_symbol
_atom_site_fract_x
_atom_site_fract_y
_atom_site_fract_z
_atom_site_U_iso_or_equiv
_atom_site_thermal_displace_type
Zn1 Zn 0.44326(5) 0.66128(4) 0.51702(3) 0.0152 Uani
Zn2 Zn 0.43403(5) 0.83707(4) 0.51801(3) 0.0145 Uani
Zn3 Zn 0.30836(5) 0.74104(4) 0.44199(3) 0.0141 Uani
Zn4 Zn 0.04100(5) 1.03939(4) 0.79745(3) 0.0167 Uani
Zn5 Zn -0.01766(5) 0.96935(4) 0.70018(3) 0.0169 Uani
O1 O -0.4446(4) 1.1058(3) 0.9203(2) 0.0343 Uani
O2 O -0.3110(4) 1.0881(4) 0.9479(2) 0.0447 Uani
O3 O -0.0881(3) 1.0369(3) 0.8123(2) 0.0287 Uani
O4 O -0.1301(4) 1.0045(3) 0.7322(2) 0.0280 Uani
O5 O 0.3499(5) 0.8724(4) 0.5729(3) 0.0473 Uani
O6 O 0.4592(4) 0.9401(4) 0.5568(2) 0.0377 Uani
O7 O 0.1132(3) 0.9540(3) 0.6908(2) 0.0263 Uani
O8 O 0.1515(3) 1.0288(3) 0.7540(2) 0.0237 Uani
O9 O 0.0165(4) 1.1256(3) 0.7507(2) 0.0243 Uani
O10 O 0.0058(4) 1.0695(3) 0.6745(2) 0.0277 Uani
O11 O 0.0198(4) 1.3868(3) 0.7488(2) 0.0257 Uani
O12 O -0.0451(4) 1.4370(3) 0.6798(2) 0.0277 Uani
N1 N 0.5529(4) 0.7179(3) 0.5281(2) 0.0180 Uani
N2 N 0.5504(4) 0.7900(3) 0.5283(2) 0.0170 Uani
N3 N 0.6822(4) 0.7568(3) 0.5493(2) 0.0177 Uani
N4 N 0.4169(4) 0.8659(3) 0.4427(2) 0.0170 Uani
N5 N 0.3610(4) 0.8275(3) 0.4117(2) 0.0167 Uani
N6 N 0.4177(4) 0.9108(3) 0.3631(2) 0.0167 Uani
N7 N 0.4315(4) 0.6268(3) 0.4428(2) 0.0187 Uani
N8 N 0.3665(4) 0.6565(3) 0.4129(2) 0.0163 Uani
N9 N 0.4358(4) 0.5793(3) 0.3648(2) 0.0187 Uani
C1 C 0.6634(6) 0.6268(4) 0.5441(5) 0.0440 Uani
H1 H 0.6149 0.5957 0.5408 0.0660 Uiso
H2 H 0.6910 0.6193 0.5772 0.0660 Uiso
H3 H 0.7038 0.6179 0.5164 0.0660 Uiso
C2 C 0.6329(5) 0.7004(4) 0.5408(3) 0.0187 Uani
C3 C 0.6291(4) 0.8118(4) 0.5408(3) 0.0163 Uani
C4 C 0.6574(5) 0.8857(4) 0.5436(4) 0.0307 Uani
H4 H 0.6853 0.8985 0.5114 0.0460 Uiso
H5 H 0.6971 0.8914 0.5721 0.0460 Uiso
H6 H 0.6080 0.9152 0.5491 0.0460 Uiso
C5 C 0.5139(6) 0.9678(5) 0.4303(3) 0.0347 Uani
H7 H 0.5295 0.9579 0.4659 0.0520 Uiso
H8 H 0.4891 1.0137 0.4282 0.0520 Uiso
H9 H 0.5645 0.9657 0.4087 0.0520 Uiso
C6 C 0.4493(5) 0.9149(4) 0.4117(3) 0.0207 Uani
C7 C 0.3633(5) 0.8563(4) 0.3646(3) 0.0187 Uani
C8 C 0.3091(6) 0.8319(5) 0.3196(3) 0.0373 Uani
H10 H 0.2728 0.7941 0.3309 0.0560 Uiso
H11 H 0.3459 0.8161 0.2918 0.0560 Uiso
H12 H 0.2738 0.8698 0.3074 0.0560 Uiso
C9 C 0.5457(6) 0.5377(5) 0.4304(3) 0.0340 Uani
H13 H 0.5986 0.5614 0.4220 0.0510 Uiso
H14 H 0.5441 0.4935 0.4126 0.0510 Uiso
H15 H 0.5425 0.5302 0.4675 0.0510 Uiso
C10 C 0.4715(5) 0.5810(4) 0.4134(3) 0.0173 Uani
C11 C 0.3713(5) 0.6261(4) 0.3665(3) 0.0183 Uani
C12 C 0.3111(6) 0.6407(5) 0.3226(3) 0.0320 Uani
H16 H 0.2735 0.6786 0.3320 0.0480 Uiso
H17 H 0.2774 0.5998 0.3153 0.0480 Uiso
H18 H 0.3437 0.6533 0.2920 0.0480 Uiso
C13 C -0.3655(5) 1.0859(4) 0.9131(3) 0.0287 Uani
C14 C -0.3440(5) 1.0625(5) 0.8582(3) 0.0277 Uani
C15 C -0.2569(5) 1.0535(4) 0.8449(3) 0.0247 Uani
H19 H -0.2136 1.0602 0.8696 0.0300 Uiso
C16 C -0.2366(5) 1.0342(4) 0.7938(3) 0.0267 Uani
C17 C -0.1444(5) 1.0249(4) 0.7783(3) 0.0227 Uani
C18 C -0.3018(6) 1.0250(5) 0.7575(3) 0.0357 Uani
H20 H -0.2875 1.0123 0.7234 0.0430 Uiso
C19 C -0.3867(6) 1.0342(6) 0.7703(4) 0.0393 Uani
C20 C -0.4075(6) 1.0531(5) 0.8213(3) 0.0363 Uani
H21 H -0.4650 1.0595 0.8305 0.0430 Uiso
C21 C 0.3910(6) 0.9277(5) 0.5817(3) 0.0270 Uani
C22 C 0.3568(5) 0.9771(4) 0.6213(3) 0.0257 Uani
C23 C 0.2793(5) 0.9625(4) 0.6475(3) 0.0253 Uani
H22 H 0.2487 0.9219 0.6399 0.0300 Uiso
C24 C 0.2485(5) 1.0091(4) 0.6847(3) 0.0230 Uani
C25 C 0.1641(5) 0.9956(4) 0.7122(3) 0.0227 Uani
C26 C 0.2944(5) 1.0708(4) 0.6957(3) 0.0317 Uani
H23 H 0.2732 1.1019 0.7206 0.0380 Uiso
C27 C 0.3711(5) 1.0858(5) 0.6697(4) 0.0330 Uani
C28 C 0.4021(5) 1.0386(5) 0.6319(3) 0.0310 Uani
H24 H 0.4529 1.0483 0.6139 0.0370 Uiso
C29 C 0.0090(5) 1.1241(4) 0.7013(3) 0.0220 Uani
C30 C 0.0050(6) 1.1919(4) 0.6733(3) 0.0253 Uani
C31 C 0.0038(5) 1.2551(4) 0.7009(3) 0.0210 Uani
H25 H 0.0103 1.2553 0.7371 0.0260 Uiso
C32 C -0.0071(6) 1.3176(4) 0.6739(3) 0.0270 Uani
C33 C -0.0112(5) 1.3858(4) 0.7029(3) 0.0230 Uani
C34 C -0.0141(8) 1.3179(5) 0.6195(4) 0.0423 Uani
H26 H -0.0235 1.3596 0.6018 0.0510 Uiso
C35 C -0.0069(9) 1.2553(5) 0.5918(3) 0.0540 Uani
C36 C -0.0006(8) 1.1919(5) 0.6187(3) 0.0397 Uani
H27 H -0.0001 1.1499 0.6003 0.0480 Uiso
N10 N -0.4519(6) 1.0228(6) 0.7329(3) 0.0687 Uani
H28 H -0.4384 1.0100 0.7017 0.0820 Uiso
H29 H -0.5053 1.0286 0.7413 0.0820 Uiso
N11 N 0.4148(6) 1.1463(5) 0.6813(4) 0.0583 Uani
H30 H 0.3947 1.1745 0.7045 0.0700 Uiso
H31 H 0.4623 1.1559 0.6654 0.0700 Uiso
N12 N -0.0121(11) 1.2563(6) 0.5366(3) 0.1133 Uani
H32 H -0.0114 1.2177 0.5193 0.1360 Uiso
H33 H -0.0160 1.2955 0.5202 0.1360 Uiso
O13 O 0.3664(3) 0.7443(3) 0.51107(16) 0.0147 Uani
H34 H 0.3260 0.7541 0.5325 0.0220 Uiso
Zn1C Zn -0.44326(5) 1.16128(4) 0.98298(3) 0.0152 Uani
Zn3B Zn 0.80836(5) 0.75896(4) 0.55801(3) 0.0141 Uani
Zn4A Zn 0.45900(5) 0.96061(4) 0.29745(3) 0.0167 Uani
Zn4C Zn -0.04100(5) 1.53939(4) 0.70255(3) 0.0167 Uani
Zn5B Zn 0.48234(5) 0.53065(4) 0.29982(3) 0.0169 Uani
Zn5C Zn 0.01766(5) 1.46935(4) 0.79982(3) 0.0169 Uani
O1C O 0.4446(4) 0.6058(3) 0.5797(2) 0.0343 Uani
O11C O -0.0198(4) 0.8868(3) 0.7512(2) 0.0257 Uani
O12C O 0.0451(4) 0.9370(3) 0.8202(2) 0.0277 Uani
N3B N 0.1822(4) 0.7432(3) 0.4507(2) 0.0177 Uani
N6A N 0.0823(4) 1.0892(3) 0.8631(2) 0.0167 Uani
N9B N -0.0642(4) 0.9207(3) 0.6352(2) 0.0187 Uani
C37 C 0.2747(6) 0.2518(7) 0.1146(3) 0.0490 Uani
H35 H 0.2207 0.2472 0.1302 0.0590 Uiso
C38 C 0.4261(7) 0.2570(12) 0.1278(5) 0.0940 Uani
H36 H 0.4542 0.2125 0.1311 0.1410 Uiso
H37 H 0.4567 0.2912 0.1481 0.1410 Uiso
H38 H 0.4257 0.2709 0.0917 0.1410 Uiso
C39 C 0.3333(9) 0.2499(15) 0.2033(4) 0.1250 Uani
H39 H 0.2833 0.2233 0.2130 0.1880 Uiso
H40 H 0.3272 0.2970 0.2156 0.1880 Uiso
H41 H 0.3839 0.2292 0.2185 0.1880 Uiso
N13 N 0.3422(5) 0.2528(5) 0.1460(2) 0.0370 Uani
O14 O 0.2763(4) 0.2562(4) 0.0678(2) 0.0453 Uani
C40 C 0.8767(13) 0.8030(11) 0.1451(9) 0.1123 Uani
H42 H 0.8868 0.8250 0.1769 0.1350 Uiso
C41 C 0.7741(16) 0.7506(15) 0.0806(9) 0.1550 Uani
H43 H 0.7271 0.7206 0.0904 0.2330 Uiso
H44 H 0.8211 0.7228 0.0677 0.2330 Uiso
H45 H 0.7552 0.7822 0.0538 0.2330 Uiso
C42 C 0.7236(14) 0.8096(15) 0.1666(10) 0.1533 Uani
H46 H 0.6791 0.7749 0.1637 0.2340 Uiso
H47 H 0.7015 0.8541 0.1555 0.2340 Uiso
H48 H 0.7421 0.8128 0.2024 0.2340 Uiso
N14 N 0.7958(10) 0.7911(9) 0.1330(6) 0.1137 Uani
O15 O 0.9405(9) 0.7883(8) 0.1190(6) 0.1260 Uani
C43 C 0.8576(10) 0.9498(7) 0.0838(6) 0.0730 Uani
H49 H 0.9118 0.9358 0.0722 0.0880 Uiso
C44 C 0.8060(12) 0.9275(10) -0.0034(6) 0.0977 Uani
H50 H 0.8642 0.9117 -0.0088 0.1470 Uiso
H51 H 0.7949 0.9673 -0.0253 0.1470 Uiso
H52 H 0.7665 0.8906 -0.0123 0.1470 Uiso
C45 C 0.7067(9) 0.9671(10) 0.0646(8) 0.1150 Uani
H53 H 0.6687 0.9316 0.0514 0.1720 Uiso
H54 H 0.6926 1.0111 0.0486 0.1720 Uiso
H55 H 0.7000 0.9707 0.1019 0.1720 Uiso
N15 N 0.7926(7) 0.9456(5) 0.0506(4) 0.0633 Uani
O16 O 0.8515(7) 0.9711(6) 0.1296(3) 0.0827 Uani
C46 C 0.2443(7) 0.7163(6) 0.1978(5) 0.1560 Uani
H56 H 0.3031 0.7261 0.1967 0.1870 Uiso
C47 C 0.1229(10) 0.6539(13) 0.1638(9) 0.2667 Uani
H57 H 0.0964 0.6752 0.1937 0.4020 Uiso
H58 H 0.1147 0.6042 0.1652 0.4020 Uiso
H59 H 0.0970 0.6719 0.1324 0.4020 Uiso
C48 C 0.2815(13) 0.6408(10) 0.1267(7) 0.1967 Uani
H60 H 0.3169 0.6774 0.1125 0.2960 Uiso
H61 H 0.2523 0.6171 0.0987 0.2960 Uiso
H62 H 0.3172 0.6082 0.1453 0.2960 Uiso
N16 N 0.2158(9) 0.6697(6) 0.1621(5) 0.1460 Uani
O17 O 0.2033(10) 0.7473(7) 0.2314(4) 0.1530 Uani
C49 C 0.7702(15) 0.6163(10) 0.1980(8) 0.1683 Uani
H63 H 0.7842 0.6082 0.2341 0.2510 Uiso
H64 H 0.7093 0.6249 0.1947 0.2510 Uiso
H65 H 0.8017 0.6562 0.1855 0.2510 Uiso
C50 C 0.7627(18) 0.5367(13) 0.1225(8) 0.2200 Uani
H66 H 0.7063 0.5552 0.1297 0.3310 Uiso
H67 H 0.7580 0.4885 0.1127 0.3310 Uiso
H68 H 0.7885 0.5626 0.0944 0.3310 Uiso
N17 N 0.8122(14) 0.5597(14) 0.1685(10) 0.2643 Uani
H69 H 0.8610 0.5417 0.1774 0.3160 Uiso
C51 C 1.0740(8) 0.2083(13) 0.2172(5) 0.3933 Uani
H70 H 1.0909 0.1619 0.2208 0.4730 Uiso
C52 C 0.9651(16) 0.2840(8) 0.1827(11) 0.2467 Uani
H71 H 0.9376 0.2822 0.1490 0.3700 Uiso
H72 H 1.0061 0.3216 0.1832 0.3700 Uiso
H73 H 0.9223 0.2915 0.2093 0.3700 Uiso
C53 C 0.9606(13) 0.1464(9) 0.1739(9) 0.2000 Uani
H74 H 0.9730 0.1071 0.1960 0.2980 Uiso
H75 H 0.9748 0.1349 0.1383 0.2980 Uiso
H76 H 0.9003 0.1576 0.1762 0.2980 Uiso
N18 N 0.9989(8) 0.2130(8) 0.1907(4) 0.1527 Uani
O18 O 1.1262(14) 0.2473(15) 0.2380(8) 0.2727 Uani
C54 C 0.8466(13) 0.401(3) 0.5107(11) 0.4267 Uani
H77 H 0.8263 0.4213 0.5413 0.5130 Uiso
C55 C 0.7173(13) 0.4126(12) 0.4598(12) 0.2053 Uani
H78 H 0.7232 0.4621 0.4650 0.3080 Uiso
H79 H 0.6737 0.3947 0.4829 0.3080 Uiso
H80 H 0.7010 0.4037 0.4242 0.3080 Uiso
C56 C 0.8012(16) 0.3041(11) 0.4503(18) 0.4633 Uani
H81 H 0.8605 0.2895 0.4492 0.6990 Uiso
H82 H 0.7772 0.3023 0.4156 0.6990 Uiso
H83 H 0.7692 0.2736 0.4729 0.6990 Uiso
N19 N 0.7991(12) 0.3762(8) 0.4704(6) 0.1633 Uani
O19 O 0.9219(13) 0.3901(7) 0.4988(5) 0.1660 Uani
loop_
_atom_site_aniso_label
_atom_site_aniso_U_11
_atom_site_aniso_U_22
_atom_site_aniso_U_33
_atom_site_aniso_U_23
_atom_site_aniso_U_13
_atom_site_aniso_U_12
Zn1 0.0148(4) 0.0182(4) 0.0127(4) -0.0002(3) -0.0001(3) -0.0011(3)
Zn2 0.0125(4) 0.0176(4) 0.0133(4) -0.0009(3) 0.0007(3) 0.0015(3)
Zn3 0.0107(4) 0.0161(4) 0.0155(4) 0.0000(3) 0.0021(3) -0.0010(3)
Zn4 0.0202(4) 0.0156(4) 0.0144(4) -0.0038(3) 0.0023(3) -0.0018(3)
Zn5 0.0209(4) 0.0155(4) 0.0143(4) -0.0040(3) 0.0021(3) -0.0020(3)
O1 0.026(3) 0.048(4) 0.029(3) -0.014(3) 0.006(3) 0.008(3)
O2 0.034(3) 0.075(5) 0.025(3) -0.017(3) -0.002(3) 0.001(3)
O3 0.017(3) 0.044(4) 0.025(3) -0.005(3) 0.004(2) 0.001(3)
O4 0.026(3) 0.036(3) 0.022(3) -0.006(2) 0.008(2) 0.006(2)
O5 0.052(4) 0.039(4) 0.051(4) -0.027(3) 0.033(3) -0.014(3)
O6 0.026(3) 0.055(4) 0.032(3) -0.013(3) 0.010(3) 0.004(3)
O7 0.021(3) 0.024(3) 0.034(3) -0.007(2) 0.006(2) -0.003(2)
O8 0.023(3) 0.028(3) 0.020(3) -0.009(2) 0.007(2) 0.000(2)
O9 0.033(3) 0.020(3) 0.020(3) 0.000(2) 0.001(2) 0.003(2)
O10 0.041(3) 0.017(3) 0.025(3) -0.003(2) 0.004(3) -0.001(2)
O11 0.031(3) 0.019(3) 0.027(3) -0.003(2) 0.002(2) 0.006(2)
O12 0.040(3) 0.016(3) 0.027(3) 0.005(2) -0.001(3) 0.008(2)
N1 0.014(3) 0.017(3) 0.023(3) 0.001(2) -0.001(3) 0.000(2)
N2 0.017(3) 0.016(3) 0.018(3) 0.002(2) -0.001(3) -0.002(2)
N3 0.016(3) 0.018(3) 0.019(3) 0.000(3) 0.001(2) 0.003(3)
N4 0.017(3) 0.020(3) 0.014(3) 0.003(3) 0.001(2) 0.001(2)
N5 0.013(3) 0.023(3) 0.014(3) -0.001(3) 0.000(2) -0.003(3)
N6 0.024(3) 0.017(3) 0.009(3) 0.005(2) -0.002(2) -0.004(3)
N7 0.017(3) 0.024(3) 0.015(3) 0.001(3) 0.000(2) 0.001(3)
N8 0.013(3) 0.019(3) 0.017(3) -0.005(3) 0.000(2) -0.001(2)
N9 0.016(3) 0.025(3) 0.015(3) -0.002(3) -0.002(3) 0.005(3)
C1 0.032(5) 0.016(4) 0.084(8) 0.001(5) -0.019(5) 0.006(4)
C2 0.014(3) 0.018(4) 0.024(4) 0.002(3) -0.003(3) -0.003(3)
C3 0.010(3) 0.022(4) 0.017(4) 0.003(3) 0.002(3) 0.001(3)
C4 0.016(4) 0.019(4) 0.057(6) 0.005(4) -0.007(4) 0.005(3)
C5 0.048(5) 0.038(5) 0.018(4) 0.005(4) -0.008(4) -0.024(4)
C6 0.023(4) 0.013(4) 0.026(4) 0.002(3) -0.002(3) -0.006(3)
C7 0.018(4) 0.021(4) 0.017(4) 0.005(3) -0.003(3) -0.004(3)
C8 0.042(5) 0.041(5) 0.029(5) 0.016(4) -0.018(4) -0.026(5)
C9 0.034(4) 0.040(5) 0.028(5) -0.013(4) -0.014(4) 0.018(4)
C10 0.027(4) 0.016(4) 0.009(3) -0.003(3) -0.004(3) 0.002(3)
C11 0.019(4) 0.020(4) 0.016(4) 0.001(3) -0.001(3) -0.004(3)
C12 0.038(5) 0.033(5) 0.025(4) -0.009(4) -0.014(4) 0.016(4)
C13 0.028(4) 0.029(5) 0.029(5) -0.009(4) 0.010(4) -0.002(4)
C14 0.027(4) 0.033(5) 0.023(4) -0.011(3) 0.002(3) 0.005(4)
C15 0.024(4) 0.028(4) 0.022(4) -0.006(3) -0.002(3) 0.004(3)
C16 0.025(4) 0.030(4) 0.025(4) -0.009(4) -0.001(3) 0.003(3)
C17 0.022(4) 0.025(4) 0.021(4) -0.003(3) 0.002(3) 0.005(3)
C18 0.036(5) 0.048(6) 0.023(4) -0.014(4) 0.004(4) 0.009(4)
C19 0.029(5) 0.053(6) 0.036(5) -0.015(5) -0.002(4) 0.003(4)
C20 0.027(5) 0.046(6) 0.036(5) -0.010(4) 0.005(4) 0.004(4)
C21 0.028(4) 0.036(5) 0.017(4) 0.002(3) 0.003(3) 0.002(4)
C22 0.025(4) 0.032(5) 0.020(4) -0.003(3) 0.005(3) 0.001(3)
C23 0.024(4) 0.025(4) 0.027(4) -0.009(3) 0.005(3) -0.003(3)
C24 0.023(4) 0.022(4) 0.024(4) -0.003(3) 0.005(3) 0.003(3)
C25 0.022(4) 0.021(4) 0.025(4) -0.003(3) 0.004(3) 0.003(3)
C26 0.030(4) 0.030(4) 0.035(5) -0.013(4) 0.012(4) -0.003(3)
C27 0.020(4) 0.041(5) 0.038(5) -0.012(4) 0.007(4) -0.006(4)
C28 0.020(4) 0.040(5) 0.033(4) -0.004(4) 0.008(3) 0.000(4)
C29 0.023(4) 0.020(4) 0.023(4) -0.002(3) 0.004(3) -0.002(3)
C30 0.032(4) 0.022(4) 0.022(4) -0.002(3) 0.000(3) -0.001(3)
C31 0.024(4) 0.020(4) 0.019(3) -0.003(4) 0.001(3) 0.006(3)
C32 0.037(5) 0.024(4) 0.020(4) -0.001(3) -0.004(4) 0.004(4)
C33 0.024(4) 0.023(4) 0.022(4) 0.000(3) 0.006(4) 0.002(3)
C34 0.079(7) 0.024(5) 0.024(5) 0.007(4) -0.005(5) 0.006(5)
C35 0.118(9) 0.026(5) 0.018(4) 0.002(4) -0.006(5) 0.012(6)
C36 0.080(7) 0.021(4) 0.018(4) -0.006(3) 0.005(5) 0.005(5)
N10 0.031(4) 0.133(10) 0.042(5) -0.036(6) -0.016(4) 0.014(5)
N11 0.042(5) 0.054(6) 0.079(7) -0.038(5) 0.026(5) -0.020(4)
N12 0.283(19) 0.034(5) 0.023(4) 0.002(4) -0.013(7) 0.011(9)
O13 0.013(2) 0.018(2) 0.013(2) -0.001(2) 0.0035(17) -0.002(2)
Zn1C 0.0148 0.0182 0.0127 0.0002 -0.0001 0.0011
Zn3B 0.0107 0.0161 0.0155 0 -0.0021 0.001
Zn4A 0.0202 0.0156 0.0144 0.0038 -0.0023 -0.0018
Zn4C 0.0202 0.0156 0.0144 0.0038 0.0023 0.0018
Zn5B 0.0209 0.0155 0.0143 -0.004 -0.0021 0.002
Zn5C 0.0209 0.0155 0.0143 0.004 0.0021 0.002
O1C 0.026 0.048 0.029 0.014 0.006 -0.008
O11C 0.031 0.019 0.027 0.003 0.002 -0.006
O12C 0.04 0.016 0.027 -0.005 -0.001 -0.008
N3B 0.016 0.018 0.019 0 -0.001 -0.003
N6A 0.024 0.017 0.009 -0.005 0.002 -0.004
N9B 0.016 0.025 0.015 -0.002 0.002 -0.005
C37 0.032(5) 0.082(8) 0.033(5) 0.005(6) -0.008(4) -0.006(6)
C38 0.033(6) 0.190(18) 0.059(7) -0.004(11) -0.014(5) -0.001(9)
C39 0.062(8) 0.28(3) 0.033(6) 0.002(14) -0.012(6) -0.017(14)
N13 0.030(4) 0.056(5) 0.025(3) 0.002(4) -0.011(3) -0.006(4)
O14 0.039(3) 0.068(5) 0.029(3) 0.006(4) -0.015(3) -0.018(4)
C40 0.083(13) 0.117(16) 0.137(18) 0.036(14) -0.039(13) -0.021(12)
C41 0.157(17) 0.162(18) 0.146(15) -0.007(16) -0.064(14) 0.022(16)
C42 0.090(16) 0.20(3) 0.17(2) -0.01(2) 0.009(16) -0.003(17)
N14 0.082(10) 0.132(13) 0.127(12) 0.064(10) -0.041(9) -0.053(9)
O15 0.068(8) 0.153(13) 0.157(13) 0.005(10) -0.011(8) -0.022(8)
C43 0.072(9) 0.058(8) 0.089(11) 0.026(8) -0.008(8) -0.008(7)
C44 0.113(14) 0.100(13) 0.080(11) -0.018(9) 0.011(10) -0.025(11)
C45 0.051(8) 0.116(14) 0.178(19) 0.045(14) 0.009(10) 0.013(9)
N15 0.059(6) 0.058(6) 0.073(7) 0.008(5) -0.024(5) -0.005(5)
O16 0.114(8) 0.094(7) 0.040(5) 0.006(5) 0.004(5) -0.012(6)
C46 0.136(13) 0.164(15) 0.168(14) -0.007(12) -0.043(11) 0.029(11)
C47 0.24(3) 0.23(3) 0.33(3) 0.02(2) 0.02(2) -0.01(2)
C48 0.25(4) 0.11(2) 0.23(3) 0.03(2) 0.08(3) 0.05(2)
N16 0.159(12) 0.130(11) 0.149(12) 0.016(10) -0.001(10) 0.019(10)
O17 0.196(14) 0.134(11) 0.129(10) -0.006(10) -0.073(10) 0.037(12)
C49 0.147(17) 0.168(19) 0.19(2) 0.063(17) -0.021(16) -0.086(15)
C50 0.21(2) 0.20(2) 0.25(3) 0.00(2) 0.06(2) -0.10(2)
N17 0.26(2) 0.27(2) 0.263(19) -0.031(13) 0.018(13) -0.017(13)
C51 0.39(4) 0.40(4) 0.39(4) -0.001(14) 0.008(14) -0.011(14)
C52 0.31(3) 0.23(3) 0.20(2) 0.03(2) 0.03(2) -0.04(2)
C53 0.23(3) 0.19(2) 0.18(2) -0.024(19) -0.02(2) 0.02(2)
N18 0.092(11) 0.31(3) 0.056(8) 0.021(13) -0.001(8) 0.006(16)
O18 0.21(2) 0.41(4) 0.198(19) -0.14(3) 0.060(17) -0.09(3)
C54 0.42(5) 0.43(5) 0.43(5) 0.002(14) -0.003(14) -0.013(14)
C55 0.156(19) 0.25(3) 0.21(2) 0.043(19) 0.085(18) 0.043(19)
C56 0.48(5) 0.45(5) 0.46(5) 0.03(3) 0.04(3) -0.04(3)
N19 0.182(13) 0.169(13) 0.139(11) 0.071(10) 0.026(11) -0.011(11)
O19 0.33(3) 0.090(9) 0.078(8) 0.005(7) 0.035(12) -0.050(13)
loop_
_geom_bond_atom_site_label_1
_geom_bond_atom_site_label_2
_geom_bond_site_symmetry_1
_geom_bond_site_symmetry_2
Zn1 N1 1_555 1_555
Zn2 O5 1_555 1_555
Zn3 N5 1_555 1_555
Zn4 O3 1_555 1_555
Zn5 O4 1_555 1_555
O1 C13 1_555 1_555
O2 C13 1_555 1_555
O3 C17 1_555 1_555
O4 C17 1_555 1_555
O5 C21 1_555 1_555
O6 Zn2 1_555 1_555
O7 Zn5 1_555 1_555
O8 Zn4 1_555 1_555
O9 Zn4 1_555 1_555
O10 Zn5 1_555 1_555
O11 C33 1_555 1_555
O12 C33 1_555 1_555
N1 N2 1_555 1_555
N2 Zn2 1_555 1_555
N3 C2 1_555 1_555
N4 Zn2 1_555 1_555
N5 N4 1_555 1_555
N6 C6 1_555 1_555
N7 Zn1 1_555 1_555
N8 Zn3 1_555 1_555
N9 C10 1_555 1_555
C1 H1 1_555 1_555
H2 C1 1_555 1_555
H3 C1 1_555 1_555
C2 N1 1_555 1_555
C3 N2 1_555 1_555
C4 C3 1_555 1_555
H4 C4 1_555 1_555
H5 C4 1_555 1_555
H6 C4 1_555 1_555
C5 H7 1_555 1_555
H8 C5 1_555 1_555
H9 C5 1_555 1_555
C6 N4 1_555 1_555
C7 N5 1_555 1_555
C8 C7 1_555 1_555
H10 C8 1_555 1_555
H11 C8 1_555 1_555
H12 C8 1_555 1_555
C9 H13 1_555 1_555
H14 C9 1_555 1_555
H15 C9 1_555 1_555
C10 N7 1_555 1_555
C11 N8 1_555 1_555
C12 C11 1_555 1_555
H16 C12 1_555 1_555
H17 C12 1_555 1_555
H18 C12 1_555 1_555
C13 C14 1_555 1_555
C14 C15 1_555 1_555
C15 H19 1_555 1_555
C16 C15 1_555 1_555
C17 C16 1_555 1_555
C18 C16 1_555 1_555
H20 C18 1_555 1_555
C19 C18 1_555 1_555
C20 C14 1_555 1_555
H21 C20 1_555 1_555
C21 O6 1_555 1_555
C22 C21 1_555 1_555
C23 C22 1_555 1_555
H22 C23 1_555 1_555
C24 C23 1_555 1_555
C25 O7 1_555 1_555
C26 C24 1_555 1_555
H23 C26 1_555 1_555
C27 C26 1_555 1_555
C28 C22 1_555 1_555
H24 C28 1_555 1_555
C29 O9 1_555 1_555
C30 C29 1_555 1_555
C31 C30 1_555 1_555
H25 C31 1_555 1_555
C32 C31 1_555 1_555
C33 C32 1_555 1_555
C34 C32 1_555 1_555
H26 C34 1_555 1_555
C35 C34 1_555 1_555
C36 C30 1_555 1_555
H27 C36 1_555 1_555
N10 C19 1_555 1_555
H28 N10 1_555 1_555
H29 N10 1_555 1_555
N11 C27 1_555 1_555
H30 N11 1_555 1_555
H31 N11 1_555 1_555
N12 C35 1_555 1_555
H32 N12 1_555 1_555
H33 N12 1_555 1_555
O13 Zn1 1_555 1_555
H34 O13 1_555 1_555
C37 H35 1_555 1_555
C38 H36 1_555 1_555
H37 C38 1_555 1_555
H38 C38 1_555 1_555
C39 H39 1_555 1_555
H40 C39 1_555 1_555
H41 C39 1_555 1_555
N13 C37 1_555 1_555
O14 C37 1_555 1_555
C40 H42 1_555 1_555
C41 H43 1_555 1_555
H44 C41 1_555 1_555
H45 C41 1_555 1_555
C42 H46 1_555 1_555
H47 C42 1_555 1_555
H48 C42 1_555 1_555
N14 C40 1_555 1_555
O15 C40 1_555 1_555
C43 H49 1_555 1_555
C44 H50 1_555 1_555
H51 C44 1_555 1_555
H52 C44 1_555 1_555
C45 H53 1_555 1_555
H54 C45 1_555 1_555
H55 C45 1_555 1_555
N15 C43 1_555 1_555
O16 C43 1_555 1_555
C46 H56 1_555 1_555
C47 H57 1_555 1_555
H58 C47 1_555 1_555
H59 C47 1_555 1_555
C48 H60 1_555 1_555
H61 C48 1_555 1_555
H62 C48 1_555 1_555
N16 C46 1_555 1_555
O17 C46 1_555 1_555
C49 H63 1_555 1_555
H64 C49 1_555 1_555
H65 C49 1_555 1_555
C50 H66 1_555 1_555
H67 C50 1_555 1_555
H68 C50 1_555 1_555
N17 C49 1_555 1_555
H69 N17 1_555 1_555
C51 H70 1_555 1_555
C52 H71 1_555 1_555
H72 C52 1_555 1_555
H73 C52 1_555 1_555
C53 H74 1_555 1_555
H75 C53 1_555 1_555
H76 C53 1_555 1_555
N18 C51 1_555 1_555
O18 C51 1_555 1_555
C54 H77 1_555 1_555
C55 H78 1_555 1_555
H79 C55 1_555 1_555
H80 C55 1_555 1_555
C56 H81 1_555 1_555
H82 C56 1_555 1_555
H83 C56 1_555 1_555
N19 C54 1_555 1_555
O19 C54 1_555 1_555
Zn1C O1 1_555 1_555
Zn3B N3 1_555 1_555
Zn4A N6 1_555 1_555
Zn4C O12 1_555 1_555
Zn5B N9 1_555 1_555
Zn5C O11 1_555 1_555
O1C Zn1 1_555 1_555
O11C Zn5 1_555 1_555
O12C Zn4 1_555 1_555
N3B Zn3 1_555 1_555
N6A Zn4 1_555 1_555
N9B Zn5 1_555 1_555
Zn2 O13 1_555 1_555
Zn3 O13 1_555 1_555
O8 C25 1_555 1_555
O10 C29 1_555 1_555
N3 C3 1_555 1_555
N6 C7 1_555 1_555
N7 N8 1_555 1_555
N9 C11 1_555 1_555
C1 C2 1_555 1_555
C5 C6 1_555 1_555
C9 C10 1_555 1_555
C19 C20 1_555 1_555
C24 C25 1_555 1_555
C27 C28 1_555 1_555
C35 C36 1_555 1_555
C38 N13 1_555 1_555
C39 N13 1_555 1_555
C41 N14 1_555 1_555
C42 N14 1_555 1_555
C44 N15 1_555 1_555
C45 N15 1_555 1_555
C47 N16 1_555 1_555
C48 N16 1_555 1_555
C50 N17 1_555 1_555
C52 N18 1_555 1_555
C53 N18 1_555 1_555
C55 N19 1_555 1_555
C56 N19 1_555 1_555

#END
