
#######################################################################
#
#                 Cambridge Crystallographic Data Centre
#                                CCDC 
#
#######################################################################
#
# If this CIF has been generated from an entry in the Cambridge 
# Structural Database, then it will include bibliographic, chemical, 
# crystal, experimental, refinement or atomic coordinate data resulting 
# from the CCDC's data processing and validation procedures.
#
#######################################################################

data_HURGAE
_chemical_formula_moiety         'C47 H53 N13 O24 Zn12'
_symmetry_cell_setting           orthorhombic
_symmetry_space_group_name_H-M   'P n m a'
_symmetry_Int_Tables_number      62
_space_group_name_Hall           '-P 2ac 2n'
loop_
_symmetry_equiv_pos_site_id
_symmetry_equiv_pos_as_xyz
1 x,y,z
2 1/2-x,-y,1/2+z
3 -x,1/2+y,-z
4 1/2+x,1/2-y,1/2-z
5 -x,-y,-z
6 1/2+x,y,1/2-z
7 x,1/2-y,z
8 1/2-x,1/2+y,1/2+z
_cell_length_a                   15.1988(13)
_cell_length_b                   19.2039(16)
_cell_length_c                   25.754(2)
_cell_angle_alpha                90
_cell_angle_beta                 90
_cell_angle_gamma                90
_cell_volume                     7516.98
loop_
_atom_site_label
_atom_site_type_symbol
_atom_site_fract_x
_atom_site_fract_y
_atom_site_fract_z
N6 N 0.1586(6) 0.7500 0.1033(3)
O10 O 0.2065(4) 0.7500 0.1862(2)
C24 C 0.2176(8) 0.7500 0.1409(5)
H25 H 0.2760 0.7500 0.1302
C25 C 0.0688(9) 0.7500 0.1137(7)
C26 C 0.1818(15) 0.7500 0.0507(6)
Zn1 Zn 0.42725(3) 0.83813(3) 0.23418(2)
Zn2 Zn 0.46962(4) 0.96392(3) 0.45162(2)
Zn3 Zn 0.29969(5) 0.7500 0.31236(3)
N1 N 0.4179(2) 0.8690(2) 0.30883(14)
N2 N 0.3582(2) 0.83457(19) 0.34010(14)
N3 N 0.4244(3) 0.9151(2) 0.38732(15)
N4 N 0.5400(2) 0.7860(2) 0.21873(16)
N5 N 0.6717(3) 0.7500 0.1965(2)
O1 O 0.4870(3) 0.87905(19) 0.49885(15)
O2 O 0.5276(3) 0.9345(2) 0.57079(16)
O3 O 0.6012(3) 0.9611(2) 0.43753(16)
O4 O 0.6438(3) 1.0182(2) 0.50825(16)
O5 O 0.8369(4) 0.8790(3) 0.3171(2)
O6 O 0.9543(4) 0.9344(4) 0.3104(2)
O7 O 0.3547(3) 0.7500 0.24280(16)
H1 H 0.3058 0.7500 0.2244
O8 O 0.5358(17) 0.7500 0.7067(6)
O9 O 0.9630(13) 1.0794(12) 0.4727(8)
C1 C 0.5247(5) 0.9658(3) 0.3200(2)
H2 H 0.5811 0.9434 0.3220
H3 H 0.5248 1.0066 0.3415
H4 H 0.5129 0.9788 0.2847
C2 C 0.4556(3) 0.9170(3) 0.33828(18)
C3 C 0.3636(3) 0.8640(3) 0.38623(18)
C4 C 0.3083(5) 0.8431(4) 0.4311(2)
H5 H 0.2643 0.8106 0.4198
H6 H 0.2802 0.8835 0.4455
H7 H 0.3446 0.8217 0.4571
C5 C 0.5103(4) 0.8811(3) 0.5458(2)
C6 C 0.5148(5) 0.8126(3) 0.5740(2)
C7 C 0.5268(8) 0.8118(4) 0.6266(3)
H8 H 0.5309 0.8536 0.6447
C8 C 0.5330(13) 0.7500 0.6528(4)
C9 C 0.5069(6) 0.7500 0.5474(3)
H9 H 0.4963 0.7500 0.5119
C10 C 0.8837(5) 0.9254(4) 0.3316(3)
C11 C 0.8556(5) 0.9667(4) 0.3777(3)
C12 C 0.9172(7) 1.0112(8) 0.4009(5)
H10 H 0.9710 1.0198 0.3849
C13 C 0.8972(8) 1.0423(8) 0.4477(6)
C14 C 0.8090(7) 1.0393(8) 0.4656(5)
H11 H 0.7920 1.0670 0.4935
C15 C 0.7493(5) 0.9971(4) 0.4429(3)
C16 C 0.7735(4) 0.9604(3) 0.3985(2)
H12 H 0.7329 0.9310 0.3828
C17 C 0.6579(4) 0.9913(3) 0.4650(2)
C18 C 0.6503(4) 0.8786(3) 0.2031(3)
H13 H 0.6011 0.9094 0.2078
H14 H 0.6767 0.8871 0.1699
H15 H 0.6928 0.8868 0.2300
C19 C 0.6197(3) 0.8055(3) 0.2058(2)
C20 C 0.9436(19) 1.116(2) 0.5232(13)
H16 H 0.9289 1.0816 0.5492
H17 H 0.8954 1.1493 0.5211
C21 C 1.032(2) 1.152(2) 0.5384(13)
H18 H 1.0682 1.1580 0.5083
H19 H 1.0627 1.1248 0.5638
H20 H 1.0174 1.1966 0.5528
C22 C 0.544(4) 0.8163(16) 0.7377(15)
H21 H 0.4998 0.8497 0.7271
H22 H 0.6019 0.8369 0.7327
C23 C 0.531(5) 0.7947(5) 0.7953(18)
H23 H 0.5581 0.8286 0.8175
H24 H 0.4690 0.7924 0.8028
N4F N 0.5400(2) 0.7140(2) 0.21873(16)
C18F C 0.6503(4) 0.6214(3) 0.2031(3)
H13F H 0.6011 0.5906 0.2078
H14F H 0.6767 0.6129 0.1699
H15F H 0.6928 0.6132 0.2300
C19F C 0.6197(3) 0.6945(3) 0.2058(2)
O1F O 0.4870(3) 0.62095(19) 0.49885(15)
O2F O 0.5276(3) 0.5655(2) 0.57079(16)
C5F C 0.5103(4) 0.6189(3) 0.5458(2)
C6F C 0.5148(5) 0.6874(3) 0.5740(2)
C7F C 0.5268(8) 0.6882(4) 0.6266(3)
H8F H 0.5309 0.6464 0.6447
C22F C 0.544(4) 0.6837(16) 0.7377(15)
H21F H 0.4998 0.6503 0.7271
H22F H 0.6019 0.6631 0.7327
C23F C 0.531(5) 0.7053(5) 0.7953(18)
H23F H 0.5581 0.6714 0.8175
H24F H 0.4690 0.7076 0.8028
Zn1D Zn 0.57275(3) 1.16187(3) 0.76582(2)
Zn2D Zn 0.53038(4) 1.03608(3) 0.54838(2)
N1D N 0.5821(2) 1.1310(2) 0.69117(14)
N2D N 0.6418(2) 1.16543(19) 0.65990(14)
N3D N 0.5756(3) 1.0849(2) 0.61268(15)
O3D O 0.3988(3) 1.0389(2) 0.56247(16)
O4D O 0.3562(3) 0.9818(2) 0.49175(16)
O5D O 0.1631(4) 1.1210(3) 0.6829(2)
O6D O 0.0457(4) 1.0656(4) 0.6896(2)
O9D O 0.0370(13) 0.9206(12) 0.5273(8)
C1D C 0.4753(5) 1.0342(3) 0.6800(2)
H2D H 0.4189 1.0566 0.6780
H3D H 0.4752 0.9934 0.6585
H4D H 0.4871 1.0212 0.7153
C2D C 0.5444(3) 1.0830(3) 0.66172(18)
C3D C 0.6364(3) 1.1360(3) 0.61377(18)
C4D C 0.6917(5) 1.1569(4) 0.5689(2)
H5D H 0.7357 1.1894 0.5802
H6D H 0.7198 1.1165 0.5545
H7D H 0.6554 1.1783 0.5429
C10D C 0.1163(5) 1.0746(4) 0.6684(3)
C11D C 0.1444(5) 1.0333(4) 0.6223(3)
C12D C 0.0828(7) 0.9888(8) 0.5991(5)
H10D H 0.0290 0.9802 0.6151
C13D C 0.1028(8) 0.9577(8) 0.5523(6)
C14D C 0.1910(7) 0.9607(8) 0.5344(5)
H11D H 0.2080 0.9330 0.5065
C15D C 0.2507(5) 1.0029(4) 0.5571(3)
C16D C 0.2265(4) 1.0396(3) 0.6015(2)
H12D H 0.2671 1.0690 0.6172
C17D C 0.3421(4) 1.0087(3) 0.5350(2)
C20D C 0.0564(19) 0.884(2) 0.4768(13)
H16D H 0.0711 0.9184 0.4508
H17D H 0.1046 0.8507 0.4789
C21D C -0.032(2) 0.848(2) 0.4616(13)
H18D H -0.0682 0.8420 0.4917
H19D H -0.0627 0.8752 0.4362
H20D H -0.0174 0.8034 0.4472
Zn1A Zn 0.07275(3) 1.16187(3) 0.73418(2)
Zn1E Zn 0.92725(3) 0.83813(3) 0.26582(2)
Zn1F Zn 0.42725(3) 0.66187(3) 0.23418(2)
Zn2B Zn 0.53038(4) 0.46392(3) 0.54838(2)
Zn2F Zn 0.46962(4) 0.53608(3) 0.45162(2)
Zn3B Zn 0.70031(5) 1.2500 0.68764(3)
Zn3C Zn 0.79969(5) 0.7500 0.18764(3)
N2F N 0.3582(2) 0.66543(19) 0.34010(14)
N4D N 0.4600(2) 1.2140(2) 0.78127(16)
N5C N 0.1717(3) 0.7500 0.3035(2)
O1D O 0.5130(3) 1.12095(19) 0.50115(15)
O2D O 0.4724(3) 1.0655(2) 0.42921(16)
O5A O 0.6631(4) 1.1210(3) 0.8171(2)
O5E O 0.3369(4) 0.8790(3) 0.1829(2)
O6A O 0.5457(4) 1.0656(4) 0.8104(2)
O6E O 0.4543(4) 0.9344(4) 0.1896(2)
O7B O 0.6453(3) 1.2500 0.75720(16)
loop_
_geom_bond_atom_site_label_1
_geom_bond_atom_site_label_2
_geom_bond_site_symmetry_1
_geom_bond_site_symmetry_2
Zn1 N1 1_555 1_555
Zn2 N3 1_555 1_555
Zn3 N2 1_555 1_555
N1 N2 1_555 1_555
N2 C3 1_555 1_555
N3 C2 1_555 1_555
N4 Zn1 1_555 1_555
N5 C19 1_555 1_555
O1 Zn2 1_555 1_555
O2 C5 1_555 1_555
O3 Zn2 1_555 1_555
O4 C17 1_555 1_555
O5 C10 1_555 1_555
O6 C10 1_555 1_555
O7 Zn1 1_555 1_555
H1 O7 1_555 1_555
O8 C8 1_555 1_555
O9 C13 1_555 1_555
C1 H2 1_555 1_555
H3 C1 1_555 1_555
H4 C1 1_555 1_555
C2 N1 1_555 1_555
C3 N3 1_555 1_555
C4 C3 1_555 1_555
H5 C4 1_555 1_555
H6 C4 1_555 1_555
H7 C4 1_555 1_555
C5 O1 1_555 1_555
C6 C5 1_555 1_555
C7 C6 1_555 1_555
H8 C7 1_555 1_555
C8 C7 1_555 1_555
C9 C6 1_555 1_555
H9 C9 1_555 1_555
C10 C11 1_555 1_555
C11 C12 1_555 1_555
C12 H10 1_555 1_555
C13 C12 1_555 1_555
C14 C13 1_555 1_555
H11 C14 1_555 1_555
C15 C14 1_555 1_555
C16 C11 1_555 1_555
H12 C16 1_555 1_555
C17 O3 1_555 1_555
C18 H13 1_555 1_555
H14 C18 1_555 1_555
H15 C18 1_555 1_555
C19 N4 1_555 1_555
C20 O9 1_555 1_555
H16 C20 1_555 1_555
H17 C20 1_555 1_555
C21 C20 1_555 1_555
H18 C21 1_555 1_555
H19 C21 1_555 1_555
H20 C21 1_555 1_555
C22 O8 1_555 1_555
H21 C22 1_555 1_555
H22 C22 1_555 1_555
C23 C22 1_555 1_555
H23 C23 1_555 1_555
H24 C23 1_555 1_555
N6 C24 1_555 1_555
O10 C24 1_555 1_555
C24 H25 1_555 1_555
C25 N6 1_555 1_555
C26 N6 1_555 1_555
N4F N4 1_555 1_555
C18F H13F 1_555 1_555
H14F C18F 1_555 1_555
H15F C18F 1_555 1_555
C19F N5 1_555 1_555
O1F C5F 1_555 1_555
O2F C5F 1_555 1_555
C5F C6F 1_555 1_555
C6F C9 1_555 1_555
C7F C8 1_555 1_555
H8F C7F 1_555 1_555
C22F O8 1_555 1_555
H21F C22F 1_555 1_555
H22F C22F 1_555 1_555
C23F C22F 1_555 1_555
H23F C23F 1_555 1_555
H24F C23F 1_555 1_555
Zn1D N1D 1_555 1_555
Zn2D O2 1_555 1_555
N1D N2D 1_555 1_555
N2D C3D 1_555 1_555
N3D Zn2D 1_555 1_555
O3D Zn2D 1_555 1_555
O4D Zn2 1_555 1_555
O5D C10D 1_555 1_555
O6D C10D 1_555 1_555
O9D C13D 1_555 1_555
C1D H2D 1_555 1_555
H3D C1D 1_555 1_555
H4D C1D 1_555 1_555
C2D N1D 1_555 1_555
C3D N3D 1_555 1_555
C4D C3D 1_555 1_555
H5D C4D 1_555 1_555
H6D C4D 1_555 1_555
H7D C4D 1_555 1_555
C10D C11D 1_555 1_555
C11D C12D 1_555 1_555
C12D H10D 1_555 1_555
C13D C12D 1_555 1_555
C14D C13D 1_555 1_555
H11D C14D 1_555 1_555
C15D C14D 1_555 1_555
C16D C11D 1_555 1_555
H12D C16D 1_555 1_555
C17D O3D 1_555 1_555
C20D O9D 1_555 1_555
H16D C20D 1_555 1_555
H17D C20D 1_555 1_555
C21D C20D 1_555 1_555
H18D C21D 1_555 1_555
H19D C21D 1_555 1_555
H20D C21D 1_555 1_555
Zn1A O5D 1_555 1_555
Zn1E O5 1_555 1_555
Zn1F O7 1_555 1_555
Zn2B O2F 1_555 1_555
Zn2F O1F 1_555 1_555
Zn3B N2D 1_555 1_555
Zn3C N5 1_555 1_555
N2F Zn3 1_555 1_555
N4D Zn1D 1_555 1_555
N5C Zn3 1_555 1_555
O1D Zn2D 1_555 1_555
O2D Zn2 1_555 1_555
O5A Zn1D 1_555 1_555
O5E Zn1 1_555 1_555
O6A Zn1D 1_555 1_555
O6E Zn1 1_555 1_555
O7B Zn1D 1_555 1_555
Zn3 O7 1_555 1_555
O4 Zn2D 1_555 1_555
O6 Zn1E 1_555 1_555
C1 C2 1_555 1_555
C15 C16 1_555 1_555
C15 C17 1_555 1_555
C18 C19 1_555 1_555
N4F C19F 1_555 1_555
N4F Zn1F 1_555 1_555
C18F C19F 1_555 1_555
C6F C7F 1_555 1_555
N3D C2D 1_555 1_555
O4D C17D 1_555 1_555
O6D Zn1A 1_555 1_555
C1D C2D 1_555 1_555
C15D C16D 1_555 1_555
C15D C17D 1_555 1_555
Zn3B O7B 1_555 1_555

#END
