
#######################################################################
#
#                 Cambridge Crystallographic Data Centre
#                                CCDC 
#
#######################################################################
#
# If this CIF has been generated from an entry in the Cambridge 
# Structural Database, then it will include bibliographic, chemical, 
# crystal, experimental, refinement or atomic coordinate data resulting 
# from the CCDC's data processing and validation procedures.
#
#######################################################################

data_IFUXOW
_chemical_formula_moiety         '(C18 H20 Mn3 Mo2 N15 O4 1-)n'
_symmetry_cell_setting           monoclinic
_symmetry_space_group_name_H-M   'C 2/c'
_symmetry_Int_Tables_number      15
_space_group_name_Hall           '-C 2yc'
loop_
_symmetry_equiv_pos_site_id
_symmetry_equiv_pos_as_xyz
1 x,y,z
2 1/2+x,1/2+y,z
3 -x,y,1/2-z
4 1/2-x,1/2+y,1/2-z
5 -x,-y,-z
6 1/2-x,1/2-y,-z
7 x,-y,1/2+z
8 1/2+x,1/2-y,1/2+z
_cell_length_a                   25.8546(14)
_cell_length_b                   12.3906(7)
_cell_length_c                   13.5382(7)
_cell_angle_alpha                90
_cell_angle_beta                 116.4170(10)
_cell_angle_gamma                90
_cell_volume                     3884.14
loop_
_atom_site_label
_atom_site_type_symbol
_atom_site_fract_x
_atom_site_fract_y
_atom_site_fract_z
_atom_site_U_iso_or_equiv
_atom_site_thermal_displace_type
C1 C -0.0879(2) 0.8604(4) 0.4908(4) 0.0186 Uani
C2 C -0.18205(19) 0.6994(4) 0.1894(3) 0.0213 Uani
C3 C -0.0846(2) 1.0901(4) 0.7949(3) 0.0214 Uani
C4 C -0.1940(2) 0.9035(4) 0.1890(4) 0.0180 Uani
C5 C -0.2072(2) 0.8713(4) 0.3640(3) 0.0200 Uani
C6 C -0.16549(18) 0.6764(4) 0.4059(3) 0.0187 Uani
C7 C -0.07377(19) 0.6889(4) 0.3520(3) 0.0217 Uani
N1 N -0.05809(16) 0.8885(3) 0.5800(3) 0.0240 Uani
N2 N -0.20015(18) 0.6361(3) 0.1185(3) 0.0331 Uani
N3 N -0.05447(17) 1.0302(3) 0.7816(3) 0.0274 Uani
N4 N -0.22360(17) 0.9538(3) 0.1112(3) 0.0255 Uani
N5 N -0.24202(18) 0.9021(3) 0.3893(3) 0.0282 Uani
N6 N -0.17797(17) 0.6106(3) 0.4523(3) 0.0274 Uani
N7 N -0.04132(18) 0.6184(3) 0.3659(3) 0.0315 Uani
Mn1 Mn 0.0000 0.92221(8) 0.7500 0.0139 Uani
Mn2 Mn -0.21180(3) 0.48351(5) 0.04126(5) 0.0146 Uani
Mo1 Mo -0.142149(18) 0.80568(3) 0.32461(3) 0.0132 Uani
O1 O 0.0000 0.7417(5) 0.7500 0.0557 Uani
H1 H -0.0335(15) 0.737(5) 0.743(5) 0.0880 Uiso
O2 O -0.11959(16) 0.4600(3) 0.1756(3) 0.0414 Uani
H2 H -0.099(2) 0.442(5) 0.146(5) 0.0880 Uiso
H3 H -0.109(3) 0.515(3) 0.213(4) 0.0880 Uiso
H1B H 0.0335(15) 0.737(5) 0.757(5) 0.0880 Uiso
C1B C 0.0879(2) 0.8604(4) 1.0092(4) 0.0186 Uani
N1B N 0.05809(16) 0.8885(3) 0.9200(3) 0.0240 Uani
C3B C 0.0846(2) 1.0901(4) 0.7051(3) 0.0214 Uani
N3B N 0.05447(17) 1.0302(3) 0.7184(3) 0.0274 Uani
Mo1B Mo 0.142149(18) 0.80568(3) 1.17539(3) 0.0132 Uani
C2B C 0.18205(19) 0.6994(4) 1.3106(3) 0.0213 Uani
N2B N 0.20015(18) 0.6361(3) 1.3815(3) 0.0331 Uani
C4B C 0.1940(2) 0.9035(4) 1.3110(4) 0.0180 Uani
N4B N 0.22360(17) 0.9538(3) 1.3888(3) 0.0255 Uani
C5B C 0.2072(2) 0.8713(4) 1.1360(3) 0.0200 Uani
N5B N 0.24202(18) 0.9021(3) 1.1107(3) 0.0282 Uani
C6B C 0.16549(18) 0.6764(4) 1.0941(3) 0.0187 Uani
N6B N 0.17797(17) 0.6106(3) 1.0477(3) 0.0274 Uani
C7B C 0.07377(19) 0.6889(4) 1.1480(3) 0.0217 Uani
N7B N 0.04132(18) 0.6184(3) 1.1341(3) 0.0315 Uani
Mn2B Mn 0.21180(3) 0.48351(5) 1.45874(5) 0.0146 Uani
O2B O 0.11959(16) 0.4600(3) 1.3244(3) 0.0414 Uani
H2B H 0.099(2) 0.442(5) 1.354(5) 0.0880 Uiso
H3B H 0.109(3) 0.515(3) 1.287(4) 0.0880 Uiso
Mo1F Mo -0.142149(18) 1.19432(3) 0.82461(3) 0.0132 Uani
Mn2E Mn -0.28820(3) 1.01649(5) -0.04126(5) 0.0146 Uani
Mn2C Mn -0.28820(3) 0.98351(5) 0.45874(5) 0.0146 Uani
Mn2F Mn -0.21180(3) 0.51649(5) 0.54126(5) 0.0146 Uani
N4E N -0.27640(17) 0.5462(3) -0.1112(3) 0.0255 Uani
N5C N -0.25798(18) 0.4021(3) 0.1107(3) 0.0282 Uani
N6F N -0.17797(17) 0.3894(3) -0.0477(3) 0.0274 Uani
C3F C -0.0846(2) 0.9099(4) 0.2949(3) 0.0214 Uani
Mo1D Mo 0.142149(18) 1.19432(3) 0.67539(3) 0.0132 Uani
C3D C 0.0846(2) 0.9099(4) 1.2051(3) 0.0214 Uani
Mn2G Mn 0.28820(3) 1.01649(5) 1.54126(5) 0.0146 Uani
Mn2A Mn 0.28820(3) 0.98351(5) 1.04126(5) 0.0146 Uani
Mn2D Mn 0.21180(3) 0.51649(5) 0.95874(5) 0.0146 Uani
N4G N 0.27640(17) 0.5462(3) 1.6112(3) 0.0255 Uani
N5A N 0.25798(18) 0.4021(3) 1.3893(3) 0.0282 Uani
N6D N 0.17797(17) 0.3894(3) 1.5477(3) 0.0274 Uani
C8 C 0.1371(3) 0.6625(5) 0.5887(5) 0.0913 Uani
H4 H 0.1778 0.6487 0.6080 0.1370 Uiso
H5 H 0.1128 0.6335 0.5150 0.1370 Uiso
H6 H 0.1270 0.6274 0.6426 0.1370 Uiso
C9 C 0.1442(4) 0.8350(6) 0.5087(6) 0.1305 Uani
H7 H 0.1827 0.8106 0.5217 0.1950 Uiso
H8 H 0.1445 0.9134 0.5182 0.1950 Uiso
H9 H 0.1163 0.8161 0.4334 0.1950 Uiso
C10 C 0.0665(3) 0.8063(7) 0.5564(6) 0.1192 Uani
H10 H 0.0533 0.7660 0.6032 0.1790 Uiso
H11 H 0.0432 0.7857 0.4792 0.1790 Uiso
H12 H 0.0622 0.8838 0.5649 0.1790 Uiso
C11 C 0.1634(3) 0.8270(6) 0.7003(5) 0.1063 Uani
H13 H 0.2043 0.8148 0.7203 0.1600 Uiso
H14 H 0.1535 0.7916 0.7544 0.1600 Uiso
H15 H 0.1561 0.9047 0.6996 0.1600 Uiso
N8 N 0.12739(19) 0.7813(4) 0.5892(4) 0.0382 Uani
O3 O 0.03405(17) 0.4343(3) 0.3995(3) 0.0342 Uani
H16 H 0.038(3) 0.416(5) 0.461(3) 0.0880 Uiso
H17 H 0.013(2) 0.488(4) 0.376(5) 0.0880 Uiso
loop_
_atom_site_aniso_label
_atom_site_aniso_U_11
_atom_site_aniso_U_22
_atom_site_aniso_U_33
_atom_site_aniso_U_23
_atom_site_aniso_U_13
_atom_site_aniso_U_12
C1 0.017(3) 0.018(3) 0.025(3) 0.004(2) 0.013(2) 0.004(2)
C2 0.025(3) 0.017(3) 0.018(2) 0.002(3) 0.006(2) 0.004(3)
C3 0.018 0.025 0.016 -0.005 0.003 0
C4 0.020(3) 0.021(3) 0.018(2) -0.004(2) 0.013(2) -0.001(2)
C5 0.023(3) 0.020(3) 0.017(2) 0.000(2) 0.009(2) -0.001(2)
C6 0.017(3) 0.020(3) 0.020(2) -0.002(2) 0.009(2) 0.004(2)
C7 0.021(3) 0.024(3) 0.019(2) -0.001(3) 0.008(2) -0.005(3)
N1 0.023(3) 0.025(3) 0.023(2) -0.0008(19) 0.0092(19) 0.000(2)
N2 0.038(3) 0.019(3) 0.030(2) -0.002(2) 0.004(2) 0.006(2)
N3 0.024 0.031 0.026 -0.008 0.01 0.004
N4 0.032(3) 0.024(3) 0.019(2) -0.0029(19) 0.010(2) 0.004(2)
N5 0.033(3) 0.027(3) 0.030(2) 0.002(2) 0.019(2) 0.006(2)
N6 0.023(2) 0.033(3) 0.025(2) 0.007(2) 0.0096(19) -0.004(2)
N7 0.023(3) 0.033(3) 0.036(3) -0.002(2) 0.011(2) 0.003(2)
Mn1 0.0130(6) 0.0156(6) 0.0130(5) 0.000 0.0057(4) 0.000
Mn2 0.0162(4) 0.0137(4) 0.0148(3) -0.0013(3) 0.0077(3) 0.0002(3)
Mo1 0.0132(2) 0.0134(2) 0.01292(17) 0.0005(2) 0.00570(15) -0.0009(2)
O1 0.069(4) 0.031(3) 0.049(3) 0.000 0.010(3) 0.000
O2 0.024(2) 0.051(3) 0.043(2) -0.022(2) 0.0094(19) 0.003(2)
C1B 0.017 0.018 0.025 -0.004 0.013 -0.004
N1B 0.023 0.025 0.023 0.0008 0.0092 0
C3B 0.018 0.025 0.016 0.005 0.003 0
N3B 0.024 0.031 0.026 0.008 0.01 -0.004
Mo1B 0.0132 0.0134 0.01292 -0.0005 0.0057 0.0009
C2B 0.025 0.017 0.018 -0.002 0.006 -0.004
N2B 0.038 0.019 0.03 0.002 0.004 -0.006
C4B 0.02 0.021 0.018 0.004 0.013 0.001
N4B 0.032 0.024 0.019 0.0029 0.01 -0.004
C5B 0.023 0.02 0.017 0 0.009 0.001
N5B 0.033 0.027 0.03 -0.002 0.019 -0.006
C6B 0.017 0.02 0.02 0.002 0.009 -0.004
N6B 0.023 0.033 0.025 -0.007 0.0096 0.004
C7B 0.021 0.024 0.019 0.001 0.008 0.005
N7B 0.023 0.033 0.036 0.002 0.011 -0.003
Mn2B 0.0162 0.0137 0.0148 0.0013 0.0077 -0.0002
O2B 0.024 0.051 0.043 0.022 0.0094 -0.003
Mo1F 0.0132 0.0134 0.01292 -0.0005 0.0057 0.0009
Mn2E 0.0162 0.0137 0.0148 -0.0013 0.0077 0.0002
Mn2C 0.0162 0.0137 0.0148 0.0013 0.0077 -0.0002
Mn2F 0.0162 0.0137 0.0148 0.0013 0.0077 -0.0002
N4E 0.032 0.024 0.019 -0.0029 0.01 0.004
N5C 0.033 0.027 0.03 -0.002 0.019 -0.006
N6F 0.023 0.033 0.025 -0.007 0.0096 0.004
C3F 0.018(3) 0.025(3) 0.016(2) 0.005(2) 0.003(2) 0.000(3)
Mo1D 0.0132 0.0134 0.01292 0.0005 0.0057 -0.0009
C3D 0.018 0.025 0.016 -0.005 0.003 0
Mn2G 0.0162 0.0137 0.0148 0.0013 0.0077 -0.0002
Mn2A 0.0162 0.0137 0.0148 -0.0013 0.0077 0.0002
Mn2D 0.0162 0.0137 0.0148 -0.0013 0.0077 0.0002
N4G 0.032 0.024 0.019 0.0029 0.01 -0.004
N5A 0.033 0.027 0.03 0.002 0.019 0.006
N6D 0.023 0.033 0.025 0.007 0.0096 -0.004
C8 0.161(9) 0.030(5) 0.097(6) -0.007(4) 0.070(6) 0.016(5)
C9 0.184(10) 0.111(8) 0.146(8) 0.029(6) 0.118(8) -0.030(7)
C10 0.042(5) 0.145(8) 0.172(8) -0.100(7) 0.049(5) -0.013(6)
C11 0.096(7) 0.098(7) 0.066(5) -0.039(5) -0.017(4) 0.032(5)
N8 0.037(3) 0.034(3) 0.049(3) -0.008(2) 0.024(2) 0.001(3)
O3 0.032(2) 0.037(3) 0.034(2) 0.0026(19) 0.015(2) 0.016(2)
loop_
_geom_bond_atom_site_label_1
_geom_bond_atom_site_label_2
_geom_bond_site_symmetry_1
_geom_bond_site_symmetry_2
C1 N1 1_555 1_555
C2 N2 1_555 1_555
C3 N3 1_555 1_555
C4 N4 1_555 1_555
C5 N5 1_555 1_555
C6 N6 1_555 1_555
C7 N7 1_555 1_555
N1 Mn1 1_555 1_555
N2 Mn2 1_555 1_555
N3 Mn1 1_555 1_555
N4 Mn2E 1_555 1_555
N5 Mn2C 1_555 1_555
N6 Mn2F 1_555 1_555
Mn1 O1 1_555 1_555
Mn2 O2 1_555 1_555
Mo1 C1 1_555 1_555
O1 H1 1_555 1_555
O2 H2 1_555 1_555
H3 O2 1_555 1_555
C8 H4 1_555 1_555
H5 C8 1_555 1_555
H6 C8 1_555 1_555
C9 H7 1_555 1_555
H8 C9 1_555 1_555
H9 C9 1_555 1_555
C10 H10 1_555 1_555
H11 C10 1_555 1_555
H12 C10 1_555 1_555
C11 H13 1_555 1_555
H14 C11 1_555 1_555
H15 C11 1_555 1_555
N8 C8 1_555 1_555
O3 H16 1_555 1_555
H17 O3 1_555 1_555
H1B O1 1_555 1_555
C1B N1B 1_555 1_555
N1B Mn1 1_555 1_555
C3B N3B 1_555 1_555
N3B Mn1 1_555 1_555
Mo1B C1B 1_555 1_555
C2B Mo1B 1_555 1_555
N2B C2B 1_555 1_555
C4B Mo1B 1_555 1_555
N4B C4B 1_555 1_555
C5B Mo1B 1_555 1_555
N5B C5B 1_555 1_555
C6B Mo1B 1_555 1_555
N6B C6B 1_555 1_555
C7B Mo1B 1_555 1_555
N7B C7B 1_555 1_555
Mn2B N2B 1_555 1_555
O2B Mn2B 1_555 1_555
H2B O2B 1_555 1_555
H3B O2B 1_555 1_555
Mo1F C3 1_555 1_555
N4E Mn2 1_555 1_555
N5C Mn2 1_555 1_555
N6F Mn2 1_555 1_555
C3F Mo1 1_555 1_555
Mo1D C3B 1_555 1_555
C3D Mo1B 1_555 1_555
Mn2G N4B 1_555 1_555
Mn2A N5B 1_555 1_555
Mn2D N6B 1_555 1_555
N4G Mn2B 1_555 1_555
N5A Mn2B 1_555 1_555
N6D Mn2B 1_555 1_555
C2 Mo1 1_555 1_555
C4 Mo1 1_555 1_555
C5 Mo1 1_555 1_555
C6 Mo1 1_555 1_555
C7 Mo1 1_555 1_555
C9 N8 1_555 1_555
C10 N8 1_555 1_555
C11 N8 1_555 1_555

#END
