
#######################################################################
#
#                 Cambridge Crystallographic Data Centre
#                                CCDC 
#
#######################################################################
#
# If this CIF has been generated from an entry in the Cambridge 
# Structural Database, then it will include bibliographic, chemical, 
# crystal, experimental, refinement or atomic coordinate data resulting 
# from the CCDC's data processing and validation procedures.
#
#######################################################################

data_NICCAE
_chemical_formula_moiety         '(C4 H20 Al4 N3 O22 P5)n'
_symmetry_cell_setting           orthorhombic
_symmetry_space_group_name_H-M   'P b c n'
_symmetry_Int_Tables_number      60
_space_group_name_Hall           '-P 2n 2ab'
loop_
_symmetry_equiv_pos_site_id
_symmetry_equiv_pos_as_xyz
1 x,y,z
2 1/2-x,1/2-y,1/2+z
3 -x,y,1/2-z
4 1/2+x,1/2-y,-z
5 -x,-y,-z
6 1/2+x,1/2+y,1/2-z
7 x,-y,1/2+z
8 1/2-x,1/2+y,z
_cell_length_a                   24.7293(16)
_cell_length_b                   8.9442(4)
_cell_length_c                   9.9806(5)
_cell_angle_alpha                90
_cell_angle_beta                 90
_cell_angle_gamma                90
_cell_volume                     2207.55
loop_
_atom_site_label
_atom_site_type_symbol
_atom_site_fract_x
_atom_site_fract_y
_atom_site_fract_z
Al1 Al 0.38530(6) -0.12719(18) 0.78295(16)
Al2 Al 0.23054(6) 0.16923(18) 0.48198(15)
P1 P 0.5000 -0.2645(3) 0.7500
P2 P 0.33884(5) -0.04496(16) 0.51124(13)
P3 P 0.30274(5) -0.38723(16) 0.79440(13)
O1 O 0.5055(3) -0.3620(8) 0.6294(7)
O2 O 0.45127(18) -0.1598(6) 0.7391(6)
O3 O 0.35446(17) -0.0194(5) 0.6594(4)
O4 O 0.28918(16) 0.0431(5) 0.4771(4)
O5 O 0.38686(15) 0.0169(5) 0.4279(4)
O6 O 0.33198(14) -0.2110(4) 0.4853(4)
O7 O 0.35686(15) -0.3043(4) 0.8117(4)
O8 O 0.30724(15) -0.5282(4) 0.8768(3)
O9 O 0.29549(15) -0.4239(4) 0.6461(3)
O10 O 0.25649(15) -0.2829(5) 0.8372(3)
O11 O 0.27458(16) 0.2938(5) 0.5995(4)
Al1B Al 0.61470(6) -0.12719(18) 0.71705(16)
Al1F Al 0.38530(6) 0.12719(18) 0.28295(16)
Al1F_2 Al 0.38530(6) 0.12719(18) 1.28295(16)
Al1A Al 0.11470(6) -0.37281(18) 0.28295(16)
Al2F Al 0.23054(6) -0.16923(18) 0.98198(15)
Al2G Al 0.26946(6) -0.33077(18) 0.48198(15)
Al2A Al 0.26946(6) -0.66923(18) 0.98198(15)
Al2A_2 Al 0.26946(6) 0.33077(18) 0.98198(15)
Al2F_2 Al 0.23054(6) -0.16923(18) -0.01802(15)
P2F P 0.33884(5) 0.04496(16) 1.01124(13)
P3A P 0.19726(5) -0.11277(16) 0.29440(13)
O1B O 0.4945(3) -0.3620(8) 0.8706(7)
O2B O 0.54873(18) -0.1598(6) 0.7609(6)
O3F O 0.35446(17) 0.0194(5) 1.1594(4)
O3B O 0.64554(17) -0.0194(5) 0.8406(4)
O4F O 0.28918(16) -0.0431(5) 0.9771(4)
O5F O 0.38686(15) -0.0169(5) 0.9279(4)
O5D O 0.61314(15) -0.0169(5) 0.5721(4)
O6F O 0.33198(14) 0.2110(4) 0.9853(4)
O6G O 0.16802(14) 0.2890(4) 0.4853(4)
O6A O 0.16802(14) -0.2890(4) 0.9853(4)
O7A O 0.14314(15) -0.1957(4) 0.3117(4)
O7B O 0.64314(15) -0.3043(4) 0.6883(4)
O8A O 0.19276(15) 0.0282(4) 0.3768(3)
O8G O 0.19276(15) -0.0282(4) 0.8768(3)
O9A O 0.20451(15) -0.0761(4) 0.1461(3)
O9G O 0.20451(15) 0.0761(4) 0.6461(3)
O9A_2 O 0.20451(15) -0.0761(4) 1.1461(3)
O10A O 0.24351(15) -0.2171(5) 0.3372(3)
O10F O 0.25649(15) 0.2829(5) 0.3372(3)
O11F O 0.27458(16) -0.2938(5) 1.0995(4)
N1 N 0.5864(3) -0.5446(11) 0.9461(14)
H1 H 0.6185 -0.5091 0.9705
H2 H 0.5683 -0.5741 1.0185
H3 H 0.5678 -0.4732 0.9043
N2 N 0.5000 -0.6620(15) 0.7500
H4 H 0.5149 -0.6024 0.6874
H5 H 0.4851 -0.6024 0.8126
C1 C 0.5934(5) -0.6647(13) 0.8607(16)
H6 H 0.6168 -0.7363 0.9052
H7 H 0.6126 -0.6292 0.7821
C2 C 0.5430(4) -0.7482(14) 0.8127(17)
H8 H 0.5546 -0.8241 0.7494
H9 H 0.5277 -0.7999 0.8892
N1B N 0.4136(3) -0.5446(11) 0.5539(14)
H1B H 0.3815 -0.5091 0.5295
H2B H 0.4317 -0.5741 0.4815
H3B H 0.4322 -0.4732 0.5957
C1B C 0.4066(5) -0.6647(13) 0.6393(16)
H6B H 0.3832 -0.7363 0.5948
H7B H 0.3874 -0.6292 0.7179
C2B C 0.4570(4) -0.7482(14) 0.6873(17)
H8B H 0.4454 -0.8241 0.7506
H9B H 0.4723 -0.7999 0.6108
loop_
_geom_bond_atom_site_label_1
_geom_bond_atom_site_label_2
_geom_bond_site_symmetry_1
_geom_bond_site_symmetry_2
Al1 O2 1_555 1_555
Al2 O4 1_555 1_555
P1 O1 1_555 1_555
P2 O3 1_555 1_555
P3 O7 1_555 1_555
O2 P1 1_555 1_555
O3 Al1 1_555 1_555
O4 P2 1_555 1_555
O5 P2 1_555 1_555
O6 P2 1_555 1_555
O7 Al1 1_555 1_555
O8 P3 1_555 1_555
O9 P3 1_555 1_555
O10 P3 1_555 1_555
O11 Al2 1_555 1_555
N1 H1 1_555 1_555
H2 N1 1_555 1_555
H3 N1 1_555 1_555
N2 H4 1_555 1_555
H5 N2 1_555 1_555
C1 N1 1_555 1_555
H6 C1 1_555 1_555
H7 C1 1_555 1_555
C2 N2 1_555 1_555
H8 C2 1_555 1_555
H9 C2 1_555 1_555
Al1B O2B 1_555 1_555
Al1F O5 1_555 1_555
Al1F_2 O3F 1_555 1_555
Al1A O7A 1_555 1_555
Al2F O10 1_555 1_555
Al2G O6 1_555 1_555
Al2A O8 1_555 1_555
Al2A_2 O6F 1_555 1_555
Al2F_2 O9A 1_555 1_555
P2F O3F 1_555 1_555
P3A O7A 1_555 1_555
O1B P1 1_555 1_555
O2B P1 1_555 1_555
O3B Al1B 1_555 1_555
O4F Al2F 1_555 1_555
O5F Al1 1_555 1_555
O5D Al1B 1_555 1_555
O6F P2F 1_555 1_555
O6G Al2 1_555 1_555
O6A Al2F 1_555 1_555
O7B Al1B 1_555 1_555
O8A Al2 1_555 1_555
O8G Al2F 1_555 1_555
O9A P3A 1_555 1_555
O9G Al2 1_555 1_555
O9A_2 Al2F 1_555 1_555
O10A Al2G 1_555 1_555
O10F Al2 1_555 1_555
O11F Al2F 1_555 1_555
N1B H1B 1_555 1_555
H2B N1B 1_555 1_555
H3B N1B 1_555 1_555
C1B N1B 1_555 1_555
H6B C1B 1_555 1_555
H7B C1B 1_555 1_555
C2B N2 1_555 1_555
H8B C2B 1_555 1_555
H9B C2B 1_555 1_555
O9 Al2G 1_555 1_555
C1 C2 1_555 1_555
P2F O4F 1_555 1_555
P2F O5F 1_555 1_555
P3A O8A 1_555 1_555
P3A O10A 1_555 1_555
C1B C2B 1_555 1_555

#END
