
#######################################################################
#
#                 Cambridge Crystallographic Data Centre
#                                CCDC 
#
#######################################################################
#
# If this CIF has been generated from an entry in the Cambridge 
# Structural Database, then it will include bibliographic, chemical, 
# crystal, experimental, refinement or atomic coordinate data resulting 
# from the CCDC's data processing and validation procedures.
#
#######################################################################

data_KIKDAL
_chemical_formula_moiety         '(C22 H28 Cd1 N10 S2)n'
_symmetry_cell_setting           rhombohedral
_symmetry_space_group_name_H-M   'R -3'
_symmetry_Int_Tables_number      148
_space_group_name_Hall           '-R 3'
loop_
_symmetry_equiv_pos_site_id
_symmetry_equiv_pos_as_xyz
1 x,y,z
2 -y,x-y,z
3 -x+y,-x,z
4 2/3+x,1/3+y,1/3+z
5 2/3-y,1/3+x-y,1/3+z
6 2/3-x+y,1/3-x,1/3+z
7 1/3+x,2/3+y,2/3+z
8 1/3-y,2/3+x-y,2/3+z
9 1/3-x+y,2/3-x,2/3+z
10 -x,-y,-z
11 y,-x+y,-z
12 x-y,x,-z
13 1/3-x,2/3-y,2/3-z
14 1/3+y,2/3-x+y,2/3-z
15 1/3+x-y,2/3+x,2/3-z
16 2/3-x,1/3-y,1/3-z
17 2/3+y,1/3-x+y,1/3-z
18 2/3+x-y,1/3+x,1/3-z
_cell_length_a                   25.791(2)
_cell_length_b                   25.791(2)
_cell_length_c                   11.1284(13)
_cell_angle_alpha                90
_cell_angle_beta                 90
_cell_angle_gamma                120
_cell_volume                     6410.62
loop_
_atom_site_label
_atom_site_type_symbol
_atom_site_fract_x
_atom_site_fract_y
_atom_site_fract_z
_atom_site_U_iso_or_equiv
_atom_site_thermal_displace_type
Cd1 Cd 0.5000 0.0000 0.0000 0.0196 Uani
S1 S 0.67350(3) 0.19479(3) -0.12476(7) 0.0340 Uani
N1 N 0.45582(10) 0.05783(9) 0.09100(18) 0.0233 Uani
N2 N 0.47293(10) 0.11477(9) 0.05646(18) 0.0244 Uani
H1 H 0.4958 0.1323 -0.0052 0.0370 Uiso
N3 N 0.35213(9) 0.13718(9) 0.47586(18) 0.0232 Uani
N4 N 0.30451(10) 0.08907(10) 0.42472(19) 0.0249 Uani
H2 H 0.2682 0.0726 0.4528 0.0300 Uiso
N5 N 0.56540(10) 0.09032(10) -0.07788(19) 0.0270 Uani
C1 C 0.42205(11) 0.04885(11) 0.1890(2) 0.0235 Uani
C2 C 0.41715(11) 0.09988(11) 0.2154(2) 0.0218 Uani
C3 C 0.45059(12) 0.14130(11) 0.1280(2) 0.0245 Uani
C4 C 0.46083(16) 0.20232(13) 0.1036(3) 0.0397 Uani
H3 H 0.4972 0.2317 0.1435 0.0600 Uiso
H4 H 0.4272 0.2055 0.1336 0.0600 Uiso
H5 H 0.4648 0.2097 0.0177 0.0600 Uiso
C5 C 0.39638(15) -0.00864(13) 0.2566(3) 0.0363 Uani
H6 H 0.3685 -0.0412 0.2055 0.0550 Uiso
H7 H 0.3755 -0.0064 0.3272 0.0550 Uiso
H8 H 0.4284 -0.0158 0.2811 0.0550 Uiso
C6 C 0.31964(12) 0.06970(11) 0.3260(2) 0.0252 Uani
C7 C 0.38071(11) 0.10612(11) 0.3107(2) 0.0224 Uani
C8 C 0.39900(12) 0.14816(11) 0.4063(2) 0.0235 Uani
C9 C 0.46030(12) 0.19836(13) 0.4321(3) 0.0329 Uani
H9 H 0.4634 0.2358 0.4067 0.0490 Uiso
H10 H 0.4894 0.1921 0.3886 0.0490 Uiso
H11 H 0.4681 0.1999 0.5176 0.0490 Uiso
C10 C 0.27426(13) 0.01860(14) 0.2537(3) 0.0394 Uani
H12 H 0.2611 -0.0184 0.2976 0.0590 Uiso
H13 H 0.2919 0.0168 0.1779 0.0590 Uiso
H14 H 0.2403 0.0241 0.2385 0.0590 Uiso
C11 C 0.61063(11) 0.13373(11) -0.0969(2) 0.0231 Uani
S1I S 0.32650(3) -0.19479(3) 0.12476(7) 0.0340 Uani
N1I N 0.54418(10) -0.05783(9) -0.09100(18) 0.0233 Uani
N2I N 0.52707(10) -0.11477(9) -0.05646(18) 0.0244 Uani
H1I H 0.5042 -0.1323 0.0052 0.0370 Uiso
N3I N 0.64787(9) -0.13718(9) -0.47586(18) 0.0232 Uani
N4I N 0.69549(10) -0.08907(10) -0.42472(19) 0.0249 Uani
H2I H 0.7318 -0.0726 -0.4528 0.0300 Uiso
N5I N 0.43460(10) -0.09032(10) 0.07788(19) 0.0270 Uani
C1I C 0.57795(11) -0.04885(11) -0.1890(2) 0.0235 Uani
C2I C 0.58285(11) -0.09988(11) -0.2154(2) 0.0218 Uani
C3I C 0.54941(12) -0.14130(11) -0.1280(2) 0.0245 Uani
C4I C 0.53917(16) -0.20232(13) -0.1036(3) 0.0397 Uani
H3I H 0.5028 -0.2317 -0.1435 0.0600 Uiso
H4I H 0.5728 -0.2055 -0.1336 0.0600 Uiso
H5I H 0.5352 -0.2097 -0.0177 0.0600 Uiso
C5I C 0.60362(15) 0.00864(13) -0.2566(3) 0.0363 Uani
H6I H 0.6315 0.0412 -0.2055 0.0550 Uiso
H7I H 0.6245 0.0064 -0.3272 0.0550 Uiso
H8I H 0.5716 0.0158 -0.2811 0.0550 Uiso
C6I C 0.68036(12) -0.06970(11) -0.3260(2) 0.0252 Uani
C7I C 0.61929(11) -0.10612(11) -0.3107(2) 0.0224 Uani
C8I C 0.60100(12) -0.14816(11) -0.4063(2) 0.0235 Uani
C9I C 0.53970(12) -0.19836(13) -0.4321(3) 0.0329 Uani
H9I H 0.5366 -0.2358 -0.4067 0.0490 Uiso
H10I H 0.5106 -0.1921 -0.3886 0.0490 Uiso
H11I H 0.5319 -0.1999 -0.5176 0.0490 Uiso
C10I C 0.72574(13) -0.01860(14) -0.2537(3) 0.0394 Uani
H12I H 0.7389 0.0184 -0.2976 0.0590 Uiso
H13I H 0.7081 -0.0168 -0.1779 0.0590 Uiso
H14I H 0.7597 -0.0241 -0.2385 0.0590 Uiso
C11I C 0.38937(11) -0.13373(11) 0.0969(2) 0.0231 Uani
Cd1D Cd 0.6667 -0.1667 -0.6667 0.0196 Uani
Cd1G Cd 0.3333 0.1667 0.6667 0.0196 Uani
N3E N 0.45172(13) -0.01880(9) -0.19081(18) 0.0232 Uani
N3N N 0.54828(13) 0.01880(9) 0.19081(18) 0.0232 Uani
loop_
_atom_site_aniso_label
_atom_site_aniso_U_11
_atom_site_aniso_U_22
_atom_site_aniso_U_33
_atom_site_aniso_U_23
_atom_site_aniso_U_13
_atom_site_aniso_U_12
Cd1 0.01864(13) 0.02131(13) 0.01684(13) 0.00067(9) -0.00174(8) 0.00849(10)
S1 0.0241(3) 0.0293(3) 0.0372(4) -0.0011(3) 0.0021(3) 0.0048(3)
N1 0.0254(10) 0.0254(11) 0.0213(10) 0.0030(8) 0.0040(8) 0.0143(9)
N2 0.0271(11) 0.0253(11) 0.0214(10) 0.0041(8) 0.0070(8) 0.0135(9)
N3 0.0248(10) 0.0239(10) 0.0210(10) -0.0026(8) 0.0013(8) 0.0123(9)
N4 0.0227(10) 0.0278(11) 0.0229(10) -0.0039(8) 0.0021(8) 0.0117(9)
N5 0.0270(11) 0.0271(11) 0.0259(10) 0.0003(9) 0.0024(9) 0.0127(10)
C1 0.0250(12) 0.0259(12) 0.0203(11) -0.0002(9) 0.0030(9) 0.0132(10)
C2 0.0238(12) 0.0247(12) 0.0177(10) -0.0006(9) 0.0002(9) 0.0128(10)
C3 0.0276(13) 0.0267(12) 0.0207(11) 0.0006(9) 0.0016(9) 0.0148(11)
C4 0.058(2) 0.0303(15) 0.0347(15) 0.0060(12) 0.0096(14) 0.0249(15)
C5 0.0502(18) 0.0312(14) 0.0329(14) 0.0081(11) 0.0168(13) 0.0243(14)
C6 0.0284(13) 0.0263(13) 0.0208(11) -0.0022(9) 0.0025(10) 0.0136(11)
C7 0.0271(12) 0.0221(11) 0.0198(11) 0.0001(9) 0.0011(9) 0.0137(10)
C8 0.0275(12) 0.0245(12) 0.0207(11) 0.0008(9) 0.0023(9) 0.0146(11)
C9 0.0280(14) 0.0328(14) 0.0307(13) -0.0071(11) 0.0013(11) 0.0099(12)
C10 0.0289(14) 0.0405(16) 0.0378(15) -0.0150(13) 0.0040(12) 0.0092(13)
C11 0.0238(12) 0.0261(12) 0.0212(11) -0.0017(9) -0.0021(9) 0.0139(11)
S1I 0.0241 0.0293 0.0372 -0.0011 0.0021 0.0048
N1I 0.0254 0.0254 0.0213 0.003 0.004 0.0143
N2I 0.0271 0.0253 0.0214 0.0041 0.007 0.0135
N3I 0.0248 0.0239 0.021 -0.0026 0.0013 0.0123
N4I 0.0227 0.0278 0.0229 -0.0039 0.0021 0.0117
N5I 0.027 0.0271 0.0259 0.0003 0.0024 0.0127
C1I 0.025 0.0259 0.0203 -0.0002 0.003 0.0132
C2I 0.0238 0.0247 0.0177 -0.0006 0.0002 0.0128
C3I 0.0276 0.0267 0.0207 0.0006 0.0016 0.0148
C4I 0.058 0.0303 0.0347 0.006 0.0096 0.0249
C5I 0.0502 0.0312 0.0329 0.0081 0.0168 0.0243
C6I 0.0284 0.0263 0.0208 -0.0022 0.0025 0.0136
C7I 0.0271 0.0221 0.0198 0.0001 0.0011 0.0137
C8I 0.0275 0.0245 0.0207 0.0008 0.0023 0.0146
C9I 0.028 0.0328 0.0307 -0.0071 0.0013 0.0099
C10I 0.0289 0.0405 0.0378 -0.015 0.004 0.0092
C11I 0.0238 0.0261 0.0212 -0.0017 -0.0021 0.0139
Cd1D 0.02131 0.02297 0.01684 -0.00241 -0.00067 0.01282
Cd1G 0.02131 0.02297 0.01684 -0.00241 -0.00067 0.01282
N3E 0.0241 0.0248 0.021 -0.0013 -0.0039 0.0125
N3N 0.0241 0.0248 0.021 -0.0013 -0.0039 0.0125
loop_
_geom_bond_atom_site_label_1
_geom_bond_atom_site_label_2
_geom_bond_site_symmetry_1
_geom_bond_site_symmetry_2
Cd1 N1 1_555 1_555
S1 C11 1_555 1_555
N1 N2 1_555 1_555
N2 H1 1_555 1_555
N3 N4 1_555 1_555
N4 H2 1_555 1_555
N5 Cd1 1_555 1_555
C1 N1 1_555 1_555
C2 C1 1_555 1_555
C3 N2 1_555 1_555
C4 C3 1_555 1_555
H3 C4 1_555 1_555
H4 C4 1_555 1_555
H5 C4 1_555 1_555
C5 C1 1_555 1_555
H6 C5 1_555 1_555
H7 C5 1_555 1_555
H8 C5 1_555 1_555
C6 N4 1_555 1_555
C7 C2 1_555 1_555
C8 N3 1_555 1_555
C9 C8 1_555 1_555
H9 C9 1_555 1_555
H10 C9 1_555 1_555
H11 C9 1_555 1_555
C10 C6 1_555 1_555
H12 C10 1_555 1_555
H13 C10 1_555 1_555
H14 C10 1_555 1_555
C11 N5 1_555 1_555
S1I C11I 1_555 1_555
N1I Cd1 1_555 1_555
N2I N1I 1_555 1_555
H1I N2I 1_555 1_555
N3I N4I 1_555 1_555
N4I H2I 1_555 1_555
N5I Cd1 1_555 1_555
C1I N1I 1_555 1_555
C2I C1I 1_555 1_555
C3I N2I 1_555 1_555
C4I C3I 1_555 1_555
H3I C4I 1_555 1_555
H4I C4I 1_555 1_555
H5I C4I 1_555 1_555
C5I C1I 1_555 1_555
H6I C5I 1_555 1_555
H7I C5I 1_555 1_555
H8I C5I 1_555 1_555
C6I N4I 1_555 1_555
C7I C2I 1_555 1_555
C8I N3I 1_555 1_555
C9I C8I 1_555 1_555
H9I C9I 1_555 1_555
H10I C9I 1_555 1_555
H11I C9I 1_555 1_555
C10I C6I 1_555 1_555
H12I C10I 1_555 1_555
H13I C10I 1_555 1_555
H14I C10I 1_555 1_555
C11I N5I 1_555 1_555
Cd1D N3I 1_555 1_555
Cd1G N3 1_555 1_555
N3E Cd1 1_555 1_555
N3N Cd1 1_555 1_555
C2 C3 1_555 1_555
C6 C7 1_555 1_555
C7 C8 1_555 1_555
C2I C3I 1_555 1_555
C6I C7I 1_555 1_555
C7I C8I 1_555 1_555

#END
