
#######################################################################
#
#                 Cambridge Crystallographic Data Centre
#                                CCDC 
#
#######################################################################
#
# If this CIF has been generated from an entry in the Cambridge 
# Structural Database, then it will include bibliographic, chemical, 
# crystal, experimental, refinement or atomic coordinate data resulting 
# from the CCDC's data processing and validation procedures.
#
#######################################################################

data_BEPYIG
_chemical_formula_moiety         '(C23 H16 Cu2 O9)n'
_symmetry_cell_setting           monoclinic
_symmetry_space_group_name_H-M   'C 2/c'
_symmetry_Int_Tables_number      15
_space_group_name_Hall           '-C 2yc'
loop_
_symmetry_equiv_pos_site_id
_symmetry_equiv_pos_as_xyz
1 x,y,z
2 -x,y,1/2-z
3 1/2+x,1/2+y,z
4 1/2-x,1/2+y,1/2-z
5 -x,-y,-z
6 x,-y,1/2+z
7 1/2-x,1/2-y,-z
8 1/2+x,1/2-y,1/2+z
_cell_length_a                   17.8091(4)
_cell_length_b                   25.5978(7)
_cell_length_c                   5.7377(2)
_cell_angle_alpha                90
_cell_angle_beta                 98.1557(12)
_cell_angle_gamma                90
_cell_volume                     2589.21
loop_
_atom_site_label
_atom_site_type_symbol
_atom_site_fract_x
_atom_site_fract_y
_atom_site_fract_z
Cu1 Cu -0.083534(16) 0.478207(11) 0.04994(5)
O1 O 0.0000 0.50940(9) 0.2500
O2 O -0.04079(10) 0.40820(6) 0.0808(3)
C1 C 0.0000 0.38586(13) 0.2500
C2 C -0.0000 0.32755(13) 0.2500
C3 C 0.04429(13) 0.30094(9) 0.4341(5)
H1 H 0.0735 0.3195 0.5588
C4 C 0.04441(13) 0.24653(10) 0.4293(4)
C5 C 0.0000 0.21903(13) 0.2500
H2 H 0.0000 0.1819 0.2500
O3 O 0.08718(10) 0.21566(7) 0.5926(3)
C6 C 0.13808(14) 0.24036(10) 0.7785(5)
H3 H 0.1095 0.2553 0.8988
H4 H 0.1670 0.2687 0.7147
C7 C 0.19047(14) 0.19779(10) 0.8830(5)
C8 C 0.18126(15) 0.17386(11) 1.0936(5)
H5 H 0.1430 0.1859 1.1801
C9 C 0.22767(15) 0.13232(11) 1.1796(5)
H6 H 0.2220 0.1168 1.3265
C10 C 0.28240(14) 0.11368(10) 1.0495(5)
C11 C 0.29240(15) 0.13766(11) 0.8390(5)
H7 H 0.3297 0.1251 0.7501
C12 C 0.24730(16) 0.18037(11) 0.7588(5)
H8 H 0.2555 0.1977 0.6182
C13 C 0.33077(14) 0.06810(10) 1.1383(5)
O4 O 0.36882(10) 0.04630(7) 0.9944(3)
O5 O 0.33061(10) 0.05469(7) 1.3517(3)
O2A O 0.04079(10) 0.40820(6) 0.4192(3)
C3A C -0.04429(13) 0.30094(9) 0.0659(5)
H1A H -0.0735 0.3195 -0.0588
C4A C -0.04441(13) 0.24653(10) 0.0707(4)
O3A O -0.08718(10) 0.21566(7) -0.0926(3)
C6A C -0.13808(14) 0.24036(10) -0.2785(5)
H3A H -0.1095 0.2553 -0.3988
H4A H -0.1670 0.2687 -0.2147
C7A C -0.19047(14) 0.19779(10) -0.3830(5)
C8A C -0.18126(15) 0.17386(11) -0.5936(5)
H5A H -0.1430 0.1859 -0.6801
C9A C -0.22767(15) 0.13232(11) -0.6796(5)
H6A H -0.2220 0.1168 -0.8265
C10A C -0.28240(14) 0.11368(10) -0.5495(5)
C11A C -0.29240(15) 0.13766(11) -0.3390(5)
H7A H -0.3297 0.1251 -0.2501
C12A C -0.24730(16) 0.18037(11) -0.2588(5)
H8A H -0.2555 0.1977 -0.1182
C13A C -0.33077(14) 0.06810(10) -0.6383(5)
O4A O -0.36882(10) 0.04630(7) -0.4944(3)
O5A O -0.33061(10) 0.05469(7) -0.8517(3)
Cu1A Cu 0.083534(16) 0.478207(11) 0.45006(5)
Cu1B Cu 0.416466(16) -0.021793(11) 1.04994(5)
Cu1C Cu -0.416466(16) -0.021793(11) -0.54994(5)
Cu1D Cu 0.083534(16) 0.521793(11) -0.04994(5)
Cu1E Cu -0.083534(16) 0.521793(11) 0.54994(5)
Cu1F Cu -0.416466(16) 0.021793(11) -1.04994(5)
Cu1G Cu 0.416466(16) 0.021793(11) 1.54994(5)
O1D O 0.0000 0.49060(9) -0.2500
O1D_2 O 0.0000 0.49060(9) 0.7500
O4B O -0.13118(10) 0.54630(7) -0.0056(3)
O4C O 0.13118(10) 0.54630(7) 0.5056(3)
O5F O 0.16939(10) 0.44531(7) 0.6483(3)
O5G O -0.16939(10) 0.44531(7) -0.1483(3)
loop_
_geom_bond_atom_site_label_1
_geom_bond_atom_site_label_2
_geom_bond_site_symmetry_1
_geom_bond_site_symmetry_2
Cu1 O1 1_555 1_555
O1 Cu1A 1_555 1_555
O2 Cu1 1_555 1_555
C1 O2 1_555 1_555
C2 C1 1_555 1_555
C3 C2 1_555 1_555
H1 C3 1_555 1_555
C4 C3 1_555 1_555
C5 C4 1_555 1_555
H2 C5 1_555 1_555
O3 C4 1_555 1_555
C6 O3 1_555 1_555
H3 C6 1_555 1_555
H4 C6 1_555 1_555
C7 C6 1_555 1_555
C8 C7 1_555 1_555
H5 C8 1_555 1_555
C9 C8 1_555 1_555
H6 C9 1_555 1_555
C10 C9 1_555 1_555
C11 C10 1_555 1_555
H7 C11 1_555 1_555
C12 C7 1_555 1_555
H8 C12 1_555 1_555
C13 C10 1_555 1_555
O4 C13 1_555 1_555
O5 C13 1_555 1_555
O2A C1 1_555 1_555
C3A C2 1_555 1_555
H1A C3A 1_555 1_555
C4A C5 1_555 1_555
O3A C4A 1_555 1_555
C6A O3A 1_555 1_555
H3A C6A 1_555 1_555
H4A C6A 1_555 1_555
C7A C6A 1_555 1_555
C8A C7A 1_555 1_555
H5A C8A 1_555 1_555
C9A C8A 1_555 1_555
H6A C9A 1_555 1_555
C10A C9A 1_555 1_555
C11A C10A 1_555 1_555
H7A C11A 1_555 1_555
C12A C7A 1_555 1_555
H8A C12A 1_555 1_555
C13A C10A 1_555 1_555
O4A C13A 1_555 1_555
O5A C13A 1_555 1_555
Cu1A O2A 1_555 1_555
Cu1B O4 1_555 1_555
Cu1C O4A 1_555 1_555
Cu1D O1 1_555 1_555
Cu1E O1 1_555 1_555
Cu1F O5A 1_555 1_555
Cu1G O5 1_555 1_555
O1D Cu1 1_555 1_555
O1D_2 Cu1A 1_555 1_555
O4B Cu1 1_555 1_555
O4C Cu1A 1_555 1_555
O5F Cu1A 1_555 1_555
O5G Cu1 1_555 1_555
C11 C12 1_555 1_555
C3A C4A 1_555 1_555
C11A C12A 1_555 1_555
Cu1D O1D 1_555 1_555
Cu1E O1D_2 1_555 1_555

#END
