
#######################################################################
#
#                 Cambridge Crystallographic Data Centre
#                                CCDC 
#
#######################################################################
#
# If this CIF has been generated from an entry in the Cambridge 
# Structural Database, then it will include bibliographic, chemical, 
# crystal, experimental, refinement or atomic coordinate data resulting 
# from the CCDC's data processing and validation procedures.
#
#######################################################################

data_PETNOS
_chemical_formula_moiety         '(C4 H19 In2 N2 O15 P5)n'
_symmetry_cell_setting           monoclinic
_symmetry_space_group_name_H-M   'P 21/c'
_symmetry_Int_Tables_number      14
_space_group_name_Hall           '-P 2ybc'
loop_
_symmetry_equiv_pos_site_id
_symmetry_equiv_pos_as_xyz
1 x,y,z
2 -x,1/2+y,1/2-z
3 -x,-y,-z
4 x,1/2-y,1/2+z
_cell_length_a                   9.461(2)
_cell_length_b                   9.4028(19)
_cell_length_c                   20.963(5)
_cell_angle_alpha                90
_cell_angle_beta                 100.186(14)
_cell_angle_gamma                90
_cell_volume                     1835.47
loop_
_atom_site_label
_atom_site_type_symbol
_atom_site_fract_x
_atom_site_fract_y
_atom_site_fract_z
O1 O 0.2467(3) 0.1501(4) 0.41042(17)
In1 In 0.37242(3) 0.33423(4) 0.403297(13)
In2 In 0.12489(3) 0.16450(4) 0.590376(13)
P1 P 0.61911(12) 0.58904(15) 0.43992(5)
P2 P 0.66610(14) 0.12552(17) 0.44278(6)
P3 P 0.20846(13) 0.26340(17) 0.25262(5)
P4 P 0.09600(12) 0.11886(15) 0.42294(5)
P5 P 0.03491(12) 0.51114(16) 0.39719(6)
O2 O 0.3381(3) 0.3241(4) 0.29886(14)
O3 O 0.0662(3) 0.1790(4) 0.48677(15)
O4 O 0.2334(4) 0.1089(5) 0.23631(16)
O5 O 0.4946(3) 0.5239(4) 0.39095(14)
O6 O 0.1694(4) 0.3564(4) 0.19323(15)
O7 O 0.0271(3) 0.6710(4) 0.40296(16)
O8 O 0.0668(3) -0.0403(4) 0.41465(16)
O9 O 0.7033(4) 0.6909(4) 0.40464(16)
O10 O 0.5616(3) 0.6589(4) 0.49552(14)
O11 O 0.1868(3) 0.4649(4) 0.39765(18)
O12 O 0.5547(3) 0.2046(4) 0.39651(16)
O13 O 0.7441(4) 0.0163(5) 0.41190(18)
H13 H 0.090(7) 0.260(8) 0.280(3)
H14 H 0.006(4) 0.192(5) 0.380(2)
H15 H 0.713(4) 0.481(4) 0.462(2)
H16 H -0.013(6) 0.439(7) 0.447(2)
O14 O -0.0633(4) 0.4566(5) 0.3360(2)
H17 H -0.1460 0.4822 0.3363
O15 O 0.7699(6) 0.2336(7) 0.4795(3)
H18 H 0.8523 0.2128 0.4759
H19 H 0.592(6) 0.047(7) 0.485(3)
In1B In 0.62758(3) 0.66577(4) 0.596703(13)
In2C In 0.12489(3) 0.33550(4) 0.090376(13)
In2B In -0.12489(3) 0.83550(4) 0.409624(13)
In2B_2 In -0.12489(3) -0.16450(4) 0.409624(13)
In2B_3 In 0.87511(3) 0.83550(4) 0.409624(13)
In2B_4 In 0.87511(3) -0.16450(4) 0.409624(13)
O6C O 0.1694(4) 0.1436(4) 0.69323(15)
O7B O -0.0271(3) 0.3290(4) 0.59704(16)
O8B O -0.0668(3) 0.0403(4) 0.58535(16)
O9B O 0.2967(4) 0.3091(4) 0.59536(16)
O10B O 0.4384(3) 0.3411(4) 0.50448(14)
O13B O 0.2559(4) -0.0163(5) 0.58810(18)
N1 N 0.2819(4) 0.7454(6) 0.3520(2)
H1 H 0.2187 0.7526 0.3793
H2 H 0.3375 0.6688 0.3637
N2 N 0.3943(5) 0.8530(6) 0.2429(2)
H3 H 0.3377 0.9293 0.2322
H4 H 0.4571 0.8479 0.2154
C1 C 0.4731(6) 0.8681(7) 0.3104(3)
H5 H 0.5302 0.9544 0.3139
H6 H 0.5380 0.7883 0.3208
C2 C 0.3723(7) 0.8739(7) 0.3575(3)
H7 H 0.4265 0.8812 0.4012
H8 H 0.3119 0.9575 0.3490
C3 C 0.3058(7) 0.7231(8) 0.2375(3)
H9 H 0.3677 0.6405 0.2460
H10 H 0.2520 0.7151 0.1937
C4 C 0.2029(6) 0.7259(8) 0.2849(3)
H11 H 0.1349 0.8030 0.2739
H12 H 0.1495 0.6374 0.2821
loop_
_geom_bond_atom_site_label_1
_geom_bond_atom_site_label_2
_geom_bond_site_symmetry_1
_geom_bond_site_symmetry_2
O1 In1 1_555 1_555
In1 O2 1_555 1_555
In2 O3 1_555 1_555
P1 O5 1_555 1_555
P2 O12 1_555 1_555
P3 O2 1_555 1_555
P4 O1 1_555 1_555
P5 O7 1_555 1_555
O3 P4 1_555 1_555
O4 P3 1_555 1_555
O5 In1 1_555 1_555
O6 P3 1_555 1_555
O7 In2B 1_555 1_555
O8 P4 1_555 1_555
O9 P1 1_555 1_555
O10 P1 1_555 1_555
O11 In1 1_555 1_555
O12 In1 1_555 1_555
O13 P2 1_555 1_555
N1 H1 1_555 1_555
H2 N1 1_555 1_555
N2 H3 1_555 1_555
H4 N2 1_555 1_555
C1 N2 1_555 1_555
H5 C1 1_555 1_555
H6 C1 1_555 1_555
C2 N1 1_555 1_555
H7 C2 1_555 1_555
H8 C2 1_555 1_555
C3 N2 1_555 1_555
H9 C3 1_555 1_555
H10 C3 1_555 1_555
C4 N1 1_555 1_555
H11 C4 1_555 1_555
H12 C4 1_555 1_555
H13 P3 1_555 1_555
H14 P4 1_555 1_555
H15 P1 1_555 1_555
H16 P5 1_555 1_555
O14 P5 1_555 1_555
H17 O14 1_555 1_555
O15 P2 1_555 1_555
H18 O15 1_555 1_555
H19 P2 1_555 1_555
In1B O10 1_555 1_555
In2C O6 1_555 1_555
In2B_2 O8 1_555 1_555
In2B_3 O9 1_555 1_555
In2B_4 O13 1_555 1_555
O6C In2 1_555 1_555
O7B In2 1_555 1_555
O8B In2 1_555 1_555
O9B In2 1_555 1_555
O10B In1 1_555 1_555
O13B In2 1_555 1_555
P5 O11 1_555 1_555
C1 C2 1_555 1_555
C3 C4 1_555 1_555

#END
