
#######################################################################
#
#                 Cambridge Crystallographic Data Centre
#                                CCDC 
#
#######################################################################
#
# If this CIF has been generated from an entry in the Cambridge 
# Structural Database, then it will include bibliographic, chemical, 
# crystal, experimental, refinement or atomic coordinate data resulting 
# from the CCDC's data processing and validation procedures.
#
#######################################################################

data_QALHAO
_chemical_formula_moiety         '(C6 H9 Cl1 Cu3 N9 O2 1+)n'
_symmetry_cell_setting           cubic
_symmetry_space_group_name_H-M   'F d -3 c'
_symmetry_Int_Tables_number      228
_space_group_name_Hall           '-F 4ud 2vw 3'
loop_
_symmetry_equiv_pos_site_id
_symmetry_equiv_pos_as_xyz
1 x,y,z
2 z,x,y
3 y,z,x
4 3/4+y,1/4+x,-z
5 1/4+y,-x,3/4+z
6 -y,3/4+x,1/4+z
7 3/4+x,1/4+z,-y
8 -x,3/4+z,1/4+y
9 1/4+x,-z,3/4+y
10 3/4+z,1/4+y,-x
11 1/4+z,-y,3/4+x
12 -z,3/4+y,1/4+x
13 x,1/2+y,1/2+z
14 1/4-x,1/4-y,z
15 z,1/2+x,1/2+y
16 1/4-z,1/4-x,y
17 y,1/2+z,1/2+x
18 1/4-y,1/4-z,x
19 1/4+y,1/2-x,1/4+z
20 -y,1/4+x,3/4+z
21 -x,1/4+z,3/4+y
22 1/4+x,1/2-z,1/4+y
23 1/4+z,1/2-y,1/4+x
24 -z,1/4+y,3/4+x
25 1/2+x,y,1/2+z
26 x,1/4-y,1/4-z
27 1/2+z,x,1/2+y
28 z,1/4-x,1/4-y
29 1/2+y,z,1/2+x
30 y,1/4-z,1/4-x
31 1/4+y,1/4+x,1/2-z
32 3/4+y,-x,1/4+z
33 1/4+x,1/4+z,1/2-y
34 3/4+x,-z,1/4+y
35 1/4+z,1/4+y,1/2-x
36 3/4+z,-y,1/4+x
37 1/2+x,1/2+y,z
38 1/4-x,y,1/4-z
39 1/2+z,1/2+x,y
40 1/4-z,x,1/4-y
41 1/2+y,1/2+z,x
42 1/4-y,z,1/4-x
43 1/4+y,3/4+x,-z
44 1/2-y,1/4+x,1/4+z
45 1/4+x,3/4+z,-y
46 1/2-x,1/4+z,1/4+y
47 1/4+z,3/4+y,-x
48 1/2-z,1/4+y,1/4+x
49 1/4-x,3/4-y,1/2+z
50 3/4-x,1/2+y,1/4-z
51 1/2+x,1/4-y,3/4-z
52 1/2+z,1/4-x,3/4-y
53 1/4-z,3/4-x,1/2+y
54 3/4-z,1/2+x,1/4-y
55 3/4-y,1/2+z,1/4-x
56 1/2+y,1/4-z,3/4-x
57 1/4-y,3/4-z,1/2+x
58 1/2-y,1/2-x,1/2-z
59 1/2-x,1/2-z,1/2-y
60 1/2-z,1/2-y,1/2-x
61 3/4-x,y,3/4-z
62 1/2+x,3/4-y,1/4-z
63 1/2+z,3/4-x,1/4-y
64 3/4-z,x,3/4-y
65 3/4-y,z,3/4-x
66 1/2+y,3/4-z,1/4-x
67 3/4+y,3/4+x,1/2-z
68 1/2-y,-x,-z
69 3/4+x,3/4+z,1/2-y
70 1/2-x,-z,-y
71 3/4+z,3/4+y,1/2-x
72 1/2-z,-y,-x
73 3/4-x,3/4-y,z
74 1/4-x,1/2+y,3/4-z
75 3/4-z,3/4-x,y
76 1/4-z,1/2+x,3/4-y
77 1/4-y,1/2+z,3/4-x
78 3/4-y,3/4-z,x
79 -y,1/2-x,-z
80 1/2-y,3/4+x,3/4+z
81 1/2-x,3/4+z,3/4+y
82 -x,1/2-z,-y
83 1/2-z,3/4+y,3/4+x
84 -z,1/2-y,-x
85 3/4-x,1/4-y,1/2+z
86 x,3/4-y,3/4-z
87 z,3/4-x,3/4-y
88 3/4-z,1/4-x,1/2+y
89 y,3/4-z,3/4-x
90 3/4-y,1/4-z,1/2+x
91 -y,-x,1/2-z
92 3/4+y,1/2-x,3/4+z
93 -x,-z,1/2-y
94 3/4+x,1/2-z,3/4+y
95 3/4+z,1/2-y,3/4+x
96 -z,-y,1/2-x
97 -x,-y,-z
98 -z,-x,-y
99 -y,-z,-x
100 1/4-y,3/4-x,z
101 3/4-y,x,1/4-z
102 y,1/4-x,3/4-z
103 1/4-x,3/4-z,y
104 x,1/4-z,3/4-y
105 3/4-x,z,1/4-y
106 1/4-z,3/4-y,x
107 3/4-z,y,1/4-x
108 z,1/4-y,3/4-x
109 -x,1/2-y,1/2-z
110 3/4+x,3/4+y,-z
111 -z,1/2-x,1/2-y
112 3/4+z,3/4+x,-y
113 -y,1/2-z,1/2-x
114 3/4+y,3/4+z,-x
115 3/4-y,1/2+x,3/4-z
116 y,3/4-x,1/4-z
117 x,3/4-z,1/4-y
118 3/4-x,1/2+z,3/4-y
119 3/4-z,1/2+y,3/4-x
120 z,3/4-y,1/4-x
121 1/2-x,-y,1/2-z
122 -x,3/4+y,3/4+z
123 1/2-z,-x,1/2-y
124 -z,3/4+x,3/4+y
125 1/2-y,-z,1/2-x
126 -y,3/4+z,3/4+x
127 3/4-y,3/4-x,1/2+z
128 1/4-y,x,3/4-z
129 3/4-x,3/4-z,1/2+y
130 1/4-x,z,3/4-y
131 3/4-z,3/4-y,1/2+x
132 1/4-z,y,3/4-x
133 1/2-x,1/2-y,-z
134 3/4+x,-y,3/4+z
135 1/2-z,1/2-x,-y
136 3/4+z,-x,3/4+y
137 1/2-y,1/2-z,-x
138 3/4+y,-z,3/4+x
139 3/4-y,1/4-x,z
140 1/2+y,3/4-x,3/4-z
141 3/4-x,1/4-z,y
142 1/2+x,3/4-z,3/4-y
143 3/4-z,1/4-y,x
144 1/2+z,3/4-y,3/4-x
145 3/4+x,1/4+y,1/2-z
146 1/4+x,1/2-y,3/4+z
147 1/2-x,3/4+y,1/4+z
148 1/2-z,3/4+x,1/4+y
149 3/4+z,1/4+x,1/2-y
150 1/4+z,1/2-x,3/4+y
151 1/4+y,1/2-z,3/4+x
152 1/2-y,3/4+z,1/4+x
153 3/4+y,1/4+z,1/2-x
154 1/2+y,1/2+x,1/2+z
155 1/2+x,1/2+z,1/2+y
156 1/2+z,1/2+y,1/2+x
157 1/4+x,-y,1/4+z
158 1/2-x,1/4+y,3/4+z
159 1/2-z,1/4+x,3/4+y
160 1/4+z,-x,1/4+y
161 1/4+y,-z,1/4+x
162 1/2-y,1/4+z,3/4+x
163 1/4-y,1/4-x,1/2+z
164 1/2+y,x,z
165 1/4-x,1/4-z,1/2+y
166 1/2+x,z,y
167 1/4-z,1/4-y,1/2+x
168 1/2+z,y,x
169 1/4+x,1/4+y,-z
170 3/4+x,1/2-y,1/4+z
171 1/4+z,1/4+x,-y
172 3/4+z,1/2-x,1/4+y
173 3/4+y,1/2-z,1/4+x
174 1/4+y,1/4+z,-x
175 y,1/2+x,z
176 1/2+y,1/4-x,1/4-z
177 1/2+x,1/4-z,1/4-y
178 x,1/2+z,y
179 1/2+z,1/4-y,1/4-x
180 z,1/2+y,x
181 1/4+x,3/4+y,1/2-z
182 -x,1/4+y,1/4+z
183 -z,1/4+x,1/4+y
184 1/4+z,3/4+x,1/2-y
185 -y,1/4+z,1/4+x
186 1/4+y,3/4+z,1/2-x
187 y,x,1/2+z
188 1/4-y,1/2+x,1/4-z
189 x,z,1/2+y
190 1/4-x,1/2+z,1/4-y
191 1/4-z,1/2+y,1/4-x
192 z,y,1/2+x
_cell_length_a                   24.743(4)
_cell_length_b                   24.743(4)
_cell_length_c                   24.743(4)
_cell_angle_alpha                90
_cell_angle_beta                 90
_cell_angle_gamma                90
_cell_volume                     15148.1
loop_
_atom_site_label
_atom_site_type_symbol
_atom_site_fract_x
_atom_site_fract_y
_atom_site_fract_z
_atom_site_U_iso_or_equiv
_atom_site_thermal_displace_type
Cu1 Cu 0.8065 0.5000 0.0565 0.0283 Uani
O1 O 0.7500 0.5000 0.0000 0.1344 Uani
N1 N 0.8636 0.5000 0.1136 0.0216 Uani
N2 N 0.9106 0.5207 0.1866 0.0262 Uani
C1 C 0.8670 0.5317 0.1578 0.0242 Uani
Cu1FD Cu 0.9435 0.6935 0.0000 0.0283 Uani
Cu1QF Cu 0.7500 0.3065 0.1935 0.0283 Uani
Cu1PA Cu 0.7500 0.5565 -0.0565 0.0283 Uani
Cu1FB Cu 0.6935 0.4435 0.0000 0.0283 Uani
Cu1MD Cu 0.9435 0.5565 0.2500 0.0283 Uani
Cu1SF Cu 1.0000 0.4435 0.1935 0.0283 Uani
O1UE O 1.0000 0.7500 0.0000 0.1344 Uani
O1PE O 0.7500 0.2500 0.2500 0.1344 Uani
N1FD N 0.8864 0.6364 0.0000 0.0216 Uani
N1QF N 0.7500 0.3636 0.1364 0.0216 Uani
N2IA N 0.9366 0.4793 0.1606 0.0262 Uani
N2XD N 0.8394 0.5634 0.0207 0.0262 Uani
N2FD N 0.8134 0.5894 -0.0207 0.0262 Uani
N2QF N 0.7707 0.4366 0.0894 0.0262 Uani
N2EG N 0.7293 0.4106 0.0634 0.0262 Uani
N2Y N 0.9106 0.7293 0.0634 0.0262 Uani
N2AC N 0.9793 0.6606 -0.0634 0.0262 Uani
N2K N 0.8134 0.2707 0.1606 0.0262 Uani
N2YA N 0.6866 0.3394 0.2293 0.0262 Uani
C1IA C 0.9078 0.4683 0.1170 0.0242 Uani
C1XD C 0.8830 0.5922 0.0317 0.0242 Uani
C1FD C 0.8422 0.6330 -0.0317 0.0242 Uani
C1QF C 0.7817 0.4078 0.1330 0.0242 Uani
C1EG C 0.7183 0.3670 0.0922 0.0242 Uani
Cl1 Cl 0.8723 0.4303 -0.0062 0.1244 Uani
O2 O 0.9726 0.4726 -0.0274 0.1329 Uani
loop_
_atom_site_aniso_label
_atom_site_aniso_U_11
_atom_site_aniso_U_22
_atom_site_aniso_U_33
_atom_site_aniso_U_23
_atom_site_aniso_U_13
_atom_site_aniso_U_12
Cu1 0.029200 0.026440 0.029200 0.018810 -0.022850 -0.018810
O1 0.134400 0.134400 0.134400 0.128580 -0.128580 -0.128580
N1 0.02214 0.02053 0.02214 0.00283 -0.01224 -0.00283
N2 0.02497 0.02777 0.02577 -0.01274 -0.01451 0.01527
C1 0.02267 0.02574 0.02425 -0.00109 -0.01256 0.00445
Cu1FD 0.0292 0.0292 0.02644 -0.01881 0.01881 -0.02285
Cu1QF 0.02644 0.0292 0.0292 0.02285 0.01881 0.01881
Cu1PA 0.02644 0.0292 0.0292 0.02285 -0.01881 -0.01881
Cu1FB 0.0292 0.0292 0.02644 0.01881 -0.01881 -0.02285
Cu1MD 0.0292 0.0292 0.02644 -0.01881 -0.01881 0.02285
Cu1SF 0.02644 0.0292 0.0292 -0.02285 -0.01881 0.01881
O1UE 0.1344 0.1344 0.1344 -0.12858 0.12858 -0.12858
O1PE 0.1344 0.1344 0.1344 0.12858 0.12858 0.12858
N1FD 0.02214 0.02214 0.02053 -0.00283 0.00283 -0.01224
N1QF 0.02053 0.02214 0.02214 0.01224 0.00283 0.00283
N2IA 0.02577 0.02777 0.02497 -0.01527 -0.01451 0.01274
N2XD 0.024970 0.025770 0.027770 0.012740 -0.015270 -0.014510
N2FD 0.02577 0.02497 0.02777 0.01527 -0.01274 -0.01451
N2QF 0.02777 0.02577 0.02497 0.01451 -0.01527 -0.01274
N2EG 0.02777 0.02497 0.02577 0.01451 -0.01274 -0.01527
N2Y 0.02497 0.02777 0.02577 -0.01274 0.01451 -0.01527
N2AC 0.02777 0.02497 0.02577 -0.01451 0.01274 -0.01527
N2K 0.02577 0.02777 0.02497 0.01527 0.01451 0.01274
N2YA 0.02577 0.02497 0.02777 0.01527 0.01274 0.01451
C1IA 0.02425 0.02574 0.02267 -0.00445 -0.01256 0.00109
C1XD 0.022670 0.024250 0.025740 0.001090 -0.004450 -0.012560
C1FD 0.02425 0.02267 0.02574 0.00445 -0.00109 -0.01256
C1QF 0.02574 0.02425 0.02267 0.01256 -0.00445 -0.00109
C1EG 0.02574 0.02267 0.02425 0.01256 -0.00109 -0.00445
Cl1 0.210480 0.093430 0.069150 -0.038410 -0.038340 0.045020
O2 0.132860 0.132860 0.132860 0.056560 0.056560 0.056560
loop_
_geom_bond_atom_site_label_1
_geom_bond_atom_site_label_2
_geom_bond_site_symmetry_1
_geom_bond_site_symmetry_2
Cu1 O1 1_555 1_555
O1 Cu1PA 1_555 1_555
N1 Cu1 1_555 1_555
N2 C1 1_555 1_555
C1 N1 1_555 1_555
Cu1FD O1UE 1_555 1_555
Cu1QF O1PE 1_555 1_555
Cu1PA N2FD 1_555 1_555
Cu1FB O1 1_555 1_555
Cu1MD N2 1_555 1_555
Cu1SF N2IA 1_555 1_555
N1FD Cu1FD 1_555 1_555
N1QF Cu1QF 1_555 1_555
N2IA N2 1_555 1_555
N2XD Cu1 1_555 1_555
N2FD N2XD 1_555 1_555
N2QF Cu1 1_555 1_555
N2EG Cu1FB 1_555 1_555
N2Y Cu1FD 1_555 1_555
N2AC Cu1FD 1_555 1_555
N2K Cu1QF 1_555 1_555
N2YA Cu1QF 1_555 1_555
C1IA N1 1_555 1_555
C1XD N1FD 1_555 1_555
C1FD N1FD 1_555 1_555
C1QF N1QF 1_555 1_555
C1EG N1QF 1_555 1_555
N2IA C1IA 1_555 1_555
N2XD C1XD 1_555 1_555
N2FD C1FD 1_555 1_555
N2QF N2EG 1_555 1_555
N2QF C1QF 1_555 1_555
N2EG C1EG 1_555 1_555

#END
