
#######################################################################
#
#                 Cambridge Crystallographic Data Centre
#                                CCDC 
#
#######################################################################
#
# If this CIF has been generated from an entry in the Cambridge 
# Structural Database, then it will include bibliographic, chemical, 
# crystal, experimental, refinement or atomic coordinate data resulting 
# from the CCDC's data processing and validation procedures.
#
#######################################################################

data_BALPAH
_chemical_formula_moiety         'C66 H151 Ag8 Br1 La7 N12 O55 Pd6 S12'
_symmetry_cell_setting           tetragonal
_symmetry_space_group_name_H-M   'P 41 21 2'
_symmetry_Int_Tables_number      92
_space_group_name_Hall           'P 4abw 2nw'
loop_
_symmetry_equiv_pos_site_id
_symmetry_equiv_pos_as_xyz
1 x,y,z
2 -x,-y,1/2+z
3 1/2+x,1/2-y,3/4-z
4 1/2-x,1/2+y,1/4-z
5 -y,-x,1/2-z
6 y,x,-z
7 1/2+y,1/2-x,3/4+z
8 1/2-y,1/2+x,1/4+z
_cell_length_a                   24.8446(13)
_cell_length_b                   24.8446(13)
_cell_length_c                   47.2409(10)
_cell_angle_alpha                90
_cell_angle_beta                 90
_cell_angle_gamma                90
_cell_volume                     29159.6
loop_
_atom_site_label
_atom_site_type_symbol
_atom_site_fract_x
_atom_site_fract_y
_atom_site_fract_z
O2 O 0.99593(18) 0.68678(18) 0.46357(8)
O3 O 0.7856(2) 0.4840(2) 0.12690(10)
O4 O 0.5030(2) 0.9285(2) 0.23196(10)
O5 O 0.6908(3) 0.1906(3) 0.28251(13)
O6 O 0.6323(3) 0.2515(3) 0.36796(14)
O7 O 0.5337(3) 0.4677(3) 0.10159(14)
O8 O 0.5035(4) 0.5997(4) 0.12784(19)
O9 O 0.51764(18) 0.73877(18) 0.38372(9)
O10 O 0.7485(3) 0.1307(3) 0.32386(14)
O11 O 0.8134(3) 0.2916(3) 0.31966(13)
O12 O 0.48203(3) 0.67368(7) 0.198411(8)
O13 O 0.53025(3) 0.69361(7) 0.151930(10)
O14 O 0.6834(3) 0.7292(3) 0.44666(16)
O15 O 0.4722(3) 0.7650(3) 0.07739(14)
O16 O 0.4438(3) 0.8543(3) 0.03914(15)
O17 O 0.6358(3) 0.6243(3) 0.11598(15)
O18 O 0.4123(3) 0.9615(3) 0.04134(14)
O19 O 0.67327(10) 0.712932(16) 0.14084(4)
O20 O 0.4145(6) 0.7462(5) 0.1270(2)
Ag1 Ag 0.717197(18) 0.655498(18) 0.227895(9)
Ag2 Ag 0.850824(17) 0.609594(17) 0.248730(9)
Ag3 Ag 0.81454(2) 0.49703(2) 0.286828(10)
Ag4 Ag 0.675370(17) 0.556433(17) 0.272393(9)
Ag5 Ag 0.728627(17) 0.735799(18) 0.289246(8)
Ag6 Ag 0.87506(2) 0.71523(2) 0.310077(10)
Ag7 Ag 0.802432(18) 0.592217(18) 0.344062(9)
Ag8 Ag 0.653429(18) 0.639790(18) 0.343654(9)
Pd1 Pd 0.758739(17) 0.496009(17) 0.204436(8)
Pd2 Pd 0.83499(2) 0.772350(19) 0.228661(10)
Pd3 Pd 0.955083(16) 0.570069(17) 0.312369(8)
Pd4 Pd 0.688484(18) 0.475791(17) 0.345860(9)
Pd5 Pd 0.573712(17) 0.683457(17) 0.269380(8)
Pd6 Pd 0.764831(17) 0.747092(17) 0.372904(8)
Br1 Br 0.76445(2) 0.62435(2) 0.289052(11)
La1 La 0.923370(14) 0.377380(14) 0.112760(7)
S1 S 0.69884(6) 0.55792(6) 0.21961(3)
S2 S 0.82666(6) 0.51457(6) 0.23504(3)
S3 S 0.81102(6) 0.68665(6) 0.22005(3)
S4 S 0.81984(6) 0.77179(6) 0.27609(3)
S5 S 0.91983(6) 0.63660(6) 0.28442(3)
S6 S 0.87538(6) 0.53139(6) 0.32450(3)
S7 S 0.71752(6) 0.48007(6) 0.30061(3)
S8 S 0.71050(6) 0.56002(6) 0.35898(3)
S9 S 0.60691(6) 0.61563(6) 0.29694(3)
S10 S 0.65390(5) 0.71516(6) 0.25406(3)
S11 S 0.69945(5) 0.73043(6) 0.34033(3)
S12 S 0.82713(5) 0.68834(6) 0.35653(3)
O21 O 0.60915(17) 0.45147(17) 0.14951(8)
O22 O 0.59377(16) 0.5356(2) 0.13321(8)
O23 O 0.88725(17) 0.39273(16) 0.16169(8)
O24 O 0.9357(2) 0.3741(2) 0.19827(10)
O25 O 0.87497(15) 0.76248(17) 0.13081(8)
O26 O 0.79790(18) 0.7228(2) 0.12279(8)
O27 O 0.8591(3) 0.9563(2) 0.24383(12)
O28 O 0.9023(2) 0.9420(2) 0.28835(13)
O29 O 1.11343(16) 0.6390(2) 0.27443(10)
O30 O 1.0891(2) 0.7204(3) 0.27661(13)
O31 O 0.93372(13) 0.47495(13) 0.11867(6)
O32 O 0.87236(15) 0.53607(19) 0.10655(9)
O33 O 0.63752(15) 0.30215(14) 0.31473(8)
O34 O 0.71346(18) 0.29044(16) 0.29289(8)
O35 O 0.67186(19) 0.45215(18) 0.44223(9)
O36 O 0.6359(2) 0.53071(19) 0.45142(9)
O37 O 0.41544(18) 0.5891(2) 0.29581(13)
O38 O 0.4381(2) 0.5858(2) 0.34010(11)
O39 O 0.98894(15) 0.32184(14) 0.04124(7)
O40 O 0.92279(14) 0.31006(14) 0.07270(7)
O41 O 0.64279(15) 0.88188(18) 0.39687(8)
O42 O 0.56780(13) 0.83844(16) 0.38992(8)
O43 O 0.89461(18) 0.7650(2) 0.44436(8)
O44 O 0.96566(14) 0.75589(15) 0.41880(8)
N1 N 0.70476(18) 0.48150(19) 0.17427(8)
H1 H 0.7229 0.4755 0.1576
H2 H 0.6868 0.4502 0.1788
N2 N 0.80879(15) 0.43568(16) 0.18961(8)
H3 H 0.7894 0.4042 0.1889
H4 H 0.8187 0.4441 0.1714
N3 N 0.8411(2) 0.78008(19) 0.18453(8)
H5 H 0.8256 0.8120 0.1790
H6 H 0.8769 0.7812 0.1795
N4 N 0.8678(2) 0.84940(17) 0.23499(11)
H7 H 0.9008 0.8516 0.2263
H8 H 0.8456 0.8749 0.2270
N5 N 1.02647(16) 0.60522(17) 0.30435(9)
H9 H 1.0447 0.6089 0.3212
H10 H 1.0463 0.5825 0.2930
N6 N 0.98829(15) 0.50938(16) 0.33561(8)
H11 H 1.0213 0.5010 0.3280
H12 H 0.9940 0.5217 0.3537
N7 N 0.67230(18) 0.39723(16) 0.33746(9)
H13 H 0.6805 0.3772 0.3533
H14 H 0.6359 0.3938 0.3343
N8 N 0.6630(2) 0.46735(18) 0.38764(9)
H15 H 0.6291 0.4523 0.3877
H16 H 0.6858 0.4439 0.3968
N9 N 0.49744(17) 0.65968(18) 0.28462(9)
H17 H 0.4786 0.6898 0.2900
H18 H 0.4787 0.6435 0.2701
N10 N 0.53962(16) 0.73893(16) 0.24009(8)
H19 H 0.5112 0.7229 0.2309
H20 H 0.5266 0.7683 0.2498
N11 N 0.70986(16) 0.79601(17) 0.39037(8)
H21 H 0.7093 0.7889 0.4095
H22 H 0.7222 0.8307 0.3883
N12 N 0.82013(16) 0.76826(19) 0.40166(9)
H23 H 0.8217 0.8052 0.4024
H24 H 0.8089 0.7564 0.4191
C1 C 0.6382(2) 0.5422(2) 0.19667(9)
C2 C 0.6639(2) 0.5248(2) 0.16932(10)
H25 H 0.6812 0.5564 0.1599
C3 C 0.6167(2) 0.4988(2) 0.14822(11)
C4 C 0.6043(2) 0.5040(2) 0.20967(11)
H26 H 0.5892 0.5193 0.2271
H27 H 0.6251 0.4717 0.2143
H28 H 0.5750 0.4946 0.1967
C5 C 0.6079(2) 0.5954(2) 0.19044(12)
H29 H 0.6325 0.6211 0.1815
H30 H 0.5942 0.6105 0.2082
H31 H 0.5777 0.5881 0.1776
C6 C 0.8821(2) 0.4772(2) 0.21646(11)
C7 C 0.85774(19) 0.42604(19) 0.20616(10)
H32 H 0.8482 0.4034 0.2229
C8 C 0.8955(2) 0.3948(2) 0.18759(14)
C9 C 0.8987(2) 0.5131(2) 0.19060(11)
H33 H 0.9148 0.5467 0.1975
H34 H 0.8668 0.5214 0.1792
H35 H 0.9250 0.4938 0.1790
C10 C 0.9263(2) 0.4713(3) 0.23958(11)
H36 H 0.9403 0.5070 0.2445
H37 H 0.9557 0.4489 0.2323
H38 H 0.9108 0.4544 0.2564
C11 C 0.8310(2) 0.6810(2) 0.18156(11)
C12 C 0.8144(2) 0.7346(3) 0.16920(10)
H39 H 0.7744 0.7387 0.1701
C13 C 0.8352(2) 0.7438(3) 0.13736(11)
C14 C 0.89265(19) 0.6714(2) 0.18016(10)
H40 H 0.9114 0.7019 0.1889
H41 H 0.9038 0.6680 0.1603
H42 H 0.9017 0.6383 0.1904
C15 C 0.8015(2) 0.6365(3) 0.16932(10)
H43 H 0.8140 0.6026 0.1776
H44 H 0.8074 0.6358 0.1488
H45 H 0.7630 0.6410 0.1732
C16 C 0.8246(3) 0.8450(2) 0.28246(12)
C17 C 0.8739(3) 0.8606(2) 0.26621(12)
H46 H 0.9070 0.8432 0.2741
C18 C 0.8789(3) 0.9259(4) 0.26606(19)
C19 C 0.7685(2) 0.8711(2) 0.27204(12)
H47 H 0.7649 0.8664 0.2515
H48 H 0.7681 0.9095 0.2766
H49 H 0.7385 0.8531 0.2816
C20 C 0.8290(3) 0.8528(2) 0.31160(13)
H50 H 0.7956 0.8413 0.3208
H51 H 0.8353 0.8910 0.3155
H52 H 0.8592 0.8315 0.3189
C21 C 0.9827(2) 0.6588(2) 0.26672(12)
C22 C 1.02378(19) 0.6592(2) 0.29030(11)
H53 H 1.0138 0.6871 0.3046
C23 C 1.0770(3) 0.6722(3) 0.27813(14)
C24 C 0.9941(2) 0.6178(2) 0.24404(9)
H54 H 1.0027 0.5832 0.2529
H55 H 1.0247 0.6298 0.2326
H56 H 0.9623 0.6138 0.2319
C25 C 0.9676(2) 0.7125(2) 0.25249(12)
H57 H 0.9582 0.7390 0.2670
H58 H 0.9368 0.7070 0.2399
H59 H 0.9983 0.7257 0.2415
C26 C 0.8998(2) 0.4760(2) 0.34849(10)
C27 C 0.95661(19) 0.4607(2) 0.33713(10)
H60 H 0.9532 0.4447 0.3178
C28 C 0.9203(2) 0.5115(2) 0.10712(13)
C29 C 0.9027(2) 0.4968(2) 0.37928(9)
H61 H 0.8664 0.5058 0.3859
H62 H 0.9254 0.5290 0.3800
H63 H 0.9182 0.4688 0.3915
C30 C 0.8555(2) 0.4354(2) 0.34716(12)
H64 H 0.8227 0.4507 0.3554
H65 H 0.8660 0.4032 0.3578
H66 H 0.8488 0.4256 0.3274
C31 C 0.6948(2) 0.4112(2) 0.28722(10)
C32 C 0.7023(2) 0.3736(2) 0.31232(10)
H67 H 0.7415 0.3714 0.3170
C33 C 0.6822(2) 0.3189(2) 0.30561(11)
C34 C 0.63246(19) 0.4185(2) 0.27989(10)
H68 H 0.6127 0.4277 0.2972
H69 H 0.6183 0.3848 0.2721
H70 H 0.6282 0.4474 0.2660
C35 C 0.7245(2) 0.3980(2) 0.26160(11)
H71 H 0.7160 0.4243 0.2468
H72 H 0.7145 0.3619 0.2552
H73 H 0.7632 0.3990 0.2656
C36 C 0.7085(2) 0.5519(2) 0.39841(10)
C37 C 0.6614(3) 0.5167(2) 0.40296(10)
H74 H 0.6277 0.5368 0.3981
C38 C 0.6566(3) 0.4921(3) 0.43467(14)
C39 C 0.7625(2) 0.5210(3) 0.40787(11)
H75 H 0.7624 0.4846 0.3999
H76 H 0.7639 0.5188 0.4286
H77 H 0.7940 0.5407 0.4009
C40 C 0.7042(2) 0.60559(19) 0.41046(10)
H78 H 0.7372 0.6258 0.4065
H79 H 0.6989 0.6028 0.4310
H80 H 0.6734 0.6243 0.4020
C41 C 0.5419(2) 0.5785(2) 0.30341(11)
C42 C 0.5004(2) 0.6201(2) 0.31009(12)
H81 H 0.5129 0.6408 0.3270
C43 C 0.4477(2) 0.5988(2) 0.31619(13)
C44 C 0.5289(2) 0.5434(2) 0.27777(10)
H82 H 0.5576 0.5170 0.2750
H83 H 0.5259 0.5662 0.2609
H84 H 0.4947 0.5247 0.2810
C45 C 0.5514(2) 0.5428(2) 0.33043(11)
H85 H 0.5779 0.5147 0.3261
H86 H 0.5174 0.5260 0.3361
H87 H 0.5649 0.5653 0.3459
C46 C 0.63273(17) 0.7746(2) 0.23286(9)
C47 C 0.5798(2) 0.7569(2) 0.21911(10)
H88 H 0.5882 0.7251 0.2069
C48 C 0.9461(2) 0.2985(2) 0.04958(11)
C49 C 0.6253(2) 0.8220(2) 0.25126(11)
H89 H 0.5966 0.8148 0.2649
H90 H 0.6156 0.8532 0.2397
H91 H 0.6589 0.8295 0.2614
C50 C 0.6739(2) 0.7809(2) 0.21169(11)
H92 H 0.6766 0.7478 0.2005
H93 H 0.7085 0.7880 0.2209
H94 H 0.6647 0.8111 0.1993
C51 C 0.65487(19) 0.7873(2) 0.34878(10)
C52 C 0.6525(2) 0.7950(2) 0.38020(10)
H95 H 0.6368 0.7609 0.3879
C53 C 0.6155(2) 0.8382(2) 0.38930(11)
C54 C 0.6775(2) 0.8409(2) 0.33454(11)
H96 H 0.6789 0.8362 0.3140
H97 H 0.7137 0.8482 0.3417
H98 H 0.6537 0.8711 0.3392
C55 C 0.5983(2) 0.7739(3) 0.33577(12)
H99 H 0.6017 0.7700 0.3152
H100 H 0.5731 0.8032 0.3401
H101 H 0.5848 0.7403 0.3439
C56 C 0.8751(2) 0.68845(19) 0.38650(10)
C57 C 0.8803(2) 0.7454(2) 0.39597(10)
H102 H 0.8944 0.7658 0.3793
C58 C 0.9195(3) 0.7585(2) 0.42118(12)
C59 C 0.8563(3) 0.6545(2) 0.40908(11)
H103 H 0.8549 0.6171 0.4025
H104 H 0.8202 0.6661 0.4149
H105 H 0.8810 0.6573 0.4252
C60 C 0.9356(3) 0.6730(3) 0.37461(14)
H106 H 0.9455 0.6977 0.3593
H107 H 0.9354 0.6360 0.3674
H108 H 0.9618 0.6760 0.3900
O45 O 0.95108(18) 0.77802(18) 0.32339(9)
O46 O 0.58184(18) 0.65186(19) 0.37995(8)
O47 O 0.91877(10) 0.42999(18) 0.06318(9)
O48 O 0.8409(2) 0.4091(2) 0.08476(11)
C61 C 0.86919(12) 0.4334(3) 0.06382(17)
C62 C 0.8365(3) 0.4537(3) 0.03574(17)
H109 H 0.7977 0.4535 0.0397
H110 H 0.8442 0.4294 0.0199
H111 H 0.8479 0.4902 0.0308
O49 O 1.00311(16) 0.38856(14) 0.14757(7)
O50 O 1.01528(13) 0.38945(13) 0.08580(6)
O51 O 0.84131(8) 0.311760(14) 0.12156(3)
O52 O 0.9569(2) 0.28581(17) 0.13134(9)
La2 La 0.84061(8) 0.77451(8) 0.48970(4)
La3 La 0.89085(15) 1.04752(14) 0.27127(7)
La4 La 0.93322(17) 1.03006(16) 0.29173(8)
O53 O 0.9461(3) 1.1280(2) 0.26850(14)
O54 O 0.8540(3) 1.0103(3) 0.32674(16)
C27F C 0.9607(2) 0.54339(19) 0.08713(10)
C28G C 0.9885(2) 0.4203(2) 0.35712(13)
C47C C 0.9202(2) 0.2569(2) 0.03089(10)
C48C C 0.5539(2) 0.7985(2) 0.20042(11)
La2E La 0.77451(8) 0.84061(8) 0.51030(4)
La3D La 0.95248(14) 1.10915(15) 0.22873(7)
La4D La 0.96994(16) 1.06678(17) 0.20827(8)
O53D O 0.8720(2) 1.0539(3) 0.23150(14)
O1 O 0.52762(15) 0.92607(16) 0.36319(7)
loop_
_geom_bond_atom_site_label_1
_geom_bond_atom_site_label_2
_geom_bond_site_symmetry_1
_geom_bond_site_symmetry_2
Ag1 S1 1_555 1_555
Ag2 Br1 1_555 1_555
Ag3 S2 1_555 1_555
Ag4 Br1 1_555 1_555
Ag5 Br1 1_555 1_555
Ag6 S4 1_555 1_555
Ag7 Br1 1_555 1_555
Ag8 S8 1_555 1_555
Pd1 S1 1_555 1_555
Pd2 S3 1_555 1_555
Pd3 S5 1_555 1_555
Pd4 S7 1_555 1_555
Pd5 S9 1_555 1_555
Pd6 S11 1_555 1_555
La1 O23 1_555 1_555
S1 Ag4 1_555 1_555
S2 Ag2 1_555 1_555
S3 Ag1 1_555 1_555
S4 Ag5 1_555 1_555
S5 Ag2 1_555 1_555
S6 Ag3 1_555 1_555
S7 Ag3 1_555 1_555
S8 Ag7 1_555 1_555
S9 Ag4 1_555 1_555
S10 Ag1 1_555 1_555
S11 Ag5 1_555 1_555
S12 Ag6 1_555 1_555
O21 C3 1_555 1_555
O22 C3 1_555 1_555
O23 C8 1_555 1_555
O24 C8 1_555 1_555
O25 C13 1_555 1_555
O26 C13 1_555 1_555
O27 C18 1_555 1_555
O28 C18 1_555 1_555
O29 C23 1_555 1_555
O30 C23 1_555 1_555
O31 La1 1_555 1_555
O32 C28 1_555 1_555
O33 C33 1_555 1_555
O34 C33 1_555 1_555
O35 C38 1_555 1_555
O36 C38 1_555 1_555
O37 C43 1_555 1_555
O38 C43 1_555 1_555
O39 C48 1_555 1_555
O40 La1 1_555 1_555
O41 C53 1_555 1_555
O42 C53 1_555 1_555
O43 C58 1_555 1_555
O44 C58 1_555 1_555
N1 Pd1 1_555 1_555
H1 N1 1_555 1_555
H2 N1 1_555 1_555
N2 Pd1 1_555 1_555
H3 N2 1_555 1_555
H4 N2 1_555 1_555
N3 Pd2 1_555 1_555
H5 N3 1_555 1_555
H6 N3 1_555 1_555
N4 Pd2 1_555 1_555
H7 N4 1_555 1_555
H8 N4 1_555 1_555
N5 Pd3 1_555 1_555
H9 N5 1_555 1_555
H10 N5 1_555 1_555
N6 Pd3 1_555 1_555
H11 N6 1_555 1_555
H12 N6 1_555 1_555
N7 Pd4 1_555 1_555
H13 N7 1_555 1_555
H14 N7 1_555 1_555
N8 Pd4 1_555 1_555
H15 N8 1_555 1_555
H16 N8 1_555 1_555
N9 Pd5 1_555 1_555
H17 N9 1_555 1_555
H18 N9 1_555 1_555
N10 Pd5 1_555 1_555
H19 N10 1_555 1_555
H20 N10 1_555 1_555
N11 Pd6 1_555 1_555
H21 N11 1_555 1_555
H22 N11 1_555 1_555
N12 Pd6 1_555 1_555
H23 N12 1_555 1_555
H24 N12 1_555 1_555
C1 S1 1_555 1_555
C2 N1 1_555 1_555
H25 C2 1_555 1_555
C3 C2 1_555 1_555
C4 C1 1_555 1_555
H26 C4 1_555 1_555
H27 C4 1_555 1_555
H28 C4 1_555 1_555
C5 C1 1_555 1_555
H29 C5 1_555 1_555
H30 C5 1_555 1_555
H31 C5 1_555 1_555
C6 S2 1_555 1_555
C7 N2 1_555 1_555
H32 C7 1_555 1_555
C8 C7 1_555 1_555
C9 C6 1_555 1_555
H33 C9 1_555 1_555
H34 C9 1_555 1_555
H35 C9 1_555 1_555
C10 C6 1_555 1_555
H36 C10 1_555 1_555
H37 C10 1_555 1_555
H38 C10 1_555 1_555
C11 S3 1_555 1_555
C12 N3 1_555 1_555
H39 C12 1_555 1_555
C13 C12 1_555 1_555
C14 C11 1_555 1_555
H40 C14 1_555 1_555
H41 C14 1_555 1_555
H42 C14 1_555 1_555
C15 C11 1_555 1_555
H43 C15 1_555 1_555
H44 C15 1_555 1_555
H45 C15 1_555 1_555
C16 S4 1_555 1_555
C17 N4 1_555 1_555
H46 C17 1_555 1_555
C18 C17 1_555 1_555
C19 C16 1_555 1_555
H47 C19 1_555 1_555
H48 C19 1_555 1_555
H49 C19 1_555 1_555
C20 C16 1_555 1_555
H50 C20 1_555 1_555
H51 C20 1_555 1_555
H52 C20 1_555 1_555
C21 S5 1_555 1_555
C22 N5 1_555 1_555
H53 C22 1_555 1_555
C23 C22 1_555 1_555
C24 C21 1_555 1_555
H54 C24 1_555 1_555
H55 C24 1_555 1_555
H56 C24 1_555 1_555
C25 C21 1_555 1_555
H57 C25 1_555 1_555
H58 C25 1_555 1_555
H59 C25 1_555 1_555
C26 S6 1_555 1_555
C27 N6 1_555 1_555
H60 C27 1_555 1_555
C28 O31 1_555 1_555
C29 C26 1_555 1_555
H61 C29 1_555 1_555
H62 C29 1_555 1_555
H63 C29 1_555 1_555
C30 C26 1_555 1_555
H64 C30 1_555 1_555
H65 C30 1_555 1_555
H66 C30 1_555 1_555
C31 S7 1_555 1_555
C32 N7 1_555 1_555
H67 C32 1_555 1_555
C33 C32 1_555 1_555
C34 C31 1_555 1_555
H68 C34 1_555 1_555
H69 C34 1_555 1_555
H70 C34 1_555 1_555
C35 C31 1_555 1_555
H71 C35 1_555 1_555
H72 C35 1_555 1_555
H73 C35 1_555 1_555
C36 S8 1_555 1_555
C37 N8 1_555 1_555
H74 C37 1_555 1_555
C38 C37 1_555 1_555
C39 C36 1_555 1_555
H75 C39 1_555 1_555
H76 C39 1_555 1_555
H77 C39 1_555 1_555
C40 C36 1_555 1_555
H78 C40 1_555 1_555
H79 C40 1_555 1_555
H80 C40 1_555 1_555
C41 S9 1_555 1_555
C42 N9 1_555 1_555
H81 C42 1_555 1_555
C43 C42 1_555 1_555
C44 C41 1_555 1_555
H82 C44 1_555 1_555
H83 C44 1_555 1_555
H84 C44 1_555 1_555
C45 C41 1_555 1_555
H85 C45 1_555 1_555
H86 C45 1_555 1_555
H87 C45 1_555 1_555
C46 S10 1_555 1_555
C47 N10 1_555 1_555
H88 C47 1_555 1_555
C48 O40 1_555 1_555
C49 C46 1_555 1_555
H89 C49 1_555 1_555
H90 C49 1_555 1_555
H91 C49 1_555 1_555
C50 C46 1_555 1_555
H92 C50 1_555 1_555
H93 C50 1_555 1_555
H94 C50 1_555 1_555
C51 S11 1_555 1_555
C52 N11 1_555 1_555
H95 C52 1_555 1_555
C53 C52 1_555 1_555
C54 C51 1_555 1_555
H96 C54 1_555 1_555
H97 C54 1_555 1_555
H98 C54 1_555 1_555
C55 C51 1_555 1_555
H99 C55 1_555 1_555
H100 C55 1_555 1_555
H101 C55 1_555 1_555
C56 S12 1_555 1_555
C57 N12 1_555 1_555
H102 C57 1_555 1_555
C58 C57 1_555 1_555
C59 C56 1_555 1_555
H103 C59 1_555 1_555
H104 C59 1_555 1_555
H105 C59 1_555 1_555
C60 C56 1_555 1_555
H106 C60 1_555 1_555
H107 C60 1_555 1_555
H108 C60 1_555 1_555
O45 Ag6 1_555 1_555
O46 Ag8 1_555 1_555
O47 La1 1_555 1_555
O48 La1 1_555 1_555
C61 O47 1_555 1_555
C62 C61 1_555 1_555
H109 C62 1_555 1_555
H110 C62 1_555 1_555
H111 C62 1_555 1_555
O49 La1 1_555 1_555
O50 La1 1_555 1_555
O51 La1 1_555 1_555
O52 La1 1_555 1_555
La2 O43 1_555 1_555
La3 O27 1_555 1_555
La4 O28 1_555 1_555
O53 La3 1_555 1_555
O54 La3 1_555 1_555
C27F C28 1_555 1_555
C28G C27 1_555 1_555
C47C C48 1_555 1_555
C48C C47 1_555 1_555
La2E La2 1_555 1_555
La3D La3 1_555 1_555
La4D La3 1_555 1_555
O53D La3 1_555 1_555
Ag2 S3 1_555 1_555
Ag4 S7 1_555 1_555
Ag5 S10 1_555 1_555
Ag6 S5 1_555 1_555
Ag7 S6 1_555 1_555
Ag7 S12 1_555 1_555
Ag8 S9 1_555 1_555
Ag8 S11 1_555 1_555
Pd1 S2 1_555 1_555
Pd2 S4 1_555 1_555
Pd3 S6 1_555 1_555
Pd4 S8 1_555 1_555
Pd5 S10 1_555 1_555
Pd6 S12 1_555 1_555
O28 La3 1_555 1_555
C1 C2 1_555 1_555
C6 C7 1_555 1_555
C11 C12 1_555 1_555
C16 C17 1_555 1_555
C21 C22 1_555 1_555
C26 C27 1_555 1_555
C31 C32 1_555 1_555
C36 C37 1_555 1_555
C41 C42 1_555 1_555
C46 C47 1_555 1_555
C51 C52 1_555 1_555
C56 C57 1_555 1_555
O48 C61 1_555 1_555
La3 La4 1_555 1_555
La4 O53 1_555 1_555
La4 O54 1_555 1_555
La4 La3D 1_555 1_555
La4 La4D 1_555 1_555
O53 La3D 1_555 1_555
La3D La4D 1_555 1_555
La3D O53D 1_555 1_555
La4D O53D 1_555 1_555

#END
