
#######################################################################
#
#                 Cambridge Crystallographic Data Centre
#                                CCDC 
#
#######################################################################
#
# If this CIF has been generated from an entry in the Cambridge 
# Structural Database, then it will include bibliographic, chemical, 
# crystal, experimental, refinement or atomic coordinate data resulting 
# from the CCDC's data processing and validation procedures.
#
#######################################################################

data_IJANEN
_chemical_formula_moiety         '(C38 H32 N4 O17 Zn3)n'
_symmetry_cell_setting           monoclinic
_symmetry_space_group_name_H-M   'C 2/c'
_symmetry_Int_Tables_number      15
_space_group_name_Hall           '-C 2yc'
loop_
_symmetry_equiv_pos_site_id
_symmetry_equiv_pos_as_xyz
1 x,y,z
2 -x,y,1/2-z
3 1/2+x,1/2+y,z
4 1/2-x,1/2+y,1/2-z
5 -x,-y,-z
6 x,-y,1/2+z
7 1/2-x,1/2-y,-z
8 1/2+x,1/2-y,1/2+z
_cell_length_a                   20.954(7)
_cell_length_b                   9.472(3)
_cell_length_c                   23.124(7)
_cell_angle_alpha                90
_cell_angle_beta                 109.3430(10)
_cell_angle_gamma                90
_cell_volume                     4330.5
loop_
_atom_site_label
_atom_site_type_symbol
_atom_site_fract_x
_atom_site_fract_y
_atom_site_fract_z
Zn1 Zn 0.712040(6) 2.35503(1) 0.261370(5)
Zn2 Zn 0.5000 1.58435(2) 0.2500
O1 O 0.69360(5) 2.15814(9) 0.27688(5)
O2 O 0.61953(14) 2.2199(2) 0.32579(11)
O4 O 0.58899(4) 1.93273(9) 0.20722(4)
O5 O 0.68792(4) 1.84390(9) 0.21276(3)
O6 O 0.71127(4) 1.52462(9) 0.30800(4)
O7 O 0.60569(4) 1.58290(9) 0.25577(3)
C1 C 0.68493(6) 1.97859(14) 0.40511(5)
H1 H 0.6880 2.0587 0.4291
C2 C 0.69436(7) 1.84586(14) 0.43228(5)
H2 H 0.7038 1.8370 0.4743
C3 C 0.68963(6) 1.72774(13) 0.39657(5)
H3 H 0.6982 1.6392 0.4149
C4 C 0.67213(5) 1.73961(11) 0.33313(5)
C5 C 0.66369(5) 1.87223(11) 0.30553(5)
C6 C 0.67095(6) 1.99228(12) 0.34259(5)
C7 C 0.66807(8) 2.13766(13) 0.31761(6)
C8 C 0.64635(5) 1.88603(11) 0.23749(5)
C9 C 0.66096(5) 1.60699(11) 0.29548(5)
N1 N 0.33331(5) 1.62161(10) -0.16998(4)
N2 N 0.47337(5) 1.57657(11) 0.15235(4)
C10 C 0.34483(6) 1.49622(13) -0.14344(5)
H4 H 0.3325 1.4161 -0.1679
C11 C 0.37460(6) 1.47926(13) -0.08056(5)
H5 H 0.3818 1.3893 -0.0635
C12 C 0.39340(5) 1.59695(13) -0.04366(5)
C13 C 0.38077(7) 1.72815(14) -0.07229(5)
H6 H 0.3926 1.8103 -0.0491
C14 C 0.35080(7) 1.73625(13) -0.13464(5)
H7 H 0.3423 1.8248 -0.1530
C15 C 0.42382(6) 1.58633(13) 0.02375(5)
C16 C 0.40728(7) 1.47623(14) 0.05611(5)
H8 H 0.3792 1.4036 0.0352
C17 C 0.43257(7) 1.47536(14) 0.11903(6)
H9 H 0.4209 1.4008 0.1397
C18 C 0.49023(6) 1.67870(15) 0.12111(5)
H10 H 0.5198 1.7482 0.1430
C19 C 0.46677(6) 1.68807(15) 0.05851(5)
H11 H 0.4799 1.7635 0.0393
O8 O 0.5000 1.36000(14) 0.2500
O9 O 0.5000 1.80331(13) 0.2500
Zn1A Zn 0.287960(6) 2.35503(1) 0.238630(5)
Zn1C Zn 0.787960(6) 1.85503(1) 0.238630(5)
Zn1_2 Zn 0.712040(6) 1.35503(1) 0.261370(5)
Zn1D Zn 0.287960(6) 1.64497(1) -0.261370(5)
Zn1B Zn 0.212040(6) 1.85503(1) 0.261370(5)
Zn1A_2 Zn 0.287960(6) 1.35503(1) 0.238630(5)
Zn1E Zn 0.712040(6) 1.64497(1) 0.761370(5)
O1A O 0.30640(5) 2.15814(9) 0.22312(5)
O2A O 0.38047(14) 2.2199(2) 0.17421(11)
O4A O 0.41101(4) 1.93273(9) 0.29278(4)
O5A O 0.31208(4) 1.84390(9) 0.28724(3)
O5C O 0.81208(4) 2.34390(9) 0.28724(3)
O5B O 0.18792(4) 2.34390(9) 0.21276(3)
O6A O 0.28873(4) 1.52462(9) 0.19200(4)
O6_2 O 0.71127(4) 2.52462(9) 0.30800(4)
O6A_2 O 0.28873(4) 2.52462(9) 0.19200(4)
O7A O 0.39431(4) 1.58290(9) 0.24423(3)
C1A C 0.31507(6) 1.97859(14) 0.09489(5)
H1A H 0.3120 2.0587 0.0709
C2A C 0.30564(7) 1.84586(14) 0.06772(5)
H2A H 0.2962 1.8370 0.0257
C3A C 0.31037(6) 1.72774(13) 0.10343(5)
H3A H 0.3018 1.6392 0.0851
C4A C 0.32787(5) 1.73961(11) 0.16687(5)
C5A C 0.33631(5) 1.87223(11) 0.19447(5)
C6A C 0.32905(6) 1.99228(12) 0.15741(5)
C7A C 0.33193(8) 2.13766(13) 0.18239(6)
C8A C 0.35365(5) 1.88603(11) 0.26251(5)
C9A C 0.33904(5) 1.60699(11) 0.20452(5)
N1A N 0.66669(5) 1.62161(10) 0.66998(4)
N1D N 0.66669(5) 2.37839(10) 0.16998(4)
N1E N 0.33331(5) 2.37839(10) 0.33002(4)
N2A N 0.52663(5) 1.57657(11) 0.34765(4)
C10A C 0.65517(6) 1.49622(13) 0.64344(5)
H4A H 0.6675 1.4161 0.6679
C11A C 0.62540(6) 1.47926(13) 0.58056(5)
H5A H 0.6182 1.3893 0.5635
C12A C 0.60660(5) 1.59695(13) 0.54366(5)
C13A C 0.61923(7) 1.72815(14) 0.57229(5)
H6A H 0.6074 1.8103 0.5491
C14A C 0.64920(7) 1.73625(13) 0.63464(5)
H7A H 0.6577 1.8248 0.6530
C15A C 0.57618(6) 1.58633(13) 0.47625(5)
C16A C 0.59272(7) 1.47623(14) 0.44389(5)
H8A H 0.6208 1.4036 0.4648
C17A C 0.56743(7) 1.47536(14) 0.38097(6)
H9A H 0.5791 1.4008 0.3603
C18A C 0.50977(6) 1.67870(15) 0.37889(5)
H10A H 0.4802 1.7482 0.3570
C19A C 0.53323(6) 1.68807(15) 0.44149(5)
H11A H 0.5201 1.7635 0.4607
O10 O 0.24331(11) 0.3435(2) 0.04610(9)
O11 O 0.37648(10) -0.1061(2) 0.42416(7)
O13 O 0.49334(18) 0.1461(4) 0.15553(17)
loop_
_geom_bond_atom_site_label_1
_geom_bond_atom_site_label_2
_geom_bond_site_symmetry_1
_geom_bond_site_symmetry_2
Zn1 O1 1_555 1_555
Zn2 O7 1_555 1_555
O1 C7 1_555 1_555
O2 C7 1_555 1_555
O4 C8 1_555 1_555
O5 C8 1_555 1_555
O6 C9 1_555 1_555
O7 C9 1_555 1_555
C1 H1 1_555 1_555
C2 C1 1_555 1_555
H2 C2 1_555 1_555
C3 C2 1_555 1_555
H3 C3 1_555 1_555
C4 C3 1_555 1_555
C5 C4 1_555 1_555
C6 C1 1_555 1_555
C7 C6 1_555 1_555
C8 C5 1_555 1_555
C9 C4 1_555 1_555
N1 C10 1_555 1_555
N2 Zn2 1_555 1_555
C10 H4 1_555 1_555
C11 C10 1_555 1_555
H5 C11 1_555 1_555
C12 C11 1_555 1_555
C13 C12 1_555 1_555
H6 C13 1_555 1_555
C14 N1 1_555 1_555
H7 C14 1_555 1_555
C15 C12 1_555 1_555
C16 C15 1_555 1_555
H8 C16 1_555 1_555
C17 N2 1_555 1_555
H9 C17 1_555 1_555
C18 N2 1_555 1_555
H10 C18 1_555 1_555
C19 C15 1_555 1_555
H11 C19 1_555 1_555
O8 Zn2 1_555 1_555
O9 Zn2 1_555 1_555
Zn1A O1A 1_555 1_555
Zn1C O5 1_555 1_555
Zn1_2 O6 1_555 1_555
Zn1D N1 1_555 1_555
Zn1B O5A 1_555 1_555
Zn1A_2 O6A 1_555 1_555
Zn1E N1A 1_555 1_555
O1A C7A 1_555 1_555
O2A C7A 1_555 1_555
O4A C8A 1_555 1_555
O5A C8A 1_555 1_555
O5C Zn1 1_555 1_555
O5B Zn1A 1_555 1_555
O6A C9A 1_555 1_555
O6_2 Zn1 1_555 1_555
O6A_2 Zn1A 1_555 1_555
O7A Zn2 1_555 1_555
C1A H1A 1_555 1_555
C2A C1A 1_555 1_555
H2A C2A 1_555 1_555
C3A C2A 1_555 1_555
H3A C3A 1_555 1_555
C4A C3A 1_555 1_555
C5A C4A 1_555 1_555
C6A C1A 1_555 1_555
C7A C6A 1_555 1_555
C8A C5A 1_555 1_555
C9A O7A 1_555 1_555
N1A C10A 1_555 1_555
N1D Zn1 1_555 1_555
N1E Zn1A 1_555 1_555
N2A Zn2 1_555 1_555
C10A H4A 1_555 1_555
C11A C10A 1_555 1_555
H5A C11A 1_555 1_555
C12A C11A 1_555 1_555
C13A C12A 1_555 1_555
H6A C13A 1_555 1_555
C14A N1A 1_555 1_555
H7A C14A 1_555 1_555
C15A C12A 1_555 1_555
C16A C15A 1_555 1_555
H8A C16A 1_555 1_555
C17A N2A 1_555 1_555
H9A C17A 1_555 1_555
C18A N2A 1_555 1_555
H10A C18A 1_555 1_555
C19A C15A 1_555 1_555
H11A C19A 1_555 1_555
C5 C6 1_555 1_555
C13 C14 1_555 1_555
C16 C17 1_555 1_555
C18 C19 1_555 1_555
C4A C9A 1_555 1_555
C5A C6A 1_555 1_555
C13A C14A 1_555 1_555
C16A C17A 1_555 1_555
C18A C19A 1_555 1_555

#END
