
#######################################################################
#
#                 Cambridge Crystallographic Data Centre
#                                CCDC 
#
#######################################################################
#
# If this CIF has been generated from an entry in the Cambridge 
# Structural Database, then it will include bibliographic, chemical, 
# crystal, experimental, refinement or atomic coordinate data resulting 
# from the CCDC's data processing and validation procedures.
#
#######################################################################

data_KIRKAZ
_chemical_formula_moiety         '(C33 H29 Co1 N5 O6)n'
_symmetry_cell_setting           monoclinic
_symmetry_space_group_name_H-M   'P 21/n'
_symmetry_Int_Tables_number      14
_space_group_name_Hall           '-P 2yn'
loop_
_symmetry_equiv_pos_site_id
_symmetry_equiv_pos_as_xyz
1 x,y,z
2 1/2-x,1/2+y,1/2-z
3 -x,-y,-z
4 1/2+x,1/2-y,1/2+z
_cell_length_a                   13.4374(6)
_cell_length_b                   16.6277(7)
_cell_length_c                   13.6645(6)
_cell_angle_alpha                90
_cell_angle_beta                 95.3790(10)
_cell_angle_gamma                90
_cell_volume                     3039.66
loop_
_atom_site_label
_atom_site_type_symbol
_atom_site_fract_x
_atom_site_fract_y
_atom_site_fract_z
C1 C 0.7238(2) 0.80586(16) 0.93077(19)
H1 H 0.7614 0.8529 0.9363
C2 C 0.67836(19) 0.69153(16) 0.84457(19)
H2 H 0.6870 0.6571 0.7924
C3 C 0.60432(19) 0.67332(15) 0.90543(18)
C4 C 0.5966(2) 0.72393(15) 0.98552(19)
H3 H 0.5506 0.7120 1.0302
C5 C 0.65598(19) 0.79170(15) 1.00008(18)
C6 C 0.6511(2) 0.84632(15) 1.08573(19)
C7 C 0.7326(2) 0.89492(19) 1.1161(2)
H4 H 0.7892 0.8935 1.0818
C8 C 0.5684(2) 0.84925(15) 1.14001(19)
H5 H 0.5132 0.8171 1.1214
C9 C 0.5667(2) 0.89939(16) 1.22164(19)
C10 C 0.6484(2) 0.94777(19) 1.2481(2)
H6 H 0.6475 0.9824 1.3014
C11 C 0.7309(2) 0.9448(2) 1.1958(2)
H7 H 0.7860 0.9770 1.2147
C12 C 0.4773(2) 0.90280(17) 1.2802(2)
C13 C 0.53904(19) 0.60182(15) 0.88742(18)
C14 C 0.5702(2) 0.53473(15) 0.83771(18)
H8 H 0.6320 0.5355 0.8123
C15 C 0.51061(19) 0.46663(15) 0.82531(18)
C16 C 0.4189(2) 0.46525(16) 0.86360(19)
H9 H 0.3793 0.4194 0.8568
C17 C 0.3860(2) 0.53163(17) 0.9119(2)
H10 H 0.3241 0.5306 0.9372
C18 C 0.4450(2) 0.59964(17) 0.9226(2)
H11 H 0.4216 0.6447 0.9537
C19 C 0.5481(2) 0.39337(16) 0.77725(19)
C20 C 0.7754(2) 0.6951(2) 0.5893(2)
H12 H 0.7908 0.6436 0.6127
C21 C 0.7228(2) 0.7929(2) 0.4916(2)
H13 H 0.6966 0.8220 0.4371
C22 C 0.7584(2) 0.82287(19) 0.5794(2)
H14 H 0.7599 0.8771 0.5960
C23 C 0.7140(2) 0.6525(2) 0.4184(2)
H15 H 0.6492 0.6628 0.3831
H16 H 0.7130 0.5988 0.4458
C24 C 0.7941(2) 0.6577(2) 0.3483(2)
C25 C 0.8902(3) 0.6314(2) 0.3766(2)
H17 H 0.9050 0.6088 0.4386
C26 C 0.9639(2) 0.6382(2) 0.3141(2)
H18 H 1.0282 0.6205 0.3341
C27 C 0.9433(2) 0.67108(18) 0.2218(2)
C28 C 0.8471(2) 0.6958(2) 0.1937(2)
H19 H 0.8318 0.7171 0.1312
C29 C 0.7732(2) 0.6896(2) 0.2567(2)
H20 H 0.7088 0.7073 0.2367
C30 C 1.0254(2) 0.6749(2) 0.1543(2)
H21 H 1.0870 0.6913 0.1918
H22 H 1.0359 0.6216 0.1283
C31 C 0.9686(2) 0.70976(19) -0.0188(2)
H23 H 0.9579 0.6569 -0.0395
C32 C 0.9763(2) 0.83766(19) -0.0164(2)
H24 H 0.9719 0.8911 -0.0363
C33 C 1.0081(2) 0.8126(2) 0.0751(2)
H25 H 1.0289 0.8446 0.1290
Co1 Co 0.87288(3) 0.76735(2) 0.78139(3)
N1 N 0.73778(17) 0.75580(13) 0.85688(16)
N2 N 0.79220(17) 0.76134(14) 0.64080(16)
N3 N 0.73286(18) 0.71147(17) 0.49817(17)
N4 N 1.00347(18) 0.73084(16) 0.07248(17)
N5 N 0.95127(17) 0.77298(14) -0.07582(17)
O1 O 0.62612(13) 0.39750(11) 0.73162(13)
O2 O 0.50436(14) 0.32746(11) 0.78478(15)
O3 O 0.47390(19) 0.95843(14) 1.34085(18)
O4 O 0.40970(15) 0.85015(11) 1.26515(14)
Co1_2 Co 0.87288(3) 0.76735(2) -0.21861(3)
Co1A Co 0.62712(3) 0.26735(2) 0.71861(3)
Co1C Co 0.37288(3) 0.73265(2) 1.28139(3)
N5_2 N 0.95127(17) 0.77298(14) 0.92418(17)
O1A O 0.87388(13) 0.89750(11) 0.76838(13)
O2A O 0.99564(14) 0.82746(11) 0.71522(15)
O4C O 0.90970(15) 0.64985(11) 0.76515(14)
O5 O 0.3607(3) 0.9983(3) 0.4980(3)
H26 H 0.4121(12) 0.999(2) 0.470(2)
H27 H 0.3151(17) 0.972(2) 0.470(2)
O6 O 0.7266(4) 1.0046(3) 0.8238(4)
H28 H 0.6903(16) 0.9707(19) 0.795(3)
H29 H 0.7866(4) 0.9959(19) 0.823(3)
loop_
_geom_bond_atom_site_label_1
_geom_bond_atom_site_label_2
_geom_bond_site_symmetry_1
_geom_bond_site_symmetry_2
C1 H1 1_555 1_555
C2 H2 1_555 1_555
C3 C2 1_555 1_555
C4 C3 1_555 1_555
H3 C4 1_555 1_555
C5 C1 1_555 1_555
C6 C5 1_555 1_555
C7 C6 1_555 1_555
H4 C7 1_555 1_555
C8 C6 1_555 1_555
H5 C8 1_555 1_555
C9 C8 1_555 1_555
C10 C9 1_555 1_555
H6 C10 1_555 1_555
C11 C7 1_555 1_555
H7 C11 1_555 1_555
C12 C9 1_555 1_555
C13 C3 1_555 1_555
C14 C13 1_555 1_555
H8 C14 1_555 1_555
C15 C14 1_555 1_555
C16 C15 1_555 1_555
H9 C16 1_555 1_555
C17 C16 1_555 1_555
H10 C17 1_555 1_555
C18 C13 1_555 1_555
H11 C18 1_555 1_555
C19 C15 1_555 1_555
C20 H12 1_555 1_555
C21 H13 1_555 1_555
C22 C21 1_555 1_555
H14 C22 1_555 1_555
C23 H15 1_555 1_555
H16 C23 1_555 1_555
C24 C23 1_555 1_555
C25 C24 1_555 1_555
H17 C25 1_555 1_555
C26 C25 1_555 1_555
H18 C26 1_555 1_555
C27 C26 1_555 1_555
C28 C27 1_555 1_555
H19 C28 1_555 1_555
C29 C24 1_555 1_555
H20 C29 1_555 1_555
C30 C27 1_555 1_555
H21 C30 1_555 1_555
H22 C30 1_555 1_555
C31 H23 1_555 1_555
C32 H24 1_555 1_555
C33 C32 1_555 1_555
H25 C33 1_555 1_555
Co1 N1 1_555 1_555
N1 C1 1_555 1_555
N2 C20 1_555 1_555
N3 C20 1_555 1_555
N4 C30 1_555 1_555
N5 C31 1_555 1_555
O1 C19 1_555 1_555
O2 C19 1_555 1_555
O3 C12 1_555 1_555
O4 C12 1_555 1_555
O5 H26 1_555 1_555
H27 O5 1_555 1_555
O6 H28 1_555 1_555
H29 O6 1_555 1_555
Co1_2 N5 1_555 1_555
Co1A O1 1_555 1_555
Co1C O4 1_555 1_555
N5_2 Co1 1_555 1_555
O1A Co1 1_555 1_555
O2A Co1 1_555 1_555
O4C Co1 1_555 1_555
C2 N1 1_555 1_555
C4 C5 1_555 1_555
C10 C11 1_555 1_555
C17 C18 1_555 1_555
C21 N3 1_555 1_555
C22 N2 1_555 1_555
C23 N3 1_555 1_555
C28 C29 1_555 1_555
C31 N4 1_555 1_555
C32 N5 1_555 1_555
C33 N4 1_555 1_555
Co1 N2 1_555 1_555
O2 Co1A 1_555 1_555

#END
