
#######################################################################
#
#                 Cambridge Crystallographic Data Centre
#                                CCDC 
#
#######################################################################
#
# If this CIF has been generated from an entry in the Cambridge 
# Structural Database, then it will include bibliographic, chemical, 
# crystal, experimental, refinement or atomic coordinate data resulting 
# from the CCDC's data processing and validation procedures.
#
#######################################################################

data_KOKKIF
_chemical_formula_moiety         'C8 H9 Fe5 N4 O9'
_symmetry_cell_setting           orthorhombic
_symmetry_space_group_name_H-M   'I m m a'
_symmetry_Int_Tables_number      74
_space_group_name_Hall           '-I 2b 2'
loop_
_symmetry_equiv_pos_site_id
_symmetry_equiv_pos_as_xyz
1 x,y,z
2 1/2+x,1/2+y,1/2+z
3 -x,1/2-y,z
4 -x,1/2+y,-z
5 x,-y,-z
6 1/2-x,-y,1/2+z
7 1/2-x,y,1/2-z
8 1/2+x,1/2-y,1/2-z
9 -x,-y,-z
10 1/2-x,1/2-y,1/2-z
11 x,1/2+y,-z
12 x,1/2-y,z
13 -x,y,z
14 1/2+x,y,1/2-z
15 1/2+x,-y,1/2+z
16 1/2-x,1/2+y,1/2+z
_cell_length_a                   6.9177(14)
_cell_length_b                   17.668(3)
_cell_length_c                   12.120(3)
_cell_angle_alpha                90
_cell_angle_beta                 90
_cell_angle_gamma                90
_cell_volume                     1481.33
loop_
_atom_site_label
_atom_site_type_symbol
_atom_site_fract_x
_atom_site_fract_y
_atom_site_fract_z
Fe1 Fe 0.2500 0.2500 0.2500
O1 O 0.0000 0.2500 0.17495(8)
H1 H 0.0000 0.2500 0.1093(7)
O2 O 0.33831(7) 0.16825(3) 0.14675(5)
C1 C 0.5000 0.14008(6) 0.12281(10)
C2 C 0.5000 0.06758(7) 0.05927(11)
C3 C 0.32914(14) 0.03378(5) 0.02998(10)
N1 N 0.1479(5) 0.0525(2) 0.0730(5)
H2 H 0.0441 0.0283 0.0503
H3 H 0.1376 0.0885 0.1229
O2D O 0.33831(7) -0.16825(3) -0.14675(5)
C1D C 0.5000 -0.14008(6) -0.12281(10)
C2D C 0.5000 -0.06758(7) -0.05927(11)
C3D C 0.32914(14) -0.03378(5) -0.02998(10)
N1D N 0.1479(5) -0.0525(2) -0.0730(5)
H2D H 0.0441 -0.0283 -0.0503
H3D H 0.1376 -0.0885 -0.1229
O2H O 0.66169(7) -0.16825(3) -0.14675(5)
C3H C 0.67086(14) -0.03378(5) -0.02998(10)
N1H N 0.8521(5) -0.0525(2) -0.0730(5)
H2H H 0.9559 -0.0283 -0.0503
H3H H 0.8624 -0.0885 -0.1229
O2L O 0.66169(7) 0.16825(3) 0.14675(5)
C3L C 0.67086(14) 0.03378(5) 0.02998(10)
N1L N 0.8521(5) 0.0525(2) 0.0730(5)
H2L H 0.9559 0.0283 0.0503
H3L H 0.8624 0.0885 0.1229
Fe1A Fe 0.7500 -0.2500 -0.2500
Fe1B Fe -0.2500 0.2500 0.2500
Fe1B_2 Fe 0.7500 0.2500 0.2500
Fe1D Fe 0.2500 -0.2500 -0.2500
O1F O 0.5000 0.2500 0.32505(8)
O2F O 0.16169(7) 0.16825(3) 0.35325(5)
O2I O 0.16169(7) 0.33175(3) 0.35325(5)
O2K O 0.33831(7) 0.33175(3) 0.14675(5)
loop_
_geom_bond_atom_site_label_1
_geom_bond_atom_site_label_2
_geom_bond_site_symmetry_1
_geom_bond_site_symmetry_2
Fe1 O1 1_555 1_555
O1 H1 1_555 1_555
O2 Fe1 1_555 1_555
C1 O2 1_555 1_555
C2 C1 1_555 1_555
C3 C2 1_555 1_555
N1 C3 1_555 1_555
H2 N1 1_555 1_555
H3 N1 1_555 1_555
O2D C1D 1_555 1_555
C1D C2D 1_555 1_555
C2D C3D 1_555 1_555
C3D C3 1_555 1_555
N1D C3D 1_555 1_555
H2D N1D 1_555 1_555
H3D N1D 1_555 1_555
O2H C1D 1_555 1_555
C3H C2D 1_555 1_555
N1H C3H 1_555 1_555
H2H N1H 1_555 1_555
H3H N1H 1_555 1_555
O2L C1 1_555 1_555
C3L C2 1_555 1_555
N1L C3L 1_555 1_555
H2L N1L 1_555 1_555
H3L N1L 1_555 1_555
Fe1A O2H 1_555 1_555
Fe1B O1 1_555 1_555
Fe1B_2 O2L 1_555 1_555
Fe1D O2D 1_555 1_555
O1F Fe1 1_555 1_555
O2F Fe1 1_555 1_555
O2I Fe1 1_555 1_555
O2K Fe1 1_555 1_555
C3H C3L 1_555 1_555
Fe1B_2 O1F 1_555 1_555

#END
