
#######################################################################
#
#                 Cambridge Crystallographic Data Centre
#                                CCDC 
#
#######################################################################
#
# If this CIF has been generated from an entry in the Cambridge 
# Structural Database, then it will include bibliographic, chemical, 
# crystal, experimental, refinement or atomic coordinate data resulting 
# from the CCDC's data processing and validation procedures.
#
#######################################################################

data_LEQVIN
_chemical_formula_moiety         '(C8 H6 Fe3 N8 O20 P6 3-)n'
_symmetry_cell_setting           rhombohedral
_symmetry_space_group_name_H-M   'R -3'
_symmetry_Int_Tables_number      148
_space_group_name_Hall           '-R 3'
loop_
_symmetry_equiv_pos_site_id
_symmetry_equiv_pos_as_xyz
1 x,y,z
2 -y,x-y,z
3 -x+y,-x,z
4 2/3+x,1/3+y,1/3+z
5 2/3-y,1/3+x-y,1/3+z
6 2/3-x+y,1/3-x,1/3+z
7 1/3+x,2/3+y,2/3+z
8 1/3-y,2/3+x-y,2/3+z
9 1/3-x+y,2/3-x,2/3+z
10 -x,-y,-z
11 y,-x+y,-z
12 x-y,x,-z
13 1/3-x,2/3-y,2/3-z
14 1/3+y,2/3-x+y,2/3-z
15 1/3+x-y,2/3+x,2/3-z
16 2/3-x,1/3-y,1/3-z
17 2/3+y,1/3-x+y,1/3-z
18 2/3+x-y,1/3+x,1/3-z
_cell_length_a                   8.8030(10)
_cell_length_b                   8.8030(10)
_cell_length_c                   25.292(2)
_cell_angle_alpha                90
_cell_angle_beta                 90
_cell_angle_gamma                120.0
_cell_volume                     1697.36
loop_
_atom_site_label
_atom_site_type_symbol
_atom_site_fract_x
_atom_site_fract_y
_atom_site_fract_z
O4 O 0.396(4) 0.243(3) 0.1627(7)
O4O O 0.271(4) 0.090(3) 0.1706(7)
N1 N 0.6667 0.3333 0.1630(12)
N2 N 0.748(3) 0.321(3) 0.3109(7)
C1 C 0.569(2) 0.237(2) 0.2189(8)
C2 C 0.6667 0.3333 0.2667(8)
N1N N 0.6667 0.3334 0.5037(12)
N2A N 0.679(3) 0.427(4) 0.3109(7)
N2B N 0.573(4) 0.252(3) 0.3109(7)
N2M N 0.654(3) 0.240(4) 0.3558(7)
N2N N 0.760(4) 0.415(3) 0.3558(7)
N2L N 0.585(3) 0.346(3) 0.3558(7)
C1A C 0.763(2) 0.332(3) 0.2189(8)
C1B C 0.668(3) 0.431(2) 0.2189(8)
C1N C 0.665(3) 0.236(2) 0.4478(8)
C1L C 0.764(2) 0.430(2) 0.4478(8)
C1M C 0.570(2) 0.335(3) 0.4478(8)
C2N C 0.6667 0.3334 0.4000(8)
Fe1 Fe -0.3333 0.3333 0.02227(3)
Fe2 Fe 0.3333 0.6667 0.1667
P1 P 0.04553(11) 0.48920(11) 0.07029(3)
H1 H 0.055(4) 0.626(4) 0.0686(12)
O1 O 0.1322(3) 0.4896(3) 0.12272(8)
O2 O -0.1448(3) 0.3388(3) 0.06944(8)
O3 O 0.1473(3) 0.4795(3) 0.02279(8)
Fe1A Fe 0.6667 0.3334 0.02227(3)
Fe1I Fe 0.3333 0.6667 -0.02227(3)
Fe1_2 Fe 0.6667 1.3333 0.02227(3)
Fe1P Fe -0.0000 0.9999 0.31106(3)
Fe1C Fe 0.3334 0.6666 0.35560(3)
Fe1P_2 Fe -0.0000 -0.0001 0.31106(3)
Fe1P_3 Fe 1.0000 0.9999 0.31106(3)
P1A P 0.51080(11) 0.55633(16) 0.07029(3)
P1B P 0.44367(16) 0.95447(11) 0.07029(3)
P1P P 0.15587(11) 0.77700(16) 0.26304(3)
P1Q P 0.22300(16) 0.37886(11) 0.26304(3)
P1O P 0.62114(11) 0.84413(11) 0.26304(3)
H1A H 0.374(4) 0.429(6) 0.0686(12)
H1B H 0.571(6) 0.945(4) 0.0686(12)
H1P H 0.293(4) 0.904(6) 0.2647(12)
H1Q H 0.096(6) 0.388(4) 0.2647(12)
H1O H 0.612(4) 0.707(4) 0.2647(12)
O1A O 0.5104(3) 0.6426(4) 0.12272(8)
O1B O 0.3574(4) 0.8678(3) 0.12272(8)
O1P O 0.1563(3) 0.6907(4) 0.21061(8)
O1Q O 0.3093(4) 0.4655(3) 0.21061(8)
O1O O 0.5345(3) 0.8437(3) 0.21061(8)
O2A O 0.6612(3) 0.5164(4) 0.06944(8)
O2B O 0.4836(4) 1.1448(3) 0.06944(8)
O2P O 0.0055(3) 0.8169(4) 0.26389(8)
O2Q O 0.1831(4) 0.1885(3) 0.26389(8)
O2O O 0.8115(3) 0.9945(3) 0.26389(8)
O2A_2 O -0.3388(3) 0.5164(4) 0.06944(8)
O2B_2 O -0.5164(4) 0.1448(3) 0.06944(8)
O2_2 O 0.8552(3) 0.3388(3) 0.06944(8)
O2B_3 O 0.4836(4) 0.1448(3) 0.06944(8)
O3A O 0.5205(3) 0.6678(4) 0.02279(8)
O3B O 0.3322(4) 0.8527(3) 0.02279(8)
O3P O 0.1462(3) 0.6655(4) 0.31054(8)
O3Q O 0.3345(4) 0.4806(3) 0.31054(8)
O3O O 0.5194(3) 0.8538(3) 0.31054(8)
O3I O -0.1473(3) 0.5205(3) -0.02279(8)
O3J O -0.5205(3) 0.3322(4) -0.02279(8)
O3K O -0.3322(4) 0.1473(3) -0.02279(8)
O3I_2 O 0.8527(3) 0.5205(3) -0.02279(8)
O3J_2 O 0.4795(3) 0.3322(4) -0.02279(8)
O3K_2 O 0.6678(4) 0.1473(3) -0.02279(8)
loop_
_geom_bond_atom_site_label_1
_geom_bond_atom_site_label_2
_geom_bond_site_symmetry_1
_geom_bond_site_symmetry_2
Fe1 O2 1_555 1_555
Fe2 O1 1_555 1_555
P1 H1 1_555 1_555
O1 P1 1_555 1_555
O2 P1 1_555 1_555
O3 P1 1_555 1_555
O4 O4O 1_555 1_555
N1 C1 1_555 1_555
N2 C2 1_555 1_555
C1 C2 1_555 1_555
C2 N2A 1_555 1_555
Fe1A O2A 1_555 1_555
Fe1I O3 1_555 1_555
Fe1_2 O2B 1_555 1_555
Fe1P O2P 1_555 1_555
Fe1C O3P 1_555 1_555
Fe1P_2 O2Q 1_555 1_555
Fe1P_3 O2O 1_555 1_555
P1A H1A 1_555 1_555
P1B H1B 1_555 1_555
P1P H1P 1_555 1_555
P1Q H1Q 1_555 1_555
P1O H1O 1_555 1_555
O1A Fe2 1_555 1_555
O1B Fe2 1_555 1_555
O1P Fe2 1_555 1_555
O1Q Fe2 1_555 1_555
O1O Fe2 1_555 1_555
O2A P1A 1_555 1_555
O2B P1B 1_555 1_555
O2P P1P 1_555 1_555
O2Q P1Q 1_555 1_555
O2O P1O 1_555 1_555
O2A_2 Fe1 1_555 1_555
O2B_2 Fe1 1_555 1_555
O2_2 Fe1A 1_555 1_555
O2B_3 Fe1A 1_555 1_555
O3A Fe1I 1_555 1_555
O3B Fe1I 1_555 1_555
O3P P1P 1_555 1_555
O3Q Fe1C 1_555 1_555
O3O Fe1C 1_555 1_555
O3I Fe1 1_555 1_555
O3J Fe1 1_555 1_555
O3K Fe1 1_555 1_555
O3I_2 Fe1A 1_555 1_555
O3J_2 Fe1A 1_555 1_555
O3K_2 Fe1A 1_555 1_555
N1N C1N 1_555 1_555
N2A N2 1_555 1_555
N2B N2 1_555 1_555
N2M N2 1_555 1_555
N2N N2 1_555 1_555
N2L N2A 1_555 1_555
C1A N1 1_555 1_555
C1B N1 1_555 1_555
C1N C1L 1_555 1_555
C1L N1N 1_555 1_555
C1M N1N 1_555 1_555
C2N N2M 1_555 1_555
C1 C1A 1_555 1_555
C1 C1B 1_555 1_555
C2 N2B 1_555 1_555
C2 C1A 1_555 1_555
C2 C1B 1_555 1_555
P1A O1A 1_555 1_555
P1A O3A 1_555 1_555
P1B O1B 1_555 1_555
P1B O3B 1_555 1_555
P1P O1P 1_555 1_555
P1Q O1Q 1_555 1_555
P1Q O3Q 1_555 1_555
P1O O1O 1_555 1_555
P1O O3O 1_555 1_555
N2A N2B 1_555 1_555
N2A N2N 1_555 1_555
N2B N2M 1_555 1_555
N2B N2L 1_555 1_555
N2M N2N 1_555 1_555
N2M N2L 1_555 1_555
N2N N2L 1_555 1_555
N2N C2N 1_555 1_555
N2L C2N 1_555 1_555
C1A C1B 1_555 1_555
C1N C1M 1_555 1_555
C1N C2N 1_555 1_555
C1L C1M 1_555 1_555
C1L C2N 1_555 1_555
C1M C2N 1_555 1_555

#END
