
#######################################################################
#
#                 Cambridge Crystallographic Data Centre
#                                CCDC 
#
#######################################################################
#
# If this CIF has been generated from an entry in the Cambridge 
# Structural Database, then it will include bibliographic, chemical, 
# crystal, experimental, refinement or atomic coordinate data resulting 
# from the CCDC's data processing and validation procedures.
#
#######################################################################

data_OQANIE
_chemical_formula_moiety         '(C27 H33 Cu2 N1 O16)n'
_symmetry_cell_setting           orthorhombic
_symmetry_space_group_name_H-M   'P 21 21 2'
_symmetry_Int_Tables_number      18
_space_group_name_Hall           'P 2 2ab'
loop_
_symmetry_equiv_pos_site_id
_symmetry_equiv_pos_as_xyz
1 x,y,z
2 -x,-y,z
3 1/2-x,1/2+y,-z
4 1/2+x,1/2-y,-z
_cell_length_a                   18.253(4)
_cell_length_b                   18.660(4)
_cell_length_c                   11.928(2)
_cell_angle_alpha                90
_cell_angle_beta                 90
_cell_angle_gamma                90
_cell_volume                     4062.69
loop_
_atom_site_label
_atom_site_type_symbol
_atom_site_fract_x
_atom_site_fract_y
_atom_site_fract_z
Cu1 Cu -0.28042(7) -0.27143(9) -0.08729(10)
Cu2 Cu -0.20852(7) -0.20240(8) 0.07113(10)
C1 C -0.5583(6) -0.2341(9) 0.1830(10)
C2 C -0.4949(6) -0.2386(8) 0.1236(9)
H1 H -0.4966 -0.2518 0.0468
C3 C -0.4267(6) -0.2240(8) 0.1740(9)
C4 C -0.4281(6) -0.2069(9) 0.2898(9)
H2 H -0.3835 -0.1958 0.3268
C5 C -0.4931(8) -0.2058(9) 0.3508(9)
C6 C -0.5573(7) -0.2162(9) 0.2994(10)
H3 H -0.6019 -0.2117 0.3399
C7 C -0.6298(7) -0.2436(9) 0.1247(10)
C8 C -0.3575(6) -0.2243(7) 0.1117(8)
C9 C -0.5473(7) -0.2059(11) 0.5331(9)
H4 H -0.5696 -0.2527 0.5142
H5 H -0.5843 -0.1679 0.5205
C10 C -0.5225(7) -0.2054(10) 0.6531(10)
H6 H -0.4954 -0.1606 0.6686
H7 H -0.5658 -0.2069 0.7031
C11 C -0.4666(8) -0.2722(11) 0.7922(12)
H8 H -0.5147 -0.2747 0.8301
H9 H -0.4400 -0.2300 0.8216
C12 C -0.4235(8) -0.3392(11) 0.8168(15)
H10 H -0.4296 -0.3519 0.8968
H11 H -0.4431 -0.3791 0.7713
C13 C -0.2983(7) 0.0791(8) -0.1516(11)
C14 C -0.2799(7) 0.0117(8) -0.1013(9)
H12 H -0.2561 0.0095 -0.0306
C15 C -0.2976(7) -0.0500(7) -0.1589(10)
C16 C -0.3320(11) -0.0502(9) -0.2617(13)
H13 H -0.3423 -0.0940 -0.2992
C17 C -0.3513(9) 0.0147(10) -0.3092(11)
C18 C -0.3320(10) 0.0794(10) -0.2543(12)
H14 H -0.3427 0.1239 -0.2894
C19 C -0.2831(7) 0.1444(8) -0.0915(10)
C20 C -0.2747(7) -0.1207(7) -0.1066(10)
C21 C -0.3900(15) -0.0363(12) -0.4826(17)
H15 H -0.4315 -0.0643 -0.4521
H16 H -0.3460 -0.0673 -0.4827
C22 C -0.4068(17) -0.013(2) -0.598(2)
H17 H -0.4187 -0.0565 -0.6425
H18 H -0.4515 0.0167 -0.5956
C23 C -0.3113(16) 0.022(4) -0.757(2)
H19 H -0.3268 0.0657 -0.7970
H20 H -0.3355 -0.0181 -0.7967
C24 C -0.2378(16) 0.014(4) -0.788(3)
H21 H -0.2206 -0.0358 -0.7859
H22 H -0.2269 0.0362 -0.8619
O1 O -0.3024(5) -0.1974(6) 0.1532(7)
O2 O -0.3630(5) -0.2559(6) 0.0141(7)
O3 O -0.6266(4) -0.2796(6) 0.0329(7)
O4 O -0.6877(4) -0.2229(6) 0.1691(6)
O5 O -0.4846(5) -0.1935(7) 0.4652(7)
O6 O -0.4770(6) -0.2646(7) 0.6758(8)
O7 O -0.3470(5) -0.3304(7) 0.7929(8)
H30 H -0.3432 -0.3096 0.7306
O8 O -0.3054(5) 0.2031(6) -0.1405(7)
O9 O -0.2489(5) 0.1450(5) -0.0021(7)
O10 O -0.2390(5) -0.1184(5) -0.0170(7)
O11 O -0.2995(5) -0.1776(5) -0.1536(7)
O12 O -0.3778(10) 0.0225(7) -0.4170(9)
O13 O -0.3508(19) 0.026(2) -0.6562(17)
O14 O -0.213(2) 0.0535(14) -0.7022(17)
H31 H -0.2184 0.0973 -0.7171
O15 O -0.1447(6) -0.1463(7) 0.1955(8)
H32 H -0.1437 -0.1023 0.1805
H33 H -0.1640 -0.1524 0.2587
Cu1_2 Cu -0.28042(7) -0.27143(9) 0.91271(10)
Cu1B Cu -0.21958(7) 0.22857(9) 0.08729(10)
Cu1C Cu -0.78042(7) -0.22857(9) 0.08729(10)
Cu2B Cu -0.29148(7) 0.29760(8) -0.07113(10)
Cu2C Cu -0.70852(7) -0.29760(8) -0.07113(10)
O3C O -0.1266(4) -0.2204(6) -0.0329(7)
O4C O -0.1877(4) -0.2771(6) -0.1691(6)
O7_2 O -0.3470(5) -0.3304(7) -0.2071(8)
H30_2 H -0.3432 -0.3096 -0.2694
O8B O -0.1946(5) -0.2969(6) 0.1405(7)
O9B O -0.2511(5) -0.3550(5) 0.0021(7)
C25 C -0.2684(14) 0.2683(17) -1.3986(11)
H23 H -0.2685 0.2439 -1.3287
C26 C -0.195(2) 0.1750(17) -1.464(2)
H24 H -0.1687 0.1616 -1.5329
H25 H -0.2317 0.1386 -1.4468
H26 H -0.1598 0.1784 -1.4020
C27 C -0.2237(15) 0.2784(16) -1.5861(14)
H27 H -0.1929 0.2519 -1.6390
H28 H -0.2025 0.3260 -1.5731
H29 H -0.2731 0.2837 -1.6173
N1 N -0.2277(9) 0.2389(11) -1.4788(10)
O16 O -0.3073(9) 0.3248(12) -1.4034(11)
loop_
_geom_bond_atom_site_label_1
_geom_bond_atom_site_label_2
_geom_bond_site_symmetry_1
_geom_bond_site_symmetry_2
Cu1 O2 1_555 1_555
Cu2 O1 1_555 1_555
C1 C2 1_555 1_555
C2 H1 1_555 1_555
C3 C2 1_555 1_555
C4 C3 1_555 1_555
H2 C4 1_555 1_555
C5 C4 1_555 1_555
C6 C1 1_555 1_555
H3 C6 1_555 1_555
C7 C1 1_555 1_555
C8 C3 1_555 1_555
C9 H4 1_555 1_555
H5 C9 1_555 1_555
C10 C9 1_555 1_555
H6 C10 1_555 1_555
H7 C10 1_555 1_555
C11 H8 1_555 1_555
H9 C11 1_555 1_555
C12 C11 1_555 1_555
H10 C12 1_555 1_555
H11 C12 1_555 1_555
C13 C14 1_555 1_555
C14 H12 1_555 1_555
C15 C14 1_555 1_555
C16 C15 1_555 1_555
H13 C16 1_555 1_555
C17 C16 1_555 1_555
C18 C13 1_555 1_555
H14 C18 1_555 1_555
C19 C13 1_555 1_555
C20 C15 1_555 1_555
C21 H15 1_555 1_555
H16 C21 1_555 1_555
C22 C21 1_555 1_555
H17 C22 1_555 1_555
H18 C22 1_555 1_555
C23 H19 1_555 1_555
H20 C23 1_555 1_555
C24 C23 1_555 1_555
H21 C24 1_555 1_555
H22 C24 1_555 1_555
C25 H23 1_555 1_555
C26 H24 1_555 1_555
H25 C26 1_555 1_555
H26 C26 1_555 1_555
C27 H27 1_555 1_555
H28 C27 1_555 1_555
H29 C27 1_555 1_555
N1 C25 1_555 1_555
O1 C8 1_555 1_555
O2 C8 1_555 1_555
O3 C7 1_555 1_555
O4 C7 1_555 1_555
O5 C5 1_555 1_555
O6 C10 1_555 1_555
O7 C12 1_555 1_555
H30 O7 1_555 1_555
O8 C19 1_555 1_555
O9 C19 1_555 1_555
O10 Cu2 1_555 1_555
O11 Cu1 1_555 1_555
O12 C17 1_555 1_555
O13 C22 1_555 1_555
O14 C24 1_555 1_555
H31 O14 1_555 1_555
O15 Cu2 1_555 1_555
H32 O15 1_555 1_555
H33 O15 1_555 1_555
O16 C25 1_555 1_555
Cu1_2 O7 1_555 1_555
Cu1B O9 1_555 1_555
Cu1C O4 1_555 1_555
Cu2B O8 1_555 1_555
Cu2C O3 1_555 1_555
O3C Cu2 1_555 1_555
O4C Cu1 1_555 1_555
O7_2 Cu1 1_555 1_555
H30_2 O7_2 1_555 1_555
O8B Cu2 1_555 1_555
O9B Cu1 1_555 1_555
C5 C6 1_555 1_555
C9 O5 1_555 1_555
C11 O6 1_555 1_555
C17 C18 1_555 1_555
C20 O10 1_555 1_555
C20 O11 1_555 1_555
C21 O12 1_555 1_555
C23 O13 1_555 1_555
C26 N1 1_555 1_555
C27 N1 1_555 1_555

#END
