
#######################################################################
#
#                 Cambridge Crystallographic Data Centre
#                                CCDC 
#
#######################################################################
#
# If this CIF has been generated from an entry in the Cambridge 
# Structural Database, then it will include bibliographic, chemical, 
# crystal, experimental, refinement or atomic coordinate data resulting 
# from the CCDC's data processing and validation procedures.
#
#######################################################################

data_HOGSIG
_chemical_formula_moiety         '(C20 H22 N6 Ni2 O9)n'
_symmetry_cell_setting           monoclinic
_symmetry_space_group_name_H-M   'C 2/c'
_symmetry_Int_Tables_number      15
_space_group_name_Hall           '-C 2yc'
loop_
_symmetry_equiv_pos_site_id
_symmetry_equiv_pos_as_xyz
1 x,y,z
2 1/2+x,1/2+y,z
3 -x,y,1/2-z
4 1/2-x,1/2+y,1/2-z
5 -x,-y,-z
6 1/2-x,1/2-y,-z
7 x,-y,1/2+z
8 1/2+x,1/2-y,1/2+z
_cell_length_a                   18.708(5)
_cell_length_b                   21.503(6)
_cell_length_c                   7.602(2)
_cell_angle_alpha                90
_cell_angle_beta                 107.636(4)
_cell_angle_gamma                90
_cell_volume                     2914.39
loop_
_atom_site_label
_atom_site_type_symbol
_atom_site_fract_x
_atom_site_fract_y
_atom_site_fract_z
Ni1 Ni -0.5000 0.08943(4) -0.7500
Ni2 Ni -0.5000 0.5000 -0.5000
O1 O -0.50105(19) 0.07983(18) -1.0222(5)
H1 H -0.5383 0.0600 -1.0796
H2 H -0.4702 0.0634 -1.0514
O2 O -0.61341(19) 0.08459(19) -0.8249(5)
O3 O -0.6021(2) -0.0201(2) -0.8293(6)
O4 O -0.52314(18) 0.41345(14) -0.6279(4)
N1 N -0.8815(2) 0.01299(18) -0.9421(5)
N2 N -0.5000 0.1845(3) -0.7500
N3 N -0.5000 0.4525(3) -0.2500
N4 N -0.5000 0.3969(3) -0.2500
N5 N -0.5000 0.3432(4) -0.2500
C1 C -0.8375(3) -0.0378(2) -0.9381(7)
H4 H -0.8599 -0.0769 -0.9572
C2 C -0.7602(3) -0.0338(2) -0.9066(7)
H5 H -0.7321 -0.0696 -0.9042
C3 C -0.7251(3) 0.0246(2) -0.8785(6)
C4 C -0.7696(3) 0.0768(2) -0.8815(7)
H6 H -0.7484 0.1163 -0.8633
C5 C -0.8467(3) 0.0688(2) -0.9125(7)
H7 H -0.8757 0.1040 -0.9126
C6 C -0.6400(3) 0.0300(3) -0.8417(7)
C7 C -0.5459(3) 0.2176(2) -0.6781(8)
H8 H -0.5784 0.1959 -0.6288
C8 C -0.5472(3) 0.2826(2) -0.6737(8)
H9 H -0.5792 0.3032 -0.6205
C9 C -0.5000 0.3162(3) -0.7500
C10 C -0.5000 0.3872(3) -0.7500
Ni2G Ni -1.0000 0.0000 -1.0000
Ni2F Ni -0.5000 0.5000 0.0000
Ni2F_2 Ni -0.5000 0.5000 -1.0000
Ni2A Ni 0.0000 0.0000 -0.5000
O1B O -0.49895(19) 0.07983(18) -0.4778(5)
H1B H -0.4617 0.0600 -0.4204
H2B H -0.5298 0.0634 -0.4486
O2B O -0.38659(19) 0.08459(19) -0.6751(5)
O3B O -0.3979(2) -0.0201(2) -0.6707(6)
O4B O -0.47686(18) 0.41345(14) -0.8721(4)
O4D O -0.47686(18) 0.58655(14) -0.3721(4)
N1B N -0.1185(2) 0.01299(18) -0.5579(5)
N1G N -0.3815(2) 0.48701(18) -0.4421(5)
N1C N -0.6185(2) 0.51299(18) -0.5579(5)
N3F N -0.5000 0.5475(3) -0.7500
C1B C -0.1625(3) -0.0378(2) -0.5619(7)
H4B H -0.1401 -0.0769 -0.5428
C2B C -0.2398(3) -0.0338(2) -0.5934(7)
H5B H -0.2679 -0.0696 -0.5958
C3B C -0.2749(3) 0.0246(2) -0.6215(6)
C4B C -0.2304(3) 0.0768(2) -0.6185(7)
H6B H -0.2516 0.1163 -0.6367
C5B C -0.1533(3) 0.0688(2) -0.5875(7)
H7B H -0.1243 0.1040 -0.5874
C6B C -0.3600(3) 0.0300(3) -0.6583(7)
C7B C -0.4541(3) 0.2176(2) -0.8219(8)
H8B H -0.4216 0.1959 -0.8712
C8B C -0.4528(3) 0.2826(2) -0.8263(8)
H9B H -0.4208 0.3032 -0.8795
O5 O -0.2972(18) 0.2165(13) -0.348(4)
H3 H -0.3001 0.1840 -0.4063
C11 C -0.3541(16) 0.2161(13) -0.247(4)
H10 H -0.3456 0.1810 -0.1627
H11 H -0.4042 0.2125 -0.3332
C12 C -0.3470(16) 0.2733(14) -0.146(4)
H12 H -0.3830 0.2741 -0.0787
H13 H -0.3558 0.3077 -0.2301
H14 H -0.2973 0.2763 -0.0607
loop_
_geom_bond_atom_site_label_1
_geom_bond_atom_site_label_2
_geom_bond_site_symmetry_1
_geom_bond_site_symmetry_2
Ni1 O1 1_555 1_555
Ni2 O4 1_555 1_555
O1 H1 1_555 1_555
H2 O1 1_555 1_555
O2 Ni1 1_555 1_555
O3 C6 1_555 1_555
O4 C10 1_555 1_555
O5 H3 1_555 1_555
N1 C1 1_555 1_555
N2 Ni1 1_555 1_555
N3 Ni2 1_555 1_555
N4 N3 1_555 1_555
N5 N4 1_555 1_555
C1 H4 1_555 1_555
C2 C1 1_555 1_555
H5 C2 1_555 1_555
C3 C2 1_555 1_555
C4 C3 1_555 1_555
H6 C4 1_555 1_555
C5 N1 1_555 1_555
H7 C5 1_555 1_555
C6 O2 1_555 1_555
C7 N2 1_555 1_555
H8 C7 1_555 1_555
C8 C7 1_555 1_555
H9 C8 1_555 1_555
C9 C8 1_555 1_555
C10 C9 1_555 1_555
C11 O5 1_555 1_555
H10 C11 1_555 1_555
H11 C11 1_555 1_555
C12 C11 1_555 1_555
H12 C12 1_555 1_555
H13 C12 1_555 1_555
H14 C12 1_555 1_555
Ni2G N1 1_555 1_555
Ni2F N3 1_555 1_555
Ni2F_2 O4B 1_555 1_555
Ni2A N1B 1_555 1_555
O1B Ni1 1_555 1_555
H1B O1B 1_555 1_555
H2B O1B 1_555 1_555
O2B Ni1 1_555 1_555
O3B C6B 1_555 1_555
O4B C10 1_555 1_555
O4D Ni2 1_555 1_555
N1B C1B 1_555 1_555
N1G Ni2 1_555 1_555
N1C Ni2 1_555 1_555
N3F Ni2 1_555 1_555
C1B H4B 1_555 1_555
C2B C1B 1_555 1_555
H5B C2B 1_555 1_555
C3B C2B 1_555 1_555
C4B C3B 1_555 1_555
H6B C4B 1_555 1_555
C5B N1B 1_555 1_555
H7B C5B 1_555 1_555
C6B O2B 1_555 1_555
C7B N2 1_555 1_555
H8B C7B 1_555 1_555
C8B C9 1_555 1_555
H9B C8B 1_555 1_555
C3 C6 1_555 1_555
C4 C5 1_555 1_555
Ni2F_2 N3F 1_555 1_555
C3B C6B 1_555 1_555
C4B C5B 1_555 1_555
C7B C8B 1_555 1_555

#END
