
#######################################################################
#
#                 Cambridge Crystallographic Data Centre
#                                CCDC 
#
#######################################################################
#
# If this CIF has been generated from an entry in the Cambridge 
# Structural Database, then it will include bibliographic, chemical, 
# crystal, experimental, refinement or atomic coordinate data resulting 
# from the CCDC's data processing and validation procedures.
#
#######################################################################

data_DAPVUM
_chemical_formula_moiety         'C48 H41 Ag1 F6 N4 O1 P3 1-'
_symmetry_cell_setting           monoclinic
_symmetry_space_group_name_H-M   'C 2/c'
_symmetry_Int_Tables_number      15
_space_group_name_Hall           '-C 2yc'
loop_
_symmetry_equiv_pos_site_id
_symmetry_equiv_pos_as_xyz
1 x,y,z
2 1/2+x,1/2+y,z
3 -x,y,1/2-z
4 1/2-x,1/2+y,1/2-z
5 -x,-y,-z
6 1/2-x,1/2-y,-z
7 x,-y,1/2+z
8 1/2+x,1/2-y,1/2+z
_cell_length_a                   27.514(9)
_cell_length_b                   14.252(4)
_cell_length_c                   24.004(7)
_cell_angle_alpha                90
_cell_angle_beta                 113.521(5)
_cell_angle_gamma                90
_cell_volume                     8630.61
loop_
_atom_site_label
_atom_site_type_symbol
_atom_site_fract_x
_atom_site_fract_y
_atom_site_fract_z
_atom_site_U_iso_or_equiv
_atom_site_thermal_displace_type
P3 P 0.01709(7) 0.72085(12) 0.40704(8) 0.0690 Uani
F1 F 0.0763(3) 0.6993(6) 0.4396(5) 0.2425 Uani
F2 F 0.0151(3) 0.7270(5) 0.4696(2) 0.1870 Uani
F3 F -0.0396(2) 0.7543(6) 0.3816(3) 0.1995 Uani
F4 F 0.0016(4) 0.6214(4) 0.4040(4) 0.2424 Uani
F5 F 0.0204(4) 0.7203(5) 0.3444(3) 0.1920 Uani
F6 F 0.0362(3) 0.8255(4) 0.4098(3) 0.1701 Uani
C41 C 0.4720(4) 0.5091(11) 0.3088(7) 0.3256 Uani
H39 H 0.4653 0.5694 0.3222 0.4890 Uiso
H40 H 0.4970 0.4752 0.3427 0.4890 Uiso
H41 H 0.4395 0.4744 0.2916 0.4890 Uiso
O1 O 0.5000 0.5255(7) 0.2500 0.1641 Uani
C41B C 0.5280(4) 0.5091(11) 0.1912(7) 0.3256 Uani
Ag1 Ag 0.250695(16) 0.78135(2) 0.219206(16) 0.0449 Uani
P1 P 0.25191(5) 0.62858(8) 0.17324(5) 0.0419 Uani
P2 P 0.24666(5) 0.93949(8) 0.17801(5) 0.0412 Uani
N1 N 0.33864(19) 0.7916(3) 0.2969(2) 0.0621 Uani
N2 N 0.42139(18) 0.8369(4) 0.3419(2) 0.0667 Uani
N3 N 0.16426(18) 0.8008(3) 0.34130(19) 0.0535 Uani
N4 N 0.19511(18) 0.7698(3) 0.27181(19) 0.0471 Uani
C1 C 0.2739(2) 0.5360(3) 0.2312(2) 0.0464 Uani
H1 H 0.2725 0.4756 0.2119 0.0550 Uiso
H2 H 0.3103 0.5475 0.2591 0.0550 Uiso
C2 C 0.2620(2) 1.0350(3) 0.2342(2) 0.0475 Uani
H3 H 0.2985 1.0287 0.2630 0.0570 Uiso
H4 H 0.2587 1.0945 0.2134 0.0570 Uiso
C3 C 0.1899(2) 0.5862(4) 0.1178(2) 0.0533 Uani
C4 C 0.1499(3) 0.6488(6) 0.0895(3) 0.0906 Uani
H5 H 0.1557 0.7122 0.0992 0.1090 Uiso
C5 C 0.1013(3) 0.6205(10) 0.0469(4) 0.1428 Uani
H6 H 0.0745 0.6638 0.0278 0.1710 Uiso
C6 C 0.0933(3) 0.5240(9) 0.0330(4) 0.1179 Uani
H7 H 0.0607 0.5029 0.0051 0.1420 Uiso
C7 C 0.1316(4) 0.4643(7) 0.0594(4) 0.1168 Uani
H8 H 0.1265 0.4010 0.0492 0.1400 Uiso
C8 C 0.1787(3) 0.4940(5) 0.1017(3) 0.0865 Uani
H9 H 0.2047 0.4494 0.1207 0.1040 Uiso
C9 C 0.2975(2) 0.6180(3) 0.1359(2) 0.0444 Uani
C10 C 0.2812(2) 0.6085(4) 0.0745(3) 0.0635 Uani
H10 H 0.2452 0.6028 0.0502 0.0760 Uiso
C11 C 0.3174(3) 0.6073(5) 0.0479(3) 0.0852 Uani
H11 H 0.3056 0.6010 0.0060 0.1020 Uiso
C12 C 0.3702(3) 0.6151(6) 0.0826(4) 0.0966 Uani
H12 H 0.3944 0.6136 0.0645 0.1160 Uiso
C13 C 0.3874(3) 0.6251(7) 0.1435(4) 0.1102 Uani
H13 H 0.4233 0.6301 0.1678 0.1320 Uiso
C14 C 0.3501(3) 0.6277(5) 0.1687(3) 0.0855 Uani
H14 H 0.3619 0.6365 0.2105 0.1030 Uiso
C15 C 0.1857(2) 0.9770(3) 0.1177(2) 0.0456 Uani
C16 C 0.1395(2) 0.9301(4) 0.1089(3) 0.0670 Uani
H15 H 0.1404 0.8804 0.1344 0.0800 Uiso
C17 C 0.0911(3) 0.9556(5) 0.0624(3) 0.0869 Uani
H16 H 0.0604 0.9220 0.0562 0.1050 Uiso
C18 C 0.0898(3) 1.0302(5) 0.0266(3) 0.0758 Uani
H17 H 0.0576 1.0488 -0.0034 0.0910 Uiso
C19 C 0.1346(3) 1.0781(4) 0.0340(2) 0.0666 Uani
H18 H 0.1329 1.1292 0.0091 0.0800 Uiso
C20 C 0.1833(2) 1.0507(4) 0.0788(2) 0.0551 Uani
H19 H 0.2141 1.0820 0.0826 0.0660 Uiso
C21 C 0.2963(2) 0.9541(3) 0.1470(2) 0.0479 Uani
C22 C 0.3331(2) 1.0279(4) 0.1621(3) 0.0607 Uani
H20 H 0.3308 1.0759 0.1871 0.0730 Uiso
C23 C 0.3725(2) 1.0304(5) 0.1406(3) 0.0746 Uani
H21 H 0.3971 1.0791 0.1523 0.0900 Uiso
C24 C 0.3762(3) 0.9628(6) 0.1024(3) 0.0848 Uani
H22 H 0.4027 0.9655 0.0876 0.1020 Uiso
C25 C 0.3392(3) 0.8884(6) 0.0856(3) 0.0921 Uani
H23 H 0.3411 0.8419 0.0594 0.1110 Uiso
C26 C 0.3003(3) 0.8847(4) 0.1081(3) 0.0689 Uani
H24 H 0.2763 0.8351 0.0971 0.0830 Uiso
C27 C 0.3758(2) 0.8465(4) 0.2942(3) 0.0690 Uani
H25 H 0.3708 0.8876 0.2623 0.0830 Uiso
C28 C 0.3629(3) 0.7469(5) 0.3506(3) 0.0876 Uani
H26 H 0.3467 0.7032 0.3664 0.1050 Uiso
C29 C 0.4135(3) 0.7741(5) 0.3780(3) 0.0856 Uani
H27 H 0.4382 0.7529 0.4151 0.1030 Uiso
C30 C 0.4696(3) 0.8887(6) 0.3539(3) 0.0969 Uani
H28 H 0.4981 0.8612 0.3886 0.1160 Uiso
H29 H 0.4649 0.9529 0.3642 0.1160 Uiso
C31 C 0.4853(3) 0.8888(5) 0.2995(3) 0.0793 Uani
C32 C 0.4926(3) 0.8074(5) 0.2730(4) 0.1030 Uani
H30 H 0.4869 0.7502 0.2881 0.1240 Uiso
C33 C 0.4917(3) 0.9704(5) 0.2741(3) 0.0921 Uani
H31 H 0.4851 1.0271 0.2889 0.1110 Uiso
C34 C 0.2050(3) 0.6983(5) 0.4701(3) 0.0702 Uani
H32 H 0.1746 0.6631 0.4500 0.0840 Uiso
C35 C 0.2530(3) 0.8408(4) 0.4827(3) 0.0677 Uani
H33 H 0.2552 0.9024 0.4712 0.0810 Uiso
C36 C 0.2077(2) 0.7898(4) 0.4523(2) 0.0568 Uani
C37 C 0.1625(2) 0.8332(5) 0.3993(3) 0.0732 Uani
H34 H 0.1290 0.8154 0.4006 0.0880 Uiso
H35 H 0.1653 0.9011 0.4018 0.0880 Uiso
C38 C 0.2076(2) 0.7936(3) 0.3290(2) 0.0464 Uani
H36 H 0.2420 0.8042 0.3571 0.0560 Uiso
C39 C 0.1219(2) 0.7785(4) 0.2886(3) 0.0625 Uani
H37 H 0.0865 0.7765 0.2831 0.0750 Uiso
C40 C 0.1410(2) 0.7605(4) 0.2468(3) 0.0594 Uani
H38 H 0.1207 0.7441 0.2067 0.0710 Uiso
C1C C 0.2261(2) 1.0360(3) 0.2688(2) 0.0464 Uani
C2C C 0.2380(2) 0.5350(3) 0.2658(2) 0.0475 Uani
C32B C 0.5074(3) 0.8074(5) 0.2270(4) 0.1030 Uani
C33B C 0.5083(3) 0.9704(5) 0.2259(3) 0.0921 Uani
C34E C 0.2950(3) 0.8017(5) 0.5299(3) 0.0702 Uani
C35E C 0.2470(3) 0.6592(4) 0.5173(3) 0.0677 Uani
loop_
_atom_site_aniso_label
_atom_site_aniso_U_11
_atom_site_aniso_U_22
_atom_site_aniso_U_33
_atom_site_aniso_U_23
_atom_site_aniso_U_13
_atom_site_aniso_U_12
P3 0.0557(10) 0.0730(11) 0.0777(12) -0.0087(9) 0.0259(9) 0.0044(8)
F1 0.096(5) 0.308(10) 0.335(11) 0.180(9) 0.098(6) 0.070(5)
F2 0.162(6) 0.325(9) 0.074(4) -0.019(5) 0.047(4) -0.021(5)
F3 0.068(3) 0.320(9) 0.175(6) 0.073(6) 0.011(4) 0.035(4)
F4 0.427(13) 0.101(4) 0.291(9) -0.070(5) 0.240(10) -0.093(6)
F5 0.296(9) 0.188(7) 0.154(6) -0.054(5) 0.155(7) -0.059(6)
F6 0.204(7) 0.113(4) 0.185(6) -0.017(4) 0.069(5) -0.035(4)
C41 0.161(12) 0.36(2) 0.36(2) 0.288(18) 0.003(12) -0.093(12)
O1 0.122(8) 0.137(8) 0.188(10) 0.000 0.014(7) 0.000
C41B 0.161 0.36 0.36 -0.288 0.003 0.093
Ag1 0.0614(3) 0.0340(2) 0.0435(2) 0.00091(16) 0.0254(2) 0.00098(18)
P1 0.0596(8) 0.0317(6) 0.0379(7) 0.0006(5) 0.0231(6) 0.0044(6)
P2 0.0597 0.0301 0.0361 0.0007 0.0215 0.001
N1 0.053(3) 0.072(3) 0.052(3) 0.014(2) 0.011(2) -0.001(3)
N2 0.048(3) 0.076(3) 0.065(3) -0.002(3) 0.011(3) -0.002(3)
N3 0.056(3) 0.065(3) 0.045(3) 0.003(2) 0.026(2) 0.012(2)
N4 0.057(3) 0.049(3) 0.043(2) 0.0001(19) 0.028(2) -0.004(2)
C1 0.069(3) 0.032(2) 0.041(3) 0.004(2) 0.025(3) 0.008(2)
C2 0.069 0.033 0.043 0 0.025 -0.004
C3 0.062(4) 0.061(3) 0.041(3) -0.003(2) 0.025(3) -0.001(3)
C4 0.071(5) 0.103(6) 0.075(5) -0.030(4) 0.005(4) 0.026(4)
C5 0.061(5) 0.256(14) 0.095(6) -0.056(8) 0.014(5) 0.039(7)
C6 0.069(6) 0.214(12) 0.074(6) -0.053(7) 0.032(5) -0.053(7)
C7 0.119(8) 0.134(8) 0.086(6) -0.013(6) 0.029(6) -0.071(7)
C8 0.105(6) 0.068(4) 0.072(4) -0.008(4) 0.020(4) -0.021(4)
C9 0.057(3) 0.040(3) 0.042(3) 0.004(2) 0.026(3) 0.008(2)
C10 0.074(4) 0.073(4) 0.052(3) -0.005(3) 0.034(3) 0.000(3)
C11 0.110(6) 0.103(5) 0.059(4) -0.007(4) 0.051(4) 0.003(5)
C12 0.100(6) 0.119(6) 0.101(6) -0.011(5) 0.072(5) 0.000(5)
C13 0.067(5) 0.184(9) 0.085(5) 0.006(6) 0.036(4) 0.016(5)
C14 0.077(5) 0.135(7) 0.053(4) -0.006(4) 0.035(4) 0.012(4)
C15 0.062 0.04 0.041 0.001 0.027 0.01
C16 0.065 0.064 0.075 0.017 0.031 0.005
C17 0.061 0.106 0.089 0.024 0.025 -0.003
C18 0.058 0.1 0.065 0.02 0.02 0.022
C19 0.086 0.071 0.047 0.018 0.031 0.024
C20 0.067 0.051 0.053 0.008 0.03 0.009
C21 0.063 0.04 0.041 0.013 0.021 0.014
C22 0.062 0.057 0.067 0.008 0.03 0.001
C23 0.067 0.082 0.085 0.019 0.041 0.003
C24 0.074 0.111 0.084 0.028 0.047 0.02
C25 0.106 0.12 0.071 -0.004 0.057 0.035
C26 0.088 0.068 0.059 -0.004 0.038 0.002
C27 0.051(4) 0.077(4) 0.063(4) 0.020(3) 0.006(3) -0.006(3)
C28 0.102(6) 0.084(5) 0.073(5) 0.027(4) 0.031(4) -0.009(4)
C29 0.061(5) 0.101(6) 0.070(4) 0.027(4) 0.000(4) 0.006(4)
C30 0.067(5) 0.106(6) 0.101(6) -0.008(5) 0.016(4) -0.019(4)
C31 0.064(4) 0.077(5) 0.096(5) -0.006(4) 0.031(4) -0.018(4)
C32 0.107(6) 0.067(4) 0.165(9) 0.011(5) 0.086(6) -0.005(4)
C33 0.078(5) 0.083(5) 0.095(6) -0.018(4) 0.013(4) -0.002(4)
C34 0.074(5) 0.079(4) 0.059(4) -0.012(3) 0.028(4) -0.024(4)
C35 0.086(5) 0.059(4) 0.063(4) 0.003(3) 0.035(4) -0.012(4)
C36 0.067(4) 0.072(4) 0.042(3) -0.003(3) 0.033(3) 0.004(3)
C37 0.073(4) 0.100(5) 0.057(4) -0.002(3) 0.037(3) 0.023(4)
C38 0.044(3) 0.052(3) 0.046(3) -0.001(2) 0.021(2) 0.001(2)
C39 0.042(3) 0.085(4) 0.057(4) 0.009(3) 0.016(3) 0.012(3)
C40 0.050(4) 0.079(4) 0.043(3) -0.001(3) 0.012(3) -0.002(3)
C1C 0.069 0.032 0.041 -0.004 0.025 -0.008
C2C 0.069 0.033 0.043 0 0.025 0.004
C32B 0.107 0.067 0.165 -0.011 0.086 0.005
C33B 0.078 0.083 0.095 0.018 0.013 0.002
C34E 0.074 0.079 0.059 -0.012 0.028 -0.024
C35E 0.086 0.059 0.063 0.003 0.035 -0.012
loop_
_geom_bond_atom_site_label_1
_geom_bond_atom_site_label_2
_geom_bond_site_symmetry_1
_geom_bond_site_symmetry_2
Ag1 P1 1_555 1_555
P1 C1 1_555 1_555
P2 Ag1 1_555 1_555
P3 F1 1_555 1_555
N1 Ag1 1_555 1_555
N2 C27 1_555 1_555
N3 C37 1_555 1_555
N4 Ag1 1_555 1_555
C1 H1 1_555 1_555
H2 C1 1_555 1_555
C2 P2 1_555 1_555
H3 C2 1_555 1_555
H4 C2 1_555 1_555
C3 P1 1_555 1_555
C4 C3 1_555 1_555
H5 C4 1_555 1_555
C5 C4 1_555 1_555
H6 C5 1_555 1_555
C6 C5 1_555 1_555
H7 C6 1_555 1_555
C7 C6 1_555 1_555
H8 C7 1_555 1_555
C8 C3 1_555 1_555
H9 C8 1_555 1_555
C9 P1 1_555 1_555
C10 C9 1_555 1_555
H10 C10 1_555 1_555
C11 C10 1_555 1_555
H11 C11 1_555 1_555
C12 C11 1_555 1_555
H12 C12 1_555 1_555
C13 C12 1_555 1_555
H13 C13 1_555 1_555
C14 C9 1_555 1_555
H14 C14 1_555 1_555
C15 P2 1_555 1_555
C16 C15 1_555 1_555
H15 C16 1_555 1_555
C17 C16 1_555 1_555
H16 C17 1_555 1_555
C18 C17 1_555 1_555
H17 C18 1_555 1_555
C19 C18 1_555 1_555
H18 C19 1_555 1_555
C20 C15 1_555 1_555
H19 C20 1_555 1_555
C21 P2 1_555 1_555
C22 C21 1_555 1_555
H20 C22 1_555 1_555
C23 C22 1_555 1_555
H21 C23 1_555 1_555
C24 C23 1_555 1_555
H22 C24 1_555 1_555
C25 C24 1_555 1_555
H23 C25 1_555 1_555
C26 C21 1_555 1_555
H24 C26 1_555 1_555
C27 N1 1_555 1_555
H25 C27 1_555 1_555
C28 N1 1_555 1_555
H26 C28 1_555 1_555
C29 N2 1_555 1_555
H27 C29 1_555 1_555
C30 N2 1_555 1_555
H28 C30 1_555 1_555
H29 C30 1_555 1_555
C31 C30 1_555 1_555
C32 C31 1_555 1_555
H30 C32 1_555 1_555
C33 C31 1_555 1_555
H31 C33 1_555 1_555
C34 H32 1_555 1_555
C35 H33 1_555 1_555
C36 C34 1_555 1_555
C37 C36 1_555 1_555
H34 C37 1_555 1_555
H35 C37 1_555 1_555
C38 N3 1_555 1_555
H36 C38 1_555 1_555
C39 N3 1_555 1_555
H37 C39 1_555 1_555
C40 N4 1_555 1_555
H38 C40 1_555 1_555
C41 H39 1_555 1_555
H40 C41 1_555 1_555
H41 C41 1_555 1_555
F2 P3 1_555 1_555
F3 P3 1_555 1_555
F4 P3 1_555 1_555
F5 P3 1_555 1_555
F6 P3 1_555 1_555
O1 C41 1_555 1_555
C1C C2 1_555 1_555
C2C C1 1_555 1_555
C32B C32 1_555 1_555
C33B C33 1_555 1_555
C34E C35 1_555 1_555
C35E C34 1_555 1_555
C41B O1 1_555 1_555
N4 C38 1_555 1_555
C7 C8 1_555 1_555
C13 C14 1_555 1_555
C19 C20 1_555 1_555
C25 C26 1_555 1_555
C28 C29 1_555 1_555
C35 C36 1_555 1_555
C39 C40 1_555 1_555

#END
