
#######################################################################
#
#                 Cambridge Crystallographic Data Centre
#                                CCDC 
#
#######################################################################
#
# If this CIF has been generated from an entry in the Cambridge 
# Structural Database, then it will include bibliographic, chemical, 
# crystal, experimental, refinement or atomic coordinate data resulting 
# from the CCDC's data processing and validation procedures.
#
#######################################################################

data_LUDVOV
_chemical_formula_moiety         '(C72 H60 I6 N12 Zn3)n'
_symmetry_cell_setting           monoclinic
_symmetry_space_group_name_H-M   'C 2/c'
_symmetry_Int_Tables_number      15
_space_group_name_Hall           '-C 2yc'
loop_
_symmetry_equiv_pos_site_id
_symmetry_equiv_pos_as_xyz
1 x,y,z
2 1/2+x,1/2+y,z
3 -x,y,1/2-z
4 1/2-x,1/2+y,1/2-z
5 -x,-y,-z
6 1/2-x,1/2-y,-z
7 x,-y,1/2+z
8 1/2+x,1/2-y,1/2+z
_cell_length_a                   35.316(3)
_cell_length_b                   14.7247(14)
_cell_length_c                   31.766(3)
_cell_angle_alpha                90
_cell_angle_beta                 101.906(2)
_cell_angle_gamma                90
_cell_volume                     16163.5
loop_
_atom_site_label
_atom_site_type_symbol
_atom_site_fract_x
_atom_site_fract_y
_atom_site_fract_z
_atom_site_U_iso_or_equiv
_atom_site_thermal_displace_type
Zn1 Zn 0.37555(2) 0.09258(6) 0.43489(3) 0.0430 Uani
Zn2 Zn 0.58601(2) -0.62020(5) 0.59489(3) 0.0379 Uani
Zn3 Zn 0.67242(3) -0.15142(5) 0.27190(3) 0.0379 Uani
I1 I 0.354920(19) 0.08869(6) 0.50682(2) 0.0800 Uani
I2 I 0.39256(2) 0.23665(4) 0.39840(3) 0.0775 Uani
I3 I 0.62456(2) -0.73534(4) 0.56265(2) 0.0678 Uani
I4 I 0.52541(7) -0.64943(18) 0.6247(2) 0.0552 Uani
I5 I 0.628254(18) -0.16665(4) 0.197739(17) 0.0540 Uani
I6 I 0.734225(17) -0.24317(4) 0.293355(19) 0.0515 Uani
N1 N 0.57850(16) -0.2764(4) 0.43848(18) 0.0358 Uani
N2 N 0.52751(16) -0.2273(4) 0.47087(18) 0.0367 Uani
N3 N 0.54096(17) -0.1489(4) 0.41077(19) 0.0377 Uani
C1 C 0.55592(19) -0.2837(5) 0.4678(2) 0.0340 Uani
C2 C 0.5208(2) -0.1630(5) 0.4410(2) 0.0356 Uani
C3 C 0.57035(19) -0.2060(5) 0.4116(2) 0.0326 Uani
N4 N 0.57445(17) -0.5131(4) 0.55104(18) 0.0368 Uani
C4 C 0.6008(2) -0.4874(5) 0.5293(3) 0.0479 Uani
H1 H 0.6239 -0.5221 0.5324 0.0570 Uiso
C5 C 0.5966(2) -0.4128(6) 0.5023(3) 0.0485 Uani
H2 H 0.6166 -0.3956 0.4880 0.0580 Uiso
C6 C 0.56255(19) -0.3638(5) 0.4966(2) 0.0330 Uani
C7 C 0.5344(2) -0.3904(5) 0.5192(2) 0.0416 Uani
H3 H 0.5109 -0.3573 0.5165 0.0500 Uiso
C8 C 0.5413(2) -0.4651(5) 0.5454(2) 0.0398 Uani
H4 H 0.5219 -0.4839 0.5603 0.0480 Uiso
N5 N 0.42202(17) 0.0067(4) 0.43839(19) 0.0394 Uani
C9 C 0.4388(3) -0.0025(8) 0.4047(3) 0.0811 Uani
H5 H 0.4273 0.0280 0.3788 0.0970 Uiso
C10 C 0.4715(3) -0.0529(8) 0.4047(3) 0.0817 Uani
H6 H 0.4833 -0.0535 0.3804 0.0980 Uiso
C11 C 0.4867(2) -0.1025(5) 0.4409(2) 0.0380 Uani
C12 C 0.4694(2) -0.0964(6) 0.4753(3) 0.0528 Uani
H7 H 0.4791 -0.1299 0.5007 0.0640 Uiso
C13 C 0.4377(2) -0.0416(6) 0.4728(3) 0.0522 Uani
H8 H 0.4263 -0.0380 0.4973 0.0630 Uiso
N6 N 0.64059(17) -0.1700(4) 0.31857(19) 0.0390 Uani
C14 C 0.6529(2) -0.2165(5) 0.3549(2) 0.0443 Uani
H9 H 0.6780 -0.2425 0.3596 0.0530 Uiso
C15 C 0.6317(2) -0.2290(5) 0.3855(2) 0.0430 Uani
H10 H 0.6422 -0.2620 0.4109 0.0510 Uiso
C16 C 0.5946(2) -0.1931(5) 0.3795(2) 0.0352 Uani
C17 C 0.5815(3) -0.1449(7) 0.3420(3) 0.0617 Uani
H11 H 0.5565 -0.1182 0.3366 0.0740 Uiso
C18 C 0.6049(2) -0.1359(7) 0.3127(3) 0.0570 Uani
H12 H 0.5952 -0.1036 0.2868 0.0680 Uiso
N7 N 0.22085(16) -0.0529(4) 0.27377(18) 0.0337 Uani
N8 N 0.23431(16) -0.1928(4) 0.31170(17) 0.0308 Uani
N9 N 0.18096(16) -0.1806(4) 0.25253(18) 0.0320 Uani
C19 C 0.19111(19) -0.0938(5) 0.2487(2) 0.0338 Uani
C20 C 0.24063(18) -0.1048(5) 0.3058(2) 0.0311 Uani
C21 C 0.20419(19) -0.2276(4) 0.2838(2) 0.0313 Uani
N10 N 0.12291(17) 0.0526(4) 0.14435(18) 0.0381 Uani
C22 C 0.1140(2) -0.0316(5) 0.1535(3) 0.0534 Uani
H13 H 0.0919 -0.0592 0.1361 0.0640 Uiso
C23 C 0.1350(2) -0.0807(5) 0.1867(3) 0.0484 Uani
H14 H 0.1276 -0.1410 0.1920 0.0580 Uiso
C24 C 0.1675(2) -0.0410(4) 0.2129(2) 0.0337 Uani
C25 C 0.1761(2) 0.0475(5) 0.2044(2) 0.0384 Uani
H15 H 0.1972 0.0778 0.2223 0.0460 Uiso
C26 C 0.1537(2) 0.0922(4) 0.1694(2) 0.0354 Uani
H16 H 0.1603 0.1524 0.1630 0.0420 Uiso
N11 N 0.33301(17) 0.0275(4) 0.39121(18) 0.0370 Uani
C27 C 0.3156(2) 0.0659(5) 0.3535(2) 0.0424 Uani
H17 H 0.3243 0.1238 0.3463 0.0510 Uiso
C28 C 0.2860(2) 0.0249(5) 0.3253(2) 0.0423 Uani
H18 H 0.2743 0.0543 0.2993 0.0510 Uiso
C29 C 0.27344(18) -0.0596(4) 0.3351(2) 0.0303 Uani
C30 C 0.2912(2) -0.1006(5) 0.3736(2) 0.0470 Uani
H19 H 0.2836 -0.1594 0.3809 0.0560 Uiso
C31 C 0.3202(2) -0.0540(5) 0.4008(3) 0.0448 Uani
H20 H 0.3315 -0.0809 0.4276 0.0540 Uiso
N12 N 0.18407(17) -0.5129(4) 0.27957(18) 0.0377 Uani
C32 C 0.2153(2) -0.4782(5) 0.3054(2) 0.0402 Uani
H21 H 0.2334 -0.5185 0.3222 0.0480 Uiso
C33 C 0.2224(2) -0.3870(5) 0.3087(2) 0.0410 Uani
H22 H 0.2448 -0.3650 0.3278 0.0490 Uiso
C34 C 0.1970(2) -0.3267(4) 0.2843(2) 0.0331 Uani
C35 C 0.1642(2) -0.3630(5) 0.2577(3) 0.0467 Uani
H23 H 0.1458 -0.3243 0.2402 0.0560 Uiso
C36 C 0.1585(2) -0.4554(5) 0.2569(3) 0.0464 Uani
H24 H 0.1355 -0.4793 0.2395 0.0550 Uiso
Zn2G Zn 0.08601(2) 0.12020(5) 0.09489(3) 0.0379 Uani
N10G N 0.62291(17) -0.5526(4) 0.64435(18) 0.0381 Uani
N12A N 0.68407(17) -0.0129(4) 0.27957(18) 0.0377 Uani
Zn3A Zn 0.17242(3) -0.65142(5) 0.27190(3) 0.0379 Uani
C37 C 0.2741(3) 1.5976(8) 0.0494(3) 0.1320 Uiso
H25 H 0.2550 1.6266 0.0282 0.1580 Uiso
C38 C 0.3045(3) 1.5513(8) 0.0373(3) 0.1340 Uiso
H26 H 0.3061 1.5488 0.0078 0.1610 Uiso
C39 C 0.3324(3) 1.5088(8) 0.0682(4) 0.1450 Uiso
H27 H 0.3532 1.4772 0.0599 0.1740 Uiso
C40 C 0.3300(3) 1.5125(8) 0.1113(4) 0.1760 Uiso
H28 H 0.3491 1.4834 0.1325 0.2110 Uiso
C41 C 0.2996(3) 1.5587(8) 0.1234(2) 0.1170 Uiso
H29 H 0.2980 1.5613 0.1529 0.1410 Uiso
C42 C 0.2717(3) 1.6013(7) 0.0925(3) 0.1050 Uiso
H30 H 0.2510 1.6329 0.1008 0.1260 Uiso
C43 C 0.7428(3) -0.1179(8) 0.4268(4) 0.1360 Uiso
H31 H 0.7263 -0.1653 0.4326 0.1630 Uiso
C44 C 0.7768(4) -0.1388(6) 0.4133(4) 0.1600 Uiso
H32 H 0.7835 -0.2004 0.4097 0.1920 Uiso
C45 C 0.8009(2) -0.0695(7) 0.4049(3) 0.1060 Uiso
H33 H 0.8241 -0.0838 0.3956 0.1280 Uiso
C46 C 0.7911(3) 0.0206(6) 0.4101(3) 0.1020 Uiso
H34 H 0.8076 0.0680 0.4043 0.1230 Uiso
C47 C 0.7572(3) 0.0415(6) 0.4237(3) 0.1210 Uiso
H35 H 0.7505 0.1031 0.4272 0.1460 Uiso
C48 C 0.7330(2) -0.0278(9) 0.4321(3) 0.1450 Uiso
H36 H 0.7098 -0.0136 0.4414 0.1740 Uiso
C49 C 0.3666(7) 1.0938(11) 0.1307(7) 0.2060 Uiso
H37 H 0.3625 1.0342 0.1192 0.2480 Uiso
C50 C 0.3406(5) 1.1626(17) 0.1149(5) 0.2410 Uiso
H38 H 0.3187 1.1500 0.0927 0.2890 Uiso
C51 C 0.3465(6) 1.2498(14) 0.1317(7) 0.2070 Uiso
H39 H 0.3287 1.2969 0.1209 0.2490 Uiso
C52 C 0.3784(7) 1.2683(12) 0.1642(7) 0.2580 Uiso
H40 H 0.3825 1.3279 0.1757 0.3100 Uiso
C53 C 0.4044(5) 1.1995(19) 0.1799(5) 0.3300 Uiso
H41 H 0.4263 1.2121 0.2022 0.3910 Uiso
C54 C 0.3985(6) 1.1122(16) 0.1632(7) 0.2620 Uiso
H42 H 0.4163 1.0652 0.1739 0.3140 Uiso
C55 C 0.7514(8) 0.8304(17) 0.0222(8) 0.1750 Uiso
H43 H 0.7528 0.8835 0.0394 0.2100 Uiso
C56 C 0.7178(8) 0.7929(19) 0.0053(8) 0.1790 Uiso
H44 H 0.6945 0.8240 0.0066 0.2150 Uiso
C57 C 0.7839(7) 0.7910(19) 0.0144(8) 0.1780 Uiso
H45 H 0.8080 0.8213 0.0224 0.2140 Uiso
C57E C 0.7161(7) 0.7090(19) -0.0144(8) 0.1780 Uiso
C55E C 0.7486(8) 0.6696(17) -0.0222(8) 0.1750 Uiso
H43E H 0.7472 0.6165 -0.0394 0.2100 Uiso
C56E C 0.7822(8) 0.7071(19) -0.0053(8) 0.1790 Uiso
H44E H 0.8055 0.6760 -0.0066 0.2150 Uiso
H45E H 0.6920 0.6787 -0.0224 0.2140 Uiso
C58 C 0.4546(7) -0.3754(10) 0.5840(6) 0.2260 Uiso
H46 H 0.4532 -0.4398 0.5849 0.2710 Uiso
C59 C 0.4242(5) -0.3261(15) 0.5598(5) 0.1890 Uiso
H47 H 0.4020 -0.3567 0.5442 0.2270 Uiso
C60 C 0.4263(5) -0.2319(15) 0.5584(5) 0.1980 Uiso
H48 H 0.4055 -0.1982 0.5418 0.2380 Uiso
C61 C 0.4587(7) -0.1871(11) 0.5812(7) 0.2930 Uiso
H49 H 0.4601 -0.1227 0.5802 0.3510 Uiso
C62 C 0.4891(5) -0.2364(18) 0.6054(6) 0.2510 Uiso
H50 H 0.5113 -0.2058 0.6210 0.3010 Uiso
C63 C 0.4871(5) -0.3306(18) 0.6068(6) 0.2530 Uiso
H51 H 0.5079 -0.3643 0.6234 0.3040 Uiso
C64 C 0.5000 -0.190(2) 0.2500 0.1620 Uiso
H52 H 0.5000 -0.2544 0.2500 0.1950 Uiso
C65 C 0.5199(5) -0.1449(14) 0.2238(6) 0.1400 Uiso
H53 H 0.5334 -0.1779 0.2058 0.1680 Uiso
C66 C 0.5202(5) -0.0601(14) 0.2236(6) 0.1340 Uiso
H54 H 0.5342 -0.0286 0.2056 0.1610 Uiso
C67 C 0.5000 -0.011(2) 0.2500 0.1510 Uiso
H55 H 0.5000 0.0537 0.2500 0.1820 Uiso
C66B C 0.4798(5) -0.0601(14) 0.2764(6) 0.1340 Uiso
C65B C 0.4801(5) -0.1449(14) 0.2762(6) 0.1400 Uiso
H53B H 0.4666 -0.1779 0.2942 0.1680 Uiso
H54B H 0.4658 -0.0286 0.2944 0.1610 Uiso
loop_
_atom_site_aniso_label
_atom_site_aniso_U_11
_atom_site_aniso_U_22
_atom_site_aniso_U_33
_atom_site_aniso_U_23
_atom_site_aniso_U_13
_atom_site_aniso_U_12
Zn1 0.0368(5) 0.0345(5) 0.0517(5) -0.0116(4) -0.0048(4) 0.0048(4)
Zn2 0.0484 0.0252 0.0349 0.0012 -0.0035 -0.002
Zn3 0.0491(5) 0.0239(4) 0.0427(5) 0.0021(3) 0.0143(4) -0.0022(3)
I1 0.0573(4) 0.1174(6) 0.0667(4) -0.0476(4) 0.0160(3) -0.0129(4)
I2 0.0769(4) 0.0366(3) 0.1017(5) 0.0065(3) -0.0220(4) -0.0120(3)
I3 0.0943 0.043 0.0612 -0.0057 0.005 0.025
I4 0.0533 0.0561 0.0547 0.0063 0.0074 -0.0154
I5 0.0722(4) 0.0422(3) 0.0455(3) -0.0075(2) 0.0072(3) -0.0095(3)
I6 0.0592(3) 0.0378(3) 0.0633(3) 0.0116(2) 0.0264(3) 0.0120(2)
N1 0.035(3) 0.033(3) 0.038(3) 0.005(3) 0.004(3) -0.001(3)
N2 0.035(3) 0.034(3) 0.037(3) 0.006(3) -0.002(2) 0.003(3)
N3 0.036(3) 0.038(3) 0.038(3) 0.005(3) 0.005(3) 0.002(3)
C1 0.033(4) 0.035(4) 0.032(3) 0.003(3) 0.002(3) -0.004(3)
C2 0.035(4) 0.034(4) 0.035(4) 0.003(3) 0.001(3) -0.003(3)
C3 0.036(4) 0.028(4) 0.032(3) 0.000(3) 0.003(3) -0.002(3)
N4 0.044(3) 0.028(3) 0.035(3) 0.004(2) 0.000(3) 0.003(3)
C4 0.046(4) 0.041(4) 0.056(5) 0.015(4) 0.009(4) 0.016(4)
C5 0.043(4) 0.048(5) 0.056(5) 0.021(4) 0.014(4) 0.013(4)
C6 0.037(4) 0.030(4) 0.029(3) -0.003(3) 0.000(3) -0.004(3)
C7 0.033(4) 0.041(4) 0.048(4) 0.009(3) 0.002(3) -0.002(3)
C8 0.044(4) 0.041(4) 0.036(4) 0.007(3) 0.012(3) 0.000(3)
N5 0.040(3) 0.037(3) 0.041(3) -0.001(3) 0.008(3) 0.011(3)
C9 0.089(7) 0.108(9) 0.050(5) 0.035(6) 0.023(5) 0.060(7)
C10 0.097(8) 0.098(8) 0.059(6) 0.035(6) 0.037(6) 0.057(7)
C11 0.040(4) 0.035(4) 0.037(4) 0.003(3) 0.003(3) 0.006(3)
C12 0.053(5) 0.063(6) 0.042(4) 0.019(4) 0.009(4) 0.019(4)
C13 0.041(4) 0.070(6) 0.048(5) 0.022(4) 0.015(4) 0.015(4)
N6 0.045(4) 0.030(3) 0.044(3) 0.004(3) 0.014(3) 0.004(3)
C14 0.043(4) 0.041(4) 0.049(4) 0.007(3) 0.010(3) 0.009(3)
C15 0.043(4) 0.045(4) 0.042(4) 0.013(3) 0.011(3) 0.008(3)
C16 0.042(4) 0.028(4) 0.034(3) 0.004(3) 0.004(3) 0.004(3)
C17 0.047(5) 0.075(7) 0.061(5) 0.028(5) 0.006(4) 0.012(4)
C18 0.050(5) 0.072(6) 0.053(5) 0.032(4) 0.020(4) 0.016(4)
N7 0.034 0.026 0.037 -0.004 -0.002 0.002
N8 0.039 0.021 0.031 -0.001 0.004 0
N9 0.035 0.022 0.038 -0.001 0.005 0.001
C19 0.035 0.027 0.037 -0.004 0.002 -0.001
C20 0.029 0.031 0.032 -0.004 0.003 0.003
C21 0.035 0.026 0.032 0.001 0.005 0.006
N10 0.048 0.022 0.04 -0.001 -0.001 0.004
C22 0.055 0.029 0.064 0.002 -0.016 -0.009
C23 0.054 0.025 0.057 0.006 -0.01 -0.008
C24 0.041 0.023 0.035 -0.003 0.003 0.004
C25 0.036 0.031 0.042 -0.003 -0.006 -0.003
C26 0.048 0.019 0.036 -0.004 0.001 0
N11 0.042 0.031 0.035 -0.005 0.001 0.004
C27 0.047 0.03 0.046 -0.002 0 0.004
C28 0.044 0.034 0.042 0 -0.007 0
C29 0.03 0.021 0.037 -0.002 0 0.004
C30 0.064 0.025 0.043 0.002 -0.01 0.003
C31 0.051 0.026 0.05 0.003 -0.007 0.003
N12 0.043 0.03 0.039 0.003 0.006 -0.001
C32 0.042 0.03 0.046 0.001 0.003 0.001
C33 0.04 0.03 0.049 0.001 0 -0.001
C34 0.042 0.02 0.038 0.001 0.01 0.001
C35 0.045 0.029 0.056 0.004 -0.013 0.002
C36 0.044 0.03 0.056 0.005 -0.011 -0.008
Zn2G 0.0484 0.0252 0.0349 -0.0012 -0.0035 0.002
N10G 0.048 0.022 0.04 0.001 -0.001 -0.004
N12A 0.043(3) 0.030(3) 0.039(3) 0.003(3) 0.006(3) -0.001(3)
Zn3A 0.0491 0.0239 0.0427 0.0021 0.0143 -0.0022
loop_
_geom_bond_atom_site_label_1
_geom_bond_atom_site_label_2
_geom_bond_site_symmetry_1
_geom_bond_site_symmetry_2
Zn1 I1 1_555 1_555
Zn2 I3 1_555 1_555
Zn3 I5 1_555 1_555
I2 Zn1 1_555 1_555
I4 Zn2 1_555 1_555
I6 Zn3 1_555 1_555
N1 C1 1_555 1_555
N2 C1 1_555 1_555
N3 C2 1_555 1_555
C1 C6 1_555 1_555
C2 N2 1_555 1_555
C3 N1 1_555 1_555
N4 Zn2 1_555 1_555
C4 N4 1_555 1_555
H1 C4 1_555 1_555
C5 C4 1_555 1_555
H2 C5 1_555 1_555
C6 C5 1_555 1_555
C7 C6 1_555 1_555
H3 C7 1_555 1_555
C8 N4 1_555 1_555
H4 C8 1_555 1_555
N5 Zn1 1_555 1_555
C9 N5 1_555 1_555
H5 C9 1_555 1_555
C10 C9 1_555 1_555
H6 C10 1_555 1_555
C11 C2 1_555 1_555
C12 C11 1_555 1_555
H7 C12 1_555 1_555
C13 N5 1_555 1_555
H8 C13 1_555 1_555
N6 Zn3 1_555 1_555
C14 N6 1_555 1_555
H9 C14 1_555 1_555
C15 C14 1_555 1_555
H10 C15 1_555 1_555
C16 C3 1_555 1_555
C17 C16 1_555 1_555
H11 C17 1_555 1_555
C18 N6 1_555 1_555
H12 C18 1_555 1_555
N7 C19 1_555 1_555
N8 C20 1_555 1_555
N9 C19 1_555 1_555
C19 C24 1_555 1_555
C20 N7 1_555 1_555
C21 N8 1_555 1_555
N10 C22 1_555 1_555
C22 H13 1_555 1_555
C23 C22 1_555 1_555
H14 C23 1_555 1_555
C24 C23 1_555 1_555
C25 C24 1_555 1_555
H15 C25 1_555 1_555
C26 N10 1_555 1_555
H16 C26 1_555 1_555
N11 Zn1 1_555 1_555
C27 N11 1_555 1_555
H17 C27 1_555 1_555
C28 C27 1_555 1_555
H18 C28 1_555 1_555
C29 C20 1_555 1_555
C30 C29 1_555 1_555
H19 C30 1_555 1_555
C31 N11 1_555 1_555
H20 C31 1_555 1_555
N12 C32 1_555 1_555
C32 H21 1_555 1_555
C33 C32 1_555 1_555
H22 C33 1_555 1_555
C34 C21 1_555 1_555
C35 C34 1_555 1_555
H23 C35 1_555 1_555
C36 N12 1_555 1_555
H24 C36 1_555 1_555
C37 H25 1_555 1_555
C38 C37 1_555 1_555
H26 C38 1_555 1_555
C39 C38 1_555 1_555
H27 C39 1_555 1_555
C40 C39 1_555 1_555
H28 C40 1_555 1_555
C41 C40 1_555 1_555
H29 C41 1_555 1_555
C42 C37 1_555 1_555
H30 C42 1_555 1_555
C43 H31 1_555 1_555
C44 C43 1_555 1_555
H32 C44 1_555 1_555
C45 C44 1_555 1_555
H33 C45 1_555 1_555
C46 C45 1_555 1_555
H34 C46 1_555 1_555
C47 C46 1_555 1_555
H35 C47 1_555 1_555
C48 C43 1_555 1_555
H36 C48 1_555 1_555
C49 H37 1_555 1_555
C50 C49 1_555 1_555
H38 C50 1_555 1_555
C51 C50 1_555 1_555
H39 C51 1_555 1_555
C52 C51 1_555 1_555
H40 C52 1_555 1_555
C53 C52 1_555 1_555
H41 C53 1_555 1_555
C54 C49 1_555 1_555
H42 C54 1_555 1_555
C55 H43 1_555 1_555
C56 C55 1_555 1_555
H44 C56 1_555 1_555
C57 C55 1_555 1_555
H45 C57 1_555 1_555
C58 H46 1_555 1_555
C59 C58 1_555 1_555
H47 C59 1_555 1_555
C60 C59 1_555 1_555
H48 C60 1_555 1_555
C61 C60 1_555 1_555
H49 C61 1_555 1_555
C62 C61 1_555 1_555
H50 C62 1_555 1_555
C63 C58 1_555 1_555
H51 C63 1_555 1_555
C64 H52 1_555 1_555
C65 C64 1_555 1_555
H53 C65 1_555 1_555
C66 C65 1_555 1_555
H54 C66 1_555 1_555
C67 C66 1_555 1_555
H55 C67 1_555 1_555
Zn2G N10 1_555 1_555
N10G Zn2 1_555 1_555
N12A Zn3 1_555 1_555
Zn3A N12 1_555 1_555
C57E C56 1_555 1_555
C55E C57E 1_555 1_555
H43E C55E 1_555 1_555
C56E C57 1_555 1_555
H44E C56E 1_555 1_555
H45E C57E 1_555 1_555
C66B C67 1_555 1_555
C65B C64 1_555 1_555
H53B C65B 1_555 1_555
H54B C66B 1_555 1_555
N3 C3 1_555 1_555
C7 C8 1_555 1_555
C10 C11 1_555 1_555
C12 C13 1_555 1_555
C15 C16 1_555 1_555
C17 C18 1_555 1_555
N9 C21 1_555 1_555
C25 C26 1_555 1_555
C28 C29 1_555 1_555
C30 C31 1_555 1_555
C33 C34 1_555 1_555
C35 C36 1_555 1_555
C41 C42 1_555 1_555
C47 C48 1_555 1_555
C53 C54 1_555 1_555
C62 C63 1_555 1_555
C55E C56E 1_555 1_555
C66B C65B 1_555 1_555

#END
