
#######################################################################
#
#                 Cambridge Crystallographic Data Centre
#                                CCDC 
#
#######################################################################
#
# If this CIF has been generated from an entry in the Cambridge 
# Structural Database, then it will include bibliographic, chemical, 
# crystal, experimental, refinement or atomic coordinate data resulting 
# from the CCDC's data processing and validation procedures.
#
#######################################################################

data_LUDVIP
_chemical_formula_moiety         '(C50 H34 I6 N14 Zn3)n'
_symmetry_cell_setting           monoclinic
_symmetry_space_group_name_H-M   'C 2/c'
_symmetry_Int_Tables_number      15
_space_group_name_Hall           '-C 2yc'
loop_
_symmetry_equiv_pos_site_id
_symmetry_equiv_pos_as_xyz
1 x,y,z
2 1/2+x,1/2+y,z
3 x,-y,1/2+z
4 1/2+x,1/2-y,1/2+z
5 -x,-y,-z
6 1/2-x,1/2-y,-z
7 -x,y,1/2-z
8 1/2-x,1/2+y,1/2-z
_cell_length_a                   27.482(8)
_cell_length_b                   15.096(4)
_cell_length_c                   31.846(9)
_cell_angle_alpha                90
_cell_angle_beta                 94.143(6)
_cell_angle_gamma                90
_cell_volume                     13177.4
loop_
_atom_site_label
_atom_site_type_symbol
_atom_site_fract_x
_atom_site_fract_y
_atom_site_fract_z
_atom_site_U_iso_or_equiv
_atom_site_thermal_displace_type
I1 I -0.3272(3) 1.7004(7) -0.2673(2) 0.0143 Uani
I3 I -0.21647(3) 1.71353(4) -0.15992(2) 0.0560 Uani
I5 I -0.5072(9) 2.1677(16) 0.1525(3) 0.1111 Uani
I6 I -0.3635(3) 2.2201(4) 0.08345(16) 0.0706 Uani
I8 I -0.74031(3) 1.48118(7) 0.05292(2) 0.0783 Uani
I9 I -0.67451(3) 1.25164(4) -0.01891(3) 0.0811 Uani
Zn1 Zn -0.29310(4) 1.64545(6) -0.19575(3) 0.0342 Uani
Zn2 Zn -0.42823(5) 2.11745(6) 0.11647(3) 0.0487 Uani
Zn3 Zn -0.68991(4) 1.41135(6) -0.00221(3) 0.0401 Uani
C1 C -0.4447(3) 1.7040(5) -0.0575(2) 0.0312 Uani
C2 C -0.4718(3) 1.7949(5) -0.0076(2) 0.0294 Uani
C3 C -0.5081(3) 1.6613(5) -0.0203(2) 0.0339 Uani
N1 N -0.4418(3) 1.7841(4) -0.0376(2) 0.0349 Uani
N2 N -0.5063(3) 1.7373(4) 0.0028(2) 0.0335 Uani
N3 N -0.4770(3) 1.6413(4) -0.04937(19) 0.0343 Uani
N4 N -0.6235(3) 1.4809(4) -0.0002(2) 0.0360 Uani
C4 C -0.6140(4) 1.5524(6) 0.0261(3) 0.0428 Uani
H1 H -0.6341 1.5621 0.0487 0.0510 Uiso
C5 C -0.5768(4) 1.6094(6) 0.0206(3) 0.0428 Uani
H2 H -0.5716 1.6582 0.0392 0.0510 Uiso
C6 C -0.5464(3) 1.5973(5) -0.0116(2) 0.0318 Uani
C7 C -0.5547(3) 1.5219(5) -0.0375(3) 0.0358 Uani
H3 H -0.5340 1.5089 -0.0594 0.0430 Uiso
C8 C -0.5937(4) 1.4676(5) -0.0302(3) 0.0393 Uani
H4 H -0.5994 1.4175 -0.0480 0.0470 Uiso
N5 N -0.4482(3) 2.0221(4) 0.0716(2) 0.0376 Uani
C9 C -0.4148(4) 1.9953(6) 0.0463(3) 0.0511 Uani
H5 H -0.3845 2.0257 0.0471 0.0610 Uiso
C10 C -0.4225(4) 1.9241(6) 0.0184(3) 0.0491 Uani
H6 H -0.3986 1.9083 -0.0004 0.0590 Uiso
C11 C -0.4659(3) 1.8769(5) 0.0190(2) 0.0328 Uani
C12 C -0.4999(3) 1.9048(6) 0.0447(3) 0.0411 Uani
H7 H -0.5300 1.8742 0.0454 0.0490 Uiso
C13 C -0.4902(4) 1.9794(6) 0.0704(3) 0.0423 Uani
H8 H -0.5147 1.9998 0.0875 0.0510 Uiso
N6 N -0.3439(3) 1.6571(4) -0.1504(2) 0.0329 Uani
C14 C -0.3467(4) 1.7354(6) -0.1308(3) 0.0563 Uani
H9 H -0.3261 1.7821 -0.1389 0.0670 Uiso
C15 C -0.3777(4) 1.7517(6) -0.0999(3) 0.0488 Uani
H10 H -0.3767 1.8068 -0.0855 0.0590 Uiso
C16 C -0.4102(3) 1.6872(5) -0.0901(3) 0.0331 Uani
C17 C -0.4074(3) 1.6061(5) -0.1097(2) 0.0352 Uani
H11 H -0.4280 1.5588 -0.1024 0.0420 Uiso
C18 C -0.3743(3) 1.5937(5) -0.1402(2) 0.0355 Uani
H12 H -0.3734 1.5381 -0.1541 0.0430 Uiso
N7 N -0.3015(3) 1.0508(4) -0.20090(19) 0.0306 Uani
N8 N -0.3272(3) 1.1875(4) -0.2328(2) 0.0328 Uani
N9 N -0.2788(3) 1.1864(4) -0.16735(19) 0.0309 Uani
C19 C -0.2799(3) 1.0981(5) -0.1691(2) 0.0303 Uani
C20 C -0.3247(3) 1.0977(5) -0.2317(2) 0.0305 Uani
C21 C -0.3011(3) 1.2273(5) -0.2005(2) 0.0281 Uani
N10 N -0.2174(3) 0.9676(4) -0.0596(2) 0.0344 Uani
C22 C -0.2393(3) 0.9215(5) -0.0900(3) 0.0413 Uani
H13 H -0.2411 0.8590 -0.0869 0.0490 Uiso
C23 C -0.2599(3) 0.9592(5) -0.1264(2) 0.0388 Uani
H14 H -0.2754 0.9231 -0.1478 0.0460 Uiso
C24 C -0.2578(3) 1.0512(5) -0.1318(2) 0.0310 Uani
C25 C -0.2328(4) 1.0996(5) -0.1001(3) 0.0478 Uani
H15 H -0.2283 1.1616 -0.1030 0.0570 Uiso
C26 C -0.2144(4) 1.0559(6) -0.0642(3) 0.0548 Uani
H16 H -0.1991 1.0897 -0.0418 0.0660 Uiso
N11 N -0.3928(3) 0.9602(4) -0.3374(2) 0.0412 Uani
C27 C -0.4050(4) 1.0441(5) -0.3293(3) 0.0457 Uani
H17 H -0.4294 1.0723 -0.3473 0.0550 Uiso
C28 C -0.3834(4) 1.0917(5) -0.2953(3) 0.0436 Uani
H18 H -0.3920 1.1519 -0.2910 0.0520 Uiso
C29 C -0.3493(3) 1.0500(5) -0.2680(2) 0.0310 Uani
C30 C -0.3373(4) 0.9632(5) -0.2760(3) 0.0416 Uani
H19 H -0.3147 0.9323 -0.2573 0.0500 Uiso
C31 C -0.3586(4) 0.9217(5) -0.3115(3) 0.0488 Uani
H20 H -0.3485 0.8633 -0.3177 0.0590 Uiso
N12 N -0.2905(3) 1.5094(4) -0.20206(19) 0.0331 Uani
C32 C -0.3134(4) 1.4652(5) -0.2343(3) 0.0413 Uani
H21 H -0.3277 1.4979 -0.2575 0.0500 Uiso
C33 C -0.3170(3) 1.3750(5) -0.2351(3) 0.0378 Uani
H22 H -0.3339 1.3461 -0.2583 0.0450 Uiso
C34 C -0.2960(3) 1.3258(5) -0.2019(2) 0.0336 Uani
C35 C -0.2720(3) 1.3707(5) -0.1687(3) 0.0386 Uani
H23 H -0.2575 1.3390 -0.1453 0.0460 Uiso
C36 C -0.2692(4) 1.4607(5) -0.1699(3) 0.0419 Uani
H24 H -0.2517 1.4906 -0.1473 0.0510 Uiso
N11B N -0.3928(3) 2.0398(4) 0.1626(2) 0.0412 Uani
N10A N -0.7174(3) 1.4676(4) -0.0596(2) 0.0344 Uani
Zn3A Zn -0.18991(4) 0.91135(6) -0.00221(3) 0.0401 Uani
Zn2B Zn -0.42823(5) 0.88255(6) -0.38353(3) 0.0487 Uani
N13 N -0.4813(7) 1.7861(9) 0.1334(5) 0.1427 Uani
C37 C -0.4478(5) 1.6257(7) 0.1411(3) 0.0658 Uani
C38 C -0.3970(5) 1.6087(14) 0.1434(4) 0.0970 Uani
C39 C -0.3802(6) 1.5222(19) 0.1483(4) 0.1150 Uani
C40 C -0.4131(6) 1.4528(12) 0.1508(4) 0.0921 Uani
C41 C -0.4630(6) 1.4682(8) 0.1488(3) 0.0750 Uani
C42 C -0.4815(4) 1.5552(7) 0.1432(3) 0.0533 Uani
C43 C -0.4687(7) 1.7135(12) 0.1369(5) 0.1073 Uani
N15 N -0.6068(5) 1.3608(9) -0.3680(5) 0.1037 Uani
C48 C -0.6294(9) 1.2020(15) -0.4079(10) 0.1671 Uani
C49 C -0.6063(11) 1.134(2) -0.3801(15) 0.2562 Uani
C50 C -0.6216(11) 1.0364(17) -0.4029(17) 0.2530 Uani
C51 C -0.6517(14) 1.082(4) -0.4482(17) 0.2668 Uani
C52 C -0.680(3) 1.137(5) -0.471(2) 0.5942 Uani
C53 C -0.671(3) 1.234(4) -0.4450(12) 0.4499 Uani
C54 C -0.6169(6) 1.2935(12) -0.3838(5) 0.0974 Uani
loop_
_atom_site_aniso_label
_atom_site_aniso_U_11
_atom_site_aniso_U_22
_atom_site_aniso_U_33
_atom_site_aniso_U_23
_atom_site_aniso_U_13
_atom_site_aniso_U_12
I1 0.000(14) 0.037(6) 0.007(9) 0.013(3) 0.007(3) 0.001(3)
I3 0.0633(4) 0.0441(4) 0.0613(4) -0.0217(3) 0.0103(3) -0.0160(3)
I5 0.137 0.108 0.082 -0.041 -0.035 0.078
I6 0.099 0.0469 0.0635 0.0076 -0.01 -0.0377
I8 0.0841 0.105 0.0477 -0.0155 0.0188 -0.0345
I9 0.0944 0.0252 0.1152 0.0067 -0.0504 -0.0035
Zn1 0.0529(6) 0.0121(4) 0.0384(5) -0.0029(4) 0.0096(5) -0.0024(4)
Zn2 0.0842 0.0174 0.0404 -0.0043 -0.0238 0.0075
Zn3 0.0551 0.0278 0.0353 0.0078 -0.0112 -0.0116
C1 0.038(5) 0.024(4) 0.031(4) -0.003(3) -0.002(4) -0.005(4)
C2 0.038(5) 0.022(4) 0.027(4) -0.001(3) -0.006(4) 0.001(4)
C3 0.039(5) 0.034(5) 0.028(4) 0.000(3) -0.002(4) -0.001(4)
N1 0.052(4) 0.019(3) 0.033(4) -0.001(3) -0.002(3) -0.008(3)
N2 0.039(4) 0.025(3) 0.036(4) -0.005(3) 0.000(3) -0.003(3)
N3 0.051(4) 0.023(3) 0.028(3) -0.002(3) -0.003(3) -0.004(3)
N4 0.054(5) 0.025(4) 0.027(3) 0.002(3) -0.010(3) -0.008(3)
C4 0.057(6) 0.040(5) 0.031(4) -0.009(4) 0.000(4) -0.006(5)
C5 0.064(6) 0.026(4) 0.039(5) -0.012(4) 0.008(5) -0.021(4)
C6 0.041(5) 0.023(4) 0.030(4) 0.001(3) -0.007(4) -0.005(4)
C7 0.048(5) 0.025(4) 0.034(4) -0.007(3) 0.001(4) -0.003(4)
C8 0.067(6) 0.019(4) 0.031(4) -0.007(3) -0.002(4) -0.003(4)
N5 0.052(5) 0.027(4) 0.033(4) -0.002(3) -0.002(3) 0.001(4)
C9 0.058(6) 0.033(5) 0.062(6) -0.014(4) 0.003(5) -0.015(5)
C10 0.058(6) 0.035(5) 0.055(6) -0.011(4) 0.009(5) -0.008(5)
C11 0.038(5) 0.026(4) 0.034(4) -0.005(3) 0.000(4) -0.011(4)
C12 0.043(5) 0.035(5) 0.045(5) -0.009(4) 0.001(4) -0.010(4)
C13 0.059(6) 0.029(5) 0.039(5) -0.014(4) 0.004(4) 0.004(4)
N6 0.043(4) 0.023(4) 0.034(3) -0.003(3) 0.011(3) -0.003(3)
C14 0.082(7) 0.020(4) 0.072(7) -0.009(4) 0.041(6) -0.020(5)
C15 0.071(7) 0.021(4) 0.059(6) -0.017(4) 0.037(5) -0.019(5)
C16 0.039(5) 0.016(4) 0.044(5) -0.002(3) 0.001(4) 0.000(3)
C17 0.052(5) 0.020(4) 0.033(4) -0.001(3) -0.002(4) -0.009(4)
C18 0.052(5) 0.019(4) 0.036(4) -0.003(3) 0.006(4) -0.014(4)
N7 0.045(4) 0.015(3) 0.031(3) -0.001(3) -0.003(3) -0.005(3)
N8 0.047(4) 0.014(3) 0.037(4) -0.005(3) 0.000(3) -0.003(3)
N9 0.048(4) 0.013(3) 0.031(3) 0.000(3) -0.002(3) 0.002(3)
C19 0.040(5) 0.017(4) 0.033(4) 0.001(3) -0.004(4) -0.001(4)
C20 0.046(5) 0.012(3) 0.033(4) 0.003(3) -0.001(4) -0.005(3)
C21 0.038(5) 0.015(4) 0.031(4) -0.002(3) 0.000(4) -0.003(3)
N10 0.049(4) 0.020(3) 0.033(4) -0.002(3) -0.005(3) -0.004(3)
C22 0.059(6) 0.020(4) 0.042(5) 0.001(4) -0.017(4) -0.002(4)
C23 0.065(6) 0.018(4) 0.031(4) -0.002(3) -0.013(4) -0.007(4)
C24 0.043(5) 0.012(4) 0.037(4) 0.000(3) -0.003(4) -0.006(3)
C25 0.080(7) 0.014(4) 0.045(5) 0.004(4) -0.026(5) -0.013(4)
C26 0.098(8) 0.019(4) 0.043(5) 0.000(4) -0.026(5) -0.011(5)
N11 0.061(5) 0.013(3) 0.046(4) 0.004(3) -0.020(4) -0.005(3)
C27 0.063(6) 0.024(4) 0.046(5) 0.007(4) -0.024(5) 0.002(4)
C28 0.066(6) 0.007(4) 0.055(5) -0.002(4) -0.015(5) 0.001(4)
C29 0.047(5) 0.014(4) 0.030(4) 0.002(3) -0.010(4) -0.008(3)
C30 0.063(6) 0.021(4) 0.037(4) 0.000(3) -0.022(4) 0.005(4)
C31 0.081(7) 0.016(4) 0.045(5) -0.004(4) -0.025(5) 0.005(4)
N12 0.056(5) 0.013(3) 0.029(3) -0.003(3) -0.005(3) 0.005(3)
C32 0.069(6) 0.019(4) 0.034(4) 0.002(3) -0.009(4) 0.005(4)
C33 0.062(6) 0.015(4) 0.035(4) -0.002(3) -0.006(4) -0.002(4)
C34 0.053(5) 0.014(4) 0.033(4) -0.005(3) -0.002(4) 0.000(4)
C35 0.060(6) 0.017(4) 0.037(4) 0.006(3) -0.009(4) -0.005(4)
C36 0.074(7) 0.013(4) 0.037(4) -0.006(3) -0.008(5) -0.005(4)
N11B 0.061 0.013 0.046 -0.004 -0.02 0.005
N10A 0.049 0.02 0.033 -0.002 -0.005 -0.004
Zn3A 0.0551(7) 0.0278(5) 0.0353(5) 0.0078(4) -0.0112(5) -0.0116(5)
Zn2B 0.0842(9) 0.0174(5) 0.0404(5) 0.0043(4) -0.0238(6) -0.0075(5)
N13 0.233(19) 0.043(7) 0.149(13) 0.004(8) -0.007(13) -0.029(9)
C37 0.106(10) 0.046(6) 0.045(6) 0.002(5) 0.002(6) -0.011(6)
C38 0.060(9) 0.163(17) 0.066(8) 0.000(10) -0.009(7) -0.044(10)
C39 0.068(10) 0.22(2) 0.056(8) 0.009(12) -0.002(7) 0.027(14)
C40 0.085(10) 0.144(15) 0.047(7) 0.015(8) 0.002(7) 0.058(11)
C41 0.122(12) 0.063(8) 0.039(6) -0.004(5) -0.002(6) 0.018(8)
C42 0.072(7) 0.046(6) 0.042(5) -0.003(4) 0.005(5) -0.009(5)
C43 0.158(16) 0.082(12) 0.080(9) -0.011(8) -0.005(10) -0.046(11)
N15 0.105(10) 0.072(8) 0.139(11) 0.000(8) 0.043(9) 0.011(8)
C48 0.142(18) 0.099(15) 0.28(3) 0.051(19) 0.15(2) -0.012(14)
C49 0.17(2) 0.15(3) 0.47(6) 0.07(3) 0.17(3) 0.00(2)
C50 0.16(2) 0.096(17) 0.53(7) -0.01(3) 0.21(4) -0.022(17)
C51 0.18(3) 0.40(8) 0.24(4) -0.16(5) 0.15(3) -0.07(4)
C52 0.81(11) 0.55(7) 0.49(11) -0.31(6) 0.51(11) -0.56(9)
C53 0.65(10) 0.53(9) 0.19(3) -0.11(4) 0.17(5) -0.49(8)
C54 0.098(11) 0.084(11) 0.116(12) 0.033(10) 0.047(10) 0.019(10)
loop_
_geom_bond_atom_site_label_1
_geom_bond_atom_site_label_2
_geom_bond_site_symmetry_1
_geom_bond_site_symmetry_2
I1 Zn1 1_555 1_555
I3 Zn1 1_555 1_555
I5 Zn2 1_555 1_555
I6 Zn2 1_555 1_555
I8 Zn3 1_555 1_555
I9 Zn3 1_555 1_555
Zn1 N6 1_555 1_555
Zn2 N5 1_555 1_555
Zn3 N4 1_555 1_555
C1 N1 1_555 1_555
C2 N1 1_555 1_555
C3 N2 1_555 1_555
N2 C2 1_555 1_555
N3 C1 1_555 1_555
N4 C4 1_555 1_555
C4 H1 1_555 1_555
C5 C4 1_555 1_555
H2 C5 1_555 1_555
C6 C3 1_555 1_555
C7 C6 1_555 1_555
H3 C7 1_555 1_555
C8 N4 1_555 1_555
H4 C8 1_555 1_555
N5 C9 1_555 1_555
C9 H5 1_555 1_555
C10 C9 1_555 1_555
H6 C10 1_555 1_555
C11 C2 1_555 1_555
C12 C11 1_555 1_555
H7 C12 1_555 1_555
C13 N5 1_555 1_555
H8 C13 1_555 1_555
N6 C14 1_555 1_555
C14 H9 1_555 1_555
C15 C14 1_555 1_555
H10 C15 1_555 1_555
C16 C1 1_555 1_555
C17 C16 1_555 1_555
H11 C17 1_555 1_555
C18 N6 1_555 1_555
H12 C18 1_555 1_555
N7 C19 1_555 1_555
N8 C20 1_555 1_555
N9 C19 1_555 1_555
C19 C24 1_555 1_555
C20 N7 1_555 1_555
C21 N8 1_555 1_555
N10 C22 1_555 1_555
C22 H13 1_555 1_555
C23 C22 1_555 1_555
H14 C23 1_555 1_555
C24 C23 1_555 1_555
C25 C24 1_555 1_555
H15 C25 1_555 1_555
C26 N10 1_555 1_555
H16 C26 1_555 1_555
N11 C27 1_555 1_555
C27 H17 1_555 1_555
C28 C27 1_555 1_555
H18 C28 1_555 1_555
C29 C20 1_555 1_555
C30 C29 1_555 1_555
H19 C30 1_555 1_555
C31 N11 1_555 1_555
H20 C31 1_555 1_555
N12 Zn1 1_555 1_555
C32 N12 1_555 1_555
H21 C32 1_555 1_555
C33 C32 1_555 1_555
H22 C33 1_555 1_555
C34 C21 1_555 1_555
C35 C34 1_555 1_555
H23 C35 1_555 1_555
C36 N12 1_555 1_555
H24 C36 1_555 1_555
N13 C43 1_555 1_555
C37 C38 1_555 1_555
C38 C39 1_555 1_555
C39 C40 1_555 1_555
C40 C41 1_555 1_555
C41 C42 1_555 1_555
C42 C37 1_555 1_555
C43 C37 1_555 1_555
N15 C54 1_555 1_555
C48 C49 1_555 1_555
C49 C50 1_555 1_555
C50 C51 1_555 1_555
C51 C52 1_555 1_555
C52 C53 1_555 1_555
C53 C48 1_555 1_555
C54 C48 1_555 1_555
N11B Zn2 1_555 1_555
N10A Zn3 1_555 1_555
Zn3A N10 1_555 1_555
Zn2B N11 1_555 1_555
C3 N3 1_555 1_555
C5 C6 1_555 1_555
C7 C8 1_555 1_555
C10 C11 1_555 1_555
C12 C13 1_555 1_555
C15 C16 1_555 1_555
C17 C18 1_555 1_555
N9 C21 1_555 1_555
C25 C26 1_555 1_555
C28 C29 1_555 1_555
C30 C31 1_555 1_555
C33 C34 1_555 1_555
C35 C36 1_555 1_555

#END
