
#######################################################################
#
#                 Cambridge Crystallographic Data Centre
#                                CCDC 
#
#######################################################################
#
# If this CIF has been generated from an entry in the Cambridge 
# Structural Database, then it will include bibliographic, chemical, 
# crystal, experimental, refinement or atomic coordinate data resulting 
# from the CCDC's data processing and validation procedures.
#
#######################################################################

data_LUDVEL
_chemical_formula_moiety         '(C43 H29 I6 N13 Zn3)n'
_symmetry_cell_setting           monoclinic
_symmetry_space_group_name_H-M   'C 2/c'
_symmetry_Int_Tables_number      15
_space_group_name_Hall           '-C 2yc'
loop_
_symmetry_equiv_pos_site_id
_symmetry_equiv_pos_as_xyz
1 x,y,z
2 1/2+x,1/2+y,z
3 -x,y,1/2-z
4 1/2-x,1/2+y,1/2-z
5 -x,-y,-z
6 1/2-x,1/2-y,-z
7 x,-y,1/2+z
8 1/2+x,1/2-y,1/2+z
_cell_length_a                   35.487(8)
_cell_length_b                   15.080(4)
_cell_length_c                   31.542(7)
_cell_angle_alpha                90
_cell_angle_beta                 102.107(4)
_cell_angle_gamma                90
_cell_volume                     16504.1
loop_
_atom_site_label
_atom_site_type_symbol
_atom_site_fract_x
_atom_site_fract_y
_atom_site_fract_z
_atom_site_U_iso_or_equiv
_atom_site_thermal_displace_type
I1 I -0.26258(3) -0.73161(5) -0.19407(3) 0.0875 Uani
I2 I -0.3701(4) -0.6763(4) -0.2961(2) 0.0572 Uani
I3 I -0.47244(2) 0.14493(5) -0.36748(2) 0.0651 Uani
I4 I -0.38225(3) 0.23406(5) -0.43859(3) 0.0734 Uani
I5 I -0.60526(3) -0.27471(5) -0.09839(3) 0.0852 Uani
I6 I -0.64424(2) -0.41838(7) 0.00794(3) 0.0877 Uani
Zn1 Zn -0.32418(3) -0.64431(7) -0.22092(4) 0.0500 Uani
Zn2 Zn -0.41713(3) 0.11525(6) -0.40559(3) 0.0431 Uani
Zn3 Zn -0.62546(3) -0.41586(7) -0.06536(3) 0.0480 Uani
N1 N -0.47744(19) -0.7357(4) -0.0311(2) 0.0366 Uani
N2 N -0.42425(19) -0.7798(4) -0.0617(2) 0.0363 Uani
N3 N -0.46260(19) -0.6558(4) -0.0906(2) 0.0382 Uani
C1 C -0.4836(2) -0.6723(5) -0.0608(2) 0.0339 Uani
C2 C -0.4479(2) -0.7893(5) -0.0342(2) 0.0346 Uani
C3 C -0.4322(2) -0.7094(5) -0.0882(2) 0.0360 Uani
N4 N -0.58084(19) -0.5038(5) -0.0632(2) 0.0422 Uani
C4 C -0.5624(3) -0.5418(7) -0.0272(3) 0.0501 Uani
H1 H -0.5713 -0.5303 -0.0013 0.0600 Uiso
C5 C -0.5311(3) -0.5969(6) -0.0245(3) 0.0493 Uani
H2 H -0.5188 -0.6223 0.0025 0.0590 Uiso
C6 C -0.5182(2) -0.6143(5) -0.0617(3) 0.0377 Uani
C7 C -0.5379(3) -0.5785(6) -0.1004(3) 0.0544 Uani
H3 H -0.5300 -0.5904 -0.1267 0.0650 Uiso
C8 C -0.5691(3) -0.5257(7) -0.0999(3) 0.0524 Uani
H4 H -0.5832 -0.5033 -0.1267 0.0630 Uiso
N5 N -0.4309(2) -1.0142(5) 0.0490(2) 0.0447 Uani
C9 C -0.4050(3) -0.9947(7) 0.0248(3) 0.0605 Uani
H5 H -0.3828 -1.0310 0.0266 0.0720 Uiso
C10 C -0.4103(3) -0.9223(7) -0.0026(3) 0.0649 Uani
H6 H -0.3919 -0.9097 -0.0197 0.0780 Uiso
C11 C -0.4417(2) -0.8685(5) -0.0056(3) 0.0381 Uani
C12 C -0.4687(2) -0.8911(6) 0.0193(3) 0.0420 Uani
H7 H -0.4911 -0.8560 0.0179 0.0510 Uiso
C13 C -0.4623(2) -0.9645(5) 0.0458(3) 0.0401 Uani
H8 H -0.4809 -0.9800 0.0623 0.0480 Uiso
N6 N -0.3578(2) -0.6596(4) -0.1749(2) 0.0424 Uani
C14 C -0.3927(3) -0.6236(6) -0.1810(3) 0.0516 Uani
H9 H -0.4007 -0.5861 -0.2055 0.0620 Uiso
C15 C -0.4177(3) -0.6374(6) -0.1541(3) 0.0500 Uani
H10 H -0.4424 -0.6101 -0.1600 0.0600 Uiso
C16 C -0.4069(2) -0.6909(5) -0.1184(3) 0.0363 Uani
C17 C -0.3698(3) -0.7290(6) -0.1109(3) 0.0506 Uani
H11 H -0.3608 -0.7658 -0.0864 0.0600 Uiso
C18 C -0.3466(3) -0.7112(6) -0.1404(3) 0.0497 Uani
H12 H -0.3217 -0.7370 -0.1356 0.0600 Uiso
C19 C -0.2585(2) -0.1086(5) -0.1992(3) 0.0361 Uani
C20 C -0.3084(2) -0.1002(5) -0.2557(3) 0.0354 Uani
C21 C -0.2927(2) -0.2302(5) -0.2227(3) 0.0384 Uani
N7 N -0.27925(19) -0.0579(4) -0.2291(2) 0.0390 Uani
N8 N -0.31696(18) -0.1852(4) -0.2528(2) 0.0354 Uani
N9 N -0.26314(19) -0.1955(4) -0.1942(2) 0.0360 Uani
N10 N -0.3779(2) 0.0456(4) -0.3597(2) 0.0422 Uani
C22 C -0.3832(4) -0.0401(7) -0.3538(4) 0.0870 Uani
H13 H -0.4037 -0.0692 -0.3730 0.1040 Uiso
C23 C -0.3606(4) -0.0896(6) -0.3210(4) 0.0900 Uani
H14 H -0.3646 -0.1516 -0.3190 0.1080 Uiso
C24 C -0.3323(2) -0.0476(5) -0.2918(3) 0.0374 Uani
C25 C -0.3268(2) 0.0411(5) -0.2975(3) 0.0437 Uani
H15 H -0.3075 0.0723 -0.2777 0.0530 Uiso
C26 C -0.3493(3) 0.0854(5) -0.3322(3) 0.0436 Uani
H16 H -0.3442 0.1462 -0.3366 0.0520 Uiso
N11 N -0.3128(2) -0.5095(4) -0.2210(2) 0.0431 Uani
C27 C -0.3379(3) -0.4554(6) -0.2443(3) 0.0504 Uani
H17 H -0.3609 -0.4799 -0.2612 0.0610 Uiso
C28 C -0.3326(3) -0.3644(6) -0.2457(3) 0.0481 Uani
H18 H -0.3513 -0.3282 -0.2635 0.0570 Uiso
C29 C -0.2997(2) -0.3269(5) -0.2208(3) 0.0354 Uani
C30 C -0.2733(3) -0.3835(6) -0.1957(3) 0.0492 Uani
H19 H -0.2504 -0.3606 -0.1780 0.0590 Uiso
C31 C -0.2806(3) -0.4735(6) -0.1967(3) 0.0527 Uani
H20 H -0.2621 -0.5117 -0.1797 0.0630 Uiso
N12 N -0.16851(19) 0.0229(5) -0.1103(2) 0.0415 Uani
C32 C -0.1754(3) -0.0618(6) -0.1051(3) 0.0509 Uani
H21 H -0.1603 -0.0923 -0.0811 0.0610 Uiso
C33 C -0.2042(3) -0.1085(6) -0.1334(3) 0.0453 Uani
H22 H -0.2084 -0.1698 -0.1292 0.0540 Uiso
C34 C -0.2265(2) -0.0628(5) -0.1676(2) 0.0313 Uani
C35 C -0.2188(3) 0.0255(6) -0.1734(3) 0.0482 Uani
H23 H -0.2334 0.0580 -0.1970 0.0580 Uiso
C36 C -0.1897(3) 0.0654(6) -0.1444(3) 0.0513 Uani
H24 H -0.1842 0.1261 -0.1486 0.0610 Uiso
N12A N -0.66851(19) -0.4771(5) -0.1103(2) 0.0415 Uani
Zn2F Zn -0.41713(3) -1.11525(6) 0.09441(3) 0.0431 Uani
Zn3A Zn -0.12546(3) 0.08414(7) -0.06536(3) 0.0480 Uani
N5F N -0.4309(2) 0.0142(5) -0.4510(2) 0.0447 Uani
C37 C -0.6202(8) 0.0316(12) -0.3669(7) 0.1204 Uani
C38 C -0.5824(6) 0.0615(11) -0.3532(6) 0.1076 Uani
C39 C -0.5714(6) 0.1078(12) -0.3155(6) 0.1158 Uani
C40 C -0.6010(9) 0.1243(13) -0.2924(6) 0.1346 Uani
C41 C -0.6394(8) 0.0928(15) -0.3097(10) 0.1393 Uani
C42 C -0.6490(7) 0.0469(13) -0.3448(7) 0.1213 Uani
C43 C -0.6353(11) -0.019(2) -0.4091(9) 0.3066 Uani
N13 N -0.6514(17) -0.040(7) -0.4493(14) 1.1600 Uani
loop_
_atom_site_aniso_label
_atom_site_aniso_U_11
_atom_site_aniso_U_22
_atom_site_aniso_U_33
_atom_site_aniso_U_23
_atom_site_aniso_U_13
_atom_site_aniso_U_12
I1 0.0872 0.0611 0.1364 0.0448 0.0741 0.0341
I2 0.076 0.0484 0.05 -0.0076 0.0198 -0.0082
I3 0.0773 0.0602 0.0563 -0.0009 0.0108 0.0246
I4 0.1045 0.0427 0.0701 0.0015 0.0119 -0.02
I5 0.0832 0.043 0.1124 0.006 -0.0183 -0.0055
I6 0.0762 0.124 0.0595 -0.0323 0.0066 0.0293
Zn1 0.0661 0.0303 0.0634 0.0069 0.0357 -0.0001
Zn2 0.0561 0.0296 0.0367 -0.0031 -0.0062 0
Zn3 0.0425 0.0416 0.0519 -0.0119 -0.0083 0.0108
N1 0.039 0.03 0.038 0.005 0.002 0.009
N2 0.039 0.038 0.033 0.001 0.01 0.007
N3 0.037 0.035 0.042 0.003 0.007 -0.001
C1 0.035 0.031 0.035 0.002 0.006 0.001
C2 0.037 0.036 0.03 0.006 0.005 0.003
C3 0.035 0.036 0.035 0 0.003 0.002
N4 0.041 0.042 0.04 -0.003 0 0.011
C4 0.053 0.06 0.037 0 0.009 0.023
C5 0.056 0.056 0.034 0.009 0.005 0.018
C6 0.034 0.035 0.044 0.008 0.008 0.003
C7 0.071 0.055 0.035 0.009 0.006 0.022
C8 0.057 0.056 0.041 0.005 0.003 0.023
N5 0.052 0.038 0.04 0.008 0 0.012
C9 0.072 0.059 0.059 0.025 0.033 0.038
C10 0.084 0.06 0.059 0.026 0.034 0.03
C11 0.043 0.036 0.034 0.005 0.005 0.005
C12 0.036 0.039 0.05 0.009 0.007 0.004
C13 0.039 0.037 0.041 0.007 0.001 0
N6 0.057 0.032 0.041 0.009 0.017 0.001
C14 0.057 0.046 0.057 0.015 0.024 0.006
C15 0.043 0.053 0.054 0.015 0.01 0.003
C16 0.034 0.039 0.037 0.001 0.01 -0.003
C17 0.053 0.047 0.058 0.018 0.026 0.013
C18 0.045 0.049 0.059 0.008 0.02 0.011
C19 0.037 0.03 0.042 0.001 0.01 0.003
C20 0.036 0.029 0.04 0.003 0.005 0.006
C21 0.031 0.033 0.05 -0.003 0.006 0.002
N7 0.041 0.031 0.042 -0.003 0.002 0.005
N8 0.032 0.031 0.042 -0.005 0.005 -0.002
N9 0.038 0.03 0.039 0.002 0.006 0.005
N10 0.049 0.03 0.043 0.001 -0.001 0.002
C22 0.106 0.049 0.075 0.024 -0.052 -0.032
C23 0.11 0.026 0.096 0.003 -0.065 -0.011
C24 0.035 0.031 0.043 0.002 0.001 0.002
C25 0.041 0.029 0.054 -0.001 -0.006 -0.003
C26 0.053 0.028 0.047 -0.006 0.004 0.001
N11 0.045 0.033 0.055 0.011 0.019 -0.004
C27 0.055 0.029 0.067 0.002 0.012 -0.009
C28 0.046 0.033 0.062 -0.001 0.004 0
C29 0.037 0.031 0.039 0.003 0.01 0.003
C30 0.045 0.041 0.057 0.01 0 -0.005
C31 0.055 0.031 0.069 0.012 0.006 0.002
N12 0.035 0.041 0.042 -0.005 -0.007 0.009
C32 0.054 0.04 0.049 -0.002 -0.011 0.008
C33 0.055 0.03 0.047 0.003 0.002 -0.002
C34 0.032 0.031 0.031 -0.002 0.007 0.004
C35 0.057 0.039 0.038 0.002 -0.014 0.005
C36 0.061 0.035 0.048 0.002 -0.011 0
N12A 0.035 0.041 0.042 -0.005 -0.007 0.009
Zn2F 0.0561 0.0296 0.0367 0.0031 -0.0062 0
Zn3A 0.0425 0.0416 0.0519 -0.0119 -0.0083 0.0108
N5F 0.052 0.038 0.04 -0.008 0 -0.012
C37 0.16 0.071 0.12 -0.018 0.006 -0.015
C38 0.139 0.078 0.103 0.004 0.019 0.021
C39 0.151 0.095 0.097 -0.012 0.016 0.01
C40 0.22 0.086 0.106 -0.01 0.053 0.037
C41 0.18 0.1 0.17 0.066 0.11 0.063
C42 0.177 0.095 0.115 0.029 0.083 0.03
C43 0.14 0.25 0.58 0.35 0.19 0.12
N13 1.6 1 1.4 -1 1.5 -1
loop_
_geom_bond_atom_site_label_1
_geom_bond_atom_site_label_2
_geom_bond_site_symmetry_1
_geom_bond_site_symmetry_2
I1 Zn1 1_555 1_555
I2 Zn1 1_555 1_555
I3 Zn2 1_555 1_555
I4 Zn2 1_555 1_555
I5 Zn3 1_555 1_555
I6 Zn3 1_555 1_555
Zn1 N6 1_555 1_555
Zn2 N10 1_555 1_555
Zn3 N4 1_555 1_555
N1 C1 1_555 1_555
N2 C2 1_555 1_555
N3 C1 1_555 1_555
C1 C6 1_555 1_555
C2 N1 1_555 1_555
C3 N2 1_555 1_555
N4 C4 1_555 1_555
C4 H1 1_555 1_555
C5 C4 1_555 1_555
H2 C5 1_555 1_555
C6 C5 1_555 1_555
C7 C6 1_555 1_555
H3 C7 1_555 1_555
C8 N4 1_555 1_555
H4 C8 1_555 1_555
N5 C9 1_555 1_555
C9 H5 1_555 1_555
C10 C9 1_555 1_555
H6 C10 1_555 1_555
C11 C2 1_555 1_555
C12 C11 1_555 1_555
H7 C12 1_555 1_555
C13 N5 1_555 1_555
H8 C13 1_555 1_555
N6 C14 1_555 1_555
C14 H9 1_555 1_555
C15 C14 1_555 1_555
H10 C15 1_555 1_555
C16 C3 1_555 1_555
C17 C16 1_555 1_555
H11 C17 1_555 1_555
C18 N6 1_555 1_555
H12 C18 1_555 1_555
C19 N7 1_555 1_555
C20 N7 1_555 1_555
C21 N8 1_555 1_555
N8 C20 1_555 1_555
N9 C19 1_555 1_555
N10 C22 1_555 1_555
C22 H13 1_555 1_555
C23 C22 1_555 1_555
H14 C23 1_555 1_555
C24 C20 1_555 1_555
C25 C24 1_555 1_555
H15 C25 1_555 1_555
C26 N10 1_555 1_555
H16 C26 1_555 1_555
N11 Zn1 1_555 1_555
C27 N11 1_555 1_555
H17 C27 1_555 1_555
C28 C27 1_555 1_555
H18 C28 1_555 1_555
C29 C21 1_555 1_555
C30 C29 1_555 1_555
H19 C30 1_555 1_555
C31 N11 1_555 1_555
H20 C31 1_555 1_555
N12 C32 1_555 1_555
C32 H21 1_555 1_555
C33 C32 1_555 1_555
H22 C33 1_555 1_555
C34 C19 1_555 1_555
C35 C34 1_555 1_555
H23 C35 1_555 1_555
C36 N12 1_555 1_555
H24 C36 1_555 1_555
C37 C38 1_555 1_555
C38 C39 1_555 1_555
C39 C40 1_555 1_555
C40 C41 1_555 1_555
C41 C42 1_555 1_555
C42 C37 1_555 1_555
C43 C37 1_555 1_555
N13 C43 1_555 1_555
N12A Zn3 1_555 1_555
Zn2F N5 1_555 1_555
Zn3A N12 1_555 1_555
N5F Zn2 1_555 1_555
N3 C3 1_555 1_555
C7 C8 1_555 1_555
C10 C11 1_555 1_555
C12 C13 1_555 1_555
C15 C16 1_555 1_555
C17 C18 1_555 1_555
C21 N9 1_555 1_555
C23 C24 1_555 1_555
C25 C26 1_555 1_555
C28 C29 1_555 1_555
C30 C31 1_555 1_555
C33 C34 1_555 1_555
C35 C36 1_555 1_555

#END
