
#######################################################################
#
#                 Cambridge Crystallographic Data Centre
#                                CCDC 
#
#######################################################################
#
# If this CIF has been generated from an entry in the Cambridge 
# Structural Database, then it will include bibliographic, chemical, 
# crystal, experimental, refinement or atomic coordinate data resulting 
# from the CCDC's data processing and validation procedures.
#
#######################################################################

data_AFIPAH
_chemical_formula_moiety         '(C10 H14 La2 O17)n'
_symmetry_cell_setting           orthorhombic
_symmetry_space_group_name_H-M   'F d d d'
_symmetry_Int_Tables_number      70
_space_group_name_Hall           '-F 2uv 2vw'
loop_
_symmetry_equiv_pos_site_id
_symmetry_equiv_pos_as_xyz
1 x,y,z
2 x,1/2+y,1/2+z
3 x,1/4-y,1/4-z
4 1/2+x,y,1/2+z
5 1/4-x,y,1/4-z
6 1/2+x,1/2+y,z
7 1/4-x,1/4-y,z
8 3/4-x,3/4-y,z
9 3/4-x,y,3/4-z
10 x,3/4-y,3/4-z
11 3/4-x,1/4-y,1/2+z
12 3/4-x,1/2+y,1/4-z
13 1/4-x,3/4-y,1/2+z
14 1/2+x,3/4-y,1/4-z
15 1/4-x,1/2+y,3/4-z
16 1/2+x,1/4-y,3/4-z
17 -x,-y,-z
18 -x,1/2-y,1/2-z
19 -x,3/4+y,3/4+z
20 1/2-x,-y,1/2-z
21 3/4+x,-y,3/4+z
22 1/2-x,1/2-y,-z
23 3/4+x,3/4+y,-z
24 1/4+x,1/4+y,-z
25 1/4+x,-y,1/4+z
26 -x,1/4+y,1/4+z
27 1/4+x,3/4+y,1/2-z
28 1/4+x,1/2-y,3/4+z
29 3/4+x,1/4+y,1/2-z
30 1/2-x,1/4+y,3/4+z
31 3/4+x,1/2-y,1/4+z
32 1/2-x,3/4+y,1/4+z
_cell_length_a                   9.7787(19)
_cell_length_b                   15.507(3)
_cell_length_c                   28.296(5)
_cell_angle_alpha                90
_cell_angle_beta                 90
_cell_angle_gamma                90
_cell_volume                     4290.76
loop_
_atom_site_label
_atom_site_type_symbol
_atom_site_fract_x
_atom_site_fract_y
_atom_site_fract_z
H1 H 0.873(6) 0.280(4) 0.285(2)
La1 La 0.6250 0.1250 0.240839(8)
C1 C 0.6250 0.1754(3) 0.1250
C2 C 0.6844(4) 0.3461(2) 0.27913(14)
C3 C 0.8358(4) 0.3408(3) 0.28216(19)
O1 O 0.6140(3) 0.21139(16) 0.16420(8)
O2 O 0.6217(3) 0.27911(17) 0.26630(10)
O3 O 0.7777(3) 0.12855(18) 0.31580(10)
O4 O 0.6207(3) 0.41511(17) 0.28779(11)
H1G H 0.877(6) 0.470(4) 0.285(2)
H1F H 0.377(6) -0.030(4) 0.285(2)
H1E H 0.373(6) -0.220(4) 0.285(2)
La1B La 0.6250 0.1250 0.009161(8)
La1BA La 0.3750 0.3750 0.259161(8)
La1E La 1.1250 0.6250 0.240839(8)
La1BA_2 La 1.3750 0.3750 0.259161(8)
La1Z La 0.8750 -0.1250 0.259161(8)
La1E_2 La 0.1250 -0.3750 0.240839(8)
La1Z_2 La -0.1250 -0.1250 0.259161(8)
C1B C 0.6250 0.0746(3) 0.1250
C2G C 1.0656(4) 0.4039(2) 0.27913(14)
C2F C 0.5656(4) -0.0961(2) 0.27913(14)
C2E C 0.1844(4) -0.1539(2) 0.27913(14)
C3G C 0.9142(4) 0.4092(3) 0.28216(19)
C3F C 0.4142(4) -0.0908(3) 0.28216(19)
C3E C 0.3358(4) -0.1592(3) 0.28216(19)
O1B O 0.6140(3) 0.03861(16) 0.08580(8)
O1F O 0.6360(3) 0.03861(16) 0.16420(8)
O1D O 0.6360(3) 0.21139(16) 0.08580(8)
O2G O 1.1283(3) 0.47089(17) 0.26630(10)
O2F O 0.6283(3) -0.02911(17) 0.26630(10)
O2E O 0.1217(3) -0.22089(17) 0.26630(10)
O2B O 0.6217(3) -0.02911(17) -0.01630(10)
O2D O 0.6283(3) 0.27911(17) -0.01630(10)
O3F O 0.4723(3) 0.12145(18) 0.31580(10)
O3B O 0.7777(3) 0.12145(18) -0.06580(10)
O3D O 0.4723(3) 0.12855(18) -0.06580(10)
O4G O 1.1293(3) 0.33489(17) 0.28779(11)
O4F O 0.6293(3) -0.16511(17) 0.28779(11)
O4E O 0.1207(3) -0.08489(17) 0.28779(11)
O4Z O 0.8707(3) 0.16511(17) 0.21221(11)
O4Q O 0.3793(3) 0.08489(17) 0.21221(11)
O4AA O 0.8707(3) 0.08489(17) 0.03779(11)
O4R O 0.3793(3) 0.16511(17) 0.03779(11)
O5 O 0.0487(7) 0.2011(5) 0.3485(3)
loop_
_geom_bond_atom_site_label_1
_geom_bond_atom_site_label_2
_geom_bond_site_symmetry_1
_geom_bond_site_symmetry_2
H1 C3 1_555 1_555
La1 O1 1_555 1_555
C1 O1 1_555 1_555
C2 C3 1_555 1_555
C3 C3G 1_555 1_555
O2 La1 1_555 1_555
O3 La1 1_555 1_555
O4 C2 1_555 1_555
H1G C3G 1_555 1_555
H1F C3F 1_555 1_555
H1E C3E 1_555 1_555
La1B O1B 1_555 1_555
La1BA O4 1_555 1_555
La1E O2G 1_555 1_555
La1BA_2 O4G 1_555 1_555
La1Z O4F 1_555 1_555
La1E_2 O2E 1_555 1_555
La1Z_2 O4E 1_555 1_555
C1B C1 1_555 1_555
C2G C3G 1_555 1_555
C2F C3F 1_555 1_555
C2E C3E 1_555 1_555
C3F C3E 1_555 1_555
O1B C1B 1_555 1_555
O1F La1 1_555 1_555
O1D C1 1_555 1_555
O2G C2G 1_555 1_555
O2F La1 1_555 1_555
O2E C2E 1_555 1_555
O2B La1B 1_555 1_555
O2D La1B 1_555 1_555
O3F La1 1_555 1_555
O3B La1B 1_555 1_555
O3D La1B 1_555 1_555
O4G C2G 1_555 1_555
O4F C2F 1_555 1_555
O4E C2E 1_555 1_555
O4Z La1 1_555 1_555
O4Q La1 1_555 1_555
O4AA La1B 1_555 1_555
O4R La1B 1_555 1_555
C2 O2 1_555 1_555
La1B O1D 1_555 1_555
C1B O1F 1_555 1_555
C2F O2F 1_555 1_555

#END
