
#######################################################################
#
#                 Cambridge Crystallographic Data Centre
#                                CCDC 
#
#######################################################################
#
# If this CIF has been generated from an entry in the Cambridge 
# Structural Database, then it will include bibliographic, chemical, 
# crystal, experimental, refinement or atomic coordinate data resulting 
# from the CCDC's data processing and validation procedures.
#
#######################################################################

data_KUMGIK
_chemical_formula_moiety         'C24 H16 Cu10 Mo3 N18 S8'
_symmetry_cell_setting           tetragonal
_symmetry_space_group_name_H-M   'I 41/a c d'
_symmetry_Int_Tables_number      142
_space_group_name_Hall           '-I 4bd 2c'
loop_
_symmetry_equiv_pos_site_id
_symmetry_equiv_pos_as_xyz
1 x,y,z
2 1/4-y,3/4+x,1/4+z
3 1/2-x,-y,1/2+z
4 1/4+y,1/4-x,3/4+z
5 x,-y,1/2-z
6 1/4+y,3/4+x,3/4-z
7 1/2-x,y,-z
8 1/4-y,1/4-x,1/4-z
9 1/2+x,1/2+y,1/2+z
10 3/4-y,1/4+x,3/4+z
11 -x,1/2-y,z
12 3/4+y,3/4-x,1/4+z
13 1/2+x,1/2-y,-z
14 3/4+y,1/4+x,1/4-z
15 -x,1/2+y,1/2-z
16 3/4-y,3/4-x,3/4-z
17 -x,-y,-z
18 3/4+y,1/4-x,3/4-z
19 1/2+x,y,1/2-z
20 3/4-y,3/4+x,1/4-z
21 -x,y,1/2+z
22 3/4-y,1/4-x,1/4+z
23 1/2+x,-y,z
24 3/4+y,3/4+x,3/4+z
25 1/2-x,1/2-y,1/2-z
26 1/4+y,3/4-x,1/4-z
27 x,1/2+y,-z
28 1/4-y,1/4+x,3/4-z
29 1/2-x,1/2+y,z
30 1/4-y,3/4-x,3/4+z
31 x,1/2-y,1/2+z
32 1/4+y,1/4+x,1/4+z
_cell_length_a                   13.6570(19)
_cell_length_b                   13.6570(19)
_cell_length_c                   53.305(11)
_cell_angle_alpha                90
_cell_angle_beta                 90
_cell_angle_gamma                90
_cell_volume                     9942.11
loop_
_atom_site_label
_atom_site_type_symbol
_atom_site_fract_x
_atom_site_fract_y
_atom_site_fract_z
_atom_site_U_iso_or_equiv
_atom_site_thermal_displace_type
Cu1 Cu -1.05969(4) -0.06391(4) 0.118004(11) 0.0391 Uani
S1 S -1.12845(8) -0.20578(9) 0.10164(2) 0.0368 Uani
N1 N -0.9718(3) -0.0205(3) 0.08593(7) 0.0427 Uani
N2 N -1.1497(3) 0.0412(3) 0.12349(9) 0.0433 Uani
N3 N -0.8485(3) 0.0285(5) -0.00173(8) 0.0710 Uani
N4 N -0.7047(3) 0.0284(5) 0.02250(8) 0.0703 Uani
C1 C -0.8783(4) 0.0031(4) 0.08729(9) 0.0493 Uani
H1 H -0.8502 0.0094 0.1031 0.0590 Uiso
C2 C -0.8197(4) 0.0188(5) 0.06663(9) 0.0593 Uani
H2 H -0.7535 0.0329 0.0685 0.0710 Uiso
C3 C -0.8604(3) 0.0114(4) 0.04310(8) 0.0440 Uani
C4 C -0.9566(4) -0.0110(6) 0.04160(10) 0.0783 Uani
H3 H -0.9876 -0.0125 0.0261 0.0940 Uiso
C5 C -1.0099(4) -0.0266(6) 0.06343(10) 0.0793 Uani
H4 H -1.0748 -0.0466 0.0620 0.0950 Uiso
C6 C -0.8010(4) 0.0236(4) 0.02011(9) 0.0503 Uani
Mo1 Mo -1.0000 -0.2500 0.1250 0.0274 Uani
N1F N -0.5282(3) -0.0205(3) -0.08593(7) 0.0427 Uani
N3F N -0.6515(3) 0.0285(5) 0.00173(8) 0.0710 Uani
N4F N -0.7953(3) 0.0284(5) -0.02250(8) 0.0703 Uani
C1F C -0.6217(4) 0.0031(4) -0.08729(9) 0.0493 Uani
H1F H -0.6498 0.0094 -0.1031 0.0590 Uiso
C2F C -0.6803(4) 0.0188(5) -0.06663(9) 0.0593 Uani
H2F H -0.7465 0.0329 -0.0685 0.0710 Uiso
C3F C -0.6396(3) 0.0114(4) -0.04310(8) 0.0440 Uani
C4F C -0.5434(4) -0.0110(6) -0.04160(10) 0.0783 Uani
H3F H -0.5124 -0.0125 -0.0261 0.0940 Uiso
C5F C -0.4901(4) -0.0266(6) -0.06343(10) 0.0793 Uani
H4F H -0.4252 -0.0466 -0.0620 0.0950 Uiso
C6F C -0.6990(4) 0.0236(4) -0.02011(9) 0.0503 Uani
N2M N -1.2088(3) 0.1003(3) 0.12651(9) 0.0433 Uani
Cu1F Cu -0.44031(4) -0.06391(4) -0.118004(11) 0.0391 Uani
S1F S -0.37155(8) -0.20578(9) -0.10164(2) 0.0368 Uani
N2F N -0.3503(3) 0.0412(3) -0.12349(9) 0.0433 Uani
N2I N -0.2912(3) 0.1003(3) -0.12651(9) 0.0433 Uani
Cu1J Cu -0.94031(4) -0.43609(4) 0.118004(11) 0.0391 Uani
S1J S -0.87155(8) -0.29422(9) 0.10164(2) 0.0368 Uani
N1J N -1.0282(3) -0.4795(3) 0.08593(7) 0.0427 Uani
N3J N -1.1515(3) -0.5285(5) -0.00173(8) 0.0710 Uani
N4J N -1.2953(3) -0.5284(5) 0.02250(8) 0.0703 Uani
C1J C -1.1217(4) -0.5031(4) 0.08729(9) 0.0493 Uani
H1J H -1.1498 -0.5094 0.1031 0.0590 Uiso
C2J C -1.1803(4) -0.5188(5) 0.06663(9) 0.0593 Uani
H2J H -1.2465 -0.5329 0.0685 0.0710 Uiso
C3J C -1.1396(3) -0.5114(4) 0.04310(8) 0.0440 Uani
C4J C -1.0434(4) -0.4890(6) 0.04160(10) 0.0783 Uani
H3J H -1.0124 -0.4875 0.0261 0.0940 Uiso
C5J C -0.9901(4) -0.4734(6) 0.06343(10) 0.0793 Uani
H4J H -0.9252 -0.4534 0.0620 0.0950 Uiso
C6J C -1.1990(4) -0.5236(4) 0.02011(9) 0.0503 Uani
N1L N -1.4718(3) -0.4795(3) -0.08593(7) 0.0427 Uani
N3L N -1.3485(3) -0.5285(5) 0.00173(8) 0.0710 Uani
N4L N -1.2047(3) -0.5284(5) -0.02250(8) 0.0703 Uani
C1L C -1.3783(4) -0.5031(4) -0.08729(9) 0.0493 Uani
H1L H -1.3502 -0.5094 -0.1031 0.0590 Uiso
C2L C -1.3197(4) -0.5188(5) -0.06663(9) 0.0593 Uani
H2L H -1.2535 -0.5329 -0.0685 0.0710 Uiso
C3L C -1.3604(3) -0.5114(4) -0.04310(8) 0.0440 Uani
C4L C -1.4566(4) -0.4890(6) -0.04160(10) 0.0783 Uani
H3L H -1.4876 -0.4875 -0.0261 0.0940 Uiso
C5L C -1.5099(4) -0.4734(6) -0.06343(10) 0.0793 Uani
H4L H -1.5748 -0.4534 -0.0620 0.0950 Uiso
C6L C -1.3010(4) -0.5236(4) -0.02011(9) 0.0503 Uani
Cu1M Cu -1.31391(4) 0.19031(4) 0.131996(11) 0.0391 Uani
S1M S -1.45578(9) 0.12155(8) 0.14836(2) 0.0368 Uani
Cu1I Cu -0.18609(4) 0.19031(4) -0.131996(11) 0.0391 Uani
Cu1L Cu -1.55969(4) -0.43609(4) -0.118004(11) 0.0391 Uani
Cu1S Cu -1.18609(4) -0.30969(4) 0.131996(11) 0.0391 Uani
Cu1V Cu -1.55969(4) 0.06391(4) 0.118004(11) 0.0391 Uani
Cu1W Cu -0.31391(4) -0.30969(4) -0.131996(11) 0.0391 Uani
Cu1Y Cu -0.81391(4) -0.19031(4) 0.131996(11) 0.0391 Uani
S1S S -1.04422(9) -0.37845(8) 0.14836(2) 0.0368 Uani
S1Y S -0.95578(9) -0.12155(8) 0.14836(2) 0.0368 Uani
S1BA S -1.37155(8) 0.29422(9) 0.10164(2) 0.0368 Uani
S1CA S -0.54422(9) -0.12155(8) -0.14836(2) 0.0368 Uani
N1M N -1.2705(3) 0.2782(3) 0.16407(7) 0.0427 Uani
N2J N -0.8503(3) -0.5412(3) 0.12349(9) 0.0433 Uani
Mo1F Mo -0.5000 -0.2500 -0.1250 0.0274 Uani
Mo1G Mo -1.5000 0.2500 0.1250 0.0274 Uani
loop_
_atom_site_aniso_label
_atom_site_aniso_U_11
_atom_site_aniso_U_22
_atom_site_aniso_U_33
_atom_site_aniso_U_23
_atom_site_aniso_U_13
_atom_site_aniso_U_12
Cu1 0.0364(3) 0.0335(3) 0.0474(4) 0.0010(2) 0.0028(2) 0.0084(2)
S1 0.0324(6) 0.0394(6) 0.0387(6) 0.0033(5) -0.0060(4) -0.0018(5)
N1 0.039(2) 0.052(3) 0.037(2) 0.0081(18) -0.0005(17) 0.0019(19)
N2 0.037(2) 0.042(2) 0.051(2) 0.002(2) 0.002(2) 0.0032(17)
N3 0.034(2) 0.144(5) 0.035(2) 0.006(3) 0.0022(19) 0.001(3)
N4 0.034(2) 0.141(5) 0.036(2) -0.003(3) 0.0018(18) -0.005(3)
C1 0.037(3) 0.074(4) 0.037(2) 0.009(2) 0.000(2) -0.002(3)
C2 0.034(3) 0.104(5) 0.040(3) 0.002(3) 0.003(2) -0.013(3)
C3 0.032(2) 0.066(3) 0.034(2) 0.005(2) 0.0029(19) 0.002(2)
C4 0.040(3) 0.160(8) 0.035(3) 0.013(4) -0.005(2) -0.021(4)
C5 0.037(3) 0.156(7) 0.045(3) 0.020(4) -0.001(2) -0.018(4)
C6 0.036(3) 0.079(4) 0.036(2) 0.002(2) 0.003(2) -0.005(3)
Mo1 0.0252(3) 0.0252(3) 0.0319(4) 0.000 0.000 0.000
N1F 0.039 0.052 0.037 -0.0081 -0.0005 -0.0019
N3F 0.034 0.144 0.035 -0.006 0.0022 -0.001
N4F 0.034 0.141 0.036 0.003 0.0018 0.005
C1F 0.037 0.074 0.037 -0.009 0 0.002
C2F 0.034 0.104 0.04 -0.002 0.003 0.013
C3F 0.032 0.066 0.034 -0.005 0.0029 -0.002
C4F 0.04 0.16 0.035 -0.013 -0.005 0.021
C5F 0.037 0.156 0.045 -0.02 -0.001 0.018
C6F 0.036 0.079 0.036 -0.002 0.003 0.005
N2M 0.042 0.037 0.051 -0.002 -0.002 0.0032
Cu1F 0.0364 0.0335 0.0474 -0.001 0.0028 -0.0084
S1F 0.0324 0.0394 0.0387 -0.0033 -0.006 0.0018
N2F 0.037 0.042 0.051 -0.002 0.002 -0.0032
N2I 0.042 0.037 0.051 0.002 -0.002 -0.0032
Cu1J 0.0364 0.0335 0.0474 -0.001 -0.0028 0.0084
S1J 0.0324 0.0394 0.0387 -0.0033 0.006 -0.0018
N1J 0.039 0.052 0.037 -0.0081 0.0005 0.0019
N3J 0.034 0.144 0.035 -0.006 -0.0022 0.001
N4J 0.034 0.141 0.036 0.003 -0.0018 -0.005
C1J 0.037 0.074 0.037 -0.009 0 -0.002
C2J 0.034 0.104 0.04 -0.002 -0.003 -0.013
C3J 0.032 0.066 0.034 -0.005 -0.0029 0.002
C4J 0.04 0.16 0.035 -0.013 0.005 -0.021
C5J 0.037 0.156 0.045 -0.02 0.001 -0.018
C6J 0.036 0.079 0.036 -0.002 -0.003 -0.005
N1L 0.039 0.052 0.037 0.0081 0.0005 -0.0019
N3L 0.034 0.144 0.035 0.006 -0.0022 -0.001
N4L 0.034 0.141 0.036 -0.003 -0.0018 0.005
C1L 0.037 0.074 0.037 0.009 0 0.002
C2L 0.034 0.104 0.04 0.002 -0.003 0.013
C3L 0.032 0.066 0.034 0.005 -0.0029 -0.002
C4L 0.04 0.16 0.035 0.013 0.005 0.021
C5L 0.037 0.156 0.045 0.02 0.001 0.018
C6L 0.036 0.079 0.036 0.002 -0.003 0.005
Cu1M 0.0335 0.0364 0.0474 -0.0028 -0.001 0.0084
S1M 0.0394 0.0324 0.0387 0.006 -0.0033 -0.0018
Cu1I 0.0335 0.0364 0.0474 0.0028 -0.001 -0.0084
Cu1L 0.0364 0.0335 0.0474 0.001 -0.0028 -0.0084
Cu1S 0.0335 0.0364 0.0474 -0.0028 0.001 -0.0084
Cu1V 0.0364 0.0335 0.0474 -0.001 0.0028 -0.0084
Cu1W 0.0335 0.0364 0.0474 0.0028 0.001 0.0084
Cu1Y 0.0335 0.0364 0.0474 0.0028 -0.001 -0.0084
S1S 0.0394 0.0324 0.0387 0.006 0.0033 0.0018
S1Y 0.0394 0.0324 0.0387 -0.006 -0.0033 0.0018
S1BA 0.0324 0.0394 0.0387 0.0033 0.006 0.0018
S1CA 0.0394 0.0324 0.0387 0.006 -0.0033 -0.0018
N1M 0.052 0.039 0.037 0.0005 -0.0081 0.0019
N2J 0.037 0.042 0.051 -0.002 -0.002 0.0032
Mo1F 0.0252 0.0252 0.0319 0 0 0
Mo1G 0.0252 0.0252 0.0319 0 0 0
loop_
_geom_bond_atom_site_label_1
_geom_bond_atom_site_label_2
_geom_bond_site_symmetry_1
_geom_bond_site_symmetry_2
Cu1 S1 1_555 1_555
S1 Mo1 1_555 1_555
N1 Cu1 1_555 1_555
N2 Cu1 1_555 1_555
N3 C6 1_555 1_555
N4 C6 1_555 1_555
C1 N1 1_555 1_555
H1 C1 1_555 1_555
C2 C1 1_555 1_555
H2 C2 1_555 1_555
C3 C2 1_555 1_555
C4 C3 1_555 1_555
H3 C4 1_555 1_555
C5 N1 1_555 1_555
H4 C5 1_555 1_555
C6 C3 1_555 1_555
Mo1 S1J 1_555 1_555
N1F C1F 1_555 1_555
N3F N4 1_555 1_555
N4F N3 1_555 1_555
C1F H1F 1_555 1_555
C2F C1F 1_555 1_555
H2F C2F 1_555 1_555
C3F C2F 1_555 1_555
C4F C3F 1_555 1_555
H3F C4F 1_555 1_555
C5F N1F 1_555 1_555
H4F C5F 1_555 1_555
C6F N3F 1_555 1_555
N2M N2 1_555 1_555
Cu1F N1F 1_555 1_555
S1F Cu1F 1_555 1_555
N2F Cu1F 1_555 1_555
N2I N2F 1_555 1_555
Cu1J S1J 1_555 1_555
S1J Cu1Y 1_555 1_555
N1J Cu1J 1_555 1_555
N3J C6J 1_555 1_555
N4J C6J 1_555 1_555
C1J N1J 1_555 1_555
H1J C1J 1_555 1_555
C2J C1J 1_555 1_555
H2J C2J 1_555 1_555
C3J C2J 1_555 1_555
C4J C3J 1_555 1_555
H3J C4J 1_555 1_555
C5J N1J 1_555 1_555
H4J C5J 1_555 1_555
C6J C3J 1_555 1_555
N1L C1L 1_555 1_555
N3L N4J 1_555 1_555
N4L N3J 1_555 1_555
C1L H1L 1_555 1_555
C2L C1L 1_555 1_555
H2L C2L 1_555 1_555
C3L C2L 1_555 1_555
C4L C3L 1_555 1_555
H3L C4L 1_555 1_555
C5L N1L 1_555 1_555
H4L C5L 1_555 1_555
C6L N3L 1_555 1_555
Cu1M N2M 1_555 1_555
S1M Cu1M 1_555 1_555
Cu1I N2I 1_555 1_555
Cu1L N1L 1_555 1_555
Cu1S S1 1_555 1_555
Cu1V S1M 1_555 1_555
Cu1W S1F 1_555 1_555
Cu1Y S1Y 1_555 1_555
S1S Mo1 1_555 1_555
S1Y Cu1 1_555 1_555
S1BA Cu1M 1_555 1_555
S1CA Cu1F 1_555 1_555
N1M Cu1M 1_555 1_555
N2J Cu1J 1_555 1_555
Mo1F S1F 1_555 1_555
Mo1G S1M 1_555 1_555
C4 C5 1_555 1_555
Mo1 S1Y 1_555 1_555
N4F C6F 1_555 1_555
C3F C6F 1_555 1_555
C4F C5F 1_555 1_555
Cu1J S1S 1_555 1_555
C4J C5J 1_555 1_555
N4L C6L 1_555 1_555
C3L C6L 1_555 1_555
C4L C5L 1_555 1_555
Cu1S S1S 1_555 1_555
S1BA Mo1G 1_555 1_555
S1CA Mo1F 1_555 1_555

#END
