
#######################################################################
#
#                 Cambridge Crystallographic Data Centre
#                                CCDC 
#
#######################################################################
#
# If this CIF has been generated from an entry in the Cambridge 
# Structural Database, then it will include bibliographic, chemical, 
# crystal, experimental, refinement or atomic coordinate data resulting 
# from the CCDC's data processing and validation procedures.
#
#######################################################################

data_DOLXOR01
_chemical_formula_moiety         '(C18 H28 Cu5 N10 O4)n'
_symmetry_cell_setting           monoclinic
_symmetry_space_group_name_H-M   'C 2/c'
_symmetry_Int_Tables_number      15
_space_group_name_Hall           '-C 2yc'
loop_
_symmetry_equiv_pos_site_id
_symmetry_equiv_pos_as_xyz
1 x,y,z
2 1/2+x,1/2+y,z
3 x,-y,1/2+z
4 1/2+x,1/2-y,1/2+z
5 -x,-y,-z
6 1/2-x,1/2-y,-z
7 -x,y,1/2-z
8 1/2-x,1/2+y,1/2-z
_cell_length_a                   14.054(4)
_cell_length_b                   12.597(4)
_cell_length_c                   16.424(5)
_cell_angle_alpha                90
_cell_angle_beta                 92.008(6)
_cell_angle_gamma                90
_cell_volume                     2905.89
loop_
_atom_site_label
_atom_site_type_symbol
_atom_site_fract_x
_atom_site_fract_y
_atom_site_fract_z
Cu1 Cu 0.18579(4) 0.67803(5) 0.50256(3)
Cu2 Cu 0.5000 0.5000 0.5000
Cu3 Cu 0.0000 0.63662(9) 0.7500
Cu4 Cu 0.0000 0.60220(9) 0.2500
N1 N 0.3879(3) 0.5868(3) 0.5134(2)
C1 C 0.3214(3) 0.6380(4) 0.5108(3)
N2 N 0.1143(3) 0.6565(4) 0.6034(3)
C2 C 0.0728(3) 0.6443(4) 0.6614(3)
N3 N 0.1197(3) 0.6355(4) 0.3983(3)
C3 C 0.0778(4) 0.6158(4) 0.3399(3)
O1 O 0.4221(2) 0.3547(3) 0.5534(2)
N4 N 0.3685(3) 0.1884(4) 0.5257(3)
C4 C 0.4191(4) 0.2748(5) 0.5117(3)
H1 H 0.4559 0.2744 0.4657
C5 C 0.3136(4) 0.1799(6) 0.5977(4)
H2 H 0.3119 0.2475 0.6245
H3 H 0.3423 0.1283 0.6339
H4 H 0.2499 0.1582 0.5827
C6 C 0.3707(5) 0.0976(5) 0.4721(4)
H5 H 0.3970 0.1181 0.4213
H6 H 0.3071 0.0715 0.4624
H7 H 0.4093 0.0429 0.4970
O2 O 0.5506(2) 0.5473(3) 0.6152(2)
N5 N 0.6405(3) 0.5192(4) 0.7295(3)
C7 C 0.5967(4) 0.4887(5) 0.6624(3)
H8 H 0.6003 0.4172 0.6489
C8 C 0.6952(5) 0.4456(7) 0.7813(4)
H9 H 0.6909 0.3755 0.7587
H10 H 0.6702 0.4455 0.8349
H11 H 0.7607 0.4675 0.7844
C9 C 0.6366(5) 0.6281(5) 0.7560(4)
H12 H 0.6029 0.6697 0.7154
H13 H 0.7001 0.6551 0.7638
H14 H 0.6042 0.6321 0.8064
N1D N 0.6121(3) 0.4132(3) 0.4866(2)
C1D C 0.6786(3) 0.3620(4) 0.4892(3)
O1D O 0.5779(2) 0.6453(3) 0.4466(2)
N4D N 0.6315(3) 0.8116(4) 0.4743(3)
C4D C 0.5809(4) 0.7252(5) 0.4883(3)
H1D H 0.5441 0.7256 0.5343
C5D C 0.6864(4) 0.8201(6) 0.4023(4)
H2D H 0.6881 0.7525 0.3755
H3D H 0.6577 0.8717 0.3661
H4D H 0.7501 0.8418 0.4173
C6D C 0.6293(5) 0.9024(5) 0.5279(4)
H5D H 0.6030 0.8819 0.5787
H6D H 0.6929 0.9285 0.5376
H7D H 0.5907 0.9571 0.5030
O2D O 0.4494(2) 0.4527(3) 0.3848(2)
N5D N 0.3595(3) 0.4808(4) 0.2705(3)
C7D C 0.4033(4) 0.5113(5) 0.3376(3)
H8D H 0.3997 0.5828 0.3511
C8D C 0.3048(5) 0.5544(7) 0.2187(4)
H9D H 0.3091 0.6245 0.2413
H10D H 0.3298 0.5545 0.1651
H11D H 0.2393 0.5325 0.2156
C9D C 0.3634(5) 0.3719(5) 0.2440(4)
H12D H 0.3971 0.3303 0.2846
H13D H 0.2999 0.3449 0.2362
H14D H 0.3958 0.3679 0.1936
Cu1D Cu 0.81421(4) 0.32197(5) 0.49744(3)
N2D N 0.8857(3) 0.3435(4) 0.3966(3)
C2D C 0.9272(3) 0.3557(4) 0.3386(3)
N3D N 0.8803(3) 0.3645(4) 0.6017(3)
C3D C 0.9222(4) 0.3842(4) 0.6601(3)
Cu1E Cu 0.31421(4) 0.82197(5) 0.49744(3)
C1E C 0.1786(3) 0.8620(4) 0.4892(3)
Cu4B Cu 0.0000 0.39780(9) 0.7500
C2F C -0.0728(3) 0.6443(4) 0.8386(3)
Cu3B Cu 0.0000 0.36338(9) 0.2500
C3F C -0.0778(4) 0.6158(4) 0.1601(3)
Cu1A Cu 0.68579(4) 0.17803(5) 0.50256(3)
C1A C 0.8214(3) 0.1380(4) 0.5108(3)
Cu3B_2 Cu 1.0000 0.36338(9) 0.2500
Cu4B_2 Cu 1.0000 0.39780(9) 0.7500
loop_
_geom_bond_atom_site_label_1
_geom_bond_atom_site_label_2
_geom_bond_site_symmetry_1
_geom_bond_site_symmetry_2
Cu1 C1 1_555 1_555
Cu2 N1 1_555 1_555
Cu3 C2 1_555 1_555
Cu4 C3 1_555 1_555
N1 C1 1_555 1_555
C1 Cu1E 1_555 1_555
N2 Cu1 1_555 1_555
C2 N2 1_555 1_555
N3 Cu1 1_555 1_555
C3 N3 1_555 1_555
O1 Cu2 1_555 1_555
N4 C4 1_555 1_555
C4 O1 1_555 1_555
H1 C4 1_555 1_555
C5 N4 1_555 1_555
H2 C5 1_555 1_555
H3 C5 1_555 1_555
H4 C5 1_555 1_555
C6 N4 1_555 1_555
H5 C6 1_555 1_555
H6 C6 1_555 1_555
H7 C6 1_555 1_555
O2 Cu2 1_555 1_555
N5 C7 1_555 1_555
C7 O2 1_555 1_555
H8 C7 1_555 1_555
C8 N5 1_555 1_555
H9 C8 1_555 1_555
H10 C8 1_555 1_555
H11 C8 1_555 1_555
C9 N5 1_555 1_555
H12 C9 1_555 1_555
H13 C9 1_555 1_555
H14 C9 1_555 1_555
N1D Cu2 1_555 1_555
C1D N1D 1_555 1_555
O1D Cu2 1_555 1_555
N4D C4D 1_555 1_555
C4D O1D 1_555 1_555
H1D C4D 1_555 1_555
C5D N4D 1_555 1_555
H2D C5D 1_555 1_555
H3D C5D 1_555 1_555
H4D C5D 1_555 1_555
C6D N4D 1_555 1_555
H5D C6D 1_555 1_555
H6D C6D 1_555 1_555
H7D C6D 1_555 1_555
O2D Cu2 1_555 1_555
N5D C7D 1_555 1_555
C7D O2D 1_555 1_555
H8D C7D 1_555 1_555
C8D N5D 1_555 1_555
H9D C8D 1_555 1_555
H10D C8D 1_555 1_555
H11D C8D 1_555 1_555
C9D N5D 1_555 1_555
H12D C9D 1_555 1_555
H13D C9D 1_555 1_555
H14D C9D 1_555 1_555
Cu1D C1D 1_555 1_555
N2D Cu1D 1_555 1_555
C2D N2D 1_555 1_555
N3D Cu1D 1_555 1_555
C3D N3D 1_555 1_555
Cu1E Cu1 1_555 1_555
C1E Cu1 1_555 1_555
Cu4B Cu3 1_555 1_555
C2F Cu3 1_555 1_555
Cu3B Cu4 1_555 1_555
C3F Cu4 1_555 1_555
Cu1A C1D 1_555 1_555
C1A Cu1D 1_555 1_555
Cu3B_2 C2D 1_555 1_555
Cu4B_2 C3D 1_555 1_555
Cu1D Cu1A 1_555 1_555
Cu1E C1E 1_555 1_555
Cu1A C1A 1_555 1_555

#END
