
#######################################################################
#
#                 Cambridge Crystallographic Data Centre
#                                CCDC 
#
#######################################################################
#
# If this CIF has been generated from an entry in the Cambridge 
# Structural Database, then it will include bibliographic, chemical, 
# crystal, experimental, refinement or atomic coordinate data resulting 
# from the CCDC's data processing and validation procedures.
#
#######################################################################

data_GARQAU
_chemical_formula_moiety         '(C24 H22 N4 O4 Zn1)n'
_symmetry_cell_setting           rhombohedral
_symmetry_space_group_name_H-M   'R -3'
_symmetry_Int_Tables_number      148
_space_group_name_Hall           '-R 3'
loop_
_symmetry_equiv_pos_site_id
_symmetry_equiv_pos_as_xyz
1 x,y,z
2 -y,x-y,z
3 -x+y,-x,z
4 2/3+x,1/3+y,1/3+z
5 2/3-y,1/3+x-y,1/3+z
6 2/3-x+y,1/3-x,1/3+z
7 1/3+x,2/3+y,2/3+z
8 1/3-y,2/3+x-y,2/3+z
9 1/3-x+y,2/3-x,2/3+z
10 -x,-y,-z
11 y,-x+y,-z
12 x-y,x,-z
13 1/3-x,2/3-y,2/3-z
14 1/3+y,2/3-x+y,2/3-z
15 1/3+x-y,2/3+x,2/3-z
16 2/3-x,1/3-y,1/3-z
17 2/3+y,1/3-x+y,1/3-z
18 2/3+x-y,1/3+x,1/3-z
_cell_length_a                   36.6350(14)
_cell_length_b                   36.6350(14)
_cell_length_c                   12.1278(9)
_cell_angle_alpha                90
_cell_angle_beta                 90
_cell_angle_gamma                120
_cell_volume                     14096.3
loop_
_atom_site_label
_atom_site_type_symbol
_atom_site_fract_x
_atom_site_fract_y
_atom_site_fract_z
Zn1 Zn 0.13530(2) 0.64883(2) 1.44334(2)
O1 O 0.02813(6) 0.78912(8) 0.88858(15)
O2 O -0.03126(7) 0.75506(9) 0.98846(17)
O3 O 0.45711(10) 0.85566(7) 1.44246(16)
O4 O 0.44375(10) 0.85205(7) 1.26110(17)
N1 N 0.11048(7) 0.65662(7) 1.30567(18)
N2 N 0.11055(8) 0.63838(8) 1.20819(18)
H1 H 0.1211 0.6217 1.1989
N3 N 0.19361(7) 0.73058(8) 1.54656(19)
H2 H 0.1728 0.7282 1.5879
N4 N 0.19031(7) 0.70045(8) 1.47568(19)
C1 C 0.05985(8) 0.69701(8) 1.1200(2)
C2 C 0.00453(9) 0.76274(12) 0.9623(2)
C3 C 0.02390(8) 0.73993(8) 1.0185(2)
C4 C 0.06258(8) 0.74588(8) 0.9825(2)
H3 H 0.0770 0.7648 0.9237
C5 C 0.08004(8) 0.72418(8) 1.0322(2)
H4 H 0.1061 0.7279 1.0062
C6 C 0.02137(8) 0.69162(8) 1.1569(2)
H5 H 0.0074 0.6734 1.2173
C7 C 0.00332(8) 0.71267(8) 1.1056(2)
H6 H -0.0231 0.7084 1.1302
C8 C 0.07982(8) 0.67546(8) 1.1751(2)
C9 C 0.09161(8) 0.67915(8) 1.2863(2)
C10 C 0.09242(9) 0.64910(9) 1.1276(2)
C11 C 0.08589(9) 0.70450(9) 1.3744(2)
H7 H 0.0714 0.7186 1.3435
H8 H 0.0690 0.6858 1.4345
H9 H 0.1135 0.7257 1.4029
C12 C 0.08819(12) 0.63318(12) 1.0123(2)
H10 H 0.0742 0.6447 0.9669
H11 H 0.1162 0.6421 0.9821
H12 H 0.0714 0.6023 1.0123
C13 C 0.43265(13) 0.84710(9) 1.3592(2)
C14 C 0.38667(13) 0.82756(9) 1.3871(2)
C15 C 0.37363(17) 0.82370(12) 1.4963(3)
H13 H 0.3939 0.8360 1.5534
C16 C 0.33130(10) 0.80205(13) 1.5221(3)
H14 H 0.3229 0.8001 1.5970
C17 C 0.30065(9) 0.78301(10) 1.4408(2)
C18 C 0.31400(9) 0.78876(10) 1.3312(2)
H15 H 0.2937 0.7773 1.2737
C19 C 0.35661(13) 0.81099(9) 1.3052(2)
H16 H 0.3651 0.8148 1.2301
C20 C 0.25574(8) 0.75639(10) 1.4696(2)
C21 C 0.23253(9) 0.76456(10) 1.5460(2)
C22 C 0.22817(9) 0.71597(11) 1.4281(2)
C23 C 0.24384(10) 0.80185(11) 1.6167(3)
H17 H 0.2734 0.8231 1.6044
H18 H 0.2259 0.8137 1.5978
H19 H 0.2397 0.7933 1.6943
C24 C 0.23599(11) 0.68923(13) 1.3477(3)
H20 H 0.2357 0.6658 1.3871
H21 H 0.2635 0.7064 1.3123
H22 H 0.2138 0.6781 1.2914
Zn1B Zn 0.51353(3) 0.86470(2) 1.44334(2)
Zn1D Zn 0.01784(2) 0.81980(3) 0.77667(2)
O1H O 0.09432(10) 0.63854(6) 1.55525(15)
O3A O 0.14434(7) 0.60145(12) 1.44246(16)
loop_
_geom_bond_atom_site_label_1
_geom_bond_atom_site_label_2
_geom_bond_site_symmetry_1
_geom_bond_site_symmetry_2
Zn1 N1 1_555 1_555
O1 C2 1_555 1_555
O2 C2 1_555 1_555
O3 C13 1_555 1_555
O4 C13 1_555 1_555
N1 N2 1_555 1_555
N2 H1 1_555 1_555
N3 H2 1_555 1_555
N4 Zn1 1_555 1_555
C1 C5 1_555 1_555
C2 C3 1_555 1_555
C3 C4 1_555 1_555
C4 H3 1_555 1_555
C5 C4 1_555 1_555
H4 C5 1_555 1_555
C6 C1 1_555 1_555
H5 C6 1_555 1_555
C7 C3 1_555 1_555
H6 C7 1_555 1_555
C8 C1 1_555 1_555
C9 N1 1_555 1_555
C10 N2 1_555 1_555
C11 C9 1_555 1_555
H7 C11 1_555 1_555
H8 C11 1_555 1_555
H9 C11 1_555 1_555
C12 C10 1_555 1_555
H10 C12 1_555 1_555
H11 C12 1_555 1_555
H12 C12 1_555 1_555
C13 C14 1_555 1_555
C14 C15 1_555 1_555
C15 H13 1_555 1_555
C16 C15 1_555 1_555
H14 C16 1_555 1_555
C17 C16 1_555 1_555
C18 C17 1_555 1_555
H15 C18 1_555 1_555
C19 C14 1_555 1_555
H16 C19 1_555 1_555
C20 C17 1_555 1_555
C21 N3 1_555 1_555
C22 N4 1_555 1_555
C23 C21 1_555 1_555
H17 C23 1_555 1_555
H18 C23 1_555 1_555
H19 C23 1_555 1_555
C24 C22 1_555 1_555
H20 C24 1_555 1_555
H21 C24 1_555 1_555
H22 C24 1_555 1_555
Zn1B O3 1_555 1_555
Zn1D O1 1_555 1_555
O1H Zn1 1_555 1_555
O3A Zn1 1_555 1_555
N3 N4 1_555 1_555
C6 C7 1_555 1_555
C8 C9 1_555 1_555
C8 C10 1_555 1_555
C18 C19 1_555 1_555
C20 C21 1_555 1_555
C20 C22 1_555 1_555

#END
