
#######################################################################
#
#                 Cambridge Crystallographic Data Centre
#                                CCDC 
#
#######################################################################
#
# If this CIF has been generated from an entry in the Cambridge 
# Structural Database, then it will include bibliographic, chemical, 
# crystal, experimental, refinement or atomic coordinate data resulting 
# from the CCDC's data processing and validation procedures.
#
#######################################################################

data_GARQEY
_chemical_formula_moiety         '(C24 H22 N4 O4 Zn1)n'
_symmetry_cell_setting           rhombohedral
_symmetry_space_group_name_H-M   'R -3'
_symmetry_Int_Tables_number      148
_space_group_name_Hall           '-R 3'
loop_
_symmetry_equiv_pos_site_id
_symmetry_equiv_pos_as_xyz
1 x,y,z
2 -y,x-y,z
3 -x+y,-x,z
4 2/3+x,1/3+y,1/3+z
5 2/3-y,1/3+x-y,1/3+z
6 2/3-x+y,1/3-x,1/3+z
7 1/3+x,2/3+y,2/3+z
8 1/3-y,2/3+x-y,2/3+z
9 1/3-x+y,2/3-x,2/3+z
10 -x,-y,-z
11 y,-x+y,-z
12 x-y,x,-z
13 1/3-x,2/3-y,2/3-z
14 1/3+y,2/3-x+y,2/3-z
15 1/3+x-y,2/3+x,2/3-z
16 2/3-x,1/3-y,1/3-z
17 2/3+y,1/3-x+y,1/3-z
18 2/3+x-y,1/3+x,1/3-z
_cell_length_a                   36.3922(7)
_cell_length_b                   36.3922(7)
_cell_length_c                   11.2519(3)
_cell_angle_alpha                90
_cell_angle_beta                 90
_cell_angle_gamma                120
_cell_volume                     12905.4
loop_
_atom_site_label
_atom_site_type_symbol
_atom_site_fract_x
_atom_site_fract_y
_atom_site_fract_z
_atom_site_U_iso_or_equiv
_atom_site_thermal_displace_type
Zn1 Zn 0.19897(2) 0.02290(2) 0.72981(4) 0.0644 Uani
N1 N 0.21640(9) 0.01879(9) 0.8964(3) 0.0689 Uani
O1 O -0.11820(8) -0.18561(10) 0.7094(3) 0.0917 Uani
O2 O 0.29733(9) -0.12230(8) 1.2977(3) 0.0870 Uani
N2 N 0.15024(9) -0.06278(10) 0.6283(3) 0.0743 Uani
N3 N 0.14731(8) -0.03213(10) 0.6875(3) 0.0755 Uani
N4 N 0.24167(10) 0.05517(11) 0.9556(3) 0.0782 Uani
C1 C 0.25321(11) 0.00753(12) 1.0371(3) 0.0717 Uani
O3 O 0.36325(10) -0.06940(9) 1.2648(3) 0.1019 Uani
C2 C 0.22348(12) -0.01026(11) 0.9460(3) 0.0697 Uani
C3 C 0.30561(12) -0.06045(12) 1.2075(3) 0.0710 Uani
C4 C 0.26425(12) 0.05006(13) 1.0400(4) 0.0832 Uani
C5 C 0.08421(11) -0.09135(13) 0.6824(4) 0.0801 Uani
C6 C -0.09530(12) -0.19233(13) 0.7797(4) 0.0843 Uani
C7 C 0.11282(10) -0.09900(13) 0.6234(3) 0.0770 Uani
C8 C 0.33174(12) -0.02164(13) 1.1534(4) 0.0792 Uani
H1 H 0.3609 -0.0110 1.1507 0.0950 Uiso
C9 C -0.04869(11) -0.16895(12) 0.7512(4) 0.0807 Uani
C10 C 0.26260(13) -0.07498(13) 1.2132(4) 0.0827 Uani
H2 H 0.2448 -0.1006 1.2511 0.0990 Uiso
O4 O -0.10760(9) -0.21486(12) 0.8691(4) 0.1310 Uani
C11 C 0.10698(11) -0.04944(14) 0.7215(4) 0.0843 Uani
C12 C 0.03807(11) -0.12038(13) 0.7037(4) 0.0821 Uani
C13 C 0.27155(12) -0.01422(12) 1.1051(3) 0.0729 Uani
C14 C 0.32433(14) -0.08540(12) 1.2600(3) 0.0773 Uani
C15 C 0.31476(12) 0.00108(13) 1.1036(3) 0.0793 Uani
H3 H 0.3327 0.0272 1.0684 0.0950 Uiso
C16 C 0.24565(13) -0.05217(14) 1.1635(4) 0.0878 Uani
H4 H 0.2167 -0.0623 1.1690 0.1050 Uiso
C17 C 0.20085(16) -0.05529(13) 0.9030(4) 0.0997 Uani
H5 H 0.2098 -0.0716 0.9487 0.1500 Uiso
H6 H 0.1708 -0.0670 0.9119 0.1500 Uiso
H7 H 0.2074 -0.0560 0.8207 0.1500 Uiso
C18 C 0.10789(14) -0.13744(14) 0.5628(4) 0.1014 Uani
H8 H 0.0789 -0.1599 0.5689 0.1520 Uiso
H9 H 0.1154 -0.1312 0.4805 0.1520 Uiso
H10 H 0.1261 -0.1461 0.5997 0.1520 Uiso
C19 C 0.00898(13) -0.12811(19) 0.6180(4) 0.1174 Uani
H11 H 0.0180 -0.1175 0.5419 0.1400 Uiso
C20 C 0.09254(15) -0.02399(18) 0.7914(6) 0.1296 Uani
H12 H 0.0628 -0.0411 0.8084 0.1940 Uiso
H13 H 0.1082 -0.0149 0.8645 0.1940 Uiso
H14 H 0.0974 0.0004 0.7460 0.1940 Uiso
C21 C 0.29415(19) 0.08568(18) 1.1187(6) 0.1396 Uani
H15 H 0.3073 0.0755 1.1734 0.2090 Uiso
H16 H 0.3156 0.1080 1.0709 0.2090 Uiso
H17 H 0.2788 0.0964 1.1620 0.2090 Uiso
C22 C -0.03436(13) -0.15185(18) 0.6423(4) 0.1150 Uani
H18 H -0.0538 -0.1560 0.5826 0.1380 Uiso
C23 C -0.01930(14) -0.16244(18) 0.8384(5) 0.1236 Uani
H19 H -0.0284 -0.1747 0.9130 0.1480 Uiso
C24 C 0.02383(14) -0.13761(19) 0.8150(5) 0.1279 Uani
H20 H 0.0433 -0.1325 0.8751 0.1540 Uiso
H21 H 0.2387(11) 0.0752(12) 0.942(3) 0.0660 Uiso
H22 H 0.1741(14) -0.0587(13) 0.607(4) 0.0940 Uiso
Zn1B Zn -0.17607(3) -0.19897(2) 0.72981(4) 0.0644 Uani
Zn1G Zn 0.31043(2) -0.15726(3) 1.39648(4) 0.0644 Uani
O1A O 0.18561(10) 0.06741(13) 0.7094(3) 0.0917 Uani
O2E O 0.24704(12) 0.03600(9) 0.6310(3) 0.0870 Uani
loop_
_atom_site_aniso_label
_atom_site_aniso_U_11
_atom_site_aniso_U_22
_atom_site_aniso_U_33
_atom_site_aniso_U_23
_atom_site_aniso_U_13
_atom_site_aniso_U_12
Zn1 0.0524(3) 0.0699(3) 0.0801(3) 0.0095(2) 0.0045(2) 0.0375(2)
N1 0.0697(17) 0.0645(17) 0.0840(18) 0.0029(15) -0.0055(15) 0.0421(15)
O1 0.0468(13) 0.107(2) 0.1016(19) -0.0086(16) 0.0044(13) 0.0236(14)
O2 0.0929(18) 0.0633(15) 0.1099(19) 0.0046(14) -0.0263(15) 0.0428(14)
N2 0.0438(16) 0.088(2) 0.084(2) -0.0057(16) 0.0022(14) 0.0277(16)
N3 0.0455(15) 0.084(2) 0.094(2) 0.0019(17) 0.0066(14) 0.0301(14)
N4 0.077(2) 0.0675(19) 0.105(2) 0.0014(17) -0.0172(17) 0.0472(17)
C1 0.068(2) 0.084(2) 0.079(2) 0.0124(19) 0.0015(18) 0.0499(19)
O3 0.086(2) 0.0844(18) 0.156(3) 0.0215(18) -0.0102(18) 0.0582(16)
C2 0.078(2) 0.073(2) 0.074(2) 0.0089(18) 0.0035(18) 0.0497(19)
C3 0.077(2) 0.074(2) 0.077(2) 0.0065(18) -0.0060(18) 0.049(2)
C4 0.079(2) 0.083(3) 0.103(3) 0.003(2) -0.020(2) 0.052(2)
C5 0.0454(18) 0.092(3) 0.092(3) 0.013(2) 0.0029(17) 0.0261(19)
C6 0.055(2) 0.070(2) 0.121(3) 0.008(2) 0.022(2) 0.0260(19)
C7 0.0468(18) 0.093(3) 0.079(2) 0.003(2) -0.0012(16) 0.0259(18)
C8 0.071(2) 0.087(3) 0.095(3) 0.018(2) 0.0046(19) 0.051(2)
C9 0.0474(19) 0.071(2) 0.114(3) 0.007(2) 0.015(2) 0.0224(17)
C10 0.078(2) 0.076(2) 0.096(3) 0.021(2) -0.001(2) 0.040(2)
O4 0.0638(17) 0.127(3) 0.203(4) 0.075(3) 0.047(2) 0.0483(18)
C11 0.053(2) 0.095(3) 0.105(3) 0.006(2) 0.0116(19) 0.037(2)
C12 0.0484(19) 0.090(3) 0.099(3) 0.013(2) 0.0090(19) 0.0279(18)
C13 0.078(2) 0.083(2) 0.076(2) 0.0142(19) 0.0015(18) 0.054(2)
C14 0.090(3) 0.070(2) 0.088(2) -0.0042(19) -0.016(2) 0.052(2)
C15 0.075(2) 0.083(2) 0.094(3) 0.028(2) 0.0081(19) 0.050(2)
C16 0.072(2) 0.097(3) 0.106(3) 0.027(2) 0.003(2) 0.051(2)
C17 0.133(4) 0.081(3) 0.103(3) -0.005(2) -0.020(3) 0.067(3)
C18 0.075(3) 0.094(3) 0.111(3) -0.018(3) 0.001(2) 0.024(2)
C19 0.053(2) 0.165(5) 0.083(3) 0.006(3) 0.007(2) 0.016(3)
C20 0.074(3) 0.122(4) 0.194(6) -0.010(4) 0.037(3) 0.050(3)
C21 0.139(5) 0.109(4) 0.180(5) -0.031(4) -0.084(4) 0.069(4)
C22 0.048(2) 0.159(5) 0.093(3) -0.007(3) 0.000(2) 0.018(2)
C23 0.064(3) 0.148(4) 0.156(4) 0.083(4) 0.027(3) 0.051(3)
C24 0.059(2) 0.164(5) 0.153(5) 0.075(4) 0.009(3) 0.050(3)
Zn1B 0.0473 0.0524 0.0801 -0.0045 0.005 0.0149
Zn1G 0.0699 0.0473 0.0801 -0.005 -0.0095 0.0324
O1A 0.107 0.1066 0.1016 0.013 0.0086 0.0834
O2E 0.0706 0.0929 0.1099 0.0263 0.0309 0.0501
loop_
_geom_bond_atom_site_label_1
_geom_bond_atom_site_label_2
_geom_bond_site_symmetry_1
_geom_bond_site_symmetry_2
Zn1 N1 1_555 1_555
N1 N4 1_555 1_555
O1 C6 1_555 1_555
O2 C14 1_555 1_555
N2 N3 1_555 1_555
N3 Zn1 1_555 1_555
N4 C4 1_555 1_555
C1 C2 1_555 1_555
O3 C14 1_555 1_555
C2 N1 1_555 1_555
C3 C8 1_555 1_555
C4 C1 1_555 1_555
C5 C7 1_555 1_555
C6 C9 1_555 1_555
C7 N2 1_555 1_555
C8 H1 1_555 1_555
C9 C22 1_555 1_555
C10 C3 1_555 1_555
H2 C10 1_555 1_555
O4 C6 1_555 1_555
C11 N3 1_555 1_555
C12 C5 1_555 1_555
C13 C1 1_555 1_555
C14 C3 1_555 1_555
C15 C8 1_555 1_555
H3 C15 1_555 1_555
C16 C10 1_555 1_555
H4 C16 1_555 1_555
C17 C2 1_555 1_555
H5 C17 1_555 1_555
H6 C17 1_555 1_555
H7 C17 1_555 1_555
C18 C7 1_555 1_555
H8 C18 1_555 1_555
H9 C18 1_555 1_555
H10 C18 1_555 1_555
C19 C12 1_555 1_555
H11 C19 1_555 1_555
C20 C11 1_555 1_555
H12 C20 1_555 1_555
H13 C20 1_555 1_555
H14 C20 1_555 1_555
C21 C4 1_555 1_555
H15 C21 1_555 1_555
H16 C21 1_555 1_555
H17 C21 1_555 1_555
C22 C19 1_555 1_555
H18 C22 1_555 1_555
C23 C9 1_555 1_555
H19 C23 1_555 1_555
C24 C12 1_555 1_555
H20 C24 1_555 1_555
H21 N4 1_555 1_555
H22 N2 1_555 1_555
Zn1B O1 1_555 1_555
Zn1G O2 1_555 1_555
O1A Zn1 1_555 1_555
O2E Zn1 1_555 1_555
C5 C11 1_555 1_555
C13 C15 1_555 1_555
C13 C16 1_555 1_555
C23 C24 1_555 1_555

#END
