
#######################################################################
#
#                 Cambridge Crystallographic Data Centre
#                                CCDC 
#
#######################################################################
#
# If this CIF has been generated from an entry in the Cambridge 
# Structural Database, then it will include bibliographic, chemical, 
# crystal, experimental, refinement or atomic coordinate data resulting 
# from the CCDC's data processing and validation procedures.
#
#######################################################################

data_MECLEL
_chemical_formula_moiety         '(C10 H4 Al6 F3 N8 O26 P6 3-)n'
_symmetry_cell_setting           monoclinic
_symmetry_space_group_name_H-M   'C 2/c'
_symmetry_Int_Tables_number      15
_space_group_name_Hall           '-C 2yc'
loop_
_symmetry_equiv_pos_site_id
_symmetry_equiv_pos_as_xyz
1 x,y,z
2 1/2+x,1/2+y,z
3 -x,y,1/2-z
4 1/2-x,1/2+y,1/2-z
5 -x,-y,-z
6 1/2-x,1/2-y,-z
7 x,-y,1/2+z
8 1/2+x,1/2-y,1/2+z
_cell_length_a                   14.26040(10)
_cell_length_b                   11.5999(2)
_cell_length_c                   18.3249(3)
_cell_angle_alpha                90
_cell_angle_beta                 90.3240(10)
_cell_angle_gamma                90
_cell_volume                     3031.24
loop_
_atom_site_label
_atom_site_type_symbol
_atom_site_fract_x
_atom_site_fract_y
_atom_site_fract_z
O2 O -0.2940(14) -0.2896(17) -0.2633(11)
N1 N -0.1930(6) -0.1603(7) -0.2522(5)
N2 N -0.0817(10) 0.0706(12) -0.1280(8)
N3 N -0.1032(12) 0.0872(15) -0.3666(9)
N4 N -0.0436(6) 0.1030(8) -0.2482(5)
C1 C -0.1224(7) -0.0892(9) -0.2512(5)
C2 C -0.0479(17) 0.1826(21) -0.3137(13)
C3 C -0.1288(23) 0.0155(29) -0.2464(17)
C4 C -0.0375(16) 0.1818(20) -0.1817(13)
C5 C -0.0004(15) 0.1672(17) -0.3741(12)
C5B C 0.0004(15) 0.1672(17) -0.1259(12)
N4B N 0.0436(6) 0.1030(8) -0.2518(5)
C4B C 0.0375(16) 0.1818(20) -0.3183(13)
C2B C 0.0479(17) 0.1826(21) -0.1863(13)
N2B N 0.0817(10) 0.0706(12) -0.3720(8)
N3B N 0.1032(12) 0.0872(15) -0.1334(9)
C3B C 0.1288(23) 0.0155(29) -0.2536(17)
C1B C 0.1224(7) -0.0892(9) -0.2488(5)
N1B N 0.1930(6) -0.1603(7) -0.2478(5)
P1 P 0.21613(6) -0.40754(8) -0.55989(5)
P2 P 0.09130(6) -0.73875(8) -0.57585(5)
P3 P 0.12106(6) -0.50620(8) -0.34332(5)
Al1 Al 0.22985(7) -0.63763(9) -0.46900(6)
Al2 Al 0.12645(7) -0.27829(9) -0.43338(6)
Al3 Al 0.08417(7) -0.46104(9) -0.18165(6)
F1 F -0.0000 -0.3907(3) -0.2500
F2 F 0.21867(15) -0.7949(2) -0.44613(11)
O3 O 0.2544(2) -0.4929(2) -0.50454(15)
O4 O 0.1482(2) -0.3843(2) -0.3688(2)
O5 O 0.1808(2) -0.5956(2) -0.38088(14)
O6 O 0.1484(2) -0.3234(2) -0.52204(15)
O7 O 0.1437(2) -0.5148(2) -0.26120(14)
O8 O 0.2995(2) -0.3359(2) -0.5892(2)
O9 O 0.1122(2) -0.6543(2) -0.51420(14)
O10 O -0.0135(2) -0.7746(2) -0.5732(2)
O11 O 0.3521(2) -0.6494(2) -0.42822(14)
O12 O 0.1089(2) -0.6812(2) -0.65046(14)
O13 O 0.1693(2) -0.4619(2) -0.62534(14)
O14 O 0.0164(2) -0.5284(3) -0.3568(2)
O10D O 0.0135(2) -0.2254(2) -0.4268(2)
O11E O 0.1479(2) -0.8506(2) -0.57178(14)
O12F O 0.1089(2) -0.3188(2) -0.15046(14)
F2E F 0.28133(15) -0.7051(2) -0.55387(11)
O8E O 0.2005(2) -0.1641(2) -0.4108(2)
O13F O 0.1693(2) -0.5381(2) -0.12534(14)
O14B O -0.0164(2) -0.5284(3) -0.1432(2)
Al3B Al -0.08417(7) -0.46104(9) -0.31835(6)
Al1E Al 0.27015(7) -0.86237(9) -0.53100(6)
Al2E Al 0.37355(7) -0.22171(9) -0.56662(6)
P2E P 0.40870(6) -0.76125(8) -0.42415(5)
Al3F Al 0.08417(7) -0.53896(9) -0.68165(6)
Al2D Al -0.12645(7) -0.72171(9) -0.56662(6)
P1E P 0.28387(6) -0.09246(8) -0.44011(5)
P3B P -0.12106(6) -0.50620(8) -0.15668(5)
O7B O -0.1437(2) -0.5148(2) -0.23880(14)
O12D O -0.1089(2) -0.3188(2) -0.34954(14)
O13D O -0.1693(2) -0.5381(2) -0.37466(14)
O3E O 0.2456(2) -1.0071(2) -0.49546(15)
O5E O 0.3192(2) -0.9044(2) -0.61912(14)
O9E O 0.3878(2) -0.8457(2) -0.48580(14)
O4E O 0.3518(2) -0.1157(2) -0.6312(2)
O6E O 0.3516(2) -0.1766(2) -0.47796(15)
O10A O 0.4865(2) -0.2746(2) -0.5732(2)
O10E O 0.5135(2) -0.7254(2) -0.4268(2)
O12E O 0.3911(2) -0.8188(2) -0.34954(14)
O3E_2 O 0.2456(2) -0.0071(2) -0.49546(15)
O13E O 0.3307(2) -0.0381(2) -0.37466(14)
O4B O -0.1482(2) -0.3843(2) -0.1312(2)
O5B O -0.1808(2) -0.5956(2) -0.11912(14)
Al2A Al 0.62645(7) -0.77829(9) -0.43338(6)
Al3C Al 0.41583(7) -0.96104(9) -0.31835(6)
Al2B Al -0.12645(7) -0.27829(9) -0.06662(6)
Al1E_2 Al 0.27015(7) 0.13763(9) -0.53100(6)
Al3C_2 Al 0.41583(7) 0.03896(9) -0.31835(6)
Al1B Al -0.22985(7) -0.63763(9) -0.03100(6)
O1 O -0.0000 -0.0000 -0.5000
loop_
_geom_bond_atom_site_label_1
_geom_bond_atom_site_label_2
_geom_bond_site_symmetry_1
_geom_bond_site_symmetry_2
N1 C1 1_555 1_555
N2 C4 1_555 1_555
N3 C2 1_555 1_555
N4 C2 1_555 1_555
C1 C3 1_555 1_555
C2 C5 1_555 1_555
C3 N4 1_555 1_555
C4 N4 1_555 1_555
C5 N3 1_555 1_555
P1 O3 1_555 1_555
P2 O9 1_555 1_555
P3 O4 1_555 1_555
Al1 F2 1_555 1_555
Al2 O4 1_555 1_555
Al3 F1 1_555 1_555
F1 Al3B 1_555 1_555
F2 Al1E 1_555 1_555
O3 Al1 1_555 1_555
O5 P3 1_555 1_555
O6 P1 1_555 1_555
O7 P3 1_555 1_555
O8 P1 1_555 1_555
O9 Al1 1_555 1_555
O10 P2 1_555 1_555
O11 Al1 1_555 1_555
O12 P2 1_555 1_555
O13 P1 1_555 1_555
O14 P3 1_555 1_555
C5B N2 1_555 1_555
N4B N4 1_555 1_555
C4B C2 1_555 1_555
C2B C4 1_555 1_555
N2B C5 1_555 1_555
N3B C5B 1_555 1_555
C3B N4B 1_555 1_555
C1B C3B 1_555 1_555
N1B C1B 1_555 1_555
O10D Al2 1_555 1_555
O11E P2 1_555 1_555
O12F Al3 1_555 1_555
F2E Al1 1_555 1_555
O8E Al2 1_555 1_555
O13F Al3 1_555 1_555
O14B Al3 1_555 1_555
Al3B O14 1_555 1_555
Al1E O11E 1_555 1_555
Al2E O8 1_555 1_555
P2E O11 1_555 1_555
Al3F O12 1_555 1_555
Al2D O10 1_555 1_555
P1E O8E 1_555 1_555
P3B O14B 1_555 1_555
O7B Al3B 1_555 1_555
O12D Al3B 1_555 1_555
O13D Al3B 1_555 1_555
O3E Al1E 1_555 1_555
O5E Al1E 1_555 1_555
O9E Al1E 1_555 1_555
O4E Al2E 1_555 1_555
O6E Al2E 1_555 1_555
O10A Al2E 1_555 1_555
O10E P2E 1_555 1_555
O12E P2E 1_555 1_555
O3E_2 P1E 1_555 1_555
O13E P1E 1_555 1_555
O4B P3B 1_555 1_555
O5B P3B 1_555 1_555
Al2A O10E 1_555 1_555
Al3C O12E 1_555 1_555
Al2B O4B 1_555 1_555
Al1E_2 O3E_2 1_555 1_555
Al3C_2 O13E 1_555 1_555
Al1B O5B 1_555 1_555
C4 C5B 1_555 1_555
C5 C4B 1_555 1_555
Al1 O5 1_555 1_555
Al2 O6 1_555 1_555
Al3 O7 1_555 1_555
O13 Al3F 1_555 1_555
C5B C2B 1_555 1_555
N4B C4B 1_555 1_555
N4B C2B 1_555 1_555
C4B N2B 1_555 1_555
C2B N3B 1_555 1_555
F2E Al1E 1_555 1_555
P2E O9E 1_555 1_555
P1E O6E 1_555 1_555
P3B O7B 1_555 1_555

#END
