
#######################################################################
#
#                 Cambridge Crystallographic Data Centre
#                                CCDC 
#
#######################################################################
#
# If this CIF has been generated from an entry in the Cambridge 
# Structural Database, then it will include bibliographic, chemical, 
# crystal, experimental, refinement or atomic coordinate data resulting 
# from the CCDC's data processing and validation procedures.
#
#######################################################################

data_OBIBAF
_chemical_formula_moiety         '(C78 H84 Mg4 N2 O27)n'
_symmetry_cell_setting           monoclinic
_symmetry_space_group_name_H-M   'P 21/c'
_symmetry_Int_Tables_number      14
_space_group_name_Hall           '-P 2ybc'
loop_
_symmetry_equiv_pos_site_id
_symmetry_equiv_pos_as_xyz
1 x,y,z
2 -x,1/2+y,1/2-z
3 -x,-y,-z
4 x,1/2-y,1/2+z
_cell_length_a                   16.746(6)
_cell_length_b                   34.094(13)
_cell_length_c                   19.114(8)
_cell_angle_alpha                90
_cell_angle_beta                 104.321(6)
_cell_angle_gamma                90
_cell_volume                     10573.8
loop_
_atom_site_label
_atom_site_type_symbol
_atom_site_fract_x
_atom_site_fract_y
_atom_site_fract_z
Mg1 Mg 0.51070(8) -0.16768(4) 1.53172(7)
Mg2 Mg 0.29403(8) -0.17762(4) 1.48228(7)
Mg3 Mg 0.00449(8) -0.12496(4) 1.49347(7)
Mg4 Mg 0.20476(8) 0.34618(4) 2.03863(8)
O1 O 0.39749(17) -0.02413(10) 1.17212(15)
O2 O 0.45717(19) -0.13378(9) 1.44583(17)
O3 O 0.32171(18) -0.14162(9) 1.40636(16)
O4 O 0.35688(16) -0.03383(10) 0.84183(15)
O5 O 0.32177(18) -0.14042(9) 0.56548(16)
O6 O 0.45896(18) -0.13850(10) 0.60329(17)
O7 O 0.46154(19) 0.11985(9) 1.04791(18)
O8 O 0.58687(16) 0.29197(8) 0.99159(16)
O9 O 0.69040(18) 0.26994(9) 1.07617(18)
O10 O -0.14615(18) -0.02280(12) 1.83368(16)
O11 O -0.04366(17) -0.11050(10) 1.57793(16)
O12 O -0.17725(18) -0.12749(10) 1.55672(16)
O13 O -0.0364(3) 0.13467(13) 2.0028(4)
O14 O 0.1470(2) 0.29703(12) 2.0368(3)
O15 O 0.0189(2) 0.31718(10) 1.99564(18)
O16 O -0.11473(17) -0.00515(10) 2.16216(15)
O17 O -0.24223(19) -0.11429(12) 2.38077(19)
O18 O -0.11155(17) -0.11847(9) 2.42489(15)
O19 O 0.5802(2) -0.20070(10) 1.62002(19)
O20 O 0.0408(2) -0.06753(10) 1.47927(17)
O21 O 0.60953(17) -0.12726(9) 1.55353(16)
O22 O 0.68740(18) -0.17223(9) 1.46955(17)
O23 O 0.56709(17) -0.19995(9) 1.46649(17)
O24 O 0.25251(19) -0.21707(10) 1.55073(19)
O25 O 0.11934(17) -0.13226(10) 1.56491(15)
O26 O 0.05011(17) -0.13860(10) 1.40476(16)
O27 O 0.17636(17) -0.15912(10) 1.45246(16)
N1 N 0.1231(2) -0.01640(12) 1.4782(2)
C1 C 0.3505(2) 0.00665(12) 1.0582(2)
C2 C 0.3747(2) -0.01537(13) 1.0043(2)
C3 C 0.3986(2) 0.00440(12) 0.94878(19)
C4 C 0.3964(2) 0.04497(14) 0.9449(2)
C5 C 0.3750(2) 0.06678(12) 1.0003(2)
C6 C 0.3541(2) 0.04757(13) 1.0574(2)
C7 C 0.3752(3) -0.05948(13) 1.0061(2)
H1 H 0.3569 -0.0686 1.0482
H2 H 0.3379 -0.0696 0.9619
H3 H 0.4312 -0.0690 1.0092
C8 C 0.4144(3) 0.06660(16) 0.8797(3)
H4 H 0.4101 0.0950 0.8863
H5 H 0.4702 0.0601 0.8759
H6 H 0.3743 0.0585 0.8355
C9 C 0.3353(3) 0.07064(15) 1.1189(2)
H7 H 0.3219 0.0525 1.1542
H8 H 0.3836 0.0863 1.1423
H9 H 0.2884 0.0881 1.1002
C10 C 0.3244(2) -0.01501(14) 1.1180(2)
H10 H 0.2874 0.0016 1.1385
H11 H 0.2946 -0.0394 1.0990
C11 C 0.3905(3) -0.04863(14) 1.2269(2)
C12 C 0.4625(3) -0.05998(15) 1.2742(2)
H12 H 0.5134 -0.0501 1.2680
C13 C 0.4629(3) -0.08527(15) 1.3304(3)
H13 H 0.5137 -0.0931 1.3617
C14 C 0.3891(3) -0.09939(14) 1.3414(2)
C15 C 0.3162(3) -0.08741(15) 1.2943(3)
H14 H 0.2653 -0.0968 1.3011
C16 C 0.3156(3) -0.06230(16) 1.2379(3)
H15 H 0.2649 -0.0543 1.2067
C17 C 0.3890(3) -0.12711(13) 1.4021(2)
C18 C 0.4288(3) -0.01889(15) 0.8939(2)
H16 H 0.4618 -0.0020 0.8695
H17 H 0.4639 -0.0409 0.9176
C19 C 0.3692(2) -0.05677(13) 0.7875(2)
C20 C 0.4458(3) -0.06464(15) 0.7744(2)
H18 H 0.4943 -0.0535 0.8043
C21 C 0.4508(3) -0.08905(14) 0.7170(2)
H19 H 0.5034 -0.0949 0.7092
C22 C 0.3821(3) -0.10483(13) 0.6718(2)
C23 C 0.3062(3) -0.09603(14) 0.6849(3)
H20 H 0.2576 -0.1064 0.6537
C24 C 0.2993(3) -0.07274(16) 0.7419(2)
H21 H 0.2466 -0.0676 0.7501
C25 C 0.3884(3) -0.12983(12) 0.6090(2)
C26 C 0.3821(3) 0.11056(14) 1.0010(3)
H22 H 0.3783 0.1206 0.9517
H23 H 0.3375 0.1225 1.0195
C27 C 0.4939(3) 0.15655(13) 1.0426(3)
C28 C 0.4586(3) 0.18510(13) 0.9931(2)
H24 H 0.4069 0.1804 0.9601
C29 C 0.4985(3) 0.22028(13) 0.9919(2)
H25 H 0.4745 0.2395 0.9570
C30 C 0.5729(3) 0.22824(14) 1.0403(3)
C31 C 0.6070(3) 0.19983(16) 1.0912(3)
H26 H 0.6576 0.2049 1.1255
C32 C 0.5679(4) 0.16426(16) 1.0922(3)
H27 H 0.5919 0.1450 1.1270
C33 C 0.6189(3) 0.26552(13) 1.0365(2)
C34 C -0.1028(2) 0.01669(16) 1.9374(2)
C35 C -0.1271(2) -0.00082(14) 1.9954(2)
C36 C -0.1518(2) 0.02443(13) 2.0451(2)
C37 C -0.1455(3) 0.06509(13) 2.0402(2)
C38 C -0.1249(3) 0.08052(15) 1.9799(2)
C39 C -0.1038(3) 0.05752(16) 1.9277(2)
C40 C -0.1278(3) -0.04481(14) 2.0049(3)
H28 H -0.1466 -0.0511 2.0483
H29 H -0.1653 -0.0567 1.9626
H30 H -0.0721 -0.0551 2.0100
C41 C -0.1583(3) 0.09084(17) 2.1018(3)
H31 H -0.1724 0.0743 2.1390
H32 H -0.1075 0.1053 2.1228
H33 H -0.2032 0.1094 2.0832
C42 C -0.0843(3) 0.0753(2) 1.8623(3)
H34 H -0.0708 0.0544 1.8319
H35 H -0.1322 0.0900 1.8350
H36 H -0.0371 0.0930 1.8773
C43 C -0.0737(3) -0.00940(18) 1.8863(2)
H37 H -0.0369 0.0052 1.8622
H38 H -0.0429 -0.0320 1.9124
C44 C -0.1331(3) -0.04548(17) 1.7780(2)
C45 C -0.2041(3) -0.05833(17) 1.7283(2)
H39 H -0.2570 -0.0519 1.7348
C46 C -0.1971(3) -0.08005(16) 1.6704(2)
H40 H -0.2456 -0.0897 1.6380
C47 C -0.1208(3) -0.08843(15) 1.6576(2)
C48 C -0.0513(3) -0.07547(15) 1.7081(2)
H41 H 0.0016 -0.0817 1.7012
C49 C -0.0565(3) -0.05403(17) 1.7674(2)
H42 H -0.0080 -0.0452 1.8008
C50 C -0.1133(3) -0.11043(13) 1.5928(2)
C51 C -0.1844(2) 0.00611(15) 2.1039(2)
H43 H -0.2196 0.0251 2.1217
H44 H -0.2180 -0.0172 2.0851
C52 C -0.1317(3) -0.02848(14) 2.2151(2)
C53 C -0.2104(3) -0.03365(17) 2.2248(3)
H45 H -0.2560 -0.0206 2.1942
C54 C -0.2219(3) -0.05759(16) 2.2787(3)
H46 H -0.2758 -0.0608 2.2855
C55 C -0.1562(3) -0.07734(14) 2.3238(2)
C56 C -0.0775(3) -0.06990(15) 2.3149(2)
H47 H -0.0310 -0.0815 2.3472
C57 C -0.0660(3) -0.04627(15) 2.2608(2)
H48 H -0.0120 -0.0421 2.2548
C58 C -0.1708(2) -0.10374(14) 2.3796(2)
C59 C -0.1212(3) 0.12502(16) 1.9740(3)
H49 H -0.1400 0.1335 1.9230
H50 H -0.1562 0.1377 2.0023
C60 C -0.0156(4) 0.1736(2) 2.0056(6)
C61 C 0.0673(4) 0.1818(2) 2.0359(8)
H51 H 0.1042 0.1612 2.0555
C62 C 0.0954(5) 0.2195(2) 2.0373(8)
H52 H 0.1526 0.2248 2.0546
C63 C 0.0409(4) 0.25024(18) 2.0136(5)
C64 C -0.0416(3) 0.24245(17) 1.9886(4)
H53 H -0.0791 0.2635 1.9734
C65 C -0.0716(4) 0.20373(18) 1.9851(4)
H54 H -0.1290 0.1985 1.9691
C66 C 0.0712(3) 0.29138(17) 2.0154(4)
C67 C 0.0821(4) -0.03164(18) 1.5887(3)
H55 H 0.1172 -0.0089 1.6058
H56 H 0.0258 -0.0262 1.5923
H57 H 0.1036 -0.0545 1.6184
C68 C 0.0816(3) -0.03979(15) 1.5119(3)
C69 C 0.1601(3) 0.02090(17) 1.5097(3)
H58 H 0.1879 0.0336 1.4762
H59 H 0.1167 0.0382 1.5182
H60 H 0.2002 0.0157 1.5555
C70 C 0.1262(4) -0.02408(19) 1.4041(3)
H61 H 0.1595 -0.0039 1.3883
H62 H 0.1510 -0.0499 1.4013
H63 H 0.0702 -0.0237 1.3728
C71 C 0.6339(3) -0.19898(14) 1.4506(2)
C72 C 0.6561(4) -0.2334(2) 1.4095(4)
H64 H 0.7104 -0.2290 1.4002
H65 H 0.6575 -0.2574 1.4380
H66 H 0.6148 -0.2362 1.3634
C73 C 0.1172(3) -0.15293(14) 1.3992(2)
C74 C 0.1271(3) -0.1608(2) 1.3252(3)
H67 H 0.0757 -0.1546 1.2896
H68 H 0.1718 -0.1446 1.3162
H69 H 0.1404 -0.1886 1.3210
C75 C 0.6317(8) -0.1663(3) 1.7305(4)
H70 H 0.6843 -0.1611 1.7655
H71 H 0.6070 -0.1414 1.7104
H72 H 0.5943 -0.1797 1.7547
N2 N 0.7302(7) -0.2046(3) 1.6751(6)
C76 C 0.7381(8) -0.2340(4) 1.6177(7)
H73 H 0.7961 -0.2412 1.6244
H74 H 0.7058 -0.2575 1.6219
H75 H 0.7174 -0.2223 1.5698
C77 C 0.6466(5) -0.1919(3) 1.6703(5)
C78 C 0.8053(11) -0.1915(5) 1.7322(9)
H76 H 0.8545 -0.2042 1.7238
H77 H 0.8111 -0.1629 1.7297
H78 H 0.7988 -0.1988 1.7801
H79 H 0.6240 -0.1057 1.5384
H80 H 0.6519 -0.1366 1.5837
H81 H 0.2437 -0.2359 1.5779
H82 H 0.2045 -0.2087 1.5281
H83 H 0.1431 -0.1416 1.6063
H84 H 0.1557 -0.1316 1.5403
Mg1_2 Mg 0.51070(8) -0.16768(4) 0.53172(7)
Mg1A Mg 0.48930(8) 0.33232(4) 0.96828(7)
Mg2_2 Mg 0.29403(8) -0.17762(4) 0.48228(7)
Mg2A Mg 0.70597(8) 0.32238(4) 1.01772(7)
Mg3_2 Mg 0.00449(8) -0.12496(4) 2.49347(7)
Mg3A Mg -0.00449(8) 0.37504(4) 2.00653(7)
Mg4A Mg -0.20476(8) -0.15382(4) 1.46137(8)
Mg4A_2 Mg -0.20476(8) -0.15382(4) 2.46137(8)
Mg4A_3 Mg 0.79524(8) -0.15382(4) 1.46137(8)
O5_2 O 0.32177(18) -0.14042(9) 1.56548(16)
O6_2 O 0.45896(18) -0.13850(10) 1.60329(17)
O8A O 0.41313(16) -0.20803(8) 1.50841(16)
O9A O 0.30960(18) -0.23006(9) 1.42383(18)
O12A O 0.17725(18) 0.37251(10) 1.94328(16)
O15A O -0.0189(2) -0.18282(10) 1.50436(18)
O17A O 0.24223(19) 0.38571(12) 2.11923(19)
O18_2 O -0.11155(17) -0.11847(9) 1.42489(15)
O18A O 0.11155(17) 0.38153(9) 2.07511(15)
O22A O 0.31260(18) 0.32777(9) 2.03045(17)
loop_
_geom_bond_atom_site_label_1
_geom_bond_atom_site_label_2
_geom_bond_site_symmetry_1
_geom_bond_site_symmetry_2
Mg1 O2 1_555 1_555
Mg2 O3 1_555 1_555
Mg3 O11 1_555 1_555
Mg4 O14 1_555 1_555
O1 C10 1_555 1_555
O2 C17 1_555 1_555
O3 C17 1_555 1_555
O4 C18 1_555 1_555
O5 C25 1_555 1_555
O6 C25 1_555 1_555
O7 C26 1_555 1_555
O8 C33 1_555 1_555
O9 C33 1_555 1_555
O10 C43 1_555 1_555
O11 C50 1_555 1_555
O12 C50 1_555 1_555
O13 C59 1_555 1_555
O14 C66 1_555 1_555
O15 C66 1_555 1_555
O16 C51 1_555 1_555
O17 C58 1_555 1_555
O18 C58 1_555 1_555
O19 Mg1 1_555 1_555
O20 Mg3 1_555 1_555
O21 Mg1 1_555 1_555
O22 C71 1_555 1_555
O23 Mg1 1_555 1_555
O24 Mg2 1_555 1_555
O25 Mg3 1_555 1_555
O26 Mg3 1_555 1_555
O27 Mg2 1_555 1_555
N1 C68 1_555 1_555
C1 C2 1_555 1_555
C2 C3 1_555 1_555
C3 C4 1_555 1_555
C4 C5 1_555 1_555
C5 C6 1_555 1_555
C6 C1 1_555 1_555
C7 C2 1_555 1_555
H1 C7 1_555 1_555
H2 C7 1_555 1_555
H3 C7 1_555 1_555
C8 C4 1_555 1_555
H4 C8 1_555 1_555
H5 C8 1_555 1_555
H6 C8 1_555 1_555
C9 C6 1_555 1_555
H7 C9 1_555 1_555
H8 C9 1_555 1_555
H9 C9 1_555 1_555
C10 C1 1_555 1_555
H10 C10 1_555 1_555
H11 C10 1_555 1_555
C11 O1 1_555 1_555
C12 C11 1_555 1_555
H12 C12 1_555 1_555
C13 C12 1_555 1_555
H13 C13 1_555 1_555
C14 C13 1_555 1_555
C15 C14 1_555 1_555
H14 C15 1_555 1_555
C16 C11 1_555 1_555
H15 C16 1_555 1_555
C17 C14 1_555 1_555
C18 C3 1_555 1_555
H16 C18 1_555 1_555
H17 C18 1_555 1_555
C19 O4 1_555 1_555
C20 C19 1_555 1_555
H18 C20 1_555 1_555
C21 C20 1_555 1_555
H19 C21 1_555 1_555
C22 C21 1_555 1_555
C23 C22 1_555 1_555
H20 C23 1_555 1_555
C24 C19 1_555 1_555
H21 C24 1_555 1_555
C25 C22 1_555 1_555
C26 C5 1_555 1_555
H22 C26 1_555 1_555
H23 C26 1_555 1_555
C27 O7 1_555 1_555
C28 C27 1_555 1_555
H24 C28 1_555 1_555
C29 C28 1_555 1_555
H25 C29 1_555 1_555
C30 C29 1_555 1_555
C31 C30 1_555 1_555
H26 C31 1_555 1_555
C32 C27 1_555 1_555
H27 C32 1_555 1_555
C33 C30 1_555 1_555
C34 C35 1_555 1_555
C35 C36 1_555 1_555
C36 C37 1_555 1_555
C37 C38 1_555 1_555
C38 C39 1_555 1_555
C39 C34 1_555 1_555
C40 C35 1_555 1_555
H28 C40 1_555 1_555
H29 C40 1_555 1_555
H30 C40 1_555 1_555
C41 C37 1_555 1_555
H31 C41 1_555 1_555
H32 C41 1_555 1_555
H33 C41 1_555 1_555
C42 C39 1_555 1_555
H34 C42 1_555 1_555
H35 C42 1_555 1_555
H36 C42 1_555 1_555
C43 C34 1_555 1_555
H37 C43 1_555 1_555
H38 C43 1_555 1_555
C44 O10 1_555 1_555
C45 C44 1_555 1_555
H39 C45 1_555 1_555
C46 C45 1_555 1_555
H40 C46 1_555 1_555
C47 C46 1_555 1_555
C48 C47 1_555 1_555
H41 C48 1_555 1_555
C49 C44 1_555 1_555
H42 C49 1_555 1_555
C50 C47 1_555 1_555
C51 C36 1_555 1_555
H43 C51 1_555 1_555
H44 C51 1_555 1_555
C52 O16 1_555 1_555
C53 C52 1_555 1_555
H45 C53 1_555 1_555
C54 C53 1_555 1_555
H46 C54 1_555 1_555
C55 C54 1_555 1_555
C56 C55 1_555 1_555
H47 C56 1_555 1_555
C57 C52 1_555 1_555
H48 C57 1_555 1_555
C58 C55 1_555 1_555
C59 C38 1_555 1_555
H49 C59 1_555 1_555
H50 C59 1_555 1_555
C60 O13 1_555 1_555
C61 C60 1_555 1_555
H51 C61 1_555 1_555
C62 C61 1_555 1_555
H52 C62 1_555 1_555
C63 C62 1_555 1_555
C64 C63 1_555 1_555
H53 C64 1_555 1_555
C65 C60 1_555 1_555
H54 C65 1_555 1_555
C66 C63 1_555 1_555
C67 H55 1_555 1_555
H56 C67 1_555 1_555
H57 C67 1_555 1_555
C68 O20 1_555 1_555
C69 N1 1_555 1_555
H58 C69 1_555 1_555
H59 C69 1_555 1_555
H60 C69 1_555 1_555
C70 N1 1_555 1_555
H61 C70 1_555 1_555
H62 C70 1_555 1_555
H63 C70 1_555 1_555
C71 O23 1_555 1_555
C72 C71 1_555 1_555
H64 C72 1_555 1_555
H65 C72 1_555 1_555
H66 C72 1_555 1_555
C73 O26 1_555 1_555
C74 C73 1_555 1_555
H67 C74 1_555 1_555
H68 C74 1_555 1_555
H69 C74 1_555 1_555
C75 H70 1_555 1_555
H71 C75 1_555 1_555
H72 C75 1_555 1_555
N2 C76 1_555 1_555
C76 H73 1_555 1_555
H74 C76 1_555 1_555
H75 C76 1_555 1_555
C77 O19 1_555 1_555
C78 N2 1_555 1_555
H76 C78 1_555 1_555
H77 C78 1_555 1_555
H78 C78 1_555 1_555
H79 O21 1_555 1_555
H80 O21 1_555 1_555
H81 O24 1_555 1_555
H82 O24 1_555 1_555
H83 O25 1_555 1_555
H84 O25 1_555 1_555
Mg1_2 O6 1_555 1_555
Mg1A O8 1_555 1_555
Mg2_2 O5 1_555 1_555
Mg2A O8 1_555 1_555
Mg3_2 O18 1_555 1_555
Mg3A O15 1_555 1_555
Mg4A O12 1_555 1_555
Mg4A_2 O17 1_555 1_555
Mg4A_3 O22 1_555 1_555
O5_2 Mg2 1_555 1_555
O6_2 Mg1 1_555 1_555
O8A Mg1 1_555 1_555
O9A Mg2 1_555 1_555
O12A Mg4 1_555 1_555
O15A Mg3 1_555 1_555
O17A Mg4 1_555 1_555
O18_2 Mg3 1_555 1_555
O18A Mg4 1_555 1_555
O22A Mg4 1_555 1_555
Mg2 O8A 1_555 1_555
O9 Mg2A 1_555 1_555
O18 Mg4A_2 1_555 1_555
O27 C73 1_555 1_555
C15 C16 1_555 1_555
C23 C24 1_555 1_555
C31 C32 1_555 1_555
C48 C49 1_555 1_555
C56 C57 1_555 1_555
C64 C65 1_555 1_555
C67 C68 1_555 1_555
C75 C77 1_555 1_555
N2 C77 1_555 1_555
Mg3A O18A 1_555 1_555
Mg4A O18_2 1_555 1_555

#END
