
#######################################################################
#
#                 Cambridge Crystallographic Data Centre
#                                CCDC 
#
#######################################################################
#
# If this CIF has been generated from an entry in the Cambridge 
# Structural Database, then it will include bibliographic, chemical, 
# crystal, experimental, refinement or atomic coordinate data resulting 
# from the CCDC's data processing and validation procedures.
#
#######################################################################

data_BELTOD
_chemical_formula_moiety         '(C45 H35 Mn3 N1 O17 P2)n'
_symmetry_cell_setting           orthorhombic
_symmetry_space_group_name_H-M   'P b c a'
_symmetry_Int_Tables_number      61
_space_group_name_Hall           '-P 2ac 2ab'
loop_
_symmetry_equiv_pos_site_id
_symmetry_equiv_pos_as_xyz
1 x,y,z
2 1/2-x,-y,1/2+z
3 1/2+x,1/2-y,-z
4 -x,1/2+y,1/2-z
5 -x,-y,-z
6 1/2+x,y,1/2-z
7 1/2-x,1/2+y,z
8 x,1/2-y,1/2+z
_cell_length_a                   25.0645(11)
_cell_length_b                   24.9943(11)
_cell_length_c                   20.0594(13)
_cell_angle_alpha                90
_cell_angle_beta                 90
_cell_angle_gamma                90
_cell_volume                     12566.6
loop_
_atom_site_label
_atom_site_type_symbol
_atom_site_fract_x
_atom_site_fract_y
_atom_site_fract_z
_atom_site_U_iso_or_equiv
_atom_site_thermal_displace_type
Mn1 Mn 0.07587(2) 0.09097(2) 0.08044(3) 0.0332 Uani
Mn2 Mn 0.12666(2) 0.05887(2) 0.24800(3) 0.0300 Uani
Mn3 Mn 0.08406(2) 0.47350(2) -0.08137(3) 0.0332 Uani
P1 P 0.40359(4) 0.23554(4) 0.08838(6) 0.0346 Uani
P2 P 0.09406(4) 0.11940(4) -0.09176(5) 0.0296 Uani
C1 C 0.33917(17) 0.20537(15) 0.1046(2) 0.0363 Uani
C2 C 0.3066(2) 0.19288(19) 0.0508(2) 0.0507 Uani
H1 H 0.3178 0.2010 0.0072 0.0610 Uiso
C3 C 0.2572(2) 0.1683(2) 0.0608(2) 0.0517 Uani
H2 H 0.2352 0.1607 0.0241 0.0620 Uiso
C4 C 0.24025(18) 0.15526(16) 0.1241(2) 0.0397 Uani
C5 C 0.18824(18) 0.12518(16) 0.1361(2) 0.0403 Uani
C6 C 0.2722(2) 0.1682(2) 0.1776(2) 0.0520 Uani
H3 H 0.2607 0.1599 0.2210 0.0630 Uiso
C7 C 0.3214(2) 0.19339(19) 0.1686(2) 0.0500 Uani
H4 H 0.3425 0.2023 0.2057 0.0600 Uiso
C8 C 0.39679(17) 0.30682(15) 0.0994(2) 0.0363 Uani
C9 C 0.42984(18) 0.34112(16) 0.0649(2) 0.0423 Uani
H5 H 0.4547 0.3262 0.0352 0.0510 Uiso
C10 C 0.42855(18) 0.39530(16) 0.0713(2) 0.0437 Uani
H6 H 0.4517 0.4168 0.0458 0.0520 Uiso
C11 C 0.39342(18) 0.41844(16) 0.1149(2) 0.0373 Uani
C12 C 0.39268(18) 0.47847(16) 0.1251(2) 0.0407 Uani
C13 C 0.3598(2) 0.38576(18) 0.1533(3) 0.0550 Uani
H7 H 0.3363 0.4010 0.1845 0.0660 Uiso
C14 C 0.3615(2) 0.33065(18) 0.1446(3) 0.0573 Uani
H8 H 0.3384 0.3089 0.1696 0.0690 Uiso
C15 C 0.44649(17) 0.21187(15) 0.1553(2) 0.0357 Uani
C16 C 0.46318(18) 0.15882(16) 0.1526(2) 0.0420 Uani
H9 H 0.4531 0.1372 0.1163 0.0500 Uiso
C17 C 0.49475(19) 0.13744(17) 0.2034(2) 0.0430 Uani
H10 H 0.5053 0.1014 0.2017 0.0520 Uiso
C18 C 0.51060(18) 0.16972(17) 0.2567(2) 0.0427 Uani
C19 C 0.54117(18) 0.14582(18) 0.3134(2) 0.0440 Uani
C20 C 0.4943(2) 0.22263(17) 0.2585(3) 0.0530 Uani
H11 H 0.5043 0.2443 0.2947 0.0640 Uiso
C21 C 0.4634(2) 0.24416(18) 0.2077(3) 0.0547 Uani
H12 H 0.4539 0.2805 0.2088 0.0660 Uiso
C22 C 0.10218(16) 0.19076(14) -0.1012(2) 0.0314 Uani
C23 C 0.1313(2) 0.21271(17) -0.1527(2) 0.0470 Uani
H13 H 0.1496 0.1902 -0.1824 0.0560 Uiso
C24 C 0.1339(2) 0.26789(17) -0.1611(2) 0.0490 Uani
H14 H 0.1532 0.2825 -0.1969 0.0590 Uiso
C25 C 0.10762(18) 0.30128(15) -0.1163(2) 0.0370 Uani
C26 C 0.10979(18) 0.36158(16) -0.1257(2) 0.0410 Uani
C27 C 0.07800(19) 0.27945(16) -0.0647(2) 0.0457 Uani
H15 H 0.0595 0.3018 -0.0350 0.0550 Uiso
C28 C 0.07583(19) 0.22449(16) -0.0572(2) 0.0427 Uani
H16 H 0.0562 0.2098 -0.0218 0.0510 Uiso
C29 C 0.15727(17) 0.08701(16) -0.1087(2) 0.0353 Uani
C30 C 0.17423(19) 0.07601(19) -0.1734(2) 0.0447 Uani
H17 H 0.1531 0.0865 -0.2099 0.0540 Uiso
C31 C 0.22236(19) 0.04949(18) -0.1844(2) 0.0450 Uani
H18 H 0.2334 0.0420 -0.2282 0.0540 Uiso
C32 C 0.25387(18) 0.03421(16) -0.1314(2) 0.0387 Uani
C33 C 0.30589(18) 0.00492(17) -0.1432(2) 0.0403 Uani
C34 C 0.2374(2) 0.0462(2) -0.0678(2) 0.0560 Uani
C35 C 0.1893(2) 0.0722(2) -0.0560(2) 0.0540 Uani
H20 H 0.1786 0.0796 -0.0121 0.0640 Uiso
C36 C 0.05065(16) 0.09649(15) -0.1584(2) 0.0316 Uani
C37 C 0.03460(19) 0.12771(16) -0.2117(2) 0.0433 Uani
H21 H 0.0444 0.1640 -0.2132 0.0520 Uiso
C38 C 0.0042(2) 0.10601(17) -0.2629(2) 0.0493 Uani
H22 H -0.0060 0.1276 -0.2991 0.0590 Uiso
C39 C -0.01126(16) 0.05281(15) -0.26089(19) 0.0330 Uani
C40 C -0.04211(16) 0.02790(16) -0.3176(2) 0.0350 Uani
C41 C 0.00398(18) 0.02187(16) -0.2076(2) 0.0410 Uani
H23 H -0.0064 -0.0142 -0.2057 0.0490 Uiso
C42 C 0.03457(19) 0.04342(16) -0.1562(2) 0.0453 Uani
H24 H 0.0444 0.0219 -0.1199 0.0540 Uiso
C43 C -0.0510(4) 0.0946(5) 0.1130(6) 0.1077 Uani
H25 H -0.0401 0.1201 0.1446 0.1290 Uiso
C44 C -0.1398(9) 0.1001(9) 0.1611(11) 0.1990 Uiso
H26 H -0.1750 0.0868 0.1496 0.2980 Uiso
H27 H -0.1403 0.1389 0.1616 0.2980 Uiso
H28 H -0.1299 0.0870 0.2049 0.2980 Uiso
C45 C -0.1271(5) 0.0499(4) 0.0671(6) 0.0670 Uiso
H29 H -0.1650 0.0485 0.0765 0.1010 Uiso
H30 H -0.1123 0.0141 0.0694 0.1010 Uiso
H31 H -0.1215 0.0644 0.0228 0.1010 Uiso
N1 N -0.1022(4) 0.0821(4) 0.1133(5) 0.0680 Uiso
O1 O 0.15565(12) 0.12204(12) 0.08770(15) 0.0444 Uani
O2 O 0.18190(13) 0.10644(13) 0.19334(16) 0.0514 Uani
O3 O 0.41179(14) 0.50741(11) 0.07970(16) 0.0501 Uani
O4 O 0.37248(13) 0.49480(12) 0.17905(16) 0.0507 Uani
O5 O 0.55966(11) 0.09816(11) 0.30804(14) 0.0376 Uani
O6 O 0.54521(15) 0.17071(14) 0.36797(17) 0.0613 Uani
O7 O 0.42398(13) 0.22153(12) 0.02085(15) 0.0455 Uani
O8 O 0.12542(14) 0.37749(11) -0.18173(16) 0.0492 Uani
O9 O 0.09608(15) 0.38986(11) -0.07803(16) 0.0528 Uani
O10 O 0.31285(13) -0.01460(13) -0.20002(15) 0.0510 Uani
O11 O 0.33788(13) 0.00217(13) -0.09495(16) 0.0504 Uani
O12 O -0.04504(14) 0.05160(12) -0.37244(15) 0.0477 Uani
O13 O -0.06244(11) -0.01832(10) -0.30949(14) 0.0363 Uani
O14 O 0.07312(11) 0.10497(10) -0.02426(13) 0.0356 Uani
O15 O 0.00163(14) 0.45289(15) -0.05575(19) 0.0630 Uani
O16 O -0.01375(17) 0.07574(19) 0.0739(2) 0.0833 Uani
O17 O 0.09494(15) 0.49437(14) 0.02463(16) 0.0606 Uani
Mn1F Mn 0.42413(2) 0.59097(2) 0.08044(3) 0.0332 Uani
Mn1E Mn 0.57587(2) 0.09097(2) 0.41956(3) 0.0332 Uani
Mn2F Mn 0.37334(2) 0.55887(2) 0.24800(3) 0.0300 Uani
Mn2E Mn 0.62666(2) 0.05887(2) 0.25200(3) 0.0300 Uani
Mn2G Mn 0.12666(2) 0.44113(2) -0.25200(3) 0.0300 Uani
Mn2A Mn 0.37334(2) -0.05887(2) -0.25200(3) 0.0300 Uani
Mn2D Mn -0.12666(2) -0.05887(2) -0.24800(3) 0.0300 Uani
Mn3F Mn 0.41594(2) -0.02650(2) -0.08137(3) 0.0332 Uani
Mn3C Mn -0.08406(2) -0.02650(2) -0.41863(3) 0.0332 Uani
O3F O 0.08821(14) 0.00741(11) 0.07970(16) 0.0501 Uani
O4F O 0.12752(13) -0.00520(12) 0.17905(16) 0.0507 Uani
O5E O 0.05966(11) 0.09816(11) 0.19196(14) 0.0376 Uani
O6E O 0.04521(15) 0.17071(14) 0.13203(17) 0.0613 Uani
O8G O 0.12542(14) 0.12251(11) 0.31827(16) 0.0492 Uani
O10A O 0.18715(13) 0.01460(13) 0.29998(15) 0.0510 Uani
O11F O 0.16212(13) 0.50217(13) -0.09495(16) 0.0504 Uani
O12C O 0.04504(14) 0.55160(12) -0.12756(15) 0.0477 Uani
O13D O 0.06244(11) 0.01832(10) 0.30949(14) 0.0363 Uani
O13C O 0.06244(11) 0.48168(10) -0.19051(14) 0.0363 Uani
loop_
_atom_site_aniso_label
_atom_site_aniso_U_11
_atom_site_aniso_U_22
_atom_site_aniso_U_33
_atom_site_aniso_U_23
_atom_site_aniso_U_13
_atom_site_aniso_U_12
Mn1 0.0351(4) 0.0307(3) 0.0337(3) 0.0043(2) -0.0018(3) -0.0021(2)
Mn2 0.0321(3) 0.0274(3) 0.0306(3) 0.0013(2) -0.0004(3) 0.0007(3)
Mn3 0.0357 0.0296 0.0343 -0.0014 0.0009 -0.0009
P1 0.0326(6) 0.0284(5) 0.0429(6) 0.0035(4) 0.0002(5) -0.0031(4)
P2 0.0294 0.0254 0.0339 -0.0003 -0.0011 0.001
C1 0.035(2) 0.029(2) 0.045(2) 0.0033(18) -0.0007(18) -0.0070(17)
C2 0.051(3) 0.064(3) 0.037(2) 0.010(2) 0.001(2) -0.021(2)
C3 0.048(3) 0.065(3) 0.042(2) 0.004(2) -0.008(2) -0.022(2)
C4 0.041(3) 0.036(2) 0.042(2) -0.0002(18) 0.0013(19) -0.0046(19)
C5 0.042(3) 0.036(2) 0.043(2) -0.0024(19) 0.005(2) -0.0082(19)
C6 0.046(3) 0.070(3) 0.040(2) 0.005(2) 0.001(2) -0.020(2)
C7 0.049(3) 0.062(3) 0.039(2) 0.002(2) -0.005(2) -0.022(2)
C8 0.034(2) 0.033(2) 0.042(2) 0.0041(17) -0.0032(18) -0.0005(17)
C9 0.037(3) 0.034(2) 0.056(3) 0.0089(19) 0.000(2) -0.0096(18)
C10 0.041(3) 0.032(2) 0.058(3) 0.0051(19) 0.009(2) -0.0057(18)
C11 0.042(3) 0.034(2) 0.036(2) 0.0026(17) -0.0027(19) -0.0029(18)
C12 0.042(3) 0.031(2) 0.049(3) -0.0042(19) -0.008(2) 0.0010(18)
C13 0.064(4) 0.039(2) 0.062(3) -0.005(2) 0.023(3) -0.002(2)
C14 0.057(3) 0.040(3) 0.075(3) 0.007(2) 0.026(3) -0.003(2)
C15 0.030(2) 0.030(2) 0.047(2) -0.0007(18) -0.0024(18) -0.0043(17)
C16 0.043(3) 0.034(2) 0.049(3) -0.0055(19) -0.006(2) 0.0035(18)
C17 0.048(3) 0.031(2) 0.050(3) -0.0044(19) -0.006(2) 0.0102(19)
C18 0.038(3) 0.041(2) 0.049(3) -0.007(2) -0.005(2) 0.0077(19)
C19 0.040(3) 0.042(2) 0.050(3) -0.004(2) -0.005(2) 0.006(2)
C20 0.061(3) 0.039(2) 0.059(3) -0.016(2) -0.023(3) 0.010(2)
C21 0.064(3) 0.030(2) 0.070(3) -0.004(2) -0.018(3) 0.007(2)
C22 0.031 0.0242 0.039 0.0001 0.0006 0.001
C23 0.06 0.033 0.048 -0.0036 0.019 0
C24 0.062 0.034 0.051 0.006 0.02 -0.004
C25 0.042 0.027 0.042 0.0043 -0.0038 -0.0002
C26 0.043 0.028 0.052 0.001 -0.009 0.0021
C27 0.057 0.031 0.049 -0.0025 0.015 0.0041
C28 0.051 0.03 0.047 -0.0035 0.013 -0.0003
C29 0.031 0.035 0.04 -0.0023 -0.0029 0.0005
C30 0.039 0.057 0.038 0 -0.002 0.015
C31 0.046 0.053 0.036 -0.003 -0.002 0.016
C32 0.035 0.038 0.043 -0.0037 0.0011 0.0075
C33 0.035 0.04 0.046 0.0002 0.003 0.008
C34 0.046 0.083 0.039 -0.009 -0.008 0.027
C35 0.046 0.079 0.037 -0.014 -0.001 0.023
C36 0.026 0.0297 0.039 -0.0037 -0.0002 0.0014
C37 0.054 0.026 0.05 0.0019 -0.014 -0.0058
C38 0.057 0.037 0.054 0.01 -0.019 -0.006
C39 0.032 0.032 0.035 -0.0043 0.0016 -0.0018
C40 0.032 0.035 0.038 0.0023 -0.0004 -0.0001
C41 0.042 0.032 0.049 0.0038 -0.008 -0.0058
C42 0.056 0.033 0.047 0.0092 -0.013 -0.005
C43 0.039(8) 0.165(15) 0.119(12) -0.084(11) -0.005(8) -0.005(8)
O1 0.0368(18) 0.0526(18) 0.0438(17) -0.0049(14) -0.0023(14) -0.0093(13)
O2 0.043(2) 0.062(2) 0.0493(19) 0.0120(16) -0.0010(15) -0.0204(16)
O3 0.071(2) 0.0303(15) 0.0491(18) 0.0019(14) 0.0058(17) 0.0016(14)
O4 0.058(2) 0.0405(17) 0.0535(19) -0.0144(14) 0.0056(16) -0.0044(15)
O5 0.0344(17) 0.0354(15) 0.0430(16) -0.0010(12) 0.0001(13) 0.0057(12)
O6 0.077(3) 0.054(2) 0.053(2) -0.0157(16) -0.0199(18) 0.0249(18)
O7 0.050(2) 0.0401(16) 0.0465(17) 0.0004(13) 0.0043(15) -0.0037(14)
O8 0.061 0.0348 0.0518 0.014 0.0052 -0.001
O9 0.074 0.0314 0.0529 0.0018 0.0101 0.004
O10 0.047 0.062 0.0441 -0.011 0.0029 0.0181
O11 0.0419 0.062 0.0472 -0.004 -0.0033 0.0163
O12 0.06 0.0406 0.0425 0.0018 -0.0089 -0.0109
O13 0.0344 0.0327 0.0418 0 -0.0002 -0.0045
O14 0.0381 0.0347 0.034 0.005 -0.0021 0.0016
O15 0.049 0.072 0.068 -0.0113 0.0167 -0.012
O16 0.060(3) 0.122(3) 0.068(3) 0.039(3) -0.014(2) -0.021(2)
O17 0.069 0.074 0.0389 -0.0081 0.0077 0.0025
Mn1F 0.0351 0.0307 0.0337 0.0043 0.0018 0.0021
Mn1E 0.0351 0.0307 0.0337 -0.0043 0.0018 -0.0021
Mn2F 0.0321 0.0274 0.0306 0.0013 0.0004 -0.0007
Mn2E 0.0321 0.0274 0.0306 -0.0013 0.0004 0.0007
Mn2G 0.0321 0.0274 0.0306 -0.0013 -0.0004 -0.0007
Mn2A 0.0321 0.0274 0.0306 -0.0013 0.0004 0.0007
Mn2D 0.0321 0.0274 0.0306 0.0013 -0.0004 0.0007
Mn3F 0.0357 0.0296 0.0343 -0.0014 -0.0009 0.0009
Mn3C 0.0357 0.0296 0.0343 0.0014 0.0009 0.0009
O3F 0.071 0.0303 0.0491 0.0019 -0.0058 -0.0016
O4F 0.058 0.0405 0.0535 -0.0144 -0.0056 0.0044
O5E 0.0344 0.0354 0.043 0.001 -0.0001 0.0057
O6E 0.077 0.054 0.053 0.0157 0.0199 0.0249
O8G 0.061(2) 0.0348(16) 0.0518(19) -0.0140(14) 0.0052(16) 0.0010(14)
O10A 0.047 0.062 0.0441 0.011 -0.0029 0.0181
O11F 0.0419 0.062 0.0472 -0.004 0.0033 -0.0163
O12C 0.06 0.0406 0.0425 -0.0018 -0.0089 0.0109
O13D 0.0344 0.0327 0.0418 0 -0.0002 -0.0045
O13C 0.0344 0.0327 0.0418 0 -0.0002 0.0045
loop_
_geom_bond_atom_site_label_1
_geom_bond_atom_site_label_2
_geom_bond_site_symmetry_1
_geom_bond_site_symmetry_2
Mn1 O1 1_555 1_555
Mn2 O2 1_555 1_555
Mn3 O9 1_555 1_555
P1 C1 1_555 1_555
P2 C22 1_555 1_555
C1 C2 1_555 1_555
C2 H1 1_555 1_555
C3 C2 1_555 1_555
H2 C3 1_555 1_555
C4 C3 1_555 1_555
C5 C4 1_555 1_555
C6 C4 1_555 1_555
H3 C6 1_555 1_555
C7 C1 1_555 1_555
H4 C7 1_555 1_555
C8 P1 1_555 1_555
C9 C8 1_555 1_555
H5 C9 1_555 1_555
C10 C9 1_555 1_555
H6 C10 1_555 1_555
C11 C10 1_555 1_555
C12 C11 1_555 1_555
C13 C11 1_555 1_555
H7 C13 1_555 1_555
C14 C8 1_555 1_555
H8 C14 1_555 1_555
C15 P1 1_555 1_555
C16 C15 1_555 1_555
H9 C16 1_555 1_555
C17 C16 1_555 1_555
H10 C17 1_555 1_555
C18 C17 1_555 1_555
C19 C18 1_555 1_555
C20 C18 1_555 1_555
H11 C20 1_555 1_555
C21 C15 1_555 1_555
H12 C21 1_555 1_555
C22 C23 1_555 1_555
C23 H13 1_555 1_555
C24 C23 1_555 1_555
H14 C24 1_555 1_555
C25 C24 1_555 1_555
C26 C25 1_555 1_555
C27 C25 1_555 1_555
H15 C27 1_555 1_555
C28 C22 1_555 1_555
H16 C28 1_555 1_555
C29 P2 1_555 1_555
C30 C29 1_555 1_555
H17 C30 1_555 1_555
C31 C30 1_555 1_555
H18 C31 1_555 1_555
C32 C31 1_555 1_555
C33 C32 1_555 1_555
C34 C32 1_555 1_555
C35 C29 1_555 1_555
H20 C35 1_555 1_555
C36 P2 1_555 1_555
C37 C36 1_555 1_555
H21 C37 1_555 1_555
C38 C37 1_555 1_555
H22 C38 1_555 1_555
C39 C38 1_555 1_555
C40 C39 1_555 1_555
C41 C39 1_555 1_555
H23 C41 1_555 1_555
C42 C36 1_555 1_555
H24 C42 1_555 1_555
C43 H25 1_555 1_555
C44 H26 1_555 1_555
H27 C44 1_555 1_555
H28 C44 1_555 1_555
C45 H29 1_555 1_555
H30 C45 1_555 1_555
H31 C45 1_555 1_555
N1 C43 1_555 1_555
O1 C5 1_555 1_555
O2 C5 1_555 1_555
O3 C12 1_555 1_555
O4 C12 1_555 1_555
O5 C19 1_555 1_555
O6 C19 1_555 1_555
O7 P1 1_555 1_555
O8 C26 1_555 1_555
O9 C26 1_555 1_555
O10 C33 1_555 1_555
O11 C33 1_555 1_555
O12 C40 1_555 1_555
O13 C40 1_555 1_555
O14 Mn1 1_555 1_555
O15 Mn3 1_555 1_555
O16 Mn1 1_555 1_555
O17 Mn3 1_555 1_555
Mn1F O3 1_555 1_555
Mn1E O5 1_555 1_555
Mn2F O4 1_555 1_555
Mn2E O5 1_555 1_555
Mn2G O8 1_555 1_555
Mn2A O10 1_555 1_555
Mn2D O13 1_555 1_555
Mn3F O11 1_555 1_555
Mn3C O12 1_555 1_555
O3F Mn1 1_555 1_555
O4F Mn2 1_555 1_555
O5E Mn1 1_555 1_555
O6E Mn1 1_555 1_555
O8G Mn2 1_555 1_555
O10A Mn2 1_555 1_555
O11F Mn3 1_555 1_555
O12C Mn3 1_555 1_555
O13D Mn2 1_555 1_555
O13C Mn3 1_555 1_555
Mn2 O5E 1_555 1_555
P2 O14 1_555 1_555
C6 C7 1_555 1_555
C13 C14 1_555 1_555
C20 C21 1_555 1_555
C27 C28 1_555 1_555
C34 C35 1_555 1_555
C41 C42 1_555 1_555
C43 O16 1_555 1_555
C44 N1 1_555 1_555
C45 N1 1_555 1_555
O6 Mn1E 1_555 1_555
O13 Mn3C 1_555 1_555
Mn2G O13C 1_555 1_555

#END
