
#######################################################################
#
#                 Cambridge Crystallographic Data Centre
#                                CCDC 
#
#######################################################################
#
# If this CIF has been generated from an entry in the Cambridge 
# Structural Database, then it will include bibliographic, chemical, 
# crystal, experimental, refinement or atomic coordinate data resulting 
# from the CCDC's data processing and validation procedures.
#
#######################################################################

data_JOJKOK
_chemical_formula_moiety         '(C36 H12 Cl4 N18 O6 Zn5)n'
_symmetry_cell_setting           cubic
_symmetry_space_group_name_H-M   'F m -3 m'
_symmetry_Int_Tables_number      225
_space_group_name_Hall           '-F 4 2 3'
loop_
_symmetry_equiv_pos_site_id
_symmetry_equiv_pos_as_xyz
1 x,y,z
2 -x,-y,z
3 -x,y,-z
4 x,-y,-z
5 z,x,y
6 z,-x,-y
7 -z,-x,y
8 -z,x,-y
9 y,z,x
10 -y,z,-x
11 y,-z,-x
12 -y,-z,x
13 y,x,-z
14 -y,-x,-z
15 y,-x,z
16 -y,x,z
17 x,z,-y
18 -x,z,y
19 -x,-z,-y
20 x,-z,y
21 z,y,-x
22 z,-y,x
23 -z,y,x
24 -z,-y,-x
25 x,1/2+y,1/2+z
26 -x,1/2-y,1/2+z
27 -x,1/2+y,1/2-z
28 x,1/2-y,1/2-z
29 z,1/2+x,1/2+y
30 z,1/2-x,1/2-y
31 -z,1/2-x,1/2+y
32 -z,1/2+x,1/2-y
33 y,1/2+z,1/2+x
34 -y,1/2+z,1/2-x
35 y,1/2-z,1/2-x
36 -y,1/2-z,1/2+x
37 y,1/2+x,1/2-z
38 -y,1/2-x,1/2-z
39 y,1/2-x,1/2+z
40 -y,1/2+x,1/2+z
41 x,1/2+z,1/2-y
42 -x,1/2+z,1/2+y
43 -x,1/2-z,1/2-y
44 x,1/2-z,1/2+y
45 z,1/2+y,1/2-x
46 z,1/2-y,1/2+x
47 -z,1/2+y,1/2+x
48 -z,1/2-y,1/2-x
49 1/2+x,y,1/2+z
50 1/2-x,-y,1/2+z
51 1/2-x,y,1/2-z
52 1/2+x,-y,1/2-z
53 1/2+z,x,1/2+y
54 1/2+z,-x,1/2-y
55 1/2-z,-x,1/2+y
56 1/2-z,x,1/2-y
57 1/2+y,z,1/2+x
58 1/2-y,z,1/2-x
59 1/2+y,-z,1/2-x
60 1/2-y,-z,1/2+x
61 1/2+y,x,1/2-z
62 1/2-y,-x,1/2-z
63 1/2+y,-x,1/2+z
64 1/2-y,x,1/2+z
65 1/2+x,z,1/2-y
66 1/2-x,z,1/2+y
67 1/2-x,-z,1/2-y
68 1/2+x,-z,1/2+y
69 1/2+z,y,1/2-x
70 1/2+z,-y,1/2+x
71 1/2-z,y,1/2+x
72 1/2-z,-y,1/2-x
73 1/2+x,1/2+y,z
74 1/2-x,1/2-y,z
75 1/2-x,1/2+y,-z
76 1/2+x,1/2-y,-z
77 1/2+z,1/2+x,y
78 1/2+z,1/2-x,-y
79 1/2-z,1/2-x,y
80 1/2-z,1/2+x,-y
81 1/2+y,1/2+z,x
82 1/2-y,1/2+z,-x
83 1/2+y,1/2-z,-x
84 1/2-y,1/2-z,x
85 1/2+y,1/2+x,-z
86 1/2-y,1/2-x,-z
87 1/2+y,1/2-x,z
88 1/2-y,1/2+x,z
89 1/2+x,1/2+z,-y
90 1/2-x,1/2+z,y
91 1/2-x,1/2-z,-y
92 1/2+x,1/2-z,y
93 1/2+z,1/2+y,-x
94 1/2+z,1/2-y,x
95 1/2-z,1/2+y,x
96 1/2-z,1/2-y,-x
97 -x,-y,-z
98 x,y,-z
99 x,-y,z
100 -x,y,z
101 -z,-x,-y
102 -z,x,y
103 z,x,-y
104 z,-x,y
105 -y,-z,-x
106 y,-z,x
107 -y,z,x
108 y,z,-x
109 -y,-x,z
110 y,x,z
111 -y,x,-z
112 y,-x,-z
113 -x,-z,y
114 x,-z,-y
115 x,z,y
116 -x,z,-y
117 -z,-y,x
118 -z,y,-x
119 z,-y,-x
120 z,y,x
121 -x,1/2-y,1/2-z
122 x,1/2+y,1/2-z
123 x,1/2-y,1/2+z
124 -x,1/2+y,1/2+z
125 -z,1/2-x,1/2-y
126 -z,1/2+x,1/2+y
127 z,1/2+x,1/2-y
128 z,1/2-x,1/2+y
129 -y,1/2-z,1/2-x
130 y,1/2-z,1/2+x
131 -y,1/2+z,1/2+x
132 y,1/2+z,1/2-x
133 -y,1/2-x,1/2+z
134 y,1/2+x,1/2+z
135 -y,1/2+x,1/2-z
136 y,1/2-x,1/2-z
137 -x,1/2-z,1/2+y
138 x,1/2-z,1/2-y
139 x,1/2+z,1/2+y
140 -x,1/2+z,1/2-y
141 -z,1/2-y,1/2+x
142 -z,1/2+y,1/2-x
143 z,1/2-y,1/2-x
144 z,1/2+y,1/2+x
145 1/2-x,-y,1/2-z
146 1/2+x,y,1/2-z
147 1/2+x,-y,1/2+z
148 1/2-x,y,1/2+z
149 1/2-z,-x,1/2-y
150 1/2-z,x,1/2+y
151 1/2+z,x,1/2-y
152 1/2+z,-x,1/2+y
153 1/2-y,-z,1/2-x
154 1/2+y,-z,1/2+x
155 1/2-y,z,1/2+x
156 1/2+y,z,1/2-x
157 1/2-y,-x,1/2+z
158 1/2+y,x,1/2+z
159 1/2-y,x,1/2-z
160 1/2+y,-x,1/2-z
161 1/2-x,-z,1/2+y
162 1/2+x,-z,1/2-y
163 1/2+x,z,1/2+y
164 1/2-x,z,1/2-y
165 1/2-z,-y,1/2+x
166 1/2-z,y,1/2-x
167 1/2+z,-y,1/2-x
168 1/2+z,y,1/2+x
169 1/2-x,1/2-y,-z
170 1/2+x,1/2+y,-z
171 1/2+x,1/2-y,z
172 1/2-x,1/2+y,z
173 1/2-z,1/2-x,-y
174 1/2-z,1/2+x,y
175 1/2+z,1/2+x,-y
176 1/2+z,1/2-x,y
177 1/2-y,1/2-z,-x
178 1/2+y,1/2-z,x
179 1/2-y,1/2+z,x
180 1/2+y,1/2+z,-x
181 1/2-y,1/2-x,z
182 1/2+y,1/2+x,z
183 1/2-y,1/2+x,-z
184 1/2+y,1/2-x,-z
185 1/2-x,1/2-z,y
186 1/2+x,1/2-z,-y
187 1/2+x,1/2+z,y
188 1/2-x,1/2+z,-y
189 1/2-z,1/2-y,x
190 1/2-z,1/2+y,-x
191 1/2+z,1/2-y,-x
192 1/2+z,1/2+y,x
_cell_length_a                   31.0196(9)
_cell_length_b                   31.0196(9)
_cell_length_c                   31.0196(9)
_cell_angle_alpha                90
_cell_angle_beta                 90
_cell_angle_gamma                90
_cell_volume                     29847.5
loop_
_atom_site_label
_atom_site_type_symbol
_atom_site_fract_x
_atom_site_fract_y
_atom_site_fract_z
Zn1 Zn 0.31726(10) 0.31726(10) 0.18274
Cl1 Cl 0.3554(2) 0.3554(2) 0.144644
Zn2 Zn 0.250 0.250 0.250
N1 N 0.3405(3) 0.2750(2) 0.224977
C1 C 0.3823(2) 0.2668(4) 0.233226
N2 N 0.3157(3) 0.250 0.250
C2 C 0.4210(3) 0.2829(3) 0.217065
C3 C 0.4609(3) 0.2666(3) 0.233429
O1 O 0.500 0.2828(4) 0.217167
H1 H 0.420936 0.30413 0.19587
N1UC N 0.6595(3) 0.2750(2) 0.224977
C1UC C 0.6177(2) 0.2668(4) 0.233226
N2Q N 0.6843(3) 0.250 0.250
C2UC C 0.5790(3) 0.2829(3) 0.217065
C3UC C 0.5391(3) 0.2666(3) 0.233429
H1UC H 0.579064 0.30413 0.19587
N1JD N 0.3405(3) 0.224977 0.2750(2)
C1JD C 0.3823(2) 0.233226 0.2668(4)
C2JD C 0.4210(3) 0.217065 0.2829(3)
C3JD C 0.4609(3) 0.233429 0.2666(3)
O1Q O 0.500 0.217167 0.2828(4)
H1JD H 0.420936 0.19587 0.30413
N1Q N 0.6595(3) 0.224977 0.2750(2)
C1Q C 0.6177(2) 0.233226 0.2668(4)
C2Q C 0.5790(3) 0.217065 0.2829(3)
C3Q C 0.5391(3) 0.233429 0.2666(3)
H1Q H 0.579064 0.19587 0.30413
Zn1D Zn 0.18274 0.31726(10) 0.31726(10)
Cl1D Cl 0.144644 0.3554(2) 0.3554(2)
N1D N 0.224977 0.3405(3) 0.2750(2)
C1D C 0.233226 0.3823(2) 0.2668(4)
N2D N 0.250 0.3157(3) 0.250
C2D C 0.217065 0.4210(3) 0.2829(3)
C3D C 0.233429 0.4609(3) 0.2666(3)
O1D O 0.217167 0.500 0.2828(4)
H1D H 0.19587 0.420936 0.30413
N1YC N 0.224977 0.6595(3) 0.2750(2)
C1YC C 0.233226 0.6177(2) 0.2668(4)
N2N N 0.250 0.6843(3) 0.250
C2YC C 0.217065 0.5790(3) 0.2829(3)
C3YC C 0.233429 0.5391(3) 0.2666(3)
H1YC H 0.19587 0.579064 0.30413
N1ED N 0.2750(2) 0.3405(3) 0.224977
C1ED C 0.2668(4) 0.3823(2) 0.233226
C2ED C 0.2829(3) 0.4210(3) 0.217065
C3ED C 0.2666(3) 0.4609(3) 0.233429
O1N O 0.2828(4) 0.500 0.217167
H1ED H 0.30413 0.420936 0.19587
N1N N 0.2750(2) 0.6595(3) 0.224977
C1N C 0.2668(4) 0.6177(2) 0.233226
C2N C 0.2829(3) 0.5790(3) 0.217065
C3N C 0.2666(3) 0.5391(3) 0.233429
H1N H 0.30413 0.579064 0.19587
Zn1H Zn 0.31726(10) 0.18274 0.31726(10)
Cl1H Cl 0.3554(2) 0.144644 0.3554(2)
N1H N 0.2750(2) 0.224977 0.3405(3)
C1H C 0.2668(4) 0.233226 0.3823(2)
N2H N 0.250 0.250 0.3157(3)
C2H C 0.2829(3) 0.217065 0.4210(3)
C3H C 0.2666(3) 0.233429 0.4609(3)
O1H O 0.2828(4) 0.217167 0.500
H1H H 0.30413 0.19587 0.420936
N1CD N 0.2750(2) 0.224977 0.6595(3)
C1CD C 0.2668(4) 0.233226 0.6177(2)
N2T N 0.250 0.250 0.6843(3)
C2CD C 0.2829(3) 0.217065 0.5790(3)
C3CD C 0.2666(3) 0.233429 0.5391(3)
H1CD H 0.30413 0.19587 0.579064
N1OD N 0.224977 0.2750(2) 0.3405(3)
C1OD C 0.233226 0.2668(4) 0.3823(2)
C2OD C 0.217065 0.2829(3) 0.4210(3)
C3OD C 0.233429 0.2666(3) 0.4609(3)
O1T O 0.217167 0.2828(4) 0.500
H1OD H 0.19587 0.30413 0.420936
N1T N 0.224977 0.2750(2) 0.6595(3)
C1T C 0.233226 0.2668(4) 0.6177(2)
C2T C 0.217065 0.2829(3) 0.5790(3)
C3T C 0.233429 0.2666(3) 0.5391(3)
H1T H 0.19587 0.30413 0.579064
Zn1N Zn 0.31726(10) 0.68274(10) 0.18274
Cl1N Cl 0.3554(2) 0.6446(2) 0.144644
Zn1O Zn 0.68274(10) 0.31726(10) 0.18274
Zn1P Zn 0.31726(10) 0.18274 0.68274(10)
Zn1Q Zn 0.68274(10) 0.18274 0.31726(10)
Zn1T Zn 0.18274 0.31726(10) 0.68274(10)
Zn1U Zn 0.18274 0.68274(10) 0.31726(10)
Zn2L Zn 0.250 0.250 0.750
Zn2N Zn 0.250 0.750 0.250
Zn2O Zn 0.750 0.250 0.250
N1TC N 0.3405(3) 0.7250(2) 0.224977
N1HA N 0.2750(2) 0.275023 0.1595(3)
N1AE N 0.2750(2) 0.724977 0.1595(3)
N1EE N 0.2750(2) 0.1595(3) 0.275023
N1XA N 0.1595(3) 0.2750(2) 0.275023
N2CA N 0.250 0.1843(3) 0.250
N2HA N 0.250 0.250 0.1843(3)
N2XA N 0.1843(3) 0.250 0.250
loop_
_geom_bond_atom_site_label_1
_geom_bond_atom_site_label_2
_geom_bond_site_symmetry_1
_geom_bond_site_symmetry_2
Zn1 Cl1 1_555 1_555
Zn2 N2 1_555 1_555
N1 Zn1 1_555 1_555
C1 N1 1_555 1_555
N2 N1 1_555 1_555
C2 C1 1_555 1_555
C3 C2 1_555 1_555
O1 C3 1_555 1_555
H1 C2 1_555 1_555
N1UC C1UC 1_555 1_555
C1UC C2UC 1_555 1_555
N2Q N1UC 1_555 1_555
C2UC C3UC 1_555 1_555
C3UC O1 1_555 1_555
H1UC C2UC 1_555 1_555
N1JD N2 1_555 1_555
C1JD C1 1_555 1_555
C2JD C1JD 1_555 1_555
C3JD C3 1_555 1_555
O1Q C3JD 1_555 1_555
H1JD C2JD 1_555 1_555
N1Q N2Q 1_555 1_555
C1Q C1UC 1_555 1_555
C2Q C1Q 1_555 1_555
C3Q C3UC 1_555 1_555
H1Q C2Q 1_555 1_555
Zn1D Cl1D 1_555 1_555
N1D Zn1D 1_555 1_555
C1D N1D 1_555 1_555
N2D Zn2 1_555 1_555
C2D C1D 1_555 1_555
C3D C2D 1_555 1_555
O1D C3D 1_555 1_555
H1D C2D 1_555 1_555
N1YC C1YC 1_555 1_555
C1YC C2YC 1_555 1_555
N2N N1YC 1_555 1_555
C2YC C3YC 1_555 1_555
C3YC O1D 1_555 1_555
H1YC C2YC 1_555 1_555
N1ED Zn1 1_555 1_555
C1ED C1D 1_555 1_555
C2ED C1ED 1_555 1_555
C3ED C3D 1_555 1_555
O1N C3ED 1_555 1_555
H1ED C2ED 1_555 1_555
N1N N2N 1_555 1_555
C1N C1YC 1_555 1_555
C2N C1N 1_555 1_555
C3N C3YC 1_555 1_555
H1N C2N 1_555 1_555
Zn1H N1JD 1_555 1_555
Cl1H Zn1H 1_555 1_555
N1H Zn1H 1_555 1_555
C1H N1H 1_555 1_555
N2H Zn2 1_555 1_555
C2H C1H 1_555 1_555
C3H C2H 1_555 1_555
O1H C3H 1_555 1_555
H1H C2H 1_555 1_555
N1CD C1CD 1_555 1_555
C1CD C2CD 1_555 1_555
N2T N1CD 1_555 1_555
C2CD C3CD 1_555 1_555
C3CD O1H 1_555 1_555
H1CD C2CD 1_555 1_555
N1OD Zn1D 1_555 1_555
C1OD C1H 1_555 1_555
C2OD C1OD 1_555 1_555
C3OD C3H 1_555 1_555
O1T C3OD 1_555 1_555
H1OD C2OD 1_555 1_555
N1T N2T 1_555 1_555
C1T C1CD 1_555 1_555
C2T C1T 1_555 1_555
C3T C3CD 1_555 1_555
H1T C2T 1_555 1_555
Zn1N N1N 1_555 1_555
Cl1N Zn1N 1_555 1_555
Zn1O N1UC 1_555 1_555
Zn1P N1CD 1_555 1_555
Zn1Q N1Q 1_555 1_555
Zn1T N1T 1_555 1_555
Zn1U N1YC 1_555 1_555
Zn2L N2T 1_555 1_555
Zn2N N2N 1_555 1_555
Zn2O N2Q 1_555 1_555
N1TC Zn1N 1_555 1_555
N1HA Zn1 1_555 1_555
N1AE Zn1N 1_555 1_555
N1EE Zn1H 1_555 1_555
N1XA Zn1D 1_555 1_555
N2CA Zn2 1_555 1_555
N2HA Zn2 1_555 1_555
N2XA Zn2 1_555 1_555
N1JD C1JD 1_555 1_555
C2JD C3JD 1_555 1_555
O1Q C3Q 1_555 1_555
N1Q C1Q 1_555 1_555
C2Q C3Q 1_555 1_555
N1D N2D 1_555 1_555
N2D N1ED 1_555 1_555
N1ED C1ED 1_555 1_555
C2ED C3ED 1_555 1_555
O1N C3N 1_555 1_555
N1N C1N 1_555 1_555
C2N C3N 1_555 1_555
N1H N2H 1_555 1_555
N2H N1OD 1_555 1_555
N1OD C1OD 1_555 1_555
C2OD C3OD 1_555 1_555
O1T C3T 1_555 1_555
N1T C1T 1_555 1_555
C2T C3T 1_555 1_555
N1HA N2HA 1_555 1_555
N1EE N2CA 1_555 1_555
N1XA N2XA 1_555 1_555

#END
