
#######################################################################
#
#                 Cambridge Crystallographic Data Centre
#                                CCDC 
#
#######################################################################
#
# If this CIF has been generated from an entry in the Cambridge 
# Structural Database, then it will include bibliographic, chemical, 
# crystal, experimental, refinement or atomic coordinate data resulting 
# from the CCDC's data processing and validation procedures.
#
#######################################################################

data_XULRED
_chemical_formula_moiety         '(C18 H24 N5 O13 P3 Zn3)n'
_symmetry_cell_setting           triclinic
_symmetry_space_group_name_H-M   'P -1'
_symmetry_Int_Tables_number      2
_space_group_name_Hall           '-P 1'
loop_
_symmetry_equiv_pos_site_id
_symmetry_equiv_pos_as_xyz
1 x,y,z
2 -x,-y,-z
_cell_length_a                   9.2153(4)
_cell_length_b                   11.1328(6)
_cell_length_c                   15.2684(9)
_cell_angle_alpha                70.278(3)
_cell_angle_beta                 83.973(3)
_cell_angle_gamma                71.336(3)
_cell_volume                     1396.98
loop_
_atom_site_label
_atom_site_type_symbol
_atom_site_fract_x
_atom_site_fract_y
_atom_site_fract_z
Zn1 Zn -1.31194(7) 1.74919(7) 0.74625(5)
Zn2 Zn -1.50991(8) 1.47112(7) 0.64980(5)
Zn3 Zn -1.85513(7) 1.81390(6) 0.51218(5)
P1 P -1.60176(17) 1.76324(16) 0.65559(11)
H1 H -1.6905 1.8201 0.7258
P2 P -1.75360(17) 1.51760(15) 0.50222(10)
H2 H -1.8555 1.4515 0.5091
P3 P -2.08044(16) 1.91720(16) 0.65906(10)
H3 H -1.9644 1.8905 0.7048
O1 O -1.4452(4) 1.7878(4) 0.6442(3)
O2 O -1.5928(5) 1.6172(5) 0.6998(3)
O3 O -1.6845(5) 1.8299(5) 0.5654(3)
O4 O -1.6598(7) 1.4423(5) 0.5894(4)
O5 O -1.6780(14) 1.5551(11) 0.4096(7)
O6 O -1.8707(15) 1.6369(11) 0.5229(8)
O7 O -2.0323(5) 1.8386(5) 0.5933(3)
O8 O -2.2054(5) 1.8789(5) 0.7231(4)
O9 O -2.1194(6) 2.0679(5) 0.6133(3)
N1 N -1.1701(5) 1.5593(5) 0.7813(3)
N2 N -0.5582(6) 0.6876(5) 1.2306(3)
N3 N -0.6372(6) 1.1527(5) 0.5430(3)
N4 N -0.8343(5) 1.1036(5) 0.9641(3)
N5 N -0.6546(5) 0.9825(5) 0.8901(3)
C1 C -1.0446(7) 1.5259(6) 0.7312(5)
H4 H -1.0278 1.5902 0.6771
C2 C -0.9389(7) 1.3993(6) 0.7569(4)
H5 H -0.8522 1.3798 0.7209
C3 C -1.1968(7) 1.4639(7) 0.8570(4)
H6 H -1.2860 1.4859 0.8905
C4 C -1.0982(7) 1.3341(6) 0.8879(4)
H7 H -1.1203 1.2704 0.9406
C5 C -0.9635(6) 1.3021(6) 0.8366(4)
C6 C -0.6878(7) 0.7888(6) 1.2254(4)
H8 H -0.7451 0.7901 1.2792
C7 C -0.7391(7) 0.8900(6) 1.1442(4)
H9 H -0.8290 0.9589 1.1435
C8 C -0.4737(8) 0.6871(7) 1.1527(4)
H10 H -0.3825 0.6184 1.1561
C9 C -0.5196(7) 0.7874(6) 1.0670(4)
H11 H -0.4594 0.7853 1.0144
C10 C -0.6554(7) 0.8895(6) 1.0615(4)
C11 C -0.5237(7) 1.1039(6) 0.6049(4)
H12 H -0.4222 1.0836 0.5855
C12 C -0.5575(6) 1.0842(6) 0.6959(4)
H13 H -0.4787 1.0501 0.7393
C13 C -0.7824(7) 1.1810(6) 0.5678(4)
H14 H -0.8580 1.2144 0.5225
C14 C -0.8239(6) 1.1623(6) 0.6589(4)
H15 H -0.9265 1.1811 0.6763
C15 C -0.7075(6) 1.1140(5) 0.7253(4)
C16 C -0.8491(6) 1.1675(5) 0.8723(4)
C17 C -0.7134(6) 0.9907(6) 0.9738(4)
C18 C -0.7412(6) 1.0922(5) 0.8258(4)
O10 O -1.4477(4) 1.7728(4) 0.8497(3)
Zn1_2 Zn -2.31194(7) 1.74919(7) 0.74625(5)
Zn2A Zn -1.49009(8) 1.52888(7) 0.35020(5)
Zn2A_2 Zn -0.49009(8) 0.52888(7) 1.35020(5)
Zn3A Zn -2.14487(7) 2.18610(6) 0.48782(5)
O5A O -1.3220(14) 1.4449(11) 0.5904(7)
O8_2 O -1.2054(5) 1.8789(5) 0.7231(4)
O9A O -1.8806(6) 1.9321(5) 0.3867(3)
N2A N -1.4418(6) 1.3124(5) 0.7694(3)
O11 O -0.8984(13) 1.2714(12) 1.0794(9)
O12 O -1.4035(15) 1.4030(13) 1.0612(9)
O13 O -0.1621(10) 0.4834(9) 1.0724(6)
loop_
_geom_bond_atom_site_label_1
_geom_bond_atom_site_label_2
_geom_bond_site_symmetry_1
_geom_bond_site_symmetry_2
Zn1 O1 1_555 1_555
Zn2 O2 1_555 1_555
Zn3 O3 1_555 1_555
P1 H1 1_555 1_555
P2 H2 1_555 1_555
P3 H3 1_555 1_555
O1 P1 1_555 1_555
O2 P1 1_555 1_555
O3 P1 1_555 1_555
O4 Zn2 1_555 1_555
O5 P2 1_555 1_555
O6 Zn3 1_555 1_555
O7 Zn3 1_555 1_555
O8 P3 1_555 1_555
O9 P3 1_555 1_555
N1 Zn1 1_555 1_555
N2 C6 1_555 1_555
N3 C11 1_555 1_555
N4 C16 1_555 1_555
N5 C17 1_555 1_555
C1 N1 1_555 1_555
H4 C1 1_555 1_555
C2 C1 1_555 1_555
H5 C2 1_555 1_555
C3 N1 1_555 1_555
H6 C3 1_555 1_555
C4 C3 1_555 1_555
H7 C4 1_555 1_555
C5 C2 1_555 1_555
C6 H8 1_555 1_555
C7 C6 1_555 1_555
H9 C7 1_555 1_555
C8 N2 1_555 1_555
H10 C8 1_555 1_555
C9 C8 1_555 1_555
H11 C9 1_555 1_555
C10 C7 1_555 1_555
C11 H12 1_555 1_555
C12 C11 1_555 1_555
H13 C12 1_555 1_555
C13 N3 1_555 1_555
H14 C13 1_555 1_555
C14 C13 1_555 1_555
H15 C14 1_555 1_555
C15 C12 1_555 1_555
C16 C5 1_555 1_555
C17 N4 1_555 1_555
C18 N5 1_555 1_555
O10 Zn1 1_555 1_555
Zn1_2 O8 1_555 1_555
Zn2A O5 1_555 1_555
Zn2A_2 N2 1_555 1_555
Zn3A O9 1_555 1_555
O5A Zn2 1_555 1_555
O8_2 Zn1 1_555 1_555
O9A Zn3 1_555 1_555
N2A Zn2 1_555 1_555
P2 O4 1_555 1_555
P2 O6 1_555 1_555
P3 O7 1_555 1_555
C4 C5 1_555 1_555
C9 C10 1_555 1_555
C10 C17 1_555 1_555
C14 C15 1_555 1_555
C15 C18 1_555 1_555
C16 C18 1_555 1_555

#END
