
#######################################################################
#
#                 Cambridge Crystallographic Data Centre
#                                CCDC 
#
#######################################################################
#
# If this CIF has been generated from an entry in the Cambridge 
# Structural Database, then it will include bibliographic, chemical, 
# crystal, experimental, refinement or atomic coordinate data resulting 
# from the CCDC's data processing and validation procedures.
#
#######################################################################

data_VECWUX
_chemical_formula_moiety         '(C27 H23 N7 Ni1 O15)n'
_symmetry_cell_setting           orthorhombic
_symmetry_space_group_name_H-M   'A b a 2'
_symmetry_Int_Tables_number      41
_space_group_name_Hall           'A 2 -2ab'
loop_
_symmetry_equiv_pos_site_id
_symmetry_equiv_pos_as_xyz
1 x,y,z
2 -x,-y,z
3 1/2+x,1/2-y,z
4 1/2-x,1/2+y,z
5 x,1/2+y,1/2+z
6 -x,1/2-y,1/2+z
7 1/2+x,-y,1/2+z
8 1/2-x,y,1/2+z
_cell_length_a                   30.746(7)
_cell_length_b                   19.491(5)
_cell_length_c                   11.586(3)
_cell_angle_alpha                90
_cell_angle_beta                 90
_cell_angle_gamma                90
_cell_volume                     6943.15
loop_
_atom_site_label
_atom_site_type_symbol
_atom_site_fract_x
_atom_site_fract_y
_atom_site_fract_z
_atom_site_U_iso_or_equiv
_atom_site_thermal_displace_type
Ni1 Ni 0.42705(2) 0.77352(3) 0.53987(8) 0.0242 Uani
O1 O 0.36188(12) 0.7797(2) 0.5614(4) 0.0343 Uani
O2 O 0.35221(14) 0.8411(3) 0.7241(4) 0.0517 Uani
O3 O 0.00307(13) 0.8031(2) 0.3695(4) 0.0410 Uani
O4 O -0.00692(12) 0.7357(2) 0.5233(4) 0.0337 Uani
O5 O 0.43842(13) 0.8319(2) 0.6866(3) 0.0320 Uani
H1 H 0.4353 0.8752 0.6841 0.0390 Uiso
H2 H 0.4461 0.8126 0.7490 0.0390 Uiso
O6 O 0.41491(13) 0.7201(2) 0.3858(3) 0.0350 Uani
H3 H 0.4073 0.7419 0.3256 0.0420 Uiso
H4 H 0.4175 0.6768 0.3837 0.0420 Uiso
N1 N 0.2157(2) 0.7212(4) 0.4119(6) 0.0573 Uani
N2 N 0.18970(19) 0.8777(4) 0.7478(6) 0.0647 Uani
N3 N 0.1522(2) 0.9094(4) 0.4498(7) 0.0627 Uani
N4 N 0.1458(3) 0.6816(5) 0.6506(7) 0.0823 Uani
O7 O 0.1810(2) 0.6954(5) 0.4117(9) 0.1407 Uani
O8 O 0.2402(2) 0.7122(4) 0.3329(6) 0.1013 Uani
O9 O 0.2031(6) 0.8893(14) 0.8450(10) 0.0713 Uani
O10 O 0.1572(8) 0.9059(18) 0.7086(15) 0.1033 Uani
O11 O 0.19104(18) 0.9089(3) 0.4408(6) 0.0743 Uani
O12 O 0.1295(2) 0.9581(3) 0.4257(9) 0.1197 Uani
O13 O 0.1778(2) 0.6929(5) 0.7085(8) 0.1423 Uani
O14 O 0.1297(3) 0.6243(4) 0.6389(9) 0.1230 Uani
N5 N 0.42606(16) 0.8654(2) 0.4464(4) 0.0297 Uani
N6 N 0.42676(15) 1.1808(3) 0.1350(4) 0.0320 Uani
C1 C 0.33878(19) 0.8098(3) 0.6368(6) 0.0363 Uani
C2 C 0.29019(19) 0.8080(3) 0.6159(6) 0.0337 Uani
C3 C 0.26249(19) 0.8430(3) 0.6881(6) 0.0387 Uani
H5 H 0.2733 0.8690 0.7490 0.0460 Uiso
C4 C 0.21738(19) 0.8387(4) 0.6676(6) 0.0420 Uani
C5 C 0.19947(19) 0.8005(4) 0.5769(6) 0.0400 Uani
C6 C 0.2298(2) 0.7665(3) 0.5078(5) 0.0393 Uani
C7 C 0.27403(17) 0.7698(3) 0.5246(7) 0.0353 Uani
H6 H 0.2929 0.7467 0.4753 0.0430 Uiso
C8 C 0.15120(18) 0.7981(3) 0.5551(6) 0.0370 Uani
C9 C 0.12954(19) 0.8467(3) 0.4926(6) 0.0357 Uani
C10 C 0.08526(19) 0.8408(3) 0.4631(5) 0.0337 Uani
H7 H 0.0717 0.8756 0.4218 0.0410 Uiso
C11 C 0.06192(19) 0.7831(3) 0.4958(5) 0.0330 Uani
C12 C 0.08263(17) 0.7343(4) 0.5628(6) 0.0410 Uani
H8 H 0.0672 0.6967 0.5903 0.0490 Uiso
C13 C 0.1262(2) 0.7416(4) 0.5887(6) 0.0467 Uani
C14 C 0.01554(19) 0.7735(3) 0.4593(5) 0.0293 Uani
C15 C 0.4027(2) 0.9204(3) 0.4804(6) 0.0397 Uani
H9 H 0.3864 0.9165 0.5478 0.0470 Uiso
C16 C 0.4012(2) 0.9810(3) 0.4229(5) 0.0373 Uani
H10 H 0.3843 1.0168 0.4513 0.0450 Uiso
C17 C 0.42490(18) 0.9900(3) 0.3218(5) 0.0297 Uani
C18 C 0.4479(2) 0.9323(3) 0.2839(6) 0.0490 Uani
H11 H 0.4633 0.9344 0.2150 0.0590 Uiso
C19 C 0.4479(2) 0.8720(3) 0.3473(6) 0.0423 Uani
H12 H 0.4638 0.8347 0.3200 0.0510 Uiso
C20 C 0.42456(18) 1.0562(3) 0.2565(5) 0.0293 Uani
C21 C 0.4428(2) 1.0604(3) 0.1465(6) 0.0417 Uani
H13 H 0.4547 1.0218 0.1116 0.0500 Uiso
C22 C 0.4429(2) 1.1227(3) 0.0902(5) 0.0367 Uani
H14 H 0.4549 1.1245 0.0166 0.0440 Uiso
C23 C 0.4088(2) 1.1758(3) 0.2398(6) 0.0407 Uani
H15 H 0.3965 1.2150 0.2720 0.0490 Uiso
C24 C 0.4077(2) 1.1159(3) 0.3024(6) 0.0457 Uani
H16 H 0.3955 1.1156 0.3759 0.0550 Uiso
Ni1B Ni -0.07295(2) 0.72648(3) 0.53987(8) 0.0242 Uani
Ni1D Ni 0.42705(2) 1.27352(3) 0.03987(8) 0.0242 Uani
O4B O 0.49308(12) 0.7643(2) 0.5233(4) 0.0337 Uani
N6D N 0.42676(15) 0.6808(3) 0.6350(4) 0.0320 Uani
O15 O 0.1461(3) 0.1223(4) 0.4381(9) 0.1347 Uani
N7 N 0.2122(3) 0.0772(4) 0.5169(11) 0.1410 Uani
C25 C 0.1812(3) 0.0968(5) 0.4339(11) 0.1223 Uani
H17 H 0.1902 0.0879 0.3588 0.1470 Uiso
C26 C 0.2515(4) 0.0412(6) 0.4830(18) 0.2640 Uani
H18 H 0.2529 0.0366 0.4006 0.3970 Uiso
H19 H 0.2759 0.0676 0.5096 0.3970 Uiso
H20 H 0.2521 -0.0034 0.5179 0.3970 Uiso
C27 C 0.2062(6) 0.0863(10) 0.6401(11) 0.2420 Uani
H21 H 0.1794 0.1093 0.6581 0.3650 Uiso
H22 H 0.2065 0.0420 0.6762 0.3650 Uiso
H23 H 0.2302 0.1130 0.6679 0.3650 Uiso
loop_
_atom_site_aniso_label
_atom_site_aniso_U_11
_atom_site_aniso_U_22
_atom_site_aniso_U_33
_atom_site_aniso_U_23
_atom_site_aniso_U_13
_atom_site_aniso_U_12
Ni1 0.0183(3) 0.0252(3) 0.0290(3) 0.0084(4) 0.0006(4) 0.0017(3)
O1 0.0198(19) 0.043(2) 0.040(3) 0.001(2) 0.004(2) 0.0045(18)
O2 0.024(2) 0.084(4) 0.047(3) -0.023(3) -0.005(2) -0.001(3)
O3 0.024(2) 0.059(3) 0.040(3) 0.009(2) -0.002(2) -0.005(2)
O4 0.0200(18) 0.040(2) 0.041(3) -0.002(2) 0.003(2) -0.0046(17)
O5 0.039(2) 0.026(2) 0.031(2) 0.0035(19) -0.0056(19) 0.003(2)
O6 0.045(3) 0.027(2) 0.033(2) 0.0078(19) -0.005(2) 0.002(2)
N1 0.031(4) 0.075(5) 0.066(5) -0.013(4) 0.000(3) -0.003(4)
N2 0.020(3) 0.114(7) 0.060(5) -0.034(4) 0.002(3) 0.010(4)
N3 0.041(4) 0.051(4) 0.096(6) 0.000(4) -0.005(4) -0.003(4)
N4 0.056(5) 0.094(6) 0.097(6) 0.036(5) -0.022(5) -0.005(5)
O7 0.048(5) 0.186(8) 0.188(9) -0.127(7) 0.014(5) -0.026(5)
O8 0.080(5) 0.141(6) 0.083(5) -0.042(4) 0.025(4) -0.018(4)
O9 0.053(9) 0.124(15) 0.037(7) -0.033(8) 0.010(6) 0.017(9)
O10 0.072(12) 0.18(3) 0.058(10) -0.062(12) -0.019(8) 0.072(14)
O11 0.039(3) 0.076(4) 0.108(5) 0.010(4) -0.002(3) -0.020(3)
O12 0.057(4) 0.058(4) 0.244(10) 0.025(5) 0.000(5) -0.012(4)
O13 0.063(5) 0.181(8) 0.183(9) 0.116(7) -0.059(5) -0.038(5)
O14 0.109(6) 0.082(5) 0.178(8) 0.038(6) -0.043(6) -0.007(5)
N5 0.034(3) 0.024(3) 0.031(3) 0.010(2) 0.003(2) 0.001(2)
N6 0.029(3) 0.039(3) 0.028(3) 0.008(2) 0.008(2) 0.003(3)
C1 0.022(3) 0.040(4) 0.047(4) 0.015(3) -0.002(3) -0.001(3)
C2 0.020(3) 0.043(4) 0.038(4) 0.004(3) -0.002(3) -0.002(3)
C3 0.025(3) 0.052(4) 0.039(4) -0.009(3) -0.004(3) 0.001(3)
C4 0.021(3) 0.064(5) 0.041(4) -0.011(4) 0.007(3) 0.005(3)
C5 0.018(3) 0.061(4) 0.041(4) 0.002(3) 0.008(3) -0.003(3)
C6 0.030(3) 0.044(4) 0.044(5) -0.008(3) -0.003(3) -0.010(3)
C7 0.022(3) 0.036(3) 0.048(5) -0.005(3) 0.003(4) 0.002(3)
C8 0.018(3) 0.056(4) 0.037(4) 0.000(3) -0.007(3) -0.006(3)
C9 0.022(3) 0.042(4) 0.043(4) -0.005(3) 0.002(3) -0.010(3)
C10 0.028(3) 0.034(4) 0.039(4) -0.002(3) -0.001(3) -0.004(3)
C11 0.017(3) 0.043(4) 0.039(4) -0.004(3) 0.007(2) -0.006(3)
C12 0.020(3) 0.056(4) 0.047(6) 0.015(4) -0.001(3) -0.012(3)
C13 0.034(4) 0.068(5) 0.038(4) 0.010(3) 0.002(3) 0.003(4)
C14 0.022(3) 0.040(4) 0.026(3) -0.006(3) 0.003(3) -0.004(3)
C15 0.045(4) 0.037(4) 0.037(4) 0.008(3) 0.009(3) 0.004(3)
C16 0.050(4) 0.029(4) 0.033(4) 0.007(3) 0.012(3) 0.006(3)
C17 0.030(3) 0.023(3) 0.036(4) 0.007(3) -0.003(3) 0.000(3)
C18 0.060(5) 0.042(4) 0.045(4) 0.022(4) 0.028(4) 0.020(4)
C19 0.049(4) 0.033(4) 0.045(4) 0.011(3) 0.012(4) 0.013(3)
C20 0.033(3) 0.025(3) 0.030(4) 0.013(3) 0.003(3) 0.001(3)
C21 0.057(4) 0.030(4) 0.038(4) 0.008(3) 0.008(3) 0.012(3)
C22 0.048(4) 0.031(4) 0.031(4) 0.013(3) 0.013(3) 0.006(3)
C23 0.057(4) 0.029(4) 0.036(4) 0.003(3) 0.017(3) 0.013(3)
C24 0.060(5) 0.030(4) 0.047(4) 0.014(3) 0.013(4) 0.008(4)
Ni1B 0.0183 0.0252 0.029 -0.0084 0.0006 -0.0017
Ni1D 0.0183 0.0252 0.029 0.0084 0.0006 0.0017
O4B 0.02 0.04 0.041 0.002 0.003 0.0046
N6D 0.029 0.039 0.028 0.008 0.008 0.003
O15 0.103(6) 0.089(5) 0.212(10) 0.027(6) 0.043(6) 0.055(5)
N7 0.137(10) 0.063(6) 0.223(17) 0.033(9) -0.031(10) -0.015(6)
C25 0.150(13) 0.065(8) 0.152(13) -0.004(8) 0.052(11) -0.014(9)
C26 0.074(8) 0.108(10) 0.61(6) -0.031(18) 0.038(16) 0.000(9)
C27 0.39(3) 0.23(2) 0.106(13) -0.024(15) 0.039(17) -0.06(2)
loop_
_geom_bond_atom_site_label_1
_geom_bond_atom_site_label_2
_geom_bond_site_symmetry_1
_geom_bond_site_symmetry_2
Ni1 O1 1_555 1_555
O1 C1 1_555 1_555
O2 C1 1_555 1_555
O3 C14 1_555 1_555
O4 C14 1_555 1_555
O5 Ni1 1_555 1_555
H1 O5 1_555 1_555
H2 O5 1_555 1_555
O6 Ni1 1_555 1_555
H3 O6 1_555 1_555
H4 O6 1_555 1_555
N1 O7 1_555 1_555
N2 O9 1_555 1_555
N3 O11 1_555 1_555
N4 O13 1_555 1_555
O8 N1 1_555 1_555
O10 N2 1_555 1_555
O12 N3 1_555 1_555
O14 N4 1_555 1_555
N5 Ni1 1_555 1_555
N6 C22 1_555 1_555
C1 C2 1_555 1_555
C2 C3 1_555 1_555
C3 H5 1_555 1_555
C4 N2 1_555 1_555
C5 C4 1_555 1_555
C6 N1 1_555 1_555
C7 C2 1_555 1_555
H6 C7 1_555 1_555
C8 C5 1_555 1_555
C9 N3 1_555 1_555
C10 C9 1_555 1_555
H7 C10 1_555 1_555
C11 C10 1_555 1_555
C12 C11 1_555 1_555
H8 C12 1_555 1_555
C13 N4 1_555 1_555
C14 C11 1_555 1_555
C15 N5 1_555 1_555
H9 C15 1_555 1_555
C16 C15 1_555 1_555
H10 C16 1_555 1_555
C17 C16 1_555 1_555
C18 C17 1_555 1_555
H11 C18 1_555 1_555
C19 N5 1_555 1_555
H12 C19 1_555 1_555
C20 C17 1_555 1_555
C21 C20 1_555 1_555
H13 C21 1_555 1_555
C22 C21 1_555 1_555
H14 C22 1_555 1_555
C23 N6 1_555 1_555
H15 C23 1_555 1_555
C24 C20 1_555 1_555
H16 C24 1_555 1_555
O15 C25 1_555 1_555
N7 C25 1_555 1_555
C25 H17 1_555 1_555
C26 N7 1_555 1_555
H18 C26 1_555 1_555
H19 C26 1_555 1_555
H20 C26 1_555 1_555
C27 N7 1_555 1_555
H21 C27 1_555 1_555
H22 C27 1_555 1_555
H23 C27 1_555 1_555
Ni1B O4 1_555 1_555
Ni1D N6 1_555 1_555
O4B Ni1 1_555 1_555
N6D Ni1 1_555 1_555
C3 C4 1_555 1_555
C5 C6 1_555 1_555
C6 C7 1_555 1_555
C8 C9 1_555 1_555
C8 C13 1_555 1_555
C12 C13 1_555 1_555
C18 C19 1_555 1_555
C23 C24 1_555 1_555

#END
