
#######################################################################
#
#                 Cambridge Crystallographic Data Centre
#                                CCDC 
#
#######################################################################
#
# If this CIF has been generated from an entry in the Cambridge 
# Structural Database, then it will include bibliographic, chemical, 
# crystal, experimental, refinement or atomic coordinate data resulting 
# from the CCDC's data processing and validation procedures.
#
#######################################################################

data_PIZHOX
_chemical_formula_moiety         '(C36 H44 Cu3 N30 O4)n'
_symmetry_cell_setting           monoclinic
_symmetry_space_group_name_H-M   'P 21/n'
_symmetry_Int_Tables_number      14
_space_group_name_Hall           '-P 2yn'
loop_
_symmetry_equiv_pos_site_id
_symmetry_equiv_pos_as_xyz
1 x,y,z
2 1/2-x,1/2+y,1/2-z
3 -x,-y,-z
4 1/2+x,1/2-y,1/2+z
_cell_length_a                   13.0662(3)
_cell_length_b                   14.7659(3)
_cell_length_c                   15.3925(3)
_cell_angle_alpha                90
_cell_angle_beta                 90.296(2)
_cell_angle_gamma                90
_cell_volume                     2969.7
loop_
_atom_site_label
_atom_site_type_symbol
_atom_site_fract_x
_atom_site_fract_y
_atom_site_fract_z
Cu1 Cu 0.5000 0.5000 0.0000
Cu2 Cu 0.51254(2) 0.286005(19) -0.091235(18)
O1 O 0.45664(16) 0.16434(13) -0.00190(12)
N1 N 0.59455(16) 0.40318(13) 0.04754(12)
N2 N 0.60208(16) 0.32237(13) 0.01059(13)
N3 N 0.66541(16) 0.27022(14) 0.05652(13)
N4 N 0.65291(17) 0.40671(14) 0.11814(13)
N5 N 0.40878(15) 0.37453(13) -0.04880(13)
N6 N 0.32414(17) 0.34856(15) -0.03405(15)
N7 N 0.2424(2) 0.3246(2) -0.0176(2)
N8 N 0.42511(16) 0.50225(13) 0.11446(13)
N9 N 0.37029(16) 0.43172(14) 0.14163(13)
N10 N 0.41436(17) 0.57196(14) 0.16779(13)
N11 N 0.35149(18) 0.54832(15) 0.23214(14)
N12 N 0.12080(16) 0.29261(14) 0.35366(13)
N13 N 0.91230(16) 0.24892(14) 0.31484(13)
N14 N 0.4604(2) 0.13556(18) 0.14202(15)
C1 C 0.69525(19) 0.32403(17) 0.12214(16)
C2 C 0.7682(2) 0.29687(17) 0.18970(16)
C3 C 0.8066(2) 0.20906(18) 0.19366(18)
H1 H 0.7846 0.1645 0.1532
C4 C 0.8027(2) 0.35921(18) 0.25060(17)
H2 H 0.7770 0.4194 0.2504
C5 C 0.3263(2) 0.46180(17) 0.21377(16)
C6 C 0.2557(2) 0.40510(17) 0.26371(16)
C7 C 0.2101(2) 0.33007(18) 0.22387(17)
H3 H 0.2247 0.3162 0.1650
C8 C 0.1444(2) 0.27678(17) 0.27014(17)
H4 H 0.1141 0.2262 0.2419
C9 C 0.1648(2) 0.36415(18) 0.39237(17)
H5 H 0.1493 0.3760 0.4515
C10 C 0.2318(2) 0.42147(18) 0.35000(17)
H6 H 0.2612 0.4716 0.3797
C11 C 0.8745(2) 0.33295(18) 0.31124(18)
H7 H 0.8981 0.3763 0.3523
C12 C 0.8772(2) 0.18788(19) 0.25742(18)
H8 H 0.9021 0.1275 0.2608
C13 C 0.5204(4) 0.0538(2) 0.1329(2)
H9 H 0.4983 0.0211 0.0806
H10 H 0.5106 0.0153 0.1840
H11 H 0.5930 0.0697 0.1278
C14 C 0.4313(5) 0.1624(4) 0.2293(3)
H12 H 0.3878 0.2164 0.2264
H13 H 0.4929 0.1758 0.2635
H14 H 0.3935 0.1129 0.2569
C15 C 0.4364(3) 0.1847(2) 0.0734(2)
H15 H 0.4008 0.2399 0.0829
Cu2B Cu 0.48746(2) 0.713995(19) 0.091235(18)
O1B O 0.54336(16) 0.83566(13) 0.00190(12)
N1B N 0.40545(16) 0.59682(13) -0.04754(12)
N2B N 0.39792(16) 0.67763(13) -0.01059(13)
N3B N 0.33459(16) 0.72978(14) -0.05652(13)
N4B N 0.34709(17) 0.59329(14) -0.11814(13)
N5B N 0.59122(15) 0.62547(13) 0.04880(13)
N6B N 0.67586(17) 0.65144(15) 0.03405(15)
N7B N 0.7576(2) 0.6754(2) 0.0176(2)
N8B N 0.57489(16) 0.49775(13) -0.11446(13)
N9B N 0.62971(16) 0.56828(14) -0.14163(13)
N10B N 0.58564(17) 0.42804(14) -0.16779(13)
N11B N 0.64851(18) 0.45168(15) -0.23214(14)
N12B N 0.87920(16) 0.70739(14) -0.35366(13)
N13B N 0.08770(16) 0.75108(14) -0.31484(13)
N14B N 0.5396(2) 0.86444(18) -0.14202(15)
C1B C 0.30475(19) 0.67597(17) -0.12214(16)
C2B C 0.2318(2) 0.70313(17) -0.18970(16)
C3B C 0.1934(2) 0.79094(18) -0.19366(18)
H1B H 0.2154 0.8355 -0.1532
C4B C 0.1973(2) 0.64079(18) -0.25060(17)
H2B H 0.2230 0.5806 -0.2504
C5B C 0.6737(2) 0.53820(17) -0.21377(16)
C6B C 0.7443(2) 0.59490(17) -0.26371(16)
C7B C 0.7899(2) 0.66993(18) -0.22387(17)
H3B H 0.7753 0.6838 -0.1650
C8B C 0.8556(2) 0.72322(17) -0.27014(17)
H4B H 0.8859 0.7738 -0.2419
C9B C 0.8352(2) 0.63585(18) -0.39237(17)
H5B H 0.8507 0.6240 -0.4515
C10B C 0.7682(2) 0.57853(18) -0.35000(17)
H6B H 0.7388 0.5284 -0.3797
C11B C 0.1255(2) 0.66705(18) -0.31124(18)
H7B H 0.1019 0.6237 -0.3523
C12B C 0.1228(2) 0.81212(19) -0.25742(18)
H8B H 0.0979 0.8725 -0.2608
C13B C 0.4796(4) 0.9462(2) -0.1329(2)
H9B H 0.5017 0.9789 -0.0806
H10B H 0.4894 0.9847 -0.1840
H11B H 0.4070 0.9303 -0.1278
C14B C 0.5687(5) 0.8376(4) -0.2293(3)
H12B H 0.6122 0.7836 -0.2264
H13B H 0.5071 0.8242 -0.2635
H14B H 0.6065 0.8871 -0.2569
C15B C 0.5636(3) 0.8153(2) -0.0734(2)
H15B H 0.5992 0.7601 -0.0829
Cu2A Cu -0.01254(2) 0.786005(19) -0.408765(18)
Cu2A_2 Cu 0.98746(2) 0.786005(19) -0.408765(18)
Cu2C Cu 0.01254(2) 0.213995(19) 0.408765(18)
Cu2C_2 Cu 1.01254(2) 0.213995(19) 0.408765(18)
N12A N 0.37920(16) 0.79261(14) 0.14634(13)
N12C N 0.62080(16) 0.20739(14) -0.14634(13)
N13A N 0.58770(16) 0.74892(14) 0.18516(13)
N13C N 0.41230(16) 0.25108(14) -0.18516(13)
C16 C 0.8478(14) 0.4103(17) 0.9609(13)
H16 H 0.8875 0.4242 0.9087
H17 H 0.7889 0.4512 0.9643
H18 H 0.8237 0.3475 0.9580
C17 C 0.9847(17) 0.3541(13) 1.0469(16)
H19 H 1.0142 0.3652 1.1046
H20 H 1.0383 0.3592 1.0029
H21 H 0.9550 0.2932 1.0450
N15 N 0.9052(17) 0.4207(12) 1.0294(11)
C18 C 0.8975(10) 0.4904(6) 1.0890(9)
H22 H 0.8478 0.5363 1.0788
O2 O 0.9544(9) 0.4966(7) 1.1579(4)
C22 C 0.4602(9) 0.5176(8) 0.6328(10)
H30 H 0.4358 0.5047 0.6916
H31 H 0.5323 0.5359 0.6354
H32 H 0.4535 0.4631 0.5969
C23 C 0.4382(11) 0.6715(10) 0.6291(8)
H33 H 0.3936 0.7209 0.6095
H34 H 0.5079 0.6819 0.6080
H35 H 0.4389 0.6694 0.6927
N17 N 0.4012(11) 0.5884(8) 0.5961(8)
C24 C 0.3095(6) 0.5654(6) 0.5580(5)
H36 H 0.2692 0.6132 0.5347
O4 O 0.2768(7) 0.4918(8) 0.5518(7)
loop_
_geom_bond_atom_site_label_1
_geom_bond_atom_site_label_2
_geom_bond_site_symmetry_1
_geom_bond_site_symmetry_2
Cu1 N1 1_555 1_555
Cu2 O1 1_555 1_555
O1 C15 1_555 1_555
N1 N2 1_555 1_555
N2 Cu2 1_555 1_555
N3 N2 1_555 1_555
N4 N1 1_555 1_555
N5 Cu1 1_555 1_555
N6 N5 1_555 1_555
N7 N6 1_555 1_555
N8 Cu1 1_555 1_555
N9 N8 1_555 1_555
N10 N8 1_555 1_555
N11 N10 1_555 1_555
N12 C8 1_555 1_555
N13 C11 1_555 1_555
N14 C13 1_555 1_555
C1 N3 1_555 1_555
C2 C1 1_555 1_555
C3 C2 1_555 1_555
H1 C3 1_555 1_555
C4 C2 1_555 1_555
H2 C4 1_555 1_555
C5 N9 1_555 1_555
C6 C5 1_555 1_555
C7 C6 1_555 1_555
H3 C7 1_555 1_555
C8 C7 1_555 1_555
H4 C8 1_555 1_555
C9 N12 1_555 1_555
H5 C9 1_555 1_555
C10 C6 1_555 1_555
H6 C10 1_555 1_555
C11 C4 1_555 1_555
H7 C11 1_555 1_555
C12 N13 1_555 1_555
H8 C12 1_555 1_555
C13 H9 1_555 1_555
H10 C13 1_555 1_555
H11 C13 1_555 1_555
C14 N14 1_555 1_555
H12 C14 1_555 1_555
H13 C14 1_555 1_555
H14 C14 1_555 1_555
C15 N14 1_555 1_555
H15 C15 1_555 1_555
C16 H16 1_555 1_555
H17 C16 1_555 1_555
H18 C16 1_555 1_555
C17 H19 1_555 1_555
H20 C17 1_555 1_555
H21 C17 1_555 1_555
N15 C16 1_555 1_555
C18 N15 1_555 1_555
H22 C18 1_555 1_555
O2 C18 1_555 1_555
C22 H30 1_555 1_555
H31 C22 1_555 1_555
H32 C22 1_555 1_555
C23 H33 1_555 1_555
H34 C23 1_555 1_555
H35 C23 1_555 1_555
N17 C22 1_555 1_555
C24 N17 1_555 1_555
H36 C24 1_555 1_555
O4 C24 1_555 1_555
Cu2B N10 1_555 1_555
O1B Cu2B 1_555 1_555
N1B Cu1 1_555 1_555
N2B Cu2B 1_555 1_555
N3B N2B 1_555 1_555
N4B N1B 1_555 1_555
N5B Cu1 1_555 1_555
N6B N5B 1_555 1_555
N7B N6B 1_555 1_555
N8B Cu1 1_555 1_555
N9B N8B 1_555 1_555
N10B Cu2 1_555 1_555
N11B N10B 1_555 1_555
N12B C8B 1_555 1_555
N13B C11B 1_555 1_555
N14B C13B 1_555 1_555
C1B N3B 1_555 1_555
C2B C1B 1_555 1_555
C3B C2B 1_555 1_555
H1B C3B 1_555 1_555
C4B C2B 1_555 1_555
H2B C4B 1_555 1_555
C5B N9B 1_555 1_555
C6B C5B 1_555 1_555
C7B C6B 1_555 1_555
H3B C7B 1_555 1_555
C8B C7B 1_555 1_555
H4B C8B 1_555 1_555
C9B N12B 1_555 1_555
H5B C9B 1_555 1_555
C10B C6B 1_555 1_555
H6B C10B 1_555 1_555
C11B C4B 1_555 1_555
H7B C11B 1_555 1_555
C12B N13B 1_555 1_555
H8B C12B 1_555 1_555
C13B H9B 1_555 1_555
H10B C13B 1_555 1_555
H11B C13B 1_555 1_555
C14B N14B 1_555 1_555
H12B C14B 1_555 1_555
H13B C14B 1_555 1_555
H14B C14B 1_555 1_555
C15B O1B 1_555 1_555
H15B C15B 1_555 1_555
Cu2A N13B 1_555 1_555
Cu2A_2 N12B 1_555 1_555
Cu2C N12 1_555 1_555
Cu2C_2 N13 1_555 1_555
N12A Cu2B 1_555 1_555
N12C Cu2 1_555 1_555
N13A Cu2B 1_555 1_555
N13C Cu2 1_555 1_555
Cu2 N5 1_555 1_555
N4 C1 1_555 1_555
N11 C5 1_555 1_555
C3 C12 1_555 1_555
C9 C10 1_555 1_555
C17 N15 1_555 1_555
C23 N17 1_555 1_555
Cu2B N5B 1_555 1_555
N1B N2B 1_555 1_555
N4B C1B 1_555 1_555
N8B N10B 1_555 1_555
N11B C5B 1_555 1_555
N14B C15B 1_555 1_555
C3B C12B 1_555 1_555
C9B C10B 1_555 1_555

#END
