
#######################################################################
#
#                 Cambridge Crystallographic Data Centre
#                                CCDC 
#
#######################################################################
#
# If this CIF has been generated from an entry in the Cambridge 
# Structural Database, then it will include bibliographic, chemical, 
# crystal, experimental, refinement or atomic coordinate data resulting 
# from the CCDC's data processing and validation procedures.
#
#######################################################################

data_ERAHOV
_chemical_formula_moiety         '(C40 H52 Au2 Br4 Co1 N9 1+)n'
_symmetry_cell_setting           orthorhombic
_symmetry_space_group_name_H-M   'P c c m'
_symmetry_Int_Tables_number      49
_space_group_name_Hall           '-P 2 2c'
loop_
_symmetry_equiv_pos_site_id
_symmetry_equiv_pos_as_xyz
1 x,y,z
2 x,-y,1/2-z
3 -x,y,1/2-z
4 -x,-y,z
5 -x,-y,-z
6 -x,y,1/2+z
7 x,-y,1/2+z
8 x,y,-z
_cell_length_a                   11.450(3)
_cell_length_b                   11.467(3)
_cell_length_c                   20.944(5)
_cell_angle_alpha                90
_cell_angle_beta                 90
_cell_angle_gamma                90
_cell_volume                     2749.89
loop_
_atom_site_label
_atom_site_type_symbol
_atom_site_fract_x
_atom_site_fract_y
_atom_site_fract_z
Au1 Au 1.0000 1.0000 0.5000
Br1 Br 1.06060(13) 0.79633(12) 0.5000
Co1 Co 1.0000 1.0000 0.7500
N1 N 1.0000 1.0000 0.6493(4)
N2 N 1.0000 0.8114(8) 0.7500
N3 N 0.8101(8) 1.0000 0.7500
C1 C 1.0000 1.0000 0.5945(5)
C2 C 1.0393(8) 0.7474(7) 0.7001(4)
C3 C 1.0383(8) 0.6275(7) 0.6972(4)
C4 C 1.0000 0.5645(10) 0.7500
C5 C 0.7485(8) 0.9549(9) 0.7027(4)
C6 C 0.6283(8) 0.9555(9) 0.7005(4)
C7 C 0.5644(10) 1.0000 0.7500
H1 H 1.0688 0.7881 0.6655
H2 H 1.0642 0.5893 0.6603
H3 H 0.7900 0.9192 0.6690
H4 H 0.5903 0.9228 0.6653
Br1D Br 0.93940(13) 1.20367(12) 0.5000
Co1_2 Co 1.0000 0.0000 0.7500
Co1_3 Co -0.0000 1.0000 0.7500
Co1E Co 1.0000 1.0000 0.2500
N1G N 1.0000 1.0000 0.3507(4)
N1A N 1.0000 1.0000 0.8507(4)
N2A N 1.0000 0.1886(8) 0.7500
N2A_2 N 1.0000 1.1886(8) 0.7500
N3B N 0.1899(8) 1.0000 0.7500
N3B_2 N 1.1899(8) 1.0000 0.7500
C1G C 1.0000 1.0000 0.4055(5)
C2B C 0.9607(8) 0.7474(7) 0.7999(4)
C2A C 1.0393(8) 0.2526(7) 0.7999(4)
C2C C 0.9607(8) 0.2526(7) 0.7001(4)
C3B C 0.9617(8) 0.6275(7) 0.8028(4)
C3A C 1.0383(8) 0.3725(7) 0.8028(4)
C3C C 0.9617(8) 0.3725(7) 0.6972(4)
C4A C 1.0000 0.4355(10) 0.7500
C5A C 0.7485(8) 1.0451(9) 0.7973(4)
C5B C 0.2515(8) 0.9549(9) 0.7973(4)
C5C C 0.2515(8) 1.0451(9) 0.7027(4)
C6A C 0.6283(8) 1.0445(9) 0.7995(4)
C6B C 0.3717(8) 0.9555(9) 0.7995(4)
C6C C 0.3717(8) 1.0445(9) 0.7005(4)
C7B C 0.4356(10) 1.0000 0.7500
H1B H 0.9312 0.7881 0.8345
H1C H 0.9312 0.2119 0.6655
H1A H 1.0688 0.2119 0.8345
H2B H 0.9358 0.5893 0.8397
H2C H 0.9358 0.4107 0.6603
H2A H 1.0642 0.4107 0.8397
H3A H 0.7900 1.0808 0.8310
H3C H 0.2100 1.0808 0.6690
H3B H 0.2100 0.9192 0.8310
H4A H 0.5903 1.0772 0.8347
H4C H 0.4097 1.0772 0.6653
H4B H 0.4097 0.9228 0.8347
Au2 Au 0.76250(6) 0.68991(6) 0.5000
Br2 Br 0.70489(17) 0.89443(17) 0.5000
Br3 Br 0.8194(3) 0.4872(2) 0.5000
N4 N 0.7555(12) 0.6835(11) 0.6479(7)
C8 C 0.7599(11) 0.6893(12) 0.5946(8)
N4G N 0.7555(12) 0.6835(11) 0.3521(7)
C8G C 0.7599(11) 0.6893(12) 0.4054(8)
N5 N 0.5000 0.5000 0.2500
C9 C 0.600(2) 0.432(2) 0.2925(15)
C10 C 0.551(3) 0.359(2) 0.3289(15)
C11 C 0.6623(19) 0.283(2) 0.3631(14)
C12 C 0.611(2) 0.226(2) 0.4117(12)
H5 H 0.6401 0.4858 0.3193
H6 H 0.6545 0.3947 0.2651
H7 H 0.5002 0.3958 0.3585
H8 H 0.5078 0.3070 0.3028
H9 H 0.7186 0.3360 0.3791
H10 H 0.6994 0.2283 0.3355
H11 H 0.6666 0.1838 0.4359
H12 H 0.5734 0.2819 0.4385
H13 H 0.5543 0.1742 0.3948
C9A C 0.600(2) 0.568(2) 0.2075(15)
C9B C 0.400(2) 0.432(2) 0.2075(15)
C9C C 0.400(2) 0.568(2) 0.2925(15)
C10A C 0.551(3) 0.641(2) 0.1711(15)
C10B C 0.449(3) 0.359(2) 0.1711(15)
C10C C 0.449(3) 0.641(2) 0.3289(15)
C11A C 0.6623(19) 0.717(2) 0.1369(14)
C11B C 0.3377(19) 0.283(2) 0.1369(14)
C11C C 0.3377(19) 0.717(2) 0.3631(14)
C12A C 0.611(2) 0.774(2) 0.0883(12)
C12B C 0.389(2) 0.226(2) 0.0883(12)
C12C C 0.389(2) 0.774(2) 0.4117(12)
H5A H 0.6401 0.5142 0.1807
H5B H 0.3599 0.4858 0.1807
H5C H 0.3599 0.5142 0.3193
H6A H 0.6545 0.6053 0.2349
H6B H 0.3455 0.3947 0.2349
H6C H 0.3455 0.6053 0.2651
H7A H 0.5002 0.6042 0.1415
H7B H 0.4998 0.3958 0.1415
H7C H 0.4998 0.6042 0.3585
H8A H 0.5078 0.6930 0.1972
H8B H 0.4922 0.3070 0.1972
H8C H 0.4922 0.6930 0.3028
H9A H 0.7186 0.6640 0.1209
H9B H 0.2814 0.3360 0.1209
H9C H 0.2814 0.6640 0.3791
H10A H 0.6994 0.7717 0.1645
H10B H 0.3006 0.2283 0.1645
H10C H 0.3006 0.7717 0.3355
H11A H 0.6666 0.8162 0.0641
H11B H 0.3334 0.1838 0.0641
H11C H 0.3334 0.8162 0.4359
H12A H 0.5734 0.7181 0.0615
H12B H 0.4266 0.2819 0.0615
H12C H 0.4266 0.7181 0.4385
H13A H 0.5543 0.8258 0.1052
H13B H 0.4457 0.1742 0.1052
H13C H 0.4457 0.8258 0.3948
loop_
_geom_bond_atom_site_label_1
_geom_bond_atom_site_label_2
_geom_bond_site_symmetry_1
_geom_bond_site_symmetry_2
Au1 Br1 1_555 1_555
Co1 N1 1_555 1_555
N1 C1 1_555 1_555
N2 Co1 1_555 1_555
N3 Co1 1_555 1_555
C1 Au1 1_555 1_555
C2 N2 1_555 1_555
C3 C2 1_555 1_555
C4 C3 1_555 1_555
C5 N3 1_555 1_555
C6 C5 1_555 1_555
C7 C6 1_555 1_555
H1 C2 1_555 1_555
H2 C3 1_555 1_555
H3 C5 1_555 1_555
H4 C6 1_555 1_555
Au2 Br2 1_555 1_555
Br3 Au2 1_555 1_555
N4 C8 1_555 1_555
C8 Au2 1_555 1_555
N5 C9 1_555 1_555
C9 C10 1_555 1_555
C10 C11 1_555 1_555
C11 C12 1_555 1_555
C12 H11 1_555 1_555
H5 C9 1_555 1_555
H6 C9 1_555 1_555
H7 C10 1_555 1_555
H8 C10 1_555 1_555
H9 C11 1_555 1_555
H10 C11 1_555 1_555
H12 C12 1_555 1_555
H13 C12 1_555 1_555
Br1D Au1 1_555 1_555
Co1_2 N2A 1_555 1_555
Co1_3 N3B 1_555 1_555
Co1E N1G 1_555 1_555
N1G C1G 1_555 1_555
N1A Co1 1_555 1_555
N2A C2A 1_555 1_555
N2A_2 Co1 1_555 1_555
N3B C5B 1_555 1_555
N3B_2 Co1 1_555 1_555
C1G Au1 1_555 1_555
C2B N2 1_555 1_555
C2A C3A 1_555 1_555
C2C N2A 1_555 1_555
C3B C4 1_555 1_555
C3A C4A 1_555 1_555
C3C C2C 1_555 1_555
C4A C4 1_555 1_555
C5A N3 1_555 1_555
C5B C6B 1_555 1_555
C5C N3B 1_555 1_555
C6A C7 1_555 1_555
C6B C7B 1_555 1_555
C6C C5C 1_555 1_555
C7B C7 1_555 1_555
H1B C2B 1_555 1_555
H1C C2C 1_555 1_555
H1A C2A 1_555 1_555
H2B C3B 1_555 1_555
H2C C3C 1_555 1_555
H2A C3A 1_555 1_555
H3A C5A 1_555 1_555
H3C C5C 1_555 1_555
H3B C5B 1_555 1_555
H4A C6A 1_555 1_555
H4C C6C 1_555 1_555
H4B C6B 1_555 1_555
N4G C8G 1_555 1_555
C8G Au2 1_555 1_555
C9A N5 1_555 1_555
C9B N5 1_555 1_555
C9C N5 1_555 1_555
C10A C9A 1_555 1_555
C10B C9B 1_555 1_555
C10C C9C 1_555 1_555
C11A C10A 1_555 1_555
C11B C10B 1_555 1_555
C11C C10C 1_555 1_555
C12A C11A 1_555 1_555
C12B C11B 1_555 1_555
C12C C11C 1_555 1_555
H5A C9A 1_555 1_555
H5B C9B 1_555 1_555
H5C C9C 1_555 1_555
H6A C9A 1_555 1_555
H6B C9B 1_555 1_555
H6C C9C 1_555 1_555
H7A C10A 1_555 1_555
H7B C10B 1_555 1_555
H7C C10C 1_555 1_555
H8A C10A 1_555 1_555
H8B C10B 1_555 1_555
H8C C10C 1_555 1_555
H9A C11A 1_555 1_555
H9B C11B 1_555 1_555
H9C C11C 1_555 1_555
H10A C11A 1_555 1_555
H10B C11B 1_555 1_555
H10C C11C 1_555 1_555
H11A C12A 1_555 1_555
H11B C12B 1_555 1_555
H11C C12C 1_555 1_555
H12A C12A 1_555 1_555
H12B C12B 1_555 1_555
H12C C12C 1_555 1_555
H13A C12A 1_555 1_555
H13B C12B 1_555 1_555
H13C C12C 1_555 1_555
C2B C3B 1_555 1_555
C3C C4A 1_555 1_555
C5A C6A 1_555 1_555
C6C C7B 1_555 1_555

#END
