
#######################################################################
#
#                 Cambridge Crystallographic Data Centre
#                                CCDC 
#
#######################################################################
#
# If this CIF has been generated from an entry in the Cambridge 
# Structural Database, then it will include bibliographic, chemical, 
# crystal, experimental, refinement or atomic coordinate data resulting 
# from the CCDC's data processing and validation procedures.
#
#######################################################################

data_AWUVIZ
_chemical_formula_moiety         'C42 H24 N2 O14 Zn7'
_symmetry_cell_setting           tetragonal
_symmetry_space_group_name_H-M   'P 4/m m m'
_symmetry_Int_Tables_number      123
_space_group_name_Hall           '-P 4 2'
loop_
_symmetry_equiv_pos_site_id
_symmetry_equiv_pos_as_xyz
1 x,y,z
2 -y,x,z
3 -x,-y,z
4 y,-x,z
5 x,-y,-z
6 y,x,-z
7 -x,y,-z
8 -y,-x,-z
9 -x,-y,-z
10 y,-x,-z
11 x,y,-z
12 -y,x,-z
13 -x,y,z
14 -y,-x,z
15 x,-y,z
16 y,x,z
_cell_length_a                   10.8088(15)
_cell_length_b                   10.8088(15)
_cell_length_c                   16.283(5)
_cell_angle_alpha                90
_cell_angle_beta                 90
_cell_angle_gamma                90
_cell_volume                     1902.35
loop_
_atom_site_label
_atom_site_type_symbol
_atom_site_fract_x
_atom_site_fract_y
_atom_site_fract_z
Zn1 Zn -0.0000 1.0000 0.40940(6)
O1 O 0.1825(5) 1.0000 0.4322(4)
N1 N -0.0000 1.0000 0.2844(7)
C1 C 0.2341(10) 1.0000 0.5000
C2 C 0.3729(11) 1.0000 0.5000
C3 C 0.4397(10) 1.0000 0.4306(6)
H1 H 0.3985 1.0000 0.3805
C4 C 0.0745(13) 0.9255(13) 0.2418(15)
H2 H 0.1277 0.8723 0.2696
C5 C 0.0734(14) 0.9266(14) 0.1601(15)
H3 H 0.1265 0.8735 0.1324
C6 C -0.0000 1.0000 0.1156(14)
C7 C 0.0387(18) 1.0387(18) 0.0337(19)
O1B O 0.8175(5) 1.0000 0.4322(4)
C1B C 0.7659(10) 1.0000 0.5000
C2B C 0.6271(11) 1.0000 0.5000
C3B C 0.5603(10) 1.0000 0.4306(6)
H1B H 0.6015 1.0000 0.3805
O1D O 0.1825(5) 1.0000 0.5678(4)
C3D C 0.4397(10) 1.0000 0.5694(6)
H1D H 0.3985 1.0000 0.6195
O1F O 0.8175(5) 1.0000 0.5678(4)
C3F C 0.5603(10) 1.0000 0.5694(6)
H1F H 0.6015 1.0000 0.6195
C4A C 0.0745(13) 1.0745(13) 0.2418(15)
H2A H 0.1277 1.1277 0.2696
C5A C 0.0734(14) 1.0734(14) 0.1601(15)
H3A H 0.1265 1.1265 0.1324
C7A C -0.0387(18) 1.0387(18) 0.0337(19)
C4B C -0.0745(13) 1.0745(13) 0.2418(15)
H2B H -0.1277 1.1277 0.2696
C5B C -0.0734(14) 1.0734(14) 0.1601(15)
H3B H -0.1265 1.1265 0.1324
C7B C -0.0387(18) 0.9613(18) 0.0337(19)
C4C C -0.0745(13) 0.9255(13) 0.2418(15)
H2C H -0.1277 0.8723 0.2696
C5C C -0.0734(14) 0.9266(14) 0.1601(15)
H3C H -0.1265 0.8735 0.1324
C7C C 0.0387(18) 0.9613(18) 0.0337(19)
N1D N -0.0000 1.0000 -0.2844(7)
C4D C 0.0745(13) 1.0745(13) -0.2418(15)
H2D H 0.1277 1.1277 -0.2696
C5D C 0.0734(14) 1.0734(14) -0.1601(15)
H3D H 0.1265 1.1265 -0.1324
C6D C -0.0000 1.0000 -0.1156(14)
C7D C 0.0387(18) 0.9613(18) -0.0337(19)
C4E C -0.0745(13) 1.0745(13) -0.2418(15)
H2E H -0.1277 1.1277 -0.2696
C5E C -0.0734(14) 1.0734(14) -0.1601(15)
H3E H -0.1265 1.1265 -0.1324
C7E C 0.0387(18) 1.0387(18) -0.0337(19)
C4F C -0.0745(13) 0.9255(13) -0.2418(15)
H2F H -0.1277 0.8723 -0.2696
C5F C -0.0734(14) 0.9266(14) -0.1601(15)
H3F H -0.1265 0.8735 -0.1324
C7F C -0.0387(18) 1.0387(18) -0.0337(19)
C4G C 0.0745(13) 0.9255(13) -0.2418(15)
H2G H 0.1277 0.8723 -0.2696
C5G C 0.0734(14) 0.9266(14) -0.1601(15)
H3G H 0.1265 0.8735 -0.1324
C7G C -0.0387(18) 0.9613(18) -0.0337(19)
O1A O -0.0000 0.1825(5) 0.4322(4)
C1A C -0.0000 0.2341(10) 0.5000
C2A C -0.0000 0.3729(11) 0.5000
C3A C -0.0000 0.4397(10) 0.4306(6)
H1A H 0.0000 0.3985 0.3805
O1C O -0.0000 0.8175(5) 0.4322(4)
C1C C 0.0000 0.7659(10) 0.5000
C2C C -0.0000 0.6271(11) 0.5000
C3C C -0.0000 0.5603(10) 0.4306(6)
H1C H 0.0000 0.6015 0.3805
O1E O -0.0000 0.1825(5) 0.5678(4)
C3E C -0.0000 0.4397(10) 0.5694(6)
H1E H 0.0000 0.3985 0.6195
O1G O 0.0000 0.8175(5) 0.5678(4)
C3G C -0.0000 0.5603(10) 0.5694(6)
H1G H 0.0000 0.6015 0.6195
Zn1D Zn -0.0000 1.0000 -0.40940(6)
Zn1_2 Zn 0.0000 0.0000 0.40940(6)
Zn1_3 Zn 1.0000 1.0000 0.40940(6)
Zn1D_2 Zn -0.0000 -0.0000 0.59060(6)
Zn1D_3 Zn -0.0000 1.0000 0.59060(6)
Zn1D_4 Zn 1.0000 1.0000 0.59060(6)
O1A_2 O 0.0000 1.1825(5) 0.4322(4)
O1B_2 O -0.1825(5) 1.0000 0.4322(4)
O1D_2 O 0.1825(5) 1.0000 -0.4322(4)
O1E_2 O 0.0000 1.1825(5) -0.4322(4)
O1F_2 O -0.1825(5) 1.0000 -0.4322(4)
O1G_2 O 0.0000 0.8175(5) -0.4322(4)
loop_
_geom_bond_atom_site_label_1
_geom_bond_atom_site_label_2
_geom_bond_site_symmetry_1
_geom_bond_site_symmetry_2
Zn1 O1 1_555 1_555
O1 C1 1_555 1_555
N1 Zn1 1_555 1_555
C1 C2 1_555 1_555
C2 C3 1_555 1_555
C3 H1 1_555 1_555
C4 N1 1_555 1_555
H2 C4 1_555 1_555
C5 C4 1_555 1_555
H3 C5 1_555 1_555
C6 C5 1_555 1_555
C7 C6 1_555 1_555
O1B C1B 1_555 1_555
C1B C2B 1_555 1_555
C2B C3B 1_555 1_555
C3B C3 1_555 1_555
H1B C3B 1_555 1_555
O1D C1 1_555 1_555
C3D C2 1_555 1_555
H1D C3D 1_555 1_555
O1F C1B 1_555 1_555
C3F C2B 1_555 1_555
H1F C3F 1_555 1_555
C4A N1 1_555 1_555
H2A C4A 1_555 1_555
C5A C5 1_555 1_555
H3A C5A 1_555 1_555
C7A C6 1_555 1_555
C4B N1 1_555 1_555
H2B C4B 1_555 1_555
C5B C6 1_555 1_555
H3B C5B 1_555 1_555
C7B C6 1_555 1_555
C4C N1 1_555 1_555
H2C C4C 1_555 1_555
C5C C5 1_555 1_555
H3C C5C 1_555 1_555
C7C C6 1_555 1_555
N1D C4D 1_555 1_555
C4D H2D 1_555 1_555
C5D C4D 1_555 1_555
H3D C5D 1_555 1_555
C6D C5D 1_555 1_555
C7D C7 1_555 1_555
C4E N1D 1_555 1_555
H2E C4E 1_555 1_555
C5E C5D 1_555 1_555
H3E C5E 1_555 1_555
C7E C7 1_555 1_555
C4F N1D 1_555 1_555
H2F C4F 1_555 1_555
C5F C6D 1_555 1_555
H3F C5F 1_555 1_555
C7F C7 1_555 1_555
C4G N1D 1_555 1_555
H2G C4G 1_555 1_555
C5G C5D 1_555 1_555
H3G C5G 1_555 1_555
C7G C7 1_555 1_555
O1A C1A 1_555 1_555
C1A C2A 1_555 1_555
C2A C3A 1_555 1_555
C3A H1A 1_555 1_555
O1C Zn1 1_555 1_555
C1C O1C 1_555 1_555
C2C C1C 1_555 1_555
C3C C3A 1_555 1_555
H1C C3C 1_555 1_555
O1E C1A 1_555 1_555
C3E C2A 1_555 1_555
H1E C3E 1_555 1_555
O1G C1C 1_555 1_555
C3G C2C 1_555 1_555
H1G C3G 1_555 1_555
Zn1D N1D 1_555 1_555
Zn1_2 O1A 1_555 1_555
Zn1_3 O1B 1_555 1_555
Zn1D_2 O1E 1_555 1_555
Zn1D_3 O1D 1_555 1_555
Zn1D_4 O1F 1_555 1_555
O1A_2 Zn1 1_555 1_555
O1B_2 Zn1 1_555 1_555
O1D_2 Zn1D 1_555 1_555
O1E_2 Zn1D 1_555 1_555
O1F_2 Zn1D 1_555 1_555
O1G_2 Zn1D 1_555 1_555
C4 C4A 1_555 1_555
C4 C4C 1_555 1_555
C6 C5A 1_555 1_555
C6 C5C 1_555 1_555
C7 C7A 1_555 1_555
C7 C7B 1_555 1_555
C7 C7C 1_555 1_555
C3D C3F 1_555 1_555
C4A C5A 1_555 1_555
C4A C4B 1_555 1_555
C5A C5B 1_555 1_555
C7A C7B 1_555 1_555
C7A C7C 1_555 1_555
C7A C7D 1_555 1_555
C7A C7E 1_555 1_555
C7A C7F 1_555 1_555
C7A C7G 1_555 1_555
C4B C5B 1_555 1_555
C4B C4C 1_555 1_555
C5B C5C 1_555 1_555
C7B C7C 1_555 1_555
C7B C7D 1_555 1_555
C7B C7E 1_555 1_555
C7B C7F 1_555 1_555
C7B C7G 1_555 1_555
C4C C5C 1_555 1_555
C7C C7D 1_555 1_555
C7C C7E 1_555 1_555
C7C C7F 1_555 1_555
C7C C7G 1_555 1_555
C4D C4E 1_555 1_555
C4D C4G 1_555 1_555
C6D C7D 1_555 1_555
C6D C5E 1_555 1_555
C6D C7E 1_555 1_555
C6D C7F 1_555 1_555
C6D C5G 1_555 1_555
C6D C7G 1_555 1_555
C7D C7E 1_555 1_555
C7D C7F 1_555 1_555
C7D C7G 1_555 1_555
C4E C5E 1_555 1_555
C4E C4F 1_555 1_555
C5E C5F 1_555 1_555
C7E C7F 1_555 1_555
C7E C7G 1_555 1_555
C4F C5F 1_555 1_555
C4F C4G 1_555 1_555
C5F C5G 1_555 1_555
C7F C7G 1_555 1_555
C4G C5G 1_555 1_555
C2C C3C 1_555 1_555
C3E C3G 1_555 1_555
O1G Zn1D_3 1_555 1_555

#END
