
#######################################################################
#
#                 Cambridge Crystallographic Data Centre
#                                CCDC 
#
#######################################################################
#
# If this CIF has been generated from an entry in the Cambridge 
# Structural Database, then it will include bibliographic, chemical, 
# crystal, experimental, refinement or atomic coordinate data resulting 
# from the CCDC's data processing and validation procedures.
#
#######################################################################

data_PEBXIF
_chemical_formula_moiety         '(C48 H34 N4 Ni2 O11)n'
_symmetry_cell_setting           monoclinic
_symmetry_space_group_name_H-M   'C 2/c'
_symmetry_Int_Tables_number      15
_space_group_name_Hall           '-C 2yc'
loop_
_symmetry_equiv_pos_site_id
_symmetry_equiv_pos_as_xyz
1 x,y,z
2 -x,y,1/2-z
3 1/2+x,1/2+y,z
4 1/2-x,1/2+y,1/2-z
5 -x,-y,-z
6 x,-y,1/2+z
7 1/2-x,1/2-y,-z
8 1/2+x,1/2-y,1/2+z
_cell_length_a                   21.1785(16)
_cell_length_b                   17.1352(13)
_cell_length_c                   16.676(2)
_cell_angle_alpha                90
_cell_angle_beta                 128.7520(10)
_cell_angle_gamma                90
_cell_volume                     4719.48
loop_
_atom_site_label
_atom_site_type_symbol
_atom_site_fract_x
_atom_site_fract_y
_atom_site_fract_z
Ni1 Ni 0.40410(3) 0.11066(2) 0.71607(3)
N1 N 0.31996(19) 0.18715(17) 0.7044(2)
N2 N 0.13739(19) 0.51794(18) 0.7419(2)
O1 O 0.32483(16) 0.07422(15) 0.56773(19)
O2 O 0.39281(19) -0.02774(19) 0.5723(2)
H1 H 0.4289 -0.0096 0.6291
O3 O 0.0664(2) -0.0354(2) 0.1091(3)
O4 O -0.01146(16) -0.34943(15) -0.1364(2)
O5 O 0.07633(16) -0.29564(15) -0.1529(2)
C1 C 0.3318(2) 0.2074(2) 0.7909(3)
H2 H 0.3675 0.1779 0.8500
C2 C 0.2934(3) 0.2696(2) 0.7961(3)
H3 H 0.3035 0.2813 0.8577
C3 C 0.2394(2) 0.3152(2) 0.7090(3)
C4 C 0.2241(2) 0.2929(2) 0.6189(3)
H4 H 0.1870 0.3203 0.5584
C5 C 0.2649(2) 0.2287(2) 0.6191(3)
H5 H 0.2534 0.2140 0.5576
C6 C 0.2025(3) 0.3859(2) 0.7164(4)
C7 C 0.2483(2) 0.4312(2) 0.8064(3)
H6 H 0.3016 0.4176 0.8599
C8 C 0.2151(2) 0.4949(3) 0.8155(3)
H7 H 0.2473 0.5243 0.8754
C9 C 0.0942(2) 0.4767(2) 0.6550(3)
H8 H 0.0412 0.4921 0.6026
C10 C 0.1243(3) 0.4119(3) 0.6386(3)
H9 H 0.0922 0.3860 0.5758
C11 C 0.3307(2) 0.0150(2) 0.5277(3)
C12 C 0.2584(2) -0.0042(2) 0.4196(3)
C13 C 0.2587(3) -0.0669(3) 0.3672(3)
H10 H 0.3034 -0.0998 0.4014
C14 C 0.1937(3) -0.0816(3) 0.2649(3)
H11 H 0.1945 -0.1247 0.2316
C15 C 0.1285(2) -0.0323(3) 0.2136(3)
C16 C 0.1251(3) 0.0296(3) 0.2640(3)
H12 H 0.0799 0.0619 0.2294
C17 C 0.1905(2) 0.0434(2) 0.3678(3)
H13 H 0.1884 0.0848 0.4021
C18 C 0.0596(3) -0.0991(3) 0.0537(4)
C19 C 0.0797(3) -0.0916(3) -0.0088(4)
H14 H 0.0983 -0.0440 -0.0135
C20 C 0.0723(2) -0.1559(2) -0.0662(3)
H15 H 0.0877 -0.1513 -0.1073
C21 C 0.0422(2) -0.2260(2) -0.0622(3)
C22 C 0.0201(3) -0.2327(3) 0.0006(3)
H16 H -0.0007 -0.2795 0.0035
C23 C 0.0291(3) -0.1685(3) 0.0594(4)
H17 H 0.0148 -0.1726 0.1018
C24 C 0.0349(2) -0.2958(2) -0.1225(3)
O6 O 0.5000 0.0384(2) 0.7500
Ni1C Ni 0.09590(3) -0.38934(2) 0.78393(3)
Ni1C_2 Ni 0.09590(3) 0.61066(2) 0.78393(3)
Ni1B Ni -0.09590(3) -0.38934(2) -0.28393(3)
Ni1C_3 Ni 0.09590(3) -0.38934(2) -0.21607(3)
Ni1A Ni 0.59590(3) 0.11066(2) 0.78393(3)
Ni1B_2 Ni 0.90410(3) 0.61066(2) 1.71607(3)
N1C N 0.18004(19) -0.31285(17) 0.7956(2)
N2C N 0.36261(19) 0.01794(18) 0.7581(2)
N2_2 N 0.13739(19) -0.48206(18) 0.7419(2)
O1B O 0.82483(16) 0.57422(15) 1.56773(19)
O1C O 0.17517(16) -0.42578(15) 0.93227(19)
O2B O 0.89281(19) 0.47226(19) 1.5723(2)
H1B H 0.9289 0.4904 1.6291
O3B O 0.5664(2) 0.4646(2) 1.1091(3)
O4B O 0.48854(16) 0.15057(15) 0.8636(2)
O4A O 0.01146(16) -0.34943(15) 0.6364(2)
O5B O 0.57633(16) 0.20436(15) 0.8471(2)
O5C O 0.42367(16) 0.20436(15) 0.6529(2)
O5_2 O 0.07633(16) -0.29564(15) 0.8471(2)
C1C C 0.1682(2) -0.2926(2) 0.7091(3)
H2C H 0.1325 -0.3221 0.6500
C2C C 0.2066(3) -0.2304(2) 0.7039(3)
H3C H 0.1965 -0.2187 0.6423
C3C C 0.2606(2) -0.1848(2) 0.7910(3)
C4C C 0.2759(2) -0.2071(2) 0.8811(3)
H4C H 0.3130 -0.1797 0.9416
C5C C 0.2351(2) -0.2713(2) 0.8809(3)
H5C H 0.2466 -0.2860 0.9424
C6C C 0.2975(3) -0.1141(2) 0.7836(4)
C7C C 0.2517(2) -0.0688(2) 0.6936(3)
H6C H 0.1984 -0.0824 0.6401
C8C C 0.2849(2) -0.0051(3) 0.6845(3)
H7C H 0.2527 0.0243 0.6246
C9C C 0.4058(2) -0.0233(2) 0.8450(3)
H8C H 0.4588 -0.0079 0.8974
C10C C 0.3757(3) -0.0881(3) 0.8614(3)
H9C H 0.4078 -0.1140 0.9242
C11B C 0.8307(2) 0.5150(2) 1.5277(3)
C12B C 0.7584(2) 0.4958(2) 1.4196(3)
C13B C 0.7587(3) 0.4331(3) 1.3672(3)
H10B H 0.8034 0.4002 1.4014
C14B C 0.6937(3) 0.4184(3) 1.2649(3)
H11B H 0.6945 0.3753 1.2316
C15B C 0.6285(2) 0.4677(3) 1.2136(3)
C16B C 0.6251(3) 0.5296(3) 1.2640(3)
H12B H 0.5799 0.5619 1.2294
C17B C 0.6905(2) 0.5434(2) 1.3678(3)
H13B H 0.6884 0.5848 1.4021
C18B C 0.5596(3) 0.4009(3) 1.0537(4)
C19B C 0.5797(3) 0.4084(3) 0.9912(4)
H14B H 0.5983 0.4560 0.9865
C20B C 0.5723(2) 0.3441(2) 0.9338(3)
H15B H 0.5877 0.3487 0.8927
C21B C 0.5422(2) 0.2740(2) 0.9378(3)
C22B C 0.5201(3) 0.2673(3) 1.0006(3)
H16B H 0.4993 0.2205 1.0035
C23B C 0.5291(3) 0.3315(3) 1.0594(4)
H17B H 0.5148 0.3274 1.1018
C24B C 0.5349(2) 0.2042(2) 0.8775(3)
O6B O -0.0000 -0.4616(2) 0.7500
loop_
_geom_bond_atom_site_label_1
_geom_bond_atom_site_label_2
_geom_bond_site_symmetry_1
_geom_bond_site_symmetry_2
Ni1 N1 1_555 1_555
N1 C1 1_555 1_555
N2 C8 1_555 1_555
O1 Ni1 1_555 1_555
O2 H1 1_555 1_555
O3 C15 1_555 1_555
O4 C24 1_555 1_555
O5 C24 1_555 1_555
C1 H2 1_555 1_555
C2 C1 1_555 1_555
H3 C2 1_555 1_555
C3 C2 1_555 1_555
C4 C3 1_555 1_555
H4 C4 1_555 1_555
C5 N1 1_555 1_555
H5 C5 1_555 1_555
C6 C3 1_555 1_555
C7 C6 1_555 1_555
H6 C7 1_555 1_555
C8 C7 1_555 1_555
H7 C8 1_555 1_555
C9 N2 1_555 1_555
H8 C9 1_555 1_555
C10 C6 1_555 1_555
H9 C10 1_555 1_555
C11 O1 1_555 1_555
C12 C11 1_555 1_555
C13 C12 1_555 1_555
H10 C13 1_555 1_555
C14 C13 1_555 1_555
H11 C14 1_555 1_555
C15 C14 1_555 1_555
C16 C15 1_555 1_555
H12 C16 1_555 1_555
C17 C12 1_555 1_555
H13 C17 1_555 1_555
C18 O3 1_555 1_555
C19 C18 1_555 1_555
H14 C19 1_555 1_555
C20 C19 1_555 1_555
H15 C20 1_555 1_555
C21 C20 1_555 1_555
C22 C21 1_555 1_555
H16 C22 1_555 1_555
C23 C18 1_555 1_555
H17 C23 1_555 1_555
C24 C21 1_555 1_555
O6 Ni1 1_555 1_555
Ni1C N1C 1_555 1_555
Ni1C_2 N2 1_555 1_555
Ni1B O4 1_555 1_555
Ni1C_3 O5 1_555 1_555
Ni1A O6 1_555 1_555
Ni1B_2 O1B 1_555 1_555
N1C C1C 1_555 1_555
N2C Ni1 1_555 1_555
N2_2 Ni1C 1_555 1_555
O1B C11B 1_555 1_555
O1C Ni1C 1_555 1_555
O2B H1B 1_555 1_555
O3B C15B 1_555 1_555
O4B Ni1 1_555 1_555
O4A Ni1C 1_555 1_555
O5B Ni1A 1_555 1_555
O5C Ni1 1_555 1_555
O5_2 Ni1C 1_555 1_555
C1C H2C 1_555 1_555
C2C C1C 1_555 1_555
H3C C2C 1_555 1_555
C3C C2C 1_555 1_555
C4C C3C 1_555 1_555
H4C C4C 1_555 1_555
C5C N1C 1_555 1_555
H5C C5C 1_555 1_555
C6C C3C 1_555 1_555
C7C C6C 1_555 1_555
H6C C7C 1_555 1_555
C8C N2C 1_555 1_555
H7C C8C 1_555 1_555
C9C N2C 1_555 1_555
H8C C9C 1_555 1_555
C10C C6C 1_555 1_555
H9C C10C 1_555 1_555
C11B O2B 1_555 1_555
C12B C11B 1_555 1_555
C13B C12B 1_555 1_555
H10B C13B 1_555 1_555
C14B C13B 1_555 1_555
H11B C14B 1_555 1_555
C15B C14B 1_555 1_555
C16B C15B 1_555 1_555
H12B C16B 1_555 1_555
C17B C12B 1_555 1_555
H13B C17B 1_555 1_555
C18B O3B 1_555 1_555
C19B C18B 1_555 1_555
H14B C19B 1_555 1_555
C20B C19B 1_555 1_555
H15B C20B 1_555 1_555
C21B C20B 1_555 1_555
C22B C21B 1_555 1_555
H16B C22B 1_555 1_555
C23B C18B 1_555 1_555
H17B C23B 1_555 1_555
C24B O4B 1_555 1_555
O6B Ni1C 1_555 1_555
O2 C11 1_555 1_555
C4 C5 1_555 1_555
C9 C10 1_555 1_555
C16 C17 1_555 1_555
C22 C23 1_555 1_555
O5B C24B 1_555 1_555
C4C C5C 1_555 1_555
C7C C8C 1_555 1_555
C9C C10C 1_555 1_555
C16B C17B 1_555 1_555
C21B C24B 1_555 1_555
C22B C23B 1_555 1_555

#END
