
#######################################################################
#
#                 Cambridge Crystallographic Data Centre
#                                CCDC 
#
#######################################################################
#
# If this CIF has been generated from an entry in the Cambridge 
# Structural Database, then it will include bibliographic, chemical, 
# crystal, experimental, refinement or atomic coordinate data resulting 
# from the CCDC's data processing and validation procedures.
#
#######################################################################

data_CODMUF
_chemical_formula_moiety         '(C6 H20 N2 O12 P4 Zn3)n'
_symmetry_cell_setting           orthorhombic
_symmetry_space_group_name_H-M   'P n a 21'
_symmetry_Int_Tables_number      33
_space_group_name_Hall           'P 2c -2n'
loop_
_symmetry_equiv_pos_site_id
_symmetry_equiv_pos_as_xyz
1 x,y,z
2 -x,-y,1/2+z
3 1/2-x,1/2+y,1/2+z
4 1/2+x,1/2-y,z
_cell_length_a                   18.1190(5)
_cell_length_b                   8.3939(7)
_cell_length_c                   12.8870(2)
_cell_angle_alpha                90
_cell_angle_beta                 90
_cell_angle_gamma                90
_cell_volume                     1959.97
loop_
_atom_site_label
_atom_site_type_symbol
_atom_site_fract_x
_atom_site_fract_y
_atom_site_fract_z
Zn1 Zn 0.59165(4) 0.69794(10) 0.60809(7)
Zn2 Zn 0.29438(4) 0.97398(10) 0.70236(7)
Zn3 Zn 0.33089(4) 0.82748(10) 0.36835(6)
P1 P 0.69725(11) 0.8167(3) 0.79242(17)
H1 H 0.6806 0.7252 0.8839
P2 P 0.69038(11) 0.8717(2) 0.43415(15)
H2 H 0.6962 1.0214 0.4885
P3 P 0.64621(10) 0.3471(2) 0.64797(14)
H3 H 0.6208 0.1759 0.5966
P4 P 0.44452(10) 0.8885(2) 0.55536(14)
H4 H 0.4990 0.9985 0.5661
O1 O 0.6288(3) 0.7939(8) 0.7308(4)
O2 O 0.7649(3) 0.7386(6) 0.7452(4)
O3 O 0.7158(3) 0.9870(7) 0.8145(5)
O4 O 0.6265(3) 0.7761(7) 0.4764(4)
O5 O 0.7639(3) 0.7932(6) 0.4508(4)
O6 O 0.6723(3) 0.9110(6) 0.3234(4)
O7 O 0.5909(3) 0.4674(6) 0.6083(4)
O8 O 0.7255(2) 0.3946(6) 0.6311(4)
O9 O 0.6270(3) 0.2997(7) 0.7579(4)
O10 O 0.4849(2) 0.7427(5) 0.6000(4)
O11 O 0.3828(3) 0.9405(6) 0.6243(4)
O12 O 0.4223(2) 0.8620(6) 0.4441(4)
Zn2A Zn 0.70562(4) 1.02602(10) 0.20236(7)
Zn2C Zn 0.79438(4) 0.52602(10) 0.70236(7)
Zn3A Zn 0.66911(4) 0.17252(10) 0.86835(6)
Zn3A_2 Zn 0.66911(4) 1.17252(10) 0.86835(6)
Zn3C Zn 0.83089(4) 0.67252(10) 0.36835(6)
O2C O 0.2649(3) 0.7614(6) 0.7452(4)
O3A O 0.2842(3) 1.0130(7) 0.3145(5)
O5C O 0.2639(3) 0.7068(6) 0.4508(4)
O6A O 0.3277(3) 1.0890(6) 0.8234(4)
O8C O 0.2255(2) 1.1054(6) 0.6311(4)
O9A O 0.3730(3) 0.7003(7) 0.2579(4)
C1 C 0.9248(4) 0.9094(9) 0.8495(6)
H5 H 0.8868 0.9448 0.8985
C2 C 0.9890(4) 1.0168(10) 0.8579(6)
H6 H 1.0287 0.9754 0.8153
H7 H 1.0060 1.0176 0.9293
C3 C 0.8757(4) 1.0807(8) 0.7077(6)
H8 H 0.8368 1.1239 0.7524
C4 C 0.9438(4) 1.1855(9) 0.7163(6)
H9 H 0.9816 1.1469 0.6693
H10 H 0.9315 1.2937 0.6965
C5 C 0.9463(4) 0.7419(9) 0.8757(7)
H11 H 0.9039 0.6739 0.8699
H12 H 0.9648 0.7381 0.9454
H13 H 0.9838 0.7064 0.8285
C6 C 0.8480(5) 1.0754(10) 0.5967(7)
H14 H 0.8048 1.0093 0.5930
H15 H 0.8857 1.0323 0.5526
H16 H 0.8358 1.1812 0.5742
N1 N 0.8938(3) 0.9161(7) 0.7421(4)
H17 H 0.9268 0.8738 0.6977
H18 H 0.8527 0.8562 0.7394
N2 N 0.9727(3) 1.1839(7) 0.8252(5)
H19 H 1.0140 1.2429 0.8290
H20 H 0.9390 1.2268 0.8683
loop_
_geom_bond_atom_site_label_1
_geom_bond_atom_site_label_2
_geom_bond_site_symmetry_1
_geom_bond_site_symmetry_2
Zn1 O1 1_555 1_555
Zn2 O11 1_555 1_555
Zn3 O12 1_555 1_555
P1 H1 1_555 1_555
P2 H2 1_555 1_555
P3 H3 1_555 1_555
P4 H4 1_555 1_555
O1 P1 1_555 1_555
O2 P1 1_555 1_555
O3 P1 1_555 1_555
O4 Zn1 1_555 1_555
O5 P2 1_555 1_555
O6 P2 1_555 1_555
O7 Zn1 1_555 1_555
O8 P3 1_555 1_555
O9 P3 1_555 1_555
O10 Zn1 1_555 1_555
O11 P4 1_555 1_555
O12 P4 1_555 1_555
C1 H5 1_555 1_555
C2 C1 1_555 1_555
H6 C2 1_555 1_555
H7 C2 1_555 1_555
C3 H8 1_555 1_555
C4 C3 1_555 1_555
H9 C4 1_555 1_555
H10 C4 1_555 1_555
C5 C1 1_555 1_555
H11 C5 1_555 1_555
H12 C5 1_555 1_555
H13 C5 1_555 1_555
C6 C3 1_555 1_555
H14 C6 1_555 1_555
H15 C6 1_555 1_555
H16 C6 1_555 1_555
N1 C1 1_555 1_555
H17 N1 1_555 1_555
H18 N1 1_555 1_555
N2 C2 1_555 1_555
H19 N2 1_555 1_555
H20 N2 1_555 1_555
Zn2A O6 1_555 1_555
Zn2C O2 1_555 1_555
Zn3A O9 1_555 1_555
Zn3A_2 O3 1_555 1_555
Zn3C O5 1_555 1_555
O2C Zn2 1_555 1_555
O3A Zn3 1_555 1_555
O5C Zn3 1_555 1_555
O6A Zn2 1_555 1_555
O8C Zn2 1_555 1_555
O9A Zn3 1_555 1_555
P2 O4 1_555 1_555
P3 O7 1_555 1_555
P4 O10 1_555 1_555
O8 Zn2C 1_555 1_555
C3 N1 1_555 1_555
C4 N2 1_555 1_555

#END
