
#######################################################################
#
#                 Cambridge Crystallographic Data Centre
#                                CCDC 
#
#######################################################################
#
# If this CIF has been generated from an entry in the Cambridge 
# Structural Database, then it will include bibliographic, chemical, 
# crystal, experimental, refinement or atomic coordinate data resulting 
# from the CCDC's data processing and validation procedures.
#
#######################################################################

data_OCUMUX
_chemical_formula_moiety         '(C21 H21 Mn2 N3 O16)n'
_symmetry_cell_setting           monoclinic
_symmetry_space_group_name_H-M   'C 2/c'
_symmetry_Int_Tables_number      15
_space_group_name_Hall           '-C 2yc'
loop_
_symmetry_equiv_pos_site_id
_symmetry_equiv_pos_as_xyz
1 x,y,z
2 -x,y,1/2-z
3 1/2+x,1/2+y,z
4 1/2-x,1/2+y,1/2-z
5 -x,-y,-z
6 x,-y,1/2+z
7 1/2-x,1/2-y,-z
8 1/2+x,1/2-y,1/2+z
_cell_length_a                   25.847(3)
_cell_length_b                   16.9043(17)
_cell_length_c                   13.2251(13)
_cell_angle_alpha                90
_cell_angle_beta                 105.900(2)
_cell_angle_gamma                90
_cell_volume                     5557.31
loop_
_atom_site_label
_atom_site_type_symbol
_atom_site_fract_x
_atom_site_fract_y
_atom_site_fract_z
_atom_site_U_iso_or_equiv
_atom_site_thermal_displace_type
O17 O 0.0000 0.2005(4) 0.2500 0.0624 Uani
H20 H 0.0209 0.2264 0.2998 0.0940 Uiso
H20A H -0.0209 0.2264 0.2002 0.0940 Uiso
O1 O -0.1040(4) 0.6035(6) 0.1439(9) 0.0669 Uani
C1 C 0.06735(16) 0.9563(3) 0.4504(3) 0.0107 Uani
C2 C 0.02018(17) 0.9007(3) 0.4202(3) 0.0126 Uani
C3 C 0.02475(18) 0.8243(3) 0.4612(4) 0.0182 Uani
H1 H 0.0563 0.8079 0.5095 0.0220 Uiso
C4 C -0.01805(19) 0.7734(3) 0.4293(4) 0.0211 Uani
C5 C -0.06690(18) 0.7948(3) 0.3567(4) 0.0167 Uani
C6 C -0.07059(17) 0.8721(3) 0.3173(3) 0.0131 Uani
C7 C -0.02728(16) 0.9239(2) 0.3485(3) 0.0106 Uani
H2 H -0.0302 0.9748 0.3209 0.0130 Uiso
C8 C -0.11638(17) 0.7447(3) 0.3355(4) 0.0159 Uani
C9 C -0.13270(19) 0.6905(3) 0.2536(4) 0.0186 Uani
C10 C -0.18125(19) 0.6508(3) 0.2338(4) 0.0213 Uani
H3 H -0.1914 0.6158 0.1775 0.0250 Uiso
C11 C -0.21464(18) 0.6635(3) 0.2983(4) 0.0171 Uani
C12 C -0.19859(18) 0.7163(3) 0.3823(4) 0.0178 Uani
H4 H -0.2204 0.7243 0.4268 0.0210 Uiso
C13 C -0.15048(18) 0.7569(3) 0.3995(4) 0.0170 Uani
C14 C -0.1343(2) 0.8127(3) 0.4919(4) 0.0258 Uani
C15 C -0.26787(19) 0.6227(3) 0.2773(4) 0.0204 Uani
C16 C -0.12094(17) 0.9004(3) 0.2371(3) 0.0140 Uani
Mn1 Mn 0.13609(3) 1.07142(4) 0.35519(5) 0.0140 Uani
N1 N -0.0096(2) 0.6930(3) 0.4719(5) 0.0474 Uani
N2 N -0.0974(2) 0.6715(3) 0.1882(5) 0.0457 Uani
O2 O 0.07029(12) 1.00753(18) 0.3835(2) 0.0141 Uani
O3 O 0.10079(12) 0.94692(19) 0.5394(2) 0.0169 Uani
O4 O -0.0584(2) 0.7076(3) 0.1926(5) 0.0738 Uani
O5 O 0.0218(2) 0.6840(3) 0.5597(5) 0.0764 Uani
O6 O -0.0341(2) 0.6385(3) 0.4202(6) 0.0854 Uani
O7 O -0.28505(17) 0.5893(3) 0.1895(3) 0.0462 Uani
O8 O -0.29110(13) 0.6232(2) 0.3490(3) 0.0257 Uani
O9 O -0.14980(17) 0.8825(2) 0.4813(3) 0.0342 Uani
O10 O -0.1042(2) 0.7872(3) 0.5759(4) 0.0633 Uani
O11 O -0.13911(12) 0.96826(19) 0.2555(2) 0.0159 Uani
O12 O -0.14107(14) 0.8602(2) 0.1582(3) 0.0239 Uani
O13 O 0.08736(14) 1.1261(2) 0.2153(3) 0.0236 Uani
H5 H 0.0841 1.1056 0.1544 0.0940 Uiso
H6 H 0.0589 1.1500 0.2172 0.0940 Uiso
C17 C 0.2639(3) 1.1194(6) 0.7574(7) 0.0803 Uani
H7 H 0.2446 1.1197 0.8071 0.0960 Uiso
C18 C 0.3292(5) 1.2118(8) 0.8719(11) 0.1070 Uani
H8 H 0.3386 1.2628 0.8485 0.1280 Uiso
H9 H 0.3623 1.1873 0.9124 0.1280 Uiso
C19 C 0.2965(7) 1.2259(10) 0.9417(12) 0.1493 Uani
H10 H 0.3017 1.1840 0.9926 0.2240 Uiso
H11 H 0.3064 1.2754 0.9773 0.2240 Uiso
H12 H 0.2593 1.2277 0.9022 0.2240 Uiso
C20 C 0.3352(4) 1.1726(7) 0.6962(11) 0.1041 Uani
H13 H 0.3097 1.1645 0.6280 0.1250 Uiso
H14 H 0.3502 1.2254 0.6979 0.1250 Uiso
C21 C 0.3810(6) 1.1095(12) 0.7151(16) 0.1897 Uani
H15 H 0.3670 1.0586 0.7261 0.2860 Uiso
H16 H 0.3949 1.1072 0.6547 0.2860 Uiso
H17 H 0.4094 1.1238 0.7759 0.2860 Uiso
Mn2 Mn 0.17446(3) 1.01080(5) 0.61609(5) 0.0208 Uani
N3 N 0.3078(3) 1.1640(6) 0.7803(7) 0.0913 Uani
O14 O 0.2460(2) 1.0797(4) 0.6836(4) 0.0742 Uani
O15 O 0.19665(14) 0.9776(2) 0.4706(3) 0.0251 Uani
H18 H 0.1866 0.9276 0.4435 0.0940 Uiso
H19 H 0.2313 0.9828 0.4766 0.0940 Uiso
Mn1A Mn -0.13609(3) 1.07142(4) 0.14481(5) 0.0140 Uani
Mn1B Mn -0.36391(3) 0.57142(4) 0.35519(5) 0.0140 Uani
Mn1D Mn -0.13609(3) 0.92858(4) 0.64481(5) 0.0140 Uani
O7G O 0.21495(17) 0.9107(3) 0.6895(3) 0.0462 Uani
O8B O 0.20890(13) 1.1232(2) 0.3490(3) 0.0257 Uani
O9D O 0.14980(17) 1.1175(2) 0.5187(3) 0.0342 Uani
O11A O 0.13911(12) 0.96826(19) 0.2445(2) 0.0159 Uani
O11D O 0.13911(12) 1.03174(19) 0.7445(2) 0.0159 Uani
Mn2D Mn -0.17446(3) 0.98920(5) 0.38391(5) 0.0208 Uani
Mn2G Mn -0.32554(3) 0.48920(5) 0.11609(5) 0.0208 Uani
loop_
_atom_site_aniso_label
_atom_site_aniso_U_11
_atom_site_aniso_U_22
_atom_site_aniso_U_33
_atom_site_aniso_U_23
_atom_site_aniso_U_13
_atom_site_aniso_U_12
O17 0.042(4) 0.054(4) 0.107(6) 0.000 0.047(4) 0.000
O1 0.067(2) 0.067(2) 0.067(2) -0.0015(9) 0.0191(11) -0.0005(9)
C1 0.0080(19) 0.018(2) 0.007(2) -0.0011(17) 0.0034(16) 0.0011(16)
C2 0.010(2) 0.019(2) 0.009(2) -0.0004(17) 0.0029(16) -0.0016(17)
C3 0.012(2) 0.021(2) 0.019(2) 0.0026(19) 0.0001(18) -0.0016(18)
C4 0.019(2) 0.019(2) 0.022(2) 0.0063(19) 0.0002(19) -0.0013(19)
C5 0.012(2) 0.023(2) 0.016(2) -0.0004(19) 0.0052(17) -0.0063(18)
C6 0.010(2) 0.018(2) 0.013(2) -0.0015(17) 0.0058(17) -0.0017(17)
C7 0.010(2) 0.012(2) 0.010(2) -0.0002(16) 0.0033(16) -0.0043(16)
C8 0.013(2) 0.016(2) 0.018(2) 0.0033(18) 0.0029(17) -0.0023(17)
C9 0.022(2) 0.020(2) 0.016(2) -0.0002(18) 0.0088(19) -0.0051(19)
C10 0.022(2) 0.025(2) 0.016(2) -0.0044(19) 0.0039(19) -0.007(2)
C11 0.013(2) 0.020(2) 0.017(2) 0.0043(18) 0.0017(18) -0.0024(18)
C12 0.014(2) 0.025(2) 0.016(2) 0.0006(19) 0.0068(18) -0.0015(18)
C13 0.014(2) 0.019(2) 0.017(2) -0.0010(18) 0.0027(18) -0.0015(18)
C14 0.030(3) 0.032(3) 0.017(2) -0.002(2) 0.009(2) -0.012(2)
C15 0.018 0.028 0.014 0.0035 0.0022 -0.008
C16 0.01 0.022 0.011 0.0015 0.0046 -0.0062
Mn1 0.0116(4) 0.0226(4) 0.0088(4) -0.0038(3) 0.0046(3) -0.0107(3)
N1 0.034(3) 0.036(3) 0.062(4) 0.012(3) -0.004(3) -0.011(2)
N2 0.040(3) 0.052(3) 0.049(3) -0.020(3) 0.019(3) -0.016(3)
O2 0.0095(15) 0.0190(16) 0.0129(15) 0.0007(12) 0.0013(12) -0.0062(12)
O3 0.0098(15) 0.0282(17) 0.0105(15) 0.0000(13) -0.0011(12) -0.0036(13)
O4 0.053(3) 0.074(4) 0.113(5) -0.039(4) 0.054(3) -0.027(3)
O5 0.063(3) 0.057(3) 0.081(4) 0.033(3) -0.028(3) -0.010(3)
O6 0.072(4) 0.039(3) 0.114(5) 0.017(3) -0.027(4) -0.017(3)
O7 0.037 0.082 0.019 -0.01 0.0068 -0.039
O8 0.0159 0.039 0.0235 -0.0027 0.0074 -0.0098
O9 0.046(2) 0.026(2) 0.038(2) -0.0116(17) 0.0239(19) -0.0128(18)
O10 0.0656(16) 0.0631(16) 0.0596(16) -0.0005(10) 0.0143(10) -0.0025(10)
O11 0.0103 0.0264 0.0101 0.0009 0.0015 0.0021
O12 0.0245 0.0262 0.0144 -0.0004 -0.0059 -0.0054
O13 0.0277(18) 0.0305(19) 0.0136(16) -0.0021(14) 0.0073(14) 0.0021(15)
C17 0.05 0.114 0.062 0.021 -0.01 -0.028
C18 0.078 0.103 0.123 -0.003 -0.001 -0.019
C19 0.194 0.147 0.099 0.011 0.027 0.067
C20 0.053 0.108 0.154 0.045 0.033 -0.013
C21 0.093 0.23 0.23 -0.127 0.017 0.012
Mn2 0.0093 0.0432 0.0091 -0.0019 0.0011 -0.0035
N3 0.051 0.138 0.078 -0.017 0.006 -0.028
O14 0.04 0.127 0.054 -0.036 0.01 -0.043
O15 0.0233 0.037 0.0168 -0.0021 0.0087 -0.002
Mn1A 0.0116 0.0226 0.0088 0.0038 0.0046 0.0107
Mn1B 0.0116 0.0226 0.0088 -0.0038 0.0046 -0.0107
Mn1D 0.0116 0.0226 0.0088 -0.0038 0.0046 -0.0107
O7G 0.037 0.082 0.019 0.01 0.0068 0.039
O8B 0.0159 0.039 0.0235 -0.0027 0.0074 -0.0098
O9D 0.046 0.026 0.038 -0.0116 0.0239 -0.0128
O11A 0.0103 0.0264 0.0101 -0.0009 0.0015 -0.0021
O11D 0.0103 0.0264 0.0101 0.0009 0.0015 0.0021
Mn2D 0.0093 0.0432 0.0091 -0.0019 0.0011 -0.0035
Mn2G 0.0093 0.0432 0.0091 0.0019 0.0011 0.0035
loop_
_geom_bond_atom_site_label_1
_geom_bond_atom_site_label_2
_geom_bond_site_symmetry_1
_geom_bond_site_symmetry_2
O1 N2 1_555 1_555
C1 C2 1_555 1_555
C2 C3 1_555 1_555
C3 H1 1_555 1_555
C4 C3 1_555 1_555
C5 C4 1_555 1_555
C6 C5 1_555 1_555
C7 C2 1_555 1_555
H2 C7 1_555 1_555
C8 C5 1_555 1_555
C9 C8 1_555 1_555
C10 C9 1_555 1_555
H3 C10 1_555 1_555
C11 C10 1_555 1_555
C12 C11 1_555 1_555
H4 C12 1_555 1_555
C13 C8 1_555 1_555
C14 C13 1_555 1_555
C15 C11 1_555 1_555
C16 C6 1_555 1_555
Mn1 O2 1_555 1_555
N1 C4 1_555 1_555
N2 C9 1_555 1_555
O2 C1 1_555 1_555
O3 C1 1_555 1_555
O4 N2 1_555 1_555
O5 N1 1_555 1_555
O6 N1 1_555 1_555
O7 C15 1_555 1_555
O8 C15 1_555 1_555
O9 C14 1_555 1_555
O10 C14 1_555 1_555
O11 C16 1_555 1_555
O12 C16 1_555 1_555
O13 Mn1 1_555 1_555
H5 O13 1_555 1_555
H6 O13 1_555 1_555
C17 H7 1_555 1_555
C18 H8 1_555 1_555
H9 C18 1_555 1_555
C19 C18 1_555 1_555
H10 C19 1_555 1_555
H11 C19 1_555 1_555
H12 C19 1_555 1_555
C20 H13 1_555 1_555
H14 C20 1_555 1_555
C21 C20 1_555 1_555
H15 C21 1_555 1_555
H16 C21 1_555 1_555
H17 C21 1_555 1_555
Mn2 O3 1_555 1_555
N3 C17 1_555 1_555
O14 C17 1_555 1_555
O15 Mn1 1_555 1_555
H18 O15 1_555 1_555
H19 O15 1_555 1_555
O17 H20 1_555 1_555
Mn1A O11 1_555 1_555
Mn1B O8 1_555 1_555
Mn1D O9 1_555 1_555
O7G Mn2 1_555 1_555
O8B Mn1 1_555 1_555
O9D Mn1 1_555 1_555
O11A Mn1 1_555 1_555
O11D Mn2 1_555 1_555
Mn2D O9 1_555 1_555
Mn2G O7 1_555 1_555
H20A O17 1_555 1_555
C6 C7 1_555 1_555
C12 C13 1_555 1_555
O11 Mn2D 1_555 1_555
C18 N3 1_555 1_555
C20 N3 1_555 1_555
Mn2 O14 1_555 1_555
Mn2 O15 1_555 1_555
Mn2 O9D 1_555 1_555

#END
