
#######################################################################
#
#                 Cambridge Crystallographic Data Centre
#                                CCDC 
#
#######################################################################
#
# If this CIF has been generated from an entry in the Cambridge 
# Structural Database, then it will include bibliographic, chemical, 
# crystal, experimental, refinement or atomic coordinate data resulting 
# from the CCDC's data processing and validation procedures.
#
#######################################################################

data_OCUMOR
_chemical_formula_moiety         '(C21 H17 Mn2 N3 O15)n'
_symmetry_cell_setting           monoclinic
_symmetry_space_group_name_H-M   'C 2/c'
_symmetry_Int_Tables_number      15
_space_group_name_Hall           '-C 2yc'
loop_
_symmetry_equiv_pos_site_id
_symmetry_equiv_pos_as_xyz
1 x,y,z
2 -x,y,1/2-z
3 1/2+x,1/2+y,z
4 1/2-x,1/2+y,1/2-z
5 -x,-y,-z
6 x,-y,1/2+z
7 1/2-x,1/2-y,-z
8 1/2+x,1/2-y,1/2+z
_cell_length_a                   25.7675(8)
_cell_length_b                   16.8891(6)
_cell_length_c                   13.2819(4)
_cell_angle_alpha                90
_cell_angle_beta                 104.730(2)
_cell_angle_gamma                90
_cell_volume                     5590.18
loop_
_atom_site_label
_atom_site_type_symbol
_atom_site_fract_x
_atom_site_fract_y
_atom_site_fract_z
_atom_site_U_iso_or_equiv
_atom_site_thermal_displace_type
Mn1 Mn 0.63443(5) 0.07291(8) 0.85667(9) 0.0216 Uani
Mn2 Mn 0.67287(5) -0.00438(8) 0.61595(9) 0.0234 Uani
O1 O 1.0702(2) 0.5080(3) 0.8902(4) 0.0221 Uani
O2 O 1.0992(2) 0.4431(4) 1.0398(4) 0.0234 Uani
O3 O 0.8633(2) 0.4722(4) 0.7553(4) 0.0251 Uani
O4 O 0.8621(2) 0.3632(4) 0.6598(5) 0.0292 Uani
O5 O 0.8844(4) 0.2929(6) 1.0717(7) 0.0736 Uani
O6 O 0.8475(3) 0.3870(4) 0.9746(6) 0.0421 Uani
O7 O 0.7088(3) 0.1201(5) 0.8490(5) 0.0401 Uani
O8 O 0.7110(3) 0.0997(5) 0.6846(5) 0.0505 Uani
O9 O 0.8792(6) 0.1607(10) 0.5956(12) 0.1197 Uani
O10 O 0.9437(5) 0.2013(8) 0.7028(10) 0.0977 Uani
O11 O 0.9567(5) 0.1409(7) 0.9295(10) 0.0976 Uani
O12 O 1.0178(5) 0.1857(7) 1.0610(11) 0.1017 Uani
O13 O 0.5847(3) 0.1271(4) 0.7196(5) 0.0383 Uani
H1 H 0.5719 0.1736 0.7193 0.0570 Uiso
H2 H 0.5632 0.1011 0.6718 0.0570 Uiso
O14 O 0.6957(3) 0.0264(4) 0.4687(5) 0.0384 Uani
O15 O 0.7432(4) -0.0662(7) 0.6944(8) 0.0731 Uani
N1 N 0.9842(5) 0.1956(7) 0.9726(10) 0.0698 Uani
N2 N 0.9000(5) 0.1784(8) 0.6852(10) 0.0715 Uani
N3 N 0.8109(7) -0.1486(12) 0.7916(15) 0.1181 Uani
C1 C 1.0667(3) 0.4543(5) 0.9539(6) 0.0170 Uani
C2 C 1.0183(3) 0.4002(5) 0.9215(6) 0.0168 Uani
C3 C 0.9732(3) 0.4250(5) 0.8512(6) 0.0172 Uani
H3 H 0.9717 0.4761 0.8246 0.0210 Uiso
C4 C 0.9292(3) 0.3748(5) 0.8184(6) 0.0164 Uani
C5 C 0.9311(3) 0.2974(5) 0.8584(6) 0.0190 Uani
C6 C 0.9784(3) 0.2738(5) 0.9305(7) 0.0275 Uani
C7 C 1.0213(3) 0.3245(5) 0.9630(7) 0.0261 Uani
H4 H 1.0519 0.3082 1.0123 0.0320 Uiso
C8 C 0.8803(3) 0.4041(5) 0.7375(6) 0.0207 Uani
C9 C 0.8806(3) 0.2481(5) 0.8335(6) 0.0207 Uani
C10 C 0.8652(4) 0.1963(6) 0.7508(7) 0.0333 Uani
C11 C 0.8177(4) 0.1573(6) 0.7316(7) 0.0323 Uani
H5 H 0.8078 0.1231 0.6750 0.0390 Uiso
C12 C 0.7836(3) 0.1686(5) 0.7972(6) 0.0268 Uani
C13 C 0.7975(3) 0.2185(5) 0.8776(6) 0.0238 Uani
H6 H 0.7747 0.2256 0.9211 0.0280 Uiso
C14 C 0.8453(3) 0.2597(5) 0.8968(6) 0.0210 Uani
C15 C 0.8602(4) 0.3161(5) 0.9882(7) 0.0283 Uani
C16 C 0.7301(4) 0.1254(6) 0.7753(7) 0.0361 Uani
C17 C 0.7824(8) -0.1007(14) 0.6974(16) 0.1007 Uani
C18 C 0.8129(8) -0.0985(15) 0.6089(17) 0.1126 Uani
H7 H 0.7931 -0.1243 0.5455 0.1350 Uiso
H8 H 0.8226 -0.0451 0.5936 0.1350 Uiso
C19 C 0.8613(9) -0.1470(16) 0.6677(19) 0.1250 Uani
H9 H 0.8926 -0.1127 0.6830 0.1490 Uiso
H10 H 0.8677 -0.1885 0.6219 0.1490 Uiso
C20 C 0.8568(9) -0.1863(15) 0.7721(17) 0.1127 Uani
H11 H 0.8515 -0.2430 0.7641 0.1350 Uiso
H12 H 0.8886 -0.1760 0.8279 0.1350 Uiso
C21 C 0.7873(9) -0.1549(15) 0.8843(15) 0.1138 Uani
H13 H 0.8014 -0.2011 0.9241 0.1710 Uiso
H14 H 0.7490 -0.1590 0.8608 0.1710 Uiso
H15 H 0.7967 -0.1086 0.9270 0.1710 Uiso
H16 H 0.6773 0.0610 0.4289 0.1710 Uiso
H17 H 0.6991 -0.0151 0.4353 0.1710 Uiso
Mn1B Mn 1.13443(5) 0.57291(8) 0.85667(9) 0.0216 Uani
Mn1C Mn 0.86557(5) 0.57291(8) 0.64333(9) 0.0216 Uani
Mn1F Mn 0.86557(5) 0.42709(8) 1.14333(9) 0.0216 Uani
Mn2C Mn 0.82713(5) 0.49562(8) 0.88405(9) 0.0234 Uani
Mn2G Mn 1.17287(5) 0.50438(8) 1.11595(9) 0.0234 Uani
O1B O 0.5702(2) 0.0080(3) 0.8902(4) 0.0221 Uani
O2G O 0.5992(2) 0.0569(4) 0.5398(4) 0.0234 Uani
O3C O 0.6367(2) -0.0278(4) 0.7447(4) 0.0251 Uani
O6C O 0.6525(3) -0.1130(4) 0.5254(6) 0.0421 Uani
O6F O 0.6525(3) 0.1130(4) 1.0254(6) 0.0421 Uani
loop_
_atom_site_aniso_label
_atom_site_aniso_U_11
_atom_site_aniso_U_22
_atom_site_aniso_U_33
_atom_site_aniso_U_23
_atom_site_aniso_U_13
_atom_site_aniso_U_12
Mn1 0.0205(7) 0.0309(7) 0.0155(6) -0.0053(5) 0.0085(5) -0.0144(5)
Mn2 0.0167(6) 0.0388(8) 0.0143(6) -0.0008(5) 0.0032(5) 0.0006(5)
O1 0.015(3) 0.032(3) 0.019(3) 0.001(2) 0.004(2) -0.007(2)
O2 0.017(3) 0.034(3) 0.018(3) 0.001(2) 0.002(2) -0.006(2)
O3 0.023(3) 0.030(3) 0.023(3) -0.003(2) 0.007(2) -0.001(2)
O4 0.027(3) 0.032(3) 0.027(3) -0.003(3) 0.004(3) -0.004(3)
O5 0.098(7) 0.072(6) 0.038(5) -0.016(4) -0.006(5) 0.000(6)
O6 0.061(5) 0.031(4) 0.043(4) -0.010(3) 0.029(4) -0.011(3)
O7 0.028(3) 0.061(5) 0.036(4) -0.005(3) 0.017(3) -0.023(3)
O8 0.045(4) 0.074(5) 0.030(4) -0.016(4) 0.005(3) -0.044(4)
O9 0.089(9) 0.168(14) 0.107(10) -0.054(10) 0.034(8) -0.029(9)
O10 0.073(7) 0.132(11) 0.098(9) -0.050(8) 0.040(6) -0.029(7)
O11 0.088(8) 0.067(7) 0.113(9) 0.020(6) -0.020(7) -0.018(6)
O12 0.093(8) 0.075(7) 0.112(10) 0.027(7) -0.020(7) -0.016(6)
O13 0.051(4) 0.039(4) 0.023(3) -0.004(3) 0.006(3) 0.009(3)
O14 0.038(4) 0.056(4) 0.025(3) 0.004(3) 0.015(3) -0.001(3)
O15 0.046(5) 0.105(8) 0.061(6) 0.003(5) 0.000(4) 0.023(5)
N1 0.060(7) 0.056(7) 0.077(8) 0.012(6) -0.013(6) -0.018(6)
N2 0.052(7) 0.102(10) 0.067(7) -0.033(7) 0.027(6) -0.028(6)
N3 0.093(12) 0.142(16) 0.104(13) 0.002(12) -0.003(10) 0.006(11)
C1 0.012(3) 0.025(4) 0.016(4) -0.004(3) 0.007(3) -0.005(3)
C2 0.012(3) 0.021(4) 0.018(4) -0.002(3) 0.005(3) -0.006(3)
C3 0.015(3) 0.020(4) 0.018(4) 0.000(3) 0.007(3) -0.005(3)
C4 0.012(3) 0.021(4) 0.018(4) -0.001(3) 0.007(3) -0.003(3)
C5 0.016(4) 0.019(4) 0.023(4) 0.000(3) 0.007(3) -0.004(3)
C6 0.025(4) 0.022(4) 0.033(5) 0.007(3) 0.003(4) -0.006(3)
C7 0.018(4) 0.029(5) 0.028(4) 0.007(4) 0.000(3) -0.002(3)
C8 0.016(4) 0.028(4) 0.019(4) 0.000(3) 0.006(3) -0.005(3)
C9 0.018(4) 0.022(4) 0.024(4) -0.001(3) 0.009(3) -0.007(3)
C10 0.031(5) 0.043(5) 0.032(5) -0.014(4) 0.019(4) -0.014(4)
C11 0.033(5) 0.041(5) 0.027(4) -0.013(4) 0.015(4) -0.016(4)
C12 0.024(4) 0.035(5) 0.024(4) -0.002(4) 0.011(3) -0.013(4)
C13 0.022(4) 0.031(4) 0.021(4) -0.001(3) 0.010(3) -0.008(3)
C14 0.022(4) 0.022(4) 0.020(4) -0.004(3) 0.007(3) -0.009(3)
C15 0.035(5) 0.030(5) 0.024(4) -0.009(4) 0.015(4) -0.015(4)
C16 0.029(5) 0.049(6) 0.032(5) -0.002(4) 0.011(4) -0.022(4)
C17 0.080(12) 0.122(16) 0.090(13) 0.002(12) 0.003(10) 0.009(12)
C18 0.089(13) 0.139(19) 0.099(15) -0.005(14) 0.004(12) 0.001(13)
C19 0.107(17) 0.15(2) 0.107(16) 0.000(15) 0.007(13) 0.004(15)
C20 0.088(13) 0.136(19) 0.102(15) -0.004(14) 0.002(11) 0.011(13)
C21 0.102(15) 0.15(2) 0.079(13) 0.009(13) 0.004(11) -0.002(14)
Mn1B 0.0205 0.0309 0.0155 -0.0053 0.0085 -0.0144
Mn1C 0.0205 0.0309 0.0155 0.0053 0.0085 0.0144
Mn1F 0.0205 0.0309 0.0155 -0.0053 0.0085 -0.0144
Mn2C 0.0167 0.0388 0.0143 0.0008 0.0032 -0.0006
Mn2G 0.0167 0.0388 0.0143 0.0008 0.0032 -0.0006
O1B 0.015 0.032 0.019 0.001 0.004 -0.007
O2G 0.017 0.034 0.018 -0.001 0.002 0.006
O3C 0.023 0.03 0.023 0.003 0.007 0.001
O6C 0.061 0.031 0.043 0.01 0.029 0.011
O6F 0.061 0.031 0.043 -0.01 0.029 -0.011
loop_
_geom_bond_atom_site_label_1
_geom_bond_atom_site_label_2
_geom_bond_site_symmetry_1
_geom_bond_site_symmetry_2
Mn1 O7 1_555 1_555
Mn2 O8 1_555 1_555
O1 C1 1_555 1_555
O2 C1 1_555 1_555
O3 C8 1_555 1_555
O4 C8 1_555 1_555
O5 C15 1_555 1_555
O6 C15 1_555 1_555
O7 C16 1_555 1_555
O8 C16 1_555 1_555
O9 N2 1_555 1_555
O10 N2 1_555 1_555
O11 N1 1_555 1_555
O12 N1 1_555 1_555
O13 Mn1 1_555 1_555
H1 O13 1_555 1_555
H2 O13 1_555 1_555
O14 Mn2 1_555 1_555
O15 Mn2 1_555 1_555
N1 C6 1_555 1_555
N2 C10 1_555 1_555
N3 C17 1_555 1_555
C1 C2 1_555 1_555
C2 C3 1_555 1_555
C3 H3 1_555 1_555
C4 C3 1_555 1_555
C5 C4 1_555 1_555
C6 C5 1_555 1_555
C7 C2 1_555 1_555
H4 C7 1_555 1_555
C8 C4 1_555 1_555
C9 C5 1_555 1_555
C10 C9 1_555 1_555
C11 C10 1_555 1_555
H5 C11 1_555 1_555
C12 C11 1_555 1_555
C13 C12 1_555 1_555
H6 C13 1_555 1_555
C14 C9 1_555 1_555
C15 C14 1_555 1_555
C16 C12 1_555 1_555
C17 O15 1_555 1_555
C18 C17 1_555 1_555
H7 C18 1_555 1_555
H8 C18 1_555 1_555
C19 C18 1_555 1_555
H9 C19 1_555 1_555
H10 C19 1_555 1_555
C20 N3 1_555 1_555
H11 C20 1_555 1_555
H12 C20 1_555 1_555
C21 N3 1_555 1_555
H13 C21 1_555 1_555
H14 C21 1_555 1_555
H15 C21 1_555 1_555
H16 O14 1_555 1_555
H17 O14 1_555 1_555
Mn1B O1 1_555 1_555
Mn1C O3 1_555 1_555
Mn1F O6 1_555 1_555
Mn2C O3 1_555 1_555
Mn2G O2 1_555 1_555
O1B Mn1 1_555 1_555
O2G Mn2 1_555 1_555
O3C Mn1 1_555 1_555
O6C Mn2 1_555 1_555
O6F Mn1 1_555 1_555
Mn2 O3C 1_555 1_555
O6 Mn2C 1_555 1_555
C6 C7 1_555 1_555
C13 C14 1_555 1_555
C19 C20 1_555 1_555

#END
