
#######################################################################
#
#                 Cambridge Crystallographic Data Centre
#                                CCDC 
#
#######################################################################
#
# If this CIF has been generated from an entry in the Cambridge 
# Structural Database, then it will include bibliographic, chemical, 
# crystal, experimental, refinement or atomic coordinate data resulting 
# from the CCDC's data processing and validation procedures.
#
#######################################################################

data_OCUMIL
_chemical_formula_moiety         '(C22 H24 Mn2 N4 O17)n'
_symmetry_cell_setting           monoclinic
_symmetry_space_group_name_H-M   'C 2/c'
_symmetry_Int_Tables_number      15
_space_group_name_Hall           '-C 2yc'
loop_
_symmetry_equiv_pos_site_id
_symmetry_equiv_pos_as_xyz
1 x,y,z
2 -x,y,1/2-z
3 1/2+x,1/2+y,z
4 1/2-x,1/2+y,1/2-z
5 -x,-y,-z
6 x,-y,1/2+z
7 1/2-x,1/2-y,-z
8 1/2+x,1/2-y,1/2+z
_cell_length_a                   25.56(2)
_cell_length_b                   17.280(17)
_cell_length_c                   13.187(12)
_cell_angle_alpha                90
_cell_angle_beta                 107.198(16)
_cell_angle_gamma                90
_cell_volume                     5563.98
loop_
_atom_site_label
_atom_site_type_symbol
_atom_site_fract_x
_atom_site_fract_y
_atom_site_fract_z
_atom_site_U_iso_or_equiv
_atom_site_thermal_displace_type
C1 C 0.51674(16) 0.7810(2) 0.0669(3) 0.0212 Uani
C2 C 0.47338(15) 0.8315(2) 0.0350(3) 0.0199 Uani
H1 H 0.4409 0.8162 -0.0147 0.0240 Uiso
C3 C 0.47859(14) 0.9050(2) 0.0775(3) 0.0162 Uani
C4 C 0.52740(15) 0.9262(2) 0.1516(3) 0.0174 Uani
H2 H 0.5310 0.9756 0.1809 0.0210 Uiso
C5 C 0.57088(14) 0.8748(2) 0.1826(3) 0.0172 Uani
C6 C 0.56617(14) 0.8006(2) 0.1410(3) 0.0164 Uani
C7 C 0.61611(15) 0.7505(2) 0.1637(3) 0.0181 Uani
C8 C 0.64919(15) 0.7594(2) 0.0982(3) 0.0180 Uani
C9 C 0.69664(15) 0.7161(2) 0.1149(3) 0.0223 Uani
H3 H 0.7180 0.7218 0.0693 0.0270 Uiso
C10 C 0.71248(15) 0.6649(2) 0.1981(3) 0.0209 Uani
C11 C 0.68051(17) 0.6565(2) 0.2643(3) 0.0268 Uani
H4 H 0.6911 0.6226 0.3214 0.0320 Uiso
C12 C 0.63265(15) 0.6983(2) 0.2465(3) 0.0232 Uani
C13 C 0.43109(14) 0.9596(2) 0.0486(3) 0.0180 Uani
C14 C 0.62260(14) 0.9008(2) 0.2656(3) 0.0177 Uani
C15 C 0.63342(16) 0.8142(2) 0.0055(3) 0.0235 Uani
C16 C 0.76502(16) 0.6194(2) 0.2179(3) 0.0259 Uani
Mn1 Mn 0.36059(2) 1.06850(3) 0.14081(4) 0.0178 Uani
Mn2 Mn 0.32190(2) 1.01464(4) -0.12072(5) 0.0218 Uani
N1 N 0.50793(15) 0.7033(2) 0.0221(3) 0.0348 Uani
N2 N 0.59877(17) 0.6855(3) 0.3150(3) 0.0438 Uani
O1 O 0.53279(17) 0.6502(2) 0.0733(4) 0.0644 Uani
O2 O 0.47529(17) 0.6955(2) -0.0649(4) 0.0682 Uani
O3 O 0.39707(11) 0.95159(17) -0.0421(2) 0.0240 Uani
O4 O 0.42808(11) 1.00755(16) 0.1163(2) 0.0227 Uani
O5 O 0.64243(11) 0.96594(15) 0.2474(2) 0.0209 Uani
O6 O 0.64124(12) 0.86244(17) 0.3451(2) 0.0309 Uani
O7 O 0.65087(13) 0.88232(17) 0.0194(2) 0.0338 Uani
O8 O 0.60521(18) 0.7895(2) -0.0802(3) 0.0571 Uani
O9 O 0.78873(11) 0.62297(19) 0.1485(2) 0.0324 Uani
O10 O 0.78033(14) 0.5832(2) 0.3026(3) 0.0428 Uani
O11 O 0.55809(16) 0.7185(3) 0.3055(4) 0.0629 Uani
O12 O 0.24842(16) 1.0834(3) -0.1885(3) 0.0632 Uani
H5 H 0.3113 0.9340 0.0440 0.1290 Uiso
H6 H 0.2692 0.9801 0.0308 0.1290 Uiso
H7 H 0.4149 1.0970 0.3434 0.1290 Uiso
H8 H 0.4447 1.1310 0.2922 0.1290 Uiso
O13 O 0.30100(12) 0.98012(17) 0.0246(2) 0.0269 Uani
O14 O 0.41096(13) 1.11950(18) 0.2833(2) 0.0335 Uani
O15 O 0.6154(3) 0.6424(4) 0.3878(6) 0.1215 Uani
N3 N 0.1974(2) 1.1744(3) -0.2956(5) 0.0785 Uani
C17 C 0.2379(3) 1.1256(4) -0.2662(5) 0.0625 Uani
H9 H 0.2611 1.1226 -0.3086 0.0750 Uiso
C18 C 0.1620(3) 1.1887(5) -0.2307(9) 0.1122 Uani
H10 H 0.1248 1.1783 -0.2710 0.1680 Uiso
H11 H 0.1654 1.2417 -0.2082 0.1680 Uiso
H12 H 0.1723 1.1555 -0.1696 0.1680 Uiso
C19 C 0.1864(5) 1.2169(6) -0.3942(8) 0.1399 Uani
H13 H 0.1836 1.2711 -0.3806 0.2100 Uiso
H14 H 0.1526 1.1991 -0.4426 0.2100 Uiso
H15 H 0.2157 1.2086 -0.4247 0.2100 Uiso
Mn1A Mn 0.63941(2) 1.06850(3) 0.35919(4) 0.0178 Uani
Mn1B Mn 0.86059(2) 0.56850(3) 0.14081(4) 0.0178 Uani
Mn1D Mn 0.63941(2) 0.93150(3) -0.14081(4) 0.0178 Uani
Mn2D Mn 0.67810(2) 0.98536(4) 0.12072(5) 0.0218 Uani
Mn2G Mn 0.82190(2) 0.48536(4) 0.37928(5) 0.0218 Uani
O5A O 0.35757(11) 0.96594(15) 0.2526(2) 0.0209 Uani
O5D O 0.35757(11) 1.03406(15) -0.2474(2) 0.0209 Uani
O7D O 0.34913(13) 1.11768(17) -0.0194(2) 0.0338 Uani
O9B O 0.28873(11) 1.12297(19) 0.1485(2) 0.0324 Uani
O10G O 0.28033(14) 0.9168(2) -0.1974(3) 0.0428 Uani
C20 C 0.6648(3) 0.4886(5) 0.4746(8) 0.0882 Uani
H16 H 0.6719 0.4697 0.4139 0.1060 Uiso
O16 O 0.7017(2) 0.5147(3) 0.5417(5) 0.0860 Uani
N4 N 0.6141(3) 0.4843(4) 0.4796(7) 0.0930 Uani
C21 C 0.6001(4) 0.5119(5) 0.5685(10) 0.1118 Uani
H17 H 0.6314 0.5360 0.6170 0.1680 Uiso
H18 H 0.5881 0.4695 0.6032 0.1680 Uiso
H19 H 0.5710 0.5491 0.5459 0.1680 Uiso
C22 C 0.5685(5) 0.4613(12) 0.3881(12) 0.2328 Uani
H20 H 0.5801 0.4624 0.3252 0.3510 Uiso
H21 H 0.5385 0.4964 0.3803 0.3510 Uiso
H22 H 0.5571 0.4098 0.3990 0.3510 Uiso
H23 H 0.4866 0.2148 0.1907 0.1290 Uiso
O17 O 0.5000 0.1920(4) 0.2500 0.0625 Uani
H23A H 0.5134 0.2148 0.3093 0.1290 Uiso
loop_
_atom_site_aniso_label
_atom_site_aniso_U_11
_atom_site_aniso_U_22
_atom_site_aniso_U_33
_atom_site_aniso_U_23
_atom_site_aniso_U_13
_atom_site_aniso_U_12
C1 0.023(2) 0.0133(18) 0.029(2) -0.0029(16) 0.0101(17) 0.0011(15)
C2 0.0126(17) 0.024(2) 0.0210(19) -0.0030(16) 0.0016(15) 0.0001(15)
C3 0.0135(17) 0.0190(19) 0.0170(18) 0.0006(15) 0.0057(14) 0.0034(14)
C4 0.0160(18) 0.0173(19) 0.0189(18) -0.0013(15) 0.0051(15) 0.0037(14)
C5 0.0141(17) 0.0197(19) 0.0185(18) 0.0010(15) 0.0060(14) 0.0023(14)
C6 0.0105(17) 0.0189(19) 0.0200(19) -0.0014(15) 0.0050(14) 0.0011(14)
C7 0.0166(18) 0.0149(18) 0.0232(19) -0.0022(15) 0.0063(15) 0.0025(14)
C8 0.0184(18) 0.0153(18) 0.0203(19) 0.0007(15) 0.0059(15) 0.0016(14)
C9 0.0182(19) 0.027(2) 0.024(2) 0.0010(17) 0.0096(16) 0.0044(16)
C10 0.0155(18) 0.022(2) 0.025(2) 0.0013(16) 0.0059(15) 0.0066(15)
C11 0.026(2) 0.026(2) 0.030(2) 0.0100(18) 0.0108(18) 0.0110(17)
C12 0.0193(19) 0.028(2) 0.025(2) 0.0052(17) 0.0106(16) 0.0046(16)
C13 0.0128(17) 0.0216(19) 0.0196(19) 0.0023(16) 0.0048(15) 0.0023(14)
C14 0.0135(17) 0.021(2) 0.0190(19) -0.0018(16) 0.0053(15) 0.0035(15)
C15 0.022(2) 0.027(2) 0.024(2) 0.0044(17) 0.0106(17) 0.0096(17)
C16 0.019(2) 0.025(2) 0.032(2) -0.0010(18) 0.0049(17) 0.0083(16)
Mn1 0.0153(3) 0.0226(3) 0.0160(3) 0.0009(2) 0.0055(2) 0.0084(2)
Mn2 0.0157(3) 0.0312(4) 0.0177(3) -0.0012(2) 0.0035(2) 0.0006(2)
N1 0.0253(19) 0.026(2) 0.048(2) -0.0135(18) 0.0031(18) 0.0014(16)
N2 0.046(2) 0.050(3) 0.043(2) 0.033(2) 0.025(2) 0.024(2)
O1 0.057(2) 0.0217(18) 0.093(3) -0.011(2) -0.011(2) 0.0099(17)
O2 0.063(3) 0.048(2) 0.067(3) -0.030(2) -0.022(2) 0.008(2)
O3 0.0186(13) 0.0331(16) 0.0181(14) -0.0027(12) 0.0020(11) 0.0091(12)
O4 0.0187(14) 0.0260(15) 0.0226(14) -0.0050(12) 0.0048(11) 0.0098(11)
O5 0.0201(13) 0.0245(15) 0.0181(13) -0.0019(11) 0.0058(11) -0.0055(11)
O6 0.0302(16) 0.0253(16) 0.0285(16) 0.0057(13) -0.0046(13) 0.0019(12)
O7 0.0439(18) 0.0221(16) 0.0373(18) 0.0094(13) 0.0149(15) 0.0035(13)
O8 0.080(3) 0.053(2) 0.0265(19) 0.0028(17) -0.0024(18) 0.007(2)
O9 0.0229(15) 0.0426(19) 0.0353(17) 0.0036(14) 0.0142(13) 0.0159(13)
O10 0.0400(19) 0.055(2) 0.0325(18) 0.0162(16) 0.0095(15) 0.0307(16)
O11 0.052(2) 0.072(3) 0.083(3) 0.033(2) 0.048(2) 0.028(2)
O12 0.039(2) 0.086(3) 0.058(2) 0.003(2) 0.0041(19) 0.025(2)
O13 0.0246(15) 0.0320(16) 0.0254(15) 0.0032(12) 0.0095(12) 0.0001(12)
O14 0.0399(18) 0.0383(18) 0.0216(15) -0.0014(13) 0.0080(13) -0.0114(14)
O15 0.121(2) 0.124(2) 0.122(2) 0.0050(10) 0.0397(12) 0.0033(10)
N3 0.058(3) 0.058(3) 0.098(5) -0.013(3) -0.010(3) 0.017(3)
C17 0.051(3) 0.066(4) 0.058(3) -0.005(2) -0.003(3) 0.015(3)
C18 0.067(5) 0.090(6) 0.183(11) -0.029(6) 0.042(6) 0.024(5)
C19 0.170(11) 0.078(6) 0.111(8) 0.009(6) -0.052(7) 0.018(7)
Mn1A 0.0153 0.0226 0.016 -0.0009 0.0055 -0.0084
Mn1B 0.0153 0.0226 0.016 0.0009 0.0055 0.0084
Mn1D 0.0153 0.0226 0.016 0.0009 0.0055 0.0084
Mn2D 0.0157 0.0312 0.0177 -0.0012 0.0035 0.0006
Mn2G 0.0157 0.0312 0.0177 0.0012 0.0035 -0.0006
O5A 0.0201 0.0245 0.0181 0.0019 0.0058 0.0055
O5D 0.0201 0.0245 0.0181 -0.0019 0.0058 -0.0055
O7D 0.0439 0.0221 0.0373 0.0094 0.0149 0.0035
O9B 0.0229 0.0426 0.0353 0.0036 0.0142 0.0159
O10G 0.04 0.055 0.0325 -0.0162 0.0095 -0.0307
C20 0.061(5) 0.084(6) 0.114(7) 0.009(5) 0.017(5) -0.012(4)
O16 0.047(3) 0.089(4) 0.125(5) -0.007(3) 0.030(3) 0.002(3)
N4 0.062(4) 0.094(5) 0.124(6) 0.013(4) 0.029(4) -0.010(3)
C21 0.083(6) 0.075(5) 0.202(12) -0.001(7) 0.080(7) -0.008(4)
C22 0.119(11) 0.40(3) 0.145(12) 0.032(15) -0.014(9) -0.146(15)
O17 0.045(3) 0.078(4) 0.069(4) 0.000 0.024(3) 0.000
loop_
_geom_bond_atom_site_label_1
_geom_bond_atom_site_label_2
_geom_bond_site_symmetry_1
_geom_bond_site_symmetry_2
C1 C2 1_555 1_555
C2 H1 1_555 1_555
C3 C2 1_555 1_555
C4 C3 1_555 1_555
H2 C4 1_555 1_555
C5 C4 1_555 1_555
C6 C1 1_555 1_555
C7 C6 1_555 1_555
C8 C7 1_555 1_555
C9 C8 1_555 1_555
H3 C9 1_555 1_555
C10 C9 1_555 1_555
C11 C10 1_555 1_555
H4 C11 1_555 1_555
C12 C7 1_555 1_555
C13 C3 1_555 1_555
C14 C5 1_555 1_555
C15 C8 1_555 1_555
C16 C10 1_555 1_555
Mn1 O4 1_555 1_555
Mn2 O3 1_555 1_555
N1 C1 1_555 1_555
N2 C12 1_555 1_555
O1 N1 1_555 1_555
O2 N1 1_555 1_555
O3 C13 1_555 1_555
O4 C13 1_555 1_555
O5 C14 1_555 1_555
O6 C14 1_555 1_555
O7 C15 1_555 1_555
O8 C15 1_555 1_555
O9 C16 1_555 1_555
O10 C16 1_555 1_555
O11 N2 1_555 1_555
O12 Mn2 1_555 1_555
H5 O13 1_555 1_555
H6 O13 1_555 1_555
H7 O14 1_555 1_555
H8 O14 1_555 1_555
O13 Mn1 1_555 1_555
O14 Mn1 1_555 1_555
O15 N2 1_555 1_555
N3 C17 1_555 1_555
C17 O12 1_555 1_555
H9 C17 1_555 1_555
C18 N3 1_555 1_555
H10 C18 1_555 1_555
H11 C18 1_555 1_555
H12 C18 1_555 1_555
C19 N3 1_555 1_555
H13 C19 1_555 1_555
H14 C19 1_555 1_555
H15 C19 1_555 1_555
C20 H16 1_555 1_555
O16 C20 1_555 1_555
N4 C20 1_555 1_555
C21 N4 1_555 1_555
H17 C21 1_555 1_555
H18 C21 1_555 1_555
H19 C21 1_555 1_555
C22 N4 1_555 1_555
H20 C22 1_555 1_555
H21 C22 1_555 1_555
H22 C22 1_555 1_555
H23 O17 1_555 1_555
O17 H23A 1_555 1_555
Mn1A O5 1_555 1_555
Mn1B O9 1_555 1_555
Mn1D O7 1_555 1_555
Mn2D O5 1_555 1_555
Mn2G O10 1_555 1_555
O5A Mn1 1_555 1_555
O5D Mn2 1_555 1_555
O7D Mn1 1_555 1_555
O9B Mn1 1_555 1_555
O10G Mn2 1_555 1_555
C5 C6 1_555 1_555
C11 C12 1_555 1_555
Mn2 O13 1_555 1_555
Mn2 O7D 1_555 1_555
O7 Mn2D 1_555 1_555

#END
