
#######################################################################
#
#                 Cambridge Crystallographic Data Centre
#                                CCDC 
#
#######################################################################
#
# If this CIF has been generated from an entry in the Cambridge 
# Structural Database, then it will include bibliographic, chemical, 
# crystal, experimental, refinement or atomic coordinate data resulting 
# from the CCDC's data processing and validation procedures.
#
#######################################################################

data_NIVNUC
_chemical_formula_moiety         '(C24 H16 Cu3 N20 O4 W2)n'
_symmetry_cell_setting           monoclinic
_symmetry_space_group_name_H-M   'C 2/m'
_symmetry_Int_Tables_number      12
_space_group_name_Hall           '-C 2y'
loop_
_symmetry_equiv_pos_site_id
_symmetry_equiv_pos_as_xyz
1 x,y,z
2 1/2+x,1/2+y,z
3 -x,y,-z
4 1/2-x,1/2+y,-z
5 -x,-y,-z
6 1/2-x,1/2-y,-z
7 x,-y,z
8 1/2+x,1/2-y,z
_cell_length_a                   26.7378(19)
_cell_length_b                   14.7776(9)
_cell_length_c                   11.5160(8)
_cell_angle_alpha                90
_cell_angle_beta                 108.695(2)
_cell_angle_gamma                90
_cell_volume                     4310.13
loop_
_atom_site_label
_atom_site_type_symbol
_atom_site_fract_x
_atom_site_fract_y
_atom_site_fract_z
O2 O 0.5001(5) 0.6310(10) 0.6243(10)
O3 O 0.4732(7) 0.8185(13) 0.5782(17)
W1 W 0.349487(6) 1.0000 0.801523(15)
W2 W 0.361584(7) 0.5000 0.859818(15)
Cu1 Cu 0.2500 0.7500 0.5000
Cu2 Cu 0.2500 0.7500 1.0000
Cu3 Cu 0.5000 0.76424(4) 1.0000
O1 O 0.5253(2) 0.7568(4) 0.8112(4)
N1 N 0.30314(12) 0.83733(19) 0.6002(2)
N2 N 0.4275(3) 1.0000 0.6307(7)
N3 N 0.44651(13) 0.8583(2) 0.9290(3)
N4 N 0.31334(14) 0.8528(2) 0.9747(3)
N5 N 0.21882(19) 1.0000 0.7129(6)
N6 N 0.44564(13) 0.6696(2) 0.9385(3)
N7 N 0.4303(3) 0.5000 0.6676(8)
N8 N 0.29881(14) 0.6362(2) 0.6323(2)
N9 N 0.28885(12) 0.64683(19) 0.9525(2)
N10 N 0.4111(3) 0.5000 1.1627(5)
N11 N 0.20623(12) 0.7701(2) 0.6154(2)
N12 N 0.20610(12) 0.76869(19) 0.8200(2)
C1 C 0.32152(13) 0.8921(2) 0.6698(2)
C2 C 0.4002(2) 1.0000 0.6886(5)
C3 C 0.41354(14) 0.9085(2) 0.8858(3)
C4 C 0.32645(14) 0.9062(2) 0.9193(3)
C5 C 0.2640(2) 1.0000 0.7440(5)
C6 C 0.41595(14) 0.6125(2) 0.9104(3)
C7 C 0.4072(3) 0.5000 0.7353(6)
C8 C 0.32049(14) 0.5888(2) 0.7112(3)
C9 C 0.31295(13) 0.5934(2) 0.9220(2)
C10 C 0.3943(2) 0.5000 1.0579(5)
C11 C 0.15494(17) 0.7881(3) 0.5774(3)
H1 H 0.1373 0.7947 0.4940
C12 C 0.12726(18) 0.7970(4) 0.6597(4)
H2 H 0.0913 0.8099 0.6331
C13 C 0.15463(16) 0.7860(3) 0.7820(3)
H3 H 0.1369 0.7908 0.8391
C14 C 0.22982(14) 0.7623(2) 0.7357(2)
H4 H 0.2660 0.7514 0.7627
W1E W 0.150513(6) 0.5000 0.198477(15)
W2E W 0.138416(7) 1.0000 0.140182(15)
W2D W 0.638416(7) 0.5000 1.140182(15)
Cu1F Cu 0.2500 1.2500 0.5000
Cu2F Cu 0.2500 1.2500 1.0000
Cu2_2 Cu 0.2500 0.7500 0.0000
Cu3F Cu 0.5000 1.23576(4) 1.0000
O1B O 0.4747(2) 0.7568(4) 1.1888(4)
N1F N 0.30314(12) 1.16267(19) 0.6002(2)
N1E N 0.19686(12) 0.66267(19) 0.3998(2)
N3F N 0.44651(13) 1.1417(2) 0.9290(3)
N3B N 0.55349(13) 0.8583(2) 1.0710(3)
N4F N 0.31334(14) 1.1472(2) 0.9747(3)
N4E N 0.18666(14) 0.6472(2) 1.0253(3)
N6B N 0.55436(13) 0.6696(2) 1.0615(3)
N8E N 0.20119(14) 0.8638(2) 0.3677(2)
N9E N 0.21115(12) 0.85317(19) 1.0475(2)
N11E N 0.29377(12) 0.7299(2) 0.3846(2)
N12E N 0.29390(12) 0.73131(19) 0.1800(2)
N12E_2 N 0.29390(12) 0.73131(19) 1.1800(2)
C1F C 0.32152(13) 1.1079(2) 0.6698(2)
C1E C 0.17848(13) 0.6079(2) 0.3302(2)
C3F C 0.41354(14) 1.0915(2) 0.8858(3)
C4F C 0.32645(14) 1.0938(2) 0.9193(3)
C6B C 0.58405(14) 0.6125(2) 1.0896(3)
C6F C 0.41595(14) 0.3875(2) 0.9104(3)
C8E C 0.17951(14) 0.9112(2) 0.2888(3)
C8F C 0.32049(14) 0.4112(2) 0.7112(3)
C9F C 0.31295(13) 0.4066(2) 0.9220(2)
C11E C 0.34506(17) 0.7119(3) 0.4226(3)
H1E H 0.3627 0.7053 0.5060
C12E C 0.37274(18) 0.7030(4) 0.3403(4)
H2E H 0.4087 0.6901 0.3669
C13E C 0.34537(16) 0.7140(3) 0.2180(3)
H3E H 0.3631 0.7092 0.1609
C14E C 0.27018(14) 0.7377(2) 0.2643(2)
H4E H 0.2340 0.7486 0.2373
loop_
_geom_bond_atom_site_label_1
_geom_bond_atom_site_label_2
_geom_bond_site_symmetry_1
_geom_bond_site_symmetry_2
W1 C1 1_555 1_555
W2 C6 1_555 1_555
Cu1 N1 1_555 1_555
Cu2 N4 1_555 1_555
Cu3 O1 1_555 1_555
N1 C1 1_555 1_555
N2 C2 1_555 1_555
N3 Cu3 1_555 1_555
N4 C4 1_555 1_555
N5 C5 1_555 1_555
N6 Cu3 1_555 1_555
N7 C7 1_555 1_555
N8 Cu1 1_555 1_555
N9 Cu2 1_555 1_555
N10 C10 1_555 1_555
N11 Cu1 1_555 1_555
N12 Cu2 1_555 1_555
C2 W1 1_555 1_555
C3 W1 1_555 1_555
C4 W1 1_555 1_555
C5 W1 1_555 1_555
C6 N6 1_555 1_555
C7 W2 1_555 1_555
C8 W2 1_555 1_555
C9 W2 1_555 1_555
C10 W2 1_555 1_555
C11 N11 1_555 1_555
H1 C11 1_555 1_555
C12 C11 1_555 1_555
H2 C12 1_555 1_555
C13 N12 1_555 1_555
H3 C13 1_555 1_555
C14 N11 1_555 1_555
H4 C14 1_555 1_555
W1E C1E 1_555 1_555
W2E C8E 1_555 1_555
W2D C6B 1_555 1_555
Cu1F N1F 1_555 1_555
Cu2F N4F 1_555 1_555
Cu2_2 N12E 1_555 1_555
Cu3F N3F 1_555 1_555
O1B Cu3 1_555 1_555
N1F C1F 1_555 1_555
N1E Cu1 1_555 1_555
N3F C3F 1_555 1_555
N3B Cu3 1_555 1_555
N4F C4F 1_555 1_555
N4E Cu2 1_555 1_555
N6B Cu3 1_555 1_555
N8E Cu1 1_555 1_555
N9E Cu2 1_555 1_555
N11E Cu1 1_555 1_555
N12E C13E 1_555 1_555
N12E_2 Cu2 1_555 1_555
C1F W1 1_555 1_555
C1E N1E 1_555 1_555
C3F W1 1_555 1_555
C4F W1 1_555 1_555
C6B N6B 1_555 1_555
C6F W2 1_555 1_555
C8E N8E 1_555 1_555
C8F W2 1_555 1_555
C9F W2 1_555 1_555
C11E N11E 1_555 1_555
H1E C11E 1_555 1_555
C12E C11E 1_555 1_555
H2E C12E 1_555 1_555
C13E C12E 1_555 1_555
H3E C13E 1_555 1_555
C14E N11E 1_555 1_555
H4E C14E 1_555 1_555
N3 C3 1_555 1_555
N8 C8 1_555 1_555
N9 C9 1_555 1_555
N12 C14 1_555 1_555
C12 C13 1_555 1_555
N12E C14E 1_555 1_555

#END
