
#######################################################################
#
#                 Cambridge Crystallographic Data Centre
#                                CCDC 
#
#######################################################################
#
# If this CIF has been generated from an entry in the Cambridge 
# Structural Database, then it will include bibliographic, chemical, 
# crystal, experimental, refinement or atomic coordinate data resulting 
# from the CCDC's data processing and validation procedures.
#
#######################################################################

data_NORBUT
_chemical_formula_moiety         '(C10 H22 Ba1 O13 Zn1)n'
_symmetry_cell_setting           rhombohedral
_symmetry_space_group_name_H-M   'R -3 m'
_symmetry_Int_Tables_number      166
_space_group_name_Hall           '-R 3 2"'
loop_
_symmetry_equiv_pos_site_id
_symmetry_equiv_pos_as_xyz
1 x,y,z
2 -y,x-y,z
3 -x+y,-x,z
4 y,x,-z
5 x-y,-y,-z
6 -x,-x+y,-z
7 2/3+x,1/3+y,1/3+z
8 2/3-y,1/3+x-y,1/3+z
9 2/3-x+y,1/3-x,1/3+z
10 2/3+y,1/3+x,1/3-z
11 2/3+x-y,1/3-y,1/3-z
12 2/3-x,1/3-x+y,1/3-z
13 1/3+x,2/3+y,2/3+z
14 1/3-y,2/3+x-y,2/3+z
15 1/3-x+y,2/3-x,2/3+z
16 1/3+y,2/3+x,2/3-z
17 1/3+x-y,2/3-y,2/3-z
18 1/3-x,2/3-x+y,2/3-z
19 -x,-y,-z
20 y,-x+y,-z
21 x-y,x,-z
22 -y,-x,z
23 -x+y,y,z
24 x,x-y,z
25 1/3-x,2/3-y,2/3-z
26 1/3+y,2/3-x+y,2/3-z
27 1/3+x-y,2/3+x,2/3-z
28 1/3-y,2/3-x,2/3+z
29 1/3-x+y,2/3+y,2/3+z
30 1/3+x,2/3+x-y,2/3+z
31 2/3-x,1/3-y,1/3-z
32 2/3+y,1/3-x+y,1/3-z
33 2/3+x-y,1/3+x,1/3-z
34 2/3-y,1/3-x,1/3+z
35 2/3-x+y,1/3+y,1/3+z
36 2/3+x,1/3+x-y,1/3+z
_cell_length_a                   27.819(9)
_cell_length_b                   27.819(9)
_cell_length_c                   12.613(4)
_cell_angle_alpha                90
_cell_angle_beta                 90
_cell_angle_gamma                120
_cell_volume                     8453.41
loop_
_atom_site_label
_atom_site_type_symbol
_atom_site_fract_x
_atom_site_fract_y
_atom_site_fract_z
Ba1 Ba 0.6667 0.03964(2) 0.3333
Zn1 Zn 0.53775(2) 0.07550(3) 0.19346(5)
O1 O 0.59414(15) 0.08791(17) 0.0813(2)
O2 O 0.62080(14) 0.09280(15) -0.0847(3)
O3 O 0.59597(12) 0.08815(14) 0.3046(2)
O4 O 0.60871(14) 0.07291(15) 0.4701(2)
O5 O 0.49588(10) -0.0082(2) 0.2094(4)
H1 H 0.4614(7) -0.024(5) 0.218(7)
O6 O 0.62560(12) 0.01289(13) 0.1218(2)
H2 H 0.6222(17) 0.0406(10) 0.107(4)
H3 H 0.5958(11) -0.0172(9) 0.112(4)
O7 O 0.77782(13) 0.06117(13) 0.3488(2)
H4 H 0.785(3) 0.059(3) 0.2849(15)
H5 H 0.780(3) 0.037(2) 0.386(4)
C1 C 0.59656(16) 0.10350(17) -0.0147(3)
C2 C 0.56905(11) 0.1381(2) -0.0414(5)
C3 C 0.57735(16) 0.1547(3) -0.1579(5)
H6 H 0.5599 0.1762 -0.1730
H7 H 0.5611 0.1219 -0.2012
C4 C 0.59520(15) 0.1904(3) 0.0288(6)
H8 H 0.5898 0.1797 0.1021
H9 H 0.6342 0.2121 0.0140
C5 C 0.59104(15) 0.09295(17) 0.4035(3)
C6 C 0.56303(12) 0.1261(2) 0.4408(5)
C7 C 0.56689(14) 0.1338(3) 0.5602(5)
H10 H 0.5491 0.0981 0.5942
H11 H 0.6052 0.1541 0.5810
C8 C 0.59164(14) 0.1833(3) 0.3863(6)
H12 H 0.5892 0.1784 0.3107
H13 H 0.5736 0.2036 0.4071
O1V O 0.49377(23) 0.08791(17) 0.0813(2)
O2V O 0.47200(21) 0.09280(15) -0.0847(3)
C1V C 0.50694(23) 0.10350(17) -0.0147(3)
H6V H 0.6163 0.1762 -0.1730
H9V H 0.5779 0.2121 0.0140
O3V O 0.49218(18) 0.08815(14) 0.3046(2)
O4V O 0.46420(21) 0.07291(15) 0.4701(2)
C5V C 0.50191(23) 0.09295(17) 0.4035(3)
H11V H 0.5489 0.1541 0.5810
H13V H 0.6300 0.2036 0.4071
H1V H 0.5146(50) -0.024(5) 0.218(7)
O6I O 0.67956(13) -0.04107(12) 0.2115(2)
H2I H 0.7073(10) -0.0445(17) 0.226(4)
H3I H 0.6495(9) -0.0709(11) 0.221(4)
O7Q O 0.55551(13) -0.04998(18) 0.3179(2)
H4Q H 0.548(3) -0.059(4) 0.3818(15)
H5Q H 0.553(3) -0.076(4) 0.281(4)
Ba1I Ba 0.70631(2) 0.0000 0.0000
Ba1V Ba 0.37294(2) 0.03964(2) 0.3333
O3Q O 0.73736(12) 0.15885(18) 0.3621(2)
O4Q O 0.72462(14) 0.13087(21) 0.1966(2)
O6G O 0.65378(13) -0.05396(18) 0.4551(2)
O6Q O 0.70773(12) 0.05396(18) 0.5449(2)
loop_
_geom_bond_atom_site_label_1
_geom_bond_atom_site_label_2
_geom_bond_site_symmetry_1
_geom_bond_site_symmetry_2
Ba1 O3 1_555 1_555
Zn1 O1 1_555 1_555
O1 C1 1_555 1_555
O2 C1 1_555 1_555
O3 Zn1 1_555 1_555
O4 Ba1 1_555 1_555
O5 Zn1 1_555 1_555
H1 O5 1_555 1_555
O6 Ba1 1_555 1_555
H2 O6 1_555 1_555
H3 O6 1_555 1_555
O7 Ba1 1_555 1_555
H4 O7 1_555 1_555
H5 O7 1_555 1_555
C1 C2 1_555 1_555
C2 C3 1_555 1_555
C3 H6 1_555 1_555
H7 C3 1_555 1_555
C4 C2 1_555 1_555
H8 C4 1_555 1_555
H9 C4 1_555 1_555
C5 O3 1_555 1_555
C6 C5 1_555 1_555
C7 C6 1_555 1_555
H10 C7 1_555 1_555
H11 C7 1_555 1_555
C8 C6 1_555 1_555
H12 C8 1_555 1_555
H13 C8 1_555 1_555
O1V Zn1 1_555 1_555
O2V C1V 1_555 1_555
C1V C2 1_555 1_555
H6V C3 1_555 1_555
H9V C4 1_555 1_555
O3V Zn1 1_555 1_555
O4V C5V 1_555 1_555
C5V C6 1_555 1_555
H11V C7 1_555 1_555
H13V C8 1_555 1_555
H1V O5 1_555 1_555
O6I Ba1 1_555 1_555
H2I O6I 1_555 1_555
H3I O6I 1_555 1_555
O7Q Ba1 1_555 1_555
H4Q O7Q 1_555 1_555
H5Q O7Q 1_555 1_555
Ba1I O6 1_555 1_555
Ba1V O3V 1_555 1_555
O3Q Ba1 1_555 1_555
O4Q Ba1 1_555 1_555
O6G Ba1 1_555 1_555
O6Q Ba1 1_555 1_555
O4 C5 1_555 1_555
O1V C1V 1_555 1_555
O3V C5V 1_555 1_555
O4V Ba1V 1_555 1_555
O6I Ba1I 1_555 1_555

#END
