
#######################################################################
#
#                 Cambridge Crystallographic Data Centre
#                                CCDC 
#
#######################################################################
#
# If this CIF has been generated from an entry in the Cambridge 
# Structural Database, then it will include bibliographic, chemical, 
# crystal, experimental, refinement or atomic coordinate data resulting 
# from the CCDC's data processing and validation procedures.
#
#######################################################################

data_NORGOS
_chemical_formula_moiety         '(C10 H22 Ba1 Co1 O13)n'
_symmetry_cell_setting           rhombohedral
_symmetry_space_group_name_H-M   'R -3 m'
_symmetry_Int_Tables_number      166
_space_group_name_Hall           '-R 3 2"'
loop_
_symmetry_equiv_pos_site_id
_symmetry_equiv_pos_as_xyz
1 x,y,z
2 -y,x-y,z
3 -x+y,-x,z
4 y,x,-z
5 x-y,-y,-z
6 -x,-x+y,-z
7 2/3+x,1/3+y,1/3+z
8 2/3-y,1/3+x-y,1/3+z
9 2/3-x+y,1/3-x,1/3+z
10 2/3+y,1/3+x,1/3-z
11 2/3+x-y,1/3-y,1/3-z
12 2/3-x,1/3-x+y,1/3-z
13 1/3+x,2/3+y,2/3+z
14 1/3-y,2/3+x-y,2/3+z
15 1/3-x+y,2/3-x,2/3+z
16 1/3+y,2/3+x,2/3-z
17 1/3+x-y,2/3-y,2/3-z
18 1/3-x,2/3-x+y,2/3-z
19 -x,-y,-z
20 y,-x+y,-z
21 x-y,x,-z
22 -y,-x,z
23 -x+y,y,z
24 x,x-y,z
25 1/3-x,2/3-y,2/3-z
26 1/3+y,2/3-x+y,2/3-z
27 1/3+x-y,2/3+x,2/3-z
28 1/3-y,2/3-x,2/3+z
29 1/3-x+y,2/3+y,2/3+z
30 1/3+x,2/3+x-y,2/3+z
31 2/3-x,1/3-y,1/3-z
32 2/3+y,1/3-x+y,1/3-z
33 2/3+x-y,1/3+x,1/3-z
34 2/3-y,1/3-x,1/3+z
35 2/3-x+y,1/3+y,1/3+z
36 2/3+x,1/3+x-y,1/3+z
_cell_length_a                   27.7387(18)
_cell_length_b                   27.7387(18)
_cell_length_c                   12.6204(17)
_cell_angle_alpha                90
_cell_angle_beta                 90
_cell_angle_gamma                120
_cell_volume                     8409.61
loop_
_atom_site_label
_atom_site_type_symbol
_atom_site_fract_x
_atom_site_fract_y
_atom_site_fract_z
Ba1 Ba 0.372677(11) 0.3333 0.3333
Co1 Co 0.41222(3) 0.206111(17) 0.47447(6)
O1 O 0.34638(13) 0.29243(13) 0.5444(3)
O2 O 0.39473(13) 0.44423(13) 0.3175(3)
O3 O 0.42189(15) 0.26158(14) 0.5866(3)
O4 O 0.42596(14) 0.28772(13) 0.7536(3)
O5 O 0.42202(14) 0.26284(13) 0.3616(2)
O6 O 0.3268(2) 0.16338(10) 0.4561(4)
C1 C 0.4723(2) 0.23613(11) 0.7116(5)
C2 C 0.43656(17) 0.26436(16) 0.6834(3)
C3 C 0.4879(3) 0.24396(15) 0.8284(5)
H1 H 0.5165 0.2828 0.8412
C4 C 0.5250(3) 0.26248(14) 0.6424(6)
H2 H 0.5499 0.2490 0.6656
C5 C 0.42665(17) 0.25859(16) 0.2624(3)
O7 O 0.40589(15) 0.27547(14) 0.1960(2)
C6 C 0.4594(2) 0.22970(12) 0.2255(5)
C7 C 0.4669(3) 0.23345(13) 0.1048(5)
C8 C 0.5171(3) 0.25855(14) 0.2793(6)
H3 H 0.5366 0.2984 0.2625
H4 H 0.3167(19) 0.264(2) 0.553(5)
H5 H 0.368(2) 0.282(3) 0.562(5)
H6 H 0.372(2) 0.450(3) 0.284(5)
H7 H 0.393(3) 0.454(3) 0.377(3)
H8 H 0.307(5) 0.131(2) 0.444(11)
O3W O 0.42189(15) 0.16031(21) 0.5866(3)
O4W O 0.42596(14) 0.13824(19) 0.7536(3)
C2W C 0.43656(17) 0.17220(23) 0.6834(3)
H1W H 0.5165 0.2337 0.8412
H2W H 0.5499 0.3009 0.6656
O5W O 0.42202(14) 0.15918(19) 0.3616(2)
C5W C 0.42665(17) 0.16806(23) 0.2624(3)
O7W O 0.40589(15) 0.13042(21) 0.1960(2)
H3W H 0.5366 0.2382 0.2625
H8W H 0.307(5) 0.176(5) 0.444(11)
O1C O 0.29243(13) 0.34638(13) 0.4556(3)
H4C H 0.264(2) 0.3167(19) 0.447(5)
H5C H 0.282(3) 0.368(2) 0.438(5)
O2P O 0.28383(18) 0.22244(13) 0.3492(3)
H6P H 0.255(4) 0.217(3) 0.383(5)
H7P H 0.272(4) 0.213(3) 0.290(3)
Ba1C Ba 0.3333 0.372677(11) 0.6667
Ba1W Ba 0.372677(11) 0.039377(11) 0.3333
O1N O 0.27938(18) 0.32029(13) 0.2111(3)
O1P O 0.38728(18) 0.37424(13) 0.1223(3)
O5P O 0.49251(19) 0.40383(13) 0.3051(2)
O7P O 0.46375(21) 0.39120(14) 0.4707(2)
loop_
_geom_bond_atom_site_label_1
_geom_bond_atom_site_label_2
_geom_bond_site_symmetry_1
_geom_bond_site_symmetry_2
Ba1 O1 1_555 1_555
Co1 O3 1_555 1_555
O1 H4 1_555 1_555
O2 Ba1 1_555 1_555
O3 C2 1_555 1_555
O4 C2 1_555 1_555
O5 Ba1 1_555 1_555
O6 Co1 1_555 1_555
C1 C2 1_555 1_555
C3 C1 1_555 1_555
H1 C3 1_555 1_555
C4 C1 1_555 1_555
H2 C4 1_555 1_555
C5 O5 1_555 1_555
O7 Ba1 1_555 1_555
C6 C5 1_555 1_555
C7 C6 1_555 1_555
C8 C6 1_555 1_555
H3 C8 1_555 1_555
H5 O1 1_555 1_555
H6 O2 1_555 1_555
H7 O2 1_555 1_555
H8 O6 1_555 1_555
O3W Co1 1_555 1_555
O4W C2W 1_555 1_555
C2W C1 1_555 1_555
H1W C3 1_555 1_555
H2W C4 1_555 1_555
O5W Co1 1_555 1_555
C5W C6 1_555 1_555
O7W C5W 1_555 1_555
H3W C8 1_555 1_555
H8W O6 1_555 1_555
O1C Ba1 1_555 1_555
H4C O1C 1_555 1_555
H5C O1C 1_555 1_555
O2P Ba1 1_555 1_555
H6P O2P 1_555 1_555
H7P O2P 1_555 1_555
Ba1C O1 1_555 1_555
Ba1W O5W 1_555 1_555
O1N Ba1 1_555 1_555
O1P Ba1 1_555 1_555
O5P Ba1 1_555 1_555
O7P Ba1 1_555 1_555
Co1 O5 1_555 1_555
C5 O7 1_555 1_555
O3W C2W 1_555 1_555
O5W C5W 1_555 1_555
O7W Ba1W 1_555 1_555
O1C Ba1C 1_555 1_555

#END
