
#######################################################################
#
#                 Cambridge Crystallographic Data Centre
#                                CCDC 
#
#######################################################################
#
# If this CIF has been generated from an entry in the Cambridge 
# Structural Database, then it will include bibliographic, chemical, 
# crystal, experimental, refinement or atomic coordinate data resulting 
# from the CCDC's data processing and validation procedures.
#
#######################################################################

data_VOCPEK
_chemical_formula_moiety         '(C54 H62 Cl8 Eu2 N72 O40 Zn19)n'
_symmetry_cell_setting           hexagonal
_symmetry_space_group_name_H-M   'P 63/m c m'
_symmetry_Int_Tables_number      193
_space_group_name_Hall           '-P 6c 2'
loop_
_symmetry_equiv_pos_site_id
_symmetry_equiv_pos_as_xyz
1 x,y,z
2 x-y,x,1/2+z
3 -y,x-y,z
4 -x,-y,1/2+z
5 -x+y,-x,z
6 y,-x+y,1/2+z
7 -y,-x,-z
8 x-y,-y,1/2-z
9 x,x-y,-z
10 y,x,1/2-z
11 -x+y,y,-z
12 -x,-x+y,1/2-z
13 -x,-y,-z
14 -x+y,-x,1/2-z
15 y,-x+y,-z
16 x,y,1/2-z
17 x-y,x,-z
18 -y,x-y,1/2-z
19 y,x,z
20 -x+y,y,1/2+z
21 -x,-x+y,z
22 -y,-x,1/2+z
23 x-y,-y,z
24 x,x-y,1/2+z
_cell_length_a                   18.0330(13)
_cell_length_b                   18.0330(13)
_cell_length_c                   24.743(3)
_cell_angle_alpha                90
_cell_angle_beta                 90
_cell_angle_gamma                120
_cell_volume                     6968.17
loop_
_atom_site_label
_atom_site_type_symbol
_atom_site_fract_x
_atom_site_fract_y
_atom_site_fract_z
C1 C 0.1562(7) 0.2059(7) 0.1112(5)
C2 C 0.0486(12) 0.2619(11) 0.2500
C3 C -0.0000 0.2622(9) 0.0310(6)
H1 H -0.0000 0.2136 0.0185
C4 C -0.0000 0.3570(10) 0.0820(7)
C5 C 0.1745(7) 0.4950(7) -0.1154(5)
C6 C 0.1664(8) 0.5884(7) -0.0685(4)
H2 H 0.1795 0.6410 -0.0538
Cl1 Cl -0.0000 0.0000 0.2500
Cl2 Cl 0.0000 0.0000 0.0000
N1 N -0.0000 0.2820(8) 0.0827(5)
N2 N 0.0000 0.3235(7) -0.0006(5)
N3 N 0.0000 0.3838(6) 0.0323(5)
N4 N -0.0000 0.3990(9) 0.1281(6)
H3 H -0.0000 0.4466 0.1260
H4 H 0.0000 0.3778 0.1593
N5 N 0.0977(5) 0.5195(5) -0.0564(3)
N6 N 0.2191(6) 0.5804(6) -0.1043(4)
N7 N 0.1006(6) 0.4556(6) -0.0871(4)
N8 N 0.2034(8) 0.4566(8) -0.1470(4)
H5 H 0.1746 0.4020 -0.1510
H6 H 0.2513 0.4862 -0.1637
O1 O 0.0797(5) 0.1648(6) 0.1238(4)
O2 O 0.0865(6) 0.2805(6) 0.2062(4)
Cl3 Cl -0.0000 0.3372(7) -0.1806(7)
Eu1 Eu 0.0000 0.0000 0.12466(5)
Zn1 Zn -0.0000 0.21110(10) 0.14348(7)
Zn2 Zn 0.0000 0.33314(9) -0.08593(8)
Zn3 Zn 0.0000 0.5000 0.0000
Zn4 Zn 0.3333 0.6667 -0.12746(9)
O3 O 0.1958(5) 0.2822(5) 0.0983(3)
C1R C 0.2059(7) 0.1562(7) 0.1112(5)
O1R O 0.1648(6) 0.0797(5) 0.1238(4)
O3R O 0.2822(5) 0.1958(5) 0.0983(3)
C2K C -0.0486(12) 0.2133(16) 0.2500
O2K O -0.0865(6) 0.1940(8) 0.2938(4)
O2O O 0.0865(6) 0.2805(6) 0.2938(4)
O2T O -0.0865(6) 0.1940(8) 0.2062(4)
C1B C -0.2059(7) -0.0497(10) 0.1112(5)
C2B C -0.2619(11) -0.2133(16) 0.2500
C3B C -0.2622(9) -0.2622(9) 0.0310(6)
H1B H -0.2136 -0.2136 0.0185
C4B C -0.3570(10) -0.3570(10) 0.0820(7)
C5B C -0.4950(7) -0.3205(10) -0.1154(5)
C6B C -0.5884(7) -0.4220(11) -0.0685(4)
H2B H -0.6410 -0.4615 -0.0538
N1B N -0.2820(8) -0.2820(8) 0.0827(5)
N2B N -0.3235(7) -0.3235(7) -0.0006(5)
N3B N -0.3838(6) -0.3838(6) 0.0323(5)
N4B N -0.3990(9) -0.3990(9) 0.1281(6)
H3B H -0.4466 -0.4466 0.1260
H4B H -0.3778 -0.3778 0.1593
N5B N -0.5195(5) -0.4218(7) -0.0564(3)
N6B N -0.5804(6) -0.3613(8) -0.1043(4)
N7B N -0.4556(6) -0.3550(8) -0.0871(4)
N8B N -0.4566(8) -0.2532(11) -0.1470(4)
H5B H -0.4020 -0.2274 -0.1510
H6B H -0.4862 -0.2349 -0.1637
O1B O -0.1648(6) -0.0851(8) 0.1238(4)
O2B O -0.2805(6) -0.1940(8) 0.2062(4)
Cl3B Cl -0.3372(7) -0.3372(7) -0.1806(7)
Zn1B Zn -0.21110(10) -0.21110(10) 0.14348(7)
Zn2B Zn -0.33314(9) -0.33314(9) -0.08593(8)
Zn3B Zn -0.5000 -0.5000 0.0000
O3B O -0.2822(5) -0.0864(7) 0.0983(3)
C1T C -0.1562(7) 0.0497(10) 0.1112(5)
O1T O -0.0797(5) 0.0851(8) 0.1238(4)
O3T O -0.1958(5) 0.0864(7) 0.0983(3)
C2G C -0.2133(16) -0.2619(11) 0.2500
O2G O -0.1940(8) -0.2805(6) 0.2938(4)
O2Q O -0.2805(6) -0.1940(8) 0.2938(4)
O2V O -0.1940(8) -0.2805(6) 0.2062(4)
C1D C 0.0497(10) -0.1562(7) 0.1112(5)
C2D C 0.2133(16) -0.0486(12) 0.2500
C3D C 0.2622(9) 0.0000 0.0310(6)
H1D H 0.2136 -0.0000 0.0185
C4D C 0.3570(10) -0.0000 0.0820(7)
C5D C 0.3205(10) -0.1745(7) -0.1154(5)
C6D C 0.4220(11) -0.1664(8) -0.0685(4)
H2D H 0.4615 -0.1795 -0.0538
N1D N 0.2820(8) -0.0000 0.0827(5)
N2D N 0.3235(7) 0.0000 -0.0006(5)
N3D N 0.3838(6) -0.0000 0.0323(5)
N4D N 0.3990(9) 0.0000 0.1281(6)
H3D H 0.4466 0.0000 0.1260
H4D H 0.3778 0.0000 0.1593
N5D N 0.4218(7) -0.0977(5) -0.0564(3)
N6D N 0.3613(8) -0.2191(6) -0.1043(4)
N7D N 0.3550(8) -0.1006(6) -0.0871(4)
N8D N 0.2532(11) -0.2034(8) -0.1470(4)
H5D H 0.2274 -0.1746 -0.1510
H6D H 0.2349 -0.2513 -0.1637
O1D O 0.0851(8) -0.0797(5) 0.1238(4)
O2D O 0.1940(8) -0.0865(6) 0.2062(4)
Cl3D Cl 0.3372(7) 0.0000 -0.1806(7)
Zn1D Zn 0.21110(10) 0.0000 0.14348(7)
Zn2D Zn 0.33314(9) 0.0000 -0.08593(8)
Zn3D Zn 0.5000 0.0000 0.0000
O3D O 0.0864(7) -0.1958(5) 0.0983(3)
C1V C -0.0497(10) -0.2059(7) 0.1112(5)
O1V O -0.0851(8) -0.1648(6) 0.1238(4)
O3V O -0.0864(7) -0.2822(5) 0.0983(3)
C2I C 0.2619(11) 0.0486(12) 0.2500
O2I O 0.2805(6) 0.0865(6) 0.2938(4)
O2M O 0.1940(8) -0.0865(6) 0.2938(4)
O2R O 0.2805(6) 0.0865(6) 0.2062(4)
C1F C -0.2059(7) -0.1562(7) -0.1112(5)
C3F C -0.2622(9) 0.0000 -0.0310(6)
H1F H -0.2136 0.0000 -0.0185
C4F C -0.3570(10) 0.0000 -0.0820(7)
C5F C -0.4950(7) -0.1745(7) 0.1154(5)
C6F C -0.5884(7) -0.1664(8) 0.0685(4)
H2F H -0.6410 -0.1795 0.0538
N1F N -0.2820(8) 0.0000 -0.0827(5)
N2F N -0.3235(7) 0.0000 0.0006(5)
N3F N -0.3838(6) 0.0000 -0.0323(5)
N4F N -0.3990(9) 0.0000 -0.1281(6)
H3F H -0.4466 0.0000 -0.1260
H4F H -0.3778 0.0000 -0.1593
N5F N -0.5195(5) -0.0977(5) 0.0564(3)
N6F N -0.5804(6) -0.2191(6) 0.1043(4)
N7F N -0.4556(6) -0.1006(6) 0.0871(4)
N8F N -0.4566(8) -0.2034(8) 0.1470(4)
H5F H -0.4020 -0.1746 0.1510
H6F H -0.4862 -0.2513 0.1637
O1F O -0.1648(6) -0.0797(5) -0.1238(4)
Cl3F Cl -0.3372(7) -0.0000 0.1806(7)
Eu1F Eu 0.0000 0.0000 -0.12466(5)
Zn1F Zn -0.21110(10) 0.0000 -0.14348(7)
Zn2F Zn -0.33314(9) 0.0000 0.08593(8)
O3F O -0.2822(5) -0.1958(5) -0.0983(3)
C1L C -0.1562(7) -0.2059(7) -0.1112(5)
O1L O -0.0797(5) -0.1648(6) -0.1238(4)
O3L O -0.1958(5) -0.2822(5) -0.0983(3)
C1H C 0.1562(7) -0.0497(10) -0.1112(5)
C3H C 0.0000 -0.2622(9) -0.0310(6)
H1H H 0.0000 -0.2136 -0.0185
C4H C 0.0000 -0.3570(10) -0.0820(7)
C5H C 0.1745(7) -0.3205(10) 0.1154(5)
C6H C 0.1664(8) -0.4220(11) 0.0685(4)
H2H H 0.1795 -0.4615 0.0538
N1H N 0.0000 -0.2820(8) -0.0827(5)
N2H N -0.0000 -0.3235(7) 0.0006(5)
N3H N -0.0000 -0.3838(6) -0.0323(5)
N4H N 0.0000 -0.3990(9) -0.1281(6)
H3H H 0.0000 -0.4466 -0.1260
H4H H -0.0000 -0.3778 -0.1593
N5H N 0.0977(5) -0.4218(7) 0.0564(3)
N6H N 0.2191(6) -0.3613(8) 0.1043(4)
N7H N 0.1006(6) -0.3550(8) 0.0871(4)
N8H N 0.2034(8) -0.2532(11) 0.1470(4)
H5H H 0.1746 -0.2274 0.1510
H6H H 0.2513 -0.2349 0.1637
O1H O 0.0797(5) -0.0851(8) -0.1238(4)
Cl3H Cl 0.0000 -0.3372(7) 0.1806(7)
Zn1H Zn 0.0000 -0.21110(10) -0.14348(7)
Zn2H Zn -0.0000 -0.33314(9) 0.08593(8)
O3H O 0.1958(5) -0.0864(7) -0.0983(3)
C1N C 0.2059(7) 0.0497(10) -0.1112(5)
O1N O 0.1648(6) 0.0851(8) -0.1238(4)
O3N O 0.2822(5) 0.0864(7) -0.0983(3)
C1J C 0.0497(10) 0.2059(7) -0.1112(5)
C3J C 0.2622(9) 0.2622(9) -0.0310(6)
H1J H 0.2136 0.2136 -0.0185
C4J C 0.3570(10) 0.3570(10) -0.0820(7)
C5J C 0.3205(10) 0.4950(7) 0.1154(5)
C6J C 0.4220(11) 0.5884(7) 0.0685(4)
H2J H 0.4615 0.6410 0.0538
N1J N 0.2820(8) 0.2820(8) -0.0827(5)
N2J N 0.3235(7) 0.3235(7) 0.0006(5)
N3J N 0.3838(6) 0.3838(6) -0.0323(5)
N4J N 0.3990(9) 0.3990(9) -0.1281(6)
H3J H 0.4466 0.4466 -0.1260
H4J H 0.3778 0.3778 -0.1593
N5J N 0.4218(7) 0.5195(5) 0.0564(3)
N6J N 0.3613(8) 0.5804(6) 0.1043(4)
N7J N 0.3550(8) 0.4556(6) 0.0871(4)
N8J N 0.2532(11) 0.4566(8) 0.1470(4)
H5J H 0.2274 0.4020 0.1510
H6J H 0.2349 0.4862 0.1637
O1J O 0.0851(8) 0.1648(6) -0.1238(4)
Cl3J Cl 0.3372(7) 0.3372(7) 0.1806(7)
Zn1J Zn 0.21110(10) 0.21110(10) -0.14348(7)
Zn2J Zn 0.33314(9) 0.33314(9) 0.08593(8)
Zn4F Zn 0.3333 0.6667 0.12746(9)
O3J O 0.0864(7) 0.2822(5) -0.0983(3)
C1P C -0.0497(10) 0.1562(7) -0.1112(5)
O1P O -0.0851(8) 0.0797(5) -0.1238(4)
O3P O -0.0864(7) 0.1958(5) -0.0983(3)
C5L C -0.1745(7) -0.4950(7) 0.1154(5)
C6L C -0.1664(8) -0.5884(7) 0.0685(4)
H2L H -0.1795 -0.6410 0.0538
N5L N -0.0977(5) -0.5195(5) 0.0564(3)
N6L N -0.2191(6) -0.5804(6) 0.1043(4)
N7L N -0.1006(6) -0.4556(6) 0.0871(4)
N8L N -0.2034(8) -0.4566(8) 0.1470(4)
H5L H -0.1746 -0.4020 0.1510
H6L H -0.2513 -0.4862 0.1637
Zn4L Zn -0.3333 -0.6667 0.12746(9)
C5N C 0.4950(7) 0.3205(10) 0.1154(5)
C6N C 0.5884(7) 0.4220(11) 0.0685(4)
H2N H 0.6410 0.4615 0.0538
N5N N 0.5195(5) 0.4218(7) 0.0564(3)
N6N N 0.5804(6) 0.3613(8) 0.1043(4)
N7N N 0.4556(6) 0.3550(8) 0.0871(4)
N8N N 0.4566(8) 0.2532(11) 0.1470(4)
H5N H 0.4020 0.2274 0.1510
H6N H 0.4862 0.2349 0.1637
Zn4L_2 Zn 0.6667 0.3333 0.12746(9)
C5P C -0.3205(10) 0.1745(7) 0.1154(5)
C6P C -0.4220(11) 0.1664(8) 0.0685(4)
H2P H -0.4615 0.1795 0.0538
N5P N -0.4218(7) 0.0977(5) 0.0564(3)
N6P N -0.3613(8) 0.2191(6) 0.1043(4)
N7P N -0.3550(8) 0.1006(6) 0.0871(4)
N8P N -0.2532(11) 0.2034(8) 0.1470(4)
H5P H -0.2274 0.1746 0.1510
H6P H -0.2349 0.2513 0.1637
C5R C 0.4950(7) 0.1745(7) -0.1154(5)
C6R C 0.5884(7) 0.1664(8) -0.0685(4)
H2R H 0.6410 0.1795 -0.0538
N5R N 0.5195(5) 0.0977(5) -0.0564(3)
N6R N 0.5804(6) 0.2191(6) -0.1043(4)
N7R N 0.4556(6) 0.1006(6) -0.0871(4)
N8R N 0.4566(8) 0.2034(8) -0.1470(4)
H5R H 0.4020 0.1746 -0.1510
H6R H 0.4862 0.2513 -0.1637
C5T C -0.1745(7) 0.3205(10) -0.1154(5)
C6T C -0.1664(8) 0.4220(11) -0.0685(4)
H2T H -0.1795 0.4615 -0.0538
N5T N -0.0977(5) 0.4218(7) -0.0564(3)
N6T N -0.2191(6) 0.3613(8) -0.1043(4)
N7T N -0.1006(6) 0.3550(8) -0.0871(4)
N8T N -0.2034(8) 0.2532(11) -0.1470(4)
H5T H -0.1746 0.2274 -0.1510
H6T H -0.2513 0.2349 -0.1637
C5V C -0.3205(10) -0.4950(7) -0.1154(5)
C6V C -0.4220(11) -0.5884(7) -0.0685(4)
H2V H -0.4615 -0.6410 -0.0538
N5V N -0.4218(7) -0.5195(5) -0.0564(3)
N6V N -0.3613(8) -0.5804(6) -0.1043(4)
N7V N -0.3550(8) -0.4556(6) -0.0871(4)
N8V N -0.2532(11) -0.4566(8) -0.1470(4)
H5V H -0.2274 -0.4020 -0.1510
H6V H -0.2349 -0.4862 -0.1637
Cl1A Cl 0.0000 0.0000 -0.2500
N3F_2 N 0.6162(6) 0.0000 -0.0323(5)
N3H_2 N 0.0000 0.6162(6) -0.0323(5)
N3J_2 N -0.6162(6) -0.6162(6) -0.0323(5)
N5F_2 N 0.4805(5) -0.0977(5) 0.0564(3)
N5H_2 N 0.0977(5) 0.5782(7) 0.0564(3)
N5J_2 N -0.5782(7) -0.4805(5) 0.0564(3)
N5L_2 N -0.0977(5) 0.4805(5) 0.0564(3)
N5N_2 N -0.4805(5) -0.5782(7) 0.0564(3)
N5P_2 N 0.5782(7) 0.0977(5) 0.0564(3)
N6B_2 N 0.4196(6) 0.6387(8) -0.1043(4)
N6D_2 N 0.3613(8) 0.7809(6) -0.1043(4)
N6F_2 N 0.4196(6) 0.7809(6) 0.1043(4)
N6H_2 N 0.2191(6) 0.6387(8) 0.1043(4)
N6L_2 N 0.7809(6) 0.4196(6) 0.1043(4)
N6N_2 N -0.4196(6) -0.6387(8) 0.1043(4)
N6P_2 N -0.3613(8) -0.7809(6) 0.1043(4)
N6P_3 N 0.6387(8) 0.2191(6) 0.1043(4)
O2F O -0.2805(6) -0.0865(6) -0.2062(4)
O2H O 0.0865(6) -0.1940(8) -0.2062(4)
O2J O 0.1940(8) 0.2805(6) -0.2062(4)
O2L O -0.0865(6) -0.2805(6) -0.2062(4)
O2N O 0.2805(6) 0.1940(8) -0.2062(4)
O2P O -0.1940(8) 0.0865(6) -0.2062(4)
Eu1G Eu -0.0000 -0.0000 0.37534(5)
Zn1G Zn -0.21110(10) -0.21110(10) 0.35652(7)
Zn1I Zn 0.21110(10) 0.0000 0.35652(7)
Zn1K Zn -0.0000 0.21110(10) 0.35652(7)
Zn3_2 Zn 0.0000 -0.5000 0.0000
Zn3B_2 Zn 0.5000 0.5000 0.0000
Zn3D_2 Zn -0.5000 0.0000 0.0000
Zn4_2 Zn -0.6667 -0.3333 -0.12746(9)
Zn4_3 Zn 0.3333 -0.3333 -0.12746(9)
Zn4F_2 Zn -0.6667 -0.3333 0.12746(9)
Zn4F_3 Zn 0.3333 -0.3333 0.12746(9)
Zn4L_3 Zn -0.3333 0.3333 0.12746(9)
Zn4R Zn -0.3333 -0.6667 -0.12746(9)
Zn4R_2 Zn -0.3333 0.3333 -0.12746(9)
Zn4R_3 Zn 0.6667 0.3333 -0.12746(9)
O4 O 0.3333 0.6667 -0.2500
O5 O -0.0000 0.2150(13) 0.7500
O6 O 0.2206(8) 0.7794(8) 1.0000
O7 O 0.502(5) 0.562(4) 0.7500
loop_
_geom_bond_atom_site_label_1
_geom_bond_atom_site_label_2
_geom_bond_site_symmetry_1
_geom_bond_site_symmetry_2
C1 O1 1_555 1_555
C2 O2 1_555 1_555
C3 H1 1_555 1_555
C4 N1 1_555 1_555
C5 N6 1_555 1_555
C6 H2 1_555 1_555
Cl1 Eu1 1_555 1_555
Cl2 Eu1 1_555 1_555
N1 C3 1_555 1_555
N2 C3 1_555 1_555
N3 C4 1_555 1_555
N4 C4 1_555 1_555
H3 N4 1_555 1_555
H4 N4 1_555 1_555
N5 C6 1_555 1_555
N6 C6 1_555 1_555
N7 C5 1_555 1_555
N8 C5 1_555 1_555
H5 N8 1_555 1_555
H6 N8 1_555 1_555
O1 Eu1 1_555 1_555
O2 Zn1 1_555 1_555
Cl3 Zn2 1_555 1_555
Eu1 O1R 1_555 1_555
Zn1 N1 1_555 1_555
Zn2 N2 1_555 1_555
Zn3 N3 1_555 1_555
Zn4 N6 1_555 1_555
O3 C1 1_555 1_555
C1R C1 1_555 1_555
O1R C1R 1_555 1_555
O3R C1R 1_555 1_555
C2K C2 1_555 1_555
O2K C2K 1_555 1_555
O2O C2 1_555 1_555
O2T Zn1 1_555 1_555
C1B O1B 1_555 1_555
C2B O2B 1_555 1_555
C3B H1B 1_555 1_555
C4B N1B 1_555 1_555
C5B N6B 1_555 1_555
C6B H2B 1_555 1_555
N1B C3B 1_555 1_555
N2B C3B 1_555 1_555
N3B C4B 1_555 1_555
N4B C4B 1_555 1_555
H3B N4B 1_555 1_555
H4B N4B 1_555 1_555
N5B C6B 1_555 1_555
N6B C6B 1_555 1_555
N7B C5B 1_555 1_555
N8B C5B 1_555 1_555
H5B N8B 1_555 1_555
H6B N8B 1_555 1_555
O1B Eu1 1_555 1_555
O2B Zn1B 1_555 1_555
Cl3B Zn2B 1_555 1_555
Zn1B N1B 1_555 1_555
Zn2B N2B 1_555 1_555
Zn3B N3B 1_555 1_555
O3B C1B 1_555 1_555
C1T C1B 1_555 1_555
O1T Eu1 1_555 1_555
O3T C1T 1_555 1_555
C2G C2B 1_555 1_555
O2G C2G 1_555 1_555
O2Q C2B 1_555 1_555
O2V Zn1B 1_555 1_555
C1D O1D 1_555 1_555
C2D O2D 1_555 1_555
C3D H1D 1_555 1_555
C4D N1D 1_555 1_555
C5D N6D 1_555 1_555
C6D H2D 1_555 1_555
N1D C3D 1_555 1_555
N2D C3D 1_555 1_555
N3D C4D 1_555 1_555
N4D C4D 1_555 1_555
H3D N4D 1_555 1_555
H4D N4D 1_555 1_555
N5D C6D 1_555 1_555
N6D C6D 1_555 1_555
N7D C5D 1_555 1_555
N8D C5D 1_555 1_555
H5D N8D 1_555 1_555
H6D N8D 1_555 1_555
O1D Eu1 1_555 1_555
O2D Zn1D 1_555 1_555
Cl3D Zn2D 1_555 1_555
Zn1D O1R 1_555 1_555
Zn2D N2D 1_555 1_555
Zn3D N3D 1_555 1_555
O3D C1D 1_555 1_555
C1V C1D 1_555 1_555
O1V Eu1 1_555 1_555
O3V C1V 1_555 1_555
C2I C2D 1_555 1_555
O2I C2I 1_555 1_555
O2M C2D 1_555 1_555
O2R Zn1D 1_555 1_555
C1F O1F 1_555 1_555
C3F H1F 1_555 1_555
C4F N1F 1_555 1_555
C5F N6F 1_555 1_555
C6F H2F 1_555 1_555
N1F C3F 1_555 1_555
N2F C3F 1_555 1_555
N3F C4F 1_555 1_555
N4F C4F 1_555 1_555
H3F N4F 1_555 1_555
H4F N4F 1_555 1_555
N5F C6F 1_555 1_555
N6F C6F 1_555 1_555
N7F C5F 1_555 1_555
N8F C5F 1_555 1_555
H5F N8F 1_555 1_555
H6F N8F 1_555 1_555
O1F Eu1F 1_555 1_555
Cl3F Zn2F 1_555 1_555
Eu1F Cl2 1_555 1_555
Zn1F N1F 1_555 1_555
Zn2F O3B 1_555 1_555
O3F Zn2B 1_555 1_555
C1L C1F 1_555 1_555
O1L Eu1F 1_555 1_555
O3L Zn2B 1_555 1_555
C1H O1H 1_555 1_555
C3H H1H 1_555 1_555
C4H N1H 1_555 1_555
C5H N6H 1_555 1_555
C6H H2H 1_555 1_555
N1H C3H 1_555 1_555
N2H C3H 1_555 1_555
N3H C4H 1_555 1_555
N4H C4H 1_555 1_555
H3H N4H 1_555 1_555
H4H N4H 1_555 1_555
N5H C6H 1_555 1_555
N6H C6H 1_555 1_555
N7H C5H 1_555 1_555
N8H C5H 1_555 1_555
H5H N8H 1_555 1_555
H6H N8H 1_555 1_555
O1H Eu1F 1_555 1_555
Cl3H Zn2H 1_555 1_555
Zn1H O1L 1_555 1_555
Zn2H O3D 1_555 1_555
O3H Zn2D 1_555 1_555
C1N C1H 1_555 1_555
O1N Eu1F 1_555 1_555
O3N Zn2D 1_555 1_555
C1J O1J 1_555 1_555
C3J H1J 1_555 1_555
C4J N1J 1_555 1_555
C5J N6J 1_555 1_555
C6J H2J 1_555 1_555
N1J C3J 1_555 1_555
N2J C3J 1_555 1_555
N3J C4J 1_555 1_555
N4J C4J 1_555 1_555
H3J N4J 1_555 1_555
H4J N4J 1_555 1_555
N5J C6J 1_555 1_555
N6J C6J 1_555 1_555
N7J C5J 1_555 1_555
N8J C5J 1_555 1_555
H5J N8J 1_555 1_555
H6J N8J 1_555 1_555
O1J Eu1F 1_555 1_555
Cl3J Zn2J 1_555 1_555
Zn1J O1N 1_555 1_555
Zn2J O3 1_555 1_555
Zn4F N6J 1_555 1_555
O3J Zn2 1_555 1_555
C1P C1J 1_555 1_555
O1P Eu1F 1_555 1_555
O3P Zn2 1_555 1_555
C5L N6L 1_555 1_555
C6L H2L 1_555 1_555
N5L C6L 1_555 1_555
N6L C6L 1_555 1_555
N7L Zn2H 1_555 1_555
N8L C5L 1_555 1_555
H5L N8L 1_555 1_555
H6L N8L 1_555 1_555
Zn4L N6L 1_555 1_555
C5N N6N 1_555 1_555
C6N H2N 1_555 1_555
N5N C6N 1_555 1_555
N6N C6N 1_555 1_555
N7N Zn2J 1_555 1_555
N8N C5N 1_555 1_555
H5N N8N 1_555 1_555
H6N N8N 1_555 1_555
Zn4L_2 N6N 1_555 1_555
C5P N6P 1_555 1_555
C6P H2P 1_555 1_555
N5P C6P 1_555 1_555
N6P C6P 1_555 1_555
N7P Zn2F 1_555 1_555
N8P C5P 1_555 1_555
H5P N8P 1_555 1_555
H6P N8P 1_555 1_555
C5R N6R 1_555 1_555
C6R H2R 1_555 1_555
N5R Zn3D 1_555 1_555
N6R C6R 1_555 1_555
N7R Zn2D 1_555 1_555
N8R C5R 1_555 1_555
H5R N8R 1_555 1_555
H6R N8R 1_555 1_555
C5T N6T 1_555 1_555
C6T H2T 1_555 1_555
N5T Zn3 1_555 1_555
N6T C6T 1_555 1_555
N7T Zn2 1_555 1_555
N8T C5T 1_555 1_555
H5T N8T 1_555 1_555
H6T N8T 1_555 1_555
C5V N6V 1_555 1_555
C6V H2V 1_555 1_555
N5V Zn3B 1_555 1_555
N6V C6V 1_555 1_555
N7V Zn2B 1_555 1_555
N8V C5V 1_555 1_555
H5V N8V 1_555 1_555
H6V N8V 1_555 1_555
Cl1A Eu1F 1_555 1_555
N3F_2 Zn3D 1_555 1_555
N3H_2 Zn3 1_555 1_555
N3J_2 Zn3B 1_555 1_555
N5F_2 Zn3D 1_555 1_555
N5H_2 Zn3 1_555 1_555
N5J_2 Zn3B 1_555 1_555
N5L_2 Zn3 1_555 1_555
N5N_2 Zn3B 1_555 1_555
N5P_2 Zn3D 1_555 1_555
N6B_2 Zn4 1_555 1_555
N6D_2 Zn4 1_555 1_555
N6F_2 Zn4F 1_555 1_555
N6H_2 Zn4F 1_555 1_555
N6L_2 Zn4L_2 1_555 1_555
N6N_2 Zn4L 1_555 1_555
N6P_2 Zn4L 1_555 1_555
N6P_3 Zn4L_2 1_555 1_555
O2F Zn1F 1_555 1_555
O2H Zn1H 1_555 1_555
O2J Zn1J 1_555 1_555
O2L Zn1H 1_555 1_555
O2N Zn1J 1_555 1_555
O2P Zn1F 1_555 1_555
Eu1G Cl1 1_555 1_555
Zn1G O2G 1_555 1_555
Zn1I O2I 1_555 1_555
Zn1K O2K 1_555 1_555
Zn3_2 N3H 1_555 1_555
Zn3B_2 N3J 1_555 1_555
Zn3D_2 N3F 1_555 1_555
Zn4_2 N6B 1_555 1_555
Zn4_3 N6D 1_555 1_555
Zn4F_2 N6F 1_555 1_555
Zn4F_3 N6H 1_555 1_555
Zn4L_3 N6P 1_555 1_555
Zn4R N6V 1_555 1_555
Zn4R_2 N6T 1_555 1_555
Zn4R_3 N6R 1_555 1_555
N2 N3 1_555 1_555
N5 N7 1_555 1_555
N5 Zn3 1_555 1_555
N7 Zn2 1_555 1_555
O1 Zn1 1_555 1_555
Zn1 O1T 1_555 1_555
O3R Zn2J 1_555 1_555
C2K O2T 1_555 1_555
O2O Zn1K 1_555 1_555
N2B N3B 1_555 1_555
N5B N7B 1_555 1_555
N5B Zn3B 1_555 1_555
N7B Zn2B 1_555 1_555
O1B Zn1B 1_555 1_555
Zn1B O1V 1_555 1_555
C1T O1T 1_555 1_555
O3T Zn2F 1_555 1_555
C2G O2V 1_555 1_555
O2Q Zn1G 1_555 1_555
N1D Zn1D 1_555 1_555
N2D N3D 1_555 1_555
N5D N7D 1_555 1_555
N5D Zn3D 1_555 1_555
N7D Zn2D 1_555 1_555
O1D Zn1D 1_555 1_555
C1V O1V 1_555 1_555
O3V Zn2H 1_555 1_555
C2I O2R 1_555 1_555
O2M Zn1I 1_555 1_555
C1F O3F 1_555 1_555
N2F N3F 1_555 1_555
N2F Zn2F 1_555 1_555
N5F N7F 1_555 1_555
N5F Zn3D_2 1_555 1_555
N7F Zn2F 1_555 1_555
O1F Zn1F 1_555 1_555
Zn1F O1P 1_555 1_555
C1L O1L 1_555 1_555
C1L O3L 1_555 1_555
C1H O3H 1_555 1_555
N1H Zn1H 1_555 1_555
N2H N3H 1_555 1_555
N2H Zn2H 1_555 1_555
N5H N7H 1_555 1_555
N5H Zn3_2 1_555 1_555
N7H Zn2H 1_555 1_555
O1H Zn1H 1_555 1_555
C1N O1N 1_555 1_555
C1N O3N 1_555 1_555
C1J O3J 1_555 1_555
N1J Zn1J 1_555 1_555
N2J N3J 1_555 1_555
N2J Zn2J 1_555 1_555
N5J N7J 1_555 1_555
N5J Zn3B_2 1_555 1_555
N7J Zn2J 1_555 1_555
O1J Zn1J 1_555 1_555
C1P O1P 1_555 1_555
C1P O3P 1_555 1_555
C5L N7L 1_555 1_555
N5L N7L 1_555 1_555
N5L Zn3_2 1_555 1_555
C5N N7N 1_555 1_555
N5N N7N 1_555 1_555
N5N Zn3B_2 1_555 1_555
C5P N7P 1_555 1_555
N5P N7P 1_555 1_555
N5P Zn3D_2 1_555 1_555
C5R N7R 1_555 1_555
C6R N5R 1_555 1_555
N5R N7R 1_555 1_555
C5T N7T 1_555 1_555
C6T N5T 1_555 1_555
N5T N7T 1_555 1_555
C5V N7V 1_555 1_555
C6V N5V 1_555 1_555
N5V N7V 1_555 1_555

#END
