
#######################################################################
#
#                 Cambridge Crystallographic Data Centre
#                                CCDC 
#
#######################################################################
#
# If this CIF has been generated from an entry in the Cambridge 
# Structural Database, then it will include bibliographic, chemical, 
# crystal, experimental, refinement or atomic coordinate data resulting 
# from the CCDC's data processing and validation procedures.
#
#######################################################################

data_UYOFIY
_chemical_formula_moiety         '(C30 H34 N12 O35 Tb4)n'
_symmetry_cell_setting           orthorhombic
_symmetry_space_group_name_H-M   'P b c a'
_symmetry_Int_Tables_number      61
_space_group_name_Hall           '-P 2ac 2ab'
loop_
_symmetry_equiv_pos_site_id
_symmetry_equiv_pos_as_xyz
1 x,y,z
2 1/2-x,-y,1/2+z
3 -x,1/2+y,1/2-z
4 1/2+x,1/2-y,-z
5 -x,-y,-z
6 1/2+x,y,1/2-z
7 x,1/2-y,1/2+z
8 1/2-x,1/2+y,z
_cell_length_a                   13.279(3)
_cell_length_b                   13.141(3)
_cell_length_c                   32.181(7)
_cell_angle_alpha                90
_cell_angle_beta                 90
_cell_angle_gamma                90
_cell_volume                     5615.56
loop_
_atom_site_label
_atom_site_type_symbol
_atom_site_fract_x
_atom_site_fract_y
_atom_site_fract_z
_atom_site_U_iso_or_equiv
_atom_site_thermal_displace_type
Tb1 Tb 0.80733(4) 1.03333(4) 0.533878(17) 0.0221 Uani
Tb2 Tb 1.03811(4) 0.95151(4) 0.265454(17) 0.0200 Uani
O1 O 1.0294(6) 1.0239(6) 0.4586(3) 0.0323 Uani
O2 O 0.6682(6) 1.0029(7) 0.4898(3) 0.0320 Uani
O3 O 0.8618(6) 1.0258(8) 0.4636(3) 0.0397 Uani
O4 O 0.6985(5) 0.8987(6) 0.2556(3) 0.0283 Uani
O5 O 1.0223(6) 0.7759(6) 0.2742(3) 0.0297 Uani
O6 O 1.1505(6) 0.9360(7) 0.3970(3) 0.0393 Uani
O7 O 1.1281(6) 0.9183(6) 0.3298(2) 0.0277 Uani
O8 O 0.8009(6) 0.8545(7) 0.5308(3) 0.0357 Uani
O9 O 0.7851(6) 0.6878(6) 0.5347(3) 0.0313 Uani
C1 C 0.7484(8) 0.7759(8) 0.5280(3) 0.0233 Uani
O10 O 1.0257(6) 0.6096(6) 0.2613(3) 0.0323 Uani
O11 O 0.8633(6) 0.9256(6) 0.2577(3) 0.0333 Uani
C2 C 0.9823(8) 0.6951(8) 0.2598(3) 0.0217 Uani
O12 O 0.5336(7) 0.9743(8) 0.4519(3) 0.0470 Uani
N1 N 0.9506(8) 1.0072(8) 0.3289(3) 0.0327 Uani
N2 N 0.7257(7) 0.7087(7) 0.2213(3) 0.0313 Uani
H1 H 0.6664 0.7321 0.2163 0.0380 Uiso
N3 N 0.5888(7) 0.6910(7) 0.5256(3) 0.0317 Uani
N4 N 0.8514(7) 0.6013(7) 0.2243(3) 0.0310 Uani
N5 N 0.4886(8) 0.8010(8) 0.4959(3) 0.0377 Uani
H2 H 0.4348 0.8273 0.4856 0.0450 Uiso
C3 C 0.8028(8) 0.7622(9) 0.2388(4) 0.0247 Uani
N6 N 0.8482(8) 1.0533(10) 0.3787(4) 0.0467 Uani
H3 H 0.7951 1.0759 0.3909 0.0560 Uiso
C4 C 0.8803(8) 0.6933(8) 0.2411(4) 0.0223 Uani
C5 C 1.1000(8) 0.9475(8) 0.3650(4) 0.0237 Uani
C6 C 0.7885(8) 0.8686(8) 0.2520(3) 0.0213 Uani
C7 C 0.5951(9) 0.9506(10) 0.4789(4) 0.0307 Uani
C8 C 0.9342(9) 1.0224(9) 0.3976(4) 0.0313 Uani
C9 C 0.5805(9) 0.8469(9) 0.4984(4) 0.0293 Uani
C10 C 0.9424(10) 1.0248(8) 0.4438(4) 0.0290 Uani
C11 C 0.6413(9) 0.7798(9) 0.5170(4) 0.0307 Uani
C12 C 0.4964(10) 0.7087(9) 0.5122(5) 0.0393 Uani
H4 H 0.4436 0.6623 0.5140 0.0470 Uiso
C13 C 0.7566(10) 0.6154(9) 0.2130(4) 0.0363 Uani
H5 H 0.7166 0.5657 0.2008 0.0440 Uiso
C14 C 0.9974(9) 0.9941(10) 0.3664(4) 0.0300 Uani
C15 C 0.8606(11) 1.0422(12) 0.3374(5) 0.0513 Uani
H6 H 0.8119 1.0573 0.3176 0.0620 Uiso
O20 O 1.0191(7) 0.9194(9) 0.1943(3) 0.0633 Uani
H21 H 1.0179 0.9714 0.1786 0.0760 Uiso
H22 H 1.0629 0.8776 0.1856 0.0760 Uiso
O21 O 0.6623(6) 0.9978(6) 0.5786(3) 0.0360 Uani
H23 H 0.6489 0.9868 0.6041 0.0430 Uiso
H24 H 0.6128 0.9763 0.5644 0.0430 Uiso
Tb1D Tb 1.19267(4) 0.96667(4) 0.466122(17) 0.0221 Uani
Tb1C Tb 1.30733(4) 1.46667(4) 0.466122(17) 0.0221 Uani
Tb1G Tb 0.69267(4) 0.53333(4) 0.533878(17) 0.0221 Uani
Tb2D Tb 0.96189(4) 1.04849(4) 0.734546(17) 0.0200 Uani
Tb2A Tb 1.46189(4) 1.04849(4) 0.765454(17) 0.0200 Uani
Tb2B Tb 0.96189(4) 0.45151(4) 0.234546(17) 0.0200 Uani
Tb2E Tb 0.53811(4) 0.95151(4) 0.234546(17) 0.0200 Uani
Tb2F Tb 1.03811(4) 1.54849(4) 0.765454(17) 0.0200 Uani
O1D O 0.9706(6) 0.9761(6) 0.5414(3) 0.0323 Uani
O2D O 1.3318(6) 0.9971(7) 0.5102(3) 0.0320 Uani
O3D O 1.1382(6) 0.9742(8) 0.5364(3) 0.0397 Uani
O4D O 1.3015(5) 1.1013(6) 0.7444(3) 0.0283 Uani
O4A O 0.8015(5) 1.1013(6) 0.7556(3) 0.0283 Uani
O4E O 1.1985(5) 0.8987(6) 0.2444(3) 0.0283 Uani
O5D O 0.9777(6) 1.2241(6) 0.7258(3) 0.0297 Uani
O6D O 0.8495(6) 1.0640(7) 0.6030(3) 0.0393 Uani
O7D O 0.8719(6) 1.0817(6) 0.6702(2) 0.0277 Uani
O8D O 1.1991(6) 1.1455(7) 0.4692(3) 0.0357 Uani
O9D O 1.2149(6) 1.3122(6) 0.4653(3) 0.0313 Uani
O9C O 1.2851(6) 0.8122(6) 0.4653(3) 0.0313 Uani
O9G O 0.7149(6) 1.1878(6) 0.5347(3) 0.0313 Uani
C1D C 1.2516(8) 1.2241(8) 0.4720(3) 0.0233 Uani
O10D O 0.9743(6) 1.3904(6) 0.7387(3) 0.0323 Uani
O10B O 0.9743(6) 1.1096(6) 0.2387(3) 0.0323 Uani
O10F O 1.0257(6) 0.8904(6) 0.7613(3) 0.0323 Uani
O11D O 1.1367(6) 1.0744(6) 0.7423(3) 0.0333 Uani
C2D C 1.0177(8) 1.3049(8) 0.7402(3) 0.0217 Uani
O12D O 1.4664(7) 1.0257(8) 0.5481(3) 0.0470 Uani
N1D N 1.0494(8) 0.9928(8) 0.6711(3) 0.0327 Uani
N2D N 1.2743(7) 1.2913(7) 0.7787(3) 0.0313 Uani
H1D H 1.3336 1.2679 0.7837 0.0380 Uiso
N3D N 1.4112(7) 1.3090(7) 0.4744(3) 0.0317 Uani
N3C N 1.0888(7) 0.8090(7) 0.4744(3) 0.0317 Uani
N3G N 0.9112(7) 1.1910(7) 0.5256(3) 0.0317 Uani
N4D N 1.1486(7) 1.3987(7) 0.7757(3) 0.0310 Uani
N4B N 1.1486(7) 1.1013(7) 0.2757(3) 0.0310 Uani
N4F N 0.8514(7) 0.8987(7) 0.7243(3) 0.0310 Uani
N5D N 1.5114(8) 1.1990(8) 0.5041(3) 0.0377 Uani
H2D H 1.5652 1.1727 0.5144 0.0450 Uiso
C3D C 1.1972(8) 1.2378(9) 0.7612(4) 0.0247 Uani
N6D N 1.1518(8) 0.9467(10) 0.6213(4) 0.0467 Uani
H3D H 1.2049 0.9241 0.6091 0.0560 Uiso
C4D C 1.1197(8) 1.3067(8) 0.7589(4) 0.0223 Uani
C5D C 0.9000(8) 1.0525(8) 0.6350(4) 0.0237 Uani
C6D C 1.2115(8) 1.1314(8) 0.7480(3) 0.0213 Uani
C7D C 1.4049(9) 1.0494(10) 0.5211(4) 0.0307 Uani
C8D C 1.0658(9) 0.9776(9) 0.6024(4) 0.0313 Uani
C9D C 1.4195(9) 1.1531(9) 0.5016(4) 0.0293 Uani
C10D C 1.0576(10) 0.9752(8) 0.5562(4) 0.0290 Uani
C11D C 1.3587(9) 1.2202(9) 0.4830(4) 0.0307 Uani
C12D C 1.5036(10) 1.2913(9) 0.4878(5) 0.0393 Uani
H4D H 1.5564 1.3377 0.4860 0.0470 Uiso
C13D C 1.2434(10) 1.3846(9) 0.7870(4) 0.0363 Uani
H5D H 1.2834 1.4343 0.7992 0.0440 Uiso
C14D C 1.0026(9) 1.0059(10) 0.6336(4) 0.0300 Uani
C15D C 1.1394(11) 0.9578(12) 0.6626(5) 0.0513 Uani
H6D H 1.1881 0.9427 0.6824 0.0620 Uiso
O20D O 0.9809(7) 1.0806(9) 0.8057(3) 0.0633 Uani
H21D H 0.9821 1.0286 0.8214 0.0760 Uiso
H22D H 0.9371 1.1224 0.8144 0.0760 Uiso
O21D O 1.3377(6) 1.0022(6) 0.4214(3) 0.0360 Uani
H23D H 1.3511 1.0132 0.3959 0.0430 Uiso
H24D H 1.3872 1.0237 0.4356 0.0430 Uiso
O13 O 0.6628(8) 0.1116(9) 0.6519(3) 0.0577 Uani
H7 H 0.7246 0.1087 0.6587 0.0860 Uiso
H8 H 0.6281 0.0982 0.6735 0.0860 Uiso
O14 O 0.6770(10) 0.1371(10) 0.4170(4) 0.0947 Uani
H9 H 0.6651 0.1038 0.4391 0.1420 Uiso
H10 H 0.6300 0.1805 0.4140 0.1420 Uiso
O15 O 0.7639(15) 0.8341(15) 0.4202(6) 0.1490 Uani
H11 H 0.7420 0.8630 0.4420 0.2240 Uiso
H12 H 0.8031 0.8756 0.4079 0.2240 Uiso
O16 O 0.9102(17) 0.7804(15) 0.6146(6) 0.1717 Uani
H13 H 0.8963 0.8307 0.5991 0.2560 Uiso
H14 H 0.8848 0.7275 0.6036 0.2560 Uiso
O17 O 0.101(2) 0.833(2) 0.1269(9) 0.2733 Uani
H15 H 0.1609 0.8314 0.1168 0.4060 Uiso
H16 H 0.0843 0.8958 0.1308 0.4060 Uiso
O18 O 0.648(4) 0.8135(18) 0.6229(9) 0.3700 Uani
H17 H 0.6413 0.7604 0.6081 0.5540 Uiso
H18 H 0.6854 0.7980 0.6435 0.5540 Uiso
O19 O 0.535(3) 0.144(4) 0.3581(10) 0.3733 Uani
H19 H 0.4752 0.1238 0.3626 0.5610 Uiso
H20 H 0.5764 0.0989 0.3665 0.5610 Uiso
loop_
_atom_site_aniso_label
_atom_site_aniso_U_11
_atom_site_aniso_U_22
_atom_site_aniso_U_33
_atom_site_aniso_U_23
_atom_site_aniso_U_13
_atom_site_aniso_U_12
Tb1 0.0165(3) 0.0242(3) 0.0257(3) 0.0003(2) -0.0012(2) 0.0001(2)
Tb2 0.0132(3) 0.0210(3) 0.0258(3) 0.0001(2) -0.0012(2) 0.0000(2)
O1 0.022(5) 0.042(5) 0.033(5) -0.001(4) -0.002(4) 0.005(4)
O2 0.023(5) 0.043(5) 0.030(5) -0.006(4) -0.003(4) -0.011(4)
O3 0.018(5) 0.077(7) 0.024(5) 0.004(5) 0.001(4) 0.000(4)
O4 0.009(4) 0.025(4) 0.051(6) -0.004(4) -0.002(4) 0.000(3)
O5 0.015(4) 0.024(5) 0.050(6) -0.001(4) -0.012(4) 0.002(3)
O6 0.026(5) 0.062(6) 0.030(5) -0.007(4) -0.002(4) 0.009(4)
O7 0.015(4) 0.039(5) 0.029(5) 0.001(4) -0.001(3) 0.002(3)
O8 0.019(4) 0.041(5) 0.047(6) 0.000(4) -0.005(4) 0.001(4)
O9 0.023(4) 0.020(4) 0.051(6) 0.003(4) 0.000(4) -0.002(3)
C1 0.019(6) 0.023(6) 0.028(6) 0.002(5) 0.003(5) -0.011(5)
O10 0.022(5) 0.021(5) 0.054(6) -0.006(4) -0.007(4) 0.005(3)
O11 0.013(4) 0.037(5) 0.050(6) 0.001(4) -0.004(4) 0.003(4)
C2 0.016(6) 0.019(6) 0.030(7) 0.001(5) 0.002(5) -0.005(5)
O12 0.029(5) 0.058(7) 0.054(7) 0.007(5) -0.012(5) -0.003(5)
N1 0.026(6) 0.051(7) 0.021(6) 0.002(5) 0.001(4) 0.017(5)
N2 0.008(5) 0.028(6) 0.058(7) 0.006(5) -0.011(5) 0.001(4)
N3 0.015(5) 0.021(5) 0.059(8) 0.000(5) 0.002(5) -0.004(4)
N4 0.015(5) 0.024(5) 0.054(7) 0.005(5) -0.008(5) -0.007(4)
N5 0.019(6) 0.036(6) 0.058(8) -0.005(5) -0.007(5) 0.003(5)
C3 0.010(6) 0.027(6) 0.037(7) -0.003(5) -0.003(5) 0.003(4)
N6 0.025(6) 0.079(9) 0.036(7) -0.002(6) -0.003(5) 0.015(6)
C4 0.019(6) 0.013(5) 0.035(7) 0.001(5) -0.002(5) -0.002(4)
C5 0.026(6) 0.023(6) 0.022(6) 0.002(5) 0.002(5) 0.002(5)
C6 0.025(6) 0.025(6) 0.014(5) 0.002(5) -0.004(5) 0.003(5)
C7 0.026(7) 0.042(7) 0.024(7) 0.001(5) 0.002(5) 0.003(6)
C8 0.029(7) 0.028(7) 0.037(8) 0.005(5) -0.009(6) 0.005(5)
C9 0.018(6) 0.025(6) 0.045(8) -0.006(5) -0.004(5) -0.004(5)
C10 0.035(8) 0.018(6) 0.034(7) 0.000(5) -0.005(6) 0.007(5)
C11 0.024(7) 0.032(7) 0.036(7) 0.002(5) -0.007(5) 0.003(5)
C12 0.032(7) 0.017(6) 0.069(10) 0.002(6) 0.001(7) 0.003(5)
C13 0.027(7) 0.024(7) 0.058(9) -0.017(6) -0.001(6) -0.007(5)
C14 0.027(6) 0.045(7) 0.018(6) 0.001(5) -0.004(5) -0.001(6)
C15 0.032(8) 0.085(12) 0.037(8) 0.001(8) -0.010(6) 0.026(8)
O20 0.038(6) 0.109(10) 0.043(6) 0.002(6) 0.003(5) 0.038(6)
O21 0.033(5) 0.044(5) 0.031(5) -0.009(4) 0.004(4) -0.011(4)
Tb1D 0.0165 0.0242 0.0257 0.0003 -0.0012 0.0001
Tb1C 0.0165 0.0242 0.0257 0.0003 0.0012 -0.0001
Tb1G 0.0165 0.0242 0.0257 0.0003 0.0012 -0.0001
Tb2D 0.0132 0.021 0.0258 0.0001 -0.0012 0
Tb2A 0.0132 0.021 0.0258 -0.0001 0.0012 0
Tb2B 0.0132 0.021 0.0258 -0.0001 -0.0012 0
Tb2E 0.0132 0.021 0.0258 -0.0001 0.0012 0
Tb2F 0.0132 0.021 0.0258 -0.0001 -0.0012 0
O1D 0.022 0.042 0.033 -0.001 -0.002 0.005
O2D 0.023 0.043 0.03 -0.006 -0.003 -0.011
O3D 0.018 0.077 0.024 0.004 0.001 0
O4D 0.009 0.025 0.051 -0.004 -0.002 0
O4A 0.009 0.025 0.051 0.004 0.002 0
O4E 0.009 0.025 0.051 0.004 0.002 0
O5D 0.015 0.024 0.05 -0.001 -0.012 0.002
O6D 0.026 0.062 0.03 -0.007 -0.002 0.009
O7D 0.015 0.039 0.029 0.001 -0.001 0.002
O8D 0.019 0.041 0.047 0 -0.005 0.001
O9D 0.023 0.02 0.051 0.003 0 -0.002
O9C 0.023 0.02 0.051 0.003 0 0.002
O9G 0.023 0.02 0.051 0.003 0 0.002
C1D 0.019 0.023 0.028 0.002 0.003 -0.011
O10D 0.022 0.021 0.054 -0.006 -0.007 0.005
O10B 0.022 0.021 0.054 0.006 -0.007 -0.005
O10F 0.022 0.021 0.054 0.006 -0.007 -0.005
O11D 0.013 0.037 0.05 0.001 -0.004 0.003
C2D 0.016 0.019 0.03 0.001 0.002 -0.005
O12D 0.029 0.058 0.054 0.007 -0.012 -0.003
N1D 0.026 0.051 0.021 0.002 0.001 0.017
N2D 0.008 0.028 0.058 0.006 -0.011 0.001
N3D 0.015 0.021 0.059 0 0.002 -0.004
N3C 0.015 0.021 0.059 0 -0.002 0.004
N3G 0.015 0.021 0.059 0 -0.002 0.004
N4D 0.015 0.024 0.054 0.005 -0.008 -0.007
N4B 0.015 0.024 0.054 -0.005 -0.008 0.007
N4F 0.015 0.024 0.054 -0.005 -0.008 0.007
N5D 0.019 0.036 0.058 -0.005 -0.007 0.003
C3D 0.01 0.027 0.037 -0.003 -0.003 0.003
N6D 0.025 0.079 0.036 -0.002 -0.003 0.015
C4D 0.019 0.013 0.035 0.001 -0.002 -0.002
C5D 0.026 0.023 0.022 0.002 0.002 0.002
C6D 0.025 0.025 0.014 0.002 -0.004 0.003
C7D 0.026 0.042 0.024 0.001 0.002 0.003
C8D 0.029 0.028 0.037 0.005 -0.009 0.005
C9D 0.018 0.025 0.045 -0.006 -0.004 -0.004
C10D 0.035 0.018 0.034 0 -0.005 0.007
C11D 0.024 0.032 0.036 0.002 -0.007 0.003
C12D 0.032 0.017 0.069 0.002 0.001 0.003
C13D 0.027 0.024 0.058 -0.017 -0.001 -0.007
C14D 0.027 0.045 0.018 0.001 -0.004 -0.001
C15D 0.032 0.085 0.037 0.001 -0.01 0.026
O20D 0.038 0.109 0.043 0.002 0.003 0.038
O21D 0.033 0.044 0.031 -0.009 0.004 -0.011
O13 0.034(6) 0.092(9) 0.047(6) -0.006(6) 0.007(5) 0.001(6)
O14 0.101(11) 0.089(10) 0.094(10) 0.035(8) 0.047(8) 0.047(8)
O15 0.139(17) 0.144(17) 0.164(18) -0.016(14) -0.033(14) -0.007(14)
O16 0.22(2) 0.138(16) 0.157(18) 0.054(14) -0.081(17) -0.065(16)
O17 0.17(2) 0.35(4) 0.30(3) -0.14(3) 0.11(2) 0.03(2)
O18 0.83(10) 0.100(19) 0.18(3) 0.013(17) 0.02(4) 0.06(3)
O19 0.37(6) 0.56(8) 0.19(3) 0.01(4) -0.11(3) 0.04(5)
loop_
_geom_bond_atom_site_label_1
_geom_bond_atom_site_label_2
_geom_bond_site_symmetry_1
_geom_bond_site_symmetry_2
Tb1 O2 1_555 1_555
Tb2 O5 1_555 1_555
O1 C10 1_555 1_555
O2 C7 1_555 1_555
O3 Tb1 1_555 1_555
O4 C6 1_555 1_555
O5 C2 1_555 1_555
O6 C5 1_555 1_555
O7 Tb2 1_555 1_555
O8 Tb1 1_555 1_555
O9 C1 1_555 1_555
C1 O8 1_555 1_555
O10 C2 1_555 1_555
O11 Tb2 1_555 1_555
C2 C4 1_555 1_555
O12 C7 1_555 1_555
N1 Tb2 1_555 1_555
N2 H1 1_555 1_555
N3 C11 1_555 1_555
N4 C4 1_555 1_555
N5 H2 1_555 1_555
C3 N2 1_555 1_555
N6 H3 1_555 1_555
C4 C3 1_555 1_555
C5 O7 1_555 1_555
C6 O11 1_555 1_555
C7 C9 1_555 1_555
C8 N6 1_555 1_555
C9 N5 1_555 1_555
C10 O3 1_555 1_555
C11 C1 1_555 1_555
C12 N3 1_555 1_555
H4 C12 1_555 1_555
C13 N2 1_555 1_555
H5 C13 1_555 1_555
C14 N1 1_555 1_555
C15 N1 1_555 1_555
H6 C15 1_555 1_555
O13 H7 1_555 1_555
H8 O13 1_555 1_555
O14 H9 1_555 1_555
H10 O14 1_555 1_555
O15 H11 1_555 1_555
H12 O15 1_555 1_555
O16 H13 1_555 1_555
H14 O16 1_555 1_555
O17 H15 1_555 1_555
H16 O17 1_555 1_555
O18 H17 1_555 1_555
H18 O18 1_555 1_555
O19 H19 1_555 1_555
H20 O19 1_555 1_555
O20 Tb2 1_555 1_555
H21 O20 1_555 1_555
H22 O20 1_555 1_555
O21 Tb1 1_555 1_555
H23 O21 1_555 1_555
H24 O21 1_555 1_555
Tb1D O1 1_555 1_555
Tb1C O9D 1_555 1_555
Tb1G O9 1_555 1_555
Tb2D O4A 1_555 1_555
Tb2A O4D 1_555 1_555
Tb2B O10 1_555 1_555
Tb2E O4 1_555 1_555
Tb2F O10D 1_555 1_555
O1D Tb1 1_555 1_555
O2D Tb1D 1_555 1_555
O3D Tb1D 1_555 1_555
O4D C6D 1_555 1_555
O4E Tb2 1_555 1_555
O5D Tb2D 1_555 1_555
O6D Tb1 1_555 1_555
O7D Tb2D 1_555 1_555
O8D Tb1D 1_555 1_555
O9D C1D 1_555 1_555
O9C Tb1D 1_555 1_555
O9G Tb1 1_555 1_555
C1D O8D 1_555 1_555
O10D C2D 1_555 1_555
O10B Tb2 1_555 1_555
O10F Tb2D 1_555 1_555
O11D Tb2D 1_555 1_555
C2D O5D 1_555 1_555
O12D C7D 1_555 1_555
N1D Tb2D 1_555 1_555
N2D H1D 1_555 1_555
N3D Tb1C 1_555 1_555
N3C Tb1D 1_555 1_555
N3G Tb1 1_555 1_555
N4D Tb2F 1_555 1_555
N4B Tb2 1_555 1_555
N4F Tb2D 1_555 1_555
N5D H2D 1_555 1_555
C3D N2D 1_555 1_555
N6D H3D 1_555 1_555
C4D C2D 1_555 1_555
C5D O6D 1_555 1_555
C6D O11D 1_555 1_555
C7D O2D 1_555 1_555
C8D N6D 1_555 1_555
C9D N5D 1_555 1_555
C10D O1D 1_555 1_555
C11D C1D 1_555 1_555
C12D N3D 1_555 1_555
H4D C12D 1_555 1_555
C13D N2D 1_555 1_555
H5D C13D 1_555 1_555
C14D N1D 1_555 1_555
C15D N1D 1_555 1_555
H6D C15D 1_555 1_555
O20D Tb2D 1_555 1_555
H21D O20D 1_555 1_555
H22D O20D 1_555 1_555
O21D Tb1D 1_555 1_555
H23D O21D 1_555 1_555
H24D O21D 1_555 1_555
O6 Tb1D 1_555 1_555
N3 Tb1G 1_555 1_555
N4 C13 1_555 1_555
N4 Tb2B 1_555 1_555
N5 C12 1_555 1_555
C3 C6 1_555 1_555
N6 C15 1_555 1_555
C5 C14 1_555 1_555
C8 C10 1_555 1_555
C8 C14 1_555 1_555
C9 C11 1_555 1_555
O3D C10D 1_555 1_555
O7D C5D 1_555 1_555
N3D C11D 1_555 1_555
N4D C4D 1_555 1_555
N4D C13D 1_555 1_555
N5D C12D 1_555 1_555
C3D C4D 1_555 1_555
C3D C6D 1_555 1_555
N6D C15D 1_555 1_555
C5D C14D 1_555 1_555
C7D C9D 1_555 1_555
C8D C10D 1_555 1_555
C8D C14D 1_555 1_555
C9D C11D 1_555 1_555

#END
