
#######################################################################
#
#                 Cambridge Crystallographic Data Centre
#                                CCDC 
#
#######################################################################
#
# If this CIF has been generated from an entry in the Cambridge 
# Structural Database, then it will include bibliographic, chemical, 
# crystal, experimental, refinement or atomic coordinate data resulting 
# from the CCDC's data processing and validation procedures.
#
#######################################################################

data_DEPTOH
_chemical_formula_moiety         'C7 H14 Ga6 N1 O24 P9 1+'
_symmetry_cell_setting           monoclinic
_symmetry_space_group_name_H-M   'P 21/c'
_symmetry_Int_Tables_number      14
_space_group_name_Hall           '-P 2ybc'
loop_
_symmetry_equiv_pos_site_id
_symmetry_equiv_pos_as_xyz
1 x,y,z
2 -x,1/2+y,1/2-z
3 -x,-y,-z
4 x,1/2-y,1/2+z
_cell_length_a                   14.323(1)
_cell_length_b                   16.340(1)
_cell_length_c                   8.751(1)
_cell_angle_alpha                90
_cell_angle_beta                 90
_cell_angle_gamma                90
_cell_volume                     2048.06
loop_
_atom_site_label
_atom_site_type_symbol
_atom_site_fract_x
_atom_site_fract_y
_atom_site_fract_z
N1 N 0.252(1) 0.9667(8) 0.012(2)
C1 C 0.180(2) 0.965(1) 0.120(3)
C2 C 0.167(2) 0.884(1) 0.188(3)
C3 C 0.238(1) 0.903(1) -0.101(2)
C4 C 0.247(1) 0.821(7) -0.032(2)
C5 C 0.339(1) 0.952(1) 0.084(3)
C6 C 0.337(2) 0.878(1) 0.179(2)
C7 C 0.251(2) 0.827(1) 0.143(2)
H1 H 0.2522 1.0219 -0.0375
H3 H 0.1945 1.0052 0.2034
H4 H 0.1200 0.9819 0.0683
H5 H 0.1641 0.8887 0.3018
H6 H 0.1075 0.8590 0.1491
H7 H 0.2859 0.9095 -0.1831
H8 H 0.1742 0.9094 -0.1463
H9 H 0.3055 0.7944 -0.0695
H10 H 0.1919 0.7869 -0.0279
H11 H 0.3555 0.9999 0.1502
H12 H 0.3881 0.9448 0.0042
H13 H 0.3354 0.8944 0.2895
H14 H 0.3937 0.8445 0.1595
H15 H 0.2506 0.7729 0.1950
Ga1 Ga 0.13618(4) 0.03473(3) 0.57256(7)
Ga2 Ga 0.04135(4) 0.27178(4) 0.63290(7)
Ga3 Ga 0.52614(4) 0.12637(3) 1.41143(6)
Ga4 Ga 0.36622(4) 0.16095(4) 0.81415(7)
P1 P 0.1474(1) 0.15203(8) 0.8489(2)
P2 P 0.64008(9) -0.03102(8) 1.4467(2)
P3 P 0.4731(1) 0.21915(8) 1.1112(2)
P4 P -0.02926(9) 0.13215(8) 0.4150(2)
O1 O 0.4479(3) 0.1637(2) 0.9779(5)
O2 O 0.5364(3) 0.1713(2) 1.2198(4)
O3 O -0.0354(3) 0.1968(3) 0.5407(5)
O4 O 0.6305(3) 0.0624(2) 1.4402(5)
O5 O -0.0379(3) 0.3273(3) 0.7575(5)
O6 O 0.2494(3) 0.1483(3) 0.8961(5)
O7 O 0.1352(3) 0.2253(3) 0.7441(6)
O8 O 0.0884(3) 0.1586(3) 0.9918(5)
O9 O 0.1171(4) 0.0738(3) 0.7693(5)
O10 O 0.3842(3) 0.2524(2) 0.6912(5)
O11 O 0.4198(3) 0.0642(2) 1.4228(4)
O12 O 0.0626(3) 0.0863(3) 0.4234(5)
O13 O 0.2596(3) 0.0530(3) 0.5172(5)
O14 O 0.3932(3) 0.0658(2) 0.7063(4)
O15 O 0.5308(2) 0.2929(2) 1.0581(5)
O16 O 0.1129(3) -0.0772(2) 0.5662(5)
O8C O 0.0884(3) 0.3414(3) 0.4918(5)
O15C O 0.5308(2) 0.2071(2) 1.5581(5)
O11B O 0.5802(3) -0.0642(2) 1.5772(4)
O13B O 0.7404(3) -0.0530(3) 1.4828(5)
O14B O 0.6068(3) -0.0658(2) 1.2937(4)
O10C O 0.3842(3) 0.2476(2) 1.1912(5)
O5C O -0.0379(3) 0.1727(3) 0.2575(5)
O16B O -0.1129(3) 0.0772(2) 0.4338(5)
P4C P -0.02926(9) 0.36785(8) 0.9150(2)
Ga2C Ga 0.04135(4) 0.22822(4) 1.13290(7)
P3C P 0.4731(1) 0.28085(8) 0.6112(2)
P2B P 0.35992(9) 0.03102(8) 1.5533(2)
P2B_2 P 0.35992(9) 0.03102(8) 0.5533(2)
Ga3C Ga 0.52614(4) 0.37363(3) 0.91143(6)
P4B P 0.02926(9) -0.13215(8) 0.5850(2)
loop_
_geom_bond_atom_site_label_1
_geom_bond_atom_site_label_2
_geom_bond_site_symmetry_1
_geom_bond_site_symmetry_2
Ga1 O9 1_555 1_555
Ga2 O3 1_555 1_555
Ga3 O2 1_555 1_555
Ga4 O1 1_555 1_555
P1 O6 1_555 1_555
P2 O4 1_555 1_555
P3 O1 1_555 1_555
P4 O3 1_555 1_555
O2 P3 1_555 1_555
O4 Ga3 1_555 1_555
O5 Ga2 1_555 1_555
O6 Ga4 1_555 1_555
O7 Ga2 1_555 1_555
O8 P1 1_555 1_555
O9 P1 1_555 1_555
O10 Ga4 1_555 1_555
O11 Ga3 1_555 1_555
O12 Ga1 1_555 1_555
O13 Ga1 1_555 1_555
O14 Ga4 1_555 1_555
O15 P3 1_555 1_555
O16 Ga1 1_555 1_555
N1 C1 1_555 1_555
C1 C2 1_555 1_555
C2 C7 1_555 1_555
C3 N1 1_555 1_555
C4 C3 1_555 1_555
C5 N1 1_555 1_555
C6 C5 1_555 1_555
C7 C4 1_555 1_555
H1 N1 1_555 1_555
H3 C1 1_555 1_555
H4 C1 1_555 1_555
H5 C2 1_555 1_555
H6 C2 1_555 1_555
H7 C3 1_555 1_555
H8 C3 1_555 1_555
H9 C4 1_555 1_555
H10 C4 1_555 1_555
H11 C5 1_555 1_555
H12 C5 1_555 1_555
H13 C6 1_555 1_555
H14 C6 1_555 1_555
H15 C7 1_555 1_555
O8C Ga2 1_555 1_555
O15C Ga3 1_555 1_555
O11B P2 1_555 1_555
O13B P2 1_555 1_555
O14B P2 1_555 1_555
O10C P3 1_555 1_555
O5C P4 1_555 1_555
O16B P4 1_555 1_555
P4C O5 1_555 1_555
Ga2C O8 1_555 1_555
P3C O10 1_555 1_555
P2B O11 1_555 1_555
P2B_2 O13 1_555 1_555
Ga3C O15 1_555 1_555
P4B O16 1_555 1_555
P1 O7 1_555 1_555
P4 O12 1_555 1_555
O14 P2B_2 1_555 1_555
C6 C7 1_555 1_555

#END
