
#######################################################################
#
#                 Cambridge Crystallographic Data Centre
#                                CCDC 
#
#######################################################################
#
# If this CIF has been generated from an entry in the Cambridge 
# Structural Database, then it will include bibliographic, chemical, 
# crystal, experimental, refinement or atomic coordinate data resulting 
# from the CCDC's data processing and validation procedures.
#
#######################################################################

data_FIJGEK
_chemical_formula_moiety         '(C3 H13 Al7 N1 O30 P7)n'
_symmetry_cell_setting           monoclinic
_symmetry_space_group_name_H-M   'C 2/c'
_symmetry_Int_Tables_number      15
_space_group_name_Hall           '-C 2yc'
loop_
_symmetry_equiv_pos_site_id
_symmetry_equiv_pos_as_xyz
1 x,y,z
2 1/2+x,1/2+y,z
3 -x,y,1/2-z
4 1/2-x,1/2+y,1/2-z
5 -x,-y,-z
6 1/2-x,1/2-y,-z
7 x,-y,1/2+z
8 1/2+x,1/2-y,1/2+z
_cell_length_a                   24.085(1)
_cell_length_b                   14.393(1)
_cell_length_c                   8.7122(4)
_cell_angle_alpha                90
_cell_angle_beta                 94.260(4)
_cell_angle_gamma                90
_cell_volume                     3011.79
loop_
_atom_site_label
_atom_site_type_symbol
_atom_site_fract_x
_atom_site_fract_y
_atom_site_fract_z
N1 N 0.3680(2) 0.2717(3) 0.3968(7)
C1 C 0.3305(4) 0.3466(6) 0.4384(10)
C2 C 0.2887(3) 0.3702(6) 0.3146(9)
C3 C 0.3545(3) 0.4156(5) 0.5404(10)
P1 P 0.33817(3) 0.73198(6) 0.42986(11)
P2 P 0.32603(4) 0.96913(6) -0.06070(11)
P3 P 0.50000 0.49464(9) 0.75000
P4 P 0.49158(4) 1.17888(6) 0.52626(11)
Al1 Al 0.50000 1.05471(10) 0.25000
Al2 Al 0.27811(4) 0.87641(7) 0.62404(12)
Al3 Al 0.45019(4) 0.62979(7) 0.50032(13)
Al4 Al 0.40212(4) 0.88885(7) 0.24087(12)
O1 O 0.32489(10) 0.7918(2) 0.5685(3)
O2 O 0.35818(10) 0.7882(2) 0.3005(3)
O3 O 0.38148(10) 0.6611(2) 0.4929(3)
O4 O 0.28631(10) 0.6761(2) 0.3749(3)
O5 O 0.34989(10) 0.9079(2) 0.0688(3)
O6 O 0.36953(10) 1.0294(2) -0.1253(3)
O7 O 0.27915(10) 1.0304(2) -0.0019(3)
O8 O 0.29811(10) 0.9050(2) -0.1865(3)
O9 O 0.46013(12) 0.5554(2) 0.6546(4)
O10 O 0.53451(13) 0.4347(3) 0.6557(4)
O11 O 0.44435(11) 0.9905(2) 0.1644(3)
O12 O 0.46963(10) 1.1258(2) 0.3822(3)
O13 O 0.50697(11) 1.27674(15) 0.4709(3)
O14 O 0.44306(9) 1.1939(2) 0.6260(3)
O15 O 0.54188(10) 1.1284(2) 0.5979(3)
H1 H 0.434(2) 1.001(3) 0.102(5)
O9B O 0.53987(12) 0.5554(2) 0.8454(4)
O10B O 0.46549(13) 0.4347(3) 0.8443(4)
P1B P 0.66183(3) 0.73198(6) 0.07014(11)
P2B P 0.67397(4) 0.96913(6) 0.56070(11)
P4B P 0.50842(4) 1.17888(6) -0.02626(11)
Al2B Al 0.72189(4) 0.87641(7) -0.12404(12)
Al3B Al 0.54981(4) 0.62979(7) -0.00032(13)
Al4B Al 0.59788(4) 0.88885(7) 0.25913(12)
O1B O 0.67511(10) 0.7918(2) -0.0685(3)
O2B O 0.64182(10) 0.7882(2) 0.1995(3)
O3B O 0.61852(10) 0.6611(2) 0.0071(3)
O4B O 0.71369(10) 0.6761(2) 0.1251(3)
O5B O 0.65011(10) 0.9079(2) 0.4312(3)
O6B O 0.63047(10) 1.0294(2) 0.6253(3)
O7B O 0.72085(10) 1.0304(2) 0.5019(3)
O8B O 0.70189(10) 0.9050(2) 0.6865(3)
O11B O 0.55565(11) 0.9905(2) 0.3356(3)
O12B O 0.53037(10) 1.1258(2) 0.1178(3)
O13B O 0.49303(11) 1.27674(15) 0.0291(3)
O14B O 0.55694(9) 1.1939(2) -0.1260(3)
O15B O 0.45812(10) 1.1284(2) -0.0979(3)
H1B H 0.566(2) 1.001(3) 0.398(5)
Al2_2 Al 0.27811(4) 0.87641(7) -0.37596(12)
Al2B_2 Al 0.72189(4) 0.87641(7) 0.87596(12)
Al2D Al 0.72189(4) 1.12359(7) 0.37596(12)
Al2E Al 0.22189(4) 0.62359(7) 0.37596(12)
Al2F Al 0.27811(4) 1.12359(7) 0.12404(12)
Al2G Al 0.77811(4) 0.62359(7) 0.12404(12)
Al3B_2 Al 0.54981(4) 0.62979(7) 0.99968(13)
Al3D Al 0.54981(4) 0.37021(7) 0.49968(13)
Al3D_2 Al 0.54981(4) 1.37021(7) 0.49968(13)
Al3F Al 0.45019(4) 0.37021(7) 1.00032(13)
Al3F_2 Al 0.45019(4) 1.37021(7) 0.00032(13)
Al4D Al 0.59788(4) 1.11115(7) -0.24087(12)
Al4D_2 Al 0.59788(4) 1.11115(7) 0.75913(12)
Al4F Al 0.40212(4) 1.11115(7) -0.25913(12)
Al4F_2 Al 0.40212(4) 1.11115(7) 0.74087(12)
O4E O 0.21369(10) 0.8239(2) 0.6251(3)
O4G O 0.78631(10) 0.8239(2) -0.1251(3)
O6D O 0.63047(10) 0.9706(2) 0.1253(3)
O6F O 0.36953(10) 0.9706(2) 0.3747(3)
O7D O 0.72085(10) 0.9696(2) 0.0019(3)
O7F O 0.27915(10) 0.9696(2) 0.4981(3)
O8_2 O 0.29811(10) 0.9050(2) 0.8135(3)
O8B_2 O 0.70189(10) 0.9050(2) -0.3135(3)
O9B_2 O 0.53987(12) 0.5554(2) -0.1546(4)
O10D O 0.46549(13) 0.5653(3) 0.3443(4)
O10F O 0.53451(13) 0.5653(3) 0.1557(4)
O13D O 0.49303(11) 0.72326(15) 0.5291(3)
O13F O 0.50697(11) 0.72326(15) -0.0291(3)
O14D O 0.55694(9) 0.8061(2) 0.3740(3)
O14F O 0.44306(9) 0.8061(2) 0.1260(3)
O15D O 0.45812(10) 0.8716(2) 0.4021(3)
O15F O 0.54188(10) 0.8716(2) 0.0979(3)
loop_
_geom_bond_atom_site_label_1
_geom_bond_atom_site_label_2
_geom_bond_site_symmetry_1
_geom_bond_site_symmetry_2
N1 C1 1_555 1_555
C1 C2 1_555 1_555
C3 C1 1_555 1_555
P1 O1 1_555 1_555
P2 O5 1_555 1_555
P3 O9 1_555 1_555
P4 O12 1_555 1_555
Al1 O11 1_555 1_555
Al2 O1 1_555 1_555
Al3 O3 1_555 1_555
Al4 O2 1_555 1_555
O2 P1 1_555 1_555
O3 P1 1_555 1_555
O4 P1 1_555 1_555
O5 Al4 1_555 1_555
O6 P2 1_555 1_555
O7 P2 1_555 1_555
O8 P2 1_555 1_555
O9 Al3 1_555 1_555
O10 P3 1_555 1_555
O11 Al4 1_555 1_555
O12 Al1 1_555 1_555
O13 P4 1_555 1_555
O14 P4 1_555 1_555
O15 P4 1_555 1_555
H1 O11 1_555 1_555
O9B P3 1_555 1_555
O10B P3 1_555 1_555
P1B O1B 1_555 1_555
P2B O5B 1_555 1_555
P4B O12B 1_555 1_555
Al2B O1B 1_555 1_555
Al3B O3B 1_555 1_555
Al4B O2B 1_555 1_555
O2B P1B 1_555 1_555
O3B P1B 1_555 1_555
O4B P1B 1_555 1_555
O5B Al4B 1_555 1_555
O6B P2B 1_555 1_555
O7B P2B 1_555 1_555
O8B P2B 1_555 1_555
O11B Al1 1_555 1_555
O12B Al1 1_555 1_555
O13B P4B 1_555 1_555
O14B P4B 1_555 1_555
O15B P4B 1_555 1_555
H1B O11B 1_555 1_555
Al2_2 O8 1_555 1_555
Al2B_2 O8B 1_555 1_555
Al2D O7B 1_555 1_555
Al2E O4 1_555 1_555
Al2F O7 1_555 1_555
Al2G O4B 1_555 1_555
Al3B_2 O9B 1_555 1_555
Al3D O10 1_555 1_555
Al3D_2 O13 1_555 1_555
Al3F O10B 1_555 1_555
Al3F_2 O13B 1_555 1_555
Al4D O14B 1_555 1_555
Al4D_2 O15 1_555 1_555
Al4F O6 1_555 1_555
Al4F_2 O14 1_555 1_555
O4E Al2 1_555 1_555
O4G Al2B 1_555 1_555
O6D Al4B 1_555 1_555
O6F Al4 1_555 1_555
O7D Al2B 1_555 1_555
O7F Al2 1_555 1_555
O8_2 Al2 1_555 1_555
O8B_2 Al2B 1_555 1_555
O9B_2 Al3B 1_555 1_555
O10D Al3 1_555 1_555
O10F Al3B 1_555 1_555
O13D Al3 1_555 1_555
O13F Al3B 1_555 1_555
O14D Al4B 1_555 1_555
O14F Al4 1_555 1_555
O15D Al4 1_555 1_555
O15F Al4B 1_555 1_555
Al4B O11B 1_555 1_555
O6B Al4D_2 1_555 1_555
O15B Al4F 1_555 1_555

#END
