
#######################################################################
#
#                 Cambridge Crystallographic Data Centre
#                                CCDC 
#
#######################################################################
#
# If this CIF has been generated from an entry in the Cambridge 
# Structural Database, then it will include bibliographic, chemical, 
# crystal, experimental, refinement or atomic coordinate data resulting 
# from the CCDC's data processing and validation procedures.
#
#######################################################################

data_BENZUR
_chemical_formula_moiety         '(C48 H28 Ba2 N16 O6)n'
_symmetry_cell_setting           triclinic
_symmetry_space_group_name_H-M   'P -1'
_symmetry_Int_Tables_number      2
_space_group_name_Hall           '-P 1'
loop_
_symmetry_equiv_pos_site_id
_symmetry_equiv_pos_as_xyz
1 x,y,z
2 -x,-y,-z
_cell_length_a                   9.809(5)
_cell_length_b                   11.058(5)
_cell_length_c                   11.698(6)
_cell_angle_alpha                81.23(2)
_cell_angle_beta                 81.570(19)
_cell_angle_gamma                81.25(2)
_cell_volume                     1229.5
loop_
_atom_site_label
_atom_site_type_symbol
_atom_site_fract_x
_atom_site_fract_y
_atom_site_fract_z
Ba1 Ba 0.941372(15) 0.324667(13) 0.995486(11)
C1 C 0.9788(3) 0.3461(3) 0.4600(2)
C2 C 0.9859(3) 0.2452(2) 0.5493(2)
C3 C 0.9806(3) 0.2720(2) 0.6645(2)
C4 C 0.9959(3) 0.0970(2) 0.4087(2)
H1 H 0.9931 0.1620 0.3481
C5 C 0.9926(2) 0.1220(2) 0.5256(2)
C6 C 0.9970(3) 0.0204(2) 0.6151(2)
H2 H 0.9949 0.0342 0.6918
N1 N 0.9748(3) 0.2934(2) 0.7575(2)
N2 N 0.9708(3) 0.4259(3) 0.3852(2)
O1 O 0.93551(19) 0.55422(17) 0.85595(15)
H3 H 0.9837 0.5514 0.7896
H4 H 0.8553 0.5912 0.8440
O2 O 0.8708(3) 0.1017(2) 0.9810(2)
H5 H 0.8017 0.1030 0.9445
H6 H 0.8712 0.0422 1.0364
O3 O 1.1244(3) 0.1649(2) 1.1178(3)
H7 H 1.1658 0.1004 1.0901
H8 H 1.1845 0.2013 1.1397
C7 C 0.5745(3) 0.3939(3) 0.8548(2)
C8 C 0.4578(3) 0.3975(3) 0.7942(2)
C9 C 0.3247(3) 0.4189(3) 0.8585(2)
C10 C 0.4723(3) 0.3733(2) 0.6768(2)
C11 C 0.3553(3) 0.3686(3) 0.6206(2)
H9 H 0.2668 0.3822 0.6613
C12 C 0.3689(3) 0.3447(3) 0.5079(2)
H10 H 0.2897 0.3429 0.4734
C13 C 0.5021(3) 0.3227(3) 0.4428(2)
C14 C 0.6181(3) 0.3269(3) 0.4998(3)
H11 H 0.7068 0.3132 0.4593
C15 C 0.6046(3) 0.3504(3) 0.6118(3)
H12 H 0.6840 0.3514 0.6463
C16 C 0.5185(3) 0.2985(3) 0.3259(2)
C17 C 0.4041(3) 0.2902(3) 0.2686(3)
C18 C 0.6505(3) 0.2805(3) 0.2597(2)
N3 N 0.6680(3) 0.3903(3) 0.9024(3)
N4 N 0.2160(3) 0.4353(3) 0.9088(2)
N5 N 0.3103(3) 0.2852(4) 0.2225(3)
N6 N 0.7570(3) 0.2681(3) 0.2057(2)
C1A C 1.0212(3) -0.3461(3) 0.5400(2)
C2A C 1.0141(3) -0.2452(2) 0.4507(2)
C3A C 1.0194(3) -0.2720(2) 0.3355(2)
C4A C 1.0041(3) -0.0970(2) 0.5913(2)
H1A H 1.0069 -0.1620 0.6519
C5A C 1.0074(2) -0.1220(2) 0.4744(2)
C6A C 1.0030(3) -0.0204(2) 0.3849(2)
H2A H 1.0051 -0.0342 0.3082
N1A N 1.0252(3) -0.2934(2) 0.2425(2)
N2A N 1.0292(3) -0.4259(3) 0.6148(2)
Ba1A Ba 1.058628(15) -0.324667(13) 0.004514(11)
O1A O 1.06449(19) -0.55422(17) 0.14405(15)
H3A H 1.0163 -0.5514 0.2104
H4A H 1.1447 -0.5912 0.1560
O2A O 1.1292(3) -0.1017(2) 0.0190(2)
H5A H 1.1983 -0.1030 0.0555
H6A H 1.1288 -0.0422 -0.0364
O3A O 0.8756(3) -0.1649(2) -0.1178(3)
H7A H 0.8342 -0.1004 -0.0901
H8A H 0.8155 -0.2013 -0.1397
C7A C 1.4255(3) -0.3939(3) 0.1452(2)
C8A C 1.5422(3) -0.3975(3) 0.2058(2)
C9A C 1.6753(3) -0.4189(3) 0.1415(2)
C10A C 1.5277(3) -0.3733(2) 0.3232(2)
C11A C 1.6447(3) -0.3686(3) 0.3794(2)
H9A H 1.7332 -0.3822 0.3387
C12A C 1.6311(3) -0.3447(3) 0.4921(2)
H10A H 1.7103 -0.3429 0.5266
C13A C 1.4979(3) -0.3227(3) 0.5572(2)
C14A C 1.3819(3) -0.3269(3) 0.5002(3)
H11A H 1.2932 -0.3132 0.5407
C15A C 1.3954(3) -0.3504(3) 0.3882(3)
H12A H 1.3160 -0.3514 0.3537
C16A C 1.4815(3) -0.2985(3) 0.6741(2)
C17A C 1.5959(3) -0.2902(3) 0.7314(3)
C18A C 1.3495(3) -0.2805(3) 0.7403(2)
N3A N 1.3320(3) -0.3903(3) 0.0976(3)
N4A N 1.7840(3) -0.4353(3) 0.0912(2)
N5A N 1.6897(3) -0.2852(4) 0.7775(3)
N6A N 1.2430(3) -0.2681(3) 0.7943(2)
Ba1_2 Ba -0.058628(15) 0.324667(13) 0.995486(11)
Ba1_3 Ba 0.941372(15) -0.675333(13) -0.004514(11)
Ba1_4 Ba 0.941372(15) 0.324667(13) -0.004514(11)
Ba1A_2 Ba 1.058628(15) -0.324667(13) 1.004514(11)
Ba1A_3 Ba 1.058628(15) 0.675333(13) 1.004514(11)
Ba1A_4 Ba 2.058628(15) -0.324667(13) 0.004514(11)
O1_2 O 0.93551(19) -0.44578(17) -0.14405(15)
O1A_2 O 1.06449(19) 0.44578(17) 1.14405(15)
N4_2 N 1.2160(3) 0.4353(3) 0.9088(2)
N4A_2 N 0.7840(3) -0.4353(3) 0.0912(2)
N6_2 N 0.7570(3) 0.2681(3) 1.2057(2)
N6A_2 N 1.2430(3) -0.2681(3) -0.2057(2)
C19 C 0.5863(5) 0.0674(4) 0.7859(5)
C20 C 0.4699(5) 0.0596(3) 0.7293(5)
C21 C 0.3367(6) 0.0857(5) 0.7964(5)
C22 C 0.6171(4) 0.0048(3) 0.5497(5)
H13 H 0.6965 0.0085 0.5832
C23 C 0.4852(4) 0.0301(3) 0.6151(4)
C24 C 0.3685(4) 0.0243(3) 0.5584(5)
H14 H 0.2797 0.0411 0.5977
N7 N 0.6782(5) 0.0737(4) 0.8314(5)
N8 N 0.2306(6) 0.1062(6) 0.8488(5)
C19A C 0.4137(5) -0.0674(4) 0.2141(5)
C20A C 0.5301(5) -0.0596(3) 0.2707(5)
C21A C 0.6633(6) -0.0857(5) 0.2036(5)
C22A C 0.3829(4) -0.0048(3) 0.4503(5)
H13A H 0.3035 -0.0085 0.4168
C23A C 0.5148(4) -0.0301(3) 0.3849(4)
C24A C 0.6315(4) -0.0243(3) 0.4416(5)
H14A H 0.7203 -0.0411 0.4023
N7A N 0.3218(5) -0.0737(4) 0.1686(5)
N8A N 0.7694(6) -0.1062(6) 0.1512(5)
loop_
_geom_bond_atom_site_label_1
_geom_bond_atom_site_label_2
_geom_bond_site_symmetry_1
_geom_bond_site_symmetry_2
Ba1 N1 1_555 1_555
C1 C2 1_555 1_555
C2 C3 1_555 1_555
C3 N1 1_555 1_555
C4 H1 1_555 1_555
C5 C2 1_555 1_555
C6 C5 1_555 1_555
H2 C6 1_555 1_555
N2 C1 1_555 1_555
O1 Ba1 1_555 1_555
H3 O1 1_555 1_555
H4 O1 1_555 1_555
O2 Ba1 1_555 1_555
H5 O2 1_555 1_555
H6 O2 1_555 1_555
O3 Ba1 1_555 1_555
H7 O3 1_555 1_555
H8 O3 1_555 1_555
C7 C8 1_555 1_555
C8 C9 1_555 1_555
C9 N4 1_555 1_555
C10 C8 1_555 1_555
C11 C10 1_555 1_555
H9 C11 1_555 1_555
C12 C11 1_555 1_555
H10 C12 1_555 1_555
C13 C12 1_555 1_555
C14 C13 1_555 1_555
H11 C14 1_555 1_555
C15 C10 1_555 1_555
H12 C15 1_555 1_555
C16 C13 1_555 1_555
C17 C16 1_555 1_555
C18 C16 1_555 1_555
N3 Ba1 1_555 1_555
N4 Ba1_2 1_555 1_555
N5 C17 1_555 1_555
N6 C18 1_555 1_555
C19 C20 1_555 1_555
C20 C21 1_555 1_555
C21 N8 1_555 1_555
C22 H13 1_555 1_555
C23 C20 1_555 1_555
C24 C23 1_555 1_555
H14 C24 1_555 1_555
N7 C19 1_555 1_555
C1A C2A 1_555 1_555
C2A C3A 1_555 1_555
C3A N1A 1_555 1_555
C4A C6 1_555 1_555
H1A C4A 1_555 1_555
C5A C2A 1_555 1_555
C6A C4 1_555 1_555
H2A C6A 1_555 1_555
N1A Ba1A 1_555 1_555
N2A C1A 1_555 1_555
Ba1A O1A 1_555 1_555
O1A H3A 1_555 1_555
H4A O1A 1_555 1_555
O2A Ba1A 1_555 1_555
H5A O2A 1_555 1_555
H6A O2A 1_555 1_555
O3A Ba1A 1_555 1_555
H7A O3A 1_555 1_555
H8A O3A 1_555 1_555
C7A C8A 1_555 1_555
C8A C9A 1_555 1_555
C9A N4A 1_555 1_555
C10A C8A 1_555 1_555
C11A C10A 1_555 1_555
H9A C11A 1_555 1_555
C12A C11A 1_555 1_555
H10A C12A 1_555 1_555
C13A C12A 1_555 1_555
C14A C13A 1_555 1_555
H11A C14A 1_555 1_555
C15A C10A 1_555 1_555
H12A C15A 1_555 1_555
C16A C13A 1_555 1_555
C17A C16A 1_555 1_555
C18A C16A 1_555 1_555
N3A Ba1A 1_555 1_555
N4A Ba1A_4 1_555 1_555
N5A C17A 1_555 1_555
N6A C18A 1_555 1_555
Ba1_3 O1A 1_555 1_555
Ba1_4 N6 1_555 1_555
Ba1A_2 N6A 1_555 1_555
Ba1A_3 O1 1_555 1_555
O1_2 Ba1A 1_555 1_555
O1A_2 Ba1 1_555 1_555
N4_2 Ba1 1_555 1_555
N4A_2 Ba1A 1_555 1_555
N6_2 Ba1 1_555 1_555
N6A_2 Ba1A 1_555 1_555
C19A C20A 1_555 1_555
C20A C21A 1_555 1_555
C21A N8A 1_555 1_555
C22A C24 1_555 1_555
H13A C22A 1_555 1_555
C23A C20A 1_555 1_555
C24A C22 1_555 1_555
H14A C24A 1_555 1_555
N7A C19A 1_555 1_555
C4 C5 1_555 1_555
C7 N3 1_555 1_555
C14 C15 1_555 1_555
C22 C23 1_555 1_555
C4A C5A 1_555 1_555
C5A C6A 1_555 1_555
C7A N3A 1_555 1_555
C14A C15A 1_555 1_555
Ba1_3 O1_2 1_555 1_555
Ba1A_3 O1A_2 1_555 1_555
C22A C23A 1_555 1_555
C23A C24A 1_555 1_555

#END
