
#######################################################################
#
#                 Cambridge Crystallographic Data Centre
#                                CCDC 
#
#######################################################################
#
# If this CIF has been generated from an entry in the Cambridge 
# Structural Database, then it will include bibliographic, chemical, 
# crystal, experimental, refinement or atomic coordinate data resulting 
# from the CCDC's data processing and validation procedures.
#
#######################################################################

data_UTEXIB
_chemical_formula_moiety         '(C30 H18 Co3 N12)n'
_symmetry_cell_setting           tetragonal
_symmetry_space_group_name_H-M   'P 42/n c m'
_symmetry_Int_Tables_number      138
_space_group_name_Hall           '-P 4ac 2ac'
loop_
_symmetry_equiv_pos_site_id
_symmetry_equiv_pos_as_xyz
1 x,y,z
2 -x,1/2+y,1/2-z
3 1/2+x,-y,1/2-z
4 1/2-x,1/2-y,z
5 y,1/2-x,1/2+z
6 1/2-y,x,1/2+z
7 -y,-x,-z
8 1/2+y,1/2+x,-z
9 -x,-y,-z
10 x,1/2-y,1/2+z
11 1/2-x,y,1/2+z
12 1/2+x,1/2+y,-z
13 -y,1/2+x,1/2-z
14 1/2+y,-x,1/2-z
15 y,x,z
16 1/2-y,1/2-x,z
_cell_length_a                   15.4625(13)
_cell_length_b                   15.4625(13)
_cell_length_c                   20.0474(22)
_cell_angle_alpha                90
_cell_angle_beta                 90
_cell_angle_gamma                90
_cell_volume                     4793.11
loop_
_atom_site_label
_atom_site_type_symbol
_atom_site_fract_x
_atom_site_fract_y
_atom_site_fract_z
Co1 Co 0.91425(47) 0.08575(47) 0.00000
C1 C 0.940590 -0.059460 0.24809
C2 C 0.881090 -0.008840 0.282390
C3 C 0.871570 -0.018310 0.350950
C4 C 0.921540 -0.078400 0.385200
H1 H 0.846930 0.032230 0.258980
H2 H 0.915030 -0.084880 0.432060
C5 C 0.950530 -0.049580 0.176570
C6 C 0.905980 0.006460 0.137170
H3 H 0.862880 0.046010 0.151670
N1 N 0.933950 -0.004050 0.073370
C7 C 0.809500 0.034500 0.386740
C8 C 0.738350 0.005220 0.419620
H4 H 0.720600 -0.053420 0.423180
N2 N 0.697090 0.074630 0.446520
C9 C 0.812200 0.121990 0.393310
H5 H 0.855090 0.159250 0.375260
N3 N 0.742730 0.146800 0.430250
Co2 Co 0.75000 0.25000 0.50000
C2N C 0.991160 -0.118910 0.282390
C3N C 0.981690 -0.128430 0.350950
H1N H 1.032230 -0.153070 0.258980
C6N C 1.006460 -0.094020 0.137170
H3N H 1.046010 -0.137120 0.151670
N1N N 0.995950 -0.066050 0.073370
C7N C 1.034500 -0.190500 0.386740
C8N C 1.005220 -0.261650 0.419620
H4N H 0.946580 -0.279400 0.423180
N2N N 1.074630 -0.302910 0.446520
C9N C 1.121990 -0.187800 0.393310
H5N H 1.159250 -0.144910 0.375260
N3N N 1.146800 -0.257270 0.430250
Co1C Co 0.58575(47) 0.41425(47) 0.00000
C1C C 0.559410 0.559460 0.24809
C2C C 0.618910 0.508840 0.282390
C3C C 0.628430 0.518310 0.350950
C4C C 0.578460 0.578400 0.385200
H1C H 0.653070 0.467770 0.258980
H2C H 0.584970 0.584880 0.432060
C5C C 0.549470 0.549580 0.176570
C6C C 0.594020 0.493540 0.137170
H3C H 0.637120 0.453990 0.151670
N1C N 0.566050 0.504050 0.073370
C7C C 0.690500 0.465500 0.386740
C8C C 0.761650 0.494780 0.419620
H4C H 0.779400 0.553420 0.423180
N2C N 0.802910 0.425370 0.446520
C9C C 0.687800 0.378010 0.393310
H5C H 0.644910 0.340750 0.375260
N3C N 0.757270 0.353200 0.430250
C2O C 0.508840 0.618910 0.282390
C3O C 0.518310 0.628430 0.350950
H1O H 0.467770 0.653070 0.258980
C6O C 0.493540 0.594020 0.137170
H3O H 0.453990 0.637120 0.151670
N1O N 0.504050 0.566050 0.073370
C7O C 0.465500 0.690500 0.386740
C8O C 0.494780 0.761650 0.419620
H4O H 0.553420 0.779400 0.423180
N2O N 0.425370 0.802910 0.446520
C9O C 0.378010 0.687800 0.393310
H5O H 0.340750 0.644910 0.375260
N3O N 0.353200 0.757270 0.430250
Co1A Co 1.08575(47) -0.41425(47) 0.50000
Co1B Co 0.41425(47) 0.91425(47) 0.50000
Co1H Co 1.08575(47) -0.08575(47) 0.00000
Co1I Co 0.91425(47) 0.41425(47) 0.50000
Co1J Co 0.58575(47) 0.08575(47) 0.50000
Co1K Co 0.41425(47) 0.58575(47) 0.00000
N1F N 1.004050 0.066050 -0.073370
N1G N 0.495950 0.433950 -0.073370
N2I N 0.697090 0.425370 -0.053480
N2J N 0.802910 0.074630 -0.053480
N2L N 0.925370 0.197090 0.053480
N2M N 0.574630 0.302910 0.053480
N3F N 0.853200 0.257270 0.569750
N3G N 0.646800 0.242730 0.569750
Co2H Co 0.25000 0.75000 0.50000
Co2H_2 Co 1.25000 -0.25000 0.50000
loop_
_geom_bond_atom_site_label_1
_geom_bond_atom_site_label_2
_geom_bond_site_symmetry_1
_geom_bond_site_symmetry_2
Co1 N1 1_555 1_555
C1 C2 1_555 1_555
C2 C3 1_555 1_555
C3 C4 1_555 1_555
C4 H2 1_555 1_555
H1 C2 1_555 1_555
C5 C1 1_555 1_555
C6 C5 1_555 1_555
H3 C6 1_555 1_555
N1 C6 1_555 1_555
C7 C3 1_555 1_555
C8 C7 1_555 1_555
H4 C8 1_555 1_555
N2 C8 1_555 1_555
C9 C7 1_555 1_555
H5 C9 1_555 1_555
N3 N2 1_555 1_555
Co2 N3 1_555 1_555
C2N C1 1_555 1_555
C3N C4 1_555 1_555
H1N C2N 1_555 1_555
C6N C5 1_555 1_555
H3N C6N 1_555 1_555
N1N N1 1_555 1_555
C7N C3N 1_555 1_555
C8N C7N 1_555 1_555
H4N C8N 1_555 1_555
N2N C8N 1_555 1_555
C9N C7N 1_555 1_555
H5N C9N 1_555 1_555
N3N N2N 1_555 1_555
Co1C N1C 1_555 1_555
C1C C2C 1_555 1_555
C2C C3C 1_555 1_555
C3C C4C 1_555 1_555
C4C H2C 1_555 1_555
H1C C2C 1_555 1_555
C5C C1C 1_555 1_555
C6C C5C 1_555 1_555
H3C C6C 1_555 1_555
N1C C6C 1_555 1_555
C7C C3C 1_555 1_555
C8C C7C 1_555 1_555
H4C C8C 1_555 1_555
N2C C8C 1_555 1_555
C9C C7C 1_555 1_555
H5C C9C 1_555 1_555
N3C Co2 1_555 1_555
C2O C1C 1_555 1_555
C3O C4C 1_555 1_555
H1O C2O 1_555 1_555
C6O C5C 1_555 1_555
H3O C6O 1_555 1_555
N1O N1C 1_555 1_555
C7O C3O 1_555 1_555
C8O C7O 1_555 1_555
H4O C8O 1_555 1_555
N2O C8O 1_555 1_555
C9O C7O 1_555 1_555
H5O C9O 1_555 1_555
N3O N2O 1_555 1_555
Co1A N2N 1_555 1_555
Co1B N2O 1_555 1_555
Co1H N1N 1_555 1_555
Co1I N2C 1_555 1_555
Co1J N2 1_555 1_555
Co1K N1O 1_555 1_555
N1F Co1 1_555 1_555
N1G Co1C 1_555 1_555
N2I Co1C 1_555 1_555
N2J Co1 1_555 1_555
N2L Co1 1_555 1_555
N2M Co1C 1_555 1_555
N3F Co2 1_555 1_555
N3G Co2 1_555 1_555
Co2H N3O 1_555 1_555
Co2H_2 N3N 1_555 1_555
C9 N3 1_555 1_555
C2N C3N 1_555 1_555
C6N N1N 1_555 1_555
C9N N3N 1_555 1_555
N2C N3C 1_555 1_555
C9C N3C 1_555 1_555
C2O C3O 1_555 1_555
C6O N1O 1_555 1_555
C9O N3O 1_555 1_555

#END
