
#######################################################################
#
#                 Cambridge Crystallographic Data Centre
#                                CCDC 
#
#######################################################################
#
# If this CIF has been generated from an entry in the Cambridge 
# Structural Database, then it will include bibliographic, chemical, 
# crystal, experimental, refinement or atomic coordinate data resulting 
# from the CCDC's data processing and validation procedures.
#
#######################################################################

data_WONZUV
_chemical_formula_moiety         '(C32 H24 F6 N4 Si1 Zn1)n'
_symmetry_cell_setting           tetragonal
_symmetry_space_group_name_H-M   'I 4/m c m'
_symmetry_Int_Tables_number      140
_space_group_name_Hall           '-I 4 2c'
loop_
_symmetry_equiv_pos_site_id
_symmetry_equiv_pos_as_xyz
1 x,y,z
2 -y,x,z
3 y,-x,z
4 y,x,1/2-z
5 1/2+x,1/2+y,1/2+z
6 1/2-y,1/2+x,1/2+z
7 1/2+y,1/2-x,1/2+z
8 1/2+y,1/2+x,-z
9 -x,-y,z
10 -x,y,1/2-z
11 x,-y,1/2-z
12 -y,-x,1/2-z
13 1/2-x,1/2-y,1/2+z
14 1/2-x,1/2+y,-z
15 1/2+x,1/2-y,-z
16 1/2-y,1/2-x,-z
17 -x,-y,-z
18 y,-x,-z
19 -y,x,-z
20 -y,-x,1/2+z
21 1/2-x,1/2-y,1/2-z
22 1/2+y,1/2-x,1/2-z
23 1/2-y,1/2+x,1/2-z
24 1/2-y,1/2-x,z
25 x,y,-z
26 x,-y,1/2+z
27 -x,y,1/2+z
28 y,x,1/2+z
29 1/2+x,1/2+y,1/2-z
30 1/2+x,1/2-y,z
31 1/2-x,1/2+y,z
32 1/2+y,1/2+x,z
_cell_length_a                   22.0593(13)
_cell_length_b                   22.0593(13)
_cell_length_c                   15.0937(18)
_cell_angle_alpha                90
_cell_angle_beta                 90
_cell_angle_gamma                90
_cell_volume                     7344.79
loop_
_atom_site_label
_atom_site_type_symbol
_atom_site_fract_x
_atom_site_fract_y
_atom_site_fract_z
Zn1 Zn 0.0000 0.0000 0.2500
Si1 Si 0.0000 0.0000 0.0000
F1 F 0.01785(16) -0.07277(13) 0.0000
F2 F 0.0000 0.0000 0.1134(2)
N1 N 0.06787(10) 0.06787(10) 0.2500
C1 C 0.06911(16) 0.11100(15) 0.1883(2)
H1 H 0.0388 0.1103 0.1436
C2 C 0.11251(17) 0.15727(16) 0.1854(3)
H2 H 0.1113 0.1876 0.1408
C3 C 0.15731(14) 0.15731(14) 0.2500
C4 C 0.20514(14) 0.20514(14) 0.2500
C5 C 0.1909(2) 0.2632(2) 0.2295(4)
H3 H 0.1503 0.2735 0.2151
Zn1X Zn 0.0000 0.0000 -0.2500
Zn1BA Zn 0.5000 0.5000 0.2500
Zn1BA_2 Zn -0.5000 0.5000 0.2500
F1A F 0.07277(13) 0.01785(16) 0.0000
F1B F -0.07277(13) -0.01785(16) 0.0000
F1P F -0.01785(16) 0.07277(13) 0.0000
F2X F 0.0000 0.0000 -0.1134(2)
F2C F 0.0000 0.0000 0.3866(2)
N1T N 0.43213(10) 0.43213(10) 0.2500
N1A N -0.06787(10) 0.06787(10) 0.2500
N1CA N -0.43213(10) 0.43213(10) 0.2500
N1B N 0.06787(10) -0.06787(10) 0.2500
N1H N -0.06787(10) -0.06787(10) 0.2500
C1C C 0.11100(15) 0.06911(16) 0.3117(2)
C1W C 0.38900(15) 0.43089(16) 0.1883(2)
C1T C 0.43089(16) 0.38900(15) 0.3117(2)
C1A C -0.11100(15) 0.06911(16) 0.1883(2)
C1I C -0.06911(16) 0.11100(15) 0.3117(2)
C1CA C -0.43089(16) 0.38900(15) 0.1883(2)
C1U C -0.38900(15) 0.43089(16) 0.3117(2)
H1C H 0.1103 0.0388 0.3564
H1T H 0.4612 0.3897 0.3564
H1W H 0.3897 0.4612 0.1436
H1A H -0.1103 0.0388 0.1436
H1I H -0.0388 0.1103 0.3564
H1U H -0.3897 0.4612 0.3564
H1CA H -0.4612 0.3897 0.1436
C2C C 0.15727(16) 0.11251(17) 0.3146(3)
C2W C 0.34273(16) 0.38749(17) 0.1854(3)
C2T C 0.38749(17) 0.34273(16) 0.3146(3)
C2A C -0.15727(16) 0.11251(17) 0.1854(3)
C2I C -0.11251(17) 0.15727(16) 0.3146(3)
C2CA C -0.38749(17) 0.34273(16) 0.1854(3)
C2U C -0.34273(16) 0.38749(17) 0.3146(3)
H2C H 0.1876 0.1113 0.3592
H2T H 0.3887 0.3124 0.3592
H2W H 0.3124 0.3887 0.1408
H2A H -0.1876 0.1113 0.1408
H2I H -0.1113 0.1876 0.3592
H2U H -0.3124 0.3887 0.3592
H2CA H -0.3887 0.3124 0.1408
C3T C 0.34269(14) 0.34269(14) 0.2500
C3A C -0.15731(14) 0.15731(14) 0.2500
C3CA C -0.34269(14) 0.34269(14) 0.2500
C4T C 0.29486(14) 0.29486(14) 0.2500
C4A C -0.20514(14) 0.20514(14) 0.2500
C4CA C -0.29486(14) 0.29486(14) 0.2500
C5W C 0.2368(2) 0.3091(2) 0.2295(4)
C5T C 0.3091(2) 0.2368(2) 0.2705(4)
C5C C 0.2632(2) 0.1909(2) 0.2705(4)
C5A C -0.2632(2) 0.1909(2) 0.2295(4)
C5CA C -0.3091(2) 0.2368(2) 0.2295(4)
C5U C -0.2368(2) 0.3091(2) 0.2705(4)
C5I C -0.1909(2) 0.2632(2) 0.2705(4)
H3T H 0.3497 0.2265 0.2849
H3C H 0.2735 0.1503 0.2849
H3W H 0.2265 0.3497 0.2151
H3A H -0.2735 0.1503 0.2151
H3U H -0.2265 0.3497 0.2849
H3I H -0.1503 0.2735 0.2849
H3CA H -0.3497 0.2265 0.2151
loop_
_geom_bond_atom_site_label_1
_geom_bond_atom_site_label_2
_geom_bond_site_symmetry_1
_geom_bond_site_symmetry_2
Zn1 F2 1_555 1_555
Si1 F1 1_555 1_555
F2 Si1 1_555 1_555
N1 Zn1 1_555 1_555
C1 N1 1_555 1_555
H1 C1 1_555 1_555
C2 C1 1_555 1_555
H2 C2 1_555 1_555
C3 C2 1_555 1_555
C4 C3 1_555 1_555
C5 C4 1_555 1_555
H3 C5 1_555 1_555
Zn1X F2X 1_555 1_555
Zn1BA N1T 1_555 1_555
Zn1BA_2 N1CA 1_555 1_555
F1A Si1 1_555 1_555
F1B Si1 1_555 1_555
F1P Si1 1_555 1_555
F2X Si1 1_555 1_555
F2C Zn1 1_555 1_555
N1T C1W 1_555 1_555
N1A Zn1 1_555 1_555
N1CA C1CA 1_555 1_555
N1B Zn1 1_555 1_555
N1H Zn1 1_555 1_555
C1C N1 1_555 1_555
C1W H1W 1_555 1_555
C1T N1T 1_555 1_555
C1A N1A 1_555 1_555
C1I N1A 1_555 1_555
C1CA H1CA 1_555 1_555
C1U N1CA 1_555 1_555
H1C C1C 1_555 1_555
H1T C1T 1_555 1_555
H1A C1A 1_555 1_555
H1I C1I 1_555 1_555
H1U C1U 1_555 1_555
C2C C3 1_555 1_555
C2W C1W 1_555 1_555
C2T C1T 1_555 1_555
C2A C1A 1_555 1_555
C2I C1I 1_555 1_555
C2CA C1CA 1_555 1_555
C2U C1U 1_555 1_555
H2C C2C 1_555 1_555
H2T C2T 1_555 1_555
H2W C2W 1_555 1_555
H2A C2A 1_555 1_555
H2I C2I 1_555 1_555
H2U C2U 1_555 1_555
H2CA C2CA 1_555 1_555
C3T C2W 1_555 1_555
C3A C2A 1_555 1_555
C3CA C2CA 1_555 1_555
C4T C3T 1_555 1_555
C4A C3A 1_555 1_555
C4CA C3CA 1_555 1_555
C5W C5 1_555 1_555
C5T C4T 1_555 1_555
C5C C4 1_555 1_555
C5A C4A 1_555 1_555
C5CA C4CA 1_555 1_555
C5U C4CA 1_555 1_555
C5I C4A 1_555 1_555
H3T C5T 1_555 1_555
H3C C5C 1_555 1_555
H3W C5W 1_555 1_555
H3A C5A 1_555 1_555
H3U C5U 1_555 1_555
H3I C5I 1_555 1_555
H3CA C5CA 1_555 1_555
C1C C2C 1_555 1_555
C2T C3T 1_555 1_555
C2I C3A 1_555 1_555
C2U C3CA 1_555 1_555
C4T C5W 1_555 1_555
C5T C5C 1_555 1_555
C5A C5CA 1_555 1_555
C5U C5I 1_555 1_555

#END
