
#######################################################################
#
#                 Cambridge Crystallographic Data Centre
#                                CCDC 
#
#######################################################################
#
# If this CIF has been generated from an entry in the Cambridge 
# Structural Database, then it will include bibliographic, chemical, 
# crystal, experimental, refinement or atomic coordinate data resulting 
# from the CCDC's data processing and validation procedures.
#
#######################################################################

data_WONZOP
_chemical_formula_moiety         '(C25 H17 Cl3 F6 N4 Si1 Zn1)n'
_symmetry_cell_setting           tetragonal
_symmetry_space_group_name_H-M   'I 4/m c m'
_symmetry_Int_Tables_number      140
_space_group_name_Hall           '-I 4 2c'
loop_
_symmetry_equiv_pos_site_id
_symmetry_equiv_pos_as_xyz
1 x,y,z
2 -y,x,z
3 y,-x,z
4 y,x,1/2-z
5 1/2+x,1/2+y,1/2+z
6 1/2-y,1/2+x,1/2+z
7 1/2+y,1/2-x,1/2+z
8 1/2+y,1/2+x,-z
9 -x,-y,z
10 -x,y,1/2-z
11 x,-y,1/2-z
12 -y,-x,1/2-z
13 1/2-x,1/2-y,1/2+z
14 1/2-x,1/2+y,-z
15 1/2+x,1/2-y,-z
16 1/2-y,1/2-x,-z
17 -x,-y,-z
18 y,-x,-z
19 -y,x,-z
20 -y,-x,1/2+z
21 1/2-x,1/2-y,1/2-z
22 1/2+y,1/2-x,1/2-z
23 1/2-y,1/2+x,1/2-z
24 1/2-y,1/2-x,z
25 x,y,-z
26 x,-y,1/2+z
27 -x,y,1/2+z
28 y,x,1/2+z
29 1/2+x,1/2+y,1/2-z
30 1/2+x,1/2-y,z
31 1/2-x,1/2+y,z
32 1/2+y,1/2+x,z
_cell_length_a                   19.5940(3)
_cell_length_b                   19.5940(3)
_cell_length_c                   15.0666(5)
_cell_angle_alpha                90
_cell_angle_beta                 90
_cell_angle_gamma                90
_cell_volume                     5784.44
loop_
_atom_site_label
_atom_site_type_symbol
_atom_site_fract_x
_atom_site_fract_y
_atom_site_fract_z
Zn1 Zn 1.0000 1.0000 0.7500
Si1 Si 1.0000 1.0000 1.0000
F1 F 1.0000 1.0000 0.8873(4)
F2 F 1.0831(3) 0.9816(3) 1.0000
N1 N 0.9233(3) 0.9233(3) 0.7500
C1 C 0.9212(4) 0.8762(3) 0.6858(4)
H1 H 0.9545 0.8776 0.6400
C2 C 0.8721(4) 0.8255(4) 0.6839(5)
H2 H 0.8720 0.7925 0.6377
C3 C 0.8233(4) 0.8233(4) 0.7500
C4 C 0.7709(4) 0.7709(4) 0.7500
Zn1X Zn 1.0000 1.0000 1.2500
Zn1BA Zn 0.5000 0.5000 0.7500
Zn1BA_2 Zn 1.5000 0.5000 0.7500
F1X F 1.0000 1.0000 1.1127(4)
F1C F 1.0000 1.0000 0.6127(4)
F2A F 1.0184(3) 1.0831(3) 1.0000
F2B F 0.9816(3) 0.9169(3) 1.0000
F2P F 0.9169(3) 1.0184(3) 1.0000
N1T N 0.5767(3) 0.5767(3) 0.7500
N1A N 1.0767(3) 0.9233(3) 0.7500
N1CA N 1.4233(3) 0.5767(3) 0.7500
N1B N 0.9233(3) 1.0767(3) 0.7500
N1H N 1.0767(3) 1.0767(3) 0.7500
C1C C 0.8762(3) 0.9212(4) 0.8142(4)
C1T C 0.5788(4) 0.6238(3) 0.8142(4)
C1W C 0.6238(3) 0.5788(4) 0.6858(4)
C1A C 1.1238(3) 0.9212(4) 0.6858(4)
C1I C 1.0788(4) 0.8762(3) 0.8142(4)
C1U C 1.3762(3) 0.5788(4) 0.8142(4)
C1CA C 1.4212(4) 0.6238(3) 0.6858(4)
H1C H 0.8776 0.9545 0.8600
H1W H 0.6224 0.5455 0.6400
H1T H 0.5455 0.6224 0.8600
H1A H 1.1224 0.9545 0.6400
H1I H 1.0455 0.8776 0.8600
H1CA H 1.4545 0.6224 0.6400
H1U H 1.3776 0.5455 0.8600
C2C C 0.8255(4) 0.8721(4) 0.8161(5)
C2T C 0.6279(4) 0.6745(4) 0.8161(5)
C2W C 0.6745(4) 0.6279(4) 0.6839(5)
C2A C 1.1745(4) 0.8721(4) 0.6839(5)
C2I C 1.1279(4) 0.8255(4) 0.8161(5)
C2U C 1.3255(4) 0.6279(4) 0.8161(5)
C2CA C 1.3721(4) 0.6745(4) 0.6839(5)
H2C H 0.7925 0.8720 0.8623
H2W H 0.7075 0.6280 0.6377
H2T H 0.6280 0.7075 0.8623
H2A H 1.2075 0.8720 0.6377
H2I H 1.1280 0.7925 0.8623
H2CA H 1.3720 0.7075 0.6377
H2U H 1.2925 0.6280 0.8623
C3T C 0.6767(4) 0.6767(4) 0.7500
C3A C 1.1767(4) 0.8233(4) 0.7500
C3CA C 1.3233(4) 0.6767(4) 0.7500
C4T C 0.7291(4) 0.7291(4) 0.7500
C4A C 1.2291(4) 0.7709(4) 0.7500
C4CA C 1.2709(4) 0.7291(4) 0.7500
C5 C 0.9139(18) 0.2250(13) 0.5000
H3 H 0.9169 0.1741 0.5000
Cl1 Cl 0.9579(5) 0.2509(5) 0.4065(7)
Cl2 Cl 0.8360(7) 0.2414(7) 0.5000
Cl1X Cl 0.9579(5) 0.2509(5) 0.5935(7)
loop_
_geom_bond_atom_site_label_1
_geom_bond_atom_site_label_2
_geom_bond_site_symmetry_1
_geom_bond_site_symmetry_2
Zn1 F1 1_555 1_555
Si1 F1 1_555 1_555
F2 Si1 1_555 1_555
N1 Zn1 1_555 1_555
C1 N1 1_555 1_555
H1 C1 1_555 1_555
C2 C1 1_555 1_555
H2 C2 1_555 1_555
C3 C2 1_555 1_555
C4 C3 1_555 1_555
C5 H3 1_555 1_555
Cl1 C5 1_555 1_555
Cl2 C5 1_555 1_555
Zn1X F1X 1_555 1_555
Zn1BA N1T 1_555 1_555
Zn1BA_2 N1CA 1_555 1_555
F1X Si1 1_555 1_555
F1C Zn1 1_555 1_555
F2A Si1 1_555 1_555
F2B Si1 1_555 1_555
F2P Si1 1_555 1_555
N1T C1T 1_555 1_555
N1A Zn1 1_555 1_555
N1CA C1U 1_555 1_555
N1B Zn1 1_555 1_555
N1H Zn1 1_555 1_555
C1C N1 1_555 1_555
C1T H1T 1_555 1_555
C1W N1T 1_555 1_555
C1A N1A 1_555 1_555
C1I N1A 1_555 1_555
C1U H1U 1_555 1_555
C1CA N1CA 1_555 1_555
H1C C1C 1_555 1_555
H1W C1W 1_555 1_555
H1A C1A 1_555 1_555
H1I C1I 1_555 1_555
H1CA C1CA 1_555 1_555
C2C C3 1_555 1_555
C2T C1T 1_555 1_555
C2W C1W 1_555 1_555
C2A C1A 1_555 1_555
C2I C1I 1_555 1_555
C2U C1U 1_555 1_555
C2CA C1CA 1_555 1_555
H2C C2C 1_555 1_555
H2W C2W 1_555 1_555
H2T C2T 1_555 1_555
H2A C2A 1_555 1_555
H2I C2I 1_555 1_555
H2CA C2CA 1_555 1_555
H2U C2U 1_555 1_555
C3T C2T 1_555 1_555
C3A C2A 1_555 1_555
C3CA C2U 1_555 1_555
C4T C4 1_555 1_555
C4A C3A 1_555 1_555
C4CA C3CA 1_555 1_555
Cl1X C5 1_555 1_555
C1C C2C 1_555 1_555
C2W C3T 1_555 1_555
C2I C3A 1_555 1_555
C2CA C3CA 1_555 1_555
C3T C4T 1_555 1_555
C4A C4CA 1_555 1_555

#END
