
#######################################################################
#
#                 Cambridge Crystallographic Data Centre
#                                CCDC 
#
#######################################################################
#
# If this CIF has been generated from an entry in the Cambridge 
# Structural Database, then it will include bibliographic, chemical, 
# crystal, experimental, refinement or atomic coordinate data resulting 
# from the CCDC's data processing and validation procedures.
#
#######################################################################

data_NAVJIG
_chemical_formula_moiety         'C18 H15 Cd4 N5 O7'
_symmetry_cell_setting           orthorhombic
_symmetry_space_group_name_H-M   'P b a m'
_symmetry_Int_Tables_number      55
_space_group_name_Hall           '-P 2 2ab'
loop_
_symmetry_equiv_pos_site_id
_symmetry_equiv_pos_as_xyz
1 x,y,z
2 -x,-y,z
3 1/2+x,1/2-y,-z
4 1/2-x,1/2+y,-z
5 -x,-y,-z
6 x,y,-z
7 1/2-x,1/2+y,z
8 1/2+x,1/2-y,z
_cell_length_a                   14.191(4)
_cell_length_b                   17.282(5)
_cell_length_c                   11.720(3)
_cell_angle_alpha                90
_cell_angle_beta                 90
_cell_angle_gamma                90
_cell_volume                     2874.32
loop_
_atom_site_label
_atom_site_type_symbol
_atom_site_fract_x
_atom_site_fract_y
_atom_site_fract_z
Cd1 Cd 0.86384(3) 0.51683(3) 0.0000
O1 O 0.5011(4) 0.9103(3) 0.0000
O2 O 0.7768(4) 0.6272(3) 0.0000
N1 N 0.8677(4) 0.5177(3) 0.1978(6)
C1 C 0.5503(6) 0.7782(5) 0.0000
C2 C 0.6982(6) 0.5972(4) 0.0000
C3 C 0.5682(5) 0.8637(4) 0.0000
C4 C 0.6275(6) 0.7290(5) 0.0000
H1 H 0.6896 0.7496 0.0000
O3 O 0.6874(5) 0.5254(3) 0.0000
O4 O 0.6525(4) 0.8861(3) 0.0000
C5 C 0.8641(10) 0.5198(5) 0.4374(8)
C6 C 0.8932(10) 0.5802(6) 0.3742(8)
H2 H 0.9135 0.6261 0.4116
C7 C 0.8407(11) 0.4576(6) 0.2568(8)
H3 H 0.8233 0.4119 0.2167
C8 C 0.8361(11) 0.4570(6) 0.3761(8)
H4 H 0.8132 0.4125 0.4145
C9 C 0.8943(10) 0.5775(6) 0.2576(8)
H5 H 0.9158 0.6219 0.2176
C10 C 0.4455(6) 0.6695(5) 0.0000
C11 C 0.6137(6) 0.6492(5) 0.0000
C12 C 0.5231(6) 0.6198(5) 0.0000
H6 H 0.5136 0.5654 0.0000
N2 N 0.3568(7) 0.6385(6) 0.0602(16)
C13 C 0.4591(6) 0.7495(5) 0.0000
H7 H 0.4067 0.7837 0.0000
H8 H 0.3307 0.6008 0.0186
H9 H 0.3083 0.6658 0.0358
N2E N 0.3568(7) 0.6385(6) -0.0602(16)
H8E H 0.3307 0.6008 -0.0186
H9E H 0.3083 0.6658 -0.0358
N1E N 0.8677(4) 0.5177(3) 0.8022(6)
C5E C 0.8641(10) 0.5198(5) 0.5626(8)
C6E C 0.8932(10) 0.5802(6) 0.6258(8)
H2E H 0.9135 0.6261 0.5884
C7E C 0.8407(11) 0.4576(6) 0.7432(8)
H3E H 0.8233 0.4119 0.7833
C8E C 0.8361(11) 0.4570(6) 0.6239(8)
H4E H 0.8132 0.4125 0.5855
C9E C 0.8943(10) 0.5775(6) 0.7424(8)
H5E H 0.9158 0.6219 0.7824
Cd1_2 Cd 0.86384(3) 0.51683(3) 1.0000
Cd1B Cd 0.36384(3) 0.98317(3) 0.0000
Cd1C Cd 0.63616(3) 1.01683(3) 0.0000
O1B O 1.0011(4) 0.5897(3) 0.0000
O1C O 0.9989(4) 0.4103(3) 0.0000
N1E_2 N 0.8677(4) 0.5177(3) -0.1978(6)
O4C O 0.8475(4) 0.3861(3) 0.0000
loop_
_geom_bond_atom_site_label_1
_geom_bond_atom_site_label_2
_geom_bond_site_symmetry_1
_geom_bond_site_symmetry_2
Cd1 O2 1_555 1_555
O1 C3 1_555 1_555
O2 C2 1_555 1_555
N1 Cd1 1_555 1_555
C1 C3 1_555 1_555
C2 O3 1_555 1_555
C3 O4 1_555 1_555
C4 C1 1_555 1_555
H1 C4 1_555 1_555
O3 Cd1 1_555 1_555
O4 Cd1C 1_555 1_555
C5 C6 1_555 1_555
C6 H2 1_555 1_555
C7 N1 1_555 1_555
H3 C7 1_555 1_555
C8 C5 1_555 1_555
H4 C8 1_555 1_555
C9 N1 1_555 1_555
H5 C9 1_555 1_555
C10 C12 1_555 1_555
C11 C2 1_555 1_555
C12 C11 1_555 1_555
H6 C12 1_555 1_555
N2 C10 1_555 1_555
C13 C1 1_555 1_555
H7 C13 1_555 1_555
H8 N2 1_555 1_555
H9 N2 1_555 1_555
N2E C10 1_555 1_555
H8E N2 1_555 1_555
H9E N2E 1_555 1_555
N1E C7E 1_555 1_555
C5E C5 1_555 1_555
C6E C5E 1_555 1_555
H2E C6E 1_555 1_555
C7E H3E 1_555 1_555
C8E C5E 1_555 1_555
H4E C8E 1_555 1_555
C9E N1E 1_555 1_555
H5E C9E 1_555 1_555
Cd1_2 N1E 1_555 1_555
Cd1B O1 1_555 1_555
Cd1C O1 1_555 1_555
O1B Cd1 1_555 1_555
O1C Cd1 1_555 1_555
N1E_2 Cd1 1_555 1_555
O4C Cd1 1_555 1_555
C4 C11 1_555 1_555
C6 C9 1_555 1_555
C7 C8 1_555 1_555
C10 C13 1_555 1_555
N2 N2E 1_555 1_555
H8 N2E 1_555 1_555
N2E H8E 1_555 1_555
C6E C9E 1_555 1_555
C7E C8E 1_555 1_555

#END
