
#######################################################################
#
#                 Cambridge Crystallographic Data Centre
#                                CCDC 
#
#######################################################################
#
# If this CIF has been generated from an entry in the Cambridge 
# Structural Database, then it will include bibliographic, chemical, 
# crystal, experimental, refinement or atomic coordinate data resulting 
# from the CCDC's data processing and validation procedures.
#
#######################################################################

data_MUVYEJ
_chemical_formula_moiety         '(C48 H42 N10 O8 Zn2)n'
_symmetry_cell_setting           orthorhombic
_symmetry_space_group_name_H-M   'P n a 21'
_symmetry_Int_Tables_number      33
_space_group_name_Hall           'P 2c -2n'
loop_
_symmetry_equiv_pos_site_id
_symmetry_equiv_pos_as_xyz
1 x,y,z
2 -x,-y,1/2+z
3 1/2+x,1/2-y,z
4 1/2-x,1/2+y,1/2+z
_cell_length_a                   23.305(7)
_cell_length_b                   16.145(5)
_cell_length_c                   14.322(4)
_cell_angle_alpha                90
_cell_angle_beta                 90
_cell_angle_gamma                90
_cell_volume                     5388.78
loop_
_atom_site_label
_atom_site_type_symbol
_atom_site_fract_x
_atom_site_fract_y
_atom_site_fract_z
_atom_site_U_iso_or_equiv
_atom_site_thermal_displace_type
Zn1 Zn 0.31144(4) 0.05734(7) 1.04319(10) 0.0668 Uani
Zn2 Zn 0.33986(4) 0.15462(7) 0.45680(9) 0.0725 Uani
C1 C 0.1928(4) -0.0002(6) 1.0930(6) 0.0547 Uani
H1 H 0.1756 0.0461 1.0664 0.0660 Uiso
C2 C 0.2548(4) -0.0840(6) 1.1435(8) 0.0743 Uani
H2 H 0.2898 -0.1077 1.1601 0.0890 Uiso
C3 C 0.2040(4) -0.1170(7) 1.1583(8) 0.0813 Uani
H3 H 0.1969 -0.1684 1.1853 0.0970 Uiso
C4 C 0.1011(4) -0.0759(6) 1.1265(6) 0.0567 Uani
C5 C 0.0646(3) -0.0103(5) 1.1321(6) 0.0487 Uani
H4 H 0.0785 0.0436 1.1361 0.0580 Uiso
C6 C 0.0072(3) -0.0257(5) 1.1316(6) 0.0473 Uani
C7 C -0.0126(4) -0.1059(6) 1.1287(7) 0.0587 Uani
C8 C 0.0262(4) -0.1705(6) 1.1225(7) 0.0693 Uani
H5 H 0.0122 -0.2244 1.1188 0.0830 Uiso
C9 C 0.0807(4) -0.1589(6) 1.1217(7) 0.0620 Uani
H6 H 0.1060 -0.2033 1.1180 0.0740 Uiso
C10 C -0.0426(4) 0.0280(6) 1.1346(6) 0.0547 Uani
C11 C -0.0915(4) -0.0272(6) 1.1336(7) 0.0597 Uani
C12 C -0.1466(4) 0.0052(7) 1.1349(8) 0.0770 Uani
H7 H -0.1780 -0.0300 1.1295 0.0930 Uiso
C13 C -0.1550(4) 0.0879(6) 1.1440(7) 0.0637 Uani
H8 H -0.1918 0.1096 1.1498 0.0760 Uiso
C14 C -0.1066(4) 0.1401(6) 1.1446(7) 0.0613 Uani
C15 C -0.0523(4) 0.1124(6) 1.1417(6) 0.0543 Uani
H9 H -0.0217 0.1493 1.1445 0.0650 Uiso
C16 C -0.1082(5) -0.1828(7) 1.1304(10) 0.0957 Uani
H10 H -0.1404 -0.1751 1.1725 0.1150 Uiso
H11 H -0.0856 -0.2290 1.1533 0.1150 Uiso
C17 C -0.1311(6) -0.2033(7) 1.0303(13) 0.1233 Uani
H12 H -0.1576 -0.1611 1.0110 0.1850 Uiso
H13 H -0.1503 -0.2559 1.0312 0.1850 Uiso
H14 H -0.0995 -0.2055 0.9874 0.1850 Uiso
C18 C -0.0884(5) 0.2860(7) 1.2041(8) 0.0760 Uani
H15 H -0.0593 0.2760 1.2472 0.0910 Uiso
C19 C -0.1551(4) 0.2718(6) 1.0986(7) 0.0620 Uani
H16 H -0.1797 0.2480 1.0551 0.0740 Uiso
C20 C -0.1107(5) 0.3581(7) 1.1815(8) 0.0807 Uani
H17 H -0.0988 0.4083 1.2071 0.0970 Uiso
C21 C 0.2470(4) 0.1371(7) 0.3136(7) 0.0677 Uani
H18 H 0.2609 0.1825 0.2806 0.0810 Uiso
C22 C 0.1980(4) 0.1000(7) 0.2947(8) 0.0733 Uani
H19 H 0.1714 0.1130 0.2485 0.0880 Uiso
C23 C 0.2427(4) 0.0421(6) 0.4138(7) 0.0673 Uani
H20 H 0.2513 0.0075 0.4637 0.0810 Uiso
C24 C 0.1480(4) -0.0211(6) 0.3714(7) 0.0597 Uani
C25 C 0.1593(4) -0.1055(7) 0.3768(7) 0.0717 Uani
H21 H 0.1971 -0.1242 0.3757 0.0860 Uiso
C26 C 0.1147(4) -0.1621(7) 0.3839(7) 0.0727 Uani
H22 H 0.1218 -0.2185 0.3906 0.0870 Uiso
C27 C 0.0579(4) -0.1309(6) 0.3806(7) 0.0643 Uani
C28 C 0.0472(4) -0.0460(6) 0.3770(7) 0.0580 Uani
C29 C 0.0943(4) 0.0082(6) 0.3713(6) 0.0563 Uani
H23 H 0.0880 0.0650 0.3673 0.0680 Uiso
C30 C -0.0137(4) -0.0347(6) 0.3789(6) 0.0570 Uani
C31 C -0.0365(4) -0.1142(6) 0.3847(7) 0.0667 Uani
C32 C -0.0960(4) -0.1244(7) 0.3865(7) 0.0780 Uani
H24 H -0.1121 -0.1770 0.3897 0.0940 Uiso
C33 C -0.1308(4) -0.0546(6) 0.3836(7) 0.0623 Uani
H25 H -0.1705 -0.0597 0.3817 0.0750 Uiso
C34 C -0.1046(4) 0.0244(6) 0.3837(6) 0.0597 Uani
C35 C -0.0473(4) 0.0375(6) 0.3785(6) 0.0570 Uani
H26 H -0.0314 0.0902 0.3749 0.0680 Uiso
C36 C -0.0030(6) -0.2620(8) 0.3828(12) 0.1093 Uani
H27 H -0.0412 -0.2735 0.3592 0.1310 Uiso
H28 H 0.0246 -0.2886 0.3419 0.1310 Uiso
C37 C 0.0027(8) -0.2937(9) 0.4752(12) 0.1497 Uani
H29 H 0.0314 -0.2626 0.5081 0.2240 Uiso
H30 H 0.0138 -0.3509 0.4725 0.2240 Uiso
H31 H -0.0334 -0.2889 0.5072 0.2240 Uiso
C38 C -0.2006(4) 0.0999(7) 0.3869(8) 0.0693 Uani
H32 H -0.2249 0.0558 0.3735 0.0830 Uiso
C39 C -0.2154(4) 0.1749(8) 0.4046(8) 0.0817 Uani
H33 H -0.2532 0.1931 0.4084 0.0980 Uiso
C40 C -0.1228(4) 0.1750(6) 0.4091(7) 0.0640 Uani
H34 H -0.0843 0.1893 0.4142 0.0770 Uiso
C41 C 0.2651(6) 0.1538(10) 0.8930(10) 0.0923 Uani
C42 C 0.2578(7) 0.1631(10) 0.7904(10) 0.1340 Uani
H35 H 0.2246 0.1312 0.7708 0.1600 Uiso
H36 H 0.2501 0.2209 0.7764 0.1600 Uiso
C43 C 0.3069(7) 0.1366(11) 0.7377(10) 0.1367 Uani
H37 H 0.3204 0.0857 0.7661 0.1640 Uiso
H38 H 0.3367 0.1777 0.7473 0.1640 Uiso
C44 C 0.3031(6) 0.1210(17) 0.6322(10) 0.2130 Uani
N1 N 0.2481(3) -0.0098(5) 1.1000(5) 0.0580 Uani
N2 N 0.1641(3) -0.0632(4) 1.1276(5) 0.0510 Uani
N3 N -0.0722(3) -0.1062(5) 1.1299(6) 0.0673 Uani
N4 N -0.1169(3) 0.2289(5) 1.1507(6) 0.0623 Uani
N5 N -0.1529(3) 0.3514(5) 1.1172(6) 0.0657 Uani
N6 N 0.2746(3) 0.1022(5) 0.3862(6) 0.0663 Uani
N7 N 0.1956(3) 0.0360(5) 0.3612(6) 0.0647 Uani
N8 N 0.0071(4) -0.1718(5) 0.3843(6) 0.0753 Uani
N9 N -0.1421(3) 0.0978(5) 0.3918(5) 0.0620 Uani
N10 N -0.1658(3) 0.2275(5) 0.4180(6) 0.0690 Uani
O1 O 0.2793(5) 0.0877(7) 0.9254(7) 0.1410 Uani
O2 O 0.2559(5) 0.2093(9) 0.9429(11) 0.1813 Uani
O3 O 0.3410(5) 0.1593(9) 0.5878(7) 0.1703 Uani
O4 O 0.4050(4) 0.0806(7) 0.4302(9) 0.1393 Uani
O5 O 0.2596(7) 0.1511(11) 0.6014(12) 0.2357 Uani
O6 O 0.6219(4) 0.0151(7) 0.5054(10) 0.1680 Uani
O7 O 0.4609(4) 0.1826(8) 0.4298(9) 0.1530 Uani
C45 C 0.4522(7) 0.1081(10) 0.4294(13) 0.1203 Uani
C46 C 0.5043(6) 0.0578(9) 0.4626(19) 0.2010 Uani
H39 H 0.4901 0.0120 0.4998 0.2420 Uiso
H40 H 0.5226 0.0342 0.4079 0.2420 Uiso
O8 O 0.6083(9) 0.0574(14) 0.6590(15) 0.3067 Uani
C47 C 0.5483(7) 0.1000(13) 0.517(2) 0.2830 Uani
H41 H 0.5289 0.1344 0.5624 0.3390 Uiso
H42 H 0.5683 0.1371 0.4747 0.3390 Uiso
C48 C 0.5952(11) 0.0488(15) 0.5707(14) 0.2133 Uani
Zn1A Zn 0.68856(4) -0.05734(7) 0.54319(10) 0.0668 Uani
Zn1B Zn -0.18856(4) 0.44266(7) 1.04319(10) 0.0668 Uani
Zn2B Zn -0.16014(4) 0.34538(7) 0.45680(9) 0.0725 Uani
N5B N 0.3471(3) 0.1486(5) 1.1172(6) 0.0657 Uani
N10B N 0.3342(3) 0.2725(5) 0.4180(6) 0.0690 Uani
O6A O 0.3781(4) -0.0151(7) 1.0054(10) 0.1680 Uani
loop_
_atom_site_aniso_label
_atom_site_aniso_U_11
_atom_site_aniso_U_22
_atom_site_aniso_U_33
_atom_site_aniso_U_23
_atom_site_aniso_U_13
_atom_site_aniso_U_12
Zn1 0.0490(6) 0.0734(7) 0.0779(7) -0.0105(7) 0.0105(6) -0.0086(5)
Zn2 0.0463(6) 0.0831(8) 0.0882(8) -0.0004(8) -0.0085(7) -0.0034(6)
C1 0.042(5) 0.062(6) 0.060(6) 0.002(5) -0.005(4) -0.009(5)
C2 0.046(6) 0.079(7) 0.098(8) 0.015(6) 0.007(6) 0.004(5)
C3 0.051(6) 0.087(8) 0.106(9) 0.035(7) 0.019(6) 0.011(6)
C4 0.051(5) 0.069(6) 0.050(6) 0.004(5) 0.004(4) -0.009(5)
C5 0.044(5) 0.049(5) 0.053(5) 0.004(4) 0.004(4) 0.005(4)
C6 0.040(5) 0.053(5) 0.049(5) -0.001(4) 0.004(4) 0.002(4)
C7 0.046(5) 0.060(6) 0.070(7) -0.008(5) 0.006(5) -0.001(5)
C8 0.057(6) 0.068(6) 0.083(8) -0.007(6) -0.002(5) -0.002(5)
C9 0.042(5) 0.067(6) 0.077(7) -0.002(5) 0.012(5) 0.002(5)
C10 0.049(5) 0.078(6) 0.037(5) 0.009(5) -0.001(4) -0.007(5)
C11 0.043(5) 0.077(7) 0.059(6) -0.001(5) -0.005(4) -0.001(5)
C12 0.037(5) 0.102(9) 0.092(8) 0.011(7) 0.011(5) -0.015(5)
C13 0.045(5) 0.068(6) 0.078(7) 0.012(6) 0.005(5) 0.004(5)
C14 0.048(5) 0.077(7) 0.059(6) 0.002(5) -0.001(5) 0.012(5)
C15 0.051(5) 0.062(6) 0.050(5) -0.002(5) 0.000(4) -0.004(4)
C16 0.058(6) 0.086(8) 0.143(12) -0.006(8) 0.010(7) -0.028(6)
C17 0.125(11) 0.089(8) 0.156(14) 0.012(10) -0.024(11) -0.017(8)
C18 0.077(7) 0.064(7) 0.087(8) -0.008(6) -0.025(6) 0.012(6)
C19 0.043(5) 0.076(7) 0.067(6) 0.007(5) -0.007(4) 0.007(5)
C20 0.066 0.082 0.094 -0.006 -0.011 -0.001
C21 0.049(6) 0.090(8) 0.064(7) -0.001(6) 0.000(5) -0.011(5)
C22 0.056(6) 0.087(7) 0.077(7) 0.004(7) 0.007(6) 0.010(6)
C23 0.050(6) 0.072(7) 0.080(7) 0.001(6) 0.000(5) -0.003(5)
C24 0.046(5) 0.067(6) 0.066(7) -0.015(5) 0.002(5) 0.000(5)
C25 0.057(6) 0.078(7) 0.080(8) -0.019(6) -0.003(6) 0.013(6)
C26 0.072(7) 0.065(6) 0.081(8) -0.008(6) 0.013(6) 0.002(6)
C27 0.067(6) 0.065(6) 0.061(6) -0.004(5) 0.008(5) -0.011(5)
C28 0.059(6) 0.065(6) 0.050(6) -0.002(5) -0.004(5) 0.004(5)
C29 0.053(6) 0.059(6) 0.057(6) 0.001(5) -0.003(4) -0.007(5)
C30 0.051(5) 0.078(7) 0.042(5) -0.005(5) -0.004(4) -0.004(5)
C31 0.063(6) 0.078(7) 0.059(6) -0.005(6) 0.012(5) -0.003(6)
C32 0.071(7) 0.086(8) 0.077(8) -0.023(6) 0.017(6) -0.031(6)
C33 0.050(5) 0.071(6) 0.066(6) -0.011(6) 0.005(5) -0.003(5)
C34 0.051(5) 0.077(7) 0.051(6) 0.005(5) 0.000(4) 0.001(5)
C35 0.042(5) 0.070(6) 0.059(6) -0.005(5) 0.002(4) -0.012(5)
C36 0.095(10) 0.080(9) 0.153(14) -0.031(10) 0.009(9) -0.016(7)
C37 0.212(18) 0.097(11) 0.140(16) 0.020(11) 0.007(13) -0.003(11)
C38 0.029(5) 0.076(7) 0.103(8) 0.007(7) 0.008(5) -0.003(5)
C39 0.033(5) 0.105(9) 0.107(9) 0.009(7) 0.004(5) -0.003(6)
C40 0.040(5) 0.077(7) 0.075(7) 0.008(5) -0.007(5) -0.005(5)
C41 0.093(9) 0.102(11) 0.082(10) -0.011(9) 0.001(8) -0.041(8)
C42 0.143(14) 0.148(14) 0.111(13) 0.025(12) 0.013(12) -0.052(12)
C43 0.138(15) 0.161(16) 0.111(13) 0.004(11) -0.008(11) -0.009(12)
C44 0.060(8) 0.50(4) 0.079(10) 0.128(17) 0.017(8) 0.039(15)
N1 0.045(5) 0.060(5) 0.069(5) 0.002(4) 0.011(4) 0.004(4)
N2 0.038(4) 0.052(4) 0.063(5) 0.000(4) 0.003(4) 0.007(4)
N3 0.053(5) 0.061(5) 0.088(6) -0.001(5) 0.015(4) -0.004(4)
N4 0.051(4) 0.072(5) 0.064(5) -0.001(5) -0.013(4) 0.015(4)
N5 0.056 0.076 0.065 -0.003 0.004 0.012
N6 0.050(5) 0.073(5) 0.076(6) -0.001(5) 0.004(4) -0.001(4)
N7 0.041(4) 0.079(6) 0.074(6) -0.014(5) -0.002(4) 0.003(4)
N8 0.066(5) 0.062(5) 0.098(7) -0.001(5) 0.001(5) 0.000(5)
N9 0.050(4) 0.079(6) 0.057(5) 0.006(4) 0.004(4) -0.010(4)
N10 0.045 0.081 0.081 0.006 0.001 -0.003
O1 0.206(11) 0.107(7) 0.110(8) 0.023(6) -0.029(7) -0.046(7)
O2 0.155(10) 0.231(14) 0.158(11) -0.059(12) -0.060(10) 0.055(9)
O3 0.185(11) 0.241(13) 0.085(7) -0.018(8) 0.000(7) -0.099(10)
O4 0.052(5) 0.161(9) 0.205(12) -0.016(8) -0.016(6) 0.022(5)
O5 0.229(11) 0.260(11) 0.218(11) -0.019(8) 0.000(8) -0.006(8)
O6 0.13 0.129 0.245 0.074 0.069 0.062
O7 0.116(8) 0.160(10) 0.183(11) 0.006(9) -0.025(8) 0.050(8)
C45 0.111(12) 0.079(9) 0.171(17) 0.019(10) -0.015(11) 0.015(9)
C46 0.080(10) 0.113(12) 0.41(4) 0.069(19) 0.047(17) 0.047(9)
O8 0.28 0.37 0.27 0.09 -0.111 -0.167
C47 0.079 0.23 0.54 0.13 -0.12 0.026
C48 0.218 0.202 0.22 0.013 -0.008 -0.018
Zn1A 0.049 0.0734 0.0779 0.0105 -0.0105 -0.0086
Zn1B 0.049 0.0734 0.0779 0.0105 0.0105 0.0086
Zn2B 0.0463 0.0831 0.0882 0.0004 -0.0085 0.0034
N5B 0.056 0.076 0.065 0.003 0.004 -0.012
N10B 0.045 0.081 0.081 -0.006 0.001 0.003
O6A 0.13 0.129 0.245 -0.074 -0.069 0.062
loop_
_geom_bond_atom_site_label_1
_geom_bond_atom_site_label_2
_geom_bond_site_symmetry_1
_geom_bond_site_symmetry_2
Zn1 N1 1_555 1_555
Zn2 N6 1_555 1_555
C1 H1 1_555 1_555
C2 H2 1_555 1_555
C3 C2 1_555 1_555
H3 C3 1_555 1_555
C4 C5 1_555 1_555
C5 H4 1_555 1_555
C6 C5 1_555 1_555
C7 C6 1_555 1_555
C8 C7 1_555 1_555
H5 C8 1_555 1_555
C9 C4 1_555 1_555
H6 C9 1_555 1_555
C10 C6 1_555 1_555
C11 C10 1_555 1_555
C12 C11 1_555 1_555
H7 C12 1_555 1_555
C13 C12 1_555 1_555
H8 C13 1_555 1_555
C14 C13 1_555 1_555
C15 C10 1_555 1_555
H9 C15 1_555 1_555
C16 H10 1_555 1_555
H11 C16 1_555 1_555
C17 C16 1_555 1_555
H12 C17 1_555 1_555
H13 C17 1_555 1_555
H14 C17 1_555 1_555
C18 H15 1_555 1_555
C19 H16 1_555 1_555
C20 C18 1_555 1_555
H17 C20 1_555 1_555
C21 H18 1_555 1_555
C22 C21 1_555 1_555
H19 C22 1_555 1_555
C23 H20 1_555 1_555
C24 C25 1_555 1_555
C25 H21 1_555 1_555
C26 C25 1_555 1_555
H22 C26 1_555 1_555
C27 C26 1_555 1_555
C28 C27 1_555 1_555
C29 C24 1_555 1_555
H23 C29 1_555 1_555
C30 C28 1_555 1_555
C31 C30 1_555 1_555
C32 C31 1_555 1_555
H24 C32 1_555 1_555
C33 C32 1_555 1_555
H25 C33 1_555 1_555
C34 C33 1_555 1_555
C35 C30 1_555 1_555
H26 C35 1_555 1_555
C36 H27 1_555 1_555
H28 C36 1_555 1_555
C37 C36 1_555 1_555
H29 C37 1_555 1_555
H30 C37 1_555 1_555
H31 C37 1_555 1_555
C38 H32 1_555 1_555
C39 C38 1_555 1_555
H33 C39 1_555 1_555
C40 H34 1_555 1_555
C41 C42 1_555 1_555
C42 H35 1_555 1_555
H36 C42 1_555 1_555
C43 C42 1_555 1_555
H37 C43 1_555 1_555
H38 C43 1_555 1_555
C44 C43 1_555 1_555
N1 C1 1_555 1_555
N2 C1 1_555 1_555
N3 C7 1_555 1_555
N4 C14 1_555 1_555
N5 C19 1_555 1_555
N6 C21 1_555 1_555
N7 C22 1_555 1_555
N8 C27 1_555 1_555
N9 C34 1_555 1_555
N10 C39 1_555 1_555
O1 Zn1 1_555 1_555
O2 C41 1_555 1_555
O3 Zn2 1_555 1_555
O4 Zn2 1_555 1_555
O5 C44 1_555 1_555
O6 C48 1_555 1_555
O7 C45 1_555 1_555
C45 O4 1_555 1_555
C46 C45 1_555 1_555
H39 C46 1_555 1_555
H40 C46 1_555 1_555
O8 C48 1_555 1_555
C47 C46 1_555 1_555
H41 C47 1_555 1_555
H42 C47 1_555 1_555
C48 C47 1_555 1_555
Zn1A O6 1_555 1_555
Zn1B N5 1_555 1_555
Zn2B N10 1_555 1_555
N5B Zn1 1_555 1_555
N10B Zn2 1_555 1_555
O6A Zn1 1_555 1_555
C2 N1 1_555 1_555
C3 N2 1_555 1_555
C4 N2 1_555 1_555
C8 C9 1_555 1_555
C11 N3 1_555 1_555
C14 C15 1_555 1_555
C16 N3 1_555 1_555
C18 N4 1_555 1_555
C19 N4 1_555 1_555
C20 N5 1_555 1_555
C23 N6 1_555 1_555
C23 N7 1_555 1_555
C24 N7 1_555 1_555
C28 C29 1_555 1_555
C31 N8 1_555 1_555
C34 C35 1_555 1_555
C36 N8 1_555 1_555
C38 N9 1_555 1_555
C40 N9 1_555 1_555
C40 N10 1_555 1_555
C41 O1 1_555 1_555
C44 O3 1_555 1_555

#END
