
#######################################################################
#
#                 Cambridge Crystallographic Data Centre
#                                CCDC 
#
#######################################################################
#
# If this CIF has been generated from an entry in the Cambridge 
# Structural Database, then it will include bibliographic, chemical, 
# crystal, experimental, refinement or atomic coordinate data resulting 
# from the CCDC's data processing and validation procedures.
#
#######################################################################

data_AJUNOK
_chemical_formula_moiety         '(C24 H22 Cd1 N4 O8 S1)n'
_symmetry_cell_setting           orthorhombic
_symmetry_space_group_name_H-M   'P c c a'
_symmetry_Int_Tables_number      54
_space_group_name_Hall           '-P 2a 2ac'
loop_
_symmetry_equiv_pos_site_id
_symmetry_equiv_pos_as_xyz
1 x,y,z
2 1/2-x,-y,z
3 1/2+x,-y,1/2-z
4 -x,y,1/2-z
5 -x,-y,-z
6 1/2+x,y,-z
7 1/2-x,y,1/2+z
8 x,-y,1/2+z
_cell_length_a                   16.085
_cell_length_b                   16.0849(13)
_cell_length_c                   20.2460(17)
_cell_angle_alpha                90
_cell_angle_beta                 90
_cell_angle_gamma                90
_cell_volume                     5238.16
loop_
_atom_site_label
_atom_site_type_symbol
_atom_site_fract_x
_atom_site_fract_y
_atom_site_fract_z
O1 O 0.9700(5) 0.2324(4) 0.9997(3)
H1 H 0.9293 0.2350 0.9731
H2 H 0.9850 0.2814 1.0102
C1 C -0.14181(18) 0.43217(17) 0.29320(16)
H3 H -0.1866 0.4625 0.2771
C2 C -0.14557(18) 0.34658(18) 0.29016(16)
H4 H -0.1920 0.3206 0.2723
C3 C -0.08014(18) 0.29966(18) 0.31375(14)
C4 C -0.0124(2) 0.34279(19) 0.34026(17)
H5 H 0.0331 0.3139 0.3570
C5 C -0.01365(19) 0.42830(18) 0.34136(16)
H6 H 0.0319 0.4560 0.3591
C6 C -0.08115(18) 0.20758(19) 0.31166(15)
C7 C -0.11648(18) 0.16282(17) 0.25758(15)
C8 C -0.11693(18) 0.07368(18) 0.25655(16)
C9 C -0.08256(19) 0.02678(18) 0.30989(17)
C10 C -0.0488(2) 0.07222(19) 0.36039(18)
H7 H -0.0256 0.0440 0.3960
C11 C -0.0476(2) 0.16040(18) 0.36083(16)
H8 H -0.0227 0.1873 0.3963
C12 C -0.0164(2) -0.10884(18) 0.33763(18)
H9 H 0.0290 -0.0806 0.3553
C13 C -0.08313(19) -0.06481(19) 0.31079(17)
C14 C -0.1485(2) -0.11125(19) 0.2863(2)
H10 H -0.1947 -0.0848 0.2684
C15 C -0.1451(2) -0.19699(19) 0.2885(2)
H11 H -0.1897 -0.2270 0.2715
C16 C -0.0183(2) -0.19449(19) 0.33775(17)
H12 H 0.0268 -0.2228 0.3556
C17 C 0.13055(18) 0.61707(16) 0.32297(13)
C18 C 0.18001(18) 0.61684(17) 0.38638(13)
C19 C 0.2658(2) 0.6217(2) 0.38363(15)
H13 H 0.2924 0.6244 0.3429
C20 C 0.3119(2) 0.6228(3) 0.44123(16)
H14 H 0.3695 0.6266 0.4388
C21 C 0.27403(19) 0.61817(19) 0.50213(14)
C22 C 0.1887(2) 0.6107(3) 0.50485(16)
H15 H 0.1624 0.6058 0.5455
C23 C 0.1416(2) 0.6106(2) 0.44692(15)
H16 H 0.0840 0.6062 0.4493
C24 C 0.3256(2) 0.61949(19) 0.56420(15)
Cd1 Cd -0.087080(11) 0.616531(11) 0.320929(9)
N1 N -0.14927(19) 0.04170(17) 0.20052(15)
N2 N -0.14887(18) 0.19663(16) 0.20218(15)
N3 N -0.07698(15) 0.47368(15) 0.31816(12)
N4 N -0.08109(16) -0.23877(16) 0.31380(13)
O2 O 0.05371(15) 0.61850(16) 0.32641(12)
O3 O 0.17034(14) 0.61605(14) 0.26977(10)
O4 O 0.40220(15) 0.6259(2) 0.56024(12)
O5 O 0.29024(17) 0.6141(2) 0.61789(11)
S1 S -0.17566(7) 0.12013(6) 0.15550(5)
Cd1_2 Cd -0.087080(11) -0.383469(11) 0.320929(9)
Cd1C Cd 0.087080(11) 0.616531(11) 0.179071(9)
Cd1E Cd 0.412920(11) 0.616531(11) 0.679071(9)
N4_2 N -0.08109(16) 0.76123(16) 0.31380(13)
O3C O -0.17034(14) 0.61605(14) 0.23023(10)
O4E O -0.09780(15) 0.6259(2) 0.43976(12)
O5E O -0.20976(17) 0.6141(2) 0.38211(11)
O6 O 0.6385(11) 0.8380(12) 0.5342(8)
H17 H 0.6849 0.8128 0.5339
H18 H 0.6373 0.8723 0.5661
O7 O 0.405(3) 0.946(3) 0.4998(16)
H19 H 0.4043 0.8948 0.5100
H20 H 0.4549 0.9620 0.4948
O8 O 0.742(2) 0.857(2) 0.4678(15)
H21 H 0.7878 0.8306 0.4733
H22 H 0.7385 0.8723 0.4278
loop_
_geom_bond_atom_site_label_1
_geom_bond_atom_site_label_2
_geom_bond_site_symmetry_1
_geom_bond_site_symmetry_2
O1 H1 1_555 1_555
H2 O1 1_555 1_555
C1 H3 1_555 1_555
C2 C1 1_555 1_555
H4 C2 1_555 1_555
C3 C2 1_555 1_555
C4 C3 1_555 1_555
H5 C4 1_555 1_555
C5 C4 1_555 1_555
H6 C5 1_555 1_555
C6 C3 1_555 1_555
C7 C6 1_555 1_555
C8 C7 1_555 1_555
C9 C8 1_555 1_555
C10 C9 1_555 1_555
H7 C10 1_555 1_555
C11 C6 1_555 1_555
H8 C11 1_555 1_555
C12 H9 1_555 1_555
C13 C9 1_555 1_555
C14 C13 1_555 1_555
H10 C14 1_555 1_555
C15 C14 1_555 1_555
H11 C15 1_555 1_555
C16 C12 1_555 1_555
H12 C16 1_555 1_555
C17 C18 1_555 1_555
C18 C19 1_555 1_555
C19 H13 1_555 1_555
C20 C19 1_555 1_555
H14 C20 1_555 1_555
C21 C20 1_555 1_555
C22 C21 1_555 1_555
H15 C22 1_555 1_555
C23 C18 1_555 1_555
H16 C23 1_555 1_555
C24 C21 1_555 1_555
Cd1 N3 1_555 1_555
N1 C8 1_555 1_555
N2 C7 1_555 1_555
N3 C1 1_555 1_555
N4 C15 1_555 1_555
O2 C17 1_555 1_555
O3 C17 1_555 1_555
O4 C24 1_555 1_555
O5 C24 1_555 1_555
S1 N1 1_555 1_555
O6 H17 1_555 1_555
H18 O6 1_555 1_555
O7 H19 1_555 1_555
H20 O7 1_555 1_555
O8 H21 1_555 1_555
H22 O8 1_555 1_555
Cd1_2 N4 1_555 1_555
Cd1C O3 1_555 1_555
Cd1E O4 1_555 1_555
N4_2 Cd1 1_555 1_555
O3C Cd1 1_555 1_555
O4E Cd1 1_555 1_555
O5E Cd1 1_555 1_555
C5 N3 1_555 1_555
C10 C11 1_555 1_555
C12 C13 1_555 1_555
C16 N4 1_555 1_555
C22 C23 1_555 1_555
Cd1 O2 1_555 1_555
N2 S1 1_555 1_555
O5 Cd1E 1_555 1_555

#END
