
#######################################################################
#
#                 Cambridge Crystallographic Data Centre
#                                CCDC 
#
#######################################################################
#
# If this CIF has been generated from an entry in the Cambridge 
# Structural Database, then it will include bibliographic, chemical, 
# crystal, experimental, refinement or atomic coordinate data resulting 
# from the CCDC's data processing and validation procedures.
#
#######################################################################

data_JADBIC
_chemical_formula_moiety         '(C45 H47 Ce2 N9 O19)n'
_symmetry_cell_setting           triclinic
_symmetry_space_group_name_H-M   'P -1'
_symmetry_Int_Tables_number      2
_space_group_name_Hall           '-P 1'
loop_
_symmetry_equiv_pos_site_id
_symmetry_equiv_pos_as_xyz
1 x,y,z
2 -x,-y,-z
_cell_length_a                   10.0610(10)
_cell_length_b                   11.7219(11)
_cell_length_c                   13.6891(14)
_cell_angle_alpha                66.9340(10)
_cell_angle_beta                 87.182(2)
_cell_angle_gamma                76.2570(10)
_cell_volume                     1441.08
loop_
_atom_site_label
_atom_site_type_symbol
_atom_site_fract_x
_atom_site_fract_y
_atom_site_fract_z
Ce1 Ce 0.23519(6) 0.52848(6) 0.50339(5)
N1 N 0.4581(14) 0.1774(13) 1.0146(10)
N2 N 0.8045(14) 0.0038(14) 1.0202(10)
N3 N 0.1508(16) 0.5578(17) 0.0051(11)
N4 N 0.298(2) 0.799(2) 0.6620(16)
O1 O 0.4352(11) 0.4425(10) 0.6244(8)
O2 O 0.6583(10) 0.3452(10) 0.6577(7)
O3 O 0.7918(10) -0.3093(9) 1.3926(7)
O4 O 0.5976(12) -0.1630(11) 1.3728(9)
O5 O 0.0806(10) 0.5109(10) 0.3838(8)
O6 O -0.1039(10) 0.4720(10) 0.3369(7)
O7 O 0.2914(12) 0.6988(11) 0.5543(9)
O8 O 0.0401(10) 0.7262(9) 0.4400(8)
H1 H -0.0310 0.7116 0.4207
H2 H 0.0167 0.7626 0.4832
O9 O 0.3967(10) 0.3662(10) 0.4408(7)
H3 H 0.4165 0.2941 0.4926
H4 H 0.4707 0.3901 0.4219
C1 C 0.5362(13) 0.3626(13) 0.6862(10)
C2 C 0.5784(15) 0.1425(15) 0.9755(11)
C3 C 0.6086(14) 0.2001(14) 0.8698(10)
H5 H 0.6942 0.1734 0.8465
C4 C 0.5106(14) 0.2964(13) 0.8005(10)
C5 C 0.3821(16) 0.3348(15) 0.8406(12)
H6 H 0.3129 0.4004 0.7964
C6 C 0.3638(17) 0.2723(16) 0.9457(12)
H7 H 0.2795 0.2975 0.9716
C7 C 0.7075(14) -0.2053(13) 1.3376(11)
C8 C 0.6804(15) 0.0321(14) 1.0542(11)
C9 C 0.6461(15) -0.0335(14) 1.1564(11)
H8 H 0.5576 -0.0114 1.1772
C10 C 0.7422(15) -0.1316(15) 1.2276(11)
C11 C 0.8749(16) -0.1632(17) 1.1927(13)
H9 H 0.9439 -0.2275 1.2383
C12 C 0.8980(17) -0.0945(18) 1.0878(13)
H10 H 0.9834 -0.1178 1.0626
C13 C 0.0092(14) 0.4983(14) 0.3191(10)
C14 C 0.0362(16) 0.5123(17) 0.0396(11)
C15 C -0.0102(15) 0.4939(16) 0.1379(11)
H11 H -0.0906 0.4662 0.1570
C16 C 0.0618(15) 0.5163(16) 0.2113(11)
C17 C 0.1785(17) 0.5612(18) 0.1770(13)
H12 H 0.2295 0.5792 0.2217
C18 C 0.2173(19) 0.579(2) 0.0747(13)
H13 H 0.2967 0.6072 0.0533
C19 C 0.267(2) 0.7182(19) 0.6316(17)
H14 H 0.2152 0.6661 0.6788
C20 C 0.373(4) 0.894(3) 0.586(3)
H15 H 0.3593 0.9003 0.5151
H16 H 0.4691 0.8648 0.6061
H17 H 0.3382 0.9756 0.5895
C21 C 0.278(4) 0.804(3) 0.769(3)
H18 H 0.1847 0.8460 0.7727
H19 H 0.3382 0.8510 0.7796
H20 H 0.2983 0.7191 0.8224
N3A N -0.1508(16) 0.4422(17) -0.0051(11)
O5A O -0.0806(10) 0.4891(10) -0.3838(8)
O6A O 0.1039(10) 0.5280(10) -0.3369(7)
C13A C -0.0092(14) 0.5017(14) -0.3191(10)
C14A C -0.0362(16) 0.4877(17) -0.0396(11)
C15A C 0.0102(15) 0.5061(16) -0.1379(11)
H11A H 0.0906 0.5338 -0.1570
C16A C -0.0618(15) 0.4837(16) -0.2113(11)
C17A C -0.1785(17) 0.4388(18) -0.1770(13)
H12A H -0.2295 0.4208 -0.2217
C18A C -0.2173(19) 0.421(2) -0.0747(13)
H13A H -0.2967 0.3928 -0.0533
Ce1A Ce -0.23519(6) 0.47152(6) -0.50339(5)
N1A N -0.4581(14) 0.8226(13) -1.0146(10)
N2A N -0.8045(14) 0.9962(14) -1.0202(10)
N4A N -0.298(2) 0.201(2) -0.6620(16)
O1A O -0.4352(11) 0.5575(10) -0.6244(8)
O2A O -0.6583(10) 0.6548(10) -0.6577(7)
O3A O -0.7918(10) 1.3093(9) -1.3926(7)
O4A O -0.5976(12) 1.1630(11) -1.3728(9)
O7A O -0.2914(12) 0.3012(11) -0.5543(9)
O8A O -0.0401(10) 0.2738(9) -0.4400(8)
H1A H 0.0310 0.2884 -0.4207
H2A H -0.0167 0.2374 -0.4832
O9A O -0.3967(10) 0.6338(10) -0.4408(7)
H3A H -0.4165 0.7059 -0.4926
H4A H -0.4707 0.6099 -0.4219
C1A C -0.5362(13) 0.6374(13) -0.6862(10)
C2A C -0.5784(15) 0.8575(15) -0.9755(11)
C3A C -0.6086(14) 0.7999(14) -0.8698(10)
H5A H -0.6942 0.8266 -0.8465
C4A C -0.5106(14) 0.7036(13) -0.8005(10)
C5A C -0.3821(16) 0.6652(15) -0.8406(12)
H6A H -0.3129 0.5996 -0.7964
C6A C -0.3638(17) 0.7277(16) -0.9457(12)
H7A H -0.2795 0.7025 -0.9716
C7A C -0.7075(14) 1.2053(13) -1.3376(11)
C8A C -0.6804(15) 0.9679(14) -1.0542(11)
C9A C -0.6461(15) 1.0335(14) -1.1564(11)
H8A H -0.5576 1.0114 -1.1772
C10A C -0.7422(15) 1.1316(15) -1.2276(11)
C11A C -0.8749(16) 1.1632(17) -1.1927(13)
H9A H -0.9439 1.2275 -1.2383
C12A C -0.8980(17) 1.0945(18) -1.0878(13)
H10A H -0.9834 1.1178 -1.0626
C19A C -0.267(2) 0.2818(19) -0.6316(17)
H14A H -0.2152 0.3339 -0.6788
C20A C -0.373(4) 0.106(3) -0.586(3)
H15A H -0.3593 0.0997 -0.5151
H16A H -0.4691 0.1352 -0.6061
H17A H -0.3382 0.0244 -0.5895
C21A C -0.278(4) 0.196(3) -0.769(3)
H18A H -0.1847 0.1540 -0.7727
H19A H -0.3382 0.1490 -0.7796
H20A H -0.2983 0.2809 -0.8224
Ce1_2 Ce -0.76481(6) 0.52848(6) -0.49661(5)
Ce1_3 Ce -0.76481(6) 1.52848(6) -1.49661(5)
Ce1_4 Ce 0.23519(6) 0.52848(6) -0.49661(5)
Ce1A_2 Ce -0.23519(6) 0.47152(6) 0.49661(5)
Ce1A_3 Ce 0.76481(6) -0.52848(6) 1.49661(5)
Ce1A_4 Ce 0.76481(6) 0.47152(6) 0.49661(5)
O2_2 O -0.3417(10) 0.3452(10) -0.3423(7)
O2A_2 O 0.3417(10) 0.6548(10) 0.3423(7)
O3_2 O -0.2082(10) 0.6907(9) -0.6074(7)
O3A_2 O 0.2082(10) 0.3093(9) 0.6074(7)
O6_2 O -0.1039(10) 0.4720(10) -0.6631(7)
O6A_2 O 0.1039(10) 0.5280(10) 0.6631(7)
N5 N 0.816(4) 0.917(3) 0.692(3)
O10 O 0.943(3) 0.832(3) 0.578(2)
C22 C 0.904(5) 0.908(5) 0.620(4)
H21 H 0.9465 0.9763 0.5943
C23 C 0.733(5) 0.826(5) 0.747(4)
H22 H 0.7761 0.7446 0.7457
H23 H 0.6436 0.8561 0.7111
H24 H 0.7231 0.8188 0.8190
C24 C 0.791(5) 1.029(4) 0.722(4)
H25 H 0.8483 1.0085 0.7835
H26 H 0.6969 1.0508 0.7372
H27 H 0.8131 1.1000 0.6639
loop_
_geom_bond_atom_site_label_1
_geom_bond_atom_site_label_2
_geom_bond_site_symmetry_1
_geom_bond_site_symmetry_2
Ce1 O1 1_555 1_555
N1 C2 1_555 1_555
N2 C8 1_555 1_555
N3 C14 1_555 1_555
N4 C19 1_555 1_555
O1 C1 1_555 1_555
O2 C1 1_555 1_555
O3 C7 1_555 1_555
O4 C7 1_555 1_555
O5 Ce1 1_555 1_555
O6 C13 1_555 1_555
O7 Ce1 1_555 1_555
O8 Ce1 1_555 1_555
H1 O8 1_555 1_555
H2 O8 1_555 1_555
O9 Ce1 1_555 1_555
H3 O9 1_555 1_555
H4 O9 1_555 1_555
C1 C4 1_555 1_555
C2 C3 1_555 1_555
C3 H5 1_555 1_555
C4 C3 1_555 1_555
C5 C4 1_555 1_555
H6 C5 1_555 1_555
C6 N1 1_555 1_555
H7 C6 1_555 1_555
C7 C10 1_555 1_555
C8 C2 1_555 1_555
C9 C8 1_555 1_555
H8 C9 1_555 1_555
C10 C9 1_555 1_555
C11 C10 1_555 1_555
H9 C11 1_555 1_555
C12 N2 1_555 1_555
H10 C12 1_555 1_555
C13 O5 1_555 1_555
C14 C15 1_555 1_555
C15 H11 1_555 1_555
C16 C13 1_555 1_555
C17 C16 1_555 1_555
H12 C17 1_555 1_555
C18 N3 1_555 1_555
H13 C18 1_555 1_555
C19 O7 1_555 1_555
H14 C19 1_555 1_555
C20 N4 1_555 1_555
H15 C20 1_555 1_555
H16 C20 1_555 1_555
H17 C20 1_555 1_555
C21 N4 1_555 1_555
H18 C21 1_555 1_555
H19 C21 1_555 1_555
H20 C21 1_555 1_555
N5 C22 1_555 1_555
O10 C22 1_555 1_555
C22 H21 1_555 1_555
C23 N5 1_555 1_555
H22 C23 1_555 1_555
H23 C23 1_555 1_555
H24 C23 1_555 1_555
C24 N5 1_555 1_555
H25 C24 1_555 1_555
H26 C24 1_555 1_555
H27 C24 1_555 1_555
N3A C14A 1_555 1_555
O5A C13A 1_555 1_555
O6A C13A 1_555 1_555
C13A C16A 1_555 1_555
C14A C14 1_555 1_555
C15A C14A 1_555 1_555
H11A C15A 1_555 1_555
C16A C15A 1_555 1_555
C17A C16A 1_555 1_555
H12A C17A 1_555 1_555
C18A N3A 1_555 1_555
H13A C18A 1_555 1_555
Ce1A O5A 1_555 1_555
N1A C2A 1_555 1_555
N2A C8A 1_555 1_555
N4A C19A 1_555 1_555
O1A Ce1A 1_555 1_555
O2A C1A 1_555 1_555
O3A C7A 1_555 1_555
O4A C7A 1_555 1_555
O7A Ce1A 1_555 1_555
O8A Ce1A 1_555 1_555
H1A O8A 1_555 1_555
H2A O8A 1_555 1_555
O9A Ce1A 1_555 1_555
H3A O9A 1_555 1_555
H4A O9A 1_555 1_555
C1A O1A 1_555 1_555
C2A C3A 1_555 1_555
C3A H5A 1_555 1_555
C4A C1A 1_555 1_555
C5A C4A 1_555 1_555
H6A C5A 1_555 1_555
C6A N1A 1_555 1_555
H7A C6A 1_555 1_555
C7A C10A 1_555 1_555
C8A C2A 1_555 1_555
C9A C8A 1_555 1_555
H8A C9A 1_555 1_555
C10A C9A 1_555 1_555
C11A C10A 1_555 1_555
H9A C11A 1_555 1_555
C12A N2A 1_555 1_555
H10A C12A 1_555 1_555
C19A O7A 1_555 1_555
H14A C19A 1_555 1_555
C20A N4A 1_555 1_555
H15A C20A 1_555 1_555
H16A C20A 1_555 1_555
H17A C20A 1_555 1_555
C21A N4A 1_555 1_555
H18A C21A 1_555 1_555
H19A C21A 1_555 1_555
H20A C21A 1_555 1_555
Ce1_2 O2A 1_555 1_555
Ce1_3 O3A 1_555 1_555
Ce1_4 O6A 1_555 1_555
Ce1A_2 O6 1_555 1_555
Ce1A_3 O3 1_555 1_555
Ce1A_4 O2 1_555 1_555
O2_2 Ce1A 1_555 1_555
O2A_2 Ce1 1_555 1_555
O3_2 Ce1A 1_555 1_555
O3A_2 Ce1 1_555 1_555
O6_2 Ce1A 1_555 1_555
O6A_2 Ce1 1_555 1_555
C5 C6 1_555 1_555
C11 C12 1_555 1_555
C15 C16 1_555 1_555
C17 C18 1_555 1_555
C17A C18A 1_555 1_555
C3A C4A 1_555 1_555
C5A C6A 1_555 1_555
C11A C12A 1_555 1_555

#END
