
#######################################################################
#
#                 Cambridge Crystallographic Data Centre
#                                CCDC 
#
#######################################################################
#
# If this CIF has been generated from an entry in the Cambridge 
# Structural Database, then it will include bibliographic, chemical, 
# crystal, experimental, refinement or atomic coordinate data resulting 
# from the CCDC's data processing and validation procedures.
#
#######################################################################

data_CACNOM
_chemical_formula_moiety         '(C18 H7 B2 Co2 In1 O17)n'
_symmetry_cell_setting           monoclinic
_symmetry_space_group_name_H-M   'P 21/c'
_symmetry_Int_Tables_number      14
_space_group_name_Hall           '-P 2ybc'
loop_
_symmetry_equiv_pos_site_id
_symmetry_equiv_pos_as_xyz
1 x,y,z
2 -x,1/2+y,1/2-z
3 -x,-y,-z
4 x,1/2-y,1/2+z
_cell_length_a                   11.9109(3)
_cell_length_b                   14.3578(3)
_cell_length_c                   22.2830(6)
_cell_angle_alpha                90
_cell_angle_beta                 113.733(2)
_cell_angle_gamma                90
_cell_volume                     3488.44
loop_
_atom_site_label
_atom_site_type_symbol
_atom_site_fract_x
_atom_site_fract_y
_atom_site_fract_z
Co1 Co 1.01772(4) 0.78927(3) 0.77255(2)
Co2 Co 0.81761(4) 0.66455(3) 0.80310(2)
In1 In 1.18628(3) 0.92465(2) 0.72939(2)
O1 O 0.8864(2) 0.87519(17) 0.77436(14)
O2 O 0.7535(2) 0.79477(16) 0.80194(13)
O3 O 0.7433(2) 1.28836(16) 0.77143(13)
O4 O 0.8616(2) 1.20007(17) 0.73751(14)
O5 O 0.3715(2) 0.96968(17) 0.77531(12)
O6 O 0.3629(2) 1.12307(17) 0.75445(14)
O7 O 1.1876(3) 0.39501(17) 1.11693(12)
O8 O 1.1894(2) 0.54947(17) 1.13532(11)
O9 O 0.9984(2) 0.36112(16) 0.81700(11)
O10 O 1.1597(16) 0.2869(6) 0.8938(4)
O11 O 1.0088(2) 0.71008(16) 0.85124(11)
O12 O 1.1307(10) 0.7632(9) 0.9474(7)
O13 O 1.1344(3) 1.05123(18) 0.84514(12)
O14 O 1.1503(2) 0.89220(16) 0.81261(11)
O15 O 1.1192(17) 0.9331(7) 0.9105(5)
H1 H 1.1132 0.8765 0.9130
O16 O 1.1251(2) 1.05714(16) 0.73555(11)
O17 O 1.1274(2) 1.19344(16) 0.79118(12)
B1 B 1.1407(5) 0.9547(3) 0.8552(2)
B2 B 1.1280(4) 1.0964(3) 0.7905(2)
C1 C 0.7935(3) 0.8681(2) 0.78698(18)
C2 C 0.7790(3) 1.2119(2) 0.75871(18)
C3 C 0.4163(3) 1.0463(2) 0.76740(17)
C4 C 0.7256(3) 0.9581(2) 0.78261(18)
C5 C 0.7784(3) 1.0405(2) 0.77418(18)
H2 H 0.8556 1.0392 0.7730
C6 C 0.7179(3) 1.1246(2) 0.76749(19)
C7 C 0.6023(3) 1.1263(2) 0.76711(18)
H3 H 0.5611 1.1827 0.7622
C8 C 0.5464(3) 1.0447(2) 0.77395(17)
C9 C 0.6090(3) 0.9597(2) 0.78225(17)
H4 H 0.5725 0.9048 0.7875
C10 C 1.1798(3) 0.4790(3) 1.09978(17)
C11 C 1.0831(4) 0.3548(3) 0.87477(18)
C12 C 1.0878(4) 0.6968(3) 0.90913(19)
C13 C 1.1560(3) 0.4963(2) 1.02898(16)
C14 C 1.1399(3) 0.5862(2) 1.00332(16)
H5 H 1.1518 0.6371 1.0311
C15 C 1.1061(3) 0.6007(2) 0.93664(18)
C16 C 1.0883(3) 0.5244(2) 0.89545(17)
H6 H 1.0651 0.5337 0.8507
C17 C 1.1048(3) 0.4345(2) 0.92035(16)
C18 C 1.1405(3) 0.4209(2) 0.98699(18)
H7 H 1.1544 0.3607 1.0039
Co1A Co 0.98228(4) 0.28927(3) 0.72745(2)
Co1A_2 Co 0.98228(4) 1.28927(3) 0.72745(2)
Co2A Co 0.18239(4) 1.16455(3) 0.69690(2)
Co2A_2 Co 1.18239(4) 1.16455(3) 0.69690(2)
Co2B Co 1.18239(4) 0.33545(3) 1.19690(2)
In1_2 In 0.18628(3) 0.92465(2) 0.72939(2)
In1A In 0.81372(3) 0.42465(2) 0.77061(2)
In1A_2 In 0.81372(3) 1.42465(2) 0.77061(2)
In1C In 1.18628(3) 0.57535(2) 1.22939(2)
O3A O 1.2567(2) 0.78836(16) 0.72857(13)
O4A O 1.1384(2) 0.70007(17) 0.76249(14)
O5_2 O 1.3715(2) 0.96968(17) 0.77531(12)
O6A O 0.6371(2) 0.62307(17) 0.74555(14)
O7B O 0.8124(3) 0.60499(17) 0.88307(12)
O8C O 1.1894(2) 0.95053(17) 0.63532(11)
O9A O 1.0016(2) 0.86112(16) 0.68300(11)
O16A O 0.8749(2) 0.55714(16) 0.76445(11)
O17A O 0.8726(2) 0.69344(16) 0.70882(12)
loop_
_geom_bond_atom_site_label_1
_geom_bond_atom_site_label_2
_geom_bond_site_symmetry_1
_geom_bond_site_symmetry_2
Co1 O1 1_555 1_555
Co2 O2 1_555 1_555
In1 O14 1_555 1_555
O1 C1 1_555 1_555
O2 C1 1_555 1_555
O3 C2 1_555 1_555
O4 C2 1_555 1_555
O5 C3 1_555 1_555
O6 C3 1_555 1_555
O7 C10 1_555 1_555
O8 C10 1_555 1_555
O9 C11 1_555 1_555
O10 C11 1_555 1_555
O11 Co1 1_555 1_555
O12 C12 1_555 1_555
O13 B1 1_555 1_555
O14 Co1 1_555 1_555
O15 H1 1_555 1_555
O16 In1 1_555 1_555
O17 B2 1_555 1_555
B1 O14 1_555 1_555
B2 O13 1_555 1_555
C1 C4 1_555 1_555
C2 C6 1_555 1_555
C3 C8 1_555 1_555
C4 C5 1_555 1_555
C5 H2 1_555 1_555
C6 C5 1_555 1_555
C7 C6 1_555 1_555
H3 C7 1_555 1_555
C8 C7 1_555 1_555
C9 C4 1_555 1_555
H4 C9 1_555 1_555
C10 C13 1_555 1_555
C11 C17 1_555 1_555
C12 O11 1_555 1_555
C13 C14 1_555 1_555
C14 H5 1_555 1_555
C15 C12 1_555 1_555
C16 C15 1_555 1_555
H6 C16 1_555 1_555
C17 C16 1_555 1_555
C18 C13 1_555 1_555
H7 C18 1_555 1_555
Co1A O9 1_555 1_555
Co1A_2 O4 1_555 1_555
Co2A O6 1_555 1_555
Co2A_2 O16 1_555 1_555
Co2B O7 1_555 1_555
In1_2 O5 1_555 1_555
In1A O9 1_555 1_555
In1A_2 O3 1_555 1_555
In1C O8 1_555 1_555
O3A In1 1_555 1_555
O4A Co1 1_555 1_555
O5_2 In1 1_555 1_555
O6A Co2 1_555 1_555
O7B Co2 1_555 1_555
O8C In1 1_555 1_555
O9A Co1 1_555 1_555
O16A Co2 1_555 1_555
O17A Co1 1_555 1_555
Co2 O11 1_555 1_555
In1 O9A 1_555 1_555
O15 B1 1_555 1_555
O16 B2 1_555 1_555
O17 Co1A_2 1_555 1_555
C8 C9 1_555 1_555
C14 C15 1_555 1_555
C17 C18 1_555 1_555
In1A O16A 1_555 1_555

#END
