
#######################################################################
#
#                 Cambridge Crystallographic Data Centre
#                                CCDC 
#
#######################################################################
#
# If this CIF has been generated from an entry in the Cambridge 
# Structural Database, then it will include bibliographic, chemical, 
# crystal, experimental, refinement or atomic coordinate data resulting 
# from the CCDC's data processing and validation procedures.
#
#######################################################################

data_KEYDEZ
_chemical_formula_moiety         '(C36 H24 Br2 N4 Ni2 O9 S2)n'
_symmetry_cell_setting           orthorhombic
_symmetry_space_group_name_H-M   'F d d 2'
_symmetry_Int_Tables_number      43
_space_group_name_Hall           'F 2 -2d'
loop_
_symmetry_equiv_pos_site_id
_symmetry_equiv_pos_as_xyz
1 x,y,z
2 -x,-y,z
3 1/4+x,1/4-y,1/4+z
4 1/4-x,1/4+y,1/4+z
5 x,1/2+y,1/2+z
6 -x,1/2-y,1/2+z
7 1/4+x,3/4-y,3/4+z
8 1/4-x,3/4+y,3/4+z
9 1/2+x,y,1/2+z
10 1/2-x,-y,1/2+z
11 3/4+x,1/4-y,3/4+z
12 3/4-x,1/4+y,3/4+z
13 1/2+x,1/2+y,z
14 1/2-x,1/2-y,z
15 3/4+x,3/4-y,1/4+z
16 3/4-x,3/4+y,1/4+z
_cell_length_a                   28.789(16)
_cell_length_b                   13.903(8)
_cell_length_c                   27.693(15)
_cell_angle_alpha                90
_cell_angle_beta                 90
_cell_angle_gamma                90
_cell_volume                     11084.2
loop_
_atom_site_label
_atom_site_type_symbol
_atom_site_fract_x
_atom_site_fract_y
_atom_site_fract_z
Ni1 Ni 0.23762(4) -0.12691(7) 0.84911(5)
Br1 Br 0.33323(15) 0.29418(12) 0.74270(15)
S1 S 0.18473(16) 0.2797(2) 0.96179(17)
O1 O 0.2792(2) -0.0514(5) 0.8026(2)
O2 O 0.3135(2) -0.1649(5) 0.7583(3)
O3 O 0.4417(2) -0.0600(4) 0.6457(2)
O4 O 0.4580(2) 0.0962(5) 0.6428(3)
O5 O 0.2500 -0.2500 0.8093(3)
H1 H 0.2733 -0.2400 0.7911
N1 N 0.0693(3) 0.1584(5) 1.0554(3)
N2 N 0.2272(3) 0.0015(5) 0.8865(3)
C1 C 0.3085(4) -0.0815(7) 0.7721(3)
C2 C 0.3355(4) -0.0003(8) 0.7473(4)
C3 C 0.3730(3) -0.0241(6) 0.7126(4)
H2 H 0.3800 -0.0879 0.7056
C4 C 0.3967(5) 0.0468(8) 0.6914(4)
C5 C 0.3852(6) 0.1454(8) 0.6994(7)
H3 H 0.4007 0.1948 0.6835
C6 C 0.3495(5) 0.1641(8) 0.7320(6)
C7 C 0.3261(7) 0.0897(9) 0.7567(6)
H4 H 0.3038 0.1048 0.7798
C8 C 0.4360(3) 0.0271(6) 0.6574(3)
C9 C 0.2221(3) 0.0841(6) 0.8626(4)
H5 H 0.2283 0.0850 0.8297
C10 C 0.2079(3) 0.1686(7) 0.8847(4)
H6 H 0.2043 0.2245 0.8667
C11 C 0.2001(4) 0.1689(8) 0.9293(6)
C12 C 0.2067(4) 0.0895(10) 0.9570(5)
H7 H 0.2026 0.0911 0.9903
C13 C 0.2203(4) 0.0042(8) 0.9329(3)
H8 H 0.2244 -0.0518 0.9508
C14 C 0.0664(4) 0.1619(8) 1.0077(5)
H9 H 0.0393 0.1397 0.9933
C15 C 0.1019(6) 0.1972(8) 0.9774(5)
H10 H 0.0986 0.1979 0.9440
C16 C 0.1395(5) 0.2287(8) 0.9980(6)
C17 C 0.1442(4) 0.2240(8) 1.0477(5)
H11 H 0.1711 0.2455 1.0628
C18 C 0.1096(4) 0.1884(7) 1.0727(5)
H12 H 0.1138 0.1837 1.1059
H1M H 0.2267 -0.2600 0.7911
Ni1M Ni 0.26238(4) -0.37309(7) 0.84911(5)
Br1M Br 0.16677(15) -0.79418(12) 0.74270(15)
S1M S 0.31527(16) -0.7797(2) 0.96179(17)
O1M O 0.2208(2) -0.4486(5) 0.8026(2)
O2M O 0.1865(2) -0.3351(5) 0.7583(3)
O3M O 0.0583(2) -0.4400(4) 0.6457(2)
O4M O 0.0420(2) -0.5962(5) 0.6428(3)
N1M N 0.4307(3) -0.6584(5) 1.0554(3)
N2M N 0.2728(3) -0.5015(5) 0.8865(3)
C1M C 0.1915(4) -0.4185(7) 0.7721(3)
C2M C 0.1645(4) -0.4997(8) 0.7473(4)
C3M C 0.1270(3) -0.4759(6) 0.7126(4)
H2M H 0.1200 -0.4121 0.7056
C4M C 0.1033(5) -0.5468(8) 0.6914(4)
C5M C 0.1148(6) -0.6454(8) 0.6994(7)
H3M H 0.0993 -0.6948 0.6835
C6M C 0.1505(5) -0.6641(8) 0.7320(6)
C7M C 0.1739(7) -0.5897(9) 0.7567(6)
H4M H 0.1962 -0.6048 0.7798
C8M C 0.0640(3) -0.5271(6) 0.6574(3)
C9M C 0.2779(3) -0.5841(6) 0.8626(4)
H5M H 0.2717 -0.5850 0.8297
C10M C 0.2921(3) -0.6686(7) 0.8847(4)
H6M H 0.2957 -0.7245 0.8667
C11M C 0.2999(4) -0.6689(8) 0.9293(6)
C12M C 0.2933(4) -0.5895(10) 0.9570(5)
H7M H 0.2974 -0.5911 0.9903
C13M C 0.2797(4) -0.5042(8) 0.9329(3)
H8M H 0.2756 -0.4482 0.9508
C14M C 0.4336(4) -0.6619(8) 1.0077(5)
H9M H 0.4607 -0.6397 0.9933
C15M C 0.3981(6) -0.6972(8) 0.9774(5)
H10M H 0.4014 -0.6979 0.9440
C16M C 0.3605(5) -0.7287(8) 0.9980(6)
C17M C 0.3558(4) -0.7240(8) 1.0477(5)
H11M H 0.3289 -0.7455 1.0628
C18M C 0.3904(4) -0.6884(7) 1.0727(5)
H12M H 0.3862 -0.6837 1.1059
Ni1B Ni 0.48762(4) -0.62309(7) 1.09911(5)
Ni1C Ni 0.01238(4) 0.12309(7) 1.09911(5)
Ni1F Ni 0.48762(4) -0.12309(7) 0.59911(5)
Ni1G Ni 0.01238(4) -0.37691(7) 0.59911(5)
Ni1J Ni -0.01238(4) -0.62309(7) 0.59911(5)
Ni1K Ni 0.51238(4) 0.12309(7) 0.59911(5)
O3N O 0.1917(2) -0.1900(4) 0.8957(2)
O3O O 0.3083(2) -0.3100(4) 0.8957(2)
O4N O 0.2080(2) -0.3462(5) 0.8928(3)
O4O O 0.2920(2) -0.1538(5) 0.8928(3)
N1F N 0.3193(3) -0.4084(5) 0.8054(3)
N1G N 0.1807(3) -0.0916(5) 0.8054(3)
loop_
_geom_bond_atom_site_label_1
_geom_bond_atom_site_label_2
_geom_bond_site_symmetry_1
_geom_bond_site_symmetry_2
Ni1 O1 1_555 1_555
Br1 C6 1_555 1_555
S1 C11 1_555 1_555
O1 C1 1_555 1_555
O2 C1 1_555 1_555
O3 C8 1_555 1_555
O4 C8 1_555 1_555
O5 Ni1 1_555 1_555
H1 O5 1_555 1_555
N1 C14 1_555 1_555
N2 Ni1 1_555 1_555
C1 C2 1_555 1_555
C2 C3 1_555 1_555
C3 H2 1_555 1_555
C4 C3 1_555 1_555
C5 C4 1_555 1_555
H3 C5 1_555 1_555
C6 C5 1_555 1_555
C7 C2 1_555 1_555
H4 C7 1_555 1_555
C8 C4 1_555 1_555
C9 N2 1_555 1_555
H5 C9 1_555 1_555
C10 C9 1_555 1_555
H6 C10 1_555 1_555
C11 C10 1_555 1_555
C12 C11 1_555 1_555
H7 C12 1_555 1_555
C13 N2 1_555 1_555
H8 C13 1_555 1_555
C14 H9 1_555 1_555
C15 C14 1_555 1_555
H10 C15 1_555 1_555
C16 S1 1_555 1_555
C17 C16 1_555 1_555
H11 C17 1_555 1_555
C18 N1 1_555 1_555
H12 C18 1_555 1_555
H1M O5 1_555 1_555
Ni1M O5 1_555 1_555
Br1M C6M 1_555 1_555
S1M C11M 1_555 1_555
O1M Ni1M 1_555 1_555
O2M C1M 1_555 1_555
O3M C8M 1_555 1_555
O4M C8M 1_555 1_555
N1M C14M 1_555 1_555
N2M Ni1M 1_555 1_555
C1M O1M 1_555 1_555
C2M C1M 1_555 1_555
C3M C2M 1_555 1_555
H2M C3M 1_555 1_555
C4M C3M 1_555 1_555
C5M C4M 1_555 1_555
H3M C5M 1_555 1_555
C6M C5M 1_555 1_555
C7M C2M 1_555 1_555
H4M C7M 1_555 1_555
C8M C4M 1_555 1_555
C9M N2M 1_555 1_555
H5M C9M 1_555 1_555
C10M C9M 1_555 1_555
H6M C10M 1_555 1_555
C11M C10M 1_555 1_555
C12M C11M 1_555 1_555
H7M C12M 1_555 1_555
C13M N2M 1_555 1_555
H8M C13M 1_555 1_555
C14M H9M 1_555 1_555
C15M C14M 1_555 1_555
H10M C15M 1_555 1_555
C16M S1M 1_555 1_555
C17M C16M 1_555 1_555
H11M C17M 1_555 1_555
C18M N1M 1_555 1_555
H12M C18M 1_555 1_555
Ni1B N1M 1_555 1_555
Ni1C N1 1_555 1_555
Ni1F O3 1_555 1_555
Ni1G O3M 1_555 1_555
Ni1J O4M 1_555 1_555
Ni1K O4 1_555 1_555
O3N Ni1 1_555 1_555
O3O Ni1M 1_555 1_555
O4N Ni1M 1_555 1_555
O4O Ni1 1_555 1_555
N1F Ni1M 1_555 1_555
N1G Ni1 1_555 1_555
C6 C7 1_555 1_555
C12 C13 1_555 1_555
C15 C16 1_555 1_555
C17 C18 1_555 1_555
C6M C7M 1_555 1_555
C12M C13M 1_555 1_555
C15M C16M 1_555 1_555
C17M C18M 1_555 1_555

#END
