
#######################################################################
#
#                 Cambridge Crystallographic Data Centre
#                                CCDC 
#
#######################################################################
#
# If this CIF has been generated from an entry in the Cambridge 
# Structural Database, then it will include bibliographic, chemical, 
# crystal, experimental, refinement or atomic coordinate data resulting 
# from the CCDC's data processing and validation procedures.
#
#######################################################################

data_KAHZAW
_chemical_formula_moiety         '(C28 H42 Eu4 N4 O71 Si1 W12)n'
_symmetry_cell_setting           monoclinic
_symmetry_space_group_name_H-M   'C 2/c'
_symmetry_Int_Tables_number      15
_space_group_name_Hall           '-C 2yc'
loop_
_symmetry_equiv_pos_site_id
_symmetry_equiv_pos_as_xyz
1 x,y,z
2 -x,y,1/2-z
3 1/2+x,1/2+y,z
4 1/2-x,1/2+y,1/2-z
5 -x,-y,-z
6 x,-y,1/2+z
7 1/2-x,1/2-y,-z
8 1/2+x,1/2-y,1/2+z
_cell_length_a                   30.418(6)
_cell_length_b                   16.302(3)
_cell_length_c                   21.780(4)
_cell_angle_alpha                90
_cell_angle_beta                 133.83(3)
_cell_angle_gamma                90
_cell_volume                     7791.2
loop_
_atom_site_label
_atom_site_type_symbol
_atom_site_fract_x
_atom_site_fract_y
_atom_site_fract_z
C1 C 0.3111(7) -0.0672(11) 0.8824(10)
C2 C 0.2819(9) -0.1383(11) 0.8703(12)
H1 H 0.2724 -0.1780 0.8319
C3 C 0.2673(9) -0.1488(12) 0.9175(12)
H2 H 0.2485 -0.1969 0.9123
C4 C 0.2808(10) -0.0870(13) 0.9730(13)
H3 H 0.2690 -0.0913 1.0024
C5 C 0.3122(9) -0.0196(12) 0.9824(11)
C6 C 0.3302(8) -0.0455(11) 0.8371(11)
C7 C 0.3363(9) 0.0505(13) 1.0453(12)
C8 C 0.0685(9) 0.2420(11) 0.6307(11)
C9 C 0.0475(8) 0.1768(10) 0.5745(10)
H4 H 0.0075 0.1738 0.5220
C10 C 0.0908(9) 0.1159(12) 0.6021(12)
H5 H 0.0797 0.0727 0.5658
C11 C 0.1496(9) 0.1188(12) 0.6821(12)
H6 H 0.1770 0.0762 0.7015
C12 C 0.1664(7) 0.1867(10) 0.7323(10)
C13 C 0.0297(9) 0.3150(13) 0.6063(13)
C14 C 0.2323(8) 0.2011(11) 0.8186(11)
N1 N 0.3261(7) -0.0079(9) 0.9362(9)
N2 N 0.1266(6) 0.2460(8) 0.7080(9)
O1 O 0.0487(9) 0.3725(19) 0.6594(14)
O3 O 0.2598(8) 0.4325(11) 0.9045(11)
O4 O 0.2396(5) 0.2669(7) 0.8538(8)
O5 O 0.3655(7) 0.2569(10) 0.9801(10)
O6 O 0.3607(7) 0.1082(8) 1.0439(8)
O7 O 0.3815(8) 0.1900(11) 0.8612(11)
O8 O 0.3574(6) 0.0201(8) 0.8535(8)
O9 O 0.4610(8) 0.0205(11) 1.0522(11)
O10 O 0.2718(6) 0.1495(8) 0.8431(8)
O11 O -0.0263(7) 0.3097(10) 0.5448(9)
O12 O 0.1269(6) 0.5105(9) 0.7532(9)
O13 O 0.3249(7) 0.0461(9) 1.0906(9)
O14 O 0.3169(6) -0.0976(8) 0.7822(8)
O17 O 0.1714(14) 0.2768(17) 0.8949(19)
Eu1 Eu 0.37898(4) 0.11961(5) 0.95473(5)
Eu2 Eu 0.15985(4) 0.37126(5) 0.80110(6)
C1F C 0.1889(7) 0.5672(11) 1.1176(10)
C2F C 0.2181(9) 0.6383(11) 1.1297(12)
H1F H 0.2276 0.6780 1.1681
C3F C 0.2327(9) 0.6488(12) 1.0825(12)
H2F H 0.2515 0.6969 1.0877
C4F C 0.2192(10) 0.5870(13) 1.0270(13)
H3F H 0.2310 0.5913 0.9976
C5F C 0.1878(9) 0.5196(12) 1.0176(11)
C6F C 0.1698(8) 0.5455(11) 1.1629(11)
C7F C 0.1637(9) 0.4495(13) 0.9547(12)
C8G C 0.5685(9) 0.2580(11) 1.1307(11)
C9G C 0.5475(8) 0.3232(10) 1.0745(10)
H4G H 0.5075 0.3262 1.0220
C10G C 0.5908(9) 0.3841(12) 1.1021(12)
H5G H 0.5797 0.4273 1.0658
C11G C 0.6496(9) 0.3812(12) 1.1821(12)
H6G H 0.6770 0.4238 1.2015
C12G C 0.6664(7) 0.3133(10) 1.2323(10)
C13G C 0.5297(9) 0.1850(13) 1.1063(13)
C14G C 0.7323(8) 0.2989(11) 1.3186(11)
N1F N 0.1739(7) 0.5079(9) 1.0638(9)
N1G N 0.8261(7) 0.5079(9) 1.4362(9)
N2G N 0.6266(6) 0.2540(8) 1.2080(9)
O1G O 0.5487(9) 0.1275(19) 1.1594(14)
O3G O 0.7598(8) 0.0675(11) 1.4045(11)
O4G O 0.7396(5) 0.2331(7) 1.3538(8)
O5G O 0.8655(7) 0.2431(10) 1.4801(10)
O6F O 0.1393(7) 0.3918(8) 0.9561(8)
O6G O 0.8607(7) 0.3918(8) 1.5439(8)
O7G O 0.8815(8) 0.3100(11) 1.3612(11)
O8F O 0.1426(6) 0.4799(8) 1.1465(8)
O8G O 0.8574(6) 0.4799(8) 1.3535(8)
O9G O 0.9610(8) 0.4795(11) 1.5522(11)
O10G O 0.7718(6) 0.3505(8) 1.3431(8)
O11G O 0.4737(7) 0.1903(10) 1.0448(9)
O11_2 O 0.9737(7) 0.3097(10) 1.5448(9)
O12G O 0.6269(6) -0.0105(9) 1.2532(9)
O13F O 0.1751(7) 0.4539(9) 0.9094(9)
O13A O 0.6751(7) 0.0461(9) 1.4094(9)
O14F O 0.1831(6) 0.5976(8) 1.2178(8)
O14C O 0.1831(6) 0.4024(8) 0.7178(8)
O14D O 0.6831(6) 0.0976(8) 1.2178(8)
O17G O 0.6714(14) 0.2232(17) 1.3949(19)
Eu1G Eu 0.87898(4) 0.38039(5) 1.45473(5)
Eu1G_2 Eu -0.12102(4) 0.38039(5) 0.45473(5)
Eu1F Eu 0.12102(4) 0.38039(5) 1.04527(5)
Eu2G Eu 0.65985(4) 0.12874(5) 1.30110(6)
Eu2F Eu 0.34015(4) 0.12874(5) 1.19890(6)
Eu2C Eu 0.34015(4) -0.12874(5) 0.69890(6)
Eu2E Eu 0.15985(4) 0.62874(5) 1.30110(6)
O15 O 0.2253(11) 0.3173(15) 1.2869(15)
O16 O 0.1831(10) 0.0473(15) 1.1415(15)
O20 O -0.1569(6) 0.6549(8) 0.6595(8)
O21 O -0.1064(7) 0.8637(8) 0.8574(9)
O22 O -0.2113(6) 0.8937(9) 0.4392(8)
O23 O -0.1659(6) 1.1052(7) 0.6321(8)
O24 O -0.1440(5) 0.9469(7) 0.6039(7)
O25 O 0.0063(6) 0.8099(8) 0.6137(7)
O26 O -0.0639(7) 1.1038(9) 0.5335(9)
O27 O 0.0446(5) 1.0871(7) 0.7081(7)
O28 O -0.1109(5) 0.8129(8) 0.7314(7)
O29 O -0.0432(6) 0.6514(8) 0.5441(8)
O30 O -0.1136(5) 0.7864(7) 0.5143(7)
O31 O 0.0164(6) 0.9708(7) 0.5988(7)
O32 O -0.1272(6) 0.9716(7) 0.7396(8)
O33 O -0.0858(6) 0.6717(8) 0.6219(8)
O34 O -0.0539(5) 0.8218(7) 0.6693(7)
O35 O -0.0898(5) 0.9471(7) 0.5523(7)
O36 O -0.1683(5) 0.7861(7) 0.5694(7)
O37 O -0.0272(5) 0.9361(7) 0.7769(7)
O38 O 0.0317(5) 0.6969(7) 0.7171(7)
O39 O -0.0643(5) 1.0599(7) 0.6559(8)
Si1 Si -0.0000 0.8789(4) 0.7500
W1 W -0.14362(3) 0.87095(4) 0.53819(4)
W2 W -0.02987(3) 1.03260(4) 0.61300(4)
W3 W -0.10891(3) 1.03186(4) 0.68582(4)
W4 W -0.04147(3) 0.72502(4) 0.60283(4)
W5 W -0.07258(4) 0.88706(4) 0.82237(5)
W6 W -0.10976(3) 0.72629(4) 0.67350(4)
O20A O 0.1569(6) 0.6549(8) 0.8405(8)
O21A O 0.1064(7) 0.8637(8) 0.6426(9)
O22A O 0.2113(6) 0.8937(9) 1.0608(8)
O23A O 0.1659(6) 1.1052(7) 0.8679(8)
O24A O 0.1440(5) 0.9469(7) 0.8961(7)
O25A O -0.0063(6) 0.8099(8) 0.8863(7)
O26A O 0.0639(7) 1.1038(9) 0.9665(9)
O27A O -0.0446(5) 1.0871(7) 0.7919(7)
O28A O 0.1109(5) 0.8129(8) 0.7686(7)
O29A O 0.0432(6) 0.6514(8) 0.9559(8)
O30A O 0.1136(5) 0.7864(7) 0.9857(7)
O31A O -0.0164(6) 0.9708(7) 0.9012(7)
O32A O 0.1272(6) 0.9716(7) 0.7604(8)
O33A O 0.0858(6) 0.6717(8) 0.8781(8)
O34A O 0.0539(5) 0.8218(7) 0.8307(7)
O35A O 0.0898(5) 0.9471(7) 0.9477(7)
O36A O 0.1683(5) 0.7861(7) 0.9306(7)
O37A O 0.0272(5) 0.9361(7) 0.7231(7)
O38A O -0.0317(5) 0.6969(7) 0.7829(7)
O39A O 0.0643(5) 1.0599(7) 0.8441(8)
W1A W 0.14362(3) 0.87095(4) 0.96181(4)
W2A W 0.02987(3) 1.03260(4) 0.88700(4)
W3A W 0.10891(3) 1.03186(4) 0.81418(4)
W4A W 0.04147(3) 0.72502(4) 0.89717(4)
W5A W 0.07258(4) 0.88706(4) 0.67763(5)
W6A W 0.10976(3) 0.72629(4) 0.82650(4)
O40 O 0.5000 0.266(4) 1.2500
loop_
_geom_bond_atom_site_label_1
_geom_bond_atom_site_label_2
_geom_bond_site_symmetry_1
_geom_bond_site_symmetry_2
C1 C2 1_555 1_555
C2 H1 1_555 1_555
C3 C2 1_555 1_555
H2 C3 1_555 1_555
C4 C3 1_555 1_555
H3 C4 1_555 1_555
C5 C4 1_555 1_555
C6 C1 1_555 1_555
C7 C5 1_555 1_555
C8 C9 1_555 1_555
C9 H4 1_555 1_555
C10 C9 1_555 1_555
H5 C10 1_555 1_555
C11 C10 1_555 1_555
H6 C11 1_555 1_555
C12 C11 1_555 1_555
C13 C8 1_555 1_555
C14 C12 1_555 1_555
N1 C1 1_555 1_555
N2 C8 1_555 1_555
O1 C13 1_555 1_555
O3 Eu2 1_555 1_555
O4 C14 1_555 1_555
O5 Eu1 1_555 1_555
O6 C7 1_555 1_555
O7 Eu1 1_555 1_555
O8 C6 1_555 1_555
O9 Eu1 1_555 1_555
O10 C14 1_555 1_555
O11 C13 1_555 1_555
O12 Eu2 1_555 1_555
O13 C7 1_555 1_555
O14 C6 1_555 1_555
O17 Eu2 1_555 1_555
O20 W6 1_555 1_555
O21 W5 1_555 1_555
O22 W1 1_555 1_555
O23 W3 1_555 1_555
O24 W1 1_555 1_555
O25 W4 1_555 1_555
O26 W2 1_555 1_555
O27 W2 1_555 1_555
O28 W5 1_555 1_555
O29 W4 1_555 1_555
O30 W1 1_555 1_555
O31 W2 1_555 1_555
O32 W3 1_555 1_555
O33 W4 1_555 1_555
O34 Si1 1_555 1_555
O35 W1 1_555 1_555
O36 W1 1_555 1_555
O37 Si1 1_555 1_555
O38 W4 1_555 1_555
O39 W2 1_555 1_555
Eu1 N1 1_555 1_555
Eu2 N2 1_555 1_555
Si1 O34A 1_555 1_555
W1 O34 1_555 1_555
W2 O35 1_555 1_555
W3 O24 1_555 1_555
W4 O30 1_555 1_555
W5 O32 1_555 1_555
W6 O28 1_555 1_555
C1F C2F 1_555 1_555
C2F H1F 1_555 1_555
C3F C2F 1_555 1_555
H2F C3F 1_555 1_555
C4F C3F 1_555 1_555
H3F C4F 1_555 1_555
C5F C4F 1_555 1_555
C6F C1F 1_555 1_555
C7F C5F 1_555 1_555
C8G C9G 1_555 1_555
C9G H4G 1_555 1_555
C10G C9G 1_555 1_555
H5G C10G 1_555 1_555
C11G C10G 1_555 1_555
H6G C11G 1_555 1_555
C12G C11G 1_555 1_555
C13G C8G 1_555 1_555
C14G C12G 1_555 1_555
N1F C1F 1_555 1_555
N1G Eu1G 1_555 1_555
N2G C8G 1_555 1_555
O1G C13G 1_555 1_555
O3G Eu2G 1_555 1_555
O4G C14G 1_555 1_555
O5G Eu1G 1_555 1_555
O6F C7F 1_555 1_555
O6G Eu1G 1_555 1_555
O7G Eu1G 1_555 1_555
O8F C6F 1_555 1_555
O8G Eu1G 1_555 1_555
O9G Eu1G 1_555 1_555
O10G C14G 1_555 1_555
O11G Eu1 1_555 1_555
O11_2 Eu1G 1_555 1_555
O12G Eu2G 1_555 1_555
O13F Eu2 1_555 1_555
O13A Eu2G 1_555 1_555
O14F C6F 1_555 1_555
O14C Eu2 1_555 1_555
O14D Eu2G 1_555 1_555
O17G Eu2G 1_555 1_555
O20A W6A 1_555 1_555
O21A W5A 1_555 1_555
O22A W1A 1_555 1_555
O23A W3A 1_555 1_555
O24A W1A 1_555 1_555
O25A W5 1_555 1_555
O26A W2A 1_555 1_555
O27A W3 1_555 1_555
O28A W5A 1_555 1_555
O29A W4A 1_555 1_555
O30A W1A 1_555 1_555
O31A W5 1_555 1_555
O32A W3A 1_555 1_555
O33A W4A 1_555 1_555
O34A W1A 1_555 1_555
O35A W1A 1_555 1_555
O36A W1A 1_555 1_555
O37A Si1 1_555 1_555
O38A W6 1_555 1_555
O39A W2A 1_555 1_555
Eu1G O10G 1_555 1_555
Eu1G_2 O11 1_555 1_555
Eu1F N1F 1_555 1_555
Eu2G N2G 1_555 1_555
Eu2F O13 1_555 1_555
Eu2C O14 1_555 1_555
Eu2E O14F 1_555 1_555
W2A O37 1_555 1_555
W3A O27 1_555 1_555
W4A O25A 1_555 1_555
W5A O25 1_555 1_555
W6A O38 1_555 1_555
C5 N1 1_555 1_555
C12 N2 1_555 1_555
O1 Eu2 1_555 1_555
O4 Eu2 1_555 1_555
O6 Eu1 1_555 1_555
O8 Eu1 1_555 1_555
O10 Eu1 1_555 1_555
O31 W5A 1_555 1_555
O33 W6 1_555 1_555
O34 W4 1_555 1_555
O34 W6 1_555 1_555
O36 W6 1_555 1_555
O37 W3 1_555 1_555
O37 W5 1_555 1_555
O39 W3 1_555 1_555
W2 O37A 1_555 1_555
C5F N1F 1_555 1_555
C7F O13F 1_555 1_555
C12G N2G 1_555 1_555
C13G O11G 1_555 1_555
O1G Eu2G 1_555 1_555
O4G Eu2G 1_555 1_555
O6F Eu1F 1_555 1_555
O8F Eu1F 1_555 1_555
O24A W3A 1_555 1_555
O27A W2A 1_555 1_555
O28A W6A 1_555 1_555
O30A W4A 1_555 1_555
O31A W2A 1_555 1_555
O32A W5A 1_555 1_555
O33A W6A 1_555 1_555
O34A W4A 1_555 1_555
O34A W6A 1_555 1_555
O35A W2A 1_555 1_555
O36A W6A 1_555 1_555
O37A W3A 1_555 1_555
O37A W5A 1_555 1_555
O38A W4A 1_555 1_555
O39A W3A 1_555 1_555

#END
