
#######################################################################
#
#                 Cambridge Crystallographic Data Centre
#                                CCDC 
#
#######################################################################
#
# If this CIF has been generated from an entry in the Cambridge 
# Structural Database, then it will include bibliographic, chemical, 
# crystal, experimental, refinement or atomic coordinate data resulting 
# from the CCDC's data processing and validation procedures.
#
#######################################################################

data_EZIPEK
_chemical_formula_moiety         'C24 H24 Eu11 N12 O27'
_symmetry_cell_setting           cubic
_symmetry_space_group_name_H-M   'F m -3 m'
_symmetry_Int_Tables_number      225
_space_group_name_Hall           '-F 4 2 3'
loop_
_symmetry_equiv_pos_site_id
_symmetry_equiv_pos_as_xyz
1 x,y,z
2 -y,x,z
3 -x,-y,z
4 y,-x,z
5 x,-z,y
6 x,-y,-z
7 x,z,-y
8 z,y,-x
9 -x,y,-z
10 -z,y,x
11 z,x,y
12 y,z,x
13 -y,-z,x
14 z,-x,-y
15 -y,z,-x
16 -z,-x,y
17 -z,x,-y
18 y,-z,-x
19 y,x,-z
20 -y,-x,-z
21 -x,z,y
22 -x,-z,-y
23 z,-y,x
24 -z,-y,-x
25 x,1/2+y,1/2+z
26 -y,1/2+x,1/2+z
27 -x,1/2-y,1/2+z
28 y,1/2-x,1/2+z
29 x,1/2-z,1/2+y
30 x,1/2-y,1/2-z
31 x,1/2+z,1/2-y
32 z,1/2+y,1/2-x
33 -x,1/2+y,1/2-z
34 -z,1/2+y,1/2+x
35 z,1/2+x,1/2+y
36 y,1/2+z,1/2+x
37 -y,1/2-z,1/2+x
38 z,1/2-x,1/2-y
39 -y,1/2+z,1/2-x
40 -z,1/2-x,1/2+y
41 -z,1/2+x,1/2-y
42 y,1/2-z,1/2-x
43 y,1/2+x,1/2-z
44 -y,1/2-x,1/2-z
45 -x,1/2+z,1/2+y
46 -x,1/2-z,1/2-y
47 z,1/2-y,1/2+x
48 -z,1/2-y,1/2-x
49 1/2+x,y,1/2+z
50 1/2-y,x,1/2+z
51 1/2-x,-y,1/2+z
52 1/2+y,-x,1/2+z
53 1/2+x,-z,1/2+y
54 1/2+x,-y,1/2-z
55 1/2+x,z,1/2-y
56 1/2+z,y,1/2-x
57 1/2-x,y,1/2-z
58 1/2-z,y,1/2+x
59 1/2+z,x,1/2+y
60 1/2+y,z,1/2+x
61 1/2-y,-z,1/2+x
62 1/2+z,-x,1/2-y
63 1/2-y,z,1/2-x
64 1/2-z,-x,1/2+y
65 1/2-z,x,1/2-y
66 1/2+y,-z,1/2-x
67 1/2+y,x,1/2-z
68 1/2-y,-x,1/2-z
69 1/2-x,z,1/2+y
70 1/2-x,-z,1/2-y
71 1/2+z,-y,1/2+x
72 1/2-z,-y,1/2-x
73 1/2+x,1/2+y,z
74 1/2-y,1/2+x,z
75 1/2-x,1/2-y,z
76 1/2+y,1/2-x,z
77 1/2+x,1/2-z,y
78 1/2+x,1/2-y,-z
79 1/2+x,1/2+z,-y
80 1/2+z,1/2+y,-x
81 1/2-x,1/2+y,-z
82 1/2-z,1/2+y,x
83 1/2+z,1/2+x,y
84 1/2+y,1/2+z,x
85 1/2-y,1/2-z,x
86 1/2+z,1/2-x,-y
87 1/2-y,1/2+z,-x
88 1/2-z,1/2-x,y
89 1/2-z,1/2+x,-y
90 1/2+y,1/2-z,-x
91 1/2+y,1/2+x,-z
92 1/2-y,1/2-x,-z
93 1/2-x,1/2+z,y
94 1/2-x,1/2-z,-y
95 1/2+z,1/2-y,x
96 1/2-z,1/2-y,-x
97 -x,-y,-z
98 y,-x,-z
99 x,y,-z
100 -y,x,-z
101 -x,z,-y
102 -x,y,z
103 -x,-z,y
104 -z,-y,x
105 x,-y,z
106 z,-y,-x
107 -z,-x,-y
108 -y,-z,-x
109 y,z,-x
110 -z,x,y
111 y,-z,x
112 z,x,-y
113 z,-x,y
114 -y,z,x
115 -y,-x,z
116 y,x,z
117 x,-z,-y
118 x,z,y
119 -z,y,-x
120 z,y,x
121 -x,1/2-y,1/2-z
122 y,1/2-x,1/2-z
123 x,1/2+y,1/2-z
124 -y,1/2+x,1/2-z
125 -x,1/2+z,1/2-y
126 -x,1/2+y,1/2+z
127 -x,1/2-z,1/2+y
128 -z,1/2-y,1/2+x
129 x,1/2-y,1/2+z
130 z,1/2-y,1/2-x
131 -z,1/2-x,1/2-y
132 -y,1/2-z,1/2-x
133 y,1/2+z,1/2-x
134 -z,1/2+x,1/2+y
135 y,1/2-z,1/2+x
136 z,1/2+x,1/2-y
137 z,1/2-x,1/2+y
138 -y,1/2+z,1/2+x
139 -y,1/2-x,1/2+z
140 y,1/2+x,1/2+z
141 x,1/2-z,1/2-y
142 x,1/2+z,1/2+y
143 -z,1/2+y,1/2-x
144 z,1/2+y,1/2+x
145 1/2-x,-y,1/2-z
146 1/2+y,-x,1/2-z
147 1/2+x,y,1/2-z
148 1/2-y,x,1/2-z
149 1/2-x,z,1/2-y
150 1/2-x,y,1/2+z
151 1/2-x,-z,1/2+y
152 1/2-z,-y,1/2+x
153 1/2+x,-y,1/2+z
154 1/2+z,-y,1/2-x
155 1/2-z,-x,1/2-y
156 1/2-y,-z,1/2-x
157 1/2+y,z,1/2-x
158 1/2-z,x,1/2+y
159 1/2+y,-z,1/2+x
160 1/2+z,x,1/2-y
161 1/2+z,-x,1/2+y
162 1/2-y,z,1/2+x
163 1/2-y,-x,1/2+z
164 1/2+y,x,1/2+z
165 1/2+x,-z,1/2-y
166 1/2+x,z,1/2+y
167 1/2-z,y,1/2-x
168 1/2+z,y,1/2+x
169 1/2-x,1/2-y,-z
170 1/2+y,1/2-x,-z
171 1/2+x,1/2+y,-z
172 1/2-y,1/2+x,-z
173 1/2-x,1/2+z,-y
174 1/2-x,1/2+y,z
175 1/2-x,1/2-z,y
176 1/2-z,1/2-y,x
177 1/2+x,1/2-y,z
178 1/2+z,1/2-y,-x
179 1/2-z,1/2-x,-y
180 1/2-y,1/2-z,-x
181 1/2+y,1/2+z,-x
182 1/2-z,1/2+x,y
183 1/2+y,1/2-z,x
184 1/2+z,1/2+x,-y
185 1/2+z,1/2-x,y
186 1/2-y,1/2+z,x
187 1/2-y,1/2-x,z
188 1/2+y,1/2+x,z
189 1/2+x,1/2-z,-y
190 1/2+x,1/2+z,y
191 1/2-z,1/2+y,-x
192 1/2+z,1/2+y,x
_cell_length_a                   21.713(3)
_cell_length_b                   21.713(3)
_cell_length_c                   21.713(3)
_cell_angle_alpha                90
_cell_angle_beta                 90
_cell_angle_gamma                90
_cell_volume                     10236.7
loop_
_atom_site_label
_atom_site_type_symbol
_atom_site_fract_x
_atom_site_fract_y
_atom_site_fract_z
Eu1 Eu 0.0000 0.0000 0.12945(2)
O1 O 0.05889(11) 0.05889(11) 0.05889(11)
O2 O 0.0000 -0.09919(18) 0.17422(14)
N1 N 0.0000 -0.1274(4) 0.2625(2)
H1 H -0.0415 -0.0829 0.2545
C1 C 0.0000 -0.1551(3) 0.1551(3)
C2 C 0.0000 -0.2042(4) 0.2042(4)
C3 C 0.0000 -0.1898(4) 0.2653(4)
O2U O -0.0000 -0.17422(14) 0.09919(18)
N1U N -0.0000 -0.2625(2) 0.1274(4)
H1U H 0.0415 -0.2545 0.0829
C3U C -0.0000 -0.2653(4) 0.1898(4)
O2RA O 0.0000 -0.32578(14) 0.40081(18)
N1RA N -0.0000 -0.2375(2) 0.3726(4)
H1RA H 0.0415 -0.2455 0.4171
C1CA C 0.0000 -0.3449(3) 0.3449(3)
C2CA C 0.0000 -0.2958(4) 0.2958(4)
C3RA C 0.0000 -0.2347(4) 0.3102(4)
H1WC H 0.0415 -0.0829 0.2545
H1LD H -0.0415 -0.2545 0.0829
H1KE H -0.0415 -0.2455 0.4171
O2CA O 0.0000 -0.40081(18) 0.32578(14)
N1CA N 0.0000 -0.3726(4) 0.2375(2)
H1CA H -0.0415 -0.4171 0.2455
C3CA C -0.0000 -0.3102(4) 0.2347(4)
H1PD H 0.0415 -0.4171 0.2455
O1A O -0.05889(11) 0.05889(11) 0.05889(11)
O2A O 0.09919(18) 0.0000 0.17422(14)
N1A N 0.1274(4) 0.0000 0.2625(2)
H1A H 0.0829 -0.0415 0.2545
C1A C 0.1551(3) 0.0000 0.1551(3)
C2A C 0.2042(4) 0.0000 0.2042(4)
C3A C 0.1898(4) 0.0000 0.2653(4)
O2M O 0.17422(14) 0.0000 0.09919(18)
N1M N 0.2625(2) 0.0000 0.1274(4)
H1M H 0.2545 0.0415 0.0829
C3M C 0.2653(4) 0.0000 0.1898(4)
O2KB O 0.32578(14) 0.0000 0.40081(18)
N1KB N 0.2375(2) 0.0000 0.3726(4)
H1KB H 0.2455 0.0415 0.4171
C1KB C 0.3449(3) 0.0000 0.3449(3)
C2KB C 0.2958(4) 0.0000 0.2958(4)
C3KB C 0.2347(4) 0.0000 0.3102(4)
H1JD H 0.0829 0.0415 0.2545
H1GD H 0.2545 -0.0415 0.0829
H1AF H 0.2455 -0.0415 0.4171
O2NB O 0.40081(18) 0.0000 0.32578(14)
N1NB N 0.3726(4) 0.0000 0.2375(2)
H1NB H 0.4171 -0.0415 0.2455
C3NB C 0.3102(4) 0.0000 0.2347(4)
H1OE H 0.4171 0.0415 0.2455
O1B O -0.05889(11) -0.05889(11) 0.05889(11)
O2B O 0.0000 0.09919(18) 0.17422(14)
N1B N 0.0000 0.1274(4) 0.2625(2)
H1B H 0.0415 0.0829 0.2545
C1B C 0.0000 0.1551(3) 0.1551(3)
C2B C 0.0000 0.2042(4) 0.2042(4)
C3B C 0.0000 0.1898(4) 0.2653(4)
O2F O 0.0000 0.17422(14) 0.09919(18)
N1F N 0.0000 0.2625(2) 0.1274(4)
H1F H -0.0415 0.2545 0.0829
C3F C 0.0000 0.2653(4) 0.1898(4)
O2BA O 0.0000 0.32578(14) 0.40081(18)
N1BA N 0.0000 0.2375(2) 0.3726(4)
H1BA H -0.0415 0.2455 0.4171
C1BA C 0.0000 0.3449(3) 0.3449(3)
C2BA C 0.0000 0.2958(4) 0.2958(4)
C3BA C 0.0000 0.2347(4) 0.3102(4)
H1ZC H -0.0415 0.0829 0.2545
H1VC H 0.0415 0.2545 0.0829
H1VD H 0.0415 0.2455 0.4171
O2FA O 0.0000 0.40081(18) 0.32578(14)
N1FA N 0.0000 0.3726(4) 0.2375(2)
H1FA H 0.0415 0.4171 0.2455
C3FA C 0.0000 0.3102(4) 0.2347(4)
H1RD H -0.0415 0.4171 0.2455
O1C O 0.05889(11) -0.05889(11) 0.05889(11)
Eu1D Eu -0.0000 -0.12945(2) 0.0000
Eu1F Eu 0.0000 0.12945(2) 0.0000
Eu1G Eu 0.12945(2) 0.0000 0.0000
Eu1I Eu -0.12945(2) 0.0000 0.0000
Eu1BA Eu -0.0000 0.37055(2) 0.5000
Eu1CA Eu 0.0000 -0.5000 0.37055(2)
Eu1CA_2 Eu -0.0000 0.5000 0.37055(2)
Eu1DA Eu 0.0000 -0.37055(2) 0.5000
Eu1AB Eu 0.5000 0.0000 0.37055(2)
Eu1EB Eu 0.37055(2) 0.0000 0.5000
O1E O 0.05889(11) -0.05889(11) -0.05889(11)
O1F O 0.05889(11) 0.05889(11) -0.05889(11)
O1H O -0.05889(11) 0.05889(11) -0.05889(11)
O1S O -0.05889(11) -0.05889(11) -0.05889(11)
O2C O -0.09919(18) 0.0000 0.17422(14)
O2D O -0.0000 -0.17422(14) -0.09919(18)
O2K O -0.09919(18) 0.17422(14) 0.0000
O2L O 0.09919(18) -0.17422(14) 0.0000
O2N O 0.09919(18) 0.17422(14) 0.0000
O2Q O -0.09919(18) -0.17422(14) 0.0000
O2T O 0.0000 0.17422(14) -0.09919(18)
loop_
_geom_bond_atom_site_label_1
_geom_bond_atom_site_label_2
_geom_bond_site_symmetry_1
_geom_bond_site_symmetry_2
Eu1 O1 1_555 1_555
O1 Eu1F 1_555 1_555
O2 Eu1 1_555 1_555
N1 H1 1_555 1_555
C1 O2 1_555 1_555
C2 C1 1_555 1_555
C3 N1 1_555 1_555
O2U C1 1_555 1_555
N1U H1U 1_555 1_555
C3U C2 1_555 1_555
O2RA C1CA 1_555 1_555
N1RA H1RA 1_555 1_555
C1CA C2CA 1_555 1_555
C2CA C3RA 1_555 1_555
C3RA C3 1_555 1_555
H1WC N1 1_555 1_555
H1LD N1U 1_555 1_555
H1KE N1RA 1_555 1_555
O2CA C1CA 1_555 1_555
N1CA H1CA 1_555 1_555
C3CA C3U 1_555 1_555
H1PD N1CA 1_555 1_555
O1A Eu1 1_555 1_555
O2A Eu1 1_555 1_555
N1A H1A 1_555 1_555
C1A O2A 1_555 1_555
C2A C1A 1_555 1_555
C3A N1A 1_555 1_555
O2M C1A 1_555 1_555
N1M H1M 1_555 1_555
C3M C2A 1_555 1_555
O2KB C1KB 1_555 1_555
N1KB H1KB 1_555 1_555
C1KB C2KB 1_555 1_555
C2KB C3KB 1_555 1_555
C3KB C3A 1_555 1_555
H1JD N1A 1_555 1_555
H1GD N1M 1_555 1_555
H1AF N1KB 1_555 1_555
O2NB C1KB 1_555 1_555
N1NB H1NB 1_555 1_555
C3NB C3M 1_555 1_555
H1OE N1NB 1_555 1_555
O1B Eu1 1_555 1_555
O2B Eu1 1_555 1_555
N1B H1B 1_555 1_555
C1B O2B 1_555 1_555
C2B C1B 1_555 1_555
C3B N1B 1_555 1_555
O2F C1B 1_555 1_555
N1F H1F 1_555 1_555
C3F C2B 1_555 1_555
O2BA C1BA 1_555 1_555
N1BA H1BA 1_555 1_555
C1BA C2BA 1_555 1_555
C2BA C3BA 1_555 1_555
C3BA C3B 1_555 1_555
H1ZC N1B 1_555 1_555
H1VC N1F 1_555 1_555
H1VD N1BA 1_555 1_555
O2FA C1BA 1_555 1_555
N1FA H1FA 1_555 1_555
C3FA C3F 1_555 1_555
H1RD N1FA 1_555 1_555
O1C Eu1 1_555 1_555
Eu1D O2U 1_555 1_555
Eu1F O1A 1_555 1_555
Eu1G O1 1_555 1_555
Eu1I O1A 1_555 1_555
Eu1BA O2BA 1_555 1_555
Eu1CA O2CA 1_555 1_555
Eu1CA_2 O2FA 1_555 1_555
Eu1DA O2RA 1_555 1_555
Eu1AB O2NB 1_555 1_555
Eu1EB O2KB 1_555 1_555
O1E Eu1D 1_555 1_555
O1F Eu1F 1_555 1_555
O1H Eu1F 1_555 1_555
O1S Eu1D 1_555 1_555
O2C Eu1 1_555 1_555
O2D Eu1D 1_555 1_555
O2K Eu1F 1_555 1_555
O2L Eu1D 1_555 1_555
O2N Eu1F 1_555 1_555
O2Q Eu1D 1_555 1_555
O2T Eu1F 1_555 1_555
C2 C3 1_555 1_555
N1U C3U 1_555 1_555
N1RA C3RA 1_555 1_555
C2CA C3CA 1_555 1_555
N1CA C3CA 1_555 1_555
C2A C3A 1_555 1_555
O2M Eu1G 1_555 1_555
N1M C3M 1_555 1_555
N1KB C3KB 1_555 1_555
C2KB C3NB 1_555 1_555
N1NB C3NB 1_555 1_555
O1B Eu1D 1_555 1_555
O1B Eu1I 1_555 1_555
C2B C3B 1_555 1_555
O2F Eu1F 1_555 1_555
N1F C3F 1_555 1_555
N1BA C3BA 1_555 1_555
C2BA C3FA 1_555 1_555
N1FA C3FA 1_555 1_555
O1C Eu1D 1_555 1_555
O1C Eu1G 1_555 1_555
Eu1G O1E 1_555 1_555
Eu1G O1F 1_555 1_555
Eu1I O1H 1_555 1_555
Eu1I O1S 1_555 1_555

#END
