
#######################################################################
#
#                 Cambridge Crystallographic Data Centre
#                                CCDC 
#
#######################################################################
#
# If this CIF has been generated from an entry in the Cambridge 
# Structural Database, then it will include bibliographic, chemical, 
# crystal, experimental, refinement or atomic coordinate data resulting 
# from the CCDC's data processing and validation procedures.
#
#######################################################################

data_IBARUA
_chemical_formula_moiety         '(C24 H34 Cu3 Er2 N6 O26)n'
_symmetry_cell_setting           trigonal
_symmetry_space_group_name_H-M   'P -3 c 1'
_symmetry_Int_Tables_number      165
_space_group_name_Hall           '-P 3 2"c'
loop_
_symmetry_equiv_pos_site_id
_symmetry_equiv_pos_as_xyz
1 x,y,z
2 -y,x-y,z
3 -x+y,-x,z
4 x-y,-y,1/2-z
5 -x,-x+y,1/2-z
6 y,x,1/2-z
7 -x,-y,-z
8 y,-x+y,-z
9 x-y,x,-z
10 -x+y,y,1/2+z
11 x,x-y,1/2+z
12 -y,-x,1/2+z
_cell_length_a                   13.3473(8)
_cell_length_b                   13.3473(8)
_cell_length_c                   14.2599(8)
_cell_angle_alpha                90
_cell_angle_beta                 90
_cell_angle_gamma                120
_cell_volume                     2200.06
loop_
_atom_site_label
_atom_site_type_symbol
_atom_site_fract_x
_atom_site_fract_y
_atom_site_fract_z
Er1 Er 0.6667 0.3333 0.666955(16)
Cu1 Cu 0.5000 0.5000 0.5000
O1 O 0.5501(2) 0.3598(2) 0.55926(19)
O2 O 0.4401(2) 0.1927(2) 0.62798(19)
O3 O 0.5980(2) 0.5243(2) 0.39091(18)
O4 O 0.6206(2) 0.4345(2) 0.26997(18)
N1 N 0.3904(2) 0.3473(2) 0.44087(19)
C1 C 0.4533(3) 0.2678(3) 0.5698(2)
C2 C 0.3526(3) 0.2539(3) 0.5114(2)
C3 C 0.4487(3) 0.3308(3) 0.3589(2)
C4 C 0.5634(2) 0.4367(3) 0.3383(2)
H1 H 0.3271 0.3497 0.4203
H2 H 0.3171 0.1796 0.4798
H3 H 0.2950 0.2551 0.5521
H4 H 0.3990 0.3123 0.3044
H5 H 0.4605 0.2660 0.3707
Er1I Er 0.6666 0.3333 1.166955(16)
Er1I_2 Er 0.6666 0.3333 0.166955(16)
Cu1C Cu 1.0000 0.5000 1.0000
Cu1B Cu 1.0000 0.5000 0.5000
Cu1A Cu 0.5000 0.0000 0.5000
Cu1D Cu 0.5000 0.0000 1.0000
Cu1E Cu 0.5000 0.5000 1.0000
O1I O 0.8097(3) 0.3598(2) 1.05926(19)
O1B O 0.8097(3) 0.4499(2) 0.55926(19)
O1A O 0.6402(2) 0.1903(3) 0.55926(19)
O1J O 0.5501(2) 0.1903(3) 1.05926(19)
O1K O 0.6402(2) 0.4499(2) 1.05926(19)
O1F O 0.4499(2) 0.6402(2) 0.44074(19)
O1C O 1.1903(3) 0.6402(2) 0.94074(19)
O1H O 1.1903(3) 0.5501(2) 0.44074(19)
O2I O 0.7526(3) 0.1927(2) 1.12798(19)
O2B O 0.7526(3) 0.5599(2) 0.62798(19)
O2A O 0.8073(2) 0.2474(3) 0.62798(19)
O2J O 0.4401(2) 0.2474(3) 1.12798(19)
O2K O 0.8073(2) 0.5599(2) 1.12798(19)
O3I O 0.9263(3) 0.5243(2) 0.89091(18)
O3B O 0.9263(3) 0.4020(2) 0.39091(18)
O3A O 0.4757(2) 0.0737(3) 0.39091(18)
O3J O 0.5980(2) 0.0737(3) 0.89091(18)
O3K O 0.4757(2) 0.4020(2) 0.89091(18)
O3F O 0.4020(2) 0.4757(2) 0.60909(18)
O3C O 1.0737(3) 0.4757(2) 1.10909(18)
O3H O 1.0737(3) 0.5980(2) 0.60909(18)
O4I O 0.8139(3) 0.4345(2) 0.76997(18)
O4B O 0.8139(3) 0.3794(2) 0.26997(18)
O4A O 0.5655(2) 0.1861(3) 0.26997(18)
O4J O 0.6206(2) 0.1861(3) 0.76997(18)
O4K O 0.5655(2) 0.3794(2) 0.76997(18)
O4_2 O 0.6206(2) 0.4345(2) 1.26997(18)
O4A_2 O 0.5655(2) 0.1861(3) 1.26997(18)
O4B_2 O 0.8139(3) 0.3794(2) 1.26997(18)
N1I N 0.9569(3) 0.3473(2) 0.94087(19)
N1B N 0.9569(3) 0.6096(2) 0.44087(19)
N1A N 0.6527(2) 0.0431(3) 0.44087(19)
N1J N 0.3904(2) 0.0431(3) 0.94087(19)
N1K N 0.6527(2) 0.6096(2) 0.94087(19)
N1F N 0.6096(2) 0.6527(2) 0.55913(19)
N1C N 1.0431(3) 0.6527(2) 1.05913(19)
N1H N 1.0431(3) 0.3904(2) 0.55913(19)
C1I C 0.8145(4) 0.2678(3) 1.0698(2)
C1B C 0.8145(4) 0.5467(3) 0.5698(2)
C1A C 0.7322(3) 0.1855(4) 0.5698(2)
C1J C 0.4533(3) 0.1855(4) 1.0698(2)
C1K C 0.7322(3) 0.5467(3) 1.0698(2)
C2I C 0.9013(4) 0.2539(3) 1.0114(2)
C2B C 0.9013(4) 0.6474(3) 0.5114(2)
C2A C 0.7461(3) 0.0987(4) 0.5114(2)
C2J C 0.3526(3) 0.0987(4) 1.0114(2)
C2K C 0.7461(3) 0.6474(3) 1.0114(2)
C3I C 0.8821(4) 0.3308(3) 0.8589(2)
C3B C 0.8821(4) 0.5513(3) 0.3589(2)
C3A C 0.6692(3) 0.1179(4) 0.3589(2)
C3J C 0.4487(3) 0.1179(4) 0.8589(2)
C3K C 0.6692(3) 0.5513(3) 0.8589(2)
C4I C 0.8733(4) 0.4367(3) 0.8383(2)
C4B C 0.8733(4) 0.4366(2) 0.3383(2)
C4A C 0.5633(3) 0.1267(4) 0.3383(2)
C4J C 0.5634(2) 0.1267(4) 0.8383(2)
C4K C 0.5633(3) 0.4366(2) 0.8383(2)
H1I H 1.0226 0.3497 0.9203
H1B H 1.0226 0.6729 0.4203
H1A H 0.6503 -0.0226 0.4203
H1J H 0.3271 -0.0226 0.9203
H1K H 0.6503 0.6729 0.9203
H1F H 0.6729 0.6503 0.5797
H1C H 0.9774 0.6503 1.0797
H1H H 0.9774 0.3271 0.5797
H2I H 0.8625 0.1796 0.9798
H2B H 0.8625 0.6829 0.4798
H2A H 0.8204 0.1375 0.4798
H2J H 0.3171 0.1375 0.9798
H2K H 0.8204 0.6829 0.9798
H3I H 0.9601 0.2551 1.0521
H3B H 0.9601 0.7050 0.5521
H3A H 0.7449 0.0399 0.5521
H3J H 0.2950 0.0399 1.0521
H3K H 0.7449 0.7050 1.0521
H4I H 0.9133 0.3123 0.8044
H4B H 0.9133 0.6010 0.3044
H4A H 0.6877 0.0867 0.3044
H4J H 0.3990 0.0867 0.8044
H4K H 0.6877 0.6010 0.8044
H5I H 0.8055 0.2660 0.8707
H5B H 0.8055 0.5395 0.3707
H5A H 0.7340 0.1945 0.3707
H5J H 0.4605 0.1945 0.8707
H5K H 0.7340 0.5395 0.8707
O5 O 0.2708(8) 0.0000 0.2500
O6 O 0.1570(13) 0.148(2) 0.3329(11)
loop_
_geom_bond_atom_site_label_1
_geom_bond_atom_site_label_2
_geom_bond_site_symmetry_1
_geom_bond_site_symmetry_2
Er1 O1 1_555 1_555
Cu1 O1 1_555 1_555
O1 C1 1_555 1_555
O2 Er1 1_555 1_555
O3 Cu1 1_555 1_555
O4 C4 1_555 1_555
N1 Cu1 1_555 1_555
C1 O2 1_555 1_555
C2 N1 1_555 1_555
C3 N1 1_555 1_555
C4 O3 1_555 1_555
H1 N1 1_555 1_555
H2 C2 1_555 1_555
H3 C2 1_555 1_555
H4 C3 1_555 1_555
H5 C3 1_555 1_555
Er1I O1I 1_555 1_555
Er1I_2 O4 1_555 1_555
Cu1C O1I 1_555 1_555
Cu1B O1B 1_555 1_555
Cu1A O1A 1_555 1_555
Cu1D O1J 1_555 1_555
Cu1E O1K 1_555 1_555
O1I C1I 1_555 1_555
O1B Er1 1_555 1_555
O1A Er1 1_555 1_555
O1J Er1I 1_555 1_555
O1K Er1I 1_555 1_555
O1F Cu1 1_555 1_555
O1C Cu1C 1_555 1_555
O1H Cu1B 1_555 1_555
O2I Er1I 1_555 1_555
O2B Er1 1_555 1_555
O2A Er1 1_555 1_555
O2J Er1I 1_555 1_555
O2K Er1I 1_555 1_555
O3I Cu1C 1_555 1_555
O3B Cu1B 1_555 1_555
O3A Cu1A 1_555 1_555
O3J Cu1D 1_555 1_555
O3K Cu1E 1_555 1_555
O3F Cu1 1_555 1_555
O3C Cu1C 1_555 1_555
O3H Cu1B 1_555 1_555
O4I Er1 1_555 1_555
O4B Er1I_2 1_555 1_555
O4A Er1I_2 1_555 1_555
O4J Er1 1_555 1_555
O4K Er1 1_555 1_555
O4_2 Er1I 1_555 1_555
O4A_2 Er1I 1_555 1_555
O4B_2 Er1I 1_555 1_555
N1I Cu1C 1_555 1_555
N1B Cu1B 1_555 1_555
N1A Cu1A 1_555 1_555
N1J Cu1D 1_555 1_555
N1K Cu1E 1_555 1_555
N1F Cu1 1_555 1_555
N1C Cu1C 1_555 1_555
N1H Cu1B 1_555 1_555
C1I O2I 1_555 1_555
C1B O1B 1_555 1_555
C1A O1A 1_555 1_555
C1J O1J 1_555 1_555
C1K O1K 1_555 1_555
C2I N1I 1_555 1_555
C2B N1B 1_555 1_555
C2A N1A 1_555 1_555
C2J N1J 1_555 1_555
C2K N1K 1_555 1_555
C3I N1I 1_555 1_555
C3B N1B 1_555 1_555
C3A N1A 1_555 1_555
C3J N1J 1_555 1_555
C3K N1K 1_555 1_555
C4I O3I 1_555 1_555
C4B O3B 1_555 1_555
C4A O3A 1_555 1_555
C4J O3J 1_555 1_555
C4K O3K 1_555 1_555
H1I N1I 1_555 1_555
H1B N1B 1_555 1_555
H1A N1A 1_555 1_555
H1J N1J 1_555 1_555
H1K N1K 1_555 1_555
H1F N1F 1_555 1_555
H1C N1C 1_555 1_555
H1H N1H 1_555 1_555
H2I C2I 1_555 1_555
H2B C2B 1_555 1_555
H2A C2A 1_555 1_555
H2J C2J 1_555 1_555
H2K C2K 1_555 1_555
H3I C2I 1_555 1_555
H3B C2B 1_555 1_555
H3A C2A 1_555 1_555
H3J C2J 1_555 1_555
H3K C2K 1_555 1_555
H4I C3I 1_555 1_555
H4B C3B 1_555 1_555
H4A C3A 1_555 1_555
H4J C3J 1_555 1_555
H4K C3K 1_555 1_555
H5I C3I 1_555 1_555
H5B C3B 1_555 1_555
H5A C3A 1_555 1_555
H5J C3J 1_555 1_555
H5K C3K 1_555 1_555
C1 C2 1_555 1_555
C3 C4 1_555 1_555
O2B C1B 1_555 1_555
O2A C1A 1_555 1_555
O2J C1J 1_555 1_555
O2K C1K 1_555 1_555
O4I C4I 1_555 1_555
O4B C4B 1_555 1_555
O4A C4A 1_555 1_555
O4J C4J 1_555 1_555
O4K C4K 1_555 1_555
C1I C2I 1_555 1_555
C1B C2B 1_555 1_555
C1A C2A 1_555 1_555
C1J C2J 1_555 1_555
C1K C2K 1_555 1_555
C3I C4I 1_555 1_555
C3B C4B 1_555 1_555
C3A C4A 1_555 1_555
C3J C4J 1_555 1_555
C3K C4K 1_555 1_555

#END
