
#######################################################################
#
#                 Cambridge Crystallographic Data Centre
#                                CCDC 
#
#######################################################################
#
# If this CIF has been generated from an entry in the Cambridge 
# Structural Database, then it will include bibliographic, chemical, 
# crystal, experimental, refinement or atomic coordinate data resulting 
# from the CCDC's data processing and validation procedures.
#
#######################################################################

data_IBATEM
_chemical_formula_moiety         '(C24 H34 Cu3 Gd2 N6 O26)n'
_symmetry_cell_setting           trigonal
_symmetry_space_group_name_H-M   'P -3 c 1'
_symmetry_Int_Tables_number      165
_space_group_name_Hall           '-P 3 2"c'
loop_
_symmetry_equiv_pos_site_id
_symmetry_equiv_pos_as_xyz
1 x,y,z
2 -y,x-y,z
3 -x+y,-x,z
4 x-y,-y,1/2-z
5 -x,-x+y,1/2-z
6 y,x,1/2-z
7 -x,-y,-z
8 y,-x+y,-z
9 x-y,x,-z
10 -x+y,y,1/2+z
11 x,x-y,1/2+z
12 -y,-x,1/2+z
_cell_length_a                   13.4147(10)
_cell_length_b                   13.4147(10)
_cell_length_c                   14.4622(12)
_cell_angle_alpha                90
_cell_angle_beta                 90
_cell_angle_gamma                120
_cell_volume                     2253.86
loop_
_atom_site_label
_atom_site_type_symbol
_atom_site_fract_x
_atom_site_fract_y
_atom_site_fract_z
Gd1 Gd 0.6667 0.3333 0.332699(19)
Cu1 Cu 0.5000 0.5000 0.5000
O1 O 0.5498(2) 0.3619(2) 0.4426(2)
O2 O 0.4421(3) 0.1961(2) 0.3735(2)
O3 O 0.5976(2) 0.5244(2) 0.6080(2)
O4 O 0.6182(3) 0.4350(3) 0.7283(2)
N1 N 0.3903(3) 0.3479(3) 0.5589(2)
C1 C 0.4544(3) 0.2701(3) 0.4320(2)
C2 C 0.3530(3) 0.2545(3) 0.4892(2)
C3 C 0.4480(4) 0.3318(4) 0.6398(2)
C4 C 0.5622(3) 0.4375(3) 0.6603(2)
H1 H 0.2955 0.2551 0.4490
H2 H 0.3183 0.1806 0.5204
H3 H 0.4600 0.2673 0.6284
H4 H 0.3984 0.3133 0.6934
H5 H 0.3273 0.3504 0.5788
Gd1I Gd 0.6666 0.3333 -0.167301(19)
Gd1I_2 Gd 0.6666 0.3333 0.832699(19)
Cu1C Cu 1.0000 0.5000 0.0000
Cu1B Cu 1.0000 0.5000 0.5000
Cu1A Cu 0.5000 0.0000 0.5000
Cu1D Cu 0.5000 0.0000 0.0000
Cu1E Cu 0.5000 0.5000 0.0000
O1I O 0.8121(3) 0.3619(2) -0.0574(2)
O1B O 0.8121(3) 0.4502(2) 0.4426(2)
O1A O 0.6381(2) 0.1879(3) 0.4426(2)
O1J O 0.5498(2) 0.1879(3) -0.0574(2)
O1K O 0.6381(2) 0.4502(2) -0.0574(2)
O1F O 0.4502(2) 0.6381(2) 0.5574(2)
O1C O 1.1879(3) 0.6381(2) 0.0574(2)
O1H O 1.1879(3) 0.5498(2) 0.5574(2)
O2I O 0.7540(4) 0.1961(2) -0.1265(2)
O2B O 0.7540(4) 0.5579(3) 0.3735(2)
O2A O 0.8039(2) 0.2460(4) 0.3735(2)
O2J O 0.4421(3) 0.2460(4) -0.1265(2)
O2K O 0.8039(2) 0.5579(3) -0.1265(2)
O3I O 0.9268(3) 0.5244(2) 0.1080(2)
O3B O 0.9268(3) 0.4024(2) 0.6080(2)
O3A O 0.4756(2) 0.0732(3) 0.6080(2)
O3J O 0.5976(2) 0.0732(3) 0.1080(2)
O3K O 0.4756(2) 0.4024(2) 0.1080(2)
O3F O 0.4024(2) 0.4756(2) 0.3920(2)
O3C O 1.0732(3) 0.4756(2) -0.1080(2)
O3H O 1.0732(3) 0.5976(2) 0.3920(2)
O4I O 0.8168(4) 0.4350(3) 0.2283(2)
O4B O 0.8168(4) 0.3818(3) 0.7283(2)
O4A O 0.5650(3) 0.1832(4) 0.7283(2)
O4J O 0.6182(3) 0.1832(4) 0.2283(2)
O4K O 0.5650(3) 0.3818(3) 0.2283(2)
O4_2 O 0.6182(3) 0.4350(3) -0.2717(2)
O4A_2 O 0.5650(3) 0.1832(4) -0.2717(2)
O4B_2 O 0.8168(4) 0.3818(3) -0.2717(2)
N1I N 0.9576(4) 0.3479(3) 0.0589(2)
N1B N 0.9576(4) 0.6097(3) 0.5589(2)
N1A N 0.6521(3) 0.0424(4) 0.5589(2)
N1J N 0.3903(3) 0.0424(4) 0.0589(2)
N1K N 0.6521(3) 0.6097(3) 0.0589(2)
N1F N 0.6097(3) 0.6521(3) 0.4411(2)
N1C N 1.0424(4) 0.6521(3) -0.0589(2)
N1H N 1.0424(4) 0.3903(3) 0.4411(2)
C1I C 0.8157(4) 0.2701(3) -0.0680(2)
C1B C 0.8157(4) 0.5456(3) 0.4320(2)
C1A C 0.7299(3) 0.1843(4) 0.4320(2)
C1J C 0.4544(3) 0.1843(4) -0.0680(2)
C1K C 0.7299(3) 0.5456(3) -0.0680(2)
C2I C 0.9015(4) 0.2545(3) -0.0108(2)
C2B C 0.9015(4) 0.6470(3) 0.4892(2)
C2A C 0.7455(3) 0.0985(4) 0.4892(2)
C2J C 0.3530(3) 0.0985(4) -0.0108(2)
C2K C 0.7455(3) 0.6470(3) -0.0108(2)
C3I C 0.8838(6) 0.3318(4) 0.1398(2)
C3B C 0.8838(6) 0.5520(4) 0.6398(2)
C3A C 0.6682(4) 0.1162(6) 0.6398(2)
C3J C 0.4480(4) 0.1162(6) 0.1398(2)
C3K C 0.6682(4) 0.5520(4) 0.1398(2)
C4I C 0.8753(4) 0.4375(3) 0.1603(2)
C4B C 0.8753(4) 0.4378(3) 0.6603(2)
C4A C 0.5625(3) 0.1247(4) 0.6603(2)
C4J C 0.5622(3) 0.1247(4) 0.1603(2)
C4K C 0.5625(3) 0.4378(3) 0.1603(2)
H1I H 0.9596 0.2551 -0.0510
H1B H 0.9596 0.7045 0.4490
H1A H 0.7449 0.0404 0.4490
H1J H 0.2955 0.0404 -0.0510
H1K H 0.7449 0.7045 -0.0510
H2I H 0.8623 0.1806 0.0204
H2B H 0.8623 0.6817 0.5204
H2A H 0.8194 0.1377 0.5204
H2J H 0.3183 0.1377 0.0204
H2K H 0.8194 0.6817 0.0204
H3I H 0.8073 0.2673 0.1284
H3B H 0.8073 0.5400 0.6284
H3A H 0.7327 0.1927 0.6284
H3J H 0.4600 0.1927 0.1284
H3K H 0.7327 0.5400 0.1284
H4I H 0.9149 0.3133 0.1934
H4B H 0.9149 0.6016 0.6934
H4A H 0.6867 0.0851 0.6934
H4J H 0.3984 0.0851 0.1934
H4K H 0.6867 0.6016 0.1934
H5I H 1.0231 0.3504 0.0788
H5B H 1.0231 0.6727 0.5788
H5A H 0.6496 -0.0231 0.5788
H5J H 0.3273 -0.0231 0.0788
H5K H 0.6496 0.6727 0.0788
H5F H 0.6727 0.6496 0.4212
H5C H 0.9769 0.6496 -0.0788
H5H H 0.9769 0.3273 0.4212
O5 O 0.2804(8) 0.2804(8) 0.2500
O6 O 0.1895(15) 0.034(2) 0.3265(13)
loop_
_geom_bond_atom_site_label_1
_geom_bond_atom_site_label_2
_geom_bond_site_symmetry_1
_geom_bond_site_symmetry_2
Gd1 O1 1_555 1_555
Cu1 O1 1_555 1_555
O1 C1 1_555 1_555
O2 Gd1 1_555 1_555
O3 Cu1 1_555 1_555
O4 C4 1_555 1_555
N1 Cu1 1_555 1_555
C1 O2 1_555 1_555
C2 N1 1_555 1_555
C3 N1 1_555 1_555
C4 O3 1_555 1_555
H1 C2 1_555 1_555
H2 C2 1_555 1_555
H3 C3 1_555 1_555
H4 C3 1_555 1_555
H5 N1 1_555 1_555
Gd1I O1I 1_555 1_555
Gd1I_2 O4 1_555 1_555
Cu1C O1I 1_555 1_555
Cu1B O1B 1_555 1_555
Cu1A O1A 1_555 1_555
Cu1D O1J 1_555 1_555
Cu1E O1K 1_555 1_555
O1I C1I 1_555 1_555
O1B Gd1 1_555 1_555
O1A Gd1 1_555 1_555
O1J Gd1I 1_555 1_555
O1K Gd1I 1_555 1_555
O1F Cu1 1_555 1_555
O1C Cu1C 1_555 1_555
O1H Cu1B 1_555 1_555
O2I Gd1I 1_555 1_555
O2B Gd1 1_555 1_555
O2A Gd1 1_555 1_555
O2J Gd1I 1_555 1_555
O2K Gd1I 1_555 1_555
O3I Cu1C 1_555 1_555
O3B Cu1B 1_555 1_555
O3A Cu1A 1_555 1_555
O3J Cu1D 1_555 1_555
O3K Cu1E 1_555 1_555
O3F Cu1 1_555 1_555
O3C Cu1C 1_555 1_555
O3H Cu1B 1_555 1_555
O4I Gd1 1_555 1_555
O4B Gd1I_2 1_555 1_555
O4A Gd1I_2 1_555 1_555
O4J Gd1 1_555 1_555
O4K Gd1 1_555 1_555
O4_2 Gd1I 1_555 1_555
O4A_2 Gd1I 1_555 1_555
O4B_2 Gd1I 1_555 1_555
N1I Cu1C 1_555 1_555
N1B Cu1B 1_555 1_555
N1A Cu1A 1_555 1_555
N1J Cu1D 1_555 1_555
N1K Cu1E 1_555 1_555
N1F Cu1 1_555 1_555
N1C Cu1C 1_555 1_555
N1H Cu1B 1_555 1_555
C1I O2I 1_555 1_555
C1B O1B 1_555 1_555
C1A O1A 1_555 1_555
C1J O1J 1_555 1_555
C1K O1K 1_555 1_555
C2I N1I 1_555 1_555
C2B N1B 1_555 1_555
C2A N1A 1_555 1_555
C2J N1J 1_555 1_555
C2K N1K 1_555 1_555
C3I N1I 1_555 1_555
C3B N1B 1_555 1_555
C3A N1A 1_555 1_555
C3J N1J 1_555 1_555
C3K N1K 1_555 1_555
C4I O3I 1_555 1_555
C4B O3B 1_555 1_555
C4A O3A 1_555 1_555
C4J O3J 1_555 1_555
C4K O3K 1_555 1_555
H1I C2I 1_555 1_555
H1B C2B 1_555 1_555
H1A C2A 1_555 1_555
H1J C2J 1_555 1_555
H1K C2K 1_555 1_555
H2I C2I 1_555 1_555
H2B C2B 1_555 1_555
H2A C2A 1_555 1_555
H2J C2J 1_555 1_555
H2K C2K 1_555 1_555
H3I C3I 1_555 1_555
H3B C3B 1_555 1_555
H3A C3A 1_555 1_555
H3J C3J 1_555 1_555
H3K C3K 1_555 1_555
H4I C3I 1_555 1_555
H4B C3B 1_555 1_555
H4A C3A 1_555 1_555
H4J C3J 1_555 1_555
H4K C3K 1_555 1_555
H5I N1I 1_555 1_555
H5B N1B 1_555 1_555
H5A N1A 1_555 1_555
H5J N1J 1_555 1_555
H5K N1K 1_555 1_555
H5F N1F 1_555 1_555
H5C N1C 1_555 1_555
H5H N1H 1_555 1_555
C1 C2 1_555 1_555
C3 C4 1_555 1_555
O2B C1B 1_555 1_555
O2A C1A 1_555 1_555
O2J C1J 1_555 1_555
O2K C1K 1_555 1_555
O4I C4I 1_555 1_555
O4B C4B 1_555 1_555
O4A C4A 1_555 1_555
O4J C4J 1_555 1_555
O4K C4K 1_555 1_555
C1I C2I 1_555 1_555
C1B C2B 1_555 1_555
C1A C2A 1_555 1_555
C1J C2J 1_555 1_555
C1K C2K 1_555 1_555
C3I C4I 1_555 1_555
C3B C4B 1_555 1_555
C3A C4A 1_555 1_555
C3J C4J 1_555 1_555
C3K C4K 1_555 1_555

#END
