
#######################################################################
#
#                 Cambridge Crystallographic Data Centre
#                                CCDC 
#
#######################################################################
#
# If this CIF has been generated from an entry in the Cambridge 
# Structural Database, then it will include bibliographic, chemical, 
# crystal, experimental, refinement or atomic coordinate data resulting 
# from the CCDC's data processing and validation procedures.
#
#######################################################################

data_CIWROQ
_chemical_formula_moiety         '(C78 H55 I6 N17 O10 Zn3)n'
_symmetry_cell_setting           orthorhombic
_symmetry_space_group_name_H-M   'P b c a'
_symmetry_Int_Tables_number      61
_space_group_name_Hall           '-P 2ac 2ab'
loop_
_symmetry_equiv_pos_site_id
_symmetry_equiv_pos_as_xyz
1 x,y,z
2 1/2-x,-y,1/2+z
3 -x,1/2+y,1/2-z
4 1/2+x,1/2-y,-z
5 -x,-y,-z
6 1/2+x,y,1/2-z
7 x,1/2-y,1/2+z
8 1/2-x,1/2+y,z
_cell_length_a                   27.424(3)
_cell_length_b                   13.7934(14)
_cell_length_c                   45.907(5)
_cell_angle_alpha                90
_cell_angle_beta                 90
_cell_angle_gamma                90
_cell_volume                     17365.3
loop_
_atom_site_label
_atom_site_type_symbol
_atom_site_fract_x
_atom_site_fract_y
_atom_site_fract_z
Zn1 Zn 0.94855(2) -0.14680(4) 0.428860(13)
Zn2 Zn 0.97214(2) 0.64372(4) 0.586560(16)
Zn3 Zn 0.75617(2) -0.14933(4) 0.688470(12)
I1 I 1.016059(13) -0.05345(3) 0.403068(9)
I2 I 0.946207(16) -0.33000(3) 0.435714(11)
I3 I 0.991620(17) 0.71770(3) 0.536930(11)
I4 I 0.926470(16) 0.73541(3) 0.626090(13)
I5 I 0.665520(15) -0.16472(3) 0.677150(8)
I6 I 0.807500(15) -0.30323(3) 0.695130(8)
C1 C 0.9385(2) 0.4706(4) 0.55312(13)
H1 H 0.9494 0.5072 0.5369
C2 C 0.9208(2) 0.3774(4) 0.54853(13)
H2 H 0.9200 0.3510 0.5294
C3 C 0.9248(3) 0.4576(5) 0.60199(15)
H3 H 0.9261 0.4854 0.6209
C4 C 0.9066(3) 0.3647(5) 0.59923(15)
H4 H 0.8958 0.3297 0.6158
C5 C 0.90462(18) 0.3238(4) 0.57177(12)
C6 C 0.88747(17) 0.2224(4) 0.56811(11)
C7 C 0.7884(2) 0.0287(4) 0.65609(13)
H5 H 0.7730 0.0621 0.6717
C8 C 0.8083(2) 0.0824(4) 0.63373(13)
H6 H 0.8068 0.1512 0.6340
C9 C 0.81155(19) -0.1159(4) 0.63461(11)
H7 H 0.8127 -0.1847 0.6348
C10 C 0.83225(19) -0.0666(4) 0.61167(11)
H8 H 0.8477 -0.1012 0.5964
C11 C 0.83034(18) 0.0343(4) 0.61106(11)
C12 C 0.85313(17) 0.0870(4) 0.58650(11)
C13 C 0.9031(2) -0.1165(4) 0.48743(11)
H9 H 0.8933 -0.1820 0.4850
C14 C 0.8867(2) -0.0664(4) 0.51155(11)
H10 H 0.8659 -0.0971 0.5253
C15 C 0.94621(19) 0.0167(4) 0.47121(11)
H11 H 0.9669 0.0460 0.4571
C16 C 0.93144(19) 0.0708(4) 0.49477(11)
H12 H 0.9421 0.1360 0.4970
C17 C 0.90062(19) 0.0287(4) 0.51543(10)
C18 C 0.88546(18) 0.0857(4) 0.54141(10)
C19 C 0.88822(18) -0.0894(4) 0.37725(10)
H13 H 0.9194 -0.0801 0.3687
C20 C 0.84751(18) -0.0749(4) 0.36040(11)
H14 H 0.8507 -0.0563 0.3406
C21 C 0.84186(19) -0.1290(4) 0.41711(10)
H15 H 0.8400 -0.1484 0.4369
C22 C 0.79874(18) -0.1154(4) 0.40193(10)
H16 H 0.7681 -0.1247 0.4112
C23 C 0.80142(17) -0.0876(3) 0.37275(10)
C24 C 0.75724(17) -0.0737(3) 0.35523(10)
C25 C 0.57894(19) -0.1038(4) 0.40894(11)
H17 H 0.5772 -0.1101 0.4295
C26 C 0.62416(18) -0.0917(4) 0.39620(11)
H18 H 0.6528 -0.0906 0.4078
C27 C 0.5406(2) -0.0954(4) 0.36445(13)
H19 H 0.5114 -0.0969 0.3533
C28 C 0.5841(2) -0.0815(4) 0.35005(12)
H20 H 0.5847 -0.0724 0.3295
C29 C 0.62725(17) -0.0810(3) 0.36614(10)
C30 C 0.67532(17) -0.0709(3) 0.35188(10)
C31 C 0.6921(2) 0.0652(5) 0.23869(13)
H21 H 0.6645 0.0886 0.2283
C32 C 0.6854(2) 0.0286(4) 0.26673(12)
H22 H 0.6539 0.0264 0.2753
C33 C 0.77443(19) 0.0333(3) 0.24024(10)
H23 H 0.8054 0.0334 0.2310
C34 C 0.77068(19) -0.0036(3) 0.26827(10)
H24 H 0.7987 -0.0279 0.2780
C35 C 0.72587(18) -0.0045(3) 0.28173(10)
C36 C 0.72118(18) -0.0364(3) 0.31256(10)
N1 N 0.94058(16) 0.5105(3) 0.57969(11)
N2 N 0.78973(17) -0.0691(3) 0.65687(9)
N3 N 0.93243(16) -0.0765(3) 0.46737(9)
N4 N 0.86490(15) 0.1805(3) 0.59075(9)
N5 N 0.86213(15) 0.0363(3) 0.56226(9)
N6 N 0.89816(16) 0.1785(3) 0.54290(9)
N7 N 0.88565(15) -0.1165(3) 0.40545(8)
N8 N 0.53736(15) -0.1069(3) 0.39347(10)
N9 N 0.73601(16) 0.0687(3) 0.22575(9)
N10 N 0.71420(15) -0.0857(3) 0.36854(8)
N11 N 0.67629(15) -0.0464(3) 0.32363(9)
N12 N 0.76269(14) -0.0494(3) 0.32724(8)
Zn2C Zn 0.47214(2) -0.14372(4) 0.413440(16)
Zn3A Zn 0.74383(2) 0.14933(4) 0.188470(12)
N8C N 1.03736(15) 0.6069(3) 0.60653(10)
N9A N 0.76399(16) -0.0687(3) 0.72575(9)
C37 C 0.8206(4) 0.335(2) 0.8742(2)
C38 C 0.8500(4) 0.3449(8) 0.89943(19)
C39 C 0.8999(3) 0.3536(6) 0.89930(19)
H25 H 0.9174 0.3626 0.9169
C40 C 0.9239(3) 0.3489(6) 0.8730(2)
H26 H 0.9583 0.3568 0.8723
C41 C 0.8983(4) 0.3330(7) 0.84799(19)
H27 H 0.9155 0.3263 0.8301
C42 C 0.8462(4) 0.3263(9) 0.8481(2)
C43 C 0.8189(4) 0.3016(16) 0.8210(2)
C44 C 0.8448(5) 0.2843(11) 0.7950(2)
H28 H 0.8791 0.2928 0.7942
C45 C 0.8192(5) 0.2550(13) 0.7708(3)
H29 H 0.8363 0.2396 0.7534
C46 C 0.7696(5) 0.2476(8) 0.7715(2)
H30 H 0.7525 0.2305 0.7542
C47 C 0.7436(4) 0.2646(13) 0.7968(3)
H31 H 0.7092 0.2570 0.7969
C48 C 0.7679(4) 0.293(2) 0.8222(3)
C49 C 0.7417(4) 0.3166(18) 0.8494(3)
C50 C 0.6900(4) 0.3184(10) 0.8503(2)
H32 H 0.6724 0.3029 0.8332
C51 C 0.6647(4) 0.3415(8) 0.8750(2)
H33 H 0.6301 0.3378 0.8753
C52 C 0.6901(4) 0.3704(8) 0.8995(2)
H34 H 0.6732 0.3931 0.9163
C53 C 0.7407(4) 0.3660(12) 0.8995(2)
H35 H 0.7577 0.3822 0.9169
C54 C 0.7679(4) 0.3386(13) 0.8748(3)
N13 N 0.8287(3) 0.3344(5) 0.92901(14)
O1 O 0.8357(2) 0.3998(5) 0.94665(12)
O2 O 0.8058(2) 0.2595(4) 0.93425(12)
C55 C 0.7847(3) 0.1244(6) 0.98341(17)
C56 C 0.7573(4) 0.0470(7) 0.97612(15)
H36 H 0.7230 0.0501 0.9736
C57 C 0.7836(4) -0.0366(8) 0.97267(17)
H37 H 0.7670 -0.0947 0.9677
C58 C 0.8326(4) -0.0390(8) 0.97616(17)
H38 H 0.8486 -0.0997 0.9742
C59 C 0.8597(4) 0.0383(8) 0.98214(18)
H39 H 0.8942 0.0339 0.9836
C60 C 0.8350(4) 0.1275(8) 0.9862(2)
H40 H 0.8519 0.1858 0.9906
N14 N 0.7578(3) 0.2175(6) 0.9890(2)
O3 O 0.7149(2) 0.2215(6) 0.98025(19)
O4 O 0.7803(3) 0.2826(6) 1.00317(19)
C61 C 0.7767(3) 0.0361(7) 0.0737(2)
C62 C 0.7982(3) 0.0205(9) 0.10017(17)
H41 H 0.8017 0.0701 0.1144
C63 C 0.8142(3) -0.0724(10) 0.1046(2)
H42 H 0.8280 -0.0901 0.1228
C64 C 0.8105(4) -0.1372(10) 0.0836(2)
H43 H 0.8233 -0.2001 0.0872
C65 C 0.7901(5) -0.1207(9) 0.0578(2)
H44 H 0.7896 -0.1705 0.0435
C66 C 0.7698(4) -0.0317(8) 0.05173(18)
H45 H 0.7527 -0.0181 0.0342
N15 N 0.7575(3) 0.1319(8) 0.0672(2)
O5 O 0.7687(4) 0.1944(7) 0.0856(3)
O6 O 0.7289(3) 0.1430(7) 0.04549(19)
C67 C 0.9325(4) 0.0478(9) 0.7294(2)
C68 C 0.9400(3) -0.0466(8) 0.7242(2)
H46 H 0.9481 -0.0898 0.7396
C69 C 0.9358(4) -0.0797(8) 0.6959(2)
H47 H 0.9408 -0.1465 0.6919
C70 C 0.9248(4) -0.0193(8) 0.6740(2)
H48 H 0.9249 -0.0434 0.6546
C71 C 0.9140(10) 0.0719(13) 0.6786(4)
H49 H 0.9064 0.1136 0.6627
C72 C 0.9140(9) 0.1074(13) 0.7076(3)
H50 H 0.9016 0.1700 0.7121
N16 N 0.9383(4) 0.0860(10) 0.7600(2)
O7 O 0.9429(4) 0.0248(11) 0.77917(19)
O8 O 0.9413(5) 0.1764(11) 0.7634(3)
C73 C 0.9108(6) 0.6090(16) 0.7509(5)
C74 C 0.9126(7) 0.5123(17) 0.7595(6)
H51 H 0.9023 0.4921 0.7783
C75 C 0.9305(8) 0.4470(17) 0.7390(7)
H52 H 0.9329 0.3807 0.7444
C76 C 0.9445(8) 0.4720(19) 0.7120(6)
H53 H 0.9559 0.4235 0.6990
C77 C 0.9428(10) 0.563(2) 0.7034(5)
H54 H 0.9524 0.5806 0.6842
C78 C 0.9265(11) 0.6339(19) 0.7228(5)
H55 H 0.9260 0.6999 0.7169
N17 N 0.8903(9) 0.6843(14) 0.7712(5)
O9 O 0.8785(11) 0.649(2) 0.7949(4)
O10 O 0.8942(9) 0.7758(12) 0.7697(6)
loop_
_geom_bond_atom_site_label_1
_geom_bond_atom_site_label_2
_geom_bond_site_symmetry_1
_geom_bond_site_symmetry_2
Zn1 I1 1_555 1_555
Zn2 I3 1_555 1_555
Zn3 I5 1_555 1_555
I2 Zn1 1_555 1_555
I4 Zn2 1_555 1_555
I6 Zn3 1_555 1_555
C1 H1 1_555 1_555
C2 C1 1_555 1_555
H2 C2 1_555 1_555
C3 H3 1_555 1_555
C4 C3 1_555 1_555
H4 C4 1_555 1_555
C5 C2 1_555 1_555
C6 C5 1_555 1_555
C7 H5 1_555 1_555
C8 C7 1_555 1_555
H6 C8 1_555 1_555
C9 H7 1_555 1_555
C10 C9 1_555 1_555
H8 C10 1_555 1_555
C11 C8 1_555 1_555
C12 C11 1_555 1_555
C13 H9 1_555 1_555
C14 C13 1_555 1_555
H10 C14 1_555 1_555
C15 H11 1_555 1_555
C16 C15 1_555 1_555
H12 C16 1_555 1_555
C17 C14 1_555 1_555
C18 C17 1_555 1_555
C19 H13 1_555 1_555
C20 C19 1_555 1_555
H14 C20 1_555 1_555
C21 H15 1_555 1_555
C22 C21 1_555 1_555
H16 C22 1_555 1_555
C23 C20 1_555 1_555
C24 C23 1_555 1_555
C25 H17 1_555 1_555
C26 C25 1_555 1_555
H18 C26 1_555 1_555
C27 H19 1_555 1_555
C28 C27 1_555 1_555
H20 C28 1_555 1_555
C29 C26 1_555 1_555
C30 C29 1_555 1_555
C31 H21 1_555 1_555
C32 C31 1_555 1_555
H22 C32 1_555 1_555
C33 H23 1_555 1_555
C34 C33 1_555 1_555
H24 C34 1_555 1_555
C35 C32 1_555 1_555
C36 C35 1_555 1_555
N1 Zn2 1_555 1_555
N2 Zn3 1_555 1_555
N3 Zn1 1_555 1_555
N4 C6 1_555 1_555
N5 C12 1_555 1_555
N6 C6 1_555 1_555
N7 Zn1 1_555 1_555
N8 C25 1_555 1_555
N9 C31 1_555 1_555
N10 C24 1_555 1_555
N11 C30 1_555 1_555
N12 C24 1_555 1_555
C37 C38 1_555 1_555
C38 C39 1_555 1_555
C39 H25 1_555 1_555
C40 C39 1_555 1_555
H26 C40 1_555 1_555
C41 C40 1_555 1_555
H27 C41 1_555 1_555
C42 C37 1_555 1_555
C43 C42 1_555 1_555
C44 C43 1_555 1_555
H28 C44 1_555 1_555
C45 C44 1_555 1_555
H29 C45 1_555 1_555
C46 C45 1_555 1_555
H30 C46 1_555 1_555
C47 C46 1_555 1_555
H31 C47 1_555 1_555
C48 C43 1_555 1_555
C49 C48 1_555 1_555
C50 C49 1_555 1_555
H32 C50 1_555 1_555
C51 C50 1_555 1_555
H33 C51 1_555 1_555
C52 C51 1_555 1_555
H34 C52 1_555 1_555
C53 C52 1_555 1_555
H35 C53 1_555 1_555
C54 C37 1_555 1_555
N13 C38 1_555 1_555
O1 N13 1_555 1_555
O2 N13 1_555 1_555
C55 C56 1_555 1_555
C56 H36 1_555 1_555
C57 C56 1_555 1_555
H37 C57 1_555 1_555
C58 C57 1_555 1_555
H38 C58 1_555 1_555
C59 C58 1_555 1_555
H39 C59 1_555 1_555
C60 C55 1_555 1_555
H40 C60 1_555 1_555
N14 C55 1_555 1_555
O3 N14 1_555 1_555
O4 N14 1_555 1_555
C61 C62 1_555 1_555
C62 H41 1_555 1_555
C63 C62 1_555 1_555
H42 C63 1_555 1_555
C64 C63 1_555 1_555
H43 C64 1_555 1_555
C65 C64 1_555 1_555
H44 C65 1_555 1_555
C66 C61 1_555 1_555
H45 C66 1_555 1_555
N15 C61 1_555 1_555
O5 N15 1_555 1_555
O6 N15 1_555 1_555
C67 C68 1_555 1_555
C68 H46 1_555 1_555
C69 C68 1_555 1_555
H47 C69 1_555 1_555
C70 C69 1_555 1_555
H48 C70 1_555 1_555
C71 C70 1_555 1_555
H49 C71 1_555 1_555
C72 C67 1_555 1_555
H50 C72 1_555 1_555
N16 C67 1_555 1_555
O7 N16 1_555 1_555
O8 N16 1_555 1_555
C73 C74 1_555 1_555
C74 H51 1_555 1_555
C75 C74 1_555 1_555
H52 C75 1_555 1_555
C76 C75 1_555 1_555
H53 C76 1_555 1_555
C77 C76 1_555 1_555
H54 C77 1_555 1_555
C78 C73 1_555 1_555
H55 C78 1_555 1_555
N17 C73 1_555 1_555
O9 N17 1_555 1_555
O10 N17 1_555 1_555
Zn2C N8 1_555 1_555
Zn3A N9 1_555 1_555
N8C Zn2 1_555 1_555
N9A Zn3 1_555 1_555
C1 N1 1_555 1_555
C3 N1 1_555 1_555
C4 C5 1_555 1_555
C7 N2 1_555 1_555
C9 N2 1_555 1_555
C10 C11 1_555 1_555
C12 N4 1_555 1_555
C13 N3 1_555 1_555
C15 N3 1_555 1_555
C16 C17 1_555 1_555
C18 N5 1_555 1_555
C18 N6 1_555 1_555
C19 N7 1_555 1_555
C21 N7 1_555 1_555
C22 C23 1_555 1_555
C27 N8 1_555 1_555
C28 C29 1_555 1_555
C30 N10 1_555 1_555
C33 N9 1_555 1_555
C34 C35 1_555 1_555
C36 N11 1_555 1_555
C36 N12 1_555 1_555
C41 C42 1_555 1_555
C47 C48 1_555 1_555
C49 C54 1_555 1_555
C53 C54 1_555 1_555
C59 C60 1_555 1_555
C65 C66 1_555 1_555
C71 C72 1_555 1_555
C77 C78 1_555 1_555

#END
