
#######################################################################
#
#                 Cambridge Crystallographic Data Centre
#                                CCDC 
#
#######################################################################
#
# If this CIF has been generated from an entry in the Cambridge 
# Structural Database, then it will include bibliographic, chemical, 
# crystal, experimental, refinement or atomic coordinate data resulting 
# from the CCDC's data processing and validation procedures.
#
#######################################################################

data_CIWRUW
_chemical_formula_moiety         '(C75 H88 I6 N12 O6 Zn3)n'
_symmetry_cell_setting           orthorhombic
_symmetry_space_group_name_H-M   'P b c a'
_symmetry_Int_Tables_number      61
_space_group_name_Hall           '-P 2ac 2ab'
loop_
_symmetry_equiv_pos_site_id
_symmetry_equiv_pos_as_xyz
1 x,y,z
2 1/2-x,-y,1/2+z
3 -x,1/2+y,1/2-z
4 1/2+x,1/2-y,-z
5 -x,-y,-z
6 1/2+x,y,1/2-z
7 x,1/2-y,1/2+z
8 1/2-x,1/2+y,z
_cell_length_a                   27.449(4)
_cell_length_b                   13.707(2)
_cell_length_c                   45.248(7)
_cell_angle_alpha                90
_cell_angle_beta                 90
_cell_angle_gamma                90
_cell_volume                     17024.3
loop_
_atom_site_label
_atom_site_type_symbol
_atom_site_fract_x
_atom_site_fract_y
_atom_site_fract_z
Zn1 Zn 0.74364(3) 0.65483(6) 0.185308(17)
Zn2 Zn 0.52829(3) -0.13577(6) 0.084170(19)
Zn3 Zn 0.55390(3) 0.66291(6) -0.077030(18)
I1 I 0.83332(2) 0.65735(6) 0.172129(14)
I2 I 0.69889(2) 0.81523(4) 0.192808(13)
I3 I 0.58000(2) -0.21970(5) 0.122600(17)
I4 I 0.50837(2) -0.21165(4) 0.034190(13)
I5 I 0.56685(3) 0.84449(4) -0.068720(14)
I6 I 0.48436(2) 0.58165(6) -0.104390(15)
C1 C 0.5826(3) 0.0461(5) 0.09747(15)
H1 H 0.5875 0.0147 0.1160
C2 C 0.6008(3) 0.1378(6) 0.09372(17)
H2 H 0.6180 0.1690 0.1093
C3 C 0.5521(3) 0.0439(5) 0.05012(15)
H3 H 0.5354 0.0108 0.0347
C4 C 0.5691(3) 0.1365(5) 0.04491(15)
H4 H 0.5638 0.1668 0.0263
C5 C 0.5939(3) 0.1853(5) 0.06683(15)
C6 C 0.6092(3) 0.2875(5) 0.06377(15)
C7 C 0.5552(3) 0.4957(6) -0.03608(16)
H5 H 0.5393 0.4645 -0.0522
C8 C 0.5676(3) 0.4406(6) -0.01141(17)
H6 H 0.5595 0.3733 -0.0105
C9 C 0.5869(3) 0.6327(5) -0.01495(16)
H7 H 0.5936 0.7006 -0.0160
C10 C 0.6006(3) 0.5833(5) 0.01014(15)
H8 H 0.6159 0.6164 0.0261
C11 C 0.5915(3) 0.4844(5) 0.01158(14)
C12 C 0.6062(3) 0.4285(5) 0.03826(15)
C13 C 0.6883(4) 0.6221(6) 0.13117(18)
H9 H 0.6895 0.6914 0.1308
C14 C 0.6677(4) 0.5756(6) 0.10790(18)
H10 H 0.6559 0.6118 0.0915
C15 C 0.7023(4) 0.4795(6) 0.15469(18)
H11 H 0.7151 0.4446 0.1711
C16 C 0.6800(4) 0.4281(6) 0.13253(18)
H12 H 0.6758 0.3595 0.1341
C17 C 0.6639(3) 0.4768(5) 0.10817(15)
C18 C 0.6415(3) 0.4247(5) 0.08293(15)
C19 C 0.7705(3) 0.5394(5) 0.23807(14)
H13 H 0.8016 0.5383 0.2288
C20 C 0.7662(3) 0.5027(5) 0.26622(14)
H14 H 0.7939 0.4783 0.2764
C21 C 0.6894(3) 0.5729(5) 0.23583(16)
H15 H 0.6622 0.5973 0.2251
C22 C 0.6817(3) 0.5362(5) 0.26340(16)
H16 H 0.6497 0.5341 0.2715
C23 C 0.7210(3) 0.5020(4) 0.27945(14)
C24 C 0.7167(3) 0.4712(4) 0.31084(14)
C25 C 0.5382(3) 0.4162(7) 0.36607(19)
H17 H 0.5083 0.4214 0.3556
C26 C 0.5807(3) 0.4314(7) 0.35079(17)
H18 H 0.5799 0.4464 0.3303
C27 C 0.5782(3) 0.3900(5) 0.40914(15)
H19 H 0.5775 0.3765 0.4297
C28 C 0.6225(3) 0.4039(5) 0.39570(16)
H20 H 0.6517 0.3994 0.4069
C29 C 0.6245(2) 0.4245(4) 0.36567(15)
C30 C 0.6719(2) 0.4363(4) 0.35092(14)
C31 C 0.8402(3) 0.3676(5) 0.41384(15)
H21 H 0.8390 0.3457 0.4338
C32 C 0.7975(3) 0.3842(5) 0.39950(14)
H22 H 0.7673 0.3736 0.4092
C33 C 0.8853(2) 0.4133(5) 0.37334(14)
H23 H 0.9161 0.4240 0.3644
C34 C 0.8439(2) 0.4321(5) 0.35721(14)
H24 H 0.8461 0.4549 0.3374
C35 C 0.7985(2) 0.4168(4) 0.37046(13)
C36 C 0.7534(2) 0.4342(4) 0.35316(13)
N1 N 0.5582(2) -0.0018(4) 0.07618(12)
N2 N 0.5648(2) 0.5904(4) -0.03792(12)
N3 N 0.7068(2) 0.5764(4) 0.15430(13)
N4 N 0.5951(2) 0.3342(4) 0.03910(12)
N5 N 0.6288(2) 0.4774(4) 0.05943(13)
N6 N 0.6332(2) 0.3283(4) 0.08596(13)
N7 N 0.7330(2) 0.5763(4) 0.22326(12)
N8 N 0.5365(2) 0.3946(4) 0.39458(13)
N9 N 0.8837(2) 0.3805(4) 0.40132(11)
N10 N 0.6723(2) 0.4607(4) 0.32203(12)
N11 N 0.7113(2) 0.4227(4) 0.36738(12)
N12 N 0.7583(2) 0.4581(4) 0.32517(11)
Zn2B Zn 0.47171(3) 0.36423(6) 0.415830(19)
Zn3A Zn 0.94610(3) 0.33709(6) 0.422970(18)
N8B N 0.4635(2) -0.1054(4) 0.10542(13)
N9A N 0.6163(2) 0.6195(4) -0.09868(11)
C37 C 0.1947(5) 0.1841(5) 0.1443(3)
C38 C 0.1527(5) 0.1721(6) 0.1278(3)
H25 H 0.1218 0.1800 0.1369
C39 C 0.1552(6) 0.1489(7) 0.0980(3)
C40 C 0.2005(7) 0.1381(8) 0.0845(3)
H26 H 0.2024 0.1230 0.0640
C41 C 0.2430(6) 0.1493(8) 0.1009(3)
H27 H 0.2740 0.1416 0.0918
C42 C 0.2400(5) 0.1721(7) 0.1311(3)
C43 C 0.2822(5) 0.1845(7) 0.1481(3)
C44 C 0.3280(6) 0.1731(9) 0.1353(3)
H28 H 0.3308 0.1565 0.1150
C45 C 0.3698(5) 0.1862(11) 0.1524(4)
H29 H 0.4010 0.1790 0.1437
C46 C 0.3658(6) 0.2098(10) 0.1822(4)
H30 H 0.3943 0.2177 0.1939
C47 C 0.3198(6) 0.2217(8) 0.1949(3)
H31 H 0.3169 0.2383 0.2152
C48 C 0.2783(5) 0.2092(7) 0.1778(3)
C49 C 0.2324(6) 0.2206(8) 0.1912(3)
C50 C 0.2285(7) 0.2444(10) 0.2212(3)
H32 H 0.2572 0.2536 0.2326
C51 C 0.1830(7) 0.2546(12) 0.2345(3)
H33 H 0.1806 0.2703 0.2549
C52 C 0.1411(7) 0.2417(12) 0.2176(3)
H34 H 0.1099 0.2491 0.2265
C53 C 0.1448(6) 0.2181(10) 0.1879(3)
H35 H 0.1161 0.2092 0.1765
C54 C 0.1906(6) 0.2073(7) 0.1745(3)
O1 O 0.1115(6) 0.1410(8) 0.0864(3)
H36 H 0.1139 0.1284 0.0683
O2 O 0.0588(7) 0.1655(13) 0.1356(6)
O3 O 0.5501(15) 0.454(5) 0.2678(11)
C73 C 0.8181(6) 0.4464(15) 0.0544(4)
H49 H 0.8493 0.4458 0.0654
H50 H 0.8158 0.5097 0.0440
C74 C 0.8192(8) 0.3614(15) 0.0305(4)
H51 H 0.7928 0.3711 0.0159
H52 H 0.8507 0.3620 0.0199
C75 C 0.8126(8) 0.2662(15) 0.0460(4)
H53 H 0.8411 0.2544 0.0589
H54 H 0.8116 0.2133 0.0311
C76 C 0.7668(9) 0.2614(17) 0.0646(5)
H55 H 0.7378 0.2769 0.0524
H56 H 0.7627 0.1954 0.0731
C77 C 0.7734(8) 0.3395(15) 0.0899(5)
H57 H 0.7449 0.3381 0.1033
H58 H 0.8029 0.3246 0.1016
C78 C 0.7781(7) 0.4401(13) 0.0757(4)
H59 H 0.7472 0.4561 0.0655
H60 H 0.7832 0.4893 0.0914
C79 C 0.7497(6) 0.4233(15) 0.4781(4)
H61 H 0.7799 0.4456 0.4683
H62 H 0.7517 0.4422 0.4992
C80 C 0.7461(6) 0.3086(15) 0.4758(4)
H63 H 0.7745 0.2788 0.4858
H64 H 0.7470 0.2891 0.4547
C81 C 0.6995(5) 0.2712(15) 0.4899(4)
H65 H 0.6978 0.1994 0.4878
H66 H 0.6994 0.2872 0.5112
C82 C 0.6557(5) 0.3170(13) 0.4751(3)
H67 H 0.6256 0.2939 0.4849
H68 H 0.6544 0.2967 0.4542
C83 C 0.6583(6) 0.4322(14) 0.4770(3)
H69 H 0.6306 0.4605 0.4659
H70 H 0.6551 0.4526 0.4979
C84 C 0.7068(5) 0.4731(14) 0.4643(3)
H71 H 0.7087 0.5441 0.4681
H72 H 0.7076 0.4630 0.4426
C85 C 0.5151(10) 0.170(2) 0.1881(6)
H73 H 0.5473 0.1394 0.1835
C86 C 0.5200(18) 0.221(3) 0.2173(7)
H74 H 0.5209 0.1726 0.2332
H75 H 0.4922 0.2648 0.2202
H76 H 0.5503 0.2590 0.2175
C87 C 0.5030(18) 0.238(3) 0.1634(8)
H77 H 0.4988 0.2008 0.1451
H78 H 0.5296 0.2851 0.1608
H79 H 0.4729 0.2731 0.1680
O5 O 0.4802(16) 0.094(2) 0.1899(8)
H80 H 0.4815 0.0599 0.1745
C88 C 0.5593(8) 0.5994(19) 0.1946(5)
H81 H 0.5796 0.6501 0.1846
C89 C 0.5064(10) 0.619(3) 0.1880(7)
H82 H 0.4965 0.6800 0.1977
H83 H 0.4865 0.5652 0.1955
H84 H 0.5019 0.6252 0.1666
C90 C 0.5757(8) 0.500(2) 0.1845(6)
H85 H 0.6107 0.4927 0.1883
H86 H 0.5696 0.4933 0.1632
H87 H 0.5577 0.4498 0.1953
O6 O 0.5671(10) 0.606(3) 0.2260(6)
H88 H 0.5701 0.6649 0.2309
C91 C 0.9116(10) 0.399(3) 0.2414(7)
H89 H 0.8789 0.3987 0.2317
C92 C 0.9491(19) 0.419(4) 0.2180(8)
H90 H 0.9445 0.3733 0.2015
H91 H 0.9818 0.4107 0.2263
H92 H 0.9454 0.4861 0.2107
C93 C 0.9106(15) 0.476(3) 0.2651(10)
H93 H 0.8899 0.4534 0.2814
H94 H 0.8973 0.5365 0.2570
H95 H 0.9437 0.4872 0.2723
O7 O 0.919(2) 0.306(2) 0.2542(11)
H96 H 0.9220 0.2639 0.2407
loop_
_geom_bond_atom_site_label_1
_geom_bond_atom_site_label_2
_geom_bond_site_symmetry_1
_geom_bond_site_symmetry_2
Zn1 I1 1_555 1_555
Zn2 I3 1_555 1_555
Zn3 I5 1_555 1_555
I2 Zn1 1_555 1_555
I4 Zn2 1_555 1_555
I6 Zn3 1_555 1_555
C1 H1 1_555 1_555
C2 C1 1_555 1_555
H2 C2 1_555 1_555
C3 H3 1_555 1_555
C4 C3 1_555 1_555
H4 C4 1_555 1_555
C5 C2 1_555 1_555
C6 C5 1_555 1_555
C7 H5 1_555 1_555
C8 C7 1_555 1_555
H6 C8 1_555 1_555
C9 H7 1_555 1_555
C10 C9 1_555 1_555
H8 C10 1_555 1_555
C11 C8 1_555 1_555
C12 C11 1_555 1_555
C13 H9 1_555 1_555
C14 C13 1_555 1_555
H10 C14 1_555 1_555
C15 H11 1_555 1_555
C16 C15 1_555 1_555
H12 C16 1_555 1_555
C17 C14 1_555 1_555
C18 C17 1_555 1_555
C19 H13 1_555 1_555
C20 C19 1_555 1_555
H14 C20 1_555 1_555
C21 H15 1_555 1_555
C22 C21 1_555 1_555
H16 C22 1_555 1_555
C23 C20 1_555 1_555
C24 C23 1_555 1_555
C25 H17 1_555 1_555
C26 C25 1_555 1_555
H18 C26 1_555 1_555
C27 H19 1_555 1_555
C28 C27 1_555 1_555
H20 C28 1_555 1_555
C29 C26 1_555 1_555
C30 C29 1_555 1_555
C31 H21 1_555 1_555
C32 C31 1_555 1_555
H22 C32 1_555 1_555
C33 H23 1_555 1_555
C34 C33 1_555 1_555
H24 C34 1_555 1_555
C35 C32 1_555 1_555
C36 C35 1_555 1_555
N1 Zn2 1_555 1_555
N2 Zn3 1_555 1_555
N3 Zn1 1_555 1_555
N4 C6 1_555 1_555
N5 C12 1_555 1_555
N6 C6 1_555 1_555
N7 Zn1 1_555 1_555
N8 C25 1_555 1_555
N9 C31 1_555 1_555
N10 C24 1_555 1_555
N11 C30 1_555 1_555
N12 C24 1_555 1_555
C37 C38 1_555 1_555
C38 H25 1_555 1_555
C39 C38 1_555 1_555
C40 C39 1_555 1_555
H26 C40 1_555 1_555
C41 C40 1_555 1_555
H27 C41 1_555 1_555
C42 C37 1_555 1_555
C43 C42 1_555 1_555
C44 C43 1_555 1_555
H28 C44 1_555 1_555
C45 C44 1_555 1_555
H29 C45 1_555 1_555
C46 C45 1_555 1_555
H30 C46 1_555 1_555
C47 C46 1_555 1_555
H31 C47 1_555 1_555
C48 C43 1_555 1_555
C49 C48 1_555 1_555
C50 C49 1_555 1_555
H32 C50 1_555 1_555
C51 C50 1_555 1_555
H33 C51 1_555 1_555
C52 C51 1_555 1_555
H34 C52 1_555 1_555
C53 C52 1_555 1_555
H35 C53 1_555 1_555
C54 C37 1_555 1_555
O1 C39 1_555 1_555
H36 O1 1_555 1_555
C73 H49 1_555 1_555
H50 C73 1_555 1_555
C74 C73 1_555 1_555
H51 C74 1_555 1_555
H52 C74 1_555 1_555
C75 C74 1_555 1_555
H53 C75 1_555 1_555
H54 C75 1_555 1_555
C76 C75 1_555 1_555
H55 C76 1_555 1_555
H56 C76 1_555 1_555
C77 C76 1_555 1_555
H57 C77 1_555 1_555
H58 C77 1_555 1_555
C78 C73 1_555 1_555
H59 C78 1_555 1_555
H60 C78 1_555 1_555
C79 H61 1_555 1_555
H62 C79 1_555 1_555
C80 C79 1_555 1_555
H63 C80 1_555 1_555
H64 C80 1_555 1_555
C81 C80 1_555 1_555
H65 C81 1_555 1_555
H66 C81 1_555 1_555
C82 C81 1_555 1_555
H67 C82 1_555 1_555
H68 C82 1_555 1_555
C83 C82 1_555 1_555
H69 C83 1_555 1_555
H70 C83 1_555 1_555
C84 C79 1_555 1_555
H71 C84 1_555 1_555
H72 C84 1_555 1_555
C85 H73 1_555 1_555
C86 C85 1_555 1_555
H74 C86 1_555 1_555
H75 C86 1_555 1_555
H76 C86 1_555 1_555
C87 C85 1_555 1_555
H77 C87 1_555 1_555
H78 C87 1_555 1_555
H79 C87 1_555 1_555
O5 C85 1_555 1_555
H80 O5 1_555 1_555
C88 H81 1_555 1_555
C89 C88 1_555 1_555
H82 C89 1_555 1_555
H83 C89 1_555 1_555
H84 C89 1_555 1_555
C90 C88 1_555 1_555
H85 C90 1_555 1_555
H86 C90 1_555 1_555
H87 C90 1_555 1_555
O6 C88 1_555 1_555
H88 O6 1_555 1_555
C91 H89 1_555 1_555
C92 C91 1_555 1_555
H90 C92 1_555 1_555
H91 C92 1_555 1_555
H92 C92 1_555 1_555
C93 C91 1_555 1_555
H93 C93 1_555 1_555
H94 C93 1_555 1_555
H95 C93 1_555 1_555
O7 C91 1_555 1_555
H96 O7 1_555 1_555
Zn2B N8 1_555 1_555
Zn3A N9 1_555 1_555
N8B Zn2 1_555 1_555
N9A Zn3 1_555 1_555
C1 N1 1_555 1_555
C3 N1 1_555 1_555
C4 C5 1_555 1_555
C7 N2 1_555 1_555
C9 N2 1_555 1_555
C10 C11 1_555 1_555
C12 N4 1_555 1_555
C13 N3 1_555 1_555
C15 N3 1_555 1_555
C16 C17 1_555 1_555
C18 N5 1_555 1_555
C18 N6 1_555 1_555
C19 N7 1_555 1_555
C21 N7 1_555 1_555
C22 C23 1_555 1_555
C27 N8 1_555 1_555
C28 C29 1_555 1_555
C30 N10 1_555 1_555
C33 N9 1_555 1_555
C34 C35 1_555 1_555
C36 N11 1_555 1_555
C36 N12 1_555 1_555
C41 C42 1_555 1_555
C47 C48 1_555 1_555
C49 C54 1_555 1_555
C53 C54 1_555 1_555
C77 C78 1_555 1_555
C83 C84 1_555 1_555

#END
