
#######################################################################
#
#                 Cambridge Crystallographic Data Centre
#                                CCDC 
#
#######################################################################
#
# If this CIF has been generated from an entry in the Cambridge 
# Structural Database, then it will include bibliographic, chemical, 
# crystal, experimental, refinement or atomic coordinate data resulting 
# from the CCDC's data processing and validation procedures.
#
#######################################################################

data_CIWRIK
_chemical_formula_moiety         '(C78 H57 I6 N17 O8 Zn3)n'
_symmetry_cell_setting           orthorhombic
_symmetry_space_group_name_H-M   'P b c a'
_symmetry_Int_Tables_number      61
_space_group_name_Hall           '-P 2ac 2ab'
loop_
_symmetry_equiv_pos_site_id
_symmetry_equiv_pos_as_xyz
1 x,y,z
2 1/2-x,-y,1/2+z
3 -x,1/2+y,1/2-z
4 1/2+x,1/2-y,-z
5 -x,-y,-z
6 1/2+x,y,1/2-z
7 x,1/2-y,1/2+z
8 1/2-x,1/2+y,z
_cell_length_a                   27.122(4)
_cell_length_b                   13.692(2)
_cell_length_c                   45.963(7)
_cell_angle_alpha                90
_cell_angle_beta                 90
_cell_angle_gamma                90
_cell_volume                     17068.6
loop_
_atom_site_label
_atom_site_type_symbol
_atom_site_fract_x
_atom_site_fract_y
_atom_site_fract_z
Zn1 Zn 0.45069(3) 0.36111(6) 0.068585(15)
Zn2 Zn 0.25254(3) 0.35077(6) -0.190150(16)
Zn3 Zn 0.46719(3) 1.15011(6) -0.092710(17)
I1 I 0.517538(16) 0.45682(4) 0.094575(10)
I2 I 0.454684(19) 0.17878(3) 0.057604(11)
I3 I 0.16129(2) 0.33833(5) -0.177930(11)
I4 I 0.30394(2) 0.19588(4) -0.197450(11)
I5 I 0.42038(2) 1.22888(4) -0.134110(13)
I6 I 0.479760(19) 1.23275(4) -0.043760(11)
C1 C 0.3078(3) 0.3829(5) -0.13592(14)
H1 H 0.3080 0.3135 -0.1357
C2 C 0.3283(2) 0.4323(5) -0.11301(14)
H2 H 0.3423 0.3973 -0.0972
C3 C 0.2877(3) 0.5259(6) -0.15831(15)
H3 H 0.2731 0.5592 -0.1742
C4 C 0.3078(3) 0.5803(5) -0.13633(14)
H4 H 0.3074 0.6497 -0.1371
C5 C 0.3286(2) 0.5322(5) -0.11307(13)
C6 C 0.3513(2) 0.5874(5) -0.08866(13)
C7 C 0.4288(3) 0.9540(5) -0.10695(16)
H5 H 0.4357 0.9765 -0.1261
C8 C 0.4110(3) 0.8612(5) -0.10358(16)
H6 H 0.4051 0.8209 -0.1200
C9 C 0.4267(3) 0.9824(5) -0.05857(15)
H7 H 0.4312 1.0255 -0.0426
C10 C 0.4096(3) 0.8901(5) -0.05310(14)
H8 H 0.4034 0.8699 -0.0337
C11 C 0.4015(2) 0.8270(5) -0.07576(14)
C12 C 0.3853(2) 0.7249(5) -0.07128(14)
C13 C 0.4460(2) 0.5258(5) 0.02599(13)
H9 H 0.4671 0.5562 0.0398
C14 C 0.4307(2) 0.5789(5) 0.00277(13)
H10 H 0.4411 0.6447 0.0004
C15 C 0.4037(3) 0.3895(5) 0.01092(14)
H11 H 0.3946 0.3230 0.0135
C16 C 0.3862(3) 0.4401(5) -0.01328(13)
H12 H 0.3651 0.4085 -0.0268
C17 C 0.3996(2) 0.5357(5) -0.01759(13)
C18 C 0.3832(2) 0.5901(5) -0.04370(13)
C19 C 0.3429(2) 0.3743(5) 0.08096(14)
H13 H 0.3404 0.3548 0.0612
C20 C 0.3001(2) 0.3892(5) 0.09633(13)
H14 H 0.2689 0.3807 0.0873
C21 C 0.3905(2) 0.4123(5) 0.12051(13)
H15 H 0.4222 0.4204 0.1290
C22 C 0.3496(2) 0.4280(5) 0.13741(14)
H16 H 0.3530 0.4463 0.1572
C23 C 0.3034(2) 0.4167(4) 0.12531(13)
C24 C 0.2585(2) 0.4316(4) 0.14278(12)
C25 C 0.2787(3) 0.5391(5) 0.25739(13)
H17 H 0.3103 0.5420 0.2662
C26 C 0.2748(3) 0.5040(5) 0.22942(13)
H18 H 0.3035 0.4837 0.2192
C27 C 0.1957(3) 0.5610(6) 0.26040(14)
H19 H 0.1676 0.5802 0.2713
C28 C 0.1884(3) 0.5259(5) 0.23256(15)
H20 H 0.1562 0.5205 0.2247
C29 C 0.2291(2) 0.4986(4) 0.21640(13)
C30 C 0.2237(2) 0.4686(4) 0.18569(12)
C31 C 0.0401(2) 0.4013(5) 0.13895(15)
H21 H 0.0118 0.3984 0.1511
C32 C 0.0854(2) 0.4194(5) 0.15155(15)
H22 H 0.0879 0.4311 0.1719
C33 C 0.0745(2) 0.3920(5) 0.09372(14)
H23 H 0.0708 0.3838 0.0733
C34 C 0.1209(2) 0.4079(5) 0.10462(13)
H24 H 0.1486 0.4102 0.0920
C35 C 0.1269(2) 0.4204(4) 0.13430(13)
C36 C 0.1762(2) 0.4337(4) 0.14709(13)
N1 N 0.2875(2) 0.4284(4) -0.15852(11)
N2 N 0.4370(2) 1.0142(4) -0.08479(12)
N3 N 0.43274(19) 0.4323(4) 0.03049(11)
N4 N 0.36330(18) 0.6807(4) -0.09359(11)
N5 N 0.39548(19) 0.6840(4) -0.04564(11)
N6 N 0.36001(19) 0.5382(4) -0.06403(11)
N7 N 0.38765(19) 0.3860(4) 0.09242(11)
N8 N 0.2395(2) 0.5694(4) 0.27262(11)
N9 N 0.03459(19) 0.3876(4) 0.11037(11)
N10 N 0.26518(19) 0.4550(4) 0.17076(10)
N11 N 0.17829(19) 0.4587(4) 0.17538(11)
N12 N 0.21493(18) 0.4207(4) 0.13003(10)
Zn2A Zn 0.24746(3) 0.64923(6) 0.309850(16)
Zn3C Zn -0.03281(3) 0.34989(6) 0.092710(17)
N8A N 0.2605(2) 0.4306(4) -0.22738(11)
N9C N 0.53459(19) 1.1124(4) -0.11037(11)
C37 C 0.2643(6) 0.188(2) 0.1497(4)
C38 C 0.3131(7) 0.187(2) 0.1527(5)
H25 H 0.3276 0.2007 0.1710
C39 C 0.3432(6) 0.1640(13) 0.1284(4)
C40 C 0.3206(6) 0.1420(15) 0.1015(4)
H26 H 0.3406 0.1268 0.0851
C41 C 0.2684(6) 0.142(2) 0.0986(4)
H27 H 0.2532 0.1247 0.0808
C42 C 0.2405(7) 0.169(2) 0.1221(4)
C43 C 0.1857(7) 0.163(3) 0.1205(4)
C44 C 0.1637(7) 0.149(3) 0.0935(4)
H28 H 0.1830 0.1428 0.0763
C45 C 0.1139(7) 0.1453(19) 0.0926(4)
H29 H 0.0985 0.1332 0.0744
C46 C 0.0826(7) 0.1586(17) 0.1181(4)
H30 H 0.0477 0.1549 0.1170
C47 C 0.1071(7) 0.1770(19) 0.1440(4)
H31 H 0.0886 0.1868 0.1613
C48 C 0.1603(8) 0.182(4) 0.1452(4)
C49 C 0.1836(7) 0.203(2) 0.1730(4)
C50 C 0.1520(6) 0.2236(17) 0.1981(5)
H32 H 0.1172 0.2181 0.1969
C51 C 0.1749(8) 0.2517(13) 0.2238(4)
H33 H 0.1555 0.2679 0.2403
C52 C 0.2260(8) 0.2563(19) 0.2256(4)
H34 H 0.2415 0.2712 0.2437
C53 C 0.2533(7) 0.2398(13) 0.2019(4)
H35 H 0.2880 0.2480 0.2032
C54 C 0.2338(7) 0.212(2) 0.1762(4)
N13 N 0.3945(6) 0.1615(9) 0.1328(3)
H36 H 0.4143 0.1457 0.1184
H37 H 0.4069 0.1758 0.1500
C73 C 0.2960(4) 0.8275(7) 0.02332(17)
C74 C 0.3431(4) 0.7967(8) 0.02134(18)
H51 H 0.3503 0.7291 0.0194
C75 C 0.3803(4) 0.8641(11) 0.02212(18)
H52 H 0.4138 0.8444 0.0212
C76 C 0.3675(5) 0.9623(10) 0.0243(2)
H53 H 0.3926 1.0105 0.0246
C77 C 0.3189(6) 0.9901(8) 0.0260(2)
H54 H 0.3104 1.0573 0.0272
C78 C 0.2837(4) 0.9210(9) 0.02602(19)
H55 H 0.2500 0.9390 0.0279
N15 N 0.2559(5) 0.7484(9) 0.0226(2)
O1 O 0.2730(6) 0.6646(8) 0.0174(2)
O2 O 0.2153(4) 0.7765(12) 0.0258(2)
C79 C 0.2222(7) 1.0359(15) 0.4312(4)
C80 C 0.2014(9) 1.0217(18) 0.4033(6)
H56 H 0.1979 1.0729 0.3895
C81 C 0.1871(11) 0.9294(18) 0.3980(7)
H57 H 0.1737 0.9145 0.3794
C82 C 0.1910(10) 0.8566(18) 0.4177(6)
H58 H 0.1793 0.7931 0.4131
C83 C 0.2122(9) 0.8749(18) 0.4451(5)
H59 H 0.2148 0.8240 0.4591
C84 C 0.2287(6) 0.9641(16) 0.4512(4)
H60 H 0.2447 0.9772 0.4692
N16 N 0.2391(4) 1.1333(11) 0.4383(4)
O3 O 0.2300(5) 1.1969(10) 0.4207(3)
O4 O 0.2651(7) 1.1462(14) 0.4606(3)
C91 C 0.5642(4) 0.0517(10) 0.7292(2)
C92 C 0.5649(4) -0.0462(9) 0.7255(2)
H66 H 0.5623 -0.0889 0.7418
C93 C 0.5693(4) -0.0825(10) 0.6977(3)
H67 H 0.5697 -0.1509 0.6943
C94 C 0.5732(5) -0.0184(10) 0.6752(3)
H68 H 0.5784 -0.0431 0.6561
C95 C 0.5697(8) 0.0807(11) 0.6791(3)
H69 H 0.5693 0.1242 0.6630
C96 C 0.5668(8) 0.1140(12) 0.7067(3)
H70 H 0.5666 0.1824 0.7102
N18 N 0.5580(5) 0.0916(11) 0.7598(3)
O7 O 0.5554(4) 0.0277(10) 0.7790(2)
O8 O 0.5552(6) 0.1769(9) 0.7634(3)
C97 C 0.4220(6) 0.1019(16) 0.7242(5)
C98 C 0.4136(6) 0.1185(16) 0.7532(5)
H71 H 0.4042 0.1803 0.7607
C99 C 0.4201(7) 0.036(2) 0.7704(5)
H72 H 0.4148 0.0374 0.7908
C100 C 0.4350(8) -0.0470(16) 0.7557(6)
H73 H 0.4417 -0.1022 0.7676
C101 C 0.4412(7) -0.0605(16) 0.7267(6)
H74 H 0.4501 -0.1213 0.7183
C102 C 0.4336(8) 0.0190(18) 0.7116(5)
H75 H 0.4366 0.0167 0.6910
N19 N 0.4121(10) 0.1946(18) 0.7064(5)
O9 O 0.4016(12) 0.273(2) 0.7207(8)
O10 O 0.4261(11) 0.187(2) 0.6822(5)
loop_
_geom_bond_atom_site_label_1
_geom_bond_atom_site_label_2
_geom_bond_site_symmetry_1
_geom_bond_site_symmetry_2
Zn1 I1 1_555 1_555
Zn2 I3 1_555 1_555
Zn3 I5 1_555 1_555
I2 Zn1 1_555 1_555
I4 Zn2 1_555 1_555
I6 Zn3 1_555 1_555
C1 H1 1_555 1_555
C2 C1 1_555 1_555
H2 C2 1_555 1_555
C3 H3 1_555 1_555
C4 C3 1_555 1_555
H4 C4 1_555 1_555
C5 C2 1_555 1_555
C6 C5 1_555 1_555
C7 H5 1_555 1_555
C8 C7 1_555 1_555
H6 C8 1_555 1_555
C9 H7 1_555 1_555
C10 C9 1_555 1_555
H8 C10 1_555 1_555
C11 C8 1_555 1_555
C12 C11 1_555 1_555
C13 H9 1_555 1_555
C14 C13 1_555 1_555
H10 C14 1_555 1_555
C15 H11 1_555 1_555
C16 C15 1_555 1_555
H12 C16 1_555 1_555
C17 C14 1_555 1_555
C18 C17 1_555 1_555
C19 H13 1_555 1_555
C20 C19 1_555 1_555
H14 C20 1_555 1_555
C21 H15 1_555 1_555
C22 C21 1_555 1_555
H16 C22 1_555 1_555
C23 C20 1_555 1_555
C24 C23 1_555 1_555
C25 H17 1_555 1_555
C26 C25 1_555 1_555
H18 C26 1_555 1_555
C27 H19 1_555 1_555
C28 C27 1_555 1_555
H20 C28 1_555 1_555
C29 C26 1_555 1_555
C30 C29 1_555 1_555
C31 H21 1_555 1_555
C32 C31 1_555 1_555
H22 C32 1_555 1_555
C33 H23 1_555 1_555
C34 C33 1_555 1_555
H24 C34 1_555 1_555
C35 C32 1_555 1_555
C36 C35 1_555 1_555
N1 Zn2 1_555 1_555
N2 Zn3 1_555 1_555
N3 Zn1 1_555 1_555
N4 C6 1_555 1_555
N5 C12 1_555 1_555
N6 C6 1_555 1_555
N7 Zn1 1_555 1_555
N8 C25 1_555 1_555
N9 C31 1_555 1_555
N10 C24 1_555 1_555
N11 C30 1_555 1_555
N12 C24 1_555 1_555
C37 C38 1_555 1_555
C38 H25 1_555 1_555
C39 C38 1_555 1_555
C40 C39 1_555 1_555
H26 C40 1_555 1_555
C41 C40 1_555 1_555
H27 C41 1_555 1_555
C42 C37 1_555 1_555
C43 C42 1_555 1_555
C44 C43 1_555 1_555
H28 C44 1_555 1_555
C45 C44 1_555 1_555
H29 C45 1_555 1_555
C46 C45 1_555 1_555
H30 C46 1_555 1_555
C47 C46 1_555 1_555
H31 C47 1_555 1_555
C48 C43 1_555 1_555
C49 C48 1_555 1_555
C50 C49 1_555 1_555
H32 C50 1_555 1_555
C51 C50 1_555 1_555
H33 C51 1_555 1_555
C52 C51 1_555 1_555
H34 C52 1_555 1_555
C53 C52 1_555 1_555
H35 C53 1_555 1_555
C54 C37 1_555 1_555
N13 C39 1_555 1_555
H36 N13 1_555 1_555
H37 N13 1_555 1_555
C73 C74 1_555 1_555
C74 H51 1_555 1_555
C75 C74 1_555 1_555
H52 C75 1_555 1_555
C76 C75 1_555 1_555
H53 C76 1_555 1_555
C77 C76 1_555 1_555
H54 C77 1_555 1_555
C78 C73 1_555 1_555
H55 C78 1_555 1_555
N15 C73 1_555 1_555
O1 N15 1_555 1_555
O2 N15 1_555 1_555
C79 C80 1_555 1_555
C80 H56 1_555 1_555
C81 C80 1_555 1_555
H57 C81 1_555 1_555
C82 C81 1_555 1_555
H58 C82 1_555 1_555
C83 C82 1_555 1_555
H59 C83 1_555 1_555
C84 C79 1_555 1_555
H60 C84 1_555 1_555
N16 C79 1_555 1_555
O3 N16 1_555 1_555
O4 N16 1_555 1_555
C91 C92 1_555 1_555
C92 H66 1_555 1_555
C93 C92 1_555 1_555
H67 C93 1_555 1_555
C94 C93 1_555 1_555
H68 C94 1_555 1_555
C95 C94 1_555 1_555
H69 C95 1_555 1_555
C96 C91 1_555 1_555
H70 C96 1_555 1_555
N18 C91 1_555 1_555
O7 N18 1_555 1_555
O8 N18 1_555 1_555
C97 C98 1_555 1_555
C98 H71 1_555 1_555
C99 C98 1_555 1_555
H72 C99 1_555 1_555
C100 C99 1_555 1_555
H73 C100 1_555 1_555
C101 C100 1_555 1_555
H74 C101 1_555 1_555
C102 C97 1_555 1_555
H75 C102 1_555 1_555
N19 C97 1_555 1_555
O9 N19 1_555 1_555
O10 N19 1_555 1_555
Zn2A N8 1_555 1_555
Zn3C N9 1_555 1_555
N8A Zn2 1_555 1_555
N9C Zn3 1_555 1_555
C1 N1 1_555 1_555
C3 N1 1_555 1_555
C4 C5 1_555 1_555
C7 N2 1_555 1_555
C9 N2 1_555 1_555
C10 C11 1_555 1_555
C12 N4 1_555 1_555
C13 N3 1_555 1_555
C15 N3 1_555 1_555
C16 C17 1_555 1_555
C18 N5 1_555 1_555
C18 N6 1_555 1_555
C19 N7 1_555 1_555
C21 N7 1_555 1_555
C22 C23 1_555 1_555
C27 N8 1_555 1_555
C28 C29 1_555 1_555
C30 N10 1_555 1_555
C33 N9 1_555 1_555
C34 C35 1_555 1_555
C36 N11 1_555 1_555
C36 N12 1_555 1_555
C41 C42 1_555 1_555
C47 C48 1_555 1_555
C49 C54 1_555 1_555
C53 C54 1_555 1_555
C77 C78 1_555 1_555
C83 C84 1_555 1_555
C95 C96 1_555 1_555
C101 C102 1_555 1_555

#END
