
#######################################################################
#
#                 Cambridge Crystallographic Data Centre
#                                CCDC 
#
#######################################################################
#
# If this CIF has been generated from an entry in the Cambridge 
# Structural Database, then it will include bibliographic, chemical, 
# crystal, experimental, refinement or atomic coordinate data resulting 
# from the CCDC's data processing and validation procedures.
#
#######################################################################

data_CIWSAD
_chemical_formula_moiety         '(C75 H80 I6 N12 O2 Zn3)n'
_symmetry_cell_setting           orthorhombic
_symmetry_space_group_name_H-M   'P b c a'
_symmetry_Int_Tables_number      61
_space_group_name_Hall           '-P 2ac 2ab'
loop_
_symmetry_equiv_pos_site_id
_symmetry_equiv_pos_as_xyz
1 x,y,z
2 1/2-x,-y,1/2+z
3 -x,1/2+y,1/2-z
4 1/2+x,1/2-y,-z
5 -x,-y,-z
6 1/2+x,y,1/2-z
7 x,1/2-y,1/2+z
8 1/2-x,1/2+y,z
_cell_length_a                   27.590(6)
_cell_length_b                   13.673(3)
_cell_length_c                   45.606(9)
_cell_angle_alpha                90
_cell_angle_beta                 90
_cell_angle_gamma                90
_cell_volume                     17204.3
loop_
_atom_site_label
_atom_site_type_symbol
_atom_site_fract_x
_atom_site_fract_y
_atom_site_fract_z
Zn1 Zn 0.74391(2) 0.65104(4) 0.312439(10)
Zn2 Zn 0.556600(18) 0.65754(4) 0.573500(11)
Zn3 Zn 0.530470(18) -0.14697(4) 0.413880(12)
I1 I 0.698853(14) 0.81409(2) 0.309056(8)
I2 I 0.834226(13) 0.65603(3) 0.323465(7)
I3 I 0.488070(11) 0.57413(3) 0.600630(7)
I4 I 0.563920(14) 0.83936(2) 0.562560(9)
I5 I 0.511520(13) -0.22199(3) 0.463680(8)
I6 I 0.581670(13) -0.23169(3) 0.375610(10)
C1 C 0.59323(17) 0.6253(3) 0.51286(9)
H1 H 0.6015 0.6925 0.5145
C2 C 0.60691(18) 0.5748(3) 0.48785(10)
H2 H 0.6243 0.6069 0.4727
C3 C 0.55644(18) 0.4895(3) 0.53194(10)
H3 H 0.5385 0.4594 0.5473
C4 C 0.56855(17) 0.4347(3) 0.50762(10)
H4 H 0.5588 0.3682 0.5062
C5 C 0.59493(15) 0.4772(3) 0.48537(8)
C6 C 0.60890(15) 0.4207(3) 0.45889(9)
C7 C 0.55418(16) 0.0349(3) 0.44706(10)
H5 H 0.5384 0.0013 0.4626
C8 C 0.57058(16) 0.1288(3) 0.45192(10)
H6 H 0.5657 0.1596 0.4704
C9 C 0.58326(18) 0.0365(3) 0.39988(10)
H7 H 0.5880 0.0042 0.3817
C10 C 0.60096(19) 0.1303(3) 0.40319(10)
H8 H 0.6175 0.1616 0.3875
C11 C 0.59427(15) 0.1776(3) 0.42948(9)
C12 C 0.60944(15) 0.2814(3) 0.43310(9)
C13 C 0.70030(19) 0.4754(3) 0.34147(10)
H9 H 0.7101 0.4419 0.3242
C14 C 0.67836(19) 0.4227(3) 0.36380(10)
H10 H 0.6732 0.3543 0.3617
C15 C 0.69296(18) 0.6176(3) 0.36739(9)
H11 H 0.6973 0.6865 0.3686
C16 C 0.67128(18) 0.5695(3) 0.39063(10)
H12 H 0.6614 0.6048 0.4076
C17 C 0.66416(15) 0.4702(3) 0.38896(9)
C18 C 0.64161(14) 0.4176(3) 0.41362(9)
C19 C 0.68907(17) 0.5764(4) 0.26128(10)
H13 H 0.6623 0.6035 0.2716
C20 C 0.68149(16) 0.5394(3) 0.23349(10)
H14 H 0.6500 0.5397 0.2251
C21 C 0.76972(16) 0.5360(3) 0.25983(9)
H15 H 0.8004 0.5326 0.2692
C22 C 0.76513(16) 0.5001(3) 0.23178(9)
H16 H 0.7925 0.4741 0.2218
C23 C 0.72033(15) 0.5021(3) 0.21817(9)
C24 C 0.71578(15) 0.4691(3) 0.18761(9)
C25 C 0.88276(15) 0.4072(3) 0.12436(9)
H17 H 0.9135 0.4154 0.1334
C26 C 0.84175(14) 0.4242(3) 0.14062(9)
H18 H 0.8443 0.4432 0.1606
C27 C 0.83723(15) 0.3698(3) 0.08369(9)
H19 H 0.8356 0.3504 0.0637
C28 C 0.79473(15) 0.3866(3) 0.09846(9)
H20 H 0.7644 0.3799 0.0888
C29 C 0.79675(14) 0.4135(3) 0.12776(8)
C30 C 0.75175(15) 0.4299(3) 0.14482(8)
C31 C 0.57504(16) 0.3921(3) 0.09125(10)
H21 H 0.5734 0.3857 0.0705
C32 C 0.61954(16) 0.4073(4) 0.10397(9)
H22 H 0.6478 0.4110 0.0921
C33 C 0.53727(18) 0.3965(4) 0.13556(11)
H23 H 0.5084 0.3930 0.1469
C34 C 0.58077(17) 0.4121(4) 0.14988(11)
H24 H 0.5815 0.4191 0.1706
C35 C 0.62299(14) 0.4174(3) 0.13394(9)
C36 C 0.67047(15) 0.4307(3) 0.14803(9)
N1 N 0.56899(13) 0.5832(3) 0.53472(7)
N2 N 0.55970(12) -0.0108(3) 0.42128(8)
N3 N 0.70803(14) 0.5711(3) 0.34340(8)
N4 N 0.59720(13) 0.3266(2) 0.45802(7)
N5 N 0.63221(13) 0.3226(2) 0.41043(7)
N6 N 0.63135(13) 0.4703(2) 0.43762(7)
N7 N 0.73237(14) 0.5757(3) 0.27429(7)
N8 N 0.88098(12) 0.3795(2) 0.09624(7)
N9 N 0.53420(13) 0.3860(3) 0.10656(8)
N10 N 0.75720(12) 0.4556(2) 0.17284(7)
N11 N 0.70956(12) 0.4166(2) 0.13139(7)
N12 N 0.67129(12) 0.4566(2) 0.17638(7)
Zn2A Zn 0.943400(18) 0.34246(4) 0.073500(11)
Zn3B Zn 0.469530(18) 0.35303(4) 0.086120(12)
N8A N 0.61902(12) 0.6205(2) 0.59624(7)
N9B N 0.46580(13) -0.1140(3) 0.39344(8)
C55 C 0.7411(5) 0.687(2) 0.1497(3)
C56 C 0.6904(6) 0.684(3) 0.1481(4)
C57 C 0.6657(6) 0.658(3) 0.1242(4)
H37 H 0.6313 0.6541 0.1245
C58 C 0.6918(6) 0.635(2) 0.0983(4)
H38 H 0.6747 0.6184 0.0809
C59 C 0.7431(6) 0.637(3) 0.0983(4)
H39 H 0.7607 0.6230 0.0809
C60 C 0.7674(5) 0.660(2) 0.1244(3)
C61 C 0.8207(5) 0.662(3) 0.1241(4)
C62 C 0.8467(6) 0.644(3) 0.0978(4)
H40 H 0.8299 0.6330 0.0799
C63 C 0.8965(6) 0.642(2) 0.0986(4)
H41 H 0.9139 0.6349 0.0807
C64 C 0.9224(6) 0.6496(19) 0.1251(4)
H42 H 0.9567 0.6425 0.1255
C65 C 0.8965(6) 0.668(3) 0.1506(4)
H43 H 0.9136 0.6768 0.1685
C66 C 0.8452(6) 0.674(4) 0.1506(4)
C67 C 0.8186(6) 0.698(4) 0.1770(4)
C68 C 0.8479(7) 0.713(3) 0.2028(4)
H44 H 0.8819 0.7023 0.2022
C69 C 0.8249(7) 0.746(2) 0.2291(4)
H45 H 0.8431 0.7586 0.2463
C70 C 0.7742(7) 0.757(2) 0.2284(4)
H46 H 0.7586 0.7816 0.2455
C71 C 0.7469(7) 0.7358(15) 0.2050(4)
H47 H 0.7127 0.7411 0.2064
C72 C 0.7682(6) 0.706(3) 0.1783(4)
O2 O 0.6653(5) 0.7030(7) 0.1750(3)
H48 H 0.6353 0.6983 0.1722
C73 C 0.7441(2) 0.3943(6) 0.01839(14)
H49 H 0.7447 0.4033 -0.0031
H50 H 0.7752 0.4192 0.0263
C74 C 0.7024(2) 0.4541(5) 0.03136(14)
H51 H 0.7056 0.5233 0.0253
H52 H 0.7037 0.4512 0.0530
C75 C 0.6543(2) 0.4139(5) 0.02075(14)
H53 H 0.6276 0.4487 0.0308
H54 H 0.6511 0.4263 -0.0006
C76 C 0.6495(2) 0.3043(5) 0.02648(14)
H55 H 0.6472 0.2929 0.0479
H56 H 0.6193 0.2801 0.0173
C77 C 0.6921(3) 0.2474(6) 0.01441(15)
H57 H 0.6892 0.1781 0.0204
H58 H 0.6914 0.2499 -0.0073
C78 C 0.7399(3) 0.2877(6) 0.02517(15)
H59 H 0.7424 0.2777 0.0466
H60 H 0.7668 0.2518 0.0157
C79 C 0.8170(2) 0.4452(5) 0.44395(15)
H61 H 0.8162 0.5112 0.4529
H62 H 0.8478 0.4390 0.4329
C80 C 0.7757(2) 0.4354(5) 0.42315(14)
H63 H 0.7806 0.4803 0.4064
H64 H 0.7453 0.4545 0.4332
C81 C 0.7709(2) 0.3336(5) 0.41208(15)
H65 H 0.7415 0.3287 0.3997
H66 H 0.7992 0.3180 0.3996
C82 C 0.7678(3) 0.2610(5) 0.43615(18)
H67 H 0.7380 0.2728 0.4477
H68 H 0.7659 0.1943 0.4278
C83 C 0.8105(3) 0.2684(6) 0.45542(16)
H69 H 0.8400 0.2516 0.4441
H70 H 0.8074 0.2206 0.4716
C84 C 0.8160(4) 0.3694(7) 0.46805(16)
H71 H 0.8464 0.3731 0.4795
H72 H 0.7886 0.3832 0.4815
C91 C 0.5936(6) 0.8933(16) 0.2460(4)
H85 H 0.5703 0.8448 0.2376
C92 C 0.5721(6) 0.9077(19) 0.2737(3)
H86 H 0.5772 0.8494 0.2859
H87 H 0.5373 0.9191 0.2713
H88 H 0.5869 0.9645 0.2833
C93 C 0.5894(6) 0.9676(16) 0.2249(5)
H89 H 0.6035 0.9453 0.2063
H90 H 0.6065 1.0261 0.2317
H91 H 0.5550 0.9832 0.2219
O3 O 0.6365(5) 0.8400(9) 0.2431(2)
H92 H 0.6375 0.7962 0.2560
C100 C 0.5722(6) 0.5279(11) 0.3238(3)
H109 H 0.5531 0.5335 0.3421
H110 H 0.6056 0.5485 0.3287
C101 C 0.5523(9) 0.6062(16) 0.3030(4)
H111 H 0.5712 0.6673 0.3051
H112 H 0.5181 0.6206 0.3080
C102 C 0.5555(7) 0.5707(15) 0.2728(3)
H113 H 0.5274 0.5975 0.2619
H114 H 0.5850 0.5993 0.2639
C103 C 0.5569(7) 0.4602(15) 0.2672(4)
H115 H 0.5230 0.4363 0.2679
H116 H 0.5685 0.4503 0.2469
C104 C 0.5859(8) 0.3956(14) 0.2864(4)
H117 H 0.6209 0.4046 0.2823
H118 H 0.5775 0.3263 0.2827
C105 C 0.5750(7) 0.4216(12) 0.3170(3)
H119 H 0.6002 0.3922 0.3297
H120 H 0.5437 0.3913 0.3224
loop_
_geom_bond_atom_site_label_1
_geom_bond_atom_site_label_2
_geom_bond_site_symmetry_1
_geom_bond_site_symmetry_2
Zn1 I1 1_555 1_555
Zn2 I3 1_555 1_555
Zn3 I5 1_555 1_555
I2 Zn1 1_555 1_555
I4 Zn2 1_555 1_555
I6 Zn3 1_555 1_555
C1 H1 1_555 1_555
C2 C1 1_555 1_555
H2 C2 1_555 1_555
C3 H3 1_555 1_555
C4 C3 1_555 1_555
H4 C4 1_555 1_555
C5 C2 1_555 1_555
C6 C5 1_555 1_555
C7 H5 1_555 1_555
C8 C7 1_555 1_555
H6 C8 1_555 1_555
C9 H7 1_555 1_555
C10 C9 1_555 1_555
H8 C10 1_555 1_555
C11 C8 1_555 1_555
C12 C11 1_555 1_555
C13 H9 1_555 1_555
C14 C13 1_555 1_555
H10 C14 1_555 1_555
C15 H11 1_555 1_555
C16 C15 1_555 1_555
H12 C16 1_555 1_555
C17 C14 1_555 1_555
C18 C17 1_555 1_555
C19 H13 1_555 1_555
C20 C19 1_555 1_555
H14 C20 1_555 1_555
C21 H15 1_555 1_555
C22 C21 1_555 1_555
H16 C22 1_555 1_555
C23 C20 1_555 1_555
C24 C23 1_555 1_555
C25 H17 1_555 1_555
C26 C25 1_555 1_555
H18 C26 1_555 1_555
C27 H19 1_555 1_555
C28 C27 1_555 1_555
H20 C28 1_555 1_555
C29 C26 1_555 1_555
C30 C29 1_555 1_555
C31 H21 1_555 1_555
C32 C31 1_555 1_555
H22 C32 1_555 1_555
C33 H23 1_555 1_555
C34 C33 1_555 1_555
H24 C34 1_555 1_555
C35 C32 1_555 1_555
C36 C35 1_555 1_555
N1 Zn2 1_555 1_555
N2 Zn3 1_555 1_555
N3 Zn1 1_555 1_555
N4 C6 1_555 1_555
N5 C12 1_555 1_555
N6 C6 1_555 1_555
N7 Zn1 1_555 1_555
N8 C25 1_555 1_555
N9 C31 1_555 1_555
N10 C24 1_555 1_555
N11 C30 1_555 1_555
N12 C24 1_555 1_555
C55 C56 1_555 1_555
C56 C57 1_555 1_555
C57 H37 1_555 1_555
C58 C57 1_555 1_555
H38 C58 1_555 1_555
C59 C58 1_555 1_555
H39 C59 1_555 1_555
C60 C55 1_555 1_555
C61 C60 1_555 1_555
C62 C61 1_555 1_555
H40 C62 1_555 1_555
C63 C62 1_555 1_555
H41 C63 1_555 1_555
C64 C63 1_555 1_555
H42 C64 1_555 1_555
C65 C64 1_555 1_555
H43 C65 1_555 1_555
C66 C61 1_555 1_555
C67 C66 1_555 1_555
C68 C67 1_555 1_555
H44 C68 1_555 1_555
C69 C68 1_555 1_555
H45 C69 1_555 1_555
C70 C69 1_555 1_555
H46 C70 1_555 1_555
C71 C70 1_555 1_555
H47 C71 1_555 1_555
C72 C55 1_555 1_555
O2 C56 1_555 1_555
H48 O2 1_555 1_555
C73 H49 1_555 1_555
H50 C73 1_555 1_555
C74 C73 1_555 1_555
H51 C74 1_555 1_555
H52 C74 1_555 1_555
C75 C74 1_555 1_555
H53 C75 1_555 1_555
H54 C75 1_555 1_555
C76 C75 1_555 1_555
H55 C76 1_555 1_555
H56 C76 1_555 1_555
C77 C76 1_555 1_555
H57 C77 1_555 1_555
H58 C77 1_555 1_555
C78 C73 1_555 1_555
H59 C78 1_555 1_555
H60 C78 1_555 1_555
C79 H61 1_555 1_555
H62 C79 1_555 1_555
C80 C79 1_555 1_555
H63 C80 1_555 1_555
H64 C80 1_555 1_555
C81 C80 1_555 1_555
H65 C81 1_555 1_555
H66 C81 1_555 1_555
C82 C81 1_555 1_555
H67 C82 1_555 1_555
H68 C82 1_555 1_555
C83 C82 1_555 1_555
H69 C83 1_555 1_555
H70 C83 1_555 1_555
C84 C79 1_555 1_555
H71 C84 1_555 1_555
H72 C84 1_555 1_555
C91 H85 1_555 1_555
C92 C91 1_555 1_555
H86 C92 1_555 1_555
H87 C92 1_555 1_555
H88 C92 1_555 1_555
C93 C91 1_555 1_555
H89 C93 1_555 1_555
H90 C93 1_555 1_555
H91 C93 1_555 1_555
O3 C91 1_555 1_555
H92 O3 1_555 1_555
C100 H109 1_555 1_555
H110 C100 1_555 1_555
C101 C100 1_555 1_555
H111 C101 1_555 1_555
H112 C101 1_555 1_555
C102 C101 1_555 1_555
H113 C102 1_555 1_555
H114 C102 1_555 1_555
C103 C102 1_555 1_555
H115 C103 1_555 1_555
H116 C103 1_555 1_555
C104 C103 1_555 1_555
H117 C104 1_555 1_555
H118 C104 1_555 1_555
C105 C100 1_555 1_555
H119 C105 1_555 1_555
H120 C105 1_555 1_555
Zn2A N8 1_555 1_555
Zn3B N9 1_555 1_555
N8A Zn2 1_555 1_555
N9B Zn3 1_555 1_555
C1 N1 1_555 1_555
C3 N1 1_555 1_555
C4 C5 1_555 1_555
C7 N2 1_555 1_555
C9 N2 1_555 1_555
C10 C11 1_555 1_555
C12 N4 1_555 1_555
C13 N3 1_555 1_555
C15 N3 1_555 1_555
C16 C17 1_555 1_555
C18 N5 1_555 1_555
C18 N6 1_555 1_555
C19 N7 1_555 1_555
C21 N7 1_555 1_555
C22 C23 1_555 1_555
C27 N8 1_555 1_555
C28 C29 1_555 1_555
C30 N10 1_555 1_555
C33 N9 1_555 1_555
C34 C35 1_555 1_555
C36 N11 1_555 1_555
C36 N12 1_555 1_555
C59 C60 1_555 1_555
C65 C66 1_555 1_555
C67 C72 1_555 1_555
C71 C72 1_555 1_555
C77 C78 1_555 1_555
C83 C84 1_555 1_555
C104 C105 1_555 1_555

#END
