
#######################################################################
#
#                 Cambridge Crystallographic Data Centre
#                                CCDC 
#
#######################################################################
#
# If this CIF has been generated from an entry in the Cambridge 
# Structural Database, then it will include bibliographic, chemical, 
# crystal, experimental, refinement or atomic coordinate data resulting 
# from the CCDC's data processing and validation procedures.
#
#######################################################################

data_CIXBUH
_chemical_formula_moiety         '(C78 H57 I6 N17 O8 Zn3)n'
_symmetry_cell_setting           orthorhombic
_symmetry_space_group_name_H-M   'P b c a'
_symmetry_Int_Tables_number      61
_space_group_name_Hall           '-P 2ac 2ab'
loop_
_symmetry_equiv_pos_site_id
_symmetry_equiv_pos_as_xyz
1 x,y,z
2 1/2-x,-y,1/2+z
3 -x,1/2+y,1/2-z
4 1/2+x,1/2-y,-z
5 -x,-y,-z
6 1/2+x,y,1/2-z
7 x,1/2-y,1/2+z
8 1/2-x,1/2+y,z
_cell_length_a                   27.286(3)
_cell_length_b                   13.6997(17)
_cell_length_c                   45.829(6)
_cell_angle_alpha                90
_cell_angle_beta                 90
_cell_angle_gamma                90
_cell_volume                     17131.3
loop_
_atom_site_label
_atom_site_type_symbol
_atom_site_fract_x
_atom_site_fract_y
_atom_site_fract_z
Zn1 Zn 0.24633(3) -0.15660(6) 0.311444(15)
Zn2 Zn 0.03019(3) 0.64159(6) 0.40931(2)
Zn3 Zn 0.04882(3) -0.13970(6) 0.571990(16)
I1 I 0.337270(18) -0.17113(5) 0.322769(11)
I2 I 0.194744(19) -0.31047(3) 0.304062(11)
I3 I 0.07770(2) 0.72549(5) 0.36902(2)
I4 I 0.01494(2) 0.72111(4) 0.458690(15)
I5 I 0.04889(2) -0.32339(4) 0.564240(13)
I6 I -0.017680(16) -0.04456(5) 0.598310(12)
C1 C 0.0725(3) 0.4503(5) 0.39393(17)
H1 H 0.0681 0.4751 0.3748
C2 C 0.0899(3) 0.3569(5) 0.39746(15)
H2 H 0.0970 0.3176 0.3809
C3 C 0.0689(3) 0.4737(6) 0.44364(17)
H3 H 0.0626 0.5152 0.4598
C4 C 0.0856(3) 0.3796(5) 0.44863(17)
H4 H 0.0891 0.3560 0.4680
C5 C 0.0970(2) 0.3205(4) 0.42520(14)
C6 C 0.1132(2) 0.2185(4) 0.43015(14)
C7 C 0.0521(3) 0.0227(5) 0.52865(15)
H5 H 0.0325 0.0549 0.5428
C8 C 0.0673(2) 0.0736(5) 0.50472(14)
H6 H 0.0581 0.1400 0.5024
C9 C 0.0905(3) -0.1163(5) 0.51220(14)
H7 H 0.0978 -0.1836 0.5146
C10 C 0.1077(3) -0.0689(5) 0.48759(15)
H8 H 0.1271 -0.1026 0.4736
C11 C 0.0961(2) 0.0288(5) 0.48373(14)
C12 C 0.1127(2) 0.0820(5) 0.45729(13)
C13 C 0.1908(3) -0.1239(5) 0.36574(14)
H9 H 0.1896 -0.1932 0.3657
C14 C 0.1703(2) -0.0741(4) 0.38881(14)
H10 H 0.1561 -0.1089 0.4046
C15 C 0.2126(3) 0.0197(5) 0.34345(15)
H11 H 0.2277 0.0530 0.3276
C16 C 0.1919(3) 0.0739(5) 0.36555(16)
H12 H 0.1925 0.1432 0.3648
C17 C 0.1704(2) 0.0266(5) 0.38878(13)
C18 C 0.1469(2) 0.0809(4) 0.41279(13)
C19 C 0.2771(2) -0.0447(4) 0.25895(13)
H13 H 0.3085 -0.0467 0.2679
C20 C 0.2734(2) -0.0097(4) 0.23072(12)
H14 H 0.3018 0.0108 0.2204
C21 C 0.1940(2) -0.0671(5) 0.26227(14)
H15 H 0.1661 -0.0856 0.2733
C22 C 0.1873(2) -0.0320(5) 0.23412(13)
H16 H 0.1552 -0.0265 0.2262
C23 C 0.2276(2) -0.0052(4) 0.21788(12)
C24 C 0.2225(2) 0.0256(4) 0.18712(12)
C25 C 0.0405(2) 0.0891(6) 0.13783(16)
H17 H 0.0118 0.0911 0.1496
C26 C 0.0852(3) 0.0714(6) 0.15126(16)
H18 H 0.0869 0.0594 0.1717
C27 C 0.0764(2) 0.1000(5) 0.09298(14)
H19 H 0.0733 0.1078 0.0725
C28 C 0.1225(2) 0.0858(5) 0.10462(13)
H20 H 0.1505 0.0858 0.0923
C29 C 0.1274(2) 0.0715(4) 0.13435(13)
C30 C 0.1759(2) 0.0592(4) 0.14802(12)
C31 C 0.3434(2) 0.1170(5) 0.08229(13)
H21 H 0.3415 0.1357 0.0624
C32 C 0.3006(2) 0.1012(5) 0.09723(13)
H22 H 0.2699 0.1079 0.0877
C33 C 0.3897(2) 0.0805(5) 0.12265(13)
H23 H 0.4209 0.0717 0.1314
C34 C 0.3486(2) 0.0652(4) 0.13932(13)
H24 H 0.3513 0.0479 0.1593
C35 C 0.3030(2) 0.0755(4) 0.12630(12)
C36 C 0.2578(2) 0.0607(4) 0.14382(12)
N1 N 0.06156(19) 0.5075(4) 0.41682(13)
N2 N 0.0639(2) -0.0714(4) 0.53280(11)
N3 N 0.2124(2) -0.0776(4) 0.34329(11)
N4 N 0.1011(2) 0.1769(4) 0.45537(12)
N5 N 0.1365(2) 0.0313(4) 0.43727(11)
N6 N 0.13583(19) 0.1741(4) 0.40826(12)
N7 N 0.23825(19) -0.0759(4) 0.27432(11)
N8 N 0.03584(19) 0.1033(4) 0.10947(13)
N9 N 0.38773(18) 0.1076(4) 0.09434(10)
N10 N 0.17727(17) 0.0355(3) 0.17627(10)
N11 N 0.21491(18) 0.0718(3) 0.13059(10)
N12 N 0.26412(17) 0.0379(3) 0.17191(10)
Zn2B Zn -0.03019(3) 0.14159(6) 0.09069(2)
Zn3A Zn 0.45118(3) 0.13970(6) 0.071990(16)
N8B N -0.03584(19) 0.6033(4) 0.39053(13)
N9A N 0.11227(18) -0.1076(4) 0.59434(10)
C55 C 0.2635(6) 0.305(2) 0.1485(4)
C56 C 0.3148(6) 0.3161(18) 0.1475(5)
C57 C 0.3403(7) 0.3332(19) 0.1221(5)
H38 H 0.3751 0.3332 0.1219
C58 C 0.3133(8) 0.350(2) 0.0964(5)
H39 H 0.3296 0.3656 0.0787
C59 C 0.2621(8) 0.345(2) 0.0974(5)
H40 H 0.2443 0.3561 0.0798
C60 C 0.2355(6) 0.324(2) 0.1231(4)
C61 C 0.1835(7) 0.323(2) 0.1243(4)
C62 C 0.1566(8) 0.335(2) 0.0981(5)
H41 H 0.1735 0.3401 0.0800
C63 C 0.1064(9) 0.341(2) 0.0987(6)
H42 H 0.0885 0.3490 0.0810
C64 C 0.0817(8) 0.335(2) 0.1252(6)
H43 H 0.0471 0.3428 0.1259
C65 C 0.1077(7) 0.317(2) 0.1505(6)
H44 H 0.0902 0.3092 0.1682
C66 C 0.1593(7) 0.311(2) 0.1511(4)
C67 C 0.1865(7) 0.291(2) 0.1773(4)
C68 C 0.1615(8) 0.2741(19) 0.2040(4)
H45 H 0.1270 0.2826 0.2050
C69 C 0.1872(8) 0.2448(17) 0.2289(4)
H46 H 0.1706 0.2332 0.2468
C70 C 0.2371(9) 0.2331(18) 0.2268(5)
H47 H 0.2550 0.2140 0.2437
C71 C 0.2618(8) 0.2481(18) 0.2014(5)
H48 H 0.2959 0.2348 0.2007
C72 C 0.2381(7) 0.2827(17) 0.1760(4)
N14 N 0.3466(8) 0.2983(12) 0.1718(4)
H49 H 0.3786 0.2992 0.1694
H50 H 0.3341 0.2866 0.1892
C91 C 0.2957(5) 0.8372(9) 0.5242(2)
C92 C 0.3452(6) 0.8155(10) 0.5216(3)
H64 H 0.3557 0.7498 0.5194
C93 C 0.3791(4) 0.8910(15) 0.5222(3)
H65 H 0.4131 0.8768 0.5216
C94 C 0.3633(6) 0.9870(13) 0.5237(3)
H66 H 0.3865 1.0387 0.5224
C95 C 0.3141(7) 1.0079(8) 0.5270(3)
H67 H 0.3035 1.0735 0.5294
C96 C 0.2801(4) 0.9326(10) 0.5269(2)
H68 H 0.2462 0.9467 0.5287
N16 N 0.2574(7) 0.7581(11) 0.5248(5)
O1 O 0.2748(9) 0.6779(11) 0.5200(4)
O2 O 0.2157(6) 0.7872(18) 0.5258(4)
C97 C 0.2761(7) -0.0380(11) 0.4321(4)
C98 C 0.2665(8) 0.0355(13) 0.4521(4)
H69 H 0.2488 0.0222 0.4695
C99 C 0.2831(10) 0.1285(14) 0.4461(5)
H70 H 0.2799 0.1791 0.4601
C100 C 0.3045(12) 0.1468(15) 0.4193(5)
H71 H 0.3160 0.2108 0.4151
C101 C 0.3096(9) 0.0754(13) 0.3987(5)
H72 H 0.3216 0.0917 0.3799
C102 C 0.2976(8) -0.0205(13) 0.4051(4)
H73 H 0.3036 -0.0718 0.3916
N17 N 0.2606(5) -0.1402(11) 0.4388(3)
O3 O 0.2342(7) -0.1516(14) 0.4600(3)
O4 O 0.2718(6) -0.2002(13) 0.4206(5)
C109 C 0.9361(4) 0.5446(12) 0.2309(3)
C110 C 0.9371(4) 0.4464(12) 0.2259(3)
H79 H 0.9421 0.4019 0.2415
C111 C 0.9308(5) 0.4128(10) 0.1977(3)
H80 H 0.9314 0.3447 0.1938
C112 C 0.9236(6) 0.4782(9) 0.1756(3)
H81 H 0.9193 0.4544 0.1563
C113 C 0.9223(8) 0.5771(11) 0.1803(3)
H82 H 0.9188 0.6213 0.1645
C114 C 0.9263(9) 0.6114(13) 0.2091(3)
H83 H 0.9223 0.6787 0.2134
N19 N 0.9434(6) 0.5853(14) 0.2610(3)
O7 O 0.9478(7) 0.5260(15) 0.2806(2)
O8 O 0.9457(8) 0.6735(13) 0.2635(3)
C115 C 0.9395(5) 0.9843(19) 0.2348(4)
C116 C 0.9427(8) 0.9430(18) 0.2625(5)
H84 H 0.9561 0.8795 0.2649
C117 C 0.9264(9) 0.995(3) 0.2865(4)
H85 H 0.9286 0.9670 0.3054
C118 C 0.9069(9) 1.088(3) 0.2830(7)
H86 H 0.8958 1.1230 0.2995
C119 C 0.9036(10) 1.1290(19) 0.2554(8)
H87 H 0.8903 1.1926 0.2531
C120 C 0.9198(8) 1.077(2) 0.2311(6)
H88 H 0.9175 1.1049 0.2122
N20 N 0.9565(6) 0.9316(18) 0.2081(5)
O9 O 0.9733(10) 0.8504(18) 0.2124(7)
O10 O 0.9519(8) 0.975(2) 0.1854(4)
loop_
_geom_bond_atom_site_label_1
_geom_bond_atom_site_label_2
_geom_bond_site_symmetry_1
_geom_bond_site_symmetry_2
Zn1 I1 1_555 1_555
Zn2 I3 1_555 1_555
Zn3 I5 1_555 1_555
I2 Zn1 1_555 1_555
I4 Zn2 1_555 1_555
I6 Zn3 1_555 1_555
C1 H1 1_555 1_555
C2 C1 1_555 1_555
H2 C2 1_555 1_555
C3 H3 1_555 1_555
C4 C3 1_555 1_555
H4 C4 1_555 1_555
C5 C2 1_555 1_555
C6 C5 1_555 1_555
C7 H5 1_555 1_555
C8 C7 1_555 1_555
H6 C8 1_555 1_555
C9 H7 1_555 1_555
C10 C9 1_555 1_555
H8 C10 1_555 1_555
C11 C8 1_555 1_555
C12 C11 1_555 1_555
C13 H9 1_555 1_555
C14 C13 1_555 1_555
H10 C14 1_555 1_555
C15 H11 1_555 1_555
C16 C15 1_555 1_555
H12 C16 1_555 1_555
C17 C14 1_555 1_555
C18 C17 1_555 1_555
C19 H13 1_555 1_555
C20 C19 1_555 1_555
H14 C20 1_555 1_555
C21 H15 1_555 1_555
C22 C21 1_555 1_555
H16 C22 1_555 1_555
C23 C20 1_555 1_555
C24 C23 1_555 1_555
C25 H17 1_555 1_555
C26 C25 1_555 1_555
H18 C26 1_555 1_555
C27 H19 1_555 1_555
C28 C27 1_555 1_555
H20 C28 1_555 1_555
C29 C26 1_555 1_555
C30 C29 1_555 1_555
C31 H21 1_555 1_555
C32 C31 1_555 1_555
H22 C32 1_555 1_555
C33 H23 1_555 1_555
C34 C33 1_555 1_555
H24 C34 1_555 1_555
C35 C32 1_555 1_555
C36 C35 1_555 1_555
N1 Zn2 1_555 1_555
N2 Zn3 1_555 1_555
N3 Zn1 1_555 1_555
N4 C6 1_555 1_555
N5 C12 1_555 1_555
N6 C6 1_555 1_555
N7 Zn1 1_555 1_555
N8 C25 1_555 1_555
N9 C31 1_555 1_555
N10 C24 1_555 1_555
N11 C30 1_555 1_555
N12 C24 1_555 1_555
C55 C56 1_555 1_555
C56 C57 1_555 1_555
C57 H38 1_555 1_555
C58 C57 1_555 1_555
H39 C58 1_555 1_555
C59 C58 1_555 1_555
H40 C59 1_555 1_555
C60 C55 1_555 1_555
C61 C60 1_555 1_555
C62 C61 1_555 1_555
H41 C62 1_555 1_555
C63 C62 1_555 1_555
H42 C63 1_555 1_555
C64 C63 1_555 1_555
H43 C64 1_555 1_555
C65 C64 1_555 1_555
H44 C65 1_555 1_555
C66 C61 1_555 1_555
C67 C66 1_555 1_555
C68 C67 1_555 1_555
H45 C68 1_555 1_555
C69 C68 1_555 1_555
H46 C69 1_555 1_555
C70 C69 1_555 1_555
H47 C70 1_555 1_555
C71 C70 1_555 1_555
H48 C71 1_555 1_555
C72 C55 1_555 1_555
N14 C56 1_555 1_555
H49 N14 1_555 1_555
H50 N14 1_555 1_555
C91 C92 1_555 1_555
C92 H64 1_555 1_555
C93 C92 1_555 1_555
H65 C93 1_555 1_555
C94 C93 1_555 1_555
H66 C94 1_555 1_555
C95 C94 1_555 1_555
H67 C95 1_555 1_555
C96 C91 1_555 1_555
H68 C96 1_555 1_555
N16 C91 1_555 1_555
O1 N16 1_555 1_555
O2 N16 1_555 1_555
C97 C98 1_555 1_555
C98 H69 1_555 1_555
C99 C98 1_555 1_555
H70 C99 1_555 1_555
C100 C99 1_555 1_555
H71 C100 1_555 1_555
C101 C100 1_555 1_555
H72 C101 1_555 1_555
C102 C97 1_555 1_555
H73 C102 1_555 1_555
N17 C97 1_555 1_555
O3 N17 1_555 1_555
O4 N17 1_555 1_555
C109 C110 1_555 1_555
C110 H79 1_555 1_555
C111 C110 1_555 1_555
H80 C111 1_555 1_555
C112 C111 1_555 1_555
H81 C112 1_555 1_555
C113 C112 1_555 1_555
H82 C113 1_555 1_555
C114 C109 1_555 1_555
H83 C114 1_555 1_555
N19 C109 1_555 1_555
O7 N19 1_555 1_555
O8 N19 1_555 1_555
C115 C116 1_555 1_555
C116 H84 1_555 1_555
C117 C116 1_555 1_555
H85 C117 1_555 1_555
C118 C117 1_555 1_555
H86 C118 1_555 1_555
C119 C118 1_555 1_555
H87 C119 1_555 1_555
C120 C115 1_555 1_555
H88 C120 1_555 1_555
N20 C115 1_555 1_555
O9 N20 1_555 1_555
O10 N20 1_555 1_555
Zn2B N8 1_555 1_555
Zn3A N9 1_555 1_555
N8B Zn2 1_555 1_555
N9A Zn3 1_555 1_555
C1 N1 1_555 1_555
C3 N1 1_555 1_555
C4 C5 1_555 1_555
C7 N2 1_555 1_555
C9 N2 1_555 1_555
C10 C11 1_555 1_555
C12 N4 1_555 1_555
C13 N3 1_555 1_555
C15 N3 1_555 1_555
C16 C17 1_555 1_555
C18 N5 1_555 1_555
C18 N6 1_555 1_555
C19 N7 1_555 1_555
C21 N7 1_555 1_555
C22 C23 1_555 1_555
C27 N8 1_555 1_555
C28 C29 1_555 1_555
C30 N10 1_555 1_555
C33 N9 1_555 1_555
C34 C35 1_555 1_555
C36 N11 1_555 1_555
C36 N12 1_555 1_555
C59 C60 1_555 1_555
C65 C66 1_555 1_555
C67 C72 1_555 1_555
C71 C72 1_555 1_555
C95 C96 1_555 1_555
C101 C102 1_555 1_555
C113 C114 1_555 1_555
C119 C120 1_555 1_555

#END
