
#######################################################################
#
#                 Cambridge Crystallographic Data Centre
#                                CCDC 
#
#######################################################################
#
# If this CIF has been generated from an entry in the Cambridge 
# Structural Database, then it will include bibliographic, chemical, 
# crystal, experimental, refinement or atomic coordinate data resulting 
# from the CCDC's data processing and validation procedures.
#
#######################################################################

data_ELOZIQ
_chemical_formula_moiety         '(C26 H16 Br1 Cd3 N10 O8 1-)n'
_symmetry_cell_setting           orthorhombic
_symmetry_space_group_name_H-M   'C c c m'
_symmetry_Int_Tables_number      66
_space_group_name_Hall           '-C 2 2c'
loop_
_symmetry_equiv_pos_site_id
_symmetry_equiv_pos_as_xyz
1 x,y,z
2 -x,-y,z
3 -x,y,1/2-z
4 x,-y,1/2-z
5 1/2+x,1/2+y,z
6 1/2-x,1/2-y,z
7 1/2-x,1/2+y,1/2-z
8 1/2+x,1/2-y,1/2-z
9 -x,-y,-z
10 x,y,-z
11 x,-y,1/2+z
12 -x,y,1/2+z
13 1/2-x,1/2-y,-z
14 1/2+x,1/2+y,-z
15 1/2+x,1/2-y,1/2+z
16 1/2-x,1/2+y,1/2+z
_cell_length_a                   24.2037(10)
_cell_length_b                   24.2037(10)
_cell_length_c                   18.973(3)
_cell_angle_alpha                90
_cell_angle_beta                 90
_cell_angle_gamma                90
_cell_volume                     11114.7
loop_
_atom_site_label
_atom_site_type_symbol
_atom_site_fract_x
_atom_site_fract_y
_atom_site_fract_z
_atom_site_U_iso_or_equiv
_atom_site_thermal_displace_type
Cd1 Cd 0.44819(4) 0.44758(5) 0.5000 0.0601 Uani
N1 N 0.5109(3) 0.4185(3) 0.4154(5) 0.0607 Uani
N2 N 0.4193(3) 0.5108(3) 0.4160(5) 0.0590 Uani
C1 C 0.4983(5) 0.3722(4) 0.3781(6) 0.0820 Uani
C2 C 0.5574(5) 0.4426(5) 0.3899(9) 0.0580 Uani
C3 C 0.3739(4) 0.4970(5) 0.3808(7) 0.0910 Uani
N3 N 0.5332(3) 0.3586(3) 0.3240(6) 0.0820 Uani
H1 H 0.4675 0.3509 0.3888 0.0980 Uiso
C4 C 0.5721(5) 0.4049(9) 0.3320(10) 0.0617 Uani
N4 N 0.3593(3) 0.5326(3) 0.3254(6) 0.0727 Uani
H2 H 0.3532 0.4659 0.3921 0.1090 Uiso
Cd2 Cd 0.5000 0.28989(4) 0.2500 0.0697 Uani
C5 C 0.6168(7) 0.4173(8) 0.2954(11) 0.0620 Uani
Cd3 Cd 0.29072(4) 0.5000 0.2500 0.0696 Uani
O1 O 0.4300(4) 0.2199(4) 0.2439(6) 0.1087 Uani
O2 O 0.4199(8) 0.2891(6) 0.3103(10) 0.0770 Uani
Br1 Br 0.62677(9) 0.62763(9) 0.5000 0.1143 Uani
N5 N 0.6318(9) 0.3884(8) 0.2378(13) 0.0740 Uani
O3 O 0.2194(4) 0.5697(4) 0.2570(7) 0.1273 Uani
O4 O 0.2875(5) 0.5800(7) 0.1871(9) 0.0697 Uani
C6 C 0.4096(5) 0.2378(5) 0.2988(8) 0.1193 Uani
H3 H 0.6120 0.3610 0.2240 0.0890 Uiso
H4 H 0.6611 0.3974 0.2150 0.0890 Uiso
C7 C 0.2372(5) 0.4101(5) 0.3005(8) 0.1120 Uani
C8 C 0.3492(5) 0.2203(7) 0.3147(9) 0.0853 Uani
C9 C 0.2219(6) 0.3493(5) 0.3141(8) 0.0633 Uani
C10 C 0.3285(6) 0.1705(6) 0.2895(9) 0.0723 Uani
C11 C 0.3195(6) 0.2503(5) 0.3644(9) 0.0683 Uani
C12 C 0.2515(5) 0.3193(6) 0.3638(8) 0.0620 Uani
H5 H 0.3483 0.1504 0.2563 0.0880 Uiso
C13 C 0.2692(5) 0.2305(6) 0.3889(8) 0.1173 Uani
H6 H 0.3334 0.2836 0.3812 0.0820 Uiso
H7 H 0.2852 0.3325 0.3802 0.0750 Uiso
C2A C 0.4426(5) 0.5574(5) 0.3899(9) 0.0580 Uani
N2A N 0.5807(3) 0.4892(3) 0.4160(5) 0.0590 Uani
N1A N 0.4891(3) 0.5815(3) 0.4154(5) 0.0607 Uani
C4A C 0.4279(5) 0.5951(9) 0.3320(10) 0.0617 Uani
N1H N 0.4891(3) 0.5815(3) 0.5846(5) 0.0607 Uani
N2H N 0.5807(3) 0.4892(3) 0.5840(5) 0.0590 Uani
C3A C 0.6261(4) 0.5030(5) 0.3808(7) 0.0910 Uani
Cd1A Cd 0.55181(4) 0.55242(5) 0.5000 0.0601 Uani
C5A C 0.3832(7) 0.5827(8) 0.2954(11) 0.0620 Uani
C1A C 0.5017(5) 0.6278(4) 0.3781(6) 0.0820 Uani
N3A N 0.4668(3) 0.6414(3) 0.3240(6) 0.0820 Uani
N3B N 0.4668(3) 0.3586(3) 0.1760(6) 0.0820 Uani
O1B O 0.5700(4) 0.2199(4) 0.2561(6) 0.1087 Uani
O2B O 0.5801(8) 0.2891(6) 0.1897(10) 0.0770 Uani
N4A N 0.6407(3) 0.4674(3) 0.3254(6) 0.0727 Uani
H2A H 0.6468 0.5341 0.3921 0.1090 Uiso
N5A N 0.3682(9) 0.6116(8) 0.2378(13) 0.0740 Uani
N4C N 0.3593(3) 0.4674(3) 0.1746(6) 0.0727 Uani
O3C O 0.2194(4) 0.4303(4) 0.2430(7) 0.1273 Uani
O4C O 0.2875(5) 0.4200(7) 0.3129(9) 0.0697 Uani
H1A H 0.5325 0.6491 0.3888 0.0980 Uiso
Cd2A Cd 0.5000 0.71011(4) 0.2500 0.0697 Uani
Cd3A Cd 0.70928(4) 0.5000 0.2500 0.0696 Uani
H3A H 0.3880 0.6390 0.2240 0.0890 Uiso
H4A H 0.3389 0.6026 0.2150 0.0890 Uiso
C10E C 0.1715(6) 0.3295(6) 0.2895(9) 0.0723 Uani
C9E C 0.2781(6) 0.1507(5) 0.3141(8) 0.0633 Uani
C8E C 0.1508(5) 0.2797(7) 0.3147(9) 0.0853 Uani
H5E H 0.1517 0.3496 0.2563 0.0880 Uiso
C13E C 0.2308(5) 0.2695(6) 0.3889(8) 0.1173 Uani
C12E C 0.2485(5) 0.1807(6) 0.3638(8) 0.0620 Uani
C7E C 0.2628(5) 0.0899(5) 0.3005(8) 0.1120 Uani
C6E C 0.0904(5) 0.2622(5) 0.2988(8) 0.1193 Uani
C11E C 0.1805(6) 0.2497(5) 0.3644(9) 0.0683 Uani
H7E H 0.2148 0.1675 0.3802 0.0750 Uiso
O4F O 0.2125(5) 0.0800(7) 0.3129(9) 0.0697 Uani
O3F O 0.2806(4) 0.0697(4) 0.2430(7) 0.1273 Uani
O2E O 0.0801(8) 0.2109(6) 0.3103(10) 0.0770 Uani
O1E O 0.0700(4) 0.2801(4) 0.2439(6) 0.1087 Uani
H6E H 0.1666 0.2164 0.3812 0.0820 Uiso
Cd3E Cd 0.20928(4) -0.0000 0.2500 0.0696 Uani
Cd2E Cd 0.0000 0.21011(4) 0.2500 0.0697 Uani
loop_
_atom_site_aniso_label
_atom_site_aniso_U_11
_atom_site_aniso_U_22
_atom_site_aniso_U_33
_atom_site_aniso_U_23
_atom_site_aniso_U_13
_atom_site_aniso_U_12
Cd1 0.0496(6) 0.0481(7) 0.0827(9) 0.000 0.000 -0.0194(5)
N1 0.042(5) 0.056(5) 0.084(7) -0.017(5) 0.001(5) -0.011(4)
N2 0.048 0.058 0.071 -0.004 -0.01 -0.008
C1 0.067(7) 0.047(7) 0.132(13) -0.013(8) -0.014(8) -0.011(6)
C2 0.052(8) 0.052(8) 0.070(8) 0.007(7) 0.007(7) 0.002(7)
C3 0.059 0.051 0.163 -0.016 -0.022 0.005
N3 0.052(5) 0.066(7) 0.128(10) -0.024(7) -0.005(6) -0.027(5)
C4 0.058(8) 0.049(9) 0.078(9) 0.012(8) 0.001(8) -0.006(7)
N4 0.042 0.039 0.137 -0.008 -0.004 -0.012
Cd2 0.0480(6) 0.0434(7) 0.1177(12) 0.000 0.0213(7) 0.000
C5 0.053(8) 0.056(8) 0.077(9) 0.013(8) 0.012(8) -0.008(7)
Cd3 0.0432 0.0482 0.1174 0.0216 0 0
O1 0.089 0.084 0.153 -0.003 0.011 -0.035
O2 0.065 0.047 0.119 -0.004 -0.011 -0.035
Br1 0.0878(14) 0.0891(15) 0.166(2) 0.000 0.000 -0.0492(12)
N5 0.067(11) 0.056(11) 0.099(12) -0.010(10) 0.021(10) -0.023(9)
O3 0.093 0.087 0.202 -0.055 -0.05 0.034
O4 0.042 0.06 0.107 -0.016 0.008 0.022
C6 0.08 0.088 0.19 0.053 -0.079 -0.046
C7 0.077(9) 0.062(9) 0.197(16) -0.041(10) 0.056(10) -0.041(7)
C8 0.057 0.069 0.13 0.031 -0.001 -0.017
C9 0.038(11) 0.056(14) 0.096(17) -0.030(12) 0.001(11) -0.012(9)
C10 0.077 0.07 0.07 0.03 -0.009 -0.014
C11 0.075 0.074 0.056 0.033 -0.025 -0.024
C12 0.067(13) 0.069(15) 0.050(13) -0.018(12) 0.030(11) -0.014(11)
C13 0.056 0.066 0.23 0.06 -0.032 -0.028
C2A 0.052 0.052 0.07 -0.007 -0.007 0.002
N2A 0.048(4) 0.058(6) 0.071(7) 0.004(5) 0.010(5) -0.008(4)
N1A 0.042 0.056 0.084 0.017 -0.001 -0.011
C4A 0.058 0.049 0.078 -0.012 -0.001 -0.006
N1H 0.042(5) 0.056(5) 0.084(7) -0.017(5) 0.001(5) -0.011(4)
N2H 0.048 0.058 0.071 -0.004 -0.01 -0.008
C3A 0.059(7) 0.051(7) 0.163(16) 0.016(9) 0.022(9) 0.005(6)
Cd1A 0.0496 0.0481 0.0827 0 0 -0.0194
C5A 0.053 0.056 0.077 -0.013 -0.012 -0.008
C1A 0.067 0.047 0.132 0.013 0.014 -0.011
N3A 0.052 0.066 0.128 0.024 0.005 -0.027
N3B 0.052 0.066 0.128 0.024 -0.005 0.027
O1B 0.089 0.084 0.153 0.003 0.011 0.035
O2B 0.065 0.047 0.119 0.004 -0.011 0.035
N4A 0.042(5) 0.039(5) 0.137(10) 0.008(6) 0.004(6) -0.012(4)
N5A 0.067 0.056 0.099 0.01 -0.021 -0.023
N4C 0.042 0.039 0.137 0.008 -0.004 0.012
O3C 0.093(6) 0.087(7) 0.202(12) -0.055(7) 0.050(8) -0.034(5)
O4C 0.042(8) 0.060(10) 0.107(12) -0.016(9) -0.008(9) -0.022(7)
Cd2A 0.048 0.0434 0.1177 0 -0.0213 0
Cd3A 0.0432(6) 0.0482(7) 0.1174(12) -0.0216(7) 0.000 0.000
C10E 0.077(19) 0.07(2) 0.070(18) -0.030(17) 0.009(16) -0.014(16)
C9E 0.038 0.056 0.096 0.03 -0.001 -0.012
C8E 0.057(15) 0.069(18) 0.13(3) -0.031(18) 0.001(16) -0.017(13)
C13E 0.056(15) 0.066(19) 0.23(4) -0.06(2) 0.032(18) -0.028(12)
C12E 0.067 0.069 0.05 0.018 -0.03 -0.014
C7E 0.077 0.062 0.197 0.041 -0.056 -0.041
C6E 0.080(9) 0.088(12) 0.190(19) -0.053(12) 0.079(11) -0.046(8)
C11E 0.075(14) 0.074(15) 0.056(14) -0.033(13) 0.025(12) -0.024(12)
O4F 0.042 0.06 0.107 0.016 0.008 -0.022
O3F 0.093 0.087 0.202 0.055 -0.05 -0.034
O2E 0.065(12) 0.047(11) 0.119(17) -0.004(11) -0.011(11) -0.035(9)
O1E 0.089(6) 0.084(6) 0.153(11) -0.003(7) 0.011(7) -0.035(5)
Cd3E 0.0432 0.0482 0.1174 0.0216 0 0
Cd2E 0.048 0.0434 0.1177 0 0.0213 0
loop_
_geom_bond_atom_site_label_1
_geom_bond_atom_site_label_2
_geom_bond_site_symmetry_1
_geom_bond_site_symmetry_2
Cd1 N1 1_555 1_555
N1 C1 1_555 1_555
N2 Cd1 1_555 1_555
C1 N3 1_555 1_555
C2 N1 1_555 1_555
C3 N2 1_555 1_555
N3 C4 1_555 1_555
H1 C1 1_555 1_555
C4 C2 1_555 1_555
N4 C3 1_555 1_555
H2 C3 1_555 1_555
Cd2 N3 1_555 1_555
C5 C4 1_555 1_555
Cd3 N4 1_555 1_555
O1 Cd2 1_555 1_555
O2 Cd2 1_555 1_555
Br1 Cd1A 1_555 1_555
N5 C5 1_555 1_555
O3 Cd3 1_555 1_555
O4 Cd3 1_555 1_555
C6 O1 1_555 1_555
H3 N5 1_555 1_555
H4 N5 1_555 1_555
C7 C9 1_555 1_555
C8 C6 1_555 1_555
C9 C12 1_555 1_555
C10 C8 1_555 1_555
C11 C8 1_555 1_555
C12 H7 1_555 1_555
H5 C10 1_555 1_555
C13 C11 1_555 1_555
H6 C11 1_555 1_555
C2A N2 1_555 1_555
N2A C2 1_555 1_555
N1A C2A 1_555 1_555
C4A C2A 1_555 1_555
N1H Cd1A 1_555 1_555
N2H Cd1A 1_555 1_555
C3A N2A 1_555 1_555
Cd1A N2A 1_555 1_555
C5A N4 1_555 1_555
C1A N1A 1_555 1_555
N3A C4A 1_555 1_555
N3B Cd2 1_555 1_555
O1B Cd2 1_555 1_555
O2B Cd2 1_555 1_555
N4A C5 1_555 1_555
H2A C3A 1_555 1_555
N5A C5A 1_555 1_555
N4C Cd3 1_555 1_555
O3C Cd3 1_555 1_555
O4C Cd3 1_555 1_555
H1A C1A 1_555 1_555
Cd2A N3A 1_555 1_555
Cd3A N4A 1_555 1_555
H3A N5A 1_555 1_555
H4A N5A 1_555 1_555
C10E C9 1_555 1_555
C9E C10 1_555 1_555
C8E C10E 1_555 1_555
H5E C10E 1_555 1_555
C13E C12 1_555 1_555
C12E C13 1_555 1_555
C7E C9E 1_555 1_555
C6E C8E 1_555 1_555
C11E C8E 1_555 1_555
H7E C12E 1_555 1_555
O4F C7E 1_555 1_555
O3F C7E 1_555 1_555
O2E C6E 1_555 1_555
O1E C6E 1_555 1_555
H6E C11E 1_555 1_555
Cd3E O4F 1_555 1_555
Cd2E O2E 1_555 1_555
O2 C6 1_555 1_555
C7 O3C 1_555 1_555
C7 O4C 1_555 1_555
N1A Cd1A 1_555 1_555
C4A C5A 1_555 1_555
C3A N4A 1_555 1_555
C1A N3A 1_555 1_555
C9E C12E 1_555 1_555
C13E C11E 1_555 1_555
O3F Cd3E 1_555 1_555
O1E Cd2E 1_555 1_555

#END
