
#######################################################################
#
#                 Cambridge Crystallographic Data Centre
#                                CCDC 
#
#######################################################################
#
# If this CIF has been generated from an entry in the Cambridge 
# Structural Database, then it will include bibliographic, chemical, 
# crystal, experimental, refinement or atomic coordinate data resulting 
# from the CCDC's data processing and validation procedures.
#
#######################################################################

data_PEWLUA
_chemical_formula_moiety         '(C72 H42 Cu6 N18 O30)n'
_symmetry_cell_setting           tetragonal
_symmetry_space_group_name_H-M   'I 4/m'
_symmetry_Int_Tables_number      87
_space_group_name_Hall           '-I 4'
loop_
_symmetry_equiv_pos_site_id
_symmetry_equiv_pos_as_xyz
1 x,y,z
2 -y,x,z
3 -x,-y,z
4 y,-x,z
5 1/2+x,1/2+y,1/2+z
6 1/2-y,1/2+x,1/2+z
7 1/2-x,1/2-y,1/2+z
8 1/2+y,1/2-x,1/2+z
9 -x,-y,-z
10 y,-x,-z
11 x,y,-z
12 -y,x,-z
13 1/2-x,1/2-y,1/2-z
14 1/2+y,1/2-x,1/2-z
15 1/2+x,1/2+y,1/2-z
16 1/2-y,1/2+x,1/2-z
_cell_length_a                   30.926(5)
_cell_length_b                   30.926(5)
_cell_length_c                   45.103(7)
_cell_angle_alpha                90
_cell_angle_beta                 90
_cell_angle_gamma                90
_cell_volume                     43137.3
loop_
_atom_site_label
_atom_site_type_symbol
_atom_site_fract_x
_atom_site_fract_y
_atom_site_fract_z
Cu1 Cu 0.637837(14) 0.301075(14) 0.831079(10)
Cu2 Cu 0.601955(13) 0.352284(13) 0.871961(10)
Cu3 Cu 0.750576(18) 0.04306(2) 0.5000
Cu4 Cu 0.665412(18) 0.05754(2) 0.5000
O1 O 0.58044(8) 0.30183(9) 0.81251(6)
O2 O 0.55298(8) 0.34936(9) 0.84463(6)
O3 O 0.39857(8) 0.37287(9) 0.84802(6)
O4 O 0.35572(8) 0.34832(9) 0.81152(6)
O5 O 0.81056(8) 0.19121(9) 0.64381(6)
O6 O 0.84251(8) 0.15353(9) 0.60754(6)
O7 O 0.67111(13) 0.25940(13) 0.80086(8)
O8 O 0.56662(13) 0.38952(12) 0.90514(7)
O9 O 0.68120(8) 0.09916(9) 0.53078(6)
O10 O 0.75305(8) 0.08784(9) 0.53039(6)
O11 O 0.33757(8) -0.01189(10) 0.53024(6)
O12 O 0.26575(8) -0.00129(9) 0.53066(6)
O13 O 0.59809(14) 0.0731(2) 0.5000
O14 O 0.81964(15) 0.02969(16) 0.5000
O15 O 0.24553(8) 0.11865(9) 0.64253(6)
O16 O 0.20268(8) 0.08299(9) 0.61062(6)
C1 C 0.55082(12) 0.32475(13) 0.82270(9)
C2 C 0.50758(13) 0.32311(14) 0.80715(9)
C3 C 0.50360(14) 0.30246(16) 0.77991(11)
H1 H 0.5282 0.2903 0.7704
C4 C 0.46323(14) 0.29989(18) 0.76697(11)
C5 C 0.42668(14) 0.31728(17) 0.78082(11)
H2 H 0.3991 0.3153 0.7717
C6 C 0.43124(13) 0.33736(14) 0.80791(9)
C7 C 0.47179(12) 0.34085(12) 0.82069(9)
H3 H 0.4750 0.3557 0.8390
C8 C 0.4829(3) 0.2370(3) 0.66529(18)
C9 C 0.5266(3) 0.2420(3) 0.65761(18)
H4 H 0.5447 0.2609 0.6687
C10 C 0.5433(3) 0.2188(2) 0.63338(18)
C11 C 0.5157(3) 0.1905(2) 0.61695(19)
H5 H 0.5269 0.1747 0.6006
C12 C 0.4725(3) 0.1860(3) 0.62485(19)
C13 C 0.4565(3) 0.2100(3) 0.64956(19)
H6 H 0.4270 0.2072 0.6551
C14 C 0.4431(3) 0.1600(3) 0.6075(2)
C15 C 0.4035(3) 0.1451(2) 0.61390(19)
H7 H 0.3870 0.1522 0.6310
N1 N 0.4544(3) 0.1419(3) 0.5810(2)
N2 N 0.4224(3) 0.1165(3) 0.5711(2)
N3 N 0.3910(2) 0.1181(2) 0.59180(16)
C16 C 0.4882(3) 0.2756(2) 0.71495(19)
H8 H 0.5186 0.2766 0.7175
C17 C 0.4667(3) 0.2592(2) 0.69145(19)
N4 N 0.4240(3) 0.2643(2) 0.6966(2)
N5 N 0.4182(3) 0.2840(2) 0.72316(19)
N6 N 0.4581(2) 0.2905(2) 0.73415(16)
C18 C 0.6131(2) 0.1916(3) 0.60928(16)
H9 H 0.6032 0.1662 0.5996
C19 C 0.5888(3) 0.2208(3) 0.62557(17)
N7 N 0.6539(2) 0.2073(2) 0.61030(13)
N8 N 0.6550(2) 0.2441(2) 0.62630(14)
N9 N 0.6158(2) 0.2520(2) 0.63533(15)
C20 C 0.35268(15) 0.0877(2) 0.59110(12)
C21 C 0.31741(14) 0.10058(18) 0.60824(11)
H10 H 0.3207 0.1214 0.6236
C22 C 0.27713(13) 0.08219(14) 0.60229(10)
C23 C 0.27266(13) 0.05254(14) 0.57929(10)
H11 H 0.2450 0.0411 0.5746
C24 C 0.30908(13) 0.03951(16) 0.56308(11)
C25 C 0.34908(15) 0.05779(19) 0.56904(11)
H12 H 0.3738 0.0495 0.5578
C26 C 0.23886(12) 0.09557(13) 0.61989(9)
C27 C 0.76457(12) 0.14188(13) 0.57873(9)
H13 H 0.7895 0.1285 0.5705
C28 C 0.76822(12) 0.16764(13) 0.60404(9)
C29 C 0.73179(13) 0.18814(15) 0.61613(10)
H14 H 0.7342 0.2055 0.6334
C30 C 0.69200(13) 0.18247(16) 0.60221(10)
C31 C 0.68775(13) 0.15606(16) 0.57700(10)
H15 H 0.6603 0.1521 0.5679
C32 C 0.72421(12) 0.13584(13) 0.56557(9)
C33 C 0.81054(12) 0.17154(12) 0.61970(9)
C34 C 0.71919(12) 0.10550(13) 0.54009(8)
C35 C 0.30344(13) 0.00557(14) 0.53898(9)
C36 C 0.39210(12) 0.35443(12) 0.82399(9)
Cu1A Cu 0.698925(14) 0.637837(14) 0.831079(10)
Cu2A Cu 0.647716(13) 0.601955(13) 0.871961(10)
O1A O 0.69817(9) 0.58044(8) 0.81251(6)
O2A O 0.65064(9) 0.55298(8) 0.84463(6)
O3A O 0.62713(9) 0.39857(8) 0.84802(6)
O4A O 0.65168(9) 0.35572(8) 0.81152(6)
O5A O 0.80879(9) 0.81056(8) 0.64381(6)
O6A O 0.84647(9) 0.84251(8) 0.60754(6)
O7A O 0.74060(13) 0.67111(13) 0.80086(8)
O8A O 0.61048(12) 0.56662(13) 0.90514(7)
O9A O 0.90084(9) 0.68120(8) 0.53078(6)
O10A O 0.91216(9) 0.75305(8) 0.53039(6)
O11A O 1.01189(10) 0.33757(8) 0.53024(6)
O12A O 1.00129(9) 0.26575(8) 0.53066(6)
O15A O 0.88135(9) 0.24553(8) 0.64253(6)
O16A O 0.91701(9) 0.20268(8) 0.61062(6)
C1A C 0.67525(13) 0.55082(12) 0.82270(9)
C2A C 0.67689(14) 0.50758(13) 0.80715(9)
C3A C 0.69754(16) 0.50360(14) 0.77991(11)
H1A H 0.7097 0.5282 0.7704
C4A C 0.70011(18) 0.46323(14) 0.76697(11)
C5A C 0.68272(17) 0.42668(14) 0.78082(11)
H2A H 0.6847 0.3991 0.7717
C6A C 0.66264(14) 0.43124(13) 0.80791(9)
C7A C 0.65915(12) 0.47179(12) 0.82069(9)
H3A H 0.6443 0.4750 0.8390
C8A C 0.7630(3) 0.4829(3) 0.66529(18)
C9A C 0.7580(3) 0.5266(3) 0.65761(18)
H4A H 0.7391 0.5447 0.6687
C10A C 0.7812(2) 0.5433(3) 0.63338(18)
C11A C 0.8095(2) 0.5157(3) 0.61695(19)
H5A H 0.8253 0.5269 0.6006
C12A C 0.8140(3) 0.4725(3) 0.62485(19)
C13A C 0.7900(3) 0.4565(3) 0.64956(19)
H6A H 0.7928 0.4270 0.6551
C14A C 0.8400(3) 0.4431(3) 0.6075(2)
C15A C 0.8549(2) 0.4035(3) 0.61390(19)
H7A H 0.8478 0.3870 0.6310
N1A N 0.8581(3) 0.4544(3) 0.5810(2)
N2A N 0.8835(3) 0.4224(3) 0.5711(2)
N3A N 0.8819(2) 0.3910(2) 0.59180(16)
C16A C 0.7244(2) 0.4882(3) 0.71495(19)
H8A H 0.7234 0.5186 0.7175
C17A C 0.7408(2) 0.4667(3) 0.69145(19)
N4A N 0.7357(2) 0.4240(3) 0.6966(2)
N5A N 0.7160(2) 0.4182(3) 0.72316(19)
N6A N 0.7095(2) 0.4581(2) 0.73415(16)
C18A C 0.8084(3) 0.6131(2) 0.60928(16)
H9A H 0.8338 0.6032 0.5996
C19A C 0.7792(3) 0.5888(3) 0.62557(17)
N7A N 0.7927(2) 0.6539(2) 0.61030(13)
N8A N 0.7559(2) 0.6550(2) 0.62630(14)
N9A N 0.7480(2) 0.6158(2) 0.63533(15)
C20A C 0.9123(2) 0.35268(15) 0.59110(12)
C21A C 0.89942(18) 0.31741(14) 0.60824(11)
H10A H 0.8786 0.3207 0.6236
C22A C 0.91781(14) 0.27713(13) 0.60229(10)
C23A C 0.94746(14) 0.27266(13) 0.57929(10)
H11A H 0.9589 0.2450 0.5746
C24A C 0.96049(16) 0.30908(13) 0.56308(11)
C25A C 0.94221(19) 0.34908(15) 0.56904(11)
H12A H 0.9505 0.3738 0.5578
C26A C 0.90443(13) 0.23886(12) 0.61989(9)
C27A C 0.85812(13) 0.76457(12) 0.57873(9)
H13A H 0.8715 0.7895 0.5705
C28A C 0.83236(13) 0.76822(12) 0.60404(9)
C29A C 0.81186(15) 0.73179(13) 0.61613(10)
H14A H 0.7945 0.7342 0.6334
C30A C 0.81753(16) 0.69200(13) 0.60221(10)
C31A C 0.84394(16) 0.68775(13) 0.57700(10)
H15A H 0.8479 0.6603 0.5679
C32A C 0.86416(13) 0.72421(12) 0.56557(9)
C33A C 0.82846(12) 0.81054(12) 0.61970(9)
C34A C 0.89450(13) 0.71919(12) 0.54009(8)
C35A C 0.99443(14) 0.30344(13) 0.53898(9)
C36A C 0.64557(12) 0.39210(12) 0.82399(9)
Cu1C Cu 0.301075(14) 0.362163(14) 0.831079(10)
Cu1L Cu 0.862163(14) 0.198925(14) 0.668921(10)
Cu1M Cu 0.801075(14) 0.862163(14) 0.668921(10)
Cu1O Cu 0.198925(14) 0.137837(14) 0.668921(10)
Cu2C Cu 0.352284(13) 0.398045(13) 0.871961(10)
Cu2L Cu 0.898045(13) 0.147716(13) 0.628039(10)
Cu2M Cu 0.852284(13) 0.898045(13) 0.628039(10)
Cu2O Cu 0.147716(13) 0.101955(13) 0.628039(10)
Cu3A Cu 0.95694(2) 0.750576(18) 0.5000
Cu3B Cu 0.249424(18) -0.04306(2) 0.5000
Cu3C Cu 1.04306(2) 0.249424(18) 0.5000
Cu4A Cu 0.94246(2) 0.665412(18) 0.5000
Cu4B Cu 0.334588(18) -0.05754(2) 0.5000
Cu4C Cu 1.05754(2) 0.334588(18) 0.5000
O3B O 0.60143(8) 0.62713(9) 0.84802(6)
O4B O 0.64428(8) 0.65168(9) 0.81152(6)
O5L O 0.68944(8) 0.30879(9) 0.85619(6)
O5M O 0.69121(9) 0.68944(8) 0.85619(6)
O6L O 0.65749(8) 0.34647(9) 0.89246(6)
O6M O 0.65353(9) 0.65749(8) 0.89246(6)
O9J O 0.68120(8) 0.09916(9) 0.46922(6)
O10J O 0.75305(8) 0.08784(9) 0.46961(6)
O11B O 0.66243(8) 0.01189(10) 0.53024(6)
O11H O 0.66243(8) 0.01189(10) 0.46976(6)
O12B O 0.73425(8) 0.00129(9) 0.53066(6)
O12H O 0.73425(8) 0.00129(9) 0.46934(6)
O15M O 0.61865(9) 0.25447(8) 0.85747(6)
O15N O 0.74553(8) 0.61865(9) 0.85747(6)
O16M O 0.58299(9) 0.29732(8) 0.88938(6)
O16N O 0.70268(8) 0.58299(9) 0.88938(6)
loop_
_geom_bond_atom_site_label_1
_geom_bond_atom_site_label_2
_geom_bond_site_symmetry_1
_geom_bond_site_symmetry_2
Cu1 Cu2 1_555 1_555
Cu2 O2 1_555 1_555
Cu3 Cu4 1_555 1_555
Cu4 O9 1_555 1_555
O1 Cu1 1_555 1_555
O2 C1 1_555 1_555
O3 C36 1_555 1_555
O4 C36 1_555 1_555
O5 C33 1_555 1_555
O6 C33 1_555 1_555
O7 Cu1 1_555 1_555
O8 Cu2 1_555 1_555
O9 C34 1_555 1_555
O10 Cu3 1_555 1_555
O11 C35 1_555 1_555
O12 C35 1_555 1_555
O13 Cu4 1_555 1_555
O14 Cu3 1_555 1_555
O15 C26 1_555 1_555
O16 C26 1_555 1_555
C1 O1 1_555 1_555
C2 C1 1_555 1_555
C3 C2 1_555 1_555
H1 C3 1_555 1_555
C4 C3 1_555 1_555
C5 C4 1_555 1_555
H2 C5 1_555 1_555
C6 C5 1_555 1_555
C7 C2 1_555 1_555
H3 C7 1_555 1_555
C8 C9 1_555 1_555
C9 H4 1_555 1_555
C10 C9 1_555 1_555
C11 C10 1_555 1_555
H5 C11 1_555 1_555
C12 C11 1_555 1_555
C13 C8 1_555 1_555
H6 C13 1_555 1_555
C14 C12 1_555 1_555
C15 C14 1_555 1_555
H7 C15 1_555 1_555
N1 C14 1_555 1_555
N2 N1 1_555 1_555
N3 C15 1_555 1_555
C16 H8 1_555 1_555
C17 C8 1_555 1_555
N4 C17 1_555 1_555
N5 N4 1_555 1_555
N6 C4 1_555 1_555
C18 H9 1_555 1_555
C19 C10 1_555 1_555
N7 C18 1_555 1_555
N8 N7 1_555 1_555
N9 C19 1_555 1_555
C20 N3 1_555 1_555
C21 C20 1_555 1_555
H10 C21 1_555 1_555
C22 C21 1_555 1_555
C23 C22 1_555 1_555
H11 C23 1_555 1_555
C24 C23 1_555 1_555
C25 C20 1_555 1_555
H12 C25 1_555 1_555
C26 C22 1_555 1_555
C27 H13 1_555 1_555
C28 C27 1_555 1_555
C29 C28 1_555 1_555
H14 C29 1_555 1_555
C30 N7 1_555 1_555
C31 C30 1_555 1_555
H15 C31 1_555 1_555
C32 C27 1_555 1_555
C33 C28 1_555 1_555
C34 O10 1_555 1_555
C35 C24 1_555 1_555
C36 C6 1_555 1_555
Cu1A Cu2A 1_555 1_555
Cu2A O2A 1_555 1_555
O1A Cu1A 1_555 1_555
O2A C1A 1_555 1_555
O3A Cu2 1_555 1_555
O4A Cu1 1_555 1_555
O5A C33A 1_555 1_555
O6A C33A 1_555 1_555
O7A Cu1A 1_555 1_555
O8A Cu2A 1_555 1_555
O9A C34A 1_555 1_555
O10A C34A 1_555 1_555
O11A C35A 1_555 1_555
O12A C35A 1_555 1_555
O15A C26A 1_555 1_555
O16A C26A 1_555 1_555
C1A O1A 1_555 1_555
C2A C1A 1_555 1_555
C3A C2A 1_555 1_555
H1A C3A 1_555 1_555
C4A C3A 1_555 1_555
C5A C4A 1_555 1_555
H2A C5A 1_555 1_555
C6A C5A 1_555 1_555
C7A C2A 1_555 1_555
H3A C7A 1_555 1_555
C8A C9A 1_555 1_555
C9A H4A 1_555 1_555
C10A C9A 1_555 1_555
C11A C10A 1_555 1_555
H5A C11A 1_555 1_555
C12A C11A 1_555 1_555
C13A C8A 1_555 1_555
H6A C13A 1_555 1_555
C14A C12A 1_555 1_555
C15A C14A 1_555 1_555
H7A C15A 1_555 1_555
N1A C14A 1_555 1_555
N2A N1A 1_555 1_555
N3A C15A 1_555 1_555
C16A H8A 1_555 1_555
C17A C8A 1_555 1_555
N4A C17A 1_555 1_555
N5A N4A 1_555 1_555
N6A C4A 1_555 1_555
C18A H9A 1_555 1_555
C19A C10A 1_555 1_555
N7A C18A 1_555 1_555
N8A N7A 1_555 1_555
N9A C19A 1_555 1_555
C20A N3A 1_555 1_555
C21A C20A 1_555 1_555
H10A C21A 1_555 1_555
C22A C21A 1_555 1_555
C23A C22A 1_555 1_555
H11A C23A 1_555 1_555
C24A C23A 1_555 1_555
C25A C20A 1_555 1_555
H12A C25A 1_555 1_555
C26A C22A 1_555 1_555
C27A H13A 1_555 1_555
C28A C27A 1_555 1_555
C29A C28A 1_555 1_555
H14A C29A 1_555 1_555
C30A N7A 1_555 1_555
C31A C30A 1_555 1_555
H15A C31A 1_555 1_555
C32A C27A 1_555 1_555
C33A C28A 1_555 1_555
C34A C32A 1_555 1_555
C35A C24A 1_555 1_555
C36A O3A 1_555 1_555
Cu1C O4 1_555 1_555
Cu1L O5 1_555 1_555
Cu1M O5A 1_555 1_555
Cu1O O15 1_555 1_555
Cu2C O3 1_555 1_555
Cu2L O6 1_555 1_555
Cu2M O6A 1_555 1_555
Cu2O O16 1_555 1_555
Cu3A O10A 1_555 1_555
Cu3B O12 1_555 1_555
Cu3C O12A 1_555 1_555
Cu4A O9A 1_555 1_555
Cu4B O11 1_555 1_555
Cu4C O11A 1_555 1_555
O3B Cu2A 1_555 1_555
O4B Cu1A 1_555 1_555
O5L Cu1 1_555 1_555
O5M Cu1A 1_555 1_555
O6L Cu2 1_555 1_555
O6M Cu2A 1_555 1_555
O9J Cu4 1_555 1_555
O10J Cu3 1_555 1_555
O11B Cu4 1_555 1_555
O11H Cu4 1_555 1_555
O12B Cu3 1_555 1_555
O12H Cu3 1_555 1_555
O15M Cu1 1_555 1_555
O15N Cu1A 1_555 1_555
O16M Cu2 1_555 1_555
O16N Cu2A 1_555 1_555
C6 C7 1_555 1_555
C12 C13 1_555 1_555
N2 N3 1_555 1_555
C16 C17 1_555 1_555
C16 N6 1_555 1_555
N5 N6 1_555 1_555
C18 C19 1_555 1_555
N8 N9 1_555 1_555
C24 C25 1_555 1_555
C29 C30 1_555 1_555
C31 C32 1_555 1_555
C32 C34 1_555 1_555
O4A C36A 1_555 1_555
O15A Cu1L 1_555 1_555
O16A Cu2L 1_555 1_555
C6A C7A 1_555 1_555
C6A C36A 1_555 1_555
C12A C13A 1_555 1_555
N2A N3A 1_555 1_555
C16A C17A 1_555 1_555
C16A N6A 1_555 1_555
N5A N6A 1_555 1_555
C18A C19A 1_555 1_555
N8A N9A 1_555 1_555
C24A C25A 1_555 1_555
C29A C30A 1_555 1_555
C31A C32A 1_555 1_555
Cu1C Cu2C 1_555 1_555
Cu1L Cu2L 1_555 1_555
Cu1M Cu2M 1_555 1_555
Cu1O Cu2O 1_555 1_555
Cu3A Cu4A 1_555 1_555
Cu3B Cu4B 1_555 1_555
Cu3C Cu4C 1_555 1_555

#END
