
#######################################################################
#
#                 Cambridge Crystallographic Data Centre
#                                CCDC 
#
#######################################################################
#
# If this CIF has been generated from an entry in the Cambridge 
# Structural Database, then it will include bibliographic, chemical, 
# crystal, experimental, refinement or atomic coordinate data resulting 
# from the CCDC's data processing and validation procedures.
#
#######################################################################

data_XAGCEO01
_chemical_formula_moiety         '(C8 H6 Co2 O10)n'
_symmetry_cell_setting           cubic
_symmetry_space_group_name_H-M   'P a -3'
_symmetry_Int_Tables_number      205
_space_group_name_Hall           '-P 2ac 2ab 3'
loop_
_symmetry_equiv_pos_site_id
_symmetry_equiv_pos_as_xyz
1 x,y,z
2 z,x,y
3 y,z,x
4 1/2-x,-y,1/2+z
5 -x,1/2+y,1/2-z
6 1/2+x,1/2-y,-z
7 1/2+z,1/2-x,-y
8 1/2-z,-x,1/2+y
9 -z,1/2+x,1/2-y
10 -y,1/2+z,1/2-x
11 1/2+y,1/2-z,-x
12 1/2-y,-z,1/2+x
13 -x,-y,-z
14 -z,-x,-y
15 -y,-z,-x
16 1/2+x,y,1/2-z
17 x,1/2-y,1/2+z
18 1/2-x,1/2+y,z
19 1/2-z,1/2+x,y
20 1/2+z,x,1/2-y
21 z,1/2-x,1/2+y
22 y,1/2-z,1/2+x
23 1/2-y,1/2+z,x
24 1/2+y,z,1/2-x
_cell_length_a                   20.3290(10)
_cell_length_b                   20.3290(10)
_cell_length_c                   20.3290(10)
_cell_angle_alpha                90
_cell_angle_beta                 90
_cell_angle_gamma                90
_cell_volume                     8401.33
loop_
_atom_site_label
_atom_site_type_symbol
_atom_site_fract_x
_atom_site_fract_y
_atom_site_fract_z
_atom_site_U_iso_or_equiv
_atom_site_thermal_displace_type
Co1 Co 0.15943(7) 0.39790(6) 0.14274(6) 0.0164 Uani
Co2 Co 0.00647(7) 0.56303(7) 0.27264(7) 0.0201 Uani
O1 O 0.1254(3) 0.3313(3) 0.2187(3) 0.0147 Uani
C1 C 0.0891(5) 0.3680(5) 0.2667(4) 0.0130 Uani
H1 H 0.1193 0.3801 0.3022 0.0150 Uiso
C2 C 0.0595(5) 0.4312(5) 0.2386(5) 0.0227 Uani
O2 O 0.0776(3) 0.4486(3) 0.1823(3) 0.0223 Uani
O3 O 0.0206(4) 0.4610(4) 0.2752(4) 0.0323 Uani
C3 C 0.0390(5) 0.3183(5) 0.2943(5) 0.0153 Uani
H2 H -0.0006 0.3406 0.3104 0.0190 Uiso
C4 C 0.0722(5) 0.2793(5) 0.3492(5) 0.0203 Uani
O4 O 0.0689(4) 0.3075(4) 0.4046(3) 0.0367 Uani
O5 O 0.0994(3) 0.2275(3) 0.3371(3) 0.0220 Uani
C5 C 0.0237(4) 0.2765(4) 0.2324(4) 0.0100 Uiso
H3 H -0.0089 0.3012 0.2069 0.0120 Uiso
C6 C -0.0067(5) 0.2096(5) 0.2473(5) 0.0173 Uani
O6 O -0.0527(4) 0.2104(3) 0.2875(4) 0.0277 Uani
O7 O 0.0167(4) 0.1590(3) 0.2197(4) 0.0280 Uani
C7 C 0.0867(5) 0.2774(5) 0.1929(5) 0.0147 Uani
H4 H 0.1104 0.2360 0.1999 0.0180 Uiso
C8 C 0.0741(5) 0.2864(5) 0.1195(5) 0.0163 Uani
O8 O 0.0473(4) 0.2400(4) 0.0896(3) 0.0317 Uani
O9 O 0.0915(3) 0.3404(4) 0.0926(3) 0.0230 Uani
O10 O 0.1689(3) 0.4672(3) 0.0666(3) 0.0213 Uani
H5 H 0.1422 0.5057 0.0757 0.0250 Uiso
H6 H 0.1550 0.4484 0.0251 0.0250 Uiso
O5B O 0.2275(3) 0.3371(3) 0.0994(3) 0.0220 Uani
O6R O 0.2125(4) 0.4473(4) 0.2104(3) 0.0277 Uani
O4R O 0.0954(3) 0.5689(4) 0.3075(4) 0.0367 Uani
O7D O -0.0167(4) 0.6590(3) 0.2803(4) 0.0280 Uani
O8H O -0.0896(3) 0.5473(4) 0.2600(4) 0.0317 Uani
O10V O 0.0328(3) 0.5666(3) 0.1689(3) 0.0213 Uani
Co2W Co 0.06303(7) 0.27264(7) 0.49353(7) 0.0201 Uani
Co1A Co 0.14274(6) 0.15943(7) 0.39790(6) 0.0164 Uani
Co1W Co -0.10210(6) 0.14274(6) 0.34057(7) 0.0164 Uani
Co2D Co -0.00647(7) 0.06303(7) 0.22736(7) 0.0201 Uani
Co2J Co 0.06303(7) 0.22736(7) -0.00647(7) 0.0201 Uani
Co2T Co 0.27264(7) 0.49353(7) 0.06303(7) 0.0201 Uani
H5V H -0.0057 0.5757 0.1422 0.0250 Uiso
H6V H 0.0516 0.5251 0.1550 0.0250 Uiso
loop_
_atom_site_aniso_label
_atom_site_aniso_U_11
_atom_site_aniso_U_22
_atom_site_aniso_U_33
_atom_site_aniso_U_23
_atom_site_aniso_U_13
_atom_site_aniso_U_12
Co1 0.0195(8) 0.0141(7) 0.0157(7) -0.0018(6) 0.0031(6) -0.0032(6)
Co2 0.0124 0.0172 0.0307 0.0024 0.0008 0.0027
O1 0.016(4) 0.019(4) 0.009(3) -0.004(3) -0.001(3) -0.002(3)
C1 0.017(5) 0.017(5) 0.005(5) 0.001(4) -0.002(4) -0.001(4)
C2 0.022(6) 0.017(5) 0.029(7) 0.001(5) 0.000(5) -0.006(5)
O2 0.027(4) 0.015(4) 0.025(4) 0.003(3) 0.007(3) 0.008(3)
O3 0.038(5) 0.024(4) 0.035(5) 0.006(4) 0.021(4) 0.017(4)
C3 0.018(6) 0.014(5) 0.014(5) 0.003(4) 0.005(4) 0.010(4)
C4 0.024(6) 0.017(6) 0.020(6) 0.006(5) 0.005(5) -0.007(5)
O4 0.073(6) 0.026(4) 0.011(4) -0.001(4) -0.005(4) 0.013(4)
O5 0.028(4) 0.020(4) 0.018(4) 0.006(3) -0.006(3) 0.013(4)
C6 0.017(6) 0.014(5) 0.021(5) 0.009(5) -0.001(5) 0.001(5)
O6 0.035(5) 0.019(4) 0.029(4) 0.005(3) 0.005(4) -0.014(4)
O7 0.034(5) 0.019(4) 0.031(4) 0.001(4) 0.012(4) -0.008(4)
C7 0.019(5) 0.013(5) 0.012(5) 0.000(4) 0.003(4) -0.011(4)
C8 0.013(5) 0.024(6) 0.012(5) -0.005(5) 0.002(4) -0.002(5)
O8 0.041(5) 0.032(5) 0.022(4) -0.004(4) 0.001(4) -0.017(4)
O9 0.028(4) 0.026(4) 0.015(4) -0.005(3) -0.002(3) -0.007(4)
O10 0.028(4) 0.017(4) 0.019(4) -0.004(3) 0.004(3) 0.001(3)
O5B 0.02 0.018 0.028 -0.006 0.013 0.006
O6R 0.029 0.035 0.019 -0.014 -0.005 -0.005
O4R 0.011 0.073 0.026 0.013 0.001 0.005
O7D 0.034 0.019 0.031 -0.001 0.012 0.008
O8H 0.022 0.041 0.032 0.017 -0.004 -0.001
O10V 0.017 0.019 0.028 0.004 -0.001 0.004
Co2W 0.0172(8) 0.0307(9) 0.0124(8) -0.0008(7) -0.0027(6) 0.0024(7)
Co1A 0.0157 0.0195 0.0141 -0.0032 -0.0018 0.0031
Co1W 0.0141 0.0157 0.0195 -0.0031 0.0032 -0.0018
Co2D 0.0124 0.0172 0.0307 -0.0024 0.0008 -0.0027
Co2J 0.0172 0.0307 0.0124 0.0008 -0.0027 -0.0024
Co2T 0.0307 0.0124 0.0172 -0.0027 0.0024 -0.0008
loop_
_geom_bond_atom_site_label_1
_geom_bond_atom_site_label_2
_geom_bond_site_symmetry_1
_geom_bond_site_symmetry_2
Co1 O1 1_555 1_555
Co2 O3 1_555 1_555
O1 C1 1_555 1_555
C1 H1 1_555 1_555
C2 C1 1_555 1_555
O2 Co1 1_555 1_555
O3 C2 1_555 1_555
C3 C1 1_555 1_555
H2 C3 1_555 1_555
C4 C3 1_555 1_555
O4 C4 1_555 1_555
O5 C4 1_555 1_555
C5 C3 1_555 1_555
H3 C5 1_555 1_555
C6 C5 1_555 1_555
O6 C6 1_555 1_555
O7 C6 1_555 1_555
C7 O1 1_555 1_555
H4 C7 1_555 1_555
C8 C7 1_555 1_555
O8 C8 1_555 1_555
O9 Co1 1_555 1_555
O10 Co1 1_555 1_555
H5 O10 1_555 1_555
H6 O10 1_555 1_555
O5B Co1 1_555 1_555
O6R Co1 1_555 1_555
O4R Co2 1_555 1_555
O7D Co2 1_555 1_555
O8H Co2 1_555 1_555
O10V Co2 1_555 1_555
Co2W O4 1_555 1_555
Co1A O5 1_555 1_555
Co1W O6 1_555 1_555
Co2D O7 1_555 1_555
Co2J O8 1_555 1_555
Co2T O10 1_555 1_555
H5V O10V 1_555 1_555
H6V O10V 1_555 1_555
C2 O2 1_555 1_555
C5 C7 1_555 1_555
C8 O9 1_555 1_555

#END
