
#######################################################################
#
#                 Cambridge Crystallographic Data Centre
#                                CCDC 
#
#######################################################################
#
# If this CIF has been generated from an entry in the Cambridge 
# Structural Database, then it will include bibliographic, chemical, 
# crystal, experimental, refinement or atomic coordinate data resulting 
# from the CCDC's data processing and validation procedures.
#
#######################################################################

data_XAGCUE
_chemical_formula_moiety         '(C8 H4 O10 Zn3)n'
_symmetry_cell_setting           cubic
_symmetry_space_group_name_H-M   'P a -3'
_symmetry_Int_Tables_number      205
_space_group_name_Hall           '-P 2ac 2ab 3'
loop_
_symmetry_equiv_pos_site_id
_symmetry_equiv_pos_as_xyz
1 x,y,z
2 z,x,y
3 y,z,x
4 1/2-x,-y,1/2+z
5 -x,1/2+y,1/2-z
6 1/2+x,1/2-y,-z
7 1/2+z,1/2-x,-y
8 1/2-z,-x,1/2+y
9 -z,1/2+x,1/2-y
10 -y,1/2+z,1/2-x
11 1/2+y,1/2-z,-x
12 1/2-y,-z,1/2+x
13 -x,-y,-z
14 -z,-x,-y
15 -y,-z,-x
16 1/2+x,y,1/2-z
17 x,1/2-y,1/2+z
18 1/2-x,1/2+y,z
19 1/2-z,1/2+x,y
20 1/2+z,x,1/2-y
21 z,1/2-x,1/2+y
22 y,1/2-z,1/2+x
23 1/2-y,1/2+z,x
24 1/2+y,z,1/2-x
_cell_length_a                   20.4830(10)
_cell_length_b                   20.4830(10)
_cell_length_c                   20.4830(10)
_cell_angle_alpha                90
_cell_angle_beta                 90
_cell_angle_gamma                90
_cell_volume                     8593.71
loop_
_atom_site_label
_atom_site_type_symbol
_atom_site_fract_x
_atom_site_fract_y
_atom_site_fract_z
_atom_site_U_iso_or_equiv
_atom_site_thermal_displace_type
Zn1 Zn 0.39128(9) 0.15035(9) 0.17271(10) 0.0345 Uani
Zn2 Zn 0.55998(10) 0.24612(10) 0.01072(10) 0.0419 Uani
Zn3 Zn 0.51552(9) 0.11478(10) 0.09603(9) 0.0376 Uani
O1 O 0.3283(5) 0.2199(5) 0.1234(5) 0.0387 Uani
C1 C 0.3647(9) 0.2680(7) 0.0843(8) 0.0403 Uani
H1 H 0.3778 0.3043 0.1126 0.0480 Uiso
C2 C 0.4259(8) 0.2351(9) 0.0572(9) 0.0387 Uani
O2 O 0.4436(7) 0.1856(7) 0.0865(7) 0.0810 Uani
O3 O 0.4569(7) 0.2632(6) 0.0138(7) 0.0717 Uani
C3 C 0.3180(8) 0.2926(9) 0.0341(9) 0.0457 Uani
H2 H 0.3405 0.3095 -0.0047 0.0550 Uiso
C4 C 0.2777(8) 0.3451(10) 0.0678(10) 0.0483 Uani
O4 O 0.2982(6) 0.4051(7) 0.0562(6) 0.0613 Uani
O5 O 0.2327(6) 0.3317(6) 0.1021(7) 0.0640 Uani
C5 C 0.2796(9) 0.2304(10) 0.0192(9) 0.0520 Uani
H3 H 0.3061 0.2031 -0.0098 0.0630 Uiso
C6 C 0.2141(9) 0.2439(11) -0.0150(11) 0.0557 Uani
O6 O 0.2195(7) 0.2776(6) -0.0657(9) 0.0833 Uani
O7 O 0.1610(7) 0.2226(6) 0.0070(6) 0.0557 Uani
C7 C 0.2738(9) 0.1954(8) 0.0852(10) 0.0537 Uani
H4 H 0.2320 0.2049 0.1063 0.0650 Uiso
C8 C 0.2850(9) 0.1221(9) 0.0792(9) 0.0443 Uani
O8 O 0.2411(6) 0.0875(6) 0.0520(7) 0.0627 Uani
O9 O 0.3367(6) 0.0974(6) 0.0982(7) 0.0663 Uani
O10 O 0.4563(5) 0.0785(5) 0.1586(5) 0.0330 Uani
O5B O 0.3317(6) 0.1021(7) 0.2327(6) 0.0640 Uani
O6S O 0.4343(9) 0.2195(7) 0.2224(6) 0.0833 Uani
O4S O 0.5562(6) 0.2982(6) 0.0949(7) 0.0613 Uani
O7E O 0.6610(7) 0.2774(6) -0.0070(6) 0.0557 Uani
O8F O 0.5520(7) 0.2589(6) -0.0875(6) 0.0627 Uani
O10W O 0.5785(5) 0.1586(5) 0.0437(5) 0.0330 Uani
O9W O 0.5974(6) 0.0982(7) 0.1633(6) 0.0663 Uani
Zn2U Zn 0.24612(10) 0.48928(10) 0.05998(10) 0.0419 Uani
Zn1A Zn 0.17271(10) 0.39128(9) 0.15035(9) 0.0345 Uani
Zn1U Zn 0.15035(9) 0.32729(10) -0.10872(9) 0.0345 Uani
Zn2E Zn 0.05998(10) 0.25388(10) -0.01072(10) 0.0419 Uani
Zn2K Zn 0.25388(10) -0.01072(10) 0.05998(10) 0.0419 Uani
Zn3R Zn 0.40397(9) 0.01552(9) 0.11478(10) 0.0376 Uani
Zn2R Zn 0.48928(10) 0.05998(10) 0.24612(10) 0.0419 Uani
loop_
_atom_site_aniso_label
_atom_site_aniso_U_11
_atom_site_aniso_U_22
_atom_site_aniso_U_33
_atom_site_aniso_U_23
_atom_site_aniso_U_13
_atom_site_aniso_U_12
Zn1 0.0294(11) 0.0330(11) 0.0412(12) 0.0037(9) 0.0006(10) -0.0006(9)
Zn2 0.0554 0.038 0.0323 0.0057 0.0037 0.0088
Zn3 0.037 0.0366 0.0392 0.0006 0.0089 -0.0043
O1 0.047(7) 0.035(7) 0.034(7) -0.001(5) 0.004(6) 0.001(6)
C1 0.056(12) 0.022(9) 0.043(11) -0.010(8) 0.009(10) 0.010(9)
C2 0.035(10) 0.036(10) 0.045(11) 0.009(9) 0.002(9) -0.003(9)
O2 0.069(10) 0.065(10) 0.109(13) 0.051(10) 0.039(9) 0.033(8)
O3 0.054 0.081 0.08 0.023 0.027 0.017
C3 0.037(11) 0.047(11) 0.053(12) 0.018(10) -0.014(9) 0.002(9)
C4 0.058 0.021 0.066 -0.002 0.013 0.028
O4 0.041 0.042 0.101 -0.002 0 0.007
O5 0.072 0.047 0.073 -0.013 0.047 0.014
C5 0.071 0.046 0.039 -0.003 -0.007 0.018
C6 0.066 0.067 0.034 -0.009 -0.008 0.02
O6 0.055 0.145 0.05 0.058 -0.005 0.007
O7 0.046 0.053 0.068 0.006 -0.017 0.012
C7 0.059(13) 0.035(11) 0.067(14) -0.009(10) -0.012(11) 0.004(10)
C8 0.04 0.042 0.051 -0.001 -0.005 -0.003
O8 0.07 0.056 0.062 -0.002 -0.04 0.003
O9 0.047 0.044 0.108 -0.008 -0.034 0.012
O10 0.031 0.029 0.039 0.009 -0.003 -0.003
O5B 0.047 0.073 0.072 0.047 0.014 -0.013
O6S 0.05 0.055 0.145 -0.007 -0.058 -0.005
O4S 0.101 0.041 0.042 -0.007 0.002 0
O7E 0.046 0.053 0.068 0.006 0.017 -0.012
O8F 0.062 0.07 0.056 0.003 0.002 0.04
O10W 0.029 0.039 0.031 0.003 0.003 0.009
O9W 0.044 0.108 0.047 0.034 -0.012 -0.008
Zn2U 0.038 0.0323 0.0554 -0.0037 0.0088 -0.0057
Zn1A 0.0412 0.0294 0.033 -0.0006 0.0037 0.0006
Zn1U 0.033 0.0412 0.0294 -0.0006 -0.0006 -0.0037
Zn2E 0.0554 0.038 0.0323 0.0057 -0.0037 -0.0088
Zn2K 0.038 0.0323 0.0554 -0.0037 -0.0088 0.0057
Zn3R 0.0392(12) 0.0370(11) 0.0366(12) -0.0043(10) -0.0006(10) -0.0089(9)
Zn2R 0.0323 0.0554 0.038 0.0088 -0.0057 -0.0037
loop_
_geom_bond_atom_site_label_1
_geom_bond_atom_site_label_2
_geom_bond_site_symmetry_1
_geom_bond_site_symmetry_2
Zn1 O1 1_555 1_555
Zn2 O3 1_555 1_555
Zn3 O2 1_555 1_555
O1 C1 1_555 1_555
C1 H1 1_555 1_555
C2 C1 1_555 1_555
O2 Zn1 1_555 1_555
O3 C2 1_555 1_555
C3 C1 1_555 1_555
H2 C3 1_555 1_555
C4 C3 1_555 1_555
O4 C4 1_555 1_555
O5 C4 1_555 1_555
C5 C3 1_555 1_555
H3 C5 1_555 1_555
C6 C5 1_555 1_555
O6 C6 1_555 1_555
O7 C6 1_555 1_555
C7 O1 1_555 1_555
H4 C7 1_555 1_555
C8 C7 1_555 1_555
O8 C8 1_555 1_555
O9 Zn1 1_555 1_555
O10 Zn1 1_555 1_555
O5B Zn1 1_555 1_555
O6S Zn1 1_555 1_555
O4S Zn2 1_555 1_555
O7E Zn2 1_555 1_555
O8F Zn2 1_555 1_555
O10W Zn2 1_555 1_555
O9W Zn3 1_555 1_555
Zn2U O4 1_555 1_555
Zn1A O5 1_555 1_555
Zn1U O6 1_555 1_555
Zn2E O7 1_555 1_555
Zn2K O8 1_555 1_555
Zn3R O9 1_555 1_555
Zn2R O10 1_555 1_555
Zn3 O10 1_555 1_555
Zn3 O10W 1_555 1_555
C2 O2 1_555 1_555
C5 C7 1_555 1_555
C8 O9 1_555 1_555
O10 Zn3R 1_555 1_555

#END
