
#######################################################################
#
#                 Cambridge Crystallographic Data Centre
#                                CCDC 
#
#######################################################################
#
# If this CIF has been generated from an entry in the Cambridge 
# Structural Database, then it will include bibliographic, chemical, 
# crystal, experimental, refinement or atomic coordinate data resulting 
# from the CCDC's data processing and validation procedures.
#
#######################################################################

data_GIQXEK
_chemical_formula_moiety         '(C4 H28 Ce1 O24 P4 Ru2)n'
_symmetry_cell_setting           monoclinic
_symmetry_space_group_name_H-M   'C 2/c'
_symmetry_Int_Tables_number      15
_space_group_name_Hall           '-C 2yc'
loop_
_symmetry_equiv_pos_site_id
_symmetry_equiv_pos_as_xyz
1 x,y,z
2 1/2+x,1/2+y,z
3 -x,y,1/2-z
4 1/2-x,1/2+y,1/2-z
5 -x,-y,-z
6 1/2-x,1/2-y,-z
7 x,-y,1/2+z
8 1/2+x,1/2-y,1/2+z
_cell_length_a                   12.5865(19)
_cell_length_b                   14.742(2)
_cell_length_c                   15.6938(17)
_cell_angle_alpha                90
_cell_angle_beta                 94.163(4)
_cell_angle_gamma                90
_cell_volume                     2904.3
loop_
_atom_site_label
_atom_site_type_symbol
_atom_site_fract_x
_atom_site_fract_y
_atom_site_fract_z
Ru1 Ru 0.166860(19) 0.713080(16) 0.497930(15)
Ce1 Ce 0.5000 0.511395(16) 0.2500
P1 P 0.29915(6) 0.65557(5) 0.35610(5)
P2 P 0.18863(6) 0.83729(5) 0.34835(5)
O1 O 0.21043(17) 0.62150(14) 0.41091(13)
O2 O 0.38874(16) 0.70038(14) 0.41464(13)
O3 O 0.34131(17) 0.58147(14) 0.30238(13)
O4 O 0.10436(16) 0.79439(14) 0.40284(13)
O5 O 0.28191(17) 0.87420(14) 0.40754(13)
O6 O 0.14107(17) 0.90888(15) 0.28924(14)
O7 O 0.3258(2) 0.77563(17) 0.23567(16)
O8 O 0.00985(19) 0.63412(17) 0.49338(16)
O9 O 0.5723(2) 0.63544(17) 0.35498(16)
O10 O 0.5294(2) 0.44681(19) 0.10420(16)
C1 C 0.2404(2) 0.7444(2) 0.2850(2)
C2 C 0.1515(3) 0.7053(2) 0.2249(2)
H1 H 0.1809 0.6591 0.1883
H2 H 0.1190 0.7539 0.1893
H3 H 0.0973 0.6776 0.2584
H4 H 0.334(6) 0.842(3) 0.229(5)
H5 H -0.004(4) 0.601(3) 0.450(3)
H6 H 0.523(3) 0.660(3) 0.383(2)
H7 H 0.498(3) 0.400(3) 0.088(3)
H11 H -0.051(3) 0.660(3) 0.504(3)
H12 H 0.594(6) 0.678(4) 0.321(4)
H13 H 0.584(3) 0.453(3) 0.070(3)
Ru1B Ru 0.833140(19) 0.713080(16) 0.002070(15)
Ru1E Ru 0.333140(19) 0.786920(16) 0.502070(15)
Ru1G Ru 0.666860(19) 0.786920(16) -0.002070(15)
Ce1A Ce -0.0000 1.011395(16) 0.2500
Ce1A_2 Ce 1.0000 1.011395(16) 0.2500
P1B P 0.70085(6) 0.65557(5) 0.14390(5)
P2B P 0.81137(6) 0.83729(5) 0.15165(5)
O1B O 0.78957(17) 0.62150(14) 0.08909(13)
O2B O 0.61126(16) 0.70038(14) 0.08536(13)
O2E O 0.11126(16) 0.79962(14) 0.58536(13)
O2G O 0.88874(16) 0.79962(14) -0.08536(13)
O3B O 0.65869(17) 0.58147(14) 0.19762(13)
O4B O 0.89564(16) 0.79439(14) 0.09716(13)
O5B O 0.71809(17) 0.87420(14) 0.09246(13)
O5E O 0.21809(17) 0.62580(14) 0.59246(13)
O5G O 0.78191(17) 0.62580(14) -0.09246(13)
O6B O 0.85893(17) 0.90888(15) 0.21076(14)
O6A O 0.64107(17) 0.40888(15) 0.28924(14)
O6C O 0.35893(17) 0.40888(15) 0.21076(14)
O7B O 0.6742(2) 0.77563(17) 0.26433(16)
O8B O 0.99015(19) 0.63412(17) 0.00662(16)
O9B O 0.4277(2) 0.63544(17) 0.14502(16)
O10B O 0.4706(2) 0.44681(19) 0.39580(16)
C1B C 0.7596(2) 0.7444(2) 0.2150(2)
C2B C 0.8485(3) 0.7053(2) 0.2751(2)
H1B H 0.8191 0.6591 0.3117
H2B H 0.8810 0.7539 0.3107
H3B H 0.9027 0.6776 0.2416
H4B H 0.666(6) 0.842(3) 0.271(5)
H5B H 1.004(4) 0.601(3) 0.050(3)
H6B H 0.477(3) 0.660(3) 0.117(2)
H7B H 0.502(3) 0.400(3) 0.412(3)
H11B H 1.051(3) 0.660(3) -0.004(3)
H12B H 0.406(6) 0.678(4) 0.179(4)
H13B H 0.416(3) 0.453(3) 0.430(3)
O11 O 0.0211(2) 0.49899(19) 0.12579(19)
H8 H 0.068(4) 0.496(3) 0.164(3)
H14 H 0.021(4) 0.455(3) 0.094(3)
O12 O 0.6943(2) 0.5404(2) 0.49555(19)
H9 H 0.728(4) 0.489(3) 0.491(3)
H15 H 0.679(5) 0.553(4) 0.444(3)
O13 O 0.8494(2) 0.46030(19) 0.22445(18)
H10 H 0.882(4) 0.478(4) 0.184(3)
H16 H 0.792(3) 0.485(4) 0.216(4)
O14 O 0.8162(3) 0.3119(2) 0.0423(2)
H17 H 0.782(6) 0.366(4) 0.036(5)
H18 H 0.848(5) 0.306(5) 0.100(2)
loop_
_geom_bond_atom_site_label_1
_geom_bond_atom_site_label_2
_geom_bond_site_symmetry_1
_geom_bond_site_symmetry_2
Ru1 O1 1_555 1_555
Ce1 O3 1_555 1_555
P1 O1 1_555 1_555
P2 O4 1_555 1_555
O2 P1 1_555 1_555
O3 P1 1_555 1_555
O4 Ru1 1_555 1_555
O5 P2 1_555 1_555
O6 P2 1_555 1_555
O7 C1 1_555 1_555
O8 Ru1 1_555 1_555
O9 Ce1 1_555 1_555
O10 Ce1 1_555 1_555
O11 H8 1_555 1_555
O12 H9 1_555 1_555
O13 H10 1_555 1_555
O14 H17 1_555 1_555
C1 P1 1_555 1_555
C2 C1 1_555 1_555
H1 C2 1_555 1_555
H2 C2 1_555 1_555
H3 C2 1_555 1_555
H4 O7 1_555 1_555
H5 O8 1_555 1_555
H6 O9 1_555 1_555
H7 O10 1_555 1_555
H11 O8 1_555 1_555
H12 O9 1_555 1_555
H13 O10 1_555 1_555
H14 O11 1_555 1_555
H15 O12 1_555 1_555
H16 O13 1_555 1_555
H18 O14 1_555 1_555
Ru1B Ru1G 1_555 1_555
Ru1E Ru1 1_555 1_555
Ru1G O2B 1_555 1_555
Ce1A O6 1_555 1_555
Ce1A_2 O6B 1_555 1_555
P1B O1B 1_555 1_555
P2B O4B 1_555 1_555
O1B Ru1B 1_555 1_555
O2B P1B 1_555 1_555
O2E Ru1 1_555 1_555
O2G Ru1B 1_555 1_555
O3B Ce1 1_555 1_555
O4B Ru1B 1_555 1_555
O5B Ru1G 1_555 1_555
O5E Ru1 1_555 1_555
O5G Ru1B 1_555 1_555
O6B P2B 1_555 1_555
O6A Ce1 1_555 1_555
O6C Ce1 1_555 1_555
O7B C1B 1_555 1_555
O8B Ru1B 1_555 1_555
O9B Ce1 1_555 1_555
O10B Ce1 1_555 1_555
C1B P1B 1_555 1_555
C2B C1B 1_555 1_555
H1B C2B 1_555 1_555
H2B C2B 1_555 1_555
H3B C2B 1_555 1_555
H4B O7B 1_555 1_555
H5B O8B 1_555 1_555
H6B O9B 1_555 1_555
H7B O10B 1_555 1_555
H11B O8B 1_555 1_555
H12B O9B 1_555 1_555
H13B O10B 1_555 1_555
P2 C1 1_555 1_555
O2 Ru1E 1_555 1_555
O5 Ru1E 1_555 1_555
P1B O3B 1_555 1_555
P2B O5B 1_555 1_555
P2B C1B 1_555 1_555

#END
