
#######################################################################
#
#                 Cambridge Crystallographic Data Centre
#                                CCDC 
#
#######################################################################
#
# If this CIF has been generated from an entry in the Cambridge 
# Structural Database, then it will include bibliographic, chemical, 
# crystal, experimental, refinement or atomic coordinate data resulting 
# from the CCDC's data processing and validation procedures.
#
#######################################################################

data_GIQXIO
_chemical_formula_moiety         '(C4 H28 Dy1 O24 P4 Ru2)n'
_symmetry_cell_setting           monoclinic
_symmetry_space_group_name_H-M   'C 2/c'
_symmetry_Int_Tables_number      15
_space_group_name_Hall           '-C 2yc'
loop_
_symmetry_equiv_pos_site_id
_symmetry_equiv_pos_as_xyz
1 x,y,z
2 1/2+x,1/2+y,z
3 -x,y,1/2-z
4 1/2-x,1/2+y,1/2-z
5 -x,-y,-z
6 1/2-x,1/2-y,-z
7 x,-y,1/2+z
8 1/2+x,1/2-y,1/2+z
_cell_length_a                   12.475(2)
_cell_length_b                   14.6256(19)
_cell_length_c                   15.548(3)
_cell_angle_alpha                90
_cell_angle_beta                 94.518(5)
_cell_angle_gamma                90
_cell_volume                     2827.99
loop_
_atom_site_label
_atom_site_type_symbol
_atom_site_fract_x
_atom_site_fract_y
_atom_site_fract_z
Ru1 Ru 0.16644(4) 0.71196(4) 0.49798(4)
Dy1 Dy 0.5000 0.51085(3) 0.2500
P1 P 0.30062(14) 0.65455(12) 0.35443(11)
P2 P 0.18621(14) 0.83771(12) 0.34571(11)
O1 O 0.2116(3) 0.6200(3) 0.4106(3)
O2 O 0.3904(3) 0.7004(3) 0.4137(3)
O3 O 0.3450(4) 0.5792(3) 0.3001(3)
O4 O 0.1021(4) 0.7940(3) 0.4014(3)
O5 O 0.2808(3) 0.8761(3) 0.4054(3)
O6 O 0.1367(3) 0.9089(3) 0.2856(3)
O7 O 0.3254(4) 0.7750(3) 0.2322(3)
O8 O 0.0090(4) 0.6335(3) 0.4938(3)
O9 O 0.5704(4) 0.6284(3) 0.3510(3)
O10 O 0.5250(4) 0.4512(3) 0.1089(3)
C1 C 0.2373(5) 0.7436(5) 0.2811(5)
C2 C 0.1510(6) 0.7034(4) 0.2216(4)
H1 H 0.1820 0.6572 0.1853
H2 H 0.1173 0.7516 0.1851
H3 H 0.0969 0.6748 0.2553
H4 H 0.377(5) 0.799(5) 0.270(4)
H5 H -0.007(6) 0.617(6) 0.440(3)
H6 H -0.040(6) 0.676(5) 0.503(5)
H7 H 0.535(4) 0.625(4) 0.401(3)
H8 H 0.559(5) 0.684(3) 0.328(4)
H9 H 0.476(6) 0.410(5) 0.095(6)
H10 H 0.585(4) 0.429(4) 0.104(4)
Ru1B Ru 0.83356(4) 0.71196(4) 0.00202(4)
Ru1E Ru 0.33356(4) 0.78804(4) 0.50202(4)
Ru1G Ru 0.66644(4) 0.78804(4) -0.00202(4)
Dy1A Dy 0.0000 1.01085(3) 0.2500
Dy1A_2 Dy 1.0000 1.01085(3) 0.2500
P1B P 0.69938(14) 0.65455(12) 0.14557(11)
P2B P 0.81379(14) 0.83771(12) 0.15429(11)
O1B O 0.7884(3) 0.6200(3) 0.0894(3)
O2B O 0.6096(3) 0.7004(3) 0.0863(3)
O2E O 0.1096(3) 0.7996(3) 0.5863(3)
O2G O 0.8904(3) 0.7996(3) -0.0863(3)
O3B O 0.6550(4) 0.5792(3) 0.1999(3)
O4B O 0.8979(4) 0.7940(3) 0.0986(3)
O5B O 0.7192(3) 0.8761(3) 0.0946(3)
O5E O 0.2192(3) 0.6239(3) 0.5946(3)
O5G O 0.7808(3) 0.6239(3) -0.0946(3)
O6B O 0.8633(3) 0.9089(3) 0.2144(3)
O6A O 0.6367(3) 0.4089(3) 0.2856(3)
O6C O 0.3633(3) 0.4089(3) 0.2144(3)
O7B O 0.6746(4) 0.7750(3) 0.2678(3)
O8B O 0.9910(4) 0.6335(3) 0.0062(3)
O9B O 0.4296(4) 0.6284(3) 0.1490(3)
O10B O 0.4750(4) 0.4512(3) 0.3911(3)
C1B C 0.7627(5) 0.7436(5) 0.2189(5)
C2B C 0.8490(6) 0.7034(4) 0.2784(4)
H1B H 0.8180 0.6572 0.3147
H2B H 0.8827 0.7516 0.3149
H3B H 0.9031 0.6748 0.2447
H4B H 0.623(5) 0.799(5) 0.230(4)
H5B H 1.007(6) 0.617(6) 0.060(3)
H6B H 1.040(6) 0.676(5) -0.003(5)
H7B H 0.465(4) 0.625(4) 0.099(3)
H8B H 0.441(5) 0.684(3) 0.172(4)
H9B H 0.524(6) 0.410(5) 0.405(6)
H10B H 0.415(4) 0.429(4) 0.396(4)
O11 O 0.0187(4) 0.4989(3) 0.1261(4)
H11 H 0.090(4) 0.497(4) 0.121(5)
H12 H 0.007(6) 0.469(5) 0.175(4)
O12 O 0.6911(4) 0.5403(4) 0.4983(3)
H13 H 0.757(4) 0.519(5) 0.504(5)
H14 H 0.669(6) 0.521(5) 0.444(3)
O13 O 0.8503(4) 0.4580(3) 0.2236(3)
H15 H 0.781(4) 0.453(5) 0.201(4)
H16 H 0.850(7) 0.519(4) 0.243(6)
O14 O 0.8149(5) 0.3108(4) 0.0420(3)
H17 H 0.761(6) 0.344(6) 0.065(6)
H18 H 0.829(9) 0.277(7) 0.090(5)
loop_
_geom_bond_atom_site_label_1
_geom_bond_atom_site_label_2
_geom_bond_site_symmetry_1
_geom_bond_site_symmetry_2
Ru1 O1 1_555 1_555
Dy1 O3 1_555 1_555
P1 O1 1_555 1_555
P2 O4 1_555 1_555
O2 P1 1_555 1_555
O3 P1 1_555 1_555
O4 Ru1 1_555 1_555
O5 P2 1_555 1_555
O6 P2 1_555 1_555
O7 C1 1_555 1_555
O8 Ru1 1_555 1_555
O9 Dy1 1_555 1_555
O10 Dy1 1_555 1_555
O11 H11 1_555 1_555
O12 H13 1_555 1_555
O13 H15 1_555 1_555
O14 H17 1_555 1_555
C1 P1 1_555 1_555
C2 C1 1_555 1_555
H1 C2 1_555 1_555
H2 C2 1_555 1_555
H3 C2 1_555 1_555
H4 O7 1_555 1_555
H5 O8 1_555 1_555
H6 O8 1_555 1_555
H7 O9 1_555 1_555
H8 O9 1_555 1_555
H9 O10 1_555 1_555
H10 O10 1_555 1_555
H12 O11 1_555 1_555
H14 O12 1_555 1_555
H16 O13 1_555 1_555
H18 O14 1_555 1_555
Ru1B Ru1G 1_555 1_555
Ru1E Ru1 1_555 1_555
Ru1G O2B 1_555 1_555
Dy1A O6 1_555 1_555
Dy1A_2 O6B 1_555 1_555
P1B O1B 1_555 1_555
P2B O4B 1_555 1_555
O1B Ru1B 1_555 1_555
O2B P1B 1_555 1_555
O2E Ru1 1_555 1_555
O2G Ru1B 1_555 1_555
O3B Dy1 1_555 1_555
O4B Ru1B 1_555 1_555
O5B Ru1G 1_555 1_555
O5E Ru1 1_555 1_555
O5G Ru1B 1_555 1_555
O6B P2B 1_555 1_555
O6A Dy1 1_555 1_555
O6C Dy1 1_555 1_555
O7B C1B 1_555 1_555
O8B Ru1B 1_555 1_555
O9B Dy1 1_555 1_555
O10B Dy1 1_555 1_555
C1B P1B 1_555 1_555
C2B C1B 1_555 1_555
H1B C2B 1_555 1_555
H2B C2B 1_555 1_555
H3B C2B 1_555 1_555
H4B O7B 1_555 1_555
H5B O8B 1_555 1_555
H6B O8B 1_555 1_555
H7B O9B 1_555 1_555
H8B O9B 1_555 1_555
H9B O10B 1_555 1_555
H10B O10B 1_555 1_555
P2 C1 1_555 1_555
O2 Ru1E 1_555 1_555
O5 Ru1E 1_555 1_555
P1B O3B 1_555 1_555
P2B O5B 1_555 1_555
P2B C1B 1_555 1_555

#END
