
#######################################################################
#
#                 Cambridge Crystallographic Data Centre
#                                CCDC 
#
#######################################################################
#
# If this CIF has been generated from an entry in the Cambridge 
# Structural Database, then it will include bibliographic, chemical, 
# crystal, experimental, refinement or atomic coordinate data resulting 
# from the CCDC's data processing and validation procedures.
#
#######################################################################

data_GIQXOU
_chemical_formula_moiety         '(C4 H28 Er1 O24 P4 Ru2)n'
_symmetry_cell_setting           monoclinic
_symmetry_space_group_name_H-M   'C 2/c'
_symmetry_Int_Tables_number      15
_space_group_name_Hall           '-C 2yc'
loop_
_symmetry_equiv_pos_site_id
_symmetry_equiv_pos_as_xyz
1 x,y,z
2 1/2+x,1/2+y,z
3 -x,y,1/2-z
4 1/2-x,1/2+y,1/2-z
5 -x,-y,-z
6 1/2-x,1/2-y,-z
7 x,-y,1/2+z
8 1/2+x,1/2-y,1/2+z
_cell_length_a                   12.376(4)
_cell_length_b                   14.501(5)
_cell_length_c                   15.451(5)
_cell_angle_alpha                90
_cell_angle_beta                 94.416(3)
_cell_angle_gamma                90
_cell_volume                     2764.67
loop_
_atom_site_label
_atom_site_type_symbol
_atom_site_fract_x
_atom_site_fract_y
_atom_site_fract_z
Ru1 Ru 0.16634(6) 0.71202(5) 0.49810(5)
Er1 Er 0.5000 0.51086(4) 0.2500
P1 P 0.30058(15) 0.65451(13) 0.35404(13)
P2 P 0.18604(15) 0.83769(14) 0.34571(13)
O1 O 0.2118(3) 0.6204(3) 0.4104(3)
O2 O 0.3907(4) 0.6996(4) 0.4139(3)
O3 O 0.3464(4) 0.5795(4) 0.3005(3)
O4 O 0.1022(4) 0.7935(3) 0.4013(3)
O5 O 0.2819(4) 0.8763(3) 0.4058(3)
O6 O 0.1362(4) 0.9088(3) 0.2852(3)
O7 O 0.3246(5) 0.7753(4) 0.2326(4)
H1 H 0.3750 0.7954 0.2675
O8 O 0.0088(4) 0.6337(4) 0.4929(4)
H2 H -0.0418 0.6700 0.5033
H3 H -0.0042 0.6104 0.4430
O9 O 0.5709(4) 0.6291(4) 0.3511(4)
H4 H 0.5386 0.6262 0.3972
H5 H 0.5602 0.6812 0.3278
O10 O 0.5251(4) 0.4519(4) 0.1085(3)
H6 H 0.4823 0.4074 0.0978
H7 H 0.5895 0.4337 0.1064
C1 C 0.2393(7) 0.7440(6) 0.2803(6)
C2 C 0.1536(7) 0.7042(5) 0.2213(6)
H16 H 0.1845 0.6565 0.1857
H17 H 0.1211 0.7527 0.1835
H18 H 0.0979 0.6769 0.2550
Ru1B Ru 0.83366(6) 0.71202(5) 0.00190(5)
Ru1E Ru 0.33366(6) 0.78798(5) 0.50190(5)
Ru1G Ru 0.66634(6) 0.78798(5) -0.00190(5)
Er1A Er -0.0000 1.01086(4) 0.2500
Er1A_2 Er 1.0000 1.01086(4) 0.2500
P1B P 0.69942(15) 0.65451(13) 0.14596(13)
P2B P 0.81396(15) 0.83769(14) 0.15429(13)
O1B O 0.7882(3) 0.6204(3) 0.0896(3)
O2B O 0.6093(4) 0.6996(4) 0.0861(3)
O2E O 0.1093(4) 0.8004(4) 0.5861(3)
O2G O 0.8907(4) 0.8004(4) -0.0861(3)
O3B O 0.6536(4) 0.5795(4) 0.1995(3)
O4B O 0.8978(4) 0.7935(3) 0.0987(3)
O5B O 0.7181(4) 0.8763(3) 0.0942(3)
O5E O 0.2181(4) 0.6237(3) 0.5942(3)
O5G O 0.7819(4) 0.6237(3) -0.0942(3)
O6B O 0.8638(4) 0.9088(3) 0.2148(3)
O6A O 0.6362(4) 0.4088(3) 0.2852(3)
O6C O 0.3638(4) 0.4088(3) 0.2148(3)
O7B O 0.6754(5) 0.7753(4) 0.2674(4)
H1B H 0.6250 0.7954 0.2325
O8B O 0.9912(4) 0.6337(4) 0.0071(4)
H2B H 1.0418 0.6700 -0.0033
H3B H 1.0042 0.6104 0.0570
O9B O 0.4291(4) 0.6291(4) 0.1489(4)
H4B H 0.4614 0.6262 0.1028
H5B H 0.4398 0.6812 0.1722
O10B O 0.4749(4) 0.4519(4) 0.3915(3)
H6B H 0.5177 0.4074 0.4022
H7B H 0.4105 0.4337 0.3936
C1B C 0.7607(7) 0.7440(6) 0.2197(6)
C2B C 0.8464(7) 0.7042(5) 0.2787(6)
H16B H 0.8155 0.6565 0.3143
H17B H 0.8789 0.7527 0.3165
H18B H 0.9021 0.6769 0.2450
O11 O 0.0202(5) 0.4987(4) 0.1250(3)
H8 H 0.0876 0.4924 0.1225
H9 H -0.0006 0.4658 0.1657
O12 O 0.6918(4) 0.5391(4) 0.4980(4)
H10 H 0.6694 0.5273 0.4462
H11 H 0.7568 0.5218 0.5070
O13 O 0.8504(5) 0.4584(3) 0.2229(4)
H12 H 0.7863 0.4569 0.1997
H13 H 0.8668 0.5130 0.2372
O14 O 0.8144(5) 0.3111(5) 0.0437(4)
H14 H 0.7574 0.3383 0.0560
H15 H 0.8381 0.2784 0.0862
loop_
_geom_bond_atom_site_label_1
_geom_bond_atom_site_label_2
_geom_bond_site_symmetry_1
_geom_bond_site_symmetry_2
Ru1 O1 1_555 1_555
Er1 O3 1_555 1_555
P1 O1 1_555 1_555
P2 O4 1_555 1_555
O2 P1 1_555 1_555
O3 P1 1_555 1_555
O4 Ru1 1_555 1_555
O5 P2 1_555 1_555
O6 P2 1_555 1_555
O7 H1 1_555 1_555
O8 Ru1 1_555 1_555
H2 O8 1_555 1_555
H3 O8 1_555 1_555
O9 Er1 1_555 1_555
H4 O9 1_555 1_555
H5 O9 1_555 1_555
O10 Er1 1_555 1_555
H6 O10 1_555 1_555
H7 O10 1_555 1_555
O11 H8 1_555 1_555
H9 O11 1_555 1_555
O12 H10 1_555 1_555
H11 O12 1_555 1_555
O13 H12 1_555 1_555
H13 O13 1_555 1_555
O14 H14 1_555 1_555
H15 O14 1_555 1_555
C1 P1 1_555 1_555
C2 C1 1_555 1_555
H16 C2 1_555 1_555
H17 C2 1_555 1_555
H18 C2 1_555 1_555
Ru1B Ru1G 1_555 1_555
Ru1E Ru1 1_555 1_555
Ru1G O2B 1_555 1_555
Er1A O6 1_555 1_555
Er1A_2 O6B 1_555 1_555
P1B O1B 1_555 1_555
P2B O4B 1_555 1_555
O1B Ru1B 1_555 1_555
O2B P1B 1_555 1_555
O2E Ru1 1_555 1_555
O2G Ru1B 1_555 1_555
O3B Er1 1_555 1_555
O4B Ru1B 1_555 1_555
O5B Ru1G 1_555 1_555
O5E Ru1 1_555 1_555
O5G Ru1B 1_555 1_555
O6B P2B 1_555 1_555
O6A Er1 1_555 1_555
O6C Er1 1_555 1_555
O7B H1B 1_555 1_555
O8B Ru1B 1_555 1_555
H2B O8B 1_555 1_555
H3B O8B 1_555 1_555
O9B Er1 1_555 1_555
H4B O9B 1_555 1_555
H5B O9B 1_555 1_555
O10B Er1 1_555 1_555
H6B O10B 1_555 1_555
H7B O10B 1_555 1_555
C1B P1B 1_555 1_555
C2B C1B 1_555 1_555
H16B C2B 1_555 1_555
H17B C2B 1_555 1_555
H18B C2B 1_555 1_555
P2 C1 1_555 1_555
O2 Ru1E 1_555 1_555
O5 Ru1E 1_555 1_555
O7 C1 1_555 1_555
P1B O3B 1_555 1_555
P2B O5B 1_555 1_555
P2B C1B 1_555 1_555
O7B C1B 1_555 1_555

#END
