
#######################################################################
#
#                 Cambridge Crystallographic Data Centre
#                                CCDC 
#
#######################################################################
#
# If this CIF has been generated from an entry in the Cambridge 
# Structural Database, then it will include bibliographic, chemical, 
# crystal, experimental, refinement or atomic coordinate data resulting 
# from the CCDC's data processing and validation procedures.
#
#######################################################################

data_GIQYIP
_chemical_formula_moiety         '(C4 H28 Nd1 O24 P4 Ru2)n'
_symmetry_cell_setting           monoclinic
_symmetry_space_group_name_H-M   'C 2/c'
_symmetry_Int_Tables_number      15
_space_group_name_Hall           '-C 2yc'
loop_
_symmetry_equiv_pos_site_id
_symmetry_equiv_pos_as_xyz
1 x,y,z
2 1/2+x,1/2+y,z
3 -x,y,1/2-z
4 1/2-x,1/2+y,1/2-z
5 -x,-y,-z
6 1/2-x,1/2-y,-z
7 x,-y,1/2+z
8 1/2+x,1/2-y,1/2+z
_cell_length_a                   12.534(3)
_cell_length_b                   14.703(3)
_cell_length_c                   15.625(4)
_cell_angle_alpha                90
_cell_angle_beta                 94.481(6)
_cell_angle_gamma                90
_cell_volume                     2870.69
loop_
_atom_site_label
_atom_site_type_symbol
_atom_site_fract_x
_atom_site_fract_y
_atom_site_fract_z
Ru1 Ru 0.16679(3) 0.71282(3) 0.49779(2)
Nd1 Nd 0.5000 0.51135(2) 0.2500
P1 P 0.29990(9) 0.65521(8) 0.35576(8)
P2 P 0.18752(9) 0.83757(8) 0.34738(7)
O1 O 0.2109(2) 0.6206(2) 0.41111(18)
O2 O 0.3897(2) 0.7003(2) 0.41438(19)
O3 O 0.3435(2) 0.5789(2) 0.30144(18)
O4 O 0.1037(2) 0.7945(2) 0.40175(18)
O5 O 0.2818(2) 0.87432(19) 0.40762(18)
O6 O 0.1399(2) 0.90873(19) 0.28786(17)
O7 O 0.3256(3) 0.7757(2) 0.2340(2)
O8 O 0.0095(2) 0.6340(2) 0.4939(2)
O9 O 0.5713(2) 0.6338(2) 0.3532(2)
O10 O 0.5254(3) 0.4497(2) 0.10491(19)
C1 C 0.2394(3) 0.7452(3) 0.2838(3)
C2 C 0.1519(4) 0.7055(3) 0.2220(3)
H1 H 0.1834 0.6620 0.1837
H2 H 0.1169 0.7546 0.1879
H3 H 0.0990 0.6744 0.2545
H4 H 0.378(4) 0.797(4) 0.268(3)
H5 H -0.008(3) 0.615(3) 0.443(2)
H6 H -0.040(3) 0.674(3) 0.501(3)
H7 H 0.532(4) 0.628(4) 0.400(3)
H8 H 0.554(3) 0.686(2) 0.328(2)
H9 H 0.485(4) 0.406(3) 0.087(3)
H10 H 0.587(3) 0.426(4) 0.102(4)
Ru1B Ru 0.83321(3) 0.71282(3) 0.00221(2)
Ru1E Ru 0.33321(3) 0.78718(3) 0.50221(2)
Ru1G Ru 0.66679(3) 0.78718(3) -0.00221(2)
Nd1A Nd 0.0000 1.01135(2) 0.2500
Nd1A_2 Nd 1.0000 1.01135(2) 0.2500
P1B P 0.70010(9) 0.65521(8) 0.14424(8)
P2B P 0.81248(9) 0.83757(8) 0.15262(7)
O1B O 0.7891(2) 0.6206(2) 0.08889(18)
O2B O 0.6103(2) 0.7003(2) 0.08562(19)
O2E O 0.1103(2) 0.7997(2) 0.58562(19)
O2G O 0.8897(2) 0.7997(2) -0.08562(19)
O3B O 0.6565(2) 0.5789(2) 0.19856(18)
O4B O 0.8963(2) 0.7945(2) 0.09825(18)
O5B O 0.7182(2) 0.87432(19) 0.09238(18)
O5E O 0.2182(2) 0.62568(19) 0.59238(18)
O5G O 0.7818(2) 0.62568(19) -0.09238(18)
O6B O 0.8601(2) 0.90873(19) 0.21214(17)
O6A O 0.6399(2) 0.40873(19) 0.28786(17)
O6C O 0.3601(2) 0.40873(19) 0.21214(17)
O7B O 0.6744(3) 0.7757(2) 0.2660(2)
O8B O 0.9905(2) 0.6340(2) 0.0061(2)
O9B O 0.4287(2) 0.6338(2) 0.1468(2)
O10B O 0.4746(3) 0.4497(2) 0.39509(19)
C1B C 0.7606(3) 0.7452(3) 0.2162(3)
C2B C 0.8481(4) 0.7055(3) 0.2780(3)
H1B H 0.8166 0.6620 0.3163
H2B H 0.8831 0.7546 0.3121
H3B H 0.9010 0.6744 0.2455
H4B H 0.622(4) 0.797(4) 0.232(3)
H5B H 1.008(3) 0.615(3) 0.057(2)
H6B H 1.040(3) 0.674(3) -0.001(3)
H7B H 0.468(4) 0.628(4) 0.100(3)
H8B H 0.446(3) 0.686(2) 0.172(2)
H9B H 0.515(4) 0.406(3) 0.413(3)
H10B H 0.413(3) 0.426(4) 0.398(4)
O11 O 0.0205(3) 0.4985(2) 0.1263(2)
H11 H 0.092(3) 0.488(3) 0.121(3)
H12 H 0.001(3) 0.469(3) 0.170(2)
O12 O 0.6935(3) 0.5405(2) 0.4969(2)
H13 H 0.760(4) 0.518(4) 0.508(4)
H14 H 0.670(4) 0.519(4) 0.447(3)
O13 O 0.8490(3) 0.4587(2) 0.2236(2)
H15 H 0.783(3) 0.457(4) 0.201(3)
H16 H 0.857(5) 0.516(3) 0.238(4)
O14 O 0.8174(3) 0.3122(2) 0.0420(2)
H17 H 0.756(3) 0.342(3) 0.055(3)
H18 H 0.842(4) 0.278(3) 0.085(3)
loop_
_geom_bond_atom_site_label_1
_geom_bond_atom_site_label_2
_geom_bond_site_symmetry_1
_geom_bond_site_symmetry_2
Ru1 O1 1_555 1_555
Nd1 O3 1_555 1_555
P1 O1 1_555 1_555
P2 O4 1_555 1_555
O2 P1 1_555 1_555
O3 P1 1_555 1_555
O4 Ru1 1_555 1_555
O5 P2 1_555 1_555
O6 P2 1_555 1_555
O7 C1 1_555 1_555
O8 Ru1 1_555 1_555
O9 Nd1 1_555 1_555
O10 Nd1 1_555 1_555
O11 H11 1_555 1_555
O12 H13 1_555 1_555
O13 H15 1_555 1_555
O14 H17 1_555 1_555
C1 P1 1_555 1_555
C2 C1 1_555 1_555
H1 C2 1_555 1_555
H2 C2 1_555 1_555
H3 C2 1_555 1_555
H4 O7 1_555 1_555
H5 O8 1_555 1_555
H6 O8 1_555 1_555
H7 O9 1_555 1_555
H8 O9 1_555 1_555
H9 O10 1_555 1_555
H10 O10 1_555 1_555
H12 O11 1_555 1_555
H14 O12 1_555 1_555
H16 O13 1_555 1_555
H18 O14 1_555 1_555
Ru1B Ru1G 1_555 1_555
Ru1E Ru1 1_555 1_555
Ru1G O2B 1_555 1_555
Nd1A O6 1_555 1_555
Nd1A_2 O6B 1_555 1_555
P1B O1B 1_555 1_555
P2B O4B 1_555 1_555
O1B Ru1B 1_555 1_555
O2B P1B 1_555 1_555
O2E Ru1 1_555 1_555
O2G Ru1B 1_555 1_555
O3B Nd1 1_555 1_555
O4B Ru1B 1_555 1_555
O5B Ru1G 1_555 1_555
O5E Ru1 1_555 1_555
O5G Ru1B 1_555 1_555
O6B P2B 1_555 1_555
O6A Nd1 1_555 1_555
O6C Nd1 1_555 1_555
O7B C1B 1_555 1_555
O8B Ru1B 1_555 1_555
O9B Nd1 1_555 1_555
O10B Nd1 1_555 1_555
C1B P1B 1_555 1_555
C2B C1B 1_555 1_555
H1B C2B 1_555 1_555
H2B C2B 1_555 1_555
H3B C2B 1_555 1_555
H4B O7B 1_555 1_555
H5B O8B 1_555 1_555
H6B O8B 1_555 1_555
H7B O9B 1_555 1_555
H8B O9B 1_555 1_555
H9B O10B 1_555 1_555
H10B O10B 1_555 1_555
P2 C1 1_555 1_555
O2 Ru1E 1_555 1_555
O5 Ru1E 1_555 1_555
P1B O3B 1_555 1_555
P2B O5B 1_555 1_555
P2B C1B 1_555 1_555

#END
