
#######################################################################
#
#                 Cambridge Crystallographic Data Centre
#                                CCDC 
#
#######################################################################
#
# If this CIF has been generated from an entry in the Cambridge 
# Structural Database, then it will include bibliographic, chemical, 
# crystal, experimental, refinement or atomic coordinate data resulting 
# from the CCDC's data processing and validation procedures.
#
#######################################################################

data_GIQYUB
_chemical_formula_moiety         '(C4 H28 O24 P4 Ru2 Tb1)n'
_symmetry_cell_setting           monoclinic
_symmetry_space_group_name_H-M   'C 2/c'
_symmetry_Int_Tables_number      15
_space_group_name_Hall           '-C 2yc'
loop_
_symmetry_equiv_pos_site_id
_symmetry_equiv_pos_as_xyz
1 x,y,z
2 1/2+x,1/2+y,z
3 -x,y,1/2-z
4 1/2-x,1/2+y,1/2-z
5 -x,-y,-z
6 1/2-x,1/2-y,-z
7 x,-y,1/2+z
8 1/2+x,1/2-y,1/2+z
_cell_length_a                   12.458(3)
_cell_length_b                   14.583(4)
_cell_length_c                   15.524(4)
_cell_angle_alpha                90
_cell_angle_beta                 94.497(4)
_cell_angle_gamma                90
_cell_volume                     2811.64
loop_
_atom_site_label
_atom_site_type_symbol
_atom_site_fract_x
_atom_site_fract_y
_atom_site_fract_z
Ru1 Ru 0.16681(3) 0.71207(2) 0.49795(2)
Tb1 Tb 0.5000 0.511026(19) 0.2500
P1 P 0.30037(9) 0.65487(8) 0.35460(7)
P2 P 0.18577(10) 0.83713(8) 0.34635(7)
O1 O 0.2118(2) 0.6205(2) 0.41026(18)
O2 O 0.3908(3) 0.7017(2) 0.4140(2)
O3 O 0.3445(2) 0.5806(2) 0.30180(18)
O4 O 0.1016(3) 0.7929(2) 0.4011(2)
O5 O 0.2807(3) 0.8752(2) 0.4067(2)
O6 O 0.1359(2) 0.9090(2) 0.28742(18)
O7 O 0.3235(3) 0.7753(2) 0.23244(18)
H1 H 0.3738 0.7954 0.2673
O8 O 0.0081(2) 0.6328(2) 0.49372(18)
H2 H -0.0424 0.6691 0.5041
H3 H -0.0048 0.6095 0.4439
O9 O 0.5709(3) 0.6305(2) 0.3506(2)
H4 H 0.5387 0.6277 0.3967
H5 H 0.5603 0.6826 0.3273
O10 O 0.5278(2) 0.4502(2) 0.1089(2)
H6 H 0.4850 0.4057 0.0982
H7 H 0.5922 0.4320 0.1068
C1 C 0.2396(4) 0.7456(3) 0.2830(3)
C2 C 0.1521(4) 0.7051(3) 0.2205(3)
H16 H 0.1846 0.6629 0.1809
H17 H 0.1150 0.7545 0.1874
H18 H 0.1002 0.6716 0.2530
Ru1B Ru 0.83319(3) 0.71207(2) 0.00205(2)
Ru1E Ru 0.33319(3) 0.78793(2) 0.50205(2)
Ru1G Ru 0.66681(3) 0.78793(2) -0.00205(2)
Tb1A Tb -0.0000 1.011026(19) 0.2500
Tb1A_2 Tb 1.0000 1.011026(19) 0.2500
P1B P 0.69963(9) 0.65487(8) 0.14540(7)
P2B P 0.81423(10) 0.83713(8) 0.15365(7)
O1B O 0.7882(2) 0.6205(2) 0.08974(18)
O2B O 0.6092(3) 0.7017(2) 0.0860(2)
O2E O 0.1092(3) 0.7983(2) 0.5860(2)
O2G O 0.8908(3) 0.7983(2) -0.0860(2)
O3B O 0.6555(2) 0.5806(2) 0.19820(18)
O4B O 0.8984(3) 0.7929(2) 0.0989(2)
O5B O 0.7193(3) 0.8752(2) 0.0933(2)
O5E O 0.2193(3) 0.6248(2) 0.5933(2)
O5G O 0.7807(3) 0.6248(2) -0.0933(2)
O6B O 0.8641(2) 0.9090(2) 0.21258(18)
O6A O 0.6359(2) 0.4090(2) 0.28742(18)
O6C O 0.3641(2) 0.4090(2) 0.21258(18)
O7B O 0.6765(3) 0.7753(2) 0.26756(18)
H1B H 0.6262 0.7954 0.2327
O8B O 0.9919(2) 0.6328(2) 0.00628(18)
H2B H 1.0424 0.6691 -0.0041
H3B H 1.0048 0.6095 0.0561
O9B O 0.4291(3) 0.6305(2) 0.1494(2)
H4B H 0.4613 0.6277 0.1033
H5B H 0.4397 0.6826 0.1727
O10B O 0.4722(2) 0.4502(2) 0.3911(2)
H6B H 0.5150 0.4057 0.4018
H7B H 0.4078 0.4320 0.3932
C1B C 0.7604(4) 0.7456(3) 0.2170(3)
C2B C 0.8479(4) 0.7051(3) 0.2795(3)
H16B H 0.8154 0.6629 0.3191
H17B H 0.8850 0.7545 0.3126
H18B H 0.8998 0.6716 0.2470
O11 O 0.0210(3) 0.4982(2) 0.1247(2)
H8 H 0.0884 0.4919 0.1222
H9 H 0.0003 0.4653 0.1654
O12 O 0.6941(3) 0.5405(2) 0.4988(2)
H10 H 0.6717 0.5287 0.4469
H11 H 0.7591 0.5232 0.5078
O13 O 0.8481(3) 0.4595(2) 0.22117(18)
H12 H 0.7840 0.4581 0.1980
H13 H 0.8645 0.5142 0.2355
O14 O 0.8184(3) 0.3077(2) 0.04274(18)
H14 H 0.7614 0.3349 0.0551
H15 H 0.8422 0.2751 0.0853
loop_
_geom_bond_atom_site_label_1
_geom_bond_atom_site_label_2
_geom_bond_site_symmetry_1
_geom_bond_site_symmetry_2
Ru1 O1 1_555 1_555
Tb1 O3 1_555 1_555
P1 O1 1_555 1_555
P2 O4 1_555 1_555
O2 P1 1_555 1_555
O3 P1 1_555 1_555
O4 Ru1 1_555 1_555
O5 P2 1_555 1_555
O6 P2 1_555 1_555
O7 H1 1_555 1_555
O8 Ru1 1_555 1_555
H2 O8 1_555 1_555
H3 O8 1_555 1_555
O9 Tb1 1_555 1_555
H4 O9 1_555 1_555
H5 O9 1_555 1_555
O10 Tb1 1_555 1_555
H6 O10 1_555 1_555
H7 O10 1_555 1_555
O11 H8 1_555 1_555
H9 O11 1_555 1_555
O12 H10 1_555 1_555
H11 O12 1_555 1_555
O13 H12 1_555 1_555
H13 O13 1_555 1_555
O14 H14 1_555 1_555
H15 O14 1_555 1_555
C1 P1 1_555 1_555
C2 C1 1_555 1_555
H16 C2 1_555 1_555
H17 C2 1_555 1_555
H18 C2 1_555 1_555
Ru1B Ru1G 1_555 1_555
Ru1E Ru1 1_555 1_555
Ru1G O2B 1_555 1_555
Tb1A O6 1_555 1_555
Tb1A_2 O6B 1_555 1_555
P1B O1B 1_555 1_555
P2B O4B 1_555 1_555
O1B Ru1B 1_555 1_555
O2B P1B 1_555 1_555
O2E Ru1 1_555 1_555
O2G Ru1B 1_555 1_555
O3B Tb1 1_555 1_555
O4B Ru1B 1_555 1_555
O5B Ru1G 1_555 1_555
O5E Ru1 1_555 1_555
O5G Ru1B 1_555 1_555
O6B P2B 1_555 1_555
O6A Tb1 1_555 1_555
O6C Tb1 1_555 1_555
O7B H1B 1_555 1_555
O8B Ru1B 1_555 1_555
H2B O8B 1_555 1_555
H3B O8B 1_555 1_555
O9B Tb1 1_555 1_555
H4B O9B 1_555 1_555
H5B O9B 1_555 1_555
O10B Tb1 1_555 1_555
H6B O10B 1_555 1_555
H7B O10B 1_555 1_555
C1B P1B 1_555 1_555
C2B C1B 1_555 1_555
H16B C2B 1_555 1_555
H17B C2B 1_555 1_555
H18B C2B 1_555 1_555
P2 C1 1_555 1_555
O2 Ru1E 1_555 1_555
O5 Ru1E 1_555 1_555
O7 C1 1_555 1_555
P1B O3B 1_555 1_555
P2B O5B 1_555 1_555
P2B C1B 1_555 1_555
O7B C1B 1_555 1_555

#END
