
#######################################################################
#
#                 Cambridge Crystallographic Data Centre
#                                CCDC 
#
#######################################################################
#
# If this CIF has been generated from an entry in the Cambridge 
# Structural Database, then it will include bibliographic, chemical, 
# crystal, experimental, refinement or atomic coordinate data resulting 
# from the CCDC's data processing and validation procedures.
#
#######################################################################

data_GIQYOV
_chemical_formula_moiety         '(C4 H28 O24 P4 Pr1 Ru2)n'
_symmetry_cell_setting           monoclinic
_symmetry_space_group_name_H-M   'C 2/c'
_symmetry_Int_Tables_number      15
_space_group_name_Hall           '-C 2yc'
loop_
_symmetry_equiv_pos_site_id
_symmetry_equiv_pos_as_xyz
1 x,y,z
2 1/2+x,1/2+y,z
3 -x,y,1/2-z
4 1/2-x,1/2+y,1/2-z
5 -x,-y,-z
6 1/2-x,1/2-y,-z
7 x,-y,1/2+z
8 1/2+x,1/2-y,1/2+z
_cell_length_a                   13.15(6)
_cell_length_b                   14.91(7)
_cell_length_c                   15.69(7)
_cell_angle_alpha                90
_cell_angle_beta                 93.73(5)
_cell_angle_gamma                90
_cell_volume                     3069.77
loop_
_atom_site_label
_atom_site_type_symbol
_atom_site_fract_x
_atom_site_fract_y
_atom_site_fract_z
Ru1 Ru 0.16816(5) 0.71285(4) 0.49662(4)
Pr1 Pr 0.5000 0.51058(4) 0.2500
P1 P 0.29841(16) 0.65524(14) 0.35839(13)
P2 P 0.18643(15) 0.83617(14) 0.34833(12)
O1 O 0.2120(4) 0.6192(4) 0.4088(3)
O2 O 0.3946(4) 0.7003(4) 0.4196(3)
O3 O 0.3431(4) 0.5801(4) 0.3013(3)
O4 O 0.1051(4) 0.7933(4) 0.4041(3)
O5 O 0.2860(4) 0.8707(3) 0.4029(3)
O6 O 0.1532(4) 0.9094(3) 0.2778(3)
O7 O 0.3108(4) 0.7711(4) 0.2444(3)
H1 H 0.3612 0.7913 0.2793
O8 O 0.0136(4) 0.6359(4) 0.4888(3)
H2 H -0.0370 0.6723 0.4992
H3 H 0.0006 0.6127 0.4389
O9 O 0.5587(4) 0.6360(4) 0.3566(3)
H4 H 0.5265 0.6332 0.4027
H5 H 0.5480 0.6882 0.3334
O10 O 0.5182(4) 0.4501(4) 0.1234(3)
H6 H 0.4754 0.4056 0.1127
H7 H 0.5826 0.4319 0.1213
C1 C 0.2400(6) 0.7413(5) 0.2827(5)
C2 C 0.1501(6) 0.7034(6) 0.2302(5)
H16 H 0.1609 0.7105 0.1694
H17 H 0.0881 0.7353 0.2438
H18 H 0.1429 0.6395 0.2434
Ru1B Ru 0.83184(5) 0.71285(4) 0.00338(4)
Ru1E Ru 0.33184(5) 0.78715(4) 0.50338(4)
Ru1G Ru 0.66816(5) 0.78715(4) -0.00338(4)
Pr1A Pr 0.0000 1.01058(4) 0.2500
Pr1A_2 Pr 1.0000 1.01058(4) 0.2500
P1B P 0.70159(16) 0.65524(14) 0.14161(13)
P2B P 0.81357(15) 0.83617(14) 0.15167(12)
O1B O 0.7880(4) 0.6192(4) 0.0912(3)
O2B O 0.6054(4) 0.7003(4) 0.0804(3)
O2E O 0.1054(4) 0.7997(4) 0.5804(3)
O2G O 0.8946(4) 0.7997(4) -0.0804(3)
O3B O 0.6569(4) 0.5801(4) 0.1987(3)
O4B O 0.8949(4) 0.7933(4) 0.0959(3)
O5B O 0.7140(4) 0.8707(3) 0.0971(3)
O5E O 0.2140(4) 0.6293(3) 0.5971(3)
O5G O 0.7860(4) 0.6293(3) -0.0971(3)
O6B O 0.8468(4) 0.9094(3) 0.2222(3)
O6A O 0.6532(4) 0.4094(3) 0.2778(3)
O6C O 0.3468(4) 0.4094(3) 0.2222(3)
O7B O 0.6892(4) 0.7711(4) 0.2556(3)
H1B H 0.6388 0.7913 0.2207
O8B O 0.9864(4) 0.6359(4) 0.0112(3)
H2B H 1.0370 0.6723 0.0008
H3B H 0.9994 0.6127 0.0611
O9B O 0.4413(4) 0.6360(4) 0.1434(3)
H4B H 0.4735 0.6332 0.0973
H5B H 0.4520 0.6882 0.1666
O10B O 0.4818(4) 0.4501(4) 0.3766(3)
H6B H 0.5246 0.4056 0.3873
H7B H 0.4174 0.4319 0.3787
C1B C 0.7600(6) 0.7413(5) 0.2173(5)
C2B C 0.8499(6) 0.7034(6) 0.2698(5)
H16B H 0.8391 0.7105 0.3306
H17B H 0.9119 0.7353 0.2562
H18B H 0.8571 0.6395 0.2566
O11 O 0.0312(4) 0.4964(4) 0.1110(3)
H8 H 0.0986 0.4901 0.1085
H9 H 0.0104 0.4636 0.1516
O12 O 0.6855(4) 0.5421(4) 0.5053(3)
H10 H 0.6632 0.5303 0.4534
H11 H 0.7505 0.5248 0.5143
O13 O 0.8653(4) 0.4690(3) 0.2067(3)
H12 H 0.8704 0.4354 0.2505
H13 H 0.8013 0.4675 0.1835
O14 O 0.8138(4) 0.3063(4) 0.0504(3)
H14 H 0.7567 0.3335 0.0628
H15 H 0.8375 0.2736 0.0930
loop_
_geom_bond_atom_site_label_1
_geom_bond_atom_site_label_2
_geom_bond_site_symmetry_1
_geom_bond_site_symmetry_2
Ru1 O1 1_555 1_555
Pr1 O3 1_555 1_555
P1 O1 1_555 1_555
P2 O4 1_555 1_555
O2 P1 1_555 1_555
O3 P1 1_555 1_555
O4 Ru1 1_555 1_555
O5 P2 1_555 1_555
O6 P2 1_555 1_555
O7 H1 1_555 1_555
O8 Ru1 1_555 1_555
H2 O8 1_555 1_555
H3 O8 1_555 1_555
O9 Pr1 1_555 1_555
H4 O9 1_555 1_555
H5 O9 1_555 1_555
O10 Pr1 1_555 1_555
H6 O10 1_555 1_555
H7 O10 1_555 1_555
O11 H8 1_555 1_555
H9 O11 1_555 1_555
O12 H10 1_555 1_555
H11 O12 1_555 1_555
O13 H12 1_555 1_555
H13 O13 1_555 1_555
O14 H14 1_555 1_555
H15 O14 1_555 1_555
C1 P1 1_555 1_555
C2 C1 1_555 1_555
H16 C2 1_555 1_555
H17 C2 1_555 1_555
H18 C2 1_555 1_555
Ru1B Ru1G 1_555 1_555
Ru1E Ru1 1_555 1_555
Ru1G O2B 1_555 1_555
Pr1A O6 1_555 1_555
Pr1A_2 O6B 1_555 1_555
P1B O1B 1_555 1_555
P2B O4B 1_555 1_555
O1B Ru1B 1_555 1_555
O2B P1B 1_555 1_555
O2E Ru1 1_555 1_555
O2G Ru1B 1_555 1_555
O3B Pr1 1_555 1_555
O4B Ru1B 1_555 1_555
O5B Ru1G 1_555 1_555
O5E Ru1 1_555 1_555
O5G Ru1B 1_555 1_555
O6B P2B 1_555 1_555
O6A Pr1 1_555 1_555
O6C Pr1 1_555 1_555
O7B H1B 1_555 1_555
O8B Ru1B 1_555 1_555
H2B O8B 1_555 1_555
H3B O8B 1_555 1_555
O9B Pr1 1_555 1_555
H4B O9B 1_555 1_555
H5B O9B 1_555 1_555
O10B Pr1 1_555 1_555
H6B O10B 1_555 1_555
H7B O10B 1_555 1_555
C1B P1B 1_555 1_555
C2B C1B 1_555 1_555
H16B C2B 1_555 1_555
H17B C2B 1_555 1_555
H18B C2B 1_555 1_555
P2 C1 1_555 1_555
O2 Ru1E 1_555 1_555
O5 Ru1E 1_555 1_555
O7 C1 1_555 1_555
P1B O3B 1_555 1_555
P2B O5B 1_555 1_555
P2B C1B 1_555 1_555
O7B C1B 1_555 1_555

#END
