
#######################################################################
#
#                 Cambridge Crystallographic Data Centre
#                                CCDC 
#
#######################################################################
#
# If this CIF has been generated from an entry in the Cambridge 
# Structural Database, then it will include bibliographic, chemical, 
# crystal, experimental, refinement or atomic coordinate data resulting 
# from the CCDC's data processing and validation procedures.
#
#######################################################################

data_GIQYAH
_chemical_formula_moiety         '(C4 H28 Ho1 O24 P4 Ru2)n'
_symmetry_cell_setting           monoclinic
_symmetry_space_group_name_H-M   'C 2/c'
_symmetry_Int_Tables_number      15
_space_group_name_Hall           '-C 2yc'
loop_
_symmetry_equiv_pos_site_id
_symmetry_equiv_pos_as_xyz
1 x,y,z
2 1/2+x,1/2+y,z
3 -x,y,1/2-z
4 1/2-x,1/2+y,1/2-z
5 -x,-y,-z
6 1/2-x,1/2-y,-z
7 x,-y,1/2+z
8 1/2+x,1/2-y,1/2+z
_cell_length_a                   12.495(18)
_cell_length_b                   14.45(2)
_cell_length_c                   15.39(2)
_cell_angle_alpha                90
_cell_angle_beta                 94.146(13)
_cell_angle_gamma                90
_cell_volume                     2771.44
loop_
_atom_site_label
_atom_site_type_symbol
_atom_site_fract_x
_atom_site_fract_y
_atom_site_fract_z
Ru1 Ru 0.16662(5) 0.71192(4) 0.49806(4)
Ho1 Ho 0.5000 0.50995(3) 0.2500
P1 P 0.30137(15) 0.65455(13) 0.35488(13)
P2 P 0.18513(16) 0.83801(14) 0.34546(13)
O1 O 0.2152(4) 0.6200(3) 0.4132(3)
O2 O 0.3911(4) 0.6992(3) 0.4138(3)
O3 O 0.3476(4) 0.5809(3) 0.3021(3)
O4 O 0.1009(4) 0.7936(3) 0.4019(3)
O5 O 0.2802(4) 0.8757(3) 0.4064(3)
O6 O 0.1381(4) 0.9096(3) 0.2859(3)
O7 O 0.3217(4) 0.7767(3) 0.2295(4)
H1 H 0.3721 0.7968 0.2644
O8 O 0.0106(4) 0.6334(3) 0.4961(3)
H2 H -0.0400 0.6697 0.5065
H3 H -0.0023 0.6102 0.4462
O9 O 0.5687(4) 0.6282(3) 0.3482(3)
H4 H 0.5365 0.6254 0.3943
H5 H 0.5581 0.6804 0.3250
O10 O 0.5325(4) 0.4482(4) 0.1110(3)
H6 H 0.4897 0.4036 0.1003
H7 H 0.5970 0.4299 0.1089
C1 C 0.2381(5) 0.7412(5) 0.2837(5)
C2 C 0.1513(7) 0.7022(5) 0.2210(5)
H16 H 0.1813 0.6527 0.1866
H17 H 0.1230 0.7513 0.1819
H18 H 0.0934 0.6772 0.2536
Ru1B Ru 0.83338(5) 0.71192(4) 0.00194(4)
Ru1E Ru 0.33338(5) 0.78808(4) 0.50194(4)
Ru1G Ru 0.66662(5) 0.78808(4) -0.00194(4)
Ho1A Ho -0.0000 1.00995(3) 0.2500
Ho1A_2 Ho 1.0000 1.00995(3) 0.2500
P1B P 0.69863(15) 0.65455(13) 0.14512(13)
P2B P 0.81487(16) 0.83801(14) 0.15454(13)
O1B O 0.7848(4) 0.6200(3) 0.0868(3)
O2B O 0.6089(4) 0.6992(3) 0.0862(3)
O2E O 0.1089(4) 0.8008(3) 0.5862(3)
O2G O 0.8911(4) 0.8008(3) -0.0862(3)
O3B O 0.6524(4) 0.5809(3) 0.1979(3)
O4B O 0.8991(4) 0.7936(3) 0.0981(3)
O5B O 0.7198(4) 0.8757(3) 0.0936(3)
O5E O 0.2198(4) 0.6243(3) 0.5936(3)
O5G O 0.7802(4) 0.6243(3) -0.0936(3)
O6B O 0.8619(4) 0.9096(3) 0.2141(3)
O6A O 0.6381(4) 0.4096(3) 0.2859(3)
O6C O 0.3619(4) 0.4096(3) 0.2141(3)
O7B O 0.6783(4) 0.7767(3) 0.2705(4)
H1B H 0.6279 0.7968 0.2356
O8B O 0.9894(4) 0.6334(3) 0.0039(3)
H2B H 1.0400 0.6697 -0.0065
H3B H 1.0023 0.6102 0.0538
O9B O 0.4313(4) 0.6282(3) 0.1518(3)
H4B H 0.4635 0.6254 0.1057
H5B H 0.4419 0.6804 0.1750
O10B O 0.4675(4) 0.4482(4) 0.3890(3)
H6B H 0.5103 0.4036 0.3997
H7B H 0.4030 0.4299 0.3911
C1B C 0.7619(5) 0.7412(5) 0.2163(5)
C2B C 0.8487(7) 0.7022(5) 0.2790(5)
H16B H 0.8187 0.6527 0.3134
H17B H 0.8770 0.7513 0.3181
H18B H 0.9066 0.6772 0.2464
O11 O 0.0187(4) 0.4996(3) 0.1244(3)
H8 H 0.0862 0.4934 0.1219
H9 H -0.0020 0.4668 0.1651
O12 O 0.6956(4) 0.5420(3) 0.4994(4)
H10 H 0.6732 0.5302 0.4475
H11 H 0.7605 0.5247 0.5084
O13 O 0.8423(4) 0.4590(3) 0.2187(3)
H12 H 0.7782 0.4576 0.1955
H13 H 0.8587 0.5137 0.2330
O14 O 0.8093(4) 0.3072(3) 0.0424(3)
H14 H 0.7523 0.3345 0.0547
H15 H 0.8330 0.2746 0.0849
loop_
_geom_bond_atom_site_label_1
_geom_bond_atom_site_label_2
_geom_bond_site_symmetry_1
_geom_bond_site_symmetry_2
Ru1 O1 1_555 1_555
Ho1 O3 1_555 1_555
P1 O1 1_555 1_555
P2 O4 1_555 1_555
O2 P1 1_555 1_555
O3 P1 1_555 1_555
O4 Ru1 1_555 1_555
O5 P2 1_555 1_555
O6 P2 1_555 1_555
O7 H1 1_555 1_555
O8 Ru1 1_555 1_555
H2 O8 1_555 1_555
H3 O8 1_555 1_555
O9 Ho1 1_555 1_555
H4 O9 1_555 1_555
H5 O9 1_555 1_555
O10 Ho1 1_555 1_555
H6 O10 1_555 1_555
H7 O10 1_555 1_555
O11 H8 1_555 1_555
H9 O11 1_555 1_555
O12 H10 1_555 1_555
H11 O12 1_555 1_555
O13 H12 1_555 1_555
H13 O13 1_555 1_555
O14 H14 1_555 1_555
H15 O14 1_555 1_555
C1 P1 1_555 1_555
C2 C1 1_555 1_555
H16 C2 1_555 1_555
H17 C2 1_555 1_555
H18 C2 1_555 1_555
Ru1B Ru1G 1_555 1_555
Ru1E Ru1 1_555 1_555
Ru1G O2B 1_555 1_555
Ho1A O6 1_555 1_555
Ho1A_2 O6B 1_555 1_555
P1B O1B 1_555 1_555
P2B O4B 1_555 1_555
O1B Ru1B 1_555 1_555
O2B P1B 1_555 1_555
O2E Ru1 1_555 1_555
O2G Ru1B 1_555 1_555
O3B Ho1 1_555 1_555
O4B Ru1B 1_555 1_555
O5B Ru1G 1_555 1_555
O5E Ru1 1_555 1_555
O5G Ru1B 1_555 1_555
O6B P2B 1_555 1_555
O6A Ho1 1_555 1_555
O6C Ho1 1_555 1_555
O7B H1B 1_555 1_555
O8B Ru1B 1_555 1_555
H2B O8B 1_555 1_555
H3B O8B 1_555 1_555
O9B Ho1 1_555 1_555
H4B O9B 1_555 1_555
H5B O9B 1_555 1_555
O10B Ho1 1_555 1_555
H6B O10B 1_555 1_555
H7B O10B 1_555 1_555
C1B P1B 1_555 1_555
C2B C1B 1_555 1_555
H16B C2B 1_555 1_555
H17B C2B 1_555 1_555
H18B C2B 1_555 1_555
P2 C1 1_555 1_555
O2 Ru1E 1_555 1_555
O5 Ru1E 1_555 1_555
O7 C1 1_555 1_555
P1B O3B 1_555 1_555
P2B O5B 1_555 1_555
P2B C1B 1_555 1_555
O7B C1B 1_555 1_555

#END
