
#######################################################################
#
#                 Cambridge Crystallographic Data Centre
#                                CCDC 
#
#######################################################################
#
# If this CIF has been generated from an entry in the Cambridge 
# Structural Database, then it will include bibliographic, chemical, 
# crystal, experimental, refinement or atomic coordinate data resulting 
# from the CCDC's data processing and validation procedures.
#
#######################################################################

data_GIQYEL
_chemical_formula_moiety         '(C4 H28 La1 O24 P4 Ru2)n'
_symmetry_cell_setting           monoclinic
_symmetry_space_group_name_H-M   'C 2/c'
_symmetry_Int_Tables_number      15
_space_group_name_Hall           '-C 2yc'
loop_
_symmetry_equiv_pos_site_id
_symmetry_equiv_pos_as_xyz
1 x,y,z
2 1/2+x,1/2+y,z
3 -x,y,1/2-z
4 1/2-x,1/2+y,1/2-z
5 -x,-y,-z
6 1/2-x,1/2-y,-z
7 x,-y,1/2+z
8 1/2+x,1/2-y,1/2+z
_cell_length_a                   12.6142(13)
_cell_length_b                   14.7918(16)
_cell_length_c                   15.7262(13)
_cell_angle_alpha                90
_cell_angle_beta                 94.227(3)
_cell_angle_gamma                90
_cell_volume                     2926.32
loop_
_atom_site_label
_atom_site_type_symbol
_atom_site_fract_x
_atom_site_fract_y
_atom_site_fract_z
Ru1 Ru 0.166910(15) 0.713370(13) 0.497910(12)
La1 La 0.5000 0.511706(13) 0.2500
P1 P 0.29854(5) 0.65568(4) 0.35641(4)
P2 P 0.18912(5) 0.83722(4) 0.34869(4)
O1 O 0.20993(14) 0.62180(12) 0.41103(11)
O2 O 0.38842(14) 0.70003(12) 0.41488(11)
O3 O 0.34009(14) 0.58157(12) 0.30270(11)
O4 O 0.10477(14) 0.79462(12) 0.40296(11)
O5 O 0.28219(14) 0.87383(12) 0.40789(11)
O6 O 0.14209(14) 0.90837(13) 0.28944(11)
O7 O 0.32591(17) 0.77600(15) 0.23654(14)
O8 O 0.00957(16) 0.63430(15) 0.49275(14)
O9 O 0.57177(16) 0.63759(14) 0.35496(14)
O10 O 0.52861(18) 0.44603(16) 0.10271(13)
C1 C 0.2404(2) 0.74459(17) 0.28565(16)
C2 C 0.1515(2) 0.70577(19) 0.22514(18)
H1 H 0.1808 0.6596 0.1889
H2 H 0.1196 0.7543 0.1894
H3 H 0.0970 0.6785 0.2584
H4 H 0.334(3) 0.845(3) 0.237(3)
H5 H 0.002(3) 0.597(3) 0.449(3)
H6 H 0.524(3) 0.667(3) 0.385(3)
H7 H 0.500(3) 0.392(3) 0.088(3)
H11 H -0.053(4) 0.657(3) 0.502(3)
H12 H 0.605(3) 0.683(3) 0.329(3)
H13 H 0.578(4) 0.452(3) 0.068(3)
Ru1B Ru 0.833090(15) 0.713370(13) 0.002090(12)
Ru1E Ru 0.333090(15) 0.786630(13) 0.502090(12)
Ru1G Ru 0.666910(15) 0.786630(13) -0.002090(12)
La1A La 0.0000 1.011706(13) 0.2500
La1A_2 La 1.0000 1.011706(13) 0.2500
P1B P 0.70146(5) 0.65568(4) 0.14359(4)
P2B P 0.81088(5) 0.83722(4) 0.15131(4)
O1B O 0.79007(14) 0.62180(12) 0.08897(11)
O2B O 0.61158(14) 0.70003(12) 0.08512(11)
O2E O 0.11158(14) 0.79997(12) 0.58512(11)
O2G O 0.88842(14) 0.79997(12) -0.08512(11)
O3B O 0.65991(14) 0.58157(12) 0.19730(11)
O4B O 0.89523(14) 0.79462(12) 0.09704(11)
O5B O 0.71781(14) 0.87383(12) 0.09211(11)
O5E O 0.21781(14) 0.62617(12) 0.59211(11)
O5G O 0.78219(14) 0.62617(12) -0.09211(11)
O6B O 0.85791(14) 0.90837(13) 0.21056(11)
O6A O 0.64209(14) 0.40837(13) 0.28944(11)
O6C O 0.35791(14) 0.40837(13) 0.21056(11)
O7B O 0.67409(17) 0.77600(15) 0.26346(14)
O8B O 0.99043(16) 0.63430(15) 0.00725(14)
O9B O 0.42823(16) 0.63759(14) 0.14504(14)
O10B O 0.47139(18) 0.44603(16) 0.39729(13)
C1B C 0.7596(2) 0.74459(17) 0.21435(16)
C2B C 0.8485(2) 0.70577(19) 0.27486(18)
H1B H 0.8192 0.6596 0.3111
H2B H 0.8804 0.7543 0.3106
H3B H 0.9030 0.6785 0.2416
H4B H 0.666(3) 0.845(3) 0.263(3)
H5B H 0.998(3) 0.597(3) 0.051(3)
H6B H 0.476(3) 0.667(3) 0.115(3)
H7B H 0.500(3) 0.392(3) 0.412(3)
H11B H 1.053(4) 0.657(3) -0.002(3)
H12B H 0.395(3) 0.683(3) 0.171(3)
H13B H 0.422(4) 0.452(3) 0.432(3)
O11 O 0.02227(19) 0.49837(16) 0.12578(16)
H8 H 0.074(4) 0.487(3) 0.167(3)
H14 H 0.034(3) 0.452(3) 0.092(3)
O12 O 0.69477(18) 0.54000(17) 0.49489(16)
H9 H 0.719(4) 0.489(3) 0.484(3)
H15 H 0.665(3) 0.557(3) 0.437(3)
O13 O 0.84964(19) 0.46032(16) 0.22393(15)
H10 H 0.887(4) 0.479(3) 0.188(3)
H16 H 0.783(4) 0.484(3) 0.212(3)
O14 O 0.8164(2) 0.3127(2) 0.0432(2)
H17 H 0.780(3) 0.366(3) 0.033(3)
H18 H 0.840(3) 0.306(3) 0.101(3)
loop_
_geom_bond_atom_site_label_1
_geom_bond_atom_site_label_2
_geom_bond_site_symmetry_1
_geom_bond_site_symmetry_2
Ru1 O1 1_555 1_555
La1 O3 1_555 1_555
P1 O1 1_555 1_555
P2 O4 1_555 1_555
O2 P1 1_555 1_555
O3 P1 1_555 1_555
O4 Ru1 1_555 1_555
O5 P2 1_555 1_555
O6 P2 1_555 1_555
O7 C1 1_555 1_555
O8 Ru1 1_555 1_555
O9 La1 1_555 1_555
O10 La1 1_555 1_555
O11 H8 1_555 1_555
O12 H9 1_555 1_555
O13 H10 1_555 1_555
O14 H17 1_555 1_555
C1 P1 1_555 1_555
C2 C1 1_555 1_555
H1 C2 1_555 1_555
H2 C2 1_555 1_555
H3 C2 1_555 1_555
H4 O7 1_555 1_555
H5 O8 1_555 1_555
H6 O9 1_555 1_555
H7 O10 1_555 1_555
H11 O8 1_555 1_555
H12 O9 1_555 1_555
H13 O10 1_555 1_555
H14 O11 1_555 1_555
H15 O12 1_555 1_555
H16 O13 1_555 1_555
H18 O14 1_555 1_555
Ru1B Ru1G 1_555 1_555
Ru1E Ru1 1_555 1_555
Ru1G O2B 1_555 1_555
La1A O6 1_555 1_555
La1A_2 O6B 1_555 1_555
P1B O1B 1_555 1_555
P2B O4B 1_555 1_555
O1B Ru1B 1_555 1_555
O2B P1B 1_555 1_555
O2E Ru1 1_555 1_555
O2G Ru1B 1_555 1_555
O3B La1 1_555 1_555
O4B Ru1B 1_555 1_555
O5B Ru1G 1_555 1_555
O5E Ru1 1_555 1_555
O5G Ru1B 1_555 1_555
O6B P2B 1_555 1_555
O6A La1 1_555 1_555
O6C La1 1_555 1_555
O7B C1B 1_555 1_555
O8B Ru1B 1_555 1_555
O9B La1 1_555 1_555
O10B La1 1_555 1_555
C1B P1B 1_555 1_555
C2B C1B 1_555 1_555
H1B C2B 1_555 1_555
H2B C2B 1_555 1_555
H3B C2B 1_555 1_555
H4B O7B 1_555 1_555
H5B O8B 1_555 1_555
H6B O9B 1_555 1_555
H7B O10B 1_555 1_555
H11B O8B 1_555 1_555
H12B O9B 1_555 1_555
H13B O10B 1_555 1_555
P2 C1 1_555 1_555
O2 Ru1E 1_555 1_555
O5 Ru1E 1_555 1_555
P1B O3B 1_555 1_555
P2B O5B 1_555 1_555
P2B C1B 1_555 1_555

#END
