
#######################################################################
#
#                 Cambridge Crystallographic Data Centre
#                                CCDC 
#
#######################################################################
#
# If this CIF has been generated from an entry in the Cambridge 
# Structural Database, then it will include bibliographic, chemical, 
# crystal, experimental, refinement or atomic coordinate data resulting 
# from the CCDC's data processing and validation procedures.
#
#######################################################################

data_DEKHUX
_chemical_formula_moiety         '(C50 H36 Mn2 N6 O8)n'
_symmetry_cell_setting           triclinic
_symmetry_space_group_name_H-M   'P -1'
_symmetry_Int_Tables_number      2
_space_group_name_Hall           '-P 1'
loop_
_symmetry_equiv_pos_site_id
_symmetry_equiv_pos_as_xyz
1 x,y,z
2 -x,-y,-z
_cell_length_a                   10.224(2)
_cell_length_b                   11.723(2)
_cell_length_c                   12.227(2)
_cell_angle_alpha                65.980(3)
_cell_angle_beta                 71.305(3)
_cell_angle_gamma                84.622(4)
_cell_volume                     1266.8
loop_
_atom_site_label
_atom_site_type_symbol
_atom_site_fract_x
_atom_site_fract_y
_atom_site_fract_z
Mn1 Mn 0.0000 0.5000 0.5000
Mn2 Mn 0.5000 0.5000 0.5000
O1 O 0.1488(3) 0.3846(2) 0.5855(2)
O2 O 0.3718(3) 0.3408(2) 0.5430(2)
O3 O 0.1327(3) -0.3392(2) 0.4384(2)
O4 O 0.3580(3) -0.3750(2) 0.4080(2)
N1 N -0.0998(3) 0.5226(3) 0.6850(3)
N2 N -0.3844(3) 0.4949(3) 1.3069(3)
C1 C 0.2493(4) 0.3209(3) 0.5555(3)
C2 C 0.2167(5) 0.2067(4) 0.5399(4)
H1 H 0.1248 0.1816 0.5627
C3 C 0.3148(5) 0.1413(4) 0.4949(4)
H2 H 0.4057 0.1697 0.4710
C4 C 0.2930(5) 0.0275(4) 0.4792(4)
C5 C 0.1671(5) -0.0352(4) 0.5261(5)
H3 H 0.0892 -0.0059 0.5701
C6 C 0.1574(5) -0.1446(4) 0.5069(4)
H4 H 0.0707 -0.1834 0.5346
C7 C 0.2701(4) -0.1963(4) 0.4492(4)
C8 C 0.3913(5) -0.1317(4) 0.4034(4)
H5 H 0.4702 -0.1615 0.3613
C9 C 0.4011(5) -0.0194(4) 0.4181(5)
H6 H 0.4865 0.0234 0.3837
C10 C 0.2540(4) -0.3139(4) 0.4309(3)
C11 C -0.0250(4) 0.5613(4) 0.7361(4)
H7 H 0.0659 0.5897 0.6891
C12 C -0.0769(4) 0.5611(4) 0.8571(4)
H8 H -0.0223 0.5917 0.8880
C13 C -0.2100(4) 0.5150(4) 0.9299(4)
C14 C -0.2874(4) 0.4774(4) 0.8759(4)
H9 H -0.3783 0.4475 0.9210
C15 C -0.2292(4) 0.4842(4) 0.7532(4)
H10 H -0.2842 0.4606 0.7177
C16 C -0.2683(4) 0.5068(4) 1.0612(4)
C17 C -0.3683(5) 0.4173(4) 1.1503(4)
H11 H -0.3982 0.3583 1.1298
C18 C -0.4241(5) 0.4145(4) 1.2693(4)
H12 H -0.4931 0.3540 1.3270
C19 C -0.2858(4) 0.5806(4) 1.2194(4)
H13 H -0.2566 0.6382 1.2420
C20 C -0.2257(4) 0.5892(4) 1.0995(4)
H14 H -0.1564 0.6500 1.0436
Mn1_2 Mn 0.0000 -0.5000 0.5000
Mn1_3 Mn 0.0000 1.5000 0.5000
Mn2_2 Mn 0.5000 -0.5000 0.5000
Mn2_3 Mn -0.5000 0.5000 1.5000
Mn2_4 Mn -0.5000 0.5000 0.5000
Mn2_5 Mn -0.5000 1.5000 0.5000
Mn2_6 Mn 0.5000 0.5000 -0.5000
O1A O -0.1488(3) 0.6154(2) 0.4145(2)
O2A O -0.3718(3) 0.6592(2) 0.4570(2)
O2A_2 O 0.6282(3) 0.6592(2) 0.4570(2)
O3A O -0.1327(3) 1.3392(2) 0.5616(2)
O3_2 O 0.1327(3) 0.6608(2) 0.4384(2)
O3A_2 O -0.1327(3) 0.3392(2) 0.5616(2)
O4A O -0.3580(3) 1.3750(2) 0.5920(2)
O4_2 O 0.3580(3) 0.6250(2) 0.4080(2)
O4A_2 O 0.6420(3) 0.3750(2) 0.5920(2)
N1A N 0.0998(3) 0.4774(3) 0.3150(3)
N2A N 0.3844(3) 0.5051(3) -0.3069(3)
N2_2 N 0.6156(3) 0.4949(3) 0.3069(3)
N2A_2 N 0.3844(3) 0.5051(3) 0.6931(3)
C1A C -0.2493(4) 0.6791(3) 0.4445(3)
C2A C -0.2167(5) 0.7933(4) 0.4601(4)
H1A H -0.1248 0.8184 0.4373
C3A C -0.3148(5) 0.8587(4) 0.5051(4)
H2A H -0.4057 0.8303 0.5290
C4A C -0.2930(5) 0.9725(4) 0.5208(4)
C5A C -0.1671(5) 1.0352(4) 0.4739(5)
H3A H -0.0892 1.0059 0.4299
C6A C -0.1574(5) 1.1446(4) 0.4931(4)
H4A H -0.0707 1.1834 0.4654
C7A C -0.2701(4) 1.1963(4) 0.5508(4)
C8A C -0.3913(5) 1.1317(4) 0.5966(4)
H5A H -0.4702 1.1615 0.6387
C9A C -0.4011(5) 1.0194(4) 0.5819(5)
H6A H -0.4865 0.9766 0.6163
C10A C -0.2540(4) 1.3139(4) 0.5691(3)
C11A C 0.0250(4) 0.4387(4) 0.2639(4)
H7A H -0.0659 0.4103 0.3109
C12A C 0.0769(4) 0.4389(4) 0.1429(4)
H8A H 0.0223 0.4083 0.1120
C13A C 0.2100(4) 0.4850(4) 0.0701(4)
C14A C 0.2874(4) 0.5226(4) 0.1241(4)
H9A H 0.3783 0.5525 0.0790
C15A C 0.2292(4) 0.5158(4) 0.2468(4)
H10A H 0.2842 0.5394 0.2823
C16A C 0.2683(4) 0.4932(4) -0.0612(4)
C17A C 0.3683(5) 0.5827(4) -0.1503(4)
H11A H 0.3982 0.6417 -0.1298
C18A C 0.4241(5) 0.5855(4) -0.2693(4)
H12A H 0.4931 0.6460 -0.3270
C19A C 0.2858(4) 0.4194(4) -0.2194(4)
H13A H 0.2566 0.3618 -0.2420
C20A C 0.2257(4) 0.4108(4) -0.0995(4)
H14A H 0.1564 0.3500 -0.0436
N3 N 0.5547(6) 0.7702(5) 0.9453(6)
N4 N 0.9310(6) 1.2028(5) 1.0203(7)
C21 C 0.5162(6) 0.7950(5) 1.0470(7)
H15 H 0.4357 0.7548 1.1102
C22 C 0.5877(6) 0.8774(5) 1.0666(6)
H16 H 0.5541 0.8913 1.1402
C23 C 0.7086(5) 0.9380(5) 0.9757(5)
C24 C 0.7505(6) 0.9115(6) 0.8688(5)
H17 H 0.8312 0.9492 0.8043
C25 C 0.6708(8) 0.8286(6) 0.8594(6)
H18 H 0.7015 0.8127 0.7868
C26 C 0.7855(5) 1.0282(5) 0.9909(5)
C27 C 0.7818(6) 1.0189(6) 1.1078(6)
H19 H 0.7311 0.9534 1.1798
C28 C 0.8525(7) 1.1060(7) 1.1190(7)
H20 H 0.8457 1.0975 1.1996
C29 C 0.9344(6) 1.2116(5) 0.9087(7)
H21 H 0.9866 1.2778 0.8386
C30 C 0.8657(5) 1.1293(5) 0.8876(5)
H22 H 0.8728 1.1411 0.8059
loop_
_geom_bond_atom_site_label_1
_geom_bond_atom_site_label_2
_geom_bond_site_symmetry_1
_geom_bond_site_symmetry_2
Mn1 O1 1_555 1_555
Mn2 O2 1_555 1_555
O1 C1 1_555 1_555
O2 C1 1_555 1_555
O3 C10 1_555 1_555
O4 C10 1_555 1_555
N1 Mn1 1_555 1_555
N2 C18 1_555 1_555
N3 C21 1_555 1_555
N4 C28 1_555 1_555
C1 C2 1_555 1_555
C2 H1 1_555 1_555
C3 C2 1_555 1_555
H2 C3 1_555 1_555
C4 C3 1_555 1_555
C5 C4 1_555 1_555
H3 C5 1_555 1_555
C6 C5 1_555 1_555
H4 C6 1_555 1_555
C7 C6 1_555 1_555
C8 C7 1_555 1_555
H5 C8 1_555 1_555
C9 C4 1_555 1_555
H6 C9 1_555 1_555
C10 C7 1_555 1_555
C11 N1 1_555 1_555
H7 C11 1_555 1_555
C12 C11 1_555 1_555
H8 C12 1_555 1_555
C13 C12 1_555 1_555
C14 C13 1_555 1_555
H9 C14 1_555 1_555
C15 N1 1_555 1_555
H10 C15 1_555 1_555
C16 C13 1_555 1_555
C17 C16 1_555 1_555
H11 C17 1_555 1_555
C18 C17 1_555 1_555
H12 C18 1_555 1_555
C19 N2 1_555 1_555
H13 C19 1_555 1_555
C20 C16 1_555 1_555
H14 C20 1_555 1_555
C21 H15 1_555 1_555
C22 C21 1_555 1_555
H16 C22 1_555 1_555
C23 C22 1_555 1_555
C24 C23 1_555 1_555
H17 C24 1_555 1_555
C25 N3 1_555 1_555
H18 C25 1_555 1_555
C26 C23 1_555 1_555
C27 C26 1_555 1_555
H19 C27 1_555 1_555
C28 C27 1_555 1_555
H20 C28 1_555 1_555
C29 N4 1_555 1_555
H21 C29 1_555 1_555
C30 C26 1_555 1_555
H22 C30 1_555 1_555
Mn1_2 O3 1_555 1_555
Mn1_3 O3A 1_555 1_555
Mn2_2 O4 1_555 1_555
Mn2_3 N2 1_555 1_555
Mn2_4 O2A 1_555 1_555
Mn2_5 O4A 1_555 1_555
Mn2_6 N2A 1_555 1_555
O1A Mn1 1_555 1_555
O2A C1A 1_555 1_555
O2A_2 Mn2 1_555 1_555
O3A C10A 1_555 1_555
O3_2 Mn1 1_555 1_555
O3A_2 Mn1 1_555 1_555
O4A C10A 1_555 1_555
O4_2 Mn2 1_555 1_555
O4A_2 Mn2 1_555 1_555
N1A Mn1 1_555 1_555
N2A C18A 1_555 1_555
N2_2 Mn2 1_555 1_555
N2A_2 Mn2 1_555 1_555
C1A O1A 1_555 1_555
C2A C1A 1_555 1_555
H1A C2A 1_555 1_555
C3A C2A 1_555 1_555
H2A C3A 1_555 1_555
C4A C3A 1_555 1_555
C5A C4A 1_555 1_555
H3A C5A 1_555 1_555
C6A C5A 1_555 1_555
H4A C6A 1_555 1_555
C7A C6A 1_555 1_555
C8A C7A 1_555 1_555
H5A C8A 1_555 1_555
C9A C4A 1_555 1_555
H6A C9A 1_555 1_555
C10A C7A 1_555 1_555
C11A N1A 1_555 1_555
H7A C11A 1_555 1_555
C12A C11A 1_555 1_555
H8A C12A 1_555 1_555
C13A C12A 1_555 1_555
C14A C13A 1_555 1_555
H9A C14A 1_555 1_555
C15A N1A 1_555 1_555
H10A C15A 1_555 1_555
C16A C13A 1_555 1_555
C17A C16A 1_555 1_555
H11A C17A 1_555 1_555
C18A C17A 1_555 1_555
H12A C18A 1_555 1_555
C19A N2A 1_555 1_555
H13A C19A 1_555 1_555
C20A C16A 1_555 1_555
H14A C20A 1_555 1_555
C8 C9 1_555 1_555
C14 C15 1_555 1_555
C19 C20 1_555 1_555
C24 C25 1_555 1_555
C29 C30 1_555 1_555
C8A C9A 1_555 1_555
C14A C15A 1_555 1_555
C19A C20A 1_555 1_555

#END
