
#######################################################################
#
#                 Cambridge Crystallographic Data Centre
#                                CCDC 
#
#######################################################################
#
# If this CIF has been generated from an entry in the Cambridge 
# Structural Database, then it will include bibliographic, chemical, 
# crystal, experimental, refinement or atomic coordinate data resulting 
# from the CCDC's data processing and validation procedures.
#
#######################################################################

data_WAWGOQ
_chemical_formula_moiety         '(C50 H34 N4 O10 Zn2)n'
_symmetry_cell_setting           monoclinic
_symmetry_space_group_name_H-M   'C 2/c'
_symmetry_Int_Tables_number      15
_space_group_name_Hall           '-C 2yc'
loop_
_symmetry_equiv_pos_site_id
_symmetry_equiv_pos_as_xyz
1 x,y,z
2 1/2+x,1/2+y,z
3 x,-y,1/2+z
4 1/2+x,1/2-y,1/2+z
5 -x,-y,-z
6 1/2-x,1/2-y,-z
7 -x,y,1/2-z
8 1/2-x,1/2+y,1/2-z
_cell_length_a                   27.6940(8)
_cell_length_b                   19.5100(9)
_cell_length_c                   32.5980(13)
_cell_angle_alpha                90
_cell_angle_beta                 92.724(3)
_cell_angle_gamma                90
_cell_volume                     17593.1
loop_
_atom_site_label
_atom_site_type_symbol
_atom_site_fract_x
_atom_site_fract_y
_atom_site_fract_z
N1 N 0.42224(14) -0.2412(2) 0.38293(11)
N2 N 0.36219(13) -0.1975(2) 0.44826(12)
N3 N 0.41893(14) -0.2798(2) 0.50547(11)
N4 N 0.48136(13) -0.3184(2) 0.44140(11)
C1 C 0.50734(18) -0.3313(3) 0.40680(15)
C2 C 0.49549(18) -0.3055(3) 0.36784(14)
C3 C 0.4570(2) -0.2638(3) 0.35672(15)
C4 C 0.4450(2) -0.2370(3) 0.31635(14)
H1 H 0.4620 -0.2452 0.2929
C5 C 0.4058(2) -0.1986(3) 0.31820(14)
H2 H 0.3907 -0.1749 0.2964
C6 C 0.39060(18) -0.1998(3) 0.36017(14)
C7 C 0.35192(18) -0.1639(3) 0.37437(14)
C8 C 0.33864(18) -0.1614(3) 0.41644(15)
C9 C 0.29755(17) -0.1259(3) 0.43258(16)
H3 H 0.2754 -0.0991 0.4174
C10 C 0.2969(2) -0.1383(3) 0.47321(16)
H4 H 0.2749 -0.1212 0.4913
C11 C 0.33667(19) -0.1828(3) 0.48306(14)
C12 C 0.34857(19) -0.2100(3) 0.52207(14)
C13 C 0.38673(19) -0.2535(3) 0.53181(14)
C14 C 0.4000(2) -0.2796(3) 0.57177(14)
H5 H 0.3835 -0.2703 0.5953
C15 C 0.4394(2) -0.3189(3) 0.57078(15)
H6 H 0.4556 -0.3413 0.5926
C16 C 0.45117(18) -0.3188(3) 0.52818(15)
C17 C 0.49224(18) -0.3519(3) 0.51408(14)
C18 C 0.50646(18) -0.3519(3) 0.47362(15)
C19 C 0.54866(18) -0.3842(3) 0.45996(15)
H7 H 0.5710 -0.4100 0.4756
C20 C 0.54944(18) -0.3695(3) 0.41886(16)
H8 H 0.5736 -0.3824 0.4016
C21 C 0.52957(19) -0.3245(3) 0.33456(15)
C22 C 0.5282(2) -0.3843(4) 0.31532(18)
H9 H 0.5051 -0.4169 0.3216
C23 C 0.5617(2) -0.3985(4) 0.28526(18)
H10 H 0.5620 -0.4416 0.2731
C24 C 0.59355(19) -0.3502(4) 0.27384(15)
C25 C 0.5949(3) -0.2888(4) 0.2931(2)
H11 H 0.6176 -0.2562 0.2860
C26 C 0.5628(2) -0.2737(4) 0.3233(2)
H12 H 0.5632 -0.2309 0.3359
C27 C 0.6286(2) -0.3704(4) 0.24136(16)
O1 O 0.65803(16) -0.3218(2) 0.23243(12)
H13 H 0.6645 -0.3369 0.2046
O2 O 0.62690(13) -0.4279(2) 0.22627(10)
C28 C 0.3225(2) -0.1238(4) 0.34513(16)
C29 C 0.2950(2) -0.1531(3) 0.31460(17)
H14 H 0.2944 -0.2006 0.3123
C30 C 0.2678(2) -0.1138(4) 0.28674(16)
H15 H 0.2502 -0.1356 0.2655
C31 C 0.26604(19) -0.0452(4) 0.28953(16)
C32 C 0.2926(2) -0.0126(3) 0.31992(17)
H16 H 0.2920 0.0349 0.3222
C33 C 0.3209(2) -0.0527(4) 0.34782(16)
H17 H 0.3392 -0.0310 0.3687
C34 C 0.2361(2) 0.0002(4) 0.25995(18)
O3 O 0.23639(17) 0.0624(3) 0.26108(13)
O4 O 0.20958(13) -0.0367(3) 0.23240(11)
H18 H 0.2071 -0.0852 0.2362
C35 C 0.31678(18) -0.1863(3) 0.55622(14)
C36 C 0.2855(2) -0.2340(3) 0.57161(17)
H19 H 0.2831 -0.2778 0.5604
C37 C 0.25685(19) -0.2146(4) 0.60514(17)
H20 H 0.2366 -0.2464 0.6169
C38 C 0.2595(2) -0.1477(3) 0.62007(15)
C39 C 0.2909(2) -0.1035(3) 0.60312(16)
H21 H 0.2935 -0.0590 0.6133
C40 C 0.3192(2) -0.1229(3) 0.57094(17)
H22 H 0.3399 -0.0913 0.5597
C41 C 0.2277(2) -0.1285(4) 0.65337(16)
O5 O 0.22505(12) -0.0672(2) 0.66137(10)
O6 O 0.20520(16) -0.1751(2) 0.67102(13)
C42 C 0.52364(19) -0.3912(4) 0.54452(15)
C43 C 0.5180(2) -0.4583(3) 0.55283(16)
H23 H 0.4933 -0.4824 0.5389
C44 C 0.5476(2) -0.4925(3) 0.58115(16)
H24 H 0.5432 -0.5392 0.5853
C45 C 0.58283(19) -0.4588(3) 0.60302(15)
C46 C 0.5889(2) -0.3908(4) 0.59598(19)
H25 H 0.6129 -0.3674 0.6112
C47 C 0.5604(2) -0.3545(4) 0.56658(18)
H26 H 0.5655 -0.3081 0.5618
C48 C 0.6150(2) -0.4928(4) 0.63455(19)
O7 O 0.63893(13) -0.4599(2) 0.66098(11)
O8 O 0.61872(13) -0.5585(2) 0.63240(9)
Zn1 Zn 0.41524(2) -0.27117(3) 0.442890(16)
Zn2 Zn 0.17584(2) 0.02710(3) 0.194730(16)
O9 O 0.37163(12) -0.35835(19) 0.43178(9)
H27 H 0.3836 -0.3760 0.4023
C49 C 0.3340(2) -0.3856(4) 0.4580(2)
H28 H 0.3092 -0.4082 0.4409
H29 H 0.3190 -0.3479 0.4720
C50 C 0.3548(3) -0.4359(4) 0.4895(2)
H30 H 0.3696 -0.4745 0.4761
H31 H 0.3788 -0.4140 0.5076
O10 O 0.3139(2) -0.4581(3) 0.51196(19)
H32 H 0.2912 -0.4906 0.4927
Zn2A Zn 0.67584(2) -0.47290(3) 0.194730(16)
O2A O 0.12690(13) 0.0721(2) 0.22627(10)
O5B O 0.22505(12) 0.0672(2) 0.16137(10)
O7C O 0.13893(13) -0.0401(2) 0.16098(11)
Zn2B Zn 0.17584(2) -0.02710(3) 0.694730(16)
Zn2C Zn 0.67584(2) -0.52710(3) 0.694730(16)
loop_
_geom_bond_atom_site_label_1
_geom_bond_atom_site_label_2
_geom_bond_site_symmetry_1
_geom_bond_site_symmetry_2
N1 C3 1_555 1_555
N2 C8 1_555 1_555
N3 C13 1_555 1_555
N4 C1 1_555 1_555
C1 C2 1_555 1_555
C2 C3 1_555 1_555
C3 C4 1_555 1_555
C4 H1 1_555 1_555
C5 C4 1_555 1_555
H2 C5 1_555 1_555
C6 N1 1_555 1_555
C7 C6 1_555 1_555
C8 C7 1_555 1_555
C9 C8 1_555 1_555
H3 C9 1_555 1_555
C10 C9 1_555 1_555
H4 C10 1_555 1_555
C11 N2 1_555 1_555
C12 C11 1_555 1_555
C13 C12 1_555 1_555
C14 C13 1_555 1_555
H5 C14 1_555 1_555
C15 C14 1_555 1_555
H6 C15 1_555 1_555
C16 N3 1_555 1_555
C17 C16 1_555 1_555
C18 N4 1_555 1_555
C19 C18 1_555 1_555
H7 C19 1_555 1_555
C20 C1 1_555 1_555
H8 C20 1_555 1_555
C21 C2 1_555 1_555
C22 C21 1_555 1_555
H9 C22 1_555 1_555
C23 C22 1_555 1_555
H10 C23 1_555 1_555
C24 C23 1_555 1_555
C25 C24 1_555 1_555
H11 C25 1_555 1_555
C26 C21 1_555 1_555
H12 C26 1_555 1_555
C27 C24 1_555 1_555
O1 C27 1_555 1_555
H13 O1 1_555 1_555
O2 C27 1_555 1_555
C28 C7 1_555 1_555
C29 C28 1_555 1_555
H14 C29 1_555 1_555
C30 C29 1_555 1_555
H15 C30 1_555 1_555
C31 C30 1_555 1_555
C32 C31 1_555 1_555
H16 C32 1_555 1_555
C33 C28 1_555 1_555
H17 C33 1_555 1_555
C34 C31 1_555 1_555
O3 C34 1_555 1_555
O4 C34 1_555 1_555
H18 O4 1_555 1_555
C35 C12 1_555 1_555
C36 C35 1_555 1_555
H19 C36 1_555 1_555
C37 C36 1_555 1_555
H20 C37 1_555 1_555
C38 C37 1_555 1_555
C39 C38 1_555 1_555
H21 C39 1_555 1_555
C40 C35 1_555 1_555
H22 C40 1_555 1_555
C41 C38 1_555 1_555
O5 C41 1_555 1_555
O6 C41 1_555 1_555
C42 C17 1_555 1_555
C43 C42 1_555 1_555
H23 C43 1_555 1_555
C44 C43 1_555 1_555
H24 C44 1_555 1_555
C45 C44 1_555 1_555
C46 C45 1_555 1_555
H25 C46 1_555 1_555
C47 C42 1_555 1_555
H26 C47 1_555 1_555
C48 C45 1_555 1_555
O7 C48 1_555 1_555
O8 C48 1_555 1_555
Zn1 N1 1_555 1_555
Zn2 O4 1_555 1_555
O9 Zn1 1_555 1_555
H27 O9 1_555 1_555
C49 O9 1_555 1_555
H28 C49 1_555 1_555
H29 C49 1_555 1_555
C50 C49 1_555 1_555
H30 C50 1_555 1_555
H31 C50 1_555 1_555
O10 C50 1_555 1_555
H32 O10 1_555 1_555
Zn2A O2 1_555 1_555
O2A Zn2 1_555 1_555
O5B Zn2 1_555 1_555
O7C Zn2 1_555 1_555
Zn2B O5 1_555 1_555
Zn2C O7 1_555 1_555
N2 Zn1 1_555 1_555
N3 Zn1 1_555 1_555
N4 Zn1 1_555 1_555
C5 C6 1_555 1_555
C10 C11 1_555 1_555
C15 C16 1_555 1_555
C17 C18 1_555 1_555
C19 C20 1_555 1_555
C25 C26 1_555 1_555
C32 C33 1_555 1_555
C39 C40 1_555 1_555
C46 C47 1_555 1_555

#END
