
#######################################################################
#
#                 Cambridge Crystallographic Data Centre
#                                CCDC 
#
#######################################################################
#
# If this CIF has been generated from an entry in the Cambridge 
# Structural Database, then it will include bibliographic, chemical, 
# crystal, experimental, refinement or atomic coordinate data resulting 
# from the CCDC's data processing and validation procedures.
#
#######################################################################

data_DUWBEE
_chemical_formula_moiety         '(C48 H52 Cd4 N4 O22)n'
_symmetry_cell_setting           orthorhombic
_symmetry_space_group_name_H-M   'P b c n'
_symmetry_Int_Tables_number      60
_space_group_name_Hall           '-P 2n 2ab'
loop_
_symmetry_equiv_pos_site_id
_symmetry_equiv_pos_as_xyz
1 x,y,z
2 1/2-x,1/2-y,1/2+z
3 1/2+x,1/2-y,-z
4 -x,y,1/2-z
5 -x,-y,-z
6 1/2+x,1/2+y,1/2-z
7 1/2-x,1/2+y,z
8 x,-y,1/2+z
_cell_length_a                   26.7063(7)
_cell_length_b                   19.5130(5)
_cell_length_c                   28.8938(9)
_cell_angle_alpha                90
_cell_angle_beta                 90
_cell_angle_gamma                90
_cell_volume                     15057.1
loop_
_atom_site_label
_atom_site_type_symbol
_atom_site_fract_x
_atom_site_fract_y
_atom_site_fract_z
Cd1 Cd 0.520180(9) 0.728437(12) 0.015498(9)
Cd2 Cd 0.464806(11) 0.868890(13) 0.078533(11)
Cd3 Cd 0.847453(9) 0.878745(12) 0.204385(10)
Cd4 Cd 0.764010(9) 0.743671(12) 0.245570(9)
O1 O 0.72258(12) 0.35259(15) -0.22822(12)
O2 O 0.4807(4) 0.8690(3) 0.1583(2)
H1 H 0.4687 0.8944 0.1795
H2 H 0.4987 0.8443 0.1759
O3 O 0.69189(12) 0.25249(15) -0.20829(13)
O4 O 0.38514(16) 0.9056(2) 0.0910(2)
H3 H 0.3764 0.9364 0.1101
H4 H 0.3592 0.8908 0.0772
O5 O 0.55938(16) 0.23964(17) -0.08839(15)
O6 O 0.52592(12) 0.33546(16) -0.06067(12)
O7 O 0.69548(10) 0.65725(13) -0.22967(10)
O8 O 0.68883(14) 0.74730(15) -0.18358(12)
O9 O 0.58073(12) 0.72961(14) -0.04248(11)
O10 O 0.54891(13) 0.62978(15) -0.02351(12)
O11 O 0.54207(10) 0.82806(13) 0.05332(11)
O12 O 0.59100(12) 0.74203(15) 0.07249(12)
O13 O 0.55021(13) 1.12524(15) -0.00287(12)
O14 O 0.53824(11) 1.22609(15) 0.03240(12)
O15 O 0.63804(12) 1.27252(14) 0.17458(12)
O16 O 0.67949(12) 1.18549(15) 0.20722(12)
O17 O 0.73106(11) 0.79104(15) 0.18306(12)
O18 O 0.77077(11) 0.89122(15) 0.17304(12)
O19 O 0.88919(13) 0.93075(18) 0.14415(13)
O20 O 0.84814(14) 0.99092(15) 0.22813(12)
O21 O 0.91955(12) 0.87039(18) 0.24868(13)
O22 O 0.49211(13) 0.97726(16) 0.08422(15)
N1 N 0.47033(18) 1.0818(2) 0.10844(18)
N2 N 0.8790(2) 1.0950(3) 0.2087(2)
N3 N 0.9199(2) 0.9700(3) 0.07645(18)
N4 N 0.97396(16) 0.8548(3) 0.30724(19)
C1 C 0.55601(16) 0.3028(2) -0.08625(17)
C2 C 0.59121(15) 0.3442(2) -0.11586(16)
C3 C 0.62287(16) 0.3121(2) -0.14681(16)
H5 H 0.6217 0.2637 -0.1504
C4 C 0.65662(15) 0.3509(2) -0.17272(16)
C5 C 0.69198(15) 0.3164(2) -0.20516(15)
C6 C 0.65803(16) 0.4212(2) -0.16677(16)
H6 H 0.6816 0.4473 -0.1839
C7 C 0.62589(14) 0.45482(19) -0.13636(15)
C8 C 0.59218(15) 0.4153(2) -0.11118(15)
H7 H 0.5695 0.4370 -0.0905
C9 C 0.62772(14) 0.5308(2) -0.13012(15)
C10 C 0.65210(15) 0.5718(2) -0.16276(15)
H8 H 0.6671 0.5514 -0.1892
C11 C 0.65447(14) 0.6427(2) -0.15662(15)
C12 C 0.63147(15) 0.6735(2) -0.11902(15)
H9 H 0.6334 0.7217 -0.1149
C13 C 0.60541(15) 0.6333(2) -0.08716(15)
C14 C 0.60447(14) 0.5624(2) -0.09280(15)
H10 H 0.5875 0.5351 -0.0706
C15 C 0.68090(14) 0.68576(19) -0.19172(15)
C16 C 0.57675(14) 0.6661(2) -0.04832(15)
C17 C 0.58079(15) 0.8043(2) 0.07340(15)
C18 C 0.61560(15) 0.8541(2) 0.09653(15)
C19 C 0.65652(14) 0.8310(2) 0.12133(15)
H11 H 0.6618 0.7831 0.1250
C20 C 0.69012(15) 0.8771(2) 0.14104(15)
C21 C 0.68131(15) 0.9473(2) 0.13655(15)
H12 H 0.7045 0.9790 0.1493
C22 C 0.63855(15) 0.9720(2) 0.11337(15)
C23 C 0.60622(14) 0.9242(2) 0.09320(15)
H13 H 0.5774 0.9398 0.0770
C24 C 0.62739(14) 1.0467(2) 0.10988(16)
C25 C 0.60026(15) 1.0729(2) 0.07242(16)
H14 H 0.5914 1.0432 0.0477
C26 C 0.58592(14) 1.1415(2) 0.07064(15)
C27 C 0.60088(14) 1.1855(2) 0.10580(16)
H15 H 0.5906 1.2321 0.1052
C28 C 0.63059(15) 1.1621(2) 0.14171(15)
C29 C 0.64333(15) 1.0927(2) 0.14408(16)
H16 H 0.6630 1.0766 0.1692
C30 C 0.65096(14) 1.2110(2) 0.17721(16)
C31 C 0.55584(14) 1.1667(2) 0.02990(16)
C32 C 0.73443(15) 0.8513(2) 0.16779(15)
C33 C 0.4415(2) 1.0443(3) 0.0328(2)
H17 H 0.4557 1.0844 0.0172
H18 H 0.4060 1.0526 0.0394
H19 H 0.4448 1.0040 0.0128
C34 C 0.46932(18) 1.0319(3) 0.0780(2)
C35 C 0.4974(3) 1.0701(4) 0.1524(2)
H20 H 0.5241 1.1042 0.1557
H21 H 0.5119 1.0240 0.1524
H22 H 0.4740 1.0745 0.1784
C36 C 0.4458(3) 1.1471(3) 0.1028(3)
H23 H 0.4710 1.1833 0.1001
H24 H 0.4244 1.1561 0.1297
H25 H 0.4252 1.1462 0.0747
C37 C 0.8005(3) 1.0573(3) 0.1729(2)
H26 H 0.7819 1.0143 0.1691
H27 H 0.8125 1.0730 0.1426
H28 H 0.7784 1.0921 0.1863
C38 C 0.8476(2) 1.0449(3) 0.2068(2)
C39 C 0.8712(3) 1.1605(3) 0.1846(3)
H29 H 0.8685 1.1976 0.2074
H30 H 0.8402 1.1581 0.1664
H31 H 0.8995 1.1695 0.1639
C40 C 0.9223(3) 1.0814(4) 0.2360(3)
H32 H 0.9237 1.1137 0.2619
H33 H 0.9523 1.0866 0.2168
H34 H 0.9207 1.0344 0.2479
C41 C 0.8936(2) 0.9236(3) 0.10149(18)
C42 C 0.8703(4) 0.8644(3) 0.0775(2)
H35 H 0.8663 0.8264 0.0994
H36 H 0.8918 0.8498 0.0519
H37 H 0.8375 0.8778 0.0655
C43 C 0.9308(4) 0.9622(5) 0.0276(3)
H38 H 0.9494 1.0023 0.0166
H39 H 0.8993 0.9582 0.0103
H40 H 0.9509 0.9208 0.0228
C44 C 0.9413(3) 1.0306(5) 0.0993(3)
H41 H 0.9778 1.0256 0.1014
H42 H 0.9272 1.0350 0.1304
H43 H 0.9333 1.0717 0.0812
C45 C 0.94166(17) 0.8329(3) 0.2763(2)
C46 C 0.9315(2) 0.7542(3) 0.2746(2)
H44 H 0.9155 0.7397 0.3035
H45 H 0.9633 0.7297 0.2708
H46 H 0.9094 0.7438 0.2485
C47 C 1.0023(2) 0.8103(4) 0.3391(2)
H47 H 1.0375 0.8248 0.3397
H48 H 1.0002 0.7627 0.3285
H49 H 0.9882 0.8139 0.3703
C48 C 0.9828(2) 0.9274(3) 0.3111(2)
H50 H 0.9805 0.9411 0.3437
H51 H 0.9576 0.9522 0.2931
H52 H 1.0162 0.9382 0.2992
Cd1D Cd 0.479820(9) 0.271563(12) -0.015498(9)
Cd1D_2 Cd 0.479820(9) 1.271563(12) -0.015498(9)
Cd2D Cd 0.535194(11) 0.131110(13) -0.078533(11)
Cd2D_2 Cd 0.535194(11) 1.131110(13) -0.078533(11)
Cd3A Cd 0.652547(9) 0.621255(12) -0.295615(10)
Cd3F Cd 0.652547(9) 1.378745(12) 0.204385(10)
Cd4A Cd 0.735990(9) 0.756329(12) -0.254430(9)
Cd4F Cd 0.735990(9) 1.243671(12) 0.245570(9)
Cd4G Cd 0.764010(9) 0.256329(12) -0.254430(9)
O1G O 0.72258(12) 0.64741(15) 0.27178(12)
O3G O 0.69189(12) 0.74751(15) 0.29171(13)
O5D O 0.44062(16) 0.76036(17) 0.08839(15)
O6D O 0.47408(12) 0.66454(16) 0.06067(12)
O7A O 0.80452(10) 0.84275(13) 0.27033(10)
O8A O 0.81117(14) 0.75270(15) 0.31642(12)
O13D O 0.44979(13) 0.87476(15) 0.00287(12)
O14D O 0.46176(11) 0.77391(15) -0.03240(12)
O15F O 0.86196(12) 0.77252(14) 0.17458(12)
O16F O 0.82051(12) 0.68549(15) 0.20722(12)
loop_
_geom_bond_atom_site_label_1
_geom_bond_atom_site_label_2
_geom_bond_site_symmetry_1
_geom_bond_site_symmetry_2
Cd1 O9 1_555 1_555
Cd2 O2 1_555 1_555
Cd3 O18 1_555 1_555
Cd4 O17 1_555 1_555
O1 C5 1_555 1_555
O2 H1 1_555 1_555
H2 O2 1_555 1_555
O3 C5 1_555 1_555
O4 Cd2 1_555 1_555
H3 O4 1_555 1_555
H4 O4 1_555 1_555
O5 C1 1_555 1_555
O6 C1 1_555 1_555
O7 C15 1_555 1_555
O8 C15 1_555 1_555
O9 C16 1_555 1_555
O10 Cd1 1_555 1_555
O11 Cd1 1_555 1_555
O12 Cd1 1_555 1_555
O13 C31 1_555 1_555
O14 C31 1_555 1_555
O15 C30 1_555 1_555
O16 C30 1_555 1_555
O17 C32 1_555 1_555
O18 C32 1_555 1_555
O19 Cd3 1_555 1_555
O20 Cd3 1_555 1_555
O21 Cd3 1_555 1_555
O22 Cd2 1_555 1_555
N1 C34 1_555 1_555
N2 C38 1_555 1_555
N3 C41 1_555 1_555
N4 C45 1_555 1_555
C1 C2 1_555 1_555
C2 C3 1_555 1_555
C3 H5 1_555 1_555
C4 C3 1_555 1_555
C5 C4 1_555 1_555
C6 C4 1_555 1_555
H6 C6 1_555 1_555
C7 C6 1_555 1_555
C8 C2 1_555 1_555
H7 C8 1_555 1_555
C9 C7 1_555 1_555
C10 C9 1_555 1_555
H8 C10 1_555 1_555
C11 C10 1_555 1_555
C12 C11 1_555 1_555
H9 C12 1_555 1_555
C13 C12 1_555 1_555
C14 C9 1_555 1_555
H10 C14 1_555 1_555
C15 C11 1_555 1_555
C16 O10 1_555 1_555
C17 O11 1_555 1_555
C18 C17 1_555 1_555
C19 C18 1_555 1_555
H11 C19 1_555 1_555
C20 C19 1_555 1_555
C21 C20 1_555 1_555
H12 C21 1_555 1_555
C22 C21 1_555 1_555
C23 C18 1_555 1_555
H13 C23 1_555 1_555
C24 C22 1_555 1_555
C25 C24 1_555 1_555
H14 C25 1_555 1_555
C26 C25 1_555 1_555
C27 C26 1_555 1_555
H15 C27 1_555 1_555
C28 C27 1_555 1_555
C29 C24 1_555 1_555
H16 C29 1_555 1_555
C30 C28 1_555 1_555
C31 C26 1_555 1_555
C32 C20 1_555 1_555
C33 H17 1_555 1_555
H18 C33 1_555 1_555
H19 C33 1_555 1_555
C34 O22 1_555 1_555
C35 N1 1_555 1_555
H20 C35 1_555 1_555
H21 C35 1_555 1_555
H22 C35 1_555 1_555
C36 N1 1_555 1_555
H23 C36 1_555 1_555
H24 C36 1_555 1_555
H25 C36 1_555 1_555
C37 H26 1_555 1_555
H27 C37 1_555 1_555
H28 C37 1_555 1_555
C38 O20 1_555 1_555
C39 N2 1_555 1_555
H29 C39 1_555 1_555
H30 C39 1_555 1_555
H31 C39 1_555 1_555
C40 N2 1_555 1_555
H32 C40 1_555 1_555
H33 C40 1_555 1_555
H34 C40 1_555 1_555
C41 O19 1_555 1_555
C42 C41 1_555 1_555
H35 C42 1_555 1_555
H36 C42 1_555 1_555
H37 C42 1_555 1_555
C43 N3 1_555 1_555
H38 C43 1_555 1_555
H39 C43 1_555 1_555
H40 C43 1_555 1_555
C44 N3 1_555 1_555
H41 C44 1_555 1_555
H42 C44 1_555 1_555
H43 C44 1_555 1_555
C45 O21 1_555 1_555
C46 C45 1_555 1_555
H44 C46 1_555 1_555
H45 C46 1_555 1_555
H46 C46 1_555 1_555
C47 N4 1_555 1_555
H47 C47 1_555 1_555
H48 C47 1_555 1_555
H49 C47 1_555 1_555
C48 N4 1_555 1_555
H50 C48 1_555 1_555
H51 C48 1_555 1_555
H52 C48 1_555 1_555
Cd1D O6 1_555 1_555
Cd1D_2 O14 1_555 1_555
Cd2D O5 1_555 1_555
Cd2D_2 O13 1_555 1_555
Cd3A O7 1_555 1_555
Cd3F O15 1_555 1_555
Cd4A O7 1_555 1_555
Cd4F O16 1_555 1_555
Cd4G O1 1_555 1_555
O1G Cd4 1_555 1_555
O3G Cd4 1_555 1_555
O5D Cd2 1_555 1_555
O6D Cd1 1_555 1_555
O7A Cd3 1_555 1_555
O8A Cd4 1_555 1_555
O13D Cd2 1_555 1_555
O14D Cd1 1_555 1_555
O15F Cd3 1_555 1_555
O16F Cd4 1_555 1_555
Cd2 O11 1_555 1_555
Cd4 O7A 1_555 1_555
O3 Cd4G 1_555 1_555
O8 Cd4A 1_555 1_555
O12 C17 1_555 1_555
C7 C8 1_555 1_555
C13 C14 1_555 1_555
C13 C16 1_555 1_555
C22 C23 1_555 1_555
C28 C29 1_555 1_555
C33 C34 1_555 1_555
C37 C38 1_555 1_555

#END
