
#######################################################################
#
#                 Cambridge Crystallographic Data Centre
#                                CCDC 
#
#######################################################################
#
# If this CIF has been generated from an entry in the Cambridge 
# Structural Database, then it will include bibliographic, chemical, 
# crystal, experimental, refinement or atomic coordinate data resulting 
# from the CCDC's data processing and validation procedures.
#
#######################################################################

data_PETWOC
_chemical_formula_moiety         '(C24 H20 O19 U3)n'
_symmetry_cell_setting           cubic
_symmetry_space_group_name_H-M   'F m -3 m'
_symmetry_Int_Tables_number      225
_space_group_name_Hall           '-F 4 2 3'
loop_
_symmetry_equiv_pos_site_id
_symmetry_equiv_pos_as_xyz
1 x,y,z
2 -x,-y,z
3 -x,y,-z
4 x,-y,-z
5 z,x,y
6 z,-x,-y
7 -z,-x,y
8 -z,x,-y
9 y,z,x
10 -y,z,-x
11 y,-z,-x
12 -y,-z,x
13 y,x,-z
14 -y,-x,-z
15 y,-x,z
16 -y,x,z
17 x,z,-y
18 -x,z,y
19 -x,-z,-y
20 x,-z,y
21 z,y,-x
22 z,-y,x
23 -z,y,x
24 -z,-y,-x
25 x,1/2+y,1/2+z
26 -x,1/2-y,1/2+z
27 -x,1/2+y,1/2-z
28 x,1/2-y,1/2-z
29 z,1/2+x,1/2+y
30 z,1/2-x,1/2-y
31 -z,1/2-x,1/2+y
32 -z,1/2+x,1/2-y
33 y,1/2+z,1/2+x
34 -y,1/2+z,1/2-x
35 y,1/2-z,1/2-x
36 -y,1/2-z,1/2+x
37 y,1/2+x,1/2-z
38 -y,1/2-x,1/2-z
39 y,1/2-x,1/2+z
40 -y,1/2+x,1/2+z
41 x,1/2+z,1/2-y
42 -x,1/2+z,1/2+y
43 -x,1/2-z,1/2-y
44 x,1/2-z,1/2+y
45 z,1/2+y,1/2-x
46 z,1/2-y,1/2+x
47 -z,1/2+y,1/2+x
48 -z,1/2-y,1/2-x
49 1/2+x,y,1/2+z
50 1/2-x,-y,1/2+z
51 1/2-x,y,1/2-z
52 1/2+x,-y,1/2-z
53 1/2+z,x,1/2+y
54 1/2+z,-x,1/2-y
55 1/2-z,-x,1/2+y
56 1/2-z,x,1/2-y
57 1/2+y,z,1/2+x
58 1/2-y,z,1/2-x
59 1/2+y,-z,1/2-x
60 1/2-y,-z,1/2+x
61 1/2+y,x,1/2-z
62 1/2-y,-x,1/2-z
63 1/2+y,-x,1/2+z
64 1/2-y,x,1/2+z
65 1/2+x,z,1/2-y
66 1/2-x,z,1/2+y
67 1/2-x,-z,1/2-y
68 1/2+x,-z,1/2+y
69 1/2+z,y,1/2-x
70 1/2+z,-y,1/2+x
71 1/2-z,y,1/2+x
72 1/2-z,-y,1/2-x
73 1/2+x,1/2+y,z
74 1/2-x,1/2-y,z
75 1/2-x,1/2+y,-z
76 1/2+x,1/2-y,-z
77 1/2+z,1/2+x,y
78 1/2+z,1/2-x,-y
79 1/2-z,1/2-x,y
80 1/2-z,1/2+x,-y
81 1/2+y,1/2+z,x
82 1/2-y,1/2+z,-x
83 1/2+y,1/2-z,-x
84 1/2-y,1/2-z,x
85 1/2+y,1/2+x,-z
86 1/2-y,1/2-x,-z
87 1/2+y,1/2-x,z
88 1/2-y,1/2+x,z
89 1/2+x,1/2+z,-y
90 1/2-x,1/2+z,y
91 1/2-x,1/2-z,-y
92 1/2+x,1/2-z,y
93 1/2+z,1/2+y,-x
94 1/2+z,1/2-y,x
95 1/2-z,1/2+y,x
96 1/2-z,1/2-y,-x
97 -x,-y,-z
98 x,y,-z
99 x,-y,z
100 -x,y,z
101 -z,-x,-y
102 -z,x,y
103 z,x,-y
104 z,-x,y
105 -y,-z,-x
106 y,-z,x
107 -y,z,x
108 y,z,-x
109 -y,-x,z
110 y,x,z
111 -y,x,-z
112 y,-x,-z
113 -x,-z,y
114 x,-z,-y
115 x,z,y
116 -x,z,-y
117 -z,-y,x
118 -z,y,-x
119 z,-y,-x
120 z,y,x
121 -x,1/2-y,1/2-z
122 x,1/2+y,1/2-z
123 x,1/2-y,1/2+z
124 -x,1/2+y,1/2+z
125 -z,1/2-x,1/2-y
126 -z,1/2+x,1/2+y
127 z,1/2+x,1/2-y
128 z,1/2-x,1/2+y
129 -y,1/2-z,1/2-x
130 y,1/2-z,1/2+x
131 -y,1/2+z,1/2+x
132 y,1/2+z,1/2-x
133 -y,1/2-x,1/2+z
134 y,1/2+x,1/2+z
135 -y,1/2+x,1/2-z
136 y,1/2-x,1/2-z
137 -x,1/2-z,1/2+y
138 x,1/2-z,1/2-y
139 x,1/2+z,1/2+y
140 -x,1/2+z,1/2-y
141 -z,1/2-y,1/2+x
142 -z,1/2+y,1/2-x
143 z,1/2-y,1/2-x
144 z,1/2+y,1/2+x
145 1/2-x,-y,1/2-z
146 1/2+x,y,1/2-z
147 1/2+x,-y,1/2+z
148 1/2-x,y,1/2+z
149 1/2-z,-x,1/2-y
150 1/2-z,x,1/2+y
151 1/2+z,x,1/2-y
152 1/2+z,-x,1/2+y
153 1/2-y,-z,1/2-x
154 1/2+y,-z,1/2+x
155 1/2-y,z,1/2+x
156 1/2+y,z,1/2-x
157 1/2-y,-x,1/2+z
158 1/2+y,x,1/2+z
159 1/2-y,x,1/2-z
160 1/2+y,-x,1/2-z
161 1/2-x,-z,1/2+y
162 1/2+x,-z,1/2-y
163 1/2+x,z,1/2+y
164 1/2-x,z,1/2-y
165 1/2-z,-y,1/2+x
166 1/2-z,y,1/2-x
167 1/2+z,-y,1/2-x
168 1/2+z,y,1/2+x
169 1/2-x,1/2-y,-z
170 1/2+x,1/2+y,-z
171 1/2+x,1/2-y,z
172 1/2-x,1/2+y,z
173 1/2-z,1/2-x,-y
174 1/2-z,1/2+x,y
175 1/2+z,1/2+x,-y
176 1/2+z,1/2-x,y
177 1/2-y,1/2-z,-x
178 1/2+y,1/2-z,x
179 1/2-y,1/2+z,x
180 1/2+y,1/2+z,-x
181 1/2-y,1/2-x,z
182 1/2+y,1/2+x,z
183 1/2-y,1/2+x,-z
184 1/2+y,1/2-x,-z
185 1/2-x,1/2-z,y
186 1/2+x,1/2-z,-y
187 1/2+x,1/2+z,y
188 1/2-x,1/2+z,-y
189 1/2-z,1/2-y,x
190 1/2-z,1/2+y,-x
191 1/2+z,1/2-y,-x
192 1/2+z,1/2+y,x
_cell_length_a                   21.5151(11)
_cell_length_b                   21.5151(11)
_cell_length_c                   21.5151(11)
_cell_angle_alpha                90
_cell_angle_beta                 90
_cell_angle_gamma                90
_cell_volume                     9959.33
loop_
_atom_site_label
_atom_site_type_symbol
_atom_site_fract_x
_atom_site_fract_y
_atom_site_fract_z
O1 O 0.000 -0.0991(3) 0.1738(3)
O2 O 0.0601(4) 0.0601(4) 0.0601(4)
C1 C 0.000 -0.1549(4) 0.1549(4)
C2 C 0.000 -0.2042(4) 0.2042(4)
O3 O 0.000 0.000 0.2495(8)
U1 U 0.000 0.000 0.12601(2)
C3 C 0.000 -0.1862(4) 0.2675(3)
H1 H 0.000 -0.143008 0.278694
O1R O -0.000 -0.1738(3) 0.0991(3)
C3R C 0.000 -0.2675(3) 0.1862(4)
H1R H 0.000 -0.278694 0.143008
O1OA O 0.000 -0.3262(3) 0.4009(3)
C1AA C -0.000 -0.3451(4) 0.3451(4)
C2AA C 0.000 -0.2958(4) 0.2958(4)
C3OA C 0.000 -0.2325(3) 0.3138(4)
H1OA H 0.000 -0.221306 0.356992
O1AA O -0.000 -0.4009(3) 0.3262(3)
C3AA C 0.000 -0.3138(4) 0.2325(3)
H1AA H -0.000 -0.356992 0.221306
O1A O 0.000 0.0991(3) 0.1738(3)
O2A O -0.0601(4) -0.0601(4) 0.0601(4)
C1A C 0.000 0.1549(4) 0.1549(4)
C2A C 0.000 0.2042(4) 0.2042(4)
C3A C -0.000 0.1862(4) 0.2675(3)
H1A H 0.000 0.143008 0.278694
O1P O 0.000 0.1738(3) 0.0991(3)
C3P C -0.000 0.2675(3) 0.1862(4)
H1P H 0.000 0.278694 0.143008
O1QA O 0.000 0.3262(3) 0.4009(3)
C1Z C 0.000 0.3451(4) 0.3451(4)
C2Z C 0.000 0.2958(4) 0.2958(4)
C3QA C 0.000 0.2325(3) 0.3138(4)
H1QA H 0.000 0.221306 0.356992
O1Z O 0.000 0.4009(3) 0.3262(3)
C3Z C 0.000 0.3138(4) 0.2325(3)
H1Z H 0.000 0.356992 0.221306
O1D O 0.1738(3) -0.000 -0.0991(3)
C1D C 0.1549(4) 0.000 -0.1549(4)
C2D C 0.2042(4) -0.000 -0.2042(4)
O3D O 0.2495(8) 0.000 0.000
U1D U 0.12601(2) 0.000 0.000
C3D C 0.2675(3) 0.000 -0.1862(4)
H1D H 0.278694 0.000 -0.143008
O1M O 0.0991(3) -0.000 -0.1738(3)
C3M C 0.1862(4) 0.000 -0.2675(3)
H1M H 0.143008 0.000 -0.278694
O1JB O 0.4009(3) 0.000 -0.3262(3)
C1CB C 0.3451(4) 0.000 -0.3451(4)
C2CB C 0.2958(4) 0.000 -0.2958(4)
C3JB C 0.3138(4) 0.000 -0.2325(3)
H1JB H 0.356992 -0.000 -0.221306
O1CB O 0.3262(3) -0.000 -0.4009(3)
C3CB C 0.2325(3) 0.000 -0.3138(4)
H1CB H 0.221306 -0.000 -0.356992
O2C O 0.0601(4) -0.0601(4) -0.0601(4)
O3F O -0.2495(8) 0.000 0.000
U1F U -0.12601(2) 0.000 0.000
O2B O -0.0601(4) 0.0601(4) -0.0601(4)
O1E O 0.1738(3) 0.000 0.0991(3)
O1F O -0.1738(3) -0.000 -0.0991(3)
O1G O -0.1738(3) 0.000 0.0991(3)
O1N O -0.0991(3) 0.000 0.1738(3)
O1O O 0.0991(3) 0.000 0.1738(3)
O1T O 0.1738(3) -0.0991(3) 0.000
O1U O 0.1738(3) 0.0991(3) 0.000
O1V O -0.1738(3) -0.0991(3) 0.000
O1W O -0.1738(3) 0.0991(3) 0.000
O2L O 0.0601(4) 0.0601(4) -0.0601(4)
O2M O -0.0601(4) -0.0601(4) -0.0601(4)
O2N O 0.0601(4) -0.0601(4) 0.0601(4)
O2O O -0.0601(4) 0.0601(4) 0.0601(4)
U1B U 0.000 0.000 -0.12601(2)
U1H U 0.000 0.12601(2) 0.000
U1J U 0.000 -0.12601(2) 0.000
U1Z U -0.000 -0.500 0.37399(2)
U1Z_2 U -0.000 0.500 0.37399(2)
U1FA U 0.000 -0.37399(2) 0.500
U1HA U -0.000 0.37399(2) 0.500
U1VA U 0.500 0.000 -0.37399(2)
U1BB U 0.37399(2) 0.000 -0.500
loop_
_geom_bond_atom_site_label_1
_geom_bond_atom_site_label_2
_geom_bond_site_symmetry_1
_geom_bond_site_symmetry_2
O1 C1 1_555 1_555
O2 U1 1_555 1_555
C1 C2 1_555 1_555
C2 C3 1_555 1_555
O3 U1 1_555 1_555
U1 O1 1_555 1_555
C3 H1 1_555 1_555
O1R C1 1_555 1_555
C3R C2 1_555 1_555
H1R C3R 1_555 1_555
O1OA C1AA 1_555 1_555
C1AA C2AA 1_555 1_555
C2AA C3OA 1_555 1_555
C3OA C3 1_555 1_555
H1OA C3OA 1_555 1_555
O1AA C1AA 1_555 1_555
C3AA C3R 1_555 1_555
H1AA C3AA 1_555 1_555
O1A U1 1_555 1_555
O2A U1 1_555 1_555
C1A O1A 1_555 1_555
C2A C1A 1_555 1_555
C3A C2A 1_555 1_555
H1A C3A 1_555 1_555
O1P C1A 1_555 1_555
C3P C2A 1_555 1_555
H1P C3P 1_555 1_555
O1QA C1Z 1_555 1_555
C1Z C2Z 1_555 1_555
C2Z C3QA 1_555 1_555
C3QA C3A 1_555 1_555
H1QA C3QA 1_555 1_555
O1Z C1Z 1_555 1_555
C3Z C3P 1_555 1_555
H1Z C3Z 1_555 1_555
O1D C1D 1_555 1_555
C1D C2D 1_555 1_555
C2D C3D 1_555 1_555
O3D U1D 1_555 1_555
U1D O2 1_555 1_555
C3D H1D 1_555 1_555
O1M C1D 1_555 1_555
C3M C2D 1_555 1_555
H1M C3M 1_555 1_555
O1JB C1CB 1_555 1_555
C1CB C2CB 1_555 1_555
C2CB C3JB 1_555 1_555
C3JB C3D 1_555 1_555
H1JB C3JB 1_555 1_555
O1CB C1CB 1_555 1_555
C3CB C3M 1_555 1_555
H1CB C3CB 1_555 1_555
O2C U1D 1_555 1_555
O3F U1F 1_555 1_555
U1F O2A 1_555 1_555
O2B U1F 1_555 1_555
O1E U1D 1_555 1_555
O1F U1F 1_555 1_555
O1G U1F 1_555 1_555
O1N U1 1_555 1_555
O1O U1 1_555 1_555
O1T U1D 1_555 1_555
O1U U1D 1_555 1_555
O1V U1F 1_555 1_555
O1W U1F 1_555 1_555
O2L U1D 1_555 1_555
O2M U1F 1_555 1_555
O2N U1 1_555 1_555
O2O U1 1_555 1_555
U1B O1M 1_555 1_555
U1H O2 1_555 1_555
U1J O1R 1_555 1_555
U1Z O1AA 1_555 1_555
U1Z_2 O1Z 1_555 1_555
U1FA O1OA 1_555 1_555
U1HA O1QA 1_555 1_555
U1VA O1JB 1_555 1_555
U1BB O1CB 1_555 1_555
C2AA C3AA 1_555 1_555
O2A U1J 1_555 1_555
O1P U1H 1_555 1_555
C2Z C3Z 1_555 1_555
O1D U1D 1_555 1_555
U1D O2N 1_555 1_555
C2CB C3CB 1_555 1_555
O2C U1B 1_555 1_555
O2C U1J 1_555 1_555
U1F O2O 1_555 1_555
O2B U1B 1_555 1_555
O2B U1H 1_555 1_555
O2L U1B 1_555 1_555
O2L U1H 1_555 1_555
O2M U1B 1_555 1_555
O2M U1J 1_555 1_555
O2N U1J 1_555 1_555
O2O U1H 1_555 1_555

#END
