
#######################################################################
#
#                 Cambridge Crystallographic Data Centre
#                                CCDC 
#
#######################################################################
#
# If this CIF has been generated from an entry in the Cambridge 
# Structural Database, then it will include bibliographic, chemical, 
# crystal, experimental, refinement or atomic coordinate data resulting 
# from the CCDC's data processing and validation procedures.
#
#######################################################################

data_PETWUI
_chemical_formula_moiety         'C66 O30 U11'
_symmetry_cell_setting           cubic
_symmetry_space_group_name_H-M   'F 2 3'
_symmetry_Int_Tables_number      196
_space_group_name_Hall           'F 2 2 3'
loop_
_symmetry_equiv_pos_site_id
_symmetry_equiv_pos_as_xyz
1 x,y,z
2 -x,-y,z
3 -x,y,-z
4 x,-y,-z
5 z,x,y
6 z,-x,-y
7 -z,-x,y
8 -z,x,-y
9 y,z,x
10 -y,z,-x
11 y,-z,-x
12 -y,-z,x
13 x,1/2+y,1/2+z
14 -x,1/2-y,1/2+z
15 -x,1/2+y,1/2-z
16 x,1/2-y,1/2-z
17 z,1/2+x,1/2+y
18 z,1/2-x,1/2-y
19 -z,1/2-x,1/2+y
20 -z,1/2+x,1/2-y
21 y,1/2+z,1/2+x
22 -y,1/2+z,1/2-x
23 y,1/2-z,1/2-x
24 -y,1/2-z,1/2+x
25 1/2+x,y,1/2+z
26 1/2-x,-y,1/2+z
27 1/2-x,y,1/2-z
28 1/2+x,-y,1/2-z
29 1/2+z,x,1/2+y
30 1/2+z,-x,1/2-y
31 1/2-z,-x,1/2+y
32 1/2-z,x,1/2-y
33 1/2+y,z,1/2+x
34 1/2-y,z,1/2-x
35 1/2+y,-z,1/2-x
36 1/2-y,-z,1/2+x
37 1/2+x,1/2+y,z
38 1/2-x,1/2-y,z
39 1/2-x,1/2+y,-z
40 1/2+x,1/2-y,-z
41 1/2+z,1/2+x,y
42 1/2+z,1/2-x,-y
43 1/2-z,1/2-x,y
44 1/2-z,1/2+x,-y
45 1/2+y,1/2+z,x
46 1/2-y,1/2+z,-x
47 1/2+y,1/2-z,-x
48 1/2-y,1/2-z,x
_cell_length_a                   24.56810(10)
_cell_length_b                   24.56810(10)
_cell_length_c                   24.56810(10)
_cell_angle_alpha                90
_cell_angle_beta                 90
_cell_angle_gamma                90
_cell_volume                     14829.1
loop_
_atom_site_label
_atom_site_type_symbol
_atom_site_fract_x
_atom_site_fract_y
_atom_site_fract_z
U1 U 0.110222(14) 0.000 0.000
O1 O 0.1517(2) -0.0004(8) -0.0876(3)
O2 O 0.0876(3) 0.0038(7) -0.1520(2)
O3 O 0.0426(2) -0.0426(2) 0.0426(2)
C1 C 0.1368(4) 0.0093(7) -0.1358(4)
O4 O 0.0581(2) 0.0581(2) 0.0581(2)
O5 O 0.21892(4) 0.000 0.000
C2 C 0.1672(3) 0.0115(7) -0.1883(4)
C3 C 0.2233(4) 0.0149(10) -0.1789(5)
C4 C 0.2396(6) 0.0125(15) -0.2764(6)
C5 C 0.1470(4) 0.0144(10) -0.2411(5)
C6 C 0.1823(6) 0.0100(14) -0.2850(5)
C7 C 0.1868(3) 0.0092(8) -0.1692(4)
C8 C 0.1795(4) -0.0137(11) -0.2210(6)
C9 C 0.2769(5) -0.0083(15) -0.2370(7)
C10 C 0.2390(5) 0.0179(11) -0.1492(5)
C11 C 0.2835(5) 0.0139(14) -0.1838(8)
O1Z O 0.3483(2) -0.0004(8) -0.4124(3)
O2Z O 0.4124(3) 0.0038(7) -0.3480(2)
C1Z C 0.3632(4) 0.0093(7) -0.3642(4)
C2Z C 0.3328(3) 0.0115(7) -0.3117(4)
C3Z C 0.2767(4) 0.0149(10) -0.3211(5)
C4Z C 0.2604(6) 0.0125(15) -0.2236(6)
C5Z C 0.3530(4) 0.0144(10) -0.2589(5)
C6Z C 0.3177(6) 0.0100(14) -0.2150(5)
C7Z C 0.3132(3) 0.0092(8) -0.3308(4)
C8Z C 0.3205(4) -0.0137(11) -0.2790(6)
C9Z C 0.2231(5) -0.0083(15) -0.2630(7)
C10Z C 0.2610(5) 0.0179(11) -0.3508(5)
C11Z C 0.2165(5) 0.0139(14) -0.3162(8)
O3C O 0.0426(2) 0.0426(2) -0.0426(2)
O4C O 0.0581(2) -0.0581(2) -0.0581(2)
U1D U 0.000 0.110222(14) 0.000
O5D O 0.000 0.21892(4) 0.000
U1E U -0.000 -0.110222(14) 0.000
O5E O -0.000 -0.21892(4) 0.000
O1F O 0.0876(3) -0.1517(2) -0.0004(8)
O2F O 0.1520(2) -0.0876(3) 0.0038(7)
C1F C 0.1358(4) -0.1368(4) 0.0093(7)
C2F C 0.1883(4) -0.1672(3) 0.0115(7)
C3F C 0.1789(5) -0.2233(4) 0.0149(10)
C4F C 0.2764(6) -0.2396(6) 0.0125(15)
C5F C 0.2411(5) -0.1470(4) 0.0144(10)
C6F C 0.2850(5) -0.1823(6) 0.0100(14)
C7F C 0.1692(4) -0.1868(3) 0.0092(8)
C8F C 0.2210(6) -0.1795(4) -0.0137(11)
C9F C 0.2370(7) -0.2769(5) -0.0083(15)
C10F C 0.1492(5) -0.2390(5) 0.0179(11)
C11F C 0.1838(8) -0.2835(5) 0.0139(14)
O1NA O 0.4124(3) -0.3483(2) -0.0004(8)
O2NA O 0.3480(2) -0.4124(3) 0.0038(7)
C1NA C 0.3642(4) -0.3632(4) 0.0093(7)
C2NA C 0.3117(4) -0.3328(3) 0.0115(7)
C3NA C 0.3211(5) -0.2767(4) 0.0149(10)
C4NA C 0.2236(6) -0.2604(6) 0.0125(15)
C5NA C 0.2589(5) -0.3530(4) 0.0144(10)
C6NA C 0.2150(5) -0.3177(6) 0.0100(14)
C7NA C 0.3308(4) -0.3132(3) 0.0092(8)
C8NA C 0.2790(6) -0.3205(4) -0.0137(11)
C9NA C 0.2630(7) -0.2231(5) -0.0083(15)
C10NA C 0.3508(5) -0.2610(5) 0.0179(11)
C11NA C 0.3162(8) -0.2165(5) 0.0139(14)
O1G O 0.0876(3) 0.1517(2) 0.0004(8)
O2G O 0.1520(2) 0.0876(3) -0.0038(7)
C1G C 0.1358(4) 0.1368(4) -0.0093(7)
C2G C 0.1883(4) 0.1672(3) -0.0115(7)
C3G C 0.1789(5) 0.2233(4) -0.0149(10)
C4G C 0.2764(6) 0.2396(6) -0.0125(15)
C5G C 0.2411(5) 0.1470(4) -0.0144(10)
C6G C 0.2850(5) 0.1823(6) -0.0100(14)
C7G C 0.1692(4) 0.1868(3) -0.0092(8)
C8G C 0.2210(6) 0.1795(4) 0.0137(11)
C9G C 0.2370(7) 0.2769(5) 0.0083(15)
C10G C 0.1492(5) 0.2390(5) -0.0179(11)
C11G C 0.1838(8) 0.2835(5) -0.0139(14)
O1OA O 0.4124(3) 0.3483(2) 0.0004(8)
O2OA O 0.3480(2) 0.4124(3) -0.0038(7)
C1OA C 0.3642(4) 0.3632(4) -0.0093(7)
C2OA C 0.3117(4) 0.3328(3) -0.0115(7)
C3OA C 0.3211(5) 0.2767(4) -0.0149(10)
C4OA C 0.2236(6) 0.2604(6) -0.0125(15)
C5OA C 0.2589(5) 0.3530(4) -0.0144(10)
C6OA C 0.2150(5) 0.3177(6) -0.0100(14)
C7OA C 0.3308(4) 0.3132(3) -0.0092(8)
C8OA C 0.2790(6) 0.3205(4) 0.0137(11)
C9OA C 0.2630(7) 0.2231(5) 0.0083(15)
C10OA C 0.3508(5) 0.2610(5) -0.0179(11)
C11OA C 0.3162(8) 0.2165(5) -0.0139(14)
U1H U 0.000 0.000 0.110222(14)
U1I U 0.000 -0.000 -0.110222(14)
U1Y U 0.389778(14) -0.000 -0.500
U1FA U 0.500 0.000 -0.389778(14)
U1KA U 0.389778(14) -0.500 0.000
U1KA_2 U 0.389778(14) 0.500 0.000
U1NA U 0.500 -0.389778(14) 0.000
U1OA U 0.500 0.389778(14) 0.000
O1C O 0.1517(2) 0.0004(8) 0.0876(3)
O1D O -0.0876(3) 0.1517(2) -0.0004(8)
O1E O -0.0876(3) -0.1517(2) 0.0004(8)
O2H O 0.0038(7) -0.1520(2) 0.0876(3)
O2I O -0.0038(7) -0.1520(2) -0.0876(3)
O2J O 0.0038(7) 0.1520(2) -0.0876(3)
O2K O -0.0038(7) 0.1520(2) 0.0876(3)
O3A O -0.0426(2) 0.0426(2) 0.0426(2)
O3B O -0.0426(2) -0.0426(2) -0.0426(2)
O4A O -0.0581(2) -0.0581(2) 0.0581(2)
O4B O -0.0581(2) 0.0581(2) -0.0581(2)
loop_
_geom_bond_atom_site_label_1
_geom_bond_atom_site_label_2
_geom_bond_site_symmetry_1
_geom_bond_site_symmetry_2
U1 O1 1_555 1_555
O1 C1 1_555 1_555
O2 C1 1_555 1_555
O3 U1 1_555 1_555
C1 C2 1_555 1_555
O4 U1 1_555 1_555
O5 U1 1_555 1_555
C2 C3 1_555 1_555
C3 C7 1_555 1_555
C4 C6 1_555 1_555
C5 C2 1_555 1_555
C6 C5 1_555 1_555
C7 C1 1_555 1_555
C8 C2 1_555 1_555
C9 C4 1_555 1_555
C10 C3 1_555 1_555
C11 C3 1_555 1_555
O1Z C1Z 1_555 1_555
O2Z C1Z 1_555 1_555
C1Z C2Z 1_555 1_555
C2Z C3Z 1_555 1_555
C3Z C4 1_555 1_555
C4Z C3 1_555 1_555
C5Z C2Z 1_555 1_555
C6Z C9 1_555 1_555
C7Z C1Z 1_555 1_555
C8Z C9 1_555 1_555
C9Z C4 1_555 1_555
C10Z C3Z 1_555 1_555
C11Z C4 1_555 1_555
O3C U1 1_555 1_555
O4C U1 1_555 1_555
U1D O4 1_555 1_555
O5D U1D 1_555 1_555
U1E O3 1_555 1_555
O5E U1E 1_555 1_555
O1F U1E 1_555 1_555
O2F U1 1_555 1_555
C1F O1F 1_555 1_555
C2F C1F 1_555 1_555
C3F C2F 1_555 1_555
C4F C6F 1_555 1_555
C5F C2F 1_555 1_555
C6F C5F 1_555 1_555
C7F C1F 1_555 1_555
C8F C2F 1_555 1_555
C9F C4F 1_555 1_555
C10F C3F 1_555 1_555
C11F C3F 1_555 1_555
O1NA C1NA 1_555 1_555
O2NA C1NA 1_555 1_555
C1NA C2NA 1_555 1_555
C2NA C3NA 1_555 1_555
C3NA C4F 1_555 1_555
C4NA C3F 1_555 1_555
C5NA C2NA 1_555 1_555
C6NA C9F 1_555 1_555
C7NA C1NA 1_555 1_555
C8NA C9F 1_555 1_555
C9NA C4F 1_555 1_555
C10NA C3NA 1_555 1_555
C11NA C4F 1_555 1_555
O1G U1D 1_555 1_555
O2G U1 1_555 1_555
C1G O1G 1_555 1_555
C2G C1G 1_555 1_555
C3G C2G 1_555 1_555
C4G C6G 1_555 1_555
C5G C2G 1_555 1_555
C6G C5G 1_555 1_555
C7G C1G 1_555 1_555
C8G C2G 1_555 1_555
C9G C4G 1_555 1_555
C10G C3G 1_555 1_555
C11G C3G 1_555 1_555
O1OA C1OA 1_555 1_555
O2OA C1OA 1_555 1_555
C1OA C2OA 1_555 1_555
C2OA C3OA 1_555 1_555
C3OA C4G 1_555 1_555
C4OA C3G 1_555 1_555
C5OA C2OA 1_555 1_555
C6OA C9G 1_555 1_555
C7OA C1OA 1_555 1_555
C8OA C9G 1_555 1_555
C9OA C4G 1_555 1_555
C10OA C3OA 1_555 1_555
C11OA C4G 1_555 1_555
U1H O3 1_555 1_555
U1I O2 1_555 1_555
U1Y O1Z 1_555 1_555
U1FA O2Z 1_555 1_555
U1KA O2NA 1_555 1_555
U1KA_2 O2OA 1_555 1_555
U1NA O1NA 1_555 1_555
U1OA O1OA 1_555 1_555
O1C U1 1_555 1_555
O1D U1D 1_555 1_555
O1E U1E 1_555 1_555
O2H U1E 1_555 1_555
O2I U1E 1_555 1_555
O2J U1D 1_555 1_555
O2K U1D 1_555 1_555
O3A U1D 1_555 1_555
O3B U1E 1_555 1_555
O4A U1E 1_555 1_555
O4B U1D 1_555 1_555
O4 U1H 1_555 1_555
C2 C7 1_555 1_555
C3 C8 1_555 1_555
C4 C4Z 1_555 1_555
C5 C8 1_555 1_555
C6 C8 1_555 1_555
C6 C9Z 1_555 1_555
C6 C11Z 1_555 1_555
C7 C8 1_555 1_555
C7 C10 1_555 1_555
C8 C9Z 1_555 1_555
C9 C11 1_555 1_555
C9 C4Z 1_555 1_555
C9 C9Z 1_555 1_555
C10 C11 1_555 1_555
C11 C4Z 1_555 1_555
C11 C6Z 1_555 1_555
C2Z C7Z 1_555 1_555
C2Z C8Z 1_555 1_555
C3Z C7Z 1_555 1_555
C3Z C8Z 1_555 1_555
C3Z C11Z 1_555 1_555
C4Z C6Z 1_555 1_555
C4Z C9Z 1_555 1_555
C5Z C6Z 1_555 1_555
C5Z C8Z 1_555 1_555
C6Z C8Z 1_555 1_555
C7Z C8Z 1_555 1_555
C7Z C10Z 1_555 1_555
C9Z C11Z 1_555 1_555
C10Z C11Z 1_555 1_555
O3C U1D 1_555 1_555
O3C U1I 1_555 1_555
O4C U1E 1_555 1_555
O4C U1I 1_555 1_555
O2F C1F 1_555 1_555
C2F C7F 1_555 1_555
C3F C7F 1_555 1_555
C3F C8F 1_555 1_555
C4F C4NA 1_555 1_555
C5F C8F 1_555 1_555
C6F C8F 1_555 1_555
C6F C9NA 1_555 1_555
C6F C11NA 1_555 1_555
C7F C8F 1_555 1_555
C7F C10F 1_555 1_555
C8F C9NA 1_555 1_555
C9F C11F 1_555 1_555
C9F C4NA 1_555 1_555
C9F C9NA 1_555 1_555
C10F C11F 1_555 1_555
C11F C4NA 1_555 1_555
C11F C6NA 1_555 1_555
C2NA C7NA 1_555 1_555
C2NA C8NA 1_555 1_555
C3NA C7NA 1_555 1_555
C3NA C8NA 1_555 1_555
C3NA C11NA 1_555 1_555
C4NA C6NA 1_555 1_555
C4NA C9NA 1_555 1_555
C5NA C6NA 1_555 1_555
C5NA C8NA 1_555 1_555
C6NA C8NA 1_555 1_555
C7NA C8NA 1_555 1_555
C7NA C10NA 1_555 1_555
C9NA C11NA 1_555 1_555
C10NA C11NA 1_555 1_555
O2G C1G 1_555 1_555
C2G C7G 1_555 1_555
C3G C7G 1_555 1_555
C3G C8G 1_555 1_555
C4G C4OA 1_555 1_555
C5G C8G 1_555 1_555
C6G C8G 1_555 1_555
C6G C9OA 1_555 1_555
C6G C11OA 1_555 1_555
C7G C8G 1_555 1_555
C7G C10G 1_555 1_555
C8G C9OA 1_555 1_555
C9G C11G 1_555 1_555
C9G C4OA 1_555 1_555
C9G C9OA 1_555 1_555
C10G C11G 1_555 1_555
C11G C4OA 1_555 1_555
C11G C6OA 1_555 1_555
C2OA C7OA 1_555 1_555
C2OA C8OA 1_555 1_555
C3OA C7OA 1_555 1_555
C3OA C8OA 1_555 1_555
C3OA C11OA 1_555 1_555
C4OA C6OA 1_555 1_555
C4OA C9OA 1_555 1_555
C5OA C6OA 1_555 1_555
C5OA C8OA 1_555 1_555
C6OA C8OA 1_555 1_555
C7OA C8OA 1_555 1_555
C7OA C10OA 1_555 1_555
C9OA C11OA 1_555 1_555
C10OA C11OA 1_555 1_555
U1H O3A 1_555 1_555
U1H O4A 1_555 1_555
U1I O3B 1_555 1_555
U1I O4B 1_555 1_555

#END
