
#######################################################################
#
#                 Cambridge Crystallographic Data Centre
#                                CCDC 
#
#######################################################################
#
# If this CIF has been generated from an entry in the Cambridge 
# Structural Database, then it will include bibliographic, chemical, 
# crystal, experimental, refinement or atomic coordinate data resulting 
# from the CCDC's data processing and validation procedures.
#
#######################################################################

data_PETXAP
_chemical_formula_moiety         'C66 O32 U12'
_symmetry_cell_setting           cubic
_symmetry_space_group_name_H-M   'F m -3 m'
_symmetry_Int_Tables_number      225
_space_group_name_Hall           '-F 4 2 3'
loop_
_symmetry_equiv_pos_site_id
_symmetry_equiv_pos_as_xyz
1 x,y,z
2 -x,-y,z
3 -x,y,-z
4 x,-y,-z
5 z,x,y
6 z,-x,-y
7 -z,-x,y
8 -z,x,-y
9 y,z,x
10 -y,z,-x
11 y,-z,-x
12 -y,-z,x
13 y,x,-z
14 -y,-x,-z
15 y,-x,z
16 -y,x,z
17 x,z,-y
18 -x,z,y
19 -x,-z,-y
20 x,-z,y
21 z,y,-x
22 z,-y,x
23 -z,y,x
24 -z,-y,-x
25 x,1/2+y,1/2+z
26 -x,1/2-y,1/2+z
27 -x,1/2+y,1/2-z
28 x,1/2-y,1/2-z
29 z,1/2+x,1/2+y
30 z,1/2-x,1/2-y
31 -z,1/2-x,1/2+y
32 -z,1/2+x,1/2-y
33 y,1/2+z,1/2+x
34 -y,1/2+z,1/2-x
35 y,1/2-z,1/2-x
36 -y,1/2-z,1/2+x
37 y,1/2+x,1/2-z
38 -y,1/2-x,1/2-z
39 y,1/2-x,1/2+z
40 -y,1/2+x,1/2+z
41 x,1/2+z,1/2-y
42 -x,1/2+z,1/2+y
43 -x,1/2-z,1/2-y
44 x,1/2-z,1/2+y
45 z,1/2+y,1/2-x
46 z,1/2-y,1/2+x
47 -z,1/2+y,1/2+x
48 -z,1/2-y,1/2-x
49 1/2+x,y,1/2+z
50 1/2-x,-y,1/2+z
51 1/2-x,y,1/2-z
52 1/2+x,-y,1/2-z
53 1/2+z,x,1/2+y
54 1/2+z,-x,1/2-y
55 1/2-z,-x,1/2+y
56 1/2-z,x,1/2-y
57 1/2+y,z,1/2+x
58 1/2-y,z,1/2-x
59 1/2+y,-z,1/2-x
60 1/2-y,-z,1/2+x
61 1/2+y,x,1/2-z
62 1/2-y,-x,1/2-z
63 1/2+y,-x,1/2+z
64 1/2-y,x,1/2+z
65 1/2+x,z,1/2-y
66 1/2-x,z,1/2+y
67 1/2-x,-z,1/2-y
68 1/2+x,-z,1/2+y
69 1/2+z,y,1/2-x
70 1/2+z,-y,1/2+x
71 1/2-z,y,1/2+x
72 1/2-z,-y,1/2-x
73 1/2+x,1/2+y,z
74 1/2-x,1/2-y,z
75 1/2-x,1/2+y,-z
76 1/2+x,1/2-y,-z
77 1/2+z,1/2+x,y
78 1/2+z,1/2-x,-y
79 1/2-z,1/2-x,y
80 1/2-z,1/2+x,-y
81 1/2+y,1/2+z,x
82 1/2-y,1/2+z,-x
83 1/2+y,1/2-z,-x
84 1/2-y,1/2-z,x
85 1/2+y,1/2+x,-z
86 1/2-y,1/2-x,-z
87 1/2+y,1/2-x,z
88 1/2-y,1/2+x,z
89 1/2+x,1/2+z,-y
90 1/2-x,1/2+z,y
91 1/2-x,1/2-z,-y
92 1/2+x,1/2-z,y
93 1/2+z,1/2+y,-x
94 1/2+z,1/2-y,x
95 1/2-z,1/2+y,x
96 1/2-z,1/2-y,-x
97 -x,-y,-z
98 x,y,-z
99 x,-y,z
100 -x,y,z
101 -z,-x,-y
102 -z,x,y
103 z,x,-y
104 z,-x,y
105 -y,-z,-x
106 y,-z,x
107 -y,z,x
108 y,z,-x
109 -y,-x,z
110 y,x,z
111 -y,x,-z
112 y,-x,-z
113 -x,-z,y
114 x,-z,-y
115 x,z,y
116 -x,z,-y
117 -z,-y,x
118 -z,y,-x
119 z,-y,-x
120 z,y,x
121 -x,1/2-y,1/2-z
122 x,1/2+y,1/2-z
123 x,1/2-y,1/2+z
124 -x,1/2+y,1/2+z
125 -z,1/2-x,1/2-y
126 -z,1/2+x,1/2+y
127 z,1/2+x,1/2-y
128 z,1/2-x,1/2+y
129 -y,1/2-z,1/2-x
130 y,1/2-z,1/2+x
131 -y,1/2+z,1/2+x
132 y,1/2+z,1/2-x
133 -y,1/2-x,1/2+z
134 y,1/2+x,1/2+z
135 -y,1/2+x,1/2-z
136 y,1/2-x,1/2-z
137 -x,1/2-z,1/2+y
138 x,1/2-z,1/2-y
139 x,1/2+z,1/2+y
140 -x,1/2+z,1/2-y
141 -z,1/2-y,1/2+x
142 -z,1/2+y,1/2-x
143 z,1/2-y,1/2-x
144 z,1/2+y,1/2+x
145 1/2-x,-y,1/2-z
146 1/2+x,y,1/2-z
147 1/2+x,-y,1/2+z
148 1/2-x,y,1/2+z
149 1/2-z,-x,1/2-y
150 1/2-z,x,1/2+y
151 1/2+z,x,1/2-y
152 1/2+z,-x,1/2+y
153 1/2-y,-z,1/2-x
154 1/2+y,-z,1/2+x
155 1/2-y,z,1/2+x
156 1/2+y,z,1/2-x
157 1/2-y,-x,1/2+z
158 1/2+y,x,1/2+z
159 1/2-y,x,1/2-z
160 1/2+y,-x,1/2-z
161 1/2-x,-z,1/2+y
162 1/2+x,-z,1/2-y
163 1/2+x,z,1/2+y
164 1/2-x,z,1/2-y
165 1/2-z,-y,1/2+x
166 1/2-z,y,1/2-x
167 1/2+z,-y,1/2-x
168 1/2+z,y,1/2+x
169 1/2-x,1/2-y,-z
170 1/2+x,1/2+y,-z
171 1/2+x,1/2-y,z
172 1/2-x,1/2+y,z
173 1/2-z,1/2-x,-y
174 1/2-z,1/2+x,y
175 1/2+z,1/2+x,-y
176 1/2+z,1/2-x,y
177 1/2-y,1/2-z,-x
178 1/2+y,1/2-z,x
179 1/2-y,1/2+z,x
180 1/2+y,1/2+z,-x
181 1/2-y,1/2-x,z
182 1/2+y,1/2+x,z
183 1/2-y,1/2+x,-z
184 1/2+y,1/2-x,-z
185 1/2-x,1/2-z,y
186 1/2+x,1/2-z,-y
187 1/2+x,1/2+z,y
188 1/2-x,1/2+z,-y
189 1/2-z,1/2-y,x
190 1/2-z,1/2+y,-x
191 1/2+z,1/2-y,-x
192 1/2+z,1/2+y,x
_cell_length_a                   27.4526(9)
_cell_length_b                   27.4526(9)
_cell_length_c                   27.4526(9)
_cell_angle_alpha                90
_cell_angle_beta                 90
_cell_angle_gamma                90
_cell_volume                     20689.5
loop_
_atom_site_label
_atom_site_type_symbol
_atom_site_fract_x
_atom_site_fract_y
_atom_site_fract_z
U1 U 0.000 0.90113(4) 0.500
O1 O 0.000 0.8647(4) 0.5762(4)
C1 C 0.000 0.8803(4) 0.6197(4)
C2 C 0.000 0.8412(4) 0.6588(4)
C3 C 0.000 0.7696(4) 0.7304(4)
O2 O -0.000 0.8028(13) 0.500
C4 C 0.0167(8) 0.7945(5) 0.6480(5)
C5 C 0.0151(9) 0.7584(4) 0.6831(5)
O3 O -0.0482(4) 0.9518(4) 0.4518(4)
O1Q O 0.000 0.5762(4) 0.8647(4)
C1Q C 0.000 0.6197(4) 0.8803(4)
C2Q C 0.000 0.6588(4) 0.8412(4)
C3Q C 0.000 0.7304(4) 0.7696(4)
C4Q C -0.0167(8) 0.6480(5) 0.7945(5)
C5Q C -0.0151(9) 0.6831(5) 0.7584(4)
C4UC C -0.0167(8) 0.7945(5) 0.6480(5)
C5UC C -0.0151(9) 0.7584(4) 0.6831(5)
C4JD C 0.0167(8) 0.6480(5) 0.7945(5)
C5JD C 0.0151(9) 0.6831(5) 0.7584(4)
O1AA O 0.000 0.6353(4) 0.9238(4)
C4AA C 0.0167(8) 0.7055(5) 0.8520(5)
C5AA C 0.0151(9) 0.7416(4) 0.8169(5)
O1PA O 0.000 0.9238(4) 0.6353(4)
C4PA C -0.0167(8) 0.8520(5) 0.7055(5)
C5PA C -0.0151(9) 0.8169(5) 0.7416(4)
C4PD C -0.0167(8) 0.7055(5) 0.8520(5)
C5PD C -0.0151(9) 0.7416(4) 0.8169(5)
C4GE C 0.0167(8) 0.8520(5) 0.7055(5)
C5GE C 0.0151(9) 0.8169(5) 0.7416(4)
O1B O 0.000 0.8647(4) 0.4238(4)
C1B C -0.000 0.8803(4) 0.3803(4)
C2B C 0.000 0.8412(4) 0.3412(4)
C3B C 0.000 0.7696(4) 0.2696(4)
C4B C -0.0167(8) 0.7945(5) 0.3520(5)
C5B C -0.0151(9) 0.7584(4) 0.3169(5)
O3B O 0.0482(4) 0.9518(4) 0.5482(4)
O1P O 0.000 0.5762(4) 0.1353(4)
C1P C 0.000 0.6197(4) 0.1197(4)
C2P C 0.000 0.6588(4) 0.1588(4)
C3P C -0.000 0.7304(4) 0.2304(4)
C4P C 0.0167(8) 0.6480(5) 0.2055(5)
C5P C 0.0151(9) 0.6831(5) 0.2416(4)
C4SC C 0.0167(8) 0.7945(5) 0.3520(5)
C5SC C 0.0151(9) 0.7584(4) 0.3169(5)
C4KD C -0.0167(8) 0.6480(5) 0.2055(5)
C5KD C -0.0151(9) 0.6831(5) 0.2416(4)
O1Y O 0.000 0.6353(4) 0.0762(4)
C4Y C -0.0167(8) 0.7055(5) 0.1480(5)
C5Y C -0.0151(9) 0.7416(4) 0.1831(5)
O1QA O 0.000 0.9238(4) 0.3647(4)
C4QA C 0.0167(8) 0.8520(5) 0.2945(5)
C5QA C 0.0151(9) 0.8169(5) 0.2584(4)
C4RD C 0.0167(8) 0.7055(5) 0.1480(5)
C5RD C 0.0151(9) 0.7416(4) 0.1831(5)
C4FE C -0.0167(8) 0.8520(5) 0.2945(5)
C5FE C -0.0151(9) 0.8169(5) 0.2584(4)
U1L U -0.09887(4) 1.000 0.500
O1L O -0.1353(4) 1.000 0.4238(4)
C1L C -0.1197(4) 1.000 0.3803(4)
C2L C -0.1588(4) 1.000 0.3412(4)
C3L C -0.2304(4) 1.000 0.2696(4)
O2L O -0.1972(13) 1.000 0.500
C4L C -0.2055(5) 1.0167(8) 0.3520(5)
C5L C -0.2416(4) 1.0151(9) 0.3169(5)
O3L O -0.0482(4) 0.9518(4) 0.5482(4)
O1E O -0.4238(4) 1.000 0.1353(4)
C1E C -0.3803(4) 1.000 0.1197(4)
C2E C -0.3412(4) 1.000 0.1588(4)
C3E C -0.2696(4) 1.000 0.2304(4)
C4E C -0.3520(5) 0.9833(8) 0.2055(5)
C5E C -0.3169(5) 0.9849(9) 0.2416(4)
C4GD C -0.2055(5) 0.9833(8) 0.3520(5)
C5GD C -0.2416(4) 0.9849(9) 0.3169(5)
C4XC C -0.3520(5) 1.0167(8) 0.2055(5)
C5XC C -0.3169(5) 1.0151(9) 0.2416(4)
O1KB O -0.3647(4) 1.000 0.0762(4)
C4KB C -0.2945(5) 1.0167(8) 0.1480(5)
C5KB C -0.2584(4) 1.0151(9) 0.1831(5)
O1BB O -0.0762(4) 1.000 0.3647(4)
C4BB C -0.1480(5) 0.9833(8) 0.2945(5)
C5BB C -0.1831(5) 0.9849(9) 0.2584(4)
C4ZE C -0.2945(5) 0.9833(8) 0.1480(5)
C5ZE C -0.2584(4) 0.9849(9) 0.1831(5)
C4SE C -0.1480(5) 1.0167(8) 0.2945(5)
C5SE C -0.1831(5) 1.0151(9) 0.2584(4)
U1M U 0.09887(4) 1.000 0.500
O2M O 0.1972(13) 1.000 0.500
O3M O 0.0482(4) 1.0482(4) 0.5482(4)
U1A U 0.000 1.09887(4) 0.500
U1E U -0.500 1.000 0.09887(4)
U1P U -0.000 0.500 0.09887(4)
U1Q U 0.000 0.500 0.90113(4)
U1Y U 0.000 0.59887(4) 0.000
U1Y_2 U -0.000 0.59887(4) 1.000
U1NA U -0.000 1.000 0.59887(4)
U1OA U 0.000 1.000 0.40113(4)
U1IB U -0.40113(4) 1.000 0.000
O1M O 0.1353(4) 1.000 0.4238(4)
O1N O -0.1353(4) 1.000 0.5762(4)
O1O O 0.1353(4) 1.000 0.5762(4)
O1FA O -0.1353(4) 1.0762(4) 0.500
O1GA O 0.1353(4) 1.0762(4) 0.500
O1HA O -0.1353(4) 0.9238(4) 0.500
O1IA O 0.1353(4) 0.9238(4) 0.500
O1PB O 0.0762(4) 0.8647(4) 0.500
O1RB O -0.0762(4) 0.8647(4) 0.500
O3A O 0.0482(4) 1.0482(4) 0.4518(4)
O3C O -0.0482(4) 1.0482(4) 0.5482(4)
O3N O -0.0482(4) 1.0482(4) 0.4518(4)
O3O O 0.0482(4) 0.9518(4) 0.4518(4)
loop_
_geom_bond_atom_site_label_1
_geom_bond_atom_site_label_2
_geom_bond_site_symmetry_1
_geom_bond_site_symmetry_2
U1 O1 1_555 1_555
O1 C1 1_555 1_555
C1 C2 1_555 1_555
C2 C4 1_555 1_555
C3 C5 1_555 1_555
O2 U1 1_555 1_555
C4 C5 1_555 1_555
C5 C4UC 1_555 1_555
O3 U1 1_555 1_555
O1Q C1Q 1_555 1_555
C1Q C2Q 1_555 1_555
C2Q C4Q 1_555 1_555
C3Q C3 1_555 1_555
C4Q C5Q 1_555 1_555
C5Q C3Q 1_555 1_555
C4UC C2 1_555 1_555
C5UC C3 1_555 1_555
C4JD C2Q 1_555 1_555
C5JD C3Q 1_555 1_555
O1AA C1Q 1_555 1_555
C4AA C2Q 1_555 1_555
C5AA C3Q 1_555 1_555
O1PA C1 1_555 1_555
C4PA C2 1_555 1_555
C5PA C3 1_555 1_555
C4PD C2Q 1_555 1_555
C5PD C3Q 1_555 1_555
C4GE C2 1_555 1_555
C5GE C3 1_555 1_555
O1B U1 1_555 1_555
C1B O1B 1_555 1_555
C2B C1B 1_555 1_555
C3B C5B 1_555 1_555
C4B C2B 1_555 1_555
C5B C4B 1_555 1_555
O3B U1 1_555 1_555
O1P C1P 1_555 1_555
C1P C2P 1_555 1_555
C2P C4P 1_555 1_555
C3P C3B 1_555 1_555
C4P C5P 1_555 1_555
C5P C3P 1_555 1_555
C4SC C2B 1_555 1_555
C5SC C3B 1_555 1_555
C4KD C2P 1_555 1_555
C5KD C3P 1_555 1_555
O1Y C1P 1_555 1_555
C4Y C2P 1_555 1_555
C5Y C3P 1_555 1_555
O1QA C1B 1_555 1_555
C4QA C2B 1_555 1_555
C5QA C3B 1_555 1_555
C4RD C2P 1_555 1_555
C5RD C3P 1_555 1_555
C4FE C2B 1_555 1_555
C5FE C3B 1_555 1_555
U1L O3 1_555 1_555
O1L U1L 1_555 1_555
C1L O1L 1_555 1_555
C2L C1L 1_555 1_555
C3L C5L 1_555 1_555
O2L U1L 1_555 1_555
C4L C2L 1_555 1_555
C5L C4L 1_555 1_555
O3L U1 1_555 1_555
O1E C1E 1_555 1_555
C1E C2E 1_555 1_555
C2E C4E 1_555 1_555
C3E C3L 1_555 1_555
C4E C5E 1_555 1_555
C5E C3E 1_555 1_555
C4GD C2L 1_555 1_555
C5GD C3L 1_555 1_555
C4XC C2E 1_555 1_555
C5XC C3E 1_555 1_555
O1KB C1E 1_555 1_555
C4KB C2E 1_555 1_555
C5KB C3E 1_555 1_555
O1BB C1L 1_555 1_555
C4BB C2L 1_555 1_555
C5BB C3L 1_555 1_555
C4ZE C2E 1_555 1_555
C5ZE C3E 1_555 1_555
C4SE C2L 1_555 1_555
C5SE C3L 1_555 1_555
U1M O3B 1_555 1_555
O2M U1M 1_555 1_555
O3M U1M 1_555 1_555
U1A O3M 1_555 1_555
U1E O1E 1_555 1_555
U1P O1P 1_555 1_555
U1Q O1Q 1_555 1_555
U1Y O1Y 1_555 1_555
U1Y_2 O1AA 1_555 1_555
U1NA O1PA 1_555 1_555
U1OA O3 1_555 1_555
U1IB O1KB 1_555 1_555
O1M U1M 1_555 1_555
O1N U1L 1_555 1_555
O1O U1M 1_555 1_555
O1FA U1L 1_555 1_555
O1GA U1M 1_555 1_555
O1HA U1L 1_555 1_555
O1IA U1M 1_555 1_555
O1PB U1 1_555 1_555
O1RB U1 1_555 1_555
O3A U1M 1_555 1_555
O3C U1L 1_555 1_555
O3N U1L 1_555 1_555
O3O U1 1_555 1_555
C4 C4UC 1_555 1_555
C4 C5UC 1_555 1_555
C5 C5UC 1_555 1_555
C4Q C4JD 1_555 1_555
C4Q C5JD 1_555 1_555
C5Q C4JD 1_555 1_555
C5Q C5JD 1_555 1_555
C4UC C5UC 1_555 1_555
C4JD C5JD 1_555 1_555
C4AA C5AA 1_555 1_555
C4AA C4PD 1_555 1_555
C4AA C5PD 1_555 1_555
C5AA C4PD 1_555 1_555
C5AA C5PD 1_555 1_555
C4PA C5PA 1_555 1_555
C4PA C4GE 1_555 1_555
C4PA C5GE 1_555 1_555
C5PA C4GE 1_555 1_555
C5PA C5GE 1_555 1_555
C4PD C5PD 1_555 1_555
C4GE C5GE 1_555 1_555
C4B C4SC 1_555 1_555
C4B C5SC 1_555 1_555
C5B C4SC 1_555 1_555
C5B C5SC 1_555 1_555
O3B U1NA 1_555 1_555
C4P C4KD 1_555 1_555
C4P C5KD 1_555 1_555
C5P C4KD 1_555 1_555
C5P C5KD 1_555 1_555
C4SC C5SC 1_555 1_555
C4KD C5KD 1_555 1_555
C4Y C5Y 1_555 1_555
C4Y C4RD 1_555 1_555
C4Y C5RD 1_555 1_555
C5Y C4RD 1_555 1_555
C5Y C5RD 1_555 1_555
O1QA U1OA 1_555 1_555
C4QA C5QA 1_555 1_555
C4QA C4FE 1_555 1_555
C4QA C5FE 1_555 1_555
C5QA C4FE 1_555 1_555
C5QA C5FE 1_555 1_555
C4RD C5RD 1_555 1_555
C4FE C5FE 1_555 1_555
U1L O3L 1_555 1_555
C4L C4GD 1_555 1_555
C4L C5GD 1_555 1_555
C5L C4GD 1_555 1_555
C5L C5GD 1_555 1_555
O3L U1NA 1_555 1_555
C4E C4XC 1_555 1_555
C4E C5XC 1_555 1_555
C5E C4XC 1_555 1_555
C5E C5XC 1_555 1_555
C4GD C5GD 1_555 1_555
C4XC C5XC 1_555 1_555
C4KB C5KB 1_555 1_555
C4KB C4ZE 1_555 1_555
C4KB C5ZE 1_555 1_555
C5KB C4ZE 1_555 1_555
C5KB C5ZE 1_555 1_555
O1BB U1OA 1_555 1_555
C4BB C5BB 1_555 1_555
C4BB C4SE 1_555 1_555
C4BB C5SE 1_555 1_555
C5BB C4SE 1_555 1_555
C5BB C5SE 1_555 1_555
C4ZE C5ZE 1_555 1_555
C4SE C5SE 1_555 1_555
U1M O3O 1_555 1_555
O3M U1NA 1_555 1_555
U1A O3A 1_555 1_555
U1A O3C 1_555 1_555
U1A O3N 1_555 1_555
U1NA O3C 1_555 1_555
U1OA O3A 1_555 1_555
U1OA O3N 1_555 1_555
U1OA O3O 1_555 1_555

#END
