
#######################################################################
#
#                 Cambridge Crystallographic Data Centre
#                                CCDC 
#
#######################################################################
#
# If this CIF has been generated from an entry in the Cambridge 
# Structural Database, then it will include bibliographic, chemical, 
# crystal, experimental, refinement or atomic coordinate data resulting 
# from the CCDC's data processing and validation procedures.
#
#######################################################################

data_KOLWEO
_chemical_formula_moiety         '(C104 H88 N6 Ni3 O18)n'
_symmetry_cell_setting           rhombohedral
_symmetry_space_group_name_H-M   'R -3 c'
_symmetry_Int_Tables_number      167
_space_group_name_Hall           '-R 3 2"c'
loop_
_symmetry_equiv_pos_site_id
_symmetry_equiv_pos_as_xyz
1 x,y,z
2 -y,x-y,z
3 -x+y,-x,z
4 y,x,1/2-z
5 2/3+x,1/3+y,1/3+z
6 2/3-y,1/3+x-y,1/3+z
7 2/3-x+y,1/3-x,1/3+z
8 2/3+y,1/3+x,5/6-z
9 1/3+x,2/3+y,2/3+z
10 1/3+y,2/3+x,1/6-z
11 x-y,-y,1/2-z
12 -x,-x+y,1/2-z
13 1/3-y,2/3+x-y,2/3+z
14 1/3-x+y,2/3-x,2/3+z
15 1/3+x-y,2/3-y,1/6-z
16 1/3-x,2/3-x+y,1/6-z
17 2/3+x-y,1/3-y,5/6-z
18 2/3-x,1/3-x+y,5/6-z
19 -x,-y,-z
20 y,-x+y,-z
21 x-y,x,-z
22 -y,-x,1/2+z
23 1/3-x,2/3-y,2/3-z
24 1/3+y,2/3-x+y,2/3-z
25 1/3+x-y,2/3+x,2/3-z
26 1/3-y,2/3-x,1/6+z
27 2/3-x,1/3-y,1/3-z
28 2/3-y,1/3-x,5/6+z
29 -x+y,y,1/2+z
30 x,x-y,1/2+z
31 2/3+y,1/3-x+y,1/3-z
32 2/3+x-y,1/3+x,1/3-z
33 2/3-x+y,1/3+y,5/6+z
34 2/3+x,1/3+x-y,5/6+z
35 1/3-x+y,2/3+y,1/6+z
36 1/3+x,2/3+x-y,1/6+z
_cell_length_a                   31.053(2)
_cell_length_b                   31.053(2)
_cell_length_c                   16.9025(12)
_cell_angle_alpha                90
_cell_angle_beta                 90
_cell_angle_gamma                120.00
_cell_volume                     14115.3
loop_
_atom_site_label
_atom_site_type_symbol
_atom_site_fract_x
_atom_site_fract_y
_atom_site_fract_z
C16 C 0.49344(10) 0.33842(13) 0.1580(2)
H12 H 0.4882 0.3310 0.2117
C17 C 0.4800(2) 0.3020(3) 0.1022(6)
H13 H 0.4647 0.2686 0.1206
C18 C 0.5155(2) 0.3861(3) 0.1288(5)
C19 C 0.5303(4) 0.4261(4) 0.1885(6)
H14 H 0.5007 0.4269 0.2068
H15 H 0.5537 0.4582 0.1646
H16 H 0.5461 0.4196 0.2335
C20 C 0.4824(3) 0.3056(5) 0.1687(6)
H17 H 0.4805 0.2980 0.2235
C21 C 0.4573(3) 0.2652(4) 0.1155(5)
H18 H 0.4389 0.2314 0.1315
C22 C 0.5107(3) 0.35727(17) 0.1466(8)
H19 H 0.5272 0.3836 0.1836
C16N C 0.48835(16) 0.32825(13) 0.0087(2)
H12N H 0.4905 0.3357 -0.0450
C17N C 0.5113(4) 0.3647(3) 0.0645(6)
H13N H 0.5294 0.3981 0.0461
C18N C 0.4627(4) 0.2806(3) 0.0379(5)
C19N C 0.4375(6) 0.2406(4) -0.0218(6)
H14N H 0.4071 0.2398 -0.0401
H15N H 0.4288 0.2085 0.0021
H16N H 0.4598 0.2471 -0.0668
C20N C 0.5101(6) 0.3611(5) -0.0020(6)
H17N H 0.5158 0.3687 -0.0568
C21N C 0.5254(5) 0.4015(4) 0.0512(5)
H18N H 0.5408 0.4353 0.0352
C22N C 0.48676(34) 0.30940(17) 0.0201(8)
H19N H 0.4769 0.2831 -0.0169
Ni1 Ni 0.285576(16) 0.3333 0.0833
O1 O 0.24498(8) 0.25894(8) 0.10422(13)
O2 O 0.34345(8) 0.34646(9) 0.16035(13)
O3 O 0.26038(9) 0.22520(9) -0.00022(16)
N1 N 0.23886(9) 0.32776(10) -0.00910(15)
C1 C 0.23486(12) 0.22304(12) 0.0580(2)
C2 C 0.18833(12) 0.17470(12) 0.0764(2)
C3 C 0.04141(13) -0.00572(12) 0.1135(2)
H1 H 0.0699 -0.0095 0.1139
C4 C 0.11027(13) 0.13031(13) 0.1472(2)
H2 H 0.0879 0.1302 0.1856
C5 C 0.17671(12) 0.13136(12) 0.0370(2)
H3 H 0.1994 0.1312 -0.0005
C6 C 0.04750(13) 0.04209(12) 0.1133(2)
C7 C 0.18169(12) 0.33186(13) -0.1340(2)
C8 C 0.09765(12) 0.08678(12) 0.1050(2)
C9 C 0.13233(12) 0.08799(12) 0.0514(2)
H4 H 0.1254 0.0584 0.0242
C10 C 0.15515(12) 0.17366(12) 0.1336(2)
H5 H 0.1634 0.2028 0.1633
C11 C 0.38373(17) 0.3483(2) 0.1183(3)
H6 H 0.4015 0.3369 0.1536
H7 H 0.4073 0.3832 0.1036
C12 C 0.16058(15) 0.3048(2) -0.0666(3)
H8 H 0.1254 0.2869 -0.0612
C13 C 0.19013(15) 0.30345(19) -0.0063(3)
H9 H 0.1743 0.2840 0.0392
C14 C 0.25913(13) 0.35462(17) -0.0732(2)
H10 H 0.2944 0.3735 -0.0763
C15 C 0.23174(10) 0.35663(13) -0.1360(2)
H11 H 0.2485 0.3758 -0.1814
H20 H 0.3571 0.3820 0.1735
Ni1A Ni -0.3333 -0.047724(16) 0.0833
Ni1B Ni 0.047724(16) -0.285576(16) 0.0833
Ni1O Ni 0.047757(16) 0.714391(16) 0.0834
Ni1I Ni 0.6666 0.952243(16) 0.0834
Ni1V Ni 0.047757(16) 0.3334 -0.4166
Ni1U Ni -0.3333 -0.285576(16) -0.4167
Ni1CA Ni 0.285576(16) 0.952276(16) -0.4167
O1A O -0.25894(8) -0.01396(11) 0.10422(13)
O1B O 0.01396(11) -0.24498(8) 0.10422(13)
O1N O 0.31937(11) 0.40773(8) 0.06245(13)
O1O O 0.08835(8) 0.68063(11) 0.06245(13)
O1I O 0.59227(8) 0.91165(8) 0.06245(13)
O1I_2 O -0.40773(8) -0.08835(8) 0.06245(13)
O1B_2 O 0.01396(11) 0.75502(8) 0.10422(13)
O2N O 0.33032(12) 0.32021(9) 0.00632(13)
O2A O -0.34646(9) -0.00301(12) 0.16035(13)
O2I O -0.32021(9) 0.01012(8) 0.00632(13)
O2B O 0.00301(12) 0.65655(8) 0.16035(13)
O2O O -0.01012(8) 0.66968(12) 0.00632(13)
O3A O -0.22520(9) 0.03518(13) -0.00022(16)
O3B O -0.03518(13) -0.26038(9) -0.00022(16)
O3N O 0.36851(13) 0.44147(9) 0.16689(16)
O3O O 0.07295(9) 0.63149(13) 0.16689(16)
O3I O 0.55853(9) 0.92705(9) 0.16689(16)
N1V N 0.09447(9) 0.33891(10) -0.32423(15)
N1N N 0.24443(13) 0.33891(10) 0.17577(15)
N1A N -0.32776(10) -0.08890(13) -0.00910(15)
N1W N -0.33891(10) -0.24443(13) -0.32423(15)
N1I N -0.33891(10) -0.09447(9) 0.17577(15)
N1B N 0.08890(13) 0.76114(9) -0.00910(15)
N1O N 0.09447(9) 0.75557(13) 0.17577(15)
N1X N 0.24443(13) 0.90553(9) -0.32423(15)
C1A C -0.22304(12) 0.01182(17) 0.0580(2)
C1B C -0.01182(17) -0.23486(12) 0.0580(2)
C1N C 0.34515(17) 0.44363(12) 0.1087(2)
C1O C 0.09847(12) 0.65485(17) 0.1087(2)
C1I C 0.55637(12) 0.90153(12) 0.1087(2)
C2A C -0.17470(12) 0.01363(17) 0.0764(2)
C2B C -0.01363(17) -0.18833(12) 0.0764(2)
C2N C 0.34696(17) 0.49197(12) 0.0903(2)
C2O C 0.14500(12) 0.65304(17) 0.0903(2)
C2I C 0.50803(12) 0.85500(12) 0.0903(2)
C3B C -0.04713(18) -0.04141(13) 0.1135(2)
C3A C 0.00572(12) 0.04713(18) 0.1135(2)
C3N C 0.38046(18) 0.67239(12) 0.0532(2)
C3I C 0.32761(12) 0.70808(13) 0.0532(2)
C3O C 0.29192(13) 0.61954(18) 0.0532(2)
H1B H -0.0794 -0.0699 0.1139
H1A H 0.0095 0.0794 0.1139
H1N H 0.4127 0.6762 0.0528
H1I H 0.3238 0.7366 0.0528
H1O H 0.2634 0.5873 0.0528
C4A C -0.13031(13) -0.02004(18) 0.1472(2)
C4B C 0.02004(18) -0.11027(13) 0.1472(2)
C4N C 0.31329(18) 0.53636(13) 0.0195(2)
C4O C 0.22306(13) 0.68671(18) 0.0195(2)
C4I C 0.46364(13) 0.77694(13) 0.0195(2)
H2A H -0.1302 -0.0423 0.1856
H2B H 0.0423 -0.0879 0.1856
H2N H 0.2910 0.5365 -0.0189
H2O H 0.2454 0.7090 -0.0189
H2I H 0.4635 0.7546 -0.0189
C5A C -0.13136(12) 0.04535(17) 0.0370(2)
C5B C -0.04535(17) -0.17671(12) 0.0370(2)
C5N C 0.37868(17) 0.53531(12) 0.1297(2)
C5O C 0.15662(12) 0.62132(17) 0.1297(2)
C5I C 0.46469(12) 0.84338(12) 0.1297(2)
H3A H -0.1312 0.0682 -0.0005
H3B H -0.0682 -0.1994 -0.0005
H3N H 0.4015 0.5355 0.1672
H3O H 0.1339 0.5985 0.1672
H3I H 0.4645 0.8661 0.1672
C6B C -0.00541(18) -0.04750(13) 0.1133(2)
C6A C -0.04209(12) 0.00541(18) 0.1133(2)
C6N C 0.33874(18) 0.62458(12) 0.0534(2)
C6I C 0.37542(12) 0.71417(13) 0.0534(2)
C6O C 0.28583(13) 0.66126(18) 0.0534(2)
C7V C 0.15164(12) 0.33481(13) -0.1993(2)
C7A C -0.33186(13) -0.15017(18) -0.1340(2)
C7W C -0.33481(13) -0.18316(18) -0.1993(2)
C7B C 0.15017(18) 0.81831(12) -0.1340(2)
C7X C 0.18316(18) 0.84836(12) -0.1993(2)
C8A C -0.08678(12) 0.01087(17) 0.1050(2)
C8B C -0.01087(17) -0.09765(12) 0.1050(2)
C8N C 0.34420(17) 0.57989(12) 0.0617(2)
C8O C 0.23568(12) 0.65580(17) 0.0617(2)
C8I C 0.42011(12) 0.76432(12) 0.0617(2)
C9A C -0.08799(12) 0.04434(17) 0.0514(2)
C9B C -0.04434(17) -0.13233(12) 0.0514(2)
C9N C 0.37767(17) 0.57868(12) 0.1153(2)
C9O C 0.20100(12) 0.62233(17) 0.1153(2)
C9I C 0.42132(12) 0.79900(12) 0.1153(2)
H4A H -0.0584 0.0670 0.0242
H4B H -0.0670 -0.1254 0.0242
H4N H 0.4003 0.6083 0.1425
H4O H 0.2079 0.5997 0.1425
H4I H 0.3917 0.7921 0.1425
C10A C -0.17366(12) -0.01851(17) 0.1336(2)
C10B C 0.01851(17) -0.15515(12) 0.1336(2)
C10N C 0.31482(17) 0.49301(12) 0.0331(2)
C10O C 0.17818(12) 0.68518(17) 0.0331(2)
C10I C 0.50699(12) 0.82182(12) 0.0331(2)
H5A H -0.2028 -0.0394 0.1633
H5B H 0.0394 -0.1634 0.1633
H5N H 0.2939 0.4639 0.0034
H5O H 0.1699 0.7061 0.0034
H5I H 0.5361 0.8301 0.0034
C11N C 0.36876(26) 0.3184(2) 0.0484(3)
C11A C -0.3483(2) 0.03543(26) 0.1183(3)
C11I C -0.3184(2) 0.05040(17) 0.0484(3)
C11B C -0.03543(26) 0.61627(17) 0.1183(3)
C11O C -0.05040(17) 0.63124(26) 0.0484(3)
H6N H 0.3979 0.3298 0.0131
H6A H -0.3369 0.0646 0.1536
H6I H -0.3298 0.0682 0.0131
H6B H -0.0646 0.5985 0.1536
H6O H -0.0682 0.6021 0.0131
H7N H 0.3574 0.2835 0.0631
H7A H -0.3832 0.0241 0.1036
H7I H -0.2835 0.0740 0.0631
H7B H -0.0241 0.5927 0.1036
H7O H -0.0740 0.6426 0.0631
C12V C 0.17275(15) 0.3619(2) -0.2667(3)
C12A C -0.3048(2) -0.14422(25) -0.0666(3)
C12W C -0.3619(2) -0.18911(25) -0.2667(3)
C12B C 0.14422(25) 0.83942(15) -0.0666(3)
C12X C 0.18911(25) 0.82725(15) -0.2667(3)
H8V H 0.2079 0.3798 -0.2721
H8A H -0.2869 -0.1615 -0.0612
H8W H -0.3798 -0.1718 -0.2721
H8B H 0.1615 0.8746 -0.0612
H8X H 0.1718 0.7921 -0.2721
C13V C 0.14320(15) 0.36322(19) -0.3270(3)
C13A C -0.30345(19) -0.11332(24) -0.0063(3)
C13W C -0.36322(19) -0.22001(24) -0.3270(3)
C13B C 0.11332(24) 0.80987(15) -0.0063(3)
C13X C 0.22001(24) 0.85680(15) -0.3270(3)
H9V H 0.1590 0.3827 -0.3725
H9A H -0.2840 -0.1097 0.0392
H9W H -0.3827 -0.2236 -0.3725
H9B H 0.1097 0.8257 0.0392
H9X H 0.2236 0.8410 -0.3725
C14V C 0.07420(13) 0.31205(17) -0.2601(2)
C14A C -0.35462(17) -0.09549(21) -0.0732(2)
C14W C -0.31205(17) -0.23784(21) -0.2601(2)
C14B C 0.09549(21) 0.74087(13) -0.0732(2)
C14X C 0.23784(21) 0.92580(13) -0.2601(2)
H10V H 0.0389 0.2932 -0.2570
H10A H -0.3735 -0.0791 -0.0763
H10W H -0.2932 -0.2542 -0.2570
H10B H 0.0791 0.7056 -0.0763
H10X H 0.2542 0.9611 -0.2570
C15V C 0.10159(10) 0.31004(13) -0.1973(2)
C15A C -0.35663(13) -0.12489(16) -0.1360(2)
C15W C -0.31004(13) -0.20844(16) -0.1973(2)
C15B C 0.12489(16) 0.76826(10) -0.1360(2)
C15X C 0.20844(16) 0.89841(10) -0.1973(2)
H11V H 0.0848 0.2909 -0.1519
H11A H -0.3758 -0.1273 -0.1814
H11W H -0.2909 -0.2060 -0.1519
H11B H 0.1273 0.7515 -0.1814
H11X H 0.2060 0.9152 -0.1519
H20N H 0.3084 0.2847 -0.0068
H20A H -0.3820 -0.0249 0.1735
H20I H -0.2847 0.0238 -0.0068
H20B H 0.0249 0.6429 0.1735
H20O H -0.0238 0.6916 -0.0068
loop_
_geom_bond_atom_site_label_1
_geom_bond_atom_site_label_2
_geom_bond_site_symmetry_1
_geom_bond_site_symmetry_2
Ni1 O1 1_555 1_555
O1 C1 1_555 1_555
O2 Ni1 1_555 1_555
O3 C1 1_555 1_555
N1 Ni1 1_555 1_555
C1 C2 1_555 1_555
C2 C5 1_555 1_555
C3 H1 1_555 1_555
C4 H2 1_555 1_555
C5 H3 1_555 1_555
C6 C3 1_555 1_555
C7 C12 1_555 1_555
C8 C4 1_555 1_555
C9 C5 1_555 1_555
H4 C9 1_555 1_555
C10 C2 1_555 1_555
H5 C10 1_555 1_555
C11 O2 1_555 1_555
H6 C11 1_555 1_555
H7 C11 1_555 1_555
C12 H8 1_555 1_555
C13 N1 1_555 1_555
H9 C13 1_555 1_555
C14 N1 1_555 1_555
H10 C14 1_555 1_555
C15 C7 1_555 1_555
H11 C15 1_555 1_555
C16 H12 1_555 1_555
H12 C20 1_555 1_555
C17 C16 1_555 1_555
H13 C17 1_555 1_555
C18 C16 1_555 1_555
C19 C18 1_555 1_555
H14 C19 1_555 1_555
H15 C19 1_555 1_555
H16 C19 1_555 1_555
C20 C16 1_555 1_555
H17 C20 1_555 1_555
C21 C17 1_555 1_555
H18 C21 1_555 1_555
C22 C16 1_555 1_555
H19 C18 1_555 1_555
H20 O2 1_555 1_555
Ni1A O1A 1_555 1_555
Ni1B O1B 1_555 1_555
Ni1O O1O 1_555 1_555
Ni1I O1I 1_555 1_555
Ni1V N1V 1_555 1_555
Ni1U N1W 1_555 1_555
Ni1CA N1X 1_555 1_555
O1A C1A 1_555 1_555
O1B C1B 1_555 1_555
O1N Ni1 1_555 1_555
O1O C1O 1_555 1_555
O1I C1I 1_555 1_555
O1I_2 Ni1A 1_555 1_555
O1B_2 Ni1O 1_555 1_555
O2N Ni1 1_555 1_555
O2A Ni1A 1_555 1_555
O2I Ni1A 1_555 1_555
O2B Ni1O 1_555 1_555
O2O Ni1O 1_555 1_555
O3A C1A 1_555 1_555
O3B C1B 1_555 1_555
O3N C1N 1_555 1_555
O3O C1O 1_555 1_555
O3I C1I 1_555 1_555
N1V C13V 1_555 1_555
N1N Ni1 1_555 1_555
N1A Ni1A 1_555 1_555
N1W C13W 1_555 1_555
N1I Ni1A 1_555 1_555
N1B Ni1O 1_555 1_555
N1O Ni1O 1_555 1_555
N1X C13X 1_555 1_555
C1A C2A 1_555 1_555
C1B C2B 1_555 1_555
C1N O1N 1_555 1_555
C1O C2O 1_555 1_555
C1I C2I 1_555 1_555
C2A C5A 1_555 1_555
C2B C5B 1_555 1_555
C2N C1N 1_555 1_555
C2O C5O 1_555 1_555
C2I C5I 1_555 1_555
C3B H1B 1_555 1_555
C3A C6 1_555 1_555
C3N H1N 1_555 1_555
C3I H1I 1_555 1_555
C3O H1O 1_555 1_555
H1A C3A 1_555 1_555
C4A H2A 1_555 1_555
C4B H2B 1_555 1_555
C4N H2N 1_555 1_555
C4O H2O 1_555 1_555
C4I H2I 1_555 1_555
C5A H3A 1_555 1_555
C5B H3B 1_555 1_555
C5N C2N 1_555 1_555
C5O H3O 1_555 1_555
C5I H3I 1_555 1_555
H3N C5N 1_555 1_555
C6B C3 1_555 1_555
C6A C3B 1_555 1_555
C6N C3N 1_555 1_555
C6I C3N 1_555 1_555
C6O C3I 1_555 1_555
C7V C7 1_555 1_555
C7A C7W 1_555 1_555
C7W C12W 1_555 1_555
C7B C7X 1_555 1_555
C7X C12X 1_555 1_555
C8A C4A 1_555 1_555
C8B C4B 1_555 1_555
C8N C4N 1_555 1_555
C8O C4O 1_555 1_555
C8I C4I 1_555 1_555
C9A C5A 1_555 1_555
C9B C5B 1_555 1_555
C9N C5N 1_555 1_555
C9O C5O 1_555 1_555
C9I C5I 1_555 1_555
H4A C9A 1_555 1_555
H4B C9B 1_555 1_555
H4N C9N 1_555 1_555
H4O C9O 1_555 1_555
H4I C9I 1_555 1_555
C10A C2A 1_555 1_555
C10B C2B 1_555 1_555
C10N C2N 1_555 1_555
C10O C2O 1_555 1_555
C10I C2I 1_555 1_555
H5A C10A 1_555 1_555
H5B C10B 1_555 1_555
H5N C10N 1_555 1_555
H5O C10O 1_555 1_555
H5I C10I 1_555 1_555
C11N C11 1_555 1_555
C11A O2A 1_555 1_555
C11I O2I 1_555 1_555
C11B O2B 1_555 1_555
C11O O2O 1_555 1_555
H6N C11N 1_555 1_555
H6A C11A 1_555 1_555
H6I C11I 1_555 1_555
H6B C11B 1_555 1_555
H6O C11O 1_555 1_555
H7N C11N 1_555 1_555
H7A C11A 1_555 1_555
H7I C11I 1_555 1_555
H7B C11B 1_555 1_555
H7O C11O 1_555 1_555
C12V C7V 1_555 1_555
C12A C7A 1_555 1_555
C12W H8W 1_555 1_555
C12B C7B 1_555 1_555
C12X H8X 1_555 1_555
H8V C12V 1_555 1_555
H8A C12A 1_555 1_555
H8B C12B 1_555 1_555
C13V C12V 1_555 1_555
C13A N1A 1_555 1_555
C13W C12W 1_555 1_555
C13B N1B 1_555 1_555
C13X C12X 1_555 1_555
H9V C13V 1_555 1_555
H9A C13A 1_555 1_555
H9W C13W 1_555 1_555
H9B C13B 1_555 1_555
H9X C13X 1_555 1_555
C14V N1V 1_555 1_555
C14A N1A 1_555 1_555
C14W N1W 1_555 1_555
C14B N1B 1_555 1_555
C14X N1X 1_555 1_555
H10V C14V 1_555 1_555
H10A C14A 1_555 1_555
H10W C14W 1_555 1_555
H10B C14B 1_555 1_555
H10X C14X 1_555 1_555
C15V C7V 1_555 1_555
C15A C7A 1_555 1_555
C15W C7W 1_555 1_555
C15B C7B 1_555 1_555
C15X C7X 1_555 1_555
H11V C15V 1_555 1_555
H11A C15A 1_555 1_555
H11W C15W 1_555 1_555
H11B C15B 1_555 1_555
H11X C15X 1_555 1_555
C16N C17 1_555 1_555
H12N C16N 1_555 1_555
C17N C16 1_555 1_555
H13N C17N 1_555 1_555
C18N C17 1_555 1_555
C19N C18N 1_555 1_555
H14N C19N 1_555 1_555
H15N C19N 1_555 1_555
H16N C19N 1_555 1_555
C20N C16N 1_555 1_555
H17N C20N 1_555 1_555
C21N C18 1_555 1_555
H18N C21N 1_555 1_555
C22N C17 1_555 1_555
H19N C18N 1_555 1_555
H20N O2N 1_555 1_555
H20A O2A 1_555 1_555
H20I O2I 1_555 1_555
H20B O2B 1_555 1_555
H20O O2O 1_555 1_555
C4 C10 1_555 1_555
C6 C8 1_555 1_555
C8 C9 1_555 1_555
C12 C13 1_555 1_555
C14 C15 1_555 1_555
C17 C20 1_555 1_555
C17 C22 1_555 1_555
H13 C20 1_555 1_555
H13 C21 1_555 1_555
C18 C22 1_555 1_555
C18 C17N 1_555 1_555
C19 H19 1_555 1_555
C20 C21 1_555 1_555
C20 C22 1_555 1_555
C21 C18N 1_555 1_555
C22 H19 1_555 1_555
C22 C17N 1_555 1_555
O2N C11N 1_555 1_555
C3B C6B 1_555 1_555
C3A C6A 1_555 1_555
C3I C6I 1_555 1_555
C3O C6N 1_555 1_555
C3O C6O 1_555 1_555
C4A C10A 1_555 1_555
C4B C10B 1_555 1_555
C4N C10N 1_555 1_555
C4O C10O 1_555 1_555
C4I C10I 1_555 1_555
C6B C8B 1_555 1_555
C6A C8A 1_555 1_555
C6N C8N 1_555 1_555
C6I C8I 1_555 1_555
C6O C8O 1_555 1_555
C8A C9A 1_555 1_555
C8B C9B 1_555 1_555
C8N C9N 1_555 1_555
C8O C9O 1_555 1_555
C8I C9I 1_555 1_555
C11A C11I 1_555 1_555
C11B C11O 1_555 1_555
C12A C13A 1_555 1_555
C12B C13B 1_555 1_555
C14V C15V 1_555 1_555
C14A C15A 1_555 1_555
C14W C15W 1_555 1_555
C14B C15B 1_555 1_555
C14X C15X 1_555 1_555
C16N C17N 1_555 1_555
C16N C18N 1_555 1_555
C16N C22N 1_555 1_555
H12N C20N 1_555 1_555
C17N C20N 1_555 1_555
C17N C21N 1_555 1_555
C17N C22N 1_555 1_555
H13N C20N 1_555 1_555
H13N C21N 1_555 1_555
C18N C22N 1_555 1_555
C19N H19N 1_555 1_555
C20N C21N 1_555 1_555
C20N C22N 1_555 1_555
C22N H19N 1_555 1_555

#END
