
#######################################################################
#
#                 Cambridge Crystallographic Data Centre
#                                CCDC 
#
#######################################################################
#
# If this CIF has been generated from an entry in the Cambridge 
# Structural Database, then it will include bibliographic, chemical, 
# crystal, experimental, refinement or atomic coordinate data resulting 
# from the CCDC's data processing and validation procedures.
#
#######################################################################

data_KOLWAK
_chemical_formula_moiety         '(C74 H48 N4 Ni2 O12)n'
_symmetry_cell_setting           monoclinic
_symmetry_space_group_name_H-M   'P 21/n'
_symmetry_Int_Tables_number      14
_space_group_name_Hall           '-P 2yn'
loop_
_symmetry_equiv_pos_site_id
_symmetry_equiv_pos_as_xyz
1 x,y,z
2 1/2-x,1/2+y,1/2-z
3 -x,-y,-z
4 1/2+x,1/2-y,1/2+z
_cell_length_a                   14.4662(18)
_cell_length_b                   30.099(4)
_cell_length_c                   16.497(2)
_cell_angle_alpha                90
_cell_angle_beta                 91.872(2)
_cell_angle_gamma                90
_cell_volume                     7179.26
loop_
_atom_site_label
_atom_site_type_symbol
_atom_site_fract_x
_atom_site_fract_y
_atom_site_fract_z
Ni1 Ni 0.50631(5) 0.22767(3) 1.09802(5)
N1 N 0.5975(4) 0.23334(18) 1.0031(4)
C1 C 0.5055(4) 0.5017(2) 1.1190(4)
Ni2 Ni -0.04005(5) 0.72238(2) 0.93817(5)
N2 N 0.9106(3) 0.27225(16) 0.6890(3)
C2 C 0.5820(4) 0.5271(2) 1.1436(4)
H1 H 0.6400 0.5128 1.1526
N3 N -0.1357(3) 0.72993(16) 1.0305(3)
C3 C 0.5759(4) 0.5729(2) 1.1555(4)
N4 N -0.4464(3) 0.77902(15) 1.3432(3)
C4 C 0.4922(4) 0.5938(2) 1.1418(4)
H2 H 0.4879 0.6251 1.1491
C5 C 0.4141(4) 0.5700(2) 1.1174(4)
C6 C 0.4222(4) 0.5238(2) 1.1048(4)
H3 H 0.3695 0.5075 1.0860
C7 C 0.5106(4) 0.4526(2) 1.1104(4)
C8 C 0.4469(4) 0.4299(2) 1.0602(4)
H4 H 0.4042 0.4462 1.0270
C9 C 0.4454(4) 0.3838(2) 1.0584(4)
H5 H 0.4010 0.3690 1.0244
C10 C 0.5078(4) 0.3591(2) 1.1058(4)
C11 C 0.5739(4) 0.3821(2) 1.1542(4)
H6 H 0.6189 0.3660 1.1854
C12 C 0.5738(4) 0.4275(2) 1.1566(4)
H7 H 0.6181 0.4423 1.1907
C13 C 0.5059(4) 0.3095(2) 1.1048(4)
O1 O 0.4455(3) 0.28985(14) 1.0603(3)
O2 O 0.5639(3) 0.28749(13) 1.1468(3)
C14 C 0.6599(4) 0.5988(2) 1.1844(4)
C15 C 0.7432(5) 0.5941(2) 1.1507(5)
H8 H 0.7472 0.5765 1.1032
C16 C 0.8235(5) 0.6141(2) 1.1824(5)
H9 H 0.8813 0.6100 1.1576
C17 C 0.8163(5) 0.6401(2) 1.2515(4)
C18 C 0.7316(4) 0.6469(2) 1.2851(5)
H10 H 0.7262 0.6656 1.3311
C19 C 0.6552(4) 0.6264(2) 1.2513(4)
H11 H 0.5969 0.6313 1.2746
C20 C 0.9029(4) 0.6588(2) 1.2905(5)
O3 O 0.9791(3) 0.6419(2) 1.2676(4)
O4 O 0.8967(3) 0.68921(14) 1.3423(3)
C21 C 0.3215(4) 0.5916(2) 1.1019(4)
C22 C 0.2423(5) 0.5744(3) 1.1315(5)
H12 H 0.2460 0.5489 1.1653
C23 C 0.1568(4) 0.5930(2) 1.1135(4)
H13 H 0.1028 0.5804 1.1352
C24 C 0.1498(4) 0.6302(2) 1.0638(4)
C25 C 0.2301(4) 0.6485(2) 1.0367(4)
H14 H 0.2269 0.6753 1.0064
C26 C 0.3162(4) 0.6288(2) 1.0524(4)
H15 H 0.3703 0.6407 1.0295
C27 C 0.0577(4) 0.6488(2) 1.0375(4)
O5 O 0.0535(3) 0.68493(13) 1.0018(2)
O6 O -0.0112(3) 0.62357(15) 1.0472(3)
C28 C 0.0016(4) -0.0073(2) 0.8747(4)
C29 C -0.0718(4) 0.0164(2) 0.8395(4)
H16 H -0.1279 0.0013 0.8262
C30 C -0.0654(4) 0.06103(18) 0.8233(4)
C31 C 0.0153(4) 0.0839(2) 0.8475(4)
H17 H 0.0194 0.1150 0.8380
C32 C 0.0898(4) 0.0618(2) 0.8854(4)
C33 C 0.0820(4) 0.0155(2) 0.8965(4)
H18 H 0.1332 -0.0005 0.9193
C34 C -0.0048(4) -0.0560(2) 0.8883(4)
C35 C 0.0487(4) -0.0776(2) 0.9474(4)
H19 H 0.0911 -0.0609 0.9804
C36 C 0.0414(4) -0.1237(2) 0.9594(4)
H20 H 0.0791 -0.1379 0.9999
C37 C -0.0200(4) -0.14844(19) 0.9129(4)
C38 C -0.0755(4) -0.1269(2) 0.8546(4)
H21 H -0.1203 -0.1433 0.8238
C39 C -0.0659(4) -0.0818(2) 0.8414(4)
H22 H -0.1019 -0.0680 0.7992
C40 C -0.0295(4) -0.1970(2) 0.9257(4)
O7 O 0.0240(3) -0.21699(12) 0.9765(3)
O8 O -0.0903(3) -0.21831(13) 0.8858(2)
C41 C -0.1393(4) 0.0832(2) 0.7724(4)
C42 C -0.1931(4) 0.0584(2) 0.7176(4)
H23 H -0.1852 0.0270 0.7166
C43 C -0.2570(4) 0.0772(2) 0.6651(4)
H24 H -0.2895 0.0593 0.6262
C44 C -0.2739(4) 0.12198(19) 0.6691(4)
C45 C -0.2248(4) 0.1472(2) 0.7249(4)
H25 H -0.2364 0.1782 0.7281
C46 C -0.1591(5) 0.1283(2) 0.7763(5)
H26 H -0.1268 0.1464 0.8150
C47 C -0.3426(4) 0.1434(2) 0.6103(4)
O9 O -0.3572(3) 0.12101(15) 0.5454(3)
O10 O -0.3773(3) 0.17958(13) 0.6258(2)
C48 C 0.1783(5) 0.0874(4) 0.9023(8)
C49 C 0.1742(8) 0.1290(4) 0.9411(9)
H27 H 0.1159 0.1422 0.9508
C50 C 0.2550(9) 0.1507(5) 0.9651(14)
H28 H 0.2500 0.1787 0.9912
C51 C 0.3437(7) 0.1338(4) 0.9530(8)
C52 C 0.3466(7) 0.0918(4) 0.9204(8)
H29 H 0.4047 0.0775 0.9160
C53 C 0.2668(7) 0.0698(4) 0.8937(8)
H30 H 0.2727 0.0415 0.8686
C54 C 0.4301(8) 0.1555(4) 0.9862(8)
O11 O 0.4187(9) 0.1912(4) 1.0272(7)
O12 O 0.5066(6) 0.1374(3) 0.9723(8)
C62 C 0.9342(5) 0.2665(3) 0.7701(4)
H35 H 0.9982 0.2688 0.7845
C63 C 0.8807(4) 0.2586(3) 0.8275(5)
H36 H 0.9051 0.2524 0.8804
C64 C 0.7858(4) 0.2590(2) 0.8120(4)
C65 C 0.7562(4) 0.2679(2) 0.7332(4)
H37 H 0.6920 0.2699 0.7196
C66 C 0.8207(4) 0.27375(19) 0.6744(5)
H38 H 0.7990 0.2792 0.6203
C67 C 0.5758(4) 0.2590(3) 0.9372(5)
H39 H 0.5165 0.2725 0.9345
C68 C 0.6323(4) 0.2666(2) 0.8754(4)
H40 H 0.6108 0.2838 0.8304
C69 C 0.7209(4) 0.24968(19) 0.8765(4)
C70 C 0.7449(4) 0.2228(2) 0.9434(4)
H41 H 0.8040 0.2091 0.9472
C71 C 0.6831(5) 0.2163(2) 1.0031(5)
H42 H 0.7023 0.1985 1.0481
C72 C -0.2258(4) 0.72088(19) 1.0236(4)
H43 H -0.2490 0.7075 0.9749
C73 C -0.2870(4) 0.73007(19) 1.0839(4)
H44 H -0.3501 0.7219 1.0765
C74 C -0.2578(4) 0.75092(19) 1.1545(4)
C75 C -0.1659(4) 0.7619(2) 1.1608(4)
H45 H -0.1417 0.7767 1.2077
C76 C -0.1089(4) 0.7512(3) 1.0982(4)
H46 H -0.0457 0.7596 1.1038
C77 C -0.4689(4) 0.7825(2) 1.2659(4)
H47 H -0.5310 0.7908 1.2528
C78 C -0.4088(5) 0.7751(2) 1.1971(4)
H48 H -0.4285 0.7785 1.1419
C79 C -0.3220(4) 0.76274(18) 1.2212(4)
C80 C -0.2938(4) 0.76041(19) 1.3023(4)
H49 H -0.2318 0.7529 1.3174
C81 C -0.3567(4) 0.76911(18) 1.3600(4)
H50 H -0.3363 0.7681 1.4153
H51 H -0.409(2) 0.125(3) 0.514(3)
H52 H 1.030(2) 0.642(3) 1.301(3)
Ni1C Ni 1.00631(5) 0.27233(3) 0.59802(5)
Ni1A Ni 0.99369(5) 0.72767(3) 1.40198(5)
Ni2C Ni -0.54005(5) 0.77762(2) 1.43817(5)
Ni2_2 Ni -0.04005(5) -0.27762(2) 0.93817(5)
Ni2A Ni -0.45995(5) 0.22238(2) 0.56183(5)
N2C N 0.4106(3) 0.22775(16) 1.1890(3)
N4C N 0.0536(3) 0.72098(15) 0.8432(3)
O4A O 0.6033(3) 0.18921(14) 1.1577(3)
O7_2 O 0.0240(3) 0.78301(12) 0.9765(3)
O8_2 O -0.0903(3) 0.78169(13) 0.8858(2)
O10A O -0.1227(3) 0.67958(13) 0.8742(2)
loop_
_geom_bond_atom_site_label_1
_geom_bond_atom_site_label_2
_geom_bond_site_symmetry_1
_geom_bond_site_symmetry_2
Ni1 N1 1_555 1_555
N1 C67 1_555 1_555
C1 C2 1_555 1_555
Ni2 N3 1_555 1_555
N2 C62 1_555 1_555
C2 H1 1_555 1_555
N3 C72 1_555 1_555
C3 C2 1_555 1_555
N4 C77 1_555 1_555
C4 C3 1_555 1_555
H2 C4 1_555 1_555
C5 C4 1_555 1_555
C6 C1 1_555 1_555
H3 C6 1_555 1_555
C7 C1 1_555 1_555
C8 C7 1_555 1_555
H4 C8 1_555 1_555
C9 C8 1_555 1_555
H5 C9 1_555 1_555
C10 C9 1_555 1_555
C11 C10 1_555 1_555
H6 C11 1_555 1_555
C12 C7 1_555 1_555
H7 C12 1_555 1_555
C13 C10 1_555 1_555
O1 Ni1 1_555 1_555
O2 Ni1 1_555 1_555
C14 C3 1_555 1_555
C15 C14 1_555 1_555
H8 C15 1_555 1_555
C16 C15 1_555 1_555
H9 C16 1_555 1_555
C17 C16 1_555 1_555
C18 C17 1_555 1_555
H10 C18 1_555 1_555
C19 C14 1_555 1_555
H11 C19 1_555 1_555
C20 C17 1_555 1_555
O3 C20 1_555 1_555
O4 C20 1_555 1_555
C21 C5 1_555 1_555
C22 C21 1_555 1_555
H12 C22 1_555 1_555
C23 C22 1_555 1_555
H13 C23 1_555 1_555
C24 C23 1_555 1_555
C25 C24 1_555 1_555
H14 C25 1_555 1_555
C26 C21 1_555 1_555
H15 C26 1_555 1_555
C27 C24 1_555 1_555
O5 Ni2 1_555 1_555
O6 C27 1_555 1_555
C28 C29 1_555 1_555
C29 H16 1_555 1_555
C30 C29 1_555 1_555
C31 C30 1_555 1_555
H17 C31 1_555 1_555
C32 C31 1_555 1_555
C33 C28 1_555 1_555
H18 C33 1_555 1_555
C34 C28 1_555 1_555
C35 C34 1_555 1_555
H19 C35 1_555 1_555
C36 C35 1_555 1_555
H20 C36 1_555 1_555
C37 C36 1_555 1_555
C38 C37 1_555 1_555
H21 C38 1_555 1_555
C39 C34 1_555 1_555
H22 C39 1_555 1_555
C40 C37 1_555 1_555
O7 C40 1_555 1_555
O8 C40 1_555 1_555
C41 C30 1_555 1_555
C42 C41 1_555 1_555
H23 C42 1_555 1_555
C43 C42 1_555 1_555
H24 C43 1_555 1_555
C44 C43 1_555 1_555
C45 C44 1_555 1_555
H25 C45 1_555 1_555
C46 C41 1_555 1_555
H26 C46 1_555 1_555
C47 C44 1_555 1_555
O9 C47 1_555 1_555
O10 C47 1_555 1_555
C48 C32 1_555 1_555
C49 C48 1_555 1_555
H27 C49 1_555 1_555
C50 C49 1_555 1_555
H28 C50 1_555 1_555
C51 C50 1_555 1_555
C52 C51 1_555 1_555
H29 C52 1_555 1_555
C53 C48 1_555 1_555
H30 C53 1_555 1_555
C54 C51 1_555 1_555
O11 Ni1 1_555 1_555
O12 C54 1_555 1_555
C62 H35 1_555 1_555
C63 C62 1_555 1_555
H36 C63 1_555 1_555
C64 C63 1_555 1_555
C65 C64 1_555 1_555
H37 C65 1_555 1_555
C66 N2 1_555 1_555
H38 C66 1_555 1_555
C67 H39 1_555 1_555
C68 C67 1_555 1_555
H40 C68 1_555 1_555
C69 C64 1_555 1_555
C70 C69 1_555 1_555
H41 C70 1_555 1_555
C71 N1 1_555 1_555
H42 C71 1_555 1_555
C72 H43 1_555 1_555
C73 C72 1_555 1_555
H44 C73 1_555 1_555
C74 C73 1_555 1_555
C75 C74 1_555 1_555
H45 C75 1_555 1_555
C76 N3 1_555 1_555
H46 C76 1_555 1_555
C77 H47 1_555 1_555
C78 C77 1_555 1_555
H48 C78 1_555 1_555
C79 C74 1_555 1_555
C80 C79 1_555 1_555
H49 C80 1_555 1_555
C81 N4 1_555 1_555
H50 C81 1_555 1_555
H51 O9 1_555 1_555
H52 O3 1_555 1_555
Ni1C N2 1_555 1_555
Ni1A O4 1_555 1_555
Ni2C N4 1_555 1_555
Ni2_2 O7 1_555 1_555
Ni2A O10 1_555 1_555
N2C Ni1 1_555 1_555
N4C Ni2 1_555 1_555
O4A Ni1 1_555 1_555
O7_2 Ni2 1_555 1_555
O8_2 Ni2 1_555 1_555
O10A Ni2 1_555 1_555
C5 C6 1_555 1_555
C11 C12 1_555 1_555
C13 O1 1_555 1_555
C13 O2 1_555 1_555
C18 C19 1_555 1_555
C25 C26 1_555 1_555
C27 O5 1_555 1_555
C32 C33 1_555 1_555
C38 C39 1_555 1_555
O8 Ni2_2 1_555 1_555
C45 C46 1_555 1_555
C52 C53 1_555 1_555
C54 O11 1_555 1_555
C65 C66 1_555 1_555
C68 C69 1_555 1_555
C70 C71 1_555 1_555
C75 C76 1_555 1_555
C78 C79 1_555 1_555
C80 C81 1_555 1_555

#END
