
#######################################################################
#
#                 Cambridge Crystallographic Data Centre
#                                CCDC 
#
#######################################################################
#
# If this CIF has been generated from an entry in the Cambridge 
# Structural Database, then it will include bibliographic, chemical, 
# crystal, experimental, refinement or atomic coordinate data resulting 
# from the CCDC's data processing and validation procedures.
#
#######################################################################

data_HORHAY
_chemical_formula_moiety         '(C66 H68 Cd2 N25 O4 3+)n'
_symmetry_cell_setting           rhombohedral
_symmetry_space_group_name_H-M   'R -3'
_symmetry_Int_Tables_number      148
_space_group_name_Hall           '-R 3'
loop_
_symmetry_equiv_pos_site_id
_symmetry_equiv_pos_as_xyz
1 x,y,z
2 -y,x-y,z
3 -x+y,-x,z
4 2/3+x,1/3+y,1/3+z
5 2/3-y,1/3+x-y,1/3+z
6 2/3-x+y,1/3-x,1/3+z
7 1/3+x,2/3+y,2/3+z
8 1/3-y,2/3+x-y,2/3+z
9 1/3-x+y,2/3-x,2/3+z
10 -x,-y,-z
11 y,-x+y,-z
12 x-y,x,-z
13 1/3-x,2/3-y,2/3-z
14 1/3+y,2/3-x+y,2/3-z
15 1/3+x-y,2/3+x,2/3-z
16 2/3-x,1/3-y,1/3-z
17 2/3+y,1/3-x+y,1/3-z
18 2/3+x-y,1/3+x,1/3-z
_cell_length_a                   21.5594(12)
_cell_length_b                   21.5594(12)
_cell_length_c                   14.9195(16)
_cell_angle_alpha                90
_cell_angle_beta                 90
_cell_angle_gamma                120
_cell_volume                     6005.63
loop_
_atom_site_label
_atom_site_type_symbol
_atom_site_fract_x
_atom_site_fract_y
_atom_site_fract_z
Cd1 Cd -0.0000 -0.0000 -0.5000
Cd2 Cd -0.0000 -0.0000 -1.0000
N1 N 0.0751(3) 0.2081(2) -0.8586(3)
N2 N 0.0215(2) 0.0979(2) -0.9103(3)
N3 N 0.1749(2) 0.1648(2) -0.6712(3)
N4 N 0.1011(3) 0.0719(2) -0.5893(4)
C1 C 0.1488(3) 0.3083(2) -0.7539(3)
C2 C 0.1343(3) 0.3592(3) -0.7207(4)
H1 H 0.1121 0.3767 -0.7582
C3 C 0.1822(3) 0.2812(2) -0.6984(3)
C4 C 0.1292(4) 0.2842(3) -0.8512(4)
H2 H 0.1720 0.2929 -0.8833
H3 H 0.1111 0.3125 -0.8794
C5 C 0.0781(3) 0.1621(3) -0.9169(3)
H4 H 0.1156 0.1742 -0.9569
C6 C -0.0194(3) 0.1032(3) -0.8438(4)
H5 H -0.0631 0.0659 -0.8239
C7 C 0.0135(4) 0.1708(3) -0.8116(4)
H6 H -0.0029 0.1883 -0.7660
C8 C 0.2033(3) 0.2277(3) -0.7298(4)
H7 H 0.1855 0.2124 -0.7902
H8 H 0.2551 0.2506 -0.7314
C9 C 0.1077(3) 0.1244(3) -0.6409(4)
H9 H 0.0703 0.1325 -0.6547
C10 C 0.1670(4) 0.0786(4) -0.5890(5)
H10 H 0.1788 0.0481 -0.5589
C11 C 0.2127(3) 0.1349(4) -0.6376(5)
H11 H 0.2610 0.1507 -0.6469
Cd1F Cd 0.3333 0.6667 -0.8333
Cd1F_2 Cd -0.6667 -0.3333 -0.8333
Cd1F_3 Cd 0.3333 -0.3333 -0.8333
Cd2F Cd 0.3333 0.6667 -0.3333
Cd2F_2 Cd -0.6667 -0.3333 -0.3333
Cd2F_3 Cd 0.3333 -0.3333 -0.3333
N1L N 0.2582(3) 0.4586(2) -0.4747(3)
N1A N -0.2081(2) -0.1330(4) -0.8586(3)
N1M N -0.4586(2) -0.2003(4) -0.4747(3)
N1B N 0.1330(4) -0.0751(3) -0.8586(3)
N1N N 0.2003(4) -0.2582(3) -0.4747(3)
N2L N 0.3118(2) 0.5688(2) -0.4230(3)
N2A N -0.0979(2) -0.0764(3) -0.9103(3)
N2M N -0.5688(2) -0.2569(3) -0.4230(3)
N2B N 0.0764(3) -0.0215(2) -0.9103(3)
N2N N 0.2569(3) -0.3118(2) -0.4230(3)
N2I N -0.0215(2) -0.0979(2) -1.0897(3)
N2J N 0.0979(2) 0.0764(3) -1.0897(3)
N2K N -0.0764(3) 0.0215(2) -1.0897(3)
N3L N 0.1584(2) 0.5019(2) -0.6621(3)
N3A N -0.1648(2) 0.0101(3) -0.6712(3)
N3M N -0.5019(2) -0.3434(3) -0.6621(3)
N3B N -0.0101(3) -0.1749(2) -0.6712(3)
N3N N 0.3434(3) -0.1584(2) -0.6621(3)
N4L N 0.2322(3) 0.5948(2) -0.7440(4)
N4A N -0.0719(2) 0.0292(4) -0.5893(4)
N4M N -0.5948(2) -0.3625(4) -0.7440(4)
N4B N -0.0292(4) -0.1011(3) -0.5893(4)
N4N N 0.3625(4) -0.2322(3) -0.7440(4)
N4I N -0.1011(3) -0.0719(2) -0.4107(4)
N4J N 0.0719(2) -0.0292(4) -0.4107(4)
N4K N 0.0292(4) 0.1011(3) -0.4107(4)
C1L C 0.1845(3) 0.3584(2) -0.5794(3)
C1A C -0.3083(2) -0.1595(4) -0.7539(3)
C1M C -0.3584(2) -0.1738(4) -0.5794(3)
C1B C 0.1595(4) -0.1488(3) -0.7539(3)
C1N C 0.1738(4) -0.1845(3) -0.5794(3)
C2L C 0.1990(3) 0.3075(3) -0.6126(4)
C2A C -0.3592(3) -0.2249(4) -0.7207(4)
C2M C -0.3075(3) -0.1084(4) -0.6126(4)
C2B C 0.2249(4) -0.1343(3) -0.7207(4)
C2N C 0.1084(4) -0.1990(3) -0.6126(4)
H1L H 0.2212 0.2900 -0.5751
H1A H -0.3767 -0.2646 -0.7582
H1M H -0.2900 -0.0687 -0.5751
H1B H 0.2646 -0.1121 -0.7582
H1N H 0.0687 -0.2212 -0.5751
C3L C 0.1511(3) 0.3855(2) -0.6349(3)
C3A C -0.2812(2) -0.0990(4) -0.6984(3)
C3M C -0.3855(2) -0.2343(4) -0.6349(3)
C3B C 0.0990(4) -0.1822(3) -0.6984(3)
C3N C 0.2343(4) -0.1511(3) -0.6349(3)
C4L C 0.2041(4) 0.3825(3) -0.4821(4)
C4A C -0.2842(3) -0.1550(5) -0.8512(4)
C4M C -0.3825(3) -0.1783(5) -0.4821(4)
C4B C 0.1550(5) -0.1292(4) -0.8512(4)
C4N C 0.1783(5) -0.2041(4) -0.4821(4)
H2L H 0.1613 0.3738 -0.4500
H2A H -0.2929 -0.1209 -0.8833
H2M H -0.3738 -0.2124 -0.4500
H2B H 0.1209 -0.1720 -0.8833
H2N H 0.2124 -0.1613 -0.4500
H3L H 0.2222 0.3542 -0.4539
H3A H -0.3125 -0.2014 -0.8794
H3M H -0.3542 -0.1319 -0.4539
H3B H 0.2014 -0.1111 -0.8794
H3N H 0.1319 -0.2222 -0.4539
C5L C 0.2552(3) 0.5046(3) -0.4164(3)
C5A C -0.1621(3) -0.0840(4) -0.9169(3)
C5M C -0.5046(3) -0.2493(4) -0.4164(3)
C5B C 0.0840(4) -0.0781(3) -0.9169(3)
C5N C 0.2493(4) -0.2552(3) -0.4164(3)
H4L H 0.2177 0.4925 -0.3764
H4A H -0.1742 -0.0586 -0.9569
H4M H -0.4925 -0.2747 -0.3764
H4B H 0.0586 -0.1156 -0.9569
H4N H 0.2747 -0.2177 -0.3764
C6L C 0.3527(3) 0.5635(3) -0.4895(4)
C6A C -0.1032(3) -0.1226(4) -0.8438(4)
C6M C -0.5635(3) -0.2107(4) -0.4895(4)
C6B C 0.1226(4) 0.0194(3) -0.8438(4)
C6N C 0.2107(4) -0.3527(3) -0.4895(4)
H5L H 0.3964 0.6008 -0.5094
H5A H -0.0659 -0.1290 -0.8239
H5M H -0.6008 -0.2043 -0.5094
H5B H 0.1290 0.0631 -0.8239
H5N H 0.2043 -0.3964 -0.5094
C7L C 0.3198(4) 0.4959(3) -0.5217(4)
C7A C -0.1708(3) -0.1573(5) -0.8116(4)
C7M C -0.4959(3) -0.1760(5) -0.5217(4)
C7B C 0.1573(5) -0.0135(4) -0.8116(4)
C7N C 0.1760(5) -0.3198(4) -0.5217(4)
H6L H 0.3362 0.4784 -0.5673
H6A H -0.1883 -0.1912 -0.7660
H6M H -0.4784 -0.1421 -0.5673
H6B H 0.1912 0.0029 -0.7660
H6N H 0.1421 -0.3362 -0.5673
C8L C 0.1300(3) 0.4390(3) -0.6035(4)
C8A C -0.2277(3) -0.0244(4) -0.7298(4)
C8M C -0.4390(3) -0.3089(4) -0.6035(4)
C8B C 0.0244(4) -0.2033(3) -0.7298(4)
C8N C 0.3089(4) -0.1300(3) -0.6035(4)
H7L H 0.1478 0.4543 -0.5431
H7A H -0.2124 -0.0269 -0.7902
H7M H -0.4543 -0.3064 -0.5431
H7B H 0.0269 -0.1855 -0.7902
H7N H 0.3064 -0.1478 -0.5431
H8L H 0.0782 0.4161 -0.6019
H8A H -0.2506 0.0045 -0.7314
H8M H -0.4161 -0.3378 -0.6019
H8B H -0.0045 -0.2551 -0.7314
H8N H 0.3378 -0.0782 -0.6019
C9L C 0.2256(3) 0.5423(3) -0.6924(4)
C9A C -0.1244(3) -0.0167(4) -0.6409(4)
C9M C -0.5423(3) -0.3166(4) -0.6924(4)
C9B C 0.0167(4) -0.1077(3) -0.6409(4)
C9N C 0.3166(4) -0.2256(3) -0.6924(4)
H9L H 0.2630 0.5342 -0.6786
H9A H -0.1325 -0.0622 -0.6547
H9M H -0.5342 -0.2711 -0.6786
H9B H 0.0622 -0.0703 -0.6547
H9N H 0.2711 -0.2630 -0.6786
C10L C 0.1663(4) 0.5881(4) -0.7443(5)
C10A C -0.0786(4) 0.0884(6) -0.5890(5)
C10M C -0.5881(4) -0.4217(6) -0.7443(5)
C10B C -0.0884(6) -0.1670(4) -0.5890(5)
C10N C 0.4217(6) -0.1663(4) -0.7443(5)
H10L H 0.1545 0.6186 -0.7744
H10A H -0.0481 0.1307 -0.5589
H10M H -0.6186 -0.4640 -0.7744
H10B H -0.1307 -0.1788 -0.5589
H10N H 0.4640 -0.1545 -0.7744
C11L C 0.1206(3) 0.5318(4) -0.6957(5)
C11A C -0.1349(4) 0.0778(5) -0.6376(5)
C11M C -0.5318(4) -0.4111(5) -0.6957(5)
C11B C -0.0778(5) -0.2127(3) -0.6376(5)
C11N C 0.4111(5) -0.1206(3) -0.6957(5)
H11L H 0.0723 0.5160 -0.6864
H11A H -0.1507 0.1103 -0.6469
H11M H -0.5160 -0.4436 -0.6864
H11B H -0.1103 -0.2610 -0.6469
H11N H 0.4436 -0.0723 -0.6864
N5 N 0.3022(9) 0.3716(9) -0.2850(7)
O1 O 0.3594(8) 0.4087(9) -0.3201(10)
O2 O 0.2684(13) 0.4030(13) -0.2636(17)
O3 O 0.2759(14) 0.3117(11) -0.2695(17)
O4 O 0.4556(13) 0.4816(13) -0.4293(15)
loop_
_geom_bond_atom_site_label_1
_geom_bond_atom_site_label_2
_geom_bond_site_symmetry_1
_geom_bond_site_symmetry_2
Cd1 N4 1_555 1_555
Cd2 N2 1_555 1_555
N1 C4 1_555 1_555
N2 C5 1_555 1_555
N3 C8 1_555 1_555
N4 C9 1_555 1_555
C1 C2 1_555 1_555
C2 H1 1_555 1_555
C3 C1 1_555 1_555
C4 C1 1_555 1_555
H2 C4 1_555 1_555
H3 C4 1_555 1_555
C5 N1 1_555 1_555
H4 C5 1_555 1_555
C6 N2 1_555 1_555
H5 C6 1_555 1_555
C7 N1 1_555 1_555
H6 C7 1_555 1_555
C8 C3 1_555 1_555
H7 C8 1_555 1_555
H8 C8 1_555 1_555
C9 N3 1_555 1_555
H9 C9 1_555 1_555
C10 N4 1_555 1_555
H10 C10 1_555 1_555
C11 N3 1_555 1_555
H11 C11 1_555 1_555
N5 O1 1_555 1_555
O2 N5 1_555 1_555
O3 N5 1_555 1_555
Cd1F N4L 1_555 1_555
Cd1F_2 N4M 1_555 1_555
Cd1F_3 N4N 1_555 1_555
Cd2F N2L 1_555 1_555
Cd2F_2 N2M 1_555 1_555
Cd2F_3 N2N 1_555 1_555
N1L C4L 1_555 1_555
N1A C4A 1_555 1_555
N1M C4M 1_555 1_555
N1B C4B 1_555 1_555
N1N C4N 1_555 1_555
N2L C5L 1_555 1_555
N2A Cd2 1_555 1_555
N2M C5M 1_555 1_555
N2B Cd2 1_555 1_555
N2N C5N 1_555 1_555
N2I Cd2 1_555 1_555
N2J Cd2 1_555 1_555
N2K Cd2 1_555 1_555
N3L C8L 1_555 1_555
N3A C8A 1_555 1_555
N3M C8M 1_555 1_555
N3B C8B 1_555 1_555
N3N C8N 1_555 1_555
N4L C9L 1_555 1_555
N4A Cd1 1_555 1_555
N4M C9M 1_555 1_555
N4B Cd1 1_555 1_555
N4N C9N 1_555 1_555
N4I Cd1 1_555 1_555
N4J Cd1 1_555 1_555
N4K Cd1 1_555 1_555
C1L C2L 1_555 1_555
C1A C2A 1_555 1_555
C1M C2M 1_555 1_555
C1B C2B 1_555 1_555
C1N C2N 1_555 1_555
C2L C3 1_555 1_555
C2A H1A 1_555 1_555
C2M H1M 1_555 1_555
C2B H1B 1_555 1_555
C2N H1N 1_555 1_555
H1L C2L 1_555 1_555
C3L C2 1_555 1_555
C3A C1A 1_555 1_555
C3M C1M 1_555 1_555
C3B C1B 1_555 1_555
C3N C1N 1_555 1_555
C4L C1L 1_555 1_555
C4A C1A 1_555 1_555
C4M C1M 1_555 1_555
C4B C1B 1_555 1_555
C4N C1N 1_555 1_555
H2L C4L 1_555 1_555
H2A C4A 1_555 1_555
H2M C4M 1_555 1_555
H2B C4B 1_555 1_555
H2N C4N 1_555 1_555
H3L C4L 1_555 1_555
H3A C4A 1_555 1_555
H3M C4M 1_555 1_555
H3B C4B 1_555 1_555
H3N C4N 1_555 1_555
C5L N1L 1_555 1_555
C5A N1A 1_555 1_555
C5M N1M 1_555 1_555
C5B N1B 1_555 1_555
C5N N1N 1_555 1_555
H4L C5L 1_555 1_555
H4A C5A 1_555 1_555
H4M C5M 1_555 1_555
H4B C5B 1_555 1_555
H4N C5N 1_555 1_555
C6L N2L 1_555 1_555
C6A N2A 1_555 1_555
C6M N2M 1_555 1_555
C6B N2B 1_555 1_555
C6N N2N 1_555 1_555
H5L C6L 1_555 1_555
H5A C6A 1_555 1_555
H5M C6M 1_555 1_555
H5B C6B 1_555 1_555
H5N C6N 1_555 1_555
C7L N1L 1_555 1_555
C7A N1A 1_555 1_555
C7M N1M 1_555 1_555
C7B N1B 1_555 1_555
C7N N1N 1_555 1_555
H6L C7L 1_555 1_555
H6A C7A 1_555 1_555
H6M C7M 1_555 1_555
H6B C7B 1_555 1_555
H6N C7N 1_555 1_555
C8L C3L 1_555 1_555
C8A C3A 1_555 1_555
C8M C3M 1_555 1_555
C8B C3B 1_555 1_555
C8N C3N 1_555 1_555
H7L C8L 1_555 1_555
H7A C8A 1_555 1_555
H7M C8M 1_555 1_555
H7B C8B 1_555 1_555
H7N C8N 1_555 1_555
H8L C8L 1_555 1_555
H8A C8A 1_555 1_555
H8M C8M 1_555 1_555
H8B C8B 1_555 1_555
H8N C8N 1_555 1_555
C9L N3L 1_555 1_555
C9A N3A 1_555 1_555
C9M N3M 1_555 1_555
C9B N3B 1_555 1_555
C9N N3N 1_555 1_555
H9L C9L 1_555 1_555
H9A C9A 1_555 1_555
H9M C9M 1_555 1_555
H9B C9B 1_555 1_555
H9N C9N 1_555 1_555
C10L N4L 1_555 1_555
C10A N4A 1_555 1_555
C10M N4M 1_555 1_555
C10B N4B 1_555 1_555
C10N N4N 1_555 1_555
H10L C10L 1_555 1_555
H10A C10A 1_555 1_555
H10M C10M 1_555 1_555
H10B C10B 1_555 1_555
H10N C10N 1_555 1_555
C11L N3L 1_555 1_555
C11A N3A 1_555 1_555
C11M N3M 1_555 1_555
C11B N3B 1_555 1_555
C11N N3N 1_555 1_555
H11L C11L 1_555 1_555
H11A C11A 1_555 1_555
H11M C11M 1_555 1_555
H11B C11B 1_555 1_555
H11N C11N 1_555 1_555
C6 C7 1_555 1_555
C10 C11 1_555 1_555
N2A C5A 1_555 1_555
N2B C5B 1_555 1_555
N4A C9A 1_555 1_555
N4B C9B 1_555 1_555
C1L C3L 1_555 1_555
C2A C3M 1_555 1_555
C2M C3A 1_555 1_555
C2B C3N 1_555 1_555
C2N C3B 1_555 1_555
C6L C7L 1_555 1_555
C6A C7A 1_555 1_555
C6M C7M 1_555 1_555
C6B C7B 1_555 1_555
C6N C7N 1_555 1_555
C10L C11L 1_555 1_555
C10A C11A 1_555 1_555
C10M C11M 1_555 1_555
C10B C11B 1_555 1_555
C10N C11N 1_555 1_555

#END
