
#######################################################################
#
#                 Cambridge Crystallographic Data Centre
#                                CCDC 
#
#######################################################################
#
# If this CIF has been generated from an entry in the Cambridge 
# Structural Database, then it will include bibliographic, chemical, 
# crystal, experimental, refinement or atomic coordinate data resulting 
# from the CCDC's data processing and validation procedures.
#
#######################################################################

data_ILEHUD
_chemical_formula_moiety         '(C8 H26 N2 O15 P4 Zn3)n'
_symmetry_cell_setting           monoclinic
_symmetry_space_group_name_H-M   'C 2/c'
_symmetry_Int_Tables_number      15
_space_group_name_Hall           '-C 2yc'
loop_
_symmetry_equiv_pos_site_id
_symmetry_equiv_pos_as_xyz
1 x,y,z
2 -x,y,1/2-z
3 1/2+x,1/2+y,z
4 1/2-x,1/2+y,1/2-z
5 -x,-y,-z
6 x,-y,1/2+z
7 1/2-x,1/2-y,-z
8 1/2+x,1/2-y,1/2+z
_cell_length_a                   20.438(5)
_cell_length_b                   9.502(2)
_cell_length_c                   22.808(6)
_cell_angle_alpha                90
_cell_angle_beta                 90.136(4)
_cell_angle_gamma                90
_cell_volume                     4429.34
loop_
_atom_site_label
_atom_site_type_symbol
_atom_site_fract_x
_atom_site_fract_y
_atom_site_fract_z
_atom_site_U_iso_or_equiv
_atom_site_thermal_displace_type
Zn1 Zn 0.10462(5) -0.03641(12) 0.02827(5) 0.0249 Uani
Zn2 Zn 0.15585(6) 0.25422(13) -0.12229(6) 0.0316 Uani
Zn3 Zn 0.21988(6) -0.27429(12) -0.17586(5) 0.0268 Uani
P1 P 0.02682(12) 0.1443(3) -0.06977(12) 0.0226 Uani
P2 P 0.12984(13) -0.0699(3) -0.10311(13) 0.0258 Uani
P3 P 0.23256(13) 0.0343(3) 0.10403(12) 0.0249 Uani
P4 P 0.29115(12) 0.0801(3) 0.22647(12) 0.0208 Uani
O1 O 0.0499(3) 0.1147(7) -0.0069(3) 0.0257 Uani
O2 O -0.0466(3) 0.1632(7) -0.0724(3) 0.0293 Uani
O3 O 0.0626(3) 0.2697(7) -0.0974(3) 0.0350 Uani
O4 O 0.0023(3) -0.1250(7) -0.1015(3) 0.0356 Uani
H1 H -0.0118 -0.1157 -0.0681 0.0540 Uiso
O5 O 0.1745(3) 0.0570(7) -0.1085(3) 0.0300 Uani
O6 O 0.1423(3) -0.1790(8) -0.1491(3) 0.0343 Uani
O7 O 0.1324(3) -0.1347(7) -0.0420(3) 0.0270 Uani
O8 O 0.1728(3) 0.0656(7) 0.0675(3) 0.0350 Uani
O9 O 0.2921(3) 0.1081(8) 0.0772(3) 0.0350 Uani
O10 O 0.2426(4) -0.1223(7) 0.1124(3) 0.0367 Uani
O11 O 0.3507(3) 0.1457(8) 0.1971(3) 0.0360 Uani
O12 O 0.2787(3) 0.1470(8) 0.2863(3) 0.0350 Uani
O13 O 0.2984(3) -0.0791(7) 0.2340(3) 0.0283 Uani
O14 O 0.2234(3) 0.2647(7) 0.1639(3) 0.0320 Uani
H2 H 0.2170 0.3091 0.1942 0.0480 Uiso
C1 C 0.0453(5) -0.0107(11) -0.1148(5) 0.0283 Uani
C2 C 0.0341(6) 0.0274(12) -0.1802(5) 0.0383 Uani
H3 H 0.0436 -0.0529 -0.2042 0.0570 Uiso
H4 H 0.0623 0.1039 -0.1909 0.0570 Uiso
H5 H -0.0107 0.0549 -0.1859 0.0570 Uiso
C3 C 0.2221(5) 0.1175(10) 0.1763(5) 0.0243 Uani
C4 C 0.1558(5) 0.0716(12) 0.2032(5) 0.0370 Uani
H6 H 0.1506 0.1147 0.2410 0.0560 Uiso
H7 H 0.1550 -0.0289 0.2074 0.0560 Uiso
H8 H 0.1207 0.1007 0.1779 0.0560 Uiso
Zn1D Zn -0.10462(5) 0.03641(12) -0.02827(5) 0.0249 Uani
Zn2F Zn 0.34415(6) 0.24578(13) 0.12229(6) 0.0316 Uani
Zn3F Zn 0.28012(6) -0.22571(12) 0.17586(5) 0.0268 Uani
Zn3E Zn 0.21988(6) 0.27429(12) 0.32414(5) 0.0268 Uani
O2D O 0.0466(3) -0.1632(7) 0.0724(3) 0.0293 Uani
O9F O 0.2079(3) 0.3919(8) -0.0772(3) 0.0350 Uani
O10F O 0.2574(4) -0.3777(7) -0.1124(3) 0.0367 Uani
O11F O 0.1493(3) 0.3543(8) -0.1971(3) 0.0360 Uani
O12E O 0.2787(3) -0.1470(8) -0.2137(3) 0.0350 Uani
O13F O 0.2016(3) -0.4209(7) -0.2340(3) 0.0283 Uani
N1 N 0.3029(6) 0.0538(14) 0.9510(6) 0.0800 Uani
H9 H 0.3126 0.0601 0.9894 0.0960 Uiso
H10 H 0.2678 0.1093 0.9565 0.0960 Uiso
C5 C 0.3027(8) -0.1026(15) 0.9566(8) 0.0757 Uani
H11 H 0.2594 -0.1342 0.9662 0.1140 Uiso
H12 H 0.3326 -0.1303 0.9870 0.1140 Uiso
H13 H 0.3160 -0.1440 0.9201 0.1140 Uiso
C6 C 0.3666(9) 0.1099(17) 0.9398(9) 0.0947 Uani
H14 H 0.3640 0.2105 0.9365 0.1420 Uiso
H15 H 0.3832 0.0714 0.9038 0.1420 Uiso
H16 H 0.3955 0.0856 0.9715 0.1420 Uiso
N2 N 0.0662(11) 0.574(3) 0.9120(11) 0.1910 Uani
H17 H 0.1031 0.6256 0.9150 0.2300 Uiso
H18 H 0.0745 0.4814 0.9118 0.2300 Uiso
C7 C 0.0358(14) 0.570(3) 0.8475(12) 0.1920 Uani
H19 H 0.0694 0.5900 0.8194 0.2880 Uiso
H20 H 0.0019 0.6399 0.8443 0.2880 Uiso
H21 H 0.0177 0.4788 0.8400 0.2880 Uiso
C8 C 0.0316(15) 0.564(3) 0.9637(12) 0.2060 Uani
H22 H 0.0614 0.5665 0.9963 0.3090 Uiso
H23 H 0.0076 0.4773 0.9642 0.3090 Uiso
H24 H 0.0016 0.6417 0.9666 0.3090 Uiso
O15 O 0.9173(9) 0.3410(19) 0.8262(8) 0.1844 Uani
H25 H 0.8976 0.3740 0.8560 0.2210 Uiso
H26 H 0.9353 0.2632 0.8350 0.2770 Uiso
loop_
_atom_site_aniso_label
_atom_site_aniso_U_11
_atom_site_aniso_U_22
_atom_site_aniso_U_33
_atom_site_aniso_U_23
_atom_site_aniso_U_13
_atom_site_aniso_U_12
Zn1 0.0196(6) 0.0333(7) 0.0219(7) 0.0024(6) 0.0011(5) 0.0005(5)
Zn2 0.0282 0.0325 0.034 0.0049 0.002 -0.0078
Zn3 0.0318 0.0262 0.0224 -0.0019 0.0073 -0.0005
P1 0.0182(14) 0.0289(14) 0.0207(15) 0.0032(12) 0.0048(12) 0.0001(11)
P2 0.0243(14) 0.0278(14) 0.0254(16) -0.0036(13) 0.0046(13) 0.0012(12)
P3 0.0241(14) 0.0296(14) 0.0211(15) -0.0007(13) 0.0026(13) -0.0060(12)
P4 0.0196(13) 0.0237(13) 0.0192(14) -0.0005(11) 0.0033(12) -0.0023(11)
O1 0.024(4) 0.031(4) 0.022(4) 0.000(3) 0.006(3) 0.010(3)
O2 0.015(3) 0.043(4) 0.030(4) 0.011(4) 0.006(3) -0.005(3)
O3 0.034(4) 0.036(4) 0.035(5) 0.007(4) 0.005(4) -0.009(3)
O4 0.026(4) 0.044(4) 0.037(4) -0.006(4) 0.014(3) -0.015(3)
O5 0.017(3) 0.036(4) 0.037(4) 0.002(4) 0.001(3) -0.003(3)
O6 0.028(4) 0.042(4) 0.033(4) -0.003(4) 0.014(4) 0.006(3)
O7 0.032(4) 0.026(4) 0.023(4) 0.002(3) 0.001(3) 0.006(3)
O8 0.020(4) 0.048(4) 0.037(5) -0.007(4) -0.015(4) -0.002(3)
O9 0.031(4) 0.044(4) 0.030(4) -0.012(4) 0.011(4) -0.014(3)
O10 0.053(5) 0.024(4) 0.033(5) -0.006(3) 0.006(4) -0.002(3)
O11 0.026(4) 0.050(4) 0.032(5) 0.014(4) 0.001(4) -0.013(4)
O12 0.039(4) 0.042(4) 0.024(4) -0.013(4) -0.003(4) 0.015(4)
O13 0.035(4) 0.024(3) 0.026(4) -0.003(3) 0.000(4) 0.000(3)
O14 0.039(4) 0.027(3) 0.030(4) -0.007(3) -0.002(3) 0.004(3)
C1 0.024(5) 0.037(6) 0.024(6) -0.003(5) -0.001(5) 0.001(5)
C2 0.035(6) 0.056(7) 0.024(6) -0.008(6) 0.006(5) 0.000(6)
C3 0.029(6) 0.023(5) 0.021(6) -0.001(4) 0.006(5) -0.003(4)
C4 0.019(5) 0.061(7) 0.031(6) -0.004(6) 0.013(5) -0.007(5)
Zn1D 0.0196 0.0333 0.0219 0.0024 0.0011 0.0005
Zn2F 0.0282(7) 0.0325(7) 0.0340(8) 0.0049(6) 0.0020(6) -0.0078(6)
Zn3F 0.0318(7) 0.0262(6) 0.0224(7) -0.0019(5) 0.0073(6) -0.0005(5)
Zn3E 0.0318 0.0262 0.0224 0.0019 0.0073 0.0005
O2D 0.015 0.043 0.03 0.011 0.006 -0.005
O9F 0.031 0.044 0.03 -0.012 0.011 -0.014
O10F 0.053 0.024 0.033 -0.006 0.006 -0.002
O11F 0.026 0.05 0.032 0.014 0.001 -0.013
O12E 0.039 0.042 0.024 0.013 -0.003 -0.015
O13F 0.035 0.024 0.026 -0.003 0 0
N1 0.072(9) 0.098(11) 0.070(10) -0.003(9) 0.011(8) 0.005(8)
C5 0.089(11) 0.062(9) 0.076(11) 0.002(9) -0.020(9) -0.013(8)
C6 0.106(13) 0.079(10) 0.099(13) 0.031(10) -0.019(11) -0.032(10)
N2 0.191(10) 0.191(10) 0.191(10) 0.0000(10) 0.0006(10) 0.0001(10)
C7 0.192(10) 0.192(10) 0.192(10) 0.0000(10) 0.0006(10) 0.0001(10)
C8 0.206(11) 0.206(11) 0.206(11) 0.0000(10) 0.0006(10) 0.0000(10)
O15 0.184(10) 0.180(10) 0.189(11) 0.004(8) -0.027(8) 0.008(8)
loop_
_geom_bond_atom_site_label_1
_geom_bond_atom_site_label_2
_geom_bond_site_symmetry_1
_geom_bond_site_symmetry_2
Zn1 O1 1_555 1_555
Zn2 O3 1_555 1_555
Zn3 O6 1_555 1_555
P1 O1 1_555 1_555
P2 O5 1_555 1_555
P3 O8 1_555 1_555
P4 O11 1_555 1_555
O2 P1 1_555 1_555
O3 P1 1_555 1_555
O4 H1 1_555 1_555
O5 Zn2 1_555 1_555
O6 P2 1_555 1_555
O7 Zn1 1_555 1_555
O8 Zn1 1_555 1_555
O9 P3 1_555 1_555
O10 P3 1_555 1_555
O11 Zn2F 1_555 1_555
O12 P4 1_555 1_555
O13 P4 1_555 1_555
O14 H2 1_555 1_555
C1 P1 1_555 1_555
C2 C1 1_555 1_555
H3 C2 1_555 1_555
H4 C2 1_555 1_555
H5 C2 1_555 1_555
C3 P3 1_555 1_555
C4 C3 1_555 1_555
H6 C4 1_555 1_555
H7 C4 1_555 1_555
H8 C4 1_555 1_555
N1 H9 1_555 1_555
H10 N1 1_555 1_555
C5 N1 1_555 1_555
H11 C5 1_555 1_555
H12 C5 1_555 1_555
H13 C5 1_555 1_555
C6 N1 1_555 1_555
H14 C6 1_555 1_555
H15 C6 1_555 1_555
H16 C6 1_555 1_555
N2 H17 1_555 1_555
H18 N2 1_555 1_555
C7 N2 1_555 1_555
H19 C7 1_555 1_555
H20 C7 1_555 1_555
H21 C7 1_555 1_555
C8 N2 1_555 1_555
H22 C8 1_555 1_555
H23 C8 1_555 1_555
H24 C8 1_555 1_555
O15 H25 1_555 1_555
H26 O15 1_555 1_555
Zn1D O2 1_555 1_555
Zn2F O9 1_555 1_555
Zn3F O10 1_555 1_555
Zn3E O12 1_555 1_555
O2D Zn1 1_555 1_555
O9F Zn2 1_555 1_555
O10F Zn3 1_555 1_555
O11F Zn2 1_555 1_555
O12E Zn3 1_555 1_555
O13F Zn3 1_555 1_555
P2 O7 1_555 1_555
P2 C1 1_555 1_555
P4 C3 1_555 1_555
O4 C1 1_555 1_555
O13 Zn3F 1_555 1_555
O14 C3 1_555 1_555

#END
