
#######################################################################
#
#                 Cambridge Crystallographic Data Centre
#                                CCDC 
#
#######################################################################
#
# If this CIF has been generated from an entry in the Cambridge 
# Structural Database, then it will include bibliographic, chemical, 
# crystal, experimental, refinement or atomic coordinate data resulting 
# from the CCDC's data processing and validation procedures.
#
#######################################################################

data_ERUNOW
_chemical_formula_moiety         '(C102 H94 Co8 N9 O31 1+)n'
_symmetry_cell_setting           tetragonal
_symmetry_space_group_name_H-M   'I 41/a'
_symmetry_Int_Tables_number      88
_space_group_name_Hall           '-I 4ad'
loop_
_symmetry_equiv_pos_site_id
_symmetry_equiv_pos_as_xyz
1 x,y,z
2 1/2-x,-y,1/2+z
3 3/4-y,1/4+x,1/4+z
4 3/4+y,3/4-x,3/4+z
5 1/2+x,1/2+y,1/2+z
6 -x,1/2-y,z
7 1/4-y,3/4+x,3/4+z
8 1/4+y,1/4-x,1/4+z
9 -x,-y,-z
10 1/2+x,y,1/2-z
11 1/4+y,3/4-x,3/4-z
12 1/4-y,1/4+x,1/4-z
13 1/2-x,1/2-y,1/2-z
14 x,1/2+y,-z
15 3/4+y,1/4-x,1/4-z
16 3/4-y,3/4+x,3/4-z
_cell_length_a                   17.4675(4)
_cell_length_b                   17.4675(4)
_cell_length_c                   57.836(3)
_cell_angle_alpha                90
_cell_angle_beta                 90
_cell_angle_gamma                90
_cell_volume                     17646.5
loop_
_atom_site_label
_atom_site_type_symbol
_atom_site_fract_x
_atom_site_fract_y
_atom_site_fract_z
N3 N -0.1258(2) 0.5448(2) 0.59094(8)
O8 O -0.0556(2) 0.53982(19) 0.58664(8)
O9 O -0.1612(2) 0.4883(2) 0.59914(7)
O10 O -0.1613(3) 0.6040(2) 0.58554(8)
O11 O -0.3149(8) 0.6346(5) 0.59337(19)
H20 H -0.3149 0.6571 0.5805
C25 C -0.3294(10) 0.5579(6) 0.59008(19)
H21 H -0.3648 0.5411 0.6025
H22 H -0.2807 0.5299 0.5923
C26 C -0.3630(9) 0.5328(7) 0.56721(18)
H23 H -0.3780 0.4788 0.5682
H24 H -0.3247 0.5392 0.5550
H25 H -0.4080 0.5641 0.5637
O12 O -0.2346(5) 0.7075(5) 0.5360(2)
H26 H -0.2257 0.7219 0.5496
C27 C -0.2020(6) 0.6341(6) 0.5324(3)
H27 H -0.2133 0.6164 0.5165
H28 H -0.2244 0.5970 0.5434
C28 C -0.1113(5) 0.6386(9) 0.5361(3)
H29 H -0.0939 0.5932 0.5445
H30 H -0.0987 0.6847 0.5450
H31 H -0.0857 0.6408 0.5210
O13 O -0.3643(5) 0.2751(4) 0.53449(16)
H32 H -0.4109 0.2777 0.5309
C29 C -0.3285(8) 0.3392(6) 0.52758(17)
H33 H -0.2729 0.3299 0.5292
H34 H -0.3419 0.3799 0.5388
C30 C -0.3412(9) 0.3703(6) 0.50453(16)
H35 H -0.3204 0.3350 0.4930
H36 H -0.3154 0.4200 0.5032
H37 H -0.3962 0.3770 0.5019
Co1 Co 0.13414(2) 0.40394(2) 0.58759(2)
Co2 Co 0.12284(2) 0.22682(2) 0.61999(2)
N1 N 0.74357(11) 0.09011(12) 0.58769(3)
N2 N 0.12489(11) 0.47190(11) 0.55707(3)
O1 O 0.25473(9) 0.12098(9) 0.64390(3)
O2 O 0.23212(10) 0.19559(10) 0.61286(3)
O3 O 0.13312(9) 0.81063(9) 0.43436(2)
O4 O 0.09050(9) 0.70890(9) 0.41454(3)
O5 O 0.13101(9) 0.34225(9) 0.61809(2)
H1 H 0.1713 0.3543 0.6255
O6 O 0.0000 0.2500 0.6250
O7 O 0.01047(9) 0.40062(9) 0.59243(2)
H2 H -0.0063 0.4460 0.5940
H3 H -0.0104 0.3799 0.5807
C1 C 0.70030(17) 0.1426(2) 0.57785(6)
H4 H 0.7241 0.1780 0.5677
C2 C 0.62284(18) 0.1491(2) 0.58143(6)
H5 H 0.5951 0.1883 0.5737
C3 C 0.58518(15) 0.10048(17) 0.59583(4)
C4 C 0.62974(18) 0.0407(2) 0.60449(7)
H6 H 0.6062 0.0014 0.6133
C5 C 0.70596(18) 0.03796(18) 0.60044(6)
H7 H 0.7344 -0.0030 0.6070
C6 C 0.50427(16) 0.11024(18) 0.60231(5)
C7 C 0.45096(18) 0.1421(2) 0.58744(5)
H8 H 0.4656 0.1552 0.5721
C8 C 0.37677(17) 0.1549(2) 0.59464(5)
H9 H 0.3410 0.1769 0.5842
C9 C 0.35346(15) 0.13643(16) 0.61686(4)
C10 C 0.40551(18) 0.1019(3) 0.63115(5)
H10 H 0.3905 0.0878 0.6463
C11 C 0.47887(18) 0.0874(3) 0.62398(6)
H11 H 0.5130 0.0612 0.6340
C12 C 0.27358(14) 0.15230(14) 0.62512(4)
C13 C 0.0801(3) 0.4529(3) 0.53974(7)
H12 H 0.0501 0.4077 0.5412
C14 C 0.0739(3) 0.4949(3) 0.51925(8)
H13 H 0.0401 0.4787 0.5073
C15 C 0.11756(16) 0.56058(15) 0.51652(4)
C16 C 0.1594(3) 0.5857(2) 0.53633(7)
H14 H 0.1856 0.6333 0.5361
C17 C 0.1614(3) 0.5405(3) 0.55557(7)
H15 H 0.1898 0.5578 0.5686
C18 C 0.11523(16) 0.60714(15) 0.49511(4)
C19 C 0.1208(2) 0.57200(18) 0.47336(5)
H16 H 0.1260 0.5180 0.4723
C20 C 0.11875(19) 0.61610(16) 0.45357(5)
H17 H 0.1216 0.5919 0.4389
C21 C 0.11259(14) 0.69515(14) 0.45473(4)
C22 C 0.1096(2) 0.72973(16) 0.47608(5)
H18 H 0.1073 0.7840 0.4771
C23 C 0.1098(2) 0.68635(18) 0.49615(5)
H19 H 0.1061 0.7111 0.5107
C24 C 0.11254(13) 0.74238(13) 0.43303(4)
Co1E Co -0.13414(2) 0.09606(2) 0.58759(2)
Co2E Co -0.12284(2) 0.27318(2) 0.61999(2)
N1E N -0.74357(11) 0.40989(12) 0.58769(3)
N2E N -0.12489(11) 0.02810(11) 0.55707(3)
O1E O -0.25473(9) 0.37902(9) 0.64390(3)
O2E O -0.23212(10) 0.30441(10) 0.61286(3)
O3E O -0.13312(9) -0.31063(9) 0.43436(2)
O4E O -0.09050(9) -0.20890(9) 0.41454(3)
O5E O -0.13101(9) 0.15775(9) 0.61809(2)
H1E H -0.1713 0.1457 0.6255
O7E O -0.01047(9) 0.09938(9) 0.59243(2)
H2E H 0.0063 0.0540 0.5940
H3E H 0.0104 0.1201 0.5807
C1E C -0.70030(17) 0.3574(2) 0.57785(6)
H4E H -0.7241 0.3220 0.5677
C2E C -0.62284(18) 0.3509(2) 0.58143(6)
H5E H -0.5951 0.3117 0.5737
C3E C -0.58518(15) 0.39952(17) 0.59583(4)
C4E C -0.62974(18) 0.4593(2) 0.60449(7)
H6E H -0.6062 0.4986 0.6133
C5E C -0.70596(18) 0.46204(18) 0.60044(6)
H7E H -0.7344 0.5030 0.6070
C6E C -0.50427(16) 0.38976(18) 0.60231(5)
C7E C -0.45096(18) 0.3579(2) 0.58744(5)
H8E H -0.4656 0.3448 0.5721
C8E C -0.37677(17) 0.3451(2) 0.59464(5)
H9E H -0.3410 0.3231 0.5842
C9E C -0.35346(15) 0.36357(16) 0.61686(4)
C10E C -0.40551(18) 0.3981(3) 0.63115(5)
H10E H -0.3905 0.4122 0.6463
C11E C -0.47887(18) 0.4126(3) 0.62398(6)
H11E H -0.5130 0.4388 0.6340
C12E C -0.27358(14) 0.34770(14) 0.62512(4)
C13E C -0.0801(3) 0.0471(3) 0.53974(7)
H12E H -0.0501 0.0923 0.5412
C14E C -0.0739(3) 0.0051(3) 0.51925(8)
H13E H -0.0401 0.0213 0.5073
C15E C -0.11756(16) -0.06058(15) 0.51652(4)
C16E C -0.1594(3) -0.0857(2) 0.53633(7)
H14E H -0.1856 -0.1333 0.5361
C17E C -0.1614(3) -0.0405(3) 0.55557(7)
H15E H -0.1898 -0.0578 0.5686
C18E C -0.11523(16) -0.10714(15) 0.49511(4)
C19E C -0.1208(2) -0.07200(18) 0.47336(5)
H16E H -0.1260 -0.0180 0.4723
C20E C -0.11875(19) -0.11610(16) 0.45357(5)
H17E H -0.1216 -0.0919 0.4389
C21E C -0.11259(14) -0.19515(14) 0.45473(4)
C22E C -0.1096(2) -0.22973(16) 0.47608(5)
H18E H -0.1073 -0.2840 0.4771
C23E C -0.1098(2) -0.18635(18) 0.49615(5)
H19E H -0.1061 -0.2111 0.5107
C24E C -0.11254(13) -0.24238(13) 0.43303(4)
Co1K Co -0.15394(2) 0.38414(2) 0.66241(2)
Co2K Co 0.02318(2) 0.37284(2) 0.63001(2)
N1K N 0.15989(12) 0.99357(11) 0.66231(3)
N2K N -0.22190(11) 0.37489(11) 0.69293(3)
O1K O 0.12902(9) 0.50473(9) 0.60610(3)
O2K O 0.05441(10) 0.48212(10) 0.63714(3)
O3K O -0.56063(9) 0.38312(9) 0.81564(2)
O4K O -0.45890(9) 0.34050(9) 0.83546(3)
O5K O -0.09225(9) 0.38101(9) 0.63191(2)
H1K H -0.1043 0.4213 0.6245
O7K O -0.15062(9) 0.26047(9) 0.65757(2)
H2K H -0.1960 0.2437 0.6560
H3K H -0.1299 0.2396 0.6693
C1K C 0.1074(2) 0.95030(17) 0.67215(6)
H4K H 0.0720 0.9741 0.6823
C2K C 0.1009(2) 0.87284(18) 0.66857(6)
H5K H 0.0617 0.8451 0.6763
C3K C 0.14952(17) 0.83518(15) 0.65417(4)
C4K C 0.2093(2) 0.87974(18) 0.64551(7)
H6K H 0.2486 0.8562 0.6367
C5K C 0.21204(18) 0.95596(18) 0.64956(6)
H7K H 0.2530 0.9844 0.6430
C6K C 0.13976(18) 0.75427(16) 0.64769(5)
C7K C 0.1079(2) 0.70096(18) 0.66256(5)
H8K H 0.0948 0.7156 0.6779
C8K C 0.0951(2) 0.62677(17) 0.65536(5)
H9K H 0.0731 0.5910 0.6658
C9K C 0.11357(16) 0.60346(15) 0.63314(4)
C10K C 0.1481(3) 0.65551(18) 0.61885(5)
H10K H 0.1622 0.6405 0.6037
C11K C 0.1626(3) 0.72887(18) 0.62602(6)
H11K H 0.1888 0.7630 0.6160
C12K C 0.09770(14) 0.52358(14) 0.62488(4)
C13K C -0.2029(3) 0.3301(3) 0.71026(7)
H12K H -0.1577 0.3001 0.7088
C14K C -0.2449(3) 0.3239(3) 0.73075(8)
H13K H -0.2287 0.2901 0.7427
C15K C -0.31058(15) 0.36756(16) 0.73348(4)
C16K C -0.3357(2) 0.4094(3) 0.71367(7)
H14K H -0.3833 0.4356 0.7139
C17K C -0.2905(3) 0.4114(3) 0.69443(7)
H15K H -0.3078 0.4398 0.6814
C18K C -0.35714(15) 0.36523(16) 0.75489(4)
C19K C -0.32200(18) 0.3708(2) 0.77664(5)
H16K H -0.2680 0.3760 0.7777
C20K C -0.36610(16) 0.36875(19) 0.79643(5)
H17K H -0.3419 0.3716 0.8111
C21K C -0.44515(14) 0.36259(14) 0.79527(4)
C22K C -0.47973(16) 0.3596(2) 0.77392(5)
H18K H -0.5340 0.3573 0.7729
C23K C -0.43635(18) 0.3598(2) 0.75385(5)
H19K H -0.4611 0.3561 0.7393
C24K C -0.49238(13) 0.36254(13) 0.81697(4)
Co1N Co 0.15394(2) 0.11586(2) 0.66241(2)
Co2N Co -0.02318(2) 0.12716(2) 0.63001(2)
N1N N -0.15989(12) -0.49357(11) 0.66231(3)
N2N N 0.22190(11) 0.12511(11) 0.69293(3)
O1N O -0.12902(9) -0.00473(9) 0.60610(3)
O2N O -0.05441(10) 0.01788(10) 0.63714(3)
O3N O 0.56063(9) 0.11688(9) 0.81564(2)
O4N O 0.45890(9) 0.15950(9) 0.83546(3)
O5N O 0.09225(9) 0.11899(9) 0.63191(2)
H1N H 0.1043 0.0787 0.6245
O7N O 0.15062(9) 0.23953(9) 0.65757(2)
H2N H 0.1960 0.2563 0.6560
H3N H 0.1299 0.2604 0.6693
C1N C -0.1074(2) -0.45030(17) 0.67215(6)
H4N H -0.0720 -0.4741 0.6823
C2N C -0.1009(2) -0.37284(18) 0.66857(6)
H5N H -0.0617 -0.3451 0.6763
C3N C -0.14952(17) -0.33518(15) 0.65417(4)
C4N C -0.2093(2) -0.37974(18) 0.64551(7)
H6N H -0.2486 -0.3562 0.6367
C5N C -0.21204(18) -0.45596(18) 0.64956(6)
H7N H -0.2530 -0.4844 0.6430
C6N C -0.13976(18) -0.25427(16) 0.64769(5)
C7N C -0.1079(2) -0.20096(18) 0.66256(5)
H8N H -0.0948 -0.2156 0.6779
C8N C -0.0951(2) -0.12677(17) 0.65536(5)
H9N H -0.0731 -0.0910 0.6658
C9N C -0.11357(16) -0.10346(15) 0.63314(4)
C10N C -0.1481(3) -0.15551(18) 0.61885(5)
H10N H -0.1622 -0.1405 0.6037
C11N C -0.1626(3) -0.22887(18) 0.62602(6)
H11N H -0.1888 -0.2630 0.6160
C12N C -0.09770(14) -0.02358(14) 0.62488(4)
C13N C 0.2029(3) 0.1699(3) 0.71026(7)
H12N H 0.1577 0.1999 0.7088
C14N C 0.2449(3) 0.1761(3) 0.73075(8)
H13N H 0.2287 0.2099 0.7427
C15N C 0.31058(15) 0.13244(16) 0.73348(4)
C16N C 0.3357(2) 0.0906(3) 0.71367(7)
H14N H 0.3833 0.0644 0.7139
C17N C 0.2905(3) 0.0886(3) 0.69443(7)
H15N H 0.3078 0.0602 0.6814
C18N C 0.35714(15) 0.13477(16) 0.75489(4)
C19N C 0.32200(18) 0.1292(2) 0.77664(5)
H16N H 0.2680 0.1240 0.7777
C20N C 0.36610(16) 0.13125(19) 0.79643(5)
H17N H 0.3419 0.1284 0.8111
C21N C 0.44515(14) 0.13741(14) 0.79527(4)
C22N C 0.47973(16) 0.1404(2) 0.77392(5)
H18N H 0.5340 0.1427 0.7729
C23N C 0.43635(18) 0.1402(2) 0.75385(5)
H19N H 0.4611 0.1439 0.7393
C24N C 0.49238(13) 0.13746(13) 0.81697(4)
Co1_2 Co -0.86586(2) 0.40394(2) 0.58759(2)
Co1B Co -0.65394(2) 0.38414(2) 0.83759(2)
Co1E_2 Co 0.86586(2) 0.09606(2) 0.58759(2)
Co1G Co 0.65394(2) 0.11586(2) 0.83759(2)
Co1H Co -0.13414(2) -0.40394(2) 0.41241(2)
Co1K_2 Co -0.15394(2) -0.61586(2) 0.66241(2)
Co1M Co 0.13414(2) 0.90394(2) 0.41241(2)
Co1N_2 Co 0.15394(2) 1.11586(2) 0.66241(2)
Co2B Co -0.47682(2) 0.37284(2) 0.86999(2)
Co2G Co 0.47682(2) 0.12716(2) 0.86999(2)
Co2H Co -0.12284(2) -0.22682(2) 0.38001(2)
Co2M Co 0.12284(2) 0.72682(2) 0.38001(2)
N1_2 N -0.25643(11) 0.09011(12) 0.58769(3)
N1E_2 N 0.25643(11) 0.40989(12) 0.58769(3)
N1K_2 N 0.15989(12) -0.00643(11) 0.66231(3)
N1N_2 N -0.15989(12) 0.50643(11) 0.66231(3)
O3B O -0.06063(9) 0.38312(9) 0.68436(2)
O3G O 0.06063(9) 0.11688(9) 0.68436(2)
O3H O -0.13312(9) 0.18937(9) 0.56564(2)
O3M O 0.13312(9) 0.31063(9) 0.56564(2)
O4B O 0.04110(9) 0.34050(9) 0.66454(3)
O4G O -0.04110(9) 0.15950(9) 0.66454(3)
O4H O -0.09050(9) 0.29110(9) 0.58546(3)
O4M O 0.09050(9) 0.20890(9) 0.58546(3)
loop_
_geom_bond_atom_site_label_1
_geom_bond_atom_site_label_2
_geom_bond_site_symmetry_1
_geom_bond_site_symmetry_2
Co1 N2 1_555 1_555
Co2 O2 1_555 1_555
N1 C1 1_555 1_555
N2 C13 1_555 1_555
O1 C12 1_555 1_555
O2 C12 1_555 1_555
O3 C24 1_555 1_555
O4 C24 1_555 1_555
O5 Co1 1_555 1_555
H1 O5 1_555 1_555
O6 Co2 1_555 1_555
O7 Co1 1_555 1_555
H2 O7 1_555 1_555
H3 O7 1_555 1_555
C1 H4 1_555 1_555
C2 C1 1_555 1_555
H5 C2 1_555 1_555
C3 C2 1_555 1_555
C4 C3 1_555 1_555
H6 C4 1_555 1_555
C5 N1 1_555 1_555
H7 C5 1_555 1_555
C6 C3 1_555 1_555
C7 C6 1_555 1_555
H8 C7 1_555 1_555
C8 C7 1_555 1_555
H9 C8 1_555 1_555
C9 C8 1_555 1_555
C10 C9 1_555 1_555
H10 C10 1_555 1_555
C11 C6 1_555 1_555
H11 C11 1_555 1_555
C12 C9 1_555 1_555
C13 H12 1_555 1_555
C14 C13 1_555 1_555
H13 C14 1_555 1_555
C15 C14 1_555 1_555
C16 C15 1_555 1_555
H14 C16 1_555 1_555
C17 N2 1_555 1_555
H15 C17 1_555 1_555
C18 C15 1_555 1_555
C19 C18 1_555 1_555
H16 C19 1_555 1_555
C20 C19 1_555 1_555
H17 C20 1_555 1_555
C21 C20 1_555 1_555
C22 C21 1_555 1_555
H18 C22 1_555 1_555
C23 C18 1_555 1_555
H19 C23 1_555 1_555
C24 C21 1_555 1_555
N3 O8 1_555 1_555
O9 N3 1_555 1_555
O10 N3 1_555 1_555
O11 H20 1_555 1_555
C25 O11 1_555 1_555
H21 C25 1_555 1_555
H22 C25 1_555 1_555
C26 C25 1_555 1_555
H23 C26 1_555 1_555
H24 C26 1_555 1_555
H25 C26 1_555 1_555
O12 H26 1_555 1_555
C27 O12 1_555 1_555
H27 C27 1_555 1_555
H28 C27 1_555 1_555
C28 C27 1_555 1_555
H29 C28 1_555 1_555
H30 C28 1_555 1_555
H31 C28 1_555 1_555
O13 H32 1_555 1_555
C29 O13 1_555 1_555
H33 C29 1_555 1_555
H34 C29 1_555 1_555
C30 C29 1_555 1_555
H35 C30 1_555 1_555
H36 C30 1_555 1_555
H37 C30 1_555 1_555
Co1E N2E 1_555 1_555
Co2E O6 1_555 1_555
N1E C1E 1_555 1_555
N2E C13E 1_555 1_555
O1E C12E 1_555 1_555
O2E Co2E 1_555 1_555
O3E C24E 1_555 1_555
O4E C24E 1_555 1_555
O5E Co1E 1_555 1_555
H1E O5E 1_555 1_555
O7E Co1E 1_555 1_555
H2E O7E 1_555 1_555
H3E O7E 1_555 1_555
C1E H4E 1_555 1_555
C2E C1E 1_555 1_555
H5E C2E 1_555 1_555
C3E C2E 1_555 1_555
C4E C3E 1_555 1_555
H6E C4E 1_555 1_555
C5E N1E 1_555 1_555
H7E C5E 1_555 1_555
C6E C3E 1_555 1_555
C7E C6E 1_555 1_555
H8E C7E 1_555 1_555
C8E C7E 1_555 1_555
H9E C8E 1_555 1_555
C9E C8E 1_555 1_555
C10E C9E 1_555 1_555
H10E C10E 1_555 1_555
C11E C6E 1_555 1_555
H11E C11E 1_555 1_555
C12E O2E 1_555 1_555
C13E H12E 1_555 1_555
C14E C13E 1_555 1_555
H13E C14E 1_555 1_555
C15E C14E 1_555 1_555
C16E C15E 1_555 1_555
H14E C16E 1_555 1_555
C17E N2E 1_555 1_555
H15E C17E 1_555 1_555
C18E C15E 1_555 1_555
C19E C18E 1_555 1_555
H16E C19E 1_555 1_555
C20E C19E 1_555 1_555
H17E C20E 1_555 1_555
C21E C20E 1_555 1_555
C22E C21E 1_555 1_555
H18E C22E 1_555 1_555
C23E C18E 1_555 1_555
H19E C23E 1_555 1_555
C24E C21E 1_555 1_555
Co1K O1E 1_555 1_555
Co2K O5 1_555 1_555
N1K C1K 1_555 1_555
N2K Co1K 1_555 1_555
O1K Co1 1_555 1_555
O2K Co2K 1_555 1_555
O3K C24K 1_555 1_555
O4K C24K 1_555 1_555
O5K Co2E 1_555 1_555
H1K O5K 1_555 1_555
O7K Co2E 1_555 1_555
H2K O7K 1_555 1_555
H3K O7K 1_555 1_555
C1K H4K 1_555 1_555
C2K C1K 1_555 1_555
H5K C2K 1_555 1_555
C3K C2K 1_555 1_555
C4K C3K 1_555 1_555
H6K C4K 1_555 1_555
C5K N1K 1_555 1_555
H7K C5K 1_555 1_555
C6K C3K 1_555 1_555
C7K C6K 1_555 1_555
H8K C7K 1_555 1_555
C8K C7K 1_555 1_555
H9K C8K 1_555 1_555
C9K C8K 1_555 1_555
C10K C9K 1_555 1_555
H10K C10K 1_555 1_555
C11K C6K 1_555 1_555
H11K C11K 1_555 1_555
C12K O1K 1_555 1_555
C13K N2K 1_555 1_555
H12K C13K 1_555 1_555
C14K C13K 1_555 1_555
H13K C14K 1_555 1_555
C15K C14K 1_555 1_555
C16K C15K 1_555 1_555
H14K C16K 1_555 1_555
C17K N2K 1_555 1_555
H15K C17K 1_555 1_555
C18K C15K 1_555 1_555
C19K C18K 1_555 1_555
H16K C19K 1_555 1_555
C20K C19K 1_555 1_555
H17K C20K 1_555 1_555
C21K C20K 1_555 1_555
C22K C21K 1_555 1_555
H18K C22K 1_555 1_555
C23K C18K 1_555 1_555
H19K C23K 1_555 1_555
C24K C21K 1_555 1_555
Co1N O1 1_555 1_555
Co2N O6 1_555 1_555
N1N C1N 1_555 1_555
N2N Co1N 1_555 1_555
O1N Co1E 1_555 1_555
O2N Co2N 1_555 1_555
O3N C24N 1_555 1_555
O4N C24N 1_555 1_555
O5N Co2 1_555 1_555
H1N O5N 1_555 1_555
O7N Co2 1_555 1_555
H2N O7N 1_555 1_555
H3N O7N 1_555 1_555
C1N H4N 1_555 1_555
C2N C1N 1_555 1_555
H5N C2N 1_555 1_555
C3N C2N 1_555 1_555
C4N C3N 1_555 1_555
H6N C4N 1_555 1_555
C5N N1N 1_555 1_555
H7N C5N 1_555 1_555
C6N C3N 1_555 1_555
C7N C6N 1_555 1_555
H8N C7N 1_555 1_555
C8N C7N 1_555 1_555
H9N C8N 1_555 1_555
C9N C8N 1_555 1_555
C10N C9N 1_555 1_555
H10N C10N 1_555 1_555
C11N C6N 1_555 1_555
H11N C11N 1_555 1_555
C12N O1N 1_555 1_555
C13N N2N 1_555 1_555
H12N C13N 1_555 1_555
C14N C13N 1_555 1_555
H13N C14N 1_555 1_555
C15N C14N 1_555 1_555
C16N C15N 1_555 1_555
H14N C16N 1_555 1_555
C17N N2N 1_555 1_555
H15N C17N 1_555 1_555
C18N C15N 1_555 1_555
C19N C18N 1_555 1_555
H16N C19N 1_555 1_555
C20N C19N 1_555 1_555
H17N C20N 1_555 1_555
C21N C20N 1_555 1_555
C22N C21N 1_555 1_555
H18N C22N 1_555 1_555
C23N C18N 1_555 1_555
H19N C23N 1_555 1_555
C24N C21N 1_555 1_555
Co1_2 N1E 1_555 1_555
Co1B O3K 1_555 1_555
Co1E_2 N1 1_555 1_555
Co1G O3N 1_555 1_555
Co1H O3E 1_555 1_555
Co1K_2 N1N 1_555 1_555
Co1M O3 1_555 1_555
Co1N_2 N1K 1_555 1_555
Co2B O4K 1_555 1_555
Co2G O4N 1_555 1_555
Co2H O4E 1_555 1_555
Co2M O4 1_555 1_555
N1_2 Co1E 1_555 1_555
N1E_2 Co1 1_555 1_555
N1K_2 Co1N 1_555 1_555
N1N_2 Co1K 1_555 1_555
O3B Co1K 1_555 1_555
O3G Co1N 1_555 1_555
O3H Co1E 1_555 1_555
O3M Co1 1_555 1_555
O4B Co2K 1_555 1_555
O4G Co2N 1_555 1_555
O4H Co2E 1_555 1_555
O4M Co2 1_555 1_555
Co2 O5 1_555 1_555
O6 Co2K 1_555 1_555
O7 Co2K 1_555 1_555
C4 C5 1_555 1_555
C10 C11 1_555 1_555
C16 C17 1_555 1_555
C22 C23 1_555 1_555
Co2E O5E 1_555 1_555
O5E Co2N 1_555 1_555
O7E Co2N 1_555 1_555
C4E C5E 1_555 1_555
C9E C12E 1_555 1_555
C10E C11E 1_555 1_555
C16E C17E 1_555 1_555
C22E C23E 1_555 1_555
Co1K O5K 1_555 1_555
Co1K O7K 1_555 1_555
Co2K O5K 1_555 1_555
O2K C12K 1_555 1_555
C4K C5K 1_555 1_555
C9K C12K 1_555 1_555
C10K C11K 1_555 1_555
C16K C17K 1_555 1_555
C22K C23K 1_555 1_555
Co1N O5N 1_555 1_555
Co1N O7N 1_555 1_555
Co2N O5N 1_555 1_555
O2N C12N 1_555 1_555
C4N C5N 1_555 1_555
C9N C12N 1_555 1_555
C10N C11N 1_555 1_555
C16N C17N 1_555 1_555
C22N C23N 1_555 1_555

#END
