
#######################################################################
#
#                 Cambridge Crystallographic Data Centre
#                                CCDC 
#
#######################################################################
#
# If this CIF has been generated from an entry in the Cambridge 
# Structural Database, then it will include bibliographic, chemical, 
# crystal, experimental, refinement or atomic coordinate data resulting 
# from the CCDC's data processing and validation procedures.
#
#######################################################################

data_ERUNUC
_chemical_formula_moiety         '(C144 H108 Co8 N10 O31)n'
_symmetry_cell_setting           tetragonal
_symmetry_space_group_name_H-M   'I 41'
_symmetry_Int_Tables_number      80
_space_group_name_Hall           'I 4bw'
loop_
_symmetry_equiv_pos_site_id
_symmetry_equiv_pos_as_xyz
1 x,y,z
2 1/2-x,1/2-y,1/2+z
3 -y,1/2+x,1/4+z
4 1/2+y,-x,3/4+z
5 1/2+x,1/2+y,1/2+z
6 -x,-y,z
7 1/2-y,x,3/4+z
8 y,1/2-x,1/4+z
_cell_length_a                   22.0058(5)
_cell_length_b                   22.0058(5)
_cell_length_c                   72.831(2)
_cell_angle_alpha                90
_cell_angle_beta                 90
_cell_angle_gamma                90
_cell_volume                     35268.8
loop_
_atom_site_label
_atom_site_type_symbol
_atom_site_fract_x
_atom_site_fract_y
_atom_site_fract_z
Co1 Co 0.47966(3) 0.90163(3) 0.50949(2)
Co2 Co 0.40162(3) 1.02015(3) 0.50163(2)
Co3 Co 0.62008(3) 0.89051(3) 0.53540(2)
Co4 Co 0.39029(3) 0.87943(3) 0.47578(2)
O1 O 0.39517(14) 0.92908(13) 0.50039(3)
H1 H 0.3631 0.9146 0.5091
O2 O 0.5000 1.0000 0.50609(10)
O3 O 0.57229(15) 0.89401(13) 0.51127(3)
H2 H 0.5871 0.8617 0.5027
O4 O 0.37883(15) 1.01023(14) 0.53190(4)
H3 H 0.3385 0.9917 0.5342
H4 H 0.4107 0.9891 0.5390
O5 O 0.46628(15) 0.92488(17) 0.53717(4)
O6 O 0.54598(15) 0.89290(17) 0.55257(3)
O7 O 0.42723(14) 1.03632(15) 0.47423(4)
O8 O -0.29868(14) 0.89048(16) 0.52077(4)
O9 O 0.39296(16) 0.79917(16) 0.49040(4)
O10 O -0.31420(16) 0.95522(16) 0.49666(4)
N1 N 0.29262(18) 0.8789(2) 0.47531(5)
N2 N 0.17329(19) 0.89888(19) 0.70081(4)
N3 N 0.3759(2) 0.20597(19) 0.53586(5)
C1 C -0.2817(2) 0.9192(2) 0.50705(6)
C2 C 0.4228(3) 0.7810(2) 0.50438(6)
C3 C 0.4135(3) 0.7172(2) 0.50906(6)
C4 C 0.4906(2) 0.9073(2) 0.55174(6)
C5 C 0.4130(2) 1.0062(2) 0.45937(5)
C6 C 0.4229(4) 0.6356(5) 0.53190(13)
H5 H 0.4339 0.6236 0.5440
C7 C 0.3864(3) 0.3328(3) 0.53120(9)
C8 C 0.2471(3) 0.9048(3) 0.66893(8)
C9 C 0.3492(5) 0.2996(5) 0.52054(13)
H6 H 0.3301 0.3184 0.5103
C10 C 0.4224(4) 0.3023(4) 0.54327(12)
H7 H 0.4510 0.3232 0.5507
C11 C 0.2625(4) 0.8529(4) 0.48997(10)
H8 H 0.2863 0.8346 0.4993
C12 C 0.48326(11) 0.92843(10) 0.58599(3)
H9 H 0.5253 0.9381 0.5866
C13 C 0.45627(13) 0.91560(15) 0.56918(3)
C14 C 0.39476(13) 0.90150(18) 0.56834(4)
H10 H 0.3763 0.8927 0.5569
C15 C 0.36024(12) 0.90024(17) 0.58432(5)
H11 H 0.3182 0.8906 0.5838
C16 C 0.38723(13) 0.91307(18) 0.60113(4)
C17 C 0.44874(13) 0.92717(15) 0.60197(3)
H12 H 0.4672 0.9359 0.6135
C18 C 0.2587(3) 0.9026(3) 0.46226(9)
H13 H 0.2777 0.9199 0.4518
C19 C 0.41991(12) 1.14067(13) 0.42564(4)
H14 H 0.4254 1.1835 0.4258
C20 C 0.41629(17) 1.10853(14) 0.44203(4)
H15 H 0.4193 1.1294 0.4534
C21 C 0.40821(19) 1.04589(14) 0.44176(5)
C22 C 0.40375(18) 1.01539(13) 0.42510(5)
H16 H 0.3982 0.9726 0.4249
C23 C 0.4074(2) 1.04753(15) 0.40871(5)
H17 H 0.4043 1.0267 0.3973
C24 C 0.41544(18) 1.11017(15) 0.40898(4)
C25 C 0.2028(4) 0.8517(4) 0.49182(12)
H18 H 0.1850 0.8326 0.5022
C26 C 0.1655(3) 0.8785(3) 0.47845(8)
C27 C 0.3371(4) 0.2348(4) 0.52426(11)
H19 H 0.3038 0.2142 0.5188
C28 C 0.3782(4) 0.6143(4) 0.50140(12)
H20 H 0.3605 0.5872 0.4928
C29 C 0.4068(5) 0.4843(5) 0.50761(16)
H21 H 0.4179 0.5003 0.4960
C30 C 0.3774(5) 0.5073(5) 0.54005(15)
H22 H 0.3703 0.5348 0.5499
C31 C 0.3759(6) 0.4429(6) 0.54314(19)
H23 H 0.3676 0.4276 0.5551
C32 C 0.4066(5) 0.4204(5) 0.51078(15)
H24 H 0.4187 0.3920 0.5017
C33 C 0.1962(4) 0.9027(4) 0.46355(11)
H25 H 0.1733 0.9201 0.4538
C34 C 0.39483(15) 1.15812(17) 0.35961(5)
H26 H 0.3838 1.1392 0.3484
C35 C 0.4082(2) 1.21984(17) 0.36001(6)
C36 C 0.4244(3) 1.24751(19) 0.37645(7)
H27 H 0.4335 1.2897 0.3767
C37 C 0.4272(3) 1.2135(3) 0.39250(6)
H28 H 0.4382 1.2324 0.4037
C38 C 0.4138(2) 1.1517(2) 0.39211(5)
C39 C 0.3977(2) 1.12406(18) 0.37566(5)
H29 H 0.3885 1.0819 0.3754
C40 C 0.3859(3) 0.6777(3) 0.49720(9)
H30 H 0.3712 0.6927 0.4858
C41 C 0.3982(4) 0.5928(4) 0.51916(11)
O11 O 0.39471(15) 0.95470(15) 0.45821(4)
C42 C 0.4162(4) 0.2394(4) 0.54435(12)
H31 H 0.4441 0.2186 0.5521
C43 C 0.41384(14) 1.35142(15) 0.32592(4)
H32 H 0.4229 1.3936 0.3260
C44 C 0.4180(2) 1.31797(18) 0.34206(4)
H33 H 0.4299 1.3373 0.3532
C45 C 0.4048(3) 1.25620(18) 0.34197(6)
C46 C 0.3874(3) 1.22788(16) 0.32573(7)
H34 H 0.3784 1.1857 0.3257
C47 C 0.3833(2) 1.26134(18) 0.30960(6)
H35 H 0.3714 1.2420 0.2985
N4 N 0.39645(19) 1.32311(18) 0.30969(4)
O12 O 0.45575(17) 0.81267(15) 0.51370(4)
C48 C 0.1902(5) 0.8758(5) 0.66877(13)
H36 H 0.1752 0.8580 0.6578
C49 C 0.4305(4) 0.6952(4) 0.52614(11)
H37 H 0.4487 0.7229 0.5345
C50 C 0.2287(4) 0.9220(4) 0.70038(11)
H38 H 0.2454 0.9353 0.7117
C51 C 0.2643(5) 0.9285(5) 0.68503(13)
H39 H 0.3017 0.9500 0.6859
O13 O 0.48928(13) 0.88028(15) 0.47936(3)
H40 H 0.5098 0.9128 0.4723
H41 H 0.5086 0.8404 0.4770
C52 C 0.1559(4) 0.8733(4) 0.68473(12)
H42 H 0.1182 0.8524 0.6844
C53 C 0.3247(2) 0.8622(2) 0.64802(6)
H43 H 0.3274 0.8285 0.6561
C54 C 0.2872(2) 0.9111(2) 0.65234(7)
C55 C 0.2833(3) 0.9604(2) 0.64048(9)
H44 H 0.2577 0.9938 0.6434
C56 C 0.3168(4) 0.9609(3) 0.62429(8)
H45 H 0.3141 0.9946 0.6162
C57 C 0.3542(3) 0.9120(3) 0.61997(7)
C58 C 0.3581(2) 0.8627(3) 0.63184(6)
H46 H 0.3837 0.8293 0.6289
C59 C -0.1975(2) 0.90434(19) 0.48314(6)
H47 H -0.2270 0.9017 0.4736
C60 C -0.1361(2) 0.8987(3) 0.47901(7)
H48 H -0.1236 0.8922 0.4667
C61 C -0.0931(2) 0.9026(3) 0.49292(9)
C62 C -0.1114(3) 0.9121(4) 0.51096(8)
H49 H -0.0820 0.9147 0.5205
C63 C -0.1728(3) 0.9177(4) 0.51508(6)
H50 H -0.1854 0.9242 0.5274
C64 C -0.2159(2) 0.9138(3) 0.50117(6)
C65 C 0.0772(2) 0.87497(17) 0.49989(6)
H51 H 0.1043 0.8630 0.5094
C66 C 0.0993(2) 0.8857(2) 0.48231(6)
C67 C 0.0597(3) 0.9033(3) 0.46840(6)
H52 H 0.0748 0.9106 0.4564
C68 C -0.0019(3) 0.9100(3) 0.47209(8)
H53 H -0.0289 0.9220 0.4626
C69 C -0.0239(2) 0.8992(3) 0.48968(8)
C70 C 0.0156(2) 0.8817(2) 0.50358(7)
H54 H 0.0006 0.8743 0.5156
C71 C 0.3886(3) 0.5277(3) 0.52364(9)
C72 C 0.3868(4) 0.4025(3) 0.52859(10)
Co1E Co -0.47966(3) 1.09837(3) 0.50949(2)
Co2E Co -0.40162(3) 0.97985(3) 0.50163(2)
Co3E Co -0.62008(3) 1.10949(3) 0.53540(2)
Co4E Co -0.39029(3) 1.12057(3) 0.47578(2)
O1E O -0.39517(14) 1.07092(13) 0.50039(3)
H1E H -0.3631 1.0854 0.5091
O3E O -0.57229(15) 1.10599(13) 0.51127(3)
H2E H -0.5871 1.1383 0.5027
O4E O -0.37883(15) 0.98977(14) 0.53190(4)
H3E H -0.3385 1.0083 0.5342
H4E H -0.4107 1.0109 0.5390
O5E O -0.46628(15) 1.07512(17) 0.53717(4)
O6E O -0.54598(15) 1.10710(17) 0.55257(3)
O7E O -0.42723(14) 0.96368(15) 0.47423(4)
O8E O 0.29868(14) 1.10952(16) 0.52077(4)
O9E O -0.39296(16) 1.20083(16) 0.49040(4)
O10E O 0.31420(16) 1.04478(16) 0.49666(4)
N1E N -0.29262(18) 1.1211(2) 0.47531(5)
N2E N -0.17329(19) 1.10112(19) 0.70081(4)
N3E N -0.3759(2) 1.79403(19) 0.53586(5)
C1E C 0.2817(2) 1.0808(2) 0.50705(6)
C2E C -0.4228(3) 1.2190(2) 0.50438(6)
C3E C -0.4135(3) 1.2828(2) 0.50906(6)
C4E C -0.4906(2) 1.0927(2) 0.55174(6)
C5E C -0.4130(2) 0.9938(2) 0.45937(5)
C6E C -0.4229(4) 1.3644(5) 0.53190(13)
H5E H -0.4339 1.3764 0.5440
C7E C -0.3864(3) 1.6672(3) 0.53120(9)
C8E C -0.2471(3) 1.0952(3) 0.66893(8)
C9E C -0.3492(5) 1.7004(5) 0.52054(13)
H6E H -0.3301 1.6816 0.5103
C10E C -0.4224(4) 1.6977(4) 0.54327(12)
H7E H -0.4510 1.6768 0.5507
C11E C -0.2625(4) 1.1471(4) 0.48997(10)
H8E H -0.2863 1.1654 0.4993
C12E C -0.48326(11) 1.07157(10) 0.58599(3)
H9E H -0.5253 1.0619 0.5866
C13E C -0.45627(13) 1.08440(15) 0.56918(3)
C14E C -0.39476(13) 1.09850(18) 0.56834(4)
H10E H -0.3763 1.1073 0.5569
C15E C -0.36024(12) 1.09976(17) 0.58432(5)
H11E H -0.3182 1.1094 0.5838
C16E C -0.38723(13) 1.08693(18) 0.60113(4)
C17E C -0.44874(13) 1.07283(15) 0.60197(3)
H12E H -0.4672 1.0641 0.6135
C18E C -0.2587(3) 1.0974(3) 0.46226(9)
H13E H -0.2777 1.0801 0.4518
C19E C -0.41991(12) 0.85933(13) 0.42564(4)
H14E H -0.4254 0.8165 0.4258
C20E C -0.41629(17) 0.89147(14) 0.44203(4)
H15E H -0.4193 0.8706 0.4534
C21E C -0.40821(19) 0.95411(14) 0.44176(5)
C22E C -0.40375(18) 0.98461(13) 0.42510(5)
H16E H -0.3982 1.0274 0.4249
C23E C -0.4074(2) 0.95247(15) 0.40871(5)
H17E H -0.4043 0.9733 0.3973
C24E C -0.41544(18) 0.88983(15) 0.40898(4)
C25E C -0.2028(4) 1.1483(4) 0.49182(12)
H18E H -0.1850 1.1674 0.5022
C26E C -0.1655(3) 1.1215(3) 0.47845(8)
C27E C -0.3371(4) 1.7652(4) 0.52426(11)
H19E H -0.3038 1.7858 0.5188
C28E C -0.3782(4) 1.3857(4) 0.50140(12)
H20E H -0.3605 1.4128 0.4928
C29E C -0.4068(5) 1.5157(5) 0.50761(16)
H21E H -0.4179 1.4997 0.4960
C30E C -0.3774(5) 1.4927(5) 0.54005(15)
H22E H -0.3703 1.4652 0.5499
C31E C -0.3759(6) 1.5571(6) 0.54314(19)
H23E H -0.3676 1.5724 0.5551
C32E C -0.4066(5) 1.5796(5) 0.51078(15)
H24E H -0.4187 1.6080 0.5017
C33E C -0.1962(4) 1.0973(4) 0.46355(11)
H25E H -0.1733 1.0799 0.4538
C34E C -0.39483(15) 0.84188(17) 0.35961(5)
H26E H -0.3838 0.8608 0.3484
C35E C -0.4082(2) 0.78016(17) 0.36001(6)
C36E C -0.4244(3) 0.75249(19) 0.37645(7)
H27E H -0.4335 0.7103 0.3767
C37E C -0.4272(3) 0.7865(3) 0.39250(6)
H28E H -0.4382 0.7676 0.4037
C38E C -0.4138(2) 0.8483(2) 0.39211(5)
C39E C -0.3977(2) 0.87594(18) 0.37566(5)
H29E H -0.3885 0.9181 0.3754
C40E C -0.3859(3) 1.3223(3) 0.49720(9)
H30E H -0.3712 1.3073 0.4858
C41E C -0.3982(4) 1.4072(4) 0.51916(11)
O11E O -0.39471(15) 1.04530(15) 0.45821(4)
C42E C -0.4162(4) 1.7606(4) 0.54435(12)
H31E H -0.4441 1.7814 0.5521
C43E C -0.41384(14) 0.64858(15) 0.32592(4)
H32E H -0.4229 0.6064 0.3260
C44E C -0.4180(2) 0.68203(18) 0.34206(4)
H33E H -0.4299 0.6627 0.3532
C45E C -0.4048(3) 0.74380(18) 0.34197(6)
C46E C -0.3874(3) 0.77212(16) 0.32573(7)
H34E H -0.3784 0.8143 0.3257
C47E C -0.3833(2) 0.73866(18) 0.30960(6)
H35E H -0.3714 0.7580 0.2985
N4E N -0.39645(19) 0.67689(18) 0.30969(4)
O12E O -0.45575(17) 1.18733(15) 0.51370(4)
C48E C -0.1902(5) 1.1242(5) 0.66877(13)
H36E H -0.1752 1.1420 0.6578
C49E C -0.4305(4) 1.3048(4) 0.52614(11)
H37E H -0.4487 1.2771 0.5345
C50E C -0.2287(4) 1.0780(4) 0.70038(11)
H38E H -0.2454 1.0647 0.7117
C51E C -0.2643(5) 1.0715(5) 0.68503(13)
H39E H -0.3017 1.0500 0.6859
O13E O -0.48928(13) 1.11972(15) 0.47936(3)
H40E H -0.5098 1.0872 0.4723
H41E H -0.5086 1.1596 0.4770
C52E C -0.1559(4) 1.1267(4) 0.68473(12)
H42E H -0.1182 1.1476 0.6844
C53E C -0.3247(2) 1.1378(2) 0.64802(6)
H43E H -0.3274 1.1715 0.6561
C54E C -0.2872(2) 1.0889(2) 0.65234(7)
C55E C -0.2833(3) 1.0396(2) 0.64048(9)
H44E H -0.2577 1.0062 0.6434
C56E C -0.3168(4) 1.0391(3) 0.62429(8)
H45E H -0.3141 1.0054 0.6162
C57E C -0.3542(3) 1.0880(3) 0.61997(7)
C58E C -0.3581(2) 1.1373(3) 0.63184(6)
H46E H -0.3837 1.1707 0.6289
C59E C 0.1975(2) 1.09566(19) 0.48314(6)
H47E H 0.2270 1.0983 0.4736
C60E C 0.1361(2) 1.1013(3) 0.47901(7)
H48E H 0.1236 1.1078 0.4667
C61E C 0.0931(2) 1.0974(3) 0.49292(9)
C62E C 0.1114(3) 1.0879(4) 0.51096(8)
H49E H 0.0820 1.0853 0.5205
C63E C 0.1728(3) 1.0823(4) 0.51508(6)
H50E H 0.1854 1.0758 0.5274
C64E C 0.2159(2) 1.0862(3) 0.50117(6)
C65E C -0.0772(2) 1.12503(17) 0.49989(6)
H51E H -0.1043 1.1370 0.5094
C66E C -0.0993(2) 1.1143(2) 0.48231(6)
C67E C -0.0597(3) 1.0967(3) 0.46840(6)
H52E H -0.0748 1.0894 0.4564
C68E C 0.0019(3) 1.0900(3) 0.47209(8)
H53E H 0.0289 1.0780 0.4626
C69E C 0.0239(2) 1.1008(3) 0.48968(8)
C70E C -0.0156(2) 1.1183(2) 0.50358(7)
H54E H -0.0006 1.1257 0.5156
C71E C -0.3886(3) 1.4723(3) 0.52364(9)
C72E C -0.3868(4) 1.5975(3) 0.52859(10)
Co1E_2 Co 0.52034(3) 1.09837(3) 0.50949(2)
Co2_2 Co -0.59838(3) 1.02015(3) 0.50163(2)
Co2E_2 Co 0.59838(3) 0.97985(3) 0.50163(2)
Co3_2 Co -0.37992(3) 0.89051(3) 0.53540(2)
Co3_3 Co -0.37992(3) 1.89051(3) 0.53540(2)
Co3C Co 0.39051(3) 1.37992(3) 0.28540(2)
Co3E_2 Co 0.37992(3) 0.10949(3) 0.53540(2)
Co3E_3 Co 0.37992(3) 1.10949(3) 0.53540(2)
Co3F Co -0.39051(3) 0.62008(3) 0.28540(2)
Co4B Co 0.12057(3) 0.89029(3) 0.72578(2)
Co4G Co -0.12057(3) 1.10971(3) 0.72578(2)
O2_2 O -0.5000 1.0000 0.50609(10)
O3_2 O -0.42771(15) 0.89401(13) 0.51127(3)
O3E_2 O 0.42771(15) 1.10599(13) 0.51127(3)
O4_2 O -0.62117(15) 1.01023(14) 0.53190(4)
O4E_2 O 0.62117(15) 0.98977(14) 0.53190(4)
O8_2 O 0.70132(14) 0.89048(16) 0.52077(4)
O8E_2 O -0.70132(14) 1.10952(16) 0.52077(4)
N2C N 0.39888(19) 0.82671(19) 0.45081(4)
N2F N -0.39888(19) 1.17329(19) 0.45081(4)
N3_2 N -0.6241(2) 1.20597(19) 0.53586(5)
N3E_2 N 0.6241(2) 0.79403(19) 0.53586(5)
N4B N 0.67689(18) 0.89645(19) 0.55969(4)
N4G N -0.67689(18) 1.10355(19) 0.55969(4)
O14 O 0.6203(3) 0.8136(3) 0.48456(9)
O15 O 0.5372(3) 0.7701(4) 0.47657(11)
N5 N 0.5914(4) 0.7707(4) 0.47887(14)
O16 O 0.6195(4) 0.7197(4) 0.47638(14)
O17 O 0.3066(3) 0.8880(4) 0.52789(12)
O18 O 0.2692(4) 0.9680(3) 0.53832(10)
N6 N 0.2630(4) 0.9173(4) 0.53173(13)
O19 O 0.2084(4) 0.8984(5) 0.53062(15)
loop_
_geom_bond_atom_site_label_1
_geom_bond_atom_site_label_2
_geom_bond_site_symmetry_1
_geom_bond_site_symmetry_2
Co1 O1 1_555 1_555
Co2 O1 1_555 1_555
Co3 O3 1_555 1_555
Co4 O1 1_555 1_555
O1 H1 1_555 1_555
O2 Co1 1_555 1_555
O3 Co1 1_555 1_555
H2 O3 1_555 1_555
O4 Co2 1_555 1_555
H3 O4 1_555 1_555
H4 O4 1_555 1_555
O5 Co1 1_555 1_555
O6 Co3 1_555 1_555
O7 Co2 1_555 1_555
O8 C1 1_555 1_555
O9 Co4 1_555 1_555
O10 C1 1_555 1_555
N1 Co4 1_555 1_555
N2 C50 1_555 1_555
N3 C27 1_555 1_555
C1 C64 1_555 1_555
C2 O9 1_555 1_555
C3 C2 1_555 1_555
C4 O5 1_555 1_555
C5 O7 1_555 1_555
C6 H5 1_555 1_555
C7 C9 1_555 1_555
C8 C48 1_555 1_555
C9 H6 1_555 1_555
C10 C7 1_555 1_555
H7 C10 1_555 1_555
C11 N1 1_555 1_555
H8 C11 1_555 1_555
C12 H9 1_555 1_555
C13 C4 1_555 1_555
C14 C13 1_555 1_555
H10 C14 1_555 1_555
C15 C14 1_555 1_555
H11 C15 1_555 1_555
C16 C15 1_555 1_555
C17 C12 1_555 1_555
H12 C17 1_555 1_555
C18 N1 1_555 1_555
H13 C18 1_555 1_555
C19 H14 1_555 1_555
C20 C19 1_555 1_555
H15 C20 1_555 1_555
C21 C5 1_555 1_555
C22 C21 1_555 1_555
H16 C22 1_555 1_555
C23 C22 1_555 1_555
H17 C23 1_555 1_555
C24 C19 1_555 1_555
C25 C11 1_555 1_555
H18 C25 1_555 1_555
C26 C25 1_555 1_555
C27 C9 1_555 1_555
H19 C27 1_555 1_555
C28 H20 1_555 1_555
C29 H21 1_555 1_555
C30 H22 1_555 1_555
C31 C30 1_555 1_555
H23 C31 1_555 1_555
C32 C29 1_555 1_555
H24 C32 1_555 1_555
C33 C18 1_555 1_555
H25 C33 1_555 1_555
C34 H26 1_555 1_555
C35 C34 1_555 1_555
C36 C35 1_555 1_555
H27 C36 1_555 1_555
C37 C36 1_555 1_555
H28 C37 1_555 1_555
C38 C24 1_555 1_555
C39 C34 1_555 1_555
H29 C39 1_555 1_555
C40 C3 1_555 1_555
H30 C40 1_555 1_555
C41 C6 1_555 1_555
O11 Co4 1_555 1_555
C42 N3 1_555 1_555
H31 C42 1_555 1_555
C43 H32 1_555 1_555
C44 C43 1_555 1_555
H33 C44 1_555 1_555
C45 C35 1_555 1_555
C46 C45 1_555 1_555
H34 C46 1_555 1_555
C47 C46 1_555 1_555
H35 C47 1_555 1_555
N4 C43 1_555 1_555
O12 Co1 1_555 1_555
C48 H36 1_555 1_555
C49 C3 1_555 1_555
H37 C49 1_555 1_555
C50 H38 1_555 1_555
C51 C8 1_555 1_555
H39 C51 1_555 1_555
O13 Co1 1_555 1_555
H40 O13 1_555 1_555
H41 O13 1_555 1_555
C52 N2 1_555 1_555
H42 C52 1_555 1_555
C53 H43 1_555 1_555
C54 C8 1_555 1_555
C55 C54 1_555 1_555
H44 C55 1_555 1_555
C56 C55 1_555 1_555
H45 C56 1_555 1_555
C57 C16 1_555 1_555
C58 C53 1_555 1_555
H46 C58 1_555 1_555
C59 H47 1_555 1_555
C60 C59 1_555 1_555
H48 C60 1_555 1_555
C61 C60 1_555 1_555
C62 C61 1_555 1_555
H49 C62 1_555 1_555
C63 C62 1_555 1_555
H50 C63 1_555 1_555
C64 C59 1_555 1_555
C65 H51 1_555 1_555
C66 C26 1_555 1_555
C67 C66 1_555 1_555
H52 C67 1_555 1_555
C68 C67 1_555 1_555
H53 C68 1_555 1_555
C69 C61 1_555 1_555
C70 C65 1_555 1_555
H54 C70 1_555 1_555
C71 C29 1_555 1_555
C72 C7 1_555 1_555
O14 N5 1_555 1_555
O15 N5 1_555 1_555
N5 O16 1_555 1_555
O17 N6 1_555 1_555
O18 N6 1_555 1_555
N6 O19 1_555 1_555
Co1E O1E 1_555 1_555
Co2E O10 1_555 1_555
Co3E O3E 1_555 1_555
Co4E O1E 1_555 1_555
O1E Co2E 1_555 1_555
H1E O1E 1_555 1_555
O3E Co1E 1_555 1_555
H2E O3E 1_555 1_555
O4E Co2E 1_555 1_555
H3E O4E 1_555 1_555
H4E O4E 1_555 1_555
O5E Co1E 1_555 1_555
O6E Co3E 1_555 1_555
O7E Co2E 1_555 1_555
O8E C1E 1_555 1_555
O9E Co4E 1_555 1_555
O10E Co2 1_555 1_555
N1E Co4E 1_555 1_555
N2E C50E 1_555 1_555
N3E C27E 1_555 1_555
C1E O10E 1_555 1_555
C2E O9E 1_555 1_555
C3E C2E 1_555 1_555
C4E O5E 1_555 1_555
C5E O7E 1_555 1_555
C6E H5E 1_555 1_555
C7E C9E 1_555 1_555
C8E C48E 1_555 1_555
C9E H6E 1_555 1_555
C10E C7E 1_555 1_555
H7E C10E 1_555 1_555
C11E N1E 1_555 1_555
H8E C11E 1_555 1_555
C12E H9E 1_555 1_555
C13E C4E 1_555 1_555
C14E C13E 1_555 1_555
H10E C14E 1_555 1_555
C15E C14E 1_555 1_555
H11E C15E 1_555 1_555
C16E C15E 1_555 1_555
C17E C12E 1_555 1_555
H12E C17E 1_555 1_555
C18E N1E 1_555 1_555
H13E C18E 1_555 1_555
C19E H14E 1_555 1_555
C20E C19E 1_555 1_555
H15E C20E 1_555 1_555
C21E C5E 1_555 1_555
C22E C21E 1_555 1_555
H16E C22E 1_555 1_555
C23E C22E 1_555 1_555
H17E C23E 1_555 1_555
C24E C19E 1_555 1_555
C25E C11E 1_555 1_555
H18E C25E 1_555 1_555
C26E C25E 1_555 1_555
C27E C9E 1_555 1_555
H19E C27E 1_555 1_555
C28E H20E 1_555 1_555
C29E H21E 1_555 1_555
C30E H22E 1_555 1_555
C31E C30E 1_555 1_555
H23E C31E 1_555 1_555
C32E C29E 1_555 1_555
H24E C32E 1_555 1_555
C33E C18E 1_555 1_555
H25E C33E 1_555 1_555
C34E H26E 1_555 1_555
C35E C34E 1_555 1_555
C36E C35E 1_555 1_555
H27E C36E 1_555 1_555
C37E C36E 1_555 1_555
H28E C37E 1_555 1_555
C38E C24E 1_555 1_555
C39E C34E 1_555 1_555
H29E C39E 1_555 1_555
C40E C3E 1_555 1_555
H30E C40E 1_555 1_555
C41E C6E 1_555 1_555
O11E Co4E 1_555 1_555
C42E N3E 1_555 1_555
H31E C42E 1_555 1_555
C43E H32E 1_555 1_555
C44E C43E 1_555 1_555
H33E C44E 1_555 1_555
C45E C35E 1_555 1_555
C46E C45E 1_555 1_555
H34E C46E 1_555 1_555
C47E C46E 1_555 1_555
H35E C47E 1_555 1_555
N4E C43E 1_555 1_555
O12E Co1E 1_555 1_555
C48E H36E 1_555 1_555
C49E C3E 1_555 1_555
H37E C49E 1_555 1_555
C50E H38E 1_555 1_555
C51E C8E 1_555 1_555
H39E C51E 1_555 1_555
O13E Co1E 1_555 1_555
H40E O13E 1_555 1_555
H41E O13E 1_555 1_555
C52E N2E 1_555 1_555
H42E C52E 1_555 1_555
C53E H43E 1_555 1_555
C54E C8E 1_555 1_555
C55E C54E 1_555 1_555
H44E C55E 1_555 1_555
C56E C55E 1_555 1_555
H45E C56E 1_555 1_555
C57E C16E 1_555 1_555
C58E C53E 1_555 1_555
H46E C58E 1_555 1_555
C59E H47E 1_555 1_555
C60E C59E 1_555 1_555
H48E C60E 1_555 1_555
C61E C60E 1_555 1_555
C62E C61E 1_555 1_555
H49E C62E 1_555 1_555
C63E C62E 1_555 1_555
H50E C63E 1_555 1_555
C64E C1E 1_555 1_555
C65E H51E 1_555 1_555
C66E C26E 1_555 1_555
C67E C66E 1_555 1_555
H52E C67E 1_555 1_555
C68E C67E 1_555 1_555
H53E C68E 1_555 1_555
C69E C61E 1_555 1_555
C70E C65E 1_555 1_555
H54E C70E 1_555 1_555
C71E C29E 1_555 1_555
C72E C7E 1_555 1_555
Co1E_2 O2 1_555 1_555
Co2_2 O3E 1_555 1_555
Co2E_2 O2 1_555 1_555
Co3_2 O8 1_555 1_555
Co3_3 N3E 1_555 1_555
Co3C N4 1_555 1_555
Co3E_2 N3 1_555 1_555
Co3E_3 O4 1_555 1_555
Co3F N4E 1_555 1_555
Co4B N2 1_555 1_555
Co4G N2E 1_555 1_555
O2_2 Co1E 1_555 1_555
O3_2 Co2E 1_555 1_555
O3E_2 Co2 1_555 1_555
O4_2 Co3E 1_555 1_555
O4E_2 Co3 1_555 1_555
O8_2 Co3 1_555 1_555
O8E_2 Co3E 1_555 1_555
N2C Co4 1_555 1_555
N2F Co4E 1_555 1_555
N3_2 Co3E 1_555 1_555
N3E_2 Co3 1_555 1_555
N4B Co3 1_555 1_555
N4G Co3E 1_555 1_555
Co2 O2 1_555 1_555
Co4 O13 1_555 1_555
O3 Co2E_2 1_555 1_555
O6 C4 1_555 1_555
C2 O12 1_555 1_555
C5 O11 1_555 1_555
C6 C49 1_555 1_555
C10 C42 1_555 1_555
C12 C13 1_555 1_555
C16 C17 1_555 1_555
C20 C21 1_555 1_555
C23 C24 1_555 1_555
C26 C33 1_555 1_555
C28 C40 1_555 1_555
C28 C41 1_555 1_555
C30 C71 1_555 1_555
C31 C72 1_555 1_555
C32 C72 1_555 1_555
C37 C38 1_555 1_555
C38 C39 1_555 1_555
C41 C71 1_555 1_555
C44 C45 1_555 1_555
C47 N4 1_555 1_555
C48 C52 1_555 1_555
C50 C51 1_555 1_555
C53 C54 1_555 1_555
C56 C57 1_555 1_555
C57 C58 1_555 1_555
C63 C64 1_555 1_555
C65 C66 1_555 1_555
C68 C69 1_555 1_555
C69 C70 1_555 1_555
Co2E O2_2 1_555 1_555
Co4E O13E 1_555 1_555
O4E Co3_2 1_555 1_555
O6E C4E 1_555 1_555
O8E Co3E_3 1_555 1_555
C2E O12E 1_555 1_555
C5E O11E 1_555 1_555
C6E C49E 1_555 1_555
C10E C42E 1_555 1_555
C12E C13E 1_555 1_555
C16E C17E 1_555 1_555
C20E C21E 1_555 1_555
C23E C24E 1_555 1_555
C26E C33E 1_555 1_555
C28E C40E 1_555 1_555
C28E C41E 1_555 1_555
C30E C71E 1_555 1_555
C31E C72E 1_555 1_555
C32E C72E 1_555 1_555
C37E C38E 1_555 1_555
C38E C39E 1_555 1_555
C41E C71E 1_555 1_555
C44E C45E 1_555 1_555
C47E N4E 1_555 1_555
C48E C52E 1_555 1_555
C50E C51E 1_555 1_555
C53E C54E 1_555 1_555
C56E C57E 1_555 1_555
C57E C58E 1_555 1_555
C59E C64E 1_555 1_555
C63E C64E 1_555 1_555
C65E C66E 1_555 1_555
C68E C69E 1_555 1_555
C69E C70E 1_555 1_555
Co1E_2 O3E_2 1_555 1_555
Co2_2 O2_2 1_555 1_555
Co2_2 O4_2 1_555 1_555
Co2E_2 O4E_2 1_555 1_555
Co3_2 O3_2 1_555 1_555
Co3E_3 O3E_2 1_555 1_555

#END
