
#######################################################################
#
#                 Cambridge Crystallographic Data Centre
#                                CCDC 
#
#######################################################################
#
# If this CIF has been generated from an entry in the Cambridge 
# Structural Database, then it will include bibliographic, chemical, 
# crystal, experimental, refinement or atomic coordinate data resulting 
# from the CCDC's data processing and validation procedures.
#
#######################################################################

data_BAYCOU
_chemical_formula_moiety         '(C19 H36 Ag3 N9 O13 S1)n'
_symmetry_cell_setting           orthorhombic
_symmetry_space_group_name_H-M   'P n a 21'
_symmetry_Int_Tables_number      33
_space_group_name_Hall           'P 2c -2n'
loop_
_symmetry_equiv_pos_site_id
_symmetry_equiv_pos_as_xyz
1 x,y,z
2 -x,-y,1/2+z
3 1/2-x,1/2+y,1/2+z
4 1/2+x,1/2-y,z
_cell_length_a                   20.483(7)
_cell_length_b                   21.890(1)
_cell_length_c                   6.493(2)
_cell_angle_alpha                90
_cell_angle_beta                 90
_cell_angle_gamma                90
_cell_volume                     2911.29
loop_
_atom_site_label
_atom_site_type_symbol
_atom_site_fract_x
_atom_site_fract_y
_atom_site_fract_z
Ag1 Ag 0.73306(5) 0.31585(5) 0.5159(8)
Ag2 Ag 0.50226(6) 0.78320(6) 0.5191(9)
Ag3 Ag 0.83975(7) 0.52923(5) 1.0192(10)
S1 S 0.5594(5) 0.6593(5) 0.524(3)
O1 O 0.6381(10) 0.3792(8) 0.515(14)
O2 O 0.7024(9) 0.4559(9) 0.532(11)
O3 O 0.5101(9) 0.6837(10) 0.666(3)
O4 O 0.5506(11) 0.6806(11) 0.311(3)
O5 O 0.6265(7) 0.6660(9) 0.599(4)
O6 O 0.5137(11) 0.3929(9) 0.506(10)
H1 H 0.626(16) 0.351(15) 0.61(9)
C1 C 0.6478(10) 0.4343(9) 0.513(15)
C2 C 0.5890(11) 0.4765(11) 0.549(6)
C3 C 0.5264(14) 0.4517(15) 0.529(19)
C4 C 0.4707(14) 0.4988(13) 0.530(11)
H2 H 0.4283 0.4837 0.5311
C5 C 0.4807(17) 0.5581(13) 0.513(14)
H3 H 0.4455 0.5848 0.5057
C6 C 0.5448(11) 0.5787(6) 0.515(6)
C7 C 0.5999(14) 0.5393(12) 0.508(12)
H4 H 0.6423 0.5544 0.5065
N1 N 0.7947(10) 0.3376(11) 0.839(3)
N2 N 0.8920(5) 0.3278(5) 1.012(6)
N3 N 0.8352(5) 0.4270(5) 1.011(5)
N4 N 0.7857(10) 0.3404(11) 1.215(3)
C15 C 0.8533(13) 0.3054(9) 0.841(4)
H9 H 0.8765 0.3114 0.7122
H10 H 0.8445 0.2621 0.8573
C16 C 0.7969(15) 0.4029(10) 0.844(4)
H11 H 0.7528 0.4183 0.8568
H12 H 0.8145 0.4176 0.7143
C17 C 0.7532(6) 0.3217(6) 1.032(5)
H13 H 0.7111 0.3418 1.0239
H14 H 0.7458 0.2779 1.0349
C18 C 0.8998(6) 0.3946(5) 1.016(8)
H15 H 0.9278 0.4080 0.9046
H16 H 0.9209 0.4055 1.1451
C19 C 0.8563(13) 0.3152(10) 1.210(4)
H17 H 0.8806 0.3333 1.3225
H18 H 0.8552 0.2714 1.2324
C20 C 0.7990(15) 0.4109(10) 1.211(4)
H19 H 0.7580 0.4329 1.2188
H20 H 0.8255 0.4225 1.3284
N5 N 0.5563(12) 0.2027(11) 0.715(4)
N6 N 0.5611(13) 0.1981(11) 0.339(4)
N7 N 0.6547(5) 0.2356(4) 0.530(5)
N8 N 0.6262(5) 0.1280(5) 0.510(5)
C21 C 0.5192(6) 0.2114(6) 0.515(7)
H21 H 0.5041 0.2533 0.5034
H22 H 0.4813 0.1848 0.5119
C22 C 0.6136(16) 0.2409(11) 0.701(5)
H23 H 0.6399 0.2318 0.8218
H24 H 0.6002 0.2833 0.7126
C23 C 0.5862(14) 0.1343(11) 0.698(5)
H25 H 0.5513 0.1043 0.6977
H26 H 0.6133 0.1268 0.8185
C24 C 0.6151(16) 0.2480(11) 0.339(5)
H27 H 0.5950 0.2880 0.3480
H28 H 0.6418 0.2463 0.2157
C25 C 0.5828(14) 0.1419(11) 0.333(5)
H29 H 0.5457 0.1144 0.3363
H30 H 0.6064 0.1347 0.2057
C26 C 0.6789(6) 0.1727(5) 0.525(7)
H31 H 0.7044 0.1651 0.6484
H32 H 0.7074 0.1676 0.4072
O16 O 0.7232(11) 0.5467(11) 0.921(5)
H33 H 0.699(11) 0.566(10) 1.07(4)
N4_2 N 0.7857(10) 0.3404(11) 0.215(3)
N2B N 0.6080(5) 0.8278(5) 0.512(6)
N5A N 0.4437(12) 0.7973(11) 0.215(4)
N6A N 0.4389(13) 0.8019(11) 0.839(4)
N8B N 0.8738(5) 0.6280(5) 1.010(5)
Ag2B Ag 0.99774(6) 0.28320(6) 1.0191(9)
Ag1_2 Ag 0.73306(5) 0.31585(5) 1.5159(8)
Ag2A Ag 0.49774(6) 0.21680(6) 1.0191(9)
Ag2A_2 Ag 0.49774(6) 0.21680(6) 0.0191(9)
Ag3B Ag 0.66025(7) 0.02923(5) 0.5192(10)
N9 N 1.0499(8) 0.5191(7) 1.016(6)
O13 O 0.9921(9) 0.5043(11) 1.021(9)
O14 O 1.0644(6) 0.5728(5) 1.011(6)
O15 O 1.0899(13) 0.4803(8) 0.964(4)
O17 O 1.2064(12) 0.4521(10) 0.911(4)
H35 H 1.234(12) 0.445(11) 0.82(4)
H36 H 1.180(10) 0.482(9) 1.06(4)
O18 O 1.2431(11) 0.3363(8) 0.990(5)
O19 O 1.3482(13) 0.3443(10) 0.460(10)
H39 H 1.3902 0.3655 0.4807
H40 H 1.3277 0.3125 0.5548
loop_
_geom_bond_atom_site_label_1
_geom_bond_atom_site_label_2
_geom_bond_site_symmetry_1
_geom_bond_site_symmetry_2
Ag1 O1 1_555 1_555
Ag2 O3 1_555 1_555
Ag3 N3 1_555 1_555
S1 O3 1_555 1_555
O1 H1 1_555 1_555
O2 C1 1_555 1_555
O4 S1 1_555 1_555
O5 S1 1_555 1_555
O6 C3 1_555 1_555
C1 O1 1_555 1_555
C2 C1 1_555 1_555
C3 C2 1_555 1_555
C4 C3 1_555 1_555
H2 C4 1_555 1_555
C5 C4 1_555 1_555
H3 C5 1_555 1_555
C6 S1 1_555 1_555
C7 C2 1_555 1_555
H4 C7 1_555 1_555
N1 Ag1 1_555 1_555
N2 C15 1_555 1_555
N3 C16 1_555 1_555
N4 C17 1_555 1_555
C15 N1 1_555 1_555
H9 C15 1_555 1_555
H10 C15 1_555 1_555
C16 N1 1_555 1_555
H11 C16 1_555 1_555
H12 C16 1_555 1_555
C17 N1 1_555 1_555
H13 C17 1_555 1_555
H14 C17 1_555 1_555
C18 N2 1_555 1_555
H15 C18 1_555 1_555
H16 C18 1_555 1_555
C19 N2 1_555 1_555
H17 C19 1_555 1_555
H18 C19 1_555 1_555
C20 N3 1_555 1_555
H19 C20 1_555 1_555
H20 C20 1_555 1_555
N5 C21 1_555 1_555
N6 C21 1_555 1_555
N7 Ag1 1_555 1_555
N8 C23 1_555 1_555
C21 H21 1_555 1_555
H22 C21 1_555 1_555
C22 N5 1_555 1_555
H23 C22 1_555 1_555
H24 C22 1_555 1_555
C23 N5 1_555 1_555
H25 C23 1_555 1_555
H26 C23 1_555 1_555
C24 N6 1_555 1_555
H27 C24 1_555 1_555
H28 C24 1_555 1_555
C25 N6 1_555 1_555
H29 C25 1_555 1_555
H30 C25 1_555 1_555
C26 N7 1_555 1_555
H31 C26 1_555 1_555
H32 C26 1_555 1_555
N9 O13 1_555 1_555
O14 N9 1_555 1_555
O15 N9 1_555 1_555
O16 Ag3 1_555 1_555
H33 O16 1_555 1_555
O17 H35 1_555 1_555
H36 O17 1_555 1_555
O19 H39 1_555 1_555
H40 O19 1_555 1_555
N4_2 Ag1 1_555 1_555
N2B Ag2 1_555 1_555
N5A Ag2 1_555 1_555
N6A Ag2 1_555 1_555
N8B Ag3 1_555 1_555
Ag2B N2 1_555 1_555
Ag1_2 N4 1_555 1_555
Ag2A N5 1_555 1_555
Ag2A_2 N6 1_555 1_555
Ag3B N8 1_555 1_555
C5 C6 1_555 1_555
C6 C7 1_555 1_555
N3 C18 1_555 1_555
N4 C19 1_555 1_555
N4 C20 1_555 1_555
N7 C24 1_555 1_555
N7 C22 1_555 1_555
N8 C25 1_555 1_555
N8 C26 1_555 1_555

#END
