
#######################################################################
#
#                 Cambridge Crystallographic Data Centre
#                                CCDC 
#
#######################################################################
#
# If this CIF has been generated from an entry in the Cambridge 
# Structural Database, then it will include bibliographic, chemical, 
# crystal, experimental, refinement or atomic coordinate data resulting 
# from the CCDC's data processing and validation procedures.
#
#######################################################################

data_REHTUV
_chemical_formula_moiety         '(C32 H34 Co1 N4 O10)n'
_symmetry_cell_setting           monoclinic
_symmetry_space_group_name_H-M   'C 2/c'
_symmetry_Int_Tables_number      15
_space_group_name_Hall           '-C 2yc'
loop_
_symmetry_equiv_pos_site_id
_symmetry_equiv_pos_as_xyz
1 x,y,z
2 -x,y,1/2-z
3 1/2+x,1/2+y,z
4 1/2-x,1/2+y,1/2-z
5 -x,-y,-z
6 x,-y,1/2+z
7 1/2-x,1/2-y,-z
8 1/2+x,1/2-y,1/2+z
_cell_length_a                   20.512(5)
_cell_length_b                   9.9435(19)
_cell_length_c                   26.994(5)
_cell_angle_alpha                90
_cell_angle_beta                 101.945(11)
_cell_angle_gamma                90
_cell_volume                     5386.51
loop_
_atom_site_label
_atom_site_type_symbol
_atom_site_fract_x
_atom_site_fract_y
_atom_site_fract_z
Co1 Co 0.858933(13) 0.95292(3) 0.322870(10)
O1 O 0.44636(8) 0.58228(16) 0.33040(7)
O2 O 0.34999(8) 0.68255(16) 0.32354(7)
O3 O 0.43096(8) 1.30175(15) 0.32680(6)
O4 O 0.33802(9) 1.18598(19) 0.31581(8)
O8 O 0.79152(16) 0.8446(3) 0.56798(9)
N1 N 0.75247(8) 0.95726(18) 0.31690(7)
N2 N 0.87888(16) 0.9731(3) 0.55970(13)
H3 H 0.9133 1.0174 0.5770
N3 N 0.84886(9) 1.03959(19) 0.74218(7)
N4 N 0.86879(10) 0.9398(2) 0.40368(7)
C1 C 0.54371(10) 0.9506(2) 0.32046(8)
C2 C 0.51226(10) 0.8274(2) 0.32361(8)
H4 H 0.5370 0.7464 0.3245
C3 C 0.44497(10) 0.8222(2) 0.32551(8)
C4 C 0.40872(10) 0.9398(2) 0.32442(8)
H5 H 0.3628 0.9358 0.3255
C5 C 0.43901(10) 1.0642(2) 0.32178(8)
C6 C 0.50638(10) 1.0688(2) 0.31944(8)
H6 H 0.5272 1.1533 0.3171
C7 C 0.71283(10) 0.8550(2) 0.29721(8)
H7 H 0.7320 0.7822 0.2824
C8 C 0.64562(10) 0.8500(2) 0.29734(8)
H8 H 0.6198 0.7749 0.2830
C9 C 0.61559(10) 0.9550(2) 0.31851(8)
C10 C 0.65633(11) 1.0630(2) 0.33789(10)
H9 H 0.6381 1.1381 0.3521
C11 C 0.72334(11) 1.0606(2) 0.33637(10)
H10 H 0.7501 1.1354 0.3497
C12 C 0.8328(2) 0.9275(5) 0.58550(19)
C13 C 0.7900(4) 0.9981(14) 0.7110(3)
H11 H 0.7515 0.9887 0.7252
C14 C 0.7844(3) 0.9696(9) 0.6600(3)
H12 H 0.7425 0.9457 0.6396
C15 C 0.8401(4) 0.9760(6) 0.6392(2)
C16 C 0.8992(3) 1.0134(6) 0.6697(3)
H13 H 0.9388 1.0180 0.6567
C17 C 0.9003(4) 1.0446(10) 0.7203(3)
H14 H 0.9418 1.0716 0.7406
C18 C 0.41162(11) 0.6876(2) 0.32676(8)
C19 C 0.8335(7) 0.8662(15) 0.4263(3)
H15 H 0.8045 0.8040 0.4060
C20 C 0.8332(4) 0.8673(8) 0.4775(3)
H16 H 0.8045 0.8096 0.4912
C21 C 0.8759(3) 0.9553(6) 0.5081(2)
C22 C 0.9184(3) 1.0316(8) 0.4856(2)
H17 H 0.9501 1.0895 0.5057
C23 C 0.9147(5) 1.0235(12) 0.4342(3)
H18 H 0.9441 1.0761 0.4192
C24 C 0.39900(11) 1.1909(2) 0.32108(8)
Co1B Co 0.358933(13) 0.45292(3) 0.322870(10)
Co1B_2 Co 0.358933(13) 1.45292(3) 0.322870(10)
Co1E Co 0.858933(13) 1.04708(3) 0.822870(10)
O1B O 0.94636(8) 1.08228(16) 0.33040(7)
O2B O 0.84999(8) 1.18255(16) 0.32354(7)
O3B O 0.93096(8) 0.80175(15) 0.32680(6)
N3E N 0.84886(9) 0.96041(19) 0.24218(7)
O5 O 0.53431(12) 0.3062(2) 0.41060(9)
H1 H 0.5016(19) 0.311(4) 0.3865(15)
H2 H 0.5329(19) 0.245(4) 0.4284(14)
O6 O 0.7171(3) 0.2783(7) 0.4502(2)
C25 C 0.6987(6) 0.1537(14) 0.4751(5)
H19 H 0.7262 0.0770 0.4681
H20 H 0.6512 0.1315 0.4619
C26 C 0.7110(5) 0.1812(15) 0.5322(5)
H21 H 0.6814 0.2541 0.5392
H22 H 0.7016 0.0993 0.5504
O6F O 0.7829(3) 0.2217(7) 0.5498(2)
C25F C 0.8013(6) 0.3463(14) 0.5249(5)
H19F H 0.7738 0.4230 0.5319
H20F H 0.8488 0.3685 0.5381
C26F C 0.7890(5) 0.3188(15) 0.4678(5)
H21F H 0.8186 0.2459 0.4608
H22F H 0.7984 0.4007 0.4496
O7 O 0.5130(7) 1.0979(14) 0.4708(5)
C27 C 0.5595(8) 0.9618(15) 0.4782(8)
H23 H 0.5848 0.9485 0.4511
H24 H 0.5894 0.9552 0.5120
C28 C 0.4982(9) 0.8745(14) 0.4725(5)
H25 H 0.5074 0.7788 0.4664
H26 H 0.4609 0.9076 0.4460
O7D O 0.4870(7) 0.9021(14) 0.5292(5)
C27D C 0.4405(8) 1.0382(15) 0.5218(8)
H23D H 0.4152 1.0515 0.5489
H24D H 0.4106 1.0448 0.4880
C28D C 0.5018(9) 1.1255(14) 0.5275(5)
H25D H 0.4926 1.2212 0.5336
H26D H 0.5391 1.0924 0.5540
loop_
_geom_bond_atom_site_label_1
_geom_bond_atom_site_label_2
_geom_bond_site_symmetry_1
_geom_bond_site_symmetry_2
Co1 N1 1_555 1_555
O1 C18 1_555 1_555
O2 C18 1_555 1_555
O3 C24 1_555 1_555
O4 C24 1_555 1_555
O5 H1 1_555 1_555
H2 O5 1_555 1_555
O6 C25 1_555 1_555
O7 C27 1_555 1_555
O8 C12 1_555 1_555
N1 C7 1_555 1_555
N2 H3 1_555 1_555
N3 C13 1_555 1_555
N4 Co1 1_555 1_555
C1 C2 1_555 1_555
C2 H4 1_555 1_555
C3 C2 1_555 1_555
C4 C3 1_555 1_555
H5 C4 1_555 1_555
C5 C4 1_555 1_555
C6 C1 1_555 1_555
H6 C6 1_555 1_555
C7 H7 1_555 1_555
C8 C7 1_555 1_555
H8 C8 1_555 1_555
C9 C1 1_555 1_555
C10 C9 1_555 1_555
H9 C10 1_555 1_555
C11 N1 1_555 1_555
H10 C11 1_555 1_555
C12 N2 1_555 1_555
C13 H11 1_555 1_555
C14 C13 1_555 1_555
H12 C14 1_555 1_555
C15 C12 1_555 1_555
C16 C15 1_555 1_555
H13 C16 1_555 1_555
C17 N3 1_555 1_555
H14 C17 1_555 1_555
C18 C3 1_555 1_555
C19 N4 1_555 1_555
H15 C19 1_555 1_555
C20 C19 1_555 1_555
H16 C20 1_555 1_555
C21 N2 1_555 1_555
C22 C21 1_555 1_555
H17 C22 1_555 1_555
C23 N4 1_555 1_555
H18 C23 1_555 1_555
C24 C5 1_555 1_555
C25 H19 1_555 1_555
H20 C25 1_555 1_555
C26 C25 1_555 1_555
H21 C26 1_555 1_555
H22 C26 1_555 1_555
C27 H23 1_555 1_555
H24 C27 1_555 1_555
C28 C27 1_555 1_555
H25 C28 1_555 1_555
H26 C28 1_555 1_555
Co1B O1 1_555 1_555
Co1B_2 O3 1_555 1_555
Co1E N3 1_555 1_555
O1B Co1 1_555 1_555
O2B Co1 1_555 1_555
O3B Co1 1_555 1_555
O6F C26 1_555 1_555
O7D C28 1_555 1_555
N3E Co1 1_555 1_555
C25F O6F 1_555 1_555
H19F C25F 1_555 1_555
H20F C25F 1_555 1_555
C26F O6 1_555 1_555
H21F C26F 1_555 1_555
H22F C26F 1_555 1_555
C27D O7D 1_555 1_555
H23D C27D 1_555 1_555
H24D C27D 1_555 1_555
C28D O7 1_555 1_555
H25D C28D 1_555 1_555
H26D C28D 1_555 1_555
O2 Co1B 1_555 1_555
C5 C6 1_555 1_555
C8 C9 1_555 1_555
C10 C11 1_555 1_555
C14 C15 1_555 1_555
C16 C17 1_555 1_555
C20 C21 1_555 1_555
C22 C23 1_555 1_555
C25F C26F 1_555 1_555
C27D C28D 1_555 1_555

#END
