
#######################################################################
#
#                 Cambridge Crystallographic Data Centre
#                                CCDC 
#
#######################################################################
#
# If this CIF has been generated from an entry in the Cambridge 
# Structural Database, then it will include bibliographic, chemical, 
# crystal, experimental, refinement or atomic coordinate data resulting 
# from the CCDC's data processing and validation procedures.
#
#######################################################################

data_REHVAD
_chemical_formula_moiety         '(C62 H44 Co2 N8 O8)n'
_symmetry_cell_setting           monoclinic
_symmetry_space_group_name_H-M   'C 2/c'
_symmetry_Int_Tables_number      15
_space_group_name_Hall           '-C 2yc'
loop_
_symmetry_equiv_pos_site_id
_symmetry_equiv_pos_as_xyz
1 x,y,z
2 -x,y,1/2-z
3 1/2+x,1/2+y,z
4 1/2-x,1/2+y,1/2-z
5 -x,-y,-z
6 x,-y,1/2+z
7 1/2-x,1/2-y,-z
8 1/2+x,1/2-y,1/2+z
_cell_length_a                   20.570(4)
_cell_length_b                   9.901(2)
_cell_length_c                   27.211(8)
_cell_angle_alpha                90
_cell_angle_beta                 108.526(9)
_cell_angle_gamma                90
_cell_volume                     5254.71
loop_
_atom_site_label
_atom_site_type_symbol
_atom_site_fract_x
_atom_site_fract_y
_atom_site_fract_z
N4 N 0.3779(11) 0.5571(16) 0.4985(6)
C25 C 0.2901(4) 0.3303(8) 0.4907(3)
C26 C 0.3675(4) 0.4614(8) 0.4588(2)
C27 C 0.2443(8) 0.2290(15) 0.4815(4)
H18 H 0.2343 0.1919 0.4478
C28 C 0.3601(4) 0.5317(8) 0.5393(2)
H19 H 0.3802 0.5791 0.5708
C29 C 0.3088(7) 0.4293(13) 0.5352(4)
H20 H 0.2865 0.4241 0.5608
C30 C 0.3172(8) 0.3606(15) 0.4533(5)
H21 H 0.3019 0.3119 0.4216
H22 H 0.3940 0.4644 0.4359
N4F N 0.1221(11) -0.0571(16) 0.5015(6)
C25F C 0.2099(4) 0.1697(8) 0.5093(3)
C26F C 0.1325(4) 0.0386(8) 0.5412(2)
C27F C 0.2557(8) 0.2710(15) 0.5185(4)
H18F H 0.2657 0.3081 0.5522
C28F C 0.1399(4) -0.0317(8) 0.4607(2)
H19F H 0.1198 -0.0791 0.4292
C29F C 0.1912(7) 0.0707(13) 0.4648(4)
H20F H 0.2135 0.0759 0.4392
C30F C 0.1828(8) 0.1394(15) 0.5467(5)
H21F H 0.1981 0.1881 0.5784
H22F H 0.1060 0.0356 0.5641
Co1 Co 0.136103(13) 0.55592(3) 0.174277(10)
O1 O 0.04672(8) 0.68749(15) 0.16198(7)
O2 O 0.14398(8) 0.78787(18) 0.16952(7)
O3 O 0.05904(9) 1.40961(15) 0.16669(7)
O4 O 0.15603(9) 1.29903(19) 0.18086(7)
N1 N -0.25327(9) 1.06251(17) 0.18840(7)
N2 N 0.14946(9) 0.56574(17) 0.25629(7)
N3 N 0.12319(10) 0.46750(19) 0.59299(7)
C1 C -0.04715(10) 1.05480(19) 0.17935(8)
C2 C -0.01625(11) 0.9316(2) 0.17466(9)
H1 H -0.0402 0.8496 0.1748
C3 C 0.04935(10) 0.9275(2) 0.16979(8)
C4 C 0.08520(10) 1.0471(2) 0.17027(8)
H2 H 0.1303 1.0442 0.1680
C5 C 0.05505(10) 1.1711(2) 0.17406(8)
C6 C -0.01079(10) 1.1742(2) 0.17883(8)
H3 H -0.0311 1.2586 0.1818
C7 C -0.21252(11) 0.9546(2) 0.20378(9)
H4 H -0.2302 0.8785 0.2166
C8 C -0.14571(11) 0.9480(2) 0.20196(9)
H5 H -0.1194 0.8682 0.2128
C9 C -0.11734(11) 1.0588(2) 0.18414(9)
C10 C -0.15896(12) 1.1726(2) 0.17031(10)
H6 H -0.1420 1.2518 0.1589
C11 C -0.22518(11) 1.1709(2) 0.17312(10)
H7 H -0.2521 1.2504 0.1638
C12 C 0.15691(13) 0.5587(3) 0.41579(9)
H8 H 0.1976 0.5902 0.4410
C13 C 0.20794(11) 0.5883(2) 0.29484(9)
H9 H 0.2485 0.6047 0.2862
C14 C 0.21202(12) 0.5890(3) 0.34678(9)
H10 H 0.2547 0.6054 0.3727
C15 C 0.15338(12) 0.5655(2) 0.36092(8)
C16 C 0.09198(12) 0.5470(2) 0.32068(9)
H11 H 0.0502 0.5347 0.3280
C17 C 0.09257(11) 0.5470(2) 0.27011(9)
H12 H 0.0503 0.5329 0.2434
C18 C 0.10677(14) 0.5111(3) 0.43261(9)
H13 H 0.0654 0.4824 0.4074
C19 C 0.08180(11) 0.7933(2) 0.16645(8)
C20 C 0.07850(13) 0.3950(3) 0.55580(9)
H14 H 0.0506 0.3310 0.5657
C21 C 0.07090(14) 0.4086(3) 0.50335(10)
H15 H 0.0381 0.3556 0.4784
C22 C 0.11175(13) 0.5006(3) 0.48772(9)
C23 C 0.15697(16) 0.5783(3) 0.52636(10)
H16 H 0.1849 0.6443 0.5175
C24 C 0.16105(15) 0.5593(3) 0.57750(10)
H17 H 0.1922 0.6136 0.6031
C31 C 0.09319(11) 1.3011(2) 0.17392(8)
Co1_2 Co 0.136103(13) -0.44408(3) 0.174277(10)
Co1_3 Co 0.136103(13) 1.55592(3) 0.174277(10)
Co1B Co -0.363897(13) 1.05592(3) 0.174277(10)
Co1E Co 0.136103(13) 0.44408(3) 0.674277(10)
Co1B_2 Co -0.363897(13) 0.05592(3) 0.174277(10)
Co1E_2 Co 0.136103(13) 0.44408(3) -0.325723(10)
O1_2 O 0.04672(8) -0.31251(15) 0.16198(7)
O2_2 O 0.14398(8) -0.21213(18) 0.16952(7)
O3_2 O 0.05904(9) 0.40961(15) 0.16669(7)
O3_3 O 0.05904(9) -0.59039(15) 0.16669(7)
O4_2 O 0.15603(9) 0.29903(19) 0.18086(7)
N1_2 N -0.25327(9) 0.06251(17) 0.18840(7)
N1B N 0.24673(9) 0.56251(17) 0.18840(7)
N1B_2 N 0.24673(9) -0.43749(17) 0.18840(7)
N2E N 0.14946(9) 0.43426(17) -0.24371(7)
N2_2 N 0.14946(9) -0.43426(17) 0.25629(7)
N3E N 0.12319(10) 0.53250(19) 0.09299(7)
N3E_2 N 0.12319(10) -0.46750(19) 0.09299(7)
C1_2 C -0.04715(10) 0.05480(19) 0.17935(8)
C2_2 C -0.01625(11) -0.0684(2) 0.17466(9)
H1_2 H -0.0402 -0.1504 0.1748
C3_2 C 0.04935(10) -0.0725(2) 0.16979(8)
C4_2 C 0.08520(10) 0.0471(2) 0.17027(8)
H2_2 H 0.1303 0.0442 0.1680
C5_2 C 0.05505(10) 0.1711(2) 0.17406(8)
C6_2 C -0.01079(10) 0.1742(2) 0.17883(8)
H3_2 H -0.0311 0.2586 0.1818
C7_2 C -0.21252(11) -0.0454(2) 0.20378(9)
H4_2 H -0.2302 -0.1215 0.2166
C8_2 C -0.14571(11) -0.0520(2) 0.20196(9)
H5_2 H -0.1194 -0.1318 0.2128
C9_2 C -0.11734(11) 0.0588(2) 0.18414(9)
C10_2 C -0.15896(12) 0.1726(2) 0.17031(10)
H6_2 H -0.1420 0.2518 0.1589
C11_2 C -0.22518(11) 0.1709(2) 0.17312(10)
H7_2 H -0.2521 0.2504 0.1638
C12E C 0.15691(13) 0.4413(3) -0.08421(9)
H8E H 0.1976 0.4098 -0.0590
C13E C 0.20794(11) 0.4117(2) -0.20516(9)
H9E H 0.2485 0.3953 -0.2138
C14E C 0.21202(12) 0.4110(3) -0.15322(9)
H10E H 0.2547 0.3946 -0.1273
C15E C 0.15338(12) 0.4345(2) -0.13908(8)
C16E C 0.09198(12) 0.4530(2) -0.17932(9)
H11E H 0.0502 0.4653 -0.1720
C17E C 0.09257(11) 0.4530(2) -0.22989(9)
H12E H 0.0503 0.4671 -0.2566
C18E C 0.10677(14) 0.4889(3) -0.06739(9)
H13E H 0.0654 0.5176 -0.0926
C19_2 C 0.08180(11) -0.2067(2) 0.16645(8)
C20E C 0.07850(13) 0.6050(3) 0.05580(9)
H14E H 0.0506 0.6690 0.0657
C21E C 0.07090(14) 0.5914(3) 0.00335(10)
H15E H 0.0381 0.6444 -0.0216
C22E C 0.11175(13) 0.4994(3) -0.01228(9)
C23E C 0.15697(16) 0.4217(3) 0.02636(10)
H16E H 0.1849 0.3557 0.0175
C24E C 0.16105(15) 0.4407(3) 0.07750(10)
H17E H 0.1922 0.3864 0.1031
C31_2 C 0.09319(11) 0.3011(2) 0.17392(8)
loop_
_geom_bond_atom_site_label_1
_geom_bond_atom_site_label_2
_geom_bond_site_symmetry_1
_geom_bond_site_symmetry_2
Co1 O1 1_555 1_555
O1 C19 1_555 1_555
O2 Co1 1_555 1_555
O3 C31 1_555 1_555
O4 C31 1_555 1_555
N1 C7 1_555 1_555
N2 Co1 1_555 1_555
N3 C20 1_555 1_555
N4 C26 1_555 1_555
C1 C2 1_555 1_555
C2 H1 1_555 1_555
C3 C2 1_555 1_555
C4 C3 1_555 1_555
H2 C4 1_555 1_555
C5 C4 1_555 1_555
C6 C1 1_555 1_555
H3 C6 1_555 1_555
C7 H4 1_555 1_555
C8 C7 1_555 1_555
H5 C8 1_555 1_555
C9 C1 1_555 1_555
C10 C9 1_555 1_555
H6 C10 1_555 1_555
C11 N1 1_555 1_555
H7 C11 1_555 1_555
C12 H8 1_555 1_555
C13 N2 1_555 1_555
H9 C13 1_555 1_555
C14 C13 1_555 1_555
H10 C14 1_555 1_555
C15 C12 1_555 1_555
C16 C15 1_555 1_555
H11 C16 1_555 1_555
C17 N2 1_555 1_555
H12 C17 1_555 1_555
C18 C12 1_555 1_555
H13 C18 1_555 1_555
C19 O2 1_555 1_555
C20 H14 1_555 1_555
C21 C20 1_555 1_555
H15 C21 1_555 1_555
C22 C18 1_555 1_555
C23 C22 1_555 1_555
H16 C23 1_555 1_555
C24 N3 1_555 1_555
H17 C24 1_555 1_555
C25 C27 1_555 1_555
C26 C30 1_555 1_555
C27 H18 1_555 1_555
C28 N4 1_555 1_555
H19 C28 1_555 1_555
C29 C25 1_555 1_555
H20 C29 1_555 1_555
C30 C25 1_555 1_555
H21 C30 1_555 1_555
H22 C26 1_555 1_555
C31 C5 1_555 1_555
Co1_2 O1_2 1_555 1_555
Co1_3 O3 1_555 1_555
Co1B N1 1_555 1_555
Co1E N3 1_555 1_555
Co1B_2 N1_2 1_555 1_555
Co1E_2 N2E 1_555 1_555
O1_2 C19_2 1_555 1_555
O2_2 Co1_2 1_555 1_555
O3_2 Co1 1_555 1_555
O3_3 Co1_2 1_555 1_555
O4_2 C31_2 1_555 1_555
N1_2 C7_2 1_555 1_555
N1B Co1 1_555 1_555
N1B_2 Co1_2 1_555 1_555
N2E C13E 1_555 1_555
N2_2 Co1_2 1_555 1_555
N3E Co1 1_555 1_555
N3E_2 Co1_2 1_555 1_555
N4F C26F 1_555 1_555
C1_2 C2_2 1_555 1_555
C2_2 H1_2 1_555 1_555
C3_2 C2_2 1_555 1_555
C4_2 C3_2 1_555 1_555
H2_2 C4_2 1_555 1_555
C5_2 C4_2 1_555 1_555
C6_2 C1_2 1_555 1_555
H3_2 C6_2 1_555 1_555
C7_2 H4_2 1_555 1_555
C8_2 C7_2 1_555 1_555
H5_2 C8_2 1_555 1_555
C9_2 C1_2 1_555 1_555
C10_2 C9_2 1_555 1_555
H6_2 C10_2 1_555 1_555
C11_2 N1_2 1_555 1_555
H7_2 C11_2 1_555 1_555
C12E H8E 1_555 1_555
C13E H9E 1_555 1_555
C14E C13E 1_555 1_555
H10E C14E 1_555 1_555
C15E C12E 1_555 1_555
C16E C15E 1_555 1_555
H11E C16E 1_555 1_555
C17E N2E 1_555 1_555
H12E C17E 1_555 1_555
C18E C12E 1_555 1_555
H13E C18E 1_555 1_555
C19_2 O2_2 1_555 1_555
C20E N3E 1_555 1_555
H14E C20E 1_555 1_555
C21E C20E 1_555 1_555
H15E C21E 1_555 1_555
C22E C18E 1_555 1_555
C23E C22E 1_555 1_555
H16E C23E 1_555 1_555
C24E N3E 1_555 1_555
H17E C24E 1_555 1_555
C25F C27 1_555 1_555
C26F C30F 1_555 1_555
C27F C25 1_555 1_555
H18F C27F 1_555 1_555
C28F N4F 1_555 1_555
H19F C28F 1_555 1_555
C29F C25F 1_555 1_555
H20F C29F 1_555 1_555
C30F C25F 1_555 1_555
H21F C30F 1_555 1_555
H22F C26F 1_555 1_555
C31_2 O3_2 1_555 1_555
C3 C19 1_555 1_555
C5 C6 1_555 1_555
C8 C9 1_555 1_555
C10 C11 1_555 1_555
C14 C15 1_555 1_555
C16 C17 1_555 1_555
C21 C22 1_555 1_555
C23 C24 1_555 1_555
C27 C27F 1_555 1_555
C28 C29 1_555 1_555
C3_2 C19_2 1_555 1_555
C5_2 C6_2 1_555 1_555
C5_2 C31_2 1_555 1_555
C8_2 C9_2 1_555 1_555
C10_2 C11_2 1_555 1_555
C14E C15E 1_555 1_555
C16E C17E 1_555 1_555
C21E C22E 1_555 1_555
C23E C24E 1_555 1_555
C25F C27F 1_555 1_555
C28F C29F 1_555 1_555

#END
