
#######################################################################
#
#                 Cambridge Crystallographic Data Centre
#                                CCDC 
#
#######################################################################
#
# If this CIF has been generated from an entry in the Cambridge 
# Structural Database, then it will include bibliographic, chemical, 
# crystal, experimental, refinement or atomic coordinate data resulting 
# from the CCDC's data processing and validation procedures.
#
#######################################################################

data_ABESUX
_chemical_formula_moiety         '(C4 H16 N2 O27 P4 U5)n'
_symmetry_cell_setting           orthorhombic
_symmetry_space_group_name_H-M   'C m c 21'
_symmetry_Int_Tables_number      36
_space_group_name_Hall           'C 2c -2'
loop_
_symmetry_equiv_pos_site_id
_symmetry_equiv_pos_as_xyz
1 x,y,z
2 -x,y,z
3 x,-y,1/2+z
4 -x,-y,1/2+z
5 1/2+x,1/2+y,z
6 1/2-x,1/2+y,z
7 1/2+x,1/2-y,1/2+z
8 1/2-x,1/2-y,1/2+z
_cell_length_a                   15.5120(6)
_cell_length_b                   13.7953(5)
_cell_length_c                   13.0199(4)
_cell_angle_alpha                90
_cell_angle_beta                 90
_cell_angle_gamma                90
_cell_volume                     2786.16
loop_
_atom_site_label
_atom_site_type_symbol
_atom_site_fract_x
_atom_site_fract_y
_atom_site_fract_z
_atom_site_U_iso_or_equiv
_atom_site_thermal_displace_type
U1 U 0.24452(3) 0.49013(4) 0.43733 0.0124 Uani
U2 U 0.22309(4) 0.23857(3) 0.58577(6) 0.0112 Uani
U3 U 0.00000 0.11612(5) 0.24394(9) 0.0148 Uani
P1 P 0.2227(2) 0.0182(3) 0.1757(3) 0.0117 Uani
P2 P 0.1867(3) 0.2421(3) 0.3445(3) 0.0105 Uani
O1 O 0.3509(6) 0.4451(6) 0.4248(7) 0.0200 Uiso
O2 O 0.1366(6) 0.5302(6) 0.4549(7) 0.0200 Uiso
O3 O 0.3351(6) 0.2326(7) 0.5595(7) 0.0160 Uiso
O4 O 0.1109(6) 0.2409(6) 0.6066(7) 0.0130 Uiso
O5 O 0.00000 0.1767(10) 0.1246(11) 0.0250 Uiso
O6 O -0.00000 0.0563(11) 0.3645(11) 0.0260 Uiso
O7 O 0.1975(6) 0.3278(6) 0.4205(7) 0.0150 Uiso
O8 O 0.2673(6) 0.0930(6) 0.1027(7) 0.0120 Uiso
O9 O 0.2109(6) -0.0682(7) 0.1011(8) 0.0210 Uiso
O10 O 0.2090(6) 0.1536(7) 0.4141(7) 0.0150 Uiso
O11 O 0.2815(7) -0.0078(8) 0.2641(8) 0.0210 Uiso
O12 O 0.2541(6) 0.2518(7) 0.2568(8) 0.0150 Uiso
O13 O 0.0952(6) 0.2387(6) 0.3060(8) 0.0140 Uiso
O14 O 0.1374(7) 0.0534(7) 0.2135(7) 0.0240 Uiso
O15 O 0.00000 -0.0471(13) 0.1366(14) 0.0500 Uiso
U1A U -0.24452(3) 0.49013(4) 0.43733 0.0124 Uani
U1G U 0.25548(3) 0.00987(4) -0.06267 0.0124 Uani
U1E U 0.25548(3) -0.00987(4) 0.43733 0.0124 Uani
U1D U -0.25548(3) -0.00987(4) 0.43733 0.0124 Uani
U1F U -0.25548(3) 0.00987(4) -0.06267 0.0124 Uani
U2A U -0.22309(4) 0.23857(3) 0.58577(6) 0.0112 Uani
U2G U 0.27691(4) 0.26143(3) 0.08577(6) 0.0112 Uani
U2B U 0.22309(4) -0.23857(3) 0.08577(6) 0.0112 Uani
U2F U -0.27691(4) 0.26143(3) 0.08577(6) 0.0112 Uani
U2C U -0.22309(4) -0.23857(3) 0.08577(6) 0.0112 Uani
P1A P -0.2227(2) 0.0182(3) 0.1757(3) 0.0117 Uani
P2A P -0.1867(3) 0.2421(3) 0.3445(3) 0.0105 Uani
O1A O -0.3509(6) 0.4451(6) 0.4248(7) 0.0200 Uiso
O2A O -0.1366(6) 0.5302(6) 0.4549(7) 0.0200 Uiso
O3A O -0.3351(6) 0.2326(7) 0.5595(7) 0.0160 Uiso
O4A O -0.1109(6) 0.2409(6) 0.6066(7) 0.0130 Uiso
O7A O -0.1975(6) 0.3278(6) 0.4205(7) 0.0150 Uiso
O8A O -0.2673(6) 0.0930(6) 0.1027(7) 0.0120 Uiso
O8G O 0.2327(6) 0.4070(6) 0.6027(7) 0.0120 Uiso
O8F O -0.2327(6) 0.4070(6) 0.6027(7) 0.0120 Uiso
O9A O -0.2109(6) -0.0682(7) 0.1011(8) 0.0210 Uiso
O9G O 0.2891(6) 0.5682(7) 0.6011(8) 0.0210 Uiso
O9B O 0.2109(6) 0.0682(7) 0.6011(8) 0.0210 Uiso
O9F O -0.2891(6) 0.5682(7) 0.6011(8) 0.0210 Uiso
O9C O -0.2109(6) 0.0682(7) 0.6011(8) 0.0210 Uiso
O10A O -0.2090(6) 0.1536(7) 0.4141(7) 0.0150 Uiso
O10E O 0.2910(6) 0.6536(7) 0.4141(7) 0.0150 Uiso
O10D O -0.2910(6) 0.6536(7) 0.4141(7) 0.0150 Uiso
O11A O -0.2815(7) -0.0078(8) 0.2641(8) 0.0210 Uiso
O11E O 0.2185(7) 0.4922(8) 0.2641(8) 0.0210 Uiso
O11D O -0.2185(7) 0.4922(8) 0.2641(8) 0.0210 Uiso
O12A O -0.2541(6) 0.2518(7) 0.2568(8) 0.0150 Uiso
O12G O 0.2459(6) 0.2482(7) 0.7568(8) 0.0150 Uiso
O12F O -0.2459(6) 0.2482(7) 0.7568(8) 0.0150 Uiso
O13A O -0.0952(6) 0.2387(6) 0.3060(8) 0.0140 Uiso
O14A O -0.1374(7) 0.0534(7) 0.2135(7) 0.0240 Uiso
N1 N 0.00000 0.810(2) 0.412(2) 0.0850 Uiso
N2 N 0.00000 0.4155(19) 0.286(2) 0.0850 Uiso
C1 C 0.00000 0.648(2) 0.329(2) 0.0850 Uiso
C2 C 0.00000 0.758(2) 0.315(2) 0.0850 Uiso
C3 C 0.00000 0.595(2) 0.225(2) 0.0850 Uiso
C4 C 0.00000 0.4850(19) 0.202(2) 0.0850 Uiso
loop_
_atom_site_aniso_label
_atom_site_aniso_U_11
_atom_site_aniso_U_22
_atom_site_aniso_U_33
_atom_site_aniso_U_23
_atom_site_aniso_U_13
_atom_site_aniso_U_12
U1 0.0205(3) 0.0098(3) 0.0069(3) 0.0007(3) -0.0009(3) -0.0011(2)
U2 0.0175 0.0091 0.0071 0.0004 -0.0007 -0.0011
U3 0.0156 0.0146 0.0143 -0.0022 0 0
P1 0.02 0.009 0.006 -0.0002 -0.0006 -0.0005
P2 0.012 0.0075 0.012 -0.0004 -0.0012 0.0016
U1A 0.0205 0.0098 0.0069 0.0007 0.0009 0.0011
U1G 0.0205 0.0098 0.0069 -0.0007 0.0009 -0.0011
U1E 0.0205 0.0098 0.0069 0.0007 0.0009 0.0011
U1D 0.0205 0.0098 0.0069 0.0007 -0.0009 -0.0011
U1F 0.0205 0.0098 0.0069 -0.0007 -0.0009 0.0011
U2A 0.0175 0.0091 0.0071 0.0004 0.0007 0.0011
U2G 0.0175 0.0091 0.0071 -0.0004 0.0007 -0.0011
U2B 0.0175 0.0091 0.0071 -0.0004 -0.0007 0.0011
U2F 0.0175 0.0091 0.0071 -0.0004 -0.0007 0.0011
U2C 0.0175 0.0091 0.0071 -0.0004 0.0007 -0.0011
P1A 0.02 0.009 0.006 -0.0002 0.0006 0.0005
P2A 0.012 0.0075 0.012 -0.0004 0.0012 -0.0016
loop_
_geom_bond_atom_site_label_1
_geom_bond_atom_site_label_2
_geom_bond_site_symmetry_1
_geom_bond_site_symmetry_2
U1 O1 1_555 1_555
U2 O3 1_555 1_555
U3 O5 1_555 1_555
P1 O8 1_555 1_555
P2 O7 1_555 1_555
O2 U1 1_555 1_555
O4 U2 1_555 1_555
O6 U3 1_555 1_555
O7 U1 1_555 1_555
O8 U1G 1_555 1_555
O9 P1 1_555 1_555
O10 U2 1_555 1_555
O11 P1 1_555 1_555
O12 P2 1_555 1_555
O13 U3 1_555 1_555
O14 U3 1_555 1_555
O15 U3 1_555 1_555
N1 C2 1_555 1_555
N2 C4 1_555 1_555
C1 C2 1_555 1_555
C3 C1 1_555 1_555
C4 C3 1_555 1_555
U1A O1A 1_555 1_555
U1G O9 1_555 1_555
U1E O10 1_555 1_555
U1D O9C 1_555 1_555
U1F O8A 1_555 1_555
U2A O3A 1_555 1_555
U2G O8 1_555 1_555
U2B O9 1_555 1_555
U2F O8A 1_555 1_555
U2C O9A 1_555 1_555
P1A O8A 1_555 1_555
P2A O7A 1_555 1_555
O2A U1A 1_555 1_555
O4A U2A 1_555 1_555
O7A U1A 1_555 1_555
O8G U1 1_555 1_555
O8F U1A 1_555 1_555
O9A U1F 1_555 1_555
O9G U1 1_555 1_555
O9B U2 1_555 1_555
O9F U1A 1_555 1_555
O9C U2A 1_555 1_555
O10A U1D 1_555 1_555
O10E U1 1_555 1_555
O10D U1A 1_555 1_555
O11A U1D 1_555 1_555
O11E U1 1_555 1_555
O11D U1A 1_555 1_555
O12A U2F 1_555 1_555
O12G U2 1_555 1_555
O12F U2A 1_555 1_555
O13A U3 1_555 1_555
O14A U3 1_555 1_555
U2 O7 1_555 1_555
U2 O8G 1_555 1_555
P1 O14 1_555 1_555
P2 O10 1_555 1_555
P2 O13 1_555 1_555
O11 U1E 1_555 1_555
O12 U2G 1_555 1_555
U1E O9B 1_555 1_555
U2A O7A 1_555 1_555
U2A O8F 1_555 1_555
U2A O10A 1_555 1_555
P1A O9A 1_555 1_555
P1A O11A 1_555 1_555
P1A O14A 1_555 1_555
P2A O10A 1_555 1_555
P2A O12A 1_555 1_555
P2A O13A 1_555 1_555

#END
