
#######################################################################
#
#                 Cambridge Crystallographic Data Centre
#                                CCDC 
#
#######################################################################
#
# If this CIF has been generated from an entry in the Cambridge 
# Structural Database, then it will include bibliographic, chemical, 
# crystal, experimental, refinement or atomic coordinate data resulting 
# from the CCDC's data processing and validation procedures.
#
#######################################################################

data_ABETAE
_chemical_formula_moiety         '(C7 H2 N3 O27 P4 U5 2-)n'
_symmetry_cell_setting           orthorhombic
_symmetry_space_group_name_H-M   'C m c 21'
_symmetry_Int_Tables_number      36
_space_group_name_Hall           'C 2c -2'
loop_
_symmetry_equiv_pos_site_id
_symmetry_equiv_pos_as_xyz
1 x,y,z
2 -x,y,z
3 x,-y,1/2+z
4 -x,-y,1/2+z
5 1/2+x,1/2+y,z
6 1/2-x,1/2+y,z
7 1/2+x,1/2-y,1/2+z
8 1/2-x,1/2-y,1/2+z
_cell_length_a                   15.520(2)
_cell_length_b                   13.890(2)
_cell_length_c                   13.0769(19)
_cell_angle_alpha                90
_cell_angle_beta                 90
_cell_angle_gamma                90
_cell_volume                     2819.02
loop_
_atom_site_label
_atom_site_type_symbol
_atom_site_fract_x
_atom_site_fract_y
_atom_site_fract_z
_atom_site_U_iso_or_equiv
_atom_site_thermal_displace_type
N1 N 0.00000 -0.1648(18) 0.418(2) 0.0850 Uiso
N2 N 0.038(2) -0.6323(18) 0.173(2) 0.0850 Uiso
C1 C -0.00000 -0.3097(18) 0.298(2) 0.0850 Uiso
C2 C 0.00000 -0.4172(17) 0.269(2) 0.0850 Uiso
C3 C -0.00000 -0.5379(19) 0.158(2) 0.0850 Uiso
C4 C -0.035(2) -0.4340(19) 0.161(2) 0.0850 Uiso
C5 C 0.039(2) -0.256(2) 0.390(2) 0.0850 Uiso
N2A N -0.038(2) -0.6323(18) 0.173(2) 0.0850 Uiso
C4A C 0.035(2) -0.4340(19) 0.161(2) 0.0850 Uiso
C5A C -0.039(2) -0.256(2) 0.390(2) 0.0850 Uiso
U1 U 0.26136(3) -0.01041(3) 0.43733 0.0116 Uani
U2 U 0.27438(3) -0.26250(3) 0.58520(4) 0.0114 Uani
U3 U 0.50000 -0.38997(4) 0.24730(7) 0.0143 Uani
P1 P 0.2758(2) -0.4813(2) 0.1757(2) 0.0101 Uani
P2 P 0.3129(3) -0.2605(2) 0.3459(2) 0.0116 Uani
O1 O 0.1556(5) -0.0516(5) 0.4230(6) 0.0158 Uiso
O2 O 0.3672(5) 0.0292(5) 0.4551(6) 0.0200 Uiso
O3 O 0.1605(5) -0.2653(6) 0.5611(6) 0.0210 Uiso
O4 O 0.3865(5) -0.2660(5) 0.6050(6) 0.0220 Uiso
O5 O 0.50000 -0.3265(10) 0.1311(10) 0.0310 Uiso
O6 O 0.50000 -0.4523(9) 0.3643(10) 0.0230 Uiso
O7 O 0.3051(5) -0.1750(5) 0.4204(6) 0.0138 Uiso
O8 O 0.2330(5) -0.4064(5) 0.1039(6) 0.0096 Uiso
O9 O 0.2798(5) -0.5686(5) 0.1021(6) 0.0173 Uiso
O10 O 0.2846(5) -0.3463(5) 0.4144(6) 0.0126 Uiso
O11 O 0.2174(6) -0.5054(6) 0.2648(8) 0.0250 Uiso
O12 O 0.2491(5) -0.2479(5) 0.2554(7) 0.0120 Uiso
O13 O 0.4046(6) -0.2724(6) 0.3087(6) 0.0190 Uiso
O14 O 0.3633(6) -0.4503(6) 0.2096(6) 0.0220 Uiso
O15 O 0.50000 -0.5547(13) 0.1511(14) 0.0690 Uiso
U1F U 0.76136(3) -0.48959(3) -0.06267 0.0116 Uani
U1G U 0.23864(3) -0.48959(3) -0.06267 0.0116 Uani
U1E U 0.23864(3) -0.51041(3) 0.43733 0.0116 Uani
U1A U 0.73864(3) -0.01041(3) 0.43733 0.0116 Uani
U1D U 0.76136(3) -0.51041(3) 0.43733 0.0116 Uani
U2A U 0.72562(3) -0.26250(3) 0.58520(4) 0.0114 Uani
U2G U 0.22562(3) -0.23750(3) 0.08520(4) 0.0114 Uani
U2B U 0.27438(3) -0.73750(3) 0.08520(4) 0.0114 Uani
U2F U 0.77438(3) -0.23750(3) 0.08520(4) 0.0114 Uani
U2C U 0.72562(3) -0.73750(3) 0.08520(4) 0.0114 Uani
P1A P 0.7242(2) -0.4813(2) 0.1757(2) 0.0101 Uani
P2A P 0.6871(3) -0.2605(2) 0.3459(2) 0.0116 Uani
O1A O 0.8444(5) -0.0516(5) 0.4230(6) 0.0158 Uiso
O2A O 0.6328(5) 0.0292(5) 0.4551(6) 0.0200 Uiso
O3A O 0.8395(5) -0.2653(6) 0.5611(6) 0.0210 Uiso
O4A O 0.6135(5) -0.2660(5) 0.6050(6) 0.0220 Uiso
O7A O 0.6949(5) -0.1750(5) 0.4204(6) 0.0138 Uiso
O8A O 0.7670(5) -0.4064(5) 0.1039(6) 0.0096 Uiso
O8G O 0.2670(5) -0.0936(5) 0.6039(6) 0.0096 Uiso
O8F O 0.7330(5) -0.0936(5) 0.6039(6) 0.0096 Uiso
O9A O 0.7202(5) -0.5686(5) 0.1021(6) 0.0173 Uiso
O9B O 0.2798(5) -0.4314(5) 0.6021(6) 0.0173 Uiso
O9C O 0.7202(5) -0.4314(5) 0.6021(6) 0.0173 Uiso
O9G O 0.2202(5) 0.0686(5) 0.6021(6) 0.0173 Uiso
O9F O 0.7798(5) 0.0686(5) 0.6021(6) 0.0173 Uiso
O10A O 0.7154(5) -0.3463(5) 0.4144(6) 0.0126 Uiso
O10E O 0.2154(5) 0.1537(5) 0.4144(6) 0.0126 Uiso
O10D O 0.7846(5) 0.1537(5) 0.4144(6) 0.0126 Uiso
O11A O 0.7826(6) -0.5054(6) 0.2648(8) 0.0250 Uiso
O11E O 0.2826(6) -0.0054(6) 0.2648(8) 0.0250 Uiso
O11D O 0.7174(6) -0.0054(6) 0.2648(8) 0.0250 Uiso
O12A O 0.7509(5) -0.2479(5) 0.2554(7) 0.0120 Uiso
O12G O 0.2509(5) -0.2521(5) 0.7554(7) 0.0120 Uiso
O12F O 0.7491(5) -0.2521(5) 0.7554(7) 0.0120 Uiso
O13A O 0.5954(6) -0.2724(6) 0.3087(6) 0.0190 Uiso
O14A O 0.6367(6) -0.4503(6) 0.2096(6) 0.0220 Uiso
loop_
_atom_site_aniso_label
_atom_site_aniso_U_11
_atom_site_aniso_U_22
_atom_site_aniso_U_33
_atom_site_aniso_U_23
_atom_site_aniso_U_13
_atom_site_aniso_U_12
U1 0.0175 0.0086 0.0086 0.0005 0.0001 0.00131
U2 0.0173 0.0077 0.0091 -0.0001 0.0011 0.00112
U3 0.0137 0.0149 0.0142 -0.0017 0 0
P1 0.0155 0.007 0.0079 -0.0017 -0.0004 -0.0002
P2 0.017 0.0081 0.0097 -0.0008 0.001 0.0008
U1F 0.0175 0.0086 0.0086 -0.0005 0.0001 -0.00131
U1G 0.0175 0.0086 0.0086 -0.0005 -0.0001 0.00131
U1E 0.0175 0.0086 0.0086 0.0005 -0.0001 -0.00131
U1A 0.0175 0.0086 0.0086 0.0005 -0.0001 -0.00131
U1D 0.0175 0.0086 0.0086 0.0005 0.0001 0.00131
U2A 0.0173 0.0077 0.0091 -0.0001 -0.0011 -0.00112
U2G 0.0173 0.0077 0.0091 0.0001 -0.0011 0.00112
U2B 0.0173 0.0077 0.0091 0.0001 0.0011 -0.00112
U2F 0.0173 0.0077 0.0091 0.0001 0.0011 -0.00112
U2C 0.0173 0.0077 0.0091 0.0001 -0.0011 0.00112
P1A 0.0155 0.007 0.0079 -0.0017 0.0004 0.0002
P2A 0.017 0.0081 0.0097 -0.0008 -0.001 -0.0008
loop_
_geom_bond_atom_site_label_1
_geom_bond_atom_site_label_2
_geom_bond_site_symmetry_1
_geom_bond_site_symmetry_2
U1 O1 1_555 1_555
U2 O3 1_555 1_555
U3 O5 1_555 1_555
P1 O8 1_555 1_555
P2 O7 1_555 1_555
O2 U1 1_555 1_555
O4 U2 1_555 1_555
O6 U3 1_555 1_555
O7 U1 1_555 1_555
O8 U1G 1_555 1_555
O9 P1 1_555 1_555
O10 U2 1_555 1_555
O11 P1 1_555 1_555
O12 P2 1_555 1_555
O13 U3 1_555 1_555
O14 U3 1_555 1_555
O15 U3 1_555 1_555
N1 C5 1_555 1_555
N2 C3 1_555 1_555
C1 C2 1_555 1_555
C2 C4 1_555 1_555
C3 C4 1_555 1_555
C4 C4A 1_555 1_555
C5 C1 1_555 1_555
U1F O8A 1_555 1_555
U1G O9 1_555 1_555
U1E O10 1_555 1_555
U1A O1A 1_555 1_555
U1D O9C 1_555 1_555
U2A O3A 1_555 1_555
U2G O8 1_555 1_555
U2B O9 1_555 1_555
U2F O8A 1_555 1_555
U2C O9A 1_555 1_555
P1A O8A 1_555 1_555
P2A O7A 1_555 1_555
O2A U1A 1_555 1_555
O4A U2A 1_555 1_555
O7A U1A 1_555 1_555
O8G U1 1_555 1_555
O8F U1A 1_555 1_555
O9A U1F 1_555 1_555
O9B U2 1_555 1_555
O9C U2A 1_555 1_555
O9G U1 1_555 1_555
O9F U1A 1_555 1_555
O10A U1D 1_555 1_555
O10E U1 1_555 1_555
O10D U1A 1_555 1_555
O11A U1D 1_555 1_555
O11E U1 1_555 1_555
O11D U1A 1_555 1_555
O12A U2F 1_555 1_555
O12G U2 1_555 1_555
O12F U2A 1_555 1_555
O13A U3 1_555 1_555
O14A U3 1_555 1_555
N2A N2 1_555 1_555
C4A C2 1_555 1_555
C5A N1 1_555 1_555
U2 O7 1_555 1_555
U2 O8G 1_555 1_555
P1 O14 1_555 1_555
P2 O10 1_555 1_555
P2 O13 1_555 1_555
O11 U1E 1_555 1_555
O12 U2G 1_555 1_555
C1 C5A 1_555 1_555
C3 N2A 1_555 1_555
C3 C4A 1_555 1_555
C5 C5A 1_555 1_555
U1E O9B 1_555 1_555
U2A O7A 1_555 1_555
U2A O8F 1_555 1_555
U2A O10A 1_555 1_555
P1A O9A 1_555 1_555
P1A O11A 1_555 1_555
P1A O14A 1_555 1_555
P2A O10A 1_555 1_555
P2A O12A 1_555 1_555
P2A O13A 1_555 1_555

#END
