
#######################################################################
#
#                 Cambridge Crystallographic Data Centre
#                                CCDC 
#
#######################################################################
#
# If this CIF has been generated from an entry in the Cambridge 
# Structural Database, then it will include bibliographic, chemical, 
# crystal, experimental, refinement or atomic coordinate data resulting 
# from the CCDC's data processing and validation procedures.
#
#######################################################################

data_COQLAX
_chemical_formula_moiety         '(C75 H66 Ag2 O8 P4)n'
_symmetry_cell_setting           rhombohedral
_symmetry_space_group_name_H-M   'R -3 c'
_symmetry_Int_Tables_number      167
_space_group_name_Hall           '-R 3 2"c'
loop_
_symmetry_equiv_pos_site_id
_symmetry_equiv_pos_as_xyz
1 x,y,z
2 -y,x-y,z
3 -x+y,-x,z
4 x-y,-y,1/2-z
5 -x,-x+y,1/2-z
6 y,x,1/2-z
7 2/3+x,1/3+y,1/3+z
8 2/3-y,1/3+x-y,1/3+z
9 2/3-x+y,1/3-x,1/3+z
10 2/3+x-y,1/3-y,5/6-z
11 2/3-x,1/3-x+y,5/6-z
12 2/3+y,1/3+x,5/6-z
13 1/3+x,2/3+y,2/3+z
14 1/3-y,2/3+x-y,2/3+z
15 1/3-x+y,2/3-x,2/3+z
16 1/3+x-y,2/3-y,1/6-z
17 1/3-x,2/3-x+y,1/6-z
18 1/3+y,2/3+x,1/6-z
19 -x,-y,-z
20 y,-x+y,-z
21 x-y,x,-z
22 -x+y,y,1/2+z
23 x,x-y,1/2+z
24 -y,-x,1/2+z
25 1/3-x,2/3-y,2/3-z
26 1/3+y,2/3-x+y,2/3-z
27 1/3+x-y,2/3+x,2/3-z
28 1/3-x+y,2/3+y,1/6+z
29 1/3+x,2/3+x-y,1/6+z
30 1/3-y,2/3-x,1/6+z
31 2/3-x,1/3-y,1/3-z
32 2/3+y,1/3-x+y,1/3-z
33 2/3+x-y,1/3+x,1/3-z
34 2/3-x+y,1/3+y,5/6+z
35 2/3+x,1/3+x-y,5/6+z
36 2/3-y,1/3-x,5/6+z
_cell_length_a                   36.6284(4)
_cell_length_b                   36.6284(4)
_cell_length_c                   27.5127(5)
_cell_angle_alpha                90
_cell_angle_beta                 90
_cell_angle_gamma                120
_cell_volume                     31966.8
loop_
_atom_site_label
_atom_site_type_symbol
_atom_site_fract_x
_atom_site_fract_y
_atom_site_fract_z
Ag1 Ag 0.07568(2) 0.20254(2) 0.68607(3)
P1 P 0.11563(5) 0.25126(6) 0.75162(8)
P2 P 0.39632(5) 0.51993(5) 0.76650(8)
C1 C 0.3075(3) 0.3275(3) 0.7439(10)
C2 C 0.2602(2) 0.3061(2) 0.7499(5)
C3 C 0.2360(3) 0.2926(4) 0.7073(6)
H1 H 0.2496 0.2948 0.6772
C4 C 0.1930(3) 0.2763(3) 0.7078(4)
H2 H 0.1775 0.2680 0.6783
C5 C 0.1720(2) 0.2717(2) 0.7525(3)
C6 C 0.1954(2) 0.2831(3) 0.7938(4)
H3 H 0.1822 0.2794 0.8246
C7 C 0.2399(3) 0.3007(3) 0.7909(5)
H4 H 0.2557 0.3088 0.8202
C8 C 0.3287(2) 0.3747(3) 0.7498(5)
C9 C 0.3404(4) 0.3994(3) 0.7094(6)
H5 H 0.3357 0.3871 0.6780
C10 C 0.3597(4) 0.4436(3) 0.7147(4)
H6 H 0.3665 0.4603 0.6861
C11 C 0.3690(2) 0.4633(2) 0.7583(3)
C12 C 0.3562(4) 0.4389(3) 0.7985(4)
H7 H 0.3605 0.4518 0.8295
C13 C 0.3367(5) 0.3954(3) 0.7953(6)
H8 H 0.3287 0.3791 0.8242
C14 C 0.1105(2) 0.2975(3) 0.7472(3)
C15 C 0.0701(3) 0.2926(3) 0.7471(5)
H9 H 0.0460 0.2653 0.7507
C16 C 0.0651(4) 0.3277(4) 0.7418(5)
H10 H 0.0375 0.3240 0.7401
C17 C 0.0987(3) 0.3668(3) 0.7389(4)
H11 H 0.0948 0.3905 0.7357
C18 C 0.1387(3) 0.3724(3) 0.7405(4)
H12 H 0.1624 0.4001 0.7389
C19 C 0.1446(2) 0.3388(2) 0.7443(3)
H13 H 0.1725 0.3433 0.7451
C20 C 0.0990(2) 0.2330(2) 0.8130(3)
C21 C 0.0925(3) 0.1925(3) 0.8240(4)
H14 H 0.0954 0.1755 0.8001
C22 C 0.0812(4) 0.1786(4) 0.8729(5)
H15 H 0.0765 0.1515 0.8815
C23 C 0.0767(3) 0.2022(4) 0.9077(4)
H16 H 0.0701 0.1920 0.9400
C24 C 0.0819(3) 0.2410(4) 0.8963(4)
H17 H 0.0777 0.2573 0.9202
C25 C 0.0936(3) 0.2565(3) 0.8481(3)
H18 H 0.0978 0.2836 0.8401
C26 C 0.3692(3) 0.5381(3) 0.7255(5)
C27 C 0.3697(3) 0.5343(3) 0.6766(5)
H19 H 0.3856 0.5234 0.6617
C28 C 0.3461(4) 0.5467(4) 0.6487(6)
H20 H 0.3455 0.5432 0.6144
C29 C 0.3249(3) 0.5629(4) 0.6672(7)
H21 H 0.3097 0.5714 0.6465
C30 C 0.3242(4) 0.5678(5) 0.7152(8)
H22 H 0.3084 0.5795 0.7288
C31 C 0.3475(3) 0.5554(3) 0.7460(6)
H23 H 0.3479 0.5591 0.7802
C32 C 0.4461(2) 0.5396(2) 0.7357(3)
C33 C 0.4616(3) 0.5149(4) 0.7212(5)
H24 H 0.4452 0.4852 0.7253
C34 C 0.5024(4) 0.5328(5) 0.6999(6)
H25 H 0.5126 0.5151 0.6884
C35 C 0.5266(3) 0.5755(5) 0.6961(6)
H26 H 0.5553 0.5881 0.6864
C36 C 0.5091(4) 0.6002(4) 0.7064(8)
H27 H 0.5238 0.6294 0.6985
C37 C 0.4695(4) 0.5821(3) 0.7285(8)
H28 H 0.4586 0.5996 0.7387
C38 C 0.0000 0.1435(3) 0.7500
O1 O 0.0248(2) 0.1371(2) 0.7232(3)
O2 O 0.0000 0.1768(3) 0.7500
P1E P 0.25126(6) 0.11563(5) 0.74838(8)
P2E P 0.51993(5) 0.39632(5) 0.73350(8)
C1E C 0.3275(3) 0.3075(3) 0.7561(10)
C2E C 0.3061(2) 0.2602(2) 0.7501(5)
C3E C 0.2926(4) 0.2360(3) 0.7927(6)
H1E H 0.2948 0.2496 0.8228
C4E C 0.2763(3) 0.1930(3) 0.7922(4)
H2E H 0.2680 0.1775 0.8217
C5E C 0.2717(2) 0.1720(2) 0.7475(3)
C6E C 0.2831(3) 0.1954(2) 0.7062(4)
H3E H 0.2794 0.1822 0.6754
C7E C 0.3007(3) 0.2399(3) 0.7091(5)
H4E H 0.3088 0.2557 0.6798
C8E C 0.3747(3) 0.3287(2) 0.7502(5)
C9E C 0.3994(3) 0.3404(4) 0.7906(6)
H5E H 0.3871 0.3357 0.8220
C10E C 0.4436(3) 0.3597(4) 0.7853(4)
H6E H 0.4603 0.3665 0.8139
C11E C 0.4633(2) 0.3690(2) 0.7417(3)
C12E C 0.4389(3) 0.3562(4) 0.7015(4)
H7E H 0.4518 0.3605 0.6705
C13E C 0.3954(3) 0.3367(5) 0.7047(6)
H8E H 0.3791 0.3287 0.6758
C14E C 0.2975(3) 0.1105(2) 0.7528(3)
C15E C 0.2926(3) 0.0701(3) 0.7529(5)
H9E H 0.2653 0.0460 0.7493
C16E C 0.3277(4) 0.0651(4) 0.7582(5)
H10E H 0.3240 0.0375 0.7599
C17E C 0.3668(3) 0.0987(3) 0.7611(4)
H11E H 0.3905 0.0948 0.7643
C18E C 0.3724(3) 0.1387(3) 0.7595(4)
H12E H 0.4001 0.1624 0.7611
C19E C 0.3388(2) 0.1446(2) 0.7557(3)
H13E H 0.3433 0.1725 0.7549
C20E C 0.2330(2) 0.0990(2) 0.6870(3)
C21E C 0.1925(3) 0.0925(3) 0.6760(4)
H14E H 0.1755 0.0954 0.6999
C22E C 0.1786(4) 0.0812(4) 0.6271(5)
H15E H 0.1515 0.0765 0.6185
C23E C 0.2022(4) 0.0767(3) 0.5923(4)
H16E H 0.1920 0.0701 0.5600
C24E C 0.2410(4) 0.0819(3) 0.6037(4)
H17E H 0.2573 0.0777 0.5798
C25E C 0.2565(3) 0.0936(3) 0.6519(3)
H18E H 0.2836 0.0978 0.6599
C26E C 0.5381(3) 0.3692(3) 0.7745(5)
C27E C 0.5343(3) 0.3697(3) 0.8234(5)
H19E H 0.5234 0.3856 0.8383
C28E C 0.5467(4) 0.3461(4) 0.8513(6)
H20E H 0.5432 0.3455 0.8856
C29E C 0.5629(4) 0.3249(3) 0.8328(7)
H21E H 0.5714 0.3097 0.8535
C30E C 0.5678(5) 0.3242(4) 0.7848(8)
H22E H 0.5795 0.3084 0.7712
C31E C 0.5554(3) 0.3475(3) 0.7540(6)
H23E H 0.5591 0.3479 0.7198
C32E C 0.5396(2) 0.4461(2) 0.7643(3)
C33E C 0.5149(4) 0.4616(3) 0.7788(5)
H24E H 0.4852 0.4452 0.7747
C34E C 0.5328(5) 0.5024(4) 0.8001(6)
H25E H 0.5151 0.5126 0.8116
C35E C 0.5755(5) 0.5266(3) 0.8039(6)
H26E H 0.5881 0.5553 0.8136
C36E C 0.6002(4) 0.5091(4) 0.7936(8)
H27E H 0.6294 0.5238 0.8015
C37E C 0.5821(3) 0.4695(4) 0.7715(8)
H28E H 0.5996 0.4586 0.7613
O1D O -0.0248(2) 0.1123(3) 0.7768(3)
Ag1D Ag -0.07568(2) 0.12686(3) 0.81393(3)
Ag1E Ag 0.20254(2) 0.07568(2) 0.81393(3)
Ag1FA Ag 0.53981(3) 0.40901(2) 0.64726(3)
Ag1BA Ag 0.40901(2) 0.53981(3) 0.85274(3)
P1D P -0.11563(5) 0.13563(8) 0.74838(8)
P2HA P 0.06299(5) 0.20972(7) 0.59983(8)
P2X P -0.06299(5) 0.14674(5) 0.90017(8)
O3 O 0.9920(8) 0.0565(7) 0.6910(16)
O4 O 0.9969(5) 0.3615(4) 0.7211(7)
O5 O 0.0000 -0.0000 0.7500
O6 O 0.1436(15) 0.1595(10) 0.693(2)
O4D O 1.0031(5) 0.3646(6) 0.7789(7)
loop_
_geom_bond_atom_site_label_1
_geom_bond_atom_site_label_2
_geom_bond_site_symmetry_1
_geom_bond_site_symmetry_2
Ag1 P1 1_555 1_555
P1 C5 1_555 1_555
P2 C11 1_555 1_555
C1 C2 1_555 1_555
C2 C3 1_555 1_555
C3 H1 1_555 1_555
C4 C3 1_555 1_555
H2 C4 1_555 1_555
C5 C4 1_555 1_555
C6 C5 1_555 1_555
H3 C6 1_555 1_555
C7 C2 1_555 1_555
H4 C7 1_555 1_555
C8 C1 1_555 1_555
C9 C8 1_555 1_555
H5 C9 1_555 1_555
C10 C9 1_555 1_555
H6 C10 1_555 1_555
C11 C10 1_555 1_555
C12 C11 1_555 1_555
H7 C12 1_555 1_555
C13 C8 1_555 1_555
H8 C13 1_555 1_555
C14 P1 1_555 1_555
C15 C14 1_555 1_555
H9 C15 1_555 1_555
C16 C15 1_555 1_555
H10 C16 1_555 1_555
C17 C16 1_555 1_555
H11 C17 1_555 1_555
C18 C17 1_555 1_555
H12 C18 1_555 1_555
C19 C14 1_555 1_555
H13 C19 1_555 1_555
C20 P1 1_555 1_555
C21 C20 1_555 1_555
H14 C21 1_555 1_555
C22 C21 1_555 1_555
H15 C22 1_555 1_555
C23 C22 1_555 1_555
H16 C23 1_555 1_555
C24 C23 1_555 1_555
H17 C24 1_555 1_555
C25 C20 1_555 1_555
H18 C25 1_555 1_555
C26 P2 1_555 1_555
C27 C26 1_555 1_555
H19 C27 1_555 1_555
C28 C27 1_555 1_555
H20 C28 1_555 1_555
C29 C28 1_555 1_555
H21 C29 1_555 1_555
C30 C29 1_555 1_555
H22 C30 1_555 1_555
C31 C26 1_555 1_555
H23 C31 1_555 1_555
C32 P2 1_555 1_555
C33 C32 1_555 1_555
H24 C33 1_555 1_555
C34 C33 1_555 1_555
H25 C34 1_555 1_555
C35 C34 1_555 1_555
H26 C35 1_555 1_555
C36 C35 1_555 1_555
H27 C36 1_555 1_555
C37 C32 1_555 1_555
H28 C37 1_555 1_555
C38 O1 1_555 1_555
O1 Ag1 1_555 1_555
O2 C38 1_555 1_555
P1E C5E 1_555 1_555
P2E C11E 1_555 1_555
C1E C1 1_555 1_555
C2E C1E 1_555 1_555
C3E C2E 1_555 1_555
H1E C3E 1_555 1_555
C4E C3E 1_555 1_555
H2E C4E 1_555 1_555
C5E C4E 1_555 1_555
C6E C5E 1_555 1_555
H3E C6E 1_555 1_555
C7E C2E 1_555 1_555
H4E C7E 1_555 1_555
C8E C1E 1_555 1_555
C9E C8E 1_555 1_555
H5E C9E 1_555 1_555
C10E C9E 1_555 1_555
H6E C10E 1_555 1_555
C11E C10E 1_555 1_555
C12E C11E 1_555 1_555
H7E C12E 1_555 1_555
C13E C8E 1_555 1_555
H8E C13E 1_555 1_555
C14E P1E 1_555 1_555
C15E C14E 1_555 1_555
H9E C15E 1_555 1_555
C16E C15E 1_555 1_555
H10E C16E 1_555 1_555
C17E C16E 1_555 1_555
H11E C17E 1_555 1_555
C18E C17E 1_555 1_555
H12E C18E 1_555 1_555
C19E C14E 1_555 1_555
H13E C19E 1_555 1_555
C20E P1E 1_555 1_555
C21E C20E 1_555 1_555
H14E C21E 1_555 1_555
C22E C21E 1_555 1_555
H15E C22E 1_555 1_555
C23E C22E 1_555 1_555
H16E C23E 1_555 1_555
C24E C23E 1_555 1_555
H17E C24E 1_555 1_555
C25E C20E 1_555 1_555
H18E C25E 1_555 1_555
C26E P2E 1_555 1_555
C27E C26E 1_555 1_555
H19E C27E 1_555 1_555
C28E C27E 1_555 1_555
H20E C28E 1_555 1_555
C29E C28E 1_555 1_555
H21E C29E 1_555 1_555
C30E C29E 1_555 1_555
H22E C30E 1_555 1_555
C31E C26E 1_555 1_555
H23E C31E 1_555 1_555
C32E P2E 1_555 1_555
C33E C32E 1_555 1_555
H24E C33E 1_555 1_555
C34E C33E 1_555 1_555
H25E C34E 1_555 1_555
C35E C34E 1_555 1_555
H26E C35E 1_555 1_555
C36E C35E 1_555 1_555
H27E C36E 1_555 1_555
C37E C32E 1_555 1_555
H28E C37E 1_555 1_555
O1D C38 1_555 1_555
Ag1D O1D 1_555 1_555
Ag1E P1E 1_555 1_555
Ag1FA P2E 1_555 1_555
Ag1BA P2 1_555 1_555
P1D Ag1D 1_555 1_555
P2HA Ag1 1_555 1_555
P2X Ag1D 1_555 1_555
C6 C7 1_555 1_555
C12 C13 1_555 1_555
C18 C19 1_555 1_555
C24 C25 1_555 1_555
C30 C31 1_555 1_555
C36 C37 1_555 1_555
C6E C7E 1_555 1_555
C12E C13E 1_555 1_555
C18E C19E 1_555 1_555
C24E C25E 1_555 1_555
C30E C31E 1_555 1_555
C36E C37E 1_555 1_555

#END
