
#######################################################################
#
#                 Cambridge Crystallographic Data Centre
#                                CCDC 
#
#######################################################################
#
# If this CIF has been generated from an entry in the Cambridge 
# Structural Database, then it will include bibliographic, chemical, 
# crystal, experimental, refinement or atomic coordinate data resulting 
# from the CCDC's data processing and validation procedures.
#
#######################################################################

data_ITEZAJ
_chemical_formula_moiety         'C40 H12 N3 Ni7 O12'
_symmetry_cell_setting           tetragonal
_symmetry_space_group_name_H-M   'P 4/n'
_symmetry_Int_Tables_number      85
_space_group_name_Hall           '-P 4a'
loop_
_symmetry_equiv_pos_site_id
_symmetry_equiv_pos_as_xyz
1 x,y,z
2 1/2-y,x,z
3 y,1/2-x,z
4 1/2-x,1/2-y,z
5 -x,-y,-z
6 1/2+y,-x,-z
7 -y,1/2+x,-z
8 1/2+x,1/2+y,-z
_cell_length_a                   18.4312(16)
_cell_length_b                   18.4312(16)
_cell_length_c                   9.3905(8)
_cell_angle_alpha                90
_cell_angle_beta                 90
_cell_angle_gamma                90
_cell_volume                     3190.04
loop_
_atom_site_label
_atom_site_type_symbol
_atom_site_fract_x
_atom_site_fract_y
_atom_site_fract_z
Ni1 Ni 0.2500 0.2500 0.69595(17)
Ni2 Ni 0.2500 0.2500 0.41535(16)
O1 O 0.1735(3) 0.1733(3) 0.4435(5)
O2 O 0.1739(4) 0.1731(4) 0.6758(6)
C1 C 0.1506(5) 0.1508(5) 0.5555(9)
C2 C 0.0955(5) 0.0956(5) 0.5589(9)
C3 C 0.0664(6) 0.0662(6) 0.4401(9)
H1 H 0.0839 0.0825 0.3528
C4 C 0.0667(6) 0.0681(6) 0.6880(9)
H2 H 0.0831 0.0867 0.7742
C5 C 0.0166(8) 0.0162(8) 0.6881(10)
H3 H 0.0003 -0.0010 0.7755
C6 C 0.0136(5) 0.0147(5) 0.4382(9)
N1 N 0.2500 0.2500 0.9008(6)
N2 N 0.2500 0.2500 1.2001(6)
C7 C 0.2455(11) 0.3239(10) 1.147(2)
C8 C 0.3004(11) 0.3060(9) 1.137(2)
C9 C 0.2697(13) 0.3178(10) 0.967(2)
C10 C 0.3137(12) 0.2776(11) 0.963(2)
Ni1G Ni -0.2500 -0.2500 0.30405(17)
Ni1G_2 Ni 0.7500 -0.2500 0.30405(17)
Ni2_2 Ni 0.2500 0.2500 1.41535(16)
Ni2G Ni -0.2500 -0.2500 0.58465(16)
Ni2G_2 Ni 0.7500 -0.2500 0.58465(16)
O1D O -0.1735(3) -0.1733(3) 0.5565(5)
O1A O 0.3267(3) 0.1735(3) 0.4435(5)
O1E O 0.6733(3) -0.1735(3) 0.5565(5)
O1B O 0.1733(3) 0.3265(3) 0.4435(5)
O1C O 0.3265(3) 0.3267(3) 0.4435(5)
O2D O -0.1739(4) -0.1731(4) 0.3242(6)
O2A O 0.3269(4) 0.1739(4) 0.6758(6)
O2E O 0.6731(4) -0.1739(4) 0.3242(6)
O2B O 0.1731(4) 0.3261(4) 0.6758(6)
O2C O 0.3261(4) 0.3269(4) 0.6758(6)
C1D C -0.1506(5) -0.1508(5) 0.4445(9)
C1A C 0.3492(5) 0.1506(5) 0.5555(9)
C1E C 0.6508(5) -0.1506(5) 0.4445(9)
C2D C -0.0955(5) -0.0956(5) 0.4411(9)
C2A C 0.4044(5) 0.0955(5) 0.5589(9)
C2E C 0.5956(5) -0.0955(5) 0.4411(9)
C3D C -0.0664(6) -0.0662(6) 0.5599(9)
C3A C 0.4338(6) 0.0664(6) 0.4401(9)
C3E C 0.5662(6) -0.0664(6) 0.5599(9)
H1D H -0.0839 -0.0825 0.6472
H1A H 0.4175 0.0839 0.3528
H1E H 0.5825 -0.0839 0.6472
C4D C -0.0667(6) -0.0681(6) 0.3120(9)
C4A C 0.4319(6) 0.0667(6) 0.6880(9)
C4E C 0.5681(6) -0.0667(6) 0.3120(9)
H2D H -0.0831 -0.0867 0.2258
H2A H 0.4133 0.0831 0.7742
H2E H 0.5867 -0.0831 0.2258
C5D C -0.0166(8) -0.0162(8) 0.3119(10)
C5A C 0.4838(8) 0.0166(8) 0.6881(10)
C5E C 0.5162(8) -0.0166(8) 0.3119(10)
H3D H -0.0003 0.0010 0.2245
H3A H 0.5010 0.0003 0.7755
H3E H 0.4990 -0.0003 0.2245
C6D C -0.0136(5) -0.0147(5) 0.5618(9)
C6A C 0.4853(5) 0.0136(5) 0.4382(9)
C6E C 0.5147(5) -0.0136(5) 0.5618(9)
N2_2 N 0.2500 0.2500 0.2001(6)
C7A C 0.1761(10) 0.2455(11) 1.147(2)
C7B C 0.3239(10) 0.2545(11) 1.147(2)
C7C C 0.2545(11) 0.1761(10) 1.147(2)
C8A C 0.1940(9) 0.3004(11) 1.137(2)
C8B C 0.3060(9) 0.1996(11) 1.137(2)
C8C C 0.1996(11) 0.1940(9) 1.137(2)
C9A C 0.1822(10) 0.2697(13) 0.967(2)
C9B C 0.3178(10) 0.2303(13) 0.967(2)
C9C C 0.2303(13) 0.1822(10) 0.967(2)
C10A C 0.2224(11) 0.3137(12) 0.963(2)
C10B C 0.2776(11) 0.1863(12) 0.963(2)
C10C C 0.1863(12) 0.2224(11) 0.963(2)
loop_
_geom_bond_atom_site_label_1
_geom_bond_atom_site_label_2
_geom_bond_site_symmetry_1
_geom_bond_site_symmetry_2
Ni1 O2 1_555 1_555
Ni2 O1 1_555 1_555
O1 C1 1_555 1_555
O2 C1 1_555 1_555
C1 C2 1_555 1_555
C2 C3 1_555 1_555
C3 H1 1_555 1_555
C4 C2 1_555 1_555
H2 C4 1_555 1_555
C5 C4 1_555 1_555
H3 C5 1_555 1_555
C6 C3 1_555 1_555
N1 Ni1 1_555 1_555
N2 C7 1_555 1_555
C7 C8 1_555 1_555
C8 N2 1_555 1_555
C9 N1 1_555 1_555
C10 N1 1_555 1_555
Ni1G O2D 1_555 1_555
Ni1G_2 O2E 1_555 1_555
Ni2_2 N2 1_555 1_555
Ni2G O1D 1_555 1_555
Ni2G_2 O1E 1_555 1_555
O1D C1D 1_555 1_555
O1A Ni2 1_555 1_555
O1E C1E 1_555 1_555
O1B Ni2 1_555 1_555
O1C Ni2 1_555 1_555
O2D C1D 1_555 1_555
O2A Ni1 1_555 1_555
O2E C1E 1_555 1_555
O2B Ni1 1_555 1_555
O2C Ni1 1_555 1_555
C1D C2D 1_555 1_555
C1A O1A 1_555 1_555
C1E C2E 1_555 1_555
C2D C3D 1_555 1_555
C2A C1A 1_555 1_555
C2E C3E 1_555 1_555
C3D H1D 1_555 1_555
C3A C2A 1_555 1_555
C3E H1E 1_555 1_555
H1A C3A 1_555 1_555
C4D C2D 1_555 1_555
C4A C2A 1_555 1_555
C4E C2E 1_555 1_555
H2D C4D 1_555 1_555
H2A C4A 1_555 1_555
H2E C4E 1_555 1_555
C5D C6 1_555 1_555
C5A C4A 1_555 1_555
C5E C4E 1_555 1_555
H3D C5D 1_555 1_555
H3A C5A 1_555 1_555
H3E C5E 1_555 1_555
C6D C5 1_555 1_555
C6A C3A 1_555 1_555
C6E C3E 1_555 1_555
N2_2 Ni2 1_555 1_555
C7A N2 1_555 1_555
C7B N2 1_555 1_555
C7C N2 1_555 1_555
C8A N2 1_555 1_555
C8B N2 1_555 1_555
C8C N2 1_555 1_555
C9A N1 1_555 1_555
C9B N1 1_555 1_555
C9C N1 1_555 1_555
C10A N1 1_555 1_555
C10B N1 1_555 1_555
C10C N1 1_555 1_555
C6 C6D 1_555 1_555
C7 C9 1_555 1_555
C7 C8A 1_555 1_555
C8 C9 1_555 1_555
C8 C10 1_555 1_555
C8 C7B 1_555 1_555
C9 C10 1_555 1_555
C9 C10A 1_555 1_555
C10 C9B 1_555 1_555
O2A C1A 1_555 1_555
C3D C6D 1_555 1_555
C4D C5D 1_555 1_555
C5A C6E 1_555 1_555
C5E C6A 1_555 1_555
C6A C6E 1_555 1_555
C7A C8A 1_555 1_555
C7A C8C 1_555 1_555
C7A C9A 1_555 1_555
C7B C8B 1_555 1_555
C7B C9B 1_555 1_555
C7C C8B 1_555 1_555
C7C C8C 1_555 1_555
C7C C9C 1_555 1_555
C8A C9A 1_555 1_555
C8A C10A 1_555 1_555
C8B C9B 1_555 1_555
C8B C10B 1_555 1_555
C8C C9C 1_555 1_555
C8C C10C 1_555 1_555
C9A C10A 1_555 1_555
C9A C10C 1_555 1_555
C9B C10B 1_555 1_555
C9C C10B 1_555 1_555
C9C C10C 1_555 1_555

#END
