
#######################################################################
#
#                 Cambridge Crystallographic Data Centre
#                                CCDC 
#
#######################################################################
#
# If this CIF has been generated from an entry in the Cambridge 
# Structural Database, then it will include bibliographic, chemical, 
# crystal, experimental, refinement or atomic coordinate data resulting 
# from the CCDC's data processing and validation procedures.
#
#######################################################################

data_ECIYEU
_chemical_formula_moiety         '(C2 H9 Al3 N1 O13 P3)n'
_symmetry_cell_setting           monoclinic
_symmetry_space_group_name_H-M   'P 21/n'
_symmetry_Int_Tables_number      14
_space_group_name_Hall           '-P 2yn'
loop_
_symmetry_equiv_pos_site_id
_symmetry_equiv_pos_as_xyz
1 x,y,z
2 1/2-x,1/2+y,1/2-z
3 -x,-y,-z
4 1/2+x,1/2-y,1/2+z
_cell_length_a                   8.6868(19)
_cell_length_b                   17.428(5)
_cell_length_c                   9.1589(17)
_cell_angle_alpha                90
_cell_angle_beta                 109.604(17)
_cell_angle_gamma                90
_cell_volume                     1306.22
loop_
_atom_site_label
_atom_site_type_symbol
_atom_site_fract_x
_atom_site_fract_y
_atom_site_fract_z
H1 H 0.550(5) -0.212(4) -0.102(5)
P1 P 0.20373(17) -0.21168(8) 0.02722(18)
P2 P 0.34018(17) 0.07040(8) -0.13180(18)
P3 P 0.25208(16) -0.16231(8) -0.50510(18)
Al1 Al 0.49030(18) -0.16886(9) -0.6897(2)
Al2 Al 0.36173(19) -0.11132(9) -0.16384(19)
Al3 Al 0.43534(19) -0.29598(9) -0.2973(2)
O1 O 0.2806(4) -0.01181(19) -0.1600(4)
O2 O 0.3647(4) -0.2267(2) 0.1621(4)
O3 O 0.1643(4) -0.28363(19) -0.0745(4)
O4 O 0.0671(4) -0.1945(2) 0.0893(4)
O5 O 0.1901(4) 0.1211(2) -0.1805(4)
O6 O 0.4468(4) 0.0889(2) -0.2320(4)
O7 O 0.2667(4) -0.10926(19) -0.3698(4)
O8 O 0.2733(4) -0.24624(19) -0.4553(4)
O9 O 0.4580(4) -0.2099(2) -0.1788(5)
O10 O 0.0851(4) -0.15096(19) -0.6278(4)
O11 O 0.2259(4) -0.1438(2) -0.0681(4)
O12 O 0.4406(4) 0.08320(19) 0.0376(4)
O13 O 0.3827(4) -0.1372(2) -0.5732(4)
O5A O 0.3099(4) -0.3789(2) -0.3195(4)
Al3A Al 0.06466(19) 0.20402(9) -0.2027(2)
Al1C Al -0.00970(18) -0.33114(9) -0.1897(2)
O3C O 0.6643(4) -0.21637(19) -0.5745(4)
O4C O 0.5671(4) -0.3055(2) -0.4107(4)
O10C O 0.5851(4) -0.34904(19) -0.1278(4)
O12B O 0.5594(4) -0.08320(19) -0.0376(4)
Al1B Al 0.50970(18) 0.16886(9) -0.3103(2)
O2_2 O 0.3647(4) -0.2267(2) -0.8379(4)
O6B O 0.5532(4) -0.0889(2) -0.7680(4)
Al1_2 Al 0.49030(18) -0.16886(9) 0.3103(2)
Al3C Al -0.06466(19) -0.20402(9) 0.2027(2)
Al3C_2 Al -0.06466(19) -0.20402(9) -0.7973(2)
Al2B Al 0.63827(19) 0.11132(9) 0.16384(19)
C1 C 0.1294(9) 0.0641(4) -0.5909(9)
H2 H 0.0617 0.0595 -0.5273
H3 H 0.1244 0.1157 -0.6286
H4 H 0.2402 0.0516 -0.5308
N1 N 0.0709(6) 0.0111(3) -0.7226(6)
H5 H -0.0338 0.0222 -0.7773
H6 H 0.0742 -0.0372 -0.6867
C2 C 0.1696(10) 0.0155(5) -0.8257(9)
H7 H 0.1276 -0.0201 -0.9097
H8 H 0.2811 0.0028 -0.7682
H9 H 0.1644 0.0666 -0.8662
loop_
_geom_bond_atom_site_label_1
_geom_bond_atom_site_label_2
_geom_bond_site_symmetry_1
_geom_bond_site_symmetry_2
H1 O9 1_555 1_555
P1 O2 1_555 1_555
P2 O1 1_555 1_555
P3 O7 1_555 1_555
Al1 O13 1_555 1_555
Al2 O1 1_555 1_555
Al3 O8 1_555 1_555
O2 Al1_2 1_555 1_555
O3 P1 1_555 1_555
O4 P1 1_555 1_555
O5 P2 1_555 1_555
O6 P2 1_555 1_555
O7 Al2 1_555 1_555
O8 P3 1_555 1_555
O9 Al2 1_555 1_555
O10 P3 1_555 1_555
O11 P1 1_555 1_555
O12 P2 1_555 1_555
O13 P3 1_555 1_555
C1 H2 1_555 1_555
H3 C1 1_555 1_555
H4 C1 1_555 1_555
N1 C1 1_555 1_555
H5 N1 1_555 1_555
H6 N1 1_555 1_555
C2 N1 1_555 1_555
H7 C2 1_555 1_555
H8 C2 1_555 1_555
H9 C2 1_555 1_555
O5A Al3 1_555 1_555
Al3A O5 1_555 1_555
Al1C O3 1_555 1_555
O3C Al1 1_555 1_555
O4C Al3 1_555 1_555
O10C Al3 1_555 1_555
O12B Al2 1_555 1_555
Al1B O6 1_555 1_555
O2_2 Al1 1_555 1_555
O6B Al1 1_555 1_555
Al3C O4 1_555 1_555
Al3C_2 O10 1_555 1_555
Al2B O12 1_555 1_555
Al2 O11 1_555 1_555
Al3 O9 1_555 1_555

#END
