
#######################################################################
#
#                 Cambridge Crystallographic Data Centre
#                                CCDC 
#
#######################################################################
#
# If this CIF has been generated from an entry in the Cambridge 
# Structural Database, then it will include bibliographic, chemical, 
# crystal, experimental, refinement or atomic coordinate data resulting 
# from the CCDC's data processing and validation procedures.
#
#######################################################################

data_VIVXOP
_chemical_formula_moiety         '(C50 H24 N2 O30 Zn2)n'
_symmetry_cell_setting           monoclinic
_symmetry_space_group_name_H-M   'C 2/c'
_symmetry_Int_Tables_number      15
_space_group_name_Hall           '-C 2yc'
loop_
_symmetry_equiv_pos_site_id
_symmetry_equiv_pos_as_xyz
1 x,y,z
2 -x,y,1/2-z
3 1/2+x,1/2+y,z
4 1/2-x,1/2+y,1/2-z
5 -x,-y,-z
6 x,-y,1/2+z
7 1/2-x,1/2-y,-z
8 1/2+x,1/2-y,1/2+z
_cell_length_a                   20.5112
_cell_length_b                   19.5795
_cell_length_c                   25.7508
_cell_angle_alpha                90
_cell_angle_beta                 99.1560
_cell_angle_gamma                90
_cell_volume                     10209.7
loop_
_atom_site_label
_atom_site_type_symbol
_atom_site_fract_x
_atom_site_fract_y
_atom_site_fract_z
Zn1 Zn 0.02872 0.15308 0.42056
Zn2 Zn 0.12735 0.28078 0.44159
N1 N 0.19896 0.34998 0.43588
N2 N 0.44143 0.60542 0.42796
O1 O -0.01547 0.23473 0.40522
O2 O 0.05509 0.32482 0.42775
O3 O -0.17172 0.51210 0.26849
O4 O -0.38919 0.69955 0.40642
O5 O -0.38903 0.74078 0.32697
O6 O 0.05501 0.16455 0.49027
O7 O 0.12735 0.25268 0.50860
O8 O 0.14102 0.20169 0.76736
O9 O 0.01630 -0.11827 0.85425
O10 O 0.06939 -0.06722 0.92606
C1 C -0.00202 0.29907 0.41138
C2 C -0.05407 0.35213 0.39374
C3 C -0.03132 0.40616 0.36440
H1 H 0.01433 0.40942 0.36050
C4 C -0.07713 0.45482 0.34110
H2 H -0.06195 0.49198 0.32272
C5 C -0.14535 0.44897 0.34496
C6 C -0.16738 0.39614 0.37508
H3 H -0.21297 0.39274 0.37878
C7 C -0.12172 0.34820 0.39976
H4 H -0.13673 0.31320 0.42042
C8 C -0.18825 0.49842 0.31071
C9 C -0.24358 0.53853 0.32227
C10 C -0.25152 0.55282 0.37565
H5 H -0.22774 0.52902 0.40264
C11 C -0.29483 0.60242 0.38871
H6 H -0.30093 0.61086 0.42431
C12 C -0.32922 0.63959 0.34882
C13 C -0.32109 0.62519 0.29586
H7 H -0.34412 0.64970 0.26909
C14 C -0.27914 0.57480 0.28205
H8 H -0.27476 0.56532 0.24629
C15 C -0.37173 0.69631 0.36170
C16 C 0.09202 0.20446 0.52132
C17 C 0.09150 0.19061 0.57768
C18 C 0.09068 0.12261 0.59595
H9 H 0.08655 0.08782 0.57278
C19 C 0.09588 0.10671 0.64814
H10 H 0.09452 0.06115 0.65988
C20 C 0.10318 0.15786 0.68352
C21 C 0.10398 0.22596 0.66530
H11 H 0.10900 0.26065 0.68860
C22 C 0.09759 0.24219 0.61305
H12 H 0.09730 0.28783 0.60126
C23 C 0.11599 0.15060 0.74339
C24 C 0.10551 0.09128 0.77929
C25 C 0.11117 0.10401 0.83232
H13 H 0.12557 0.14802 0.84617
C26 C 0.09542 0.05155 0.86405
H14 H 0.09896 0.06041 0.89922
C27 C 0.07439 -0.01463 0.84376
C28 C 0.06686 -0.02715 0.79090
H15 H 0.05089 -0.07067 0.77698
C29 C 0.08333 0.02546 0.75894
H16 H 0.07954 0.01661 0.72377
C30 C 0.05150 -0.06815 0.87716
C31 C 0.20714 0.37717 0.38963
H17 H 0.18451 0.35771 0.35825
C32 C 0.24768 0.43256 0.38628
H18 H 0.25148 0.45037 0.35323
C33 C 0.28302 0.46177 0.43285
C34 C 0.27255 0.43528 0.48096
H19 H 0.29374 0.45441 0.51291
C35 C 0.23014 0.38008 0.48072
H20 H 0.22304 0.36320 0.51309
C36 C 0.33558 0.51869 0.43100
C37 C 0.33860 0.55513 0.38644
H21 H 0.30515 0.55086 0.35675
C38 C 0.39130 0.59762 0.38654
H22 H 0.39230 0.62211 0.35659
C39 C 0.38720 0.52559 0.47302
H23 H 0.38739 0.50197 0.50362
C40 C 0.43940 0.56846 0.46920
H24 H 0.47488 0.57104 0.49752
Zn1E Zn 0.02872 -0.15308 0.92056
Zn1B Zn -0.47128 0.65308 0.42056
Zn1B_2 Zn 0.52872 0.65308 0.42056
Zn2B Zn -0.37265 0.78078 0.44159
N2B N -0.05857 0.10542 0.42796
O4B O 0.11081 0.19955 0.40642
O9E O 0.01630 0.11827 0.35425
O10E O 0.06939 0.06722 0.42606
C41 C -0.12325 -0.42969 0.03230
O11 O -0.09525 -0.47038 0.06261
O12 O -0.15124 -0.38899 0.00199
C42 C -0.99356 0.33265 -0.33057
O13 O -0.96551 0.38463 -0.33747
O14 O -1.02161 0.28066 -0.32366
C43 C -0.23028 0.26144 -0.15080
O15 O -0.23536 0.26149 -0.19773
O16 O -0.22520 0.26139 -0.10387
C44 C -0.40489 0.04049 -0.20804
O17 O -0.40598 -0.00622 -0.17825
O18 O -0.40380 0.08721 -0.23784
C45 C -0.26142 0.27067 -0.40897
O19 O -0.23432 0.24331 -0.36988
O20 O -0.28851 0.29803 -0.44806
C46 C -0.24777 0.11415 -0.25249
O21 O -0.22199 0.06135 -0.23760
O22 O -0.27355 0.16695 -0.26739
C47 C -0.39492 0.29167 -0.53311
O23 O -0.35112 0.32275 -0.54791
O24 O -0.43871 0.26058 -0.51831
C48 C -0.44645 -0.10653 -0.46445
O25 O -0.41253 -0.05847 -0.47072
O26 O -0.48037 -0.15460 -0.45819
C49 C -0.32111 -0.14035 -0.19218
O27 O -0.32928 -0.14797 -0.23886
O28 O -0.31295 -0.13273 -0.14550
C50 C -0.42292 0.25183 -0.28987
O29 O -0.39700 0.20304 -0.30575
O30 O -0.44885 0.30061 -0.27398
loop_
_geom_bond_atom_site_label_1
_geom_bond_atom_site_label_2
_geom_bond_site_symmetry_1
_geom_bond_site_symmetry_2
Zn1 O1 1_555 1_555
Zn2 N1 1_555 1_555
N1 C31 1_555 1_555
N2 C38 1_555 1_555
O1 C1 1_555 1_555
O2 Zn2 1_555 1_555
O3 C8 1_555 1_555
O4 C15 1_555 1_555
O5 C15 1_555 1_555
O6 Zn1 1_555 1_555
O7 Zn2 1_555 1_555
O8 C23 1_555 1_555
O9 C30 1_555 1_555
O10 C30 1_555 1_555
C1 O2 1_555 1_555
C2 C1 1_555 1_555
C3 C2 1_555 1_555
H1 C3 1_555 1_555
C4 C3 1_555 1_555
H2 C4 1_555 1_555
C5 C4 1_555 1_555
C6 C5 1_555 1_555
H3 C6 1_555 1_555
C7 C2 1_555 1_555
H4 C7 1_555 1_555
C8 C5 1_555 1_555
C9 C8 1_555 1_555
C10 C9 1_555 1_555
H5 C10 1_555 1_555
C11 C10 1_555 1_555
H6 C11 1_555 1_555
C12 C11 1_555 1_555
C13 C12 1_555 1_555
H7 C13 1_555 1_555
C14 C9 1_555 1_555
H8 C14 1_555 1_555
C15 C12 1_555 1_555
C16 O6 1_555 1_555
C17 C16 1_555 1_555
C18 C17 1_555 1_555
H9 C18 1_555 1_555
C19 C18 1_555 1_555
H10 C19 1_555 1_555
C20 C19 1_555 1_555
C21 C20 1_555 1_555
H11 C21 1_555 1_555
C22 C17 1_555 1_555
H12 C22 1_555 1_555
C23 C20 1_555 1_555
C24 C23 1_555 1_555
C25 C24 1_555 1_555
H13 C25 1_555 1_555
C26 C25 1_555 1_555
H14 C26 1_555 1_555
C27 C26 1_555 1_555
C28 C27 1_555 1_555
H15 C28 1_555 1_555
C29 C24 1_555 1_555
H16 C29 1_555 1_555
C30 C27 1_555 1_555
C31 H17 1_555 1_555
C32 C31 1_555 1_555
H18 C32 1_555 1_555
C33 C32 1_555 1_555
C34 C33 1_555 1_555
H19 C34 1_555 1_555
C35 N1 1_555 1_555
H20 C35 1_555 1_555
C36 C33 1_555 1_555
C37 C36 1_555 1_555
H21 C37 1_555 1_555
C38 C37 1_555 1_555
H22 C38 1_555 1_555
C39 C36 1_555 1_555
H23 C39 1_555 1_555
C40 N2 1_555 1_555
H24 C40 1_555 1_555
C41 O11 1_555 1_555
O12 C41 1_555 1_555
C42 O13 1_555 1_555
O14 C42 1_555 1_555
C43 O15 1_555 1_555
O16 C43 1_555 1_555
C44 O17 1_555 1_555
O18 C44 1_555 1_555
C45 O19 1_555 1_555
O20 C45 1_555 1_555
C46 O21 1_555 1_555
O22 C46 1_555 1_555
C47 O23 1_555 1_555
O24 C47 1_555 1_555
C48 O25 1_555 1_555
O26 C48 1_555 1_555
C49 O27 1_555 1_555
O28 C49 1_555 1_555
C50 O29 1_555 1_555
O30 C50 1_555 1_555
Zn1E O9 1_555 1_555
Zn1B O4 1_555 1_555
Zn1B_2 N2 1_555 1_555
Zn2B O4 1_555 1_555
N2B Zn1 1_555 1_555
O4B Zn1 1_555 1_555
O9E Zn1 1_555 1_555
O10E Zn1 1_555 1_555
Zn2 O4B 1_555 1_555
O7 C16 1_555 1_555
O10 Zn1E 1_555 1_555
C6 C7 1_555 1_555
C13 C14 1_555 1_555
C21 C22 1_555 1_555
C28 C29 1_555 1_555
C34 C35 1_555 1_555
C39 C40 1_555 1_555

#END
