
#######################################################################
#
#                 Cambridge Crystallographic Data Centre
#                                CCDC 
#
#######################################################################
#
# If this CIF has been generated from an entry in the Cambridge 
# Structural Database, then it will include bibliographic, chemical, 
# crystal, experimental, refinement or atomic coordinate data resulting 
# from the CCDC's data processing and validation procedures.
#
#######################################################################

data_LAZLEF
_chemical_formula_moiety         '(C112 H78 Cd6 N20 O24 S6)n'
_symmetry_cell_setting           triclinic
_symmetry_space_group_name_H-M   'P -1'
_symmetry_Int_Tables_number      2
_space_group_name_Hall           '-P 1'
loop_
_symmetry_equiv_pos_site_id
_symmetry_equiv_pos_as_xyz
1 x,y,z
2 -x,-y,-z
_cell_length_a                   10.1093(12)
_cell_length_b                   13.0570(13)
_cell_length_c                   24.3590(19)
_cell_angle_alpha                85.542(2)
_cell_angle_beta                 85.314(2)
_cell_angle_gamma                80.7490(10)
_cell_volume                     3156.06
loop_
_atom_site_label
_atom_site_type_symbol
_atom_site_fract_x
_atom_site_fract_y
_atom_site_fract_z
Cd1 Cd 0.63634(5) 0.45541(4) 0.41690(2)
Cd2 Cd 0.92657(5) -0.40745(4) 0.42223(2)
Cd3 Cd 0.14842(5) 1.32131(4) 0.39271(2)
N1 N 0.7133(7) 0.0301(4) 0.2872(2)
N2 N 0.6324(6) 0.3151(4) 0.3628(2)
N3 N 0.8607(6) -0.2517(4) 0.3736(2)
N4 N 0.2647(6) 0.8585(4) 0.3054(2)
N5 N 0.5068(6) 0.5999(4) 0.3788(2)
N6 N 0.1813(6) 1.1525(4) 0.3699(2)
N7 N -0.4196(8) 0.5225(6) -0.1586(3)
N8 N -0.2923(7) 0.6448(5) -0.3153(3)
N9 N -0.6300(11) 0.2660(8) -0.1527(5)
O1 O 0.8054(4) 0.5034(3) 0.35402(19)
O2 O 1.0348(5) 0.5267(4) 0.34129(19)
O3 O 0.9773(5) 0.3581(4) 0.3311(2)
O4 O 0.9138(6) 0.4964(4) 0.2631(2)
O5 O 0.7733(5) 0.3436(4) 0.47076(19)
O6 O 0.9796(5) 0.4204(4) 0.4541(2)
O7 O 0.9902(6) 0.2389(4) 0.4621(2)
O8 O 0.9235(5) 0.3346(4) 0.54193(19)
O9 O 0.7261(5) 0.5803(4) 0.46729(18)
O10 O 0.7359(6) 0.5654(5) 0.5665(2)
O11 O 0.6794(7) 0.7280(5) 0.5220(3)
O12 O 0.5281(5) 0.6029(4) 0.5257(2)
S1 S 0.93370(18) 0.47006(14) 0.32090(7)
S2 S 0.91422(18) 0.33434(14) 0.48207(7)
S3 S 0.66436(19) 0.62207(16) 0.51987(8)
C1 C 0.5555(12) 0.0126(8) 0.0714(4)
C2 C 0.5213(14) 0.0051(9) 0.0271(4)
C3 C 0.6760(9) 0.0290(6) 0.2321(3)
C4 C 0.7687(11) -0.0064(7) 0.1914(3)
H1 H 0.8583 -0.0262 0.1990
C5 C 0.7287(13) -0.0132(8) 0.1374(4)
H2 H 0.7917 -0.0393 0.1099
C6 C 0.5976(13) 0.0186(8) 0.1258(4)
C7 C 0.5069(12) 0.0558(7) 0.1663(4)
H3 H 0.4181 0.0793 0.1586
C8 C 0.5465(10) 0.0588(7) 0.2192(3)
H4 H 0.4823 0.0821 0.2468
C9 C 0.6092(7) 0.2270(6) 0.3902(3)
H5 H 0.5759 0.2297 0.4269
C10 C 0.6317(8) 0.1319(6) 0.3673(3)
H6 H 0.6128 0.0726 0.3882
C11 C 0.6834(8) 0.1255(5) 0.3124(3)
C12 C 0.7050(8) 0.2185(5) 0.2833(3)
H7 H 0.7366 0.2189 0.2464
C13 C 0.6789(7) 0.3103(5) 0.3101(3)
H8 H 0.6946 0.3715 0.2903
C14 C 0.8035(8) -0.2482(6) 0.3263(3)
H9 H 0.7971 -0.3113 0.3122
C15 C 0.7528(8) -0.1584(5) 0.2963(3)
H10 H 0.7122 -0.1618 0.2638
C16 C 0.7632(7) -0.0628(5) 0.3156(3)
C17 C 0.8310(8) -0.0664(5) 0.3643(3)
H11 H 0.8464 -0.0051 0.3780
C18 C 0.8740(8) -0.1598(5) 0.3914(3)
H12 H 0.9150 -0.1596 0.4242
C19 C 0.0141(10) 0.7357(8) 0.1279(4)
C20 C -0.0419(11) 0.7056(9) 0.0930(4)
C21 C -0.1062(13) 0.6690(10) 0.0528(4)
C22 C -0.1632(13) 0.6383(10) 0.0178(4)
C23 C 0.0772(9) 0.7674(7) 0.1731(4)
C24 C 0.1361(9) 0.8592(7) 0.1670(4)
H13 H 0.1336 0.8990 0.1336
C25 C 0.1973(8) 0.8902(6) 0.2104(3)
H14 H 0.2371 0.9500 0.2063
C26 C 0.1985(8) 0.8309(6) 0.2600(3)
C27 C 0.1387(8) 0.7421(6) 0.2663(3)
H15 H 0.1397 0.7033 0.2999
C28 C 0.0775(8) 0.7105(7) 0.2230(3)
H16 H 0.0368 0.6511 0.2278
C29 C -0.2286(15) 0.6024(11) -0.0254(4)
C30 C -0.3665(14) 0.6095(11) -0.0230(4)
H17 H -0.4171 0.6355 0.0080
C31 C -0.4334(12) 0.5782(10) -0.0666(4)
H18 H -0.5260 0.5796 -0.0639
C32 C -0.3559(12) 0.5459(9) -0.1127(4)
C33 C -0.2189(13) 0.5372(9) -0.1159(4)
H19 H -0.1682 0.5112 -0.1468
C34 C -0.1559(13) 0.5680(10) -0.0722(5)
H20 H -0.0631 0.5651 -0.0750
C35 C 0.5321(8) 0.6330(6) 0.3267(3)
H21 H 0.6033 0.5966 0.3060
C36 C 0.4563(7) 0.7201(6) 0.3017(3)
H22 H 0.4770 0.7417 0.2652
C37 C 0.3514(7) 0.7731(5) 0.3318(3)
C38 C 0.3266(8) 0.7410(6) 0.3862(3)
H23 H 0.2580 0.7776 0.4080
C39 C 0.4054(7) 0.6536(6) 0.4079(3)
H24 H 0.3869 0.6312 0.4445
C40 C 0.2883(8) 1.0837(6) 0.3827(3)
H25 H 0.3466 1.1028 0.4063
C41 C 0.3178(8) 0.9864(6) 0.3630(3)
H26 H 0.3931 0.9412 0.3741
C42 C 0.2365(7) 0.9555(5) 0.3270(3)
C43 C 0.1234(8) 1.0268(6) 0.3137(3)
H27 H 0.0639 1.0096 0.2900
C44 C 0.0999(8) 1.1233(6) 0.3358(3)
H28 H 0.0240 1.1697 0.3265
C45 C -0.3072(9) 0.7002(7) -0.2701(4)
H29 H -0.2865 0.7674 -0.2741
C46 C -0.3512(9) 0.6638(7) -0.2185(4)
H30 H -0.3600 0.7056 -0.1887
C47 C -0.3823(9) 0.5640(7) -0.2114(3)
C48 C -0.3720(9) 0.5080(7) -0.2574(3)
H31 H -0.3951 0.4416 -0.2548
C49 C -0.3277(8) 0.5507(7) -0.3070(3)
H32 H -0.3218 0.5110 -0.3374
C50 C -0.5178(14) 0.2617(10) -0.1289(5)
H33 H -0.4828 0.1980 -0.1119
C51 C -0.4463(12) 0.3426(10) -0.1265(4)
H34 H -0.3690 0.3343 -0.1073
C52 C -0.4941(11) 0.4365(9) -0.1537(4)
C53 C -0.6126(11) 0.4433(8) -0.1797(4)
H35 H -0.6490 0.5053 -0.1980
C54 C -0.6765(12) 0.3563(10) -0.1780(4)
H36 H -0.7558 0.3620 -0.1956
Cd1A Cd 0.36366(5) -0.45541(4) -0.41690(2)
Cd1A_2 Cd 0.36366(5) 0.54459(4) 0.58310(2)
Cd1_2 Cd 0.63634(5) -0.54459(4) 0.41690(2)
Cd1A_3 Cd -0.63634(5) 1.54459(4) -0.41690(2)
Cd2A Cd 0.07343(5) 0.40745(4) -0.42223(2)
Cd2_2 Cd 0.92657(5) 0.59255(4) 0.42223(2)
Cd2A_2 Cd 1.07343(5) 0.40745(4) 0.57777(2)
Cd2A_3 Cd 0.07343(5) 0.40745(4) 0.57777(2)
Cd2A_4 Cd 1.07343(5) -0.59255(4) 0.57777(2)
Cd3A Cd -0.14842(5) 0.67869(4) -0.39271(2)
Cd3_2 Cd 1.14842(5) 0.32131(4) 0.39271(2)
Cd3A_2 Cd 0.85158(5) 0.67869(4) 0.60729(2)
Cd3_3 Cd 0.14842(5) 0.32131(4) 0.39271(2)
Cd3_4 Cd 1.14842(5) -0.67869(4) 0.39271(2)
N1A N 0.2867(7) -0.0301(4) -0.2872(2)
N2A N 0.3676(6) -0.3151(4) -0.3628(2)
N3A N 0.1393(6) 0.2517(4) -0.3736(2)
N4A N -0.2647(6) 1.1415(4) -0.3054(2)
N5A N -0.5068(6) 1.4001(4) -0.3788(2)
N5A_2 N 0.4932(6) -0.5999(4) -0.3788(2)
N6A N -0.1813(6) 0.8475(4) -0.3699(2)
N7A N 0.4196(8) 1.4775(6) 0.1586(3)
N8A N 0.2923(7) 1.3552(5) 0.3153(3)
N9A N 0.6300(11) 1.7340(8) 0.1527(5)
O1_2 O 0.8054(4) -0.4966(3) 0.35402(19)
O1A O 0.1946(4) -0.5034(3) -0.35402(19)
O1A_2 O 0.1946(4) 0.4966(3) -0.35402(19)
O2_2 O 1.0348(5) -0.4733(4) 0.34129(19)
O2A O -0.0348(5) 0.4733(4) -0.34129(19)
O3_2 O 0.9773(5) -0.6419(4) 0.3311(2)
O3_3 O -0.0227(5) 1.3581(4) 0.3311(2)
O3A O 0.0227(5) 0.6419(4) -0.3311(2)
O4_2 O 0.9138(6) -0.5036(4) 0.2631(2)
O5_2 O 0.7733(5) -0.6564(4) 0.47076(19)
O5A O 0.2267(5) -0.3436(4) -0.47076(19)
O6_2 O 0.9796(5) -0.5796(4) 0.4541(2)
O6_3 O -0.0204(5) 1.4204(4) 0.4541(2)
O6A O 0.0204(5) 0.5796(4) -0.4541(2)
O7_2 O 0.9902(6) -0.7611(4) 0.4621(2)
O7_3 O -0.0098(6) 1.2389(4) 0.4621(2)
O7A O 0.0098(6) 0.7611(4) -0.4621(2)
O8_2 O 0.9235(5) -0.6654(4) 0.54193(19)
O8A O 1.0765(5) -0.3346(4) 0.45807(19)
O8_3 O -0.0765(5) 0.3346(4) -0.45807(19)
O9A O 0.2739(5) 0.4197(4) 0.53271(18)
O9_2 O 0.7261(5) -0.4197(4) 0.46729(18)
O9A_2 O 0.2739(5) -0.5803(4) -0.46729(18)
O9A_3 O 0.2739(5) 0.4197(4) -0.46729(18)
O10A O 0.2641(6) 0.4346(5) 0.4335(2)
O10A_2 O 0.2641(6) 1.4346(5) 0.4335(2)
O10_2 O -0.2641(6) 0.5654(5) -0.4335(2)
O11A O 0.3206(7) 0.2720(5) 0.4780(3)
O12A O 0.4719(5) 0.3971(4) 0.4743(2)
O12_2 O 0.5281(5) -0.3971(4) -0.4743(2)
S1_2 S 0.93370(18) -0.52994(14) 0.32090(7)
S2_2 S 0.91422(18) -0.66566(14) 0.48207(7)
S3A S 0.33564(19) 0.37793(16) 0.48013(8)
C1A C 0.4445(12) -0.0126(8) -0.0714(4)
C2A C 0.4787(14) -0.0051(9) -0.0271(4)
C3A C 0.3240(9) -0.0290(6) -0.2321(3)
C4A C 0.2313(11) 0.0064(7) -0.1914(3)
H1A H 0.1417 0.0262 -0.1990
C5A C 0.2713(13) 0.0132(8) -0.1374(4)
H2A H 0.2083 0.0393 -0.1099
C6A C 0.4024(13) -0.0186(8) -0.1258(4)
C7A C 0.4931(12) -0.0558(7) -0.1663(4)
H3A H 0.5819 -0.0793 -0.1586
C8A C 0.4535(10) -0.0588(7) -0.2192(3)
H4A H 0.5177 -0.0821 -0.2468
C9A C 0.3908(7) -0.2270(6) -0.3902(3)
H5A H 0.4241 -0.2297 -0.4269
C10A C 0.3683(8) -0.1319(6) -0.3673(3)
H6A H 0.3872 -0.0726 -0.3882
C11A C 0.3166(8) -0.1255(5) -0.3124(3)
C12A C 0.2950(8) -0.2185(5) -0.2833(3)
H7A H 0.2634 -0.2189 -0.2464
C13A C 0.3211(7) -0.3103(5) -0.3101(3)
H8A H 0.3054 -0.3715 -0.2903
C14A C 0.1965(8) 0.2482(6) -0.3263(3)
H9A H 0.2029 0.3113 -0.3122
C15A C 0.2472(8) 0.1584(5) -0.2963(3)
H10A H 0.2878 0.1618 -0.2638
C16A C 0.2368(7) 0.0628(5) -0.3156(3)
C17A C 0.1690(8) 0.0664(5) -0.3643(3)
H11A H 0.1536 0.0051 -0.3780
C18A C 0.1260(8) 0.1598(5) -0.3914(3)
H12A H 0.0850 0.1596 -0.4242
C19A C -0.0141(10) 1.2643(8) -0.1279(4)
C20A C 0.0419(11) 1.2944(9) -0.0930(4)
C21A C 0.1062(13) 1.3310(10) -0.0528(4)
C22A C 0.1632(13) 1.3617(10) -0.0178(4)
C23A C -0.0772(9) 1.2326(7) -0.1731(4)
C24A C -0.1361(9) 1.1408(7) -0.1670(4)
H13A H -0.1336 1.1010 -0.1336
C25A C -0.1973(8) 1.1098(6) -0.2104(3)
H14A H -0.2371 1.0500 -0.2063
C26A C -0.1985(8) 1.1691(6) -0.2600(3)
C27A C -0.1387(8) 1.2579(6) -0.2663(3)
H15A H -0.1397 1.2967 -0.2999
C28A C -0.0775(8) 1.2895(7) -0.2230(3)
H16A H -0.0368 1.3489 -0.2278
C29A C 0.2286(15) 1.3976(11) 0.0254(4)
C30A C 0.3665(14) 1.3905(11) 0.0230(4)
H17A H 0.4171 1.3645 -0.0080
C31A C 0.4334(12) 1.4218(10) 0.0666(4)
H18A H 0.5260 1.4204 0.0639
C32A C 0.3559(12) 1.4541(9) 0.1127(4)
C33A C 0.2189(13) 1.4628(9) 0.1159(4)
H19A H 0.1682 1.4888 0.1468
C34A C 0.1559(13) 1.4320(10) 0.0722(5)
H20A H 0.0631 1.4349 0.0750
C35A C -0.5321(8) 1.3670(6) -0.3267(3)
H21A H -0.6033 1.4034 -0.3060
C36A C -0.4563(7) 1.2799(6) -0.3017(3)
H22A H -0.4770 1.2583 -0.2652
C37A C -0.3514(7) 1.2269(5) -0.3318(3)
C38A C -0.3266(8) 1.2590(6) -0.3862(3)
H23A H -0.2580 1.2224 -0.4080
C39A C -0.4054(7) 1.3464(6) -0.4079(3)
H24A H -0.3869 1.3688 -0.4445
C40A C -0.2883(8) 0.9163(6) -0.3827(3)
H25A H -0.3466 0.8972 -0.4063
C41A C -0.3178(8) 1.0136(6) -0.3630(3)
H26A H -0.3931 1.0588 -0.3741
C42A C -0.2365(7) 1.0445(5) -0.3270(3)
C43A C -0.1234(8) 0.9732(6) -0.3137(3)
H27A H -0.0639 0.9904 -0.2900
C44A C -0.0999(8) 0.8767(6) -0.3358(3)
H28A H -0.0240 0.8303 -0.3265
C45A C 0.3072(9) 1.2998(7) 0.2701(4)
H29A H 0.2865 1.2326 0.2741
C46A C 0.3512(9) 1.3362(7) 0.2185(4)
H30A H 0.3600 1.2944 0.1887
C47A C 0.3823(9) 1.4360(7) 0.2114(3)
C48A C 0.3720(9) 1.4920(7) 0.2574(3)
H31A H 0.3951 1.5584 0.2548
C49A C 0.3277(8) 1.4493(7) 0.3070(3)
H32A H 0.3218 1.4890 0.3374
C50A C 0.5178(14) 1.7383(10) 0.1289(5)
H33A H 0.4828 1.8020 0.1119
C51A C 0.4463(12) 1.6574(10) 0.1265(4)
H34A H 0.3690 1.6657 0.1073
C52A C 0.4941(11) 1.5635(9) 0.1537(4)
C53A C 0.6126(11) 1.5567(8) 0.1797(4)
H35A H 0.6490 1.4947 0.1980
C54A C 0.6765(12) 1.6437(10) 0.1780(4)
H36A H 0.7558 1.6380 0.1956
N10 N 1.162(3) 0.1533(17) 0.1601(10)
C55 C 1.077(4) 0.207(3) 0.1838(13)
C56 C 0.983(3) 0.304(2) 0.2013(11)
H37 H 1.0310 0.3615 0.1994
H38 H 0.9464 0.2914 0.2385
H39 H 0.9105 0.3190 0.1772
N11 N 0.962(2) 0.0290(14) 0.4701(7)
C57 C 0.853(3) 0.0663(16) 0.4831(9)
C58 C 0.719(3) 0.1139(18) 0.5020(9)
H40 H 0.7179 0.1294 0.5399
H41 H 0.6564 0.0667 0.4987
H42 H 0.6928 0.1769 0.4799
loop_
_geom_bond_atom_site_label_1
_geom_bond_atom_site_label_2
_geom_bond_site_symmetry_1
_geom_bond_site_symmetry_2
Cd1 N2 1_555 1_555
Cd2 N3 1_555 1_555
Cd3 N6 1_555 1_555
N1 C3 1_555 1_555
N2 C9 1_555 1_555
N3 C14 1_555 1_555
N4 C26 1_555 1_555
N5 Cd1 1_555 1_555
N6 C40 1_555 1_555
N7 C32 1_555 1_555
N8 C45 1_555 1_555
N9 C50 1_555 1_555
N10 C55 1_555 1_555
N11 C57 1_555 1_555
O1 Cd1 1_555 1_555
O2 S1 1_555 1_555
O3 S1 1_555 1_555
O4 S1 1_555 1_555
O5 Cd1 1_555 1_555
O6 S2 1_555 1_555
O7 S2 1_555 1_555
O8 S2 1_555 1_555
O9 Cd1 1_555 1_555
O10 S3 1_555 1_555
O11 S3 1_555 1_555
O12 S3 1_555 1_555
S1 O1 1_555 1_555
S2 O5 1_555 1_555
S3 O9 1_555 1_555
C1 C2 1_555 1_555
C2 C2A 1_555 1_555
C3 C4 1_555 1_555
C4 H1 1_555 1_555
C5 C4 1_555 1_555
H2 C5 1_555 1_555
C6 C1 1_555 1_555
C7 C6 1_555 1_555
H3 C7 1_555 1_555
C8 C3 1_555 1_555
H4 C8 1_555 1_555
C9 H5 1_555 1_555
C10 C9 1_555 1_555
H6 C10 1_555 1_555
C11 N1 1_555 1_555
C12 C11 1_555 1_555
H7 C12 1_555 1_555
C13 N2 1_555 1_555
H8 C13 1_555 1_555
C14 H9 1_555 1_555
C15 C14 1_555 1_555
H10 C15 1_555 1_555
C16 N1 1_555 1_555
C17 C16 1_555 1_555
H11 C17 1_555 1_555
C18 N3 1_555 1_555
H12 C18 1_555 1_555
C19 C20 1_555 1_555
C20 C21 1_555 1_555
C21 C22 1_555 1_555
C22 C29 1_555 1_555
C23 C19 1_555 1_555
C24 C23 1_555 1_555
H13 C24 1_555 1_555
C25 C24 1_555 1_555
H14 C25 1_555 1_555
C26 C25 1_555 1_555
C27 C26 1_555 1_555
H15 C27 1_555 1_555
C28 C23 1_555 1_555
H16 C28 1_555 1_555
C29 C30 1_555 1_555
C30 H17 1_555 1_555
C31 C30 1_555 1_555
H18 C31 1_555 1_555
C32 C31 1_555 1_555
C33 C32 1_555 1_555
H19 C33 1_555 1_555
C34 C29 1_555 1_555
H20 C34 1_555 1_555
C35 N5 1_555 1_555
H21 C35 1_555 1_555
C36 C35 1_555 1_555
H22 C36 1_555 1_555
C37 N4 1_555 1_555
C38 C37 1_555 1_555
H23 C38 1_555 1_555
C39 N5 1_555 1_555
H24 C39 1_555 1_555
C40 H25 1_555 1_555
C41 C40 1_555 1_555
H26 C41 1_555 1_555
C42 N4 1_555 1_555
C43 C42 1_555 1_555
H27 C43 1_555 1_555
C44 N6 1_555 1_555
H28 C44 1_555 1_555
C45 H29 1_555 1_555
C46 C45 1_555 1_555
H30 C46 1_555 1_555
C47 N7 1_555 1_555
C48 C47 1_555 1_555
H31 C48 1_555 1_555
C49 N8 1_555 1_555
H32 C49 1_555 1_555
C50 H33 1_555 1_555
C51 C50 1_555 1_555
H34 C51 1_555 1_555
C52 N7 1_555 1_555
C53 C52 1_555 1_555
H35 C53 1_555 1_555
C54 N9 1_555 1_555
H36 C54 1_555 1_555
C55 C56 1_555 1_555
C56 H37 1_555 1_555
H38 C56 1_555 1_555
H39 C56 1_555 1_555
C57 C58 1_555 1_555
C58 H40 1_555 1_555
H41 C58 1_555 1_555
H42 C58 1_555 1_555
Cd1A N2A 1_555 1_555
Cd1A_2 O12 1_555 1_555
Cd1_2 O1_2 1_555 1_555
Cd1A_3 N5A 1_555 1_555
Cd2A N3A 1_555 1_555
Cd2_2 O1 1_555 1_555
Cd2A_2 O8 1_555 1_555
Cd2A_3 O9A 1_555 1_555
Cd2A_4 O8_2 1_555 1_555
Cd3A N8 1_555 1_555
Cd3_2 O3 1_555 1_555
Cd3A_2 O10 1_555 1_555
Cd3_3 O10A 1_555 1_555
Cd3_4 O3_2 1_555 1_555
N1A C3A 1_555 1_555
N2A C9A 1_555 1_555
N3A C14A 1_555 1_555
N4A C26A 1_555 1_555
N5A C35A 1_555 1_555
N5A_2 Cd1A 1_555 1_555
N6A Cd3A 1_555 1_555
N7A C32A 1_555 1_555
N8A Cd3 1_555 1_555
N9A C50A 1_555 1_555
O1_2 Cd2 1_555 1_555
O1A Cd1A 1_555 1_555
O1A_2 Cd2A 1_555 1_555
O2_2 Cd2 1_555 1_555
O2A Cd2A 1_555 1_555
O3_2 S1_2 1_555 1_555
O3_3 Cd3 1_555 1_555
O3A Cd3A 1_555 1_555
O4_2 S1_2 1_555 1_555
O5_2 Cd1_2 1_555 1_555
O5A Cd1A 1_555 1_555
O6_2 Cd2 1_555 1_555
O6_3 Cd3 1_555 1_555
O6A Cd2A 1_555 1_555
O7_2 Cd3_4 1_555 1_555
O7_3 Cd3 1_555 1_555
O7A Cd3A 1_555 1_555
O8_2 S2_2 1_555 1_555
O8A Cd2 1_555 1_555
O8_3 Cd2A 1_555 1_555
O9A Cd1A_2 1_555 1_555
O9_2 Cd2 1_555 1_555
O9A_2 Cd1A 1_555 1_555
O9A_3 Cd2A 1_555 1_555
O10A S3A 1_555 1_555
O10A_2 Cd3 1_555 1_555
O10_2 Cd3A 1_555 1_555
O11A S3A 1_555 1_555
O12A Cd1 1_555 1_555
O12_2 Cd1A 1_555 1_555
S1_2 O1_2 1_555 1_555
S2_2 O5_2 1_555 1_555
S3A O9A 1_555 1_555
C1A C2A 1_555 1_555
C3A C4A 1_555 1_555
C4A H1A 1_555 1_555
C5A C4A 1_555 1_555
H2A C5A 1_555 1_555
C6A C1A 1_555 1_555
C7A C6A 1_555 1_555
H3A C7A 1_555 1_555
C8A C3A 1_555 1_555
H4A C8A 1_555 1_555
C9A H5A 1_555 1_555
C10A C9A 1_555 1_555
H6A C10A 1_555 1_555
C11A N1A 1_555 1_555
C12A C11A 1_555 1_555
H7A C12A 1_555 1_555
C13A N2A 1_555 1_555
H8A C13A 1_555 1_555
C14A H9A 1_555 1_555
C15A C14A 1_555 1_555
H10A C15A 1_555 1_555
C16A N1A 1_555 1_555
C17A C16A 1_555 1_555
H11A C17A 1_555 1_555
C18A N3A 1_555 1_555
H12A C18A 1_555 1_555
C19A C20A 1_555 1_555
C20A C21A 1_555 1_555
C21A C22A 1_555 1_555
C22A C29A 1_555 1_555
C23A C19A 1_555 1_555
C24A C23A 1_555 1_555
H13A C24A 1_555 1_555
C25A C24A 1_555 1_555
H14A C25A 1_555 1_555
C26A C25A 1_555 1_555
C27A C26A 1_555 1_555
H15A C27A 1_555 1_555
C28A C23A 1_555 1_555
H16A C28A 1_555 1_555
C29A C30A 1_555 1_555
C30A H17A 1_555 1_555
C31A C30A 1_555 1_555
H18A C31A 1_555 1_555
C32A C31A 1_555 1_555
C33A C32A 1_555 1_555
H19A C33A 1_555 1_555
C34A C29A 1_555 1_555
H20A C34A 1_555 1_555
C35A H21A 1_555 1_555
C36A C35A 1_555 1_555
H22A C36A 1_555 1_555
C37A N4A 1_555 1_555
C38A C37A 1_555 1_555
H23A C38A 1_555 1_555
C39A N5A 1_555 1_555
H24A C39A 1_555 1_555
C40A N6A 1_555 1_555
H25A C40A 1_555 1_555
C41A C40A 1_555 1_555
H26A C41A 1_555 1_555
C42A N4A 1_555 1_555
C43A C42A 1_555 1_555
H27A C43A 1_555 1_555
C44A N6A 1_555 1_555
H28A C44A 1_555 1_555
C45A N8A 1_555 1_555
H29A C45A 1_555 1_555
C46A C45A 1_555 1_555
H30A C46A 1_555 1_555
C47A N7A 1_555 1_555
C48A C47A 1_555 1_555
H31A C48A 1_555 1_555
C49A N8A 1_555 1_555
H32A C49A 1_555 1_555
C50A H33A 1_555 1_555
C51A C50A 1_555 1_555
H34A C51A 1_555 1_555
C52A N7A 1_555 1_555
C53A C52A 1_555 1_555
H35A C53A 1_555 1_555
C54A N9A 1_555 1_555
H36A C54A 1_555 1_555
O2 Cd2_2 1_555 1_555
O6 Cd2_2 1_555 1_555
O6 Cd3_2 1_555 1_555
O7 Cd3_2 1_555 1_555
O9 Cd2_2 1_555 1_555
C5 C6 1_555 1_555
C7 C8 1_555 1_555
C10 C11 1_555 1_555
C12 C13 1_555 1_555
C15 C16 1_555 1_555
C17 C18 1_555 1_555
C27 C28 1_555 1_555
C33 C34 1_555 1_555
C36 C37 1_555 1_555
C38 C39 1_555 1_555
C41 C42 1_555 1_555
C43 C44 1_555 1_555
C46 C47 1_555 1_555
C48 C49 1_555 1_555
C51 C52 1_555 1_555
C53 C54 1_555 1_555
Cd1_2 O9_2 1_555 1_555
Cd3A O6A 1_555 1_555
Cd3_4 O6_2 1_555 1_555
O2_2 S1_2 1_555 1_555
O6_2 S2_2 1_555 1_555
O7_2 S2_2 1_555 1_555
O12A S3A 1_555 1_555
C5A C6A 1_555 1_555
C7A C8A 1_555 1_555
C10A C11A 1_555 1_555
C12A C13A 1_555 1_555
C15A C16A 1_555 1_555
C17A C18A 1_555 1_555
C27A C28A 1_555 1_555
C33A C34A 1_555 1_555
C36A C37A 1_555 1_555
C38A C39A 1_555 1_555
C41A C42A 1_555 1_555
C43A C44A 1_555 1_555
C46A C47A 1_555 1_555
C48A C49A 1_555 1_555
C51A C52A 1_555 1_555
C53A C54A 1_555 1_555

#END
