
#######################################################################
#
#                 Cambridge Crystallographic Data Centre
#                                CCDC 
#
#######################################################################
#
# If this CIF has been generated from an entry in the Cambridge 
# Structural Database, then it will include bibliographic, chemical, 
# crystal, experimental, refinement or atomic coordinate data resulting 
# from the CCDC's data processing and validation procedures.
#
#######################################################################

data_QASYUH
_chemical_formula_moiety         '(C18 H10 N4 O8 Zn3)n'
_symmetry_cell_setting           monoclinic
_symmetry_space_group_name_H-M   'C 2/c'
_symmetry_Int_Tables_number      15
_space_group_name_Hall           '-C 2yc'
loop_
_symmetry_equiv_pos_site_id
_symmetry_equiv_pos_as_xyz
1 x,y,z
2 -x,y,1/2-z
3 1/2+x,1/2+y,z
4 1/2-x,1/2+y,1/2-z
5 -x,-y,-z
6 x,-y,1/2+z
7 1/2-x,1/2-y,-z
8 1/2+x,1/2-y,1/2+z
_cell_length_a                   20.532(3)
_cell_length_b                   9.1180(15)
_cell_length_c                   16.593(3)
_cell_angle_alpha                90
_cell_angle_beta                 109.109(4)
_cell_angle_gamma                90
_cell_volume                     2935.22
loop_
_atom_site_label
_atom_site_type_symbol
_atom_site_fract_x
_atom_site_fract_y
_atom_site_fract_z
_atom_site_U_iso_or_equiv
_atom_site_thermal_displace_type
C1 C 0.1123(2) 0.3482(6) -0.1039(3) 0.0202 Uani
C2 C 0.1302(2) 0.4239(6) -0.0202(3) 0.0212 Uani
C3 C 0.0850(3) 0.5280(6) -0.0059(3) 0.0252 Uani
H1 H 0.0442 0.5486 -0.0497 0.0300 Uiso
C4 C 0.0988(3) 0.6010(6) 0.0706(3) 0.0277 Uani
H2 H 0.0685 0.6702 0.0792 0.0330 Uiso
C5 C 0.1605(3) 0.5661(6) 0.1349(3) 0.0218 Uani
C6 C 0.2050(2) 0.4587(5) 0.1218(3) 0.0191 Uani
C7 C 0.1912(2) 0.3893(5) 0.0437(3) 0.0196 Uani
H3 H 0.2219 0.3218 0.0344 0.0240 Uiso
C8 C 0.2460(3) 0.5376(6) 0.2512(3) 0.0229 Uani
C9 C 0.2922(3) 0.5576(7) 0.3418(3) 0.0320 Uani
H4 H 0.3216 0.6425 0.3458 0.0390 Uiso
H5 H 0.2647 0.5737 0.3786 0.0390 Uiso
N1 N 0.1876(2) 0.6166(5) 0.2177(3) 0.0219 Uani
N2 N 0.2596(2) 0.4427(5) 0.1983(3) 0.0218 Uani
O1 O 0.0527(2) 0.3698(5) -0.1556(3) 0.0384 Uani
O2 O 0.15759(19) 0.2714(5) -0.1202(2) 0.0269 Uani
O3 O 0.06743(19) 0.1301(5) -0.2799(3) 0.0311 Uani
O4 O 0.3328(3) 0.4311(6) 0.3677(3) 0.0464 Uani
Zn1 Zn 0.16166(3) 0.19813(6) -0.23465(3) 0.0179 Uani
Zn2 Zn 0.0000 0.24214(10) -0.2500 0.0230 Uani
C1A C -0.1123(2) 0.3482(6) -0.3961(3) 0.0202 Uani
C2A C -0.1302(2) 0.4239(6) -0.4798(3) 0.0212 Uani
C3A C -0.0850(3) 0.5280(6) -0.4941(3) 0.0252 Uani
H1A H -0.0442 0.5486 -0.4503 0.0300 Uiso
C4A C -0.0988(3) 0.6010(6) -0.5706(3) 0.0277 Uani
H2A H -0.0685 0.6702 -0.5792 0.0330 Uiso
C5A C -0.1605(3) 0.5661(6) -0.6349(3) 0.0218 Uani
C6A C -0.2050(2) 0.4587(5) -0.6218(3) 0.0191 Uani
C7A C -0.1912(2) 0.3893(5) -0.5437(3) 0.0196 Uani
H3A H -0.2219 0.3218 -0.5344 0.0240 Uiso
C8A C -0.2460(3) 0.5376(6) -0.7512(3) 0.0229 Uani
C9A C -0.2922(3) 0.5576(7) -0.8418(3) 0.0320 Uani
H4A H -0.3216 0.6425 -0.8458 0.0390 Uiso
H5A H -0.2647 0.5737 -0.8786 0.0390 Uiso
N1A N -0.1876(2) 0.6166(5) -0.7177(3) 0.0219 Uani
N2A N -0.2596(2) 0.4427(5) -0.6983(3) 0.0218 Uani
O1A O -0.0527(2) 0.3698(5) -0.3444(3) 0.0384 Uani
O2A O -0.15759(19) 0.2714(5) -0.3798(2) 0.0269 Uani
O3A O -0.06743(19) 0.1301(5) -0.2201(3) 0.0311 Uani
O4A O -0.3328(3) 0.4311(6) -0.8677(3) 0.0464 Uani
Zn1A Zn -0.16166(3) 0.19813(6) -0.26535(3) 0.0179 Uani
N1D N -0.1876(2) 0.3834(5) -0.2177(3) 0.0219 Uani
N1E N 0.1876(2) 0.3834(5) -0.2823(3) 0.0219 Uani
N2F N 0.2404(2) 0.0573(5) -0.1983(3) 0.0218 Uani
N2G N -0.2404(2) 0.0573(5) -0.3017(3) 0.0218 Uani
O4F O 0.1672(3) 0.0689(6) -0.3677(3) 0.0464 Uani
O4G O -0.1672(3) 0.0689(6) -0.1323(3) 0.0464 Uani
Zn1D Zn -0.16166(3) 0.80187(6) -0.76535(3) 0.0179 Uani
Zn1E Zn 0.16166(3) 0.80187(6) 0.26535(3) 0.0179 Uani
Zn1F Zn 0.33834(3) 0.30187(6) 0.23465(3) 0.0179 Uani
Zn1G Zn -0.33834(3) 0.30187(6) -0.73465(3) 0.0179 Uani
loop_
_atom_site_aniso_label
_atom_site_aniso_U_11
_atom_site_aniso_U_22
_atom_site_aniso_U_33
_atom_site_aniso_U_23
_atom_site_aniso_U_13
_atom_site_aniso_U_12
C1 0.018(2) 0.026(2) 0.013(2) 0.0025(17) 0.0000(16) 0.0007(18)
C2 0.021(2) 0.026(2) 0.015(2) -0.0038(17) 0.0038(17) 0.0017(18)
C3 0.020(2) 0.030(3) 0.021(2) -0.0033(19) 0.0003(18) 0.0064(19)
C4 0.025(2) 0.032(3) 0.022(2) -0.003(2) 0.002(2) 0.009(2)
C5 0.024(2) 0.022(2) 0.017(2) -0.0021(17) 0.0036(18) 0.0018(18)
C6 0.017(2) 0.023(2) 0.015(2) 0.0040(17) 0.0021(16) 0.0025(17)
C7 0.017(2) 0.023(2) 0.017(2) -0.0007(17) 0.0030(17) 0.0036(17)
C8 0.023(2) 0.023(2) 0.020(2) -0.0015(18) 0.0034(18) 0.0031(19)
C9 0.034(3) 0.034(3) 0.022(2) -0.006(2) 0.001(2) 0.009(2)
N1 0.0218(19) 0.020(2) 0.0211(19) -0.0020(15) 0.0032(16) 0.0045(15)
N2 0.0210(19) 0.026(2) 0.0147(18) -0.0039(15) 0.0010(15) 0.0049(16)
O1 0.0233(19) 0.050(3) 0.029(2) -0.0157(19) -0.0091(16) 0.0081(18)
O2 0.0200(17) 0.040(2) 0.0169(17) -0.0057(15) 0.0008(14) 0.0049(15)
O3 0.0184(17) 0.041(2) 0.034(2) -0.0138(18) 0.0087(15) -0.0044(16)
O4 0.048(3) 0.047(3) 0.033(2) -0.003(2) -0.002(2) 0.024(2)
Zn1 0.0153(3) 0.0194(3) 0.0175(3) 0.00226(19) 0.0034(2) 0.00098(18)
Zn2 0.0147(4) 0.0337(5) 0.0179(4) 0.000 0.0015(3) 0.000
C1A 0.018 0.026 0.013 -0.0025 0 -0.0007
C2A 0.021 0.026 0.015 0.0038 0.0038 -0.0017
C3A 0.02 0.03 0.021 0.0033 0.0003 -0.0064
C4A 0.025 0.032 0.022 0.003 0.002 -0.009
C5A 0.024 0.022 0.017 0.0021 0.0036 -0.0018
C6A 0.017 0.023 0.015 -0.004 0.0021 -0.0025
C7A 0.017 0.023 0.017 0.0007 0.003 -0.0036
C8A 0.023 0.023 0.02 0.0015 0.0034 -0.0031
C9A 0.034 0.034 0.022 0.006 0.001 -0.009
N1A 0.0218 0.02 0.0211 0.002 0.0032 -0.0045
N2A 0.021 0.026 0.0147 0.0039 0.001 -0.0049
O1A 0.0233 0.05 0.029 0.0157 -0.0091 -0.0081
O2A 0.02 0.04 0.0169 0.0057 0.0008 -0.0049
O3A 0.0184 0.041 0.034 0.0138 0.0087 0.0044
O4A 0.048 0.047 0.033 0.003 -0.002 -0.024
Zn1A 0.0153 0.0194 0.0175 -0.00226 0.0034 -0.00098
N1D 0.0218 0.02 0.0211 -0.002 0.0032 0.0045
N1E 0.0218 0.02 0.0211 0.002 0.0032 -0.0045
N2F 0.021 0.026 0.0147 -0.0039 0.001 0.0049
N2G 0.021 0.026 0.0147 0.0039 0.001 -0.0049
O4F 0.048 0.047 0.033 -0.003 -0.002 0.024
O4G 0.048 0.047 0.033 0.003 -0.002 -0.024
Zn1D 0.0153 0.0194 0.0175 0.00226 0.0034 0.00098
Zn1E 0.0153 0.0194 0.0175 -0.00226 0.0034 -0.00098
Zn1F 0.0153 0.0194 0.0175 0.00226 0.0034 0.00098
Zn1G 0.0153 0.0194 0.0175 -0.00226 0.0034 -0.00098
loop_
_geom_bond_atom_site_label_1
_geom_bond_atom_site_label_2
_geom_bond_site_symmetry_1
_geom_bond_site_symmetry_2
C1 C2 1_555 1_555
C2 C3 1_555 1_555
C3 H1 1_555 1_555
C4 C3 1_555 1_555
H2 C4 1_555 1_555
C5 C4 1_555 1_555
C6 C5 1_555 1_555
C7 C2 1_555 1_555
H3 C7 1_555 1_555
C8 C9 1_555 1_555
C9 H4 1_555 1_555
H5 C9 1_555 1_555
N1 C5 1_555 1_555
N2 C6 1_555 1_555
O1 C1 1_555 1_555
O2 C1 1_555 1_555
O3 Zn1 1_555 1_555
O4 C9 1_555 1_555
Zn1 O2 1_555 1_555
Zn2 O1 1_555 1_555
C1A C2A 1_555 1_555
C2A C3A 1_555 1_555
C3A H1A 1_555 1_555
C4A C3A 1_555 1_555
H2A C4A 1_555 1_555
C5A C4A 1_555 1_555
C6A C5A 1_555 1_555
C7A C2A 1_555 1_555
H3A C7A 1_555 1_555
C8A C9A 1_555 1_555
C9A H4A 1_555 1_555
H5A C9A 1_555 1_555
N1A C5A 1_555 1_555
N2A C6A 1_555 1_555
O1A Zn2 1_555 1_555
O2A C1A 1_555 1_555
O3A Zn2 1_555 1_555
O4A C9A 1_555 1_555
Zn1A O2A 1_555 1_555
N1D Zn1A 1_555 1_555
N1E Zn1 1_555 1_555
N2F Zn1 1_555 1_555
N2G Zn1A 1_555 1_555
O4F Zn1 1_555 1_555
O4G Zn1A 1_555 1_555
Zn1D N1A 1_555 1_555
Zn1E N1 1_555 1_555
Zn1F N2 1_555 1_555
Zn1G N2A 1_555 1_555
C6 C7 1_555 1_555
C8 N1 1_555 1_555
C8 N2 1_555 1_555
O3 Zn2 1_555 1_555
O4 Zn1F 1_555 1_555
C1A O1A 1_555 1_555
C6A C7A 1_555 1_555
C8A N1A 1_555 1_555
C8A N2A 1_555 1_555
O3A Zn1A 1_555 1_555
O4A Zn1G 1_555 1_555

#END
