
#######################################################################
#
#                 Cambridge Crystallographic Data Centre
#                                CCDC 
#
#######################################################################
#
# If this CIF has been generated from an entry in the Cambridge 
# Structural Database, then it will include bibliographic, chemical, 
# crystal, experimental, refinement or atomic coordinate data resulting 
# from the CCDC's data processing and validation procedures.
#
#######################################################################

data_KEBRAM
_chemical_formula_moiety         'C32 N11 O12 Zn7'
_symmetry_cell_setting           tetragonal
_symmetry_space_group_name_H-M   'P 4/m m m'
_symmetry_Int_Tables_number      123
_space_group_name_Hall           '-P 4 2'
loop_
_symmetry_equiv_pos_site_id
_symmetry_equiv_pos_as_xyz
1 x,y,z
2 -y,x,z
3 y,-x,z
4 y,x,-z
5 x,-y,-z
6 -y,-x,-z
7 -x,y,-z
8 -x,-y,z
9 -x,-y,-z
10 y,-x,-z
11 -y,x,-z
12 -y,-x,z
13 -x,y,z
14 y,x,z
15 x,-y,z
16 x,y,-z
_cell_length_a                   10.9681(9)
_cell_length_b                   10.9681(9)
_cell_length_c                   9.7190(10)
_cell_angle_alpha                90
_cell_angle_beta                 90
_cell_angle_gamma                90
_cell_volume                     1169.19
loop_
_atom_site_label
_atom_site_type_symbol
_atom_site_fract_x
_atom_site_fract_y
_atom_site_fract_z
Zn1 Zn 1.0000 0.0000 0.15216(11)
O1 O 1.0000 0.1825(4) 0.1147(5)
N1 N 1.0000 0.390(3) 0.264(3)
N2 N 1.0000 -0.0000 0.3652(9)
C1 C 1.0000 0.2357(7) 0.0000
C2 C 1.0000 0.3717(7) 0.0000
C3 C 1.0000 0.4369(6) 0.1222(8)
C4 C 0.956(2) 0.1145(18) 0.4184(12)
Zn1O Zn 1.0000 0.0000 -0.15216(11)
Zn1_2 Zn 1.0000 1.0000 0.15216(11)
Zn1O_2 Zn 1.0000 1.0000 -0.15216(11)
Zn1O_3 Zn 1.0000 0.0000 0.84784(11)
Zn1_3 Zn 0.0000 0.0000 0.15216(11)
Zn1O_4 Zn 0.0000 0.0000 -0.15216(11)
O1O O 1.0000 0.1825(4) -0.1147(5)
O1N O 1.0000 0.8175(4) 0.1147(5)
O1H O 1.0000 0.8175(4) -0.1147(5)
O1A O 0.8175(4) 0.0000 0.1147(5)
O1J O 0.8175(4) 0.0000 -0.1147(5)
O1B O 0.1825(4) 0.0000 0.1147(5)
O1C O 0.1825(4) 0.0000 -0.1147(5)
O1B_2 O 1.1825(4) 0.0000 0.1147(5)
O1N_2 O 1.0000 -0.1825(4) 0.1147(5)
O1C_2 O 1.1825(4) 0.0000 -0.1147(5)
O1H_2 O 1.0000 -0.1825(4) -0.1147(5)
N1N N 1.0000 0.610(3) 0.264(3)
N1H N 1.0000 0.610(3) -0.264(3)
N1O N 1.0000 0.390(3) -0.264(3)
N1A N 0.610(3) 0.0000 0.264(3)
N1B N 0.390(3) 0.0000 0.264(3)
N1C N 0.390(3) 0.0000 -0.264(3)
N1J N 0.610(3) 0.0000 -0.264(3)
N2O N 1.0000 0.0000 0.6348(9)
N2O_2 N 1.0000 0.0000 -0.3652(9)
C1N C 1.0000 0.7643(7) 0.0000
C1A C 0.7643(7) 0.0000 0.0000
C1B C 0.2357(7) 0.0000 0.0000
C2N C 1.0000 0.6283(7) 0.0000
C2A C 0.6283(7) 0.0000 0.0000
C2B C 0.3717(7) 0.0000 0.0000
C3N C 1.0000 0.5631(6) 0.1222(8)
C3H C 1.0000 0.5631(6) -0.1222(8)
C3O C 1.0000 0.4369(6) -0.1222(8)
C3A C 0.5631(6) 0.0000 0.1222(8)
C3B C 0.4369(6) 0.0000 0.1222(8)
C3C C 0.4369(6) -0.0000 -0.1222(8)
C3J C 0.5631(6) -0.0000 -0.1222(8)
C4L C 1.044(2) 0.1145(18) 0.4184(12)
C4A C 0.8855(18) -0.044(2) 0.4184(12)
C4K C 0.8855(18) 0.044(2) 0.4184(12)
C4B C 1.1145(18) 0.044(2) 0.4184(12)
C4M C 1.1145(18) -0.044(2) 0.4184(12)
C4N C 0.956(2) -0.1145(18) 0.4184(12)
C4G C 1.044(2) -0.1145(18) 0.4184(12)
C4D C 0.956(2) -0.1145(18) 0.5816(12)
C4E C 0.8855(18) 0.044(2) 0.5816(12)
C4J C 0.8855(18) -0.044(2) 0.5816(12)
C4O C 0.956(2) 0.1145(18) 0.5816(12)
C4C C 1.1145(18) -0.044(2) 0.5816(12)
C4I C 1.1145(18) 0.044(2) 0.5816(12)
C4H C 1.044(2) -0.1145(18) 0.5816(12)
C4F C 1.044(2) 0.1145(18) 0.5816(12)
loop_
_geom_bond_atom_site_label_1
_geom_bond_atom_site_label_2
_geom_bond_site_symmetry_1
_geom_bond_site_symmetry_2
Zn1 O1 1_555 1_555
O1 C1 1_555 1_555
N1 C3 1_555 1_555
N2 Zn1 1_555 1_555
C1 C2 1_555 1_555
C2 C3 1_555 1_555
C3 C3N 1_555 1_555
C4 N2 1_555 1_555
Zn1O O1O 1_555 1_555
Zn1_2 O1N 1_555 1_555
Zn1O_2 O1H 1_555 1_555
Zn1O_3 N2O 1_555 1_555
Zn1_3 O1B 1_555 1_555
Zn1O_4 O1C 1_555 1_555
O1O C1 1_555 1_555
O1N C1N 1_555 1_555
O1H C1N 1_555 1_555
O1A Zn1 1_555 1_555
O1J Zn1O 1_555 1_555
O1B C1B 1_555 1_555
O1C C1B 1_555 1_555
O1B_2 Zn1 1_555 1_555
O1N_2 Zn1 1_555 1_555
O1C_2 Zn1O 1_555 1_555
O1H_2 Zn1O 1_555 1_555
N1N C3N 1_555 1_555
N1H C3H 1_555 1_555
N1O C3O 1_555 1_555
N1A C3A 1_555 1_555
N1B C3B 1_555 1_555
N1C C3C 1_555 1_555
N1J C3J 1_555 1_555
N2O C4D 1_555 1_555
N2O_2 Zn1O 1_555 1_555
C1N C2N 1_555 1_555
C1A O1A 1_555 1_555
C1B C2B 1_555 1_555
C2N C3N 1_555 1_555
C2A C1A 1_555 1_555
C2B C3B 1_555 1_555
C3H C2N 1_555 1_555
C3O C2 1_555 1_555
C3A C2A 1_555 1_555
C3B C3A 1_555 1_555
C3C C2B 1_555 1_555
C3J C2A 1_555 1_555
C4L N2 1_555 1_555
C4A N2 1_555 1_555
C4K N2 1_555 1_555
C4B N2 1_555 1_555
C4M N2 1_555 1_555
C4N N2 1_555 1_555
C4G N2 1_555 1_555
C4D C4N 1_555 1_555
C4E N2O 1_555 1_555
C4J N2O 1_555 1_555
C4O C4 1_555 1_555
C4C N2O 1_555 1_555
C4I N2O 1_555 1_555
C4H N2O 1_555 1_555
C4F N2O 1_555 1_555
C4 C4L 1_555 1_555
C4 C4K 1_555 1_555
O1J C1A 1_555 1_555
N2O C4O 1_555 1_555
C3H C3O 1_555 1_555
C3C C3J 1_555 1_555
C4L C4B 1_555 1_555
C4L C4F 1_555 1_555
C4A C4K 1_555 1_555
C4A C4N 1_555 1_555
C4A C4J 1_555 1_555
C4K C4E 1_555 1_555
C4B C4M 1_555 1_555
C4B C4I 1_555 1_555
C4M C4G 1_555 1_555
C4M C4C 1_555 1_555
C4N C4G 1_555 1_555
C4G C4H 1_555 1_555
C4D C4J 1_555 1_555
C4D C4H 1_555 1_555
C4E C4J 1_555 1_555
C4E C4O 1_555 1_555
C4O C4F 1_555 1_555
C4C C4I 1_555 1_555
C4C C4H 1_555 1_555
C4I C4F 1_555 1_555

#END
