
#######################################################################
#
#                 Cambridge Crystallographic Data Centre
#                                CCDC 
#
#######################################################################
#
# If this CIF has been generated from an entry in the Cambridge 
# Structural Database, then it will include bibliographic, chemical, 
# crystal, experimental, refinement or atomic coordinate data resulting 
# from the CCDC's data processing and validation procedures.
#
#######################################################################

data_HEDBEZ
_chemical_formula_moiety         '(C30 H38 Ce2 O46 U3)n'
_symmetry_cell_setting           triclinic
_symmetry_space_group_name_H-M   'P -1'
_symmetry_Int_Tables_number      2
_space_group_name_Hall           '-P 1'
loop_
_symmetry_equiv_pos_site_id
_symmetry_equiv_pos_as_xyz
1 x,y,z
2 -x,-y,-z
_cell_length_a                   10.9229(2)
_cell_length_b                   11.5371(3)
_cell_length_c                   13.4516(3)
_cell_angle_alpha                69.5020(5)
_cell_angle_beta                 80.0490(6)
_cell_angle_gamma                62.2530(5)
_cell_volume                     1405.14
loop_
_atom_site_label
_atom_site_type_symbol
_atom_site_fract_x
_atom_site_fract_y
_atom_site_fract_z
U1 U 1.00000 -0.5 0.50000
U2 U 1.367980(16) -0.701900(15) 0.166750(14)
Ce1 Ce 1.37791(4) -0.21477(5) 0.22467(3)
O1 O 1.0995(3) -0.3567(3) 0.3774(3)
O2 O 1.4935(4) -0.6921(3) 0.2867(3)
O3 O 0.6896(4) -0.2167(3) -0.0537(3)
O4 O 0.5720(4) 0.0912(3) 0.1729(3)
O5 O 1.2260(4) -0.4827(4) 0.2042(4)
O6 O 1.4503(4) -0.6181(3) 0.0611(3)
O7 O 0.9398(4) -0.5023(4) 0.3875(3)
O8 O 1.2854(4) -0.7837(4) 0.2705(3)
O9 O 1.2611(4) -0.6317(4) 0.4686(4)
O10 O 1.1429(4) -0.2062(3) 0.2399(3)
O11 O 1.1430(4) -0.7504(4) 0.5224(4)
O12 O 0.4833(4) -0.0600(4) 0.2260(4)
O13 O 1.1417(4) -0.5281(4) 0.0945(4)
O14 O 1.3730(4) -0.4128(4) 0.3820(4)
O15 O 1.2004(5) 0.0308(5) 0.1631(5)
O16 O 1.5026(6) -0.4354(5) 0.1723(4)
O17 O 1.6105(5) -0.3613(5) 0.3228(5)
O18 O 1.2866(6) -0.1722(7) 0.0405(5)
O19 O 1.5762(5) -0.7032(4) 0.4300(4)
C1 C 0.5806(5) -0.0276(4) 0.1905(4)
C2 C 1.0791(4) -0.2766(4) 0.2832(4)
C3 C 0.9650(5) -0.2574(4) 0.2205(4)
C4 C 0.7219(5) -0.1343(4) 0.1716(4)
C5 C 0.9901(5) -0.3373(4) 0.1549(4)
C6 C 0.7486(5) -0.2138(4) 0.1042(4)
C7 C 0.8305(5) -0.1546(4) 0.2266(4)
C8 C 1.2556(5) -0.7455(5) 0.4960(4)
C9 C 1.5252(5) -0.7464(4) 0.3851(4)
C10 C 1.1264(5) -0.4550(5) 0.1505(5)
C11 C 0.6431(5) -0.1981(4) 0.0376(4)
C12 C 1.6214(5) -1.0002(4) 0.4522(4)
C13 C 1.3845(5) -0.8754(4) 0.4966(4)
C14 C 1.5075(5) -0.8744(4) 0.4463(4)
C15 C 0.8818(5) -0.3111(4) 0.0960(4)
O20 O 0.5238(4) -0.1728(5) 0.0673(4)
O21 O 1.2880(5) -0.1341(4) 0.3848(4)
H1 H 0.813307 -0.097359 0.269608
H2 H 1.70699 -1.000750 0.419550
H3 H 0.900621 -0.362679 0.048074
U1_2 U 2.00000 -1.5 0.50000
U2A U 1.632020(16) -1.298100(15) 0.833250(14)
U2A_2 U 0.632020(16) -0.298100(15) -0.166750(14)
U2_2 U 0.367980(16) 0.298100(15) 0.166750(14)
U2_3 U 1.367980(16) -0.701900(15) 1.166750(14)
U2A_3 U 0.632020(16) -0.298100(15) 0.833250(14)
Ce1A Ce 0.62209(4) -0.78523(5) 0.77533(3)
Ce1_2 Ce 0.37791(4) -0.21477(5) 0.22467(3)
Ce1A_2 Ce 1.62209(4) -0.78523(5) 0.77533(3)
O1A O 0.9005(3) -0.6433(3) 0.6226(3)
O2A O 1.5065(4) -1.3079(3) 0.7133(3)
O3A O 1.3104(4) -0.7833(3) 1.0537(3)
O3A_2 O 1.3104(4) -0.7833(3) 0.0537(3)
O3_2 O 1.6896(4) -1.2167(3) 0.9463(3)
O4A O 1.4280(4) -1.0912(3) 0.8271(3)
O4_2 O 1.5720(4) -0.9088(3) 0.1729(3)
O5A O 0.7740(4) -0.5173(4) 0.7958(4)
O5A_2 O 1.7740(4) -1.5173(4) 0.7958(4)
O6A O 1.5497(4) -1.3819(3) 0.9389(3)
O7A O 1.0602(4) -0.4977(4) 0.6125(3)
O8A O 1.7146(4) -1.2163(4) 0.7295(3)
O9A O 1.7389(4) -1.3683(4) 0.5314(4)
O9A_2 O 0.7389(4) -0.3683(4) 0.5314(4)
O10A O 0.8571(4) -0.7938(3) 0.7601(3)
O11A O 1.8570(4) -1.2496(4) 0.4776(4)
O11A_2 O 0.8570(4) -0.2496(4) 0.4776(4)
O12A O 1.5167(4) -0.9400(4) 0.7740(4)
O12_2 O 1.4833(4) -0.0600(4) 0.2260(4)
O12A_2 O 0.5167(4) -0.9400(4) 0.7740(4)
O13A O 0.8583(4) -0.4719(4) 0.9055(4)
O13A_2 O 1.8583(4) -1.4719(4) 0.9055(4)
O14A O 0.6270(4) -0.5872(4) 0.6180(4)
O15A O 0.7996(5) -1.0308(5) 0.8369(5)
O16A O 0.4974(6) -0.5646(5) 0.8277(4)
O17A O 0.3895(5) -0.6387(5) 0.6772(5)
O18A O 0.7134(6) -0.8278(7) 0.9595(5)
O19A O 1.4238(5) -1.2968(4) 0.5700(4)
C1A C 1.4194(5) -0.9724(4) 0.8095(4)
C2A C 0.9209(4) -0.7234(4) 0.7168(4)
C3A C 1.0350(5) -0.7426(4) 0.7795(4)
C4A C 1.2781(5) -0.8657(4) 0.8284(4)
C5A C 1.0099(5) -0.6627(4) 0.8451(4)
C6A C 1.2514(5) -0.7862(4) 0.8958(4)
C7A C 1.1695(5) -0.8454(4) 0.7734(4)
C8A C 1.7444(5) -1.2545(5) 0.5040(4)
C9A C 1.4748(5) -1.2536(4) 0.6149(4)
C10A C 0.8736(5) -0.5450(5) 0.8495(5)
C11A C 1.3569(5) -0.8019(4) 0.9624(4)
C12A C 1.3786(5) -0.9998(4) 0.5478(4)
C13A C 1.6155(5) -1.1246(4) 0.5034(4)
C14A C 1.4925(5) -1.1256(4) 0.5537(4)
C15A C 1.1182(5) -0.6889(4) 0.9040(4)
O20A O 1.4762(4) -0.8272(5) 0.9327(4)
O20_2 O 1.5238(4) -0.1728(5) 0.0673(4)
O20A_2 O 0.4762(4) -0.8272(5) 0.9327(4)
O21A O 0.7120(5) -0.8659(4) 0.6152(4)
H1A H 1.186693 -0.902641 0.730392
H2A H 1.29301 -0.999250 0.580450
H3A H 1.099379 -0.637321 0.951926
O22 O 0.2168(11) 0.6178(10) 0.6851(8)
O23 O -0.0617(15) 0.8690(14) 0.5932(12)
O24 O 0.0509(16) 0.9022(15) 0.9246(13)
O25 O 0.065(2) -0.009(2) 0.6329(17)
loop_
_geom_bond_atom_site_label_1
_geom_bond_atom_site_label_2
_geom_bond_site_symmetry_1
_geom_bond_site_symmetry_2
U1 O1 1_555 1_555
U2 O2 1_555 1_555
Ce1 O10 1_555 1_555
O1 C2 1_555 1_555
O2 C9 1_555 1_555
O3 C11 1_555 1_555
O4 C1 1_555 1_555
O5 U2 1_555 1_555
O6 U2 1_555 1_555
O7 U1 1_555 1_555
O8 U2 1_555 1_555
O9 U1 1_555 1_555
O10 C2 1_555 1_555
O11 U1 1_555 1_555
O12 C1 1_555 1_555
O13 U2 1_555 1_555
O14 Ce1 1_555 1_555
O15 Ce1 1_555 1_555
O16 Ce1 1_555 1_555
O17 Ce1 1_555 1_555
O18 Ce1 1_555 1_555
O19 C9 1_555 1_555
C1 C4 1_555 1_555
C2 C3 1_555 1_555
C3 C5 1_555 1_555
C4 C6 1_555 1_555
C5 C10 1_555 1_555
C6 C11 1_555 1_555
C7 C3 1_555 1_555
C8 O9 1_555 1_555
C9 C14 1_555 1_555
C10 O5 1_555 1_555
C11 O20 1_555 1_555
C12 C14 1_555 1_555
C13 C8 1_555 1_555
C14 C13 1_555 1_555
C15 C5 1_555 1_555
O20 Ce1_2 1_555 1_555
O21 Ce1 1_555 1_555
H1 C7 1_555 1_555
H2 C12 1_555 1_555
H3 C15 1_555 1_555
U1_2 O9A 1_555 1_555
U2A O2A 1_555 1_555
U2A_2 O3 1_555 1_555
U2_2 O4 1_555 1_555
U2_3 O3A 1_555 1_555
U2A_3 O5A 1_555 1_555
Ce1A O10A 1_555 1_555
Ce1_2 O12 1_555 1_555
Ce1A_2 O12A 1_555 1_555
O1A U1 1_555 1_555
O2A C9A 1_555 1_555
O3A C11A 1_555 1_555
O3A_2 U2 1_555 1_555
O3_2 U2A 1_555 1_555
O4A U2A 1_555 1_555
O4_2 U2 1_555 1_555
O5A C10A 1_555 1_555
O5A_2 U2A 1_555 1_555
O6A U2A 1_555 1_555
O7A U1 1_555 1_555
O8A U2A 1_555 1_555
O9A C8A 1_555 1_555
O9A_2 U1 1_555 1_555
O10A C2A 1_555 1_555
O11A U1_2 1_555 1_555
O11A_2 U1 1_555 1_555
O12A C1A 1_555 1_555
O12_2 Ce1 1_555 1_555
O12A_2 Ce1A 1_555 1_555
O13A U2A_3 1_555 1_555
O13A_2 U2A 1_555 1_555
O14A Ce1A 1_555 1_555
O15A Ce1A 1_555 1_555
O16A Ce1A 1_555 1_555
O17A Ce1A 1_555 1_555
O18A Ce1A 1_555 1_555
O19A C9A 1_555 1_555
C1A O4A 1_555 1_555
C2A O1A 1_555 1_555
C3A C2A 1_555 1_555
C4A C1A 1_555 1_555
C5A C3A 1_555 1_555
C6A C4A 1_555 1_555
C7A C3A 1_555 1_555
C8A O11A 1_555 1_555
C9A C14A 1_555 1_555
C10A O13A 1_555 1_555
C11A C6A 1_555 1_555
C12A C13 1_555 1_555
C13A C12 1_555 1_555
C14A C12A 1_555 1_555
C15A C5A 1_555 1_555
O20A Ce1A_2 1_555 1_555
O20_2 Ce1 1_555 1_555
O20A_2 Ce1A 1_555 1_555
O21A Ce1A 1_555 1_555
H1A C7A 1_555 1_555
H2A C12A 1_555 1_555
H3A C15A 1_555 1_555
O11 C8 1_555 1_555
O13 C10 1_555 1_555
C4 C7 1_555 1_555
C6 C15 1_555 1_555
C4A C7A 1_555 1_555
C5A C10A 1_555 1_555
C6A C15A 1_555 1_555
C8A C13A 1_555 1_555
C11A O20A 1_555 1_555
C13A C14A 1_555 1_555

#END
