
#######################################################################
#
#                 Cambridge Crystallographic Data Centre
#                                CCDC 
#
#######################################################################
#
# If this CIF has been generated from an entry in the Cambridge 
# Structural Database, then it will include bibliographic, chemical, 
# crystal, experimental, refinement or atomic coordinate data resulting 
# from the CCDC's data processing and validation procedures.
#
#######################################################################

data_CUKWUB
_chemical_formula_moiety         'C30 Cd23 N107'
_symmetry_cell_setting           hexagonal
_symmetry_space_group_name_H-M   'P 63/m m c'
_symmetry_Int_Tables_number      194
_space_group_name_Hall           '-P 6c 2c'
loop_
_symmetry_equiv_pos_site_id
_symmetry_equiv_pos_as_xyz
1 x,y,z
2 x-y,x,1/2+z
3 -y,x-y,z
4 -x,-y,1/2+z
5 -x+y,-x,z
6 y,-x+y,1/2+z
7 x-y,-y,-z
8 -x,-x+y,-z
9 y,x,-z
10 -y,-x,1/2-z
11 -x+y,y,1/2-z
12 x,x-y,1/2-z
13 -x,-y,-z
14 -x+y,-x,1/2-z
15 y,-x+y,-z
16 x,y,1/2-z
17 x-y,x,-z
18 -y,x-y,1/2-z
19 -x+y,y,z
20 x,x-y,z
21 -y,-x,z
22 y,x,1/2+z
23 x-y,-y,1/2+z
24 -x,-x+y,1/2+z
_cell_length_a                   13.014(4)
_cell_length_b                   13.014(4)
_cell_length_c                   13.457(6)
_cell_angle_alpha                90
_cell_angle_beta                 90
_cell_angle_gamma                120
_cell_volume                     1973.79
loop_
_atom_site_label
_atom_site_type_symbol
_atom_site_fract_x
_atom_site_fract_y
_atom_site_fract_z
Cd1 Cd 0.3333 0.6667 0.6007(2)
Cd2 Cd 0.5000 1.0000 0.5000
N1 N 0.5708(12) 1.142(2) 0.7500
N2 N 0.4749(6) 0.9498(12) 0.6681(12)
N3 N 0.4177(7) 0.8354(15) 0.7019(11)
N4 N 0.2479(8) 0.7521(8) 0.4976(13)
N5 N 0.1377(11) 0.6971(12) 0.4676(9)
N6 N 0.031(4) 0.772(4) 0.368(3)
C1 C 0.5097(14) 1.019(3) 0.7500
C2 C 0.1220(18) 0.7733(19) 0.4141(12)
Cd1J Cd 0.3334 0.6667 0.8993(2)
Cd1F Cd 0.6666 1.3333 0.3993(2)
Cd1C Cd 0.6667 1.3333 0.1007(2)
Cd1C_2 Cd 0.6667 1.3333 1.1007(2)
Cd1F_2 Cd 0.6666 1.3333 1.3993(2)
Cd1H Cd -0.3333 0.3333 0.3993(2)
Cd1E Cd -0.3333 0.3334 0.1007(2)
Cd2C Cd 0.5000 1.0000 1.0000
Cd2B Cd 0.0000 0.5000 0.5000
Cd2E Cd 0.0000 0.5000 1.0000
Cd2D Cd 0.5000 0.5000 0.5000
Cd2A Cd 0.5000 0.5000 1.0000
Cd2C_2 Cd 0.5000 1.0000 0.0000
Cd2B_2 Cd 1.0000 1.5000 0.5000
Cd2D_2 Cd 0.5000 1.5000 0.5000
Cd2_2 Cd 0.5000 1.0000 1.5000
Cd2A_2 Cd 0.5000 1.5000 1.0000
Cd2E_2 Cd 1.0000 1.5000 1.0000
Cd2E_3 Cd 0.0000 0.5000 0.0000
Cd2D_3 Cd -0.5000 0.5000 0.5000
Cd2_3 Cd -0.5000 0.0000 0.5000
N1B N -0.142(2) 0.4288(23) 0.7500
N1D N 0.5712(23) 0.4292(12) 0.7500
N1F N 0.4288(23) 0.858(2) 0.2500
N1C N 0.4292(12) 0.858(2) 1.2500
N1H N 0.142(2) 0.5708(12) 0.2500
N2J N 0.4749(13) 0.9498(12) 0.8319(12)
N2B N 0.0502(12) 0.5251(13) 0.6681(12)
N2I N 0.0502(12) 0.5251(6) 0.8319(12)
N2D N 0.4749(13) 0.5251(6) 0.6681(12)
N2K N 0.4749(6) 0.5251(13) 0.8319(12)
N2F N 0.5251(13) 1.0502(12) 0.3319(12)
N2C N 0.5251(6) 1.0502(12) 0.1681(12)
N2C_2 N 0.5251(6) 1.0502(12) 1.1681(12)
N2F_2 N 0.5251(13) 1.0502(12) 1.3319(12)
N2H N -0.0502(12) 0.4749(6) 0.3319(12)
N2E N -0.0502(12) 0.4749(13) 0.1681(12)
N2E_2 N -0.0502(12) 0.4749(13) 1.1681(12)
N2G N 0.5251(6) 0.4749(13) 0.3319(12)
N2A N 0.5251(13) 0.4749(6) 1.1681(12)
N3J N 0.4177(17) 0.8354(15) 0.7981(11)
N3B N 0.1646(15) 0.5823(17) 0.7019(11)
N3I N 0.1646(15) 0.5823(7) 0.7981(11)
N3D N 0.4177(17) 0.5823(7) 0.7019(11)
N3K N 0.4177(7) 0.5823(17) 0.7981(11)
N3F N 0.5823(17) 1.1646(15) 0.2981(11)
N3C N 0.5823(7) 1.1646(15) 0.2019(11)
N3C_2 N 0.5823(7) 1.1646(15) 1.2019(11)
N3F_2 N 0.5823(17) 1.1646(15) 1.2981(11)
N3H N -0.1646(15) 0.4177(7) 0.2981(11)
N3E N -0.1646(15) 0.4177(17) 0.2019(11)
N3G N 0.5823(7) 1.4177(17) 0.2981(11)
N3H_2 N 0.8354(15) 1.4177(7) 0.2981(11)
N3E_2 N 0.8354(15) 1.4177(17) 0.2019(11)
N3A N 0.5823(17) 1.4177(7) 0.2019(11)
N4B N 0.2479(8) 0.4958(11) 0.4976(13)
N4D N 0.5042(11) 0.7521(8) 0.4976(13)
N4H N 0.7521(8) 1.2479(8) 0.5024(13)
N4F N 0.4958(11) 1.2479(8) 0.5024(13)
N4J N 0.5042(11) 0.7521(8) 1.0024(13)
N4K N 0.2479(8) 0.4958(11) 1.0024(13)
N4I N 0.2479(8) 0.7521(8) 1.0024(13)
N4A N 0.4958(11) 1.2479(8) 0.9976(13)
N4C N 0.7521(8) 1.2479(8) 0.9976(13)
N4G N -0.2479(8) 0.5042(11) 0.5024(13)
N4H_2 N -0.2479(8) 0.2479(8) 0.5024(13)
N4G_2 N 0.7521(8) 1.5042(11) 0.5024(13)
N4C_2 N 0.7521(8) 1.2479(8) -0.0024(13)
N4E N 0.7521(8) 1.5042(11) -0.0024(13)
N4A_2 N 0.4958(11) 1.2479(8) -0.0024(13)
N5T N 0.3029(12) 0.8623(11) 0.4676(9)
N5B N 0.3029(12) 0.4406(16) 0.4676(9)
N5S N 0.1377(11) 0.4406(16) 0.4676(9)
N5D N 0.5594(16) 0.8623(11) 0.4676(9)
N5R N 0.5594(16) 0.6971(12) 0.4676(9)
N5H N 0.6971(12) 1.1377(11) 0.5324(9)
N5L N 0.8623(11) 1.3029(12) 0.5324(9)
N5P N 0.4406(16) 1.1377(11) 0.5324(9)
N5F N 0.4406(16) 1.3029(12) 0.5324(9)
N5J N 0.5594(16) 0.6971(12) 1.0324(9)
N5M N 0.5594(16) 0.8623(11) 1.0324(9)
N5K N 0.1377(11) 0.4406(16) 1.0324(9)
N5Q N 0.3029(12) 0.4406(16) 1.0324(9)
N5I N 0.3029(12) 0.8623(11) 1.0324(9)
N5O N 0.1377(11) 0.6971(12) 1.0324(9)
N5A N 0.4406(16) 1.1377(11) 0.9676(9)
N5V N 0.4406(16) 1.3029(12) 0.9676(9)
N5U N 0.6971(12) 1.1377(11) 0.9676(9)
N5C N 0.8623(11) 1.3029(12) 0.9676(9)
N5G N -0.1377(11) 0.5594(16) 0.5324(9)
N5N N -0.3029(12) 0.5594(16) 0.5324(9)
N5L_2 N -0.1377(11) 0.3029(12) 0.5324(9)
N5H_2 N -0.3029(12) 0.1377(11) 0.5324(9)
N5C_2 N -0.1377(11) 0.3029(12) 0.9676(9)
N5W N -0.1377(11) 0.5594(16) 0.9676(9)
N5F_2 N 0.4406(16) 0.3029(12) 0.5324(9)
N5N_2 N 0.6971(12) 0.5594(16) 0.5324(9)
N5E N 0.6971(12) 0.5594(16) 0.9676(9)
N5V_2 N 0.4406(16) 0.3029(12) 0.9676(9)
N6T N 0.228(4) 0.969(4) 0.368(3)
N6B N 0.228(4) 0.259(6) 0.368(3)
N6S N 0.031(4) 0.259(6) 0.368(3)
N6D N 0.741(6) 0.969(4) 0.368(3)
N6R N 0.741(6) 0.772(4) 0.368(3)
N6H N 0.772(4) 1.031(4) 0.632(3)
N6L N 0.969(4) 1.228(4) 0.632(3)
N6P N 0.259(6) 1.031(4) 0.632(3)
N6F N 0.259(6) 1.228(4) 0.632(3)
N6J N 0.741(6) 0.772(4) 1.132(3)
N6M N 0.741(6) 0.969(4) 1.132(3)
N6K N 0.031(4) 0.259(6) 1.132(3)
N6Q N 0.228(4) 0.259(6) 1.132(3)
N6I N 0.228(4) 0.969(4) 1.132(3)
N6O N 0.031(4) 0.772(4) 1.132(3)
N6A N 0.259(6) 1.031(4) 0.868(3)
N6V N 0.259(6) 1.228(4) 0.868(3)
N6U N 0.772(4) 1.031(4) 0.868(3)
N6C N 0.969(4) 1.228(4) 0.868(3)
N6G N -0.031(4) 0.741(6) 0.632(3)
N6N N -0.228(4) 0.741(6) 0.632(3)
N6L_2 N -0.031(4) 0.228(4) 0.632(3)
N6H_2 N -0.228(4) 0.031(4) 0.632(3)
C1B C -0.019(3) 0.4907(33) 0.7500
C1D C 0.5093(33) 0.4903(14) 0.7500
C1F C 0.4907(33) 0.981(3) 0.2500
C1C C 0.4903(14) 0.981(3) 1.2500
C1H C 0.019(3) 0.5097(14) 0.2500
C2T C 0.2267(19) 0.8780(18) 0.4141(12)
C2B C 0.2267(19) 0.3487(26) 0.4141(12)
C2S C 0.1220(18) 0.3487(26) 0.4141(12)
C2D C 0.6513(26) 0.8780(18) 0.4141(12)
C2R C 0.6513(26) 0.7733(19) 0.4141(12)
C2H C 0.7733(19) 1.1220(18) 0.5859(12)
C2L C 0.8780(18) 1.2267(19) 0.5859(12)
C2P C 0.3487(26) 1.1220(18) 0.5859(12)
C2F C 0.3487(26) 1.2267(19) 0.5859(12)
C2J C 0.6513(26) 0.7733(19) 1.0859(12)
C2M C 0.6513(26) 0.8780(18) 1.0859(12)
C2K C 0.1220(18) 0.3487(26) 1.0859(12)
C2Q C 0.2267(19) 0.3487(26) 1.0859(12)
C2I C 0.2267(19) 0.8780(18) 1.0859(12)
C2O C 0.1220(18) 0.7733(19) 1.0859(12)
C2A C 0.3487(26) 1.1220(18) 0.9141(12)
C2V C 0.3487(26) 1.2267(19) 0.9141(12)
C2U C 0.7733(19) 1.1220(18) 0.9141(12)
C2C C 0.8780(18) 1.2267(19) 0.9141(12)
C2G C -0.1220(18) 0.6513(26) 0.5859(12)
C2N C -0.2267(19) 0.6513(26) 0.5859(12)
C2L_2 C -0.1220(18) 0.2267(19) 0.5859(12)
C2H_2 C -0.2267(19) 0.1220(18) 0.5859(12)
loop_
_geom_bond_atom_site_label_1
_geom_bond_atom_site_label_2
_geom_bond_site_symmetry_1
_geom_bond_site_symmetry_2
Cd1 N3 1_555 1_555
Cd2 N2 1_555 1_555
N1 C1 1_555 1_555
N2 N3 1_555 1_555
N3 N3J 1_555 1_555
N4 Cd1 1_555 1_555
N5 N4 1_555 1_555
N6 C2 1_555 1_555
C1 N2 1_555 1_555
C2 N5 1_555 1_555
Cd1J N3J 1_555 1_555
Cd1F N3F 1_555 1_555
Cd1C N3C 1_555 1_555
Cd1C_2 N3C_2 1_555 1_555
Cd1F_2 N3F_2 1_555 1_555
Cd1H N3H 1_555 1_555
Cd1E N3E 1_555 1_555
Cd2C N2J 1_555 1_555
Cd2B N5 1_555 1_555
Cd2E N2I 1_555 1_555
Cd2D N2D 1_555 1_555
Cd2A N2K 1_555 1_555
Cd2C_2 N2C 1_555 1_555
Cd2B_2 N5L 1_555 1_555
Cd2D_2 N5F 1_555 1_555
Cd2_2 N2F_2 1_555 1_555
Cd2A_2 N5V 1_555 1_555
Cd2E_2 N5C 1_555 1_555
Cd2E_3 N2E 1_555 1_555
Cd2D_3 N5N 1_555 1_555
Cd2_3 N5H_2 1_555 1_555
N1B C1B 1_555 1_555
N1D C1D 1_555 1_555
N1F C1F 1_555 1_555
N1C C1C 1_555 1_555
N1H C1H 1_555 1_555
N2J C1 1_555 1_555
N2B Cd2B 1_555 1_555
N2I N3I 1_555 1_555
N2D N3D 1_555 1_555
N2K N3K 1_555 1_555
N2F Cd2 1_555 1_555
N2C N3C 1_555 1_555
N2C_2 Cd2C 1_555 1_555
N2F_2 N3F_2 1_555 1_555
N2H Cd2B 1_555 1_555
N2E N3E 1_555 1_555
N2E_2 Cd2E 1_555 1_555
N2G Cd2D 1_555 1_555
N2A Cd2A 1_555 1_555
N3J N2J 1_555 1_555
N3B Cd1 1_555 1_555
N3I Cd1J 1_555 1_555
N3D Cd1 1_555 1_555
N3K Cd1J 1_555 1_555
N3F N2F 1_555 1_555
N3C N3F 1_555 1_555
N3C_2 N2C_2 1_555 1_555
N3F_2 N3C_2 1_555 1_555
N3H N2H 1_555 1_555
N3E N3H 1_555 1_555
N3G Cd1F 1_555 1_555
N3H_2 Cd1F 1_555 1_555
N3E_2 Cd1C 1_555 1_555
N3A Cd1C 1_555 1_555
N4B Cd1 1_555 1_555
N4D Cd1 1_555 1_555
N4H Cd1F 1_555 1_555
N4F Cd1F 1_555 1_555
N4J Cd1J 1_555 1_555
N4K Cd1J 1_555 1_555
N4I Cd1J 1_555 1_555
N4A Cd1C_2 1_555 1_555
N4C Cd1C_2 1_555 1_555
N4G Cd1H 1_555 1_555
N4H_2 Cd1H 1_555 1_555
N4G_2 Cd1F 1_555 1_555
N4C_2 Cd1C 1_555 1_555
N4E Cd1C 1_555 1_555
N4A_2 Cd1C 1_555 1_555
N5T Cd2 1_555 1_555
N5B Cd2D 1_555 1_555
N5S Cd2B 1_555 1_555
N5D Cd2 1_555 1_555
N5R Cd2D 1_555 1_555
N5H Cd2 1_555 1_555
N5L N4H 1_555 1_555
N5P Cd2 1_555 1_555
N5F N4F 1_555 1_555
N5J Cd2A 1_555 1_555
N5M Cd2C 1_555 1_555
N5K Cd2E 1_555 1_555
N5Q Cd2A 1_555 1_555
N5I Cd2C 1_555 1_555
N5O Cd2E 1_555 1_555
N5A Cd2C 1_555 1_555
N5V N4A 1_555 1_555
N5U Cd2C 1_555 1_555
N5C N4C 1_555 1_555
N5G Cd2B 1_555 1_555
N5N N4G 1_555 1_555
N5L_2 Cd2B 1_555 1_555
N5H_2 N4H_2 1_555 1_555
N5C_2 Cd2E 1_555 1_555
N5W Cd2E 1_555 1_555
N5F_2 Cd2D 1_555 1_555
N5N_2 Cd2D 1_555 1_555
N5E Cd2A 1_555 1_555
N5V_2 Cd2A 1_555 1_555
N6T C2T 1_555 1_555
N6B C2B 1_555 1_555
N6S C2S 1_555 1_555
N6D C2D 1_555 1_555
N6R C2R 1_555 1_555
N6H C2H 1_555 1_555
N6L C2L 1_555 1_555
N6P C2P 1_555 1_555
N6F C2F 1_555 1_555
N6J C2J 1_555 1_555
N6M C2M 1_555 1_555
N6K C2K 1_555 1_555
N6Q C2Q 1_555 1_555
N6I C2I 1_555 1_555
N6O C2O 1_555 1_555
N6A C2A 1_555 1_555
N6V C2V 1_555 1_555
N6U C2U 1_555 1_555
N6C C2C 1_555 1_555
N6G C2G 1_555 1_555
N6N C2N 1_555 1_555
N6L_2 C2L_2 1_555 1_555
N6H_2 C2H_2 1_555 1_555
C1B N2B 1_555 1_555
C1D N2D 1_555 1_555
C1F N2F 1_555 1_555
C1C N2C_2 1_555 1_555
C1H N2H 1_555 1_555
C2T C2 1_555 1_555
C2B N5B 1_555 1_555
C2S N5S 1_555 1_555
C2D N5D 1_555 1_555
C2R N5R 1_555 1_555
C2H N5H 1_555 1_555
C2L N5L 1_555 1_555
C2P N5P 1_555 1_555
C2F N5F 1_555 1_555
C2J N5J 1_555 1_555
C2M N5M 1_555 1_555
C2K N5K 1_555 1_555
C2Q N5Q 1_555 1_555
C2I N5I 1_555 1_555
C2O N5O 1_555 1_555
C2A N5A 1_555 1_555
C2V N5V 1_555 1_555
C2U N5U 1_555 1_555
C2C N5C 1_555 1_555
C2G N5G 1_555 1_555
C2N N5N 1_555 1_555
C2L_2 N5L_2 1_555 1_555
C2H_2 N5H_2 1_555 1_555
N4 N5T 1_555 1_555
N2B N3B 1_555 1_555
N2I C1B 1_555 1_555
N2K C1D 1_555 1_555
N2C C1F 1_555 1_555
N2F_2 C1C 1_555 1_555
N2E C1H 1_555 1_555
N3B N3I 1_555 1_555
N3D N3K 1_555 1_555
N3G N3A 1_555 1_555
N3H_2 N3E_2 1_555 1_555
N4B N5B 1_555 1_555
N4B N5S 1_555 1_555
N4D N5D 1_555 1_555
N4D N5R 1_555 1_555
N4H N5H 1_555 1_555
N4F N5P 1_555 1_555
N4J N5J 1_555 1_555
N4J N5M 1_555 1_555
N4K N5K 1_555 1_555
N4K N5Q 1_555 1_555
N4I N5I 1_555 1_555
N4I N5O 1_555 1_555
N4A N5A 1_555 1_555
N4C N5U 1_555 1_555
N4G N5G 1_555 1_555
N4H_2 N5L_2 1_555 1_555
N5T C2T 1_555 1_555
C2B C2S 1_555 1_555
C2D C2R 1_555 1_555
C2H C2L 1_555 1_555
C2P C2F 1_555 1_555
C2J C2M 1_555 1_555
C2K C2Q 1_555 1_555
C2I C2O 1_555 1_555
C2A C2V 1_555 1_555
C2U C2C 1_555 1_555
C2G C2N 1_555 1_555
C2L_2 C2H_2 1_555 1_555

#END
