
#######################################################################
#
#                 Cambridge Crystallographic Data Centre
#                                CCDC 
#
#######################################################################
#
# If this CIF has been generated from an entry in the Cambridge 
# Structural Database, then it will include bibliographic, chemical, 
# crystal, experimental, refinement or atomic coordinate data resulting 
# from the CCDC's data processing and validation procedures.
#
#######################################################################

data_CUKXEM
_chemical_formula_moiety         'C30 H2 Cd23 N107 O1'
_symmetry_cell_setting           hexagonal
_symmetry_space_group_name_H-M   'P 63/m m c'
_symmetry_Int_Tables_number      194
_space_group_name_Hall           '-P 6c 2c'
loop_
_symmetry_equiv_pos_site_id
_symmetry_equiv_pos_as_xyz
1 x,y,z
2 x-y,x,1/2+z
3 -y,x-y,z
4 -x,-y,1/2+z
5 -x+y,-x,z
6 y,-x+y,1/2+z
7 x-y,-y,-z
8 -x,-x+y,-z
9 y,x,-z
10 -y,-x,1/2-z
11 -x+y,y,1/2-z
12 x,x-y,1/2-z
13 -x,-y,-z
14 -x+y,-x,1/2-z
15 y,-x+y,-z
16 x,y,1/2-z
17 x-y,x,-z
18 -y,x-y,1/2-z
19 -x+y,y,z
20 x,x-y,z
21 -y,-x,z
22 y,x,1/2+z
23 x-y,-y,1/2+z
24 -x,-x+y,1/2+z
_cell_length_a                   13.0628(18)
_cell_length_b                   13.0628(18)
_cell_length_c                   13.522(3)
_cell_angle_alpha                90
_cell_angle_beta                 90
_cell_angle_gamma                120
_cell_volume                     1998.22
loop_
_atom_site_label
_atom_site_type_symbol
_atom_site_fract_x
_atom_site_fract_y
_atom_site_fract_z
O1 O 0.849(6) 0.699(12) 0.171(8)
Cd1 Cd 0.6667 0.3333 0.10099(14)
Cd2 Cd 0.5000 0.5000 0.0000
N1 N 0.4303(13) 0.5697(13) 0.2500
N2 N 0.5249(6) 0.4751(6) 0.1691(10)
N3 N 0.5819(6) 0.4181(6) 0.2036(9)
N4 N 0.4976(13) 0.2488(7) -0.0013(11)
N5 N 0.4431(11) 0.1396(10) -0.0327(8)
N6 N 0.259(3) 0.032(3) -0.134(3)
C1 C 0.4917(9) 0.5083(9) 0.2500
C2 C 0.3505(13) 0.1249(15) -0.0861(10)
Cd1I Cd 0.6667 0.3333 0.39901(14)
Cd1H Cd 0.3333 0.6667 -0.10099(14)
Cd1C Cd 0.3333 0.6667 -0.39901(14)
Cd1C_2 Cd 0.3333 0.6667 0.60099(14)
Cd1H_2 Cd 0.3333 0.6667 0.89901(14)
Cd1G Cd 0.3333 -0.3334 -0.10099(14)
Cd1E Cd 0.3333 -0.3334 -0.39901(14)
Cd2C Cd 0.5000 0.5000 0.5000
Cd2B Cd 0.5000 0.0000 0.0000
Cd2E Cd 0.5000 0.0000 0.5000
Cd2D Cd 1.0000 0.5000 0.0000
Cd2A Cd 1.0000 0.5000 0.5000
Cd2C_2 Cd 0.5000 0.5000 -0.5000
Cd2B_2 Cd 0.5000 1.0000 0.0000
Cd2D_2 Cd 0.0000 0.5000 0.0000
Cd2_2 Cd 0.5000 0.5000 1.0000
Cd2A_2 Cd 0.0000 0.5000 0.5000
Cd2E_2 Cd 0.5000 1.0000 0.5000
Cd2E_3 Cd 0.5000 0.0000 -0.5000
Cd2D_3 Cd -0.0000 -0.5000 0.0000
Cd2_3 Cd 0.5000 -0.5000 0.0000
N1B N 0.4303(13) -0.1394(18) 0.2500
N1D N 1.1394(18) 0.5697(13) 0.2500
N1C N 0.5697(13) 0.4303(13) -0.2500
N1C_2 N 0.5697(13) 0.4303(13) 0.7500
N1E N 0.5697(13) 0.1394(18) -0.2500
N2I N 0.5249(6) 0.4751(6) 0.3309(10)
N2B N 0.5249(6) 0.0498(8) 0.1691(10)
N2K N 0.5249(6) 0.0498(8) 0.3309(10)
N2D N 0.9502(8) 0.4751(6) 0.1691(10)
N2J N 0.9502(8) 0.4751(6) 0.3309(10)
N2H N 0.4751(6) 0.5249(6) -0.1691(10)
N2C N 0.4751(6) 0.5249(6) -0.3309(10)
N2C_2 N 0.4751(6) 0.5249(6) 0.6691(10)
N2H_2 N 0.4751(6) 0.5249(6) 0.8309(10)
N2G N 0.4751(6) -0.0498(8) -0.1691(10)
N2E N 0.4751(6) -0.0498(8) -0.3309(10)
N2E_2 N 0.4751(6) -0.0498(8) 0.6691(10)
N2F N 1.0498(8) 0.5249(6) -0.1691(10)
N2A N 1.0498(8) 0.5249(6) 0.6691(10)
N3I N 0.5819(6) 0.4181(6) 0.2964(9)
N3B N 0.5819(6) 0.1638(8) 0.2036(9)
N3K N 0.5819(6) 0.1638(8) 0.2964(9)
N3D N 0.8362(8) 0.4181(6) 0.2036(9)
N3J N 0.8362(8) 0.4181(6) 0.2964(9)
N3H N 0.4181(6) 0.5819(6) -0.2036(9)
N3C N 0.4181(6) 0.5819(6) -0.2964(9)
N3C_2 N 0.4181(6) 0.5819(6) 0.7036(9)
N3H_2 N 0.4181(6) 0.5819(6) 0.7964(9)
N3G N 0.4181(6) -0.1638(8) -0.2036(9)
N3E N 0.4181(6) -0.1638(8) -0.2964(9)
N3F N 0.1638(8) 0.5819(6) -0.2036(9)
N3G_2 N 0.4181(6) 0.8362(8) -0.2036(9)
N3E_2 N 0.4181(6) 0.8362(8) -0.2964(9)
N3A N 0.1638(8) 0.5819(6) -0.2964(9)
N4D N 0.7512(15) 0.5024(13) -0.0013(11)
N4B N 0.7512(7) 0.2488(15) -0.0013(11)
N4G N 0.5024(13) 0.7512(15) 0.0013(11)
N4H N 0.2488(7) 0.4976(13) 0.0013(11)
N4I N 0.7512(7) 0.5024(13) 0.5013(11)
N4K N 0.4976(13) 0.2488(15) 0.5013(11)
N4J N 0.7512(15) 0.2488(7) 0.5013(11)
N4A N 0.2488(15) 0.4976(13) 0.4987(11)
N4C N 0.5024(13) 0.7512(7) 0.4987(11)
N4F N 0.2488(15) -0.2488(7) 0.0013(11)
N4G_2 N 0.5024(13) -0.2488(15) 0.0013(11)
N4F_2 N 0.2488(15) 0.7512(7) 0.0013(11)
N4C_2 N 0.5024(13) 0.7512(7) -0.5013(11)
N4A_2 N 0.2488(15) 0.4976(13) -0.5013(11)
N4E N 0.2488(7) 0.7512(15) -0.5013(11)
N5S N 0.4431(11) 0.3035(15) -0.0327(8)
N5D N 0.6965(15) 0.5569(11) -0.0327(8)
N5T N 0.8604(10) 0.5569(11) -0.0327(8)
N5B N 0.8604(10) 0.3035(15) -0.0327(8)
N5R N 0.6965(15) 0.1396(10) -0.0327(8)
N5G N 0.5569(11) 0.6965(15) 0.0327(8)
N5L N 0.5569(11) 0.8604(10) 0.0327(8)
N5P N 0.3035(15) 0.4431(11) 0.0327(8)
N5H N 0.1396(10) 0.4431(11) 0.0327(8)
N5I N 0.8604(10) 0.5569(11) 0.5327(8)
N5M N 0.6965(15) 0.5569(11) 0.5327(8)
N5K N 0.4431(11) 0.3035(15) 0.5327(8)
N5O N 0.4431(11) 0.1396(10) 0.5327(8)
N5J N 0.6965(15) 0.1396(10) 0.5327(8)
N5Q N 0.8604(10) 0.3035(15) 0.5327(8)
N5A N 0.3035(15) 0.4431(11) 0.4673(8)
N5U N 0.1396(10) 0.4431(11) 0.4673(8)
N5W N 0.5569(11) 0.6965(15) 0.4673(8)
N5C N 0.5569(11) 0.8604(10) 0.4673(8)
N5F N 0.3035(15) -0.1396(10) 0.0327(8)
N5N N 0.1396(10) -0.3035(15) 0.0327(8)
N5L_2 N 0.5569(11) -0.1396(10) 0.0327(8)
N5G_2 N 0.5569(11) -0.3035(15) 0.0327(8)
N5C_2 N 0.5569(11) -0.1396(10) 0.4673(8)
N5V N 0.3035(15) -0.1396(10) 0.4673(8)
N5H_2 N 1.1396(10) 0.4431(11) 0.0327(8)
N5N_2 N 1.1396(10) 0.6965(15) 0.0327(8)
N5E N 1.1396(10) 0.6965(15) 0.4673(8)
N5U_2 N 1.1396(10) 0.4431(11) 0.4673(8)
N6S N 0.259(3) 0.227(4) -0.134(3)
N6D N 0.773(4) 0.741(3) -0.134(3)
N6T N 0.968(3) 0.741(3) -0.134(3)
N6B N 0.968(3) 0.227(4) -0.134(3)
N6R N 0.773(4) 0.032(3) -0.134(3)
N6G N 0.741(3) 0.773(4) 0.134(3)
N6L N 0.741(3) 0.968(3) 0.134(3)
N6P N 0.227(4) 0.259(3) 0.134(3)
N6H N 0.032(3) 0.259(3) 0.134(3)
N6I N 0.968(3) 0.741(3) 0.634(3)
N6M N 0.773(4) 0.741(3) 0.634(3)
N6K N 0.259(3) 0.227(4) 0.634(3)
N6O N 0.259(3) 0.032(3) 0.634(3)
N6J N 0.773(4) 0.032(3) 0.634(3)
N6Q N 0.968(3) 0.227(4) 0.634(3)
N6A N 0.227(4) 0.259(3) 0.366(3)
N6U N 0.032(3) 0.259(3) 0.366(3)
N6W N 0.741(3) 0.773(4) 0.366(3)
N6C N 0.741(3) 0.968(3) 0.366(3)
N6F N 0.227(4) -0.032(3) 0.134(3)
N6N N 0.032(3) -0.227(4) 0.134(3)
N6L_2 N 0.741(3) -0.032(3) 0.134(3)
N6G_2 N 0.741(3) -0.227(4) 0.134(3)
C1B C 0.4917(9) -0.0166(13) 0.2500
C1D C 1.0166(13) 0.5083(9) 0.2500
C1C C 0.5083(9) 0.4917(9) -0.2500
C1C_2 C 0.5083(9) 0.4917(9) 0.7500
C1E C 0.5083(9) 0.0166(13) -0.2500
C2S C 0.3505(13) 0.2256(20) -0.0861(10)
C2D C 0.7744(20) 0.6495(13) -0.0861(10)
C2T C 0.8751(15) 0.6495(13) -0.0861(10)
C2B C 0.8751(15) 0.2256(20) -0.0861(10)
C2R C 0.7744(20) 0.1249(15) -0.0861(10)
C2G C 0.6495(13) 0.7744(20) 0.0861(10)
C2L C 0.6495(13) 0.8751(15) 0.0861(10)
C2P C 0.2256(20) 0.3505(13) 0.0861(10)
C2H C 0.1249(15) 0.3505(13) 0.0861(10)
C2I C 0.8751(15) 0.6495(13) 0.5861(10)
C2M C 0.7744(20) 0.6495(13) 0.5861(10)
C2K C 0.3505(13) 0.2256(20) 0.5861(10)
C2O C 0.3505(13) 0.1249(15) 0.5861(10)
C2J C 0.7744(20) 0.1249(15) 0.5861(10)
C2Q C 0.8751(15) 0.2256(20) 0.5861(10)
C2A C 0.2256(20) 0.3505(13) 0.4139(10)
C2U C 0.1249(15) 0.3505(13) 0.4139(10)
C2W C 0.6495(13) 0.7744(20) 0.4139(10)
C2C C 0.6495(13) 0.8751(15) 0.4139(10)
C2F C 0.2256(20) -0.1249(15) 0.0861(10)
C2N C 0.1249(15) -0.2256(20) 0.0861(10)
C2L_2 C 0.6495(13) -0.1249(15) 0.0861(10)
C2G_2 C 0.6495(13) -0.2256(20) 0.0861(10)
loop_
_geom_bond_atom_site_label_1
_geom_bond_atom_site_label_2
_geom_bond_site_symmetry_1
_geom_bond_site_symmetry_2
Cd1 N3 1_555 1_555
Cd2 N2 1_555 1_555
N1 C1 1_555 1_555
N2 N3 1_555 1_555
N3 N3I 1_555 1_555
N4 Cd1 1_555 1_555
N5 N4 1_555 1_555
N6 C2 1_555 1_555
C1 N2 1_555 1_555
C2 N5 1_555 1_555
Cd1I N3I 1_555 1_555
Cd1H N3H 1_555 1_555
Cd1C N3C 1_555 1_555
Cd1C_2 N3C_2 1_555 1_555
Cd1H_2 N3H_2 1_555 1_555
Cd1G N3G 1_555 1_555
Cd1E N3E 1_555 1_555
Cd2C N2I 1_555 1_555
Cd2B N5 1_555 1_555
Cd2E N2K 1_555 1_555
Cd2D N2D 1_555 1_555
Cd2A N2J 1_555 1_555
Cd2C_2 N2C 1_555 1_555
Cd2B_2 N5L 1_555 1_555
Cd2D_2 N5H 1_555 1_555
Cd2_2 N2H_2 1_555 1_555
Cd2A_2 N5U 1_555 1_555
Cd2E_2 N5C 1_555 1_555
Cd2E_3 N2E 1_555 1_555
Cd2D_3 N5N 1_555 1_555
Cd2_3 N5G_2 1_555 1_555
N1B C1B 1_555 1_555
N1D C1D 1_555 1_555
N1C C1C 1_555 1_555
N1C_2 C1C_2 1_555 1_555
N1E C1E 1_555 1_555
N2I C1 1_555 1_555
N2B Cd2B 1_555 1_555
N2K N3K 1_555 1_555
N2D N3D 1_555 1_555
N2J N3J 1_555 1_555
N2H Cd2 1_555 1_555
N2C N3C 1_555 1_555
N2C_2 Cd2C 1_555 1_555
N2H_2 N3H_2 1_555 1_555
N2G Cd2B 1_555 1_555
N2E N3E 1_555 1_555
N2E_2 Cd2E 1_555 1_555
N2F Cd2D 1_555 1_555
N2A Cd2A 1_555 1_555
N3I N2I 1_555 1_555
N3B Cd1 1_555 1_555
N3K Cd1I 1_555 1_555
N3D Cd1 1_555 1_555
N3J Cd1I 1_555 1_555
N3H N2H 1_555 1_555
N3C N3H 1_555 1_555
N3C_2 N2C_2 1_555 1_555
N3H_2 N3C_2 1_555 1_555
N3G N2G 1_555 1_555
N3E N3G 1_555 1_555
N3F Cd1H 1_555 1_555
N3G_2 Cd1H 1_555 1_555
N3E_2 Cd1C 1_555 1_555
N3A Cd1C 1_555 1_555
N4D Cd1 1_555 1_555
N4B Cd1 1_555 1_555
N4G Cd1H 1_555 1_555
N4H Cd1H 1_555 1_555
N4I Cd1I 1_555 1_555
N4K Cd1I 1_555 1_555
N4J Cd1I 1_555 1_555
N4A Cd1C_2 1_555 1_555
N4C Cd1C_2 1_555 1_555
N4F Cd1G 1_555 1_555
N4G_2 Cd1G 1_555 1_555
N4F_2 Cd1H 1_555 1_555
N4C_2 Cd1C 1_555 1_555
N4A_2 Cd1C 1_555 1_555
N4E Cd1C 1_555 1_555
N5S Cd2 1_555 1_555
N5D Cd2 1_555 1_555
N5T Cd2D 1_555 1_555
N5B Cd2D 1_555 1_555
N5R Cd2B 1_555 1_555
N5G Cd2 1_555 1_555
N5L N4G 1_555 1_555
N5P Cd2 1_555 1_555
N5H N4H 1_555 1_555
N5I Cd2A 1_555 1_555
N5M Cd2C 1_555 1_555
N5K Cd2C 1_555 1_555
N5O Cd2E 1_555 1_555
N5J Cd2E 1_555 1_555
N5Q Cd2A 1_555 1_555
N5A Cd2C 1_555 1_555
N5U N4A 1_555 1_555
N5W Cd2C 1_555 1_555
N5C N4C 1_555 1_555
N5F Cd2B 1_555 1_555
N5N N4F 1_555 1_555
N5L_2 Cd2B 1_555 1_555
N5G_2 N4G_2 1_555 1_555
N5C_2 Cd2E 1_555 1_555
N5V Cd2E 1_555 1_555
N5H_2 Cd2D 1_555 1_555
N5N_2 Cd2D 1_555 1_555
N5E Cd2A 1_555 1_555
N5U_2 Cd2A 1_555 1_555
N6S C2S 1_555 1_555
N6D C2D 1_555 1_555
N6T C2T 1_555 1_555
N6B C2B 1_555 1_555
N6R C2R 1_555 1_555
N6G C2G 1_555 1_555
N6L C2L 1_555 1_555
N6P C2P 1_555 1_555
N6H C2H 1_555 1_555
N6I C2I 1_555 1_555
N6M C2M 1_555 1_555
N6K C2K 1_555 1_555
N6O C2O 1_555 1_555
N6J C2J 1_555 1_555
N6Q C2Q 1_555 1_555
N6A C2A 1_555 1_555
N6U C2U 1_555 1_555
N6W C2W 1_555 1_555
N6C C2C 1_555 1_555
N6F C2F 1_555 1_555
N6N C2N 1_555 1_555
N6L_2 C2L_2 1_555 1_555
N6G_2 C2G_2 1_555 1_555
C1B N2B 1_555 1_555
C1D N2D 1_555 1_555
C1C N2H 1_555 1_555
C1C_2 N2C_2 1_555 1_555
C1E N2G 1_555 1_555
C2S C2 1_555 1_555
C2D N5D 1_555 1_555
C2T N5T 1_555 1_555
C2B N5B 1_555 1_555
C2R N5R 1_555 1_555
C2G N5G 1_555 1_555
C2L N5L 1_555 1_555
C2P N5P 1_555 1_555
C2H N5H 1_555 1_555
C2I N5I 1_555 1_555
C2M N5M 1_555 1_555
C2K N5K 1_555 1_555
C2O N5O 1_555 1_555
C2J N5J 1_555 1_555
C2Q N5Q 1_555 1_555
C2A N5A 1_555 1_555
C2U N5U 1_555 1_555
C2W N5W 1_555 1_555
C2C N5C 1_555 1_555
C2F N5F 1_555 1_555
C2N N5N 1_555 1_555
C2L_2 N5L_2 1_555 1_555
C2G_2 N5G_2 1_555 1_555
N4 N5S 1_555 1_555
N2B N3B 1_555 1_555
N2K C1B 1_555 1_555
N2J C1D 1_555 1_555
N2C C1C 1_555 1_555
N2H_2 C1C_2 1_555 1_555
N2E C1E 1_555 1_555
N3B N3K 1_555 1_555
N3D N3J 1_555 1_555
N3F N3A 1_555 1_555
N3G_2 N3E_2 1_555 1_555
N4D N5D 1_555 1_555
N4D N5T 1_555 1_555
N4B N5B 1_555 1_555
N4B N5R 1_555 1_555
N4G N5G 1_555 1_555
N4H N5P 1_555 1_555
N4I N5I 1_555 1_555
N4I N5M 1_555 1_555
N4K N5K 1_555 1_555
N4K N5O 1_555 1_555
N4J N5J 1_555 1_555
N4J N5Q 1_555 1_555
N4A N5A 1_555 1_555
N4C N5W 1_555 1_555
N4F N5F 1_555 1_555
N4G_2 N5L_2 1_555 1_555
N5S C2S 1_555 1_555
C2D C2T 1_555 1_555
C2B C2R 1_555 1_555
C2G C2L 1_555 1_555
C2P C2H 1_555 1_555
C2I C2M 1_555 1_555
C2K C2O 1_555 1_555
C2J C2Q 1_555 1_555
C2A C2U 1_555 1_555
C2W C2C 1_555 1_555
C2F C2N 1_555 1_555
C2L_2 C2G_2 1_555 1_555

#END
