
#######################################################################
#
#                 Cambridge Crystallographic Data Centre
#                                CCDC 
#
#######################################################################
#
# If this CIF has been generated from an entry in the Cambridge 
# Structural Database, then it will include bibliographic, chemical, 
# crystal, experimental, refinement or atomic coordinate data resulting 
# from the CCDC's data processing and validation procedures.
#
#######################################################################

data_LOGBEO
_chemical_formula_moiety         '(C56 H4 Al3 N16 O14 P3)n'
_symmetry_cell_setting           tetragonal
_symmetry_space_group_name_H-M   'P 4/n'
_symmetry_Int_Tables_number      85
_space_group_name_Hall           '-P 4a'
loop_
_symmetry_equiv_pos_site_id
_symmetry_equiv_pos_as_xyz
1 x,y,z
2 1/2-y,x,z
3 y,1/2-x,z
4 1/2-x,1/2-y,z
5 -x,-y,-z
6 1/2+y,-x,-z
7 -y,1/2+x,-z
8 1/2+x,1/2+y,-z
_cell_length_a                   18.691(2)
_cell_length_b                   18.691(2)
_cell_length_c                   9.4230(10)
_cell_angle_alpha                90
_cell_angle_beta                 90
_cell_angle_gamma                90
_cell_volume                     3291.96
loop_
_atom_site_label
_atom_site_type_symbol
_atom_site_fract_x
_atom_site_fract_y
_atom_site_fract_z
O2 O 0.2500 0.2500 1.2550(21)
N1 N 0.3948 0.2638 0.6431
C1 C 0.4601 0.2412 0.5655
N2 N 0.4283 0.2402 0.6719
C2 C 0.4948 0.2182 0.5974
N3 N 0.4072 0.2197 0.6005
C3 C 0.3986 0.2094 0.7556
N4 N 0.3627 0.2251 0.6606
C4 C 0.4139 0.2270 0.5396
C5 C 0.3742 0.1813 0.6827
C6 C 0.3449 0.1503 0.5420
C7 C 0.4157 0.2960 0.5565
C8 C 0.3598 0.1752 0.5071
C9 C 0.3329 0.2800 0.5470
C10 C 0.3766 0.2174 0.7670
C11 C 0.3562 0.1382 0.7411
C12 C 0.3817 0.2777 0.7735
C13 C 0.3514 0.1512 0.7171
C14 C 0.3995 0.3096 0.6164
C7B C 0.2960 0.0843 0.5565
C9B C 0.2800 0.1671 0.5470
C14B C 0.3096 0.1005 0.6164
C6A C 0.3497 0.3449 0.5420
C8A C 0.3248 0.3598 0.5071
C12B C 0.2777 0.1183 0.7735
C13A C 0.3488 0.3514 0.7171
C11A C 0.3618 0.3562 0.7411
N1B N 0.2638 0.1052 0.6431
C1B C 0.2412 0.0399 0.5655
N2B N 0.2402 0.0717 0.6719
N3B N 0.2197 0.0928 0.6005
C4B C 0.2270 0.0861 0.5396
N4B N 0.2251 0.1373 0.6606
C5A C 0.3187 0.3742 0.6827
N3A N 0.2803 0.4072 0.6005
N4A N 0.2749 0.3627 0.6606
C4A C 0.2730 0.4139 0.5396
C3B C 0.2094 0.1014 0.7556
C10B C 0.2174 0.1234 0.7670
C3A C 0.2906 0.3986 0.7556
C10A C 0.2826 0.3766 0.7670
C5B C 0.1813 0.1258 0.6827
C2B C 0.2182 0.0052 0.5974
C8B C 0.1752 0.1402 0.5071
C13B C 0.1512 0.1486 0.7171
N1A N 0.2362 0.3948 0.6431
N2A N 0.2598 0.4283 0.6719
C1A C 0.2588 0.4601 0.5655
C2A C 0.2818 0.4948 0.5974
C7A C 0.2040 0.4157 0.5565
C14A C 0.1904 0.3995 0.6164
C9A C 0.2200 0.3329 0.5470
C12A C 0.2223 0.3817 0.7735
C11B C 0.1382 0.1438 0.7411
C6B C 0.1503 0.1551 0.5420
C9C C 0.1671 0.2200 0.5470
C12C C 0.1183 0.2223 0.7735
C14C C 0.1005 0.1904 0.6164
C6C C 0.1551 0.3497 0.5420
C11C C 0.1438 0.3618 0.7411
C13C C 0.1486 0.3488 0.7171
C8C C 0.1402 0.3248 0.5071
C7C C 0.0843 0.2040 0.5565
N1C N 0.1052 0.2362 0.6431
N4C N 0.1373 0.2749 0.6606
N2C N 0.0717 0.2598 0.6719
C3C C 0.1014 0.2906 0.7556
C10C C 0.1234 0.2826 0.7670
N3C N 0.0928 0.2803 0.6005
C4C C 0.0861 0.2730 0.5396
C5C C 0.1258 0.3187 0.6827
C1C C 0.0399 0.2588 0.5655
C2C C 0.0052 0.2818 0.5974
P1 P 0.06489(3) 0.55720(2) 0.33558(5)
O3 O 0.05926(11) 0.62405(8) 0.2451(2)
O4 O 0.07494(11) 0.58091(10) 0.4891(2)
O5 O 0.12878(10) 0.51258(9) 0.2938(2)
O6 O -0.00461(9) 0.51641(9) 0.3214(2)
Al1 Al 0.06521(4) 0.66548(3) 0.08049(7)
P2 P -0.05034(2) 0.66641(2) -0.16022(5)
O7 O -0.01476(9) 0.65644(10) -0.0164(2)
O8 O -0.00287(9) 0.63711(9) -0.2784(2)
O9 O -0.12185(9) 0.62916(10) -0.1574(2)
O10 O -0.06258(11) 0.74461(8) -0.1912(2)
Al2 Al 0.16393(4) 0.45581(3) 0.15605(7)
P3 P 0.16582(3) 0.56733(2) -0.09549(5)
O11 O 0.15410(10) 0.49995(10) -0.0114(2)
O12 O 0.13802(10) 0.63261(10) -0.0170(2)
O13 O 0.13009(11) 0.56064(9) -0.2391(2)
O14 O 0.24457(11) 0.58017(8) -0.1223(2)
Al3 Al 0.05065(4) 0.56577(4) 0.66541(7)
Al3D Al -0.05065(4) 0.43423(4) 0.33459(7)
Al3_2 Al 0.05065(4) 0.56577(4) -0.33459(7)
Al2D Al -0.16393(4) 0.54419(3) -0.15605(7)
Al2E Al -0.04419(3) 0.83607(4) -0.15605(7)
O9D O 0.12185(9) 0.37084(10) 0.1574(2)
O10F O 0.25539(8) 0.43742(11) 0.1912(2)
O14E O 0.08017(8) 0.75543(11) 0.1223(2)
O6D O 0.00461(9) 0.48359(9) 0.6786(2)
O8_2 O -0.00287(9) 0.63711(9) 0.7216(2)
O13_2 O 0.13009(11) 0.56064(9) 0.7609(2)
Al1F Al 0.33452(3) 0.56521(4) -0.08049(7)
O1 O 0.2500 0.2500 0.6892(19)
loop_
_geom_bond_atom_site_label_1
_geom_bond_atom_site_label_2
_geom_bond_site_symmetry_1
_geom_bond_site_symmetry_2
N1 C1 1_555 1_555
C1 N2 1_555 1_555
N2 N1 1_555 1_555
C2 C1 1_555 1_555
N3 N1 1_555 1_555
C3 N1 1_555 1_555
N4 N1 1_555 1_555
C4 N1 1_555 1_555
C5 N1 1_555 1_555
C6 C5 1_555 1_555
C7 N1 1_555 1_555
C8 N3 1_555 1_555
C9 N1 1_555 1_555
C10 N1 1_555 1_555
C11 C3 1_555 1_555
C12 N1 1_555 1_555
C13 C3 1_555 1_555
C14 N1 1_555 1_555
P1 O3 1_555 1_555
O3 Al1 1_555 1_555
O4 P1 1_555 1_555
O5 P1 1_555 1_555
O6 P1 1_555 1_555
Al1 O7 1_555 1_555
P2 O7 1_555 1_555
O8 P2 1_555 1_555
O9 P2 1_555 1_555
O10 P2 1_555 1_555
Al2 O5 1_555 1_555
P3 O11 1_555 1_555
O11 Al2 1_555 1_555
O12 Al1 1_555 1_555
O13 P3 1_555 1_555
O14 P3 1_555 1_555
Al3 O4 1_555 1_555
C7B C6 1_555 1_555
C9B C6 1_555 1_555
C14B C6 1_555 1_555
C6A C7 1_555 1_555
C8A C9 1_555 1_555
C12B C11 1_555 1_555
C13A C12 1_555 1_555
C11A C12 1_555 1_555
N1B C7B 1_555 1_555
C1B C7B 1_555 1_555
N2B C7B 1_555 1_555
N3B C7B 1_555 1_555
C4B C7B 1_555 1_555
N4B C9B 1_555 1_555
C5A C6A 1_555 1_555
N3A C8A 1_555 1_555
N4A C8A 1_555 1_555
C4A C8A 1_555 1_555
C3B C12B 1_555 1_555
C10B C12B 1_555 1_555
C3A C13A 1_555 1_555
C10A C13A 1_555 1_555
C5B N1B 1_555 1_555
C2B C1B 1_555 1_555
C8B N3B 1_555 1_555
C13B N4B 1_555 1_555
N1A C5A 1_555 1_555
N2A C5A 1_555 1_555
C1A N3A 1_555 1_555
C2A N3A 1_555 1_555
C7A N3A 1_555 1_555
C14A N3A 1_555 1_555
C9A N4A 1_555 1_555
C12A N4A 1_555 1_555
C11B C3B 1_555 1_555
C6B C5B 1_555 1_555
C9C C8B 1_555 1_555
C12C C13B 1_555 1_555
C14C C13B 1_555 1_555
C6C C7A 1_555 1_555
C11C C14A 1_555 1_555
C13C C14A 1_555 1_555
C8C C9A 1_555 1_555
C7C C6B 1_555 1_555
N1C C9C 1_555 1_555
N4C C9C 1_555 1_555
N2C C12C 1_555 1_555
C3C C12C 1_555 1_555
C10C C12C 1_555 1_555
N3C C14C 1_555 1_555
C4C C14C 1_555 1_555
C5C C6C 1_555 1_555
C1C C7C 1_555 1_555
C2C N2C 1_555 1_555
Al3D O6 1_555 1_555
Al3_2 O8 1_555 1_555
Al2D O9 1_555 1_555
Al2E O10 1_555 1_555
O9D Al2 1_555 1_555
O10F Al2 1_555 1_555
O14E Al1 1_555 1_555
O6D Al3 1_555 1_555
O8_2 Al3 1_555 1_555
O13_2 Al3 1_555 1_555
Al1F O14 1_555 1_555
C1 N3 1_555 1_555
C1 C4 1_555 1_555
C1 C7 1_555 1_555
N2 C2 1_555 1_555
N2 N3 1_555 1_555
N2 C3 1_555 1_555
N2 N4 1_555 1_555
N2 C4 1_555 1_555
N2 C5 1_555 1_555
N2 C7 1_555 1_555
N2 C10 1_555 1_555
N2 C12 1_555 1_555
N2 C14 1_555 1_555
C2 N3 1_555 1_555
C2 C4 1_555 1_555
N3 C3 1_555 1_555
N3 N4 1_555 1_555
N3 C4 1_555 1_555
N3 C5 1_555 1_555
N3 C7 1_555 1_555
N3 C10 1_555 1_555
N3 C14 1_555 1_555
C3 N4 1_555 1_555
C3 C5 1_555 1_555
C3 C10 1_555 1_555
C3 C12 1_555 1_555
N4 C4 1_555 1_555
N4 C5 1_555 1_555
N4 C8 1_555 1_555
N4 C9 1_555 1_555
N4 C10 1_555 1_555
N4 C12 1_555 1_555
N4 C13 1_555 1_555
C4 C7 1_555 1_555
C4 C8 1_555 1_555
C4 C14 1_555 1_555
C5 C8 1_555 1_555
C5 C10 1_555 1_555
C5 C11 1_555 1_555
C5 C13 1_555 1_555
C6 C8 1_555 1_555
C6 C13 1_555 1_555
C7 C9 1_555 1_555
C7 C14 1_555 1_555
C8 C9B 1_555 1_555
C9 C14 1_555 1_555
C9 C6A 1_555 1_555
C10 C11 1_555 1_555
C10 C12 1_555 1_555
C10 C13 1_555 1_555
C11 C13 1_555 1_555
C11 C14B 1_555 1_555
C12 C14 1_555 1_555
C13 C14B 1_555 1_555
C13 C12B 1_555 1_555
C14 C6A 1_555 1_555
C14 C13A 1_555 1_555
C14 C11A 1_555 1_555
P3 O12 1_555 1_555
O13 Al3_2 1_555 1_555
C7B C9B 1_555 1_555
C7B C14B 1_555 1_555
C9B C14B 1_555 1_555
C9B N1B 1_555 1_555
C14B C12B 1_555 1_555
C14B N1B 1_555 1_555
C14B N2B 1_555 1_555
C14B N3B 1_555 1_555
C14B C4B 1_555 1_555
C6A C8A 1_555 1_555
C6A C13A 1_555 1_555
C8A C5A 1_555 1_555
C12B N1B 1_555 1_555
C12B N2B 1_555 1_555
C12B N4B 1_555 1_555
C13A C11A 1_555 1_555
C13A C5A 1_555 1_555
C13A N4A 1_555 1_555
C11A C5A 1_555 1_555
C11A C3A 1_555 1_555
C11A C10A 1_555 1_555
N1B C1B 1_555 1_555
N1B N2B 1_555 1_555
N1B N3B 1_555 1_555
N1B C4B 1_555 1_555
N1B N4B 1_555 1_555
N1B C3B 1_555 1_555
N1B C10B 1_555 1_555
C1B N2B 1_555 1_555
C1B N3B 1_555 1_555
C1B C4B 1_555 1_555
N2B N3B 1_555 1_555
N2B C4B 1_555 1_555
N2B N4B 1_555 1_555
N2B C3B 1_555 1_555
N2B C10B 1_555 1_555
N2B C5B 1_555 1_555
N2B C2B 1_555 1_555
N3B C4B 1_555 1_555
N3B N4B 1_555 1_555
N3B C3B 1_555 1_555
N3B C10B 1_555 1_555
N3B C5B 1_555 1_555
N3B C2B 1_555 1_555
C4B N4B 1_555 1_555
C4B C2B 1_555 1_555
C4B C8B 1_555 1_555
N4B C3B 1_555 1_555
N4B C10B 1_555 1_555
N4B C5B 1_555 1_555
N4B C8B 1_555 1_555
C5A N3A 1_555 1_555
C5A N4A 1_555 1_555
C5A C3A 1_555 1_555
C5A C10A 1_555 1_555
N3A N4A 1_555 1_555
N3A C4A 1_555 1_555
N3A C3A 1_555 1_555
N3A C10A 1_555 1_555
N3A N1A 1_555 1_555
N3A N2A 1_555 1_555
N4A C4A 1_555 1_555
N4A C3A 1_555 1_555
N4A C10A 1_555 1_555
N4A N1A 1_555 1_555
N4A N2A 1_555 1_555
C4A N1A 1_555 1_555
C4A N2A 1_555 1_555
C4A C1A 1_555 1_555
C4A C2A 1_555 1_555
C4A C7A 1_555 1_555
C4A C14A 1_555 1_555
C3B C10B 1_555 1_555
C3B C5B 1_555 1_555
C3B C13B 1_555 1_555
C10B C5B 1_555 1_555
C10B C13B 1_555 1_555
C10B C11B 1_555 1_555
C3A C10A 1_555 1_555
C3A N1A 1_555 1_555
C3A N2A 1_555 1_555
C3A C12A 1_555 1_555
C10A N1A 1_555 1_555
C10A N2A 1_555 1_555
C10A C12A 1_555 1_555
C5B C8B 1_555 1_555
C5B C13B 1_555 1_555
C5B C11B 1_555 1_555
C8B C6B 1_555 1_555
C13B C11B 1_555 1_555
C13B C6B 1_555 1_555
N1A N2A 1_555 1_555
N1A C1A 1_555 1_555
N1A C7A 1_555 1_555
N1A C14A 1_555 1_555
N1A C9A 1_555 1_555
N1A C12A 1_555 1_555
N2A C1A 1_555 1_555
N2A C2A 1_555 1_555
N2A C7A 1_555 1_555
N2A C14A 1_555 1_555
N2A C12A 1_555 1_555
C1A C2A 1_555 1_555
C1A C7A 1_555 1_555
C7A C14A 1_555 1_555
C7A C9A 1_555 1_555
C14A C9A 1_555 1_555
C14A C12A 1_555 1_555
C14A C6C 1_555 1_555
C9A C6C 1_555 1_555
C12A C11C 1_555 1_555
C12A C13C 1_555 1_555
C11B C12C 1_555 1_555
C11B C14C 1_555 1_555
C6B C9C 1_555 1_555
C6B C14C 1_555 1_555
C9C C14C 1_555 1_555
C9C C7C 1_555 1_555
C12C C14C 1_555 1_555
C12C N1C 1_555 1_555
C12C N4C 1_555 1_555
C14C C7C 1_555 1_555
C14C N1C 1_555 1_555
C14C N2C 1_555 1_555
C6C C13C 1_555 1_555
C6C C8C 1_555 1_555
C11C C13C 1_555 1_555
C11C C3C 1_555 1_555
C11C C10C 1_555 1_555
C11C C5C 1_555 1_555
C13C N4C 1_555 1_555
C13C C3C 1_555 1_555
C13C C10C 1_555 1_555
C13C C5C 1_555 1_555
C8C N4C 1_555 1_555
C8C N3C 1_555 1_555
C8C C4C 1_555 1_555
C8C C5C 1_555 1_555
C7C N1C 1_555 1_555
C7C N2C 1_555 1_555
C7C N3C 1_555 1_555
C7C C4C 1_555 1_555
N1C N4C 1_555 1_555
N1C N2C 1_555 1_555
N1C C3C 1_555 1_555
N1C C10C 1_555 1_555
N1C N3C 1_555 1_555
N1C C4C 1_555 1_555
N1C C5C 1_555 1_555
N1C C1C 1_555 1_555
N4C N2C 1_555 1_555
N4C C3C 1_555 1_555
N4C C10C 1_555 1_555
N4C N3C 1_555 1_555
N4C C4C 1_555 1_555
N4C C5C 1_555 1_555
N2C C3C 1_555 1_555
N2C C10C 1_555 1_555
N2C N3C 1_555 1_555
N2C C4C 1_555 1_555
N2C C5C 1_555 1_555
N2C C1C 1_555 1_555
C3C C10C 1_555 1_555
C3C N3C 1_555 1_555
C3C C5C 1_555 1_555
C10C N3C 1_555 1_555
C10C C5C 1_555 1_555
N3C C4C 1_555 1_555
N3C C5C 1_555 1_555
N3C C1C 1_555 1_555
N3C C2C 1_555 1_555
C4C C1C 1_555 1_555
C4C C2C 1_555 1_555
C1C C2C 1_555 1_555

#END
