
#######################################################################
#
#                 Cambridge Crystallographic Data Centre
#                                CCDC 
#
#######################################################################
#
# If this CIF has been generated from an entry in the Cambridge 
# Structural Database, then it will include bibliographic, chemical, 
# crystal, experimental, refinement or atomic coordinate data resulting 
# from the CCDC's data processing and validation procedures.
#
#######################################################################

data_KULMEK
_chemical_formula_moiety         'C42 H12 O19 Zn10'
_symmetry_cell_setting           rhombohedral
_symmetry_space_group_name_H-M   'R -3 m'
_symmetry_Int_Tables_number      166
_space_group_name_Hall           '-R 3 2"'
loop_
_symmetry_equiv_pos_site_id
_symmetry_equiv_pos_as_xyz
1 x,y,z
2 -y,x-y,z
3 -x+y,-x,z
4 x-y,-y,-z
5 -x,-x+y,-z
6 y,x,-z
7 2/3+x,1/3+y,1/3+z
8 2/3-y,1/3+x-y,1/3+z
9 2/3-x+y,1/3-x,1/3+z
10 2/3+x-y,1/3-y,1/3-z
11 2/3-x,1/3-x+y,1/3-z
12 2/3+y,1/3+x,1/3-z
13 1/3+x,2/3+y,2/3+z
14 1/3-y,2/3+x-y,2/3+z
15 1/3-x+y,2/3-x,2/3+z
16 1/3+x-y,2/3-y,2/3-z
17 1/3-x,2/3-x+y,2/3-z
18 1/3+y,2/3+x,2/3-z
19 -x,-y,-z
20 y,-x+y,-z
21 x-y,x,-z
22 -x+y,y,z
23 x,x-y,z
24 -y,-x,z
25 1/3-x,2/3-y,2/3-z
26 1/3+y,2/3-x+y,2/3-z
27 1/3+x-y,2/3+x,2/3-z
28 1/3-x+y,2/3+y,2/3+z
29 1/3+x,2/3+x-y,2/3+z
30 1/3-y,2/3-x,2/3+z
31 2/3-x,1/3-y,1/3-z
32 2/3+y,1/3-x+y,1/3-z
33 2/3+x-y,1/3+x,1/3-z
34 2/3-x+y,1/3+y,1/3+z
35 2/3+x,1/3+x-y,1/3+z
36 2/3-y,1/3-x,1/3+z
_cell_length_a                   23.8212(3)
_cell_length_b                   23.8212(3)
_cell_length_c                   30.2938(11)
_cell_angle_alpha                90
_cell_angle_beta                 90
_cell_angle_gamma                120
_cell_volume                     14887.2
loop_
_atom_site_label
_atom_site_type_symbol
_atom_site_fract_x
_atom_site_fract_y
_atom_site_fract_z
_atom_site_U_iso_or_equiv
_atom_site_thermal_displace_type
Zn1 Zn 0.0000 -0.0000 0.07759(4) 0.0841 Uani
Zn2 Zn 0.044436(16) 0.08887(3) 0.16150(2) 0.0937 Uani
O1 O 0.0000 -0.0000 0.14164(17) 0.0650 Uani
O2 O 0.07439(14) 0.1488(3) 0.1132(2) 0.2100 Uani
O3 O 0.04312(15) 0.0862(3) 0.05425(19) 0.1443 Uani
O4 O 0.3220(2) 0.55041(19) -0.13306(15) 0.1630 Uani
C1 C 0.0694(3) 0.1388(5) 0.0717(3) 0.1313 Uani
C2 C 0.0980(2) 0.1959(4) 0.0454(3) 0.1734 Uani
C3 C 0.1288(3) 0.2575(6) 0.0640(3) 0.3154 Uani
H1 H 0.1311 0.2622 0.0945 0.3770 Uiso
C4 C 0.1564(2) 0.3127(4) 0.0369(4) 0.3194 Uani
C5 C 0.1525(2) 0.3050(5) -0.0101(3) 0.2266 Uani
C6 C 0.1214(2) 0.2429(4) -0.0290(2) 0.1554 Uani
C7 C 0.09452(19) 0.1890(4) -0.0005(3) 0.1571 Uani
H2 H 0.0738 0.1476 -0.0125 0.1890 Uiso
C8 C 0.1815(3) 0.3629(5) -0.0388(4) 0.2286 Uani
C9 C 0.2466(4) 0.3921(4) -0.0517(3) 0.2433 Uani
C10 C 0.2729(4) 0.4471(4) -0.0782(3) 0.2250 Uani
H3 H 0.3162 0.4668 -0.0865 0.2700 Uiso
C11 C 0.2361(2) 0.4723(4) -0.0921(3) 0.1772 Uani
C12 C 0.2664(3) 0.5328(5) -0.1215(3) 0.1463 Uani
Zn2A Zn -0.08887(3) -0.044434(34) 0.16150(2) 0.0937 Uani
Zn2B Zn 0.044434(34) -0.044436(16) 0.16150(2) 0.0937 Uani
Zn2N Zn 0.377767(34) 0.622231(16) -0.17183(2) 0.0937 Uani
Zn2CA Zn 0.24446(3) 0.622231(16) -0.17183(2) 0.0937 Uani
Zn2L Zn -0.622231(16) -0.24446(3) -0.17183(2) 0.0937 Uani
Zn2BA Zn -0.622231(16) -0.377767(34) -0.17183(2) 0.0937 Uani
Zn2M Zn 0.24446(3) -0.377767(34) -0.17183(2) 0.0937 Uani
Zn2AA Zn 0.377767(34) -0.24446(3) -0.17183(2) 0.0937 Uani
O2A O -0.1488(3) -0.07441(33) 0.1132(2) 0.2100 Uani
O2B O 0.07441(33) -0.07439(14) 0.1132(2) 0.2100 Uani
O3A O -0.0862(3) -0.04308(34) 0.05425(19) 0.1443 Uani
O3B O 0.04308(34) -0.04312(15) 0.05425(19) 0.1443 Uani
O4U O 0.22841(28) 0.55041(19) -0.13306(15) 0.1630 Uani
O4A O -0.55041(19) -0.22841(28) -0.13306(15) 0.1630 Uani
O4W O -0.55041(19) -0.3220(2) -0.13306(15) 0.1630 Uani
O4B O 0.22841(28) -0.3220(2) -0.13306(15) 0.1630 Uani
O4V O 0.3220(2) -0.22841(28) -0.13306(15) 0.1630 Uani
O4G O 0.11626(19) 0.10492(28) 0.20027(15) 0.1630 Uani
O4HA O -0.0113(2) 0.10492(28) 0.20027(15) 0.1630 Uani
O4H O -0.10492(28) 0.0113(2) 0.20027(15) 0.1630 Uani
O4GA O -0.10492(28) -0.11626(19) 0.20027(15) 0.1630 Uani
O4F O -0.0113(2) -0.11626(19) 0.20027(15) 0.1630 Uani
O4IA O 0.11626(19) 0.0113(2) 0.20027(15) 0.1630 Uani
C1A C -0.1388(5) -0.0694(6) 0.0717(3) 0.1313 Uani
C1B C 0.0694(6) -0.0694(3) 0.0717(3) 0.1313 Uani
C2A C -0.1959(4) -0.0979(4) 0.0454(3) 0.1734 Uani
C2B C 0.0979(4) -0.0980(2) 0.0454(3) 0.1734 Uani
C3A C -0.2575(6) -0.1287(7) 0.0640(3) 0.3154 Uani
C3B C 0.1287(7) -0.1288(3) 0.0640(3) 0.3154 Uani
H1A H -0.2622 -0.1311 0.0945 0.3770 Uiso
H1B H 0.1311 -0.1311 0.0945 0.3770 Uiso
C4A C -0.3127(4) -0.1563(4) 0.0369(4) 0.3194 Uani
C4B C 0.1563(4) -0.1564(2) 0.0369(4) 0.3194 Uani
C5A C -0.3050(5) -0.1525(5) -0.0101(3) 0.2266 Uani
C5B C 0.1525(5) -0.1525(2) -0.0101(3) 0.2266 Uani
C6A C -0.2429(4) -0.1215(4) -0.0290(2) 0.1554 Uani
C6B C 0.1215(4) -0.1214(2) -0.0290(2) 0.1554 Uani
C7A C -0.1890(4) -0.09448(44) -0.0005(3) 0.1571 Uani
C7B C 0.09448(44) -0.09452(19) -0.0005(3) 0.1571 Uani
H2A H -0.1476 -0.0738 -0.0125 0.1890 Uiso
H2B H 0.0738 -0.0738 -0.0125 0.1890 Uiso
C8A C -0.3629(5) -0.1814(6) -0.0388(4) 0.2286 Uani
C8B C 0.1814(6) -0.1815(3) -0.0388(4) 0.2286 Uani
C9U C 0.1455(6) 0.3921(4) -0.0517(3) 0.2433 Uani
C9A C -0.3921(4) -0.1455(6) -0.0517(3) 0.2433 Uani
C9W C -0.3921(4) -0.2466(4) -0.0517(3) 0.2433 Uani
C9B C 0.1455(6) -0.2466(4) -0.0517(3) 0.2433 Uani
C9V C 0.2466(4) -0.1455(6) -0.0517(3) 0.2433 Uani
C10U C 0.1742(6) 0.4471(4) -0.0782(3) 0.2250 Uani
C10A C -0.4471(4) -0.1742(6) -0.0782(3) 0.2250 Uani
C10W C -0.4471(4) -0.2729(4) -0.0782(3) 0.2250 Uani
C10B C 0.1742(6) -0.2729(4) -0.0782(3) 0.2250 Uani
C10V C 0.2729(4) -0.1742(6) -0.0782(3) 0.2250 Uani
H3U H 0.1506 0.4668 -0.0865 0.2700 Uiso
H3A H -0.4668 -0.1506 -0.0865 0.2700 Uiso
H3W H -0.4668 -0.3162 -0.0865 0.2700 Uiso
H3B H 0.1506 -0.3162 -0.0865 0.2700 Uiso
H3V H 0.3162 -0.1506 -0.0865 0.2700 Uiso
C11A C -0.4723(4) -0.2362(4) -0.0921(3) 0.1772 Uani
C11B C 0.2362(4) -0.2361(2) -0.0921(3) 0.1772 Uani
C12A C -0.5328(5) -0.2664(6) -0.1215(3) 0.1463 Uani
C12B C 0.2664(6) -0.2664(3) -0.1215(3) 0.1463 Uani
loop_
_atom_site_aniso_label
_atom_site_aniso_U_11
_atom_site_aniso_U_22
_atom_site_aniso_U_33
_atom_site_aniso_U_23
_atom_site_aniso_U_13
_atom_site_aniso_U_12
Zn1 0.0918(6) 0.0918(6) 0.0687(7) 0.000 0.000 0.0459(3)
Zn2 0.1031(5) 0.0859(5) 0.0862(5) -0.0061(3) -0.00307(17) 0.0429(3)
O1 0.064(2) 0.064(2) 0.067(3) 0.000 0.000 0.0320(10)
O2 0.320(8) 0.110(4) 0.130(5) 0.038(4) 0.0191(19) 0.055(2)
O3 0.184(4) 0.112(4) 0.113(4) 0.043(3) 0.0214(16) 0.056(2)
O4 0.164(4) 0.134(3) 0.177(4) 0.055(3) -0.001(3) 0.064(3)
C1 0.165(6) 0.125(7) 0.090(6) 0.061(6) 0.030(3) 0.062(3)
C2 0.209(8) 0.124(8) 0.159(10) 0.031(7) 0.015(4) 0.062(4)
C3 0.55(3) 0.157(10) 0.109(8) 0.053(8) 0.026(4) 0.079(5)
C4 0.52(2) 0.121(8) 0.185(12) 0.076(9) 0.038(4) 0.061(4)
C5 0.311(12) 0.149(10) 0.165(11) 0.091(9) 0.045(5) 0.074(5)
C6 0.201(7) 0.116(6) 0.121(6) 0.041(6) 0.021(3) 0.058(3)
C7 0.198(7) 0.123(7) 0.126(7) 0.026(6) 0.013(3) 0.062(3)
C8 0.339(17) 0.107(8) 0.163(9) 0.077(7) 0.038(3) 0.054(4)
C9 0.230(9) 0.166(7) 0.258(10) 0.127(7) -0.020(7) 0.042(6)
C10 0.230(9) 0.148(6) 0.219(8) 0.099(6) -0.008(6) 0.036(6)
C11 0.247(11) 0.098(6) 0.137(8) 0.059(6) 0.029(3) 0.049(3)
C12 0.140(5) 0.183(10) 0.131(7) 0.047(6) 0.024(3) 0.092(5)
Zn2A 0.0859 0.1032 0.0862 0.00303 0.0061 0.043
Zn2B 0.1032 0.1031 0.0862 0.00307 -0.00303 0.0602
Zn2N 0.1032 0.1031 0.0862 0.00307 -0.00303 0.0602
Zn2CA 0.0859 0.1032 0.0862 0.00303 0.0061 0.043
Zn2L 0.1031 0.0859 0.0862 -0.0061 -0.00307 0.0429
Zn2BA 0.1032 0.1031 0.0862 0.00307 -0.00303 0.0602
Zn2M 0.0859 0.1032 0.0862 0.00303 0.0061 0.043
Zn2AA 0.1031 0.0859 0.0862 -0.0061 -0.00307 0.0429
O2A 0.11 0.32 0.13 -0.0189 -0.038 0.055
O2B 0.32 0.32 0.13 -0.0191 0.0189 0.265
O3A 0.112 0.184 0.113 -0.0216 -0.043 0.056
O3B 0.184 0.184 0.113 -0.0214 0.0216 0.128
O4U 0.17 0.134 0.177 0.055 0.056 0.07
O4A 0.134 0.17 0.177 -0.056 -0.055 0.07
O4W 0.134 0.164 0.177 0.001 -0.055 0.064
O4B 0.17 0.164 0.177 0.001 0.056 0.1
O4V 0.164 0.17 0.177 -0.056 -0.001 0.1
O4G 0.134 0.17 0.177 -0.056 -0.055 0.07
O4HA 0.164 0.17 0.177 -0.056 -0.001 0.1
O4H 0.17 0.164 0.177 0.001 0.056 0.1
O4GA 0.17 0.134 0.177 0.055 0.056 0.07
O4F 0.164 0.134 0.177 0.055 -0.001 0.064
O4IA 0.134 0.164 0.177 0.001 -0.055 0.064
C1A 0.125 0.166 0.09 -0.031 -0.061 0.063
C1B 0.166 0.165 0.09 -0.03 0.031 0.103
C2A 0.124 0.209 0.159 -0.016 -0.031 0.062
C2B 0.209 0.209 0.159 -0.015 0.016 0.147
C3A 0.157 0.549 0.109 -0.027 -0.053 0.078
C3B 0.549 0.55 0.109 -0.026 0.027 0.471
C4A 0.121 0.519 0.185 -0.038 -0.076 0.06
C4B 0.519 0.52 0.185 -0.038 0.038 0.459
C5A 0.149 0.312 0.165 -0.046 -0.091 0.075
C5B 0.312 0.311 0.165 -0.045 0.046 0.237
C6A 0.116 0.201 0.121 -0.02 -0.041 0.058
C6B 0.201 0.201 0.121 -0.021 0.02 0.143
C7A 0.123 0.197 0.126 -0.013 -0.026 0.061
C7B 0.197 0.198 0.126 -0.013 0.013 0.136
C8A 0.107 0.338 0.163 -0.039 -0.077 0.053
C8B 0.338 0.339 0.163 -0.038 0.039 0.285
C9U 0.312 0.166 0.258 0.127 0.147 0.124
C9A 0.166 0.312 0.258 -0.147 -0.127 0.124
C9W 0.166 0.23 0.258 0.02 -0.127 0.042
C9B 0.312 0.23 0.258 0.02 0.147 0.188
C9V 0.23 0.312 0.258 -0.147 -0.02 0.188
C10U 0.306 0.148 0.219 0.099 0.107 0.112
C10A 0.148 0.306 0.219 -0.107 -0.099 0.112
C10W 0.148 0.23 0.219 0.008 -0.099 0.036
C10B 0.306 0.23 0.219 0.008 0.107 0.194
C10V 0.23 0.306 0.219 -0.107 -0.008 0.194
C11A 0.098 0.247 0.137 -0.03 -0.059 0.049
C11B 0.247 0.247 0.137 -0.029 0.03 0.198
C12A 0.183 0.139 0.131 -0.023 -0.047 0.091
C12B 0.139 0.14 0.131 -0.024 0.023 0.048
loop_
_geom_bond_atom_site_label_1
_geom_bond_atom_site_label_2
_geom_bond_site_symmetry_1
_geom_bond_site_symmetry_2
Zn1 O1 1_555 1_555
Zn2 O1 1_555 1_555
O1 Zn2A 1_555 1_555
O2 Zn2 1_555 1_555
O3 Zn1 1_555 1_555
O4 C12 1_555 1_555
C1 O2 1_555 1_555
C2 C1 1_555 1_555
C3 C2 1_555 1_555
H1 C3 1_555 1_555
C4 C3 1_555 1_555
C5 C4 1_555 1_555
C6 C5 1_555 1_555
C7 C2 1_555 1_555
H2 C7 1_555 1_555
C8 C5 1_555 1_555
C9 C8 1_555 1_555
C10 C9 1_555 1_555
H3 C10 1_555 1_555
C11 C10 1_555 1_555
C12 C11 1_555 1_555
Zn2A O2A 1_555 1_555
Zn2B O1 1_555 1_555
Zn2N O4 1_555 1_555
Zn2CA O4U 1_555 1_555
Zn2L O4A 1_555 1_555
Zn2BA O4W 1_555 1_555
Zn2M O4B 1_555 1_555
Zn2AA O4V 1_555 1_555
O2A C1A 1_555 1_555
O2B Zn2B 1_555 1_555
O3A Zn1 1_555 1_555
O3B Zn1 1_555 1_555
O4U C12 1_555 1_555
O4A C12A 1_555 1_555
O4W C12A 1_555 1_555
O4B C12B 1_555 1_555
O4V C12B 1_555 1_555
O4G Zn2 1_555 1_555
O4HA Zn2 1_555 1_555
O4H Zn2A 1_555 1_555
O4GA Zn2A 1_555 1_555
O4F Zn2B 1_555 1_555
O4IA Zn2B 1_555 1_555
C1A O3A 1_555 1_555
C1B O2B 1_555 1_555
C2A C1A 1_555 1_555
C2B C1B 1_555 1_555
C3A C2A 1_555 1_555
C3B C2B 1_555 1_555
H1A C3A 1_555 1_555
H1B C3B 1_555 1_555
C4A C3A 1_555 1_555
C4B C3B 1_555 1_555
C5A C4A 1_555 1_555
C5B C4B 1_555 1_555
C6A C5A 1_555 1_555
C6B C5B 1_555 1_555
C7A C2A 1_555 1_555
C7B C2B 1_555 1_555
H2A C7A 1_555 1_555
H2B C7B 1_555 1_555
C8A C5A 1_555 1_555
C8B C5B 1_555 1_555
C9U C8 1_555 1_555
C9A C8A 1_555 1_555
C9W C8A 1_555 1_555
C9B C8B 1_555 1_555
C9V C8B 1_555 1_555
C10U C11 1_555 1_555
C10A C9A 1_555 1_555
C10W C9W 1_555 1_555
C10B C9B 1_555 1_555
C10V C9V 1_555 1_555
H3U C10U 1_555 1_555
H3A C10A 1_555 1_555
H3W C10W 1_555 1_555
H3B C10B 1_555 1_555
H3V C10V 1_555 1_555
C11A C10A 1_555 1_555
C11B C10B 1_555 1_555
C12A C11A 1_555 1_555
C12B C11B 1_555 1_555
O3 C1 1_555 1_555
C6 C7 1_555 1_555
O3B C1B 1_555 1_555
C6A C7A 1_555 1_555
C6B C7B 1_555 1_555
C9U C10U 1_555 1_555
C10W C11A 1_555 1_555
C10V C11B 1_555 1_555

#END
