
#######################################################################
#
#                 Cambridge Crystallographic Data Centre
#                                CCDC 
#
#######################################################################
#
# If this CIF has been generated from an entry in the Cambridge 
# Structural Database, then it will include bibliographic, chemical, 
# crystal, experimental, refinement or atomic coordinate data resulting 
# from the CCDC's data processing and validation procedures.
#
#######################################################################

data_KULMIO
_chemical_formula_moiety         'C64 H48 N2 O30 S4 Zn10'
_symmetry_cell_setting           monoclinic
_symmetry_space_group_name_H-M   'C 2/m'
_symmetry_Int_Tables_number      12
_space_group_name_Hall           '-C 2y'
loop_
_symmetry_equiv_pos_site_id
_symmetry_equiv_pos_as_xyz
1 x,y,z
2 -x,y,-z
3 1/2+x,1/2+y,z
4 1/2-x,1/2+y,-z
5 -x,-y,-z
6 x,-y,z
7 1/2-x,1/2-y,-z
8 1/2+x,1/2-y,z
_cell_length_a                   25.1670(4)
_cell_length_b                   23.2000(3)
_cell_length_c                   17.1020(3)
_cell_angle_alpha                90
_cell_angle_beta                 93.561(1)
_cell_angle_gamma                90
_cell_volume                     9966.14
loop_
_atom_site_label
_atom_site_type_symbol
_atom_site_fract_x
_atom_site_fract_y
_atom_site_fract_z
Zn1 Zn 0.08059(3) 0.0000 0.18451(4)
Zn2 Zn 0.147448(19) 0.06699(2) 0.31645(3)
Zn3 Zn 0.20782(3) 0.0000 0.18385(5)
S1 S -0.1507(2) 0.2530(2) 0.4928(3)
S3 S 0.2623(3) -0.0990(6) -0.1721(5)
O1 O 0.14548(14) 0.0000 0.2509(2)
O2 O 0.03625(14) 0.06726(16) 0.2048(2)
O3 O 0.08427(17) 0.11516(19) 0.2990(3)
O4 O -0.2541(3) 0.4328(4) 0.2207(7)
O5 O -0.29308(18) 0.38118(18) 0.3105(3)
O6 O 0.15168(18) 0.0485(2) -0.5720(2)
O7 O 0.1744(5) 0.0000 0.0847(5)
O8 O 0.0840(2) 0.0000 0.0719(3)
O9 O 0.1745(5) 0.0849(5) 0.1400(8)
O10 O 0.2667(5) 0.0000 0.1093(11)
O11 O -0.0931(6) 0.2728(7) 0.4958(10)
O13 O -0.1520(7) 0.2052(7) 0.5602(10)
O15 O 0.2695(11) -0.1159(11) -0.0821(11)
O16 O 0.2313(9) -0.1476(10) -0.2188(16)
N1 N 0.1685(12) 0.1766(15) 0.0806(16)
C1 C 0.0433(2) 0.1067(3) 0.2556(3)
C2 C -0.00047(16) 0.1497(2) 0.2596(3)
C3 C -0.04699(17) 0.1441(2) 0.2120(3)
H1 H -0.0507 0.1132 0.1755
C4 C -0.08806(16) 0.1836(3) 0.2177(3)
H2 H -0.1199 0.1798 0.1851
C5 C -0.0826(2) 0.2288(3) 0.2710(4)
C6 C -0.0361(3) 0.2344(3) 0.3186(4)
C7 C 0.0050(2) 0.1949(3) 0.3129(4)
H3 H 0.0368 0.1987 0.3454
C8 C -0.12906(13) 0.26900(17) 0.27481(17)
C9 C -0.13176(15) 0.3116(2) 0.2175(2)
H4 H -0.1049 0.3140 0.1810
C10 C -0.17376(14) 0.35058(19) 0.2136(2)
H5 H -0.1756 0.3797 0.1745
C11 C -0.21305(13) 0.34703(16) 0.2671(2)
C12 C -0.21035(12) 0.30447(16) 0.3244(2)
H6 H -0.2372 0.3020 0.3609
C13 C -0.16835(11) 0.26545(14) 0.3283(2)
C14 C -0.25483(15) 0.39171(17) 0.2685(2)
C15 C -0.16828(10) 0.22232(17) 0.4075(2)
C17 C -0.1852(2) 0.3012(3) 0.5128(2)
H7 H -0.1800 0.3096 0.5689
H8 H -0.2225 0.2909 0.5000
H9 H -0.1761 0.3354 0.4827
C19 C 0.15205(17) -0.0000(2) -0.53867(19)
C20 C 0.15137(14) -0.0000(2) -0.45081(19)
C21 C 0.15215(13) 0.0472(2) -0.40930(19)
H13 H 0.1553 0.0829 -0.4358
C22 C 0.14867(17) 0.0482(2) -0.33077(18)
H14 H 0.1466 0.0842 -0.3048
C23 C 0.14806(18) -0.0000(3) -0.28916(19)
C24 C 0.14252(17) -0.0028(4) -0.2027(2)
C25 C 0.09272(17) 0.0061(4) -0.1740(2)
H15 H 0.0622 0.0093 -0.2092
C26 C 0.08762(18) 0.0102(5) -0.0937(2)
H16 H 0.0536 0.0162 -0.0740
C27 C 0.13234(19) 0.0053(5) -0.0422(2)
C28 C 0.18214(18) -0.0036(5) -0.0709(2)
H17 H 0.2127 -0.0068 -0.0357
C29 C 0.18723(17) -0.0077(5) -0.1512(2)
C30 C 0.1294(2) 0.0076(5) 0.0443(2)
C31 C 0.2334(2) -0.0251(5) -0.1858(3)
C32 C 0.1988(5) 0.1206(6) 0.0938(3)
H18 H 0.2315 0.1122 0.0715
C33 C 0.1999(7) 0.2006(6) 0.0225(4)
H19 H 0.1872 0.2395 0.0093
H20 H 0.1970 0.1763 -0.0245
H21 H 0.2372 0.2024 0.0426
C34 C 0.1254(7) 0.1893(6) 0.1207(4)
H22 H 0.1370 0.2048 0.1722
H23 H 0.1045 0.1542 0.1273
H24 H 0.1035 0.2180 0.0916
C35 C 0.3150(6) 0.0000(8) 0.1076(4)
C36 C 0.3249(4) -0.1013(9) -0.1977(4)
H25 H 0.3447 -0.1304 -0.1660
H26 H 0.3416 -0.0635 -0.1888
H27 H 0.3255 -0.1115 -0.2533
Zn2E Zn 0.147448(19) -0.06699(2) 0.31645(3)
Zn2G Zn -0.352552(19) 0.43301(2) 0.31645(3)
Zn2_2 Zn 0.147448(19) 0.06699(2) -0.68355(3)
Zn2E_2 Zn 0.147448(19) -0.06699(2) -0.68355(3)
Zn2B Zn -0.352552(19) -0.43301(2) 0.31645(3)
Zn3B Zn -0.29218(3) 0.5000 0.18385(5)
Zn3B_2 Zn -0.29218(3) -0.5000 0.18385(5)
S1E S -0.1507(2) -0.2530(2) 0.4928(3)
S3E S 0.2623(3) 0.0990(6) -0.1721(5)
O2E O 0.03625(14) -0.06726(16) 0.2048(2)
O3E O 0.08427(17) -0.11516(19) 0.2990(3)
O4E O -0.2541(3) -0.4328(4) 0.2207(7)
O4B O 0.2459(3) -0.0672(4) 0.2207(7)
O4G O 0.2459(3) 0.0672(4) 0.2207(7)
O5E O -0.29308(18) -0.38118(18) 0.3105(3)
O5G O 0.20692(18) 0.11882(18) 0.3105(3)
O5B O 0.20692(18) -0.11882(18) 0.3105(3)
O6E O 0.15168(18) -0.0485(2) -0.5720(2)
O6_2 O 0.15168(18) 0.0485(2) 0.4280(2)
O6E_2 O 0.15168(18) -0.0485(2) 0.4280(2)
O9E O 0.1745(5) -0.0849(5) 0.1400(8)
O11E O -0.0931(6) -0.2728(7) 0.4958(10)
O13E O -0.1520(7) -0.2052(7) 0.5602(10)
O15E O 0.2695(11) 0.1159(11) -0.0821(11)
O16E O 0.2313(9) 0.1476(10) -0.2188(16)
N1E N 0.1685(12) -0.1766(15) 0.0806(16)
C1E C 0.0433(2) -0.1067(3) 0.2556(3)
C2E C -0.00047(16) -0.1497(2) 0.2596(3)
C3E C -0.04699(17) -0.1441(2) 0.2120(3)
H1E H -0.0507 -0.1132 0.1755
C4E C -0.08806(16) -0.1836(3) 0.2177(3)
H2E H -0.1199 -0.1798 0.1851
C5E C -0.0826(2) -0.2288(3) 0.2710(4)
C6E C -0.0361(3) -0.2344(3) 0.3186(4)
C7E C 0.0050(2) -0.1949(3) 0.3129(4)
H3E H 0.0368 -0.1987 0.3454
C8E C -0.12906(13) -0.26900(17) 0.27481(17)
C9E C -0.13176(15) -0.3116(2) 0.2175(2)
H4E H -0.1049 -0.3140 0.1810
C10E C -0.17376(14) -0.35058(19) 0.2136(2)
H5E H -0.1756 -0.3797 0.1745
C11E C -0.21305(13) -0.34703(16) 0.2671(2)
C12E C -0.21035(12) -0.30447(16) 0.3244(2)
H6E H -0.2372 -0.3020 0.3609
C13E C -0.16835(11) -0.26545(14) 0.3283(2)
C14E C -0.25483(15) -0.39171(17) 0.2685(2)
C15E C -0.16828(10) -0.22232(17) 0.4075(2)
C17E C -0.1852(2) -0.3012(3) 0.5128(2)
H7E H -0.1800 -0.3096 0.5689
H8E H -0.2225 -0.2909 0.5000
H9E H -0.1761 -0.3354 0.4827
C21E C 0.15215(13) -0.0472(2) -0.40930(19)
H13E H 0.1553 -0.0829 -0.4358
C22E C 0.14867(17) -0.0482(2) -0.33077(18)
H14E H 0.1466 -0.0842 -0.3048
C24E C 0.14252(17) 0.0028(4) -0.2027(2)
C25E C 0.09272(17) -0.0061(4) -0.1740(2)
H15E H 0.0622 -0.0093 -0.2092
C26E C 0.08762(18) -0.0102(5) -0.0937(2)
H16E H 0.0536 -0.0162 -0.0740
C27E C 0.13234(19) -0.0053(5) -0.0422(2)
C28E C 0.18214(18) 0.0036(5) -0.0709(2)
H17E H 0.2127 0.0068 -0.0357
C29E C 0.18723(17) 0.0077(5) -0.1512(2)
C30E C 0.1294(2) -0.0076(5) 0.0443(2)
C31E C 0.2334(2) 0.0251(5) -0.1858(3)
C32E C 0.1988(5) -0.1206(6) 0.0938(3)
H18E H 0.2315 -0.1122 0.0715
C33E C 0.1999(7) -0.2006(6) 0.0225(4)
H19E H 0.1872 -0.2395 0.0093
H20E H 0.1970 -0.1763 -0.0245
H21E H 0.2372 -0.2024 0.0426
C34E C 0.1254(7) -0.1893(6) 0.1207(4)
H22E H 0.1370 -0.2048 0.1722
H23E H 0.1045 -0.1542 0.1273
H24E H 0.1035 -0.2180 0.0916
C36E C 0.3249(4) 0.1013(9) -0.1977(4)
H25E H 0.3447 0.1304 -0.1660
H26E H 0.3416 0.0635 -0.1888
H27E H 0.3255 0.1115 -0.2533
loop_
_geom_bond_atom_site_label_1
_geom_bond_atom_site_label_2
_geom_bond_site_symmetry_1
_geom_bond_site_symmetry_2
Zn1 O1 1_555 1_555
Zn2 O1 1_555 1_555
Zn3 O1 1_555 1_555
S1 O11 1_555 1_555
S3 O15 1_555 1_555
O1 Zn2E 1_555 1_555
O2 Zn1 1_555 1_555
O3 Zn2 1_555 1_555
O4 C14 1_555 1_555
O5 C14 1_555 1_555
O6 C19 1_555 1_555
O7 Zn3 1_555 1_555
O8 Zn1 1_555 1_555
O9 Zn3 1_555 1_555
O10 Zn3 1_555 1_555
O13 S1 1_555 1_555
O16 S3 1_555 1_555
N1 C32 1_555 1_555
C1 O2 1_555 1_555
C2 C1 1_555 1_555
C3 C2 1_555 1_555
H1 C3 1_555 1_555
C4 C3 1_555 1_555
H2 C4 1_555 1_555
C5 C4 1_555 1_555
C6 C5 1_555 1_555
C7 C2 1_555 1_555
H3 C7 1_555 1_555
C8 C5 1_555 1_555
C9 C8 1_555 1_555
H4 C9 1_555 1_555
C10 C9 1_555 1_555
H5 C10 1_555 1_555
C11 C10 1_555 1_555
C12 C11 1_555 1_555
H6 C12 1_555 1_555
C13 C8 1_555 1_555
C14 C11 1_555 1_555
C15 S1 1_555 1_555
C17 S1 1_555 1_555
H7 C17 1_555 1_555
H8 C17 1_555 1_555
H9 C17 1_555 1_555
C19 C20 1_555 1_555
C20 C21 1_555 1_555
C21 H13 1_555 1_555
C22 C21 1_555 1_555
H14 C22 1_555 1_555
C23 C22 1_555 1_555
C24 C23 1_555 1_555
C25 C24 1_555 1_555
H15 C25 1_555 1_555
C26 C25 1_555 1_555
H16 C26 1_555 1_555
C27 C26 1_555 1_555
C28 C27 1_555 1_555
H17 C28 1_555 1_555
C29 C24 1_555 1_555
C30 O7 1_555 1_555
C31 S3 1_555 1_555
C32 O9 1_555 1_555
H18 C32 1_555 1_555
C33 N1 1_555 1_555
H19 C33 1_555 1_555
H20 C33 1_555 1_555
H21 C33 1_555 1_555
C34 N1 1_555 1_555
H22 C34 1_555 1_555
H23 C34 1_555 1_555
H24 C34 1_555 1_555
C35 O10 1_555 1_555
C36 S3 1_555 1_555
H25 C36 1_555 1_555
H26 C36 1_555 1_555
H27 C36 1_555 1_555
Zn2E O3E 1_555 1_555
Zn2G O5 1_555 1_555
Zn2_2 O6 1_555 1_555
Zn2E_2 O6E 1_555 1_555
Zn2B O5E 1_555 1_555
Zn3B O4 1_555 1_555
Zn3B_2 O4E 1_555 1_555
S1E O11E 1_555 1_555
S3E O15E 1_555 1_555
O2E Zn1 1_555 1_555
O3E C1E 1_555 1_555
O4E C14E 1_555 1_555
O4B Zn3 1_555 1_555
O4G Zn3 1_555 1_555
O5E C14E 1_555 1_555
O5G Zn2 1_555 1_555
O5B Zn2E 1_555 1_555
O6E C19 1_555 1_555
O6_2 Zn2 1_555 1_555
O6E_2 Zn2E 1_555 1_555
O9E Zn3 1_555 1_555
O13E S1E 1_555 1_555
O16E S3E 1_555 1_555
N1E C32E 1_555 1_555
C1E O2E 1_555 1_555
C2E C1E 1_555 1_555
C3E C2E 1_555 1_555
H1E C3E 1_555 1_555
C4E C3E 1_555 1_555
H2E C4E 1_555 1_555
C5E C4E 1_555 1_555
C6E C5E 1_555 1_555
C7E C2E 1_555 1_555
H3E C7E 1_555 1_555
C8E C5E 1_555 1_555
C9E C8E 1_555 1_555
H4E C9E 1_555 1_555
C10E C9E 1_555 1_555
H5E C10E 1_555 1_555
C11E C10E 1_555 1_555
C12E C11E 1_555 1_555
H6E C12E 1_555 1_555
C13E C8E 1_555 1_555
C14E C11E 1_555 1_555
C15E S1E 1_555 1_555
C17E S1E 1_555 1_555
H7E C17E 1_555 1_555
H8E C17E 1_555 1_555
H9E C17E 1_555 1_555
C21E C20 1_555 1_555
H13E C21E 1_555 1_555
C22E C23 1_555 1_555
H14E C22E 1_555 1_555
C24E C23 1_555 1_555
C25E C24 1_555 1_555
H15E C25 1_555 1_555
C26E C25 1_555 1_555
H16E C26 1_555 1_555
C27E C26 1_555 1_555
C28E C27 1_555 1_555
H17E C28 1_555 1_555
C29E C24 1_555 1_555
C30E O7 1_555 1_555
C31E C29 1_555 1_555
C32E O9E 1_555 1_555
H18E C32E 1_555 1_555
C33E N1E 1_555 1_555
H19E C33E 1_555 1_555
H20E C33E 1_555 1_555
H21E C33E 1_555 1_555
C34E N1E 1_555 1_555
H22E C34E 1_555 1_555
H23E C34E 1_555 1_555
H24E C34E 1_555 1_555
C36E S3E 1_555 1_555
H25E C36E 1_555 1_555
H26E C36E 1_555 1_555
H27E C36E 1_555 1_555
O3 C1 1_555 1_555
O8 C30 1_555 1_555
O8 C30E 1_555 1_555
C6 C7 1_555 1_555
C12 C13 1_555 1_555
C13 C15 1_555 1_555
C24 C24E 1_555 1_555
C25 C24E 1_555 1_555
C25 C25E 1_555 1_555
H15 C25E 1_555 1_555
H15 H15E 1_555 1_555
C26 C25E 1_555 1_555
C26 C26E 1_555 1_555
H16 C26E 1_555 1_555
H16 H16E 1_555 1_555
C27 C30 1_555 1_555
C27 C26E 1_555 1_555
C27 C27E 1_555 1_555
C27 C30E 1_555 1_555
C28 C29 1_555 1_555
C28 C27E 1_555 1_555
C28 C28E 1_555 1_555
C28 C29E 1_555 1_555
H17 C28E 1_555 1_555
H17 H17E 1_555 1_555
C29 C31 1_555 1_555
C29 C24E 1_555 1_555
C29 C28E 1_555 1_555
C29 C29E 1_555 1_555
C30 C27E 1_555 1_555
C30 C30E 1_555 1_555
C31 C29E 1_555 1_555
C31 C31E 1_555 1_555
S3E C31E 1_555 1_555
C6E C7E 1_555 1_555
C12E C13E 1_555 1_555
C13E C15E 1_555 1_555
C21E C22E 1_555 1_555
C24E C25E 1_555 1_555
C24E C29E 1_555 1_555
C25E H15E 1_555 1_555
C25E C26E 1_555 1_555
C26E H16E 1_555 1_555
C26E C27E 1_555 1_555
C27E C28E 1_555 1_555
C27E C30E 1_555 1_555
C28E H17E 1_555 1_555
C28E C29E 1_555 1_555
C29E C31E 1_555 1_555

#END
