
#######################################################################
#
#                 Cambridge Crystallographic Data Centre
#                                CCDC 
#
#######################################################################
#
# If this CIF has been generated from an entry in the Cambridge 
# Structural Database, then it will include bibliographic, chemical, 
# crystal, experimental, refinement or atomic coordinate data resulting 
# from the CCDC's data processing and validation procedures.
#
#######################################################################

data_QAKFIU
_chemical_formula_moiety         '(C18 H15 N3 O9 Zn1)n'
_symmetry_cell_setting           orthorhombic
_symmetry_space_group_name_H-M   'P b c n'
_symmetry_Int_Tables_number      60
_space_group_name_Hall           '-P 2n 2ab'
loop_
_symmetry_equiv_pos_site_id
_symmetry_equiv_pos_as_xyz
1 x,y,z
2 1/2-x,1/2-y,1/2+z
3 1/2+x,1/2-y,-z
4 -x,y,1/2-z
5 -x,-y,-z
6 1/2+x,1/2+y,1/2-z
7 1/2-x,1/2+y,z
8 x,-y,1/2+z
_cell_length_a                   27.841(6)
_cell_length_b                   7.5266(15)
_cell_length_c                   17.413(3)
_cell_angle_alpha                90
_cell_angle_beta                 90
_cell_angle_gamma                90
_cell_volume                     3648.86
loop_
_atom_site_label
_atom_site_type_symbol
_atom_site_fract_x
_atom_site_fract_y
_atom_site_fract_z
_atom_site_U_iso_or_equiv
_atom_site_thermal_displace_type
Zn1 Zn 0.097472(15) 0.30632(7) 0.23386(2) 0.0263 Uani
O1 O 0.07865(10) 0.0977(4) 0.29679(17) 0.0351 Uani
O2 O 0.56407(10) 0.0108(4) 0.22294(15) 0.0321 Uani
O3 O 0.57634(10) 0.2071(4) -0.12663(15) 0.0333 Uani
O4 O 0.51028(11) 0.3636(5) -0.14943(17) 0.0422 Uani
O5 O 0.61345(11) -0.0329(6) 0.12550(18) 0.0521 Uani
C1 C 0.35514(13) 0.3273(6) 0.1926(2) 0.0288 Uani
H1 H 0.3483 0.3726 0.2411 0.0340 Uiso
C2 C 0.20439(15) 0.3213(7) 0.2632(2) 0.0362 Uani
H2 H 0.1959 0.3449 0.3139 0.0430 Uiso
C3 C 0.25278(15) 0.3121(7) 0.2444(2) 0.0363 Uani
H3 H 0.2760 0.3283 0.2822 0.0440 Uiso
C4 C 0.26655(13) 0.2785(5) 0.1692(2) 0.0239 Uani
C5 C 0.31773(12) 0.2676(5) 0.1451(2) 0.0227 Uani
C6 C 0.33032(14) 0.2015(6) 0.0734(2) 0.0336 Uani
H4 H 0.3064 0.1619 0.0402 0.0400 Uiso
C7 C 0.37750(14) 0.1938(6) 0.0507(2) 0.0303 Uani
H5 H 0.3852 0.1487 0.0026 0.0360 Uiso
C8 C 0.40207(13) 0.3187(6) 0.1673(2) 0.0277 Uani
H6 H 0.4266 0.3600 0.1988 0.0330 Uiso
C9 C 0.46285(12) 0.2335(5) 0.0746(2) 0.0216 Uani
C10 C 0.47528(13) 0.2753(5) 0.0001(2) 0.0241 Uani
H7 H 0.4527 0.3229 -0.0335 0.0290 Uiso
C11 C 0.49534(12) 0.1618(5) 0.1263(2) 0.0221 Uani
H8 H 0.4860 0.1345 0.1762 0.0270 Uiso
C12 C 0.54223(12) 0.1316(5) 0.1020(2) 0.0221 Uani
C13 C 0.55543(13) 0.1733(5) 0.0271(2) 0.0239 Uani
H9 H 0.5868 0.1531 0.0109 0.0290 Uiso
C14 C 0.53638(13) 0.2765(5) -0.1069(2) 0.0252 Uani
C15 C 0.52233(13) 0.2446(5) -0.0238(2) 0.0213 Uani
C16 C 0.57699(13) 0.0322(6) 0.1529(2) 0.0276 Uani
C17 C 0.23003(14) 0.2556(7) 0.1159(2) 0.0351 Uani
H10 H 0.2375 0.2345 0.0647 0.0420 Uiso
C18 C 0.18276(14) 0.2640(7) 0.1385(2) 0.0348 Uani
H11 H 0.1590 0.2457 0.1019 0.0420 Uiso
N1 N 0.16937(11) 0.2975(5) 0.2112(2) 0.0282 Uani
N2 N 0.41277(10) 0.2513(4) 0.09782(18) 0.0205 Uani
Zn1B Zn 0.597472(15) 0.19368(7) -0.23386(2) 0.0263 Uani
Zn1E Zn 0.597472(15) -0.19368(7) 0.26614(2) 0.0263 Uani
O2E O 0.06407(10) 0.5108(4) 0.27706(15) 0.0321 Uani
O3B O 0.07634(10) 0.2929(4) 0.12663(15) 0.0333 Uani
O6 O 0.1170(2) -0.0082(10) 0.9391(5) 0.1523 Uani
O7 O 0.1715(3) 0.0103(13) 0.8680(4) 0.1467 Uani
O8 O 0.1803(4) 0.0894(18) 0.9779(6) 0.2447 Uani
N3 N 0.15733(15) 0.0407(6) 0.9267(2) 0.0480 Uani
O9 O 0.7208(3) 0.0205(13) 0.0628(4) 0.1567 Uani
loop_
_atom_site_aniso_label
_atom_site_aniso_U_11
_atom_site_aniso_U_22
_atom_site_aniso_U_33
_atom_site_aniso_U_23
_atom_site_aniso_U_13
_atom_site_aniso_U_12
Zn1 0.0160(2) 0.0456(3) 0.0173(2) -0.00221(19) 0.00082(16) 0.00392(19)
O1 0.0323(15) 0.0448(17) 0.0281(14) 0.0001(14) 0.0063(12) 0.0035(14)
O2 0.0314 0.0481 0.0168 0.0038 0.0008 0.0125
O3 0.0206 0.062 0.0172 -0.0013 0.0056 0.0027
O4 0.0297 0.072 0.0248 0.0151 0.0009 0.0063
O5 0.035 0.09 0.0312 0.0092 0.0057 0.0325
C1 0.0200(17) 0.044(2) 0.0225(19) -0.0049(17) 0.0043(15) 0.0014(17)
C2 0.0215(19) 0.065(3) 0.0222(19) -0.006(2) 0.0012(15) 0.002(2)
C3 0.0200(18) 0.064(3) 0.025(2) -0.007(2) -0.0007(16) 0.000(2)
C4 0.0155(15) 0.030(2) 0.0261(19) -0.0013(15) 0.0049(14) 0.0006(15)
C5 0.0162(16) 0.0289(19) 0.0230(18) -0.0001(15) 0.0016(14) 0.0025(15)
C6 0.0198(18) 0.053(3) 0.028(2) -0.0059(19) -0.0005(15) 0.0017(19)
C7 0.0217(18) 0.045(2) 0.0243(19) -0.0101(18) 0.0020(15) 0.0016(18)
C8 0.0190(17) 0.041(2) 0.0231(19) -0.0028(17) 0.0013(14) 0.0000(17)
C9 0.0140(16) 0.0289(19) 0.0218(18) -0.0017(14) 0.0033(13) 0.0013(14)
C10 0.0162(16) 0.036(2) 0.0200(17) 0.0013(15) -0.0003(13) 0.0026(15)
C11 0.0208(17) 0.030(2) 0.0155(16) -0.0012(14) 0.0008(13) 0.0005(15)
C12 0.0195(17) 0.0294(18) 0.0174(16) -0.0008(15) -0.0017(13) 0.0045(15)
C13 0.0172(16) 0.032(2) 0.0225(18) -0.0024(15) 0.0033(13) -0.0003(15)
C14 0.0204 0.041 0.0143 -0.0005 0.0019 -0.0064
C15 0.0197 0.0285 0.0156 0.0002 0.0026 -0.002
C16 0.0253 0.038 0.0196 0.0003 0.0001 0.0058
C17 0.0194(18) 0.064(3) 0.0219(19) -0.0063(19) 0.0052(15) 0.0012(19)
C18 0.0174(18) 0.065(3) 0.0220(19) -0.007(2) -0.0020(15) 0.0016(19)
N1 0.0166(14) 0.044(2) 0.0241(16) 0.0005(15) 0.0002(12) 0.0020(15)
N2 0.0120(12) 0.0297(16) 0.0198(15) -0.0010(13) 0.0049(11) 0.0010(12)
Zn1B 0.016 0.0456 0.0173 -0.00221 -0.00082 -0.00392
Zn1E 0.016 0.0456 0.0173 0.00221 -0.00082 0.00392
O2E 0.0314 0.0481 0.0168 -0.0038 -0.0008 0.0125
O3B 0.0206 0.062 0.0172 -0.0013 -0.0056 -0.0027
O6 0.095(4) 0.130(6) 0.232(10) 0.056(6) 0.038(5) -0.017(4)
O7 0.153(6) 0.222(9) 0.065(4) -0.003(5) 0.008(4) -0.020(6)
O8 0.271(12) 0.327(15) 0.136(7) -0.067(9) -0.095(8) -0.094(11)
N3 0.042(2) 0.070(3) 0.032(2) -0.007(2) 0.0007(18) -0.012(2)
O9 0.178(7) 0.207(8) 0.085(5) -0.010(5) -0.003(5) -0.025(7)
loop_
_geom_bond_atom_site_label_1
_geom_bond_atom_site_label_2
_geom_bond_site_symmetry_1
_geom_bond_site_symmetry_2
Zn1 O1 1_555 1_555
O2 C16 1_555 1_555
O3 C14 1_555 1_555
O4 C14 1_555 1_555
O5 C16 1_555 1_555
C1 H1 1_555 1_555
C2 H2 1_555 1_555
C3 C2 1_555 1_555
H3 C3 1_555 1_555
C4 C3 1_555 1_555
C5 C1 1_555 1_555
C6 C5 1_555 1_555
H4 C6 1_555 1_555
C7 C6 1_555 1_555
H5 C7 1_555 1_555
C8 C1 1_555 1_555
H6 C8 1_555 1_555
C9 C10 1_555 1_555
C10 H7 1_555 1_555
C11 C9 1_555 1_555
H8 C11 1_555 1_555
C12 C11 1_555 1_555
C13 C12 1_555 1_555
H9 C13 1_555 1_555
C14 C15 1_555 1_555
C15 C10 1_555 1_555
C16 C12 1_555 1_555
C17 C4 1_555 1_555
H10 C17 1_555 1_555
C18 C17 1_555 1_555
H11 C18 1_555 1_555
N1 Zn1 1_555 1_555
N2 C7 1_555 1_555
O6 N3 1_555 1_555
O7 N3 1_555 1_555
O8 N3 1_555 1_555
Zn1B O3 1_555 1_555
Zn1E O2 1_555 1_555
O2E Zn1 1_555 1_555
O3B Zn1 1_555 1_555
C2 N1 1_555 1_555
C4 C5 1_555 1_555
C8 N2 1_555 1_555
C9 N2 1_555 1_555
C13 C15 1_555 1_555
C18 N1 1_555 1_555

#END
