
#######################################################################
#
#                 Cambridge Crystallographic Data Centre
#                                CCDC 
#
#######################################################################
#
# If this CIF has been generated from an entry in the Cambridge 
# Structural Database, then it will include bibliographic, chemical, 
# crystal, experimental, refinement or atomic coordinate data resulting 
# from the CCDC's data processing and validation procedures.
#
#######################################################################

data_IPEBEM
_chemical_formula_moiety         '(C135 H96 Cu6 I6 N12 S5)n'
_symmetry_cell_setting           tetragonal
_symmetry_space_group_name_H-M   'P -4'
_symmetry_Int_Tables_number      81
_space_group_name_Hall           'P -4'
loop_
_symmetry_equiv_pos_site_id
_symmetry_equiv_pos_as_xyz
1 x,y,z
2 -x,-y,z
3 y,-x,-z
4 -y,x,-z
_cell_length_a                   26.7176(5)
_cell_length_b                   26.7176(5)
_cell_length_c                   7.1942(2)
_cell_angle_alpha                90
_cell_angle_beta                 90
_cell_angle_gamma                90
_cell_volume                     5135.44
loop_
_atom_site_label
_atom_site_type_symbol
_atom_site_fract_x
_atom_site_fract_y
_atom_site_fract_z
I1 I 0.69666(6) 0.74214(7) 0.6263(3)
Cu1 Cu 0.75493(12) 0.69946(11) 0.3655(5)
Cu2 Cu 0.74986(12) 0.79527(11) 0.8663(5)
I2 I 0.80722(6) 0.75361(7) 0.1270(3)
N1 N 0.7072(8) 0.6593(8) 0.214(3)
N2 N 0.8073(7) 0.6622(7) 0.5166(19)
N3 N 0.7956(8) 0.8406(8) 0.720(2)
N4 N 0.6995(8) 0.8324(7) 1.010(2)
C1 C 0.7161(9) 0.6478(11) 0.040(4)
C2 C 0.6637(10) 0.6434(10) 0.278(2)
C3 C 0.7997(13) 0.6153(10) 0.559(4)
C4 C 0.8495(11) 0.6797(13) 0.582(4)
C5 C 0.8405(8) 0.8560(9) 0.774(2)
C6 C 0.7880(10) 0.8460(10) 0.541(3)
H1 H 0.7471 0.6581 -0.0091
C7 C 0.6841(8) 0.6219(8) -0.081(2)
C8 C 0.6284(9) 0.6122(10) 0.173(2)
H2 H 0.6547 0.6528 0.3999
H3 H 0.7700 0.6000 0.5189
C9 C 0.8335(13) 0.5871(11) 0.661(5)
C10 C 0.8769(16) 0.6594(10) 0.739(6)
H4 H 0.8632 0.7078 0.5224
H5 H 0.8522 0.8452 0.8907
C11 C 0.8711(8) 0.8870(8) 0.671(2)
C12 C 0.8195(7) 0.8738(9) 0.411(2)
H6 H 0.7594 0.8305 0.4918
H7 H 0.6921 0.6172 -0.2070
C13 C 0.6396(7) 0.6034(8) -0.005(3)
H8 H 0.5994 0.5990 0.2286
C14 C 0.8717(8) 0.6097(7) 0.757(3)
H9 H 0.8302 0.5521 0.6644
H10 H 0.8964 0.6791 0.8190
H11 H 0.8988 0.9023 0.7278
C15 C 0.8615(8) 0.8959(8) 0.483(2)
H12 H 0.8114 0.8763 0.2840
C16 C 0.6064(6) 0.5745(6) -0.128(3)
C17 C 0.9031(8) 0.5823(8) 0.886(3)
C18 C 0.8943(5) 0.9241(6) 0.374(2)
C19 C 0.6241(7) 0.5434(7) -0.271(3)
C20 C 0.5552(6) 0.5801(6) -0.107(2)
C21 C 0.9093(8) 0.5299(8) 0.879(3)
C22 C 0.9281(10) 0.6073(9) 1.028(3)
C23 C 0.9466(6) 0.9191(7) 0.396(2)
C24 C 0.8769(7) 0.9539(8) 0.228(2)
H13 H 0.6587 0.5384 -0.2854
C25 C 0.5908(6) 0.5199(6) -0.3940(18)
C26 C 0.5220(7) 0.5551(6) -0.2298(19)
H14 H 0.5424 0.6006 -0.0122
H15 H 0.8931 0.5110 0.7868
C27 C 0.9399(9) 0.5064(8) 1.011(3)
C28 C 0.9599(8) 0.5836(8) 1.156(2)
H16 H 0.9233 0.6421 1.0385
H17 H 0.9596 0.8986 0.4905
C29 C 0.9791(6) 0.9449(7) 0.277(2)
C30 C 0.9091(6) 0.9814(8) 0.116(2)
H18 H 0.8423 0.9554 0.2047
H19 H 0.6037 0.5000 -0.4904
C31 C 0.5403(5) 0.5251(5) -0.378(2)
H20 H 0.4873 0.5585 -0.2128
H21 H 0.9423 0.4713 1.0081
C32 C 0.9666(8) 0.5320(9) 1.145(3)
H22 H 0.9765 0.6023 1.2473
H23 H 1.0137 0.9435 0.2986
C33 C 0.9614(6) 0.9726(7) 0.126(2)
H24 H 0.8963 1.0057 0.0334
C34 C 0.5000 0.5000 -0.5000
C35 C 1.0000 0.5000 1.279(3)
C36 C 1.0000 1.0000 0.0000
C37 C 0.9701(7) 0.4629(9) 1.386(3)
C38 C 0.9181(10) 0.4550(17) 1.359(6)
C39 C 0.9932(12) 0.4435(18) 1.539(5)
C40 C 0.8933(12) 0.4193(16) 1.477(4)
H25 H 0.9004 0.4726 1.2673
C41 C 0.9687(10) 0.4120(19) 1.665(6)
H26 H 1.0270 0.4516 1.5612
C42 C 0.9169(7) 0.4027(9) 1.638(3)
H27 H 0.8614 0.4072 1.4454
H28 H 0.9860 0.3974 1.7652
C43 C 0.8892(7) 0.3674(9) 1.765(3)
C44 C 0.8443(10) 0.3494(15) 1.710(3)
C45 C 0.9038(13) 0.3569(15) 1.949(3)
C46 C 0.8145(10) 0.3172(13) 1.831(4)
H29 H 0.8321 0.3577 1.5910
C47 C 0.8731(13) 0.3233(16) 2.048(4)
H30 H 0.9324 0.3714 2.0028
H31 H 0.7819 0.3084 1.7952
H32 H 0.8829 0.3164 2.1708
I2_2 I 0.80722(6) 0.75361(7) 1.1270(3)
Cu1_2 Cu 0.75493(12) 0.69946(11) 1.3655(5)
C31A C 0.4597(5) 0.4749(5) -0.378(2)
C31B C 0.5251(5) 0.4597(5) -0.622(2)
C31C C 0.4749(5) 0.5403(5) -0.622(2)
C32A C 1.0334(8) 0.4680(9) 1.145(3)
C37A C 1.0299(7) 0.5371(9) 1.386(3)
C33A C 1.0386(6) 1.0274(7) 0.126(2)
C33B C 0.9726(7) 1.0386(6) -0.126(2)
C33C C 1.0274(7) 0.9614(6) -0.126(2)
C25A C 0.4092(6) 0.4801(6) -0.3940(18)
C26A C 0.4780(7) 0.4449(6) -0.2298(19)
C25B C 0.5199(6) 0.4092(6) -0.6060(18)
C26B C 0.5551(6) 0.4780(7) -0.7702(19)
C25C C 0.4801(6) 0.5908(6) -0.6060(18)
C26C C 0.4449(6) 0.5220(7) -0.7702(19)
C27A C 1.0601(9) 0.4936(8) 1.011(3)
C28A C 1.0401(8) 0.4164(8) 1.156(2)
C38A C 1.0819(10) 0.5450(17) 1.359(6)
C39A C 1.0068(12) 0.5565(18) 1.539(5)
C29A C 1.0209(6) 1.0551(7) 0.277(2)
C30A C 1.0909(6) 1.0186(8) 0.116(2)
C29B C 0.9449(7) 1.0209(6) -0.277(2)
C30B C 0.9814(8) 1.0909(6) -0.116(2)
C29C C 1.0551(7) 0.9791(6) -0.277(2)
C30C C 1.0186(8) 0.9091(6) -0.116(2)
C19A C 0.3759(7) 0.4566(7) -0.271(3)
H19A H 0.3963 0.5000 -0.4904
C20A C 0.4448(6) 0.4199(6) -0.107(2)
H20A H 0.5127 0.4415 -0.2128
C19B C 0.5434(7) 0.3759(7) -0.729(3)
H19B H 0.5000 0.3963 -0.5096
C20B C 0.5801(6) 0.4448(6) -0.893(2)
H20B H 0.5585 0.5127 -0.7872
C19C C 0.4566(7) 0.6241(7) -0.729(3)
H19C H 0.5000 0.6037 -0.5096
C20C C 0.4199(6) 0.5552(6) -0.893(2)
H20C H 0.4415 0.4873 -0.7872
C21A C 1.0907(8) 0.4701(8) 0.879(3)
H21A H 1.0577 0.5287 1.0081
C22A C 1.0719(10) 0.3927(9) 1.028(3)
H22A H 1.0235 0.3977 1.2473
C40A C 1.1067(12) 0.5807(16) 1.477(4)
H25A H 1.0996 0.5274 1.2673
C41A C 1.0313(10) 0.5880(19) 1.665(6)
H26A H 0.9730 0.5484 1.5612
C23A C 1.0534(6) 1.0809(7) 0.396(2)
H23A H 0.9863 1.0565 0.2986
C24A C 1.1231(7) 1.0461(8) 0.228(2)
H24A H 1.1037 0.9943 0.0334
C23B C 0.9191(7) 1.0534(6) -0.396(2)
H23B H 0.9435 0.9863 -0.2986
C24B C 0.9539(8) 1.1231(7) -0.228(2)
H24B H 1.0057 1.1037 -0.0334
C23C C 1.0809(7) 0.9466(6) -0.396(2)
H23C H 1.0565 1.0137 -0.2986
C24C C 1.0461(8) 0.8769(7) -0.228(2)
H24C H 0.9943 0.8963 -0.0334
C16A C 0.3936(6) 0.4255(6) -0.128(3)
H13A H 0.3413 0.4616 -0.2854
H14A H 0.4576 0.3994 -0.0122
C16B C 0.5745(6) 0.3936(6) -0.872(3)
H13B H 0.5384 0.3413 -0.7146
H14B H 0.6006 0.4576 -0.9878
C16C C 0.4255(6) 0.6064(6) -0.872(3)
H13C H 0.4616 0.6587 -0.7146
H14C H 0.3994 0.5424 -0.9878
C17A C 1.0969(8) 0.4177(8) 0.886(3)
H15A H 1.1069 0.4890 0.7868
H16A H 1.0767 0.3579 1.0385
C42A C 1.0831(7) 0.5973(9) 1.638(3)
H27A H 1.1386 0.5928 1.4454
H28A H 1.0140 0.6026 1.7652
C18A C 1.1057(5) 1.0759(6) 0.374(2)
H17A H 1.0404 1.1014 0.4905
H18A H 1.1577 1.0446 0.2047
C18B C 0.9241(6) 1.1057(5) -0.374(2)
H17B H 0.8986 1.0404 -0.4905
H18B H 0.9554 1.1577 -0.2047
C18C C 1.0759(6) 0.8943(5) -0.374(2)
H17C H 1.1014 0.9596 -0.4905
H18C H 1.0446 0.8423 -0.2047
C13A C 0.3604(7) 0.3966(8) -0.005(3)
C13B C 0.6034(8) 0.3604(7) -0.995(3)
C13C C 0.3966(8) 0.6396(7) -0.995(3)
C14A C 1.1283(8) 0.3903(7) 0.757(3)
C43A C 1.1108(7) 0.6326(9) 1.765(3)
C15A C 1.1385(8) 1.1041(8) 0.483(2)
C15B C 0.8959(8) 1.1385(8) -0.483(2)
C15C C 1.1041(8) 0.8615(8) -0.483(2)
C7A C 0.3159(8) 0.3781(8) -0.081(2)
C8A C 0.3716(9) 0.3878(10) 0.173(2)
C7B C 0.6219(8) 0.3159(8) -0.919(2)
C8B C 0.6122(10) 0.3716(9) -1.173(2)
C7C C 0.3781(8) 0.6841(8) -0.919(2)
C8C C 0.3878(10) 0.6284(9) -1.173(2)
C9A C 1.1665(13) 0.4129(11) 0.661(5)
C10A C 1.1231(16) 0.3406(10) 0.739(6)
C44A C 1.1557(10) 0.6506(15) 1.710(3)
C45A C 1.0962(13) 0.6431(15) 1.949(3)
C11A C 1.1289(8) 1.1130(8) 0.671(2)
C12A C 1.1805(7) 1.1262(9) 0.411(2)
C11B C 0.8870(8) 1.1289(8) -0.671(2)
C12B C 0.8738(9) 1.1805(7) -0.411(2)
C11C C 1.1130(8) 0.8711(8) -0.671(2)
C12C C 1.1262(9) 0.8195(7) -0.411(2)
C1A C 0.2839(9) 0.3522(11) 0.040(4)
H7A H 0.3079 0.3828 -0.2070
C2A C 0.3363(10) 0.3566(10) 0.278(2)
H8A H 0.4006 0.4010 0.2286
C1B C 0.6478(11) 0.2839(9) -1.040(4)
H7B H 0.6172 0.3079 -0.7930
C2B C 0.6434(10) 0.3363(10) -1.278(2)
H8B H 0.5990 0.4006 -1.2286
C1C C 0.3522(11) 0.7161(9) -1.040(4)
H7C H 0.3828 0.6921 -0.7930
C2C C 0.3566(10) 0.6637(10) -1.278(2)
H8C H 0.4010 0.5994 -1.2286
C3A C 1.2003(13) 0.3847(10) 0.559(4)
H9A H 1.1698 0.4479 0.6644
C4A C 1.1505(11) 0.3203(13) 0.582(4)
H10A H 1.1036 0.3209 0.8190
C46A C 1.1855(10) 0.6828(13) 1.831(4)
H29A H 1.1679 0.6423 1.5910
C47A C 1.1269(13) 0.6767(16) 2.048(4)
H30A H 1.0676 0.6286 2.0028
C5A C 1.1595(8) 1.1440(9) 0.774(2)
H11A H 1.1012 1.0977 0.7278
C6A C 1.2120(10) 1.1540(10) 0.541(3)
H12A H 1.1886 1.1237 0.2840
C5B C 0.8560(9) 1.1595(8) -0.774(2)
H11B H 0.9023 1.1012 -0.7278
C6B C 0.8460(10) 1.2120(10) -0.541(3)
H12B H 0.8763 1.1886 -0.2840
C5C C 1.1440(9) 0.8405(8) -0.774(2)
H11C H 1.0977 0.8988 -0.7278
C6C C 1.1540(10) 0.7880(10) -0.541(3)
H12C H 1.1237 0.8114 -0.2840
N1A N 0.2928(8) 0.3407(8) 0.214(3)
H1A H 0.2529 0.3419 -0.0091
H2A H 0.3453 0.3472 0.3999
N1B N 0.6593(8) 0.2928(8) -1.214(3)
H1B H 0.6581 0.2529 -0.9909
H2B H 0.6528 0.3453 -1.3999
N1C N 0.3407(8) 0.7072(8) -1.214(3)
H1C H 0.3419 0.7471 -0.9909
H2C H 0.3472 0.6547 -1.3999
N4B N 0.8324(7) 0.3005(8) 1.990(2)
N2A N 1.1927(7) 0.3378(7) 0.5166(19)
H3A H 1.2300 0.4000 0.5189
H4A H 1.1368 0.2922 0.5224
N4C N 1.1676(7) 0.6995(8) 1.990(2)
H31A H 1.2181 0.6916 1.7952
H32A H 1.1171 0.6836 2.1708
N3A N 1.2044(8) 1.1594(8) 0.720(2)
H5A H 1.1478 1.1548 0.8907
H6A H 1.2406 1.1695 0.4918
N3B N 0.8406(8) 1.2044(8) -0.720(2)
H5B H 0.8452 1.1478 -0.8907
H6B H 0.8305 1.2406 -0.4918
N3C N 1.1594(8) 0.7956(8) -0.720(2)
H5C H 1.1548 0.8522 -0.8907
H6C H 1.1695 0.7594 -0.4918
Cu1A Cu 0.24507(12) 0.30054(11) 0.3655(5)
Cu1B Cu 0.69946(11) 0.24507(12) -1.3655(5)
Cu1C Cu 0.30054(11) 0.75493(12) -1.3655(5)
Cu2B Cu 0.79527(11) 0.25014(12) 2.1337(5)
Cu1A_2 Cu 1.24507(12) 0.30054(11) 0.3655(5)
Cu2C Cu 1.20473(11) 0.74986(12) 2.1337(5)
Cu2A Cu 1.25014(12) 1.20473(11) 0.8663(5)
Cu2B_2 Cu 0.79527(11) 1.25014(12) -0.8663(5)
Cu2C_2 Cu 1.20473(11) 0.74986(12) -0.8663(5)
I1A I 0.30334(6) 0.25786(7) 0.6263(3)
I2A I 0.19278(6) 0.24639(7) 0.1270(3)
N2A_2 N 0.1927(7) 0.3378(7) 0.5166(19)
I1A_2 I 1.30334(6) 0.25786(7) 0.6263(3)
I2A_2 I 1.19278(6) 0.24639(7) 0.1270(3)
N1A_2 N 1.2928(8) 0.3407(8) 0.214(3)
Cu2A_2 Cu 0.25014(12) 0.20473(11) 0.8663(5)
Cu2A_3 Cu 0.25014(12) 0.20473(11) -0.1337(5)
Cu2A_4 Cu 1.25014(12) 0.20473(11) 0.8663(5)
Cu2A_5 Cu 1.25014(12) 0.20473(11) -0.1337(5)
I2A_3 I 0.19278(6) 0.24639(7) 1.1270(3)
N3A_2 N 0.2044(8) 0.1594(8) 0.720(2)
N4A N 0.3005(8) 0.1676(7) 1.010(2)
I2A_4 I 1.19278(6) 0.24639(7) 1.1270(3)
N3A_3 N 1.2044(8) 0.1594(8) 0.720(2)
N4A_2 N 1.3005(8) 0.1676(7) 1.010(2)
S1 S 0.5926(19) 0.730(2) 1.079(5)
S2 S 0.565(2) 0.7149(19) 1.323(4)
S3 S 0.557(4) 0.774(2) 1.473(8)
S4 S 0.961(3) 0.777(2) 0.956(4)
S5 S 0.935(3) 0.782(2) 0.711(5)
loop_
_geom_bond_atom_site_label_1
_geom_bond_atom_site_label_2
_geom_bond_site_symmetry_1
_geom_bond_site_symmetry_2
I1 Cu1 1_555 1_555
Cu1 I2 1_555 1_555
Cu2 I1 1_555 1_555
N1 Cu1 1_555 1_555
N2 Cu1 1_555 1_555
N3 Cu2 1_555 1_555
N4 Cu2 1_555 1_555
C1 N1 1_555 1_555
C2 N1 1_555 1_555
C3 N2 1_555 1_555
C4 N2 1_555 1_555
C5 N3 1_555 1_555
C6 N3 1_555 1_555
H1 C1 1_555 1_555
C7 C1 1_555 1_555
C8 C2 1_555 1_555
H2 C2 1_555 1_555
H3 C3 1_555 1_555
C9 C3 1_555 1_555
C10 C4 1_555 1_555
H4 C4 1_555 1_555
H5 C5 1_555 1_555
C11 C5 1_555 1_555
C12 C6 1_555 1_555
H6 C6 1_555 1_555
H7 C7 1_555 1_555
C13 C7 1_555 1_555
H8 C8 1_555 1_555
C14 C9 1_555 1_555
H9 C9 1_555 1_555
H10 C10 1_555 1_555
H11 C11 1_555 1_555
C15 C11 1_555 1_555
H12 C12 1_555 1_555
C16 C13 1_555 1_555
C17 C14 1_555 1_555
C18 C15 1_555 1_555
C19 C16 1_555 1_555
C20 C16 1_555 1_555
C21 C17 1_555 1_555
C22 C17 1_555 1_555
C23 C18 1_555 1_555
C24 C18 1_555 1_555
H13 C19 1_555 1_555
C25 C19 1_555 1_555
C26 C20 1_555 1_555
H14 C20 1_555 1_555
H15 C21 1_555 1_555
C27 C21 1_555 1_555
C28 C22 1_555 1_555
H16 C22 1_555 1_555
H17 C23 1_555 1_555
C29 C23 1_555 1_555
C30 C24 1_555 1_555
H18 C24 1_555 1_555
H19 C25 1_555 1_555
C31 C25 1_555 1_555
H20 C26 1_555 1_555
H21 C27 1_555 1_555
C32 C27 1_555 1_555
H22 C28 1_555 1_555
H23 C29 1_555 1_555
C33 C29 1_555 1_555
H24 C30 1_555 1_555
C34 C31 1_555 1_555
C35 C32 1_555 1_555
C36 C33 1_555 1_555
C37 C35 1_555 1_555
C38 C37 1_555 1_555
C39 C37 1_555 1_555
C40 C38 1_555 1_555
H25 C38 1_555 1_555
C41 C39 1_555 1_555
H26 C39 1_555 1_555
C42 C40 1_555 1_555
H27 C40 1_555 1_555
H28 C41 1_555 1_555
C43 C42 1_555 1_555
C44 C43 1_555 1_555
C45 C43 1_555 1_555
C46 C44 1_555 1_555
H29 C44 1_555 1_555
C47 C45 1_555 1_555
H30 C45 1_555 1_555
H31 C46 1_555 1_555
H32 C47 1_555 1_555
S1 S2 1_555 1_555
S2 S3 1_555 1_555
S4 S5 1_555 1_555
I2_2 Cu2 1_555 1_555
Cu1_2 I2_2 1_555 1_555
C31A C34 1_555 1_555
C31B C34 1_555 1_555
C31C C34 1_555 1_555
C32A C35 1_555 1_555
C37A C35 1_555 1_555
C33A C36 1_555 1_555
C33B C36 1_555 1_555
C33C C36 1_555 1_555
C25A C31A 1_555 1_555
C26A C31A 1_555 1_555
C25B C31B 1_555 1_555
C26B C31B 1_555 1_555
C25C C31C 1_555 1_555
C26C C31C 1_555 1_555
C27A C32A 1_555 1_555
C28A C32A 1_555 1_555
C38A C37A 1_555 1_555
C39A C37A 1_555 1_555
C29A C33A 1_555 1_555
C30A C33A 1_555 1_555
C29B C33B 1_555 1_555
C30B C33B 1_555 1_555
C29C C33C 1_555 1_555
C30C C33C 1_555 1_555
C19A C25A 1_555 1_555
H19A C25A 1_555 1_555
C20A C26A 1_555 1_555
H20A C26A 1_555 1_555
C19B C25B 1_555 1_555
H19B C25B 1_555 1_555
C20B C26B 1_555 1_555
H20B C26B 1_555 1_555
C19C C25C 1_555 1_555
H19C C25C 1_555 1_555
C20C C26C 1_555 1_555
H20C C26C 1_555 1_555
C21A C27A 1_555 1_555
H21A C27A 1_555 1_555
C22A C28A 1_555 1_555
H22A C28A 1_555 1_555
C40A C38A 1_555 1_555
H25A C38A 1_555 1_555
C41A C39A 1_555 1_555
H26A C39A 1_555 1_555
C23A C29A 1_555 1_555
H23A C29A 1_555 1_555
C24A C30A 1_555 1_555
H24A C30A 1_555 1_555
C23B C29B 1_555 1_555
H23B C29B 1_555 1_555
C24B C30B 1_555 1_555
H24B C30B 1_555 1_555
C23C C29C 1_555 1_555
H23C C29C 1_555 1_555
C24C C30C 1_555 1_555
H24C C30C 1_555 1_555
C16A C19A 1_555 1_555
H13A C19A 1_555 1_555
H14A C20A 1_555 1_555
C16B C19B 1_555 1_555
H13B C19B 1_555 1_555
H14B C20B 1_555 1_555
C16C C19C 1_555 1_555
H13C C19C 1_555 1_555
H14C C20C 1_555 1_555
C17A C21A 1_555 1_555
H15A C21A 1_555 1_555
H16A C22A 1_555 1_555
C42A C40A 1_555 1_555
H27A C40A 1_555 1_555
H28A C41A 1_555 1_555
C18A C23A 1_555 1_555
H17A C23A 1_555 1_555
H18A C24A 1_555 1_555
C18B C23B 1_555 1_555
H17B C23B 1_555 1_555
H18B C24B 1_555 1_555
C18C C23C 1_555 1_555
H17C C23C 1_555 1_555
H18C C24C 1_555 1_555
C13A C16A 1_555 1_555
C13B C16B 1_555 1_555
C13C C16C 1_555 1_555
C14A C17A 1_555 1_555
C43A C42A 1_555 1_555
C15A C18A 1_555 1_555
C15B C18B 1_555 1_555
C15C C18C 1_555 1_555
C7A C13A 1_555 1_555
C8A C13A 1_555 1_555
C7B C13B 1_555 1_555
C8B C13B 1_555 1_555
C7C C13C 1_555 1_555
C8C C13C 1_555 1_555
C9A C14A 1_555 1_555
C10A C14A 1_555 1_555
C44A C43A 1_555 1_555
C45A C43A 1_555 1_555
C11A C15A 1_555 1_555
C12A C15A 1_555 1_555
C11B C15B 1_555 1_555
C12B C15B 1_555 1_555
C11C C15C 1_555 1_555
C12C C15C 1_555 1_555
C1A C7A 1_555 1_555
H7A C7A 1_555 1_555
C2A C8A 1_555 1_555
H8A C8A 1_555 1_555
C1B C7B 1_555 1_555
H7B C7B 1_555 1_555
C2B C8B 1_555 1_555
H8B C8B 1_555 1_555
C1C C7C 1_555 1_555
H7C C7C 1_555 1_555
C2C C8C 1_555 1_555
H8C C8C 1_555 1_555
C3A C9A 1_555 1_555
H9A C9A 1_555 1_555
C4A C10A 1_555 1_555
H10A C10A 1_555 1_555
C46A C44A 1_555 1_555
H29A C44A 1_555 1_555
C47A C45A 1_555 1_555
H30A C45A 1_555 1_555
C5A C11A 1_555 1_555
H11A C11A 1_555 1_555
C6A C12A 1_555 1_555
H12A C12A 1_555 1_555
C5B C11B 1_555 1_555
H11B C11B 1_555 1_555
C6B C12B 1_555 1_555
H12B C12B 1_555 1_555
C5C C11C 1_555 1_555
H11C C11C 1_555 1_555
C6C C12C 1_555 1_555
H12C C12C 1_555 1_555
N1A C1A 1_555 1_555
H1A C1A 1_555 1_555
H2A C2A 1_555 1_555
N1B C1B 1_555 1_555
H1B C1B 1_555 1_555
H2B C2B 1_555 1_555
N1C C1C 1_555 1_555
H1C C1C 1_555 1_555
H2C C2C 1_555 1_555
N4B C46 1_555 1_555
N2A C3A 1_555 1_555
H3A C3A 1_555 1_555
H4A C4A 1_555 1_555
N4C C46A 1_555 1_555
H31A C46A 1_555 1_555
H32A C47A 1_555 1_555
N3A C5A 1_555 1_555
H5A C5A 1_555 1_555
H6A C6A 1_555 1_555
N3B C5B 1_555 1_555
H5B C5B 1_555 1_555
H6B C6B 1_555 1_555
N3C C5C 1_555 1_555
H5C C5C 1_555 1_555
H6C C6C 1_555 1_555
Cu1A N1A 1_555 1_555
Cu1B N1B 1_555 1_555
Cu1C N1C 1_555 1_555
Cu2B N4B 1_555 1_555
Cu1A_2 N2A 1_555 1_555
Cu2C N4C 1_555 1_555
Cu2A N3A 1_555 1_555
Cu2B_2 N3B 1_555 1_555
Cu2C_2 N3C 1_555 1_555
I1A Cu1A 1_555 1_555
I2A Cu1A 1_555 1_555
N2A_2 Cu1A 1_555 1_555
I1A_2 Cu1A_2 1_555 1_555
I2A_2 Cu1A_2 1_555 1_555
N1A_2 Cu1A_2 1_555 1_555
Cu2A_2 I1A 1_555 1_555
Cu2A_3 I2A 1_555 1_555
Cu2A_4 I1A_2 1_555 1_555
Cu2A_5 I2A_2 1_555 1_555
I2A_3 Cu2A_2 1_555 1_555
N3A_2 Cu2A_2 1_555 1_555
N4A Cu2A_2 1_555 1_555
I2A_4 Cu2A_4 1_555 1_555
N3A_3 Cu2A_4 1_555 1_555
N4A_2 Cu2A_4 1_555 1_555
C8 C13 1_555 1_555
C10 C14 1_555 1_555
C12 C15 1_555 1_555
C26 C31 1_555 1_555
C28 C32 1_555 1_555
C30 C33 1_555 1_555
C41 C42 1_555 1_555
C47 N4B 1_555 1_555
C20A C16A 1_555 1_555
C20B C16B 1_555 1_555
C20C C16C 1_555 1_555
C22A C17A 1_555 1_555
C41A C42A 1_555 1_555
C24A C18A 1_555 1_555
C24B C18B 1_555 1_555
C24C C18C 1_555 1_555
C2A N1A 1_555 1_555
C2B N1B 1_555 1_555
C2C N1C 1_555 1_555
C4A N2A 1_555 1_555
C47A N4C 1_555 1_555
C6A N3A 1_555 1_555
C6B N3B 1_555 1_555
C6C N3C 1_555 1_555

#END
