
#######################################################################
#
#                 Cambridge Crystallographic Data Centre
#                                CCDC 
#
#######################################################################
#
# If this CIF has been generated from an entry in the Cambridge 
# Structural Database, then it will include bibliographic, chemical, 
# crystal, experimental, refinement or atomic coordinate data resulting 
# from the CCDC's data processing and validation procedures.
#
#######################################################################

data_IPEBAI
_chemical_formula_moiety         'C77 H64 Cu5 I4 N6 S2'
_symmetry_cell_setting           tetragonal
_symmetry_space_group_name_H-M   'I 4/m c m'
_symmetry_Int_Tables_number      140
_space_group_name_Hall           '-I 4 2c'
loop_
_symmetry_equiv_pos_site_id
_symmetry_equiv_pos_as_xyz
1 x,y,z
2 x,-y,1/2-z
3 -x,-y,z
4 -x,y,1/2-z
5 y,x,1/2-z
6 y,-x,z
7 -y,x,z
8 -y,-x,1/2-z
9 1/2+x,1/2+y,1/2+z
10 1/2+x,1/2-y,-z
11 1/2-x,1/2-y,1/2+z
12 1/2-x,1/2+y,-z
13 1/2+y,1/2+x,-z
14 1/2+y,1/2-x,1/2+z
15 1/2-y,1/2+x,1/2+z
16 1/2-y,1/2-x,-z
17 -x,-y,-z
18 -x,y,1/2+z
19 x,y,-z
20 x,-y,1/2+z
21 -y,-x,1/2+z
22 -y,x,-z
23 y,-x,-z
24 y,x,1/2+z
25 1/2-x,1/2-y,1/2-z
26 1/2-x,1/2+y,z
27 1/2+x,1/2+y,1/2-z
28 1/2+x,1/2-y,z
29 1/2-y,1/2-x,z
30 1/2-y,1/2+x,1/2-z
31 1/2+y,1/2-x,1/2-z
32 1/2+y,1/2+x,z
_cell_length_a                   13.2563(2)
_cell_length_b                   13.2563(2)
_cell_length_c                   27.5616(7)
_cell_angle_alpha                90
_cell_angle_beta                 90
_cell_angle_gamma                90
_cell_volume                     4843.39
loop_
_atom_site_label
_atom_site_type_symbol
_atom_site_fract_x
_atom_site_fract_y
_atom_site_fract_z
C1 C 0.0000 -0.5000 0.2500
C2 C 0.06778(14) -0.43222(14) 0.21761(9)
C3 C 0.25370(15) -0.24630(15) 0.12558(10)
C4 C 0.19079(14) -0.30921(14) 0.15814(9)
C5 C 0.1533(3) -0.2734(3) 0.20143(14)
C6 C 0.0905(3) -0.3327(3) 0.23092(13)
C7 C 0.1681(3) -0.4103(3) 0.14494(13)
C8 C 0.1078(3) -0.4689(3) 0.17453(13)
H1 H 0.0932 -0.5363 0.1651
H2 H 0.1945 -0.4377 0.1157
H3 H 0.1703 -0.2071 0.2116
H4 H 0.0634 -0.3053 0.2600
C9 C 0.2063(3) -0.1719(3) 0.09584(15)
C10 C 0.3549(3) -0.2549(3) 0.12216(16)
Cu1 Cu 0.43382(3) -0.06618(3) 0.0000
I1 I 0.375807(14) 0.124193(14) 0.0000
N1 N 0.36674(12) -0.13326(12) 0.05872(9)
C11 C 0.4088(3) -0.1967(3) 0.08865(15)
H5 H 0.4801 -0.2039 0.0877
C12 C 0.2653(3) -0.1181(3) 0.06299(15)
H6 H 0.2339 -0.0692 0.0429
H7 H 0.3898 -0.3007 0.1427
H8 H 0.1360 -0.1593 0.0984
C2A C 0.06778(14) -0.56778(14) 0.28239(9)
C3A C 0.25370(15) -0.75370(15) 0.37442(10)
C4A C 0.19079(14) -0.69079(14) 0.34186(9)
C5A C 0.1533(3) -0.7266(3) 0.29857(14)
C6A C 0.0905(3) -0.6673(3) 0.26908(13)
C7A C 0.1681(3) -0.5897(3) 0.35506(13)
C8A C 0.1078(3) -0.5311(3) 0.32547(13)
H1A H 0.0932 -0.4637 0.3349
H2A H 0.1945 -0.5623 0.3843
H3A H 0.1703 -0.7929 0.2884
H4A H 0.0634 -0.6947 0.2400
C9A C 0.2063(3) -0.8281(3) 0.40416(15)
C10A C 0.3549(3) -0.7451(3) 0.37784(16)
N1A N 0.36674(12) -0.86674(12) 0.44128(9)
C11A C 0.4088(3) -0.8033(3) 0.41135(15)
H5A H 0.4801 -0.7961 0.4123
C12A C 0.2653(3) -0.8819(3) 0.43701(15)
H6A H 0.2339 -0.9308 0.4571
H7A H 0.3898 -0.6993 0.3573
H8A H 0.1360 -0.8407 0.4016
C2B C -0.06778(14) -0.56778(14) 0.21761(9)
C3B C -0.25370(15) -0.75370(15) 0.12558(10)
C4B C -0.19079(14) -0.69079(14) 0.15814(9)
C5B C -0.1533(3) -0.7266(3) 0.20143(14)
C6B C -0.0905(3) -0.6673(3) 0.23092(13)
C7B C -0.1681(3) -0.5897(3) 0.14494(13)
C8B C -0.1078(3) -0.5311(3) 0.17453(13)
H1B H -0.0932 -0.4637 0.1651
H2B H -0.1945 -0.5623 0.1157
H3B H -0.1703 -0.7929 0.2116
H4B H -0.0634 -0.6947 0.2600
C9B C -0.2063(3) -0.8281(3) 0.09584(15)
C10B C -0.3549(3) -0.7451(3) 0.12216(16)
N1B N -0.36674(12) -0.86674(12) 0.05872(9)
C11B C -0.4088(3) -0.8033(3) 0.08865(15)
H5B H -0.4801 -0.7961 0.0877
C12B C -0.2653(3) -0.8819(3) 0.06299(15)
H6B H -0.2339 -0.9308 0.0429
H7B H -0.3898 -0.6993 0.1427
H8B H -0.1360 -0.8407 0.0984
C2C C -0.06778(14) -0.43222(14) 0.28239(9)
C3C C -0.25370(15) -0.24630(15) 0.37442(10)
C4C C -0.19079(14) -0.30921(14) 0.34186(9)
C5C C -0.1533(3) -0.2734(3) 0.29857(14)
C6C C -0.0905(3) -0.3327(3) 0.26908(13)
C7C C -0.1681(3) -0.4103(3) 0.35506(13)
C8C C -0.1078(3) -0.4689(3) 0.32547(13)
H1C H -0.0932 -0.5363 0.3349
H2C H -0.1945 -0.4377 0.3843
H3C H -0.1703 -0.2071 0.2884
H4C H -0.0634 -0.3053 0.2400
C9C C -0.2063(3) -0.1719(3) 0.40416(15)
C10C C -0.3549(3) -0.2549(3) 0.37784(16)
N1C N -0.36674(12) -0.13326(12) 0.44128(9)
C11C C -0.4088(3) -0.1967(3) 0.41135(15)
H5C H -0.4801 -0.2039 0.4123
C12C C -0.2653(3) -0.1181(3) 0.43701(15)
H6C H -0.2339 -0.0692 0.4571
H7C H -0.3898 -0.3007 0.3573
H8C H -0.1360 -0.1593 0.4016
C5BA C -0.2266(3) -0.6533(3) 0.20143(14)
C6BA C -0.1673(3) -0.5905(3) 0.23092(13)
C7BA C -0.0897(3) -0.6681(3) 0.14494(13)
C8BA C -0.0311(3) -0.6078(3) 0.17453(13)
H1BA H 0.0363 -0.5932 0.1651
H2BA H -0.0623 -0.6945 0.1157
H3BA H -0.2929 -0.6703 0.2116
H4BA H -0.1947 -0.5634 0.2600
C9BA C -0.3281(3) -0.7063(3) 0.09584(15)
C10BA C -0.2451(3) -0.8549(3) 0.12216(16)
C11BA C -0.3033(3) -0.9088(3) 0.08865(15)
H5BA H -0.2961 -0.9801 0.0877
C12BA C -0.3819(3) -0.7653(3) 0.06299(15)
H6BA H -0.4308 -0.7339 0.0429
H7BA H -0.1993 -0.8898 0.1427
H8BA H -0.3407 -0.6360 0.0984
C5CA C -0.2266(3) -0.3467(3) 0.29857(14)
C6CA C -0.1673(3) -0.4095(3) 0.26908(13)
C7CA C -0.0897(3) -0.3319(3) 0.35506(13)
C8CA C -0.0311(3) -0.3922(3) 0.32547(13)
H1CA H 0.0363 -0.4068 0.3349
H2CA H -0.0623 -0.3055 0.3843
H3CA H -0.2929 -0.3297 0.2884
H4CA H -0.1947 -0.4366 0.2400
C9CA C -0.3281(3) -0.2937(3) 0.40416(15)
C10CA C -0.2451(3) -0.1451(3) 0.37784(16)
C11CA C -0.3033(3) -0.0912(3) 0.41135(15)
H5CA H -0.2961 -0.0199 0.4123
C12CA C -0.3819(3) -0.2347(3) 0.43701(15)
H6CA H -0.4308 -0.2661 0.4571
H7CA H -0.1993 -0.1102 0.3573
H8CA H -0.3407 -0.3640 0.4016
C5DA C 0.2266(3) -0.6533(3) 0.29857(14)
C6DA C 0.1673(3) -0.5905(3) 0.26908(13)
C7DA C 0.0897(3) -0.6681(3) 0.35506(13)
C8DA C 0.0311(3) -0.6078(3) 0.32547(13)
H1DA H -0.0363 -0.5932 0.3349
H2DA H 0.0623 -0.6945 0.3843
H3DA H 0.2929 -0.6703 0.2884
H4DA H 0.1947 -0.5634 0.2400
C9DA C 0.3281(3) -0.7063(3) 0.40416(15)
C10DA C 0.2451(3) -0.8549(3) 0.37784(16)
C11DA C 0.3033(3) -0.9088(3) 0.41135(15)
H5DA H 0.2961 -0.9801 0.4123
C12DA C 0.3819(3) -0.7653(3) 0.43701(15)
H6DA H 0.4308 -0.7339 0.4571
H7DA H 0.1993 -0.8898 0.3573
H8DA H 0.3407 -0.6360 0.4016
C5EA C 0.2266(3) -0.3467(3) 0.20143(14)
C6EA C 0.1673(3) -0.4095(3) 0.23092(13)
C7EA C 0.0897(3) -0.3319(3) 0.14494(13)
C8EA C 0.0311(3) -0.3922(3) 0.17453(13)
H1EA H -0.0363 -0.4068 0.1651
H2EA H 0.0623 -0.3055 0.1157
H3EA H 0.2929 -0.3297 0.2116
H4EA H 0.1947 -0.4366 0.2600
C9EA C 0.3281(3) -0.2937(3) 0.09584(15)
C10EA C 0.2451(3) -0.1451(3) 0.12216(16)
C11EA C 0.3033(3) -0.0912(3) 0.08865(15)
H5EA H 0.2961 -0.0199 0.0877
C12EA C 0.3819(3) -0.2347(3) 0.06299(15)
H6EA H 0.4308 -0.2661 0.0429
H7EA H 0.1993 -0.1102 0.1427
H8EA H 0.3407 -0.3640 0.0984
Cu1B Cu -0.43382(3) -0.93382(3) 0.0000
I1B I 0.624193(14) -0.124193(14) 0.0000
Cu1A Cu 0.43382(3) -0.93382(3) 0.5000
Cu1B_2 Cu 0.56618(3) 0.06618(3) 0.0000
Cu1C Cu -0.43382(3) -0.06618(3) 0.5000
I1_2 I -0.624193(14) -0.875807(14) 0.0000
I1B_2 I -0.375807(14) -1.124193(14) 0.0000
N1L N 0.36674(12) -0.13326(12) -0.05872(9)
N1O N -0.36674(12) -0.86674(12) -0.05872(9)
S1 S 0.0000 0.0000 0.1155(19)
S2 S 0.0000 0.0000 0.1831(19)
loop_
_geom_bond_atom_site_label_1
_geom_bond_atom_site_label_2
_geom_bond_site_symmetry_1
_geom_bond_site_symmetry_2
S1 S2 1_555 1_555
C1 C2 1_555 1_555
C2 C6 1_555 1_555
C3 C4 1_555 1_555
C4 C5 1_555 1_555
C5 C6 1_555 1_555
C6 H4 1_555 1_555
C7 C4 1_555 1_555
C8 C2 1_555 1_555
H1 C8 1_555 1_555
H2 C7 1_555 1_555
H3 C5 1_555 1_555
C9 C3 1_555 1_555
C10 C3 1_555 1_555
Cu1 I1 1_555 1_555
I1 Cu1B_2 1_555 1_555
N1 Cu1 1_555 1_555
C11 C10 1_555 1_555
H5 C11 1_555 1_555
C12 C9 1_555 1_555
H6 C12 1_555 1_555
H7 C10 1_555 1_555
H8 C9 1_555 1_555
C2A C1 1_555 1_555
C3A C4A 1_555 1_555
C4A C5A 1_555 1_555
C5A C6A 1_555 1_555
C6A C2A 1_555 1_555
C7A C4A 1_555 1_555
C8A C2A 1_555 1_555
H1A C8A 1_555 1_555
H2A C7A 1_555 1_555
H3A C5A 1_555 1_555
H4A C6A 1_555 1_555
C9A C3A 1_555 1_555
C10A C3A 1_555 1_555
N1A C11A 1_555 1_555
C11A C10A 1_555 1_555
H5A C11A 1_555 1_555
C12A C9A 1_555 1_555
H6A C12A 1_555 1_555
H7A C10A 1_555 1_555
H8A C9A 1_555 1_555
C2B C1 1_555 1_555
C3B C4B 1_555 1_555
C4B C5B 1_555 1_555
C5B C6B 1_555 1_555
C6B C2B 1_555 1_555
C7B C4B 1_555 1_555
C8B C2B 1_555 1_555
H1B C8B 1_555 1_555
H2B C7B 1_555 1_555
H3B C5B 1_555 1_555
H4B C6B 1_555 1_555
C9B C3B 1_555 1_555
C10B C3B 1_555 1_555
N1B C11B 1_555 1_555
C11B C10B 1_555 1_555
H5B C11B 1_555 1_555
C12B C9B 1_555 1_555
H6B C12B 1_555 1_555
H7B C10B 1_555 1_555
H8B C9B 1_555 1_555
C2C C1 1_555 1_555
C3C C4C 1_555 1_555
C4C C5C 1_555 1_555
C5C C6C 1_555 1_555
C6C C2C 1_555 1_555
C7C C4C 1_555 1_555
C8C C2C 1_555 1_555
H1C C8C 1_555 1_555
H2C C7C 1_555 1_555
H3C C5C 1_555 1_555
H4C C6C 1_555 1_555
C9C C3C 1_555 1_555
C10C C3C 1_555 1_555
N1C C11C 1_555 1_555
C11C C10C 1_555 1_555
H5C C11C 1_555 1_555
C12C C9C 1_555 1_555
H6C C12C 1_555 1_555
H7C C10C 1_555 1_555
H8C C9C 1_555 1_555
C5BA C4B 1_555 1_555
C6BA C2B 1_555 1_555
C7BA C4B 1_555 1_555
C8BA C2B 1_555 1_555
H1BA C8BA 1_555 1_555
H2BA C7BA 1_555 1_555
H3BA C5BA 1_555 1_555
H4BA C6BA 1_555 1_555
C9BA C3B 1_555 1_555
C10BA C3B 1_555 1_555
C11BA N1B 1_555 1_555
H5BA C11BA 1_555 1_555
C12BA N1B 1_555 1_555
H6BA C12BA 1_555 1_555
H7BA C10BA 1_555 1_555
H8BA C9BA 1_555 1_555
C5CA C4C 1_555 1_555
C6CA C2C 1_555 1_555
C7CA C4C 1_555 1_555
C8CA C2C 1_555 1_555
H1CA C8CA 1_555 1_555
H2CA C7CA 1_555 1_555
H3CA C5CA 1_555 1_555
H4CA C6CA 1_555 1_555
C9CA C3C 1_555 1_555
C10CA C3C 1_555 1_555
C11CA N1C 1_555 1_555
H5CA C11CA 1_555 1_555
C12CA N1C 1_555 1_555
H6CA C12CA 1_555 1_555
H7CA C10CA 1_555 1_555
H8CA C9CA 1_555 1_555
C5DA C4A 1_555 1_555
C6DA C2A 1_555 1_555
C7DA C4A 1_555 1_555
C8DA C2A 1_555 1_555
H1DA C8DA 1_555 1_555
H2DA C7DA 1_555 1_555
H3DA C5DA 1_555 1_555
H4DA C6DA 1_555 1_555
C9DA C3A 1_555 1_555
C10DA C3A 1_555 1_555
C11DA N1A 1_555 1_555
H5DA C11DA 1_555 1_555
C12DA N1A 1_555 1_555
H6DA C12DA 1_555 1_555
H7DA C10DA 1_555 1_555
H8DA C9DA 1_555 1_555
C5EA C4 1_555 1_555
C6EA C2 1_555 1_555
C7EA C4 1_555 1_555
C8EA C2 1_555 1_555
H1EA C8EA 1_555 1_555
H2EA C7EA 1_555 1_555
H3EA C5EA 1_555 1_555
H4EA C6EA 1_555 1_555
C9EA C3 1_555 1_555
C10EA C3 1_555 1_555
C11EA N1 1_555 1_555
H5EA C11EA 1_555 1_555
C12EA N1 1_555 1_555
H6EA C12EA 1_555 1_555
H7EA C10EA 1_555 1_555
H8EA C9EA 1_555 1_555
Cu1B N1B 1_555 1_555
I1B Cu1 1_555 1_555
Cu1A N1A 1_555 1_555
Cu1B_2 I1B 1_555 1_555
Cu1C N1C 1_555 1_555
I1_2 Cu1B 1_555 1_555
I1B_2 Cu1B 1_555 1_555
N1L Cu1 1_555 1_555
N1O Cu1B 1_555 1_555
C5 C5EA 1_555 1_555
C6 C6EA 1_555 1_555
C7 C8 1_555 1_555
C7 C7EA 1_555 1_555
C8 C8EA 1_555 1_555
C9 C10EA 1_555 1_555
C10 C9EA 1_555 1_555
N1 C11 1_555 1_555
N1 C12 1_555 1_555
C11 C12EA 1_555 1_555
C12 C11EA 1_555 1_555
C5A C5DA 1_555 1_555
C6A C6DA 1_555 1_555
C7A C8A 1_555 1_555
C7A C7DA 1_555 1_555
C8A C8DA 1_555 1_555
C9A C10DA 1_555 1_555
C10A C9DA 1_555 1_555
N1A C12A 1_555 1_555
C11A C12DA 1_555 1_555
C12A C11DA 1_555 1_555
C5B C5BA 1_555 1_555
C6B C6BA 1_555 1_555
C7B C8B 1_555 1_555
C7B C7BA 1_555 1_555
C8B C8BA 1_555 1_555
C9B C10BA 1_555 1_555
C10B C9BA 1_555 1_555
N1B C12B 1_555 1_555
C11B C12BA 1_555 1_555
C12B C11BA 1_555 1_555
C5C C5CA 1_555 1_555
C6C C6CA 1_555 1_555
C7C C8C 1_555 1_555
C7C C7CA 1_555 1_555
C8C C8CA 1_555 1_555
C9C C10CA 1_555 1_555
C10C C9CA 1_555 1_555
N1C C12C 1_555 1_555
C11C C12CA 1_555 1_555
C12C C11CA 1_555 1_555
C5BA C6BA 1_555 1_555
C7BA C8BA 1_555 1_555
C9BA C12BA 1_555 1_555
C10BA C11BA 1_555 1_555
C5CA C6CA 1_555 1_555
C7CA C8CA 1_555 1_555
C9CA C12CA 1_555 1_555
C10CA C11CA 1_555 1_555
C5DA C6DA 1_555 1_555
C7DA C8DA 1_555 1_555
C9DA C12DA 1_555 1_555
C10DA C11DA 1_555 1_555
C5EA C6EA 1_555 1_555
C7EA C8EA 1_555 1_555
C9EA C12EA 1_555 1_555
C10EA C11EA 1_555 1_555

#END
