
#######################################################################
#
#                 Cambridge Crystallographic Data Centre
#                                CCDC 
#
#######################################################################
#
# If this CIF has been generated from an entry in the Cambridge 
# Structural Database, then it will include bibliographic, chemical, 
# crystal, experimental, refinement or atomic coordinate data resulting 
# from the CCDC's data processing and validation procedures.
#
#######################################################################

data_POVZUX
_chemical_formula_moiety         '(C44 H66 Cu5 N20 O93 Si2 Sm2 W22)n'
_symmetry_cell_setting           triclinic
_symmetry_space_group_name_H-M   'P -1'
_symmetry_Int_Tables_number      2
_space_group_name_Hall           '-P 1'
loop_
_symmetry_equiv_pos_site_id
_symmetry_equiv_pos_as_xyz
1 x,y,z
2 -x,-y,-z
_cell_length_a                   11.384(5)
_cell_length_b                   12.189(5)
_cell_length_c                   23.331(5)
_cell_angle_alpha                83.750(5)
_cell_angle_beta                 82.022(5)
_cell_angle_gamma                70.697(5)
_cell_volume                     3018.95
loop_
_atom_site_label
_atom_site_type_symbol
_atom_site_fract_x
_atom_site_fract_y
_atom_site_fract_z
W1 W -0.08883(8) 0.49088(7) 0.76447(4)
W2 W 0.01059(8) 0.34366(7) 0.63091(4)
W3 W 0.01731(8) -0.01425(7) 0.74517(4)
W4 W 0.23396(8) 0.07845(7) 0.63100(4)
W5 W 0.31600(8) 0.31348(7) 0.64562(4)
W6 W 0.21112(8) 0.46532(7) 0.78200(4)
W7 W 0.02890(8) 0.37080(7) 0.88917(4)
W8 W 0.25684(8) 0.07533(7) 0.89234(4)
W9 W 0.35001(8) -0.06832(7) 0.76910(5)
W10 W -0.07242(7) 0.11811(7) 0.86721(4)
W11 W 0.43711(8) 0.16576(7) 0.78342(4)
Cu1 Cu -0.1086(2) 0.7575(2) 0.74498(12)
Cu2 Cu -0.6916(2) 0.8695(2) 1.02778(12)
Cu3 Cu 0.5000 0.5000 0.5000
Sm1 Sm -0.26350(10) 0.26703(9) 0.73989(6)
Si1 Si 0.1264(5) 0.2127(4) 0.7627(3)
O1 O -0.1927(14) 0.6301(13) 0.7575(7)
O2 O -0.0578(15) 0.4268(12) 0.5730(8)
O3 O 0.0123(14) -0.1516(12) 0.7339(7)
O4 O 0.2816(16) -0.0179(13) 0.5773(7)
O5 O 0.4248(13) 0.3675(12) 0.6042(7)
O6 O 0.2908(14) 0.5636(12) 0.7848(8)
O7 O -0.0194(17) 0.4168(15) 0.9578(8)
O8 O 0.2945(14) 0.0203(13) 0.9625(7)
O9 O 0.4450(15) -0.2116(13) 0.7606(9)
O10 O -0.1398(13) 0.0722(12) 0.9335(7)
O11 O 0.5934(12) 0.1623(11) 0.7818(7)
O12 O 0.2483(12) 0.1350(12) 0.7920(7)
O13 O 0.3472(13) 0.1660(13) 0.6061(8)
O14 O 0.1050(15) 0.2030(14) 0.5950(8)
O15 O 0.1773(13) 0.3811(12) 0.6105(7)
O16 O 0.3282(16) 0.0005(14) 0.6907(8)
O17 O 0.2587(14) 0.4189(12) 0.7043(7)
O18 O -0.0228(13) 0.4610(11) 0.6867(7)
O19 O -0.1023(13) 0.2850(12) 0.6678(7)
O20 O 0.1875(15) -0.0703(14) 0.7714(7)
O21 O -0.1362(13) 0.0716(11) 0.7311(7)
O22 O -0.1831(13) 0.4046(12) 0.7682(7)
O23 O -0.2090(12) 0.1877(11) 0.8353(7)
O24 O -0.0326(13) -0.0214(12) 0.8265(7)
O25 O 0.1054(13) 0.0559(13) 0.8903(8)
O26 O 0.3390(14) -0.0651(11) 0.8521(7)
O27 O 0.1707(12) 0.2395(12) 0.9027(7)
O28 O -0.0927(14) 0.4895(12) 0.8486(7)
O29 O 0.0582(13) 0.5600(12) 0.7631(7)
O30 O 0.4767(15) 0.0099(14) 0.7661(8)
O31 O 0.1438(13) 0.4568(11) 0.8624(7)
O32 O 0.3374(17) 0.3215(17) 0.7998(8)
O33 O -0.0538(13) 0.2589(12) 0.8859(7)
O34 O 0.4116(16) 0.2131(15) 0.7054(8)
O35 O 0.1055(13) 0.0217(11) 0.6742(7)
O36 O 0.4112(13) 0.1157(13) 0.8640(7)
O37 O 0.1631(12) 0.2297(11) 0.6918(6)
O38 O 0.0857(14) 0.3356(12) 0.7885(7)
O39 O 0.0220(13) 0.1510(11) 0.7788(6)
O40 O -0.4364(17) 0.4061(19) 0.8065(10)
O41 O -0.402(2) 0.420(2) 0.6798(11)
O42 O -0.3227(19) 0.1821(17) 0.6586(9)
O43 O -0.2662(19) 0.9070(18) 0.7401(10)
O44 O -0.6372(14) 0.9307(15) 1.0933(8)
C1 C -0.0036(19) 0.7317(18) 0.6264(10)
H1 H 0.0625 0.7448 0.6408
C2 C 0.0122(19) 0.7004(17) 0.5687(10)
C3 C -0.088(2) 0.688(2) 0.5415(12)
H2 H -0.0820 0.6690 0.5035
C4 C -0.2028(18) 0.7119(16) 0.5842(10)
C5 C -0.2043(19) 0.7347(16) 0.6391(10)
H3 H -0.2783 0.7452 0.6637
C6 C 0.241(2) 0.6032(19) 0.5487(11)
H4 H 0.2521 0.5511 0.5813
C7 C 0.280(2) 0.687(2) 0.4661(12)
H5 H 0.3237 0.7019 0.4310
C8 C 0.152(2) 0.740(2) 0.4824(11)
H6 H 0.0953 0.8007 0.4625
C9 C -0.429(3) 0.777(3) 0.5704(15)
H7 H -0.4537 0.8502 0.5854
C10 C -0.500(4) 0.725(3) 0.548(2)
H8 H -0.5845 0.7613 0.5432
C11 C -0.321(3) 0.598(2) 0.5452(13)
H9 H -0.2554 0.5288 0.5405
C12 C -0.005(2) 0.7511(17) 0.8516(10)
H10 H 0.0663 0.7489 0.8264
C13 C -0.0009(18) 0.7487(16) 0.9110(10)
C14 C -0.108(2) 0.7535(18) 0.9497(11)
H11 H -0.1080 0.7521 0.9896
C15 C -0.214(2) 0.7602(19) 0.9257(11)
C16 C -0.214(2) 0.7604(18) 0.8663(10)
H12 H -0.2867 0.7632 0.8512
C17 C -0.434(2) 0.818(2) 0.9586(13)
H13 H -0.4586 0.8762 0.9296
C18 C -0.317(2) 0.676(2) 1.0097(13)
H14 H -0.2452 0.6228 1.0233
C19 C -0.438(2) 0.692(2) 1.0327(13)
H15 H -0.4650 0.6475 1.0629
C20 C 0.126(2) 0.8110(19) 0.9689(11)
H16 H 0.0600 0.8699 0.9860
C21 C 0.237(2) 0.663(2) 0.9128(12)
H17 H 0.2570 0.6087 0.8849
C22 C 0.313(3) 0.689(2) 0.9452(13)
H18 H 0.3976 0.6474 0.9457
N1 N -0.1067(16) 0.7430(14) 0.6600(8)
N2 N 0.1285(15) 0.6829(14) 0.5348(8)
N3 N 0.3269(16) 0.6137(15) 0.5084(9)
N4 N -0.3136(18) 0.6978(15) 0.5653(10)
N5 N -0.4366(18) 0.6166(16) 0.5338(10)
N6 N -0.1096(15) 0.7566(13) 0.8301(8)
N7 N -0.3221(16) 0.7531(15) 0.9633(8)
N8 N -0.5114(18) 0.7883(17) 1.0025(9)
N9 N 0.1158(19) 0.7408(17) 0.9329(9)
N10 N 0.2486(17) 0.7856(15) 0.9777(9)
W1A W -0.91117(8) 0.50912(7) 1.23553(4)
W2A W -1.01059(8) 0.65634(7) 1.36909(4)
W3A W -1.01731(8) 1.01425(7) 1.25483(4)
W4A W -1.23396(8) 0.92155(7) 1.36900(4)
W5A W -1.31600(8) 0.68652(7) 1.35438(4)
W6A W -1.21112(8) 0.53468(7) 1.21800(4)
W7A W -1.02890(8) 0.62920(7) 1.11083(4)
W8A W -1.25684(8) 0.92467(7) 1.10766(4)
W9A W -1.35001(8) 1.06832(7) 1.23090(5)
W10A W -0.92758(7) 0.88189(7) 1.13279(4)
W11A W -1.43711(8) 0.83424(7) 1.21658(4)
Cu1A Cu -0.8914(2) 0.2425(2) 1.25502(12)
Cu2A Cu -0.3084(2) 0.1305(2) 0.97222(12)
Sm1A Sm -0.73650(10) 0.73297(9) 1.26011(6)
Si1A Si -1.1264(5) 0.7873(4) 1.2373(3)
O1A O -0.8073(14) 0.3699(13) 1.2425(7)
O2A O -0.9422(15) 0.5732(12) 1.4270(8)
O3A O -1.0123(14) 1.1516(12) 1.2661(7)
O4A O -1.2816(16) 1.0179(13) 1.4227(7)
O5A O -1.4248(13) 0.6325(12) 1.3958(7)
O6A O -1.2908(14) 0.4364(12) 1.2152(8)
O7A O -0.9806(17) 0.5832(15) 1.0422(8)
O8A O -1.2945(14) 0.9797(13) 1.0375(7)
O9A O -1.4450(15) 1.2116(13) 1.2394(9)
O10A O -0.8602(13) 0.9278(12) 1.0665(7)
O11A O -1.5934(12) 0.8377(11) 1.2182(7)
O12A O -1.2483(12) 0.8650(12) 1.2080(7)
O13A O -1.3472(13) 0.8340(13) 1.3939(8)
O14A O -1.1050(15) 0.7970(14) 1.4050(8)
O15A O -1.1773(13) 0.6189(12) 1.3895(7)
O16A O -1.3282(16) 0.9995(14) 1.3093(8)
O17A O -1.2587(14) 0.5811(12) 1.2957(7)
O18A O -0.9772(13) 0.5390(11) 1.3133(7)
O19A O -0.8977(13) 0.7150(12) 1.3322(7)
O20A O -1.1875(15) 1.0703(14) 1.2286(7)
O21A O -0.8638(13) 0.9284(11) 1.2689(7)
O22A O -0.8169(13) 0.5954(12) 1.2318(7)
O23A O -0.7910(12) 0.8123(11) 1.1647(7)
O24A O -0.9674(13) 1.0214(12) 1.1735(7)
O25A O -1.1054(13) 0.9441(13) 1.1097(8)
O26A O -1.3390(14) 1.0651(11) 1.1479(7)
O27A O -1.1707(12) 0.7605(12) 1.0973(7)
O28A O -0.9073(14) 0.5105(12) 1.1514(7)
O29A O -1.0582(13) 0.4400(12) 1.2369(7)
O30A O -1.4767(15) 0.9901(14) 1.2339(8)
O31A O -1.1438(13) 0.5432(11) 1.1376(7)
O32A O -1.3374(17) 0.6785(17) 1.2002(8)
O33A O -0.9462(13) 0.7411(12) 1.1141(7)
O34A O -1.4116(16) 0.7869(15) 1.2946(8)
O35A O -1.1055(13) 0.9783(11) 1.3258(7)
O36A O -1.4112(13) 0.8843(13) 1.1360(7)
O37A O -1.1631(12) 0.7703(11) 1.3082(6)
O38A O -1.0857(14) 0.6644(12) 1.2115(7)
O39A O -1.0220(13) 0.8490(11) 1.2212(6)
O40A O -0.5636(17) 0.5939(19) 1.1935(10)
O41A O -0.598(2) 0.580(2) 1.3202(11)
O42A O -0.6773(19) 0.8179(17) 1.3414(9)
O43A O -0.7338(19) 0.0930(18) 1.2599(10)
O44A O -0.3628(14) 0.0693(15) 0.9067(8)
C1A C -0.9964(19) 0.2683(18) 1.3736(10)
H1A H -1.0625 0.2552 1.3592
C2A C -1.0122(19) 0.2996(17) 1.4313(10)
C3A C -0.912(2) 0.312(2) 1.4585(12)
H2A H -0.9180 0.3310 1.4965
C4A C -0.7972(18) 0.2881(16) 1.4158(10)
C5A C -0.7957(19) 0.2653(16) 1.3609(10)
H3A H -0.7217 0.2548 1.3363
C6A C -1.241(2) 0.3968(19) 1.4513(11)
H4A H -1.2521 0.4489 1.4187
C7A C -1.280(2) 0.313(2) 1.5339(12)
H5A H -1.3237 0.2981 1.5690
C8A C -1.152(2) 0.260(2) 1.5176(11)
H6A H -1.0953 0.1993 1.5375
C9A C -0.571(3) 0.223(3) 1.4296(15)
H7A H -0.5463 0.1498 1.4146
C10A C -0.500(4) 0.275(3) 1.452(2)
H8A H -0.4155 0.2387 1.4568
C11A C -0.679(3) 0.402(2) 1.4548(13)
H9A H -0.7446 0.4712 1.4595
C12A C -0.995(2) 0.2489(17) 1.1484(10)
H10A H -1.0663 0.2511 1.1736
C13A C -0.9991(18) 0.2513(16) 1.0890(10)
C14A C -0.892(2) 0.2465(18) 1.0503(11)
H11A H -0.8920 0.2479 1.0104
C15A C -0.786(2) 0.2398(19) 1.0743(11)
C16A C -0.786(2) 0.2396(18) 1.1337(10)
H12A H -0.7133 0.2368 1.1488
C17A C -0.566(2) 0.182(2) 1.0414(13)
H13A H -0.5414 0.1238 1.0704
C18A C -0.683(2) 0.324(2) 0.9903(13)
H14A H -0.7548 0.3772 0.9767
C19A C -0.562(2) 0.308(2) 0.9673(13)
H15A H -0.5350 0.3525 0.9371
C20A C -1.126(2) 0.1890(19) 1.0311(11)
H16A H -1.0600 0.1301 1.0140
C21A C -1.237(2) 0.337(2) 1.0872(12)
H17A H -1.2570 0.3913 1.1151
C22A C -1.313(3) 0.311(2) 1.0548(13)
H18A H -1.3976 0.3526 1.0543
N1A N -0.8933(16) 0.2570(14) 1.3400(8)
N2A N -1.1285(15) 0.3171(14) 1.4652(8)
N3A N -1.3269(16) 0.3863(15) 1.4916(9)
N4A N -0.6864(18) 0.3022(15) 1.4347(10)
N5A N -0.5634(18) 0.3834(16) 1.4662(10)
N6A N -0.8904(15) 0.2434(13) 1.1699(8)
N7A N -0.6779(16) 0.2469(15) 1.0367(8)
N8A N -0.4886(18) 0.2117(17) 0.9975(9)
N9A N -1.1158(19) 0.2592(17) 1.0671(9)
N10A N -1.2486(17) 0.2144(15) 1.0223(9)
Cu1_2 Cu -0.1086(2) -0.2425(2) 0.74498(12)
Cu1A_2 Cu -0.8914(2) 1.2425(2) 1.25502(12)
Cu2_2 Cu 0.3084(2) -0.1305(2) 1.02778(12)
Cu2_3 Cu 0.3084(2) 0.8695(2) 1.02778(12)
Cu2A_2 Cu -1.3084(2) 0.1305(2) 0.97222(12)
Cu2A_3 Cu -1.3084(2) 1.1305(2) 0.97222(12)
Cu3_2 Cu -1.5000 0.5000 1.5000
Cu3_3 Cu -0.5000 0.5000 0.5000
Cu3_4 Cu -0.5000 0.5000 1.5000
Sm1_2 Sm 0.73650(10) 0.26703(9) 0.73989(6)
Sm1A_2 Sm -1.73650(10) 0.73297(9) 1.26011(6)
O3_2 O 0.0123(14) 0.8484(12) 0.7339(7)
O3A_2 O -1.0123(14) 0.1516(12) 1.2661(7)
O8_2 O -0.7055(14) 1.0203(13) 0.9625(7)
O8A_2 O -0.2945(14) -0.0203(13) 1.0375(7)
O11_2 O -0.4066(12) 0.1623(11) 0.7818(7)
O11A_2 O -0.5934(12) 0.8377(11) 1.2182(7)
N3A_2 N 0.6731(16) 0.3863(15) 0.4916(9)
N5_2 N 0.5634(18) 0.6166(16) 0.5338(10)
N5A_2 N 0.4366(18) 0.3834(16) 0.4662(10)
N10_2 N -0.7514(17) 0.7856(15) 0.9777(9)
N10A_2 N -0.2486(17) 0.2144(15) 1.0223(9)
O45 O -0.343(4) 0.436(4) 0.905(2)
O46 O 0.576(3) -0.366(4) 0.840(2)
O47 O -0.573(5) 0.632(4) 0.689(3)
O48 O -0.089(7) -0.009(6) 0.594(3)
O49 O -0.413(4) 0.049(3) 0.551(2)
loop_
_geom_bond_atom_site_label_1
_geom_bond_atom_site_label_2
_geom_bond_site_symmetry_1
_geom_bond_site_symmetry_2
W1 O1 1_555 1_555
W2 O2 1_555 1_555
W3 O3 1_555 1_555
W4 O4 1_555 1_555
W5 O5 1_555 1_555
W6 O6 1_555 1_555
W7 O7 1_555 1_555
W8 O8 1_555 1_555
W9 O9 1_555 1_555
W10 O10 1_555 1_555
W11 O11 1_555 1_555
Cu1 O1 1_555 1_555
Cu2 O44 1_555 1_555
Cu3 N3 1_555 1_555
Sm1 O19 1_555 1_555
Si1 O12 1_555 1_555
O3 Cu1_2 1_555 1_555
O8 Cu2_2 1_555 1_555
O10 Cu2A 1_555 1_555
O11 Sm1_2 1_555 1_555
O12 W8 1_555 1_555
O13 W4 1_555 1_555
O14 W2 1_555 1_555
O15 W2 1_555 1_555
O16 W4 1_555 1_555
O17 W5 1_555 1_555
O18 W1 1_555 1_555
O19 W2 1_555 1_555
O20 W3 1_555 1_555
O21 W3 1_555 1_555
O22 W1 1_555 1_555
O23 W10 1_555 1_555
O24 W3 1_555 1_555
O25 W8 1_555 1_555
O26 W8 1_555 1_555
O27 W7 1_555 1_555
O28 W1 1_555 1_555
O29 W1 1_555 1_555
O30 W9 1_555 1_555
O31 W6 1_555 1_555
O32 W6 1_555 1_555
O33 W7 1_555 1_555
O34 W5 1_555 1_555
O35 W3 1_555 1_555
O36 W8 1_555 1_555
O37 W2 1_555 1_555
O38 W1 1_555 1_555
O39 W3 1_555 1_555
O40 Sm1 1_555 1_555
O41 Sm1 1_555 1_555
O42 Sm1 1_555 1_555
O43 Cu1 1_555 1_555
C1 H1 1_555 1_555
C2 C1 1_555 1_555
C3 C2 1_555 1_555
H2 C3 1_555 1_555
C4 C3 1_555 1_555
C5 C4 1_555 1_555
H3 C5 1_555 1_555
C6 H4 1_555 1_555
C7 H5 1_555 1_555
C8 C7 1_555 1_555
H6 C8 1_555 1_555
C9 H7 1_555 1_555
C10 C9 1_555 1_555
H8 C10 1_555 1_555
C11 H9 1_555 1_555
C12 H10 1_555 1_555
C13 C12 1_555 1_555
C14 C13 1_555 1_555
H11 C14 1_555 1_555
C15 C14 1_555 1_555
C16 C15 1_555 1_555
H12 C16 1_555 1_555
C17 H13 1_555 1_555
C18 H14 1_555 1_555
C19 C18 1_555 1_555
H15 C19 1_555 1_555
C20 H16 1_555 1_555
C21 H17 1_555 1_555
C22 C21 1_555 1_555
H18 C22 1_555 1_555
N1 Cu1 1_555 1_555
N2 C2 1_555 1_555
N3 C6 1_555 1_555
N4 C4 1_555 1_555
N5 C10 1_555 1_555
N6 Cu1 1_555 1_555
N7 C15 1_555 1_555
N8 Cu2 1_555 1_555
N9 C13 1_555 1_555
N10 C20 1_555 1_555
W1A O1A 1_555 1_555
W2A O2A 1_555 1_555
W3A O3A 1_555 1_555
W4A O4A 1_555 1_555
W5A O5A 1_555 1_555
W6A O6A 1_555 1_555
W7A O7A 1_555 1_555
W8A O8A 1_555 1_555
W9A O9A 1_555 1_555
W10A O10A 1_555 1_555
W11A O11A 1_555 1_555
Cu1A O1A 1_555 1_555
Cu2A O44A 1_555 1_555
Sm1A O19A 1_555 1_555
Si1A O12A 1_555 1_555
O3A Cu1A_2 1_555 1_555
O8A Cu2A_3 1_555 1_555
O10A Cu2 1_555 1_555
O11A Sm1A_2 1_555 1_555
O12A W8A 1_555 1_555
O13A W4A 1_555 1_555
O14A W2A 1_555 1_555
O15A W2A 1_555 1_555
O16A W4A 1_555 1_555
O17A W5A 1_555 1_555
O18A W1A 1_555 1_555
O19A W2A 1_555 1_555
O20A W3A 1_555 1_555
O21A W3A 1_555 1_555
O22A W1A 1_555 1_555
O23A W10A 1_555 1_555
O24A W3A 1_555 1_555
O25A W8A 1_555 1_555
O26A W8A 1_555 1_555
O27A W7A 1_555 1_555
O28A W1A 1_555 1_555
O29A W1A 1_555 1_555
O30A W9A 1_555 1_555
O31A W6A 1_555 1_555
O32A W6A 1_555 1_555
O33A W7A 1_555 1_555
O34A W5A 1_555 1_555
O35A W3A 1_555 1_555
O36A W8A 1_555 1_555
O37A W2A 1_555 1_555
O38A W1A 1_555 1_555
O39A W3A 1_555 1_555
O40A Sm1A 1_555 1_555
O41A Sm1A 1_555 1_555
O42A Sm1A 1_555 1_555
O43A Cu1A 1_555 1_555
C1A H1A 1_555 1_555
C2A C1A 1_555 1_555
C3A C2A 1_555 1_555
H2A C3A 1_555 1_555
C4A C3A 1_555 1_555
C5A C4A 1_555 1_555
H3A C5A 1_555 1_555
C6A H4A 1_555 1_555
C7A H5A 1_555 1_555
C8A C7A 1_555 1_555
H6A C8A 1_555 1_555
C9A H7A 1_555 1_555
C10A C9A 1_555 1_555
H8A C10A 1_555 1_555
C11A H9A 1_555 1_555
C12A H10A 1_555 1_555
C13A C12A 1_555 1_555
C14A C13A 1_555 1_555
H11A C14A 1_555 1_555
C15A C14A 1_555 1_555
C16A C15A 1_555 1_555
H12A C16A 1_555 1_555
C17A H13A 1_555 1_555
C18A H14A 1_555 1_555
C19A C18A 1_555 1_555
H15A C19A 1_555 1_555
C20A H16A 1_555 1_555
C21A H17A 1_555 1_555
C22A C21A 1_555 1_555
H18A C22A 1_555 1_555
N1A Cu1A 1_555 1_555
N2A C2A 1_555 1_555
N3A C6A 1_555 1_555
N4A C4A 1_555 1_555
N5A C10A 1_555 1_555
N6A Cu1A 1_555 1_555
N7A C15A 1_555 1_555
N8A Cu2A 1_555 1_555
N9A C13A 1_555 1_555
N10A C20A 1_555 1_555
Cu2_3 N10 1_555 1_555
Cu2A_2 N10A 1_555 1_555
Cu3_2 N3A 1_555 1_555
Cu3_3 N5 1_555 1_555
Cu3_4 N5A 1_555 1_555
O3_2 Cu1 1_555 1_555
O3A_2 Cu1A 1_555 1_555
O8_2 Cu2 1_555 1_555
O8A_2 Cu2A 1_555 1_555
O11_2 Sm1 1_555 1_555
O11A_2 Sm1A 1_555 1_555
N3A_2 Cu3 1_555 1_555
N5_2 Cu3 1_555 1_555
N5A_2 Cu3 1_555 1_555
N10_2 Cu2 1_555 1_555
N10A_2 Cu2A 1_555 1_555
W2 O18 1_555 1_555
W4 O14 1_555 1_555
W4 O35 1_555 1_555
W4 O37 1_555 1_555
W5 O13 1_555 1_555
W5 O15 1_555 1_555
W5 O37 1_555 1_555
W6 O17 1_555 1_555
W6 O29 1_555 1_555
W6 O38 1_555 1_555
W7 O28 1_555 1_555
W7 O31 1_555 1_555
W7 O38 1_555 1_555
W8 O27 1_555 1_555
W9 O12 1_555 1_555
W9 O16 1_555 1_555
W9 O20 1_555 1_555
W9 O26 1_555 1_555
W10 O24 1_555 1_555
W10 O25 1_555 1_555
W10 O33 1_555 1_555
W10 O39 1_555 1_555
W11 O12 1_555 1_555
W11 O30 1_555 1_555
W11 O32 1_555 1_555
W11 O34 1_555 1_555
W11 O36 1_555 1_555
Cu1 O29 1_555 1_555
Sm1 O21 1_555 1_555
Sm1 O22 1_555 1_555
Sm1 O23 1_555 1_555
Si1 O37 1_555 1_555
Si1 O38 1_555 1_555
Si1 O39 1_555 1_555
C1 N1 1_555 1_555
C5 N1 1_555 1_555
C6 N2 1_555 1_555
C7 N3 1_555 1_555
C8 N2 1_555 1_555
C9 N4 1_555 1_555
C11 N4 1_555 1_555
C11 N5 1_555 1_555
C12 N6 1_555 1_555
C16 N6 1_555 1_555
C17 N7 1_555 1_555
C17 N8 1_555 1_555
C18 N7 1_555 1_555
C19 N8 1_555 1_555
C20 N9 1_555 1_555
C21 N9 1_555 1_555
C22 N10 1_555 1_555
W2A O18A 1_555 1_555
W4A O14A 1_555 1_555
W4A O35A 1_555 1_555
W4A O37A 1_555 1_555
W5A O13A 1_555 1_555
W5A O15A 1_555 1_555
W5A O37A 1_555 1_555
W6A O17A 1_555 1_555
W6A O29A 1_555 1_555
W6A O38A 1_555 1_555
W7A O28A 1_555 1_555
W7A O31A 1_555 1_555
W7A O38A 1_555 1_555
W8A O27A 1_555 1_555
W9A O12A 1_555 1_555
W9A O16A 1_555 1_555
W9A O20A 1_555 1_555
W9A O26A 1_555 1_555
W10A O24A 1_555 1_555
W10A O25A 1_555 1_555
W10A O33A 1_555 1_555
W10A O39A 1_555 1_555
W11A O12A 1_555 1_555
W11A O30A 1_555 1_555
W11A O32A 1_555 1_555
W11A O34A 1_555 1_555
W11A O36A 1_555 1_555
Cu1A O29A 1_555 1_555
Sm1A O21A 1_555 1_555
Sm1A O22A 1_555 1_555
Sm1A O23A 1_555 1_555
Si1A O37A 1_555 1_555
Si1A O38A 1_555 1_555
Si1A O39A 1_555 1_555
C1A N1A 1_555 1_555
C5A N1A 1_555 1_555
C6A N2A 1_555 1_555
C7A N3A 1_555 1_555
C8A N2A 1_555 1_555
C9A N4A 1_555 1_555
C11A N4A 1_555 1_555
C11A N5A 1_555 1_555
C12A N6A 1_555 1_555
C16A N6A 1_555 1_555
C17A N7A 1_555 1_555
C17A N8A 1_555 1_555
C18A N7A 1_555 1_555
C19A N8A 1_555 1_555
C20A N9A 1_555 1_555
C21A N9A 1_555 1_555
C22A N10A 1_555 1_555

#END
