
#######################################################################
#
#                 Cambridge Crystallographic Data Centre
#                                CCDC 
#
#######################################################################
#
# If this CIF has been generated from an entry in the Cambridge 
# Structural Database, then it will include bibliographic, chemical, 
# crystal, experimental, refinement or atomic coordinate data resulting 
# from the CCDC's data processing and validation procedures.
#
#######################################################################

data_EBOCIK
_chemical_formula_moiety         '(C16 H12 N2 O4 Zn1)n'
_symmetry_cell_setting           monoclinic
_symmetry_space_group_name_H-M   'C 2/c'
_symmetry_Int_Tables_number      15
_space_group_name_Hall           '-C 2yc'
loop_
_symmetry_equiv_pos_site_id
_symmetry_equiv_pos_as_xyz
1 x,y,z
2 -x,y,1/2-z
3 1/2+x,1/2+y,z
4 1/2-x,1/2+y,1/2-z
5 -x,-y,-z
6 x,-y,1/2+z
7 1/2-x,1/2-y,-z
8 1/2+x,1/2-y,1/2+z
_cell_length_a                   8.8583(2)
_cell_length_b                   21.4370(5)
_cell_length_c                   13.5925(3)
_cell_angle_alpha                90
_cell_angle_beta                 95.7932(12)
_cell_angle_gamma                90
_cell_volume                     2567.97
loop_
_atom_site_label
_atom_site_type_symbol
_atom_site_fract_x
_atom_site_fract_y
_atom_site_fract_z
_atom_site_U_iso_or_equiv
_atom_site_thermal_displace_type
C1 C 0.6907(2) 0.67976(10) 0.91481(15) 0.0485 Uani
C2 C 0.7610(2) 0.72004(10) 0.99578(15) 0.0527 Uani
H1 H 0.8261 0.7010 1.0447 0.0630 Uiso
C3 C 0.4007(3) 0.54496(11) 0.86730(17) 0.0604 Uani
H2 H 0.4998 0.5314 0.8637 0.0720 Uiso
C4 C 0.3085(3) 0.51002(12) 0.9204(2) 0.0686 Uani
H3 H 0.3448 0.4735 0.9512 0.0820 Uiso
C5 C 0.1625(3) 0.52892(12) 0.92794(19) 0.0685 Uani
C6 C 0.1145(3) 0.58294(14) 0.8783(2) 0.0845 Uani
H4 H 0.0160 0.5973 0.8810 0.1010 Uiso
C7 C 0.2128(3) 0.61511(13) 0.8251(2) 0.0732 Uani
H5 H 0.1778 0.6507 0.7909 0.0880 Uiso
C8 C 0.0672(3) 0.49182(14) 0.9898(2) 0.0822 Uani
H6 H 0.1063 0.4543 1.0157 0.0990 Uiso
N1 N 0.35581(18) 0.59758(8) 0.82035(12) 0.0492 Uani
O1 O 0.7128(2) 0.62343(8) 0.91808(13) 0.0752 Uani
O2 O 0.60820(17) 0.70693(6) 0.84530(10) 0.0556 Uani
Zn1 Zn 0.5000 0.65141(2) 0.7500 0.0387 Uani
C1F C 0.8093(2) 0.82024(10) 1.08519(15) 0.0485 Uani
C2F C 0.7390(2) 0.77996(10) 1.00422(15) 0.0527 Uani
H1F H 0.6739 0.7990 0.9553 0.0630 Uiso
O1F O 0.7872(2) 0.87657(8) 1.08192(13) 0.0752 Uani
O2F O 0.89180(17) 0.79307(6) 1.15470(10) 0.0556 Uani
C3D C -0.4007(3) 0.45504(11) 1.13270(17) 0.0604 Uani
H2D H -0.4998 0.4686 1.1363 0.0720 Uiso
C4D C -0.3085(3) 0.48998(12) 1.0796(2) 0.0686 Uani
H3D H -0.3448 0.5265 1.0488 0.0820 Uiso
C5D C -0.1625(3) 0.47108(12) 1.07206(19) 0.0685 Uani
C6D C -0.1145(3) 0.41706(14) 1.1217(2) 0.0845 Uani
H4D H -0.0160 0.4027 1.1190 0.1010 Uiso
C7D C -0.2128(3) 0.38489(13) 1.1749(2) 0.0732 Uani
H5D H -0.1778 0.3493 1.2091 0.0880 Uiso
C8D C -0.0672(3) 0.50818(14) 1.0102(2) 0.0822 Uani
H6D H -0.1063 0.5457 0.9843 0.0990 Uiso
N1D N -0.35581(18) 0.40242(8) 1.17965(12) 0.0492 Uani
N1A N 0.64419(18) 0.59758(8) 0.67965(12) 0.0492 Uani
O2A O 0.39180(17) 0.70693(6) 0.65470(10) 0.0556 Uani
Zn1D Zn -0.5000 0.34859(2) 1.2500 0.0387 Uani
Zn1F Zn 1.0000 0.84859(2) 1.2500 0.0387 Uani
loop_
_atom_site_aniso_label
_atom_site_aniso_U_11
_atom_site_aniso_U_22
_atom_site_aniso_U_33
_atom_site_aniso_U_23
_atom_site_aniso_U_13
_atom_site_aniso_U_12
C1 0.0504(12) 0.0493(12) 0.0439(11) -0.0032(9) -0.0042(9) 0.0060(10)
C2 0.0554(12) 0.0563(12) 0.0422(10) 0.0001(9) -0.0158(9) 0.0078(10)
C3 0.0531(13) 0.0615(14) 0.0684(15) 0.0184(12) 0.0148(11) 0.0060(11)
C4 0.0597(14) 0.0673(15) 0.0808(17) 0.0310(13) 0.0163(12) 0.0077(12)
C5 0.0615(14) 0.0724(16) 0.0733(16) 0.0286(13) 0.0151(12) 0.0008(12)
C6 0.0448(13) 0.105(2) 0.107(2) 0.0437(18) 0.0236(14) 0.0164(14)
C7 0.0489(13) 0.0873(19) 0.0857(18) 0.0415(15) 0.0176(12) 0.0152(13)
C8 0.0619(15) 0.0830(19) 0.104(2) 0.0397(16) 0.0199(15) 0.0120(14)
N1 0.0452(9) 0.0557(10) 0.0474(9) 0.0106(8) 0.0077(7) 0.0040(8)
O1 0.0970(13) 0.0469(10) 0.0746(11) -0.0089(8) -0.0265(10) 0.0148(9)
O2 0.0686(10) 0.0495(8) 0.0445(8) -0.0032(6) -0.0156(7) 0.0031(7)
Zn1 0.03949(19) 0.0433(2) 0.03301(17) 0.000 0.00256(12) 0.000
C1F 0.0504 0.0493 0.0439 -0.0032 -0.0042 0.006
C2F 0.0554 0.0563 0.0422 0.0001 -0.0158 0.0078
O1F 0.097 0.0469 0.0746 -0.0089 -0.0265 0.0148
O2F 0.0686 0.0495 0.0445 -0.0032 -0.0156 0.0031
C3D 0.0531 0.0615 0.0684 0.0184 0.0148 0.006
C4D 0.0597 0.0673 0.0808 0.031 0.0163 0.0077
C5D 0.0615 0.0724 0.0733 0.0286 0.0151 0.0008
C6D 0.0448 0.105 0.107 0.0437 0.0236 0.0164
C7D 0.0489 0.0873 0.0857 0.0415 0.0176 0.0152
C8D 0.0619 0.083 0.104 0.0397 0.0199 0.012
N1D 0.0452 0.0557 0.0474 0.0106 0.0077 0.004
N1A 0.0452 0.0557 0.0474 -0.0106 0.0077 -0.004
O2A 0.0686 0.0495 0.0445 0.0032 -0.0156 -0.0031
Zn1D 0.03949 0.0433 0.03301 0 0.00256 0
Zn1F 0.03949 0.0433 0.03301 0 0.00256 0
loop_
_geom_bond_atom_site_label_1
_geom_bond_atom_site_label_2
_geom_bond_site_symmetry_1
_geom_bond_site_symmetry_2
C1 C2 1_555 1_555
C2 H1 1_555 1_555
C3 H2 1_555 1_555
C4 C3 1_555 1_555
H3 C4 1_555 1_555
C5 C4 1_555 1_555
C6 C5 1_555 1_555
H4 C6 1_555 1_555
C7 C6 1_555 1_555
H5 C7 1_555 1_555
C8 C5 1_555 1_555
H6 C8 1_555 1_555
N1 C3 1_555 1_555
O1 C1 1_555 1_555
O2 C1 1_555 1_555
Zn1 N1 1_555 1_555
C1F C2F 1_555 1_555
C2F C2 1_555 1_555
H1F C2F 1_555 1_555
O1F C1F 1_555 1_555
O2F C1F 1_555 1_555
C3D H2D 1_555 1_555
C4D C3D 1_555 1_555
H3D C4D 1_555 1_555
C5D C4D 1_555 1_555
C6D C5D 1_555 1_555
H4D C6D 1_555 1_555
C7D C6D 1_555 1_555
H5D C7D 1_555 1_555
C8D C8 1_555 1_555
H6D C8D 1_555 1_555
N1D C3D 1_555 1_555
N1A Zn1 1_555 1_555
O2A Zn1 1_555 1_555
Zn1D N1D 1_555 1_555
Zn1F O2F 1_555 1_555
C7 N1 1_555 1_555
O2 Zn1 1_555 1_555
C5D C8D 1_555 1_555
C7D N1D 1_555 1_555

#END
