
#######################################################################
#
#                 Cambridge Crystallographic Data Centre
#                                CCDC 
#
#######################################################################
#
# If this CIF has been generated from an entry in the Cambridge 
# Structural Database, then it will include bibliographic, chemical, 
# crystal, experimental, refinement or atomic coordinate data resulting 
# from the CCDC's data processing and validation procedures.
#
#######################################################################

data_COYCEZ
_chemical_formula_moiety         '(C70 H61 Cu6 Mo2 N15 O2 S8)n'
_symmetry_cell_setting           monoclinic
_symmetry_space_group_name_H-M   'P 21/c'
_symmetry_Int_Tables_number      14
_space_group_name_Hall           '-P 2ybc'
loop_
_symmetry_equiv_pos_site_id
_symmetry_equiv_pos_as_xyz
1 x,y,z
2 -x,1/2+y,1/2-z
3 -x,-y,-z
4 x,1/2-y,1/2+z
_cell_length_a                   9.9998(17)
_cell_length_b                   27.294(3)
_cell_length_c                   17.664(3)
_cell_angle_alpha                90
_cell_angle_beta                 100.510(9)
_cell_angle_gamma                90
_cell_volume                     4740.23
loop_
_atom_site_label
_atom_site_type_symbol
_atom_site_fract_x
_atom_site_fract_y
_atom_site_fract_z
Mo1 Mo 0.01573(6) 0.36444(2) 0.85121(3)
Cu1 Cu 0.24595(9) 0.40784(3) 0.82374(5)
Cu2 Cu -0.11531(9) 0.45045(3) 0.81947(5)
Cu3 Cu -0.05419(9) 0.34212(3) 0.70163(5)
S1 S 0.15600(18) 0.33358(7) 0.77583(10)
S2 S -0.19222(17) 0.37502(7) 0.77712(10)
S3 S 0.09444(18) 0.43950(6) 0.89394(10)
S4 S 0.4187(3) 0.52101(13) 0.6617(2)
O1 O 0.0071(6) 0.3267(2) 0.9278(3)
N1 N -0.2474(6) 0.4759(2) 0.8868(3)
N2 N 0.8440(6) 0.2185(2) 1.1495(3)
N3 N 0.4124(6) 0.3832(2) 0.9085(3)
N4 N -0.1001(6) 0.4951(2) 0.7289(4)
N5 N 0.0321(6) 0.6189(2) 0.3962(3)
N6 N 0.3245(7) 0.4514(3) 0.7558(4)
C1 C 0.3631(8) 0.4797(4) 0.7168(5)
C2 C -0.2309(8) 0.4625(4) 0.9602(5)
H1 H -0.1491 0.4461 0.9821
C3 C -0.3271(8) 0.4711(3) 1.0072(4)
H2 H -0.3107 0.4607 1.0594
C4 C -0.4469(7) 0.4952(3) 0.9762(4)
C5 C -0.4617(9) 0.5094(4) 0.9005(5)
H3 H -0.5417 0.5261 0.8767
C6 C -0.3605(9) 0.4994(4) 0.8587(5)
H4 H -0.3734 0.5101 0.8067
C7 C 0.7119(9) 0.2250(4) 1.1529(5)
H5 H 0.6722 0.2051 1.1871
C8 C 0.6320(8) 0.2593(3) 1.1089(6)
H6 H 0.5389 0.2625 1.1130
C9 C 0.6857(7) 0.2891(3) 1.0591(5)
C10 C 0.8239(8) 0.2836(3) 1.0568(5)
H7 H 0.8664 0.3037 1.0241
C11 C 0.8969(8) 0.2486(3) 1.1029(5)
H8 H 0.9911 0.2455 1.1015
C12 C 0.5971(7) 0.3240(3) 1.0076(4)
C13 C 0.6176(8) 0.3355(3) 0.9347(5)
H9 H 0.6956 0.3235 0.9172
C14 C 0.5245(8) 0.3647(3) 0.8868(5)
H10 H 0.5406 0.3720 0.8366
C15 C 0.3980(7) 0.3743(3) 0.9802(4)
H11 H 0.3223 0.3886 0.9975
C16 C 0.4852(8) 0.3458(3) 1.0313(4)
H12 H 0.4696 0.3411 1.0823
C17 C -0.1965(8) 0.4987(4) 0.6660(5)
H13 H -0.2815 0.4833 0.6663
C18 C -0.1787(9) 0.5242(4) 0.5996(5)
H14 H -0.2514 0.5268 0.5569
C19 C -0.0534(7) 0.5458(3) 0.5968(4)
C20 C 0.0451(8) 0.5424(3) 0.6635(4)
H15 H 0.1312 0.5575 0.6654
C21 C 0.0183(8) 0.5173(3) 0.7266(5)
H16 H 0.0878 0.5157 0.7711
C22 C -0.0253(7) 0.5710(3) 0.5276(4)
C23 C -0.0985(8) 0.5613(3) 0.4554(5)
H17 H -0.1705 0.5381 0.4489
C24 C -0.0662(8) 0.5858(3) 0.3920(4)
H18 H -0.1176 0.5783 0.3427
C25 C 0.1024(10) 0.6288(4) 0.4677(5)
H19 H 0.1706 0.6534 0.4732
C26 C 0.0800(11) 0.6050(4) 0.5325(5)
H20 H 0.1363 0.6116 0.5808
Mo1C Mo -0.98427(6) 0.13556(2) 0.35121(3)
Mo1B Mo -1.01573(6) 0.63556(2) 1.14879(3)
Cu1C Cu -0.75405(9) 0.09216(3) 0.32374(5)
Cu2B Cu -0.88469(9) 0.54955(3) 1.18053(5)
Cu2B_2 Cu 0.11531(9) 0.54955(3) 0.18053(5)
Cu2C Cu -1.11531(9) 0.04955(3) 0.31947(5)
Cu3C Cu 0.94581(9) 0.15788(3) 1.20163(5)
Cu3B Cu 0.05419(9) 0.65788(3) 0.29837(5)
Cu3C_2 Cu -1.05419(9) 0.15788(3) 0.20163(5)
Cu3B_2 Cu -0.94581(9) 0.65788(3) 1.29837(5)
S1C S -0.84400(18) 0.16642(7) 0.27583(10)
S1C_2 S 1.15600(18) 0.16642(7) 1.27583(10)
S2B S -0.80778(17) 0.62498(7) 1.22288(10)
S2C S 0.80778(17) 0.12498(7) 1.27712(10)
S2C_2 S -1.19222(17) 0.12498(7) 0.27712(10)
S3C S -0.90556(18) 0.06050(6) 0.39394(10)
S3B S -1.09444(18) 0.56050(6) 1.10606(10)
S4C S -0.5813(3) -0.02101(13) 0.1617(2)
O1C O -0.9929(6) 0.1733(2) 0.4278(3)
N1B N -0.7526(6) 0.5241(2) 1.1132(3)
N2C N -0.1560(6) 0.2815(2) 0.6495(3)
N3C N -0.5876(6) 0.1168(2) 0.4085(3)
N4B N 0.1001(6) 0.5049(2) 0.2711(4)
N4B_2 N -0.8999(6) 0.5049(2) 1.2711(4)
N5B N -0.0321(6) 0.3811(2) 0.6038(3)
N5A N 0.9679(6) 0.1189(2) 1.1038(3)
N6C N -0.6755(7) 0.0486(3) 0.2558(4)
C1C C -0.6369(8) 0.0203(4) 0.2168(5)
C2B C -0.7691(8) 0.5375(4) 1.0398(5)
H1B H -0.8509 0.5539 1.0179
C3B C -0.6729(8) 0.5289(3) 0.9928(4)
H2B H -0.6893 0.5393 0.9406
C4B C -0.5531(7) 0.5048(3) 1.0238(4)
C5B C -0.5383(9) 0.4906(4) 1.0995(5)
H3B H -0.4583 0.4739 1.1233
C6B C -0.6395(9) 0.5006(4) 1.1413(5)
H4B H -0.6266 0.4899 1.1933
C7C C -0.2881(9) 0.2750(4) 0.6529(5)
H5C H -0.3278 0.2949 0.6871
C8C C -0.3680(8) 0.2407(3) 0.6089(6)
H6C H -0.4611 0.2375 0.6130
C9C C -0.3143(7) 0.2109(3) 0.5591(5)
C10C C -0.1761(8) 0.2164(3) 0.5568(5)
H7C H -0.1336 0.1963 0.5241
C11C C -0.1031(8) 0.2514(3) 0.6029(5)
H8C H -0.0089 0.2545 0.6015
C12C C -0.4029(7) 0.1760(3) 0.5076(4)
C13C C -0.3824(8) 0.1645(3) 0.4347(5)
H9C H -0.3044 0.1765 0.4172
C14C C -0.4755(8) 0.1353(3) 0.3868(5)
H10C H -0.4594 0.1280 0.3366
C15C C -0.6020(7) 0.1257(3) 0.4802(4)
H11C H -0.6777 0.1114 0.4975
C16C C -0.5148(8) 0.1542(3) 0.5313(4)
H12C H -0.5304 0.1589 0.5823
C17B C 0.1965(8) 0.5013(4) 0.3340(5)
H13B H 0.2815 0.5167 0.3337
C18B C 0.1787(9) 0.4758(4) 0.4004(5)
H14B H 0.2514 0.4732 0.4431
C19B C 0.0534(7) 0.4542(3) 0.4032(4)
C20B C -0.0451(8) 0.4576(3) 0.3365(4)
H15B H -0.1312 0.4425 0.3346
C21B C -0.0183(8) 0.4827(3) 0.2734(5)
H16B H -0.0878 0.4843 0.2289
C22B C 0.0253(7) 0.4290(3) 0.4724(4)
C23B C 0.0985(8) 0.4387(3) 0.5446(5)
H17B H 0.1705 0.4619 0.5511
C24B C 0.0662(8) 0.4142(3) 0.6080(4)
H18B H 0.1176 0.4217 0.6573
C25B C -0.1024(10) 0.3712(4) 0.5323(5)
H19B H -0.1706 0.3466 0.5268
C26B C -0.0800(11) 0.3950(4) 0.4675(5)
H20B H -0.1363 0.3884 0.4192
N7 N -0.0562(14) 0.7805(5) 0.1486(8)
H21 H -0.1272 0.7932 0.1644
H22 H -0.0677 0.7576 0.1129
C27 C 0.0691(18) 0.7961(6) 0.1787(10)
C28 C 0.0884(17) 0.8307(6) 0.2326(10)
H23 H 0.0150 0.8406 0.2565
C29 C 0.2187(17) 0.8530(6) 0.2547(10)
H24 H 0.2363 0.8768 0.2946
C30 C 0.3198(18) 0.8374(6) 0.2138(10)
H25 H 0.4075 0.8521 0.2242
C31 C 0.2934(17) 0.8024(6) 0.1605(10)
H26 H 0.3647 0.7923 0.1352
C32 C 0.1720(17) 0.7808(6) 0.1408(10)
H27 H 0.1568 0.7559 0.1025
N8 N 0.0854(13) 0.3997(6) 0.0885(8)
H28 H 0.0623 0.4289 0.1025
H29 H 0.0534 0.3889 0.0417
C33 C 0.1654(17) 0.3728(8) 0.1359(10)
C34 C 0.2184(16) 0.3886(8) 0.2106(9)
H30 H 0.1997 0.4207 0.2268
C35 C 0.2944(17) 0.3586(7) 0.2581(10)
H31 H 0.3353 0.3705 0.3074
C36 C 0.3171(17) 0.3121(7) 0.2408(10)
H32 H 0.3693 0.2913 0.2780
C37 C 0.2668(16) 0.2954(8) 0.1719(10)
H33 H 0.2842 0.2623 0.1603
C38 C 0.1887(17) 0.3240(7) 0.1146(10)
H34 H 0.1536 0.3115 0.0648
N9 N 0.2152(19) 0.1883(7) 0.0350(11)
H35 H 0.1710 0.1891 0.0738
H36 H 0.1829 0.2041 -0.0078
C39 C 0.335(3) 0.1622(10) 0.0414(15)
C40 C 0.392(2) 0.1373(9) 0.1028(15)
H37 H 0.3507 0.1402 0.1469
C41 C 0.497(3) 0.1098(9) 0.1096(15)
H38 H 0.5371 0.0965 0.1580
C42 C 0.548(2) 0.1002(10) 0.0451(14)
H39 H 0.6135 0.0752 0.0443
C43 C 0.500(2) 0.1281(10) -0.0187(15)
H40 H 0.5461 0.1253 -0.0611
C44 C 0.397(2) 0.1584(10) -0.0257(14)
H41 H 0.3648 0.1763 -0.0715
loop_
_geom_bond_atom_site_label_1
_geom_bond_atom_site_label_2
_geom_bond_site_symmetry_1
_geom_bond_site_symmetry_2
Mo1 S1 1_555 1_555
Cu1 S1 1_555 1_555
Cu2 S2 1_555 1_555
Cu3 S1 1_555 1_555
S2 Mo1 1_555 1_555
S3 Mo1 1_555 1_555
S4 C1 1_555 1_555
O1 Mo1 1_555 1_555
N1 Cu2 1_555 1_555
N2 C7 1_555 1_555
N3 Cu1 1_555 1_555
N4 Cu2 1_555 1_555
N5 C24 1_555 1_555
N6 Cu1 1_555 1_555
C1 N6 1_555 1_555
C2 N1 1_555 1_555
H1 C2 1_555 1_555
C3 C2 1_555 1_555
H2 C3 1_555 1_555
C4 C3 1_555 1_555
C5 C4 1_555 1_555
H3 C5 1_555 1_555
C6 N1 1_555 1_555
H4 C6 1_555 1_555
C7 H5 1_555 1_555
C8 C7 1_555 1_555
H6 C8 1_555 1_555
C9 C8 1_555 1_555
C10 C9 1_555 1_555
H7 C10 1_555 1_555
C11 N2 1_555 1_555
H8 C11 1_555 1_555
C12 C9 1_555 1_555
C13 C12 1_555 1_555
H9 C13 1_555 1_555
C14 N3 1_555 1_555
H10 C14 1_555 1_555
C15 N3 1_555 1_555
H11 C15 1_555 1_555
C16 C12 1_555 1_555
H12 C16 1_555 1_555
C17 N4 1_555 1_555
H13 C17 1_555 1_555
C18 C17 1_555 1_555
H14 C18 1_555 1_555
C19 C18 1_555 1_555
C20 C19 1_555 1_555
H15 C20 1_555 1_555
C21 N4 1_555 1_555
H16 C21 1_555 1_555
C22 C19 1_555 1_555
C23 C22 1_555 1_555
H17 C23 1_555 1_555
C24 C23 1_555 1_555
H18 C24 1_555 1_555
C25 N5 1_555 1_555
H19 C25 1_555 1_555
C26 C22 1_555 1_555
H20 C26 1_555 1_555
N7 H21 1_555 1_555
H22 N7 1_555 1_555
C27 N7 1_555 1_555
C28 C27 1_555 1_555
H23 C28 1_555 1_555
C29 C28 1_555 1_555
H24 C29 1_555 1_555
C30 C29 1_555 1_555
H25 C30 1_555 1_555
C31 C30 1_555 1_555
H26 C31 1_555 1_555
C32 C27 1_555 1_555
H27 C32 1_555 1_555
N8 H28 1_555 1_555
H29 N8 1_555 1_555
C33 N8 1_555 1_555
C34 C33 1_555 1_555
H30 C34 1_555 1_555
C35 C34 1_555 1_555
H31 C35 1_555 1_555
C36 C35 1_555 1_555
H32 C36 1_555 1_555
C37 C36 1_555 1_555
H33 C37 1_555 1_555
C38 C33 1_555 1_555
H34 C38 1_555 1_555
N9 H35 1_555 1_555
H36 N9 1_555 1_555
C39 N9 1_555 1_555
C40 C39 1_555 1_555
H37 C40 1_555 1_555
C41 C40 1_555 1_555
H38 C41 1_555 1_555
C42 C41 1_555 1_555
H39 C42 1_555 1_555
C43 C42 1_555 1_555
H40 C43 1_555 1_555
C44 C39 1_555 1_555
H41 C44 1_555 1_555
Mo1C S1C 1_555 1_555
Mo1B S2B 1_555 1_555
Cu1C S1C 1_555 1_555
Cu2B S2B 1_555 1_555
Cu2B_2 N4B 1_555 1_555
Cu2C S2C_2 1_555 1_555
Cu3C N2 1_555 1_555
Cu3B N5 1_555 1_555
Cu3C_2 S1C 1_555 1_555
Cu3B_2 S2B 1_555 1_555
S1C_2 Cu3C 1_555 1_555
S2C Cu3C 1_555 1_555
S2C_2 Mo1C 1_555 1_555
S3C Mo1C 1_555 1_555
S3B Mo1B 1_555 1_555
S4C C1C 1_555 1_555
O1C Mo1C 1_555 1_555
N1B Cu2B 1_555 1_555
N2C Cu3 1_555 1_555
N3C Cu1C 1_555 1_555
N4B C17B 1_555 1_555
N4B_2 Cu2B 1_555 1_555
N5B Cu3 1_555 1_555
N5A Cu3C 1_555 1_555
N6C Cu1C 1_555 1_555
C1C N6C 1_555 1_555
C2B N1B 1_555 1_555
H1B C2B 1_555 1_555
C3B C2B 1_555 1_555
H2B C3B 1_555 1_555
C4B C4 1_555 1_555
C5B C4B 1_555 1_555
H3B C5B 1_555 1_555
C6B N1B 1_555 1_555
H4B C6B 1_555 1_555
C7C N2C 1_555 1_555
H5C C7C 1_555 1_555
C8C C7C 1_555 1_555
H6C C8C 1_555 1_555
C9C C8C 1_555 1_555
C10C C9C 1_555 1_555
H7C C10C 1_555 1_555
C11C N2C 1_555 1_555
H8C C11C 1_555 1_555
C12C C9C 1_555 1_555
C13C C12C 1_555 1_555
H9C C13C 1_555 1_555
C14C N3C 1_555 1_555
H10C C14C 1_555 1_555
C15C N3C 1_555 1_555
H11C C15C 1_555 1_555
C16C C12C 1_555 1_555
H12C C16C 1_555 1_555
C17B H13B 1_555 1_555
C18B C17B 1_555 1_555
H14B C18B 1_555 1_555
C19B C18B 1_555 1_555
C20B C19B 1_555 1_555
H15B C20B 1_555 1_555
C21B N4B 1_555 1_555
H16B C21B 1_555 1_555
C22B C19B 1_555 1_555
C23B C22B 1_555 1_555
H17B C23B 1_555 1_555
C24B N5B 1_555 1_555
H18B C24B 1_555 1_555
C25B N5B 1_555 1_555
H19B C25B 1_555 1_555
C26B C22B 1_555 1_555
H20B C26B 1_555 1_555
Cu1 S3 1_555 1_555
Cu2 S3 1_555 1_555
Cu3 S2 1_555 1_555
C5 C6 1_555 1_555
C10 C11 1_555 1_555
C13 C14 1_555 1_555
C15 C16 1_555 1_555
C20 C21 1_555 1_555
C25 C26 1_555 1_555
C31 C32 1_555 1_555
C37 C38 1_555 1_555
C43 C44 1_555 1_555
Cu1C S3C 1_555 1_555
Cu2B S3B 1_555 1_555
Cu2C S3C 1_555 1_555
Cu3C_2 S2C_2 1_555 1_555
C3B C4B 1_555 1_555
C5B C6B 1_555 1_555
C10C C11C 1_555 1_555
C13C C14C 1_555 1_555
C15C C16C 1_555 1_555
C20B C21B 1_555 1_555
C23B C24B 1_555 1_555
C25B C26B 1_555 1_555

#END
