
#######################################################################
#
#                 Cambridge Crystallographic Data Centre
#                                CCDC 
#
#######################################################################
#
# If this CIF has been generated from an entry in the Cambridge 
# Structural Database, then it will include bibliographic, chemical, 
# crystal, experimental, refinement or atomic coordinate data resulting 
# from the CCDC's data processing and validation procedures.
#
#######################################################################

data_IRAHUF
_chemical_formula_moiety         '(C8 H26 F4 Ga6 N4 O24 P6)n'
_symmetry_cell_setting           orthorhombic
_symmetry_space_group_name_H-M   'P b c a'
_symmetry_Int_Tables_number      61
_space_group_name_Hall           '-P 2ac 2ab'
loop_
_symmetry_equiv_pos_site_id
_symmetry_equiv_pos_as_xyz
1 x,y,z
2 1/2-x,-y,1/2+z
3 1/2+x,1/2-y,-z
4 -x,1/2+y,1/2-z
5 -x,-y,-z
6 1/2+x,y,1/2-z
7 1/2-x,1/2+y,z
8 x,1/2-y,1/2+z
_cell_length_a                   15.850(3)
_cell_length_b                   10.1357(17)
_cell_length_c                   18.506(3)
_cell_angle_alpha                90
_cell_angle_beta                 90
_cell_angle_gamma                90
_cell_volume                     2973
loop_
_atom_site_label
_atom_site_type_symbol
_atom_site_fract_x
_atom_site_fract_y
_atom_site_fract_z
Ga1 Ga 0.14981(3) 0.83435(4) 0.17455(2)
Ga2 Ga -0.04125(3) 0.68495(4) 0.21800(2)
Ga3 Ga -0.00855(3) 0.65319(4) 0.40553(2)
P1 P 0.31448(7) 0.64991(10) 0.16751(6)
P2 P -0.01529(7) 0.86339(10) 0.07801(6)
P3 P 0.06267(7) 0.87875(10) 0.31458(6)
O1 O 0.23515(19) 0.7267(3) 0.14587(16)
O2 O 0.07725(19) 0.8774(3) 0.09998(16)
O3 O 0.14594(19) 0.8465(3) 0.27537(16)
O4 O 0.2926(2) 0.5025(3) 0.16684(17)
F1 F 0.07636(16) 0.6730(2) 0.18639(14)
F2 F -0.00294(17) 0.5918(3) 0.30334(13)
O5 O -0.0127(2) 0.8482(3) 0.26666(16)
O6 O 0.06350(19) 1.0247(3) 0.33631(16)
O7 O 0.3450(2) 0.6932(3) 0.24227(16)
O8 O -0.06959(19) 0.7865(3) 0.13213(15)
O9 O 0.37845(19) 0.6839(3) 0.10770(16)
O10 O -0.05238(19) 1.0033(3) 0.07110(16)
O11 O 0.06088(19) 0.7973(3) 0.38532(15)
O12 O -0.0212(2) 0.7936(3) 0.00518(15)
Ga1F Ga 0.35019(3) 1.33435(4) 0.17455(2)
Ga1F_2 Ga 0.35019(3) 0.33435(4) 0.17455(2)
Ga1C Ga -0.14981(3) 0.33435(4) 0.32545(2)
Ga1G Ga 0.14981(3) 0.66565(4) 0.67455(2)
Ga2C Ga 0.04125(3) 1.18495(4) 0.28200(2)
Ga2E Ga 0.45875(3) 0.68495(4) 0.28200(2)
Ga2C_2 Ga 0.04125(3) 0.18495(4) 0.28200(2)
Ga2G Ga -0.04125(3) 0.81505(4) 0.71800(2)
Ga2F Ga 0.54125(3) 1.18495(4) 0.21800(2)
Ga3E Ga 0.49145(3) 0.65319(4) 0.09447(2)
Ga3C Ga 0.00855(3) 1.15319(4) 0.09447(2)
Ga3G Ga -0.00855(3) 0.84681(4) -0.09447(2)
Ga3C_2 Ga 0.00855(3) 0.15319(4) 0.09447(2)
Ga3D Ga 0.00855(3) 0.34681(4) 0.59447(2)
P1F P 0.18552(7) 1.14991(10) 0.16751(6)
P2G P -0.01529(7) 0.63661(10) 0.57801(6)
P3C P -0.06267(7) 0.37875(10) 0.18542(6)
O1F O 0.26485(19) 1.2267(3) 0.14587(16)
O2G O 0.07725(19) 0.6226(3) 0.59998(16)
O2F O 0.42275(19) 1.3774(3) 0.09998(16)
O3C O -0.14594(19) 0.3465(3) 0.22463(16)
O3F O 0.35406(19) 1.3465(3) 0.27537(16)
O4F O 0.2074(2) 1.0025(3) 0.16684(17)
O4_2 O 0.2926(2) 1.5025(3) 0.16684(17)
F1F F 0.42364(16) 1.1730(2) 0.18639(14)
F1C F -0.07636(16) 1.1730(2) 0.31361(14)
F2C F 0.00294(17) 1.0918(3) 0.19666(13)
F2E F 0.49706(17) 0.5918(3) 0.19666(13)
O5C O 0.0127(2) 0.3482(3) 0.23334(16)
O5C_2 O 0.0127(2) 1.3482(3) 0.23334(16)
O6C O -0.06350(19) 0.5247(3) 0.16369(16)
O7F O 0.1550(2) 1.1932(3) 0.24227(16)
O7E O -0.1550(2) 0.6932(3) 0.25773(16)
O8G O -0.06959(19) 0.7135(3) 0.63213(15)
O8C O 0.06959(19) 1.2865(3) 0.36787(15)
O9F O 0.12155(19) 1.1839(3) 0.10770(16)
O9E O -0.12155(19) 0.6839(3) 0.39230(16)
O10G O -0.05238(19) 0.4967(3) 0.57110(16)
O10C O 0.05238(19) 0.5033(3) 0.42890(16)
O10F O 0.55238(19) 0.5033(3) 0.07110(16)
O11C O -0.06088(19) 0.2973(3) 0.11468(15)
O11E O 0.56088(19) 0.7973(3) 0.11468(15)
O12G O -0.0212(2) 0.7064(3) 0.50518(15)
O12B O 0.4788(2) 0.7064(3) -0.00518(15)
N1 N 0.3112(4) 0.9920(6) 0.3116(4)
H1 H 0.3239 1.0497 0.2771
H2 H 0.2751 0.9327 0.2944
H3 H 0.3580 0.9515 0.3263
C1 C 0.2462(5) 0.9743(7) 0.4386(4)
H4 H 0.2974 0.9350 0.4576
H5 H 0.2117 0.9036 0.4191
C2 C 0.2696(4) 1.0672(7) 0.3777(4)
H6 H 0.3088 1.1329 0.3957
H7 H 0.2193 1.1127 0.3612
C3 C 0.0439(4) 0.9856(6) 0.5165(3)
H8 H 0.0432 1.0055 0.5678
H9 H 0.0575 0.8929 0.5106
N2 N 0.1089(4) 1.0683(5) 0.4795(3)
H10 H 0.0979 1.1538 0.4889
H11 H 0.1039 1.0566 0.4315
C4 C 0.1982(5) 1.0401(8) 0.5008(4)
H12 H 0.1987 0.9825 0.5426
H13 H 0.2261 1.1218 0.5139
N1D N -0.3112(4) 1.0080(6) 0.6884(4)
H1D H -0.3239 0.9503 0.7229
H2D H -0.2751 1.0673 0.7056
H3D H -0.3580 1.0485 0.6737
C1D C -0.2462(5) 1.0257(7) 0.5614(4)
H4D H -0.2974 1.0650 0.5424
H5D H -0.2117 1.0964 0.5809
C2D C -0.2696(4) 0.9328(7) 0.6223(4)
H6D H -0.3088 0.8671 0.6043
H7D H -0.2193 0.8873 0.6388
C3D C -0.0439(4) 1.0144(6) 0.4835(3)
H8D H -0.0432 0.9945 0.4322
H9D H -0.0575 1.1071 0.4894
N2D N -0.1089(4) 0.9317(5) 0.5205(3)
H10D H -0.0979 0.8462 0.5111
H11D H -0.1039 0.9434 0.5685
C4D C -0.1982(5) 0.9599(8) 0.4992(4)
H12D H -0.1987 1.0175 0.4574
H13D H -0.2261 0.8782 0.4861
loop_
_geom_bond_atom_site_label_1
_geom_bond_atom_site_label_2
_geom_bond_site_symmetry_1
_geom_bond_site_symmetry_2
Ga1 O1 1_555 1_555
Ga2 F1 1_555 1_555
Ga3 F2 1_555 1_555
P1 O1 1_555 1_555
P2 O2 1_555 1_555
P3 O3 1_555 1_555
O2 Ga1 1_555 1_555
O3 Ga1 1_555 1_555
O4 P1 1_555 1_555
F1 Ga1 1_555 1_555
F2 Ga2 1_555 1_555
O5 Ga2 1_555 1_555
O6 P3 1_555 1_555
O7 P1 1_555 1_555
O8 Ga2 1_555 1_555
O9 P1 1_555 1_555
O10 P2 1_555 1_555
O11 Ga3 1_555 1_555
O12 P2 1_555 1_555
N1 H1 1_555 1_555
H2 N1 1_555 1_555
H3 N1 1_555 1_555
C1 H4 1_555 1_555
H5 C1 1_555 1_555
C2 N1 1_555 1_555
H6 C2 1_555 1_555
H7 C2 1_555 1_555
C3 H8 1_555 1_555
H9 C3 1_555 1_555
N2 C3 1_555 1_555
H10 N2 1_555 1_555
H11 N2 1_555 1_555
C4 C1 1_555 1_555
H12 C4 1_555 1_555
H13 C4 1_555 1_555
Ga1F O1F 1_555 1_555
Ga1F_2 O4 1_555 1_555
Ga1C O3C 1_555 1_555
Ga1G O2G 1_555 1_555
Ga2C O6 1_555 1_555
Ga2E O7 1_555 1_555
Ga2C_2 O5C 1_555 1_555
Ga2G O8G 1_555 1_555
Ga2F F1F 1_555 1_555
Ga3E O9 1_555 1_555
Ga3C O10 1_555 1_555
Ga3G O12 1_555 1_555
Ga3C_2 O11C 1_555 1_555
Ga3D O10G 1_555 1_555
P1F O1F 1_555 1_555
P2G O2G 1_555 1_555
P3C O3C 1_555 1_555
O2F Ga1F 1_555 1_555
O3F Ga1F 1_555 1_555
O4F Ga1 1_555 1_555
O4_2 Ga1F 1_555 1_555
F1F Ga1F 1_555 1_555
F1C Ga2C 1_555 1_555
F2C Ga2C 1_555 1_555
F2E Ga2E 1_555 1_555
O5C P3C 1_555 1_555
O5C_2 Ga2C 1_555 1_555
O6C Ga2 1_555 1_555
O7F Ga2C 1_555 1_555
O7E Ga2 1_555 1_555
O8G P2G 1_555 1_555
O8C Ga2C 1_555 1_555
O9F Ga3C 1_555 1_555
O9E Ga3 1_555 1_555
O10G P2G 1_555 1_555
O10C Ga3 1_555 1_555
O10F Ga3E 1_555 1_555
O11C P3C 1_555 1_555
O11E Ga3E 1_555 1_555
O12G Ga3 1_555 1_555
O12B Ga3E 1_555 1_555
N1D H1D 1_555 1_555
H2D N1D 1_555 1_555
H3D N1D 1_555 1_555
C1D H4D 1_555 1_555
H5D C1D 1_555 1_555
C2D N1D 1_555 1_555
H6D C2D 1_555 1_555
H7D C2D 1_555 1_555
C3D C3 1_555 1_555
H8D C3D 1_555 1_555
H9D C3D 1_555 1_555
N2D C3D 1_555 1_555
H10D N2D 1_555 1_555
H11D N2D 1_555 1_555
C4D C1D 1_555 1_555
H12D C4D 1_555 1_555
H13D C4D 1_555 1_555
P2 O8 1_555 1_555
P3 O5 1_555 1_555
P3 O11 1_555 1_555
C1 C2 1_555 1_555
N2 C4 1_555 1_555
Ga3E F2E 1_555 1_555
Ga3C F2C 1_555 1_555
P1F O4F 1_555 1_555
P1F O7F 1_555 1_555
P1F O9F 1_555 1_555
P2G O12G 1_555 1_555
P3C O6C 1_555 1_555
C1D C2D 1_555 1_555
N2D C4D 1_555 1_555

#END
