
#######################################################################
#
#                 Cambridge Crystallographic Data Centre
#                                CCDC 
#
#######################################################################
#
# If this CIF has been generated from an entry in the Cambridge 
# Structural Database, then it will include bibliographic, chemical, 
# crystal, experimental, refinement or atomic coordinate data resulting 
# from the CCDC's data processing and validation procedures.
#
#######################################################################

data_QAPZUF
_chemical_formula_moiety         '(C52 H32 N2 O12 P2 Zn3)n'
_symmetry_cell_setting           orthorhombic
_symmetry_space_group_name_H-M   'I b c a'
_symmetry_Int_Tables_number      73
_space_group_name_Hall           '-I 2b 2c'
loop_
_symmetry_equiv_pos_site_id
_symmetry_equiv_pos_as_xyz
1 x,y,z
2 -x,1/2-y,z
3 x,-y,1/2-z
4 -x,1/2+y,1/2-z
5 1/2+x,1/2+y,1/2+z
6 1/2-x,-y,1/2+z
7 1/2+x,1/2-y,-z
8 1/2-x,y,-z
9 -x,-y,-z
10 x,1/2+y,-z
11 -x,y,1/2+z
12 x,1/2-y,1/2+z
13 1/2-x,1/2-y,1/2-z
14 1/2+x,y,1/2-z
15 1/2-x,1/2+y,z
16 1/2+x,-y,z
_cell_length_a                   25.986(3)
_cell_length_b                   23.633(2)
_cell_length_c                   26.746(3)
_cell_angle_alpha                90
_cell_angle_beta                 90
_cell_angle_gamma                90
_cell_volume                     16425.4
loop_
_atom_site_label
_atom_site_type_symbol
_atom_site_fract_x
_atom_site_fract_y
_atom_site_fract_z
_atom_site_U_iso_or_equiv
_atom_site_thermal_displace_type
Zn1 Zn 0.35376(2) 0.500000 0.750000 0.0256 Uani
Zn2 Zn 0.38634(2) 0.53166(2) 0.63675(2) 0.0357 Uani
C1 C 0.48237(18) 0.52211(19) 0.50968(17) 0.0470 Uani
C2 C 0.45530(17) 0.51294(17) 0.55298(16) 0.0413 Uani
H1 H 0.459582 0.477746 0.569624 0.0500 Uiso
C3 C 0.4167(2) 0.6010(2) 0.55130(19) 0.0647 Uani
H2 H 0.394916 0.628449 0.566298 0.0780 Uiso
C4 C 0.4412(3) 0.6134(3) 0.5074(2) 0.0927 Uani
H3 H 0.435861 0.648960 0.491672 0.1110 Uiso
C5 C 0.4739(3) 0.5738(2) 0.4860(2) 0.0803 Uani
H4 H 0.490573 0.581945 0.455193 0.0960 Uiso
C6 C 0.37774(14) 0.41553(15) 0.66496(15) 0.0318 Uani
C7 C 0.38702(13) 0.35360(14) 0.65520(15) 0.0278 Uani
C8 C 0.41776(16) 0.33625(16) 0.61585(17) 0.0388 Uani
H5 H 0.432202 0.363550 0.593873 0.0460 Uiso
C9 C 0.42760(15) 0.27920(15) 0.60833(15) 0.0336 Uani
H6 H 0.448628 0.267621 0.581140 0.0400 Uiso
C10 C 0.40703(13) 0.23918(14) 0.64012(14) 0.0294 Uani
C11 C 0.37574(17) 0.25677(16) 0.67886(17) 0.0445 Uani
H7 H 0.360314 0.229449 0.700166 0.0530 Uiso
C12 C 0.36656(15) 0.31381(16) 0.68703(16) 0.0378 Uani
H8 H 0.346127 0.325420 0.714642 0.0450 Uiso
C13 C 0.46292(14) 0.14536(15) 0.68069(17) 0.0368 Uani
C14 C 0.48266(15) 0.09051(16) 0.68149(19) 0.0441 Uani
H9 H 0.473193 0.064716 0.655844 0.0530 Uiso
C15 C 0.51569(14) 0.07293(16) 0.71884(19) 0.0434 Uani
H10 H 0.527812 0.035012 0.719171 0.0520 Uiso
C16 C 0.53118(15) 0.10998(16) 0.75559(17) 0.0395 Uani
C17 C 0.51121(19) 0.16463(19) 0.75589(18) 0.0517 Uani
H11 H 0.520832 0.190434 0.781473 0.0620 Uiso
C18 C 0.47718(18) 0.18131(18) 0.71868(18) 0.0487 Uani
H12 H 0.463380 0.218521 0.719490 0.0590 Uiso
C19 C 0.56758(16) 0.09305(17) 0.79632(17) 0.0424 Uani
C20 C 0.36264(15) 0.13002(15) 0.64212(15) 0.0334 Uani
C21 C 0.32635(19) 0.1279(2) 0.60426(17) 0.0507 Uani
H13 H 0.334448 0.143027 0.572298 0.0610 Uiso
C22 C 0.27823(19) 0.1041(2) 0.61244(17) 0.0533 Uani
H14 H 0.253553 0.103418 0.586248 0.0640 Uiso
C23 C 0.26620(14) 0.08137(15) 0.65823(14) 0.0317 Uani
C24 C 0.30255(15) 0.08315(17) 0.69674(16) 0.0385 Uani
H15 H 0.294603 0.067600 0.728574 0.0460 Uiso
C25 C 0.35001(15) 0.10757(17) 0.68836(16) 0.0393 Uani
H16 H 0.374439 0.109004 0.714752 0.0470 Uiso
C26 C 0.21396(15) 0.05694(14) 0.66707(15) 0.0324 Uani
N1 N 0.42295(14) 0.55129(14) 0.57315(13) 0.0416 Uani
O1 O 0.39101(11) 0.44887(11) 0.63033(11) 0.0380 Uani
O2 O 0.35823(9) 0.42978(10) 0.70560(10) 0.0297 Uani
O3 O 0.58490(10) 0.04085(11) 0.79499(11) 0.0383 Uani
O4 O 0.57947(15) 0.12495(14) 0.83013(13) 0.0608 Uani
O5 O 0.18400(11) 0.05563(12) 0.62972(10) 0.0415 Uani
O6 O 0.20341(10) 0.03997(11) 0.71048(10) 0.0329 Uani
P1 P 0.42366(4) 0.16504(4) 0.62736(4) 0.0349 Uani
C1H C 0.51763(18) 0.47789(19) 0.49032(17) 0.0470 Uani
C2H C 0.54470(17) 0.48706(17) 0.44702(16) 0.0413 Uani
H1H H 0.540418 0.522254 0.430376 0.0500 Uiso
C3H C 0.5833(2) 0.3990(2) 0.44870(19) 0.0647 Uani
H2H H 0.605084 0.371551 0.433702 0.0780 Uiso
C4H C 0.5588(3) 0.3866(3) 0.4926(2) 0.0927 Uani
H3H H 0.564139 0.351040 0.508328 0.1110 Uiso
C5H C 0.5261(3) 0.4262(2) 0.5140(2) 0.0803 Uani
H4H H 0.509427 0.418055 0.544807 0.0960 Uiso
N1H N 0.57705(14) 0.44871(14) 0.42685(13) 0.0416 Uani
Zn2A Zn 0.61366(2) -0.03166(2) 0.63675(2) 0.0357 Uani
C6A C 0.62226(14) 0.08447(15) 0.66496(15) 0.0318 Uani
C7A C 0.61298(13) 0.14640(14) 0.65520(15) 0.0278 Uani
C8A C 0.58224(16) 0.16375(16) 0.61585(17) 0.0388 Uani
H5A H 0.567798 0.136450 0.593873 0.0460 Uiso
C9A C 0.57240(15) 0.22080(15) 0.60833(15) 0.0336 Uani
H6A H 0.551372 0.232379 0.581140 0.0400 Uiso
C10A C 0.59297(13) 0.26082(14) 0.64012(14) 0.0294 Uani
C11A C 0.62426(17) 0.24323(16) 0.67886(17) 0.0445 Uani
H7A H 0.639686 0.270551 0.700166 0.0530 Uiso
C12A C 0.63344(15) 0.18619(16) 0.68703(16) 0.0378 Uani
H8A H 0.653873 0.174580 0.714642 0.0450 Uiso
C13A C 0.53708(14) 0.35464(15) 0.68069(17) 0.0368 Uani
C14A C 0.51734(15) 0.40949(16) 0.68149(19) 0.0441 Uani
H9A H 0.526807 0.435284 0.655844 0.0530 Uiso
C15A C 0.48431(14) 0.42707(16) 0.71884(19) 0.0434 Uani
H10A H 0.472188 0.464988 0.719171 0.0520 Uiso
C16A C 0.46882(15) 0.39002(16) 0.75559(17) 0.0395 Uani
C17A C 0.48879(19) 0.33537(19) 0.75589(18) 0.0517 Uani
H11A H 0.479168 0.309566 0.781473 0.0620 Uiso
C18A C 0.52282(18) 0.31869(18) 0.71868(18) 0.0487 Uani
H12A H 0.536620 0.281479 0.719490 0.0590 Uiso
C19A C 0.43242(16) 0.40695(17) 0.79632(17) 0.0424 Uani
C20A C 0.63736(15) 0.36998(15) 0.64212(15) 0.0334 Uani
C21A C 0.67365(19) 0.3721(2) 0.60426(17) 0.0507 Uani
H13A H 0.665552 0.356973 0.572298 0.0610 Uiso
C22A C 0.72177(19) 0.3959(2) 0.61244(17) 0.0533 Uani
H14A H 0.746447 0.396582 0.586248 0.0640 Uiso
C23A C 0.73380(14) 0.41863(15) 0.65823(14) 0.0317 Uani
C24A C 0.69745(15) 0.41685(17) 0.69674(16) 0.0385 Uani
H15A H 0.705397 0.432400 0.728574 0.0460 Uiso
C25A C 0.64999(15) 0.39243(17) 0.68836(16) 0.0393 Uani
H16A H 0.625561 0.390996 0.714752 0.0470 Uiso
C26A C 0.78604(15) 0.44306(14) 0.66707(15) 0.0324 Uani
O1A O 0.60899(11) 0.05113(11) 0.63033(11) 0.0380 Uani
O2A O 0.64177(9) 0.07022(10) 0.70560(10) 0.0297 Uani
O3A O 0.41510(10) 0.45915(11) 0.79499(11) 0.0383 Uani
O4A O 0.42053(15) 0.37505(14) 0.83013(13) 0.0608 Uani
O5A O 0.81600(11) 0.44437(12) 0.62972(10) 0.0415 Uani
O6A O 0.79659(10) 0.46003(11) 0.71048(10) 0.0329 Uani
P1A P 0.57634(4) 0.33496(4) 0.62736(4) 0.0349 Uani
Zn1A Zn 0.64624(2) 0.000000 0.750000 0.0256 Uani
Zn1L Zn 0.14624(2) 0.000000 0.750000 0.0256 Uani
Zn1M Zn 0.85376(2) 0.500000 0.750000 0.0256 Uani
Zn2B Zn 0.38634(2) 0.46834(2) 0.86325(2) 0.0357 Uani
Zn2C Zn 0.61366(2) 0.03166(2) 0.86325(2) 0.0357 Uani
Zn2H Zn 0.61366(2) 0.46834(2) 0.36325(2) 0.0357 Uani
Zn2N Zn 0.11366(2) 0.03166(2) 0.63675(2) 0.0357 Uani
Zn2O Zn 0.88634(2) 0.46834(2) 0.63675(2) 0.0357 Uani
N1A N 0.57705(14) -0.05129(14) 0.57315(13) 0.0416 Uani
O2B O 0.35823(9) 0.57022(10) 0.79440(10) 0.0297 Uani
O3B O 0.58490(10) -0.04085(11) 0.70501(11) 0.0383 Uani
O3C O 0.41510(10) 0.54085(11) 0.70501(11) 0.0383 Uani
O4B O 0.57947(15) -0.12495(14) 0.66987(13) 0.0608 Uani
O4C O 0.42053(15) 0.62495(14) 0.66987(13) 0.0608 Uani
O5N O 0.31600(11) 0.55563(12) 0.62972(10) 0.0415 Uani
O5O O 0.68400(11) -0.05563(12) 0.62972(10) 0.0415 Uani
O6L O 0.29659(10) 0.46003(11) 0.78952(10) 0.0329 Uani
O6N O 0.29659(10) 0.53997(11) 0.71048(10) 0.0329 Uani
loop_
_atom_site_aniso_label
_atom_site_aniso_U_11
_atom_site_aniso_U_22
_atom_site_aniso_U_33
_atom_site_aniso_U_23
_atom_site_aniso_U_13
_atom_site_aniso_U_12
Zn1 0.0213(3) 0.0191(3) 0.0364(3) -0.0033(2) 0.000 0.000
Zn2 0.0426(3) 0.0208(2) 0.0438(3) 0.00258(18) 0.0147(2) 0.00809(18)
C1 0.056(3) 0.044(2) 0.041(2) 0.0054(19) 0.016(2) 0.013(2)
C2 0.051(2) 0.031(2) 0.042(2) 0.0049(17) 0.0135(19) 0.0083(17)
C3 0.088(4) 0.051(3) 0.055(3) 0.016(2) 0.029(3) 0.037(3)
C4 0.141(6) 0.063(4) 0.074(4) 0.032(3) 0.053(4) 0.056(4)
C5 0.114(5) 0.062(3) 0.065(4) 0.024(3) 0.051(3) 0.039(3)
C6 0.0248(17) 0.0225(17) 0.048(2) -0.0016(15) -0.0014(16) 0.0021(14)
C7 0.0214(16) 0.0209(16) 0.041(2) -0.0017(14) -0.0044(14) 0.0025(13)
C8 0.042(2) 0.0214(17) 0.053(2) 0.0022(16) 0.0114(18) 0.0005(16)
C9 0.036(2) 0.0248(17) 0.040(2) -0.0039(15) 0.0082(16) 0.0006(15)
C10 0.0232(17) 0.0200(16) 0.045(2) -0.0016(14) 0.0031(15) 0.0001(13)
C11 0.052(2) 0.0235(18) 0.058(3) 0.0049(18) 0.026(2) 0.0012(17)
C12 0.035(2) 0.0273(18) 0.051(2) -0.0007(17) 0.0131(18) 0.0046(16)
C13 0.0239(17) 0.0216(17) 0.065(3) 0.0050(17) 0.0128(17) -0.0007(14)
C14 0.0271(19) 0.0201(17) 0.085(3) -0.0017(19) 0.0023(19) -0.0015(15)
C15 0.0256(19) 0.0175(17) 0.087(3) 0.0054(18) 0.0023(19) -0.0007(14)
C16 0.032(2) 0.0285(19) 0.058(2) 0.0092(17) 0.0148(17) 0.0046(16)
C17 0.064(3) 0.037(2) 0.054(3) -0.003(2) 0.007(2) 0.021(2)
C18 0.059(3) 0.029(2) 0.058(3) 0.0004(19) 0.009(2) 0.0199(19)
C19 0.041(2) 0.0293(19) 0.057(3) 0.0080(18) 0.0174(19) 0.0107(17)
C20 0.0332(19) 0.0179(16) 0.049(2) -0.0030(15) 0.0081(16) -0.0025(14)
C21 0.056(3) 0.056(3) 0.040(2) 0.009(2) -0.001(2) -0.028(2)
C22 0.058(3) 0.061(3) 0.041(2) 0.006(2) -0.006(2) -0.026(2)
C23 0.0346(19) 0.0234(17) 0.037(2) -0.0023(15) 0.0006(15) -0.0059(14)
C24 0.0326(19) 0.038(2) 0.045(2) 0.0097(18) -0.0002(17) -0.0019(16)
C25 0.0319(19) 0.039(2) 0.047(2) 0.0089(18) -0.0038(17) -0.0033(16)
C26 0.0365(19) 0.0197(16) 0.041(2) -0.0037(15) -0.0046(16) -0.0023(14)
N1 0.047(2) 0.0319(17) 0.046(2) 0.0056(15) 0.0128(16) 0.0098(15)
O1 0.0466(16) 0.0218(13) 0.0457(16) 0.0061(11) 0.0126(13) 0.0040(11)
O2 0.0269(12) 0.0218(12) 0.0405(14) -0.0070(11) 0.0023(11) 0.0001(10)
O3 0.0290(13) 0.0236(12) 0.0623(19) 0.0096(12) 0.0126(13) 0.0032(10)
O4 0.088(3) 0.0447(18) 0.0496(19) -0.0024(15) 0.0042(18) 0.0258(18)
O5 0.0425(16) 0.0391(15) 0.0428(16) 0.0072(12) -0.0092(13) -0.0167(13)
O6 0.0278(13) 0.0302(13) 0.0408(15) 0.0008(11) -0.0012(11) -0.0055(10)
P1 0.0326(5) 0.0170(4) 0.0551(7) 0.0003(4) 0.0141(5) 0.0002(4)
C1H 0.056 0.044 0.041 0.0054 0.016 0.013
C2H 0.051 0.031 0.042 0.0049 0.0135 0.0083
C3H 0.088 0.051 0.055 0.016 0.029 0.037
C4H 0.141 0.063 0.074 0.032 0.053 0.056
C5H 0.114 0.062 0.065 0.024 0.051 0.039
N1H 0.047 0.0319 0.046 0.0056 0.0128 0.0098
Zn2A 0.0426 0.0208 0.0438 -0.00258 -0.0147 0.00809
C6A 0.0248 0.0225 0.048 0.0016 0.0014 0.0021
C7A 0.0214 0.0209 0.041 0.0017 0.0044 0.0025
C8A 0.042 0.0214 0.053 -0.0022 -0.0114 0.0005
C9A 0.036 0.0248 0.04 0.0039 -0.0082 0.0006
C10A 0.0232 0.02 0.045 0.0016 -0.0031 0.0001
C11A 0.052 0.0235 0.058 -0.0049 -0.026 0.0012
C12A 0.035 0.0273 0.051 0.0007 -0.0131 0.0046
C13A 0.0239 0.0216 0.065 -0.005 -0.0128 -0.0007
C14A 0.0271 0.0201 0.085 0.0017 -0.0023 -0.0015
C15A 0.0256 0.0175 0.087 -0.0054 -0.0023 -0.0007
C16A 0.032 0.0285 0.058 -0.0092 -0.0148 0.0046
C17A 0.064 0.037 0.054 0.003 -0.007 0.021
C18A 0.059 0.029 0.058 -0.0004 -0.009 0.0199
C19A 0.041 0.0293 0.057 -0.008 -0.0174 0.0107
C20A 0.0332 0.0179 0.049 0.003 -0.0081 -0.0025
C21A 0.056 0.056 0.04 -0.009 0.001 -0.028
C22A 0.058 0.061 0.041 -0.006 0.006 -0.026
C23A 0.0346 0.0234 0.037 0.0023 -0.0006 -0.0059
C24A 0.0326 0.038 0.045 -0.0097 0.0002 -0.0019
C25A 0.0319 0.039 0.047 -0.0089 0.0038 -0.0033
C26A 0.0365 0.0197 0.041 0.0037 0.0046 -0.0023
O1A 0.0466 0.0218 0.0457 -0.0061 -0.0126 0.004
O2A 0.0269 0.0218 0.0405 0.007 -0.0023 0.0001
O3A 0.029 0.0236 0.0623 -0.0096 -0.0126 0.0032
O4A 0.088 0.0447 0.0496 0.0024 -0.0042 0.0258
O5A 0.0425 0.0391 0.0428 -0.0072 0.0092 -0.0167
O6A 0.0278 0.0302 0.0408 -0.0008 0.0012 -0.0055
P1A 0.0326 0.017 0.0551 -0.0003 -0.0141 0.0002
Zn1A 0.0213 0.0191 0.0364 0.0033 0 0
Zn1L 0.0213 0.0191 0.0364 -0.0033 0 0
Zn1M 0.0213 0.0191 0.0364 0.0033 0 0
Zn2B 0.0426 0.0208 0.0438 0.00258 -0.0147 -0.00809
Zn2C 0.0426 0.0208 0.0438 -0.00258 0.0147 -0.00809
Zn2H 0.0426 0.0208 0.0438 0.00258 0.0147 0.00809
Zn2N 0.0426 0.0208 0.0438 0.00258 -0.0147 -0.00809
Zn2O 0.0426 0.0208 0.0438 -0.00258 0.0147 -0.00809
N1A 0.047 0.0319 0.046 -0.0056 -0.0128 0.0098
O2B 0.0269 0.0218 0.0405 -0.007 -0.0023 -0.0001
O3B 0.029 0.0236 0.0623 0.0096 -0.0126 -0.0032
O3C 0.029 0.0236 0.0623 -0.0096 0.0126 -0.0032
O4B 0.088 0.0447 0.0496 -0.0024 -0.0042 -0.0258
O4C 0.088 0.0447 0.0496 0.0024 0.0042 -0.0258
O5N 0.0425 0.0391 0.0428 0.0072 0.0092 0.0167
O5O 0.0425 0.0391 0.0428 -0.0072 -0.0092 0.0167
O6L 0.0278 0.0302 0.0408 0.0008 -0.0012 -0.0055
O6N 0.0278 0.0302 0.0408 0.0008 0.0012 0.0055
loop_
_geom_bond_atom_site_label_1
_geom_bond_atom_site_label_2
_geom_bond_site_symmetry_1
_geom_bond_site_symmetry_2
Zn1 O2 1_555 1_555
Zn2 N1 1_555 1_555
C1 C2 1_555 1_555
C2 H1 1_555 1_555
C3 H2 1_555 1_555
C4 C3 1_555 1_555
H3 C4 1_555 1_555
C5 C1 1_555 1_555
H4 C5 1_555 1_555
C6 C7 1_555 1_555
C7 C8 1_555 1_555
C8 H5 1_555 1_555
C9 C8 1_555 1_555
H6 C9 1_555 1_555
C10 C9 1_555 1_555
C11 C10 1_555 1_555
H7 C11 1_555 1_555
C12 C7 1_555 1_555
H8 C12 1_555 1_555
C13 C14 1_555 1_555
C14 H9 1_555 1_555
C15 C14 1_555 1_555
H10 C15 1_555 1_555
C16 C15 1_555 1_555
C17 C16 1_555 1_555
H11 C17 1_555 1_555
C18 C13 1_555 1_555
H12 C18 1_555 1_555
C19 C16 1_555 1_555
C20 C21 1_555 1_555
C21 H13 1_555 1_555
C22 C21 1_555 1_555
H14 C22 1_555 1_555
C23 C22 1_555 1_555
C24 C23 1_555 1_555
H15 C24 1_555 1_555
C25 C20 1_555 1_555
H16 C25 1_555 1_555
C26 C23 1_555 1_555
N1 C2 1_555 1_555
O1 Zn2 1_555 1_555
O2 C6 1_555 1_555
O3 C19 1_555 1_555
O4 C19 1_555 1_555
O5 C26 1_555 1_555
O6 C26 1_555 1_555
P1 C10 1_555 1_555
C1H C1 1_555 1_555
C2H C1H 1_555 1_555
H1H C2H 1_555 1_555
C3H H2H 1_555 1_555
C4H C3H 1_555 1_555
H3H C4H 1_555 1_555
C5H C1H 1_555 1_555
H4H C5H 1_555 1_555
N1H C2H 1_555 1_555
Zn2A O1A 1_555 1_555
C6A C7A 1_555 1_555
C7A C8A 1_555 1_555
C8A H5A 1_555 1_555
C9A C8A 1_555 1_555
H6A C9A 1_555 1_555
C10A C9A 1_555 1_555
C11A C10A 1_555 1_555
H7A C11A 1_555 1_555
C12A C7A 1_555 1_555
H8A C12A 1_555 1_555
C13A C14A 1_555 1_555
C14A H9A 1_555 1_555
C15A C14A 1_555 1_555
H10A C15A 1_555 1_555
C16A C15A 1_555 1_555
C17A C16A 1_555 1_555
H11A C17A 1_555 1_555
C18A C13A 1_555 1_555
H12A C18A 1_555 1_555
C19A C16A 1_555 1_555
C20A C21A 1_555 1_555
C21A H13A 1_555 1_555
C22A C21A 1_555 1_555
H14A C22A 1_555 1_555
C23A C22A 1_555 1_555
C24A C23A 1_555 1_555
H15A C24A 1_555 1_555
C25A C20A 1_555 1_555
H16A C25A 1_555 1_555
C26A C23A 1_555 1_555
O1A C6A 1_555 1_555
O2A C6A 1_555 1_555
O3A Zn1 1_555 1_555
O4A C19A 1_555 1_555
O5A C26A 1_555 1_555
O6A C26A 1_555 1_555
P1A C10A 1_555 1_555
Zn1A O3 1_555 1_555
Zn1L O6 1_555 1_555
Zn1M O6A 1_555 1_555
Zn2B O3A 1_555 1_555
Zn2C O3 1_555 1_555
Zn2H N1H 1_555 1_555
Zn2N O5 1_555 1_555
Zn2O O5A 1_555 1_555
N1A Zn2A 1_555 1_555
O2B Zn1 1_555 1_555
O3B Zn2A 1_555 1_555
O3C Zn1 1_555 1_555
O4B Zn2A 1_555 1_555
O4C Zn2 1_555 1_555
O5N Zn2 1_555 1_555
O5O Zn2A 1_555 1_555
O6L Zn1 1_555 1_555
O6N Zn1 1_555 1_555
Zn2 O3C 1_555 1_555
C3 N1 1_555 1_555
C4 C5 1_555 1_555
C6 O1 1_555 1_555
C11 C12 1_555 1_555
C13 P1 1_555 1_555
C17 C18 1_555 1_555
C20 P1 1_555 1_555
C24 C25 1_555 1_555
O4 Zn2C 1_555 1_555
C3H N1H 1_555 1_555
C4H C5H 1_555 1_555
C11A C12A 1_555 1_555
C13A P1A 1_555 1_555
C17A C18A 1_555 1_555
C19A O3A 1_555 1_555
C20A P1A 1_555 1_555
C24A C25A 1_555 1_555
O2A Zn1A 1_555 1_555
O4A Zn2B 1_555 1_555
Zn1A O3B 1_555 1_555

#END
