
#######################################################################
#
#                 Cambridge Crystallographic Data Centre
#                                CCDC 
#
#######################################################################
#
# If this CIF has been generated from an entry in the Cambridge 
# Structural Database, then it will include bibliographic, chemical, 
# crystal, experimental, refinement or atomic coordinate data resulting 
# from the CCDC's data processing and validation procedures.
#
#######################################################################

data_QUNVIG
_chemical_formula_moiety         'C72 H54 Co15 F18 N32 O3 Si1'
_symmetry_cell_setting           cubic
_symmetry_space_group_name_H-M   'P a -3'
_symmetry_Int_Tables_number      205
_space_group_name_Hall           '-P 2ac 2ab 3'
loop_
_symmetry_equiv_pos_site_id
_symmetry_equiv_pos_as_xyz
1 x,y,z
2 1/2-x,-y,1/2+z
3 -x,1/2+y,1/2-z
4 1/2+x,1/2-y,-z
5 z,x,y
6 1/2+z,1/2-x,-y
7 1/2-z,-x,1/2+y
8 -z,1/2+x,1/2-y
9 y,z,x
10 -y,1/2+z,1/2-x
11 1/2+y,1/2-z,-x
12 1/2-y,-z,1/2+x
13 -x,-y,-z
14 1/2+x,y,1/2-z
15 x,1/2-y,1/2+z
16 1/2-x,1/2+y,z
17 -z,-x,-y
18 1/2-z,1/2+x,y
19 1/2+z,x,1/2-y
20 z,1/2-x,1/2+y
21 -y,-z,-x
22 y,1/2-z,1/2+x
23 1/2-y,1/2+z,x
24 1/2+y,z,1/2-x
_cell_length_a                   24.5063(4)
_cell_length_b                   24.5063(4)
_cell_length_c                   24.5063(4)
_cell_angle_alpha                90
_cell_angle_beta                 90
_cell_angle_gamma                90
_cell_volume                     14717.5
loop_
_atom_site_label
_atom_site_type_symbol
_atom_site_fract_x
_atom_site_fract_y
_atom_site_fract_z
F3 F 0.8990(8) -0.1141(7) -0.0398(6)
F4 F 0.8242(11) -0.1101(13) -0.1031(14)
Si1 Si 0.8940(4) -0.1060(4) -0.1060(4)
F3D F 0.9602(6) -0.1010(8) -0.1141(7)
F4D F 0.8969(14) -0.1758(11) -0.1101(13)
F3H F 0.8859(7) -0.0398(6) -0.1010(8)
F4H F 0.8899(13) -0.1031(14) -0.1758(11)
O1 O 0.7580(6) 0.0801(9) -0.0281(6)
O2 O 0.7517(15) -0.0118(16) -0.1049(16)
O3 O 0.7683(15) -0.1992(15) -0.0109(15)
Co1 Co 0.89611(7) 0.02906(7) 0.06681(7)
Co2 Co 1.0000 0.0000 0.0000
C1 C 0.8134(5) 0.1115(5) 0.1058(4)
H1 H 0.7906 0.0910 0.0821
C2 C 0.7905(4) 0.1551(5) 0.1326(4)
H2 H 0.7527 0.1631 0.1291
C3 C 0.8249(4) 0.1877(4) 0.1655(4)
C4 C 0.8784(4) 0.1719(4) 0.1709(4)
H3 H 0.9025 0.1923 0.1933
C5 C 0.8971(4) 0.1261(5) 0.1438(5)
H4 H 0.9341 0.1156 0.1486
C6 C 0.7935(5) -0.0387(5) 0.0420(5)
H5 H 0.8071 -0.0377 0.0058
C7 C 0.7454(5) -0.0653(4) 0.0515(4)
H6 H 0.7262 -0.0816 0.0221
C8 C 0.7248(4) -0.0684(4) 0.1032(4)
C9 C 0.7538(4) -0.0431(4) 0.1443(4)
H7 H 0.7406 -0.0434 0.1808
C10 C 0.8021(5) -0.0175(4) 0.1318(5)
H8 H 0.8221 -0.0014 0.1609
C11 C 0.8023(4) 0.2363(4) 0.1926(4)
C12 C 0.6749(4) -0.0992(4) 0.1157(4)
N1 N 0.8228(4) -0.0138(4) 0.0817(4)
N2 N 0.8652(4) 0.0958(4) 0.1108(4)
F1 F 0.8654(2) 0.0637(2) -0.0022(2)
F2 F 0.9328(3) -0.0383(3) 0.0316(3)
N3 N 0.7562(4) 0.2614(4) 0.1720(4)
N4 N 0.6443(4) -0.0850(4) 0.1605(4)
C1G C 0.8942(4) 0.3134(5) 0.3885(5)
H1G H 0.9179 0.2906 0.4090
C2G C 0.8674(4) 0.2905(4) 0.3449(5)
H2G H 0.8709 0.2527 0.3369
C3G C 0.8345(4) 0.3249(4) 0.3123(4)
C4G C 0.8291(4) 0.3784(4) 0.3281(4)
H3G H 0.8067 0.4025 0.3077
C5G C 0.8562(5) 0.3971(4) 0.3739(5)
H4G H 0.8514 0.4341 0.3844
C11G C 0.8074(4) 0.3023(4) 0.2637(4)
N2G N 0.8892(4) 0.3652(4) 0.4042(4)
N3G N 0.8280(4) 0.2562(4) 0.2386(4)
C1J C 0.6115(5) 0.3942(4) 0.1866(5)
H1J H 0.5910 0.4179 0.2094
C2J C 0.6551(5) 0.3674(4) 0.2095(4)
H2J H 0.6631 0.3709 0.2473
C3J C 0.6877(4) 0.3345(4) 0.1751(4)
C4J C 0.6719(4) 0.3291(4) 0.1216(4)
H3J H 0.6923 0.3067 0.0975
C5J C 0.6261(5) 0.3562(5) 0.1029(4)
H4J H 0.6156 0.3514 0.0659
C11J C 0.7363(4) 0.3074(4) 0.1977(4)
N2J N 0.5958(4) 0.3892(4) 0.1348(4)
N3J N 0.7614(4) 0.3280(4) 0.2438(4)
C6E C 0.5420(5) -0.2935(5) 0.0387(5)
H5E H 0.5058 -0.3071 0.0377
C7E C 0.5515(4) -0.2454(5) 0.0653(4)
H6E H 0.5221 -0.2262 0.0816
C8E C 0.6032(4) -0.2248(4) 0.0684(4)
C9E C 0.6443(4) -0.2538(4) 0.0431(4)
H7E H 0.6808 -0.2406 0.0434
C10E C 0.6318(5) -0.3021(5) 0.0175(4)
H8E H 0.6609 -0.3221 0.0014
C12E C 0.6157(4) -0.1749(4) 0.0992(4)
N1E N 0.5817(4) -0.3228(4) 0.0138(4)
N4E N 0.6605(4) -0.1443(4) 0.0850(4)
C6K C 0.5387(5) -0.0420(5) 0.2935(5)
H5K H 0.5377 -0.0058 0.3071
C7K C 0.5653(4) -0.0515(4) 0.2454(5)
H6K H 0.5816 -0.0221 0.2262
C8K C 0.5684(4) -0.1032(4) 0.2248(4)
C9K C 0.5431(4) -0.1443(4) 0.2538(4)
H7K H 0.5434 -0.1808 0.2406
C10K C 0.5175(4) -0.1318(5) 0.3021(5)
H8K H 0.5014 -0.1609 0.3221
C12K C 0.5992(4) -0.1157(4) 0.1749(4)
N1K N 0.5138(4) -0.0817(4) 0.3228(4)
N4K N 0.5850(4) -0.1605(4) 0.1443(4)
Co1D Co 1.06681(7) -0.10389(7) 0.02906(7)
F1D F 0.9978(2) -0.1346(2) 0.0637(2)
F2D F 1.0316(3) -0.0672(3) -0.0383(3)
Co1H Co 1.02906(7) 0.06681(7) -0.10389(7)
F1H F 1.0637(2) -0.0022(2) -0.1346(2)
F2H F 0.9617(3) 0.0316(3) -0.0672(3)
Co1L Co 1.10389(7) -0.02906(7) -0.06681(7)
C1L C 1.1866(5) -0.1115(5) -0.1058(4)
H1L H 1.2094 -0.0910 -0.0821
C2L C 1.2095(4) -0.1551(5) -0.1326(4)
H2L H 1.2473 -0.1631 -0.1291
C3L C 1.1751(4) -0.1877(4) -0.1655(4)
C4L C 1.1216(4) -0.1719(4) -0.1709(4)
H3L H 1.0975 -0.1923 -0.1933
C5L C 1.1029(4) -0.1261(5) -0.1438(5)
H4L H 1.0659 -0.1156 -0.1486
C6L C 1.2065(5) 0.0387(5) -0.0420(5)
H5L H 1.1929 0.0377 -0.0058
C7L C 1.2546(5) 0.0653(4) -0.0515(4)
H6L H 1.2738 0.0816 -0.0221
C8L C 1.2752(4) 0.0684(4) -0.1032(4)
C9L C 1.2462(4) 0.0431(4) -0.1443(4)
H7L H 1.2594 0.0434 -0.1808
C10L C 1.1979(5) 0.0175(4) -0.1318(5)
H8L H 1.1779 0.0014 -0.1609
C11L C 1.1977(4) -0.2363(4) -0.1926(4)
C12L C 1.3251(4) 0.0992(4) -0.1157(4)
N1L N 1.1772(4) 0.0138(4) -0.0817(4)
N2L N 1.1348(4) -0.0958(4) -0.1108(4)
F1L F 1.1346(2) -0.0637(2) 0.0022(2)
F2L F 1.0672(3) 0.0383(3) -0.0316(3)
N3L N 1.2438(4) -0.2614(4) -0.1720(4)
N4L N 1.3557(4) 0.0850(4) -0.1605(4)
C1S C 1.1058(4) -0.3134(5) -0.3885(5)
H1S H 1.0821 -0.2906 -0.4090
C2S C 1.1326(4) -0.2905(4) -0.3449(5)
H2S H 1.1291 -0.2527 -0.3369
C3S C 1.1655(4) -0.3249(4) -0.3123(4)
C4S C 1.1709(4) -0.3784(4) -0.3281(4)
H3S H 1.1933 -0.4025 -0.3077
C5S C 1.1438(5) -0.3971(4) -0.3739(5)
H4S H 1.1486 -0.4341 -0.3844
C11S C 1.1926(4) -0.3023(4) -0.2637(4)
N2S N 1.1108(4) -0.3652(4) -0.4042(4)
N3S N 1.1720(4) -0.2562(4) -0.2386(4)
C1V C 1.3885(5) -0.3942(4) -0.1866(5)
H1V H 1.4090 -0.4179 -0.2094
C2V C 1.3449(5) -0.3674(4) -0.2095(4)
H2V H 1.3369 -0.3709 -0.2473
C3V C 1.3123(4) -0.3345(4) -0.1751(4)
C4V C 1.3281(4) -0.3291(4) -0.1216(4)
H3V H 1.3077 -0.3067 -0.0975
C5V C 1.3739(5) -0.3562(5) -0.1029(4)
H4V H 1.3844 -0.3514 -0.0659
C11V C 1.2637(4) -0.3074(4) -0.1977(4)
N2V N 1.4042(4) -0.3892(4) -0.1348(4)
N3V N 1.2386(4) -0.3280(4) -0.2438(4)
C6Q C 1.4580(5) 0.2935(5) -0.0387(5)
H5Q H 1.4942 0.3071 -0.0377
C7Q C 1.4485(4) 0.2454(5) -0.0653(4)
H6Q H 1.4779 0.2262 -0.0816
C8Q C 1.3968(4) 0.2248(4) -0.0684(4)
C9Q C 1.3557(4) 0.2538(4) -0.0431(4)
H7Q H 1.3192 0.2406 -0.0434
C10Q C 1.3682(5) 0.3021(5) -0.0175(4)
H8Q H 1.3391 0.3221 -0.0014
C12Q C 1.3843(4) 0.1749(4) -0.0992(4)
N1Q N 1.4183(4) 0.3228(4) -0.0138(4)
N4Q N 1.3395(4) 0.1443(4) -0.0850(4)
C6W C 1.4613(5) 0.0420(5) -0.2935(5)
H5W H 1.4623 0.0058 -0.3071
C7W C 1.4347(4) 0.0515(4) -0.2454(5)
H6W H 1.4184 0.0221 -0.2262
C8W C 1.4316(4) 0.1032(4) -0.2248(4)
C9W C 1.4569(4) 0.1443(4) -0.2538(4)
H7W H 1.4566 0.1808 -0.2406
C10W C 1.4825(4) 0.1318(5) -0.3021(5)
H8W H 1.4986 0.1609 -0.3221
C12W C 1.4008(4) 0.1157(4) -0.1749(4)
N1W N 1.4862(4) 0.0817(4) -0.3228(4)
N4W N 1.4150(4) 0.1605(4) -0.1443(4)
Co1P Co 0.93319(7) 0.10389(7) -0.02906(7)
F1P F 1.0022(2) 0.1346(2) -0.0637(2)
F2P F 0.9684(3) 0.0672(3) 0.0383(3)
Co1T Co 0.97094(7) -0.06681(7) 0.10389(7)
F1T F 0.9363(2) 0.0022(2) 0.1346(2)
F2T F 1.0383(3) -0.0316(3) 0.0672(3)
Co1E Co 0.56681(7) -0.39611(7) -0.02906(7)
Co1G Co 0.93319(7) 0.39611(7) 0.47094(7)
Co1J Co 0.52906(7) 0.43319(7) 0.10389(7)
Co1K Co 0.47094(7) -0.06681(7) 0.39611(7)
Co1Q Co 1.43319(7) 0.39611(7) 0.02906(7)
Co1S Co 1.06681(7) -0.39611(7) -0.47094(7)
Co1V Co 1.47094(7) -0.43319(7) -0.10389(7)
Co1W Co 1.52906(7) 0.06681(7) -0.39611(7)
N1D N 1.0817(4) -0.1772(4) -0.0138(4)
N1H N 0.9862(4) 0.0817(4) -0.1772(4)
N1P N 0.9183(4) 0.1772(4) 0.0138(4)
N1T N 1.0138(4) -0.0817(4) 0.1772(4)
N2D N 1.1108(4) -0.1348(4) 0.0958(4)
N2H N 1.0958(4) 0.1108(4) -0.1348(4)
N2P N 0.8892(4) 0.1348(4) -0.0958(4)
N2T N 0.9042(4) -0.1108(4) 0.1348(4)
loop_
_geom_bond_atom_site_label_1
_geom_bond_atom_site_label_2
_geom_bond_site_symmetry_1
_geom_bond_site_symmetry_2
Co1 N1 1_555 1_555
Co2 F2 1_555 1_555
C1 H1 1_555 1_555
C2 C1 1_555 1_555
H2 C2 1_555 1_555
C3 C2 1_555 1_555
C4 C3 1_555 1_555
H3 C4 1_555 1_555
C5 C4 1_555 1_555
H4 C5 1_555 1_555
C6 H5 1_555 1_555
C7 C6 1_555 1_555
H6 C7 1_555 1_555
C8 C7 1_555 1_555
C9 C8 1_555 1_555
H7 C9 1_555 1_555
C10 C9 1_555 1_555
H8 C10 1_555 1_555
C11 C3 1_555 1_555
C12 C8 1_555 1_555
N1 C6 1_555 1_555
N2 Co1 1_555 1_555
F1 Co1 1_555 1_555
F2 Co1 1_555 1_555
N3 C11 1_555 1_555
N4 C12 1_555 1_555
F3 Si1 1_555 1_555
F4 Si1 1_555 1_555
Si1 F3D 1_555 1_555
C1G H1G 1_555 1_555
C2G C1G 1_555 1_555
H2G C2G 1_555 1_555
C3G C2G 1_555 1_555
C4G C3G 1_555 1_555
H3G C4G 1_555 1_555
C5G C4G 1_555 1_555
H4G C5G 1_555 1_555
C11G C3G 1_555 1_555
N2G C1G 1_555 1_555
N3G C11 1_555 1_555
C1J H1J 1_555 1_555
C2J C1J 1_555 1_555
H2J C2J 1_555 1_555
C3J C2J 1_555 1_555
C4J C3J 1_555 1_555
H3J C4J 1_555 1_555
C5J C4J 1_555 1_555
H4J C5J 1_555 1_555
C11J N3 1_555 1_555
N2J C1J 1_555 1_555
N3J C11G 1_555 1_555
C6E H5E 1_555 1_555
C7E C6E 1_555 1_555
H6E C7E 1_555 1_555
C8E C7E 1_555 1_555
C9E C8E 1_555 1_555
H7E C9E 1_555 1_555
C10E C9E 1_555 1_555
H8E C10E 1_555 1_555
C12E C8E 1_555 1_555
N1E C6E 1_555 1_555
N4E C12 1_555 1_555
C6K H5K 1_555 1_555
C7K C6K 1_555 1_555
H6K C7K 1_555 1_555
C8K C7K 1_555 1_555
C9K C8K 1_555 1_555
H7K C9K 1_555 1_555
C10K C9K 1_555 1_555
H8K C10K 1_555 1_555
C12K N4 1_555 1_555
N1K C6K 1_555 1_555
N4K C12E 1_555 1_555
Co1D F1D 1_555 1_555
F1D Co1T 1_555 1_555
F2D Co2 1_555 1_555
Co1H F1H 1_555 1_555
F1H Co1L 1_555 1_555
F2H Co2 1_555 1_555
Co1L F2D 1_555 1_555
C1L H1L 1_555 1_555
C2L C1L 1_555 1_555
H2L C2L 1_555 1_555
C3L C2L 1_555 1_555
C4L C3L 1_555 1_555
H3L C4L 1_555 1_555
C5L C4L 1_555 1_555
H4L C5L 1_555 1_555
C6L H5L 1_555 1_555
C7L C6L 1_555 1_555
H6L C7L 1_555 1_555
C8L C7L 1_555 1_555
C9L C8L 1_555 1_555
H7L C9L 1_555 1_555
C10L C9L 1_555 1_555
H8L C10L 1_555 1_555
C11L C3L 1_555 1_555
C12L C8L 1_555 1_555
N1L Co1L 1_555 1_555
N2L Co1L 1_555 1_555
F1L Co1D 1_555 1_555
F2L Co2 1_555 1_555
N3L C11L 1_555 1_555
N4L C12L 1_555 1_555
C1S H1S 1_555 1_555
C2S C1S 1_555 1_555
H2S C2S 1_555 1_555
C3S C2S 1_555 1_555
C4S C3S 1_555 1_555
H3S C4S 1_555 1_555
C5S C4S 1_555 1_555
H4S C5S 1_555 1_555
C11S C3S 1_555 1_555
N2S C1S 1_555 1_555
N3S C11L 1_555 1_555
C1V H1V 1_555 1_555
C2V C1V 1_555 1_555
H2V C2V 1_555 1_555
C3V C2V 1_555 1_555
C4V C3V 1_555 1_555
H3V C4V 1_555 1_555
C5V C4V 1_555 1_555
H4V C5V 1_555 1_555
C11V N3L 1_555 1_555
N2V C1V 1_555 1_555
N3V C11S 1_555 1_555
C6Q H5Q 1_555 1_555
C7Q C6Q 1_555 1_555
H6Q C7Q 1_555 1_555
C8Q C7Q 1_555 1_555
C9Q C8Q 1_555 1_555
H7Q C9Q 1_555 1_555
C10Q C9Q 1_555 1_555
H8Q C10Q 1_555 1_555
C12Q C8Q 1_555 1_555
N1Q C6Q 1_555 1_555
N4Q C12L 1_555 1_555
C6W H5W 1_555 1_555
C7W C6W 1_555 1_555
H6W C7W 1_555 1_555
C8W C7W 1_555 1_555
C9W C8W 1_555 1_555
H7W C9W 1_555 1_555
C10W C9W 1_555 1_555
H8W C10W 1_555 1_555
C12W N4L 1_555 1_555
N1W C6W 1_555 1_555
N4W C12Q 1_555 1_555
Co1P F1 1_555 1_555
F1P Co1H 1_555 1_555
F2P Co1 1_555 1_555
Co1T F2 1_555 1_555
F1T Co1 1_555 1_555
F2T Co2 1_555 1_555
Co1E N1E 1_555 1_555
Co1G N2G 1_555 1_555
Co1J N2J 1_555 1_555
Co1K N1K 1_555 1_555
Co1Q N1Q 1_555 1_555
Co1S N2S 1_555 1_555
Co1V N2V 1_555 1_555
Co1W N1W 1_555 1_555
N1D Co1D 1_555 1_555
N1H Co1H 1_555 1_555
N1P Co1P 1_555 1_555
N1T Co1T 1_555 1_555
N2D Co1D 1_555 1_555
N2H Co1H 1_555 1_555
N2P Co1P 1_555 1_555
N2T Co1T 1_555 1_555
F4D Si1 1_555 1_555
F3H Si1 1_555 1_555
F4H Si1 1_555 1_555
Co2 F2P 1_555 1_555
C1 N2 1_555 1_555
C5 N2 1_555 1_555
C10 N1 1_555 1_555
C5G N2G 1_555 1_555
C11G N3G 1_555 1_555
C3J C11J 1_555 1_555
C5J N2J 1_555 1_555
C11J N3J 1_555 1_555
C10E N1E 1_555 1_555
C12E N4E 1_555 1_555
C8K C12K 1_555 1_555
C10K N1K 1_555 1_555
C12K N4K 1_555 1_555
Co1D F2D 1_555 1_555
Co1D F2T 1_555 1_555
Co1H F2H 1_555 1_555
Co1H F2L 1_555 1_555
F2H Co1P 1_555 1_555
Co1L F1L 1_555 1_555
Co1L F2L 1_555 1_555
C1L N2L 1_555 1_555
C5L N2L 1_555 1_555
C6L N1L 1_555 1_555
C10L N1L 1_555 1_555
C5S N2S 1_555 1_555
C11S N3S 1_555 1_555
C3V C11V 1_555 1_555
C5V N2V 1_555 1_555
C11V N3V 1_555 1_555
C10Q N1Q 1_555 1_555
C12Q N4Q 1_555 1_555
C8W C12W 1_555 1_555
C10W N1W 1_555 1_555
C12W N4W 1_555 1_555
Co1P F1P 1_555 1_555
Co1P F2P 1_555 1_555
Co1T F1T 1_555 1_555
Co1T F2T 1_555 1_555

#END
