
#######################################################################
#
#                 Cambridge Crystallographic Data Centre
#                                CCDC 
#
#######################################################################
#
# If this CIF has been generated from an entry in the Cambridge 
# Structural Database, then it will include bibliographic, chemical, 
# crystal, experimental, refinement or atomic coordinate data resulting 
# from the CCDC's data processing and validation procedures.
#
#######################################################################

data_WOWHAR
_chemical_formula_moiety         '(C40 H32 Co8 N16 O54 V12)n'
_symmetry_cell_setting           tetragonal
_symmetry_space_group_name_H-M   'I 4'
_symmetry_Int_Tables_number      79
_space_group_name_Hall           'I 4'
loop_
_symmetry_equiv_pos_site_id
_symmetry_equiv_pos_as_xyz
1 x,y,z
2 -x,-y,z
3 -y,x,z
4 y,-x,z
5 1/2+x,1/2+y,1/2+z
6 1/2-x,1/2-y,1/2+z
7 1/2-y,1/2+x,1/2+z
8 1/2+y,1/2-x,1/2+z
_cell_length_a                   17.6831(7)
_cell_length_b                   17.6831(7)
_cell_length_c                   12.4616(7)
_cell_angle_alpha                90
_cell_angle_beta                 90
_cell_angle_gamma                90
_cell_volume                     3896.64
loop_
_atom_site_label
_atom_site_type_symbol
_atom_site_fract_x
_atom_site_fract_y
_atom_site_fract_z
Co1 Co -0.00144(4) 0.23126(4) 0.20986(7)
Co2 Co -0.16568(4) 0.16692(4) -0.29341(7)
V1 V 0.14474(5) 0.35295(5) 0.10519(7)
V2 V -0.14883(5) 0.35231(5) 0.32588(8)
V3 V 0.09490(6) 0.52865(5) 0.15006(9)
N1 N -0.0552(2) 0.2329(2) 0.0559(3)
N2 N -0.1213(3) 0.1977(3) -0.1414(4)
N3 N 0.1271(2) 0.2020(2) 0.5552(4)
N4 N 0.0546(3) 0.2209(3) 0.3592(4)
C1 C -0.0413(3) 0.2736(3) -0.0321(5)
C2 C -0.0734(3) 0.2564(3) -0.1300(5)
C3 C -0.1367(3) 0.1568(3) -0.0527(5)
C4 C -0.1035(3) 0.1737(3) 0.0444(4)
C5 C -0.1168(3) 0.1265(3) 0.1437(5)
C6 C 0.1659(3) 0.2212(3) 0.4680(5)
C7 C 0.1302(3) 0.2308(3) 0.3693(5)
C8 C 0.0166(3) 0.2029(3) 0.4483(5)
C9 C 0.0521(3) 0.1932(3) 0.5451(4)
C10 C 0.0101(3) 0.1723(3) 0.6481(5)
O1 O -0.0772(2) 0.1409(2) 0.2249(3)
O2 O -0.1671(2) 0.0776(2) 0.1331(4)
O3 O 0.0493(2) 0.1610(2) 0.7295(3)
O4 O -0.0600(2) 0.1700(2) 0.6386(3)
O5 O 0.0668(2) 0.3241(2) 0.1651(3)
O6 O -0.1832(2) 0.2808(2) -0.3356(3)
O7 O 0.1537(2) 0.4537(2) 0.1135(4)
O8 O 0.1434(2) 0.3299(2) -0.0340(4)
O9 O -0.2738(3) 0.1717(2) -0.2357(3)
O10 O -0.0805(2) 0.2933(2) 0.2949(3)
O11 O -0.1199(3) 0.4459(3) 0.2809(4)
O12 O 0.1119(3) 0.5967(3) 0.0700(4)
O13 O 0.0000 0.5000 0.1383(6)
H1 H -0.0084(34) 0.3151(35) -0.0258(60)
H2 H -0.0694(39) 0.2850(41) -0.1964(60)
H3 H -0.1760(51) 0.1109(49) -0.0663(76)
H4 H 0.2277(30) 0.2154(28) 0.4826(47)
H5 H 0.1583(35) 0.2419(35) 0.3108(53)
H6 H -0.0304(34) 0.1956(31) 0.4489(49)
N1C N 0.2329(2) 0.0552(2) 0.0559(3)
N2C N 0.1977(3) 0.1213(3) -0.1414(4)
C1C C 0.2736(3) 0.0413(3) -0.0321(5)
C2C C 0.2564(3) 0.0734(3) -0.1300(5)
C3C C 0.1568(3) 0.1367(3) -0.0527(5)
C4C C 0.1737(3) 0.1035(3) 0.0444(4)
C5C C 0.1265(3) 0.1168(3) 0.1437(5)
O1C O 0.1409(2) 0.0772(2) 0.2249(3)
O2C O 0.0776(2) 0.1671(2) 0.1331(4)
H1C H 0.3151(35) 0.0084(34) -0.0258(60)
H2C H 0.2850(41) 0.0694(39) -0.1964(60)
H3C H 0.1109(49) 0.1760(51) -0.0663(76)
Co1C Co 0.23126(4) 0.00144(4) 0.20986(7)
Co1B Co -0.23126(4) -0.00144(4) 0.20986(7)
Co2C Co 0.16692(4) 0.16568(4) -0.29341(7)
Co2C_2 Co 0.16692(4) 0.16568(4) 0.70659(7)
Co2_2 Co -0.16568(4) 0.16692(4) 0.70659(7)
N3B N -0.2020(2) 0.1271(2) -0.4448(4)
N4B N -0.2209(3) 0.0546(3) -0.6408(4)
C6B C -0.2212(3) 0.1659(3) -0.5320(5)
C7B C -0.2308(3) 0.1302(3) -0.6307(5)
C8B C -0.2029(3) 0.0166(3) -0.5517(5)
C9B C -0.1932(3) 0.0521(3) -0.4549(4)
C10B C -0.1723(3) 0.0101(3) -0.3519(5)
O3B O -0.1610(2) 0.0493(2) -0.2705(3)
O4B O -0.1700(2) -0.0600(2) -0.3614(3)
H4B H -0.2154(28) 0.2277(30) -0.5174(47)
H5B H -0.2419(35) 0.1583(35) -0.6892(53)
H6B H -0.1956(31) -0.0304(34) -0.5511(49)
N3_2 N 0.1271(2) 0.2020(2) -0.4448(4)
N4_2 N 0.0546(3) 0.2209(3) -0.6408(4)
C6_2 C 0.1659(3) 0.2212(3) -0.5320(5)
C7_2 C 0.1302(3) 0.2308(3) -0.6307(5)
C8_2 C 0.0166(3) 0.2029(3) -0.5517(5)
C9_2 C 0.0521(3) 0.1932(3) -0.4549(4)
C10_2 C 0.0101(3) 0.1723(3) -0.3519(5)
O3_2 O 0.0493(2) 0.1610(2) -0.2705(3)
O4_2 O -0.0600(2) 0.1700(2) -0.3614(3)
H4_2 H 0.2277(30) 0.2154(28) -0.5174(47)
H5_2 H 0.1583(35) 0.2419(35) -0.6892(53)
H6_2 H -0.0304(34) 0.1956(31) -0.5511(49)
O6F O 0.2192(2) 0.3168(2) 0.1644(3)
O8G O -0.1701(2) 0.3566(2) 0.4660(4)
O9E O -0.2262(3) 0.3283(2) 0.2643(3)
N3C N 0.2020(2) -0.1271(2) 0.5552(4)
N4C N 0.2209(3) -0.0546(3) 0.3592(4)
C6C C 0.2212(3) -0.1659(3) 0.4680(5)
C7C C 0.2308(3) -0.1302(3) 0.3693(5)
C8C C 0.2029(3) -0.0166(3) 0.4483(5)
C9C C 0.1932(3) -0.0521(3) 0.5451(4)
C10C C 0.1723(3) -0.0101(3) 0.6481(5)
O3C O 0.1610(2) -0.0493(2) 0.7295(3)
O4C O 0.1700(2) 0.0600(2) 0.6386(3)
H4C H 0.2154(28) -0.2277(30) 0.4826(47)
H5C H 0.2419(35) -0.1583(35) 0.3108(53)
H6C H 0.1956(31) 0.0304(34) 0.4489(49)
N1A N 0.0552(2) -0.2329(2) 0.0559(3)
N2A N 0.1213(3) -0.1977(3) -0.1414(4)
C1A C 0.0413(3) -0.2736(3) -0.0321(5)
C2A C 0.0734(3) -0.2564(3) -0.1300(5)
C3A C 0.1367(3) -0.1568(3) -0.0527(5)
C4A C 0.1035(3) -0.1737(3) 0.0444(4)
C5A C 0.1168(3) -0.1265(3) 0.1437(5)
O1A O 0.0772(2) -0.1409(2) 0.2249(3)
O2A O 0.1671(2) -0.0776(2) 0.1331(4)
H1A H 0.0084(34) -0.3151(35) -0.0258(60)
H2A H 0.0694(39) -0.2850(41) -0.1964(60)
H3A H 0.1760(51) -0.1109(49) -0.0663(76)
O5C O 0.3241(2) -0.0668(2) 0.1651(3)
O10C O 0.2933(2) 0.0805(2) 0.2949(3)
N1B N -0.2329(2) -0.0552(2) 0.0559(3)
N2B N -0.1977(3) -0.1213(3) -0.1414(4)
C1B C -0.2736(3) -0.0413(3) -0.0321(5)
C2B C -0.2564(3) -0.0734(3) -0.1300(5)
C3B C -0.1568(3) -0.1367(3) -0.0527(5)
C4B C -0.1737(3) -0.1035(3) 0.0444(4)
C5B C -0.1265(3) -0.1168(3) 0.1437(5)
O1B O -0.1409(2) -0.0772(2) 0.2249(3)
O2B O -0.0776(2) -0.1671(2) 0.1331(4)
H1B H -0.3151(35) -0.0084(34) -0.0258(60)
H2B H -0.2850(41) -0.0694(39) -0.1964(60)
H3B H -0.1109(49) -0.1760(51) -0.0663(76)
O5B O -0.3241(2) 0.0668(2) 0.1651(3)
O10B O -0.2933(2) -0.0805(2) 0.2949(3)
O6C O 0.2808(2) 0.1832(2) -0.3356(3)
O9C O 0.1717(2) 0.2738(3) -0.2357(3)
Co1A Co 0.00144(4) -0.23126(4) 0.20986(7)
V1C V 0.35295(5) -0.14474(5) 0.10519(7)
V1B V -0.35295(5) 0.14474(5) 0.10519(7)
V1G V -0.14705(5) 0.35526(5) -0.39481(7)
V2F V 0.14769(5) 0.35117(5) -0.17412(8)
V2E V -0.35117(5) 0.14769(5) -0.17412(8)
V2C V 0.35231(5) 0.14883(5) 0.32588(8)
V3A V -0.09490(6) 0.47135(5) 0.15006(9)
O11A O 0.1199(3) 0.5541(3) 0.2809(4)
O5A O -0.0668(2) -0.3241(2) 0.1651(3)
O10A O 0.0805(2) -0.2933(2) 0.2949(3)
O6D O 0.3168(2) -0.2192(2) 0.1644(3)
O7C O 0.4537(2) -0.1537(2) 0.1135(4)
O8C O 0.3299(2) -0.1434(2) -0.0340(4)
O7B O -0.4537(2) 0.1537(2) 0.1135(4)
O8B O -0.3299(2) 0.1434(2) -0.0340(4)
O9F O 0.3283(2) 0.2262(3) 0.2643(3)
O11C O 0.4459(3) 0.1199(3) 0.2809(4)
O7A O -0.1537(2) 0.5463(2) 0.1135(4)
O12A O -0.1119(3) 0.4033(3) 0.0700(4)
V3C V 0.52865(5) -0.09490(6) 0.15006(9)
V3B V -0.52865(5) 0.09490(6) 0.15006(9)
O11B O 0.5541(3) -0.1199(3) 0.2809(4)
O12C O 0.5967(3) -0.1119(3) 0.0700(4)
O13C O 0.5000 0.0000 0.1383(6)
O12B O -0.5967(3) 0.1119(3) 0.0700(4)
N4B_2 N -0.2209(3) 0.0546(3) 0.3592(4)
O4C_2 O 0.1700(2) 0.0600(2) -0.3614(3)
N2C_2 N 0.1977(3) 0.1213(3) 0.8586(4)
O6C_2 O 0.2808(2) 0.1832(2) 0.6644(3)
O9C_2 O 0.1717(2) 0.2738(3) 0.7643(3)
N2_2 N -0.1213(3) 0.1977(3) 0.8586(4)
N3B_2 N -0.2020(2) 0.1271(2) 0.5552(4)
O3B_2 O -0.1610(2) 0.0493(2) 0.7295(3)
O6_2 O -0.1832(2) 0.2808(2) 0.6644(3)
O9_2 O -0.2738(3) 0.1717(2) 0.7643(3)
Co1B_2 Co -0.23126(4) -0.00144(4) -0.79014(7)
Co2B Co -0.16692(4) -0.16568(4) -0.29341(7)
Co1_2 Co -0.00144(4) 0.23126(4) -0.79014(7)
Co2F Co 0.33308(4) 0.33432(4) 0.20659(7)
V1G_2 V -0.14705(5) 0.35526(5) 0.60519(7)
Co2E Co -0.33432(4) 0.33308(4) 0.20659(7)
Co2A Co 0.16568(4) -0.16692(4) 0.70659(7)
Co2A_2 Co 0.16568(4) -0.16692(4) -0.29341(7)
V2B V -0.35231(5) -0.14883(5) 0.32588(8)
V1E V 0.35526(5) 0.14705(5) -0.39481(7)
N4A N -0.0546(3) -0.2209(3) 0.3592(4)
O6E O -0.3168(2) 0.2192(2) 0.1644(3)
O5G O -0.1759(2) 0.4332(2) -0.3349(3)
O7G O -0.0463(2) 0.3463(2) -0.3865(4)
O8G_2 O -0.1701(2) 0.3566(2) -0.5340(4)
O10F O 0.2067(2) 0.4195(2) -0.2051(3)
O11F O 0.0541(3) 0.3801(3) -0.2191(4)
O10E O -0.4195(2) 0.2067(2) -0.2051(3)
O11E O -0.3801(3) 0.0541(3) -0.2191(4)
O8E O 0.3566(2) 0.1701(2) 0.4660(4)
V2A V 0.14883(5) 0.64769(5) 0.32588(8)
V1A V -0.14474(5) -0.35295(5) 0.10519(7)
V2A_2 V 0.14883(5) -0.35231(5) 0.32588(8)
Co2D Co 0.33432(4) -0.33308(4) 0.20659(7)
V2D V 0.35117(5) -0.14769(5) -0.17412(8)
V3B_2 V 0.47135(5) 0.09490(6) 0.15006(9)
V1A_2 V -0.14474(5) 0.64705(5) 0.10519(7)
O11C_2 O -0.5541(3) 0.1199(3) 0.2809(4)
O13B O -0.5000 0.0000 0.1383(6)
V2B_2 V 0.64769(5) -0.14883(5) 0.32588(8)
O14 O 0.5000 0.5000 0.0714(26)
O15 O 0.0000 0.0000 0.0571(29)
O16 O 0.0000 0.0000 0.3562(30)
O17 O 0.5000 0.5000 0.3552(43)
loop_
_geom_bond_atom_site_label_1
_geom_bond_atom_site_label_2
_geom_bond_site_symmetry_1
_geom_bond_site_symmetry_2
Co1 N1 1_555 1_555
Co2 N2 1_555 1_555
V1 O5 1_555 1_555
V2 O10 1_555 1_555
V3 O7 1_555 1_555
N1 C1 1_555 1_555
N2 C2 1_555 1_555
N3 C6 1_555 1_555
N4 Co1 1_555 1_555
C1 C2 1_555 1_555
C2 H2 1_555 1_555
C3 N2 1_555 1_555
C4 N1 1_555 1_555
C5 C4 1_555 1_555
C6 C7 1_555 1_555
C7 N4 1_555 1_555
C8 N4 1_555 1_555
C9 N3 1_555 1_555
C10 C9 1_555 1_555
O1 Co1 1_555 1_555
O2 C5 1_555 1_555
O3 C10 1_555 1_555
O4 C10 1_555 1_555
O5 Co1 1_555 1_555
O6 Co2 1_555 1_555
O7 V1 1_555 1_555
O8 V1 1_555 1_555
O9 Co2 1_555 1_555
O10 Co1 1_555 1_555
O11 V2 1_555 1_555
O12 V3 1_555 1_555
O13 V3 1_555 1_555
H1 C1 1_555 1_555
H3 C3 1_555 1_555
H4 C6 1_555 1_555
H5 C7 1_555 1_555
H6 C8 1_555 1_555
N1C C1C 1_555 1_555
N2C C2C 1_555 1_555
C1C C2C 1_555 1_555
C2C H2C 1_555 1_555
C3C N2C 1_555 1_555
C4C N1C 1_555 1_555
C5C C4C 1_555 1_555
O1C C5C 1_555 1_555
O2C Co1 1_555 1_555
H1C C1C 1_555 1_555
H3C C3C 1_555 1_555
Co1C N1C 1_555 1_555
Co1B O2 1_555 1_555
Co2C N2C 1_555 1_555
Co2C_2 N3 1_555 1_555
Co2_2 O4 1_555 1_555
N3B Co2 1_555 1_555
N4B C7B 1_555 1_555
C6B N3B 1_555 1_555
C7B C6B 1_555 1_555
C8B N4B 1_555 1_555
C9B N3B 1_555 1_555
C10B C9B 1_555 1_555
O3B Co2 1_555 1_555
O4B C10B 1_555 1_555
H4B C6B 1_555 1_555
H5B C7B 1_555 1_555
H6B C8B 1_555 1_555
N3_2 Co2C 1_555 1_555
N4_2 C7_2 1_555 1_555
C6_2 N3_2 1_555 1_555
C7_2 C6_2 1_555 1_555
C8_2 N4_2 1_555 1_555
C9_2 N3_2 1_555 1_555
C10_2 C9_2 1_555 1_555
O3_2 Co2C 1_555 1_555
O4_2 Co2 1_555 1_555
H4_2 C6_2 1_555 1_555
H5_2 C7_2 1_555 1_555
H6_2 C8_2 1_555 1_555
O6F V1 1_555 1_555
O8G V2 1_555 1_555
O9E V2 1_555 1_555
N3C C6C 1_555 1_555
N4C Co1C 1_555 1_555
C6C C7C 1_555 1_555
C7C N4C 1_555 1_555
C8C N4C 1_555 1_555
C9C N3C 1_555 1_555
C10C C9C 1_555 1_555
O3C C10C 1_555 1_555
O4C Co2C_2 1_555 1_555
H4C C6C 1_555 1_555
H5C C7C 1_555 1_555
H6C C8C 1_555 1_555
N1A C1A 1_555 1_555
N2A C2A 1_555 1_555
C1A C2A 1_555 1_555
C2A H2A 1_555 1_555
C3A N2A 1_555 1_555
C4A N1A 1_555 1_555
C5A C4A 1_555 1_555
O1A C5A 1_555 1_555
O2A Co1C 1_555 1_555
H1A C1A 1_555 1_555
H3A C3A 1_555 1_555
O5C Co1C 1_555 1_555
O10C Co1C 1_555 1_555
N1B Co1B 1_555 1_555
N2B C2B 1_555 1_555
C1B N1B 1_555 1_555
C2B C1B 1_555 1_555
C3B N2B 1_555 1_555
C4B N1B 1_555 1_555
C5B C4B 1_555 1_555
O1B Co1B 1_555 1_555
O2B C5B 1_555 1_555
H1B C1B 1_555 1_555
H2B C2B 1_555 1_555
H3B C3B 1_555 1_555
O5B Co1B 1_555 1_555
O10B Co1B 1_555 1_555
O6C Co2C 1_555 1_555
O9C Co2C 1_555 1_555
Co1A N1A 1_555 1_555
V1C O5C 1_555 1_555
V1B O5B 1_555 1_555
V1G O6 1_555 1_555
V2F O8 1_555 1_555
V2E O9 1_555 1_555
V2C O10C 1_555 1_555
V3A O11 1_555 1_555
O11A V3 1_555 1_555
O5A Co1A 1_555 1_555
O10A Co1A 1_555 1_555
O6D V1C 1_555 1_555
O7C V1C 1_555 1_555
O8C V1C 1_555 1_555
O7B V1B 1_555 1_555
O8B V1B 1_555 1_555
O9F V2C 1_555 1_555
O11C V2C 1_555 1_555
O7A V3A 1_555 1_555
O12A V3A 1_555 1_555
V3C O7C 1_555 1_555
V3B O7B 1_555 1_555
O11B V3C 1_555 1_555
O12C V3C 1_555 1_555
O13C V3C 1_555 1_555
O12B V3B 1_555 1_555
N4B_2 Co1B 1_555 1_555
O4C_2 Co2C 1_555 1_555
N2C_2 Co2C_2 1_555 1_555
O6C_2 Co2C_2 1_555 1_555
O9C_2 Co2C_2 1_555 1_555
N2_2 Co2_2 1_555 1_555
N3B_2 Co2_2 1_555 1_555
O3B_2 Co2_2 1_555 1_555
O6_2 Co2_2 1_555 1_555
O9_2 Co2_2 1_555 1_555
Co1B_2 N4B 1_555 1_555
Co2B O4B 1_555 1_555
Co1_2 N4_2 1_555 1_555
Co2F O6F 1_555 1_555
V1G_2 O8G 1_555 1_555
Co2E O9E 1_555 1_555
Co2A N3C 1_555 1_555
Co2A_2 N2A 1_555 1_555
V2B O10B 1_555 1_555
V1E O6C 1_555 1_555
N4A Co1A 1_555 1_555
O6E V1B 1_555 1_555
O5G V1G 1_555 1_555
O7G V1G 1_555 1_555
O8G_2 V1G 1_555 1_555
O10F V2F 1_555 1_555
O11F V2F 1_555 1_555
O10E V2E 1_555 1_555
O11E V2E 1_555 1_555
O8E V2C 1_555 1_555
V2A O11A 1_555 1_555
V1A O5A 1_555 1_555
V2A_2 O10A 1_555 1_555
Co2D O6D 1_555 1_555
V2D O8C 1_555 1_555
V3B_2 O11C 1_555 1_555
V1A_2 O7A 1_555 1_555
O11C_2 V3B 1_555 1_555
O13B V3B 1_555 1_555
V2B_2 O11B 1_555 1_555
C3 C4 1_555 1_555
C5 O1 1_555 1_555
C8 C9 1_555 1_555
O3 Co2C_2 1_555 1_555
O13 V3A 1_555 1_555
C3C C4C 1_555 1_555
C5C O2C 1_555 1_555
O1C Co1C 1_555 1_555
C8B C9B 1_555 1_555
C10B O3B 1_555 1_555
C8_2 C9_2 1_555 1_555
C10_2 O3_2 1_555 1_555
C10_2 O4_2 1_555 1_555
C8C C9C 1_555 1_555
C10C O4C 1_555 1_555
O3C Co2A 1_555 1_555
C3A C4A 1_555 1_555
C5A O2A 1_555 1_555
O1A Co1A 1_555 1_555
N2B Co2B 1_555 1_555
C3B C4B 1_555 1_555
C5B O1B 1_555 1_555
O2B Co1A 1_555 1_555
O9C V2F 1_555 1_555
V2E O8B 1_555 1_555
O9F Co2F 1_555 1_555
O13C V3B_2 1_555 1_555
O6_2 V1G_2 1_555 1_555
Co2E O6E 1_555 1_555

#END
