
#######################################################################
#
#                 Cambridge Crystallographic Data Centre
#                                CCDC 
#
#######################################################################
#
# If this CIF has been generated from an entry in the Cambridge 
# Structural Database, then it will include bibliographic, chemical, 
# crystal, experimental, refinement or atomic coordinate data resulting 
# from the CCDC's data processing and validation procedures.
#
#######################################################################

data_WOWHEV
_chemical_formula_moiety         '(C40 H32 N16 Ni8 O54 V12)n'
_symmetry_cell_setting           tetragonal
_symmetry_space_group_name_H-M   'I 4'
_symmetry_Int_Tables_number      79
_space_group_name_Hall           'I 4'
loop_
_symmetry_equiv_pos_site_id
_symmetry_equiv_pos_as_xyz
1 x,y,z
2 -x,-y,z
3 -y,x,z
4 y,-x,z
5 1/2+x,1/2+y,1/2+z
6 1/2-x,1/2-y,1/2+z
7 1/2-y,1/2+x,1/2+z
8 1/2+y,1/2-x,1/2+z
_cell_length_a                   17.6714(10)
_cell_length_b                   17.6714(10)
_cell_length_c                   12.2679(9)
_cell_angle_alpha                90
_cell_angle_beta                 90
_cell_angle_gamma                90
_cell_volume                     3831
loop_
_atom_site_label
_atom_site_type_symbol
_atom_site_fract_x
_atom_site_fract_y
_atom_site_fract_z
Ni1 Ni 0.83492(6) 0.83265(6) 0.87832(13)
Ni2 Ni 0.76995(6) 1.00128(6) 1.37466(13)
V1 V 0.85169(10) 0.64478(9) 0.98219(14)
V2 V 0.64931(10) 0.85165(10) 0.76437(15)
V3 V 1.02810(11) 0.59454(11) 0.9410(2)
N1 N 0.8014(4) 0.8727(4) 1.0287(7)
N2 N 0.7806(5) 0.9464(5) 1.2266(7)
N3 N 0.9451(4) 0.7683(5) 0.5285(7)
N4 N 0.8784(5) 0.8024(5) 0.7275(7)
C1 C 0.7807(5) 0.8343(5) 1.1191(9)
H1 H 0.7729(5) 0.7823(5) 1.1152(9)
C2 C 0.7709(6) 0.8711(6) 1.2168(8)
H2 H 0.7573(6) 0.8432(6) 1.2780(8)
C3 C 0.7984(6) 0.9835(6) 1.1360(9)
H3 H 0.8041(6) 1.0358(6) 1.1384(9)
C4 C 0.8083(5) 0.9464(6) 1.0395(9)
C5 C 0.8289(6) 0.9883(6) 0.9342(8)
C6 C 0.9603(5) 0.7270(6) 0.6158(9)
H4 H 0.9936(5) 0.6864(6) 0.6107(9)
C7 C 0.9265(6) 0.7442(6) 0.7151(10)
H5 H 0.9377(6) 0.7143(6) 0.7754(10)
C8 C 0.8634(6) 0.8436(6) 0.6388(8)
H6 H 0.8296(6) 0.8838(6) 0.6439(8)
C9 C 0.8976(6) 0.8275(6) 0.5378(9)
C10 C 0.8851(6) 0.8737(6) 0.4395(9)
O1 O 0.8401(4) 0.9484(4) 0.8506(5)
O2 O 0.8317(4) 1.0588(4) 0.9424(6)
O3 O 0.9245(4) 0.8598(4) 0.3553(6)
O4 O 0.8345(4) 0.9232(4) 0.4510(6)
O5 O 0.8186(4) 0.7201(4) 0.9221(6)
O6 O 0.6788(4) 0.9332(4) 1.4217(6)
O7 O 0.9519(4) 0.6515(4) 0.9761(8)
O8 O 0.8272(4) 0.6439(4) 1.1222(7)
O9 O 0.7258(4) 0.8261(5) 0.8269(6)
O10 O 0.7059(4) 1.0793(5) 1.2962(6)
O11 O 0.6221(6) 0.9455(5) 0.8092(8)
O12 O 1.0950(6) 0.6114(5) 1.0226(8)
O13 O 1.0000 0.5000 0.9504(15)
N1B N 1.1273(4) 0.8014(4) 1.0287(7)
N2B N 1.0536(5) 0.7806(5) 1.2266(7)
C1B C 1.1657(5) 0.7807(5) 1.1191(9)
H1B H 1.2177(5) 0.7729(5) 1.1152(9)
C2B C 1.1289(6) 0.7709(6) 1.2168(8)
H2B H 1.1568(6) 0.7573(6) 1.2780(8)
C3B C 1.0165(6) 0.7984(6) 1.1360(9)
H3B H 0.9642(6) 0.8041(6) 1.1384(9)
C4B C 1.0536(6) 0.8083(5) 1.0395(9)
C5B C 1.0117(6) 0.8289(6) 0.9342(8)
O1B O 1.0516(4) 0.8401(4) 0.8506(5)
O2B O 0.9412(4) 0.8317(4) 0.9424(6)
Ni1B Ni 1.16735(6) 0.83492(6) 0.87832(13)
Ni1C Ni 0.83265(6) 1.16508(6) 0.87832(13)
Ni2B Ni 0.99872(6) 0.76995(6) 1.37466(13)
Ni2B_2 Ni 0.99872(6) 0.76995(6) 0.37466(13)
Ni2_2 Ni 0.76995(6) 1.00128(6) 0.37466(13)
N3C N 0.7683(5) 1.0549(4) 1.5285(7)
N4C N 0.8024(5) 1.1216(5) 1.7275(7)
C6C C 0.7270(6) 1.0397(5) 1.6158(9)
H4C H 0.6864(6) 1.0064(5) 1.6107(9)
C7C C 0.7442(6) 1.0735(6) 1.7151(10)
H5C H 0.7143(6) 1.0623(6) 1.7754(10)
C8C C 0.8436(6) 1.1366(6) 1.6388(8)
H6C H 0.8838(6) 1.1704(6) 1.6439(8)
C9C C 0.8275(6) 1.1024(6) 1.5378(9)
C10C C 0.8737(6) 1.1149(6) 1.4395(9)
O3C O 0.8598(4) 1.0755(4) 1.3553(6)
O4C O 0.9232(4) 1.1655(4) 1.4510(6)
N3_2 N 0.9451(4) 0.7683(5) 1.5285(7)
N4_2 N 0.8784(5) 0.8024(5) 1.7275(7)
C6_2 C 0.9603(5) 0.7270(6) 1.6158(9)
H4_2 H 0.9936(5) 0.6864(6) 1.6107(9)
C7_2 C 0.9265(6) 0.7442(6) 1.7151(10)
H5_2 H 0.9377(6) 0.7143(6) 1.7754(10)
C8_2 C 0.8634(6) 0.8436(6) 1.6388(8)
H6_2 H 0.8296(6) 0.8838(6) 1.6439(8)
C9_2 C 0.8976(6) 0.8275(6) 1.5378(9)
C10_2 C 0.8851(6) 0.8737(6) 1.4395(9)
O3_2 O 0.9245(4) 0.8598(4) 1.3553(6)
O4_2 O 0.8345(4) 0.9232(4) 1.4510(6)
O6E O 0.8212(4) 0.5668(4) 0.9217(6)
O8E O 0.6728(4) 0.8561(4) 0.6222(7)
O10G O 0.5793(5) 0.7941(4) 0.7962(6)
N3B N 1.2317(5) 0.9451(4) 0.5285(7)
N4B N 1.1976(5) 0.8784(5) 0.7275(7)
C6B C 1.2730(6) 0.9603(5) 0.6158(9)
H4B H 1.3136(6) 0.9936(5) 0.6107(9)
C7B C 1.2558(6) 0.9265(6) 0.7151(10)
H5B H 1.2857(6) 0.9377(6) 0.7754(10)
C8B C 1.1564(6) 0.8634(6) 0.6388(8)
H6B H 1.1162(6) 0.8296(6) 0.6439(8)
C9B C 1.1725(6) 0.8976(6) 0.5378(9)
C10B C 1.1263(6) 0.8851(6) 0.4395(9)
O3B O 1.1402(4) 0.9245(4) 0.3553(6)
O4B O 1.0768(4) 0.8345(4) 0.4510(6)
N1A N 1.1986(4) 1.1273(4) 1.0287(7)
N2A N 1.2194(5) 1.0536(5) 1.2266(7)
C1A C 1.2193(5) 1.1657(5) 1.1191(9)
H1A H 1.2271(5) 1.2177(5) 1.1152(9)
C2A C 1.2291(6) 1.1289(6) 1.2168(8)
H2A H 1.2427(6) 1.1568(6) 1.2780(8)
C3A C 1.2016(6) 1.0165(6) 1.1360(9)
H3A H 1.1959(6) 0.9642(6) 1.1384(9)
C4A C 1.1917(5) 1.0536(6) 1.0395(9)
C5A C 1.1711(6) 1.0117(6) 0.9342(8)
O1A O 1.1599(4) 1.0516(4) 0.8506(5)
O2A O 1.1683(4) 0.9412(4) 0.9424(6)
O5B O 1.2799(4) 0.8186(4) 0.9221(6)
O9B O 1.1739(5) 0.7258(4) 0.8269(6)
N1C N 0.8727(4) 1.1986(4) 1.0287(7)
N2C N 0.9464(5) 1.2194(5) 1.2266(7)
C1C C 0.8343(5) 1.2193(5) 1.1191(9)
H1C H 0.7823(5) 1.2271(5) 1.1152(9)
C2C C 0.8711(6) 1.2291(6) 1.2168(8)
H2C H 0.8432(6) 1.2427(6) 1.2780(8)
C3C C 0.9835(6) 1.2016(6) 1.1360(9)
H3C H 1.0358(6) 1.1959(6) 1.1384(9)
C4C C 0.9464(6) 1.1917(5) 1.0395(9)
C5C C 0.9883(6) 1.1711(6) 0.9342(8)
O1C O 0.9484(4) 1.1599(4) 0.8506(5)
O2C O 1.0588(4) 1.1683(4) 0.9424(6)
O5C O 0.7201(4) 1.1814(4) 0.9221(6)
O9C O 0.8261(5) 1.2742(4) 0.8269(6)
O6B O 1.0668(4) 0.6788(4) 1.4217(6)
O10B O 0.9207(5) 0.7059(4) 1.2962(6)
Ni1A Ni 1.16508(6) 1.16735(6) 0.87832(13)
V1B V 1.35522(9) 0.85169(10) 0.98219(14)
V1C V 0.64478(9) 1.14831(10) 0.98219(14)
V1E V 0.64831(10) 0.85522(9) 1.48219(14)
V2E V 0.85069(10) 0.64835(10) 1.26437(15)
V2B V 1.14835(10) 0.64931(10) 0.76437(15)
V2C V 0.85165(10) 1.35069(10) 0.76437(15)
V3C V 0.59454(11) 0.97190(11) 0.9410(2)
O11B O 1.0545(5) 0.6221(6) 0.8092(8)
O5A O 1.1814(4) 1.2799(4) 0.9221(6)
O9A O 1.2742(4) 1.1739(5) 0.8269(6)
O6G O 1.4332(4) 0.8212(4) 0.9217(6)
O7B O 1.3485(4) 0.9519(4) 0.9761(8)
O8B O 1.3561(4) 0.8272(4) 1.1222(7)
O7C O 0.6515(4) 1.0481(4) 0.9761(8)
O8C O 0.6439(4) 1.1728(4) 1.1222(7)
O10D O 1.2059(4) 0.5793(5) 0.7962(6)
O11C O 0.9455(5) 1.3779(6) 0.8092(8)
O12C O 0.6114(5) 0.9050(6) 1.0226(8)
O13C O 0.5000 1.0000 0.9504(15)
V3B V 1.40546(11) 1.02810(11) 0.9410(2)
V3A V 0.97190(11) 1.40546(11) 0.9410(2)
O11A O 1.3779(6) 1.0545(5) 0.8092(8)
O12B O 1.3886(5) 1.0950(6) 1.0226(8)
O7A O 1.0481(4) 1.3485(4) 0.9761(8)
O12A O 0.9050(6) 1.3886(5) 1.0226(8)
V2F V 0.64835(10) 1.14931(10) 1.26437(15)
V3A_2 V 0.97190(11) 0.40546(11) 0.9410(2)
N4C_2 N 0.8024(5) 1.1216(5) 0.7275(7)
O4B_2 O 1.0768(4) 0.8345(4) 1.4510(6)
N2B_2 N 1.0536(5) 0.7806(5) 0.2266(7)
O6B_2 O 1.0668(4) 0.6788(4) 0.4217(6)
O10B_2 O 0.9207(5) 0.7059(4) 0.2962(6)
N2_2 N 0.7806(5) 0.9464(5) 0.2266(7)
N3C_2 N 0.7683(5) 1.0549(4) 0.5285(7)
O3C_2 O 0.8598(4) 1.0755(4) 0.3553(6)
O6_2 O 0.6788(4) 0.9332(4) 0.4217(6)
O10_2 O 0.7059(4) 1.0793(5) 0.2962(6)
Ni1C_2 Ni 0.83265(6) 1.16508(6) 1.87832(13)
Ni2C Ni 1.00128(6) 1.23005(6) 1.37466(13)
Ni1_2 Ni 0.83492(6) 0.83265(6) 1.87832(13)
Ni2E Ni 0.73005(6) 0.49872(6) 0.87466(13)
V1E_2 V 0.64831(10) 0.85522(9) 0.48219(14)
Ni2G Ni 0.50128(6) 0.73005(6) 0.87466(13)
Ni2A Ni 1.23005(6) 0.99872(6) 0.37466(13)
Ni2A_2 Ni 1.23005(6) 0.99872(6) 1.37466(13)
V1G V 1.14478(9) 0.64831(10) 1.48219(14)
N4A N 1.1216(5) 1.1976(5) 0.7275(7)
O6F O 0.5668(4) 1.1788(4) 0.9217(6)
O5E O 0.6814(4) 0.7799(4) 1.4221(6)
O7E O 0.5481(4) 0.8485(4) 1.4761(8)
O8E_2 O 0.6728(4) 0.8561(4) 1.6222(7)
O9E O 0.7742(4) 0.6739(5) 1.3269(6)
O11E O 0.8779(6) 0.5545(5) 1.3092(8)
O8G O 1.1439(4) 0.6728(4) 0.6222(7)
O8F O 0.8561(4) 1.3272(4) 0.6222(7)
O10E O 0.7941(4) 1.4207(5) 0.7962(6)
V1A V 1.14831(10) 1.35522(9) 0.98219(14)
V2A V 1.35069(10) 1.14835(10) 0.76437(15)
Ni2G_2 Ni 1.50128(6) 0.73005(6) 0.87466(13)
V2G V 1.35165(10) 0.85069(10) 1.26437(15)
Ni2D Ni 1.26995(6) 0.50128(6) 0.87466(13)
V3B_2 V 0.40546(11) 1.02810(11) 0.9410(2)
O13B O 1.5000 1.0000 0.9504(15)
O13_2 O 1.0000 1.5000 0.9504(15)
O14 O 1.0000 1.0000 0.7330(49)
O15 O 0.5000 0.5000 0.7249(41)
O16 O 1.0000 1.0000 0.5466(71)
O17 O 0.5000 0.5000 0.5180(73)
loop_
_geom_bond_atom_site_label_1
_geom_bond_atom_site_label_2
_geom_bond_site_symmetry_1
_geom_bond_site_symmetry_2
Ni1 N1 1_555 1_555
Ni2 N2 1_555 1_555
V1 O5 1_555 1_555
V2 O9 1_555 1_555
V3 O7 1_555 1_555
N1 C1 1_555 1_555
N2 C2 1_555 1_555
N3 C6 1_555 1_555
N4 Ni1 1_555 1_555
C1 H1 1_555 1_555
C2 C1 1_555 1_555
H2 C2 1_555 1_555
C3 N2 1_555 1_555
H3 C3 1_555 1_555
C4 N1 1_555 1_555
C5 C4 1_555 1_555
C6 H4 1_555 1_555
C7 N4 1_555 1_555
H5 C7 1_555 1_555
C8 N4 1_555 1_555
H6 C8 1_555 1_555
C9 N3 1_555 1_555
C10 C9 1_555 1_555
O1 Ni1 1_555 1_555
O2 C5 1_555 1_555
O3 C10 1_555 1_555
O4 C10 1_555 1_555
O5 Ni1 1_555 1_555
O6 Ni2 1_555 1_555
O7 V1 1_555 1_555
O8 V1 1_555 1_555
O9 Ni1 1_555 1_555
O10 Ni2 1_555 1_555
O11 V2 1_555 1_555
O12 V3 1_555 1_555
O13 V3 1_555 1_555
N1B C1B 1_555 1_555
N2B C2B 1_555 1_555
C1B H1B 1_555 1_555
C2B C1B 1_555 1_555
H2B C2B 1_555 1_555
C3B N2B 1_555 1_555
H3B C3B 1_555 1_555
C4B N1B 1_555 1_555
C5B C4B 1_555 1_555
O1B C5B 1_555 1_555
O2B Ni1 1_555 1_555
Ni1B N1B 1_555 1_555
Ni1C O2 1_555 1_555
Ni2B N2B 1_555 1_555
Ni2B_2 N3 1_555 1_555
Ni2_2 O4 1_555 1_555
N3C Ni2 1_555 1_555
N4C C7C 1_555 1_555
C6C N3C 1_555 1_555
H4C C6C 1_555 1_555
C7C C6C 1_555 1_555
H5C C7C 1_555 1_555
C8C N4C 1_555 1_555
H6C C8C 1_555 1_555
C9C N3C 1_555 1_555
C10C C9C 1_555 1_555
O3C Ni2 1_555 1_555
O4C C10C 1_555 1_555
N3_2 Ni2B 1_555 1_555
N4_2 C7_2 1_555 1_555
C6_2 N3_2 1_555 1_555
H4_2 C6_2 1_555 1_555
C7_2 C6_2 1_555 1_555
H5_2 C7_2 1_555 1_555
C8_2 N4_2 1_555 1_555
H6_2 C8_2 1_555 1_555
C9_2 N3_2 1_555 1_555
C10_2 C9_2 1_555 1_555
O3_2 Ni2B 1_555 1_555
O4_2 Ni2 1_555 1_555
O6E V1 1_555 1_555
O8E V2 1_555 1_555
O10G V2 1_555 1_555
N3B C6B 1_555 1_555
N4B Ni1B 1_555 1_555
C6B H4B 1_555 1_555
C7B N4B 1_555 1_555
H5B C7B 1_555 1_555
C8B N4B 1_555 1_555
H6B C8B 1_555 1_555
C9B N3B 1_555 1_555
C10B C9B 1_555 1_555
O3B C10B 1_555 1_555
O4B Ni2B_2 1_555 1_555
N1A C1A 1_555 1_555
N2A C2A 1_555 1_555
C1A H1A 1_555 1_555
C2A C1A 1_555 1_555
H2A C2A 1_555 1_555
C3A N2A 1_555 1_555
H3A C3A 1_555 1_555
C4A N1A 1_555 1_555
C5A C4A 1_555 1_555
O1A C5A 1_555 1_555
O2A Ni1B 1_555 1_555
O5B Ni1B 1_555 1_555
O9B Ni1B 1_555 1_555
N1C Ni1C 1_555 1_555
N2C C2C 1_555 1_555
C1C N1C 1_555 1_555
H1C C1C 1_555 1_555
C2C C1C 1_555 1_555
H2C C2C 1_555 1_555
C3C N2C 1_555 1_555
H3C C3C 1_555 1_555
C4C N1C 1_555 1_555
C5C C4C 1_555 1_555
O1C Ni1C 1_555 1_555
O2C C5C 1_555 1_555
O5C Ni1C 1_555 1_555
O9C Ni1C 1_555 1_555
O6B Ni2B 1_555 1_555
O10B Ni2B 1_555 1_555
Ni1A N1A 1_555 1_555
V1B O5B 1_555 1_555
V1C O5C 1_555 1_555
V1E O6 1_555 1_555
V2E O8 1_555 1_555
V2B O9B 1_555 1_555
V2C O9C 1_555 1_555
V3C O11 1_555 1_555
O11B V3 1_555 1_555
O5A Ni1A 1_555 1_555
O9A Ni1A 1_555 1_555
O6G V1B 1_555 1_555
O7B V1B 1_555 1_555
O8B V1B 1_555 1_555
O7C V1C 1_555 1_555
O8C V1C 1_555 1_555
O10D V2B 1_555 1_555
O11C V2C 1_555 1_555
O12C V3C 1_555 1_555
O13C V3C 1_555 1_555
V3B O7B 1_555 1_555
V3A O11C 1_555 1_555
O11A V3B 1_555 1_555
O12B V3B 1_555 1_555
O7A V3A 1_555 1_555
O12A V3A 1_555 1_555
V2F O10 1_555 1_555
V3A_2 O13 1_555 1_555
N4C_2 Ni1C 1_555 1_555
O4B_2 Ni2B 1_555 1_555
N2B_2 Ni2B_2 1_555 1_555
O6B_2 Ni2B_2 1_555 1_555
O10B_2 Ni2B_2 1_555 1_555
N2_2 Ni2_2 1_555 1_555
N3C_2 Ni2_2 1_555 1_555
O3C_2 Ni2_2 1_555 1_555
O6_2 Ni2_2 1_555 1_555
O10_2 Ni2_2 1_555 1_555
Ni1C_2 N4C 1_555 1_555
Ni2C O4C 1_555 1_555
Ni1_2 N4_2 1_555 1_555
Ni2E O6E 1_555 1_555
V1E_2 O8E 1_555 1_555
Ni2G O10G 1_555 1_555
Ni2A N3B 1_555 1_555
Ni2A_2 N2A 1_555 1_555
V1G O6B 1_555 1_555
N4A Ni1A 1_555 1_555
O6F V1C 1_555 1_555
O5E V1E 1_555 1_555
O7E V1E 1_555 1_555
O8E_2 V1E 1_555 1_555
O9E V2E 1_555 1_555
O11E V2E 1_555 1_555
O8G V2B 1_555 1_555
O8F V2C 1_555 1_555
O10E V2C 1_555 1_555
V1A O5A 1_555 1_555
V2A O9A 1_555 1_555
Ni2G_2 O6G 1_555 1_555
V2G O8B 1_555 1_555
Ni2D O10D 1_555 1_555
V3B_2 O13C 1_555 1_555
O13B V3B 1_555 1_555
O13_2 V3A 1_555 1_555
C3 C4 1_555 1_555
C5 O1 1_555 1_555
C6 C7 1_555 1_555
C8 C9 1_555 1_555
O3 Ni2B_2 1_555 1_555
C3B C4B 1_555 1_555
C5B O2B 1_555 1_555
O1B Ni1B 1_555 1_555
C8C C9C 1_555 1_555
C10C O3C 1_555 1_555
C8_2 C9_2 1_555 1_555
C10_2 O3_2 1_555 1_555
C10_2 O4_2 1_555 1_555
C6B C7B 1_555 1_555
C8B C9B 1_555 1_555
C10B O4B 1_555 1_555
O3B Ni2A 1_555 1_555
C3A C4A 1_555 1_555
C5A O2A 1_555 1_555
O1A Ni1A 1_555 1_555
N2C Ni2C 1_555 1_555
C3C C4C 1_555 1_555
C5C O1C 1_555 1_555
O2C Ni1A 1_555 1_555
O10B V2E 1_555 1_555
V2B O11B 1_555 1_555
V3C O7C 1_555 1_555
O8C V2F 1_555 1_555
O11A V2A 1_555 1_555
O7A V1A 1_555 1_555
O6_2 V1E_2 1_555 1_555

#END
