
#######################################################################
#
#                 Cambridge Crystallographic Data Centre
#                                CCDC 
#
#######################################################################
#
# If this CIF has been generated from an entry in the Cambridge 
# Structural Database, then it will include bibliographic, chemical, 
# crystal, experimental, refinement or atomic coordinate data resulting 
# from the CCDC's data processing and validation procedures.
#
#######################################################################

data_MOYMUJ
_chemical_formula_moiety         '(C86 H96 Co2 N4 O22)n'
_symmetry_cell_setting           monoclinic
_symmetry_space_group_name_H-M   'P 21/c'
_symmetry_Int_Tables_number      14
_space_group_name_Hall           '-P 2ybc'
loop_
_symmetry_equiv_pos_site_id
_symmetry_equiv_pos_as_xyz
1 x,y,z
2 -x,1/2+y,1/2-z
3 -x,-y,-z
4 x,1/2-y,1/2+z
_cell_length_a                   14.4201(9)
_cell_length_b                   19.6832(13)
_cell_length_c                   24.3937(16)
_cell_angle_alpha                90
_cell_angle_beta                 95.6320(10)
_cell_angle_gamma                90
_cell_volume                     6890.33
loop_
_atom_site_label
_atom_site_type_symbol
_atom_site_fract_x
_atom_site_fract_y
_atom_site_fract_z
O14 O 0.5139(15) 0.6246(18) 0.4611(9)
H73 H 0.5580 0.6269 0.4404
H74 H 0.5018 0.5873 0.4443
O15 O 0.3434 0.9739 0.8538
H105 H 0.3049 1.0045 0.8492
O16 O 0.4759 1.0047 0.9032
O17 O 0.4960 1.0158 0.9043
H106 H 0.4881 1.0082 0.9366
O18 O 0.6250 1.0137 0.8617
C80 C 0.5782 1.0193 0.8996
C81 C 0.6351 1.0342 0.9535
C82 C 0.7314 1.0419 0.9548
H107 H 0.7589 1.0471 0.9222
C83 C 0.7866 1.0419 1.0052
C84 C 0.7452 1.0340 1.0542
H108 H 0.7819 1.0340 1.0878
C85 C 0.3514 0.9737 0.9472
C86 C 0.5936 1.0264 1.0025
H109 H 0.5294 1.0212 1.0016
C87 C 0.3956 0.9855 0.8949
C88 C 0.8924 1.0478 1.0115
C89 C 0.9380 0.9872 0.9859
H110 H 0.9060 0.9778 0.9503
H112 H 0.9345 0.9481 1.0091
C90 C 0.9439 1.0552 1.0690
H113 H 1.0094 1.0599 1.0660
H114 H 0.9214 1.0947 1.0866
H115 H 0.9331 1.0157 1.0905
C91 C 0.9208 1.1096 0.9795
H116 H 0.9618 1.0957 0.9529
H117 H 0.8663 1.1304 0.9610
H118 H 0.9523 1.1416 1.0045
O15B O 0.6566 1.0261 1.1462
H105B H 0.6951 0.9955 1.1508
O16B O 0.5241 0.9953 1.0968
O17B O 0.5040 0.9842 1.0957
H106B H 0.5119 0.9918 1.0634
O18B O 0.3750 0.9863 1.1383
C80B C 0.4218 0.9807 1.1004
C81B C 0.3649 0.9658 1.0465
C82B C 0.2686 0.9581 1.0452
H107B H 0.2411 0.9529 1.0778
C83B C 0.2134 0.9581 0.9948
C84B C 0.2548 0.9660 0.9458
H108B H 0.2181 0.9660 0.9122
C85B C 0.6486 1.0263 1.0528
C86B C 0.4064 0.9736 0.9975
H109B H 0.4706 0.9788 0.9984
C87B C 0.6044 1.0145 1.1051
C88B C 0.1076 0.9522 0.9885
C89B C 0.0620 1.0128 1.0141
H110B H 0.0940 1.0222 1.0497
H112B H 0.0655 1.0519 0.9909
C90B C 0.0561 0.9448 0.9310
H113B H -0.0094 0.9401 0.9340
H114B H 0.0786 0.9053 0.9134
H115B H 0.0669 0.9843 0.9095
C91B C 0.0792 0.8904 1.0205
H116B H 0.0382 0.9043 1.0471
H117B H 0.1337 0.8696 1.0390
H118B H 0.0477 0.8584 0.9955
C1 C 1.1584(6) 0.6740(4) 0.2017(5)
H1 H 1.1642 0.6610 0.1638
H2 H 1.2000 0.6455 0.2254
C2 C 1.1868(6) 0.7479(3) 0.2099(4)
H3 H 1.2512 0.7530 0.2021
H4 H 1.1831 0.7601 0.2481
C3 C 1.1262(8) 0.7962(4) 0.1732(5)
H5 H 1.0621 0.7919 0.1817
H6 H 1.1287 0.7832 0.1350
C4 C 1.1565(5) 0.8702(3) 0.1804(3)
C5 C 1.2331(6) 0.8870(4) 0.2194(4)
H7 H 1.2674 0.8530 0.2384
C6 C 1.2553(6) 0.9530(4) 0.2285(3)
H8 H 1.3052 0.9627 0.2545
C7 C 1.1396(6) 0.9902(4) 0.1677(4)
H9 H 1.1057 1.0252 0.1497
C8 C 1.1126(6) 0.9227(5) 0.1562(4)
H10 H 1.0616 0.9147 0.1306
N1 N 1.2108(3) 1.0054(3) 0.2028(2)
C17 C 1.7688(8) 1.2202(8) 0.0805(4)
H21 H 1.8046 1.1793 0.0753
H22 H 1.8117 1.2577 0.0881
C18 C 1.7018(9) 1.2350(8) 0.0286(3)
H23 H 1.6623 1.1958 0.0197
H24 H 1.6621 1.2733 0.0354
C19 C 1.7589(7) 1.2510(8) -0.0193(4)
H25 H 1.7926 1.2112 -0.0298
H26 H 1.8030 1.2874 -0.0097
C23 C 1.3462(8) 1.1499(6) 0.5788(5)
H33 H 1.2966 1.1228 0.5908
H34 H 1.3206 1.1848 0.5543
H35 H 1.3805 1.1704 0.6103
C24 C 1.4458(8) 1.0478(5) 0.5899(4)
H36 H 1.4807 1.0678 0.6214
H37 H 1.4848 1.0165 0.5725
H38 H 1.3929 1.0241 0.6014
C25 C 1.4942(7) 1.1453(7) 0.5350(5)
H39 H 1.5305 1.1583 0.5685
H40 H 1.4730 1.1852 0.5150
H41 H 1.5319 1.1186 0.5129
C29 C 1.1880(10) 1.2263(8) -0.1435(4)
H51 H 1.2089 1.2130 -0.1781
H52 H 1.1987 1.2741 -0.1378
H53 H 1.1226 1.2169 -0.1437
C30 C 1.3447(6) 1.2018(8) -0.0962(5)
H54 H 1.3786 1.1740 -0.0688
H55 H 1.3558 1.2488 -0.0875
H56 H 1.3652 1.1920 -0.1317
C31 C 1.2272(11) 1.1101(5) -0.1098(5)
H57 H 1.2418 1.1008 -0.1467
H58 H 1.1635 1.0980 -0.1064
H59 H 1.2675 1.0839 -0.0842
Co1 Co 1.49573(5) 1.14072(3) 0.27004(3)
Co2 Co 1.25169(5) 1.10819(3) 0.22647(3)
O1 O 1.4341(2) 1.23279(17) 0.25781(17)
O2 O 1.2821(3) 1.20820(18) 0.24375(17)
O3 O 1.5239(3) 1.4774(2) 0.2713(2)
O4 O 1.4297(3) 1.55027(18) 0.22445(16)
O5 O 1.1267(4) 0.9166(3) 0.42211(19)
O6 O 1.1359(4) 0.9363(3) 0.5116(2)
H69 H 1.1072 0.9692 0.5217
O7 O 1.2855(3) 1.0691(2) 0.30322(15)
O8 O 1.4242(3) 1.1103(2) 0.33622(15)
O9 O 1.2109(3) 1.1401(2) 0.14714(15)
O10 O 1.3422(3) 1.1298(3) 0.10752(19)
O11 O 0.9964(4) 1.3439(3) -0.02512(19)
H70 H 0.9643 1.3759 -0.0167
O12 O 0.9943(4) 1.3196(3) 0.06374(19)
O13 O 1.3948(2) 1.09349(17) 0.20874(14)
H71 H 1.3869 1.1043 0.1758
H72 H 1.4139 1.0541 0.2132
N3 N 0.8861(3) 0.6303(2) 0.2500(2)
N4 N 1.5863(4) 1.1714(3) 0.2057(2)
N5 N 1.5868(3) 1.3166(2) -0.1624(2)
C35 C 1.3494(4) 1.2486(2) 0.2467(2)
C36 C 1.3274(3) 1.3224(2) 0.2371(2)
C37 C 1.2361(4) 1.3419(2) 0.2214(2)
H75 H 1.1902 1.3087 0.2157
C38 C 1.2118(4) 1.4098(3) 0.2139(2)
C39 C 1.2825(4) 1.4573(3) 0.2206(2)
H76 H 1.2680 1.5029 0.2146
C40 C 1.3744(4) 1.4393(2) 0.2361(2)
C41 C 1.3974(4) 1.3714(2) 0.2452(2)
H77 H 1.4585 1.3588 0.2565
C42 C 1.4487(4) 1.4925(3) 0.2444(2)
C43 C 1.1114(4) 1.4338(3) 0.2003(3)
C44 C 1.1025(5) 1.4712(4) 0.1452(3)
H78 H 1.1427 1.5102 0.1477
H79 H 1.0392 1.4855 0.1365
H80 H 1.1201 1.4413 0.1169
C45 C 1.0851(5) 1.4808(4) 0.2458(3)
H81 H 1.0904 1.4567 0.2802
H82 H 1.0221 1.4961 0.2374
H83 H 1.1263 1.5192 0.2485
C46 C 1.0420(4) 1.3724(4) 0.1969(4)
H84 H 1.0585 1.3410 0.1694
H85 H 0.9798 1.3887 0.1873
H86 H 1.0452 1.3500 0.2320
C47 C 1.3483(4) 1.0817(3) 0.3410(2)
C48 C 1.3277(4) 1.0609(3) 0.3983(2)
C49 C 1.2566(4) 1.0147(3) 0.4053(2)
H87 H 1.2233 0.9950 0.3748
C50 C 1.2356(4) 0.9981(3) 0.4580(2)
C51 C 1.2856(4) 1.0277(3) 0.5036(2)
H88 H 1.2700 1.0170 0.5387
C52 C 1.3579(4) 1.0729(3) 0.4980(2)
C53 C 1.3779(4) 1.0881(3) 0.4445(2)
H89 H 1.4269 1.1175 0.4397
C54 C 1.1614(4) 0.9477(4) 0.4646(3)
C55 C 1.4121(4) 1.1043(3) 0.5485(2)
C56 C 1.2596(4) 1.1483(3) 0.1079(2)
C57 C 1.2137(4) 1.1827(3) 0.0568(2)
C58 C 1.1409(4) 1.2277(3) 0.0609(2)
H90 H 1.1185 1.2358 0.0948
C59 C 1.1020(4) 1.2605(3) 0.0142(2)
C60 C 1.1348(4) 1.2475(3) -0.0361(2)
H91 H 1.1080 1.2700 -0.0673
C61 C 1.2062(4) 1.2022(3) -0.0414(2)
C62 C 1.2455(4) 1.1714(3) 0.0064(2)
H92 H 1.2955 1.1419 0.0042
C63 C 1.0269(5) 1.3112(4) 0.0186(3)
C64 C 1.2414(4) 1.1868(3) -0.0973(3)
C65 C 0.9064(5) 0.6234(3) 0.1984(3)
H93 H 0.8604 0.6061 0.1728
C66 C 0.9904(5) 0.6402(4) 0.1803(3)
H94 H 0.9989 0.6355 0.1432
C67 C 1.0589(4) 0.6628(4) 0.2147(4)
C68 C 1.0404(5) 0.6711(5) 0.2693(4)
H95 H 1.0867 0.6870 0.2954
C69 C 0.9530(5) 0.6558(4) 0.2846(3)
H96 H 0.9409 0.6639 0.3208
C70 C 1.6010(5) 1.2352(4) 0.1932(3)
H97 H 1.5692 1.2687 0.2107
C71 C 1.6613(6) 1.2551(5) 0.1555(4)
H98 H 1.6688 1.3013 0.1493
C72 C 1.7093(5) 1.2109(6) 0.1275(3)
C73 C 1.6943(8) 1.1475(7) 0.1406(5)
H99 H 1.7263 1.1135 0.1238
C74 C 1.6326(8) 1.1283(5) 0.1787(4)
H100 H 1.6242 1.0822 0.1850
C75 C 1.6852(9) 1.2729(6) -0.0657(4)
C76 C 1.6257(8) 1.2282(5) -0.0980(4)
H101 H 1.6183 1.1833 -0.0873
C77 C 1.5793(5) 1.2528(4) -0.1454(3)
H102 H 1.5405 1.2235 -0.1669
C78 C 1.6398(5) 1.3577(4) -0.1293(3)
H103 H 1.6450 1.4028 -0.1398
C79 C 1.6866(7) 1.3375(5) -0.0814(4)
H104 H 1.7201 1.3692 -0.0592
Co1A Co 1.50427(5) 1.64072(3) 0.22996(3)
Co1C Co 1.49573(5) 1.35928(3) -0.22996(3)
Co2A Co 0.74831(5) 0.60819(3) 0.27353(3)
O4A O 1.5703(3) 1.05027(18) 0.27555(16)
N3A N 1.1139(3) 1.1303(2) 0.2500(2)
N5C N 1.5868(3) 1.1834(2) 0.3376(2)
loop_
_geom_bond_atom_site_label_1
_geom_bond_atom_site_label_2
_geom_bond_site_symmetry_1
_geom_bond_site_symmetry_2
C1 H1 1_555 1_555
H2 C1 1_555 1_555
C2 C1 1_555 1_555
H3 C2 1_555 1_555
H4 C2 1_555 1_555
C3 C2 1_555 1_555
H5 C3 1_555 1_555
H6 C3 1_555 1_555
C4 C3 1_555 1_555
C5 C4 1_555 1_555
H7 C5 1_555 1_555
C6 C5 1_555 1_555
H8 C6 1_555 1_555
C7 H9 1_555 1_555
C8 C4 1_555 1_555
H10 C8 1_555 1_555
N1 C6 1_555 1_555
C17 H21 1_555 1_555
H22 C17 1_555 1_555
C18 C17 1_555 1_555
H23 C18 1_555 1_555
H24 C18 1_555 1_555
C19 C18 1_555 1_555
H25 C19 1_555 1_555
H26 C19 1_555 1_555
C23 H33 1_555 1_555
H34 C23 1_555 1_555
H35 C23 1_555 1_555
C24 H36 1_555 1_555
H37 C24 1_555 1_555
H38 C24 1_555 1_555
C25 H39 1_555 1_555
H40 C25 1_555 1_555
H41 C25 1_555 1_555
C29 H51 1_555 1_555
H52 C29 1_555 1_555
H53 C29 1_555 1_555
C30 H54 1_555 1_555
H55 C30 1_555 1_555
H56 C30 1_555 1_555
C31 H57 1_555 1_555
H58 C31 1_555 1_555
H59 C31 1_555 1_555
Co1 O1 1_555 1_555
Co2 N1 1_555 1_555
O1 C35 1_555 1_555
O2 Co2 1_555 1_555
O3 C42 1_555 1_555
O4 C42 1_555 1_555
O5 C54 1_555 1_555
O6 H69 1_555 1_555
O7 Co2 1_555 1_555
O8 Co1 1_555 1_555
O9 Co2 1_555 1_555
O10 C56 1_555 1_555
O11 H70 1_555 1_555
O12 C63 1_555 1_555
O13 Co1 1_555 1_555
H71 O13 1_555 1_555
H72 O13 1_555 1_555
O14 H73 1_555 1_555
H74 O14 1_555 1_555
N3 C65 1_555 1_555
N4 Co1 1_555 1_555
N5 C77 1_555 1_555
C35 O2 1_555 1_555
C36 C35 1_555 1_555
C37 C36 1_555 1_555
H75 C37 1_555 1_555
C38 C37 1_555 1_555
C39 C38 1_555 1_555
H76 C39 1_555 1_555
C40 C39 1_555 1_555
C41 C36 1_555 1_555
H77 C41 1_555 1_555
C42 C40 1_555 1_555
C43 C38 1_555 1_555
C44 C43 1_555 1_555
H78 C44 1_555 1_555
H79 C44 1_555 1_555
H80 C44 1_555 1_555
C45 C43 1_555 1_555
H81 C45 1_555 1_555
H82 C45 1_555 1_555
H83 C45 1_555 1_555
C46 C43 1_555 1_555
H84 C46 1_555 1_555
H85 C46 1_555 1_555
H86 C46 1_555 1_555
C47 O7 1_555 1_555
C48 C47 1_555 1_555
C49 C48 1_555 1_555
H87 C49 1_555 1_555
C50 C49 1_555 1_555
C51 C50 1_555 1_555
H88 C51 1_555 1_555
C52 C51 1_555 1_555
C53 C48 1_555 1_555
H89 C53 1_555 1_555
C54 O6 1_555 1_555
C55 C23 1_555 1_555
C56 O9 1_555 1_555
C57 C56 1_555 1_555
C58 C57 1_555 1_555
H90 C58 1_555 1_555
C59 C58 1_555 1_555
C60 C59 1_555 1_555
H91 C60 1_555 1_555
C61 C60 1_555 1_555
C62 C57 1_555 1_555
H92 C62 1_555 1_555
C63 O11 1_555 1_555
C64 C29 1_555 1_555
C65 H93 1_555 1_555
C66 C65 1_555 1_555
H94 C66 1_555 1_555
C67 C1 1_555 1_555
C68 C67 1_555 1_555
H95 C68 1_555 1_555
C69 N3 1_555 1_555
H96 C69 1_555 1_555
C70 N4 1_555 1_555
H97 C70 1_555 1_555
C71 C70 1_555 1_555
H98 C71 1_555 1_555
C72 C17 1_555 1_555
C73 C72 1_555 1_555
H99 C73 1_555 1_555
C74 N4 1_555 1_555
H100 C74 1_555 1_555
C75 C19 1_555 1_555
C76 C75 1_555 1_555
H101 C76 1_555 1_555
C77 C76 1_555 1_555
H102 C77 1_555 1_555
C78 N5 1_555 1_555
H103 C78 1_555 1_555
C79 C75 1_555 1_555
H104 C79 1_555 1_555
O15 H105 1_555 1_555
O16 O17 1_555 1_555
O17 H106 1_555 1_555
H106 O16 1_555 1_555
O18 C80 1_555 1_555
C80 O16 1_555 1_555
C81 C80 1_555 1_555
C82 C81 1_555 1_555
H107 C82 1_555 1_555
C83 C82 1_555 1_555
C84 C83 1_555 1_555
H108 C84 1_555 1_555
C85 C87 1_555 1_555
C86 C81 1_555 1_555
H109 C86 1_555 1_555
C87 O15 1_555 1_555
C88 C83 1_555 1_555
C89 C88 1_555 1_555
H110 C89 1_555 1_555
H112 C89 1_555 1_555
C90 C88 1_555 1_555
H113 C90 1_555 1_555
H114 C90 1_555 1_555
H115 C90 1_555 1_555
C91 C88 1_555 1_555
H116 C91 1_555 1_555
H117 C91 1_555 1_555
H118 C91 1_555 1_555
Co1A O4 1_555 1_555
Co1C N5 1_555 1_555
Co2A N3 1_555 1_555
O4A Co1 1_555 1_555
N3A Co2 1_555 1_555
N5C Co1 1_555 1_555
O15B H105B 1_555 1_555
O16B O17B 1_555 1_555
O17B H106B 1_555 1_555
H106B O16B 1_555 1_555
O18B C80B 1_555 1_555
C80B O16B 1_555 1_555
C81B C80B 1_555 1_555
C82B C81B 1_555 1_555
H107B C82B 1_555 1_555
C83B C82B 1_555 1_555
C84B C85 1_555 1_555
H108B C84B 1_555 1_555
C85B C84 1_555 1_555
C86B C85 1_555 1_555
H109B C86B 1_555 1_555
C87B O15B 1_555 1_555
C88B C83B 1_555 1_555
C89B C88B 1_555 1_555
H110B C89B 1_555 1_555
H112B C89B 1_555 1_555
C90B C88B 1_555 1_555
H113B C90B 1_555 1_555
H114B C90B 1_555 1_555
H115B C90B 1_555 1_555
C91B C88B 1_555 1_555
H116B C91B 1_555 1_555
H117B C91B 1_555 1_555
H118B C91B 1_555 1_555
C7 C8 1_555 1_555
C7 N1 1_555 1_555
C24 C55 1_555 1_555
C25 C55 1_555 1_555
C30 C64 1_555 1_555
C31 C64 1_555 1_555
Co2 O13 1_555 1_555
O8 C47 1_555 1_555
C40 C41 1_555 1_555
C50 C54 1_555 1_555
C52 C53 1_555 1_555
C52 C55 1_555 1_555
C59 C63 1_555 1_555
C61 C62 1_555 1_555
C61 C64 1_555 1_555
C66 C67 1_555 1_555
C68 C69 1_555 1_555
C71 C72 1_555 1_555
C73 C74 1_555 1_555
C78 C79 1_555 1_555
O16 C87 1_555 1_555
O17 C80 1_555 1_555
O17 C87 1_555 1_555
C86 C85B 1_555 1_555
O16B C87B 1_555 1_555
O17B C80B 1_555 1_555
O17B C87B 1_555 1_555
C81B C86B 1_555 1_555
C83B C84B 1_555 1_555
C85B C87B 1_555 1_555

#END
