
#######################################################################
#
#                 Cambridge Crystallographic Data Centre
#                                CCDC 
#
#######################################################################
#
# If this CIF has been generated from an entry in the Cambridge 
# Structural Database, then it will include bibliographic, chemical, 
# crystal, experimental, refinement or atomic coordinate data resulting 
# from the CCDC's data processing and validation procedures.
#
#######################################################################

data_LASWEJ
_chemical_formula_moiety         '(C33 H25 Co2 N5 O9)n'
_symmetry_cell_setting           triclinic
_symmetry_space_group_name_H-M   'P -1'
_symmetry_Int_Tables_number      2
_space_group_name_Hall           '-P 1'
loop_
_symmetry_equiv_pos_site_id
_symmetry_equiv_pos_as_xyz
1 x,y,z
2 -x,-y,-z
_cell_length_a                   8.8102(2)
_cell_length_b                   15.6323(4)
_cell_length_c                   16.3592(4)
_cell_angle_alpha                103.5443(10)
_cell_angle_beta                 100.8107(10)
_cell_angle_gamma                90.1909(12)
_cell_volume                     2148.88
loop_
_atom_site_label
_atom_site_type_symbol
_atom_site_fract_x
_atom_site_fract_y
_atom_site_fract_z
Co1 Co 0.64462(3) 0.04965(2) 0.640269(19)
Co2 Co 0.18834(4) 0.20988(2) 0.26764(2)
O1 O 0.72934(18) 0.04943(11) 0.52733(10)
O2 O 0.57765(18) -0.05243(10) 0.42621(10)
O3 O 0.41797(18) 0.19898(10) 0.32553(11)
O4 O 0.39824(17) 0.08830(10) 0.38761(10)
O5 O 0.8172(2) 0.10516(15) 0.10763(13)
O6 O 0.96493(19) 0.21379(11) 0.20079(11)
O7 O 1.12723(17) -0.03803(10) 0.30475(10)
O8 O 1.14495(18) 0.07340(10) 0.24322(10)
O9 O 0.1097(2) 0.24071(12) 0.38449(12)
N1 N 0.5620(2) 0.07968(13) 0.76283(12)
N2 N 0.6755(2) 0.18947(13) 0.65939(13)
N3 N 0.7740(3) 0.65143(13) 0.71582(15)
N4 N 0.2661(2) 0.18542(14) 1.14628(13)
N5 N 0.0608(3) 0.22454(15) 0.51057(14)
C1 C 0.6690(3) 0.01553(16) 0.45143(15)
C2 C 0.4699(3) 0.13304(15) 0.35150(15)
C3 C 0.8761(3) 0.14437(18) 0.18164(17)
C4 C 1.0756(3) 0.02952(15) 0.28127(14)
C5 C 0.7206(2) 0.05385(15) 0.38411(14)
C6 C 0.6308(3) 0.10697(15) 0.33739(15)
C7 C 0.6885(3) 0.13552(16) 0.27464(15)
H1 H 0.6295 0.1720 0.2451
C8 C 0.8310(3) 0.11180(15) 0.25412(15)
C9 C 0.9201(2) 0.05831(15) 0.29988(14)
C10 C 0.8646(2) 0.03143(15) 0.36447(14)
H2 H 0.9259 -0.0028 0.3957
C11 C 0.6402(4) 0.0676(2) 0.83598(19)
H3 H 0.7361 0.0431 0.8358
C12 C 0.5895(4) 0.0889(2) 0.9126(2)
H4 H 0.6523 0.0816 0.9627
C13 C 0.4433(3) 0.12142(18) 0.91417(17)
C14 C 0.3621(3) 0.1320(2) 0.83867(19)
H5 H 0.2630 0.1529 0.8361
C15 C 0.4239(3) 0.1124(2) 0.76591(18)
H6 H 0.3657 0.1227 0.7158
C16 C 0.7861(3) 0.23753(18) 0.71970(19)
H7 H 0.8516 0.2090 0.7552
C17 C 0.8085(4) 0.32736(19) 0.7322(2)
H8 H 0.8880 0.3580 0.7749
C18 C 0.7116(3) 0.37205(17) 0.68078(19)
C19 C 0.5997(3) 0.32179(18) 0.61758(19)
H9 H 0.5330 0.3485 0.5810
C20 C 0.5862(3) 0.23247(18) 0.60826(18)
H10 H 0.5110 0.2001 0.5641
C21 C 0.7334(3) 0.46881(18) 0.6927(2)
C22 C 0.8051(5) 0.5225(2) 0.7724(3)
H11 H 0.8400 0.4983 0.8190
C23 C 0.8225(5) 0.6122(2) 0.7799(3)
H12 H 0.8707 0.6473 0.8326
C24 C 0.7075(6) 0.6001(3) 0.6425(3)
H13 H 0.6727 0.6257 0.5969
C25 C 0.6860(6) 0.5098(2) 0.6290(3)
H14 H 0.6381 0.4768 0.5752
C26 C 0.3818(3) 0.14341(18) 0.99445(17)
C27 C 0.2433(4) 0.1037(2) 0.9996(2)
H15 H 0.1873 0.0630 0.9526
C28 C 0.1904(4) 0.1263(2) 1.0767(2)
H16 H 0.0985 0.0993 1.0802
C29 C 0.3965(3) 0.2226(2) 1.13895(19)
H17 H 0.4487 0.2651 1.1857
C30 C 0.4597(4) 0.2021(2) 1.0660(2)
H18 H 0.5546 0.2279 1.0655
C31 C 0.1405(3) 0.21055(17) 0.44836(17)
H19 H 0.2255 0.1756 0.4531
C32 C 0.0954(4) 0.1868(2) 0.5834(2)
H20 H 0.0230 0.2057 0.6204
H21 H 0.1984 0.2057 0.6142
H22 H 0.0879 0.1237 0.5645
C33 C -0.0777(4) 0.2737(3) 0.5047(2)
H23 H -0.1209 0.2772 0.5550
H24 H -0.1518 0.2445 0.4549
H25 H -0.0527 0.3320 0.5003
Co1A Co 0.35538(3) -0.04965(2) 0.359731(19)
Co1A_2 Co 1.35538(3) -0.04965(2) 0.359731(19)
Co2_2 Co 1.18834(4) 0.20988(2) 0.26764(2)
Co2A Co 0.81166(4) 0.79012(2) 0.73236(2)
Co2_3 Co 0.18834(4) 0.20988(2) 1.26764(2)
O2A O 0.42235(18) 0.05243(10) 0.57379(10)
O4A O 0.60176(17) -0.08830(10) 0.61239(10)
O6_2 O -0.03507(19) 0.21379(11) 0.20079(11)
O7A O 0.87277(17) 0.03803(10) 0.69525(10)
O8_2 O 0.14495(18) 0.07340(10) 0.24322(10)
N3A N 0.2260(3) 0.34857(13) 0.28418(15)
N4_2 N 0.2661(2) 0.18542(14) 0.14628(13)
loop_
_geom_bond_atom_site_label_1
_geom_bond_atom_site_label_2
_geom_bond_site_symmetry_1
_geom_bond_site_symmetry_2
Co1 O1 1_555 1_555
Co2 O3 1_555 1_555
O1 C1 1_555 1_555
O2 C1 1_555 1_555
O3 C2 1_555 1_555
O4 C2 1_555 1_555
O5 C3 1_555 1_555
O6 C3 1_555 1_555
O7 C4 1_555 1_555
O8 C4 1_555 1_555
O9 Co2 1_555 1_555
N1 Co1 1_555 1_555
N2 Co1 1_555 1_555
N3 C23 1_555 1_555
N4 C28 1_555 1_555
N5 C31 1_555 1_555
C1 C5 1_555 1_555
C2 C6 1_555 1_555
C3 C8 1_555 1_555
C4 C9 1_555 1_555
C5 C6 1_555 1_555
C6 C7 1_555 1_555
C7 H1 1_555 1_555
C8 C7 1_555 1_555
C9 C8 1_555 1_555
C10 C5 1_555 1_555
H2 C10 1_555 1_555
C11 N1 1_555 1_555
H3 C11 1_555 1_555
C12 C11 1_555 1_555
H4 C12 1_555 1_555
C13 C12 1_555 1_555
C14 C13 1_555 1_555
H5 C14 1_555 1_555
C15 N1 1_555 1_555
H6 C15 1_555 1_555
C16 N2 1_555 1_555
H7 C16 1_555 1_555
C17 C16 1_555 1_555
H8 C17 1_555 1_555
C18 C17 1_555 1_555
C19 C18 1_555 1_555
H9 C19 1_555 1_555
C20 N2 1_555 1_555
H10 C20 1_555 1_555
C21 C18 1_555 1_555
C22 C21 1_555 1_555
H11 C22 1_555 1_555
C23 C22 1_555 1_555
H12 C23 1_555 1_555
C24 N3 1_555 1_555
H13 C24 1_555 1_555
C25 C21 1_555 1_555
H14 C25 1_555 1_555
C26 C13 1_555 1_555
C27 C26 1_555 1_555
H15 C27 1_555 1_555
C28 C27 1_555 1_555
H16 C28 1_555 1_555
C29 N4 1_555 1_555
H17 C29 1_555 1_555
C30 C26 1_555 1_555
H18 C30 1_555 1_555
C31 O9 1_555 1_555
H19 C31 1_555 1_555
C32 N5 1_555 1_555
H20 C32 1_555 1_555
H21 C32 1_555 1_555
H22 C32 1_555 1_555
C33 N5 1_555 1_555
H23 C33 1_555 1_555
H24 C33 1_555 1_555
H25 C33 1_555 1_555
Co1A O2 1_555 1_555
Co1A_2 O7 1_555 1_555
Co2_2 O6 1_555 1_555
Co2A N3 1_555 1_555
Co2_3 N4 1_555 1_555
O2A Co1 1_555 1_555
O4A Co1 1_555 1_555
O6_2 Co2 1_555 1_555
O7A Co1 1_555 1_555
O8_2 Co2 1_555 1_555
N3A Co2 1_555 1_555
N4_2 Co2 1_555 1_555
O4 Co1A 1_555 1_555
O8 Co2_2 1_555 1_555
C9 C10 1_555 1_555
C14 C15 1_555 1_555
C19 C20 1_555 1_555
C24 C25 1_555 1_555
C29 C30 1_555 1_555

#END
