
#######################################################################
#
#                 Cambridge Crystallographic Data Centre
#                                CCDC 
#
#######################################################################
#
# If this CIF has been generated from an entry in the Cambridge 
# Structural Database, then it will include bibliographic, chemical, 
# crystal, experimental, refinement or atomic coordinate data resulting 
# from the CCDC's data processing and validation procedures.
#
#######################################################################

data_CACBUG
_chemical_formula_moiety         '(C32 H30 N6 O13 Zn2)n'
_symmetry_cell_setting           triclinic
_symmetry_space_group_name_H-M   'P -1'
_symmetry_Int_Tables_number      2
_space_group_name_Hall           '-P 1'
loop_
_symmetry_equiv_pos_site_id
_symmetry_equiv_pos_as_xyz
1 x,y,z
2 -x,-y,-z
_cell_length_a                   7.4083(15)
_cell_length_b                   10.890(2)
_cell_length_c                   13.632(3)
_cell_angle_alpha                66.67(3)
_cell_angle_beta                 78.17(3)
_cell_angle_gamma                71.78(3)
_cell_volume                     955.066
loop_
_atom_site_label
_atom_site_type_symbol
_atom_site_fract_x
_atom_site_fract_y
_atom_site_fract_z
Zn1 Zn 1.0000 0.5000 0.0000
O1 O 0.8351(3) 0.70163(18) -0.04172(14)
N1 N 0.6891(3) 0.4792(2) 0.01587(16)
N2 N 0.9756(3) 0.4866(2) 0.16161(17)
C1 C 0.6593(4) 0.7276(3) -0.04713(19)
C2 C 0.6139(4) 0.3709(3) 0.04385(19)
C3 C 0.5764(4) 0.6071(3) -0.02663(19)
C4 C 0.9636(5) 0.3706(3) 0.2448(2)
C5 C 0.9866(4) 0.5949(3) 0.1830(2)
O2 O 0.5402(3) 0.84233(17) -0.06264(14)
C6 C 0.7467(4) 0.2282(3) 0.0939(2)
H1 H 0.9541 0.2938 0.2313
C7 C 0.9643(5) 0.3578(4) 0.3502(2)
C8 C 0.9908(5) 0.5907(3) 0.2851(2)
H2 H 0.9918 0.6787 0.1245
Zn2 Zn 0.5000 1.0000 0.0000
O3 O 0.8596(3) 0.18140(19) 0.02686(16)
O4 O 0.7360(3) 0.1764(2) 0.19354(15)
H3 H 0.9526 0.2739 0.4070
C9 C 0.9821(5) 0.4674(4) 0.3733(2)
H4 H 0.9995 0.6696 0.2959
O5 O 0.7862(3) 0.9770(3) -0.0066(3)
N3 N 0.5009(4) 0.8536(2) 0.16128(18)
C10 C 0.9894(6) 0.4526(4) 0.4840(2)
H5 H 0.867(4) 0.906(2) -0.012(3)
H6 H 0.817(5) 1.031(3) 0.014(3)
C11 C 0.4409(5) 0.7384(3) 0.1892(2)
C12 C 0.5600(5) 0.8747(3) 0.2387(2)
H7 H 0.9778 0.3669 0.5383
H8 H 0.3957 0.7236 0.1355
C13 C 0.4416(5) 0.6404(3) 0.2921(2)
C14 C 0.5600(5) 0.7837(3) 0.3442(2)
H9 H 0.6035 0.9550 0.2204
H10 H 0.4012 0.5595 0.3075
C15 C 0.5026(5) 0.6620(3) 0.3732(2)
H11 H 0.5990 0.8040 0.3971
C16 C 0.5072(6) 0.5656(3) 0.4839(2)
H12 H 0.5214 0.5971 0.5370
O1A O 1.1649(3) 0.29837(18) 0.04172(14)
N1A N 1.3109(3) 0.5208(2) -0.01587(16)
N2A N 1.0244(3) 0.5134(2) -0.16161(17)
C3A C 0.4236(4) 0.3929(3) 0.02663(19)
C2A C 0.3861(4) 0.6291(3) -0.04385(19)
N1A_2 N 0.3109(3) 0.5208(2) -0.01587(16)
C1A C 0.3407(4) 0.2724(3) 0.04713(19)
C6A C 0.2533(4) 0.7718(3) -0.0939(2)
O5A O 0.2138(3) 1.0230(3) 0.0066(3)
O2A O 0.4598(3) 1.15767(17) 0.06264(14)
N3A N 0.4991(4) 1.1464(2) -0.16128(18)
Zn1_2 Zn 0.0000 0.5000 0.0000
O1A_2 O 0.1649(3) 0.29837(18) 0.04172(14)
O2A_2 O 0.4598(3) 0.15767(17) 0.06264(14)
O3A O 0.1404(3) 0.81860(19) -0.02686(16)
O4A O 0.2640(3) 0.8236(2) -0.19354(15)
H5A H 0.133(4) 1.094(2) 0.012(3)
H6A H 0.183(5) 0.969(3) -0.014(3)
Zn2_2 Zn 0.5000 0.0000 0.0000
C10A C 1.0106(6) 0.5474(4) 0.5160(2)
C9A C 1.0179(5) 0.5326(4) 0.6267(2)
H7A H 1.0222 0.6331 0.4617
C7A C 1.0357(5) 0.6422(4) 0.6498(2)
C8A C 1.0092(5) 0.4093(3) 0.7149(2)
C4A C 1.0364(5) 0.6294(3) 0.7552(2)
H3A H 1.0474 0.7261 0.5930
H4A H 1.0005 0.3304 0.7041
C5A C 1.0134(4) 0.4051(3) 0.8170(2)
C16A C 0.4928(6) 0.4344(3) 0.5161(2)
N2A_2 N 1.0244(3) 0.5134(2) 0.83839(17)
H1A H 1.0459 0.7062 0.7687
H2A H 1.0082 0.3213 0.8755
C15A C 0.4974(5) 0.3380(3) 0.6268(2)
H12A H 0.4786 0.4029 0.4630
Zn1_3 Zn 1.0000 0.5000 1.0000
C13A C 0.5584(5) 0.3596(3) 0.7079(2)
C14A C 0.4400(5) 0.2163(3) 0.6558(2)
C11A C 0.5591(5) 0.2616(3) 0.8108(2)
H10A H 0.5988 0.4405 0.6925
H11A H 0.4010 0.1960 0.6029
C12A C 0.4400(5) 0.1253(3) 0.7613(2)
N3A_2 N 0.4991(4) 0.1464(2) 0.83872(18)
H8A H 0.6043 0.2764 0.8645
H9A H 0.3965 0.0450 0.7796
Zn2_3 Zn 0.5000 0.0000 1.0000
O6 O 0.2063(8) -0.0069(6) 0.4455(4)
O7 O -0.0397(8) -0.0684(5) 0.3433(4)
O8 O 0.4399(9) 0.1872(7) 0.3741(5)
loop_
_geom_bond_atom_site_label_1
_geom_bond_atom_site_label_2
_geom_bond_site_symmetry_1
_geom_bond_site_symmetry_2
Zn1 O1 1_555 1_555
O1 C1 1_555 1_555
N1 Zn1 1_555 1_555
N2 Zn1 1_555 1_555
C1 C3 1_555 1_555
C2 N1 1_555 1_555
C3 N1 1_555 1_555
C4 N2 1_555 1_555
C5 N2 1_555 1_555
O2 C1 1_555 1_555
C6 C2 1_555 1_555
H1 C4 1_555 1_555
C7 C4 1_555 1_555
C8 C5 1_555 1_555
H2 C5 1_555 1_555
Zn2 O2 1_555 1_555
O3 C6 1_555 1_555
O4 C6 1_555 1_555
H3 C7 1_555 1_555
C9 C7 1_555 1_555
H4 C8 1_555 1_555
O5 Zn2 1_555 1_555
N3 Zn2 1_555 1_555
C10 C9 1_555 1_555
H5 O5 1_555 1_555
H6 O5 1_555 1_555
C11 N3 1_555 1_555
C12 N3 1_555 1_555
H7 C10 1_555 1_555
H8 C11 1_555 1_555
C13 C11 1_555 1_555
C14 C12 1_555 1_555
H9 C12 1_555 1_555
H10 C13 1_555 1_555
C15 C13 1_555 1_555
H11 C14 1_555 1_555
C16 C15 1_555 1_555
H12 C16 1_555 1_555
O1A Zn1 1_555 1_555
N1A Zn1 1_555 1_555
N2A Zn1 1_555 1_555
C3A C2 1_555 1_555
C2A C3 1_555 1_555
N1A_2 C3A 1_555 1_555
C1A C3A 1_555 1_555
C6A C2A 1_555 1_555
O5A Zn2 1_555 1_555
O2A Zn2 1_555 1_555
N3A Zn2 1_555 1_555
Zn1_2 N1A_2 1_555 1_555
O1A_2 C1A 1_555 1_555
O2A_2 C1A 1_555 1_555
O3A C6A 1_555 1_555
O4A C6A 1_555 1_555
H5A O5A 1_555 1_555
H6A O5A 1_555 1_555
Zn2_2 O2A_2 1_555 1_555
C10A C10 1_555 1_555
C9A C10A 1_555 1_555
H7A C10A 1_555 1_555
C7A C9A 1_555 1_555
C8A C9A 1_555 1_555
C4A C7A 1_555 1_555
H3A C7A 1_555 1_555
H4A C8A 1_555 1_555
C5A C8A 1_555 1_555
C16A C16 1_555 1_555
N2A_2 C4A 1_555 1_555
H1A C4A 1_555 1_555
H2A C5A 1_555 1_555
C15A C16A 1_555 1_555
H12A C16A 1_555 1_555
Zn1_3 N2A_2 1_555 1_555
C13A C15A 1_555 1_555
C14A C15A 1_555 1_555
C11A C13A 1_555 1_555
H10A C13A 1_555 1_555
H11A C14A 1_555 1_555
C12A C14A 1_555 1_555
N3A_2 C11A 1_555 1_555
H8A C11A 1_555 1_555
H9A C12A 1_555 1_555
Zn2_3 N3A_2 1_555 1_555
C8 C9 1_555 1_555
C14 C15 1_555 1_555
C2A N1A_2 1_555 1_555
Zn1_2 O1A_2 1_555 1_555
C5A N2A_2 1_555 1_555
C12A N3A_2 1_555 1_555

#END
