
#######################################################################
#
#                 Cambridge Crystallographic Data Centre
#                                CCDC 
#
#######################################################################
#
# If this CIF has been generated from an entry in the Cambridge 
# Structural Database, then it will include bibliographic, chemical, 
# crystal, experimental, refinement or atomic coordinate data resulting 
# from the CCDC's data processing and validation procedures.
#
#######################################################################

data_RUKDUY
_chemical_formula_moiety         'C78 H48 Br12 O31 Zr17'
_symmetry_cell_setting           cubic
_symmetry_space_group_name_H-M   'F m -3 m'
_symmetry_Int_Tables_number      225
_space_group_name_Hall           '-F 4 2 3'
loop_
_symmetry_equiv_pos_site_id
_symmetry_equiv_pos_as_xyz
1 x,y,z
2 -y,x,z
3 -x,-y,z
4 y,-x,z
5 x,-z,y
6 x,-y,-z
7 x,z,-y
8 z,y,-x
9 -x,y,-z
10 -z,y,x
11 z,x,y
12 y,z,x
13 -y,-z,x
14 z,-x,-y
15 -y,z,-x
16 -z,-x,y
17 -z,x,-y
18 y,-z,-x
19 y,x,-z
20 -y,-x,-z
21 -x,z,y
22 -x,-z,-y
23 z,-y,x
24 -z,-y,-x
25 x,1/2+y,1/2+z
26 -y,1/2+x,1/2+z
27 -x,1/2-y,1/2+z
28 y,1/2-x,1/2+z
29 x,1/2-z,1/2+y
30 x,1/2-y,1/2-z
31 x,1/2+z,1/2-y
32 z,1/2+y,1/2-x
33 -x,1/2+y,1/2-z
34 -z,1/2+y,1/2+x
35 z,1/2+x,1/2+y
36 y,1/2+z,1/2+x
37 -y,1/2-z,1/2+x
38 z,1/2-x,1/2-y
39 -y,1/2+z,1/2-x
40 -z,1/2-x,1/2+y
41 -z,1/2+x,1/2-y
42 y,1/2-z,1/2-x
43 y,1/2+x,1/2-z
44 -y,1/2-x,1/2-z
45 -x,1/2+z,1/2+y
46 -x,1/2-z,1/2-y
47 z,1/2-y,1/2+x
48 -z,1/2-y,1/2-x
49 1/2+x,y,1/2+z
50 1/2-y,x,1/2+z
51 1/2-x,-y,1/2+z
52 1/2+y,-x,1/2+z
53 1/2+x,-z,1/2+y
54 1/2+x,-y,1/2-z
55 1/2+x,z,1/2-y
56 1/2+z,y,1/2-x
57 1/2-x,y,1/2-z
58 1/2-z,y,1/2+x
59 1/2+z,x,1/2+y
60 1/2+y,z,1/2+x
61 1/2-y,-z,1/2+x
62 1/2+z,-x,1/2-y
63 1/2-y,z,1/2-x
64 1/2-z,-x,1/2+y
65 1/2-z,x,1/2-y
66 1/2+y,-z,1/2-x
67 1/2+y,x,1/2-z
68 1/2-y,-x,1/2-z
69 1/2-x,z,1/2+y
70 1/2-x,-z,1/2-y
71 1/2+z,-y,1/2+x
72 1/2-z,-y,1/2-x
73 1/2+x,1/2+y,z
74 1/2-y,1/2+x,z
75 1/2-x,1/2-y,z
76 1/2+y,1/2-x,z
77 1/2+x,1/2-z,y
78 1/2+x,1/2-y,-z
79 1/2+x,1/2+z,-y
80 1/2+z,1/2+y,-x
81 1/2-x,1/2+y,-z
82 1/2-z,1/2+y,x
83 1/2+z,1/2+x,y
84 1/2+y,1/2+z,x
85 1/2-y,1/2-z,x
86 1/2+z,1/2-x,-y
87 1/2-y,1/2+z,-x
88 1/2-z,1/2-x,y
89 1/2-z,1/2+x,-y
90 1/2+y,1/2-z,-x
91 1/2+y,1/2+x,-z
92 1/2-y,1/2-x,-z
93 1/2-x,1/2+z,y
94 1/2-x,1/2-z,-y
95 1/2+z,1/2-y,x
96 1/2-z,1/2-y,-x
97 -x,-y,-z
98 y,-x,-z
99 x,y,-z
100 -y,x,-z
101 -x,z,-y
102 -x,y,z
103 -x,-z,y
104 -z,-y,x
105 x,-y,z
106 z,-y,-x
107 -z,-x,-y
108 -y,-z,-x
109 y,z,-x
110 -z,x,y
111 y,-z,x
112 z,x,-y
113 z,-x,y
114 -y,z,x
115 -y,-x,z
116 y,x,z
117 x,-z,-y
118 x,z,y
119 -z,y,-x
120 z,y,x
121 -x,1/2-y,1/2-z
122 y,1/2-x,1/2-z
123 x,1/2+y,1/2-z
124 -y,1/2+x,1/2-z
125 -x,1/2+z,1/2-y
126 -x,1/2+y,1/2+z
127 -x,1/2-z,1/2+y
128 -z,1/2-y,1/2+x
129 x,1/2-y,1/2+z
130 z,1/2-y,1/2-x
131 -z,1/2-x,1/2-y
132 -y,1/2-z,1/2-x
133 y,1/2+z,1/2-x
134 -z,1/2+x,1/2+y
135 y,1/2-z,1/2+x
136 z,1/2+x,1/2-y
137 z,1/2-x,1/2+y
138 -y,1/2+z,1/2+x
139 -y,1/2-x,1/2+z
140 y,1/2+x,1/2+z
141 x,1/2-z,1/2-y
142 x,1/2+z,1/2+y
143 -z,1/2+y,1/2-x
144 z,1/2+y,1/2+x
145 1/2-x,-y,1/2-z
146 1/2+y,-x,1/2-z
147 1/2+x,y,1/2-z
148 1/2-y,x,1/2-z
149 1/2-x,z,1/2-y
150 1/2-x,y,1/2+z
151 1/2-x,-z,1/2+y
152 1/2-z,-y,1/2+x
153 1/2+x,-y,1/2+z
154 1/2+z,-y,1/2-x
155 1/2-z,-x,1/2-y
156 1/2-y,-z,1/2-x
157 1/2+y,z,1/2-x
158 1/2-z,x,1/2+y
159 1/2+y,-z,1/2+x
160 1/2+z,x,1/2-y
161 1/2+z,-x,1/2+y
162 1/2-y,z,1/2+x
163 1/2-y,-x,1/2+z
164 1/2+y,x,1/2+z
165 1/2+x,-z,1/2-y
166 1/2+x,z,1/2+y
167 1/2-z,y,1/2-x
168 1/2+z,y,1/2+x
169 1/2-x,1/2-y,-z
170 1/2+y,1/2-x,-z
171 1/2+x,1/2+y,-z
172 1/2-y,1/2+x,-z
173 1/2-x,1/2+z,-y
174 1/2-x,1/2+y,z
175 1/2-x,1/2-z,y
176 1/2-z,1/2-y,x
177 1/2+x,1/2-y,z
178 1/2+z,1/2-y,-x
179 1/2-z,1/2-x,-y
180 1/2-y,1/2-z,-x
181 1/2+y,1/2+z,-x
182 1/2-z,1/2+x,y
183 1/2+y,1/2-z,x
184 1/2+z,1/2+x,-y
185 1/2+z,1/2-x,y
186 1/2-y,1/2+z,x
187 1/2-y,1/2-x,z
188 1/2+y,1/2+x,z
189 1/2+x,1/2-z,-y
190 1/2+x,1/2+z,y
191 1/2-z,1/2+y,-x
192 1/2+z,1/2+y,x
_cell_length_a                   29.861(2)
_cell_length_b                   29.861(2)
_cell_length_c                   29.861(2)
_cell_angle_alpha                90
_cell_angle_beta                 90
_cell_angle_gamma                90
_cell_volume                     26626.4
loop_
_atom_site_label
_atom_site_type_symbol
_atom_site_fract_x
_atom_site_fract_y
_atom_site_fract_z
Zr1 Zr 0.5000 0.08259(3) 0.5000
O1 O 0.56385(18) 0.11936(17) 0.5000
O2 O 0.5410(2) 0.0410(2) 0.5410(2)
C1 C 0.6043(3) 0.1043(3) 0.5000
C2 C 0.6408(4) 0.1408(4) 0.5000
C3 C 0.7037(5) 0.2037(5) 0.5000
Br1 Br 0.7385(7) 0.2615(7) 0.4260(2)
C4 C 0.7379(4) 0.2379(4) 0.4853(5)
C5 C 0.6607(4) 0.2183(5) 0.4853(5)
H1 H 0.6549 0.2473 0.4757
C6 C 0.6279(5) 0.1844(3) 0.4866(4)
H2 H 0.5983 0.1906 0.4789
O1S O 0.88064(17) 0.43615(18) 0.5000
C1S C 0.8957(3) 0.3957(3) 0.5000
C2S C 0.8592(4) 0.3592(4) 0.5000
C3S C 0.7963(5) 0.2963(5) 0.5000
Br1S Br 0.7385(7) 0.2615(7) 0.5740(2)
C4S C 0.7621(4) 0.2621(4) 0.5147(5)
C5S C 0.7817(5) 0.3393(4) 0.5147(5)
H1S H 0.7527 0.3451 0.5243
C6S C 0.8156(3) 0.3721(5) 0.5134(4)
H2S H 0.8094 0.4017 0.5211
O1VB O 0.93615(18) 0.38064(17) 0.5000
Br1VB Br 0.7615(7) 0.2385(7) 0.4260(2)
C4VB C 0.7621(4) 0.2621(4) 0.4853(5)
C5VB C 0.8393(4) 0.2817(5) 0.4853(5)
H1VB H 0.8451 0.2527 0.4757
C6VB C 0.8721(5) 0.3156(3) 0.4866(4)
H2VB H 0.9017 0.3094 0.4789
O1LC O 0.61936(17) 0.06385(18) 0.5000
Br1LC Br 0.7615(7) 0.2385(7) 0.5740(2)
C4LC C 0.7379(4) 0.2379(4) 0.5147(5)
C5LC C 0.7183(5) 0.1607(4) 0.5147(5)
H1LC H 0.7473 0.1549 0.5243
C6LC C 0.6844(3) 0.1279(5) 0.5134(4)
H2LC H 0.6906 0.0983 0.5211
C5TC C 0.6607(4) 0.2183(5) 0.5147(5)
H1TC H 0.6549 0.2473 0.5243
C6TC C 0.6279(5) 0.1844(3) 0.5134(4)
H2TC H 0.5983 0.1906 0.5211
C5JD C 0.7817(5) 0.3393(4) 0.4853(5)
H1JD H 0.7527 0.3451 0.4757
C6JD C 0.8156(3) 0.3721(5) 0.4866(4)
H2JD H 0.8094 0.4017 0.4789
C5LF C 0.8393(4) 0.2817(5) 0.5147(5)
H1LF H 0.8451 0.2527 0.5243
C6LF C 0.8721(5) 0.3156(3) 0.5134(4)
H2LF H 0.9017 0.3094 0.5211
C5EG C 0.7183(5) 0.1607(4) 0.4853(5)
H1EG H 0.7473 0.1549 0.4757
C6EG C 0.6844(3) 0.1279(5) 0.4866(4)
H2EG H 0.6906 0.0983 0.4789
Zr1A Zr 0.91741(3) 0.5000 0.5000
O1A O 0.88064(17) 0.56385(18) 0.5000
C1A C 0.8957(3) 0.6043(3) 0.5000
C2A C 0.8592(4) 0.6408(4) 0.5000
C3A C 0.7963(5) 0.7037(5) 0.5000
Br1A Br 0.7385(7) 0.7385(7) 0.4260(2)
C4A C 0.7621(4) 0.7379(4) 0.4853(5)
C5A C 0.7817(5) 0.6607(4) 0.4853(5)
H1A H 0.7527 0.6549 0.4757
C6A C 0.8156(3) 0.6279(5) 0.4866(4)
H2A H 0.8094 0.5983 0.4789
O1E O 0.56385(18) 0.88064(17) 0.5000
C1E C 0.6043(3) 0.8957(3) 0.5000
C2E C 0.6408(4) 0.8592(4) 0.5000
C3E C 0.7037(5) 0.7963(5) 0.5000
Br1E Br 0.7385(7) 0.7385(7) 0.5740(2)
C4E C 0.7379(4) 0.7621(4) 0.5147(5)
C5E C 0.6607(4) 0.7817(5) 0.5147(5)
H1E H 0.6549 0.7527 0.5243
C6E C 0.6279(5) 0.8156(3) 0.5134(4)
H2E H 0.5983 0.8094 0.5211
O1WB O 0.61936(17) 0.93615(18) 0.5000
Br1WB Br 0.7615(7) 0.7615(7) 0.4260(2)
C4WB C 0.7379(4) 0.7621(4) 0.4853(5)
C5WB C 0.7183(5) 0.8393(4) 0.4853(5)
H1WB H 0.7473 0.8451 0.4757
C6WB C 0.6844(3) 0.8721(5) 0.4866(4)
H2WB H 0.6906 0.9017 0.4789
O1BC O 0.93615(18) 0.61936(17) 0.5000
Br1BC Br 0.7615(7) 0.7615(7) 0.5740(2)
C4BC C 0.7621(4) 0.7379(4) 0.5147(5)
C5BC C 0.8393(4) 0.7183(5) 0.5147(5)
H1BC H 0.8451 0.7473 0.5243
C6BC C 0.8721(5) 0.6844(3) 0.5134(4)
H2BC H 0.9017 0.6906 0.5211
C5UC C 0.7817(5) 0.6607(4) 0.5147(5)
H1UC H 0.7527 0.6549 0.5243
C6UC C 0.8156(3) 0.6279(5) 0.5134(4)
H2UC H 0.8094 0.5983 0.5211
C5ZC C 0.6607(4) 0.7817(5) 0.4853(5)
H1ZC H 0.6549 0.7527 0.4757
C6ZC C 0.6279(5) 0.8156(3) 0.4866(4)
H2ZC H 0.5983 0.8094 0.4789
C5MF C 0.7183(5) 0.8393(4) 0.5147(5)
H1MF H 0.7473 0.8451 0.5243
C6MF C 0.6844(3) 0.8721(5) 0.5134(4)
H2MF H 0.6906 0.9017 0.5211
C5QF C 0.8393(4) 0.7183(5) 0.4853(5)
H1QF H 0.8451 0.7473 0.4757
C6QF C 0.8721(5) 0.6844(3) 0.4866(4)
H2QF H 0.9017 0.6906 0.4789
Zr1C Zr 0.08259(3) 0.5000 0.5000
O1C O 0.11936(17) 0.43615(18) 0.5000
C1C C 0.1043(3) 0.3957(3) 0.5000
C2C C 0.1408(4) 0.3592(4) 0.5000
C3C C 0.2037(5) 0.2963(5) 0.5000
Br1C Br 0.2615(7) 0.2615(7) 0.4260(2)
C4C C 0.2379(4) 0.2621(4) 0.4853(5)
C5C C 0.2183(5) 0.3393(4) 0.4853(5)
H1C H 0.2473 0.3451 0.4757
C6C C 0.1844(3) 0.3721(5) 0.4866(4)
H2C H 0.1906 0.4017 0.4789
O1H O 0.43615(18) 0.11936(17) 0.5000
C1H C 0.3957(3) 0.1043(3) 0.5000
C2H C 0.3592(4) 0.1408(4) 0.5000
C3H C 0.2963(5) 0.2037(5) 0.5000
Br1H Br 0.2615(7) 0.2615(7) 0.5740(2)
C4H C 0.2621(4) 0.2379(4) 0.5147(5)
C5H C 0.3393(4) 0.2183(5) 0.5147(5)
H1H H 0.3451 0.2473 0.5243
C6H C 0.3721(5) 0.1844(3) 0.5134(4)
H2H H 0.4017 0.1906 0.5211
O1UB O 0.38064(17) 0.06385(18) 0.5000
Br1UB Br 0.2385(7) 0.2385(7) 0.4260(2)
C4UB C 0.2621(4) 0.2379(4) 0.4853(5)
C5UB C 0.2817(5) 0.1607(4) 0.4853(5)
H1UB H 0.2527 0.1549 0.4757
C6UB C 0.3156(3) 0.1279(5) 0.4866(4)
H2UB H 0.3094 0.0983 0.4789
O1YB O 0.06385(18) 0.38064(17) 0.5000
Br1YB Br 0.2385(7) 0.2385(7) 0.5740(2)
C4YB C 0.2379(4) 0.2621(4) 0.5147(5)
C5YB C 0.1607(4) 0.2817(5) 0.5147(5)
H1YB H 0.1549 0.2527 0.5243
C6YB C 0.1279(5) 0.3156(3) 0.5134(4)
H2YB H 0.0983 0.3094 0.5211
C5SC C 0.2183(5) 0.3393(4) 0.5147(5)
H1SC H 0.2473 0.3451 0.5243
C6SC C 0.1844(3) 0.3721(5) 0.5134(4)
H2SC H 0.1906 0.4017 0.5211
C5WC C 0.3393(4) 0.2183(5) 0.4853(5)
H1WC H 0.3451 0.2473 0.4757
C6WC C 0.3721(5) 0.1844(3) 0.4866(4)
H2WC H 0.4017 0.1906 0.4789
C5OF C 0.2817(5) 0.1607(4) 0.5147(5)
H1OF H 0.2527 0.1549 0.5243
C6OF C 0.3156(3) 0.1279(5) 0.5134(4)
H2OF H 0.3094 0.0983 0.5211
C5TF C 0.1607(4) 0.2817(5) 0.4853(5)
H1TF H 0.1549 0.2527 0.4757
C6TF C 0.1279(5) 0.3156(3) 0.4866(4)
H2TF H 0.0983 0.3094 0.4789
O2G O 0.5410(2) 0.0410(2) 0.4590(2)
O2H O 0.4590(2) 0.0410(2) 0.4590(2)
O2I O 0.4590(2) 0.0410(2) 0.5410(2)
Zr1B Zr 0.5000 0.91741(3) 0.5000
Zr1BA Zr 0.5000 0.0000 0.58259(3)
Zr1DA Zr 0.5000 0.0000 0.41741(3)
Zr1ZA Zr 0.0000 0.5000 0.58259(3)
Zr1ZA_2 Zr 1.0000 0.5000 0.58259(3)
Zr1BB Zr 0.0000 0.5000 0.41741(3)
Zr1BB_2 Zr 1.0000 0.5000 0.41741(3)
Zr1TB Zr 0.0000 0.58259(3) 0.5000
Zr1TB_2 Zr 1.0000 0.58259(3) 0.5000
Zr1UB Zr 0.41741(3) 0.0000 0.5000
Zr1VB Zr 0.0000 0.41741(3) 0.5000
Zr1VB_2 Zr 1.0000 0.41741(3) 0.5000
Zr1WB Zr 0.58259(3) 0.0000 0.5000
Zr1WB_2 Zr 0.58259(3) 1.0000 0.5000
O1G O 0.5000 0.11936(17) 0.43615(18)
O1I O 0.5000 0.11936(17) 0.56385(18)
O1K O 0.11936(17) 0.5000 0.56385(18)
O1L O 0.88064(17) 0.5000 0.56385(18)
O1N O 0.88064(17) 0.5000 0.43615(18)
O1Q O 0.11936(17) 0.5000 0.43615(18)
O1R O 0.11936(17) 0.56385(18) 0.5000
O2A O 0.9590(2) 0.5410(2) 0.5410(2)
O2C O 0.0410(2) 0.4590(2) 0.5410(2)
O2K O 0.0410(2) 0.5410(2) 0.5410(2)
O2L O 0.9590(2) 0.4590(2) 0.5410(2)
O2N O 0.9590(2) 0.5410(2) 0.4590(2)
O2Q O 0.0410(2) 0.4590(2) 0.4590(2)
O2R O 0.0410(2) 0.5410(2) 0.4590(2)
O2S O 0.9590(2) 0.4590(2) 0.4590(2)
loop_
_geom_bond_atom_site_label_1
_geom_bond_atom_site_label_2
_geom_bond_site_symmetry_1
_geom_bond_site_symmetry_2
Zr1 O1 1_555 1_555
O1 C1 1_555 1_555
O2 Zr1 1_555 1_555
C1 C2 1_555 1_555
C2 C6 1_555 1_555
C3 C4 1_555 1_555
Br1 C4 1_555 1_555
C4 C4S 1_555 1_555
C5 C3 1_555 1_555
H1 C5 1_555 1_555
C6 C5 1_555 1_555
H2 C6 1_555 1_555
O1S C1S 1_555 1_555
C1S C2S 1_555 1_555
C2S C6S 1_555 1_555
C3S C4S 1_555 1_555
Br1S C4S 1_555 1_555
C4S C4VB 1_555 1_555
C5S C3S 1_555 1_555
H1S C5S 1_555 1_555
C6S C5S 1_555 1_555
H2S C6S 1_555 1_555
O1VB C1S 1_555 1_555
Br1VB Br1 1_555 1_555
C4VB Br1 1_555 1_555
C5VB C3S 1_555 1_555
H1VB C5VB 1_555 1_555
C6VB C2S 1_555 1_555
H2VB C6VB 1_555 1_555
O1LC C1 1_555 1_555
Br1LC Br1S 1_555 1_555
C4LC C3 1_555 1_555
C5LC C3 1_555 1_555
H1LC C5LC 1_555 1_555
C6LC C2 1_555 1_555
H2LC C6LC 1_555 1_555
C5TC C3 1_555 1_555
H1TC C5TC 1_555 1_555
C6TC C2 1_555 1_555
H2TC C6TC 1_555 1_555
C5JD C3S 1_555 1_555
H1JD C5JD 1_555 1_555
C6JD C2S 1_555 1_555
H2JD C6JD 1_555 1_555
C5LF C3S 1_555 1_555
H1LF C5LF 1_555 1_555
C6LF C2S 1_555 1_555
H2LF C6LF 1_555 1_555
C5EG C3 1_555 1_555
H1EG C5EG 1_555 1_555
C6EG C2 1_555 1_555
H2EG C6EG 1_555 1_555
Zr1A O1S 1_555 1_555
O1A Zr1A 1_555 1_555
C1A O1A 1_555 1_555
C2A C1A 1_555 1_555
C3A C4A 1_555 1_555
Br1A C4A 1_555 1_555
C4A C4E 1_555 1_555
C5A C3A 1_555 1_555
H1A C5A 1_555 1_555
C6A C2A 1_555 1_555
H2A C6A 1_555 1_555
O1E C1E 1_555 1_555
C1E C2E 1_555 1_555
C2E C6E 1_555 1_555
C3E C4E 1_555 1_555
Br1E C4E 1_555 1_555
C4E C4WB 1_555 1_555
C5E C3E 1_555 1_555
H1E C5E 1_555 1_555
C6E C5E 1_555 1_555
H2E C6E 1_555 1_555
O1WB C1E 1_555 1_555
Br1WB Br1A 1_555 1_555
C4WB Br1A 1_555 1_555
C5WB C3E 1_555 1_555
H1WB C5WB 1_555 1_555
C6WB C2E 1_555 1_555
H2WB C6WB 1_555 1_555
O1BC C1A 1_555 1_555
Br1BC Br1E 1_555 1_555
C4BC C3A 1_555 1_555
C5BC C3A 1_555 1_555
H1BC C5BC 1_555 1_555
C6BC C2A 1_555 1_555
H2BC C6BC 1_555 1_555
C5UC C3A 1_555 1_555
H1UC C5UC 1_555 1_555
C6UC C2A 1_555 1_555
H2UC C6UC 1_555 1_555
C5ZC C3E 1_555 1_555
H1ZC C5ZC 1_555 1_555
C6ZC C2E 1_555 1_555
H2ZC C6ZC 1_555 1_555
C5MF C3E 1_555 1_555
H1MF C5MF 1_555 1_555
C6MF C2E 1_555 1_555
H2MF C6MF 1_555 1_555
C5QF C3A 1_555 1_555
H1QF C5QF 1_555 1_555
C6QF C2A 1_555 1_555
H2QF C6QF 1_555 1_555
Zr1C O1C 1_555 1_555
O1C C1C 1_555 1_555
C1C C2C 1_555 1_555
C2C C6C 1_555 1_555
C3C C4C 1_555 1_555
Br1C C4C 1_555 1_555
C4C C4H 1_555 1_555
C5C C3C 1_555 1_555
H1C C5C 1_555 1_555
C6C C5C 1_555 1_555
H2C C6C 1_555 1_555
O1H Zr1 1_555 1_555
C1H O1H 1_555 1_555
C2H C1H 1_555 1_555
C3H C4H 1_555 1_555
Br1H C4H 1_555 1_555
C4H C4UB 1_555 1_555
C5H C3H 1_555 1_555
H1H C5H 1_555 1_555
C6H C2H 1_555 1_555
H2H C6H 1_555 1_555
O1UB C1H 1_555 1_555
Br1UB Br1C 1_555 1_555
C4UB Br1C 1_555 1_555
C5UB C3H 1_555 1_555
H1UB C5UB 1_555 1_555
C6UB C2H 1_555 1_555
H2UB C6UB 1_555 1_555
O1YB C1C 1_555 1_555
Br1YB Br1H 1_555 1_555
C4YB C3C 1_555 1_555
C5YB C3C 1_555 1_555
H1YB C5YB 1_555 1_555
C6YB C2C 1_555 1_555
H2YB C6YB 1_555 1_555
C5SC C3C 1_555 1_555
H1SC C5SC 1_555 1_555
C6SC C2C 1_555 1_555
H2SC C6SC 1_555 1_555
C5WC C3H 1_555 1_555
H1WC C5WC 1_555 1_555
C6WC C2H 1_555 1_555
H2WC C6WC 1_555 1_555
C5OF C3H 1_555 1_555
H1OF C5OF 1_555 1_555
C6OF C2H 1_555 1_555
H2OF C6OF 1_555 1_555
C5TF C3C 1_555 1_555
H1TF C5TF 1_555 1_555
C6TF C2C 1_555 1_555
H2TF C6TF 1_555 1_555
O2G Zr1 1_555 1_555
O2H Zr1 1_555 1_555
O2I Zr1 1_555 1_555
Zr1B O1E 1_555 1_555
Zr1BA Zr1 1_555 1_555
Zr1DA Zr1 1_555 1_555
Zr1ZA Zr1C 1_555 1_555
Zr1ZA_2 Zr1A 1_555 1_555
Zr1BB Zr1C 1_555 1_555
Zr1BB_2 Zr1A 1_555 1_555
Zr1TB Zr1C 1_555 1_555
Zr1TB_2 Zr1A 1_555 1_555
Zr1UB Zr1 1_555 1_555
Zr1VB Zr1C 1_555 1_555
Zr1VB_2 O1VB 1_555 1_555
Zr1WB Zr1 1_555 1_555
Zr1WB_2 O1WB 1_555 1_555
O1G Zr1 1_555 1_555
O1I Zr1 1_555 1_555
O1K Zr1C 1_555 1_555
O1L Zr1A 1_555 1_555
O1N Zr1A 1_555 1_555
O1Q Zr1C 1_555 1_555
O1R Zr1C 1_555 1_555
O2A Zr1A 1_555 1_555
O2C Zr1C 1_555 1_555
O2K Zr1C 1_555 1_555
O2L Zr1A 1_555 1_555
O2N Zr1A 1_555 1_555
O2Q Zr1C 1_555 1_555
O2R Zr1C 1_555 1_555
O2S Zr1A 1_555 1_555
O2 Zr1BA 1_555 1_555
O2 Zr1WB 1_555 1_555
C4 Br1VB 1_555 1_555
C4 C4VB 1_555 1_555
C4 C4LC 1_555 1_555
C5 C5TC 1_555 1_555
C5 C6TC 1_555 1_555
C6 C5TC 1_555 1_555
C6 C6TC 1_555 1_555
C3S C4VB 1_555 1_555
Br1S C4LC 1_555 1_555
C4S Br1LC 1_555 1_555
C4S C4LC 1_555 1_555
C5S C5JD 1_555 1_555
C5S C6JD 1_555 1_555
C6S C5JD 1_555 1_555
C6S C6JD 1_555 1_555
Br1VB C4VB 1_555 1_555
C4VB C4LC 1_555 1_555
C5VB C6VB 1_555 1_555
C5VB C5LF 1_555 1_555
C5VB C6LF 1_555 1_555
C6VB C5LF 1_555 1_555
C6VB C6LF 1_555 1_555
O1LC Zr1WB 1_555 1_555
Br1LC C4LC 1_555 1_555
C5LC C6LC 1_555 1_555
C5LC C5EG 1_555 1_555
C5LC C6EG 1_555 1_555
C6LC C5EG 1_555 1_555
C6LC C6EG 1_555 1_555
C5TC C6TC 1_555 1_555
C5JD C6JD 1_555 1_555
C5LF C6LF 1_555 1_555
C5EG C6EG 1_555 1_555
Zr1A Zr1VB_2 1_555 1_555
C4A Br1WB 1_555 1_555
C4A C4WB 1_555 1_555
C4A C4BC 1_555 1_555
C5A C6A 1_555 1_555
C5A C5UC 1_555 1_555
C5A C6UC 1_555 1_555
C6A C5UC 1_555 1_555
C6A C6UC 1_555 1_555
C3E C4WB 1_555 1_555
Br1E C4BC 1_555 1_555
C4E Br1BC 1_555 1_555
C4E C4BC 1_555 1_555
C5E C5ZC 1_555 1_555
C5E C6ZC 1_555 1_555
C6E C5ZC 1_555 1_555
C6E C6ZC 1_555 1_555
Br1WB C4WB 1_555 1_555
C4WB C4BC 1_555 1_555
C5WB C6WB 1_555 1_555
C5WB C5MF 1_555 1_555
C5WB C6MF 1_555 1_555
C6WB C5MF 1_555 1_555
C6WB C6MF 1_555 1_555
O1BC Zr1TB_2 1_555 1_555
Br1BC C4BC 1_555 1_555
C5BC C6BC 1_555 1_555
C5BC C5QF 1_555 1_555
C5BC C6QF 1_555 1_555
C6BC C5QF 1_555 1_555
C6BC C6QF 1_555 1_555
C5UC C6UC 1_555 1_555
C5ZC C6ZC 1_555 1_555
C5MF C6MF 1_555 1_555
C5QF C6QF 1_555 1_555
C4C Br1UB 1_555 1_555
C4C C4UB 1_555 1_555
C4C C4YB 1_555 1_555
C5C C5SC 1_555 1_555
C5C C6SC 1_555 1_555
C6C C5SC 1_555 1_555
C6C C6SC 1_555 1_555
C3H C4UB 1_555 1_555
Br1H C4YB 1_555 1_555
C4H Br1YB 1_555 1_555
C4H C4YB 1_555 1_555
C5H C6H 1_555 1_555
C5H C5WC 1_555 1_555
C5H C6WC 1_555 1_555
C6H C5WC 1_555 1_555
C6H C6WC 1_555 1_555
O1UB Zr1UB 1_555 1_555
Br1UB C4UB 1_555 1_555
C4UB C4YB 1_555 1_555
C5UB C6UB 1_555 1_555
C5UB C5OF 1_555 1_555
C5UB C6OF 1_555 1_555
C6UB C5OF 1_555 1_555
C6UB C6OF 1_555 1_555
O1YB Zr1VB 1_555 1_555
Br1YB C4YB 1_555 1_555
C5YB C6YB 1_555 1_555
C5YB C5TF 1_555 1_555
C5YB C6TF 1_555 1_555
C6YB C5TF 1_555 1_555
C6YB C6TF 1_555 1_555
C5SC C6SC 1_555 1_555
C5WC C6WC 1_555 1_555
C5OF C6OF 1_555 1_555
C5TF C6TF 1_555 1_555
O2G Zr1DA 1_555 1_555
O2G Zr1WB 1_555 1_555
O2H Zr1DA 1_555 1_555
O2H Zr1UB 1_555 1_555
O2I Zr1BA 1_555 1_555
O2I Zr1UB 1_555 1_555
Zr1B Zr1WB_2 1_555 1_555
Zr1BA Zr1UB 1_555 1_555
Zr1BA Zr1WB 1_555 1_555
Zr1DA Zr1UB 1_555 1_555
Zr1DA Zr1WB 1_555 1_555
Zr1ZA Zr1TB 1_555 1_555
Zr1ZA Zr1VB 1_555 1_555
Zr1ZA O2C 1_555 1_555
Zr1ZA O2K 1_555 1_555
Zr1ZA_2 Zr1TB_2 1_555 1_555
Zr1ZA_2 Zr1VB_2 1_555 1_555
Zr1ZA_2 O2A 1_555 1_555
Zr1ZA_2 O2L 1_555 1_555
Zr1BB Zr1TB 1_555 1_555
Zr1BB Zr1VB 1_555 1_555
Zr1BB O2Q 1_555 1_555
Zr1BB O2R 1_555 1_555
Zr1BB_2 Zr1TB_2 1_555 1_555
Zr1BB_2 Zr1VB_2 1_555 1_555
Zr1BB_2 O2N 1_555 1_555
Zr1BB_2 O2S 1_555 1_555
Zr1TB O2K 1_555 1_555
Zr1TB O2R 1_555 1_555
Zr1TB_2 O2A 1_555 1_555
Zr1TB_2 O2N 1_555 1_555
Zr1VB O2C 1_555 1_555
Zr1VB O2Q 1_555 1_555
Zr1VB_2 O2L 1_555 1_555
Zr1VB_2 O2S 1_555 1_555

#END
