
#######################################################################
#
#                 Cambridge Crystallographic Data Centre
#                                CCDC 
#
#######################################################################
#
# If this CIF has been generated from an entry in the Cambridge 
# Structural Database, then it will include bibliographic, chemical, 
# crystal, experimental, refinement or atomic coordinate data resulting 
# from the CCDC's data processing and validation procedures.
#
#######################################################################

data_RUKFAG
_chemical_formula_moiety         'C78 H48 Br12 Hf17 O31'
_symmetry_cell_setting           cubic
_symmetry_space_group_name_H-M   'F m -3 m'
_symmetry_Int_Tables_number      225
_space_group_name_Hall           '-F 4 2 3'
loop_
_symmetry_equiv_pos_site_id
_symmetry_equiv_pos_as_xyz
1 x,y,z
2 -y,x,z
3 -x,-y,z
4 y,-x,z
5 x,-z,y
6 x,-y,-z
7 x,z,-y
8 z,y,-x
9 -x,y,-z
10 -z,y,x
11 z,x,y
12 y,z,x
13 -y,-z,x
14 z,-x,-y
15 -y,z,-x
16 -z,-x,y
17 -z,x,-y
18 y,-z,-x
19 y,x,-z
20 -y,-x,-z
21 -x,z,y
22 -x,-z,-y
23 z,-y,x
24 -z,-y,-x
25 x,1/2+y,1/2+z
26 -y,1/2+x,1/2+z
27 -x,1/2-y,1/2+z
28 y,1/2-x,1/2+z
29 x,1/2-z,1/2+y
30 x,1/2-y,1/2-z
31 x,1/2+z,1/2-y
32 z,1/2+y,1/2-x
33 -x,1/2+y,1/2-z
34 -z,1/2+y,1/2+x
35 z,1/2+x,1/2+y
36 y,1/2+z,1/2+x
37 -y,1/2-z,1/2+x
38 z,1/2-x,1/2-y
39 -y,1/2+z,1/2-x
40 -z,1/2-x,1/2+y
41 -z,1/2+x,1/2-y
42 y,1/2-z,1/2-x
43 y,1/2+x,1/2-z
44 -y,1/2-x,1/2-z
45 -x,1/2+z,1/2+y
46 -x,1/2-z,1/2-y
47 z,1/2-y,1/2+x
48 -z,1/2-y,1/2-x
49 1/2+x,y,1/2+z
50 1/2-y,x,1/2+z
51 1/2-x,-y,1/2+z
52 1/2+y,-x,1/2+z
53 1/2+x,-z,1/2+y
54 1/2+x,-y,1/2-z
55 1/2+x,z,1/2-y
56 1/2+z,y,1/2-x
57 1/2-x,y,1/2-z
58 1/2-z,y,1/2+x
59 1/2+z,x,1/2+y
60 1/2+y,z,1/2+x
61 1/2-y,-z,1/2+x
62 1/2+z,-x,1/2-y
63 1/2-y,z,1/2-x
64 1/2-z,-x,1/2+y
65 1/2-z,x,1/2-y
66 1/2+y,-z,1/2-x
67 1/2+y,x,1/2-z
68 1/2-y,-x,1/2-z
69 1/2-x,z,1/2+y
70 1/2-x,-z,1/2-y
71 1/2+z,-y,1/2+x
72 1/2-z,-y,1/2-x
73 1/2+x,1/2+y,z
74 1/2-y,1/2+x,z
75 1/2-x,1/2-y,z
76 1/2+y,1/2-x,z
77 1/2+x,1/2-z,y
78 1/2+x,1/2-y,-z
79 1/2+x,1/2+z,-y
80 1/2+z,1/2+y,-x
81 1/2-x,1/2+y,-z
82 1/2-z,1/2+y,x
83 1/2+z,1/2+x,y
84 1/2+y,1/2+z,x
85 1/2-y,1/2-z,x
86 1/2+z,1/2-x,-y
87 1/2-y,1/2+z,-x
88 1/2-z,1/2-x,y
89 1/2-z,1/2+x,-y
90 1/2+y,1/2-z,-x
91 1/2+y,1/2+x,-z
92 1/2-y,1/2-x,-z
93 1/2-x,1/2+z,y
94 1/2-x,1/2-z,-y
95 1/2+z,1/2-y,x
96 1/2-z,1/2-y,-x
97 -x,-y,-z
98 y,-x,-z
99 x,y,-z
100 -y,x,-z
101 -x,z,-y
102 -x,y,z
103 -x,-z,y
104 -z,-y,x
105 x,-y,z
106 z,-y,-x
107 -z,-x,-y
108 -y,-z,-x
109 y,z,-x
110 -z,x,y
111 y,-z,x
112 z,x,-y
113 z,-x,y
114 -y,z,x
115 -y,-x,z
116 y,x,z
117 x,-z,-y
118 x,z,y
119 -z,y,-x
120 z,y,x
121 -x,1/2-y,1/2-z
122 y,1/2-x,1/2-z
123 x,1/2+y,1/2-z
124 -y,1/2+x,1/2-z
125 -x,1/2+z,1/2-y
126 -x,1/2+y,1/2+z
127 -x,1/2-z,1/2+y
128 -z,1/2-y,1/2+x
129 x,1/2-y,1/2+z
130 z,1/2-y,1/2-x
131 -z,1/2-x,1/2-y
132 -y,1/2-z,1/2-x
133 y,1/2+z,1/2-x
134 -z,1/2+x,1/2+y
135 y,1/2-z,1/2+x
136 z,1/2+x,1/2-y
137 z,1/2-x,1/2+y
138 -y,1/2+z,1/2+x
139 -y,1/2-x,1/2+z
140 y,1/2+x,1/2+z
141 x,1/2-z,1/2-y
142 x,1/2+z,1/2+y
143 -z,1/2+y,1/2-x
144 z,1/2+y,1/2+x
145 1/2-x,-y,1/2-z
146 1/2+y,-x,1/2-z
147 1/2+x,y,1/2-z
148 1/2-y,x,1/2-z
149 1/2-x,z,1/2-y
150 1/2-x,y,1/2+z
151 1/2-x,-z,1/2+y
152 1/2-z,-y,1/2+x
153 1/2+x,-y,1/2+z
154 1/2+z,-y,1/2-x
155 1/2-z,-x,1/2-y
156 1/2-y,-z,1/2-x
157 1/2+y,z,1/2-x
158 1/2-z,x,1/2+y
159 1/2+y,-z,1/2+x
160 1/2+z,x,1/2-y
161 1/2+z,-x,1/2+y
162 1/2-y,z,1/2+x
163 1/2-y,-x,1/2+z
164 1/2+y,x,1/2+z
165 1/2+x,-z,1/2-y
166 1/2+x,z,1/2+y
167 1/2-z,y,1/2-x
168 1/2+z,y,1/2+x
169 1/2-x,1/2-y,-z
170 1/2+y,1/2-x,-z
171 1/2+x,1/2+y,-z
172 1/2-y,1/2+x,-z
173 1/2-x,1/2+z,-y
174 1/2-x,1/2+y,z
175 1/2-x,1/2-z,y
176 1/2-z,1/2-y,x
177 1/2+x,1/2-y,z
178 1/2+z,1/2-y,-x
179 1/2-z,1/2-x,-y
180 1/2-y,1/2-z,-x
181 1/2+y,1/2+z,-x
182 1/2-z,1/2+x,y
183 1/2+y,1/2-z,x
184 1/2+z,1/2+x,-y
185 1/2+z,1/2-x,y
186 1/2-y,1/2+z,x
187 1/2-y,1/2-x,z
188 1/2+y,1/2+x,z
189 1/2+x,1/2-z,-y
190 1/2+x,1/2+z,y
191 1/2-z,1/2+y,-x
192 1/2+z,1/2+y,x
_cell_length_a                   29.825(2)
_cell_length_b                   29.825(2)
_cell_length_c                   29.825(2)
_cell_angle_alpha                90
_cell_angle_beta                 90
_cell_angle_gamma                90
_cell_volume                     26530.3
loop_
_atom_site_label
_atom_site_type_symbol
_atom_site_fract_x
_atom_site_fract_y
_atom_site_fract_z
Hf1 Hf 0.5000 0.08228(2) 0.5000
O1 O 0.56380(19) 0.11901(17) 0.5000
O2 O 0.5402(2) 0.0402(2) 0.5402(2)
C1 C 0.6042(3) 0.1042(3) 0.5000
C2 C 0.6406(4) 0.1406(4) 0.5000
C3 C 0.7039(5) 0.2039(5) 0.5000
Br1 Br 0.7655(4) 0.2345(4) 0.4259(2)
C4 C 0.6610(4) 0.2174(4) 0.4859(5)
H1 H 0.6551 0.2466 0.4767
C5 C 0.6272(4) 0.1840(3) 0.4867(5)
H2 H 0.5977 0.1903 0.4788
C6 C 0.7391(4) 0.2391(4) 0.4841(5)
O1S O 0.88099(17) 0.43620(19) 0.5000
C1S C 0.8958(3) 0.3958(3) 0.5000
C2S C 0.8594(4) 0.3594(4) 0.5000
C3S C 0.7961(5) 0.2961(5) 0.5000
Br1S Br 0.7655(4) 0.2345(4) 0.5741(2)
C4S C 0.7826(4) 0.3390(4) 0.5141(5)
H1S H 0.7534 0.3449 0.5233
C5S C 0.8160(3) 0.3728(4) 0.5133(5)
H2S H 0.8097 0.4023 0.5212
C6S C 0.7609(4) 0.2609(4) 0.5159(5)
O1VB O 0.93620(19) 0.38099(17) 0.5000
Br1VB Br 0.7345(4) 0.2655(4) 0.4259(2)
C4VB C 0.8390(4) 0.2826(4) 0.4859(5)
H1VB H 0.8449 0.2534 0.4767
C5VB C 0.8728(4) 0.3160(3) 0.4867(5)
H2VB H 0.9023 0.3097 0.4788
C6VB C 0.7609(4) 0.2609(4) 0.4841(5)
O1LC O 0.61901(17) 0.06380(19) 0.5000
Br1LC Br 0.7345(4) 0.2655(4) 0.5741(2)
C4LC C 0.7174(4) 0.1610(4) 0.5141(5)
H1LC H 0.7466 0.1551 0.5233
C5LC C 0.6840(3) 0.1272(4) 0.5133(5)
H2LC H 0.6903 0.0977 0.5212
C6LC C 0.7391(4) 0.2391(4) 0.5159(5)
C4TC C 0.6610(4) 0.2174(4) 0.5141(5)
H1TC H 0.6551 0.2466 0.5233
C5TC C 0.6272(4) 0.1840(3) 0.5133(5)
H2TC H 0.5977 0.1903 0.5212
C4JD C 0.7826(4) 0.3390(4) 0.4859(5)
H1JD H 0.7534 0.3449 0.4767
C5JD C 0.8160(3) 0.3728(4) 0.4867(5)
H2JD H 0.8097 0.4023 0.4788
C4LF C 0.8390(4) 0.2826(4) 0.5141(5)
H1LF H 0.8449 0.2534 0.5233
C5LF C 0.8728(4) 0.3160(3) 0.5133(5)
H2LF H 0.9023 0.3097 0.5212
C4EG C 0.7174(4) 0.1610(4) 0.4859(5)
H1EG H 0.7466 0.1551 0.4767
C5EG C 0.6840(3) 0.1272(4) 0.4867(5)
H2EG H 0.6903 0.0977 0.4788
Hf1A Hf 0.91772(2) 0.5000 0.5000
O1A O 0.88099(17) 0.56380(19) 0.5000
C1A C 0.8958(3) 0.6042(3) 0.5000
C2A C 0.8594(4) 0.6406(4) 0.5000
C3A C 0.7961(5) 0.7039(5) 0.5000
Br1A Br 0.7655(4) 0.7655(4) 0.4259(2)
C4A C 0.7826(4) 0.6610(4) 0.4859(5)
H1A H 0.7534 0.6551 0.4767
C5A C 0.8160(3) 0.6272(4) 0.4867(5)
H2A H 0.8097 0.5977 0.4788
C6A C 0.7609(4) 0.7391(4) 0.4841(5)
O1E O 0.56380(19) 0.88099(17) 0.5000
C1E C 0.6042(3) 0.8958(3) 0.5000
C2E C 0.6406(4) 0.8594(4) 0.5000
C3E C 0.7039(5) 0.7961(5) 0.5000
Br1E Br 0.7655(4) 0.7655(4) 0.5741(2)
C4E C 0.6610(4) 0.7826(4) 0.5141(5)
H1E H 0.6551 0.7534 0.5233
C5E C 0.6272(4) 0.8160(3) 0.5133(5)
H2E H 0.5977 0.8097 0.5212
C6E C 0.7391(4) 0.7609(4) 0.5159(5)
O1WB O 0.61901(17) 0.93620(19) 0.5000
Br1WB Br 0.7345(4) 0.7345(4) 0.4259(2)
C4WB C 0.7174(4) 0.8390(4) 0.4859(5)
H1WB H 0.7466 0.8449 0.4767
C5WB C 0.6840(3) 0.8728(4) 0.4867(5)
H2WB H 0.6903 0.9023 0.4788
C6WB C 0.7391(4) 0.7609(4) 0.4841(5)
O1BC O 0.93620(19) 0.61901(17) 0.5000
Br1BC Br 0.7345(4) 0.7345(4) 0.5741(2)
C4BC C 0.8390(4) 0.7174(4) 0.5141(5)
H1BC H 0.8449 0.7466 0.5233
C5BC C 0.8728(4) 0.6840(3) 0.5133(5)
H2BC H 0.9023 0.6903 0.5212
C6BC C 0.7609(4) 0.7391(4) 0.5159(5)
C4UC C 0.7826(4) 0.6610(4) 0.5141(5)
H1UC H 0.7534 0.6551 0.5233
C5UC C 0.8160(3) 0.6272(4) 0.5133(5)
H2UC H 0.8097 0.5977 0.5212
C4ZC C 0.6610(4) 0.7826(4) 0.4859(5)
H1ZC H 0.6551 0.7534 0.4767
C5ZC C 0.6272(4) 0.8160(3) 0.4867(5)
H2ZC H 0.5977 0.8097 0.4788
C4MF C 0.7174(4) 0.8390(4) 0.5141(5)
H1MF H 0.7466 0.8449 0.5233
C5MF C 0.6840(3) 0.8728(4) 0.5133(5)
H2MF H 0.6903 0.9023 0.5212
C4QF C 0.8390(4) 0.7174(4) 0.4859(5)
H1QF H 0.8449 0.7466 0.4767
C5QF C 0.8728(4) 0.6840(3) 0.4867(5)
H2QF H 0.9023 0.6903 0.4788
Hf1C Hf 0.08228(2) 0.5000 0.5000
O1C O 0.11901(17) 0.43620(19) 0.5000
C1C C 0.1042(3) 0.3958(3) 0.5000
C2C C 0.1406(4) 0.3594(4) 0.5000
C3C C 0.2039(5) 0.2961(5) 0.5000
Br1C Br 0.2345(4) 0.2345(4) 0.4259(2)
C4C C 0.2174(4) 0.3390(4) 0.4859(5)
H1C H 0.2466 0.3449 0.4767
C5C C 0.1840(3) 0.3728(4) 0.4867(5)
H2C H 0.1903 0.4023 0.4788
C6C C 0.2391(4) 0.2609(4) 0.4841(5)
O1H O 0.43620(19) 0.11901(17) 0.5000
C1H C 0.3958(3) 0.1042(3) 0.5000
C2H C 0.3594(4) 0.1406(4) 0.5000
C3H C 0.2961(5) 0.2039(5) 0.5000
Br1H Br 0.2345(4) 0.2345(4) 0.5741(2)
C4H C 0.3390(4) 0.2174(4) 0.5141(5)
H1H H 0.3449 0.2466 0.5233
C5H C 0.3728(4) 0.1840(3) 0.5133(5)
H2H H 0.4023 0.1903 0.5212
C6H C 0.2609(4) 0.2391(4) 0.5159(5)
O1UB O 0.38099(17) 0.06380(19) 0.5000
Br1UB Br 0.2655(4) 0.2655(4) 0.4259(2)
C4UB C 0.2826(4) 0.1610(4) 0.4859(5)
H1UB H 0.2534 0.1551 0.4767
C5UB C 0.3160(3) 0.1272(4) 0.4867(5)
H2UB H 0.3097 0.0977 0.4788
C6UB C 0.2609(4) 0.2391(4) 0.4841(5)
O1YB O 0.06380(19) 0.38099(17) 0.5000
Br1YB Br 0.2655(4) 0.2655(4) 0.5741(2)
C4YB C 0.1610(4) 0.2826(4) 0.5141(5)
H1YB H 0.1551 0.2534 0.5233
C5YB C 0.1272(4) 0.3160(3) 0.5133(5)
H2YB H 0.0977 0.3097 0.5212
C6YB C 0.2391(4) 0.2609(4) 0.5159(5)
C4SC C 0.2174(4) 0.3390(4) 0.5141(5)
H1SC H 0.2466 0.3449 0.5233
C5SC C 0.1840(3) 0.3728(4) 0.5133(5)
H2SC H 0.1903 0.4023 0.5212
C4WC C 0.3390(4) 0.2174(4) 0.4859(5)
H1WC H 0.3449 0.2466 0.4767
C5WC C 0.3728(4) 0.1840(3) 0.4867(5)
H2WC H 0.4023 0.1903 0.4788
C4OF C 0.2826(4) 0.1610(4) 0.5141(5)
H1OF H 0.2534 0.1551 0.5233
C5OF C 0.3160(3) 0.1272(4) 0.5133(5)
H2OF H 0.3097 0.0977 0.5212
C4TF C 0.1610(4) 0.2826(4) 0.4859(5)
H1TF H 0.1551 0.2534 0.4767
C5TF C 0.1272(4) 0.3160(3) 0.4867(5)
H2TF H 0.0977 0.3097 0.4788
O2G O 0.5402(2) 0.0402(2) 0.4598(2)
O2H O 0.4598(2) 0.0402(2) 0.4598(2)
O2I O 0.4598(2) 0.0402(2) 0.5402(2)
Hf1B Hf 0.5000 0.91772(2) 0.5000
Hf1BA Hf 0.5000 0.0000 0.58228(2)
Hf1DA Hf 0.5000 0.0000 0.41772(2)
Hf1ZA Hf 0.0000 0.5000 0.58228(2)
Hf1ZA_2 Hf 1.0000 0.5000 0.58228(2)
Hf1BB Hf 0.0000 0.5000 0.41772(2)
Hf1BB_2 Hf 1.0000 0.5000 0.41772(2)
Hf1TB Hf 0.0000 0.58228(2) 0.5000
Hf1TB_2 Hf 1.0000 0.58228(2) 0.5000
Hf1UB Hf 0.41772(2) 0.0000 0.5000
Hf1VB Hf 0.0000 0.41772(2) 0.5000
Hf1VB_2 Hf 1.0000 0.41772(2) 0.5000
Hf1WB Hf 0.58228(2) 0.0000 0.5000
Hf1WB_2 Hf 0.58228(2) 1.0000 0.5000
O1G O 0.5000 0.11901(17) 0.43620(19)
O1I O 0.5000 0.11901(17) 0.56380(19)
O1K O 0.11901(17) 0.5000 0.56380(19)
O1L O 0.88099(17) 0.5000 0.56380(19)
O1N O 0.88099(17) 0.5000 0.43620(19)
O1Q O 0.11901(17) 0.5000 0.43620(19)
O1R O 0.11901(17) 0.56380(19) 0.5000
O2A O 0.9598(2) 0.5402(2) 0.5402(2)
O2C O 0.0402(2) 0.4598(2) 0.5402(2)
O2K O 0.0402(2) 0.5402(2) 0.5402(2)
O2L O 0.9598(2) 0.4598(2) 0.5402(2)
O2N O 0.9598(2) 0.5402(2) 0.4598(2)
O2Q O 0.0402(2) 0.4598(2) 0.4598(2)
O2R O 0.0402(2) 0.5402(2) 0.4598(2)
O2S O 0.9598(2) 0.4598(2) 0.4598(2)
loop_
_geom_bond_atom_site_label_1
_geom_bond_atom_site_label_2
_geom_bond_site_symmetry_1
_geom_bond_site_symmetry_2
Hf1 O1 1_555 1_555
O1 C1 1_555 1_555
O2 Hf1 1_555 1_555
C1 C2 1_555 1_555
C2 C5 1_555 1_555
C3 C4 1_555 1_555
Br1 C6 1_555 1_555
C4 H1 1_555 1_555
C5 C4 1_555 1_555
H2 C5 1_555 1_555
C6 C3 1_555 1_555
O1S C1S 1_555 1_555
C1S C2S 1_555 1_555
C2S C5S 1_555 1_555
C3S C4S 1_555 1_555
Br1S C6S 1_555 1_555
C4S H1S 1_555 1_555
C5S C4S 1_555 1_555
H2S C5S 1_555 1_555
C6S C6 1_555 1_555
O1VB C1S 1_555 1_555
Br1VB Br1 1_555 1_555
C4VB C3S 1_555 1_555
H1VB C4VB 1_555 1_555
C5VB C2S 1_555 1_555
H2VB C5VB 1_555 1_555
C6VB Br1 1_555 1_555
O1LC C1 1_555 1_555
Br1LC Br1S 1_555 1_555
C4LC C3 1_555 1_555
H1LC C4LC 1_555 1_555
C5LC C2 1_555 1_555
H2LC C5LC 1_555 1_555
C6LC C3 1_555 1_555
C4TC C3 1_555 1_555
H1TC C4TC 1_555 1_555
C5TC C2 1_555 1_555
H2TC C5TC 1_555 1_555
C4JD C3S 1_555 1_555
H1JD C4JD 1_555 1_555
C5JD C2S 1_555 1_555
H2JD C5JD 1_555 1_555
C4LF C3S 1_555 1_555
H1LF C4LF 1_555 1_555
C5LF C2S 1_555 1_555
H2LF C5LF 1_555 1_555
C4EG C3 1_555 1_555
H1EG C4EG 1_555 1_555
C5EG C2 1_555 1_555
H2EG C5EG 1_555 1_555
Hf1A O1S 1_555 1_555
O1A Hf1A 1_555 1_555
C1A O1A 1_555 1_555
C2A C1A 1_555 1_555
C3A C4A 1_555 1_555
Br1A C6A 1_555 1_555
C4A H1A 1_555 1_555
C5A C2A 1_555 1_555
H2A C5A 1_555 1_555
C6A C3A 1_555 1_555
O1E C1E 1_555 1_555
C1E C2E 1_555 1_555
C2E C5E 1_555 1_555
C3E C4E 1_555 1_555
Br1E C6E 1_555 1_555
C4E H1E 1_555 1_555
C5E C4E 1_555 1_555
H2E C5E 1_555 1_555
C6E C6A 1_555 1_555
O1WB C1E 1_555 1_555
Br1WB Br1A 1_555 1_555
C4WB C3E 1_555 1_555
H1WB C4WB 1_555 1_555
C5WB C2E 1_555 1_555
H2WB C5WB 1_555 1_555
C6WB Br1A 1_555 1_555
O1BC C1A 1_555 1_555
Br1BC Br1E 1_555 1_555
C4BC C3A 1_555 1_555
H1BC C4BC 1_555 1_555
C5BC C2A 1_555 1_555
H2BC C5BC 1_555 1_555
C6BC C3A 1_555 1_555
C4UC C3A 1_555 1_555
H1UC C4UC 1_555 1_555
C5UC C2A 1_555 1_555
H2UC C5UC 1_555 1_555
C4ZC C3E 1_555 1_555
H1ZC C4ZC 1_555 1_555
C5ZC C2E 1_555 1_555
H2ZC C5ZC 1_555 1_555
C4MF C3E 1_555 1_555
H1MF C4MF 1_555 1_555
C5MF C2E 1_555 1_555
H2MF C5MF 1_555 1_555
C4QF C3A 1_555 1_555
H1QF C4QF 1_555 1_555
C5QF C2A 1_555 1_555
H2QF C5QF 1_555 1_555
Hf1C O1C 1_555 1_555
O1C C1C 1_555 1_555
C1C C2C 1_555 1_555
C2C C5C 1_555 1_555
C3C C4C 1_555 1_555
Br1C C6C 1_555 1_555
C4C H1C 1_555 1_555
C5C C4C 1_555 1_555
H2C C5C 1_555 1_555
C6C C3C 1_555 1_555
O1H Hf1 1_555 1_555
C1H O1H 1_555 1_555
C2H C1H 1_555 1_555
C3H C4H 1_555 1_555
Br1H C6H 1_555 1_555
C4H H1H 1_555 1_555
C5H C2H 1_555 1_555
H2H C5H 1_555 1_555
C6H C6C 1_555 1_555
O1UB C1H 1_555 1_555
Br1UB Br1C 1_555 1_555
C4UB C3H 1_555 1_555
H1UB C4UB 1_555 1_555
C5UB C2H 1_555 1_555
H2UB C5UB 1_555 1_555
C6UB Br1C 1_555 1_555
O1YB C1C 1_555 1_555
Br1YB Br1H 1_555 1_555
C4YB C3C 1_555 1_555
H1YB C4YB 1_555 1_555
C5YB C2C 1_555 1_555
H2YB C5YB 1_555 1_555
C6YB C3C 1_555 1_555
C4SC C3C 1_555 1_555
H1SC C4SC 1_555 1_555
C5SC C2C 1_555 1_555
H2SC C5SC 1_555 1_555
C4WC C3H 1_555 1_555
H1WC C4WC 1_555 1_555
C5WC C2H 1_555 1_555
H2WC C5WC 1_555 1_555
C4OF C3H 1_555 1_555
H1OF C4OF 1_555 1_555
C5OF C2H 1_555 1_555
H2OF C5OF 1_555 1_555
C4TF C3C 1_555 1_555
H1TF C4TF 1_555 1_555
C5TF C2C 1_555 1_555
H2TF C5TF 1_555 1_555
O2G Hf1 1_555 1_555
O2H Hf1 1_555 1_555
O2I Hf1 1_555 1_555
Hf1B O1E 1_555 1_555
Hf1BA Hf1 1_555 1_555
Hf1DA Hf1 1_555 1_555
Hf1ZA Hf1C 1_555 1_555
Hf1ZA_2 Hf1A 1_555 1_555
Hf1BB Hf1C 1_555 1_555
Hf1BB_2 Hf1A 1_555 1_555
Hf1TB Hf1C 1_555 1_555
Hf1TB_2 Hf1A 1_555 1_555
Hf1UB Hf1 1_555 1_555
Hf1VB Hf1C 1_555 1_555
Hf1VB_2 O1VB 1_555 1_555
Hf1WB Hf1 1_555 1_555
Hf1WB_2 O1WB 1_555 1_555
O1G Hf1 1_555 1_555
O1I Hf1 1_555 1_555
O1K Hf1C 1_555 1_555
O1L Hf1A 1_555 1_555
O1N Hf1A 1_555 1_555
O1Q Hf1C 1_555 1_555
O1R Hf1C 1_555 1_555
O2A Hf1A 1_555 1_555
O2C Hf1C 1_555 1_555
O2K Hf1C 1_555 1_555
O2L Hf1A 1_555 1_555
O2N Hf1A 1_555 1_555
O2Q Hf1C 1_555 1_555
O2R Hf1C 1_555 1_555
O2S Hf1A 1_555 1_555
O2 Hf1BA 1_555 1_555
O2 Hf1WB 1_555 1_555
C4 C4TC 1_555 1_555
C4 C5TC 1_555 1_555
C5 C4TC 1_555 1_555
C5 C5TC 1_555 1_555
C6 Br1VB 1_555 1_555
C6 C6VB 1_555 1_555
C6 C6LC 1_555 1_555
C3S C6S 1_555 1_555
C3S C6VB 1_555 1_555
Br1S C6LC 1_555 1_555
C4S C4JD 1_555 1_555
C4S C5JD 1_555 1_555
C5S C4JD 1_555 1_555
C5S C5JD 1_555 1_555
C6S C6VB 1_555 1_555
C6S Br1LC 1_555 1_555
C6S C6LC 1_555 1_555
Br1VB C6VB 1_555 1_555
C4VB C5VB 1_555 1_555
C4VB C4LF 1_555 1_555
C4VB C5LF 1_555 1_555
C5VB C4LF 1_555 1_555
C5VB C5LF 1_555 1_555
C6VB C6LC 1_555 1_555
O1LC Hf1WB 1_555 1_555
Br1LC C6LC 1_555 1_555
C4LC C5LC 1_555 1_555
C4LC C4EG 1_555 1_555
C4LC C5EG 1_555 1_555
C5LC C4EG 1_555 1_555
C5LC C5EG 1_555 1_555
C4TC C5TC 1_555 1_555
C4JD C5JD 1_555 1_555
C4LF C5LF 1_555 1_555
C4EG C5EG 1_555 1_555
Hf1A Hf1VB_2 1_555 1_555
C4A C5A 1_555 1_555
C4A C4UC 1_555 1_555
C4A C5UC 1_555 1_555
C5A C4UC 1_555 1_555
C5A C5UC 1_555 1_555
C6A Br1WB 1_555 1_555
C6A C6WB 1_555 1_555
C6A C6BC 1_555 1_555
C3E C6E 1_555 1_555
C3E C6WB 1_555 1_555
Br1E C6BC 1_555 1_555
C4E C4ZC 1_555 1_555
C4E C5ZC 1_555 1_555
C5E C4ZC 1_555 1_555
C5E C5ZC 1_555 1_555
C6E C6WB 1_555 1_555
C6E Br1BC 1_555 1_555
C6E C6BC 1_555 1_555
Br1WB C6WB 1_555 1_555
C4WB C5WB 1_555 1_555
C4WB C4MF 1_555 1_555
C4WB C5MF 1_555 1_555
C5WB C4MF 1_555 1_555
C5WB C5MF 1_555 1_555
C6WB C6BC 1_555 1_555
O1BC Hf1TB_2 1_555 1_555
Br1BC C6BC 1_555 1_555
C4BC C5BC 1_555 1_555
C4BC C4QF 1_555 1_555
C4BC C5QF 1_555 1_555
C5BC C4QF 1_555 1_555
C5BC C5QF 1_555 1_555
C4UC C5UC 1_555 1_555
C4ZC C5ZC 1_555 1_555
C4MF C5MF 1_555 1_555
C4QF C5QF 1_555 1_555
C4C C4SC 1_555 1_555
C4C C5SC 1_555 1_555
C5C C4SC 1_555 1_555
C5C C5SC 1_555 1_555
C6C Br1UB 1_555 1_555
C6C C6UB 1_555 1_555
C6C C6YB 1_555 1_555
C3H C6H 1_555 1_555
C3H C6UB 1_555 1_555
Br1H C6YB 1_555 1_555
C4H C5H 1_555 1_555
C4H C4WC 1_555 1_555
C4H C5WC 1_555 1_555
C5H C4WC 1_555 1_555
C5H C5WC 1_555 1_555
C6H C6UB 1_555 1_555
C6H Br1YB 1_555 1_555
C6H C6YB 1_555 1_555
O1UB Hf1UB 1_555 1_555
Br1UB C6UB 1_555 1_555
C4UB C5UB 1_555 1_555
C4UB C4OF 1_555 1_555
C4UB C5OF 1_555 1_555
C5UB C4OF 1_555 1_555
C5UB C5OF 1_555 1_555
C6UB C6YB 1_555 1_555
O1YB Hf1VB 1_555 1_555
Br1YB C6YB 1_555 1_555
C4YB C5YB 1_555 1_555
C4YB C4TF 1_555 1_555
C4YB C5TF 1_555 1_555
C5YB C4TF 1_555 1_555
C5YB C5TF 1_555 1_555
C4SC C5SC 1_555 1_555
C4WC C5WC 1_555 1_555
C4OF C5OF 1_555 1_555
C4TF C5TF 1_555 1_555
O2G Hf1DA 1_555 1_555
O2G Hf1WB 1_555 1_555
O2H Hf1DA 1_555 1_555
O2H Hf1UB 1_555 1_555
O2I Hf1BA 1_555 1_555
O2I Hf1UB 1_555 1_555
Hf1B Hf1WB_2 1_555 1_555
Hf1BA Hf1UB 1_555 1_555
Hf1BA Hf1WB 1_555 1_555
Hf1DA Hf1UB 1_555 1_555
Hf1DA Hf1WB 1_555 1_555
Hf1ZA Hf1TB 1_555 1_555
Hf1ZA Hf1VB 1_555 1_555
Hf1ZA O2C 1_555 1_555
Hf1ZA O2K 1_555 1_555
Hf1ZA_2 Hf1TB_2 1_555 1_555
Hf1ZA_2 Hf1VB_2 1_555 1_555
Hf1ZA_2 O2A 1_555 1_555
Hf1ZA_2 O2L 1_555 1_555
Hf1BB Hf1TB 1_555 1_555
Hf1BB Hf1VB 1_555 1_555
Hf1BB O2Q 1_555 1_555
Hf1BB O2R 1_555 1_555
Hf1BB_2 Hf1TB_2 1_555 1_555
Hf1BB_2 Hf1VB_2 1_555 1_555
Hf1BB_2 O2N 1_555 1_555
Hf1BB_2 O2S 1_555 1_555
Hf1TB O2K 1_555 1_555
Hf1TB O2R 1_555 1_555
Hf1TB_2 O2A 1_555 1_555
Hf1TB_2 O2N 1_555 1_555
Hf1VB O2C 1_555 1_555
Hf1VB O2Q 1_555 1_555
Hf1VB_2 O2L 1_555 1_555
Hf1VB_2 O2S 1_555 1_555

#END
