
#######################################################################
#
#                 Cambridge Crystallographic Data Centre
#                                CCDC 
#
#######################################################################
#
# If this CIF has been generated from an entry in the Cambridge 
# Structural Database, then it will include bibliographic, chemical, 
# crystal, experimental, refinement or atomic coordinate data resulting 
# from the CCDC's data processing and validation procedures.
#
#######################################################################

data_NEKBEL
_chemical_formula_moiety         '(C28 H22 Co3 N22 O5 W2)n'
_symmetry_cell_setting           monoclinic
_symmetry_space_group_name_H-M   'P 21/n'
_symmetry_Int_Tables_number      14
_space_group_name_Hall           '-P 2yn'
loop_
_symmetry_equiv_pos_site_id
_symmetry_equiv_pos_as_xyz
1 x,y,z
2 1/2-x,1/2+y,1/2-z
3 -x,-y,-z
4 1/2+x,1/2-y,1/2+z
_cell_length_a                   7.179(2)
_cell_length_b                   14.634(5)
_cell_length_c                   22.134(7)
_cell_angle_alpha                90
_cell_angle_beta                 91.121(14)
_cell_angle_gamma                90
_cell_volume                     2324.9
loop_
_atom_site_label
_atom_site_type_symbol
_atom_site_fract_x
_atom_site_fract_y
_atom_site_fract_z
W1 W 0.75978(12) 0.71503(6) 0.32251(4)
Co1 Co 0.2479(4) 0.4716(2) 0.23787(12)
Co2 Co 0.5000 0.5000 0.5000
O1 O 0.231(2) 0.5366(12) 0.1545(8)
O2 O 0.279(3) 0.5891(16) 0.5005(8)
N1 N 0.443(3) 0.5710(17) 0.2685(9)
N2 N 0.618(3) 0.5788(16) 0.4307(10)
N3 N 0.717(3) 0.8375(18) 0.4462(10)
N4 N 0.438(2) 0.8694(14) 0.2916(9)
N5 N 0.748(4) 0.7456(19) 0.1752(10)
N6 N 1.021(2) 0.5518(17) 0.2704(9)
N7 N 1.141(4) 0.688(2) 0.4079(14)
N8 N 1.037(2) 0.8892(15) 0.2912(9)
N9 N 0.364(3) 0.4154(14) 0.4289(9)
N10 N 0.273(2) 0.4057(13) 0.3260(8)
C1 C 0.550(3) 0.6251(16) 0.2866(10)
C2 C 0.674(4) 0.622(2) 0.3918(12)
C3 C 0.727(3) 0.7979(15) 0.4017(10)
C4 C 0.544(3) 0.8124(18) 0.3028(11)
C5 C 0.752(3) 0.7324(14) 0.2269(12)
C6 C 0.926(3) 0.6054(17) 0.2882(11)
C7 C 1.005(3) 0.7017(16) 0.3744(12)
C8 C 0.940(3) 0.8287(19) 0.3010(11)
C9 C 0.319(3) 0.4492(19) 0.3743(11)
C10 C 0.262(3) 0.3143(18) 0.3323(12)
C11 C 0.283(4) 0.271(2) 0.3876(14)
C12 C 0.342(4) 0.324(2) 0.4347(15)
H1 H 0.3235 0.5139 0.3713
H2 H 0.2079 0.2802 0.3000
H3 H 0.2514 0.2085 0.3935
H4 H 0.3792 0.2959 0.4717
W1B W 0.24022(12) 0.28497(6) 0.67749(4)
W1A W -0.25978(12) 0.21503(6) 0.17749(4)
W1_2 W -0.24022(12) 0.71503(6) 0.32251(4)
W1A_2 W 0.74022(12) 0.21503(6) 0.17749(4)
Co1B Co 0.7521(4) 0.5284(2) 0.76213(12)
Co1A Co 0.2521(4) 0.9716(2) 0.26213(12)
Co1_2 Co 1.2479(4) 0.4716(2) 0.23787(12)
Co1A_2 Co 1.2521(4) 0.9716(2) 0.26213(12)
O1B O 0.769(2) 0.4634(12) 0.8455(8)
O2B O 0.721(3) 0.4109(16) 0.4995(8)
N1B N 0.557(3) 0.4290(17) 0.7315(9)
N2B N 0.382(3) 0.4212(16) 0.5693(10)
N3B N 0.283(3) 0.1625(18) 0.5538(10)
N4A N 0.062(2) 0.3694(14) 0.2084(9)
N4C N 0.938(2) 0.6306(14) 0.7916(9)
N5B N 0.252(4) 0.2544(19) 0.8248(10)
N6_2 N 0.021(2) 0.5518(17) 0.2704(9)
N6B N 0.979(2) 0.4482(17) 0.7296(9)
N7B N -0.141(4) 0.312(2) 0.5921(14)
N8A N 0.463(2) 0.3892(15) 0.2088(9)
N8C N 0.537(2) 0.6108(15) 0.7912(9)
N9B N 0.636(3) 0.5846(14) 0.5711(9)
N10B N 0.727(2) 0.5943(13) 0.6740(8)
C1B C 0.450(3) 0.3749(16) 0.7134(10)
C2B C 0.326(4) 0.378(2) 0.6082(12)
C3B C 0.273(3) 0.2021(15) 0.5983(10)
C4A C -0.044(3) 0.3124(18) 0.1972(11)
C4B C 0.456(3) 0.1876(18) 0.6972(11)
C5B C 0.248(3) 0.2676(14) 0.7731(12)
C6_2 C -0.074(3) 0.6054(17) 0.2882(11)
C6B C 0.074(3) 0.3946(17) 0.7118(11)
C7B C -0.005(3) 0.2983(16) 0.6256(12)
C8A C 0.560(3) 0.3287(19) 0.1990(11)
C8B C 0.060(3) 0.1713(19) 0.6990(11)
C9B C 0.681(3) 0.5508(19) 0.6257(11)
C10B C 0.738(3) 0.6857(18) 0.6677(12)
C11B C 0.717(4) 0.729(2) 0.6124(14)
C12B C 0.658(4) 0.676(2) 0.5653(15)
H1B H 0.6765 0.4861 0.6287
H2B H 0.7921 0.7198 0.7000
H3B H 0.7486 0.7915 0.6065
H4B H 0.6208 0.7041 0.5283
O3 O -0.121(4) 0.400(2) 0.3904(13)
N11 N 0.892(3) 0.5556(17) 0.0947(12)
N12 N 0.563(3) 0.560(2) 0.0933(12)
C13 C 0.721(4) 0.543(2) 0.1177(15)
C14 C 0.564(5) 0.594(2) 0.035(2)
C15 C 0.727(5) 0.612(2) 0.0090(16)
C16 C 0.893(5) 0.591(2) 0.0388(16)
H5 H 0.7218 0.5178 0.1573
H6 H 0.4464 0.6134 0.0193
H7 H 0.7301 0.6301 -0.0323
H8 H 1.0134 0.6075 0.0252
loop_
_geom_bond_atom_site_label_1
_geom_bond_atom_site_label_2
_geom_bond_site_symmetry_1
_geom_bond_site_symmetry_2
W1 C1 1_555 1_555
Co1 O1 1_555 1_555
Co2 O2 1_555 1_555
N1 Co1 1_555 1_555
N2 Co2 1_555 1_555
N3 C3 1_555 1_555
N4 C4 1_555 1_555
N5 C5 1_555 1_555
N6 C6 1_555 1_555
N7 C7 1_555 1_555
N8 C8 1_555 1_555
N9 Co2 1_555 1_555
N10 Co1 1_555 1_555
N11 C13 1_555 1_555
N12 C13 1_555 1_555
C1 N1 1_555 1_555
C2 W1 1_555 1_555
C3 W1 1_555 1_555
C4 W1 1_555 1_555
C5 W1 1_555 1_555
C6 W1 1_555 1_555
C7 W1 1_555 1_555
C8 W1 1_555 1_555
C9 N9 1_555 1_555
C10 N10 1_555 1_555
C11 C10 1_555 1_555
C12 N9 1_555 1_555
C13 H5 1_555 1_555
C14 N12 1_555 1_555
C15 C14 1_555 1_555
C16 N11 1_555 1_555
H1 C9 1_555 1_555
H2 C10 1_555 1_555
H3 C11 1_555 1_555
H4 C12 1_555 1_555
H6 C14 1_555 1_555
H7 C15 1_555 1_555
H8 C16 1_555 1_555
W1B C1B 1_555 1_555
W1A C4A 1_555 1_555
W1_2 C6_2 1_555 1_555
W1A_2 C8A 1_555 1_555
Co1B O1B 1_555 1_555
Co1A N4 1_555 1_555
Co1_2 N6 1_555 1_555
Co1A_2 N8 1_555 1_555
O2B Co2 1_555 1_555
N1B Co1B 1_555 1_555
N2B Co2 1_555 1_555
N3B C3B 1_555 1_555
N4A Co1 1_555 1_555
N4C Co1B 1_555 1_555
N5B C5B 1_555 1_555
N6_2 Co1 1_555 1_555
N6B Co1B 1_555 1_555
N7B C7B 1_555 1_555
N8A Co1 1_555 1_555
N8C Co1B 1_555 1_555
N9B Co2 1_555 1_555
N10B Co1B 1_555 1_555
C1B N1B 1_555 1_555
C2B W1B 1_555 1_555
C3B W1B 1_555 1_555
C4A N4A 1_555 1_555
C4B W1B 1_555 1_555
C5B W1B 1_555 1_555
C6_2 N6_2 1_555 1_555
C6B W1B 1_555 1_555
C7B W1B 1_555 1_555
C8A N8A 1_555 1_555
C8B W1B 1_555 1_555
C9B N9B 1_555 1_555
C10B N10B 1_555 1_555
C11B C10B 1_555 1_555
C12B N9B 1_555 1_555
H1B C9B 1_555 1_555
H2B C10B 1_555 1_555
H3B C11B 1_555 1_555
H4B C12B 1_555 1_555
N2 C2 1_555 1_555
N10 C9 1_555 1_555
C11 C12 1_555 1_555
C15 C16 1_555 1_555
N2B C2B 1_555 1_555
N10B C9B 1_555 1_555
C11B C12B 1_555 1_555

#END
