
#######################################################################
#
#                 Cambridge Crystallographic Data Centre
#                                CCDC 
#
#######################################################################
#
# If this CIF has been generated from an entry in the Cambridge 
# Structural Database, then it will include bibliographic, chemical, 
# crystal, experimental, refinement or atomic coordinate data resulting 
# from the CCDC's data processing and validation procedures.
#
#######################################################################

data_CUTGEE
_chemical_formula_moiety         '(C6 H16 Co1 N2 O6 P2)n'
_symmetry_cell_setting           orthorhombic
_symmetry_space_group_name_H-M   'P 21 21 21'
_symmetry_Int_Tables_number      19
_space_group_name_Hall           'P 2ac 2ab'
loop_
_symmetry_equiv_pos_site_id
_symmetry_equiv_pos_as_xyz
1 x,y,z
2 1/2-x,-y,1/2+z
3 1/2+x,1/2-y,-z
4 -x,1/2+y,1/2-z
_cell_length_a                   10.1040(4)
_cell_length_b                   10.8100(5)
_cell_length_c                   10.9930(5)
_cell_angle_alpha                90
_cell_angle_beta                 90
_cell_angle_gamma                90
_cell_volume                     1200.7
loop_
_atom_site_label
_atom_site_type_symbol
_atom_site_fract_x
_atom_site_fract_y
_atom_site_fract_z
_atom_site_U_iso_or_equiv
_atom_site_thermal_displace_type
C1 C 0.4931(3) -0.3266(3) -0.1626(2) 0.0347 Uani
H1 H 0.4686 -0.2499 -0.2025 0.0420 Uiso
H2 H 0.5860 -0.3423 -0.1786 0.0420 Uiso
C2 C 0.4279(3) -0.5422(2) -0.1317(2) 0.0303 Uani
H3 H 0.5213 -0.5594 -0.1204 0.0360 Uiso
H4 H 0.3871 -0.6136 -0.1697 0.0360 Uiso
C3 C 0.2369(2) -0.3407(2) -0.0817(2) 0.0319 Uani
H5 H 0.2326 -0.2511 -0.0843 0.0380 Uiso
H6 H 0.1519 -0.3719 -0.0545 0.0380 Uiso
C4 C 0.4697(2) -0.3164(2) -0.0275(2) 0.0328 Uani
H7 H 0.5426 -0.3540 0.0165 0.0390 Uiso
H8 H 0.4643 -0.2300 -0.0040 0.0390 Uiso
C5 C 0.3622(2) -0.5162(2) -0.0081(2) 0.0301 Uani
H9 H 0.2775 -0.5582 -0.0033 0.0360 Uiso
H10 H 0.4180 -0.5462 0.0574 0.0360 Uiso
C6 C 0.2690(2) -0.3916(2) -0.2080(3) 0.0311 Uani
H11 H 0.2123 -0.4617 -0.2260 0.0370 Uiso
H12 H 0.2536 -0.3284 -0.2690 0.0370 Uiso
N1 N 0.41075(18) -0.43076(18) -0.2103(2) 0.0257 Uani
N2 N 0.34306(19) -0.38095(18) 0.00329(19) 0.0264 Uani
H14 H 0.437(3) -0.454(3) -0.302(3) 0.0480 Uiso
H16 H 0.327(3) -0.360(3) 0.080(3) 0.0560 Uiso
O1 O 0.20019(18) 0.02758(18) 0.54562(15) 0.0371 Uani
O2 O 0.5534(2) -0.34242(17) 0.2682(2) 0.0460 Uani
O3 O 0.30965(18) -0.30847(19) 0.22555(17) 0.0372 Uani
O4 O 0.19918(16) 0.02642(18) 0.31719(15) 0.0334 Uani
O5 O -0.00834(16) -0.0241(2) 0.42845(15) 0.0391 Uani
O6 O 0.46362(16) -0.13166(15) 0.2761(2) 0.0368 Uani
P1 P 0.14181(6) -0.02975(5) 0.43213(5) 0.0242 Uani
P2 P 0.43154(6) -0.26680(5) 0.29475(6) 0.0244 Uani
Co1 Co 0.35445(3) 0.00184(3) 0.21405(3) 0.0212 Uani
H13 H 0.168(3) -0.1531(10) 0.434(2) 0.0320 Uiso
H15 H 0.405(3) -0.277(4) 0.4166(11) 0.0720 Uiso
O1A O 0.29981(18) -0.02758(18) 0.04562(15) 0.0371 Uani
O2C O 0.4466(2) 0.15758(17) 0.2318(2) 0.0460 Uani
Co1A Co 0.14555(3) -0.00184(3) 0.71405(3) 0.0212 Uani
Co1C Co 0.64555(3) -0.49816(3) 0.28595(3) 0.0212 Uani
loop_
_atom_site_aniso_label
_atom_site_aniso_U_11
_atom_site_aniso_U_22
_atom_site_aniso_U_33
_atom_site_aniso_U_23
_atom_site_aniso_U_13
_atom_site_aniso_U_12
C1 0.0301(13) 0.0383(14) 0.0356(14) -0.0011(12) 0.0076(12) -0.0089(11)
C2 0.0315(12) 0.0271(12) 0.0322(13) -0.0035(10) 0.0003(11) 0.0058(10)
C3 0.0244(12) 0.0320(13) 0.0392(15) -0.0021(12) 0.0001(11) 0.0041(9)
C4 0.0277(12) 0.0348(13) 0.0358(14) -0.0088(11) 0.0001(11) -0.0090(11)
C5 0.0344(11) 0.0286(12) 0.0273(11) 0.0024(10) -0.0001(11) -0.0004(12)
C6 0.0265(11) 0.0373(13) 0.0296(12) 0.0002(12) -0.0060(11) 0.0052(10)
N1 0.0249(9) 0.0317(10) 0.0204(9) -0.0030(9) 0.0021(9) 0.0003(8)
N2 0.0265(10) 0.0298(10) 0.0229(10) -0.0055(8) 0.0029(10) -0.0013(9)
O1 0.0411(10) 0.0511(12) 0.0191(8) -0.0019(8) -0.0018(7) -0.0142(9)
O2 0.0477(11) 0.0269(9) 0.0633(14) 0.0056(10) 0.0122(11) 0.0137(8)
O3 0.0352(9) 0.0450(10) 0.0315(10) -0.0118(9) 0.0076(8) -0.0142(8)
O4 0.0306(8) 0.0474(11) 0.0222(9) 0.0020(8) 0.0077(7) 0.0022(8)
O5 0.0246(8) 0.0688(14) 0.0240(8) -0.0034(10) 0.0032(7) -0.0055(9)
O6 0.0342(9) 0.0204(8) 0.0559(12) -0.0007(9) -0.0132(9) 0.0015(8)
P1 0.0270(3) 0.0293(3) 0.0164(3) -0.0010(2) 0.0006(3) -0.0016(2)
P2 0.0301(3) 0.0196(3) 0.0236(3) -0.0009(2) 0.0023(3) 0.0021(2)
Co1 0.02211(14) 0.02190(15) 0.01953(15) -0.00003(13) 0.00067(12) -0.00081(13)
O1A 0.0411 0.0511 0.0191 0.0019 0.0018 -0.0142
O2C 0.0477 0.0269 0.0633 -0.0056 0.0122 -0.0137
Co1A 0.02211 0.0219 0.01953 3e-05 -0.00067 -0.00081
Co1C 0.02211 0.0219 0.01953 3e-05 0.00067 0.00081
loop_
_geom_bond_atom_site_label_1
_geom_bond_atom_site_label_2
_geom_bond_site_symmetry_1
_geom_bond_site_symmetry_2
C1 H1 1_555 1_555
H2 C1 1_555 1_555
C2 H3 1_555 1_555
H4 C2 1_555 1_555
C3 H5 1_555 1_555
H6 C3 1_555 1_555
C4 C1 1_555 1_555
H7 C4 1_555 1_555
H8 C4 1_555 1_555
C5 C2 1_555 1_555
H9 C5 1_555 1_555
H10 C5 1_555 1_555
C6 C3 1_555 1_555
H11 C6 1_555 1_555
H12 C6 1_555 1_555
N1 C1 1_555 1_555
N2 C3 1_555 1_555
O1 P1 1_555 1_555
O2 P2 1_555 1_555
O3 P2 1_555 1_555
O4 P1 1_555 1_555
O5 P1 1_555 1_555
O6 P2 1_555 1_555
P1 H13 1_555 1_555
P2 H15 1_555 1_555
Co1 O4 1_555 1_555
H14 N1 1_555 1_555
H16 N2 1_555 1_555
O1A Co1 1_555 1_555
O2C Co1 1_555 1_555
Co1A O1 1_555 1_555
Co1C O2 1_555 1_555
C2 N1 1_555 1_555
C4 N2 1_555 1_555
C5 N2 1_555 1_555
C6 N1 1_555 1_555
O6 Co1 1_555 1_555

#END
