
#######################################################################
#
#                 Cambridge Crystallographic Data Centre
#                                CCDC 
#
#######################################################################
#
# If this CIF has been generated from an entry in the Cambridge 
# Structural Database, then it will include bibliographic, chemical, 
# crystal, experimental, refinement or atomic coordinate data resulting 
# from the CCDC's data processing and validation procedures.
#
#######################################################################

data_CUTGII
_chemical_formula_moiety         '(C6 H16 Co1 N2 O6 P2)n'
_symmetry_cell_setting           orthorhombic
_symmetry_space_group_name_H-M   'P 21 21 21'
_symmetry_Int_Tables_number      19
_space_group_name_Hall           'P 2ac 2ab'
loop_
_symmetry_equiv_pos_site_id
_symmetry_equiv_pos_as_xyz
1 x,y,z
2 1/2-x,-y,1/2+z
3 1/2+x,1/2-y,-z
4 -x,1/2+y,1/2-z
_cell_length_a                   10.100(5)
_cell_length_b                   10.796(5)
_cell_length_c                   10.982(5)
_cell_angle_alpha                90
_cell_angle_beta                 90
_cell_angle_gamma                90
_cell_volume                     1197.47
loop_
_atom_site_label
_atom_site_type_symbol
_atom_site_fract_x
_atom_site_fract_y
_atom_site_fract_z
_atom_site_U_iso_or_equiv
_atom_site_thermal_displace_type
Co1 Co 0.35434(3) 0.00172(3) 0.28591(3) 0.0209 Uani
P1 P 0.35797(7) 0.02994(6) 0.56779(6) 0.0242 Uani
P2 P 0.43194(7) -0.26685(6) 0.20513(6) 0.0240 Uani
O1 O 0.46394(18) -0.13159(18) 0.2243(2) 0.0365 Uani
O2 O 0.30092(18) -0.0267(2) 0.68262(16) 0.0331 Uani
O3 O 0.50788(19) 0.0247(2) 0.57124(17) 0.0393 Uani
O4 O 0.3098(2) -0.3087(2) 0.27417(19) 0.0365 Uani
O5 O 0.5533(2) -0.3425(2) 0.2319(2) 0.0453 Uani
O6 O 0.2997(2) -0.0279(2) 0.45440(17) 0.0370 Uani
H13 H 0.332(3) 0.1599(17) 0.567(3) 0.0440 Uiso
H16 H 0.404(4) -0.275(4) 0.0781(19) 0.0830 Uiso
Co1A Co 0.14566(3) -0.00172(3) 0.78591(3) 0.0209 Uani
Co1C Co 0.64566(3) -0.49828(3) 0.21409(3) 0.0209 Uani
O2A O 0.19908(18) 0.0267(2) 0.18262(16) 0.0331 Uani
O5C O 0.4467(2) 0.1575(2) 0.2681(2) 0.0453 Uani
N1 N 0.3433(2) -0.3811(2) 0.4968(2) 0.0257 Uani
N2 N 0.4107(2) -0.4305(2) 0.7104(2) 0.0254 Uani
C1 C 0.2371(3) -0.3408(3) 0.5815(3) 0.0315 Uani
H1 H 0.1521 -0.3721 0.5542 0.0380 Uiso
H2 H 0.2327 -0.2510 0.5839 0.0380 Uiso
C2 C 0.3626(3) -0.5160(2) 0.5080(2) 0.0295 Uani
H3 H 0.4185 -0.5459 0.4425 0.0350 Uiso
H4 H 0.2780 -0.5582 0.5032 0.0350 Uiso
C3 C 0.4700(3) -0.3165(3) 0.5273(3) 0.0323 Uani
H5 H 0.4646 -0.2300 0.5037 0.0390 Uiso
H6 H 0.5428 -0.3543 0.4834 0.0390 Uiso
C4 C 0.4930(3) -0.3266(3) 0.6623(3) 0.0335 Uani
H7 H 0.5859 -0.3424 0.6784 0.0400 Uiso
H8 H 0.4685 -0.2497 0.7021 0.0400 Uiso
C5 C 0.2693(3) -0.3916(3) 0.7079(3) 0.0311 Uani
H9 H 0.2538 -0.3283 0.7689 0.0370 Uiso
H10 H 0.2127 -0.4618 0.7259 0.0370 Uiso
C6 C 0.4284(3) -0.5419(3) 0.6317(3) 0.0293 Uani
H11 H 0.3878 -0.6136 0.6697 0.0350 Uiso
H12 H 0.5219 -0.5590 0.6205 0.0350 Uiso
H14 H 0.331(4) -0.361(3) 0.422(4) 0.0510 Uiso
H15 H 0.434(4) -0.454(4) 0.795(4) 0.0550 Uiso
loop_
_atom_site_aniso_label
_atom_site_aniso_U_11
_atom_site_aniso_U_22
_atom_site_aniso_U_33
_atom_site_aniso_U_23
_atom_site_aniso_U_13
_atom_site_aniso_U_12
Co1 0.02188(16) 0.02055(17) 0.02022(17) 0.00015(15) -0.00074(12) -0.00079(15)
P1 0.0272(3) 0.0279(4) 0.0174(3) -0.0007(3) 0.0009(3) -0.0020(3)
P2 0.0298(3) 0.0183(3) 0.0240(3) 0.0008(3) -0.0019(3) 0.0021(3)
O1 0.0328(10) 0.0196(10) 0.0570(14) 0.0021(10) 0.0128(10) 0.0015(8)
O2 0.0298(10) 0.0464(13) 0.0231(10) 0.0015(9) 0.0066(7) 0.0027(9)
O3 0.0254(10) 0.0682(17) 0.0244(10) -0.0035(11) 0.0038(7) -0.0067(10)
O4 0.0341(10) 0.0425(12) 0.0330(11) 0.0105(10) -0.0069(8) -0.0137(9)
O5 0.0471(13) 0.0248(11) 0.0639(16) -0.0066(11) -0.0116(12) 0.0134(9)
O6 0.0409(11) 0.0501(14) 0.0201(10) -0.0021(9) -0.0004(8) -0.0148(10)
Co1A 0.02188 0.02055 0.02022 -0.00015 0.00074 -0.00079
Co1C 0.02188 0.02055 0.02022 -0.00015 -0.00074 0.00079
O2A 0.0298 0.0464 0.0231 -0.0015 -0.0066 0.0027
O5C 0.0471 0.0248 0.0639 0.0066 -0.0116 -0.0134
N1 0.0261(11) 0.0280(12) 0.0231(11) 0.0048(9) -0.0035(10) -0.0008(10)
N2 0.0240(11) 0.0307(12) 0.0214(11) 0.0024(10) -0.0022(9) 0.0003(9)
C1 0.0235(13) 0.0313(15) 0.0396(16) 0.0042(13) 0.0000(12) 0.0041(11)
C2 0.0329(13) 0.0284(14) 0.0273(13) -0.0032(11) 0.0005(11) 0.0003(13)
C3 0.0280(14) 0.0328(15) 0.0362(16) 0.0072(12) 0.0001(11) -0.0100(12)
C4 0.0290(15) 0.0348(16) 0.0366(16) 0.0005(13) -0.0080(12) -0.0071(12)
C5 0.0257(12) 0.0357(15) 0.0319(14) -0.0003(14) 0.0051(12) 0.0061(11)
C6 0.0314(13) 0.0264(14) 0.0300(14) 0.0033(11) -0.0019(12) 0.0064(12)
loop_
_geom_bond_atom_site_label_1
_geom_bond_atom_site_label_2
_geom_bond_site_symmetry_1
_geom_bond_site_symmetry_2
Co1 O1 1_555 1_555
P1 O2 1_555 1_555
P2 O1 1_555 1_555
O2 Co1A 1_555 1_555
O3 P1 1_555 1_555
O4 P2 1_555 1_555
O5 P2 1_555 1_555
N1 C1 1_555 1_555
O6 Co1 1_555 1_555
N2 C4 1_555 1_555
C1 H1 1_555 1_555
H2 C1 1_555 1_555
C2 N1 1_555 1_555
H3 C2 1_555 1_555
H4 C2 1_555 1_555
C3 N1 1_555 1_555
H5 C3 1_555 1_555
H6 C3 1_555 1_555
C4 C3 1_555 1_555
H7 C4 1_555 1_555
H8 C4 1_555 1_555
C5 N2 1_555 1_555
H9 C5 1_555 1_555
H10 C5 1_555 1_555
C6 N2 1_555 1_555
H11 C6 1_555 1_555
H12 C6 1_555 1_555
H13 P1 1_555 1_555
H14 N1 1_555 1_555
H15 N2 1_555 1_555
H16 P2 1_555 1_555
Co1C O5 1_555 1_555
O2A Co1 1_555 1_555
O5C Co1 1_555 1_555
P1 O6 1_555 1_555
C1 C5 1_555 1_555
C2 C6 1_555 1_555

#END
