
#######################################################################
#
#                 Cambridge Crystallographic Data Centre
#                                CCDC 
#
#######################################################################
#
# If this CIF has been generated from an entry in the Cambridge 
# Structural Database, then it will include bibliographic, chemical, 
# crystal, experimental, refinement or atomic coordinate data resulting 
# from the CCDC's data processing and validation procedures.
#
#######################################################################

data_YEKXOD
_chemical_formula_moiety         '(C34 H32 Cu2 N4 O10)n'
_symmetry_cell_setting           orthorhombic
_symmetry_space_group_name_H-M   'F d d d'
_symmetry_Int_Tables_number      70
_space_group_name_Hall           '-F 2uv 2vw'
loop_
_symmetry_equiv_pos_site_id
_symmetry_equiv_pos_as_xyz
1 x,y,z
2 3/4-x,3/4-y,z
3 3/4-x,y,3/4-z
4 x,3/4-y,3/4-z
5 x,1/2+y,1/2+z
6 3/4-x,1/4-y,1/2+z
7 3/4-x,1/2+y,1/4-z
8 x,1/4-y,1/4-z
9 1/2+x,y,1/2+z
10 1/4-x,3/4-y,1/2+z
11 1/4-x,y,1/4-z
12 1/2+x,3/4-y,1/4-z
13 1/2+x,1/2+y,z
14 1/4-x,1/4-y,z
15 1/4-x,1/2+y,3/4-z
16 1/2+x,1/4-y,3/4-z
17 -x,-y,-z
18 1/4+x,1/4+y,-z
19 1/4+x,-y,1/4+z
20 -x,1/4+y,1/4+z
21 -x,1/2-y,1/2-z
22 1/4+x,3/4+y,1/2-z
23 1/4+x,1/2-y,3/4+z
24 -x,3/4+y,3/4+z
25 1/2-x,-y,1/2-z
26 3/4+x,1/4+y,1/2-z
27 3/4+x,-y,3/4+z
28 1/2-x,1/4+y,3/4+z
29 1/2-x,1/2-y,-z
30 3/4+x,3/4+y,-z
31 3/4+x,1/2-y,1/4+z
32 1/2-x,3/4+y,1/4+z
_cell_length_a                   16.6727(11)
_cell_length_b                   30.982(2)
_cell_length_c                   33.554(2)
_cell_angle_alpha                90
_cell_angle_beta                 90
_cell_angle_gamma                90
_cell_volume                     17332.4
loop_
_atom_site_label
_atom_site_type_symbol
_atom_site_fract_x
_atom_site_fract_y
_atom_site_fract_z
_atom_site_U_iso_or_equiv
_atom_site_thermal_displace_type
O1 O 0.5801(2) 0.44513(11) 0.00844(10) 0.0340 Uani
O2 O 0.5801(2) 0.49822(11) -0.05536(10) 0.0327 Uani
O3 O 0.5885(2) 0.55141(11) -0.01049(10) 0.0333 Uani
C1 C 0.6824(3) 0.54992(15) -0.06252(14) 0.0277 Uani
C2 C 0.7170(3) 0.52802(17) -0.09462(15) 0.0360 Uani
H1 H 0.6955 0.5017 -0.1027 0.0430 Uiso
C3 C 0.7817(3) 0.54456(17) -0.11437(16) 0.0370 Uani
H2 H 0.8049 0.5290 -0.1351 0.0440 Uiso
C4 C 0.8134(3) 0.58457(15) -0.10364(14) 0.0292 Uani
C5 C 0.7791(3) 0.60653(16) -0.07177(14) 0.0307 Uani
H3 H 0.8001 0.6330 -0.0640 0.0370 Uiso
C6 C 0.7148(3) 0.58973(15) -0.05161(14) 0.0298 Uani
H4 H 0.6926 0.6050 -0.0305 0.0360 Uiso
C7 C 0.6121(3) 0.53181(14) -0.04120(14) 0.0271 Uani
C8 C 0.6110(3) 0.46302(14) 0.03860(14) 0.0271 Uani
C9 C 0.6821(3) 0.44083(15) 0.05669(14) 0.0286 Uani
C10 C 0.7132(3) 0.45378(15) 0.09334(14) 0.0282 Uani
H5 H 0.6904 0.4770 0.1068 0.0340 Uiso
C11 C 0.7775(3) 0.43221(15) 0.10975(14) 0.0304 Uani
H6 H 0.7974 0.4410 0.1343 0.0370 Uiso
C12 C 0.8134(3) 0.39746(15) 0.09027(14) 0.0307 Uani
C13 C 0.7825(3) 0.38538(17) 0.05309(15) 0.0372 Uani
H7 H 0.8063 0.3629 0.0391 0.0450 Uiso
C14 C 0.71745(18) 0.40637(10) 0.03702(9) 0.0362 Uani
H8 H 0.6969 0.3973 0.0126 0.0430 Uiso
O4 O 0.49101(18) 0.40946(10) -0.06032(9) 0.0418 Uani
C15 C 0.5458(6) 0.3865(3) -0.0688(3) 0.0459 Uani
H9 H 0.5955 0.3951 -0.0785 0.0550 Uiso
N1 N 0.5168(6) 0.3373(3) -0.0601(3) 0.0495 Uani
C16 C 0.5509(8) 0.3000(4) -0.0403(4) 0.0600 Uani
H10 H 0.5882 0.3093 -0.0203 0.0900 Uiso
H11 H 0.5088 0.2835 -0.0280 0.0900 Uiso
H12 H 0.5783 0.2823 -0.0595 0.0900 Uiso
C17 C 0.4592(9) 0.3289(5) -0.0930(5) 0.0653 Uani
H13 H 0.4433 0.3558 -0.1048 0.0980 Uiso
H14 H 0.4842 0.3110 -0.1128 0.0980 Uiso
H15 H 0.4128 0.3144 -0.0825 0.0980 Uiso
Cu1 Cu 0.49534(3) 0.468440(17) -0.026100(15) 0.0221 Uani
N2 N 0.8750 0.60418(19) -0.1250 0.0348 Uani
H16 H 0.8750 0.6319 -0.1250 0.0420 Uiso
N3 N 0.8750 0.3750 0.10868(18) 0.0343 Uani
H17 H 0.8750 0.3750 0.1343 0.0410 Uiso
O5 O 0.5870(2) 0.49779(11) 0.05417(10) 0.0334 Uani
O1A O 1.1699(2) 0.30487(11) 0.00844(10) 0.0340 Uani
O2B O 1.1699(2) 0.49822(11) -0.19464(10) 0.0327 Uani
O2A O 1.1699(2) 0.25178(11) -0.05536(10) 0.0327 Uani
O3B O 1.1615(2) 0.55141(11) -0.23951(10) 0.0333 Uani
O3P O 0.4115(2) 0.44859(11) 0.01049(10) 0.0333 Uani
O3CA O 1.3385(2) 0.30141(11) 0.01049(10) 0.0333 Uani
C1B C 1.0676(3) 0.54992(15) -0.18748(14) 0.0277 Uani
C2B C 1.0330(3) 0.52802(17) -0.15538(15) 0.0360 Uani
H1B H 1.0545 0.5017 -0.1473 0.0430 Uiso
C3B C 0.9683(3) 0.54456(17) -0.13563(16) 0.0370 Uani
H2B H 0.9451 0.5290 -0.1149 0.0440 Uiso
C4B C 0.9366(3) 0.58457(15) -0.14636(14) 0.0292 Uani
C5B C 0.9709(3) 0.60653(16) -0.17823(14) 0.0307 Uani
H3B H 0.9499 0.6330 -0.1860 0.0370 Uiso
C6B C 1.0352(3) 0.58973(15) -0.19839(14) 0.0298 Uani
H4B H 1.0574 0.6050 -0.2195 0.0360 Uiso
C7B C 1.1379(3) 0.53181(14) -0.20880(14) 0.0271 Uani
C8A C 1.1390(3) 0.28698(14) 0.03860(14) 0.0271 Uani
C9A C 1.0679(3) 0.30917(15) 0.05669(14) 0.0286 Uani
C10A C 1.0368(3) 0.29622(15) 0.09334(14) 0.0282 Uani
H5A H 1.0596 0.2730 0.1068 0.0340 Uiso
C11A C 0.9725(3) 0.31779(15) 0.10975(14) 0.0304 Uani
H6A H 0.9526 0.3090 0.1343 0.0370 Uiso
C12A C 0.9366(3) 0.35254(15) 0.09027(14) 0.0307 Uani
C13A C 0.9675(3) 0.36462(17) 0.05309(15) 0.0372 Uani
H7A H 0.9437 0.3871 0.0391 0.0450 Uiso
C14A C 1.03255(18) 0.34363(10) 0.03702(9) 0.0362 Uani
H8A H 1.0531 0.3527 0.0126 0.0430 Uiso
O4A O 1.25899(18) 0.34054(10) -0.06032(9) 0.0418 Uani
C15A C 1.2042(6) 0.3635(3) -0.0688(3) 0.0459 Uani
H9A H 1.1545 0.3549 -0.0785 0.0550 Uiso
N1A N 1.2332(6) 0.4127(3) -0.0601(3) 0.0495 Uani
C16A C 1.1991(8) 0.4500(4) -0.0403(4) 0.0600 Uani
H10A H 1.1618 0.4407 -0.0203 0.0900 Uiso
H11A H 1.2412 0.4665 -0.0280 0.0900 Uiso
H12A H 1.1717 0.4677 -0.0595 0.0900 Uiso
C17A C 1.2908(9) 0.4211(5) -0.0930(5) 0.0653 Uani
H13A H 1.3067 0.3942 -0.1048 0.0980 Uiso
H14A H 1.2658 0.4390 -0.1128 0.0980 Uiso
H15A H 1.3372 0.4356 -0.0825 0.0980 Uiso
Cu1A Cu 1.25466(3) 0.281560(17) -0.026100(15) 0.0221 Uani
Cu1P Cu 0.50466(3) 0.531560(17) 0.026100(15) 0.0221 Uani
Cu1CA Cu 1.24534(3) 0.218440(17) 0.026100(15) 0.0221 Uani
Cu1B Cu 1.25466(3) 0.468440(17) -0.223900(15) 0.0221 Uani
Cu1Z Cu 1.24534(3) 0.531560(17) -0.276100(15) 0.0221 Uani
O5A O 1.1630(2) 0.25221(11) 0.05417(10) 0.0334 Uani
O5P O 0.4130(2) 0.50221(11) -0.05417(10) 0.0334 Uani
O5CA O 1.3370(2) 0.24779(11) -0.05417(10) 0.0334 Uani
loop_
_atom_site_aniso_label
_atom_site_aniso_U_11
_atom_site_aniso_U_22
_atom_site_aniso_U_33
_atom_site_aniso_U_23
_atom_site_aniso_U_13
_atom_site_aniso_U_12
O1 0.0321(11) 0.0341(11) 0.0358(11) 0.0014(9) -0.0028(9) 0.0026(9)
O2 0.0306(11) 0.0341(11) 0.0334(11) 0.0016(9) 0.0033(9) -0.0023(9)
O3 0.0302(10) 0.0345(11) 0.0351(9) 0.0037(7) 0.0056(8) -0.0043(8)
C1 0.0261(13) 0.0283(13) 0.0286(13) 0.0014(10) 0.0012(10) -0.0001(10)
C2 0.0348(14) 0.0359(14) 0.0374(14) -0.0003(10) 0.0025(10) -0.0007(10)
C3 0.0359(14) 0.0373(14) 0.0378(14) -0.0015(10) 0.0035(10) -0.0009(10)
C4 0.0272(13) 0.0299(13) 0.0306(13) 0.0012(10) 0.0022(10) 0.0005(10)
C5 0.0292(13) 0.0304(13) 0.0324(13) -0.0008(10) 0.0017(10) -0.0004(10)
C6 0.0285(13) 0.0305(13) 0.0303(13) -0.0001(10) 0.0026(10) 0.0000(10)
C7 0.0260(13) 0.0277(13) 0.0277(13) 0.0024(10) -0.0004(10) 0.0006(10)
C8 0.0257(13) 0.0278(13) 0.0278(13) 0.0025(10) 0.0009(10) 0.0002(10)
C9 0.0268(13) 0.0295(13) 0.0295(13) 0.0019(10) 0.0001(10) 0.0006(10)
C10 0.0266(13) 0.0286(13) 0.0294(13) 0.0007(10) 0.0002(10) 0.0006(10)
C11 0.0294(13) 0.0315(13) 0.0304(13) 0.0002(10) -0.0008(10) 0.0008(10)
C12 0.0288(13) 0.0318(13) 0.0315(13) 0.0014(10) 0.0003(10) 0.0023(10)
C13 0.0363(14) 0.0379(14) 0.0373(14) -0.0021(10) -0.0004(10) 0.0031(10)
C14 0.0349(14) 0.0375(14) 0.0362(14) -0.0011(10) -0.0009(10) 0.0023(10)
O4 0.0439 0.0397 0.0417 -0.0064 0.0001 0.0017
C15 0.0448 0.046 0.0469 -0.0012 0.0015 0.0028
N1 0.0511 0.0461 0.0513 -0.0031 0.0014 0.0003
C16 0.061 0.058 0.061 0.0025 -0.0018 0.0027
C17 0.066 0.065 0.065 -0.0001 -0.0003 -0.0005
Cu1 0.014 0.0251 0.0271 0.0035 0.0008 0.0003
N2 0.0340(16) 0.0342(16) 0.0363(16) 0.000 0.0031(10) 0.000
N3 0.0331(16) 0.0360(16) 0.0337(16) 0.000 0.000 0.0025(10)
O5 0.0301(10) 0.0358(9) 0.0342(10) 0.0038(8) -0.0050(8) 0.0033(8)
O1A 0.0321 0.0341 0.0358 -0.0014 0.0028 0.0026
O2B 0.0306 0.0341 0.0334 -0.0016 0.0033 0.0023
O2A 0.0306 0.0341 0.0334 -0.0016 -0.0033 -0.0023
O3B 0.0302 0.0345 0.0351 -0.0037 0.0056 0.0043
O3P 0.0302 0.0345 0.0351 0.0037 0.0056 -0.0043
O3CA 0.0302 0.0345 0.0351 -0.0037 -0.0056 -0.0043
C1B 0.0261 0.0283 0.0286 -0.0014 0.0012 0.0001
C2B 0.0348 0.0359 0.0374 0.0003 0.0025 0.0007
C3B 0.0359 0.0373 0.0378 0.0015 0.0035 0.0009
C4B 0.0272 0.0299 0.0306 -0.0012 0.0022 -0.0005
C5B 0.0292 0.0304 0.0324 0.0008 0.0017 0.0004
C6B 0.0285 0.0305 0.0303 0.0001 0.0026 0
C7B 0.026 0.0277 0.0277 -0.0024 -0.0004 -0.0006
C8A 0.0257 0.0278 0.0278 -0.0025 -0.0009 0.0002
C9A 0.0268 0.0295 0.0295 -0.0019 -0.0001 0.0006
C10A 0.0266 0.0286 0.0294 -0.0007 -0.0002 0.0006
C11A 0.0294 0.0315 0.0304 -0.0002 0.0008 0.0008
C12A 0.0288 0.0318 0.0315 -0.0014 -0.0003 0.0023
C13A 0.0363 0.0379 0.0373 0.0021 0.0004 0.0031
C14A 0.0349 0.0375 0.0362 0.0011 0.0009 0.0023
O4A 0.0439 0.0397 0.0417 0.0064 -0.0001 0.0017
C15A 0.0448 0.046 0.0469 0.0012 -0.0015 0.0028
N1A 0.0511 0.0461 0.0513 0.0031 -0.0014 0.0003
C16A 0.061 0.058 0.061 -0.0025 0.0018 0.0027
C17A 0.066 0.065 0.065 0.0001 0.0003 -0.0005
Cu1A 0.014 0.0251 0.0271 -0.0035 -0.0008 0.0003
Cu1P 0.0140(3) 0.0251(3) 0.0271(3) 0.0035(2) 0.0008(2) 0.0003(2)
Cu1CA 0.014 0.0251 0.0271 -0.0035 -0.0008 0.0003
Cu1B 0.014 0.0251 0.0271 -0.0035 0.0008 -0.0003
Cu1Z 0.014 0.0251 0.0271 -0.0035 0.0008 -0.0003
O5A 0.0301 0.0358 0.0342 -0.0038 0.005 0.0033
O5P 0.0301 0.0358 0.0342 0.0038 -0.005 0.0033
O5CA 0.0301 0.0358 0.0342 -0.0038 0.005 0.0033
loop_
_geom_bond_atom_site_label_1
_geom_bond_atom_site_label_2
_geom_bond_site_symmetry_1
_geom_bond_site_symmetry_2
O1 C8 1_555 1_555
O2 C7 1_555 1_555
O3 C7 1_555 1_555
C1 C2 1_555 1_555
C2 H1 1_555 1_555
C3 C2 1_555 1_555
H2 C3 1_555 1_555
C4 C3 1_555 1_555
C5 C4 1_555 1_555
H3 C5 1_555 1_555
C6 C1 1_555 1_555
H4 C6 1_555 1_555
C7 C1 1_555 1_555
C8 C9 1_555 1_555
C9 C10 1_555 1_555
C10 H5 1_555 1_555
C11 C10 1_555 1_555
H6 C11 1_555 1_555
C12 C11 1_555 1_555
C13 C12 1_555 1_555
H7 C13 1_555 1_555
C14 C9 1_555 1_555
H8 C14 1_555 1_555
O4 C15 1_555 1_555
C15 H9 1_555 1_555
N1 C15 1_555 1_555
C16 N1 1_555 1_555
H10 C16 1_555 1_555
H11 C16 1_555 1_555
H12 C16 1_555 1_555
C17 N1 1_555 1_555
H13 C17 1_555 1_555
H14 C17 1_555 1_555
H15 C17 1_555 1_555
Cu1 O1 1_555 1_555
N2 C4 1_555 1_555
H16 N2 1_555 1_555
N3 C12 1_555 1_555
H17 N3 1_555 1_555
O5 C8 1_555 1_555
O1A C8A 1_555 1_555
O2B C7B 1_555 1_555
O2A Cu1A 1_555 1_555
O3B C7B 1_555 1_555
O3P Cu1 1_555 1_555
O3CA Cu1A 1_555 1_555
C1B C2B 1_555 1_555
C2B H1B 1_555 1_555
C3B C2B 1_555 1_555
H2B C3B 1_555 1_555
C4B N2 1_555 1_555
C5B C4B 1_555 1_555
H3B C5B 1_555 1_555
C6B C1B 1_555 1_555
H4B C6B 1_555 1_555
C7B C1B 1_555 1_555
C8A C9A 1_555 1_555
C9A C10A 1_555 1_555
C10A H5A 1_555 1_555
C11A C10A 1_555 1_555
H6A C11A 1_555 1_555
C12A N3 1_555 1_555
C13A C12A 1_555 1_555
H7A C13A 1_555 1_555
C14A C9A 1_555 1_555
H8A C14A 1_555 1_555
O4A C15A 1_555 1_555
C15A H9A 1_555 1_555
N1A C15A 1_555 1_555
C16A N1A 1_555 1_555
H10A C16A 1_555 1_555
H11A C16A 1_555 1_555
H12A C16A 1_555 1_555
C17A N1A 1_555 1_555
H13A C17A 1_555 1_555
H14A C17A 1_555 1_555
H15A C17A 1_555 1_555
Cu1A O1A 1_555 1_555
Cu1P O3 1_555 1_555
Cu1CA O5A 1_555 1_555
Cu1B O2B 1_555 1_555
Cu1Z O3B 1_555 1_555
O5A C8A 1_555 1_555
O5P Cu1 1_555 1_555
O5CA Cu1A 1_555 1_555
O2 Cu1 1_555 1_555
C5 C6 1_555 1_555
C13 C14 1_555 1_555
O4 Cu1 1_555 1_555
O5 Cu1P 1_555 1_555
C3B C4B 1_555 1_555
C5B C6B 1_555 1_555
C11A C12A 1_555 1_555
C13A C14A 1_555 1_555
O4A Cu1A 1_555 1_555

#END
