
#######################################################################
#
#                 Cambridge Crystallographic Data Centre
#                                CCDC 
#
#######################################################################
#
# If this CIF has been generated from an entry in the Cambridge 
# Structural Database, then it will include bibliographic, chemical, 
# crystal, experimental, refinement or atomic coordinate data resulting 
# from the CCDC's data processing and validation procedures.
#
#######################################################################

data_HIFTOG02
_chemical_formula_moiety         '(C48 H24 O26 Zn8)n'
_symmetry_cell_setting           rhombohedral
_symmetry_space_group_name_H-M   'R -3 m'
_symmetry_Int_Tables_number      166
_space_group_name_Hall           '-R 3 2"'
loop_
_symmetry_equiv_pos_site_id
_symmetry_equiv_pos_as_xyz
1 x,y,z
2 -y,x-y,z
3 -x+y,-x,z
4 y,x,-z
5 2/3+x,1/3+y,1/3+z
6 2/3-y,1/3+x-y,1/3+z
7 2/3-x+y,1/3-x,1/3+z
8 2/3+y,1/3+x,1/3-z
9 1/3+x,2/3+y,2/3+z
10 1/3+y,2/3+x,2/3-z
11 x-y,-y,-z
12 -x,-x+y,-z
13 1/3-y,2/3+x-y,2/3+z
14 1/3-x+y,2/3-x,2/3+z
15 1/3+x-y,2/3-y,2/3-z
16 1/3-x,2/3-x+y,2/3-z
17 2/3+x-y,1/3-y,1/3-z
18 2/3-x,1/3-x+y,1/3-z
19 -x,-y,-z
20 y,-x+y,-z
21 x-y,x,-z
22 -y,-x,z
23 1/3-x,2/3-y,2/3-z
24 1/3+y,2/3-x+y,2/3-z
25 1/3+x-y,2/3+x,2/3-z
26 1/3-y,2/3-x,2/3+z
27 2/3-x,1/3-y,1/3-z
28 2/3-y,1/3-x,1/3+z
29 -x+y,y,z
30 x,x-y,z
31 2/3+y,1/3-x+y,1/3-z
32 2/3+x-y,1/3+x,1/3-z
33 2/3-x+y,1/3+y,1/3+z
34 2/3+x,1/3+x-y,1/3+z
35 1/3-x+y,2/3+y,2/3+z
36 1/3+x,2/3+x-y,2/3+z
_cell_length_a                   18.452(6)
_cell_length_b                   18.452(6)
_cell_length_c                   44.933(6)
_cell_angle_alpha                90
_cell_angle_beta                 90
_cell_angle_gamma                120
_cell_volume                     13249
loop_
_atom_site_label
_atom_site_type_symbol
_atom_site_fract_x
_atom_site_fract_y
_atom_site_fract_z
Zn1 Zn 0.391318(19) 0.608682(19) -0.000651(12)
Zn2 Zn 0.3333 0.6667 0.05788(2)
O1 O 0.3333 0.6667 0.01414(13)
O2 O 0.43085(15) 0.56915(15) 0.03219(10)
O3 O 0.39060(15) 0.60940(15) 0.07315(11)
O4 O 0.3169(2) 0.5120(2) -0.02477(9)
C1 C 0.0921(2) 0.1842(4) -0.10670(16)
C2 C 0.1307(2) 0.2614(5) -0.08696(18)
C3 C 0.2123(4) 0.2966(4) -0.07787(18)
H1 H 0.2444 0.2730 -0.0837
C4 C 0.2475(4) 0.3679(4) -0.05985(17)
H2 H 0.3028 0.3911 -0.0537
C5 C 0.2018(2) 0.4038(5) -0.05115(18)
C6 C 0.2412(2) 0.4824(4) -0.03219(15)
Zn3 Zn 0.608627(19) 0.391373(19) 0.195230(12)
Zn4 Zn 0.6667 0.3333 0.13672(2)
O5 O 0.6667 0.3333 0.18059(13)
O6 O 0.60942(14) 0.39058(14) 0.12131(11)
O7 O 0.56925(15) 0.43075(15) 0.16215(10)
O8 O 0.1377(2) 0.1545(2) -0.11385(9)
C7 C 0.5745(2) 0.4255(2) 0.13457(15)
C8 C 0.5356(2) 0.4644(2) 0.11506(14)
C9 C 0.5392(2) 0.4608(2) 0.08479(15)
H3 H 0.5655 0.4345 0.0760
C10 C 0.5034(2) 0.4966(2) 0.06680(14)
H4 H 0.5062 0.4938 0.0462
C11 C 0.4967(3) 0.5033(3) 0.12754(17)
H5 H 0.4939 0.5061 0.1481
C12 C 0.4613(2) 0.5387(2) 0.10967(18)
H6 H 0.4351 0.5649 0.1186
C13 C 0.4641(2) 0.5359(2) 0.07937(15)
C14 C 0.4256(2) 0.5744(2) 0.06001(15)
Zn1B Zn 0.217364(27) 0.608682(19) -0.000651(12)
Zn1A Zn 0.391318(19) 0.782636(27) -0.000651(12)
Zn1F Zn 0.884031(27) 0.942015(19) 0.332682(12)
Zn1D Zn 1.057985(19) 0.942015(19) 0.332682(12)
O2A O 0.43085(15) 0.86170(21) 0.03219(10)
O2B O 0.13830(21) 0.56915(15) 0.03219(10)
O3A O 0.39060(15) 0.78120(21) 0.07315(11)
O3B O 0.21880(21) 0.60940(15) 0.07315(11)
O4BA O 0.1951(3) 0.5120(2) -0.02477(9)
O4U O 0.4880(2) 0.6831(2) -0.02477(9)
O4A O 0.4880(2) 0.8049(3) -0.02477(9)
O4FA O 0.8618(3) 0.8453(2) 0.30856(9)
O4D O 0.9836(2) 0.8453(2) 0.30856(9)
O4B O 0.1951(3) 0.6831(2) -0.02477(9)
O4CA O 0.3169(2) 0.8049(3) -0.02477(9)
C1A C 0.8158(4) 0.9079(4) -0.10670(16)
C1D C 0.7588(2) 0.5175(4) 0.22663(16)
C2A C 0.7386(5) 0.8693(5) -0.08696(18)
C2D C 0.7974(2) 0.5947(5) 0.24637(18)
C3BA C 0.0843(6) 0.2966(4) -0.07787(18)
C3U C 0.7034(4) 0.7877(4) -0.07787(18)
C3A C 0.7034(4) 0.9157(6) -0.07787(18)
C3FA C 0.7510(6) 0.6299(4) 0.25546(18)
C3D C 0.8790(4) 0.6299(4) 0.25546(18)
H1BA H 0.0286 0.2730 -0.0837
H1U H 0.7270 0.7556 -0.0837
H1A H 0.7270 0.9714 -0.0837
H1FA H 0.6953 0.6063 0.2496
H1D H 0.9111 0.6063 0.2496
C4BA C 0.1204(6) 0.3679(4) -0.05985(17)
C4U C 0.6321(4) 0.7525(4) -0.05985(17)
C4A C 0.6321(4) 0.8796(6) -0.05985(17)
C4FA C 0.7871(6) 0.7012(4) 0.27348(17)
C4D C 0.9142(4) 0.7012(4) 0.27348(17)
H2BA H 0.0883 0.3911 -0.0537
H2U H 0.6089 0.6972 -0.0537
H2A H 0.6089 0.9117 -0.0537
H2FA H 0.7550 0.7244 0.2796
H2D H 0.9695 0.7244 0.2796
C5U C 0.5962(5) 0.7982(2) -0.05115(18)
C5FA C 0.8687(5) 0.7371(5) 0.28218(18)
C6A C 0.5176(4) 0.7588(4) -0.03219(15)
C6D C 0.9079(2) 0.8157(4) 0.30114(15)
Zn3A Zn 0.608627(19) 1.217254(27) 0.195230(12)
Zn3B Zn -0.217254(27) 0.391373(19) 0.195230(12)
Zn3A_2 Zn 0.608627(19) 0.217254(27) 0.195230(12)
Zn3B_2 Zn 0.782746(27) 0.391373(19) 0.195230(12)
Zn3HA Zn 0.116079(27) 0.058040(19) -0.138103(12)
Zn3H Zn -0.058040(19) 0.058040(19) -0.138103(12)
Zn3IA Zn 0.941960(19) 0.883921(27) -0.138103(12)
Zn3H_2 Zn 0.941960(19) 1.058040(19) -0.138103(12)
Zn4_2 Zn 0.6667 1.3333 0.13672(2)
Zn4_3 Zn -0.3333 0.3333 0.13672(2)
O5_2 O 0.6667 1.3333 0.18059(13)
O5_3 O -0.3333 0.3333 0.18059(13)
O6A O 0.60942(14) 1.21884(20) 0.12131(11)
O6B O -0.21884(20) 0.39058(14) 0.12131(11)
O6A_2 O 0.60942(14) 0.21884(20) 0.12131(11)
O6B_2 O 0.78116(20) 0.39058(14) 0.12131(11)
O7A O 0.56925(15) 1.13850(21) 0.16215(10)
O7B O -0.13850(21) 0.43075(15) 0.16215(10)
O8BA O 0.0168(3) 0.1545(2) -0.11385(9)
O8U O 0.8455(2) 0.8623(2) -0.11385(9)
O8A O 0.8455(2) 0.9832(3) -0.11385(9)
O8FA O 0.6835(3) 0.4878(2) 0.21948(9)
O8D O 0.8044(2) 0.4878(2) 0.21948(9)
O8E O 0.5122(2) 0.3165(3) 0.21948(9)
O8F O 0.6835(3) 1.1956(2) 0.21948(9)
O8AA O 0.5122(2) 1.1956(2) 0.21948(9)
O8D_2 O -0.1956(2) 0.4878(2) 0.21948(9)
O8GA O -0.1956(2) 0.3165(3) 0.21948(9)
C7A C 0.5745(2) 1.1490(3) 0.13457(15)
C7B C -0.1490(3) 0.4255(2) 0.13457(15)
C8A C 0.5356(2) 1.0712(3) 0.11506(14)
C8B C -0.0712(3) 0.4644(2) 0.11506(14)
C9A C 0.5392(2) 1.0784(3) 0.08479(15)
C9B C -0.0784(3) 0.4608(2) 0.08479(15)
H3A H 0.5655 1.1310 0.0760
H3B H -0.1310 0.4345 0.0760
C10A C 0.5034(2) 1.0068(3) 0.06680(14)
C10B C -0.0068(3) 0.4966(2) 0.06680(14)
H4A H 0.5062 1.0124 0.0462
H4B H -0.0124 0.4938 0.0462
C11A C 0.4967(3) 0.9934(4) 0.12754(17)
C11B C 0.0066(4) 0.5033(3) 0.12754(17)
H5A H 0.4939 0.9878 0.1481
H5B H 0.0122 0.5061 0.1481
C12A C 0.4613(2) 0.9226(3) 0.10967(18)
C12B C 0.0774(3) 0.5387(2) 0.10967(18)
H6A H 0.4351 0.8702 0.1186
H6B H 0.1298 0.5649 0.1186
C13A C 0.4641(2) 0.9282(3) 0.07937(15)
C13B C 0.0718(3) 0.5359(2) 0.07937(15)
C14A C 0.4256(2) 0.8512(3) 0.06001(15)
C14B C 0.1488(3) 0.5744(2) 0.06001(15)
loop_
_geom_bond_atom_site_label_1
_geom_bond_atom_site_label_2
_geom_bond_site_symmetry_1
_geom_bond_site_symmetry_2
Zn1 O1 1_555 1_555
Zn2 O1 1_555 1_555
O1 Zn1B 1_555 1_555
O2 Zn1 1_555 1_555
O3 Zn2 1_555 1_555
O4 Zn1 1_555 1_555
C1 C2 1_555 1_555
C2 C3 1_555 1_555
C3 H1 1_555 1_555
C4 C3 1_555 1_555
H2 C4 1_555 1_555
C5 C4 1_555 1_555
C6 O4 1_555 1_555
Zn3 O5 1_555 1_555
Zn4 O5 1_555 1_555
O5 Zn3A_2 1_555 1_555
O6 Zn4 1_555 1_555
O7 Zn3 1_555 1_555
O8 C1 1_555 1_555
C7 O6 1_555 1_555
C8 C7 1_555 1_555
C9 C8 1_555 1_555
H3 C9 1_555 1_555
C10 C9 1_555 1_555
H4 C10 1_555 1_555
C11 C8 1_555 1_555
H5 C11 1_555 1_555
C12 C11 1_555 1_555
H6 C12 1_555 1_555
C13 C10 1_555 1_555
C14 O2 1_555 1_555
Zn1B O2B 1_555 1_555
Zn1A O1 1_555 1_555
Zn1F O4FA 1_555 1_555
Zn1D O4D 1_555 1_555
O2A Zn1A 1_555 1_555
O2B C14B 1_555 1_555
O3A Zn2 1_555 1_555
O3B Zn2 1_555 1_555
O4BA C6 1_555 1_555
O4U Zn1 1_555 1_555
O4A Zn1A 1_555 1_555
O4FA C6D 1_555 1_555
O4D C6D 1_555 1_555
O4B Zn1B 1_555 1_555
O4CA Zn1A 1_555 1_555
C1A C2A 1_555 1_555
C1D C2D 1_555 1_555
C2A C3U 1_555 1_555
C2D C3FA 1_555 1_555
C3BA C2 1_555 1_555
C3U H1U 1_555 1_555
C3A C2A 1_555 1_555
C3FA H1FA 1_555 1_555
C3D C2D 1_555 1_555
H1BA C3BA 1_555 1_555
H1A C3A 1_555 1_555
H1D C3D 1_555 1_555
C4BA C5 1_555 1_555
C4U C3U 1_555 1_555
C4A C3A 1_555 1_555
C4FA C3FA 1_555 1_555
C4D C3D 1_555 1_555
H2BA C4BA 1_555 1_555
H2U C4U 1_555 1_555
H2A C4A 1_555 1_555
H2FA C4FA 1_555 1_555
H2D C4D 1_555 1_555
C5U C4U 1_555 1_555
C5FA C4FA 1_555 1_555
C6A O4U 1_555 1_555
C6D C5FA 1_555 1_555
Zn3A O5_2 1_555 1_555
Zn3B O5_3 1_555 1_555
Zn3B_2 O5 1_555 1_555
Zn3HA O8 1_555 1_555
Zn3H O8BA 1_555 1_555
Zn3IA O8U 1_555 1_555
Zn3H_2 O8A 1_555 1_555
Zn4_2 O5_2 1_555 1_555
Zn4_3 O5_3 1_555 1_555
O6A Zn4_2 1_555 1_555
O6B Zn4_3 1_555 1_555
O6A_2 Zn4 1_555 1_555
O6B_2 Zn4 1_555 1_555
O7A Zn3A 1_555 1_555
O7B Zn3B 1_555 1_555
O8BA C1 1_555 1_555
O8U C1A 1_555 1_555
O8A C1A 1_555 1_555
O8FA Zn3 1_555 1_555
O8D C1D 1_555 1_555
O8E Zn3 1_555 1_555
O8F Zn3A 1_555 1_555
O8AA Zn3A 1_555 1_555
O8D_2 Zn3B 1_555 1_555
O8GA Zn3B 1_555 1_555
C7A O6A 1_555 1_555
C7B O6B 1_555 1_555
C8A C7A 1_555 1_555
C8B C7B 1_555 1_555
C9A C8A 1_555 1_555
C9B C8B 1_555 1_555
H3A C9A 1_555 1_555
H3B C9B 1_555 1_555
C10A C9A 1_555 1_555
C10B C9B 1_555 1_555
H4A C10A 1_555 1_555
H4B C10B 1_555 1_555
C11A C8A 1_555 1_555
C11B C8B 1_555 1_555
H5A C11A 1_555 1_555
H5B C11B 1_555 1_555
C12A C11A 1_555 1_555
C12B C11B 1_555 1_555
H6A C12A 1_555 1_555
H6B C12B 1_555 1_555
C13A C10A 1_555 1_555
C13B C10B 1_555 1_555
C14A O2A 1_555 1_555
C14B O3B 1_555 1_555
O3 C14 1_555 1_555
C5 C6 1_555 1_555
O7 C7 1_555 1_555
C12 C13 1_555 1_555
C13 C14 1_555 1_555
Zn1B O4BA 1_555 1_555
O3A C14A 1_555 1_555
O4A C6A 1_555 1_555
C1D O8FA 1_555 1_555
C3BA C4BA 1_555 1_555
C4A C5U 1_555 1_555
C4D C5FA 1_555 1_555
C5U C6A 1_555 1_555
Zn3B_2 O8D 1_555 1_555
O7A C7A 1_555 1_555
O7B C7B 1_555 1_555
C12A C13A 1_555 1_555
C12B C13B 1_555 1_555
C13A C14A 1_555 1_555
C13B C14B 1_555 1_555

#END
