
#######################################################################
#
#                 Cambridge Crystallographic Data Centre
#                                CCDC 
#
#######################################################################
#
# If this CIF has been generated from an entry in the Cambridge 
# Structural Database, then it will include bibliographic, chemical, 
# crystal, experimental, refinement or atomic coordinate data resulting 
# from the CCDC's data processing and validation procedures.
#
#######################################################################

data_ZECKOJ
_chemical_formula_moiety         '(C12 H14 Cu2 N4 O5)n'
_symmetry_cell_setting           tetragonal
_symmetry_space_group_name_H-M   'I 41 m d'
_symmetry_Int_Tables_number      109
_space_group_name_Hall           'I 4bw -2'
loop_
_symmetry_equiv_pos_site_id
_symmetry_equiv_pos_as_xyz
1 x,y,z
2 -x,-y,z
3 -y,1/2+x,1/4+z
4 y,1/2-x,1/4+z
5 -x,y,z
6 x,-y,z
7 y,1/2+x,1/4+z
8 -y,1/2-x,1/4+z
9 1/2+x,1/2+y,1/2+z
10 1/2-x,1/2-y,1/2+z
11 1/2-y,x,3/4+z
12 1/2+y,-x,3/4+z
13 1/2-x,1/2+y,1/2+z
14 1/2+x,1/2-y,1/2+z
15 1/2+y,x,3/4+z
16 1/2-y,-x,3/4+z
_cell_length_a                   16.756(8)
_cell_length_b                   16.756(8)
_cell_length_c                   14.209(7)
_cell_angle_alpha                90
_cell_angle_beta                 90
_cell_angle_gamma                90
_cell_volume                     3989.37
loop_
_atom_site_label
_atom_site_type_symbol
_atom_site_fract_x
_atom_site_fract_y
_atom_site_fract_z
_atom_site_U_iso_or_equiv
_atom_site_thermal_displace_type
Cu1 Cu 0.09908(10) 0.0000 0.47883(14) 0.0627 Uani
N1 N 0.0406(5) -0.0872(5) 0.5383(7) 0.0563 Uani
C1 C 0.0667(6) -0.1554(7) 0.5756(8) 0.0620 Uani
C2 C 0.0000 -0.2045(9) 0.6002(12) 0.0563 Uani
C3 C 0.1530(7) -0.1733(10) 0.5874(13) 0.0967 Uani
H1 H 0.1630 -0.2285 0.5708 0.1450 Uiso
H2 H 0.1683 -0.1643 0.6524 0.1450 Uiso
H3 H 0.1840 -0.1386 0.5467 0.1450 Uiso
O1 O 0.0651(5) -0.3151(6) 0.6655(8) 0.0797 Uani
C4 C -0.0000 -0.2792(10) 0.6447(15) 0.0723 Uani
O2 O 0.0000 0.0000 0.3527(16) 0.0873 Uani
Cu1A Cu -0.09908(10) 0.0000 0.47883(14) 0.0627 Uani
Cu1B Cu -0.0000 -0.40092(10) 0.72883(14) 0.0627 Uani
Cu1C Cu -0.0000 0.40092(10) 0.72883(14) 0.0627 Uani
N1D N -0.0406(5) -0.0872(5) 0.5383(7) 0.0563 Uani
N1E N 0.0406(5) 0.0872(5) 0.5383(7) 0.0563 Uani
N1A N -0.0406(5) 0.0872(5) 0.5383(7) 0.0563 Uani
C1D C -0.0667(6) -0.1554(7) 0.5756(8) 0.0620 Uani
C1E C 0.0667(6) 0.1554(7) 0.5756(8) 0.0620 Uani
C1A C -0.0667(6) 0.1554(7) 0.5756(8) 0.0620 Uani
C2A C 0.0000 0.2045(9) 0.6002(12) 0.0563 Uani
C3D C -0.1530(7) -0.1733(10) 0.5874(13) 0.0967 Uani
C3E C 0.1530(7) 0.1733(10) 0.5874(13) 0.0967 Uani
C3A C -0.1530(7) 0.1733(10) 0.5874(13) 0.0967 Uani
H1D H -0.1630 -0.2285 0.5708 0.1450 Uiso
H1E H 0.1630 0.2285 0.5708 0.1450 Uiso
H1A H -0.1630 0.2285 0.5708 0.1450 Uiso
H2D H -0.1683 -0.1643 0.6524 0.1450 Uiso
H2E H 0.1683 0.1643 0.6524 0.1450 Uiso
H2A H -0.1683 0.1643 0.6524 0.1450 Uiso
H3D H -0.1840 -0.1386 0.5467 0.1450 Uiso
H3E H 0.1840 0.1386 0.5467 0.1450 Uiso
H3A H -0.1840 0.1386 0.5467 0.1450 Uiso
O1D O -0.0651(5) -0.3151(6) 0.6655(8) 0.0797 Uani
O1K O 0.1849(6) -0.0651(5) 0.4155(8) 0.0797 Uani
O1N O 0.1849(6) 0.0651(5) 0.4155(8) 0.0797 Uani
O1O O -0.1849(6) -0.0651(5) 0.4155(8) 0.0797 Uani
O1J O -0.1849(6) 0.0651(5) 0.4155(8) 0.0797 Uani
O1A O -0.0651(5) 0.3151(6) 0.6655(8) 0.0797 Uani
O1E O 0.0651(5) 0.3151(6) 0.6655(8) 0.0797 Uani
C4A C -0.0000 0.2792(10) 0.6447(15) 0.0723 Uani
loop_
_atom_site_aniso_label
_atom_site_aniso_U_11
_atom_site_aniso_U_22
_atom_site_aniso_U_33
_atom_site_aniso_U_23
_atom_site_aniso_U_13
_atom_site_aniso_U_12
Cu1 0.0522(10) 0.0481(9) 0.0877(13) 0.000 0.0161(9) 0.000
N1 0.042(4) 0.051(4) 0.076(6) 0.011(4) 0.004(4) -0.003(3)
C1 0.041(5) 0.073(6) 0.072(7) 0.009(5) 0.007(4) 0.005(4)
C2 0.028(5) 0.063(7) 0.078(9) 0.009(7) 0.000 0.000
C3 0.051(6) 0.108(11) 0.131(12) 0.055(10) -0.006(7) 0.021(6)
O1 0.049(4) 0.075(5) 0.115(7) 0.042(5) 0.002(4) 0.006(3)
C4 0.046(7) 0.069(9) 0.102(13) 0.011(9) 0.000 0.000
O2 0.077(11) 0.092(12) 0.093(12) 0.000 0.000 0.000
Cu1A 0.0522 0.0481 0.0877 0 -0.0161 0
Cu1B 0.0481 0.0522 0.0877 0.0161 0 0
Cu1C 0.0481 0.0522 0.0877 -0.0161 0 0
N1D 0.042 0.051 0.076 0.011 -0.004 0.003
N1E 0.042 0.051 0.076 -0.011 0.004 0.003
N1A 0.042 0.051 0.076 -0.011 -0.004 -0.003
C1D 0.041 0.073 0.072 0.009 -0.007 -0.005
C1E 0.041 0.073 0.072 -0.009 0.007 -0.005
C1A 0.041 0.073 0.072 -0.009 -0.007 0.005
C2A 0.028 0.063 0.078 -0.009 0 0
C3D 0.051 0.108 0.131 0.055 0.006 -0.021
C3E 0.051 0.108 0.131 -0.055 -0.006 -0.021
C3A 0.051 0.108 0.131 -0.055 0.006 0.021
O1D 0.049 0.075 0.115 0.042 -0.002 -0.006
O1K 0.075 0.049 0.115 -0.002 0.042 -0.006
O1N 0.075 0.049 0.115 0.002 0.042 0.006
O1O 0.075 0.049 0.115 -0.002 -0.042 0.006
O1J 0.075 0.049 0.115 0.002 -0.042 -0.006
O1A 0.049 0.075 0.115 -0.042 -0.002 0.006
O1E 0.049 0.075 0.115 -0.042 0.002 -0.006
C4A 0.046 0.069 0.102 -0.011 0 0
loop_
_geom_bond_atom_site_label_1
_geom_bond_atom_site_label_2
_geom_bond_site_symmetry_1
_geom_bond_site_symmetry_2
Cu1 N1 1_555 1_555
N1 C1 1_555 1_555
C1 C2 1_555 1_555
C2 C4 1_555 1_555
C3 C1 1_555 1_555
H1 C3 1_555 1_555
H2 C3 1_555 1_555
H3 C3 1_555 1_555
O1 C4 1_555 1_555
C4 O1D 1_555 1_555
O2 Cu1 1_555 1_555
Cu1A O2 1_555 1_555
Cu1B O1 1_555 1_555
Cu1C O1A 1_555 1_555
N1D N1 1_555 1_555
N1E Cu1 1_555 1_555
N1A Cu1A 1_555 1_555
C1D C2 1_555 1_555
C1E N1E 1_555 1_555
C1A N1A 1_555 1_555
C2A C1E 1_555 1_555
C3D C1D 1_555 1_555
C3E C1E 1_555 1_555
C3A C1A 1_555 1_555
H1D C3D 1_555 1_555
H1E C3E 1_555 1_555
H1A C3A 1_555 1_555
H2D C3D 1_555 1_555
H2E C3E 1_555 1_555
H2A C3A 1_555 1_555
H3D C3D 1_555 1_555
H3E C3E 1_555 1_555
H3A C3A 1_555 1_555
O1D Cu1B 1_555 1_555
O1K Cu1 1_555 1_555
O1N Cu1 1_555 1_555
O1O Cu1A 1_555 1_555
O1J Cu1A 1_555 1_555
O1A C4A 1_555 1_555
O1E Cu1C 1_555 1_555
C4A C2A 1_555 1_555
Cu1A N1D 1_555 1_555
N1D C1D 1_555 1_555
N1E N1A 1_555 1_555
C1A C2A 1_555 1_555
O1E C4A 1_555 1_555

#END
