
#######################################################################
#
#                 Cambridge Crystallographic Data Centre
#                                CCDC 
#
#######################################################################
#
# If this CIF has been generated from an entry in the Cambridge 
# Structural Database, then it will include bibliographic, chemical, 
# crystal, experimental, refinement or atomic coordinate data resulting 
# from the CCDC's data processing and validation procedures.
#
#######################################################################

data_XOVQIJ
_chemical_formula_moiety         '(C106 H94 N2 Na2 O30 Zn3)n'
_symmetry_cell_setting           monoclinic
_symmetry_space_group_name_H-M   'P 21/n'
_symmetry_Int_Tables_number      14
_space_group_name_Hall           '-P 2yn'
loop_
_symmetry_equiv_pos_site_id
_symmetry_equiv_pos_as_xyz
1 x,y,z
2 1/2-x,1/2+y,1/2-z
3 -x,-y,-z
4 1/2+x,1/2-y,1/2+z
_cell_length_a                   17.075(11)
_cell_length_b                   20.519(13)
_cell_length_c                   20.205(13)
_cell_angle_alpha                90
_cell_angle_beta                 90.12(3)
_cell_angle_gamma                90
_cell_volume                     7079.05
loop_
_atom_site_label
_atom_site_type_symbol
_atom_site_fract_x
_atom_site_fract_y
_atom_site_fract_z
Zn1 Zn 0.5000 1.0000 0.5000
Zn2 Zn 0.34887(13) 0.99443(8) 0.62519(10)
C1 C 0.4952(6) 0.8221(3) 0.6245(4)
C2 C 0.4863(6) 0.7988(4) 0.6887(4)
H1 H 0.4612 0.8246 0.7207
C3 C 0.5144(7) 0.7374(4) 0.7054(4)
H2 H 0.5084 0.7216 0.7488
C4 C 0.5515(6) 0.6993(3) 0.6580(5)
C5 C 0.5604(6) 0.7226(4) 0.5939(4)
H3 H 0.5855 0.6968 0.5618
C6 C 0.5323(7) 0.7840(4) 0.5771(4)
H4 H 0.5383 0.7997 0.5338
C7 C 0.4663(8) 0.8837(5) 0.6066(6)
C8 C 0.7704(6) 0.5303(5) 0.9259(4)
C9 C 0.8083(5) 0.5209(5) 0.8658(5)
H5 H 0.8608 0.5071 0.8652
C10 C 0.7685(6) 0.5318(5) 0.8067(4)
H6 H 0.7942 0.5254 0.7661
C11 C 0.6909(6) 0.5521(5) 0.8077(4)
C12 C 0.6530(5) 0.5616(5) 0.8678(5)
H7 H 0.6005 0.5753 0.8684
C13 C 0.6927(6) 0.5507(5) 0.9268(4)
H8 H 0.6671 0.5570 0.9675
C14 C 0.8105(7) 0.5162(7) 0.9834(5)
C15 C 0.4859(6) 0.1661(3) 0.6024(5)
C16 C 0.4348(5) 0.2180(4) 0.6120(5)
H9 H 0.3831 0.2101 0.6258
C17 C 0.4601(6) 0.2815(3) 0.6013(5)
H10 H 0.4255 0.3165 0.6078
C18 C 0.5365(6) 0.2931(3) 0.5809(5)
C19 C 0.5876(5) 0.2413(4) 0.5713(5)
H11 H 0.6393 0.2492 0.5575
C20 C 0.5623(5) 0.1778(3) 0.5821(5)
H12 H 0.5969 0.1427 0.5756
C21 C 0.7350(9) 0.4643(7) 0.2247(6)
C22 C 0.7081(7) 0.4552(5) 0.2885(4)
C23 C 0.6529(7) 0.4070(5) 0.3012(4)
H13 H 0.6344 0.3806 0.2665
C24 C 0.6249(6) 0.3980(5) 0.3651(5)
H14 H 0.5875 0.3655 0.3737
C25 C 0.6522(7) 0.4372(5) 0.4164(4)
C26 C 0.7075(7) 0.4853(5) 0.4037(4)
H15 H 0.7259 0.5118 0.4384
C27 C 0.7354(7) 0.4943(5) 0.3398(5)
H16 H 0.7728 0.5269 0.3312
C28 C 0.4617(8) 0.1020(5) 0.6096(7)
C29 C 0.6055(6) 0.5237(3) 0.6399(4)
C30 C 0.5731(5) 0.5845(4) 0.6267(3)
H17 H 0.5473 0.5921 0.5863
C31 C 0.5788(6) 0.6341(3) 0.6734(4)
C32 C 0.6170(6) 0.6229(3) 0.7331(4)
H18 H 0.6208 0.6564 0.7647
C33 C 0.6493(6) 0.5621(4) 0.7463(4)
C34 C 0.6436(5) 0.5125(3) 0.6996(4)
O1 O 0.4815(7) 0.9126(4) 0.5471(5)
C35 C 0.5953(6) 0.4699(3) 0.5920(4)
C36 C 0.5650(6) 0.4095(4) 0.6099(3)
C37 C 0.5640(6) 0.3587(3) 0.5643(4)
C38 C 0.5932(7) 0.3683(3) 0.5009(4)
H19 H 0.5925 0.3340 0.4701
C39 C 0.6234(7) 0.4287(4) 0.4830(3)
C40 C 0.6244(6) 0.4795(3) 0.5286(4)
H20 H 0.6449 0.5203 0.5165
O2 O 0.4161(6) 0.9183(4) 0.6450(5)
O3 O 0.8808(6) 0.4848(5) 0.9898(5)
O4 O 0.7846(7) 0.5307(5) 1.0452(5)
O5 O 0.7914(7) 0.5080(5) 0.2091(5)
O6 O 0.7091(8) 0.4326(7) 0.1693(5)
O7 O 0.5015(6) 0.0476(4) 0.5917(5)
O8 O 0.3901(7) 0.0835(4) 0.6293(5)
O9 O 0.6805(6) 0.4540(4) 0.7136(5)
O10 O 0.5335(6) 0.3990(4) 0.6720(4)
O11 O 0.7304(9) 0.3271(7) 0.7048(8)
O12 O 0.4902(9) 0.4128(8) 0.8021(8)
O13 O 0.6442(12) 0.2363(10) 0.7720(11)
O14 O 0.5128(16) 0.2812(13) 0.8165(13)
C41 C 0.7461(9) 0.4366(7) 0.6727(8)
H21 H 0.7826 0.4733 0.6700
H22 H 0.7277 0.4267 0.6278
C42 C 0.4602(10) 0.4334(9) 0.6859(9)
H23 H 0.4156 0.4037 0.6810
H24 H 0.4534 0.4697 0.6550
C43 C 0.7866(11) 0.3792(8) 0.7005(11)
H25 H 0.8303 0.3664 0.6719
H26 H 0.8076 0.3894 0.7445
C44 C 0.4643(17) 0.4582(12) 0.7548(11)
H27 H 0.4996 0.4959 0.7558
H28 H 0.4122 0.4735 0.7677
C45 C 0.7691(13) 0.2670(10) 0.7281(14)
H29 H 0.8106 0.2540 0.6974
H30 H 0.7924 0.2738 0.7720
C46 C 0.4258(18) 0.3694(15) 0.824(2)
H31 H 0.3889 0.3939 0.8511
H32 H 0.3974 0.3531 0.7848
C47 C 0.7083(14) 0.2167(10) 0.7313(14)
H33 H 0.6891 0.2076 0.6865
H34 H 0.7310 0.1764 0.7490
C48 C 0.458(2) 0.3140(14) 0.8616(16)
H35 H 0.4851 0.3294 0.9014
H36 H 0.4159 0.2842 0.8750
C49 C 0.5813(16) 0.1879(14) 0.7749(18)
H37 H 0.5555 0.1834 0.7318
H38 H 0.6016 0.1453 0.7885
C50 C 0.5271(19) 0.2139(14) 0.8244(17)
H39 H 0.4773 0.1903 0.8213
H40 H 0.5488 0.2062 0.8686
Na1 Na 0.6095(5) 0.3555(4) 0.7670(4)
N1 N 0.7229(17) 0.3598(11) 0.9634(14)
O15 O 0.6691(17) 0.3719(11) 0.8647(13)
C51 C 0.746(2) 0.3584(19) 0.8957(16)
H42 H 0.7846 0.3924 0.8855
C52 C 0.776(3) 0.350(2) 1.017(2)
H43 H 0.8273 0.3385 1.0002
H44 H 0.7570 0.3157 1.0457
H45 H 0.7805 0.3903 1.0426
C53 C 0.642(2) 0.376(3) 0.975(3)
H46 H 0.6149 0.3803 0.9327
H47 H 0.6383 0.4163 0.9993
H48 H 0.6172 0.3411 1.0002
Zn1A Zn 1.0000 0.5000 1.0000
Zn1_2 Zn 0.5000 0.0000 0.5000
Zn1A_2 Zn 0.0000 1.5000 0.0000
Zn1_3 Zn 0.5000 2.0000 0.5000
Zn2B Zn 0.65113(13) 1.00557(8) 0.37481(10)
Zn2C Zn 0.84887(13) 0.50557(8) 1.12519(10)
Zn2C_2 Zn 0.84887(13) 0.50557(8) 0.12519(10)
Zn2_2 Zn 0.34887(13) -0.00557(8) 0.62519(10)
Zn2A Zn 0.15113(13) 1.49443(8) -0.12519(10)
Zn2A_2 Zn 0.15113(13) 1.49443(8) 0.87481(10)
Zn2B_2 Zn 0.65113(13) 2.00557(8) 0.37481(10)
C1B C 0.5048(6) 1.1779(3) 0.3755(4)
C2B C 0.5137(6) 1.2012(4) 0.3113(4)
H1B H 0.5388 1.1754 0.2793
C3B C 0.4856(7) 1.2626(4) 0.2946(4)
H2B H 0.4916 1.2784 0.2512
C4B C 0.4485(6) 1.3007(3) 0.3420(5)
C5B C 0.4396(6) 1.2774(4) 0.4061(4)
H3B H 0.4145 1.3032 0.4382
C6B C 0.4677(7) 1.2160(4) 0.4229(4)
H4B H 0.4617 1.2003 0.4662
C7B C 0.5337(8) 1.1163(5) 0.3934(6)
C8B C 0.2296(6) 1.4697(5) 0.0741(4)
C9B C 0.1917(5) 1.4791(5) 0.1342(5)
H5B H 0.1392 1.4929 0.1348
C10B C 0.2315(6) 1.4682(5) 0.1933(4)
H6B H 0.2058 1.4746 0.2339
C11B C 0.3091(6) 1.4479(5) 0.1923(4)
C12B C 0.3470(5) 1.4384(5) 0.1322(5)
H7B H 0.3995 1.4247 0.1316
C13B C 0.3073(6) 1.4493(5) 0.0732(4)
H8B H 0.3329 1.4430 0.0325
C14B C 0.1895(7) 1.4838(7) 0.0166(5)
C15B C 0.5141(6) 1.8339(3) 0.3976(5)
C16B C 0.5652(5) 1.7820(4) 0.3880(5)
H9B H 0.6169 1.7899 0.3742
C17B C 0.5399(6) 1.7185(3) 0.3987(5)
H10B H 0.5745 1.6835 0.3922
C18B C 0.4635(6) 1.7069(3) 0.4191(5)
C19B C 0.4124(5) 1.7587(4) 0.4287(5)
H11B H 0.3607 1.7508 0.4425
C20B C 0.4377(5) 1.8222(3) 0.4179(5)
H12B H 0.4031 1.8573 0.4244
C21B C 0.2650(9) 1.5357(7) 0.7753(6)
C22B C 0.2919(7) 1.5448(5) 0.7115(4)
C23B C 0.3471(7) 1.5930(5) 0.6988(4)
H13B H 0.3656 1.6194 0.7335
C24B C 0.3751(6) 1.6020(5) 0.6349(5)
H14B H 0.4125 1.6345 0.6263
C25B C 0.3478(7) 1.5628(5) 0.5836(4)
C26B C 0.2925(7) 1.5147(5) 0.5963(4)
H15B H 0.2741 1.4882 0.5616
C27B C 0.2646(7) 1.5057(5) 0.6602(5)
H16B H 0.2272 1.4731 0.6688
C28B C 0.5383(8) 1.8980(5) 0.3904(7)
C29B C 0.3945(6) 1.4763(3) 0.3601(4)
C30B C 0.4269(5) 1.4155(4) 0.3733(3)
H17B H 0.4527 1.4079 0.4137
C31B C 0.4212(6) 1.3659(3) 0.3266(4)
C32B C 0.3830(6) 1.3771(3) 0.2669(4)
H18B H 0.3792 1.3436 0.2353
C33B C 0.3507(6) 1.4379(4) 0.2537(4)
C34B C 0.3564(5) 1.4875(3) 0.3004(4)
O1B O 0.5185(7) 1.0874(4) 0.4529(5)
C35B C 0.4047(6) 1.5301(3) 0.4080(4)
C36B C 0.4350(6) 1.5905(4) 0.3901(3)
C37B C 0.4360(6) 1.6413(3) 0.4357(4)
C38B C 0.4068(7) 1.6317(3) 0.4991(4)
H19B H 0.4075 1.6660 0.5299
C39B C 0.3766(7) 1.5713(4) 0.5170(3)
C40B C 0.3756(6) 1.5205(3) 0.4714(4)
H20B H 0.3551 1.4797 0.4835
O2B O 0.5839(6) 1.0817(4) 0.3550(5)
O3B O 0.1192(6) 1.5152(5) 0.0102(5)
O3A O 0.6192(6) 0.9848(5) 0.5102(5)
O3C O 0.3808(6) 1.0152(5) 0.4898(5)
O4B O 0.2154(7) 1.4693(5) -0.0452(5)
O4C O 0.2846(7) 0.9693(5) 0.5452(5)
O4A O 0.7154(7) 1.0307(5) 0.4548(5)
O5B O 0.2086(7) 1.4920(5) 0.7909(5)
O5C O 0.2914(7) 0.9920(5) 0.7091(5)
O5A O 0.7086(7) 1.0080(5) 0.2909(5)
O6B O 0.2909(8) 1.5674(7) 0.8307(5)
O7B O 0.4985(6) 1.9524(4) 0.4083(5)
O7_2 O 0.5015(6) 1.0476(4) 0.5917(5)
O7B_2 O 0.4985(6) 0.9524(4) 0.4083(5)
O8B O 0.6099(7) 1.9165(4) 0.3707(5)
O8_2 O 0.3901(7) 1.0835(4) 0.6293(5)
O8B_2 O 0.6099(7) 0.9165(4) 0.3707(5)
O9B O 0.3195(6) 1.5460(4) 0.2864(5)
O10B O 0.4665(6) 1.6010(4) 0.3280(4)
O11B O 0.2696(9) 1.6729(7) 0.2952(8)
O12B O 0.5098(9) 1.5872(8) 0.1979(8)
O13B O 0.3558(12) 1.7637(10) 0.2280(11)
O14B O 0.4872(16) 1.7188(13) 0.1835(13)
C41B C 0.2539(9) 1.5634(7) 0.3273(8)
H21B H 0.2174 1.5267 0.3300
H22B H 0.2723 1.5733 0.3722
C42B C 0.5398(10) 1.5666(9) 0.3141(9)
H23B H 0.5844 1.5963 0.3190
H24B H 0.5466 1.5303 0.3450
C43B C 0.2134(11) 1.6208(8) 0.2995(11)
H25B H 0.1697 1.6336 0.3281
H26B H 0.1924 1.6106 0.2555
C44B C 0.5357(17) 1.5418(12) 0.2452(11)
H27B H 0.5004 1.5041 0.2442
H28B H 0.5878 1.5265 0.2323
C45B C 0.2309(13) 1.7330(10) 0.2719(14)
H29B H 0.1894 1.7460 0.3026
H30B H 0.2076 1.7262 0.2280
C46B C 0.5742(18) 1.6306(15) 0.176(2)
H31B H 0.6111 1.6061 0.1489
H32B H 0.6026 1.6469 0.2152
C47B C 0.2917(14) 1.7833(10) 0.2687(14)
H33B H 0.3109 1.7924 0.3135
H34B H 0.2690 1.8236 0.2510
C48B C 0.542(2) 1.6860(14) 0.1384(16)
H35B H 0.5149 1.6706 0.0986
H36B H 0.5841 1.7158 0.1250
C49B C 0.4187(16) 1.8121(14) 0.2251(18)
H37B H 0.4445 1.8166 0.2682
H38B H 0.3984 1.8547 0.2115
C50B C 0.4729(19) 1.7861(14) 0.1756(17)
H39B H 0.5227 1.8097 0.1787
H40B H 0.4512 1.7938 0.1314
Na1B Na 0.3905(5) 1.6445(4) 0.2330(4)
N1B N 0.2771(17) 1.6402(11) 0.0366(14)
O15B O 0.3309(17) 1.6281(11) 0.1353(13)
C51B C 0.254(2) 1.6416(19) 0.1043(16)
H42B H 0.2154 1.6076 0.1145
C52B C 0.224(3) 1.650(2) -0.017(2)
H43B H 0.1727 1.6615 -0.0002
H44B H 0.2430 1.6843 -0.0457
H45B H 0.2195 1.6097 -0.0426
C53B C 0.358(2) 1.624(3) 0.025(3)
H46B H 0.3851 1.6197 0.0673
H47B H 0.3617 1.5837 0.0007
H48B H 0.3828 1.6589 -0.0002
loop_
_geom_bond_atom_site_label_1
_geom_bond_atom_site_label_2
_geom_bond_site_symmetry_1
_geom_bond_site_symmetry_2
Zn1 O1 1_555 1_555
Zn2 O2 1_555 1_555
C1 C2 1_555 1_555
C2 H1 1_555 1_555
C3 C2 1_555 1_555
H2 C3 1_555 1_555
C4 C3 1_555 1_555
C5 C4 1_555 1_555
H3 C5 1_555 1_555
C6 C1 1_555 1_555
H4 C6 1_555 1_555
C7 C1 1_555 1_555
C8 C9 1_555 1_555
C9 H5 1_555 1_555
C10 C9 1_555 1_555
H6 C10 1_555 1_555
C11 C10 1_555 1_555
C12 C11 1_555 1_555
H7 C12 1_555 1_555
C13 C8 1_555 1_555
H8 C13 1_555 1_555
C14 C8 1_555 1_555
C15 C16 1_555 1_555
C16 H9 1_555 1_555
C17 C16 1_555 1_555
H10 C17 1_555 1_555
C18 C17 1_555 1_555
C19 C18 1_555 1_555
H11 C19 1_555 1_555
C20 C15 1_555 1_555
H12 C20 1_555 1_555
C21 C22 1_555 1_555
C22 C23 1_555 1_555
C23 H13 1_555 1_555
C24 C23 1_555 1_555
H14 C24 1_555 1_555
C25 C24 1_555 1_555
C26 C25 1_555 1_555
H15 C26 1_555 1_555
C27 C22 1_555 1_555
H16 C27 1_555 1_555
C28 C15 1_555 1_555
C29 C30 1_555 1_555
C30 H17 1_555 1_555
C31 C4 1_555 1_555
C32 C31 1_555 1_555
H18 C32 1_555 1_555
C33 C11 1_555 1_555
C34 C29 1_555 1_555
O1 C7 1_555 1_555
C35 C29 1_555 1_555
C36 C35 1_555 1_555
C37 C18 1_555 1_555
C38 C37 1_555 1_555
H19 C38 1_555 1_555
C39 C25 1_555 1_555
C40 C35 1_555 1_555
H20 C40 1_555 1_555
O2 C7 1_555 1_555
O3 C14 1_555 1_555
O4 C14 1_555 1_555
O5 C21 1_555 1_555
O6 C21 1_555 1_555
O7 C28 1_555 1_555
O8 C28 1_555 1_555
O9 C34 1_555 1_555
O10 C36 1_555 1_555
O11 C43 1_555 1_555
O12 C44 1_555 1_555
O13 C47 1_555 1_555
O14 C48 1_555 1_555
C41 O9 1_555 1_555
H21 C41 1_555 1_555
H22 C41 1_555 1_555
C42 O10 1_555 1_555
H23 C42 1_555 1_555
H24 C42 1_555 1_555
C43 C41 1_555 1_555
H25 C43 1_555 1_555
H26 C43 1_555 1_555
C44 C42 1_555 1_555
H27 C44 1_555 1_555
H28 C44 1_555 1_555
C45 O11 1_555 1_555
H29 C45 1_555 1_555
H30 C45 1_555 1_555
C46 O12 1_555 1_555
H31 C46 1_555 1_555
H32 C46 1_555 1_555
C47 C45 1_555 1_555
H33 C47 1_555 1_555
H34 C47 1_555 1_555
C48 C46 1_555 1_555
H35 C48 1_555 1_555
H36 C48 1_555 1_555
C49 O13 1_555 1_555
H37 C49 1_555 1_555
H38 C49 1_555 1_555
C50 O14 1_555 1_555
H39 C50 1_555 1_555
H40 C50 1_555 1_555
Na1 O9 1_555 1_555
N1 C51 1_555 1_555
O15 Na1 1_555 1_555
C51 O15 1_555 1_555
H42 C51 1_555 1_555
C52 N1 1_555 1_555
H43 C52 1_555 1_555
H44 C52 1_555 1_555
H45 C52 1_555 1_555
C53 N1 1_555 1_555
H46 C53 1_555 1_555
H47 C53 1_555 1_555
H48 C53 1_555 1_555
Zn1A O3 1_555 1_555
Zn1_2 O7 1_555 1_555
Zn1A_2 O3B 1_555 1_555
Zn1_3 O7B 1_555 1_555
Zn2B O2B 1_555 1_555
Zn2C O4 1_555 1_555
Zn2C_2 O5 1_555 1_555
Zn2_2 O8 1_555 1_555
Zn2A O4B 1_555 1_555
Zn2A_2 O5B 1_555 1_555
Zn2B_2 O8B 1_555 1_555
C1B C2B 1_555 1_555
C2B H1B 1_555 1_555
C3B C2B 1_555 1_555
H2B C3B 1_555 1_555
C4B C3B 1_555 1_555
C5B C4B 1_555 1_555
H3B C5B 1_555 1_555
C6B C1B 1_555 1_555
H4B C6B 1_555 1_555
C7B C1B 1_555 1_555
C8B C9B 1_555 1_555
C9B H5B 1_555 1_555
C10B C9B 1_555 1_555
H6B C10B 1_555 1_555
C11B C10B 1_555 1_555
C12B C11B 1_555 1_555
H7B C12B 1_555 1_555
C13B C8B 1_555 1_555
H8B C13B 1_555 1_555
C14B C8B 1_555 1_555
C15B C16B 1_555 1_555
C16B H9B 1_555 1_555
C17B C16B 1_555 1_555
H10B C17B 1_555 1_555
C18B C17B 1_555 1_555
C19B C18B 1_555 1_555
H11B C19B 1_555 1_555
C20B C15B 1_555 1_555
H12B C20B 1_555 1_555
C21B C22B 1_555 1_555
C22B C23B 1_555 1_555
C23B H13B 1_555 1_555
C24B C23B 1_555 1_555
H14B C24B 1_555 1_555
C25B C24B 1_555 1_555
C26B C25B 1_555 1_555
H15B C26B 1_555 1_555
C27B C22B 1_555 1_555
H16B C27B 1_555 1_555
C28B C15B 1_555 1_555
C29B C30B 1_555 1_555
C30B H17B 1_555 1_555
C31B C4B 1_555 1_555
C32B C31B 1_555 1_555
H18B C32B 1_555 1_555
C33B C11B 1_555 1_555
C34B C29B 1_555 1_555
O1B Zn1 1_555 1_555
C35B C29B 1_555 1_555
C36B C35B 1_555 1_555
C37B C18B 1_555 1_555
C38B C37B 1_555 1_555
H19B C38B 1_555 1_555
C39B C25B 1_555 1_555
C40B C35B 1_555 1_555
H20B C40B 1_555 1_555
O2B C7B 1_555 1_555
O3B C14B 1_555 1_555
O3A Zn1 1_555 1_555
O3C Zn1 1_555 1_555
O4B C14B 1_555 1_555
O4C Zn2 1_555 1_555
O4A Zn2B 1_555 1_555
O5B C21B 1_555 1_555
O5C Zn2 1_555 1_555
O5A Zn2B 1_555 1_555
O6B C21B 1_555 1_555
O7B C28B 1_555 1_555
O7_2 Zn1 1_555 1_555
O7B_2 Zn1 1_555 1_555
O8B C28B 1_555 1_555
O8_2 Zn2 1_555 1_555
O8B_2 Zn2B 1_555 1_555
O9B C34B 1_555 1_555
O10B C36B 1_555 1_555
O11B C43B 1_555 1_555
O12B C44B 1_555 1_555
O13B C47B 1_555 1_555
O14B C48B 1_555 1_555
C41B O9B 1_555 1_555
H21B C41B 1_555 1_555
H22B C41B 1_555 1_555
C42B O10B 1_555 1_555
H23B C42B 1_555 1_555
H24B C42B 1_555 1_555
C43B C41B 1_555 1_555
H25B C43B 1_555 1_555
H26B C43B 1_555 1_555
C44B C42B 1_555 1_555
H27B C44B 1_555 1_555
H28B C44B 1_555 1_555
C45B O11B 1_555 1_555
H29B C45B 1_555 1_555
H30B C45B 1_555 1_555
C46B O12B 1_555 1_555
H31B C46B 1_555 1_555
H32B C46B 1_555 1_555
C47B C45B 1_555 1_555
H33B C47B 1_555 1_555
H34B C47B 1_555 1_555
C48B C46B 1_555 1_555
H35B C48B 1_555 1_555
H36B C48B 1_555 1_555
C49B O13B 1_555 1_555
H37B C49B 1_555 1_555
H38B C49B 1_555 1_555
C50B O14B 1_555 1_555
H39B C50B 1_555 1_555
H40B C50B 1_555 1_555
Na1B O9B 1_555 1_555
N1B C51B 1_555 1_555
O15B Na1B 1_555 1_555
C51B O15B 1_555 1_555
H42B C51B 1_555 1_555
C52B N1B 1_555 1_555
H43B C52B 1_555 1_555
H44B C52B 1_555 1_555
H45B C52B 1_555 1_555
C53B N1B 1_555 1_555
H46B C53B 1_555 1_555
H47B C53B 1_555 1_555
H48B C53B 1_555 1_555
C5 C6 1_555 1_555
C12 C13 1_555 1_555
C19 C20 1_555 1_555
C26 C27 1_555 1_555
C30 C31 1_555 1_555
C32 C33 1_555 1_555
C33 C34 1_555 1_555
C36 C37 1_555 1_555
C38 C39 1_555 1_555
C39 C40 1_555 1_555
O10 Na1 1_555 1_555
O11 Na1 1_555 1_555
O12 Na1 1_555 1_555
O13 Na1 1_555 1_555
O14 Na1 1_555 1_555
C49 C50 1_555 1_555
C5B C6B 1_555 1_555
C7B O1B 1_555 1_555
C12B C13B 1_555 1_555
C19B C20B 1_555 1_555
C26B C27B 1_555 1_555
C30B C31B 1_555 1_555
C32B C33B 1_555 1_555
C33B C34B 1_555 1_555
C36B C37B 1_555 1_555
C38B C39B 1_555 1_555
C39B C40B 1_555 1_555
O10B Na1B 1_555 1_555
O11B Na1B 1_555 1_555
O12B Na1B 1_555 1_555
O13B Na1B 1_555 1_555
O14B Na1B 1_555 1_555
C49B C50B 1_555 1_555

#END
