
#######################################################################
#
#                 Cambridge Crystallographic Data Centre
#                                CCDC 
#
#######################################################################
#
# If this CIF has been generated from an entry in the Cambridge 
# Structural Database, then it will include bibliographic, chemical, 
# crystal, experimental, refinement or atomic coordinate data resulting 
# from the CCDC's data processing and validation procedures.
#
#######################################################################

data_ASECUY
_chemical_formula_moiety         '(C60 H34 N6 Na1 O18 U2 1-)n'
_symmetry_cell_setting           monoclinic
_symmetry_space_group_name_H-M   'C 2/c'
_symmetry_Int_Tables_number      15
_space_group_name_Hall           '-C 2yc'
loop_
_symmetry_equiv_pos_site_id
_symmetry_equiv_pos_as_xyz
1 x,y,z
2 -x,y,1/2-z
3 1/2+x,1/2+y,z
4 1/2-x,1/2+y,1/2-z
5 -x,-y,-z
6 x,-y,1/2+z
7 1/2-x,1/2-y,-z
8 1/2+x,1/2-y,1/2+z
_cell_length_a                   8.55355(19)
_cell_length_b                   19.3919(5)
_cell_length_c                   44.3014(11)
_cell_angle_alpha                90
_cell_angle_beta                 91.111(2)
_cell_angle_gamma                90
_cell_volume                     7346.87
loop_
_atom_site_label
_atom_site_type_symbol
_atom_site_fract_x
_atom_site_fract_y
_atom_site_fract_z
U1 U 1.08011(5) 0.80385(2) 0.843387(8)
O1 O 1.0126(10) 0.7333(4) 0.79763(17)
O2 O 1.2788(10) 0.8018(5) 0.83434(19)
O3 O 0.8804(11) 0.8055(6) 0.85270(19)
C1 C 0.6887(15) 0.5575(6) 0.7363(3)
C2 C 0.5483(14) 0.6243(6) 0.7027(3)
N1 N 0.6524(13) 0.6189(5) 0.7262(2)
O4 O 1.1638(14) 0.8571(5) 0.8920(2)
C3 C 1.1579(17) 0.4718(6) 0.8433(3)
H1 H 1.2365 0.4656 0.8579
C4 C 1.1887(17) 0.7966(6) 0.9052(3)
C5 C 1.1172(15) 0.5398(6) 0.8359(3)
H2 H 1.1529 0.5780 0.8466
C6 C 1.518(2) 0.8005(12) 0.9638(4)
C7 C 1.204(2) 0.7699(9) 0.9588(3)
H3 H 1.0986 0.7580 0.9574
C8 C 1.437(2) 0.8086(10) 0.9357(3)
C9 C 1.2767(19) 0.7937(8) 0.9343(3)
C10 C 0.5275(14) 0.4988(6) 0.7002(3)
C11 C 0.9715(15) 0.6120(6) 0.7992(3)
C12 C 0.6283(15) 0.4949(7) 0.7242(3)
H4 H 0.6568 0.4525 0.7325
C13 C 0.8683(15) 0.6144(6) 0.7749(3)
H5 H 0.8396 0.6569 0.7668
C14 C 0.9492(14) 0.4881(5) 0.7962(3)
C15 C 0.9878(16) 0.4172(7) 0.8062(3)
H6 H 0.9473 0.3777 0.7971
C16 C 0.3683(14) 0.5761(7) 0.6644(3)
H7 H 0.3184 0.5391 0.6550
C17 C 1.0944(16) 0.4163(7) 0.8315(3)
H8 H 1.1201 0.3738 0.8400
C18 C 0.4812(14) 0.5633(6) 0.6881(3)
C19 C 0.5064(15) 0.6861(6) 0.6924(3)
H9 H 0.5514 0.7232 0.7027
C20 C 1.0233(16) 0.6793(7) 0.8131(3)
C21 C 0.4737(15) 0.4329(6) 0.6869(3)
C22 C 0.3332(18) 0.6409(8) 0.6555(4)
H10 H 0.2580 0.6458 0.6402
O5 O 1.1441(15) 0.7437(5) 0.8916(2)
C23 C 0.4032(17) 0.7047(8) 0.6679(4)
H11 H 0.3837 0.7493 0.6609
N2 N 0.8413(12) 0.4916(5) 0.7722(2)
C24 C 1.768(3) 0.8367(16) 0.9421(5)
H12 H 1.8751 0.8446 0.9438
C25 C 1.684(2) 0.8471(14) 0.9143(5)
H13 H 1.7375 0.8639 0.8977
C26 C 1.288(2) 0.7628(10) 0.9870(3)
C27 C 1.0186(13) 0.5440(6) 0.8109(2)
N3 N 1.4401(18) 0.7770(9) 0.9890(3)
C28 C 1.680(2) 0.8139(16) 0.9666(5)
H14 H 1.7297 0.8074 0.9853
C29 C 1.525(2) 0.8331(13) 0.9110(4)
H15 H 1.4751 0.8400 0.8924
C30 C 0.8053(14) 0.5531(5) 0.7621(3)
Na1 Na 1.0000 0.8043(6) 0.7500
O6 O 1.2775(16) 0.8377(7) 0.7503(3)
O7 O 1.0672(11) 0.6767(4) 0.84027(16)
O8 O 0.4824(11) 0.3756(4) 0.70159(18)
O9 O 0.4294(13) 0.4259(5) 0.6589(2)
O4F O 1.3362(14) 0.6429(5) 1.1080(2)
C4F C 1.3113(17) 0.7034(6) 1.0948(3)
C6F C 0.982(2) 0.6995(12) 1.0362(4)
C7F C 1.296(2) 0.7301(9) 1.0412(3)
H3F H 1.4014 0.7420 1.0426
C8F C 1.063(2) 0.6914(10) 1.0643(3)
C9F C 1.2233(19) 0.7063(8) 1.0657(3)
O5F O 1.3559(15) 0.7563(5) 1.1084(2)
C24F C 0.732(3) 0.6633(16) 1.0579(5)
H12F H 0.6249 0.6554 1.0562
C25F C 0.816(2) 0.6529(14) 1.0857(5)
H13F H 0.7625 0.6361 1.1023
C26F C 1.212(2) 0.7372(10) 1.0130(3)
N3F N 1.0599(18) 0.7230(9) 1.0110(3)
C28F C 0.820(2) 0.6861(16) 1.0334(5)
H14F H 0.7703 0.6926 1.0147
C29F C 0.975(2) 0.6669(13) 1.0890(4)
H15F H 1.0249 0.6600 1.1076
U1A U 0.91989(5) 0.80385(2) 0.656613(8)
O1A O 0.9874(10) 0.7333(4) 0.70237(17)
O2A O 0.7212(10) 0.8018(5) 0.66566(19)
O3A O 1.1196(11) 0.8055(6) 0.64730(19)
C1A C 1.3113(15) 0.5575(6) 0.7637(3)
C2A C 1.4517(14) 0.6243(6) 0.7973(3)
N1A N 1.3476(13) 0.6189(5) 0.7738(2)
C3A C 0.8421(17) 0.4718(6) 0.6567(3)
H1A H 0.7635 0.4656 0.6421
C5A C 0.8828(15) 0.5398(6) 0.6641(3)
H2A H 0.8471 0.5780 0.6534
C10A C 1.4725(14) 0.4988(6) 0.7998(3)
C11A C 1.0285(15) 0.6120(6) 0.7008(3)
C12A C 1.3717(15) 0.4949(7) 0.7758(3)
H4A H 1.3432 0.4525 0.7675
C13A C 1.1317(15) 0.6144(6) 0.7251(3)
H5A H 1.1604 0.6569 0.7332
C14A C 1.0508(14) 0.4881(5) 0.7038(3)
C15A C 1.0122(16) 0.4172(7) 0.6938(3)
H6A H 1.0527 0.3777 0.7029
C16A C 1.6317(14) 0.5761(7) 0.8356(3)
H7A H 1.6816 0.5391 0.8450
C17A C 0.9056(16) 0.4163(7) 0.6685(3)
H8A H 0.8799 0.3738 0.6600
C18A C 1.5188(14) 0.5633(6) 0.8119(3)
C19A C 1.4936(15) 0.6861(6) 0.8076(3)
H9A H 1.4486 0.7232 0.7973
C20A C 0.9767(16) 0.6793(7) 0.6869(3)
C21A C 1.5263(15) 0.4329(6) 0.8131(3)
C22A C 1.6668(18) 0.6409(8) 0.8445(4)
H10A H 1.7420 0.6458 0.8598
C23A C 1.5968(17) 0.7047(8) 0.8321(4)
H11A H 1.6163 0.7493 0.8391
N2A N 1.1587(12) 0.4916(5) 0.7278(2)
C27A C 0.9814(13) 0.5440(6) 0.6891(2)
C30A C 1.1947(14) 0.5531(5) 0.7379(3)
O6A O 0.7225(16) 0.8377(7) 0.7497(3)
O7A O 0.9328(11) 0.6767(4) 0.65973(16)
O8A O 1.5176(11) 0.3756(4) 0.79841(18)
O9A O 1.5706(13) 0.4259(5) 0.8411(2)
U1B U 1.58011(5) 0.30385(2) 0.843387(8)
U1C U 0.41989(5) 0.30385(2) 0.656613(8)
U1F U 1.41989(5) 0.69615(2) 1.156613(8)
O4A O 0.8362(14) 0.8571(5) 0.6080(2)
O5A O 0.8559(15) 0.7437(5) 0.6084(2)
Na1B Na 0.5000 0.3043(6) 0.7500
Na1B_2 Na 1.5000 0.3043(6) 0.7500
O8B O 0.9824(11) 0.8756(4) 0.70159(18)
O8C O 1.0176(11) 0.8756(4) 0.79841(18)
O9B O 0.9294(13) 0.9259(5) 0.6589(2)
O9C O 1.0706(13) 0.9259(5) 0.8411(2)
loop_
_geom_bond_atom_site_label_1
_geom_bond_atom_site_label_2
_geom_bond_site_symmetry_1
_geom_bond_site_symmetry_2
U1 O1 1_555 1_555
O1 C20 1_555 1_555
O2 U1 1_555 1_555
O3 U1 1_555 1_555
C1 N1 1_555 1_555
C2 N1 1_555 1_555
O4 U1 1_555 1_555
C3 H1 1_555 1_555
C4 O4 1_555 1_555
C5 C3 1_555 1_555
H2 C5 1_555 1_555
C6 C8 1_555 1_555
C7 H3 1_555 1_555
C8 C9 1_555 1_555
C9 C4 1_555 1_555
C10 C12 1_555 1_555
C11 C13 1_555 1_555
C12 C1 1_555 1_555
H4 C12 1_555 1_555
C13 H5 1_555 1_555
C14 C15 1_555 1_555
C15 H6 1_555 1_555
C16 H7 1_555 1_555
C17 C3 1_555 1_555
H8 C17 1_555 1_555
C18 C2 1_555 1_555
C19 C2 1_555 1_555
H9 C19 1_555 1_555
C20 C11 1_555 1_555
C21 C10 1_555 1_555
C22 C16 1_555 1_555
H10 C22 1_555 1_555
O5 U1 1_555 1_555
C23 C19 1_555 1_555
H11 C23 1_555 1_555
N2 C14 1_555 1_555
C24 H12 1_555 1_555
C25 C24 1_555 1_555
H13 C25 1_555 1_555
C26 C7 1_555 1_555
C27 C5 1_555 1_555
N3 C6 1_555 1_555
C28 C6 1_555 1_555
H14 C28 1_555 1_555
C29 C8 1_555 1_555
H15 C29 1_555 1_555
C30 C1 1_555 1_555
Na1 O1 1_555 1_555
O6 Na1 1_555 1_555
O7 U1 1_555 1_555
O8 C21 1_555 1_555
O9 C21 1_555 1_555
O4F C4F 1_555 1_555
C4F C9F 1_555 1_555
C6F C8F 1_555 1_555
C7F H3F 1_555 1_555
C8F C9F 1_555 1_555
C9F C7F 1_555 1_555
O5F C4F 1_555 1_555
C24F H12F 1_555 1_555
C25F C24F 1_555 1_555
H13F C25F 1_555 1_555
C26F C26 1_555 1_555
N3F C6F 1_555 1_555
C28F C6F 1_555 1_555
H14F C28F 1_555 1_555
C29F C8F 1_555 1_555
H15F C29F 1_555 1_555
U1A O1A 1_555 1_555
O1A Na1 1_555 1_555
O2A U1A 1_555 1_555
O3A U1A 1_555 1_555
C1A N1A 1_555 1_555
C2A N1A 1_555 1_555
C3A H1A 1_555 1_555
C5A C3A 1_555 1_555
H2A C5A 1_555 1_555
C10A C12A 1_555 1_555
C11A C13A 1_555 1_555
C12A C1A 1_555 1_555
H4A C12A 1_555 1_555
C13A H5A 1_555 1_555
C14A C15A 1_555 1_555
C15A H6A 1_555 1_555
C16A H7A 1_555 1_555
C17A C3A 1_555 1_555
H8A C17A 1_555 1_555
C18A C2A 1_555 1_555
C19A C2A 1_555 1_555
H9A C19A 1_555 1_555
C20A O1A 1_555 1_555
C21A C10A 1_555 1_555
C22A C16A 1_555 1_555
H10A C22A 1_555 1_555
C23A C19A 1_555 1_555
H11A C23A 1_555 1_555
N2A C14A 1_555 1_555
C27A C5A 1_555 1_555
C30A C1A 1_555 1_555
O6A Na1 1_555 1_555
O7A U1A 1_555 1_555
O8A C21A 1_555 1_555
O9A C21A 1_555 1_555
U1B O8A 1_555 1_555
U1C O8 1_555 1_555
U1F O4F 1_555 1_555
O4A U1A 1_555 1_555
O5A U1A 1_555 1_555
Na1B O8 1_555 1_555
Na1B_2 O8A 1_555 1_555
O8B Na1 1_555 1_555
O8C U1 1_555 1_555
O9B U1A 1_555 1_555
O9C U1 1_555 1_555
C4 O5 1_555 1_555
C7 C9 1_555 1_555
C10 C18 1_555 1_555
C11 C27 1_555 1_555
C13 C30 1_555 1_555
C14 C27 1_555 1_555
C15 C17 1_555 1_555
C16 C18 1_555 1_555
C20 O7 1_555 1_555
C22 C23 1_555 1_555
N2 C30 1_555 1_555
C24 C28 1_555 1_555
C25 C29 1_555 1_555
C26 N3 1_555 1_555
Na1 O8C 1_555 1_555
O9 U1C 1_555 1_555
C7F C26F 1_555 1_555
O5F U1F 1_555 1_555
C24F C28F 1_555 1_555
C25F C29F 1_555 1_555
C26F N3F 1_555 1_555
U1A O8B 1_555 1_555
C10A C18A 1_555 1_555
C11A C20A 1_555 1_555
C11A C27A 1_555 1_555
C13A C30A 1_555 1_555
C14A C27A 1_555 1_555
C15A C17A 1_555 1_555
C16A C18A 1_555 1_555
C20A O7A 1_555 1_555
C22A C23A 1_555 1_555
N2A C30A 1_555 1_555
O9A U1B 1_555 1_555

#END
