
#######################################################################
#
#                 Cambridge Crystallographic Data Centre
#                                CCDC 
#
#######################################################################
#
# If this CIF has been generated from an entry in the Cambridge 
# Structural Database, then it will include bibliographic, chemical, 
# crystal, experimental, refinement or atomic coordinate data resulting 
# from the CCDC's data processing and validation procedures.
#
#######################################################################

data_OTIHOQ
_chemical_formula_moiety         'C26 H10 Cu8 N4 O16'
_symmetry_cell_setting           rhombohedral
_symmetry_space_group_name_H-M   'R -3 m'
_symmetry_Int_Tables_number      166
_space_group_name_Hall           '-R 3 2"'
loop_
_symmetry_equiv_pos_site_id
_symmetry_equiv_pos_as_xyz
1 x,y,z
2 -y,x-y,z
3 -x+y,-x,z
4 x-y,-y,-z
5 -x,-x+y,-z
6 y,x,-z
7 2/3+x,1/3+y,1/3+z
8 2/3-y,1/3+x-y,1/3+z
9 2/3-x+y,1/3-x,1/3+z
10 2/3+x-y,1/3-y,1/3-z
11 2/3-x,1/3-x+y,1/3-z
12 2/3+y,1/3+x,1/3-z
13 1/3+x,2/3+y,2/3+z
14 1/3-y,2/3+x-y,2/3+z
15 1/3-x+y,2/3-x,2/3+z
16 1/3+x-y,2/3-y,2/3-z
17 1/3-x,2/3-x+y,2/3-z
18 1/3+y,2/3+x,2/3-z
19 -x,-y,-z
20 y,-x+y,-z
21 x-y,x,-z
22 -x+y,y,z
23 x,x-y,z
24 -y,-x,z
25 1/3-x,2/3-y,2/3-z
26 1/3+y,2/3-x+y,2/3-z
27 1/3+x-y,2/3+x,2/3-z
28 1/3-x+y,2/3+y,2/3+z
29 1/3+x,2/3+x-y,2/3+z
30 1/3-y,2/3-x,2/3+z
31 2/3-x,1/3-y,1/3-z
32 2/3+y,1/3-x+y,1/3-z
33 2/3+x-y,1/3+x,1/3-z
34 2/3-x+y,1/3+y,1/3+z
35 2/3+x,1/3+x-y,1/3+z
36 2/3-y,1/3-x,1/3+z
_cell_length_a                   18.586(5)
_cell_length_b                   18.586(5)
_cell_length_c                   38.461(5)
_cell_angle_alpha                90
_cell_angle_beta                 90
_cell_angle_gamma                120
_cell_volume                     11506
loop_
_atom_site_label
_atom_site_type_symbol
_atom_site_fract_x
_atom_site_fract_y
_atom_site_fract_z
_atom_site_U_iso_or_equiv
_atom_site_thermal_displace_type
C1 C 0.0926(2) 0.4524(2) -0.02707(9) 0.0377 Uani
C2 C 0.1508(2) 0.4312(2) -0.04402(9) 0.0386 Uani
C3 C 0.22310(16) 0.4462(3) -0.02688(12) 0.0358 Uani
H1 H 0.2333 0.4665 -0.0037 0.0430 Uiso
C4 C 0.1363(2) 0.4018(3) -0.07774(10) 0.0481 Uani
H2 H 0.0867 0.3911 -0.0892 0.0570 Uiso
C5 C 0.1938(2) 0.3876(4) -0.09496(14) 0.0496 Uani
C6 C 0.1799(2) 0.3599(4) -0.13213(15) 0.0554 Uani
C7 C 0.1505(6) 0.3949(7) -0.1556(2) 0.0681 Uani
H3 H 0.1372 0.4356 -0.1481 0.0820 Uiso
C8 C 0.1031(6) 0.2963(8) -0.1429(2) 0.0674 Uani
N1 N 0.0293(16) 0.2409(13) -0.1195(6) 0.1108 Uani
O1 O 0.11047(15) 0.48204(17) 0.00347(6) 0.0427 Uani
O2 O 0.03036(16) 0.44172(18) -0.04404(6) 0.0457 Uani
O3 O 0.1181(3) 0.55904(17) 0.07639(12) 0.0785 Uani
Cu1 Cu 0.04730(3) 0.523650(15) 0.028322(13) 0.0263 Uani
C1O C -0.0265(3) 0.2143(2) -0.30626(9) 0.0377 Uani
C2O C 0.0529(3) 0.2355(2) -0.28931(9) 0.0386 Uani
C3O C 0.11023(34) 0.2205(3) -0.30645(12) 0.0358 Uani
H1O H 0.1001 0.2002 -0.3296 0.0430 Uiso
C4O C 0.0678(4) 0.2649(3) -0.25559(10) 0.0481 Uani
H2O H 0.0289 0.2756 -0.2441 0.0570 Uiso
C5O C 0.1395(4) 0.2791(4) -0.23837(14) 0.0496 Uani
C6O C 0.1533(4) 0.3068(4) -0.20120(15) 0.0554 Uani
C7O C 0.0889(9) 0.2718(7) -0.1777(2) 0.0681 Uani
H3O H 0.0349 0.2311 -0.1852 0.0820 Uiso
C8O C 0.1401(10) 0.3704(8) -0.1904(2) 0.0674 Uani
N1O N 0.1217(21) 0.4258(13) -0.2138(6) 0.1108 Uani
O1O O -0.03824(23) 0.18463(17) -0.33680(6) 0.0427 Uani
O2O O -0.07803(24) 0.22495(18) -0.28929(6) 0.0457 Uani
C1U C 0.3598(3) 0.4524(2) -0.02707(9) 0.0377 Uani
C2U C 0.2804(3) 0.4312(2) -0.04402(9) 0.0386 Uani
C4U C 0.2655(4) 0.4018(3) -0.07774(10) 0.0481 Uani
H2U H 0.3044 0.3911 -0.0892 0.0570 Uiso
C7U C 0.2444(9) 0.3949(7) -0.1556(2) 0.0681 Uani
H3U H 0.2984 0.4356 -0.1481 0.0820 Uiso
C8U C 0.1932(10) 0.2963(8) -0.1429(2) 0.0674 Uani
N1U N 0.2116(21) 0.2409(13) -0.1195(6) 0.1108 Uani
O1U O 0.37157(23) 0.48204(17) 0.00347(6) 0.0427 Uani
O2U O 0.41136(24) 0.44172(18) -0.04404(6) 0.0457 Uani
C1X C 0.2407(2) 0.2143(2) -0.30626(9) 0.0377 Uani
C2X C 0.1825(2) 0.2355(2) -0.28931(9) 0.0386 Uani
C4X C 0.1970(2) 0.2649(3) -0.25559(10) 0.0481 Uani
H2X H 0.2466 0.2756 -0.2441 0.0570 Uiso
C7X C 0.1828(6) 0.2718(7) -0.1777(2) 0.0681 Uani
H3X H 0.1961 0.2311 -0.1852 0.0820 Uiso
C8X C 0.2302(6) 0.3704(8) -0.1904(2) 0.0674 Uani
N1X N 0.3040(16) 0.4258(13) -0.2138(6) 0.1108 Uani
O1X O 0.22286(15) 0.18463(17) -0.33680(6) 0.0427 Uani
O2X O 0.30297(16) 0.22495(18) -0.28929(6) 0.0457 Uani
O3A O 0.44096(17) 0.55906(34) 0.07639(12) 0.0785 Uani
Cu1A Cu 0.476350(15) 0.523650(34) 0.028322(13) 0.0263 Uani
O1A O 0.51796(17) 0.62843(23) 0.00347(6) 0.0427 Uani
O1V O 0.11047(15) 0.62843(23) 0.00347(6) 0.0427 Uani
O2C O 0.58864(24) 0.55828(18) 0.04404(6) 0.0457 Uani
O2D O -0.03036(16) 0.41136(24) 0.04404(6) 0.0457 Uani
O2R O -0.03036(16) 0.55828(18) 0.04404(6) 0.0457 Uani
O2S O 0.44172(18) 0.41136(24) 0.04404(6) 0.0457 Uani
Cu1C Cu 0.523650(34) 0.476350(15) -0.028322(13) 0.0263 Uani
Cu1D Cu -0.04730(3) 0.476350(34) -0.028322(13) 0.0263 Uani
Cu1L Cu 0.38063(3) 0.190317(15) -0.305011(13) 0.0263 Uani
Cu1M Cu -0.190317(15) 0.190317(34) -0.305011(13) 0.0263 Uani
Cu1O Cu -0.143017(34) 0.143017(15) -0.361655(13) 0.0263 Uani
Cu1P Cu 0.28603(3) 0.143017(34) -0.361655(13) 0.0263 Uani
loop_
_atom_site_aniso_label
_atom_site_aniso_U_11
_atom_site_aniso_U_22
_atom_site_aniso_U_33
_atom_site_aniso_U_23
_atom_site_aniso_U_13
_atom_site_aniso_U_12
C1 0.0317(19) 0.040(2) 0.0389(19) -0.0008(16) 0.0023(15) 0.0160(17)
C2 0.0341(19) 0.045(2) 0.0348(18) -0.0067(16) 0.0008(15) 0.0183(17)
C3 0.039(2) 0.041(3) 0.028(2) -0.003(2) -0.0017(11) 0.0205(14)
C4 0.039(2) 0.065(3) 0.047(2) -0.0108(19) -0.0079(17) 0.031(2)
C5 0.044(2) 0.071(4) 0.042(3) -0.020(3) -0.0100(14) 0.035(2)
C6 0.050(2) 0.087(5) 0.041(3) -0.032(3) -0.0159(16) 0.043(2)
C7 0.074(6) 0.113(9) 0.055(5) -0.042(6) -0.021(5) 0.075(7)
C8 0.039(5) 0.118(9) 0.053(5) -0.020(5) -0.005(4) 0.045(6)
N1 0.14(2) 0.089(15) 0.095(14) -0.021(12) 0.018(14) 0.051(15)
O1 0.0331(14) 0.0661(18) 0.0361(13) -0.0116(12) -0.0044(11) 0.0302(13)
O2 0.0343 0.0722 0.0366 -0.0154 -0.0067 0.0311
O3 0.091(4) 0.086(3) 0.060(3) -0.0223(13) -0.045(3) 0.0453(19)
Cu1 0.0164(3) 0.0366(3) 0.0192(3) -0.00151(10) -0.0030(2) 0.00822(15)
C1O 0.0397 0.04 0.0389 -0.0008 -0.0031 0.024
C2O 0.0425 0.045 0.0348 -0.0067 -0.0075 0.0267
C3O 0.039 0.041 0.028 -0.003 -0.0013 0.0205
C4O 0.042 0.065 0.047 -0.0108 -0.0029 0.034
C5O 0.045 0.071 0.042 -0.02 -0.01 0.036
C6O 0.051 0.087 0.041 -0.032 -0.0161 0.044
C7O 0.037 0.113 0.055 -0.042 -0.021 0.038
C8O 0.067 0.118 0.053 -0.02 -0.015 0.073
N1O 0.127 0.089 0.095 -0.021 -0.039 0.038
O1O 0.0388 0.0661 0.0361 -0.0116 -0.0072 0.0359
O2O 0.0443 0.0722 0.0366 -0.0154 -0.0087 0.0411
C1U 0.0397 0.04 0.0389 -0.0008 -0.0031 0.024
C2U 0.0425 0.045 0.0348 -0.0067 -0.0075 0.0267
C4U 0.042 0.065 0.047 -0.0108 -0.0029 0.034
C7U 0.037 0.113 0.055 -0.042 -0.021 0.038
C8U 0.067 0.118 0.053 -0.02 -0.015 0.073
N1U 0.127 0.089 0.095 -0.021 -0.039 0.038
O1U 0.0388 0.0661 0.0361 -0.0116 -0.0072 0.0359
O2U 0.0443 0.0722 0.0366 -0.0154 -0.0087 0.0411
C1X 0.0317 0.04 0.0389 -0.0008 0.0023 0.016
C2X 0.0341 0.045 0.0348 -0.0067 0.0008 0.0183
C4X 0.039 0.065 0.047 -0.0108 -0.0079 0.031
C7X 0.074 0.113 0.055 -0.042 -0.021 0.075
C8X 0.039 0.118 0.053 -0.02 -0.005 0.045
N1X 0.14 0.089 0.095 -0.021 0.018 0.051
O1X 0.0331 0.0661 0.0361 -0.0116 -0.0044 0.0302
O2X 0.0343 0.0722 0.0366 -0.0154 -0.0067 0.0311
O3A 0.086 0.0864 0.06 -0.0227 0.0223 0.0407
Cu1A 0.0366 0.03656 0.0192 -0.00149 0.00151 0.02838
O1A 0.0661 0.0388 0.0361 0.0072 0.0116 0.0359
O1V 0.0331 0.0388 0.0361 0.0072 -0.0044 0.0029
O2C 0.0443 0.0722 0.0366 -0.0154 -0.0087 0.0411
O2D 0.0343 0.0443 0.0366 0.0087 -0.0067 0.0032
O2R 0.0343 0.0722 0.0366 -0.0154 -0.0067 0.0311
O2S 0.0722 0.0443 0.0366 0.0087 0.0154 0.0411
Cu1C 0.03656 0.0366 0.0192 -0.00151 0.00149 0.02838
Cu1D 0.0164 0.03656 0.0192 -0.00149 -0.003 0.00818
Cu1L 0.0164 0.0366 0.0192 -0.00151 -0.003 0.00822
Cu1M 0.0366 0.03656 0.0192 -0.00149 0.00151 0.02838
Cu1O 0.03656 0.0366 0.0192 -0.00151 0.00149 0.02838
Cu1P 0.0164 0.03656 0.0192 -0.00149 -0.003 0.00818
loop_
_geom_bond_atom_site_label_1
_geom_bond_atom_site_label_2
_geom_bond_site_symmetry_1
_geom_bond_site_symmetry_2
C1 C2 1_555 1_555
C2 C3 1_555 1_555
C3 H1 1_555 1_555
C4 C2 1_555 1_555
H2 C4 1_555 1_555
C5 C4 1_555 1_555
C6 C5 1_555 1_555
C7 C6 1_555 1_555
H3 C7 1_555 1_555
C8 C6 1_555 1_555
N1 C8 1_555 1_555
O1 C1 1_555 1_555
O2 C1 1_555 1_555
O3 Cu1 1_555 1_555
Cu1 O1 1_555 1_555
C1O C2O 1_555 1_555
C2O C3O 1_555 1_555
C3O H1O 1_555 1_555
C4O C2O 1_555 1_555
H2O C4O 1_555 1_555
C5O C4O 1_555 1_555
C6O C5O 1_555 1_555
C7O C8 1_555 1_555
H3O C7O 1_555 1_555
C8O C7 1_555 1_555
N1O C8O 1_555 1_555
O1O C1O 1_555 1_555
O2O C1O 1_555 1_555
C1U C2U 1_555 1_555
C2U C3 1_555 1_555
C4U C5 1_555 1_555
H2U C4U 1_555 1_555
C7U C6 1_555 1_555
H3U C7U 1_555 1_555
C8U C6 1_555 1_555
N1U C8U 1_555 1_555
O1U C1U 1_555 1_555
O2U C1U 1_555 1_555
C1X C2X 1_555 1_555
C2X C3O 1_555 1_555
C4X C5O 1_555 1_555
H2X C4X 1_555 1_555
C7X C6O 1_555 1_555
H3X C7X 1_555 1_555
C8X C6O 1_555 1_555
N1X C8X 1_555 1_555
O1X C1X 1_555 1_555
O2X C1X 1_555 1_555
O3A Cu1A 1_555 1_555
Cu1A O1U 1_555 1_555
O1A Cu1A 1_555 1_555
O1V Cu1 1_555 1_555
O2C Cu1A 1_555 1_555
O2D Cu1 1_555 1_555
O2R Cu1 1_555 1_555
O2S Cu1A 1_555 1_555
Cu1C O2U 1_555 1_555
Cu1D O2 1_555 1_555
Cu1L O2X 1_555 1_555
Cu1M O2O 1_555 1_555
Cu1O O1O 1_555 1_555
Cu1P O1X 1_555 1_555
C7 C8 1_555 1_555
C7 C7U 1_555 1_555
C8 C8U 1_555 1_555
Cu1 Cu1D 1_555 1_555
C6O C7O 1_555 1_555
C6O C8O 1_555 1_555
C7O C8O 1_555 1_555
C7O C7X 1_555 1_555
C8O C8X 1_555 1_555
C2U C4U 1_555 1_555
C7U C8U 1_555 1_555
C7U C8X 1_555 1_555
C8U C7X 1_555 1_555
C2X C4X 1_555 1_555
C7X C8X 1_555 1_555
Cu1A Cu1C 1_555 1_555
Cu1L Cu1P 1_555 1_555
Cu1M Cu1O 1_555 1_555

#END
