
#######################################################################
#
#                 Cambridge Crystallographic Data Centre
#                                CCDC 
#
#######################################################################
#
# If this CIF has been generated from an entry in the Cambridge 
# Structural Database, then it will include bibliographic, chemical, 
# crystal, experimental, refinement or atomic coordinate data resulting 
# from the CCDC's data processing and validation procedures.
#
#######################################################################

data_KOQLUZ
_chemical_formula_moiety         '(C24 H24 Cu1 N8 O41 Si1 W12)n'
_symmetry_cell_setting           monoclinic
_symmetry_space_group_name_H-M   'C 2/c'
_symmetry_Int_Tables_number      15
_space_group_name_Hall           '-C 2yc'
loop_
_symmetry_equiv_pos_site_id
_symmetry_equiv_pos_as_xyz
1 x,y,z
2 -x,y,1/2-z
3 1/2+x,1/2+y,z
4 1/2-x,1/2+y,1/2-z
5 -x,-y,-z
6 x,-y,1/2+z
7 1/2-x,1/2-y,-z
8 1/2+x,1/2-y,1/2+z
_cell_length_a                   24.737(5)
_cell_length_b                   10.601(5)
_cell_length_c                   20.038(5)
_cell_angle_alpha                90
_cell_angle_beta                 99.405(5)
_cell_angle_gamma                90
_cell_volume                     5184.07
loop_
_atom_site_label
_atom_site_type_symbol
_atom_site_fract_x
_atom_site_fract_y
_atom_site_fract_z
C1 C 0.1075(6) -0.1197(14) 0.4964(7)
H1 H 0.0985 -0.1921 0.5184
C2 C 0.1517(7) 0.0158(14) 0.4443(8)
H2 H 0.1783 0.0553 0.4238
C3 C 0.1026(6) 0.0590(17) 0.4487(7)
H3 H 0.0890 0.1364 0.4316
C4 C 0.2429(6) -0.1661(14) 0.4475(7)
H4 H 0.2376 -0.1088 0.4119
C5 C 0.2100(6) -0.2666(14) 0.5402(7)
H5 H 0.1831 -0.2774 0.5671
N1 N 0.0740(5) -0.0244(11) 0.4816(6)
N2 N 0.1558(5) -0.1021(12) 0.4767(5)
O1 O -0.0452(4) 0.4119(9) 0.2775(4)
O2 O -0.0299(3) 0.5871(9) 0.1882(4)
O3 O 0.0370(4) 0.8565(9) 0.0819(5)
O4 O 0.0550(4) 0.7769(10) 0.2180(5)
O5 O 0.0681(4) 0.6070(10) 0.1293(4)
O6 O -0.0319(3) 0.6445(9) 0.0627(4)
O7 O -0.0490(4) 0.8168(9) 0.1533(4)
O8 O 0.1533(4) 0.8394(10) 0.3074(5)
O9 O 0.1268(4) 0.6000(9) 0.2488(5)
O10 O 0.1768(4) 0.5188(9) 0.1411(5)
O11 O 0.0864(3) 0.3527(9) 0.1156(4)
O12 O 0.1483(3) 0.3605(9) 0.2377(4)
O13 O -0.1138(4) 0.4799(10) 0.0081(5)
O14 O -0.1239(3) 0.6392(9) 0.1169(4)
O15 O -0.1106(3) 0.3932(9) 0.1419(4)
O16 O 0.1499(4) 0.1616(10) 0.3241(5)
O17 O 0.0364(4) 0.2210(9) 0.3227(4)
O18 O -0.0735(4) 0.1790(9) 0.2935(4)
O19 O 0.0199(3) 0.3923(9) 0.4082(4)
O20 O -0.0183(4) 0.1437(10) 0.4261(5)
Si1 Si -0.0000 0.4979(5) 0.2500
Cu1 Cu -0.0000 0.0000 0.5000
W1 W 0.01464(2) 0.74051(6) 0.13230(3)
W2 W 0.10168(2) 0.72897(6) 0.30128(3)
W3 W 0.11849(2) 0.48828(5) 0.17177(3)
W4 W -0.07682(2) 0.51137(6) 0.08523(3)
W5 W 0.10336(2) 0.26986(6) 0.28945(3)
W6 W -0.02440(2) 0.25840(6) 0.36331(3)
C6 C 0.2026(5) -0.1814(13) 0.4872(6)
C1F C 0.3925(6) -0.3803(14) 0.5036(7)
H1F H 0.4015 -0.3079 0.4816
C2F C 0.3483(7) -0.5158(14) 0.5557(8)
H2F H 0.3217 -0.5553 0.5762
C3F C 0.3974(6) -0.5590(17) 0.5513(7)
H3F H 0.4110 -0.6364 0.5684
C4F C 0.2571(6) -0.3339(14) 0.5525(7)
H4F H 0.2624 -0.3912 0.5881
C5F C 0.2900(6) -0.2334(14) 0.4598(7)
H5F H 0.3169 -0.2226 0.4329
N1F N 0.4260(5) -0.4756(11) 0.5184(6)
N2F N 0.3442(5) -0.3979(12) 0.5233(5)
C6F C 0.2974(5) -0.3186(13) 0.5128(6)
O1A O 0.0452(4) 0.4119(9) 0.2225(4)
O2A O 0.0299(3) 0.5871(9) 0.3118(4)
O3A O -0.0370(4) 0.8565(9) 0.4181(5)
O4A O -0.0550(4) 0.7769(10) 0.2820(5)
O5A O -0.0681(4) 0.6070(10) 0.3707(4)
O6A O 0.0319(3) 0.6445(9) 0.4373(4)
O7A O 0.0490(4) 0.8168(9) 0.3467(4)
O8A O -0.1533(4) 0.8394(10) 0.1926(5)
O9A O -0.1268(4) 0.6000(9) 0.2512(5)
O10A O -0.1768(4) 0.5188(9) 0.3589(5)
O11A O -0.0864(3) 0.3527(9) 0.3844(4)
O12A O -0.1483(3) 0.3605(9) 0.2623(4)
O13A O 0.1138(4) 0.4799(10) 0.4919(5)
O14A O 0.1239(3) 0.6392(9) 0.3831(4)
O15A O 0.1106(3) 0.3932(9) 0.3581(4)
O16A O -0.1499(4) 0.1616(10) 0.1759(5)
O17A O -0.0364(4) 0.2210(9) 0.1773(4)
O18A O 0.0735(4) 0.1790(9) 0.2065(4)
O19A O -0.0199(3) 0.3923(9) 0.0918(4)
O20A O 0.0183(4) 0.1437(10) 0.0739(5)
W1A W -0.01464(2) 0.74051(6) 0.36770(3)
W2A W -0.10168(2) 0.72897(6) 0.19872(3)
W3A W -0.11849(2) 0.48828(5) 0.32823(3)
W4A W 0.07682(2) 0.51137(6) 0.41477(3)
W5A W -0.10336(2) 0.26986(6) 0.21055(3)
W6A W 0.02440(2) 0.25840(6) 0.13669(3)
N1D N -0.0740(5) 0.0244(11) 0.5184(6)
O3A_2 O -0.0370(4) -0.1435(9) 0.4181(5)
O3E O 0.0370(4) 0.1435(9) 0.5819(5)
O20D O 0.0183(4) -0.1437(10) 0.5739(5)
Cu1_2 Cu -0.0000 1.0000 0.5000
Cu1A Cu 0.0000 0.0000 0.0000
Cu1A_2 Cu 0.0000 1.0000 0.0000
Cu1B Cu 0.5000 -0.5000 0.5000
C7 C 0.2895(8) 0.208(2) 0.4636(9)
H6 H 0.3166 0.1810 0.4399
C8 C 0.2246(7) 0.3622(16) 0.4847(8)
H7 H 0.2077 0.4399 0.4753
C9 C 0.2615(7) 0.3251(17) 0.4471(8)
C10 C 0.3321(7) 0.411(2) 0.3821(10)
H8 H 0.3630 0.3684 0.4034
C11 C 0.2442(8) 0.4783(18) 0.3565(10)
H9 H 0.2069 0.4887 0.3570
N3 N 0.2778(6) 0.4010(14) 0.3955(7)
N4 N 0.2744(7) 0.5396(17) 0.3155(9)
C12 C 0.3287(9) 0.4984(17) 0.3302(12)
H10 H 0.3574 0.5250 0.3090
C7F C 0.2105(8) 0.292(2) 0.5364(9)
H6F H 0.1834 0.3190 0.5601
C8F C 0.2754(7) 0.1378(16) 0.5153(8)
H7F H 0.2923 0.0601 0.5247
C9F C 0.2385(7) 0.1749(17) 0.5529(8)
C10F C 0.1679(7) 0.089(2) 0.6179(10)
H8F H 0.1370 0.1316 0.5966
C11F C 0.2558(8) 0.0217(18) 0.6435(10)
H9F H 0.2931 0.0113 0.6430
N3F N 0.2222(6) 0.0990(14) 0.6045(7)
N4F N 0.2256(7) -0.0396(17) 0.6845(9)
C12F C 0.1713(9) 0.0016(17) 0.6698(12)
H10F H 0.1426 -0.0250 0.6910
O21 O 0.2536(5) 0.2521(12) 0.2489(7)
loop_
_geom_bond_atom_site_label_1
_geom_bond_atom_site_label_2
_geom_bond_site_symmetry_1
_geom_bond_site_symmetry_2
C1 H1 1_555 1_555
C2 H2 1_555 1_555
C3 C2 1_555 1_555
H3 C3 1_555 1_555
C4 H4 1_555 1_555
C5 H5 1_555 1_555
N1 C1 1_555 1_555
N2 C1 1_555 1_555
O1 Si1 1_555 1_555
O2 Si1 1_555 1_555
O3 W1 1_555 1_555
O4 W1 1_555 1_555
O5 W1 1_555 1_555
O6 W1 1_555 1_555
O7 W1 1_555 1_555
O8 W2 1_555 1_555
O9 W2 1_555 1_555
O10 W3 1_555 1_555
O11 W3 1_555 1_555
O12 W3 1_555 1_555
O13 W4 1_555 1_555
O14 W4 1_555 1_555
O15 W4 1_555 1_555
O16 W5 1_555 1_555
O17 W5 1_555 1_555
O18 W6 1_555 1_555
O19 W6 1_555 1_555
O20 Cu1 1_555 1_555
Si1 O1A 1_555 1_555
Cu1 N1 1_555 1_555
W1 O2 1_555 1_555
W2 O4 1_555 1_555
W3 O5 1_555 1_555
W4 O2 1_555 1_555
W5 O12 1_555 1_555
W6 O1 1_555 1_555
C6 C4 1_555 1_555
C7 H6 1_555 1_555
C8 H7 1_555 1_555
C9 C7 1_555 1_555
C10 H8 1_555 1_555
C11 H9 1_555 1_555
N3 C9 1_555 1_555
N4 C11 1_555 1_555
C12 C10 1_555 1_555
H10 C12 1_555 1_555
C1F H1F 1_555 1_555
C2F H2F 1_555 1_555
C3F C2F 1_555 1_555
H3F C3F 1_555 1_555
C4F C5 1_555 1_555
H4F C4F 1_555 1_555
C5F C4 1_555 1_555
H5F C5F 1_555 1_555
N1F C1F 1_555 1_555
N2F C1F 1_555 1_555
C6F C4F 1_555 1_555
O1A W3 1_555 1_555
O2A Si1 1_555 1_555
O3A W1A 1_555 1_555
O4A W1A 1_555 1_555
O5A W1A 1_555 1_555
O6A W1A 1_555 1_555
O7A W2 1_555 1_555
O8A W2A 1_555 1_555
O9A W2A 1_555 1_555
O10A W3A 1_555 1_555
O11A W6 1_555 1_555
O12A W3A 1_555 1_555
O13A W4A 1_555 1_555
O14A W2 1_555 1_555
O15A W5 1_555 1_555
O16A W5A 1_555 1_555
O17A W5A 1_555 1_555
O18A W5 1_555 1_555
O19A W4 1_555 1_555
O20A W6A 1_555 1_555
W1A O2A 1_555 1_555
W2A O2 1_555 1_555
W3A O1 1_555 1_555
W4A O19 1_555 1_555
W5A O1 1_555 1_555
W6A O11 1_555 1_555
N1D Cu1 1_555 1_555
O3A_2 Cu1 1_555 1_555
O3E Cu1 1_555 1_555
O20D Cu1 1_555 1_555
Cu1_2 O3A 1_555 1_555
Cu1A O20A 1_555 1_555
Cu1A_2 O3 1_555 1_555
Cu1B N1F 1_555 1_555
C7F C8 1_555 1_555
H6F C7F 1_555 1_555
C8F C7 1_555 1_555
H7F C8F 1_555 1_555
C9F C7F 1_555 1_555
C10F H8F 1_555 1_555
C11F H9F 1_555 1_555
N3F C9F 1_555 1_555
N4F C11F 1_555 1_555
C12F C10F 1_555 1_555
H10F C12F 1_555 1_555
C2 N2 1_555 1_555
C3 N1 1_555 1_555
C5 C6 1_555 1_555
N2 C6 1_555 1_555
O6 W4 1_555 1_555
O7 W2A 1_555 1_555
O9 W3 1_555 1_555
O14 W2A 1_555 1_555
O15 W5A 1_555 1_555
O17 W6 1_555 1_555
O18 W5A 1_555 1_555
O20 W6 1_555 1_555
W2 O2A 1_555 1_555
W5 O1A 1_555 1_555
C8 C9 1_555 1_555
C10 N3 1_555 1_555
C11 N3 1_555 1_555
N4 C12 1_555 1_555
C2F N2F 1_555 1_555
C3F N1F 1_555 1_555
C5F C6F 1_555 1_555
N2F C6F 1_555 1_555
O1A W6A 1_555 1_555
O2A W4A 1_555 1_555
O4A W2A 1_555 1_555
O5A W3A 1_555 1_555
O6A W4A 1_555 1_555
O7A W1A 1_555 1_555
O9A W3A 1_555 1_555
O11A W3A 1_555 1_555
O12A W5A 1_555 1_555
O14A W4A 1_555 1_555
O15A W4A 1_555 1_555
O17A W6A 1_555 1_555
O18A W6A 1_555 1_555
O19A W6A 1_555 1_555
C8F C9F 1_555 1_555
C10F N3F 1_555 1_555
C11F N3F 1_555 1_555
N4F C12F 1_555 1_555

#END
