
#######################################################################
#
#                 Cambridge Crystallographic Data Centre
#                                CCDC 
#
#######################################################################
#
# If this CIF has been generated from an entry in the Cambridge 
# Structural Database, then it will include bibliographic, chemical, 
# crystal, experimental, refinement or atomic coordinate data resulting 
# from the CCDC's data processing and validation procedures.
#
#######################################################################

data_JUJMOS
_chemical_formula_moiety         '(C96 H72 N6 O26 Zn8)n'
_symmetry_cell_setting           rhombohedral
_symmetry_space_group_name_H-M   'R 3 2'
_symmetry_Int_Tables_number      155
_space_group_name_Hall           'R 3 2"'
loop_
_symmetry_equiv_pos_site_id
_symmetry_equiv_pos_as_xyz
1 x,y,z
2 -y,x-y,z
3 -x+y,-x,z
4 y,x,-z
5 -x,-x+y,-z
6 x-y,-y,-z
7 2/3+x,1/3+y,1/3+z
8 2/3-y,1/3+x-y,1/3+z
9 2/3-x+y,1/3-x,1/3+z
10 2/3+y,1/3+x,1/3-z
11 2/3-x,1/3-x+y,1/3-z
12 2/3+x-y,1/3-y,1/3-z
13 1/3+x,2/3+y,2/3+z
14 1/3-y,2/3+x-y,2/3+z
15 1/3-x+y,2/3-x,2/3+z
16 1/3+y,2/3+x,2/3-z
17 1/3-x,2/3-x+y,2/3-z
18 1/3+x-y,2/3-y,2/3-z
_cell_length_a                   19.168(3)
_cell_length_b                   19.168(3)
_cell_length_c                   67.695(13)
_cell_angle_alpha                90
_cell_angle_beta                 90
_cell_angle_gamma                120
_cell_volume                     21539.8
loop_
_atom_site_label
_atom_site_type_symbol
_atom_site_fract_x
_atom_site_fract_y
_atom_site_fract_z
Zn1 Zn 0.3333 0.6667 0.293476(14)
Zn2 Zn 0.35649(5) 0.58519(4) 0.331705(7)
Zn3 Zn 0.0000 0.0000 0.188452(14)
Zn4 Zn 0.10308(3) 0.08677(3) 0.150758(7)
O1 O 0.3333 0.6667 0.32189(9)
O2 O 0.0000 0.0000 0.15984(7)
O3 O 0.3376(3) 0.5749(3) 0.28323(5)
O4 O 0.3818(3) 0.5369(3) 0.30995(5)
O5 O 0.1034(3) 0.0805(3) 0.19820(5)
O6 O 0.1811(2) 0.1436(2) 0.17224(5)
O7 O 0.1530(2) 0.0442(2) 0.13365(5)
O8 O 0.0763(3) -0.0897(2) 0.13615(6)
O9 O 0.5169(3) 0.2195(4) 0.01581(5)
O10 O 0.6021(4) 0.1698(3) 0.01412(9)
N1 N 0.4225(6) 0.3247(6) 0.24347(12)
N2 N 0.3544(4) -0.0617(4) 0.08044(11)
C1 C 0.3663(4) 0.5351(5) 0.29190(10)
C2 C 0.3802(3) 0.4767(3) 0.27933(5)
C3 C 0.4218(4) 0.4405(4) 0.28684(5)
H1 H 0.4412 0.4510 0.3000
C4 C 0.4351(4) 0.3889(4) 0.27505(7)
H2 H 0.4636 0.3642 0.2802
C5 C 0.4068(3) 0.3735(3) 0.25573(7)
C6 C 0.3651(3) 0.4097(3) 0.24821(5)
H3 H 0.3457 0.3992 0.2350
C7 C 0.3518(3) 0.4613(3) 0.26001(5)
H4 H 0.3233 0.4860 0.2549
C8 C 0.4915(8) 0.3129(8) 0.24605(17)
H5 H 0.5414 0.3641 0.2440
H6 H 0.4884 0.2732 0.2364
H7 H 0.4910 0.2934 0.2595
C9 C 0.1700(4) 0.1296(4) 0.19015(7)
C10 C 0.2370(4) 0.1825(4) 0.20342(8)
C11 C 0.3129(4) 0.2305(4) 0.19696(9)
H8 H 0.3243 0.2301 0.1833
C12 C 0.3750(4) 0.2804(5) 0.20964(10)
H9 H 0.4272 0.3166 0.2046
C13 C 0.3598(6) 0.2765(7) 0.22920(13)
C14 C 0.2814(7) 0.2281(7) 0.23613(11)
H10 H 0.2683 0.2294 0.2496
C15 C 0.2255(5) 0.1799(7) 0.22317(9)
H11 H 0.1742 0.1412 0.2282
C16 C 0.1370(3) -0.0272(3) 0.12984(7)
C17 C 0.1980(2) -0.0346(2) 0.11725(7)
C18 C 0.1802(3) -0.11066(19) 0.11083(9)
H12 H 0.1317 -0.1569 0.1149
C19 C 0.2334(3) -0.1190(2) 0.09844(9)
H13 H 0.2213 -0.1709 0.0941
C20 C 0.3044(3) -0.0513(3) 0.09247(8)
C21 C 0.3222(2) 0.0247(2) 0.09889(7)
H14 H 0.3707 0.0710 0.0948
C22 C 0.2689(2) 0.03305(18) 0.11128(6)
H15 H 0.2811 0.0850 0.1157
C23 C 0.3517(7) -0.1384(6) 0.0804(2)
H16 H 0.3147 -0.1730 0.0907
H17 H 0.4057 -0.1299 0.0829
H18 H 0.3328 -0.1642 0.0675
C24 C 0.5414(6) 0.1706(5) 0.02071(12)
C25 C 0.4942(3) 0.1123(3) 0.03682(7)
C26 C 0.5224(3) 0.0650(4) 0.04524(9)
H19 H 0.5727 0.0713 0.0412
C27 C 0.4771(3) 0.0084(3) 0.05957(9)
H20 H 0.4964 -0.0240 0.0653
C28 C 0.4035(3) -0.0009(3) 0.06550(7)
C29 C 0.3752(2) 0.0464(3) 0.05708(7)
H21 H 0.3249 0.0401 0.0611
C30 C 0.4206(3) 0.1031(3) 0.04274(7)
H22 H 0.4013 0.1354 0.0370
Zn2A Zn -0.58519(4) -0.22870(6) 0.331705(7)
Zn4A Zn -0.08677(3) 0.01631(4) 0.150758(7)
O3A O -0.5749(3) -0.2373(4) 0.28323(5)
O4A O -0.5369(3) -0.1551(4) 0.30995(5)
O5A O -0.0805(3) 0.0229(4) 0.19820(5)
O6A O -0.1436(2) 0.0375(3) 0.17224(5)
O7A O -0.0442(2) 0.1088(3) 0.13365(5)
O8A O 0.0897(2) 0.1660(4) 0.13615(6)
O9A O -0.2195(4) 0.2974(5) 0.01581(5)
O10A O -0.1698(3) 0.4323(5) 0.01412(9)
N1A N -0.3247(6) 0.0978(8) 0.24347(12)
N2A N 0.0617(4) 0.4161(6) 0.08044(11)
C1A C -0.5351(5) -0.1688(6) 0.29190(10)
C2A C -0.4767(3) -0.0965(4) 0.27933(5)
C3A C -0.4405(4) -0.0187(6) 0.28684(5)
H1A H -0.4510 -0.0098 0.3000
C4A C -0.3889(4) 0.0462(6) 0.27505(7)
H2A H -0.3642 0.0994 0.2802
C5A C -0.3735(3) 0.0333(4) 0.25573(7)
C6A C -0.4097(3) -0.0446(4) 0.24821(5)
H3A H -0.3992 -0.0535 0.2350
C7A C -0.4613(3) -0.1095(4) 0.26001(5)
H4A H -0.4860 -0.1627 0.2549
C8A C -0.3129(8) 0.1786(11) 0.24605(17)
H5A H -0.3641 0.1773 0.2440
H6A H -0.2732 0.2152 0.2364
H7A H -0.2934 0.1976 0.2595
C9A C -0.1296(4) 0.0404(6) 0.19015(7)
C10A C -0.1825(4) 0.0545(6) 0.20342(8)
C11A C -0.2305(4) 0.0824(6) 0.19696(9)
H8A H -0.2301 0.0942 0.1833
C12A C -0.2804(5) 0.0946(6) 0.20964(10)
H9A H -0.3166 0.1106 0.2046
C13A C -0.2765(7) 0.0833(9) 0.22920(13)
C14A C -0.2281(7) 0.0533(10) 0.23613(11)
H10A H -0.2294 0.0389 0.2496
C15A C -0.1799(7) 0.0456(9) 0.22317(9)
H11A H -0.1412 0.0330 0.2282
C16A C 0.0272(3) 0.1642(4) 0.12984(7)
C17A C 0.0346(2) 0.2326(3) 0.11725(7)
C18A C 0.11066(19) 0.29086(36) 0.11083(9)
H12A H 0.1569 0.2886 0.1149
C19A C 0.1190(2) 0.3524(4) 0.09844(9)
H13A H 0.1709 0.3922 0.0941
C20A C 0.0513(3) 0.3557(4) 0.09247(8)
C21A C -0.0247(2) 0.2975(3) 0.09889(7)
H14A H -0.0710 0.2997 0.0948
C22A C -0.03305(18) 0.23585(27) 0.11128(6)
H15A H -0.0850 0.1961 0.1157
C23A C 0.1384(6) 0.4901(9) 0.0804(2)
H16A H 0.1730 0.4877 0.0907
H17A H 0.1299 0.5356 0.0829
H18A H 0.1642 0.4970 0.0675
C24A C -0.1706(5) 0.3708(8) 0.02071(12)
C25A C -0.1123(3) 0.3819(4) 0.03682(7)
C26A C -0.0650(4) 0.4574(5) 0.04524(9)
H19A H -0.0713 0.5014 0.0412
C27A C -0.0084(3) 0.4687(4) 0.05957(9)
H20A H 0.0240 0.5204 0.0653
C28A C 0.0009(3) 0.4044(4) 0.06550(7)
C29A C -0.0464(3) 0.3288(4) 0.05708(7)
H21A H -0.0401 0.2848 0.0611
C30A C -0.1031(3) 0.3175(4) 0.04274(7)
H22A H -0.1354 0.2659 0.0370
Zn2B Zn 0.22870(6) -0.35649(5) 0.331705(7)
Zn4B Zn -0.01631(4) -0.10308(3) 0.150758(7)
O3B O 0.2373(4) -0.3376(3) 0.28323(5)
O4B O 0.1551(4) -0.3818(3) 0.30995(5)
O5B O -0.0229(4) -0.1034(3) 0.19820(5)
O6B O -0.0375(3) -0.1811(2) 0.17224(5)
O7B O -0.1088(3) -0.1530(2) 0.13365(5)
O8B O -0.1660(4) -0.0763(3) 0.13615(6)
O9B O -0.2974(5) -0.5169(3) 0.01581(5)
O10B O -0.4323(5) -0.6021(4) 0.01412(9)
N1B N -0.0978(8) -0.4225(6) 0.24347(12)
N2B N -0.4161(6) -0.3544(4) 0.08044(11)
C1B C 0.1688(6) -0.3663(4) 0.29190(10)
C2B C 0.0965(4) -0.3802(3) 0.27933(5)
C3B C 0.0187(6) -0.4218(4) 0.28684(5)
H1B H 0.0098 -0.4412 0.3000
C4B C -0.0462(6) -0.4351(4) 0.27505(7)
H2B H -0.0994 -0.4636 0.2802
C5B C -0.0333(4) -0.4068(3) 0.25573(7)
C6B C 0.0446(4) -0.3651(3) 0.24821(5)
H3B H 0.0535 -0.3457 0.2350
C7B C 0.1095(4) -0.3518(3) 0.26001(5)
H4B H 0.1627 -0.3233 0.2549
C8B C -0.1786(11) -0.4915(8) 0.24605(17)
H5B H -0.1773 -0.5414 0.2440
H6B H -0.2152 -0.4884 0.2364
H7B H -0.1976 -0.4910 0.2595
C9B C -0.0404(6) -0.1700(4) 0.19015(7)
C10B C -0.0545(6) -0.2370(4) 0.20342(8)
C11B C -0.0824(6) -0.3129(4) 0.19696(9)
H8B H -0.0942 -0.3243 0.1833
C12B C -0.0946(6) -0.3750(4) 0.20964(10)
H9B H -0.1106 -0.4272 0.2046
C13B C -0.0833(9) -0.3598(6) 0.22920(13)
C14B C -0.0533(10) -0.2814(7) 0.23613(11)
H10B H -0.0389 -0.2683 0.2496
C15B C -0.0456(9) -0.2255(5) 0.22317(9)
H11B H -0.0330 -0.1742 0.2282
C16B C -0.1642(4) -0.1370(3) 0.12984(7)
C17B C -0.2326(3) -0.1980(2) 0.11725(7)
C18B C -0.29086(36) -0.1802(3) 0.11083(9)
H12B H -0.2886 -0.1317 0.1149
C19B C -0.3524(4) -0.2334(3) 0.09844(9)
H13B H -0.3922 -0.2213 0.0941
C20B C -0.3557(4) -0.3044(3) 0.09247(8)
C21B C -0.2975(3) -0.3222(2) 0.09889(7)
H14B H -0.2997 -0.3707 0.0948
C22B C -0.23585(27) -0.2689(2) 0.11128(6)
H15B H -0.1961 -0.2811 0.1157
C23B C -0.4901(9) -0.3517(7) 0.0804(2)
H16B H -0.4877 -0.3147 0.0907
H17B H -0.5356 -0.4057 0.0829
H18B H -0.4970 -0.3328 0.0675
C24B C -0.3708(8) -0.5414(6) 0.02071(12)
C25B C -0.3819(4) -0.4942(3) 0.03682(7)
C26B C -0.4574(5) -0.5224(3) 0.04524(9)
H19B H -0.5014 -0.5727 0.0412
C27B C -0.4687(4) -0.4771(3) 0.05957(9)
H20B H -0.5204 -0.4964 0.0653
C28B C -0.4044(4) -0.4035(3) 0.06550(7)
C29B C -0.3288(4) -0.3752(2) 0.05708(7)
H21B H -0.2848 -0.3249 0.0611
C30B C -0.3175(4) -0.4206(3) 0.04274(7)
H22B H -0.2659 -0.4013 0.0370
Zn1_2 Zn -0.6667 -0.3333 0.293476(14)
Zn1_3 Zn 0.3333 -0.3333 0.293476(14)
Zn2A_2 Zn 0.41481(4) 0.77130(6) 0.331705(7)
Zn2B_2 Zn 0.22870(6) 0.64351(5) 0.331705(7)
Zn2L Zn -0.31018(5) 0.25186(4) -0.001628(7)
Zn2L_2 Zn 0.68982(5) 0.25186(4) -0.001628(7)
Zn2M Zn -0.25186(4) -0.56203(6) -0.001628(7)
Zn2M_2 Zn -0.25186(4) 0.43797(6) -0.001628(7)
Zn2N Zn -0.43797(6) -0.68982(5) -0.001628(7)
Zn2N_2 Zn 0.56203(6) 0.31018(5) -0.001628(7)
O1_2 O -0.6667 -0.3333 0.32189(9)
O1_3 O 0.3333 -0.3333 0.32189(9)
O3A_2 O 0.4251(3) 0.7627(4) 0.28323(5)
O3B_2 O 0.2373(4) 0.6624(3) 0.28323(5)
O9F O 0.1836(3) -0.4472(4) 0.34914(5)
O9G O 0.4472(4) 0.6307(5) 0.34914(5)
O9H O -0.6307(5) -0.1836(3) 0.34914(5)
O10F O 0.2688(4) 0.5031(3) 0.34745(9)
O10G O -0.5031(3) -0.2344(5) 0.34745(9)
O10H O 0.2344(5) -0.2688(4) 0.34745(9)
C31 C 0.2045(12) 0.2045(12) 0.0000
H23 H 0.1549 0.1549 0.0000
C32 C 0.2706(10) 0.2058(9) 0.0092(2)
H24 H 0.2659 0.1583 0.0150
C33 C 0.3442(11) 0.2792(10) 0.0098(3)
H25 H 0.3901 0.2838 0.0164
C34 C 0.3464(10) 0.3464(10) 0.0000
H26 H 0.3960 0.3960 0.0000
C32C C 0.2058(9) 0.2706(10) -0.0092(2)
H24C H 0.1583 0.2659 -0.0150
C33C C 0.2792(10) 0.3442(11) -0.0098(3)
H25C H 0.2838 0.3901 -0.0164
loop_
_geom_bond_atom_site_label_1
_geom_bond_atom_site_label_2
_geom_bond_site_symmetry_1
_geom_bond_site_symmetry_2
Zn1 O1 1_555 1_555
Zn2 O1 1_555 1_555
Zn3 O2 1_555 1_555
Zn4 O2 1_555 1_555
O1 Zn2A_2 1_555 1_555
O2 Zn4A 1_555 1_555
O3 Zn1 1_555 1_555
O4 Zn2 1_555 1_555
O5 Zn3 1_555 1_555
O6 Zn4 1_555 1_555
O7 Zn4 1_555 1_555
O8 C16 1_555 1_555
O9 C24 1_555 1_555
O10 C24 1_555 1_555
N1 C5 1_555 1_555
N2 C20 1_555 1_555
C1 O3 1_555 1_555
C2 C1 1_555 1_555
C3 C2 1_555 1_555
H1 C3 1_555 1_555
C4 C3 1_555 1_555
H2 C4 1_555 1_555
C5 C4 1_555 1_555
C6 C5 1_555 1_555
H3 C6 1_555 1_555
C7 C2 1_555 1_555
H4 C7 1_555 1_555
C8 N1 1_555 1_555
H5 C8 1_555 1_555
H6 C8 1_555 1_555
H7 C8 1_555 1_555
C9 O5 1_555 1_555
C10 C9 1_555 1_555
C11 C10 1_555 1_555
H8 C11 1_555 1_555
C12 C11 1_555 1_555
H9 C12 1_555 1_555
C13 N1 1_555 1_555
C14 C13 1_555 1_555
H10 C14 1_555 1_555
C15 C10 1_555 1_555
H11 C15 1_555 1_555
C16 O7 1_555 1_555
C17 C16 1_555 1_555
C18 C17 1_555 1_555
H12 C18 1_555 1_555
C19 C18 1_555 1_555
H13 C19 1_555 1_555
C20 C19 1_555 1_555
C21 C20 1_555 1_555
H14 C21 1_555 1_555
C22 C17 1_555 1_555
H15 C22 1_555 1_555
C23 N2 1_555 1_555
H16 C23 1_555 1_555
H17 C23 1_555 1_555
H18 C23 1_555 1_555
C24 C25 1_555 1_555
C25 C26 1_555 1_555
C26 H19 1_555 1_555
C27 C26 1_555 1_555
H20 C27 1_555 1_555
C28 N2 1_555 1_555
C29 C28 1_555 1_555
H21 C29 1_555 1_555
C30 C25 1_555 1_555
H22 C30 1_555 1_555
C31 H23 1_555 1_555
C32 C31 1_555 1_555
H24 C32 1_555 1_555
C33 C32 1_555 1_555
H25 C33 1_555 1_555
C34 C33 1_555 1_555
H26 C34 1_555 1_555
Zn2A O4A 1_555 1_555
Zn4A O6A 1_555 1_555
O3A C1A 1_555 1_555
O4A C1A 1_555 1_555
O5A Zn3 1_555 1_555
O6A C9A 1_555 1_555
O7A Zn4A 1_555 1_555
O8A Zn4 1_555 1_555
O9A C24A 1_555 1_555
O10A C24A 1_555 1_555
N1A C5A 1_555 1_555
N2A C20A 1_555 1_555
C1A C2A 1_555 1_555
C2A C3A 1_555 1_555
C3A H1A 1_555 1_555
C4A C3A 1_555 1_555
H2A C4A 1_555 1_555
C5A C4A 1_555 1_555
C6A C5A 1_555 1_555
H3A C6A 1_555 1_555
C7A C2A 1_555 1_555
H4A C7A 1_555 1_555
C8A N1A 1_555 1_555
H5A C8A 1_555 1_555
H6A C8A 1_555 1_555
H7A C8A 1_555 1_555
C9A O5A 1_555 1_555
C10A C9A 1_555 1_555
C11A C10A 1_555 1_555
H8A C11A 1_555 1_555
C12A C11A 1_555 1_555
H9A C12A 1_555 1_555
C13A N1A 1_555 1_555
C14A C13A 1_555 1_555
H10A C14A 1_555 1_555
C15A C10A 1_555 1_555
H11A C15A 1_555 1_555
C16A O7A 1_555 1_555
C17A C16A 1_555 1_555
C18A C17A 1_555 1_555
H12A C18A 1_555 1_555
C19A C18A 1_555 1_555
H13A C19A 1_555 1_555
C20A C19A 1_555 1_555
C21A C20A 1_555 1_555
H14A C21A 1_555 1_555
C22A C17A 1_555 1_555
H15A C22A 1_555 1_555
C23A N2A 1_555 1_555
H16A C23A 1_555 1_555
H17A C23A 1_555 1_555
H18A C23A 1_555 1_555
C24A C25A 1_555 1_555
C25A C26A 1_555 1_555
C26A H19A 1_555 1_555
C27A C26A 1_555 1_555
H20A C27A 1_555 1_555
C28A N2A 1_555 1_555
C29A C28A 1_555 1_555
H21A C29A 1_555 1_555
C30A C25A 1_555 1_555
H22A C30A 1_555 1_555
Zn2B O4B 1_555 1_555
Zn4B O2 1_555 1_555
O3B C1B 1_555 1_555
O4B C1B 1_555 1_555
O5B Zn3 1_555 1_555
O6B Zn4B 1_555 1_555
O7B Zn4B 1_555 1_555
O8B Zn4A 1_555 1_555
O9B C24B 1_555 1_555
O10B C24B 1_555 1_555
N1B C5B 1_555 1_555
N2B C20B 1_555 1_555
C1B C2B 1_555 1_555
C2B C3B 1_555 1_555
C3B H1B 1_555 1_555
C4B C3B 1_555 1_555
H2B C4B 1_555 1_555
C5B C4B 1_555 1_555
C6B C5B 1_555 1_555
H3B C6B 1_555 1_555
C7B C2B 1_555 1_555
H4B C7B 1_555 1_555
C8B N1B 1_555 1_555
H5B C8B 1_555 1_555
H6B C8B 1_555 1_555
H7B C8B 1_555 1_555
C9B O5B 1_555 1_555
C10B C9B 1_555 1_555
C11B C10B 1_555 1_555
H8B C11B 1_555 1_555
C12B C11B 1_555 1_555
H9B C12B 1_555 1_555
C13B N1B 1_555 1_555
C14B C13B 1_555 1_555
H10B C14B 1_555 1_555
C15B C10B 1_555 1_555
H11B C15B 1_555 1_555
C16B O7B 1_555 1_555
C17B C16B 1_555 1_555
C18B C17B 1_555 1_555
H12B C18B 1_555 1_555
C19B C18B 1_555 1_555
H13B C19B 1_555 1_555
C20B C19B 1_555 1_555
C21B C20B 1_555 1_555
H14B C21B 1_555 1_555
C22B C17B 1_555 1_555
H15B C22B 1_555 1_555
C23B N2B 1_555 1_555
H16B C23B 1_555 1_555
H17B C23B 1_555 1_555
H18B C23B 1_555 1_555
C24B C25B 1_555 1_555
C25B C26B 1_555 1_555
C26B H19B 1_555 1_555
C27B C26B 1_555 1_555
H20B C27B 1_555 1_555
C28B N2B 1_555 1_555
C29B C28B 1_555 1_555
H21B C29B 1_555 1_555
C30B C25B 1_555 1_555
H22B C30B 1_555 1_555
Zn1_2 O3A 1_555 1_555
Zn1_3 O3B 1_555 1_555
Zn2B_2 O1 1_555 1_555
Zn2L O9A 1_555 1_555
Zn2L_2 O10 1_555 1_555
Zn2M O9B 1_555 1_555
Zn2M_2 O10A 1_555 1_555
Zn2N O10B 1_555 1_555
Zn2N_2 O9 1_555 1_555
O1_2 Zn2A 1_555 1_555
O1_3 Zn2B 1_555 1_555
O3A_2 Zn1 1_555 1_555
O3B_2 Zn1 1_555 1_555
O9F Zn2B 1_555 1_555
O9G Zn2 1_555 1_555
O9H Zn2A 1_555 1_555
O10F Zn2 1_555 1_555
O10G Zn2A 1_555 1_555
O10H Zn2B 1_555 1_555
C32C C31 1_555 1_555
H24C C32C 1_555 1_555
C33C C34 1_555 1_555
H25C C33C 1_555 1_555
O4 C1 1_555 1_555
O6 C9 1_555 1_555
O8 Zn4B 1_555 1_555
C6 C7 1_555 1_555
C12 C13 1_555 1_555
C14 C15 1_555 1_555
C21 C22 1_555 1_555
C27 C28 1_555 1_555
C29 C30 1_555 1_555
O8A C16A 1_555 1_555
C6A C7A 1_555 1_555
C12A C13A 1_555 1_555
C14A C15A 1_555 1_555
C21A C22A 1_555 1_555
C27A C28A 1_555 1_555
C29A C30A 1_555 1_555
O6B C9B 1_555 1_555
O8B C16B 1_555 1_555
C6B C7B 1_555 1_555
C12B C13B 1_555 1_555
C14B C15B 1_555 1_555
C21B C22B 1_555 1_555
C27B C28B 1_555 1_555
C29B C30B 1_555 1_555
Zn1_2 O1_2 1_555 1_555
Zn1_3 O1_3 1_555 1_555
C32C C33C 1_555 1_555

#END
