
#######################################################################
#
#                 Cambridge Crystallographic Data Centre
#                                CCDC 
#
#######################################################################
#
# If this CIF has been generated from an entry in the Cambridge 
# Structural Database, then it will include bibliographic, chemical, 
# crystal, experimental, refinement or atomic coordinate data resulting 
# from the CCDC's data processing and validation procedures.
#
#######################################################################

data_COGWEB
_chemical_formula_moiety         '(C56 H28 N4 O12 Zn2)n'
_symmetry_cell_setting           monoclinic
_symmetry_space_group_name_H-M   'P 21'
_symmetry_Int_Tables_number      4
_space_group_name_Hall           'P 2yb'
loop_
_symmetry_equiv_pos_site_id
_symmetry_equiv_pos_as_xyz
1 x,y,z
2 -x,1/2+y,-z
_cell_length_a                   12.935
_cell_length_b                   23.2420(12)
_cell_length_c                   12.9350(5)
_cell_angle_alpha                90
_cell_angle_beta                 90.00
_cell_angle_gamma                90
_cell_volume                     3888.72
loop_
_atom_site_label
_atom_site_type_symbol
_atom_site_fract_x
_atom_site_fract_y
_atom_site_fract_z
C1 C 0.5485(7) 1.1884(5) 0.6312(6)
C2 C 0.4265(4) 1.1977(3) 0.6393(5)
C3 C 0.3752(5) 1.1517(3) 0.6379(5)
H1 H 0.4086 1.1153 0.6354
C4 C 0.2528(5) 1.1567(3) 0.6406(5)
C5 C 0.2133(5) 1.2138(3) 0.6629(5)
C6 C 0.2833(5) 1.2662(3) 0.6565(4)
H2 H 0.2531 1.3034 0.6590
C7 C 0.3884(5) 1.2615(3) 0.6474(5)
H3 H 0.4337 1.2936 0.6461
C8 C 0.1912(6) 1.1090(3) 0.6440(6)
H4 H 0.2176 1.0712 0.6360
C9 C 0.0935(5) 1.1196(4) 0.6592(5)
H5 H 0.0510 1.0868 0.6700
C10 C 0.0403(6) 1.1753(4) 0.6617(6)
C11 C 0.1092(5) 1.2184(3) 0.6609(5)
H6 H 0.0818 1.2563 0.6587
C12 C 0.7614(6) 1.1739(3) 0.4594(6)
C13 C 0.7259(6) 1.1965(4) -0.1511(7)
C14 C 0.7339(7) 1.2038(4) -0.0532(7)
C15 C 0.7379(5) 1.1472(3) 0.0235(5)
H7 H 0.7394 1.1094 -0.0044
C16 C 0.7387(5) 1.1551(3) 0.1192(6)
C17 C 0.7444(5) 1.2113(3) 0.1655(5)
C18 C 0.7506(5) 1.2619(2) 0.1073(5)
H8 H 0.7689 1.2985 0.1342
C19 C 0.7282(5) 1.2517(3) 0.0128(5)
H9 H 0.7010 1.2846 -0.0212
C20 C 0.7524(6) 1.1068(3) 0.1901(5)
H10 H 0.7645 1.0705 0.1587
C21 C 0.7500(7) 1.1070(3) 0.2988(6)
H11 H 0.7483 1.0733 0.3404
C22 C 0.7503(4) 1.1682(2) 0.3414(4)
C23 C 0.7580(5) 1.2151(3) 0.2842(4)
H12 H 0.7718 1.2512 0.3159
C24 C -0.0700(6) 1.1775(4) 0.6658(5)
C25 C 0.7597(6) 2.0157(3) 0.7810(6)
H13 H 0.7840 2.0457 0.8246
C26 C 0.7694(7) 1.9619(4) 0.8168(6)
H14 H 0.7894 1.9536 0.8859
C27 C 0.7490(6) 1.9215(3) 0.7492(6)
H15 H 0.7719 1.8834 0.7622
C28 C 0.6907(4) 1.9339(3) 0.6518(5)
C29 C 0.6967(6) 2.0025(4) 0.6244(7)
C30 C 0.6301(5) 2.0125(3) 0.5367(6)
H16 H 0.6087 2.0511 0.5254
C31 C 0.5964(7) 1.9745(4) 0.4720(7)
H17 H 0.5701 1.9875 0.4075
C32 C 0.5965(7) 1.9106(4) 0.4931(6)
H18 H 0.5643 1.8824 0.4507
C33 C 0.6494(7) 1.8991(4) 0.5817(7)
C34 C 0.5822(6) 1.8044(4) 0.6234(6)
C35 C 0.7657(8) 1.8146(3) 0.5830(6)
C36 C 0.7763(6) 1.7533(4) 0.6021(6)
C37 C 0.8723(7) 1.7255(5) 0.5890(8)
H19 H 0.9267 1.7461 0.5563
C38 C 0.8890(7) 1.6756(7) 0.6180(9)
H20 H 0.9585 1.6635 0.6278
C39 C 0.8137(7) 1.6388(4) 0.6358(6)
C40 C 0.7150(6) 1.6608(4) 0.6571(6)
C41 C 0.6973(6) 1.7222(3) 0.6260(5)
C42 C 0.6044(6) 1.7405(4) 0.6384(6)
C43 C 0.5192(5) 1.7063(3) 0.6665(6)
H21 H 0.4516 1.7217 0.6737
C44 C 0.5405(7) 1.6491(4) 0.6828(7)
H22 H 0.4877 1.6249 0.7094
C45 C 0.6208(7) 1.6294(4) 0.6651(7)
C46 C 0.6350(11) 1.5575(5) 0.6661(10)
C47 C 0.8116(11) 1.5721(5) 0.6501(7)
C48 C 0.7640(6) 1.4776(4) 0.7134(6)
C49 C 0.8148(8) 1.4693(5) 0.8220(9)
H23 H 0.8243 1.5026 0.8636
C50 C 0.8527(17) 1.4079(9) 0.8692(16)
H24 H 0.8924 1.4006 0.9296
C51 C 0.8018(9) 1.3591(6) 0.7807(10)
H25 H 0.7882 1.3205 0.8002
C52 C 0.7775(3) 1.38183(18) 0.6612(3)
C53 C 0.7434(5) 1.4349(4) 0.6432(6)
C54 C 0.6965(7) 1.4501(4) 0.5418(7)
H26 H 0.6873 1.4888 0.5204
C55 C 0.6676(6) 1.4048(4) 0.4815(6)
H27 H 0.6280 1.4092 0.4202
C56 C 0.6969(9) 1.3579(6) 0.5132(8)
H28 H 0.6929 1.3295 0.4604
N1 N 0.7193(5) 2.0315(3) 0.6903(5)
N2 N 0.6740(6) 1.8317(3) 0.5971(5)
N3 N 0.7474(6) 1.5425(4) 0.6762(6)
N4 N 0.7343(4) 1.3345(2) 0.6048(4)
O1 O 0.5796(5) 1.1438(3) 0.6331(5)
O2 O 0.5851(4) 1.2385(3) 0.6196(5)
O3 O 0.7544(5) 1.1308(3) 0.5055(4)
O4 O 0.7532(5) 1.2224(2) 0.4935(4)
O5 O 0.7192(6) 1.1423(3) -0.1954(5)
O6 O 0.7382(7) 1.2433(4) -0.2043(5)
O7 O -0.1194(6) 1.1333(3) 0.6719(6)
O8 O -0.1002(4) 1.2312(2) 0.6508(5)
O9 O 0.8395(5) 1.8429(3) 0.5553(5)
O10 O 0.5035(5) 1.8248(3) 0.6480(5)
O11 O 0.9228(6) 1.5497(3) 0.6589(5)
O12 O 0.5724(6) 1.5284(3) 0.7170(6)
Zn1 Zn 0.74788(6) 1.25128(3) 0.64107(5)
Zn2 Zn 0.72887(6) 2.12329(3) 0.65890(6)
O1_2 O 0.5796(5) 2.1438(3) 0.6331(5)
O3_2 O 0.7544(5) 2.1308(3) 0.5055(4)
O5_2 O 0.7192(6) 2.1423(3) 0.8046(5)
O6_2 O 0.7382(7) 1.2433(4) 0.7957(5)
O7_2 O 0.8806(6) 2.1333(3) 0.6719(6)
O8_2 O 0.8998(4) 1.2312(2) 0.6508(5)
Zn1_2 Zn 0.74788(6) 1.25128(3) -0.35893(5)
Zn1_3 Zn -0.25212(6) 1.25128(3) 0.64107(5)
Zn2_2 Zn 0.72887(6) 1.12329(3) 0.65890(6)
Zn2_3 Zn 0.72887(6) 1.12329(3) -0.34110(6)
Zn2_4 Zn -0.27113(6) 1.12329(3) 0.65890(6)
loop_
_geom_bond_atom_site_label_1
_geom_bond_atom_site_label_2
_geom_bond_site_symmetry_1
_geom_bond_site_symmetry_2
C1 C2 1_555 1_555
C2 C3 1_555 1_555
C3 H1 1_555 1_555
C4 C3 1_555 1_555
C5 C4 1_555 1_555
C6 C5 1_555 1_555
H2 C6 1_555 1_555
C7 C2 1_555 1_555
H3 C7 1_555 1_555
C8 C4 1_555 1_555
H4 C8 1_555 1_555
C9 C8 1_555 1_555
H5 C9 1_555 1_555
C10 C9 1_555 1_555
C11 C5 1_555 1_555
H6 C11 1_555 1_555
C12 C22 1_555 1_555
C13 C14 1_555 1_555
C14 C15 1_555 1_555
C15 H7 1_555 1_555
C16 C15 1_555 1_555
C17 C16 1_555 1_555
C18 C17 1_555 1_555
H8 C18 1_555 1_555
C19 C14 1_555 1_555
H9 C19 1_555 1_555
C20 C16 1_555 1_555
H10 C20 1_555 1_555
C21 C20 1_555 1_555
H11 C21 1_555 1_555
C22 C21 1_555 1_555
C23 C17 1_555 1_555
H12 C23 1_555 1_555
C24 C10 1_555 1_555
C25 H13 1_555 1_555
C26 C25 1_555 1_555
H14 C26 1_555 1_555
C27 C26 1_555 1_555
H15 C27 1_555 1_555
C28 C27 1_555 1_555
C29 C28 1_555 1_555
C30 C29 1_555 1_555
H16 C30 1_555 1_555
C31 C30 1_555 1_555
H17 C31 1_555 1_555
C32 C31 1_555 1_555
H18 C32 1_555 1_555
C33 C28 1_555 1_555
C34 C42 1_555 1_555
C35 C36 1_555 1_555
C36 C37 1_555 1_555
C37 H19 1_555 1_555
C38 C37 1_555 1_555
H20 C38 1_555 1_555
C39 C38 1_555 1_555
C40 C39 1_555 1_555
C41 C36 1_555 1_555
C42 C41 1_555 1_555
C43 C42 1_555 1_555
H21 C43 1_555 1_555
C44 C43 1_555 1_555
H22 C44 1_555 1_555
C45 C40 1_555 1_555
C46 C45 1_555 1_555
C47 C39 1_555 1_555
C48 C49 1_555 1_555
C49 H23 1_555 1_555
C50 C49 1_555 1_555
H24 C50 1_555 1_555
C51 C50 1_555 1_555
H25 C51 1_555 1_555
C52 C51 1_555 1_555
C53 C48 1_555 1_555
C54 C53 1_555 1_555
H26 C54 1_555 1_555
C55 C54 1_555 1_555
H27 C55 1_555 1_555
C56 C55 1_555 1_555
H28 C56 1_555 1_555
N1 C25 1_555 1_555
N2 C33 1_555 1_555
N3 C46 1_555 1_555
N4 C52 1_555 1_555
O1 C1 1_555 1_555
O2 C1 1_555 1_555
O3 C12 1_555 1_555
O4 C12 1_555 1_555
O5 C13 1_555 1_555
O6 C13 1_555 1_555
O7 C24 1_555 1_555
O8 C24 1_555 1_555
O9 C35 1_555 1_555
O10 C34 1_555 1_555
O11 C47 1_555 1_555
O12 C46 1_555 1_555
Zn1 N4 1_555 1_555
Zn2 N1 1_555 1_555
O1_2 Zn2 1_555 1_555
O3_2 Zn2 1_555 1_555
O5_2 Zn2 1_555 1_555
O6_2 Zn1 1_555 1_555
O7_2 Zn2 1_555 1_555
O8_2 Zn1 1_555 1_555
Zn1_2 O6 1_555 1_555
Zn1_3 O8 1_555 1_555
Zn2_2 O1 1_555 1_555
Zn2_3 O5 1_555 1_555
Zn2_4 O7 1_555 1_555
C6 C7 1_555 1_555
C10 C11 1_555 1_555
C18 C19 1_555 1_555
C22 C23 1_555 1_555
C29 N1 1_555 1_555
C32 C33 1_555 1_555
C34 N2 1_555 1_555
C35 N2 1_555 1_555
C40 C41 1_555 1_555
C44 C45 1_555 1_555
C47 N3 1_555 1_555
C48 N3 1_555 1_555
C52 C53 1_555 1_555
C56 N4 1_555 1_555
O2 Zn1 1_555 1_555
O3 Zn2_2 1_555 1_555
O4 Zn1 1_555 1_555

#END
