
#######################################################################
#
#                 Cambridge Crystallographic Data Centre
#                                CCDC 
#
#######################################################################
#
# If this CIF has been generated from an entry in the Cambridge 
# Structural Database, then it will include bibliographic, chemical, 
# crystal, experimental, refinement or atomic coordinate data resulting 
# from the CCDC's data processing and validation procedures.
#
#######################################################################

data_NOHSIM01
_chemical_formula_moiety         '(C8 H30 N2 O16 P4 Zn2)n'
_symmetry_cell_setting           monoclinic
_symmetry_space_group_name_H-M   'P c'
_symmetry_Int_Tables_number      7
_space_group_name_Hall           'P -2yc'
loop_
_symmetry_equiv_pos_site_id
_symmetry_equiv_pos_as_xyz
1 x,y,z
2 x,-y,1/2+z
_cell_length_a                   8.457(2)
_cell_length_b                   13.812(2)
_cell_length_c                   10.189(2)
_cell_angle_alpha                90
_cell_angle_beta                 91.20(3)
_cell_angle_gamma                90
_cell_volume                     1189.9
loop_
_atom_site_label
_atom_site_type_symbol
_atom_site_fract_x
_atom_site_fract_y
_atom_site_fract_z
Zn1 Zn 0.21635(4) 0.57367(2) 0.97524(3)
Zn2 Zn 0.71798(4) 0.86908(2) 1.08593(3)
P1 P 0.24516(11) 0.61313(5) 0.66127(7)
P2 P 0.74904(11) 1.03712(6) 1.29524(8)
P3 P -0.09446(10) 0.69373(6) 0.96407(8)
P4 P 0.40634(10) 0.77324(6) 0.99437(8)
O1 O 0.3529(3) 0.67534(18) 1.0423(2)
O2 O 0.0014(3) 0.75428(16) 0.8668(2)
O3 O -0.0016(3) 0.60622(16) 1.0099(2)
O4 O 0.2574(3) 0.83941(18) 0.9640(3)
H1 H 0.170(3) 0.812(3) 0.930(4)
O5 O 0.5008(3) 0.82737(19) 1.0992(2)
O6 O 0.7705(3) 0.93575(16) 1.2473(2)
O7 O 0.5860(4) 1.0748(2) 1.2410(3)
H2 H 0.547(5) 1.129(2) 1.277(4)
O8 O -0.1500(3) 0.75455(17) 1.0780(2)
O9 O 0.2538(4) 0.55817(17) 0.7876(2)
O10 O 0.5005(3) 0.76504(17) 0.8671(2)
O11 O -0.2419(3) 0.65198(18) 0.8850(3)
H3 H -0.326(3) 0.692(3) 0.881(4)
O12 O 0.3777(4) 0.6912(2) 0.6554(3)
H4 H 0.426(5) 0.723(3) 0.722(3)
O13 O 0.8784(4) 1.1013(2) 1.2326(3)
H5 H 0.931(5) 1.149(3) 1.274(5)
O14 O 0.7575(3) 1.04476(17) 1.4415(2)
O15 O 0.0860(4) 0.6699(2) 0.6478(2)
H6 H 0.049(6) 0.701(3) 0.718(3)
O16 O 0.2608(3) 0.55504(16) 0.5382(2)
O16A O 0.2608(3) 0.44496(16) 1.0382(2)
O8_2 O 0.8500(3) 0.75455(17) 1.0780(2)
O14A O 0.7575(3) 0.95524(17) 0.9415(2)
Zn2_2 Zn -0.28202(4) 0.86908(2) 1.08593(3)
Zn2A Zn 0.71798(4) 1.13092(2) 1.58593(3)
Zn1A Zn 0.21635(4) 0.42633(2) 0.47524(3)
N1 N 0.2245(4) 0.1133(2) 0.8776(3)
C1 C 0.2096(6) 0.0459(3) 0.7622(4)
H7 H 0.1038 0.0537 0.7199
H8 H 0.2228 -0.0218 0.7925
H9 H 0.2922 0.0614 0.6981
C2 C 0.3824(6) 0.0997(4) 0.9420(6)
H10 H 0.3909 0.0329 0.9767
H11 H 0.3953 0.1464 1.0151
H12 H 0.466 0.1106 0.8772
C3 C 0.1005(6) 0.0910(3) 0.9738(4)
H13 H -0.0051 0.0999 0.9318
H14 H 0.1118 0.1351 1.05
H15 H 0.1121 0.0232 1.0037
C4 C 0.2060(7) 0.2147(3) 0.8314(5)
H16 H 0.0997 0.2231 0.7903
H17 H 0.2877 0.2292 0.7661
H18 H 0.2181 0.2594 0.9068
N2 N -0.2768(4) 0.6210(2) 0.4141(3)
C5 C -0.1302(6) 0.5920(3) 0.3443(5)
H19 H -0.123 0.629 0.2614
H20 H -0.1342 0.5219 0.3244
H21 H -0.0363 0.606 0.4009
C6 C -0.2864(7) 0.5651(3) 0.5388(4)
H22 H -0.3838 0.5834 0.585
H23 H -0.1929 0.5797 0.5954
H24 H -0.2889 0.4949 0.5189
C7 C -0.2692(8) 0.7266(3) 0.4470(7)
H25 H -0.366 0.7456 0.4935
H26 H -0.2611 0.7647 0.3652
H27 H -0.1753 0.7392 0.5042
C8 C -0.4173(8) 0.6012(5) 0.3302(6)
H28 H -0.5139 0.6197 0.3774
H29 H -0.4214 0.5313 0.3086
H30 H -0.4109 0.6393 0.2482
loop_
_geom_bond_atom_site_label_1
_geom_bond_atom_site_label_2
_geom_bond_site_symmetry_1
_geom_bond_site_symmetry_2
Zn1 O1 1_555 1_555
Zn2 O5 1_555 1_555
P1 O9 1_555 1_555
P2 O6 1_555 1_555
P3 O2 1_555 1_555
P4 O1 1_555 1_555
O3 Zn1 1_555 1_555
O4 P4 1_555 1_555
H1 O4 1_555 1_555
O5 P4 1_555 1_555
O6 Zn2 1_555 1_555
O7 P2 1_555 1_555
H2 O7 1_555 1_555
O8 P3 1_555 1_555
O9 Zn1 1_555 1_555
O10 P4 1_555 1_555
O11 P3 1_555 1_555
H3 O11 1_555 1_555
O12 P1 1_555 1_555
H4 O12 1_555 1_555
O13 P2 1_555 1_555
H5 O13 1_555 1_555
O14 P2 1_555 1_555
O15 P1 1_555 1_555
H6 O15 1_555 1_555
O16 P1 1_555 1_555
N1 C1 1_555 1_555
C1 H7 1_555 1_555
H8 C1 1_555 1_555
H9 C1 1_555 1_555
C2 N1 1_555 1_555
H10 C2 1_555 1_555
H11 C2 1_555 1_555
H12 C2 1_555 1_555
C3 N1 1_555 1_555
H13 C3 1_555 1_555
H14 C3 1_555 1_555
H15 C3 1_555 1_555
C4 N1 1_555 1_555
H16 C4 1_555 1_555
H17 C4 1_555 1_555
H18 C4 1_555 1_555
N2 C5 1_555 1_555
C5 H19 1_555 1_555
H20 C5 1_555 1_555
H21 C5 1_555 1_555
C6 N2 1_555 1_555
H22 C6 1_555 1_555
H23 C6 1_555 1_555
H24 C6 1_555 1_555
C7 N2 1_555 1_555
H25 C7 1_555 1_555
H26 C7 1_555 1_555
H27 C7 1_555 1_555
C8 N2 1_555 1_555
H28 C8 1_555 1_555
H29 C8 1_555 1_555
H30 C8 1_555 1_555
O16A Zn1 1_555 1_555
O8_2 Zn2 1_555 1_555
O14A Zn2 1_555 1_555
Zn2_2 O8 1_555 1_555
Zn2A O14 1_555 1_555
Zn1A O16 1_555 1_555
P3 O3 1_555 1_555

#END
