
#######################################################################
#
#                 Cambridge Crystallographic Data Centre
#                                CCDC 
#
#######################################################################
#
# If this CIF has been generated from an entry in the Cambridge 
# Structural Database, then it will include bibliographic, chemical, 
# crystal, experimental, refinement or atomic coordinate data resulting 
# from the CCDC's data processing and validation procedures.
#
#######################################################################

data_OMUHUB
_chemical_formula_moiety         '(C164 H109 O46 Yb5)n'
_symmetry_cell_setting           orthorhombic
_symmetry_space_group_name_H-M   'P b c m'
_symmetry_Int_Tables_number      57
_space_group_name_Hall           '-P 2c 2b'
loop_
_symmetry_equiv_pos_site_id
_symmetry_equiv_pos_as_xyz
1 x,y,z
2 -x,-y,1/2+z
3 x,1/2-y,-z
4 -x,1/2+y,1/2-z
5 -x,-y,-z
6 x,y,1/2-z
7 -x,1/2+y,z
8 x,1/2-y,1/2+z
_cell_length_a                   23.9063(6)
_cell_length_b                   27.4059(5)
_cell_length_c                   30.3210(4)
_cell_angle_alpha                90
_cell_angle_beta                 90
_cell_angle_gamma                90
_cell_volume                     19865.5
loop_
_atom_site_label
_atom_site_type_symbol
_atom_site_fract_x
_atom_site_fract_y
_atom_site_fract_z
Yb1 Yb 0.256639(17) 0.241272(14) 0.638265(12)
Yb2 Yb 0.37599(11) 0.72856(13) 0.2500
Yb3 Yb 0.11904(3) -0.30140(3) 0.7500
Yb4 Yb -0.27399(3) 0.65221(2) 0.7500
C1 C 0.2474(7) 0.3086(5) 0.7500
O1 O -0.3632(7) 0.6868(6) 0.7500
O2 O 0.2586(3) 0.2334(2) 0.7147(2)
O3 O 0.3867(4) 0.6722(3) 0.3041(3)
O4 O 0.2647(3) 0.1854(2) 0.5851(2)
C2 C 0.2553(5) 0.2567(4) 0.7500
O5 O 0.0236(5) -0.3070(4) 0.7500
O6 O 0.1830(3) 0.2974(3) 0.6573(2)
O7 O 0.1931(4) 0.2765(3) 0.5890(2)
O8 O -0.1860(3) 0.6885(3) 0.6522(2)
O9 O 0.3055(3) 0.3162(3) 0.6502(2)
O10 O -0.1133(4) 0.3561(5) 0.3051(4)
C3 C -0.1498(4) 0.6087(4) 0.6433(3)
O11 O 0.2085(5) -0.3355(5) 0.7500
C4 C 0.1684(5) 0.3013(4) 0.6180(3)
C5 C 0.4181(4) 0.5755(4) 0.4418(3)
C6 C 0.3871(4) 0.4105(4) 0.5333(3)
H1 H 0.3949 0.4132 0.5033
C7 C -0.1198(8) 0.4056(8) 0.3685(6)
C8 C 0.4889(4) 0.5622(4) 0.5532(3)
C9 C 0.3984(4) 0.4490(4) 0.5600(3)
O12 O 0.1806(4) -0.2581(3) 0.7034(3)
C10 C -0.1083(5) 0.5822(4) 0.5750(4)
H2 H -0.0983 0.5888 0.5460
C11 C 0.2626(4) 0.0869(4) 0.5699(3)
H3 H 0.2703 0.0984 0.5981
C12 C 0.4630(4) 0.5208(4) 0.5688(3)
H4 H 0.4715 0.5097 0.5970
C13 C -0.0715(4) 0.4978(4) 0.5650(4)
C14 C -0.0244(5) 0.4233(4) 0.5161(4)
H5 H -0.0083 0.3982 0.4998
C15 C 0.2165(5) -0.0641(4) 0.5437(4)
H6 H 0.1983 -0.0498 0.5676
C16 C 0.2569(4) 0.1735(3) 0.5456(3)
C17 C 0.2471(4) 0.0195(4) 0.5202(3)
C18 C -0.1331(4) 0.6182(4) 0.6003(3)
H7 H -0.1387 0.6490 0.5883
O13 O 0.2847(5) 0.6942(5) 0.2500
O14 O 0.3952(5) -0.2075(4) 0.3064(4)
C19 C -0.0982(4) 0.5369(4) 0.5923(3)
C20 C 0.2598(5) 0.0378(4) 0.5627(4)
H8 H 0.2663 0.0162 0.5858
C21 C 0.3797(6) 0.6205(5) 0.3637(4)
C22 C 0.3225(5) 0.3178(4) 0.6105(3)
C23 C -0.0846(7) 0.4389(6) 0.4517(5)
C24 C 0.2420(5) 0.1025(3) 0.4945(3)
H9 H 0.2361 0.1244 0.4715
C25 C 0.4734(5) 0.5795(4) 0.5109(3)
H10 H 0.4900 0.6077 0.5000
C26 C 0.2156(5) -0.1141(4) 0.5397(4)
C27 C -0.0881(4) 0.4895(4) 0.5217(4)
H11 H -0.1153 0.5094 0.5093
O15 O 0.6585(4) 0.7084(4) 0.6529(3)
C28 C 0.2433(5) -0.0341(4) 0.5137(4)
C29 C 0.1221(6) 0.3350(5) 0.6050(4)
C30 C 0.0389(6) 0.3983(5) 0.5768(4)
C31 C -0.0294(4) 0.4678(4) 0.5834(3)
H12 H -0.0170 0.4736 0.6120
C32 C 0.4097(4) 0.5125(4) 0.5016(3)
H13 H 0.3838 0.4956 0.4846
O16 O 0.0930(4) -0.2366(4) 0.6978(4)
C33 C 0.4242(4) 0.4948(4) 0.5433(3)
O17 O 0.3136(4) 0.2824(3) 0.5847(2)
C34 C 0.0834(6) 0.3525(5) 0.6337(4)
H14 H 0.0849 0.3432 0.6632
O18 O 0.2532(4) 0.2020(3) 0.5145(3)
C35 C 0.3477(6) -0.2063(5) 0.3163(5)
O19 O 0.4689(6) 0.7284(5) 0.2500
C36 C 0.5311(5) 0.5883(4) 0.5797(4)
C37 C -0.0065(4) 0.4301(4) 0.5597(4)
C38 C 0.1933(5) -0.1449(4) 0.5759(4)
C39 C -0.1138(5) 0.5277(4) 0.6347(4)
H15 H -0.1067 0.4972 0.6469
O20 O 0.3120(5) -0.2301(4) 0.2966(4)
C40 C 0.2387(5) 0.0525(4) 0.4877(4)
H16 H 0.2302 0.0412 0.4596
C41 C 0.2416(5) -0.1347(4) 0.5032(4)
H17 H 0.2424 -0.1685 0.5005
C42 C 0.3512(4) 0.3625(4) 0.5939(3)
O21 O -0.2018(3) 0.6341(3) 0.7053(3)
C43 C 0.3643(4) 0.3673(4) 0.5489(3)
H18 H 0.3577 0.3415 0.5296
C44 C -0.1814(4) 0.6460(4) 0.6687(4)
C45 C 0.1425(6) -0.2348(5) 0.6840(5)
C46 C 0.3547(6) 0.6465(5) 0.3240(5)
C47 C 0.2690(5) -0.0551(4) 0.4759(4)
H19 H 0.2871 -0.0353 0.4554
C48 C 0.2545(4) 0.1188(3) 0.5369(3)
C49 C 0.4338(4) 0.5553(4) 0.4854(3)
C50 C 0.3439(6) 0.5931(6) 0.3891(4)
H20 H 0.3070 0.5889 0.3802
O22 O 0.3049(5) 0.6357(5) 0.3151(4)
C51 C -0.1401(5) 0.5635(4) 0.6603(4)
H21 H -0.1510 0.5563 0.6890
C52 C 0.1588(6) -0.2025(5) 0.6467(4)
C53 C 0.3866(6) 0.4437(4) 0.6054(4)
H22 H 0.3956 0.4687 0.6249
C54 C 0.5819(6) 0.6598(5) 0.6003(4)
H23 H 0.5890 0.6927 0.5951
C55 C -0.0646(4) 0.4517(4) 0.4960(4)
C56 C 0.4353(6) 0.6228(5) 0.3766(4)
H24 H 0.4604 0.6398 0.3588
C57 C 0.3616(6) 0.4013(4) 0.6209(3)
H25 H 0.3516 0.3993 0.6505
O23 O 0.6826(4) 0.6389(4) 0.6837(4)
C58 C 0.1425(6) -0.1384(5) 0.5936(5)
H26 H 0.1206 -0.1124 0.5841
C59 C 0.6107(5) 0.6375(5) 0.6314(5)
C60 C 0.1217(6) -0.1696(6) 0.6261(5)
H27 H 0.0842 -0.1688 0.6339
C61 C 0.5651(6) 0.5617(6) 0.6086(4)
H28 H 0.5620 0.5279 0.6103
C62 C 0.5421(6) 0.6370(5) 0.5752(4)
H29 H 0.5221 0.6551 0.5547
C63 C 0.2669(5) -0.1058(4) 0.4697(4)
C64 C 0.3629(6) 0.5714(5) 0.4283(4)
H30 H 0.3378 0.5539 0.4456
C65 C 0.4554(5) 0.6006(4) 0.4149(4)
H31 H 0.4931 0.6026 0.4223
C66 C 0.0429(6) 0.3830(5) 0.6201(4)
H32 H 0.0167 0.3941 0.6405
O24 O -0.1893(5) 0.3983(5) 0.3133(4)
C67 C -0.1410(7) 0.3859(8) 0.3246(6)
C68 C 0.3287(7) -0.1772(5) 0.3569(4)
O25 O -0.2858(8) 0.5701(4) 0.7500
H33 H -0.2885 0.5523 0.7729
C69 C -0.0709(8) 0.3944(7) 0.3827(6)
H34 H -0.0486 0.3738 0.3658
C70 C -0.1275(7) 0.4549(7) 0.4329(5)
H35 H -0.1462 0.4808 0.4461
C71 C -0.0496(7) 0.4124(6) 0.4233(5)
H36 H -0.0125 0.4066 0.4311
C72 C -0.1497(8) 0.4361(7) 0.3923(6)
H37 H -0.1852 0.4455 0.3829
C73 C 0.6043(6) 0.5871(6) 0.6351(5)
H38 H 0.6259 0.5699 0.6553
C74 C 0.3683(7) -0.1459(7) 0.3805(5)
H39 H 0.4056 -0.1429 0.3720
C75 C 0.2566(7) -0.1575(6) 0.4052(6)
H40 H 0.2194 -0.1614 0.4135
C76 C 0.2918(5) -0.1288(4) 0.4312(4)
C77 C 0.2751(7) -0.1798(6) 0.3680(6)
H41 H 0.2502 -0.1969 0.3502
C78 C 0.6525(6) 0.6640(6) 0.6582(5)
C79 C 0.2283(6) -0.1777(5) 0.5946(5)
H42 H 0.2645 -0.1810 0.5837
C80 C 0.2111(6) -0.2069(6) 0.6302(5)
H43 H 0.2358 -0.2294 0.6424
C81 C 0.3456(6) -0.1202(5) 0.4177(4)
H44 H 0.3675 -0.0976 0.4327
C82 C 0.1194(6) 0.3510(5) 0.5627(4)
H45 H 0.1443 0.3390 0.5418
C83 C 0.0804(6) 0.3847(5) 0.5509(4)
H46 H 0.0831 0.3989 0.5231
O2E O 0.2586(3) 0.2334(2) 0.7853(2)
H33E H -0.2885 0.5523 0.7271
Yb1D Yb -0.256639(17) -0.241272(14) 0.361735(12)
O3D O -0.3867(4) -0.6722(3) 0.6959(3)
O4D O -0.2647(3) -0.1854(2) 0.4149(2)
O6D O -0.1830(3) -0.2974(3) 0.3427(2)
O7D O -0.1931(4) -0.2765(3) 0.4110(2)
O8D O 0.1860(3) -0.6885(3) 0.3478(2)
O9D O -0.3055(3) -0.3162(3) 0.3498(2)
O10D O 0.1133(4) -0.3561(5) 0.6949(4)
C3D C 0.1498(4) -0.6087(4) 0.3567(3)
C4D C -0.1684(5) -0.3013(4) 0.3820(3)
C5D C -0.4181(4) -0.5755(4) 0.5582(3)
C6D C -0.3871(4) -0.4105(4) 0.4667(3)
H1D H -0.3949 -0.4132 0.4967
C7D C 0.1198(8) -0.4056(8) 0.6315(6)
C8D C -0.4889(4) -0.5622(4) 0.4468(3)
C9D C -0.3984(4) -0.4490(4) 0.4400(3)
O12D O -0.1806(4) 0.2581(3) 0.2966(3)
C10D C 0.1083(5) -0.5822(4) 0.4250(4)
H2D H 0.0983 -0.5888 0.4540
C11D C -0.2626(4) -0.0869(4) 0.4301(3)
H3D H -0.2703 -0.0984 0.4019
C12D C -0.4630(4) -0.5208(4) 0.4312(3)
H4D H -0.4715 -0.5097 0.4030
C13D C 0.0715(4) -0.4978(4) 0.4350(4)
C14D C 0.0244(5) -0.4233(4) 0.4839(4)
H5D H 0.0083 -0.3982 0.5002
C15D C -0.2165(5) 0.0641(4) 0.4563(4)
H6D H -0.1983 0.0498 0.4324
C16D C -0.2569(4) -0.1735(3) 0.4544(3)
C17D C -0.2471(4) -0.0195(4) 0.4798(3)
C18D C 0.1331(4) -0.6182(4) 0.3997(3)
H7D H 0.1387 -0.6490 0.4117
O14D O -0.3952(5) 0.2075(4) 0.6936(4)
C19D C 0.0982(4) -0.5369(4) 0.4077(3)
C20D C -0.2598(5) -0.0378(4) 0.4373(4)
H8D H -0.2663 -0.0162 0.4142
C21D C -0.3797(6) -0.6205(5) 0.6363(4)
C22D C -0.3225(5) -0.3178(4) 0.3895(3)
C23D C 0.0846(7) -0.4389(6) 0.5483(5)
C24D C -0.2420(5) -0.1025(3) 0.5055(3)
H9D H -0.2361 -0.1244 0.5285
C25D C -0.4734(5) -0.5795(4) 0.4891(3)
H10D H -0.4900 -0.6077 0.5000
C26D C -0.2156(5) 0.1141(4) 0.4603(4)
C27D C 0.0881(4) -0.4895(4) 0.4783(4)
H11D H 0.1153 -0.5094 0.4907
O15D O -0.6585(4) -0.7084(4) 0.3471(3)
C28D C -0.2433(5) 0.0341(4) 0.4863(4)
C29D C -0.1221(6) -0.3350(5) 0.3950(4)
C30D C -0.0389(6) -0.3983(5) 0.4232(4)
C31D C 0.0294(4) -0.4678(4) 0.4166(3)
H12D H 0.0170 -0.4736 0.3880
C32D C -0.4097(4) -0.5125(4) 0.4984(3)
H13D H -0.3838 -0.4956 0.5154
O16D O -0.0930(4) 0.2366(4) 0.3022(4)
C33D C -0.4242(4) -0.4948(4) 0.4567(3)
O17D O -0.3136(4) -0.2824(3) 0.4153(2)
C34D C -0.0834(6) -0.3525(5) 0.3663(4)
H14D H -0.0849 -0.3432 0.3368
O18D O -0.2532(4) -0.2020(3) 0.4855(3)
C35D C -0.3477(6) 0.2063(5) 0.6837(5)
C36D C -0.5311(5) -0.5883(4) 0.4203(4)
C37D C 0.0065(4) -0.4301(4) 0.4403(4)
C38D C -0.1933(5) 0.1449(4) 0.4241(4)
C39D C 0.1138(5) -0.5277(4) 0.3653(4)
H15D H 0.1067 -0.4972 0.3531
O20D O -0.3120(5) 0.2301(4) 0.7034(4)
C40D C -0.2387(5) -0.0525(4) 0.5123(4)
H16D H -0.2302 -0.0412 0.5404
C41D C -0.2416(5) 0.1347(4) 0.4968(4)
H17D H -0.2424 0.1685 0.4995
C42D C -0.3512(4) -0.3625(4) 0.4061(3)
O21D O 0.2018(3) -0.6341(3) 0.2947(3)
C43D C -0.3643(4) -0.3673(4) 0.4511(3)
H18D H -0.3577 -0.3415 0.4704
C44D C 0.1814(4) -0.6460(4) 0.3313(4)
C45D C -0.1425(6) 0.2348(5) 0.3160(5)
C46D C -0.3547(6) -0.6465(5) 0.6760(5)
C47D C -0.2690(5) 0.0551(4) 0.5241(4)
H19D H -0.2871 0.0353 0.5446
C48D C -0.2545(4) -0.1188(3) 0.4631(3)
C49D C -0.4338(4) -0.5553(4) 0.5146(3)
C50D C -0.3439(6) -0.5931(6) 0.6109(4)
H20D H -0.3070 -0.5889 0.6198
O22D O -0.3049(5) -0.6357(5) 0.6849(4)
C51D C 0.1401(5) -0.5635(4) 0.3397(4)
H21D H 0.1510 -0.5563 0.3110
C52D C -0.1588(6) 0.2025(5) 0.3533(4)
C53D C -0.3866(6) -0.4437(4) 0.3946(4)
H22D H -0.3956 -0.4687 0.3751
C54D C -0.5819(6) -0.6598(5) 0.3997(4)
H23D H -0.5890 -0.6927 0.4049
C55D C 0.0646(4) -0.4517(4) 0.5040(4)
C56D C -0.4353(6) -0.6228(5) 0.6234(4)
H24D H -0.4604 -0.6398 0.6412
C57D C -0.3616(6) -0.4013(4) 0.3791(3)
H25D H -0.3516 -0.3993 0.3495
O23D O -0.6826(4) -0.6389(4) 0.3163(4)
C58D C -0.1425(6) 0.1384(5) 0.4064(5)
H26D H -0.1206 0.1124 0.4159
C59D C -0.6107(5) -0.6375(5) 0.3686(5)
C60D C -0.1217(6) 0.1696(6) 0.3739(5)
H27D H -0.0842 0.1688 0.3661
C61D C -0.5651(6) -0.5617(6) 0.3914(4)
H28D H -0.5620 -0.5279 0.3897
C62D C -0.5421(6) -0.6370(5) 0.4248(4)
H29D H -0.5221 -0.6551 0.4453
C63D C -0.2669(5) 0.1058(4) 0.5303(4)
C64D C -0.3629(6) -0.5714(5) 0.5717(4)
H30D H -0.3378 -0.5539 0.5544
C65D C -0.4554(5) -0.6006(4) 0.5851(4)
H31D H -0.4931 -0.6026 0.5777
C66D C -0.0429(6) -0.3830(5) 0.3799(4)
H32D H -0.0167 -0.3941 0.3595
O24D O 0.1893(5) -0.3983(5) 0.6867(4)
C67D C 0.1410(7) -0.3859(8) 0.6754(6)
C68D C -0.3287(7) 0.1772(5) 0.6431(4)
C69D C 0.0709(8) -0.3944(7) 0.6173(6)
H34D H 0.0486 -0.3738 0.6342
C70D C 0.1275(7) -0.4549(7) 0.5671(5)
H35D H 0.1462 -0.4808 0.5539
C71D C 0.0496(7) -0.4124(6) 0.5767(5)
H36D H 0.0125 -0.4066 0.5689
C72D C 0.1497(8) -0.4361(7) 0.6077(6)
H37D H 0.1852 -0.4455 0.6171
C73D C -0.6043(6) -0.5871(6) 0.3649(5)
H38D H -0.6259 -0.5699 0.3447
C74D C -0.3683(7) 0.1459(7) 0.6195(5)
H39D H -0.4056 0.1429 0.6280
C75D C -0.2566(7) 0.1575(6) 0.5948(6)
H40D H -0.2194 0.1614 0.5865
C76D C -0.2918(5) 0.1288(4) 0.5688(4)
C77D C -0.2751(7) 0.1798(6) 0.6320(6)
H41D H -0.2502 0.1969 0.6498
C78D C -0.6525(6) -0.6640(6) 0.3418(5)
C79D C -0.2283(6) 0.1777(5) 0.4054(5)
H42D H -0.2645 0.1810 0.4163
C80D C -0.2111(6) 0.2069(6) 0.3698(5)
H43D H -0.2358 0.2294 0.3576
C81D C -0.3456(6) 0.1202(5) 0.5823(4)
H44D H -0.3675 0.0976 0.5673
C82D C -0.1194(6) -0.3510(5) 0.4373(4)
H45D H -0.1443 -0.3390 0.4582
C83D C -0.0804(6) -0.3847(5) 0.4491(4)
H46D H -0.0831 -0.3989 0.4769
Yb1B Yb -0.743361(17) -0.741272(14) 0.361735(12)
Yb1B_2 Yb 0.256639(17) -0.741272(14) 0.361735(12)
Yb1E Yb 0.256639(17) 0.241272(14) 0.861735(12)
Yb1F Yb -0.256639(17) 0.741272(14) 0.638265(12)
Yb1F_2 Yb 0.743361(17) 0.741272(14) 0.638265(12)
Yb2_2 Yb 0.37599(11) -0.27144(13) 0.2500
Yb2A Yb -0.37599(11) -0.72856(13) 0.7500
Yb2A_2 Yb -0.37599(11) 0.27144(13) 0.7500
Yb3A Yb -0.11904(3) 0.30140(3) 0.2500
Yb4_2 Yb 0.72601(3) 0.65221(2) 0.7500
Yb4A Yb -0.72601(3) -0.65221(2) 0.2500
Yb4A_2 Yb 0.27399(3) -0.65221(2) 0.2500
Yb4C Yb 0.27399(3) 0.15221(2) 0.7500
O2C O -0.2586(3) 0.7334(2) 0.7853(2)
O2D O -0.2586(3) -0.2334(2) 0.2853(2)
O2F O -0.2586(3) 0.7334(2) 0.7147(2)
O3E O 0.3867(4) 0.6722(3) 0.1959(3)
O8B O -0.1860(3) -0.1885(3) 0.3478(2)
O8F O 0.1860(3) 0.1885(3) 0.6522(2)
O10A O 0.1133(4) -0.3561(5) 0.8051(4)
O12E O 0.1806(4) -0.2581(3) 0.7966(3)
O14_2 O 0.3952(5) 0.7925(4) 0.3064(4)
O14E O 0.3952(5) 0.7925(4) 0.1936(4)
O15B O -0.3415(4) -0.2084(4) 0.3471(3)
O15F O 0.3415(4) 0.2084(4) 0.6529(3)
O16E O 0.0930(4) -0.2366(4) 0.8022(4)
O20_2 O 0.3120(5) 0.7699(4) 0.2966(4)
O20E O 0.3120(5) 0.7699(4) 0.2034(4)
O21E O -0.2018(3) 0.6341(3) 0.7947(3)
O23_2 O -0.3174(4) 0.6389(4) 0.6837(4)
O23E O -0.3174(4) 0.6389(4) 0.8163(4)
O26 O -0.0403(12) -0.2856(10) 0.8125(7)
H47 H -0.0184 -0.2930 0.7914
H48 H -0.0712 -0.2755 0.8021
O27 O 0.0608(9) 0.2212(9) 0.7500
loop_
_geom_bond_atom_site_label_1
_geom_bond_atom_site_label_2
_geom_bond_site_symmetry_1
_geom_bond_site_symmetry_2
Yb1 O2 1_555 1_555
Yb2 O3 1_555 1_555
Yb3 O5 1_555 1_555
Yb4 O1 1_555 1_555
C1 C2 1_555 1_555
O2 C2 1_555 1_555
O3 C46 1_555 1_555
O4 Yb1 1_555 1_555
C2 O2E 1_555 1_555
O6 Yb1 1_555 1_555
O7 Yb1 1_555 1_555
O8 C44 1_555 1_555
O9 Yb1 1_555 1_555
O10 C67 1_555 1_555
C3 C18 1_555 1_555
O11 Yb3 1_555 1_555
C4 O6 1_555 1_555
C5 C49 1_555 1_555
C6 H1 1_555 1_555
C7 C67 1_555 1_555
C8 C12 1_555 1_555
C9 C6 1_555 1_555
O12 Yb3 1_555 1_555
C10 H2 1_555 1_555
C11 H3 1_555 1_555
C12 H4 1_555 1_555
C13 C19 1_555 1_555
C14 H5 1_555 1_555
C15 H6 1_555 1_555
C16 O4 1_555 1_555
C17 C20 1_555 1_555
C18 C10 1_555 1_555
H7 C18 1_555 1_555
O13 Yb2 1_555 1_555
O14 C35 1_555 1_555
C19 C10 1_555 1_555
C20 C11 1_555 1_555
H8 C20 1_555 1_555
C21 C46 1_555 1_555
C22 O9 1_555 1_555
C23 C55 1_555 1_555
C24 H9 1_555 1_555
C25 C8 1_555 1_555
H10 C25 1_555 1_555
C26 C15 1_555 1_555
C27 C13 1_555 1_555
H11 C27 1_555 1_555
O15 C78 1_555 1_555
C28 C15 1_555 1_555
C29 C4 1_555 1_555
C30 C37 1_555 1_555
C31 C13 1_555 1_555
H12 C31 1_555 1_555
C32 H13 1_555 1_555
O16 Yb3 1_555 1_555
C33 C9 1_555 1_555
O17 Yb1 1_555 1_555
C34 C29 1_555 1_555
H14 C34 1_555 1_555
O18 C16 1_555 1_555
C35 O20 1_555 1_555
O19 Yb2 1_555 1_555
C36 C8 1_555 1_555
C37 C14 1_555 1_555
C38 C26 1_555 1_555
C39 C19 1_555 1_555
H15 C39 1_555 1_555
O20 Yb2_2 1_555 1_555
C40 C17 1_555 1_555
H16 C40 1_555 1_555
C41 C26 1_555 1_555
H17 C41 1_555 1_555
C42 C22 1_555 1_555
O21 Yb4 1_555 1_555
C43 C6 1_555 1_555
H18 C43 1_555 1_555
C44 C3 1_555 1_555
C45 O12 1_555 1_555
C46 O22 1_555 1_555
C47 C28 1_555 1_555
H19 C47 1_555 1_555
C48 C11 1_555 1_555
C49 C25 1_555 1_555
C50 C21 1_555 1_555
H20 C50 1_555 1_555
C51 C3 1_555 1_555
H21 C51 1_555 1_555
C52 C45 1_555 1_555
C53 C9 1_555 1_555
H22 C53 1_555 1_555
C54 H23 1_555 1_555
C55 C14 1_555 1_555
C56 C21 1_555 1_555
H24 C56 1_555 1_555
C57 C42 1_555 1_555
H25 C57 1_555 1_555
O23 C78 1_555 1_555
C58 C38 1_555 1_555
H26 C58 1_555 1_555
C59 C54 1_555 1_555
C60 C52 1_555 1_555
H27 C60 1_555 1_555
C61 C36 1_555 1_555
H28 C61 1_555 1_555
C62 C36 1_555 1_555
H29 C62 1_555 1_555
C63 C41 1_555 1_555
C64 C5 1_555 1_555
H30 C64 1_555 1_555
C65 C5 1_555 1_555
H31 C65 1_555 1_555
C66 C30 1_555 1_555
H32 C66 1_555 1_555
O24 C67 1_555 1_555
C68 C35 1_555 1_555
O25 Yb4 1_555 1_555
H33 O25 1_555 1_555
C69 C7 1_555 1_555
H34 C69 1_555 1_555
C70 C23 1_555 1_555
H35 C70 1_555 1_555
C71 C23 1_555 1_555
H36 C71 1_555 1_555
C72 C7 1_555 1_555
H37 C72 1_555 1_555
C73 C59 1_555 1_555
H38 C73 1_555 1_555
C74 C68 1_555 1_555
H39 C74 1_555 1_555
C75 H40 1_555 1_555
C76 C63 1_555 1_555
C77 C68 1_555 1_555
H41 C77 1_555 1_555
C78 C59 1_555 1_555
C79 C38 1_555 1_555
H42 C79 1_555 1_555
C80 C52 1_555 1_555
H43 C80 1_555 1_555
C81 C74 1_555 1_555
H44 C81 1_555 1_555
C82 C29 1_555 1_555
H45 C82 1_555 1_555
C83 C30 1_555 1_555
H46 C83 1_555 1_555
O26 H47 1_555 1_555
H48 O26 1_555 1_555
O2E Yb1E 1_555 1_555
H33E O25 1_555 1_555
Yb1D O4D 1_555 1_555
O3D C46D 1_555 1_555
O4D C16D 1_555 1_555
O6D Yb1D 1_555 1_555
O7D Yb1D 1_555 1_555
O8D C44D 1_555 1_555
O9D Yb1D 1_555 1_555
O10D Yb3 1_555 1_555
C3D C18D 1_555 1_555
C4D O6D 1_555 1_555
C5D C49D 1_555 1_555
C6D H1D 1_555 1_555
C7D C67D 1_555 1_555
C8D C12D 1_555 1_555
C9D C6D 1_555 1_555
O12D C45D 1_555 1_555
C10D H2D 1_555 1_555
C11D H3D 1_555 1_555
C12D H4D 1_555 1_555
C13D C19D 1_555 1_555
C14D H5D 1_555 1_555
C15D H6D 1_555 1_555
C16D O18D 1_555 1_555
C17D C20D 1_555 1_555
C18D C10D 1_555 1_555
H7D C18D 1_555 1_555
O14D C35D 1_555 1_555
C19D C10D 1_555 1_555
C20D C11D 1_555 1_555
H8D C20D 1_555 1_555
C21D C46D 1_555 1_555
C22D O9D 1_555 1_555
C23D C55D 1_555 1_555
C24D H9D 1_555 1_555
C25D C8D 1_555 1_555
H10D C25D 1_555 1_555
C26D C15D 1_555 1_555
C27D C13D 1_555 1_555
H11D C27D 1_555 1_555
O15D C78D 1_555 1_555
C28D C15D 1_555 1_555
C29D C4D 1_555 1_555
C30D C37D 1_555 1_555
C31D C13D 1_555 1_555
H12D C31D 1_555 1_555
C32D H13D 1_555 1_555
O16D C45D 1_555 1_555
C33D C9D 1_555 1_555
O17D Yb1D 1_555 1_555
C34D C29D 1_555 1_555
H14D C34D 1_555 1_555
C35D O20D 1_555 1_555
C36D C8D 1_555 1_555
C37D C14D 1_555 1_555
C38D C26D 1_555 1_555
C39D C19D 1_555 1_555
H15D C39D 1_555 1_555
O20D Yb2A_2 1_555 1_555
C40D C17D 1_555 1_555
H16D C40D 1_555 1_555
C41D C26D 1_555 1_555
H17D C41D 1_555 1_555
C42D C22D 1_555 1_555
O21D C44D 1_555 1_555
C43D C6D 1_555 1_555
H18D C43D 1_555 1_555
C44D C3D 1_555 1_555
C45D C52D 1_555 1_555
C46D O22D 1_555 1_555
C47D C28D 1_555 1_555
H19D C47D 1_555 1_555
C48D C11D 1_555 1_555
C49D C25D 1_555 1_555
C50D C21D 1_555 1_555
H20D C50D 1_555 1_555
C51D C3D 1_555 1_555
H21D C51D 1_555 1_555
C52D C60D 1_555 1_555
C53D C9D 1_555 1_555
H22D C53D 1_555 1_555
C54D H23D 1_555 1_555
C55D C14D 1_555 1_555
C56D C21D 1_555 1_555
H24D C56D 1_555 1_555
C57D C42D 1_555 1_555
H25D C57D 1_555 1_555
O23D C78D 1_555 1_555
C58D C38D 1_555 1_555
H26D C58D 1_555 1_555
C59D C54D 1_555 1_555
C60D C58D 1_555 1_555
H27D C60D 1_555 1_555
C61D C36D 1_555 1_555
H28D C61D 1_555 1_555
C62D C36D 1_555 1_555
H29D C62D 1_555 1_555
C63D C41D 1_555 1_555
C64D C5D 1_555 1_555
H30D C64D 1_555 1_555
C65D C5D 1_555 1_555
H31D C65D 1_555 1_555
C66D C30D 1_555 1_555
H32D C66D 1_555 1_555
O24D C67D 1_555 1_555
C67D O10D 1_555 1_555
C68D C35D 1_555 1_555
C69D C7D 1_555 1_555
H34D C69D 1_555 1_555
C70D C23D 1_555 1_555
H35D C70D 1_555 1_555
C71D C23D 1_555 1_555
H36D C71D 1_555 1_555
C72D C7D 1_555 1_555
H37D C72D 1_555 1_555
C73D C59D 1_555 1_555
H38D C73D 1_555 1_555
C74D C68D 1_555 1_555
H39D C74D 1_555 1_555
C75D H40D 1_555 1_555
C76D C63D 1_555 1_555
C77D C68D 1_555 1_555
H41D C77D 1_555 1_555
C78D C59D 1_555 1_555
C79D C38D 1_555 1_555
H42D C79D 1_555 1_555
C80D C52D 1_555 1_555
H43D C80D 1_555 1_555
C81D C74D 1_555 1_555
H44D C81D 1_555 1_555
C82D C29D 1_555 1_555
H45D C82D 1_555 1_555
C83D C30D 1_555 1_555
H46D C83D 1_555 1_555
Yb1B O15D 1_555 1_555
Yb1B_2 O8D 1_555 1_555
Yb1F O8 1_555 1_555
Yb1F_2 O15 1_555 1_555
Yb2_2 O14 1_555 1_555
Yb2A O3D 1_555 1_555
Yb2A_2 O14D 1_555 1_555
Yb3A O10 1_555 1_555
Yb4_2 O23 1_555 1_555
Yb4A O23D 1_555 1_555
Yb4A_2 O21D 1_555 1_555
Yb4C O2 1_555 1_555
O2C Yb4 1_555 1_555
O2D Yb1D 1_555 1_555
O2F Yb4 1_555 1_555
O3E Yb2 1_555 1_555
O8B Yb1D 1_555 1_555
O8F Yb1 1_555 1_555
O10A Yb3 1_555 1_555
O12E Yb3 1_555 1_555
O14_2 Yb2 1_555 1_555
O14E Yb2 1_555 1_555
O15B Yb1D 1_555 1_555
O15F Yb1 1_555 1_555
O16E Yb3 1_555 1_555
O20_2 Yb2 1_555 1_555
O20E Yb2 1_555 1_555
O21E Yb4 1_555 1_555
O23_2 Yb4 1_555 1_555
O23E Yb4 1_555 1_555
O7 C4 1_555 1_555
C12 C33 1_555 1_555
C16 C48 1_555 1_555
C17 C28 1_555 1_555
C22 O17 1_555 1_555
C24 C40 1_555 1_555
C24 C48 1_555 1_555
C27 C55 1_555 1_555
C31 C37 1_555 1_555
C32 C33 1_555 1_555
C32 C49 1_555 1_555
O16 C45 1_555 1_555
C34 C66 1_555 1_555
C39 C51 1_555 1_555
C42 C43 1_555 1_555
O21 C44 1_555 1_555
C47 C63 1_555 1_555
C50 C64 1_555 1_555
C53 C57 1_555 1_555
C54 C62 1_555 1_555
C56 C65 1_555 1_555
C58 C60 1_555 1_555
C61 C73 1_555 1_555
C69 C71 1_555 1_555
C70 C72 1_555 1_555
C75 C76 1_555 1_555
C75 C77 1_555 1_555
C76 C81 1_555 1_555
C79 C80 1_555 1_555
C82 C83 1_555 1_555
O2E Yb4C 1_555 1_555
O7D C4D 1_555 1_555
O12D Yb3A 1_555 1_555
C12D C33D 1_555 1_555
C16D C48D 1_555 1_555
C17D C28D 1_555 1_555
C22D O17D 1_555 1_555
C24D C40D 1_555 1_555
C24D C48D 1_555 1_555
C27D C55D 1_555 1_555
C31D C37D 1_555 1_555
C32D C33D 1_555 1_555
C32D C49D 1_555 1_555
O16D Yb3A 1_555 1_555
C34D C66D 1_555 1_555
C39D C51D 1_555 1_555
C42D C43D 1_555 1_555
C47D C63D 1_555 1_555
C50D C64D 1_555 1_555
C53D C57D 1_555 1_555
C54D C62D 1_555 1_555
C56D C65D 1_555 1_555
C61D C73D 1_555 1_555
C69D C71D 1_555 1_555
C70D C72D 1_555 1_555
C75D C76D 1_555 1_555
C75D C77D 1_555 1_555
C76D C81D 1_555 1_555
C79D C80D 1_555 1_555
C82D C83D 1_555 1_555
Yb1F O2F 1_555 1_555

#END
