
#######################################################################
#
#                 Cambridge Crystallographic Data Centre
#                                CCDC 
#
#######################################################################
#
# If this CIF has been generated from an entry in the Cambridge 
# Structural Database, then it will include bibliographic, chemical, 
# crystal, experimental, refinement or atomic coordinate data resulting 
# from the CCDC's data processing and validation procedures.
#
#######################################################################

data_VAJTUX
_chemical_formula_moiety         '(C23 H20 Cu2 N4 O10 S2)n'
_symmetry_cell_setting           monoclinic
_symmetry_space_group_name_H-M   'P 21/n'
_symmetry_Int_Tables_number      14
_space_group_name_Hall           '-P 2yn'
loop_
_symmetry_equiv_pos_site_id
_symmetry_equiv_pos_as_xyz
1 x,y,z
2 1/2-x,1/2+y,1/2-z
3 -x,-y,-z
4 1/2+x,1/2-y,1/2+z
_cell_length_a                   8.522(9)
_cell_length_b                   10.180(11)
_cell_length_c                   17.534(19)
_cell_angle_alpha                90
_cell_angle_beta                 100.627(13)
_cell_angle_gamma                90
_cell_volume                     1495.05
loop_
_atom_site_label
_atom_site_type_symbol
_atom_site_fract_x
_atom_site_fract_y
_atom_site_fract_z
Cu1 Cu 0.98478(10) 0.32708(8) 0.90464(4)
N1 N 1.1628(7) 0.2019(6) 0.9385(3)
N2 N 0.8123(6) 0.4605(6) 0.8781(3)
O1 O 0.5303(5) 0.7752(5) 0.7047(2)
O2 O 0.7092(7) 0.6465(5) 0.6655(3)
O3 O 0.8226(5) 0.5081(4) 1.0832(2)
O4 O 0.9334(6) 0.3345(5) 1.0098(2)
S1 S 0.7836(2) 0.40332(19) 1.02355(9)
C1 C 0.7330(8) 0.4954(7) 0.9336(4)
C2 C 0.6198(8) 0.5916(7) 0.9235(4)
H4 H 0.5673 0.6136 0.9637
C3 C 0.5831(8) 0.6569(7) 0.8523(4)
H5 H 0.5055 0.7222 0.8438
C4 C 0.6670(8) 0.6208(7) 0.7943(3)
C5 C 0.6364(8) 0.6834(7) 0.7154(4)
C6 C 0.7812(8) 0.5247(7) 0.8103(3)
H6 H 0.8397 0.5030 0.7722
C7 C 1.2845(10) 0.2027(8) 0.9025(4)
H7 H 1.2791 0.2576 0.8597
C8 C 1.4212(9) 0.1267(8) 0.9239(4)
H8 H 1.5053 0.1322 0.8970
C9 C 1.4283(8) 0.0421(7) 0.9868(4)
C10 C 1.2995(9) 0.0424(8) 1.0244(4)
H9 H 1.3005 -0.0105 1.0677
C11 C 1.1694(9) 0.1211(8) 0.9978(4)
H10 H 1.0823 0.1170 1.0228
Cu1B Cu 2.01522(10) -0.32708(8) 1.09536(4)
Cu1A Cu 0.51522(10) 0.82708(8) 0.59536(4)
Cu1B_2 Cu 1.01522(10) 0.67292(8) 1.09536(4)
Cu1A_2 Cu 0.51522(10) -0.17292(8) 0.59536(4)
Cu1C Cu 0.48478(10) 0.17292(8) 0.40464(4)
N1B N 1.8372(7) -0.2019(6) 1.0615(3)
N2A N 0.6877(6) -0.0395(6) 0.6219(3)
N2B N 2.1877(6) -0.4605(6) 1.1219(3)
O1A O 0.9697(5) 0.2752(5) 0.7953(2)
O1C O 2.0303(5) -0.2752(5) 1.2047(2)
O2A O 0.7908(7) 0.1465(5) 0.8345(3)
O2C O 2.2092(7) -0.1465(5) 1.1655(3)
O3A O 0.6774(5) 0.0081(4) 0.4168(2)
O3B O 1.1774(5) 0.4919(4) 0.9168(2)
O3_2 O 1.8226(5) -0.4919(4) 1.0832(2)
O4A O 0.5666(6) -0.1655(5) 0.4902(2)
O4B O 2.0666(6) -0.3345(5) 0.9902(2)
S1A S 0.7164(2) -0.09668(19) 0.47645(9)
C1A C 0.7670(8) -0.0046(7) 0.5664(4)
C2A C 0.8802(8) 0.0916(7) 0.5765(4)
H4A H 0.9327 0.1136 0.5363
C3A C 0.9169(8) 0.1569(7) 0.6477(4)
H5A H 0.9945 0.2222 0.6562
C4A C 0.8330(8) 0.1208(7) 0.7057(3)
C5A C 0.8636(8) 0.1834(7) 0.7846(4)
C6A C 0.7188(8) 0.0247(7) 0.6897(3)
H6A H 0.6603 0.0030 0.7278
C7B C 1.7155(10) -0.2027(8) 1.0975(4)
H7B H 1.7209 -0.2576 1.1403
C8B C 1.5788(9) -0.1267(8) 1.0761(4)
H8B H 1.4947 -0.1322 1.1030
C9B C 1.5717(8) -0.0421(7) 1.0132(4)
C10B C 1.7005(9) -0.0424(8) 0.9756(4)
H9B H 1.6995 0.0105 0.9323
C11B C 1.8306(9) -0.1211(8) 1.0022(4)
H10B H 1.9177 -0.1170 0.9772
O5 O 0.8086(10) 0.4500(7) 0.2372(4)
H1 H 0.8127 0.4682 0.1915
H2 H 0.8033 0.3702 0.2274
O6 O 0.7889(16) 0.1767(9) 0.2032(9)
H3 H 0.7450 0.1082 0.2122
C12 C 0.9379(17) 0.1490(17) 0.1884(11)
H11 H 0.9704 0.2177 0.1572
H12 H 0.9350 0.0669 0.1611
H13 H 1.0125 0.1429 0.2365
loop_
_geom_bond_atom_site_label_1
_geom_bond_atom_site_label_2
_geom_bond_site_symmetry_1
_geom_bond_site_symmetry_2
Cu1 N1 1_555 1_555
N1 C7 1_555 1_555
N2 Cu1 1_555 1_555
O1 C5 1_555 1_555
O2 C5 1_555 1_555
O3 S1 1_555 1_555
O4 Cu1 1_555 1_555
O5 H1 1_555 1_555
H2 O5 1_555 1_555
O6 H3 1_555 1_555
S1 O4 1_555 1_555
C1 N2 1_555 1_555
C2 C1 1_555 1_555
H4 C2 1_555 1_555
C3 C2 1_555 1_555
H5 C3 1_555 1_555
C4 C3 1_555 1_555
C5 C4 1_555 1_555
C6 N2 1_555 1_555
H6 C6 1_555 1_555
C7 H7 1_555 1_555
C8 C7 1_555 1_555
H8 C8 1_555 1_555
C9 C8 1_555 1_555
C10 C9 1_555 1_555
H9 C10 1_555 1_555
C11 N1 1_555 1_555
H10 C11 1_555 1_555
C12 O6 1_555 1_555
H11 C12 1_555 1_555
H12 C12 1_555 1_555
H13 C12 1_555 1_555
Cu1B N1B 1_555 1_555
Cu1A O1 1_555 1_555
Cu1B_2 O3 1_555 1_555
Cu1A_2 N2A 1_555 1_555
Cu1C O3A 1_555 1_555
N1B C7B 1_555 1_555
N2A C1A 1_555 1_555
N2B Cu1B 1_555 1_555
O1A Cu1 1_555 1_555
O1C Cu1B 1_555 1_555
O2A Cu1 1_555 1_555
O2C Cu1B 1_555 1_555
O3A S1A 1_555 1_555
O3B Cu1 1_555 1_555
O3_2 Cu1B 1_555 1_555
O4A Cu1A_2 1_555 1_555
O4B Cu1B 1_555 1_555
S1A O4A 1_555 1_555
C1A S1A 1_555 1_555
C2A C1A 1_555 1_555
H4A C2A 1_555 1_555
C3A C2A 1_555 1_555
H5A C3A 1_555 1_555
C4A C3A 1_555 1_555
C5A O1A 1_555 1_555
C6A N2A 1_555 1_555
H6A C6A 1_555 1_555
C7B H7B 1_555 1_555
C8B C7B 1_555 1_555
H8B C8B 1_555 1_555
C9B C9 1_555 1_555
C10B C9B 1_555 1_555
H9B C10B 1_555 1_555
C11B N1B 1_555 1_555
H10B C11B 1_555 1_555
O2 Cu1A 1_555 1_555
S1 C1 1_555 1_555
C4 C6 1_555 1_555
C10 C11 1_555 1_555
O2A C5A 1_555 1_555
C4A C5A 1_555 1_555
C4A C6A 1_555 1_555
C8B C9B 1_555 1_555
C10B C11B 1_555 1_555

#END
