
#######################################################################
#
#                 Cambridge Crystallographic Data Centre
#                                CCDC 
#
#######################################################################
#
# If this CIF has been generated from an entry in the Cambridge 
# Structural Database, then it will include bibliographic, chemical, 
# crystal, experimental, refinement or atomic coordinate data resulting 
# from the CCDC's data processing and validation procedures.
#
#######################################################################

data_YUJVOQ
_chemical_formula_moiety         '(C12 H16 Li2 N2 O16 Zr1)n'
_symmetry_cell_setting           monoclinic
_symmetry_space_group_name_H-M   'I 2/a'
_symmetry_Int_Tables_number      15
_space_group_name_Hall           '-I 2ya'
loop_
_symmetry_equiv_pos_site_id
_symmetry_equiv_pos_as_xyz
1 x,y,z
2 1/2-x,y,-z
3 1/2+x,1/2+y,1/2+z
4 -x,1/2+y,1/2-z
5 -x,-y,-z
6 1/2+x,-y,z
7 1/2-x,1/2-y,1/2-z
8 x,1/2-y,1/2+z
_cell_length_a                   16.0091(8)
_cell_length_b                   16.6385(9)
_cell_length_c                   15.3534(7)
_cell_angle_alpha                90
_cell_angle_beta                 90.834(4)
_cell_angle_gamma                90
_cell_volume                     4089.21
loop_
_atom_site_label
_atom_site_type_symbol
_atom_site_fract_x
_atom_site_fract_y
_atom_site_fract_z
_atom_site_U_iso_or_equiv
_atom_site_thermal_displace_type
Li1 Li 0.1948(2) 0.5450(2) 0.8826(2) 0.0152 Uani
Li2 Li -0.1955(2) -0.0501(2) 0.8683(2) 0.0142 Uani
C1 C -0.14752(13) 0.36618(13) 0.86121(14) 0.0133 Uani
C2 C -0.12460(11) 0.36281(11) 0.95941(12) 0.0137 Uani
C3 C -0.12800(13) 0.11505(13) 0.84565(14) 0.0133 Uani
C4 C 0.13354(13) 0.38001(13) 0.88607(14) 0.0137 Uani
C5 C 0.12296(12) 0.36279(12) 0.78798(12) 0.0140 Uani
C6 C -0.08704(11) 0.12532(11) 0.75545(12) 0.0128 Uani
C7 C 0.08949(11) 0.13408(11) 0.99874(12) 0.0125 Uani
C8 C 0.13674(13) 0.12688(13) 0.91203(14) 0.0136 Uani
O1 O 0.03412(8) 0.19023(8) 0.99782(8) 0.0124 Uani
O2 O -0.03467(8) 0.18443(8) 0.75313(8) 0.0130 Uani
O3 O -0.09593(8) 0.32615(8) 0.81426(8) 0.0154 Uani
O4 O -0.10184(8) 0.16675(8) 0.90199(9) 0.0160 Uani
O5 O 0.06331(8) 0.31349(8) 0.76930(8) 0.0141 Uani
O6 O 0.09070(8) 0.33111(8) 0.93335(8) 0.0162 Uani
O7 O -0.06567(8) 0.31314(8) 0.97818(8) 0.0152 Uani
O8 O 0.10346(8) 0.16864(8) 0.85050(9) 0.0162 Uani
O9 O 0.10455(9) 0.08970(9) 1.06014(9) 0.0208 Uani
O10 O -0.17948(9) 0.06268(9) 0.85840(10) 0.0193 Uani
O11 O 0.17044(9) 0.39469(9) 0.73715(9) 0.0228 Uani
O12 O -0.16177(10) 0.40582(10) 1.00970(9) 0.0266 Uani
O13 O -0.20738(9) 0.40404(9) 0.83380(9) 0.0190 Uani
O14 O 0.17823(9) 0.43349(9) 0.91391(9) 0.0181 Uani
O15 O -0.10342(9) 0.08088(9) 0.69479(9) 0.0205 Uani
O16 O 0.19791(9) 0.08363(9) 0.90684(10) 0.0201 Uani
Zr1 Zr -0.000556(8) 0.249649(8) 0.874164(7) 0.0069 Uani
Li1C Li -0.1948(2) 0.0450(2) 0.6174(2) 0.0152 Uani
Li1D Li -0.1948(2) 0.4550(2) 1.1174(2) 0.0152 Uani
Li1E Li -0.3052(2) 0.4550(2) 0.8826(2) 0.0152 Uani
Li2C Li 0.1955(2) 0.4499(2) 0.6317(2) 0.0142 Uani
Li2D Li 0.1955(2) 0.0501(2) 1.1317(2) 0.0142 Uani
Li2E Li 0.3045(2) 0.0501(2) 0.8683(2) 0.0142 Uani
O9D O -0.10455(9) -0.08970(9) 0.93986(9) 0.0208 Uani
O11C O -0.17044(9) -0.10531(9) 0.76285(9) 0.0228 Uani
O12D O 0.16177(10) 0.59418(10) 0.99030(9) 0.0266 Uani
O13E O 0.29262(9) 0.59596(9) 0.83380(9) 0.0190 Uani
O15C O 0.10342(9) 0.58088(9) 0.80521(9) 0.0205 Uani
O16E O -0.30209(9) -0.08363(9) 0.90684(10) 0.0201 Uani
C9 C -0.17174(14) 0.28761(14) 0.61785(15) 0.0257 Uani
H1 H -0.2001 0.3032 0.5650 0.0390 Uiso
H2 H -0.2062 0.2999 0.6668 0.0390 Uiso
H3 H -0.1608 0.2309 0.6166 0.0390 Uiso
C10 C -0.10286(16) 0.42013(13) 0.61941(15) 0.0289 Uani
H4 H -0.1259 0.4335 0.5632 0.0430 Uiso
H5 H -0.0497 0.4460 0.6270 0.0430 Uiso
H6 H -0.1401 0.4380 0.6639 0.0430 Uiso
N1 N -0.09197(11) 0.33188(10) 0.62586(10) 0.0180 Uani
H7 H -0.0575 0.3154 0.5836 0.0220 Uiso
H8 H -0.0676 0.3200 0.6775 0.0220 Uiso
C11 C 0.09939(18) 0.07181(15) 0.62798(17) 0.0368 Uani
H9 H 0.1354 0.0543 0.5823 0.0550 Uiso
H10 H 0.0462 0.0456 0.6220 0.0550 Uiso
H11 H 0.1241 0.0585 0.6835 0.0550 Uiso
C12 C 0.16664(14) 0.20517(14) 0.63304(14) 0.0256 Uani
H12 H 0.2031 0.1929 0.5858 0.0380 Uiso
H13 H 0.1932 0.1902 0.6871 0.0380 Uiso
H14 H 0.1550 0.2618 0.6334 0.0380 Uiso
N2 N 0.08767(11) 0.15995(11) 0.62205(11) 0.0203 Uani
H15 H 0.0647 0.1720 0.5698 0.0240 Uiso
H16 H 0.0518 0.1756 0.6633 0.0240 Uiso
loop_
_atom_site_aniso_label
_atom_site_aniso_U_11
_atom_site_aniso_U_22
_atom_site_aniso_U_33
_atom_site_aniso_U_23
_atom_site_aniso_U_13
_atom_site_aniso_U_12
Li1 0.0178(16) 0.0124(17) 0.0155(16) 0.0012(12) -0.0009(13) -0.0005(12)
Li2 0.0141(15) 0.0144(17) 0.0141(15) 0.0005(12) -0.0009(12) 0.0012(12)
C1 0.0135(10) 0.0107(10) 0.0157(10) -0.0006(7) 0.0000(8) 0.0005(7)
C2 0.0138(9) 0.0119(10) 0.0155(9) -0.0036(7) -0.0001(7) 0.0004(7)
C3 0.0140(9) 0.0093(10) 0.0164(10) 0.0008(7) -0.0038(8) 0.0008(8)
C4 0.0135(9) 0.0112(10) 0.0163(10) 0.0023(8) -0.0013(8) 0.0007(7)
C5 0.0135(9) 0.0117(10) 0.0167(10) 0.0049(7) -0.0004(7) 0.0015(7)
C6 0.0108(8) 0.0131(10) 0.0143(9) -0.0006(7) -0.0050(7) 0.0031(7)
C7 0.0107(8) 0.0125(10) 0.0140(9) -0.0001(7) -0.0050(7) -0.0003(7)
C8 0.0136(9) 0.0109(10) 0.0162(10) -0.0003(8) -0.0031(8) 0.0014(7)
O1 0.0148(6) 0.0128(7) 0.0096(6) 0.0037(5) -0.0017(5) 0.0035(5)
O2 0.0155(7) 0.0132(7) 0.0104(6) -0.0047(5) -0.0014(5) -0.0021(5)
O3 0.0170(7) 0.0169(7) 0.0123(6) -0.0002(5) -0.0006(5) 0.0083(5)
O4 0.0176(7) 0.0161(7) 0.0144(7) -0.0006(5) 0.0010(5) -0.0066(5)
O5 0.0151(7) 0.0167(7) 0.0105(6) 0.0026(5) -0.0006(5) -0.0028(5)
O6 0.0201(7) 0.0149(7) 0.0134(7) -0.0001(5) -0.0018(5) -0.0080(5)
O7 0.0164(7) 0.0183(8) 0.0109(6) -0.0044(5) -0.0014(5) 0.0052(5)
O8 0.0162(7) 0.0177(8) 0.0149(7) 0.0008(6) 0.0020(5) 0.0079(5)
O9 0.0223(7) 0.0216(8) 0.0183(7) 0.0079(6) -0.0042(6) 0.0055(6)
O10 0.0166(7) 0.0122(8) 0.0290(8) 0.0024(6) -0.0012(6) -0.0028(6)
O11 0.0221(7) 0.0267(9) 0.0197(7) 0.0094(6) 0.0017(6) -0.0075(6)
O12 0.0301(8) 0.0300(9) 0.0196(7) -0.0133(6) -0.0007(6) 0.0131(6)
O13 0.0187(7) 0.0200(8) 0.0183(7) 0.0011(6) -0.0004(6) 0.0087(6)
O14 0.0191(7) 0.0126(7) 0.0225(7) 0.0014(6) -0.0046(6) -0.0043(6)
O15 0.0221(7) 0.0198(8) 0.0195(7) -0.0091(6) -0.0065(6) -0.0020(6)
O16 0.0158(7) 0.0188(8) 0.0257(8) 0.0006(6) 0.0009(6) 0.0069(6)
Zr1 0.00872(17) 0.00695(17) 0.00495(17) -0.00004(4) -0.00101(11) 0.00060(4)
Li1C 0.0178 0.0124 0.0155 -0.0012 -0.0009 0.0005
Li1D 0.0178 0.0124 0.0155 0.0012 -0.0009 -0.0005
Li1E 0.0178 0.0124 0.0155 -0.0012 -0.0009 0.0005
Li2C 0.0141 0.0144 0.0141 -0.0005 -0.0009 -0.0012
Li2D 0.0141 0.0144 0.0141 0.0005 -0.0009 0.0012
Li2E 0.0141 0.0144 0.0141 -0.0005 -0.0009 -0.0012
O9D 0.0223 0.0216 0.0183 0.0079 -0.0042 0.0055
O11C 0.0221 0.0267 0.0197 -0.0094 0.0017 0.0075
O12D 0.0301 0.03 0.0196 -0.0133 -0.0007 0.0131
O13E 0.0187 0.02 0.0183 -0.0011 -0.0004 -0.0087
O15C 0.0221 0.0198 0.0195 0.0091 -0.0065 0.002
O16E 0.0158 0.0188 0.0257 -0.0006 0.0009 -0.0069
C9 0.0266(11) 0.0299(14) 0.0206(10) -0.0022(9) -0.0039(9) 0.0027(9)
C10 0.0384(13) 0.0175(12) 0.0311(12) 0.0020(9) 0.0081(10) 0.0057(9)
N1 0.0231(9) 0.0210(10) 0.0099(8) 0.0022(6) 0.0019(6) 0.0087(7)
C11 0.0490(16) 0.0215(13) 0.0405(15) 0.0033(10) 0.0189(12) 0.0082(11)
C12 0.0272(11) 0.0320(13) 0.0177(10) 0.0002(9) -0.0010(9) 0.0086(9)
N2 0.0286(10) 0.0218(10) 0.0107(8) 0.0025(7) 0.0029(7) 0.0106(7)
loop_
_geom_bond_atom_site_label_1
_geom_bond_atom_site_label_2
_geom_bond_site_symmetry_1
_geom_bond_site_symmetry_2
Li1 O14 1_555 1_555
Li2 O10 1_555 1_555
C1 C2 1_555 1_555
C2 O7 1_555 1_555
C3 C6 1_555 1_555
C4 C5 1_555 1_555
C5 O5 1_555 1_555
C6 O2 1_555 1_555
C7 C8 1_555 1_555
C8 O8 1_555 1_555
O1 C7 1_555 1_555
O2 Zr1 1_555 1_555
O3 C1 1_555 1_555
O4 C3 1_555 1_555
O5 Zr1 1_555 1_555
O6 C4 1_555 1_555
O7 Zr1 1_555 1_555
O8 Zr1 1_555 1_555
O9 C7 1_555 1_555
O10 C3 1_555 1_555
O11 C5 1_555 1_555
O12 C2 1_555 1_555
O13 C1 1_555 1_555
O14 C4 1_555 1_555
O15 C6 1_555 1_555
O16 C8 1_555 1_555
Zr1 O1 1_555 1_555
C9 H1 1_555 1_555
H2 C9 1_555 1_555
H3 C9 1_555 1_555
C10 H4 1_555 1_555
H5 C10 1_555 1_555
H6 C10 1_555 1_555
N1 C9 1_555 1_555
H7 N1 1_555 1_555
H8 N1 1_555 1_555
C11 H9 1_555 1_555
H10 C11 1_555 1_555
H11 C11 1_555 1_555
C12 H12 1_555 1_555
H13 C12 1_555 1_555
H14 C12 1_555 1_555
N2 C11 1_555 1_555
H15 N2 1_555 1_555
H16 N2 1_555 1_555
Li1C O15 1_555 1_555
Li1D O12 1_555 1_555
Li1E O13 1_555 1_555
Li2C O11 1_555 1_555
Li2D O9 1_555 1_555
Li2E O16 1_555 1_555
O9D Li2 1_555 1_555
O11C Li2 1_555 1_555
O12D Li1 1_555 1_555
O13E Li1 1_555 1_555
O15C Li1 1_555 1_555
O16E Li2 1_555 1_555
O3 Zr1 1_555 1_555
O4 Zr1 1_555 1_555
O6 Zr1 1_555 1_555
C10 N1 1_555 1_555
C12 N2 1_555 1_555

#END
