
#######################################################################
#
#                 Cambridge Crystallographic Data Centre
#                                CCDC 
#
#######################################################################
#
# If this CIF has been generated from an entry in the Cambridge 
# Structural Database, then it will include bibliographic, chemical, 
# crystal, experimental, refinement or atomic coordinate data resulting 
# from the CCDC's data processing and validation procedures.
#
#######################################################################

data_MAGVOG12
_chemical_formula_moiety         '(C8 H32 Ag4 N11 O9 1+)n'
_symmetry_cell_setting           monoclinic
_symmetry_space_group_name_H-M   'C 2/c'
_symmetry_Int_Tables_number      15
_space_group_name_Hall           '-C 2yc'
loop_
_symmetry_equiv_pos_site_id
_symmetry_equiv_pos_as_xyz
1 x,y,z
2 -x,y,1/2-z
3 1/2+x,1/2+y,z
4 1/2-x,1/2+y,1/2-z
5 -x,-y,-z
6 x,-y,1/2+z
7 1/2-x,1/2-y,-z
8 1/2+x,1/2-y,1/2+z
_cell_length_a                   20.775(9)
_cell_length_b                   19.479(7)
_cell_length_c                   5.952(3)
_cell_angle_alpha                90
_cell_angle_beta                 114.10(5)
_cell_angle_gamma                90
_cell_volume                     2198.68
loop_
_atom_site_label
_atom_site_type_symbol
_atom_site_fract_x
_atom_site_fract_y
_atom_site_fract_z
Ag1 Ag 0.5000 0.0000 0.0000
Ag2 Ag 0.7500 0.2500 0.0000
Ag3 Ag 0.7500 0.2500 0.5000
Ag4 Ag 1.0000 0.0000 0.5000
N1 N 0.608(2) 0.0461(13) 0.153(5)
H1 H 0.6207 0.0606 0.3091
H2 H 0.6404 0.0165 0.1469
N2 N 0.654(2) 0.2036(11) -0.121(4)
H3 H 0.6209 0.2328 -0.1139
H4 H 0.6398 0.1892 -0.2779
N3 N 0.8536(19) 0.1993(11) 0.641(5)
H5 H 0.8876 0.2280 0.6422
H6 H 0.8652 0.1826 0.7940
N4 N 0.903(2) 0.0525(12) 0.383(5)
H7 H 0.8905 0.0696 0.2307
H8 H 0.8685 0.0237 0.3804
C1 C 0.5967(13) 0.1032(10) -0.016(4)
H9 H 0.5599 0.1327 -0.0097
H10 H 0.5811 0.0857 -0.1827
C2 C 0.6632(13) 0.1444(11) 0.047(4)
H11 H 0.6790 0.1613 0.2142
H12 H 0.6998 0.1147 0.0395
C3 C 0.8412(12) 0.1442(10) 0.463(4)
H13 H 0.8291 0.1622 0.2985
H14 H 0.8043 0.1135 0.4608
C4 C 0.9121(14) 0.1090(10) 0.561(4)
H15 H 0.9489 0.1403 0.5662
H16 H 0.9238 0.0911 0.7255
N1D N 0.392(2) -0.0461(13) -0.153(5)
H1D H 0.3793 -0.0606 -0.3091
H2D H 0.3596 -0.0165 -0.1469
N2D N 0.346(2) -0.2036(11) 0.121(4)
H3D H 0.3791 -0.2328 0.1139
H4D H 0.3602 -0.1892 0.2779
C1D C 0.4033(13) -0.1032(10) 0.016(4)
H9D H 0.4401 -0.1327 0.0097
H10D H 0.4189 -0.0857 0.1827
C2D C 0.3368(13) -0.1444(11) -0.047(4)
H11D H 0.3210 -0.1613 -0.2142
H12D H 0.3002 -0.1147 -0.0395
N3F N 0.6464(19) 0.3007(11) 0.359(5)
H5F H 0.6124 0.2720 0.3578
H6F H 0.6348 0.3174 0.2060
N4F N 0.597(2) 0.4475(12) 0.617(5)
H7F H 0.6095 0.4304 0.7693
H8F H 0.6315 0.4763 0.6196
C3F C 0.6588(12) 0.3558(10) 0.537(4)
H13F H 0.6709 0.3378 0.7015
H14F H 0.6957 0.3865 0.5392
C4F C 0.5879(14) 0.3910(10) 0.439(4)
H15F H 0.5511 0.3597 0.4338
H16F H 0.5762 0.4089 0.2745
Ag1A Ag 0.5000 -0.0000 -0.5000
Ag1A_2 Ag 0.5000 0.0000 0.5000
Ag2_2 Ag 0.7500 0.2500 1.0000
Ag2B Ag 0.2500 -0.2500 0.0000
Ag3_2 Ag 0.7500 0.2500 -0.5000
Ag4A Ag 1.0000 0.0000 0.0000
Ag4A_2 Ag 1.0000 0.0000 1.0000
Ag4B Ag 0.5000 0.5000 0.5000
N2F N 0.846(2) 0.2964(11) 0.121(4)
N4D N 1.097(2) -0.0525(12) 0.617(5)
N5 N 0.743(2) 0.0678(12) 0.752(4)
O1 O 0.797(2) 0.0965(15) 0.876(4)
O2 O 0.692(2) 0.1005(17) 0.624(6)
O3 O 0.738(3) 0.0066(12) 0.771(6)
N6 N 0.0000 0.3199(15) 0.7500
O4 O 0.0539(7) 0.3505(15) 0.877(4)
O5 O 0.0000 0.2572(15) 0.7500
O4A O -0.0539(7) 0.3505(15) 0.623(4)
N7 N 0.0000 0.8183(19) 0.7500
O6 O 0.0508(8) 0.8526(17) 0.879(5)
O7 O 0.0000 0.7556(18) 0.7500
O6A O -0.0508(8) 0.8526(17) 0.621(5)
loop_
_geom_bond_atom_site_label_1
_geom_bond_atom_site_label_2
_geom_bond_site_symmetry_1
_geom_bond_site_symmetry_2
Ag1 N1 1_555 1_555
Ag2 Ag3 1_555 1_555
Ag3 N3 1_555 1_555
Ag4 N4 1_555 1_555
N1 H1 1_555 1_555
H2 N1 1_555 1_555
N2 Ag2 1_555 1_555
H3 N2 1_555 1_555
H4 N2 1_555 1_555
N3 H5 1_555 1_555
H6 N3 1_555 1_555
N4 H7 1_555 1_555
H8 N4 1_555 1_555
C1 N1 1_555 1_555
H9 C1 1_555 1_555
H10 C1 1_555 1_555
C2 N2 1_555 1_555
H11 C2 1_555 1_555
H12 C2 1_555 1_555
C3 N3 1_555 1_555
H13 C3 1_555 1_555
H14 C3 1_555 1_555
C4 N4 1_555 1_555
H15 C4 1_555 1_555
H16 C4 1_555 1_555
N5 O1 1_555 1_555
O2 N5 1_555 1_555
O3 N5 1_555 1_555
N6 O4 1_555 1_555
O5 N6 1_555 1_555
N7 O6 1_555 1_555
O7 N7 1_555 1_555
N1D Ag1 1_555 1_555
H1D N1D 1_555 1_555
H2D N1D 1_555 1_555
N2D H3D 1_555 1_555
H4D N2D 1_555 1_555
C1D N1D 1_555 1_555
H9D C1D 1_555 1_555
H10D C1D 1_555 1_555
C2D N2D 1_555 1_555
H11D C2D 1_555 1_555
H12D C2D 1_555 1_555
N3F Ag3 1_555 1_555
H5F N3F 1_555 1_555
H6F N3F 1_555 1_555
N4F H7F 1_555 1_555
H8F N4F 1_555 1_555
C3F N3F 1_555 1_555
H13F C3F 1_555 1_555
H14F C3F 1_555 1_555
C4F N4F 1_555 1_555
H15F C4F 1_555 1_555
H16F C4F 1_555 1_555
Ag1A Ag1 1_555 1_555
Ag1A_2 Ag1 1_555 1_555
Ag2_2 Ag3 1_555 1_555
Ag2B N2D 1_555 1_555
Ag3_2 Ag2 1_555 1_555
Ag4A Ag4 1_555 1_555
Ag4A_2 Ag4 1_555 1_555
Ag4B N4F 1_555 1_555
N2F Ag2 1_555 1_555
N4D Ag4 1_555 1_555
O4A N6 1_555 1_555
O6A N7 1_555 1_555
C1 C2 1_555 1_555
C3 C4 1_555 1_555
C1D C2D 1_555 1_555
C3F C4F 1_555 1_555

#END
