
#######################################################################
#
#                 Cambridge Crystallographic Data Centre
#                                CCDC 
#
#######################################################################
#
# If this CIF has been generated from an entry in the Cambridge 
# Structural Database, then it will include bibliographic, chemical, 
# crystal, experimental, refinement or atomic coordinate data resulting 
# from the CCDC's data processing and validation procedures.
#
#######################################################################

data_MAGVOG02
_chemical_formula_moiety         '(C2 H8 Ag1 N3 O3)n'
_symmetry_cell_setting           monoclinic
_symmetry_space_group_name_H-M   'C 2/c'
_symmetry_Int_Tables_number      15
_space_group_name_Hall           '-C 2yc'
loop_
_symmetry_equiv_pos_site_id
_symmetry_equiv_pos_as_xyz
1 x,y,z
2 -x,y,1/2-z
3 1/2+x,1/2+y,z
4 1/2-x,1/2+y,1/2-z
5 -x,-y,-z
6 x,-y,1/2+z
7 1/2-x,1/2-y,-z
8 1/2+x,1/2-y,1/2+z
_cell_length_a                   10.451(8)
_cell_length_b                   10.510(9)
_cell_length_c                   6.268(3)
_cell_angle_alpha                90
_cell_angle_beta                 115.08(6)
_cell_angle_gamma                90
_cell_volume                     623.565
loop_
_atom_site_label
_atom_site_type_symbol
_atom_site_fract_x
_atom_site_fract_y
_atom_site_fract_z
Ag1 Ag 0.5000 0.0000 0.5000
C1 C 0.313(2) 0.2085(13) 0.544(2)
H1 H 0.3960 0.2611 0.5801
H2 H 0.3222 0.1689 0.6892
N1 N 0.3111(13) 0.1087(6) 0.3796(14)
H3 H 0.2963 0.1447 0.2409
H4 H 0.2381 0.0560 0.3544
C1F C 0.187(2) 0.2915(13) 0.456(2)
H1F H 0.1040 0.2389 0.4199
H2F H 0.1778 0.3311 0.3108
N1F N 0.1889(13) 0.3913(6) 0.6204(14)
H3F H 0.2037 0.3553 0.7591
H4F H 0.2619 0.4440 0.6456
Ag1A Ag 0.5000 0.0000 0.0000
Ag1A_2 Ag 0.5000 0.0000 1.0000
Ag1B Ag -0.0000 0.5000 0.5000
N1D N 0.6889(13) -0.1087(6) 0.6204(14)
N2 N 0.0000 0.1040(11) 0.7500
O1 O 0.1108(11) 0.1609(12) 0.8569(17)
O2 O 0.0000 -0.0115(11) 0.7500
O1A O -0.1108(11) 0.1609(12) 0.6431(17)
loop_
_geom_bond_atom_site_label_1
_geom_bond_atom_site_label_2
_geom_bond_site_symmetry_1
_geom_bond_site_symmetry_2
Ag1 N1 1_555 1_555
C1 H1 1_555 1_555
H2 C1 1_555 1_555
N1 C1 1_555 1_555
H3 N1 1_555 1_555
H4 N1 1_555 1_555
N2 O1 1_555 1_555
O2 N2 1_555 1_555
C1F C1 1_555 1_555
H1F C1F 1_555 1_555
H2F C1F 1_555 1_555
N1F C1F 1_555 1_555
H3F N1F 1_555 1_555
H4F N1F 1_555 1_555
Ag1A Ag1 1_555 1_555
Ag1A_2 Ag1 1_555 1_555
Ag1B N1F 1_555 1_555
N1D Ag1 1_555 1_555
O1A N2 1_555 1_555

#END
