
#######################################################################
#
#                 Cambridge Crystallographic Data Centre
#                                CCDC 
#
#######################################################################
#
# If this CIF has been generated from an entry in the Cambridge 
# Structural Database, then it will include bibliographic, chemical, 
# crystal, experimental, refinement or atomic coordinate data resulting 
# from the CCDC's data processing and validation procedures.
#
#######################################################################

data_MAGVOG11
_chemical_formula_moiety         '(C8 H32 Ag4 N11 O9 1+)n'
_symmetry_cell_setting           monoclinic
_symmetry_space_group_name_H-M   'C 2/c'
_symmetry_Int_Tables_number      15
_space_group_name_Hall           '-C 2yc'
loop_
_symmetry_equiv_pos_site_id
_symmetry_equiv_pos_as_xyz
1 x,y,z
2 -x,y,1/2-z
3 1/2+x,1/2+y,z
4 1/2-x,1/2+y,1/2-z
5 -x,-y,-z
6 x,-y,1/2+z
7 1/2-x,1/2-y,-z
8 1/2+x,1/2-y,1/2+z
_cell_length_a                   20.796(5)
_cell_length_b                   19.485(5)
_cell_length_c                   5.9720(8)
_cell_angle_alpha                90
_cell_angle_beta                 114.096(17)
_cell_angle_gamma                90
_cell_volume                     2209.05
loop_
_atom_site_label
_atom_site_type_symbol
_atom_site_fract_x
_atom_site_fract_y
_atom_site_fract_z
Ag1 Ag 0.5000 0.0000 0.0000
Ag2 Ag 0.7500 0.2500 0.0000
Ag3 Ag 0.7500 0.2500 0.5000
Ag4 Ag 1.0000 -0.0000 0.5000
N1 N 0.6120(18) 0.0402(11) 0.151(4)
H1 H 0.6281 0.0513 0.3107
H2 H 0.6419 0.0108 0.1262
N2 N 0.652(2) 0.2011(15) -0.120(6)
H3 H 0.6187 0.2299 -0.1125
H4 H 0.6378 0.1862 -0.2755
N3 N 0.8410(7) 0.1961(10) 0.610(3)
H5 H 0.8767 0.2248 0.6280
H6 H 0.8501 0.1766 0.7565
N4 N 0.9068(14) 0.0550(9) 0.381(3)
H7 H 0.8972 0.0719 0.2308
H8 H 0.8715 0.0264 0.3692
C1 C 0.5974(14) 0.1003(10) -0.007(4)
H9 H 0.5619 0.1283 0.0157
H10 H 0.5789 0.0859 -0.1770
C2 C 0.6632(15) 0.1425(11) 0.051(3)
H11 H 0.6793 0.1599 0.2175
H12 H 0.6999 0.1132 0.0434
C3 C 0.8364(7) 0.1430(8) 0.433(3)
H13 H 0.8269 0.1624 0.2727
H14 H 0.8005 0.1094 0.4177
C4 C 0.9094(9) 0.1124(9) 0.548(3)
H15 H 0.9448 0.1458 0.5559
H16 H 0.9196 0.0958 0.7121
N1D N 0.3880(18) -0.0402(11) -0.151(4)
H1D H 0.3719 -0.0513 -0.3107
H2D H 0.3581 -0.0108 -0.1262
N2D N 0.348(2) -0.2011(15) 0.120(6)
H3D H 0.3813 -0.2299 0.1125
H4D H 0.3622 -0.1862 0.2755
C1D C 0.4026(14) -0.1003(10) 0.007(4)
H9D H 0.4381 -0.1283 -0.0157
H10D H 0.4211 -0.0859 0.1770
C2D C 0.3368(15) -0.1425(11) -0.051(3)
H11D H 0.3207 -0.1599 -0.2175
H12D H 0.3001 -0.1132 -0.0434
N3F N 0.6590(7) 0.3039(10) 0.390(3)
H5F H 0.6233 0.2752 0.3720
H6F H 0.6499 0.3234 0.2435
N4F N 0.5932(14) 0.4450(9) 0.619(3)
H7F H 0.6028 0.4281 0.7692
H8F H 0.6285 0.4736 0.6308
C3F C 0.6636(7) 0.3570(8) 0.567(3)
H13F H 0.6731 0.3376 0.7273
H14F H 0.6995 0.3906 0.5823
C4F C 0.5906(9) 0.3876(9) 0.452(3)
H15F H 0.5552 0.3542 0.4441
H16F H 0.5804 0.4042 0.2879
Ag1A Ag 0.5000 0.0000 -0.5000
Ag1A_2 Ag 0.5000 -0.0000 0.5000
Ag2_2 Ag 0.7500 0.2500 1.0000
Ag2B Ag 0.2500 -0.2500 0.0000
Ag3_2 Ag 0.7500 0.2500 -0.5000
Ag4A Ag 1.0000 0.0000 0.0000
Ag4A_2 Ag 1.0000 -0.0000 1.0000
Ag4B Ag 0.5000 0.5000 0.5000
N2F N 0.848(2) 0.2989(15) 0.120(6)
N4D N 1.0932(14) -0.0550(9) 0.619(3)
N5 N 0.7563(9) 0.0674(7) 0.766(3)
O1 O 0.8131(8) 0.0926(9) 0.884(3)
O2 O 0.7078(9) 0.1029(8) 0.643(2)
O3 O 0.7497(12) 0.0060(7) 0.763(5)
N6 N 0.0000 0.3106(4) 0.7500
O4 O 0.0609(4) 0.3384(9) 0.8695(4)
O5 O 0.0000 0.2505(3) 0.7500
O4A O -0.0609(4) 0.3384(9) 0.6305(4)
N7 N 0.0000 0.8206(10) 0.7500
O6 O 0.0518(7) 0.8537(9) 0.871(2)
O7 O 0.0000 0.7569(10) 0.7500
O6A O -0.0518(7) 0.8537(9) 0.629(2)
loop_
_geom_bond_atom_site_label_1
_geom_bond_atom_site_label_2
_geom_bond_site_symmetry_1
_geom_bond_site_symmetry_2
Ag1 N1 1_555 1_555
Ag2 Ag3 1_555 1_555
Ag3 N3 1_555 1_555
Ag4 N4 1_555 1_555
N1 H1 1_555 1_555
H2 N1 1_555 1_555
N2 Ag2 1_555 1_555
H3 N2 1_555 1_555
H4 N2 1_555 1_555
N3 H5 1_555 1_555
H6 N3 1_555 1_555
N4 H7 1_555 1_555
H8 N4 1_555 1_555
C1 N1 1_555 1_555
H9 C1 1_555 1_555
H10 C1 1_555 1_555
C2 N2 1_555 1_555
H11 C2 1_555 1_555
H12 C2 1_555 1_555
C3 N3 1_555 1_555
H13 C3 1_555 1_555
H14 C3 1_555 1_555
C4 N4 1_555 1_555
H15 C4 1_555 1_555
H16 C4 1_555 1_555
N5 O1 1_555 1_555
O2 N5 1_555 1_555
O3 N5 1_555 1_555
N6 O4 1_555 1_555
O5 N6 1_555 1_555
N7 O6 1_555 1_555
O7 N7 1_555 1_555
N1D Ag1 1_555 1_555
H1D N1D 1_555 1_555
H2D N1D 1_555 1_555
N2D H3D 1_555 1_555
H4D N2D 1_555 1_555
C1D N1D 1_555 1_555
H9D C1D 1_555 1_555
H10D C1D 1_555 1_555
C2D N2D 1_555 1_555
H11D C2D 1_555 1_555
H12D C2D 1_555 1_555
N3F Ag3 1_555 1_555
H5F N3F 1_555 1_555
H6F N3F 1_555 1_555
N4F H7F 1_555 1_555
H8F N4F 1_555 1_555
C3F N3F 1_555 1_555
H13F C3F 1_555 1_555
H14F C3F 1_555 1_555
C4F N4F 1_555 1_555
H15F C4F 1_555 1_555
H16F C4F 1_555 1_555
Ag1A Ag1 1_555 1_555
Ag1A_2 Ag1 1_555 1_555
Ag2_2 Ag3 1_555 1_555
Ag2B N2D 1_555 1_555
Ag3_2 Ag2 1_555 1_555
Ag4A Ag4 1_555 1_555
Ag4A_2 Ag4 1_555 1_555
Ag4B N4F 1_555 1_555
N2F Ag2 1_555 1_555
N4D Ag4 1_555 1_555
O4A N6 1_555 1_555
O6A N7 1_555 1_555
C1 C2 1_555 1_555
C3 C4 1_555 1_555
C1D C2D 1_555 1_555
C3F C4F 1_555 1_555

#END
