
#######################################################################
#
#                 Cambridge Crystallographic Data Centre
#                                CCDC 
#
#######################################################################
#
# If this CIF has been generated from an entry in the Cambridge 
# Structural Database, then it will include bibliographic, chemical, 
# crystal, experimental, refinement or atomic coordinate data resulting 
# from the CCDC's data processing and validation procedures.
#
#######################################################################

data_MAGVOG16
_chemical_formula_moiety         '(C2 H8 Ag1 N3 O3)n'
_symmetry_cell_setting           monoclinic
_symmetry_space_group_name_H-M   'C 2/c'
_symmetry_Int_Tables_number      15
_space_group_name_Hall           '-C 2yc'
loop_
_symmetry_equiv_pos_site_id
_symmetry_equiv_pos_as_xyz
1 x,y,z
2 -x,y,1/2-z
3 1/2+x,1/2+y,z
4 1/2-x,1/2+y,1/2-z
5 -x,-y,-z
6 x,-y,1/2+z
7 1/2-x,1/2-y,-z
8 1/2+x,1/2-y,1/2+z
_cell_length_a                   10.4402(3)
_cell_length_b                   10.5130(2)
_cell_length_c                   6.3021(2)
_cell_angle_alpha                90
_cell_angle_beta                 115.217(4)
_cell_angle_gamma                90
_cell_volume                     625.786
loop_
_atom_site_label
_atom_site_type_symbol
_atom_site_fract_x
_atom_site_fract_y
_atom_site_fract_z
Ag1 Ag 0.5000 0.0000 0.5000
C1 C 0.3160(3) 0.2103(3) 0.5460(5)
H1 H 0.3970 0.2651 0.5787
H2 H 0.3276 0.1712 0.6925
N1 N 0.3136(2) 0.1106(2) 0.3817(4)
H3 H 0.2997 0.1471 0.2444
H4 H 0.2396 0.0587 0.3548
C1F C 0.1840(3) 0.2897(3) 0.4540(5)
H1F H 0.1030 0.2349 0.4213
H2F H 0.1724 0.3288 0.3075
N1F N 0.1864(2) 0.3894(2) 0.6183(4)
H3F H 0.2003 0.3529 0.7556
H4F H 0.2604 0.4413 0.6452
Ag1A Ag 0.5000 0.0000 0.0000
Ag1A_2 Ag 0.5000 0.0000 1.0000
Ag1B Ag 0.0000 0.5000 0.5000
N1D N 0.6864(2) -0.1106(2) 0.6183(4)
N2 N -0.0000 0.1093(4) 0.7500
O1 O 0.1102(3) 0.1635(4) 0.8592(5)
O2 O -0.0000 -0.0070(4) 0.7500
O1A O -0.1102(3) 0.1635(4) 0.6408(5)
loop_
_geom_bond_atom_site_label_1
_geom_bond_atom_site_label_2
_geom_bond_site_symmetry_1
_geom_bond_site_symmetry_2
Ag1 N1 1_555 1_555
C1 H1 1_555 1_555
H2 C1 1_555 1_555
N1 C1 1_555 1_555
H3 N1 1_555 1_555
H4 N1 1_555 1_555
N2 O1 1_555 1_555
O2 N2 1_555 1_555
C1F C1 1_555 1_555
H1F C1F 1_555 1_555
H2F C1F 1_555 1_555
N1F C1F 1_555 1_555
H3F N1F 1_555 1_555
H4F N1F 1_555 1_555
Ag1A Ag1 1_555 1_555
Ag1A_2 Ag1 1_555 1_555
Ag1B N1F 1_555 1_555
N1D Ag1 1_555 1_555
O1A N2 1_555 1_555

#END
