
#######################################################################
#
#                 Cambridge Crystallographic Data Centre
#                                CCDC 
#
#######################################################################
#
# If this CIF has been generated from an entry in the Cambridge 
# Structural Database, then it will include bibliographic, chemical, 
# crystal, experimental, refinement or atomic coordinate data resulting 
# from the CCDC's data processing and validation procedures.
#
#######################################################################

data_MAGVOG09
_chemical_formula_moiety         '(C8 H32 Ag4 N11 O9 1+)n'
_symmetry_cell_setting           monoclinic
_symmetry_space_group_name_H-M   'C 2/c'
_symmetry_Int_Tables_number      15
_space_group_name_Hall           '-C 2yc'
loop_
_symmetry_equiv_pos_site_id
_symmetry_equiv_pos_as_xyz
1 x,y,z
2 -x,y,1/2-z
3 1/2+x,1/2+y,z
4 1/2-x,1/2+y,1/2-z
5 -x,-y,-z
6 x,-y,1/2+z
7 1/2-x,1/2-y,-z
8 1/2+x,1/2-y,1/2+z
_cell_length_a                   20.862(5)
_cell_length_b                   19.682(4)
_cell_length_c                   6.0890(8)
_cell_angle_alpha                90
_cell_angle_beta                 114.271(17)
_cell_angle_gamma                90
_cell_volume                     2279.19
loop_
_atom_site_label
_atom_site_type_symbol
_atom_site_fract_x
_atom_site_fract_y
_atom_site_fract_z
Ag1 Ag 0.5000 0.0000 0.0000
Ag2 Ag 0.7500 0.2500 0.0000
Ag3 Ag 0.7500 0.2500 0.5000
Ag4 Ag 1.0000 -0.0000 0.5000
N1 N 0.6116(15) 0.0470(9) 0.141(4)
H1 H 0.6263 0.0615 0.2940
H2 H 0.6432 0.0176 0.1296
N2 N 0.6509(8) 0.2021(15) -0.146(5)
H3 H 0.6167 0.2298 -0.1450
H4 H 0.6399 0.1875 -0.2976
N3 N 0.8543(14) 0.1974(8) 0.635(2)
H5 H 0.8885 0.2263 0.6414
H6 H 0.8655 0.1798 0.7823
N4 N 0.9104(15) 0.0578(9) 0.379(3)
H7 H 0.9048 0.0786 0.2407
H8 H 0.8728 0.0309 0.3489
C1 C 0.5982(9) 0.1032(6) -0.027(2)
H9 H 0.5621 0.1322 -0.0151
H10 H 0.5807 0.0856 -0.1897
C2 C 0.6636(7) 0.1444(10) 0.025(2)
H11 H 0.6809 0.1620 0.1877
H12 H 0.6997 0.1152 0.0145
C3 C 0.8447(8) 0.1440(6) 0.459(2)
H13 H 0.8347 0.1627 0.3007
H14 H 0.8073 0.1132 0.4481
C4 C 0.9153(10) 0.1093(8) 0.564(3)
H15 H 0.9530 0.1414 0.5876
H16 H 0.9235 0.0879 0.7163
N1D N 0.3884(15) -0.0470(9) -0.141(4)
H1D H 0.3737 -0.0615 -0.2940
H2D H 0.3568 -0.0176 -0.1296
N2D N 0.3491(8) -0.2021(15) 0.146(5)
H3D H 0.3833 -0.2298 0.1450
H4D H 0.3601 -0.1875 0.2976
C1D C 0.4018(9) -0.1032(6) 0.027(2)
H9D H 0.4379 -0.1322 0.0151
H10D H 0.4193 -0.0856 0.1897
C2D C 0.3364(7) -0.1444(10) -0.025(2)
H11D H 0.3191 -0.1620 -0.1877
H12D H 0.3003 -0.1152 -0.0145
N3F N 0.6457(14) 0.3026(8) 0.365(2)
H5F H 0.6115 0.2737 0.3586
H6F H 0.6345 0.3202 0.2177
N4F N 0.5896(15) 0.4422(9) 0.621(3)
H7F H 0.5952 0.4214 0.7593
H8F H 0.6272 0.4691 0.6511
C3F C 0.6553(8) 0.3560(6) 0.541(2)
H13F H 0.6653 0.3373 0.6993
H14F H 0.6927 0.3868 0.5519
C4F C 0.5847(10) 0.3907(8) 0.436(3)
H15F H 0.5470 0.3586 0.4124
H16F H 0.5765 0.4121 0.2837
Ag1A Ag 0.5000 0.0000 -0.5000
Ag1A_2 Ag 0.5000 -0.0000 0.5000
Ag2_2 Ag 0.7500 0.2500 1.0000
Ag2B Ag 0.2500 -0.2500 0.0000
Ag3_2 Ag 0.7500 0.2500 -0.5000
Ag4A Ag 1.0000 0.0000 0.0000
Ag4A_2 Ag 1.0000 -0.0000 1.0000
Ag4B Ag 0.5000 0.5000 0.5000
N2F N 0.8491(8) 0.2979(15) 0.146(5)
N4D N 1.0896(15) -0.0578(9) 0.621(3)
N5 N 0.7478(11) 0.0660(11) 0.731(3)
O1 O 0.8021(12) 0.0932(13) 0.855(3)
O2 O 0.6949(12) 0.0982(12) 0.636(3)
O3 O 0.7451(14) 0.0043(11) 0.723(4)
N6 N 0.0000 0.3163(3) 0.7500
O4 O 0.0561(6) 0.3451(12) 0.8458(4)
O5 O 0.0000 0.2548(3) 0.7500
O4A O -0.0561(6) 0.3451(12) 0.6542(4)
N7 N 0.0000 0.8256(12) 0.7500
O6 O 0.0543(6) 0.8552(11) 0.864(3)
O7 O 0.0000 0.7640(11) 0.7500
O6A O -0.0543(6) 0.8552(11) 0.636(3)
loop_
_geom_bond_atom_site_label_1
_geom_bond_atom_site_label_2
_geom_bond_site_symmetry_1
_geom_bond_site_symmetry_2
Ag1 N1 1_555 1_555
Ag2 Ag3 1_555 1_555
Ag3 N3 1_555 1_555
Ag4 N4 1_555 1_555
N1 H1 1_555 1_555
H2 N1 1_555 1_555
N2 Ag2 1_555 1_555
H3 N2 1_555 1_555
H4 N2 1_555 1_555
N3 H5 1_555 1_555
H6 N3 1_555 1_555
N4 H7 1_555 1_555
H8 N4 1_555 1_555
C1 N1 1_555 1_555
H9 C1 1_555 1_555
H10 C1 1_555 1_555
C2 N2 1_555 1_555
H11 C2 1_555 1_555
H12 C2 1_555 1_555
C3 N3 1_555 1_555
H13 C3 1_555 1_555
H14 C3 1_555 1_555
C4 N4 1_555 1_555
H15 C4 1_555 1_555
H16 C4 1_555 1_555
N5 O1 1_555 1_555
O2 N5 1_555 1_555
O3 N5 1_555 1_555
N6 O4 1_555 1_555
O5 N6 1_555 1_555
N7 O6 1_555 1_555
O7 N7 1_555 1_555
N1D Ag1 1_555 1_555
H1D N1D 1_555 1_555
H2D N1D 1_555 1_555
N2D H3D 1_555 1_555
H4D N2D 1_555 1_555
C1D N1D 1_555 1_555
H9D C1D 1_555 1_555
H10D C1D 1_555 1_555
C2D N2D 1_555 1_555
H11D C2D 1_555 1_555
H12D C2D 1_555 1_555
N3F Ag3 1_555 1_555
H5F N3F 1_555 1_555
H6F N3F 1_555 1_555
N4F H7F 1_555 1_555
H8F N4F 1_555 1_555
C3F N3F 1_555 1_555
H13F C3F 1_555 1_555
H14F C3F 1_555 1_555
C4F N4F 1_555 1_555
H15F C4F 1_555 1_555
H16F C4F 1_555 1_555
Ag1A Ag1 1_555 1_555
Ag1A_2 Ag1 1_555 1_555
Ag2_2 Ag3 1_555 1_555
Ag2B N2D 1_555 1_555
Ag3_2 Ag2 1_555 1_555
Ag4A Ag4 1_555 1_555
Ag4A_2 Ag4 1_555 1_555
Ag4B N4F 1_555 1_555
N2F Ag2 1_555 1_555
N4D Ag4 1_555 1_555
O4A N6 1_555 1_555
O6A N7 1_555 1_555
C1 C2 1_555 1_555
C3 C4 1_555 1_555
C1D C2D 1_555 1_555
C3F C4F 1_555 1_555

#END
