
#######################################################################
#
#                 Cambridge Crystallographic Data Centre
#                                CCDC 
#
#######################################################################
#
# If this CIF has been generated from an entry in the Cambridge 
# Structural Database, then it will include bibliographic, chemical, 
# crystal, experimental, refinement or atomic coordinate data resulting 
# from the CCDC's data processing and validation procedures.
#
#######################################################################

data_UMUXAC
_chemical_formula_moiety         '(C18 H36 Cu7 I7 N6)n'
_symmetry_cell_setting           hexagonal
_symmetry_space_group_name_H-M   'P 64 2 2'
_symmetry_Int_Tables_number      181
_space_group_name_Hall           'P 64 2 (0 0 2)'
loop_
_symmetry_equiv_pos_site_id
_symmetry_equiv_pos_as_xyz
1 x,y,z
2 x-y,x,2/3+z
3 -y,x-y,1/3+z
4 -x,-y,z
5 -x+y,-x,2/3+z
6 y,-x+y,1/3+z
7 -y,-x,1/3-z
8 x-y,-y,-z
9 x,x-y,2/3-z
10 y,x,1/3-z
11 -x+y,y,-z
12 -x,-x+y,2/3-z
_cell_length_a                   17.5949(3)
_cell_length_b                   17.5949(3)
_cell_length_c                   22.5436(13)
_cell_angle_alpha                90
_cell_angle_beta                 90
_cell_angle_gamma                120
_cell_volume                     6044.04
loop_
_atom_site_label
_atom_site_type_symbol
_atom_site_fract_x
_atom_site_fract_y
_atom_site_fract_z
_atom_site_U_iso_or_equiv
_atom_site_thermal_displace_type
I1 I 0.17742(4) 0.31750(4) 0.10123(3) 0.0257 Uani
I2 I 0.13621(4) 0.52052(4) 0.02962(3) 0.0255 Uani
I3 I -0.37525(4) -0.01360(4) 0.10405(3) 0.0272 Uani
I4 I -0.40992(3) 0.18017(5) 0.0000 0.0271 Uani
Cu1 Cu -0.5000 0.0000 0.05607(9) 0.0957 Uani
Cu2 Cu -0.33428(7) 0.08386(7) 0.00828(5) 0.0272 Uani
Cu3 Cu 0.25914(7) 0.48107(7) 0.05638(5) 0.0274 Uani
Cu4 Cu 0.10575(7) 0.35728(7) 0.01123(5) 0.0275 Uani
N1 N -0.0293(4) 0.2745(4) 0.0139(3) 0.0222 Uani
N2 N -0.1979(4) 0.1683(4) 0.0132(3) 0.0217 Uani
N3 N 0.3367(5) 0.5614(5) 0.1251(3) 0.0251 Uani
C1 C 0.4042(6) 0.5387(6) 0.1411(4) 0.0351 Uani
H1 H 0.4409 0.5468 0.1068 0.0430 Uiso
H2 H 0.3759 0.4774 0.1525 0.0430 Uiso
C2 C 0.2857(6) 0.5553(6) 0.1785(4) 0.0311 Uani
H3 H 0.2566 0.4956 0.1934 0.0370 Uiso
H4 H 0.2409 0.5699 0.1684 0.0370 Uiso
C3 C -0.0699(6) 0.2814(6) 0.0699(5) 0.0337 Uani
H5 H -0.0548 0.3419 0.0760 0.0400 Uiso
H6 H -0.0465 0.2641 0.1029 0.0400 Uiso
C4 C -0.0517(5) 0.1813(5) 0.0088(4) 0.0263 Uani
H7 H -0.0237 0.1674 0.0407 0.0320 Uiso
H8 H -0.0293 0.1729 -0.0285 0.0320 Uiso
C5 C -0.0704(6) 0.2940(6) -0.0352(4) 0.0296 Uani
H9 H -0.0433 0.2917 -0.0721 0.0360 Uiso
H10 H -0.0609 0.3529 -0.0306 0.0360 Uiso
C6 C -0.1703(6) 0.2277(6) -0.0377(5) 0.0338 Uani
H11 H -0.2023 0.2593 -0.0379 0.0410 Uiso
H12 H -0.1840 0.1939 -0.0741 0.0410 Uiso
C7 C -0.1505(5) 0.1195(5) 0.0115(4) 0.0264 Uani
H13 H -0.1692 0.0813 -0.0229 0.0320 Uiso
H14 H -0.1648 0.0830 0.0467 0.0320 Uiso
C8 C 0.3815(7) 0.6541(6) 0.1059(4) 0.0342 Uani
H15 H 0.3383 0.6714 0.0973 0.0410 Uiso
H16 H 0.4144 0.6607 0.0698 0.0410 Uiso
C9 C -0.1701(6) 0.2228(6) 0.0682(4) 0.0331 Uani
H17 H -0.1895 0.1848 0.1028 0.0400 Uiso
H18 H -0.1972 0.2591 0.0694 0.0400 Uiso
I1J I 0.14008(6) 0.31750(4) -0.10123(3) 0.0257 Uani
I1C I -1.17742(4) -0.31750(4) 0.10123(3) 0.0257 Uani
I1G I -1.14008(6) -0.31750(4) -0.10123(3) 0.0257 Uani
I2C I -1.13621(4) -0.52052(4) 0.02962(3) 0.0255 Uani
I2J I 0.38431(6) 0.52052(4) -0.02962(3) 0.0255 Uani
I3C I -0.62475(4) 0.01360(4) 0.10405(3) 0.0272 Uani
I3G I -0.36165(6) 0.01360(4) -0.10405(3) 0.0272 Uani
I3J I -0.63835(6) -0.01360(4) -0.10405(3) 0.0272 Uani
I4G I -0.59009(6) -0.18017(5) 0.0000 0.0271 Uani
Cu1G Cu -0.5000 -0.0000 -0.05607(9) 0.0957 Uani
Cu2C Cu -0.66572(7) -0.08386(7) 0.00828(5) 0.0272 Uani
Cu2G Cu -0.41814(10) -0.08386(7) -0.00828(5) 0.0272 Uani
Cu2J Cu -0.58186(10) 0.08386(7) -0.00828(5) 0.0272 Uani
Cu3J Cu 0.22193(10) 0.48107(7) -0.05638(5) 0.0274 Uani
Cu3F Cu 0.51893(7) 0.74086(7) 0.27695(5) 0.0274 Uani
Cu3G Cu -1.22193(10) -0.48107(7) -0.05638(5) 0.0274 Uani
Cu3C Cu -1.25914(7) -0.48107(7) 0.05638(5) 0.0274 Uani
Cu4C Cu -1.10575(7) -0.35728(7) 0.01123(5) 0.0275 Uani
Cu4J Cu 0.25153(10) 0.35728(7) -0.01123(5) 0.0275 Uani
N1C N -0.9707(4) -0.2745(4) 0.0139(3) 0.0222 Uani
N2C N -0.8021(4) -0.1683(4) 0.0132(3) 0.0217 Uani
N3F N 0.4386(5) 0.6633(5) 0.2082(3) 0.0251 Uani
N3J N 0.2247(7) 0.5614(5) -0.1251(3) 0.0251 Uani
C1F C 0.4613(6) 0.5958(6) 0.1922(4) 0.0351 Uani
H1F H 0.4532 0.5591 0.2265 0.0430 Uiso
H2F H 0.5226 0.6241 0.1808 0.0430 Uiso
C2F C 0.4447(6) 0.7143(6) 0.1548(4) 0.0311 Uani
H3F H 0.5044 0.7434 0.1399 0.0370 Uiso
H4F H 0.4301 0.7591 0.1649 0.0370 Uiso
C3C C -0.9301(6) -0.2814(6) 0.0699(5) 0.0337 Uani
H5C H -0.9452 -0.3419 0.0760 0.0400 Uiso
H6C H -0.9535 -0.2641 0.1029 0.0400 Uiso
C4C C -0.9483(5) -0.1813(5) 0.0088(4) 0.0263 Uani
H7C H -0.9763 -0.1674 0.0407 0.0320 Uiso
H8C H -0.9707 -0.1729 -0.0285 0.0320 Uiso
C5C C -0.9296(6) -0.2940(6) -0.0352(4) 0.0296 Uani
H9C H -0.9567 -0.2917 -0.0721 0.0360 Uiso
H10C H -0.9391 -0.3529 -0.0306 0.0360 Uiso
C6C C -0.8297(6) -0.2277(6) -0.0377(5) 0.0338 Uani
H11C H -0.7977 -0.2593 -0.0379 0.0410 Uiso
H12C H -0.8160 -0.1939 -0.0741 0.0410 Uiso
C7C C -0.8495(5) -0.1195(5) 0.0115(4) 0.0264 Uani
H13C H -0.8308 -0.0813 -0.0229 0.0320 Uiso
H14C H -0.8352 -0.0830 0.0467 0.0320 Uiso
C8F C 0.3459(6) 0.6185(7) 0.2274(4) 0.0342 Uani
H15F H 0.3286 0.6617 0.2360 0.0410 Uiso
H16F H 0.3393 0.5856 0.2635 0.0410 Uiso
C9C C -0.8299(6) -0.2228(6) 0.0682(4) 0.0331 Uani
H17C H -0.8105 -0.1848 0.1028 0.0400 Uiso
H18C H -0.8028 -0.2591 0.0694 0.0400 Uiso
loop_
_atom_site_aniso_label
_atom_site_aniso_U_11
_atom_site_aniso_U_22
_atom_site_aniso_U_33
_atom_site_aniso_U_23
_atom_site_aniso_U_13
_atom_site_aniso_U_12
I1 0.0255(3) 0.0231(3) 0.0279(3) 0.0037(3) 0.0001(3) 0.0117(2)
I2 0.0278 0.0229 0.0287 0.0002 -0.0001 0.0148
I3 0.0289(3) 0.0286(3) 0.0235(3) -0.0003(2) -0.0026(3) 0.0140(3)
I4 0.0209(3) 0.0207(4) 0.0397(5) 0.000 0.0027(3) 0.0104(2)
Cu1 0.0637(15) 0.231(4) 0.0328(11) 0.000 0.000 0.104(2)
Cu2 0.0215(5) 0.0229(6) 0.0338(6) 0.0003(5) -0.0018(5) 0.0086(5)
Cu3 0.0268(6) 0.0242(6) 0.0264(6) -0.0025(5) -0.0061(5) 0.0092(5)
Cu4 0.0189(5) 0.0230(6) 0.0372(7) -0.0002(5) -0.0030(5) 0.0079(5)
N1 0.019(4) 0.018(4) 0.028(4) -0.005(3) -0.003(3) 0.008(3)
N2 0.018(4) 0.018(4) 0.025(4) 0.002(3) 0.000(3) 0.006(3)
N3 0.022(4) 0.024(4) 0.026(4) -0.004(3) 0.001(3) 0.009(3)
C1 0.038(6) 0.037(6) 0.036(6) -0.009(5) -0.013(5) 0.023(5)
C2 0.026(5) 0.033(5) 0.020(5) -0.002(4) -0.002(4) 0.004(4)
C3 0.024(5) 0.031(5) 0.041(6) -0.004(5) -0.005(4) 0.010(4)
C4 0.024(5) 0.017(4) 0.039(6) -0.004(4) -0.005(4) 0.011(4)
C5 0.025(5) 0.024(5) 0.038(5) 0.006(4) -0.002(4) 0.011(4)
C6 0.018(5) 0.037(5) 0.044(6) 0.012(5) -0.004(4) 0.012(4)
C7 0.018(4) 0.022(4) 0.038(6) -0.006(4) -0.006(4) 0.009(4)
C8 0.038(6) 0.027(5) 0.032(5) 0.005(4) 0.005(5) 0.012(5)
C9 0.023(5) 0.038(5) 0.026(5) -0.004(4) 0.004(4) 0.006(4)
I1J 0.0252 0.0231 0.0279 -0.0037 -0.0036 0.0114
I1C 0.0255 0.0231 0.0279 -0.0037 -0.0001 0.0117
I1G 0.0252 0.0231 0.0279 0.0037 0.0036 0.0114
I2C 0.0278 0.0229 0.0287 -0.0002 0.0001 0.0148
I2J 0.0211(3) 0.0229(3) 0.0287(3) -0.0002(2) -0.0003(2) 0.0081(2)
I3C 0.0289 0.0286 0.0235 0.0003 0.0026 0.014
I3G 0.0295 0.0286 0.0235 -0.0003 0.0023 0.0146
I3J 0.0295 0.0286 0.0235 0.0003 -0.0023 0.0146
I4G 0.0209 0.0207 0.0397 0 -0.0027 0.0104
Cu1G 0.0867 0.231 0.0328 0 0 0.127
Cu2C 0.0215 0.0229 0.0338 -0.0003 0.0018 0.0086
Cu2G 0.0272 0.0229 0.0338 0.0003 0.0021 0.0143
Cu2J 0.0272 0.0229 0.0338 -0.0003 -0.0021 0.0143
Cu3J 0.0326 0.0242 0.0264 0.0025 -0.0036 0.015
Cu3F 0.0242 0.0268 0.0264 -0.0061 -0.0025 0.0092
Cu3G 0.0326 0.0242 0.0264 -0.0025 0.0036 0.015
Cu3C 0.0268 0.0242 0.0264 0.0025 0.0061 0.0092
Cu4C 0.0189 0.023 0.0372 0.0002 0.003 0.0079
Cu4J 0.0261 0.023 0.0372 0.0002 -0.0028 0.0151
N1C 0.019 0.018 0.028 0.005 0.003 0.008
N2C 0.018 0.018 0.025 -0.002 0 0.006
N3F 0.024 0.022 0.026 0.001 -0.004 0.009
N3J 0.028 0.024 0.026 0.004 0.005 0.015
C1F 0.037 0.038 0.036 -0.013 -0.009 0.023
C2F 0.033 0.026 0.02 -0.002 -0.002 0.004
C3C 0.024 0.031 0.041 0.004 0.005 0.01
C4C 0.024 0.017 0.039 0.004 0.005 0.011
C5C 0.025 0.024 0.038 -0.006 0.002 0.011
C6C 0.018 0.037 0.044 -0.012 0.004 0.012
C7C 0.018 0.022 0.038 0.006 0.006 0.009
C8F 0.027 0.038 0.032 0.005 0.005 0.012
C9C 0.023 0.038 0.026 0.004 -0.004 0.006
loop_
_geom_bond_atom_site_label_1
_geom_bond_atom_site_label_2
_geom_bond_site_symmetry_1
_geom_bond_site_symmetry_2
I1 Cu3 1_555 1_555
I2 Cu3 1_555 1_555
I3 Cu1 1_555 1_555
I4 Cu1 1_555 1_555
Cu1 I3C 1_555 1_555
Cu2 I3 1_555 1_555
Cu3 N3 1_555 1_555
Cu4 I1 1_555 1_555
N1 Cu4 1_555 1_555
N2 Cu2 1_555 1_555
N3 C1 1_555 1_555
C1 H1 1_555 1_555
H2 C1 1_555 1_555
C2 N3 1_555 1_555
H3 C2 1_555 1_555
H4 C2 1_555 1_555
C3 N1 1_555 1_555
H5 C3 1_555 1_555
H6 C3 1_555 1_555
C4 N1 1_555 1_555
H7 C4 1_555 1_555
H8 C4 1_555 1_555
C5 N1 1_555 1_555
H9 C5 1_555 1_555
H10 C5 1_555 1_555
C6 N2 1_555 1_555
H11 C6 1_555 1_555
H12 C6 1_555 1_555
C7 N2 1_555 1_555
H13 C7 1_555 1_555
H14 C7 1_555 1_555
C8 N3 1_555 1_555
H15 C8 1_555 1_555
H16 C8 1_555 1_555
C9 N2 1_555 1_555
H17 C9 1_555 1_555
H18 C9 1_555 1_555
I1J Cu4 1_555 1_555
I1C Cu3C 1_555 1_555
I1G Cu3G 1_555 1_555
I2C Cu3G 1_555 1_555
I2J Cu3 1_555 1_555
I3C Cu2C 1_555 1_555
I3G Cu2 1_555 1_555
I3J Cu1G 1_555 1_555
I4G Cu1 1_555 1_555
Cu1G I4 1_555 1_555
Cu2C I3J 1_555 1_555
Cu2G I3 1_555 1_555
Cu2J I4 1_555 1_555
Cu3J I2 1_555 1_555
Cu3F N3F 1_555 1_555
Cu3C I2C 1_555 1_555
Cu4C I1C 1_555 1_555
Cu4J I1 1_555 1_555
N1C Cu4C 1_555 1_555
N2C Cu2C 1_555 1_555
N3F C1F 1_555 1_555
N3J Cu3J 1_555 1_555
C1F C1 1_555 1_555
H1F C1F 1_555 1_555
H2F C1F 1_555 1_555
C2F C8 1_555 1_555
H3F C2F 1_555 1_555
H4F C2F 1_555 1_555
C3C N1C 1_555 1_555
H5C C3C 1_555 1_555
H6C C3C 1_555 1_555
C4C N1C 1_555 1_555
H7C C4C 1_555 1_555
H8C C4C 1_555 1_555
C5C N1C 1_555 1_555
H9C C5C 1_555 1_555
H10C C5C 1_555 1_555
C6C N2C 1_555 1_555
H11C C6C 1_555 1_555
H12C C6C 1_555 1_555
C7C N2C 1_555 1_555
H13C C7C 1_555 1_555
H14C C7C 1_555 1_555
C8F C2 1_555 1_555
H15F C8F 1_555 1_555
H16F C8F 1_555 1_555
C9C N2C 1_555 1_555
H17C C9C 1_555 1_555
H18C C9C 1_555 1_555
I2 Cu4 1_555 1_555
I4 Cu2 1_555 1_555
C3 C9 1_555 1_555
C4 C7 1_555 1_555
C5 C6 1_555 1_555
I1J Cu3J 1_555 1_555
I1J Cu4J 1_555 1_555
I1G Cu4C 1_555 1_555
I2C Cu4C 1_555 1_555
I2J Cu3J 1_555 1_555
I2J Cu4J 1_555 1_555
I3C Cu2J 1_555 1_555
I3G Cu1G 1_555 1_555
I3G Cu2G 1_555 1_555
I3J Cu2J 1_555 1_555
I4G Cu1G 1_555 1_555
I4G Cu2C 1_555 1_555
I4G Cu2G 1_555 1_555
N3F C2F 1_555 1_555
N3F C8F 1_555 1_555
C3C C9C 1_555 1_555
C4C C7C 1_555 1_555
C5C C6C 1_555 1_555

#END
