
#######################################################################
#
#                 Cambridge Crystallographic Data Centre
#                                CCDC 
#
#######################################################################
#
# If this CIF has been generated from an entry in the Cambridge 
# Structural Database, then it will include bibliographic, chemical, 
# crystal, experimental, refinement or atomic coordinate data resulting 
# from the CCDC's data processing and validation procedures.
#
#######################################################################

data_WOHSIV
_chemical_formula_moiety         '(C38 H31 Cu2 N6 Na1 O7)n'
_symmetry_cell_setting           orthorhombic
_symmetry_space_group_name_H-M   'P 21 21 21'
_symmetry_Int_Tables_number      19
_space_group_name_Hall           'P 2ac 2ab'
loop_
_symmetry_equiv_pos_site_id
_symmetry_equiv_pos_as_xyz
1 x,y,z
2 1/2-x,-y,1/2+z
3 1/2+x,1/2-y,-z
4 -x,1/2+y,1/2-z
_cell_length_a                   8.975(9)
_cell_length_b                   19.243(3)
_cell_length_c                   21.130(7)
_cell_angle_alpha                90
_cell_angle_beta                 90
_cell_angle_gamma                90
_cell_volume                     3649.28
loop_
_atom_site_label
_atom_site_type_symbol
_atom_site_fract_x
_atom_site_fract_y
_atom_site_fract_z
Cu1 Cu 0.9916(3) -0.0799(1) -1.41019(9)
Cu2 Cu 1.2963(2) -0.1746(1) -1.3625(1)
Na1 Na 0.8640(9) -0.0049(3) -1.6646(3)
O1 O 1.148(1) -0.1456(5) -1.4193(5)
O2 O 0.843(1) 0.0351(7) -1.5607(6)
O3 O 0.822(2) -0.0370(7) -1.2362(6)
O4 O 1.468(2) -0.0397(7) -1.2332(6)
O5 O 1.357(2) -0.3796(6) -1.3322(6)
N1 N 0.982(2) -0.0420(7) -1.4993(6)
N2 N 0.847(1) -0.0082(7) -1.3994(6)
N3 N 0.938(2) -0.0959(7) -1.3182(6)
N4 N 1.354(2) -0.0817(7) -1.3226(6)
N5 N 1.425(2) -0.2071(8) -1.2958(6)
N6 N 1.315(2) -0.2752(7) -1.3859(6)
C1 C 1.093(2) -0.055(1) -1.5473(8)
C2 C 1.174(3) 0.000(1) -1.575(1)
C3 C 1.281(3) -0.015(1) -1.619(1)
C4 C 1.307(3) -0.084(1) -1.637(1)
C5 C 1.226(2) -0.135(1) -1.612(1)
C6 C 1.122(2) -0.123(1) -1.5685(9)
C7 C 0.879(2) 0.0061(8) -1.5095(9)
C8 C 0.801(2) 0.0254(8) -1.4513(8)
C9 C 0.692(2) 0.079(1) -1.4449(8)
C10 C 0.634(3) 0.088(1) -1.386(1)
C11 C 0.685(2) 0.055(1) -1.3342(9)
C12 C 0.792(2) 0.0036(9) -1.3415(8)
C13 C 0.853(2) -0.0455(9) -1.2929(7)
C14 C 0.997(3) -0.1475(9) -1.2764(8)
C15 C 1.056(3) -0.136(1) -1.218(1)
C16 C 1.116(3) -0.188(1) -1.183(1)
C17 C 1.118(3) -0.255(1) -1.206(1)
C18 C 1.060(2) -0.268(1) -1.265(1)
C19 C 1.003(3) -0.2157(9) -1.2998(8)
C20 C 1.293(2) -0.0151(8) -1.3401(8)
C21 C 1.219(3) 0.0268(9) -1.2977(9)
C22 C 1.159(3) 0.088(1) -1.317(1)
C23 C 1.165(3) 0.1101(9) -1.380(1)
C24 C 1.233(3) 0.068(1) -1.4216(9)
C25 C 1.292(3) 0.0060(9) -1.4020(8)
C26 C 1.430(2) -0.085(1) -1.2702(8)
C27 C 1.489(3) -0.1598(8) -1.2571(8)
C28 C 1.582(3) -0.181(1) -1.212(1)
C29 C 1.613(3) -0.250(1) -1.206(1)
C30 C 1.544(2) -0.2995(9) -1.247(1)
C31 C 1.449(2) -0.2744(9) -1.2897(9)
C32 C 1.368(2) -0.3154(8) -1.3402(9)
C33 C 1.241(2) -0.3073(8) -1.4394(9)
C34 C 1.274(2) -0.2827(8) -1.4974(9)
C35 C 1.211(3) -0.313(1) -1.5518(9)
C36 C 1.107(2) -0.365(1) -1.548(1)
C37 C 1.072(3) -0.388(1) -1.487(1)
C38 C 1.134(2) -0.361(1) -1.433(1)
H1 H 1.15204 -0.16923 -1.46059
H2 H 1.14903 0.04656 -1.56245
H3 H 1.35191 0.02103 -1.63442
H4 H 1.37271 -0.09339 -1.67177
H5 H 1.25180 -0.18449 -1.62603
H6 H 1.06527 -0.16418 -1.55168
H7 H 0.65949 0.10712 -1.48083
H8 H 0.55629 0.12600 -1.38010
H9 H 0.65425 0.06942 -1.29092
H10 H 1.03497 -0.09191 -1.19782
H11 H 1.16100 -0.17921 -1.13986
H12 H 1.15800 -0.29271 -1.18022
H13 H 1.05986 -0.31626 -1.28001
H14 H 0.96501 -0.22732 -1.34109
H15 H 1.62060 -0.14707 -1.17836
H16 H 1.68867 -0.26711 -1.17501
H17 H 1.55731 -0.34930 -1.24211
H18 H 1.21877 0.01227 -1.25069
H19 H 1.11085 0.12041 -1.28597
H20 H 1.11536 0.15426 -1.39196
H21 H 1.23757 0.08199 -1.46555
H22 H 1.34034 -0.02608 -1.43231
H23 H 1.33873 -0.24363 -1.50284
H24 H 1.23756 -0.29867 -1.59429
H25 H 1.06021 -0.38296 -1.58688
H26 H 0.99614 -0.42337 -1.48479
H27 H 1.10199 -0.37724 -1.39099
Na1A Na 0.6360(9) 0.0049(3) -1.1646(3)
Na1A_2 Na 1.6360(9) 0.0049(3) -1.1646(3)
Na1B Na 1.3640(9) -0.4951(3) -1.3354(3)
O3A O 0.678(2) 0.0370(7) -1.7362(6)
O4A O 1.032(2) 0.0397(7) -1.7332(6)
O5B O 0.857(2) -0.1204(6) -1.6678(6)
O6 O 0.918(8) 0.722(3) 0.030(3)
O7 O 0.606(6) 0.759(3) -0.013(3)
loop_
_geom_bond_atom_site_label_1
_geom_bond_atom_site_label_2
_geom_bond_site_symmetry_1
_geom_bond_site_symmetry_2
Cu1 O1 1_555 1_555
Cu2 O1 1_555 1_555
Na1 O2 1_555 1_555
O1 H1 1_555 1_555
O2 C7 1_555 1_555
O3 C13 1_555 1_555
O4 C26 1_555 1_555
O5 C32 1_555 1_555
N1 Cu1 1_555 1_555
N2 Cu1 1_555 1_555
N3 Cu1 1_555 1_555
N4 Cu2 1_555 1_555
N5 Cu2 1_555 1_555
N6 Cu2 1_555 1_555
C1 N1 1_555 1_555
C2 C1 1_555 1_555
C3 C2 1_555 1_555
C4 C3 1_555 1_555
C5 C4 1_555 1_555
C6 C1 1_555 1_555
C7 N1 1_555 1_555
C8 N2 1_555 1_555
C9 C8 1_555 1_555
C10 C9 1_555 1_555
C11 C10 1_555 1_555
C12 N2 1_555 1_555
C13 N3 1_555 1_555
C14 N3 1_555 1_555
C15 C14 1_555 1_555
C16 C15 1_555 1_555
C17 C16 1_555 1_555
C18 C17 1_555 1_555
C19 C14 1_555 1_555
C20 N4 1_555 1_555
C21 C20 1_555 1_555
C22 C21 1_555 1_555
C23 C22 1_555 1_555
C24 C23 1_555 1_555
C25 C20 1_555 1_555
C26 N4 1_555 1_555
C27 N5 1_555 1_555
C28 C27 1_555 1_555
C29 C28 1_555 1_555
C30 C29 1_555 1_555
C31 N5 1_555 1_555
C32 N6 1_555 1_555
C33 N6 1_555 1_555
C34 C33 1_555 1_555
C35 C34 1_555 1_555
C36 C35 1_555 1_555
C37 C36 1_555 1_555
C38 C33 1_555 1_555
H2 C2 1_555 1_555
H3 C3 1_555 1_555
H4 C4 1_555 1_555
H5 C5 1_555 1_555
H6 C6 1_555 1_555
H7 C9 1_555 1_555
H8 C10 1_555 1_555
H9 C11 1_555 1_555
H10 C15 1_555 1_555
H11 C16 1_555 1_555
H12 C17 1_555 1_555
H13 C18 1_555 1_555
H14 C19 1_555 1_555
H15 C28 1_555 1_555
H16 C29 1_555 1_555
H17 C30 1_555 1_555
H18 C21 1_555 1_555
H19 C22 1_555 1_555
H20 C23 1_555 1_555
H21 C24 1_555 1_555
H22 C25 1_555 1_555
H23 C34 1_555 1_555
H24 C35 1_555 1_555
H25 C36 1_555 1_555
H26 C37 1_555 1_555
H27 C38 1_555 1_555
Na1A O3 1_555 1_555
Na1A_2 O4 1_555 1_555
Na1B O5 1_555 1_555
O3A Na1 1_555 1_555
O4A Na1 1_555 1_555
O5B Na1 1_555 1_555
C5 C6 1_555 1_555
C7 C8 1_555 1_555
C11 C12 1_555 1_555
C12 C13 1_555 1_555
C18 C19 1_555 1_555
C24 C25 1_555 1_555
C26 C27 1_555 1_555
C30 C31 1_555 1_555
C31 C32 1_555 1_555
C37 C38 1_555 1_555

#END
