
#######################################################################
#
#                 Cambridge Crystallographic Data Centre
#                                CCDC 
#
#######################################################################
#
# If this CIF has been generated from an entry in the Cambridge 
# Structural Database, then it will include bibliographic, chemical, 
# crystal, experimental, refinement or atomic coordinate data resulting 
# from the CCDC's data processing and validation procedures.
#
#######################################################################

data_QUKQAQ
_chemical_formula_moiety         '(C10 H28 La2 N4 O22)n'
_symmetry_cell_setting           monoclinic
_symmetry_space_group_name_H-M   'P 21/n'
_symmetry_Int_Tables_number      14
_space_group_name_Hall           '-P 2yn'
loop_
_symmetry_equiv_pos_site_id
_symmetry_equiv_pos_as_xyz
1 x,y,z
2 1/2-x,1/2+y,1/2-z
3 -x,-y,-z
4 1/2+x,1/2-y,1/2+z
_cell_length_a                   12.7623(4)
_cell_length_b                   8.3831(2)
_cell_length_c                   23.9610(7)
_cell_angle_alpha                90
_cell_angle_beta                 104.924(3)
_cell_angle_gamma                90
_cell_volume                     2477.06
loop_
_atom_site_label
_atom_site_type_symbol
_atom_site_fract_x
_atom_site_fract_y
_atom_site_fract_z
La1 La 0.906416(18) 0.71699(3) 0.125196(10)
La2 La 1.093602(19) 1.00943(3) 0.383148(10)
C1 C 0.9742(3) 0.5452(5) 0.26512(18)
H1 H 1.0382 0.4828 0.2618
H2 H 0.9525 0.5068 0.2996
C2 C 1.0045(3) 0.7206(5) 0.27279(19)
C3 C 0.7825(3) 0.5712(5) 0.22612(19)
H3 H 0.7942 0.6751 0.2464
H4 H 0.7613 0.4925 0.2520
C4 C 0.6917(3) 0.5875(5) 0.17123(18)
C5 C 1.0402(3) 0.3986(5) 0.08880(19)
H5 H 1.0254 0.4406 0.0489
H6 H 1.0669 0.2877 0.0887
C6 C 1.1266(3) 0.5007(5) 0.12891(19)
C7 C 0.8478(3) 0.3335(5) 0.06305(18)
H7 H 0.7948 0.2850 0.0817
H8 H 0.8758 0.2477 0.0424
C8 C 0.7896(3) 0.4572(5) 0.01905(18)
C9 C 0.8758(3) 0.3486(5) 0.19640(18)
H9 H 0.8014 0.3265 0.1727
H10 H 0.8890 0.2815 0.2315
C10 C 0.9568(3) 0.3055(4) 0.16226(18)
H11 H 1.0312 0.3255 0.1863
H12 H 0.9505 0.1905 0.1527
N1 N 0.8847(3) 0.5194(4) 0.21333(15)
N2 N 0.9386(3) 0.3996(4) 0.10814(15)
N3 N 0.7424(3) 0.9909(4) 0.11319(19)
N4 N 1.0564(3) 0.9002(5) 0.06546(19)
O1 O 0.9885(2) 0.8070(3) 0.22833(13)
O2 O 1.0454(3) 0.7668(3) 0.32334(13)
O3 O 0.7169(2) 0.6319(4) 0.12596(13)
O4 O 0.5978(2) 0.5592(4) 0.17423(14)
O5 O 1.0946(2) 0.6110(3) 0.15671(13)
O6 O 1.2232(3) 0.4704(4) 0.13229(16)
O7 O 0.8183(2) 0.6011(3) 0.02801(13)
O8 O 0.7159(3) 0.4074(3) -0.02194(14)
O9 O 0.7600(3) 0.9327(4) 0.06795(14)
O10 O 0.8069(3) 0.9580(4) 0.16081(14)
O11 O 0.6638(3) 1.0789(4) 0.11107(19)
O12 O 1.0360(3) 0.9524(3) 0.11233(15)
O13 O 1.0070(3) 0.7763(4) 0.04410(15)
O14 O 1.1215(3) 0.9681(4) 0.04410(19)
O15 O 1.0773(3) 1.0925(4) 0.27857(13)
H13 H 1.0509 1.0135 0.2553
O16 O 0.9903(3) 1.1888(3) 0.44389(14)
H14 H 1.0090 1.2832 0.4476
H15 H 0.9278 1.1829 0.4256
O17 O 1.1885(2) 0.7496(3) 0.43456(13)
H16 H 1.2029 0.7256 0.4104
H17 H 1.2393 0.7808 0.4674
O18 O 1.1515(4) 1.2993(4) 0.37830(15)
H18 H 1.1556 1.3463 0.4118
O19 O 0.9668(3) 0.8548(4) 0.43442(14)
H19 H 0.9566 0.7554 0.4210
H20 H 0.9964 0.8509 0.4724
H21 H 1.127(3) 1.135(5) 0.2658(18)
H22 H 1.181(4) 1.359(4) 0.3588(12)
La2A La 0.406398(19) 0.50943(3) 0.116852(10)
La2A_2 La 1.406398(19) 0.50943(3) 0.116852(10)
La2C La 0.593602(19) 0.49057(3) -0.116852(10)
O4A O 0.9022(2) 1.0592(4) 0.32577(14)
O6A O 1.2768(3) 0.9704(4) 0.36771(16)
O8C O 1.2159(3) 1.0926(3) 0.47806(14)
O20 O 1.2507(4) 0.5708(7) 0.3408(3)
H23 H 1.253(5) 0.523(7) 0.3085(13)
H24 H 1.313(3) 0.549(7) 0.3646(18)
O21 O 1.2498(4) 0.7487(6) 0.2451(2)
H25 H 1.257(4) 0.827(5) 0.223(2)
H26 H 1.191(3) 0.700(5) 0.229(2)
O22 O 1.0904(4) 0.4820(4) 0.46900(19)
H27 H 1.1303 0.4826 0.5044
H28 H 1.1091 0.5547 0.4568
loop_
_geom_bond_atom_site_label_1
_geom_bond_atom_site_label_2
_geom_bond_site_symmetry_1
_geom_bond_site_symmetry_2
La1 N1 1_555 1_555
La2 O2 1_555 1_555
C1 H1 1_555 1_555
H2 C1 1_555 1_555
C2 C1 1_555 1_555
C3 H3 1_555 1_555
H4 C3 1_555 1_555
C4 C3 1_555 1_555
C5 H5 1_555 1_555
H6 C5 1_555 1_555
C6 C5 1_555 1_555
C7 H7 1_555 1_555
H8 C7 1_555 1_555
C8 C7 1_555 1_555
C9 H9 1_555 1_555
H10 C9 1_555 1_555
C10 C9 1_555 1_555
H11 C10 1_555 1_555
H12 C10 1_555 1_555
N1 C1 1_555 1_555
N2 La1 1_555 1_555
N3 O9 1_555 1_555
N4 O12 1_555 1_555
O1 La1 1_555 1_555
O2 C2 1_555 1_555
O3 La1 1_555 1_555
O4 C4 1_555 1_555
O5 La1 1_555 1_555
O6 C6 1_555 1_555
O7 La1 1_555 1_555
O8 C8 1_555 1_555
O9 La1 1_555 1_555
O10 La1 1_555 1_555
O11 N3 1_555 1_555
O12 La1 1_555 1_555
O13 La1 1_555 1_555
O14 N4 1_555 1_555
O15 La2 1_555 1_555
H13 O15 1_555 1_555
O16 La2 1_555 1_555
H14 O16 1_555 1_555
H15 O16 1_555 1_555
O17 La2 1_555 1_555
H16 O17 1_555 1_555
H17 O17 1_555 1_555
O18 La2 1_555 1_555
H18 O18 1_555 1_555
O19 La2 1_555 1_555
H19 O19 1_555 1_555
H20 O19 1_555 1_555
H21 O15 1_555 1_555
H22 O18 1_555 1_555
O20 H23 1_555 1_555
H24 O20 1_555 1_555
O21 H25 1_555 1_555
H26 O21 1_555 1_555
O22 H27 1_555 1_555
H28 O22 1_555 1_555
La2A O4 1_555 1_555
La2A_2 O6 1_555 1_555
La2C O8 1_555 1_555
O4A La2 1_555 1_555
O6A La2 1_555 1_555
O8C La2 1_555 1_555
C2 O1 1_555 1_555
C3 N1 1_555 1_555
C4 O3 1_555 1_555
C5 N2 1_555 1_555
C6 O5 1_555 1_555
C7 N2 1_555 1_555
C8 O7 1_555 1_555
C9 N1 1_555 1_555
C10 N2 1_555 1_555
N3 O10 1_555 1_555
N4 O13 1_555 1_555

#END
