
#######################################################################
#
#                 Cambridge Crystallographic Data Centre
#                                CCDC 
#
#######################################################################
#
# If this CIF has been generated from an entry in the Cambridge 
# Structural Database, then it will include bibliographic, chemical, 
# crystal, experimental, refinement or atomic coordinate data resulting 
# from the CCDC's data processing and validation procedures.
#
#######################################################################

data_DORFUM
_chemical_formula_moiety         '(C29 H39 Fe1 K2 N6 O14)n'
_symmetry_cell_setting           monoclinic
_symmetry_space_group_name_H-M   'P 21/c'
_symmetry_Int_Tables_number      14
_space_group_name_Hall           '-P 2ybc'
loop_
_symmetry_equiv_pos_site_id
_symmetry_equiv_pos_as_xyz
1 x,y,z
2 -x,1/2+y,1/2-z
3 -x,-y,-z
4 x,1/2-y,1/2+z
_cell_length_a                   18.184(2)
_cell_length_b                   12.2234(14)
_cell_length_c                   18.256(2)
_cell_angle_alpha                90
_cell_angle_beta                 103.438(2)
_cell_angle_gamma                90
_cell_volume                     3946.67
loop_
_atom_site_label
_atom_site_type_symbol
_atom_site_fract_x
_atom_site_fract_y
_atom_site_fract_z
Fe1 Fe 0.26655(5) 0.08363(6) 0.43533(4)
K1 K 0.29783(7) 0.53272(10) 0.13987(7)
K2 K 0.10132(9) 0.05357(15) 0.52365(9)
O1 O 0.2281(2) 0.1617(3) 0.3372(2)
O2 O 0.1929(2) 0.1855(3) 0.4634(2)
O3 O 0.1759(3) 0.3933(3) 0.1633(2)
O4 O 0.2747(2) -0.0404(3) 0.3673(2)
O5 O 0.2247(2) -0.0375(3) 0.4881(2)
O6 O 0.2627(3) -0.3204(3) 0.2326(3)
O7 O 0.3665(2) 0.1368(3) 0.4122(2)
O8 O 0.3414(2) 0.1078(3) 0.5397(2)
O9 O 0.1248(4) -0.1200(8) 0.6415(5)
N1 N 0.3435(3) 0.0657(4) 0.1866(2)
N2 N 0.2248(3) 0.2279(4) 0.2004(2)
H1 H 0.2356 0.1785 0.2364
N3 N 0.2945(3) -0.1423(4) 0.2464(3)
H2 H 0.2984 -0.0833 0.2747
N4 N 0.4594(3) 0.1377(4) 0.3224(2)
H3 H 0.4126 0.1353 0.3277
N5 N 0.4277(3) 0.1350(3) 0.4702(2)
C1 C 0.2759(4) 0.0922(5) 0.1273(3)
H4 H 0.2355 0.0397 0.1308
H5 H 0.2882 0.0811 0.0777
C2 C 0.2451(4) 0.2069(5) 0.1294(3)
H6 H 0.2837 0.2606 0.1225
H7 H 0.2000 0.2164 0.0875
C3 C 0.1897(3) 0.3208(5) 0.2128(3)
C4 C 0.1688(3) 0.3300(5) 0.2855(3)
C5 C 0.1261(4) 0.4200(5) 0.2991(4)
H8 H 0.1121 0.4747 0.2615
C6 C 0.1043(4) 0.4307(5) 0.3657(4)
H9 H 0.0744 0.4917 0.3730
C7 C 0.1256(4) 0.3524(5) 0.4236(3)
H10 H 0.1108 0.3610 0.4699
C8 C 0.1677(3) 0.2641(5) 0.4122(3)
C9 C 0.1888(3) 0.2513(4) 0.3428(3)
C10 C 0.3717(4) -0.0436(5) 0.1740(4)
H11 H 0.4180 -0.0580 0.2136
H12 H 0.3860 -0.0437 0.1249
C11 C 0.3163(4) -0.1362(5) 0.1744(3)
H13 H 0.2707 -0.1247 0.1334
H14 H 0.3397 -0.2062 0.1648
C12 C 0.2687(3) -0.2353(5) 0.2711(3)
C13 C 0.2483(3) -0.2327(5) 0.3452(3)
C14 C 0.2254(4) -0.3296(5) 0.3742(4)
H15 H 0.2253 -0.3962 0.3474
C15 C 0.2030(4) -0.3293(5) 0.4412(4)
H16 H 0.1879 -0.3959 0.4601
C16 C 0.2022(4) -0.2328(5) 0.4818(3)
H17 H 0.1862 -0.2340 0.5278
C17 C 0.2244(3) -0.1358(5) 0.4551(3)
C18 C 0.2497(3) -0.1359(5) 0.3868(3)
C19 C 0.4026(4) 0.1487(5) 0.1866(3)
H18 H 0.3814 0.2219 0.1927
H19 H 0.4158 0.1473 0.1369
C20 C 0.4741(4) 0.1335(5) 0.2473(3)
H20 H 0.4971 0.0621 0.2402
H21 H 0.5107 0.1916 0.2427
O10 O 0.5828(2) 0.1510(3) 0.3790(2)
C21 C 0.4993(3) 0.1435(4) 0.4598(3)
C22 C 0.5581(4) 0.1469(5) 0.5225(3)
H22 H 0.6086 0.1545 0.5171
C23 C 0.5437(4) 0.1391(5) 0.5945(3)
H23 H 0.5844 0.1433 0.6377
C24 C 0.4721(3) 0.1257(4) 0.6032(3)
H24 H 0.4633 0.1186 0.6522
C25 C 0.5163(3) 0.1451(4) 0.3826(3)
O11 O 0.3866(3) 0.4230(3) 0.2584(2)
C26 C 0.3681(4) 0.3940(5) 0.3167(3)
H25 H 0.3457 0.3238 0.3168
N6 N 0.3771(3) 0.4536(4) 0.3790(3)
C27 C 0.4100(4) 0.5629(5) 0.3836(4)
H26 H 0.4640 0.5587 0.4075
H27 H 0.4032 0.5933 0.3328
H28 H 0.3847 0.6101 0.4137
C28 C 0.3533(4) 0.4133(6) 0.4446(3)
H29 H 0.3335 0.3388 0.4349
H30 H 0.3966 0.4129 0.4881
H31 H 0.3136 0.4610 0.4551
C29 C 0.4110(3) 0.1224(4) 0.5397(3)
O12 O 0.0231(8) -0.0834(12) 0.4202(8)
O23 O -0.0196(12) 0.1725(18) 0.4765(12)
K1C K 0.29783(7) -0.03272(10) 0.63987(7)
K1_2 K 0.29783(7) -0.46728(10) 0.13987(7)
K1A K 0.70217(7) 0.03272(10) 0.36013(7)
K2C K 0.10132(9) 0.44643(15) 0.02365(9)
K2B K -0.10132(9) -0.05357(15) 0.47635(9)
O3C O 0.1759(3) 0.1067(3) 0.6633(2)
O5C O 0.2247(2) 0.5375(3) -0.0119(2)
O6_2 O 0.2627(3) 0.6796(3) 0.2326(3)
O8C O 0.3414(2) 0.3922(3) 0.0397(2)
O10A O 0.4172(2) 0.6510(3) 0.1210(2)
O12B O -0.0231(8) 0.0834(12) 0.5798(8)
O21 O 0.0532(11) -0.134(2) 0.3097(12)
loop_
_geom_bond_atom_site_label_1
_geom_bond_atom_site_label_2
_geom_bond_site_symmetry_1
_geom_bond_site_symmetry_2
Fe1 O1 1_555 1_555
K1 O3 1_555 1_555
K2 O2 1_555 1_555
O1 C9 1_555 1_555
O2 Fe1 1_555 1_555
O3 C3 1_555 1_555
O4 Fe1 1_555 1_555
O5 Fe1 1_555 1_555
O6 C12 1_555 1_555
O7 Fe1 1_555 1_555
O8 Fe1 1_555 1_555
O9 K2 1_555 1_555
N1 C1 1_555 1_555
N2 H1 1_555 1_555
N3 H2 1_555 1_555
N4 H3 1_555 1_555
N5 O7 1_555 1_555
C1 H4 1_555 1_555
H5 C1 1_555 1_555
C2 N2 1_555 1_555
H6 C2 1_555 1_555
H7 C2 1_555 1_555
C3 N2 1_555 1_555
C4 C3 1_555 1_555
C5 C4 1_555 1_555
H8 C5 1_555 1_555
C6 C5 1_555 1_555
H9 C6 1_555 1_555
C7 C6 1_555 1_555
H10 C7 1_555 1_555
C8 O2 1_555 1_555
C9 C4 1_555 1_555
C10 N1 1_555 1_555
H11 C10 1_555 1_555
H12 C10 1_555 1_555
C11 N3 1_555 1_555
H13 C11 1_555 1_555
H14 C11 1_555 1_555
C12 N3 1_555 1_555
C13 C12 1_555 1_555
C14 C13 1_555 1_555
H15 C14 1_555 1_555
C15 C14 1_555 1_555
H16 C15 1_555 1_555
C16 C15 1_555 1_555
H17 C16 1_555 1_555
C17 O5 1_555 1_555
C18 O4 1_555 1_555
C19 N1 1_555 1_555
H18 C19 1_555 1_555
H19 C19 1_555 1_555
C20 N4 1_555 1_555
H20 C20 1_555 1_555
H21 C20 1_555 1_555
O10 C25 1_555 1_555
C21 N5 1_555 1_555
C22 C21 1_555 1_555
H22 C22 1_555 1_555
C23 C22 1_555 1_555
H23 C23 1_555 1_555
C24 C23 1_555 1_555
H24 C24 1_555 1_555
C25 N4 1_555 1_555
O11 K1 1_555 1_555
C26 O11 1_555 1_555
H25 C26 1_555 1_555
N6 C26 1_555 1_555
C27 N6 1_555 1_555
H26 C27 1_555 1_555
H27 C27 1_555 1_555
H28 C27 1_555 1_555
C28 N6 1_555 1_555
H29 C28 1_555 1_555
H30 C28 1_555 1_555
H31 C28 1_555 1_555
C29 O8 1_555 1_555
O12 K2 1_555 1_555
O23 K2 1_555 1_555
K1C O5 1_555 1_555
K1_2 O6 1_555 1_555
K1A O10 1_555 1_555
K2C O3 1_555 1_555
K2B O12 1_555 1_555
O3C K2 1_555 1_555
O5C K1 1_555 1_555
O6_2 K1 1_555 1_555
O8C K1 1_555 1_555
O10A K1 1_555 1_555
O12B K2 1_555 1_555
K2 O5 1_555 1_555
O8 K1C 1_555 1_555
N5 C29 1_555 1_555
C1 C2 1_555 1_555
C7 C8 1_555 1_555
C8 C9 1_555 1_555
C10 C11 1_555 1_555
C13 C18 1_555 1_555
C16 C17 1_555 1_555
C17 C18 1_555 1_555
C19 C20 1_555 1_555
C21 C25 1_555 1_555
C24 C29 1_555 1_555
K1C O3C 1_555 1_555
K2C O5C 1_555 1_555
K2B O12B 1_555 1_555

#END
