
#######################################################################
#
#                 Cambridge Crystallographic Data Centre
#                                CCDC 
#
#######################################################################
#
# If this CIF has been generated from an entry in the Cambridge 
# Structural Database, then it will include bibliographic, chemical, 
# crystal, experimental, refinement or atomic coordinate data resulting 
# from the CCDC's data processing and validation procedures.
#
#######################################################################

data_KOTYEZ
_chemical_formula_moiety         'C19 H10 Au3 Fe3 N10'
_symmetry_cell_setting           monoclinic
_symmetry_space_group_name_H-M   'P 21/m'
_symmetry_Int_Tables_number      11
_space_group_name_Hall           '-P 2yb'
loop_
_symmetry_equiv_pos_site_id
_symmetry_equiv_pos_as_xyz
1 x,y,z
2 -x,1/2+y,-z
3 -x,-y,-z
4 x,1/2-y,z
_cell_length_a                   10.1214(4)
_cell_length_b                   10.0851(4)
_cell_length_c                   15.3392(6)
_cell_angle_alpha                90
_cell_angle_beta                 102.232(4)
_cell_angle_gamma                90
_cell_volume                     1530.21
loop_
_atom_site_label
_atom_site_type_symbol
_atom_site_fract_x
_atom_site_fract_y
_atom_site_fract_z
Fe1 Fe 1.16939(15) 0.2500 0.39823(10)
Au1 Au 0.67130(4) 0.2500 0.40337(3)
Au2 Au 1.18375(5) -0.2500 0.39622(3)
N1 N 0.9752(10) 0.2500 0.3880(6)
N2 N 1.3652(8) 0.2500 0.4104(6)
N3 N 1.1717(6) 0.0570(8) 0.3955(3)
N4 N 1.1468(9) 0.2500 0.2663(6)
N5 N 1.1814(9) 0.2500 -0.4671(6)
C1 C 0.8647(10) 0.2500 0.3904(7)
C2 C 1.4748(13) 0.2500 0.4116(7)
C3 C 1.1796(8) -0.0534(8) 0.3953(5)
C4 C 1.0622(16) 0.1717(18) 0.2113(10)
H1 H 1.0047 0.1154 0.2375
C5 C 1.0482(18) 0.1631(19) 0.1214(10)
H2 H 0.9895 0.0977 0.0880
C6 C 1.1182(12) 0.2500 0.0781(8)
C7 C 1.1176(13) 0.2500 -0.0190(7)
C8 C 1.059(4) 0.155(3) -0.0743(15)
H3 H 1.0075 0.0885 -0.0521
N6 N 1.070(3) 0.148(3) -0.1649(14)
C9 C 1.1377(12) 0.2500 -0.1946(8)
C10 C 1.1559(12) 0.2500 -0.2888(7)
C11 C 1.1659(14) 0.1370(11) -0.3333(6)
H4 H 1.1652 0.0542 -0.3039
C12 C 1.1774(13) 0.1401(10) -0.4223(6)
H5 H 1.1826 0.0582 -0.4520
C4C C 1.0622(16) 0.3283(18) 0.2113(10)
H1C H 1.0047 0.3846 0.2375
C5C C 1.0482(18) 0.3369(19) 0.1214(10)
H2C H 0.9895 0.4023 0.0880
C8C C 1.059(4) 0.345(3) -0.0743(15)
H3C H 1.0075 0.4115 -0.0521
N6C N 1.070(3) 0.352(3) -0.1649(14)
C11C C 1.1659(14) 0.3630(11) -0.3333(6)
H4C H 1.1652 0.4458 -0.3039
C12C C 1.1774(13) 0.3599(10) -0.4223(6)
H5C H 1.1826 0.4418 -0.4520
N3C N 1.1717(6) -0.5570(8) 0.3955(3)
C3C C 1.1796(8) -0.4466(8) 0.3953(5)
Fe1_2 Fe 1.16939(15) -0.7500 0.39823(10)
Fe1_3 Fe 1.16939(15) 0.2500 -0.60177(10)
Au1_2 Au 1.67130(4) 0.2500 0.40337(3)
N3C_2 N 1.1717(6) 0.4430(8) 0.3955(3)
N5_2 N 1.1814(9) 0.2500 0.5329(6)
C2_2 C 0.4748(13) 0.2500 0.4116(7)
loop_
_geom_bond_atom_site_label_1
_geom_bond_atom_site_label_2
_geom_bond_site_symmetry_1
_geom_bond_site_symmetry_2
Fe1 N1 1_555 1_555
Au1 C1 1_555 1_555
Au2 C3 1_555 1_555
N1 C1 1_555 1_555
N2 Fe1 1_555 1_555
N3 Fe1 1_555 1_555
N4 Fe1 1_555 1_555
N5 C12 1_555 1_555
C2 N2 1_555 1_555
C3 N3 1_555 1_555
C4 N4 1_555 1_555
H1 C4 1_555 1_555
C5 C4 1_555 1_555
H2 C5 1_555 1_555
C6 C5 1_555 1_555
C7 C6 1_555 1_555
C8 C7 1_555 1_555
H3 C8 1_555 1_555
N6 C8 1_555 1_555
C9 N6 1_555 1_555
C10 C9 1_555 1_555
C11 C10 1_555 1_555
H4 C11 1_555 1_555
C12 C11 1_555 1_555
H5 C12 1_555 1_555
C4C N4 1_555 1_555
H1C C4C 1_555 1_555
C5C C6 1_555 1_555
H2C C5C 1_555 1_555
C8C C7 1_555 1_555
H3C C8C 1_555 1_555
N6C C9 1_555 1_555
C11C C10 1_555 1_555
H4C C11C 1_555 1_555
C12C N5 1_555 1_555
H5C C12C 1_555 1_555
N3C C3C 1_555 1_555
C3C Au2 1_555 1_555
Fe1_2 N3C 1_555 1_555
Fe1_3 N5 1_555 1_555
Au1_2 C2 1_555 1_555
N3C_2 Fe1 1_555 1_555
N5_2 Fe1 1_555 1_555
C2_2 Au1 1_555 1_555
C4C C5C 1_555 1_555
C8C N6C 1_555 1_555
C11C C12C 1_555 1_555

#END
