
#######################################################################
#
#                 Cambridge Crystallographic Data Centre
#                                CCDC 
#
#######################################################################
#
# If this CIF has been generated from an entry in the Cambridge 
# Structural Database, then it will include bibliographic, chemical, 
# crystal, experimental, refinement or atomic coordinate data resulting 
# from the CCDC's data processing and validation procedures.
#
#######################################################################

data_KOTYEZ02
_chemical_formula_moiety         'C19 H10 Au3 Fe3 N10'
_symmetry_cell_setting           monoclinic
_symmetry_space_group_name_H-M   'P 21/m'
_symmetry_Int_Tables_number      11
_space_group_name_Hall           '-P 2yb'
loop_
_symmetry_equiv_pos_site_id
_symmetry_equiv_pos_as_xyz
1 x,y,z
2 -x,1/2+y,-z
3 -x,-y,-z
4 x,1/2-y,z
_cell_length_a                   10.2597(5)
_cell_length_b                   10.2372(5)
_cell_length_c                   15.5039(8)
_cell_angle_alpha                90
_cell_angle_beta                 104.348(5)
_cell_angle_gamma                90
_cell_volume                     1577.59
loop_
_atom_site_label
_atom_site_type_symbol
_atom_site_fract_x
_atom_site_fract_y
_atom_site_fract_z
Fe1 Fe 1.16837(14) 0.2500 0.39681(8)
Au1 Au 0.67067(4) 0.2500 0.40188(2)
Au2 Au 1.18327(4) -0.2500 0.39619(2)
N1 N 0.9665(10) 0.2500 0.3831(5)
N2 N 1.3708(10) 0.2500 0.4115(5)
N3 N 1.1702(6) 0.0541(7) 0.3946(3)
N4 N 1.1394(8) 0.2500 0.2587(5)
N5 N 1.1845(8) 0.2500 -0.4647(5)
C1 C 0.8602(10) 0.2500 0.3887(6)
C2 C 1.4801(12) 0.2500 0.4106(6)
C3 C 1.1779(7) -0.0559(9) 0.3943(4)
C4 C 1.0623(17) 0.1699(18) 0.2044(10)
H1 H 1.0048 0.1136 0.2306
C5 C 1.0486(18) 0.1665(17) 0.1140(9)
H2 H 0.9899 0.1011 0.0806
C6 C 1.1151(11) 0.2500 0.0728(7)
C7 C 1.1175(11) 0.2500 -0.0231(7)
C8 C 1.080(4) 0.144(2) -0.0788(12)
H3 H 1.0521 0.0664 -0.0549
N6 N 1.081(3) 0.146(2) -0.1658(13)
C9 C 1.1380(12) 0.2500 -0.1946(7)
C10 C 1.1577(11) 0.2500 -0.2882(6)
C11 C 1.1643(11) 0.1384(9) -0.3322(5)
H4 H 1.1622 0.0570 -0.3032
C12 C 1.1741(11) 0.1409(8) -0.4193(5)
H5 H 1.1734 0.0597 -0.4490
C4C C 1.0623(17) 0.3301(18) 0.2044(10)
H1C H 1.0048 0.3864 0.2306
C5C C 1.0486(18) 0.3335(17) 0.1140(9)
H2C H 0.9899 0.3989 0.0806
C8C C 1.080(4) 0.356(2) -0.0788(12)
H3C H 1.0521 0.4336 -0.0549
N6C N 1.081(3) 0.354(2) -0.1658(13)
C11C C 1.1643(11) 0.3616(9) -0.3322(5)
H4C H 1.1622 0.4430 -0.3032
C12C C 1.1741(11) 0.3591(8) -0.4193(5)
H5C H 1.1734 0.4403 -0.4490
N3C N 1.1702(6) -0.5541(7) 0.3946(3)
C3C C 1.1779(7) -0.4441(9) 0.3943(4)
Fe1_2 Fe 1.16837(14) -0.7500 0.39681(8)
Fe1_3 Fe 1.16837(14) 0.2500 -0.60319(8)
Au1_2 Au 1.67067(4) 0.2500 0.40188(2)
N3C_2 N 1.1702(6) 0.4459(7) 0.3946(3)
N5_2 N 1.1845(8) 0.2500 0.5353(5)
C2_2 C 0.4801(12) 0.2500 0.4106(6)
loop_
_geom_bond_atom_site_label_1
_geom_bond_atom_site_label_2
_geom_bond_site_symmetry_1
_geom_bond_site_symmetry_2
Fe1 N1 1_555 1_555
Au1 C1 1_555 1_555
Au2 C3 1_555 1_555
N1 C1 1_555 1_555
N2 Fe1 1_555 1_555
N3 Fe1 1_555 1_555
N4 Fe1 1_555 1_555
N5 C12 1_555 1_555
C2 N2 1_555 1_555
C3 N3 1_555 1_555
C4 N4 1_555 1_555
H1 C4 1_555 1_555
C5 C4 1_555 1_555
H2 C5 1_555 1_555
C6 C5 1_555 1_555
C7 C6 1_555 1_555
C8 C7 1_555 1_555
H3 C8 1_555 1_555
N6 C8 1_555 1_555
C9 N6 1_555 1_555
C10 C9 1_555 1_555
C11 C10 1_555 1_555
H4 C11 1_555 1_555
C12 C11 1_555 1_555
H5 C12 1_555 1_555
C4C N4 1_555 1_555
H1C C4C 1_555 1_555
C5C C6 1_555 1_555
H2C C5C 1_555 1_555
C8C C7 1_555 1_555
H3C C8C 1_555 1_555
N6C C9 1_555 1_555
C11C C10 1_555 1_555
H4C C11C 1_555 1_555
C12C N5 1_555 1_555
H5C C12C 1_555 1_555
N3C C3C 1_555 1_555
C3C Au2 1_555 1_555
Fe1_2 N3C 1_555 1_555
Fe1_3 N5 1_555 1_555
Au1_2 C2 1_555 1_555
N3C_2 Fe1 1_555 1_555
N5_2 Fe1 1_555 1_555
C2_2 Au1 1_555 1_555
C4C C5C 1_555 1_555
C8C N6C 1_555 1_555
C11C C12C 1_555 1_555

#END
