
#######################################################################
#
#                 Cambridge Crystallographic Data Centre
#                                CCDC 
#
#######################################################################
#
# If this CIF has been generated from an entry in the Cambridge 
# Structural Database, then it will include bibliographic, chemical, 
# crystal, experimental, refinement or atomic coordinate data resulting 
# from the CCDC's data processing and validation procedures.
#
#######################################################################

data_KOTYEZ01
_chemical_formula_moiety         'C19 H10 Au3 Fe3 N10'
_symmetry_cell_setting           monoclinic
_symmetry_space_group_name_H-M   'P 21/m'
_symmetry_Int_Tables_number      11
_space_group_name_Hall           '-P 2yb'
loop_
_symmetry_equiv_pos_site_id
_symmetry_equiv_pos_as_xyz
1 x,y,z
2 -x,1/2+y,-z
3 -x,-y,-z
4 x,1/2-y,z
_cell_length_a                   10.4786(6)
_cell_length_b                   10.4462(6)
_cell_length_c                   15.6881(10)
_cell_angle_alpha                90
_cell_angle_beta                 109.322(7)
_cell_angle_gamma                90
_cell_volume                     1620.52
loop_
_atom_site_label
_atom_site_type_symbol
_atom_site_fract_x
_atom_site_fract_y
_atom_site_fract_z
Fe1 Fe 1.72818(19) -0.2500 0.39193(14)
Au1 Au 1.23233(6) -0.2500 0.39881(4)
Au2 Au 1.71440(6) -0.7500 0.39381(4)
N1 N 1.5363(13) -0.2500 0.4133(10)
N2 N 1.9236(12) -0.2500 0.3716(9)
N3 N 1.7243(9) -0.4529(9) 0.3898(6)
N4 N 1.6194(12) -0.2500 0.2433(9)
N5 N 0.8545(11) -0.2500 -0.4600(8)
C1 C 1.4274(16) -0.2500 0.4103(12)
C2 C 2.0311(13) -0.2500 0.3770(9)
C3 C 1.7185(10) -0.5647(14) 0.3912(7)
C4 C 1.638(2) -0.320(2) 0.1823(15)
H1 H 1.7166 -0.3733 0.2011
C5 C 1.558(3) -0.334(3) 0.0957(17)
H2 H 1.5745 -0.3976 0.0568
C6 C 1.4560(17) -0.2500 0.0633(12)
C7 C 1.3532(12) -0.2500 -0.0315(7)
C8 C 1.2710(17) -0.3360(17) -0.0604(15)
H3 H 1.2722 -0.4053 -0.0209
N6 N 1.179(2) -0.3398(13) -0.1436(11)
C9 C 1.1578(14) -0.2500 -0.1964(10)
C10 C 1.0472(15) -0.2500 -0.2872(9)
C11 C 0.9995(13) -0.3581(16) -0.3312(7)
H4 H 1.0325 -0.4384 -0.3044
C12 C 0.9012(12) -0.3536(14) -0.4164(8)
H5 H 0.8661 -0.4326 -0.4444
C4C C 1.638(2) -0.180(2) 0.1823(15)
H1C H 1.7166 -0.1267 0.2011
C5C C 1.558(3) -0.166(3) 0.0957(17)
H2C H 1.5745 -0.1024 0.0568
C8C C 1.2710(17) -0.1640(17) -0.0604(15)
H3C H 1.2722 -0.0947 -0.0209
N6C N 1.179(2) -0.1602(13) -0.1436(11)
C11C C 0.9995(13) -0.1419(16) -0.3312(7)
H4C H 1.0325 -0.0616 -0.3044
C12C C 0.9012(12) -0.1464(14) -0.4164(8)
H5C H 0.8661 -0.0674 -0.4444
N3C N 1.7243(9) -1.0471(9) 0.3898(6)
C3C C 1.7185(10) -0.9353(14) 0.3912(7)
Fe1_2 Fe 0.72818(19) -0.2500 -0.60807(14)
Fe1_3 Fe 1.72818(19) -1.2500 0.39193(14)
Au1_2 Au 2.23233(6) -0.2500 0.39881(4)
N3C_2 N 1.7243(9) -0.0471(9) 0.3898(6)
N5_2 N 1.8545(11) -0.2500 0.5400(8)
C2_2 C 1.0311(13) -0.2500 0.3770(9)
loop_
_geom_bond_atom_site_label_1
_geom_bond_atom_site_label_2
_geom_bond_site_symmetry_1
_geom_bond_site_symmetry_2
Fe1 N1 1_555 1_555
Au1 C1 1_555 1_555
Au2 C3 1_555 1_555
N1 C1 1_555 1_555
N2 Fe1 1_555 1_555
N3 Fe1 1_555 1_555
N4 Fe1 1_555 1_555
N5 C12 1_555 1_555
C2 N2 1_555 1_555
C3 N3 1_555 1_555
C4 N4 1_555 1_555
H1 C4 1_555 1_555
C5 C4 1_555 1_555
H2 C5 1_555 1_555
C6 C5 1_555 1_555
C7 C6 1_555 1_555
C8 C7 1_555 1_555
H3 C8 1_555 1_555
N6 C8 1_555 1_555
C9 N6 1_555 1_555
C10 C9 1_555 1_555
C11 C10 1_555 1_555
H4 C11 1_555 1_555
C12 C11 1_555 1_555
H5 C12 1_555 1_555
C4C N4 1_555 1_555
H1C C4C 1_555 1_555
C5C C6 1_555 1_555
H2C C5C 1_555 1_555
C8C C7 1_555 1_555
H3C C8C 1_555 1_555
N6C C9 1_555 1_555
C11C C10 1_555 1_555
H4C C11C 1_555 1_555
C12C N5 1_555 1_555
H5C C12C 1_555 1_555
N3C C3C 1_555 1_555
C3C Au2 1_555 1_555
Fe1_2 N5 1_555 1_555
Fe1_3 N3C 1_555 1_555
Au1_2 C2 1_555 1_555
N3C_2 Fe1 1_555 1_555
N5_2 Fe1 1_555 1_555
C2_2 Au1 1_555 1_555
C4C C5C 1_555 1_555
C8C N6C 1_555 1_555
C11C C12C 1_555 1_555

#END
