
#######################################################################
#
#                 Cambridge Crystallographic Data Centre
#                                CCDC 
#
#######################################################################
#
# If this CIF has been generated from an entry in the Cambridge 
# Structural Database, then it will include bibliographic, chemical, 
# crystal, experimental, refinement or atomic coordinate data resulting 
# from the CCDC's data processing and validation procedures.
#
#######################################################################

data_EFEGOM
_chemical_formula_moiety         '(C90 H80 Fe8 O48)n'
_symmetry_cell_setting           triclinic
_symmetry_space_group_name_H-M   'P 1'
_symmetry_Int_Tables_number      1
_space_group_name_Hall           'P 1'
loop_
_symmetry_equiv_pos_site_id
_symmetry_equiv_pos_as_xyz
1 x,y,z
_cell_length_a                   19.2200
_cell_length_b                   11.3400
_cell_length_c                   13.7980
_cell_angle_alpha                90.0000
_cell_angle_beta                 110.8200
_cell_angle_gamma                90.0000
_cell_volume                     2810.97
loop_
_atom_site_label
_atom_site_type_symbol
_atom_site_fract_x
_atom_site_fract_y
_atom_site_fract_z
_atom_site_U_iso_or_equiv
_atom_site_thermal_displace_type
O1 O 0.40819 0.41371 0.16016 0.0000 Uiso
O2 O 0.40942 0.40452 0.49983 0.0000 Uiso
C1 C 0.30748 0.33070 0.02786 0.0000 Uiso
C2 C 0.27162 0.30673 0.09724 0.0000 Uiso
C3 C 0.20303 0.25213 0.06328 0.0000 Uiso
C4 C 0.38159 0.38754 0.06530 0.0000 Uiso
H1 H 0.29903 0.32920 0.17727 0.0000 Uiso
H2 H 0.17527 0.23102 0.11606 0.0000 Uiso
H3 H -0.49156 -0.32761 0.12880 0.0000 Uiso
O3 O -0.07117 -0.12977 0.17238 0.0000 Uiso
O4 O 0.92945 0.87312 0.51157 0.0000 Uiso
C5 C -0.16838 -0.22007 0.03976 0.0000 Uiso
C6 C -0.20461 -0.24638 0.10828 0.0000 Uiso
C7 C -0.27369 -0.29903 0.07269 0.0000 Uiso
C8 C -0.09664 -0.15665 0.07752 0.0000 Uiso
H4 H -0.17784 -0.22359 0.18838 0.0000 Uiso
H5 H -0.30259 -0.31924 0.12427 0.0000 Uiso
O5 O -0.42117 -0.60865 0.07908 0.0000 Uiso
O6 O -0.42795 -0.61997 0.23784 0.0000 Uiso
C9 C -0.32233 -0.69358 0.21210 0.0000 Uiso
C10 C -0.28650 -0.71996 0.14313 0.0000 Uiso
C11 C -0.21932 -0.77831 0.17744 0.0000 Uiso
C12 C -0.39550 -0.63471 0.17380 0.0000 Uiso
H6 H -0.31286 -0.69506 0.06348 0.0000 Uiso
H7 H -0.19127 -0.80122 0.12545 0.0000 Uiso
O7 O 0.09316 -0.09002 0.09130 0.0000 Uiso
O8 O 0.08943 -0.09711 0.25215 0.0000 Uiso
C13 C 0.19366 -0.17281 0.22421 0.0000 Uiso
C14 C 0.22944 -0.19866 0.15510 0.0000 Uiso
C15 C 0.29800 -0.25252 0.18972 0.0000 Uiso
C16 C 0.11979 -0.11554 0.18628 0.0000 Uiso
H8 H 0.20195 -0.17689 0.07492 0.0000 Uiso
H9 H 0.32562 -0.27532 0.13747 0.0000 Uiso
H10 H 0.01354 0.15887 0.12641 0.0000 Uiso
O9 O 0.59039 0.59734 0.33828 0.0000 Uiso
O10 O -0.41459 -0.39111 -0.00652 0.0000 Uiso
C17 C 0.69401 0.66890 0.47303 0.0000 Uiso
C18 C 0.72972 0.69534 0.40393 0.0000 Uiso
C19 C 0.79800 0.75057 0.43850 0.0000 Uiso
C20 C 0.62021 0.61141 0.43489 0.0000 Uiso
H11 H 0.70260 0.67275 0.32385 0.0000 Uiso
H12 H 0.82592 0.77310 0.38625 0.0000 Uiso
H13 H 0.46898 0.33704 0.35208 0.0000 Uiso
O11 O 0.07110 0.12601 0.33002 0.0000 Uiso
O12 O 0.06941 0.13256 -0.00969 0.0000 Uiso
C21 C 0.16648 0.22528 0.45752 0.0000 Uiso
C22 C 0.20981 0.22631 0.39558 0.0000 Uiso
C23 C 0.27809 0.28153 0.42970 0.0000 Uiso
C24 C 0.09649 0.15755 0.42363 0.0000 Uiso
H14 H 0.18999 0.18075 0.32287 0.0000 Uiso
H15 H 0.31389 0.27897 0.38532 0.0000 Uiso
O13 O 0.43017 -0.37316 0.42393 0.0000 Uiso
O14 O 0.43391 -0.36072 0.26359 0.0000 Uiso
C25 C 0.33158 -0.28084 0.29393 0.0000 Uiso
C26 C 0.29615 -0.25448 0.36332 0.0000 Uiso
C27 C 0.22744 -0.20055 0.32865 0.0000 Uiso
C28 C 0.40372 -0.34301 0.33020 0.0000 Uiso
H16 H 0.32330 -0.27775 0.44321 0.0000 Uiso
H17 H 0.19916 -0.17948 0.38078 0.0000 Uiso
O15 O -0.09062 -0.90213 0.41237 0.0000 Uiso
O16 O -0.08853 -0.90131 0.25047 0.0000 Uiso
C29 C -0.18717 -0.80943 0.28136 0.0000 Uiso
C30 C -0.22224 -0.78107 0.35071 0.0000 Uiso
C31 C -0.28961 -0.72306 0.31639 0.0000 Uiso
C32 C -0.11643 -0.87562 0.31756 0.0000 Uiso
H18 H -0.19570 -0.80550 0.43045 0.0000 Uiso
H19 H -0.31767 -0.70024 0.36843 0.0000 Uiso
Fe1 Fe 0.00134 0.00081 0.00202 0.0000 Uiso
Fe2 Fe -0.50051 -0.49234 -0.00130 0.0000 Uiso
Fe3 Fe -0.00013 -0.00137 0.25134 0.0000 Uiso
Fe4 Fe 0.49910 0.50448 0.24967 0.0000 Uiso
O17 O 0.49120 0.41494 0.36703 0.0000 Uiso
O18 O 0.00621 0.07540 0.12612 0.0000 Uiso
O19 O -0.49558 -0.41148 0.12695 0.0000 Uiso
O20 O 0.40491 0.41383 0.66027 0.0000 Uiso
C33 C 0.30311 0.33671 0.52598 0.0000 Uiso
C34 C 0.25885 0.33873 0.58666 0.0000 Uiso
C35 C 0.19072 0.28285 0.55270 0.0000 Uiso
C36 C 0.37807 0.38951 0.56497 0.0000 Uiso
H20 H 0.27905 0.38243 0.66030 0.0000 Uiso
H21 H 0.15615 0.28128 0.59893 0.0000 Uiso
H22 H 0.52162 -0.34201 0.63151 0.0000 Uiso
O21 O 0.92935 0.86996 0.67420 0.0000 Uiso
C37 C 0.83111 0.77997 0.54275 0.0000 Uiso
C38 C 0.79583 0.75229 0.61204 0.0000 Uiso
C39 C 0.72769 0.69656 0.57752 0.0000 Uiso
C40 C 0.90210 0.84545 0.57900 0.0000 Uiso
H23 H 0.82267 0.77590 0.69192 0.0000 Uiso
H24 H 0.69973 0.67422 0.62978 0.0000 Uiso
O22 O -0.43186 0.35983 -0.42273 0.0000 Uiso
O23 O -0.43599 0.35897 -0.26226 0.0000 Uiso
C41 C -0.33493 0.26922 -0.29044 0.0000 Uiso
C42 C -0.29898 0.24329 -0.35938 0.0000 Uiso
C43 C -0.22972 0.19116 -0.32429 0.0000 Uiso
C44 C -0.40636 0.33373 -0.32788 0.0000 Uiso
H25 H -0.32599 0.26675 -0.43929 0.0000 Uiso
H26 H -0.20097 0.17151 -0.37616 0.0000 Uiso
O24 O -0.91018 -0.09089 -0.41259 0.0000 Uiso
O25 O -0.91123 -0.09591 -0.25027 0.0000 Uiso
C45 C -0.81098 -0.18027 -0.28291 0.0000 Uiso
C46 C -0.77559 -0.20449 -0.35278 0.0000 Uiso
C47 C -0.70690 -0.25874 -0.31913 0.0000 Uiso
C48 C -0.88310 -0.11781 -0.31803 0.0000 Uiso
H27 H -0.80270 -0.17969 -0.43229 0.0000 Uiso
H28 H -0.67875 -0.27890 -0.37162 0.0000 Uiso
H29 H 0.03271 0.16085 -0.35583 0.0000 Uiso
O26 O -0.40667 -0.41320 -0.16402 0.0000 Uiso
O27 O 0.59300 0.58139 0.50183 0.0000 Uiso
C49 C -0.30707 -0.32650 -0.03191 0.0000 Uiso
C50 C -0.27031 -0.30210 -0.10013 0.0000 Uiso
C51 C -0.20136 -0.24881 -0.06466 0.0000 Uiso
C52 C -0.38168 -0.38127 -0.07037 0.0000 Uiso
H30 H -0.29716 -0.32450 -0.18030 0.0000 Uiso
H31 H -0.17285 -0.22734 -0.11644 0.0000 Uiso
H32 H -0.52499 -0.65856 -0.13369 0.0000 Uiso
O28 O 0.07110 0.13076 -0.17134 0.0000 Uiso
O29 O 0.06813 0.13459 0.49105 0.0000 Uiso
C53 C 0.16955 0.22150 -0.04062 0.0000 Uiso
C54 C 0.20501 0.24693 -0.11026 0.0000 Uiso
C55 C 0.27359 0.30148 -0.07628 0.0000 Uiso
C56 C 0.09804 0.15717 -0.07648 0.0000 Uiso
H33 H 0.17816 0.22232 -0.18992 0.0000 Uiso
H34 H 0.30168 0.32168 -0.12886 0.0000 Uiso
O30 O -0.57325 -0.36891 -0.08156 0.0000 Uiso
O31 O -0.56818 -0.36629 -0.24157 0.0000 Uiso
C57 C -0.67315 -0.28846 -0.21513 0.0000 Uiso
C58 C -0.70913 -0.26597 -0.14563 0.0000 Uiso
C59 C -0.77773 -0.21186 -0.17927 0.0000 Uiso
C60 C -0.59945 -0.34571 -0.17712 0.0000 Uiso
H35 H -0.68213 -0.29125 -0.06624 0.0000 Uiso
H36 H -0.80614 -0.19244 -0.12693 0.0000 Uiso
O32 O -0.09170 0.09123 -0.08573 0.0000 Uiso
O33 O -0.09002 0.09439 -0.24769 0.0000 Uiso
C61 C -0.19563 0.16440 -0.21969 0.0000 Uiso
C62 C -0.23222 0.18790 -0.15109 0.0000 Uiso
C63 C -0.30155 0.24016 -0.18617 0.0000 Uiso
C64 C -0.12018 0.11229 -0.18148 0.0000 Uiso
H37 H -0.20488 0.16617 -0.07087 0.0000 Uiso
H38 H -0.32976 0.26153 -0.13399 0.0000 Uiso
Fe5 Fe 0.99908 1.00319 0.50080 0.0000 Uiso
Fe6 Fe 0.50016 -0.50868 0.49771 0.0000 Uiso
Fe7 Fe 0.00012 0.00071 -0.24849 0.0000 Uiso
Fe8 Fe -0.50000 0.49841 -0.25138 0.0000 Uiso
O34 O -0.50820 -0.57881 -0.12855 0.0000 Uiso
O35 O 0.01277 0.08340 -0.36689 0.0000 Uiso
O36 O 0.50996 -0.42403 0.62744 0.0000 Uiso
O37 O 0.41253 0.40493 -0.00013 0.0000 Uiso
O38 O -0.06653 -0.13311 0.01222 0.0000 Uiso
H39 H -0.02845 -0.16783 0.35652 0.0000 Uiso
O39 O -0.00844 -0.08821 0.36954 0.0000 Uiso
H40 H -0.02498 -0.16098 -0.13573 0.0000 Uiso
O40 O -0.00783 -0.08147 -0.12820 0.0000 Uiso
O2_2 O 0.40942 -0.59548 0.49983 0.0000 Uiso
H3_2 H 0.50844 0.67239 0.12880 0.0000 Uiso
O6_2 O 0.57205 0.38003 0.23784 0.0000 Uiso
H13_2 H 0.46898 -0.66296 0.35208 0.0000 Uiso
O14_2 O 0.43391 0.63928 0.26359 0.0000 Uiso
O15_2 O 0.90938 1.09787 0.41237 0.0000 Uiso
O16_2 O -0.08853 0.09869 0.25047 0.0000 Uiso
Fe2_2 Fe 0.49949 0.50766 -0.00130 0.0000 Uiso
Fe3_2 Fe -0.00013 -1.00137 0.25134 0.0000 Uiso
Fe4_2 Fe -0.50090 -0.49552 0.24967 0.0000 Uiso
Fe4_3 Fe 0.49910 -0.49552 0.24967 0.0000 Uiso
O17_2 O 0.49120 -0.58506 0.36703 0.0000 Uiso
O19_2 O 0.50442 0.58852 0.12695 0.0000 Uiso
O20_2 O -0.59509 0.41383 -0.33973 0.0000 Uiso
H22_2 H -0.47838 0.65799 -0.36849 0.0000 Uiso
O21_2 O -0.07065 -0.13004 -0.32580 0.0000 Uiso
O22_2 O 0.56814 -0.64017 0.57727 0.0000 Uiso
O24_2 O 1.08982 0.90911 0.58741 0.0000 Uiso
O25_2 O 0.08877 -0.09591 -0.25027 0.0000 Uiso
H29_2 H 1.03271 1.16085 0.64417 0.0000 Uiso
O26_2 O -0.40667 0.58680 -0.16402 0.0000 Uiso
O27_2 O 0.59300 -0.41861 0.50183 0.0000 Uiso
H32_2 H -0.52499 0.34144 -0.13369 0.0000 Uiso
O29_2 O 1.06813 1.13459 0.49105 0.0000 Uiso
O31_2 O -0.56818 0.63371 -0.24157 0.0000 Uiso
Fe5_2 Fe -0.00092 -0.99681 0.50080 0.0000 Uiso
Fe5_3 Fe -1.00092 0.00319 -0.49920 0.0000 Uiso
Fe5_4 Fe -0.00092 0.00319 0.50080 0.0000 Uiso
Fe5_5 Fe -0.00092 0.00319 -0.49920 0.0000 Uiso
Fe6_2 Fe 0.50016 0.49132 0.49771 0.0000 Uiso
Fe6_3 Fe -0.49984 0.49132 -0.50229 0.0000 Uiso
Fe7_2 Fe 1.00012 1.00071 0.75151 0.0000 Uiso
Fe7_3 Fe -0.99988 0.00071 -0.24849 0.0000 Uiso
Fe8_2 Fe 0.50000 0.49841 0.74862 0.0000 Uiso
Fe8_3 Fe -0.50000 -0.50159 -0.25138 0.0000 Uiso
Fe8_4 Fe 0.50000 -0.50159 0.74862 0.0000 Uiso
O34_2 O -0.50820 0.42119 -0.12855 0.0000 Uiso
O35_2 O 1.01277 1.08340 0.63311 0.0000 Uiso
O36_2 O -0.49004 0.57597 -0.37256 0.0000 Uiso
O37_2 O -0.58747 -0.59507 -0.00013 0.0000 Uiso
H39_2 H 0.97155 0.83217 0.35652 0.0000 Uiso
O39_2 O 0.99156 0.91179 0.36954 0.0000 Uiso
C65 C 0.50164 -0.04563 0.76497 0.0000 Uiso
C66 C 0.39591 0.05590 0.63052 0.0000 Uiso
C67 C 0.44337 0.05075 0.74507 0.0000 Uiso
C68 C 0.39354 0.03574 0.80872 0.0000 Uiso
O41 O 0.43583 -0.00874 1.33241 0.0000 Uiso
C69 C 0.58064 0.00300 1.31071 0.0000 Uiso
O42 O 0.43649 0.18513 1.33274 0.0000 Uiso
C70 C 0.46067 0.09483 1.31021 0.0000 Uiso
C71 C 0.51803 0.09064 1.25864 0.0000 Uiso
C72 C 0.49792 0.09309 0.97576 0.0000 Uiso
C73 C 0.52577 0.10416 1.08253 0.0000 Uiso
C74 C 0.48422 0.07175 1.14288 0.0000 Uiso
C75 C 0.41369 0.02480 1.09180 0.0000 Uiso
C76 C 0.38647 0.01193 0.98500 0.0000 Uiso
C77 C 0.42742 0.04659 0.92419 0.0000 Uiso
H41 H 0.53686 -0.05225 0.84571 0.0000 Uiso
H42 H 0.53721 -0.02939 0.72070 0.0000 Uiso
H43 H 0.47543 -0.13064 0.74153 0.0000 Uiso
H44 H 0.35319 0.12249 0.61518 0.0000 Uiso
H45 H 0.36861 -0.02783 0.60444 0.0000 Uiso
H46 H 0.42913 0.07584 0.58371 0.0000 Uiso
H47 H 0.47196 0.13483 0.76508 0.0000 Uiso
H48 H 0.34907 0.10035 0.78222 0.0000 Uiso
H49 H 0.36549 -0.04866 0.79023 0.0000 Uiso
H50 H 0.46042 -0.07276 1.31222 0.0000 Uiso
H51 H 0.62358 0.01153 1.27776 0.0000 Uiso
H52 H 0.56218 -0.08789 1.29935 0.0000 Uiso
H53 H 0.60564 0.01967 1.39298 0.0000 Uiso
H54 H 0.54180 0.17816 1.27027 0.0000 Uiso
H55 H 0.53167 0.12184 0.93294 0.0000 Uiso
H56 H 0.58056 0.13969 1.11918 0.0000 Uiso
H57 H 0.37896 -0.00122 1.13418 0.0000 Uiso
H58 H 0.33177 -0.02408 0.94774 0.0000 Uiso
C78 C 0.00708 0.45337 0.73829 0.0000 Uiso
C79 C -0.09865 0.55490 0.60384 0.0000 Uiso
C80 C -0.05119 0.54975 0.71839 0.0000 Uiso
C81 C -0.10102 0.53474 0.78204 0.0000 Uiso
O43 O -0.05873 0.49026 1.30573 0.0000 Uiso
C82 C 0.08608 0.50200 1.28403 0.0000 Uiso
O44 O -0.05807 0.68413 1.30606 0.0000 Uiso
C83 C -0.03389 0.59383 1.28353 0.0000 Uiso
C84 C 0.02347 0.58964 1.23196 0.0000 Uiso
C85 C 0.00336 0.59209 0.94908 0.0000 Uiso
C86 C 0.03121 0.60316 1.05585 0.0000 Uiso
C87 C -0.01034 0.57075 1.11620 0.0000 Uiso
C88 C -0.08087 0.52380 1.06512 0.0000 Uiso
C89 C -0.10809 0.51093 0.95832 0.0000 Uiso
C90 C -0.06714 0.54559 0.89751 0.0000 Uiso
H59 H 0.04230 0.44675 0.81903 0.0000 Uiso
H60 H 0.04265 0.46961 0.69402 0.0000 Uiso
H61 H -0.01913 0.36836 0.71485 0.0000 Uiso
H62 H -0.14137 0.62149 0.58850 0.0000 Uiso
H63 H -0.12595 0.47117 0.57776 0.0000 Uiso
H64 H -0.06543 0.57484 0.55703 0.0000 Uiso
H65 H -0.02260 0.63383 0.73840 0.0000 Uiso
H66 H -0.14549 0.59935 0.75554 0.0000 Uiso
H67 H -0.12907 0.45034 0.76355 0.0000 Uiso
H68 H -0.03414 0.42624 1.28554 0.0000 Uiso
H69 H 0.12902 0.51053 1.25108 0.0000 Uiso
H70 H 0.06762 0.41111 1.27267 0.0000 Uiso
H71 H 0.11108 0.51867 1.36630 0.0000 Uiso
H72 H 0.04724 0.67716 1.24359 0.0000 Uiso
H73 H 0.03711 0.62084 0.90626 0.0000 Uiso
H74 H 0.08600 0.63869 1.09250 0.0000 Uiso
H75 H -0.11560 0.49778 1.10750 0.0000 Uiso
H76 H -0.16279 0.47492 0.92106 0.0000 Uiso
loop_
_geom_bond_atom_site_label_1
_geom_bond_atom_site_label_2
_geom_bond_site_symmetry_1
_geom_bond_site_symmetry_2
O1 C4 1_555 1_555
O2 C36 1_555 1_555
C1 C2 1_555 1_555
C2 C3 1_555 1_555
C3 H2 1_555 1_555
C4 C1 1_555 1_555
H1 C2 1_555 1_555
H3 O19 1_555 1_555
O3 C8 1_555 1_555
O4 C40 1_555 1_555
C5 C6 1_555 1_555
C6 C7 1_555 1_555
C7 H5 1_555 1_555
C8 C5 1_555 1_555
H4 C6 1_555 1_555
O5 C12 1_555 1_555
O6 C12 1_555 1_555
C9 C10 1_555 1_555
C10 C11 1_555 1_555
C11 H7 1_555 1_555
C12 C9 1_555 1_555
H6 C10 1_555 1_555
O7 C16 1_555 1_555
O8 C16 1_555 1_555
C13 C14 1_555 1_555
C14 C15 1_555 1_555
C15 H9 1_555 1_555
C16 C13 1_555 1_555
H8 C14 1_555 1_555
H10 O18 1_555 1_555
O9 C20 1_555 1_555
O10 Fe2 1_555 1_555
C17 C18 1_555 1_555
C18 C19 1_555 1_555
C19 H12 1_555 1_555
C20 C17 1_555 1_555
H11 C18 1_555 1_555
H13 O17 1_555 1_555
O11 C24 1_555 1_555
O12 Fe1 1_555 1_555
C21 C22 1_555 1_555
C22 C23 1_555 1_555
C23 H15 1_555 1_555
C24 C21 1_555 1_555
H14 C22 1_555 1_555
O13 C28 1_555 1_555
O14 C28 1_555 1_555
C25 C15 1_555 1_555
C26 C25 1_555 1_555
C27 C13 1_555 1_555
C28 C25 1_555 1_555
H16 C26 1_555 1_555
H17 C27 1_555 1_555
O15 C32 1_555 1_555
O16 C32 1_555 1_555
C29 C11 1_555 1_555
C30 C29 1_555 1_555
C31 C9 1_555 1_555
C32 C29 1_555 1_555
H18 C30 1_555 1_555
H19 C31 1_555 1_555
Fe1 O7 1_555 1_555
Fe2 O5 1_555 1_555
Fe3 O3 1_555 1_555
Fe4 O1 1_555 1_555
O17 Fe4 1_555 1_555
O18 Fe1 1_555 1_555
O19 Fe2 1_555 1_555
O20 C36 1_555 1_555
C33 C23 1_555 1_555
C34 C33 1_555 1_555
C35 C21 1_555 1_555
C36 C33 1_555 1_555
H20 C34 1_555 1_555
H21 C35 1_555 1_555
H22 O36 1_555 1_555
O21 C40 1_555 1_555
C37 C19 1_555 1_555
C38 C37 1_555 1_555
C39 C17 1_555 1_555
C40 C37 1_555 1_555
H23 C38 1_555 1_555
H24 C39 1_555 1_555
O22 C44 1_555 1_555
O23 C44 1_555 1_555
C41 C42 1_555 1_555
C42 C43 1_555 1_555
C43 H26 1_555 1_555
C44 C41 1_555 1_555
H25 C42 1_555 1_555
O24 C48 1_555 1_555
O25 C48 1_555 1_555
C45 C46 1_555 1_555
C46 C47 1_555 1_555
C47 H28 1_555 1_555
C48 C45 1_555 1_555
H27 C46 1_555 1_555
H29 O35 1_555 1_555
O26 C52 1_555 1_555
O27 C20 1_555 1_555
C49 C7 1_555 1_555
C50 C49 1_555 1_555
C51 C5 1_555 1_555
C52 O10 1_555 1_555
H30 C50 1_555 1_555
H31 C51 1_555 1_555
H32 O34 1_555 1_555
O28 C56 1_555 1_555
O29 C24 1_555 1_555
C53 C3 1_555 1_555
C54 C53 1_555 1_555
C55 C1 1_555 1_555
C56 O12 1_555 1_555
H33 C54 1_555 1_555
H34 C55 1_555 1_555
O30 Fe2 1_555 1_555
O31 C60 1_555 1_555
C57 C47 1_555 1_555
C58 C57 1_555 1_555
C59 C45 1_555 1_555
C60 O30 1_555 1_555
H35 C58 1_555 1_555
H36 C59 1_555 1_555
O32 Fe1 1_555 1_555
O33 C64 1_555 1_555
C61 C43 1_555 1_555
C62 C61 1_555 1_555
C63 C41 1_555 1_555
C64 O32 1_555 1_555
H37 C62 1_555 1_555
H38 C63 1_555 1_555
Fe5 O4 1_555 1_555
Fe6 O13 1_555 1_555
Fe7 O28 1_555 1_555
Fe8 O23 1_555 1_555
O34 Fe2 1_555 1_555
O35 Fe7 1_555 1_555
O36 Fe6 1_555 1_555
O37 C4 1_555 1_555
O38 C8 1_555 1_555
H39 O39 1_555 1_555
O39 Fe3 1_555 1_555
H40 O40 1_555 1_555
O40 Fe1 1_555 1_555
C65 C67 1_555 1_555
C66 C67 1_555 1_555
C67 C68 1_555 1_555
C68 C77 1_555 1_555
O41 C70 1_555 1_555
C69 C71 1_555 1_555
O42 C70 1_555 1_555
C70 C71 1_555 1_555
C71 C74 1_555 1_555
C72 C73 1_555 1_555
C73 C74 1_555 1_555
C74 C75 1_555 1_555
C75 C76 1_555 1_555
C76 C77 1_555 1_555
C77 C72 1_555 1_555
H41 C65 1_555 1_555
H42 C65 1_555 1_555
H43 C65 1_555 1_555
H44 C66 1_555 1_555
H45 C66 1_555 1_555
H46 C66 1_555 1_555
H47 C67 1_555 1_555
H48 C68 1_555 1_555
H49 C68 1_555 1_555
H50 O41 1_555 1_555
H51 C69 1_555 1_555
H52 C69 1_555 1_555
H53 C69 1_555 1_555
H54 C71 1_555 1_555
H55 C72 1_555 1_555
H56 C73 1_555 1_555
H57 C75 1_555 1_555
H58 C76 1_555 1_555
C78 C80 1_555 1_555
C79 C80 1_555 1_555
C80 C81 1_555 1_555
C81 C90 1_555 1_555
O43 C83 1_555 1_555
C82 C84 1_555 1_555
O44 C83 1_555 1_555
C83 C84 1_555 1_555
C84 C87 1_555 1_555
C85 C86 1_555 1_555
C86 C87 1_555 1_555
C87 C88 1_555 1_555
C88 C89 1_555 1_555
C89 C90 1_555 1_555
C90 C85 1_555 1_555
H59 C78 1_555 1_555
H60 C78 1_555 1_555
H61 C78 1_555 1_555
H62 C79 1_555 1_555
H63 C79 1_555 1_555
H64 C79 1_555 1_555
H65 C80 1_555 1_555
H66 C81 1_555 1_555
H67 C81 1_555 1_555
H68 O43 1_555 1_555
H69 C82 1_555 1_555
H70 C82 1_555 1_555
H71 C82 1_555 1_555
H72 C84 1_555 1_555
H73 C85 1_555 1_555
H74 C86 1_555 1_555
H75 C88 1_555 1_555
H76 C89 1_555 1_555
O2_2 Fe6 1_555 1_555
H3_2 O19_2 1_555 1_555
O6_2 Fe4 1_555 1_555
H13_2 O17_2 1_555 1_555
O14_2 Fe4 1_555 1_555
O15_2 Fe5 1_555 1_555
O16_2 Fe3 1_555 1_555
Fe2_2 O37 1_555 1_555
Fe3_2 O16 1_555 1_555
Fe4_2 O6 1_555 1_555
Fe4_3 O14 1_555 1_555
O17_2 Fe6 1_555 1_555
O19_2 Fe4 1_555 1_555
O20_2 Fe8 1_555 1_555
H22_2 O36_2 1_555 1_555
O21_2 Fe7 1_555 1_555
O22_2 Fe6 1_555 1_555
O24_2 Fe5 1_555 1_555
O25_2 Fe7 1_555 1_555
H29_2 O35_2 1_555 1_555
O26_2 Fe8 1_555 1_555
O27_2 Fe6 1_555 1_555
H32_2 O34_2 1_555 1_555
O29_2 Fe5 1_555 1_555
O31_2 Fe8 1_555 1_555
Fe5_2 O15 1_555 1_555
Fe5_3 O24 1_555 1_555
Fe5_4 O29 1_555 1_555
Fe5_5 O35 1_555 1_555
Fe6_2 O2 1_555 1_555
Fe6_3 O22 1_555 1_555
Fe7_2 O21 1_555 1_555
Fe7_3 O25 1_555 1_555
Fe8_2 O20 1_555 1_555
Fe8_3 O26 1_555 1_555
Fe8_4 O36 1_555 1_555
O34_2 Fe8 1_555 1_555
O35_2 Fe5 1_555 1_555
O36_2 Fe8 1_555 1_555
O37_2 Fe2 1_555 1_555
H39_2 O39_2 1_555 1_555
O39_2 Fe5 1_555 1_555
O8 Fe3 1_555 1_555
O9 Fe4 1_555 1_555
O11 Fe3 1_555 1_555
C26 C27 1_555 1_555
C30 C31 1_555 1_555
Fe1 O38 1_555 1_555
Fe3 O18 1_555 1_555
O17 Fe6_2 1_555 1_555
O19 Fe4_2 1_555 1_555
C34 C35 1_555 1_555
C38 C39 1_555 1_555
O27 Fe6_2 1_555 1_555
C49 C52 1_555 1_555
C50 C51 1_555 1_555
C53 C56 1_555 1_555
C54 C55 1_555 1_555
O31 Fe8_3 1_555 1_555
C57 C60 1_555 1_555
C58 C59 1_555 1_555
O33 Fe7 1_555 1_555
C61 C64 1_555 1_555
C62 C63 1_555 1_555
Fe7 O40 1_555 1_555
O34 Fe8_3 1_555 1_555
O39 Fe5_4 1_555 1_555
Fe2_2 O19_2 1_555 1_555
Fe4_3 O17_2 1_555 1_555
Fe6_3 O36_2 1_555 1_555
Fe7_2 O35_2 1_555 1_555

#END
