
#######################################################################
#
#                 Cambridge Crystallographic Data Centre
#                                CCDC 
#
#######################################################################
#
# If this CIF has been generated from an entry in the Cambridge 
# Structural Database, then it will include bibliographic, chemical, 
# crystal, experimental, refinement or atomic coordinate data resulting 
# from the CCDC's data processing and validation procedures.
#
#######################################################################

data_CUNFOH
_chemical_formula_moiety         '(C4 H8 Cu2 I1 N3 O1)n'
_symmetry_cell_setting           tetragonal
_symmetry_space_group_name_H-M   'I 41/a'
_symmetry_Int_Tables_number      88
_space_group_name_Hall           '-I 4ad'
loop_
_symmetry_equiv_pos_site_id
_symmetry_equiv_pos_as_xyz
1 x,y,z
2 1/2-x,-y,1/2+z
3 3/4-y,1/4+x,1/4+z
4 3/4+y,3/4-x,3/4+z
5 1/2+x,1/2+y,1/2+z
6 -x,1/2-y,z
7 1/4-y,3/4+x,3/4+z
8 1/4+y,1/4-x,1/4+z
9 -x,-y,-z
10 1/2+x,y,1/2-z
11 1/4+y,3/4-x,3/4-z
12 1/4-y,1/4+x,1/4-z
13 1/2-x,1/2-y,1/2-z
14 x,1/2+y,-z
15 3/4+y,1/4-x,1/4-z
16 3/4-y,3/4+x,3/4-z
_cell_length_a                   17.2695(10)
_cell_length_b                   17.2695(10)
_cell_length_c                   19.002(2)
_cell_angle_alpha                90
_cell_angle_beta                 90
_cell_angle_gamma                90
_cell_volume                     5667.07
loop_
_atom_site_label
_atom_site_type_symbol
_atom_site_fract_x
_atom_site_fract_y
_atom_site_fract_z
_atom_site_U_iso_or_equiv
_atom_site_thermal_displace_type
Cu1 Cu 1.01669(4) 0.82451(4) 0.43067(4) 0.0719 Uani
Cu2 Cu 1.19679(4) 0.87822(5) 0.39652(4) 0.0760 Uani
I1 I 0.871861(19) 0.793861(19) 0.451598(18) 0.0590 Uani
N1 N 1.0717(2) 0.8981(2) 0.4939(2) 0.0567 Uani
N2 N 1.1453(2) 0.9191(2) 0.4755(2) 0.0613 Uani
N3 N 1.1157(3) 0.9816(2) 0.5724(2) 0.0613 Uani
C1 C 1.1695(3) 0.9686(3) 0.5239(3) 0.0647 Uani
C2 C 1.2489(4) 1.0056(5) 0.5223(5) 0.0987 Uani
H1 H 1.2780 0.9852 0.4834 0.1480 Uiso
H2 H 1.2756 0.9946 0.5654 0.1480 Uiso
H3 H 1.2436 1.0607 0.5169 0.1480 Uiso
C3 C 1.0561(3) 0.9365(3) 0.5529(3) 0.0560 Uani
C4 C 0.9819(4) 0.9289(3) 0.5918(3) 0.0697 Uani
H4 H 0.9475 0.8958 0.5659 0.1040 Uiso
H5 H 0.9587 0.9791 0.5972 0.1040 Uiso
Cu1E Cu 0.98331(4) 0.67549(4) 0.43067(4) 0.0719 Uani
Cu1O Cu 0.92549(4) 0.76669(4) 0.31933(4) 0.0719 Uani
Cu2G Cu 1.12822(5) 1.05321(4) 0.64652(4) 0.0760 Uani
I1E I 1.128139(19) 0.706139(19) 0.451598(18) 0.0590 Uani
I1J I 1.043861(19) 0.878139(19) 0.298402(18) 0.0590 Uani
N3F N 1.2684(2) 0.8657(3) 0.3224(2) 0.0613 Uani
O1 O 0.9896(5) 0.8657(5) 0.6792(4) 0.1737 Uani
loop_
_atom_site_aniso_label
_atom_site_aniso_U_11
_atom_site_aniso_U_22
_atom_site_aniso_U_33
_atom_site_aniso_U_23
_atom_site_aniso_U_13
_atom_site_aniso_U_12
Cu1 0.0752(5) 0.0692(4) 0.0713(5) -0.0194(3) 0.0072(3) -0.0162(3)
Cu2 0.0746(5) 0.0822(5) 0.0711(5) -0.0088(4) 0.0249(4) 0.0069(4)
I1 0.0581(2) 0.0594(2) 0.0595(3) -0.00351(14) 0.00201(14) 0.00024(13)
N1 0.061(2) 0.054(2) 0.055(2) -0.0076(17) 0.0102(19) -0.0042(18)
N2 0.061(2) 0.057(2) 0.066(3) -0.011(2) 0.011(2) -0.0025(19)
N3 0.063(3) 0.059(2) 0.062(3) -0.0150(19) -0.004(2) 0.0028(19)
C1 0.062(3) 0.061(3) 0.071(3) -0.013(3) 0.000(3) 0.001(2)
C2 0.068(4) 0.100(5) 0.128(6) -0.035(5) 0.009(4) -0.015(4)
C3 0.065(3) 0.050(2) 0.053(3) -0.006(2) 0.004(2) 0.000(2)
C4 0.078(3) 0.070(3) 0.061(3) -0.012(3) 0.018(3) -0.005(3)
Cu1E 0.0752 0.0692 0.0713 0.0194 -0.0072 -0.0162
Cu1O 0.0692 0.0752 0.0713 -0.0072 -0.0194 0.0162
Cu2G 0.0822 0.0746 0.0711 -0.0249 -0.0088 -0.0069
I1E 0.0581 0.0594 0.0595 0.00351 -0.00201 0.00024
I1J 0.0594 0.0581 0.0595 0.00201 0.00351 -0.00024
N3F 0.059 0.063 0.062 -0.004 0.015 -0.0028
O1 0.171(7) 0.202(7) 0.148(6) 0.129(6) 0.088(5) 0.050(5)
loop_
_geom_bond_atom_site_label_1
_geom_bond_atom_site_label_2
_geom_bond_site_symmetry_1
_geom_bond_site_symmetry_2
Cu1 I1 1_555 1_555
Cu2 N2 1_555 1_555
I1 Cu1E 1_555 1_555
N1 Cu1 1_555 1_555
N2 N1 1_555 1_555
N3 C1 1_555 1_555
C1 N2 1_555 1_555
C2 C1 1_555 1_555
H1 C2 1_555 1_555
H2 C2 1_555 1_555
H3 C2 1_555 1_555
C3 N1 1_555 1_555
C4 C3 1_555 1_555
H4 C4 1_555 1_555
H5 C4 1_555 1_555
Cu1E I1E 1_555 1_555
Cu1O I1 1_555 1_555
Cu2G N3 1_555 1_555
I1E Cu1 1_555 1_555
I1J Cu1 1_555 1_555
N3F Cu2 1_555 1_555
N3 C3 1_555 1_555
Cu1O I1J 1_555 1_555

#END
