
#######################################################################
#
#                 Cambridge Crystallographic Data Centre
#                                CCDC 
#
#######################################################################
#
# If this CIF has been generated from an entry in the Cambridge 
# Structural Database, then it will include bibliographic, chemical, 
# crystal, experimental, refinement or atomic coordinate data resulting 
# from the CCDC's data processing and validation procedures.
#
#######################################################################

data_YILBIG
_chemical_formula_moiety         '(C87 H53 Cr3 N6 O41 Zn6)n'
_symmetry_cell_setting           hexagonal
_symmetry_space_group_name_H-M   'P 63/m m c'
_symmetry_Int_Tables_number      194
_space_group_name_Hall           '-P 6c 2c'
loop_
_symmetry_equiv_pos_site_id
_symmetry_equiv_pos_as_xyz
1 x,y,z
2 -y,x-y,z
3 -x+y,-x,z
4 -x,-y,1/2+z
5 y,-x+y,1/2+z
6 x-y,x,1/2+z
7 y,x,-z
8 x-y,-y,-z
9 -x,-x+y,-z
10 -y,-x,1/2-z
11 -x+y,y,1/2-z
12 x,x-y,1/2-z
13 -x,-y,-z
14 y,-x+y,-z
15 x-y,x,-z
16 x,y,1/2-z
17 -y,x-y,1/2-z
18 -x+y,-x,1/2-z
19 -y,-x,z
20 -x+y,y,z
21 x,x-y,z
22 y,x,1/2+z
23 x-y,-y,1/2+z
24 -x,-x+y,1/2+z
_cell_length_a                   18.9479(4)
_cell_length_b                   18.9479(4)
_cell_length_c                   35.9127(8)
_cell_angle_alpha                90
_cell_angle_beta                 90
_cell_angle_gamma                120
_cell_volume                     11166.1
loop_
_atom_site_label
_atom_site_type_symbol
_atom_site_fract_x
_atom_site_fract_y
_atom_site_fract_z
O6 O 0.3333 0.6667 0.36082(16)
C10 C 0.3691(14) 0.6845(7) 0.3902(7)
C10A C 0.3155(7) 0.6846(16) 0.3902(7)
C10B C 0.3154(16) 0.6309(14) 0.3902(7)
Cr1 Cr 0.27504(4) 0.55008(7) 0.2500
Zn1 Zn 0.475307(14) 0.524693(14) 0.466399(14)
O1 O 0.3333 0.6667 0.2500
O2 O 0.21280(16) 0.4256(3) 0.2500
O3 O 0.48277(17) 0.36915(15) 0.50637(7)
O4 O 0.4435(3) 0.4082(2) 0.45613(7)
C1 C 0.4294(3) 0.2780(3) 0.45638(10)
C2 C 0.4539(3) 0.3581(3) 0.47405(10)
C3 C 0.3911(5) 0.2580(4) 0.42239(13)
H1 H 0.3806 0.2959 0.4099
C4 C 0.4483(4) 0.22417(19) 0.47343(13)
H2 H 0.4746 0.2373 0.4970
C5 C 0.3680(8) 0.1840(4) 0.4063(2)
H3 H 0.3362 0.1681 0.3843
O5 O 0.34061(17) 0.54067(15) 0.28974(5)
N1 N 0.45369(10) 0.54631(10) 0.41412(9)
C6 C 0.5062(3) 0.6115(3) 0.39625(11)
H4 H 0.5548 0.6495 0.4087
C7 C 0.4941(3) 0.6277(3) 0.36015(11)
H5 H 0.5333 0.6765 0.3482
C8 C 0.40753(15) 0.59247(15) 0.30366(10)
C9 C 0.42638(12) 0.57362(12) 0.34195(10)
O3T O 0.48277(17) 0.11362(23) 0.50637(7)
O4T O 0.4435(3) 0.0353(4) 0.45613(7)
C1T C 0.4294(3) 0.1514(4) 0.45638(10)
C2T C 0.4539(3) 0.0958(4) 0.47405(10)
C3T C 0.3911(5) 0.1331(6) 0.42239(13)
H1T H 0.3806 0.0847 0.4099
O5R O 0.45933(15) 0.65939(17) 0.28974(5)
C6R C 0.3885(3) 0.4938(3) 0.39625(11)
H4R H 0.3505 0.4452 0.4087
C7R C 0.3723(3) 0.5059(3) 0.36015(11)
H5R H 0.3235 0.4667 0.3482
Zn1A Zn 0.475307(14) -0.049386(20) 0.466399(14)
O3A O 0.63085(15) 0.11362(23) 0.50637(7)
O4A O 0.5918(2) 0.0353(4) 0.45613(7)
C1A C 0.7220(3) 0.1514(4) 0.45638(10)
C2A C 0.6419(3) 0.0958(4) 0.47405(10)
C3A C 0.7420(4) 0.1331(6) 0.42239(13)
H1A H 0.7041 0.0847 0.4099
C4A C 0.77583(19) 0.22413(44) 0.47343(13)
H2A H 0.7627 0.2373 0.4970
C5A C 0.8160(4) 0.1840(9) 0.4063(2)
H3A H 0.8319 0.1681 0.3843
O5A O 0.45933(15) -0.20006(23) 0.28974(5)
N1A N 0.45369(10) -0.09262(14) 0.41412(9)
C6A C 0.3885(3) -0.1053(4) 0.39625(11)
H4A H 0.3505 -0.0947 0.4087
C7A C 0.3723(3) -0.1336(4) 0.36015(11)
H5A H 0.3235 -0.1432 0.3482
C8A C 0.40753(15) -0.18494(21) 0.30366(10)
C9A C 0.42638(12) -0.14724(17) 0.34195(10)
O3S O 0.88638(23) 0.36915(15) 0.50637(7)
O4S O 0.9647(4) 0.4082(2) 0.45613(7)
C1S C 0.8486(4) 0.2780(3) 0.45638(10)
C2S C 0.9042(4) 0.3581(3) 0.47405(10)
C3S C 0.8669(6) 0.2580(4) 0.42239(13)
H1S H 0.9153 0.2959 0.4099
O5T O 0.34061(17) -0.20006(23) 0.28974(5)
C6T C 0.5062(3) -0.1053(4) 0.39625(11)
H4T H 0.5548 -0.0947 0.4087
C7T C 0.4941(3) -0.1336(4) 0.36015(11)
H5T H 0.5333 -0.1432 0.3482
Cr1B Cr 0.27504(8) 0.72496(4) 0.2500
Zn1B Zn 0.049386(20) 0.524693(14) 0.466399(14)
O2B O 0.21280(34) 0.78720(16) 0.2500
O5B O 0.20006(23) 0.65939(17) 0.28974(5)
N1B N 0.09262(14) 0.54631(10) 0.41412(9)
C6B C 0.1053(4) 0.4938(3) 0.39625(11)
H4B H 0.0947 0.4452 0.4087
C7B C 0.1336(4) 0.5059(3) 0.36015(11)
H5B H 0.1432 0.4667 0.3482
C8B C 0.18494(21) 0.59247(15) 0.30366(10)
C9B C 0.14724(17) 0.57362(12) 0.34195(10)
O5S O 0.20006(23) 0.54067(15) 0.28974(5)
C6S C 0.1053(4) 0.6115(3) 0.39625(11)
H4S H 0.0947 0.6495 0.4087
C7S C 0.1336(4) 0.6277(3) 0.36015(11)
H5S H 0.1432 0.6765 0.3482
Cr1A Cr 0.44992(7) 0.72496(8) 0.2500
Zn1I Zn 0.475307(14) 0.524693(14) 0.033601(14)
O2A O 0.5744(3) 0.78720(34) 0.2500
O3I O 0.63085(15) 0.51723(17) -0.00637(7)
O4I O 0.5918(2) 0.5565(3) 0.04387(7)
C1I C 0.7220(3) 0.5706(3) 0.04362(10)
C2I C 0.6419(3) 0.5461(3) 0.02595(10)
C3I C 0.7420(4) 0.6089(5) 0.07761(13)
H1I H 0.7041 0.6194 0.0901
C4I C 0.77583(19) 0.5517(4) 0.02657(13)
H2I H 0.7627 0.5254 0.0030
C5I C 0.8160(4) 0.6320(8) 0.0937(2)
H3I H 0.8319 0.6638 0.1157
O5I O 0.45933(15) 0.65939(17) 0.21026(5)
N1I N 0.45369(10) 0.54631(10) 0.08588(9)
C6I C 0.3885(3) 0.4938(3) 0.10375(11)
H4I H 0.3505 0.4452 0.0913
C7I C 0.3723(3) 0.5059(3) 0.13985(11)
H5I H 0.3235 0.4667 0.1518
C8I C 0.40753(15) 0.59247(15) 0.19634(10)
C9I C 0.42638(12) 0.57362(12) 0.15805(10)
O3Q O 0.88638(23) 0.51723(17) -0.00637(7)
O4Q O 0.9647(4) 0.5565(3) 0.04387(7)
C1Q C 0.8486(4) 0.5706(3) 0.04362(10)
C2Q C 0.9042(4) 0.5461(3) 0.02595(10)
C3Q C 0.8669(6) 0.6089(5) 0.07761(13)
H1Q H 0.9153 0.6194 0.0901
O5O O 0.34061(17) 0.54067(15) 0.21026(5)
C6O C 0.5062(3) 0.6115(3) 0.10375(11)
H4O H 0.5548 0.6495 0.0913
C7O C 0.4941(3) 0.6277(3) 0.13985(11)
H5O H 0.5333 0.6765 0.1518
O3O O 0.48277(17) 0.36915(15) -0.00637(7)
O4O O 0.4435(3) 0.4082(2) 0.04387(7)
C1O C 0.4294(3) 0.2780(3) 0.04362(10)
C2O C 0.4539(3) 0.3581(3) 0.02595(10)
C3O C 0.3911(5) 0.2580(4) 0.07761(13)
H1O H 0.3806 0.2959 0.0901
C4K C 0.4483(4) 0.22413(44) 0.02657(13)
H2K H 0.4746 0.2373 0.0030
C5K C 0.3680(8) 0.1840(9) 0.0937(2)
H3K H 0.3362 0.1681 0.1157
O3K O 0.48277(17) 0.11362(23) -0.00637(7)
O4K O 0.4435(3) 0.0353(4) 0.04387(7)
C1K C 0.4294(3) 0.1514(4) 0.04362(10)
C2K C 0.4539(3) 0.0958(4) 0.02595(10)
C3K C 0.3911(5) 0.1331(6) 0.07761(13)
H1K H 0.3806 0.0847 0.0901
Zn1J Zn 0.049386(20) 0.524693(14) 0.033601(14)
O5Q O 0.20006(23) 0.65939(17) 0.21026(5)
N1J N 0.09262(14) 0.54631(10) 0.08588(9)
C6Q C 0.1053(4) 0.4938(3) 0.10375(11)
H4Q H 0.0947 0.4452 0.0913
C7Q C 0.1336(4) 0.5059(3) 0.13985(11)
H5Q H 0.1432 0.4667 0.1518
C8J C 0.18494(21) 0.59247(15) 0.19634(10)
C9J C 0.14724(17) 0.57362(12) 0.15805(10)
O5J O 0.20006(23) 0.54067(15) 0.21026(5)
C6J C 0.1053(4) 0.6115(3) 0.10375(11)
H4J H 0.0947 0.6495 0.0913
C7J C 0.1336(4) 0.6277(3) 0.13985(11)
H5J H 0.1432 0.6765 0.1518
O3R O 0.63085(15) 0.51723(17) 0.50637(7)
O4R O 0.5918(2) 0.5565(3) 0.45613(7)
C1R C 0.7220(3) 0.5706(3) 0.45638(10)
C2R C 0.6419(3) 0.5461(3) 0.47405(10)
C3R C 0.7420(4) 0.6089(5) 0.42239(13)
H1R H 0.7041 0.6194 0.4099
C4B C 0.77587(44) 0.5517(4) 0.47343(13)
H2B H 0.7627 0.5254 0.4970
C5B C 0.8160(9) 0.6320(8) 0.4063(2)
H3B H 0.8319 0.6638 0.3843
O3B O 0.88638(23) 0.51723(17) 0.50637(7)
O4B O 0.9647(4) 0.5565(3) 0.45613(7)
C1B C 0.8486(4) 0.5706(3) 0.45638(10)
C2B C 0.9042(4) 0.5461(3) 0.47405(10)
C3B C 0.8669(6) 0.6089(5) 0.42239(13)
H1B H 0.9153 0.6194 0.4099
Zn1K Zn 0.475307(14) -0.049386(20) 0.033601(14)
O3P O 0.63085(15) 0.11362(23) -0.00637(7)
O4P O 0.5918(2) 0.0353(4) 0.04387(7)
C1P C 0.7220(3) 0.1514(4) 0.04362(10)
C2P C 0.6419(3) 0.0958(4) 0.02595(10)
C3P C 0.7420(4) 0.1331(6) 0.07761(13)
H1P H 0.7041 0.0847 0.0901
C4J C 0.77587(44) 0.22417(19) 0.02657(13)
H2J H 0.7627 0.2373 0.0030
C5J C 0.8160(9) 0.1840(4) 0.0937(2)
H3J H 0.8319 0.1681 0.1157
O5P O 0.45933(15) -0.20006(23) 0.21026(5)
N1K N 0.45369(10) -0.09262(14) 0.08588(9)
C6P C 0.3885(3) -0.1053(4) 0.10375(11)
H4P H 0.3505 -0.0947 0.0913
C7P C 0.3723(3) -0.1336(4) 0.13985(11)
H5P H 0.3235 -0.1432 0.1518
C8K C 0.40753(15) -0.18494(21) 0.19634(10)
C9K C 0.42638(12) -0.14724(17) 0.15805(10)
O3J O 0.88638(23) 0.36915(15) -0.00637(7)
O4J O 0.9647(4) 0.4082(2) 0.04387(7)
C1J C 0.8486(4) 0.2780(3) 0.04362(10)
C2J C 0.9042(4) 0.3581(3) 0.02595(10)
C3J C 0.8669(6) 0.2580(4) 0.07761(13)
H1J H 0.9153 0.2959 0.0901
O5K O 0.34061(17) -0.20006(23) 0.21026(5)
C6K C 0.5062(3) -0.1053(4) 0.10375(11)
H4K H 0.5548 -0.0947 0.0913
C7K C 0.4941(3) -0.1336(4) 0.13985(11)
H5K H 0.5333 -0.1432 0.1518
Cr1A_2 Cr 0.44992(7) -0.27504(8) 0.2500
Cr1B_2 Cr 0.27504(8) -0.27504(4) 0.2500
Zn1B_2 Zn 1.049386(20) 0.524693(14) 0.466399(14)
Zn1C Zn 0.524693(14) 0.475307(14) -0.033601(14)
Zn1D Zn 0.524693(14) 0.049386(20) -0.033601(14)
Zn1E Zn 0.950614(20) 0.475307(14) -0.033601(14)
Zn1F Zn 0.524693(14) 0.475307(14) 0.533601(14)
Zn1G Zn 0.950614(20) 0.475307(14) 0.533601(14)
Zn1H Zn 0.524693(14) 0.049386(20) 0.533601(14)
Zn1J_2 Zn 1.049386(20) 0.524693(14) 0.033601(14)
O3C O 0.51723(17) 0.63085(15) 0.00637(7)
O3D O 0.36915(15) -0.11362(23) 0.00637(7)
O3E O 0.11362(23) 0.48277(17) 0.00637(7)
O3F O 0.36915(15) 0.48277(17) 0.49363(7)
O3G O 0.11362(23) 0.63085(15) 0.49363(7)
O3H O 0.51723(17) -0.11362(23) 0.49363(7)
O3L O 0.51723(17) 0.63085(15) 0.49363(7)
O3M O 0.36915(15) -0.11362(23) 0.49363(7)
O3N O 0.11362(23) 0.48277(17) 0.49363(7)
O3U O 0.36915(15) 0.48277(17) 0.00637(7)
O3V O 0.11362(23) 0.63085(15) 0.00637(7)
O3W O 0.51723(17) -0.11362(23) 0.00637(7)
O4B_2 O -0.0353(4) 0.5565(3) 0.45613(7)
O4J_2 O -0.0353(4) 0.4082(2) 0.04387(7)
O4Q_2 O -0.0353(4) 0.5565(3) 0.04387(7)
O4S_2 O -0.0353(4) 0.4082(2) 0.45613(7)
O5A_2 O 0.45933(15) 0.79994(23) 0.28974(5)
O5K_2 O 0.34061(17) 0.79994(23) 0.21026(5)
O5P_2 O 0.45933(15) 0.79994(23) 0.21026(5)
O5T_2 O 0.34061(17) 0.79994(23) 0.28974(5)
loop_
_geom_bond_atom_site_label_1
_geom_bond_atom_site_label_2
_geom_bond_site_symmetry_1
_geom_bond_site_symmetry_2
Cr1 O1 1_555 1_555
Zn1 O4 1_555 1_555
O1 Cr1B 1_555 1_555
O2 Cr1 1_555 1_555
O3 C2 1_555 1_555
O4 C2 1_555 1_555
C1 C2 1_555 1_555
C3 C1 1_555 1_555
H1 C3 1_555 1_555
C4 C1 1_555 1_555
H2 C4 1_555 1_555
C5 C3 1_555 1_555
H3 C5 1_555 1_555
O5 Cr1 1_555 1_555
N1 Zn1 1_555 1_555
C6 N1 1_555 1_555
H4 C6 1_555 1_555
C7 C6 1_555 1_555
H5 C7 1_555 1_555
C8 O5 1_555 1_555
C9 C7 1_555 1_555
O6 C10 1_555 1_555
O3T C2T 1_555 1_555
O4T C2T 1_555 1_555
C1T C4 1_555 1_555
C2T C1T 1_555 1_555
C3T C5 1_555 1_555
H1T C3T 1_555 1_555
O5R C8 1_555 1_555
C6R N1 1_555 1_555
H4R C6R 1_555 1_555
C7R C9 1_555 1_555
H5R C7R 1_555 1_555
Zn1A O4T 1_555 1_555
O3A C2A 1_555 1_555
O4A Zn1A 1_555 1_555
C1A C2A 1_555 1_555
C2A O4A 1_555 1_555
C3A C1A 1_555 1_555
H1A C3A 1_555 1_555
C4A C1A 1_555 1_555
H2A C4A 1_555 1_555
C5A C3A 1_555 1_555
H3A C5A 1_555 1_555
O5A C8A 1_555 1_555
N1A Zn1A 1_555 1_555
C6A N1A 1_555 1_555
H4A C6A 1_555 1_555
C7A C6A 1_555 1_555
H5A C7A 1_555 1_555
C8A C9A 1_555 1_555
C9A C7A 1_555 1_555
O3S C2S 1_555 1_555
O4S C2S 1_555 1_555
C1S C4A 1_555 1_555
C2S C1S 1_555 1_555
C3S C5A 1_555 1_555
H1S C3S 1_555 1_555
O5T C8A 1_555 1_555
C6T N1A 1_555 1_555
H4T C6T 1_555 1_555
C7T C9A 1_555 1_555
H5T C7T 1_555 1_555
Cr1B O2B 1_555 1_555
Zn1B N1B 1_555 1_555
O5B Cr1B 1_555 1_555
N1B C6B 1_555 1_555
C6B H4B 1_555 1_555
C7B C6B 1_555 1_555
H5B C7B 1_555 1_555
C8B O5B 1_555 1_555
C9B C7B 1_555 1_555
O5S Cr1 1_555 1_555
C6S N1B 1_555 1_555
H4S C6S 1_555 1_555
C7S C9B 1_555 1_555
H5S C7S 1_555 1_555
Cr1A O1 1_555 1_555
Zn1I O4I 1_555 1_555
O2A Cr1A 1_555 1_555
O3I C2I 1_555 1_555
O4I C2I 1_555 1_555
C1I C2I 1_555 1_555
C3I C1I 1_555 1_555
H1I C3I 1_555 1_555
C4I C1I 1_555 1_555
H2I C4I 1_555 1_555
C5I C3I 1_555 1_555
H3I C5I 1_555 1_555
O5I Cr1A 1_555 1_555
N1I Zn1I 1_555 1_555
C6I N1I 1_555 1_555
H4I C6I 1_555 1_555
C7I C6I 1_555 1_555
H5I C7I 1_555 1_555
C8I O5I 1_555 1_555
C9I C7I 1_555 1_555
O3Q C2Q 1_555 1_555
O4Q C2Q 1_555 1_555
C1Q C4I 1_555 1_555
C2Q C1Q 1_555 1_555
C3Q C5I 1_555 1_555
H1Q C3Q 1_555 1_555
O5O Cr1 1_555 1_555
C6O N1I 1_555 1_555
H4O C6O 1_555 1_555
C7O C9I 1_555 1_555
H5O C7O 1_555 1_555
O3O C2O 1_555 1_555
O4O Zn1I 1_555 1_555
C1O C2O 1_555 1_555
C2O O4O 1_555 1_555
C3O C1O 1_555 1_555
H1O C3O 1_555 1_555
C4K C1O 1_555 1_555
H2K C4K 1_555 1_555
C5K C3O 1_555 1_555
H3K C5K 1_555 1_555
O3K C2K 1_555 1_555
O4K C2K 1_555 1_555
C1K C4K 1_555 1_555
C2K C1K 1_555 1_555
C3K C5K 1_555 1_555
H1K C3K 1_555 1_555
Zn1J N1J 1_555 1_555
O5Q Cr1B 1_555 1_555
N1J C6Q 1_555 1_555
C6Q H4Q 1_555 1_555
C7Q C6Q 1_555 1_555
H5Q C7Q 1_555 1_555
C8J O5Q 1_555 1_555
C9J C7Q 1_555 1_555
O5J Cr1 1_555 1_555
C6J N1J 1_555 1_555
H4J C6J 1_555 1_555
C7J C9J 1_555 1_555
H5J C7J 1_555 1_555
O3R C2R 1_555 1_555
O4R Zn1 1_555 1_555
C1R C2R 1_555 1_555
C2R O4R 1_555 1_555
C3R C1R 1_555 1_555
H1R C3R 1_555 1_555
C4B C1R 1_555 1_555
H2B C4B 1_555 1_555
C5B C3R 1_555 1_555
H3B C5B 1_555 1_555
O3B C2B 1_555 1_555
O4B C2B 1_555 1_555
C1B C4B 1_555 1_555
C2B C1B 1_555 1_555
C3B C5B 1_555 1_555
H1B C3B 1_555 1_555
Zn1K O4K 1_555 1_555
O3P C2P 1_555 1_555
O4P Zn1K 1_555 1_555
C1P C2P 1_555 1_555
C2P O4P 1_555 1_555
C3P C1P 1_555 1_555
H1P C3P 1_555 1_555
C4J C1P 1_555 1_555
H2J C4J 1_555 1_555
C5J C3P 1_555 1_555
H3J C5J 1_555 1_555
O5P C8K 1_555 1_555
N1K Zn1K 1_555 1_555
C6P N1K 1_555 1_555
H4P C6P 1_555 1_555
C7P C6P 1_555 1_555
H5P C7P 1_555 1_555
C8K C9K 1_555 1_555
C9K C7P 1_555 1_555
O3J C2J 1_555 1_555
O4J C2J 1_555 1_555
C1J C4J 1_555 1_555
C2J C1J 1_555 1_555
C3J C5J 1_555 1_555
H1J C3J 1_555 1_555
O5K C8K 1_555 1_555
C6K N1K 1_555 1_555
H4K C6K 1_555 1_555
C7K C9K 1_555 1_555
H5K C7K 1_555 1_555
Cr1A_2 O5A 1_555 1_555
Cr1B_2 O5T 1_555 1_555
Zn1B_2 O4S 1_555 1_555
Zn1C O3I 1_555 1_555
Zn1D O3K 1_555 1_555
Zn1E O3Q 1_555 1_555
Zn1F O3 1_555 1_555
Zn1G O3S 1_555 1_555
Zn1H O3T 1_555 1_555
Zn1J_2 O4Q 1_555 1_555
O3C Zn1I 1_555 1_555
O3D Zn1K 1_555 1_555
O3E Zn1J 1_555 1_555
O3F Zn1 1_555 1_555
O3G Zn1B 1_555 1_555
O3H Zn1A 1_555 1_555
O3L Zn1 1_555 1_555
O3M Zn1A 1_555 1_555
O3N Zn1B 1_555 1_555
O3U Zn1I 1_555 1_555
O3V Zn1J 1_555 1_555
O3W Zn1K 1_555 1_555
O4B_2 Zn1B 1_555 1_555
O4J_2 Zn1J 1_555 1_555
O4Q_2 Zn1J 1_555 1_555
O4S_2 Zn1B 1_555 1_555
O5A_2 Cr1A 1_555 1_555
O5K_2 Cr1B 1_555 1_555
O5P_2 Cr1A 1_555 1_555
O5T_2 Cr1B 1_555 1_555
C10A O6 1_555 1_555
C10B O6 1_555 1_555
C8 C9 1_555 1_555
C1T C3T 1_555 1_555
O5R Cr1A 1_555 1_555
C6R C7R 1_555 1_555
O3A Zn1H 1_555 1_555
C1S C3S 1_555 1_555
C6T C7T 1_555 1_555
C8B C9B 1_555 1_555
C8B O5S 1_555 1_555
C6S C7S 1_555 1_555
C8I C9I 1_555 1_555
C8I O5O 1_555 1_555
C1Q C3Q 1_555 1_555
C6O C7O 1_555 1_555
O3O Zn1C 1_555 1_555
C1K C3K 1_555 1_555
C8J C9J 1_555 1_555
C8J O5J 1_555 1_555
C6J C7J 1_555 1_555
O3R Zn1F 1_555 1_555
O3B Zn1G 1_555 1_555
O4B Zn1B_2 1_555 1_555
C1B C3B 1_555 1_555
O3P Zn1D 1_555 1_555
O5P Cr1A_2 1_555 1_555
O3J Zn1E 1_555 1_555
O4J Zn1J_2 1_555 1_555
C1J C3J 1_555 1_555
O5K Cr1B_2 1_555 1_555
C6K C7K 1_555 1_555

#END
