
#######################################################################
#
#                 Cambridge Crystallographic Data Centre
#                                CCDC 
#
#######################################################################
#
# If this CIF has been generated from an entry in the Cambridge 
# Structural Database, then it will include bibliographic, chemical, 
# crystal, experimental, refinement or atomic coordinate data resulting 
# from the CCDC's data processing and validation procedures.
#
#######################################################################

data_PULHOT
_chemical_formula_moiety         '(C6 H16 Ga1 Mn1 N2 O12 P3)n'
_symmetry_cell_setting           monoclinic
_symmetry_space_group_name_H-M   'P 21/n'
_symmetry_Int_Tables_number      14
_space_group_name_Hall           '-P 2yn'
loop_
_symmetry_equiv_pos_site_id
_symmetry_equiv_pos_as_xyz
1 x,y,z
2 1/2-x,1/2+y,1/2-z
3 -x,-y,-z
4 1/2+x,1/2-y,1/2+z
_cell_length_a                   10.193(1)
_cell_length_b                   14.276(1)
_cell_length_c                   10.380(1)
_cell_angle_alpha                90
_cell_angle_beta                 91.184(8)
_cell_angle_gamma                90
_cell_volume                     1510.13
loop_
_atom_site_label
_atom_site_type_symbol
_atom_site_fract_x
_atom_site_fract_y
_atom_site_fract_z
Ga1 Ga 0.11141(6) 0.60674(4) 0.60391(5)
O1 O 0.1222(4) 0.7282(3) 0.5589(4)
O2 O 0.2407(4) 0.5921(3) 0.7266(4)
O3 O -0.0436(4) 0.5780(2) 0.6774(4)
O4 O -0.1564(4) 0.4657(3) 0.5316(3)
P1 P 0.0219(1) 0.80083(9) 0.5019(1)
P2 P 0.3153(1) 0.50915(9) 0.7899(1)
P3 P -0.1144(1) 0.48092(8) 0.6739(1)
O5 O -0.0513(4) 0.8481(3) 0.6074(4)
O6 O 0.0927(4) 0.8627(3) 0.4094(4)
O7 O -0.0825(4) 0.7381(3) 0.4257(4)
O8 O 0.3191(5) 0.5218(3) 0.9315(4)
O9 O 0.4489(4) 0.4975(3) 0.7310(4)
O10 O 0.2388(4) 0.4172(3) 0.7509(4)
O11 O -0.0163(4) 0.4046(3) 0.7143(4)
O12 O -0.2319(4) 0.4835(3) 0.7559(4)
Mn1 Mn -0.11111(8) 0.99232(5) 0.62358(8)
H1 H -0.050(6) 0.690(4) 0.377(4)
H2 H 0.144(4) 0.409(5) 0.749(4)
Ga1B Ga -0.11141(6) 0.39326(4) 0.39609(5)
O4B O 0.1564(4) 0.5343(3) 0.4684(3)
O6B O -0.0927(4) 1.1373(3) 0.5906(4)
O8C O -0.1809(5) 0.9782(3) 0.4315(4)
O9A O 0.0511(4) 0.9975(3) 0.7690(4)
O12A O -0.2681(4) 0.9835(3) 0.7441(4)
Mn1A Mn -0.38889(8) 0.49232(5) 0.87642(8)
Mn1A_2 Mn 0.61111(8) 0.49232(5) 0.87642(8)
Mn1B Mn 0.11111(8) 1.00768(5) 0.37642(8)
Mn1C Mn 0.38889(8) 0.50768(5) 1.12358(8)
N1 N 0.9510(5) 0.2869(3) -0.0897(4)
N2 N 0.9515(5) 0.1625(3) 0.0775(5)
C1 C 0.9233(8) 0.3288(5) 0.0371(6)
C2 C 0.9083(7) 0.2501(4) 0.1351(6)
C3 C 0.8440(8) 0.2182(5) -0.1215(6)
C4 C 0.8578(7) 0.1355(5) -0.0303(6)
C5 C 1.0805(8) 0.2386(6) -0.0896(9)
C6 C 1.0863(7) 0.1697(5) 0.0230(7)
H3 H 0.9546 0.3386 -0.1545
H4 H 0.9533 0.1154 0.1489
H5 H 0.9981 0.3704 0.0643
H6 H 0.8409 0.3661 0.0312
H7 H 0.9637 0.2640 0.2137
H8 H 0.8146 0.2448 0.1596
H9 H 0.8523 0.1965 -0.2126
H10 H 0.7566 0.2486 -0.1107
H11 H 0.8930 0.0802 -0.0779
H12 H 0.7704 0.1195 0.0053
H13 H 1.1523 0.2856 -0.0799
H14 H 1.0901 0.2037 -0.1724
H15 H 1.1490 0.1935 0.0909
H16 H 1.1156 0.1072 -0.0076
loop_
_geom_bond_atom_site_label_1
_geom_bond_atom_site_label_2
_geom_bond_site_symmetry_1
_geom_bond_site_symmetry_2
Ga1 O1 1_555 1_555
O1 P1 1_555 1_555
O2 Ga1 1_555 1_555
O3 Ga1 1_555 1_555
O4 P3 1_555 1_555
P1 O5 1_555 1_555
P2 O2 1_555 1_555
P3 O3 1_555 1_555
O5 Mn1 1_555 1_555
O6 P1 1_555 1_555
O7 P1 1_555 1_555
O8 P2 1_555 1_555
O9 P2 1_555 1_555
O10 P2 1_555 1_555
O11 P3 1_555 1_555
O12 P3 1_555 1_555
Mn1 O6B 1_555 1_555
H1 O7 1_555 1_555
H2 O10 1_555 1_555
N1 C1 1_555 1_555
N2 C2 1_555 1_555
C1 C2 1_555 1_555
C2 H7 1_555 1_555
C3 N1 1_555 1_555
C4 N2 1_555 1_555
C5 N1 1_555 1_555
C6 N2 1_555 1_555
H3 N1 1_555 1_555
H4 N2 1_555 1_555
H5 C1 1_555 1_555
H6 C1 1_555 1_555
H8 C2 1_555 1_555
H9 C3 1_555 1_555
H10 C3 1_555 1_555
H11 C4 1_555 1_555
H12 C4 1_555 1_555
H13 C5 1_555 1_555
H14 C5 1_555 1_555
H15 C6 1_555 1_555
H16 C6 1_555 1_555
Ga1B O4 1_555 1_555
O4B Ga1 1_555 1_555
O8C Mn1 1_555 1_555
O9A Mn1 1_555 1_555
O12A Mn1 1_555 1_555
Mn1A O12 1_555 1_555
Mn1A_2 O9 1_555 1_555
Mn1B O6 1_555 1_555
Mn1C O8 1_555 1_555
C3 C4 1_555 1_555
C5 C6 1_555 1_555

#END
