
#######################################################################
#
#                 Cambridge Crystallographic Data Centre
#                                CCDC 
#
#######################################################################
#
# If this CIF has been generated from an entry in the Cambridge 
# Structural Database, then it will include bibliographic, chemical, 
# crystal, experimental, refinement or atomic coordinate data resulting 
# from the CCDC's data processing and validation procedures.
#
#######################################################################

data_LAJJAK
_chemical_formula_moiety         '(C15 H14 N8 O5 Zn2)n'
_symmetry_cell_setting           orthorhombic
_symmetry_space_group_name_H-M   'P n m a'
_symmetry_Int_Tables_number      62
_space_group_name_Hall           '-P 2ac 2n'
loop_
_symmetry_equiv_pos_site_id
_symmetry_equiv_pos_as_xyz
1 x,y,z
2 1/2-x,-y,1/2+z
3 1/2+x,1/2-y,1/2-z
4 -x,1/2+y,-z
5 -x,-y,-z
6 1/2+x,y,1/2-z
7 1/2-x,1/2+y,1/2+z
8 x,1/2-y,z
_cell_length_a                   10.0327(6)
_cell_length_b                   25.6510(12)
_cell_length_c                   9.5121(8)
_cell_angle_alpha                90
_cell_angle_beta                 90
_cell_angle_gamma                90
_cell_volume                     2447.93
loop_
_atom_site_label
_atom_site_type_symbol
_atom_site_fract_x
_atom_site_fract_y
_atom_site_fract_z
_atom_site_U_iso_or_equiv
_atom_site_thermal_displace_type
Zn1 Zn 0.39245(7) 0.45186(3) 0.07823(7) 0.0279 Uani
C1 C 0.1391(6) 0.4492(3) 0.2448(8) 0.0357 Uani
H1 H 0.1040 0.4245 0.1836 0.0430 Uiso
C2 C 0.2678(6) 0.5023(2) 0.3398(7) 0.0327 Uani
H2 H 0.3423 0.5225 0.3606 0.0390 Uiso
C3 C 0.3546(8) 0.3485(3) 0.1003(8) 0.0397 Uani
C4 C 0.3456(10) 0.2500 0.1085(10) 0.0337 Uani
H3 H 0.4261 0.2500 0.1571 0.0400 Uiso
C5 C 0.2854(7) 0.2972(2) 0.0721(7) 0.0297 Uani
C6 C 0.1639(7) 0.2963(3) 0.0057(9) 0.0417 Uani
H4 H 0.1234 0.3276 -0.0190 0.0500 Uiso
C7 C 0.1008(11) 0.2500 -0.0250(16) 0.0563 Uani
H5 H 0.0166 0.2500 -0.0659 0.0670 Uiso
N1 N 0.2615(5) 0.4691(2) 0.2307(6) 0.0333 Uani
N2 N 0.0738(5) 0.4674(2) 0.3510(6) 0.0323 Uani
N3 N 0.1568(5) 0.50316(19) 0.4140(5) 0.0260 Uani
O1 O 0.3233(5) 0.38481(17) 0.0178(5) 0.0420 Uani
O2 O 0.4330(5) 0.3532(2) 0.1985(6) 0.0537 Uani
C3G C 0.3546(8) 0.1515(3) 0.1003(8) 0.0397 Uani
C5G C 0.2854(7) 0.2028(2) 0.0721(7) 0.0297 Uani
C6G C 0.1639(7) 0.2037(3) 0.0057(9) 0.0417 Uani
H4G H 0.1234 0.1724 -0.0190 0.0500 Uiso
O1G O 0.3233(5) 0.11519(17) 0.0178(5) 0.0420 Uani
O2G O 0.4330(5) 0.1468(2) 0.1985(6) 0.0537 Uani
Zn1G Zn 0.39245(7) 0.04814(3) 0.07823(7) 0.0279 Uani
C1G C 0.1391(6) 0.0508(3) 0.2448(8) 0.0357 Uani
H1G H 0.1040 0.0755 0.1836 0.0430 Uiso
C2G C 0.2678(6) -0.0023(2) 0.3398(7) 0.0327 Uani
H2G H 0.3423 -0.0225 0.3606 0.0390 Uiso
N1G N 0.2615(5) 0.0309(2) 0.2307(6) 0.0333 Uani
N2G N 0.0738(5) 0.0326(2) 0.3510(6) 0.0323 Uani
N3G N 0.1568(5) -0.00316(19) 0.4140(5) 0.0260 Uani
Zn1A Zn 0.10755(7) 0.54814(3) 0.57823(7) 0.0279 Uani
Zn1B Zn -0.10755(7) 0.04814(3) 0.42177(7) 0.0279 Uani
Zn1E Zn -0.10755(7) 0.45186(3) 0.42177(7) 0.0279 Uani
Zn1F Zn 0.10755(7) -0.04814(3) 0.57823(7) 0.0279 Uani
N2B N 0.5738(5) 0.0326(2) 0.1490(6) 0.0323 Uani
N2E N 0.5738(5) 0.4674(2) 0.1490(6) 0.0323 Uani
N3A N 0.3432(5) 0.49684(19) -0.0860(5) 0.0260 Uani
N3F N 0.3432(5) 0.00316(19) -0.0860(5) 0.0260 Uani
C8 C 0.3808(10) 0.3859(4) -0.4001(10) 0.0627 Uani
C9 C 0.2318(12) 0.3306(5) -0.5049(11) 0.0870 Uani
H6 H 0.2643 0.2960 -0.5278 0.1040 Uiso
H7 H 0.1550 0.3384 -0.5631 0.1040 Uiso
C10 C 0.199(2) 0.3351(8) -0.3521(15) 0.1677 Uani
H8 H 0.1138 0.3524 -0.3382 0.2030 Uiso
H9 H 0.1961 0.3011 -0.3075 0.2030 Uiso
N4 N 0.3320(9) 0.3682(4) -0.5218(9) 0.0893 Uani
H10 H 0.3594 0.3788 -0.6026 0.1070 Uiso
N5 N 0.3066(13) 0.3659(4) -0.2987(10) 0.1123 Uani
H11 H 0.3214 0.3709 -0.2106 0.1350 Uiso
O3 O 0.4788(9) 0.4147(4) -0.3878(10) 0.1130 Uani
loop_
_atom_site_aniso_label
_atom_site_aniso_U_11
_atom_site_aniso_U_22
_atom_site_aniso_U_33
_atom_site_aniso_U_23
_atom_site_aniso_U_13
_atom_site_aniso_U_12
Zn1 0.0224(5) 0.0302(5) 0.0311(5) 0.0034(3) -0.0009(3) -0.0085(3)
C1 0.021(3) 0.044(4) 0.042(4) -0.017(3) 0.003(3) -0.016(3)
C2 0.029(3) 0.031(3) 0.038(4) -0.006(3) 0.005(3) -0.010(3)
C3 0.050(5) 0.031(4) 0.038(4) -0.007(3) 0.011(4) -0.008(3)
C4 0.035(5) 0.036(5) 0.030(5) 0.000 0.003(4) 0.000
C5 0.036(4) 0.020(3) 0.033(4) 0.001(3) 0.008(3) 0.000(3)
C6 0.044(4) 0.027(3) 0.054(5) -0.002(3) -0.002(4) 0.001(3)
C7 0.035(6) 0.041(6) 0.093(10) 0.000 -0.021(6) 0.000
N1 0.026(3) 0.039(3) 0.035(3) -0.007(3) 0.005(2) -0.010(2)
N2 0.026(3) 0.033(3) 0.038(3) -0.008(3) 0.007(3) -0.013(2)
N3 0.017(3) 0.027(3) 0.034(3) -0.005(2) 0.002(2) -0.010(2)
O1 0.065(3) 0.023(2) 0.038(3) 0.001(2) -0.002(3) -0.007(2)
O2 0.049(3) 0.046(3) 0.066(4) 0.000(3) -0.012(3) -0.017(3)
C3G 0.05 0.031 0.038 0.007 0.011 0.008
C5G 0.036 0.02 0.033 -0.001 0.008 0
C6G 0.044 0.027 0.054 0.002 -0.002 -0.001
O1G 0.065 0.023 0.038 -0.001 -0.002 0.007
O2G 0.049 0.046 0.066 0 -0.012 0.017
Zn1G 0.0224 0.0302 0.0311 -0.0034 -0.0009 0.0085
C1G 0.021 0.044 0.042 0.017 0.003 0.016
C2G 0.029 0.031 0.038 0.006 0.005 0.01
N1G 0.026 0.039 0.035 0.007 0.005 0.01
N2G 0.026 0.033 0.038 0.008 0.007 0.013
N3G 0.017 0.027 0.034 0.005 0.002 0.01
Zn1A 0.0224 0.0302 0.0311 -0.0034 0.0009 -0.0085
Zn1B 0.0224 0.0302 0.0311 0.0034 0.0009 0.0085
Zn1E 0.0224 0.0302 0.0311 -0.0034 0.0009 -0.0085
Zn1F 0.0224 0.0302 0.0311 0.0034 0.0009 0.0085
N2B 0.026 0.033 0.038 -0.008 -0.007 0.013
N2E 0.026 0.033 0.038 0.008 -0.007 -0.013
N3A 0.017 0.027 0.034 0.005 -0.002 -0.01
N3F 0.017 0.027 0.034 -0.005 -0.002 0.01
C8 0.065(6) 0.067(6) 0.056(6) -0.008(5) 0.000(5) -0.003(5)
C9 0.109(9) 0.101(9) 0.051(7) -0.001(6) -0.008(6) -0.030(7)
C10 0.219(19) 0.22(2) 0.064(9) -0.003(11) 0.029(11) -0.132(16)
N4 0.076(6) 0.145(9) 0.047(5) -0.007(6) -0.011(4) -0.033(6)
N5 0.164(10) 0.123(9) 0.050(5) -0.015(6) 0.012(6) -0.051(8)
O3 0.105(7) 0.120(7) 0.114(7) -0.028(6) -0.025(5) -0.017(6)
loop_
_geom_bond_atom_site_label_1
_geom_bond_atom_site_label_2
_geom_bond_site_symmetry_1
_geom_bond_site_symmetry_2
Zn1 N1 1_555 1_555
C1 H1 1_555 1_555
C2 H2 1_555 1_555
C3 C5 1_555 1_555
C4 H3 1_555 1_555
C5 C4 1_555 1_555
C6 C5 1_555 1_555
H4 C6 1_555 1_555
C7 C6 1_555 1_555
H5 C7 1_555 1_555
N1 C1 1_555 1_555
N2 C1 1_555 1_555
N3 C2 1_555 1_555
O1 Zn1 1_555 1_555
O2 C3 1_555 1_555
C8 N4 1_555 1_555
C9 H6 1_555 1_555
H7 C9 1_555 1_555
C10 C9 1_555 1_555
H8 C10 1_555 1_555
H9 C10 1_555 1_555
N4 C9 1_555 1_555
H10 N4 1_555 1_555
N5 C8 1_555 1_555
H11 N5 1_555 1_555
O3 C8 1_555 1_555
C3G C5G 1_555 1_555
C5G C4 1_555 1_555
C6G C7 1_555 1_555
H4G C6G 1_555 1_555
O1G C3G 1_555 1_555
O2G C3G 1_555 1_555
Zn1G O1G 1_555 1_555
C1G H1G 1_555 1_555
C2G H2G 1_555 1_555
N1G Zn1G 1_555 1_555
N2G C1G 1_555 1_555
N3G C2G 1_555 1_555
Zn1A N3 1_555 1_555
Zn1B N2G 1_555 1_555
Zn1E N2 1_555 1_555
Zn1F N3G 1_555 1_555
N2B Zn1G 1_555 1_555
N2E Zn1 1_555 1_555
N3A Zn1 1_555 1_555
N3F Zn1G 1_555 1_555
C2 N1 1_555 1_555
C3 O1 1_555 1_555
N2 N3 1_555 1_555
C10 N5 1_555 1_555
C5G C6G 1_555 1_555
C1G N1G 1_555 1_555
C2G N1G 1_555 1_555
N2G N3G 1_555 1_555

#END
