
#######################################################################
#
#                 Cambridge Crystallographic Data Centre
#                                CCDC 
#
#######################################################################
#
# If this CIF has been generated from an entry in the Cambridge 
# Structural Database, then it will include bibliographic, chemical, 
# crystal, experimental, refinement or atomic coordinate data resulting 
# from the CCDC's data processing and validation procedures.
#
#######################################################################

data_EWENUR
_chemical_formula_moiety         'C65 H17 N6 O8 Zn2 1+'
_symmetry_cell_setting           tetragonal
_symmetry_space_group_name_H-M   'I 4 m m'
_symmetry_Int_Tables_number      107
_space_group_name_Hall           'I 4 -2'
loop_
_symmetry_equiv_pos_site_id
_symmetry_equiv_pos_as_xyz
1 x,y,z
2 -y,x,z
3 -x,-y,z
4 y,-x,z
5 -x,y,z
6 x,-y,z
7 -y,-x,z
8 y,x,z
9 1/2+x,1/2+y,1/2+z
10 1/2-y,1/2+x,1/2+z
11 1/2-x,1/2-y,1/2+z
12 1/2+y,1/2-x,1/2+z
13 1/2-x,1/2+y,1/2+z
14 1/2+x,1/2-y,1/2+z
15 1/2-y,1/2-x,1/2+z
16 1/2+y,1/2+x,1/2+z
_cell_length_a                   27.373(2)
_cell_length_b                   27.373(2)
_cell_length_c                   18.5827(17)
_cell_angle_alpha                90
_cell_angle_beta                 90
_cell_angle_gamma                90
_cell_volume                     13923.7
loop_
_atom_site_label
_atom_site_type_symbol
_atom_site_fract_x
_atom_site_fract_y
_atom_site_fract_z
_atom_site_U_iso_or_equiv
_atom_site_thermal_displace_type
Zn2 Zn 0.26369(3) 0.10911(3) 0.74412(5) 0.0560 Uani
N1 N 0.3193(2) 0.1281(3) 0.8047(4) 0.0600 Uani
C1 C 0.3255(4) 0.1705(3) 0.8358(6) 0.0763 Uani
H1 H 0.3009 0.1950 0.8366 0.0920 Uiso
N2 N 0.3704(3) 0.1769(3) 0.8671(5) 0.0847 Uani
C2 C 0.3964(3) 0.1357(3) 0.8498(5) 0.0667 Uani
H2 H 0.4295 0.1291 0.8619 0.0800 Uiso
C3 C 0.3659(4) 0.1062(3) 0.8122(7) 0.0977 Uani
H3 H 0.3746 0.0751 0.7934 0.1170 Uiso
N3 N 0.2802(5) 0.1251(5) 0.6334(6) 0.0527 Uani
C4 C 0.2605(6) 0.1015(5) 0.5719(8) 0.0350 Uani
H4 H 0.2373 0.0756 0.5722 0.0420 Uiso
N4 N 0.2815(7) 0.1233(7) 0.5098(6) 0.0463 Uani
C5 C 0.3142(5) 0.1604(7) 0.5330(9) 0.0857 Uani
H5 H 0.3332 0.1809 0.5028 0.1030 Uiso
C6 C 0.3134(5) 0.1615(5) 0.6094(9) 0.0387 Uani
H6 H 0.3318 0.1828 0.6392 0.0470 Uiso
N5 N 0.20507(19) 0.14923(17) 0.7792(4) 0.0860 Uani
C7 C 0.1877(2) 0.1877(2) 0.7411(4) 0.0440 Uani
H7 H 0.1999 0.1999 0.6968 0.0530 Uiso
C8 C 0.1846(2) 0.1465(3) 0.8449(4) 0.0997 Uani
H8 H 0.1928 0.1248 0.8829 0.1200 Uiso
N5G N 0.14923(17) 0.20507(19) 0.7792(4) 0.0860 Uani
C8G C 0.1465(3) 0.1846(2) 0.8449(4) 0.0997 Uani
H8G H 0.1248 0.1928 0.8829 0.1200 Uiso
O1 O 0.16704(17) 0.04254(17) 0.5355(3) 0.0747 Uani
C9 C 0.0676(2) 0.0676(2) 0.4087(3) 0.0863 Uani
H9 H 0.0547 0.0547 0.3652 0.1030 Uiso
C10 C 0.11002(18) 0.0480(3) 0.4380(3) 0.0593 Uani
C11 C 0.1289(2) 0.0669(5) 0.5016(3) 0.0637 Uani
C12 C 0.1054(4) 0.1054(4) 0.5359(4) 0.0853 Uani
C13 C 0.0630(5) 0.1251(2) 0.5066(5) 0.0637 Uani
C14 C 0.0441(4) 0.10618(12) 0.4429(4) 0.0593 Uani
C15 C 0.1208(5) 0.1208(5) 0.6048(9) 0.1170 Uani
C16 C 0.1582(3) 0.0000(8) 0.5737(5) 0.0567 Uani
C17 C 0.1361(3) 0.0000(3) 0.4003(5) 0.0927 Uani
H10 H 0.1714 -0.0000 0.4139 0.1110 Uiso
C18 C 0.1329(4) -0.0000(3) 0.3197(5) 0.1183 Uani
O1A O -0.04254(17) 0.16704(17) 0.5355(3) 0.0747 Uani
C9A C -0.0676(2) 0.0676(2) 0.4087(3) 0.0863 Uani
H9A H -0.0547 0.0547 0.3652 0.1030 Uiso
C10A C -0.0480(3) 0.11002(18) 0.4380(3) 0.0593 Uani
C11A C -0.0669(5) 0.1289(2) 0.5016(3) 0.0637 Uani
C12A C -0.1054(4) 0.1054(4) 0.5359(4) 0.0853 Uani
C13A C -0.1251(2) 0.0630(5) 0.5066(5) 0.0637 Uani
C14A C -0.10618(12) 0.0441(4) 0.4429(4) 0.0593 Uani
C15A C -0.1208(5) 0.1208(5) 0.6048(9) 0.1170 Uani
C16A C 0.0000(8) 0.1582(3) 0.5737(5) 0.0567 Uani
C17A C 0.0000(3) 0.1361(3) 0.4003(5) 0.0927 Uani
H10A H -0.0000 0.1714 0.4139 0.1110 Uiso
C18A C -0.0000(3) 0.1329(4) 0.3197(5) 0.1183 Uani
O1C O 0.04254(17) -0.16704(17) 0.5355(3) 0.0747 Uani
C9C C 0.0676(2) -0.0676(2) 0.4087(3) 0.0863 Uani
H9C H 0.0547 -0.0547 0.3652 0.1030 Uiso
C10C C 0.0480(3) -0.11002(18) 0.4380(3) 0.0593 Uani
C11C C 0.0669(5) -0.1289(2) 0.5016(3) 0.0637 Uani
C12C C 0.1054(4) -0.1054(4) 0.5359(4) 0.0853 Uani
C13C C 0.1251(2) -0.0630(5) 0.5066(5) 0.0637 Uani
C14C C 0.10618(12) -0.0441(4) 0.4429(4) 0.0593 Uani
C15C C 0.1208(5) -0.1208(5) 0.6048(9) 0.1170 Uani
C16C C -0.0000(8) -0.1582(3) 0.5737(5) 0.0567 Uani
C17C C 0.0000(3) -0.1361(3) 0.4003(5) 0.0927 Uani
H10C H -0.0000 -0.1714 0.4139 0.1110 Uiso
C18C C -0.0000(3) -0.1329(4) 0.3197(5) 0.1183 Uani
O1E O 0.16704(17) -0.04254(17) 0.5355(3) 0.0747 Uani
C10E C 0.11002(18) -0.0480(3) 0.4380(3) 0.0593 Uani
C11E C 0.1289(2) -0.0669(5) 0.5016(3) 0.0637 Uani
C13E C 0.0630(5) -0.1251(2) 0.5066(5) 0.0637 Uani
C14E C 0.0441(4) -0.10618(12) 0.4429(4) 0.0593 Uani
O1G O 0.04254(17) 0.16704(17) 0.5355(3) 0.0747 Uani
C10G C 0.0480(3) 0.11002(18) 0.4380(3) 0.0593 Uani
C11G C 0.0669(5) 0.1289(2) 0.5016(3) 0.0637 Uani
C13G C 0.1251(2) 0.0630(5) 0.5066(5) 0.0637 Uani
C14G C 0.10618(12) 0.0441(4) 0.4429(4) 0.0593 Uani
O1B O -0.16704(17) -0.04254(17) 0.5355(3) 0.0747 Uani
C9B C -0.0676(2) -0.0676(2) 0.4087(3) 0.0863 Uani
H9B H -0.0547 -0.0547 0.3652 0.1030 Uiso
C10B C -0.11002(18) -0.0480(3) 0.4380(3) 0.0593 Uani
C11B C -0.1289(2) -0.0669(5) 0.5016(3) 0.0637 Uani
C12B C -0.1054(4) -0.1054(4) 0.5359(4) 0.0853 Uani
C13B C -0.0630(5) -0.1251(2) 0.5066(5) 0.0637 Uani
C14B C -0.0441(4) -0.10618(12) 0.4429(4) 0.0593 Uani
C15B C -0.1208(5) -0.1208(5) 0.6048(9) 0.1170 Uani
C16B C -0.1582(3) 0.0000(8) 0.5737(5) 0.0567 Uani
C17B C -0.1361(3) 0.0000(3) 0.4003(5) 0.0927 Uani
H10B H -0.1714 -0.0000 0.4139 0.1110 Uiso
C18B C -0.1329(4) -0.0000(3) 0.3197(5) 0.1183 Uani
O1D O -0.16704(17) 0.04254(17) 0.5355(3) 0.0747 Uani
C10D C -0.11002(18) 0.0480(3) 0.4380(3) 0.0593 Uani
C11D C -0.1289(2) 0.0669(5) 0.5016(3) 0.0637 Uani
C13D C -0.0630(5) 0.1251(2) 0.5066(5) 0.0637 Uani
C14D C -0.0441(4) 0.10618(12) 0.4429(4) 0.0593 Uani
O1F O -0.04254(17) -0.16704(17) 0.5355(3) 0.0747 Uani
C10F C -0.0480(3) -0.11002(18) 0.4380(3) 0.0593 Uani
C11F C -0.0669(5) -0.1289(2) 0.5016(3) 0.0637 Uani
C13F C -0.1251(2) -0.0630(5) 0.5066(5) 0.0637 Uani
C14F C -0.10618(12) -0.0441(4) 0.4429(4) 0.0593 Uani
Zn1 Zn 0.26412(3) 0.10989(3) 0.42238(5) 0.0592 Uani
loop_
_atom_site_aniso_label
_atom_site_aniso_U_11
_atom_site_aniso_U_22
_atom_site_aniso_U_33
_atom_site_aniso_U_23
_atom_site_aniso_U_13
_atom_site_aniso_U_12
Zn2 0.0480(6) 0.0426(6) 0.0774(10) -0.0104(6) -0.0132(6) 0.0069(4)
N1 0.057(5) 0.057(4) 0.066(5) -0.035(4) -0.022(4) 0.007(4)
C1 0.076(7) 0.040(5) 0.113(7) -0.003(5) -0.066(6) 0.020(3)
N2 0.055(5) 0.043(5) 0.156(9) -0.033(5) 0.010(5) 0.004(4)
C2 0.079(6) 0.023(4) 0.098(8) -0.018(4) -0.046(5) 0.005(4)
C3 0.081(8) 0.022(4) 0.190(13) 0.017(6) -0.031(8) 0.015(4)
N3 0.056(5) 0.037(4) 0.065(9) -0.004(5) -0.008(5) -0.007(4)
C4 0.032(2) 0.031(3) 0.042(4) -0.005(4) 0.015(3) 0.010(2)
N4 0.040(4) 0.031(5) 0.068(8) -0.021(6) -0.004(6) 0.002(4)
C5 0.041(8) 0.056(8) 0.160(19) -0.014(9) 0.015(9) 0.000(6)
C6 0.033(6) 0.028(7) 0.055(10) 0.010(6) -0.012(5) -0.012(5)
N5 0.067(5) 0.029(4) 0.162(8) -0.020(4) -0.036(5) 0.022(3)
C7 0.038(3) 0.038(3) 0.056(7) -0.019(4) -0.019(4) 0.011(4)
C8 0.119(9) 0.091(8) 0.089(8) -0.016(7) -0.034(6) 0.062(8)
N5G 0.029 0.067 0.162 -0.036 -0.02 0.022
C8G 0.091 0.119 0.089 -0.034 -0.016 0.062
O1 0.048(3) 0.057(3) 0.119(5) 0.005(3) -0.015(3) -0.009(2)
C9 0.085(6) 0.085(6) 0.089(12) -0.003(6) -0.003(6) 0.014(8)
C10 0.046(10) 0.053(10) 0.079(7) -0.011(9) 0.037(10) -0.011(4)
C11 0.056(4) 0.056(4) 0.079(4) -0.002(4) -0.006(4) -0.013(3)
C12 0.086(7) 0.086(7) 0.084(11) 0.008(7) 0.008(7) 0.040(8)
C13 0.056(4) 0.056(4) 0.079(4) -0.002(4) -0.006(4) -0.013(3)
C14 0.046(10) 0.053(10) 0.079(7) -0.011(9) 0.037(10) -0.011(4)
C15 0.108(6) 0.108(6) 0.135(12) -0.040(6) -0.040(6) 0.027(8)
C16 0.051(5) 0.042(4) 0.077(9) 0.000 0.024(7) 0.000
C17 0.065(8) 0.092(10) 0.121(15) 0.000 0.047(9) 0.000
C18 0.099(11) 0.179(19) 0.077(13) 0.000 0.042(10) 0.000
O1A 0.057 0.048 0.119 -0.015 -0.005 0.009
C9A 0.085 0.085 0.089 -0.003 0.003 -0.014
C10A 0.053 0.046 0.079 0.037 0.011 0.011
C11A 0.056 0.056 0.079 -0.006 0.002 0.013
C12A 0.086 0.086 0.084 0.008 -0.008 -0.04
C13A 0.056 0.056 0.079 -0.006 0.002 0.013
C14A 0.053 0.046 0.079 0.037 0.011 0.011
C15A 0.108 0.108 0.135 -0.04 0.04 -0.027
C16A 0.042 0.051 0.077 0.024 0 0
C17A 0.092 0.065 0.121 0.047 0 0
C18A 0.179 0.099 0.077 0.042 0 0
O1C 0.057 0.048 0.119 0.015 0.005 0.009
C9C 0.085 0.085 0.089 0.003 -0.003 -0.014
C10C 0.053 0.046 0.079 -0.037 -0.011 0.011
C11C 0.056 0.056 0.079 0.006 -0.002 0.013
C12C 0.086 0.086 0.084 -0.008 0.008 -0.04
C13C 0.056 0.056 0.079 0.006 -0.002 0.013
C14C 0.053 0.046 0.079 -0.037 -0.011 0.011
C15C 0.108 0.108 0.135 0.04 -0.04 -0.027
C16C 0.042 0.051 0.077 -0.024 0 0
C17C 0.092 0.065 0.121 -0.047 0 0
C18C 0.179 0.099 0.077 -0.042 0 0
O1E 0.048 0.057 0.119 -0.005 -0.015 0.009
C10E 0.046 0.053 0.079 0.011 0.037 0.011
C11E 0.056 0.056 0.079 0.002 -0.006 0.013
C13E 0.056 0.056 0.079 0.002 -0.006 0.013
C14E 0.046 0.053 0.079 0.011 0.037 0.011
O1G 0.057 0.048 0.119 -0.015 0.005 -0.009
C10G 0.053 0.046 0.079 0.037 -0.011 -0.011
C11G 0.056 0.056 0.079 -0.006 -0.002 -0.013
C13G 0.056 0.056 0.079 -0.006 -0.002 -0.013
C14G 0.053 0.046 0.079 0.037 -0.011 -0.011
O1B 0.048 0.057 0.119 -0.005 0.015 -0.009
C9B 0.085 0.085 0.089 0.003 0.003 0.014
C10B 0.046 0.053 0.079 0.011 -0.037 -0.011
C11B 0.056 0.056 0.079 0.002 0.006 -0.013
C12B 0.086 0.086 0.084 -0.008 -0.008 0.04
C13B 0.056 0.056 0.079 0.002 0.006 -0.013
C14B 0.046 0.053 0.079 0.011 -0.037 -0.011
C15B 0.108 0.108 0.135 0.04 0.04 0.027
C16B 0.051 0.042 0.077 0 -0.024 0
C17B 0.065 0.092 0.121 0 -0.047 0
C18B 0.099 0.179 0.077 0 -0.042 0
O1D 0.048 0.057 0.119 0.005 0.015 0.009
C10D 0.046 0.053 0.079 -0.011 -0.037 0.011
C11D 0.056 0.056 0.079 -0.002 0.006 0.013
C13D 0.056 0.056 0.079 -0.002 0.006 0.013
C14D 0.046 0.053 0.079 -0.011 -0.037 0.011
O1F 0.057 0.048 0.119 0.015 -0.005 -0.009
C10F 0.053 0.046 0.079 -0.037 0.011 -0.011
C11F 0.056 0.056 0.079 0.006 0.002 -0.013
C13F 0.056 0.056 0.079 0.006 0.002 -0.013
C14F 0.053 0.046 0.079 -0.037 0.011 -0.011
Zn1 0.0480(6) 0.0424(6) 0.0872(11) 0.0154(6) 0.0213(6) 0.0072(5)
loop_
_geom_bond_atom_site_label_1
_geom_bond_atom_site_label_2
_geom_bond_site_symmetry_1
_geom_bond_site_symmetry_2
N1 C1 1_555 1_555
C1 H1 1_555 1_555
N2 C1 1_555 1_555
C2 N2 1_555 1_555
H2 C2 1_555 1_555
C3 N1 1_555 1_555
H3 C3 1_555 1_555
N3 C4 1_555 1_555
C4 H4 1_555 1_555
N4 C4 1_555 1_555
C5 N4 1_555 1_555
H5 C5 1_555 1_555
C6 N3 1_555 1_555
H6 C6 1_555 1_555
N5 C7 1_555 1_555
C7 H7 1_555 1_555
C8 N5 1_555 1_555
H8 C8 1_555 1_555
O1 C11 1_555 1_555
C9 H9 1_555 1_555
C10 C9 1_555 1_555
C11 C10 1_555 1_555
C12 C11 1_555 1_555
C13 C12 1_555 1_555
C14 C9 1_555 1_555
C15 C12 1_555 1_555
C16 O1 1_555 1_555
C17 C10 1_555 1_555
H10 C17 1_555 1_555
C18 C17 1_555 1_555
N5G C7 1_555 1_555
C8G C8 1_555 1_555
H8G C8G 1_555 1_555
O1A C11A 1_555 1_555
C9A H9A 1_555 1_555
C10A C9A 1_555 1_555
C11A C10A 1_555 1_555
C12A C11A 1_555 1_555
C13A C12A 1_555 1_555
C14A C9A 1_555 1_555
C15A C12A 1_555 1_555
C16A O1A 1_555 1_555
C17A C14 1_555 1_555
H10A C17A 1_555 1_555
C18A C17A 1_555 1_555
O1C C11C 1_555 1_555
C9C H9C 1_555 1_555
C10C C9C 1_555 1_555
C11C C10C 1_555 1_555
C12C C11C 1_555 1_555
C13C C12C 1_555 1_555
C14C C17 1_555 1_555
C15C C12C 1_555 1_555
C16C O1C 1_555 1_555
C17C C10C 1_555 1_555
H10C C17C 1_555 1_555
C18C C17C 1_555 1_555
O1E C16 1_555 1_555
C10E C17 1_555 1_555
C11E C12C 1_555 1_555
C13E O1C 1_555 1_555
C14E C9C 1_555 1_555
O1G C13 1_555 1_555
C10G C9 1_555 1_555
C11G C12 1_555 1_555
C13G O1 1_555 1_555
C14G C9 1_555 1_555
O1B C11B 1_555 1_555
C9B H9B 1_555 1_555
C10B C9B 1_555 1_555
C11B C10B 1_555 1_555
C12B C11B 1_555 1_555
C13B C12B 1_555 1_555
C14B C17C 1_555 1_555
C15B C12B 1_555 1_555
C16B O1B 1_555 1_555
C17B C14A 1_555 1_555
H10B C17B 1_555 1_555
C18B C17B 1_555 1_555
O1D C13A 1_555 1_555
C10D C9A 1_555 1_555
C11D C12A 1_555 1_555
C13D O1A 1_555 1_555
C14D C9A 1_555 1_555
O1F C16C 1_555 1_555
C10F C17C 1_555 1_555
C11F C12B 1_555 1_555
C13F O1B 1_555 1_555
C14F C9B 1_555 1_555
C2 C3 1_555 1_555
C5 C6 1_555 1_555
C10 C13G 1_555 1_555
C11 C14G 1_555 1_555
C12 C13G 1_555 1_555
C13 C14 1_555 1_555
C13 C10G 1_555 1_555
C14 C11G 1_555 1_555
C17 C14G 1_555 1_555
N5G C8G 1_555 1_555
C10A C17A 1_555 1_555
C10A C13D 1_555 1_555
C11A C14D 1_555 1_555
C12A C13D 1_555 1_555
C13A C14A 1_555 1_555
C13A C10D 1_555 1_555
C14A C11D 1_555 1_555
C16A O1G 1_555 1_555
C17A C10G 1_555 1_555
C17A C14D 1_555 1_555
C9C C14C 1_555 1_555
C9C C10E 1_555 1_555
C10C C13E 1_555 1_555
C11C C14E 1_555 1_555
C12C C13E 1_555 1_555
C13C C14C 1_555 1_555
C13C O1E 1_555 1_555
C13C C10E 1_555 1_555
C14C C11E 1_555 1_555
C17C C14E 1_555 1_555
O1E C11E 1_555 1_555
C10E C11E 1_555 1_555
C13E C14E 1_555 1_555
O1G C11G 1_555 1_555
C10G C11G 1_555 1_555
C13G C14G 1_555 1_555
C9B C14B 1_555 1_555
C9B C10F 1_555 1_555
C10B C17B 1_555 1_555
C10B C13F 1_555 1_555
C11B C14F 1_555 1_555
C12B C13F 1_555 1_555
C13B C14B 1_555 1_555
C13B O1F 1_555 1_555
C13B C10F 1_555 1_555
C14B C11F 1_555 1_555
C16B O1D 1_555 1_555
C17B C10D 1_555 1_555
C17B C14F 1_555 1_555
O1D C11D 1_555 1_555
C10D C11D 1_555 1_555
C13D C14D 1_555 1_555
O1F C11F 1_555 1_555
C10F C11F 1_555 1_555
C13F C14F 1_555 1_555

#END
