
#######################################################################
#
#                 Cambridge Crystallographic Data Centre
#                                CCDC 
#
#######################################################################
#
# If this CIF has been generated from an entry in the Cambridge 
# Structural Database, then it will include bibliographic, chemical, 
# crystal, experimental, refinement or atomic coordinate data resulting 
# from the CCDC's data processing and validation procedures.
#
#######################################################################

data_QUSQIG
_chemical_formula_moiety         '(C68 H48 Ir2 N8 O10 Zn1)n'
_symmetry_cell_setting           tetragonal
_symmetry_space_group_name_H-M   'I 41 c d'
_symmetry_Int_Tables_number      110
_space_group_name_Hall           'I 4bw -2c'
loop_
_symmetry_equiv_pos_site_id
_symmetry_equiv_pos_as_xyz
1 x,y,z
2 -y,1/2+x,1/4+z
3 -x,-y,z
4 y,1/2-x,1/4+z
5 -x,y,1/2+z
6 x,-y,1/2+z
7 1/2-y,-x,1/4+z
8 1/2+y,x,1/4+z
9 1/2+x,1/2+y,1/2+z
10 1/2-y,x,3/4+z
11 1/2-x,1/2-y,1/2+z
12 1/2+y,-x,3/4+z
13 1/2-x,1/2+y,z
14 1/2+x,1/2-y,z
15 -y,1/2-x,3/4+z
16 y,1/2+x,3/4+z
_cell_length_a                   17.14298(12)
_cell_length_b                   17.14298(12)
_cell_length_c                   49.0687(6)
_cell_angle_alpha                90
_cell_angle_beta                 90
_cell_angle_gamma                90
_cell_volume                     14420.4
loop_
_atom_site_label
_atom_site_type_symbol
_atom_site_fract_x
_atom_site_fract_y
_atom_site_fract_z
Ir1 Ir 0.784288(18) 0.707186(17) 0.383080(14)
Zn1 Zn 0.5000 0.5000 0.26488(3)
O1 O 0.9427(4) 0.6230(4) 0.47862(13)
O2 O 0.9121(4) 0.4998(4) 0.48970(11)
O3 O 0.5669(7) 0.6330(5) 0.30030(19)
O4 O 0.5826(4) 0.5059(4) 0.29202(12)
C1 C 0.8562(5) 0.5528(5) 0.44997(15)
C2 C 0.6751(7) 0.7167(7) 0.4317(2)
H1 H 0.7018 0.6735 0.4383
C3 C 0.6794(7) 0.8359(7) 0.3707(3)
C4 C 0.6308(5) 0.5590(6) 0.33291(16)
C5 C 0.7431(7) 0.7945(6) 0.3590(2)
C6 C 0.7132(4) 0.5481(5) 0.38032(19)
C7 C 0.7693(9) 0.8145(6) 0.3325(2)
H2 H 0.8109 0.7882 0.3245
C8 C 0.9330(6) 0.7885(4) 0.3826(3)
C9 C 0.6161(7) 0.7481(9) 0.4472(3)
H3 H 0.6048 0.7273 0.4642
C10 C 0.6438(9) 0.8962(7) 0.3567(3)
H4 H 0.6017 0.9228 0.3642
C11 C 0.9246(6) 0.8744(6) 0.4293(2)
H5 H 0.9237 0.9026 0.4455
C12 C 0.8109(6) 0.4905(6) 0.44593(16)
H6 H 0.8112 0.4499 0.4585
N1 N 0.8076(4) 0.6103(3) 0.40930(13)
C13 C 0.6719(5) 0.6226(5) 0.34352(16)
H7 H 0.6718 0.6697 0.3341
C14 C 0.6703(5) 0.4849(6) 0.37080(17)
H8 H 0.6693 0.4385 0.3807
C15 C 0.9350(7) 0.6255(7) 0.3189(2)
H9 H 0.9339 0.5876 0.3053
C16 C 0.8642(5) 0.7822(5) 0.39848(17)
N2 N 0.7113(3) 0.6168(4) 0.36701(13)
C17 C 0.6724(10) 0.9157(7) 0.3316(3)
H10 H 0.6513 0.9586 0.3226
C18 C 0.5898(7) 0.5677(6) 0.30593(17)
C19 C 0.6514(7) 0.8058(7) 0.3977(2)
C20 C 0.7640(6) 0.4859(6) 0.42335(17)
H11 H 0.7340 0.4416 0.4204
C21 C 0.6307(5) 0.4908(6) 0.34754(17)
H12 H 0.6027 0.4482 0.3411
C22 C 0.7314(9) 0.8741(7) 0.3188(3)
H13 H 0.7456 0.8864 0.3010
C23 C 0.9961(8) 0.6771(7) 0.3203(2)
H14 H 1.0362 0.6750 0.3076
C24 C 0.9871(8) 0.8811(6) 0.4111(3)
H15 H 1.0260 0.9174 0.4148
C25 C 0.9930(7) 0.8393(6) 0.3894(2)
H16 H 1.0370 0.8430 0.3784
C26 C 0.5903(8) 0.8375(8) 0.4123(3)
H17 H 0.5605 0.8775 0.4049
C27 C 0.9974(8) 0.7300(7) 0.3401(2)
H18 H 1.0392 0.7643 0.3413
C28 C 0.5744(7) 0.8097(9) 0.4375(3)
H19 H 0.5354 0.8324 0.4480
C29 C 0.7613(5) 0.5463(5) 0.40526(15)
C30 C 0.9072(5) 0.5621(5) 0.47445(14)
C31 C 0.9369(6) 0.7345(5) 0.3589(2)
C32 C 0.8623(6) 0.8227(5) 0.4222(2)
H20 H 0.8201 0.8168 0.4340
C33 C 0.8766(7) 0.6303(5) 0.33729(19)
H21 H 0.8362 0.5942 0.3363
C34 C 0.8526(4) 0.6131(5) 0.43139(17)
H22 H 0.8828 0.6574 0.4344
N3 N 0.8743(4) 0.6840(4) 0.35666(14)
N4 N 0.6955(4) 0.7464(5) 0.40726(15)
Ir1B Ir 0.215712(18) 0.292814(17) 0.383080(14)
O1B O 0.0573(4) 0.3770(4) 0.47862(13)
O2B O 0.0879(4) 0.5002(4) 0.48970(11)
O3B O 0.4331(7) 0.3670(5) 0.30030(19)
O4B O 0.4174(4) 0.4941(4) 0.29202(12)
C1B C 0.1438(5) 0.4472(5) 0.44997(15)
C2B C 0.3249(7) 0.2833(7) 0.4317(2)
H1B H 0.2982 0.3265 0.4383
C3B C 0.3206(7) 0.1641(7) 0.3707(3)
C4B C 0.3692(5) 0.4410(6) 0.33291(16)
C5B C 0.2569(7) 0.2055(6) 0.3590(2)
C6B C 0.2868(4) 0.4519(5) 0.38032(19)
C7B C 0.2307(9) 0.1855(6) 0.3325(2)
H2B H 0.1891 0.2118 0.3245
C8B C 0.0670(6) 0.2115(4) 0.3826(3)
C9B C 0.3839(7) 0.2519(9) 0.4472(3)
H3B H 0.3952 0.2727 0.4642
C10B C 0.3562(9) 0.1038(7) 0.3567(3)
H4B H 0.3983 0.0772 0.3642
C11B C 0.0754(6) 0.1256(6) 0.4293(2)
H5B H 0.0763 0.0974 0.4455
C12B C 0.1891(6) 0.5095(6) 0.44593(16)
H6B H 0.1888 0.5501 0.4585
N1B N 0.1924(4) 0.3897(3) 0.40930(13)
C13B C 0.3281(5) 0.3774(5) 0.34352(16)
H7B H 0.3282 0.3303 0.3341
C14B C 0.3297(5) 0.5151(6) 0.37080(17)
H8B H 0.3307 0.5615 0.3807
C15B C 0.0650(7) 0.3745(7) 0.3189(2)
H9B H 0.0661 0.4124 0.3053
C16B C 0.1358(5) 0.2178(5) 0.39848(17)
N2B N 0.2887(3) 0.3832(4) 0.36701(13)
C17B C 0.3276(10) 0.0843(7) 0.3316(3)
H10B H 0.3487 0.0414 0.3226
C18B C 0.4102(7) 0.4323(6) 0.30593(17)
C19B C 0.3486(7) 0.1942(7) 0.3977(2)
C20B C 0.2360(6) 0.5141(6) 0.42335(17)
H11B H 0.2660 0.5584 0.4204
C21B C 0.3693(5) 0.5092(6) 0.34754(17)
H12B H 0.3973 0.5518 0.3411
C22B C 0.2686(9) 0.1259(7) 0.3188(3)
H13B H 0.2544 0.1136 0.3010
C23B C 0.0039(8) 0.3229(7) 0.3203(2)
H14B H -0.0362 0.3250 0.3076
C24B C 0.0129(8) 0.1189(6) 0.4111(3)
H15B H -0.0260 0.0826 0.4148
C25B C 0.0070(7) 0.1607(6) 0.3894(2)
H16B H -0.0370 0.1570 0.3784
C26B C 0.4097(8) 0.1625(8) 0.4123(3)
H17B H 0.4395 0.1225 0.4049
C27B C 0.0026(8) 0.2700(7) 0.3401(2)
H18B H -0.0392 0.2357 0.3413
C28B C 0.4256(7) 0.1903(9) 0.4375(3)
H19B H 0.4646 0.1676 0.4480
C29B C 0.2387(5) 0.4537(5) 0.40526(15)
C30B C 0.0928(5) 0.4379(5) 0.47445(14)
C31B C 0.0631(6) 0.2655(5) 0.3589(2)
C32B C 0.1377(6) 0.1773(5) 0.4222(2)
H20B H 0.1799 0.1832 0.4340
C33B C 0.1234(7) 0.3697(5) 0.33729(19)
H21B H 0.1638 0.4058 0.3363
C34B C 0.1474(4) 0.3869(5) 0.43139(17)
H22B H 0.1172 0.3426 0.4344
N3B N 0.1257(4) 0.3160(4) 0.35666(14)
N4B N 0.3045(4) 0.2536(5) 0.40726(15)
Zn1F Zn -0.0000 0.5000 0.51488(3)
Zn1F_2 Zn 1.0000 0.5000 0.51488(3)
O2N O 0.5002(4) 0.5879(4) 0.23970(11)
O2O O 0.4998(4) 0.4121(4) 0.23970(11)
O5 O 0.7231(9) 0.6535(10) 0.5052(3)
O6 O 0.4102(7) 0.6624(7) 0.2900(2)
loop_
_geom_bond_atom_site_label_1
_geom_bond_atom_site_label_2
_geom_bond_site_symmetry_1
_geom_bond_site_symmetry_2
Ir1 C5 1_555 1_555
Zn1 O4 1_555 1_555
O1 C30 1_555 1_555
O2 C30 1_555 1_555
O3 C18 1_555 1_555
O4 C18 1_555 1_555
C1 C12 1_555 1_555
C2 H1 1_555 1_555
C3 C5 1_555 1_555
C4 C13 1_555 1_555
C5 C7 1_555 1_555
C6 C14 1_555 1_555
C7 H2 1_555 1_555
C8 C16 1_555 1_555
C9 C2 1_555 1_555
H3 C9 1_555 1_555
C10 C3 1_555 1_555
H4 C10 1_555 1_555
C11 H5 1_555 1_555
C12 H6 1_555 1_555
N1 Ir1 1_555 1_555
C13 H7 1_555 1_555
C14 H8 1_555 1_555
C15 H9 1_555 1_555
C16 Ir1 1_555 1_555
N2 Ir1 1_555 1_555
C17 C10 1_555 1_555
H10 C17 1_555 1_555
C18 C4 1_555 1_555
C19 C3 1_555 1_555
C20 C12 1_555 1_555
H11 C20 1_555 1_555
C21 C4 1_555 1_555
H12 C21 1_555 1_555
C22 C7 1_555 1_555
H13 C22 1_555 1_555
C23 C15 1_555 1_555
H14 C23 1_555 1_555
C24 C11 1_555 1_555
H15 C24 1_555 1_555
C25 C8 1_555 1_555
H16 C25 1_555 1_555
C26 C19 1_555 1_555
H17 C26 1_555 1_555
C27 C23 1_555 1_555
H18 C27 1_555 1_555
C28 C9 1_555 1_555
H19 C28 1_555 1_555
C29 C6 1_555 1_555
C30 C1 1_555 1_555
C31 C8 1_555 1_555
C32 C11 1_555 1_555
H20 C32 1_555 1_555
C33 C15 1_555 1_555
H21 C33 1_555 1_555
C34 C1 1_555 1_555
H22 C34 1_555 1_555
N3 Ir1 1_555 1_555
N4 Ir1 1_555 1_555
Ir1B C5B 1_555 1_555
O1B C30B 1_555 1_555
O2B C30B 1_555 1_555
O3B C18B 1_555 1_555
O4B Zn1 1_555 1_555
C1B C12B 1_555 1_555
C2B H1B 1_555 1_555
C3B C5B 1_555 1_555
C4B C13B 1_555 1_555
C5B C7B 1_555 1_555
C6B C14B 1_555 1_555
C7B H2B 1_555 1_555
C8B C16B 1_555 1_555
C9B C2B 1_555 1_555
H3B C9B 1_555 1_555
C10B C3B 1_555 1_555
H4B C10B 1_555 1_555
C11B H5B 1_555 1_555
C12B H6B 1_555 1_555
N1B Ir1B 1_555 1_555
C13B H7B 1_555 1_555
C14B H8B 1_555 1_555
C15B H9B 1_555 1_555
C16B Ir1B 1_555 1_555
N2B Ir1B 1_555 1_555
C17B C10B 1_555 1_555
H10B C17B 1_555 1_555
C18B O4B 1_555 1_555
C19B C3B 1_555 1_555
C20B C12B 1_555 1_555
H11B C20B 1_555 1_555
C21B C4B 1_555 1_555
H12B C21B 1_555 1_555
C22B C7B 1_555 1_555
H13B C22B 1_555 1_555
C23B C15B 1_555 1_555
H14B C23B 1_555 1_555
C24B C11B 1_555 1_555
H15B C24B 1_555 1_555
C25B C8B 1_555 1_555
H16B C25B 1_555 1_555
C26B C19B 1_555 1_555
H17B C26B 1_555 1_555
C27B C23B 1_555 1_555
H18B C27B 1_555 1_555
C28B C9B 1_555 1_555
H19B C28B 1_555 1_555
C29B C6B 1_555 1_555
C30B C1B 1_555 1_555
C31B C8B 1_555 1_555
C32B C11B 1_555 1_555
H20B C32B 1_555 1_555
C33B C15B 1_555 1_555
H21B C33B 1_555 1_555
C34B C1B 1_555 1_555
H22B C34B 1_555 1_555
N3B Ir1B 1_555 1_555
N4B Ir1B 1_555 1_555
Zn1F O2B 1_555 1_555
Zn1F_2 O2 1_555 1_555
O2N Zn1 1_555 1_555
O2O Zn1 1_555 1_555
C2 N4 1_555 1_555
C6 N2 1_555 1_555
N1 C29 1_555 1_555
N1 C34 1_555 1_555
C13 N2 1_555 1_555
C14 C21 1_555 1_555
C16 C32 1_555 1_555
C17 C22 1_555 1_555
C19 N4 1_555 1_555
C20 C29 1_555 1_555
C24 C25 1_555 1_555
C26 C28 1_555 1_555
C27 C31 1_555 1_555
C31 N3 1_555 1_555
C33 N3 1_555 1_555
C2B N4B 1_555 1_555
C4B C18B 1_555 1_555
C6B N2B 1_555 1_555
N1B C29B 1_555 1_555
N1B C34B 1_555 1_555
C13B N2B 1_555 1_555
C14B C21B 1_555 1_555
C16B C32B 1_555 1_555
C17B C22B 1_555 1_555
C19B N4B 1_555 1_555
C20B C29B 1_555 1_555
C24B C25B 1_555 1_555
C26B C28B 1_555 1_555
C27B C31B 1_555 1_555
C31B N3B 1_555 1_555
C33B N3B 1_555 1_555

#END
