
#######################################################################
#
#                 Cambridge Crystallographic Data Centre
#                                CCDC 
#
#######################################################################
#
# If this CIF has been generated from an entry in the Cambridge 
# Structural Database, then it will include bibliographic, chemical, 
# crystal, experimental, refinement or atomic coordinate data resulting 
# from the CCDC's data processing and validation procedures.
#
#######################################################################

data_HIFTUM
_chemical_formula_moiety         '(C30 H63 Fe2 N21 Ni3 O6)n'
_symmetry_cell_setting           monoclinic
_symmetry_space_group_name_H-M   'C 2/c'
_symmetry_Int_Tables_number      15
_space_group_name_Hall           '-C 2yc'
loop_
_symmetry_equiv_pos_site_id
_symmetry_equiv_pos_as_xyz
1 x,y,z
2 1/2+x,1/2+y,z
3 -x,y,1/2-z
4 1/2-x,1/2+y,1/2-z
5 -x,-y,-z
6 1/2-x,1/2-y,-z
7 x,-y,1/2+z
8 1/2+x,1/2-y,1/2+z
_cell_length_a                   24.044(8)
_cell_length_b                   14.343(4)
_cell_length_c                   16.688(5)
_cell_angle_alpha                90
_cell_angle_beta                 100.552(4)
_cell_angle_gamma                90
_cell_volume                     5657.75
loop_
_atom_site_label
_atom_site_type_symbol
_atom_site_fract_x
_atom_site_fract_y
_atom_site_fract_z
_atom_site_U_iso_or_equiv
_atom_site_thermal_displace_type
Ni1 Ni 0.22756(3) 0.18122(4) 0.69343(3) 0.0518 Uani
Ni2 Ni 0.0000 0.10709(6) 0.2500 0.0602 Uani
Fe1 Fe 0.19029(2) 0.02940(3) 0.41840(3) 0.0356 Uani
O1 O 0.0000 0.2546(5) 0.2500 0.1477 Uani
N1 N 0.1864(2) 0.1226(2) 0.5833(2) 0.0557 Uani
N2 N 0.0767(2) 0.1048(3) 0.3280(3) 0.0746 Uani
N3 N 0.2459(2) 0.2066(3) 0.3668(2) 0.0624 Uani
N4 N 0.1272(3) -0.1477(4) 0.4569(4) 0.1037 Uani
N5 N 0.3094(2) -0.0425(4) 0.4903(4) 0.0931 Uani
N6 N 0.2039(2) -0.0702(3) 0.2603(2) 0.0705 Uani
N7 N 0.1520(3) 0.2478(3) 0.7020(4) 0.1041 Uani
N8 N 0.2712(3) 0.2392(5) 0.8046(3) 0.1215 Uani
N9 N 0.2963(2) 0.1047(4) 0.6714(4) 0.0936 Uani
N10 N -0.0404(3) 0.1151(5) 0.3504(4) 0.1095 Uani
N11 N 0.0000 -0.0400(5) 0.2500 0.0852 Uani
C1 C 0.1851(2) 0.0869(3) 0.5218(2) 0.0440 Uani
C2 C 0.1192(2) 0.0795(3) 0.3647(3) 0.0518 Uani
C3 C 0.2263(2) 0.1411(3) 0.3875(2) 0.0465 Uani
C4 C 0.1513(2) -0.0823(3) 0.4448(3) 0.0571 Uani
C5 C 0.2645(2) -0.0196(3) 0.4650(3) 0.0525 Uani
C6 C 0.1984(2) -0.0300(3) 0.3176(3) 0.0515 Uani
C7 C 0.1585(10) 0.3285(10) 0.7675(10) 0.3141 Uani
C8 C 0.1918(9) 0.3269(10) 0.8335(9) 0.2214 Uani
C9 C 0.2509(9) 0.3197(8) 0.8401(7) 0.2147 Uani
C10 C 0.3261(7) 0.2247(10) 0.8239(10) 0.2142 Uani
C11 C 0.3586(5) 0.159(2) 0.7968(9) 0.2369 Uani
C12 C 0.3532(4) 0.1121(7) 0.7112(12) 0.2256 Uani
C13 C -0.0569(8) 0.0397(11) 0.3869(8) 0.2232 Uani
C14 C -0.0454(5) -0.0469(9) 0.3736(7) 0.1478 Uani
C15 C -0.0223(5) -0.0864(6) 0.3122(6) 0.1341 Uani
H1 H 0.1369 0.2721 0.6524 0.1250 Uiso
H2 H 0.1272 0.2047 0.7147 0.1250 Uiso
H3 H 0.1674 0.3851 0.7395 0.3760 Uiso
H4 H 0.1208 0.3380 0.7806 0.3760 Uiso
H5 H 0.1802 0.2747 0.8646 0.2670 Uiso
H6 H 0.1848 0.3839 0.8626 0.2670 Uiso
H7 H 0.2681 0.3211 0.8980 0.2590 Uiso
H8 H 0.2642 0.3750 0.8147 0.2590 Uiso
H9 H 0.2603 0.1957 0.8392 0.1460 Uiso
H10 H 0.3337 0.2175 0.8833 0.2580 Uiso
H11 H 0.3433 0.2843 0.8132 0.2580 Uiso
H12 H 0.3593 0.1074 0.8350 0.2840 Uiso
H13 H 0.3968 0.1857 0.8075 0.2840 Uiso
H14 H 0.3743 0.1487 0.6773 0.2690 Uiso
H15 H 0.3700 0.0497 0.7178 0.2690 Uiso
H16 H 0.2867 0.0440 0.6770 0.1120 Uiso
H17 H 0.2969 0.1130 0.6176 0.1120 Uiso
H18 H -0.0170 0.1478 0.3895 0.1310 Uiso
H19 H -0.0718 0.1509 0.3349 0.1310 Uiso
H20 H -0.0437 0.0495 0.4454 0.2670 Uiso
H21 H -0.0983 0.0433 0.3782 0.2670 Uiso
H22 H -0.0814 -0.0799 0.3718 0.1770 Uiso
H23 H -0.0209 -0.0674 0.4239 0.1770 Uiso
H24 H -0.0514 -0.1285 0.2836 0.1610 Uiso
H25 H 0.0084 -0.1265 0.3397 0.1610 Uiso
C15B C 0.0223(5) -0.0864(6) 0.1878(6) 0.1341 Uani
C14B C 0.0454(5) -0.0469(9) 0.1264(7) 0.1478 Uani
C13B C 0.0569(8) 0.0397(11) 0.1131(8) 0.2232 Uani
N10B N 0.0404(3) 0.1151(5) 0.1496(4) 0.1095 Uani
H18B H 0.0170 0.1478 0.1105 0.1310 Uiso
H19B H 0.0718 0.1509 0.1651 0.1310 Uiso
H20B H 0.0437 0.0495 0.0546 0.2670 Uiso
H21B H 0.0983 0.0433 0.1218 0.2670 Uiso
H22B H 0.0814 -0.0799 0.1282 0.1770 Uiso
H23B H 0.0209 -0.0674 0.0761 0.1770 Uiso
H24B H 0.0514 -0.1285 0.2164 0.1610 Uiso
H25B H -0.0084 -0.1265 0.1603 0.1610 Uiso
N2B N -0.0767(2) 0.1048(3) 0.1720(3) 0.0746 Uani
C2B C -0.1192(2) 0.0795(3) 0.1353(3) 0.0518 Uani
Fe1B Fe -0.19029(2) 0.02940(3) 0.08160(3) 0.0356 Uani
N1B N -0.1864(2) 0.1226(2) -0.0833(2) 0.0557 Uani
C1B C -0.1851(2) 0.0869(3) -0.0218(2) 0.0440 Uani
N3B N -0.2459(2) 0.2066(3) 0.1332(2) 0.0624 Uani
C3B C -0.2263(2) 0.1411(3) 0.1125(2) 0.0465 Uani
N4B N -0.1272(3) -0.1477(4) 0.0431(4) 0.1037 Uani
C4B C -0.1513(2) -0.0823(3) 0.0552(3) 0.0571 Uani
N5B N -0.3094(2) -0.0425(4) 0.0097(4) 0.0931 Uani
C5B C -0.2645(2) -0.0196(3) 0.0350(3) 0.0525 Uani
N6B N -0.2039(2) -0.0702(3) 0.2397(2) 0.0705 Uani
C6B C -0.1984(2) -0.0300(3) 0.1824(3) 0.0515 Uani
Ni1B Ni -0.22756(3) 0.18122(4) -0.19343(3) 0.0518 Uani
N7B N -0.1520(3) 0.2478(3) -0.2020(4) 0.1041 Uani
N8B N -0.2712(3) 0.2392(5) -0.3046(3) 0.1215 Uani
N9B N -0.2963(2) 0.1047(4) -0.1714(4) 0.0936 Uani
C7B C -0.1585(10) 0.3285(10) -0.2675(10) 0.3141 Uani
C8B C -0.1918(9) 0.3269(10) -0.3335(9) 0.2214 Uani
C9B C -0.2509(9) 0.3197(8) -0.3401(7) 0.2147 Uani
C10B C -0.3261(7) 0.2247(10) -0.3239(10) 0.2142 Uani
C11B C -0.3586(5) 0.159(2) -0.2968(9) 0.2369 Uani
C12B C -0.3532(4) 0.1121(7) -0.2112(12) 0.2256 Uani
H1B H -0.1369 0.2721 -0.1524 0.1250 Uiso
H2B H -0.1272 0.2047 -0.2147 0.1250 Uiso
H3B H -0.1674 0.3851 -0.2395 0.3760 Uiso
H4B H -0.1208 0.3380 -0.2806 0.3760 Uiso
H5B H -0.1802 0.2747 -0.3646 0.2670 Uiso
H6B H -0.1848 0.3839 -0.3626 0.2670 Uiso
H7B H -0.2681 0.3211 -0.3980 0.2590 Uiso
H8B H -0.2642 0.3750 -0.3147 0.2590 Uiso
H9B H -0.2603 0.1957 -0.3392 0.1460 Uiso
H10B H -0.3337 0.2175 -0.3833 0.2580 Uiso
H11B H -0.3433 0.2843 -0.3132 0.2580 Uiso
H12B H -0.3593 0.1074 -0.3350 0.2840 Uiso
H13B H -0.3968 0.1857 -0.3075 0.2840 Uiso
H14B H -0.3743 0.1487 -0.1773 0.2690 Uiso
H15B H -0.3700 0.0497 -0.2178 0.2690 Uiso
H16B H -0.2867 0.0440 -0.1770 0.1120 Uiso
H17B H -0.2969 0.1130 -0.1176 0.1120 Uiso
N3E N 0.2541(2) 0.2934(3) 0.6332(2) 0.0624 Uani
N6F N 0.2039(2) 0.0702(3) 0.7603(2) 0.0705 Uani
Ni1E Ni 0.27244(3) 0.31878(4) 0.30657(3) 0.0518 Uani
Ni1F Ni 0.22756(3) -0.18122(4) 0.19343(3) 0.0518 Uani
Ni1G Ni -0.27244(3) 0.31878(4) 0.19343(3) 0.0518 Uani
Ni1D Ni -0.22756(3) -0.18122(4) 0.30657(3) 0.0518 Uani
N3G N -0.2541(2) 0.2934(3) -0.1332(2) 0.0624 Uani
N6D N -0.2039(2) 0.0702(3) -0.2603(2) 0.0705 Uani
O2 O 0.4127(3) -0.1630(5) 0.5356(6) 0.0854 Uani
O3 O 0.5159(9) -0.1693(13) 0.413(1) 0.2110 Uiso
O4 O 0.6336(8) -0.1785(10) 0.4973(11) 0.1760 Uiso
O5 O 0.5959(11) -0.091(2) 0.566(2) 0.2620 Uiso
O6 O 0.5012(12) -0.054(2) 0.645(2) 0.2870 Uiso
loop_
_atom_site_aniso_label
_atom_site_aniso_U_11
_atom_site_aniso_U_22
_atom_site_aniso_U_33
_atom_site_aniso_U_23
_atom_site_aniso_U_13
_atom_site_aniso_U_12
Ni1 0.0848(5) 0.0430(3) 0.0283(3) -0.0007(2) 0.0124(3) -0.0199(3)
Ni2 0.0482(5) 0.0658(5) 0.0606(6) 0.0000 -0.0057(4) 0.0000
Fe1 0.0463(3) 0.0341(3) 0.0258(3) -0.0023(2) 0.0051(2) -0.0030(2)
O1 0.121(6) 0.080(4) 0.213(10) 0.0000 -0.046(6) 0.0000
N1 0.083(3) 0.057(2) 0.029(2) -0.008(1) 0.015(2) -0.014(2)
N2 0.056(2) 0.091(3) 0.069(3) -0.006(2) -0.009(2) 0.017(2)
N3 0.093(3) 0.048(2) 0.051(2) 0.002(2) 0.026(2) -0.016(2)
N4 0.111(4) 0.059(3) 0.151(6) -0.002(3) 0.050(4) -0.028(3)
N5 0.069(3) 0.119(4) 0.088(4) 0.031(3) 0.006(3) 0.021(3)
N6 0.101(3) 0.065(3) 0.042(2) -0.020(2) 0.004(2) 0.028(2)
N7 0.131(5) 0.057(3) 0.148(5) -0.018(3) 0.088(4) -0.007(3)
N8 0.157(6) 0.161(6) 0.044(3) -0.023(3) 0.012(3) -0.104(5)
N9 0.076(3) 0.085(3) 0.119(5) 0.025(3) 0.016(3) 0.006(3)
N10 0.084(4) 0.159(6) 0.083(4) -0.027(4) 0.009(3) 0.041(4)
N11 0.097(5) 0.068(4) 0.100(6) 0.0000 0.043(4) 0.0000
C1 0.055(2) 0.044(2) 0.034(2) 0.001(2) 0.011(2) -0.012(2)
C2 0.056(3) 0.054(2) 0.045(2) -0.008(2) 0.008(2) 0.000(2)
C3 0.065(3) 0.043(2) 0.034(2) -0.001(2) 0.016(2) -0.003(2)
C4 0.063(3) 0.043(2) 0.066(3) -0.001(2) 0.014(2) -0.009(2)
C5 0.056(3) 0.057(3) 0.043(2) 0.009(2) 0.005(2) 0.005(2)
C6 0.067(3) 0.047(2) 0.038(2) -0.001(2) 0.003(2) 0.013(2)
C7 0.59(4) 0.21(1) 0.18(1) 0.005(11) 0.17(2) 0.23(2)
C8 0.38(3) 0.185(12) 0.138(10) -0.116(9) 0.15(1) -0.19(2)
C9 0.42(3) 0.123(8) 0.083(7) -0.046(6) -0.002(12) -0.12(1)
C10 0.21(2) 0.169(12) 0.20(2) -0.004(10) -0.13(1) -0.056(12)
C11 0.085(7) 0.45(3) 0.149(12) 0.15(2) -0.049(8) -0.101(12)
C12 0.106(8) 0.130(9) 0.39(2) -0.030(11) -0.089(11) 0.011(6)
C13 0.33(2) 0.24(2) 0.151(12) -0.002(11) 0.18(2) 0.01(2)
C14 0.125(8) 0.222(12) 0.108(7) 0.067(8) 0.052(6) -0.014(8)
C15 0.166(9) 0.095(5) 0.154(9) 0.038(5) 0.063(7) -0.013(5)
C15B 0.166 0.095 0.154 -0.038 0.063 0.013
C14B 0.125 0.222 0.108 -0.067 0.052 0.014
C13B 0.33 0.24 0.151 0.002 0.18 -0.01
N10B 0.084 0.159 0.083 0.027 0.009 -0.041
N2B 0.056 0.091 0.069 0.006 -0.009 -0.017
C2B 0.056 0.054 0.045 0.008 0.008 0
Fe1B 0.0463 0.0341 0.0258 0.0023 0.0051 0.003
N1B 0.083 0.057 0.029 0.008 0.015 0.014
C1B 0.055 0.044 0.034 -0.001 0.011 0.012
N3B 0.093 0.048 0.051 -0.002 0.026 0.016
C3B 0.065 0.043 0.034 0.001 0.016 0.003
N4B 0.111 0.059 0.151 0.002 0.05 0.028
C4B 0.063 0.043 0.066 0.001 0.014 0.009
N5B 0.069 0.119 0.088 -0.031 0.006 -0.021
C5B 0.056 0.057 0.043 -0.009 0.005 -0.005
N6B 0.101 0.065 0.042 0.02 0.004 -0.028
C6B 0.067 0.047 0.038 0.001 0.003 -0.013
Ni1B 0.0848 0.043 0.0283 0.0007 0.0124 0.0199
N7B 0.131 0.057 0.148 0.018 0.088 0.007
N8B 0.157 0.161 0.044 0.023 0.012 0.104
N9B 0.076 0.085 0.119 -0.025 0.016 -0.006
C7B 0.59 0.21 0.18 -0.005 0.17 -0.23
C8B 0.38 0.185 0.138 0.116 0.15 0.19
C9B 0.42 0.123 0.083 0.046 -0.002 0.12
C10B 0.21 0.169 0.2 0.004 -0.13 0.056
C11B 0.085 0.45 0.149 -0.15 -0.049 0.101
C12B 0.106 0.13 0.39 0.03 -0.089 -0.011
N3E 0.093 0.048 0.051 0.002 0.026 -0.016
N6F 0.101 0.065 0.042 0.02 0.004 -0.028
Ni1E 0.0848 0.043 0.0283 -0.0007 0.0124 -0.0199
Ni1F 0.0848 0.043 0.0283 0.0007 0.0124 0.0199
Ni1G 0.0848 0.043 0.0283 0.0007 0.0124 0.0199
Ni1D 0.0848 0.043 0.0283 -0.0007 0.0124 -0.0199
N3G 0.093 0.048 0.051 -0.002 0.026 0.016
N6D 0.101 0.065 0.042 -0.02 0.004 0.028
O2 0.053(4) 0.045(4) 0.147(8) 0.024(4) -0.011(4) -0.011(3)
loop_
_geom_bond_atom_site_label_1
_geom_bond_atom_site_label_2
_geom_bond_site_symmetry_1
_geom_bond_site_symmetry_2
Ni1 N1 1_555 1_555
Ni2 O1 1_555 1_555
Fe1 C1 1_555 1_555
N1 C1 1_555 1_555
N2 Ni2 1_555 1_555
N3 C3 1_555 1_555
N4 C4 1_555 1_555
N5 C5 1_555 1_555
N6 C6 1_555 1_555
N7 Ni1 1_555 1_555
N8 Ni1 1_555 1_555
N9 Ni1 1_555 1_555
N10 Ni2 1_555 1_555
N11 Ni2 1_555 1_555
C2 Fe1 1_555 1_555
C3 Fe1 1_555 1_555
C4 Fe1 1_555 1_555
C5 Fe1 1_555 1_555
C6 Fe1 1_555 1_555
C7 N7 1_555 1_555
C8 C7 1_555 1_555
C9 N8 1_555 1_555
C10 N8 1_555 1_555
C11 C10 1_555 1_555
C12 N9 1_555 1_555
C13 N10 1_555 1_555
C14 C13 1_555 1_555
C15 N11 1_555 1_555
H1 N7 1_555 1_555
H2 N7 1_555 1_555
H3 C7 1_555 1_555
H4 C7 1_555 1_555
H5 C8 1_555 1_555
H6 C8 1_555 1_555
H7 C9 1_555 1_555
H8 C9 1_555 1_555
H9 N8 1_555 1_555
H10 C10 1_555 1_555
H11 C10 1_555 1_555
H12 C11 1_555 1_555
H13 C11 1_555 1_555
H14 C12 1_555 1_555
H15 C12 1_555 1_555
H16 N9 1_555 1_555
H17 N9 1_555 1_555
H18 N10 1_555 1_555
H19 N10 1_555 1_555
H20 C13 1_555 1_555
H21 C13 1_555 1_555
H22 C14 1_555 1_555
H23 C14 1_555 1_555
H24 C15 1_555 1_555
H25 C15 1_555 1_555
C15B N11 1_555 1_555
C14B C15B 1_555 1_555
C13B C14B 1_555 1_555
N10B Ni2 1_555 1_555
H18B N10B 1_555 1_555
H19B N10B 1_555 1_555
H20B C13B 1_555 1_555
H21B C13B 1_555 1_555
H22B C14B 1_555 1_555
H23B C14B 1_555 1_555
H24B C15B 1_555 1_555
H25B C15B 1_555 1_555
N2B Ni2 1_555 1_555
C2B N2B 1_555 1_555
Fe1B C2B 1_555 1_555
N1B C1B 1_555 1_555
C1B Fe1B 1_555 1_555
N3B C3B 1_555 1_555
C3B Fe1B 1_555 1_555
N4B C4B 1_555 1_555
C4B Fe1B 1_555 1_555
N5B C5B 1_555 1_555
C5B Fe1B 1_555 1_555
N6B C6B 1_555 1_555
C6B Fe1B 1_555 1_555
Ni1B N1B 1_555 1_555
N7B Ni1B 1_555 1_555
N8B Ni1B 1_555 1_555
N9B Ni1B 1_555 1_555
C7B N7B 1_555 1_555
C8B C7B 1_555 1_555
C9B N8B 1_555 1_555
C10B N8B 1_555 1_555
C11B C10B 1_555 1_555
C12B N9B 1_555 1_555
H1B N7B 1_555 1_555
H2B N7B 1_555 1_555
H3B C7B 1_555 1_555
H4B C7B 1_555 1_555
H5B C8B 1_555 1_555
H6B C8B 1_555 1_555
H7B C9B 1_555 1_555
H8B C9B 1_555 1_555
H9B N8B 1_555 1_555
H10B C10B 1_555 1_555
H11B C10B 1_555 1_555
H12B C11B 1_555 1_555
H13B C11B 1_555 1_555
H14B C12B 1_555 1_555
H15B C12B 1_555 1_555
H16B N9B 1_555 1_555
H17B N9B 1_555 1_555
N3E Ni1 1_555 1_555
N6F Ni1 1_555 1_555
Ni1E N3 1_555 1_555
Ni1F N6 1_555 1_555
Ni1G N3B 1_555 1_555
Ni1D N6B 1_555 1_555
N3G Ni1B 1_555 1_555
N6D Ni1B 1_555 1_555
N2 C2 1_555 1_555
C8 C9 1_555 1_555
C11 C12 1_555 1_555
C14 C15 1_555 1_555
C13B N10B 1_555 1_555
C8B C9B 1_555 1_555
C11B C12B 1_555 1_555

#END
