
#######################################################################
#
#                 Cambridge Crystallographic Data Centre
#                                CCDC 
#
#######################################################################
#
# If this CIF has been generated from an entry in the Cambridge 
# Structural Database, then it will include bibliographic, chemical, 
# crystal, experimental, refinement or atomic coordinate data resulting 
# from the CCDC's data processing and validation procedures.
#
#######################################################################

data_CUVTUJ
_chemical_formula_moiety         '(C10 H4 Co2 O6)n'
_symmetry_cell_setting           rhombohedral
_symmetry_space_group_name_H-M   'R -3'
_symmetry_Int_Tables_number      148
_space_group_name_Hall           '-R 3'
loop_
_symmetry_equiv_pos_site_id
_symmetry_equiv_pos_as_xyz
1 x,y,z
2 -y,x-y,z
3 -x+y,-x,z
4 1/3+x,2/3+y,2/3+z
5 1/3-y,2/3+x-y,2/3+z
6 1/3-x+y,2/3-x,2/3+z
7 2/3+x,1/3+y,1/3+z
8 2/3-y,1/3+x-y,1/3+z
9 2/3-x+y,1/3-x,1/3+z
10 -x,-y,-z
11 y,-x+y,-z
12 x-y,x,-z
13 2/3-x,1/3-y,1/3-z
14 2/3+y,1/3-x+y,1/3-z
15 2/3+x-y,1/3+x,1/3-z
16 1/3-x,2/3-y,2/3-z
17 1/3+y,2/3-x+y,2/3-z
18 1/3+x-y,2/3+x,2/3-z
_cell_length_a                   25.9112(6)
_cell_length_b                   25.9112(6)
_cell_length_c                   6.82025(23)
_cell_angle_alpha                90
_cell_angle_beta                 90
_cell_angle_gamma                120
_cell_volume                     3965.57
loop_
_atom_site_label
_atom_site_type_symbol
_atom_site_fract_x
_atom_site_fract_y
_atom_site_fract_z
O1 O 0.29579 -0.03413 0.63684
O2 O 0.22729 -0.07261 0.39925
C1 C 0.24544 -0.07145 0.57335
C2 C 0.20752 -0.11934 0.71185
O3 O 0.2745 -0.08201 0.99729
C3 C 0.22317 -0.1209 0.91242
C4 C 0.15366 -0.16396 0.63916
H1 H 0.14266 -0.1631 0.48009
Co1 Co 0.36273 0.04845 0.5122
O1O O 0.03754 -0.29920 1.02983
O1D O 0.36746 -0.00341 0.30351
O1J O -0.03413 -0.32992 1.36316
O2O O 0.10604 -0.26072 1.26742
O2H O 0.36677 0.10604 0.73258
O2N O -0.03343 -0.43938 0.93408
C1O C 0.08789 -0.26188 1.09332
C2O C 0.12581 -0.21399 0.95482
O3O O 0.0588 -0.25132 0.66938
O3H O 0.31016 0.0588 0.33062
O3D O 0.41534 0.02318 0.66396
O3N O 0.02318 -0.3922 1.33604
O3J O -0.08201 -0.35651 1.00271
C3O C 0.11016 -0.2124 0.75425
C4O C 0.17967 -0.16937 1.02751
H1O H 0.19067 -0.1702 1.18658
Co1O Co -0.02940 -0.38178 1.1545
Co1H Co 0.35239 -0.02940 0.8455
Co1D Co 0.28488 -0.01905 0.1789
Co1D_2 Co 0.28488 -0.01905 1.1789
Co1N Co -0.01905 -0.30394 0.8211
Co1J Co 0.04845 -0.31428 1.4878
Co1J_2 Co 0.04845 -0.31428 0.4878
C5 C 0.46658 0.14855 0.53326
D1 D 0.43832 0.13675 0.67362
C6 C 0.45768 0.13811 0.35549
D2 D 0.43145 0.10439 0.2377
loop_
_geom_bond_atom_site_label_1
_geom_bond_atom_site_label_2
_geom_bond_site_symmetry_1
_geom_bond_site_symmetry_2
O1 C1 1_555 1_555
O2 C1 1_555 1_555
C1 C2 1_555 1_555
C2 C3 1_555 1_555
O3 C3 1_555 1_555
C3 C4O 1_555 1_555
C4 C2 1_555 1_555
H1 C4 1_555 1_555
Co1 O1 1_555 1_555
C5 D1 1_555 1_555
C6 C5 1_555 1_555
D2 C6 1_555 1_555
O1O C1O 1_555 1_555
O1D Co1 1_555 1_555
O1J Co1O 1_555 1_555
O2O C1O 1_555 1_555
O2H Co1 1_555 1_555
O2N Co1O 1_555 1_555
C1O C2O 1_555 1_555
C2O C3O 1_555 1_555
O3O C3O 1_555 1_555
O3H Co1 1_555 1_555
O3D Co1 1_555 1_555
O3N Co1O 1_555 1_555
O3J Co1O 1_555 1_555
C3O C4 1_555 1_555
C4O C2O 1_555 1_555
H1O C4O 1_555 1_555
Co1O O1O 1_555 1_555
Co1H O1 1_555 1_555
Co1D O2 1_555 1_555
Co1D_2 O3 1_555 1_555
Co1N O1O 1_555 1_555
Co1J O1J 1_555 1_555
Co1J_2 O3O 1_555 1_555
O3 Co1H 1_555 1_555
O1D Co1D 1_555 1_555
O2O Co1J 1_555 1_555
O3O Co1N 1_555 1_555
O3H Co1D 1_555 1_555
O3D Co1H 1_555 1_555
O3N Co1J 1_555 1_555
O3J Co1N 1_555 1_555

#END
