
#######################################################################
#
#                 Cambridge Crystallographic Data Centre
#                                CCDC 
#
#######################################################################
#
# If this CIF has been generated from an entry in the Cambridge 
# Structural Database, then it will include bibliographic, chemical, 
# crystal, experimental, refinement or atomic coordinate data resulting 
# from the CCDC's data processing and validation procedures.
#
#######################################################################

data_AVEMEU
_chemical_formula_moiety         '(C9 H3 N1 O9 Sr2)n'
_symmetry_cell_setting           hexagonal
_symmetry_space_group_name_H-M   'P -6 2 c'
_symmetry_Int_Tables_number      190
_space_group_name_Hall           'P -6c -2c'
loop_
_symmetry_equiv_pos_site_id
_symmetry_equiv_pos_as_xyz
1 x,y,z
2 -x+y,-x,1/2-z
3 y,x,1/2+z
4 -y,x-y,z
5 x-y,-y,-z
6 x,y,1/2-z
7 -x,-x+y,1/2+z
8 -x+y,-x,z
9 y,x,-z
10 -y,x-y,1/2-z
11 x-y,-y,1/2+z
12 -x,-x+y,-z
_cell_length_a                   17.3726(7)
_cell_length_b                   17.3726(7)
_cell_length_c                   10.0243(8)
_cell_angle_alpha                90
_cell_angle_beta                 90
_cell_angle_gamma                120
_cell_volume                     2620.08
loop_
_atom_site_label
_atom_site_type_symbol
_atom_site_fract_x
_atom_site_fract_y
_atom_site_fract_z
Sr1 Sr 0.81996(6) 0.38750(6) 0.2500
Sr2 Sr 1.00000 0.37814(6) 0.5000
O1 O 0.8356(4) 0.3294(4) 0.4919(5)
O2 O 0.7064(4) 0.2497(4) 0.3977(5)
O3 O 0.4902(4) -0.0261(4) 0.6415(5)
C1 C 0.7189(5) 0.2260(5) 0.6288(6)
C2 C 0.7568(7) 0.2673(7) 0.7500
H1 H 0.8078 0.323 0.750
C3 C 0.6447(5) 0.1416(5) 0.6305(6)
H2 H 0.6197 0.1133 0.5502
C4 C 0.6067(7) 0.0983(7) 0.7500
C5 C 0.7572(5) 0.2721(5) 0.4974(7)
C6 C 0.5260(7) 0.0105(7) 0.7500
N1 N 0.921(3) 0.256(2) 0.2500
O5 O 0.9561(19) 0.334(2) 0.2500
O7 O 0.910(3) 0.211(3) 0.144(3)
Sr1A Sr 0.56754(8) 0.18004(6) 0.2500
Sr1B Sr 0.38750(6) -0.18004(6) 0.7500
Sr1_2 Sr 0.81996(6) 0.38750(6) 1.2500
Sr1A_2 Sr 0.56754(8) 0.18004(6) 1.2500
Sr2G Sr 0.37814(6) 0.00000 0.5000
Sr2E Sr 1.00000 0.37814(6) 0.0000
Sr2A Sr 0.37814(6) 0.00000 1.0000
Sr2E_2 Sr 1.00000 0.37814(6) 1.0000
O1E O 0.8356(4) 0.3294(4) 1.0081(5)
O1E_2 O 0.8356(4) 0.3294(4) 0.0081(5)
O1K O 1.1644(4) 0.4938(6) 0.5081(5)
O2E O 0.7064(4) 0.2497(4) 1.1023(5)
O2C O 0.7503(4) 0.4567(6) 0.3977(5)
O2E_2 O 0.7064(4) 0.2497(4) 0.1023(5)
O2I O 0.7503(4) 0.4567(6) 0.1023(5)
O3E O 0.4902(4) -0.0261(4) 0.8585(5)
O3B O 0.9739(4) 0.4902(4) 0.1415(5)
O3H O 0.9739(4) 0.4902(4) 0.3585(5)
O3C O 1.0261(4) 0.5163(6) 0.6415(5)
C1E C 0.7189(5) 0.2260(5) 0.8712(6)
C3E C 0.6447(5) 0.1416(5) 0.8695(6)
H2E H 0.6197 0.1133 0.9498
C5E C 0.7572(5) 0.2721(5) 1.0026(7)
O5F O 1.0439(19) 0.3779(28) 0.7500
O7E O 0.910(3) 0.211(3) 0.356(3)
O7F O 1.090(3) 0.301(4) 0.644(3)
loop_
_geom_bond_atom_site_label_1
_geom_bond_atom_site_label_2
_geom_bond_site_symmetry_1
_geom_bond_site_symmetry_2
Sr1 O1 1_555 1_555
Sr2 O1 1_555 1_555
O1 C5 1_555 1_555
O2 Sr1 1_555 1_555
O3 C6 1_555 1_555
C1 C2 1_555 1_555
C2 H1 1_555 1_555
C3 C1 1_555 1_555
H2 C3 1_555 1_555
C4 C3 1_555 1_555
C5 O2 1_555 1_555
C6 C4 1_555 1_555
N1 O5 1_555 1_555
O5 Sr1 1_555 1_555
O7 N1 1_555 1_555
Sr1A O2 1_555 1_555
Sr1B O3 1_555 1_555
Sr1_2 O1E 1_555 1_555
Sr1A_2 O2E 1_555 1_555
Sr2G O3 1_555 1_555
Sr2E O5 1_555 1_555
Sr2A O3E 1_555 1_555
Sr2E_2 O1E 1_555 1_555
O1E C5E 1_555 1_555
O1E_2 Sr1 1_555 1_555
O1K Sr2 1_555 1_555
O2E Sr1_2 1_555 1_555
O2C Sr1 1_555 1_555
O2E_2 Sr1 1_555 1_555
O2I Sr1 1_555 1_555
O3E C6 1_555 1_555
O3B Sr1 1_555 1_555
O3H Sr1 1_555 1_555
O3C Sr2 1_555 1_555
C1E C2 1_555 1_555
C3E C4 1_555 1_555
H2E C3E 1_555 1_555
C5E O2E 1_555 1_555
O5F Sr2 1_555 1_555
O7E Sr2 1_555 1_555
O7F Sr2 1_555 1_555
Sr2 O5 1_555 1_555
Sr2 O3H 1_555 1_555
C1 C5 1_555 1_555
N1 O7E 1_555 1_555
O7 Sr2E 1_555 1_555
Sr1A O2E_2 1_555 1_555
Sr1B O3E 1_555 1_555
Sr2E O1E_2 1_555 1_555
Sr2E O3B 1_555 1_555
Sr2E_2 O5F 1_555 1_555
C1E C3E 1_555 1_555
C1E C5E 1_555 1_555

#END
