
#######################################################################
#
#                 Cambridge Crystallographic Data Centre
#                                CCDC 
#
#######################################################################
#
# If this CIF has been generated from an entry in the Cambridge 
# Structural Database, then it will include bibliographic, chemical, 
# crystal, experimental, refinement or atomic coordinate data resulting 
# from the CCDC's data processing and validation procedures.
#
#######################################################################

data_MEXDAU01
_chemical_formula_moiety         '(C5 H21 N3 O16 P4 Zn3)n'
_symmetry_cell_setting           triclinic
_symmetry_space_group_name_H-M   'P -1'
_symmetry_Int_Tables_number      2
_space_group_name_Hall           '-P 1'
loop_
_symmetry_equiv_pos_site_id
_symmetry_equiv_pos_as_xyz
1 x,y,z
2 -x,-y,-z
_cell_length_a                   8.4557(2)
_cell_length_b                   9.28440(10)
_cell_length_c                   13.8599(3)
_cell_angle_alpha                81.1140(10)
_cell_angle_beta                 83.6420(10)
_cell_angle_gamma                72.626(2)
_cell_volume                     1023.57
loop_
_atom_site_label
_atom_site_type_symbol
_atom_site_fract_x
_atom_site_fract_y
_atom_site_fract_z
Zn1 Zn 0.29367(6) 0.91830(6) 0.51946(4)
Zn2 Zn 0.74556(6) 0.49370(6) -0.02699(4)
Zn3 Zn 0.63779(6) 0.88788(6) 0.12587(4)
P1 P 0.58114(14) 1.21710(13) 0.01996(8)
P2 P 0.58470(14) 0.86461(13) 0.36397(8)
P3 P 0.90460(14) 0.56629(13) 0.14874(8)
P4 P 0.01690(14) 1.20793(14) 0.42267(8)
O1 O 0.1668(4) 1.0703(4) 0.4238(2)
O2 O 0.4718(4) 0.7992(3) 0.4396(2)
O3 O 0.5967(4) 1.0180(3) 0.3837(2)
O4 O -0.1403(4) 1.1790(4) 0.3968(2)
O5 O 0.8141(4) 0.4767(4) 0.1035(2)
O6 O 1.0911(4) 0.4980(4) 0.1349(2)
O7 O 0.7098(4) 1.2965(3) -0.0300(2)
O8 O 0.4352(4) 1.3286(4) 0.0697(2)
O9 O 0.6642(4) 1.0918(3) 0.1018(2)
O10 O 0.8500(4) 0.7362(3) 0.1126(2)
O11 O 0.5311(4) 1.1443(4) -0.0581(2)
O12 O 0.5306(4) 0.8757(4) 0.2614(2)
O13 O 0.7678(4) 0.7538(4) 0.3695(2)
H1 H 0.7690(4) 0.6694(4) 0.3580(2)
O14 O 0.8576(4) 0.5443(3) 0.2622(2)
H2 H 0.8847(4) 0.4533(3) 0.2829(2)
O15 O 0.0579(4) 1.3336(4) 0.3493(3)
O16 O -0.0235(4) 1.2597(4) 0.5276(2)
H3 H 0.0562(4) 1.2812(4) 0.5438(2)
O3A O 0.4033(4) 0.9820(3) 0.6163(2)
O4A O 0.1403(4) 0.8210(4) 0.6032(2)
O6A O 0.9089(4) 0.5020(4) -0.1349(2)
O7_2 O 0.7098(4) 0.2965(3) -0.0300(2)
O8A O 0.5648(4) 0.6714(4) -0.0697(2)
O11A O 0.4689(4) 0.8557(4) 0.0581(2)
Zn1A Zn 0.70633(6) 1.08170(6) 0.48054(4)
Zn1A_2 Zn -0.29367(6) 1.08170(6) 0.48054(4)
Zn2A Zn 1.25444(6) 0.50630(6) 0.02699(4)
Zn2_2 Zn 0.74556(6) 1.49370(6) -0.02699(4)
Zn2A_2 Zn 0.25444(6) 1.50630(6) 0.02699(4)
Zn3A Zn 0.36221(6) 1.11212(6) -0.12587(4)
N1 N 0.9045(5) 1.1629(4) 0.1865(3)
H4 H 0.8982(5) 1.2513(4) 0.1493(3)
H5 H 0.8869(5) 1.1776(4) 0.2492(3)
H6 H 0.8279(5) 1.1240(4) 0.1708(3)
C1 C 1.0732(6) 1.0550(6) 0.1700(4)
H7 H 1.1575(6) 1.0968(6) 0.1866(4)
H8 H 1.0936(6) 1.0387(6) 0.1017(4)
C2 C 1.0802(6) 0.9046(5) 0.2346(4)
H9 H 1.0567(6) 0.9225(5) 0.3025(4)
H10 H 0.9958(6) 0.8636(5) 0.2173(4)
N2 N 1.2453(5) 0.7927(4) 0.2230(3)
H11 H 1.3227(5) 0.8337(4) 0.2370(3)
H12 H 1.2651(5) 0.7768(4) 0.1598(3)
C3 C 1.2665(6) 0.6428(5) 0.2847(3)
H13 H 1.1858(6) 0.5956(5) 0.2696(3)
H14 H 1.2478(6) 0.6573(5) 0.3533(3)
C4 C 1.4402(6) 0.5406(5) 0.2654(4)
H15 H 1.4606(6) 0.5343(5) 0.1958(4)
H16 H 1.5194(6) 0.5864(5) 0.2844(4)
C5 C 1.4699(6) 0.3822(6) 0.3193(4)
H17 H 1.5887(6) 0.3336(6) 0.3186(4)
H18 H 1.4284(6) 0.3892(6) 0.3870(4)
N3 N 1.3906(5) 0.2847(4) 0.2779(3)
H19 H 1.4130(5) 0.1931(4) 0.3131(3)
H20 H 1.4300(5) 0.2754(4) 0.2162(3)
H21 H 1.2811(5) 0.3270(4) 0.2797(3)
loop_
_geom_bond_atom_site_label_1
_geom_bond_atom_site_label_2
_geom_bond_site_symmetry_1
_geom_bond_site_symmetry_2
Zn1 O1 1_555 1_555
Zn2 O5 1_555 1_555
Zn3 O9 1_555 1_555
P1 O7 1_555 1_555
P2 O2 1_555 1_555
P3 O5 1_555 1_555
P4 O1 1_555 1_555
O2 Zn1 1_555 1_555
O3 P2 1_555 1_555
O4 P4 1_555 1_555
O6 P3 1_555 1_555
O7 Zn2_2 1_555 1_555
O8 P1 1_555 1_555
O9 P1 1_555 1_555
O10 Zn3 1_555 1_555
O11 P1 1_555 1_555
O12 Zn3 1_555 1_555
O13 P2 1_555 1_555
H1 O13 1_555 1_555
O14 P3 1_555 1_555
H2 O14 1_555 1_555
O15 P4 1_555 1_555
O16 P4 1_555 1_555
H3 O16 1_555 1_555
N1 H4 1_555 1_555
H5 N1 1_555 1_555
H6 N1 1_555 1_555
C1 N1 1_555 1_555
H7 C1 1_555 1_555
H8 C1 1_555 1_555
C2 C1 1_555 1_555
H9 C2 1_555 1_555
H10 C2 1_555 1_555
N2 C2 1_555 1_555
H11 N2 1_555 1_555
H12 N2 1_555 1_555
C3 N2 1_555 1_555
H13 C3 1_555 1_555
H14 C3 1_555 1_555
C4 C3 1_555 1_555
H15 C4 1_555 1_555
H16 C4 1_555 1_555
C5 C4 1_555 1_555
H17 C5 1_555 1_555
H18 C5 1_555 1_555
N3 C5 1_555 1_555
H19 N3 1_555 1_555
H20 N3 1_555 1_555
H21 N3 1_555 1_555
O3A Zn1 1_555 1_555
O4A Zn1 1_555 1_555
O6A Zn2 1_555 1_555
O7_2 Zn2 1_555 1_555
O8A Zn2 1_555 1_555
O11A Zn3 1_555 1_555
Zn1A O3 1_555 1_555
Zn1A_2 O4 1_555 1_555
Zn2A O6 1_555 1_555
Zn2A_2 O8 1_555 1_555
Zn3A O11 1_555 1_555
P2 O12 1_555 1_555
P3 O10 1_555 1_555

#END
