
#######################################################################
#
#                 Cambridge Crystallographic Data Centre
#                                CCDC 
#
#######################################################################
#
# If this CIF has been generated from an entry in the Cambridge 
# Structural Database, then it will include bibliographic, chemical, 
# crystal, experimental, refinement or atomic coordinate data resulting 
# from the CCDC's data processing and validation procedures.
#
#######################################################################

data_CUVTOD
_chemical_formula_moiety         'C42 H36 N12 O24 Zn10'
_symmetry_cell_setting           cubic
_symmetry_space_group_name_H-M   'P -4 3 m'
_symmetry_Int_Tables_number      215
_space_group_name_Hall           'P -4 2 3'
loop_
_symmetry_equiv_pos_site_id
_symmetry_equiv_pos_as_xyz
1 x,y,z
2 -x,-y,z
3 -x,y,-z
4 x,-y,-z
5 z,x,y
6 z,-x,-y
7 -z,-x,y
8 -z,x,-y
9 y,z,x
10 -y,z,-x
11 y,-z,-x
12 -y,-z,x
13 y,x,z
14 -y,-x,z
15 y,-x,-z
16 -y,x,-z
17 x,z,y
18 -x,z,-y
19 -x,-z,y
20 x,-z,-y
21 z,y,x
22 z,-y,-x
23 -z,y,-x
24 -z,-y,x
_cell_length_a                   17.2184(6)
_cell_length_b                   17.2184(6)
_cell_length_c                   17.2184(6)
_cell_angle_alpha                90
_cell_angle_beta                 90
_cell_angle_gamma                90
_cell_volume                     5104.8
loop_
_atom_site_label
_atom_site_type_symbol
_atom_site_fract_x
_atom_site_fract_y
_atom_site_fract_z
O1 O 0.5000 0.5000 0.5000
C1 C 0.2939(7) 0.5000 0.5000
C2 C 0.1970(6) 0.5000 0.5000
C3 C 0.0491(6) 0.5000 0.5000
Zn1 Zn 0.43491(5) 0.43491(5) 0.56509(5)
O2 O 0.3297(5) 0.4510(3) 0.5490(3)
C4 C 0.1643(5) 0.5506(2) 0.4494(2)
H1 H 0.1941 0.5834 0.4166
C5 C 0.0825(6) 0.5505(2) 0.4495(2)
N1 N 0.0384(18) 0.5994(9) 0.4006(9)
H2 H -0.0127 0.5978 0.4022
H3 H 0.0620 0.6314 0.3686
O1_2 O -0.5000 0.5000 0.5000
C1A C -0.2939(7) 0.5000 0.5000
C1D C 0.5000 0.2939(7) 0.5000
C1E C 0.5000 -0.2939(7) 0.5000
C1I C 0.5000 0.5000 0.7061(7)
C1H C 0.5000 0.5000 1.2939(7)
C2A C -0.1970(6) 0.5000 0.5000
C2D C 0.5000 0.1970(6) 0.5000
C2E C 0.5000 -0.1970(6) 0.5000
C2I C 0.5000 0.5000 0.8030(6)
C2H C 0.5000 0.5000 1.1970(6)
C3A C -0.0491(6) 0.5000 0.5000
C3D C 0.5000 0.0491(6) 0.5000
C3E C 0.5000 -0.0491(6) 0.5000
C3I C 0.5000 0.5000 0.9509(6)
C3H C 0.5000 0.5000 1.0491(6)
Zn1A Zn -0.43491(5) 0.56509(5) 0.56509(5)
Zn1B Zn -0.43491(5) 0.43491(5) 0.43491(5)
Zn1C Zn 0.43491(5) 0.56509(5) 0.43491(5)
Zn1A_2 Zn 0.56509(5) 0.56509(5) 0.56509(5)
Zn1B_2 Zn 0.56509(5) 0.43491(5) 0.43491(5)
Zn1C_2 Zn 0.43491(5) -0.43491(5) 0.43491(5)
Zn1A_3 Zn 0.56509(5) -0.43491(5) 0.56509(5)
Zn1B_3 Zn 0.56509(5) 0.43491(5) 1.43491(5)
Zn1C_3 Zn 0.43491(5) 0.56509(5) 1.43491(5)
O2A O -0.3297(5) 0.5490(3) 0.5490(3)
O2B O -0.3297(5) 0.4510(3) 0.4510(3)
O2C O 0.3297(5) 0.5490(3) 0.4510(3)
O2G O 0.4510(3) 0.3297(5) 0.5490(3)
O2F O 0.4510(3) -0.3297(5) 0.4510(3)
O2E O 0.5490(3) -0.3297(5) 0.5490(3)
O2D O 0.5490(3) 0.3297(5) 0.4510(3)
O2J O 0.4510(3) 0.4510(3) 0.6703(5)
O2K O 0.5490(3) 0.4510(3) 1.3297(5)
O2H O 0.4510(3) 0.5490(3) 1.3297(5)
O2I O 0.5490(3) 0.5490(3) 0.6703(5)
O2E_2 O -0.4510(3) 0.6703(5) 0.5490(3)
O2I_2 O -0.4510(3) 0.5490(3) 0.6703(5)
O2D_2 O -0.4510(3) 0.3297(5) 0.4510(3)
O2K_2 O -0.4510(3) 0.4510(3) 0.3297(5)
O2F_2 O 0.4510(3) 0.6703(5) 0.4510(3)
O2H_2 O 0.4510(3) 0.5490(3) 0.3297(5)
O2A_2 O 0.6703(5) 0.5490(3) 0.5490(3)
O2E_3 O 0.5490(3) 0.6703(5) 0.5490(3)
O2B_2 O 0.6703(5) 0.4510(3) 0.4510(3)
O2K_3 O 0.5490(3) 0.4510(3) 0.3297(5)
C4A C -0.1643(5) 0.4494(2) 0.4494(2)
C4B C -0.1643(5) 0.5506(2) 0.5506(2)
C4C C 0.1643(5) 0.4494(2) 0.5506(2)
C4G C 0.5506(2) 0.1643(5) 0.4494(2)
C4F C 0.5506(2) -0.1643(5) 0.5506(2)
C4E C 0.4494(2) -0.1643(5) 0.4494(2)
C4D C 0.4494(2) 0.1643(5) 0.5506(2)
C4J C 0.5506(2) 0.5506(2) 0.8357(5)
C4K C 0.4494(2) 0.5506(2) 1.1643(5)
C4H C 0.5506(2) 0.4494(2) 1.1643(5)
C4I C 0.4494(2) 0.4494(2) 0.8357(5)
H1B H -0.1941 0.5834 0.5834
H1A H -0.1941 0.4166 0.4166
H1C H 0.1941 0.4166 0.5834
H1G H 0.5834 0.1941 0.4166
H1E H 0.4166 -0.1941 0.4166
H1F H 0.5834 -0.1941 0.5834
H1D H 0.4166 0.1941 0.5834
H1J H 0.5834 0.5834 0.8059
H1H H 0.5834 0.4166 1.1941
H1K H 0.4166 0.5834 1.1941
H1I H 0.4166 0.4166 0.8059
C5A C -0.0825(6) 0.4495(2) 0.4495(2)
C5B C -0.0825(6) 0.5505(2) 0.5505(2)
C5C C 0.0825(6) 0.4495(2) 0.5505(2)
C5G C 0.5505(2) 0.0825(6) 0.4495(2)
C5F C 0.5505(2) -0.0825(6) 0.5505(2)
C5E C 0.4495(2) -0.0825(6) 0.4495(2)
C5D C 0.4495(2) 0.0825(6) 0.5505(2)
C5J C 0.5505(2) 0.5505(2) 0.9175(6)
C5K C 0.4495(2) 0.5505(2) 1.0825(6)
C5H C 0.5505(2) 0.4495(2) 1.0825(6)
C5I C 0.4495(2) 0.4495(2) 0.9175(6)
N1B N -0.0384(18) 0.5994(9) 0.5994(9)
N1A N -0.0384(18) 0.4006(9) 0.4006(9)
N1C N 0.0384(18) 0.4006(9) 0.5994(9)
N1G N 0.5994(9) 0.0384(18) 0.4006(9)
N1E N 0.4006(9) -0.0384(18) 0.4006(9)
N1F N 0.5994(9) -0.0384(18) 0.5994(9)
N1D N 0.4006(9) 0.0384(18) 0.5994(9)
N1J N 0.5994(9) 0.5994(9) 0.9616(18)
N1H N 0.5994(9) 0.4006(9) 1.0384(18)
N1K N 0.4006(9) 0.5994(9) 1.0384(18)
N1I N 0.4006(9) 0.4006(9) 0.9616(18)
H2B H 0.0127 0.5978 0.5978
H2A H 0.0127 0.4022 0.4022
H2C H -0.0127 0.4022 0.5978
H2G H 0.5978 -0.0127 0.4022
H2E H 0.4022 0.0127 0.4022
H2F H 0.5978 0.0127 0.5978
H2D H 0.4022 -0.0127 0.5978
H2J H 0.5978 0.5978 1.0127
H2H H 0.5978 0.4022 0.9873
H2K H 0.4022 0.5978 0.9873
H2I H 0.4022 0.4022 1.0127
H3B H -0.0620 0.6314 0.6314
H3A H -0.0620 0.3686 0.3686
H3C H 0.0620 0.3686 0.6314
H3G H 0.6314 0.0620 0.3686
H3E H 0.3686 -0.0620 0.3686
H3F H 0.6314 -0.0620 0.6314
H3D H 0.3686 0.0620 0.6314
H3J H 0.6314 0.6314 0.9380
H3H H 0.6314 0.3686 1.0620
H3K H 0.3686 0.6314 1.0620
H3I H 0.3686 0.3686 0.9380
loop_
_geom_bond_atom_site_label_1
_geom_bond_atom_site_label_2
_geom_bond_site_symmetry_1
_geom_bond_site_symmetry_2
O1 Zn1 1_555 1_555
C1 C2 1_555 1_555
C2 C4 1_555 1_555
C3 C5 1_555 1_555
Zn1 O2 1_555 1_555
O2 C1 1_555 1_555
C4 H1 1_555 1_555
C5 C4 1_555 1_555
N1 C5 1_555 1_555
H2 N1 1_555 1_555
H3 N1 1_555 1_555
O1_2 Zn1A 1_555 1_555
C1A C2A 1_555 1_555
C1D C2D 1_555 1_555
C1E C2E 1_555 1_555
C1I C2I 1_555 1_555
C1H C2H 1_555 1_555
C2A C4A 1_555 1_555
C2D C4G 1_555 1_555
C2E C4F 1_555 1_555
C2I C4J 1_555 1_555
C2H C4K 1_555 1_555
C3A C3 1_555 1_555
C3D C3E 1_555 1_555
C3E C5F 1_555 1_555
C3I C3H 1_555 1_555
C3H C5K 1_555 1_555
Zn1A O2A 1_555 1_555
Zn1B O1_2 1_555 1_555
Zn1C O1 1_555 1_555
Zn1A_2 O1 1_555 1_555
Zn1B_2 O1 1_555 1_555
Zn1C_2 O2F 1_555 1_555
Zn1A_3 O2E 1_555 1_555
Zn1B_3 O2K 1_555 1_555
Zn1C_3 O2H 1_555 1_555
O2A C1A 1_555 1_555
O2B C1A 1_555 1_555
O2C C1 1_555 1_555
O2G Zn1 1_555 1_555
O2F C1E 1_555 1_555
O2E C1E 1_555 1_555
O2D C1D 1_555 1_555
O2J Zn1 1_555 1_555
O2K C1H 1_555 1_555
O2H C1H 1_555 1_555
O2I C1I 1_555 1_555
O2E_2 Zn1A 1_555 1_555
O2I_2 Zn1A 1_555 1_555
O2D_2 Zn1B 1_555 1_555
O2K_2 Zn1B 1_555 1_555
O2F_2 Zn1C 1_555 1_555
O2H_2 Zn1C 1_555 1_555
O2A_2 Zn1A_2 1_555 1_555
O2E_3 Zn1A_2 1_555 1_555
O2B_2 Zn1B_2 1_555 1_555
O2K_3 Zn1B_2 1_555 1_555
C4A H1A 1_555 1_555
C4B C2A 1_555 1_555
C4C C2 1_555 1_555
C4G H1G 1_555 1_555
C4F H1F 1_555 1_555
C4E C2E 1_555 1_555
C4D C2D 1_555 1_555
C4J H1J 1_555 1_555
C4K H1K 1_555 1_555
C4H C2H 1_555 1_555
C4I C2I 1_555 1_555
H1B C4B 1_555 1_555
H1C C4C 1_555 1_555
H1E C4E 1_555 1_555
H1D C4D 1_555 1_555
H1H C4H 1_555 1_555
H1I C4I 1_555 1_555
C5A C3A 1_555 1_555
C5B C3A 1_555 1_555
C5C C3 1_555 1_555
C5G C3D 1_555 1_555
C5F C4F 1_555 1_555
C5E C3E 1_555 1_555
C5D C3D 1_555 1_555
C5J C3I 1_555 1_555
C5K C4K 1_555 1_555
C5H C3H 1_555 1_555
C5I C3I 1_555 1_555
N1B C5B 1_555 1_555
N1A C5A 1_555 1_555
N1C C5C 1_555 1_555
N1G C5G 1_555 1_555
N1E C5E 1_555 1_555
N1F C5F 1_555 1_555
N1D C5D 1_555 1_555
N1J C5J 1_555 1_555
N1H C5H 1_555 1_555
N1K C5K 1_555 1_555
N1I C5I 1_555 1_555
H2B N1B 1_555 1_555
H2A N1A 1_555 1_555
H2C N1C 1_555 1_555
H2G N1G 1_555 1_555
H2E N1E 1_555 1_555
H2F N1F 1_555 1_555
H2D N1D 1_555 1_555
H2J N1J 1_555 1_555
H2H N1H 1_555 1_555
H2K N1K 1_555 1_555
H2I N1I 1_555 1_555
H3B N1B 1_555 1_555
H3A N1A 1_555 1_555
H3C N1C 1_555 1_555
H3G N1G 1_555 1_555
H3E N1E 1_555 1_555
H3F N1F 1_555 1_555
H3D N1D 1_555 1_555
H3J N1J 1_555 1_555
H3H N1H 1_555 1_555
H3K N1K 1_555 1_555
H3I N1I 1_555 1_555
C1D O2G 1_555 1_555
C1I O2J 1_555 1_555
Zn1B O2B 1_555 1_555
Zn1C O2C 1_555 1_555
Zn1A_2 O2I 1_555 1_555
Zn1B_2 O2D 1_555 1_555
C4A C5A 1_555 1_555
C4B C5B 1_555 1_555
C4C C5C 1_555 1_555
C4G C5G 1_555 1_555
C4E C5E 1_555 1_555
C4D C5D 1_555 1_555
C4J C5J 1_555 1_555
C4H C5H 1_555 1_555
C4I C5I 1_555 1_555

#END
