
#######################################################################
#
#                 Cambridge Crystallographic Data Centre
#                                CCDC 
#
#######################################################################
#
# If this CIF has been generated from an entry in the Cambridge 
# Structural Database, then it will include bibliographic, chemical, 
# crystal, experimental, refinement or atomic coordinate data resulting 
# from the CCDC's data processing and validation procedures.
#
#######################################################################

data_KOZQIB
_chemical_formula_moiety         'C62 H36 Cu10 N2 O23'
_symmetry_cell_setting           cubic
_symmetry_space_group_name_H-M   'P m -3 m'
_symmetry_Int_Tables_number      221
_space_group_name_Hall           '-P 4 2 3'
loop_
_symmetry_equiv_pos_site_id
_symmetry_equiv_pos_as_xyz
1 x,y,z
2 -y,x,z
3 -x,-y,z
4 y,-x,z
5 x,-y,-z
6 y,x,-z
7 -x,y,-z
8 -y,-x,-z
9 z,x,y
10 -x,z,y
11 -z,-x,y
12 x,-z,y
13 z,-x,-y
14 x,z,-y
15 -z,x,-y
16 -x,-z,-y
17 y,z,x
18 -z,-y,-x
19 -z,y,x
20 z,y,-x
21 z,-y,x
22 y,-z,-x
23 -y,-z,x
24 -y,z,-x
25 -x,-y,-z
26 y,-x,-z
27 x,y,-z
28 -y,x,-z
29 -x,y,z
30 -y,-x,z
31 x,-y,z
32 y,x,z
33 -z,-x,-y
34 x,-z,-y
35 z,x,-y
36 -x,z,-y
37 -z,x,y
38 -x,-z,y
39 z,-x,y
40 x,z,y
41 -y,-z,-x
42 z,y,x
43 z,-y,-x
44 -z,-y,x
45 -z,y,-x
46 -y,z,x
47 y,z,-x
48 y,-z,x
_cell_length_a                   33.970(4)
_cell_length_b                   33.970(4)
_cell_length_c                   33.970(4)
_cell_angle_alpha                90
_cell_angle_beta                 90
_cell_angle_gamma                90
_cell_volume                     39200.1
loop_
_atom_site_label
_atom_site_type_symbol
_atom_site_fract_x
_atom_site_fract_y
_atom_site_fract_z
Cu1 Cu 0.295019(8) 0.5000 0.5000
Cu2 Cu 0.217818(9) 0.5000 0.5000
Cu3 Cu -0.0000 -0.0000 0.46110(3)
O1 O 0.28931(3) 0.44260(3) 0.5000
O2 O 0.22335(3) 0.44266(4) 0.5000
O3 O 0.15387(7) 0.5000 0.5000
O4 O 0.04065(3) 0.04065(3) 0.46645(9)
O5 O 0.0000 0.0000 0.3951(2)
O6 O 0.35893(6) 0.5000 0.5000
N1 N 0.26052(4) 0.26052(4) 0.5000
C1 C 0.25621(4) 0.42561(5) 0.5000
C2 C 0.25619(5) 0.38192(5) 0.5000
C3 C 0.29117(5) 0.36101(5) 0.5000
H1 H 0.3151 0.3743 0.5000
C4 C 0.29047(5) 0.32046(5) 0.5000
C5 C 0.25361(6) 0.30071(6) 0.5000
C6 C 0.23042(6) 0.23042(6) 0.5000
C7 C 0.22935(11) 0.20368(11) 0.47038(16)
H2 H 0.2477 0.2050 0.4501
C8 C 0.20066(11) 0.17412(11) 0.47023(15)
H3 H 0.2003 0.1554 0.4502
C9 C 0.17273(6) 0.17273(6) 0.5000
C10 C 0.14164(6) 0.14164(6) 0.5000
C11 C 0.12709(5) 0.12709(5) 0.46539(12)
H4 H 0.1368 0.1368 0.4417
C12 C 0.09793(5) 0.09793(5) 0.46456(14)
H5 H 0.0884 0.0884 0.4408
C13 C 0.08375(6) 0.08375(6) 0.5000
C14 C 0.05216(7) 0.05216(7) 0.5000
C15 C 0.21861(6) 0.32121(7) 0.5000
H6 H 0.1946 0.3080 0.5000
C16 C 0.22005(5) 0.36141(7) 0.5000
H7 H 0.1966 0.3756 0.5000
O1E O 0.44260(3) 0.28931(3) 0.5000
O2E O 0.44266(4) 0.22335(3) 0.5000
O4E O 0.04065(3) 0.04065(3) 0.53355(9)
C1E C 0.42561(5) 0.25621(4) 0.5000
C2E C 0.38192(5) 0.25619(5) 0.5000
C3E C 0.36101(5) 0.29117(5) 0.5000
H1E H 0.3743 0.3151 0.5000
C4E C 0.32046(5) 0.29047(5) 0.5000
C5E C 0.30071(6) 0.25361(6) 0.5000
C7E C 0.20368(11) 0.22935(11) 0.52962(16)
H2E H 0.2050 0.2477 0.5499
C8E C 0.17412(11) 0.20066(11) 0.52977(15)
H3E H 0.1554 0.2003 0.5498
C11E C 0.12709(5) 0.12709(5) 0.53461(12)
H4E H 0.1368 0.1368 0.5583
C12E C 0.09793(5) 0.09793(5) 0.53544(14)
H5E H 0.0884 0.0884 0.5592
C15E C 0.32121(7) 0.21861(6) 0.5000
H6E H 0.3080 0.1946 0.5000
C16E C 0.36141(7) 0.22005(5) 0.5000
H7E H 0.3756 0.1966 0.5000
C7Z C 0.22935(11) 0.20368(11) 0.52962(16)
H2Z H 0.2477 0.2050 0.5499
C8Z C 0.20066(11) 0.17412(11) 0.52977(15)
H3Z H 0.2003 0.1554 0.5498
C7EA C 0.20368(11) 0.22935(11) 0.47038(16)
H2EA H 0.2050 0.2477 0.4501
C8EA C 0.17412(11) 0.20066(11) 0.47023(15)
H3EA H 0.1554 0.2003 0.4502
O1A O -0.44260(3) 0.28931(3) 0.5000
O2A O -0.44266(4) 0.22335(3) 0.5000
O4A O -0.04065(3) 0.04065(3) 0.46645(9)
N1A N -0.26052(4) 0.26052(4) 0.5000
C1A C -0.42561(5) 0.25621(4) 0.5000
C2A C -0.38192(5) 0.25619(5) 0.5000
C3A C -0.36101(5) 0.29117(5) 0.5000
H1A H -0.3743 0.3151 0.5000
C4A C -0.32046(5) 0.29047(5) 0.5000
C5A C -0.30071(6) 0.25361(6) 0.5000
C6A C -0.23042(6) 0.23042(6) 0.5000
C7A C -0.20368(11) 0.22935(11) 0.47038(16)
H2A H -0.2050 0.2477 0.4501
C8A C -0.17412(11) 0.20066(11) 0.47023(15)
H3A H -0.1554 0.2003 0.4502
C9A C -0.17273(6) 0.17273(6) 0.5000
C10A C -0.14164(6) 0.14164(6) 0.5000
C11A C -0.12709(5) 0.12709(5) 0.46539(12)
H4A H -0.1368 0.1368 0.4417
C12A C -0.09793(5) 0.09793(5) 0.46456(14)
H5A H -0.0884 0.0884 0.4408
C13A C -0.08375(6) 0.08375(6) 0.5000
C14A C -0.05216(7) 0.05216(7) 0.5000
C15A C -0.32121(7) 0.21861(6) 0.5000
H6A H -0.3080 0.1946 0.5000
C16A C -0.36141(7) 0.22005(5) 0.5000
H7A H -0.3756 0.1966 0.5000
O1F O -0.28931(3) 0.44260(3) 0.5000
O2F O -0.22335(3) 0.44266(4) 0.5000
O4F O -0.04065(3) 0.04065(3) 0.53355(9)
C1F C -0.25621(4) 0.42561(5) 0.5000
C2F C -0.25619(5) 0.38192(5) 0.5000
C3F C -0.29117(5) 0.36101(5) 0.5000
H1F H -0.3151 0.3743 0.5000
C4F C -0.29047(5) 0.32046(5) 0.5000
C5F C -0.25361(6) 0.30071(6) 0.5000
C7F C -0.22935(11) 0.20368(11) 0.52962(16)
H2F H -0.2477 0.2050 0.5499
C8F C -0.20066(11) 0.17412(11) 0.52977(15)
H3F H -0.2003 0.1554 0.5498
C11F C -0.12709(5) 0.12709(5) 0.53461(12)
H4F H -0.1368 0.1368 0.5583
C12F C -0.09793(5) 0.09793(5) 0.53544(14)
H5F H -0.0884 0.0884 0.5592
C15F C -0.21861(6) 0.32121(7) 0.5000
H6F H -0.1946 0.3080 0.5000
C16F C -0.22005(5) 0.36141(7) 0.5000
H7F H -0.1966 0.3756 0.5000
C7AA C -0.20368(11) 0.22935(11) 0.52962(16)
H2AA H -0.2050 0.2477 0.5499
C8AA C -0.17412(11) 0.20066(11) 0.52977(15)
H3AA H -0.1554 0.2003 0.5498
C7BA C -0.22935(11) 0.20368(11) 0.47038(16)
H2BA H -0.2477 0.2050 0.4501
C8BA C -0.20066(11) 0.17412(11) 0.47023(15)
H3BA H -0.2003 0.1554 0.4502
Cu1A Cu -0.5000 0.295019(8) 0.5000
Cu1A_2 Cu 0.5000 0.295019(8) 0.5000
Cu1B Cu -0.295019(8) 0.5000 0.5000
Cu2A Cu -0.5000 0.217818(9) 0.5000
Cu2A_2 Cu 0.5000 0.217818(9) 0.5000
Cu2B Cu -0.217818(9) 0.5000 0.5000
Cu3D Cu -0.0000 -0.0000 0.53890(3)
O1D O 0.28931(3) 0.55740(3) 0.5000
O1K O 0.28931(3) 0.5000 0.44260(3)
O1M O 0.28931(3) 0.5000 0.55740(3)
O2D O 0.22335(3) 0.55734(4) 0.5000
O2K O 0.22335(3) 0.5000 0.44266(4)
O2M O 0.22335(3) 0.5000 0.55734(4)
O4B O -0.04065(3) -0.04065(3) 0.46645(9)
O4C O 0.04065(3) -0.04065(3) 0.46645(9)
loop_
_geom_bond_atom_site_label_1
_geom_bond_atom_site_label_2
_geom_bond_site_symmetry_1
_geom_bond_site_symmetry_2
Cu1 Cu2 1_555 1_555
Cu2 O2 1_555 1_555
Cu3 O4 1_555 1_555
O1 Cu1 1_555 1_555
O2 C1 1_555 1_555
O3 Cu2 1_555 1_555
O4 C14 1_555 1_555
O5 Cu3 1_555 1_555
O6 Cu1 1_555 1_555
N1 C5 1_555 1_555
C1 O1 1_555 1_555
C2 C1 1_555 1_555
C3 C2 1_555 1_555
H1 C3 1_555 1_555
C4 C3 1_555 1_555
C5 C4 1_555 1_555
C6 N1 1_555 1_555
C7 C6 1_555 1_555
H2 C7 1_555 1_555
C8 C7 1_555 1_555
H3 C8 1_555 1_555
C9 C8 1_555 1_555
C10 C9 1_555 1_555
C11 C10 1_555 1_555
H4 C11 1_555 1_555
C12 C11 1_555 1_555
H5 C12 1_555 1_555
C13 C12 1_555 1_555
C14 C13 1_555 1_555
C15 C5 1_555 1_555
H6 C15 1_555 1_555
C16 C2 1_555 1_555
H7 C16 1_555 1_555
O1E C1E 1_555 1_555
O2E C1E 1_555 1_555
O4E C14 1_555 1_555
C1E C2E 1_555 1_555
C2E C3E 1_555 1_555
C3E H1E 1_555 1_555
C4E C4 1_555 1_555
C5E N1 1_555 1_555
C7E C6 1_555 1_555
H2E C7E 1_555 1_555
C8E C9 1_555 1_555
H3E C8E 1_555 1_555
C11E C10 1_555 1_555
H4E C11E 1_555 1_555
C12E C13 1_555 1_555
H5E C12E 1_555 1_555
C15E C5E 1_555 1_555
H6E C15E 1_555 1_555
C16E C2E 1_555 1_555
H7E C16E 1_555 1_555
C7Z C6 1_555 1_555
H2Z C7Z 1_555 1_555
C8Z C9 1_555 1_555
H3Z C8Z 1_555 1_555
C7EA C6 1_555 1_555
H2EA C7EA 1_555 1_555
C8EA C8 1_555 1_555
H3EA C8EA 1_555 1_555
O1A C1A 1_555 1_555
O2A C1A 1_555 1_555
O4A Cu3 1_555 1_555
N1A C5A 1_555 1_555
C1A C2A 1_555 1_555
C2A C3A 1_555 1_555
C3A H1A 1_555 1_555
C4A C3A 1_555 1_555
C5A C4A 1_555 1_555
C6A N1A 1_555 1_555
C7A C6A 1_555 1_555
H2A C7A 1_555 1_555
C8A C7A 1_555 1_555
H3A C8A 1_555 1_555
C9A C8A 1_555 1_555
C10A C9A 1_555 1_555
C11A C10A 1_555 1_555
H4A C11A 1_555 1_555
C12A C11A 1_555 1_555
H5A C12A 1_555 1_555
C13A C12A 1_555 1_555
C14A O4A 1_555 1_555
C15A C5A 1_555 1_555
H6A C15A 1_555 1_555
C16A C2A 1_555 1_555
H7A C16A 1_555 1_555
O1F C1F 1_555 1_555
O2F C1F 1_555 1_555
O4F C14A 1_555 1_555
C1F C2F 1_555 1_555
C2F C3F 1_555 1_555
C3F H1F 1_555 1_555
C4F C4A 1_555 1_555
C5F N1A 1_555 1_555
C7F C6A 1_555 1_555
H2F C7F 1_555 1_555
C8F C9A 1_555 1_555
H3F C8F 1_555 1_555
C11F C10A 1_555 1_555
H4F C11F 1_555 1_555
C12F C13A 1_555 1_555
H5F C12F 1_555 1_555
C15F C5F 1_555 1_555
H6F C15F 1_555 1_555
C16F C2F 1_555 1_555
H7F C16F 1_555 1_555
C7AA C6A 1_555 1_555
H2AA C7AA 1_555 1_555
C8AA C9A 1_555 1_555
H3AA C8AA 1_555 1_555
C7BA C6A 1_555 1_555
H2BA C7BA 1_555 1_555
C8BA C8A 1_555 1_555
H3BA C8BA 1_555 1_555
Cu1A O1A 1_555 1_555
Cu1A_2 O1E 1_555 1_555
Cu1B O1F 1_555 1_555
Cu2A O2A 1_555 1_555
Cu2A_2 O2E 1_555 1_555
Cu2B O2F 1_555 1_555
Cu3D Cu3 1_555 1_555
O1D Cu1 1_555 1_555
O1K Cu1 1_555 1_555
O1M Cu1 1_555 1_555
O2D Cu2 1_555 1_555
O2K Cu2 1_555 1_555
O2M Cu2 1_555 1_555
O4B Cu3 1_555 1_555
O4C Cu3 1_555 1_555
C7 C7EA 1_555 1_555
C9 C8EA 1_555 1_555
C15 C16 1_555 1_555
O4E Cu3D 1_555 1_555
C3E C4E 1_555 1_555
C4E C5E 1_555 1_555
C7E C8E 1_555 1_555
C7E C7Z 1_555 1_555
C8E C8Z 1_555 1_555
C11E C12E 1_555 1_555
C15E C16E 1_555 1_555
C7Z C8Z 1_555 1_555
C7EA C8EA 1_555 1_555
C7A C7BA 1_555 1_555
C9A C8BA 1_555 1_555
C13A C14A 1_555 1_555
C15A C16A 1_555 1_555
O4F Cu3D 1_555 1_555
C3F C4F 1_555 1_555
C4F C5F 1_555 1_555
C7F C8F 1_555 1_555
C7F C7AA 1_555 1_555
C8F C8AA 1_555 1_555
C11F C12F 1_555 1_555
C15F C16F 1_555 1_555
C7AA C8AA 1_555 1_555
C7BA C8BA 1_555 1_555
Cu1A Cu2A 1_555 1_555
Cu1A_2 Cu2A_2 1_555 1_555
Cu1B Cu2B 1_555 1_555

#END
