
#######################################################################
#
#                 Cambridge Crystallographic Data Centre
#                                CCDC 
#
#######################################################################
#
# If this CIF has been generated from an entry in the Cambridge 
# Structural Database, then it will include bibliographic, chemical, 
# crystal, experimental, refinement or atomic coordinate data resulting 
# from the CCDC's data processing and validation procedures.
#
#######################################################################

data_NIWYOJ
_chemical_formula_moiety         '(C54 H18 O38 Zn9)n'
_symmetry_cell_setting           orthorhombic
_symmetry_space_group_name_H-M   'F d d 2'
_symmetry_Int_Tables_number      43
_space_group_name_Hall           'F 2 -2d'
loop_
_symmetry_equiv_pos_site_id
_symmetry_equiv_pos_as_xyz
1 x,y,z
2 -x,-y,z
3 1/4-x,1/4+y,1/4+z
4 3/4+x,3/4-y,1/4+z
5 x,1/2+y,1/2+z
6 -x,1/2-y,1/2+z
7 1/4-x,3/4+y,3/4+z
8 3/4+x,1/4-y,3/4+z
9 1/2+x,y,1/2+z
10 1/2-x,-y,1/2+z
11 3/4-x,1/4+y,3/4+z
12 1/4+x,3/4-y,3/4+z
13 1/2+x,1/2+y,z
14 1/2-x,1/2-y,z
15 3/4-x,3/4+y,1/4+z
16 1/4+x,1/4-y,1/4+z
_cell_length_a                   29.928(10)
_cell_length_b                   43.631(9)
_cell_length_c                   16.789(3)
_cell_angle_alpha                90
_cell_angle_beta                 90
_cell_angle_gamma                90
_cell_volume                     21922.9
loop_
_atom_site_label
_atom_site_type_symbol
_atom_site_fract_x
_atom_site_fract_y
_atom_site_fract_z
Zn1 Zn 0.09637(4) 0.27808(2) 0.06356(6)
Zn2 Zn 0.04557(4) 0.30414(2) 0.21899(6)
Zn3 Zn 0.14652(4) 0.28638(2) 0.22714(6)
Zn4 Zn 0.11259(4) 0.34488(2) 0.13018(7)
Zn5 Zn 0.2500 0.2500 -0.34659(9)
O1 O 0.1014(2) 0.30225(15) 0.1592(4)
O2 O 0.1299(3) 0.29682(15) -0.0245(4)
O3 O 0.0359(2) 0.26763(16) 0.0315(4)
O4 O 0.1238(2) 0.23582(15) 0.0773(5)
O5 O -0.0526(2) 0.21978(15) -0.1787(4)
O6 O 0.1745(3) 0.09541(16) 0.0374(4)
O7 O 0.0089(3) 0.27084(17) 0.1571(4)
O8 O 0.2457(3) 0.41600(17) -0.0478(5)
O9 O 0.2992(2) 0.18929(15) 0.2290(4)
O10 O -0.1270(3) 0.22103(18) -0.1640(4)
O11 O 0.1657(3) 0.24649(17) 0.1859(5)
O12 O 0.1485(2) 0.12983(16) -0.0503(4)
O13 O 0.3181(2) 0.15136(17) 0.1432(5)
O14 O 0.1221(3) 0.34551(18) 0.0131(5)
O15 O 0.2879(3) 0.4062(2) -0.1511(4)
O16 O -0.1976(2) 0.25159(19) 0.0827(4)
O17 O 0.2340(4) 0.2807(2) -0.2726(6)
O18 O 0.2318(7) 0.3216(3) -0.3450(7)
O19 O -0.1563(3) 0.2594(3) 0.1889(5)
C1 C -0.0875(3) 0.2248(2) -0.1401(6)
C2 C -0.0830(3) 0.2377(2) -0.0572(6)
C3 C 0.0053(3) 0.2655(2) 0.0859(6)
C4 C 0.2263(3) 0.1463(2) 0.0998(6)
H1 H 0.2427 0.1284 0.0931
C5 C 0.1611(3) 0.1771(2) 0.0715(6)
H2 H 0.1344 0.1799 0.0441
C6 C 0.1852(4) 0.3173(2) -0.1547(6)
H3 H 0.1720 0.2983 -0.1627
C7 C 0.1402(4) 0.3250(3) -0.0293(6)
C8 C -0.0432(3) 0.2454(2) -0.0276(6)
H4 H -0.0175 0.2435 -0.0585
C9 C 0.2286(3) 0.3719(2) -0.1282(6)
C10 C 0.1785(3) 0.1999(2) 0.1182(5)
C11 C -0.1185(3) 0.2522(2) 0.0670(6)
C12 C 0.1684(4) 0.1223(2) 0.0151(6)
C13 C 0.1853(4) 0.14888(19) 0.0664(6)
C14 C 0.1530(3) 0.2306(2) 0.1267(7)
C15 C 0.2901(4) 0.1705(3) 0.1726(6)
C16 C 0.2377(4) 0.3554(3) -0.1933(6)
H5 H 0.2592 0.3621 -0.2293
C17 C 0.2291(5) 0.3091(3) -0.2810(9)
C18 C 0.2440(3) 0.1708(2) 0.1451(6)
C19 C 0.1741(4) 0.3352(3) -0.0871(6)
C20 C 0.2153(4) 0.3283(2) -0.2071(7)
C21 C -0.0404(3) 0.2565(2) 0.0502(6)
C22 C -0.0785(4) 0.2592(3) 0.0986(6)
H6 H -0.0761 0.2657 0.1512
C23 C -0.1604(4) 0.2557(3) 0.1170(7)
C24 C 0.1950(4) 0.3621(2) -0.0755(6)
H7 H 0.1872 0.3743 -0.0322
C25 C 0.2183(4) 0.1969(2) 0.1517(7)
H8 H 0.2295 0.2133 0.1811
C26 C 0.2573(4) 0.3998(3) -0.1085(8)
C27 C -0.1227(3) 0.2405(3) -0.0106(6)
H9 H -0.1504 0.2348 -0.0309
Zn1M Zn 0.40363(4) 0.22192(2) 0.06356(6)
Zn2M Zn 0.45443(4) 0.19586(2) 0.21899(6)
Zn3M Zn 0.35348(4) 0.21362(2) 0.22714(6)
Zn4M Zn 0.38741(4) 0.15512(2) 0.13018(7)
O1M O 0.3986(2) 0.19775(15) 0.1592(4)
O2M O 0.3701(3) 0.20318(15) -0.0245(4)
O3M O 0.4641(2) 0.23237(16) 0.0315(4)
O4M O 0.3762(2) 0.26418(15) 0.0773(5)
O5M O 0.5526(2) 0.28022(15) -0.1787(4)
O6M O 0.3255(3) 0.40459(16) 0.0374(4)
O7M O 0.4911(3) 0.22916(17) 0.1571(4)
O8M O 0.2543(3) 0.08400(17) -0.0478(5)
O9M O 0.2008(2) 0.31071(15) 0.2290(4)
O10M O 0.6270(3) 0.27897(18) -0.1640(4)
O11M O 0.3343(3) 0.25351(17) 0.1859(5)
O12M O 0.3515(2) 0.37017(16) -0.0503(4)
O13M O 0.1819(2) 0.34864(17) 0.1432(5)
O14M O 0.3779(3) 0.15449(18) 0.0131(5)
O15M O 0.2121(3) 0.0938(2) -0.1511(4)
O16M O 0.6976(2) 0.24841(19) 0.0827(4)
O17M O 0.2660(4) 0.2193(2) -0.2726(6)
O18M O 0.2682(7) 0.1784(3) -0.3450(7)
O19M O 0.6563(3) 0.2406(3) 0.1889(5)
C1M C 0.5875(3) 0.2752(2) -0.1401(6)
C2M C 0.5830(3) 0.2623(2) -0.0572(6)
C3M C 0.4947(3) 0.2345(2) 0.0859(6)
C4M C 0.2737(3) 0.3537(2) 0.0998(6)
H1M H 0.2573 0.3716 0.0931
C5M C 0.3389(3) 0.3229(2) 0.0715(6)
H2M H 0.3656 0.3201 0.0441
C6M C 0.3148(4) 0.1827(2) -0.1547(6)
H3M H 0.3280 0.2017 -0.1627
C7M C 0.3598(4) 0.1750(3) -0.0293(6)
C8M C 0.5432(3) 0.2546(2) -0.0276(6)
H4M H 0.5175 0.2565 -0.0585
C9M C 0.2714(3) 0.1281(2) -0.1282(6)
C10M C 0.3215(3) 0.3001(2) 0.1182(5)
C11M C 0.6185(3) 0.2478(2) 0.0670(6)
C12M C 0.3316(4) 0.3777(2) 0.0151(6)
C13M C 0.3147(4) 0.35112(19) 0.0664(6)
C14M C 0.3470(3) 0.2694(2) 0.1267(7)
C15M C 0.2099(4) 0.3295(3) 0.1726(6)
C16M C 0.2623(4) 0.1446(3) -0.1933(6)
H5M H 0.2408 0.1379 -0.2293
C17M C 0.2709(5) 0.1909(3) -0.2810(9)
C18M C 0.2560(3) 0.3292(2) 0.1451(6)
C19M C 0.3259(4) 0.1648(3) -0.0871(6)
C20M C 0.2847(4) 0.1717(2) -0.2071(7)
C21M C 0.5404(3) 0.2435(2) 0.0502(6)
C22M C 0.5785(4) 0.2408(3) 0.0986(6)
H6M H 0.5761 0.2343 0.1512
C23M C 0.6604(4) 0.2443(3) 0.1170(7)
C24M C 0.3050(4) 0.1379(2) -0.0755(6)
H7M H 0.3128 0.1257 -0.0322
C25M C 0.2817(4) 0.3031(2) 0.1517(7)
H8M H 0.2705 0.2867 0.1811
C26M C 0.2427(4) 0.1002(3) -0.1085(8)
C27M C 0.6227(3) 0.2595(3) -0.0106(6)
H9M H 0.6504 0.2652 -0.0309
Zn2E Zn -0.04557(4) 0.19586(2) -0.28101(6)
Zn2F Zn 0.20443(4) 0.05414(2) -0.03101(6)
Zn2H Zn 0.54557(4) 0.30414(2) -0.28101(6)
Zn2K Zn 0.29557(4) 0.44586(2) -0.03101(6)
Zn3E Zn -0.14652(4) 0.21362(2) -0.27286(6)
Zn3H Zn 0.64652(4) 0.28638(2) -0.27286(6)
Zn4F Zn 0.13741(4) 0.09488(2) -0.11982(7)
Zn4K Zn 0.36259(4) 0.40512(2) -0.11982(7)
Zn5E Zn -0.2500 0.2500 0.15341(9)
Zn5E_2 Zn 0.7500 0.2500 0.15341(9)
O5E O 0.0526(2) 0.28022(15) 0.3213(4)
O5H O 0.4474(2) 0.21978(15) 0.3213(4)
O6B O 0.0755(3) 0.34541(16) 0.2874(4)
O6O O 0.4245(3) 0.15459(16) 0.2874(4)
O8C O -0.0043(3) 0.33400(17) 0.2022(5)
O8N O 0.5043(3) 0.16600(17) 0.2022(5)
O10E O 0.1270(3) 0.27897(18) 0.3360(4)
O10H O 0.3730(3) 0.22103(18) 0.3360(4)
O12B O 0.1015(2) 0.37983(16) 0.1997(4)
O12O O 0.3985(2) 0.12017(16) 0.1997(4)
O15C O 0.0379(3) 0.3438(2) 0.0989(4)
O15N O 0.4621(3) 0.1562(2) 0.0989(4)
O16E O 0.1976(2) 0.24841(19) -0.4173(4)
O16H O 0.3024(2) 0.25159(19) -0.4173(4)
loop_
_geom_bond_atom_site_label_1
_geom_bond_atom_site_label_2
_geom_bond_site_symmetry_1
_geom_bond_site_symmetry_2
Zn1 O1 1_555 1_555
Zn2 O1 1_555 1_555
Zn3 O1 1_555 1_555
Zn4 O1 1_555 1_555
Zn5 O17 1_555 1_555
O2 Zn1 1_555 1_555
O3 Zn1 1_555 1_555
O4 Zn1 1_555 1_555
O5 C1 1_555 1_555
O6 C12 1_555 1_555
O7 Zn2 1_555 1_555
O8 C26 1_555 1_555
O9 C15 1_555 1_555
O10 C1 1_555 1_555
O11 Zn3 1_555 1_555
O12 C12 1_555 1_555
O13 C15 1_555 1_555
O14 Zn4 1_555 1_555
O15 C26 1_555 1_555
O16 C23 1_555 1_555
O17 C17 1_555 1_555
O18 C17 1_555 1_555
O19 C23 1_555 1_555
C1 C2 1_555 1_555
C2 C8 1_555 1_555
C3 O3 1_555 1_555
C4 H1 1_555 1_555
C5 H2 1_555 1_555
C6 H3 1_555 1_555
C7 O2 1_555 1_555
C8 H4 1_555 1_555
C9 C16 1_555 1_555
C10 C5 1_555 1_555
C11 C22 1_555 1_555
C12 C13 1_555 1_555
C13 C4 1_555 1_555
C14 O4 1_555 1_555
C15 C18 1_555 1_555
C16 H5 1_555 1_555
C17 C20 1_555 1_555
C18 C4 1_555 1_555
C19 C6 1_555 1_555
C20 C6 1_555 1_555
C21 C3 1_555 1_555
C22 C21 1_555 1_555
H6 C22 1_555 1_555
C23 C11 1_555 1_555
C24 C9 1_555 1_555
H7 C24 1_555 1_555
C25 C10 1_555 1_555
H8 C25 1_555 1_555
C26 C9 1_555 1_555
C27 C2 1_555 1_555
H9 C27 1_555 1_555
Zn1M O1M 1_555 1_555
Zn2M O1M 1_555 1_555
Zn3M O9 1_555 1_555
Zn4M O13 1_555 1_555
O1M Zn3M 1_555 1_555
O2M Zn1M 1_555 1_555
O3M Zn1M 1_555 1_555
O4M Zn1M 1_555 1_555
O5M C1M 1_555 1_555
O6M C12M 1_555 1_555
O7M Zn2M 1_555 1_555
O8M C26M 1_555 1_555
O9M Zn3 1_555 1_555
O10M C1M 1_555 1_555
O11M Zn3M 1_555 1_555
O12M C12M 1_555 1_555
O13M Zn4 1_555 1_555
O14M Zn4M 1_555 1_555
O15M C26M 1_555 1_555
O16M C23M 1_555 1_555
O17M Zn5 1_555 1_555
O18M C17M 1_555 1_555
O19M C23M 1_555 1_555
C1M C2M 1_555 1_555
C2M C8M 1_555 1_555
C3M O3M 1_555 1_555
C4M H1M 1_555 1_555
C5M H2M 1_555 1_555
C6M H3M 1_555 1_555
C7M O2M 1_555 1_555
C8M H4M 1_555 1_555
C9M C16M 1_555 1_555
C10M C5M 1_555 1_555
C11M C22M 1_555 1_555
C12M C13M 1_555 1_555
C13M C4M 1_555 1_555
C14M O4M 1_555 1_555
C15M O9M 1_555 1_555
C16M H5M 1_555 1_555
C17M O17M 1_555 1_555
C18M C4M 1_555 1_555
C19M C6M 1_555 1_555
C20M C6M 1_555 1_555
C21M C3M 1_555 1_555
C22M C21M 1_555 1_555
H6M C22M 1_555 1_555
C23M C11M 1_555 1_555
C24M C9M 1_555 1_555
H7M C24M 1_555 1_555
C25M C10M 1_555 1_555
H8M C25M 1_555 1_555
C26M C9M 1_555 1_555
C27M C2M 1_555 1_555
H9M C27M 1_555 1_555
Zn2E O5 1_555 1_555
Zn2F O6 1_555 1_555
Zn2H O5M 1_555 1_555
Zn2K O8 1_555 1_555
Zn3E O10 1_555 1_555
Zn3H O10M 1_555 1_555
Zn4F O12 1_555 1_555
Zn4K O15 1_555 1_555
Zn5E O16 1_555 1_555
Zn5E_2 O16M 1_555 1_555
O5E Zn2 1_555 1_555
O5H Zn2M 1_555 1_555
O6B Zn2 1_555 1_555
O6O Zn2M 1_555 1_555
O8C Zn2 1_555 1_555
O8N Zn2M 1_555 1_555
O10E Zn3 1_555 1_555
O10H Zn3M 1_555 1_555
O12B Zn4 1_555 1_555
O12O Zn4M 1_555 1_555
O15C Zn4 1_555 1_555
O15N Zn4M 1_555 1_555
O16E Zn5 1_555 1_555
O16H Zn5 1_555 1_555
O7 C3 1_555 1_555
O11 C14 1_555 1_555
O14 C7 1_555 1_555
C5 C13 1_555 1_555
C7 C19 1_555 1_555
C8 C21 1_555 1_555
C10 C14 1_555 1_555
C11 C27 1_555 1_555
C16 C20 1_555 1_555
C18 C25 1_555 1_555
C19 C24 1_555 1_555
Zn4M O1M 1_555 1_555
O6M Zn2K 1_555 1_555
O7M C3M 1_555 1_555
O8M Zn2F 1_555 1_555
O11M C14M 1_555 1_555
O12M Zn4K 1_555 1_555
O13M C15M 1_555 1_555
O14M C7M 1_555 1_555
O15M Zn4F 1_555 1_555
C5M C13M 1_555 1_555
C7M C19M 1_555 1_555
C8M C21M 1_555 1_555
C10M C14M 1_555 1_555
C11M C27M 1_555 1_555
C15M C18M 1_555 1_555
C16M C20M 1_555 1_555
C17M C20M 1_555 1_555
C18M C25M 1_555 1_555
C19M C24M 1_555 1_555

#END
