
#######################################################################
#
#                 Cambridge Crystallographic Data Centre
#                                CCDC 
#
#######################################################################
#
# If this CIF has been generated from an entry in the Cambridge 
# Structural Database, then it will include bibliographic, chemical, 
# crystal, experimental, refinement or atomic coordinate data resulting 
# from the CCDC's data processing and validation procedures.
#
#######################################################################

data_NIWYEZ
_chemical_formula_moiety         '(C54 H24 O41 Zn9)n'
_symmetry_cell_setting           cubic
_symmetry_space_group_name_H-M   'I 2 3'
_symmetry_Int_Tables_number      197
_space_group_name_Hall           'I 2 2 3'
loop_
_symmetry_equiv_pos_site_id
_symmetry_equiv_pos_as_xyz
1 x,y,z
2 -x,-y,z
3 x,-y,-z
4 -x,y,-z
5 z,x,y
6 -z,-x,y
7 z,-x,-y
8 -z,x,-y
9 y,z,x
10 y,-z,-x
11 -y,z,-x
12 -y,-z,x
13 1/2+x,1/2+y,1/2+z
14 1/2-x,1/2-y,1/2+z
15 1/2+x,1/2-y,1/2-z
16 1/2-x,1/2+y,1/2-z
17 1/2+z,1/2+x,1/2+y
18 1/2-z,1/2-x,1/2+y
19 1/2+z,1/2-x,1/2-y
20 1/2-z,1/2+x,1/2-y
21 1/2+y,1/2+z,1/2+x
22 1/2+y,1/2-z,1/2-x
23 1/2-y,1/2+z,1/2-x
24 1/2-y,1/2-z,1/2+x
_cell_length_a                   23.550(8)
_cell_length_b                   23.550(8)
_cell_length_c                   23.550(8)
_cell_angle_alpha                90
_cell_angle_beta                 90
_cell_angle_gamma                90
_cell_volume                     13060.9
loop_
_atom_site_label
_atom_site_type_symbol
_atom_site_fract_x
_atom_site_fract_y
_atom_site_fract_z
Zn1 Zn 0.0000 0.56337(4) 0.5000
Zn2 Zn 0.20492(4) 0.26111(4) 0.31839(4)
O1 O 0.0536(3) 0.5436(3) 0.4327(2)
O2 O 0.0650(3) 0.4508(3) 0.4476(3)
O3 O 0.1537(4) 0.6360(3) 0.2766(4)
O4 O 0.2016(3) 0.3433(3) 0.3343(3)
O5 O 0.2370(3) 0.3820(3) 0.2544(3)
O6 O 0.0000 0.6459(6) 0.5000
C1 C 0.2091(3) 0.3848(4) 0.3010(3)
C2 C 0.0757(3) 0.4974(5) 0.4222(3)
C3 C 0.1447(3) 0.4429(4) 0.3615(3)
H1 H 0.1369 0.4105 0.3826
C4 C 0.1837(3) 0.4407(3) 0.3154(4)
C5 C 0.1189(4) 0.4931(4) 0.3743(3)
C6 C 0.1950(4) 0.4877(4) 0.2848(4)
H2 H 0.2208 0.4857 0.2549
C7 C 0.1298(4) 0.5426(4) 0.3411(4)
H3 H 0.1110 0.5764 0.3489
C8 C 0.1682(5) 0.5400(4) 0.2976(5)
C9 C 0.1801(5) 0.5922(4) 0.2618(5)
O7 O 0.2185(5) 0.5893(4) 0.2239(5)
O8 O 0.23071(11) 0.23071(11) 0.23071(11)
Zn1A Zn -0.0000 0.43663(4) 0.5000
Zn2A Zn -0.20492(4) 0.73889(4) 0.31839(4)
O1A O -0.0536(3) 0.4564(3) 0.4327(2)
O2A O -0.0650(3) 0.5492(3) 0.4476(3)
O3A O -0.1537(4) 0.3640(3) 0.2766(4)
O4A O -0.2016(3) 0.6567(3) 0.3343(3)
O5A O -0.2370(3) 0.6180(3) 0.2544(3)
O6A O -0.0000 0.3541(6) 0.5000
C1A C -0.2091(3) 0.6152(4) 0.3010(3)
C2A C -0.0757(3) 0.5026(5) 0.4222(3)
C3A C -0.1447(3) 0.5571(4) 0.3615(3)
H1A H -0.1369 0.5895 0.3826
C4A C -0.1837(3) 0.5593(3) 0.3154(4)
C5A C -0.1189(4) 0.5069(4) 0.3743(3)
C6A C -0.1950(4) 0.5123(4) 0.2848(4)
H2A H -0.2208 0.5143 0.2549
C7A C -0.1298(4) 0.4574(4) 0.3411(4)
H3A H -0.1110 0.4236 0.3489
C8A C -0.1682(5) 0.4600(4) 0.2976(5)
C9A C -0.1801(5) 0.4078(4) 0.2618(5)
O7A O -0.2185(5) 0.4107(4) 0.2239(5)
Zn2B Zn 0.20492(4) 0.73889(4) 0.68161(4)
O1B O 0.0536(3) 0.4564(3) 0.5673(2)
O2B O 0.0650(3) 0.5492(3) 0.5524(3)
O3B O 0.1537(4) 0.3640(3) 0.7234(4)
O4B O 0.2016(3) 0.6567(3) 0.6657(3)
O5B O 0.2370(3) 0.6180(3) 0.7456(3)
C1B C 0.2091(3) 0.6152(4) 0.6990(3)
C2B C 0.0757(3) 0.5026(5) 0.5778(3)
C3B C 0.1447(3) 0.5571(4) 0.6385(3)
H1B H 0.1369 0.5895 0.6174
C4B C 0.1837(3) 0.5593(3) 0.6846(4)
C5B C 0.1189(4) 0.5069(4) 0.6257(3)
C6B C 0.1950(4) 0.5123(4) 0.7152(4)
H2B H 0.2208 0.5143 0.7451
C7B C 0.1298(4) 0.4574(4) 0.6589(4)
H3B H 0.1110 0.4236 0.6511
C8B C 0.1682(5) 0.4600(4) 0.7024(5)
C9B C 0.1801(5) 0.4078(4) 0.7382(5)
O7B O 0.2185(5) 0.4107(4) 0.7761(5)
O8B O 0.23071(11) 0.76929(11) 0.76929(11)
Zn2C Zn -0.20492(4) 0.26111(4) 0.68161(4)
O1C O -0.0536(3) 0.5436(3) 0.5673(2)
O2C O -0.0650(3) 0.4508(3) 0.5524(3)
O3C O -0.1537(4) 0.6360(3) 0.7234(4)
O4C O -0.2016(3) 0.3433(3) 0.6657(3)
O5C O -0.2370(3) 0.3820(3) 0.7456(3)
C1C C -0.2091(3) 0.3848(4) 0.6990(3)
C2C C -0.0757(3) 0.4974(5) 0.5778(3)
C3C C -0.1447(3) 0.4429(4) 0.6385(3)
H1C H -0.1369 0.4105 0.6174
C4C C -0.1837(3) 0.4407(3) 0.6846(4)
C5C C -0.1189(4) 0.4931(4) 0.6257(3)
C6C C -0.1950(4) 0.4877(4) 0.7152(4)
H2C H -0.2208 0.4857 0.7451
C7C C -0.1298(4) 0.5426(4) 0.6589(4)
H3C H -0.1110 0.5764 0.6511
C8C C -0.1682(5) 0.5400(4) 0.7024(5)
C9C C -0.1801(5) 0.5922(4) 0.7382(5)
O7C O -0.2185(5) 0.5893(4) 0.7761(5)
Zn1D Zn 0.5000 -0.0000 0.56337(4)
Zn2D Zn 0.31839(4) 0.20492(4) 0.26111(4)
O1D O 0.4327(2) 0.0536(3) 0.5436(3)
O2D O 0.4476(3) 0.0650(3) 0.4508(3)
O3D O 0.2766(4) 0.1537(4) 0.6360(3)
O4D O 0.3343(3) 0.2016(3) 0.3433(3)
O5D O 0.2544(3) 0.2370(3) 0.3820(3)
O6D O 0.5000 0.0000 0.6459(6)
C1D C 0.3010(3) 0.2091(3) 0.3848(4)
C2D C 0.4222(3) 0.0757(3) 0.4974(5)
C3D C 0.3615(3) 0.1447(3) 0.4429(4)
H1D H 0.3826 0.1369 0.4105
C4D C 0.3154(4) 0.1837(3) 0.4407(3)
C5D C 0.3743(3) 0.1189(4) 0.4931(4)
C6D C 0.2848(4) 0.1950(4) 0.4877(4)
H2D H 0.2549 0.2208 0.4857
C7D C 0.3411(4) 0.1298(4) 0.5426(4)
H3D H 0.3489 0.1110 0.5764
C8D C 0.2976(5) 0.1682(5) 0.5400(4)
C9D C 0.2618(5) 0.1801(5) 0.5922(4)
O7D O 0.2239(5) 0.2185(5) 0.5893(4)
Zn2F Zn 0.31839(4) 0.79508(4) 0.73889(4)
O1F O 0.4327(2) 0.9464(3) 0.4564(3)
O2F O 0.4476(3) 0.9350(3) 0.5492(3)
O3F O 0.2766(4) 0.8463(4) 0.3640(3)
O4F O 0.3343(3) 0.7984(3) 0.6567(3)
O5F O 0.2544(3) 0.7630(3) 0.6180(3)
C1F C 0.3010(3) 0.7909(3) 0.6152(4)
C2F C 0.4222(3) 0.9243(3) 0.5026(5)
C3F C 0.3615(3) 0.8553(3) 0.5571(4)
H1F H 0.3826 0.8631 0.5895
C4F C 0.3154(4) 0.8163(3) 0.5593(3)
C5F C 0.3743(3) 0.8811(4) 0.5069(4)
C6F C 0.2848(4) 0.8050(4) 0.5123(4)
H2F H 0.2549 0.7792 0.5143
C7F C 0.3411(4) 0.8702(4) 0.4574(4)
H3F H 0.3489 0.8890 0.4236
C8F C 0.2976(5) 0.8318(5) 0.4600(4)
C9F C 0.2618(5) 0.8199(5) 0.4078(4)
O7F O 0.2239(5) 0.7815(5) 0.4107(4)
Zn1D_2 Zn 0.5000 1.0000 0.56337(4)
Zn1F Zn 0.5000 0.0000 0.43663(4)
Zn1F_2 Zn 0.5000 1.0000 0.43663(4)
Zn2H Zn 0.26111(4) 0.31839(4) 0.20492(4)
Zn2I Zn 0.26111(4) 0.68161(4) 0.79508(4)
Zn2J Zn -0.26111(4) 0.31839(4) 0.79508(4)
Zn2K Zn -0.26111(4) 0.68161(4) 0.20492(4)
Zn2P Zn -0.18161(4) 0.70492(4) 0.76111(4)
Zn2Q Zn 0.18161(4) 0.29508(4) 0.76111(4)
Zn2R Zn -0.18161(4) 0.29508(4) 0.23889(4)
Zn2S Zn 0.18161(4) 0.70492(4) 0.23889(4)
Zn2V Zn 0.23889(4) 0.81839(4) 0.29508(4)
Zn2W Zn 0.23889(4) 0.18161(4) 0.70492(4)
O1E O 0.5673(2) -0.0536(3) 0.5436(3)
O2F_2 O 0.4476(3) -0.0650(3) 0.5492(3)
O2G O 0.5524(3) 0.0650(3) 0.5492(3)
O3M O 0.3463(4) 0.8640(3) 0.7766(4)
O3O O 0.3463(4) 0.1360(3) 0.2234(4)
O3T O 0.1360(3) 0.7766(4) 0.6537(4)
O3U O 0.1360(3) 0.2234(4) 0.3463(4)
O3V O -0.1360(3) 0.7766(4) 0.3463(4)
O3W O -0.1360(3) 0.2234(4) 0.6537(4)
O5E O -0.2544(3) 0.7630(3) 0.3820(3)
O5G O -0.2544(3) 0.2370(3) 0.6180(3)
O5H O 0.3820(3) 0.2544(3) 0.2370(3)
O5I O 0.3820(3) 0.7456(3) 0.7630(3)
O8A O -0.23071(11) 0.76929(11) 0.23071(11)
O8C O -0.23071(11) 0.23071(11) 0.76929(11)
loop_
_geom_bond_atom_site_label_1
_geom_bond_atom_site_label_2
_geom_bond_site_symmetry_1
_geom_bond_site_symmetry_2
Zn1 O1 1_555 1_555
Zn2 O4 1_555 1_555
O1 C2 1_555 1_555
O2 C2 1_555 1_555
O3 C9 1_555 1_555
O4 C1 1_555 1_555
O5 C1 1_555 1_555
O6 Zn1 1_555 1_555
C1 C4 1_555 1_555
C2 C5 1_555 1_555
C3 H1 1_555 1_555
C4 C3 1_555 1_555
C5 C3 1_555 1_555
C6 C4 1_555 1_555
H2 C6 1_555 1_555
C7 C5 1_555 1_555
H3 C7 1_555 1_555
C8 C6 1_555 1_555
C9 C8 1_555 1_555
O7 C9 1_555 1_555
O8 Zn2 1_555 1_555
Zn1A O2 1_555 1_555
Zn2A O4A 1_555 1_555
O1A Zn1A 1_555 1_555
O2A Zn1 1_555 1_555
O3A C9A 1_555 1_555
O4A C1A 1_555 1_555
O5A C1A 1_555 1_555
O6A Zn1A 1_555 1_555
C1A C4A 1_555 1_555
C2A O1A 1_555 1_555
C3A H1A 1_555 1_555
C4A C3A 1_555 1_555
C5A C2A 1_555 1_555
C6A C4A 1_555 1_555
H2A C6A 1_555 1_555
C7A C5A 1_555 1_555
H3A C7A 1_555 1_555
C8A C6A 1_555 1_555
C9A C8A 1_555 1_555
O7A C9A 1_555 1_555
Zn2B O4B 1_555 1_555
O1B Zn1A 1_555 1_555
O2B Zn1 1_555 1_555
O3B C9B 1_555 1_555
O4B C1B 1_555 1_555
O5B C1B 1_555 1_555
C1B C4B 1_555 1_555
C2B O1B 1_555 1_555
C3B H1B 1_555 1_555
C4B C3B 1_555 1_555
C5B C2B 1_555 1_555
C6B C4B 1_555 1_555
H2B C6B 1_555 1_555
C7B C5B 1_555 1_555
H3B C7B 1_555 1_555
C8B C6B 1_555 1_555
C9B C8B 1_555 1_555
O7B C9B 1_555 1_555
O8B Zn2B 1_555 1_555
Zn2C O4C 1_555 1_555
O1C Zn1 1_555 1_555
O2C Zn1A 1_555 1_555
O3C C9C 1_555 1_555
O4C C1C 1_555 1_555
O5C C1C 1_555 1_555
C1C C4C 1_555 1_555
C2C O1C 1_555 1_555
C3C H1C 1_555 1_555
C4C C3C 1_555 1_555
C5C C2C 1_555 1_555
C6C C4C 1_555 1_555
H2C C6C 1_555 1_555
C7C C5C 1_555 1_555
H3C C7C 1_555 1_555
C8C C6C 1_555 1_555
C9C C8C 1_555 1_555
O7C C9C 1_555 1_555
Zn1D O1D 1_555 1_555
Zn2D O8 1_555 1_555
O1D C2D 1_555 1_555
O2D C2D 1_555 1_555
O3D C9D 1_555 1_555
O4D Zn2D 1_555 1_555
O5D Zn2 1_555 1_555
O6D Zn1D 1_555 1_555
C1D O4D 1_555 1_555
C2D C5D 1_555 1_555
C3D H1D 1_555 1_555
C4D C1D 1_555 1_555
C5D C3D 1_555 1_555
C6D C4D 1_555 1_555
H2D C6D 1_555 1_555
C7D C5D 1_555 1_555
H3D C7D 1_555 1_555
C8D C6D 1_555 1_555
C9D C8D 1_555 1_555
O7D C9D 1_555 1_555
Zn2F O8B 1_555 1_555
O1F C2F 1_555 1_555
O2F C2F 1_555 1_555
O3F C9F 1_555 1_555
O4F Zn2F 1_555 1_555
O5F Zn2B 1_555 1_555
C1F O4F 1_555 1_555
C2F C5F 1_555 1_555
C3F H1F 1_555 1_555
C4F C1F 1_555 1_555
C5F C3F 1_555 1_555
C6F C4F 1_555 1_555
H2F C6F 1_555 1_555
C7F C5F 1_555 1_555
H3F C7F 1_555 1_555
C8F C6F 1_555 1_555
C9F C8F 1_555 1_555
O7F C9F 1_555 1_555
Zn1D_2 O2F 1_555 1_555
Zn1F O2D 1_555 1_555
Zn1F_2 O1F 1_555 1_555
Zn2H O5 1_555 1_555
Zn2I O5B 1_555 1_555
Zn2J O5C 1_555 1_555
Zn2K O5A 1_555 1_555
Zn2P O3C 1_555 1_555
Zn2Q O3B 1_555 1_555
Zn2R O3A 1_555 1_555
Zn2S O3 1_555 1_555
Zn2V O3F 1_555 1_555
Zn2W O3D 1_555 1_555
O1E Zn1D 1_555 1_555
O2F_2 Zn1D 1_555 1_555
O2G Zn1D 1_555 1_555
O3M Zn2F 1_555 1_555
O3O Zn2D 1_555 1_555
O3T Zn2B 1_555 1_555
O3U Zn2 1_555 1_555
O3V Zn2A 1_555 1_555
O3W Zn2C 1_555 1_555
O5E Zn2A 1_555 1_555
O5G Zn2C 1_555 1_555
O5H Zn2D 1_555 1_555
O5I Zn2F 1_555 1_555
O8A Zn2A 1_555 1_555
O8C Zn2C 1_555 1_555
C7 C8 1_555 1_555
O8 Zn2H 1_555 1_555
O2A C2A 1_555 1_555
C3A C5A 1_555 1_555
C7A C8A 1_555 1_555
O2B C2B 1_555 1_555
C3B C5B 1_555 1_555
C7B C8B 1_555 1_555
O8B Zn2I 1_555 1_555
O2C C2C 1_555 1_555
C3C C5C 1_555 1_555
C7C C8C 1_555 1_555
O5D C1D 1_555 1_555
C3D C4D 1_555 1_555
C7D C8D 1_555 1_555
O5F C1F 1_555 1_555
C3F C4F 1_555 1_555
C7F C8F 1_555 1_555
Zn2J O8C 1_555 1_555
Zn2K O8A 1_555 1_555

#END
