
#######################################################################
#
#                 Cambridge Crystallographic Data Centre
#                                CCDC 
#
#######################################################################
#
# If this CIF has been generated from an entry in the Cambridge 
# Structural Database, then it will include bibliographic, chemical, 
# crystal, experimental, refinement or atomic coordinate data resulting 
# from the CCDC's data processing and validation procedures.
#
#######################################################################

data_CARGEI
_chemical_formula_moiety         '(C18 Ag12 Cs2 N18 4-)n'
_symmetry_cell_setting           orthorhombic
_symmetry_space_group_name_H-M   'F d d d'
_symmetry_Int_Tables_number      70
_space_group_name_Hall           '-F 2uv 2vw'
loop_
_symmetry_equiv_pos_site_id
_symmetry_equiv_pos_as_xyz
1 x,y,z
2 x,1/2+y,1/2+z
3 x,1/4-y,1/4-z
4 1/2+x,y,1/2+z
5 1/4-x,y,1/4-z
6 1/2+x,1/2+y,z
7 1/4-x,1/4-y,z
8 3/4-x,3/4-y,z
9 3/4-x,y,3/4-z
10 x,3/4-y,3/4-z
11 3/4-x,1/4-y,1/2+z
12 3/4-x,1/2+y,1/4-z
13 1/4-x,3/4-y,1/2+z
14 1/2+x,3/4-y,1/4-z
15 1/4-x,1/2+y,3/4-z
16 1/2+x,1/4-y,3/4-z
17 -x,-y,-z
18 -x,1/2-y,1/2-z
19 -x,3/4+y,3/4+z
20 1/2-x,-y,1/2-z
21 3/4+x,-y,3/4+z
22 1/2-x,1/2-y,-z
23 3/4+x,3/4+y,-z
24 1/4+x,1/4+y,-z
25 1/4+x,-y,1/4+z
26 -x,1/4+y,1/4+z
27 1/4+x,3/4+y,1/2-z
28 1/4+x,1/2-y,3/4+z
29 3/4+x,1/4+y,1/2-z
30 1/2-x,1/4+y,3/4+z
31 3/4+x,1/2-y,1/4+z
32 1/2-x,3/4+y,1/4+z
_cell_length_a                   9.581(5)
_cell_length_b                   15.608(5)
_cell_length_c                   66.05(2)
_cell_angle_alpha                90
_cell_angle_beta                 90
_cell_angle_gamma                90
_cell_volume                     9877.13
loop_
_atom_site_label
_atom_site_type_symbol
_atom_site_fract_x
_atom_site_fract_y
_atom_site_fract_z
_atom_site_U_iso_or_equiv
_atom_site_thermal_displace_type
Cs1 Cs 0.6250 0.6250 0.72066(2) 0.0358 Uani
Cs2 Cs 0.28445(13) 0.71992(7) 0.67951(2) 0.0449 Uani
Ag2 Ag 0.3750 0.8750 0.72069(4) 0.0659 Uani
Ag3 Ag -0.3750 1.1250 0.6250 0.0727 Uani
Ag4 Ag 0.27586(15) 0.59544(9) 0.76147(2) 0.0438 Uani
Ag5 Ag -0.05388(15) 0.96410(9) 0.67553(2) 0.0425 Uani
C2 C 0.1174(18) 0.9200(11) 0.6923(3) 0.0370 Uani
C3 C 0.3182(17) 0.7063(11) 0.7444(3) 0.0327 Uani
C4 C 0.2227(15) 0.4974(10) 0.7822(3) 0.0323 Uani
C5 C -0.1943(18) 1.0118(10) 0.6544(3) 0.0350 Uani
N2 N 0.2154(15) 0.9055(9) 0.7015(2) 0.0343 Uani
N3 N 0.3340(15) 0.7691(9) 0.7352(2) 0.0350 Uani
N4 N 0.2008(19) 0.4515(11) 0.7940(3) 0.0500 Uani
N5 N -0.2627(17) 1.0510(10) 0.6433(2) 0.0427 Uani
Ag2B Ag 0.3750 1.3750 0.52931(4) 0.0659 Uani
Ag2D Ag -1.1250 0.8750 0.52931(4) 0.0659 Uani
Ag2E Ag -1.1250 1.3750 0.72069(4) 0.0659 Uani
Ag4G Ag 0.47414(15) 1.15456(9) 0.76147(2) 0.0438 Uani
Ag4B Ag 0.27586(15) 1.65456(9) 0.48853(2) 0.0438 Uani
Ag4K Ag 0.47414(15) 1.09544(9) 0.48853(2) 0.0438 Uani
Ag5B Ag -0.05388(15) 1.28590(9) 0.57447(2) 0.0425 Uani
Ag5D Ag -0.69612(15) 0.96410(9) 0.57447(2) 0.0425 Uani
Ag5F Ag -0.69612(15) 1.28590(9) 0.67553(2) 0.0425 Uani
C2B C 0.1174(18) 1.3300(11) 0.5577(3) 0.0370 Uani
C2D C -0.8674(18) 0.9200(11) 0.5577(3) 0.0370 Uani
C2F C -0.8674(18) 1.3300(11) 0.6923(3) 0.0370 Uani
C3G C 0.4318(17) 1.0437(11) 0.7444(3) 0.0327 Uani
C3B C 0.3182(17) 1.5437(11) 0.5056(3) 0.0327 Uani
C3K C 0.4318(17) 1.2063(11) 0.5056(3) 0.0327 Uani
C4G C 0.5273(15) 1.2526(10) 0.7822(3) 0.0323 Uani
C4B C 0.2227(15) 1.7526(10) 0.4678(3) 0.0323 Uani
C4K C 0.5273(15) 0.9974(10) 0.4678(3) 0.0323 Uani
C5B C -0.1943(18) 1.2382(10) 0.5956(3) 0.0350 Uani
C5D C -0.5557(18) 1.0118(10) 0.5956(3) 0.0350 Uani
C5F C -0.5557(18) 1.2382(10) 0.6544(3) 0.0350 Uani
N2B N 0.2154(15) 1.3445(9) 0.5485(2) 0.0343 Uani
N2D N -0.9654(15) 0.9055(9) 0.5485(2) 0.0343 Uani
N2F N -0.9654(15) 1.3445(9) 0.7015(2) 0.0343 Uani
N2G N 0.5346(15) 0.8445(9) 0.7015(2) 0.0343 Uani
N2K N 0.5346(15) 1.4055(9) 0.5485(2) 0.0343 Uani
N3G N 0.4160(15) 0.9809(9) 0.7352(2) 0.0350 Uani
N3B N 0.3340(15) 1.4809(9) 0.5148(2) 0.0350 Uani
N3K N 0.4160(15) 1.2691(9) 0.5148(2) 0.0350 Uani
N4G N 0.5492(19) 1.2985(11) 0.7940(3) 0.0500 Uani
N4B N 0.2008(19) 1.7985(11) 0.4560(3) 0.0500 Uani
N4K N 0.5492(19) 0.9515(11) 0.4560(3) 0.0500 Uani
N5B N -0.2627(17) 1.1990(10) 0.6067(2) 0.0427 Uani
N5D N -0.4873(17) 1.0510(10) 0.6067(2) 0.0427 Uani
N5F N -0.4873(17) 1.1990(10) 0.6433(2) 0.0427 Uani
Ag1 Ag 0.6250 0.6250 0.6250 0.0644 Uani
C1 C 0.6250 0.6250 0.6588(9) 0.0757 Uani
N1 N 0.6250 0.6250 0.6731(4) 0.0640 Uani
C1B C 0.6250 0.6250 0.5912(9) 0.0757 Uani
N1B N 0.6250 0.6250 0.5769(4) 0.0640 Uani
loop_
_atom_site_aniso_label
_atom_site_aniso_U_11
_atom_site_aniso_U_22
_atom_site_aniso_U_33
_atom_site_aniso_U_23
_atom_site_aniso_U_13
_atom_site_aniso_U_12
Cs1 0.0409(8) 0.0423(8) 0.0242(7) 0.000 0.000 0.0002(6)
Cs2 0.0472(7) 0.0324(6) 0.0550(7) -0.0039(5) -0.0115(5) -0.0028(5)
Ag2 0.0694(17) 0.0692(16) 0.0592(15) 0.000 0.000 0.0058(13)
Ag3 0.080(3) 0.077(3) 0.061(2) 0.000 0.000 0.000
Ag4 0.0431(8) 0.0427(8) 0.0455(8) 0.0113(6) 0.0041(6) -0.0027(6)
Ag5 0.0386(7) 0.0414(7) 0.0475(8) 0.0051(6) -0.0157(6) 0.0036(6)
C2 0.030(9) 0.031(8) 0.050(10) -0.003(7) 0.003(8) -0.005(7)
C3 0.029(8) 0.035(9) 0.034(8) -0.004(7) -0.003(7) -0.003(7)
C4 0.020(7) 0.028(8) 0.049(10) -0.018(8) -0.002(7) -0.008(6)
C5 0.039(9) 0.035(8) 0.031(8) -0.005(7) -0.018(7) 0.007(7)
N2 0.031(7) 0.035(7) 0.037(8) 0.008(6) -0.004(6) 0.007(6)
N3 0.039(8) 0.039(7) 0.027(7) -0.001(6) -0.002(6) -0.003(6)
N4 0.058(11) 0.039(9) 0.053(10) -0.004(8) 0.007(8) -0.008(8)
N5 0.050(9) 0.040(8) 0.038(8) -0.006(7) -0.007(7) -0.005(7)
Ag2B 0.0694 0.0692 0.0592 0 0 -0.0058
Ag2D 0.0694 0.0692 0.0592 0 0 -0.0058
Ag2E 0.0694 0.0692 0.0592 0 0 0.0058
Ag4G 0.0431 0.0427 0.0455 -0.0113 -0.0041 -0.0027
Ag4B 0.0431 0.0427 0.0455 0.0113 -0.0041 0.0027
Ag4K 0.0431 0.0427 0.0455 -0.0113 0.0041 0.0027
Ag5B 0.0386 0.0414 0.0475 0.0051 0.0157 -0.0036
Ag5D 0.0386 0.0414 0.0475 -0.0051 -0.0157 -0.0036
Ag5F 0.0386 0.0414 0.0475 -0.0051 0.0157 0.0036
C2B 0.03 0.031 0.05 -0.003 -0.003 0.005
C2D 0.03 0.031 0.05 0.003 0.003 0.005
C2F 0.03 0.031 0.05 0.003 -0.003 -0.005
C3G 0.029 0.035 0.034 0.004 0.003 -0.003
C3B 0.029 0.035 0.034 -0.004 0.003 0.003
C3K 0.029 0.035 0.034 0.004 -0.003 0.003
C4G 0.02 0.028 0.049 0.018 0.002 -0.008
C4B 0.02 0.028 0.049 -0.018 0.002 0.008
C4K 0.02 0.028 0.049 0.018 -0.002 0.008
C5B 0.039 0.035 0.031 -0.005 0.018 -0.007
C5D 0.039 0.035 0.031 0.005 -0.018 -0.007
C5F 0.039 0.035 0.031 0.005 0.018 0.007
N2B 0.031 0.035 0.037 0.008 0.004 -0.007
N2D 0.031 0.035 0.037 -0.008 -0.004 -0.007
N2F 0.031 0.035 0.037 -0.008 0.004 0.007
N2G 0.031 0.035 0.037 -0.008 0.004 0.007
N2K 0.031 0.035 0.037 -0.008 -0.004 -0.007
N3G 0.039 0.039 0.027 0.001 0.002 -0.003
N3B 0.039 0.039 0.027 -0.001 0.002 0.003
N3K 0.039 0.039 0.027 0.001 -0.002 0.003
N4G 0.058 0.039 0.053 0.004 -0.007 -0.008
N4B 0.058 0.039 0.053 -0.004 -0.007 0.008
N4K 0.058 0.039 0.053 0.004 0.007 0.008
N5B 0.05 0.04 0.038 -0.006 0.007 0.005
N5D 0.05 0.04 0.038 0.006 -0.007 0.005
N5F 0.05 0.04 0.038 0.006 0.007 -0.005
Ag1 0.105(3) 0.0555(19) 0.0326(15) 0.000 0.000 0.000
C1 0.044(17) 0.013(11) 0.17(5) 0.000 0.000 0.002(11)
N1 0.08(2) 0.08(2) 0.032(13) 0.000 0.000 -0.012(16)
C1B 0.044 0.013 0.17 0 0 -0.002
N1B 0.08 0.08 0.032 0 0 0.012
loop_
_geom_bond_atom_site_label_1
_geom_bond_atom_site_label_2
_geom_bond_site_symmetry_1
_geom_bond_site_symmetry_2
Ag1 C1 1_555 1_555
C1 N1 1_555 1_555
Ag2 N2 1_555 1_555
Ag3 N5 1_555 1_555
Ag4 C3 1_555 1_555
Ag5 C2 1_555 1_555
C2 N2 1_555 1_555
C3 N3 1_555 1_555
C4 Ag4 1_555 1_555
C5 Ag5 1_555 1_555
N3 Ag2 1_555 1_555
N4 C4 1_555 1_555
N5 C5 1_555 1_555
C1B Ag1 1_555 1_555
N1B C1B 1_555 1_555
Ag2B N2B 1_555 1_555
Ag2D N2D 1_555 1_555
Ag2E N2F 1_555 1_555
Ag4G C3G 1_555 1_555
Ag4B C3B 1_555 1_555
Ag4K C3K 1_555 1_555
Ag5B C2B 1_555 1_555
Ag5D C2D 1_555 1_555
Ag5F C2F 1_555 1_555
C2B N2B 1_555 1_555
C2D N2D 1_555 1_555
C2F N2F 1_555 1_555
C3G N3G 1_555 1_555
C3B N3B 1_555 1_555
C3K N3K 1_555 1_555
C4G Ag4G 1_555 1_555
C4B Ag4B 1_555 1_555
C4K Ag4K 1_555 1_555
C5B Ag5B 1_555 1_555
C5D Ag5D 1_555 1_555
C5F Ag5F 1_555 1_555
N2G Ag2 1_555 1_555
N2K Ag2B 1_555 1_555
N3G Ag2 1_555 1_555
N3B Ag2B 1_555 1_555
N3K Ag2B 1_555 1_555
N4G C4G 1_555 1_555
N4B C4B 1_555 1_555
N4K C4K 1_555 1_555
N5B Ag3 1_555 1_555
N5D Ag3 1_555 1_555
N5F Ag3 1_555 1_555
C5B N5B 1_555 1_555
C5D N5D 1_555 1_555
C5F N5F 1_555 1_555

#END
