
#######################################################################
#
#                 Cambridge Crystallographic Data Centre
#                                CCDC 
#
#######################################################################
#
# If this CIF has been generated from an entry in the Cambridge 
# Structural Database, then it will include bibliographic, chemical, 
# crystal, experimental, refinement or atomic coordinate data resulting 
# from the CCDC's data processing and validation procedures.
#
#######################################################################

data_KAVTUY
_chemical_formula_moiety         '(C9 H19 Cu3 O14 P3)n'
_symmetry_cell_setting           monoclinic
_symmetry_space_group_name_H-M   'P 21/n'
_symmetry_Int_Tables_number      14
_space_group_name_Hall           '-P 2yn'
loop_
_symmetry_equiv_pos_site_id
_symmetry_equiv_pos_as_xyz
1 x,y,z
2 1/2-x,1/2+y,1/2-z
3 -x,-y,-z
4 1/2+x,1/2-y,1/2+z
_cell_length_a                   4.8218(2)
_cell_length_b                   19.8911(10)
_cell_length_c                   18.2950(8)
_cell_angle_alpha                90
_cell_angle_beta                 95.077(2)
_cell_angle_gamma                90
_cell_volume                     1747.81
loop_
_atom_site_label
_atom_site_type_symbol
_atom_site_fract_x
_atom_site_fract_y
_atom_site_fract_z
Cu1 Cu 0.02202(12) 0.70356(3) 0.20240(4)
Cu2 Cu -0.42034(12) 0.84259(3) 0.25126(3)
Cu3 Cu 0.1073(6) 0.9700(2) 0.2965(9)
P1 P 0.0771(3) 0.82540(7) 0.34847(8)
P2 P -0.0724(3) 0.55722(8) 0.26840(8)
P3 P 0.5761(3) 0.64722(7) 0.65321(7)
O1 O -0.1099(7) 0.78672(19) 0.29080(19)
O2 O 0.3839(7) 0.81674(19) 0.3367(2)
O3 O -0.0127(8) 0.8987(2) 0.3476(2)
O4 O -0.1644(7) 0.62747(19) 0.2430(2)
O5 O 0.2338(7) 0.54588(19) 0.2567(2)
O6 O -0.2468(7) 0.5029(2) 0.2276(2)
O7 O 0.6875(7) 0.71906(18) 0.65634(19)
O8 O 0.7607(7) 0.60497(18) 0.71067(18)
O9 O 0.2691(7) 0.64022(19) 0.66515(19)
O10 O 0.3556(7) 0.69004(18) 0.27114(19)
H1 H 0.3805 0.719 0.3052
H2 H 0.5106 0.6707 0.2671
O11 O -0.3045(7) 0.71097(19) 0.13042(19)
H3 H -0.3653 0.7419 0.1013
H4 H -0.4035 0.6762 0.1209
O12 O 0.2882(8) 0.6210(2) 0.1246(3)
H5 H 0.3116 0.5915 0.1582
H6 H 0.183 0.6041 0.0896
C1 C 0.1034(10) 0.7188(3) 0.4462(3)
C2 C -0.0432(10) 0.6698(3) 0.4067(3)
H7 H -0.1963 0.6821 0.375
C3 C 0.0299(10) 0.6026(3) 0.4125(3)
C4 C 0.2493(10) 0.5855(3) 0.4640(3)
H8 H 0.2966 0.5404 0.4703
C5 C 0.3983(10) 0.6329(3) 0.5058(3)
C6 C 0.3327(10) 0.6999(3) 0.4944(3)
H9 H 0.4415 0.7329 0.519
C7 C 0.0251(11) 0.7921(3) 0.4370(3)
H10 H 0.1347 0.8181 0.474
H11 H -0.1693 0.7974 0.4457
C8 C -0.1238(11) 0.5505(3) 0.3644(3)
H12 H -0.3213 0.5544 0.37
H13 H -0.0645 0.5062 0.3814
C9 C 0.6245(10) 0.6130(3) 0.5648(3)
H14 H 0.803 0.6279 0.5501
H15 H 0.6301 0.5643 0.5684
O14 O 0.4396(13) 0.9641(4) 0.3714(4)
Cu1C Cu 0.52202(12) 0.79644(3) 0.70240(4)
Cu2_2 Cu 0.57966(12) 0.84259(3) 0.25126(3)
Cu2C Cu 1.07966(12) 0.65741(3) 0.75126(3)
Cu2C_2 Cu 0.07966(12) 0.65741(3) 0.75126(3)
Cu3A Cu 0.3927(6) 0.4700(2) 0.2035(9)
Cu3A_2 Cu -0.6073(6) 0.4700(2) 0.2035(9)
Cu3C Cu 0.6073(6) 0.5300(2) 0.7965(9)
O2_2 O -0.6161(7) 0.81674(19) 0.3367(2)
O5A O 0.2662(7) 1.04588(19) 0.2433(2)
O6A O -0.2532(7) 1.0029(2) 0.2724(2)
O7C O 0.1875(7) 0.78094(18) 0.15634(19)
O8C O -0.7393(7) 0.89503(18) 0.21067(18)
O8C_2 O 0.2607(7) 0.89503(18) 0.21067(18)
O9C O -0.2309(7) 0.85978(19) 0.16515(19)
O13 O 0.779(3) 0.9516(6) 0.4831(5)
loop_
_geom_bond_atom_site_label_1
_geom_bond_atom_site_label_2
_geom_bond_site_symmetry_1
_geom_bond_site_symmetry_2
Cu1 O1 1_555 1_555
Cu2 O1 1_555 1_555
Cu3 O3 1_555 1_555
P1 O1 1_555 1_555
P2 O4 1_555 1_555
P3 O7 1_555 1_555
O2 P1 1_555 1_555
O3 P1 1_555 1_555
O4 Cu1 1_555 1_555
O5 P2 1_555 1_555
O6 P2 1_555 1_555
O7 Cu1C 1_555 1_555
O8 P3 1_555 1_555
O9 P3 1_555 1_555
O10 Cu1 1_555 1_555
H1 O10 1_555 1_555
H2 O10 1_555 1_555
O11 Cu1 1_555 1_555
H3 O11 1_555 1_555
H4 O11 1_555 1_555
O12 Cu1 1_555 1_555
H5 O12 1_555 1_555
H6 O12 1_555 1_555
C1 C2 1_555 1_555
C2 H7 1_555 1_555
C3 C2 1_555 1_555
C4 C3 1_555 1_555
H8 C4 1_555 1_555
C5 C4 1_555 1_555
C6 C1 1_555 1_555
H9 C6 1_555 1_555
C7 P1 1_555 1_555
H10 C7 1_555 1_555
H11 C7 1_555 1_555
C8 P2 1_555 1_555
H12 C8 1_555 1_555
H13 C8 1_555 1_555
C9 P3 1_555 1_555
H14 C9 1_555 1_555
H15 C9 1_555 1_555
O14 Cu3 1_555 1_555
Cu2_2 O2 1_555 1_555
Cu2C O8 1_555 1_555
Cu2C_2 O9 1_555 1_555
Cu3A O5 1_555 1_555
Cu3A_2 O6 1_555 1_555
Cu3C O8 1_555 1_555
O2_2 Cu2 1_555 1_555
O5A Cu3 1_555 1_555
O6A Cu3 1_555 1_555
O7C Cu1 1_555 1_555
O8C Cu2 1_555 1_555
O8C_2 Cu3 1_555 1_555
O9C Cu2 1_555 1_555
C1 C7 1_555 1_555
C3 C8 1_555 1_555
C5 C6 1_555 1_555
C5 C9 1_555 1_555
Cu2_2 O8C_2 1_555 1_555

#END
