
#######################################################################
#
#                 Cambridge Crystallographic Data Centre
#                                CCDC 
#
#######################################################################
#
# If this CIF has been generated from an entry in the Cambridge 
# Structural Database, then it will include bibliographic, chemical, 
# crystal, experimental, refinement or atomic coordinate data resulting 
# from the CCDC's data processing and validation procedures.
#
#######################################################################

data_IZIBUQ
_chemical_formula_moiety         '(C34 H30 O18 Zr3)n'
_symmetry_cell_setting           orthorhombic
_symmetry_space_group_name_H-M   'C m m m'
_symmetry_Int_Tables_number      65
_space_group_name_Hall           '-C 2 2'
loop_
_symmetry_equiv_pos_site_id
_symmetry_equiv_pos_as_xyz
1 x,y,z
2 -x,-y,z
3 -x,y,-z
4 1/2-x,1/2-y,z
5 1/2-x,1/2+y,-z
6 x,-y,-z
7 1/2+x,1/2-y,-z
8 1/2+x,1/2+y,z
9 -x,-y,-z
10 x,y,-z
11 x,-y,z
12 1/2+x,1/2+y,-z
13 1/2+x,1/2-y,z
14 -x,y,z
15 1/2-x,1/2+y,z
16 1/2-x,1/2-y,-z
_cell_length_a                   20.1413(24)
_cell_length_b                   34.892(10)
_cell_length_c                   11.19392(74)
_cell_angle_alpha                90
_cell_angle_beta                 90
_cell_angle_gamma                90
_cell_volume                     7866.75
loop_
_atom_site_label
_atom_site_type_symbol
_atom_site_fract_x
_atom_site_fract_y
_atom_site_fract_z
_atom_site_U_iso_or_equiv
_atom_site_thermal_displace_type
Zr1 Zr -0.5 -0.43432(49) 0.000 0.1013 Uiso
O1 O -0.06547(92) -0.10598(71) 0.1020(16) 0.1013 Uiso
O2 O -0.1021(10) -0.05759(55) 0.2195(21) 0.1013 Uiso
C1 C -0.215185 -0.219867 0.437387 0.1013 Uiso
C2 C -0.189922 -0.187002 0.369104 0.1013 Uiso
C3 C -0.132792 -0.192170 0.300765 0.1013 Uiso
C4 C -0.104762 -0.161307 0.241278 0.1013 Uiso
C5 C -0.219785 -0.150654 0.374772 0.1013 Uiso
C6 C -0.099350 -0.093146 0.187002 0.1013 Uiso
C7 C -0.132925 -0.124637 0.249308 0.1013 Uiso
C8 C -0.191085 -0.119369 0.315723 0.1013 Uiso
C9 C -0.25 -0.25 0.3769(39) 0.1013 Uiso
Zr2 Zr -0.58113(67) -0.5 -0.1535(11) 0.1013 Uiso
O3 O -0.68505(97) -0.5 -0.1287(48) 0.1013 Uiso
O4 O -0.6032(20) -0.46286(93) 0.000 0.1013 Uiso
O5 O -0.5 -0.46034(87) -0.1793(22) 0.1013 Uiso
O6 O -0.5593(13) -0.5 -0.3460(21) 0.1013 Uiso
O1C O -0.43453(92) -0.39402(71) 0.1020(16) 0.1013 Uiso
O2C O -0.3979(10) -0.44241(55) 0.2195(21) 0.1013 Uiso
C1C C -0.284815 -0.280133 0.437387 0.1013 Uiso
C2C C -0.310078 -0.312998 0.369104 0.1013 Uiso
C3C C -0.367208 -0.307830 0.300765 0.1013 Uiso
C4C C -0.395238 -0.338693 0.241278 0.1013 Uiso
C5C C -0.280215 -0.349346 0.374772 0.1013 Uiso
C6C C -0.400650 -0.406854 0.187002 0.1013 Uiso
C7C C -0.367075 -0.375363 0.249308 0.1013 Uiso
C8C C -0.308915 -0.380631 0.315723 0.1013 Uiso
O1I O -0.06547(92) -0.10598(71) 0.8980(16) 0.1013 Uiso
O2I O -0.1021(10) -0.05759(55) 0.7805(21) 0.1013 Uiso
C1I C -0.215185 -0.219867 0.562613 0.1013 Uiso
C2I C -0.189922 -0.187002 0.630896 0.1013 Uiso
C3I C -0.132792 -0.192170 0.699235 0.1013 Uiso
C4I C -0.104762 -0.161307 0.758722 0.1013 Uiso
C5I C -0.219785 -0.150654 0.625228 0.1013 Uiso
C6I C -0.099350 -0.093146 0.812998 0.1013 Uiso
C7I C -0.132925 -0.124637 0.750692 0.1013 Uiso
C8I C -0.191085 -0.119369 0.684277 0.1013 Uiso
C9O C -0.25 -0.25 0.6231(39) 0.1013 Uiso
O1O O -0.43453(92) -0.39402(71) 0.8980(16) 0.1013 Uiso
O2O O -0.3979(10) -0.44241(55) 0.7805(21) 0.1013 Uiso
C1O C -0.284815 -0.280133 0.562613 0.1013 Uiso
C2O C -0.310078 -0.312998 0.630896 0.1013 Uiso
C3O C -0.367208 -0.307830 0.699235 0.1013 Uiso
C4O C -0.395238 -0.338693 0.758722 0.1013 Uiso
C5O C -0.280215 -0.349346 0.625228 0.1013 Uiso
C6O C -0.400650 -0.406854 0.812998 0.1013 Uiso
C7O C -0.367075 -0.375363 0.750692 0.1013 Uiso
C8O C -0.308915 -0.380631 0.684277 0.1013 Uiso
Zr2H Zr -0.41887(67) -0.5 0.1535(11) 0.1013 Uiso
O3H O -0.31495(97) -0.5 0.1287(48) 0.1013 Uiso
O4H O -0.3968(20) -0.53714(93) 0.000 0.1013 Uiso
O5H O -0.5 -0.53966(87) 0.1793(22) 0.1013 Uiso
O6H O -0.4407(13) -0.5 0.3460(21) 0.1013 Uiso
Zr1H Zr -0.5 -0.56568(49) 0.000 0.1013 Uiso
Zr1B Zr -0.5 -0.43432(49) 1.000 0.1013 Uiso
Zr1O Zr -0.0 -0.06568(49) 0.000 0.1013 Uiso
Zr1O_2 Zr 0.0 -0.06568(49) 1.000 0.1013 Uiso
O1O_2 O -0.43453(92) -0.39402(71) -0.1020(16) 0.1013 Uiso
O1F O -0.56547(92) -0.39402(71) -0.1020(16) 0.1013 Uiso
O1L O -0.56547(92) -0.39402(71) 0.1020(16) 0.1013 Uiso
O2N O -0.3979(10) -0.55759(55) 0.2195(21) 0.1013 Uiso
O2F O -0.6021(10) -0.44241(55) -0.2195(21) 0.1013 Uiso
O2K O -0.6021(10) -0.55759(55) -0.2195(21) 0.1013 Uiso
Zr2A Zr -0.41887(67) -0.5 -0.1535(11) 0.1013 Uiso
Zr2A_2 Zr -0.41887(67) -0.5 0.8465(11) 0.1013 Uiso
Zr2E Zr -0.58113(67) -0.5 0.1535(11) 0.1013 Uiso
Zr2F Zr -0.08113(67) 0.0 0.1535(11) 0.1013 Uiso
Zr2L Zr -0.08113(67) 0.0 0.8465(11) 0.1013 Uiso
O4B O -0.3968(20) -0.46286(93) 0.000 0.1013 Uiso
O4E O -0.6032(20) -0.53714(93) 0.000 0.1013 Uiso
O5A O -0.5 -0.53966(87) -0.1793(22) 0.1013 Uiso
O5B O -0.5 -0.46034(87) 0.1793(22) 0.1013 Uiso
O7 O -0.9602(29) 0.1552(15) 1.4175(55) 0.1013 Uiso
O8 O 0.500 0.500 0.500 0.1013 Uiso
loop_
_geom_bond_atom_site_label_1
_geom_bond_atom_site_label_2
_geom_bond_site_symmetry_1
_geom_bond_site_symmetry_2
Zr1 O4 1_555 1_555
O1 C6 1_555 1_555
O2 C6 1_555 1_555
C1 C2 1_555 1_555
C2 C3 1_555 1_555
C3 C4 1_555 1_555
C4 C7 1_555 1_555
C5 C2 1_555 1_555
C6 C7 1_555 1_555
C7 C8 1_555 1_555
C8 C5 1_555 1_555
C9 C1 1_555 1_555
Zr2 O3 1_555 1_555
O4 Zr2 1_555 1_555
O5 Zr1 1_555 1_555
O6 Zr2 1_555 1_555
O1C Zr1 1_555 1_555
O2C C6C 1_555 1_555
C1C C9 1_555 1_555
C2C C1C 1_555 1_555
C3C C2C 1_555 1_555
C4C C3C 1_555 1_555
C5C C2C 1_555 1_555
C6C O1C 1_555 1_555
C7C C4C 1_555 1_555
C8C C5C 1_555 1_555
O1I C6I 1_555 1_555
O2I C6I 1_555 1_555
C1I C1 1_555 1_555
C2I C1I 1_555 1_555
C3I C2I 1_555 1_555
C4I C3I 1_555 1_555
C5I C2I 1_555 1_555
C6I C7I 1_555 1_555
C7I C4I 1_555 1_555
C8I C5I 1_555 1_555
C9O C1I 1_555 1_555
O1O C6O 1_555 1_555
O2O C6O 1_555 1_555
C1O C1C 1_555 1_555
C2O C1O 1_555 1_555
C3O C2O 1_555 1_555
C4O C3O 1_555 1_555
C5O C2O 1_555 1_555
C6O C7O 1_555 1_555
C7O C4O 1_555 1_555
C8O C5O 1_555 1_555
Zr2H O2C 1_555 1_555
O3H Zr2H 1_555 1_555
O4H Zr2H 1_555 1_555
O5H Zr2H 1_555 1_555
O6H Zr2H 1_555 1_555
Zr1H O4H 1_555 1_555
Zr1B O1O 1_555 1_555
Zr1O O1 1_555 1_555
Zr1O_2 O1I 1_555 1_555
O1O_2 Zr1 1_555 1_555
O1F Zr1 1_555 1_555
O1L Zr1 1_555 1_555
O2N Zr2H 1_555 1_555
O2F Zr2 1_555 1_555
O2K Zr2 1_555 1_555
Zr2A O5 1_555 1_555
Zr2A_2 O2O 1_555 1_555
Zr2E O4 1_555 1_555
Zr2F O2 1_555 1_555
Zr2L O2I 1_555 1_555
O4B Zr1 1_555 1_555
O4E Zr2 1_555 1_555
O5A Zr2 1_555 1_555
O5B Zr1 1_555 1_555
Zr2 O5 1_555 1_555
C6C C7C 1_555 1_555
C7C C8C 1_555 1_555
C7I C8I 1_555 1_555
C9O C1O 1_555 1_555
C7O C8O 1_555 1_555
Zr2H O4B 1_555 1_555
Zr2H O5B 1_555 1_555
O4H Zr2A 1_555 1_555
O5H Zr1H 1_555 1_555
O5H Zr2E 1_555 1_555
Zr1H O4E 1_555 1_555
Zr1H O5A 1_555 1_555
Zr2A O4B 1_555 1_555
Zr2A O5A 1_555 1_555
Zr2E O4E 1_555 1_555
Zr2E O5B 1_555 1_555

#END
