
#######################################################################
#
#                 Cambridge Crystallographic Data Centre
#                                CCDC 
#
#######################################################################
#
# If this CIF has been generated from an entry in the Cambridge 
# Structural Database, then it will include bibliographic, chemical, 
# crystal, experimental, refinement or atomic coordinate data resulting 
# from the CCDC's data processing and validation procedures.
#
#######################################################################

data_GAXWEJ
_chemical_formula_moiety         'C30 H16 Ba4 N1 O21 Zn5'
_symmetry_cell_setting           monoclinic
_symmetry_space_group_name_H-M   'C 2/c'
_symmetry_Int_Tables_number      15
_space_group_name_Hall           '-C 2yc'
loop_
_symmetry_equiv_pos_site_id
_symmetry_equiv_pos_as_xyz
1 x,y,z
2 -x,y,1/2-z
3 1/2+x,1/2+y,z
4 1/2-x,1/2+y,1/2-z
5 -x,-y,-z
6 x,-y,1/2+z
7 1/2-x,1/2-y,-z
8 1/2+x,1/2-y,1/2+z
_cell_length_a                   15.1637(6)
_cell_length_b                   19.0644(6)
_cell_length_c                   12.6634(5)
_cell_angle_alpha                90
_cell_angle_beta                 112.767(5)
_cell_angle_gamma                90
_cell_volume                     3375.59
loop_
_atom_site_label
_atom_site_type_symbol
_atom_site_fract_x
_atom_site_fract_y
_atom_site_fract_z
Zn1 Zn -1.12041(3) 0.70641(2) -1.03827(4)
Ba1 Ba -1.0000 0.819717(15) -0.7500
C1 C -1.1472(3) 0.84788(19) -1.0666(3)
C2 C -1.1831(3) 0.91412(18) -1.1325(3)
C3 C -1.1345(3) 0.9763(2) -1.0882(3)
H1 H -1.0849 0.9764 -1.0163
C4 C -1.1594(3) 1.0377(2) -1.1505(4)
H2 H -1.1260 1.0788 -1.1207
C5 C -1.2339(3) 1.03864(19) -1.2572(3)
C6 C -1.2848(3) 0.9778(2) -1.2990(3)
H3 H -1.3367 0.9786 -1.3690
C7 C -1.2596(3) 0.91549(19) -1.2377(3)
H4 H -1.2939 0.8747 -1.2673
C8 C -1.2551(3) 1.10548(19) -1.3261(3)
C9 C -0.9262(3) 0.72657(19) -0.9671(4)
C10 C -0.8344(3) 0.7383(2) -0.9846(3)
C11 C -0.8289(3) 0.7261(2) -1.0901(4)
H5 H -0.8822 0.7095 -1.1509
C12 C -0.7548(3) 0.7617(2) -0.8950(3)
H6 H -0.7575 0.7694 -0.8238
C16 C -0.9660(7) 1.0134(5) -0.7230(12)
C17 C -1.0839(10) 1.0930(6) -0.8563(12)
C18 C -0.9361(13) 1.1361(8) -0.6809(15)
O1 O -1.0729(2) 0.84863(14) -0.9801(2)
O2 O -1.19543(18) 0.79139(12) -1.1065(2)
O3 O -1.1914(2) 1.14807(14) -1.3132(3)
O4 O -1.34092(19) 1.11333(14) -1.3947(3)
O5 O -0.99957(19) 0.71188(15) -1.0570(3)
O6 O -0.92669(19) 0.73266(15) -0.8703(2)
O7 O -1.12203(18) 0.70280(13) -0.8804(2)
H7 H -1.1765 0.6968 -0.8772
H8 H -1.0866 0.6727 -0.8336
O9 O -1.0000 0.9610(3) -0.7500
N2 N -1.0000 1.0786(3) -0.7500
Zn1A Zn -0.87959(3) 0.70641(2) -0.46173(4)
Zn1C Zn -1.37959(3) 1.20641(2) -1.46173(4)
Zn1F Zn -0.37959(3) 0.79359(2) -0.96173(4)
Zn1B Zn -0.62041(3) 1.20641(2) -0.03827(4)
Ba1D Ba -1.0000 1.180283(15) -1.2500
Ba1F Ba -0.5000 0.680283(15) -1.2500
Ba1D_2 Ba -1.0000 1.180283(15) -0.2500
C1A C -0.8528(3) 0.84788(19) -0.4334(3)
C2A C -0.8169(3) 0.91412(18) -0.3675(3)
C3A C -0.8655(3) 0.9763(2) -0.4118(3)
H1A H -0.9151 0.9764 -0.4837
C4A C -0.8406(3) 1.0377(2) -0.3495(4)
H2A H -0.8740 1.0788 -0.3793
C5A C -0.7661(3) 1.03864(19) -0.2428(3)
C6A C -0.7152(3) 0.9778(2) -0.2010(3)
H3A H -0.6633 0.9786 -0.1310
C7A C -0.7404(3) 0.91549(19) -0.2623(3)
H4A H -0.7061 0.8747 -0.2327
C8A C -0.7449(3) 1.10548(19) -0.1739(3)
C9F C -0.5738(3) 0.77343(19) -1.0329(4)
C10F C -0.6656(3) 0.7617(2) -1.0154(3)
C11F C -0.6711(3) 0.7739(2) -0.9099(4)
H5F H -0.6178 0.7905 -0.8491
C12F C -0.7452(3) 0.7383(2) -1.1050(3)
H6F H -0.7425 0.7306 -1.1762
C16A C -1.0340(7) 1.0134(5) -0.7770(12)
C17A C -0.9161(10) 1.0930(6) -0.6437(12)
C18A C -1.0639(13) 1.1361(8) -0.8191(15)
O1A O -0.9271(2) 0.84863(14) -0.5199(2)
O2A O -0.80457(18) 0.79139(12) -0.3935(2)
O3A O -0.8086(2) 1.14807(14) -0.1868(3)
O3D O -0.8086(2) 0.85193(14) -0.6868(3)
O3E O -1.1914(2) 0.85193(14) -0.8132(3)
O4A O -0.65908(19) 1.11333(14) -0.1053(3)
O4C O -1.15908(19) 0.61333(14) -1.1053(3)
O4B O -0.84092(19) 0.61333(14) -0.3947(3)
O5F O -0.50043(19) 0.78812(15) -0.9430(3)
O5A O -1.00043(19) 0.71188(15) -0.4430(3)
O6F O -0.57331(19) 0.76734(15) -1.1297(2)
O6A O -1.07331(19) 0.73266(15) -0.6297(2)
O7A O -0.87797(18) 0.70280(13) -0.6196(2)
H7A H -0.8235 0.6968 -0.6228
H8A H -0.9134 0.6727 -0.6664
loop_
_geom_bond_atom_site_label_1
_geom_bond_atom_site_label_2
_geom_bond_site_symmetry_1
_geom_bond_site_symmetry_2
Zn1 O2 1_555 1_555
Ba1 O1 1_555 1_555
C1 C2 1_555 1_555
C2 C3 1_555 1_555
C3 H1 1_555 1_555
C4 C3 1_555 1_555
H2 C4 1_555 1_555
C5 C4 1_555 1_555
C6 C5 1_555 1_555
H3 C6 1_555 1_555
C7 C2 1_555 1_555
H4 C7 1_555 1_555
C8 C5 1_555 1_555
C9 C10 1_555 1_555
C10 C11 1_555 1_555
C11 H5 1_555 1_555
C12 C10 1_555 1_555
H6 C12 1_555 1_555
C16 O9 1_555 1_555
C17 N2 1_555 1_555
C18 N2 1_555 1_555
O1 C1 1_555 1_555
O2 C1 1_555 1_555
O3 C8 1_555 1_555
O4 C8 1_555 1_555
O5 Zn1 1_555 1_555
O6 Ba1 1_555 1_555
O7 Zn1 1_555 1_555
H7 O7 1_555 1_555
H8 O7 1_555 1_555
O9 Ba1 1_555 1_555
N2 C16 1_555 1_555
Zn1A O2A 1_555 1_555
Zn1C O4 1_555 1_555
Zn1F O5F 1_555 1_555
Zn1B O4A 1_555 1_555
Ba1D O3 1_555 1_555
Ba1F O6F 1_555 1_555
Ba1D_2 O3A 1_555 1_555
C1A C2A 1_555 1_555
C2A C3A 1_555 1_555
C3A H1A 1_555 1_555
C4A C3A 1_555 1_555
H2A C4A 1_555 1_555
C5A C4A 1_555 1_555
C6A C5A 1_555 1_555
H3A C6A 1_555 1_555
C7A C2A 1_555 1_555
H4A C7A 1_555 1_555
C8A C5A 1_555 1_555
C9F C10F 1_555 1_555
C10F C11F 1_555 1_555
C11F C12 1_555 1_555
H5F C11F 1_555 1_555
C12F C11 1_555 1_555
H6F C12F 1_555 1_555
C16A C16 1_555 1_555
C17A C18 1_555 1_555
C18A C17 1_555 1_555
O1A Ba1 1_555 1_555
O2A C1A 1_555 1_555
O3A C8A 1_555 1_555
O3D Ba1 1_555 1_555
O3E Ba1 1_555 1_555
O4A C8A 1_555 1_555
O4C Zn1 1_555 1_555
O4B Zn1A 1_555 1_555
O5F C9F 1_555 1_555
O5A Zn1A 1_555 1_555
O6F C9F 1_555 1_555
O6A Ba1 1_555 1_555
O7A Ba1 1_555 1_555
H7A O7A 1_555 1_555
H8A O7A 1_555 1_555
Ba1 O7 1_555 1_555
C6 C7 1_555 1_555
C9 O5 1_555 1_555
C9 O6 1_555 1_555
O9 C16A 1_555 1_555
N2 C16A 1_555 1_555
N2 C17A 1_555 1_555
N2 C18A 1_555 1_555
Zn1A O7A 1_555 1_555
C1A O1A 1_555 1_555
C6A C7A 1_555 1_555
C10F C12F 1_555 1_555

#END
