
#######################################################################
#
#                 Cambridge Crystallographic Data Centre
#                                CCDC 
#
#######################################################################
#
# If this CIF has been generated from an entry in the Cambridge 
# Structural Database, then it will include bibliographic, chemical, 
# crystal, experimental, refinement or atomic coordinate data resulting 
# from the CCDC's data processing and validation procedures.
#
#######################################################################

data_EMIYUW
_chemical_formula_moiety         '(C40 H30 O16 Zr3)n'
_symmetry_cell_setting           orthorhombic
_symmetry_space_group_name_H-M   'F m m m'
_symmetry_Int_Tables_number      69
_space_group_name_Hall           '-F 2 2'
loop_
_symmetry_equiv_pos_site_id
_symmetry_equiv_pos_as_xyz
1 x,y,z
2 -x,-y,z
3 -x,y,-z
4 x,-y,-z
5 x,1/2+y,1/2+z
6 -x,1/2-y,1/2+z
7 -x,1/2+y,1/2-z
8 x,1/2-y,1/2-z
9 1/2+x,y,1/2+z
10 1/2-x,-y,1/2+z
11 1/2-x,y,1/2-z
12 1/2+x,-y,1/2-z
13 1/2+x,1/2+y,z
14 1/2-x,1/2-y,z
15 1/2-x,1/2+y,-z
16 1/2+x,1/2-y,-z
17 -x,-y,-z
18 x,y,-z
19 x,-y,z
20 -x,y,z
21 -x,1/2-y,1/2-z
22 x,1/2+y,1/2-z
23 x,1/2-y,1/2+z
24 -x,1/2+y,1/2+z
25 1/2-x,-y,1/2-z
26 1/2+x,y,1/2-z
27 1/2+x,-y,1/2+z
28 1/2-x,y,1/2+z
29 1/2-x,1/2-y,-z
30 1/2+x,1/2+y,-z
31 1/2+x,1/2-y,z
32 1/2-x,1/2+y,z
_cell_length_a                   16.2326(5)
_cell_length_b                   33.0024(4)
_cell_length_c                   35.7503(3)
_cell_angle_alpha                90
_cell_angle_beta                 90
_cell_angle_gamma                90
_cell_volume                     19152
loop_
_atom_site_label
_atom_site_type_symbol
_atom_site_fract_x
_atom_site_fract_y
_atom_site_fract_z
_atom_site_U_iso_or_equiv
_atom_site_thermal_displace_type
Zr1 Zr 0.5000 0.5000 0.43188(2) 0.0674 Uani
O1 O 0.4179(2) 0.46001(7) 0.40106(6) 0.0760 Uani
O2 O 0.6081(4) 0.5000 0.46727(11) 0.1031 Uani
O3 O 0.5000 0.55353(16) 0.46687(13) 0.1093 Uani
C1 C 0.3704(3) 0.43131(11) 0.41018(9) 0.0762 Uani
Zr2 Zr 0.60953(3) 0.55389(2) 0.5000 0.0701 Uani
H1 H 0.6580 0.5000 0.4509 0.1240 Uiso
O4 O 0.3477(2) 0.42257(7) 0.44291(6) 0.0818 Uani
C2 C 0.3412(3) 0.40596(10) 0.37800(8) 0.0794 Uani
O5 O 0.7417(4) 0.54785(16) 0.5000 0.1071 Uani
O6 O 0.5980(3) 0.61980(11) 0.5000 0.0936 Uani
C3 C 0.2909(3) 0.37300(11) 0.38276(8) 0.0824 Uani
C4 C 0.3703(4) 0.41577(13) 0.34228(10) 0.0983 Uani
H2 H 0.594(3) 0.6413(15) 0.5206(14) 0.1410 Uiso
H3 H 0.2722 0.3660 0.4071 0.0990 Uiso
C5 C 0.2671(3) 0.34964(10) 0.35212(8) 0.0828 Uani
C6 C 0.3459(4) 0.39266(13) 0.31219(9) 0.1027 Uani
H4 H 0.4064 0.4381 0.3388 0.1180 Uiso
H5 H 0.2315 0.3271 0.3555 0.0990 Uiso
C7 C 0.2955(3) 0.35957(10) 0.31647(8) 0.0802 Uani
H6 H 0.3644 0.3998 0.2879 0.1230 Uiso
C8 C 0.2698(3) 0.33590(10) 0.28273(8) 0.0774 Uani
C9 C 0.2691(3) 0.29397(9) 0.28258(8) 0.0682 Uani
C10 C 0.2500 0.35676(15) 0.2500 0.0840 Uani
H7 H 0.2818 0.2796 0.3049 0.0820 Uiso
C11 C 0.2500 0.27231(13) 0.2500 0.0629 Uani
H8 H 0.2500 0.3855 0.2500 0.1010 Uiso
H9 H 0.7543 0.5232 0.5000 0.1610 Uiso
O1G O 0.4179(2) 0.03999(7) 0.09894(6) 0.0760 Uani
C1G C 0.3704(3) 0.06869(11) 0.08982(9) 0.0762 Uani
O4G O 0.3477(2) 0.07743(7) 0.05709(6) 0.0818 Uani
C2G C 0.3412(3) 0.09404(10) 0.12200(8) 0.0794 Uani
C3G C 0.2909(3) 0.12700(11) 0.11724(8) 0.0824 Uani
C4G C 0.3703(4) 0.08423(13) 0.15772(10) 0.0983 Uani
H3G H 0.2722 0.1340 0.0929 0.0990 Uiso
C5G C 0.2671(3) 0.15036(10) 0.14788(8) 0.0828 Uani
C6G C 0.3459(4) 0.10734(13) 0.18781(9) 0.1027 Uani
H4G H 0.4064 0.0619 0.1612 0.1180 Uiso
H5G H 0.2315 0.1729 0.1445 0.0990 Uiso
C7G C 0.2955(3) 0.14043(10) 0.18353(8) 0.0802 Uani
H6G H 0.3644 0.1002 0.2121 0.1230 Uiso
C8G C 0.2698(3) 0.16410(10) 0.21727(8) 0.0774 Uani
C9G C 0.2691(3) 0.20603(9) 0.21742(8) 0.0682 Uani
C10G C 0.2500 0.14324(15) 0.2500 0.0840 Uani
H7G H 0.2818 0.2204 0.1951 0.0820 Uiso
C11G C 0.2500 0.22769(13) 0.2500 0.0629 Uani
H8G H 0.2500 0.1145 0.2500 0.1010 Uiso
O1J O 0.0821(2) 0.46001(7) 0.09894(6) 0.0760 Uani
C1J C 0.1296(3) 0.43131(11) 0.08982(9) 0.0762 Uani
O4J O 0.1523(2) 0.42257(7) 0.05709(6) 0.0818 Uani
C2J C 0.1588(3) 0.40596(10) 0.12200(8) 0.0794 Uani
C3J C 0.2091(3) 0.37300(11) 0.11724(8) 0.0824 Uani
C4J C 0.1297(4) 0.41577(13) 0.15772(10) 0.0983 Uani
H3J H 0.2278 0.3660 0.0929 0.0990 Uiso
C5J C 0.2329(3) 0.34964(10) 0.14788(8) 0.0828 Uani
C6J C 0.1541(4) 0.39266(13) 0.18781(9) 0.1027 Uani
H4J H 0.0936 0.4381 0.1612 0.1180 Uiso
H5J H 0.2685 0.3271 0.1445 0.0990 Uiso
C7J C 0.2045(3) 0.35957(10) 0.18353(8) 0.0802 Uani
H6J H 0.1356 0.3998 0.2121 0.1230 Uiso
C8J C 0.2302(3) 0.33590(10) 0.21727(8) 0.0774 Uani
C9J C 0.2309(3) 0.29397(9) 0.21742(8) 0.0682 Uani
H7J H 0.2182 0.2796 0.1951 0.0820 Uiso
O1M O 0.0821(2) 0.03999(7) 0.40106(6) 0.0760 Uani
C1M C 0.1296(3) 0.06869(11) 0.41018(9) 0.0762 Uani
O4M O 0.1523(2) 0.07743(7) 0.44291(6) 0.0818 Uani
C2M C 0.1588(3) 0.09404(10) 0.37800(8) 0.0794 Uani
C3M C 0.2091(3) 0.12700(11) 0.38276(8) 0.0824 Uani
C4M C 0.1297(4) 0.08423(13) 0.34228(10) 0.0983 Uani
H3M H 0.2278 0.1340 0.4071 0.0990 Uiso
C5M C 0.2329(3) 0.15036(10) 0.35212(8) 0.0828 Uani
C6M C 0.1541(4) 0.10734(13) 0.31219(9) 0.1027 Uani
H4M H 0.0936 0.0619 0.3388 0.1180 Uiso
H5M H 0.2685 0.1729 0.3555 0.0990 Uiso
C7M C 0.2045(3) 0.14043(10) 0.31647(8) 0.0802 Uani
H6M H 0.1356 0.1002 0.2879 0.1230 Uiso
C8M C 0.2302(3) 0.16410(10) 0.28273(8) 0.0774 Uani
C9M C 0.2309(3) 0.20603(9) 0.28258(8) 0.0682 Uani
H7M H 0.2182 0.2204 0.3049 0.0820 Uiso
H2Q H 0.594(3) 0.6413(15) 0.4794(14) 0.1410 Uiso
O2A O 0.3919(4) 0.5000 0.46727(11) 0.1031 Uani
O3A O 0.5000 0.44647(16) 0.46687(13) 0.1093 Uani
Zr2A Zr 0.39047(3) 0.44611(2) 0.5000 0.0701 Uani
H1A H 0.3420 0.5000 0.4509 0.1240 Uiso
O5A O 0.2583(4) 0.45215(16) 0.5000 0.1071 Uani
O6A O 0.4020(3) 0.38020(11) 0.5000 0.0936 Uani
H2A H 0.406(3) 0.3587(15) 0.5206(14) 0.1410 Uiso
H9A H 0.2457 0.4768 0.5000 0.1610 Uiso
H2P H 0.406(3) 0.3587(15) 0.4794(14) 0.1410 Uiso
Zr1F Zr 0.5000 0.0000 0.06812(2) 0.0674 Uani
Zr1J Zr 0.0000 0.5000 0.06812(2) 0.0674 Uani
Zr1L Zr 0.0000 0.0000 0.43188(2) 0.0674 Uani
O1A O 0.5821(2) 0.53999(7) 0.40106(6) 0.0760 Uani
O1R O 0.4179(2) 0.53999(7) 0.40106(6) 0.0760 Uani
O1S O 0.5821(2) 0.46001(7) 0.40106(6) 0.0760 Uani
O2B O 0.3919(4) 0.5000 0.53273(11) 0.1031 Uani
O2C O 0.6081(4) 0.5000 0.53273(11) 0.1031 Uani
O3B O 0.5000 0.55353(16) 0.53313(13) 0.1093 Uani
O3C O 0.5000 0.44647(16) 0.53313(13) 0.1093 Uani
Zr2B Zr 0.39047(3) 0.55389(2) 0.5000 0.0701 Uani
Zr2C Zr 0.60953(3) 0.44611(2) 0.5000 0.0701 Uani
Zr2F Zr 0.39047(3) 0.05389(2) 0.0000 0.0701 Uani
Zr2K Zr 0.10953(3) 0.44611(2) 0.0000 0.0701 Uani
Zr2L Zr 0.10953(3) 0.05389(2) 0.5000 0.0701 Uani
O4A O 0.6523(2) 0.57743(7) 0.44291(6) 0.0818 Uani
O4P O 0.6523(2) 0.57743(7) 0.55709(6) 0.0818 Uani
O4Q O 0.3477(2) 0.42257(7) 0.55709(6) 0.0818 Uani
loop_
_atom_site_aniso_label
_atom_site_aniso_U_11
_atom_site_aniso_U_22
_atom_site_aniso_U_33
_atom_site_aniso_U_23
_atom_site_aniso_U_13
_atom_site_aniso_U_12
Zr1 0.1567(6) 0.0283(3) 0.0171(3) 0.000 0.000 0.000
O1 0.166(2) 0.0340(12) 0.0279(10) -0.0018(8) -0.0067(12) -0.0060(13)
O2 0.227(5) 0.0334(18) 0.049(2) 0.000 -0.040(2) 0.000
O3 0.157(4) 0.115(4) 0.056(2) -0.057(2) 0.000 0.000
C1 0.163(3) 0.0401(17) 0.0256(15) -0.0030(12) -0.0054(16) -0.0077(19)
Zr2 0.1573(5) 0.0333(3) 0.0198(3) 0.000 0.000 -0.00443(19)
O4 0.175(3) 0.0465(13) 0.0238(10) -0.0035(9) -0.0011(12) -0.0119(15)
C2 0.167(4) 0.0433(17) 0.0278(14) -0.0034(12) -0.0060(17) -0.0093(19)
O5 0.169(4) 0.120(4) 0.0323(18) 0.000 0.000 0.011(3)
O6 0.211(5) 0.0358(18) 0.0341(17) 0.000 0.000 -0.008(2)
C3 0.174(4) 0.0498(19) 0.0234(13) -0.0026(12) 0.0017(17) -0.010(2)
C4 0.207(5) 0.059(2) 0.0289(16) -0.0047(14) 0.004(2) -0.037(3)
C5 0.174(4) 0.0453(18) 0.0291(14) 0.0008(12) -0.0045(18) -0.015(2)
C6 0.220(5) 0.063(2) 0.0251(15) -0.0035(14) 0.002(2) -0.037(3)
C7 0.174(4) 0.0409(17) 0.0256(14) 0.0001(11) -0.0088(16) -0.0127(19)
C8 0.169(4) 0.0384(16) 0.0248(14) -0.0015(11) -0.0057(16) -0.0062(18)
C9 0.140(3) 0.0365(14) 0.0281(14) 0.0024(11) -0.0049(15) -0.0008(16)
C10 0.186(6) 0.036(2) 0.030(2) 0.000 -0.005(3) 0.000
C11 0.127(4) 0.038(2) 0.0236(17) 0.000 0.0002(19) 0.000
O1G 0.166 0.034 0.0279 -0.0018 0.0067 0.006
C1G 0.163 0.0401 0.0256 -0.003 0.0054 0.0077
O4G 0.175 0.0465 0.0238 -0.0035 0.0011 0.0119
C2G 0.167 0.0433 0.0278 -0.0034 0.006 0.0093
C3G 0.174 0.0498 0.0234 -0.0026 -0.0017 0.01
C4G 0.207 0.059 0.0289 -0.0047 -0.004 0.037
C5G 0.174 0.0453 0.0291 0.0008 0.0045 0.015
C6G 0.22 0.063 0.0251 -0.0035 -0.002 0.037
C7G 0.174 0.0409 0.0256 0.0001 0.0088 0.0127
C8G 0.169 0.0384 0.0248 -0.0015 0.0057 0.0062
C9G 0.14 0.0365 0.0281 0.0024 0.0049 0.0008
C10G 0.186 0.036 0.03 0 0.005 0
C11G 0.127 0.038 0.0236 0 -0.0002 0
O1J 0.166 0.034 0.0279 0.0018 -0.0067 0.006
C1J 0.163 0.0401 0.0256 0.003 -0.0054 0.0077
O4J 0.175 0.0465 0.0238 0.0035 -0.0011 0.0119
C2J 0.167 0.0433 0.0278 0.0034 -0.006 0.0093
C3J 0.174 0.0498 0.0234 0.0026 0.0017 0.01
C4J 0.207 0.059 0.0289 0.0047 0.004 0.037
C5J 0.174 0.0453 0.0291 -0.0008 -0.0045 0.015
C6J 0.22 0.063 0.0251 0.0035 0.002 0.037
C7J 0.174 0.0409 0.0256 -0.0001 -0.0088 0.0127
C8J 0.169 0.0384 0.0248 0.0015 -0.0057 0.0062
C9J 0.14 0.0365 0.0281 -0.0024 -0.0049 0.0008
O1M 0.166 0.034 0.0279 0.0018 0.0067 -0.006
C1M 0.163 0.0401 0.0256 0.003 0.0054 -0.0077
O4M 0.175 0.0465 0.0238 0.0035 0.0011 -0.0119
C2M 0.167 0.0433 0.0278 0.0034 0.006 -0.0093
C3M 0.174 0.0498 0.0234 0.0026 -0.0017 -0.01
C4M 0.207 0.059 0.0289 0.0047 -0.004 -0.037
C5M 0.174 0.0453 0.0291 -0.0008 0.0045 -0.015
C6M 0.22 0.063 0.0251 0.0035 -0.002 -0.037
C7M 0.174 0.0409 0.0256 -0.0001 0.0088 -0.0127
C8M 0.169 0.0384 0.0248 0.0015 0.0057 -0.0062
C9M 0.14 0.0365 0.0281 -0.0024 0.0049 -0.0008
O2A 0.227 0.0334 0.049 0 0.04 0
O3A 0.157 0.115 0.056 0.057 0 0
Zr2A 0.1573 0.0333 0.0198 0 0 -0.00443
O5A 0.169 0.12 0.0323 0 0 0.011
O6A 0.211 0.0358 0.0341 0 0 -0.008
Zr1F 0.1567 0.0283 0.0171 0 0 0
Zr1J 0.1567 0.0283 0.0171 0 0 0
Zr1L 0.1567 0.0283 0.0171 0 0 0
O1A 0.166 0.034 0.0279 0.0018 0.0067 -0.006
O1R 0.166 0.034 0.0279 0.0018 -0.0067 0.006
O1S 0.166 0.034 0.0279 -0.0018 0.0067 0.006
O2B 0.227 0.0334 0.049 0 -0.04 0
O2C 0.227 0.0334 0.049 0 0.04 0
O3B 0.157 0.115 0.056 0.057 0 0
O3C 0.157 0.115 0.056 -0.057 0 0
Zr2B 0.1573 0.0333 0.0198 0 0 0.00443
Zr2C 0.1573 0.0333 0.0198 0 0 0.00443
Zr2F 0.1573 0.0333 0.0198 0 0 0.00443
Zr2K 0.1573 0.0333 0.0198 0 0 0.00443
Zr2L 0.1573 0.0333 0.0198 0 0 -0.00443
O4A 0.175 0.0465 0.0238 0.0035 0.0011 -0.0119
O4P 0.175 0.0465 0.0238 -0.0035 -0.0011 -0.0119
O4Q 0.175 0.0465 0.0238 0.0035 0.0011 -0.0119
loop_
_geom_bond_atom_site_label_1
_geom_bond_atom_site_label_2
_geom_bond_site_symmetry_1
_geom_bond_site_symmetry_2
Zr1 O1 1_555 1_555
O1 C1 1_555 1_555
O2 Zr1 1_555 1_555
O3 Zr1 1_555 1_555
C1 O4 1_555 1_555
Zr2 O2 1_555 1_555
H1 O2 1_555 1_555
O4 Zr2A 1_555 1_555
C2 C1 1_555 1_555
O5 Zr2 1_555 1_555
O6 Zr2 1_555 1_555
C3 C2 1_555 1_555
C4 C2 1_555 1_555
H2 O6 1_555 1_555
H3 C3 1_555 1_555
C5 C3 1_555 1_555
C6 C4 1_555 1_555
H4 C4 1_555 1_555
H5 C5 1_555 1_555
C7 C5 1_555 1_555
H6 C6 1_555 1_555
C8 C7 1_555 1_555
C9 C8 1_555 1_555
C10 C8 1_555 1_555
H7 C9 1_555 1_555
C11 C9 1_555 1_555
H8 C10 1_555 1_555
H9 O5 1_555 1_555
O1G C1G 1_555 1_555
C1G O4G 1_555 1_555
O4G Zr2F 1_555 1_555
C2G C1G 1_555 1_555
C3G C2G 1_555 1_555
C4G C2G 1_555 1_555
H3G C3G 1_555 1_555
C5G C3G 1_555 1_555
C6G C4G 1_555 1_555
H4G C4G 1_555 1_555
H5G C5G 1_555 1_555
C7G C5G 1_555 1_555
H6G C6G 1_555 1_555
C8G C7G 1_555 1_555
C9G C8G 1_555 1_555
C10G C8G 1_555 1_555
H7G C9G 1_555 1_555
C11G C11 1_555 1_555
H8G C10G 1_555 1_555
O1J C1J 1_555 1_555
C1J O4J 1_555 1_555
O4J Zr2K 1_555 1_555
C2J C1J 1_555 1_555
C3J C2J 1_555 1_555
C4J C2J 1_555 1_555
H3J C3J 1_555 1_555
C5J C3J 1_555 1_555
C6J C4J 1_555 1_555
H4J C4J 1_555 1_555
H5J C5J 1_555 1_555
C7J C5J 1_555 1_555
H6J C6J 1_555 1_555
C8J C10 1_555 1_555
C9J C11 1_555 1_555
H7J C9J 1_555 1_555
O1M C1M 1_555 1_555
C1M O4M 1_555 1_555
O4M Zr2L 1_555 1_555
C2M C1M 1_555 1_555
C3M C2M 1_555 1_555
C4M C2M 1_555 1_555
H3M C3M 1_555 1_555
C5M C3M 1_555 1_555
C6M C4M 1_555 1_555
H4M C4M 1_555 1_555
H5M C5M 1_555 1_555
C7M C5M 1_555 1_555
H6M C6M 1_555 1_555
C8M C10G 1_555 1_555
C9M C11G 1_555 1_555
H7M C9M 1_555 1_555
H2Q O6 1_555 1_555
O2A Zr1 1_555 1_555
O3A Zr1 1_555 1_555
Zr2A O2A 1_555 1_555
H1A O2A 1_555 1_555
O5A Zr2A 1_555 1_555
O6A Zr2A 1_555 1_555
H2A O6A 1_555 1_555
H9A O5A 1_555 1_555
H2P O6A 1_555 1_555
Zr1F O1G 1_555 1_555
Zr1J O1J 1_555 1_555
Zr1L O1M 1_555 1_555
O1A Zr1 1_555 1_555
O1R Zr1 1_555 1_555
O1S Zr1 1_555 1_555
O2B Zr2A 1_555 1_555
O2C Zr2 1_555 1_555
O3B Zr2 1_555 1_555
O3C Zr2A 1_555 1_555
Zr2B O3 1_555 1_555
Zr2C O2 1_555 1_555
O4A Zr2 1_555 1_555
O4P Zr2 1_555 1_555
O4Q Zr2A 1_555 1_555
O3 Zr2 1_555 1_555
C6 C7 1_555 1_555
C6G C7G 1_555 1_555
C9G C11G 1_555 1_555
C6J C7J 1_555 1_555
C7J C8J 1_555 1_555
C8J C9J 1_555 1_555
C6M C7M 1_555 1_555
C7M C8M 1_555 1_555
C8M C9M 1_555 1_555
O2A Zr2B 1_555 1_555
O3A Zr2A 1_555 1_555
O3A Zr2C 1_555 1_555
O2B Zr2B 1_555 1_555
O2C Zr2C 1_555 1_555
O3B Zr2B 1_555 1_555
O3C Zr2C 1_555 1_555

#END
