
#######################################################################
#
#                 Cambridge Crystallographic Data Centre
#                                CCDC 
#
#######################################################################
#
# If this CIF has been generated from an entry in the Cambridge 
# Structural Database, then it will include bibliographic, chemical, 
# crystal, experimental, refinement or atomic coordinate data resulting 
# from the CCDC's data processing and validation procedures.
#
#######################################################################

data_FUNVEQ
_chemical_formula_moiety         'C46 Cl16 Fe3 O20'
_symmetry_cell_setting           orthorhombic
_symmetry_space_group_name_H-M   'I m m a'
_symmetry_Int_Tables_number      74
_space_group_name_Hall           '-I 2b 2'
loop_
_symmetry_equiv_pos_site_id
_symmetry_equiv_pos_as_xyz
1 x,y,z
2 -x,1/2-y,z
3 -x,1/2+y,-z
4 x,-y,-z
5 1/2+x,1/2+y,1/2+z
6 1/2-x,-y,1/2+z
7 1/2-x,y,1/2-z
8 1/2+x,1/2-y,1/2-z
9 -x,-y,-z
10 x,1/2+y,-z
11 x,1/2-y,z
12 -x,y,z
13 1/2-x,1/2-y,1/2-z
14 1/2+x,y,1/2-z
15 1/2+x,-y,1/2+z
16 1/2-x,1/2+y,1/2+z
_cell_length_a                   18.40(2)
_cell_length_b                   6.935(7)
_cell_length_c                   11.075(11)
_cell_angle_alpha                90
_cell_angle_beta                 90
_cell_angle_gamma                90
_cell_volume                     1413.21
loop_
_atom_site_label
_atom_site_type_symbol
_atom_site_fract_x
_atom_site_fract_y
_atom_site_fract_z
Fe1 Fe 0.0000 0.5000 0.5000
Cl1 Cl 0.2274(15) -0.136(4) 0.389(4)
O1 O 0.0000 0.2500 0.5792(14)
O2 O 0.0802(4) 0.4077(15) 0.3902(8)
C1 C 0.1050(7) 0.2500 0.3647(17)
C2 C 0.1841(9) 0.2500 0.3102(15)
C3 C 0.2367(15) 0.095(5) 0.319(3)
C4 C 0.2083(17) 0.410(5) 0.250(3)
Fe1A Fe 0.0000 -0.0000 0.5000
Fe1_2 Fe 0.0000 -0.5000 0.5000
Cl1B Cl -0.2274(15) -0.636(4) 0.611(4)
Cl1H Cl -0.2274(15) -0.864(4) 0.611(4)
Cl1B_2 Cl -0.2274(15) -1.636(4) 0.611(4)
Cl1N Cl -0.2726(15) -0.864(4) 0.889(4)
Cl1D Cl -0.2726(15) -0.636(4) 0.889(4)
Cl1N_2 Cl -0.2726(15) 0.136(4) 0.889(4)
Cl1H_2 Cl -0.2274(15) 0.136(4) 0.611(4)
Cl1A Cl -0.2274(15) 0.636(4) 0.389(4)
Cl1K Cl -0.2274(15) 0.864(4) 0.389(4)
Cl1K_2 Cl -0.2274(15) -0.136(4) 0.389(4)
Cl1A_2 Cl -0.2274(15) -0.364(4) 0.389(4)
Cl1M Cl -0.2726(15) -0.136(4) 0.111(4)
Cl1G Cl -0.2726(15) -0.364(4) 0.111(4)
Cl1G_2 Cl -0.2726(15) 0.636(4) 0.111(4)
Cl1M_2 Cl -0.2726(15) 0.864(4) 0.111(4)
O1B O -0.0000 -0.2500 0.4208(14)
O1_2 O 0.0000 -0.7500 0.5792(14)
O1B_2 O -0.0000 0.7500 0.4208(14)
O2C O 0.0802(4) -0.4077(15) 0.6098(8)
O2I O 0.0802(4) -0.0923(15) 0.6098(8)
O2A O -0.0802(4) 0.0923(15) 0.3902(8)
O2K O -0.0802(4) 0.4077(15) 0.3902(8)
O2J O 0.0802(4) 0.0923(15) 0.3902(8)
O2B O -0.0802(4) -0.0923(15) 0.6098(8)
O2H O -0.0802(4) -0.4077(15) 0.6098(8)
O2_2 O 0.0802(4) -0.5923(15) 0.3902(8)
O2K_2 O -0.0802(4) -0.5923(15) 0.3902(8)
O2N O -0.4198(4) -1.4077(15) 0.8902(8)
O2D O -0.4198(4) -1.0923(15) 0.8902(8)
O2C_2 O 0.0802(4) 0.5923(15) 0.6098(8)
O2H_2 O -0.0802(4) 0.5923(15) 0.6098(8)
O2M O -0.4198(4) 0.4077(15) 0.1098(8)
O2G O -0.4198(4) 0.0923(15) 0.1098(8)
C1C C 0.1050(7) -0.2500 0.6353(17)
C1A C -0.1050(7) 0.2500 0.3647(17)
C1B C -0.1050(7) -0.2500 0.6353(17)
C1B_2 C -0.1050(7) -1.2500 0.6353(17)
C1D C -0.3950(7) -1.2500 0.8647(17)
C1D_2 C -0.3950(7) -0.2500 0.8647(17)
C1G C -0.3950(7) 0.2500 0.1353(17)
C2B C -0.1841(9) -0.2500 0.6898(15)
C2B_2 C -0.1841(9) -1.2500 0.6898(15)
C2D C -0.3159(9) -1.2500 0.8102(15)
C2D_2 C -0.3159(9) -0.2500 0.8102(15)
C2A C -0.1841(9) 0.2500 0.3102(15)
C2G C -0.3159(9) 0.2500 0.1898(15)
C2C C 0.1841(9) -0.2500 0.6898(15)
C3B C -0.2367(15) -0.405(5) 0.681(3)
C3H C -0.2367(15) -1.095(5) 0.681(3)
C3B_2 C -0.2367(15) -1.405(5) 0.681(3)
C3N C -0.2633(15) -1.095(5) 0.819(3)
C3D C -0.2633(15) -0.405(5) 0.819(3)
C3N_2 C -0.2633(15) -0.095(5) 0.819(3)
C3H_2 C -0.2367(15) -0.095(5) 0.681(3)
C3D_2 C -0.2633(15) -1.405(5) 0.819(3)
C3A C -0.2367(15) 0.405(5) 0.319(3)
C3K C -0.2367(15) 0.095(5) 0.319(3)
C3M C -0.2633(15) 0.095(5) 0.181(3)
C3G C -0.2633(15) 0.405(5) 0.181(3)
C3J C 0.2367(15) 0.405(5) 0.319(3)
C3L C 0.2633(15) 0.405(5) 0.181(3)
C4H C -0.2083(17) -1.410(5) 0.750(3)
C4N C -0.2917(17) -1.410(5) 0.750(3)
C4D C -0.2917(17) -0.090(5) 0.750(3)
C4B C -0.2083(17) -0.090(5) 0.750(3)
C4H_2 C -0.2083(17) -0.410(5) 0.750(3)
C4N_2 C -0.2917(17) -0.410(5) 0.750(3)
C4D_2 C -0.2917(17) -1.090(5) 0.750(3)
C4B_2 C -0.2083(17) -1.090(5) 0.750(3)
C4K C -0.2083(17) 0.410(5) 0.250(3)
C4A C -0.2083(17) 0.090(5) 0.250(3)
C4M C -0.2917(17) 0.410(5) 0.250(3)
C4G C -0.2917(17) 0.090(5) 0.250(3)
C4J C 0.2083(17) 0.090(5) 0.250(3)
C4L C 0.2917(17) 0.090(5) 0.250(3)
loop_
_geom_bond_atom_site_label_1
_geom_bond_atom_site_label_2
_geom_bond_site_symmetry_1
_geom_bond_site_symmetry_2
Fe1 O1 1_555 1_555
Cl1 C3 1_555 1_555
O1 Fe1A 1_555 1_555
O2 Fe1 1_555 1_555
C1 O2 1_555 1_555
C2 C1 1_555 1_555
C3 C2 1_555 1_555
C4 C2 1_555 1_555
Fe1A O1B 1_555 1_555
Fe1_2 O1B 1_555 1_555
Cl1B Cl1H 1_555 1_555
Cl1H C3H 1_555 1_555
Cl1B_2 C3B_2 1_555 1_555
Cl1N Cl1D 1_555 1_555
Cl1D C3D 1_555 1_555
Cl1N_2 C3N_2 1_555 1_555
Cl1H_2 C3H_2 1_555 1_555
Cl1A Cl1K 1_555 1_555
Cl1K_2 Cl1A_2 1_555 1_555
Cl1M Cl1G 1_555 1_555
Cl1G_2 Cl1M_2 1_555 1_555
O1_2 Fe1_2 1_555 1_555
O1B_2 Fe1 1_555 1_555
O2C Fe1_2 1_555 1_555
O2I Fe1A 1_555 1_555
O2A Fe1A 1_555 1_555
O2K Fe1 1_555 1_555
O2J C1 1_555 1_555
O2B Fe1A 1_555 1_555
O2H Fe1_2 1_555 1_555
O2_2 Fe1_2 1_555 1_555
O2K_2 Fe1_2 1_555 1_555
O2N C1D 1_555 1_555
O2D C1D 1_555 1_555
O2C_2 Fe1 1_555 1_555
O2H_2 Fe1 1_555 1_555
O2M C1G 1_555 1_555
O2G C1G 1_555 1_555
C1C O2C 1_555 1_555
C1A O2A 1_555 1_555
C1B O2B 1_555 1_555
C1B_2 C2B_2 1_555 1_555
C1D C2D 1_555 1_555
C1D_2 C2D_2 1_555 1_555
C1G C2G 1_555 1_555
C2B C1B 1_555 1_555
C2B_2 C3H 1_555 1_555
C2D C3N 1_555 1_555
C2D_2 C3D 1_555 1_555
C2A C1A 1_555 1_555
C2G C3M 1_555 1_555
C2C C1C 1_555 1_555
C3B Cl1B 1_555 1_555
C3H C4D_2 1_555 1_555
C3B_2 C2B_2 1_555 1_555
C3N Cl1N 1_555 1_555
C3D C4H_2 1_555 1_555
C3N_2 C2D_2 1_555 1_555
C3H_2 C2B 1_555 1_555
C3D_2 C2D 1_555 1_555
C3A Cl1A 1_555 1_555
C3K Cl1K_2 1_555 1_555
C3M Cl1M 1_555 1_555
C3G Cl1G_2 1_555 1_555
C3J C2 1_555 1_555
C3L C4 1_555 1_555
C4H C2B_2 1_555 1_555
C4N C2D 1_555 1_555
C4D C2D_2 1_555 1_555
C4B C2B 1_555 1_555
C4H_2 C2B 1_555 1_555
C4N_2 C2D_2 1_555 1_555
C4D_2 C2D 1_555 1_555
C4B_2 C2B_2 1_555 1_555
C4K C2A 1_555 1_555
C4A C2A 1_555 1_555
C4M C2G 1_555 1_555
C4G C2G 1_555 1_555
C4J C2 1_555 1_555
C4L C3 1_555 1_555
C3 C4J 1_555 1_555
C4 C3J 1_555 1_555
Fe1A O2J 1_555 1_555
O2I C1C 1_555 1_555
O2K C1A 1_555 1_555
O2H C1B 1_555 1_555
C2B C3B 1_555 1_555
C2A C3A 1_555 1_555
C2A C3K 1_555 1_555
C2G C3G 1_555 1_555
C3B C4H_2 1_555 1_555
C3B C4N_2 1_555 1_555
C3H C4B_2 1_555 1_555
C3B_2 C4H 1_555 1_555
C3B_2 C4N 1_555 1_555
C3N C4D_2 1_555 1_555
C3N C4B_2 1_555 1_555
C3D C4N_2 1_555 1_555
C3N_2 C4D 1_555 1_555
C3N_2 C4B 1_555 1_555
C3H_2 C4D 1_555 1_555
C3H_2 C4B 1_555 1_555
C3D_2 C4H 1_555 1_555
C3D_2 C4N 1_555 1_555
C3A C4K 1_555 1_555
C3A C4M 1_555 1_555
C3K C4A 1_555 1_555
C3K C4G 1_555 1_555
C3M C4A 1_555 1_555
C3M C4G 1_555 1_555
C3G C4K 1_555 1_555
C3G C4M 1_555 1_555
C4H C4N 1_555 1_555
C4D C4B 1_555 1_555
C4H_2 C4N_2 1_555 1_555
C4D_2 C4B_2 1_555 1_555
C4K C4M 1_555 1_555
C4A C4G 1_555 1_555

#END
