
#######################################################################
#
#                 Cambridge Crystallographic Data Centre
#                                CCDC 
#
#######################################################################
#
# If this CIF has been generated from an entry in the Cambridge 
# Structural Database, then it will include bibliographic, chemical, 
# crystal, experimental, refinement or atomic coordinate data resulting 
# from the CCDC's data processing and validation procedures.
#
#######################################################################

data_ASOSUY
_chemical_formula_moiety         '(C18 H16 Cu2 O10 Si1)n'
_symmetry_cell_setting           hexagonal
_symmetry_space_group_name_H-M   'P 63/m m c'
_symmetry_Int_Tables_number      194
_space_group_name_Hall           '-P 6c 2c'
loop_
_symmetry_equiv_pos_site_id
_symmetry_equiv_pos_as_xyz
1 x,y,z
2 -y,x-y,z
3 -x+y,-x,z
4 -x,-y,1/2+z
5 y,-x+y,1/2+z
6 x-y,x,1/2+z
7 y,x,-z
8 x-y,-y,-z
9 -x,-x+y,-z
10 -y,-x,1/2-z
11 -x+y,y,1/2-z
12 x,x-y,1/2-z
13 -x,-y,-z
14 y,-x+y,-z
15 x-y,x,-z
16 x,y,1/2-z
17 -y,x-y,1/2-z
18 -x+y,-x,1/2-z
19 -y,-x,z
20 -x+y,y,z
21 x,x-y,z
22 y,x,1/2+z
23 x-y,-y,1/2+z
24 -x,-x+y,1/2+z
_cell_length_a                   18.5185(5)
_cell_length_b                   18.5185(5)
_cell_length_c                   19.1215(11)
_cell_angle_alpha                90
_cell_angle_beta                 90
_cell_angle_gamma                120
_cell_volume                     5678.9
loop_
_atom_site_label
_atom_site_type_symbol
_atom_site_fract_x
_atom_site_fract_y
_atom_site_fract_z
Cu1 Cu 0.47642(2) -0.04716(3) 0.05626(3)
Si1 Si 0.26565(13) 0.13282(6) 0.2500
O1 O 0.43949(16) 0.02918(14) 0.08988(13)
O2 O 0.48069(16) 0.10963(14) -0.00534(14)
O3 O 0.43801(17) -0.1240(3) 0.1473(3)
C1 C 0.3644(2) 0.1179(2) 0.14211(18)
H1 H 0.3469 0.0646 0.1619
C2 C 0.3360(3) 0.16799(14) 0.1709(3)
C3 C 0.1992(4) 0.1828(4) 0.2500
H2 H 0.2349 0.2436 0.2500
H3 H 0.1639 0.1655 0.2082
C4 C 0.4179(2) 0.14437(19) 0.08494(18)
C5 C 0.4429(3) 0.22143(15) 0.0561(3)
H4 H 0.4776 0.2388 0.0159
C6 C 0.4485(2) 0.0900(2) 0.05402(18)
O1K O 0.43949(16) 0.41031(21) 0.41012(13)
O2K O 0.48069(16) 0.37106(21) 0.50534(14)
C1K C 0.3644(2) 0.2465(3) 0.35789(18)
H1K H 0.3469 0.2823 0.3381
C2K C 0.3360(3) 0.16801(33) 0.3291(3)
C3K C 0.1992(4) 0.0164(6) 0.2500
H2K H 0.2349 -0.0087 0.2500
H3K H 0.1639 -0.0016 0.2918
C4K C 0.4179(2) 0.27353(28) 0.41506(18)
C5K C 0.4429(3) 0.22147(34) 0.4439(3)
H4K H 0.4776 0.2388 0.4841
C6K C 0.4485(2) 0.3585(3) 0.44598(18)
O1O O 0.43949(16) 0.02918(14) 0.41012(13)
O2O O 0.48069(16) 0.10963(14) 0.50534(14)
C1O C 0.3644(2) 0.1179(2) 0.35789(18)
H1O H 0.3469 0.0646 0.3381
H3O H 0.1639 0.1655 0.2918
C4O C 0.4179(2) 0.14437(19) 0.41506(18)
C6O C 0.4485(2) 0.0900(2) 0.44598(18)
O1T O 0.43949(16) 0.41031(21) 0.08988(13)
O2T O 0.48069(16) 0.37106(21) -0.00534(14)
C1T C 0.3644(2) 0.2465(3) 0.14211(18)
H1T H 0.3469 0.2823 0.1619
H3T H 0.1639 -0.0016 0.2082
C4T C 0.4179(2) 0.27353(28) 0.08494(18)
C6T C 0.4485(2) 0.3585(3) 0.05402(18)
Cu1G Cu 0.52358(4) 0.04716(3) -0.05626(3)
O3G O 0.56201(34) 0.1240(3) -0.1473(3)
Cu1B Cu 0.47642(4) 0.52358(2) 0.05626(3)
Cu1C Cu 0.52358(2) 0.04716(3) 0.55626(3)
Cu1E Cu 0.52358(4) 0.47642(2) 0.55626(3)
Cu1H Cu 0.52358(2) 0.47642(4) -0.05626(3)
Cu1J Cu 0.47642(4) -0.04716(3) 0.44374(3)
Cu1K Cu 0.47642(2) 0.52358(4) 0.44374(3)
O1G O 0.41031(21) -0.02918(14) -0.08988(13)
O1L O 0.56051(16) -0.02918(14) -0.08988(13)
O1S O 0.58969(21) 0.02918(14) 0.08988(13)
O2G O 0.37106(21) -0.10963(14) 0.00534(14)
O2L O 0.51931(16) -0.10963(14) 0.00534(14)
O2S O 0.62894(21) 0.10963(14) -0.00534(14)
loop_
_geom_bond_atom_site_label_1
_geom_bond_atom_site_label_2
_geom_bond_site_symmetry_1
_geom_bond_site_symmetry_2
Cu1 O1 1_555 1_555
Si1 C2 1_555 1_555
O1 C6 1_555 1_555
O2 C6 1_555 1_555
O3 Cu1 1_555 1_555
C1 H1 1_555 1_555
C2 C1 1_555 1_555
C3 Si1 1_555 1_555
H2 C3 1_555 1_555
H3 C3 1_555 1_555
C4 C1 1_555 1_555
C5 C4 1_555 1_555
H4 C5 1_555 1_555
C6 C4 1_555 1_555
O1K C6K 1_555 1_555
O2K C6K 1_555 1_555
C1K H1K 1_555 1_555
C2K Si1 1_555 1_555
C3K Si1 1_555 1_555
H2K C3K 1_555 1_555
H3K C3K 1_555 1_555
C4K C1K 1_555 1_555
C5K C4K 1_555 1_555
H4K C5K 1_555 1_555
C6K C4K 1_555 1_555
O1O C6O 1_555 1_555
O2O C6O 1_555 1_555
C1O C2K 1_555 1_555
H1O C1O 1_555 1_555
H3O C3 1_555 1_555
C4O C5K 1_555 1_555
C6O C4O 1_555 1_555
O1T C6T 1_555 1_555
O2T C6T 1_555 1_555
C1T C2 1_555 1_555
H1T C1T 1_555 1_555
H3T C3K 1_555 1_555
C4T C5 1_555 1_555
C6T C4T 1_555 1_555
Cu1G Cu1 1_555 1_555
O3G Cu1G 1_555 1_555
Cu1B O1T 1_555 1_555
Cu1C O2O 1_555 1_555
Cu1E O2K 1_555 1_555
Cu1H O2T 1_555 1_555
Cu1J O1O 1_555 1_555
Cu1K O1K 1_555 1_555
O1G Cu1G 1_555 1_555
O1L Cu1G 1_555 1_555
O1S Cu1 1_555 1_555
O2G Cu1 1_555 1_555
O2L Cu1 1_555 1_555
O2S Cu1G 1_555 1_555
O2 Cu1G 1_555 1_555
C1K C2K 1_555 1_555
C1O C4O 1_555 1_555
C1T C4T 1_555 1_555
Cu1B Cu1H 1_555 1_555
Cu1C Cu1J 1_555 1_555
Cu1E Cu1K 1_555 1_555

#END
