
#######################################################################
#
#                 Cambridge Crystallographic Data Centre
#                                CCDC 
#
#######################################################################
#
# If this CIF has been generated from an entry in the Cambridge 
# Structural Database, then it will include bibliographic, chemical, 
# crystal, experimental, refinement or atomic coordinate data resulting 
# from the CCDC's data processing and validation procedures.
#
#######################################################################

data_GATQOK
_chemical_formula_moiety         '(C74 H53 N9 O34 Zr6)n'
_symmetry_cell_setting           tetragonal
_symmetry_space_group_name_H-M   'I -4 2 d'
_symmetry_Int_Tables_number      122
_space_group_name_Hall           'I -4 2bw'
loop_
_symmetry_equiv_pos_site_id
_symmetry_equiv_pos_as_xyz
1 x,y,z
2 -x,-y,z
3 y,-x,-z
4 -y,x,-z
5 1/2-x,y,3/4-z
6 1/2+x,-y,3/4-z
7 1/2-y,-x,3/4+z
8 1/2+y,x,3/4+z
9 1/2+x,1/2+y,1/2+z
10 1/2-x,1/2-y,1/2+z
11 1/2+y,1/2-x,1/2-z
12 1/2-y,1/2+x,1/2-z
13 -x,1/2+y,1/4-z
14 x,1/2-y,1/4-z
15 -y,1/2-x,1/4+z
16 y,1/2+x,1/4+z
_cell_length_a                   38.9025(7)
_cell_length_b                   38.9025(7)
_cell_length_c                   18.9223(11)
_cell_angle_alpha                90
_cell_angle_beta                 90
_cell_angle_gamma                90
_cell_volume                     28637.1
loop_
_atom_site_label
_atom_site_type_symbol
_atom_site_fract_x
_atom_site_fract_y
_atom_site_fract_z
Zr1 Zr 0.26363(2) 0.46466(2) 0.78595(5)
Zr2 Zr 0.18925(2) 0.50987(2) 0.83637(4)
Zr3 Zr 0.23566(2) 0.55545(2) 0.96369(5)
C1 C 0.3438(3) 0.4527(3) 0.8087(6)
C2 C 0.37455(14) 0.4129(3) 0.7255(6)
H1 H 0.353291 0.406481 0.707259
C3 C 0.37640(14) 0.4371(3) 0.7793(5)
C4 C 0.40817(17) 0.4467(2) 0.8065(4)
H2 H 0.409415 0.462933 0.842585
C5 C 0.43809(13) 0.4321(3) 0.7798(5)
H3 H 0.459345 0.438570 0.798018
C6 C 0.43623(15) 0.4079(3) 0.7259(6)
C7 C 0.40446(18) 0.3983(3) 0.6987(6)
H4 H 0.403221 0.382117 0.662692
C8 C 0.4681(2) 0.3946(4) 0.6933(7)
C9 C 0.4944(3) 0.3610(4) 0.6128(7)
C10 C 0.5258(3) 0.3894(4) 0.6946(8)
C11 C 0.52418(14) 0.3309(3) 0.5146(5)
H5 H 0.545147 0.335674 0.536047
C12 C 0.52325(15) 0.3122(3) 0.4520(5)
H6 H 0.543591 0.304560 0.431499
C13 C 0.49192(19) 0.3050(2) 0.4199(4)
C14 C 0.46152(15) 0.3165(3) 0.4505(5)
H7 H 0.440552 0.311699 0.429001
C15 C 0.46245(14) 0.3351(3) 0.5131(5)
H8 H 0.442108 0.342813 0.533549
C16 C 0.49378(17) 0.3423(3) 0.5452(4)
C17 C 0.4910(3) 0.2881(2) 0.3489(6)
C18 C 0.55913(13) 0.3996(3) 0.7259(5)
C19 C 0.55960(13) 0.4222(3) 0.7828(5)
H9 H 0.539060 0.430050 0.802014
C20 C 0.59078(16) 0.4331(2) 0.8108(4)
H10 H 0.591096 0.448206 0.848855
C21 C 0.62148(13) 0.4213(2) 0.7821(4)
C22 C 0.62101(13) 0.3987(2) 0.7252(4)
H11 H 0.641550 0.390820 0.705965
C23 C 0.58983(17) 0.3878(2) 0.6972(4)
H12 H 0.589515 0.372664 0.659122
C24 C 0.6552(3) 0.4346(3) 0.8092(6)
C25 C 0.250000 0.3940(5) 0.875000
C26 C 0.250000 0.3545(5) 0.875000
C27 C 0.250000 0.6267(7) 0.875000
N1 N 0.4649(2) 0.3743(4) 0.6364(6)
N2 N 0.5259(2) 0.3698(4) 0.6388(7)
N3 N 0.4970(2) 0.4037(3) 0.7224(6)
O1 O 0.31691(18) 0.4458(2) 0.7792(4)
O2 O 0.34783(17) 0.4739(2) 0.8594(4)
O3 O 0.4621(2) 0.2827(2) 0.3222(4)
O4 O 0.52027(18) 0.2803(2) 0.3211(4)
O5 O 0.68184(16) 0.42497(19) 0.7789(5)
O6 O 0.65247(16) 0.4555(2) 0.8604(4)
O7 O 0.2620(2) 0.4087(2) 0.8198(5)
O8 O 0.2390(3) 0.6110(2) 0.9325(5)
O9 O 0.2199(2) 0.4662(3) 0.8544(5)
O10 O 0.23290(19) 0.5113(2) 0.7656(4)
O11 O 0.2059(3) 0.5101(3) 0.9459(6)
O12 O 0.2282(3) 0.4397(3) 0.7124(5)
O13 O 0.1678(3) 0.4779(3) 0.7471(6)
O14 O 0.1648(2) 0.5401(3) 0.7490(5)
O15 O 0.2796(2) 0.5554(3) 0.8965(6)
O16 O 0.2644(2) 0.9164(2) 1.2082(4)
C28 C 0.250000 0.6641(6) 0.875000
C29 C 0.2470(7) 0.6825(4) 0.9369(8)
H13 H 0.244777 0.670533 0.979216
N4 N 0.2559(6) 0.7896(3) 0.9373(6)
C30 C 0.2472(7) 0.7181(4) 0.9389(8)
H14 H 0.245442 0.729700 0.981668
C31 C 0.250000 0.7719(3) 0.875000
C32 C 0.250000 0.7362(4) 0.875000
N5 N 0.250000 0.8433(4) 0.875000
C33 C 0.2595(7) 0.8253(3) 0.9349(6)
O17 O 0.2826(8) 0.9548(6) 1.1229(18)
C34 C 0.2727(13) 0.9262(5) 1.1477(9)
C35 C 0.2846(8) 0.9062(5) 1.0250(12)
H15 H 0.296343 0.926658 1.017298
C36 C 0.2785(8) 0.8839(5) 0.9690(9)
H16 H 0.286191 0.889369 0.923921
C37 C 0.2609(8) 0.8533(4) 0.9805(9)
C38 C 0.2494(8) 0.8450(5) 1.0480(12)
H17 H 0.237572 0.824560 1.055650
C39 C 0.2554(8) 0.8674(5) 1.1039(10)
H18 H 0.247723 0.861849 1.149029
C40 C 0.2730(8) 0.8980(4) 1.0924(9)
O7D O 0.2380(2) 0.4087(2) 0.9302(5)
O8D O 0.2610(3) 0.6110(2) 0.8175(5)
O16D O 0.2356(2) 0.9164(2) 0.5418(4)
C29D C 0.2530(7) 0.6825(4) 0.8131(8)
H13D H 0.255223 0.670533 0.770784
N4D N 0.2441(6) 0.7896(3) 0.8127(6)
C30D C 0.2528(7) 0.7181(4) 0.8111(8)
H14D H 0.254558 0.729700 0.768332
C33D C 0.2405(7) 0.8253(3) 0.8151(6)
O17D O 0.2174(8) 0.9548(6) 0.6271(18)
C34D C 0.2273(13) 0.9262(5) 0.6023(9)
C35D C 0.2154(8) 0.9062(5) 0.7250(12)
H15D H 0.203657 0.926658 0.732702
C36D C 0.2215(8) 0.8839(5) 0.7810(9)
H16D H 0.213809 0.889369 0.826079
C37D C 0.2391(8) 0.8533(4) 0.7695(9)
C38D C 0.2506(8) 0.8450(5) 0.7020(12)
H17D H 0.262428 0.824560 0.694350
C39D C 0.2446(8) 0.8674(5) 0.6461(10)
H18D H 0.252277 0.861849 0.600971
C40D C 0.2270(8) 0.8980(4) 0.6576(9)
Zr1B Zr 0.46466(2) 0.73637(2) 0.21405(5)
Zr2B Zr 0.50987(2) 0.81075(2) 0.16363(4)
Zr3B Zr 0.55545(2) 0.76434(2) 0.03631(5)
C1B C 0.4527(3) 0.6562(3) 0.1913(6)
C2B C 0.4129(3) 0.62545(14) 0.2745(6)
H1B H 0.406481 0.646709 0.292741
C3B C 0.4371(3) 0.62360(14) 0.2207(5)
C4B C 0.4467(2) 0.59183(17) 0.1935(4)
H2B H 0.462933 0.590585 0.157415
C5B C 0.4321(3) 0.56191(13) 0.2202(5)
H3B H 0.438570 0.540655 0.201982
C6B C 0.4079(3) 0.56377(15) 0.2741(6)
C7B C 0.3983(3) 0.59554(18) 0.3013(6)
H4B H 0.382117 0.596779 0.337308
C8B C 0.3946(4) 0.5319(2) 0.3067(7)
C9B C 0.3610(4) 0.5056(3) 0.3872(7)
C10B C 0.3894(4) 0.4742(3) 0.3054(8)
C11B C 0.3309(3) 0.47582(14) 0.4854(5)
H5B H 0.335674 0.454853 0.463953
C12B C 0.3122(3) 0.47675(15) 0.5480(5)
H6B H 0.304560 0.456409 0.568501
C13B C 0.3050(2) 0.50808(19) 0.5801(4)
C14B C 0.3165(3) 0.53848(15) 0.5495(5)
H7B H 0.311699 0.559448 0.570999
C15B C 0.3351(3) 0.53755(14) 0.4869(5)
H8B H 0.342813 0.557892 0.466451
C16B C 0.3423(3) 0.50622(17) 0.4548(4)
C17B C 0.2881(2) 0.5090(3) 0.6511(6)
C18B C 0.3996(3) 0.44087(13) 0.2741(5)
C19B C 0.4222(3) 0.44040(13) 0.2172(5)
H9B H 0.430050 0.460940 0.197986
C20B C 0.4331(2) 0.40922(16) 0.1892(4)
H10B H 0.448206 0.408904 0.151145
C21B C 0.4213(2) 0.37852(13) 0.2179(4)
C22B C 0.3987(2) 0.37899(13) 0.2748(4)
H11B H 0.390820 0.358450 0.294035
C23B C 0.3878(2) 0.41017(17) 0.3028(4)
H12B H 0.372664 0.410485 0.340878
C24B C 0.4346(3) 0.3448(3) 0.1908(6)
N1B N 0.3743(4) 0.5351(2) 0.3636(6)
N2B N 0.3698(4) 0.4741(2) 0.3612(7)
N3B N 0.4037(3) 0.5030(2) 0.2776(6)
O1B O 0.4458(2) 0.68309(18) 0.2208(4)
O2B O 0.4739(2) 0.65217(17) 0.1406(4)
O3B O 0.2827(2) 0.5379(2) 0.6778(4)
O4B O 0.2803(2) 0.47973(18) 0.6789(4)
O5B O 0.42497(19) 0.31816(16) 0.2211(5)
O6B O 0.4555(2) 0.34753(16) 0.1396(4)
O9B O 0.4662(3) 0.7801(2) 0.1456(5)
O10B O 0.5113(2) 0.76710(19) 0.2344(4)
O11B O 0.5101(3) 0.7941(3) 0.0541(6)
O12B O 0.4397(3) 0.7718(3) 0.2876(5)
O13B O 0.4779(3) 0.8322(3) 0.2529(6)
O14B O 0.5401(3) 0.8352(2) 0.2510(5)
O15B O 0.5554(3) 0.7204(2) 0.1035(6)
Zr1C Zr 0.53534(2) 0.26363(2) 0.21405(5)
Zr1D Zr 0.23637(2) 0.46466(2) 0.96405(5)
Zr1O Zr 0.46466(2) 0.76363(2) 0.03595(5)
Zr2D Zr 0.31075(2) 0.50987(2) 0.91363(4)
Zr2E Zr 0.68925(2) 0.49013(2) 0.91363(4)
Zr2N Zr 0.49013(2) 0.31075(2) 0.08637(4)
Zr2O Zr 0.50987(2) 0.68925(2) 0.08637(4)
Zr3D Zr 0.26434(2) 0.55545(2) 0.78631(5)
Zr3E Zr 0.73566(2) 0.44455(2) 0.78631(5)
Zr3I Zr 0.26434(2) 0.94455(2) 0.46369(5)
Zr3M Zr 0.23566(2) 0.94455(2) 1.28631(5)
Zr3N Zr 0.44455(2) 0.26434(2) 0.21369(5)
Zr3O Zr 0.55545(2) 0.73566(2) 0.21369(5)
O2D O 0.15217(17) 0.4739(2) 0.8906(4)
O2O O 0.4739(2) 0.84783(17) 0.1094(4)
O3F O 0.2173(2) 0.5379(2) 1.0722(4)
O3L O 0.5379(2) 0.7827(2) -0.0722(4)
O4A O 0.47973(18) 0.7197(2) 0.3211(4)
O5E O 0.18184(16) 0.57503(19) 0.9711(5)
O5N O 0.57503(19) 0.81816(16) 0.0289(5)
O6E O 0.15247(16) 0.5445(2) 0.8896(4)
O6N O 0.5445(2) 0.84753(16) 0.1104(4)
O7B O 0.4087(2) 0.7380(2) 0.1802(5)
O8B O 0.6110(2) 0.7610(3) 0.0675(5)
O9D O 0.2801(2) 0.4662(3) 0.8956(5)
O9O O 0.4662(3) 0.7199(2) 0.1044(5)
O10D O 0.26710(19) 0.5113(2) 0.9844(4)
O10O O 0.5113(2) 0.73290(19) 0.0156(4)
O11D O 0.2941(3) 0.5101(3) 0.8041(6)
O11O O 0.5101(3) 0.7059(3) 0.1959(6)
O15D O 0.2204(2) 0.5554(3) 0.8535(6)
O15O O 0.5554(3) 0.7796(2) 0.1465(6)
O16F O 0.5836(2) 0.7356(2) -0.0418(4)
O16M O 0.2644(2) 0.5836(2) 1.0418(4)
loop_
_geom_bond_atom_site_label_1
_geom_bond_atom_site_label_2
_geom_bond_site_symmetry_1
_geom_bond_site_symmetry_2
Zr1 O1 1_555 1_555
Zr2 O9 1_555 1_555
Zr3 O8 1_555 1_555
C1 C3 1_555 1_555
C2 H1 1_555 1_555
C3 C2 1_555 1_555
C4 C3 1_555 1_555
H2 C4 1_555 1_555
C5 C4 1_555 1_555
H3 C5 1_555 1_555
C6 C5 1_555 1_555
C7 C2 1_555 1_555
H4 C7 1_555 1_555
C8 C6 1_555 1_555
C9 C16 1_555 1_555
C10 C18 1_555 1_555
C11 H5 1_555 1_555
C12 C11 1_555 1_555
H6 C12 1_555 1_555
C13 C12 1_555 1_555
C14 C13 1_555 1_555
H7 C14 1_555 1_555
C15 C14 1_555 1_555
H8 C15 1_555 1_555
C16 C11 1_555 1_555
C17 C13 1_555 1_555
C18 C19 1_555 1_555
C19 H9 1_555 1_555
C20 C19 1_555 1_555
H10 C20 1_555 1_555
C21 C20 1_555 1_555
C22 C21 1_555 1_555
H11 C22 1_555 1_555
C23 C18 1_555 1_555
H12 C23 1_555 1_555
C24 C21 1_555 1_555
C25 C26 1_555 1_555
C27 O8 1_555 1_555
N1 C8 1_555 1_555
N2 C9 1_555 1_555
N3 C8 1_555 1_555
O1 C1 1_555 1_555
O2 C1 1_555 1_555
O3 C17 1_555 1_555
O4 C17 1_555 1_555
O5 C24 1_555 1_555
O6 C24 1_555 1_555
O7 Zr1 1_555 1_555
O9 Zr1 1_555 1_555
O10 Zr1 1_555 1_555
O11 Zr2 1_555 1_555
O12 Zr1 1_555 1_555
O13 Zr2 1_555 1_555
O14 Zr2 1_555 1_555
O15 Zr3 1_555 1_555
O16 C34 1_555 1_555
C28 C27 1_555 1_555
C29 C28 1_555 1_555
H13 C29 1_555 1_555
N4 C31 1_555 1_555
C30 C29 1_555 1_555
H14 C30 1_555 1_555
C31 C32 1_555 1_555
C32 C30 1_555 1_555
N5 C33 1_555 1_555
C33 N4 1_555 1_555
O17 C34 1_555 1_555
C34 C40 1_555 1_555
C35 H15 1_555 1_555
C36 C35 1_555 1_555
H16 C36 1_555 1_555
C37 C33 1_555 1_555
C38 C37 1_555 1_555
H17 C38 1_555 1_555
C39 C38 1_555 1_555
H18 C39 1_555 1_555
C40 C35 1_555 1_555
O7D C25 1_555 1_555
O8D C27 1_555 1_555
O16D C34D 1_555 1_555
C29D C28 1_555 1_555
H13D C29D 1_555 1_555
N4D C31 1_555 1_555
C30D C32 1_555 1_555
H14D C30D 1_555 1_555
C33D N5 1_555 1_555
O17D C34D 1_555 1_555
C34D C40D 1_555 1_555
C35D H15D 1_555 1_555
C36D C35D 1_555 1_555
H16D C36D 1_555 1_555
C37D C33D 1_555 1_555
C38D C37D 1_555 1_555
H17D C38D 1_555 1_555
C39D C38D 1_555 1_555
H18D C39D 1_555 1_555
C40D C35D 1_555 1_555
Zr1B O1B 1_555 1_555
Zr2B O9B 1_555 1_555
Zr3B O11B 1_555 1_555
C1B C3B 1_555 1_555
C2B H1B 1_555 1_555
C3B C2B 1_555 1_555
C4B C3B 1_555 1_555
H2B C4B 1_555 1_555
C5B C4B 1_555 1_555
H3B C5B 1_555 1_555
C6B C5B 1_555 1_555
C7B C2B 1_555 1_555
H4B C7B 1_555 1_555
C8B C6B 1_555 1_555
C9B C16B 1_555 1_555
C10B C18B 1_555 1_555
C11B H5B 1_555 1_555
C12B C11B 1_555 1_555
H6B C12B 1_555 1_555
C13B C12B 1_555 1_555
C14B C13B 1_555 1_555
H7B C14B 1_555 1_555
C15B C14B 1_555 1_555
H8B C15B 1_555 1_555
C16B C11B 1_555 1_555
C17B C13B 1_555 1_555
C18B C19B 1_555 1_555
C19B H9B 1_555 1_555
C20B C19B 1_555 1_555
H10B C20B 1_555 1_555
C21B C20B 1_555 1_555
C22B C21B 1_555 1_555
H11B C22B 1_555 1_555
C23B C18B 1_555 1_555
H12B C23B 1_555 1_555
C24B C21B 1_555 1_555
N1B C8B 1_555 1_555
N2B C9B 1_555 1_555
N3B C8B 1_555 1_555
O1B C1B 1_555 1_555
O2B C1B 1_555 1_555
O3B C17B 1_555 1_555
O4B Zr1 1_555 1_555
O5B C24B 1_555 1_555
O6B C24B 1_555 1_555
O9B Zr1B 1_555 1_555
O10B Zr1B 1_555 1_555
O11B Zr2B 1_555 1_555
O12B Zr1B 1_555 1_555
O13B Zr2B 1_555 1_555
O14B Zr2B 1_555 1_555
O15B Zr3B 1_555 1_555
Zr1C O4 1_555 1_555
Zr1D O9 1_555 1_555
Zr1O O9B 1_555 1_555
Zr2D O2 1_555 1_555
Zr2E O6 1_555 1_555
Zr2N O6B 1_555 1_555
Zr2O O2B 1_555 1_555
Zr3D O10 1_555 1_555
Zr3E O5 1_555 1_555
Zr3I O16D 1_555 1_555
Zr3M O16 1_555 1_555
Zr3N O3 1_555 1_555
Zr3O O10B 1_555 1_555
O2D Zr2 1_555 1_555
O2O Zr2B 1_555 1_555
O3F Zr3 1_555 1_555
O3L Zr3B 1_555 1_555
O4A Zr1B 1_555 1_555
O5E Zr3 1_555 1_555
O5N Zr3B 1_555 1_555
O6E Zr2 1_555 1_555
O6N Zr2B 1_555 1_555
O7B Zr1B 1_555 1_555
O8B Zr3B 1_555 1_555
O9D Zr1 1_555 1_555
O9O Zr1B 1_555 1_555
O10D Zr3 1_555 1_555
O10O Zr3B 1_555 1_555
O11D Zr1 1_555 1_555
O11O Zr1B 1_555 1_555
O15D Zr2 1_555 1_555
O15O Zr2B 1_555 1_555
O16F Zr3B 1_555 1_555
O16M Zr3 1_555 1_555
Zr2 O10 1_555 1_555
Zr3 O11 1_555 1_555
Zr3 O15D 1_555 1_555
C6 C7 1_555 1_555
C9 N1 1_555 1_555
C10 N2 1_555 1_555
C10 N3 1_555 1_555
C15 C16 1_555 1_555
C22 C23 1_555 1_555
C25 O7 1_555 1_555
O11 Zr1D 1_555 1_555
O15 Zr2D 1_555 1_555
O15 Zr3D 1_555 1_555
C36 C37 1_555 1_555
C39 C40 1_555 1_555
O7D Zr1D 1_555 1_555
O8D Zr3D 1_555 1_555
C29D C30D 1_555 1_555
N4D C33D 1_555 1_555
C36D C37D 1_555 1_555
C39D C40D 1_555 1_555
Zr2B O10B 1_555 1_555
Zr3B O15O 1_555 1_555
C6B C7B 1_555 1_555
C9B N1B 1_555 1_555
C10B N2B 1_555 1_555
C10B N3B 1_555 1_555
C15B C16B 1_555 1_555
C17B O4B 1_555 1_555
C22B C23B 1_555 1_555
O3B Zr3D 1_555 1_555
O5B Zr3N 1_555 1_555
O11B Zr1O 1_555 1_555
O15B Zr2O 1_555 1_555
O15B Zr3O 1_555 1_555
Zr1D O9D 1_555 1_555
Zr1D O10D 1_555 1_555
Zr1O O9O 1_555 1_555
Zr1O O10O 1_555 1_555
Zr2D O9D 1_555 1_555
Zr2D O10D 1_555 1_555
Zr2D O11D 1_555 1_555
Zr2O O9O 1_555 1_555
Zr2O O10O 1_555 1_555
Zr2O O11O 1_555 1_555
Zr3D O11D 1_555 1_555
Zr3D O15D 1_555 1_555
Zr3O O11O 1_555 1_555
Zr3O O15O 1_555 1_555

#END
