
#######################################################################
#
#                 Cambridge Crystallographic Data Centre
#                                CCDC 
#
#######################################################################
#
# If this CIF has been generated from an entry in the Cambridge 
# Structural Database, then it will include bibliographic, chemical, 
# crystal, experimental, refinement or atomic coordinate data resulting 
# from the CCDC's data processing and validation procedures.
#
#######################################################################

data_GATQIE
_chemical_formula_moiety         '(C57 H50 N6 O33 Zr6)n'
_symmetry_cell_setting           tetragonal
_symmetry_space_group_name_H-M   'I -4 2 d'
_symmetry_Int_Tables_number      122
_space_group_name_Hall           'I -4 2bw'
loop_
_symmetry_equiv_pos_site_id
_symmetry_equiv_pos_as_xyz
1 x,y,z
2 -x,-y,z
3 y,-x,-z
4 -y,x,-z
5 1/2-x,y,3/4-z
6 1/2+x,-y,3/4-z
7 1/2-y,-x,3/4+z
8 1/2+y,x,3/4+z
9 1/2+x,1/2+y,1/2+z
10 1/2-x,1/2-y,1/2+z
11 1/2+y,1/2-x,1/2-z
12 1/2-y,1/2+x,1/2-z
13 -x,1/2+y,1/4-z
14 x,1/2-y,1/4-z
15 -y,1/2-x,1/4+z
16 y,1/2+x,1/4+z
_cell_length_a                   38.8511(3)
_cell_length_b                   38.8511(3)
_cell_length_c                   18.7521(8)
_cell_angle_alpha                90
_cell_angle_beta                 90
_cell_angle_gamma                90
_cell_volume                     28304.6
loop_
_atom_site_label
_atom_site_type_symbol
_atom_site_fract_x
_atom_site_fract_y
_atom_site_fract_z
_atom_site_U_iso_or_equiv
_atom_site_thermal_displace_type
O17 O 0.1399(4) 0.9911(5) 0.7096(12) 0.3503 Uani
H16 H 0.150661 0.972691 0.707318 0.5250 Uiso
H17 H 0.154091 1.006351 0.709538 0.5250 Uiso
Zr1 Zr -0.00994(3) 0.81077(2) 0.08577(6) 0.0822 Uani
Zr2 Zr -0.05510(2) 0.73612(2) 0.03495(7) 0.0778 Uani
Zr3 Zr 0.03524(2) 0.73631(2) 0.03584(7) 0.0856 Uani
C1 C 0.0471(3) 0.8436(3) 0.1902(9) 0.0943 Uani
C2 C 0.0634(4) 0.8761(3) 0.2214(9) 0.1177 Uani
C3 C 0.0854(4) 0.8756(3) 0.2787(10) 0.1307 Uani
H1 H 0.091258 0.854647 0.299416 0.1570 Uiso
C4 C 0.0988(5) 0.9050(3) 0.3057(11) 0.1727 Uani
H2 H 0.111852 0.903984 0.347213 0.2050 Uiso
C5 C 0.0936(4) 0.9356(3) 0.2738(9) 0.1237 Uani
C6 C 0.0727(4) 0.9374(4) 0.2115(10) 0.1343 Uani
H3 H 0.069858 0.958041 0.186985 0.1610 Uiso
C7 C 0.0564(4) 0.9071(3) 0.1884(9) 0.1297 Uani
H4 H 0.040916 0.907929 0.150678 0.1560 Uiso
C8 C 0.0647(3) 1.1538(3) 0.1912(8) 0.0723 Uani
C9 C 0.0775(3) 1.1222(3) 0.2171(9) 0.1003 Uani
C10 C 0.0686(4) 1.0909(4) 0.1881(9) 0.1293 Uani
H5 H 0.055521 1.090277 0.146590 0.1550 Uiso
C11 C 0.0789(4) 1.0602(3) 0.2203(10) 0.1277 Uani
H6 H 0.068505 1.039681 0.206184 0.1530 Uiso
C12 C 0.1019(4) 1.0593(3) 0.2683(9) 0.1167 Uani
C13 C 0.1123(4) 1.0900(3) 0.2980(10) 0.1447 Uani
H7 H 0.127938 1.089767 0.335441 0.1740 Uiso
C14 C 0.1003(4) 1.1202(3) 0.2741(10) 0.1200 Uani
H8 H 0.107467 1.140392 0.296181 0.1440 Uiso
C15 C 0.2119(3) 0.9903(3) 0.6524(8) 0.0820 Uani
C16 C 0.1955(3) 0.9915(3) 0.5806(8) 0.0953 Uani
C17 C 0.1851(4) 0.9604(3) 0.5457(10) 0.1187 Uani
H9 H 0.190078 0.939141 0.566219 0.1430 Uiso
C18 C 0.1685(5) 0.9619(3) 0.4845(9) 0.1380 Uani
H10 H 0.161894 0.941460 0.462828 0.1660 Uiso
C19 C 0.1603(4) 0.9938(3) 0.4499(9) 0.1237 Uani
C20 C 0.1697(5) 1.0231(3) 0.4771(13) 0.1623 Uani
H11 H 0.165785 1.043795 0.453716 0.1960 Uiso
C21 C 0.1871(5) 1.0217(3) 0.5473(10) 0.1400 Uani
H12 H 0.192682 1.042309 0.569712 0.1680 Uiso
C22 C 0.1394(5) 0.9947(3) 0.3835(9) 0.1257 Uani
C23 C 0.1117(4) 1.0259(3) 0.3067(10) 0.1227 Uani
C24 C 0.1080(4) 0.9672(3) 0.2972(10) 0.1187 Uani
C25 C 0.1064(4) 0.750000 0.125000 0.1370 Uani
C26 C 0.1437(4) 0.750000 0.125000 0.1463 Uani
C27 C -0.1191(3) 0.750000 0.125000 0.2080 Uani
C28 C -0.15790(4) 0.750000 0.125000 0.2077 Uani
C29 C -0.17588(4) 0.74210(17) 0.06295(9) 0.2070 Uani
H13 H -0.163943 0.737343 0.021132 0.2480 Uiso
C30 C -0.21173(4) 0.74210(17) 0.06295(9) 0.2070 Uani
H14 H -0.223680 0.737363 0.021132 0.2490 Uiso
C31 C -0.22971(4) 0.750000 0.125000 0.2070 Uani
H15 H -0.253639 0.750000 0.125000 0.2480 Uiso
N1 N 0.1272(4) 0.9645(2) 0.3595(8) 0.1360 Uani
N2 N 0.0989(3) 0.9968(2) 0.2726(7) 0.1350 Uani
N3 N 0.1318(3) 1.0261(2) 0.3600(7) 0.1093 Uani
O1 O 0.0261(2) 0.84750(19) 0.1398(6) 0.1117 Uani
O2 O 0.0548(2) 0.81698(17) 0.2246(6) 0.1043 Uani
O3 O 0.04461(18) 1.15271(16) 0.1391(5) 0.0813 Uani
O4 O 0.07355(18) 1.18210(17) 0.2232(5) 0.0853 Uani
O5 O 0.2191(2) 1.01902(18) 0.6772(6) 0.0977 Uani
O6 O 0.2187(2) 0.96137(19) 0.6791(5) 0.0930 Uani
O7 O -0.00962(19) 0.76754(19) 0.0159(6) 0.1213 Uani
O8 O -0.00961(18) 0.7073(2) 0.0550(5) 0.1120 Uani
O9 O 0.0354(3) 0.7813(2) 0.1011(6) 0.1267 Uani
O10 O -0.0547(2) 0.77968(18) 0.1040(5) 0.0980 Uani
O11 O 0.0900(2) 0.7390(3) 0.0607(4) 0.1310 Uani
O12 O -0.11104(18) 0.7380(2) 0.0536(6) 0.1207 Uani
O13 O 0.0236(3) 0.8335(3) -0.0022(6) 0.1477 Uani
O14 O -0.0429(3) 0.8320(2) -0.0020(6) 0.1363 Uani
O15 O -0.0771(2) 0.7733(3) -0.0401(7) 0.1567 Uani
O16 O 0.0591(2) 0.7719(3) -0.0440(6) 0.1387 Uani
O11M O 0.0900(2) 0.7610(3) 0.1893(4) 0.1310 Uani
C29M C -0.17588(4) 0.75790(17) 0.18705(9) 0.2070 Uani
H13M H -0.163943 0.762657 0.228868 0.2480 Uiso
C30M C -0.21173(4) 0.75790(17) 0.18705(9) 0.2070 Uani
H14M H -0.223680 0.762637 0.228868 0.2490 Uiso
O12M O -0.11104(18) 0.7620(2) 0.1964(6) 0.1207 Uani
Zr1A Zr 0.00994(3) 1.18923(2) 0.08577(6) 0.0822 Uani
Zr2A Zr 0.05510(2) 1.26388(2) 0.03495(7) 0.0778 Uani
Zr3A Zr -0.03524(2) 1.26369(2) 0.03584(7) 0.0856 Uani
C1A C -0.0471(3) 1.1564(3) 0.1902(9) 0.0943 Uani
C2A C -0.0634(4) 1.1239(3) 0.2214(9) 0.1177 Uani
C3A C -0.0854(4) 1.1244(3) 0.2787(10) 0.1307 Uani
H1A H -0.091258 1.145353 0.299416 0.1570 Uiso
C4A C -0.0988(5) 1.0950(3) 0.3057(11) 0.1727 Uani
H2A H -0.111852 1.096016 0.347213 0.2050 Uiso
C5A C -0.0936(4) 1.0644(3) 0.2738(9) 0.1237 Uani
C6A C -0.0727(4) 1.0626(4) 0.2115(10) 0.1343 Uani
H3A H -0.069858 1.041959 0.186985 0.1610 Uiso
C7A C -0.0564(4) 1.0929(3) 0.1884(9) 0.1297 Uani
H4A H -0.040916 1.092071 0.150678 0.1560 Uiso
C8A C -0.0647(3) 0.8462(3) 0.1912(8) 0.0723 Uani
C9A C -0.0775(3) 0.8778(3) 0.2171(9) 0.1003 Uani
C10A C -0.0686(4) 0.9091(4) 0.1881(9) 0.1293 Uani
H5A H -0.055521 0.909723 0.146590 0.1550 Uiso
C11A C -0.0789(4) 0.9398(3) 0.2203(10) 0.1277 Uani
H6A H -0.068505 0.960319 0.206184 0.1530 Uiso
C12A C -0.1019(4) 0.9407(3) 0.2683(9) 0.1167 Uani
C13A C -0.1123(4) 0.9100(3) 0.2980(10) 0.1447 Uani
H7A H -0.127938 0.910233 0.335441 0.1740 Uiso
C14A C -0.1003(4) 0.8798(3) 0.2741(10) 0.1200 Uani
H8A H -0.107467 0.859608 0.296181 0.1440 Uiso
C15A C -0.2119(3) 1.0097(3) 0.6524(8) 0.0820 Uani
C16A C -0.1955(3) 1.0085(3) 0.5806(8) 0.0953 Uani
C17A C -0.1851(4) 1.0396(3) 0.5457(10) 0.1187 Uani
H9A H -0.190078 1.060859 0.566219 0.1430 Uiso
C18A C -0.1685(5) 1.0381(3) 0.4845(9) 0.1380 Uani
H10A H -0.161894 1.058540 0.462828 0.1660 Uiso
C19A C -0.1603(4) 1.0062(3) 0.4499(9) 0.1237 Uani
C20A C -0.1697(5) 0.9769(3) 0.4771(13) 0.1623 Uani
H11A H -0.165785 0.956205 0.453716 0.1960 Uiso
C21A C -0.1871(5) 0.9783(3) 0.5473(10) 0.1400 Uani
H12A H -0.192682 0.957691 0.569712 0.1680 Uiso
C22A C -0.1394(5) 1.0053(3) 0.3835(9) 0.1257 Uani
C23A C -0.1117(4) 0.9741(3) 0.3067(10) 0.1227 Uani
C24A C -0.1080(4) 1.0328(3) 0.2972(10) 0.1187 Uani
N1A N -0.1272(4) 1.0355(2) 0.3595(8) 0.1360 Uani
N2A N -0.0989(3) 1.0032(2) 0.2726(7) 0.1350 Uani
N3A N -0.1318(3) 0.9739(2) 0.3600(7) 0.1093 Uani
O1A O -0.0261(2) 1.15250(19) 0.1398(6) 0.1117 Uani
O2A O -0.0548(2) 1.18302(17) 0.2246(6) 0.1043 Uani
O3A O -0.04461(18) 0.84729(16) 0.1391(5) 0.0813 Uani
O4A O -0.07355(18) 0.81790(17) 0.2232(5) 0.0853 Uani
O5A O -0.2191(2) 0.98098(18) 0.6772(6) 0.0977 Uani
O6A O -0.2187(2) 1.03863(19) 0.6791(5) 0.0930 Uani
O7A O 0.00962(19) 1.23246(19) 0.0159(6) 0.1213 Uani
O8A O 0.00961(18) 1.2927(2) 0.0550(5) 0.1120 Uani
O9A O -0.0354(3) 1.2187(2) 0.1011(6) 0.1267 Uani
O10A O 0.0547(2) 1.22032(18) 0.1040(5) 0.0980 Uani
O13A O -0.0236(3) 1.1665(3) -0.0022(6) 0.1477 Uani
O14A O 0.0429(3) 1.1680(2) -0.0020(6) 0.1363 Uani
O15A O 0.0771(2) 1.2267(3) -0.0401(7) 0.1567 Uani
O16A O -0.0591(2) 1.2281(3) -0.0440(6) 0.1387 Uani
Zr1L Zr 0.00994(3) 1.31077(2) 0.16423(6) 0.0822 Uani
Zr1M Zr -0.00994(3) 0.68923(2) 0.16423(6) 0.0822 Uani
Zr2F Zr -0.23612(2) 1.05510(2) 0.78495(7) 0.0778 Uani
Zr2G Zr 0.23612(2) 0.94490(2) 0.78495(7) 0.0778 Uani
Zr2L Zr 0.05510(2) 1.23612(2) 0.21505(7) 0.0778 Uani
Zr2M Zr -0.05510(2) 0.76388(2) 0.21505(7) 0.0778 Uani
Zr3F Zr -0.23631(2) 0.96476(2) 0.78584(7) 0.0856 Uani
Zr3G Zr 0.23631(2) 1.03524(2) 0.78584(7) 0.0856 Uani
Zr3L Zr -0.03524(2) 1.23631(2) 0.21416(7) 0.0856 Uani
Zr3M Zr 0.03524(2) 0.76369(2) 0.21416(7) 0.0856 Uani
O2L O -0.0548(2) 1.31698(17) 0.0254(6) 0.1043 Uani
O2M O 0.0548(2) 0.68302(17) 0.0254(6) 0.1043 Uani
O4L O -0.07355(18) 0.68210(17) 0.0268(5) 0.0853 Uani
O4M O 0.07355(18) 1.31790(17) 0.0268(5) 0.0853 Uani
O5N O -0.01902(18) 1.2809(2) -0.0728(6) 0.0977 Uani
O5O O 0.01902(18) 0.7191(2) -0.0728(6) 0.0977 Uani
O6N O 0.03863(19) 1.2813(2) -0.0709(5) 0.0930 Uani
O6O O -0.03863(19) 0.7187(2) -0.0709(5) 0.0930 Uani
O8L O 0.00961(18) 1.2073(2) 0.1950(5) 0.1120 Uani
O8M O -0.00961(18) 0.7927(2) 0.1950(5) 0.1120 Uani
O9L O -0.0354(3) 1.2813(2) 0.1489(6) 0.1267 Uani
O9M O 0.0354(3) 0.7187(2) 0.1489(6) 0.1267 Uani
O10L O 0.0547(2) 1.27968(18) 0.1460(5) 0.0980 Uani
O10M O -0.0547(2) 0.72032(18) 0.1460(5) 0.0980 Uani
O11A O -0.0900(2) 1.2610(3) 0.0607(4) 0.1310 Uani
O12A O 0.11104(18) 1.2620(2) 0.0536(6) 0.1207 Uani
loop_
_atom_site_aniso_label
_atom_site_aniso_U_11
_atom_site_aniso_U_22
_atom_site_aniso_U_33
_atom_site_aniso_U_23
_atom_site_aniso_U_13
_atom_site_aniso_U_12
O17 0.161(14) 0.36(3) 0.53(3) 0.17(3) -0.066(19) 0.029(18)
Zr1 0.0574(5) 0.0443(5) 0.1449(10) -0.0092(6) 0.0008(7) 0.0002(5)
Zr2 0.0486(5) 0.0501(5) 0.1346(10) -0.0163(6) 0.0070(6) 0.0006(4)
Zr3 0.0499(5) 0.0494(5) 0.1575(12) -0.0134(7) 0.0102(6) 0.0002(4)
C1 0.062(6) 0.063(7) 0.158(11) -0.017(7) -0.017(7) -0.024(6)
C2 0.136(10) 0.056(6) 0.161(11) -0.024(8) -0.031(9) -0.016(7)
C3 0.137(10) 0.061(7) 0.194(12) 0.005(8) -0.071(9) 0.005(7)
C4 0.22(2) 0.048(7) 0.25(2) 0.021(11) -0.144(18) -0.025(10)
C5 0.160(14) 0.068(8) 0.143(14) -0.006(9) -0.081(12) -0.020(9)
C6 0.147(10) 0.077(8) 0.179(11) -0.006(9) -0.050(9) -0.017(8)
C7 0.143(10) 0.065(7) 0.181(12) -0.014(8) -0.046(9) -0.016(7)
C8 0.057(6) 0.051(6) 0.109(11) 0.019(7) -0.005(7) -0.002(5)
C9 0.095(9) 0.055(7) 0.151(14) -0.009(9) -0.030(10) 0.012(6)
C10 0.139(10) 0.079(8) 0.170(11) 0.001(8) -0.059(9) 0.016(8)
C11 0.152(14) 0.054(7) 0.177(17) 0.006(10) -0.064(13) -0.008(8)
C12 0.144(14) 0.064(8) 0.142(15) 0.001(9) -0.059(12) 0.017(9)
C13 0.170(16) 0.052(7) 0.212(19) 0.009(10) -0.096(14) 0.000(9)
C14 0.135(13) 0.044(6) 0.181(17) -0.001(9) -0.036(12) -0.005(7)
C15 0.069(7) 0.056(7) 0.121(11) 0.004(9) -0.022(7) -0.010(6)
C16 0.070(7) 0.053(6) 0.163(13) 0.016(9) -0.019(8) -0.003(6)
C17 0.140(13) 0.070(8) 0.146(16) -0.001(10) -0.037(12) -0.010(9)
C18 0.213(19) 0.049(7) 0.152(16) -0.002(9) -0.103(14) -0.017(9)
C19 0.151(14) 0.042(7) 0.178(15) 0.003(9) -0.041(12) -0.006(8)
C20 0.173(17) 0.054(7) 0.26(2) -0.004(12) -0.113(17) -0.021(9)
C21 0.198(17) 0.043(6) 0.179(18) 0.012(9) -0.094(15) -0.038(9)
C22 0.171(15) 0.046(7) 0.160(14) -0.006(9) -0.077(12) -0.006(8)
C23 0.152(10) 0.039(5) 0.177(12) 0.007(7) -0.050(9) -0.018(7)
C24 0.132(12) 0.028(5) 0.196(17) 0.005(8) -0.064(12) -0.013(6)
C25 0.137(4) 0.137(4) 0.137(4) 0.0001(13) 0.000 0.000
C26 0.144(5) 0.147(6) 0.148(5) 0.002(3) 0.000 0.000
C27 0.207(6) 0.208(6) 0.209(6) 0.000(2) 0.000 0.000
C28 0.207(6) 0.208(6) 0.208(6) -0.0001(19) 0.000 0.000
C29 0.207(5) 0.207(6) 0.207(6) -0.0001(18) 0.0003(14) -0.0002(17)
C30 0.207(5) 0.207(6) 0.207(6) 0.0001(19) -0.0001(15) 0.0002(17)
C31 0.207(6) 0.207(6) 0.207(6) 0.000(2) 0.000 0.000
N1 0.190(13) 0.049(6) 0.169(13) 0.028(7) -0.089(11) -0.017(7)
N2 0.143(10) 0.037(5) 0.225(13) 0.003(7) -0.085(10) -0.005(5)
N3 0.153(11) 0.038(5) 0.137(11) 0.014(6) -0.067(9) -0.003(6)
O1 0.082(5) 0.049(4) 0.204(11) -0.019(6) -0.032(7) -0.014(4)
O2 0.077(5) 0.036(4) 0.200(10) -0.009(5) -0.021(6) 0.004(3)
O3 0.065(4) 0.040(3) 0.139(8) 0.008(4) -0.009(5) 0.014(3)
O4 0.063(4) 0.056(4) 0.137(8) -0.003(5) 0.004(5) 0.001(3)
O5 0.075(5) 0.055(5) 0.163(9) 0.016(5) -0.037(6) 0.002(4)
O6 0.089(5) 0.061(5) 0.129(8) -0.009(5) -0.023(5) 0.002(4)
O7 0.061(4) 0.073(4) 0.230(8) -0.051(6) 0.021(6) 0.013(4)
O8 0.037(4) 0.161(8) 0.138(7) 0.059(6) 0.003(5) -0.010(5)
O9 0.155(9) 0.062(5) 0.163(10) -0.011(6) -0.001(8) 0.028(6)
O10 0.136(7) 0.059(4) 0.099(7) -0.024(5) -0.003(6) -0.039(5)
O11 0.131(3) 0.130(3) 0.132(3) -0.0005(13) 0.0008(13) 0.0004(13)
O12 0.059(4) 0.101(6) 0.202(10) -0.019(7) 0.020(6) -0.045(4)
O13 0.136(9) 0.130(8) 0.177(11) 0.055(8) -0.026(7) -0.058(7)
O14 0.174(11) 0.095(6) 0.140(10) 0.007(6) -0.022(7) 0.072(7)
O15 0.091(6) 0.193(11) 0.186(11) 0.056(9) 0.034(7) 0.089(7)
O16 0.092(7) 0.182(11) 0.142(9) 0.001(8) 0.019(7) -0.057(7)
O11M 0.131 0.13 0.132 -0.0005 -0.0008 -0.0004
C29M 0.207 0.207 0.207 -0.0001 -0.0003 0.0002
C30M 0.207 0.207 0.207 0.0001 0.0001 -0.0002
O12M 0.059 0.101 0.202 -0.019 -0.02 0.045
Zr1A 0.0574 0.0443 0.1449 0.0092 -0.0008 0.0002
Zr2A 0.0486 0.0501 0.1346 0.0163 -0.007 0.0006
Zr3A 0.0499 0.0494 0.1575 0.0134 -0.0102 0.0002
C1A 0.062 0.063 0.158 0.017 0.017 -0.024
C2A 0.136 0.056 0.161 0.024 0.031 -0.016
C3A 0.137 0.061 0.194 -0.005 0.071 0.005
C4A 0.22 0.048 0.25 -0.021 0.144 -0.025
C5A 0.16 0.068 0.143 0.006 0.081 -0.02
C6A 0.147 0.077 0.179 0.006 0.05 -0.017
C7A 0.143 0.065 0.181 0.014 0.046 -0.016
C8A 0.057 0.051 0.109 -0.019 0.005 -0.002
C9A 0.095 0.055 0.151 0.009 0.03 0.012
C10A 0.139 0.079 0.17 -0.001 0.059 0.016
C11A 0.152 0.054 0.177 -0.006 0.064 -0.008
C12A 0.144 0.064 0.142 -0.001 0.059 0.017
C13A 0.17 0.052 0.212 -0.009 0.096 0
C14A 0.135 0.044 0.181 0.001 0.036 -0.005
C15A 0.069 0.056 0.121 -0.004 0.022 -0.01
C16A 0.07 0.053 0.163 -0.016 0.019 -0.003
C17A 0.14 0.07 0.146 0.001 0.037 -0.01
C18A 0.213 0.049 0.152 0.002 0.103 -0.017
C19A 0.151 0.042 0.178 -0.003 0.041 -0.006
C20A 0.173 0.054 0.26 0.004 0.113 -0.021
C21A 0.198 0.043 0.179 -0.012 0.094 -0.038
C22A 0.171 0.046 0.16 0.006 0.077 -0.006
C23A 0.152 0.039 0.177 -0.007 0.05 -0.018
C24A 0.132 0.028 0.196 -0.005 0.064 -0.013
N1A 0.19 0.049 0.169 -0.028 0.089 -0.017
N2A 0.143 0.037 0.225 -0.003 0.085 -0.005
N3A 0.153 0.038 0.137 -0.014 0.067 -0.003
O1A 0.082 0.049 0.204 0.019 0.032 -0.014
O2A 0.077 0.036 0.2 0.009 0.021 0.004
O3A 0.065 0.04 0.139 -0.008 0.009 0.014
O4A 0.063 0.056 0.137 0.003 -0.004 0.001
O5A 0.075 0.055 0.163 -0.016 0.037 0.002
O6A 0.089 0.061 0.129 0.009 0.023 0.002
O7A 0.061 0.073 0.23 0.051 -0.021 0.013
O8A 0.037 0.161 0.138 -0.059 -0.003 -0.01
O9A 0.155 0.062 0.163 0.011 0.001 0.028
O10A 0.136 0.059 0.099 0.024 0.003 -0.039
O13A 0.136 0.13 0.177 -0.055 0.026 -0.058
O14A 0.174 0.095 0.14 -0.007 0.022 0.072
O15A 0.091 0.193 0.186 -0.056 -0.034 0.089
O16A 0.092 0.182 0.142 -0.001 -0.019 -0.057
Zr1L 0.0574 0.0443 0.1449 0.0092 0.0008 -0.0002
Zr1M 0.0574 0.0443 0.1449 -0.0092 -0.0008 -0.0002
Zr2F 0.0501 0.0486 0.1346 -0.007 0.0163 0.0006
Zr2G 0.0501 0.0486 0.1346 0.007 -0.0163 0.0006
Zr2L 0.0486 0.0501 0.1346 0.0163 0.007 -0.0006
Zr2M 0.0486 0.0501 0.1346 -0.0163 -0.007 -0.0006
Zr3F 0.0494 0.0499 0.1575 -0.0102 0.0134 0.0002
Zr3G 0.0494 0.0499 0.1575 0.0102 -0.0134 0.0002
Zr3L 0.0499 0.0494 0.1575 0.0134 0.0102 -0.0002
Zr3M 0.0499 0.0494 0.1575 -0.0134 -0.0102 -0.0002
O2L 0.077 0.036 0.2 0.009 -0.021 -0.004
O2M 0.077 0.036 0.2 -0.009 0.021 -0.004
O4L 0.063 0.056 0.137 0.003 0.004 -0.001
O4M 0.063 0.056 0.137 -0.003 -0.004 -0.001
O5N 0.055 0.075 0.163 0.037 -0.016 0.002
O5O 0.055 0.075 0.163 -0.037 0.016 0.002
O6N 0.061 0.089 0.129 0.023 0.009 0.002
O6O 0.061 0.089 0.129 -0.023 -0.009 0.002
O8L 0.037 0.161 0.138 -0.059 0.003 0.01
O8M 0.037 0.161 0.138 0.059 -0.003 0.01
O9L 0.155 0.062 0.163 0.011 -0.001 -0.028
O9M 0.155 0.062 0.163 -0.011 0.001 -0.028
O10L 0.136 0.059 0.099 0.024 -0.003 0.039
O10M 0.136 0.059 0.099 -0.024 0.003 0.039
O11A 0.131 0.13 0.132 0.0005 -0.0008 0.0004
O12A 0.059 0.101 0.202 0.019 -0.02 -0.045
loop_
_geom_bond_atom_site_label_1
_geom_bond_atom_site_label_2
_geom_bond_site_symmetry_1
_geom_bond_site_symmetry_2
Zr1 O1 1_555 1_555
Zr2 O7 1_555 1_555
Zr3 O7 1_555 1_555
C1 C2 1_555 1_555
C2 C3 1_555 1_555
C3 H1 1_555 1_555
C4 C3 1_555 1_555
H2 C4 1_555 1_555
C5 C4 1_555 1_555
C6 C5 1_555 1_555
H3 C6 1_555 1_555
C7 C2 1_555 1_555
H4 C7 1_555 1_555
C8 C9 1_555 1_555
C9 C10 1_555 1_555
C10 H5 1_555 1_555
C11 C10 1_555 1_555
H6 C11 1_555 1_555
C12 C11 1_555 1_555
C13 C12 1_555 1_555
H7 C13 1_555 1_555
C14 C9 1_555 1_555
H8 C14 1_555 1_555
C15 C16 1_555 1_555
C16 C17 1_555 1_555
C17 H9 1_555 1_555
C18 C17 1_555 1_555
H10 C18 1_555 1_555
C19 C18 1_555 1_555
C20 C19 1_555 1_555
H11 C20 1_555 1_555
C21 C16 1_555 1_555
H12 C21 1_555 1_555
C22 C19 1_555 1_555
C23 C12 1_555 1_555
C24 C5 1_555 1_555
C25 C26 1_555 1_555
C27 C28 1_555 1_555
C28 C29 1_555 1_555
C29 H13 1_555 1_555
C30 C29 1_555 1_555
H14 C30 1_555 1_555
C31 C30 1_555 1_555
H15 C31 1_555 1_555
N1 C22 1_555 1_555
N2 C23 1_555 1_555
N3 C22 1_555 1_555
O1 C1 1_555 1_555
O2 C1 1_555 1_555
O3 C8 1_555 1_555
O4 C8 1_555 1_555
O5 C15 1_555 1_555
O6 C15 1_555 1_555
O7 Zr1 1_555 1_555
O8 Zr2 1_555 1_555
O9 Zr1 1_555 1_555
O10 Zr1 1_555 1_555
O11 Zr3 1_555 1_555
O12 Zr2 1_555 1_555
O13 Zr1 1_555 1_555
O14 Zr1 1_555 1_555
O15 Zr2 1_555 1_555
O16 Zr3 1_555 1_555
O17 H16 1_555 1_555
H17 O17 1_555 1_555
O11M C25 1_555 1_555
C29M C28 1_555 1_555
H13M C29M 1_555 1_555
C30M C31 1_555 1_555
H14M C30M 1_555 1_555
O12M C27 1_555 1_555
Zr1A O3 1_555 1_555
Zr2A O7A 1_555 1_555
Zr3A O7A 1_555 1_555
C1A C2A 1_555 1_555
C2A C3A 1_555 1_555
C3A H1A 1_555 1_555
C4A C3A 1_555 1_555
H2A C4A 1_555 1_555
C5A C4A 1_555 1_555
C6A C5A 1_555 1_555
H3A C6A 1_555 1_555
C7A C2A 1_555 1_555
H4A C7A 1_555 1_555
C8A C9A 1_555 1_555
C9A C10A 1_555 1_555
C10A H5A 1_555 1_555
C11A C10A 1_555 1_555
H6A C11A 1_555 1_555
C12A C11A 1_555 1_555
C13A C12A 1_555 1_555
H7A C13A 1_555 1_555
C14A C9A 1_555 1_555
H8A C14A 1_555 1_555
C15A C16A 1_555 1_555
C16A C17A 1_555 1_555
C17A H9A 1_555 1_555
C18A C17A 1_555 1_555
H10A C18A 1_555 1_555
C19A C18A 1_555 1_555
C20A C19A 1_555 1_555
H11A C20A 1_555 1_555
C21A C16A 1_555 1_555
H12A C21A 1_555 1_555
C22A C19A 1_555 1_555
C23A C12A 1_555 1_555
C24A C5A 1_555 1_555
N1A C22A 1_555 1_555
N2A C23A 1_555 1_555
N3A C22A 1_555 1_555
O1A Zr1A 1_555 1_555
O2A C1A 1_555 1_555
O3A Zr1 1_555 1_555
O4A C8A 1_555 1_555
O5A C15A 1_555 1_555
O6A C15A 1_555 1_555
O7A Zr1A 1_555 1_555
O8A Zr2A 1_555 1_555
O9A Zr1A 1_555 1_555
O10A Zr1A 1_555 1_555
O13A Zr1A 1_555 1_555
O14A Zr1A 1_555 1_555
O15A Zr2A 1_555 1_555
O16A Zr3A 1_555 1_555
Zr1L O8A 1_555 1_555
Zr1M O8 1_555 1_555
Zr2F O6A 1_555 1_555
Zr2G O6 1_555 1_555
Zr2L O4 1_555 1_555
Zr2M O10 1_555 1_555
Zr3F O5A 1_555 1_555
Zr3G O5 1_555 1_555
Zr3L O2A 1_555 1_555
Zr3M O2 1_555 1_555
O2L Zr3A 1_555 1_555
O2M Zr3 1_555 1_555
O4L Zr2 1_555 1_555
O4M Zr2A 1_555 1_555
O5N Zr3A 1_555 1_555
O5O Zr3 1_555 1_555
O6N Zr2A 1_555 1_555
O6O Zr2 1_555 1_555
O8L Zr1A 1_555 1_555
O8M Zr1 1_555 1_555
O9L Zr3A 1_555 1_555
O9M Zr3 1_555 1_555
O10L Zr2A 1_555 1_555
O10M Zr2 1_555 1_555
O11A Zr3A 1_555 1_555
O12A Zr2A 1_555 1_555
Zr2 O10 1_555 1_555
Zr3 O8 1_555 1_555
Zr3 O9 1_555 1_555
C6 C7 1_555 1_555
C13 C14 1_555 1_555
C20 C21 1_555 1_555
C23 N3 1_555 1_555
C24 N1 1_555 1_555
C24 N2 1_555 1_555
C25 O11 1_555 1_555
C27 O12 1_555 1_555
O9 Zr3M 1_555 1_555
O11M Zr3M 1_555 1_555
C29M C30M 1_555 1_555
O12M Zr2M 1_555 1_555
Zr2A O10A 1_555 1_555
Zr3A O8A 1_555 1_555
Zr3A O9A 1_555 1_555
C1A O1A 1_555 1_555
C6A C7A 1_555 1_555
C8A O3A 1_555 1_555
C13A C14A 1_555 1_555
C20A C21A 1_555 1_555
C23A N3A 1_555 1_555
C24A N1A 1_555 1_555
C24A N2A 1_555 1_555
O4A Zr2M 1_555 1_555
O9A Zr3L 1_555 1_555
O10A Zr2L 1_555 1_555
Zr1L O9L 1_555 1_555
Zr1L O10L 1_555 1_555
Zr1M O9M 1_555 1_555
Zr1M O10M 1_555 1_555
Zr2L O8L 1_555 1_555
Zr2L O10L 1_555 1_555
Zr2M O8M 1_555 1_555
Zr2M O10M 1_555 1_555
Zr3L O8L 1_555 1_555
Zr3L O9L 1_555 1_555
Zr3M O8M 1_555 1_555
Zr3M O9M 1_555 1_555

#END
