
#######################################################################
#
#                 Cambridge Crystallographic Data Centre
#                                CCDC 
#
#######################################################################
#
# If this CIF has been generated from an entry in the Cambridge 
# Structural Database, then it will include bibliographic, chemical, 
# crystal, experimental, refinement or atomic coordinate data resulting 
# from the CCDC's data processing and validation procedures.
#
#######################################################################

data_TAYNEN
_chemical_formula_moiety         '(C42 H48 Cd2 N4 O16)n'
_symmetry_cell_setting           monoclinic
_symmetry_space_group_name_H-M   'C 2/c'
_symmetry_Int_Tables_number      15
_space_group_name_Hall           '-C 2yc'
loop_
_symmetry_equiv_pos_site_id
_symmetry_equiv_pos_as_xyz
1 x,y,z
2 1/2+x,1/2+y,z
3 -x,y,1/2-z
4 1/2-x,1/2+y,1/2-z
5 -x,-y,-z
6 1/2-x,1/2-y,-z
7 x,-y,1/2+z
8 1/2+x,1/2-y,1/2+z
_cell_length_a                   16.6695(11)
_cell_length_b                   17.1742(11)
_cell_length_c                   19.0262(12)
_cell_angle_alpha                90
_cell_angle_beta                 108.0280(10)
_cell_angle_gamma                90
_cell_volume                     5179.51
loop_
_atom_site_label
_atom_site_type_symbol
_atom_site_fract_x
_atom_site_fract_y
_atom_site_fract_z
Cd1 Cd 0.62766(3) 0.60027(3) 0.55640(2)
C1 C 0.6110(4) 0.4867(4) 0.6558(4)
C2 C 0.6081(4) 0.3915(5) 0.9052(4)
C3 C 0.6100(4) 0.4227(4) 0.7073(3)
C4 C 0.6085(4) 0.4383(4) 0.7791(3)
H1 H 0.6082 0.4906 0.7953
C5 C 0.6076(4) 0.3769(4) 0.8270(3)
C6 C 0.6043(4) 0.3003(4) 0.8020(4)
H2 H 0.6001 0.2587 0.8336
C7 C 0.6073(5) 0.2846(4) 0.7316(4)
C8 C 0.6106(4) 0.3450(4) 0.6839(3)
H3 H 0.6132 0.3339 0.6357
C9 C 0.7895(5) 0.4952(5) 0.5576(5)
H4 H 0.7455 0.4603 0.5333
C10 C 0.8704(5) 0.4728(5) 0.5675(6)
H5 H 0.8808 0.4226 0.5513
C11 C 0.9367(5) 0.5200(4) 0.5998(4)
C12 C 1.0286(5) 0.4989(6) 0.6097(5)
H6 H 1.0304 0.4509 0.5813
H7 H 1.0552 0.5413 0.5895
C13 C 1.0778(5) 0.4860(6) 0.6893(6)
H8 H 1.0487 0.4468 0.7108
H9 H 1.0805 0.5353 0.7170
C14 C 1.1695(5) 0.4574(5) 0.6975(6)
H10 H 1.1958 0.4925 0.6697
H11 H 1.2039 0.4588 0.7502
C15 C 1.1676(5) 0.3751(5) 0.6682(5)
C16 C 1.1602(6) 0.3153(6) 0.7071(5)
H12 H 1.1591 0.3237 0.7562
C17 C 1.1536(6) 0.2376(5) 0.6801(4)
H13 H 1.1475 0.1960 0.7110
C18 C 1.1706(5) 0.2857(4) 0.5739(4)
H14 H 1.1777 0.2778 0.5268
C19 C 1.1755(5) 0.3587(4) 0.6006(5)
H15 H 1.1848 0.4004 0.5712
C20 C 0.9161(6) 0.5929(5) 0.6222(7)
H16 H 0.9587 0.6299 0.6445
C21 C 0.8325(6) 0.6094(4) 0.6111(6)
H17 H 0.8195 0.6589 0.6273
N1 N 0.7686(3) 0.5627(3) 0.5799(3)
N2 N 0.6558(4) 0.7220(3) 0.6120(3)
O1 O 0.6119(3) 0.4711(3) 0.5914(2)
O2 O 0.4786(4) 0.6117(4) 0.5256(3)
H18 H 0.4554 0.5841 0.4884
O3 O 0.6117(4) 0.5560(3) 0.6774(3)
O5 O 0.6089(4) 0.5393(4) 0.4264(3)
O7 O 0.6104(4) 0.6636(4) 0.4471(3)
O9 O 0.6047(4) 0.2089(3) 0.7095(3)
H19 H 0.6025 0.1796 0.7442
Cd1A Cd 1.12766(3) 0.10027(3) 0.55640(2)
Cd1F Cd 0.62766(3) 0.39973(3) 1.05640(2)
Cd1F_2 Cd 0.62766(3) 0.39973(3) 0.05640(2)
Cd1A_2 Cd 0.12766(3) 1.10027(3) 0.55640(2)
C1F C 0.6110(4) 0.5133(4) 0.1558(4)
C2F C 0.6081(4) 0.6085(5) 0.4052(4)
C3F C 0.6100(4) 0.5773(4) 0.2073(3)
C4F C 0.6085(4) 0.5617(4) 0.2791(3)
H1F H 0.6082 0.5094 0.2953
C5F C 0.6076(4) 0.6231(4) 0.3270(3)
C6F C 0.6043(4) 0.6997(4) 0.3020(4)
H2F H 0.6001 0.7413 0.3336
C7F C 0.6073(5) 0.7154(4) 0.2316(4)
C8F C 0.6106(4) 0.6550(4) 0.1839(3)
H3F H 0.6132 0.6661 0.1357
C9A C 0.2895(5) 0.9952(5) 0.5576(5)
H4A H 0.2455 0.9603 0.5333
C10A C 0.3704(5) 0.9728(5) 0.5675(6)
H5A H 0.3808 0.9226 0.5513
C11A C 0.4367(5) 1.0200(4) 0.5998(4)
C12A C 0.5286(5) 0.9989(6) 0.6097(5)
H6A H 0.5304 0.9509 0.5813
H7A H 0.5552 1.0413 0.5895
C13A C 0.5778(5) 0.9860(6) 0.6893(6)
H8A H 0.5487 0.9468 0.7108
H9A H 0.5805 1.0353 0.7170
C14A C 0.6695(5) 0.9574(5) 0.6975(6)
H10A H 0.6958 0.9925 0.6697
H11A H 0.7039 0.9588 0.7502
C15A C 0.6676(5) 0.8751(5) 0.6682(5)
C16A C 0.6602(6) 0.8153(6) 0.7071(5)
H12A H 0.6591 0.8237 0.7562
C17A C 0.6536(6) 0.7376(5) 0.6801(4)
H13A H 0.6475 0.6960 0.7110
C18A C 0.6706(5) 0.7857(4) 0.5739(4)
H14A H 0.6777 0.7778 0.5268
C19A C 0.6755(5) 0.8587(4) 0.6006(5)
H15A H 0.6848 0.9004 0.5712
C20A C 0.4161(6) 1.0929(5) 0.6222(7)
H16A H 0.4587 1.1299 0.6445
C21A C 0.3325(6) 1.1094(4) 0.6111(6)
H17A H 0.3195 1.1589 0.6273
N1A N 1.2686(3) 0.0627(3) 0.5799(3)
N1A_2 N 0.2686(3) 1.0627(3) 0.5799(3)
N2A N 1.1558(4) 0.2220(3) 0.6120(3)
O1A O 1.1119(3) -0.0289(3) 0.5914(2)
O1F O 0.6119(3) 0.5289(3) 0.0914(2)
O2A O 0.9786(4) 0.1117(4) 0.5256(3)
H18A H 0.9554 0.0841 0.4884
O3A O 1.1117(4) 0.0560(3) 0.6774(3)
O3F O 0.6117(4) 0.4440(3) 0.1774(3)
O5A O 1.1089(4) 0.0393(4) 0.4264(3)
O5F O 0.6089(4) 0.4607(4) 0.9264(3)
O7A O 1.1104(4) 0.1636(4) 0.4471(3)
O7F O 0.6104(4) 0.3364(4) 0.9471(3)
O9F O 0.6047(4) 0.7911(3) 0.2095(3)
H19F H 0.6025 0.8204 0.2442
O4 O 0.5000 0.6258(6) 0.7500
O6 O 0.6400(18) 0.6091(8) 0.8937(9)
O8 O 0.5487(16) 0.2106(10) 0.5489(9)
O10 O 0.6769(13) 0.1777(12) 0.6027(12)
loop_
_geom_bond_atom_site_label_1
_geom_bond_atom_site_label_2
_geom_bond_site_symmetry_1
_geom_bond_site_symmetry_2
Cd1 N1 1_555 1_555
C1 C3 1_555 1_555
C2 C5 1_555 1_555
C3 C4 1_555 1_555
C4 H1 1_555 1_555
C5 C4 1_555 1_555
C6 C5 1_555 1_555
H2 C6 1_555 1_555
C7 C6 1_555 1_555
C8 C3 1_555 1_555
H3 C8 1_555 1_555
C9 H4 1_555 1_555
C10 C9 1_555 1_555
H5 C10 1_555 1_555
C11 C10 1_555 1_555
C12 C11 1_555 1_555
H6 C12 1_555 1_555
H7 C12 1_555 1_555
C13 C12 1_555 1_555
H8 C13 1_555 1_555
H9 C13 1_555 1_555
C14 C13 1_555 1_555
H10 C14 1_555 1_555
H11 C14 1_555 1_555
C15 C14 1_555 1_555
C16 C15 1_555 1_555
H12 C16 1_555 1_555
C17 C16 1_555 1_555
H13 C17 1_555 1_555
C18 H14 1_555 1_555
C19 C15 1_555 1_555
H15 C19 1_555 1_555
C20 C11 1_555 1_555
H16 C20 1_555 1_555
C21 C20 1_555 1_555
H17 C21 1_555 1_555
N1 C9 1_555 1_555
N2 Cd1 1_555 1_555
O1 Cd1 1_555 1_555
O2 Cd1 1_555 1_555
H18 O2 1_555 1_555
O3 Cd1 1_555 1_555
O5 Cd1 1_555 1_555
O7 Cd1 1_555 1_555
O9 C7 1_555 1_555
H19 O9 1_555 1_555
Cd1A N1A 1_555 1_555
Cd1F O5F 1_555 1_555
Cd1F_2 O1F 1_555 1_555
Cd1A_2 N1A_2 1_555 1_555
C1F C3F 1_555 1_555
C2F O5 1_555 1_555
C3F C4F 1_555 1_555
C4F H1F 1_555 1_555
C5F C2F 1_555 1_555
C6F C5F 1_555 1_555
H2F C6F 1_555 1_555
C7F C6F 1_555 1_555
C8F C3F 1_555 1_555
H3F C8F 1_555 1_555
C9A H4A 1_555 1_555
C10A C9A 1_555 1_555
H5A C10A 1_555 1_555
C11A C10A 1_555 1_555
C12A C11A 1_555 1_555
H6A C12A 1_555 1_555
H7A C12A 1_555 1_555
C13A C12A 1_555 1_555
H8A C13A 1_555 1_555
H9A C13A 1_555 1_555
C14A C13A 1_555 1_555
H10A C14A 1_555 1_555
H11A C14A 1_555 1_555
C15A C14A 1_555 1_555
C16A C15A 1_555 1_555
H12A C16A 1_555 1_555
C17A N2 1_555 1_555
H13A C17A 1_555 1_555
C18A N2 1_555 1_555
H14A C18A 1_555 1_555
C19A C15A 1_555 1_555
H15A C19A 1_555 1_555
C20A C11A 1_555 1_555
H16A C20A 1_555 1_555
C21A C20A 1_555 1_555
H17A C21A 1_555 1_555
N1A_2 C9A 1_555 1_555
N2A C17 1_555 1_555
O1A Cd1A 1_555 1_555
O1F C1F 1_555 1_555
O2A Cd1A 1_555 1_555
H18A O2A 1_555 1_555
O3A Cd1A 1_555 1_555
O3F Cd1F_2 1_555 1_555
O5A Cd1A 1_555 1_555
O5F C2 1_555 1_555
O7A Cd1A 1_555 1_555
O7F C2 1_555 1_555
O9F C7F 1_555 1_555
H19F O9F 1_555 1_555
C1 O1 1_555 1_555
C1 O3 1_555 1_555
C7 C8 1_555 1_555
C18 C19 1_555 1_555
C18 N2A 1_555 1_555
C21 N1 1_555 1_555
O7 C2F 1_555 1_555
Cd1A N2A 1_555 1_555
Cd1F O7F 1_555 1_555
C1F O3F 1_555 1_555
C4F C5F 1_555 1_555
C7F C8F 1_555 1_555
C16A C17A 1_555 1_555
C18A C19A 1_555 1_555
C21A N1A_2 1_555 1_555

#END
