
#######################################################################
#
#                 Cambridge Crystallographic Data Centre
#                                CCDC 
#
#######################################################################
#
# If this CIF has been generated from an entry in the Cambridge 
# Structural Database, then it will include bibliographic, chemical, 
# crystal, experimental, refinement or atomic coordinate data resulting 
# from the CCDC's data processing and validation procedures.
#
#######################################################################

data_LAVMAY
_chemical_formula_moiety         '(C6 H23 N12 O11 P1 Zn3)n'
_symmetry_cell_setting           triclinic
_symmetry_space_group_name_H-M   'P -1'
_symmetry_Int_Tables_number      2
_space_group_name_Hall           '-P 1'
loop_
_symmetry_equiv_pos_site_id
_symmetry_equiv_pos_as_xyz
1 x,y,z
2 -x,-y,-z
_cell_length_a                   9.4277(7)
_cell_length_b                   9.8665(9)
_cell_length_c                   12.8805(12)
_cell_angle_alpha                108.810(6)
_cell_angle_beta                 94.996(6)
_cell_angle_gamma                105.387(5)
_cell_volume                     1073.74
loop_
_atom_site_label
_atom_site_type_symbol
_atom_site_fract_x
_atom_site_fract_y
_atom_site_fract_z
Zn1 Zn 0.27192(9) 0.63836(9) 0.25999(7)
Zn2 Zn -0.12260(9) 0.55882(9) 0.24182(7)
Zn3 Zn 0.10364(9) 1.18954(9) 0.47715(7)
P1 P 0.12851(19) 0.87081(18) 0.36803(14)
O1 O 0.0087(5) 0.7582(5) 0.2663(4)
O2 O 0.2789(5) 0.8377(5) 0.3596(4)
O3 O 0.1520(5) 1.0303(5) 0.3681(4)
O4 O 0.0844(5) 0.8635(5) 0.4778(4)
C1 C 0.1884(7) 0.4064(7) 0.3613(6)
H1 H 0.2886 0.4037 0.3706
C2 C -0.0423(7) 0.3654(7) 0.3679(5)
C3 C 0.1911(8) 0.5082(8) 0.0056(6)
C4 C 0.5736(7) 0.7235(8) 0.4046(5)
C5 C 0.5632(8) 0.5621(8) 0.2468(6)
H2 H 0.5269 0.4903 0.1731
N1 N 0.1424(6) 0.4856(6) 0.3088(4)
N2 N -0.0099(6) 0.4589(6) 0.3134(4)
N3 N 0.0803(6) 0.3301(6) 0.4002(4)
N4 N -0.1749(6) 0.3143(7) 0.3934(5)
H3 H -0.2506 0.3428 0.3736
H4 H -0.1870 0.2519 0.4300
N5 N 0.1842(7) 0.5509(6) -0.0802(5)
C6 C 0.2624(18) 0.7036(14) -0.0379(11)
N6 N 0.243(2) 0.615(2) 0.1042(17)
N7 N 0.300(2) 0.7467(18) 0.0760(13)
N8 N 0.1287(18) 0.3580(15) -0.0098(11)
N9 N 0.7092(6) 0.7056(6) 0.4056(4)
N10 N 0.7011(6) 0.5995(6) 0.3009(5)
N11 N 0.4796(6) 0.6357(6) 0.3065(4)
N12 N 0.5321(6) 0.8118(7) 0.4934(5)
H5 H 0.5963 0.8619 0.5569
H6 H 0.4409 0.8190 0.4875
Zn2A Zn 0.12260(9) 0.44118(9) -0.24182(7)
Zn2_2 Zn 0.87740(9) 0.55882(9) 0.24182(7)
Zn3A Zn -0.10364(9) 0.81046(9) 0.52285(7)
Zn3_2 Zn 0.10364(9) 0.18954(9) 0.47715(7)
Zn3A_2 Zn 0.89636(9) 0.81046(9) 0.52285(7)
O4A O -0.0844(5) 1.1365(5) 0.5222(4)
N3_2 N 0.0803(6) 1.3301(6) 0.4002(4)
N5A N -0.1842(7) 0.4491(6) 0.0802(5)
N9A N 0.2908(6) 1.2944(6) 0.5944(4)
N10_2 N -0.2989(6) 0.5995(6) 0.3009(5)
O5 O 0.5691(13) 0.1999(13) 0.1906(10)
O6 O 0.810(2) 0.904(2) 0.1946(15)
O7 O 0.565(3) 0.983(3) 0.279(2)
O8 O 0.520(3) 0.335(3) 0.356(2)
O9 O 0.754(4) 0.047(4) 0.110(3)
O10 O -0.026(2) 0.111(2) 0.0931(17)
O11 O 0.297(3) 0.208(3) 0.113(2)
loop_
_geom_bond_atom_site_label_1
_geom_bond_atom_site_label_2
_geom_bond_site_symmetry_1
_geom_bond_site_symmetry_2
Zn1 O2 1_555 1_555
Zn2 O1 1_555 1_555
Zn3 O3 1_555 1_555
P1 O1 1_555 1_555
O2 P1 1_555 1_555
O3 P1 1_555 1_555
O4 P1 1_555 1_555
C1 H1 1_555 1_555
C2 N2 1_555 1_555
C3 N5 1_555 1_555
C4 N9 1_555 1_555
C5 H2 1_555 1_555
N1 Zn1 1_555 1_555
N2 Zn2 1_555 1_555
N3 C1 1_555 1_555
N4 C2 1_555 1_555
H3 N4 1_555 1_555
H4 N4 1_555 1_555
N5 C6 1_555 1_555
C6 N7 1_555 1_555
N6 Zn1 1_555 1_555
N7 N6 1_555 1_555
N8 C3 1_555 1_555
N9 N10 1_555 1_555
N10 C5 1_555 1_555
N11 Zn1 1_555 1_555
N12 C4 1_555 1_555
H5 N12 1_555 1_555
H6 N12 1_555 1_555
Zn2A N5 1_555 1_555
Zn2_2 N10 1_555 1_555
Zn3A O4 1_555 1_555
Zn3_2 N3 1_555 1_555
Zn3A_2 N9 1_555 1_555
O4A Zn3 1_555 1_555
N3_2 Zn3 1_555 1_555
N5A Zn2 1_555 1_555
N9A Zn3 1_555 1_555
N10_2 Zn2 1_555 1_555
C1 N1 1_555 1_555
C2 N3 1_555 1_555
C3 N6 1_555 1_555
C4 N11 1_555 1_555
C5 N11 1_555 1_555
N1 N2 1_555 1_555

#END
