
#######################################################################
#
#                 Cambridge Crystallographic Data Centre
#                                CCDC 
#
#######################################################################
#
# If this CIF has been generated from an entry in the Cambridge 
# Structural Database, then it will include bibliographic, chemical, 
# crystal, experimental, refinement or atomic coordinate data resulting 
# from the CCDC's data processing and validation procedures.
#
#######################################################################

data_OLAVOO
_chemical_formula_moiety         '(C48 H34 N4 O10 Zn2)n'
_symmetry_cell_setting           triclinic
_symmetry_space_group_name_H-M   'P -1'
_symmetry_Int_Tables_number      2
_space_group_name_Hall           '-P 1'
loop_
_symmetry_equiv_pos_site_id
_symmetry_equiv_pos_as_xyz
1 x,y,z
2 -x,-y,-z
_cell_length_a                   10.068(7)
_cell_length_b                   13.608(10)
_cell_length_c                   20.223(14)
_cell_angle_alpha                77.414(9)
_cell_angle_beta                 76.358(9)
_cell_angle_gamma                87.703(9)
_cell_volume                     2627.61
loop_
_atom_site_label
_atom_site_type_symbol
_atom_site_fract_x
_atom_site_fract_y
_atom_site_fract_z
Zn1 Zn 0.59902(6) 0.15492(5) 0.34248(3)
Zn2 Zn 0.35869(6) 0.16464(5) 0.20651(3)
C1 C 0.1646(6) 0.1403(4) 0.4177(2)
C2 C 0.0526(6) 0.1384(4) 0.3899(3)
H1 H 0.0652 0.1391 0.3418
C3 C -0.0794(6) 0.1355(5) 0.4321(3)
C4 C -0.0979(6) 0.1337(5) 0.5015(3)
H2 H -0.1878 0.1304 0.5302
C5 C 0.0134(6) 0.1367(5) 0.5305(3)
C6 C 0.1454(6) 0.1382(5) 0.4891(3)
H3 H 0.2221 0.1378 0.5090
C7 C 0.3056(6) 0.1440(4) 0.3742(2)
C8 C -0.2013(6) 0.1363(5) 0.4014(3)
C9 C 0.0964(6) 0.1427(6) 0.6301(3)
H4 H 0.1571 0.2007 0.6039
H5 H 0.1500 0.0802 0.6295
C10 C 0.0395(6) 0.1535(6) 0.7040(3)
C11 C 0.0019(7) 0.0686(6) 0.7569(3)
H6 H 0.0167 0.0029 0.7481
C12 C -0.0585(7) 0.0834(6) 0.8237(3)
H7 H -0.0887 0.0263 0.8601
C13 C -0.0756(7) 0.1759(6) 0.8385(3)
C14 C -0.0339(7) 0.2590(6) 0.7864(3)
H8 H -0.0462 0.3239 0.7971
C15 C 0.0270(7) 0.2510(6) 0.7172(3)
H9 H 0.0579 0.3087 0.6814
C16 C -0.1409(7) 0.1884(7) 0.9112(3)
H10 H -0.1918 0.2523 0.9098
H11 H -0.2051 0.1320 0.9361
C17 C -0.0626(6) 0.1867(6) 1.0143(3)
C18 C -0.1897(6) 0.1864(5) 1.0563(3)
H12 H -0.2678 0.1879 1.0374
C19 C -0.2058(6) 0.1839(4) 1.1271(2)
C20 C -0.0947(6) 0.1810(4) 1.1554(3)
H13 H -0.1064 0.1786 1.2038
C21 C 0.0362(6) 0.1817(5) 1.1125(3)
C22 C 0.0557(6) 0.1853(5) 1.0439(3)
H14 H 0.1455 0.1871 1.0152
C23 C 0.1627(6) 0.1792(5) 1.1416(3)
C24 C -0.3491(6) 0.1800(4) 1.1731(3)
C25 C 0.5312(9) 0.3562(6) 0.3855(4)
H15 H 0.4748 0.3135 0.4247
C26 C 0.5350(9) 0.4564(6) 0.3843(4)
H16 H 0.4857 0.4811 0.4234
C27 C 0.6108(8) 0.5237(5) 0.3261(4)
C28 C 0.6777(10) 0.4801(6) 0.2731(4)
H17 H 0.7302 0.5212 0.2317
C29 C 0.6708(10) 0.3778(6) 0.2782(4)
H18 H 0.7174 0.3515 0.2393
C30 C 0.6207(9) 0.6300(5) 0.3211(4)
H19 H 0.6762 0.6671 0.2790
C31 C 0.5621(8) 0.6836(5) 0.3680(3)
H20 H 0.5103 0.6472 0.4114
C32 C 0.5698(7) 0.7895(5) 0.3592(3)
C33 C 0.5143(7) 0.8354(5) 0.4142(3)
H21 H 0.4695 0.7950 0.4577
C34 C 0.5223(7) 0.9372(5) 0.4074(3)
H22 H 0.4827 0.9655 0.4465
C35 C 0.6396(6) 0.9552(5) 0.2938(3)
H23 H 0.6843 0.9970 0.2507
C36 C 0.6352(6) 0.8548(5) 0.2978(3)
H24 H 0.6773 0.8283 0.2582
C37 C 0.4266(7) -0.0353(5) 0.1632(3)
H25 H 0.4716 0.0091 0.1215
C38 C 0.4291(8) -0.1364(6) 0.1644(4)
H26 H 0.4746 -0.1606 0.1244
C39 C 0.3644(8) -0.2028(6) 0.2247(4)
C40 C 0.2999(7) -0.1599(5) 0.2797(3)
H27 H 0.2526 -0.2017 0.3221
C41 C 0.3034(6) -0.0590(5) 0.2738(3)
H28 H 0.2586 -0.0329 0.3131
C42 C 0.3534(9) -0.3147(7) 0.2295(5)
H29 H 0.3085 -0.3537 0.2735
C43 C 0.3959(9) -0.3610(7) 0.1829(4)
H30 H 0.4425 -0.3230 0.1389
C44 C 0.3814(9) -0.4680(7) 0.1891(5)
C45 C 0.3048(11) -0.5307(7) 0.2485(4)
H31 H 0.2579 -0.5043 0.2873
C46 C 0.2986(11) -0.6335(6) 0.2498(4)
H32 H 0.2438 -0.6756 0.2899
C47 C 0.4372(10) -0.6171(7) 0.1425(4)
H33 H 0.4857 -0.6474 0.1059
C48 C 0.4462(10) -0.5124(6) 0.1345(4)
H34 H 0.4960 -0.4721 0.0920
N1 N 0.6039(6) 0.3144(4) 0.3336(2)
N2 N 0.5846(5) 0.9991(4) 0.3470(2)
N3 N 0.3643(5) 0.0050(4) 0.2175(2)
N4 N 0.3630(6) -0.6750(4) 0.1996(3)
O1 O 0.4044(4) 0.1524(3) 0.40117(18)
O2 O 0.3224(4) 0.1388(3) 0.31183(18)
O3 O -0.3191(4) 0.1331(4) 0.4396(2)
O4 O -0.1834(4) 0.1463(4) 0.33714(19)
O5 O -0.0169(4) 0.1393(4) 0.59950(19)
O6 O -0.0298(5) 0.1892(5) 0.9455(2)
O7 O 0.2784(4) 0.1790(4) 1.1023(2)
O8 O 0.1469(4) 0.1730(4) 1.2062(2)
O9 O -0.3617(4) 0.1842(3) 1.23392(17)
O10 O -0.4475(4) 0.1746(3) 1.14404(19)
Zn1_2 Zn -0.40098(6) 0.15492(5) 0.34248(3)
Zn1_3 Zn -0.40098(6) 0.15492(5) 1.34248(3)
Zn1_4 Zn 0.59902(6) 1.15492(5) 0.34248(3)
Zn2_2 Zn -0.64131(6) 0.16464(5) 1.20651(3)
Zn2_3 Zn 0.35869(6) -0.83536(5) 0.20651(3)
Zn2_4 Zn 0.35869(6) 0.16464(5) 1.20651(3)
N2_2 N 0.5846(5) -0.0009(4) 0.3470(2)
N4_2 N 0.3630(6) 0.3250(4) 0.1996(3)
O3_2 O 0.6809(4) 0.1331(4) 0.4396(2)
O4_2 O 0.8166(4) 0.1463(4) 0.33714(19)
O7_2 O 0.2784(4) 0.1790(4) 0.1023(2)
O8_2 O 0.1469(4) 0.1730(4) 0.2062(2)
O9_2 O 0.6383(4) 0.1842(3) 0.23392(17)
O10_2 O 0.5525(4) 0.1746(3) 0.14404(19)
loop_
_geom_bond_atom_site_label_1
_geom_bond_atom_site_label_2
_geom_bond_site_symmetry_1
_geom_bond_site_symmetry_2
Zn1 N1 1_555 1_555
Zn2 N3 1_555 1_555
C1 C2 1_555 1_555
C2 H1 1_555 1_555
C3 C2 1_555 1_555
C4 C3 1_555 1_555
H2 C4 1_555 1_555
C5 C4 1_555 1_555
C6 C1 1_555 1_555
H3 C6 1_555 1_555
C7 C1 1_555 1_555
C8 C3 1_555 1_555
C9 H4 1_555 1_555
H5 C9 1_555 1_555
C10 C9 1_555 1_555
C11 C10 1_555 1_555
H6 C11 1_555 1_555
C12 C11 1_555 1_555
H7 C12 1_555 1_555
C13 C12 1_555 1_555
C14 C13 1_555 1_555
H8 C14 1_555 1_555
C15 C10 1_555 1_555
H9 C15 1_555 1_555
C16 C13 1_555 1_555
H10 C16 1_555 1_555
H11 C16 1_555 1_555
C17 C18 1_555 1_555
C18 H12 1_555 1_555
C19 C18 1_555 1_555
C20 C19 1_555 1_555
H13 C20 1_555 1_555
C21 C20 1_555 1_555
C22 C17 1_555 1_555
H14 C22 1_555 1_555
C23 C21 1_555 1_555
C24 C19 1_555 1_555
C25 H15 1_555 1_555
C26 C25 1_555 1_555
H16 C26 1_555 1_555
C27 C26 1_555 1_555
C28 C27 1_555 1_555
H17 C28 1_555 1_555
C29 C28 1_555 1_555
H18 C29 1_555 1_555
C30 C27 1_555 1_555
H19 C30 1_555 1_555
C31 C30 1_555 1_555
H20 C31 1_555 1_555
C32 C31 1_555 1_555
C33 C32 1_555 1_555
H21 C33 1_555 1_555
C34 C33 1_555 1_555
H22 C34 1_555 1_555
C35 H23 1_555 1_555
C36 C32 1_555 1_555
H24 C36 1_555 1_555
C37 H25 1_555 1_555
C38 C37 1_555 1_555
H26 C38 1_555 1_555
C39 C38 1_555 1_555
C40 C39 1_555 1_555
H27 C40 1_555 1_555
C41 C40 1_555 1_555
H28 C41 1_555 1_555
C42 C39 1_555 1_555
H29 C42 1_555 1_555
C43 C42 1_555 1_555
H30 C43 1_555 1_555
C44 C43 1_555 1_555
C45 C44 1_555 1_555
H31 C45 1_555 1_555
C46 C45 1_555 1_555
H32 C46 1_555 1_555
C47 H33 1_555 1_555
C48 C44 1_555 1_555
H34 C48 1_555 1_555
N1 C25 1_555 1_555
N2 C34 1_555 1_555
N3 C37 1_555 1_555
N4 C46 1_555 1_555
O1 Zn1 1_555 1_555
O2 Zn2 1_555 1_555
O3 C8 1_555 1_555
O4 C8 1_555 1_555
O5 C5 1_555 1_555
O6 C16 1_555 1_555
O7 C23 1_555 1_555
O8 C23 1_555 1_555
O9 C24 1_555 1_555
O10 C24 1_555 1_555
Zn1_2 O3 1_555 1_555
Zn1_3 O9 1_555 1_555
Zn1_4 N2 1_555 1_555
Zn2_2 O10 1_555 1_555
Zn2_3 N4 1_555 1_555
Zn2_4 O7 1_555 1_555
N2_2 Zn1 1_555 1_555
N4_2 Zn2 1_555 1_555
O3_2 Zn1 1_555 1_555
O4_2 Zn1 1_555 1_555
O7_2 Zn2 1_555 1_555
O8_2 Zn2 1_555 1_555
O9_2 Zn1 1_555 1_555
O10_2 Zn2 1_555 1_555
C5 C6 1_555 1_555
C7 O1 1_555 1_555
C7 O2 1_555 1_555
C9 O5 1_555 1_555
C14 C15 1_555 1_555
C17 O6 1_555 1_555
C21 C22 1_555 1_555
C29 N1 1_555 1_555
C35 C36 1_555 1_555
C35 N2 1_555 1_555
C41 N3 1_555 1_555
C47 C48 1_555 1_555
C47 N4 1_555 1_555
O4 Zn1_2 1_555 1_555
O8 Zn2_4 1_555 1_555

#END
