
#######################################################################
#
#                 Cambridge Crystallographic Data Centre
#                                CCDC 
#
#######################################################################
#
# If this CIF has been generated from an entry in the Cambridge 
# Structural Database, then it will include bibliographic, chemical, 
# crystal, experimental, refinement or atomic coordinate data resulting 
# from the CCDC's data processing and validation procedures.
#
#######################################################################

data_IWEVUD
_chemical_formula_moiety         '(C64 H64 I6 N12 O6 Zn3)n'
_symmetry_cell_setting           monoclinic
_symmetry_space_group_name_H-M   'C 2/c'
_symmetry_Int_Tables_number      15
_space_group_name_Hall           '-C 2yc'
loop_
_symmetry_equiv_pos_site_id
_symmetry_equiv_pos_as_xyz
1 x,y,z
2 -x,y,1/2-z
3 1/2+x,1/2+y,z
4 1/2-x,1/2+y,1/2-z
5 -x,-y,-z
6 x,-y,1/2+z
7 1/2-x,1/2-y,-z
8 1/2+x,1/2-y,1/2+z
_cell_length_a                   35.5334(9)
_cell_length_b                   14.9227(3)
_cell_length_c                   30.6034(10)
_cell_angle_alpha                90
_cell_angle_beta                 102.176(3)
_cell_angle_gamma                90
_cell_volume                     15862.5
loop_
_atom_site_label
_atom_site_type_symbol
_atom_site_fract_x
_atom_site_fract_y
_atom_site_fract_z
C1 C 0.56227(19) 0.5403(5) 0.5237(3)
H1 H 0.5739 0.5383 0.4985
C2 C 0.5311(2) 0.5973(5) 0.5224(2)
H2 H 0.5220 0.6337 0.4969
C3 C 0.51378(16) 0.6006(4) 0.5577(2)
C4 C 0.5274(4) 0.5468(10) 0.5931(3)
H3 H 0.5152 0.5448 0.6179
C5 C 0.5598(4) 0.4940(10) 0.5923(3)
H4 H 0.5704 0.4598 0.6181
C6 C 0.48077(16) 0.6612(4) 0.55865(19)
C7 C 0.43205(16) 0.7053(4) 0.58954(18)
C8 C 0.44721(16) 0.7857(4) 0.53348(18)
C9 C 0.3928(2) 0.6221(5) 0.6859(2)
H5 H 0.4009 0.5847 0.7113
C10 C 0.41772(19) 0.6354(5) 0.6581(2)
H6 H 0.4424 0.6079 0.6641
C11 C 0.40651(16) 0.6896(4) 0.62105(18)
C12 C 0.3692(2) 0.7271(5) 0.6140(2)
H7 H 0.3601 0.7636 0.5886
C13 C 0.34693(19) 0.7112(5) 0.6432(2)
H8 H 0.3222 0.7381 0.6381
C14 C 0.4056(3) 0.9950(6) 0.4755(3)
H9 H 0.3836 1.0318 0.4741
C15 C 0.4096(2) 0.9212(5) 0.5023(3)
H10 H 0.3904 0.9066 0.5187
C16 C 0.44227(16) 0.8671(4) 0.50537(19)
C17 C 0.46824(16) 0.8899(4) 0.47971(19)
H11 H 0.4903 0.8537 0.4800
C18 C 0.46197(18) 0.9663(4) 0.4535(2)
H12 H 0.4804 0.9825 0.4365
C19 C 0.6749(2) 0.5546(4) 0.5993(2)
H13 H 0.6601 0.5851 0.5742
C20 C 0.70488(19) 0.6000(4) 0.6268(2)
H14 H 0.7106 0.6602 0.6205
C21 C 0.72603(15) 0.5570(4) 0.6631(2)
C22 C 0.71636(18) 0.4688(4) 0.6714(2)
H15 H 0.7302 0.4371 0.6967
C23 C 0.68654(18) 0.4288(4) 0.6423(3)
H16 H 0.6802 0.3687 0.6480
C24 C 0.75837(15) 0.6014(4) 0.69415(19)
C25 C 0.79428(15) 0.7233(4) 0.71717(19)
C26 C 0.80874(15) 0.5914(3) 0.75230(19)
C27 C 0.7833(2) 0.9708(4) 0.6931(3)
H17 H 0.7658 1.0100 0.6745
C28 C 0.77616(18) 0.8791(4) 0.6901(2)
H18 H 0.7542 0.8565 0.6698
C29 C 0.80101(16) 0.8217(4) 0.7168(2)
C30 C 0.83273(19) 0.8575(4) 0.7450(3)
H19 H 0.8508 0.8196 0.7637
C31 C 0.8380(2) 0.9492(4) 0.7460(3)
H20 H 0.8601 0.9733 0.7655
C32 C 0.84678(17) 0.4079(4) 0.83398(19)
H21 H 0.8397 0.3493 0.8414
C33 C 0.82365(16) 0.4527(4) 0.79894(19)
H22 H 0.8013 0.4244 0.7820
C34 C 0.83315(15) 0.5393(3) 0.78846(19)
C35 C 0.8662(2) 0.5767(4) 0.8127(3)
H23 H 0.8738 0.6353 0.8060
C36 C 0.8884(2) 0.5273(5) 0.8472(3)
H24 H 0.9113 0.5534 0.8641
N1 N 0.76456(13) 0.6892(3) 0.68826(16)
N2 N 0.81834(12) 0.6771(3) 0.74854(16)
N3 N 0.42459(13) 0.7769(3) 0.56262(15)
N4 N 0.77906(12) 0.5499(3) 0.72620(16)
N5 N 0.47505(13) 0.7285(3) 0.52870(15)
N6 N 0.46013(13) 0.6464(3) 0.58982(16)
N7 N 0.43087(16) 1.0181(4) 0.45127(17)
N8 N 0.87903(15) 0.4450(3) 0.85776(19)
N9 N 0.66587(14) 0.4698(3) 0.60656(19)
N10 N 0.35771(15) 0.6589(3) 0.67940(18)
N11 N 0.81342(15) 1.0056(3) 0.72076(18)
N12 N 0.57627(14) 0.4893(4) 0.55817(18)
Zn1 Zn 0.82452(3) 1.14168(5) 0.72623(3)
Zn2 Zn 0.9138(2) 0.3758(7) 0.9091(3)
Zn3 Zn 0.6238(3) 0.4046(7) 0.5661(2)
I1 I 0.86902(5) 1.16635(9) 0.80432(6)
I2 I 0.76430(15) 1.2341(4) 0.70354(18)
I3 I 0.97207(13) 0.3419(3) 0.87387(12)
I4 I 0.87655(9) 0.2674(2) 0.94680(10)
I5 I 0.60610(10) 0.2599(3) 0.60292(11)
I6 I 0.64305(11) 0.4088(2) 0.49145(10)
N7G N 0.93087(16) 0.4819(4) 0.95127(17)
N10B N 0.85771(15) 1.1589(3) 0.67940(18)
Zn1B Zn 0.32452(3) 0.64168(5) 0.72623(3)
Zn2G Zn 0.4138(2) 1.1242(7) 0.4091(3)
C37 C 0.2844(9) 1.038(3) 0.5909(11)
H25 H 0.2654 0.9931 0.5968
H26 H 0.2710 1.0944 0.5805
C38 C 0.3286(9) 0.9660(18) 0.6272(10)
O1 O 0.3044(11) 1.007(3) 0.5620(9)
O2 O 0.3361(9) 0.962(2) 0.5859(9)
O3 O 0.3139(8) 1.0511(16) 0.6286(8)
C39 C 0.3640(6) 0.9470(12) 0.6562(6)
C40 C 0.3566(6) 0.9131(10) 0.6955(7)
H27 H 0.3310 0.9115 0.6999
C41 C 0.3856(7) 0.8824(10) 0.7276(7)
H28 H 0.3806 0.8650 0.7557
C42 C 0.4212(7) 0.8759(18) 0.7204(9)
H29 H 0.4406 0.8470 0.7419
C43 C 0.4300(7) 0.9111(19) 0.6821(9)
H30 H 0.4558 0.9098 0.6781
C44 C 0.4011(7) 0.9484(16) 0.6494(8)
H31 H 0.4068 0.9741 0.6231
C45 C 0.1743(10) 1.569(3) 0.5573(12)
H32 H 0.1622 1.6206 0.5394
H33 H 0.1559 1.5411 0.5735
C46 C 0.2074(10) 1.449(2) 0.5664(10)
C47 C 0.2349(9) 1.396(2) 0.5505(11)
C48 C 0.2361(13) 1.307(2) 0.5616(15)
H34 H 0.2215 1.2880 0.5826
C49 C 0.2565(15) 1.244(2) 0.5447(18)
H35 H 0.2571 1.1843 0.5551
C50 C 0.2764(15) 1.268(3) 0.5128(18)
H36 H 0.2896 1.2237 0.4994
C51 C 0.2767(16) 1.357(3) 0.5006(18)
H37 H 0.2898 1.3739 0.4779
C52 C 0.2580(14) 1.421(3) 0.5213(18)
H38 H 0.2611 1.4831 0.5152
O4 O 0.2082(10) 1.589(2) 0.5838(10)
O5 O 0.2187(9) 1.503(2) 0.6013(8)
O6 O 0.1905(7) 1.508(2) 0.5325(7)
C53 C 0.5072(10) 1.256(3) 0.8967(15)
H39 H 0.4977 1.2374 0.9235
H40 H 0.4856 1.2863 0.8764
C54 C 0.5395(14) 1.326(2) 0.9117(15)
H41 H 0.5420 1.3665 0.8868
H42 H 0.5348 1.3624 0.9371
C55 C 0.5754(11) 1.267(4) 0.9258(16)
H43 H 0.5877 1.2582 0.9000
H44 H 0.5941 1.2969 0.9498
C56 C 0.5652(13) 1.176(4) 0.9424(14)
H45 H 0.5497 1.1859 0.9653
H46 H 0.5894 1.1465 0.9576
C57 C 0.5433(14) 1.110(2) 0.9083(18)
H47 H 0.5277 1.0680 0.9224
H48 H 0.5612 1.0743 0.8943
C58 C 0.5170(15) 1.170(3) 0.8731(14)
H49 H 0.5305 1.1863 0.8490
H50 H 0.4931 1.1379 0.8595
C59 C 0.3472(14) 1.391(3) 0.6279(16)
H51 H 0.3396 1.4035 0.6567
H52 H 0.3361 1.4380 0.6061
C60 C 0.3334(14) 1.299(4) 0.6106(16)
H53 H 0.3053 1.2944 0.6086
H54 H 0.3383 1.2907 0.5802
C61 C 0.3536(17) 1.226(3) 0.6409(19)
H55 H 0.3594 1.1776 0.6213
H56 H 0.3345 1.2017 0.6572
C62 C 0.3901(17) 1.243(3) 0.6754(17)
H57 H 0.4106 1.2039 0.6686
H58 H 0.3856 1.2248 0.7050
C63 C 0.4048(12) 1.339(4) 0.6790(15)
H59 H 0.4333 1.3387 0.6872
H60 H 0.3951 1.3706 0.7028
C64 C 0.3915(14) 1.389(3) 0.6343(19)
H61 H 0.3994 1.3559 0.6095
H62 H 0.4023 1.4500 0.6359
loop_
_geom_bond_atom_site_label_1
_geom_bond_atom_site_label_2
_geom_bond_site_symmetry_1
_geom_bond_site_symmetry_2
C1 H1 1_555 1_555
C2 C1 1_555 1_555
H2 C2 1_555 1_555
C3 C2 1_555 1_555
C4 C3 1_555 1_555
H3 C4 1_555 1_555
C5 C4 1_555 1_555
H4 C5 1_555 1_555
C6 C3 1_555 1_555
C7 C11 1_555 1_555
C8 C16 1_555 1_555
C9 H5 1_555 1_555
C10 C9 1_555 1_555
H6 C10 1_555 1_555
C11 C10 1_555 1_555
C12 C11 1_555 1_555
H7 C12 1_555 1_555
C13 C12 1_555 1_555
H8 C13 1_555 1_555
C14 H9 1_555 1_555
C15 C14 1_555 1_555
H10 C15 1_555 1_555
C16 C15 1_555 1_555
C17 C16 1_555 1_555
H11 C17 1_555 1_555
C18 C17 1_555 1_555
H12 C18 1_555 1_555
C19 H13 1_555 1_555
C20 C19 1_555 1_555
H14 C20 1_555 1_555
C21 C20 1_555 1_555
C22 C21 1_555 1_555
H15 C22 1_555 1_555
C23 C22 1_555 1_555
H16 C23 1_555 1_555
C24 C21 1_555 1_555
C25 C29 1_555 1_555
C26 C34 1_555 1_555
C27 H17 1_555 1_555
C28 C27 1_555 1_555
H18 C28 1_555 1_555
C29 C28 1_555 1_555
C30 C29 1_555 1_555
H19 C30 1_555 1_555
C31 C30 1_555 1_555
H20 C31 1_555 1_555
C32 H21 1_555 1_555
C33 C32 1_555 1_555
H22 C33 1_555 1_555
C34 C33 1_555 1_555
C35 C34 1_555 1_555
H23 C35 1_555 1_555
C36 C35 1_555 1_555
H24 C36 1_555 1_555
N1 C24 1_555 1_555
N2 C25 1_555 1_555
N3 C7 1_555 1_555
N4 C24 1_555 1_555
N5 C6 1_555 1_555
N6 C6 1_555 1_555
N7 C14 1_555 1_555
N8 C32 1_555 1_555
N9 C19 1_555 1_555
N10 C9 1_555 1_555
N11 C27 1_555 1_555
N12 C1 1_555 1_555
Zn1 N11 1_555 1_555
Zn2 N8 1_555 1_555
Zn3 N9 1_555 1_555
I1 Zn1 1_555 1_555
I2 Zn1 1_555 1_555
I3 Zn2 1_555 1_555
I4 Zn2 1_555 1_555
I5 Zn3 1_555 1_555
I6 Zn3 1_555 1_555
C37 H25 1_555 1_555
H26 C37 1_555 1_555
C38 O2 1_555 1_555
O1 C37 1_555 1_555
O2 O1 1_555 1_555
O3 C37 1_555 1_555
C39 C38 1_555 1_555
C40 C39 1_555 1_555
H27 C40 1_555 1_555
C41 C40 1_555 1_555
H28 C41 1_555 1_555
C42 C41 1_555 1_555
H29 C42 1_555 1_555
C43 C42 1_555 1_555
H30 C43 1_555 1_555
C44 C39 1_555 1_555
H31 C44 1_555 1_555
C45 H32 1_555 1_555
H33 C45 1_555 1_555
C46 C47 1_555 1_555
C47 C48 1_555 1_555
C48 H34 1_555 1_555
C49 C48 1_555 1_555
H35 C49 1_555 1_555
C50 C49 1_555 1_555
H36 C50 1_555 1_555
C51 C50 1_555 1_555
H37 C51 1_555 1_555
C52 C47 1_555 1_555
H38 C52 1_555 1_555
O4 C45 1_555 1_555
O5 C46 1_555 1_555
O6 C45 1_555 1_555
C53 H39 1_555 1_555
H40 C53 1_555 1_555
C54 C53 1_555 1_555
H41 C54 1_555 1_555
H42 C54 1_555 1_555
C55 C54 1_555 1_555
H43 C55 1_555 1_555
H44 C55 1_555 1_555
C56 C55 1_555 1_555
H45 C56 1_555 1_555
H46 C56 1_555 1_555
C57 C56 1_555 1_555
H47 C57 1_555 1_555
H48 C57 1_555 1_555
C58 C53 1_555 1_555
H49 C58 1_555 1_555
H50 C58 1_555 1_555
C59 H51 1_555 1_555
H52 C59 1_555 1_555
C60 C59 1_555 1_555
H53 C60 1_555 1_555
H54 C60 1_555 1_555
C61 C60 1_555 1_555
H55 C61 1_555 1_555
H56 C61 1_555 1_555
C62 C61 1_555 1_555
H57 C62 1_555 1_555
H58 C62 1_555 1_555
C63 C62 1_555 1_555
H59 C63 1_555 1_555
H60 C63 1_555 1_555
C64 C59 1_555 1_555
H61 C64 1_555 1_555
H62 C64 1_555 1_555
N7G Zn2 1_555 1_555
N10B Zn1 1_555 1_555
Zn1B N10 1_555 1_555
Zn2G N7 1_555 1_555
C5 N12 1_555 1_555
C7 N6 1_555 1_555
C8 N3 1_555 1_555
C8 N5 1_555 1_555
C13 N10 1_555 1_555
C18 N7 1_555 1_555
C23 N9 1_555 1_555
C25 N1 1_555 1_555
C26 N2 1_555 1_555
C26 N4 1_555 1_555
C31 N11 1_555 1_555
C36 N8 1_555 1_555
N12 Zn3 1_555 1_555
C38 O3 1_555 1_555
C43 C44 1_555 1_555
C46 O6 1_555 1_555
C51 C52 1_555 1_555
O4 O5 1_555 1_555
C57 C58 1_555 1_555
C63 C64 1_555 1_555

#END
