
#######################################################################
#
#                 Cambridge Crystallographic Data Centre
#                                CCDC 
#
#######################################################################
#
# If this CIF has been generated from an entry in the Cambridge 
# Structural Database, then it will include bibliographic, chemical, 
# crystal, experimental, refinement or atomic coordinate data resulting 
# from the CCDC's data processing and validation procedures.
#
#######################################################################

data_IWEWAK
_chemical_formula_moiety         '(C62 H60 I6 N12 O3 Zn3)n'
_symmetry_cell_setting           monoclinic
_symmetry_space_group_name_H-M   'C 2/c'
_symmetry_Int_Tables_number      15
_space_group_name_Hall           '-C 2yc'
loop_
_symmetry_equiv_pos_site_id
_symmetry_equiv_pos_as_xyz
1 x,y,z
2 -x,y,1/2-z
3 1/2+x,1/2+y,z
4 1/2-x,1/2+y,1/2-z
5 -x,-y,-z
6 x,-y,1/2+z
7 1/2-x,1/2-y,-z
8 1/2+x,1/2-y,1/2+z
_cell_length_a                   35.0615(11)
_cell_length_b                   14.9665(3)
_cell_length_c                   30.3099(7)
_cell_angle_alpha                90
_cell_angle_beta                 101.487(2)
_cell_angle_gamma                90
_cell_volume                     15586.5
loop_
_atom_site_label
_atom_site_type_symbol
_atom_site_fract_x
_atom_site_fract_y
_atom_site_fract_z
_atom_site_U_iso_or_equiv
_atom_site_thermal_displace_type
C37 C 0.1210(5) 0.5380(13) 0.3421(5) 0.1003 Uani
C38 C 0.1393(4) 0.5704(11) 0.3095(6) 0.0856 Uani
H25 H 0.1663 0.5593 0.3112 0.1030 Uiso
C39 C 0.1185(5) 0.6192(12) 0.2743(6) 0.0983 Uani
H26 H 0.1310 0.6394 0.2510 0.1180 Uiso
C40 C 0.0803(5) 0.6389(12) 0.2723(6) 0.1001 Uani
H27 H 0.0666 0.6752 0.2487 0.1200 Uiso
C41 C 0.0618(5) 0.6055(14) 0.3048(6) 0.1037 Uani
H28 H 0.0352 0.6195 0.3036 0.1250 Uiso
C42 C 0.0813(5) 0.5523(15) 0.3389(6) 0.1074 Uani
H29 H 0.0679 0.5258 0.3599 0.1290 Uiso
C43 C 0.1388(6) 0.4760(17) 0.3755(7) 0.1451 Uani
H30 H 0.1234 0.4193 0.3726 0.1740 Uiso
C44 C 0.2016(6) 0.4667(17) 0.4187(6) 0.1502 Uani
H31 H 0.2154 0.5255 0.4207 0.1800 Uiso
O1 O 0.1394(6) 0.5121(17) 0.4154(6) 0.1896 Uani
O2 O 0.1730(6) 0.4714(19) 0.4430(6) 0.1935 Uani
O3 O 0.1792(4) 0.4563(11) 0.3747(4) 0.1170 Uani
C45 C 0.2297(5) 0.3971(14) 0.4335(7) 0.1447 Uani
C46 C 0.2205(5) 0.3100(15) 0.4237(7) 0.1683 Uani
H32 H 0.1972 0.2965 0.4028 0.2020 Uiso
C47 C 0.2434(7) 0.2422(14) 0.4428(9) 0.1871 Uani
H33 H 0.2347 0.1820 0.4391 0.2240 Uiso
C48 C 0.2796(6) 0.2623(15) 0.4674(9) 0.1668 Uani
H34 H 0.2995 0.2185 0.4734 0.2000 Uiso
C49 C 0.2857(7) 0.3472(15) 0.4830(9) 0.1775 Uani
H35 H 0.3067 0.3588 0.5074 0.2130 Uiso
C50 C 0.2629(6) 0.4154(14) 0.4648(8) 0.1673 Uani
H36 H 0.2697 0.4753 0.4734 0.2010 Uiso
C51 C 0.1205(6) 0.215(2) 0.4189(7) 0.1525 Uani
H37 H 0.1311 0.1644 0.4387 0.1830 Uiso
H38 H 0.1324 0.2706 0.4328 0.1830 Uiso
C52 C 0.0767(5) 0.2190(15) 0.4152(6) 0.1166 Uani
H39 H 0.0705 0.2278 0.4454 0.1400 Uiso
H40 H 0.0657 0.2698 0.3958 0.1400 Uiso
C53 C 0.0592(6) 0.1326(15) 0.3952(6) 0.1220 Uani
H41 H 0.0306 0.1348 0.3918 0.1470 Uiso
H42 H 0.0691 0.0825 0.4156 0.1470 Uiso
C54 C 0.0696(6) 0.1170(17) 0.3493(6) 0.1205 Uani
H43 H 0.0581 0.0602 0.3363 0.1450 Uiso
H44 H 0.0592 0.1662 0.3285 0.1450 Uiso
C55 C 0.1135(6) 0.1132(18) 0.3554(8) 0.1485 Uani
H45 H 0.1208 0.0994 0.3262 0.1780 Uiso
H46 H 0.1238 0.0650 0.3768 0.1780 Uiso
C56 C 0.1313(7) 0.2024(18) 0.3730(7) 0.1486 Uani
H47 H 0.1599 0.2012 0.3760 0.1780 Uiso
H48 H 0.1206 0.2516 0.3524 0.1780 Uiso
C57 C 0.1848(7) 0.629(2) 0.5336(13) 0.1987 Uani
H49 H 0.1721 0.6820 0.5437 0.2400 Uiso
H50 H 0.1672 0.6047 0.5066 0.2400 Uiso
C58 C 0.2228(8) 0.658(2) 0.5205(10) 0.1824 Uani
H51 H 0.2305 0.6142 0.4993 0.2220 Uiso
H52 H 0.2196 0.7171 0.5057 0.2220 Uiso
C59 C 0.2536(8) 0.6624(18) 0.5635(11) 0.1747 Uani
H53 H 0.2780 0.6875 0.5568 0.2090 Uiso
H54 H 0.2446 0.7023 0.5854 0.2090 Uiso
C60 C 0.2614(7) 0.5698(18) 0.5836(9) 0.1506 Uani
H55 H 0.2825 0.5419 0.5711 0.1810 Uiso
H56 H 0.2708 0.5759 0.6165 0.1810 Uiso
C61 C 0.2267(8) 0.5074(18) 0.5756(15) 0.2029 Uani
H57 H 0.2267 0.4716 0.5481 0.2430 Uiso
H58 H 0.2285 0.4659 0.6013 0.2430 Uiso
C62 C 0.1898(8) 0.560(3) 0.5700(14) 0.2026 Uani
H59 H 0.1888 0.5896 0.5989 0.2410 Uiso
H60 H 0.1676 0.5176 0.5635 0.2410 Uiso
I1 I 0.35278(10) 0.5869(2) 0.51617(12) 0.0839 Uani
Zn1 Zn 0.37213(5) 0.59356(11) 0.44379(6) 0.0652 Uani
N1 N 0.3299(2) 0.5313(4) 0.3969(3) 0.0600 Uani
N2 N 0.4188(2) 0.5104(4) 0.4464(3) 0.0540 Uani
I2 I 0.38626(12) 0.7363(3) 0.41507(16) 0.1043 Uani
C1 C 0.3059(3) 0.5762(5) 0.3650(3) 0.0622 Uani
C2 C 0.3234(3) 0.4449(6) 0.4007(3) 0.0726 Uani
H1 H 0.3092 0.6390 0.3631 0.0750 Uiso
C3 C 0.2770(3) 0.5364(5) 0.3350(3) 0.0616 Uani
C4 C 0.2950(3) 0.3989(5) 0.3713(3) 0.0624 Uani
H2 H 0.3390 0.4129 0.4248 0.0870 Uiso
H3 H 0.2612 0.5709 0.3120 0.0740 Uiso
C5 C 0.2706(2) 0.4446(5) 0.3378(3) 0.0416 Uani
H4 H 0.2924 0.3361 0.3742 0.0750 Uiso
C6 C 0.2395(2) 0.4008(5) 0.3059(2) 0.0416 Uani
N3 N 0.21953(17) 0.4513(4) 0.2728(2) 0.0387 Uani
N4 N 0.23333(19) 0.3126(4) 0.3115(2) 0.0430 Uani
C7 C 0.1902(2) 0.4097(4) 0.2458(2) 0.0359 Uani
C8 C 0.2044(2) 0.2782(5) 0.2812(3) 0.0411 Uani
C9 C 0.1666(2) 0.4603(4) 0.2082(2) 0.0383 Uani
N5 N 0.18103(17) 0.3234(4) 0.2490(2) 0.0393 Uani
C10 C 0.1974(2) 0.1796(5) 0.2816(3) 0.0463 Uani
C11 C 0.1747(2) 0.5491(5) 0.2000(3) 0.0497 Uani
C12 C 0.1362(3) 0.4207(5) 0.1798(3) 0.0784 Uani
C13 C 0.1688(3) 0.1426(5) 0.2497(3) 0.0660 Uani
C14 C 0.2204(3) 0.1232(5) 0.3110(4) 0.0722 Uani
C15 C 0.1512(2) 0.5921(5) 0.1639(3) 0.0502 Uani
H5 H 0.1958 0.5795 0.2186 0.0600 Uiso
H6 H 0.1307 0.3592 0.1831 0.0940 Uiso
C16 C 0.1140(3) 0.4695(6) 0.1469(3) 0.0808 Uani
C17 C 0.1635(3) 0.0517(6) 0.2493(3) 0.0676 Uani
H7 H 0.1528 0.1792 0.2280 0.0790 Uiso
H8 H 0.2407 0.1459 0.3338 0.0860 Uiso
C18 C 0.2135(3) 0.0330(6) 0.3070(4) 0.0792 Uani
H9 H 0.1575 0.6518 0.1574 0.0600 Uiso
N6 N 0.12111(18) 0.5548(4) 0.13861(19) 0.0400 Uani
H10 H 0.0921 0.4415 0.1286 0.0970 Uiso
H11 H 0.1427 0.0273 0.2277 0.0810 Uiso
N7 N 0.1854(2) -0.0033(4) 0.2770(2) 0.0568 Uani
H12 H 0.2300 -0.0057 0.3271 0.0950 Uiso
Zn2 Zn 0.08049(3) 0.62609(5) 0.09246(3) 0.0422 Uani
Zn3 Zn 0.1714(3) -0.1394(6) 0.2699(2) 0.0474 Uani
I3 I 0.02507(4) 0.65405(7) 0.13411(3) 0.0534 Uani
I4 I 0.11341(18) 0.7410(5) 0.0545(3) 0.0451 Uani
N8 N 0.06331(19) 0.5237(4) 0.04638(19) 0.0404 Uani
N9 N 0.1394(2) -0.1560(4) 0.3203(3) 0.0607 Uani
I5 I 0.2386(2) -0.2254(4) 0.3036(2) 0.1072 Uani
I6 I 0.12664(16) -0.1616(3) 0.19357(15) 0.0685 Uani
C19 C 0.1054(3) -0.1169(7) 0.3149(3) 0.0696 Uani
C20 C 0.1499(3) -0.2110(6) 0.3555(3) 0.0639 Uani
C21 C 0.0802(3) -0.1294(7) 0.3445(3) 0.0673 Uani
H13 H 0.0976 -0.0785 0.2898 0.0840 Uiso
C22 C 0.1259(3) -0.2288(6) 0.3856(3) 0.0611 Uani
H14 H 0.1747 -0.2388 0.3599 0.0760 Uiso
C23 C 0.0904(3) -0.1884(5) 0.3804(3) 0.0494 Uani
H15 H 0.0562 -0.0978 0.3403 0.0810 Uiso
H16 H 0.1341 -0.2691 0.4099 0.0730 Uiso
C24 C 0.0649(2) -0.2034(5) 0.4121(2) 0.0446 Uani
N10 N 0.0714(2) -0.2771(4) 0.4377(2) 0.0457 Uani
N11 N 0.0362(2) -0.1440(4) 0.4139(2) 0.0496 Uani
C25 C 0.0474(2) -0.2868(5) 0.4666(2) 0.0415 Uani
C26 C 0.0151(2) -0.1615(5) 0.4447(3) 0.0429 Uani
N12 N 0.01999(19) -0.2298(4) 0.47283(19) 0.0416 Uani
C27 C 0.0526(2) -0.3708(5) 0.4945(2) 0.0412 Uani
C28 C -0.0175(2) -0.1002(5) 0.4458(3) 0.0470 Uani
C29 C 0.0803(3) -0.4317(6) 0.4891(3) 0.0596 Uani
C30 C 0.0289(2) -0.3891(5) 0.5240(2) 0.0384 Uani
C31 C -0.0351(3) -0.0534(8) 0.4090(3) 0.0806 Uani
C32 C -0.0340(2) -0.0920(5) 0.4841(3) 0.0524 Uani
C33 C 0.0850(3) -0.5069(6) 0.5162(3) 0.0605 Uani
H17 H 0.0960 -0.4227 0.4672 0.0720 Uiso
H18 H 0.0084 -0.3495 0.5271 0.0460 Uiso
C34 C 0.0352(2) -0.4663(5) 0.5494(2) 0.0398 Uani
C35 C -0.0662(3) -0.0005(8) 0.4096(4) 0.0856 Uani
H19 H -0.0253 -0.0580 0.3821 0.0970 Uiso
C36 C -0.0650(2) -0.0364(5) 0.4830(3) 0.0563 Uani
H20 H -0.0236 -0.1248 0.5106 0.0630 Uiso
H21 H 0.1047 -0.5485 0.5131 0.0730 Uiso
H22 H 0.0187 -0.4788 0.5700 0.0480 Uiso
H23 H -0.0778 0.0301 0.3828 0.1020 Uiso
H24 H -0.0756 -0.0307 0.5093 0.0680 Uiso
N8E N 0.06331(19) -0.5237(4) 0.54638(19) 0.0404 Uani
N2B N -0.0812(2) 0.0104(4) 0.4464(3) 0.0540 Uani
Zn2E Zn 0.08049(3) -0.62609(5) 0.59246(3) 0.0422 Uani
Zn1B Zn -0.12787(5) 0.09356(11) 0.44379(6) 0.0652 Uani
loop_
_atom_site_aniso_label
_atom_site_aniso_U_11
_atom_site_aniso_U_22
_atom_site_aniso_U_33
_atom_site_aniso_U_23
_atom_site_aniso_U_13
_atom_site_aniso_U_12
C37 0.107(9) 0.084(10) 0.104(9) 0.001(8) 0.007(7) 0.009(8)
C38 0.101(9) 0.053(8) 0.100(9) -0.016(7) 0.013(7) 0.005(7)
C39 0.116(10) 0.071(10) 0.107(10) -0.007(8) 0.020(7) 0.012(8)
C40 0.116(10) 0.080(11) 0.103(10) -0.001(8) 0.019(7) 0.014(8)
C41 0.105(10) 0.100(12) 0.102(10) 0.000(9) 0.011(7) 0.005(8)
C42 0.109(9) 0.104(13) 0.107(10) 0.002(9) 0.016(8) 0.009(8)
C43 0.146(10) 0.178(14) 0.119(9) 0.043(9) 0.045(7) 0.074(9)
C44 0.140(10) 0.215(16) 0.099(9) 0.010(10) 0.032(7) 0.086(10)
O1 0.167(11) 0.289(19) 0.118(9) 0.020(10) 0.041(8) 0.117(12)
O2 0.161(11) 0.30(2) 0.130(9) 0.039(9) 0.054(7) 0.122(12)
O3 0.123(9) 0.126(11) 0.105(7) 0.030(7) 0.030(6) 0.058(8)
C45 0.113(12) 0.203(15) 0.110(13) -0.004(11) 0.003(9) 0.054(11)
C46 0.132(14) 0.206(16) 0.149(17) -0.002(12) -0.015(12) 0.045(12)
C47 0.148(16) 0.206(16) 0.17(2) -0.009(12) -0.058(13) 0.048(12)
C48 0.144(15) 0.205(17) 0.126(17) 0.010(13) -0.034(12) 0.045(13)
C49 0.158(15) 0.204(17) 0.138(17) -0.002(13) -0.049(13) 0.053(13)
C50 0.138(14) 0.207(17) 0.134(16) 0.004(12) -0.028(12) 0.047(12)
C51 0.121(11) 0.232(19) 0.099(10) -0.062(12) 0.009(8) -0.014(11)
C52 0.113(10) 0.175(15) 0.056(8) -0.019(9) 0.003(8) -0.007(10)
C53 0.123(11) 0.156(15) 0.073(9) 0.001(8) -0.014(8) 0.002(10)
C54 0.133(11) 0.137(15) 0.081(9) -0.005(9) -0.004(8) -0.003(11)
C55 0.129(11) 0.204(17) 0.103(12) -0.049(12) 0.000(9) -0.004(11)
C56 0.123(12) 0.221(18) 0.102(11) -0.063(11) 0.023(9) -0.017(12)
C57 0.146(15) 0.19(2) 0.27(2) 0.038(18) 0.065(15) 0.004(14)
C58 0.141(16) 0.18(2) 0.23(2) 0.032(16) 0.046(14) 0.000(15)
C59 0.136(16) 0.175(18) 0.22(2) 0.027(15) 0.052(14) 0.004(13)
C60 0.140(15) 0.167(18) 0.163(18) 0.005(15) 0.074(13) 0.015(13)
C61 0.159(16) 0.183(18) 0.27(3) 0.027(16) 0.051(16) 0.003(13)
C62 0.150(16) 0.19(2) 0.28(2) 0.047(18) 0.072(16) 0.004(14)
I1 0.0620(16) 0.107(2) 0.0740(12) -0.0442(13) -0.0074(9) 0.0249(12)
Zn1 0.0531(11) 0.0380(7) 0.0866(13) -0.0204(8) -0.0295(8) 0.0185(7)
N1 0.056(4) 0.031(4) 0.076(5) -0.010(3) -0.028(4) 0.011(3)
N2 0.048(4) 0.032(4) 0.070(5) -0.002(3) -0.017(3) 0.009(3)
I2 0.100(3) 0.0267(9) 0.147(3) 0.0050(17) -0.070(2) -0.0035(15)
C1 0.058(6) 0.028(4) 0.084(6) 0.002(4) -0.026(5) 0.007(4)
C2 0.077(7) 0.033(5) 0.084(6) -0.003(4) -0.041(5) 0.021(4)
C3 0.063(6) 0.027(4) 0.079(6) 0.003(4) -0.024(5) 0.004(4)
C4 0.058(5) 0.022(4) 0.091(7) 0.004(4) -0.024(5) 0.002(4)
C5 0.044(4) 0.025(4) 0.051(4) -0.004(3) -0.002(3) 0.008(3)
C6 0.048(5) 0.022(3) 0.051(4) -0.003(3) 0.001(3) 0.007(3)
N3 0.037(3) 0.022(3) 0.053(4) -0.002(3) -0.001(3) 0.004(3)
N4 0.049(4) 0.023(3) 0.052(4) 0.005(3) -0.002(3) 0.005(3)
C7 0.036(4) 0.027(4) 0.041(4) 0.000(3) -0.001(3) 0.003(3)
C8 0.037(4) 0.023(4) 0.060(5) 0.003(3) 0.002(3) 0.002(3)
C9 0.045(4) 0.022(3) 0.043(4) 0.000(3) -0.003(3) 0.004(3)
N5 0.041(4) 0.020(3) 0.051(3) 0.005(3) -0.005(3) 0.002(3)
C10 0.051(5) 0.023(4) 0.061(5) 0.004(3) 0.002(4) 0.002(3)
C11 0.057(5) 0.023(4) 0.058(5) 0.003(3) -0.015(4) -0.005(4)
C12 0.107(8) 0.019(4) 0.082(6) 0.012(4) -0.047(6) -0.017(5)
C13 0.085(7) 0.029(4) 0.073(6) 0.007(4) -0.011(5) -0.008(4)
C14 0.076(7) 0.025(4) 0.100(7) 0.020(4) -0.020(5) -0.005(4)
C15 0.061(5) 0.024(4) 0.055(5) 0.005(3) -0.014(4) -0.002(4)
C16 0.095(8) 0.035(5) 0.083(7) 0.010(5) -0.053(6) -0.022(5)
C17 0.099(8) 0.032(5) 0.067(6) 0.000(4) 0.005(5) -0.016(5)
C18 0.095(8) 0.033(5) 0.099(8) 0.011(5) -0.006(6) 0.013(5)
N6 0.050(4) 0.021(3) 0.042(3) 0.000(2) -0.008(3) 0.002(3)
N7 0.077(5) 0.026(3) 0.066(4) 0.013(3) 0.011(4) -0.006(4)
Zn2 0.0582(6) 0.0241(4) 0.0366(4) -0.0036(3) -0.0092(4) 0.0010(4)
Zn3 0.0754 0.02 0.0474 0.004 0.0134 -0.0028
I3 0.0646(6) 0.0450(5) 0.0460(4) -0.0028(3) -0.0002(4) 0.0188(4)
I4 0.0563(10) 0.0224(9) 0.0515(11) 0.0007(6) -0.0019(7) -0.0029(7)
N8 0.05 0.032 0.036 -0.004 0.001 -0.003
N9 0.083(6) 0.029(4) 0.072(5) 0.010(3) 0.020(4) -0.002(4)
I5 0.133(4) 0.035(2) 0.182(6) 0.033(3) 0.100(4) 0.028(2)
I6 0.1096(14) 0.0402(10) 0.0498(8) -0.0016(7) 0.0016(8) -0.0113(9)
C19 0.091(8) 0.051(6) 0.070(6) 0.031(5) 0.024(5) 0.009(6)
C20 0.078(7) 0.046(5) 0.073(6) 0.015(4) 0.028(5) 0.014(5)
C21 0.067(6) 0.064(6) 0.071(6) 0.029(5) 0.014(5) 0.017(5)
C22 0.084(7) 0.043(5) 0.059(5) 0.018(4) 0.021(5) 0.016(5)
C23 0.066(6) 0.032(4) 0.048(4) 0.008(3) 0.006(4) 0.000(4)
C24 0.054(5) 0.031(4) 0.043(4) 0.010(3) -0.004(3) 0.005(4)
N10 0.058(4) 0.032(3) 0.041(3) 0.007(3) -0.005(3) 0.000(3)
N11 0.056(4) 0.030(3) 0.056(4) 0.017(3) -0.005(3) -0.005(3)
C25 0.052(5) 0.029(4) 0.036(4) 0.004(3) -0.009(3) 0.004(4)
C26 0.048(5) 0.027(4) 0.046(4) -0.002(3) -0.009(3) 0.000(3)
N12 0.053(4) 0.028(3) 0.036(3) 0.001(3) -0.010(3) 0.007(3)
C27 0.055(5) 0.028(4) 0.034(4) 0.003(3) -0.007(3) 0.006(3)
C28 0.053(5) 0.029(4) 0.049(4) 0.000(3) -0.014(4) 0.004(4)
C29 0.070(6) 0.047(5) 0.066(5) 0.019(4) 0.024(5) 0.026(5)
C30 0.038(4) 0.030(4) 0.041(4) 0.001(3) -0.007(3) 0.006(3)
C31 0.092(8) 0.083(7) 0.065(6) 0.028(5) 0.011(5) 0.046(7)
C32 0.052(5) 0.033(4) 0.061(5) 0.007(4) -0.016(4) 0.009(4)
C33 0.084(7) 0.043(5) 0.057(5) 0.017(4) 0.020(5) 0.026(5)
C34 0.044(4) 0.038(4) 0.033(4) 0.003(3) -0.003(3) 0.000(4)
C35 0.096(8) 0.076(7) 0.072(7) 0.025(6) -0.014(6) 0.039(7)
C36 0.048(5) 0.035(4) 0.077(6) -0.004(4) -0.009(4) 0.004(4)
N8E 0.050(4) 0.032(3) 0.036(3) 0.004(3) 0.001(3) 0.003(3)
N2B 0.048(4) 0.032(4) 0.070(5) -0.002(3) -0.017(3) 0.009(3)
Zn2E 0.0582 0.0241 0.0366 0.0036 -0.0092 -0.001
Zn1B 0.0531(11) 0.0380(7) 0.0866(13) -0.0204(8) -0.0295(8) 0.0185(7)
loop_
_geom_bond_atom_site_label_1
_geom_bond_atom_site_label_2
_geom_bond_site_symmetry_1
_geom_bond_site_symmetry_2
I1 Zn1 1_555 1_555
Zn1 N1 1_555 1_555
N1 C1 1_555 1_555
N2 Zn1 1_555 1_555
I2 Zn1 1_555 1_555
C1 H1 1_555 1_555
C2 N1 1_555 1_555
C3 C1 1_555 1_555
C4 C2 1_555 1_555
H2 C2 1_555 1_555
H3 C3 1_555 1_555
C5 C3 1_555 1_555
H4 C4 1_555 1_555
C6 C5 1_555 1_555
N3 C6 1_555 1_555
N4 C6 1_555 1_555
C7 N3 1_555 1_555
C8 N4 1_555 1_555
C9 C7 1_555 1_555
N5 C7 1_555 1_555
C10 C8 1_555 1_555
C11 C9 1_555 1_555
C12 C9 1_555 1_555
C13 C10 1_555 1_555
C14 C10 1_555 1_555
C15 C11 1_555 1_555
H5 C11 1_555 1_555
H6 C12 1_555 1_555
C16 C12 1_555 1_555
C17 C13 1_555 1_555
H7 C13 1_555 1_555
H8 C14 1_555 1_555
C18 C14 1_555 1_555
H9 C15 1_555 1_555
N6 C15 1_555 1_555
H10 C16 1_555 1_555
H11 C17 1_555 1_555
N7 C17 1_555 1_555
H12 C18 1_555 1_555
Zn2 N6 1_555 1_555
Zn3 N7 1_555 1_555
I3 Zn2 1_555 1_555
I4 Zn2 1_555 1_555
N8 Zn2 1_555 1_555
N9 Zn3 1_555 1_555
I5 Zn3 1_555 1_555
I6 Zn3 1_555 1_555
C19 N9 1_555 1_555
C20 N9 1_555 1_555
C21 C19 1_555 1_555
H13 C19 1_555 1_555
C22 C20 1_555 1_555
H14 C20 1_555 1_555
C23 C21 1_555 1_555
H15 C21 1_555 1_555
H16 C22 1_555 1_555
C24 C23 1_555 1_555
N10 C24 1_555 1_555
N11 C24 1_555 1_555
C25 N10 1_555 1_555
C26 N11 1_555 1_555
N12 C25 1_555 1_555
C27 C25 1_555 1_555
C28 C26 1_555 1_555
C29 C27 1_555 1_555
C30 C27 1_555 1_555
C31 C28 1_555 1_555
C32 C28 1_555 1_555
C33 C29 1_555 1_555
H17 C29 1_555 1_555
H18 C30 1_555 1_555
C34 C30 1_555 1_555
C35 C31 1_555 1_555
H19 C31 1_555 1_555
C36 C32 1_555 1_555
H20 C32 1_555 1_555
H21 C33 1_555 1_555
H22 C34 1_555 1_555
H23 C35 1_555 1_555
H24 C36 1_555 1_555
C37 C38 1_555 1_555
C38 H25 1_555 1_555
C39 C38 1_555 1_555
H26 C39 1_555 1_555
C40 C39 1_555 1_555
H27 C40 1_555 1_555
C41 C40 1_555 1_555
H28 C41 1_555 1_555
C42 C37 1_555 1_555
H29 C42 1_555 1_555
C43 C37 1_555 1_555
H30 C43 1_555 1_555
C44 H31 1_555 1_555
O1 C43 1_555 1_555
O2 C44 1_555 1_555
O3 C43 1_555 1_555
C45 C44 1_555 1_555
C46 C45 1_555 1_555
H32 C46 1_555 1_555
C47 C46 1_555 1_555
H33 C47 1_555 1_555
C48 C47 1_555 1_555
H34 C48 1_555 1_555
C49 C48 1_555 1_555
H35 C49 1_555 1_555
C50 C45 1_555 1_555
H36 C50 1_555 1_555
C51 H37 1_555 1_555
H38 C51 1_555 1_555
C52 C51 1_555 1_555
H39 C52 1_555 1_555
H40 C52 1_555 1_555
C53 C52 1_555 1_555
H41 C53 1_555 1_555
H42 C53 1_555 1_555
C54 C53 1_555 1_555
H43 C54 1_555 1_555
H44 C54 1_555 1_555
C55 C54 1_555 1_555
H45 C55 1_555 1_555
H46 C55 1_555 1_555
C56 C51 1_555 1_555
H47 C56 1_555 1_555
H48 C56 1_555 1_555
C57 H49 1_555 1_555
H50 C57 1_555 1_555
C58 C57 1_555 1_555
H51 C58 1_555 1_555
H52 C58 1_555 1_555
C59 C58 1_555 1_555
H53 C59 1_555 1_555
H54 C59 1_555 1_555
C60 C59 1_555 1_555
H55 C60 1_555 1_555
H56 C60 1_555 1_555
C61 C60 1_555 1_555
H57 C61 1_555 1_555
H58 C61 1_555 1_555
C62 C57 1_555 1_555
H59 C62 1_555 1_555
H60 C62 1_555 1_555
N8E C33 1_555 1_555
N2B C35 1_555 1_555
Zn2E N8E 1_555 1_555
Zn1B N2B 1_555 1_555
C4 C5 1_555 1_555
C8 N5 1_555 1_555
C16 N6 1_555 1_555
C18 N7 1_555 1_555
C22 C23 1_555 1_555
C26 N12 1_555 1_555
C34 N8E 1_555 1_555
C36 N2B 1_555 1_555
C41 C42 1_555 1_555
C44 O3 1_555 1_555
O1 O2 1_555 1_555
C49 C50 1_555 1_555
C55 C56 1_555 1_555
C61 C62 1_555 1_555

#END
