
#######################################################################
#
#                 Cambridge Crystallographic Data Centre
#                                CCDC 
#
#######################################################################
#
# If this CIF has been generated from an entry in the Cambridge 
# Structural Database, then it will include bibliographic, chemical, 
# crystal, experimental, refinement or atomic coordinate data resulting 
# from the CCDC's data processing and validation procedures.
#
#######################################################################

data_IWEWIS
_chemical_formula_moiety         '(C53 H60 I6 N12 O3 Zn3)n'
_symmetry_cell_setting           monoclinic
_symmetry_space_group_name_H-M   'C 2/c'
_symmetry_Int_Tables_number      15
_space_group_name_Hall           '-C 2yc'
loop_
_symmetry_equiv_pos_site_id
_symmetry_equiv_pos_as_xyz
1 x,y,z
2 -x,y,1/2-z
3 1/2+x,1/2+y,z
4 1/2-x,1/2+y,1/2-z
5 -x,-y,-z
6 x,-y,1/2+z
7 1/2-x,1/2-y,-z
8 1/2+x,1/2-y,1/2+z
_cell_length_a                   34.440(2)
_cell_length_b                   14.9178(8)
_cell_length_c                   29.894(2)
_cell_angle_alpha                90
_cell_angle_beta                 99.307(6)
_cell_angle_gamma                90
_cell_volume                     15156.4
loop_
_atom_site_label
_atom_site_type_symbol
_atom_site_fract_x
_atom_site_fract_y
_atom_site_fract_z
_atom_site_U_iso_or_equiv
_atom_site_thermal_displace_type
C1 C 0.3069(6) 0.5774(11) 0.3648(9) 0.1560 Uani
H1 H 0.3128 0.6384 0.3597 0.1870 Uiso
C2 C 0.2781(5) 0.5358(9) 0.3360(7) 0.1287 Uani
H2 H 0.2640 0.5684 0.3113 0.1540 Uiso
C3 C 0.2690(5) 0.4484(9) 0.3417(7) 0.1180 Uani
C4 C 0.2898(5) 0.4028(10) 0.3780(7) 0.1311 Uani
H3 H 0.2843 0.3418 0.3837 0.1570 Uiso
C5 C 0.3188(6) 0.4489(10) 0.4056(8) 0.1541 Uani
H4 H 0.3337 0.4171 0.4300 0.1850 Uiso
C6 C 0.2379(5) 0.4040(8) 0.3098(6) 0.1073 Uani
C7 C 0.1887(4) 0.4149(8) 0.2497(6) 0.0953 Uani
C8 C 0.2026(5) 0.2830(8) 0.2843(6) 0.1019 Uani
C9 C 0.2126(5) 0.0340(10) 0.3057(6) 0.1158 Uani
H5 H 0.2297 -0.0062 0.3241 0.1390 Uiso
C10 C 0.2203(6) 0.1256(10) 0.3110(7) 0.1235 Uani
H6 H 0.2422 0.1462 0.3318 0.1480 Uiso
C11 C 0.1956(5) 0.1855(9) 0.2855(6) 0.1068 Uani
C12 C 0.1639(5) 0.1472(9) 0.2556(6) 0.1141 Uani
H7 H 0.1456 0.1851 0.2373 0.1370 Uiso
C13 C 0.1591(5) 0.0563(10) 0.2526(7) 0.1211 Uani
H8 H 0.1376 0.0323 0.2322 0.1450 Uiso
C14 C 0.1481(4) 0.6001(9) 0.1706(5) 0.0934 Uani
H9 H 0.1530 0.6617 0.1658 0.1120 Uiso
C15 C 0.1711(5) 0.5559(8) 0.2065(6) 0.0990 Uani
H10 H 0.1905 0.5874 0.2268 0.1190 Uiso
C16 C 0.1653(4) 0.4675(8) 0.2118(6) 0.1026 Uani
C17 C 0.1371(6) 0.4260(10) 0.1831(8) 0.1579 Uani
H11 H 0.1319 0.3641 0.1870 0.1890 Uiso
C18 C 0.1153(6) 0.4735(10) 0.1478(8) 0.1550 Uani
H12 H 0.0966 0.4426 0.1264 0.1860 Uiso
N1 N 0.3274(4) 0.5332(8) 0.4008(7) 0.1451 Uani
N2 N 0.2182(3) 0.4559(7) 0.2768(5) 0.0984 Uani
N3 N 0.1793(3) 0.3283(7) 0.2522(4) 0.0915 Uani
N4 N 0.2313(3) 0.3172(7) 0.3145(4) 0.0921 Uani
N5 N 0.1842(4) 0.0000(8) 0.2779(5) 0.1150 Uani
N6 N 0.1199(4) 0.5596(7) 0.1432(4) 0.0945 Uani
C19 C 0.4303(5) 0.4676(10) 0.4894(7) 0.1256 Uani
H13 H 0.4194 0.4745 0.5164 0.1500 Uiso
C20 C 0.4634(5) 0.4097(10) 0.4892(7) 0.1141 Uani
H14 H 0.4745 0.3791 0.5161 0.1370 Uiso
C21 C 0.4780(5) 0.3990(10) 0.4526(7) 0.1134 Uani
C22 C 0.4607(6) 0.4444(13) 0.4151(9) 0.1409 Uani
H15 H 0.4712 0.4384 0.3878 0.1690 Uiso
C23 C 0.4296(7) 0.4967(15) 0.4156(10) 0.1540 Uani
H16 H 0.4178 0.5240 0.3880 0.1850 Uiso
C24 C 0.5121(5) 0.3409(9) 0.4515(6) 0.1020 Uani
C25 C 0.5454(5) 0.2136(9) 0.4722(6) 0.0948 Uani
C26 C 0.5638(5) 0.3000(10) 0.4178(6) 0.1032 Uani
C27 C 0.5328(4) 0.0293(9) 0.5533(5) 0.0888 Uani
H17 H 0.5150 0.0135 0.5732 0.1070 Uiso
C28 C 0.5259(4) 0.1062(9) 0.5279(5) 0.0885 Uani
H18 H 0.5036 0.1423 0.5302 0.1060 Uiso
C29 C 0.5508(5) 0.1298(9) 0.4997(6) 0.0919 Uani
C30 C 0.5823(7) 0.0766(12) 0.4982(8) 0.1322 Uani
H19 H 0.6012 0.0923 0.4796 0.1580 Uiso
C31 C 0.5869(7) -0.0013(12) 0.5241(8) 0.1282 Uani
H20 H 0.6085 -0.0393 0.5213 0.1540 Uiso
C32 C 0.6438(8) 0.2799(14) 0.3503(9) 0.1416 Uani
H21 H 0.6657 0.2415 0.3491 0.1700 Uiso
C33 C 0.6208(7) 0.2624(14) 0.3844(9) 0.1375 Uani
H22 H 0.6277 0.2162 0.4062 0.1650 Uiso
C34 C 0.5886(6) 0.3144(11) 0.3849(7) 0.1126 Uani
C35 C 0.5857(8) 0.3863(15) 0.3522(10) 0.1504 Uani
H23 H 0.5653 0.4288 0.3530 0.1810 Uiso
C36 C 0.6077(8) 0.3985(17) 0.3224(10) 0.1619 Uani
H24 H 0.6024 0.4470 0.3017 0.1940 Uiso
N7 N 0.4147(5) 0.5120(9) 0.4522(7) 0.1295 Uani
N8 N 0.5161(4) 0.2686(7) 0.4795(4) 0.0975 Uani
N9 N 0.5707(4) 0.2246(8) 0.4414(5) 0.1030 Uani
N10 N 0.5356(4) 0.3570(8) 0.4203(5) 0.1071 Uani
N11 N 0.5639(4) -0.0246(8) 0.5512(5) 0.0938 Uani
N12 N 0.6377(5) 0.3449(10) 0.3198(6) 0.1243 Uani
Zn1 Zn 0.35855(18) 0.5894(4) 0.4637(3) 0.1224 Uani
Zn2 Zn 0.1716(3) -0.1367(6) 0.2683(3) 0.1038 Uani
Zn3 Zn 0.08051(6) 0.62977(11) 0.09563(7) 0.0871 Uani
I1 I 0.33247(11) 0.5599(4) 0.53530(16) 0.1874 Uani
I2 I 0.23406(11) -0.2309(3) 0.2889(3) 0.1006 Uani
I3 I 0.12737(13) -0.15091(15) 0.19295(9) 0.1319 Uani
I4 I 0.11955(9) 0.7389(2) 0.05211(9) 0.0987 Uani
I5 I 0.02285(6) 0.66358(13) 0.13581(6) 0.1139 Uani
I6 I 0.3766(3) 0.7422(3) 0.4283(5) 0.1081 Uani
N11G N 0.0639(4) 0.5246(8) 0.0512(5) 0.0938 Uani
N12B N 0.1377(5) -0.1551(10) 0.3198(6) 0.1243 Uani
Zn2B Zn 0.6716(3) 0.3633(6) 0.2683(3) 0.1038 Uani
Zn3G Zn 0.58051(6) -0.12977(11) 0.59563(7) 0.0871 Uani
C37 C 0.6905(12) 0.098(2) 0.5818(12) 0.1717 Uani
H25 H 0.6659 0.1326 0.5826 0.2050 Uiso
C38 C 0.7213(12) 0.150(2) 0.5706(18) 0.1780 Uani
H26 H 0.7152 0.1690 0.5385 0.2130 Uiso
H27 H 0.7247 0.2043 0.5899 0.2130 Uiso
C39 C 0.7555(10) 0.099(3) 0.578(2) 0.1857 Uani
H28 H 0.7623 0.0835 0.6101 0.2220 Uiso
H29 H 0.7775 0.1346 0.5690 0.2220 Uiso
C40 C 0.7511(10) 0.020(3) 0.5519(18) 0.1789 Uani
H30 H 0.7487 0.0355 0.5193 0.2140 Uiso
H31 H 0.7749 -0.0175 0.5600 0.2140 Uiso
C41 C 0.7181(10) -0.028(3) 0.5591(12) 0.1724 Uani
H32 H 0.7148 -0.0865 0.5423 0.2060 Uiso
O1 O 0.6860(8) 0.030(2) 0.5488(13) 0.1650 Uani
O2 O 0.7011(9) 0.043(3) 0.6196(10) 0.1725 Uani
O3 O 0.7164(9) -0.036(3) 0.6053(12) 0.1705 Uani
C42 C 0.439(3) 0.757(6) 0.289(4) 0.5851 Uani
H33 H 0.4613 0.7608 0.2727 0.8760 Uiso
H34 H 0.4344 0.8156 0.3020 0.8760 Uiso
H35 H 0.4155 0.7380 0.2685 0.8760 Uiso
C43 C 0.449(3) 0.685(7) 0.329(3) 0.5763 Uani
H36 H 0.4485 0.6255 0.3145 0.6940 Uiso
H37 H 0.4259 0.6855 0.3457 0.6940 Uiso
C44 C 0.487(2) 0.685(7) 0.368(3) 0.5615 Uani
H38 H 0.4739 0.6736 0.3946 0.6740 Uiso
H39 H 0.4918 0.7510 0.3695 0.6740 Uiso
C45 C 0.531(2) 0.654(6) 0.391(3) 0.5369 Uani
H40 H 0.5362 0.6965 0.4171 0.6410 Uiso
H41 H 0.5253 0.5968 0.4049 0.6410 Uiso
C46 C 0.576(2) 0.635(6) 0.384(3) 0.4966 Uani
H42 H 0.5709 0.5713 0.3767 0.5990 Uiso
H43 H 0.5719 0.6637 0.3532 0.5990 Uiso
C47 C 0.622(2) 0.624(5) 0.384(3) 0.4236 Uani
H44 H 0.6297 0.5618 0.3906 0.6360 Uiso
H45 H 0.6366 0.6635 0.4071 0.6360 Uiso
H46 H 0.6283 0.6408 0.3541 0.6360 Uiso
C48 C 0.622(2) 0.005(6) 0.3574(19) 0.5459 Uani
H47 H 0.6193 -0.0612 0.3566 0.6520 Uiso
H48 H 0.6036 0.0244 0.3779 0.6520 Uiso
C49 C 0.596(2) 0.029(6) 0.310(2) 0.5290 Uani
H49 H 0.6146 0.0081 0.2901 0.6340 Uiso
H50 H 0.5769 -0.0213 0.3087 0.6340 Uiso
C50 C 0.5697(16) 0.090(5) 0.2725(15) 0.4167 Uani
H51 H 0.5546 0.0519 0.2493 0.6250 Uiso
H52 H 0.5869 0.1297 0.2584 0.6250 Uiso
H53 H 0.5516 0.1263 0.2872 0.6250 Uiso
C51 C 0.719(2) 0.150(4) 0.452(2) 0.5312 Uani
H54 H 0.7352 0.1827 0.4339 0.8020 Uiso
H55 H 0.7354 0.1284 0.4801 0.8020 Uiso
H56 H 0.6984 0.1895 0.4603 0.8020 Uiso
C52 C 0.699(2) 0.066(5) 0.424(3) 0.5346 Uani
H57 H 0.7037 0.0203 0.4486 0.6420 Uiso
H58 H 0.7198 0.0540 0.4057 0.6420 Uiso
C53 C 0.6633(19) 0.014(6) 0.392(2) 0.5492 Uani
H59 H 0.6576 -0.0307 0.4145 0.6560 Uiso
H60 H 0.6798 -0.0199 0.3734 0.6560 Uiso
loop_
_atom_site_aniso_label
_atom_site_aniso_U_11
_atom_site_aniso_U_22
_atom_site_aniso_U_33
_atom_site_aniso_U_23
_atom_site_aniso_U_13
_atom_site_aniso_U_12
C1 0.134(11) 0.054(6) 0.231(13) -0.017(7) -0.118(11) 0.011(6)
C2 0.111(9) 0.042(5) 0.195(12) -0.011(6) -0.090(9) 0.012(5)
C3 0.105(8) 0.043(5) 0.171(10) -0.015(5) -0.083(8) 0.016(5)
C4 0.127(10) 0.048(6) 0.179(11) -0.018(6) -0.094(9) 0.019(6)
C5 0.148(11) 0.050(6) 0.213(13) -0.016(7) -0.125(11) 0.024(6)
C6 0.103(8) 0.039(4) 0.149(9) -0.006(5) -0.073(8) 0.008(4)
C7 0.086(7) 0.039(4) 0.134(8) 0.003(4) -0.063(7) 0.004(4)
C8 0.101(8) 0.040(4) 0.136(9) 0.006(4) -0.067(8) -0.001(4)
C9 0.126(10) 0.053(6) 0.141(11) 0.019(6) -0.061(9) 0.003(5)
C10 0.127(10) 0.052(5) 0.159(12) 0.014(6) -0.075(10) 0.001(5)
C11 0.117(9) 0.043(5) 0.132(10) 0.008(5) -0.065(8) -0.004(4)
C12 0.126(10) 0.050(5) 0.136(11) 0.011(5) -0.070(9) -0.015(5)
C13 0.133(10) 0.049(5) 0.150(12) 0.012(6) -0.071(10) -0.014(5)
C14 0.096(8) 0.047(5) 0.115(8) -0.002(5) -0.050(7) 0.001(5)
C15 0.105(9) 0.042(5) 0.123(8) -0.001(5) -0.063(8) -0.002(5)
C16 0.096(8) 0.040(5) 0.141(8) 0.006(5) -0.074(8) 0.000(4)
C17 0.166(13) 0.050(6) 0.203(12) 0.022(7) -0.135(12) -0.021(7)
C18 0.167(13) 0.046(5) 0.199(13) 0.021(6) -0.130(12) -0.016(6)
N1 0.126(9) 0.051(5) 0.213(12) -0.030(6) -0.109(9) 0.026(5)
N2 0.082(6) 0.048(5) 0.138(8) -0.004(5) -0.064(6) 0.008(4)
N3 0.086(6) 0.043(4) 0.122(7) 0.005(4) -0.054(6) 0.003(4)
N4 0.090(6) 0.040(4) 0.123(7) -0.008(4) -0.053(6) 0.014(4)
N5 0.129(9) 0.052(5) 0.138(9) 0.016(5) -0.057(8) -0.010(5)
N6 0.099(7) 0.039(4) 0.121(8) 0.000(5) -0.056(6) 0.003(4)
C19 0.107(8) 0.058(7) 0.177(10) -0.013(6) -0.082(6) 0.013(6)
C20 0.099(7) 0.054(7) 0.157(9) -0.006(6) -0.077(6) 0.008(5)
C21 0.102(6) 0.049(6) 0.157(8) -0.001(6) -0.076(6) 0.000(5)
C22 0.128(9) 0.087(10) 0.177(9) 0.023(7) -0.068(7) 0.026(8)
C23 0.134(10) 0.102(12) 0.191(11) 0.007(9) -0.079(8) 0.038(9)
C24 0.099(6) 0.052(5) 0.124(7) 0.002(5) -0.075(5) -0.001(4)
C25 0.103(7) 0.048(5) 0.108(7) 0.003(4) -0.059(5) 0.001(4)
C26 0.106(6) 0.062(6) 0.113(6) 0.011(5) -0.068(4) -0.012(4)
C27 0.086(6) 0.057(6) 0.102(7) -0.002(5) -0.049(5) 0.002(4)
C28 0.084(6) 0.058(6) 0.101(7) -0.001(5) -0.053(5) 0.001(5)
C29 0.104(7) 0.051(5) 0.102(7) -0.001(5) -0.040(5) 0.008(5)
C30 0.145(9) 0.078(8) 0.170(12) 0.046(9) 0.015(9) 0.039(7)
C31 0.140(10) 0.076(8) 0.164(12) 0.038(8) 0.011(9) 0.034(7)
C32 0.167(12) 0.084(9) 0.160(11) 0.039(9) -0.015(9) 0.017(9)
C33 0.153(10) 0.088(9) 0.155(11) 0.039(8) -0.025(8) 0.012(8)
C34 0.129(8) 0.062(7) 0.122(7) 0.011(6) -0.054(5) -0.010(5)
C35 0.161(12) 0.100(10) 0.175(12) 0.056(9) -0.019(9) 0.023(9)
C36 0.174(12) 0.112(11) 0.188(13) 0.066(10) -0.006(10) 0.028(10)
N7 0.105(8) 0.059(6) 0.187(10) -0.008(7) -0.089(7) 0.007(6)
N8 0.109(6) 0.049(5) 0.107(6) -0.002(4) -0.065(5) 0.006(4)
N9 0.112(7) 0.061(5) 0.111(6) 0.009(5) -0.057(5) -0.007(5)
N10 0.109(6) 0.056(5) 0.127(7) 0.011(5) -0.069(5) -0.009(4)
N11 0.093(6) 0.059(6) 0.111(7) 0.006(5) -0.039(5) 0.005(5)
N12 0.134(9) 0.073(7) 0.143(9) 0.027(7) -0.047(7) -0.012(6)
Zn1 0.093(4) 0.088(3) 0.157(5) -0.028(4) -0.068(3) 0.022(3)
Zn2 0.125(3) 0.043(2) 0.120(4) 0.014(2) -0.051(3) -0.0113(18)
Zn3 0.0928(12) 0.0481(9) 0.0993(12) -0.0031(8) -0.0481(10) 0.0048(8)
I1 0.102(2) 0.254(5) 0.178(3) -0.106(3) -0.062(2) 0.050(3)
I2 0.125(2) 0.0521(13) 0.113(3) 0.0098(17) -0.0158(17) 0.0057(10)
I3 0.172(3) 0.0585(10) 0.1348(14) 0.0037(8) -0.0663(14) -0.0145(11)
I4 0.1119(17) 0.0592(10) 0.1123(16) -0.0006(10) -0.0199(11) -0.0151(10)
I5 0.1265(16) 0.0838(11) 0.1095(13) 0.0027(9) -0.0467(10) 0.0360(9)
I6 0.092(4) 0.049(2) 0.153(6) 0.009(4) -0.071(3) -0.010(3)
N11G 0.093 0.059 0.111 -0.006 -0.039 -0.005
N12B 0.134 0.073 0.143 0.027 -0.047 -0.012
Zn2B 0.125 0.043 0.12 0.014 -0.051 -0.0113
Zn3G 0.0928 0.0481 0.0993 0.0031 -0.0481 -0.0048
C37 0.115(15) 0.20(2) 0.188(19) -0.014(15) -0.012(14) 0.007(12)
C38 0.124(15) 0.20(2) 0.20(2) -0.020(16) -0.004(16) -0.001(14)
C39 0.126(15) 0.21(2) 0.21(3) -0.027(19) -0.006(15) -0.001(14)
C40 0.117(14) 0.21(2) 0.20(2) -0.022(17) -0.004(15) -0.002(14)
C41 0.110(13) 0.20(2) 0.195(19) -0.014(15) -0.012(13) 0.006(13)
O1 0.105(12) 0.19(2) 0.188(18) -0.013(15) -0.012(12) 0.006(12)
O2 0.114(16) 0.20(2) 0.192(18) -0.012(15) -0.010(13) 0.009(13)
O3 0.107(15) 0.20(2) 0.193(18) -0.012(15) -0.010(13) 0.007(13)
C42 0.37(7) 0.65(8) 0.70(9) 0.06(7) -0.02(7) 0.07(7)
C43 0.39(6) 0.64(7) 0.68(8) 0.04(6) 0.03(6) 0.12(6)
C44 0.38(6) 0.63(6) 0.66(8) 0.03(6) 0.04(6) 0.13(6)
C45 0.38(6) 0.58(6) 0.64(7) 0.02(5) 0.05(6) 0.12(6)
C46 0.37(6) 0.50(6) 0.61(7) 0.01(5) 0.05(6) 0.10(6)
C47 0.37(6) 0.36(6) 0.53(8) -0.02(6) 0.04(6) 0.08(6)
C48 0.49(6) 0.82(7) 0.29(4) 0.06(5) -0.05(3) 0.27(5)
C49 0.48(6) 0.79(7) 0.28(4) 0.06(5) -0.05(4) 0.26(5)
C50 0.33(5) 0.75(8) 0.17(3) 0.03(4) 0.04(3) 0.26(6)
C51 0.40(6) 0.78(8) 0.36(6) 0.03(5) -0.10(5) 0.38(5)
C52 0.47(6) 0.81(7) 0.29(5) 0.04(5) -0.04(4) 0.30(5)
C53 0.49(6) 0.83(7) 0.29(4) 0.05(5) -0.05(3) 0.28(5)
loop_
_geom_bond_atom_site_label_1
_geom_bond_atom_site_label_2
_geom_bond_site_symmetry_1
_geom_bond_site_symmetry_2
C1 H1 1_555 1_555
C2 C1 1_555 1_555
H2 C2 1_555 1_555
C3 C2 1_555 1_555
C4 C3 1_555 1_555
H3 C4 1_555 1_555
C5 C4 1_555 1_555
H4 C5 1_555 1_555
C6 C3 1_555 1_555
C7 C16 1_555 1_555
C8 C11 1_555 1_555
C9 H5 1_555 1_555
C10 C9 1_555 1_555
H6 C10 1_555 1_555
C11 C10 1_555 1_555
C12 C11 1_555 1_555
H7 C12 1_555 1_555
C13 C12 1_555 1_555
H8 C13 1_555 1_555
C14 H9 1_555 1_555
C15 C14 1_555 1_555
H10 C15 1_555 1_555
C16 C15 1_555 1_555
C17 C16 1_555 1_555
H11 C17 1_555 1_555
C18 C17 1_555 1_555
H12 C18 1_555 1_555
N1 C1 1_555 1_555
N2 C6 1_555 1_555
N3 C7 1_555 1_555
N4 C6 1_555 1_555
N5 C9 1_555 1_555
N6 C14 1_555 1_555
C19 H13 1_555 1_555
C20 C19 1_555 1_555
H14 C20 1_555 1_555
C21 C20 1_555 1_555
C22 C21 1_555 1_555
H15 C22 1_555 1_555
C23 C22 1_555 1_555
H16 C23 1_555 1_555
C24 C21 1_555 1_555
C25 C29 1_555 1_555
C26 C34 1_555 1_555
C27 H17 1_555 1_555
C28 C27 1_555 1_555
H18 C28 1_555 1_555
C29 C28 1_555 1_555
C30 C29 1_555 1_555
H19 C30 1_555 1_555
C31 C30 1_555 1_555
H20 C31 1_555 1_555
C32 H21 1_555 1_555
C33 C32 1_555 1_555
H22 C33 1_555 1_555
C34 C33 1_555 1_555
C35 C34 1_555 1_555
H23 C35 1_555 1_555
C36 C35 1_555 1_555
H24 C36 1_555 1_555
N7 C19 1_555 1_555
N8 C24 1_555 1_555
N9 C25 1_555 1_555
N10 C24 1_555 1_555
N11 C27 1_555 1_555
N12 C32 1_555 1_555
Zn1 N1 1_555 1_555
Zn2 N5 1_555 1_555
Zn3 N6 1_555 1_555
I1 Zn1 1_555 1_555
I2 Zn2 1_555 1_555
I3 Zn2 1_555 1_555
I4 Zn3 1_555 1_555
I5 Zn3 1_555 1_555
I6 Zn1 1_555 1_555
C37 H25 1_555 1_555
C38 C37 1_555 1_555
H26 C38 1_555 1_555
H27 C38 1_555 1_555
C39 C38 1_555 1_555
H28 C39 1_555 1_555
H29 C39 1_555 1_555
C40 C39 1_555 1_555
H30 C40 1_555 1_555
H31 C40 1_555 1_555
C41 C40 1_555 1_555
H32 C41 1_555 1_555
O1 C37 1_555 1_555
O2 C37 1_555 1_555
O3 C41 1_555 1_555
C42 H33 1_555 1_555
H34 C42 1_555 1_555
H35 C42 1_555 1_555
C43 C42 1_555 1_555
H36 C43 1_555 1_555
H37 C43 1_555 1_555
C44 C43 1_555 1_555
H38 C44 1_555 1_555
H39 C44 1_555 1_555
C45 C44 1_555 1_555
H40 C45 1_555 1_555
H41 C45 1_555 1_555
C46 C45 1_555 1_555
H42 C46 1_555 1_555
H43 C46 1_555 1_555
C47 C46 1_555 1_555
H44 C47 1_555 1_555
H45 C47 1_555 1_555
H46 C47 1_555 1_555
C48 H47 1_555 1_555
H48 C48 1_555 1_555
C49 C48 1_555 1_555
H49 C49 1_555 1_555
H50 C49 1_555 1_555
C50 C49 1_555 1_555
H51 C50 1_555 1_555
H52 C50 1_555 1_555
H53 C50 1_555 1_555
C51 H54 1_555 1_555
H55 C51 1_555 1_555
H56 C51 1_555 1_555
C52 C51 1_555 1_555
H57 C52 1_555 1_555
H58 C52 1_555 1_555
C53 C48 1_555 1_555
H59 C53 1_555 1_555
H60 C53 1_555 1_555
N11G Zn3 1_555 1_555
N12B Zn2 1_555 1_555
Zn2B N12 1_555 1_555
Zn3G N11 1_555 1_555
C5 N1 1_555 1_555
C7 N2 1_555 1_555
C8 N3 1_555 1_555
C8 N4 1_555 1_555
C13 N5 1_555 1_555
C18 N6 1_555 1_555
C23 N7 1_555 1_555
C25 N8 1_555 1_555
C26 N9 1_555 1_555
C26 N10 1_555 1_555
C31 N11 1_555 1_555
C36 N12 1_555 1_555
N7 Zn1 1_555 1_555
C41 O1 1_555 1_555
O2 O3 1_555 1_555
C52 C53 1_555 1_555

#END
