
#######################################################################
#
#                 Cambridge Crystallographic Data Centre
#                                CCDC 
#
#######################################################################
#
# If this CIF has been generated from an entry in the Cambridge 
# Structural Database, then it will include bibliographic, chemical, 
# crystal, experimental, refinement or atomic coordinate data resulting 
# from the CCDC's data processing and validation procedures.
#
#######################################################################

data_IWEWEO
_chemical_formula_moiety         'C70 H60 I6 N14 O8 Zn5'
_symmetry_cell_setting           monoclinic
_symmetry_space_group_name_H-M   'C 2/c'
_symmetry_Int_Tables_number      15
_space_group_name_Hall           '-C 2yc'
loop_
_symmetry_equiv_pos_site_id
_symmetry_equiv_pos_as_xyz
1 x,y,z
2 -x,y,1/2-z
3 1/2+x,1/2+y,z
4 1/2-x,1/2+y,1/2-z
5 -x,-y,-z
6 x,-y,1/2+z
7 1/2-x,1/2-y,-z
8 1/2+x,1/2-y,1/2+z
_cell_length_a                   34.8492(12)
_cell_length_b                   14.8584(5)
_cell_length_c                   31.0351(10)
_cell_angle_alpha                90
_cell_angle_beta                 101.858(3)
_cell_angle_gamma                90
_cell_volume                     15727.1
loop_
_atom_site_label
_atom_site_type_symbol
_atom_site_fract_x
_atom_site_fract_y
_atom_site_fract_z
C37 C 0.2417(6) 0.5639(13) 0.5665(7)
C38 C 0.2094(5) 0.5367(14) 0.5820(6)
H25 H 0.1917 0.5814 0.5880
C39 C 0.2012(6) 0.4478(14) 0.5894(6)
H26 H 0.1785 0.4320 0.6003
C40 C 0.2266(7) 0.3823(15) 0.5805(10)
H27 H 0.2211 0.3204 0.5836
C41 C 0.2602(7) 0.4088(15) 0.5670(11)
H28 H 0.2788 0.3645 0.5629
C42 C 0.2675(8) 0.4980(15) 0.5591(12)
H29 H 0.2904 0.5140 0.5487
C43 C 0.2496(10) 0.6596(17) 0.5574(15)
O1 O 0.2285(9) 0.7242(15) 0.5675(14)
O2 O 0.2794(10) 0.6845(18) 0.5394(15)
C44 C 0.5129(3) 0.7834(11) 0.8679(4)
C45 C 0.5322(4) 0.7164(9) 0.8953(5)
H30 H 0.5260 0.6549 0.8888
C46 C 0.5606(4) 0.7393(11) 0.9320(4)
H31 H 0.5738 0.6935 0.9507
C47 C 0.5697(4) 0.8292(13) 0.9414(4)
H32 H 0.5891 0.8449 0.9665
C48 C 0.5503(5) 0.8963(10) 0.9140(5)
H33 H 0.5565 0.9577 0.9204
C49 C 0.5220(4) 0.8733(10) 0.8772(4)
H34 H 0.5087 0.9191 0.8585
C50 C 0.4826(7) 0.7618(15) 0.8286(7)
O3 O 0.4746(7) 0.6796(13) 0.8178(8)
O4 O 0.4655(5) 0.8246(13) 0.8017(6)
C51 C 0.3931(7) 0.6880(15) 0.6736(7)
C52 C 0.3706(8) 0.7536(16) 0.6489(8)
H35 H 0.3700 0.8125 0.6607
C53 C 0.3487(11) 0.7349(19) 0.6072(9)
H36 H 0.3346 0.7810 0.5894
C54 C 0.3479(12) 0.647(2) 0.5922(10)
H37 H 0.3311 0.6313 0.5651
C55 C 0.3712(12) 0.5808(19) 0.6162(10)
H38 H 0.3745 0.5238 0.6035
C56 C 0.3896(10) 0.6002(16) 0.6591(8)
H39 H 0.4000 0.5528 0.6786
C57 C 0.4182(7) 0.7072(16) 0.7172(8)
O5 O 0.4328(7) 0.6447(15) 0.7448(7)
O6 O 0.4235(6) 0.7919(15) 0.7304(8)
C58 C 0.2183(7) 0.4890(15) 0.4583(7)
C59 C 0.2403(8) 0.4324(19) 0.4380(9)
H40 H 0.2579 0.4559 0.4212
C60 C 0.1900(10) 0.4583(18) 0.4794(12)
H41 H 0.1704 0.4976 0.4860
C61 C 0.2258(11) 0.5867(18) 0.4583(14)
C62 C 0.1908(12) 0.3676(19) 0.4910(13)
H42 H 0.1787 0.3461 0.5137
C63 C 0.2104(12) 0.3108(19) 0.4675(13)
H43 H 0.2058 0.2480 0.4688
C64 C 0.2362(9) 0.3404(19) 0.4423(10)
H44 H 0.2506 0.2991 0.4285
O7 O 0.2059(9) 0.6466(17) 0.4735(11)
O8 O 0.2534(10) 0.616(2) 0.4388(14)
C65 C 0.1073(16) 0.447(6) 0.325(2)
H45 H 0.0967 0.5063 0.3145
H46 H 0.0881 0.4001 0.3127
C66 C 0.1143(19) 0.444(5) 0.376(2)
H47 H 0.0887 0.4519 0.3845
H48 H 0.1243 0.3838 0.3858
C67 C 0.143(2) 0.514(4) 0.4004(19)
H49 H 0.1533 0.4937 0.4309
H50 H 0.1288 0.5721 0.4020
C68 C 0.1764(18) 0.528(4) 0.375(2)
H51 H 0.1701 0.5762 0.3533
H52 H 0.2013 0.5422 0.3960
C69 C 0.1792(15) 0.436(3) 0.353(2)
H53 H 0.1763 0.3869 0.3736
H54 H 0.2052 0.4303 0.3451
C70 C 0.147(2) 0.430(5) 0.3114(18)
H55 H 0.1468 0.3694 0.2980
H56 H 0.1509 0.4753 0.2896
C1 C 0.3379(3) 0.5466(5) 0.7476(3)
H1 H 0.3591 0.5213 0.7682
C2 C 0.3334(3) 0.6391(5) 0.7471(3)
H2 H 0.3507 0.6760 0.7674
C3 C 0.3033(2) 0.6767(4) 0.7165(3)
C4 C 0.2790(3) 0.6191(5) 0.6878(3)
H3 H 0.2580 0.6421 0.6661
C5 C 0.2860(3) 0.5270(6) 0.6915(4)
H4 H 0.2695 0.4877 0.6717
N1 N 0.3145(2) 0.4920(4) 0.7214(2)
C6 C 0.2962(2) 0.7756(5) 0.7166(2)
N2 N 0.32103(18) 0.8210(4) 0.7477(2)
C7 C 0.3118(2) 0.9072(4) 0.7509(3)
N3 N 0.28146(18) 0.9483(4) 0.7263(2)
C8 C 0.2600(2) 0.8984(5) 0.6944(2)
N4 N 0.26629(18) 0.8104(4) 0.6883(2)
C9 C 0.3945(3) 0.9731(6) 0.8427(3)
H5 H 0.4193 0.9497 0.8568
C10 C 0.3713(3) 0.9235(6) 0.8093(3)
H6 H 0.3794 0.8657 0.8017
C11 C 0.3369(2) 0.9590(4) 0.7878(2)
C12 C 0.3255(2) 1.0425(5) 0.8000(3)
H7 H 0.3015 1.0687 0.7851
C13 C 0.3493(3) 1.0873(5) 0.8342(3)
H8 H 0.3414 1.1447 0.8426
N5 N 0.3830(2) 1.0528(4) 0.8558(2)
C14 C 0.1744(3) 0.9473(6) 0.6027(3)
H9 H 0.1584 0.9164 0.5787
C15 C 0.2036(3) 0.9001(5) 0.6296(3)
H10 H 0.2069 0.8378 0.6247
C16 C 0.2278(2) 0.9429(5) 0.6637(2)
C17 C 0.2202(2) 1.0340(5) 0.6697(3)
H11 H 0.2361 1.0666 0.6931
C18 C 0.1899(2) 1.0762(5) 0.6418(3)
H12 H 0.1849 1.1378 0.6467
N6 N 0.16719(19) 1.0338(4) 0.6082(2)
C19 C 0.3461(3) 0.2853(7) 0.6442(3)
H13 H 0.3206 0.2596 0.6395
C20 C 0.3692(3) 0.2687(6) 0.6137(3)
H14 H 0.3600 0.2320 0.5886
C21 C 0.4063(2) 0.3075(5) 0.6207(2)
C22 C 0.4189(3) 0.3585(8) 0.6577(3)
H15 H 0.4442 0.3854 0.6634
C23 C 0.3934(3) 0.3699(8) 0.6867(4)
H16 H 0.4022 0.4042 0.7127
C24 C 0.4319(2) 0.2945(5) 0.5885(2)
C25 C 0.4481(2) 0.2158(5) 0.5332(2)
C26 C 0.4811(2) 0.3410(5) 0.5581(2)
C27 C 0.5330(2) 0.4080(5) 0.5227(3)
H17 H 0.5247 0.3712 0.4974
C28 C 0.5637(2) 0.4656(5) 0.5250(3)
H18 H 0.5764 0.4683 0.5008
C29 C 0.5139(2) 0.4041(5) 0.5578(2)
C30 C 0.5259(4) 0.4633(9) 0.5926(4)
H19 H 0.5125 0.4664 0.6163
C31 C 0.5580(5) 0.5174(11) 0.5919(4)
H20 H 0.5668 0.5562 0.6163
C32 C 0.4635(2) 0.0385(5) 0.4520(2)
H21 H 0.4820 0.0243 0.4345
C33 C 0.4696(2) 0.1150(5) 0.4784(2)
H22 H 0.4916 0.1527 0.4786
C34 C 0.4431(3) 0.1346(5) 0.5040(2)
C35 C 0.4114(4) 0.0795(7) 0.5025(4)
H23 H 0.3924 0.0923 0.5197
C36 C 0.4076(4) 0.0046(7) 0.4753(4)
H24 H 0.3858 -0.0342 0.4746
N7 N 0.3580(2) 0.3357(4) 0.6797(2)
N8 N 0.4242(2) 0.2234(4) 0.5618(2)
N9 N 0.4761(2) 0.2749(4) 0.52864(19)
N10 N 0.46034(19) 0.3543(4) 0.5891(2)
N11 N 0.5770(2) 0.5184(5) 0.5596(2)
N12 N 0.4328(2) -0.0154(4) 0.4503(2)
Zn1 Zn 0.3261(2) 0.3564(6) 0.7294(2)
I1 I 0.37157(11) 0.3310(2) 0.80341(12)
I2 I 0.26312(10) 0.2675(2) 0.70295(10)
Zn2 Zn 0.1236(2) 1.1036(5) 0.5675(2)
I3 I 0.10764(7) 1.24463(17) 0.60669(7)
I4 I 0.14528(10) 1.0988(3) 0.49434(9)
Zn3 Zn 0.42060(3) -0.12080(7) 0.40544(3)
I5 I 0.48013(2) -0.14424(5) 0.37197(2)
I6 I 0.37893(16) -0.2315(3) 0.43640(17)
N5E N 0.3830(2) -0.0528(4) 0.3558(2)
N11B N 0.0770(2) 1.0184(5) 0.5596(2)
Zn2B Zn 0.6236(2) 0.6036(5) 0.5675(2)
Zn3E Zn 0.42060(3) 1.12080(7) 0.90544(3)
loop_
_geom_bond_atom_site_label_1
_geom_bond_atom_site_label_2
_geom_bond_site_symmetry_1
_geom_bond_site_symmetry_2
C1 H1 1_555 1_555
C2 C1 1_555 1_555
H2 C2 1_555 1_555
C3 C2 1_555 1_555
C4 C3 1_555 1_555
H3 C4 1_555 1_555
C5 C4 1_555 1_555
H4 C5 1_555 1_555
N1 C1 1_555 1_555
C6 C3 1_555 1_555
N2 C6 1_555 1_555
C7 N2 1_555 1_555
N3 C7 1_555 1_555
C8 N3 1_555 1_555
N4 C6 1_555 1_555
C9 H5 1_555 1_555
C10 C9 1_555 1_555
H6 C10 1_555 1_555
C11 C7 1_555 1_555
C12 C11 1_555 1_555
H7 C12 1_555 1_555
C13 C12 1_555 1_555
H8 C13 1_555 1_555
N5 C9 1_555 1_555
C14 H9 1_555 1_555
C15 C14 1_555 1_555
H10 C15 1_555 1_555
C16 C8 1_555 1_555
C17 C16 1_555 1_555
H11 C17 1_555 1_555
C18 C17 1_555 1_555
H12 C18 1_555 1_555
N6 C14 1_555 1_555
C19 H13 1_555 1_555
C20 C19 1_555 1_555
H14 C20 1_555 1_555
C21 C20 1_555 1_555
C22 C21 1_555 1_555
H15 C22 1_555 1_555
C23 C22 1_555 1_555
H16 C23 1_555 1_555
C24 C21 1_555 1_555
C25 C34 1_555 1_555
C26 C29 1_555 1_555
C27 H17 1_555 1_555
C28 C27 1_555 1_555
H18 C28 1_555 1_555
C29 C27 1_555 1_555
C30 C29 1_555 1_555
H19 C30 1_555 1_555
C31 C30 1_555 1_555
H20 C31 1_555 1_555
C32 H21 1_555 1_555
C33 C32 1_555 1_555
H22 C33 1_555 1_555
C34 C33 1_555 1_555
C35 C34 1_555 1_555
H23 C35 1_555 1_555
C36 C35 1_555 1_555
H24 C36 1_555 1_555
N7 C19 1_555 1_555
N8 C24 1_555 1_555
N9 C25 1_555 1_555
N10 C24 1_555 1_555
N11 C28 1_555 1_555
N12 C32 1_555 1_555
Zn1 N1 1_555 1_555
I1 Zn1 1_555 1_555
I2 Zn1 1_555 1_555
Zn2 N6 1_555 1_555
I3 Zn2 1_555 1_555
I4 Zn2 1_555 1_555
Zn3 N12 1_555 1_555
I5 Zn3 1_555 1_555
I6 Zn3 1_555 1_555
C37 C38 1_555 1_555
C38 H25 1_555 1_555
C39 C38 1_555 1_555
H26 C39 1_555 1_555
C40 C39 1_555 1_555
H27 C40 1_555 1_555
C41 C40 1_555 1_555
H28 C41 1_555 1_555
C42 C37 1_555 1_555
H29 C42 1_555 1_555
C43 C37 1_555 1_555
O1 C43 1_555 1_555
O2 C43 1_555 1_555
C44 C45 1_555 1_555
C45 H30 1_555 1_555
C46 C45 1_555 1_555
H31 C46 1_555 1_555
C47 C46 1_555 1_555
H32 C47 1_555 1_555
C48 C47 1_555 1_555
H33 C48 1_555 1_555
C49 C44 1_555 1_555
H34 C49 1_555 1_555
C50 C44 1_555 1_555
O3 C50 1_555 1_555
O4 C50 1_555 1_555
C51 C52 1_555 1_555
C52 H35 1_555 1_555
C53 C52 1_555 1_555
H36 C53 1_555 1_555
C54 C53 1_555 1_555
H37 C54 1_555 1_555
C55 C54 1_555 1_555
H38 C55 1_555 1_555
C56 C51 1_555 1_555
H39 C56 1_555 1_555
C57 C51 1_555 1_555
O5 C57 1_555 1_555
O6 C57 1_555 1_555
C58 C59 1_555 1_555
C59 H40 1_555 1_555
C60 C58 1_555 1_555
H41 C60 1_555 1_555
C61 C58 1_555 1_555
C62 C60 1_555 1_555
H42 C62 1_555 1_555
C63 C62 1_555 1_555
H43 C63 1_555 1_555
C64 C59 1_555 1_555
H44 C64 1_555 1_555
O7 C61 1_555 1_555
O8 C61 1_555 1_555
C65 H45 1_555 1_555
H46 C65 1_555 1_555
C66 C65 1_555 1_555
H47 C66 1_555 1_555
H48 C66 1_555 1_555
C67 C66 1_555 1_555
H49 C67 1_555 1_555
H50 C67 1_555 1_555
C68 C67 1_555 1_555
H51 C68 1_555 1_555
H52 C68 1_555 1_555
C69 C68 1_555 1_555
H53 C69 1_555 1_555
H54 C69 1_555 1_555
C70 C65 1_555 1_555
H55 C70 1_555 1_555
H56 C70 1_555 1_555
N5E Zn3 1_555 1_555
N11B Zn2 1_555 1_555
Zn2B N11 1_555 1_555
Zn3E N5 1_555 1_555
C5 N1 1_555 1_555
C8 N4 1_555 1_555
C10 C11 1_555 1_555
C13 N5 1_555 1_555
C15 C16 1_555 1_555
C18 N6 1_555 1_555
C23 N7 1_555 1_555
C25 N8 1_555 1_555
C26 N9 1_555 1_555
C26 N10 1_555 1_555
C31 N11 1_555 1_555
C36 N12 1_555 1_555
N7 Zn1 1_555 1_555
C41 C42 1_555 1_555
C48 C49 1_555 1_555
C55 C56 1_555 1_555
C63 C64 1_555 1_555
C69 C70 1_555 1_555

#END
