
#######################################################################
#
#                 Cambridge Crystallographic Data Centre
#                                CCDC 
#
#######################################################################
#
# If this CIF has been generated from an entry in the Cambridge 
# Structural Database, then it will include bibliographic, chemical, 
# crystal, experimental, refinement or atomic coordinate data resulting 
# from the CCDC's data processing and validation procedures.
#
#######################################################################

data_LABMOT
_chemical_formula_moiety         '(C66 H84 I6 N12 Zn3)n'
_symmetry_cell_setting           monoclinic
_symmetry_space_group_name_H-M   'C 2/c'
_symmetry_Int_Tables_number      15
_space_group_name_Hall           '-C 2yc'
loop_
_symmetry_equiv_pos_site_id
_symmetry_equiv_pos_as_xyz
1 x,y,z
2 -x,y,1/2-z
3 1/2+x,1/2+y,z
4 1/2-x,1/2+y,1/2-z
5 -x,-y,-z
6 x,-y,1/2+z
7 1/2-x,1/2-y,-z
8 1/2+x,1/2-y,1/2+z
_cell_length_a                   34.3760(7)
_cell_length_b                   15.0832(3)
_cell_length_c                   29.6413(9)
_cell_angle_alpha                90
_cell_angle_beta                 100.675(2)
_cell_angle_gamma                90
_cell_volume                     15103
loop_
_atom_site_label
_atom_site_type_symbol
_atom_site_fract_x
_atom_site_fract_y
_atom_site_fract_z
_atom_site_U_iso_or_equiv
_atom_site_thermal_displace_type
Zn1 Zn 0.32989(13) 0.3664(4) 0.72877(18) 0.0541 Uani
I1 I 0.37474(7) 0.34703(15) 0.80671(9) 0.0718 Uani
I2 I 0.26932(10) 0.2726(2) 0.70108(11) 0.0809 Uani
I3 I 0.62000(3) 0.73986(4) 0.57062(3) 0.0578 Uani
I4 I 0.66018(4) 0.55467(12) 0.46695(4) 0.0684 Uani
Zn2 Zn 0.63506(3) 0.59310(6) 0.53942(3) 0.0551 Uani
Zn3 Zn 0.42015(2) -0.12734(5) 0.40726(3) 0.0395 Uani
I5 I 0.38349(2) -0.23846(3) 0.44756(2) 0.0504 Uani
I6 I 0.47317(2) -0.15666(3) 0.36056(2) 0.0552 Uani
N1 N 0.3617(2) 0.3516(4) 0.6767(3) 0.0698 Uani
C1 C 0.3945(4) 0.3965(7) 0.6790(5) 0.1000 Uani
H1 H 0.4003 0.4418 0.7015 0.1200 Uiso
C2 C 0.4209(3) 0.3812(6) 0.6505(4) 0.0900 Uani
H2 H 0.4445 0.4151 0.6540 0.1080 Uiso
C3 C 0.4134(2) 0.3173(4) 0.6169(3) 0.0495 Uani
C4 C 0.3784(2) 0.2710(5) 0.6138(3) 0.0623 Uani
H3 H 0.3718 0.2262 0.5911 0.0750 Uiso
C5 C 0.3531(3) 0.2898(5) 0.6437(3) 0.0677 Uani
H4 H 0.3289 0.2581 0.6409 0.0810 Uiso
N2 N 0.58576(15) 0.5131(4) 0.5408(2) 0.0493 Uani
C6 C 0.5724(2) 0.5029(6) 0.5800(3) 0.0699 Uani
H5 H 0.5854 0.5343 0.6063 0.0830 Uiso
C7 C 0.5413(2) 0.4504(5) 0.5845(3) 0.0616 Uani
H6 H 0.5323 0.4469 0.6128 0.0740 Uiso
C8 C 0.52315(17) 0.4018(4) 0.5466(2) 0.0430 Uani
C9 C 0.53715(18) 0.4103(4) 0.5067(2) 0.0450 Uani
H7 H 0.5256 0.3770 0.4804 0.0540 Uiso
C10 C 0.56807(18) 0.4673(4) 0.5048(2) 0.0462 Uani
H8 H 0.5770 0.4740 0.4765 0.0550 Uiso
N3 N 0.44073(14) -0.0268(3) 0.45372(17) 0.0402 Uani
C11 C 0.42126(19) -0.0109(4) 0.4876(2) 0.0470 Uani
H9 H 0.4026 -0.0535 0.4939 0.0570 Uiso
C12 C 0.42686(19) 0.0638(4) 0.5138(2) 0.0470 Uani
H10 H 0.4124 0.0725 0.5378 0.0560 Uiso
C13 C 0.45398(16) 0.1275(4) 0.50516(19) 0.0380 Uani
C14 C 0.47553(16) 0.1090(4) 0.4710(2) 0.0407 Uani
H11 H 0.4951 0.1494 0.4649 0.0490 Uiso
C15 C 0.46835(17) 0.0319(4) 0.4461(2) 0.0393 Uani
H12 H 0.4833 0.0196 0.4229 0.0470 Uiso
C16 C 0.43973(18) 0.2999(4) 0.5846(2) 0.0453 Uani
N4 N 0.46853(15) 0.3590(3) 0.58158(19) 0.0453 Uani
C17 C 0.49044(17) 0.3398(4) 0.5508(2) 0.0419 Uani
N5 N 0.48712(14) 0.2682(3) 0.52366(17) 0.0425 Uani
C18 C 0.45842(16) 0.2120(4) 0.53139(19) 0.0399 Uani
N6 N 0.43410(15) 0.2247(3) 0.56029(18) 0.0434 Uani
N7 N 0.67533(17) 0.5330(4) 0.5906(2) 0.0532 Uani
C19 C 0.6997(2) 0.5797(4) 0.6225(3) 0.0612 Uani
H13 H 0.6974 0.6425 0.6226 0.0740 Uiso
C20 C 0.7278(2) 0.5395(4) 0.6551(3) 0.0593 Uani
H14 H 0.7448 0.5741 0.6773 0.0710 Uiso
C21 C 0.73111(17) 0.4481(4) 0.6553(2) 0.0426 Uani
C22 C 0.7060(2) 0.4002(4) 0.6225(2) 0.0520 Uani
H15 H 0.7075 0.3373 0.6219 0.0620 Uiso
C23 C 0.6786(2) 0.4451(4) 0.5907(3) 0.0576 Uani
H16 H 0.6614 0.4119 0.5680 0.0690 Uiso
N8 N 0.87716(14) 0.5533(3) 0.86378(17) 0.0402 Uani
C24 C 0.84999(19) 0.5955(4) 0.8330(2) 0.0469 Uani
H17 H 0.8471 0.6578 0.8358 0.0560 Uiso
C25 C 0.82605(19) 0.5518(4) 0.7973(2) 0.0475 Uani
H18 H 0.8074 0.5836 0.7756 0.0570 Uiso
C26 C 0.82983(16) 0.4605(3) 0.7939(2) 0.0373 Uani
C27 C 0.85562(19) 0.4165(4) 0.8275(2) 0.0499 Uani
H19 H 0.8577 0.3537 0.8272 0.0590 Uiso
C28 C 0.8784(2) 0.4658(4) 0.8619(2) 0.0521 Uani
H20 H 0.8959 0.4353 0.8854 0.0630 Uiso
N9 N 0.8125(2) 0.0007(4) 0.7205(3) 0.0638 Uani
C29 C 0.8306(3) 0.0531(5) 0.7538(3) 0.0730 Uani
H21 H 0.8484 0.0274 0.7787 0.0880 Uiso
C30 C 0.8247(3) 0.1444(5) 0.7535(3) 0.0684 Uani
H22 H 0.8379 0.1801 0.7781 0.0820 Uiso
C31 C 0.79972(19) 0.1818(4) 0.7175(2) 0.0473 Uani
C32 C 0.7813(2) 0.1284(5) 0.6826(3) 0.0606 Uani
H23 H 0.7637 0.1525 0.6571 0.0730 Uiso
C33 C 0.7891(2) 0.0380(5) 0.6856(4) 0.0698 Uani
H24 H 0.7768 0.0012 0.6610 0.0840 Uiso
C34 C 0.76049(16) 0.4023(4) 0.6906(2) 0.0404 Uani
N10 N 0.77979(14) 0.4529(3) 0.72503(18) 0.0412 Uani
C35 C 0.80715(16) 0.4100(4) 0.7548(2) 0.0383 Uani
N11 N 0.81582(14) 0.3239(3) 0.75197(18) 0.0415 Uani
C36 C 0.79361(17) 0.2798(4) 0.7176(2) 0.0419 Uani
N12 N 0.76591(14) 0.3156(3) 0.68563(18) 0.0424 Uani
Zn1B Zn 0.82989(13) -0.1336(4) 0.72877(18) 0.0541 Uani
Zn3G Zn 0.92015(2) 0.62734(5) 0.90726(3) 0.0395 Uani
N8G N 0.37716(14) -0.0533(3) 0.36378(17) 0.0402 Uani
N9B N 0.3125(2) 0.5007(4) 0.7205(3) 0.0638 Uani
C37 C 0.4664(4) 0.2146(10) 0.3470(4) 0.1025 Uani
H25 H 0.4894 0.1908 0.3688 0.1230 Uiso
H26 H 0.4420 0.1933 0.3568 0.1230 Uiso
C38 C 0.4674(5) 0.1804(13) 0.2998(5) 0.1319 Uani
H27 H 0.4653 0.1149 0.2996 0.1580 Uiso
H28 H 0.4930 0.1963 0.2911 0.1580 Uiso
C39 C 0.4337(4) 0.2193(11) 0.2649(5) 0.1175 Uani
H29 H 0.4359 0.1988 0.2337 0.1410 Uiso
H30 H 0.4081 0.1979 0.2716 0.1410 Uiso
C40 C 0.4345(5) 0.3194(13) 0.2663(5) 0.1363 Uani
H31 H 0.4585 0.3410 0.2558 0.1630 Uiso
H32 H 0.4111 0.3429 0.2451 0.1630 Uiso
C41 C 0.4344(5) 0.3527(13) 0.3137(5) 0.1431 Uani
H33 H 0.4089 0.3370 0.3225 0.1720 Uiso
H34 H 0.4364 0.4181 0.3137 0.1720 Uiso
C42 C 0.4674(4) 0.3162(11) 0.3489(4) 0.1116 Uani
H35 H 0.4645 0.3366 0.3798 0.1340 Uiso
H36 H 0.4931 0.3378 0.3428 0.1340 Uiso
C43 C 0.5842(4) 0.2164(13) 0.4097(5) 0.1237 Uani
H37 H 0.5680 0.1876 0.3825 0.1480 Uiso
H38 H 0.5780 0.1875 0.4375 0.1480 Uiso
C44 C 0.5744(5) 0.3082(11) 0.4101(4) 0.1153 Uani
H39 H 0.5890 0.3352 0.4387 0.1380 Uiso
H40 H 0.5457 0.3140 0.4103 0.1380 Uiso
C45 C 0.5843(5) 0.3609(12) 0.3678(7) 0.1480 Uani
H41 H 0.5671 0.3402 0.3392 0.1780 Uiso
H42 H 0.5793 0.4249 0.3714 0.1780 Uiso
C46 C 0.6268(4) 0.3468(10) 0.3647(6) 0.1201 Uani
H43 H 0.6437 0.3797 0.3898 0.1440 Uiso
H44 H 0.6316 0.3714 0.3352 0.1440 Uiso
C47 C 0.6388(4) 0.2470(9) 0.3678(4) 0.0999 Uani
H45 H 0.6256 0.2161 0.3396 0.1200 Uiso
H46 H 0.6677 0.2419 0.3697 0.1200 Uiso
C48 C 0.6274(4) 0.2038(11) 0.4083(4) 0.1108 Uani
H47 H 0.6435 0.2290 0.4366 0.1330 Uiso
H48 H 0.6333 0.1396 0.4077 0.1330 Uiso
C49 C 0.4069(5) 0.0486(17) 0.7386(5) 0.0967 Uani
H49 H 0.4107 0.0844 0.7671 0.1160 Uiso
H50 H 0.3976 -0.0110 0.7458 0.1160 Uiso
C50 C 0.3756(7) 0.0923(18) 0.7023(6) 0.0946 Uani
H51 H 0.3839 0.1533 0.6962 0.1130 Uiso
H52 H 0.3502 0.0959 0.7134 0.1130 Uiso
C51 C 0.3701(5) 0.0375(13) 0.6581(5) 0.0961 Uani
H53 H 0.3610 -0.0229 0.6639 0.1150 Uiso
H54 H 0.3499 0.0655 0.6342 0.1150 Uiso
C52 C 0.4095(5) 0.0324(12) 0.6414(5) 0.0872 Uani
H55 H 0.4175 0.0928 0.6338 0.1050 Uiso
H56 H 0.4059 -0.0035 0.6130 0.1050 Uiso
C53 C 0.4427(5) -0.0084(15) 0.6769(6) 0.0906 Uani
H57 H 0.4370 -0.0719 0.6810 0.1090 Uiso
H58 H 0.4681 -0.0041 0.6658 0.1090 Uiso
C54 C 0.4463(5) 0.0396(18) 0.7228(6) 0.0996 Uani
H59 H 0.4650 0.0067 0.7463 0.1190 Uiso
H60 H 0.4575 0.0994 0.7199 0.1190 Uiso
C55 C 0.3175(5) 0.0138(12) 0.5099(7) 0.1415 Uani
H61 H 0.2957 -0.0226 0.5176 0.1700 Uiso
H62 H 0.3429 -0.0123 0.5254 0.1700 Uiso
C56 C 0.3155(4) 0.0152(12) 0.4579(6) 0.1286 Uani
H63 H 0.3388 0.0478 0.4513 0.1540 Uiso
H64 H 0.3173 -0.0465 0.4471 0.1540 Uiso
C57 C 0.2788(5) 0.0568(13) 0.4312(7) 0.1556 Uani
H65 H 0.2553 0.0211 0.4344 0.1880 Uiso
H66 H 0.2805 0.0594 0.3982 0.1880 Uiso
C58 C 0.2750(7) 0.1519(14) 0.4500(9) 0.1795 Uani
H67 H 0.2971 0.1891 0.4437 0.2160 Uiso
H68 H 0.2499 0.1790 0.4342 0.2160 Uiso
C59 C 0.2757(7) 0.1486(18) 0.5018(9) 0.2005 Uani
H69 H 0.2730 0.2093 0.5135 0.2420 Uiso
H70 H 0.2532 0.1128 0.5080 0.2420 Uiso
C60 C 0.3140(6) 0.1084(15) 0.5262(9) 0.1881 Uani
H71 H 0.3148 0.1090 0.5597 0.2260 Uiso
H72 H 0.3366 0.1439 0.5198 0.2260 Uiso
C61 C 0.7298(5) 0.3270(13) 0.5110(5) 0.1357 Uani
H73 H 0.7047 0.3006 0.5164 0.1630 Uiso
H74 H 0.7284 0.3917 0.5160 0.1630 Uiso
C62 C 0.7336(5) 0.3106(12) 0.4623(5) 0.1258 Uani
H75 H 0.7580 0.3391 0.4560 0.1510 Uiso
H76 H 0.7107 0.3368 0.4413 0.1510 Uiso
C63 C 0.7352(4) 0.2122(12) 0.4537(5) 0.1267 Uani
H77 H 0.7394 0.2009 0.4220 0.1520 Uiso
H78 H 0.7100 0.1839 0.4575 0.1520 Uiso
C61F C 0.7702(5) 0.1730(13) 0.4890(5) 0.1357 Uani
H73F H 0.7953 0.1994 0.4836 0.1630 Uiso
H74F H 0.7716 0.1083 0.4840 0.1630 Uiso
C62F C 0.7664(5) 0.1894(12) 0.5377(5) 0.1258 Uani
H75F H 0.7420 0.1609 0.5440 0.1510 Uiso
H76F H 0.7893 0.1632 0.5587 0.1510 Uiso
C63F C 0.7648(4) 0.2878(12) 0.5463(5) 0.1267 Uani
H77F H 0.7606 0.2991 0.5780 0.1520 Uiso
H78F H 0.7900 0.3161 0.5425 0.1520 Uiso
loop_
_atom_site_aniso_label
_atom_site_aniso_U_11
_atom_site_aniso_U_22
_atom_site_aniso_U_33
_atom_site_aniso_U_23
_atom_site_aniso_U_13
_atom_site_aniso_U_12
Zn1 0.0582(14) 0.0268(11) 0.0764(17) -0.0059(9) 0.0105(13) 0.0002(9)
I1 0.1006(14) 0.0398(6) 0.0708(9) 0.0074(5) 0.0053(10) 0.0072(7)
I2 0.0706(11) 0.0481(8) 0.1327(18) -0.0337(8) 0.0414(12) -0.0177(7)
I3 0.0568(5) 0.0288(5) 0.0756(7) -0.0022(3) -0.0192(4) 0.0025(3)
I4 0.0512(6) 0.0936(8) 0.0574(6) 0.0203(5) 0.0023(5) -0.0043(5)
Zn2 0.0451(4) 0.0488(5) 0.0608(5) 0.0109(4) -0.0179(4) -0.0128(4)
Zn3 0.0409(4) 0.0324(4) 0.0391(4) 0.0021(3) -0.0081(3) -0.0013(3)
I5 0.0579(2) 0.03374(19) 0.0551(2) 0.00445(15) -0.00118(17) -0.00735(15)
I6 0.0556(2) 0.0574(3) 0.0499(2) 0.00334(18) 0.00257(18) 0.00911(18)
N1 0.088(5) 0.032(3) 0.101(5) -0.004(3) 0.048(4) 0.002(3)
C1 0.114(8) 0.069(6) 0.135(10) -0.050(6) 0.070(8) -0.033(6)
C2 0.102(7) 0.066(5) 0.115(8) -0.045(6) 0.054(7) -0.031(5)
C3 0.052(3) 0.034(3) 0.062(4) 0.002(3) 0.009(3) 0.001(2)
C4 0.068(4) 0.047(4) 0.074(5) -0.002(3) 0.019(4) -0.006(3)
C5 0.074(5) 0.043(4) 0.091(6) 0.001(4) 0.028(4) -0.003(3)
N2 0.043(3) 0.043(3) 0.055(3) 0.000(2) -0.009(2) -0.009(2)
C6 0.068(5) 0.075(5) 0.061(5) -0.019(4) -0.003(4) -0.029(4)
C7 0.065(4) 0.069(5) 0.048(4) -0.012(3) 0.003(3) -0.027(4)
C8 0.039(3) 0.033(3) 0.050(3) 0.001(2) -0.010(2) -0.003(2)
C9 0.045(3) 0.035(3) 0.048(3) -0.002(2) -0.010(2) 0.001(2)
C10 0.043(3) 0.037(3) 0.053(3) 0.003(2) -0.006(3) -0.002(2)
N3 0.038(2) 0.037(2) 0.040(2) 0.0011(19) -0.0074(19) -0.0027(19)
C11 0.048(3) 0.039(3) 0.051(3) 0.002(3) 0.001(3) -0.009(2)
C12 0.047(3) 0.043(3) 0.048(3) -0.002(2) 0.001(3) -0.010(3)
C13 0.037(3) 0.034(3) 0.038(3) 0.001(2) -0.006(2) -0.003(2)
C14 0.035(3) 0.039(3) 0.043(3) 0.001(2) -0.006(2) -0.005(2)
C15 0.039(3) 0.038(3) 0.037(3) 0.000(2) -0.003(2) -0.002(2)
C16 0.045(3) 0.039(3) 0.047(3) -0.002(2) -0.004(2) 0.000(2)
N4 0.046(3) 0.034(2) 0.052(3) -0.001(2) -0.001(2) -0.002(2)
C17 0.039(3) 0.034(3) 0.047(3) 0.001(2) -0.007(2) -0.002(2)
N5 0.039(2) 0.041(3) 0.042(3) 0.000(2) -0.0071(19) -0.0056(19)
C18 0.040(3) 0.035(3) 0.038(3) 0.002(2) -0.010(2) -0.003(2)
N6 0.042(2) 0.038(3) 0.046(3) 0.001(2) -0.003(2) -0.001(2)
N7 0.050(3) 0.041(3) 0.057(3) 0.009(2) -0.020(2) -0.011(2)
C19 0.060(4) 0.034(3) 0.074(5) 0.002(3) -0.028(3) -0.007(3)
C20 0.056(4) 0.036(3) 0.071(4) 0.000(3) -0.027(3) -0.009(3)
C21 0.043(3) 0.035(3) 0.044(3) 0.003(2) -0.007(2) -0.009(2)
C22 0.057(4) 0.034(3) 0.056(4) 0.002(3) -0.013(3) -0.010(3)
C23 0.060(4) 0.039(3) 0.061(4) 0.001(3) -0.022(3) -0.012(3)
N8 0.040(2) 0.032(2) 0.043(3) -0.0006(19) -0.0066(19) 0.0025(18)
C24 0.052(3) 0.027(3) 0.054(3) -0.004(2) -0.010(3) 0.000(2)
C25 0.048(3) 0.033(3) 0.053(3) -0.002(2) -0.013(3) 0.004(2)
C26 0.037(3) 0.025(2) 0.045(3) -0.001(2) -0.005(2) -0.0020(19)
C27 0.051(3) 0.032(3) 0.057(4) -0.003(2) -0.015(3) 0.005(2)
C28 0.062(4) 0.029(3) 0.054(4) -0.003(2) -0.019(3) 0.005(3)
N9 0.073(4) 0.031(3) 0.092(5) -0.008(3) 0.027(4) -0.002(3)
C29 0.100(6) 0.032(3) 0.081(6) -0.003(3) 0.001(5) 0.013(4)
C30 0.083(5) 0.037(4) 0.075(5) -0.007(3) -0.012(4) 0.009(3)
C31 0.048(3) 0.026(3) 0.065(4) -0.007(2) 0.003(3) 0.000(2)
C32 0.058(4) 0.037(3) 0.081(5) -0.010(3) -0.002(4) -0.004(3)
C33 0.068(4) 0.035(3) 0.102(7) -0.023(4) 0.004(4) -0.007(3)
C34 0.037(3) 0.033(3) 0.046(3) -0.001(2) -0.006(2) -0.006(2)
N10 0.037(2) 0.031(2) 0.049(3) -0.0008(19) -0.009(2) -0.0029(18)
C35 0.036(2) 0.030(3) 0.044(3) -0.002(2) -0.005(2) -0.002(2)
N11 0.041(2) 0.028(2) 0.051(3) -0.0034(19) -0.003(2) -0.0005(18)
C36 0.042(3) 0.030(3) 0.050(3) -0.002(2) -0.001(2) 0.000(2)
N12 0.041(2) 0.031(2) 0.050(3) -0.0046(19) -0.005(2) -0.0059(19)
Zn1B 0.0582 0.0268 0.0764 -0.0059 0.0105 0.0002
Zn3G 0.0409 0.0324 0.0391 -0.0021 -0.0081 0.0013
N8G 0.04 0.032 0.043 0.0006 -0.0066 -0.0025
N9B 0.073 0.031 0.092 -0.008 0.027 -0.002
C37 0.083(7) 0.135(11) 0.089(8) 0.017(7) 0.015(6) -0.001(7)
C38 0.123(11) 0.165(15) 0.108(11) -0.019(10) 0.022(9) 0.014(11)
C39 0.108(9) 0.137(13) 0.106(10) -0.018(9) 0.016(8) 0.011(9)
C40 0.148(13) 0.182(17) 0.074(8) -0.009(9) 0.008(8) 0.043(12)
C41 0.126(12) 0.204(19) 0.090(9) -0.025(10) -0.004(8) 0.044(12)
C42 0.102(8) 0.147(13) 0.083(7) -0.002(8) 0.010(6) 0.025(8)
C43 0.090(8) 0.192(17) 0.088(8) -0.004(10) 0.014(7) -0.026(10)
C44 0.123(10) 0.150(13) 0.077(7) -0.021(8) 0.029(7) 0.020(9)
C45 0.149(14) 0.134(13) 0.179(18) 0.024(12) 0.077(14) 0.034(11)
C46 0.112(10) 0.125(12) 0.130(12) -0.007(9) 0.040(9) 0.003(8)
C47 0.094(7) 0.133(11) 0.068(6) -0.009(6) 0.003(5) -0.009(7)
C48 0.096(8) 0.146(12) 0.084(8) 0.004(8) 0.000(6) -0.014(8)
C49 0.085(10) 0.136(16) 0.069(9) 0.006(10) 0.014(8) 0.001(11)
C50 0.109(14) 0.111(17) 0.069(11) 0.025(11) 0.030(10) 0.024(12)
C51 0.115(13) 0.100(13) 0.069(9) 0.023(9) 0.006(9) 0.016(10)
C52 0.120(12) 0.080(10) 0.068(9) 0.013(7) 0.034(8) 0.007(9)
C53 0.088(11) 0.103(14) 0.086(11) 0.013(10) 0.030(10) -0.003(10)
C54 0.092(12) 0.113(17) 0.094(13) -0.007(11) 0.018(10) -0.005(11)
C55 0.092(10) 0.148(15) 0.184(17) -0.042(14) 0.024(11) -0.039(10)
C56 0.085(9) 0.137(13) 0.169(16) -0.021(12) 0.037(10) -0.013(9)
C57 0.105(11) 0.136(15) 0.22(2) -0.019(15) 0.015(13) -0.029(11)
C58 0.128(14) 0.146(16) 0.25(2) -0.003(19) -0.003(17) 0.023(13)
C59 0.134(15) 0.19(2) 0.26(2) -0.05(2) -0.009(19) 0.042(15)
C60 0.095(11) 0.22(2) 0.24(2) -0.071(19) 0.007(14) -0.033(14)
C61 0.124(11) 0.179(16) 0.101(10) 0.010(10) 0.013(9) 0.031(11)
C62 0.106(9) 0.150(14) 0.113(11) 0.028(10) -0.002(8) 0.011(9)
C63 0.104(9) 0.158(14) 0.109(10) -0.032(10) -0.004(8) 0.019(9)
C61F 0.124 0.179 0.101 0.01 0.013 0.031
C62F 0.106 0.15 0.113 0.028 -0.002 0.011
C63F 0.104 0.158 0.109 -0.032 -0.004 0.019
loop_
_geom_bond_atom_site_label_1
_geom_bond_atom_site_label_2
_geom_bond_site_symmetry_1
_geom_bond_site_symmetry_2
Zn1 I1 1_555 1_555
I2 Zn1 1_555 1_555
I3 Zn2 1_555 1_555
I4 Zn2 1_555 1_555
Zn2 N2 1_555 1_555
Zn3 I5 1_555 1_555
I6 Zn3 1_555 1_555
N1 Zn1 1_555 1_555
C1 N1 1_555 1_555
H1 C1 1_555 1_555
C2 C1 1_555 1_555
H2 C2 1_555 1_555
C3 C2 1_555 1_555
C4 C3 1_555 1_555
H3 C4 1_555 1_555
C5 N1 1_555 1_555
H4 C5 1_555 1_555
N2 C6 1_555 1_555
C6 H5 1_555 1_555
C7 C6 1_555 1_555
H6 C7 1_555 1_555
C8 C7 1_555 1_555
C9 C8 1_555 1_555
H7 C9 1_555 1_555
C10 N2 1_555 1_555
H8 C10 1_555 1_555
N3 Zn3 1_555 1_555
C11 N3 1_555 1_555
H9 C11 1_555 1_555
C12 C11 1_555 1_555
H10 C12 1_555 1_555
C13 C12 1_555 1_555
C14 C13 1_555 1_555
H11 C14 1_555 1_555
C15 N3 1_555 1_555
H12 C15 1_555 1_555
C16 C3 1_555 1_555
N4 C16 1_555 1_555
C17 C8 1_555 1_555
N5 C17 1_555 1_555
C18 C13 1_555 1_555
N6 C16 1_555 1_555
N7 Zn2 1_555 1_555
C19 N7 1_555 1_555
H13 C19 1_555 1_555
C20 C19 1_555 1_555
H14 C20 1_555 1_555
C21 C20 1_555 1_555
C22 C21 1_555 1_555
H15 C22 1_555 1_555
C23 N7 1_555 1_555
H16 C23 1_555 1_555
N8 C24 1_555 1_555
C24 H17 1_555 1_555
C25 C24 1_555 1_555
H18 C25 1_555 1_555
C26 C25 1_555 1_555
C27 C26 1_555 1_555
H19 C27 1_555 1_555
C28 N8 1_555 1_555
H20 C28 1_555 1_555
N9 C29 1_555 1_555
C29 H21 1_555 1_555
C30 C29 1_555 1_555
H22 C30 1_555 1_555
C31 C30 1_555 1_555
C32 C31 1_555 1_555
H23 C32 1_555 1_555
C33 N9 1_555 1_555
H24 C33 1_555 1_555
C34 C21 1_555 1_555
N10 C34 1_555 1_555
C35 C26 1_555 1_555
N11 C35 1_555 1_555
C36 C31 1_555 1_555
N12 C34 1_555 1_555
C37 H25 1_555 1_555
H26 C37 1_555 1_555
C38 C37 1_555 1_555
H27 C38 1_555 1_555
H28 C38 1_555 1_555
C39 C38 1_555 1_555
H29 C39 1_555 1_555
H30 C39 1_555 1_555
C40 C39 1_555 1_555
H31 C40 1_555 1_555
H32 C40 1_555 1_555
C41 C40 1_555 1_555
H33 C41 1_555 1_555
H34 C41 1_555 1_555
C42 C37 1_555 1_555
H35 C42 1_555 1_555
H36 C42 1_555 1_555
C43 H37 1_555 1_555
H38 C43 1_555 1_555
C44 C43 1_555 1_555
H39 C44 1_555 1_555
H40 C44 1_555 1_555
C45 C44 1_555 1_555
H41 C45 1_555 1_555
H42 C45 1_555 1_555
C46 C45 1_555 1_555
H43 C46 1_555 1_555
H44 C46 1_555 1_555
C47 C46 1_555 1_555
H45 C47 1_555 1_555
H46 C47 1_555 1_555
C48 C43 1_555 1_555
H47 C48 1_555 1_555
H48 C48 1_555 1_555
C49 H49 1_555 1_555
H50 C49 1_555 1_555
C50 C49 1_555 1_555
H51 C50 1_555 1_555
H52 C50 1_555 1_555
C51 C50 1_555 1_555
H53 C51 1_555 1_555
H54 C51 1_555 1_555
C52 C51 1_555 1_555
H55 C52 1_555 1_555
H56 C52 1_555 1_555
C53 C52 1_555 1_555
H57 C53 1_555 1_555
H58 C53 1_555 1_555
C54 C49 1_555 1_555
H59 C54 1_555 1_555
H60 C54 1_555 1_555
C55 H61 1_555 1_555
H62 C55 1_555 1_555
C56 C55 1_555 1_555
H63 C56 1_555 1_555
H64 C56 1_555 1_555
C57 C56 1_555 1_555
H65 C57 1_555 1_555
H66 C57 1_555 1_555
C58 C57 1_555 1_555
H67 C58 1_555 1_555
H68 C58 1_555 1_555
C59 C58 1_555 1_555
H69 C59 1_555 1_555
H70 C59 1_555 1_555
C60 C55 1_555 1_555
H71 C60 1_555 1_555
H72 C60 1_555 1_555
C61 H73 1_555 1_555
H74 C61 1_555 1_555
C62 C61 1_555 1_555
H75 C62 1_555 1_555
H76 C62 1_555 1_555
C63 C62 1_555 1_555
H77 C63 1_555 1_555
H78 C63 1_555 1_555
Zn1B N9 1_555 1_555
Zn3G N8 1_555 1_555
N8G Zn3 1_555 1_555
N9B Zn1 1_555 1_555
C61F C63 1_555 1_555
H73F C61F 1_555 1_555
H74F C61F 1_555 1_555
C62F C61F 1_555 1_555
H75F C62F 1_555 1_555
H76F C62F 1_555 1_555
C63F C61 1_555 1_555
H77F C63F 1_555 1_555
H78F C63F 1_555 1_555
C4 C5 1_555 1_555
C9 C10 1_555 1_555
C14 C15 1_555 1_555
N4 C17 1_555 1_555
N5 C18 1_555 1_555
C18 N6 1_555 1_555
C22 C23 1_555 1_555
C27 C28 1_555 1_555
C32 C33 1_555 1_555
N10 C35 1_555 1_555
N11 C36 1_555 1_555
C36 N12 1_555 1_555
C41 C42 1_555 1_555
C47 C48 1_555 1_555
C53 C54 1_555 1_555
C59 C60 1_555 1_555
C62F C63F 1_555 1_555

#END
