
#######################################################################
#
#                 Cambridge Crystallographic Data Centre
#                                CCDC 
#
#######################################################################
#
# If this CIF has been generated from an entry in the Cambridge 
# Structural Database, then it will include bibliographic, chemical, 
# crystal, experimental, refinement or atomic coordinate data resulting 
# from the CCDC's data processing and validation procedures.
#
#######################################################################

data_LABMUZ
_chemical_formula_moiety         '(C63 H66 I6 N12 Zn3)n'
_symmetry_cell_setting           monoclinic
_symmetry_space_group_name_H-M   'C 2/c'
_symmetry_Int_Tables_number      15
_space_group_name_Hall           '-C 2yc'
loop_
_symmetry_equiv_pos_site_id
_symmetry_equiv_pos_as_xyz
1 x,y,z
2 -x,y,1/2-z
3 1/2+x,1/2+y,z
4 1/2-x,1/2+y,1/2-z
5 -x,-y,-z
6 x,-y,1/2+z
7 1/2-x,1/2-y,-z
8 1/2+x,1/2-y,1/2+z
_cell_length_a                   35.0725(6)
_cell_length_b                   14.8911(3)
_cell_length_c                   30.9658(6)
_cell_angle_alpha                90
_cell_angle_beta                 101.956(2)
_cell_angle_gamma                90
_cell_volume                     15821.6
loop_
_atom_site_label
_atom_site_type_symbol
_atom_site_fract_x
_atom_site_fract_y
_atom_site_fract_z
_atom_site_U_iso_or_equiv
_atom_site_thermal_displace_type
I1 I 0.85002(17) -0.0868(4) 1.01155(16) 0.1010 Uani
Zn1 Zn 0.87485(2) -0.09876(4) 0.93895(2) 0.0498 Uani
I2 I 0.89145(12) -0.2394(2) 0.9067(2) 0.1040 Uani
N1 N 0.83405(10) -0.0313(2) 0.89221(11) 0.0440 Uani
N2 N 0.92303(10) -0.0158(3) 0.94394(11) 0.0503 Uani
C1 C 0.93635(11) 0.0356(3) 0.97877(13) 0.0442 Uani
C2 C 0.9406(2) -0.0119(6) 0.91027(19) 0.0974 Uani
C3 C 0.96734(11) 0.0935(3) 0.98030(13) 0.0429 Uani
H1 H 0.9242 0.0326 1.0034 0.0530 Uiso
C4 C 0.9714(2) 0.0445(5) 0.90886(18) 0.0876 Uani
H2 H 0.9316 -0.0501 0.8857 0.1170 Uiso
H3 H 0.9762 0.1299 1.0056 0.0510 Uiso
C5 C 0.98536(10) 0.0979(3) 0.94491(12) 0.0397 Uani
H4 H 0.9828 0.0464 0.8836 0.1050 Uiso
C6 C 1.01770(10) 0.1609(2) 0.94391(11) 0.0357 Uani
N3 N 1.03931(9) 0.1463(2) 0.91392(10) 0.0381 Uani
N4 N 1.02231(8) 0.2287(2) 0.97287(9) 0.0354 Uani
C7 C 1.06766(10) 0.2064(2) 0.91410(11) 0.0359 Uani
C8 C 1.05061(9) 0.2867(2) 0.96851(10) 0.0337 Uani
C9 C 1.09327(11) 0.1916(2) 0.88236(11) 0.0380 Uani
N5 N 1.07455(8) 0.2779(2) 0.94040(9) 0.0353 Uani
C10 C 1.05492(10) 0.3677(2) 0.99702(10) 0.0353 Uani
C11 C 1.08229(12) 0.1323(3) 0.84718(13) 0.0485 Uani
C12 C 1.12852(12) 0.2363(3) 0.88698(13) 0.0456 Uani
C13 C 1.02846(11) 0.3870(3) 1.02287(12) 0.0426 Uani
C14 C 1.08652(13) 0.4236(3) 0.99889(17) 0.0543 Uani
H5 H 1.0582 0.1010 0.8431 0.0580 Uiso
C15 C 1.10707(14) 0.1197(3) 0.81823(15) 0.0523 Uani
H6 H 1.1366 0.2780 0.9103 0.0550 Uiso
C16 C 1.15168(12) 0.2191(3) 0.85696(15) 0.0480 Uani
C17 C 1.03410(12) 0.4621(3) 1.04962(12) 0.0440 Uani
H7 H 1.0066 0.3491 1.0223 0.0510 Uiso
H8 H 1.1052 0.4127 0.9812 0.0650 Uiso
C18 C 1.09021(14) 0.4962(3) 1.02741(19) 0.0626 Uani
N6 N 1.14141(10) 0.1624(2) 0.82283(11) 0.0437 Uani
H9 H 1.0995 0.0795 0.7942 0.0620 Uiso
H10 H 1.1761 0.2488 0.8606 0.0570 Uiso
N7 N 1.06489(10) 0.5155(2) 1.05245(10) 0.0438 Uani
H11 H 1.0153 0.4760 1.0666 0.0530 Uiso
H12 H 1.1122 0.5344 1.0291 0.0750 Uiso
Zn2 Zn 1.17354(12) 0.1457(3) 0.77329(15) 0.0385 Uani
Zn3 Zn 1.07771(2) 0.62044(3) 1.09766(2) 0.0454 Uani
I3 I 1.12883(4) 0.16664(12) 0.69820(6) 0.0540 Uani
I4 I 1.23540(5) 0.23505(11) 0.79640(4) 0.0476 Uani
N8 N 1.18623(11) 0.0080(2) 0.78096(13) 0.0479 Uani
N9 N 1.11841(11) 0.5515(2) 1.14436(11) 0.0467 Uani
I5 I 1.11457(12) 0.7362(2) 1.0581(2) 0.0836 Uani
I6 I 1.02207(17) 0.6522(5) 1.13138(15) 0.0614 Uani
C19 C 1.15014(11) 0.5906(2) 1.16822(12) 0.0412 Uani
C20 C 1.11025(19) 0.4678(3) 1.1538(2) 0.0835 Uani
H13 H 1.1562 0.6505 1.1615 0.0490 Uiso
C21 C 1.17454(11) 0.5458(2) 1.20263(12) 0.0391 Uani
C22 C 1.13329(17) 0.4182(3) 1.18688(19) 0.0731 Uani
H14 H 1.0875 0.4405 1.1369 0.1000 Uiso
C23 C 1.16623(11) 0.4580(2) 1.21194(11) 0.0372 Uani
H15 H 1.1967 0.5752 1.2196 0.0470 Uiso
H16 H 1.1267 0.3581 1.1924 0.0880 Uiso
C24 C 1.19094(10) 0.4058(2) 1.24772(11) 0.0343 Uani
N10 N 1.18096(9) 0.32033(19) 1.25219(10) 0.0369 Uani
N11 N 1.22174(9) 0.44698(18) 1.27240(9) 0.0346 Uani
C25 C 1.20558(10) 0.2745(2) 1.28320(12) 0.0364 Uani
C26 C 1.24251(10) 0.3966(2) 1.30474(11) 0.0363 Uani
N12 N 1.23600(9) 0.3095(2) 1.31132(10) 0.0382 Uani
C27 C 1.19859(11) 0.1763(2) 1.28416(13) 0.0408 Uani
C28 C 1.27491(11) 0.4420(2) 1.33486(11) 0.0383 Uani
C29 C 1.22465(13) 0.1184(3) 1.30989(15) 0.0489 Uani
C30 C 1.16605(14) 0.1394(3) 1.25709(17) 0.0563 Uani
C31 C 1.29680(13) 0.3981(3) 1.37150(13) 0.0481 Uani
C32 C 1.28422(12) 0.5304(3) 1.32709(13) 0.0454 Uani
H17 H 1.2472 0.1409 1.3292 0.0590 Uiso
C33 C 1.21721(14) 0.0268(3) 1.30695(16) 0.0527 Uani
C34 C 1.16065(15) 0.0480(3) 1.25685(18) 0.0575 Uani
H18 H 1.1476 0.1769 1.2388 0.0680 Uiso
C35 C 1.32547(13) 0.4455(3) 1.39927(13) 0.0520 Uani
H19 H 1.2920 0.3369 1.3772 0.0580 Uiso
C36 C 1.31388(12) 0.5724(3) 1.35635(14) 0.0472 Uani
H20 H 1.2703 0.5616 1.3019 0.0550 Uiso
H21 H 1.2353 -0.0127 1.3245 0.0630 Uiso
H22 H 1.1378 0.0237 1.2388 0.0690 Uiso
H23 H 1.3399 0.4160 1.4247 0.0620 Uiso
H24 H 1.3202 0.6327 1.3508 0.0570 Uiso
N8E N 1.18623(11) -0.0080(2) 1.28096(13) 0.0479 Uani
N1G N 1.33405(10) 0.5313(2) 1.39221(11) 0.0440 Uani
Zn2E Zn 1.17354(12) -0.1457(3) 1.27329(15) 0.0385 Uani
Zn1G Zn 1.37485(2) 0.59876(4) 1.43895(2) 0.0498 Uani
C37 C 0.3117(2) -0.0259(5) 0.6104(2) 0.0812 Uani
C38 C 0.3172(2) -0.0624(4) 0.6515(2) 0.0794 Uani
H25 H 0.2942 -0.0871 0.6584 0.0950 Uiso
C39 C 0.3499(2) -0.0705(4) 0.6855(2) 0.0730 Uani
H26 H 0.3448 -0.0977 0.7115 0.0870 Uiso
C40 C 0.3875(2) -0.0472(4) 0.6885(2) 0.0799 Uani
C41 C 0.4032(2) -0.0056(5) 0.6544(2) 0.0851 Uani
H27 H 0.4307 0.0020 0.6599 0.1020 Uiso
C42 C 0.3820(2) 0.0254(5) 0.6132(2) 0.0828 Uani
C43 C 0.3406(2) 0.0179(4) 0.5934(2) 0.0791 Uani
C44 C 0.3342(3) 0.0596(6) 0.5521(3) 0.1008 Uani
H28 H 0.3101 0.0634 0.5314 0.1210 Uiso
C45 C 0.3702(3) 0.0949(6) 0.5470(3) 0.1062 Uani
H29 H 0.3739 0.1299 0.5225 0.1270 Uiso
C46 C 0.4000(3) 0.0714(6) 0.5829(3) 0.1020 Uani
C47 C 0.2708(2) -0.0330(7) 0.5804(3) 0.1079 Uani
H30 H 0.2710 -0.0042 0.5520 0.1620 Uiso
H31 H 0.2637 -0.0964 0.5756 0.1620 Uiso
H32 H 0.2518 -0.0029 0.5946 0.1620 Uiso
C48 C 0.4168(3) -0.0688(5) 0.7308(2) 0.0936 Uani
H33 H 0.4019 -0.0843 0.7541 0.1120 Uiso
C49 C 0.4439(5) 0.0135(9) 0.7477(4) 0.2044 Uani
H34 H 0.4279 0.0656 0.7515 0.3060 Uiso
H35 H 0.4610 -0.0017 0.7760 0.3060 Uiso
H36 H 0.4599 0.0278 0.7261 0.3060 Uiso
C50 C 0.4421(3) -0.1484(6) 0.7251(3) 0.1039 Uani
H37 H 0.4604 -0.1602 0.7530 0.1560 Uiso
H38 H 0.4256 -0.2013 0.7167 0.1560 Uiso
H39 H 0.4565 -0.1352 0.7020 0.1560 Uiso
C51 C 0.4426(3) 0.0939(10) 0.5869(5) 0.1577 Uani
H40 H 0.4576 0.0703 0.6149 0.2360 Uiso
H41 H 0.4521 0.0666 0.5623 0.2360 Uiso
H42 H 0.4458 0.1592 0.5861 0.2360 Uiso
C52 C 0.7805(3) 0.2948(9) 0.4409(4) 0.1222 Uani
H43 H 0.7819 0.2758 0.4107 0.1470 Uiso
H44 H 0.7880 0.2429 0.4609 0.1470 Uiso
C53 C 0.7410(2) 0.3210(8) 0.4418(3) 0.1023 Uani
H45 H 0.7388 0.3322 0.4727 0.1230 Uiso
H46 H 0.7230 0.2713 0.4301 0.1230 Uiso
C54 C 0.7291(3) 0.4043(6) 0.4147(3) 0.0928 Uani
H47 H 0.7289 0.3911 0.3833 0.1110 Uiso
H48 H 0.7024 0.4215 0.4171 0.1110 Uiso
C55 C 0.7557(3) 0.4801(8) 0.4293(4) 0.1181 Uani
H49 H 0.7551 0.4960 0.4602 0.1410 Uiso
H50 H 0.7473 0.5331 0.4105 0.1410 Uiso
C56 C 0.7961(4) 0.4538(10) 0.4260(5) 0.1455 Uani
H51 H 0.8142 0.5045 0.4355 0.1750 Uiso
H52 H 0.7968 0.4393 0.3950 0.1750 Uiso
C57 C 0.8092(3) 0.3720(10) 0.4553(6) 0.1610 Uani
H53 H 0.8099 0.3874 0.4866 0.1930 Uiso
H54 H 0.8357 0.3537 0.4525 0.1930 Uiso
C58 C 0.7270(6) 0.7612(15) 0.5324(7) 0.2187 Uani
H55 H 0.7168 0.8221 0.5238 0.2610 Uiso
H56 H 0.7153 0.7405 0.5572 0.2610 Uiso
C59 C 0.7150(7) 0.6978(16) 0.4935(9) 0.2314 Uani
H57 H 0.6863 0.6925 0.4860 0.2790 Uiso
H58 H 0.7261 0.6374 0.5014 0.2790 Uiso
C60 C 0.7301(6) 0.7345(19) 0.4529(7) 0.2576 Uani
H59 H 0.7227 0.6937 0.4273 0.3130 Uiso
H60 H 0.7192 0.7949 0.4444 0.3130 Uiso
C58F C 0.7730(6) 0.7388(15) 0.4676(7) 0.2187 Uani
H55F H 0.7832 0.6779 0.4762 0.2610 Uiso
H56F H 0.7847 0.7595 0.4428 0.2610 Uiso
C59F C 0.7850(7) 0.8022(16) 0.5065(9) 0.2314 Uani
H57F H 0.8137 0.8075 0.5140 0.2790 Uiso
H58F H 0.7739 0.8626 0.4986 0.2790 Uiso
C60F C 0.7699(6) 0.7655(19) 0.5471(7) 0.2576 Uani
H59F H 0.7773 0.8063 0.5727 0.3130 Uiso
H60F H 0.7808 0.7051 0.5556 0.3130 Uiso
loop_
_atom_site_aniso_label
_atom_site_aniso_U_11
_atom_site_aniso_U_22
_atom_site_aniso_U_33
_atom_site_aniso_U_23
_atom_site_aniso_U_13
_atom_site_aniso_U_12
I1 0.084(3) 0.116(3) 0.087(3) 0.063(2) -0.0192(18) -0.038(2)
Zn1 0.0445(3) 0.0477(3) 0.0472(3) 0.0158(2) -0.0139(2) -0.0158(2)
I2 0.133(3) 0.0327(11) 0.102(2) 0.0063(9) -0.078(3) 0.0025(10)
N1 0.0466(16) 0.0336(15) 0.0432(16) 0.0079(12) -0.0105(13) -0.0113(12)
N2 0.0468 0.055 0.0429 0.0037 -0.0053 -0.0211
C1 0.0413(17) 0.045(2) 0.0429(18) -0.0049(16) 0.0011(14) 0.0091(15)
C2 0.104(5) 0.135(6) 0.058(3) 0.042(4) 0.028(3) 0.085(5)
C3 0.0427(18) 0.0409(19) 0.0418(18) 0.0036(15) 0.0014(14) 0.0079(15)
C4 0.097(4) 0.120(5) 0.051(3) 0.035(3) 0.027(3) 0.072(4)
C5 0.0390(16) 0.0398(18) 0.0360(17) -0.0013(14) -0.0024(13) 0.0085(14)
C6 0.0361(15) 0.0348(16) 0.0324(15) -0.0007(13) -0.0016(12) 0.0043(13)
N3 0.0415(14) 0.0338(14) 0.0357(14) 0.0042(11) 0.0007(11) 0.0071(11)
N4 0.0393(14) 0.0330(14) 0.0299(13) 0.0006(11) -0.0020(10) 0.0060(11)
C7 0.0371(15) 0.0364(17) 0.0302(15) -0.0014(13) -0.0025(12) 0.0026(13)
C8 0.0353(15) 0.0327(16) 0.0290(14) -0.0033(12) -0.0028(11) 0.0028(12)
C9 0.0441(17) 0.0361(17) 0.0313(15) -0.0013(13) 0.0020(13) 0.0044(14)
N5 0.0382(13) 0.0323(14) 0.0313(13) 0.0004(11) -0.0023(11) 0.0027(11)
C10 0.0396(16) 0.0337(16) 0.0271(14) -0.0024(12) -0.0055(12) 0.0013(13)
C11 0.050(2) 0.054(2) 0.0407(19) 0.0109(17) 0.0076(16) 0.0118(17)
C12 0.052(2) 0.043(2) 0.0418(19) 0.0060(15) 0.0094(16) 0.0119(16)
C13 0.0445(18) 0.0419(19) 0.0389(17) 0.0023(15) 0.0032(14) 0.0040(15)
C14 0.052(2) 0.046(2) 0.067(3) 0.019(2) 0.0172(19) 0.0132(18)
C15 0.061(2) 0.050(2) 0.047(2) 0.0120(18) 0.0140(18) 0.0120(19)
C16 0.052(2) 0.0384(19) 0.056(2) 0.0021(17) 0.0167(17) 0.0093(16)
C17 0.051(2) 0.043(2) 0.0360(17) 0.0062(15) 0.0045(14) -0.0024(16)
C18 0.056(2) 0.053(3) 0.080(3) 0.029(2) 0.017(2) 0.019(2)
N6 0.0558(18) 0.0317(15) 0.0457(17) -0.0003(12) 0.0157(14) 0.0012(13)
N7 0.0489(16) 0.0362(15) 0.0390(15) 0.0070(12) -0.0075(13) -0.0025(13)
Zn2 0.0519(8) 0.0276(8) 0.0378(9) 0.0001(6) 0.0132(7) 0.0009(5)
Zn3 0.0612(3) 0.0309(2) 0.0342(2) 0.00254(18) -0.0133(2) -0.0084(2)
I3 0.0818(8) 0.0450(5) 0.0345(5) -0.0062(3) 0.0101(4) -0.0054(3)
I4 0.0605(5) 0.0300(3) 0.0593(6) 0.0096(3) 0.0284(3) 0.0106(3)
N8 0.0566 0.0272 0.061 0.0035 0.015 0.0008
N9 0.0609(19) 0.0277(14) 0.0402(16) 0.0008(12) -0.0156(14) -0.0043(13)
I5 0.155(3) 0.0265(7) 0.0520(12) 0.0047(6) -0.0186(10) 0.0129(8)
I6 0.0800(14) 0.0472(12) 0.0432(12) 0.0052(9) -0.0192(11) -0.0187(10)
C19 0.0506(19) 0.0277(16) 0.0393(17) -0.0007(13) -0.0047(15) -0.0029(14)
C20 0.098(4) 0.031(2) 0.088(4) -0.014(2) -0.058(3) 0.014(2)
C21 0.0436(17) 0.0315(16) 0.0366(16) -0.0021(13) -0.0044(13) -0.0001(13)
C22 0.090(3) 0.0269(18) 0.075(3) -0.0086(19) -0.046(3) 0.009(2)
C23 0.0452(17) 0.0263(15) 0.0345(16) 0.0036(12) -0.0045(13) -0.0040(13)
C24 0.0381(15) 0.0270(15) 0.0351(16) 0.0022(12) 0.0014(13) -0.0068(12)
N10 0.0407(14) 0.0262(13) 0.0396(14) 0.0013(11) -0.0016(11) -0.0052(11)
N11 0.0423(14) 0.0247(12) 0.0325(13) 0.0029(10) -0.0024(11) -0.0052(11)
C25 0.0425(17) 0.0265(15) 0.0387(17) -0.0009(13) 0.0048(13) -0.0079(13)
C26 0.0429(17) 0.0285(15) 0.0338(16) 0.0013(12) -0.0004(13) -0.0087(13)
N12 0.0475(15) 0.0261(13) 0.0373(14) 0.0002(11) -0.0001(12) -0.0078(11)
C27 0.0479(18) 0.0263(16) 0.0463(19) -0.0039(14) 0.0056(15) -0.0056(14)
C28 0.0446(17) 0.0313(16) 0.0335(16) 0.0011(13) -0.0044(13) -0.0075(13)
C29 0.052(2) 0.0328(18) 0.056(2) -0.0073(16) -0.0021(17) -0.0040(15)
C30 0.055(2) 0.0334(19) 0.071(3) -0.0060(18) -0.009(2) -0.0011(16)
C31 0.063(2) 0.0291(17) 0.0424(19) 0.0002(14) -0.0114(17) -0.0118(16)
C32 0.0478(19) 0.0359(18) 0.0437(19) -0.0030(15) -0.0110(15) -0.0068(15)
C33 0.061(2) 0.0312(19) 0.063(3) -0.0084(17) 0.0060(19) -0.0095(17)
C34 0.062(2) 0.034(2) 0.071(3) -0.0026(19) 0.001(2) 0.0009(17)
C35 0.063(2) 0.040(2) 0.0406(19) 0.0044(16) -0.0176(17) -0.0206(18)
C36 0.049(2) 0.0353(18) 0.048(2) 0.0013(15) -0.0114(16) -0.0042(15)
N8E 0.0566(18) 0.0272(14) 0.061(2) -0.0035(14) 0.0150(15) -0.0008(13)
N1G 0.0466(16) 0.0336(15) 0.0432(16) 0.0079(12) -0.0105(13) -0.0113(12)
Zn2E 0.0519 0.0276 0.0378 -0.0001 0.0132 -0.0009
Zn1G 0.0445(3) 0.0477(3) 0.0472(3) 0.0158(2) -0.0139(2) -0.0158(2)
C37 0.099(4) 0.071(4) 0.080(4) -0.003(3) 0.033(3) 0.020(3)
C38 0.102(4) 0.057(3) 0.083(4) -0.004(3) 0.028(3) 0.017(3)
C39 0.104(4) 0.052(3) 0.072(3) -0.002(2) 0.039(3) 0.009(3)
C40 0.111(5) 0.065(3) 0.067(3) -0.011(3) 0.026(3) 0.010(3)
C41 0.107(5) 0.077(4) 0.076(4) -0.006(3) 0.030(3) 0.000(4)
C42 0.112(5) 0.066(3) 0.080(4) 0.001(3) 0.042(4) 0.003(3)
C43 0.102(4) 0.065(3) 0.074(3) -0.002(3) 0.027(3) 0.020(3)
C44 0.121(6) 0.104(6) 0.086(5) 0.014(4) 0.041(4) 0.033(5)
C45 0.142(7) 0.085(5) 0.106(6) 0.033(4) 0.059(5) 0.028(5)
C46 0.118(6) 0.090(5) 0.109(6) 0.019(4) 0.049(5) 0.010(4)
C47 0.097(5) 0.133(7) 0.095(5) -0.010(5) 0.023(4) 0.024(5)
C48 0.128(6) 0.083(4) 0.068(4) -0.010(3) 0.016(4) 0.009(4)
C49 0.283(19) 0.132(10) 0.144(11) -0.022(8) -0.081(12) -0.047(12)
C50 0.110(6) 0.114(6) 0.081(4) -0.002(4) 0.004(4) 0.023(5)
C51 0.127(8) 0.184(13) 0.178(12) 0.055(10) 0.068(8) -0.019(8)
C52 0.079(5) 0.155(11) 0.126(9) -0.019(8) 0.006(5) 0.023(6)
C53 0.079(5) 0.146(9) 0.077(5) 0.023(5) 0.005(4) 0.027(5)
C54 0.098(6) 0.112(7) 0.069(4) 0.006(4) 0.019(4) 0.009(5)
C55 0.112(7) 0.148(10) 0.092(6) -0.038(7) 0.016(5) -0.008(7)
C56 0.119(9) 0.157(12) 0.173(13) -0.054(10) 0.059(9) -0.033(9)
C57 0.065(5) 0.206(15) 0.198(14) -0.091(12) -0.005(7) 0.016(7)
C58 0.25(2) 0.21(2) 0.24(2) 0.107(17) 0.152(19) 0.068(17)
C59 0.230(19) 0.182(19) 0.31(3) -0.036(19) 0.12(2) -0.030(16)
C60 0.19(2) 0.29(3) 0.33(3) -0.10(2) 0.14(2) 0.012(19)
C58F 0.25 0.21 0.24 0.107 0.152 0.068
C59F 0.23 0.182 0.31 -0.036 0.12 -0.03
C60F 0.19 0.29 0.33 -0.1 0.14 0.012
loop_
_geom_bond_atom_site_label_1
_geom_bond_atom_site_label_2
_geom_bond_site_symmetry_1
_geom_bond_site_symmetry_2
I1 Zn1 1_555 1_555
Zn1 I2 1_555 1_555
N1 Zn1 1_555 1_555
N2 Zn1 1_555 1_555
C1 N2 1_555 1_555
C2 N2 1_555 1_555
C3 C1 1_555 1_555
H1 C1 1_555 1_555
C4 C2 1_555 1_555
H2 C2 1_555 1_555
H3 C3 1_555 1_555
C5 C3 1_555 1_555
H4 C4 1_555 1_555
C6 C5 1_555 1_555
N3 C6 1_555 1_555
N4 C6 1_555 1_555
C7 N3 1_555 1_555
C8 N4 1_555 1_555
C9 C7 1_555 1_555
N5 C7 1_555 1_555
C10 C8 1_555 1_555
C11 C9 1_555 1_555
C12 C9 1_555 1_555
C13 C10 1_555 1_555
C14 C10 1_555 1_555
H5 C11 1_555 1_555
C15 C11 1_555 1_555
H6 C12 1_555 1_555
C16 C12 1_555 1_555
C17 C13 1_555 1_555
H7 C13 1_555 1_555
H8 C14 1_555 1_555
C18 C14 1_555 1_555
N6 C15 1_555 1_555
H9 C15 1_555 1_555
H10 C16 1_555 1_555
N7 C17 1_555 1_555
H11 C17 1_555 1_555
H12 C18 1_555 1_555
Zn2 N6 1_555 1_555
Zn3 N7 1_555 1_555
I3 Zn2 1_555 1_555
I4 Zn2 1_555 1_555
N8 Zn2 1_555 1_555
N9 Zn3 1_555 1_555
I5 Zn3 1_555 1_555
I6 Zn3 1_555 1_555
C19 N9 1_555 1_555
C20 N9 1_555 1_555
H13 C19 1_555 1_555
C21 C19 1_555 1_555
C22 C20 1_555 1_555
H14 C20 1_555 1_555
C23 C21 1_555 1_555
H15 C21 1_555 1_555
H16 C22 1_555 1_555
C24 C23 1_555 1_555
N10 C24 1_555 1_555
N11 C24 1_555 1_555
C25 N10 1_555 1_555
C26 N11 1_555 1_555
N12 C25 1_555 1_555
C27 C25 1_555 1_555
C28 C26 1_555 1_555
C29 C27 1_555 1_555
C30 C27 1_555 1_555
C31 C28 1_555 1_555
C32 C28 1_555 1_555
H17 C29 1_555 1_555
C33 C29 1_555 1_555
C34 C30 1_555 1_555
H18 C30 1_555 1_555
C35 C31 1_555 1_555
H19 C31 1_555 1_555
C36 C32 1_555 1_555
H20 C32 1_555 1_555
H21 C33 1_555 1_555
H22 C34 1_555 1_555
H23 C35 1_555 1_555
H24 C36 1_555 1_555
C37 C38 1_555 1_555
C38 H25 1_555 1_555
C39 C38 1_555 1_555
H26 C39 1_555 1_555
C40 C39 1_555 1_555
C41 C40 1_555 1_555
H27 C41 1_555 1_555
C42 C41 1_555 1_555
C43 C37 1_555 1_555
C44 C43 1_555 1_555
H28 C44 1_555 1_555
C45 C44 1_555 1_555
H29 C45 1_555 1_555
C46 C42 1_555 1_555
C47 C37 1_555 1_555
H30 C47 1_555 1_555
H31 C47 1_555 1_555
H32 C47 1_555 1_555
C48 C40 1_555 1_555
H33 C48 1_555 1_555
C49 C48 1_555 1_555
H34 C49 1_555 1_555
H35 C49 1_555 1_555
H36 C49 1_555 1_555
C50 C48 1_555 1_555
H37 C50 1_555 1_555
H38 C50 1_555 1_555
H39 C50 1_555 1_555
C51 C46 1_555 1_555
H40 C51 1_555 1_555
H41 C51 1_555 1_555
H42 C51 1_555 1_555
C52 H43 1_555 1_555
H44 C52 1_555 1_555
C53 C52 1_555 1_555
H45 C53 1_555 1_555
H46 C53 1_555 1_555
C54 C53 1_555 1_555
H47 C54 1_555 1_555
H48 C54 1_555 1_555
C55 C54 1_555 1_555
H49 C55 1_555 1_555
H50 C55 1_555 1_555
C56 C55 1_555 1_555
H51 C56 1_555 1_555
H52 C56 1_555 1_555
C57 C52 1_555 1_555
H53 C57 1_555 1_555
H54 C57 1_555 1_555
C58 H55 1_555 1_555
H56 C58 1_555 1_555
C59 C58 1_555 1_555
H57 C59 1_555 1_555
H58 C59 1_555 1_555
C60 C59 1_555 1_555
H59 C60 1_555 1_555
H60 C60 1_555 1_555
N8E C33 1_555 1_555
N1G C35 1_555 1_555
Zn2E N8E 1_555 1_555
Zn1G N1G 1_555 1_555
C58F C60 1_555 1_555
H55F C58F 1_555 1_555
H56F C58F 1_555 1_555
C59F C58F 1_555 1_555
H57F C59F 1_555 1_555
H58F C59F 1_555 1_555
C60F C58 1_555 1_555
H59F C60F 1_555 1_555
H60F C60F 1_555 1_555
C4 C5 1_555 1_555
C8 N5 1_555 1_555
C16 N6 1_555 1_555
C18 N7 1_555 1_555
C22 C23 1_555 1_555
C26 N12 1_555 1_555
C34 N8E 1_555 1_555
C36 N1G 1_555 1_555
C42 C43 1_555 1_555
C45 C46 1_555 1_555
C56 C57 1_555 1_555
C59F C60F 1_555 1_555

#END
