
#######################################################################
#
#                 Cambridge Crystallographic Data Centre
#                                CCDC 
#
#######################################################################
#
# If this CIF has been generated from an entry in the Cambridge 
# Structural Database, then it will include bibliographic, chemical, 
# crystal, experimental, refinement or atomic coordinate data resulting 
# from the CCDC's data processing and validation procedures.
#
#######################################################################

data_LABNOU
_chemical_formula_moiety         '(C70 H72 I6 N12 O9 Zn3)n'
_symmetry_cell_setting           monoclinic
_symmetry_space_group_name_H-M   'C 2/c'
_symmetry_Int_Tables_number      15
_space_group_name_Hall           '-C 2yc'
loop_
_symmetry_equiv_pos_site_id
_symmetry_equiv_pos_as_xyz
1 x,y,z
2 -x,y,1/2-z
3 1/2+x,1/2+y,z
4 1/2-x,1/2+y,1/2-z
5 -x,-y,-z
6 x,-y,1/2+z
7 1/2-x,1/2-y,-z
8 1/2+x,1/2-y,1/2+z
_cell_length_a                   34.9043(9)
_cell_length_b                   14.9550(2)
_cell_length_c                   30.3469(8)
_cell_angle_alpha                90
_cell_angle_beta                 100.074(2)
_cell_angle_gamma                90
_cell_volume                     15596.7
loop_
_atom_site_label
_atom_site_type_symbol
_atom_site_fract_x
_atom_site_fract_y
_atom_site_fract_z
_atom_site_U_iso_or_equiv
_atom_site_thermal_displace_type
I1 I 0.97985(12) 0.3452(3) 0.86483(13) 0.0857 Uani
Zn1 Zn 0.92055(3) 0.37438(5) 0.90318(3) 0.0777 Uani
N1 N 0.88242(16) 0.4450(3) 0.85569(19) 0.0738 Uani
I2 I 0.88610(15) 0.2684(2) 0.94117(15) 0.0895 Uani
N2 N 0.93573(17) 0.4806(3) 0.9470(2) 0.0746 Uani
C1 C 0.9106(3) 0.5054(7) 0.9725(4) 0.1324 Uani
C2 C 0.9666(2) 0.5321(4) 0.9468(2) 0.0735 Uani
H1 H 0.8883 0.4692 0.9726 0.1590 Uiso
C3 C 0.9150(3) 0.5812(7) 0.9988(4) 0.1281 Uani
C4 C 0.97308(18) 0.6095(4) 0.9722(2) 0.0725 Uani
H2 H 0.9851 0.5153 0.9287 0.0880 Uiso
C5 C 0.94695(18) 0.6341(4) 0.9985(2) 0.0663 Uani
H3 H 0.8963 0.5963 1.0169 0.1530 Uiso
H4 H 0.9955 0.6450 0.9712 0.0870 Uiso
C6 C 0.95193(17) 0.7166(4) 1.0265(2) 0.0625 Uani
N3 N 0.98157(14) 0.7706(3) 1.02177(17) 0.0625 Uani
N4 N 0.92766(15) 0.7272(3) 1.05540(18) 0.0653 Uani
C7 C 0.98578(17) 0.8395(4) 1.0503(2) 0.0657 Uani
C8 C 0.93392(18) 0.8005(4) 1.0809(2) 0.0630 Uani
C9 C 1.02014(18) 0.8980(4) 1.0505(2) 0.0675 Uani
N5 N 0.96286(15) 0.8585(3) 1.07983(19) 0.0679 Uani
C10 C 0.90822(18) 0.8160(4) 1.1138(2) 0.0648 Uani
C11 C 1.0387(2) 0.9042(5) 1.0162(3) 0.0828 Uani
C12 C 1.0350(4) 0.9430(11) 1.0884(5) 0.1862 Uani
C13 C 0.9127(4) 0.8885(7) 1.1412(4) 0.1296 Uani
C14 C 0.8784(3) 0.7600(5) 1.1173(4) 0.0991 Uani
C15 C 1.0709(2) 0.9583(5) 1.0185(3) 0.0791 Uani
H5 H 1.0298 0.8710 0.9897 0.0990 Uiso
H6 H 1.0227 0.9400 1.1139 0.2240 Uiso
C16 C 1.0681(4) 0.9930(11) 1.0893(4) 0.1688 Uani
C17 C 0.8883(4) 0.9003(7) 1.1715(4) 0.1332 Uani
H7 H 0.9326 0.9309 1.1394 0.1550 Uiso
C18 C 0.8554(3) 0.7756(5) 1.1483(3) 0.0972 Uani
H8 H 0.8735 0.7097 1.0980 0.1190 Uiso
H9 H 1.0836 0.9616 0.9934 0.0950 Uiso
N6 N 1.08467(18) 1.0056(4) 1.0543(2) 0.0786 Uani
H10 H 1.0796 1.0199 1.1169 0.2020 Uiso
N7 N 0.86102(19) 0.8437(3) 1.1771(2) 0.0762 Uani
H11 H 0.8914 0.9527 1.1895 0.1600 Uiso
H12 H 0.8343 0.7360 1.1496 0.1160 Uiso
Zn2 Zn 1.13142(3) 1.09179(6) 1.05935(4) 0.0806 Uani
Zn3 Zn 0.83033(3) 0.85665(5) 1.22889(4) 0.0794 Uani
I3 I 1.11095(12) 1.22964(19) 1.0950(2) 0.1291 Uani
I4 I 1.15695(18) 1.0761(3) 0.98435(15) 0.1045 Uani
N8 N 1.17261(16) 1.0263(3) 1.1055(2) 0.0718 Uani
I5 I 0.88059(13) 0.83269(18) 1.30148(9) 0.1008 Uani
N9 N 0.81684(18) 0.9919(3) 1.2253(2) 0.0749 Uani
I6 I 0.77132(9) 0.75916(17) 1.20838(7) 0.0926 Uani
C19 C 1.1774(2) 0.9397(4) 1.1031(3) 0.0875 Uani
C20 C 1.1971(2) 1.0719(4) 1.1361(3) 0.0848 Uani
H13 H 1.1602 0.9072 1.0811 0.1050 Uiso
C21 C 1.2062(2) 0.8929(4) 1.1312(3) 0.0838 Uani
C22 C 1.2261(2) 1.0313(4) 1.1652(3) 0.0824 Uani
H14 H 1.1941 1.1349 1.1377 0.1010 Uiso
H15 H 1.2087 0.8300 1.1282 0.1000 Uiso
C23 C 1.23109(18) 0.9393(4) 1.1632(2) 0.0650 Uani
H16 H 1.2429 1.0658 1.1867 0.0990 Uiso
C24 C 1.26238(18) 0.8952(4) 1.1945(2) 0.0641 Uani
N10 N 1.26802(15) 0.8071(3) 1.18989(19) 0.0667 Uani
N11 N 1.28270(14) 0.9470(3) 1.22648(18) 0.0613 Uani
C25 C 1.29668(18) 0.7728(4) 1.2197(2) 0.0654 Uani
C26 C 1.31176(16) 0.9055(3) 1.2532(2) 0.0587 Uani
C27 C 1.30338(19) 0.6746(4) 1.2206(3) 0.0700 Uani
N12 N 1.31999(14) 0.8193(3) 1.25125(18) 0.0621 Uani
C28 C 1.33586(17) 0.9587(3) 1.2890(2) 0.0630 Uani
C29 C 1.3312(3) 0.6386(4) 1.2536(3) 0.0962 Uani
C30 C 1.2820(3) 0.6172(5) 1.1914(3) 0.0988 Uani
C31 C 1.32758(19) 1.0470(4) 1.2968(2) 0.0726 Uani
C32 C 1.3682(2) 0.9199(4) 1.3142(3) 0.0813 Uani
H17 H 1.3462 0.6761 1.2753 0.1160 Uiso
C33 C 1.3371(3) 0.5472(5) 1.2546(3) 0.1056 Uani
C34 C 1.2898(3) 0.5269(5) 1.1947(3) 0.1008 Uani
H18 H 1.2618 0.6392 1.1688 0.1190 Uiso
C35 C 1.3509(2) 1.0924(3) 1.3308(2) 0.0740 Uani
H19 H 1.3061 1.0760 1.2790 0.0870 Uiso
H20 H 1.3745 0.8592 1.3096 0.0970 Uiso
C36 C 1.3910(2) 0.9708(4) 1.3459(3) 0.0872 Uani
H21 H 1.3565 0.5229 1.2773 0.1270 Uiso
H22 H 1.2747 0.4880 1.1738 0.1210 Uiso
H23 H 1.3445 1.1524 1.3368 0.0890 Uiso
H24 H 1.4141 0.9449 1.3619 0.1050 Uiso
N9B N 1.31684(18) 0.4919(3) 1.2253(2) 0.0749 Uani
N1G N 1.38242(16) 1.0550(3) 1.35569(19) 0.0738 Uani
Zn3B Zn 1.33033(3) 0.35665(5) 1.22889(4) 0.0794 Uani
Zn1G Zn 1.42055(3) 1.12562(5) 1.40318(3) 0.0777 Uani
C37 C 0.5521(7) 0.7760(11) 0.2320(7) 0.0822 Uani
C38 C 0.5617(8) 0.6990(12) 0.2498(6) 0.0933 Uani
C39 C 0.5941(10) 0.6918(14) 0.2922(8) 0.1088 Uani
C40 C 0.6081(10) 0.7770(14) 0.3172(7) 0.1137 Uani
C41 C 0.5963(9) 0.8566(14) 0.2947(9) 0.0950 Uani
O1 O 0.5682(6) 0.8536(14) 0.2548(7) 0.0983 Uani
C42 C 0.6097(15) 0.938(3) 0.305(2) 0.1335 Uani
C43 C 0.6327(11) 0.9476(18) 0.3504(14) 0.1478 Uani
C44 C 0.6426(11) 0.8653(18) 0.3740(10) 0.1335 Uani
C45 C 0.6352(9) 0.7764(13) 0.3576(7) 0.1290 Uani
C46 C 0.5244(7) 0.7970(12) 0.1905(6) 0.0811 Uani
C47 C 0.5060(10) 0.8783(18) 0.1859(11) 0.1194 Uani
H25 H 0.5114 0.9221 0.2088 0.1440 Uiso
C48 C 0.4787(7) 0.8961(15) 0.1461(8) 0.1147 Uani
H26 H 0.4681 0.9545 0.1413 0.1380 Uiso
C49 C 0.4671(8) 0.8296(15) 0.1139(8) 0.1149 Uani
C50 C 0.4844(10) 0.7423(16) 0.1225(8) 0.1192 Uani
C51 C 0.5140(10) 0.7295(19) 0.1589(8) 0.1176 Uani
H27 H 0.5275 0.6741 0.1622 0.1400 Uiso
O2 O 0.5969(14) 0.6139(13) 0.3104(8) 0.2204 Uani
O3 O 0.5898(8) 1.0083(14) 0.2886(13) 0.1839 Uani
C52 C 0.5942(10) 1.076(3) 0.2658(17) 0.2005 Uani
H28 H 0.5704 1.1125 0.2618 0.2990 Uiso
H29 H 0.6161 1.1118 0.2814 0.2990 Uiso
H30 H 0.5996 1.0580 0.2365 0.2990 Uiso
O4 O 0.6318(11) 1.022(2) 0.3745(16) 0.2308 Uani
C53 C 0.6671(12) 1.072(2) 0.3853(19) 0.2981 Uani
H31 H 0.6627 1.1247 0.4029 0.4480 Uiso
H32 H 0.6873 1.0345 0.4027 0.4480 Uiso
H33 H 0.6756 1.0911 0.3576 0.4480 Uiso
O5 O 0.4421(5) 0.8367(12) 0.0797(6) 0.1140 Uani
C54 C 0.4199(9) 0.923(2) 0.0753(12) 0.1473 Uani
H34 H 0.4010 0.9221 0.0474 0.2210 Uiso
H35 H 0.4063 0.9292 0.1007 0.2210 Uiso
H36 H 0.4380 0.9726 0.0749 0.2210 Uiso
O6 O 0.4771(9) 0.6902(13) 0.0880(7) 0.1651 Uani
C55 C 0.486(2) 0.5968(17) 0.0990(16) 0.2701 Uani
H37 H 0.4797 0.5605 0.0718 0.4070 Uiso
H38 H 0.5133 0.5904 0.1120 0.4070 Uiso
H39 H 0.4697 0.5766 0.1207 0.4070 Uiso
O7 O 0.5423(10) 0.631(2) 0.2341(7) 0.1499 Uani
C56 C 0.5726(15) 0.571(3) 0.2141(14) 0.2335 Uani
H40 H 0.5597 0.5159 0.2013 0.3470 Uiso
H41 H 0.5825 0.6040 0.1908 0.3470 Uiso
H42 H 0.5942 0.5547 0.2380 0.3470 Uiso
O8 O 0.6719(9) 0.866(2) 0.4134(7) 0.1737 Uani
C57 C 0.6512(17) 0.899(5) 0.4467(16) 0.2991 Uani
H43 H 0.6689 0.9019 0.4756 0.4500 Uiso
H44 H 0.6411 0.9587 0.4383 0.4500 Uiso
H45 H 0.6296 0.8586 0.4492 0.4500 Uiso
O9 O 0.6531(11) 0.7166(13) 0.3737(8) 0.1898 Uani
C58 C 0.649(2) 0.645(3) 0.4025(19) 0.3141 Uani
H46 H 0.6723 0.6086 0.4076 0.4670 Uiso
H47 H 0.6437 0.6685 0.4312 0.4670 Uiso
H48 H 0.6265 0.6078 0.3889 0.4670 Uiso
C59 C 0.7901(18) 0.423(3) 0.4918(11) 0.3277 Uani
H49 H 0.7655 0.4319 0.5033 0.3930 Uiso
H50 H 0.8118 0.4257 0.5176 0.3930 Uiso
C60 C 0.7896(13) 0.330(3) 0.4709(16) 0.2889 Uani
H51 H 0.7877 0.2843 0.4939 0.3450 Uiso
H52 H 0.8140 0.3204 0.4593 0.3450 Uiso
C61 C 0.7547(13) 0.322(2) 0.4325(12) 0.2442 Uani
H53 H 0.7330 0.2914 0.4436 0.2950 Uiso
H54 H 0.7621 0.2846 0.4083 0.2950 Uiso
C62 C 0.7412(9) 0.414(2) 0.4139(9) 0.2037 Uani
H55 H 0.7241 0.4412 0.4330 0.2430 Uiso
H56 H 0.7258 0.4071 0.3834 0.2430 Uiso
C63 C 0.7759(12) 0.477(3) 0.4120(10) 0.2393 Uani
H57 H 0.7948 0.4480 0.3959 0.2840 Uiso
H58 H 0.7667 0.5330 0.3960 0.2840 Uiso
C64 C 0.7949(15) 0.498(3) 0.4597(13) 0.2925 Uani
H59 H 0.7832 0.5533 0.4695 0.3490 Uiso
H60 H 0.8230 0.5094 0.4606 0.3490 Uiso
C65 C 0.4853(14) 0.462(3) 0.2279(11) 0.3000 Uani
H61 H 0.4892 0.5155 0.2101 0.3570 Uiso
H62 H 0.4584 0.4628 0.2341 0.3570 Uiso
C66 C 0.492(2) 0.376(3) 0.2014(10) 0.2773 Uani
H63 H 0.4739 0.3762 0.1722 0.3360 Uiso
H64 H 0.5188 0.3743 0.1959 0.3360 Uiso
C67 C 0.4834(11) 0.295(3) 0.2295(11) 0.2622 Uani
H65 H 0.4836 0.2391 0.2122 0.3120 Uiso
H66 H 0.4578 0.3012 0.2390 0.3120 Uiso
C65A C 0.5147(14) 0.462(3) 0.2721(11) 0.3000 Uani
H61A H 0.5108 0.5155 0.2899 0.3570 Uiso
H62A H 0.5416 0.4628 0.2659 0.3570 Uiso
C66A C 0.508(2) 0.376(3) 0.2986(10) 0.2773 Uani
H63A H 0.5261 0.3762 0.3278 0.3360 Uiso
H64A H 0.4812 0.3743 0.3041 0.3360 Uiso
C67A C 0.5166(11) 0.295(3) 0.2705(11) 0.2622 Uani
H65A H 0.5164 0.2391 0.2878 0.3120 Uiso
H66A H 0.5422 0.3012 0.2610 0.3120 Uiso
loop_
_atom_site_aniso_label
_atom_site_aniso_U_11
_atom_site_aniso_U_22
_atom_site_aniso_U_33
_atom_site_aniso_U_23
_atom_site_aniso_U_13
_atom_site_aniso_U_12
I1 0.1089(16) 0.0594(11) 0.0832(11) -0.0063(9) 0.0010(16) 0.0323(10)
Zn1 0.0961(6) 0.0421(3) 0.0768(5) -0.0156(3) -0.0351(4) 0.0164(3)
N1 0.084(3) 0.039(2) 0.082(3) -0.012(2) -0.031(3) 0.013(2)
I2 0.0899(16) 0.0469(8) 0.122(2) -0.0139(8) -0.0082(9) 0.0034(9)
N2 0.082 0.055 0.076 -0.02 -0.016 -0.001
C1 0.123(7) 0.107(7) 0.182(11) 0.096(8) 0.068(8) 0.063(6)
C2 0.078(4) 0.059(3) 0.075(4) 0.020(3) -0.010(3) -0.011(3)
C3 0.127(7) 0.105(6) 0.168(10) 0.085(7) 0.069(7) 0.060(6)
C4 0.066(3) 0.065(3) 0.077(4) 0.023(3) -0.014(3) -0.003(3)
C5 0.066(3) 0.056(3) 0.068(3) 0.018(3) -0.013(3) -0.001(2)
C6 0.062(3) 0.050(3) 0.066(3) 0.012(2) -0.015(3) -0.002(2)
N3 0.064(3) 0.054(2) 0.062(3) 0.013(2) -0.010(2) 0.004(2)
N4 0.067(3) 0.051(2) 0.070(3) 0.016(2) -0.010(2) 0.002(2)
C7 0.063(3) 0.055(3) 0.071(3) 0.013(3) -0.011(3) 0.004(2)
C8 0.068(3) 0.047(2) 0.067(3) 0.012(2) -0.008(3) -0.001(2)
C9 0.067(3) 0.058(3) 0.072(4) 0.012(3) -0.003(3) 0.008(2)
N5 0.069(3) 0.051(2) 0.078(3) 0.019(2) -0.003(2) 0.005(2)
C10 0.069(3) 0.052(3) 0.069(3) 0.013(2) 0.000(3) -0.001(2)
C11 0.100(5) 0.068(4) 0.075(4) 0.014(3) 0.000(4) 0.022(3)
C12 0.185(12) 0.259(17) 0.133(9) 0.128(11) 0.079(9) 0.158(13)
C13 0.157(9) 0.102(6) 0.150(9) 0.072(7) 0.083(8) 0.070(7)
C14 0.103(5) 0.070(4) 0.131(7) 0.043(5) 0.039(5) 0.031(4)
C15 0.099(5) 0.066(3) 0.070(4) 0.008(3) 0.008(3) 0.017(3)
C16 0.175(12) 0.224(15) 0.117(8) 0.098(10) 0.052(8) 0.131(12)
C17 0.165(9) 0.097(6) 0.158(10) 0.084(7) 0.085(8) 0.071(7)
C18 0.113(6) 0.065(4) 0.122(7) 0.034(4) 0.044(5) 0.024(4)
N6 0.080(3) 0.073(3) 0.076(3) 0.006(3) -0.005(3) 0.023(3)
N7 0.099(4) 0.043(2) 0.085(4) 0.015(2) 0.012(3) 0.004(2)
Zn2 0.0760(5) 0.0639(5) 0.0900(6) -0.0143(4) -0.0184(4) 0.0124(4)
Zn3 0.1109(7) 0.0405(3) 0.0897(6) 0.0077(4) 0.0257(5) 0.0011(4)
I3 0.1277(15) 0.0543(8) 0.172(3) 0.0267(9) -0.0663(17) -0.0123(7)
I4 0.1120(19) 0.1075(16) 0.0885(8) -0.0266(11) 0.0023(10) 0.0224(13)
N8 0.074(3) 0.054(2) 0.077(3) -0.002(2) -0.016(3) 0.013(2)
I5 0.1447(19) 0.0659(7) 0.0822(8) -0.0042(6) -0.0069(10) 0.0001(8)
N9 0.095 0.041 0.088 0.013 0.014 0.002
I6 0.1162(11) 0.0540(7) 0.1161(14) 0.0212(6) 0.0441(8) 0.0212(6)
C19 0.090(4) 0.057(3) 0.097(5) 0.008(3) -0.035(4) 0.013(3)
C20 0.096(5) 0.050(3) 0.092(5) 0.003(3) -0.029(4) 0.009(3)
C21 0.090(4) 0.046(3) 0.100(5) 0.008(3) -0.026(4) 0.008(3)
C22 0.101(5) 0.041(3) 0.087(4) 0.003(3) -0.034(4) 0.011(3)
C23 0.068(3) 0.048(3) 0.072(3) 0.002(2) -0.007(3) 0.010(2)
C24 0.070(3) 0.043(2) 0.073(3) 0.004(2) -0.005(3) 0.013(2)
N10 0.073(3) 0.044(2) 0.077(3) 0.010(2) -0.004(2) 0.009(2)
N11 0.065(2) 0.0395(19) 0.071(3) 0.0003(18) -0.011(2) 0.0097(17)
C25 0.063(3) 0.046(3) 0.084(4) 0.006(2) 0.004(3) 0.006(2)
C26 0.057(3) 0.041(2) 0.072(3) 0.000(2) -0.006(2) 0.006(2)
C27 0.075(4) 0.043(3) 0.088(4) 0.011(3) 0.003(3) 0.004(2)
N12 0.063(2) 0.0398(19) 0.078(3) 0.0031(19) -0.003(2) 0.0074(17)
C28 0.065(3) 0.036(2) 0.079(4) -0.006(2) -0.012(3) 0.010(2)
C29 0.126(6) 0.043(3) 0.103(5) 0.012(3) -0.026(5) -0.006(3)
C30 0.103(5) 0.049(3) 0.127(7) 0.020(4) -0.028(5) 0.004(3)
C31 0.076(4) 0.040(2) 0.089(4) -0.001(3) -0.021(3) 0.003(2)
C32 0.088(4) 0.041(2) 0.099(5) 0.005(3) -0.028(4) -0.002(3)
C33 0.142(7) 0.045(3) 0.112(6) 0.016(4) -0.027(6) -0.014(4)
C34 0.114(6) 0.050(3) 0.122(7) 0.018(4) -0.025(5) 0.011(3)
C35 0.087(4) 0.038(2) 0.082(4) -0.006(2) -0.027(3) 0.004(2)
C36 0.088(4) 0.048(3) 0.105(5) -0.004(3) -0.040(4) -0.001(3)
N9B 0.095(4) 0.041(2) 0.088(4) 0.013(2) 0.014(3) 0.002(2)
N1G 0.084(3) 0.039(2) 0.082(3) -0.012(2) -0.031(3) 0.013(2)
Zn3B 0.1109 0.0405 0.0897 0.0077 0.0257 0.0011
Zn1G 0.0961(6) 0.0421(3) 0.0768(5) -0.0156(3) -0.0351(4) 0.0164(3)
C37 0.101(12) 0.068(9) 0.084(10) 0.026(8) 0.034(9) 0.043(9)
C38 0.155(16) 0.060(9) 0.063(9) 0.021(7) 0.014(10) 0.028(10)
C39 0.20(2) 0.046(8) 0.074(10) -0.002(8) 0.006(13) 0.053(11)
C40 0.21(2) 0.065(10) 0.066(10) 0.005(8) 0.024(12) 0.060(12)
C41 0.137(16) 0.054(9) 0.111(14) 0.008(9) 0.069(12) 0.010(10)
O1 0.091(9) 0.122(12) 0.087(9) 0.036(9) 0.030(8) 0.025(8)
C42 0.129(19) 0.089(17) 0.19(2) 0.007(18) 0.049(19) 0.045(15)
C43 0.18(2) 0.092(14) 0.18(2) -0.026(16) 0.055(19) 0.041(16)
C44 0.20(2) 0.101(17) 0.107(12) -0.013(13) 0.048(14) 0.012(16)
C45 0.22(2) 0.065(11) 0.102(14) 0.001(11) 0.028(16) 0.054(14)
C46 0.102(12) 0.073(9) 0.071(9) 0.024(8) 0.023(9) 0.025(9)
C47 0.14(2) 0.088(14) 0.136(18) -0.006(14) 0.040(17) 0.019(14)
C48 0.126(16) 0.095(13) 0.142(18) 0.038(13) 0.076(14) 0.052(12)
C49 0.148(17) 0.088(13) 0.123(15) 0.037(12) 0.063(14) 0.054(12)
C50 0.181(19) 0.087(12) 0.102(13) 0.015(11) 0.059(14) 0.055(13)
C51 0.17(2) 0.100(15) 0.087(12) 0.009(11) 0.034(13) 0.054(14)
O2 0.43(5) 0.062(10) 0.116(15) 0.009(10) -0.10(2) 0.029(17)
O3 0.18(2) 0.088(12) 0.28(3) 0.075(16) 0.03(2) 0.017(13)
C52 0.092(19) 0.37(6) 0.15(3) 0.07(4) 0.05(2) 0.03(3)
O4 0.30(4) 0.14(2) 0.26(3) -0.03(2) 0.07(3) 0.00(3)
C53 0.32(6) 0.33(6) 0.29(6) -0.04(5) 0.18(5) 0.14(5)
O5 0.121(12) 0.126(12) 0.100(10) 0.031(10) 0.033(9) 0.045(10)
C54 0.13(2) 0.15(2) 0.16(3) 0.07(2) 0.020(19) 0.065(19)
O6 0.25(2) 0.123(14) 0.111(13) -0.006(11) 0.000(15) 0.098(16)
C55 0.48(6) 0.10(2) 0.17(3) -0.01(2) -0.11(4) 0.14(3)
O7 0.22(2) 0.148(18) 0.076(10) 0.016(11) 0.010(12) 0.025(17)
C56 0.20(4) 0.36(6) 0.13(3) 0.06(4) 0.00(3) 0.13(4)
O8 0.22(2) 0.21(3) 0.096(10) -0.017(13) 0.041(12) 0.010(17)
C57 0.26(4) 0.51(12) 0.133(18) -0.10(3) 0.05(2) 0.07(5)
O9 0.34(5) 0.086(13) 0.139(19) -0.005(13) 0.03(2) 0.050(19)
C58 0.50(13) 0.16(4) 0.22(6) 0.04(4) -0.11(7) 0.08(6)
C59 0.41(4) 0.33(4) 0.23(3) -0.03(3) 0.02(3) -0.05(3)
C60 0.36(4) 0.29(3) 0.22(3) -0.04(3) 0.06(3) -0.02(3)
C61 0.33(3) 0.27(3) 0.15(2) -0.05(2) 0.09(2) -0.07(3)
C62 0.27(3) 0.23(3) 0.126(17) -0.001(18) 0.076(19) -0.08(2)
C63 0.33(3) 0.25(3) 0.127(18) 0.01(2) 0.01(2) -0.11(3)
C64 0.36(3) 0.29(3) 0.22(3) -0.01(3) 0.03(3) -0.12(3)
C65 0.35(5) 0.25(4) 0.28(5) -0.03(4) 0.00(4) 0.08(4)
C66 0.34(5) 0.21(4) 0.27(5) -0.03(4) 0.02(4) 0.09(4)
C67 0.33(5) 0.21(4) 0.25(5) 0.01(4) 0.06(4) 0.09(4)
C65A 0.35 0.25 0.28 0.03 0 -0.08
C66A 0.34 0.21 0.27 0.03 0.02 -0.09
C67A 0.33 0.21 0.25 -0.01 0.06 -0.09
loop_
_geom_bond_atom_site_label_1
_geom_bond_atom_site_label_2
_geom_bond_site_symmetry_1
_geom_bond_site_symmetry_2
I1 Zn1 1_555 1_555
Zn1 N1 1_555 1_555
I2 Zn1 1_555 1_555
N2 Zn1 1_555 1_555
C1 N2 1_555 1_555
C2 N2 1_555 1_555
H1 C1 1_555 1_555
C3 C1 1_555 1_555
C4 C2 1_555 1_555
H2 C2 1_555 1_555
C5 C3 1_555 1_555
H3 C3 1_555 1_555
H4 C4 1_555 1_555
C6 C5 1_555 1_555
N3 C6 1_555 1_555
N4 C6 1_555 1_555
C7 N3 1_555 1_555
C8 N4 1_555 1_555
C9 C7 1_555 1_555
N5 C7 1_555 1_555
C10 C8 1_555 1_555
C11 C9 1_555 1_555
C12 C9 1_555 1_555
C13 C10 1_555 1_555
C14 C10 1_555 1_555
C15 C11 1_555 1_555
H5 C11 1_555 1_555
H6 C12 1_555 1_555
C16 C12 1_555 1_555
C17 C13 1_555 1_555
H7 C13 1_555 1_555
C18 C14 1_555 1_555
H8 C14 1_555 1_555
H9 C15 1_555 1_555
N6 C15 1_555 1_555
H10 C16 1_555 1_555
N7 C17 1_555 1_555
H11 C17 1_555 1_555
H12 C18 1_555 1_555
Zn2 N6 1_555 1_555
Zn3 N7 1_555 1_555
I3 Zn2 1_555 1_555
I4 Zn2 1_555 1_555
N8 Zn2 1_555 1_555
I5 Zn3 1_555 1_555
N9 Zn3 1_555 1_555
I6 Zn3 1_555 1_555
C19 N8 1_555 1_555
C20 N8 1_555 1_555
H13 C19 1_555 1_555
C21 C19 1_555 1_555
C22 C20 1_555 1_555
H14 C20 1_555 1_555
H15 C21 1_555 1_555
C23 C21 1_555 1_555
H16 C22 1_555 1_555
C24 C23 1_555 1_555
N10 C24 1_555 1_555
N11 C24 1_555 1_555
C25 N10 1_555 1_555
C26 N11 1_555 1_555
C27 C25 1_555 1_555
N12 C25 1_555 1_555
C28 C26 1_555 1_555
C29 C27 1_555 1_555
C30 C27 1_555 1_555
C31 C28 1_555 1_555
C32 C28 1_555 1_555
H17 C29 1_555 1_555
C33 C29 1_555 1_555
C34 C30 1_555 1_555
H18 C30 1_555 1_555
C35 C31 1_555 1_555
H19 C31 1_555 1_555
H20 C32 1_555 1_555
C36 C32 1_555 1_555
H21 C33 1_555 1_555
H22 C34 1_555 1_555
H23 C35 1_555 1_555
H24 C36 1_555 1_555
C37 C38 1_555 1_555
C38 C39 1_555 1_555
C39 C40 1_555 1_555
C40 C41 1_555 1_555
C41 O1 1_555 1_555
O1 C37 1_555 1_555
C42 C41 1_555 1_555
C43 C42 1_555 1_555
C44 C43 1_555 1_555
C45 C40 1_555 1_555
C46 C37 1_555 1_555
C47 C46 1_555 1_555
H25 C47 1_555 1_555
C48 C47 1_555 1_555
H26 C48 1_555 1_555
C49 C48 1_555 1_555
C50 C49 1_555 1_555
C51 C46 1_555 1_555
H27 C51 1_555 1_555
O2 C39 1_555 1_555
O3 C42 1_555 1_555
C52 O3 1_555 1_555
H28 C52 1_555 1_555
H29 C52 1_555 1_555
H30 C52 1_555 1_555
O4 C43 1_555 1_555
C53 O4 1_555 1_555
H31 C53 1_555 1_555
H32 C53 1_555 1_555
H33 C53 1_555 1_555
O5 C49 1_555 1_555
C54 O5 1_555 1_555
H34 C54 1_555 1_555
H35 C54 1_555 1_555
H36 C54 1_555 1_555
O6 C50 1_555 1_555
C55 O6 1_555 1_555
H37 C55 1_555 1_555
H38 C55 1_555 1_555
H39 C55 1_555 1_555
O7 C38 1_555 1_555
C56 O7 1_555 1_555
H40 C56 1_555 1_555
H41 C56 1_555 1_555
H42 C56 1_555 1_555
O8 C44 1_555 1_555
C57 O8 1_555 1_555
H43 C57 1_555 1_555
H44 C57 1_555 1_555
H45 C57 1_555 1_555
O9 C45 1_555 1_555
C58 O9 1_555 1_555
H46 C58 1_555 1_555
H47 C58 1_555 1_555
H48 C58 1_555 1_555
C59 H49 1_555 1_555
H50 C59 1_555 1_555
C60 C59 1_555 1_555
H51 C60 1_555 1_555
H52 C60 1_555 1_555
C61 C60 1_555 1_555
H53 C61 1_555 1_555
H54 C61 1_555 1_555
C62 C61 1_555 1_555
H55 C62 1_555 1_555
H56 C62 1_555 1_555
C63 C62 1_555 1_555
H57 C63 1_555 1_555
H58 C63 1_555 1_555
C64 C59 1_555 1_555
H59 C64 1_555 1_555
H60 C64 1_555 1_555
C65 H61 1_555 1_555
H62 C65 1_555 1_555
C66 C65 1_555 1_555
H63 C66 1_555 1_555
H64 C66 1_555 1_555
C67 C66 1_555 1_555
H65 C67 1_555 1_555
H66 C67 1_555 1_555
N9B C33 1_555 1_555
N1G C35 1_555 1_555
Zn3B N9B 1_555 1_555
Zn1G N1G 1_555 1_555
C65A C65 1_555 1_555
H61A C65A 1_555 1_555
H62A C65A 1_555 1_555
C66A C65A 1_555 1_555
H63A C66A 1_555 1_555
H64A C66A 1_555 1_555
C67A C67 1_555 1_555
H65A C67A 1_555 1_555
H66A C67A 1_555 1_555
C4 C5 1_555 1_555
C8 N5 1_555 1_555
C16 N6 1_555 1_555
C18 N7 1_555 1_555
C22 C23 1_555 1_555
C26 N12 1_555 1_555
C34 N9B 1_555 1_555
C36 N1G 1_555 1_555
C44 C45 1_555 1_555
C50 C51 1_555 1_555
C63 C64 1_555 1_555
C66A C67A 1_555 1_555

#END
