
#######################################################################
#
#                 Cambridge Crystallographic Data Centre
#                                CCDC 
#
#######################################################################
#
# If this CIF has been generated from an entry in the Cambridge 
# Structural Database, then it will include bibliographic, chemical, 
# crystal, experimental, refinement or atomic coordinate data resulting 
# from the CCDC's data processing and validation procedures.
#
#######################################################################

data_LABNIO
_chemical_formula_moiety         '(C62 H56 I6 N12 O7 Zn3)n'
_symmetry_cell_setting           monoclinic
_symmetry_space_group_name_H-M   'C 2/c'
_symmetry_Int_Tables_number      15
_space_group_name_Hall           '-C 2yc'
loop_
_symmetry_equiv_pos_site_id
_symmetry_equiv_pos_as_xyz
1 x,y,z
2 -x,y,1/2-z
3 1/2+x,1/2+y,z
4 1/2-x,1/2+y,1/2-z
5 -x,-y,-z
6 x,-y,1/2+z
7 1/2-x,1/2-y,-z
8 1/2+x,1/2-y,1/2+z
_cell_length_a                   34.1414(19)
_cell_length_b                   14.5641(5)
_cell_length_c                   34.9597(14)
_cell_angle_alpha                90
_cell_angle_beta                 108.633(5)
_cell_angle_gamma                90
_cell_volume                     16472.2
loop_
_atom_site_label
_atom_site_type_symbol
_atom_site_fract_x
_atom_site_fract_y
_atom_site_fract_z
_atom_site_U_iso_or_equiv
_atom_site_thermal_displace_type
Zn1 Zn 0.11301(5) 1.07383(9) 0.05483(4) 0.0319 Uani
Zn2 Zn 0.34960(4) 1.11268(9) 0.42556(4) 0.0278 Uani
Zn3 Zn 0.33789(5) 0.34611(9) 0.23754(4) 0.0335 Uani
I1 I 0.09620(3) 1.22880(5) 0.08015(2) 0.0441 Uani
I2 I 0.12400(2) 1.05269(5) -0.01278(2) 0.0403 Uani
I3 I 0.27586(2) 1.14605(5) 0.42362(2) 0.0387 Uani
I4 I 0.40331(2) 1.23722(5) 0.43839(3) 0.0441 Uani
I5 I 0.38148(3) 0.31663(5) 0.31010(2) 0.0477 Uani
I6 I 0.27341(2) 0.24753(5) 0.20764(2) 0.0399 Uani
N1 N 0.1619(3) 1.0171(6) 0.0998(3) 0.0305 Uani
C1 C 0.1795(4) 1.0628(7) 0.1347(3) 0.0380 Uani
H1 H 0.1706 1.1236 0.1375 0.0460 Uiso
C2 C 0.2103(4) 1.0229(7) 0.1665(3) 0.0340 Uani
H2 H 0.2226 1.0566 0.1906 0.0410 Uiso
C3 C 0.2228(3) 0.9347(7) 0.1631(3) 0.0272 Uani
C4 C 0.2045(4) 0.8872(7) 0.1273(3) 0.0348 Uani
H3 H 0.2124 0.8259 0.1240 0.0420 Uiso
C5 C 0.1743(3) 0.9318(7) 0.0966(3) 0.0316 Uani
H4 H 0.1619 0.8998 0.0720 0.0380 Uiso
N2 N 0.3425(3) 1.0444(6) 0.3721(2) 0.0292 Uani
C6 C 0.3430(3) 0.9534(7) 0.3708(3) 0.0295 Uani
H5 H 0.3523 0.9204 0.3955 0.0360 Uiso
C7 C 0.3306(3) 0.9045(6) 0.3350(3) 0.0305 Uani
H6 H 0.3326 0.8395 0.3350 0.0370 Uiso
C8 C 0.3154(3) 0.9527(6) 0.2992(3) 0.0265 Uani
C9 C 0.3152(3) 1.0477(7) 0.3004(3) 0.0318 Uani
H7 H 0.3058 1.0820 0.2761 0.0380 Uiso
C10 C 0.3288(4) 1.0927(7) 0.3374(3) 0.0340 Uani
H8 H 0.3285 1.1579 0.3382 0.0410 Uiso
N3 N 0.3235(3) 0.4830(5) 0.2310(3) 0.0307 Uani
C11 C 0.3419(3) 0.5403(6) 0.2617(3) 0.0287 Uani
H9 H 0.3619 0.5159 0.2850 0.0340 Uiso
C12 C 0.3328(4) 0.6331(8) 0.2609(3) 0.0376 Uani
H10 H 0.3465 0.6715 0.2831 0.0450 Uiso
C13 C 0.3031(4) 0.6693(6) 0.2269(3) 0.0296 Uani
C14 C 0.2845(3) 0.6103(7) 0.1946(3) 0.0323 Uani
H11 H 0.2647 0.6330 0.1707 0.0380 Uiso
C15 C 0.2953(4) 0.5193(7) 0.1980(3) 0.0323 Uani
H12 H 0.2823 0.4797 0.1761 0.0390 Uiso
C16 C 0.2542(3) 0.8907(7) 0.1975(3) 0.0271 Uani
N4 N 0.2704(3) 0.9426(5) 0.2303(2) 0.0282 Uani
C17 C 0.2987(3) 0.8991(7) 0.2608(3) 0.0259 Uani
N5 N 0.3109(3) 0.8140(6) 0.2604(3) 0.0274 Uani
C18 C 0.2915(3) 0.7675(7) 0.2266(3) 0.0298 Uani
N6 N 0.2632(3) 0.8016(5) 0.1942(3) 0.0298 Uani
N7 N 0.3753(3) 1.0131(6) 0.4677(3) 0.0329 Uani
C19 C 0.3546(4) 0.9764(14) 0.4912(5) 0.0784 Uani
H13 H 0.3275 0.9979 0.4880 0.0950 Uiso
C20 C 0.3708(5) 0.9103(15) 0.5190(5) 0.0875 Uani
H14 H 0.3556 0.8877 0.5354 0.1050 Uiso
C21 C 0.4102(4) 0.8755(9) 0.5233(4) 0.0415 Uani
C22 C 0.4306(3) 0.9094(7) 0.4986(3) 0.0301 Uani
H15 H 0.4569 0.8861 0.4999 0.0360 Uiso
C23 C 0.4121(3) 0.9783(7) 0.4716(3) 0.0285 Uani
H16 H 0.4268 1.0021 0.4549 0.0340 Uiso
N8 N 0.3715(3) 0.6717(6) 0.6982(3) 0.0386 Uani
C24 C 0.3868(4) 0.6011(8) 0.6830(4) 0.0451 Uani
H17 H 0.3842 0.5407 0.6920 0.0540 Uiso
C25 C 0.4063(4) 0.6144(8) 0.6541(4) 0.0442 Uani
H18 H 0.4182 0.5638 0.6446 0.0530 Uiso
C26 C 0.4085(4) 0.7023(8) 0.6394(3) 0.0370 Uani
C27 C 0.3929(4) 0.7739(9) 0.6556(4) 0.0452 Uani
H19 H 0.3952 0.8350 0.6470 0.0540 Uiso
C28 C 0.3738(4) 0.7574(7) 0.6845(4) 0.0430 Uani
H20 H 0.3621 0.8072 0.6948 0.0520 Uiso
N9 N 0.5659(3) 0.5106(6) 0.5589(3) 0.0329 Uani
C29 C 0.5586(4) 0.5180(9) 0.5948(4) 0.0456 Uani
H21 H 0.5757 0.4844 0.6173 0.0540 Uiso
C30 C 0.5283(4) 0.5711(9) 0.6002(3) 0.0413 Uani
H22 H 0.5242 0.5741 0.6258 0.0500 Uiso
C31 C 0.5031(4) 0.6212(7) 0.5678(3) 0.0313 Uani
C32 C 0.5099(3) 0.6148(8) 0.5312(3) 0.0336 Uani
H23 H 0.4931 0.6476 0.5084 0.0400 Uiso
C33 C 0.5417(3) 0.5597(7) 0.5284(3) 0.0288 Uani
H24 H 0.5467 0.5566 0.5032 0.0350 Uiso
C34 C 0.4263(3) 0.8016(8) 0.5524(3) 0.0350 Uani
N10 N 0.4106(3) 0.7891(7) 0.5825(3) 0.0356 Uani
C35 C 0.4271(4) 0.7184(8) 0.6069(3) 0.0357 Uani
N11 N 0.4556(3) 0.6630(7) 0.6039(3) 0.0364 Uani
C36 C 0.4699(3) 0.6804(7) 0.5733(3) 0.0308 Uani
N12 N 0.4567(3) 0.7505(6) 0.5468(3) 0.0319 Uani
Zn1G Zn 0.61301(5) 0.42617(9) 0.55483(4) 0.0319 Uani
Zn3E Zn 0.33789(5) 0.65389(9) 0.73754(4) 0.0335 Uani
N8E N 0.3715(3) 0.3283(6) 0.1982(3) 0.0386 Uani
N9G N 0.0659(3) 0.9894(6) 0.0589(3) 0.0329 Uani
C37 C 0.3926(4) 0.8328(9) 0.2329(4) 0.0426 Uani
C38 C 0.4026(4) 0.7463(8) 0.2286(4) 0.0369 Uani
H25 H 0.4194 0.7151 0.2519 0.0440 Uiso
C39 C 0.3896(4) 0.6955(8) 0.1906(4) 0.0385 Uani
C40 C 0.3671(4) 0.7529(8) 0.1561(4) 0.0388 Uani
C41 C 0.3542(4) 0.7238(8) 0.1157(4) 0.0395 Uani
C42 C 0.3311(5) 0.7801(9) 0.0842(4) 0.0559 Uani
C43 C 0.4059(4) 0.8856(8) 0.2706(4) 0.0428 Uani
C44 C 0.4176(4) 0.8430(10) 0.3074(4) 0.0494 Uani
H26 H 0.4154 0.7782 0.3089 0.0590 Uiso
C45 C 0.4328(4) 0.8943(9) 0.3426(4) 0.0478 Uani
H27 H 0.4405 0.8637 0.3680 0.0570 Uiso
C46 C 0.4232(5) 1.0322(8) 0.3053(4) 0.0525 Uani
H28 H 0.4242 1.0973 0.3046 0.0630 Uiso
C47 C 0.4078(5) 0.9821(10) 0.2694(4) 0.0583 Uani
H29 H 0.3986 1.0133 0.2442 0.0700 Uiso
O1 O 0.3956(3) 0.6140(5) 0.1887(3) 0.0519 Uani
O2 O 0.3679(3) 0.6405(5) 0.1060(2) 0.0382 Uani
C48 C 0.3374(4) 0.5695(8) 0.0977(4) 0.0450 Uani
H30 H 0.3491 0.5125 0.0911 0.0670 Uiso
H31 H 0.3287 0.5595 0.1215 0.0670 Uiso
H32 H 0.3134 0.5877 0.0748 0.0670 Uiso
O3 O 0.3172(3) 0.7494(7) 0.0453(3) 0.0505 Uani
C49 C 0.3490(4) 0.7401(11) 0.0267(4) 0.0570 Uani
H33 H 0.3368 0.7179 -0.0011 0.0850 Uiso
H34 H 0.3620 0.7999 0.0264 0.0850 Uiso
H35 H 0.3698 0.6962 0.0421 0.0850 Uiso
C50 C 0.4368(4) 0.9867(9) 0.3416(4) 0.0456 Uani
O4 O 0.4525(3) 1.0293(6) 0.3781(3) 0.0523 Uani
C51 C 0.4667(5) 1.1216(9) 0.3777(4) 0.0556 Uani
H36 H 0.4772 1.1447 0.4055 0.0840 Uiso
H37 H 0.4888 1.1232 0.3655 0.0840 Uiso
H38 H 0.4437 1.1603 0.3620 0.0840 Uiso
C52 C 0.3624(8) 0.8488(13) 0.1588(6) 0.0279 Uani
O5 O 0.3757(6) 0.8916(14) 0.1967(5) 0.0359 Uani
C53 C 0.3278(7) 0.8744(13) 0.0881(6) 0.0308 Uani
C54 C 0.3440(6) 0.9106(12) 0.1268(5) 0.0306 Uani
O6 O 0.3085(5) 0.9314(11) 0.0572(5) 0.0387 Uani
C55 C 0.2666(7) 0.910(2) 0.0348(7) 0.0369 Uani
H39 H 0.2560 0.9560 0.0134 0.0550 Uiso
H40 H 0.2652 0.8491 0.0227 0.0550 Uiso
H41 H 0.2498 0.9111 0.0528 0.0550 Uiso
O7 O 0.3416(5) 1.0010(9) 0.1332(5) 0.0347 Uani
C56 C 0.3048(8) 1.028(2) 0.1430(8) 0.0455 Uani
H42 H 0.3051 1.0942 0.1473 0.0690 Uiso
H43 H 0.2801 1.0108 0.1207 0.0690 Uiso
H44 H 0.3045 0.9961 0.1676 0.0690 Uiso
C57 C 0.2410(9) 1.1803(16) 0.0665(15) 0.2005 Uani
H45 H 0.2258 1.1386 0.0443 0.2420 Uiso
H46 H 0.2483 1.1446 0.0919 0.2420 Uiso
C58 C 0.2153(10) 1.248(3) 0.0689(13) 0.1854 Uani
H47 H 0.2000 1.2266 0.0870 0.2260 Uiso
H48 H 0.1947 1.2555 0.0417 0.2260 Uiso
C59 C 0.2317(10) 1.3420(18) 0.0832(9) 0.1247 Uani
H49 H 0.2107 1.3884 0.0697 0.1520 Uiso
H50 H 0.2365 1.3465 0.1126 0.1520 Uiso
C60 C 0.2685(12) 1.362(2) 0.0755(17) 0.2448 Uani
H51 H 0.2606 1.3964 0.0497 0.2960 Uiso
H52 H 0.2838 1.4059 0.0967 0.2960 Uiso
C61 C 0.2947(8) 1.301(3) 0.0731(12) 0.1671 Uani
H53 H 0.3157 1.2957 0.1001 0.2020 Uiso
H54 H 0.3091 1.3250 0.0546 0.2020 Uiso
C62 C 0.2794(10) 1.209(2) 0.0595(7) 0.1235 Uani
H55 H 0.3013 1.1643 0.0731 0.1470 Uiso
H56 H 0.2751 1.2049 0.0301 0.1470 Uiso
loop_
_atom_site_aniso_label
_atom_site_aniso_U_11
_atom_site_aniso_U_22
_atom_site_aniso_U_33
_atom_site_aniso_U_23
_atom_site_aniso_U_13
_atom_site_aniso_U_12
Zn1 0.0316(7) 0.0242(6) 0.0357(7) -0.0007(5) 0.0050(6) 0.0018(6)
Zn2 0.0310(7) 0.0229(6) 0.0286(6) -0.0002(5) 0.0084(5) 0.0005(5)
Zn3 0.0473(9) 0.0184(6) 0.0380(7) -0.0025(5) 0.0183(6) 0.0033(6)
I1 0.0506(4) 0.0229(3) 0.0543(4) -0.0034(3) 0.0104(3) 0.0071(3)
I2 0.0435(4) 0.0390(4) 0.0380(4) 0.0006(3) 0.0123(3) 0.0072(3)
I3 0.0335(4) 0.0474(4) 0.0351(3) 0.0062(3) 0.0110(3) 0.0077(3)
I4 0.0422(4) 0.0263(3) 0.0591(5) -0.0059(3) 0.0096(3) -0.0077(3)
I5 0.0682(6) 0.0297(3) 0.0403(4) 0.0055(3) 0.0105(4) 0.0049(3)
I6 0.0455(4) 0.0243(3) 0.0550(4) -0.0045(3) 0.0232(3) 0.0004(3)
N1 0.036(5) 0.024(4) 0.031(4) 0.000(3) 0.010(4) 0.003(4)
C1 0.049(7) 0.024(5) 0.037(6) -0.003(4) 0.008(5) 0.006(5)
C2 0.037(6) 0.028(5) 0.030(5) -0.005(4) 0.001(4) 0.000(4)
C3 0.024(5) 0.023(5) 0.035(5) 0.001(4) 0.010(4) -0.005(4)
C4 0.044(6) 0.019(5) 0.039(6) -0.004(4) 0.010(5) 0.002(4)
C5 0.038(6) 0.020(5) 0.035(5) -0.004(4) 0.009(4) -0.005(4)
N2 0.041(5) 0.019(4) 0.029(4) -0.002(3) 0.013(4) -0.005(4)
C6 0.033(5) 0.023(5) 0.031(5) 0.001(4) 0.008(4) -0.003(4)
C7 0.041(6) 0.010(4) 0.038(5) -0.004(4) 0.009(5) -0.004(4)
C8 0.027(5) 0.013(4) 0.043(6) -0.003(4) 0.016(4) -0.003(4)
C9 0.042(6) 0.020(5) 0.027(5) 0.002(4) 0.002(4) -0.006(4)
C10 0.042(6) 0.027(5) 0.031(5) -0.001(4) 0.009(5) 0.003(5)
N3 0.036(5) 0.016(4) 0.042(5) 0.001(3) 0.015(4) -0.001(3)
C11 0.035(5) 0.019(4) 0.029(5) -0.002(4) 0.006(4) 0.003(4)
C12 0.045(7) 0.034(6) 0.031(5) -0.004(4) 0.008(5) -0.001(5)
C13 0.045(6) 0.017(4) 0.029(5) -0.003(4) 0.015(4) -0.006(4)
C14 0.030(5) 0.028(5) 0.039(6) -0.006(4) 0.011(4) -0.007(4)
C15 0.043(6) 0.025(5) 0.028(5) -0.004(4) 0.010(4) 0.008(4)
C16 0.024(5) 0.023(5) 0.036(5) -0.001(4) 0.012(4) -0.004(4)
N4 0.035(5) 0.017(4) 0.032(4) -0.002(3) 0.010(4) 0.005(3)
C17 0.025(5) 0.024(5) 0.029(5) -0.004(4) 0.009(4) -0.003(4)
N5 0.029(4) 0.020(4) 0.034(4) -0.002(3) 0.011(4) 0.003(3)
C18 0.035(5) 0.027(5) 0.028(5) 0.001(4) 0.011(4) 0.005(4)
N6 0.037(5) 0.011(3) 0.038(5) -0.002(3) 0.007(4) -0.002(3)
N7 0.031(5) 0.034(5) 0.034(5) 0.008(4) 0.011(4) -0.002(4)
C19 0.027(7) 0.128(16) 0.093(12) 0.065(11) 0.037(7) 0.034(8)
C20 0.057(10) 0.131(17) 0.084(12) 0.071(12) 0.036(9) 0.039(11)
C21 0.028(6) 0.050(7) 0.044(6) 0.015(5) 0.008(5) 0.007(5)
C22 0.028(5) 0.030(5) 0.032(5) 0.000(4) 0.009(4) 0.002(4)
C23 0.029(5) 0.022(5) 0.039(5) 0.001(4) 0.017(4) 0.000(4)
N8 0.051(6) 0.025(4) 0.046(5) 0.007(4) 0.024(5) -0.001(4)
C24 0.063(8) 0.031(6) 0.051(7) 0.010(5) 0.032(6) 0.009(6)
C25 0.050(7) 0.031(6) 0.059(8) 0.005(5) 0.028(6) 0.001(5)
C26 0.042(6) 0.034(6) 0.038(6) 0.004(5) 0.017(5) 0.000(5)
C27 0.055(8) 0.037(6) 0.047(7) 0.007(5) 0.021(6) -0.004(6)
C28 0.076(9) 0.013(4) 0.050(7) -0.003(4) 0.034(6) -0.006(5)
N9 0.033(5) 0.018(4) 0.044(5) -0.001(3) 0.007(4) -0.003(3)
C29 0.041(7) 0.050(7) 0.044(7) 0.003(5) 0.011(5) 0.015(6)
C30 0.047(7) 0.045(7) 0.029(5) 0.007(5) 0.008(5) 0.008(6)
C31 0.037(6) 0.024(5) 0.031(5) 0.001(4) 0.008(4) -0.004(4)
C32 0.020(5) 0.044(6) 0.036(5) 0.003(5) 0.008(4) -0.010(4)
C33 0.027(5) 0.027(5) 0.032(5) -0.001(4) 0.009(4) -0.001(4)
C34 0.031(5) 0.045(6) 0.030(5) 0.008(5) 0.011(4) 0.002(5)
N10 0.033(5) 0.038(5) 0.037(5) 0.010(4) 0.013(4) 0.002(4)
C35 0.033(6) 0.035(6) 0.038(6) 0.005(4) 0.010(5) 0.000(5)
N11 0.040(5) 0.038(5) 0.031(5) 0.008(4) 0.011(4) -0.001(4)
C36 0.021(5) 0.028(5) 0.042(6) 0.007(4) 0.008(4) -0.001(4)
N12 0.029(4) 0.032(5) 0.034(4) 0.007(4) 0.009(4) -0.006(4)
Zn1G 0.0316 0.0242 0.0357 0.0007 0.005 -0.0018
Zn3E 0.0473 0.0184 0.038 0.0025 0.0183 -0.0033
N8E 0.051 0.025 0.046 -0.007 0.024 0.001
N9G 0.033 0.018 0.044 0.001 0.007 0.003
C37 0.029(6) 0.040(6) 0.055(7) -0.010(5) 0.008(5) 0.004(5)
C38 0.042(6) 0.028(5) 0.045(6) -0.003(5) 0.020(5) 0.000(5)
C39 0.042(7) 0.032(6) 0.045(6) -0.004(5) 0.019(5) -0.001(5)
C40 0.031(6) 0.027(5) 0.057(7) -0.007(5) 0.012(5) 0.005(5)
C41 0.037(6) 0.024(5) 0.058(7) -0.002(5) 0.016(5) -0.003(5)
C42 0.058(9) 0.035(7) 0.056(8) -0.008(6) -0.008(7) 0.005(6)
C43 0.029(6) 0.039(6) 0.057(7) -0.018(5) 0.009(5) -0.002(5)
C44 0.051(8) 0.050(7) 0.055(8) -0.020(6) 0.028(6) -0.024(6)
C45 0.041(7) 0.053(8) 0.058(8) -0.015(6) 0.028(6) -0.015(6)
C46 0.068(9) 0.022(6) 0.060(8) -0.012(5) 0.010(7) 0.006(6)
C47 0.062(9) 0.046(8) 0.055(8) -0.010(6) 0.002(7) 0.012(7)
O1 0.082(7) 0.023(4) 0.053(5) -0.004(4) 0.025(5) 0.002(4)
O2 0.040(4) 0.029(4) 0.051(5) -0.005(3) 0.022(4) -0.003(3)
C48 0.052(8) 0.034(6) 0.052(7) -0.005(5) 0.021(6) -0.008(6)
O3 0.039(5) 0.051(5) 0.055(5) -0.008(4) 0.006(4) 0.002(4)
C49 0.043(7) 0.066(9) 0.057(8) 0.015(7) 0.009(6) 0.007(7)
C50 0.022(5) 0.056(8) 0.057(8) -0.012(6) 0.010(5) -0.007(5)
O4 0.054(6) 0.041(5) 0.057(5) -0.017(4) 0.011(4) 0.005(4)
C51 0.069(10) 0.039(7) 0.051(8) -0.017(6) 0.008(7) -0.011(7)
C52 0.032(13) 0.019(10) 0.035(13) 0.001(9) 0.014(10) 0.004(9)
O5 0.030(11) 0.034(10) 0.040(10) -0.004(8) 0.006(8) -0.001(8)
C53 0.015(10) 0.033(11) 0.046(12) -0.005(9) 0.012(9) -0.007(9)
C54 0.021(9) 0.032(7) 0.039(11) 0.000(6) 0.010(8) -0.008(6)
O6 0.040(10) 0.039(9) 0.044(9) 0.006(7) 0.023(8) 0.000(7)
C55 0.030(15) 0.038(17) 0.052(16) 0.006(12) 0.026(13) 0.019(13)
O7 0.034(8) 0.029(7) 0.043(8) 0.000(5) 0.015(6) -0.005(5)
C56 0.048(11) 0.047(14) 0.047(14) 0.006(11) 0.023(11) 0.006(10)
C57 0.088(19) 0.049(13) 0.44(7) -0.04(2) 0.05(3) 0.000(13)
C58 0.13(3) 0.18(4) 0.31(5) -0.06(4) 0.16(3) -0.08(3)
C59 0.16(3) 0.089(17) 0.16(3) 0.008(17) 0.10(2) 0.044(18)
C60 0.16(4) 0.09(2) 0.54(9) -0.08(4) 0.19(5) -0.06(2)
C61 0.061(15) 0.22(4) 0.23(4) -0.05(3) 0.06(2) -0.05(2)
C62 0.15(3) 0.15(3) 0.080(14) 0.023(15) 0.050(16) 0.08(2)
loop_
_geom_bond_atom_site_label_1
_geom_bond_atom_site_label_2
_geom_bond_site_symmetry_1
_geom_bond_site_symmetry_2
Zn1 I1 1_555 1_555
Zn2 I3 1_555 1_555
Zn3 I5 1_555 1_555
I2 Zn1 1_555 1_555
I4 Zn2 1_555 1_555
I6 Zn3 1_555 1_555
N1 Zn1 1_555 1_555
C1 N1 1_555 1_555
H1 C1 1_555 1_555
C2 C1 1_555 1_555
H2 C2 1_555 1_555
C3 C2 1_555 1_555
C4 C3 1_555 1_555
H3 C4 1_555 1_555
C5 N1 1_555 1_555
H4 C5 1_555 1_555
N2 Zn2 1_555 1_555
C6 N2 1_555 1_555
H5 C6 1_555 1_555
C7 C6 1_555 1_555
H6 C7 1_555 1_555
C8 C7 1_555 1_555
C9 C8 1_555 1_555
H7 C9 1_555 1_555
C10 N2 1_555 1_555
H8 C10 1_555 1_555
N3 Zn3 1_555 1_555
C11 N3 1_555 1_555
H9 C11 1_555 1_555
C12 C11 1_555 1_555
H10 C12 1_555 1_555
C13 C12 1_555 1_555
C14 C13 1_555 1_555
H11 C14 1_555 1_555
C15 N3 1_555 1_555
H12 C15 1_555 1_555
C16 C3 1_555 1_555
N4 C16 1_555 1_555
C17 C8 1_555 1_555
N5 C17 1_555 1_555
C18 C13 1_555 1_555
N6 C16 1_555 1_555
N7 Zn2 1_555 1_555
C19 N7 1_555 1_555
H13 C19 1_555 1_555
C20 C19 1_555 1_555
H14 C20 1_555 1_555
C21 C20 1_555 1_555
C22 C21 1_555 1_555
H15 C22 1_555 1_555
C23 N7 1_555 1_555
H16 C23 1_555 1_555
N8 C24 1_555 1_555
C24 H17 1_555 1_555
C25 C24 1_555 1_555
H18 C25 1_555 1_555
C26 C25 1_555 1_555
C27 C26 1_555 1_555
H19 C27 1_555 1_555
C28 N8 1_555 1_555
H20 C28 1_555 1_555
N9 C29 1_555 1_555
C29 H21 1_555 1_555
C30 C29 1_555 1_555
H22 C30 1_555 1_555
C31 C30 1_555 1_555
C32 C31 1_555 1_555
H23 C32 1_555 1_555
C33 N9 1_555 1_555
H24 C33 1_555 1_555
C34 C21 1_555 1_555
N10 C34 1_555 1_555
C35 C26 1_555 1_555
N11 C35 1_555 1_555
C36 C31 1_555 1_555
N12 C34 1_555 1_555
C37 C38 1_555 1_555
C38 H25 1_555 1_555
C39 C38 1_555 1_555
C40 C39 1_555 1_555
C41 C40 1_555 1_555
C42 C41 1_555 1_555
C43 C37 1_555 1_555
C44 C43 1_555 1_555
H26 C44 1_555 1_555
C45 C44 1_555 1_555
H27 C45 1_555 1_555
C46 H28 1_555 1_555
C47 C43 1_555 1_555
H29 C47 1_555 1_555
O1 C39 1_555 1_555
O2 C41 1_555 1_555
C48 O2 1_555 1_555
H30 C48 1_555 1_555
H31 C48 1_555 1_555
H32 C48 1_555 1_555
O3 C42 1_555 1_555
C49 O3 1_555 1_555
H33 C49 1_555 1_555
H34 C49 1_555 1_555
H35 C49 1_555 1_555
C50 C45 1_555 1_555
O4 C50 1_555 1_555
C51 O4 1_555 1_555
H36 C51 1_555 1_555
H37 C51 1_555 1_555
H38 C51 1_555 1_555
C52 C40 1_555 1_555
O5 C37 1_555 1_555
C53 C42 1_555 1_555
C54 C52 1_555 1_555
O6 C53 1_555 1_555
C55 O6 1_555 1_555
H39 C55 1_555 1_555
H40 C55 1_555 1_555
H41 C55 1_555 1_555
O7 C54 1_555 1_555
C56 O7 1_555 1_555
H42 C56 1_555 1_555
H43 C56 1_555 1_555
H44 C56 1_555 1_555
C57 H45 1_555 1_555
H46 C57 1_555 1_555
C58 C57 1_555 1_555
H47 C58 1_555 1_555
H48 C58 1_555 1_555
C59 C58 1_555 1_555
H49 C59 1_555 1_555
H50 C59 1_555 1_555
C60 C59 1_555 1_555
H51 C60 1_555 1_555
H52 C60 1_555 1_555
C61 C60 1_555 1_555
H53 C61 1_555 1_555
H54 C61 1_555 1_555
C62 C57 1_555 1_555
H55 C62 1_555 1_555
H56 C62 1_555 1_555
Zn1G N9 1_555 1_555
Zn3E N8 1_555 1_555
N8E Zn3 1_555 1_555
N9G Zn1 1_555 1_555
C4 C5 1_555 1_555
C9 C10 1_555 1_555
C14 C15 1_555 1_555
N4 C17 1_555 1_555
N5 C18 1_555 1_555
C18 N6 1_555 1_555
C22 C23 1_555 1_555
C27 C28 1_555 1_555
C32 C33 1_555 1_555
N10 C35 1_555 1_555
N11 C36 1_555 1_555
C36 N12 1_555 1_555
C46 C47 1_555 1_555
C46 C50 1_555 1_555
C52 O5 1_555 1_555
C53 C54 1_555 1_555
C61 C62 1_555 1_555

#END
