
#######################################################################
#
#                 Cambridge Crystallographic Data Centre
#                                CCDC 
#
#######################################################################
#
# If this CIF has been generated from an entry in the Cambridge 
# Structural Database, then it will include bibliographic, chemical, 
# crystal, experimental, refinement or atomic coordinate data resulting 
# from the CCDC's data processing and validation procedures.
#
#######################################################################

data_LABNUA
_chemical_formula_moiety         '(C66 H74 I6 N14 Zn3)n'
_symmetry_cell_setting           monoclinic
_symmetry_space_group_name_H-M   'C 2/c'
_symmetry_Int_Tables_number      15
_space_group_name_Hall           '-C 2yc'
loop_
_symmetry_equiv_pos_site_id
_symmetry_equiv_pos_as_xyz
1 x,y,z
2 -x,y,1/2-z
3 1/2+x,1/2+y,z
4 1/2-x,1/2+y,1/2-z
5 -x,-y,-z
6 x,-y,1/2+z
7 1/2-x,1/2-y,-z
8 1/2+x,1/2-y,1/2+z
_cell_length_a                   36.8116(10)
_cell_length_b                   14.6974(3)
_cell_length_c                   30.6993(8)
_cell_angle_alpha                90
_cell_angle_beta                 103.070(2)
_cell_angle_gamma                90
_cell_volume                     16179.1
loop_
_atom_site_label
_atom_site_type_symbol
_atom_site_fract_x
_atom_site_fract_y
_atom_site_fract_z
_atom_site_U_iso_or_equiv
_atom_site_thermal_displace_type
I1 I 0.35982(2) 0.60724(6) 0.49890(2) 0.0734 Uani
Zn1 Zn 0.38097(3) 0.59965(6) 0.42624(3) 0.0430 Uani
I2 I 0.39957(2) 0.73548(4) 0.38478(2) 0.0686 Uani
N1 N 0.33845(17) 0.5315(4) 0.3824(2) 0.0406 Uani
N2 N 0.42483(17) 0.5109(4) 0.4339(2) 0.0427 Uani
C1 C 0.3164(2) 0.5753(5) 0.3480(3) 0.0461 Uani
C2 C 0.3313(2) 0.4456(5) 0.3902(3) 0.0518 Uani
H1 H 0.3219 0.6366 0.3421 0.0550 Uiso
C3 C 0.2861(2) 0.5342(5) 0.3211(3) 0.0469 Uani
C4 C 0.3013(2) 0.3984(5) 0.3638(3) 0.0470 Uani
H2 H 0.3472 0.4149 0.4144 0.0620 Uiso
H3 H 0.2707 0.5670 0.2972 0.0560 Uiso
C5 C 0.27799(19) 0.4438(5) 0.3291(2) 0.0369 Uani
H4 H 0.2970 0.3364 0.3698 0.0560 Uiso
C6 C 0.2451(2) 0.3993(4) 0.3004(2) 0.0362 Uani
N3 N 0.22368(17) 0.4513(4) 0.2690(2) 0.0396 Uani
N4 N 0.23838(16) 0.3116(4) 0.30848(19) 0.0367 Uani
C7 C 0.1925(2) 0.4119(4) 0.2463(3) 0.0399 Uani
C8 C 0.2076(2) 0.2782(4) 0.2813(2) 0.0357 Uani
C9 C 0.1666(2) 0.4664(4) 0.2124(2) 0.0403 Uani
N5 N 0.18327(17) 0.3257(4) 0.2512(2) 0.0386 Uani
C10 C 0.19891(19) 0.1796(4) 0.2839(2) 0.0355 Uani
C11 C 0.1753(2) 0.5535(5) 0.2003(3) 0.0449 Uani
C12 C 0.1321(2) 0.4295(5) 0.1924(3) 0.0564 Uani
C13 C 0.2235(2) 0.1191(5) 0.3104(3) 0.0414 Uani
C14 C 0.1666(2) 0.1448(5) 0.2568(3) 0.0505 Uani
C15 C 0.1499(2) 0.5994(5) 0.1673(2) 0.0419 Uani
H5 H 0.1982 0.5812 0.2144 0.0540 Uiso
H6 H 0.1252 0.3707 0.2004 0.0670 Uiso
C16 C 0.1083(3) 0.4806(5) 0.1605(3) 0.0600 Uani
C17 C 0.2142(2) 0.0276(5) 0.3080(3) 0.0437 Uani
H7 H 0.2459 0.1399 0.3295 0.0490 Uiso
H8 H 0.1494 0.1845 0.2383 0.0610 Uiso
C18 C 0.1593(2) 0.0536(5) 0.2566(3) 0.0522 Uani
N6 N 0.11742(18) 0.5635(4) 0.1476(2) 0.0440 Uani
H9 H 0.1561 0.6584 0.1585 0.0500 Uiso
H10 H 0.0844 0.4564 0.1471 0.0720 Uiso
N7 N 0.18323(18) -0.0054(4) 0.2818(2) 0.0433 Uani
H11 H 0.2309 -0.0138 0.3262 0.0520 Uiso
H12 H 0.1368 0.0312 0.2382 0.0620 Uiso
Zn2 Zn 0.07746(3) 0.62677(6) 0.09806(3) 0.0437 Uani
Zn3 Zn 0.16959(3) -0.14290(6) 0.27594(4) 0.0439 Uani
I3 I 0.0206(3) 0.6590(9) 0.1289(3) 0.0869 Uani
I4 I 0.1074(2) 0.7460(7) 0.0585(3) 0.0388 Uani
N8 N 0.06742(18) 0.5150(4) 0.0546(2) 0.0416 Uani
N9 N 0.13991(18) -0.1579(4) 0.3247(2) 0.0430 Uani
I5 I 0.12079(14) -0.16499(19) 0.20039(16) 0.0614 Uani
I6 I 0.22729(10) -0.2414(3) 0.29347(12) 0.0504 Uani
C19 C 0.1117(3) -0.1033(7) 0.3259(4) 0.0714 Uani
C20 C 0.1470(3) -0.2243(6) 0.3556(3) 0.0537 Uani
C21 C 0.0876(3) -0.1158(7) 0.3541(4) 0.0790 Uani
H13 H 0.1076 -0.0525 0.3063 0.0850 Uiso
H14 H 0.1684 -0.2615 0.3570 0.0640 Uiso
C22 C 0.1249(2) -0.2408(5) 0.3852(3) 0.0487 Uani
H15 H 0.0670 -0.0762 0.3527 0.0950 Uiso
C23 C 0.0941(2) -0.1866(5) 0.3840(3) 0.0433 Uani
H16 H 0.1307 -0.2890 0.4062 0.0590 Uiso
C24 C 0.0687(2) -0.2030(5) 0.4145(3) 0.0414 Uani
N10 N 0.07510(17) -0.2755(4) 0.4415(2) 0.0414 Uani
N11 N 0.04095(17) -0.1432(4) 0.4130(2) 0.0412 Uani
C25 C 0.0531(2) -0.2831(5) 0.4698(3) 0.0414 Uani
C26 C 0.01994(19) -0.1586(5) 0.4419(2) 0.0392 Uani
C27 C 0.0580(2) -0.3636(5) 0.4998(2) 0.0391 Uani
N12 N 0.02541(17) -0.2249(4) 0.4727(2) 0.0404 Uani
C28 C -0.01271(19) -0.0997(5) 0.4400(2) 0.0387 Uani
C29 C 0.0308(2) -0.3880(5) 0.5224(3) 0.0431 Uani
C30 C 0.0902(2) -0.4157(6) 0.5056(3) 0.0567 Uani
C31 C -0.0289(2) -0.0882(5) 0.4760(3) 0.0432 Uani
C32 C -0.0289(3) -0.0556(8) 0.4005(3) 0.0665 Uani
H17 H 0.0087 -0.3530 0.5193 0.0520 Uiso
C33 C 0.0366(2) -0.4640(5) 0.5494(3) 0.0451 Uani
C34 C 0.0935(3) -0.4914(6) 0.5330(3) 0.0574 Uani
H18 H 0.1096 -0.3997 0.4910 0.0680 Uiso
H19 H -0.0192 -0.1187 0.5034 0.0520 Uiso
C35 C -0.0597(2) -0.0314(5) 0.4715(3) 0.0433 Uani
H20 H -0.0189 -0.0621 0.3747 0.0800 Uiso
C36 C -0.0600(3) -0.0021(8) 0.3992(3) 0.0725 Uani
H21 H 0.0181 -0.4808 0.5650 0.0540 Uiso
H22 H 0.1152 -0.5280 0.5365 0.0690 Uiso
H23 H -0.0702 -0.0225 0.4967 0.0520 Uiso
H24 H -0.0711 0.0271 0.3718 0.0870 Uiso
N8E N 0.06742(18) -0.5150(4) 0.5546(2) 0.0416 Uani
N2B N -0.07517(17) 0.0109(4) 0.4339(2) 0.0427 Uani
Zn2E Zn 0.07746(3) -0.62677(6) 0.59806(3) 0.0437 Uani
Zn1B Zn -0.11903(3) 0.09965(6) 0.42624(3) 0.0430 Uani
C37 C 0.7303(4) 0.5038(12) 0.4237(5) 0.1061 Uani
C38 C 0.7221(5) 0.5968(13) 0.4296(6) 0.1265 Uani
C39 C 0.7490(5) 0.6623(14) 0.4323(6) 0.1283 Uani
H25 H 0.7432 0.7236 0.4377 0.1540 Uiso
C40 C 0.7842(5) 0.6412(12) 0.4274(5) 0.1066 Uani
H26 H 0.8023 0.6878 0.4281 0.1280 Uiso
C41 C 0.7928(3) 0.5539(11) 0.4216(4) 0.0844 Uani
H27 H 0.8173 0.5393 0.4189 0.1020 Uiso
C42 C 0.7660(4) 0.4817(11) 0.4192(4) 0.0871 Uani
N13 N 0.7037(4) 0.4360(11) 0.4203(5) 0.1577 Uani
H28 H 0.7095 0.3794 0.4153 0.1890 Uiso
H29 H 0.6811 0.4495 0.4231 0.1890 Uiso
C43 C 0.6833(6) 0.621(2) 0.4332(8) 0.1897 Uani
H30 H 0.6736 0.5627 0.4424 0.2300 Uiso
C44 C 0.6609(8) 0.637(4) 0.3929(11) 0.3715 Uani
H31 H 0.6657 0.5919 0.3715 0.5590 Uiso
H32 H 0.6348 0.6329 0.3952 0.5590 Uiso
H33 H 0.6657 0.6982 0.3827 0.5590 Uiso
C45 C 0.6797(7) 0.6827(18) 0.4689(8) 0.1996 Uani
H34 H 0.6974 0.6649 0.4966 0.2990 Uiso
H35 H 0.6852 0.7450 0.4610 0.2990 Uiso
H36 H 0.6543 0.6797 0.4734 0.2990 Uiso
C46 C 0.7748(6) 0.3858(12) 0.4147(6) 0.1229 Uani
H37 H 0.7521 0.3560 0.3961 0.1480 Uiso
C47 C 0.7842(9) 0.3365(15) 0.4610(9) 0.2052 Uani
H38 H 0.7900 0.2725 0.4567 0.3080 Uiso
H39 H 0.8058 0.3658 0.4805 0.3080 Uiso
H40 H 0.7627 0.3402 0.4747 0.3080 Uiso
C48 C 0.8074(6) 0.3683(17) 0.3913(9) 0.1837 Uani
H41 H 0.8116 0.3027 0.3897 0.2800 Uiso
H42 H 0.8012 0.3938 0.3611 0.2800 Uiso
H43 H 0.8301 0.3974 0.4085 0.2800 Uiso
C49 C 0.6513(8) 1.0317(13) 0.3487(9) 0.1283 Uani
C50 C 0.6091(9) 1.030(2) 0.3346(12) 0.1542 Uani
C51 C 0.5869(13) 1.011(3) 0.3625(15) 0.2134 Uani
H44 H 0.5604 1.0115 0.3552 0.2570 Uiso
C52 C 0.6154(12) 0.986(2) 0.4142(14) 0.1878 Uani
H45 H 0.6028 0.9678 0.4366 0.2260 Uiso
C53 C 0.6542(12) 0.989(2) 0.4278(13) 0.1729 Uani
H46 H 0.6662 0.9753 0.4578 0.2060 Uiso
C54 C 0.6757(10) 1.0117(14) 0.3960(10) 0.1360 Uani
N14 N 0.6712(6) 1.0490(15) 0.3184(7) 0.1449 Uani
H47 H 0.6598 1.0591 0.2904 0.1760 Uiso
H48 H 0.6957 1.0503 0.3264 0.1760 Uiso
C55 C 0.7180(11) 1.016(2) 0.4067(11) 0.1614 Uani
H49 H 0.7260 0.9927 0.3797 0.1940 Uiso
C56 C 0.7310(10) 1.105(2) 0.4135(9) 0.1653 Uani
H50 H 0.7207 1.1411 0.3869 0.2490 Uiso
H51 H 0.7233 1.1305 0.4394 0.2490 Uiso
H52 H 0.7583 1.1047 0.4191 0.2490 Uiso
C57 C 0.7296(14) 0.947(3) 0.4420(18) 0.2739 Uani
H53 H 0.7180 0.8886 0.4318 0.4140 Uiso
H54 H 0.7568 0.9407 0.4487 0.4140 Uiso
H55 H 0.7218 0.9664 0.4690 0.4140 Uiso
C58 C 0.5945(11) 1.056(3) 0.2839(13) 0.1904 Uani
H56 H 0.6130 1.0719 0.2659 0.2280 Uiso
C59 C 0.5694(15) 0.967(3) 0.2706(15) 0.3000 Uani
H57 H 0.5855 0.9146 0.2692 0.4480 Uiso
H58 H 0.5548 0.9559 0.2930 0.4480 Uiso
H59 H 0.5526 0.9763 0.2412 0.4480 Uiso
C60 C 0.5622(10) 1.117(3) 0.2827(11) 0.2395 Uani
H60 H 0.5517 1.1358 0.2518 0.3600 Uiso
H61 H 0.5431 1.0849 0.2944 0.3600 Uiso
H62 H 0.5705 1.1709 0.3011 0.3600 Uiso
C61 C 0.5439(13) 0.815(3) 0.4207(14) 0.3462 Uani
H63 H 0.5519 0.8784 0.4275 0.4140 Uiso
H64 H 0.5343 0.7907 0.4461 0.4140 Uiso
C62 C 0.5127(12) 0.811(3) 0.3773(18) 0.4100 Uani
H65 H 0.5169 0.8588 0.3561 0.4950 Uiso
H66 H 0.4880 0.8221 0.3843 0.4950 Uiso
C63 C 0.5137(14) 0.715(4) 0.3563(13) 0.4698 Uani
H67 H 0.4889 0.7000 0.3375 0.5640 Uiso
H68 H 0.5321 0.7144 0.3372 0.5640 Uiso
C64 C 0.5248(14) 0.645(3) 0.3946(18) 0.4075 Uani
H69 H 0.5099 0.6549 0.4173 0.4900 Uiso
H70 H 0.5199 0.5826 0.3826 0.4900 Uiso
C65 C 0.5659(13) 0.656(3) 0.4157(17) 0.3825 Uani
H71 H 0.5808 0.6191 0.3992 0.4570 Uiso
H72 H 0.5711 0.6341 0.4470 0.4570 Uiso
C66 C 0.5771(8) 0.758(3) 0.4148(16) 0.3700 Uani
H73 H 0.5992 0.7704 0.4392 0.4460 Uiso
H74 H 0.5835 0.7723 0.3860 0.4460 Uiso
loop_
_atom_site_aniso_label
_atom_site_aniso_U_11
_atom_site_aniso_U_22
_atom_site_aniso_U_33
_atom_site_aniso_U_23
_atom_site_aniso_U_13
_atom_site_aniso_U_12
I1 0.0743(4) 0.0927(5) 0.0540(3) -0.0258(3) 0.0162(3) -0.0154(3)
Zn1 0.0449(5) 0.0341(5) 0.0435(5) -0.0049(4) -0.0036(4) 0.0005(4)
I2 0.0816(4) 0.0410(3) 0.0746(4) 0.0094(3) -0.0001(3) -0.0113(3)
N1 0.042(3) 0.033(3) 0.040(3) -0.002(2) -0.005(2) 0.003(2)
N2 0.042(3) 0.042(3) 0.038(3) -0.001(3) -0.004(2) 0.004(3)
C1 0.053(4) 0.026(3) 0.049(4) 0.000(3) -0.010(3) 0.001(3)
C2 0.056(5) 0.031(3) 0.053(4) 0.007(3) -0.020(4) 0.006(3)
C3 0.052(4) 0.030(3) 0.049(4) 0.001(3) -0.009(3) 0.006(3)
C4 0.051(4) 0.030(3) 0.049(4) 0.003(3) -0.012(3) 0.000(3)
C5 0.039(3) 0.030(3) 0.037(3) -0.004(3) -0.001(3) 0.005(3)
C6 0.041(4) 0.028(3) 0.035(3) 0.000(3) -0.001(3) 0.004(3)
N3 0.043(3) 0.027(3) 0.041(3) -0.001(2) -0.007(2) 0.004(2)
N4 0.040(3) 0.030(3) 0.037(3) 0.005(2) 0.002(2) 0.008(2)
C7 0.046(4) 0.024(3) 0.044(4) 0.001(3) -0.002(3) 0.008(3)
C8 0.042(4) 0.023(3) 0.041(4) 0.002(3) 0.007(3) 0.004(3)
C9 0.049(4) 0.023(3) 0.039(4) 0.000(3) -0.011(3) 0.006(3)
N5 0.042(3) 0.022(2) 0.046(3) 0.002(2) -0.002(3) 0.005(2)
C10 0.039(3) 0.026(3) 0.040(3) 0.001(3) 0.006(3) 0.005(3)
C11 0.053(4) 0.026(3) 0.048(4) 0.002(3) -0.005(3) -0.001(3)
C12 0.059(5) 0.023(3) 0.067(5) 0.011(3) -0.028(4) -0.003(3)
C13 0.042(4) 0.032(3) 0.044(4) 0.003(3) -0.003(3) 0.003(3)
C14 0.049(4) 0.034(4) 0.059(5) 0.012(3) -0.008(4) -0.001(3)
C15 0.051(4) 0.027(3) 0.039(4) 0.001(3) -0.008(3) 0.004(3)
C16 0.062(5) 0.030(4) 0.065(5) 0.003(3) -0.034(4) 0.002(3)
C17 0.052(4) 0.027(3) 0.046(4) 0.008(3) -0.002(3) 0.009(3)
C18 0.054(5) 0.030(4) 0.064(5) 0.008(3) -0.005(4) -0.001(3)
N6 0.055(4) 0.027(3) 0.036(3) -0.002(2) -0.019(3) 0.007(2)
N7 0.052(4) 0.028(3) 0.051(4) 0.010(3) 0.014(3) 0.005(2)
Zn2 0.0563(6) 0.0288(4) 0.0361(5) -0.0032(4) -0.0105(4) 0.0109(4)
Zn3 0.056 0.0259 0.0523 0.0059 0.0175 0.0005
I3 0.123(8) 0.028(3) 0.078(5) -0.0045(18) -0.044(7) 0.025(2)
I4 0.032(3) 0.034(3) 0.048(4) 0.012(2) 0.004(2) 0.009(2)
N8 0.047 0.036 0.034 -0.006 -0.007 0.006
N9 0.045(3) 0.034(3) 0.051(4) 0.009(3) 0.013(3) 0.003(2)
I5 0.0789(12) 0.0441(7) 0.0483(10) -0.0138(5) -0.0125(10) 0.0021(6)
I6 0.0585(7) 0.0326(7) 0.0630(9) 0.0113(6) 0.0196(7) 0.0090(5)
C19 0.082(7) 0.059(6) 0.082(7) 0.036(5) 0.037(6) 0.021(5)
C20 0.064(5) 0.042(4) 0.059(5) 0.017(4) 0.022(4) 0.016(4)
C21 0.085(7) 0.067(6) 0.099(8) 0.053(6) 0.050(6) 0.041(6)
C22 0.059(5) 0.040(4) 0.048(4) 0.010(3) 0.014(4) 0.008(3)
C23 0.050(4) 0.031(3) 0.047(4) 0.007(3) 0.007(3) 0.001(3)
C24 0.044(4) 0.032(3) 0.044(4) 0.006(3) 0.001(3) 0.001(3)
N10 0.037(3) 0.036(3) 0.048(3) 0.008(3) 0.003(3) 0.000(2)
N11 0.040(3) 0.034(3) 0.046(3) 0.006(2) 0.002(3) 0.005(2)
C25 0.037(3) 0.035(3) 0.044(4) 0.009(3) -0.008(3) -0.001(3)
C26 0.034(3) 0.034(3) 0.043(4) 0.001(3) -0.005(3) 0.001(3)
C27 0.038(3) 0.034(3) 0.040(4) 0.007(3) -0.002(3) -0.004(3)
N12 0.042(3) 0.033(3) 0.042(3) 0.004(2) 0.001(3) -0.001(2)
C28 0.037(3) 0.033(3) 0.041(4) 0.004(3) -0.002(3) 0.002(3)
C29 0.044(4) 0.037(4) 0.043(4) 0.007(3) -0.001(3) -0.001(3)
C30 0.047(4) 0.053(5) 0.069(6) 0.030(4) 0.011(4) 0.007(4)
C31 0.039(4) 0.037(4) 0.049(4) 0.011(3) 0.000(3) -0.004(3)
C32 0.076(6) 0.085(7) 0.038(4) 0.016(4) 0.012(4) 0.037(5)
C33 0.042(4) 0.039(4) 0.048(4) 0.010(3) -0.003(3) -0.006(3)
C34 0.057(5) 0.050(5) 0.063(5) 0.022(4) 0.009(4) 0.009(4)
C35 0.046(4) 0.036(4) 0.043(4) 0.006(3) 0.000(3) -0.001(3)
C36 0.079(7) 0.094(8) 0.040(4) 0.014(5) 0.004(4) 0.047(6)
N8E 0.047(3) 0.036(3) 0.034(3) 0.006(2) -0.007(2) -0.006(3)
N2B 0.042(3) 0.042(3) 0.038(3) -0.001(3) -0.004(2) 0.004(3)
Zn2E 0.0563 0.0288 0.0361 0.0032 -0.0105 -0.0109
Zn1B 0.0449(5) 0.0341(5) 0.0435(5) -0.0049(4) -0.0036(4) 0.0005(4)
C37 0.088(8) 0.161(13) 0.082(8) -0.047(9) 0.046(7) -0.056(9)
C38 0.105(10) 0.165(14) 0.117(11) -0.087(10) 0.041(9) -0.038(10)
C39 0.101(11) 0.140(14) 0.134(13) -0.044(11) 0.006(10) -0.030(10)
C40 0.103(10) 0.120(12) 0.092(9) 0.008(9) 0.012(8) -0.029(9)
C41 0.060(6) 0.119(10) 0.072(7) 0.004(7) 0.010(5) -0.009(6)
C42 0.078(7) 0.117(10) 0.069(7) -0.008(7) 0.022(6) -0.015(7)
N13 0.131(11) 0.212(16) 0.161(13) -0.121(12) 0.098(10) -0.110(11)
C43 0.122(15) 0.29(2) 0.156(17) -0.130(18) 0.029(13) 0.011(17)
C44 0.17(3) 0.71(6) 0.25(4) -0.09(5) 0.08(3) 0.14(4)
C45 0.21(2) 0.22(3) 0.19(2) -0.11(2) 0.09(2) -0.01(2)
C46 0.146(14) 0.105(11) 0.115(12) -0.002(10) 0.024(11) 0.006(11)
C47 0.31(3) 0.102(15) 0.20(3) 0.001(17) 0.05(3) 0.015(19)
C48 0.114(15) 0.22(3) 0.22(3) -0.09(2) 0.044(16) 0.034(16)
C49 0.20(2) 0.063(9) 0.158(17) -0.009(11) 0.116(16) 0.006(12)
C50 0.174(19) 0.138(17) 0.190(19) -0.041(16) 0.124(17) -0.021(15)
C51 0.26(3) 0.18(2) 0.24(3) -0.03(2) 0.14(2) -0.04(2)
C52 0.24(3) 0.15(2) 0.22(2) -0.03(2) 0.15(2) -0.06(2)
C53 0.24(3) 0.117(17) 0.20(2) -0.040(16) 0.13(2) -0.033(19)
C54 0.22(2) 0.073(10) 0.150(16) -0.006(11) 0.115(16) 0.005(13)
N14 0.18(2) 0.162(19) 0.114(14) -0.041(13) 0.078(14) 0.002(16)
C55 0.25(3) 0.114(17) 0.16(2) 0.004(16) 0.13(2) 0.03(2)
C56 0.23(3) 0.18(3) 0.106(18) 0.038(19) 0.08(2) 0.02(3)
C57 0.32(5) 0.22(4) 0.26(5) 0.12(4) 0.02(4) 0.09(4)
C58 0.20(3) 0.23(3) 0.16(2) -0.03(2) 0.08(2) 0.01(2)
C59 0.47(6) 0.23(4) 0.22(4) -0.07(4) 0.12(4) -0.07(5)
C60 0.23(4) 0.30(4) 0.14(3) -0.04(3) -0.06(2) 0.14(3)
C61 0.33(3) 0.45(4) 0.31(3) -0.03(3) 0.18(3) 0.13(3)
C62 0.40(4) 0.47(4) 0.38(4) -0.06(3) 0.13(3) 0.05(4)
C63 0.48(4) 0.48(4) 0.42(4) 0.01(4) 0.04(3) -0.02(4)
C64 0.43(4) 0.41(4) 0.35(4) 0.12(3) 0.02(3) -0.06(4)
C65 0.40(4) 0.40(4) 0.35(3) 0.13(3) 0.09(3) 0.03(3)
C66 0.37(3) 0.40(4) 0.34(3) 0.05(3) 0.08(3) 0.12(3)
loop_
_geom_bond_atom_site_label_1
_geom_bond_atom_site_label_2
_geom_bond_site_symmetry_1
_geom_bond_site_symmetry_2
I1 Zn1 1_555 1_555
Zn1 I2 1_555 1_555
N1 Zn1 1_555 1_555
N2 Zn1 1_555 1_555
C1 N1 1_555 1_555
C2 N1 1_555 1_555
H1 C1 1_555 1_555
C3 C1 1_555 1_555
C4 C2 1_555 1_555
H2 C2 1_555 1_555
H3 C3 1_555 1_555
C5 C3 1_555 1_555
H4 C4 1_555 1_555
C6 C5 1_555 1_555
N3 C6 1_555 1_555
N4 C6 1_555 1_555
C7 N3 1_555 1_555
C8 N4 1_555 1_555
C9 C7 1_555 1_555
N5 C7 1_555 1_555
C10 C8 1_555 1_555
C11 C9 1_555 1_555
C12 C9 1_555 1_555
C13 C10 1_555 1_555
C14 C10 1_555 1_555
C15 C11 1_555 1_555
H5 C11 1_555 1_555
H6 C12 1_555 1_555
C16 C12 1_555 1_555
C17 C13 1_555 1_555
H7 C13 1_555 1_555
H8 C14 1_555 1_555
C18 C14 1_555 1_555
N6 C15 1_555 1_555
H9 C15 1_555 1_555
H10 C16 1_555 1_555
N7 C17 1_555 1_555
H11 C17 1_555 1_555
H12 C18 1_555 1_555
Zn2 N6 1_555 1_555
Zn3 N7 1_555 1_555
I3 Zn2 1_555 1_555
I4 Zn2 1_555 1_555
N8 Zn2 1_555 1_555
N9 Zn3 1_555 1_555
I5 Zn3 1_555 1_555
I6 Zn3 1_555 1_555
C19 N9 1_555 1_555
C20 N9 1_555 1_555
C21 C19 1_555 1_555
H13 C19 1_555 1_555
H14 C20 1_555 1_555
C22 C20 1_555 1_555
H15 C21 1_555 1_555
C23 C21 1_555 1_555
H16 C22 1_555 1_555
C24 C23 1_555 1_555
N10 C24 1_555 1_555
N11 C24 1_555 1_555
C25 N10 1_555 1_555
C26 N11 1_555 1_555
C27 C25 1_555 1_555
N12 C25 1_555 1_555
C28 C26 1_555 1_555
C29 C27 1_555 1_555
C30 C27 1_555 1_555
C31 C28 1_555 1_555
C32 C28 1_555 1_555
H17 C29 1_555 1_555
C33 C29 1_555 1_555
C34 C30 1_555 1_555
H18 C30 1_555 1_555
H19 C31 1_555 1_555
C35 C31 1_555 1_555
H20 C32 1_555 1_555
C36 C32 1_555 1_555
H21 C33 1_555 1_555
H22 C34 1_555 1_555
H23 C35 1_555 1_555
H24 C36 1_555 1_555
C37 C38 1_555 1_555
C38 C39 1_555 1_555
C39 H25 1_555 1_555
C40 C39 1_555 1_555
H26 C40 1_555 1_555
C41 C40 1_555 1_555
H27 C41 1_555 1_555
C42 C37 1_555 1_555
N13 C37 1_555 1_555
H28 N13 1_555 1_555
H29 N13 1_555 1_555
C43 C38 1_555 1_555
H30 C43 1_555 1_555
C44 C43 1_555 1_555
H31 C44 1_555 1_555
H32 C44 1_555 1_555
H33 C44 1_555 1_555
C45 C43 1_555 1_555
H34 C45 1_555 1_555
H35 C45 1_555 1_555
H36 C45 1_555 1_555
C46 C42 1_555 1_555
H37 C46 1_555 1_555
C47 C46 1_555 1_555
H38 C47 1_555 1_555
H39 C47 1_555 1_555
H40 C47 1_555 1_555
C48 C46 1_555 1_555
H41 C48 1_555 1_555
H42 C48 1_555 1_555
H43 C48 1_555 1_555
C49 C50 1_555 1_555
C50 C51 1_555 1_555
C51 H44 1_555 1_555
C52 C51 1_555 1_555
H45 C52 1_555 1_555
C53 C52 1_555 1_555
H46 C53 1_555 1_555
C54 C49 1_555 1_555
N14 C49 1_555 1_555
H47 N14 1_555 1_555
H48 N14 1_555 1_555
C55 C54 1_555 1_555
H49 C55 1_555 1_555
C56 C55 1_555 1_555
H50 C56 1_555 1_555
H51 C56 1_555 1_555
H52 C56 1_555 1_555
C57 C55 1_555 1_555
H53 C57 1_555 1_555
H54 C57 1_555 1_555
H55 C57 1_555 1_555
C58 C50 1_555 1_555
H56 C58 1_555 1_555
C59 C58 1_555 1_555
H57 C59 1_555 1_555
H58 C59 1_555 1_555
H59 C59 1_555 1_555
C60 C58 1_555 1_555
H60 C60 1_555 1_555
H61 C60 1_555 1_555
H62 C60 1_555 1_555
C61 H63 1_555 1_555
H64 C61 1_555 1_555
C62 C61 1_555 1_555
H65 C62 1_555 1_555
H66 C62 1_555 1_555
C63 C62 1_555 1_555
H67 C63 1_555 1_555
H68 C63 1_555 1_555
C64 C63 1_555 1_555
H69 C64 1_555 1_555
H70 C64 1_555 1_555
C65 C64 1_555 1_555
H71 C65 1_555 1_555
H72 C65 1_555 1_555
C66 C61 1_555 1_555
H73 C66 1_555 1_555
H74 C66 1_555 1_555
N8E C33 1_555 1_555
N2B C35 1_555 1_555
Zn2E N8E 1_555 1_555
Zn1B N2B 1_555 1_555
C4 C5 1_555 1_555
C8 N5 1_555 1_555
C16 N6 1_555 1_555
C18 N7 1_555 1_555
C22 C23 1_555 1_555
C26 N12 1_555 1_555
C34 N8E 1_555 1_555
C36 N2B 1_555 1_555
C41 C42 1_555 1_555
C53 C54 1_555 1_555
C65 C66 1_555 1_555

#END
