
#######################################################################
#
#                 Cambridge Crystallographic Data Centre
#                                CCDC 
#
#######################################################################
#
# If this CIF has been generated from an entry in the Cambridge 
# Structural Database, then it will include bibliographic, chemical, 
# crystal, experimental, refinement or atomic coordinate data resulting 
# from the CCDC's data processing and validation procedures.
#
#######################################################################

data_LABNEK
_chemical_formula_moiety         '(C63 H58 I6 N12 O8 Zn3)n'
_symmetry_cell_setting           monoclinic
_symmetry_space_group_name_H-M   'C 2/c'
_symmetry_Int_Tables_number      15
_space_group_name_Hall           '-C 2yc'
loop_
_symmetry_equiv_pos_site_id
_symmetry_equiv_pos_as_xyz
1 x,y,z
2 -x,y,1/2-z
3 1/2+x,1/2+y,z
4 1/2-x,1/2+y,1/2-z
5 -x,-y,-z
6 x,-y,1/2+z
7 1/2-x,1/2-y,-z
8 1/2+x,1/2-y,1/2+z
_cell_length_a                   34.4746(8)
_cell_length_b                   15.0255(3)
_cell_length_c                   30.1535(9)
_cell_angle_alpha                90
_cell_angle_beta                 99.681(2)
_cell_angle_gamma                90
_cell_volume                     15397
loop_
_atom_site_label
_atom_site_type_symbol
_atom_site_fract_x
_atom_site_fract_y
_atom_site_fract_z
_atom_site_U_iso_or_equiv
_atom_site_thermal_displace_type
I1 I 0.3960(3) 0.7235(5) 0.3982(4) 0.0718 Uani
Zn1 Zn 0.36863(5) 0.59477(10) 0.44686(6) 0.0721 Uani
N1 N 0.4139(3) 0.5048(6) 0.4500(3) 0.0577 Uani
I2 I 0.3482(2) 0.6124(12) 0.5174(4) 0.0882 Uani
N2 N 0.3259(3) 0.5320(6) 0.4016(3) 0.0581 Uani
C1 C 0.3045(4) 0.5757(7) 0.3673(4) 0.0710 Uani
C2 C 0.3185(4) 0.4465(7) 0.4069(4) 0.0600 Uani
C3 C 0.2756(3) 0.5352(6) 0.3371(4) 0.0592 Uani
H1 H 0.3094 0.6373 0.3637 0.0850 Uiso
C4 C 0.2903(3) 0.3994(7) 0.3775(4) 0.0553 Uani
H2 H 0.3331 0.4159 0.4318 0.0720 Uiso
C5 C 0.2684(3) 0.4448(6) 0.3418(3) 0.0450 Uani
H3 H 0.2607 0.5685 0.3134 0.0710 Uiso
H4 H 0.2862 0.3377 0.3819 0.0660 Uiso
C6 C 0.2376(3) 0.4018(6) 0.3097(3) 0.0412 Uani
N3 N 0.2315(2) 0.3123(4) 0.3142(3) 0.0425 Uani
N4 N 0.2180(2) 0.4515(5) 0.2766(3) 0.0414 Uani
C7 C 0.2034(3) 0.2795(6) 0.2847(4) 0.0457 Uani
C8 C 0.1896(3) 0.4101(6) 0.2492(3) 0.0427 Uani
C9 C 0.1971(3) 0.1801(6) 0.2832(4) 0.0481 Uani
N5 N 0.1807(2) 0.3237(4) 0.2524(3) 0.0429 Uani
C10 C 0.1665(3) 0.4617(6) 0.2124(3) 0.0415 Uani
C11 C 0.2192(4) 0.1220(7) 0.3123(5) 0.0675 Uani
C12 C 0.1686(4) 0.1447(6) 0.2509(4) 0.0629 Uani
C13 C 0.1739(3) 0.5493(6) 0.2054(3) 0.0508 Uani
C14 C 0.1362(4) 0.4200(7) 0.1837(5) 0.0763 Uani
C15 C 0.2115(4) 0.0330(8) 0.3093(5) 0.0679 Uani
H5 H 0.2397 0.1439 0.3346 0.0810 Uiso
C16 C 0.1636(4) 0.0529(7) 0.2492(5) 0.0715 Uani
H6 H 0.1526 0.1822 0.2299 0.0750 Uiso
C17 C 0.1511(3) 0.5935(6) 0.1699(4) 0.0521 Uani
H7 H 0.1944 0.5795 0.2246 0.0610 Uiso
C18 C 0.1136(4) 0.4696(7) 0.1509(5) 0.0786 Uani
H8 H 0.1312 0.3583 0.1867 0.0920 Uiso
N6 N 0.1848(3) -0.0016(5) 0.2774(3) 0.0537 Uani
H9 H 0.2260 -0.0057 0.3309 0.0820 Uiso
H10 H 0.1439 0.0285 0.2266 0.0860 Uiso
N7 N 0.1218(2) 0.5547(5) 0.1427(3) 0.0464 Uani
H11 H 0.1568 0.6542 0.1649 0.0630 Uiso
H12 H 0.0913 0.4426 0.1333 0.0950 Uiso
Zn2 Zn 0.1717(3) -0.1395(5) 0.2694(3) 0.0478 Uani
Zn3 Zn 0.08275(4) 0.62515(8) 0.09529(4) 0.0462 Uani
N8 N 0.1375(3) -0.1553(5) 0.3180(3) 0.0542 Uani
I3 I 0.12992(18) -0.1599(3) 0.19280(12) 0.0775 Uani
I4 I 0.23327(14) -0.2337(5) 0.2938(3) 0.0762 Uani
I5 I 0.02413(11) 0.6535(4) 0.13571(13) 0.0543 Uani
I6 I 0.11963(19) 0.7353(3) 0.05501(12) 0.0593 Uani
N9 N 0.0667(2) 0.5208(5) 0.0508(3) 0.0462 Uani
C19 C 0.1409(6) -0.2246(10) 0.3443(8) 0.1361 Uani
C20 C 0.1126(5) -0.0955(10) 0.3273(6) 0.0970 Uani
C21 C 0.1171(6) -0.2433(10) 0.3749(7) 0.1229 Uani
H13 H 0.1616 -0.2652 0.3420 0.1620 Uiso
C22 C 0.0871(5) -0.1120(11) 0.3566(6) 0.1060 Uani
H14 H 0.1120 -0.0388 0.3133 0.1170 Uiso
C23 C 0.0888(3) -0.1885(7) 0.3798(3) 0.0481 Uani
H15 H 0.1210 -0.2959 0.3926 0.1480 Uiso
H16 H 0.0680 -0.0686 0.3606 0.1270 Uiso
C24 C 0.0631(3) -0.2036(6) 0.4143(3) 0.0433 Uani
N10 N 0.0702(2) -0.2778(5) 0.4392(3) 0.0427 Uani
N11 N 0.0342(3) -0.1457(5) 0.4167(3) 0.0488 Uani
C25 C 0.0467(2) -0.2892(6) 0.4700(3) 0.0387 Uani
C26 C 0.0122(3) -0.1654(6) 0.4472(3) 0.0431 Uani
C27 C 0.0523(3) -0.3697(6) 0.4980(3) 0.0459 Uani
N12 N 0.0173(2) -0.2343(5) 0.4764(3) 0.0420 Uani
C28 C -0.0222(3) -0.1062(6) 0.4499(3) 0.0487 Uani
C29 C 0.0846(5) -0.4246(10) 0.4949(6) 0.1032 Uani
C30 C 0.0278(3) -0.3936(7) 0.5270(3) 0.0478 Uani
C31 C -0.0415(5) -0.0673(13) 0.4104(5) 0.1002 Uani
C32 C -0.0373(3) -0.0935(7) 0.4877(4) 0.0550 Uani
C33 C 0.0897(5) -0.4977(10) 0.5220(6) 0.1045 Uani
H17 H 0.1022 -0.4114 0.4747 0.1240 Uiso
H18 H 0.0054 -0.3583 0.5295 0.0570 Uiso
C34 C 0.0356(3) -0.4682(7) 0.5520(4) 0.0538 Uani
C35 C -0.0718(5) -0.0114(13) 0.4131(6) 0.1099 Uani
H19 H -0.0336 -0.0796 0.3823 0.1200 Uiso
C36 C -0.0692(3) -0.0369(7) 0.4873(4) 0.0604 Uani
H20 H -0.0262 -0.1232 0.5146 0.0660 Uiso
H21 H 0.1116 -0.5350 0.5200 0.1250 Uiso
H22 H 0.0179 -0.4841 0.5717 0.0650 Uiso
H23 H -0.0837 0.0182 0.3864 0.1320 Uiso
H24 H -0.0793 -0.0276 0.5144 0.0720 Uiso
N9E N 0.0667(2) -0.5208(5) 0.5508(3) 0.0462 Uani
N1B N -0.0861(3) 0.0048(6) 0.4500(3) 0.0577 Uani
Zn3E Zn 0.08275(4) -0.62515(8) 0.59529(4) 0.0462 Uani
Zn1B Zn -0.13137(5) 0.09477(10) 0.44686(6) 0.0721 Uani
C37 C 0.5573(6) 0.7865(13) 0.2416(7) 0.0470 Uani
C38 C 0.5669(7) 0.7034(16) 0.2626(8) 0.0623 Uani
H25 H 0.5556 0.6509 0.2484 0.0750 Uiso
C39 C 0.5920(8) 0.6963(15) 0.3030(8) 0.0643 Uani
O1 O 0.5721(5) 0.8590(9) 0.2605(5) 0.0589 Uani
C40 C 0.6102(8) 0.7827(16) 0.3234(9) 0.0653 Uani
C41 C 0.5983(6) 0.8583(12) 0.2995(7) 0.0457 Uani
C42 C 0.6097(7) 0.9436(15) 0.3121(10) 0.0668 Uani
C43 C 0.6395(9) 0.945(2) 0.3580(9) 0.0757 Uani
C44 C 0.6504(8) 0.8727(19) 0.3778(10) 0.0734 Uani
C45 C 0.6380(7) 0.7868(17) 0.3641(9) 0.0678 Uani
C46 C 0.5309(6) 0.7958(14) 0.2000(8) 0.0498 Uani
C47 C 0.5162(6) 0.8824(13) 0.1838(9) 0.0599 Uani
H26 H 0.5263 0.9338 0.2001 0.0720 Uiso
C48 C 0.4889(10) 0.8930(18) 0.1465(10) 0.0816 Uani
H27 H 0.4791 0.9509 0.1383 0.0980 Uiso
C49 C 0.4745(6) 0.8190(17) 0.1194(8) 0.0603 Uani
C50 C 0.4898(6) 0.7347(14) 0.1339(7) 0.0504 Uani
C51 C 0.5141(7) 0.7266(15) 0.1724(8) 0.0585 Uani
H28 H 0.5209 0.6678 0.1823 0.0700 Uiso
O2 O 0.5999(7) 0.6211(11) 0.3215(7) 0.0935 Uani
O3 O 0.6041(7) 1.0158(12) 0.2910(8) 0.0850 Uani
C52 C 0.5652(10) 1.059(3) 0.2902(16) 0.1179 Uani
H29 H 0.5640 1.1142 0.2730 0.1780 Uiso
H30 H 0.5443 1.0184 0.2761 0.1780 Uiso
H31 H 0.5615 1.0717 0.3211 0.1780 Uiso
O4 O 0.6479(7) 1.0347(13) 0.3713(8) 0.0897 Uani
C53 C 0.6849(8) 1.0611(19) 0.3772(14) 0.0951 Uani
H32 H 0.6864 1.1238 0.3863 0.1440 Uiso
H33 H 0.7006 1.0249 0.4007 0.1440 Uiso
H34 H 0.6952 1.0543 0.3490 0.1440 Uiso
O5 O 0.6762(7) 0.8809(17) 0.4186(10) 0.1223 Uani
C54 C 0.7088(14) 0.822(4) 0.4337(13) 0.1840 Uani
H35 H 0.7225 0.8415 0.4632 0.2750 Uiso
H36 H 0.6990 0.7613 0.4359 0.2750 Uiso
H37 H 0.7271 0.8233 0.4121 0.2750 Uiso
O6 O 0.6507(6) 0.7130(14) 0.3852(6) 0.0825 Uani
C55 C 0.6301(10) 0.672(3) 0.4177(13) 0.1069 Uani
H38 H 0.6441 0.6183 0.4296 0.1580 Uiso
H39 H 0.6288 0.7140 0.4423 0.1580 Uiso
H40 H 0.6033 0.6566 0.4032 0.1580 Uiso
O7 O 0.4490(5) 0.8251(10) 0.0824(5) 0.0660 Uani
C56 C 0.4319(9) 0.9101(18) 0.0688(10) 0.0792 Uani
H41 H 0.4135 0.9035 0.0405 0.1190 Uiso
H42 H 0.4179 0.9328 0.0922 0.1190 Uiso
H43 H 0.4528 0.9520 0.0646 0.1190 Uiso
O8 O 0.4746(5) 0.6699(10) 0.1041(5) 0.0654 Uani
C57 C 0.4813(13) 0.5865(17) 0.1163(9) 0.1087 Uani
H44 H 0.4690 0.5471 0.0921 0.1620 Uiso
H45 H 0.5098 0.5757 0.1224 0.1620 Uiso
H46 H 0.4703 0.5747 0.1436 0.1620 Uiso
C58 C 0.7084(19) 1.040(4) 0.5776(19) 0.2233 Uani
H47 H 0.7093 1.0065 0.6061 0.2700 Uiso
H48 H 0.6823 1.0686 0.5699 0.2700 Uiso
C59 C 0.716(2) 0.977(3) 0.540(2) 0.2645 Uani
H49 H 0.7392 0.9393 0.5499 0.3140 Uiso
H50 H 0.6928 0.9374 0.5306 0.3140 Uiso
C60 C 0.723(2) 1.035(4) 0.4994(18) 0.2736 Uani
H51 H 0.7511 1.0380 0.4984 0.3240 Uiso
H52 H 0.7094 1.0071 0.4710 0.3240 Uiso
C61 C 0.7062(18) 1.128(4) 0.5040(18) 0.2352 Uani
H53 H 0.6783 1.1239 0.5079 0.2810 Uiso
H54 H 0.7073 1.1623 0.4761 0.2810 Uiso
C62 C 0.730(2) 1.178(3) 0.544(2) 0.2352 Uani
H55 H 0.7133 1.2258 0.5543 0.2840 Uiso
H56 H 0.7534 1.2054 0.5357 0.2840 Uiso
C63 C 0.7415(18) 1.111(4) 0.5825(17) 0.2348 Uani
H57 H 0.7440 1.1405 0.6121 0.2830 Uiso
H58 H 0.7670 1.0825 0.5800 0.2830 Uiso
loop_
_atom_site_aniso_label
_atom_site_aniso_U_11
_atom_site_aniso_U_22
_atom_site_aniso_U_33
_atom_site_aniso_U_23
_atom_site_aniso_U_13
_atom_site_aniso_U_12
I1 0.067(2) 0.0418(18) 0.097(3) 0.0012(17) -0.014(2) 0.0015(15)
Zn1 0.0586(9) 0.0520(8) 0.0927(12) -0.0255(8) -0.0246(8) 0.0166(7)
N1 0.054(5) 0.051(5) 0.064(5) 0.007(4) -0.002(4) 0.014(4)
I2 0.0562(14) 0.131(7) 0.074(3) -0.040(4) 0.0015(15) 0.005(3)
N2 0.056 0.04 0.069 -0.011 -0.016 0.01
C1 0.071(7) 0.040(5) 0.086(8) -0.003(5) -0.033(6) 0.007(5)
C2 0.073(7) 0.039(5) 0.062(6) 0.000(4) -0.006(5) 0.015(5)
C3 0.058(6) 0.025(4) 0.084(8) -0.001(4) -0.019(5) 0.005(4)
C4 0.063(6) 0.035(5) 0.064(6) -0.002(4) -0.001(5) 0.012(4)
C5 0.047(5) 0.032(4) 0.052(5) -0.002(4) -0.003(4) 0.006(4)
C6 0.040(4) 0.031(4) 0.052(5) 0.000(4) 0.006(4) 0.002(3)
N3 0.043(4) 0.024(3) 0.060(5) 0.005(3) 0.007(3) 0.004(3)
N4 0.036(4) 0.027(3) 0.057(4) 0.002(3) -0.004(3) 0.005(3)
C7 0.048(5) 0.026(4) 0.064(6) 0.004(4) 0.012(4) 0.002(4)
C8 0.038(4) 0.029(4) 0.059(5) 0.001(4) 0.002(4) 0.002(3)
C9 0.043(5) 0.031(4) 0.069(6) 0.008(4) 0.006(4) 0.002(4)
N5 0.042(4) 0.022(3) 0.063(5) 0.002(3) 0.004(3) 0.000(3)
C10 0.037(4) 0.033(4) 0.050(5) -0.001(4) -0.006(4) -0.002(3)
C11 0.062(7) 0.035(5) 0.099(9) 0.016(5) -0.005(6) 0.001(5)
C12 0.075(7) 0.027(4) 0.077(7) 0.010(4) -0.015(6) 0.001(4)
C13 0.062(6) 0.031(4) 0.054(5) 0.002(4) -0.006(4) 0.001(4)
C14 0.082(8) 0.029(5) 0.098(9) 0.012(5) -0.042(7) -0.010(5)
C15 0.066(7) 0.047(6) 0.084(8) 0.021(6) -0.007(6) 0.003(5)
C16 0.081(8) 0.034(5) 0.090(9) 0.006(5) -0.013(7) -0.007(5)
C17 0.057(6) 0.027(4) 0.065(6) -0.001(4) -0.011(5) -0.005(4)
C18 0.090(9) 0.036(5) 0.089(9) 0.011(5) -0.045(7) -0.013(5)
N6 0.064(5) 0.027(4) 0.072(6) 0.006(4) 0.017(4) -0.005(3)
N7 0.053(4) 0.023(3) 0.058(5) -0.001(3) -0.006(4) 0.004(3)
Zn2 0.064(2) 0.022(2) 0.061(2) 0.0063(13) 0.0207(17) 0.0003(18)
Zn3 0.0610(8) 0.0298(5) 0.0435(6) -0.0025(5) -0.0036(5) 0.0017(5)
N8 0.061(5) 0.032(4) 0.072(6) 0.005(4) 0.018(4) 0.001(4)
I3 0.133(2) 0.0430(13) 0.0550(15) -0.0060(9) 0.0112(18) -0.0124(14)
I4 0.0802(12) 0.0349(16) 0.126(3) 0.0246(13) 0.0531(15) 0.0179(11)
I5 0.0660(9) 0.0451(13) 0.0511(9) -0.0003(8) 0.0075(7) 0.0125(8)
I6 0.0792(16) 0.0374(9) 0.0591(7) 0.0021(7) 0.0055(9) -0.0081(10)
N9 0.052 0.042 0.046 -0.006 0.012 -0.012
C19 0.169(18) 0.069(9) 0.21(2) 0.073(12) 0.147(18) 0.064(11)
C20 0.110(12) 0.076(9) 0.118(13) 0.058(9) 0.057(10) 0.034(8)
C21 0.160(17) 0.074(9) 0.167(17) 0.074(11) 0.121(15) 0.061(10)
C22 0.098(11) 0.107(12) 0.129(13) 0.075(11) 0.065(10) 0.061(10)
C23 0.046(5) 0.046(5) 0.053(5) 0.003(4) 0.010(4) -0.007(4)
C24 0.038(4) 0.039(4) 0.050(5) 0.003(4) -0.001(4) -0.006(4)
N10 0.042(4) 0.035(4) 0.049(4) 0.007(3) 0.002(3) 0.001(3)
N11 0.055(5) 0.039(4) 0.051(4) 0.006(3) 0.005(4) -0.001(3)
C25 0.034(4) 0.037(4) 0.043(4) 0.003(3) 0.000(3) 0.003(3)
C26 0.043(5) 0.038(4) 0.045(5) 0.007(4) -0.002(4) 0.002(4)
C27 0.049(5) 0.039(4) 0.047(5) 0.002(4) 0.000(4) 0.005(4)
N12 0.043(4) 0.039(4) 0.042(4) 0.005(3) 0.001(3) 0.001(3)
C28 0.053(5) 0.038(5) 0.053(5) 0.006(4) 0.003(4) 0.004(4)
C29 0.113(12) 0.092(10) 0.128(13) 0.068(10) 0.088(11) 0.062(9)
C30 0.037(4) 0.048(5) 0.057(5) 0.012(4) 0.004(4) 0.007(4)
C31 0.107(12) 0.133(14) 0.061(8) 0.030(9) 0.015(8) 0.063(11)
C32 0.054(6) 0.058(6) 0.049(5) -0.003(5) -0.003(4) 0.012(5)
C33 0.126(13) 0.079(9) 0.129(13) 0.056(9) 0.081(11) 0.063(9)
C34 0.049(5) 0.054(6) 0.057(6) 0.016(5) 0.005(4) 0.001(4)
C35 0.111(12) 0.138(15) 0.086(10) 0.061(10) 0.032(9) 0.076(12)
C36 0.064(7) 0.055(6) 0.059(6) -0.006(5) 0.001(5) 0.017(5)
N9E 0.052(4) 0.042(4) 0.046(4) 0.006(3) 0.012(3) 0.012(3)
N1B 0.054(5) 0.051(5) 0.064(5) 0.007(4) -0.002(4) 0.014(4)
Zn3E 0.061 0.0298 0.0435 0.0025 -0.0036 -0.0017
Zn1B 0.0586(9) 0.0520(8) 0.0927(12) -0.0255(8) -0.0246(8) 0.0166(7)
C37 0.045(10) 0.049(10) 0.050(10) -0.010(8) 0.017(8) -0.009(8)
C38 0.060(13) 0.058(12) 0.072(14) -0.016(11) 0.020(11) -0.002(10)
C39 0.079(15) 0.047(11) 0.066(14) -0.015(10) 0.010(11) 0.003(11)
O1 0.067(9) 0.043(7) 0.069(9) 0.008(7) 0.018(7) 0.004(7)
C40 0.074(15) 0.057(12) 0.074(15) 0.001(11) 0.039(12) -0.005(11)
C41 0.050(10) 0.033(8) 0.058(11) 0.000(8) 0.020(8) -0.006(7)
C42 0.063(14) 0.048(12) 0.098(18) -0.014(12) 0.038(13) 0.001(10)
C43 0.087(18) 0.081(18) 0.067(15) -0.022(14) 0.036(14) -0.017(15)
C44 0.063(14) 0.071(16) 0.086(18) -0.024(14) 0.012(13) -0.002(12)
C45 0.065(14) 0.060(13) 0.074(15) -0.018(12) -0.001(11) 0.013(11)
C46 0.039(9) 0.048(10) 0.066(12) -0.020(9) 0.019(8) -0.014(8)
C47 0.048(11) 0.035(9) 0.089(16) 0.003(10) -0.011(10) 0.012(8)
C48 0.11(2) 0.054(14) 0.081(18) 0.022(13) 0.017(16) 0.001(14)
C49 0.049(11) 0.072(14) 0.062(13) 0.020(11) 0.015(9) 0.014(10)
C50 0.049(10) 0.049(10) 0.056(11) 0.005(9) 0.017(9) 0.001(8)
C51 0.069(13) 0.047(11) 0.062(13) 0.002(9) 0.018(10) 0.007(10)
O2 0.128(17) 0.038(8) 0.102(15) 0.002(9) -0.017(13) 0.021(9)
O3 0.102(14) 0.054(10) 0.110(15) -0.005(10) 0.050(13) -0.010(9)
C52 0.09(2) 0.11(3) 0.14(3) -0.04(2) -0.02(2) 0.06(2)
O4 0.104(15) 0.062(11) 0.101(15) -0.015(10) 0.011(12) 0.017(10)
C53 0.064(16) 0.057(15) 0.17(3) -0.024(18) 0.036(19) -0.013(12)
O5 0.087(14) 0.106(17) 0.16(2) -0.041(16) -0.019(15) 0.006(12)
C54 0.19(4) 0.25(5) 0.10(3) -0.07(3) -0.01(3) 0.13(4)
O6 0.101(14) 0.095(14) 0.052(9) -0.009(9) 0.014(9) 0.029(11)
C55 0.08(2) 0.12(3) 0.11(3) 0.02(2) -0.015(18) 0.000(19)
O7 0.086(11) 0.052(8) 0.059(9) 0.007(7) 0.009(8) -0.001(8)
C56 0.079(17) 0.065(15) 0.091(19) 0.006(14) 0.007(14) 0.018(13)
O8 0.090(12) 0.051(8) 0.053(8) -0.005(7) 0.006(8) -0.003(8)
C57 0.22(4) 0.052(14) 0.047(13) -0.001(11) 0.002(18) 0.02(2)
C58 0.21(4) 0.31(4) 0.17(3) 0.01(3) 0.09(3) -0.04(3)
C59 0.27(4) 0.31(4) 0.22(4) 0.03(3) 0.06(4) -0.06(4)
C60 0.28(4) 0.32(4) 0.22(4) 0.02(4) 0.04(4) -0.01(4)
C61 0.24(4) 0.27(4) 0.20(4) -0.01(3) 0.05(3) 0.07(3)
C62 0.23(4) 0.27(4) 0.21(4) 0.02(3) 0.05(3) 0.10(3)
C63 0.25(4) 0.30(4) 0.17(3) 0.01(3) 0.08(3) 0.03(3)
loop_
_geom_bond_atom_site_label_1
_geom_bond_atom_site_label_2
_geom_bond_site_symmetry_1
_geom_bond_site_symmetry_2
I1 Zn1 1_555 1_555
Zn1 N1 1_555 1_555
I2 Zn1 1_555 1_555
N2 Zn1 1_555 1_555
C1 N2 1_555 1_555
C2 N2 1_555 1_555
C3 C1 1_555 1_555
H1 C1 1_555 1_555
C4 C2 1_555 1_555
H2 C2 1_555 1_555
C5 C3 1_555 1_555
H3 C3 1_555 1_555
H4 C4 1_555 1_555
C6 C5 1_555 1_555
N3 C6 1_555 1_555
N4 C6 1_555 1_555
C7 N3 1_555 1_555
C8 N4 1_555 1_555
C9 C7 1_555 1_555
N5 C7 1_555 1_555
C10 C8 1_555 1_555
C11 C9 1_555 1_555
C12 C9 1_555 1_555
C13 C10 1_555 1_555
C14 C10 1_555 1_555
C15 C11 1_555 1_555
H5 C11 1_555 1_555
C16 C12 1_555 1_555
H6 C12 1_555 1_555
C17 C13 1_555 1_555
H7 C13 1_555 1_555
C18 C14 1_555 1_555
H8 C14 1_555 1_555
N6 C15 1_555 1_555
H9 C15 1_555 1_555
H10 C16 1_555 1_555
N7 C17 1_555 1_555
H11 C17 1_555 1_555
H12 C18 1_555 1_555
Zn2 N6 1_555 1_555
Zn3 N7 1_555 1_555
N8 Zn2 1_555 1_555
I3 Zn2 1_555 1_555
I4 Zn2 1_555 1_555
I5 Zn3 1_555 1_555
I6 Zn3 1_555 1_555
N9 Zn3 1_555 1_555
C19 N8 1_555 1_555
C20 N8 1_555 1_555
C21 C19 1_555 1_555
H13 C19 1_555 1_555
C22 C20 1_555 1_555
H14 C20 1_555 1_555
C23 C21 1_555 1_555
H15 C21 1_555 1_555
H16 C22 1_555 1_555
C24 C23 1_555 1_555
N10 C24 1_555 1_555
N11 C24 1_555 1_555
C25 N10 1_555 1_555
C26 N11 1_555 1_555
C27 C25 1_555 1_555
N12 C25 1_555 1_555
C28 C26 1_555 1_555
C29 C27 1_555 1_555
C30 C27 1_555 1_555
C31 C28 1_555 1_555
C32 C28 1_555 1_555
C33 C29 1_555 1_555
H17 C29 1_555 1_555
H18 C30 1_555 1_555
C34 C30 1_555 1_555
C35 C31 1_555 1_555
H19 C31 1_555 1_555
C36 C32 1_555 1_555
H20 C32 1_555 1_555
H21 C33 1_555 1_555
H22 C34 1_555 1_555
H23 C35 1_555 1_555
H24 C36 1_555 1_555
C37 C38 1_555 1_555
C38 H25 1_555 1_555
C39 C38 1_555 1_555
O1 C37 1_555 1_555
C40 C39 1_555 1_555
C41 O1 1_555 1_555
C42 C41 1_555 1_555
C43 C42 1_555 1_555
C44 C43 1_555 1_555
C45 C40 1_555 1_555
C46 C37 1_555 1_555
C47 C46 1_555 1_555
H26 C47 1_555 1_555
C48 C47 1_555 1_555
H27 C48 1_555 1_555
C49 C48 1_555 1_555
C50 C49 1_555 1_555
C51 C46 1_555 1_555
H28 C51 1_555 1_555
O2 C39 1_555 1_555
O3 C42 1_555 1_555
C52 O3 1_555 1_555
H29 C52 1_555 1_555
H30 C52 1_555 1_555
H31 C52 1_555 1_555
O4 C43 1_555 1_555
C53 O4 1_555 1_555
H32 C53 1_555 1_555
H33 C53 1_555 1_555
H34 C53 1_555 1_555
O5 C44 1_555 1_555
C54 O5 1_555 1_555
H35 C54 1_555 1_555
H36 C54 1_555 1_555
H37 C54 1_555 1_555
O6 C45 1_555 1_555
C55 O6 1_555 1_555
H38 C55 1_555 1_555
H39 C55 1_555 1_555
H40 C55 1_555 1_555
O7 C49 1_555 1_555
C56 O7 1_555 1_555
H41 C56 1_555 1_555
H42 C56 1_555 1_555
H43 C56 1_555 1_555
O8 C50 1_555 1_555
C57 O8 1_555 1_555
H44 C57 1_555 1_555
H45 C57 1_555 1_555
H46 C57 1_555 1_555
C58 H47 1_555 1_555
H48 C58 1_555 1_555
C59 C58 1_555 1_555
H49 C59 1_555 1_555
H50 C59 1_555 1_555
C60 C59 1_555 1_555
H51 C60 1_555 1_555
H52 C60 1_555 1_555
C61 C60 1_555 1_555
H53 C61 1_555 1_555
H54 C61 1_555 1_555
C62 C61 1_555 1_555
H55 C62 1_555 1_555
H56 C62 1_555 1_555
C63 C58 1_555 1_555
H57 C63 1_555 1_555
H58 C63 1_555 1_555
N9E C33 1_555 1_555
N1B C35 1_555 1_555
Zn3E N9E 1_555 1_555
Zn1B N1B 1_555 1_555
C4 C5 1_555 1_555
C8 N5 1_555 1_555
C16 N6 1_555 1_555
C18 N7 1_555 1_555
C22 C23 1_555 1_555
C26 N12 1_555 1_555
C34 N9E 1_555 1_555
C36 N1B 1_555 1_555
C40 C41 1_555 1_555
C44 C45 1_555 1_555
C50 C51 1_555 1_555
C62 C63 1_555 1_555

#END
