
#######################################################################
#
#                 Cambridge Crystallographic Data Centre
#                                CCDC 
#
#######################################################################
#
# If this CIF has been generated from an entry in the Cambridge 
# Structural Database, then it will include bibliographic, chemical, 
# crystal, experimental, refinement or atomic coordinate data resulting 
# from the CCDC's data processing and validation procedures.
#
#######################################################################

data_LABQEN
_chemical_formula_moiety         '(C58 H52 I6 N12 O6 Zn3)n'
_symmetry_cell_setting           monoclinic
_symmetry_space_group_name_H-M   'C 2/c'
_symmetry_Int_Tables_number      15
_space_group_name_Hall           '-C 2yc'
loop_
_symmetry_equiv_pos_site_id
_symmetry_equiv_pos_as_xyz
1 x,y,z
2 -x,y,1/2-z
3 1/2+x,1/2+y,z
4 1/2-x,1/2+y,1/2-z
5 -x,-y,-z
6 x,-y,1/2+z
7 1/2-x,1/2-y,-z
8 1/2+x,1/2-y,1/2+z
_cell_length_a                   34.0465(14)
_cell_length_b                   14.9235(4)
_cell_length_c                   30.8377(13)
_cell_angle_alpha                90
_cell_angle_beta                 100.629(4)
_cell_angle_gamma                90
_cell_volume                     15399.6
loop_
_atom_site_label
_atom_site_type_symbol
_atom_site_fract_x
_atom_site_fract_y
_atom_site_fract_z
_atom_site_U_iso_or_equiv
_atom_site_thermal_displace_type
I1 I 0.61844(12) 0.3233(2) 0.20124(9) 0.1189 Uani
Zn1 Zn 0.66895(16) 0.3508(3) 0.2725(2) 0.0794 Uani
I2 I 0.73171(14) 0.2610(2) 0.29551(10) 0.1133 Uani
N1 N 0.6388(3) 0.3372(5) 0.3248(3) 0.0958 Uani
N2 N 0.6839(3) 0.4879(4) 0.2773(3) 0.0901 Uani
C1 C 0.6604(4) 0.5431(6) 0.2509(4) 0.0973 Uani
C2 C 0.7141(4) 0.5238(7) 0.3054(5) 0.1180 Uani
C3 C 0.6658(4) 0.6333(6) 0.2506(4) 0.0937 Uani
H1 H 0.6384 0.5184 0.2310 0.1170 Uiso
C4 C 0.7224(4) 0.6138(6) 0.3066(5) 0.1082 Uani
H2 H 0.7306 0.4854 0.3255 0.1420 Uiso
C5 C 0.6974(3) 0.6704(5) 0.2797(3) 0.0717 Uani
H3 H 0.6482 0.6702 0.2307 0.1130 Uiso
H4 H 0.7452 0.6365 0.3260 0.1300 Uiso
C6 C 0.7043(3) 0.7697(5) 0.2796(3) 0.0672 Uani
N3 N 0.67937(19) 0.8148(4) 0.2490(2) 0.0634 Uani
N4 N 0.7341(2) 0.8046(4) 0.3082(2) 0.0686 Uani
C7 C 0.6878(2) 0.9006(4) 0.2463(2) 0.0605 Uani
C8 C 0.7395(2) 0.8932(5) 0.3038(2) 0.0628 Uani
C9 C 0.6621(2) 0.9548(4) 0.2116(2) 0.0657 Uani
N5 N 0.71766(19) 0.9443(3) 0.2725(2) 0.0646 Uani
C10 C 0.7708(2) 0.9401(5) 0.3350(3) 0.0681 Uani
C11 C 0.6284(3) 0.9162(5) 0.1877(4) 0.0929 Uani
C12 C 0.6715(3) 1.0415(5) 0.2027(3) 0.0852 Uani
C13 C 0.7748(3) 1.0307(5) 0.3327(4) 0.0977 Uani
C14 C 0.7971(3) 0.8949(6) 0.3674(4) 0.0995 Uani
C15 C 0.6042(3) 0.9662(6) 0.1558(4) 0.1005 Uani
H5 H 0.6218 0.8559 0.1931 0.1110 Uiso
C16 C 0.6462(3) 1.0866(5) 0.1691(3) 0.0887 Uani
H6 H 0.6945 1.0699 0.2190 0.1020 Uiso
H7 H 0.7579 1.0637 0.3103 0.1170 Uiso
C17 C 0.8031(3) 1.0741(6) 0.3627(4) 0.1020 Uani
C18 C 0.8243(3) 0.9429(7) 0.3963(4) 0.1057 Uani
H8 H 0.7962 0.8314 0.3694 0.1190 Uiso
N6 N 0.6133(2) 1.0502(4) 0.1461(2) 0.0811 Uani
H9 H 0.5803 0.9400 0.1402 0.1200 Uiso
H10 H 0.6528 1.1462 0.1623 0.1060 Uiso
N7 N 0.8277(2) 1.0305(5) 0.3946(3) 0.0857 Uani
H11 H 0.8053 1.1374 0.3608 0.1220 Uiso
H12 H 0.8416 0.9114 0.4189 0.1270 Uiso
Zn2 Zn 0.57189(19) 1.1200(4) 0.1010(2) 0.0724 Uani
Zn3 Zn 0.86669(17) 1.1078(5) 0.4367(2) 0.0732 Uani
I3 I 0.61032(11) 1.23711(18) 0.06434(11) 0.0939 Uani
N8 N 0.5584(2) 1.0180(5) 0.0547(2) 0.0757 Uani
I4 I 0.51207(19) 1.1493(4) 0.13747(12) 0.1023 Uani
N9 N 0.9165(3) 1.0197(6) 0.4476(4) 0.0957 Uani
I5 I 0.88279(10) 1.2491(2) 0.39779(15) 0.1116 Uani
I6 I 0.84414(16) 1.1089(4) 0.50962(13) 0.1166 Uani
C19 C 0.9353(4) 1.0149(14) 0.4146(6) 0.1451 Uani
C20 C 0.9288(3) 0.9692(6) 0.4835(3) 0.0845 Uani
C21 C 0.9674(4) 0.9595(11) 0.4145(5) 0.1223 Uani
H13 H 0.9265 1.0514 0.3894 0.1740 Uiso
C22 C 0.9616(3) 0.9115(5) 0.4852(3) 0.0777 Uani
H14 H 0.9153 0.9724 0.5078 0.1010 Uiso
H15 H 0.9803 0.9573 0.3897 0.1460 Uiso
C23 C 0.9809(2) 0.9068(5) 0.4511(3) 0.0705 Uani
H16 H 0.9703 0.8757 0.5107 0.0930 Uiso
C24 C 1.0135(2) 0.8432(5) 0.4512(3) 0.0664 Uani
N10 N 1.0368(2) 0.8592(5) 0.4218(2) 0.0736 Uani
N11 N 1.01678(19) 0.7730(4) 0.4786(2) 0.0672 Uani
C25 C 1.0652(3) 0.7974(5) 0.4207(3) 0.0715 Uani
C26 C 1.0456(2) 0.7167(5) 0.4742(2) 0.0665 Uani
N12 N 1.0711(2) 0.7257(5) 0.4463(2) 0.0719 Uani
C27 C 1.0912(3) 0.8103(6) 0.3873(3) 0.0782 Uani
C28 C 1.0495(2) 0.6340(5) 0.5024(2) 0.0676 Uani
C29 C 1.1247(4) 0.7591(7) 0.3880(4) 0.0928 Uani
C30 C 1.0818(4) 0.8769(11) 0.3553(5) 0.1203 Uani
C31 C 1.0804(3) 0.5759(7) 0.5013(4) 0.0879 Uani
C32 C 1.0224(2) 0.6131(5) 0.5283(2) 0.0669 Uani
C33 C 1.1473(4) 0.7742(9) 0.3571(5) 0.1085 Uani
H17 H 1.1319 0.7139 0.4098 0.1110 Uiso
C34 C 1.1070(5) 0.8862(10) 0.3252(5) 0.1253 Uani
H18 H 1.0591 0.9143 0.3543 0.1450 Uiso
H19 H 1.0989 0.5871 0.4823 0.1050 Uiso
C35 C 1.0845(3) 0.5001(7) 0.5283(3) 0.0887 Uani
C36 C 1.0278(3) 0.5358(6) 0.5540(3) 0.0770 Uani
H20 H 1.0000 0.6509 0.5288 0.0800 Uiso
H21 H 1.1706 0.7386 0.3580 0.1300 Uiso
H22 H 1.1008 0.9313 0.3032 0.1500 Uiso
H23 H 1.1063 0.4605 0.5280 0.1070 Uiso
H24 H 1.0086 0.5215 0.5718 0.0920 Uiso
N1B N 1.1388(3) 0.8372(5) 0.3248(3) 0.0958 Uani
N8G N 1.0584(2) 0.4820(5) 0.5547(2) 0.0757 Uani
Zn1B Zn 1.16895(16) 0.8508(3) 0.2725(2) 0.0794 Uani
Zn2G Zn 1.07189(19) 0.3800(4) 0.6010(2) 0.0724 Uani
C37 C 0.3884(10) 0.134(2) 0.6904(11) 0.2289 Uani
C38 C 0.3872(10) 0.042(3) 0.6949(9) 0.2169 Uani
C39 C 0.3575(11) -0.008(2) 0.6685(12) 0.2395 Uani
H25 H 0.3567 -0.0711 0.6716 0.2870 Uiso
C40 C 0.3289(10) 0.035(3) 0.6374(11) 0.2590 Uani
C41 C 0.3301(10) 0.128(3) 0.6328(10) 0.2314 Uani
H26 H 0.3105 0.1572 0.6116 0.2790 Uiso
C42 C 0.3598(12) 0.177(2) 0.6593(12) 0.2292 Uani
H27 H 0.3606 0.2406 0.6562 0.2760 Uiso
O1 O 0.4124(11) 0.196(3) 0.7147(14) 0.2673 Uani
H28 H 0.4287 0.1695 0.7344 0.4050 Uiso
O2 O 0.4168(11) 0.005(3) 0.7279(10) 0.1977 Uani
C43 C 0.4170(16) -0.083(3) 0.7344(13) 0.1708 Uani
H29 H 0.4392 -0.0984 0.7582 0.2570 Uiso
H30 H 0.3917 -0.1006 0.7426 0.2570 Uiso
H31 H 0.4202 -0.1134 0.7072 0.2570 Uiso
C44 C 0.3014(15) -0.013(3) 0.6006(16) 0.2607 Uani
H32 H 0.2832 0.0225 0.5806 0.3090 Uiso
O3 O 0.3008(14) -0.109(3) 0.594(2) 0.2914 Uani
C45 C 0.2973(6) -0.026(2) 0.4183(15) 0.2139 Uani
C46 C 0.2657(9) -0.0851(18) 0.4177(16) 0.2235 Uani
C47 C 0.2271(7) -0.052(2) 0.4150(14) 0.2201 Uani
H33 H 0.2054 -0.0927 0.4146 0.2650 Uiso
C48 C 0.2201(7) 0.039(2) 0.4128(13) 0.2320 Uani
C49 C 0.2518(11) 0.0985(18) 0.4134(15) 0.2495 Uani
H34 H 0.2471 0.1613 0.4119 0.2970 Uiso
C50 C 0.2904(8) 0.066(2) 0.4161(14) 0.2260 Uani
H35 H 0.3120 0.1061 0.4165 0.2680 Uiso
O4 O 0.3365(9) -0.044(4) 0.418(2) 0.3427 Uani
H36 H 0.3384 -0.0937 0.4061 0.5130 Uiso
O5 O 0.2799(9) -0.171(2) 0.4313(18) 0.2246 Uani
C51 C 0.2543(12) -0.236(3) 0.435(3) 0.2499 Uani
H37 H 0.2690 -0.2906 0.4448 0.3760 Uiso
H38 H 0.2379 -0.2184 0.4566 0.3760 Uiso
H39 H 0.2370 -0.2461 0.4063 0.3760 Uiso
C52 C 0.1795(9) 0.080(3) 0.3949(14) 0.2765 Uani
H40 H 0.1594 0.0427 0.3789 0.3300 Uiso
O6 O 0.170(2) 0.174(4) 0.401(3) 0.4283 Uani
C53 C 0.515(3) 0.290(10) 0.623(4) 0.4961 Uani
C54 C 0.476(5) 0.344(6) 0.620(4) 0.4798 Uani
C55 C 0.454(3) 0.187(9) 0.598(4) 0.4987 Uani
C56 C 0.476(4) 0.157(8) 0.643(5) 0.5000 Uani
C57 C 0.515(4) 0.212(10) 0.656(4) 0.4913 Uani
H41 H 0.5166 0.2653 0.5939 0.5970 Uiso
H42 H 0.5381 0.3291 0.6331 0.5970 Uiso
H43 H 0.4720 0.3620 0.6502 0.5750 Uiso
H44 H 0.4772 0.3993 0.6027 0.5750 Uiso
C58 C 0.441(3) 0.286(11) 0.598(5) 0.4853 Uani
H45 H 0.4183 0.2919 0.6146 0.5830 Uiso
H46 H 0.4708 0.1796 0.5754 0.6030 Uiso
H47 H 0.4296 0.1494 0.5890 0.6030 Uiso
H48 H 0.4593 0.1640 0.6655 0.6020 Uiso
H49 H 0.4835 0.0926 0.6418 0.6020 Uiso
H50 H 0.5385 0.1740 0.6566 0.5900 Uiso
H51 H 0.5161 0.2369 0.6865 0.5900 Uiso
H52 H 0.4312 0.3071 0.5676 0.5830 Uiso
loop_
_atom_site_aniso_label
_atom_site_aniso_U_11
_atom_site_aniso_U_22
_atom_site_aniso_U_33
_atom_site_aniso_U_23
_atom_site_aniso_U_13
_atom_site_aniso_U_12
I1 0.196(3) 0.0708(9) 0.0827(13) -0.0154(7) 0.0070(12) -0.0297(11)
Zn1 0.125(2) 0.0389(12) 0.0763(17) 0.0051(9) 0.0238(16) -0.0044(11)
I2 0.162(2) 0.0571(9) 0.138(2) 0.0339(10) 0.0728(16) 0.0360(9)
N1 0.139(8) 0.053(4) 0.104(6) 0.012(4) 0.045(5) -0.005(4)
N2 0.123 0.038 0.111 0.001 0.026 -0.008
C1 0.122(8) 0.044(4) 0.116(7) 0.000(4) -0.004(6) -0.010(4)
C2 0.129(9) 0.055(5) 0.157(11) 0.032(6) -0.008(8) 0.017(6)
C3 0.120(8) 0.053(4) 0.096(6) 0.006(4) -0.012(5) -0.005(4)
C4 0.122(8) 0.049(4) 0.134(9) 0.021(5) -0.028(7) 0.001(5)
C5 0.093(5) 0.036(3) 0.084(5) 0.005(3) 0.011(4) 0.003(3)
C6 0.078(4) 0.050(3) 0.068(4) 0.007(3) -0.001(3) 0.004(3)
N3 0.075(3) 0.035(2) 0.073(3) 0.000(2) -0.005(3) 0.004(2)
N4 0.083(4) 0.042(3) 0.073(3) 0.004(2) -0.006(3) 0.008(3)
C7 0.071(4) 0.035(3) 0.068(4) -0.002(2) -0.007(3) 0.009(2)
C8 0.068(4) 0.043(3) 0.070(4) 0.004(3) -0.007(3) 0.011(3)
C9 0.081(4) 0.034(3) 0.072(4) -0.003(3) -0.012(3) 0.011(3)
N5 0.077(3) 0.031(2) 0.074(3) -0.002(2) -0.017(3) 0.007(2)
C10 0.071(4) 0.050(3) 0.073(4) 0.004(3) -0.014(3) 0.011(3)
C11 0.105(6) 0.043(3) 0.109(7) 0.009(4) -0.037(5) -0.006(4)
C12 0.108(6) 0.040(3) 0.086(5) -0.007(3) -0.039(5) -0.001(3)
C13 0.095(6) 0.046(4) 0.126(7) 0.012(4) -0.048(6) 0.006(4)
C14 0.115(7) 0.049(4) 0.109(7) -0.001(4) -0.046(6) 0.015(4)
C15 0.112(7) 0.054(4) 0.108(7) 0.002(4) -0.052(6) -0.007(4)
C16 0.111(6) 0.043(3) 0.091(5) -0.002(3) -0.037(5) 0.010(4)
C17 0.101(6) 0.052(4) 0.126(8) -0.001(4) -0.050(6) -0.003(4)
C18 0.107(7) 0.066(5) 0.116(7) -0.007(5) -0.053(6) 0.019(5)
N6 0.103(5) 0.043(3) 0.079(4) -0.004(3) -0.031(4) 0.006(3)
N7 0.082(4) 0.052(3) 0.105(5) -0.007(3) -0.030(4) 0.013(3)
Zn2 0.085(2) 0.057(3) 0.0637(17) -0.0059(13) -0.0163(15) 0.0201(14)
Zn3 0.066(2) 0.056(2) 0.084(2) -0.0007(15) -0.022(2) 0.0090(14)
I3 0.1078(16) 0.0470(10) 0.1141(16) 0.0021(8) -0.0131(13) 0.0061(9)
N8 0.089 0.057 0.071 -0.009 -0.012 0.003
I4 0.1203(18) 0.104(2) 0.0778(11) -0.0037(10) 0.0058(13) 0.0527(16)
N9 0.077(4) 0.074(5) 0.119(7) 0.016(4) -0.027(5) 0.009(4)
I5 0.1105(18) 0.0656(11) 0.134(2) 0.0220(10) -0.0424(18) -0.0166(9)
I6 0.0916(17) 0.161(3) 0.0886(15) -0.0391(15) -0.0060(10) 0.0045(15)
C19 0.109(9) 0.185(17) 0.138(11) 0.088(12) 0.014(9) 0.054(10)
C20 0.086(5) 0.068(5) 0.087(5) -0.011(4) -0.017(4) 0.004(4)
C21 0.109(8) 0.135(11) 0.125(9) 0.064(9) 0.027(7) 0.050(8)
C22 0.090(5) 0.053(4) 0.077(5) -0.001(3) -0.019(4) 0.012(4)
C23 0.061(4) 0.061(4) 0.080(5) 0.008(3) -0.012(3) -0.003(3)
C24 0.067(4) 0.053(3) 0.069(4) 0.009(3) -0.014(3) -0.009(3)
N10 0.074(4) 0.060(3) 0.079(4) 0.010(3) -0.006(3) -0.005(3)
N11 0.071(3) 0.056(3) 0.063(3) 0.009(2) -0.018(3) -0.004(3)
C25 0.076(4) 0.057(4) 0.072(4) 0.006(3) -0.011(3) -0.007(3)
C26 0.069(4) 0.063(4) 0.058(3) 0.005(3) -0.013(3) -0.004(3)
N12 0.079(4) 0.059(3) 0.069(3) 0.008(3) -0.009(3) -0.010(3)
C27 0.092(6) 0.064(4) 0.078(5) 0.009(4) 0.014(4) -0.011(4)
C28 0.075(4) 0.059(4) 0.059(3) 0.002(3) -0.013(3) 0.007(3)
C29 0.114(7) 0.069(5) 0.098(6) 0.018(5) 0.026(6) 0.007(5)
C30 0.115(9) 0.122(10) 0.128(10) 0.055(9) 0.033(8) 0.011(8)
C31 0.101(6) 0.070(5) 0.094(6) 0.013(4) 0.021(5) 0.017(5)
C32 0.063(4) 0.059(4) 0.068(4) 0.003(3) -0.016(3) -0.008(3)
C33 0.126(9) 0.088(7) 0.124(9) 0.018(7) 0.056(8) 0.017(6)
C34 0.146(11) 0.104(9) 0.133(11) 0.054(8) 0.044(9) 0.017(8)
C35 0.107(7) 0.071(5) 0.088(5) 0.021(5) 0.018(5) 0.021(5)
C36 0.081(5) 0.074(5) 0.065(4) 0.014(4) -0.015(3) -0.008(4)
N1B 0.139(8) 0.053(4) 0.104(6) 0.012(4) 0.045(5) -0.005(4)
N8G 0.089(4) 0.057(3) 0.071(4) 0.009(3) -0.012(3) -0.003(3)
Zn1B 0.125(2) 0.0389(12) 0.0763(17) 0.0051(9) 0.0238(16) -0.0044(11)
Zn2G 0.085 0.057 0.0637 0.0059 -0.0163 -0.0201
C37 0.23(3) 0.30(4) 0.21(3) -0.04(3) 0.18(2) 0.00(3)
C38 0.23(3) 0.29(3) 0.17(3) -0.03(3) 0.14(2) 0.03(3)
C39 0.24(4) 0.31(4) 0.21(3) -0.01(3) 0.15(3) 0.03(3)
C40 0.26(3) 0.31(4) 0.25(3) -0.02(3) 0.16(3) 0.04(3)
C41 0.26(3) 0.27(4) 0.22(3) -0.05(3) 0.19(3) 0.05(3)
C42 0.25(4) 0.28(4) 0.21(3) -0.02(3) 0.18(3) 0.03(3)
O1 0.25(4) 0.34(5) 0.27(4) -0.11(4) 0.20(3) -0.07(4)
O2 0.22(3) 0.22(3) 0.17(2) -0.06(2) 0.08(2) -0.04(3)
C43 0.25(4) 0.16(4) 0.12(2) 0.02(3) 0.08(3) 0.04(4)
C44 0.25(4) 0.27(4) 0.30(4) 0.00(4) 0.15(4) 0.03(4)
O3 0.26(4) 0.19(3) 0.46(6) 0.13(4) 0.16(4) 0.10(3)
C45 0.103(15) 0.25(3) 0.29(3) 0.08(3) 0.04(2) 0.07(2)
C46 0.15(2) 0.22(3) 0.30(3) 0.09(3) 0.04(2) 0.04(2)
C47 0.16(3) 0.26(4) 0.26(3) 0.06(3) 0.09(3) 0.05(3)
C48 0.21(3) 0.29(4) 0.23(3) 0.02(3) 0.13(3) 0.07(3)
C49 0.21(3) 0.30(4) 0.26(3) 0.05(3) 0.10(3) 0.08(3)
C50 0.15(2) 0.27(4) 0.27(3) 0.05(3) 0.07(3) 0.05(3)
O4 0.14(2) 0.40(6) 0.50(7) 0.06(6) 0.09(4) 0.10(3)
O5 0.129(18) 0.18(3) 0.37(4) 0.12(3) 0.06(2) 0.041(18)
C51 0.12(3) 0.26(6) 0.39(7) 0.02(6) 0.10(4) 0.07(3)
C52 0.30(4) 0.36(5) 0.22(3) 0.01(4) 0.18(3) 0.10(4)
O6 0.48(7) 0.40(5) 0.43(7) -0.03(4) 0.15(6) 0.16(4)
C53 0.53(6) 0.53(6) 0.44(6) -0.01(5) 0.12(5) -0.03(5)
C54 0.50(6) 0.53(6) 0.43(6) 0.00(5) 0.14(5) -0.03(5)
C55 0.52(6) 0.57(6) 0.43(6) 0.01(5) 0.15(5) 0.01(5)
C56 0.52(6) 0.57(6) 0.43(6) 0.01(5) 0.14(5) 0.00(5)
C57 0.52(6) 0.54(6) 0.43(6) 0.00(5) 0.13(5) -0.03(5)
C58 0.51(6) 0.54(6) 0.43(6) 0.01(5) 0.15(5) -0.01(5)
loop_
_geom_bond_atom_site_label_1
_geom_bond_atom_site_label_2
_geom_bond_site_symmetry_1
_geom_bond_site_symmetry_2
I1 Zn1 1_555 1_555
Zn1 I2 1_555 1_555
N1 Zn1 1_555 1_555
N2 Zn1 1_555 1_555
C1 N2 1_555 1_555
C2 N2 1_555 1_555
C3 C1 1_555 1_555
H1 C1 1_555 1_555
C4 C2 1_555 1_555
H2 C2 1_555 1_555
C5 C3 1_555 1_555
H3 C3 1_555 1_555
H4 C4 1_555 1_555
C6 C5 1_555 1_555
N3 C6 1_555 1_555
N4 C6 1_555 1_555
C7 N3 1_555 1_555
C8 N4 1_555 1_555
C9 C7 1_555 1_555
N5 C7 1_555 1_555
C10 C8 1_555 1_555
C11 C9 1_555 1_555
C12 C9 1_555 1_555
C13 C10 1_555 1_555
C14 C10 1_555 1_555
C15 C11 1_555 1_555
H5 C11 1_555 1_555
C16 C12 1_555 1_555
H6 C12 1_555 1_555
H7 C13 1_555 1_555
C17 C13 1_555 1_555
C18 C14 1_555 1_555
H8 C14 1_555 1_555
N6 C15 1_555 1_555
H9 C15 1_555 1_555
H10 C16 1_555 1_555
N7 C17 1_555 1_555
H11 C17 1_555 1_555
H12 C18 1_555 1_555
Zn2 N6 1_555 1_555
Zn3 N7 1_555 1_555
I3 Zn2 1_555 1_555
N8 Zn2 1_555 1_555
I4 Zn2 1_555 1_555
N9 Zn3 1_555 1_555
I5 Zn3 1_555 1_555
I6 Zn3 1_555 1_555
C19 N9 1_555 1_555
C20 N9 1_555 1_555
C21 C19 1_555 1_555
H13 C19 1_555 1_555
C22 C20 1_555 1_555
H14 C20 1_555 1_555
H15 C21 1_555 1_555
C23 C21 1_555 1_555
H16 C22 1_555 1_555
C24 C23 1_555 1_555
N10 C24 1_555 1_555
N11 C24 1_555 1_555
C25 N10 1_555 1_555
C26 N11 1_555 1_555
N12 C25 1_555 1_555
C27 C25 1_555 1_555
C28 C26 1_555 1_555
C29 C27 1_555 1_555
C30 C27 1_555 1_555
C31 C28 1_555 1_555
C32 C28 1_555 1_555
C33 C29 1_555 1_555
H17 C29 1_555 1_555
C34 C30 1_555 1_555
H18 C30 1_555 1_555
H19 C31 1_555 1_555
C35 C31 1_555 1_555
C36 C32 1_555 1_555
H20 C32 1_555 1_555
H21 C33 1_555 1_555
H22 C34 1_555 1_555
H23 C35 1_555 1_555
H24 C36 1_555 1_555
C37 C38 1_555 1_555
C38 C39 1_555 1_555
C39 H25 1_555 1_555
C40 C39 1_555 1_555
C41 C40 1_555 1_555
H26 C41 1_555 1_555
C42 C37 1_555 1_555
H27 C42 1_555 1_555
O1 C37 1_555 1_555
H28 O1 1_555 1_555
O2 C38 1_555 1_555
C43 O2 1_555 1_555
H29 C43 1_555 1_555
H30 C43 1_555 1_555
H31 C43 1_555 1_555
C44 C40 1_555 1_555
H32 C44 1_555 1_555
O3 C44 1_555 1_555
C45 C46 1_555 1_555
C46 C47 1_555 1_555
C47 H33 1_555 1_555
C48 C47 1_555 1_555
C49 C48 1_555 1_555
H34 C49 1_555 1_555
C50 C45 1_555 1_555
H35 C50 1_555 1_555
O4 C45 1_555 1_555
H36 O4 1_555 1_555
O5 C46 1_555 1_555
C51 O5 1_555 1_555
H37 C51 1_555 1_555
H38 C51 1_555 1_555
H39 C51 1_555 1_555
C52 C48 1_555 1_555
H40 C52 1_555 1_555
O6 C52 1_555 1_555
C53 C54 1_555 1_555
C54 H43 1_555 1_555
C55 C56 1_555 1_555
C56 C57 1_555 1_555
C57 C53 1_555 1_555
H41 C53 1_555 1_555
H42 C53 1_555 1_555
H44 C54 1_555 1_555
C58 C54 1_555 1_555
H45 C58 1_555 1_555
H46 C55 1_555 1_555
H47 C55 1_555 1_555
H48 C56 1_555 1_555
H49 C56 1_555 1_555
H50 C57 1_555 1_555
H51 C57 1_555 1_555
H52 C58 1_555 1_555
N1B C33 1_555 1_555
N8G C35 1_555 1_555
Zn1B N1B 1_555 1_555
Zn2G N8G 1_555 1_555
C4 C5 1_555 1_555
C8 N5 1_555 1_555
C16 N6 1_555 1_555
C18 N7 1_555 1_555
C22 C23 1_555 1_555
C26 N12 1_555 1_555
C34 N1B 1_555 1_555
C36 N8G 1_555 1_555
C41 C42 1_555 1_555
C49 C50 1_555 1_555
C55 C58 1_555 1_555

#END
