
#######################################################################
#
#                 Cambridge Crystallographic Data Centre
#                                CCDC 
#
#######################################################################
#
# If this CIF has been generated from an entry in the Cambridge 
# Structural Database, then it will include bibliographic, chemical, 
# crystal, experimental, refinement or atomic coordinate data resulting 
# from the CCDC's data processing and validation procedures.
#
#######################################################################

data_LABQAJ
_chemical_formula_moiety         '(C56 H45 Br1 I6 N12 Zn3)n'
_symmetry_cell_setting           monoclinic
_symmetry_space_group_name_H-M   'C 2/c'
_symmetry_Int_Tables_number      15
_space_group_name_Hall           '-C 2yc'
loop_
_symmetry_equiv_pos_site_id
_symmetry_equiv_pos_as_xyz
1 x,y,z
2 -x,y,1/2-z
3 1/2+x,1/2+y,z
4 1/2-x,1/2+y,1/2-z
5 -x,-y,-z
6 x,-y,1/2+z
7 1/2-x,1/2-y,-z
8 1/2+x,1/2-y,1/2+z
_cell_length_a                   35.8691(14)
_cell_length_b                   14.8864(3)
_cell_length_c                   31.2823(9)
_cell_angle_alpha                90
_cell_angle_beta                 102.711(4)
_cell_angle_gamma                90
_cell_volume                     16294.2
loop_
_atom_site_label
_atom_site_type_symbol
_atom_site_fract_x
_atom_site_fract_y
_atom_site_fract_z
_atom_site_U_iso_or_equiv
_atom_site_thermal_displace_type
Zn1 Zn 0.37745(4) 0.40154(8) 0.42929(5) 0.0749 Uani
N1 N 0.6416(3) 0.6622(5) 0.3285(3) 0.0761 Uani
C1 C 0.6536(3) 0.7113(6) 0.3649(4) 0.0743 Uani
H1 H 0.6787 0.7357 0.3709 0.0890 Uiso
C2 C 0.6300(3) 0.7273(6) 0.3939(3) 0.0711 Uani
H2 H 0.6390 0.7620 0.4196 0.0850 Uiso
C3 C 0.5936(3) 0.6924(5) 0.3851(3) 0.0635 Uani
C4 C 0.5815(3) 0.6398(8) 0.3477(3) 0.0799 Uani
H3 H 0.5568 0.6129 0.3413 0.0960 Uiso
C5 C 0.6064(4) 0.6283(8) 0.3206(4) 0.0922 Uani
H4 H 0.5981 0.5942 0.2946 0.1110 Uiso
N2 N 0.4229(2) 0.4897(5) 0.4354(3) 0.0719 Uani
C6 C 0.4379(3) 0.5328(6) 0.4719(3) 0.0682 Uani
H5 H 0.4266 0.5250 0.4965 0.0820 Uiso
C7 C 0.4688(3) 0.5885(6) 0.4760(3) 0.0667 Uani
H6 H 0.4788 0.6180 0.5031 0.0800 Uiso
C8 C 0.4851(2) 0.6014(5) 0.4410(2) 0.0579 Uani
C9 C 0.4687(4) 0.5612(9) 0.4005(4) 0.0970 Uani
H7 H 0.4786 0.5719 0.3752 0.1170 Uiso
C10 C 0.4375(4) 0.5058(10) 0.3989(4) 0.1058 Uani
H8 H 0.4259 0.4780 0.3719 0.1270 Uiso
N3 N 0.5623(2) 1.0109(5) 0.5559(2) 0.0668 Uani
C11 C 0.5321(3) 0.9575(6) 0.5513(3) 0.0716 Uani
H9 H 0.5131 0.9706 0.5673 0.0860 Uiso
C12 C 0.5272(3) 0.8833(6) 0.5240(3) 0.0670 Uani
H10 H 0.5054 0.8460 0.5215 0.0800 Uiso
C13 C 0.5548(2) 0.8640(5) 0.5003(2) 0.0597 Uani
C14 C 0.5857(3) 0.9190(6) 0.5048(3) 0.0754 Uani
H11 H 0.6053 0.9076 0.4893 0.0910 Uiso
C15 C 0.5879(3) 0.9938(6) 0.5333(3) 0.0770 Uani
H12 H 0.6091 1.0334 0.5361 0.0920 Uiso
C16 C 0.5678(2) 0.7070(5) 0.4159(2) 0.0563 Uani
N4 N 0.53935(19) 0.6488(4) 0.4131(2) 0.0585 Uani
C17 C 0.5179(2) 0.6615(5) 0.4424(2) 0.0572 Uani
N5 N 0.52294(18) 0.7270(4) 0.47301(19) 0.0543 Uani
C18 C 0.5508(2) 0.7840(5) 0.4709(2) 0.0563 Uani
N6 N 0.5745(2) 0.7761(4) 0.4437(2) 0.0598 Uani
N7 N 0.3367(2) 0.4702(4) 0.3840(2) 0.0633 Uani
C19 C 0.3309(3) 0.5557(6) 0.3886(4) 0.0909 Uani
H13 H 0.3472 0.5867 0.4120 0.1090 Uiso
C20 C 0.3023(3) 0.6034(6) 0.3612(4) 0.0866 Uani
H14 H 0.2997 0.6662 0.3650 0.1040 Uiso
C21 C 0.2775(2) 0.5584(5) 0.3281(3) 0.0572 Uani
C22 C 0.2835(2) 0.4682(5) 0.3227(3) 0.0599 Uani
H15 H 0.2669 0.4352 0.3003 0.0720 Uiso
C23 C 0.3140(3) 0.4259(5) 0.3505(3) 0.0654 Uani
H16 H 0.3190 0.3645 0.3458 0.0780 Uiso
N8 N 0.1137(3) 0.4499(4) 0.1480(2) 0.0748 Uani
C24 C 0.1074(3) 0.5335(6) 0.1577(4) 0.0921 Uani
H17 H 0.0849 0.5618 0.1419 0.1110 Uiso
C25 C 0.1315(3) 0.5828(6) 0.1895(3) 0.0823 Uani
H18 H 0.1250 0.6422 0.1962 0.0990 Uiso
C26 C 0.1653(2) 0.5442(5) 0.2114(2) 0.0559 Uani
C27 C 0.1716(3) 0.4555(5) 0.2024(3) 0.0654 Uani
H19 H 0.1935 0.4249 0.2185 0.0780 Uiso
C28 C 0.1457(3) 0.4116(5) 0.1697(3) 0.0692 Uani
H20 H 0.1510 0.3516 0.1626 0.0830 Uiso
N9 N 0.1867(2) 1.0082(4) 0.2840(3) 0.0701 Uani
C29 C 0.1617(3) 0.9523(6) 0.2603(3) 0.0717 Uani
H21 H 0.1382 0.9757 0.2442 0.0860 Uiso
C30 C 0.1686(3) 0.8620(5) 0.2580(3) 0.0681 Uani
H22 H 0.1505 0.8247 0.2393 0.0820 Uiso
C31 C 0.2015(2) 0.8252(5) 0.2826(3) 0.0565 Uani
C32 C 0.2277(3) 0.8822(5) 0.3074(3) 0.0660 Uani
H23 H 0.2510 0.8596 0.3245 0.0790 Uiso
C33 C 0.2197(3) 0.9737(6) 0.3069(3) 0.0733 Uani
H24 H 0.2381 1.0132 0.3235 0.0880 Uiso
C34 C 0.2452(2) 0.6052(5) 0.2991(2) 0.0555 Uani
N10 N 0.22278(19) 0.5540(4) 0.2688(2) 0.0546 Uani
C35 C 0.1921(2) 0.5961(5) 0.2454(2) 0.0546 Uani
N11 N 0.18361(19) 0.6815(4) 0.25000(19) 0.0539 Uani
C36 C 0.2089(2) 0.7273(4) 0.2795(2) 0.0545 Uani
N12 N 0.24017(19) 0.6923(4) 0.3056(2) 0.0561 Uani
Zn2 Zn 0.6743(2) 0.6434(5) 0.2798(2) 0.0681 Uani
Zn3 Zn 0.57117(8) 1.1143(2) 0.60168(9) 0.0522 Uani
I1 I 0.73551(16) 0.7318(4) 0.30413(16) 0.0935 Uani
I2 I 0.62806(13) 0.6722(2) 0.20501(11) 0.1009 Uani
I3 I 0.39725(11) 0.2597(2) 0.39162(7) 0.0969 Uani
I4 I 0.35589(9) 0.3986(2) 0.50040(8) 0.0852 Uani
I5 I 0.60393(5) 1.23754(9) 0.56796(4) 0.0670 Uani
I6 I 0.51377(5) 1.13940(14) 0.63440(5) 0.0786 Uani
N8G N 0.6137(3) 1.0501(4) 0.6480(2) 0.0748 Uani
N9B N 0.6867(2) 0.5082(4) 0.2840(3) 0.0701 Uani
Zn2B Zn 0.1743(2) 1.1434(5) 0.2798(2) 0.0681 Uani
Zn3G Zn 0.07117(8) 0.3857(2) 0.10168(9) 0.0522 Uani
Br1 Br 0.0947(7) 0.4490(13) 0.2720(5) 0.4153 Uani
C37 C 0.1246(8) 0.5514(17) 0.3074(8) 0.1143 Uani
C38 C 0.1594(6) 0.5371(14) 0.3364(8) 0.1093 Uani
C39 C 0.1746(7) 0.6133(11) 0.3595(9) 0.1035 Uani
C40 C 0.2072(8) 0.6066(12) 0.3928(10) 0.1327 Uani
H25 H 0.2176 0.6587 0.4086 0.1610 Uiso
C41 C 0.2247(8) 0.5236(14) 0.4032(10) 0.1303 Uani
H26 H 0.2470 0.5190 0.4260 0.1540 Uiso
C42 C 0.2094(7) 0.4474(11) 0.3801(10) 0.0940 Uani
H27 H 0.2214 0.3906 0.3872 0.1150 Uiso
C43 C 0.1768(7) 0.4541(12) 0.3468(9) 0.1361 Uani
H28 H 0.1664 0.4020 0.3310 0.1630 Uiso
C44 C 0.1044(10) 0.631(2) 0.3010(15) 0.1401 Uani
H29 H 0.0801 0.6348 0.2814 0.1720 Uiso
C45 C 0.1215(8) 0.7064(19) 0.3251(12) 0.1243 Uani
C46 C 0.1567(7) 0.6956(13) 0.3538(11) 0.0855 Uani
C47 C 0.1743(6) 0.7683(17) 0.3780(9) 0.0860 Uani
H30 H 0.1983 0.7609 0.3976 0.1030 Uiso
C48 C 0.1566(9) 0.8519(13) 0.3735(10) 0.1080 Uani
H31 H 0.1685 0.9016 0.3900 0.1270 Uiso
C49 C 0.1213(9) 0.8627(15) 0.3448(11) 0.1111 Uani
H32 H 0.1092 0.9199 0.3417 0.1330 Uiso
C50 C 0.1038(8) 0.790(2) 0.3206(11) 0.1362 Uani
H33 H 0.0797 0.7974 0.3010 0.1600 Uiso
C51 C 0.5833(17) 1.114(3) 0.4462(12) 0.1803 Uani
C52 C 0.5842(14) 1.050(3) 0.4078(13) 0.1691 Uani
C53 C 0.5421(15) 1.031(2) 0.3855(15) 0.1782 Uani
C54 C 0.5270(15) 1.122(3) 0.3659(12) 0.1502 Uani
C55 C 0.5253(16) 1.190(4) 0.4027(17) 0.2181 Uani
C56 C 0.5669(18) 1.205(3) 0.4285(18) 0.2106 Uani
H34 H 0.5674 1.0878 0.4652 0.2180 Uiso
H35 H 0.6095 1.1223 0.4641 0.2180 Uiso
H36 H 0.5404 0.9846 0.3623 0.2110 Uiso
H37 H 0.5277 1.0098 0.4072 0.2110 Uiso
H38 H 0.5011 1.1140 0.3471 0.1790 Uiso
H39 H 0.5439 1.1452 0.3474 0.1790 Uiso
H40 H 0.5095 1.1655 0.4223 0.2610 Uiso
H41 H 0.5139 1.2470 0.3901 0.2610 Uiso
H42 H 0.5824 1.2309 0.4090 0.2500 Uiso
H43 H 0.5672 1.2472 0.4530 0.2500 Uiso
H44 H 0.5977 0.9938 0.4186 0.2020 Uiso
H45 H 0.5976 1.0787 0.3868 0.2020 Uiso
loop_
_atom_site_aniso_label
_atom_site_aniso_U_11
_atom_site_aniso_U_22
_atom_site_aniso_U_33
_atom_site_aniso_U_23
_atom_site_aniso_U_13
_atom_site_aniso_U_12
Zn1 0.0772(7) 0.0499(6) 0.0831(7) 0.0081(5) -0.0139(6) -0.0060(5)
N1 0.104(6) 0.046(3) 0.080(5) -0.010(3) 0.024(4) 0.004(4)
C1 0.086(6) 0.051(4) 0.089(6) -0.009(4) 0.026(5) -0.012(4)
C2 0.084(6) 0.053(4) 0.076(5) -0.018(4) 0.017(4) -0.008(4)
C3 0.076(5) 0.047(4) 0.061(4) -0.008(3) 0.001(4) 0.001(3)
C4 0.081(6) 0.086(6) 0.072(5) -0.021(5) 0.015(4) -0.012(5)
C5 0.114(9) 0.084(7) 0.079(6) -0.023(5) 0.022(6) -0.008(6)
N2 0.075(4) 0.062(4) 0.069(4) -0.009(3) -0.005(3) -0.008(3)
C6 0.082(5) 0.057(4) 0.057(4) 0.000(3) -0.003(4) -0.003(4)
C7 0.087(5) 0.054(4) 0.049(4) -0.001(3) -0.007(4) -0.005(4)
C8 0.061(4) 0.048(4) 0.056(4) -0.013(3) -0.006(3) 0.005(3)
C9 0.107(8) 0.107(9) 0.076(6) -0.041(6) 0.018(6) -0.040(7)
C10 0.108(8) 0.111(10) 0.087(7) -0.041(7) -0.003(6) -0.045(7)
N3 0.095(5) 0.052(3) 0.045(3) -0.002(3) -0.003(3) 0.006(3)
C11 0.092(6) 0.057(4) 0.056(4) -0.010(3) -0.005(4) 0.010(4)
C12 0.079(5) 0.057(4) 0.054(4) -0.011(3) -0.009(4) 0.005(4)
C13 0.073(4) 0.045(3) 0.049(3) -0.003(3) -0.013(3) 0.000(3)
C14 0.093(6) 0.060(5) 0.071(5) -0.017(4) 0.013(4) -0.009(4)
C15 0.088(6) 0.054(5) 0.081(6) -0.012(4) 0.001(5) -0.013(4)
C16 0.067(4) 0.045(3) 0.049(3) -0.006(3) -0.004(3) 0.006(3)
N4 0.063(3) 0.048(3) 0.056(3) -0.009(3) -0.005(3) 0.005(3)
C17 0.067(4) 0.047(3) 0.048(3) -0.011(3) -0.008(3) 0.005(3)
N5 0.064(3) 0.043(3) 0.048(3) -0.011(2) -0.005(2) 0.004(2)
C18 0.069(4) 0.043(3) 0.049(3) -0.003(3) -0.004(3) 0.004(3)
N6 0.067(4) 0.044(3) 0.060(3) -0.005(3) -0.004(3) 0.000(3)
N7 0.069(4) 0.038(3) 0.072(4) 0.006(3) -0.008(3) -0.006(3)
C19 0.107(7) 0.041(4) 0.094(7) -0.002(4) -0.044(6) -0.018(4)
C20 0.106(7) 0.036(4) 0.096(7) -0.007(4) -0.025(6) -0.010(4)
C21 0.068(4) 0.036(3) 0.062(4) -0.001(3) 0.002(3) -0.008(3)
C22 0.068(4) 0.038(3) 0.066(4) -0.006(3) -0.002(3) -0.010(3)
C23 0.075(5) 0.039(3) 0.071(5) 0.000(3) -0.008(4) -0.008(3)
N8 0.119(6) 0.041(3) 0.049(3) 0.000(3) -0.015(4) -0.007(3)
C24 0.113(8) 0.047(4) 0.085(6) -0.013(4) -0.046(6) 0.011(4)
C25 0.108(7) 0.042(4) 0.075(5) -0.011(4) -0.027(5) 0.008(4)
C26 0.079(5) 0.038(3) 0.043(3) 0.000(2) -0.003(3) -0.004(3)
C27 0.087(5) 0.038(3) 0.059(4) 0.000(3) -0.010(4) -0.004(3)
C28 0.105(6) 0.034(3) 0.054(4) -0.001(3) -0.014(4) -0.005(4)
N9 0.094(5) 0.038(3) 0.081(4) -0.004(3) 0.025(4) -0.003(3)
C29 0.089(6) 0.043(4) 0.081(5) -0.005(4) 0.014(4) 0.002(4)
C30 0.089(6) 0.043(4) 0.069(5) -0.008(3) 0.010(4) -0.005(4)
C31 0.076(5) 0.033(3) 0.060(4) -0.002(3) 0.014(3) -0.004(3)
C32 0.081(5) 0.038(3) 0.073(5) -0.008(3) 0.004(4) -0.004(3)
C33 0.101(7) 0.041(4) 0.075(5) -0.006(3) 0.013(5) -0.020(4)
C34 0.072(4) 0.037(3) 0.053(3) -0.003(3) 0.004(3) -0.006(3)
N10 0.075(4) 0.030(2) 0.052(3) -0.001(2) -0.001(3) -0.009(2)
C35 0.078(5) 0.036(3) 0.044(3) 0.003(2) 0.001(3) -0.004(3)
N11 0.075(4) 0.032(2) 0.049(3) -0.003(2) 0.001(3) -0.006(2)
C36 0.073(4) 0.032(3) 0.056(4) -0.004(3) 0.009(3) -0.008(3)
N12 0.072(4) 0.032(3) 0.058(3) -0.002(2) 0.001(3) -0.010(2)
Zn2 0.103(3) 0.0337(16) 0.0669(18) -0.0093(11) 0.017(2) -0.0012(14)
Zn3 0.0728(12) 0.0393(10) 0.0370(8) -0.0001(6) -0.0043(7) 0.0092(8)
I1 0.1351(15) 0.0495(9) 0.1077(17) -0.0300(9) 0.0521(18) -0.0316(8)
I2 0.1648(19) 0.0538(9) 0.0716(10) 0.0108(8) -0.0008(17) 0.0068(13)
I3 0.1205(15) 0.0587(10) 0.0957(15) -0.0117(7) -0.0102(12) 0.0274(8)
I4 0.0857(11) 0.0917(12) 0.0748(11) 0.0263(10) 0.0101(7) 0.0091(8)
I5 0.1021(9) 0.0355(4) 0.0550(5) 0.0046(3) -0.0010(5) 0.0014(5)
I6 0.0844(8) 0.0853(7) 0.0629(5) 0.0042(5) 0.0090(6) 0.0308(6)
N8G 0.119 0.041 0.049 0 -0.015 0.007
N9B 0.094 0.038 0.081 -0.004 0.025 -0.003
Zn2B 0.103 0.0337 0.0669 -0.0093 0.017 -0.0012
Zn3G 0.0728 0.0393 0.037 0.0001 -0.0043 -0.0092
Br1 0.68(4) 0.38(2) 0.276(17) -0.172(16) 0.30(2) -0.36(3)
C37 0.16(3) 0.13(2) 0.076(16) -0.023(17) 0.076(17) -0.07(2)
C38 0.16(2) 0.080(16) 0.12(2) -0.001(16) 0.100(17) -0.014(18)
C39 0.16(2) 0.069(14) 0.112(19) -0.003(14) 0.096(16) -0.022(16)
C40 0.13(3) 0.14(3) 0.12(3) 0.00(2) 0.01(2) 0.00(2)
C41 0.15(3) 0.10(2) 0.14(3) -0.03(2) 0.03(2) -0.04(2)
C42 0.12(2) 0.044(13) 0.11(2) -0.024(14) 0.008(18) -0.054(14)
C43 0.19(3) 0.067(17) 0.17(3) 0.009(18) 0.08(2) -0.046(19)
C44 0.15(3) 0.19(3) 0.10(2) -0.03(2) 0.07(2) -0.05(2)
C45 0.13(2) 0.17(3) 0.096(19) -0.01(2) 0.075(17) -0.03(2)
C46 0.118(17) 0.072(14) 0.091(16) -0.002(13) 0.076(14) -0.008(13)
C47 0.114(18) 0.083(16) 0.082(15) -0.006(13) 0.067(14) -0.007(14)
C48 0.13(2) 0.11(2) 0.10(2) 0.011(18) 0.060(18) 0.001(19)
C49 0.14(3) 0.13(3) 0.08(2) 0.024(18) 0.06(2) 0.02(2)
C50 0.13(2) 0.19(3) 0.10(2) 0.04(3) 0.05(2) -0.02(3)
C51 0.32(4) 0.11(2) 0.09(2) 0.00(2) 0.00(3) 0.06(3)
C52 0.31(4) 0.11(2) 0.09(2) 0.049(19) 0.05(3) 0.09(3)
C53 0.29(4) 0.15(3) 0.12(2) 0.01(2) 0.10(3) 0.07(3)
C54 0.25(4) 0.10(2) 0.11(2) -0.037(18) 0.06(2) 0.07(2)
C55 0.30(4) 0.18(3) 0.16(3) -0.04(3) 0.02(3) 0.04(3)
C56 0.29(4) 0.18(3) 0.14(3) -0.04(3) 0.00(3) 0.06(3)
loop_
_geom_bond_atom_site_label_1
_geom_bond_atom_site_label_2
_geom_bond_site_symmetry_1
_geom_bond_site_symmetry_2
Zn1 N2 1_555 1_555
N1 C1 1_555 1_555
C1 H1 1_555 1_555
C2 C1 1_555 1_555
H2 C2 1_555 1_555
C3 C2 1_555 1_555
C4 C3 1_555 1_555
H3 C4 1_555 1_555
C5 N1 1_555 1_555
H4 C5 1_555 1_555
N2 C6 1_555 1_555
C6 H5 1_555 1_555
C7 C6 1_555 1_555
H6 C7 1_555 1_555
C8 C7 1_555 1_555
C9 C8 1_555 1_555
H7 C9 1_555 1_555
C10 N2 1_555 1_555
H8 C10 1_555 1_555
N3 C11 1_555 1_555
C11 H9 1_555 1_555
C12 C11 1_555 1_555
H10 C12 1_555 1_555
C13 C12 1_555 1_555
C14 C13 1_555 1_555
H11 C14 1_555 1_555
C15 N3 1_555 1_555
H12 C15 1_555 1_555
C16 C3 1_555 1_555
N4 C16 1_555 1_555
C17 C8 1_555 1_555
N5 C17 1_555 1_555
C18 C13 1_555 1_555
N6 C16 1_555 1_555
N7 Zn1 1_555 1_555
C19 N7 1_555 1_555
H13 C19 1_555 1_555
C20 C19 1_555 1_555
H14 C20 1_555 1_555
C21 C20 1_555 1_555
C22 C21 1_555 1_555
H15 C22 1_555 1_555
C23 N7 1_555 1_555
H16 C23 1_555 1_555
N8 C24 1_555 1_555
C24 H17 1_555 1_555
C25 C24 1_555 1_555
H18 C25 1_555 1_555
C26 C25 1_555 1_555
C27 C26 1_555 1_555
H19 C27 1_555 1_555
C28 N8 1_555 1_555
H20 C28 1_555 1_555
N9 C29 1_555 1_555
C29 H21 1_555 1_555
C30 C29 1_555 1_555
H22 C30 1_555 1_555
C31 C30 1_555 1_555
C32 C31 1_555 1_555
H23 C32 1_555 1_555
C33 N9 1_555 1_555
H24 C33 1_555 1_555
C34 C21 1_555 1_555
N10 C34 1_555 1_555
C35 C26 1_555 1_555
N11 C35 1_555 1_555
C36 C31 1_555 1_555
N12 C34 1_555 1_555
Zn2 N1 1_555 1_555
Zn3 N3 1_555 1_555
I1 Zn2 1_555 1_555
I2 Zn2 1_555 1_555
I3 Zn1 1_555 1_555
I4 Zn1 1_555 1_555
I5 Zn3 1_555 1_555
I6 Zn3 1_555 1_555
Br1 C37 1_555 1_555
C37 C38 1_555 1_555
C38 C39 1_555 1_555
C39 C40 1_555 1_555
C40 H25 1_555 1_555
C41 C40 1_555 1_555
H26 C41 1_555 1_555
C42 C41 1_555 1_555
H27 C42 1_555 1_555
C43 C38 1_555 1_555
H28 C43 1_555 1_555
C44 C37 1_555 1_555
H29 C44 1_555 1_555
C45 C44 1_555 1_555
C46 C39 1_555 1_555
C47 C46 1_555 1_555
H30 C47 1_555 1_555
C48 C47 1_555 1_555
H31 C48 1_555 1_555
C49 C48 1_555 1_555
H32 C49 1_555 1_555
C50 C45 1_555 1_555
H33 C50 1_555 1_555
C51 C52 1_555 1_555
C52 C53 1_555 1_555
C53 C54 1_555 1_555
C54 C55 1_555 1_555
C55 C56 1_555 1_555
C56 C51 1_555 1_555
H34 C51 1_555 1_555
H35 C51 1_555 1_555
H36 C53 1_555 1_555
H37 C53 1_555 1_555
H38 C54 1_555 1_555
H39 C54 1_555 1_555
H40 C55 1_555 1_555
H41 C55 1_555 1_555
H42 C56 1_555 1_555
H43 C56 1_555 1_555
H44 C52 1_555 1_555
H45 C52 1_555 1_555
N8G Zn3 1_555 1_555
N9B Zn2 1_555 1_555
Zn2B N9 1_555 1_555
Zn3G N8 1_555 1_555
C4 C5 1_555 1_555
C9 C10 1_555 1_555
C14 C15 1_555 1_555
N4 C17 1_555 1_555
N5 C18 1_555 1_555
C18 N6 1_555 1_555
C22 C23 1_555 1_555
C27 C28 1_555 1_555
C32 C33 1_555 1_555
N10 C35 1_555 1_555
N11 C36 1_555 1_555
C36 N12 1_555 1_555
C42 C43 1_555 1_555
C45 C46 1_555 1_555
C49 C50 1_555 1_555

#END
