
#######################################################################
#
#                 Cambridge Crystallographic Data Centre
#                                CCDC 
#
#######################################################################
#
# If this CIF has been generated from an entry in the Cambridge 
# Structural Database, then it will include bibliographic, chemical, 
# crystal, experimental, refinement or atomic coordinate data resulting 
# from the CCDC's data processing and validation procedures.
#
#######################################################################

data_QALWUV
_chemical_formula_moiety         '(C64 H126 Fe2 N14 O1 Sn4)n'
_symmetry_cell_setting           monoclinic
_symmetry_space_group_name_H-M   'P 21/n'
_symmetry_Int_Tables_number      14
_space_group_name_Hall           '-P 2yn'
loop_
_symmetry_equiv_pos_site_id
_symmetry_equiv_pos_as_xyz
1 x,y,z
2 1/2+x,1/2-y,1/2+z
3 -x,-y,-z
4 1/2-x,1/2+y,1/2-z
_cell_length_a                   19.6796(2)
_cell_length_b                   15.56840(10)
_cell_length_c                   28.59780(10)
_cell_angle_alpha                90
_cell_angle_beta                 103.83
_cell_angle_gamma                90
_cell_volume                     8507.78
loop_
_atom_site_label
_atom_site_type_symbol
_atom_site_fract_x
_atom_site_fract_y
_atom_site_fract_z
_atom_site_U_iso_or_equiv
_atom_site_thermal_displace_type
Sn1 Sn 0.767112(11) 0.728156(14) 0.004098(8) 0.0298 Uani
C1 C 0.8391(3) 0.7577(3) -0.03779(18) 0.0698 Uani
H1 H 0.8709 0.7090 -0.0372 0.1450 Uiso
H2 H 0.8662 0.8086 -0.0245 0.1450 Uiso
H3 H 0.8137 0.7691 -0.0711 0.1450 Uiso
C2 C 0.7993(3) 0.6560(3) 0.06816(15) 0.0771 Uani
H4 H 0.8034 0.6940 0.0960 0.1450 Uiso
H5 H 0.8447 0.6293 0.0692 0.1450 Uiso
H6 H 0.7646 0.6112 0.0690 0.1450 Uiso
C3 C 0.6629(2) 0.7716(3) -0.0182(2) 0.0782 Uani
H7 H 0.6319 0.7225 -0.0289 0.1450 Uiso
H8 H 0.6590 0.8123 -0.0449 0.1450 Uiso
H9 H 0.6495 0.8001 0.0088 0.1450 Uiso
Sn2 Sn 0.746879(13) 0.265732(15) -0.264690(8) 0.0345 Uani
C4 C 0.8420(2) 0.2859(3) -0.28511(18) 0.0678 Uani
H10 H 0.8800 0.2941 -0.2562 0.1450 Uiso
H11 H 0.8380 0.3372 -0.3055 0.1450 Uiso
H12 H 0.8523 0.2359 -0.3031 0.1450 Uiso
C5 C 0.6554(3) 0.3286(3) -0.30408(18) 0.0720 Uani
H13 H 0.6502 0.3838 -0.2888 0.1450 Uiso
H14 H 0.6145 0.2926 -0.3044 0.1450 Uiso
H15 H 0.6593 0.3384 -0.3372 0.1450 Uiso
C6 C 0.7381(3) 0.1793(3) -0.20908(16) 0.0713 Uani
H16 H 0.7070 0.1318 -0.2228 0.1450 Uiso
H17 H 0.7189 0.2096 -0.1851 0.1450 Uiso
H18 H 0.7845 0.1565 -0.1936 0.1450 Uiso
Sn3 Sn 0.773796(14) 0.671350(15) 0.235637(8) 0.0384 Uani
C7 C 0.7700(3) 0.7559(3) 0.29316(16) 0.0737 Uani
H19 H 0.7921 0.7284 0.3239 0.1450 Uiso
H20 H 0.7212 0.7694 0.2925 0.1450 Uiso
H21 H 0.7951 0.8090 0.2897 0.1450 Uiso
C8 C 0.8697(3) 0.6427(4) 0.21844(19) 0.0770 Uani
H22 H 0.8966 0.6029 0.2424 0.1450 Uiso
H23 H 0.8965 0.6958 0.2184 0.1450 Uiso
H24 H 0.8607 0.6161 0.1865 0.1450 Uiso
C9 C 0.6819(3) 0.6153(3) 0.19301(19) 0.0755 Uani
H25 H 0.6408 0.6412 0.2012 0.1450 Uiso
H26 H 0.6822 0.5534 0.1992 0.1450 Uiso
H27 H 0.6799 0.6253 0.1589 0.1450 Uiso
Sn4 Sn 1.006660(12) 0.990420(16) 0.253780(8) 0.0378 Uani
C10 C 1.0747(2) 0.9399(3) 0.21359(16) 0.0581 Uani
H28 H 1.0872 0.8807 0.2238 0.1450 Uiso
H29 H 1.0513 0.9405 0.1793 0.1450 Uiso
H30 H 1.1172 0.9750 0.2191 0.1450 Uiso
C11 C 0.9927(2) 1.1247(3) 0.25614(19) 0.0657 Uani
H31 H 0.9695 1.1388 0.2819 0.1450 Uiso
H32 H 1.0384 1.1532 0.2624 0.1450 Uiso
H33 H 0.9638 1.1444 0.2252 0.1450 Uiso
C12 C 0.9548(3) 0.9060(4) 0.29170(19) 0.0790 Uani
H34 H 0.9160 0.8778 0.2690 0.1450 Uiso
H35 H 0.9878 0.8626 0.3084 0.1450 Uiso
H36 H 0.9365 0.9387 0.3153 0.1450 Uiso
Fe1 Fe 0.75887(2) 0.96030(3) 0.130060(14) 0.0230 Uani
C13 C 0.78479(16) 0.89653(19) 0.07943(11) 0.0273 Uani
N1 N 0.79504(15) 0.85325(18) 0.04927(10) 0.0372 Uani
C14 C 0.75737(18) 0.8518(2) 0.16302(11) 0.0347 Uani
N2 N 0.75877(19) 0.7882(2) 0.18335(12) 0.0511 Uani
C15 C 0.72978(19) 1.0205(2) 0.18067(12) 0.0363 Uani
N3 N 0.7150(2) 1.0581(2) 0.21110(12) 0.0569 Uani
C16 C 0.85469(18) 0.9741(2) 0.16613(12) 0.0377 Uani
N4 N 0.91115(17) 0.9815(2) 0.18887(12) 0.0572 Uani
C17 C 0.76473(16) 1.0710(2) 0.10004(11) 0.0290 Uani
N5 N 0.76789(16) 1.13751(19) 0.08367(12) 0.0441 Uani
C18 C 0.66310(16) 0.9448(2) 0.09359(11) 0.0301 Uani
N6 N 0.60778(15) 0.9345(2) 0.07007(12) 0.0485 Uani
Fe2 Fe 0.75606(2) 0.48820(3) -0.124804(14) 0.0219 Uani
C19 C 0.74289(16) 0.55865(19) -0.07246(10) 0.0262 Uani
N7 N 0.73849(16) 0.60388(18) -0.04172(10) 0.0375 Uani
C20 C 0.76819(18) 0.4181(2) -0.17758(12) 0.0344 Uani
N8 N 0.77044(18) 0.3751(2) -0.20942(11) 0.0492 Uani
C21 C 0.77015(18) 0.5912(2) -0.15902(11) 0.0339 Uani
N9 N 0.77615(19) 0.6520(2) -0.18023(11) 0.0496 Uani
C22 C 0.65849(18) 0.4944(2) -0.15847(11) 0.0366 Uani
N10 N 0.60190(17) 0.4991(2) -0.18098(11) 0.0539 Uani
C23 C 0.85475(17) 0.48904(19) -0.09285(11) 0.0296 Uani
N11 N 0.91269(16) 0.4936(2) -0.07276(12) 0.0477 Uani
C24 C 0.73833(15) 0.38336(19) -0.09315(11) 0.0277 Uani
N12 N 0.72760(16) 0.3200(2) -0.07589(12) 0.0453 Uani
N9C N 0.72385(19) 0.1520(2) -0.31977(11) 0.0496 Uani
N3C N 0.7850(2) 0.5581(2) 0.28890(12) 0.0569 Uani
N10A N 1.10190(17) 1.0009(2) 0.31902(11) 0.0539 Uani
Sn3C Sn 0.726204(14) 1.171350(15) 0.264363(8) 0.0384 Uani
Sn2C Sn 0.753121(13) 0.765732(15) -0.235310(8) 0.0345 Uani
Sn4A Sn 0.506660(12) 0.509580(16) -0.246220(8) 0.0378 Uani
N13 N 0.41676(14) 0.83104(19) 0.03963(10) 0.0376 Uani
C25 C 0.45138(18) 0.8699(2) 0.00224(12) 0.0404 Uani
H37 H 0.4421 0.9325 0.0007 0.0840 Uiso
H38 H 0.5026 0.8621 0.0135 0.0840 Uiso
C26 C 0.42863(19) 0.8341(3) -0.04810(13) 0.0444 Uani
H39 H 0.3796 0.8509 -0.0625 0.0840 Uiso
H40 H 0.4311 0.7706 -0.0470 0.0840 Uiso
C27 C 0.47588(19) 0.8685(3) -0.07854(13) 0.0472 Uani
H41 H 0.4701 0.9316 -0.0813 0.0840 Uiso
H42 H 0.5251 0.8567 -0.0618 0.0840 Uiso
C28 C 0.4619(3) 0.8306(4) -0.12847(17) 0.0748 Uani
H43 H 0.4619 0.7672 -0.1258 0.0840 Uiso
H44 H 0.4146 0.8484 -0.1465 0.0840 Uiso
C29 C 0.5134(3) 0.8561(5) -0.1564(2) 0.1067 Uani
H45 H 0.5115 0.9185 -0.1612 0.1450 Uiso
H46 H 0.5021 0.8272 -0.1877 0.1450 Uiso
H47 H 0.5605 0.8395 -0.1386 0.1450 Uiso
C30 C 0.33973(17) 0.8555(2) 0.02934(13) 0.0372 Uani
H48 H 0.3188 0.8264 0.0533 0.0840 Uiso
H49 H 0.3163 0.8326 -0.0028 0.0840 Uiso
C31 C 0.3234(2) 0.9512(2) 0.03016(15) 0.0522 Uani
H50 H 0.3561 0.9787 0.0578 0.0840 Uiso
H51 H 0.3298 0.9786 0.0003 0.0840 Uiso
C32 C 0.2485(3) 0.9645(3) 0.03436(16) 0.0644 Uani
H52 H 0.2350 1.0247 0.0259 0.0840 Uiso
H53 H 0.2173 0.9271 0.0105 0.0840 Uiso
C33 C 0.2364(4) 0.9456(4) 0.0836(2) 0.0951 Uani
C34 C 0.2612(8) 1.0101(7) 0.1185(4) 0.0862 Uani
H54 H 0.2379 1.0646 0.1076 0.1450 Uiso
H55 H 0.3118 1.0167 0.1228 0.1450 Uiso
H56 H 0.2510 0.9934 0.1491 0.1450 Uiso
C36 C 0.41903(18) 0.7341(2) 0.03939(15) 0.0443 Uani
H60 H 0.3921 0.7136 0.0076 0.0840 Uiso
H61 H 0.3952 0.7125 0.0639 0.0840 Uiso
C37 C 0.4922(2) 0.6946(3) 0.04942(18) 0.0616 Uani
H62 H 0.5183 0.7089 0.0826 0.0840 Uiso
H63 H 0.5183 0.7185 0.0267 0.0840 Uiso
C38 C 0.4862(3) 0.5967(4) 0.0435(2) 0.0810 Uani
H64 H 0.4577 0.5842 0.0107 0.0840 Uiso
H65 H 0.5336 0.5733 0.0455 0.0840 Uiso
C39 C 0.4559(3) 0.5509(3) 0.0780(2) 0.0768 Uani
H66 H 0.4080 0.5730 0.0756 0.0840 Uiso
H67 H 0.4840 0.5632 0.1109 0.0840 Uiso
C40 C 0.4523(3) 0.4533(3) 0.07034(19) 0.0698 Uani
H68 H 0.4341 0.4262 0.0958 0.1450 Uiso
H69 H 0.4992 0.4311 0.0714 0.1450 Uiso
H70 H 0.4211 0.4402 0.0389 0.1450 Uiso
C41 C 0.4570(2) 0.8654(3) 0.08780(13) 0.0514 Uani
H71 H 0.4519 0.9287 0.0876 0.0840 Uiso
H72 H 0.5073 0.8526 0.0914 0.0840 Uiso
C42 C 0.4348(2) 0.8298(4) 0.13150(14) 0.0647 Uani
H73 H 0.3839 0.8391 0.1274 0.0840 Uiso
H74 H 0.4436 0.7672 0.1337 0.0840 Uiso
C43 C 0.4731(3) 0.8714(6) 0.17651(17) 0.1251 Uani
H75 H 0.4555 0.9310 0.1762 0.0840 Uiso
H76 H 0.4597 0.8415 0.2035 0.0840 Uiso
C44 C 0.5495(5) 0.8756(10) 0.1878(2) 0.2933 Uani
H77 H 0.5622 0.8391 0.1629 0.0840 Uiso
H78 H 0.5593 0.9353 0.1793 0.0840 Uiso
C45 C 0.5923(5) 0.8617(7) 0.2215(5) 0.2236 Uani
H79 H 0.6016 0.9136 0.2415 0.1450 Uiso
H80 H 0.6351 0.8441 0.2123 0.1450 Uiso
H81 H 0.5770 0.8154 0.2399 0.1450 Uiso
N14 N 0.91624(17) 0.2955(2) 0.05204(11) 0.0431 Uani
C46 C 0.8391(2) 0.3158(2) 0.04659(16) 0.0485 Uani
H82 H 0.8118 0.2818 0.0192 0.0840 Uiso
H83 H 0.8257 0.2955 0.0759 0.0840 Uiso
C47 C 0.8167(2) 0.4086(2) 0.03854(15) 0.0523 Uani
H84 H 0.8222 0.4279 0.0067 0.0840 Uiso
H85 H 0.8466 0.4451 0.0635 0.0840 Uiso
C48 C 0.7409(2) 0.4173(3) 0.04086(15) 0.0542 Uani
H86 H 0.7128 0.3729 0.0201 0.0840 Uiso
H87 H 0.7233 0.4742 0.0280 0.0840 Uiso
C49 C 0.7303(3) 0.4080(4) 0.0922(2) 0.0839 Uani
H88 H 0.7444 0.3494 0.1040 0.0840 Uiso
H89 H 0.7615 0.4491 0.1136 0.0840 Uiso
C50 C 0.6588(3) 0.4231(4) 0.0956(2) 0.0966 Uani
H90 H 0.6560 0.4176 0.1292 0.1450 Uiso
H91 H 0.6278 0.3808 0.0758 0.1450 Uiso
H92 H 0.6444 0.4811 0.0839 0.1450 Uiso
C51 C 0.92440(19) 0.2023(2) 0.06704(15) 0.0475 Uani
H93 H 0.8903 0.1680 0.0432 0.0840 Uiso
H94 H 0.9119 0.1964 0.0984 0.0840 Uiso
C52 C 0.9971(2) 0.1638(3) 0.07171(17) 0.0581 Uani
H95 H 1.0070 0.1588 0.0395 0.0840 Uiso
H96 H 1.0329 0.2018 0.0917 0.0840 Uiso
C53 C 1.0004(2) 0.0753(3) 0.09497(19) 0.0632 Uani
H97 H 1.0469 0.0498 0.0962 0.0840 Uiso
H98 H 0.9962 0.0822 0.1286 0.0840 Uiso
C54 C 0.9444(3) 0.0129(3) 0.0693(3) 0.0922 Uani
C55 C 0.9660(4) -0.0761(6) 0.0705(4) 0.0628 Uani
H99 H 0.9656 -0.1010 0.1019 0.1450 Uiso
H100 H 1.0133 -0.0796 0.0653 0.1450 Uiso
H101 H 0.9336 -0.1081 0.0451 0.1450 Uiso
C57 C 0.9630(2) 0.3524(3) 0.08902(14) 0.0582 Uani
H105 H 0.9560 0.4128 0.0782 0.0840 Uiso
H106 H 1.0124 0.3373 0.0907 0.0840 Uiso
C58 C 0.9500(4) 0.3455(5) 0.13924(18) 0.1099 Uani
H107 H 0.9756 0.2960 0.1569 0.0840 Uiso
H108 H 0.8995 0.3387 0.1376 0.0840 Uiso
C59 C 0.9857(4) 0.4552(7) 0.1710(2) 0.1589 Uani
H109 H 0.9909 0.5027 0.1490 0.0840 Uiso
H110 H 0.9639 0.4742 0.1970 0.0840 Uiso
C60 C 1.0369(5) 0.4076(6) 0.1835(3) 0.1625 Uani
H111 H 1.0606 0.3917 0.1579 0.0840 Uiso
H112 H 1.0306 0.3579 0.2036 0.0840 Uiso
C61 C 1.0700(5) 0.5116(6) 0.2183(3) 0.1855 Uani
H113 H 1.1202 0.5184 0.2205 0.1450 Uiso
H114 H 1.0620 0.5083 0.2508 0.1450 Uiso
H115 H 1.0446 0.5610 0.2013 0.1450 Uiso
C62 C 0.9377(3) 0.3103(3) 0.00541(15) 0.0654 Uani
H116 H 0.9266 0.3706 -0.0045 0.0840 Uiso
H117 H 0.9892 0.3038 0.0119 0.0840 Uiso
C63 C 0.9056(4) 0.2537(5) -0.03600(18) 0.1192 Uani
H118 H 0.8544 0.2583 -0.0397 0.0840 Uiso
H119 H 0.9184 0.1943 -0.0249 0.0840 Uiso
C64 C 0.9195(5) 0.2597(5) -0.1002(6) 0.3689 Uani
H120 H 0.9081 0.2065 -0.1195 0.0840 Uiso
H121 H 0.9003 0.3116 -0.1186 0.0840 Uiso
C65 C 0.9743(5) 0.2650(8) -0.0795(3) 0.1992 Uani
H122 H 0.9925 0.2136 -0.0601 0.0840 Uiso
H123 H 0.9854 0.3185 -0.0605 0.0840 Uiso
C66 C 0.9952(5) 0.2687(6) -0.1424(4) 0.1717 Uani
H124 H 1.0375 0.2352 -0.1418 0.1450 Uiso
H125 H 1.0026 0.3284 -0.1508 0.1450 Uiso
H126 H 0.9558 0.2444 -0.1665 0.1450 Uiso
O1 O 0.9416(2) 0.5598(4) 0.02745(19) 0.1285 Uani
loop_
_atom_site_aniso_label
_atom_site_aniso_U_11
_atom_site_aniso_U_22
_atom_site_aniso_U_33
_atom_site_aniso_U_23
_atom_site_aniso_U_13
_atom_site_aniso_U_12
Sn1 0.03488(11) 0.02792(11) 0.02912(11) -0.00738(8) 0.01284(9) -0.00057(9)
C1 0.085(3) 0.068(3) 0.074(3) -0.031(2) 0.054(3) -0.030(3)
C2 0.139(5) 0.044(3) 0.040(2) -0.0017(19) 0.005(3) -0.002(3)
C3 0.045(2) 0.076(3) 0.104(4) -0.043(3) -0.001(3) 0.012(2)
Sn2 0.04679(13) 0.02938(11) 0.03033(11) -0.00911(9) 0.01535(10) -0.00213(10)
C4 0.063(3) 0.080(3) 0.072(3) -0.031(3) 0.039(2) -0.020(2)
C5 0.073(3) 0.062(3) 0.076(3) -0.011(2) 0.008(3) 0.023(3)
C6 0.108(4) 0.060(3) 0.049(3) 0.007(2) 0.025(3) -0.015(3)
Sn3 0.05292(15) 0.03189(12) 0.03469(12) 0.00977(9) 0.01890(11) 0.00296(10)
C7 0.119(4) 0.052(3) 0.048(3) -0.005(2) 0.016(3) 0.018(3)
C8 0.066(3) 0.100(4) 0.077(3) 0.036(3) 0.041(3) 0.024(3)
C9 0.078(3) 0.068(3) 0.078(3) 0.001(3) 0.014(3) -0.022(3)
Sn4 0.0297 0.0415 0.03595 0.00218 -0.00448 -0.0044
C10 0.059 0.054 0.056 -0.008 0.003 0.013
C11 0.064 0.047 0.087 -0.006 0.02 0.007
C12 0.061 0.096 0.072 0.028 0 -0.028
Fe1 0.0275(2) 0.0206(2) 0.01983(19) -0.00181(15) 0.00360(15) -0.00119(16)
C13 0.0298(15) 0.0218(14) 0.0290(15) -0.0008(11) 0.0047(12) -0.0023(12)
N1 0.0455(17) 0.0307(15) 0.0383(15) -0.0073(12) 0.0159(13) -0.0038(12)
C14 0.0447(19) 0.0300(17) 0.0291(16) 0.0002(13) 0.0084(14) 0.0012(14)
N2 0.071(2) 0.0359(18) 0.0464(18) 0.0129(14) 0.0143(17) 0.0018(16)
C15 0.050(2) 0.0293(17) 0.0320(17) -0.0053(13) 0.0143(15) -0.0048(15)
N3 0.088(3) 0.0412(19) 0.051(2) -0.0193(15) 0.0351(19) -0.0122(18)
C16 0.0416(19) 0.0378(19) 0.0295(16) 0.0013(14) 0.0005(14) -0.0005(15)
N4 0.0406(18) 0.069(2) 0.050(2) 0.0026(17) -0.0130(15) -0.0065(17)
C17 0.0298(15) 0.0265(16) 0.0316(16) -0.0021(12) 0.0089(12) -0.0014(12)
N5 0.0478(18) 0.0332(16) 0.0518(19) 0.0076(14) 0.0129(15) -0.0020(13)
C18 0.0328(16) 0.0294(16) 0.0298(15) -0.0008(12) 0.0109(13) -0.0031(13)
N6 0.0318(16) 0.062(2) 0.0495(19) -0.0015(16) 0.0054(14) -0.0114(15)
Fe2 0.0268(2) 0.0195(2) 0.01867(18) -0.00088(15) 0.00381(15) 0.00019(15)
C19 0.0315(15) 0.0225(14) 0.0234(14) 0.0006(11) 0.0044(12) -0.0005(12)
N7 0.0483(17) 0.0318(15) 0.0348(15) -0.0088(12) 0.0144(13) -0.0019(13)
C20 0.0415(18) 0.0302(17) 0.0327(16) -0.0075(13) 0.0115(14) -0.0057(14)
N8 0.066(2) 0.0443(19) 0.0429(17) -0.0192(14) 0.0239(16) -0.0100(16)
C21 0.0435(18) 0.0303(17) 0.0275(15) 0.0037(13) 0.0075(14) 0.0042(14)
N9 0.069(2) 0.0377(17) 0.0428(18) 0.0151(14) 0.0149(16) 0.0024(15)
C22 0.0378(18) 0.0426(19) 0.0270(15) -0.0032(14) 0.0032(13) 0.0042(15)
N10 0.0379(17) 0.077(3) 0.0395(17) -0.0003(17) -0.0050(14) 0.0077(17)
C23 0.0347(16) 0.0240(15) 0.0303(15) 0.0015(12) 0.0081(13) -0.0013(12)
N11 0.0346(16) 0.0454(19) 0.058(2) 0.0023(15) 0.0009(14) -0.0055(14)
C24 0.0237(14) 0.0266(15) 0.0324(16) -0.0010(12) 0.0060(12) -0.0019(12)
N12 0.0456(18) 0.0345(17) 0.058(2) 0.0087(14) 0.0170(15) -0.0059(13)
N9C 0.069 0.0377 0.0428 -0.0151 0.0149 -0.0024
N3C 0.088 0.0412 0.051 0.0193 0.0351 0.0122
N10A 0.0379 0.077 0.0395 0.0003 -0.005 -0.0077
Sn3C 0.05292 0.03189 0.03469 -0.00977 0.0189 -0.00296
Sn2C 0.04679 0.02938 0.03033 0.00911 0.01535 0.00213
Sn4A 0.02970(11) 0.04150(13) 0.03595(12) -0.00218(10) -0.00448(9) 0.00440(10)
N13 0.0327(14) 0.0439(17) 0.0359(15) 0.0058(12) 0.0077(12) -0.0116(12)
C25 0.0384(18) 0.050(2) 0.0332(17) 0.0049(15) 0.0092(14) -0.0165(16)
C26 0.0394(19) 0.055(2) 0.0389(19) -0.0027(17) 0.0096(15) -0.0094(17)
C27 0.0392(19) 0.063(3) 0.041(2) 0.0064(18) 0.0128(16) 0.0036(18)
C28 0.070(3) 0.104(4) 0.056(3) -0.016(3) 0.026(2) -0.011(3)
C29 0.090(4) 0.178(7) 0.065(4) -0.005(4) 0.044(3) 0.001(4)
C30 0.0351(17) 0.0369(18) 0.0407(18) 0.0044(14) 0.0115(14) -0.0042(14)
C31 0.070(3) 0.037(2) 0.051(2) 0.0069(17) 0.017(2) -0.0002(19)
C32 0.093(4) 0.052(3) 0.057(3) 0.016(2) 0.035(3) 0.027(2)
C33 0.154(6) 0.081(4) 0.074(4) 0.020(3) 0.074(4) 0.033(4)
C34 0.138(11) 0.078(8) 0.049(6) -0.004(5) 0.035(7) 0.012(7)
C36 0.0339(18) 0.039(2) 0.061(2) 0.0139(17) 0.0131(17) -0.0024(15)
C37 0.039(2) 0.067(3) 0.082(3) 0.025(2) 0.021(2) 0.010(2)
C38 0.066(3) 0.085(4) 0.103(4) 0.032(3) 0.042(3) 0.031(3)
C39 0.078(3) 0.069(3) 0.097(4) 0.016(3) 0.048(3) 0.017(3)
C40 0.076(3) 0.059(3) 0.085(4) 0.010(3) 0.040(3) 0.012(2)
C41 0.048(2) 0.071(3) 0.0341(19) 0.0026(18) 0.0074(16) -0.028(2)
C42 0.052(2) 0.106(4) 0.036(2) 0.010(2) 0.0103(18) -0.028(3)
C43 0.126(5) 0.215(8) 0.037(3) -0.004(4) 0.025(3) -0.101(6)
C44 0.165(9) 0.66(3) 0.040(3) 0.045(8) -0.005(4) -0.271(14)
C45 0.154(9) 0.201(11) 0.373(18) 0.187(13) 0.176(11) 0.099(9)
N14 0.0503(18) 0.0399(17) 0.0381(16) 0.0005(13) 0.0084(14) -0.0081(14)
C46 0.046(2) 0.037(2) 0.060(2) -0.0040(17) 0.0077(18) -0.0032(16)
C47 0.072(3) 0.035(2) 0.052(2) -0.0015(17) 0.019(2) -0.0062(19)
C48 0.073(3) 0.038(2) 0.058(3) -0.0004(18) 0.028(2) 0.0043(19)
C49 0.094(4) 0.081(4) 0.089(4) 0.028(3) 0.046(3) 0.034(3)
C50 0.107(5) 0.093(5) 0.104(5) 0.002(4) 0.053(4) 0.018(4)
C51 0.040(2) 0.041(2) 0.058(2) 0.0096(18) 0.0051(17) -0.0043(16)
C52 0.039(2) 0.069(3) 0.062(3) 0.017(2) 0.0036(19) 0.000(2)
C53 0.043(2) 0.058(3) 0.084(3) 0.016(2) 0.006(2) 0.007(2)
C54 0.062(3) 0.047(3) 0.154(6) -0.018(3) -0.001(4) 0.012(2)
C55 0.047(5) 0.047(5) 0.095(7) 0.010(5) 0.018(5) 0.016(4)
C57 0.065(3) 0.061(3) 0.047(2) -0.002(2) 0.010(2) -0.033(2)
C58 0.146(6) 0.135(6) 0.041(3) -0.016(3) 0.007(3) -0.086(5)
C59 0.158(8) 0.262(12) 0.064(4) 0.011(6) 0.041(5) 0.111(8)
C60 0.220(10) 0.169(8) 0.143(7) 0.081(6) 0.131(7) 0.118(8)
C61 0.270(12) 0.198(9) 0.103(6) -0.075(6) 0.073(7) -0.186(9)
C62 0.095(4) 0.064(3) 0.043(2) 0.019(2) 0.028(2) 0.027(3)
C63 0.118(5) 0.177(7) 0.045(3) -0.018(4) -0.015(3) 0.106(5)
C64 0.210(11) 0.040(4) 0.66(3) -0.055(9) -0.284(18) 0.054(6)
C65 0.179(9) 0.313(15) 0.073(5) 0.087(7) -0.034(5) -0.115(9)
C66 0.168(9) 0.140(8) 0.242(12) -0.071(8) 0.118(9) -0.070(7)
O1 0.094(3) 0.147(5) 0.138(4) -0.002(4) 0.015(3) -0.002(3)
loop_
_geom_bond_atom_site_label_1
_geom_bond_atom_site_label_2
_geom_bond_site_symmetry_1
_geom_bond_site_symmetry_2
Sn1 C1 1_555 1_555
C1 H1 1_555 1_555
H2 C1 1_555 1_555
H3 C1 1_555 1_555
C2 Sn1 1_555 1_555
H4 C2 1_555 1_555
H5 C2 1_555 1_555
H6 C2 1_555 1_555
C3 Sn1 1_555 1_555
H7 C3 1_555 1_555
H8 C3 1_555 1_555
H9 C3 1_555 1_555
Sn2 C4 1_555 1_555
C4 H10 1_555 1_555
H11 C4 1_555 1_555
H12 C4 1_555 1_555
C5 Sn2 1_555 1_555
H13 C5 1_555 1_555
H14 C5 1_555 1_555
H15 C5 1_555 1_555
C6 Sn2 1_555 1_555
H16 C6 1_555 1_555
H17 C6 1_555 1_555
H18 C6 1_555 1_555
Sn3 C7 1_555 1_555
C7 H19 1_555 1_555
H20 C7 1_555 1_555
H21 C7 1_555 1_555
C8 Sn3 1_555 1_555
H22 C8 1_555 1_555
H23 C8 1_555 1_555
H24 C8 1_555 1_555
C9 Sn3 1_555 1_555
H25 C9 1_555 1_555
H26 C9 1_555 1_555
H27 C9 1_555 1_555
Sn4 C10 1_555 1_555
C10 H28 1_555 1_555
H29 C10 1_555 1_555
H30 C10 1_555 1_555
C11 Sn4 1_555 1_555
H31 C11 1_555 1_555
H32 C11 1_555 1_555
H33 C11 1_555 1_555
C12 Sn4 1_555 1_555
H34 C12 1_555 1_555
H35 C12 1_555 1_555
H36 C12 1_555 1_555
Fe1 C13 1_555 1_555
C13 N1 1_555 1_555
N1 Sn1 1_555 1_555
C14 Fe1 1_555 1_555
N2 Sn3 1_555 1_555
C15 Fe1 1_555 1_555
N3 C15 1_555 1_555
C16 Fe1 1_555 1_555
N4 Sn4 1_555 1_555
C17 Fe1 1_555 1_555
N5 C17 1_555 1_555
C18 Fe1 1_555 1_555
N6 C18 1_555 1_555
Fe2 C19 1_555 1_555
C19 N7 1_555 1_555
N7 Sn1 1_555 1_555
C20 Fe2 1_555 1_555
N8 Sn2 1_555 1_555
C21 Fe2 1_555 1_555
N9 C21 1_555 1_555
C22 Fe2 1_555 1_555
N10 C22 1_555 1_555
C23 Fe2 1_555 1_555
N11 C23 1_555 1_555
C24 Fe2 1_555 1_555
N12 C24 1_555 1_555
N13 C25 1_555 1_555
C25 H37 1_555 1_555
H38 C25 1_555 1_555
C26 C25 1_555 1_555
H39 C26 1_555 1_555
H40 C26 1_555 1_555
C27 C26 1_555 1_555
H41 C27 1_555 1_555
H42 C27 1_555 1_555
C28 C27 1_555 1_555
H43 C28 1_555 1_555
H44 C28 1_555 1_555
C29 C28 1_555 1_555
H45 C29 1_555 1_555
H46 C29 1_555 1_555
H47 C29 1_555 1_555
C30 N13 1_555 1_555
H48 C30 1_555 1_555
H49 C30 1_555 1_555
C31 C30 1_555 1_555
H50 C31 1_555 1_555
H51 C31 1_555 1_555
C32 C31 1_555 1_555
H52 C32 1_555 1_555
H53 C32 1_555 1_555
C33 C32 1_555 1_555
C34 C33 1_555 1_555
H54 C34 1_555 1_555
H55 C34 1_555 1_555
H56 C34 1_555 1_555
C36 N13 1_555 1_555
H60 C36 1_555 1_555
H61 C36 1_555 1_555
C37 C36 1_555 1_555
H62 C37 1_555 1_555
H63 C37 1_555 1_555
C38 C37 1_555 1_555
H64 C38 1_555 1_555
H65 C38 1_555 1_555
C39 C38 1_555 1_555
H66 C39 1_555 1_555
H67 C39 1_555 1_555
C40 C39 1_555 1_555
H68 C40 1_555 1_555
H69 C40 1_555 1_555
H70 C40 1_555 1_555
C41 N13 1_555 1_555
H71 C41 1_555 1_555
H72 C41 1_555 1_555
C42 C41 1_555 1_555
H73 C42 1_555 1_555
H74 C42 1_555 1_555
C43 C42 1_555 1_555
H75 C43 1_555 1_555
H76 C43 1_555 1_555
C44 C43 1_555 1_555
H77 C44 1_555 1_555
H78 C44 1_555 1_555
C45 C44 1_555 1_555
H79 C45 1_555 1_555
H80 C45 1_555 1_555
H81 C45 1_555 1_555
N14 C46 1_555 1_555
C46 H82 1_555 1_555
H83 C46 1_555 1_555
C47 C46 1_555 1_555
H84 C47 1_555 1_555
H85 C47 1_555 1_555
C48 C47 1_555 1_555
H86 C48 1_555 1_555
H87 C48 1_555 1_555
C49 C48 1_555 1_555
H88 C49 1_555 1_555
H89 C49 1_555 1_555
C50 C49 1_555 1_555
H90 C50 1_555 1_555
H91 C50 1_555 1_555
H92 C50 1_555 1_555
C51 N14 1_555 1_555
H93 C51 1_555 1_555
H94 C51 1_555 1_555
C52 C51 1_555 1_555
H95 C52 1_555 1_555
H96 C52 1_555 1_555
C53 C52 1_555 1_555
H97 C53 1_555 1_555
H98 C53 1_555 1_555
C54 C53 1_555 1_555
C55 C54 1_555 1_555
H99 C55 1_555 1_555
H100 C55 1_555 1_555
H101 C55 1_555 1_555
C57 N14 1_555 1_555
H105 C57 1_555 1_555
H106 C57 1_555 1_555
C58 C57 1_555 1_555
H107 C58 1_555 1_555
H108 C58 1_555 1_555
C59 C58 1_555 1_555
H109 C59 1_555 1_555
H110 C59 1_555 1_555
C60 C59 1_555 1_555
H111 C60 1_555 1_555
H112 C60 1_555 1_555
C61 C60 1_555 1_555
H113 C61 1_555 1_555
H114 C61 1_555 1_555
H115 C61 1_555 1_555
C62 N14 1_555 1_555
H116 C62 1_555 1_555
H117 C62 1_555 1_555
C63 C62 1_555 1_555
H118 C63 1_555 1_555
H119 C63 1_555 1_555
C64 C63 1_555 1_555
H120 C64 1_555 1_555
H121 C64 1_555 1_555
C65 C64 1_555 1_555
H122 C65 1_555 1_555
H123 C65 1_555 1_555
C66 C65 1_555 1_555
H124 C66 1_555 1_555
H125 C66 1_555 1_555
H126 C66 1_555 1_555
N9C Sn2 1_555 1_555
N3C Sn3 1_555 1_555
N10A Sn4 1_555 1_555
Sn3C N3 1_555 1_555
Sn2C N9 1_555 1_555
Sn4A N10 1_555 1_555
C14 N2 1_555 1_555
C16 N4 1_555 1_555
C20 N8 1_555 1_555

#END
