
#######################################################################
#
#                 Cambridge Crystallographic Data Centre
#                                CCDC 
#
#######################################################################
#
# If this CIF has been generated from an entry in the Cambridge 
# Structural Database, then it will include bibliographic, chemical, 
# crystal, experimental, refinement or atomic coordinate data resulting 
# from the CCDC's data processing and validation procedures.
#
#######################################################################

data_BIHRER
_chemical_formula_moiety         '(C59 H64 Cl4 Cu2 N16 O33)n'
_symmetry_cell_setting           monoclinic
_symmetry_space_group_name_H-M   'P 21/n'
_symmetry_Int_Tables_number      14
_space_group_name_Hall           '-P 2yn'
loop_
_symmetry_equiv_pos_site_id
_symmetry_equiv_pos_as_xyz
1 x,y,z
2 1/2-x,1/2+y,1/2-z
3 -x,-y,-z
4 1/2+x,1/2-y,1/2+z
_cell_length_a                   12.32990(10)
_cell_length_b                   22.7467(3)
_cell_length_c                   26.7771(3)
_cell_angle_alpha                90
_cell_angle_beta                 101.1590(10)
_cell_angle_gamma                90
_cell_volume                     7368.04
loop_
_atom_site_label
_atom_site_type_symbol
_atom_site_fract_x
_atom_site_fract_y
_atom_site_fract_z
_atom_site_U_iso_or_equiv
_atom_site_thermal_displace_type
Cu1 Cu -0.03171(6) -0.14536(3) 1.29368(3) 0.0353 Uani
O1 O -0.2000(4) -0.1953(2) 1.26372(18) 0.0490 Uani
O2 O 0.1507(4) -0.09406(19) 1.31833(18) 0.0468 Uani
N1 N -0.0918(4) -0.0673(2) 1.26427(19) 0.0372 Uani
N2 N -0.0773(4) -0.1243(2) 1.36023(19) 0.0364 Uani
N3 N 0.4627(4) 0.2804(2) 1.17183(18) 0.0336 Uani
N4 N -0.0186(4) 0.1662(2) 0.77162(19) 0.0363 Uani
N5 N -0.2946(5) -0.1794(3) 1.2418(2) 0.0527 Uani
N6 N 0.2034(4) -0.0465(2) 1.3172(2) 0.0428 Uani
C1 C -0.1920(5) -0.0469(3) 1.2704(3) 0.0488 Uani
C2 C -0.0297(5) -0.0315(3) 1.2416(2) 0.0371 Uani
C3 C -0.0269(5) -0.0797(3) 1.3880(3) 0.0456 Uani
C4 C -0.1591(5) -0.1525(3) 1.3765(2) 0.0386 Uani
O3 O -0.3141(6) -0.1748(4) 1.1947(3) 0.1099 Uani
O4 O -0.3664(5) -0.1701(3) 1.2661(3) 0.0792 Uani
O5 O 0.2129(5) -0.0134(2) 1.3543(2) 0.0735 Uani
O6 O 0.2439(5) -0.0344(3) 1.2799(2) 0.0774 Uani
H1 H -0.2370 -0.0718 1.2864 0.0580 Uiso
C5 C -0.2310(6) 0.0073(3) 1.2549(3) 0.0546 Uani
C6 C -0.0625(5) 0.0245(2) 1.2260(2) 0.0363 Uani
H2 H 0.0397 -0.0454 1.2360 0.0440 Uiso
H3 H 0.0312 -0.0595 1.3766 0.0550 Uiso
C7 C -0.0564(5) -0.0621(3) 1.4324(3) 0.0466 Uani
C8 C -0.1961(5) -0.1363(3) 1.4206(2) 0.0384 Uani
H4 H -0.1935 -0.1848 1.3573 0.0460 Uiso
H5 H -0.3026 0.0194 1.2588 0.0650 Uiso
C9 C -0.1642(5) 0.0445(3) 1.2332(2) 0.0403 Uani
H6 H -0.0160 0.0490 1.2105 0.0430 Uiso
H7 H -0.0177 -0.0310 1.4518 0.0560 Uiso
C10 C -0.1431(5) -0.0900(3) 1.4490(2) 0.0381 Uani
H8 H -0.2558 -0.1564 1.4308 0.0460 Uiso
C11 C -0.2051(6) 0.1052(3) 1.2175(3) 0.0441 Uani
C12 C -0.1748(6) -0.0689(3) 1.4965(2) 0.0461 Uani
O7 O -0.2947(4) 0.1235(2) 1.2215(2) 0.0660 Uani
O8 O -0.1292(4) 0.13545(18) 1.20011(18) 0.0480 Uani
O9 O -0.1182(5) -0.0360(3) 1.5251(2) 0.0977 Uani
O10 O -0.2688(4) -0.0897(2) 1.50478(16) 0.0464 Uani
C13 C -0.1598(7) 0.1953(3) 1.1836(3) 0.0562 Uani
C14 C -0.2981(6) -0.0666(4) 1.5511(3) 0.0601 Uani
H9 H -0.1615 0.2208 1.2134 0.0680 Uiso
H10 H -0.2339 0.1957 1.1613 0.0680 Uiso
C15 C -0.0743(7) 0.2164(3) 1.1552(3) 0.0524 Uani
H11 H -0.2936 -0.0231 1.5514 0.0720 Uiso
H12 H -0.2464 -0.0818 1.5814 0.0720 Uiso
C16 C -0.4141(5) -0.0859(3) 1.5524(2) 0.0408 Uani
N7 N -0.0769(5) 0.1833(3) 1.1073(2) 0.0481 Uani
H13 H -0.0868 0.2586 1.1471 0.0630 Uiso
H14 H -0.0003 0.2123 1.1771 0.0630 Uiso
N8 N -0.4392(4) -0.0659(2) 1.60131(18) 0.0386 Uani
H15 H -0.4667 -0.0683 1.5236 0.0490 Uiso
H16 H -0.4201 -0.1293 1.5497 0.0490 Uiso
C17 C 0.0070(6) 0.1430(3) 1.1049(3) 0.0515 Uani
C18 C -0.1640(7) 0.1954(4) 1.0690(3) 0.0641 Uani
C19 C -0.4119(5) -0.1039(3) 1.6420(2) 0.0391 Uani
C20 C -0.4780(5) -0.0097(3) 1.6036(2) 0.0411 Uani
O11 O 0.0824(5) 0.1347(2) 1.1400(2) 0.0652 Uani
N9 N -0.0018(5) 0.1145(3) 1.0592(2) 0.0607 Uani
O12 O -0.2349(5) 0.2310(3) 1.0731(2) 0.0744 Uani
N10 N -0.1682(5) 0.1643(4) 1.0255(3) 0.0804 Uani
O13 O -0.3728(4) -0.1518(2) 1.63909(17) 0.0484 Uani
N11 N -0.4334(4) -0.0815(2) 1.68789(19) 0.0379 Uani
O14 O -0.4960(4) 0.0222(2) 1.56625(18) 0.0544 Uani
N12 N -0.4948(4) 0.0087(2) 1.6509(2) 0.0408 Uani
C21 C 0.0843(7) 0.0721(4) 1.0542(4) 0.0846 Uani
C22 C -0.0906(7) 0.1217(5) 1.0188(3) 0.0877 Uani
C23 C -0.2660(8) 0.1743(7) 0.9844(4) 0.1066 Uani
C24 C -0.4100(5) -0.1187(3) 1.7334(2) 0.0444 Uani
C25 C -0.4765(5) -0.0261(3) 1.6934(2) 0.0395 Uani
C26 C -0.5431(6) 0.0673(3) 1.6545(3) 0.0499 Uani
C27 C 0.1683(8) 0.0977(5) 1.0253(4) 0.0958 Uani
H17 H 0.0498 0.0369 1.0360 0.1020 Uiso
H18 H 0.1227 0.0597 1.0885 0.1020 Uiso
O15 O -0.0963(5) 0.0929(4) 0.9801(3) 0.1171 Uani
C28 C -0.2584(9) 0.2380(7) 0.9531(3) 0.1134 Uani
H19 H -0.3334 0.1747 0.9994 0.1280 Uiso
H20 H -0.2727 0.1414 0.9599 0.1280 Uiso
C29 C -0.2992(6) -0.1037(4) 1.7669(3) 0.0534 Uani
H21 H -0.4099 -0.1605 1.7230 0.0530 Uiso
H22 H -0.4693 -0.1135 1.7532 0.0530 Uiso
O16 O -0.4955(4) -0.0099(2) 1.73363(17) 0.0495 Uani
C30 C -0.4580(6) 0.1143(3) 1.6697(3) 0.0511 Uani
H23 H -0.5921 0.0659 1.6797 0.0600 Uiso
H24 H -0.5890 0.0776 1.6211 0.0600 Uiso
O17 O 0.2282(4) 0.1453(3) 1.0531(2) 0.0754 Uani
H25 H 0.2208 0.0666 1.0197 0.1150 Uiso
H26 H 0.1296 0.1120 0.9916 0.1150 Uiso
O18 O -0.2204(5) 0.2227(3) 0.9065(2) 0.0802 Uani
H27 H -0.3318 0.2571 0.9450 0.1360 Uiso
H28 H -0.2057 0.2653 0.9740 0.1360 Uiso
O19 O -0.2112(4) -0.1095(2) 1.73821(17) 0.0475 Uani
H29 H -0.3009 -0.0630 1.7796 0.0640 Uiso
H30 H -0.2849 -0.1305 1.7966 0.0640 Uiso
O20 O -0.3919(4) 0.1223(2) 1.63018(18) 0.0478 Uani
H31 H -0.4951 0.1517 1.6751 0.0610 Uiso
H32 H -0.4090 0.1033 1.7022 0.0610 Uiso
C31 C 0.3190(7) 0.1311(4) 1.0870(3) 0.0643 Uani
C32 C -0.1123(6) 0.2153(4) 0.9115(3) 0.0581 Uani
C33 C -0.1737(6) -0.1640(3) 1.7332(3) 0.0486 Uani
C34 C -0.4391(6) 0.1510(3) 1.5896(3) 0.0468 Uani
O21 O 0.3555(6) 0.0831(3) 1.0949(3) 0.1050 Uani
C35 C 0.3685(5) 0.1839(3) 1.1165(2) 0.0439 Uani
O22 O -0.0482(5) 0.2199(3) 0.9493(2) 0.0893 Uani
C36 C -0.0838(6) 0.1975(3) 0.8617(3) 0.0491 Uani
O23 O -0.1980(4) -0.2074(2) 1.75442(19) 0.0560 Uani
C37 C -0.0967(5) -0.1644(3) 1.6954(3) 0.0475 Uani
O24 O -0.5297(4) 0.1752(2) 1.5836(2) 0.0570 Uani
C38 C -0.3697(5) 0.1530(3) 1.5500(2) 0.0418 Uani
C39 C 0.3151(6) 0.2369(3) 1.1135(3) 0.0540 Uani
C40 C 0.4701(5) 0.1798(3) 1.1486(3) 0.0425 Uani
C41 C 0.0224(7) 0.1782(4) 0.8618(3) 0.0635 Uani
C42 C -0.1581(6) 0.1997(3) 0.8153(3) 0.0510 Uani
C43 C -0.0816(6) -0.1144(3) 1.6684(3) 0.0521 Uani
C44 C -0.0435(6) -0.2151(3) 1.6872(3) 0.0543 Uani
C45 C -0.3921(6) 0.1952(3) 1.5119(3) 0.0481 Uani
C46 C -0.2823(5) 0.1145(3) 1.5492(3) 0.0484 Uani
C47 C 0.3634(6) 0.2837(3) 1.1409(3) 0.0503 Uani
H33 H 0.2442 0.2411 1.0923 0.0650 Uiso
H34 H 0.5093 0.1436 1.1520 0.0510 Uiso
C48 C 0.5140(5) 0.2282(3) 1.1757(2) 0.0372 Uani
C49 C 0.0507(6) 0.1623(3) 0.8160(3) 0.0566 Uani
H35 H 0.0751 0.1758 0.8928 0.0760 Uiso
H36 H -0.2326 0.2115 0.8139 0.0610 Uiso
C50 C -0.1222(5) 0.1849(3) 0.7723(3) 0.0443 Uani
C51 C -0.0122(6) -0.1169(3) 1.6344(3) 0.0561 Uani
H37 H -0.1188 -0.0789 1.6733 0.0620 Uiso
H38 H -0.0525 -0.2500 1.7054 0.0650 Uiso
C52 C 0.0234(6) -0.2141(4) 1.6517(3) 0.0623 Uani
C53 C -0.3273(6) 0.1979(3) 1.4753(3) 0.0511 Uani
H39 H -0.4516 0.2220 1.5110 0.0580 Uiso
H40 H -0.2641 0.0850 1.5745 0.0580 Uiso
C54 C -0.2232(6) 0.1198(3) 1.5115(3) 0.0519 Uani
H41 H 0.3252 0.3202 1.1379 0.0600 Uiso
H42 H 0.5836 0.2247 1.1980 0.0440 Uiso
H43 H 0.1233 0.1479 0.8164 0.0680 Uiso
H44 H -0.1729 0.1877 0.7408 0.0530 Uiso
N13 N 0.0412(5) -0.1659(3) 1.6257(2) 0.0565 Uani
H45 H -0.0013 -0.0822 1.6162 0.0680 Uiso
H46 H 0.0590 -0.2496 1.6452 0.0750 Uiso
N14 N -0.2440(5) 0.1605(3) 1.4749(2) 0.0530 Uani
H47 H -0.3425 0.2271 1.4496 0.0610 Uiso
H48 H -0.1640 0.0932 1.5111 0.0620 Uiso
Cu2 Cu 0.15005(7) -0.16611(4) 1.57838(4) 0.0568 Uani
O25 O 0.2730(5) -0.2221(3) 1.6357(3) 0.0752 Uani
C55 C 0.3458(13) -0.1999(5) 1.6767(4) 0.1306 Uani
H49 H 0.3889 -0.2321 1.6950 0.1560 Uiso
H50 H 0.3958 -0.1720 1.6648 0.1560 Uiso
H51 H 0.3047 -0.1798 1.6995 0.1560 Uiso
O26 O 0.1570(5) -0.0778(4) 1.5851(3) 0.1103 Uani
N15 N 0.2487(5) -0.0603(3) 1.6096(3) 0.0776 Uani
O27 O 0.2611(6) -0.0071(3) 1.6214(4) 0.1368 Uani
O28 O 0.3338(7) -0.0919(4) 1.6180(5) 0.1117 Uani
O29 O 0.1005(6) -0.2459(3) 1.5529(3) 0.0881 Uani
O30 O 0.0058(7) -0.1983(5) 1.4927(5) 0.1745 Uani
N16 N 0.0412(7) -0.2480(4) 1.5086(3) 0.1047 Uani
O31 O 0.0234(7) -0.2967(4) 1.4863(4) 0.1350 Uani
H52 H 0.2632 -0.1973 1.6120 0.0900 Uiso
Cu1A Cu 0.53171(6) 0.35464(3) 1.20632(3) 0.0353 Uani
Cu1B Cu 0.03171(6) 0.14536(3) 0.70632(3) 0.0353 Uani
N3A N 0.0373(4) -0.2196(2) 1.32817(18) 0.0336 Uani
N4B N 0.0186(4) -0.1662(2) 1.22838(19) 0.0363 Uani
N14B N 0.2440(5) -0.1605(3) 1.5251(2) 0.0530 Uani
Cu2B Cu -0.15005(7) 0.16611(4) 1.42162(4) 0.0568 Uani
Cl1 Cl -0.7141(6) -0.0693(3) 0.9034(2) 0.2203 Uani
Cl2 Cl -0.6254(6) -0.0379(3) 1.0080(2) 0.2335 Uani
C56 C -0.6004(14) -0.0699(9) 0.9533(6) 0.1625 Uani
H53 H -0.5770 -0.1111 0.9607 0.1950 Uiso
H54 H -0.5386 -0.0490 0.9424 0.1950 Uiso
Cl3 Cl -0.3985(6) 0.1287(3) 0.8525(3) 0.1244 Uani
Cl4 Cl -0.4676(12) 0.0130(4) 0.8555(4) 0.1952 Uani
C57 C -0.3389(14) 0.0546(8) 0.8299(6) 0.1625 Uani
H55 H -0.2644 0.0440 0.8490 0.1950 Uiso
H56 H -0.3429 0.0519 0.7927 0.1950 Uiso
O32 O -0.2301(12) 0.3414(6) 1.4209(6) 0.1998 Uani
H57 H -0.1938 0.3205 1.4441 0.2400 Uiso
C58 C -0.1711(19) 0.3985(7) 1.4181(9) 0.2336 Uani
H58 H -0.1813 0.4237 1.4466 0.2800 Uiso
H59 H -0.2014 0.4181 1.3859 0.2800 Uiso
H60 H -0.0921 0.3910 1.4202 0.2800 Uiso
O33 O 0.009(2) 0.0303(11) 0.8949(13) 0.3428 Uani
H61 H -0.0159 -0.0023 0.9020 0.4110 Uiso
C59 C 0.142(2) 0.0258(11) 0.9016(9) 0.2483 Uani
H62 H 0.1683 0.0557 0.8804 0.2980 Uiso
H63 H 0.1622 -0.0133 0.8912 0.2980 Uiso
H64 H 0.1761 0.0324 0.9374 0.2980 Uiso
loop_
_atom_site_aniso_label
_atom_site_aniso_U_11
_atom_site_aniso_U_22
_atom_site_aniso_U_33
_atom_site_aniso_U_23
_atom_site_aniso_U_13
_atom_site_aniso_U_12
Cu1 0.0420(4) 0.0297(4) 0.0380(4) 0.0011(3) 0.0174(3) 0.0034(3)
O1 0.043(3) 0.047(3) 0.054(3) 0.004(2) 0.002(2) -0.001(2)
O2 0.042(2) 0.038(2) 0.060(3) -0.005(2) 0.009(2) -0.009(2)
N1 0.042(3) 0.032(3) 0.042(3) 0.006(2) 0.019(2) 0.007(2)
N2 0.039(3) 0.032(3) 0.041(3) -0.003(2) 0.015(2) -0.002(2)
N3 0.039 0.033 0.03 0.004 0.01 0.002
N4 0.039 0.033 0.039 0.001 0.013 0.003
N5 0.046(4) 0.059(4) 0.052(4) 0.013(3) 0.007(3) -0.005(3)
N6 0.042(3) 0.046(3) 0.040(3) -0.002(3) 0.007(2) -0.003(3)
C1 0.041(4) 0.042(4) 0.072(5) 0.010(3) 0.032(3) 0.006(3)
C2 0.037(3) 0.037(3) 0.041(3) -0.002(3) 0.017(3) 0.000(3)
C3 0.046(4) 0.047(4) 0.049(4) -0.007(3) 0.022(3) -0.011(3)
C4 0.049(4) 0.031(3) 0.038(3) -0.002(3) 0.014(3) -0.008(3)
O3 0.075(4) 0.179(8) 0.070(5) 0.021(5) 0.000(4) 0.019(5)
O4 0.066(4) 0.075(4) 0.106(5) 0.012(3) 0.040(4) 0.020(3)
O5 0.103(5) 0.047(3) 0.062(3) -0.017(3) -0.005(3) 0.006(3)
O6 0.058(3) 0.116(5) 0.063(4) 0.028(3) 0.024(3) -0.010(3)
C5 0.045(4) 0.051(4) 0.078(5) 0.013(4) 0.037(4) 0.011(3)
C6 0.042(3) 0.029(3) 0.042(3) 0.004(3) 0.018(3) 0.001(3)
C7 0.043(4) 0.053(4) 0.048(4) -0.018(3) 0.019(3) -0.020(3)
C8 0.043(3) 0.040(3) 0.036(3) -0.001(3) 0.017(3) -0.008(3)
C9 0.042(4) 0.036(3) 0.046(4) 0.001(3) 0.016(3) 0.005(3)
C10 0.039(3) 0.039(3) 0.039(3) -0.008(3) 0.014(3) -0.008(3)
C11 0.053(4) 0.039(3) 0.045(4) 0.004(3) 0.021(3) 0.004(3)
C12 0.049(4) 0.054(4) 0.039(4) -0.011(3) 0.018(3) -0.021(3)
O7 0.067(3) 0.053(3) 0.087(4) 0.021(3) 0.037(3) 0.027(3)
O8 0.062(3) 0.032(2) 0.054(3) 0.007(2) 0.021(2) 0.008(2)
O9 0.089(4) 0.149(6) 0.067(4) -0.060(4) 0.045(3) -0.076(4)
O10 0.047(3) 0.059(3) 0.038(2) -0.017(2) 0.020(2) -0.017(2)
C13 0.081(5) 0.035(4) 0.060(5) 0.010(3) 0.032(4) 0.015(3)
C14 0.062(5) 0.077(5) 0.051(4) -0.030(4) 0.035(4) -0.031(4)
C15 0.071(5) 0.032(3) 0.056(4) 0.008(3) 0.017(4) 0.004(3)
C16 0.043(3) 0.051(4) 0.030(3) -0.001(3) 0.011(3) -0.005(3)
N7 0.047(3) 0.051(3) 0.047(3) 0.009(3) 0.011(3) 0.005(3)
N8 0.043(3) 0.046(3) 0.030(3) 0.001(2) 0.015(2) -0.001(2)
C17 0.055(4) 0.045(4) 0.055(4) -0.005(3) 0.012(4) -0.002(3)
C18 0.054(5) 0.084(6) 0.060(5) 0.017(4) 0.025(4) 0.009(4)
C19 0.034(3) 0.046(4) 0.040(4) 0.001(3) 0.014(3) -0.009(3)
C20 0.040(3) 0.048(4) 0.037(4) 0.005(3) 0.012(3) -0.001(3)
O11 0.067(3) 0.061(3) 0.058(3) -0.017(3) -0.012(3) 0.015(3)
N9 0.043(3) 0.082(5) 0.054(4) -0.030(3) 0.002(3) -0.008(3)
O12 0.061(3) 0.091(4) 0.074(4) 0.024(3) 0.020(3) 0.021(3)
N10 0.044(4) 0.144(7) 0.053(4) -0.006(4) 0.009(3) 0.016(4)
O13 0.059(3) 0.044(3) 0.045(3) 0.000(2) 0.017(2) 0.006(2)
N11 0.036(3) 0.048(3) 0.033(3) 0.005(2) 0.015(2) 0.000(2)
O14 0.067(3) 0.056(3) 0.042(3) 0.008(2) 0.015(2) 0.010(2)
N12 0.040(3) 0.046(3) 0.040(3) -0.002(2) 0.017(2) 0.003(2)
C21 0.060(5) 0.083(6) 0.106(7) -0.061(6) 0.004(5) -0.008(5)
C22 0.053(5) 0.153(10) 0.058(6) -0.038(6) 0.013(4) -0.019(6)
C23 0.055(5) 0.212(14) 0.055(6) 0.008(7) 0.016(4) 0.014(7)
C24 0.047(4) 0.054(4) 0.035(3) 0.006(3) 0.015(3) -0.002(3)
C25 0.033(3) 0.050(4) 0.039(4) 0.003(3) 0.016(3) -0.007(3)
C26 0.046(4) 0.052(4) 0.059(4) 0.003(3) 0.028(3) 0.005(3)
C27 0.061(5) 0.141(9) 0.085(7) -0.071(7) 0.013(5) -0.013(6)
O15 0.069(4) 0.199(9) 0.081(5) -0.071(5) 0.009(4) -0.016(5)
C28 0.071(6) 0.227(15) 0.047(5) -0.030(7) 0.023(5) 0.024(8)
C29 0.055(4) 0.068(5) 0.041(4) 0.003(3) 0.019(3) 0.002(4)
O16 0.052(3) 0.063(3) 0.041(3) -0.008(2) 0.028(2) -0.007(2)
C30 0.062(4) 0.050(4) 0.048(4) 0.000(3) 0.027(3) 0.011(3)
O17 0.048(3) 0.113(5) 0.063(3) -0.042(3) 0.005(3) -0.005(3)
O18 0.068(4) 0.125(5) 0.054(3) -0.015(3) 0.028(3) 0.005(4)
O19 0.047(3) 0.056(3) 0.042(3) -0.001(2) 0.015(2) 0.001(2)
O20 0.044(3) 0.054(3) 0.048(3) -0.001(2) 0.015(2) 0.002(2)
C31 0.052(5) 0.067(6) 0.075(6) -0.029(4) 0.015(4) -0.003(4)
C32 0.052(4) 0.078(5) 0.047(4) -0.010(4) 0.016(4) -0.009(4)
C33 0.049(4) 0.060(4) 0.036(4) -0.004(3) 0.006(3) -0.009(3)
C34 0.042(4) 0.046(4) 0.054(4) -0.008(3) 0.013(3) -0.004(3)
O21 0.078(4) 0.072(4) 0.154(7) -0.065(5) -0.005(4) 0.004(4)
C35 0.045(4) 0.049(4) 0.038(4) -0.003(3) 0.009(3) -0.002(3)
O22 0.076(4) 0.140(6) 0.052(4) -0.033(4) 0.013(3) -0.001(4)
C36 0.058(4) 0.047(4) 0.045(4) -0.005(3) 0.017(3) -0.002(3)
O23 0.066(3) 0.056(3) 0.050(3) 0.001(2) 0.021(3) -0.007(3)
C37 0.041(4) 0.056(4) 0.045(4) -0.005(3) 0.007(3) -0.004(3)
O24 0.053(3) 0.057(3) 0.064(3) -0.002(3) 0.019(3) 0.008(2)
C38 0.036(3) 0.044(4) 0.043(4) -0.008(3) 0.002(3) -0.010(3)
C39 0.052(4) 0.051(4) 0.053(4) -0.001(3) -0.005(3) 0.010(3)
C40 0.042(4) 0.037(3) 0.050(4) -0.003(3) 0.013(3) 0.005(3)
C41 0.059(5) 0.088(6) 0.042(4) -0.009(4) 0.006(4) 0.000(4)
C42 0.050(4) 0.054(4) 0.051(4) -0.002(3) 0.015(3) 0.004(3)
C43 0.047(4) 0.050(4) 0.061(5) 0.004(3) 0.015(3) 0.003(3)
C44 0.057(4) 0.051(4) 0.058(5) 0.005(3) 0.019(4) -0.001(3)
C45 0.044(4) 0.049(4) 0.052(4) -0.002(3) 0.011(3) 0.002(3)
C46 0.044(4) 0.050(4) 0.052(4) -0.002(3) 0.011(3) 0.000(3)
C47 0.054(4) 0.039(4) 0.053(4) 0.002(3) -0.002(3) 0.009(3)
C48 0.039(3) 0.033(3) 0.041(3) 0.002(3) 0.011(3) -0.002(3)
C49 0.054(4) 0.064(5) 0.052(4) -0.006(4) 0.011(4) 0.008(4)
C50 0.043(4) 0.052(4) 0.039(4) -0.003(3) 0.011(3) 0.002(3)
C51 0.050(4) 0.053(4) 0.070(5) 0.015(4) 0.023(4) 0.011(3)
C52 0.059(5) 0.058(5) 0.075(5) 0.008(4) 0.026(4) 0.012(4)
C53 0.047(4) 0.056(4) 0.052(4) 0.006(3) 0.014(3) 0.004(3)
C54 0.045(4) 0.060(4) 0.053(4) 0.008(4) 0.015(3) 0.009(3)
N13 0.051(3) 0.058(4) 0.066(4) 0.016(3) 0.025(3) 0.003(3)
N14 0.048(3) 0.055(4) 0.059(4) 0.000(3) 0.018(3) -0.003(3)
Cu2 0.05 0.061 0.065 0.0019 0.0254 -0.0012
O25 0.075 0.061 0.094 0.018 0.027 -0.005
C55 0.229 0.09 0.054 -0.001 -0.019 -0.008
O26 0.063 0.131 0.148 -0.063 0.048 -0.031
N15 0.068 0.065 0.105 -0.018 0.03 -0.029
O27 0.079 0.09 0.227 -0.02 -0.006 -0.017
O28 0.064 0.054 0.191 0.019 -0.04 0.003
O29 0.101 0.087 0.086 -0.018 0.042 -0.034
O30 0.074 0.157 0.269 0.034 -0.025 0
N16 0.057 0.119 0.139 -0.019 0.021 -0.032
O31 0.11 0.156 0.144 -0.074 0.037 -0.06
Cu1A 0.042 0.0297 0.038 -0.0011 0.0174 -0.0034
Cu1B 0.042 0.0297 0.038 0.0011 0.0174 0.0034
N3A 0.039 0.033 0.03 -0.004 0.01 -0.002
N4B 0.039 0.033 0.039 0.001 0.013 0.003
N14B 0.048 0.055 0.059 0 0.018 -0.003
Cu2B 0.05 0.061 0.065 0.0019 0.0254 -0.0012
Cl1 0.308(8) 0.192(5) 0.146(4) -0.017(4) 0.007(5) -0.068(5)
Cl2 0.282(8) 0.251(7) 0.168(5) -0.022(5) 0.045(5) 0.007(6)
C56 0.158(10) 0.212(13) 0.122(9) -0.017(9) 0.038(8) 0.001(10)
Cl3 0.121(5) 0.123(6) 0.116(6) 0.017(4) -0.010(4) -0.006(4)
Cl4 0.321(15) 0.130(7) 0.140(7) -0.002(6) 0.058(8) -0.003(8)
C57 0.158(10) 0.212(13) 0.122(9) -0.017(9) 0.038(8) 0.001(10)
O32 0.179(12) 0.181(13) 0.219(16) 0.022(10) -0.012(10) -0.045(10)
C58 0.237(13) 0.227(13) 0.241(13) -0.010(8) 0.057(9) -0.019(9)
O33 0.355(13) 0.341(13) 0.336(13) -0.006(8) 0.076(8) -0.004(8)
C59 0.256(14) 0.257(14) 0.228(14) -0.030(10) 0.037(10) 0.008(10)
loop_
_geom_bond_atom_site_label_1
_geom_bond_atom_site_label_2
_geom_bond_site_symmetry_1
_geom_bond_site_symmetry_2
Cu1 O1 1_555 1_555
O1 N5 1_555 1_555
O2 Cu1 1_555 1_555
N1 Cu1 1_555 1_555
N2 Cu1 1_555 1_555
N3 C47 1_555 1_555
N4 C49 1_555 1_555
N5 O3 1_555 1_555
N6 O2 1_555 1_555
C1 N1 1_555 1_555
C2 N1 1_555 1_555
C3 N2 1_555 1_555
C4 N2 1_555 1_555
O4 N5 1_555 1_555
O5 N6 1_555 1_555
O6 N6 1_555 1_555
H1 C1 1_555 1_555
C5 C1 1_555 1_555
C6 C2 1_555 1_555
H2 C2 1_555 1_555
H3 C3 1_555 1_555
C7 C3 1_555 1_555
C8 C4 1_555 1_555
H4 C4 1_555 1_555
H5 C5 1_555 1_555
C9 C5 1_555 1_555
H6 C6 1_555 1_555
H7 C7 1_555 1_555
C10 C7 1_555 1_555
H8 C8 1_555 1_555
C11 C9 1_555 1_555
C12 C10 1_555 1_555
O7 C11 1_555 1_555
O8 C11 1_555 1_555
O9 C12 1_555 1_555
O10 C12 1_555 1_555
C13 O8 1_555 1_555
C14 O10 1_555 1_555
H9 C13 1_555 1_555
H10 C13 1_555 1_555
C15 C13 1_555 1_555
H11 C14 1_555 1_555
H12 C14 1_555 1_555
C16 C14 1_555 1_555
N7 C15 1_555 1_555
H13 C15 1_555 1_555
H14 C15 1_555 1_555
N8 C16 1_555 1_555
H15 C16 1_555 1_555
H16 C16 1_555 1_555
C17 N7 1_555 1_555
C18 N7 1_555 1_555
C19 N8 1_555 1_555
C20 N8 1_555 1_555
O11 C17 1_555 1_555
N9 C17 1_555 1_555
O12 C18 1_555 1_555
N10 C18 1_555 1_555
O13 C19 1_555 1_555
N11 C19 1_555 1_555
O14 C20 1_555 1_555
N12 C20 1_555 1_555
C21 N9 1_555 1_555
C22 N9 1_555 1_555
C23 N10 1_555 1_555
C24 N11 1_555 1_555
C25 N11 1_555 1_555
C26 N12 1_555 1_555
C27 C21 1_555 1_555
H17 C21 1_555 1_555
H18 C21 1_555 1_555
O15 C22 1_555 1_555
C28 C23 1_555 1_555
H19 C23 1_555 1_555
H20 C23 1_555 1_555
C29 C24 1_555 1_555
H21 C24 1_555 1_555
H22 C24 1_555 1_555
O16 C25 1_555 1_555
C30 C26 1_555 1_555
H23 C26 1_555 1_555
H24 C26 1_555 1_555
O17 C27 1_555 1_555
H25 C27 1_555 1_555
H26 C27 1_555 1_555
O18 C28 1_555 1_555
H27 C28 1_555 1_555
H28 C28 1_555 1_555
O19 C29 1_555 1_555
H29 C29 1_555 1_555
H30 C29 1_555 1_555
O20 C30 1_555 1_555
H31 C30 1_555 1_555
H32 C30 1_555 1_555
C31 O17 1_555 1_555
C32 O18 1_555 1_555
C33 O19 1_555 1_555
C34 O20 1_555 1_555
O21 C31 1_555 1_555
C35 C31 1_555 1_555
O22 C32 1_555 1_555
C36 C32 1_555 1_555
O23 C33 1_555 1_555
C37 C33 1_555 1_555
O24 C34 1_555 1_555
C38 C34 1_555 1_555
C39 C35 1_555 1_555
C40 C35 1_555 1_555
C41 C36 1_555 1_555
C42 C36 1_555 1_555
C43 C37 1_555 1_555
C44 C37 1_555 1_555
C45 C38 1_555 1_555
C46 C38 1_555 1_555
C47 C39 1_555 1_555
H33 C39 1_555 1_555
H34 C40 1_555 1_555
C48 N3 1_555 1_555
C49 C41 1_555 1_555
H35 C41 1_555 1_555
H36 C42 1_555 1_555
C50 N4 1_555 1_555
C51 C43 1_555 1_555
H37 C43 1_555 1_555
H38 C44 1_555 1_555
C52 C44 1_555 1_555
C53 C45 1_555 1_555
H39 C45 1_555 1_555
H40 C46 1_555 1_555
C54 C46 1_555 1_555
H41 C47 1_555 1_555
H42 C48 1_555 1_555
H43 C49 1_555 1_555
H44 C50 1_555 1_555
N13 C51 1_555 1_555
H45 C51 1_555 1_555
H46 C52 1_555 1_555
N14 C53 1_555 1_555
H47 C53 1_555 1_555
H48 C54 1_555 1_555
Cu2 N13 1_555 1_555
O25 Cu2 1_555 1_555
C55 O25 1_555 1_555
H49 C55 1_555 1_555
H50 C55 1_555 1_555
H51 C55 1_555 1_555
O26 Cu2 1_555 1_555
N15 O26 1_555 1_555
O27 N15 1_555 1_555
O28 N15 1_555 1_555
O29 Cu2 1_555 1_555
O30 Cu2 1_555 1_555
N16 O29 1_555 1_555
O31 N16 1_555 1_555
H52 O25 1_555 1_555
Cl1 C56 1_555 1_555
Cl2 C56 1_555 1_555
C56 H53 1_555 1_555
H54 C56 1_555 1_555
Cl3 C57 1_555 1_555
Cl4 C57 1_555 1_555
C57 H55 1_555 1_555
H56 C57 1_555 1_555
O32 H57 1_555 1_555
C58 O32 1_555 1_555
H58 C58 1_555 1_555
H59 C58 1_555 1_555
H60 C58 1_555 1_555
O33 H61 1_555 1_555
C59 O33 1_555 1_555
H62 C59 1_555 1_555
H63 C59 1_555 1_555
H64 C59 1_555 1_555
Cu1A N3 1_555 1_555
Cu1B N4 1_555 1_555
N3A Cu1 1_555 1_555
N4B Cu1 1_555 1_555
N14B Cu2 1_555 1_555
Cu2B N14 1_555 1_555
C6 C9 1_555 1_555
C8 C10 1_555 1_555
N10 C22 1_555 1_555
N12 C25 1_555 1_555
C40 C48 1_555 1_555
C42 C50 1_555 1_555
C52 N13 1_555 1_555
C54 N14 1_555 1_555
O30 N16 1_555 1_555

#END
