
#######################################################################
#
#                 Cambridge Crystallographic Data Centre
#                                CCDC 
#
#######################################################################
#
# If this CIF has been generated from an entry in the Cambridge 
# Structural Database, then it will include bibliographic, chemical, 
# crystal, experimental, refinement or atomic coordinate data resulting 
# from the CCDC's data processing and validation procedures.
#
#######################################################################

data_PUMGIP01
_chemical_formula_moiety         '(C104 H100 Cd2 N8 O14 V2)n'
_symmetry_cell_setting           orthorhombic
_symmetry_space_group_name_H-M   'P 2 2 21'
_symmetry_Int_Tables_number      17
_space_group_name_Hall           'P 2c 2'
loop_
_symmetry_equiv_pos_site_id
_symmetry_equiv_pos_as_xyz
1 x,y,z
2 -x,-y,1/2+z
3 x,-y,-z
4 -x,y,1/2-z
_cell_length_a                   17.0460(5)
_cell_length_b                   24.0462(6)
_cell_length_c                   28.8442(6)
_cell_angle_alpha                90
_cell_angle_beta                 90
_cell_angle_gamma                90
_cell_volume                     11823
loop_
_atom_site_label
_atom_site_type_symbol
_atom_site_fract_x
_atom_site_fract_y
_atom_site_fract_z
Cd1 Cd 0.59146(3) 0.59846(2) 0.70902(2)
Cd2 Cd 0.90933(3) 0.67107(2) 0.20919(2)
O1 O 0.5807(5) 1.1541(2) 0.6733(3)
O2 O 0.5943(5) 1.0412(2) 0.6730(2)
O3 O 0.7141(3) 0.6207(2) 0.66347(19)
O4 O 0.5996(4) 0.6034(3) 0.62933(18)
O5 O 0.8288(3) 0.6744(2) 0.27286(19)
O6 O 0.4550(3) 0.5929(3) 0.7034(2)
O7 O 0.3323(3) 0.5987(3) 0.7259(2)
O8 O 0.8841(4) 0.2254(2) 0.1900(3)
O9 O 0.9005(4) 0.1160(2) 0.1910(3)
O10 O 0.0942(4) 0.6682(3) 0.3712(2)
O11 O 0.2121(4) 0.6758(3) 0.3400(2)
O12 O 0.9527(3) 0.6662(2) 0.2954(2)
N1 N 0.6337(6) 1.1524(3) 0.7646(3)
N2 N 0.6565(5) 1.0449(3) 0.7617(4)
N3 N 0.5719(4) 0.6931(3) 0.7094(3)
N4 N 0.5861(5) 1.5043(3) 0.7040(3)
N5 N 0.9197(4) -0.2340(2) 0.2095(3)
N6 N 0.9069(4) 0.5748(2) 0.2131(3)
N7 N 0.8173(6) 0.2225(3) 0.2751(3)
N8 N 0.8507(5) 0.1153(3) 0.2812(3)
C1 C 0.5822(6) 1.2090(4) 0.6771(4)
C2 C 0.5661(6) 1.2433(4) 0.6384(4)
C3 C 0.5648(6) 1.3005(4) 0.6450(4)
H1 H 0.5525 1.3234 0.6192
C4 C 0.5804(6) 1.3260(4) 0.6872(4)
C5 C 0.5998(7) 1.2932(4) 0.7242(4)
H2 H 0.6124 1.3099 0.7531
C6 C 0.6011(7) 1.2344(4) 0.7199(4)
C7 C 0.5517(6) 1.2175(4) 0.5911(4)
C8 C 0.4804(7) 1.1785(5) 0.5918(5)
H3 H 0.4876 1.1504 0.6160
H4 H 0.4753 1.1602 0.5616
H5 H 0.4329 1.2001 0.5983
C9 C 0.5345(7) 1.2616(5) 0.5524(4)
H6 H 0.4801 1.2743 0.5550
H7 H 0.5426 1.2447 0.5218
H8 H 0.5700 1.2933 0.5561
C10 C 0.6278(8) 1.1844(5) 0.5751(5)
H9 H 0.6717 1.2105 0.5715
H10 H 0.6176 1.1661 0.5454
H11 H 0.6412 1.1564 0.5984
C11 C 0.5800(6) 1.3881(4) 0.6924(3)
C12 C 0.5469(9) 1.4225(4) 0.6630(5)
H12 H 0.5204 1.4073 0.6369
C13 C 0.6181(9) 1.4135(5) 0.7302(5)
H13 H 0.6418 1.3915 0.7537
C14 C 0.6226(7) 1.2055(4) 0.7618(4)
H14 H 0.6290 1.2269 0.7892
C15 C 0.6510(6) 1.1261(4) 0.8108(4)
H15 H 0.6000 1.1148 0.8251
C16 C 0.6952(7) 1.1621(5) 0.8456(4)
H16 H 0.6640 1.1956 0.8532
H17 H 0.7459 1.1741 0.8322
C17 C 0.7091(7) 1.1274(5) 0.8893(4)
H18 H 0.7382 1.1501 0.9122
H19 H 0.6580 1.1172 0.9031
C18 C 0.7549(7) 1.0753(5) 0.8791(4)
H20 H 0.7615 1.0536 0.9080
H21 H 0.8077 1.0854 0.8676
C19 C 0.7135(7) 1.0401(4) 0.8434(4)
H22 H 0.6631 1.0267 0.8562
H23 H 0.7462 1.0073 0.8360
C20 C 0.6982(6) 1.0729(4) 0.7996(3)
H24 H 0.7503 1.0849 0.7872
C21 C 0.6427(6) 0.9935(4) 0.7609(4)
H25 H 0.6560 0.9730 0.7879
C22 C 0.6088(5) 0.9628(3) 0.7233(3)
C23 C 0.5986(6) 0.9046(3) 0.7298(3)
H26 H 0.6100 0.8888 0.7592
C24 C 0.5730(5) 0.8708(3) 0.6948(3)
C25 C 0.5573(5) 0.8956(4) 0.6514(3)
H27 H 0.5386 0.8728 0.6269
C26 C 0.5681(6) 0.9523(4) 0.6431(4)
C27 C 0.5908(6) 0.9865(3) 0.6803(3)
C28 C 0.5559(7) 0.9764(4) 0.5940(4)
C29 C 0.6330(7) 1.0065(4) 0.5776(4)
H28 H 0.6780 0.9817 0.5820
H29 H 0.6407 1.0405 0.5959
H30 H 0.6284 1.0162 0.5447
C30 C 0.5381(8) 0.9298(5) 0.5578(4)
H31 H 0.5745 0.8987 0.5624
H32 H 0.5445 0.9447 0.5264
H33 H 0.4841 0.9166 0.5619
C31 C 0.4869(8) 1.0160(4) 0.5934(4)
H34 H 0.4876 1.0375 0.5646
H35 H 0.4905 1.0413 0.6200
H36 H 0.4379 0.9947 0.5954
C32 C 0.5681(5) 0.8101(3) 0.7012(3)
C33 C 0.6030(6) 0.7836(4) 0.7387(3)
H37 H 0.6256 0.8053 0.7628
C34 C 0.6056(5) 0.7264(3) 0.7417(3)
H38 H 0.6319 0.7097 0.7672
C35 C 0.5361(5) 0.7178(4) 0.6739(3)
H39 H 0.5118 0.6949 0.6511
C36 C 0.5323(5) 0.7752(4) 0.6681(3)
H40 H 0.5058 0.7907 0.6422
C37 C 0.6208(10) 1.4710(5) 0.7327(4)
H41 H 0.6502 1.4872 0.7572
C38 C 0.5486(9) 1.4803(4) 0.6680(5)
H42 H 0.5229 1.5030 0.6458
C39 C 0.6718(5) 0.6179(3) 0.6285(3)
C40 C 0.7051(5) 0.6299(3) 0.5815(3)
C41 C 0.6571(5) 0.6238(4) 0.5421(3)
H43 H 0.6037 0.6133 0.5458
C42 C 0.6868(5) 0.6330(4) 0.4981(3)
H44 H 0.6534 0.6288 0.4719
C43 C 0.7662(5) 0.6483(4) 0.4915(3)
C44 C 0.8144(5) 0.6544(4) 0.5316(3)
H45 H 0.8678 0.6650 0.5285
C45 C 0.7825(5) 0.6445(4) 0.5754(3)
H46 H 0.8152 0.6481 0.6018
C46 C 0.7981(5) 0.6561(3) 0.4441(3)
C47 C 0.7500(5) 0.6736(4) 0.4092(3)
H47 H 0.6971 0.6831 0.4160
C48 C 0.7771(5) 0.6778(4) 0.3638(3)
H48 H 0.7424 0.6884 0.3396
C49 C 0.8541(5) 0.6665(3) 0.3541(3)
C50 C 0.9053(6) 0.6509(3) 0.3889(3)
H49 H 0.9589 0.6436 0.3821
C51 C 0.8773(5) 0.6463(4) 0.4338(3)
H50 H 0.9123 0.6363 0.4580
C52 C 0.8797(5) 0.6693(3) 0.3041(3)
C53 C 0.3840(4) 0.5996(3) 0.6951(3)
C54 C 0.3563(5) 0.6111(3) 0.6465(3)
C55 C 0.2776(5) 0.6238(4) 0.6396(3)
H51 H 0.2428 0.6260 0.6653
C56 C 0.2500(6) 0.6333(4) 0.5952(3)
H52 H 0.1957 0.6402 0.5905
C57 C 0.3000(5) 0.6330(4) 0.5572(3)
C58 C 0.3791(5) 0.6220(4) 0.5644(3)
H53 H 0.4147 0.6219 0.5391
C59 C 0.4061(5) 0.6109(4) 0.6095(3)
H54 H 0.4601 0.6031 0.6144
C60 C 0.2668(5) 0.6430(4) 0.5094(3)
C61 C 0.1921(5) 0.6258(4) 0.4988(3)
H55 H 0.1622 0.6063 0.5213
C62 C 0.1599(6) 0.6365(4) 0.4559(3)
H56 H 0.1074 0.6255 0.4496
C63 C 0.2030(6) 0.6629(4) 0.4220(3)
C64 C 0.2794(7) 0.6790(5) 0.4322(4)
H57 H 0.3115 0.6945 0.4086
C65 C 0.3087(7) 0.6724(6) 0.4763(4)
H58 H 0.3581 0.6882 0.4841
C66 C 0.9187(6) -0.0547(3) 0.2036(4)
C67 C 0.9234(5) -0.1167(3) 0.2067(4)
C68 C 0.8805(6) -0.1454(3) 0.2396(3)
H59 H 0.8510 -0.1256 0.2621
C69 C 0.8804(6) -0.2038(3) 0.2399(3)
H60 H 0.8507 -0.2224 0.2631
C70 C 0.9617(6) -0.2068(4) 0.1782(4)
H61 H 0.9919 -0.2279 0.1569
C71 C 0.9641(6) -0.1488(4) 0.1746(4)
H62 H 0.9932 -0.1315 0.1505
C72 C 0.8506(5) 0.5465(3) 0.2348(3)
H63 H 0.8115 0.5664 0.2513
C73 C 0.8473(5) 0.4885(3) 0.2340(4)
H64 H 0.8059 0.4699 0.2495
C74 C 0.9024(5) 0.4585(3) 0.2113(3)
C75 C 0.9621(5) 0.4876(3) 0.1906(3)
H65 H 1.0035 0.4680 0.1757
C76 C 0.9626(5) 0.5460(3) 0.1912(3)
H66 H 1.0035 0.5654 0.1758
C77 C 0.8959(5) 0.3973(3) 0.2074(3)
C78 C 0.8619(5) 0.3648(3) 0.2404(3)
H67 H 0.8410 0.3816 0.2675
C79 C 0.8572(5) 0.3062(3) 0.2349(3)
C80 C 0.8860(5) 0.2797(3) 0.1954(3)
C81 C 0.9216(5) 0.3136(3) 0.1599(4)
C82 C 0.9261(4) 0.3706(3) 0.1679(3)
H68 H 0.9513 0.3930 0.1451
C83 C 0.9579(5) 0.2865(4) 0.1169(4)
C84 C 0.8988(6) 0.2495(3) 0.0904(4)
H69 H 0.8840 0.2178 0.1098
H70 H 0.9231 0.2360 0.0617
H71 H 0.8519 0.2713 0.0828
C85 C 1.0276(6) 0.2517(4) 0.1320(4)
H72 H 1.0687 0.2761 0.1442
H73 H 1.0480 0.2310 0.1054
H74 H 1.0110 0.2256 0.1562
C86 C 0.9877(6) 0.3307(4) 0.0823(4)
H75 H 0.9493 0.3609 0.0800
H76 H 0.9947 0.3136 0.0517
H77 H 1.0379 0.3456 0.0931
C87 C 0.8197(5) 0.2753(3) 0.2730(3)
H78 H 0.7962 0.2959 0.2974
C88 C 0.7771(6) 0.1926(3) 0.3143(3)
H79 H 0.7267 0.1775 0.3019
C89 C 0.7572(5) 0.2271(3) 0.3562(4)
H80 H 0.7193 0.2564 0.3474
H81 H 0.8053 0.2454 0.3680
C90 C 0.7211(6) 0.1895(4) 0.3949(4)
H82 H 0.7152 0.2117 0.4236
H83 H 0.6682 0.1773 0.3851
C91 C 0.7705(6) 0.1389(4) 0.4052(4)
H84 H 0.7430 0.1151 0.4280
H85 H 0.8209 0.1507 0.4191
C92 C 0.7866(6) 0.1052(4) 0.3605(3)
H86 H 0.8182 0.0718 0.3679
H87 H 0.7363 0.0928 0.3467
C93 C 0.8307(7) 0.1417(4) 0.3262(3)
H88 H 0.8799 0.1555 0.3412
C94 C 0.8666(6) 0.0640(3) 0.2796(3)
H89 H 0.8624 0.0430 0.3074
C95 C 0.8910(5) 0.0354(3) 0.2378(4)
C96 C 0.8972(6) -0.0232(3) 0.2411(4)
H90 H 0.8863 -0.0410 0.2698
C97 C 0.9315(5) -0.0288(3) 0.1614(4)
H91 H 0.9460 -0.0509 0.1355
C98 C 0.9241(5) 0.0285(3) 0.1556(3)
C99 C 0.9056(6) 0.0611(3) 0.1939(3)
C100 C 0.9312(6) 0.0549(4) 0.1065(3)
C101 C 0.8548(6) 0.0843(4) 0.0941(4)
H92 H 0.8108 0.0586 0.0982
H93 H 0.8569 0.0966 0.0617
H94 H 0.8477 0.1166 0.1144
C102 C 0.9493(8) 0.0119(4) 0.0672(4)
H95 H 0.9935 -0.0117 0.0766
H96 H 0.9628 0.0317 0.0386
H97 H 0.9030 -0.0114 0.0618
C103 C 0.9989(6) 0.0975(4) 0.1047(5)
H98 H 0.9869 0.1289 0.1252
H99 H 1.0052 0.1110 0.0729
H100 H 1.0476 0.0796 0.1149
C104 C 0.1685(6) 0.6701(4) 0.3739(3)
V1 V 0.64455(17) 1.10030(10) 0.70571(12)
V2 V 0.83193(14) 0.16517(8) 0.22345(9)
O13 O 0.7322(5) 1.1084(4) 0.6870(4)
O14 O 0.7450(5) 0.1527(3) 0.2029(3)
Cd1_2 Cd 0.59146(3) 1.59846(2) 0.70902(2)
Cd1C Cd 0.40854(3) 0.59846(2) 0.79098(2)
Cd2_2 Cd 0.90933(3) -0.32893(2) 0.20919(2)
Cd2C Cd 0.09067(3) 0.67107(2) 0.29081(2)
Cd2C_2 Cd 1.09067(3) 0.67107(2) 0.29081(2)
O6C O 0.5450(3) 0.5929(3) 0.7966(2)
O7C O 0.6677(3) 0.5987(3) 0.7741(2)
O10C O 0.9058(4) 0.6682(3) 0.1288(2)
O11C O 0.7879(4) 0.6758(3) 0.1600(2)
O12C O 1.0473(3) 0.6662(2) 0.2046(2)
N4_2 N 0.5861(5) 0.5043(3) 0.7040(3)
N5_2 N 0.9197(4) 0.7660(2) 0.2095(3)
loop_
_geom_bond_atom_site_label_1
_geom_bond_atom_site_label_2
_geom_bond_site_symmetry_1
_geom_bond_site_symmetry_2
Cd1 O3 1_555 1_555
Cd2 O5 1_555 1_555
O1 C1 1_555 1_555
O2 C27 1_555 1_555
O3 C39 1_555 1_555
O4 Cd1 1_555 1_555
O5 C52 1_555 1_555
O6 Cd1 1_555 1_555
O7 C53 1_555 1_555
O8 C80 1_555 1_555
O9 C99 1_555 1_555
O10 C104 1_555 1_555
O11 C104 1_555 1_555
O12 Cd2 1_555 1_555
N1 C14 1_555 1_555
N2 C20 1_555 1_555
N3 Cd1 1_555 1_555
N4 C37 1_555 1_555
N5 C69 1_555 1_555
N6 Cd2 1_555 1_555
N7 C87 1_555 1_555
N8 C93 1_555 1_555
C1 C2 1_555 1_555
C2 C3 1_555 1_555
C3 H1 1_555 1_555
C4 C3 1_555 1_555
C5 C4 1_555 1_555
H2 C5 1_555 1_555
C6 C1 1_555 1_555
C7 C2 1_555 1_555
C8 C7 1_555 1_555
H3 C8 1_555 1_555
H4 C8 1_555 1_555
H5 C8 1_555 1_555
C9 C7 1_555 1_555
H6 C9 1_555 1_555
H7 C9 1_555 1_555
H8 C9 1_555 1_555
C10 C7 1_555 1_555
H9 C10 1_555 1_555
H10 C10 1_555 1_555
H11 C10 1_555 1_555
C11 C4 1_555 1_555
C12 C11 1_555 1_555
H12 C12 1_555 1_555
C13 C11 1_555 1_555
H13 C13 1_555 1_555
C14 C6 1_555 1_555
H14 C14 1_555 1_555
C15 N1 1_555 1_555
H15 C15 1_555 1_555
C16 C15 1_555 1_555
H16 C16 1_555 1_555
H17 C16 1_555 1_555
C17 C16 1_555 1_555
H18 C17 1_555 1_555
H19 C17 1_555 1_555
C18 C17 1_555 1_555
H20 C18 1_555 1_555
H21 C18 1_555 1_555
C19 C18 1_555 1_555
H22 C19 1_555 1_555
H23 C19 1_555 1_555
C20 C15 1_555 1_555
H24 C20 1_555 1_555
C21 N2 1_555 1_555
H25 C21 1_555 1_555
C22 C21 1_555 1_555
C23 C22 1_555 1_555
H26 C23 1_555 1_555
C24 C23 1_555 1_555
C25 C24 1_555 1_555
H27 C25 1_555 1_555
C26 C25 1_555 1_555
C27 C22 1_555 1_555
C28 C26 1_555 1_555
C29 C28 1_555 1_555
H28 C29 1_555 1_555
H29 C29 1_555 1_555
H30 C29 1_555 1_555
C30 C28 1_555 1_555
H31 C30 1_555 1_555
H32 C30 1_555 1_555
H33 C30 1_555 1_555
C31 C28 1_555 1_555
H34 C31 1_555 1_555
H35 C31 1_555 1_555
H36 C31 1_555 1_555
C32 C24 1_555 1_555
C33 C32 1_555 1_555
H37 C33 1_555 1_555
C34 N3 1_555 1_555
H38 C34 1_555 1_555
C35 N3 1_555 1_555
H39 C35 1_555 1_555
C36 C32 1_555 1_555
H40 C36 1_555 1_555
C37 C13 1_555 1_555
H41 C37 1_555 1_555
C38 N4 1_555 1_555
H42 C38 1_555 1_555
C39 O4 1_555 1_555
C40 C39 1_555 1_555
C41 C40 1_555 1_555
H43 C41 1_555 1_555
C42 C41 1_555 1_555
H44 C42 1_555 1_555
C43 C42 1_555 1_555
C44 C43 1_555 1_555
H45 C44 1_555 1_555
C45 C40 1_555 1_555
H46 C45 1_555 1_555
C46 C43 1_555 1_555
C47 C46 1_555 1_555
H47 C47 1_555 1_555
C48 C47 1_555 1_555
H48 C48 1_555 1_555
C49 C48 1_555 1_555
C50 C49 1_555 1_555
H49 C50 1_555 1_555
C51 C46 1_555 1_555
H50 C51 1_555 1_555
C52 O12 1_555 1_555
C53 O6 1_555 1_555
C54 C53 1_555 1_555
C55 C54 1_555 1_555
H51 C55 1_555 1_555
C56 C55 1_555 1_555
H52 C56 1_555 1_555
C57 C56 1_555 1_555
C58 C57 1_555 1_555
H53 C58 1_555 1_555
C59 C54 1_555 1_555
H54 C59 1_555 1_555
C60 C57 1_555 1_555
C61 C60 1_555 1_555
H55 C61 1_555 1_555
C62 C61 1_555 1_555
H56 C62 1_555 1_555
C63 C62 1_555 1_555
C64 C63 1_555 1_555
H57 C64 1_555 1_555
C65 C60 1_555 1_555
H58 C65 1_555 1_555
C66 C67 1_555 1_555
C67 C68 1_555 1_555
C68 H59 1_555 1_555
C69 C68 1_555 1_555
H60 C69 1_555 1_555
C70 N5 1_555 1_555
H61 C70 1_555 1_555
C71 C67 1_555 1_555
H62 C71 1_555 1_555
C72 N6 1_555 1_555
H63 C72 1_555 1_555
C73 C72 1_555 1_555
H64 C73 1_555 1_555
C74 C73 1_555 1_555
C75 C74 1_555 1_555
H65 C75 1_555 1_555
C76 N6 1_555 1_555
H66 C76 1_555 1_555
C77 C74 1_555 1_555
C78 C77 1_555 1_555
H67 C78 1_555 1_555
C79 C78 1_555 1_555
C80 C79 1_555 1_555
C81 C80 1_555 1_555
C82 C77 1_555 1_555
H68 C82 1_555 1_555
C83 C81 1_555 1_555
C84 C83 1_555 1_555
H69 C84 1_555 1_555
H70 C84 1_555 1_555
H71 C84 1_555 1_555
C85 C83 1_555 1_555
H72 C85 1_555 1_555
H73 C85 1_555 1_555
H74 C85 1_555 1_555
C86 C83 1_555 1_555
H75 C86 1_555 1_555
H76 C86 1_555 1_555
H77 C86 1_555 1_555
C87 C79 1_555 1_555
H78 C87 1_555 1_555
C88 N7 1_555 1_555
H79 C88 1_555 1_555
C89 C88 1_555 1_555
H80 C89 1_555 1_555
H81 C89 1_555 1_555
C90 C89 1_555 1_555
H82 C90 1_555 1_555
H83 C90 1_555 1_555
C91 C90 1_555 1_555
H84 C91 1_555 1_555
H85 C91 1_555 1_555
C92 C91 1_555 1_555
H86 C92 1_555 1_555
H87 C92 1_555 1_555
C93 C88 1_555 1_555
H88 C93 1_555 1_555
C94 N8 1_555 1_555
H89 C94 1_555 1_555
C95 C94 1_555 1_555
C96 C66 1_555 1_555
H90 C96 1_555 1_555
C97 C66 1_555 1_555
H91 C97 1_555 1_555
C98 C97 1_555 1_555
C99 C95 1_555 1_555
C100 C98 1_555 1_555
C101 C100 1_555 1_555
H92 C101 1_555 1_555
H93 C101 1_555 1_555
H94 C101 1_555 1_555
C102 C100 1_555 1_555
H95 C102 1_555 1_555
H96 C102 1_555 1_555
H97 C102 1_555 1_555
C103 C100 1_555 1_555
H98 C103 1_555 1_555
H99 C103 1_555 1_555
H100 C103 1_555 1_555
C104 C63 1_555 1_555
V1 O1 1_555 1_555
V2 O8 1_555 1_555
O13 V1 1_555 1_555
O14 V2 1_555 1_555
Cd1_2 N4 1_555 1_555
Cd1C O6 1_555 1_555
Cd2_2 N5 1_555 1_555
Cd2C O10 1_555 1_555
Cd2C_2 O12 1_555 1_555
O6C Cd1 1_555 1_555
O7C Cd1 1_555 1_555
O10C Cd2 1_555 1_555
O11C Cd2 1_555 1_555
O12C Cd2 1_555 1_555
N4_2 Cd1 1_555 1_555
N5_2 Cd2 1_555 1_555
O2 V1 1_555 1_555
O7 Cd1C 1_555 1_555
O9 V2 1_555 1_555
O11 Cd2C 1_555 1_555
N1 V1 1_555 1_555
N2 V1 1_555 1_555
N7 V2 1_555 1_555
N8 V2 1_555 1_555
C5 C6 1_555 1_555
C12 C38 1_555 1_555
C19 C20 1_555 1_555
C26 C27 1_555 1_555
C33 C34 1_555 1_555
C35 C36 1_555 1_555
C44 C45 1_555 1_555
C49 C52 1_555 1_555
C50 C51 1_555 1_555
C58 C59 1_555 1_555
C64 C65 1_555 1_555
C70 C71 1_555 1_555
C75 C76 1_555 1_555
C81 C82 1_555 1_555
C92 C93 1_555 1_555
C95 C96 1_555 1_555
C98 C99 1_555 1_555
Cd1C O6C 1_555 1_555
Cd2C_2 O12C 1_555 1_555

#END
