
#######################################################################
#
#                 Cambridge Crystallographic Data Centre
#                                CCDC 
#
#######################################################################
#
# If this CIF has been generated from an entry in the Cambridge 
# Structural Database, then it will include bibliographic, chemical, 
# crystal, experimental, refinement or atomic coordinate data resulting 
# from the CCDC's data processing and validation procedures.
#
#######################################################################

data_ODODES
_chemical_formula_moiety         '(C56 H34 O16 Si2 Zn3)n'
_symmetry_cell_setting           monoclinic
_symmetry_space_group_name_H-M   'C 2/c'
_symmetry_Int_Tables_number      15
_space_group_name_Hall           '-C 2yc'
loop_
_symmetry_equiv_pos_site_id
_symmetry_equiv_pos_as_xyz
1 x,y,z
2 -x,y,1/2-z
3 1/2+x,1/2+y,z
4 1/2-x,1/2+y,1/2-z
5 -x,-y,-z
6 x,-y,1/2+z
7 1/2-x,1/2-y,-z
8 1/2+x,1/2-y,1/2+z
_cell_length_a                   25.622(2)
_cell_length_b                   13.8443(13)
_cell_length_c                   25.612(4)
_cell_angle_alpha                90
_cell_angle_beta                 116.5820(10)
_cell_angle_gamma                90
_cell_volume                     8124.72
loop_
_atom_site_label
_atom_site_type_symbol
_atom_site_fract_x
_atom_site_fract_y
_atom_site_fract_z
Zn1 Zn -0.019946(17) 0.28973(3) 0.045124(17)
O1 O 0.06612(11) 0.29245(19) 0.08699(11)
C1 C 0.09208(15) 0.3453(2) 0.06566(14)
Zn2 Zn 0.0000 0.5000 0.0000
O2 O 0.06848(10) 0.40480(17) 0.02512(10)
O3 O 0.45667(12) 0.23750(17) 0.46194(10)
Si1 Si 0.35871(4) 0.28831(7) 0.16520(4)
O4 O 0.44811(10) 0.08298(16) 0.43278(10)
O5 O 0.37607(12) -0.1340(2) 0.03004(13)
O6 O 0.46496(10) -0.07499(17) 0.05768(10)
O7 O 0.4571(2) 0.6706(3) 0.06765(16)
O8 O 0.4706(2) 0.7345(3) 0.14923(15)
H1 H 0.4828 0.7798 0.1358
C2 C 0.15699(15) 0.3323(3) 0.09045(15)
C3 C 0.18976(17) 0.3082(3) 0.14835(16)
H2 H 0.1712 0.2993 0.1729
C4 C 0.24943(16) 0.2971(3) 0.17073(16)
H3 H 0.2716 0.2829 0.2111
C5 C 0.27771(15) 0.3059(3) 0.13609(15)
C6 C 0.2436(2) 0.3267(5) 0.0775(2)
H4 H 0.2616 0.3319 0.0522
C7 C 0.1832(2) 0.3401(5) 0.0549(2)
H5 H 0.1607 0.3547 0.0147
C8 C 0.39843(14) 0.0184(2) 0.07879(14)
C9 C 0.44171(15) 0.0829(3) 0.11112(16)
H6 H 0.4805 0.0716 0.1170
C10 C 0.37343(15) 0.1823(3) 0.12848(15)
C11 C 0.32995(16) 0.1138(3) 0.09585(17)
H7 H 0.2909 0.1240 0.0895
C12 C 0.34330(16) 0.0331(3) 0.07323(18)
H8 H 0.3138 -0.0136 0.0534
C13 C 0.41206(16) -0.0698(3) 0.05299(15)
C14 C 0.41060(19) 0.3253(3) 0.28967(16)
H9 H 0.4135 0.3911 0.2807
C15 C 0.42831(19) 0.2982(3) 0.34731(17)
H10 H 0.4433 0.3457 0.3772
C16 C 0.42455(14) 0.2038(2) 0.36172(14)
C17 C 0.40267(15) 0.1346(2) 0.31746(14)
H11 H 0.3996 0.0691 0.3266
C18 C 0.38544(16) 0.1622(3) 0.25987(15)
H12 H 0.3711 0.1146 0.2300
C19 C 0.38882(14) 0.2579(3) 0.24519(14)
C20 C 0.39223(12) 0.4009(2) 0.15299(12)
C21 C 0.43548(10) 0.5739(2) 0.12950(9)
C22 C 0.45852(15) 0.6662(3) 0.11687(14)
C23 C 0.41968(17) 0.4053(4) 0.11690(17)
H13 H 0.4237 0.3466 0.0998
C24 C 0.44170(18) 0.4888(2) 0.10400(18)
H14 H 0.4601 0.4878 0.0790
C25 C 0.40839(16) 0.5741(3) 0.16596(15)
H15 H 0.4044 0.6327 0.1831
C26 C 0.38721(19) 0.4882(2) 0.17723(18)
H16 H 0.3688 0.4891 0.2022
C27 C 0.44458(15) 0.1722(2) 0.42373(14)
C28 C 0.42949(16) 0.1641(3) 0.13528(17)
H17 H 0.4600 0.2082 0.1569
Zn1D Zn 0.019946(17) 0.71027(3) -0.045124(17)
O1D O -0.06612(11) 0.70755(19) -0.08699(11)
C1D C -0.09208(15) 0.6547(2) -0.06566(14)
O2D O -0.06848(10) 0.59520(17) -0.02512(10)
O3D O -0.45667(12) 0.76250(17) -0.46194(10)
Si1D Si -0.35871(4) 0.71169(7) -0.16520(4)
O4D O -0.44811(10) 0.91702(16) -0.43278(10)
O5D O -0.37607(12) 1.1340(2) -0.03004(13)
O6D O -0.46496(10) 1.07499(17) -0.05768(10)
O7D O -0.4571(2) 0.3294(3) -0.06765(16)
O8D O -0.4706(2) 0.2655(3) -0.14923(15)
H1D H -0.4828 0.2202 -0.1358
C2D C -0.15699(15) 0.6677(3) -0.09045(15)
C3D C -0.18976(17) 0.6918(3) -0.14835(16)
H2D H -0.1712 0.7007 -0.1729
C4D C -0.24943(16) 0.7029(3) -0.17073(16)
H3D H -0.2716 0.7171 -0.2111
C5D C -0.27771(15) 0.6941(3) -0.13609(15)
C6D C -0.2436(2) 0.6733(5) -0.0775(2)
H4D H -0.2616 0.6681 -0.0522
C7D C -0.1832(2) 0.6599(5) -0.0549(2)
H5D H -0.1607 0.6453 -0.0147
C8D C -0.39843(14) 0.9816(2) -0.07879(14)
C9D C -0.44171(15) 0.9171(3) -0.11112(16)
H6D H -0.4805 0.9284 -0.1170
C10D C -0.37343(15) 0.8177(3) -0.12848(15)
C11D C -0.32995(16) 0.8862(3) -0.09585(17)
H7D H -0.2909 0.8760 -0.0895
C12D C -0.34330(16) 0.9669(3) -0.07323(18)
H8D H -0.3138 1.0136 -0.0534
C13D C -0.41206(16) 1.0698(3) -0.05299(15)
C14D C -0.41060(19) 0.6747(3) -0.28967(16)
H9D H -0.4135 0.6089 -0.2807
C15D C -0.42831(19) 0.7018(3) -0.34731(17)
H10D H -0.4433 0.6543 -0.3772
C16D C -0.42455(14) 0.7962(2) -0.36172(14)
C17D C -0.40267(15) 0.8654(2) -0.31746(14)
H11D H -0.3996 0.9309 -0.3266
C18D C -0.38544(16) 0.8378(3) -0.25987(15)
H12D H -0.3711 0.8854 -0.2300
C19D C -0.38882(14) 0.7421(3) -0.24519(14)
C20D C -0.39223(12) 0.5991(2) -0.15299(12)
C21D C -0.43548(10) 0.4261(2) -0.12950(9)
C22D C -0.45852(15) 0.3338(3) -0.11687(14)
C23D C -0.41968(17) 0.5947(4) -0.11690(17)
H13D H -0.4237 0.6534 -0.0998
C24D C -0.44170(18) 0.5112(2) -0.10400(18)
H14D H -0.4601 0.5122 -0.0790
C25D C -0.40839(16) 0.4259(3) -0.16596(15)
H15D H -0.4044 0.3673 -0.1831
C26D C -0.38721(19) 0.5118(2) -0.17723(18)
H16D H -0.3688 0.5109 -0.2022
C27D C -0.44458(15) 0.8278(2) -0.42373(14)
C28D C -0.42949(16) 0.8359(3) -0.13528(17)
H17D H -0.4600 0.7918 -0.1569
Zn1B Zn 0.480054(17) -0.21027(3) 0.045124(17)
Zn1B_2 Zn 0.480054(17) 0.78973(3) 0.045124(17)
Zn1C Zn -0.480054(17) 0.78973(3) -0.545124(17)
Zn1F Zn -0.480054(17) 0.21027(3) -0.045124(17)
Zn1F_2 Zn -0.480054(17) 1.21027(3) -0.045124(17)
Zn1G Zn 0.480054(17) 0.21027(3) 0.545124(17)
Zn2B Zn -0.5000 1.0000 0.0000
Zn2B_2 Zn 0.5000 0.0000 0.0000
Zn2C Zn -0.5000 1.0000 -0.5000
Zn2C_2 Zn 0.5000 0.0000 0.5000
O3C O 0.04333(12) 0.73750(17) 0.03806(10)
O3G O -0.04333(12) 0.26250(17) -0.03806(10)
O4C O 0.05189(10) 0.58298(16) 0.06722(10)
O4G O -0.05189(10) 0.41702(16) -0.06722(10)
O6B O -0.03504(10) 0.42501(17) 0.05768(10)
O6F O 0.03504(10) 0.57499(17) -0.05768(10)
O7B O -0.0429(2) 0.1706(3) 0.06765(16)
O7F O 0.0429(2) 0.8294(3) -0.06765(16)
loop_
_geom_bond_atom_site_label_1
_geom_bond_atom_site_label_2
_geom_bond_site_symmetry_1
_geom_bond_site_symmetry_2
Zn1 O1 1_555 1_555
O1 C1 1_555 1_555
C1 O2 1_555 1_555
Zn2 O2 1_555 1_555
O3 C27 1_555 1_555
Si1 C5 1_555 1_555
O4 C27 1_555 1_555
O5 C13 1_555 1_555
O6 C13 1_555 1_555
O7 C22 1_555 1_555
O8 H1 1_555 1_555
C2 C1 1_555 1_555
C3 C2 1_555 1_555
H2 C3 1_555 1_555
C4 C3 1_555 1_555
H3 C4 1_555 1_555
C5 C4 1_555 1_555
C6 C5 1_555 1_555
H4 C6 1_555 1_555
C7 C2 1_555 1_555
H5 C7 1_555 1_555
C8 C9 1_555 1_555
C9 H6 1_555 1_555
C10 Si1 1_555 1_555
C11 C10 1_555 1_555
H7 C11 1_555 1_555
C12 C8 1_555 1_555
H8 C12 1_555 1_555
C13 C8 1_555 1_555
C14 H9 1_555 1_555
C15 C14 1_555 1_555
H10 C15 1_555 1_555
C16 C15 1_555 1_555
C17 C16 1_555 1_555
H11 C17 1_555 1_555
C18 C17 1_555 1_555
H12 C18 1_555 1_555
C19 Si1 1_555 1_555
C20 Si1 1_555 1_555
C21 C22 1_555 1_555
C22 O8 1_555 1_555
C23 C20 1_555 1_555
H13 C23 1_555 1_555
C24 C21 1_555 1_555
H14 C24 1_555 1_555
C25 C21 1_555 1_555
H15 C25 1_555 1_555
C26 C20 1_555 1_555
H16 C26 1_555 1_555
C27 C16 1_555 1_555
C28 C9 1_555 1_555
H17 C28 1_555 1_555
Zn1D O1D 1_555 1_555
O1D C1D 1_555 1_555
C1D O2D 1_555 1_555
O2D Zn2 1_555 1_555
O3D C27D 1_555 1_555
Si1D C5D 1_555 1_555
O4D C27D 1_555 1_555
O5D C13D 1_555 1_555
O6D C13D 1_555 1_555
O7D C22D 1_555 1_555
O8D H1D 1_555 1_555
C2D C1D 1_555 1_555
C3D C2D 1_555 1_555
H2D C3D 1_555 1_555
C4D C3D 1_555 1_555
H3D C4D 1_555 1_555
C5D C4D 1_555 1_555
C6D C5D 1_555 1_555
H4D C6D 1_555 1_555
C7D C2D 1_555 1_555
H5D C7D 1_555 1_555
C8D C9D 1_555 1_555
C9D H6D 1_555 1_555
C10D Si1D 1_555 1_555
C11D C10D 1_555 1_555
H7D C11D 1_555 1_555
C12D C8D 1_555 1_555
H8D C12D 1_555 1_555
C13D C8D 1_555 1_555
C14D H9D 1_555 1_555
C15D C14D 1_555 1_555
H10D C15D 1_555 1_555
C16D C15D 1_555 1_555
C17D C16D 1_555 1_555
H11D C17D 1_555 1_555
C18D C17D 1_555 1_555
H12D C18D 1_555 1_555
C19D Si1D 1_555 1_555
C20D Si1D 1_555 1_555
C21D C22D 1_555 1_555
C22D O8D 1_555 1_555
C23D C20D 1_555 1_555
H13D C23D 1_555 1_555
C24D C21D 1_555 1_555
H14D C24D 1_555 1_555
C25D C21D 1_555 1_555
H15D C25D 1_555 1_555
C26D C20D 1_555 1_555
H16D C26D 1_555 1_555
C27D C16D 1_555 1_555
C28D C9D 1_555 1_555
H17D C28D 1_555 1_555
Zn1B O6 1_555 1_555
Zn1B_2 O7 1_555 1_555
Zn1C O3D 1_555 1_555
Zn1F O7D 1_555 1_555
Zn1F_2 O6D 1_555 1_555
Zn1G O3 1_555 1_555
Zn2B O6D 1_555 1_555
Zn2B_2 O6 1_555 1_555
Zn2C O4D 1_555 1_555
Zn2C_2 O4 1_555 1_555
O3C Zn1D 1_555 1_555
O3G Zn1 1_555 1_555
O4C Zn2 1_555 1_555
O4G Zn2 1_555 1_555
O6B Zn1 1_555 1_555
O6F Zn2 1_555 1_555
O7B Zn1 1_555 1_555
O7F Zn1D 1_555 1_555
Zn2 O6B 1_555 1_555
C6 C7 1_555 1_555
C10 C28 1_555 1_555
C11 C12 1_555 1_555
C14 C19 1_555 1_555
C18 C19 1_555 1_555
C23 C24 1_555 1_555
C25 C26 1_555 1_555
Zn1D O6F 1_555 1_555
C6D C7D 1_555 1_555
C10D C28D 1_555 1_555
C11D C12D 1_555 1_555
C14D C19D 1_555 1_555
C18D C19D 1_555 1_555
C23D C24D 1_555 1_555
C25D C26D 1_555 1_555

#END
