
#######################################################################
#
#                 Cambridge Crystallographic Data Centre
#                                CCDC 
#
#######################################################################
#
# If this CIF has been generated from an entry in the Cambridge 
# Structural Database, then it will include bibliographic, chemical, 
# crystal, experimental, refinement or atomic coordinate data resulting 
# from the CCDC's data processing and validation procedures.
#
#######################################################################

data_QAJJOD
_chemical_formula_moiety         'C90 O30 Zr11'
_symmetry_cell_setting           cubic
_symmetry_space_group_name_H-M   'F m -3 m'
_symmetry_Int_Tables_number      225
_space_group_name_Hall           '-F 4 2 3'
loop_
_symmetry_equiv_pos_site_id
_symmetry_equiv_pos_as_xyz
1 x,y,z
2 -x,-y,z
3 -x,y,-z
4 x,-y,-z
5 z,x,y
6 z,-x,-y
7 -z,-x,y
8 -z,x,-y
9 y,z,x
10 -y,z,-x
11 y,-z,-x
12 -y,-z,x
13 y,x,-z
14 -y,-x,-z
15 y,-x,z
16 -y,x,z
17 x,z,-y
18 -x,z,y
19 -x,-z,-y
20 x,-z,y
21 z,y,-x
22 z,-y,x
23 -z,y,x
24 -z,-y,-x
25 x,1/2+y,1/2+z
26 -x,1/2-y,1/2+z
27 -x,1/2+y,1/2-z
28 x,1/2-y,1/2-z
29 z,1/2+x,1/2+y
30 z,1/2-x,1/2-y
31 -z,1/2-x,1/2+y
32 -z,1/2+x,1/2-y
33 y,1/2+z,1/2+x
34 -y,1/2+z,1/2-x
35 y,1/2-z,1/2-x
36 -y,1/2-z,1/2+x
37 y,1/2+x,1/2-z
38 -y,1/2-x,1/2-z
39 y,1/2-x,1/2+z
40 -y,1/2+x,1/2+z
41 x,1/2+z,1/2-y
42 -x,1/2+z,1/2+y
43 -x,1/2-z,1/2-y
44 x,1/2-z,1/2+y
45 z,1/2+y,1/2-x
46 z,1/2-y,1/2+x
47 -z,1/2+y,1/2+x
48 -z,1/2-y,1/2-x
49 1/2+x,y,1/2+z
50 1/2-x,-y,1/2+z
51 1/2-x,y,1/2-z
52 1/2+x,-y,1/2-z
53 1/2+z,x,1/2+y
54 1/2+z,-x,1/2-y
55 1/2-z,-x,1/2+y
56 1/2-z,x,1/2-y
57 1/2+y,z,1/2+x
58 1/2-y,z,1/2-x
59 1/2+y,-z,1/2-x
60 1/2-y,-z,1/2+x
61 1/2+y,x,1/2-z
62 1/2-y,-x,1/2-z
63 1/2+y,-x,1/2+z
64 1/2-y,x,1/2+z
65 1/2+x,z,1/2-y
66 1/2-x,z,1/2+y
67 1/2-x,-z,1/2-y
68 1/2+x,-z,1/2+y
69 1/2+z,y,1/2-x
70 1/2+z,-y,1/2+x
71 1/2-z,y,1/2+x
72 1/2-z,-y,1/2-x
73 1/2+x,1/2+y,z
74 1/2-x,1/2-y,z
75 1/2-x,1/2+y,-z
76 1/2+x,1/2-y,-z
77 1/2+z,1/2+x,y
78 1/2+z,1/2-x,-y
79 1/2-z,1/2-x,y
80 1/2-z,1/2+x,-y
81 1/2+y,1/2+z,x
82 1/2-y,1/2+z,-x
83 1/2+y,1/2-z,-x
84 1/2-y,1/2-z,x
85 1/2+y,1/2+x,-z
86 1/2-y,1/2-x,-z
87 1/2+y,1/2-x,z
88 1/2-y,1/2+x,z
89 1/2+x,1/2+z,-y
90 1/2-x,1/2+z,y
91 1/2-x,1/2-z,-y
92 1/2+x,1/2-z,y
93 1/2+z,1/2+y,-x
94 1/2+z,1/2-y,x
95 1/2-z,1/2+y,x
96 1/2-z,1/2-y,-x
97 -x,-y,-z
98 x,y,-z
99 x,-y,z
100 -x,y,z
101 -z,-x,-y
102 -z,x,y
103 z,x,-y
104 z,-x,y
105 -y,-z,-x
106 y,-z,x
107 -y,z,x
108 y,z,-x
109 -y,-x,z
110 y,x,z
111 -y,x,-z
112 y,-x,-z
113 -x,-z,y
114 x,-z,-y
115 x,z,y
116 -x,z,-y
117 -z,-y,x
118 -z,y,-x
119 z,-y,-x
120 z,y,x
121 -x,1/2-y,1/2-z
122 x,1/2+y,1/2-z
123 x,1/2-y,1/2+z
124 -x,1/2+y,1/2+z
125 -z,1/2-x,1/2-y
126 -z,1/2+x,1/2+y
127 z,1/2+x,1/2-y
128 z,1/2-x,1/2+y
129 -y,1/2-z,1/2-x
130 y,1/2-z,1/2+x
131 -y,1/2+z,1/2+x
132 y,1/2+z,1/2-x
133 -y,1/2-x,1/2+z
134 y,1/2+x,1/2+z
135 -y,1/2+x,1/2-z
136 y,1/2-x,1/2-z
137 -x,1/2-z,1/2+y
138 x,1/2-z,1/2-y
139 x,1/2+z,1/2+y
140 -x,1/2+z,1/2-y
141 -z,1/2-y,1/2+x
142 -z,1/2+y,1/2-x
143 z,1/2-y,1/2-x
144 z,1/2+y,1/2+x
145 1/2-x,-y,1/2-z
146 1/2+x,y,1/2-z
147 1/2+x,-y,1/2+z
148 1/2-x,y,1/2+z
149 1/2-z,-x,1/2-y
150 1/2-z,x,1/2+y
151 1/2+z,x,1/2-y
152 1/2+z,-x,1/2+y
153 1/2-y,-z,1/2-x
154 1/2+y,-z,1/2+x
155 1/2-y,z,1/2+x
156 1/2+y,z,1/2-x
157 1/2-y,-x,1/2+z
158 1/2+y,x,1/2+z
159 1/2-y,x,1/2-z
160 1/2+y,-x,1/2-z
161 1/2-x,-z,1/2+y
162 1/2+x,-z,1/2-y
163 1/2+x,z,1/2+y
164 1/2-x,z,1/2-y
165 1/2-z,-y,1/2+x
166 1/2-z,y,1/2-x
167 1/2+z,-y,1/2-x
168 1/2+z,y,1/2+x
169 1/2-x,1/2-y,-z
170 1/2+x,1/2+y,-z
171 1/2+x,1/2-y,z
172 1/2-x,1/2+y,z
173 1/2-z,1/2-x,-y
174 1/2-z,1/2+x,y
175 1/2+z,1/2+x,-y
176 1/2+z,1/2-x,y
177 1/2-y,1/2-z,-x
178 1/2+y,1/2-z,x
179 1/2-y,1/2+z,x
180 1/2+y,1/2+z,-x
181 1/2-y,1/2-x,z
182 1/2+y,1/2+x,z
183 1/2-y,1/2+x,-z
184 1/2+y,1/2-x,-z
185 1/2-x,1/2-z,y
186 1/2+x,1/2-z,-y
187 1/2+x,1/2+z,y
188 1/2-x,1/2+z,-y
189 1/2-z,1/2-y,x
190 1/2-z,1/2+y,-x
191 1/2+z,1/2-y,-x
192 1/2+z,1/2+y,x
_cell_length_a                   26.8690(3)
_cell_length_b                   26.8690(3)
_cell_length_c                   26.8690(3)
_cell_angle_alpha                90
_cell_angle_beta                 90
_cell_angle_gamma                90
_cell_volume                     19397.9
loop_
_atom_site_label
_atom_site_type_symbol
_atom_site_fract_x
_atom_site_fract_y
_atom_site_fract_z
Zr1 Zr 0.5000 0.09204(2) 0.5000
O1 O 0.57236(6) 0.13171(6) 0.5000
C1 C 0.61724(8) 0.11724(8) 0.5000
C2 C 0.65667(9) 0.15667(9) 0.5000
C3 C 0.73039(9) 0.23039(9) 0.5000
O2 O 0.46135(15) 0.03865(15) 0.46135(15)
C4 C 0.68221(15) 0.24146(14) 0.4863(2)
C5 C 0.64508(15) 0.20516(16) 0.4862(2)
C6 C 0.5921(3) 0.2262(4) 0.4657(7)
O1M O 0.86829(6) 0.42764(6) 0.5000
C1M C 0.88276(8) 0.38276(8) 0.5000
C2M C 0.84333(9) 0.34333(9) 0.5000
C3M C 0.76961(9) 0.26961(9) 0.5000
C4M C 0.75854(14) 0.31779(15) 0.5137(2)
C5M C 0.79484(16) 0.35492(15) 0.5138(2)
C6M C 0.7738(4) 0.4079(3) 0.5343(7)
O1UB O 0.92764(6) 0.36829(6) 0.5000
C4UB C 0.81779(15) 0.25854(14) 0.4863(2)
C5UB C 0.85492(15) 0.29484(16) 0.4862(2)
C6UB C 0.9079(3) 0.2738(4) 0.4657(7)
O1FC O 0.63171(6) 0.07236(6) 0.5000
C4FC C 0.74146(14) 0.18221(15) 0.5137(2)
C5FC C 0.70516(16) 0.14508(15) 0.5138(2)
C6FC C 0.7262(4) 0.0921(3) 0.5343(7)
C4SC C 0.68221(15) 0.24146(14) 0.5137(2)
C5SC C 0.64508(15) 0.20516(16) 0.5138(2)
C6SC C 0.5921(3) 0.2262(4) 0.5343(7)
C4DD C 0.75854(14) 0.31779(15) 0.4863(2)
C5DD C 0.79484(16) 0.35492(15) 0.4862(2)
C6DD C 0.7738(4) 0.4079(3) 0.4657(7)
C4LF C 0.81779(15) 0.25854(14) 0.5137(2)
C5LF C 0.85492(15) 0.29484(16) 0.5138(2)
C6LF C 0.9079(3) 0.2738(4) 0.5343(7)
C4YF C 0.74146(14) 0.18221(15) 0.4863(2)
C5YF C 0.70516(16) 0.14508(15) 0.4862(2)
C6YF C 0.7262(4) 0.0921(3) 0.4657(7)
O1B O 0.42764(6) 0.13171(6) 0.5000
C1B C 0.38276(8) 0.11724(8) 0.5000
C2B C 0.34333(9) 0.15667(9) 0.5000
C3B C 0.26961(9) 0.23039(9) 0.5000
O2B O 0.53865(15) 0.03865(15) 0.53865(15)
C4B C 0.31779(15) 0.24146(14) 0.5137(2)
C5B C 0.35492(15) 0.20516(16) 0.5138(2)
C6B C 0.4079(3) 0.2262(4) 0.5343(7)
O1N O 0.13171(6) 0.42764(6) 0.5000
C1N C 0.11724(8) 0.38276(8) 0.5000
C2N C 0.15667(9) 0.34333(9) 0.5000
C3N C 0.23039(9) 0.26961(9) 0.5000
C4N C 0.24146(14) 0.31779(15) 0.4863(2)
C5N C 0.20516(16) 0.35492(15) 0.4862(2)
C6N C 0.2262(4) 0.4079(3) 0.4657(7)
O1WB O 0.07236(6) 0.36829(6) 0.5000
C4WB C 0.18221(15) 0.25854(14) 0.5137(2)
C5WB C 0.14508(15) 0.29484(16) 0.5138(2)
C6WB C 0.0921(3) 0.2738(4) 0.5343(7)
O1IC O 0.36829(6) 0.07236(6) 0.5000
C4IC C 0.25854(14) 0.18221(15) 0.4863(2)
C5IC C 0.29484(16) 0.14508(15) 0.4862(2)
C6IC C 0.2738(4) 0.0921(3) 0.4657(7)
C4UC C 0.31779(15) 0.24146(14) 0.4863(2)
C5UC C 0.35492(15) 0.20516(16) 0.4862(2)
C6UC C 0.4079(3) 0.2262(4) 0.4657(7)
C4GD C 0.24146(14) 0.31779(15) 0.5137(2)
C5GD C 0.20516(16) 0.35492(15) 0.5138(2)
C6GD C 0.2262(4) 0.4079(3) 0.5343(7)
C4NF C 0.18221(15) 0.25854(14) 0.4863(2)
C5NF C 0.14508(15) 0.29484(16) 0.4862(2)
C6NF C 0.0921(3) 0.2738(4) 0.4657(7)
C4ZF C 0.25854(14) 0.18221(15) 0.5137(2)
C5ZF C 0.29484(16) 0.14508(15) 0.5138(2)
C6ZF C 0.2738(4) 0.0921(3) 0.5343(7)
Zr1E Zr 0.5000 0.5000 0.90796(2)
O1E O 0.5000 0.42764(6) 0.86829(6)
C1E C 0.5000 0.38276(8) 0.88276(8)
C2E C 0.5000 0.34333(9) 0.84333(9)
C3E C 0.5000 0.26961(9) 0.76961(9)
C4E C 0.4863(2) 0.31779(15) 0.75854(14)
C5E C 0.4862(2) 0.35492(15) 0.79484(16)
C6E C 0.4657(7) 0.4079(3) 0.7738(4)
O1V O 0.5000 0.13171(6) 0.57236(6)
C1V C 0.5000 0.11724(8) 0.61724(8)
C2V C 0.5000 0.15667(9) 0.65667(9)
C3V C 0.5000 0.23039(9) 0.73039(9)
C4V C 0.5137(2) 0.24146(14) 0.68221(15)
C5V C 0.5138(2) 0.20516(16) 0.64508(15)
C6V C 0.5343(7) 0.2262(4) 0.5921(3)
O1BA O 0.5000 0.07236(6) 0.63171(6)
C4BA C 0.4863(2) 0.18221(15) 0.74146(14)
C5BA C 0.4862(2) 0.14508(15) 0.70516(16)
C6BA C 0.4657(7) 0.0921(3) 0.7262(4)
O1UA O 0.5000 0.36829(6) 0.92764(6)
C4UA C 0.5137(2) 0.25854(14) 0.81779(15)
C5UA C 0.5138(2) 0.29484(16) 0.85492(15)
C6UA C 0.5343(7) 0.2738(4) 0.9079(3)
C4VC C 0.5137(2) 0.31779(15) 0.75854(14)
C5VC C 0.5138(2) 0.35492(15) 0.79484(16)
C6VC C 0.5343(7) 0.4079(3) 0.7738(4)
C4OD C 0.4863(2) 0.24146(14) 0.68221(15)
C5OD C 0.4862(2) 0.20516(16) 0.64508(15)
C6OD C 0.4657(7) 0.2262(4) 0.5921(3)
C4UD C 0.5137(2) 0.18221(15) 0.74146(14)
C5UD C 0.5138(2) 0.14508(15) 0.70516(16)
C6UD C 0.5343(7) 0.0921(3) 0.7262(4)
C4LE C 0.4863(2) 0.25854(14) 0.81779(15)
C5LE C 0.4862(2) 0.29484(16) 0.85492(15)
C6LE C 0.4657(7) 0.2738(4) 0.9079(3)
O2T O 0.46135(15) 0.03865(15) 0.53865(15)
O2V O 0.53865(15) 0.03865(15) 0.46135(15)
Zr1CA Zr 0.5000 0.0000 0.40796(2)
Zr1H Zr 0.09204(2) 0.5000 0.5000
Zr1I Zr 0.90796(2) 0.5000 0.5000
Zr1Y Zr 0.5000 0.40796(2) 1.0000
Zr1BA Zr 0.5000 0.0000 0.59204(2)
Zr1UB Zr 0.0000 0.40796(2) 0.5000
Zr1UB_2 Zr 1.0000 0.40796(2) 0.5000
Zr1BC Zr 0.59204(2) 0.0000 0.5000
Zr1CC Zr 0.40796(2) 0.0000 0.5000
O1G O 0.5000 0.57236(6) 0.86829(6)
O1P O 0.57236(6) 0.5000 0.86829(6)
O1R O 0.42764(6) 0.5000 0.86829(6)
O1T O 0.5000 0.13171(6) 0.42764(6)
O1CA O 0.5000 -0.07236(6) 0.36829(6)
O1EA O 0.5000 0.07236(6) 0.36829(6)
O1NA O 0.57236(6) -0.0000 0.36829(6)
O1PA O 0.42764(6) -0.0000 0.36829(6)
O2A O 0.53865(15) -0.03865(15) 0.46135(15)
O2E O 0.46135(15) 0.53865(15) 0.96135(15)
O2G O 0.53865(15) 0.46135(15) 0.96135(15)
O2P O 0.46135(15) 0.46135(15) 0.96135(15)
O2R O 0.53865(15) 0.53865(15) 0.96135(15)
O2U O 0.46135(15) -0.03865(15) 0.46135(15)
loop_
_geom_bond_atom_site_label_1
_geom_bond_atom_site_label_2
_geom_bond_site_symmetry_1
_geom_bond_site_symmetry_2
Zr1 O1 1_555 1_555
O1 C1 1_555 1_555
C1 C2 1_555 1_555
C2 C5 1_555 1_555
C3 C4 1_555 1_555
O2 Zr1 1_555 1_555
C4 C5 1_555 1_555
C5 C6 1_555 1_555
O1M C1M 1_555 1_555
C1M C2M 1_555 1_555
C2M C5M 1_555 1_555
C3M C3 1_555 1_555
C4M C3M 1_555 1_555
C5M C4M 1_555 1_555
C6M C5M 1_555 1_555
O1UB C1M 1_555 1_555
C4UB C3M 1_555 1_555
C5UB C2M 1_555 1_555
C6UB C5UB 1_555 1_555
O1FC C1 1_555 1_555
C4FC C3 1_555 1_555
C5FC C2 1_555 1_555
C6FC C5FC 1_555 1_555
C4SC C3 1_555 1_555
C5SC C2 1_555 1_555
C6SC C5SC 1_555 1_555
C4DD C3M 1_555 1_555
C5DD C2M 1_555 1_555
C6DD C5DD 1_555 1_555
C4LF C3M 1_555 1_555
C5LF C2M 1_555 1_555
C6LF C5LF 1_555 1_555
C4YF C3 1_555 1_555
C5YF C2 1_555 1_555
C6YF C5YF 1_555 1_555
O1B Zr1 1_555 1_555
C1B O1B 1_555 1_555
C2B C1B 1_555 1_555
C3B C4B 1_555 1_555
O2B Zr1 1_555 1_555
C4B C5B 1_555 1_555
C5B C2B 1_555 1_555
C6B C5B 1_555 1_555
O1N C1N 1_555 1_555
C1N C2N 1_555 1_555
C2N C5N 1_555 1_555
C3N C3B 1_555 1_555
C4N C3N 1_555 1_555
C5N C4N 1_555 1_555
C6N C5N 1_555 1_555
O1WB C1N 1_555 1_555
C4WB C3N 1_555 1_555
C5WB C2N 1_555 1_555
C6WB C5WB 1_555 1_555
O1IC C1B 1_555 1_555
C4IC C3B 1_555 1_555
C5IC C2B 1_555 1_555
C6IC C5IC 1_555 1_555
C4UC C3B 1_555 1_555
C5UC C2B 1_555 1_555
C6UC C5UC 1_555 1_555
C4GD C3N 1_555 1_555
C5GD C2N 1_555 1_555
C6GD C5GD 1_555 1_555
C4NF C3N 1_555 1_555
C5NF C2N 1_555 1_555
C6NF C5NF 1_555 1_555
C4ZF C3B 1_555 1_555
C5ZF C2B 1_555 1_555
C6ZF C5ZF 1_555 1_555
Zr1E O1E 1_555 1_555
O1E C1E 1_555 1_555
C1E C2E 1_555 1_555
C2E C5E 1_555 1_555
C3E C4E 1_555 1_555
C4E C5E 1_555 1_555
C5E C6E 1_555 1_555
O1V Zr1 1_555 1_555
C1V O1V 1_555 1_555
C2V C1V 1_555 1_555
C3V C3E 1_555 1_555
C4V C3V 1_555 1_555
C5V C2V 1_555 1_555
C6V C5V 1_555 1_555
O1BA C1V 1_555 1_555
C4BA C3V 1_555 1_555
C5BA C2V 1_555 1_555
C6BA C5BA 1_555 1_555
O1UA C1E 1_555 1_555
C4UA C3E 1_555 1_555
C5UA C2E 1_555 1_555
C6UA C5UA 1_555 1_555
C4VC C3E 1_555 1_555
C5VC C2E 1_555 1_555
C6VC C5VC 1_555 1_555
C4OD C3V 1_555 1_555
C5OD C2V 1_555 1_555
C6OD C5OD 1_555 1_555
C4UD C3V 1_555 1_555
C5UD C2V 1_555 1_555
C6UD C5UD 1_555 1_555
C4LE C3E 1_555 1_555
C5LE C2E 1_555 1_555
C6LE C5LE 1_555 1_555
O2T Zr1 1_555 1_555
O2V Zr1 1_555 1_555
Zr1CA O2 1_555 1_555
Zr1H O1N 1_555 1_555
Zr1I O1M 1_555 1_555
Zr1Y O1UA 1_555 1_555
Zr1BA O2B 1_555 1_555
Zr1UB O1WB 1_555 1_555
Zr1UB_2 O1UB 1_555 1_555
Zr1BC O1FC 1_555 1_555
Zr1CC O2 1_555 1_555
O1G Zr1E 1_555 1_555
O1P Zr1E 1_555 1_555
O1R Zr1E 1_555 1_555
O1T Zr1 1_555 1_555
O1CA Zr1CA 1_555 1_555
O1EA Zr1CA 1_555 1_555
O1NA Zr1CA 1_555 1_555
O1PA Zr1CA 1_555 1_555
O2A Zr1CA 1_555 1_555
O2E Zr1E 1_555 1_555
O2G Zr1E 1_555 1_555
O2P Zr1E 1_555 1_555
O2R Zr1E 1_555 1_555
O2U Zr1CA 1_555 1_555
C4 C4SC 1_555 1_555
C4 C5SC 1_555 1_555
C5 C4SC 1_555 1_555
C5 C5SC 1_555 1_555
C4M C4DD 1_555 1_555
C4M C5DD 1_555 1_555
C5M C4DD 1_555 1_555
C5M C5DD 1_555 1_555
C4UB C5UB 1_555 1_555
C4UB C4LF 1_555 1_555
C4UB C5LF 1_555 1_555
C5UB C4LF 1_555 1_555
C5UB C5LF 1_555 1_555
C4FC C5FC 1_555 1_555
C4FC C4YF 1_555 1_555
C4FC C5YF 1_555 1_555
C5FC C4YF 1_555 1_555
C5FC C5YF 1_555 1_555
C4SC C5SC 1_555 1_555
C4DD C5DD 1_555 1_555
C4LF C5LF 1_555 1_555
C4YF C5YF 1_555 1_555
O2B Zr1BC 1_555 1_555
C4B C4UC 1_555 1_555
C4B C5UC 1_555 1_555
C5B C4UC 1_555 1_555
C5B C5UC 1_555 1_555
C4N C4GD 1_555 1_555
C4N C5GD 1_555 1_555
C5N C4GD 1_555 1_555
C5N C5GD 1_555 1_555
C4WB C5WB 1_555 1_555
C4WB C4NF 1_555 1_555
C4WB C5NF 1_555 1_555
C5WB C4NF 1_555 1_555
C5WB C5NF 1_555 1_555
O1IC Zr1CC 1_555 1_555
C4IC C5IC 1_555 1_555
C4IC C4ZF 1_555 1_555
C4IC C5ZF 1_555 1_555
C5IC C4ZF 1_555 1_555
C5IC C5ZF 1_555 1_555
C4UC C5UC 1_555 1_555
C4GD C5GD 1_555 1_555
C4NF C5NF 1_555 1_555
C4ZF C5ZF 1_555 1_555
C4E C4VC 1_555 1_555
C4E C5VC 1_555 1_555
C5E C4VC 1_555 1_555
C5E C5VC 1_555 1_555
C4V C5V 1_555 1_555
C4V C4OD 1_555 1_555
C4V C5OD 1_555 1_555
C5V C4OD 1_555 1_555
C5V C5OD 1_555 1_555
O1BA Zr1BA 1_555 1_555
C4BA C5BA 1_555 1_555
C4BA C4UD 1_555 1_555
C4BA C5UD 1_555 1_555
C5BA C4UD 1_555 1_555
C5BA C5UD 1_555 1_555
C4UA C5UA 1_555 1_555
C4UA C4LE 1_555 1_555
C4UA C5LE 1_555 1_555
C5UA C4LE 1_555 1_555
C5UA C5LE 1_555 1_555
C4VC C5VC 1_555 1_555
C4OD C5OD 1_555 1_555
C4UD C5UD 1_555 1_555
C4LE C5LE 1_555 1_555
O2T Zr1BA 1_555 1_555
O2T Zr1CC 1_555 1_555
O2V Zr1CA 1_555 1_555
O2V Zr1BC 1_555 1_555
Zr1Y O2G 1_555 1_555
Zr1Y O2P 1_555 1_555
Zr1BC O2A 1_555 1_555
Zr1CC O2U 1_555 1_555

#END
