
#######################################################################
#
#                 Cambridge Crystallographic Data Centre
#                                CCDC 
#
#######################################################################
#
# If this CIF has been generated from an entry in the Cambridge 
# Structural Database, then it will include bibliographic, chemical, 
# crystal, experimental, refinement or atomic coordinate data resulting 
# from the CCDC's data processing and validation procedures.
#
#######################################################################

data_TUDQOZ
_chemical_formula_moiety         '(C60 H50 Cd3 N10 O20)n'
_symmetry_cell_setting           orthorhombic
_symmetry_space_group_name_H-M   'P b c a'
_symmetry_Int_Tables_number      61
_space_group_name_Hall           '-P 2ac 2ab'
loop_
_symmetry_equiv_pos_site_id
_symmetry_equiv_pos_as_xyz
1 x,y,z
2 1/2-x,-y,1/2+z
3 1/2+x,1/2-y,-z
4 -x,1/2+y,1/2-z
5 -x,-y,-z
6 1/2+x,y,1/2-z
7 1/2-x,1/2+y,z
8 x,1/2-y,1/2+z
_cell_length_a                   17.0131(6)
_cell_length_b                   13.5953(5)
_cell_length_c                   51.887(2)
_cell_angle_alpha                90
_cell_angle_beta                 90
_cell_angle_gamma                90
_cell_volume                     12001.4
loop_
_atom_site_label
_atom_site_type_symbol
_atom_site_fract_x
_atom_site_fract_y
_atom_site_fract_z
Cd1 Cd 0.519718(17) -0.67863(2) -0.171446(5)
Cd2 Cd 0.024030(17) -0.90476(2) -0.166770(5)
Cd3 Cd 1.002850(17) -0.63976(2) 0.008720(5)
N1 N -0.1089(2) -0.8919(3) -0.17627(6)
N2 N -0.04122(19) -0.9103(3) -0.12846(6)
N3 N 0.6568(2) -0.6564(3) -0.17485(6)
N4 N 0.57231(19) -0.6699(2) -0.13044(6)
N5 N -0.3068(2) -0.9228(3) -0.09241(6)
N6 N -0.36388(19) -0.9155(3) -0.13134(6)
H1 H -0.4009 -0.9139 -0.1432
N7 N 0.8235(2) -0.6766(3) -0.08344(6)
N8 N 0.89434(19) -0.6690(3) -0.11987(6)
H2 H 0.9356 -0.6664 -0.1301
N9 N -0.5158(2) -0.9018(3) -0.05144(7)
N10 N 1.0202(2) -0.6620(3) -0.03516(7)
O1 O 0.01744(16) -0.6966(2) -0.15610(6)
O2 O 0.11743(17) -0.8012(2) -0.15521(7)
O3 O 0.41813(17) -0.5454(2) -0.15181(6)
O4 O 0.38778(18) -0.6899(3) -0.16805(7)
O5 O 0.44297(19) -0.4164(3) -0.20825(6)
O6 O 0.50936(18) -0.5535(2) -0.20068(6)
O7 O 0.4795(2) -0.2827(2) -0.29546(6)
O8 O 0.47276(18) -0.3795(3) -0.32951(5)
O9 O 1.10784(16) -0.7360(2) 0.01581(6)
O10 O 1.00594(17) -0.8357(3) 0.01756(7)
O11 O 1.37013(17) -0.8532(2) -0.00287(6)
O12 O 1.40619(16) -1.0049(2) 0.00583(6)
C1 C -0.1403(3) -0.8847(3) -0.19973(8)
H3 H -0.1062 -0.8757 -0.2140
C2 C -0.2207(3) -0.8897(3) -0.20418(8)
H4 H -0.2408 -0.8856 -0.2212
C3 C -0.2705(2) -0.9007(3) -0.18361(8)
H5 H -0.3256 -0.9050 -0.1863
C4 C -0.2394(2) -0.9057(3) -0.15853(7)
C5 C -0.2839(2) -0.9144(3) -0.13531(8)
C6 C -0.3740(2) -0.9197(3) -0.10515(7)
C7 C -0.4504(2) -0.9157(3) -0.09231(8)
C8 C -0.5218(3) -0.9084(4) -0.10503(9)
H6 H -0.5239 -0.9093 -0.1233
C9 C -0.5899(3) -0.8999(4) -0.09061(9)
H7 H -0.6397 -0.8963 -0.0988
C10 C -0.5844(3) -0.8966(4) -0.06416(8)
H8 H -0.6314 -0.8903 -0.0544
C11 C -0.4507(2) -0.9127(3) -0.06546(8)
H9 H -0.4019 -0.9187 -0.0567
C12 C -0.2503(2) -0.9191(3) -0.11122(8)
C13 C -0.1670(2) -0.9170(3) -0.10779(7)
C14 C -0.1297(3) -0.9217(3) -0.08368(8)
H10 H -0.1599 -0.9257 -0.0683
C15 C -0.0492(3) -0.9203(3) -0.08251(8)
H11 H -0.0229 -0.9227 -0.0664
C16 C -0.0066(3) -0.9153(4) -0.10546(8)
H12 H 0.0492 -0.9154 -0.1047
C17 C -0.1202(2) -0.9103(3) -0.13007(7)
C18 C -0.1568(2) -0.9033(3) -0.15570(7)
C19 C 0.6962(3) -0.6475(3) -0.19687(8)
H13 H 0.6675 -0.6419 -0.2125
C20 C 0.7782(3) -0.6459(4) -0.19785(8)
H14 H 0.8045 -0.6385 -0.2139
C21 C 0.8203(2) -0.6550(3) -0.17555(8)
H15 H 0.8762 -0.6558 -0.1760
C22 C 0.7803(2) -0.6634(3) -0.15198(8)
C23 C 0.8164(2) -0.6696(3) -0.12713(8)
C24 C 0.8946(2) -0.6730(3) -0.09350(7)
C25 C 0.9666(2) -0.6700(3) -0.07779(8)
C26 C 1.0423(3) -0.6649(4) -0.08802(9)
H16 H 1.0503 -0.6648 -0.1061
C27 C 1.1053(3) -0.6600(4) -0.07140(9)
H17 H 1.1574 -0.6573 -0.0780
C28 C 1.0923(3) -0.6590(4) -0.04515(9)
H18 H 1.1361 -0.6560 -0.0338
C29 C 0.9587(2) -0.6690(3) -0.05118(8)
H19 H 0.9074 -0.6735 -0.0440
C30 C 0.7738(2) -0.6745(3) -0.10438(7)
C31 C 0.6898(2) -0.6751(3) -0.10462(7)
C32 C 0.6432(3) -0.6795(3) -0.08227(8)
H20 H 0.6671 -0.6850 -0.0658
C33 C 0.5631(3) -0.6759(3) -0.08447(8)
H21 H 0.5308 -0.6767 -0.0695
C34 C 0.5297(3) -0.6712(3) -0.10894(8)
H22 H 0.4741 -0.6687 -0.1103
C35 C 0.6514(2) -0.6701(3) -0.12869(7)
C36 C 0.6973(2) -0.6635(3) -0.15241(8)
C37 C 0.1482(2) -0.6323(3) -0.15632(8)
C38 C 0.1245(3) -0.5349(3) -0.15524(9)
H23 H 0.0702 -0.5196 -0.1536
C39 C 0.1791(3) -0.4598(4) -0.15649(11)
H24 H 0.1625 -0.3931 -0.1564
C40 C 0.2580(3) -0.4826(4) -0.15788(10)
H25 H 0.2958 -0.4311 -0.1581
C41 C 0.2831(2) -0.5802(3) -0.15889(8)
C42 C 0.2272(2) -0.6548(3) -0.15844(8)
H26 H 0.2434 -0.7215 -0.1596
C43 C 0.0897(2) -0.7143(3) -0.15588(7)
C44 C 0.3681(3) -0.6066(3) -0.15977(8)
C45 C 0.4781(2) -0.5155(3) -0.24411(8)
C46 C 0.4727(3) -0.4376(3) -0.26122(8)
H27 H 0.4650 -0.3727 -0.2549
C47 C 0.4785(2) -0.4537(3) -0.28744(8)
C48 C 0.4872(3) -0.5484(4) -0.29638(9)
H28 H 0.4899 -0.5602 -0.3144
C49 C 0.4921(3) -0.6268(4) -0.27942(10)
H29 H 0.4975 -0.6919 -0.2858
C50 C 0.4891(3) -0.6105(4) -0.25315(9)
H30 H 0.4945 -0.6638 -0.2414
C51 C 0.4758(3) -0.4950(4) -0.21575(8)
C52 C 0.4770(2) -0.3664(4) -0.30560(8)
C53 C 1.1351(2) -0.9065(3) 0.01493(7)
C54 C 1.1100(2) -1.0037(3) 0.01598(7)
H31 H 1.0557 -1.0179 0.0179
C55 C 1.1635(3) -1.0797(3) 0.01420(8)
H32 H 1.1457 -1.1459 0.0151
C56 C 1.2431(2) -1.0605(3) 0.01108(8)
H33 H 1.2796 -1.1133 0.0101
C57 C 1.2694(2) -0.9641(3) 0.00937(7)
C58 C 1.2150(2) -0.8877(3) 0.01169(7)
H34 H 1.2328 -0.8215 0.0111
C59 C 1.0784(2) -0.8208(3) 0.01637(7)
C60 C 1.3534(2) -0.9403(3) 0.00393(7)
Cd1C Cd 0.480282(17) -0.17863(2) -0.328554(5)
Cd2F Cd 0.475970(17) -0.40476(2) -0.166770(5)
Cd3B Cd -0.497150(17) -0.86024(2) -0.008720(5)
Cd3B_2 Cd 1.502850(17) -0.86024(2) -0.008720(5)
Cd3F Cd 1.497150(17) -1.13976(2) 0.008720(5)
N9B N 0.9842(2) -0.5982(3) 0.05144(7)
O3F O 0.08187(17) -1.0454(2) -0.15181(6)
O5F O 0.05703(19) -0.9164(3) -0.20825(6)
O7C O 0.5205(2) -0.7827(2) -0.20454(6)
O11B O 0.87013(17) -0.6468(2) 0.00287(6)
O12F O 1.09381(16) -0.5049(2) 0.00583(6)
O13 O 0.2271(2) -0.2440(3) -0.03676(7)
H35 H 0.1948 -0.2058 -0.0442
H38 H 0.1975 -0.2704 -0.0255
O14 O 0.6155(2) -0.4092(3) 0.05186(7)
H42 H 0.5924 -0.4547 0.0436
H44 H 0.5933 -0.3582 0.0457
O15 O 0.2843(3) -0.3980(4) -0.23204(9)
H39 H 0.2490 -0.3667 -0.2238
H40 H 0.3221 -0.3724 -0.2237
O16 O 0.1904(3) -0.2374(5) -0.22041(12)
H36 H 0.1626 -0.2712 -0.2307
H37 H 0.2157 -0.1912 -0.2277
O17 O 0.2852(4) -0.0783(5) -0.23619(12)
H41 H 0.2932 -0.0843 -0.2201
H43 H 0.2680 -0.0207 -0.2332
O18 O 0.1737(4) 0.0998(4) -0.05824(10)
H45 H 0.1304 0.1178 -0.0516
H46 H 0.1827 0.1222 -0.0732
O19 O 0.1877(3) -0.1502(5) -0.09880(9)
H48 H 0.1906 -0.2112 -0.0953
H49 H 0.1545 -0.1397 -0.0869
O20 O 0.2839(3) -0.3219(4) -0.10732(8)
H47 H 0.3050 -0.3206 -0.1222
H50 H 0.2997 -0.3809 -0.1055
loop_
_geom_bond_atom_site_label_1
_geom_bond_atom_site_label_2
_geom_bond_site_symmetry_1
_geom_bond_site_symmetry_2
Cd1 N3 1_555 1_555
Cd2 N1 1_555 1_555
Cd3 N10 1_555 1_555
N1 C1 1_555 1_555
N2 Cd2 1_555 1_555
N3 C19 1_555 1_555
N4 Cd1 1_555 1_555
N5 C6 1_555 1_555
N6 H1 1_555 1_555
N7 C24 1_555 1_555
N8 H2 1_555 1_555
N9 C10 1_555 1_555
N10 C28 1_555 1_555
O1 C43 1_555 1_555
O2 Cd2 1_555 1_555
O3 C44 1_555 1_555
O4 Cd1 1_555 1_555
O5 C51 1_555 1_555
O6 Cd1 1_555 1_555
O7 C52 1_555 1_555
O8 C52 1_555 1_555
O9 Cd3 1_555 1_555
O10 C59 1_555 1_555
O11 C60 1_555 1_555
O12 C60 1_555 1_555
C1 H3 1_555 1_555
C2 C1 1_555 1_555
H4 C2 1_555 1_555
C3 C2 1_555 1_555
H5 C3 1_555 1_555
C4 C3 1_555 1_555
C5 N6 1_555 1_555
C6 N6 1_555 1_555
C7 C6 1_555 1_555
C8 C7 1_555 1_555
H6 C8 1_555 1_555
C9 C8 1_555 1_555
H7 C9 1_555 1_555
C10 C9 1_555 1_555
H8 C10 1_555 1_555
C11 N9 1_555 1_555
H9 C11 1_555 1_555
C12 N5 1_555 1_555
C13 C12 1_555 1_555
C14 C13 1_555 1_555
H10 C14 1_555 1_555
C15 C14 1_555 1_555
H11 C15 1_555 1_555
C16 N2 1_555 1_555
H12 C16 1_555 1_555
C17 N2 1_555 1_555
C18 N1 1_555 1_555
C19 H13 1_555 1_555
C20 C19 1_555 1_555
H14 C20 1_555 1_555
C21 C20 1_555 1_555
H15 C21 1_555 1_555
C22 C21 1_555 1_555
C23 N8 1_555 1_555
C24 N8 1_555 1_555
C25 C24 1_555 1_555
C26 C25 1_555 1_555
H16 C26 1_555 1_555
C27 C26 1_555 1_555
H17 C27 1_555 1_555
C28 C27 1_555 1_555
H18 C28 1_555 1_555
C29 N10 1_555 1_555
H19 C29 1_555 1_555
C30 N7 1_555 1_555
C31 C30 1_555 1_555
C32 C31 1_555 1_555
H20 C32 1_555 1_555
C33 C32 1_555 1_555
H21 C33 1_555 1_555
C34 N4 1_555 1_555
H22 C34 1_555 1_555
C35 N4 1_555 1_555
C36 N3 1_555 1_555
C37 C38 1_555 1_555
C38 H23 1_555 1_555
C39 C38 1_555 1_555
H24 C39 1_555 1_555
C40 C39 1_555 1_555
H25 C40 1_555 1_555
C41 C40 1_555 1_555
C42 C37 1_555 1_555
H26 C42 1_555 1_555
C43 O2 1_555 1_555
C44 O4 1_555 1_555
C45 C46 1_555 1_555
C46 H27 1_555 1_555
C47 C46 1_555 1_555
C48 C47 1_555 1_555
H28 C48 1_555 1_555
C49 C48 1_555 1_555
H29 C49 1_555 1_555
C50 C45 1_555 1_555
H30 C50 1_555 1_555
C51 O6 1_555 1_555
C52 C47 1_555 1_555
C53 C54 1_555 1_555
C54 H31 1_555 1_555
C55 C54 1_555 1_555
H32 C55 1_555 1_555
C56 C55 1_555 1_555
H33 C56 1_555 1_555
C57 C56 1_555 1_555
C58 C53 1_555 1_555
H34 C58 1_555 1_555
C59 O9 1_555 1_555
C60 C57 1_555 1_555
O13 H35 1_555 1_555
O14 H42 1_555 1_555
O15 H39 1_555 1_555
O16 H36 1_555 1_555
O17 H41 1_555 1_555
O18 H45 1_555 1_555
O19 H48 1_555 1_555
O20 H47 1_555 1_555
H37 O16 1_555 1_555
H38 O13 1_555 1_555
H40 O15 1_555 1_555
H43 O17 1_555 1_555
H44 O14 1_555 1_555
H46 O18 1_555 1_555
H49 O19 1_555 1_555
H50 O20 1_555 1_555
Cd1C O7 1_555 1_555
Cd2F O3 1_555 1_555
Cd3B N9 1_555 1_555
Cd3B_2 O11 1_555 1_555
Cd3F O12 1_555 1_555
N9B Cd3 1_555 1_555
O3F Cd2 1_555 1_555
O5F Cd2 1_555 1_555
O7C Cd1 1_555 1_555
O11B Cd3 1_555 1_555
O12F Cd3 1_555 1_555
O5 Cd2F 1_555 1_555
C4 C5 1_555 1_555
C4 C18 1_555 1_555
C5 C12 1_555 1_555
C7 C11 1_555 1_555
C13 C17 1_555 1_555
C15 C16 1_555 1_555
C17 C18 1_555 1_555
C22 C23 1_555 1_555
C22 C36 1_555 1_555
C23 C30 1_555 1_555
C25 C29 1_555 1_555
C31 C35 1_555 1_555
C33 C34 1_555 1_555
C35 C36 1_555 1_555
C37 C43 1_555 1_555
C41 C42 1_555 1_555
C41 C44 1_555 1_555
C45 C51 1_555 1_555
C49 C50 1_555 1_555
C53 C59 1_555 1_555
C57 C58 1_555 1_555

#END
