
#######################################################################
#
#                 Cambridge Crystallographic Data Centre
#                                CCDC 
#
#######################################################################
#
# If this CIF has been generated from an entry in the Cambridge 
# Structural Database, then it will include bibliographic, chemical, 
# crystal, experimental, refinement or atomic coordinate data resulting 
# from the CCDC's data processing and validation procedures.
#
#######################################################################

data_DOHYIJ01
_chemical_formula_moiety         '(C28 H20 Cu2 Eu2 N4 O18)n'
_symmetry_cell_setting           monoclinic
_symmetry_space_group_name_H-M   'P 21/c'
_symmetry_Int_Tables_number      14
_space_group_name_Hall           '-P 2ybc'
loop_
_symmetry_equiv_pos_site_id
_symmetry_equiv_pos_as_xyz
1 x,y,z
2 -x,1/2+y,1/2-z
3 -x,-y,-z
4 x,1/2-y,1/2+z
_cell_length_a                   9.5545(3)
_cell_length_b                   21.6026(7)
_cell_length_c                   9.2410(3)
_cell_angle_alpha                90
_cell_angle_beta                 116.151(2)
_cell_angle_gamma                90
_cell_volume                     1712.12
loop_
_atom_site_label
_atom_site_type_symbol
_atom_site_fract_x
_atom_site_fract_y
_atom_site_fract_z
Cu1 Cu 0.80865(8) 0.14573(3) 0.95951(9)
Eu1 Eu 1.14120(3) 0.508490(12) 0.87619(3)
C1 C 0.9225(6) 0.2673(3) 0.9706(6)
H1 H 0.8459 0.2764 1.0036
C2 C 1.0080(6) 0.3156(3) 0.9536(6)
C3 C 1.1245(7) 0.3022(3) 0.9073(7)
H2 H 1.1846 0.3336 0.8946
C4 C 1.1490(7) 0.2415(3) 0.8807(8)
H3 H 1.2275 0.2313 0.8513
C5 C 1.0572(7) 0.1958(3) 0.8977(7)
H4 H 1.0744 0.1551 0.8776
C6 C 0.9738(6) 0.3801(3) 0.9885(5)
C7 C 0.6239(7) 0.1324(3) 1.1295(7)
H5 H 0.7024 0.1562 1.2069
C8 C 0.5002(7) 0.1147(3) 1.1580(6)
H6 H 0.4971 0.1253 1.2540
C9 C 0.3826(7) 0.0814(3) 1.0441(6)
H7 H 0.2970 0.0696 1.0606
C10 C 0.3910(6) 0.0651(2) 0.9035(5)
C11 C 0.5205(6) 0.0827(3) 0.8848(6)
H8 H 0.5284 0.0703 0.7923
C12 C 0.2587(6) 0.0300(3) 0.7714(6)
C13 C 1.5081(6) 0.5352(3) 1.0118(5)
C14 C 0.9769(6) 0.0342(2) 1.0030(5)
N1 N 0.9432(5) 0.2078(2) 0.9423(5)
N2 N 0.6366(5) 0.1171(2) 0.9951(6)
O1 O 1.0336(5) 0.42465(18) 0.9485(4)
O2 O 0.8867(5) 0.38667(18) 1.0560(5)
O3 O 0.2871(5) 0.00550(17) 0.6638(4)
O4 O 0.1317(4) 0.0296(2) 0.7791(4)
O5 O 1.3838(4) 0.56618(17) 0.9489(4)
O6 O 1.6425(4) 0.55656(17) 1.0912(4)
O7 O 0.8821(4) 0.05797(17) 0.8714(4)
O8 O 1.0381(4) 0.06100(17) 1.1372(4)
Cu1B Cu 1.19135(8) -0.14573(3) 1.04049(9)
Cu1B_2 Cu 1.19135(8) 0.85427(3) 1.04049(9)
Cu1C Cu 1.80865(8) 0.35427(3) 1.45951(9)
Eu1B Eu 0.85880(3) 0.491510(12) 1.12381(3)
Eu1C Eu 0.14120(3) -0.008490(12) 0.37619(3)
Eu1A Eu -0.14120(3) 0.008490(12) 0.62381(3)
Eu1B_2 Eu 1.85880(3) 0.491510(12) 1.12381(3)
Eu1A_2 Eu 0.85880(3) 0.008490(12) 0.62381(3)
Eu1C_2 Eu 1.14120(3) -0.008490(12) 1.37619(3)
C1B C 1.0775(6) 0.7327(3) 1.0294(6)
H1B H 1.1541 0.7236 0.9964
C2B C 0.9920(6) 0.6844(3) 1.0464(6)
C3B C 0.8755(7) 0.6978(3) 1.0927(7)
H2B H 0.8154 0.6664 1.1054
C4B C 0.8510(7) 0.7585(3) 1.1193(8)
H3B H 0.7725 0.7687 1.1487
C5B C 0.9428(7) 0.8042(3) 1.1023(7)
H4B H 0.9256 0.8449 1.1224
C6B C 1.0262(6) 0.6199(3) 1.0115(5)
C7C C 1.6239(7) 0.3676(3) 1.6295(7)
H5C H 1.7024 0.3438 1.7069
C8C C 1.5002(7) 0.3853(3) 1.6580(6)
H6C H 1.4971 0.3747 1.7540
C9C C 1.3826(7) 0.4186(3) 1.5441(6)
H7C H 1.2970 0.4304 1.5606
C10C C 1.3910(6) 0.4349(2) 1.4035(5)
C11C C 1.5205(6) 0.4173(3) 1.3848(6)
H8C H 1.5284 0.4297 1.2923
C12C C 1.2587(6) 0.4700(3) 1.2714(6)
C13B C 1.4919(6) 0.4648(3) 0.9882(5)
C14B C 1.0231(6) -0.0342(2) 0.9970(5)
N1B N 1.0568(5) 0.7922(2) 1.0577(5)
N1B_2 N 1.0568(5) -0.2078(2) 1.0577(5)
N2C N 1.6366(5) 0.3829(2) 1.4951(6)
N2B N 1.3634(5) -0.1171(2) 1.0049(6)
O1B O 0.9664(5) 0.57535(18) 1.0515(4)
O1C O 1.0336(5) 0.07535(18) 1.4485(4)
O2B O 1.1133(5) 0.61333(18) 0.9440(5)
O2A O 1.1133(5) -0.11333(18) 1.4440(5)
O3C O 1.2871(5) 0.49450(17) 1.1638(4)
O3_2 O 1.2871(5) 0.00550(17) 1.6638(4)
O4C O 1.1317(4) 0.4704(2) 1.2791(4)
O4A O 0.8683(4) 0.5296(2) 0.7209(4)
O4B O 0.8683(4) -0.0296(2) 1.2209(4)
O5B O 1.6162(4) 0.43382(17) 1.0511(4)
O5C O 1.3838(4) -0.06618(17) 1.4489(4)
O6B O 1.3575(4) 0.44344(17) 0.9088(4)
O6A O 1.3575(4) 0.05656(17) 1.4088(4)
O7B O 1.1179(4) -0.05797(17) 1.1286(4)
O7A O 1.1179(4) 0.55797(17) 0.6286(4)
O8B O 0.9619(4) -0.06100(17) 0.8628(4)
O8C O 1.0381(4) 0.43900(17) 0.6372(4)
O9 O 0.6010(7) 0.2022(3) 0.5516(7)
H9 H 0.6264 0.1644 0.5533
H10 H 0.5122 0.2013 0.5522
O10 O 0.4596(8) 0.2644(3) 0.2592(7)
H11 H 0.5085 0.2469 0.2125
H12 H 0.4912 0.2460 0.3498
loop_
_geom_bond_atom_site_label_1
_geom_bond_atom_site_label_2
_geom_bond_site_symmetry_1
_geom_bond_site_symmetry_2
Cu1 N1 1_555 1_555
Eu1 O1 1_555 1_555
C1 H1 1_555 1_555
C2 C1 1_555 1_555
C3 C2 1_555 1_555
H2 C3 1_555 1_555
C4 C3 1_555 1_555
H3 C4 1_555 1_555
C5 C4 1_555 1_555
H4 C5 1_555 1_555
C6 C2 1_555 1_555
C7 H5 1_555 1_555
C8 C7 1_555 1_555
H6 C8 1_555 1_555
C9 C8 1_555 1_555
H7 C9 1_555 1_555
C10 C9 1_555 1_555
C11 C10 1_555 1_555
H8 C11 1_555 1_555
C12 C10 1_555 1_555
C13 O5 1_555 1_555
C14 O7 1_555 1_555
N1 C1 1_555 1_555
N2 Cu1 1_555 1_555
O1 C6 1_555 1_555
O2 C6 1_555 1_555
O3 C12 1_555 1_555
O4 C12 1_555 1_555
O5 Eu1 1_555 1_555
O6 C13 1_555 1_555
O7 Cu1 1_555 1_555
O8 C14 1_555 1_555
O9 H9 1_555 1_555
H10 O9 1_555 1_555
O10 H11 1_555 1_555
H12 O10 1_555 1_555
Cu1B N1B_2 1_555 1_555
Cu1B_2 N1B 1_555 1_555
Cu1C N2C 1_555 1_555
Eu1B O2 1_555 1_555
Eu1C O3 1_555 1_555
Eu1A O4 1_555 1_555
Eu1B_2 O6 1_555 1_555
Eu1A_2 O7 1_555 1_555
Eu1C_2 O8 1_555 1_555
C1B H1B 1_555 1_555
C2B C1B 1_555 1_555
C3B C2B 1_555 1_555
H2B C3B 1_555 1_555
C4B C3B 1_555 1_555
H3B C4B 1_555 1_555
C5B C4B 1_555 1_555
H4B C5B 1_555 1_555
C6B C2B 1_555 1_555
C7C H5C 1_555 1_555
C8C C7C 1_555 1_555
H6C C8C 1_555 1_555
C9C C8C 1_555 1_555
H7C C9C 1_555 1_555
C10C C9C 1_555 1_555
C11C C10C 1_555 1_555
H8C C11C 1_555 1_555
C12C C10C 1_555 1_555
C13B C13 1_555 1_555
C14B C14 1_555 1_555
N1B C1B 1_555 1_555
N2C C7C 1_555 1_555
N2B Cu1B 1_555 1_555
O1B Eu1B 1_555 1_555
O1C Eu1C_2 1_555 1_555
O2B Eu1 1_555 1_555
O2A Eu1C_2 1_555 1_555
O3C Eu1 1_555 1_555
O3_2 Eu1C_2 1_555 1_555
O4C Eu1B 1_555 1_555
O4A Eu1 1_555 1_555
O4B Eu1C_2 1_555 1_555
O5B Eu1B_2 1_555 1_555
O5C Eu1C_2 1_555 1_555
O6B Eu1 1_555 1_555
O6A Eu1C_2 1_555 1_555
O7B Cu1B 1_555 1_555
O7A Eu1 1_555 1_555
O8B Eu1A_2 1_555 1_555
O8C Eu1 1_555 1_555
C5 N1 1_555 1_555
C7 N2 1_555 1_555
C11 N2 1_555 1_555
Eu1C_2 O7B 1_555 1_555
C5B N1B 1_555 1_555
C6B O1B 1_555 1_555
C6B O2B 1_555 1_555
C11C N2C 1_555 1_555
C12C O3C 1_555 1_555
C12C O4C 1_555 1_555
C13B O5B 1_555 1_555
C13B O6B 1_555 1_555
C14B O7B 1_555 1_555
C14B O8B 1_555 1_555

#END
