
#######################################################################
#
#                 Cambridge Crystallographic Data Centre
#                                CCDC 
#
#######################################################################
#
# If this CIF has been generated from an entry in the Cambridge 
# Structural Database, then it will include bibliographic, chemical, 
# crystal, experimental, refinement or atomic coordinate data resulting 
# from the CCDC's data processing and validation procedures.
#
#######################################################################

data_WONXIH
_chemical_formula_moiety         '(C28 H20 Cu2 Gd2 N4 O18)n'
_symmetry_cell_setting           monoclinic
_symmetry_space_group_name_H-M   'P 21/c'
_symmetry_Int_Tables_number      14
_space_group_name_Hall           '-P 2ybc'
loop_
_symmetry_equiv_pos_site_id
_symmetry_equiv_pos_as_xyz
1 x,y,z
2 -x,1/2+y,1/2-z
3 -x,-y,-z
4 x,1/2-y,1/2+z
_cell_length_a                   9.5441(4)
_cell_length_b                   21.5841(11)
_cell_length_c                   9.2209(5)
_cell_angle_alpha                90
_cell_angle_beta                 116.219(3)
_cell_angle_gamma                90
_cell_volume                     1704.08
loop_
_atom_site_label
_atom_site_type_symbol
_atom_site_fract_x
_atom_site_fract_y
_atom_site_fract_z
Cu1 Cu 0.80864(7) 0.14593(3) 0.95995(9)
Gd1 Gd 1.14168(2) 0.508460(10) 0.87590(3)
C1 C 0.9236(6) 0.2673(2) 0.9713(6)
H1 H 0.8474 0.2763 1.0052
C2 C 1.0098(5) 0.3164(2) 0.9550(6)
C3 C 1.1260(6) 0.3021(3) 0.9068(7)
H2 H 1.1866 0.3333 0.8933
C4 C 1.1490(6) 0.2411(3) 0.8796(7)
H3 H 1.2259 0.2306 0.8479
C5 C 1.0576(6) 0.1956(3) 0.8995(7)
H4 H 1.0766 0.1545 0.8833
C6 C 0.9757(5) 0.3805(2) 0.9878(5)
C7 C 0.6228(6) 0.1326(3) 1.1281(6)
H5 H 0.7018 0.1564 1.2054
C8 C 0.4991(6) 0.1156(3) 1.1577(6)
H6 H 0.4954 0.1274 1.2530
C9 C 0.3814(6) 0.0810(3) 1.0441(6)
H7 H 0.2967 0.0686 1.0614
C10 C 0.3902(5) 0.0648(2) 0.9033(6)
C11 C 0.5190(6) 0.0826(2) 0.8840(6)
H8 H 0.5263 0.0707 0.7907
C12 C 0.2580(5) 0.0300(2) 0.7691(6)
C13 C 1.5077(5) 0.5354(2) 1.0113(5)
C14 C 0.9773(5) 0.0342(2) 1.0036(5)
N1 N 0.9427(5) 0.20791(19) 0.9413(6)
N2 N 0.6360(5) 0.1170(2) 0.9954(5)
O1 O 1.0362(4) 0.42457(17) 0.9481(4)
O2 O 0.8879(4) 0.38744(16) 1.0548(4)
O3 O 0.2854(4) 0.00472(15) 0.6631(4)
O4 O 0.1314(4) 0.02911(18) 0.7786(4)
O5 O 1.3838(4) 0.56643(15) 0.9487(4)
O6 O 1.6434(4) 0.55661(15) 1.0919(4)
O7 O 0.8822(4) 0.05829(15) 0.8711(4)
O8 O 1.0386(4) 0.06102(15) 1.1369(4)
Cu1B Cu 1.19136(7) -0.14593(3) 1.04005(9)
Cu1B_2 Cu 1.19136(7) 0.85407(3) 1.04005(9)
Cu1C Cu 1.80864(7) 0.35407(3) 1.45995(9)
Gd1C Gd 1.14168(2) -0.008460(10) 1.37590(3)
Gd1B Gd 0.85832(2) 0.491540(10) 1.12410(3)
Gd1C_2 Gd 0.14168(2) -0.008460(10) 0.37590(3)
Gd1A Gd -0.14168(2) 0.008460(10) 0.62410(3)
Gd1B_2 Gd 1.85832(2) 0.491540(10) 1.12410(3)
Gd1A_2 Gd 0.85832(2) 0.008460(10) 0.62410(3)
C1B C 1.0764(6) 0.7327(2) 1.0287(6)
H1B H 1.1526 0.7237 0.9948
C2B C 0.9902(5) 0.6836(2) 1.0450(6)
C3B C 0.8740(6) 0.6979(3) 1.0932(7)
H2B H 0.8134 0.6667 1.1067
C4B C 0.8510(6) 0.7589(3) 1.1204(7)
H3B H 0.7741 0.7694 1.1521
C5B C 0.9424(6) 0.8044(3) 1.1005(7)
H4B H 0.9234 0.8455 1.1167
C6B C 1.0243(5) 0.6195(2) 1.0122(5)
C7C C 1.6228(6) 0.3674(3) 1.6281(6)
H5C H 1.7018 0.3436 1.7054
C8C C 1.4991(6) 0.3844(3) 1.6577(6)
H6C H 1.4954 0.3726 1.7530
C9C C 1.3814(6) 0.4190(3) 1.5441(6)
H7C H 1.2967 0.4314 1.5614
C10C C 1.3902(5) 0.4352(2) 1.4033(6)
C11C C 1.5190(6) 0.4174(2) 1.3840(6)
H8C H 1.5263 0.4293 1.2907
C12C C 1.2580(5) 0.4700(2) 1.2691(6)
C13B C 1.4923(5) 0.4646(2) 0.9887(5)
C14B C 1.0227(5) -0.0342(2) 0.9964(5)
N1B N 1.0573(5) 0.79209(19) 1.0587(6)
N1B_2 N 1.0573(5) -0.20791(19) 1.0587(6)
N2C N 1.6360(5) 0.3830(2) 1.4954(5)
N2B N 1.3640(5) -0.1170(2) 1.0046(5)
O1B O 0.9638(4) 0.57543(17) 1.0519(4)
O1C O 1.0362(4) 0.07543(17) 1.4481(4)
O2B O 1.1121(4) 0.61256(16) 0.9452(4)
O2A O 1.1121(4) -0.11256(16) 1.4452(4)
O3C O 1.2854(4) 0.49528(15) 1.1631(4)
O3_2 O 1.2854(4) 0.00472(15) 1.6631(4)
O4C O 1.1314(4) 0.47089(18) 1.2786(4)
O4A O 0.8686(4) 0.52911(18) 0.7214(4)
O4B O 0.8686(4) -0.02911(18) 1.2214(4)
O5B O 1.6162(4) 0.43357(15) 1.0513(4)
O5C O 1.3838(4) -0.06643(15) 1.4487(4)
O6B O 1.3566(4) 0.44339(15) 0.9081(4)
O6A O 1.3566(4) 0.05661(15) 1.4081(4)
O7B O 1.1178(4) -0.05829(15) 1.1289(4)
O7A O 1.1178(4) 0.55829(15) 0.6289(4)
O8B O 0.9614(4) -0.06102(15) 0.8631(4)
O8C O 1.0386(4) 0.43898(15) 0.6369(4)
O9 O 0.6012(6) 0.2015(2) 0.5496(6)
H9 H 0.5464 0.2067 0.6004
H10 H 0.6065 0.1625 0.5408
O10 O 0.4622(7) 0.2653(3) 0.2588(7)
H11 H 0.3863 0.2419 0.2008
H12 H 0.5123 0.2451 0.3461
loop_
_geom_bond_atom_site_label_1
_geom_bond_atom_site_label_2
_geom_bond_site_symmetry_1
_geom_bond_site_symmetry_2
Cu1 N1 1_555 1_555
Gd1 O1 1_555 1_555
C1 H1 1_555 1_555
C2 C1 1_555 1_555
C3 C2 1_555 1_555
H2 C3 1_555 1_555
C4 C3 1_555 1_555
H3 C4 1_555 1_555
C5 C4 1_555 1_555
H4 C5 1_555 1_555
C6 C2 1_555 1_555
C7 H5 1_555 1_555
C8 C7 1_555 1_555
H6 C8 1_555 1_555
C9 C8 1_555 1_555
H7 C9 1_555 1_555
C10 C9 1_555 1_555
C11 C10 1_555 1_555
H8 C11 1_555 1_555
C12 C10 1_555 1_555
C13 O5 1_555 1_555
C14 O7 1_555 1_555
N1 C1 1_555 1_555
N2 Cu1 1_555 1_555
O1 C6 1_555 1_555
O2 C6 1_555 1_555
O3 C12 1_555 1_555
O4 C12 1_555 1_555
O5 Gd1 1_555 1_555
O6 C13 1_555 1_555
O7 Cu1 1_555 1_555
O8 C14 1_555 1_555
O9 H9 1_555 1_555
H10 O9 1_555 1_555
O10 H11 1_555 1_555
H12 O10 1_555 1_555
Cu1B N1B_2 1_555 1_555
Cu1B_2 N1B 1_555 1_555
Cu1C N2C 1_555 1_555
Gd1C O8 1_555 1_555
Gd1B O2 1_555 1_555
Gd1C_2 O3 1_555 1_555
Gd1A O4 1_555 1_555
Gd1B_2 O6 1_555 1_555
Gd1A_2 O7 1_555 1_555
C1B H1B 1_555 1_555
C2B C1B 1_555 1_555
C3B C2B 1_555 1_555
H2B C3B 1_555 1_555
C4B C3B 1_555 1_555
H3B C4B 1_555 1_555
C5B C4B 1_555 1_555
H4B C5B 1_555 1_555
C6B C2B 1_555 1_555
C7C H5C 1_555 1_555
C8C C7C 1_555 1_555
H6C C8C 1_555 1_555
C9C C8C 1_555 1_555
H7C C9C 1_555 1_555
C10C C9C 1_555 1_555
C11C C10C 1_555 1_555
H8C C11C 1_555 1_555
C12C C10C 1_555 1_555
C13B C13 1_555 1_555
C14B C14 1_555 1_555
N1B C1B 1_555 1_555
N2C C7C 1_555 1_555
N2B Cu1B 1_555 1_555
O1B Gd1B 1_555 1_555
O1C Gd1C 1_555 1_555
O2B Gd1 1_555 1_555
O2A Gd1C 1_555 1_555
O3C Gd1 1_555 1_555
O3_2 Gd1C 1_555 1_555
O4C Gd1B 1_555 1_555
O4A Gd1 1_555 1_555
O4B Gd1C 1_555 1_555
O5B Gd1B_2 1_555 1_555
O5C Gd1C 1_555 1_555
O6B Gd1 1_555 1_555
O6A Gd1C 1_555 1_555
O7B Cu1B 1_555 1_555
O7A Gd1 1_555 1_555
O8B Gd1A_2 1_555 1_555
O8C Gd1 1_555 1_555
C5 N1 1_555 1_555
C7 N2 1_555 1_555
C11 N2 1_555 1_555
Gd1C O7B 1_555 1_555
C5B N1B 1_555 1_555
C6B O1B 1_555 1_555
C6B O2B 1_555 1_555
C11C N2C 1_555 1_555
C12C O3C 1_555 1_555
C12C O4C 1_555 1_555
C13B O5B 1_555 1_555
C13B O6B 1_555 1_555
C14B O7B 1_555 1_555
C14B O8B 1_555 1_555

#END
