
#######################################################################
#
#                 Cambridge Crystallographic Data Centre
#                                CCDC 
#
#######################################################################
#
# If this CIF has been generated from an entry in the Cambridge 
# Structural Database, then it will include bibliographic, chemical, 
# crystal, experimental, refinement or atomic coordinate data resulting 
# from the CCDC's data processing and validation procedures.
#
#######################################################################

data_OKIZOZ
_chemical_formula_moiety         '(C38 H30 Co2 N4 O10)n'
_symmetry_cell_setting           tetragonal
_symmetry_space_group_name_H-M   'I -4 2 d'
_symmetry_Int_Tables_number      122
_space_group_name_Hall           'I -4 2bw'
loop_
_symmetry_equiv_pos_site_id
_symmetry_equiv_pos_as_xyz
1 x,y,z
2 y,-x,-z
3 -x,-y,z
4 -y,x,-z
5 x,1/2-y,1/4-z
6 -x,1/2+y,1/4-z
7 -y,1/2-x,1/4+z
8 y,1/2+x,1/4+z
9 1/2+x,1/2+y,1/2+z
10 1/2+y,1/2-x,1/2-z
11 1/2-x,1/2-y,1/2+z
12 1/2-y,1/2+x,1/2-z
13 1/2+x,-y,3/4-z
14 1/2-x,y,3/4-z
15 1/2-y,-x,3/4+z
16 1/2+y,x,3/4+z
_cell_length_a                   25.041(4)
_cell_length_b                   25.041(4)
_cell_length_c                   15.542(3)
_cell_angle_alpha                90
_cell_angle_beta                 90
_cell_angle_gamma                90
_cell_volume                     9745.64
loop_
_atom_site_label
_atom_site_type_symbol
_atom_site_fract_x
_atom_site_fract_y
_atom_site_fract_z
_atom_site_U_iso_or_equiv
_atom_site_thermal_displace_type
Co1 Co 0.51623(3) 0.30520(2) 0.11399(4) 0.0347 Uani
O1 O 0.57754(16) 0.29729(15) 0.2045(2) 0.0457 Uani
O2 O 0.57250(19) 0.20957(15) 0.2269(3) 0.0513 Uani
O3 O 0.7355(2) 0.27350(19) 0.5202(3) 0.0703 Uani
O4 O 0.79730(18) 0.45638(18) 0.7797(3) 0.0580 Uani
O5 O 0.70957(19) 0.46488(18) 0.7851(3) 0.0573 Uani
N1 N 0.5201(2) 0.38587(16) 0.1334(3) 0.0510 Uani
N2 N 0.5637(3) 0.4050(2) 0.1743(5) 0.1030 Uani
H1 H 0.5907 0.3859 0.1886 0.1230 Uiso
C1 C 0.5906(2) 0.2554(2) 0.2430(4) 0.0420 Uani
C2 C 0.6292(2) 0.2608(2) 0.3157(4) 0.0440 Uani
C3 C 0.6478(3) 0.3102(3) 0.3416(4) 0.0523 Uani
H2 H 0.6364 0.3405 0.3122 0.0630 Uiso
C4 C 0.6824(3) 0.3160(3) 0.4096(4) 0.0610 Uani
H3 H 0.6940 0.3498 0.4260 0.0730 Uiso
C5 C 0.6998(3) 0.2716(3) 0.4531(4) 0.0557 Uani
C6 C 0.6834(3) 0.2216(2) 0.4283(4) 0.0597 Uani
H4 H 0.6954 0.1915 0.4576 0.0720 Uiso
C7 C 0.6488(3) 0.2163(2) 0.3586(4) 0.0533 Uani
H5 H 0.6387 0.1824 0.3405 0.0640 Uiso
C8 C 0.7365(3) 0.3173(2) 0.5768(4) 0.0503 Uani
C9 C 0.7858(3) 0.3286(3) 0.6117(4) 0.0570 Uani
H6 H 0.8156 0.3086 0.5962 0.0680 Uiso
C10 C 0.7904(2) 0.3702(3) 0.6702(4) 0.0503 Uani
H7 H 0.8237 0.3788 0.6930 0.0610 Uiso
C11 C 0.7460(3) 0.3989(2) 0.6945(3) 0.0450 Uani
C12 C 0.6957(3) 0.3851(3) 0.6614(4) 0.0537 Uani
H8 H 0.6652 0.4030 0.6794 0.0640 Uiso
C13 C 0.6925(3) 0.3444(3) 0.6016(4) 0.0620 Uani
H9 H 0.6595 0.3356 0.5781 0.0750 Uiso
C14 C 0.7518(3) 0.4425(2) 0.7580(3) 0.0443 Uani
C15 C 0.5596(5) 0.4569(3) 0.1897(8) 0.1217 Uani
C16 C 0.5094(4) 0.4728(2) 0.1566(5) 0.0677 Uani
C17 C 0.4887(3) 0.4268(2) 0.1205(4) 0.0540 Uani
C18 C 0.4378(3) 0.4214(3) 0.0736(8) 0.0983 Uani
H10 H 0.4428 0.3986 0.0247 0.1480 Uiso
H11 H 0.4261 0.4559 0.0547 0.1480 Uiso
H12 H 0.4114 0.4061 0.1110 0.1480 Uiso
C19 C 0.6053(7) 0.4873(4) 0.2319(12) 0.2283 Uani
H13 H 0.6033 0.4831 0.2932 0.3470 Uiso
H14 H 0.6026 0.5245 0.2175 0.3470 Uiso
H15 H 0.6387 0.4735 0.2115 0.3470 Uiso
N1B N 0.4799(2) 0.61413(16) 0.1334(3) 0.0510 Uani
N2B N 0.4363(3) 0.5950(2) 0.1743(5) 0.1030 Uani
H1B H 0.4093 0.6141 0.1886 0.1230 Uiso
C15B C 0.4404(5) 0.5431(3) 0.1897(8) 0.1217 Uani
C16B C 0.4906(4) 0.5272(2) 0.1566(5) 0.0677 Uani
C17B C 0.5113(3) 0.5732(2) 0.1205(4) 0.0540 Uani
C18B C 0.5622(3) 0.5786(3) 0.0736(8) 0.0983 Uani
H10B H 0.5572 0.6014 0.0247 0.1480 Uiso
H11B H 0.5739 0.5441 0.0547 0.1480 Uiso
H12B H 0.5886 0.5939 0.1110 0.1480 Uiso
C19B C 0.3947(7) 0.5127(4) 0.2319(12) 0.2283 Uani
H13B H 0.3967 0.5169 0.2932 0.3470 Uiso
H14B H 0.3974 0.4755 0.2175 0.3470 Uiso
H15B H 0.3613 0.5265 0.2115 0.3470 Uiso
Co1A Co 0.30520(2) 0.48377(3) 0.88601(4) 0.0347 Uani
O1A O 0.29729(15) 0.42246(16) 0.7955(2) 0.0457 Uani
O2A O 0.20957(15) 0.42750(19) 0.7731(3) 0.0513 Uani
O3A O 0.27350(19) 0.2645(2) 0.4798(3) 0.0703 Uani
O4A O 0.45638(18) 0.20270(18) 0.2203(3) 0.0580 Uani
O5A O 0.46488(18) 0.29043(19) 0.2149(3) 0.0573 Uani
C1A C 0.2554(2) 0.4094(2) 0.7570(4) 0.0420 Uani
C2A C 0.2608(2) 0.3708(2) 0.6843(4) 0.0440 Uani
C3A C 0.3102(3) 0.3522(3) 0.6584(4) 0.0523 Uani
H2A H 0.3405 0.3636 0.6878 0.0630 Uiso
C4A C 0.3160(3) 0.3176(3) 0.5904(4) 0.0610 Uani
H3A H 0.3498 0.3060 0.5740 0.0730 Uiso
C5A C 0.2716(3) 0.3002(3) 0.5469(4) 0.0557 Uani
C6A C 0.2216(2) 0.3166(3) 0.5717(4) 0.0597 Uani
H4A H 0.1915 0.3046 0.5424 0.0720 Uiso
C7A C 0.2163(2) 0.3512(3) 0.6414(4) 0.0533 Uani
H5A H 0.1824 0.3613 0.6595 0.0640 Uiso
C8A C 0.3173(2) 0.2635(3) 0.4232(4) 0.0503 Uani
C9A C 0.3286(3) 0.2142(3) 0.3883(4) 0.0570 Uani
H6A H 0.3086 0.1844 0.4038 0.0680 Uiso
C10A C 0.3702(3) 0.2096(2) 0.3298(4) 0.0503 Uani
H7A H 0.3788 0.1763 0.3070 0.0610 Uiso
C11A C 0.3989(2) 0.2540(3) 0.3055(3) 0.0450 Uani
C12A C 0.3851(3) 0.3043(3) 0.3386(4) 0.0537 Uani
H8A H 0.4030 0.3348 0.3206 0.0640 Uiso
C13A C 0.3444(3) 0.3075(3) 0.3984(4) 0.0620 Uani
H9A H 0.3356 0.3405 0.4219 0.0750 Uiso
C14A C 0.4425(2) 0.2482(3) 0.2420(3) 0.0443 Uani
Co1B Co 0.48377(3) 0.69480(2) 0.11399(4) 0.0347 Uani
Co1C Co 0.69480(2) 0.51623(3) 0.88601(4) 0.0347 Uani
Co1D Co 0.51623(3) 0.19480(2) 0.13601(4) 0.0347 Uani
Co1N Co 0.19480(2) 0.48377(3) 0.86399(4) 0.0347 Uani
Co1O Co 0.80520(2) 0.51623(3) 0.86399(4) 0.0347 Uani
O2D O 0.57250(19) 0.29043(15) 0.0231(3) 0.0513 Uani
O2N O 0.29043(15) 0.42750(19) 0.9769(3) 0.0513 Uani
O4G O 0.45638(18) 0.29730(18) 0.0297(3) 0.0580 Uani
O4L O 0.29730(18) 0.54362(18) 0.9703(3) 0.0580 Uani
O5B O 0.29043(19) 0.53512(18) 0.7851(3) 0.0573 Uani
N1A N 0.38587(16) 0.4799(2) 0.8666(3) 0.0510 Uani
loop_
_atom_site_aniso_label
_atom_site_aniso_U_11
_atom_site_aniso_U_22
_atom_site_aniso_U_33
_atom_site_aniso_U_23
_atom_site_aniso_U_13
_atom_site_aniso_U_12
Co1 0.0480(4) 0.0221(3) 0.0339(3) -0.0023(2) -0.0006(3) 0.0006(3)
O1 0.057(2) 0.035(2) 0.045(2) 0.0008(16) -0.0156(18) 0.0046(17)
O2 0.076(3) 0.032(2) 0.046(2) -0.0024(17) -0.019(2) -0.0101(19)
O3 0.085(4) 0.059(3) 0.067(3) -0.020(2) -0.036(3) 0.017(2)
O4 0.046(3) 0.065(3) 0.063(3) -0.025(2) -0.007(2) 0.000(2)
O5 0.059(3) 0.060(3) 0.053(2) -0.016(2) -0.002(2) 0.005(2)
N1 0.069(3) 0.030(2) 0.054(3) 0.004(2) -0.009(3) 0.005(2)
N2 0.142(7) 0.032(3) 0.135(6) -0.005(3) -0.102(6) 0.003(3)
C1 0.043(3) 0.044(3) 0.039(3) -0.005(2) -0.004(2) 0.004(2)
C2 0.053(3) 0.042(3) 0.037(3) -0.005(2) -0.011(2) 0.003(2)
C3 0.072(4) 0.038(3) 0.047(3) -0.001(3) -0.016(3) 0.006(3)
C4 0.083(5) 0.043(3) 0.057(4) -0.014(3) -0.019(3) 0.005(3)
C5 0.064(4) 0.058(4) 0.045(3) -0.008(3) -0.012(3) 0.008(3)
C6 0.089(5) 0.036(3) 0.054(3) -0.007(3) -0.034(3) 0.015(3)
C7 0.080(4) 0.038(3) 0.042(3) -0.004(2) -0.013(3) 0.001(3)
C8 0.062(4) 0.046(3) 0.043(3) -0.010(2) -0.016(3) 0.002(3)
C9 0.060(4) 0.063(4) 0.048(3) -0.008(3) -0.013(3) 0.012(3)
C10 0.042(3) 0.064(4) 0.045(3) -0.010(3) -0.012(2) -0.006(3)
C11 0.048(3) 0.051(3) 0.036(3) 0.000(2) -0.005(2) 0.001(3)
C12 0.049(3) 0.059(4) 0.053(3) -0.009(3) -0.010(3) 0.009(3)
C13 0.058(4) 0.065(4) 0.063(4) -0.019(3) -0.022(3) -0.007(3)
C14 0.053(3) 0.052(3) 0.028(3) -0.007(2) -0.007(2) 0.001(3)
C15 0.183(11) 0.042(4) 0.140(9) -0.010(5) -0.101(9) -0.006(5)
C16 0.107(6) 0.025(3) 0.071(4) -0.003(3) -0.015(4) 0.007(3)
C17 0.074(4) 0.029(2) 0.059(4) 0.011(3) 0.017(3) 0.002(3)
C18 0.065(5) 0.044(4) 0.186(11) -0.002(5) -0.033(6) 0.005(3)
C19 0.30(2) 0.065(7) 0.32(2) -0.020(10) -0.24(2) -0.033(10)
N1B 0.069 0.03 0.054 -0.004 0.009 0.005
N2B 0.142 0.032 0.135 0.005 0.102 0.003
C15B 0.183 0.042 0.14 0.01 0.101 -0.006
C16B 0.107 0.025 0.071 0.003 0.015 0.007
C17B 0.074 0.029 0.059 -0.011 -0.017 0.002
C18B 0.065 0.044 0.186 0.002 0.033 0.005
C19B 0.3 0.065 0.32 0.02 0.24 -0.033
Co1A 0.0221 0.048 0.0339 -0.0006 0.0023 -0.0006
O1A 0.035 0.057 0.045 -0.0156 -0.0008 -0.0046
O2A 0.032 0.076 0.046 -0.019 0.0024 0.0101
O3A 0.059 0.085 0.067 -0.036 0.02 -0.017
O4A 0.065 0.046 0.063 -0.007 0.025 0
O5A 0.06 0.059 0.053 -0.002 0.016 -0.005
C1A 0.044 0.043 0.039 -0.004 0.005 -0.004
C2A 0.042 0.053 0.037 -0.011 0.005 -0.003
C3A 0.038 0.072 0.047 -0.016 0.001 -0.006
C4A 0.043 0.083 0.057 -0.019 0.014 -0.005
C5A 0.058 0.064 0.045 -0.012 0.008 -0.008
C6A 0.036 0.089 0.054 -0.034 0.007 -0.015
C7A 0.038 0.08 0.042 -0.013 0.004 -0.001
C8A 0.046 0.062 0.043 -0.016 0.01 -0.002
C9A 0.063 0.06 0.048 -0.013 0.008 -0.012
C10A 0.064 0.042 0.045 -0.012 0.01 0.006
C11A 0.051 0.048 0.036 -0.005 0 -0.001
C12A 0.059 0.049 0.053 -0.01 0.009 -0.009
C13A 0.065 0.058 0.063 -0.022 0.019 0.007
C14A 0.052 0.053 0.028 -0.007 0.007 -0.001
Co1B 0.048 0.0221 0.0339 0.0023 0.0006 0.0006
Co1C 0.0221 0.048 0.0339 0.0006 -0.0023 -0.0006
Co1D 0.048 0.0221 0.0339 -0.0023 0.0006 -0.0006
Co1N 0.0221 0.048 0.0339 0.0006 0.0023 0.0006
Co1O 0.0221 0.048 0.0339 -0.0006 -0.0023 0.0006
O2D 0.076 0.032 0.046 -0.0024 0.019 0.0101
O2N 0.032 0.076 0.046 0.019 0.0024 -0.0101
O4G 0.065 0.046 0.063 -0.007 -0.025 0
O4L 0.046 0.065 0.063 -0.025 0.007 0
O5B 0.059 0.06 0.053 0.016 0.002 0.005
N1A 0.03 0.069 0.054 -0.009 -0.004 -0.005
loop_
_geom_bond_atom_site_label_1
_geom_bond_atom_site_label_2
_geom_bond_site_symmetry_1
_geom_bond_site_symmetry_2
Co1 O1 1_555 1_555
O1 C1 1_555 1_555
O2 C1 1_555 1_555
O3 C5 1_555 1_555
O4 C14 1_555 1_555
O5 C14 1_555 1_555
N1 Co1 1_555 1_555
N2 N1 1_555 1_555
H1 N2 1_555 1_555
C1 C2 1_555 1_555
C2 C3 1_555 1_555
C3 H2 1_555 1_555
C4 C3 1_555 1_555
H3 C4 1_555 1_555
C5 C4 1_555 1_555
C6 C5 1_555 1_555
H4 C6 1_555 1_555
C7 C2 1_555 1_555
H5 C7 1_555 1_555
C8 O3 1_555 1_555
C9 C8 1_555 1_555
H6 C9 1_555 1_555
C10 C9 1_555 1_555
H7 C10 1_555 1_555
C11 C10 1_555 1_555
C12 C11 1_555 1_555
H8 C12 1_555 1_555
C13 C8 1_555 1_555
H9 C13 1_555 1_555
C14 C11 1_555 1_555
C15 N2 1_555 1_555
C16 C15 1_555 1_555
C17 N1 1_555 1_555
C18 C17 1_555 1_555
H10 C18 1_555 1_555
H11 C18 1_555 1_555
H12 C18 1_555 1_555
C19 C15 1_555 1_555
H13 C19 1_555 1_555
H14 C19 1_555 1_555
H15 C19 1_555 1_555
N1B N2B 1_555 1_555
N2B H1B 1_555 1_555
C15B N2B 1_555 1_555
C16B C16 1_555 1_555
C17B N1B 1_555 1_555
C18B C17B 1_555 1_555
H10B C18B 1_555 1_555
H11B C18B 1_555 1_555
H12B C18B 1_555 1_555
C19B C15B 1_555 1_555
H13B C19B 1_555 1_555
H14B C19B 1_555 1_555
H15B C19B 1_555 1_555
Co1A O1A 1_555 1_555
O1A C1A 1_555 1_555
O2A C1A 1_555 1_555
O3A C5A 1_555 1_555
O4A C14A 1_555 1_555
O5A Co1 1_555 1_555
C1A C2A 1_555 1_555
C2A C3A 1_555 1_555
C3A H2A 1_555 1_555
C4A C3A 1_555 1_555
H3A C4A 1_555 1_555
C5A C4A 1_555 1_555
C6A C5A 1_555 1_555
H4A C6A 1_555 1_555
C7A C2A 1_555 1_555
H5A C7A 1_555 1_555
C8A O3A 1_555 1_555
C9A C8A 1_555 1_555
H6A C9A 1_555 1_555
C10A C9A 1_555 1_555
H7A C10A 1_555 1_555
C11A C10A 1_555 1_555
C12A C11A 1_555 1_555
H8A C12A 1_555 1_555
C13A C8A 1_555 1_555
H9A C13A 1_555 1_555
C14A O5A 1_555 1_555
Co1B N1B 1_555 1_555
Co1C O5 1_555 1_555
Co1D Co1 1_555 1_555
Co1N Co1A 1_555 1_555
Co1O O4 1_555 1_555
O2D Co1 1_555 1_555
O2N Co1A 1_555 1_555
O4G Co1 1_555 1_555
O4L Co1A 1_555 1_555
O5B Co1A 1_555 1_555
N1A Co1A 1_555 1_555
O2 Co1D 1_555 1_555
C6 C7 1_555 1_555
C12 C13 1_555 1_555
C16 C17 1_555 1_555
C15B C16B 1_555 1_555
C16B C17B 1_555 1_555
O2A Co1N 1_555 1_555
O4A Co1D 1_555 1_555
C6A C7A 1_555 1_555
C11A C14A 1_555 1_555
C12A C13A 1_555 1_555
Co1C Co1O 1_555 1_555

#END
