
#######################################################################
#
#                 Cambridge Crystallographic Data Centre
#                                CCDC 
#
#######################################################################
#
# If this CIF has been generated from an entry in the Cambridge 
# Structural Database, then it will include bibliographic, chemical, 
# crystal, experimental, refinement or atomic coordinate data resulting 
# from the CCDC's data processing and validation procedures.
#
#######################################################################

data_XOTSIK
_chemical_formula_moiety         '(C159 H121 Cd6 N5 O30)n'
_symmetry_cell_setting           orthorhombic
_symmetry_space_group_name_H-M   'P n a 21'
_symmetry_Int_Tables_number      33
_space_group_name_Hall           'P 2c -2n'
loop_
_symmetry_equiv_pos_site_id
_symmetry_equiv_pos_as_xyz
1 x,y,z
2 -x,-y,1/2+z
3 1/2-x,1/2+y,1/2+z
4 1/2+x,1/2-y,z
_cell_length_a                   42.439(10)
_cell_length_b                   13.969(4)
_cell_length_c                   33.470(8)
_cell_angle_alpha                90
_cell_angle_beta                 90
_cell_angle_gamma                90
_cell_volume                     19842
loop_
_atom_site_label
_atom_site_type_symbol
_atom_site_fract_x
_atom_site_fract_y
_atom_site_fract_z
Cd4 Cd 0.862560(19) 0.69399(7) 0.69966(3)
Cd5 Cd 0.83897(2) 0.91583(7) 0.74666(3)
O16 O 0.8471(2) 0.9399(7) 0.6822(3)
C82 C 0.7528(3) 1.1272(10) 0.2410(4)
H63 H 0.7480 1.0788 0.2229
C83 C 0.8869(3) 1.1330(9) 0.4277(3)
C84 C 0.7316(3) 1.1984(9) 0.2483(4)
C85 C 0.9218(3) 1.1549(10) 0.3729(4)
C86 C 0.9164(3) 1.1377(10) 0.4121(4)
C87 C 0.8640(3) 1.1723(9) 0.3615(3)
C88 C 0.9450(3) 1.1249(10) 0.4399(4)
H64 H 0.9564 1.1841 0.4414
H65 H 0.9584 1.0758 0.4294
H66 H 0.9378 1.1070 0.4660
C89 C 0.9519(3) 1.1623(9) 0.3555(3)
C90 C 1.0064(3) 1.1737(10) 0.3133(4)
C91 C 0.8608(3) 1.1499(10) 0.4029(4)
C92 C 0.7812(3) 1.1273(10) 0.2603(3)
H67 H 0.7962 1.0814 0.2540
C93 C 0.8805(3) 1.1078(10) 0.4697(4)
C94 C 0.8278(3) 1.1414(10) 0.4197(4)
H68 H 0.8230 1.0752 0.4244
H69 H 0.8130 1.1674 0.4009
H70 H 0.8265 1.1762 0.4443
C95 C 0.9007(3) 1.1900(11) 0.3006(4)
H71 H 0.9139 1.2448 0.2964
H72 H 0.8807 1.2000 0.2876
H73 H 0.9107 1.1343 0.2895
C96 C 0.8630(3) 0.8868(10) 0.5752(4)
H74 H 0.8638 0.8203 0.5755
C97 C 0.8953(3) 1.1749(10) 0.3462(4)
C98 C 0.7879(3) 1.1994(9) 0.2906(3)
C99 C 0.8575(3) 0.9400(11) 0.6127(4)
C100 C 0.7377(3) 1.2672(11) 0.2756(4)
H75 H 0.7230 1.3153 0.2798
C101 C 0.9757(3) 1.1676(10) 0.3387(4)
C102 C 0.7645(3) 1.2679(10) 0.2967(4)
H76 H 0.7676 1.3152 0.3158
C103 C 0.8394(3) 1.1837(10) 0.3362(4)
C104 C 0.8641(3) 1.0832(11) 0.5743(4)
H77 H 0.8647 1.1498 0.5737
C105 C 0.8518(3) 0.8908(11) 0.6533(4)
C106 C 0.8686(3) 1.0328(10) 0.5397(4)
C107 C 0.8759(3) 1.0806(9) 0.5025(4)
C108 C 0.8155(3) 1.1929(10) 0.3141(4)
C109 C 0.8667(3) 0.9320(11) 0.5426(4)
H78 H 0.8682 0.8965 0.5192
C110 C 0.8587(3) 1.0386(13) 0.6093(5)
H79 H 0.8558 1.0755 0.6321
C111 C 1.0316(3) 1.1279(12) 0.3226(5)
H80 H 1.0315 1.0862 0.3442
C112 C 1.0058(4) 1.2213(12) 0.2756(5)
H81 H 0.9869 1.2409 0.2643
O17 O 0.8539(2) 0.8021(7) 0.6509(3)
C113 C 1.0598(3) 1.1903(11) 0.2676(4)
C114 C 1.0325(4) 1.2364(13) 0.2574(5)
H82 H 1.0330 1.2804 0.2365
C115 C 1.0590(4) 1.1404(12) 0.3003(5)
H83 H 1.0776 1.1118 0.3092
O18 O 1.1121(2) 1.1560(8) 0.2546(3)
C116 C 1.0883(4) 1.2052(13) 0.2419(5)
O19 O 0.69393(19) 1.1299(6) 0.2031(3)
O20 O 1.0876(2) 1.2589(9) 0.2140(3)
C117 C 0.7009(3) 1.1944(9) 0.2291(3)
O21 O 0.8352(2) 0.8721(8) 0.8119(3)
O22 O 0.68020(19) 1.2584(7) 0.2352(2)
O23 O 0.7892(2) 0.9710(7) 0.7392(3)
O24 O 0.8552(3) 1.0611(9) 0.7640(3)
H84 H 0.8479 1.0993 0.7883
H85 H 0.8714 1.1032 0.7496
N4 N 0.8661(3) 0.7707(10) 0.8524(4)
C118 C 0.8490(3) 0.7898(11) 0.8182(4)
H86 H 0.8472 0.7422 0.7989
C119 C 0.8679(4) 0.8408(13) 0.8867(5)
H87 H 0.8891 0.8643 0.8890
H88 H 0.8620 0.8093 0.9110
H89 H 0.8539 0.8934 0.8817
N5 N 0.7518(3) 1.0409(10) 0.7067(4)
C120 C 0.7804(3) 1.0240(9) 0.7148(4)
H90 H 0.7956 1.0566 0.7001
C121 C 0.7411(4) 1.1179(14) 0.6743(5)
H91 H 0.7347 1.1758 0.6876
H92 H 0.7237 1.0930 0.6592
H93 H 0.7583 1.1315 0.6566
C122 C 0.7254(4) 0.9993(14) 0.7307(5)
H94 H 0.7174 0.9433 0.7175
H95 H 0.7088 1.0457 0.7333
H96 H 0.7330 0.9821 0.7567
C123 C 0.8828(4) 0.6735(12) 0.8566(5)
H97 H 0.8718 0.6348 0.8758
H98 H 0.9041 0.6836 0.8655
H99 H 0.8830 0.6416 0.8312
Cd6 Cd 1.31723(2) 0.03515(7) 0.69420(3)
O25 O 0.8702(2) 0.5923(7) 0.7518(3)
O26 O 1.1318(2) 0.4256(7) 1.1561(3)
O27 O 1.1742(2) 0.4956(7) 1.1314(3)
C124 C 0.8747(3) 0.5081(12) 0.7502(5)
C125 C 1.0866(3) 0.3450(9) 0.8962(3)
C126 C 1.2632(3) 0.1099(10) 0.7208(4)
C127 C 1.0705(3) 0.3133(9) 0.8148(3)
C128 C 1.1032(3) 0.3165(9) 0.8264(3)
C129 C 1.2343(3) 0.1576(10) 0.7354(4)
C130 C 1.0992(4) 0.3570(11) 1.0427(4)
H100 H 1.0812 0.3200 1.0388
C131 C 1.1453(3) 0.3467(10) 0.8811(4)
H101 H 1.1502 0.2970 0.8999
H102 H 1.1586 0.3405 0.8580
H103 H 1.1487 0.4080 0.8933
C132 C 1.1792(3) 0.2004(11) 0.7282(4)
H104 H 1.1607 0.1987 0.7133
C133 C 1.0143(3) 0.3420(10) 0.8294(4)
C134 C 1.1097(3) 0.3377(10) 0.8680(4)
C135 C 1.1101(4) 0.3688(12) 1.0810(5)
H105 H 1.1004 0.3385 1.1024
C136 C 0.9876(3) 0.3594(9) 0.8186(3)
C137 C 1.1781(3) 0.2439(10) 0.7603(4)
C138 C 1.2055(3) 0.1530(10) 0.7117(4)
H106 H 1.2046 0.1209 0.6874
C139 C 1.0483(3) 0.3321(10) 0.8421(4)
C140 C 1.1497(3) 0.2812(10) 0.7791(4)
C141 C 1.0547(3) 0.3426(10) 0.8828(4)
C142 C 1.1488(3) 0.4516(10) 1.1276(4)
C143 C 1.1363(3) 0.4278(10) 1.0865(4)
C144 C 1.0278(3) 0.3503(10) 0.9149(4)
H107 H 1.0368 0.3448 0.9411
H108 H 1.0175 0.4111 0.9124
H109 H 1.0128 0.2998 0.9108
C145 C 1.0932(3) 0.3648(11) 0.9366(4)
C146 C 1.1130(3) 0.3962(9) 1.0105(4)
C147 C 1.2326(3) 0.2128(11) 0.7700(4)
H110 H 1.2505 0.2189 0.7859
C148 C 0.9258(3) 0.5257(12) 0.7842(4)
H111 H 0.9228 0.5913 0.7814
C149 C 1.0638(3) 0.2981(10) 0.7713(4)
H112 H 1.0751 0.2430 0.7620
H113 H 1.0416 0.2880 0.7676
H114 H 1.0703 0.3535 0.7565
C150 C 1.1522(3) 0.4704(10) 1.0535(4)
H115 H 1.1694 0.5109 1.0571
C151 C 0.9558(3) 0.4888(11) 0.8025(4)
H116 H 0.9709 0.5309 0.8122
C152 C 1.1263(3) 0.3032(9) 0.8000(3)
C153 C 0.9026(3) 0.4640(10) 0.7714(4)
C154 C 0.9603(3) 0.3908(11) 0.8045(4)
C155 C 1.2073(3) 0.2552(11) 0.7807(4)
H117 H 1.2079 0.2954 0.8028
C156 C 0.9371(4) 0.3286(14) 0.7899(5)
H118 H 0.9403 0.2628 0.7893
C157 C 0.9070(4) 0.3717(12) 0.7755(4)
H119 H 0.8905 0.3308 0.7691
O28 O 1.26455(19) 0.0759(7) 0.6856(3)
O29 O 1.2856(2) 0.1025(7) 0.7457(3)
O30 O 0.8560(2) 0.4416(8) 0.7317(3)
C158 C 1.1406(3) 0.4478(11) 1.0154(5)
H120 H 1.1516 0.4680 0.9929
C159 C 1.1013(3) 0.3786(10) 0.9701(4)
Cd4A Cd 1.137440(19) 0.30601(7) 1.19966(3)
Cd4A_2 Cd 1.137440(19) 1.30601(7) 0.19966(3)
Cd4B Cd 0.637440(19) 1.19399(7) 0.19966(3)
Cd5A Cd 1.16103(2) 1.08417(7) 0.24666(3)
Cd5B Cd 0.66103(2) 1.41583(7) 0.24666(3)
O18A O 0.8879(2) 0.8440(8) 0.7546(3)
O19A O 1.30607(19) -0.1299(6) 0.7031(3)
O19B O 0.80607(19) 0.6299(6) 0.7031(3)
O20A O 0.9124(2) 0.7411(9) 0.7140(3)
O22B O 0.81980(19) 0.7584(7) 0.7352(2)
Cd6A Cd 0.68277(2) 0.96485(7) 0.19420(3)
Cd6B Cd 1.18277(2) 0.53515(7) 1.19420(3)
Cd6C Cd 0.81723(2) 0.46485(7) 0.69420(3)
O26A O 0.8682(2) 0.5744(7) 0.6561(3)
O27B O 1.3258(2) -0.0044(7) 0.6314(3)
O30C O 1.3560(2) 0.0584(8) 0.7317(3)
Cd1 Cd 0.82900(2) -0.37876(7) 0.97737(3)
Cd2 Cd 0.86479(2) -0.14881(7) 1.01097(3)
Cd3 Cd 0.82083(2) 0.07601(7) 1.00371(3)
O1 O 0.67782(17) -0.7151(6) 1.4708(2)
O2 O 1.2662(2) 0.3849(8) 1.0212(3)
O3 O 0.8662(2) -0.0254(7) 0.9656(3)
O4 O 0.68945(18) -0.5912(6) 1.5086(3)
O5 O 0.8645(2) 0.1293(8) 0.9745(3)
C1 C 0.8988(3) -0.5884(10) 1.3777(4)
O6 O 1.2983(2) 0.2677(7) 1.0008(3)
C2 C 1.1004(3) 0.0676(9) 0.8177(4)
C3 C 0.6975(3) -0.6499(10) 1.4834(4)
O7 O 0.8606(2) -0.2471(8) 1.0645(3)
O8 O 0.8362(2) -0.3810(7) 1.0441(3)
C4 C 0.8675(3) -0.5786(9) 1.3606(3)
C5 C 0.7273(2) -0.6471(9) 1.4638(3)
C6 C 1.0691(3) 0.0736(10) 0.8289(4)
C7 C 0.9246(3) -0.5831(9) 1.3528(3)
C8 C 0.9554(3) -0.5901(10) 1.3689(4)
C9 C 0.8401(3) -0.5944(10) 1.3863(4)
C10 C 1.0617(3) 0.0903(10) 0.8707(4)
C11 C 0.8714(3) -0.4588(10) 1.1829(4)
C12 C 1.1167(3) 0.0882(10) 0.8884(4)
C13 C 1.0864(3) 0.1015(9) 0.9004(4)
C14 C 0.8508(3) -0.3306(10) 1.0707(4)
C15 C 0.8892(3) -0.5483(9) 1.2965(3)
C16 C 1.1074(3) 0.0503(10) 0.7786(4)
C17 C 1.0687(3) -0.6547(11) 1.4397(4)
C18 C 0.8858(3) -0.5252(10) 1.2544(4)
C19 C 0.9491(3) -0.5527(11) 1.2852(4)
H1 H 0.9570 -0.6160 1.2806
H2 H 0.9651 -0.5144 1.2976
H3 H 0.9431 -0.5242 1.2602
C20 C 0.9605(3) -0.0037(10) 0.9252(4)
H4 H 0.9737 -0.0566 0.9232
C21 C 0.7359(3) -0.6948(10) 1.4297(4)
H5 H 0.7217 -0.7370 1.4180
C22 C 0.8163(3) -0.6111(10) 1.4057(4)
C23 C 1.1240(3) 0.0753(9) 0.8466(4)
C24 C 0.7872(3) -0.6199(10) 1.4259(4)
C25 C 0.7804(3) -0.5750(11) 1.4631(4)
H6 H 0.7959 -0.5372 1.4750
C26 C 1.0106(3) -0.6160(11) 1.4037(4)
C27 C 1.0785(3) 0.1172(10) 0.9428(3)
H7 H 1.0576 0.0938 0.9479
H8 H 1.0794 0.1844 0.9486
H9 H 1.0933 0.0837 0.9593
C28 C 0.9200(3) -0.5581(11) 1.3130(4)
C29 C 1.2458(3) 0.1654(10) 0.9777(4)
H10 H 1.2656 0.1364 0.9770
C30 C 1.0639(3) -0.5762(11) 1.4238(4)
H11 H 1.0795 -0.5296 1.4255
C31 C 0.8466(3) -0.4633(11) 1.1192(4)
H12 H 0.8339 -0.4948 1.1007
C32 C 1.1439(4) -0.0493(14) 0.6904(6)
H13 H 1.1533 -0.0868 0.7100
C33 C 1.2128(3) 0.2838(10) 0.9993(4)
H14 H 1.2099 0.3378 1.0151
C34 C 0.9817(3) -0.5965(10) 1.3823(4)
C35 C 1.1893(3) 0.1606(10) 0.9597(4)
C36 C 0.9203(4) 0.1484(14) 0.9238(5)
H15 H 0.9058 0.1983 0.9243
C37 C 1.2188(3) 0.1178(12) 0.9599(4)
H16 H 1.2213 0.0577 0.9484
C38 C 0.9707(4) 0.0817(12) 0.9116(5)
C39 C 0.9123(3) 0.0655(12) 0.9437(4)
C40 C 1.0361(3) -0.5541(12) 1.4032(4)
H17 H 1.0347 -0.4971 1.3890
C41 C 0.8775(4) 0.0565(12) 0.9645(4)
C42 C 0.9476(5) 0.1634(16) 0.9035(6)
C43 C 0.7653(3) -0.6818(10) 1.4122(4)
H18 H 0.7702 -0.7180 1.3897
C44 C 0.8636(2) -0.5595(8) 1.3204(3)
C45 C 0.7527(3) -0.5852(11) 1.4815(4)
H19 H 0.7490 -0.5537 1.5055
C46 C 0.8536(3) -0.5091(12) 1.1548(4)
H20 H 0.8467 -0.5712 1.1598
C47 C 1.0295(3) 0.0899(10) 0.8828(4)
C48 C 1.1206(3) 0.0165(10) 0.6996(4)
C49 C 1.0439(4) -0.7227(13) 1.4405(5)
H21 H 1.0472 -0.7826 1.4519
C50 C 0.8747(3) -0.3188(12) 1.1368(4)
H22 H 0.8817 -0.2571 1.1313
C51 C 1.0422(3) 0.0644(11) 0.7983(4)
H23 H 1.0508 0.0606 0.7719
H24 H 1.0286 0.1193 0.8002
H25 H 1.0302 0.0076 0.8038
C52 C 1.1635(3) 0.1269(10) 0.9383(4)
C53 C 0.9013(3) -0.6080(11) 1.4222(4)
H26 H 0.9114 -0.6687 1.4264
H27 H 0.8806 -0.6094 1.4338
H28 H 0.9136 -0.5584 1.4347
C54 C 0.9312(3) -0.0149(11) 0.9417(4)
H29 H 0.9244 -0.0740 0.9512
C55 C 1.1593(3) 0.0650(10) 0.8343(4)
H30 H 1.1667 0.1248 0.8238
H31 H 1.1613 0.0161 0.8143
H32 H 1.1715 0.0478 0.8573
C56 C 1.1864(3) 0.2417(11) 0.9813(4)
H33 H 1.1667 0.2701 0.9842
C57 C 1.1525(4) -0.0566(12) 0.6503(5)
H34 H 1.1693 -0.0954 0.6430
C58 C 1.1154(4) 0.0388(12) 0.7457(5)
C59 C 1.2423(3) 0.2494(10) 0.9949(3)
C60 C 0.8808(4) -0.3666(13) 1.1752(5)
H35 H 0.8915 -0.3330 1.1950
C61 C 0.8780(3) -0.4998(11) 1.2213(4)
C62 C 1.0146(4) -0.6991(12) 1.4241(4)
H36 H 0.9977 -0.7408 1.4272
C63 C 1.0030(4) 0.0909(12) 0.8930(4)
C64 C 1.1418(3) 0.1090(11) 0.9148(4)
C65 C 0.8577(3) -0.3721(10) 1.1097(4)
C66 C 1.1357(4) -0.0050(12) 0.6206(5)
C67 C 1.2707(3) 0.3056(10) 1.0032(4)
C68 C 1.0986(3) -0.6795(11) 1.4619(4)
C69 C 0.8318(3) -0.5452(12) 1.3047(5)
H37 H 0.8275 -0.4779 1.3026
H38 H 0.8168 -0.5741 1.3225
H39 H 0.8301 -0.5743 1.2788
C70 C 1.1119(4) 0.0530(13) 0.6318(5)
H40 H 1.0999 0.0839 0.6124
O9 O 1.1206(2) -0.6246(7) 1.4582(3)
O10 O 1.0998(2) -0.7593(8) 1.4777(3)
O11 O 0.8145(2) -0.4033(7) 0.9108(3)
O12 O 0.7771(2) -0.3875(7) 0.9912(3)
O13 O 0.8307(3) -0.5410(9) 0.9847(4)
O14 O 1.1641(3) -0.0674(11) 0.5667(4)
C71 C 1.1448(5) -0.0128(16) 0.5732(6)
C72 C 1.1052(4) 0.0670(12) 0.6719(5)
H41 H 1.0901 0.1115 0.6795
N1 N 0.7833(3) -0.4690(10) 0.8629(4)
N2 N 0.7381(3) -0.4242(10) 1.0316(4)
C73 C 0.7651(3) -0.4288(10) 1.0205(4)
H42 H 0.7785 -0.4674 1.0355
C74 C 0.7235(4) -0.4890(14) 1.0660(5)
H43 H 0.7280 -0.4607 1.0915
H44 H 0.7327 -0.5518 1.0648
H45 H 0.7011 -0.4936 1.0625
C75 C 0.7156(4) -0.3526(13) 1.0158(5)
H46 H 0.7131 -0.3617 0.9876
H47 H 0.7236 -0.2893 1.0208
H48 H 0.6956 -0.3601 1.0288
C76 C 0.7920(4) -0.4522(13) 0.9022(5)
H49 H 0.7801 -0.4795 0.9226
C77 C 0.7498(6) -0.5310(19) 0.8575(7)
H50 H 0.7385 -0.5074 0.8347
H51 H 0.7371 -0.5236 0.8811
H52 H 0.7547 -0.5975 0.8537
C78 C 0.8071(6) -0.437(2) 0.8345(8)
H53 H 0.8277 -0.4512 0.8448
H54 H 0.8052 -0.3688 0.8307
H55 H 0.8041 -0.4688 0.8094
N3 N 0.8620(4) -0.6273(13) 1.0184(5)
C79 C 0.8890(5) -0.6260(17) 0.9951(6)
H56 H 0.9025 -0.5746 1.0036
H57 H 0.8833 -0.6167 0.9676
H58 H 0.9000 -0.6857 0.9979
C80 C 0.8377(6) -0.5966(18) 1.0160(7)
H59 H 0.8227 -0.6095 1.0355
C81 C 0.8598(8) -0.695(3) 1.0616(10)
H60 H 0.8758 -0.7439 1.0609
H61 H 0.8394 -0.7245 1.0633
H62 H 0.8631 -0.6546 1.0844
O15 O 1.1265(3) 0.0287(11) 0.5520(4)
Cd1A Cd 1.17100(2) -0.62124(7) 1.47737(3)
Cd1B Cd 0.67100(2) -0.87876(7) 1.47737(3)
Cd2A Cd 1.13521(2) -0.85119(7) 1.51097(3)
Cd2A_2 Cd 1.13521(2) 0.14881(7) 0.51097(3)
Cd2B Cd 0.63521(2) -0.64881(7) 1.51097(3)
Cd3A Cd 1.17917(2) -0.07601(7) 0.50371(3)
Cd3B Cd 0.67917(2) -0.42399(7) 1.50371(3)
Cd3C Cd 1.32083(2) 0.42399(7) 1.00371(3)
O1B O 0.82218(17) -0.2151(6) 0.9708(2)
O2C O 0.7662(2) 0.1151(8) 1.0212(3)
O4B O 0.81055(18) -0.0912(6) 1.0086(3)
O6C O 0.7983(2) 0.2323(7) 1.0008(3)
O9A O 0.8794(2) -0.3754(7) 0.9582(3)
O10A O 0.9002(2) -0.2407(8) 0.9777(3)
O14A O 0.8359(3) 0.0674(11) 1.0667(4)
O15A O 0.8735(3) -0.0287(11) 1.0520(4)
loop_
_geom_bond_atom_site_label_1
_geom_bond_atom_site_label_2
_geom_bond_site_symmetry_1
_geom_bond_site_symmetry_2
Cd1 O8 1_555 1_555
Cd2 O3 1_555 1_555
Cd3 O3 1_555 1_555
O1 C3 1_555 1_555
O2 C67 1_555 1_555
O3 C41 1_555 1_555
O4 C3 1_555 1_555
O5 Cd3 1_555 1_555
C1 C4 1_555 1_555
O6 C67 1_555 1_555
C2 C6 1_555 1_555
C3 C5 1_555 1_555
O7 Cd2 1_555 1_555
O8 C14 1_555 1_555
C4 C9 1_555 1_555
C5 C21 1_555 1_555
C6 C10 1_555 1_555
C7 C1 1_555 1_555
C8 C7 1_555 1_555
C9 C22 1_555 1_555
C10 C13 1_555 1_555
C11 C46 1_555 1_555
C12 C13 1_555 1_555
C13 C27 1_555 1_555
C14 O7 1_555 1_555
C15 C18 1_555 1_555
C16 C2 1_555 1_555
C17 C30 1_555 1_555
C18 C61 1_555 1_555
C19 H1 1_555 1_555
H2 C19 1_555 1_555
H3 C19 1_555 1_555
C20 H4 1_555 1_555
C21 H5 1_555 1_555
C22 C24 1_555 1_555
C23 C2 1_555 1_555
C24 C25 1_555 1_555
C25 H6 1_555 1_555
C26 C34 1_555 1_555
C27 H7 1_555 1_555
H8 C27 1_555 1_555
H9 C27 1_555 1_555
C28 C7 1_555 1_555
C29 H10 1_555 1_555
C30 H11 1_555 1_555
C31 H12 1_555 1_555
C32 H13 1_555 1_555
C33 H14 1_555 1_555
C34 C8 1_555 1_555
C35 C37 1_555 1_555
C36 H15 1_555 1_555
C37 C29 1_555 1_555
H16 C37 1_555 1_555
C38 C20 1_555 1_555
C39 C36 1_555 1_555
C40 C26 1_555 1_555
H17 C40 1_555 1_555
C41 O5 1_555 1_555
C42 C36 1_555 1_555
C43 C21 1_555 1_555
H18 C43 1_555 1_555
C44 C4 1_555 1_555
C45 C5 1_555 1_555
H19 C45 1_555 1_555
C46 C31 1_555 1_555
H20 C46 1_555 1_555
C47 C10 1_555 1_555
C48 C32 1_555 1_555
C49 C17 1_555 1_555
H21 C49 1_555 1_555
C50 H22 1_555 1_555
C51 C6 1_555 1_555
H23 C51 1_555 1_555
H24 C51 1_555 1_555
H25 C51 1_555 1_555
C52 C35 1_555 1_555
C53 C1 1_555 1_555
H26 C53 1_555 1_555
H27 C53 1_555 1_555
H28 C53 1_555 1_555
C54 C20 1_555 1_555
H29 C54 1_555 1_555
C55 C23 1_555 1_555
H30 C55 1_555 1_555
H31 C55 1_555 1_555
H32 C55 1_555 1_555
C56 C33 1_555 1_555
H33 C56 1_555 1_555
C57 C32 1_555 1_555
H34 C57 1_555 1_555
C58 C16 1_555 1_555
C59 C29 1_555 1_555
C60 C11 1_555 1_555
H35 C60 1_555 1_555
C61 C11 1_555 1_555
C62 C26 1_555 1_555
H36 C62 1_555 1_555
C63 C38 1_555 1_555
C64 C12 1_555 1_555
C65 C14 1_555 1_555
C66 C57 1_555 1_555
C67 C59 1_555 1_555
C68 C17 1_555 1_555
C69 C44 1_555 1_555
H37 C69 1_555 1_555
H38 C69 1_555 1_555
H39 C69 1_555 1_555
C70 C66 1_555 1_555
H40 C70 1_555 1_555
O9 C68 1_555 1_555
O10 C68 1_555 1_555
O11 Cd1 1_555 1_555
O12 Cd1 1_555 1_555
O13 Cd1 1_555 1_555
O14 C71 1_555 1_555
C71 C66 1_555 1_555
C72 C48 1_555 1_555
H41 C72 1_555 1_555
N1 C76 1_555 1_555
N2 C73 1_555 1_555
C73 O12 1_555 1_555
H42 C73 1_555 1_555
C74 N2 1_555 1_555
H43 C74 1_555 1_555
H44 C74 1_555 1_555
H45 C74 1_555 1_555
C75 N2 1_555 1_555
H46 C75 1_555 1_555
H47 C75 1_555 1_555
H48 C75 1_555 1_555
C76 O11 1_555 1_555
H49 C76 1_555 1_555
C77 N1 1_555 1_555
H50 C77 1_555 1_555
H51 C77 1_555 1_555
H52 C77 1_555 1_555
C78 N1 1_555 1_555
H53 C78 1_555 1_555
H54 C78 1_555 1_555
H55 C78 1_555 1_555
N3 C79 1_555 1_555
C79 H56 1_555 1_555
H57 C79 1_555 1_555
H58 C79 1_555 1_555
C80 O13 1_555 1_555
H59 C80 1_555 1_555
C81 N3 1_555 1_555
H60 C81 1_555 1_555
H61 C81 1_555 1_555
H62 C81 1_555 1_555
O15 C71 1_555 1_555
Cd4 O17 1_555 1_555
Cd5 O16 1_555 1_555
O16 C105 1_555 1_555
C82 H63 1_555 1_555
C83 C86 1_555 1_555
C84 C82 1_555 1_555
C85 C86 1_555 1_555
C86 C88 1_555 1_555
C87 C91 1_555 1_555
C88 H64 1_555 1_555
H65 C88 1_555 1_555
H66 C88 1_555 1_555
C89 C85 1_555 1_555
C90 C101 1_555 1_555
C91 C83 1_555 1_555
C92 C82 1_555 1_555
H67 C92 1_555 1_555
C93 C83 1_555 1_555
C94 C91 1_555 1_555
H68 C94 1_555 1_555
H69 C94 1_555 1_555
H70 C94 1_555 1_555
C95 H71 1_555 1_555
H72 C95 1_555 1_555
H73 C95 1_555 1_555
C96 H74 1_555 1_555
C97 C85 1_555 1_555
C98 C92 1_555 1_555
C99 C96 1_555 1_555
C100 C84 1_555 1_555
H75 C100 1_555 1_555
C101 C89 1_555 1_555
C102 C98 1_555 1_555
H76 C102 1_555 1_555
C103 C87 1_555 1_555
C104 H77 1_555 1_555
C105 C99 1_555 1_555
C106 C104 1_555 1_555
C107 C93 1_555 1_555
C108 C98 1_555 1_555
C109 C96 1_555 1_555
H78 C109 1_555 1_555
C110 C99 1_555 1_555
H79 C110 1_555 1_555
C111 C90 1_555 1_555
H80 C111 1_555 1_555
C112 C90 1_555 1_555
H81 C112 1_555 1_555
O17 C105 1_555 1_555
C113 C114 1_555 1_555
C114 C112 1_555 1_555
H82 C114 1_555 1_555
C115 C111 1_555 1_555
H83 C115 1_555 1_555
O18 C116 1_555 1_555
C116 C113 1_555 1_555
O19 C117 1_555 1_555
O20 C116 1_555 1_555
C117 C84 1_555 1_555
O21 Cd5 1_555 1_555
O22 C117 1_555 1_555
O23 Cd5 1_555 1_555
O24 Cd5 1_555 1_555
H84 O24 1_555 1_555
H85 O24 1_555 1_555
N4 C118 1_555 1_555
C118 O21 1_555 1_555
H86 C118 1_555 1_555
C119 N4 1_555 1_555
H87 C119 1_555 1_555
H88 C119 1_555 1_555
H89 C119 1_555 1_555
N5 C120 1_555 1_555
C120 O23 1_555 1_555
H90 C120 1_555 1_555
C121 N5 1_555 1_555
H91 C121 1_555 1_555
H92 C121 1_555 1_555
H93 C121 1_555 1_555
C122 N5 1_555 1_555
H94 C122 1_555 1_555
H95 C122 1_555 1_555
H96 C122 1_555 1_555
C123 N4 1_555 1_555
H97 C123 1_555 1_555
H98 C123 1_555 1_555
H99 C123 1_555 1_555
Cd6 O28 1_555 1_555
O25 Cd4 1_555 1_555
O26 C142 1_555 1_555
O27 C142 1_555 1_555
C124 O25 1_555 1_555
C125 C134 1_555 1_555
C126 C129 1_555 1_555
C127 C128 1_555 1_555
C128 C134 1_555 1_555
C129 C138 1_555 1_555
C130 H100 1_555 1_555
C131 H101 1_555 1_555
H102 C131 1_555 1_555
H103 C131 1_555 1_555
C132 H104 1_555 1_555
C133 C136 1_555 1_555
C134 C131 1_555 1_555
C135 C130 1_555 1_555
H105 C135 1_555 1_555
C136 C154 1_555 1_555
C137 C132 1_555 1_555
C138 C132 1_555 1_555
H106 C138 1_555 1_555
C139 C127 1_555 1_555
C140 C137 1_555 1_555
C141 C125 1_555 1_555
C142 C143 1_555 1_555
C143 C135 1_555 1_555
C144 C141 1_555 1_555
H107 C144 1_555 1_555
H108 C144 1_555 1_555
H109 C144 1_555 1_555
C145 C125 1_555 1_555
C146 C130 1_555 1_555
C147 C129 1_555 1_555
H110 C147 1_555 1_555
C148 H111 1_555 1_555
C149 C127 1_555 1_555
H112 C149 1_555 1_555
H113 C149 1_555 1_555
H114 C149 1_555 1_555
C150 C143 1_555 1_555
H115 C150 1_555 1_555
C151 C148 1_555 1_555
H116 C151 1_555 1_555
C152 C128 1_555 1_555
C153 C124 1_555 1_555
C154 C151 1_555 1_555
C155 C137 1_555 1_555
H117 C155 1_555 1_555
C156 C154 1_555 1_555
H118 C156 1_555 1_555
C157 C153 1_555 1_555
H119 C157 1_555 1_555
O28 C126 1_555 1_555
O29 Cd6 1_555 1_555
O30 C124 1_555 1_555
C158 C146 1_555 1_555
H120 C158 1_555 1_555
C159 C145 1_555 1_555
Cd1A O9 1_555 1_555
Cd1B O1 1_555 1_555
Cd2A O10 1_555 1_555
Cd2A_2 O15 1_555 1_555
Cd2B O1 1_555 1_555
Cd3A O14 1_555 1_555
Cd3B O4 1_555 1_555
Cd3C O2 1_555 1_555
O1B Cd1 1_555 1_555
O2C Cd3 1_555 1_555
O4B Cd2 1_555 1_555
O6C Cd3 1_555 1_555
O9A Cd1 1_555 1_555
O10A Cd2 1_555 1_555
O14A Cd3 1_555 1_555
O15A Cd2 1_555 1_555
Cd4A O26 1_555 1_555
Cd4A_2 O20 1_555 1_555
Cd4B O19 1_555 1_555
Cd5A O18 1_555 1_555
Cd5B O22 1_555 1_555
O18A Cd5 1_555 1_555
O19A Cd6 1_555 1_555
O19B Cd4 1_555 1_555
O20A Cd4 1_555 1_555
O22B Cd4 1_555 1_555
Cd6A O19 1_555 1_555
Cd6B O27 1_555 1_555
Cd6C O30 1_555 1_555
O26A Cd4 1_555 1_555
O27B Cd6 1_555 1_555
O30C Cd6 1_555 1_555
Cd2 O1B 1_555 1_555
Cd3 O4B 1_555 1_555
O4 Cd2B 1_555 1_555
O6 Cd3C 1_555 1_555
C12 C23 1_555 1_555
C15 C28 1_555 1_555
C15 C44 1_555 1_555
C19 C28 1_555 1_555
C24 C43 1_555 1_555
C25 C45 1_555 1_555
C30 C40 1_555 1_555
C31 C65 1_555 1_555
C33 C59 1_555 1_555
C35 C56 1_555 1_555
C38 C42 1_555 1_555
C39 C41 1_555 1_555
C39 C54 1_555 1_555
C47 C63 1_555 1_555
C48 C58 1_555 1_555
C49 C62 1_555 1_555
C50 C60 1_555 1_555
C50 C65 1_555 1_555
C52 C64 1_555 1_555
C70 C72 1_555 1_555
N3 C80 1_555 1_555
Cd5 O22B 1_555 1_555
C87 C97 1_555 1_555
C95 C97 1_555 1_555
C100 C102 1_555 1_555
C103 C108 1_555 1_555
C104 C110 1_555 1_555
C106 C107 1_555 1_555
C106 C109 1_555 1_555
C113 C115 1_555 1_555
O22 Cd4B 1_555 1_555
C126 O29 1_555 1_555
C133 C139 1_555 1_555
C139 C141 1_555 1_555
C140 C152 1_555 1_555
C146 C159 1_555 1_555
C147 C155 1_555 1_555
C148 C153 1_555 1_555
C150 C158 1_555 1_555
C156 C157 1_555 1_555
O19B Cd6C 1_555 1_555

#END
