
#######################################################################
#
#                 Cambridge Crystallographic Data Centre
#                                CCDC 
#
#######################################################################
#
# If this CIF has been generated from an entry in the Cambridge 
# Structural Database, then it will include bibliographic, chemical, 
# crystal, experimental, refinement or atomic coordinate data resulting 
# from the CCDC's data processing and validation procedures.
#
#######################################################################

data_ASAHEJ
_chemical_formula_moiety         '(C48 H64 N12 O68 U10)n'
_symmetry_cell_setting           triclinic
_symmetry_space_group_name_H-M   'P -1'
_symmetry_Int_Tables_number      2
_space_group_name_Hall           '-P 1'
loop_
_symmetry_equiv_pos_site_id
_symmetry_equiv_pos_as_xyz
1 x,y,z
2 -x,-y,-z
_cell_length_a                   8.4603(2)
_cell_length_b                   16.8439(3)
_cell_length_c                   22.1605(5)
_cell_angle_alpha                78.795(1)
_cell_angle_beta                 89.894(1)
_cell_angle_gamma                82.174(1)
_cell_volume                     3067.94
loop_
_atom_site_label
_atom_site_type_symbol
_atom_site_fract_x
_atom_site_fract_y
_atom_site_fract_z
U1 U 0.0000 0.5000 0.0000
U2 U -0.5000 0.5000 0.5000
U3 U 0.96327(10) 0.09226(5) 0.25492(5)
U4 U 1.46248(11) 0.09602(6) 0.24260(5)
U5 U 1.26052(10) -0.09071(5) 0.23220(5)
U6 U 0.76415(10) -0.09866(5) 0.26562(4)
O1 O 0.1023(17) 0.5589(10) 0.0837(8)
O2 O 0.2660(17) 0.4634(8) 0.0516(6)
O3 O 1.1029(18) 0.2078(9) 0.2572(6)
O4 O 1.2919(16) 0.2207(10) 0.1895(7)
O5 O 1.1465(18) 0.8080(10) 0.1865(8)
O6 O 0.9516(19) 0.7883(10) 0.2511(7)
O7 O 0.6845(17) 0.3865(8) 0.1528(6)
O8 O 1.0564(12) 0.5114(9) 0.2352(5)
O9 O 0.6197(16) 0.6626(7) 0.1316(6)
O10 O -0.3659(18) 0.4414(10) 0.4169(8)
O11 O -0.2527(18) 0.5360(9) 0.4482(7)
O12 O 0.598(2) 0.2112(11) 0.2451(7)
O13 O 0.8040(18) 0.1902(11) 0.3071(8)
O14 O 0.6475(18) 0.7782(10) 0.3108(7)
O15 O 0.4511(17) 0.7914(9) 0.2438(6)
O16 O 0.2065(19) 0.3379(8) 0.3669(6)
O17 O 0.5609(12) 0.4947(9) 0.2627(5)
O18 O 0.1243(15) 0.6136(7) 0.3475(6)
O19 O -0.0976(19) 0.4344(10) 0.0576(7)
O20 O -0.3704(18) 0.4338(10) 0.5570(7)
O21 O 1.021(2) 0.0435(12) 0.3301(9)
O22 O 0.909(2) 0.1402(12) 0.1800(9)
O23 O 1.419(2) 0.1061(13) 0.3167(9)
O24 O 1.509(3) 0.0884(14) 0.1666(10)
O25 O 1.209(2) -0.1257(12) 0.3078(9)
O26 O 1.321(2) -0.0613(12) 0.1551(9)
O27 O 0.704(2) -0.0934(11) 0.1892(8)
O28 O 0.831(2) -0.1116(12) 0.3421(9)
O29 O 0.724(2) 0.0405(13) 0.2659(10)
H1 H 0.7192 0.0364 0.3043
O30 O 1.217(3) 0.0526(15) 0.2359(12)
H2 H 1.2070 0.0685 0.1976
O31 O 0.985(2) -0.0387(11) 0.2202(9)
H3 H 0.9656 -0.0271 0.1821
O32 O 1.4877(19) -0.0513(10) 0.2773(8)
H4 H 1.4729 -0.0592 0.3154
O33 O 0.151(2) 0.3695(10) -0.0149(8)
H5 H 0.1361 0.3642 -0.0513
H6 H 0.2488 0.3694 -0.0083
O34 O -0.416(2) 0.6286(11) 0.5191(8)
H7 H -0.4331 0.6329 0.5557
H8 H -0.3176 0.6276 0.5126
N1 N 0.6461(8) 0.5255(7) 0.1407(4)
C1 C 0.7337(11) 0.4493(5) 0.1626(4)
N2 N 0.8761(10) 0.4433(5) 0.1954(4)
C2 C 0.9309(8) 0.5134(6) 0.2064(3)
N3 N 0.8433(12) 0.5896(5) 0.1845(4)
C3 C 0.7009(11) 0.5957(5) 0.1517(4)
N4 N 0.1595(9) 0.4760(7) 0.3586(4)
C4 C 0.2504(12) 0.4054(5) 0.3473(4)
N5 N 0.3896(11) 0.4107(5) 0.3142(4)
C5 C 0.4379(8) 0.4865(7) 0.2924(3)
N6 N 0.3469(12) 0.5570(5) 0.3037(4)
C6 C 0.2077(11) 0.5518(5) 0.3368(4)
C7 C 0.2374(15) 0.5172(10) 0.0836(8)
C8 C 0.3662(16) 0.5325(16) 0.1244(8)
H9 H 0.3792 0.4892 0.1620
H10 H 0.3359 0.5856 0.1370
C9 C 0.5213(15) 0.5331(14) 0.0910(6)
H11 H 0.5405 0.4866 0.0694
H12 H 0.5210 0.5847 0.0607
C10 C 1.1663(19) 0.2490(9) 0.2124(8)
C11 C 1.084(2) 0.3321(9) 0.1820(8)
H13 H 1.1618 0.3713 0.1738
H14 H 1.0335 0.3291 0.1423
C12 C 0.958(2) 0.3602(8) 0.2244(8)
H15 H 0.8789 0.3213 0.2321
H16 H 1.0078 0.3622 0.2643
C13 C 1.034(2) 0.7712(12) 0.2072(9)
C14 C 0.998(3) 0.7025(14) 0.1777(11)
H17 H 1.0963 0.6633 0.1772
H18 H 0.9600 0.7241 0.1347
C15 C 0.872(2) 0.6599(10) 0.2135(9)
H19 H 0.9084 0.6398 0.2569
H20 H 0.7723 0.6984 0.2127
C16 C -0.2543(17) 0.4834(12) 0.4155(9)
C17 C -0.1167(16) 0.4697(16) 0.3748(8)
H21 H -0.1280 0.5133 0.3373
H22 H -0.1164 0.4166 0.3619
C18 C 0.0383(15) 0.4700(14) 0.4080(6)
H23 H 0.0320 0.5173 0.4287
H24 H 0.0653 0.4191 0.4391
C19 C 0.671(2) 0.2283(12) 0.2889(9)
C20 C 0.601(2) 0.2950(12) 0.3211(9)
H25 H 0.6800 0.3323 0.3242
H26 H 0.5701 0.2713 0.3632
C21 C 0.456(2) 0.3413(11) 0.2844(9)
H27 H 0.4859 0.3625 0.2417
H28 H 0.3747 0.3046 0.2831
C22 C 0.536(2) 0.7501(9) 0.2885(8)
C23 C 0.501(3) 0.6660(10) 0.3181(8)
H29 H 0.6010 0.6270 0.3241
H30 H 0.4535 0.6673 0.3588
C24 C 0.387(2) 0.6397(8) 0.2767(8)
H31 H 0.2878 0.6795 0.2705
H32 H 0.4350 0.6389 0.2360
U3A U -1.96327(10) 0.90774(5) 0.74508(5)
U4A U -2.46248(11) 0.90398(6) 0.75740(5)
U5A U -2.26052(10) 1.09071(5) 0.76780(5)
U6A U -1.76415(10) 1.09866(5) 0.73438(4)
O1A O -1.1023(17) 0.4411(10) 0.9163(8)
O2A O -1.2660(17) 0.5366(8) 0.9484(6)
O3A O -2.1029(18) 0.7922(9) 0.7428(6)
O4A O -2.2919(16) 0.7793(10) 0.8105(7)
O5A O -2.1465(18) 0.1920(10) 0.8135(8)
O6A O -1.9516(19) 0.2117(10) 0.7489(7)
O7A O -1.6845(17) 0.6135(8) 0.8472(6)
O8A O -2.0564(12) 0.4886(9) 0.7648(5)
O9A O -1.6197(16) 0.3374(7) 0.8684(6)
O10A O -0.6341(18) 0.5586(10) 0.5831(8)
O11A O -0.7473(18) 0.4640(9) 0.5518(7)
O12A O -1.598(2) 0.7888(11) 0.7549(7)
O13A O -1.8040(18) 0.8098(11) 0.6929(8)
O14A O -1.6475(18) 0.2218(10) 0.6892(7)
O15A O -1.4511(17) 0.2086(9) 0.7562(6)
O16A O -1.2065(19) 0.6621(8) 0.6331(6)
O17A O -1.5609(12) 0.5053(9) 0.7373(5)
O18A O -1.1243(15) 0.3864(7) 0.6525(6)
O20A O -0.6296(18) 0.5662(10) 0.4430(7)
O21A O -2.021(2) 0.9565(12) 0.6699(9)
O22A O -1.909(2) 0.8598(12) 0.8200(9)
O23A O -2.419(2) 0.8939(13) 0.6833(9)
O24A O -2.509(3) 0.9116(14) 0.8334(10)
O25A O -2.209(2) 1.1257(12) 0.6922(9)
O26A O -2.321(2) 1.0613(12) 0.8449(9)
O27A O -1.704(2) 1.0934(11) 0.8108(8)
O28A O -1.831(2) 1.1116(12) 0.6579(9)
O29A O -1.724(2) 0.9595(13) 0.7341(10)
H1A H -1.7192 0.9636 0.6957
O30A O -2.217(3) 0.9474(15) 0.7641(12)
H2A H -2.2070 0.9315 0.8024
O31A O -1.985(2) 1.0387(11) 0.7798(9)
H3A H -1.9656 1.0271 0.8179
O32A O -2.4877(19) 1.0513(10) 0.7227(8)
H4A H -2.4729 1.0592 0.6846
O34A O -0.584(2) 0.3714(11) 0.4809(8)
H7A H -0.5669 0.3671 0.4443
H8A H -0.6824 0.3724 0.4874
N1A N -1.6461(8) 0.4745(7) 0.8593(4)
C1A C -1.7337(11) 0.5507(5) 0.8374(4)
N2A N -1.8761(10) 0.5567(5) 0.8046(4)
C2A C -1.9309(8) 0.4866(6) 0.7936(3)
N3A N -1.8433(12) 0.4104(5) 0.8155(4)
C3A C -1.7009(11) 0.4043(5) 0.8483(4)
N4A N -1.1595(9) 0.5240(7) 0.6414(4)
C4A C -1.2504(12) 0.5946(5) 0.6527(4)
N5A N -1.3896(11) 0.5893(5) 0.6858(4)
C5A C -1.4379(8) 0.5135(7) 0.7076(3)
N6A N -1.3469(12) 0.4430(5) 0.6963(4)
C6A C -1.2077(11) 0.4482(5) 0.6632(4)
C7A C -1.2374(15) 0.4828(10) 0.9164(8)
C8A C -1.3662(16) 0.4675(16) 0.8756(8)
H9A H -1.3792 0.5108 0.8380
H10A H -1.3359 0.4144 0.8630
C9A C -1.5213(15) 0.4669(14) 0.9090(6)
H11A H -1.5405 0.5134 0.9306
H12A H -1.5210 0.4153 0.9393
C10A C -2.1663(19) 0.7510(9) 0.7876(8)
C11A C -2.084(2) 0.6679(9) 0.8180(8)
H13A H -2.1618 0.6287 0.8262
H14A H -2.0335 0.6709 0.8577
C12A C -1.958(2) 0.6398(8) 0.7756(8)
H15A H -1.8789 0.6787 0.7679
H16A H -2.0078 0.6378 0.7357
C13A C -2.034(2) 0.2288(12) 0.7928(9)
C14A C -1.998(3) 0.2975(14) 0.8223(11)
H17A H -2.0963 0.3367 0.8228
H18A H -1.9600 0.2759 0.8653
C15A C -1.872(2) 0.3401(10) 0.7865(9)
H19A H -1.9084 0.3602 0.7431
H20A H -1.7723 0.3016 0.7873
C16A C -0.7457(17) 0.5166(12) 0.5845(9)
C17A C -0.8833(16) 0.5303(16) 0.6252(8)
H21A H -0.8720 0.4867 0.6627
H22A H -0.8836 0.5834 0.6381
C18A C -1.0383(15) 0.5300(14) 0.5920(6)
H23A H -1.0320 0.4827 0.5713
H24A H -1.0653 0.5809 0.5609
C19A C -1.671(2) 0.7717(12) 0.7111(9)
C20A C -1.601(2) 0.7050(12) 0.6789(9)
H25A H -1.6800 0.6677 0.6758
H26A H -1.5701 0.7287 0.6368
C21A C -1.456(2) 0.6587(11) 0.7156(9)
H27A H -1.4859 0.6375 0.7583
H28A H -1.3747 0.6954 0.7169
C22A C -1.536(2) 0.2499(9) 0.7115(8)
C23A C -1.501(3) 0.3340(10) 0.6819(8)
H29A H -1.6010 0.3730 0.6759
H30A H -1.4535 0.3327 0.6412
C24A C -1.387(2) 0.3603(8) 0.7233(8)
H31A H -1.2878 0.3205 0.7295
H32A H -1.4350 0.3611 0.7640
O33A O -0.151(2) 0.6305(10) 0.0149(8)
H5A H -0.1361 0.6358 0.0513
H6A H -0.2488 0.6306 0.0083
O19A O 0.0976(19) 0.5656(10) -0.0576(7)
U1_2 U -1.0000 0.5000 1.0000
U4_2 U 0.46248(11) 0.09602(6) 0.24260(5)
U4A_2 U -1.46248(11) 0.90398(6) 0.75740(5)
U5_2 U 0.26052(10) 0.90929(5) 0.23220(5)
U5_3 U 1.26052(10) 0.90929(5) 0.23220(5)
U5A_2 U -2.26052(10) 0.09071(5) 0.76780(5)
U5A_3 U -1.26052(10) 0.09071(5) 0.76780(5)
U6_2 U 0.76415(10) 0.90134(5) 0.26562(4)
U6_3 U 1.76415(10) -0.09866(5) 0.26562(4)
U6A_2 U -2.76415(10) 1.09866(5) 0.73438(4)
U6A_3 U -1.76415(10) 0.09866(5) 0.73438(4)
O1A_2 O -0.1023(17) 0.4411(10) -0.0837(8)
O2A_2 O -0.2660(17) 0.5366(8) -0.0516(6)
O5_2 O 1.1465(18) -0.1920(10) 0.1865(8)
O5A_2 O -2.1465(18) 1.1920(10) 0.8135(8)
O6_2 O 0.9516(19) -0.2117(10) 0.2511(7)
O6A_2 O -1.9516(19) 1.2117(10) 0.7489(7)
O12_2 O 1.598(2) 0.2112(11) 0.2451(7)
O12A_2 O -2.598(2) 0.7888(11) 0.7549(7)
O14_2 O 0.6475(18) -0.2218(10) 0.3108(7)
O14A_2 O -1.6475(18) 1.2218(10) 0.6892(7)
O15_2 O 1.4511(17) -0.2086(9) 0.2438(6)
O15A_2 O -2.4511(17) 1.2086(9) 0.7562(6)
O29_2 O 1.724(2) 0.0405(13) 0.2659(10)
O29A_2 O -2.724(2) 0.9595(13) 0.7341(10)
O32_2 O 0.4877(19) -0.0513(10) 0.2773(8)
O32A_2 O -1.4877(19) 1.0513(10) 0.7227(8)
loop_
_geom_bond_atom_site_label_1
_geom_bond_atom_site_label_2
_geom_bond_site_symmetry_1
_geom_bond_site_symmetry_2
U1 O1 1_555 1_555
U2 O10 1_555 1_555
U3 O3 1_555 1_555
U4 O4 1_555 1_555
U5 O25 1_555 1_555
U6 O27 1_555 1_555
O1 C7 1_555 1_555
O2 U1 1_555 1_555
O3 C10 1_555 1_555
O4 C10 1_555 1_555
O5 C13 1_555 1_555
O6 C13 1_555 1_555
O7 C1 1_555 1_555
O8 C2 1_555 1_555
O9 C3 1_555 1_555
O10 C16 1_555 1_555
O11 U2 1_555 1_555
O12 C19 1_555 1_555
O13 U3 1_555 1_555
O14 C22 1_555 1_555
O15 C22 1_555 1_555
O16 C4 1_555 1_555
O17 C5 1_555 1_555
O18 C6 1_555 1_555
O19 U1 1_555 1_555
O20 U2 1_555 1_555
O21 U3 1_555 1_555
O22 U3 1_555 1_555
O23 U4 1_555 1_555
O24 U4 1_555 1_555
O26 U5 1_555 1_555
O28 U6 1_555 1_555
O29 U3 1_555 1_555
H1 O29 1_555 1_555
O30 U3 1_555 1_555
H2 O30 1_555 1_555
O31 U3 1_555 1_555
H3 O31 1_555 1_555
O32 U4 1_555 1_555
H4 O32 1_555 1_555
O33 U1 1_555 1_555
H5 O33 1_555 1_555
H6 O33 1_555 1_555
O34 U2 1_555 1_555
H7 O34 1_555 1_555
H8 O34 1_555 1_555
N1 C1 1_555 1_555
C1 N2 1_555 1_555
N2 C2 1_555 1_555
C2 N3 1_555 1_555
N3 C3 1_555 1_555
C3 N1 1_555 1_555
N4 C4 1_555 1_555
C4 N5 1_555 1_555
N5 C5 1_555 1_555
C5 N6 1_555 1_555
N6 C6 1_555 1_555
C6 N4 1_555 1_555
C7 O2 1_555 1_555
C8 C7 1_555 1_555
H9 C8 1_555 1_555
H10 C8 1_555 1_555
C9 N1 1_555 1_555
H11 C9 1_555 1_555
H12 C9 1_555 1_555
C10 C11 1_555 1_555
C11 H13 1_555 1_555
H14 C11 1_555 1_555
C12 N2 1_555 1_555
H15 C12 1_555 1_555
H16 C12 1_555 1_555
C13 C14 1_555 1_555
C14 H17 1_555 1_555
H18 C14 1_555 1_555
C15 N3 1_555 1_555
H19 C15 1_555 1_555
H20 C15 1_555 1_555
C16 O11 1_555 1_555
C17 C16 1_555 1_555
H21 C17 1_555 1_555
H22 C17 1_555 1_555
C18 N4 1_555 1_555
H23 C18 1_555 1_555
H24 C18 1_555 1_555
C19 O13 1_555 1_555
C20 C19 1_555 1_555
H25 C20 1_555 1_555
H26 C20 1_555 1_555
C21 N5 1_555 1_555
H27 C21 1_555 1_555
H28 C21 1_555 1_555
C22 C23 1_555 1_555
C23 H29 1_555 1_555
H30 C23 1_555 1_555
C24 N6 1_555 1_555
H31 C24 1_555 1_555
H32 C24 1_555 1_555
U3A O3A 1_555 1_555
U4A O4A 1_555 1_555
U5A O25A 1_555 1_555
U6A O27A 1_555 1_555
O1A C7A 1_555 1_555
O2A C7A 1_555 1_555
O3A C10A 1_555 1_555
O4A C10A 1_555 1_555
O5A C13A 1_555 1_555
O6A C13A 1_555 1_555
O7A C1A 1_555 1_555
O8A C2A 1_555 1_555
O9A C3A 1_555 1_555
O10A U2 1_555 1_555
O11A U2 1_555 1_555
O12A C19A 1_555 1_555
O13A U3A 1_555 1_555
O14A C22A 1_555 1_555
O15A C22A 1_555 1_555
O16A C4A 1_555 1_555
O17A C5A 1_555 1_555
O18A C6A 1_555 1_555
O20A U2 1_555 1_555
O21A U3A 1_555 1_555
O22A U3A 1_555 1_555
O23A U4A 1_555 1_555
O24A U4A 1_555 1_555
O26A U5A 1_555 1_555
O28A U6A 1_555 1_555
O29A U3A 1_555 1_555
H1A O29A 1_555 1_555
O30A U3A 1_555 1_555
H2A O30A 1_555 1_555
O31A U3A 1_555 1_555
H3A O31A 1_555 1_555
O32A U4A 1_555 1_555
H4A O32A 1_555 1_555
O34A U2 1_555 1_555
H7A O34A 1_555 1_555
H8A O34A 1_555 1_555
N1A C1A 1_555 1_555
C1A N2A 1_555 1_555
N2A C2A 1_555 1_555
C2A N3A 1_555 1_555
N3A C3A 1_555 1_555
C3A N1A 1_555 1_555
N4A C4A 1_555 1_555
C4A N5A 1_555 1_555
N5A C5A 1_555 1_555
C5A N6A 1_555 1_555
N6A C6A 1_555 1_555
C6A N4A 1_555 1_555
C7A C8A 1_555 1_555
C8A H9A 1_555 1_555
H10A C8A 1_555 1_555
C9A N1A 1_555 1_555
H11A C9A 1_555 1_555
H12A C9A 1_555 1_555
C10A C11A 1_555 1_555
C11A H13A 1_555 1_555
H14A C11A 1_555 1_555
C12A N2A 1_555 1_555
H15A C12A 1_555 1_555
H16A C12A 1_555 1_555
C13A C14A 1_555 1_555
C14A H17A 1_555 1_555
H18A C14A 1_555 1_555
C15A N3A 1_555 1_555
H19A C15A 1_555 1_555
H20A C15A 1_555 1_555
C16A O10A 1_555 1_555
C17A C16A 1_555 1_555
H21A C17A 1_555 1_555
H22A C17A 1_555 1_555
C18A N4A 1_555 1_555
H23A C18A 1_555 1_555
H24A C18A 1_555 1_555
C19A O13A 1_555 1_555
C20A C19A 1_555 1_555
H25A C20A 1_555 1_555
H26A C20A 1_555 1_555
C21A N5A 1_555 1_555
H27A C21A 1_555 1_555
H28A C21A 1_555 1_555
C22A C23A 1_555 1_555
C23A H29A 1_555 1_555
H30A C23A 1_555 1_555
C24A N6A 1_555 1_555
H31A C24A 1_555 1_555
H32A C24A 1_555 1_555
O33A U1 1_555 1_555
H5A O33A 1_555 1_555
H6A O33A 1_555 1_555
O19A U1 1_555 1_555
U1_2 O1A 1_555 1_555
U4_2 O12 1_555 1_555
U4A_2 O12A 1_555 1_555
U5_2 O15 1_555 1_555
U5_3 O5 1_555 1_555
U5A_2 O5A 1_555 1_555
U5A_3 O15A 1_555 1_555
U6_2 O6 1_555 1_555
U6_3 O32 1_555 1_555
U6A_2 O32A 1_555 1_555
U6A_3 O6A 1_555 1_555
O1A_2 U1 1_555 1_555
O2A_2 U1 1_555 1_555
O5_2 U5 1_555 1_555
O5A_2 U5A 1_555 1_555
O6_2 U6 1_555 1_555
O6A_2 U6A 1_555 1_555
O12_2 U4 1_555 1_555
O12A_2 U4A 1_555 1_555
O14_2 U6 1_555 1_555
O14A_2 U6A 1_555 1_555
O15_2 U5 1_555 1_555
O15A_2 U5A 1_555 1_555
O29_2 U4 1_555 1_555
O29A_2 U4A 1_555 1_555
O32_2 U6 1_555 1_555
O32A_2 U6A 1_555 1_555
U4 O30 1_555 1_555
U5 O30 1_555 1_555
U5 O31 1_555 1_555
U5 O32 1_555 1_555
U6 O29 1_555 1_555
U6 O31 1_555 1_555
O14 U6_2 1_555 1_555
O29 U4_2 1_555 1_555
C8 C9 1_555 1_555
C11 C12 1_555 1_555
C14 C15 1_555 1_555
C17 C18 1_555 1_555
C20 C21 1_555 1_555
C23 C24 1_555 1_555
U4A O30A 1_555 1_555
U5A O30A 1_555 1_555
U5A O31A 1_555 1_555
U5A O32A 1_555 1_555
U6A O29A 1_555 1_555
U6A O31A 1_555 1_555
O2A U1_2 1_555 1_555
O11A C16A 1_555 1_555
O14A U6A_3 1_555 1_555
O29A U4A_2 1_555 1_555
C8A C9A 1_555 1_555
C11A C12A 1_555 1_555
C14A C15A 1_555 1_555
C17A C18A 1_555 1_555
C20A C21A 1_555 1_555
C23A C24A 1_555 1_555
U4_2 O32_2 1_555 1_555
U4A_2 O32A_2 1_555 1_555
U6_3 O29_2 1_555 1_555
U6A_2 O29A_2 1_555 1_555

#END
