
#######################################################################
#
#                 Cambridge Crystallographic Data Centre
#                                CCDC 
#
#######################################################################
#
# If this CIF has been generated from an entry in the Cambridge 
# Structural Database, then it will include bibliographic, chemical, 
# crystal, experimental, refinement or atomic coordinate data resulting 
# from the CCDC's data processing and validation procedures.
#
#######################################################################

data_ASAMUE
_chemical_formula_moiety         '(C24 H32 N6 O25 Th3)n'
_symmetry_cell_setting           orthorhombic
_symmetry_space_group_name_H-M   'P b c a'
_symmetry_Int_Tables_number      61
_space_group_name_Hall           '-P 2ac 2ab'
loop_
_symmetry_equiv_pos_site_id
_symmetry_equiv_pos_as_xyz
1 x,y,z
2 1/2-x,-y,1/2+z
3 -x,1/2+y,1/2-z
4 1/2+x,1/2-y,-z
5 -x,-y,-z
6 1/2+x,y,1/2-z
7 x,1/2-y,1/2+z
8 1/2-x,1/2+y,z
_cell_length_a                   17.0105(2)
_cell_length_b                   21.9594(3)
_cell_length_c                   24.8081(3)
_cell_angle_alpha                90
_cell_angle_beta                 90
_cell_angle_gamma                90
_cell_volume                     9266.83
loop_
_atom_site_label
_atom_site_type_symbol
_atom_site_fract_x
_atom_site_fract_y
_atom_site_fract_z
Th1 Th 0.430877(14) 0.598002(11) 0.554773(10)
Th2 Th 0.453001(15) 0.548193(11) 0.398895(10)
Th3 Th 0.645432(15) 0.562405(11) 0.494949(10)
O1 O 0.4469(4) 0.5962(3) 0.6527(2)
O2 O 0.5079(4) 0.5113(3) 0.6796(2)
O3 O 0.3621(4) 0.8273(3) 0.9960(3)
O4 O 0.3775(4) 0.8556(3) 0.9079(2)
O5 O 0.6580(3) 0.8789(3) 0.9131(2)
O6 O 0.5536(3) 0.8830(3) 0.8581(2)
O7 O 0.3513(4) 0.6566(3) 0.8328(3)
O8 O 0.5184(3) 0.7691(2) 0.9361(2)
O9 O 0.6000(5) 0.6926(4) 0.7760(3)
O10 O 0.2950(3) 0.5833(3) 0.5835(2)
O11 O 0.2488(3) 0.4966(2) 0.5497(2)
O12 O 0.3235(3) 0.5147(3) 0.3702(2)
O13 O 0.2594(3) 0.4597(2) 0.4309(2)
O14 O 0.0157(3) 0.8106(2) 0.4368(2)
O15 O 0.1363(3) 0.8337(3) 0.4663(2)
O16 O 0.0958(3) 0.4484(2) 0.4875(2)
O17 O 0.0771(4) 0.6044(3) 0.3677(3)
O18 O 0.0504(3) 0.6388(3) 0.5479(2)
O19 O 0.5142(3) 0.6065(2) 0.4730(2)
O20 O 0.3823(5) 0.5389(3) 0.4812(3)
O21 O 0.5809(5) 0.5068(4) 0.4216(4)
O22 O 0.5584(5) 0.5554(4) 0.5708(4)
O23 O 0.3642(4) 0.6903(3) 0.6086(3)
O24 O 0.4113(4) 0.5968(3) 0.3064(3)
O25 O 0.7763(4) 0.6214(3) 0.4866(3)
N1 N 0.4739(6) 0.6782(4) 0.8015(3)
N2 N 0.4344(5) 0.7106(3) 0.8865(3)
N3 N 0.5623(5) 0.7281(3) 0.8574(3)
N4 N 0.0875(4) 0.5453(3) 0.5196(3)
N5 N 0.0969(4) 0.5260(3) 0.4269(3)
N6 N 0.0614(4) 0.6233(3) 0.4574(3)
C1 C 0.4783(6) 0.5620(4) 0.6877(3)
C2 C 0.4785(7) 0.5861(4) 0.7445(4)
H1 H 0.4412 0.5620 0.7666
H2 H 0.5316 0.5809 0.7601
C3 C 0.4558(7) 0.6521(5) 0.7471(4)
H3 H 0.4850 0.6751 0.7191
H4 H 0.3989 0.6564 0.7396
C4 C 0.4153(6) 0.6805(4) 0.8398(4)
C5 C 0.3753(6) 0.7094(4) 0.9299(4)
H5 H 0.4026 0.7120 0.9651
H6 H 0.3471 0.6700 0.9287
C6 C 0.3157(6) 0.7608(4) 0.9262(4)
H7 H 0.2972 0.7651 0.8886
H8 H 0.2697 0.7516 0.9493
C7 C 0.3540(5) 0.8193(4) 0.9446(4)
C8 C 0.5050(6) 0.7384(3) 0.8958(3)
C9 C 0.6436(6) 0.7510(4) 0.8679(4)
H9 H 0.6823 0.7207 0.8548
H10 H 0.6514 0.7561 0.9072
C10 C 0.6574(5) 0.8120(4) 0.8395(3)
H11 H 0.7145 0.8196 0.8361
H12 H 0.6344 0.8107 0.8029
C11 C 0.6197(5) 0.8626(3) 0.8717(3)
C12 C 0.5485(7) 0.6986(5) 0.8095(4)
C13 C 0.2415(4) 0.5436(3) 0.5765(3)
C14 C 0.1634(5) 0.5557(4) 0.6038(3)
H13 H 0.1661 0.5412 0.6415
H14 H 0.1541 0.6002 0.6047
C15 C 0.0949(4) 0.5253(4) 0.5761(3)
H15 H 0.1022 0.4806 0.5771
H16 H 0.0458 0.5350 0.5957
C16 C 0.0943(4) 0.5030(3) 0.4781(3)
C17 C 0.1120(4) 0.4844(3) 0.3811(3)
H17 H 0.0695 0.4891 0.3542
H18 H 0.1110 0.4418 0.3943
C18 C 0.1904(4) 0.4966(4) 0.3543(3)
H19 H 0.1952 0.4688 0.3230
H20 H 0.1894 0.5387 0.3400
C19 C 0.2628(5) 0.4899(3) 0.3879(3)
C20 C 0.0793(5) 0.5861(4) 0.4134(3)
C21 C 0.0370(5) 0.6875(3) 0.4468(3)
H21 H -0.0037 0.6998 0.4732
H22 H 0.0139 0.6905 0.4103
C22 C 0.1066(4) 0.7296(3) 0.4511(3)
H23 H 0.1425 0.7218 0.4205
H24 H 0.1355 0.7204 0.4848
C23 C 0.0833(4) 0.7970(3) 0.4511(3)
C24 C 0.0653(4) 0.6052(3) 0.5106(3)
Th1C Th -0.069123(14) 0.901998(11) 0.445227(10)
Th1D Th 0.569123(14) 0.401998(11) 0.445227(10)
Th1F Th 0.430877(14) 0.901998(11) 1.054773(10)
Th2D Th 0.546999(15) 0.451807(11) 0.601105(10)
Th2F Th 0.453001(15) 0.951807(11) 0.898895(10)
Th3C Th 0.145432(15) 0.937595(11) 0.505051(10)
Th3D Th 0.354568(15) 0.437595(11) 0.505051(10)
Th3F Th 0.645432(15) 0.937595(11) 0.994949(10)
O2D O 0.4921(4) 0.4887(3) 0.3204(2)
O3F O 0.3621(4) 0.6727(3) 0.4960(3)
O4F O 0.3775(4) 0.6444(3) 0.4079(2)
O5F O 0.6580(3) 0.6211(3) 0.4131(2)
O6F O 0.5536(3) 0.6170(3) 0.3581(2)
O11D O 0.7512(3) 0.5034(2) 0.4503(2)
O13D O 0.7406(3) 0.5403(2) 0.5691(2)
O14C O 0.5157(3) 0.6894(2) 0.5632(2)
O15C O 0.6363(3) 0.6663(3) 0.5337(2)
O20D O 0.6177(5) 0.4611(3) 0.5188(3)
O21D O 0.4191(5) 0.4932(4) 0.5784(4)
O22D O 0.4416(5) 0.4446(4) 0.4292(4)
loop_
_geom_bond_atom_site_label_1
_geom_bond_atom_site_label_2
_geom_bond_site_symmetry_1
_geom_bond_site_symmetry_2
Th1 O1 1_555 1_555
Th2 O12 1_555 1_555
Th3 O19 1_555 1_555
O1 C1 1_555 1_555
O2 C1 1_555 1_555
O3 C7 1_555 1_555
O4 C7 1_555 1_555
O5 C11 1_555 1_555
O6 C11 1_555 1_555
O7 C4 1_555 1_555
O8 C8 1_555 1_555
O9 C12 1_555 1_555
O10 Th1 1_555 1_555
O11 C13 1_555 1_555
O12 C19 1_555 1_555
O13 C19 1_555 1_555
O14 C23 1_555 1_555
O15 C23 1_555 1_555
O16 C16 1_555 1_555
O17 C20 1_555 1_555
O18 C24 1_555 1_555
O19 Th1 1_555 1_555
O20 Th1 1_555 1_555
O21 Th2 1_555 1_555
O22 Th1 1_555 1_555
O23 Th1 1_555 1_555
O24 Th2 1_555 1_555
O25 Th3 1_555 1_555
N1 C3 1_555 1_555
N2 C4 1_555 1_555
N3 C8 1_555 1_555
N4 C15 1_555 1_555
N5 C16 1_555 1_555
N6 C20 1_555 1_555
C1 C2 1_555 1_555
C2 H1 1_555 1_555
H2 C2 1_555 1_555
C3 C2 1_555 1_555
H3 C3 1_555 1_555
H4 C3 1_555 1_555
C4 N1 1_555 1_555
C5 N2 1_555 1_555
H5 C5 1_555 1_555
H6 C5 1_555 1_555
C6 C5 1_555 1_555
H7 C6 1_555 1_555
H8 C6 1_555 1_555
C7 C6 1_555 1_555
C8 N2 1_555 1_555
C9 N3 1_555 1_555
H9 C9 1_555 1_555
H10 C9 1_555 1_555
C10 C9 1_555 1_555
H11 C10 1_555 1_555
H12 C10 1_555 1_555
C11 C10 1_555 1_555
C12 N1 1_555 1_555
C13 O10 1_555 1_555
C14 C13 1_555 1_555
H13 C14 1_555 1_555
H14 C14 1_555 1_555
C15 C14 1_555 1_555
H15 C15 1_555 1_555
H16 C15 1_555 1_555
C16 N4 1_555 1_555
C17 N5 1_555 1_555
H17 C17 1_555 1_555
H18 C17 1_555 1_555
C18 C17 1_555 1_555
H19 C18 1_555 1_555
H20 C18 1_555 1_555
C19 C18 1_555 1_555
C20 N5 1_555 1_555
C21 N6 1_555 1_555
H21 C21 1_555 1_555
H22 C21 1_555 1_555
C22 C21 1_555 1_555
H23 C22 1_555 1_555
H24 C22 1_555 1_555
C23 C22 1_555 1_555
C24 N4 1_555 1_555
Th1C O14 1_555 1_555
Th1D O21 1_555 1_555
Th1F O3 1_555 1_555
Th2D O2 1_555 1_555
Th2F O4 1_555 1_555
Th3C O15 1_555 1_555
Th3D O11 1_555 1_555
Th3F O5 1_555 1_555
O2D Th2 1_555 1_555
O3F Th1 1_555 1_555
O4F Th2 1_555 1_555
O5F Th3 1_555 1_555
O6F Th2 1_555 1_555
O11D Th3 1_555 1_555
O13D Th3 1_555 1_555
O14C Th1 1_555 1_555
O15C Th3 1_555 1_555
O20D Th3 1_555 1_555
O21D Th1 1_555 1_555
O22D Th2 1_555 1_555
Th2 O19 1_555 1_555
Th2 O20 1_555 1_555
Th3 O21 1_555 1_555
Th3 O22 1_555 1_555
O6 Th2F 1_555 1_555
O13 Th3D 1_555 1_555
O20 Th3D 1_555 1_555
O22 Th2D 1_555 1_555
N3 C12 1_555 1_555
N6 C24 1_555 1_555
Th1D O20D 1_555 1_555
Th1D O22D 1_555 1_555
Th2D O20D 1_555 1_555
Th2D O21D 1_555 1_555
Th3D O21D 1_555 1_555
Th3D O22D 1_555 1_555

#END
