
#######################################################################
#
#                 Cambridge Crystallographic Data Centre
#                                CCDC 
#
#######################################################################
#
# If this CIF has been generated from an entry in the Cambridge 
# Structural Database, then it will include bibliographic, chemical, 
# crystal, experimental, refinement or atomic coordinate data resulting 
# from the CCDC's data processing and validation procedures.
#
#######################################################################

data_ZEDZAL
_chemical_formula_moiety         '(C27 H17 O7 Pr1)n'
_symmetry_cell_setting           hexagonal
_symmetry_space_group_name_H-M   'P 61 2 2'
_symmetry_Int_Tables_number      178
_space_group_name_Hall           'P 61 2 (0 0 5)'
loop_
_symmetry_equiv_pos_site_id
_symmetry_equiv_pos_as_xyz
1 x,y,z
2 -y,x-y,1/3+z
3 -x+y,-x,2/3+z
4 -x,-y,1/2+z
5 y,-x+y,5/6+z
6 x-y,x,1/6+z
7 y,x,1/3-z
8 x-y,-y,-z
9 -x,-x+y,2/3-z
10 -y,-x,5/6-z
11 -x+y,y,1/2-z
12 x,x-y,1/6-z
_cell_length_a                   16.4393(3)
_cell_length_b                   16.4393(3)
_cell_length_c                   23.7770(9)
_cell_angle_alpha                90
_cell_angle_beta                 90
_cell_angle_gamma                120
_cell_volume                     5564.86
loop_
_atom_site_label
_atom_site_type_symbol
_atom_site_fract_x
_atom_site_fract_y
_atom_site_fract_z
Pr1 Pr 0.91567(2) 1.0000 0.0000
C1 C 0.8243(3) 0.8004(3) 0.0363(2)
C2 C 0.7863(3) 0.6970(3) 0.0415(2)
C3 C 0.8315(4) 0.6604(3) 0.0746(2)
H1 H 0.8891 0.7012 0.0910
C4 C 0.7928(3) 0.5669(3) 0.0829(2)
H2 H 0.8223 0.5445 0.1065
C5 C 0.7069(4) 0.5024(3) 0.0559(2)
C6 C 0.6669(4) 0.5386(4) 0.0207(2)
H3 H 0.6131 0.4977 0.0008
C7 C 0.7048(3) 0.6350(3) 0.0141(2)
H4 H 0.6749 0.6576 -0.0090
C8 C 0.6579(4) 0.4014(3) 0.0697(2)
C9 C 0.7069(5) 0.3535(2) 0.0833
H5 H 0.7723 0.3861 0.0833
C10 C 0.5615(4) 0.3498(4) 0.0687(3)
H6 H 0.5284 0.3794 0.0577
C11 C 0.5115(5) 0.2557(3) 0.0833
C12 C 0.4053(5) 0.2027(3) 0.0833
C13 C 0.3567(4) 0.2233(5) 0.0424(3)
H7 H 0.3891 0.2690 0.0153
C14 C 0.2597(4) 0.1741(5) 0.0434(3)
H8 H 0.2267 0.1875 0.0167
C15 C 0.2103(5) 0.1052(2) 0.0833
C16 C 0.1053(5) 0.0527(2) 0.0833
O1 O 0.8911(2) 0.8580(2) 0.06836(14)
O2 O 0.7898(3) 0.8308(2) 0.0021(2)
O3 O 0.0652(2) 0.0709(2) 0.04446(14)
O4 O 0.7642(3) 1.0000 0.0000
Pr1E Pr 0.91567(2) 0.91567(2) 0.1667
Pr1_2 Pr -0.08433(2) 0.0000 0.0000
Pr1E_2 Pr 0.91567(2) -0.08433(2) 0.1667
Pr1_3 Pr 0.91567(2) 0.0000 0.0000
Pr1E_3 Pr -0.08433(2) -0.08433(2) 0.1667
C1K C 0.8243(3) 0.0239(4) 0.1304(2)
C2K C 0.7863(3) 0.0893(4) 0.1252(2)
C3K C 0.8315(4) 0.1711(5) 0.0921(2)
H1K H 0.8891 0.1879 0.0757
C4K C 0.7928(3) 0.2259(4) 0.0838(2)
H2K H 0.8223 0.2778 0.0602
C5K C 0.7069(4) 0.2045(5) 0.1108(2)
C6K C 0.6669(4) 0.1283(6) 0.1460(2)
H3K H 0.6131 0.1154 0.1659
C7K C 0.7048(3) 0.0698(4) 0.1526(2)
H4K H 0.6749 0.0173 0.1757
C8K C 0.6579(4) 0.2565(5) 0.0970(2)
C10K C 0.5615(4) 0.2117(6) 0.0980(3)
H6K H 0.5284 0.1490 0.1090
C13K C 0.3567(4) 0.1334(6) 0.1243(3)
H7K H 0.3891 0.1201 0.1514
C14K C 0.2597(4) 0.0856(6) 0.1233(3)
H8K H 0.2267 0.0392 0.1500
O1K O 0.8911(2) 0.0331(3) 0.09831(14)
O1D O 0.8580(2) 0.9669(3) -0.09831(14)
O1G O 1.0331(3) 1.1420(2) -0.06836(14)
O1K_2 O 0.8911(2) 1.0331(3) 0.09831(14)
O2K O 0.7898(3) -0.0410(4) 0.1646(2)
O2G O 0.9590(4) 1.1692(2) -0.0021(2)
O3K O 0.0652(2) -0.0057(3) 0.12221(14)
O3_2 O 1.0652(2) 1.0709(2) 0.04446(14)
O3G O 0.9943(3) 0.9291(2) -0.04446(14)
loop_
_geom_bond_atom_site_label_1
_geom_bond_atom_site_label_2
_geom_bond_site_symmetry_1
_geom_bond_site_symmetry_2
Pr1 O1 1_555 1_555
C1 C2 1_555 1_555
C2 C3 1_555 1_555
C3 H1 1_555 1_555
C4 C3 1_555 1_555
H2 C4 1_555 1_555
C5 C4 1_555 1_555
C6 C5 1_555 1_555
H3 C6 1_555 1_555
C7 C2 1_555 1_555
H4 C7 1_555 1_555
C8 C5 1_555 1_555
C9 C8 1_555 1_555
H5 C9 1_555 1_555
C10 C8 1_555 1_555
H6 C10 1_555 1_555
C11 C10 1_555 1_555
C12 C11 1_555 1_555
C13 C12 1_555 1_555
H7 C13 1_555 1_555
C14 C13 1_555 1_555
H8 C14 1_555 1_555
C15 C14 1_555 1_555
C16 C15 1_555 1_555
O1 C1 1_555 1_555
O2 Pr1 1_555 1_555
O3 C16 1_555 1_555
O4 Pr1 1_555 1_555
Pr1E O1 1_555 1_555
Pr1_2 O3 1_555 1_555
Pr1E_2 O1K 1_555 1_555
Pr1_3 O1K 1_555 1_555
Pr1E_3 O3K 1_555 1_555
C1K C2K 1_555 1_555
C2K C3K 1_555 1_555
C3K H1K 1_555 1_555
C4K C3K 1_555 1_555
H2K C4K 1_555 1_555
C5K C4K 1_555 1_555
C6K C5K 1_555 1_555
H3K C6K 1_555 1_555
C7K C2K 1_555 1_555
H4K C7K 1_555 1_555
C8K C9 1_555 1_555
C10K C11 1_555 1_555
H6K C10K 1_555 1_555
C13K C12 1_555 1_555
H7K C13K 1_555 1_555
C14K C15 1_555 1_555
H8K C14K 1_555 1_555
O1K C1K 1_555 1_555
O1D Pr1 1_555 1_555
O1G Pr1 1_555 1_555
O1K_2 Pr1 1_555 1_555
O2K Pr1E_2 1_555 1_555
O2G Pr1 1_555 1_555
O3K C16 1_555 1_555
O3_2 Pr1 1_555 1_555
O3G Pr1 1_555 1_555
C1 O2 1_555 1_555
C6 C7 1_555 1_555
Pr1E O1K_2 1_555 1_555
C1K O2K 1_555 1_555
C5K C8K 1_555 1_555
C6K C7K 1_555 1_555
C8K C10K 1_555 1_555
C13K C14K 1_555 1_555

#END
