
#######################################################################
#
#                 Cambridge Crystallographic Data Centre
#                                CCDC 
#
#######################################################################
#
# If this CIF has been generated from an entry in the Cambridge 
# Structural Database, then it will include bibliographic, chemical, 
# crystal, experimental, refinement or atomic coordinate data resulting 
# from the CCDC's data processing and validation procedures.
#
#######################################################################

data_FIRZOX
_chemical_formula_moiety         'C24 H35 Ce2 Cu9 O41'
_symmetry_cell_setting           hexagonal
_symmetry_space_group_name_H-M   'P -6 2 c'
_symmetry_Int_Tables_number      190
_space_group_name_Hall           'P -6c -2c'
loop_
_symmetry_equiv_pos_site_id
_symmetry_equiv_pos_as_xyz
1 x,y,z
2 -y,x-y,z
3 -x+y,-x,z
4 x,y,1/2-z
5 -y,x-y,1/2-z
6 -x+y,-x,1/2-z
7 y,x,-z
8 x-y,-y,-z
9 -x,-x+y,-z
10 y,x,1/2+z
11 x-y,-y,1/2+z
12 -x,-x+y,1/2+z
_cell_length_a                   15.5215(6)
_cell_length_b                   15.5215(6)
_cell_length_c                   13.8488(10)
_cell_angle_alpha                90
_cell_angle_beta                 90
_cell_angle_gamma                120
_cell_volume                     2889.42
loop_
_atom_site_label
_atom_site_type_symbol
_atom_site_fract_x
_atom_site_fract_y
_atom_site_fract_z
O7 O 0.5571(6) 0.7107(6) 0.2500
H6 H 0.5171 0.6782 0.2042
H6C H 0.5171 0.6782 0.2958
O8 O 0.3333 0.6667 0.2500
H7 H 0.3777 0.6514 0.2500
H7A H 0.3486 0.7263 0.2500
H7B H 0.2737 0.6223 0.2500
Ce1 Ce 0.3333 0.6667 0.033819(19)
Cu1 Cu 0.49823(4) 0.47392(4) 0.2500
O1 O 0.39511(18) 0.56392(17) 0.12086(18)
O2 O 0.3953(2) 0.4228(2) 0.15215(18)
O3 O 0.2335(2) 0.47401(16) 0.02063(17)
O4 O 0.20174(17) 0.58602(18) -0.09534(16)
O5 O 0.06006(18) 0.45897(18) -0.1513(2)
O6 O 0.4914(3) 0.3170(3) 0.2500
H1 H 0.5301 0.3174 0.2094
C1 C 0.2690(3) 0.4116(3) 0.0514(3)
H2 H 0.2857 0.3846 -0.0040
H3 H 0.2181 0.3567 0.0885
C2 C 0.3612(2) 0.4719(2) 0.1137(2)
C3 C 0.1445(3) 0.4241(3) -0.0334(3)
H4 H 0.0880 0.3932 0.0101
H5 H 0.1449 0.3722 -0.0720
C4 C 0.1352(2) 0.4970(3) -0.0982(2)
H1C H 0.5301 0.3174 0.2906
Cu1A Cu 0.52608(4) 1.02431(6) 0.2500
O1A O 0.43608(17) 0.83119(25) 0.12086(18)
O2A O 0.5772(2) 0.9725(3) 0.15215(18)
O3A O 0.52599(16) 0.75949(26) 0.02063(17)
O4A O 0.41398(18) 0.61572(25) -0.09534(16)
O5A O 0.54103(18) 0.60109(25) -0.1513(2)
O6A O 0.6830(3) 1.1744(4) 0.2500
H1A H 0.6826 1.2127 0.2094
C1A C 0.5884(3) 0.8574(4) 0.0514(3)
H2A H 0.6154 0.9011 -0.0040
H3A H 0.6433 0.8614 0.0885
C2A C 0.5281(2) 0.8893(3) 0.1137(2)
C3A C 0.5759(3) 0.7204(4) -0.0334(3)
H4A H 0.6068 0.6948 0.0101
H5A H 0.6278 0.7727 -0.0720
C4A C 0.5030(3) 0.6382(4) -0.0982(2)
H1D H 0.6826 1.2127 0.2906
Cu1B Cu -0.02431(6) 0.50177(4) 0.2500
O1B O 0.16881(25) 0.60489(18) 0.12086(18)
O2B O 0.0275(3) 0.6047(2) 0.15215(18)
O3B O 0.24051(26) 0.7665(2) 0.02063(17)
O4B O 0.38428(25) 0.79826(17) -0.09534(16)
O5B O 0.39891(25) 0.93994(18) -0.1513(2)
O6B O -0.1744(4) 0.5086(3) 0.2500
H1B H -0.2127 0.4699 0.2094
C1B C 0.1426(4) 0.7310(3) 0.0514(3)
H2B H 0.0989 0.7143 -0.0040
H3B H 0.1386 0.7819 0.0885
C2B C 0.1107(3) 0.6388(2) 0.1137(2)
C3B C 0.2796(4) 0.8555(3) -0.0334(3)
H4B H 0.3052 0.9120 0.0101
H5B H 0.2273 0.8551 -0.0720
C4B C 0.3618(4) 0.8648(2) -0.0982(2)
H1E H -0.2127 0.4699 0.2906
Ce1C Ce 0.3333 0.6667 0.466181(19)
O1C O 0.39511(18) 0.56392(17) 0.37914(18)
O2C O 0.3953(2) 0.4228(2) 0.34785(18)
O3C O 0.2335(2) 0.47401(16) 0.47937(17)
O4C O 0.20174(17) 0.58602(18) 0.59534(16)
O5C O 0.06006(18) 0.45897(18) 0.6513(2)
C1C C 0.2690(3) 0.4116(3) 0.4486(3)
H2C H 0.2857 0.3846 0.5040
H3C H 0.2181 0.3567 0.4115
C2C C 0.3612(2) 0.4719(2) 0.3863(2)
C3C C 0.1445(3) 0.4241(3) 0.5334(3)
H4C H 0.0880 0.3932 0.4899
H5C H 0.1449 0.3722 0.5720
C4C C 0.1352(2) 0.4970(3) 0.5982(2)
O1D O 0.43608(17) 0.83119(25) 0.37914(18)
O2D O 0.5772(2) 0.9725(3) 0.34785(18)
O3D O 0.52599(16) 0.75949(26) 0.47937(17)
O4D O 0.41398(18) 0.61572(25) 0.59534(16)
O5D O 0.54103(18) 0.60109(25) 0.6513(2)
C1D C 0.5884(3) 0.8574(4) 0.4486(3)
H2D H 0.6154 0.9011 0.5040
H3D H 0.6433 0.8614 0.4115
C2D C 0.5281(2) 0.8893(3) 0.3863(2)
C3D C 0.5759(3) 0.7204(4) 0.5334(3)
H4D H 0.6068 0.6948 0.4899
H5D H 0.6278 0.7727 0.5720
C4D C 0.5030(3) 0.6382(4) 0.5982(2)
O1E O 0.16881(25) 0.60489(18) 0.37914(18)
O2E O 0.0275(3) 0.6047(2) 0.34785(18)
O3E O 0.24051(26) 0.7665(2) 0.47937(17)
O4E O 0.38428(25) 0.79826(17) 0.59534(16)
O5E O 0.39891(25) 0.93994(18) 0.6513(2)
C1E C 0.1426(4) 0.7310(3) 0.4486(3)
H2E H 0.0989 0.7143 0.5040
H3E H 0.1386 0.7819 0.4115
C2E C 0.1107(3) 0.6388(2) 0.3863(2)
C3E C 0.2796(4) 0.8555(3) 0.5334(3)
H4E H 0.3052 0.9120 0.4899
H5E H 0.2273 0.8551 0.5720
C4E C 0.3618(4) 0.8648(2) 0.5982(2)
Cu1F Cu 0.47392(4) 0.49823(4) -0.2500
Cu1F_2 Cu 0.47392(4) 0.49823(4) 0.7500
Cu1G Cu 0.02431(6) 0.52608(4) -0.2500
Cu1G_2 Cu 0.02431(6) 0.52608(4) 0.7500
Cu1H Cu 0.50177(4) 0.97569(6) -0.2500
Cu1H_2 Cu 0.50177(4) 0.97569(6) 0.7500
O5F O 0.45897(18) 1.06006(18) 0.1513(2)
O5G O 0.60109(25) 0.54103(18) 0.1513(2)
O5H O -0.06006(18) 0.39891(25) 0.1513(2)
O5I O 0.45897(18) 1.06006(18) 0.3487(2)
O5J O 0.60109(25) 0.54103(18) 0.3487(2)
O5K O -0.06006(18) 0.39891(25) 0.3487(2)
loop_
_geom_bond_atom_site_label_1
_geom_bond_atom_site_label_2
_geom_bond_site_symmetry_1
_geom_bond_site_symmetry_2
Ce1 O1 1_555 1_555
Cu1 O2 1_555 1_555
O1 C2 1_555 1_555
O2 C2 1_555 1_555
O3 Ce1 1_555 1_555
O4 Ce1 1_555 1_555
O5 C4 1_555 1_555
O6 Cu1 1_555 1_555
H1 O6 1_555 1_555
C1 O3 1_555 1_555
H2 C1 1_555 1_555
H3 C1 1_555 1_555
C2 C1 1_555 1_555
C3 O3 1_555 1_555
H4 C3 1_555 1_555
H5 C3 1_555 1_555
C4 O4 1_555 1_555
O7 H6 1_555 1_555
O8 H7 1_555 1_555
H1C O6 1_555 1_555
Cu1A O2A 1_555 1_555
O1A Ce1 1_555 1_555
O2A C2A 1_555 1_555
O3A Ce1 1_555 1_555
O4A Ce1 1_555 1_555
O5A C4A 1_555 1_555
O6A Cu1A 1_555 1_555
H1A O6A 1_555 1_555
C1A O3A 1_555 1_555
H2A C1A 1_555 1_555
H3A C1A 1_555 1_555
C2A O1A 1_555 1_555
C3A O3A 1_555 1_555
H4A C3A 1_555 1_555
H5A C3A 1_555 1_555
C4A O4A 1_555 1_555
H1D O6A 1_555 1_555
Cu1B O2B 1_555 1_555
O1B Ce1 1_555 1_555
O2B C2B 1_555 1_555
O3B Ce1 1_555 1_555
O4B Ce1 1_555 1_555
O5B C4B 1_555 1_555
O6B Cu1B 1_555 1_555
H1B O6B 1_555 1_555
C1B O3B 1_555 1_555
H2B C1B 1_555 1_555
H3B C1B 1_555 1_555
C2B O1B 1_555 1_555
C3B O3B 1_555 1_555
H4B C3B 1_555 1_555
H5B C3B 1_555 1_555
C4B O4B 1_555 1_555
H1E O6B 1_555 1_555
Ce1C O1C 1_555 1_555
O1C C2C 1_555 1_555
O2C Cu1 1_555 1_555
O3C Ce1C 1_555 1_555
O4C Ce1C 1_555 1_555
O5C C4C 1_555 1_555
C1C O3C 1_555 1_555
H2C C1C 1_555 1_555
H3C C1C 1_555 1_555
C2C O2C 1_555 1_555
C3C O3C 1_555 1_555
H4C C3C 1_555 1_555
H5C C3C 1_555 1_555
C4C O4C 1_555 1_555
O1D Ce1C 1_555 1_555
O2D Cu1A 1_555 1_555
O3D Ce1C 1_555 1_555
O4D Ce1C 1_555 1_555
O5D C4D 1_555 1_555
C1D O3D 1_555 1_555
H2D C1D 1_555 1_555
H3D C1D 1_555 1_555
C2D O1D 1_555 1_555
C3D O3D 1_555 1_555
H4D C3D 1_555 1_555
H5D C3D 1_555 1_555
C4D O4D 1_555 1_555
O1E Ce1C 1_555 1_555
O2E Cu1B 1_555 1_555
O3E Ce1C 1_555 1_555
O4E Ce1C 1_555 1_555
O5E C4E 1_555 1_555
C1E O3E 1_555 1_555
H2E C1E 1_555 1_555
H3E C1E 1_555 1_555
C2E O1E 1_555 1_555
C3E O3E 1_555 1_555
H4E C3E 1_555 1_555
H5E C3E 1_555 1_555
C4E O4E 1_555 1_555
Cu1F O5A 1_555 1_555
Cu1F_2 O5D 1_555 1_555
Cu1G O5 1_555 1_555
Cu1G_2 O5C 1_555 1_555
Cu1H O5B 1_555 1_555
Cu1H_2 O5E 1_555 1_555
O5F Cu1A 1_555 1_555
O5G Cu1 1_555 1_555
O5H Cu1B 1_555 1_555
O5I Cu1A 1_555 1_555
O5J Cu1 1_555 1_555
O5K Cu1B 1_555 1_555
H6C O7 1_555 1_555
H7A O8 1_555 1_555
H7B O8 1_555 1_555
C3 C4 1_555 1_555
C1A C2A 1_555 1_555
C3A C4A 1_555 1_555
C1B C2B 1_555 1_555
C3B C4B 1_555 1_555
C1C C2C 1_555 1_555
C3C C4C 1_555 1_555
O2D C2D 1_555 1_555
C1D C2D 1_555 1_555
C3D C4D 1_555 1_555
O2E C2E 1_555 1_555
C1E C2E 1_555 1_555
C3E C4E 1_555 1_555

#END
