
#######################################################################
#
#                 Cambridge Crystallographic Data Centre
#                                CCDC 
#
#######################################################################
#
# If this CIF has been generated from an entry in the Cambridge 
# Structural Database, then it will include bibliographic, chemical, 
# crystal, experimental, refinement or atomic coordinate data resulting 
# from the CCDC's data processing and validation procedures.
#
#######################################################################

data_DALRUF
_chemical_formula_moiety         '(C112 H138 Cu4 N42 O39 S8)n'
_symmetry_cell_setting           monoclinic
_symmetry_space_group_name_H-M   'P 21/n'
_symmetry_Int_Tables_number      14
_space_group_name_Hall           '-P 2yn'
loop_
_symmetry_equiv_pos_site_id
_symmetry_equiv_pos_as_xyz
1 x,y,z
2 1/2-x,1/2+y,1/2-z
3 -x,-y,-z
4 1/2+x,1/2-y,1/2+z
_cell_length_a                   20.6238(6)
_cell_length_b                   16.4559(3)
_cell_length_c                   21.8274(6)
_cell_angle_alpha                90
_cell_angle_beta                 112.992(3)
_cell_angle_gamma                90
_cell_volume                     6819.37
loop_
_atom_site_label
_atom_site_type_symbol
_atom_site_fract_x
_atom_site_fract_y
_atom_site_fract_z
Cu1 Cu 0.22129(2) 0.24727(2) 0.931567(18)
Cu2 Cu 0.63779(2) 0.31948(2) 1.073676(19)
C1 C 0.33971(17) 0.83358(19) 1.28489(15)
H1 H 0.3087 0.8196 1.3072
H2 H 0.3380 0.8921 1.2790
C2 C 0.41411(17) 0.80917(18) 1.32871(15)
C3 C 0.42783(18) 0.73555(18) 1.36275(15)
C4 C 0.49605(18) 0.71025(18) 1.40229(15)
C5 C 0.55075(17) 0.76282(18) 1.40812(15)
H3 H 0.5967 0.7478 1.4344
C6 C 0.53861(17) 0.83711(18) 1.37586(15)
C7 C 0.47044(18) 0.85897(18) 1.33612(15)
H4 H 0.4623 0.9085 1.3138
C8 C 0.51124(19) 0.62959(18) 1.43964(16)
H5 H 0.4784 0.6230 1.4612
H6 H 0.5583 0.6316 1.4742
C9 C 0.50587(19) 0.55570(18) 1.39621(15)
C10 C 0.5629(2) 0.53169(18) 1.38231(16)
H7 H 0.6052 0.5597 1.4009
C11 C 0.5572(2) 0.4661(2) 1.34080(17)
C12 C 0.4942(2) 0.42558(19) 1.31228(17)
H8 H 0.4909 0.3825 1.2837
C13 C 0.4352(2) 0.44669(19) 1.32463(16)
C14 C 0.4438(2) 0.51101(19) 1.36910(16)
C15 C 0.3654(2) 0.4046(2) 1.28670(17)
H9 H 0.3733 0.3467 1.2848
H10 H 0.3344 0.4124 1.3101
C16 C 0.3303(2) 0.4377(2) 1.21631(17)
C17 C 0.2830(2) 0.5018(2) 1.20228(19)
C18 C 0.25345(17) 0.5370(2) 1.13910(17)
C19 C 0.27176(17) 0.50491(19) 1.08928(17)
H11 H 0.2521 0.5265 1.0466
C20 C 0.31916(17) 0.44081(18) 1.10261(16)
C21 C 0.34761(18) 0.40735(18) 1.16535(16)
H12 H 0.3787 0.3639 1.1737
C22 C 0.20489(19) 0.6100(2) 1.12401(18)
H13 H 0.1771 0.6076 1.1510
H14 H 0.1728 0.6086 1.0776
C23 C 0.24608(17) 0.6884(2) 1.13798(17)
C24 C 0.26538(19) 0.7239(2) 1.09031(18)
H15 H 0.2492 0.7016 1.0478
C25 C 0.3079(2) 0.7916(2) 1.10408(17)
C26 C 0.33243(18) 0.82451(19) 1.16794(17)
H16 H 0.3629 0.8687 1.1779
C27 C 0.31270(17) 0.79318(19) 1.21702(16)
C28 C 0.26893(18) 0.7256(2) 1.20105(17)
C29 C 0.57745(17) 0.36696(17) 0.93296(15)
H17 H 0.6175 0.3480 0.9278
C30 C 0.50270(18) 0.39739(18) 0.97234(16)
H18 H 0.4809 0.4032 1.0022
C31 C 0.51494(19) 0.41866(18) 0.81768(15)
H19 H 0.5558 0.4480 0.8179
H20 H 0.4741 0.4532 0.7969
C32 C 0.50569(18) 0.3418(2) 0.77686(16)
H21 H 0.5469 0.3078 0.7979
H22 H 0.5038 0.3565 0.7331
C33 C 0.44045(18) 0.29193(19) 0.76819(17)
H23 H 0.4382 0.2453 0.7403
H24 H 0.4444 0.2720 0.8113
C34 C 0.37381(19) 0.3401(2) 0.7375(2)
H25 H 0.3712 0.3787 0.7700
H26 H 0.3756 0.3708 0.7002
C35 C 0.26605(19) 0.2758(2) 0.65273(17)
H27 H 0.2702 0.2970 0.6150
C36 C 0.2320(2) 0.2137(2) 0.71694(18)
H28 H 0.2049 0.1809 0.7324
C37 C 0.5462(2) 0.1728(3) 1.0543(2)
H29 H 0.5626 0.1513 1.0236
C38 C 0.5319(2) 0.2508(2) 1.12175(19)
H30 H 0.5345 0.2947 1.1495
C39 C 0.4390(2) 0.1729(2) 1.1442(3)
H31 H 0.3919 0.1789 1.1102
H32 H 0.4450 0.2128 1.1787
C40 C 0.4476(2) 0.0879(2) 1.1737(2)
H33 H 0.4937 0.0833 1.2095
H34 H 0.4451 0.0485 1.1398
C41 C 0.3911(2) 0.0683(2) 1.2004(2)
H35 H 0.4087 0.0256 1.2335
H36 H 0.3832 0.1161 1.2226
C42 C 0.3216(2) 0.0415(2) 1.14808(19)
H37 H 0.3298 -0.0027 1.1225
H38 H 0.2918 0.0211 1.1698
C43 C 0.2692(2) 0.1134(2) 1.03853(18)
H39 H 0.2748 0.0724 1.0117
C44 C 0.24515(19) 0.2224(2) 1.07331(17)
H40 H 0.2295 0.2754 1.0735
C45 C 0.1430(2) 0.3091(2) 0.79195(18)
H41 H 0.1109 0.2666 0.7830
C46 C 0.2260(2) 0.3854(2) 0.8422(2)
H42 H 0.2651 0.4097 0.8746
C47 C 0.2062(6) 0.5013(8) 0.7638(5)
H43 H 0.2320 0.5287 0.8056
H44 H 0.2385 0.4964 0.7414
C48 C 0.1590(13) 0.5505(6) 0.7293(8)
H45 H 0.1551 0.5839 0.7643
H46 H 0.1858 0.5836 0.7108
C49 C 0.1025(7) 0.5582(9) 0.6882(8)
H47 H 0.0844 0.6065 0.7016
H48 H 0.0761 0.5132 0.6957
C50 C 0.0738(3) 0.5653(3) 0.6080(3)
C51 C 0.1753(2) 0.6345(2) 0.59037(19)
H49 H 0.2037 0.5890 0.5954
C52 C 0.1341(2) 0.7517(2) 0.57573(17)
H50 H 0.1298 0.8072 0.5670
C53 C 0.0783(2) 0.2350(2) 0.94052(19)
H51 H 0.0803 0.1786 0.9417
C54 C 0.1062(2) 0.3547(2) 0.93635(19)
H52 H 0.1303 0.4019 0.9348
C55 C -0.0026(2) 0.4221(3) 0.9363(3)
H53 H -0.0028 0.4608 0.9027
H54 H -0.0504 0.4032 0.9250
C56 C 0.0233(3) 0.4613(2) 1.0016(2)
H55 H 0.0721 0.4774 1.0141
H56 H 0.0209 0.4236 1.0348
O1 O 0.63447(16) 0.92841(17) 1.45714(15)
O2 O 0.65884(14) 0.86494(15) 1.36995(16)
O3 O 0.61097(15) 0.42544(14) 1.13785(12)
H57 H 0.5983 0.4614 1.1188
H58 H 0.6085 0.4195 1.1751
O4 O 0.57806(15) 0.97564(15) 1.34590(16)
O5 O 0.70533(13) 0.39412(15) 1.05977(12)
H59 H 0.6922 0.4416 1.0466
H60 H 0.7408 0.3877 1.0744
O7 O 0.3927(5) 0.8803(5) 1.0740(5)
O9 O 0.2687(5) 0.9025(5) 1.0139(5)
O12 O 0.32927(15) 0.78133(15) 0.99595(12)
O14 O 0.27424(13) 0.36309(13) 0.99269(11)
O15 O 0.35726(14) 0.46781(12) 1.00424(12)
O16 O 0.39572(14) 0.34417(15) 1.06624(12)
O18 O 0.5971(4) 0.3857(4) 1.2582(4)
O19 O 0.6890(4) 0.4946(4) 1.3541(3)
O21 O 0.65829(14) 0.36481(14) 1.37057(13)
O22 O 0.26637(15) 0.52882(15) 1.25373(13)
H61 H 0.2384 0.5666 1.2409
O23 O 0.24329(13) 0.69231(14) 1.24472(12)
H62 H 0.2729 0.6967 1.2828
O24 O 0.36945(12) 0.69050(13) 1.35552(12)
H63 H 0.3816 0.6482 1.3768
O25 O 0.38948(14) 0.53481(13) 1.38745(12)
H64 H 0.3552 0.5054 1.3692
N1 N 0.24431(15) 0.18603(15) 1.01778(12)
N2 N 0.28527(16) 0.10702(16) 1.10316(14)
N3 N 0.26962(16) 0.17762(18) 1.12668(14)
N4 N 0.49134(16) 0.18773(19) 1.11472(17)
N5 N 0.5000(2) 0.1359(2) 1.07110(19)
N6 N 0.56844(14) 0.24406(16) 1.08454(13)
N7 N 0.56651(14) 0.36236(13) 0.98858(12)
N8 N 0.52381(14) 0.40200(14) 0.88609(12)
N9 N 0.47443(15) 0.42244(15) 0.91017(13)
N10 N 0.30995(15) 0.29044(15) 0.71403(14)
N11 N 0.21548(14) 0.22705(15) 0.65210(13)
N12 N 0.28906(17) 0.2501(2) 0.75691(14)
N13 N 0.1390(2) 0.36477(19) 0.74744(16)
N14 N 0.19340(18) 0.41372(18) 0.78222(18)
N15 N 0.19645(14) 0.31808(14) 0.85106(13)
N16 N 0.11327(19) 0.6348(2) 0.59528(17)
N17 N 0.19073(15) 0.70828(15) 0.57737(13)
N18 N 0.08660(18) 0.7109(2) 0.58712(16)
N19 N 0.02410(18) 0.2753(2) 0.94184(19)
N20 N 0.13065(14) 0.28096(15) 0.93736(13)
N21 N 0.04328(18) 0.35286(19) 0.93773(18)
S1 S 0.32292(7) 0.84299(7) 1.03947(5)
S2 S 0.60839(5) 0.90691(5) 1.38872(5)
S3 S 0.33913(5) 0.40061(5) 1.03695(4)
S4 S 0.63143(6) 0.42988(5) 1.32669(5)
Cu1C Cu -0.27871(2) 0.25273(2) 0.431567(18)
Cu1C_2 Cu 0.72129(2) 0.25273(2) 1.431567(18)
Cu1A Cu 0.27871(2) 0.74727(2) 0.568433(18)
Cu1B Cu -0.22129(2) 0.75273(2) 1.068433(18)
Cu1A_2 Cu 0.27871(2) -0.25273(2) 0.568433(18)
Cu2C Cu 0.13779(2) 0.18052(2) 0.573676(19)
Cu2C_2 Cu 1.13779(2) 0.18052(2) 1.573676(19)
C1C C -0.16029(17) -0.33358(19) 0.78489(15)
H1C H -0.1913 -0.3196 0.8072
H2C H -0.1620 -0.3921 0.7790
C2C C -0.08589(17) -0.30917(18) 0.82871(15)
C3C C -0.07217(18) -0.23555(18) 0.86275(15)
C4C C -0.00395(18) -0.21025(18) 0.90229(15)
C5C C 0.05075(17) -0.26282(18) 0.90812(15)
H3C H 0.0967 -0.2478 0.9344
C6C C 0.03861(17) -0.33711(18) 0.87586(15)
C7C C -0.02956(18) -0.35897(18) 0.83612(15)
H4C H -0.0377 -0.4085 0.8138
C8C C 0.01124(19) -0.12959(18) 0.93964(16)
H5C H -0.0216 -0.1230 0.9612
H6C H 0.0583 -0.1316 0.9742
C9C C 0.00587(19) -0.05570(18) 0.89621(15)
C10C C 0.0629(2) -0.03169(18) 0.88231(16)
H7C H 0.1052 -0.0597 0.9009
C11C C 0.0572(2) 0.0339(2) 0.84080(17)
C12C C -0.0058(2) 0.07442(19) 0.81228(17)
H8C H -0.0091 0.1175 0.7837
C13C C -0.0648(2) 0.05331(19) 0.82463(16)
C14C C -0.0562(2) -0.01101(19) 0.86910(16)
C15C C -0.1346(2) 0.0954(2) 0.78670(17)
H9C H -0.1267 0.1533 0.7848
H10C H -0.1656 0.0876 0.8101
C16C C -0.1697(2) 0.0623(2) 0.71631(17)
C17C C -0.2170(2) -0.0018(2) 0.70228(19)
C18C C -0.24655(17) -0.0370(2) 0.63910(17)
C19C C -0.22824(17) -0.00491(19) 0.58928(17)
H11C H -0.2479 -0.0265 0.5466
C20C C -0.18084(17) 0.05919(18) 0.60261(16)
C21C C -0.15239(18) 0.09265(18) 0.66535(16)
H12C H -0.1213 0.1361 0.6737
C22C C -0.29511(19) -0.1100(2) 0.62401(18)
H13C H -0.3229 -0.1076 0.6510
H14C H -0.3272 -0.1086 0.5776
C23C C -0.25392(17) -0.1884(2) 0.63798(17)
C24C C -0.23462(19) -0.2239(2) 0.59031(18)
H15C H -0.2508 -0.2016 0.5478
C25C C -0.1921(2) -0.2916(2) 0.60408(17)
C26C C -0.16757(18) -0.32451(19) 0.66794(17)
H16C H -0.1371 -0.3687 0.6779
C27C C -0.18730(17) -0.29318(19) 0.71702(16)
C28C C -0.23107(18) -0.2256(2) 0.70105(17)
C29C C 1.07745(17) 0.13304(17) 1.43296(15)
H17C H 1.1175 0.1520 1.4278
C30C C 1.00270(18) 0.10261(18) 1.47234(16)
H18C H 0.9809 0.0968 1.5022
C31C C 1.01494(19) 0.08134(18) 1.31768(15)
H19C H 1.0558 0.0520 1.3179
H20C H 0.9741 0.0468 1.2969
C32C C 1.00569(18) 0.1582(2) 1.27686(16)
H21C H 1.0469 0.1922 1.2979
H22C H 1.0038 0.1435 1.2331
C33C C 0.94045(18) 0.20807(19) 1.26819(17)
H23C H 0.9382 0.2547 1.2403
H24C H 0.9444 0.2280 1.3113
C34C C 0.87381(19) 0.1599(2) 1.2375(2)
H25C H 0.8712 0.1213 1.2700
H26C H 0.8756 0.1292 1.2002
C35C C 0.76605(19) 0.2242(2) 1.15273(17)
H27C H 0.7702 0.2030 1.1150
C36C C 0.7320(2) 0.2863(2) 1.21694(18)
H28C H 0.7049 0.3191 1.2324
C37C C 0.0462(2) 0.3272(3) 0.5543(2)
H29C H 0.0626 0.3487 0.5236
C38C C 0.0319(2) 0.2492(2) 0.62175(19)
H30C H 0.0345 0.2053 0.6495
C39C C -0.0610(2) 0.3271(2) 0.6442(3)
H31C H -0.1081 0.3211 0.6102
H32C H -0.0550 0.2872 0.6787
C40C C -0.0524(2) 0.4121(2) 0.6737(2)
H33C H -0.0063 0.4167 0.7095
H34C H -0.0549 0.4515 0.6398
C41C C -0.1089(2) 0.4317(2) 0.7004(2)
H35C H -0.0913 0.4744 0.7335
H36C H -0.1168 0.3839 0.7226
C42C C -0.1784(2) 0.4585(2) 0.64808(19)
H37C H -0.1702 0.5027 0.6225
H38C H -0.2082 0.4789 0.6698
C43C C -0.2308(2) 0.3866(2) 0.53853(18)
H39C H -0.2252 0.4276 0.5117
C44C C -0.25485(19) 0.2776(2) 0.57331(17)
H40C H -0.2705 0.2246 0.5735
C45A C 0.3570(2) -0.1909(2) 0.70805(18)
H41A H 0.3891 -0.2334 0.7170
C46A C 0.2740(2) -0.1146(2) 0.6578(2)
H42A H 0.2349 -0.0903 0.6254
C47A C 0.2938(6) 0.0013(8) 0.7362(5)
H43A H 0.2680 0.0287 0.6944
H44A H 0.2615 -0.0036 0.7586
C48A C 0.3410(13) 0.0505(6) 0.7707(8)
H45A H 0.3449 0.0839 0.7357
H46A H 0.3142 0.0836 0.7892
C49A C 0.3975(7) 0.0582(9) 0.8118(8)
H47A H 0.4156 0.1065 0.7984
H48A H 0.4239 0.0132 0.8043
C50A C 0.4262(3) 0.0653(3) 0.8920(3)
C51A C 0.3247(2) 0.1345(2) 0.90963(19)
H49A H 0.2963 0.0890 0.9046
C52A C 0.3659(2) 0.2517(2) 0.92427(17)
H50A H 0.3702 0.3072 0.9330
C53B C -0.0783(2) 0.7650(2) 1.05948(19)
H51B H -0.0803 0.8214 1.0583
C54B C -0.1062(2) 0.6453(2) 1.06365(19)
H52B H -0.1303 0.5981 1.0652
C55B C 0.0026(2) 0.5779(3) 1.0637(3)
H53B H 0.0028 0.5392 1.0973
H54B H 0.0504 0.5968 1.0750
C56B C -0.0233(3) 0.5387(2) 0.9984(2)
H55B H -0.0721 0.5226 0.9859
H56B H -0.0209 0.5764 0.9652
O1C O 0.13447(16) -0.42841(17) 0.95714(15)
O2C O 0.15884(14) -0.36494(15) 0.86995(16)
O3C O 0.11097(15) 0.07456(14) 0.63785(12)
H57C H 0.0983 0.0386 0.6188
H58C H 0.1085 0.0805 0.6751
O4C O 0.07806(15) -0.47564(15) 0.84590(16)
O5C O 0.20533(13) 0.10588(15) 0.55977(12)
H59C H 0.1922 0.0584 0.5466
H60C H 0.2408 0.1123 0.5744
O7C O -0.1073(5) -0.3803(5) 0.5740(5)
O9C O -0.2313(5) -0.4025(5) 0.5139(5)
O12C O -0.17073(15) -0.28133(15) 0.49595(12)
O14C O -0.22576(13) 0.13691(13) 0.49269(11)
O15C O -0.14274(14) 0.03219(12) 0.50424(12)
O16C O -0.10428(14) 0.15583(15) 0.56624(12)
O18C O 0.0971(4) 0.1143(4) 0.7582(4)
O19C O 0.1890(4) 0.0054(4) 0.8541(3)
O21C O 0.15829(14) 0.13519(14) 0.87057(13)
O21_2 O -0.34171(14) 0.36481(14) 0.37057(13)
O22C O -0.23363(15) -0.02882(15) 0.75373(13)
H61C H -0.2616 -0.0666 0.7409
O23C O -0.25671(13) -0.19231(14) 0.74472(12)
H62C H -0.2271 -0.1967 0.7828
O24C O -0.13055(12) -0.19050(13) 0.85552(12)
H63C H -0.1184 -0.1482 0.8768
O25C O -0.11052(14) -0.03481(13) 0.88745(12)
H64C H -0.1448 -0.0054 0.8692
N1C N -0.25569(15) 0.31397(15) 0.51778(12)
N2C N -0.21473(16) 0.39298(16) 0.60316(14)
N3C N -0.23038(16) 0.32238(18) 0.62668(14)
N4C N -0.00866(16) 0.31227(19) 0.61472(17)
N5C N 0.0000(2) 0.3641(2) 0.57110(19)
N6C N 0.06844(14) 0.25594(16) 0.58454(13)
N7C N 1.06651(14) 0.13764(13) 1.48858(12)
N7C_2 N 0.06651(14) 0.13764(13) 0.48858(12)
N8C N 1.02381(14) 0.09800(14) 1.38609(12)
N9C N 0.97443(15) 0.07756(15) 1.41017(13)
N10C N 0.80995(15) 0.20956(15) 1.21403(14)
N11C N 0.71548(14) 0.27295(15) 1.15210(13)
N12C N 0.78906(17) 0.2499(2) 1.25691(14)
N13A N 0.3610(2) -0.13523(19) 0.75256(16)
N14A N 0.30660(18) -0.08628(18) 0.71778(18)
N15A N 0.30355(14) -0.18192(14) 0.64894(13)
N15C N -0.30355(14) 0.18192(14) 0.35106(13)
N16A N 0.38673(19) 0.1348(2) 0.90472(17)
N17A N 0.30927(15) 0.20828(15) 0.92263(13)
N17B N -0.19073(15) 0.29172(15) 0.42263(13)
N18A N 0.41340(18) 0.2109(2) 0.91288(16)
N19B N -0.02410(18) 0.7247(2) 1.05816(19)
N20B N -0.13065(14) 0.71904(15) 1.06264(13)
N20C N -0.36935(14) 0.21904(15) 0.43736(13)
N21B N -0.04328(18) 0.64714(19) 1.06227(18)
S1C S -0.17708(7) -0.34299(7) 0.53947(5)
S2C S 0.10839(5) -0.40691(5) 0.88872(5)
S3C S -0.16087(5) 0.09939(5) 0.53695(4)
S4C S 0.13143(6) 0.07012(5) 0.82669(5)
O8 O 0.67341(17) 0.58433(19) 0.57398(16)
O11 O 0.3904(5) 0.2789(5) 0.4154(5)
O13 O 0.6039(7) -0.0146(7) 0.9952(6)
loop_
_geom_bond_atom_site_label_1
_geom_bond_atom_site_label_2
_geom_bond_site_symmetry_1
_geom_bond_site_symmetry_2
Cu1 O14 1_555 1_555
Cu2 O3 1_555 1_555
C1 H1 1_555 1_555
H2 C1 1_555 1_555
C2 C1 1_555 1_555
C3 C2 1_555 1_555
C4 C3 1_555 1_555
C5 C4 1_555 1_555
H3 C5 1_555 1_555
C6 C5 1_555 1_555
C7 C2 1_555 1_555
H4 C7 1_555 1_555
C8 C4 1_555 1_555
H5 C8 1_555 1_555
H6 C8 1_555 1_555
C9 C8 1_555 1_555
C10 C9 1_555 1_555
H7 C10 1_555 1_555
C11 C10 1_555 1_555
C12 C11 1_555 1_555
H8 C12 1_555 1_555
C13 C12 1_555 1_555
C14 C9 1_555 1_555
C15 C13 1_555 1_555
H9 C15 1_555 1_555
H10 C15 1_555 1_555
C16 C15 1_555 1_555
C17 C16 1_555 1_555
C18 C17 1_555 1_555
C19 C18 1_555 1_555
H11 C19 1_555 1_555
C20 C19 1_555 1_555
C21 C16 1_555 1_555
H12 C21 1_555 1_555
C22 C18 1_555 1_555
H13 C22 1_555 1_555
H14 C22 1_555 1_555
C23 C22 1_555 1_555
C24 C23 1_555 1_555
H15 C24 1_555 1_555
C25 C24 1_555 1_555
C26 C25 1_555 1_555
H16 C26 1_555 1_555
C27 C1 1_555 1_555
C28 C23 1_555 1_555
C29 H17 1_555 1_555
C30 H18 1_555 1_555
C31 H19 1_555 1_555
H20 C31 1_555 1_555
C32 C31 1_555 1_555
H21 C32 1_555 1_555
H22 C32 1_555 1_555
C33 C32 1_555 1_555
H23 C33 1_555 1_555
H24 C33 1_555 1_555
C34 C33 1_555 1_555
H25 C34 1_555 1_555
H26 C34 1_555 1_555
C35 H27 1_555 1_555
C36 H28 1_555 1_555
C37 H29 1_555 1_555
C38 H30 1_555 1_555
C39 H31 1_555 1_555
H32 C39 1_555 1_555
C40 C39 1_555 1_555
H33 C40 1_555 1_555
H34 C40 1_555 1_555
C41 C40 1_555 1_555
H35 C41 1_555 1_555
H36 C41 1_555 1_555
C42 C41 1_555 1_555
H37 C42 1_555 1_555
H38 C42 1_555 1_555
C43 H39 1_555 1_555
C44 H40 1_555 1_555
C45 H41 1_555 1_555
C46 H42 1_555 1_555
C47 H43 1_555 1_555
H44 C47 1_555 1_555
C48 C47 1_555 1_555
H45 C48 1_555 1_555
H46 C48 1_555 1_555
C49 C48 1_555 1_555
H47 C49 1_555 1_555
H48 C49 1_555 1_555
C50 C49 1_555 1_555
C51 H49 1_555 1_555
C52 H50 1_555 1_555
C53 H51 1_555 1_555
C54 H52 1_555 1_555
C55 H53 1_555 1_555
H54 C55 1_555 1_555
C56 C55 1_555 1_555
H55 C56 1_555 1_555
H56 C56 1_555 1_555
O1 S2 1_555 1_555
O2 S2 1_555 1_555
O3 H57 1_555 1_555
H58 O3 1_555 1_555
O4 S2 1_555 1_555
O5 Cu2 1_555 1_555
H59 O5 1_555 1_555
H60 O5 1_555 1_555
O7 S1 1_555 1_555
O9 S1 1_555 1_555
O12 S1 1_555 1_555
O14 S3 1_555 1_555
O15 S3 1_555 1_555
O16 S3 1_555 1_555
O18 S4 1_555 1_555
O19 S4 1_555 1_555
O21 S4 1_555 1_555
O22 C17 1_555 1_555
H61 O22 1_555 1_555
O23 C28 1_555 1_555
H62 O23 1_555 1_555
O24 C3 1_555 1_555
H63 O24 1_555 1_555
O25 C14 1_555 1_555
H64 O25 1_555 1_555
N1 Cu1 1_555 1_555
N2 C42 1_555 1_555
N3 C44 1_555 1_555
N4 C38 1_555 1_555
N5 C37 1_555 1_555
N6 Cu2 1_555 1_555
N7 Cu2 1_555 1_555
N8 C29 1_555 1_555
N9 C30 1_555 1_555
N10 C34 1_555 1_555
N11 C35 1_555 1_555
N12 C36 1_555 1_555
N13 C45 1_555 1_555
N14 C46 1_555 1_555
N15 Cu1 1_555 1_555
N16 C50 1_555 1_555
N17 C51 1_555 1_555
N18 C52 1_555 1_555
N19 C53 1_555 1_555
N20 Cu1 1_555 1_555
N21 C54 1_555 1_555
S1 C25 1_555 1_555
S2 C6 1_555 1_555
S3 C20 1_555 1_555
S4 C11 1_555 1_555
Cu1C O14C 1_555 1_555
Cu1C_2 O21 1_555 1_555
Cu1A N17 1_555 1_555
Cu1B N20B 1_555 1_555
Cu1A_2 N15A 1_555 1_555
Cu2C N11 1_555 1_555
Cu2C_2 N7C 1_555 1_555
C1C H1C 1_555 1_555
H2C C1C 1_555 1_555
C2C C1C 1_555 1_555
C3C C2C 1_555 1_555
C4C C3C 1_555 1_555
C5C C4C 1_555 1_555
H3C C5C 1_555 1_555
C6C C5C 1_555 1_555
C7C C2C 1_555 1_555
H4C C7C 1_555 1_555
C8C C4C 1_555 1_555
H5C C8C 1_555 1_555
H6C C8C 1_555 1_555
C9C C8C 1_555 1_555
C10C C9C 1_555 1_555
H7C C10C 1_555 1_555
C11C C10C 1_555 1_555
C12C C11C 1_555 1_555
H8C C12C 1_555 1_555
C13C C12C 1_555 1_555
C14C C9C 1_555 1_555
C15C C13C 1_555 1_555
H9C C15C 1_555 1_555
H10C C15C 1_555 1_555
C16C C15C 1_555 1_555
C17C C16C 1_555 1_555
C18C C17C 1_555 1_555
C19C C18C 1_555 1_555
H11C C19C 1_555 1_555
C20C C19C 1_555 1_555
C21C C16C 1_555 1_555
H12C C21C 1_555 1_555
C22C C18C 1_555 1_555
H13C C22C 1_555 1_555
H14C C22C 1_555 1_555
C23C C22C 1_555 1_555
C24C C23C 1_555 1_555
H15C C24C 1_555 1_555
C25C C24C 1_555 1_555
C26C C25C 1_555 1_555
H16C C26C 1_555 1_555
C27C C1C 1_555 1_555
C28C C23C 1_555 1_555
C29C H17C 1_555 1_555
C30C H18C 1_555 1_555
C31C H19C 1_555 1_555
H20C C31C 1_555 1_555
C32C C31C 1_555 1_555
H21C C32C 1_555 1_555
H22C C32C 1_555 1_555
C33C C32C 1_555 1_555
H23C C33C 1_555 1_555
H24C C33C 1_555 1_555
C34C C33C 1_555 1_555
H25C C34C 1_555 1_555
H26C C34C 1_555 1_555
C35C H27C 1_555 1_555
C36C H28C 1_555 1_555
C37C H29C 1_555 1_555
C38C H30C 1_555 1_555
C39C H31C 1_555 1_555
H32C C39C 1_555 1_555
C40C C39C 1_555 1_555
H33C C40C 1_555 1_555
H34C C40C 1_555 1_555
C41C C40C 1_555 1_555
H35C C41C 1_555 1_555
H36C C41C 1_555 1_555
C42C C41C 1_555 1_555
H37C C42C 1_555 1_555
H38C C42C 1_555 1_555
C43C H39C 1_555 1_555
C44C H40C 1_555 1_555
C45A H41A 1_555 1_555
C46A H42A 1_555 1_555
C47A H43A 1_555 1_555
H44A C47A 1_555 1_555
C48A C47A 1_555 1_555
H45A C48A 1_555 1_555
H46A C48A 1_555 1_555
C49A C48A 1_555 1_555
H47A C49A 1_555 1_555
H48A C49A 1_555 1_555
C50A C49A 1_555 1_555
C51A H49A 1_555 1_555
C52A H50A 1_555 1_555
C53B H51B 1_555 1_555
C54B H52B 1_555 1_555
C55B H53B 1_555 1_555
H54B C55B 1_555 1_555
C56B C56 1_555 1_555
H55B C56B 1_555 1_555
H56B C56B 1_555 1_555
O1C S2C 1_555 1_555
O2C S2C 1_555 1_555
O3C Cu2C 1_555 1_555
H57C O3C 1_555 1_555
H58C O3C 1_555 1_555
O4C S2C 1_555 1_555
O5C Cu2C 1_555 1_555
H59C O5C 1_555 1_555
H60C O5C 1_555 1_555
O7C S1C 1_555 1_555
O9C S1C 1_555 1_555
O12C S1C 1_555 1_555
O14C S3C 1_555 1_555
O15C S3C 1_555 1_555
O16C S3C 1_555 1_555
O18C S4C 1_555 1_555
O19C S4C 1_555 1_555
O21C Cu1 1_555 1_555
O21_2 Cu1C 1_555 1_555
O22C C17C 1_555 1_555
H61C O22C 1_555 1_555
O23C C28C 1_555 1_555
H62C O23C 1_555 1_555
O24C C3C 1_555 1_555
H63C O24C 1_555 1_555
O25C C14C 1_555 1_555
H64C O25C 1_555 1_555
N1C Cu1C 1_555 1_555
N2C C42C 1_555 1_555
N3C C44C 1_555 1_555
N4C C38C 1_555 1_555
N5C C37C 1_555 1_555
N6C Cu2C 1_555 1_555
N7C C29C 1_555 1_555
N7C_2 Cu2C 1_555 1_555
N8C C29C 1_555 1_555
N9C C30C 1_555 1_555
N10C C34C 1_555 1_555
N11C Cu2 1_555 1_555
N12C C36C 1_555 1_555
N13A C45A 1_555 1_555
N14A C46A 1_555 1_555
N15A C45A 1_555 1_555
N15C Cu1C 1_555 1_555
N16A C50A 1_555 1_555
N17A Cu1 1_555 1_555
N17B Cu1C 1_555 1_555
N18A C52A 1_555 1_555
N19B C53B 1_555 1_555
N20B C53B 1_555 1_555
N20C Cu1C 1_555 1_555
N21B C54B 1_555 1_555
S1C C25C 1_555 1_555
S2C C6C 1_555 1_555
S3C C20C 1_555 1_555
S4C C11C 1_555 1_555
C6 C7 1_555 1_555
C13 C14 1_555 1_555
C20 C21 1_555 1_555
C26 C27 1_555 1_555
C27 C28 1_555 1_555
C29 N7 1_555 1_555
C30 N7 1_555 1_555
C31 N8 1_555 1_555
C35 N10 1_555 1_555
C36 N11 1_555 1_555
C37 N6 1_555 1_555
C38 N6 1_555 1_555
C39 N4 1_555 1_555
C43 N1 1_555 1_555
C43 N2 1_555 1_555
C44 N1 1_555 1_555
C45 N15 1_555 1_555
C46 N15 1_555 1_555
C47 N14 1_555 1_555
C51 N16 1_555 1_555
C52 N17 1_555 1_555
C53 N20 1_555 1_555
C54 N20 1_555 1_555
C55 N21 1_555 1_555
N2 N3 1_555 1_555
N4 N5 1_555 1_555
N8 N9 1_555 1_555
N10 N12 1_555 1_555
N13 N14 1_555 1_555
N16 N18 1_555 1_555
N19 N21 1_555 1_555
C6C C7C 1_555 1_555
C13C C14C 1_555 1_555
C20C C21C 1_555 1_555
C26C C27C 1_555 1_555
C27C C28C 1_555 1_555
C30C N7C 1_555 1_555
C31C N8C 1_555 1_555
C35C N10C 1_555 1_555
C35C N11C 1_555 1_555
C36C N11C 1_555 1_555
C37C N6C 1_555 1_555
C38C N6C 1_555 1_555
C39C N4C 1_555 1_555
C43C N1C 1_555 1_555
C43C N2C 1_555 1_555
C44C N1C 1_555 1_555
C46A N15A 1_555 1_555
C47A N14A 1_555 1_555
C51A N16A 1_555 1_555
C51A N17A 1_555 1_555
C52A N17A 1_555 1_555
C54B N20B 1_555 1_555
C55B C56B 1_555 1_555
C55B N21B 1_555 1_555
O21C S4C 1_555 1_555
N2C N3C 1_555 1_555
N4C N5C 1_555 1_555
N8C N9C 1_555 1_555
N10C N12C 1_555 1_555
N13A N14A 1_555 1_555
N16A N18A 1_555 1_555
N19B N21B 1_555 1_555

#END
