
#######################################################################
#
#                 Cambridge Crystallographic Data Centre
#                                CCDC 
#
#######################################################################
#
# If this CIF has been generated from an entry in the Cambridge 
# Structural Database, then it will include bibliographic, chemical, 
# crystal, experimental, refinement or atomic coordinate data resulting 
# from the CCDC's data processing and validation procedures.
#
#######################################################################

data_ZERNOB
_chemical_formula_moiety         '(C39 H35 Ho2 N3 O19)n'
_symmetry_cell_setting           triclinic
_symmetry_space_group_name_H-M   'P -1'
_symmetry_Int_Tables_number      2
_space_group_name_Hall           '-P 1'
loop_
_symmetry_equiv_pos_site_id
_symmetry_equiv_pos_as_xyz
1 x,y,z
2 -x,-y,-z
_cell_length_a                   12.7551(18)
_cell_length_b                   13.617(2)
_cell_length_c                   14.137(2)
_cell_angle_alpha                66.2800(10)
_cell_angle_beta                 67.1400(10)
_cell_angle_gamma                77.1490(10)
_cell_volume                     2065.04
loop_
_atom_site_label
_atom_site_type_symbol
_atom_site_fract_x
_atom_site_fract_y
_atom_site_fract_z
Ho1 Ho 0.428883(14) 0.881796(14) 1.011262(15)
Ho2 Ho 0.431990(15) 0.820801(15) 0.665136(15)
O1 O 0.5257(3) 0.7872(2) 0.9032(3)
O2 O 0.5474(2) 0.7293(2) 0.7706(2)
O3 O 0.6209(3) 0.3612(3) 1.2347(3)
O4 O 0.7414(3) 0.2520(2) 1.3130(3)
O5 O 0.3923(2) 1.0453(2) 1.0617(3)
O6 O 0.2571(3) 0.9379(3) 1.1339(3)
O7 O -0.3007(2) 1.1400(3) 1.1910(3)
O8 O -0.2801(2) 1.1414(3) 1.0278(3)
O9 O 0.6115(2) 0.8595(2) 0.5241(2)
O10 O 0.6428(3) 1.0335(2) 0.4496(3)
O11 O 0.5702(3) 0.9686(2) 0.1464(3)
O12 O 0.5079(3) 0.8244(2) 0.1508(3)
O13 O 0.3698(3) 0.7095(2) 1.1335(3)
H1 H 0.3484 0.6760 1.1061
H2 H 0.4128 0.7450 1.1390
O14 O 0.4975(3) 0.9681(2) 0.6714(3)
H3 H 0.5299 1.0139 0.6107
H4 H 0.4738 0.9932 0.7233
O15 O 0.4773(4) 0.7398(4) 0.5293(3)
H5 H 0.4116 0.7419 0.5768
H6 H 0.5216 0.7793 0.5276
N1 N 0.6845(4) 0.4330(3) 0.9315(4)
N2 N 0.0707(3) 1.1298(3) 0.9280(3)
N3 N 0.6879(4) 0.6203(3) 0.3557(4)
C1 C 0.5610(3) 0.7187(3) 0.8568(3)
C2 C 0.6251(4) 0.6176(3) 0.9091(4)
C3 C 0.6300(4) 0.5262(4) 0.8880(4)
H7 H 0.5936 0.5294 0.8411
C4 C 0.7378(4) 0.4309(4) 0.9975(4)
H8 H 0.7779 0.3670 1.0265
C5 C 0.7368(4) 0.5177(3) 1.0255(4)
C6 C 0.6781(4) 0.6129(3) 0.9800(4)
H9 H 0.6744 0.6731 0.9970
C7 C 0.8019(4) 0.5116(4) 1.0956(4)
C8 C 0.8773(4) 0.5902(4) 1.0546(5)
H10 H 0.8826 0.6447 0.9873
C9 C 0.9441(4) 0.5890(4) 1.1115(5)
H11 H 0.9937 0.6427 1.0822
C10 C 0.9385(4) 0.5102(4) 1.2102(5)
H12 H 0.9835 0.5100 1.2486
C11 C 0.8641(4) 0.4297(4) 1.2529(4)
H13 H 0.8604 0.3753 1.3200
C12 C 0.7953(4) 0.4295(3) 1.1967(4)
C13 C 0.7155(4) 0.3437(4) 1.2503(4)
C14 C 0.2913(3) 1.0216(3) 1.1231(3)
C15 C 0.2160(3) 1.0948(3) 1.1821(3)
C16 C 0.2575(4) 1.1107(4) 1.2512(3)
H14 H 0.3285 1.0783 1.2562
C17 C 0.1946(4) 1.1746(4) 1.3135(4)
H15 H 0.2237 1.1855 1.3591
C18 C 0.0897(4) 1.2212(4) 1.3075(4)
H16 H 0.0472 1.2638 1.3492
C19 C 0.0469(4) 1.2049(4) 1.2392(4)
H17 H -0.0243 1.2374 1.2355
C20 C 0.1079(3) 1.1408(3) 1.1757(3)
C21 C 0.0541(3) 1.1308(3) 1.1041(3)
C22 C 0.1161(4) 1.1304(4) 0.9990(4)
H18 H 0.1950 1.1306 0.9760
C23 C -0.0434(4) 1.1305(4) 0.9630(4)
H19 H -0.0770 1.1295 0.9156
C24 C -0.1138(3) 1.1326(3) 1.0651(3)
C25 C -0.0629(3) 1.1306(3) 1.1369(4)
H20 H -0.1079 1.1292 1.2072
C26 C -0.2408(3) 1.1374(3) 1.0975(3)
C27 C 0.6743(4) 0.9351(4) 0.4642(3)
C28 C 0.7994(4) 0.9061(4) 0.4116(4)
C29 C 0.8778(4) 0.9568(4) 0.4181(4)
H21 H 0.8531 1.0132 0.4447
C30 C 0.9940(4) 0.9235(5) 0.3846(5)
H22 H 1.0463 0.9565 0.3908
C31 C 1.0307(4) 0.8424(5) 0.3430(5)
H23 H 1.1081 0.8206 0.3205
C32 C 0.9541(4) 0.7927(5) 0.3340(4)
H24 H 0.9804 0.7380 0.3049
C33 C 0.8380(4) 0.8228(4) 0.3678(4)
C34 C 0.7605(4) 0.7749(4) 0.3442(4)
C35 C 0.7531(4) 0.6649(4) 0.3800(4)
H25 H 0.7960 0.6194 0.4234
C36 C 0.6286(4) 0.6868(4) 0.2906(4)
H26 H 0.5840 0.6570 0.2718
C37 C 0.6307(4) 0.7972(3) 0.2502(3)
C38 C 0.6985(3) 0.8418(3) 0.2765(3)
H27 H 0.7026 0.9159 0.2491
C39 C 0.5645(4) 0.8679(4) 0.1767(3)
Ho1_2 Ho 0.428883(14) 0.881796(14) 0.011262(15)
Ho1A Ho -0.428883(14) 1.118204(14) 0.988738(15)
Ho1A_2 Ho 0.571117(14) 1.118204(14) -0.011262(15)
Ho1A_3 Ho 0.571117(14) 1.118204(14) 0.988738(15)
Ho2A Ho -0.431990(15) 1.179199(15) 1.334864(15)
Ho2A_2 Ho 0.568010(15) 0.179199(15) 1.334864(15)
Ho2A_3 Ho 0.568010(15) 1.179199(15) 0.334864(15)
O3A O 0.3791(3) 0.6388(3) 0.7653(3)
O4A O 0.2586(3) 0.7480(2) 0.6870(3)
O5A O 0.6077(2) 0.9547(2) 0.9383(3)
O7A O 0.3007(2) 0.8600(3) 0.8090(3)
O8A O 0.2801(2) 0.8586(3) 0.9722(3)
O10A O 0.3572(3) 0.9665(2) 0.5504(3)
O11A O 0.4298(3) 1.0314(2) 0.8536(3)
O12_2 O 0.5079(3) 0.8244(2) 1.1508(3)
O16 O 0.6100(4) 0.4171(4) 0.4872(4)
H28 H 0.6336 0.4792 0.4473
H29 H 0.5830 0.3686 0.5019
O17 O 0.4596(5) 0.5309(4) 0.2854(5)
H30 H 0.5075 0.4801 0.2710
H31 H 0.4330 0.5838 0.2409
O18 O 0.7301(12) 0.6165(9) 0.6249(7)
H32 H 0.6770 0.5752 0.6500
H33 H 0.6790 0.6480 0.6656
O19 O 0.7502(17) 0.1584(11) 0.5435(15)
H34 H 0.7492 0.1828 0.4781
H35 H 0.6913 0.1847 0.5247
loop_
_geom_bond_atom_site_label_1
_geom_bond_atom_site_label_2
_geom_bond_site_symmetry_1
_geom_bond_site_symmetry_2
Ho1 O1 1_555 1_555
Ho2 O2 1_555 1_555
O1 C1 1_555 1_555
O2 C1 1_555 1_555
O3 C13 1_555 1_555
O4 C13 1_555 1_555
O5 Ho1 1_555 1_555
O6 Ho1 1_555 1_555
O7 C26 1_555 1_555
O8 C26 1_555 1_555
O9 Ho2 1_555 1_555
O10 C27 1_555 1_555
O11 C39 1_555 1_555
O12 C39 1_555 1_555
O13 Ho1 1_555 1_555
H1 O13 1_555 1_555
H2 O13 1_555 1_555
O14 Ho2 1_555 1_555
H3 O14 1_555 1_555
H4 O14 1_555 1_555
O15 Ho2 1_555 1_555
H5 O15 1_555 1_555
H6 O15 1_555 1_555
N1 C3 1_555 1_555
N2 C22 1_555 1_555
N3 C35 1_555 1_555
C1 C2 1_555 1_555
C2 C3 1_555 1_555
C3 H7 1_555 1_555
C4 N1 1_555 1_555
H8 C4 1_555 1_555
C5 C4 1_555 1_555
C6 C2 1_555 1_555
H9 C6 1_555 1_555
C7 C5 1_555 1_555
C8 C7 1_555 1_555
H10 C8 1_555 1_555
C9 C8 1_555 1_555
H11 C9 1_555 1_555
C10 C9 1_555 1_555
H12 C10 1_555 1_555
C11 C10 1_555 1_555
H13 C11 1_555 1_555
C12 C7 1_555 1_555
C13 C12 1_555 1_555
C14 O5 1_555 1_555
C15 C14 1_555 1_555
C16 C15 1_555 1_555
H14 C16 1_555 1_555
C17 C16 1_555 1_555
H15 C17 1_555 1_555
C18 C17 1_555 1_555
H16 C18 1_555 1_555
C19 C18 1_555 1_555
H17 C19 1_555 1_555
C20 C15 1_555 1_555
C21 C20 1_555 1_555
C22 C21 1_555 1_555
H18 C22 1_555 1_555
C23 N2 1_555 1_555
H19 C23 1_555 1_555
C24 C23 1_555 1_555
C25 C21 1_555 1_555
H20 C25 1_555 1_555
C26 C24 1_555 1_555
C27 O9 1_555 1_555
C28 C27 1_555 1_555
C29 C28 1_555 1_555
H21 C29 1_555 1_555
C30 C29 1_555 1_555
H22 C30 1_555 1_555
C31 C30 1_555 1_555
H23 C31 1_555 1_555
C32 C31 1_555 1_555
H24 C32 1_555 1_555
C33 C28 1_555 1_555
C34 C33 1_555 1_555
C35 C34 1_555 1_555
H25 C35 1_555 1_555
C36 N3 1_555 1_555
H26 C36 1_555 1_555
C37 C36 1_555 1_555
C38 C34 1_555 1_555
H27 C38 1_555 1_555
C39 C37 1_555 1_555
O16 H28 1_555 1_555
H29 O16 1_555 1_555
O17 H30 1_555 1_555
H31 O17 1_555 1_555
O18 H32 1_555 1_555
H33 O18 1_555 1_555
O19 H34 1_555 1_555
H35 O19 1_555 1_555
Ho1_2 O12 1_555 1_555
Ho1A O8 1_555 1_555
Ho1A_2 O11 1_555 1_555
Ho1A_3 O5 1_555 1_555
Ho2A O7 1_555 1_555
Ho2A_2 O3 1_555 1_555
Ho2A_3 O10 1_555 1_555
O3A Ho2 1_555 1_555
O4A Ho2 1_555 1_555
O5A Ho1 1_555 1_555
O7A Ho2 1_555 1_555
O8A Ho1 1_555 1_555
O10A Ho2 1_555 1_555
O11A Ho1 1_555 1_555
O12_2 Ho1 1_555 1_555
O4 Ho2A_2 1_555 1_555
O6 C14 1_555 1_555
C5 C6 1_555 1_555
C11 C12 1_555 1_555
C19 C20 1_555 1_555
C24 C25 1_555 1_555
C32 C33 1_555 1_555
C37 C38 1_555 1_555
Ho1A_3 O5A 1_555 1_555

#END
