
#######################################################################
#
#                 Cambridge Crystallographic Data Centre
#                                CCDC 
#
#######################################################################
#
# If this CIF has been generated from an entry in the Cambridge 
# Structural Database, then it will include bibliographic, chemical, 
# crystal, experimental, refinement or atomic coordinate data resulting 
# from the CCDC's data processing and validation procedures.
#
#######################################################################

data_FAJYEX
_chemical_formula_moiety         '(C38 H28 Ag1 N4 1+)n'
_symmetry_cell_setting           hexagonal
_symmetry_space_group_name_H-M   'P 65'
_symmetry_Int_Tables_number      170
_space_group_name_Hall           'P 65'
loop_
_symmetry_equiv_pos_site_id
_symmetry_equiv_pos_as_xyz
1 x,y,z
2 -y,x-y,2/3+z
3 -x+y,-x,1/3+z
4 -x,-y,1/2+z
5 y,-x+y,1/6+z
6 x-y,x,5/6+z
_cell_length_a                   17.304(2)
_cell_length_b                   17.304(2)
_cell_length_c                   27.965(6)
_cell_angle_alpha                90
_cell_angle_beta                 90
_cell_angle_gamma                120
_cell_volume                     7251.68
loop_
_atom_site_label
_atom_site_type_symbol
_atom_site_fract_x
_atom_site_fract_y
_atom_site_fract_z
C1 C 0.0531(10) 0.6662(9) 0.0821(6)
C2 C 0.0134(9) 0.5767(7) 0.0962(5)
C3 C 0.0475(10) 0.5276(9) 0.0840(6)
H1 H 0.0997 0.5532 0.0660
C4 C 0.0063(8) 0.4323(7) 0.0975(5)
H2 H 0.0310 0.3976 0.0884
C5 C -0.0725(5) 0.3970(5) 0.1250(3)
C6 C -0.1061(7) 0.4504(6) 0.1351(4)
H3 H -0.1580 0.4275 0.1533
C7 C -0.0655(10) 0.5406(7) 0.1194(5)
H4 H -0.0930 0.5742 0.1250
C8 C -0.1203(5) 0.3005(5) 0.1410(3)
C9 C -0.0726(5) 0.2504(5) 0.1199(3)
H5 H -0.0732 0.2522 0.0852
H6 H -0.0110 0.2796 0.1304
C10 C -0.1224(5) 0.1526(5) 0.1373(3)
C11 C 0.0454(8) -0.0373(10) 0.0666(7)
C12 C -0.1193(5) 0.1521(5) 0.1906(4)
H7 H -0.0575 0.1815 0.2009
H8 H -0.1482 0.0909 0.2018
C13 C -0.1662(5) 0.2003(5) 0.2135(3)
C14 C -0.1688(4) 0.1930(4) 0.26711(19)
C15 C -0.2040(5) 0.1087(3) 0.2874(3)
H9 H -0.2301 0.0583 0.2680
C16 C -0.2002(5) 0.0998(4) 0.3366(3)
H10 H -0.2238 0.0433 0.3501
C17 C -0.1613(5) 0.1751(5) 0.3655(2)
C18 C -0.1261(4) 0.2595(4) 0.3453(2)
H11 H -0.1000 0.3099 0.3646
C19 C -0.1298(4) 0.2684(3) 0.2961(2)
H12 H -0.1063 0.3248 0.2825
C20 C -0.1510(5) 0.1685(9) 0.4146(5)
C21 C -0.1176(5) 0.2957(5) 0.1947(3)
H13 H -0.1444 0.3282 0.2085
H14 H -0.0558 0.3247 0.2051
C22 C -0.2637(4) 0.1532(5) 0.1934(3)
H15 H -0.2945 0.0913 0.2036
H16 H -0.2950 0.1815 0.2069
C23 C -0.2195(5) 0.1081(5) 0.1202(4)
H17 H -0.2509 0.0462 0.1304
H18 H -0.2207 0.1091 0.0855
C24 C -0.2167(5) 0.2531(5) 0.1249(3)
H19 H -0.2185 0.2560 0.0903
H20 H -0.2458 0.2839 0.1379
C25 C -0.2677(4) 0.1563(5) 0.1403(3)
C26 C -0.3641(5) 0.1092(5) 0.1227(3)
C27 C -0.3826(6) 0.1157(7) 0.0759(5)
H21 H -0.3359 0.1492 0.0550
C28 C -0.4661(8) 0.0750(8) 0.0596(5)
H22 H -0.4762 0.0791 0.0273
C29 C -0.5377(6) 0.0273(7) 0.0894(4)
C30 C -0.6279(7) -0.0187(9) 0.0733(4)
C31 C -0.5244(7) 0.0230(9) 0.1349(5)
H23 H -0.5733 -0.0051 0.1552
C32 C -0.4384(7) 0.0595(9) 0.1539(5)
H24 H -0.4297 0.0518 0.1860
N1 N 0.0828(9) 0.7339(7) 0.0674(6)
N2 N 0.0790(7) -0.0739(9) 0.0504(6)
N3 N -0.1461(6) 0.1554(9) 0.4525(3)
N4 N -0.6989(6) -0.0513(9) 0.0597(4)
Ag1 Ag 0.16390(4) 0.86958(4) 0.03174(4)
C33 C -0.0790(6) 0.1016(5) 0.1166(4)
C34 C -0.0012(6) 0.1444(5) 0.0897(5)
H25 H 0.0236 0.2046 0.0822
C35 C 0.0394(6) 0.0972(6) 0.0738(5)
H26 H 0.0915 0.1259 0.0558
C36 C 0.0023(7) 0.0073(6) 0.0849(5)
C37 C -0.0755(7) -0.0355(5) 0.1119(5)
H27 H -0.1004 -0.0957 0.1193
C38 C -0.1162(6) 0.0117(6) 0.1277(4)
H28 H -0.1682 -0.0169 0.1458
N2_2 N 0.0790(7) 0.9261(9) 0.0504(6)
N3C N 0.1461(6) 0.8446(9) -0.0475(3)
N4_2 N 0.3011(6) 0.9487(9) 0.0597(4)
Ag1_2 Ag -0.83610(4) -0.13042(4) 0.03174(4)
Ag1_3 Ag 0.16390(4) -0.13042(4) 0.03174(4)
Ag1C Ag -0.16390(4) 0.13042(4) 0.53174(4)
loop_
_geom_bond_atom_site_label_1
_geom_bond_atom_site_label_2
_geom_bond_site_symmetry_1
_geom_bond_site_symmetry_2
C1 C2 1_555 1_555
C2 C3 1_555 1_555
C3 H1 1_555 1_555
C4 C3 1_555 1_555
H2 C4 1_555 1_555
C5 C4 1_555 1_555
C6 C5 1_555 1_555
H3 C6 1_555 1_555
C7 C2 1_555 1_555
H4 C7 1_555 1_555
C8 C5 1_555 1_555
C9 C8 1_555 1_555
H5 C9 1_555 1_555
H6 C9 1_555 1_555
C10 C9 1_555 1_555
C11 N2 1_555 1_555
C12 C10 1_555 1_555
H7 C12 1_555 1_555
H8 C12 1_555 1_555
C13 C12 1_555 1_555
C14 C13 1_555 1_555
C15 C14 1_555 1_555
H9 C15 1_555 1_555
C16 C15 1_555 1_555
H10 C16 1_555 1_555
C17 C16 1_555 1_555
C18 C17 1_555 1_555
H11 C18 1_555 1_555
C19 C14 1_555 1_555
H12 C19 1_555 1_555
C20 C17 1_555 1_555
C21 C8 1_555 1_555
H13 C21 1_555 1_555
H14 C21 1_555 1_555
C22 C13 1_555 1_555
H15 C22 1_555 1_555
H16 C22 1_555 1_555
C23 C10 1_555 1_555
H17 C23 1_555 1_555
H18 C23 1_555 1_555
C24 C8 1_555 1_555
H19 C24 1_555 1_555
H20 C24 1_555 1_555
C25 C22 1_555 1_555
C26 C25 1_555 1_555
C27 C26 1_555 1_555
H21 C27 1_555 1_555
C28 C27 1_555 1_555
H22 C28 1_555 1_555
C29 C28 1_555 1_555
C30 C29 1_555 1_555
C31 C29 1_555 1_555
H23 C31 1_555 1_555
C32 C26 1_555 1_555
H24 C32 1_555 1_555
N1 C1 1_555 1_555
N2 Ag1_3 1_555 1_555
N3 C20 1_555 1_555
N4 C30 1_555 1_555
Ag1 N1 1_555 1_555
C33 C10 1_555 1_555
C34 C33 1_555 1_555
H25 C34 1_555 1_555
C35 C34 1_555 1_555
H26 C35 1_555 1_555
C36 C11 1_555 1_555
C37 C36 1_555 1_555
H27 C37 1_555 1_555
C38 C33 1_555 1_555
H28 C38 1_555 1_555
N2_2 Ag1 1_555 1_555
N3C Ag1 1_555 1_555
N4_2 Ag1 1_555 1_555
Ag1_2 N4 1_555 1_555
Ag1C N3 1_555 1_555
C6 C7 1_555 1_555
C13 C21 1_555 1_555
C18 C19 1_555 1_555
C23 C25 1_555 1_555
C24 C25 1_555 1_555
C31 C32 1_555 1_555
C35 C36 1_555 1_555
C37 C38 1_555 1_555

#END
