
#######################################################################
#
#                 Cambridge Crystallographic Data Centre
#                                CCDC 
#
#######################################################################
#
# If this CIF has been generated from an entry in the Cambridge 
# Structural Database, then it will include bibliographic, chemical, 
# crystal, experimental, refinement or atomic coordinate data resulting 
# from the CCDC's data processing and validation procedures.
#
#######################################################################

data_FAJYAT
_chemical_formula_moiety         '(C38 H28 Ag1 N4 1+)n'
_symmetry_cell_setting           hexagonal
_symmetry_space_group_name_H-M   'P 65'
_symmetry_Int_Tables_number      170
_space_group_name_Hall           'P 65'
loop_
_symmetry_equiv_pos_site_id
_symmetry_equiv_pos_as_xyz
1 x,y,z
2 -y,x-y,2/3+z
3 -x+y,-x,1/3+z
4 -x,-y,1/2+z
5 y,-x+y,1/6+z
6 x-y,x,5/6+z
_cell_length_a                   17.311(2)
_cell_length_b                   17.311(2)
_cell_length_c                   27.636(6)
_cell_angle_alpha                90
_cell_angle_beta                 90
_cell_angle_gamma                120
_cell_volume                     7172.16
loop_
_atom_site_label
_atom_site_type_symbol
_atom_site_fract_x
_atom_site_fract_y
_atom_site_fract_z
C1 C 0.8409(15) 0.6788(17) 0.0044(8)
C2 C 0.8370(10) 0.6509(10) 0.0538(3)
C3 C 0.8752(9) 0.6067(9) 0.0769(4)
H1 H 0.9024 0.5817 0.0587
C4 C 0.8726(8) 0.5999(8) 0.1270(4)
H2 H 0.8982 0.5703 0.1424
C5 C 0.8320(7) 0.6373(8) 0.1542(3)
C6 C 0.7938(9) 0.6814(9) 0.1311(5)
H3 H 0.7665 0.7064 0.1493
C7 C 0.7963(11) 0.6882(11) 0.0810(5)
H4 H 0.7707 0.7178 0.0655
C8 C 0.8384(8) 0.6367(8) 0.2070(4)
C9 C 0.7357(6) 0.5851(6) 0.2265(3)
H5 H 0.7063 0.6179 0.2169
H6 H 0.7036 0.5261 0.2121
C10 C 0.7342(7) 0.5773(7) 0.2795(3)
C11 C 0.6316(9) 0.5335(14) 0.2976(7)
C12 C 0.5571(11) 0.4971(12) 0.2677(5)
H7 H 0.5640 0.5062 0.2344
C13 C 0.4723(10) 0.4471(12) 0.2874(6)
H8 H 0.4224 0.4228 0.2674
C14 C 0.4620(11) 0.4336(15) 0.3371(6)
C15 C 0.375(3) 0.394(2) 0.3495(12)
C16 C 0.5320(13) 0.4574(16) 0.3698(9)
H9 H 0.5178 0.4469 0.4025
C17 C 0.6213(14) 0.4956(18) 0.3569(8)
H10 H 0.6672 0.5001 0.3764
C18 C 0.7813(11) 0.6764(10) 0.2920(5)
H11 H 0.7541 0.7040 0.2734
H12 H 0.7711 0.6825 0.3259
C19 C 0.7848(9) 0.5343(9) 0.2949(4)
H13 H 0.7545 0.4734 0.2830
H14 H 0.7841 0.5317 0.3300
C20 C 0.8824(7) 0.7277(7) 0.2366(3)
H15 H 0.9446 0.7615 0.2271
H16 H 0.8544 0.7611 0.2256
C21 C 0.8801(15) 0.7269(14) 0.2828(7)
C22 C 0.9215(12) 0.8166(8) 0.3023(6)
C23 C 0.8870(8) 0.8713(9) 0.2901(5)
H17 H 0.8369 0.8497 0.2704
C24 C 0.9274(9) 0.9583(9) 0.3074(5)
H18 H 0.9043 0.9949 0.2992
C25 C 1.0023(10) 0.9906(9) 0.3369(6)
C26 C 1.0454(17) 1.0781(17) 0.3547(8)
C27 C 1.0250(13) 0.9301(11) 0.3594(6)
H19 H 1.0667 0.9461 0.3841
C28 C 0.9777(13) 0.8447(11) 0.3400(7)
H20 H 0.9861 0.8014 0.3552
C29 C 0.9241(8) 0.6714(8) 0.2966(4)
H21 H 0.9859 0.7039 0.2861
H22 H 0.9244 0.6676 0.3316
C30 C 0.8837(9) 0.5892(9) 0.2254(4)
H23 H 0.8547 0.5298 0.2115
H24 H 0.9449 0.6202 0.2140
C31 C 0.8844(6) 0.5814(6) 0.2774(3)
C32 C 0.9332(11) 0.5371(13) 0.3020(7)
C33 C 1.0190(11) 0.5829(9) 0.3211(5)
H25 H 1.0473 0.6444 0.3251
C34 C 1.0624(9) 0.5368(11) 0.3342(6)
H26 H 1.1197 0.5675 0.3470
C35 C 1.0201(13) 0.4449(11) 0.3282(7)
C36 C 1.0538(15) 0.3918(15) 0.3443(7)
C37 C 0.9371(15) 0.4045(16) 0.3122(7)
H27 H 0.9137 0.3438 0.3068
C38 C 0.8773(15) 0.4337(15) 0.3017(8)
H28 H 0.8165 0.3985 0.2958
N1 N 0.8476(7) 0.6971(8) -0.0333(4)
N2 N 0.2987(8) 0.3529(8) 0.3614(4)
N3 N 1.0809(10) 1.1532(11) 0.3638(4)
N4 N 1.0891(18) 0.3485(17) 0.3557(8)
Ag1 Ag 0.83725(6) 0.70644(6) -0.11359(11)
N2C N 0.7013(8) 0.6471(8) -0.1386(4)
N3C N 0.9191(10) 0.8468(11) -0.1362(4)
N4C N 0.9109(18) 0.6515(17) -0.1443(8)
Ag1C Ag 0.16275(6) 0.29356(6) 0.38641(11)
Ag1C_2 Ag 1.16275(6) 0.29356(6) 0.38641(11)
Ag1C_3 Ag 1.16275(6) 1.29356(6) 0.38641(11)
loop_
_geom_bond_atom_site_label_1
_geom_bond_atom_site_label_2
_geom_bond_site_symmetry_1
_geom_bond_site_symmetry_2
C1 C2 1_555 1_555
C2 C3 1_555 1_555
C3 H1 1_555 1_555
C4 C3 1_555 1_555
H2 C4 1_555 1_555
C5 C4 1_555 1_555
C6 C5 1_555 1_555
H3 C6 1_555 1_555
C7 C2 1_555 1_555
H4 C7 1_555 1_555
C8 C5 1_555 1_555
C9 C8 1_555 1_555
H5 C9 1_555 1_555
H6 C9 1_555 1_555
C10 C9 1_555 1_555
C11 C10 1_555 1_555
C12 C11 1_555 1_555
H7 C12 1_555 1_555
C13 C12 1_555 1_555
H8 C13 1_555 1_555
C14 C13 1_555 1_555
C15 C14 1_555 1_555
C16 C14 1_555 1_555
H9 C16 1_555 1_555
C17 C11 1_555 1_555
H10 C17 1_555 1_555
C18 C10 1_555 1_555
H11 C18 1_555 1_555
H12 C18 1_555 1_555
C19 C10 1_555 1_555
H13 C19 1_555 1_555
H14 C19 1_555 1_555
C20 C8 1_555 1_555
H15 C20 1_555 1_555
H16 C20 1_555 1_555
C21 C18 1_555 1_555
C22 C21 1_555 1_555
C23 C22 1_555 1_555
H17 C23 1_555 1_555
C24 C23 1_555 1_555
H18 C24 1_555 1_555
C25 C24 1_555 1_555
C26 C25 1_555 1_555
C27 C25 1_555 1_555
H19 C27 1_555 1_555
C28 C22 1_555 1_555
H20 C28 1_555 1_555
C29 C21 1_555 1_555
H21 C29 1_555 1_555
H22 C29 1_555 1_555
C30 C8 1_555 1_555
H23 C30 1_555 1_555
H24 C30 1_555 1_555
C31 C19 1_555 1_555
C32 C31 1_555 1_555
C33 C32 1_555 1_555
H25 C33 1_555 1_555
C34 C33 1_555 1_555
H26 C34 1_555 1_555
C35 C34 1_555 1_555
C36 C35 1_555 1_555
C37 C35 1_555 1_555
H27 C37 1_555 1_555
C38 C32 1_555 1_555
H28 C38 1_555 1_555
N1 C1 1_555 1_555
N2 C15 1_555 1_555
N3 C26 1_555 1_555
N4 C36 1_555 1_555
Ag1 N1 1_555 1_555
N2C Ag1 1_555 1_555
N3C Ag1 1_555 1_555
N4C Ag1 1_555 1_555
Ag1C N2 1_555 1_555
Ag1C_2 N4 1_555 1_555
Ag1C_3 N3 1_555 1_555
C6 C7 1_555 1_555
C16 C17 1_555 1_555
C20 C21 1_555 1_555
C27 C28 1_555 1_555
C29 C31 1_555 1_555
C30 C31 1_555 1_555
C37 C38 1_555 1_555

#END
