
#######################################################################
#
#                 Cambridge Crystallographic Data Centre
#                                CCDC 
#
#######################################################################
#
# If this CIF has been generated from an entry in the Cambridge 
# Structural Database, then it will include bibliographic, chemical, 
# crystal, experimental, refinement or atomic coordinate data resulting 
# from the CCDC's data processing and validation procedures.
#
#######################################################################

data_FAJYIB
_chemical_formula_moiety         '(C38 H28 Ag1 N4 1+)n'
_symmetry_cell_setting           hexagonal
_symmetry_space_group_name_H-M   'P 61'
_symmetry_Int_Tables_number      169
_space_group_name_Hall           'P 61'
loop_
_symmetry_equiv_pos_site_id
_symmetry_equiv_pos_as_xyz
1 x,y,z
2 -x,-y,1/2+z
3 -y,x-y,1/3+z
4 -x+y,-x,2/3+z
5 x-y,x,1/6+z
6 y,-x+y,5/6+z
_cell_length_a                   17.4299(5)
_cell_length_b                   17.4299(5)
_cell_length_c                   28.4893(12)
_cell_angle_alpha                90
_cell_angle_beta                 90
_cell_angle_gamma                120
_cell_volume                     7495.53
loop_
_atom_site_label
_atom_site_type_symbol
_atom_site_fract_x
_atom_site_fract_y
_atom_site_fract_z
C1 C 0.0931(8) 0.0494(10) 0.6173(6)
C2 C 0.0046(5) 0.0051(6) 0.5976(4)
C3 C -0.0482(6) 0.0415(6) 0.6085(5)
H1 H -0.0250 0.0936 0.6258
C4 C -0.1358(6) 0.0000(7) 0.5936(5)
H2 H -0.1712 0.0244 0.6009
C5 C -0.1706(5) -0.0779(6) 0.5677(4)
C6 C -0.1178(6) -0.1143(6) 0.5568(4)
H3 H -0.1410 -0.1665 0.5395
C7 C -0.0302(6) -0.0728(7) 0.5718(5)
H4 H 0.0052 -0.0972 0.5645
C8 C -0.2683(7) -0.1281(8) 0.5484(4)
C9 C -0.2661(8) -0.1271(7) 0.4947(4)
H5 H -0.2358 -0.0665 0.4834
H6 H -0.2341 -0.1558 0.4835
C10 C -0.3564(8) -0.1736(8) 0.4770(4)
C11 C -0.3550(6) -0.1753(6) 0.4211(2)
C12 C -0.3028(8) -0.2053(8) 0.4002(3)
H7 H -0.2745 -0.2277 0.4186
C13 C -0.2929(8) -0.2019(8) 0.3517(3)
H8 H -0.2580 -0.2219 0.3377
C14 C -0.3353(7) -0.1684(6) 0.3241(2)
C15 C -0.3875(6) -0.1384(7) 0.3450(3)
H9 H -0.4158 -0.1160 0.3266
C16 C -0.3973(6) -0.1418(6) 0.3935(3)
H10 H -0.4322 -0.1218 0.4075
C17 C -0.3134(8) -0.1494(8) 0.2734(5)
C18 C -0.4030(7) -0.1255(6) 0.4928(4)
H11 H -0.4613 -0.1530 0.4786
H12 H -0.3702 -0.0647 0.4819
C19 C -0.4051(8) -0.2692(7) 0.4930(5)
H13 H -0.3737 -0.2988 0.4824
H14 H -0.4641 -0.2994 0.4795
C20 C -0.3186(9) -0.0781(8) 0.5635(5)
H15 H -0.3158 -0.0716 0.5974
H16 H -0.2890 -0.0192 0.5499
C21 C -0.4134(8) -0.1257(8) 0.5484(4)
C22 C -0.4610(5) -0.0816(6) 0.5637(4)
C23 C -0.5514(5) -0.1212(5) 0.5551(3)
H17 H -0.5806 -0.1750 0.5392
C24 C -0.5982(5) -0.0804(7) 0.5701(4)
H18 H -0.6586 -0.1069 0.5644
C25 C -0.5545(7) 0.0000(7) 0.5938(4)
C26 C -0.4641(7) 0.0396(6) 0.6025(4)
H19 H -0.4349 0.0934 0.6183
C27 C -0.4174(5) -0.0012(6) 0.5874(4)
H20 H -0.3569 0.0253 0.5932
C28 C -0.5992(12) 0.0417(13) 0.6100(6)
C29 C -0.4567(7) -0.2221(7) 0.5629(4)
H21 H -0.4613 -0.2248 0.5968
H22 H -0.5166 -0.2524 0.5505
C30 C -0.3186(8) -0.2249(8) 0.5662(4)
H23 H -0.2876 -0.2553 0.5561
H24 H -0.3198 -0.2252 0.6002
C31 C -0.4115(7) -0.2728(7) 0.5477(4)
C32 C -0.4603(5) -0.3698(4) 0.5663(3)
C33 C -0.4811(7) -0.4398(5) 0.5358(2)
H25 H -0.4679 -0.4288 0.5040
C34 C -0.5216(7) -0.5260(5) 0.5527(3)
H26 H -0.5355 -0.5729 0.5323
C35 C -0.5413(6) -0.5424(4) 0.6002(3)
C36 C -0.5206(6) -0.4724(5) 0.6307(2)
H27 H -0.5338 -0.4833 0.6625
C37 C -0.4801(6) -0.3861(4) 0.6138(3)
H28 H -0.4662 -0.3393 0.6342
C38 C -0.5814(9) -0.6343(10) 0.6177(5)
N1 N 0.1619(10) 0.0782(11) 0.6310(6)
N2 N -0.3001(9) -0.1483(9) 0.2364(5)
N3 N -0.6390(9) 0.0735(9) 0.6265(5)
N4 N -0.6145(9) -0.7025(8) 0.6333(5)
Ag1 Ag 0.30522(5) 0.15893(5) 0.65459(3)
N2A N 0.3001(9) 0.1483(9) 0.7364(5)
N3_2 N 0.3610(9) 0.0735(9) 0.6265(5)
N4_2 N 0.3855(9) 0.2975(8) 0.6333(5)
Ag1_2 Ag -0.69478(5) -0.84107(5) 0.65459(3)
Ag1_3 Ag -0.69478(5) 0.15893(5) 0.65459(3)
Ag1A Ag -0.30522(5) -0.15893(5) 0.15459(3)
loop_
_geom_bond_atom_site_label_1
_geom_bond_atom_site_label_2
_geom_bond_site_symmetry_1
_geom_bond_site_symmetry_2
C1 C2 1_555 1_555
C2 C3 1_555 1_555
C3 H1 1_555 1_555
C4 C3 1_555 1_555
H2 C4 1_555 1_555
C5 C4 1_555 1_555
C6 C5 1_555 1_555
H3 C6 1_555 1_555
C7 C2 1_555 1_555
H4 C7 1_555 1_555
C8 C5 1_555 1_555
C9 C8 1_555 1_555
H5 C9 1_555 1_555
H6 C9 1_555 1_555
C10 C9 1_555 1_555
C11 C10 1_555 1_555
C12 C11 1_555 1_555
H7 C12 1_555 1_555
C13 C12 1_555 1_555
H8 C13 1_555 1_555
C14 C13 1_555 1_555
C15 C14 1_555 1_555
H9 C15 1_555 1_555
C16 C11 1_555 1_555
H10 C16 1_555 1_555
C17 C14 1_555 1_555
C18 C10 1_555 1_555
H11 C18 1_555 1_555
H12 C18 1_555 1_555
C19 C10 1_555 1_555
H13 C19 1_555 1_555
H14 C19 1_555 1_555
C20 C8 1_555 1_555
H15 C20 1_555 1_555
H16 C20 1_555 1_555
C21 C18 1_555 1_555
C22 C21 1_555 1_555
C23 C22 1_555 1_555
H17 C23 1_555 1_555
C24 C23 1_555 1_555
H18 C24 1_555 1_555
C25 C24 1_555 1_555
C26 C25 1_555 1_555
H19 C26 1_555 1_555
C27 C22 1_555 1_555
H20 C27 1_555 1_555
C28 C25 1_555 1_555
C29 C21 1_555 1_555
H21 C29 1_555 1_555
H22 C29 1_555 1_555
C30 C8 1_555 1_555
H23 C30 1_555 1_555
H24 C30 1_555 1_555
C31 C19 1_555 1_555
C32 C31 1_555 1_555
C33 C32 1_555 1_555
H25 C33 1_555 1_555
C34 C33 1_555 1_555
H26 C34 1_555 1_555
C35 C34 1_555 1_555
C36 C35 1_555 1_555
H27 C36 1_555 1_555
C37 C32 1_555 1_555
H28 C37 1_555 1_555
C38 C35 1_555 1_555
N1 C1 1_555 1_555
N2 C17 1_555 1_555
N3 C28 1_555 1_555
N4 C38 1_555 1_555
Ag1 N1 1_555 1_555
N2A Ag1 1_555 1_555
N3_2 Ag1 1_555 1_555
N4_2 Ag1 1_555 1_555
Ag1_2 N4 1_555 1_555
Ag1_3 N3 1_555 1_555
Ag1A N2 1_555 1_555
C6 C7 1_555 1_555
C15 C16 1_555 1_555
C20 C21 1_555 1_555
C26 C27 1_555 1_555
C29 C31 1_555 1_555
C30 C31 1_555 1_555
C36 C37 1_555 1_555

#END
