
#######################################################################
#
#                 Cambridge Crystallographic Data Centre
#                                CCDC 
#
#######################################################################
#
# If this CIF has been generated from an entry in the Cambridge 
# Structural Database, then it will include bibliographic, chemical, 
# crystal, experimental, refinement or atomic coordinate data resulting 
# from the CCDC's data processing and validation procedures.
#
#######################################################################

data_FAJZOI
_chemical_formula_moiety         '(C38 H30 Ag1 F6 N4 O1 P1)n'
_symmetry_cell_setting           tetragonal
_symmetry_space_group_name_H-M   'I -4 2 d'
_symmetry_Int_Tables_number      122
_space_group_name_Hall           'I -4 2bw'
loop_
_symmetry_equiv_pos_site_id
_symmetry_equiv_pos_as_xyz
1 x,y,z
2 -x,-y,z
3 x,1/2-y,1/4-z
4 -x,1/2+y,1/4-z
5 y,1/2+x,1/4+z
6 -y,1/2-x,1/4+z
7 -y,x,-z
8 y,-x,-z
9 1/2+x,1/2+y,1/2+z
10 1/2-x,1/2-y,1/2+z
11 1/2+x,-y,3/4-z
12 1/2-x,y,3/4-z
13 1/2+y,x,3/4+z
14 1/2-y,-x,3/4+z
15 1/2-y,1/2+x,1/2-z
16 1/2+y,1/2-x,1/2-z
_cell_length_a                   16.69948(19)
_cell_length_b                   16.69948(19)
_cell_length_c                   26.7579(4)
_cell_angle_alpha                90
_cell_angle_beta                 90
_cell_angle_gamma                90
_cell_volume                     7462.05
loop_
_atom_site_label
_atom_site_type_symbol
_atom_site_fract_x
_atom_site_fract_y
_atom_site_fract_z
C1 C 0.5014(7) 0.3367(3) 0.7957(2)
C2 C 0.5028(6) 0.2737(3) 0.75932(19)
C3 C 0.4375(4) 0.2643(4) 0.7272(2)
H1 H 0.3940 0.2989 0.7294
C4 C 0.4378(4) 0.2030(4) 0.6921(2)
H2 H 0.3948 0.1983 0.6701
C5 C 0.5003(6) 0.1489(3) 0.68877(17)
C6 C 0.5676(4) 0.1612(4) 0.7209(2)
H3 H 0.6116 0.1273 0.7184
C7 C 0.5687(4) 0.2218(4) 0.7554(3)
H4 H 0.6129 0.2286 0.7761
C8 C 0.4997(5) 0.0765(3) 0.65353(17)
C9 C 0.5748(4) 0.0761(4) 0.6200(5)
H5 H 0.5751 0.1236 0.5992
H6 H 0.6224 0.0770 0.6407
C10 C 0.5000 -0.0000 0.6862(2)
H7 H 0.5470 0.0002 0.7075
C11 C 0.4242(4) 0.0750(4) 0.6208(5)
H8 H 0.4226 0.1225 0.6000
H9 H 0.3770 0.0749 0.6419
C12 C 0.5759(3) 0.0014(5) 0.58692(17)
C13 C 0.5000 0.0000 0.5552(2)
H10 H 0.5009 -0.0469 0.5339
C14 C 0.8538(5) -0.0073(8) 0.4606(3)
C15 C 0.7851(4) -0.0055(6) 0.4932(3)
C16 C 0.7120(5) 0.0059(7) 0.4716(3)
H11 H 0.7075 0.0123 0.4372
C17 C 0.6443(4) 0.0079(6) 0.5018(3)
H12 H 0.5943 0.0155 0.4874
C18 C 0.6504(3) -0.0014(6) 0.5538(2)
C19 C 0.7245(4) -0.0100(7) 0.5737(3)
H13 H 0.7296 -0.0138 0.6083
C20 C 0.7931(5) -0.0134(7) 0.5445(3)
H14 H 0.8432 -0.0208 0.5590
N1 N 0.5024(6) 0.3881(3) 0.82376(18)
N2 N 0.9056(5) -0.0105(6) 0.4323(3)
Ag1 Ag 0.5000 0.5000 0.87186(2)
H7A H 0.4530 -0.0002 0.7075
H10A H 0.4991 0.0469 0.5339
C1A C 0.4986(7) -0.3367(3) 0.7957(2)
C2A C 0.4972(6) -0.2737(3) 0.75932(19)
C3A C 0.5625(4) -0.2643(4) 0.7272(2)
H1A H 0.6060 -0.2989 0.7294
C4A C 0.5622(4) -0.2030(4) 0.6921(2)
H2A H 0.6052 -0.1983 0.6701
C5A C 0.4997(6) -0.1489(3) 0.68877(17)
C6A C 0.4324(4) -0.1612(4) 0.7209(2)
H3A H 0.3884 -0.1273 0.7184
C7A C 0.4313(4) -0.2218(4) 0.7554(3)
H4A H 0.3871 -0.2286 0.7761
C8A C 0.5003(5) -0.0765(3) 0.65353(17)
C9A C 0.4252(4) -0.0761(4) 0.6200(5)
H5A H 0.4249 -0.1236 0.5992
H6A H 0.3776 -0.0770 0.6407
C11A C 0.5758(4) -0.0750(4) 0.6208(5)
H8A H 0.5774 -0.1225 0.6000
H9A H 0.6230 -0.0749 0.6419
C12A C 0.4241(3) -0.0014(5) 0.58692(17)
C14A C 0.1462(5) 0.0073(8) 0.4606(3)
C15A C 0.2149(4) 0.0055(6) 0.4932(3)
C16A C 0.2880(5) -0.0059(7) 0.4716(3)
H11A H 0.2925 -0.0123 0.4372
C17A C 0.3557(4) -0.0079(6) 0.5018(3)
H12A H 0.4057 -0.0155 0.4874
C18A C 0.3496(3) 0.0014(6) 0.5538(2)
C19A C 0.2755(4) 0.0100(7) 0.5737(3)
H13A H 0.2704 0.0138 0.6083
C20A C 0.2069(5) 0.0134(7) 0.5445(3)
H14A H 0.1568 0.0208 0.5590
N1A N 0.4976(6) -0.3881(3) 0.82376(18)
N2A N 0.0944(5) 0.0105(6) 0.4323(3)
N1A_2 N 0.4976(6) 0.6119(3) 0.82376(18)
N2H N 0.4056(5) 0.4895(6) 0.9323(3)
N2I N 0.5944(5) 0.5105(6) 0.9323(3)
Ag1_2 Ag 0.5000 -0.5000 0.87186(2)
Ag1H Ag -0.0000 -0.0000 0.37186(2)
Ag1H_2 Ag 1.0000 -0.0000 0.37186(2)
P1 P 0.7500 0.29365(18) 0.8750
F1 F 0.7975(9) 0.3632(7) 0.8516(8)
F2 F 0.6791(10) 0.2798(15) 0.8430(8)
F3 F 0.7950(9) 0.2194(7) 0.8521(9)
F1K F 0.7025(9) 0.3632(7) 0.8984(8)
F2K F 0.8209(10) 0.2798(15) 0.9070(8)
F3K F 0.7050(9) 0.2194(7) 0.8979(9)
O2 O 0.2034(12) 0.2739(12) 0.7945(9)
loop_
_geom_bond_atom_site_label_1
_geom_bond_atom_site_label_2
_geom_bond_site_symmetry_1
_geom_bond_site_symmetry_2
C1 C2 1_555 1_555
C2 C3 1_555 1_555
C3 H1 1_555 1_555
C4 C3 1_555 1_555
H2 C4 1_555 1_555
C5 C4 1_555 1_555
C6 C5 1_555 1_555
H3 C6 1_555 1_555
C7 C2 1_555 1_555
H4 C7 1_555 1_555
C8 C5 1_555 1_555
C9 C8 1_555 1_555
H5 C9 1_555 1_555
H6 C9 1_555 1_555
C10 C8 1_555 1_555
H7 C10 1_555 1_555
C11 C8 1_555 1_555
H8 C11 1_555 1_555
H9 C11 1_555 1_555
C12 C9 1_555 1_555
C13 C12 1_555 1_555
H10 C13 1_555 1_555
C14 C15 1_555 1_555
C15 C16 1_555 1_555
C16 H11 1_555 1_555
C17 C16 1_555 1_555
H12 C17 1_555 1_555
C18 C12 1_555 1_555
C19 C18 1_555 1_555
H13 C19 1_555 1_555
C20 C15 1_555 1_555
H14 C20 1_555 1_555
N1 C1 1_555 1_555
N2 C14 1_555 1_555
Ag1 N1 1_555 1_555
P1 F1 1_555 1_555
F2 P1 1_555 1_555
F3 P1 1_555 1_555
H7A C10 1_555 1_555
H10A C13 1_555 1_555
C1A C2A 1_555 1_555
C2A C3A 1_555 1_555
C3A H1A 1_555 1_555
C4A C3A 1_555 1_555
H2A C4A 1_555 1_555
C5A C4A 1_555 1_555
C6A C5A 1_555 1_555
H3A C6A 1_555 1_555
C7A C2A 1_555 1_555
H4A C7A 1_555 1_555
C8A C10 1_555 1_555
C9A C8A 1_555 1_555
H5A C9A 1_555 1_555
H6A C9A 1_555 1_555
C11A C12 1_555 1_555
H8A C11A 1_555 1_555
H9A C11A 1_555 1_555
C12A C11 1_555 1_555
C14A C15A 1_555 1_555
C15A C16A 1_555 1_555
C16A H11A 1_555 1_555
C17A C16A 1_555 1_555
H12A C17A 1_555 1_555
C18A C12A 1_555 1_555
C19A C18A 1_555 1_555
H13A C19A 1_555 1_555
C20A C15A 1_555 1_555
H14A C20A 1_555 1_555
N1A C1A 1_555 1_555
N2A C14A 1_555 1_555
N1A_2 Ag1 1_555 1_555
N2H Ag1 1_555 1_555
N2I Ag1 1_555 1_555
Ag1_2 N1A 1_555 1_555
Ag1H N2A 1_555 1_555
Ag1H_2 N2 1_555 1_555
F1K P1 1_555 1_555
F2K P1 1_555 1_555
F3K P1 1_555 1_555
C6 C7 1_555 1_555
C13 C12A 1_555 1_555
C17 C18 1_555 1_555
C19 C20 1_555 1_555
C5A C8A 1_555 1_555
C6A C7A 1_555 1_555
C8A C11A 1_555 1_555
C9A C12A 1_555 1_555
C17A C18A 1_555 1_555
C19A C20A 1_555 1_555

#END
