
#######################################################################
#
#                 Cambridge Crystallographic Data Centre
#                                CCDC 
#
#######################################################################
#
# If this CIF has been generated from an entry in the Cambridge 
# Structural Database, then it will include bibliographic, chemical, 
# crystal, experimental, refinement or atomic coordinate data resulting 
# from the CCDC's data processing and validation procedures.
#
#######################################################################

data_FAJZIC
_chemical_formula_moiety         '(C114 H84 Ag3 N12 3+)n'
_symmetry_cell_setting           monoclinic
_symmetry_space_group_name_H-M   'P 21'
_symmetry_Int_Tables_number      4
_space_group_name_Hall           'P 2yb'
loop_
_symmetry_equiv_pos_site_id
_symmetry_equiv_pos_as_xyz
1 x,y,z
2 -x,1/2+y,-z
_cell_length_a                   16.7489(2)
_cell_length_b                   28.5492(3)
_cell_length_c                   17.0230(2)
_cell_angle_alpha                90
_cell_angle_beta                 116.7870(18)
_cell_angle_gamma                90
_cell_volume                     7266.35
loop_
_atom_site_label
_atom_site_type_symbol
_atom_site_fract_x
_atom_site_fract_y
_atom_site_fract_z
C39 C 0.4236(5) 0.4876(3) 0.6041(5)
C40 C 0.4632(4) 0.5050(2) 0.5509(5)
C41 C 0.5249(7) 0.5379(3) 0.5786(6)
H29 H 0.5412 0.5519 0.6330
C42 C 0.5659(6) 0.5521(3) 0.5270(5)
H30 H 0.6110 0.5745 0.5495
C43 C 0.5441(3) 0.53537(17) 0.4497(4)
C44 C 0.4734(5) 0.5037(3) 0.4153(5)
H31 H 0.4524 0.4925 0.3582
C45 C 0.4347(5) 0.4892(3) 0.4686(7)
H32 H 0.3876 0.4679 0.4464
C46 C 0.5919(3) 0.55064(17) 0.3959(4)
C47 C 0.5943(3) 0.60432(17) 0.3875(3)
H33 H 0.5335 0.6161 0.3582
H34 H 0.6229 0.6181 0.4459
C48 C 0.5469(3) 0.53016(18) 0.3013(3)
H35 H 0.5460 0.4963 0.3045
H36 H 0.4855 0.5410 0.2713
C49 C 0.7423(3) 0.60002(18) 0.3851(3)
H37 H 0.7764 0.6095 0.3544
H38 H 0.7712 0.6129 0.4441
C50 C 0.6447(3) 0.61953(16) 0.3356(3)
C51 C 0.6508(3) 0.67285(18) 0.3347(4)
C52 C 0.6892(4) 0.6984(2) 0.4108(4)
H39 H 0.7110 0.6823 0.4639
C53 C 0.6311(5) 0.7450(2) 0.2566(5)
H40 H 0.6135 0.7612 0.2040
C54 C 0.6656(4) 0.7686(2) 0.3305(4)
C55 C 0.6774(4) 0.8196(2) 0.3357(5)
C56 C 0.6973(4) 0.74524(19) 0.4137(4)
H41 H 0.7221 0.7616 0.4666
C57 C 0.6199(5) 0.6970(2) 0.2537(4)
H42 H 0.5928 0.6812 0.2004
C58 C 0.5983(3) 0.59783(19) 0.2439(3)
H43 H 0.5376 0.6096 0.2135
H44 H 0.6297 0.6069 0.2103
C59 C 0.5964(3) 0.54472(18) 0.2490(3)
C60 C 0.5492(4) 0.5219(2) 0.1564(4)
C61 C 0.5329(4) 0.4753(2) 0.1467(4)
H45 H 0.5549 0.4561 0.1961
C62 C 0.4836(4) 0.4560(2) 0.0638(4)
H46 H 0.4697 0.4242 0.0589
C63 C 0.4567(6) 0.4809(2) -0.0064(4)
C64 C 0.4072(7) 0.4620(3) -0.0940(4)
C65 C 0.4828(16) 0.5285(4) 0.0027(6)
H47 H 0.4701 0.5460 -0.0475
C66 C 0.5244(11) 0.5487(3) 0.0802(6)
H48 H 0.5372 0.5806 0.0842
C67 C 0.6927(3) 0.5254(2) 0.2966(3)
H49 H 0.6912 0.4915 0.3000
H50 H 0.7252 0.5336 0.2636
C68 C 0.7407(3) 0.54609(17) 0.3898(3)
C69 C 0.8366(3) 0.52550(17) 0.4377(3)
C70 C 0.8456(3) 0.47802(19) 0.4477(4)
H51 H 0.7956 0.4587 0.4232
C71 C 0.9333(3) 0.45821(18) 0.4965(3)
H52 H 0.9407 0.4261 0.5065
C72 C 1.0058(3) 0.48745(18) 0.5280(3)
C73 C 1.0953(4) 0.4688(2) 0.5778(4)
C74 C 0.9965(3) 0.5361(2) 0.5162(3)
H53 H 1.0464 0.5556 0.5385
C75 C 0.9106(3) 0.55467(18) 0.4701(3)
H54 H 0.9030 0.5868 0.4611
C76 C 0.6885(3) 0.53197(17) 0.4413(3)
H55 H 0.6875 0.4981 0.4453
H56 H 0.7187 0.5444 0.5006
N5 N 0.3883(5) 0.4724(3) 0.6408(5)
N6 N 0.6833(5) 0.8582(2) 0.3306(6)
N7 N 0.3662(6) 0.4472(2) -0.1598(3)
N8 N 1.1646(3) 0.45471(18) 0.6159(4)
Ag2 Ag 0.30775(2) 0.43484(2) 0.69517(2)
N6A N 0.3167(5) 0.3582(2) 0.6694(6)
N7_2 N 0.3662(6) 0.4472(2) 0.8402(3)
N8_2 N 0.1646(3) 0.45471(18) 0.6159(4)
Ag2_2 Ag 0.30775(2) 0.43484(2) -0.30483(2)
Ag2_3 Ag 1.30775(2) 0.43484(2) 0.69517(2)
Ag2A Ag 0.69225(2) 0.93484(2) 0.30483(2)
C77 C 0.8022(4) 0.8712(2) 0.6570(5)
C78 C 0.8058(4) 0.9182(2) 0.6557(4)
C79 C 0.8363(5) 0.9425(3) 0.7365(4)
H57 H 0.8515 0.9258 0.7883
C80 C 0.8436(4) 0.9898(2) 0.7393(4)
H58 H 0.8634 1.0048 0.7933
C81 C 0.8222(4) 1.0174(2) 0.6633(4)
C82 C 0.7929(4) 0.99287(19) 0.5829(4)
H59 H 0.7783 1.0095 0.5312
C83 C 0.7857(4) 0.9455(2) 0.5797(4)
H60 H 0.7670 0.9305 0.5258
C84 C 0.8262(3) 1.0703(2) 0.6662(3)
C85 C 0.8688(4) 1.0887(2) 0.7607(4)
H61 H 0.9290 1.0764 0.7922
H62 H 0.8345 1.0779 0.7903
C86 C 0.8721(4) 1.1429(2) 0.7623(4)
C87 C 0.9184(5) 1.1606(2) 0.8563(4)
C88 C 1.0031(8) 1.1437(4) 0.9137(6)
H63 H 1.0305 1.1213 0.8945
C89 C 1.0476(8) 1.1609(4) 1.0018(7)
H64 H 1.1041 1.1501 1.0406
C90 C 1.0054(6) 1.1930(3) 1.0269(5)
C91 C 1.0495(8) 1.2125(4) 1.1150(6)
C92 C 0.9229(7) 1.2126(5) 0.9711(8)
H65 H 0.8971 1.2365 0.9891
C93 C 0.8825(6) 1.1942(4) 0.8886(7)
H66 H 0.8259 1.2054 0.8508
C94 C 0.7760(4) 1.1610(2) 0.7127(4)
H67 H 0.7763 1.1950 0.7137
H68 H 0.7413 1.1501 0.7419
C95 C 0.9275(3) 1.1595(2) 0.7143(3)
H69 H 0.9297 1.1934 0.7144
H70 H 0.9883 1.1479 0.7456
C96 C 0.7310(3) 1.0892(2) 0.6172(3)
H71 H 0.6957 1.0783 0.6457
H72 H 0.7037 1.0775 0.5572
C97 C 0.7318(3) 1.1439(2) 0.6163(4)
C98 C 0.6365(4) 1.1616(2) 0.5654(4)
C99 C 0.5982(4) 1.1912(2) 0.6037(5)
H73 H 0.6296 1.1993 0.6628
C100 C 0.5135(5) 1.2084(3) 0.5538(6)
H74 H 0.4877 1.2287 0.5786
C101 C 0.4673(4) 1.1953(3) 0.4672(6)
C102 C 0.3777(5) 1.2121(4) 0.4121(7)
C103 C 0.5023(5) 1.1650(3) 0.4301(6)
H75 H 0.4687 1.1561 0.3718
C104 C 0.5884(5) 1.1468(3) 0.4784(5)
H76 H 0.6126 1.1257 0.4534
C105 C 0.7876(4) 1.1603(2) 0.5716(4)
H77 H 0.7888 1.1943 0.5715
H78 H 0.7596 1.1499 0.5108
C106 C 0.8853(3) 1.14140(18) 0.6183(3)
C107 C 0.9369(4) 1.15684(18) 0.5699(4)
C108 C 1.0204(4) 1.17927(19) 0.6133(4)
H79 H 1.0453 1.1846 0.6736
C109 C 1.0663(4) 1.19372(19) 0.5658(5)
H80 H 1.1229 1.2070 0.5953
C110 C 1.0288(5) 1.1883(2) 0.4778(5)
C111 C 1.0705(5) 1.2064(3) 0.4289(5)
C112 C 0.9448(5) 1.1662(2) 0.4319(4)
H81 H 0.9191 1.1627 0.3711
C113 C 0.9007(4) 1.1495(2) 0.4798(4)
H82 H 0.8470 1.1334 0.4509
C114 C 0.8801(3) 1.0880(2) 0.6182(3)
H83 H 0.9402 1.0752 0.6469
H84 H 0.8520 1.0768 0.5580
N9 N 0.8082(4) 0.8312(3) 0.6635(6)
N10 N 1.0843(7) 1.2281(3) 1.1808(5)
N11 N 0.3096(5) 1.2287(4) 0.3765(6)
N12 N 1.1056(6) 1.2249(3) 0.3943(5)
Ag3 Ag 0.83132(2) 0.75475(2) 0.68618(2)
N10A N 0.9157(7) 0.7281(3) 0.8192(5)
N11A N 0.6904(5) 0.7287(4) 0.6235(6)
N12A N 0.8944(6) 0.7249(3) 0.6057(5)
Ag3A Ag 0.16868(2) 1.25475(2) 0.31382(2)
Ag3A_2 Ag 1.16868(2) 1.25475(2) 0.31382(2)
Ag3A_3 Ag 1.16868(2) 1.25475(2) 1.31382(2)
C1 C 0.0432(6) 0.3046(4) 0.8957(6)
C2 C 0.0049(6) 0.3248(4) 0.9497(5)
C3 C 0.0540(5) 0.3204(3) 1.0435(5)
H1 H 0.1102 0.3066 1.0697
C4 C 0.0139(4) 0.3379(3) 1.0946(5)
H2 H 0.0443 0.3357 1.1556
C5 C -0.0710(4) 0.3587(2) 1.0549(4)
C6 C -0.1078(6) 0.3670(3) 0.9664(5)
H3 H -0.1609 0.3840 0.9407
C7 C -0.0727(7) 0.3525(5) 0.9152(7)
H4 H -0.0995 0.3607 0.8560
C8 C -0.1157(3) 0.37502(19) 1.1102(3)
C9 C -0.0677(3) 0.35759(18) 1.2052(3)
H5 H -0.0066 0.3690 1.2322
H6 H -0.0659 0.3236 1.2056
C10 C -0.1153(3) 0.37437(17) 1.2594(3)
C11 C -0.0637(3) 0.35633(17) 1.3532(3)
C12 C 0.0247(3) 0.3702(2) 1.4032(3)
H7 H 0.0509 0.3902 1.3784
C13 C 0.0751(3) 0.35471(19) 1.4894(3)
H8 H 0.1338 0.3647 1.5222
C14 C 0.0365(3) 0.32441(18) 1.5252(4)
C15 C 0.0883(4) 0.30823(18) 1.6126(4)
C16 C -0.0521(4) 0.3102(2) 1.4763(4)
H9 H -0.0785 0.2903 1.5012
C17 C -0.1004(4) 0.32550(19) 1.3912(4)
H10 H -0.1587 0.3150 1.3584
C18 C -0.2122(3) 0.35680(16) 1.2163(3)
H11 H -0.2426 0.3680 1.2495
H12 H -0.2127 0.3228 1.2172
C19 C -0.1161(3) 0.42873(18) 1.2586(3)
H13 H -0.1455 0.4401 1.2926
H14 H -0.0551 0.4403 1.2857
C20 C -0.2134(3) 0.35762(17) 1.0690(3)
H15 H -0.2448 0.3690 1.0091
H16 H -0.2140 0.3237 1.0672
C21 C -0.2616(3) 0.37421(17) 1.1208(3)
C22 C -0.3581(3) 0.35805(17) 1.0778(3)
C23 C -0.4010(4) 0.3363(2) 1.1208(4)
H17 H -0.3690 0.3316 1.1812
C24 C -0.4893(4) 0.3210(3) 1.0788(5)
H18 H -0.5153 0.3052 1.1091
C25 C -0.5358(4) 0.3305(2) 0.9909(4)
C26 C -0.6288(4) 0.3131(3) 0.9465(5)
C27 C -0.4984(4) 0.3510(2) 0.9449(4)
H19 H -0.5321 0.3552 0.8846
C28 C -0.4118(4) 0.3657(2) 0.9850(4)
H20 H -0.3874 0.3808 0.9524
C29 C -0.2615(3) 0.42869(17) 1.1227(3)
H21 H -0.2937 0.4407 1.0633
H22 H -0.2916 0.4396 1.1564
C30 C -0.1650(3) 0.44715(16) 1.1645(3)
C31 C -0.1670(3) 0.50094(19) 1.1649(4)
C32 C -0.1238(3) 0.52722(18) 1.2384(3)
H23 H -0.0874 0.5126 1.2914
C33 C -0.1330(3) 0.57553(19) 1.2361(4)
H24 H -0.1048 0.5931 1.2874
C34 C -0.1844(4) 0.59703(18) 1.1569(4)
C35 C -0.1924(5) 0.6484(2) 1.1582(5)
C36 C -0.2232(7) 0.5738(2) 1.0815(5)
H25 H -0.2535 0.5895 1.0284
C37 C -0.2173(6) 0.5240(2) 1.0840(4)
H26 H -0.2464 0.5067 1.0325
C38 C -0.1160(3) 0.42935(18) 1.1119(3)
H27 H -0.0549 0.4408 1.1389
H28 H -0.1457 0.4413 1.0522
N1 N 0.0770(5) 0.2891(4) 0.8611(5)
N2 N 0.1297(3) 0.29412(18) 1.6826(3)
N3 N -0.6966(5) 0.3028(3) 0.9052(5)
N4 N -0.1967(5) 0.68657(19) 1.1635(4)
Ag1 Ag 0.17725(2) 0.26311(2) 0.81696(2)
N2_2 N 0.1297(3) 0.29412(18) 0.6826(3)
N3_2 N 0.3034(5) 0.3028(3) 0.9052(5)
N4A N 0.1967(5) 0.18657(19) 0.8365(4)
Ag1_2 Ag -0.82275(2) 0.26311(2) 0.81696(2)
Ag1_3 Ag 0.17725(2) 0.26311(2) 1.81696(2)
Ag1A Ag -0.17725(2) 0.76311(2) 1.18304(2)
loop_
_geom_bond_atom_site_label_1
_geom_bond_atom_site_label_2
_geom_bond_site_symmetry_1
_geom_bond_site_symmetry_2
C1 C2 1_555 1_555
C2 C3 1_555 1_555
C3 H1 1_555 1_555
C4 C3 1_555 1_555
H2 C4 1_555 1_555
C5 C4 1_555 1_555
C6 C5 1_555 1_555
H3 C6 1_555 1_555
C7 C2 1_555 1_555
H4 C7 1_555 1_555
C8 C5 1_555 1_555
C9 C8 1_555 1_555
H5 C9 1_555 1_555
H6 C9 1_555 1_555
C10 C9 1_555 1_555
C11 C10 1_555 1_555
C12 C11 1_555 1_555
H7 C12 1_555 1_555
C13 C12 1_555 1_555
H8 C13 1_555 1_555
C14 C13 1_555 1_555
C15 C14 1_555 1_555
C16 C14 1_555 1_555
H9 C16 1_555 1_555
C17 C11 1_555 1_555
H10 C17 1_555 1_555
C18 C10 1_555 1_555
H11 C18 1_555 1_555
H12 C18 1_555 1_555
C19 C10 1_555 1_555
H13 C19 1_555 1_555
H14 C19 1_555 1_555
C20 C8 1_555 1_555
H15 C20 1_555 1_555
H16 C20 1_555 1_555
C21 C18 1_555 1_555
C22 C21 1_555 1_555
C23 C22 1_555 1_555
H17 C23 1_555 1_555
C24 C23 1_555 1_555
H18 C24 1_555 1_555
C25 C24 1_555 1_555
C26 C25 1_555 1_555
C27 C25 1_555 1_555
H19 C27 1_555 1_555
C28 C22 1_555 1_555
H20 C28 1_555 1_555
C29 C21 1_555 1_555
H21 C29 1_555 1_555
H22 C29 1_555 1_555
C30 C19 1_555 1_555
C31 C30 1_555 1_555
C32 C31 1_555 1_555
H23 C32 1_555 1_555
C33 C32 1_555 1_555
H24 C33 1_555 1_555
C34 C33 1_555 1_555
C35 C34 1_555 1_555
C36 C34 1_555 1_555
H25 C36 1_555 1_555
C37 C31 1_555 1_555
H26 C37 1_555 1_555
C38 C8 1_555 1_555
H27 C38 1_555 1_555
H28 C38 1_555 1_555
N1 C1 1_555 1_555
N2 C15 1_555 1_555
N3 C26 1_555 1_555
N4 C35 1_555 1_555
Ag1 N1 1_555 1_555
C39 C40 1_555 1_555
C40 C41 1_555 1_555
C41 H29 1_555 1_555
C42 C41 1_555 1_555
H30 C42 1_555 1_555
C43 C42 1_555 1_555
C44 C43 1_555 1_555
H31 C44 1_555 1_555
C45 C40 1_555 1_555
H32 C45 1_555 1_555
C46 C43 1_555 1_555
C47 C46 1_555 1_555
H33 C47 1_555 1_555
H34 C47 1_555 1_555
C48 C46 1_555 1_555
H35 C48 1_555 1_555
H36 C48 1_555 1_555
C49 H37 1_555 1_555
H38 C49 1_555 1_555
C50 C47 1_555 1_555
C51 C50 1_555 1_555
C52 C51 1_555 1_555
H39 C52 1_555 1_555
C53 H40 1_555 1_555
C54 C53 1_555 1_555
C55 C54 1_555 1_555
C56 C52 1_555 1_555
H41 C56 1_555 1_555
C57 C51 1_555 1_555
H42 C57 1_555 1_555
C58 C50 1_555 1_555
H43 C58 1_555 1_555
H44 C58 1_555 1_555
C59 C48 1_555 1_555
C60 C59 1_555 1_555
C61 C60 1_555 1_555
H45 C61 1_555 1_555
C62 C61 1_555 1_555
H46 C62 1_555 1_555
C63 C62 1_555 1_555
C64 C63 1_555 1_555
C65 C63 1_555 1_555
H47 C65 1_555 1_555
C66 C60 1_555 1_555
H48 C66 1_555 1_555
C67 C59 1_555 1_555
H49 C67 1_555 1_555
H50 C67 1_555 1_555
C68 C49 1_555 1_555
C69 C68 1_555 1_555
C70 C69 1_555 1_555
H51 C70 1_555 1_555
C71 C70 1_555 1_555
H52 C71 1_555 1_555
C72 C71 1_555 1_555
C73 C72 1_555 1_555
C74 C72 1_555 1_555
H53 C74 1_555 1_555
C75 C69 1_555 1_555
H54 C75 1_555 1_555
C76 C46 1_555 1_555
H55 C76 1_555 1_555
H56 C76 1_555 1_555
N5 C39 1_555 1_555
N6 C55 1_555 1_555
N7 C64 1_555 1_555
N8 C73 1_555 1_555
Ag2 N5 1_555 1_555
C77 C78 1_555 1_555
C78 C79 1_555 1_555
C79 H57 1_555 1_555
C80 C79 1_555 1_555
H58 C80 1_555 1_555
C81 C80 1_555 1_555
C82 C81 1_555 1_555
H59 C82 1_555 1_555
C83 C78 1_555 1_555
H60 C83 1_555 1_555
C84 C81 1_555 1_555
C85 C84 1_555 1_555
H61 C85 1_555 1_555
H62 C85 1_555 1_555
C86 C85 1_555 1_555
C87 C86 1_555 1_555
C88 C87 1_555 1_555
H63 C88 1_555 1_555
C89 C88 1_555 1_555
H64 C89 1_555 1_555
C90 C89 1_555 1_555
C91 C90 1_555 1_555
C92 C90 1_555 1_555
H65 C92 1_555 1_555
C93 C87 1_555 1_555
H66 C93 1_555 1_555
C94 C86 1_555 1_555
H67 C94 1_555 1_555
H68 C94 1_555 1_555
C95 C86 1_555 1_555
H69 C95 1_555 1_555
H70 C95 1_555 1_555
C96 C84 1_555 1_555
H71 C96 1_555 1_555
H72 C96 1_555 1_555
C97 C94 1_555 1_555
C98 C97 1_555 1_555
C99 C98 1_555 1_555
H73 C99 1_555 1_555
C100 C99 1_555 1_555
H74 C100 1_555 1_555
C101 C100 1_555 1_555
C102 C101 1_555 1_555
C103 C101 1_555 1_555
H75 C103 1_555 1_555
C104 C98 1_555 1_555
H76 C104 1_555 1_555
C105 C97 1_555 1_555
H77 C105 1_555 1_555
H78 C105 1_555 1_555
C106 C95 1_555 1_555
C107 C106 1_555 1_555
C108 C107 1_555 1_555
H79 C108 1_555 1_555
C109 C108 1_555 1_555
H80 C109 1_555 1_555
C110 C109 1_555 1_555
C111 C110 1_555 1_555
C112 C110 1_555 1_555
H81 C112 1_555 1_555
C113 C107 1_555 1_555
H82 C113 1_555 1_555
C114 C84 1_555 1_555
H83 C114 1_555 1_555
H84 C114 1_555 1_555
N9 C77 1_555 1_555
N10 C91 1_555 1_555
N11 C102 1_555 1_555
N12 C111 1_555 1_555
Ag3 N9 1_555 1_555
N2_2 Ag1 1_555 1_555
N3_2 Ag1 1_555 1_555
N4A Ag1 1_555 1_555
Ag1_2 N3 1_555 1_555
Ag1_3 N2 1_555 1_555
Ag1A N4 1_555 1_555
N6A Ag2 1_555 1_555
N7_2 Ag2 1_555 1_555
N8_2 Ag2 1_555 1_555
Ag2_2 N7 1_555 1_555
Ag2_3 N8 1_555 1_555
Ag2A N6 1_555 1_555
N10A Ag3 1_555 1_555
N11A Ag3 1_555 1_555
N12A Ag3 1_555 1_555
Ag3A N11 1_555 1_555
Ag3A_2 N12 1_555 1_555
Ag3A_3 N10 1_555 1_555
C6 C7 1_555 1_555
C16 C17 1_555 1_555
C20 C21 1_555 1_555
C27 C28 1_555 1_555
C29 C30 1_555 1_555
C30 C38 1_555 1_555
C36 C37 1_555 1_555
C44 C45 1_555 1_555
C49 C50 1_555 1_555
C53 C57 1_555 1_555
C54 C56 1_555 1_555
C58 C59 1_555 1_555
C65 C66 1_555 1_555
C67 C68 1_555 1_555
C68 C76 1_555 1_555
C74 C75 1_555 1_555
C82 C83 1_555 1_555
C92 C93 1_555 1_555
C96 C97 1_555 1_555
C103 C104 1_555 1_555
C105 C106 1_555 1_555
C106 C114 1_555 1_555
C112 C113 1_555 1_555

#END
