
#######################################################################
#
#                 Cambridge Crystallographic Data Centre
#                                CCDC 
#
#######################################################################
#
# If this CIF has been generated from an entry in the Cambridge 
# Structural Database, then it will include bibliographic, chemical, 
# crystal, experimental, refinement or atomic coordinate data resulting 
# from the CCDC's data processing and validation procedures.
#
#######################################################################

data_ESIYEM
_chemical_formula_moiety         '(C32 H28 N4 O16 S4 Zn4)n'
_symmetry_cell_setting           orthorhombic
_symmetry_space_group_name_H-M   'P n m a'
_symmetry_Int_Tables_number      62
_space_group_name_Hall           '-P 2ac 2n'
loop_
_symmetry_equiv_pos_site_id
_symmetry_equiv_pos_as_xyz
1 x,y,z
2 1/2-x,-y,1/2+z
3 1/2+x,1/2-y,1/2-z
4 -x,1/2+y,-z
5 -x,-y,-z
6 1/2+x,y,1/2-z
7 1/2-x,1/2+y,1/2+z
8 x,1/2-y,z
_cell_length_a                   20.734(6)
_cell_length_b                   20.994(6)
_cell_length_c                   18.539(6)
_cell_angle_alpha                90
_cell_angle_beta                 90
_cell_angle_gamma                90
_cell_volume                     8069.83
loop_
_atom_site_label
_atom_site_type_symbol
_atom_site_fract_x
_atom_site_fract_y
_atom_site_fract_z
Zn1 Zn 0.47502(2) 0.01145(2) 0.15798(2)
Zn2 Zn 0.50745(2) -0.01229(2) 0.31579(2)
S1 S 0.23967(5) 0.00106(5) 0.23254(6)
S2 S 0.50011(8) -0.2500 0.26245(8)
S3 S 0.48369(7) 0.2500 0.20081(7)
O1 O 0.38332(14) 0.01056(13) 0.20436(16)
O2 O 0.41059(15) -0.00701(16) 0.31852(17)
O3 O 0.07495(15) 0.00431(15) 0.33444(16)
O4 O 0.09942(14) -0.01003(14) 0.21789(17)
O5 O 0.49915(15) -0.10599(15) 0.28215(18)
O6 O 0.47186(15) -0.08509(15) 0.16880(16)
O7 O 0.48341(14) 0.10595(14) 0.18175(16)
O8 O 0.50668(17) 0.08459(15) 0.29565(17)
N1 N 0.45027(16) 0.01994(15) 0.05065(16)
H1 H 0.4094 0.0357 0.0508
N2 N 0.52160(17) -0.01137(17) 0.42527(16)
H2 H 0.5628 -0.0242 0.4342
C1 C 0.3703(2) 0.00130(19) 0.2690(2)
C2 C 0.3023(2) 0.0007(2) 0.2925(2)
C3 C 0.2803(2) -0.0012(3) 0.3614(3)
H3 H 0.3072 -0.0012 0.4015
C4 C 0.2128(3) -0.0031(3) 0.3660(3)
H4 H 0.1904 -0.0056 0.4094
C5 C 0.1836(2) -0.0010(2) 0.3005(2)
C6 C 0.1137(2) -0.00194(19) 0.2831(2)
C7 C 0.48318(18) -0.12210(19) 0.2202(2)
C8 C 0.47634(19) -0.1909(2) 0.2038(2)
C9 C 0.4508(2) -0.2167(2) 0.1428(2)
H5 H 0.4349 -0.1923 0.1048
C10 C 0.49665(19) 0.1221(2) 0.2453(2)
C11 C 0.50203(19) 0.1914(2) 0.2618(2)
C12 C 0.5218(2) 0.2171(2) 0.3259(2)
H6 H 0.5340 0.1927 0.3655
C13 C 0.4462(2) -0.0408(2) 0.01010(19)
H7 H 0.4226 -0.0338 -0.0344
H8 H 0.4226 -0.0718 0.0385
C14 C 0.4886(2) 0.0663(2) 0.0070(2)
H9 H 0.4659 0.0755 -0.0375
H10 H 0.4930 0.1059 0.0337
C15 C 0.4766(2) -0.0560(2) 0.4636(2)
H11 H 0.4836 -0.0990 0.4463
H12 H 0.4324 -0.0443 0.4527
C16 C 0.5132(2) 0.0540(2) 0.4556(2)
H13 H 0.4700 0.0691 0.4447
H14 H 0.5436 0.0827 0.4326
O5G O 0.49915(15) -0.39401(15) 0.28215(18)
O6G O 0.47186(15) -0.41491(15) 0.16880(16)
C7G C 0.48318(18) -0.37790(19) 0.2202(2)
C8G C 0.47634(19) -0.3091(2) 0.2038(2)
C9G C 0.4508(2) -0.2833(2) 0.1428(2)
H5G H 0.4349 -0.3077 0.1048
O7G O 0.48341(14) 0.39405(14) 0.18175(16)
O8G O 0.50668(17) 0.41541(15) 0.29565(17)
C10G C 0.49665(19) 0.3779(2) 0.2453(2)
C11G C 0.50203(19) 0.3086(2) 0.2618(2)
C12G C 0.5218(2) 0.2829(2) 0.3259(2)
H6G H 0.5340 0.3073 0.3655
N1D N 0.54973(16) -0.01994(15) -0.05065(16)
H1D H 0.5906 -0.0357 -0.0508
C13D C 0.5538(2) 0.0408(2) -0.01010(19)
H7D H 0.5774 0.0338 0.0344
H8D H 0.5774 0.0718 -0.0385
C14D C 0.5114(2) -0.0663(2) -0.0070(2)
H9D H 0.5341 -0.0755 0.0375
H10D H 0.5070 -0.1059 -0.0337
N2D N 0.47840(17) 0.01137(17) 0.57473(16)
H2D H 0.4372 0.0242 0.5658
C15D C 0.5234(2) 0.0560(2) 0.5364(2)
H11D H 0.5164 0.0990 0.5537
H12D H 0.5676 0.0443 0.5473
C16D C 0.4868(2) -0.0540(2) 0.5444(2)
H13D H 0.5300 -0.0691 0.5553
H14D H 0.4564 -0.0827 0.5674
Zn1D Zn 0.52498(2) -0.01145(2) -0.15798(2)
Zn2D Zn 0.49255(2) 0.01229(2) -0.31579(2)
S1D S 0.76033(5) -0.00106(5) -0.23254(6)
O1D O 0.61668(14) -0.01056(13) -0.20436(16)
O2D O 0.58941(15) 0.00701(16) -0.31852(17)
O3D O 0.92505(15) -0.00431(15) -0.33444(16)
O4D O 0.90058(14) 0.01003(14) -0.21789(17)
C1D C 0.6297(2) -0.00130(19) -0.2690(2)
C2D C 0.6977(2) -0.0007(2) -0.2925(2)
C3D C 0.7197(2) 0.0012(3) -0.3614(3)
H3D H 0.6928 0.0012 -0.4015
C4D C 0.7872(3) 0.0031(3) -0.3660(3)
H4D H 0.8096 0.0056 -0.4094
C5D C 0.8164(2) 0.0010(2) -0.3005(2)
C6D C 0.8863(2) 0.00194(19) -0.2831(2)
Zn1A Zn 1.02498(2) -0.01145(2) -0.34202(2)
Zn1E Zn -0.02498(2) 0.01145(2) 0.34202(2)
Zn1G Zn 0.47502(2) -0.51145(2) 0.15798(2)
Zn1G_2 Zn 0.47502(2) 0.48855(2) 0.15798(2)
Zn2A Zn 0.99255(2) 0.01229(2) -0.18421(2)
Zn2D_2 Zn 0.49255(2) 0.01229(2) 0.68421(2)
Zn2E Zn 0.00745(2) -0.01229(2) 0.18421(2)
Zn2G Zn 0.50745(2) -0.48771(2) 0.31579(2)
Zn2G_2 Zn 0.50745(2) 0.51229(2) 0.31579(2)
O3A O 0.42505(15) -0.00431(15) -0.16556(16)
O3E O 0.57495(15) 0.00431(15) 0.16556(16)
O4A O 0.40058(14) 0.01003(14) -0.28211(17)
O4E O 0.59942(14) -0.01003(14) 0.28211(17)
O5D O 0.50085(15) 0.10599(15) -0.28215(18)
O6D O 0.52814(15) 0.08509(15) -0.16880(16)
O7D O 0.51659(14) -0.10595(14) -0.18175(16)
O8D O 0.49332(17) -0.08459(15) -0.29565(17)
N2D_2 N 0.47840(17) 0.01137(17) -0.42527(16)
loop_
_geom_bond_atom_site_label_1
_geom_bond_atom_site_label_2
_geom_bond_site_symmetry_1
_geom_bond_site_symmetry_2
Zn1 O1 1_555 1_555
Zn2 O2 1_555 1_555
S1 C2 1_555 1_555
S2 C8 1_555 1_555
S3 C11 1_555 1_555
O1 C1 1_555 1_555
O2 C1 1_555 1_555
O3 C6 1_555 1_555
O4 C6 1_555 1_555
O5 Zn2 1_555 1_555
O6 Zn1 1_555 1_555
O7 Zn1 1_555 1_555
O8 Zn2 1_555 1_555
N1 Zn1 1_555 1_555
H1 N1 1_555 1_555
N2 Zn2 1_555 1_555
H2 N2 1_555 1_555
C1 C2 1_555 1_555
C2 C3 1_555 1_555
C3 H3 1_555 1_555
C4 C3 1_555 1_555
H4 C4 1_555 1_555
C5 S1 1_555 1_555
C6 C5 1_555 1_555
C7 O5 1_555 1_555
C8 C7 1_555 1_555
C9 C8 1_555 1_555
H5 C9 1_555 1_555
C10 O7 1_555 1_555
C11 C10 1_555 1_555
C12 C11 1_555 1_555
H6 C12 1_555 1_555
C13 N1 1_555 1_555
H7 C13 1_555 1_555
H8 C13 1_555 1_555
C14 N1 1_555 1_555
H9 C14 1_555 1_555
H10 C14 1_555 1_555
C15 N2 1_555 1_555
H11 C15 1_555 1_555
H12 C15 1_555 1_555
C16 N2 1_555 1_555
H13 C16 1_555 1_555
H14 C16 1_555 1_555
O5G C7G 1_555 1_555
O6G C7G 1_555 1_555
C7G C8G 1_555 1_555
C8G S2 1_555 1_555
C9G C9 1_555 1_555
H5G C9G 1_555 1_555
O7G C10G 1_555 1_555
O8G C10G 1_555 1_555
C10G C11G 1_555 1_555
C11G S3 1_555 1_555
C12G C12 1_555 1_555
H6G C12G 1_555 1_555
N1D H1D 1_555 1_555
C13D C14 1_555 1_555
H7D C13D 1_555 1_555
H8D C13D 1_555 1_555
C14D C13 1_555 1_555
H9D C14D 1_555 1_555
H10D C14D 1_555 1_555
N2D H2D 1_555 1_555
C15D C16 1_555 1_555
H11D C15D 1_555 1_555
H12D C15D 1_555 1_555
C16D C15 1_555 1_555
H13D C16D 1_555 1_555
H14D C16D 1_555 1_555
Zn1D N1D 1_555 1_555
Zn2D O2D 1_555 1_555
S1D C2D 1_555 1_555
O1D Zn1D 1_555 1_555
O2D C1D 1_555 1_555
O3D C6D 1_555 1_555
O4D C6D 1_555 1_555
C1D O1D 1_555 1_555
C2D C1D 1_555 1_555
C3D C2D 1_555 1_555
H3D C3D 1_555 1_555
C4D C3D 1_555 1_555
H4D C4D 1_555 1_555
C5D S1D 1_555 1_555
C6D C5D 1_555 1_555
Zn1A O3D 1_555 1_555
Zn1E O3 1_555 1_555
Zn1G O6G 1_555 1_555
Zn1G_2 O7G 1_555 1_555
Zn2A O4D 1_555 1_555
Zn2D_2 N2D 1_555 1_555
Zn2E O4 1_555 1_555
Zn2G O5G 1_555 1_555
Zn2G_2 O8G 1_555 1_555
O3A Zn1D 1_555 1_555
O3E Zn1 1_555 1_555
O4A Zn2D 1_555 1_555
O4E Zn2 1_555 1_555
O5D Zn2D 1_555 1_555
O6D Zn1D 1_555 1_555
O7D Zn1D 1_555 1_555
O8D Zn2D 1_555 1_555
N2D_2 Zn2D 1_555 1_555
O6 C7 1_555 1_555
O8 C10 1_555 1_555
C4 C5 1_555 1_555
C8G C9G 1_555 1_555
C11G C12G 1_555 1_555
N1D C13D 1_555 1_555
N1D C14D 1_555 1_555
N2D C15D 1_555 1_555
N2D C16D 1_555 1_555
C4D C5D 1_555 1_555

#END
