
#######################################################################
#
#                 Cambridge Crystallographic Data Centre
#                                CCDC 
#
#######################################################################
#
# If this CIF has been generated from an entry in the Cambridge 
# Structural Database, then it will include bibliographic, chemical, 
# crystal, experimental, refinement or atomic coordinate data resulting 
# from the CCDC's data processing and validation procedures.
#
#######################################################################

data_PEVLEJ
_chemical_formula_moiety         '(C10 H11 O10 Pr1)n'
_symmetry_cell_setting           monoclinic
_symmetry_space_group_name_H-M   'C c'
_symmetry_Int_Tables_number      9
_space_group_name_Hall           'C -2yc'
loop_
_symmetry_equiv_pos_site_id
_symmetry_equiv_pos_as_xyz
1 x,y,z
2 x,-y,1/2+z
3 1/2+x,1/2+y,z
4 1/2+x,1/2-y,1/2+z
_cell_length_a                   19.115(4)
_cell_length_b                   9.6740(19)
_cell_length_c                   6.6627(13)
_cell_angle_alpha                90
_cell_angle_beta                 106.72(3)
_cell_angle_gamma                90
_cell_volume                     1179.97
loop_
_atom_site_label
_atom_site_type_symbol
_atom_site_fract_x
_atom_site_fract_y
_atom_site_fract_z
Pr1 Pr 0.44837(13) 0.73953(4) 0.0244(3)
C1 C 0.6205(4) 0.8406(10) 0.0049(12)
C2 C 0.6013(4) 0.9740(9) -0.0153(12)
C3 C 0.6536(4) 1.0709(9) 0.0577(12)
H1 H 0.6415 1.1640 0.0368
C4 C 0.7213(4) 1.0355(9) 0.1580(13)
H2 H 0.7560 1.1027 0.2158
C5 C 0.7391(4) 0.9016(9) 0.1752(11)
C6 C 0.6898(5) 0.8031(11) 0.0995(15)
H3 H 0.7031 0.7104 0.1118
C7 C 0.5899(4) 0.6234(9) -0.1394(14)
H4 H 0.6193 0.5690 -0.0234
H5 H 0.6183 0.6414 -0.2359
C8 C 0.5222(5) 0.5484(10) -0.2470(14)
C9 C 0.5276(4) 1.0222(10) -0.1231(12)
C10 C 0.8131(5) 0.8568(10) 0.2807(13)
O1 O 0.5690(6) 0.7478(5) -0.0661(18)
O2 O 0.5297(4) 0.4390(8) -0.3179(11)
O3 O 0.4658(3) 0.6093(8) -0.2603(10)
O4 O 0.4767(3) 0.9419(7) -0.1346(10)
O5 O 0.5208(3) 1.1355(6) -0.1943(9)
O6 O 0.8509(3) 0.9331(7) 0.4170(9)
O7 O 0.8342(6) 0.7475(5) 0.2427(19)
O8 O 0.4057(4) 0.6719(8) 0.3206(9)
H6 H 0.4252 0.7043 0.4418
H7 H 0.3810 0.5984 0.3167
O9 O 0.3706(3) 0.9203(7) 0.0960(11)
H8 H 0.3833 0.9660 0.2120
H9 H 0.3488 0.9787 0.0044
Pr1A Pr 0.44837(13) 0.26047(4) -0.4756(3)
Pr1A_2 Pr 0.44837(13) 1.26047(4) -0.4756(3)
Pr1C Pr 0.94837(13) 0.76047(4) 0.5244(3)
O2A O 0.5297(4) 0.5610(8) 0.1821(11)
O5A O 0.5208(3) 0.8645(6) 0.3057(9)
O6C O 0.3509(3) 0.5669(7) -0.0830(9)
O7C O 0.3342(6) 0.7525(5) -0.2573(19)
O10 O 0.7832(4) 0.6098(10) 0.8627(12)
loop_
_geom_bond_atom_site_label_1
_geom_bond_atom_site_label_2
_geom_bond_site_symmetry_1
_geom_bond_site_symmetry_2
Pr1 O1 1_555 1_555
C1 C2 1_555 1_555
C2 C3 1_555 1_555
C3 H1 1_555 1_555
C4 C3 1_555 1_555
H2 C4 1_555 1_555
C5 C4 1_555 1_555
C6 C1 1_555 1_555
H3 C6 1_555 1_555
C7 H4 1_555 1_555
H5 C7 1_555 1_555
C8 C7 1_555 1_555
C9 C2 1_555 1_555
C10 C5 1_555 1_555
O1 C1 1_555 1_555
O2 C8 1_555 1_555
O3 Pr1 1_555 1_555
O4 Pr1 1_555 1_555
O5 C9 1_555 1_555
O6 C10 1_555 1_555
O7 C10 1_555 1_555
O8 Pr1 1_555 1_555
H6 O8 1_555 1_555
H7 O8 1_555 1_555
O9 Pr1 1_555 1_555
H8 O9 1_555 1_555
H9 O9 1_555 1_555
Pr1A O2 1_555 1_555
Pr1A_2 O5 1_555 1_555
Pr1C O6 1_555 1_555
O2A Pr1 1_555 1_555
O5A Pr1 1_555 1_555
O6C Pr1 1_555 1_555
O7C Pr1 1_555 1_555
C5 C6 1_555 1_555
C7 O1 1_555 1_555
C8 O3 1_555 1_555
C9 O4 1_555 1_555
O7 Pr1C 1_555 1_555

#END
