
#######################################################################
#
#                 Cambridge Crystallographic Data Centre
#                                CCDC 
#
#######################################################################
#
# If this CIF has been generated from an entry in the Cambridge 
# Structural Database, then it will include bibliographic, chemical, 
# crystal, experimental, refinement or atomic coordinate data resulting 
# from the CCDC's data processing and validation procedures.
#
#######################################################################

data_GAHWIX
_chemical_formula_moiety         'C124 H72 N13 O57 Zn21'
_symmetry_cell_setting           monoclinic
_symmetry_space_group_name_H-M   'P 21/c'
_symmetry_Int_Tables_number      14
_space_group_name_Hall           '-P 2ybc'
loop_
_symmetry_equiv_pos_site_id
_symmetry_equiv_pos_as_xyz
1 x,y,z
2 -x,1/2+y,1/2-z
3 -x,-y,-z
4 x,1/2-y,1/2+z
_cell_length_a                   36.130(7)
_cell_length_b                   27.033(5)
_cell_length_c                   34.291(7)
_cell_angle_alpha                90
_cell_angle_beta                 108.81(3)
_cell_angle_gamma                90
_cell_volume                     31703.4
loop_
_atom_site_label
_atom_site_type_symbol
_atom_site_fract_x
_atom_site_fract_y
_atom_site_fract_z
Zn1 Zn 0.400831(16) 0.46688(2) 0.196834(19)
Zn2 Zn 0.39514(2) 0.49824(3) 0.28309(2)
Zn3 Zn 0.31881(2) 0.01310(3) -0.29105(2)
Zn4 Zn 0.376513(18) 0.57632(3) 0.21028(2)
Zn5 Zn 0.872740(17) 0.00432(3) 0.63566(2)
Zn6 Zn -0.049850(19) -0.01122(3) -0.29092(2)
Zn7 Zn 0.866123(17) 0.53164(3) 0.22009(2)
Zn8 Zn 0.894250(18) 0.07715(3) 0.71162(2)
O1 O 0.44569(11) 0.43284(17) 0.23338(15)
O2 O 0.43637(13) 0.4509(2) 0.29415(16)
O3 O 0.85121(14) 0.0681(2) 0.61446(12)
O4 O 0.87482(11) 0.12407(15) 0.66644(13)
O5 O 0.83824(12) 0.49387(19) 0.24935(14)
O6 O 0.85466(12) 0.41520(16) 0.23987(13)
O7 O 0.60976(13) 0.3605(2) 0.42703(16)
O8 O 0.70634(13) 0.2205(2) 0.49756(18)
O9 O 0.78082(16) 0.3090(3) 0.37992(19)
O10 O 0.30539(12) 0.03055(17) -0.24246(14)
O11 O 0.36094(13) 0.02887(17) -0.18891(12)
O12 O 0.32080(13) 0.42065(18) 0.18756(13)
O13 O 0.36820(13) 0.42081(18) 0.15873(13)
O14 O -0.05926(14) 0.10370(18) -0.24688(13)
O15 O -0.03667(16) 0.0260(3) -0.23559(19)
O16 O 0.28669(16) 0.1223(3) -0.03980(17)
O17 O 0.19939(13) 0.2493(2) 0.05611(16)
O18 O 0.09393(17) 0.2047(3) -0.0825(2)
O19 O 0.28777(19) -0.0332(4) -0.3210(3)
O20 O 0.32701(17) -0.0965(3) -0.32832(19)
O21 O -0.10063(12) -0.02218(17) -0.40009(15)
O22 O -0.0586(3) -0.0527(3) -0.3433(2)
O23 O -0.05611(15) -0.4242(2) -0.76201(15)
O24 O -0.10528(14) -0.42487(18) -0.73736(15)
O25 O 0.17702(11) -0.22528(16) -0.47261(12)
O26 O -0.01994(12) -0.1437(2) -0.53399(14)
O27 O 0.07552(12) -0.28055(19) -0.61411(14)
O28 O 0.42417(11) 0.50244(17) 0.16160(13)
O29 O 0.40968(10) 0.58000(15) 0.17272(13)
O30 O 0.82174(10) 0.56593(15) 0.17990(13)
O31 O 0.82534(11) 0.53506(18) 0.11994(13)
O32 O 0.4138(3) 0.9448(3) -0.1889(2)
O33 O 0.4157(2) 0.8949(3) -0.2392(2)
O34 O 0.48253(13) 0.69167(18) 0.03388(16)
O35 O 0.65150(11) 0.61882(17) -0.01018(13)
O36 O 0.54905(15) 0.7284(2) -0.11278(16)
O37 O 0.37346(9) 0.50657(13) 0.22431(10)
O38 O 0.89368(8) 0.01039(13) 0.69408(9)
N1 N 0.60927(13) 0.3629(2) 0.36049(18)
H1 H 0.6237 0.3560 0.3448
N2 N 0.76577(14) 0.25440(19) 0.51862(15)
H2 H 0.7787 0.2815 0.5171
N3 N 0.75322(14) 0.3809(2) 0.35934(17)
H3 H 0.7344 0.4007 0.3609
N4 N 0.24591(16) 0.1225(2) -0.10441(19)
H4 H 0.2219 0.1303 -0.1193
N5 N 0.25476(14) 0.2666(2) 0.03994(15)
H5 H 0.2666 0.2600 0.0218
N6 N 0.10366(17) 0.1303(3) -0.1013(2)
H6 H 0.1205 0.1057 -0.0960
N7 N 0.16296(14) -0.1468(2) -0.4619(2)
H7 H 0.1443 -0.1245 -0.4702
N8 N 0.01791(13) -0.1447(2) -0.46752(16)
H8 H 0.0408 -0.1548 -0.4512
N9 N 0.01768(16) -0.2951(2) -0.60250(18)
H9 H 0.0062 -0.2911 -0.5837
N10 N 0.50766(12) 0.6171(2) 0.05185(15)
H10 H 0.5247 0.5959 0.0480
N11 N 0.65768(12) 0.63302(19) 0.05680(15)
H11 H 0.6455 0.6449 0.0732
N12 N 0.5152(2) 0.7764(3) -0.08165(19)
H12 H 0.5128 0.7825 -0.0574
C1 C 0.4571(2) 0.4326(3) 0.2730(3)
C2 C 0.49557(17) 0.4125(3) 0.2959(3)
C3 C 0.5087(2) 0.4119(3) 0.3374(2)
H13 H 0.4912 0.4219 0.3515
C4 C 0.5445(2) 0.3985(3) 0.3597(2)
H14 H 0.5527 0.4008 0.3889
C5 C 0.57002(19) 0.3808(3) 0.3399(2)
C6 C 0.55707(19) 0.3787(3) 0.2978(2)
H15 H 0.5737 0.3667 0.2834
C7 C 0.5196(2) 0.3943(3) 0.2763(2)
H16 H 0.5106 0.3921 0.2471
C8 C 0.62586(19) 0.3556(3) 0.4014(2)
C9 C 0.66744(17) 0.3382(3) 0.4134(2)
C10 C 0.67883(16) 0.3068(2) 0.44650(19)
H17 H 0.6610 0.2978 0.4604
C11 C 0.71779(16) 0.2878(2) 0.45990(19)
C12 C 0.74200(16) 0.2996(2) 0.4379(2)
H18 H 0.7676 0.2861 0.4455
C13 C 0.72927(16) 0.3311(2) 0.40471(19)
C14 C 0.69262(16) 0.3509(2) 0.39254(19)
H19 H 0.6847 0.3732 0.3699
C15 C 0.7288(2) 0.2521(3) 0.4931(2)
C16 C 0.78625(17) 0.2193(3) 0.5472(2)
C17 C 0.77803(19) 0.1672(3) 0.5405(2)
H20 H 0.7572 0.1564 0.5172
C18 C 0.7995(2) 0.1346(3) 0.56683(19)
H21 H 0.7935 0.1004 0.5625
C19 C 0.83089(18) 0.1490(3) 0.6009(2)
C20 C 0.83950(18) 0.1970(3) 0.60730(19)
H22 H 0.8607 0.2066 0.6307
C21 C 0.81856(18) 0.2326(3) 0.5810(2)
H23 H 0.8259 0.2664 0.5858
C22 C 0.8534(2) 0.1105(3) 0.6294(2)
C23 C 0.75686(17) 0.3409(3) 0.3805(2)
C24 C 0.77489(19) 0.3983(4) 0.3336(2)
C25 C 0.7914(2) 0.3621(3) 0.3138(2)
H24 H 0.7885 0.3276 0.3172
C26 C 0.81283(19) 0.3819(3) 0.2883(2)
H25 H 0.8265 0.3591 0.2769
C27 C 0.81483(18) 0.4278(3) 0.2799(2)
C28 C 0.7978(3) 0.4584(4) 0.2995(3)
H26 H 0.8009 0.4927 0.2956
C29 C 0.7756(3) 0.4463(3) 0.3255(3)
H27 H 0.7623 0.4704 0.3363
C30 C 0.83769(18) 0.4464(3) 0.25536(19)
C31 C 0.3257(2) 0.0406(2) -0.20472(19)
C32 C 0.30520(19) 0.0601(2) -0.17751(19)
C33 C 0.32310(19) 0.0658(3) -0.1364(2)
H28 H 0.3496 0.0559 -0.1249
C34 C 0.3049(2) 0.0849(3) -0.1114(2)
H29 H 0.3182 0.0866 -0.0826
C35 C 0.2676(2) 0.1017(3) -0.1270(2)
C36 C 0.2494(2) 0.0995(3) -0.1692(2)
H30 H 0.2240 0.1134 -0.1808
C37 C 0.2676(2) 0.0770(3) -0.1951(2)
H31 H 0.2544 0.0736 -0.2238
C38 C 0.2542(2) 0.1327(3) -0.0652(3)
C39 C 0.2240(2) 0.1546(3) -0.0489(2)
C40 C 0.23539(19) 0.1849(3) -0.0159(2)
H32 H 0.2625 0.1888 -0.0013
C41 C 0.20841(19) 0.2105(3) -0.0028(2)
C42 C 0.16849(18) 0.2042(3) -0.0240(2)
H33 H 0.1498 0.2215 -0.0150
C43 C 0.1561(2) 0.1741(3) -0.0569(2)
C44 C 0.1834(2) 0.1506(3) -0.0719(2)
H34 H 0.1750 0.1324 -0.0969
C45 C 0.2192(2) 0.2418(3) 0.0348(3)
C46 C 0.27324(19) 0.3006(3) 0.0709(2)
C47 C 0.2608(2) 0.3118(3) 0.1041(2)
H35 H 0.2380 0.2965 0.1066
C48 C 0.28207(19) 0.3462(3) 0.1343(2)
H36 H 0.2744 0.3529 0.1578
C49 C 0.31385(17) 0.3695(2) 0.1291(2)
C50 C 0.3259(2) 0.3569(3) 0.0959(2)
H37 H 0.3494 0.3707 0.0938
C51 C 0.30542(18) 0.3262(3) 0.0670(2)
H38 H 0.3128 0.3215 0.0430
C52 C 0.3361(3) 0.4053(2) 0.1622(2)
C53 C 0.1163(2) 0.1684(5) -0.0813(3)
C54 C 0.0665(2) 0.1190(4) -0.1317(3)
C55 C 0.0612(2) 0.0709(5) -0.1424(3)
H39 H 0.0807 0.0474 -0.1289
C56 C 0.0267(3) 0.0550(4) -0.1737(3)
H40 H 0.0218 0.0208 -0.1797
C57 C 0.0005(2) 0.0906(4) -0.1953(3)
C58 C 0.00566(19) 0.1367(3) -0.1825(2)
H41 H -0.0139 0.1605 -0.1951
C59 C 0.0394(2) 0.1516(3) -0.1508(3)
H42 H 0.0428 0.1855 -0.1430
C60 C -0.0345(2) 0.0723(4) -0.2277(3)
C61 C 0.2909(6) -0.0709(8) -0.3407(5)
C62 C 0.2607(2) -0.0923(5) -0.3743(4)
C63 C 0.2267(3) -0.0624(4) -0.3874(4)
H43 H 0.2253 -0.0304 -0.3765
C64 C 0.1951(2) -0.0841(4) -0.4181(3)
H44 H 0.1713 -0.0661 -0.4278
C65 C 0.1965(2) -0.1298(4) -0.4349(3)
C66 C 0.23182(19) -0.1576(4) -0.4205(3)
H45 H 0.2341 -0.1899 -0.4304
C67 C 0.26206(19) -0.1351(4) -0.3915(3)
H46 H 0.2864 -0.1521 -0.3830
C68 C 0.15322(16) -0.1908(3) -0.4781(2)
C69 C 0.11112(16) -0.1973(2) -0.50303(18)
C70 C 0.08207(15) -0.1732(2) -0.49329(18)
H47 H 0.0884 -0.1516 -0.4702
C71 C 0.04228(14) -0.1803(2) -0.51770(18)
C72 C 0.03396(16) -0.2124(2) -0.54933(18)
H48 H 0.0074 -0.2170 -0.5655
C73 C 0.06196(17) -0.2387(2) -0.55921(17)
C74 C 0.10151(16) -0.2313(2) -0.53552(18)
H49 H 0.1215 -0.2494 -0.5416
C75 C 0.0099(2) -0.1553(2) -0.5088(2)
C76 C -0.0050(2) -0.1206(3) -0.4485(2)
C77 C 0.0080(3) -0.1150(3) -0.4062(3)
H50 H 0.0344 -0.1224 -0.3909
C78 C -0.0176(4) -0.0985(4) -0.3859(4)
H51 H -0.0126 -0.1063 -0.3577
C79 C -0.0490(2) -0.0718(3) -0.4060(3)
C80 C -0.0616(2) -0.0731(3) -0.4471(3)
H52 H -0.0853 -0.0569 -0.4621
C81 C -0.03946(19) -0.0991(3) -0.4684(2)
H53 H -0.0494 -0.1011 -0.4976
C82 C -0.0704(3) -0.0444(3) -0.3804(3)
C83 C 0.05306(19) -0.2717(3) -0.5939(2)
C84 C -0.0030(2) -0.3238(3) -0.6357(2)
C85 C -0.0409(2) -0.3382(4) -0.6377(3)
H54 H -0.0515 -0.3286 -0.6168
C86 C -0.0625(2) -0.3669(4) -0.6711(3)
H55 H -0.0885 -0.3760 -0.6732
C87 C -0.0479(2) -0.3818(3) -0.7002(2)
C88 C -0.0087(2) -0.3694(3) -0.6978(2)
H56 H 0.0023 -0.3820 -0.7174
C89 C 0.0127(2) -0.3388(3) -0.6664(3)
H57 H 0.0380 -0.3279 -0.6656
C90 C -0.0724(3) -0.4116(3) -0.7351(2)
C91 C 0.42495(15) 0.5478(3) 0.15597(19)
C92 C 0.44751(16) 0.5682(3) 0.13003(19)
C93 C 0.46597(18) 0.5358(2) 0.1103(2)
H58 H 0.4648 0.5012 0.1142
C94 C 0.48535(17) 0.5535(3) 0.08593(19)
H59 H 0.4989 0.5308 0.0742
C95 C 0.48653(16) 0.6010(3) 0.0774(2)
C96 C 0.46860(19) 0.6344(3) 0.0951(2)
H60 H 0.4692 0.6688 0.0898
C97 C 0.4496(2) 0.6162(3) 0.1208(2)
H61 H 0.4370 0.6393 0.1331
C98 C 0.50522(18) 0.6601(3) 0.03281(19)
C99 C 0.53549(18) 0.6679(2) 0.01212(19)
C100 C 0.57257(17) 0.6485(2) 0.02536(17)
H62 H 0.5810 0.6285 0.0494
C101 C 0.59849(16) 0.6592(2) 0.0021(2)
C102 C 0.58727(17) 0.6875(2) -0.03222(18)
H63 H 0.6044 0.6929 -0.0478
C103 C 0.5511(2) 0.7081(2) -0.04401(18)
C104 C 0.52440(18) 0.6989(2) -0.0233(2)
H64 H 0.4990 0.7131 -0.0328
C105 C 0.63829(18) 0.6356(2) 0.0160(2)
C106 C 0.69491(17) 0.6136(2) 0.07600(19)
C107 C 0.7136(2) 0.6264(3) 0.1169(2)
H65 H 0.7009 0.6482 0.1302
C108 C 0.75012(19) 0.6083(3) 0.1385(2)
H66 H 0.7624 0.6169 0.1666
C109 C 0.76807(16) 0.5782(2) 0.11900(18)
C110 C 0.75031(19) 0.5632(3) 0.07931(19)
H67 H 0.7626 0.5398 0.0668
C111 C 0.71292(18) 0.5833(3) 0.05693(19)
H68 H 0.7009 0.5753 0.0287
C112 C 0.80890(17) 0.5583(3) 0.1418(2)
C113 C 0.5393(2) 0.7375(3) -0.0835(2)
C114 C 0.4941(3) 0.8072(4) -0.1139(3)
C115 C 0.4742(4) 0.8453(4) -0.1015(3)
H69 H 0.4733 0.8472 -0.0741
C116 C 0.4560(4) 0.8799(5) -0.1304(4)
H70 H 0.4489 0.9111 -0.1222
C117 C 0.4477(4) 0.8684(5) -0.1741(3)
C118 C 0.4691(3) 0.8326(4) -0.1845(3)
H71 H 0.4689 0.8284 -0.2120
C119 C 0.4918(2) 0.8018(4) -0.1521(3)
H72 H 0.5062 0.7756 -0.1589
C120 C 0.4234(4) 0.9045(6) -0.2032(4)
O39 O 0.2508(4) 0.0408(5) -0.3160(4)
C121 C 0.2209(6) 0.0740(8) -0.3164(7)
O40 O 0.3360(4) 0.5799(5) 0.2595(4)
O41 O 0.3875(5) 0.6574(5) 0.2059(6)
O42 O 0.0092(2) -0.0330(3) -0.2784(2)
O43 O -0.0439(2) 0.0499(3) -0.3239(2)
N13 N -0.0235(6) 0.0843(8) -0.3794(6)
C122 C -0.0280(5) 0.0624(6) -0.3461(5)
C123 C -0.0627(5) 0.1030(7) -0.4073(6)
C124 C -0.0103(7) 0.0594(10) -0.4117(7)
Zn2C Zn 0.39514(2) 0.00176(3) -0.21691(2)
Zn2C_2 Zn 0.39514(2) 1.00176(3) -0.21691(2)
Zn3C Zn 0.31881(2) 0.48690(3) 0.20895(2)
Zn4C Zn 0.376513(18) -0.07632(3) -0.28972(2)
Zn4C_2 Zn 0.376513(18) 0.92368(3) -0.28972(2)
Zn5_2 Zn -0.127260(17) 0.00432(3) -0.36434(2)
Zn5C Zn 0.872740(17) 0.49568(3) 0.13566(2)
Zn6C Zn -0.049850(19) -0.48878(3) -0.79092(2)
Zn6_2 Zn 0.950150(19) -0.01122(3) 0.70908(2)
Zn7_2 Zn -0.133877(17) -0.46836(3) -0.77991(2)
Zn7C Zn 0.866123(17) -0.03164(3) 0.72009(2)
Zn8C Zn 0.894250(18) 0.42285(3) 0.21162(2)
Zn8_2 Zn -0.105750(18) 0.07715(3) -0.28838(2)
O6C O 0.85466(12) 0.08480(16) 0.73987(13)
O11C O 0.36094(13) 0.47113(17) 0.31109(12)
O12C O 0.32080(13) 0.07935(18) -0.31244(13)
O14_2 O 0.94074(14) 0.10370(18) 0.75312(13)
O20C O 0.32701(17) 0.5965(3) 0.17168(19)
O21_2 O 0.89937(12) -0.02218(17) 0.59991(15)
O23C O -0.05611(15) -0.0758(2) -0.26201(15)
O24_2 O 0.89472(14) 0.57513(18) 0.26264(15)
O31C O 0.82534(11) -0.03506(18) 0.61994(13)
O32C O 0.4138(3) 0.5552(3) 0.3111(2)
O33C O 0.4157(2) 0.6051(3) 0.2608(2)
O37C O 0.37346(9) -0.00657(13) -0.27569(10)
O38_2 O -0.10632(8) 0.01039(13) -0.30592(9)
O38C O 0.89368(8) 0.48961(13) 0.19408(9)
loop_
_geom_bond_atom_site_label_1
_geom_bond_atom_site_label_2
_geom_bond_site_symmetry_1
_geom_bond_site_symmetry_2
Zn1 O1 1_555 1_555
Zn2 O2 1_555 1_555
Zn3 O10 1_555 1_555
Zn4 O29 1_555 1_555
Zn5 O3 1_555 1_555
Zn6 O15 1_555 1_555
Zn7 O5 1_555 1_555
Zn8 O4 1_555 1_555
O1 C1 1_555 1_555
O2 C1 1_555 1_555
O3 C22 1_555 1_555
O4 C22 1_555 1_555
O5 C30 1_555 1_555
O6 C30 1_555 1_555
O7 C8 1_555 1_555
O8 C15 1_555 1_555
O9 C23 1_555 1_555
O10 C31 1_555 1_555
O11 C31 1_555 1_555
O12 C52 1_555 1_555
O13 Zn1 1_555 1_555
O14 C60 1_555 1_555
O15 C60 1_555 1_555
O16 C38 1_555 1_555
O17 C45 1_555 1_555
O18 C53 1_555 1_555
O19 Zn3 1_555 1_555
O20 C61 1_555 1_555
O21 C82 1_555 1_555
O22 Zn6 1_555 1_555
O23 C90 1_555 1_555
O24 C90 1_555 1_555
O25 C68 1_555 1_555
O26 C75 1_555 1_555
O27 C83 1_555 1_555
O28 Zn1 1_555 1_555
O29 C91 1_555 1_555
O30 Zn7 1_555 1_555
O31 C112 1_555 1_555
O32 C120 1_555 1_555
O33 C120 1_555 1_555
O34 C98 1_555 1_555
O35 C105 1_555 1_555
O36 C113 1_555 1_555
O37 Zn1 1_555 1_555
O38 Zn5 1_555 1_555
N1 H1 1_555 1_555
N2 H2 1_555 1_555
N3 H3 1_555 1_555
N4 H4 1_555 1_555
N5 H5 1_555 1_555
N6 H6 1_555 1_555
N7 H7 1_555 1_555
N8 H8 1_555 1_555
N9 H9 1_555 1_555
N10 H10 1_555 1_555
N11 H11 1_555 1_555
N12 H12 1_555 1_555
C1 C2 1_555 1_555
C2 C3 1_555 1_555
C3 H13 1_555 1_555
C4 C3 1_555 1_555
H14 C4 1_555 1_555
C5 N1 1_555 1_555
C6 C5 1_555 1_555
H15 C6 1_555 1_555
C7 C2 1_555 1_555
H16 C7 1_555 1_555
C8 N1 1_555 1_555
C9 C8 1_555 1_555
C10 C9 1_555 1_555
H17 C10 1_555 1_555
C11 C10 1_555 1_555
C12 C11 1_555 1_555
H18 C12 1_555 1_555
C13 C12 1_555 1_555
C14 C9 1_555 1_555
H19 C14 1_555 1_555
C15 N2 1_555 1_555
C16 N2 1_555 1_555
C17 C16 1_555 1_555
H20 C17 1_555 1_555
C18 C17 1_555 1_555
H21 C18 1_555 1_555
C19 C18 1_555 1_555
C20 C19 1_555 1_555
H22 C20 1_555 1_555
C21 C16 1_555 1_555
H23 C21 1_555 1_555
C22 C19 1_555 1_555
C23 N3 1_555 1_555
C24 N3 1_555 1_555
C25 C24 1_555 1_555
H24 C25 1_555 1_555
C26 C25 1_555 1_555
H25 C26 1_555 1_555
C27 C26 1_555 1_555
C28 C27 1_555 1_555
H26 C28 1_555 1_555
C29 C24 1_555 1_555
H27 C29 1_555 1_555
C30 C27 1_555 1_555
C31 C32 1_555 1_555
C32 C33 1_555 1_555
C33 H28 1_555 1_555
C34 C33 1_555 1_555
H29 C34 1_555 1_555
C35 N4 1_555 1_555
C36 C35 1_555 1_555
H30 C36 1_555 1_555
C37 C32 1_555 1_555
H31 C37 1_555 1_555
C38 N4 1_555 1_555
C39 C38 1_555 1_555
C40 C39 1_555 1_555
H32 C40 1_555 1_555
C41 C40 1_555 1_555
C42 C41 1_555 1_555
H33 C42 1_555 1_555
C43 C42 1_555 1_555
C44 C39 1_555 1_555
H34 C44 1_555 1_555
C45 N5 1_555 1_555
C46 N5 1_555 1_555
C47 C46 1_555 1_555
H35 C47 1_555 1_555
C48 C47 1_555 1_555
H36 C48 1_555 1_555
C49 C48 1_555 1_555
C50 C49 1_555 1_555
H37 C50 1_555 1_555
C51 C46 1_555 1_555
H38 C51 1_555 1_555
C52 O13 1_555 1_555
C53 N6 1_555 1_555
C54 N6 1_555 1_555
C55 C54 1_555 1_555
H39 C55 1_555 1_555
C56 C55 1_555 1_555
H40 C56 1_555 1_555
C57 C56 1_555 1_555
C58 C57 1_555 1_555
H41 C58 1_555 1_555
C59 C54 1_555 1_555
H42 C59 1_555 1_555
C60 C57 1_555 1_555
C61 O19 1_555 1_555
C62 C61 1_555 1_555
C63 C62 1_555 1_555
H43 C63 1_555 1_555
C64 C63 1_555 1_555
H44 C64 1_555 1_555
C65 N7 1_555 1_555
C66 C65 1_555 1_555
H45 C66 1_555 1_555
C67 C62 1_555 1_555
H46 C67 1_555 1_555
C68 N7 1_555 1_555
C69 C68 1_555 1_555
C70 C69 1_555 1_555
H47 C70 1_555 1_555
C71 C70 1_555 1_555
C72 C71 1_555 1_555
H48 C72 1_555 1_555
C73 C72 1_555 1_555
C74 C69 1_555 1_555
H49 C74 1_555 1_555
C75 N8 1_555 1_555
C76 N8 1_555 1_555
C77 C76 1_555 1_555
H50 C77 1_555 1_555
C78 C77 1_555 1_555
H51 C78 1_555 1_555
C79 C78 1_555 1_555
C80 C79 1_555 1_555
H52 C80 1_555 1_555
C81 C76 1_555 1_555
H53 C81 1_555 1_555
C82 O22 1_555 1_555
C83 N9 1_555 1_555
C84 N9 1_555 1_555
C85 C84 1_555 1_555
H54 C85 1_555 1_555
C86 C85 1_555 1_555
H55 C86 1_555 1_555
C87 C86 1_555 1_555
C88 C87 1_555 1_555
H56 C88 1_555 1_555
C89 C84 1_555 1_555
H57 C89 1_555 1_555
C90 C87 1_555 1_555
C91 O28 1_555 1_555
C92 C91 1_555 1_555
C93 C92 1_555 1_555
H58 C93 1_555 1_555
C94 C93 1_555 1_555
H59 C94 1_555 1_555
C95 N10 1_555 1_555
C96 C95 1_555 1_555
H60 C96 1_555 1_555
C97 C92 1_555 1_555
H61 C97 1_555 1_555
C98 N10 1_555 1_555
C99 C98 1_555 1_555
C100 C99 1_555 1_555
H62 C100 1_555 1_555
C101 C100 1_555 1_555
C102 C101 1_555 1_555
H63 C102 1_555 1_555
C103 C102 1_555 1_555
C104 C99 1_555 1_555
H64 C104 1_555 1_555
C105 N11 1_555 1_555
C106 N11 1_555 1_555
C107 C106 1_555 1_555
H65 C107 1_555 1_555
C108 C107 1_555 1_555
H66 C108 1_555 1_555
C109 C108 1_555 1_555
C110 C109 1_555 1_555
H67 C110 1_555 1_555
C111 C106 1_555 1_555
H68 C111 1_555 1_555
C112 O30 1_555 1_555
C113 N12 1_555 1_555
C114 N12 1_555 1_555
C115 C114 1_555 1_555
H69 C115 1_555 1_555
C116 C115 1_555 1_555
H70 C116 1_555 1_555
C117 C116 1_555 1_555
C118 C117 1_555 1_555
H71 C118 1_555 1_555
C119 C114 1_555 1_555
H72 C119 1_555 1_555
C120 C117 1_555 1_555
O39 Zn3 1_555 1_555
C121 O39 1_555 1_555
O40 Zn4 1_555 1_555
O41 Zn4 1_555 1_555
O42 Zn6 1_555 1_555
O43 Zn6 1_555 1_555
N13 C122 1_555 1_555
C122 O43 1_555 1_555
C123 N13 1_555 1_555
C124 N13 1_555 1_555
Zn2C O11 1_555 1_555
Zn2C_2 O32 1_555 1_555
Zn3C O12 1_555 1_555
Zn4C O20 1_555 1_555
Zn4C_2 O33 1_555 1_555
Zn5_2 O21 1_555 1_555
Zn5C O31 1_555 1_555
Zn6C O23 1_555 1_555
Zn6_2 O38 1_555 1_555
Zn7_2 O24 1_555 1_555
Zn7C O38 1_555 1_555
Zn8C O6 1_555 1_555
Zn8_2 O14 1_555 1_555
O6C Zn8 1_555 1_555
O11C Zn2 1_555 1_555
O12C Zn3 1_555 1_555
O14_2 Zn8 1_555 1_555
O20C Zn4 1_555 1_555
O21_2 Zn5 1_555 1_555
O23C Zn6 1_555 1_555
O24_2 Zn7 1_555 1_555
O31C Zn5 1_555 1_555
O32C Zn2 1_555 1_555
O33C Zn4 1_555 1_555
O37C Zn3 1_555 1_555
O38_2 Zn6 1_555 1_555
O38C Zn7 1_555 1_555
Zn2 O37 1_555 1_555
Zn4 O37 1_555 1_555
Zn8 O38 1_555 1_555
O37 Zn3C 1_555 1_555
C4 C5 1_555 1_555
C6 C7 1_555 1_555
C11 C15 1_555 1_555
C13 C14 1_555 1_555
C13 C23 1_555 1_555
C20 C21 1_555 1_555
C28 C29 1_555 1_555
C34 C35 1_555 1_555
C36 C37 1_555 1_555
C41 C45 1_555 1_555
C43 C44 1_555 1_555
C43 C53 1_555 1_555
C49 C52 1_555 1_555
C50 C51 1_555 1_555
C58 C59 1_555 1_555
C64 C65 1_555 1_555
C66 C67 1_555 1_555
C71 C75 1_555 1_555
C73 C74 1_555 1_555
C73 C83 1_555 1_555
C79 C82 1_555 1_555
C80 C81 1_555 1_555
C88 C89 1_555 1_555
C94 C95 1_555 1_555
C96 C97 1_555 1_555
C101 C105 1_555 1_555
C103 C104 1_555 1_555
C103 C113 1_555 1_555
C109 C112 1_555 1_555
C110 C111 1_555 1_555
C118 C119 1_555 1_555
Zn2C O37C 1_555 1_555
Zn4C O37C 1_555 1_555
Zn5_2 O38_2 1_555 1_555
Zn5C O38C 1_555 1_555
Zn8C O38C 1_555 1_555
Zn8_2 O38_2 1_555 1_555

#END
