
#######################################################################
#
#                 Cambridge Crystallographic Data Centre
#                                CCDC 
#
#######################################################################
#
# If this CIF has been generated from an entry in the Cambridge 
# Structural Database, then it will include bibliographic, chemical, 
# crystal, experimental, refinement or atomic coordinate data resulting 
# from the CCDC's data processing and validation procedures.
#
#######################################################################

data_LAGCED
_chemical_formula_moiety         '(C51 H27 Ag3 N6 O6 Zn1 2+)n'
_symmetry_cell_setting           trigonal
_symmetry_space_group_name_H-M   'P -3'
_symmetry_Int_Tables_number      147
_space_group_name_Hall           '-P 3'
loop_
_symmetry_equiv_pos_site_id
_symmetry_equiv_pos_as_xyz
1 x,y,z
2 -y,x-y,z
3 -x+y,-x,z
4 -x,-y,-z
5 y,-x+y,-z
6 x-y,x,-z
_cell_length_a                   15.733(3)
_cell_length_b                   15.733(3)
_cell_length_c                   16.486(6)
_cell_angle_alpha                90
_cell_angle_beta                 90
_cell_angle_gamma                120
_cell_volume                     3534.02
loop_
_atom_site_label
_atom_site_type_symbol
_atom_site_fract_x
_atom_site_fract_y
_atom_site_fract_z
C1 C 0.8590(3) 0.4017(3) 0.2585(2)
C2 C 0.9060(3) 0.4788(3) 0.2030(2)
H1 H 0.9658 0.5324 0.2181
C3 C 0.8683(3) 0.4806(3) 0.1251(2)
C4 C 0.9337(3) 0.5528(3) 0.0627(2)
C5 C 0.8965(4) 0.5469(4) -0.0137(3)
H2 H 0.8316 0.4997 -0.0240
C6 C 1.0316(5) 0.6248(5) 0.0749(3)
H3 H 1.0603 0.6297 0.1253
C7 C 0.9517(4) 0.6080(5) -0.0751(3)
H4 H 0.9256 0.6000 -0.1270
C8 C 1.0863(5) 0.6883(6) 0.0143(4)
H5 H 1.1511 0.7360 0.0242
C9 C 1.0470(3) 0.6820(3) -0.0592(3)
C10 C 1.1048(3) 0.7452(4) -0.1228(3)
C11 C 0.9136(3) 0.3982(3) 0.3335(2)
C12 C 0.8602(3) 0.3523(3) 0.4030(2)
H6 H 0.7921 0.3226 0.4022
C13 C 1.0155(3) 0.4413(4) 0.3344(3)
H7 H 1.0521 0.4725 0.2884
C14 C 0.9071(3) 0.3505(3) 0.4728(2)
H8 H 0.8714 0.3211 0.5196
C15 C 1.0620(4) 0.4371(4) 0.4051(3)
H9 H 1.1299 0.4644 0.4060
C16 C 1.0090(3) 0.3935(3) 0.4724(2)
C17 C 1.0592(3) 0.3926(3) 0.5461(2)
N1 N 1.0986(3) 0.3933(3) 0.6037(2)
N2 N 1.1525(3) 0.7989(3) -0.1755(2)
O1 O 0.7709(2) 0.3309(2) 0.25319(15)
O2 O 0.7826(2) 0.4238(2) 0.10330(14)
Zn1 Zn 0.6667 0.3333 0.17670(4)
Ag1 Ag 0.85980(3) 0.59163(3) 0.26808(2)
C1A C 0.5983(3) 0.4573(4) 0.2585(2)
C1B C 0.5427(4) 0.1410(3) 0.2585(2)
C2A C 0.5212(3) 0.4272(4) 0.2030(2)
C2B C 0.5728(4) 0.0940(3) 0.2030(2)
H1A H 0.4676 0.4334 0.2181
H1B H 0.5666 0.0342 0.2181
C3A C 0.5194(3) 0.3877(4) 0.1251(2)
C3B C 0.6123(4) 0.1317(3) 0.1251(2)
C4A C 0.4472(3) 0.3809(4) 0.0627(2)
C4B C 0.6191(4) 0.0663(3) 0.0627(2)
C5A C 0.4531(4) 0.3496(6) -0.0137(3)
C5B C 0.6504(6) 0.1035(4) -0.0137(3)
H2A H 0.5003 0.3319 -0.0240
H2B H 0.6681 0.1684 -0.0240
C6A C 0.3752(5) 0.4068(7) 0.0749(3)
C6B C 0.5932(7) -0.0316(5) 0.0749(3)
H3A H 0.3703 0.4306 0.1253
H3B H 0.5694 -0.0603 0.1253
C7A C 0.3920(5) 0.3437(6) -0.0751(3)
C7B C 0.6563(6) 0.0483(4) -0.0751(3)
H4A H 0.4000 0.3256 -0.1270
H4B H 0.6744 0.0744 -0.1270
C8A C 0.3117(6) 0.3980(8) 0.0143(4)
C8B C 0.6020(8) -0.0863(5) 0.0143(4)
H5A H 0.2640 0.4151 0.0242
H5B H 0.5849 -0.1511 0.0242
C9A C 0.3180(3) 0.3650(4) -0.0592(3)
C9B C 0.6350(4) -0.0470(3) -0.0592(3)
C10A C 0.2548(4) 0.3596(5) -0.1228(3)
C10B C 0.6404(5) -0.1048(3) -0.1228(3)
C11A C 0.6018(3) 0.5154(4) 0.3335(2)
C11B C 0.4846(4) 0.0864(3) 0.3335(2)
C12A C 0.6477(3) 0.5079(4) 0.4030(2)
C12B C 0.4921(4) 0.1398(3) 0.4030(2)
H6A H 0.6774 0.4695 0.4022
H6B H 0.5305 0.2079 0.4022
C13A C 0.5587(4) 0.5742(5) 0.3344(3)
C13B C 0.4258(5) -0.0155(3) 0.3344(3)
H7A H 0.5275 0.5796 0.2884
H7B H 0.4204 -0.0521 0.2884
C14A C 0.6495(3) 0.5566(4) 0.4728(2)
C14B C 0.4434(4) 0.0929(3) 0.4728(2)
H8A H 0.6789 0.5503 0.5196
H8B H 0.4497 0.1286 0.5196
C15A C 0.5629(4) 0.6249(6) 0.4051(3)
C15B C 0.3751(6) -0.0620(4) 0.4051(3)
H9A H 0.5356 0.6655 0.4060
H9B H 0.3345 -0.1299 0.4060
C16A C 0.6065(3) 0.6155(4) 0.4724(2)
C16B C 0.3845(4) -0.0090(3) 0.4724(2)
C17A C 0.6074(3) 0.6666(4) 0.5461(2)
C17B C 0.3334(4) -0.0592(3) 0.5461(2)
N1A N 0.6067(3) 0.7053(4) 0.6037(2)
N1B N 0.2947(4) -0.0986(3) 0.6037(2)
N1C N 0.9014(3) 0.6067(3) 0.3963(2)
N1D N 0.3933(3) 0.2947(4) 0.3963(2)
N1E N 0.7053(4) 0.0986(3) 0.3963(2)
N2A N 0.2011(3) 0.3536(4) -0.1755(2)
N2B N 0.6464(4) -0.1525(3) -0.1755(2)
N2D N 0.7989(3) 0.6464(4) 0.1755(2)
N2E N 0.3536(4) 0.1525(3) 0.1755(2)
N2C N 0.8475(3) 0.2011(3) 0.1755(2)
O1A O 0.6691(2) 0.4400(3) 0.25319(15)
O1B O 0.5600(3) 0.2291(2) 0.25319(15)
O2A O 0.5762(2) 0.3588(3) 0.10330(14)
O2B O 0.6412(3) 0.2174(2) 0.10330(14)
Ag1A Ag 0.40837(3) 0.26817(4) 0.26808(2)
Ag1B Ag 0.73183(4) 0.14020(3) 0.26808(2)
Ag1C Ag 1.14020(3) 0.40837(3) 0.73192(2)
Ag1E Ag 1.26817(4) 0.85980(3) -0.26808(2)
Ag1D Ag 0.59163(3) 0.73183(4) 0.73192(2)
Ag1C_2 Ag 0.14020(3) 0.40837(3) -0.26808(2)
Ag1E_2 Ag 0.26817(4) -0.14020(3) 0.73192(2)
Ag1D_2 Ag 0.59163(3) -0.26817(4) -0.26808(2)
loop_
_geom_bond_atom_site_label_1
_geom_bond_atom_site_label_2
_geom_bond_site_symmetry_1
_geom_bond_site_symmetry_2
C1 C2 1_555 1_555
C2 H1 1_555 1_555
C3 C2 1_555 1_555
C4 C3 1_555 1_555
C5 C4 1_555 1_555
H2 C5 1_555 1_555
C6 C4 1_555 1_555
H3 C6 1_555 1_555
C7 C5 1_555 1_555
H4 C7 1_555 1_555
C8 C6 1_555 1_555
H5 C8 1_555 1_555
C9 C7 1_555 1_555
C10 C9 1_555 1_555
C11 C1 1_555 1_555
C12 C11 1_555 1_555
H6 C12 1_555 1_555
C13 C11 1_555 1_555
H7 C13 1_555 1_555
C14 C12 1_555 1_555
H8 C14 1_555 1_555
C15 C13 1_555 1_555
H9 C15 1_555 1_555
C16 C14 1_555 1_555
C17 C16 1_555 1_555
N1 C17 1_555 1_555
N2 C10 1_555 1_555
O1 C1 1_555 1_555
O2 C3 1_555 1_555
Zn1 O1 1_555 1_555
Ag1 C2 1_555 1_555
C1A C2A 1_555 1_555
C1B C2B 1_555 1_555
C2A H1A 1_555 1_555
C2B H1B 1_555 1_555
C3A C2A 1_555 1_555
C3B C2B 1_555 1_555
C4A C3A 1_555 1_555
C4B C3B 1_555 1_555
C5A C4A 1_555 1_555
C5B C4B 1_555 1_555
H2A C5A 1_555 1_555
H2B C5B 1_555 1_555
C6A C4A 1_555 1_555
C6B C4B 1_555 1_555
H3A C6A 1_555 1_555
H3B C6B 1_555 1_555
C7A C5A 1_555 1_555
C7B C5B 1_555 1_555
H4A C7A 1_555 1_555
H4B C7B 1_555 1_555
C8A C6A 1_555 1_555
C8B C6B 1_555 1_555
H5A C8A 1_555 1_555
H5B C8B 1_555 1_555
C9A C7A 1_555 1_555
C9B C7B 1_555 1_555
C10A C9A 1_555 1_555
C10B C9B 1_555 1_555
C11A C1A 1_555 1_555
C11B C1B 1_555 1_555
C12A C11A 1_555 1_555
C12B C11B 1_555 1_555
H6A C12A 1_555 1_555
H6B C12B 1_555 1_555
C13A C11A 1_555 1_555
C13B C11B 1_555 1_555
H7A C13A 1_555 1_555
H7B C13B 1_555 1_555
C14A C12A 1_555 1_555
C14B C12B 1_555 1_555
H8A C14A 1_555 1_555
H8B C14B 1_555 1_555
C15A C13A 1_555 1_555
C15B C13B 1_555 1_555
H9A C15A 1_555 1_555
H9B C15B 1_555 1_555
C16A C14A 1_555 1_555
C16B C14B 1_555 1_555
C17A C16A 1_555 1_555
C17B C16B 1_555 1_555
N1A C17A 1_555 1_555
N1B C17B 1_555 1_555
N1C Ag1 1_555 1_555
N1D Ag1A 1_555 1_555
N1E Ag1B 1_555 1_555
N2A C10A 1_555 1_555
N2B C10B 1_555 1_555
N2D Ag1 1_555 1_555
N2E Ag1A 1_555 1_555
N2C Ag1B 1_555 1_555
O1A Zn1 1_555 1_555
O1B Zn1 1_555 1_555
O2A Zn1 1_555 1_555
O2B Zn1 1_555 1_555
Ag1A C2A 1_555 1_555
Ag1B C2B 1_555 1_555
Ag1C N1 1_555 1_555
Ag1E N2 1_555 1_555
Ag1D N1A 1_555 1_555
Ag1C_2 N2A 1_555 1_555
Ag1E_2 N1B 1_555 1_555
Ag1D_2 N2B 1_555 1_555
C8 C9 1_555 1_555
C15 C16 1_555 1_555
O2 Zn1 1_555 1_555
C1A O1A 1_555 1_555
C1B O1B 1_555 1_555
C3A O2A 1_555 1_555
C3B O2B 1_555 1_555
C8A C9A 1_555 1_555
C8B C9B 1_555 1_555
C15A C16A 1_555 1_555
C15B C16B 1_555 1_555

#END
