
#######################################################################
#
#                 Cambridge Crystallographic Data Centre
#                                CCDC 
#
#######################################################################
#
# If this CIF has been generated from an entry in the Cambridge 
# Structural Database, then it will include bibliographic, chemical, 
# crystal, experimental, refinement or atomic coordinate data resulting 
# from the CCDC's data processing and validation procedures.
#
#######################################################################

data_DEJJIN
_chemical_formula_moiety         'C46 H26 N10 O50 Zn17'
_symmetry_cell_setting           monoclinic
_symmetry_space_group_name_H-M   'C 2/m'
_symmetry_Int_Tables_number      12
_space_group_name_Hall           '-C 2y'
loop_
_symmetry_equiv_pos_site_id
_symmetry_equiv_pos_as_xyz
1 x,y,z
2 -x,y,-z
3 1/2+x,1/2+y,z
4 1/2-x,1/2+y,-z
5 -x,-y,-z
6 x,-y,z
7 1/2-x,1/2-y,-z
8 1/2+x,1/2-y,z
_cell_length_a                   18.7789(11)
_cell_length_b                   17.8270(11)
_cell_length_c                   14.3603(9)
_cell_angle_alpha                90
_cell_angle_beta                 93.827(1)
_cell_angle_gamma                90
_cell_volume                     4796.7
loop_
_atom_site_label
_atom_site_type_symbol
_atom_site_fract_x
_atom_site_fract_y
_atom_site_fract_z
Zn1 Zn 0.5000 0.0000 1.0000
Zn2 Zn 0.33810(4) 0.0000 1.00940(6)
Zn3 Zn 0.40718(3) 0.08895(3) 0.84231(4)
O1 O 0.4115(2) 0.0000 0.9196(3)
O2 O 0.56083(18) 0.08174(18) 0.9220(3)
O3 O 0.48027(17) 0.16686(17) 0.8725(2)
O4 O 0.81646(17) 0.35915(19) 0.8453(2)
O5 O 0.77416(18) 0.41308(19) 0.9716(2)
O6 O 0.5860(3) 0.1251(3) 0.7271(4)
O7 O 0.6836(6) 0.1675(7) 0.6816(7)
O8 O 0.4251(2) 0.06305(19) 0.7139(2)
O9 O 0.5095(18) 0.184(2) 0.601(4)
O10 O 0.4058(12) 0.157(2) 0.567(3)
O11 O 0.3054(4) 0.0000 1.1356(4)
N1 N 0.6373(4) 0.1662(5) 0.7376(5)
N2 N 0.4706(6) 0.1428(11) 0.5739(14)
N3 N 0.2834(13) -0.0000 1.2931(9)
C1 C 0.6005(2) 0.2053(3) 0.8933(3)
C2 C 0.6478(3) 0.2112(4) 0.8238(4)
C3 C 0.7029(3) 0.2633(4) 0.8267(4)
H1 H 0.7348 0.2652 0.7781
C4 C 0.7108(2) 0.3119(3) 0.9007(3)
C5 C 0.6642(3) 0.3071(3) 0.9705(4)
H2 H 0.6691 0.3407 1.0219
C6 C 0.6100(3) 0.2540(3) 0.9669(4)
H3 H 0.5790 0.2513 1.0165
C7 C 0.5433(2) 0.1460(3) 0.8948(3)
C8 C 0.7717(2) 0.3667(3) 0.9067(3)
C9 C 0.4360(4) 0.0000 0.6783(5)
C10 C 0.4671(3) 0.0000 0.5833(5)
C11 C 0.4837(2) 0.0671(3) 0.5414(3)
C12 C 0.3269(9) 0.0000 1.2055(15)
H4 H 0.3774 0.0000 1.2153
C13 C 0.2110(12) -0.0000 1.278(2)
H5 H 0.1928 0.0000 1.3401
H6 H 0.1989 0.0440 1.2465
C14 C 0.3318(12) 0.0000 1.3902(13)
H7 H 0.3012 0.0000 1.4389
H8 H 0.3627 -0.0440 1.3944
Zn2A Zn 0.66190(4) -0.0000 0.99060(6)
Zn2B Zn 0.83810(4) 0.5000 1.00940(6)
Zn2C Zn 0.16190(4) 0.5000 0.99060(6)
Zn2C_2 Zn 0.16190(4) -0.5000 0.99060(6)
Zn2B_2 Zn 0.83810(4) -0.5000 1.00940(6)
Zn3A Zn 0.59282(3) 0.08895(3) 1.15769(4)
Zn3E Zn 0.40718(3) -0.08895(3) 0.84231(4)
Zn3D Zn 0.59282(3) -0.08895(3) 1.15769(4)
Zn3G Zn 0.90718(3) 0.41105(3) 0.84231(4)
Zn3A_2 Zn 0.59282(3) 0.08895(3) 0.15769(4)
Zn3D_2 Zn 0.59282(3) -0.08895(3) 0.15769(4)
Zn3F Zn 0.09282(3) 0.41105(3) 1.15769(4)
Zn3C Zn 0.09282(3) -0.41105(3) 1.15769(4)
Zn3B Zn 0.90718(3) -0.41105(3) 0.84231(4)
O1A O 0.5885(2) 0.0000 1.0804(3)
O2A O 0.43917(18) 0.08174(18) 1.0780(3)
O2D O 0.43917(18) -0.08174(18) 1.0780(3)
O2E O 0.56083(18) -0.08174(18) 0.9220(3)
O3A O 0.51973(17) 0.16686(17) 1.1275(2)
O3D O 0.51973(17) -0.16686(17) 1.1275(2)
O3E O 0.48027(17) -0.16686(17) 0.8725(2)
O4A O 0.18354(17) 0.35915(19) 1.1547(2)
O4D O 0.18354(17) -0.35915(19) 1.1547(2)
O4E O 0.81646(17) -0.35915(19) 0.8453(2)
O4G O 0.31646(17) 0.14085(19) 0.8453(2)
O4F O 0.68354(17) 0.14085(19) 1.1547(2)
O4B O 0.31646(17) -0.14085(19) 0.8453(2)
O4C O 0.68354(17) -0.14085(19) 1.1547(2)
O5A O 0.22584(18) 0.41308(19) 1.0284(2)
O5D O 0.22584(18) -0.41308(19) 1.0284(2)
O5E O 0.77416(18) -0.41308(19) 0.9716(2)
O5B O 0.27416(18) -0.08692(19) 0.9716(2)
O5G O 0.27416(18) 0.08692(19) 0.9716(2)
O5C O 0.72584(18) -0.08692(19) 1.0284(2)
O5F O 0.72584(18) 0.08692(19) 1.0284(2)
O6A O 0.4140(3) 0.1251(3) 1.2729(4)
O6D O 0.4140(3) -0.1251(3) 1.2729(4)
O6E O 0.5860(3) -0.1251(3) 0.7271(4)
O7A O 0.3164(6) 0.1675(7) 1.3184(7)
O7D O 0.3164(6) -0.1675(7) 1.3184(7)
O7E O 0.6836(6) -0.1675(7) 0.6816(7)
O8E O 0.4251(2) -0.06305(19) 0.7139(2)
O8A O 0.5749(2) 0.06305(19) 0.2861(2)
O8D O 0.5749(2) -0.06305(19) 0.2861(2)
O8A_2 O 0.5749(2) 0.06305(19) 1.2861(2)
O8D_2 O 0.5749(2) -0.06305(19) 1.2861(2)
O9A O 0.4905(18) 0.184(2) 0.399(4)
O9D O 0.4905(18) -0.184(2) 0.399(4)
O9E O 0.5095(18) -0.184(2) 0.601(4)
O10A O 0.5942(12) 0.157(2) 0.433(3)
O10D O 0.5942(12) -0.157(2) 0.433(3)
O10E O 0.4058(12) -0.157(2) 0.567(3)
O11A O 0.6946(4) -0.0000 0.8644(4)
N1A N 0.3627(4) 0.1662(5) 1.2624(5)
N1D N 0.3627(4) -0.1662(5) 1.2624(5)
N1E N 0.6373(4) -0.1662(5) 0.7376(5)
N2A N 0.5294(6) 0.1428(11) 0.4261(14)
N2D N 0.5294(6) -0.1428(11) 0.4261(14)
N2E N 0.4706(6) -0.1428(11) 0.5739(14)
N3A N 0.7166(13) -0.0000 0.7069(9)
C1A C 0.3995(2) 0.2053(3) 1.1067(3)
C1D C 0.3995(2) -0.2053(3) 1.1067(3)
C1E C 0.6005(2) -0.2053(3) 0.8933(3)
C2A C 0.3522(3) 0.2112(4) 1.1762(4)
C2D C 0.3522(3) -0.2112(4) 1.1762(4)
C2E C 0.6478(3) -0.2112(4) 0.8238(4)
C3A C 0.2971(3) 0.2633(4) 1.1733(4)
C3D C 0.2971(3) -0.2633(4) 1.1733(4)
C3E C 0.7029(3) -0.2633(4) 0.8267(4)
H1A H 0.2652 0.2652 1.2219
H1D H 0.2652 -0.2652 1.2219
H1E H 0.7348 -0.2652 0.7781
C4A C 0.2892(2) 0.3119(3) 1.0993(3)
C4D C 0.2892(2) -0.3119(3) 1.0993(3)
C4E C 0.7108(2) -0.3119(3) 0.9007(3)
C5A C 0.3358(3) 0.3071(3) 1.0295(4)
C5D C 0.3358(3) -0.3071(3) 1.0295(4)
C5E C 0.6642(3) -0.3071(3) 0.9705(4)
H2A H 0.3309 0.3407 0.9781
H2D H 0.3309 -0.3407 0.9781
H2E H 0.6691 -0.3407 1.0219
C6A C 0.3900(3) 0.2540(3) 1.0331(4)
C6D C 0.3900(3) -0.2540(3) 1.0331(4)
C6E C 0.6100(3) -0.2540(3) 0.9669(4)
H3A H 0.4210 0.2513 0.9835
H3D H 0.4210 -0.2513 0.9835
H3E H 0.5790 -0.2513 1.0165
C7A C 0.4567(2) 0.1460(3) 1.1052(3)
C7D C 0.4567(2) -0.1460(3) 1.1052(3)
C7E C 0.5433(2) -0.1460(3) 0.8948(3)
C8A C 0.2283(2) 0.3667(3) 1.0933(3)
C8D C 0.2283(2) -0.3667(3) 1.0933(3)
C8E C 0.7717(2) -0.3667(3) 0.9067(3)
C9A C 0.5640(4) 0.0000 0.3217(5)
C10A C 0.5329(3) 0.0000 0.4167(5)
C11A C 0.5163(2) 0.0671(3) 0.4586(3)
C11D C 0.5163(2) -0.0671(3) 0.4586(3)
C11E C 0.4837(2) -0.0671(3) 0.5414(3)
C12A C 0.6731(9) -0.0000 0.7945(15)
H4A H 0.6226 -0.0000 0.7847
C13A C 0.7890(12) -0.0000 0.722(2)
H5A H 0.8072 0.0000 0.6599
H6E H 0.1989 -0.0440 1.2465
H6A H 0.8011 0.0440 0.7535
H6D H 0.8011 -0.0440 0.7535
C14A C 0.6682(12) 0.0000 0.6098(13)
H7A H 0.6988 0.0000 0.5611
H8E H 0.3627 0.0440 1.3944
H8A H 0.6373 -0.0440 0.6056
H8D H 0.6373 0.0440 0.6056
loop_
_geom_bond_atom_site_label_1
_geom_bond_atom_site_label_2
_geom_bond_site_symmetry_1
_geom_bond_site_symmetry_2
Zn1 O1 1_555 1_555
Zn2 O1 1_555 1_555
Zn3 O1 1_555 1_555
O1 Zn3E 1_555 1_555
O2 Zn1 1_555 1_555
O3 Zn3 1_555 1_555
O4 C8 1_555 1_555
O5 C8 1_555 1_555
O6 N1 1_555 1_555
O7 N1 1_555 1_555
O8 Zn3 1_555 1_555
O9 N2 1_555 1_555
O10 N2 1_555 1_555
O11 Zn2 1_555 1_555
N1 C2 1_555 1_555
N2 C11 1_555 1_555
N3 C12 1_555 1_555
C1 C2 1_555 1_555
C2 C3 1_555 1_555
C3 H1 1_555 1_555
C4 C3 1_555 1_555
C5 C4 1_555 1_555
H2 C5 1_555 1_555
C6 C1 1_555 1_555
H3 C6 1_555 1_555
C7 O2 1_555 1_555
C8 C4 1_555 1_555
C9 O8 1_555 1_555
C10 C9 1_555 1_555
C11 C10 1_555 1_555
C12 O11 1_555 1_555
H4 C12 1_555 1_555
C13 N3 1_555 1_555
H5 C13 1_555 1_555
H6 C13 1_555 1_555
C14 N3 1_555 1_555
H7 C14 1_555 1_555
H8 C14 1_555 1_555
Zn2A O1A 1_555 1_555
Zn2B O5 1_555 1_555
Zn2C O5A 1_555 1_555
Zn2C_2 O5D 1_555 1_555
Zn2B_2 O5E 1_555 1_555
Zn3A O1A 1_555 1_555
Zn3E O3E 1_555 1_555
Zn3D O1A 1_555 1_555
Zn3G O4 1_555 1_555
Zn3A_2 O8A 1_555 1_555
Zn3D_2 O8D 1_555 1_555
Zn3F O4A 1_555 1_555
Zn3C O4D 1_555 1_555
Zn3B O4E 1_555 1_555
O1A Zn1 1_555 1_555
O2A Zn1 1_555 1_555
O2D Zn1 1_555 1_555
O2E Zn1 1_555 1_555
O3A Zn3A 1_555 1_555
O3D Zn3D 1_555 1_555
O3E C7E 1_555 1_555
O4A C8A 1_555 1_555
O4D C8D 1_555 1_555
O4E C8E 1_555 1_555
O4G Zn3 1_555 1_555
O4F Zn3A 1_555 1_555
O4B Zn3E 1_555 1_555
O4C Zn3D 1_555 1_555
O5A C8A 1_555 1_555
O5D C8D 1_555 1_555
O5E C8E 1_555 1_555
O5B Zn2 1_555 1_555
O5G Zn2 1_555 1_555
O5C Zn2A 1_555 1_555
O5F Zn2A 1_555 1_555
O6A N1A 1_555 1_555
O6D N1D 1_555 1_555
O6E N1E 1_555 1_555
O7A N1A 1_555 1_555
O7D N1D 1_555 1_555
O7E N1E 1_555 1_555
O8E C9 1_555 1_555
O8A C9A 1_555 1_555
O8D C9A 1_555 1_555
O8A_2 Zn3A 1_555 1_555
O8D_2 Zn3D 1_555 1_555
O9A N2A 1_555 1_555
O9D N2D 1_555 1_555
O9E N2E 1_555 1_555
O10A N2A 1_555 1_555
O10D N2D 1_555 1_555
O10E N2E 1_555 1_555
O11A Zn2A 1_555 1_555
N1A C2A 1_555 1_555
N1D C2D 1_555 1_555
N1E C2E 1_555 1_555
N2A C11A 1_555 1_555
N2D C11D 1_555 1_555
N2E C11E 1_555 1_555
N3A C12A 1_555 1_555
C1A C2A 1_555 1_555
C1D C2D 1_555 1_555
C1E C2E 1_555 1_555
C2A C3A 1_555 1_555
C2D C3D 1_555 1_555
C2E C3E 1_555 1_555
C3A H1A 1_555 1_555
C3D H1D 1_555 1_555
C3E H1E 1_555 1_555
C4A C3A 1_555 1_555
C4D C3D 1_555 1_555
C4E C3E 1_555 1_555
C5A C4A 1_555 1_555
C5D C4D 1_555 1_555
C5E C4E 1_555 1_555
H2A C5A 1_555 1_555
H2D C5D 1_555 1_555
H2E C5E 1_555 1_555
C6A C1A 1_555 1_555
C6D C1D 1_555 1_555
C6E C1E 1_555 1_555
H3A C6A 1_555 1_555
H3D C6D 1_555 1_555
H3E C6E 1_555 1_555
C7A O2A 1_555 1_555
C7D O2D 1_555 1_555
C7E O2E 1_555 1_555
C8A C4A 1_555 1_555
C8D C4D 1_555 1_555
C8E C4E 1_555 1_555
C9A C10A 1_555 1_555
C10A C11A 1_555 1_555
C11A C11 1_555 1_555
C11D C10A 1_555 1_555
C11E C10 1_555 1_555
C12A O11A 1_555 1_555
H4A C12A 1_555 1_555
C13A N3A 1_555 1_555
H5A C13A 1_555 1_555
H6E C13 1_555 1_555
H6A C13A 1_555 1_555
H6D C13A 1_555 1_555
C14A N3A 1_555 1_555
H7A C14A 1_555 1_555
H8E C14 1_555 1_555
H8A C14A 1_555 1_555
H8D C14A 1_555 1_555
O3 C7 1_555 1_555
C1 C7 1_555 1_555
C5 C6 1_555 1_555
Zn3E O8E 1_555 1_555
O3A C7A 1_555 1_555
O3D C7D 1_555 1_555
C1A C7A 1_555 1_555
C1D C7D 1_555 1_555
C1E C7E 1_555 1_555
C5A C6A 1_555 1_555
C5D C6D 1_555 1_555
C5E C6E 1_555 1_555
C11D C11E 1_555 1_555

#END
