
#######################################################################
#
#                 Cambridge Crystallographic Data Centre
#                                CCDC 
#
#######################################################################
#
# If this CIF has been generated from an entry in the Cambridge 
# Structural Database, then it will include bibliographic, chemical, 
# crystal, experimental, refinement or atomic coordinate data resulting 
# from the CCDC's data processing and validation procedures.
#
#######################################################################

data_LUNJEL
_chemical_formula_moiety         '(C102 H62 Mn5 N10 O18)n'
_symmetry_cell_setting           monoclinic
_symmetry_space_group_name_H-M   'P 2/c'
_symmetry_Int_Tables_number      13
_space_group_name_Hall           '-P 2yc'
loop_
_symmetry_equiv_pos_site_id
_symmetry_equiv_pos_as_xyz
1 x,y,z
2 -x,y,1/2-z
3 -x,-y,-z
4 x,-y,1/2+z
_cell_length_a                   15.0202(4)
_cell_length_b                   15.3437(4)
_cell_length_c                   27.7891(7)
_cell_angle_alpha                90
_cell_angle_beta                 90.3660(10)
_cell_angle_gamma                90
_cell_volume                     6404.3
loop_
_atom_site_label
_atom_site_type_symbol
_atom_site_fract_x
_atom_site_fract_y
_atom_site_fract_z
Mn1 Mn 0.27110(7) 0.97896(6) 0.00994(4)
Mn2 Mn 0.73029(6) 1.37386(6) -0.25614(3)
Mn3 Mn 0.5000 0.43972(8) -0.2500
O1 O 0.2560(3) 1.5105(3) 0.21453(18)
O2 O 0.3956(3) 1.4699(3) 0.23057(16)
O3 O 0.7112(3) 1.2789(3) -0.19594(16)
O4 O 0.5914(3) 1.3326(3) -0.22911(14)
O5 O 0.3043(3) 0.4381(3) -0.18066(15)
O6 O 0.4524(3) 0.4572(3) -0.17704(15)
O7 O -0.1307(3) 0.6479(3) 0.22639(15)
O8 O -0.2258(3) 0.7429(3) 0.19531(16)
N1 N 0.3434(4) 1.0922(3) 0.01493(19)
N2 N 0.3584(4) 0.9371(3) -0.04135(18)
N3 N 0.2373(3) 0.8497(3) 0.02112(17)
N4 N 0.2221(4) 1.0060(3) 0.07820(19)
C1 C 0.2837(4) 1.1534(5) 0.0904(2)
C2 C 0.3321(5) 1.1569(5) 0.0480(3)
C3 C 0.3778(5) 1.2346(5) 0.0318(3)
H1 H 0.3805 1.2889 0.0481
C4 C 0.4162(5) 1.2151(5) -0.0113(3)
H2 H 0.4509 1.2532 -0.0305
C5 C 0.3943(4) 1.1260(4) -0.0221(2)
C6 C 0.4241(4) 1.0801(4) -0.0620(2)
C7 C 0.4085(5) 0.9915(5) -0.0705(3)
C8 C 0.4425(5) 0.9433(5) -0.1105(3)
H3 H 0.4796 0.9652 -0.1353
C9 C 0.4123(5) 0.8613(5) -0.1064(3)
H4 H 0.4226 0.8149 -0.1283
C10 C 0.3613(4) 0.8565(4) -0.0627(2)
C11 C 0.3172(4) 0.7806(4) -0.0473(2)
C12 C 0.2590(4) 0.7801(4) -0.0078(2)
C13 C 0.2082(5) 0.7035(5) 0.0071(3)
H5 H 0.2115 0.6465 -0.0061
C14 C 0.1543(5) 0.7308(5) 0.0444(3)
H6 H 0.1117 0.6964 0.0610
C15 C 0.1749(4) 0.8210(4) 0.0534(2)
C16 C 0.1369(4) 0.8703(4) 0.0900(2)
C17 C 0.1614(4) 0.9552(4) 0.1026(2)
C18 C 0.1332(5) 1.0003(5) 0.1447(3)
H7 H 0.0910 0.9805 0.1675
C19 C 0.1781(5) 1.0771(5) 0.1461(3)
H8 H 0.1748 1.1196 0.1709
C20 C 0.2315(5) 1.0827(5) 0.1036(2)
C21 C 0.2894(5) 1.2309(4) 0.1234(3)
C22 C 0.3695(5) 1.2494(5) 0.1453(3)
H9 H 0.4184 1.2108 0.1414
C23 C 0.3799(5) 1.3252(5) 0.1736(3)
H10 H 0.4365 1.3392 0.1870
C24 C 0.3085(4) 1.3785(4) 0.1817(2)
C25 C 0.2265(5) 1.3584(5) 0.1614(3)
H11 H 0.1764 1.3946 0.1671
C26 C 0.2181(5) 1.2844(5) 0.1325(3)
H12 H 0.1618 1.2707 0.1187
C27 C 0.3211(5) 1.4610(5) 0.2116(3)
C28 C 0.4752(4) 1.1320(4) -0.0989(2)
C29 C 0.5662(5) 1.1213(5) -0.1023(3)
H13 H 0.5952 1.0789 -0.0829
C30 C 0.6163(5) 1.1717(5) -0.1340(3)
H14 H 0.6792 1.1656 -0.1350
C31 C 0.5733(4) 1.2312(4) -0.1642(2)
C32 C 0.4823(4) 1.2390(4) -0.1626(2)
H15 H 0.4522 1.2772 -0.1841
C33 C 0.4340(5) 1.1900(4) -0.1289(2)
H16 H 0.3713 1.1973 -0.1269
C34 C 0.6290(5) 1.2842(4) -0.1977(2)
C35 C 0.3318(4) 0.6996(4) -0.0743(2)
C36 C 0.2611(5) 0.6597(5) -0.0992(3)
H17 H 0.2026 0.6824 -0.0962
C37 C 0.2759(5) 0.5866(5) -0.1284(3)
H18 H 0.2277 0.5610 -0.1456
C38 C 0.3599(4) 0.5521(4) -0.1321(2)
C39 C 0.4286(5) 0.5892(4) -0.1077(2)
H19 H 0.4870 0.5657 -0.1100
C40 C 0.4125(5) 0.6624(4) -0.0790(2)
H20 H 0.4612 0.6872 -0.0618
C41 C 0.3741(5) 0.4754(4) -0.1660(2)
C42 C 0.0643(4) 0.8292(4) 0.1195(2)
C43 C 0.0831(5) 0.7698(4) 0.1556(2)
H21 H 0.1433 0.7548 0.1624
C44 C 0.0148(4) 0.7318(5) 0.1821(2)
H22 H 0.0277 0.6893 0.2060
C45 C -0.0718(4) 0.7572(4) 0.1730(2)
C46 C -0.0922(5) 0.8181(5) 0.1370(3)
H23 H -0.1520 0.8347 0.1306
C47 C -0.0228(5) 0.8535(5) 0.1110(3)
H24 H -0.0354 0.8955 0.0868
C48 C -0.1466(5) 0.7137(4) 0.1998(2)
O9 O 0.1618(6) 1.0246(7) -0.0405(4)
C49 C 0.1475(7) 0.9659(8) -0.0699(4)
H25 H 0.1902 0.9573 -0.0946
N5 N 0.0776(8) 0.9145(8) -0.0696(5)
C50 C 0.0095(11) 0.9232(15) -0.0334(8)
H26 H -0.0388 0.8820 -0.0402
H27 H -0.0139 0.9828 -0.0338
H28 H 0.0352 0.9106 -0.0017
C51 C 0.0658(15) 0.8472(12) -0.1054(8)
H29 H 0.0094 0.8168 -0.0998
H30 H 0.1151 0.8056 -0.1032
H31 H 0.0649 0.8736 -0.1375
Mn1A Mn 0.72890(7) 0.97896(6) -0.50994(4)
Mn2A Mn 0.26971(6) 1.37386(6) -0.24386(3)
O1A O 0.7440(3) 1.5105(3) -0.71453(18)
O2A O 0.6044(3) 1.4699(3) -0.73057(16)
O3A O 0.2888(3) 1.2789(3) -0.30406(16)
O4A O 0.4086(3) 1.3326(3) -0.27089(14)
O5A O 0.6957(3) 0.4381(3) -0.31934(15)
O6A O 0.5476(3) 0.4572(3) -0.32296(15)
O7A O 1.1307(3) 0.6479(3) -0.72639(15)
O8A O 1.2258(3) 0.7429(3) -0.69531(16)
N1A N 0.6566(4) 1.0922(3) -0.51493(19)
N2A N 0.6416(4) 0.9371(3) -0.45865(18)
N3A N 0.7627(3) 0.8497(3) -0.52112(17)
N4A N 0.7779(4) 1.0060(3) -0.57820(19)
C1A C 0.7163(4) 1.1534(5) -0.5904(2)
C2A C 0.6679(5) 1.1569(5) -0.5480(3)
C3A C 0.6222(5) 1.2346(5) -0.5318(3)
H1A H 0.6195 1.2889 -0.5481
C4A C 0.5838(5) 1.2151(5) -0.4887(3)
H2A H 0.5491 1.2532 -0.4695
C5A C 0.6057(4) 1.1260(4) -0.4779(2)
C6A C 0.5759(4) 1.0801(4) -0.4380(2)
C7A C 0.5915(5) 0.9915(5) -0.4295(3)
C8A C 0.5575(5) 0.9433(5) -0.3895(3)
H3A H 0.5204 0.9652 -0.3647
C9A C 0.5877(5) 0.8613(5) -0.3936(3)
H4A H 0.5774 0.8149 -0.3717
C10A C 0.6387(4) 0.8565(4) -0.4373(2)
C11A C 0.6828(4) 0.7806(4) -0.4527(2)
C12A C 0.7410(4) 0.7801(4) -0.4922(2)
C13A C 0.7918(5) 0.7035(5) -0.5071(3)
H5A H 0.7885 0.6465 -0.4939
C14A C 0.8457(5) 0.7308(5) -0.5444(3)
H6A H 0.8883 0.6964 -0.5610
C15A C 0.8251(4) 0.8210(4) -0.5534(2)
C16A C 0.8631(4) 0.8703(4) -0.5900(2)
C17A C 0.8386(4) 0.9552(4) -0.6026(2)
C18A C 0.8668(5) 1.0003(5) -0.6447(3)
H7A H 0.9090 0.9805 -0.6675
C19A C 0.8219(5) 1.0771(5) -0.6461(3)
H8A H 0.8252 1.1196 -0.6709
C20A C 0.7685(5) 1.0827(5) -0.6036(2)
C21A C 0.7106(5) 1.2309(4) -0.6234(3)
C22A C 0.6305(5) 1.2494(5) -0.6453(3)
H9A H 0.5816 1.2108 -0.6414
C23A C 0.6201(5) 1.3252(5) -0.6736(3)
H10A H 0.5635 1.3392 -0.6870
C24A C 0.6915(4) 1.3785(4) -0.6817(2)
C25A C 0.7735(5) 1.3584(5) -0.6614(3)
H11A H 0.8236 1.3946 -0.6671
C26A C 0.7819(5) 1.2844(5) -0.6325(3)
H12A H 0.8382 1.2707 -0.6187
C27A C 0.6789(5) 1.4610(5) -0.7116(3)
C28A C 0.5248(4) 1.1320(4) -0.4011(2)
C29A C 0.4338(5) 1.1213(5) -0.3977(3)
H13A H 0.4048 1.0789 -0.4171
C30A C 0.3837(5) 1.1717(5) -0.3660(3)
H14A H 0.3208 1.1656 -0.3650
C31A C 0.4267(4) 1.2312(4) -0.3358(2)
C32A C 0.5177(4) 1.2390(4) -0.3374(2)
H15A H 0.5478 1.2772 -0.3159
C33A C 0.5660(5) 1.1900(4) -0.3711(2)
H16A H 0.6287 1.1973 -0.3731
C34A C 0.3710(5) 1.2842(4) -0.3023(2)
C35A C 0.6682(4) 0.6996(4) -0.4257(2)
C36A C 0.7389(5) 0.6597(5) -0.4008(3)
H17A H 0.7974 0.6824 -0.4038
C37A C 0.7241(5) 0.5866(5) -0.3716(3)
H18A H 0.7723 0.5610 -0.3544
C38A C 0.6401(4) 0.5521(4) -0.3679(2)
C39A C 0.5714(5) 0.5892(4) -0.3923(2)
H19A H 0.5130 0.5657 -0.3900
C40A C 0.5875(5) 0.6624(4) -0.4210(2)
H20A H 0.5388 0.6872 -0.4382
C41A C 0.6259(5) 0.4754(4) -0.3340(2)
C42A C 0.9357(4) 0.8292(4) -0.6195(2)
C43A C 0.9169(5) 0.7698(4) -0.6556(2)
H21A H 0.8567 0.7548 -0.6624
C44A C 0.9852(4) 0.7318(5) -0.6821(2)
H22A H 0.9723 0.6893 -0.7060
C45A C 1.0718(4) 0.7572(4) -0.6730(2)
C46A C 1.0922(5) 0.8181(5) -0.6370(3)
H23A H 1.1520 0.8347 -0.6306
C47A C 1.0228(5) 0.8535(5) -0.6110(3)
H24A H 1.0354 0.8955 -0.5868
C48A C 1.1466(5) 0.7137(4) -0.6998(2)
O9A O 0.8382(6) 1.0246(7) -0.4595(4)
C49A C 0.8525(7) 0.9659(8) -0.4301(4)
H25A H 0.8098 0.9573 -0.4054
N5A N 0.9224(8) 0.9145(8) -0.4304(5)
C50A C 0.9905(11) 0.9232(15) -0.4666(8)
H26A H 1.0388 0.8820 -0.4598
H27A H 1.0139 0.9828 -0.4662
H28A H 0.9648 0.9106 -0.4983
C51A C 0.9342(15) 0.8472(12) -0.3946(8)
H29A H 0.9906 0.8168 -0.4002
H30A H 0.8849 0.8056 -0.3968
H31A H 0.9351 0.8736 -0.3625
Mn2_2 Mn 0.73029(6) 0.37386(6) -0.25614(3)
Mn2A_2 Mn 0.26971(6) 0.37386(6) -0.24386(3)
Mn2B Mn 0.26971(6) 1.62614(6) 0.25614(3)
Mn2B_2 Mn 1.26971(6) 0.62614(6) -0.74386(3)
Mn2C Mn -0.26971(6) 0.62614(6) 0.24386(3)
Mn2C_2 Mn 0.73029(6) 1.62614(6) -0.75614(3)
Mn3_2 Mn 0.5000 1.43972(8) -0.2500
Mn3B Mn 0.5000 1.56028(8) -0.7500
Mn3B_2 Mn 0.5000 1.56028(8) 0.2500
O1B O 0.7440(3) 1.4895(3) -0.21453(18)
O1C O 0.2560(3) 1.4895(3) -0.28547(18)
O2B O 0.6044(3) 0.5301(3) -0.23057(16)
O2C O 0.3956(3) 0.5301(3) -0.26943(16)
O4_2 O 0.5914(3) 0.3326(3) -0.22911(14)
O4A_2 O 0.4086(3) 0.3326(3) -0.27089(14)
O5_2 O 0.3043(3) 1.4381(3) -0.18066(15)
O5A_2 O 0.6957(3) 1.4381(3) -0.31934(15)
O7B O 0.1307(3) 1.3521(3) -0.22639(15)
O7C O 0.8693(3) 1.3521(3) -0.27361(15)
O8B O 0.2258(3) 1.2571(3) -0.19531(16)
O8C O 0.7742(3) 1.2571(3) -0.30469(16)
loop_
_geom_bond_atom_site_label_1
_geom_bond_atom_site_label_2
_geom_bond_site_symmetry_1
_geom_bond_site_symmetry_2
Mn1 N1 1_555 1_555
Mn2 O3 1_555 1_555
Mn3 O6 1_555 1_555
O1 C27 1_555 1_555
O2 C27 1_555 1_555
O3 C34 1_555 1_555
O4 Mn2 1_555 1_555
O5 C41 1_555 1_555
O6 C41 1_555 1_555
O7 C48 1_555 1_555
O8 C48 1_555 1_555
N1 C2 1_555 1_555
N2 Mn1 1_555 1_555
N3 Mn1 1_555 1_555
N4 Mn1 1_555 1_555
C1 C2 1_555 1_555
C2 C3 1_555 1_555
C3 H1 1_555 1_555
C4 C3 1_555 1_555
H2 C4 1_555 1_555
C5 N1 1_555 1_555
C6 C5 1_555 1_555
C7 N2 1_555 1_555
C8 C7 1_555 1_555
H3 C8 1_555 1_555
C9 C8 1_555 1_555
H4 C9 1_555 1_555
C10 N2 1_555 1_555
C11 C10 1_555 1_555
C12 N3 1_555 1_555
C13 C12 1_555 1_555
H5 C13 1_555 1_555
C14 C13 1_555 1_555
H6 C14 1_555 1_555
C15 N3 1_555 1_555
C16 C15 1_555 1_555
C17 N4 1_555 1_555
C18 C17 1_555 1_555
H7 C18 1_555 1_555
C19 C18 1_555 1_555
H8 C19 1_555 1_555
C20 N4 1_555 1_555
C21 C1 1_555 1_555
C22 C21 1_555 1_555
H9 C22 1_555 1_555
C23 C22 1_555 1_555
H10 C23 1_555 1_555
C24 C23 1_555 1_555
C25 C24 1_555 1_555
H11 C25 1_555 1_555
C26 C21 1_555 1_555
H12 C26 1_555 1_555
C27 C24 1_555 1_555
C28 C6 1_555 1_555
C29 C28 1_555 1_555
H13 C29 1_555 1_555
C30 C29 1_555 1_555
H14 C30 1_555 1_555
C31 C30 1_555 1_555
C32 C31 1_555 1_555
H15 C32 1_555 1_555
C33 C28 1_555 1_555
H16 C33 1_555 1_555
C34 O4 1_555 1_555
C35 C11 1_555 1_555
C36 C35 1_555 1_555
H17 C36 1_555 1_555
C37 C36 1_555 1_555
H18 C37 1_555 1_555
C38 C37 1_555 1_555
C39 C38 1_555 1_555
H19 C39 1_555 1_555
C40 C35 1_555 1_555
H20 C40 1_555 1_555
C41 C38 1_555 1_555
C42 C16 1_555 1_555
C43 C42 1_555 1_555
H21 C43 1_555 1_555
C44 C43 1_555 1_555
H22 C44 1_555 1_555
C45 C44 1_555 1_555
C46 C45 1_555 1_555
H23 C46 1_555 1_555
C47 C42 1_555 1_555
H24 C47 1_555 1_555
C48 C45 1_555 1_555
O9 Mn1 1_555 1_555
C49 O9 1_555 1_555
H25 C49 1_555 1_555
N5 C49 1_555 1_555
C50 N5 1_555 1_555
H26 C50 1_555 1_555
H27 C50 1_555 1_555
H28 C50 1_555 1_555
C51 N5 1_555 1_555
H29 C51 1_555 1_555
H30 C51 1_555 1_555
H31 C51 1_555 1_555
Mn1A N1A 1_555 1_555
Mn2A O3A 1_555 1_555
O1A C27A 1_555 1_555
O2A C27A 1_555 1_555
O3A C34A 1_555 1_555
O4A Mn2A 1_555 1_555
O5A C41A 1_555 1_555
O6A Mn3 1_555 1_555
O7A C48A 1_555 1_555
O8A C48A 1_555 1_555
N1A C2A 1_555 1_555
N2A Mn1A 1_555 1_555
N3A Mn1A 1_555 1_555
N4A Mn1A 1_555 1_555
C1A C2A 1_555 1_555
C2A C3A 1_555 1_555
C3A H1A 1_555 1_555
C4A C3A 1_555 1_555
H2A C4A 1_555 1_555
C5A N1A 1_555 1_555
C6A C5A 1_555 1_555
C7A N2A 1_555 1_555
C8A C7A 1_555 1_555
H3A C8A 1_555 1_555
C9A C8A 1_555 1_555
H4A C9A 1_555 1_555
C10A N2A 1_555 1_555
C11A C10A 1_555 1_555
C12A N3A 1_555 1_555
C13A C12A 1_555 1_555
H5A C13A 1_555 1_555
C14A C13A 1_555 1_555
H6A C14A 1_555 1_555
C15A N3A 1_555 1_555
C16A C15A 1_555 1_555
C17A N4A 1_555 1_555
C18A C17A 1_555 1_555
H7A C18A 1_555 1_555
C19A C18A 1_555 1_555
H8A C19A 1_555 1_555
C20A N4A 1_555 1_555
C21A C1A 1_555 1_555
C22A C21A 1_555 1_555
H9A C22A 1_555 1_555
C23A C22A 1_555 1_555
H10A C23A 1_555 1_555
C24A C23A 1_555 1_555
C25A C24A 1_555 1_555
H11A C25A 1_555 1_555
C26A C21A 1_555 1_555
H12A C26A 1_555 1_555
C27A C24A 1_555 1_555
C28A C6A 1_555 1_555
C29A C28A 1_555 1_555
H13A C29A 1_555 1_555
C30A C29A 1_555 1_555
H14A C30A 1_555 1_555
C31A C30A 1_555 1_555
C32A C31A 1_555 1_555
H15A C32A 1_555 1_555
C33A C28A 1_555 1_555
H16A C33A 1_555 1_555
C34A O4A 1_555 1_555
C35A C11A 1_555 1_555
C36A C35A 1_555 1_555
H17A C36A 1_555 1_555
C37A C36A 1_555 1_555
H18A C37A 1_555 1_555
C38A C37A 1_555 1_555
C39A C38A 1_555 1_555
H19A C39A 1_555 1_555
C40A C35A 1_555 1_555
H20A C40A 1_555 1_555
C41A O6A 1_555 1_555
C42A C16A 1_555 1_555
C43A C42A 1_555 1_555
H21A C43A 1_555 1_555
C44A C43A 1_555 1_555
H22A C44A 1_555 1_555
C45A C44A 1_555 1_555
C46A C45A 1_555 1_555
H23A C46A 1_555 1_555
C47A C42A 1_555 1_555
H24A C47A 1_555 1_555
C48A C45A 1_555 1_555
O9A Mn1A 1_555 1_555
C49A O9A 1_555 1_555
H25A C49A 1_555 1_555
N5A C49A 1_555 1_555
C50A N5A 1_555 1_555
H26A C50A 1_555 1_555
H27A C50A 1_555 1_555
H28A C50A 1_555 1_555
C51A N5A 1_555 1_555
H29A C51A 1_555 1_555
H30A C51A 1_555 1_555
H31A C51A 1_555 1_555
Mn2_2 O5A 1_555 1_555
Mn2A_2 O5 1_555 1_555
Mn2B O1 1_555 1_555
Mn2B_2 O7A 1_555 1_555
Mn2C O7 1_555 1_555
Mn2C_2 O1A 1_555 1_555
Mn3_2 O4 1_555 1_555
Mn3B O2A 1_555 1_555
Mn3B_2 O2 1_555 1_555
O1B Mn2 1_555 1_555
O1C Mn2A 1_555 1_555
O2B Mn3 1_555 1_555
O2C Mn3 1_555 1_555
O4_2 Mn3 1_555 1_555
O4A_2 Mn3 1_555 1_555
O5_2 Mn2A 1_555 1_555
O5A_2 Mn2 1_555 1_555
O7B Mn2A 1_555 1_555
O7C Mn2 1_555 1_555
O8B Mn2A 1_555 1_555
O8C Mn2 1_555 1_555
O8 Mn2C 1_555 1_555
C1 C20 1_555 1_555
C4 C5 1_555 1_555
C6 C7 1_555 1_555
C9 C10 1_555 1_555
C11 C12 1_555 1_555
C14 C15 1_555 1_555
C16 C17 1_555 1_555
C19 C20 1_555 1_555
C25 C26 1_555 1_555
C31 C34 1_555 1_555
C32 C33 1_555 1_555
C39 C40 1_555 1_555
C46 C47 1_555 1_555
O4A Mn3_2 1_555 1_555
O8A Mn2B_2 1_555 1_555
C1A C20A 1_555 1_555
C4A C5A 1_555 1_555
C6A C7A 1_555 1_555
C9A C10A 1_555 1_555
C11A C12A 1_555 1_555
C14A C15A 1_555 1_555
C16A C17A 1_555 1_555
C19A C20A 1_555 1_555
C25A C26A 1_555 1_555
C31A C34A 1_555 1_555
C32A C33A 1_555 1_555
C38A C41A 1_555 1_555
C39A C40A 1_555 1_555
C46A C47A 1_555 1_555
Mn2_2 O4_2 1_555 1_555
Mn2A_2 O4A_2 1_555 1_555

#END
