
#######################################################################
#
#                 Cambridge Crystallographic Data Centre
#                                CCDC 
#
#######################################################################
#
# If this CIF has been generated from an entry in the Cambridge 
# Structural Database, then it will include bibliographic, chemical, 
# crystal, experimental, refinement or atomic coordinate data resulting 
# from the CCDC's data processing and validation procedures.
#
#######################################################################

data_ILAXEA
_chemical_formula_moiety         '(C36 H36 Cu1 N13 O9 1+)n'
_symmetry_cell_setting           tetragonal
_symmetry_space_group_name_H-M   'I 41/a'
_symmetry_Int_Tables_number      88
_space_group_name_Hall           '-I 4ad'
loop_
_symmetry_equiv_pos_site_id
_symmetry_equiv_pos_as_xyz
1 x,y,z
2 1/2-x,-y,1/2+z
3 3/4-y,1/4+x,1/4+z
4 3/4+y,3/4-x,3/4+z
5 1/2+x,1/2+y,1/2+z
6 -x,1/2-y,z
7 1/4-y,3/4+x,3/4+z
8 1/4+y,1/4-x,1/4+z
9 -x,-y,-z
10 1/2+x,y,1/2-z
11 1/4+y,3/4-x,3/4-z
12 1/4-y,1/4+x,1/4-z
13 1/2-x,1/2-y,1/2-z
14 x,1/2+y,-z
15 3/4+y,1/4-x,1/4-z
16 3/4-y,3/4+x,3/4-z
_cell_length_a                   14.08450(19)
_cell_length_b                   14.08450(19)
_cell_length_c                   44.2036(10)
_cell_angle_alpha                90
_cell_angle_beta                 90
_cell_angle_gamma                90
_cell_volume                     8768.81
loop_
_atom_site_label
_atom_site_type_symbol
_atom_site_fract_x
_atom_site_fract_y
_atom_site_fract_z
Cu1 Cu 0.5000 0.2500 0.17191(2)
O1 O 0.36811(11) 0.35713(11) 0.16996(3)
H1 H 0.3610 0.3808 0.1516
H2 H 0.3764 0.4049 0.1826
N1 N 0.61789(12) 0.40450(12) 0.24249(4)
N2 N 0.69881(13) 0.37295(15) 0.22902(4)
N3 N 0.57102(12) 0.32172(12) 0.20410(3)
N4 N 0.63184(11) 0.61952(12) 0.34950(4)
N5 N 0.71271(12) 0.64707(14) 0.36414(4)
N6 N 0.58262(11) 0.69003(12) 0.39003(3)
C1 C 0.66684(15) 0.32415(17) 0.20596(5)
H3 H 0.7064 0.2939 0.1921
C2 C 0.54273(14) 0.37301(15) 0.22747(4)
H4 H 0.4798 0.3851 0.2326
C3 C 0.62215(13) 0.46067(14) 0.26965(4)
C4 C 0.62450(14) 0.55967(15) 0.26704(4)
C5 C 0.62099(16) 0.60843(16) 0.23881(5)
H5 H 0.6178 0.5740 0.2209
C6 C 0.6223(2) 0.70483(18) 0.23790(5)
H6 H 0.6198 0.7358 0.2193
C7 C 0.6273(2) 0.75895(17) 0.26501(6)
H7 H 0.6280 0.8249 0.2640
C8 C 0.63100(16) 0.71560(16) 0.29235(5)
H8 H 0.6345 0.7519 0.3099
C9 C 0.62961(14) 0.61448(14) 0.29437(4)
C10 C 0.63318(13) 0.56576(14) 0.32178(4)
C11 C 0.63318(13) 0.46694(15) 0.32431(4)
C12 C 0.63944(14) 0.41883(15) 0.35256(4)
H9 H 0.6462 0.4537 0.3703
C13 C 0.63560(15) 0.32250(16) 0.35385(5)
H10 H 0.6404 0.2920 0.3724
C14 C 0.62430(15) 0.26821(15) 0.32715(5)
H11 H 0.6194 0.2025 0.3285
C15 C 0.62053(14) 0.31100(15) 0.29966(5)
H12 H 0.6145 0.2742 0.2823
C16 C 0.62579(13) 0.41206(14) 0.29717(4)
C17 C 0.67945(14) 0.68918(16) 0.38835(5)
H13 H 0.7183 0.7161 0.4031
C18 C 0.55556(14) 0.64521(14) 0.36512(4)
H14 H 0.4930 0.6336 0.3595
O1E O 0.63189(11) 0.14287(11) 0.16996(3)
H1E H 0.6390 0.1192 0.1516
H2E H 0.6236 0.0951 0.1826
N1E N 0.38211(12) 0.09550(12) 0.24249(4)
N2E N 0.30119(13) 0.12705(15) 0.22902(4)
N3E N 0.42898(12) 0.17828(12) 0.20410(3)
N4E N 0.36816(11) -0.11952(12) 0.34950(4)
N5E N 0.28729(12) -0.14707(14) 0.36414(4)
N6E N 0.41738(11) -0.19003(12) 0.39003(3)
C1E C 0.33316(15) 0.17585(17) 0.20596(5)
H3E H 0.2936 0.2061 0.1921
C2E C 0.45727(14) 0.12699(15) 0.22747(4)
H4E H 0.5202 0.1149 0.2326
C3E C 0.37785(13) 0.03933(14) 0.26965(4)
C4E C 0.37550(14) -0.05967(15) 0.26704(4)
C5E C 0.37901(16) -0.10843(16) 0.23881(5)
H5E H 0.3822 -0.0740 0.2209
C6E C 0.3777(2) -0.20483(18) 0.23790(5)
H6E H 0.3802 -0.2358 0.2193
C7E C 0.3727(2) -0.25895(17) 0.26501(6)
H7E H 0.3720 -0.3249 0.2640
C8E C 0.36900(16) -0.21560(16) 0.29235(5)
H8E H 0.3655 -0.2519 0.3099
C9E C 0.37039(14) -0.11448(14) 0.29437(4)
C10E C 0.36682(13) -0.06576(14) 0.32178(4)
C11E C 0.36682(13) 0.03306(15) 0.32431(4)
C12E C 0.36056(14) 0.08117(15) 0.35256(4)
H9E H 0.3538 0.0463 0.3703
C13E C 0.36440(15) 0.17750(16) 0.35385(5)
H10E H 0.3596 0.2080 0.3724
C14E C 0.37570(15) 0.23179(15) 0.32715(5)
H11E H 0.3806 0.2975 0.3285
C15E C 0.37947(14) 0.18900(15) 0.29966(5)
H12E H 0.3855 0.2258 0.2823
C16E C 0.37421(13) 0.08794(14) 0.29717(4)
C17E C 0.32055(14) -0.18918(16) 0.38835(5)
H13E H 0.2817 -0.2161 0.4031
C18E C 0.44444(14) -0.14521(14) 0.36512(4)
H14E H 0.5070 -0.1336 0.3595
Cu1B Cu 0.5000 -0.2500 0.42191(2)
Cu1B_2 Cu 0.5000 0.7500 0.42191(2)
N6C N 0.44003(12) 0.16738(11) 0.14003(3)
N6F N 0.55997(12) 0.33262(11) 0.14003(3)
O2 O 0.40681(14) 0.52145(19) 0.32783(5)
O3 O 0.32575(14) 0.61164(14) 0.35703(4)
O4 O 0.25507(15) 0.5155(2) 0.32703(5)
N7 N 0.32931(15) 0.54949(17) 0.33704(5)
O5 O 0.3641(2) 0.51131(15) 0.20652(5)
H15 H 0.3850 0.5598 0.1972
H16 H 0.3689 0.5200 0.2255
O6 O 0.60209(17) 0.64774(16) 0.15485(6)
H17 H 0.6515 0.6154 0.1589
H18 H 0.6145 0.7066 0.1568
O7 O 0.40632(17) 0.65372(16) 0.16587(5)
H19 H 0.3719 0.6328 0.1515
H20 H 0.4639 0.6389 0.1626
O8 O 0.38313(12) 0.46094(15) 0.26704(4)
H21 H 0.3310 0.4305 0.2671
H22 H 0.3953 0.4804 0.2848
loop_
_geom_bond_atom_site_label_1
_geom_bond_atom_site_label_2
_geom_bond_site_symmetry_1
_geom_bond_site_symmetry_2
Cu1 O1 1_555 1_555
O1 H1 1_555 1_555
H2 O1 1_555 1_555
N1 N2 1_555 1_555
N2 C1 1_555 1_555
N3 Cu1 1_555 1_555
N4 N5 1_555 1_555
N5 C17 1_555 1_555
N6 C17 1_555 1_555
C1 N3 1_555 1_555
H3 C1 1_555 1_555
C2 N1 1_555 1_555
H4 C2 1_555 1_555
C3 N1 1_555 1_555
C4 C3 1_555 1_555
C5 C4 1_555 1_555
H5 C5 1_555 1_555
C6 C5 1_555 1_555
H6 C6 1_555 1_555
C7 C6 1_555 1_555
H7 C7 1_555 1_555
C8 C7 1_555 1_555
H8 C8 1_555 1_555
C9 C4 1_555 1_555
C10 N4 1_555 1_555
C11 C10 1_555 1_555
C12 C11 1_555 1_555
H9 C12 1_555 1_555
C13 C12 1_555 1_555
H10 C13 1_555 1_555
C14 C13 1_555 1_555
H11 C14 1_555 1_555
C15 C14 1_555 1_555
H12 C15 1_555 1_555
C16 C3 1_555 1_555
C17 H13 1_555 1_555
C18 N4 1_555 1_555
H14 C18 1_555 1_555
O2 N7 1_555 1_555
O3 N7 1_555 1_555
O4 N7 1_555 1_555
O5 H15 1_555 1_555
H16 O5 1_555 1_555
O6 H17 1_555 1_555
H18 O6 1_555 1_555
O7 H19 1_555 1_555
H20 O7 1_555 1_555
O8 H21 1_555 1_555
H22 O8 1_555 1_555
O1E Cu1 1_555 1_555
H1E O1E 1_555 1_555
H2E O1E 1_555 1_555
N1E N2E 1_555 1_555
N2E C1E 1_555 1_555
N3E Cu1 1_555 1_555
N4E N5E 1_555 1_555
N5E C17E 1_555 1_555
N6E C17E 1_555 1_555
C1E N3E 1_555 1_555
H3E C1E 1_555 1_555
C2E N1E 1_555 1_555
H4E C2E 1_555 1_555
C3E N1E 1_555 1_555
C4E C3E 1_555 1_555
C5E C4E 1_555 1_555
H5E C5E 1_555 1_555
C6E C5E 1_555 1_555
H6E C6E 1_555 1_555
C7E C6E 1_555 1_555
H7E C7E 1_555 1_555
C8E C7E 1_555 1_555
H8E C8E 1_555 1_555
C9E C4E 1_555 1_555
C10E N4E 1_555 1_555
C11E C10E 1_555 1_555
C12E C11E 1_555 1_555
H9E C12E 1_555 1_555
C13E C12E 1_555 1_555
H10E C13E 1_555 1_555
C14E C13E 1_555 1_555
H11E C14E 1_555 1_555
C15E C14E 1_555 1_555
H12E C15E 1_555 1_555
C16E C3E 1_555 1_555
C17E H13E 1_555 1_555
C18E N4E 1_555 1_555
H14E C18E 1_555 1_555
Cu1B N6E 1_555 1_555
Cu1B_2 N6 1_555 1_555
N6C Cu1 1_555 1_555
N6F Cu1 1_555 1_555
N3 C2 1_555 1_555
N6 C18 1_555 1_555
C8 C9 1_555 1_555
C9 C10 1_555 1_555
C11 C16 1_555 1_555
C15 C16 1_555 1_555
N3E C2E 1_555 1_555
N6E C18E 1_555 1_555
C8E C9E 1_555 1_555
C9E C10E 1_555 1_555
C11E C16E 1_555 1_555
C15E C16E 1_555 1_555

#END
