
#######################################################################
#
#                 Cambridge Crystallographic Data Centre
#                                CCDC 
#
#######################################################################
#
# If this CIF has been generated from an entry in the Cambridge 
# Structural Database, then it will include bibliographic, chemical, 
# crystal, experimental, refinement or atomic coordinate data resulting 
# from the CCDC's data processing and validation procedures.
#
#######################################################################

data_ILAXIE
_chemical_formula_moiety         '(C78 H72 Cu2 N28 O13 2+)n'
_symmetry_cell_setting           triclinic
_symmetry_space_group_name_H-M   'P -1'
_symmetry_Int_Tables_number      2
_space_group_name_Hall           '-P 1'
loop_
_symmetry_equiv_pos_site_id
_symmetry_equiv_pos_as_xyz
1 x,y,z
2 -x,-y,-z
_cell_length_a                   12.5757(9)
_cell_length_b                   13.4705(10)
_cell_length_c                   14.2408(11)
_cell_angle_alpha                99.6410(10)
_cell_angle_beta                 95.823(2)
_cell_angle_gamma                117.2450(10)
_cell_volume                     2070.35
loop_
_atom_site_label
_atom_site_type_symbol
_atom_site_fract_x
_atom_site_fract_y
_atom_site_fract_z
C1 C 0.5577(3) 0.4615(3) 0.9325(2)
Cu1 Cu 1.0000 0.5000 0.5000
Cu2 Cu 0.5000 1.0000 1.0000
O1 O 0.7037(2) 1.1337(2) 1.0193(2)
N1 N 0.8736(3) 1.2841(3) 0.9966(3)
C2 C 0.8058(3) 1.2095(3) 1.0446(3)
H1 H 0.8449 1.2182 1.1084
C3 C 0.8242(7) 1.2797(7) 0.8984(4)
H2 H 0.7404 1.2157 0.8775
H3 H 0.8748 1.2684 0.8543
H4 H 0.8240 1.3522 0.8971
C4 C 0.9994(4) 1.3719(5) 1.0428(5)
H5 H 1.0235 1.3558 1.1036
H6 H 1.0046 1.4479 1.0566
H7 H 1.0542 1.3706 0.9989
O2 O 0.9050(2) 0.39050(19) 0.34102(16)
H8 H 0.8524 0.3956 0.3027
H9 H 0.8977 0.3241 0.3211
N2 N 0.9125(2) 0.59262(19) 0.49309(17)
N3 N 0.8256(2) 0.6931(2) 0.44308(18)
N4 N 0.8172(2) 0.6865(2) 0.53693(17)
N5 N 0.5616(2) 0.86833(19) 0.74203(17)
N6 N 0.4471(2) 0.8479(2) 0.70288(18)
N7 N 0.5015(2) 0.93671(19) 0.86154(17)
N8 N 0.5479(2) 0.8881(2) 1.04052(17)
N9 N 0.5520(2) 0.7302(2) 1.04195(18)
N10 N 0.6545(3) 0.8135(2) 1.1068(2)
N11 N 1.1384(2) 0.61746(18) 0.44910(17)
N12 N 1.2316(2) 0.7302(2) 0.35061(17)
N13 N 1.2923(2) 0.77759(19) 0.44478(17)
C5 C 0.8844(3) 0.6366(2) 0.4204(2)
H10 H 0.9057 0.6270 0.3587
C6 C 0.8692(3) 0.6267(2) 0.5652(2)
H11 H 0.8744 0.6110 0.6276
C7 C 0.8004(3) 0.8530(2) 0.6141(2)
C8 C 0.9153(3) 0.9305(2) 0.5954(2)
H12 H 0.9608 0.9010 0.5626
C9 C 0.9599(3) 1.0457(3) 0.6241(2)
H13 H 1.0380 1.0963 0.6136
C10 C 0.8913(3) 1.0920(3) 0.6696(2)
H14 H 0.9229 1.1730 0.6878
C11 C 0.7811(3) 1.0211(2) 0.6871(2)
H15 H 0.7351 1.0528 0.7161
C12 C 0.7333(2) 0.8998(2) 0.6628(2)
C13 C 0.6258(2) 0.8228(2) 0.6876(2)
C14 C 0.5820(2) 0.7047(2) 0.6690(2)
C15 C 0.4789(3) 0.6293(3) 0.7030(2)
H16 H 0.4365 0.6598 0.7391
C16 C 0.4404(3) 0.5149(3) 0.6844(2)
H17 H 0.3731 0.4662 0.7092
C17 C 0.5001(3) 0.4673(3) 0.6281(2)
H18 H 0.4702 0.3865 0.6130
C18 C 0.5993(3) 0.5360(2) 0.5955(2)
H19 H 0.6382 0.5025 0.5580
C19 C 0.6467(3) 0.6577(2) 0.6165(2)
C20 C 0.7525(3) 0.7338(2) 0.5897(2)
C21 C 0.5917(3) 0.9199(2) 0.8358(2)
H20 H 0.6662 0.9416 0.8781
C22 C 0.4154(3) 0.8906(3) 0.7779(2)
H21 H 0.3389 0.8894 0.7742
C23 C 0.4898(3) 0.7753(2) 1.0032(2)
H22 H 0.4155 0.7337 0.9562
C24 C 0.6478(3) 0.9067(3) 1.1033(2)
H23 H 0.7074 0.9809 1.1411
C25 C 0.5260(3) 0.6126(2) 1.0209(2)
C26 C 0.5850(3) 0.5792(3) 0.9553(2)
C27 C 0.6724(3) 0.6572(3) 0.9100(2)
H24 H 0.6912 0.7357 0.9238
C28 C 0.7285(3) 0.6207(3) 0.8480(2)
H25 H 0.7872 0.6736 0.8190
C29 C 0.7001(3) 0.5035(3) 0.8258(2)
H26 H 0.7404 0.4791 0.7820
C30 C 0.6173(3) 0.4263(3) 0.8654(2)
H27 H 0.5986 0.3480 0.8484
C31 C 1.3993(2) 0.8923(2) 0.47361(19)
C32 C 1.5031(2) 0.9059(2) 0.4392(2)
C33 C 1.5121(3) 0.8156(2) 0.3789(2)
H28 H 1.4434 0.7405 0.3603
C34 C 1.6166(3) 0.8343(2) 0.3474(2)
H29 H 1.6201 0.7725 0.3072
C35 C 1.7206(3) 0.9457(2) 0.3741(2)
H30 H 1.7927 0.9580 0.3507
C36 C 1.7180(2) 1.0346(2) 0.4326(2)
H31 H 1.7891 1.1080 0.4509
C37 C 1.6103(2) 1.0198(2) 0.46716(19)
C38 C 1.1396(2) 0.6335(2) 0.3571(2)
H32 H 1.0789 0.5793 0.3023
C39 C 1.2376(2) 0.7107(2) 0.5027(2)
H33 H 1.2647 0.7267 0.5709
C1A C 0.4423(3) 0.5385(3) 1.0675(2)
N8A N 0.4521(2) 0.1119(2) 0.95948(17)
N9A N 0.4480(2) 0.2698(2) 0.95805(18)
N10A N 0.3455(3) 0.1865(2) 0.8932(2)
C23A C 0.5102(3) 0.2247(2) 0.9968(2)
H22A H 0.5845 0.2663 1.0438
C24A C 0.3522(3) 0.0933(3) 0.8967(2)
H23A H 0.2926 0.0191 0.8589
C25A C 0.4740(3) 0.3874(2) 0.9791(2)
C26A C 0.4150(3) 0.4208(3) 1.0447(2)
C27A C 0.3276(3) 0.3428(3) 1.0900(2)
H24A H 0.3088 0.2643 1.0762
C28A C 0.2715(3) 0.3793(3) 1.1520(2)
H25A H 0.2128 0.3264 1.1810
C29A C 0.2999(3) 0.4965(3) 1.1742(2)
H26A H 0.2596 0.5209 1.2180
C30A C 0.3827(3) 0.5737(3) 1.1346(2)
H27A H 0.4014 0.6520 1.1516
N11A N 1.8616(2) 1.38254(18) 0.55090(17)
N12A N 1.7684(2) 1.2698(2) 0.64939(17)
N13A N 1.7077(2) 1.22241(19) 0.55522(17)
C31A C 1.6007(2) 1.1077(2) 0.52639(19)
C32A C 1.4969(2) 1.0941(2) 0.5608(2)
C33A C 1.4879(3) 1.1844(2) 0.6211(2)
H28A H 1.5566 1.2595 0.6397
C34A C 1.3834(3) 1.1657(2) 0.6526(2)
H29A H 1.3799 1.2275 0.6928
C35A C 1.2794(3) 1.0543(2) 0.6259(2)
H30A H 1.2073 1.0420 0.6493
C36A C 1.2820(2) 0.9654(2) 0.5674(2)
H31A H 1.2109 0.8920 0.5491
C37A C 1.3897(2) 0.9802(2) 0.53284(19)
C38A C 1.8604(2) 1.3665(2) 0.6429(2)
H32A H 1.9211 1.4207 0.6977
C39A C 1.7624(2) 1.2893(2) 0.4973(2)
H33A H 1.7353 1.2733 0.4291
N2A N 1.0875(2) 0.40738(19) 0.50691(17)
N3A N 1.1744(2) 0.3069(2) 0.55692(18)
N4A N 1.1828(2) 0.3135(2) 0.46307(17)
N5A N 1.4384(2) 0.13167(19) 0.25797(17)
N6A N 1.5529(2) 0.1521(2) 0.29712(18)
N7A N 1.4985(2) 0.06329(19) 0.13846(17)
C5A C 1.1156(3) 0.3634(2) 0.5796(2)
H10A H 1.0943 0.3730 0.6413
C6A C 1.1308(3) 0.3733(2) 0.4348(2)
H11A H 1.1256 0.3890 0.3724
C7A C 1.1996(3) 0.1470(2) 0.3859(2)
C8A C 1.0847(3) 0.0695(2) 0.4046(2)
H12A H 1.0392 0.0990 0.4374
C9A C 1.0401(3) -0.0457(3) 0.3759(2)
H13A H 0.9620 -0.0963 0.3864
C10A C 1.1087(3) -0.0920(3) 0.3304(2)
H14A H 1.0771 -0.1730 0.3122
C11A C 1.2189(3) -0.0211(2) 0.3129(2)
H15A H 1.2649 -0.0528 0.2839
C12A C 1.2667(2) 0.1002(2) 0.3372(2)
C13A C 1.3742(2) 0.1772(2) 0.3124(2)
C14A C 1.4180(2) 0.2953(2) 0.3310(2)
C15A C 1.5211(3) 0.3707(3) 0.2970(2)
H16A H 1.5635 0.3402 0.2609
C16A C 1.5596(3) 0.4851(3) 0.3156(2)
H17A H 1.6269 0.5338 0.2908
C17A C 1.4999(3) 0.5327(3) 0.3719(2)
H18A H 1.5298 0.6135 0.3870
C18A C 1.4007(3) 0.4640(2) 0.4045(2)
H19A H 1.3618 0.4975 0.4420
C19A C 1.3533(3) 0.3423(2) 0.3835(2)
C20A C 1.2475(3) 0.2662(2) 0.4103(2)
C21A C 1.4083(3) 0.0801(2) 0.1642(2)
H20A H 1.3338 0.0584 0.1219
C22A C 1.5846(3) 0.1094(3) 0.2221(2)
H21A H 1.6611 0.1106 0.2258
O1A O 0.2963(2) 0.8663(2) 0.9807(2)
N1A N 0.1264(3) 0.7159(3) 1.0034(3)
C2A C 0.1942(3) 0.7905(3) 0.9554(3)
H1A H 0.1551 0.7818 0.8916
C3A C 0.1758(7) 0.7203(7) 1.1016(4)
H2A H 0.2596 0.7843 1.1225
H3A H 0.1252 0.7316 1.1457
H4A H 0.1760 0.6478 1.1029
C4A C 0.0006(4) 0.6281(5) 0.9572(5)
H5A H -0.0235 0.6442 0.8964
H6A H -0.0046 0.5521 0.9434
H7A H -0.0542 0.6294 1.0011
O2A O 1.0950(2) 0.60950(19) 0.65898(16)
H8A H 1.1476 0.6044 0.6973
H9A H 1.1023 0.6759 0.6789
Cu1_2 Cu 2.0000 1.5000 0.5000
Cu2_2 Cu 0.5000 0.0000 1.0000
Cu2_3 Cu 1.5000 0.0000 0.0000
N7A_2 N 0.4985(2) 1.06329(19) 1.13846(17)
N8A_2 N 0.4521(2) 1.1119(2) 0.95948(17)
N11A_2 N 0.8616(2) 0.38254(18) 0.55090(17)
O3 O 1.0444(8) 1.0762(8) 0.9001(7)
O4 O 0.7505(2) 0.3842(2) 0.18438(19)
O5 O 0.9063(2) 0.5526(2) 0.19766(18)
O6 O 0.7461(4) 0.4886(3) 0.0904(4)
N14 N 0.8011(3) 0.4753(3) 0.1569(2)
O7 O 0.1541(8) 0.2515(7) 0.8325(6)
O8 O 0.8470(4) 0.9213(5) 0.8988(4)
N15 N 0.9451(3) 0.1509(3) 0.2393(2)
O9 O 1.0420(3) 0.2319(3) 0.2325(2)
O10 O 0.9228(3) 0.0507(3) 0.2027(3)
O11 O 0.8727(4) 0.1672(3) 0.2804(4)
loop_
_geom_bond_atom_site_label_1
_geom_bond_atom_site_label_2
_geom_bond_site_symmetry_1
_geom_bond_site_symmetry_2
C1 C26 1_555 1_555
Cu1 O2 1_555 1_555
Cu2 O1 1_555 1_555
O1 C2 1_555 1_555
N1 C2 1_555 1_555
C2 H1 1_555 1_555
C3 N1 1_555 1_555
H2 C3 1_555 1_555
H3 C3 1_555 1_555
H4 C3 1_555 1_555
C4 N1 1_555 1_555
H5 C4 1_555 1_555
H6 C4 1_555 1_555
H7 C4 1_555 1_555
O2 H8 1_555 1_555
H9 O2 1_555 1_555
N2 Cu1 1_555 1_555
N3 N4 1_555 1_555
N4 C6 1_555 1_555
N5 N6 1_555 1_555
N6 C22 1_555 1_555
N7 Cu2 1_555 1_555
N8 Cu2 1_555 1_555
N9 N10 1_555 1_555
N10 C24 1_555 1_555
N11 Cu1 1_555 1_555
N12 N13 1_555 1_555
N13 C31 1_555 1_555
C5 N2 1_555 1_555
H10 C5 1_555 1_555
C6 N2 1_555 1_555
H11 C6 1_555 1_555
C7 C8 1_555 1_555
C8 H12 1_555 1_555
C9 C8 1_555 1_555
H13 C9 1_555 1_555
C10 C9 1_555 1_555
H14 C10 1_555 1_555
C11 C10 1_555 1_555
H15 C11 1_555 1_555
C12 C7 1_555 1_555
C13 N5 1_555 1_555
C14 C13 1_555 1_555
C15 C14 1_555 1_555
H16 C15 1_555 1_555
C16 C15 1_555 1_555
H17 C16 1_555 1_555
C17 C16 1_555 1_555
H18 C17 1_555 1_555
C18 C17 1_555 1_555
H19 C18 1_555 1_555
C19 C14 1_555 1_555
C20 N4 1_555 1_555
C21 N5 1_555 1_555
H20 C21 1_555 1_555
C22 N7 1_555 1_555
H21 C22 1_555 1_555
C23 N8 1_555 1_555
H22 C23 1_555 1_555
C24 N8 1_555 1_555
H23 C24 1_555 1_555
C25 N9 1_555 1_555
C26 C25 1_555 1_555
C27 C26 1_555 1_555
H24 C27 1_555 1_555
C28 C27 1_555 1_555
H25 C28 1_555 1_555
C29 C28 1_555 1_555
H26 C29 1_555 1_555
C30 C1 1_555 1_555
H27 C30 1_555 1_555
C31 C32 1_555 1_555
C32 C33 1_555 1_555
C33 H28 1_555 1_555
C34 C33 1_555 1_555
H29 C34 1_555 1_555
C35 C34 1_555 1_555
H30 C35 1_555 1_555
C36 C35 1_555 1_555
H31 C36 1_555 1_555
C37 C32 1_555 1_555
C38 N11 1_555 1_555
H32 C38 1_555 1_555
C39 N11 1_555 1_555
H33 C39 1_555 1_555
O4 N14 1_555 1_555
O5 N14 1_555 1_555
O6 N14 1_555 1_555
N15 O9 1_555 1_555
O10 N15 1_555 1_555
O11 N15 1_555 1_555
C1A C25 1_555 1_555
N8A C23A 1_555 1_555
N9A N10A 1_555 1_555
N10A C24A 1_555 1_555
C23A N9A 1_555 1_555
H22A C23A 1_555 1_555
C24A N8A 1_555 1_555
H23A C24A 1_555 1_555
C25A C1 1_555 1_555
C26A C1A 1_555 1_555
C27A C26A 1_555 1_555
H24A C27A 1_555 1_555
C28A C27A 1_555 1_555
H25A C28A 1_555 1_555
C29A C28A 1_555 1_555
H26A C29A 1_555 1_555
C30A C1A 1_555 1_555
H27A C30A 1_555 1_555
N11A C38A 1_555 1_555
N12A N13A 1_555 1_555
N13A C31A 1_555 1_555
C31A C37 1_555 1_555
C32A C31A 1_555 1_555
C33A C32A 1_555 1_555
H28A C33A 1_555 1_555
C34A C33A 1_555 1_555
H29A C34A 1_555 1_555
C35A C34A 1_555 1_555
H30A C35A 1_555 1_555
C36A C35A 1_555 1_555
H31A C36A 1_555 1_555
C37A C31 1_555 1_555
C38A N12A 1_555 1_555
H32A C38A 1_555 1_555
C39A N11A 1_555 1_555
H33A C39A 1_555 1_555
N2A Cu1 1_555 1_555
N3A N4A 1_555 1_555
N4A C6A 1_555 1_555
N5A N6A 1_555 1_555
N6A C22A 1_555 1_555
N7A C21A 1_555 1_555
C5A N2A 1_555 1_555
H10A C5A 1_555 1_555
C6A N2A 1_555 1_555
H11A C6A 1_555 1_555
C7A C8A 1_555 1_555
C8A H12A 1_555 1_555
C9A C8A 1_555 1_555
H13A C9A 1_555 1_555
C10A C9A 1_555 1_555
H14A C10A 1_555 1_555
C11A C10A 1_555 1_555
H15A C11A 1_555 1_555
C12A C7A 1_555 1_555
C13A N5A 1_555 1_555
C14A C13A 1_555 1_555
C15A C14A 1_555 1_555
H16A C15A 1_555 1_555
C16A C15A 1_555 1_555
H17A C16A 1_555 1_555
C17A C16A 1_555 1_555
H18A C17A 1_555 1_555
C18A C17A 1_555 1_555
H19A C18A 1_555 1_555
C19A C14A 1_555 1_555
C20A N4A 1_555 1_555
C21A N5A 1_555 1_555
H20A C21A 1_555 1_555
C22A N7A 1_555 1_555
H21A C22A 1_555 1_555
O1A Cu2 1_555 1_555
N1A C2A 1_555 1_555
C2A O1A 1_555 1_555
H1A C2A 1_555 1_555
C3A N1A 1_555 1_555
H2A C3A 1_555 1_555
H3A C3A 1_555 1_555
H4A C3A 1_555 1_555
C4A N1A 1_555 1_555
H5A C4A 1_555 1_555
H6A C4A 1_555 1_555
H7A C4A 1_555 1_555
O2A Cu1 1_555 1_555
H8A O2A 1_555 1_555
H9A O2A 1_555 1_555
Cu1_2 N11A 1_555 1_555
Cu2_2 N8A 1_555 1_555
Cu2_3 N7A 1_555 1_555
N7A_2 Cu2 1_555 1_555
N8A_2 Cu2 1_555 1_555
N11A_2 Cu1 1_555 1_555
N3 C5 1_555 1_555
N7 C21 1_555 1_555
N9 C23 1_555 1_555
N12 C38 1_555 1_555
N13 C39 1_555 1_555
C7 C20 1_555 1_555
C11 C12 1_555 1_555
C12 C13 1_555 1_555
C18 C19 1_555 1_555
C19 C20 1_555 1_555
C29 C30 1_555 1_555
C36 C37 1_555 1_555
N9A C25A 1_555 1_555
C25A C26A 1_555 1_555
C29A C30A 1_555 1_555
N13A C39A 1_555 1_555
C32A C37A 1_555 1_555
C36A C37A 1_555 1_555
N3A C5A 1_555 1_555
C7A C20A 1_555 1_555
C11A C12A 1_555 1_555
C12A C13A 1_555 1_555
C18A C19A 1_555 1_555
C19A C20A 1_555 1_555

#END
