
#######################################################################
#
#                 Cambridge Crystallographic Data Centre
#                                CCDC 
#
#######################################################################
#
# If this CIF has been generated from an entry in the Cambridge 
# Structural Database, then it will include bibliographic, chemical, 
# crystal, experimental, refinement or atomic coordinate data resulting 
# from the CCDC's data processing and validation procedures.
#
#######################################################################

data_INURIS
_chemical_formula_moiety         '(C60 H52 Cu4 N4 O16)n'
_symmetry_cell_setting           rhombohedral
_symmetry_space_group_name_H-M   'R -3'
_symmetry_Int_Tables_number      148
_space_group_name_Hall           '-R 3'
loop_
_symmetry_equiv_pos_site_id
_symmetry_equiv_pos_as_xyz
1 x,y,z
2 -y,x-y,z
3 -x+y,-x,z
4 2/3+x,1/3+y,1/3+z
5 2/3-y,1/3+x-y,1/3+z
6 2/3-x+y,1/3-x,1/3+z
7 1/3+x,2/3+y,2/3+z
8 2/3+y,1/3-x+y,1/3-z
9 2/3+x-y,1/3+x,1/3-z
10 -x,-y,-z
11 y,-x+y,-z
12 x-y,x,-z
13 1/3-x,2/3-y,2/3-z
14 1/3+y,2/3-x+y,2/3-z
15 1/3+x-y,2/3+x,2/3-z
16 2/3-x,1/3-y,1/3-z
17 1/3-y,2/3+x-y,2/3+z
18 1/3-x+y,2/3-x,2/3+z
_cell_length_a                   53.643(7)
_cell_length_b                   53.643(7)
_cell_length_c                   11.920(10)
_cell_angle_alpha                90
_cell_angle_beta                 90
_cell_angle_gamma                120.00
_cell_volume                     29705.2
loop_
_atom_site_label
_atom_site_type_symbol
_atom_site_fract_x
_atom_site_fract_y
_atom_site_fract_z
_atom_site_U_iso_or_equiv
_atom_site_thermal_displace_type
Cu1 Cu -0.063041(14) 0.084235(14) 0.73310(5) 0.0464 Uani
Cu2 Cu -0.087093(14) 0.098130(14) 0.93457(5) 0.0441 Uani
Cu3 Cu -0.019200(14) 0.237508(13) 1.43890(5) 0.0443 Uani
Cu4 Cu -0.242840(14) 0.018560(13) 1.35877(5) 0.0430 Uani
O1 O -0.02925(9) 0.10462(8) 0.6381(3) 0.0578 Uani
O2 O -0.00580(12) 0.08643(11) 0.7292(4) 0.0860 Uani
O3 O -0.02979(8) 0.20522(8) 1.3403(3) 0.0531 Uani
O4 O -0.07306(11) 0.17722(12) 1.4120(4) 0.0902 Uani
O5 O -0.06883(8) 0.30325(8) 1.0720(3) 0.0530 Uani
O6 O -0.08631(12) 0.26121(11) 0.9837(4) 0.0820 Uani
O7 O -0.12160(8) 0.07782(8) 1.0230(3) 0.0544 Uani
O8 O -0.14697(10) 0.09207(11) 0.9198(4) 0.0800 Uani
O9 O -0.09542(8) 0.06814(8) 0.8303(3) 0.0625 Uani
O10 O -0.05367(8) 0.11417(8) 0.8400(3) 0.0600 Uani
O11 O -0.00316(10) 0.26994(8) 1.5387(3) 0.0642 Uani
O12 O 0.00235(10) 0.22899(9) 1.5438(3) 0.0658 Uani
N1 N 0.05264(9) 0.13256(9) 0.3784(3) 0.0453 Uani
N2 N -0.07167(9) 0.12946(9) 1.0504(3) 0.0425 Uani
N3 N -0.03627(9) 0.25294(9) 1.3303(3) 0.0421 Uani
N4 N -0.20925(9) 0.03775(9) 1.2530(3) 0.0417 Uani
C1 C 0.02955(10) 0.10530(10) 0.3749(4) 0.0410 Uani
C2 C 0.02563(12) 0.08799(13) 0.2783(4) 0.0540 Uani
H1 H 0.0384 0.0956 0.2184 0.0640 Uiso
C3 C 0.00370(14) 0.06081(14) 0.2731(5) 0.0637 Uani
H2 H 0.0016 0.0498 0.2098 0.0770 Uiso
C4 C -0.01638(15) 0.04860(13) 0.3628(5) 0.0643 Uani
H3 H -0.0315 0.0297 0.3578 0.0770 Uiso
C5 C -0.01353(13) 0.06426(12) 0.4542(5) 0.0550 Uani
H4 H -0.0267 0.0560 0.5125 0.0660 Uiso
C6 C 0.00930(11) 0.09344(11) 0.4641(4) 0.0424 Uani
C7 C 0.01288(11) 0.11057(11) 0.5579(4) 0.0430 Uani
C8 C -0.00882(13) 0.09938(12) 0.6524(4) 0.0517 Uani
C9 C 0.03669(11) 0.13865(12) 0.5638(4) 0.0490 Uani
C10 C 0.04276(14) 0.15684(14) 0.6582(5) 0.0661 Uani
H5 H 0.0303 0.1504 0.7193 0.0790 Uiso
C11 C 0.06643(16) 0.18352(16) 0.6611(7) 0.0793 Uani
H6 H 0.0704 0.1950 0.7246 0.0960 Uiso
C12 C 0.08478(17) 0.19367(17) 0.5680(7) 0.0881 Uani
H7 H 0.1005 0.2122 0.5698 0.1060 Uiso
C13 C 0.08028(15) 0.17725(15) 0.4750(6) 0.0721 Uani
H8 H 0.0929 0.1845 0.4146 0.0870 Uiso
C14 C 0.05605(12) 0.14884(12) 0.4709(5) 0.0512 Uani
C15 C -0.05964(11) 0.12504(11) 1.1417(5) 0.0463 Uani
C16 C -0.05211(15) 0.10346(14) 1.1428(6) 0.0667 Uani
H9 H -0.0550 0.0925 1.0786 0.0800 Uiso
C17 C -0.04070(18) 0.09826(18) 1.2358(7) 0.0922 Uani
H10 H -0.0363 0.0836 1.2350 0.1100 Uiso
C18 C -0.03556(18) 0.11500(18) 1.3331(7) 0.0857 Uani
H11 H -0.0280 0.1111 1.3964 0.1030 Uiso
C19 C -0.04140(14) 0.13640(15) 1.3358(5) 0.0662 Uani
H12 H -0.0374 0.1475 1.4004 0.0800 Uiso
C20 C -0.05375(11) 0.14249(11) 1.2403(4) 0.0444 Uani
C21 C -0.06128(10) 0.16388(10) 1.2403(4) 0.0403 Uani
C22 C -0.05475(13) 0.18314(12) 1.3413(4) 0.0493 Uani
C23 C -0.07452(10) 0.16785(10) 1.1466(4) 0.0402 Uani
C24 C -0.08389(12) 0.18839(12) 1.1407(5) 0.0523 Uani
H13 H -0.0813 0.2000 1.2027 0.0630 Uiso
C25 C -0.09639(15) 0.19154(13) 1.0481(5) 0.0652 Uani
H14 H -0.1026 0.2050 1.0467 0.0790 Uiso
C26 C -0.10013(15) 0.17413(14) 0.9520(5) 0.0687 Uani
H15 H -0.1084 0.1765 0.8874 0.0820 Uiso
C27 C -0.09185(13) 0.15447(12) 0.9539(4) 0.0548 Uani
H16 H -0.0946 0.1433 0.8904 0.0660 Uiso
C28 C -0.07894(10) 0.15014(10) 1.0505(4) 0.0407 Uani
C29 C -0.02068(11) 0.26643(11) 1.2371(4) 0.0463 Uani
C30 C 0.00840(12) 0.27277(14) 1.2300(6) 0.0642 Uani
H17 H 0.0167 0.2684 1.2898 0.0770 Uiso
C31 C 0.02410(14) 0.28521(16) 1.1359(7) 0.0777 Uani
H18 H 0.0431 0.2892 1.1322 0.0930 Uiso
C32 C 0.01231(15) 0.29212(16) 1.0447(6) 0.0772 Uani
H19 H 0.0233 0.3001 0.9804 0.0920 Uiso
C33 C -0.01471(13) 0.28727(13) 1.0495(5) 0.0589 Uani
H20 H -0.0221 0.2925 0.9889 0.0710 Uiso
C34 C -0.03240(11) 0.27431(11) 1.1451(4) 0.0448 Uani
C35 C -0.06071(11) 0.26852(10) 1.1527(4) 0.0403 Uani
C36 C -0.07332(12) 0.27783(12) 1.0601(4) 0.0472 Uani
C37 C -0.07714(11) 0.25441(10) 1.2474(4) 0.0393 Uani
C38 C -0.10634(12) 0.24683(13) 1.2584(5) 0.0554 Uani
H21 H -0.1151 0.2514 1.2012 0.0670 Uiso
C39 C -0.12167(14) 0.23299(15) 1.3508(6) 0.0691 Uani
H22 H -0.1409 0.2280 1.3563 0.0830 Uiso
C40 C -0.10845(15) 0.22615(15) 1.4390(5) 0.0671 Uani
H23 H -0.1190 0.2170 1.5030 0.0810 Uiso
C41 C -0.08072(13) 0.23268(13) 1.4315(4) 0.0554 Uani
H24 H -0.0725 0.2277 1.4897 0.0660 Uiso
C42 C -0.06407(11) 0.24702(10) 1.3355(4) 0.0411 Uani
C43 C -0.18777(10) 0.06491(11) 1.2705(4) 0.0402 Uani
C44 C -0.18586(12) 0.07936(14) 1.3727(4) 0.0551 Uani
H25 H -0.1991 0.0695 1.4293 0.0660 Uiso
C45 C -0.16530(14) 0.10693(15) 1.3897(5) 0.0674 Uani
H26 H -0.1648 0.1160 1.4568 0.0810 Uiso
C46 C -0.14433(13) 0.12228(14) 1.3058(5) 0.0658 Uani
H27 H -0.1303 0.1413 1.3179 0.0790 Uiso
C47 C -0.14481(12) 0.10918(12) 1.2082(5) 0.0538 Uani
H28 H -0.1310 0.1194 1.1538 0.0640 Uiso
C48 C -0.16616(10) 0.08010(11) 1.1876(4) 0.0399 Uani
C49 C -0.16730(10) 0.06568(11) 1.0883(4) 0.0397 Uani
C50 C -0.14377(12) 0.07997(12) 1.0015(4) 0.0501 Uani
C51 C -0.19008(11) 0.03772(11) 1.0692(4) 0.0423 Uani
C52 C -0.19360(13) 0.02246(13) 0.9671(5) 0.0564 Uani
H29 H -0.1801 0.0309 0.9101 0.0680 Uiso
C53 C -0.21626(15) -0.00396(14) 0.9528(6) 0.0671 Uani
H30 H -0.2186 -0.0134 0.8849 0.0810 Uiso
C54 C -0.23651(15) -0.01761(13) 1.0381(6) 0.0712 Uani
H31 H -0.2518 -0.0361 1.0268 0.0860 Uiso
C55 C -0.23400(13) -0.00414(12) 1.1366(5) 0.0586 Uani
H32 H -0.2476 -0.0136 1.1928 0.0700 Uiso
C56 C -0.21116(11) 0.02408(11) 1.1558(4) 0.0434 Uani
C57 C -0.12087(15) 0.04073(16) 0.8247(8) 0.1228 Uani
H33 H -0.1159 0.0263 0.8059 0.1840 Uiso
H34 H -0.1335 0.0411 0.7684 0.1840 Uiso
H35 H -0.1304 0.0363 0.8962 0.1840 Uiso
C58 C -0.02893(16) 0.14120(15) 0.8454(7) 0.1039 Uani
H36 H -0.0172 0.1440 0.7807 0.1560 Uiso
H37 H -0.0183 0.1424 0.9120 0.1560 Uiso
H38 H -0.0343 0.1558 0.8473 0.1560 Uiso
C59 C -0.0057(2) 0.29463(16) 1.5330(7) 0.1049 Uani
H39 H 0.0010 0.3052 1.6019 0.1570 Uiso
H40 H -0.0255 0.2892 1.5212 0.1570 Uiso
H41 H 0.0057 0.3065 1.4718 0.1570 Uiso
C60 C 0.0034(2) 0.20302(15) 1.5518(7) 0.1269 Uani
H42 H 0.0151 0.2042 1.6147 0.1910 Uiso
H43 H 0.0115 0.2003 1.4843 0.1910 Uiso
H44 H -0.0157 0.1871 1.5617 0.1910 Uiso
N1K N -0.07992(13) 0.05264(9) 0.6216(3) 0.0453 Uani
O5O O -0.26450(8) 0.03008(8) 1.2613(3) 0.0530 Uani
O11K O -0.27310(13) -0.00316(10) 1.4613(3) 0.0642 Uani
O12K O -0.22664(13) 0.00235(10) 1.4562(3) 0.0658 Uani
Cu4O Cu -0.090493(14) 0.314773(13) 0.97456(5) 0.0430 Uani
Cu4J Cu 0.018560(13) 0.261400(19) 1.64123(5) 0.0430 Uani
Cu1J Cu 0.084235(14) 0.147276(20) 0.26690(5) 0.0464 Uani
O14 O -0.0941(3) 0.23753(19) 0.7764(8) 0.1361 Uani
O16 O -0.0911(2) 0.16727(18) 1.6402(13) 0.1368 Uani
O17 O -0.0607(3) 0.0284(2) 0.0933(6) 0.1687 Uani
O18 O 0.0597(2) 0.24402(18) 1.3305(13) 0.1718 Uani
loop_
_atom_site_aniso_label
_atom_site_aniso_U_11
_atom_site_aniso_U_22
_atom_site_aniso_U_33
_atom_site_aniso_U_23
_atom_site_aniso_U_13
_atom_site_aniso_U_12
Cu1 0.0403(3) 0.0469(4) 0.0461(4) -0.0154(3) 0.0094(3) 0.0174(3)
Cu2 0.0391(3) 0.0442(4) 0.0432(3) -0.0125(3) 0.0097(2) 0.0164(3)
Cu3 0.0530(4) 0.0403(3) 0.0423(3) -0.0116(2) -0.0245(3) 0.0254(3)
Cu4 0.0409 0.0511 0.0408 0.0227 0.0118 0.0259
O1 0.046 0.063 0.06 -0.014 0.0128 0.024
O2 0.084 0.112 0.062 0.035 0.023 0.049
O3 0.060(2) 0.048(2) 0.050(2) -0.0223(16) -0.0284(18) 0.0260(19)
O4 0.090(4) 0.095(4) 0.064(3) -0.028(3) 0.015(3) 0.030(3)
O5 0.052(2) 0.054(2) 0.059(2) 0.0171(18) 0.0030(17) 0.0309(19)
O6 0.109(4) 0.092(4) 0.062(3) -0.013(2) -0.039(3) 0.063(3)
O7 0.042(2) 0.062(2) 0.052(2) -0.0061(17) 0.0184(16) 0.0207(19)
O8 0.074(3) 0.096(4) 0.056(3) 0.029(2) 0.019(2) 0.032(3)
O9 0.047(2) 0.047(2) 0.065(2) -0.0235(18) 0.0210(18) 0.0022(18)
O10 0.048(2) 0.047(2) 0.064(2) -0.0206(18) 0.0199(18) 0.0079(18)
O11 0.091(3) 0.051(2) 0.066(2) -0.0228(19) -0.048(2) 0.047(2)
O12 0.097(3) 0.056(2) 0.064(2) -0.0308(19) -0.053(2) 0.053(2)
N1 0.047 0.051 0.044 0.0125 0.0132 0.029
N2 0.039(2) 0.043(2) 0.041(2) -0.0103(17) 0.0022(17) 0.0171(19)
N3 0.050(2) 0.043(2) 0.033(2) -0.0028(17) -0.0159(17) 0.023(2)
N4 0.040(2) 0.046(2) 0.041(2) 0.0159(18) 0.0097(17) 0.023(2)
C1 0.041 0.049 0.039 0.0087 0.003 0.027
C2 0.057 0.069 0.042 0.004 0.007 0.036
C3 0.06 0.072 0.055 -0.009 0.005 0.03
C4 0.054 0.059 0.065 -0.008 0.008 0.017
C5 0.045 0.058 0.053 1.8762e-18 0.012 0.019
C6 0.042 0.05 0.038 0.006 0.007 0.025
C7 0.042 0.051 0.041 0.007 0.009 0.027
C8 0.048 0.055 0.043 -0.002 0.012 0.019
C9 0.048 0.052 0.051 0.005 0.009 0.028
C10 0.062 0.065 0.069 -0.009 0.012 0.03
C11 0.079 0.065 0.086 -0.018 0.012 0.03
C12 0.078 0.051 0.119 -0.009 0.015 0.02
C13 0.068 0.048 0.091 0.013 0.026 0.022
C14 0.055 0.054 0.051 0.011 0.014 0.032
C15 0.040(3) 0.045(3) 0.055(3) -0.009(2) 0.000(2) 0.022(2)
C16 0.076(4) 0.069(4) 0.072(4) -0.019(3) -0.008(3) 0.049(4)
C17 0.102(6) 0.100(6) 0.114(6) -0.018(5) -0.027(5) 0.080(5)
C18 0.102(6) 0.097(6) 0.085(5) -0.012(4) -0.032(4) 0.070(5)
C19 0.067(4) 0.075(4) 0.064(4) -0.011(3) -0.019(3) 0.041(4)
C20 0.041(3) 0.045(3) 0.044(3) -0.011(2) -0.007(2) 0.019(2)
C21 0.039(3) 0.037(2) 0.037(2) -0.0074(19) -0.0039(19) 0.013(2)
C22 0.062(4) 0.054(3) 0.036(3) -0.011(2) -0.008(2) 0.032(3)
C23 0.038(3) 0.039(3) 0.038(2) -0.0043(19) -0.0013(19) 0.015(2)
C24 0.063(4) 0.044(3) 0.053(3) -0.012(2) -0.009(3) 0.029(3)
C25 0.080(4) 0.053(4) 0.073(4) -0.007(3) -0.021(3) 0.041(3)
C26 0.085(5) 0.066(4) 0.058(4) -0.005(3) -0.021(3) 0.040(4)
C27 0.064(4) 0.054(3) 0.039(3) -0.009(2) -0.009(2) 0.024(3)
C28 0.040(3) 0.039(3) 0.038(2) -0.0067(19) 0.0037(19) 0.016(2)
C29 0.046(3) 0.039(3) 0.051(3) 0.001(2) -0.009(2) 0.019(2)
C30 0.043(3) 0.065(4) 0.078(4) 0.007(3) -0.012(3) 0.022(3)
C31 0.043(3) 0.079(5) 0.101(5) 0.017(4) 0.006(3) 0.023(3)
C32 0.062(4) 0.082(5) 0.081(5) 0.028(4) 0.016(3) 0.031(4)
C33 0.060(4) 0.059(4) 0.058(3) 0.012(3) 0.006(3) 0.030(3)
C34 0.049(3) 0.040(3) 0.045(3) 0.001(2) -0.005(2) 0.022(2)
C35 0.048(3) 0.034(2) 0.041(2) 0.0002(19) -0.007(2) 0.022(2)
C36 0.049(3) 0.060(3) 0.039(3) 0.011(2) 0.003(2) 0.032(3)
C37 0.047(3) 0.042(3) 0.038(2) -0.0014(19) -0.007(2) 0.029(2)
C38 0.052(3) 0.065(4) 0.057(3) 0.012(3) -0.001(3) 0.035(3)
C39 0.056(4) 0.084(5) 0.078(4) 0.019(4) 0.008(3) 0.043(4)
C40 0.074(4) 0.081(5) 0.056(3) 0.024(3) 0.020(3) 0.046(4)
C41 0.072(4) 0.065(4) 0.037(3) 0.010(2) -0.002(2) 0.040(3)
C42 0.052(3) 0.040(3) 0.034(2) -0.0048(19) -0.008(2) 0.025(2)
C43 0.034(2) 0.054(3) 0.034(2) 0.009(2) 0.0042(18) 0.023(2)
C44 0.053(3) 0.077(4) 0.036(3) 0.006(3) 0.007(2) 0.033(3)
C45 0.058(4) 0.085(5) 0.045(3) -0.011(3) 0.007(3) 0.025(4)
C46 0.053(4) 0.062(4) 0.064(4) -0.017(3) 0.006(3) 0.015(3)
C47 0.042(3) 0.055(3) 0.052(3) -0.004(2) 0.011(2) 0.015(3)
C48 0.035(2) 0.049(3) 0.037(2) 0.002(2) 0.0034(19) 0.022(2)
C49 0.034(2) 0.050(3) 0.035(2) 0.002(2) 0.0076(19) 0.021(2)
C50 0.048(3) 0.049(3) 0.041(3) -0.002(2) 0.013(2) 0.015(3)
C51 0.041(3) 0.046(3) 0.043(3) 0.002(2) 0.006(2) 0.024(2)
C52 0.062(4) 0.060(4) 0.048(3) -0.003(3) 0.011(3) 0.031(3)
C53 0.073(4) 0.056(4) 0.072(4) -0.013(3) 0.004(3) 0.032(3)
C54 0.067(4) 0.041(3) 0.095(5) -0.007(3) 0.008(4) 0.019(3)
C55 0.059(4) 0.045(3) 0.065(4) 0.009(3) 0.016(3) 0.021(3)
C56 0.042(3) 0.046(3) 0.045(3) 0.005(2) 0.004(2) 0.024(2)
C57 0.062(4) 0.071(5) 0.159(8) -0.069(5) 0.056(5) -0.024(4)
C58 0.071(5) 0.062(4) 0.121(7) -0.043(4) 0.042(5) -0.010(4)
C59 0.159(8) 0.074(5) 0.124(6) -0.055(5) -0.094(6) 0.090(6)
C60 0.198(10) 0.075(5) 0.146(8) -0.061(5) -0.123(8) 0.097(6)
N1K 0.040(2) 0.047(2) 0.044(2) -0.0132(18) -0.0007(18) 0.018(2)
O5O 0.052 0.054 0.059 0.0171 0.003 0.0309
O11K 0.048 0.091 0.066 0.048 0.0252 0.044
O12K 0.047 0.097 0.064 0.053 0.0222 0.044
Cu4O 0.0409 0.0511 0.0408 0.0227 0.0118 0.0259
Cu4J 0.0511(4) 0.0402(3) 0.0408(3) -0.0109(2) -0.0227(3) 0.0252(3)
Cu1J 0.0469 0.0524 0.0461 0.0248 0.0154 0.0295
O14 0.142(13) 0.144(13) 0.115(12) -0.024(9) -0.002(9) 0.066(9)
O16 0.149(13) 0.147(13) 0.105(12) 0.003(9) 0.031(9) 0.067(9)
O17 0.167(15) 0.161(15) 0.166(15) 0.008(9) 0.014(9) 0.073(10)
O18 0.17(3) 0.18(3) 0.17(3) -0.005(10) -0.002(10) 0.091(18)
loop_
_geom_bond_atom_site_label_1
_geom_bond_atom_site_label_2
_geom_bond_site_symmetry_1
_geom_bond_site_symmetry_2
Cu1 O1 1_555 1_555
Cu2 O7 1_555 1_555
Cu3 O3 1_555 1_555
Cu4 N4 1_555 1_555
O1 C8 1_555 1_555
O2 C8 1_555 1_555
O3 C22 1_555 1_555
O4 C22 1_555 1_555
O5 C36 1_555 1_555
O6 C36 1_555 1_555
O7 C50 1_555 1_555
O8 C50 1_555 1_555
O9 Cu1 1_555 1_555
O10 Cu1 1_555 1_555
O11 Cu3 1_555 1_555
O12 Cu3 1_555 1_555
N1 C1 1_555 1_555
N2 Cu2 1_555 1_555
N3 Cu3 1_555 1_555
N4 C43 1_555 1_555
C1 C2 1_555 1_555
C2 H1 1_555 1_555
C3 C2 1_555 1_555
H2 C3 1_555 1_555
C4 C3 1_555 1_555
H3 C4 1_555 1_555
C5 C4 1_555 1_555
H4 C5 1_555 1_555
C6 C1 1_555 1_555
C7 C6 1_555 1_555
C8 C7 1_555 1_555
C9 C7 1_555 1_555
C10 C9 1_555 1_555
H5 C10 1_555 1_555
C11 C10 1_555 1_555
H6 C11 1_555 1_555
C12 C11 1_555 1_555
H7 C12 1_555 1_555
C13 C12 1_555 1_555
H8 C13 1_555 1_555
C14 N1 1_555 1_555
C15 N2 1_555 1_555
C16 C15 1_555 1_555
H9 C16 1_555 1_555
C17 C16 1_555 1_555
H10 C17 1_555 1_555
C18 C17 1_555 1_555
H11 C18 1_555 1_555
C19 C18 1_555 1_555
H12 C19 1_555 1_555
C20 C15 1_555 1_555
C21 C20 1_555 1_555
C22 C21 1_555 1_555
C23 C21 1_555 1_555
C24 C23 1_555 1_555
H13 C24 1_555 1_555
C25 C24 1_555 1_555
H14 C25 1_555 1_555
C26 C25 1_555 1_555
H15 C26 1_555 1_555
C27 C26 1_555 1_555
H16 C27 1_555 1_555
C28 N2 1_555 1_555
C29 N3 1_555 1_555
C30 C29 1_555 1_555
H17 C30 1_555 1_555
C31 C30 1_555 1_555
H18 C31 1_555 1_555
C32 C31 1_555 1_555
H19 C32 1_555 1_555
C33 C32 1_555 1_555
H20 C33 1_555 1_555
C34 C29 1_555 1_555
C35 C34 1_555 1_555
C36 C35 1_555 1_555
C37 C35 1_555 1_555
C38 C37 1_555 1_555
H21 C38 1_555 1_555
C39 C38 1_555 1_555
H22 C39 1_555 1_555
C40 C39 1_555 1_555
H23 C40 1_555 1_555
C41 C40 1_555 1_555
H24 C41 1_555 1_555
C42 N3 1_555 1_555
C43 C44 1_555 1_555
C44 H25 1_555 1_555
C45 C44 1_555 1_555
H26 C45 1_555 1_555
C46 C45 1_555 1_555
H27 C46 1_555 1_555
C47 C46 1_555 1_555
H28 C47 1_555 1_555
C48 C43 1_555 1_555
C49 C48 1_555 1_555
C50 C49 1_555 1_555
C51 C49 1_555 1_555
C52 C51 1_555 1_555
H29 C52 1_555 1_555
C53 C52 1_555 1_555
H30 C53 1_555 1_555
C54 C53 1_555 1_555
H31 C54 1_555 1_555
C55 C54 1_555 1_555
H32 C55 1_555 1_555
C56 N4 1_555 1_555
C57 O9 1_555 1_555
H33 C57 1_555 1_555
H34 C57 1_555 1_555
H35 C57 1_555 1_555
C58 O10 1_555 1_555
H36 C58 1_555 1_555
H37 C58 1_555 1_555
H38 C58 1_555 1_555
C59 O11 1_555 1_555
H39 C59 1_555 1_555
H40 C59 1_555 1_555
H41 C59 1_555 1_555
C60 O12 1_555 1_555
H42 C60 1_555 1_555
H43 C60 1_555 1_555
H44 C60 1_555 1_555
N1K Cu1 1_555 1_555
O5O Cu4 1_555 1_555
O11K Cu4 1_555 1_555
O12K Cu4 1_555 1_555
Cu4O O5 1_555 1_555
Cu4J O11 1_555 1_555
Cu1J N1 1_555 1_555
Cu2 O9 1_555 1_555
Cu2 O10 1_555 1_555
O12 Cu4J 1_555 1_555
C5 C6 1_555 1_555
C9 C14 1_555 1_555
C13 C14 1_555 1_555
C19 C20 1_555 1_555
C23 C28 1_555 1_555
C27 C28 1_555 1_555
C33 C34 1_555 1_555
C37 C42 1_555 1_555
C41 C42 1_555 1_555
C47 C48 1_555 1_555
C51 C56 1_555 1_555
C55 C56 1_555 1_555

#END
