
#######################################################################
#
#                 Cambridge Crystallographic Data Centre
#                                CCDC 
#
#######################################################################
#
# If this CIF has been generated from an entry in the Cambridge 
# Structural Database, then it will include bibliographic, chemical, 
# crystal, experimental, refinement or atomic coordinate data resulting 
# from the CCDC's data processing and validation procedures.
#
#######################################################################

data_AVUHIJ
_chemical_formula_moiety         '(C72 H64 Co3 N18 O17)n'
_symmetry_cell_setting           monoclinic
_symmetry_space_group_name_H-M   'P 21/c'
_symmetry_Int_Tables_number      14
_space_group_name_Hall           '-P 2ybc'
loop_
_symmetry_equiv_pos_site_id
_symmetry_equiv_pos_as_xyz
1 x,y,z
2 -x,1/2+y,1/2-z
3 -x,-y,-z
4 x,1/2-y,1/2+z
_cell_length_a                   17.519(4)
_cell_length_b                   10.080(2)
_cell_length_c                   22.931(5)
_cell_angle_alpha                90
_cell_angle_beta                 98.72(3)
_cell_angle_gamma                90
_cell_volume                     4002.61
loop_
_atom_site_label
_atom_site_type_symbol
_atom_site_fract_x
_atom_site_fract_y
_atom_site_fract_z
Co1 Co 0.65934(4) -0.18983(5) 0.66017(3)
Co2 Co 1.0000 0.5000 0.5000
N1 N 0.6772(3) -0.1895(4) 0.7509(2)
N2 N 0.7212(4) -0.1285(7) 0.8434(3)
N3 N 0.6812(3) -0.2418(5) 0.8433(2)
N4 N 0.5487(3) -0.1857(4) 0.6152(2)
N5 N 0.4455(4) -0.1151(7) 0.5544(3)
N6 N 0.4283(3) -0.2259(5) 0.5833(2)
N7 N -0.0503(4) 0.1579(7) 0.8247(3)
N8 N -0.0997(5) 0.0565(10) 0.8169(4)
N9 N -0.0453(3) 0.0681(8) 0.9121(3)
O1 O 0.6384(3) 0.0605(4) 0.6705(2)
O2 O 0.7249(2) -0.0454(3) 0.63076(19)
O3 O 0.6358(2) 0.5579(3) 0.67276(16)
O4 O 0.72249(19) 0.6643(3) 0.63094(15)
O5 O 0.9077(2) 0.4302(5) 0.5346(2)
O6 O 0.9261(2) 0.2122(4) 0.54431(19)
O7 O 1.0636(3) 0.3190(5) 0.5213(2)
H1 H 1.0447 0.3053 0.4854
H2 H 1.0279 0.3121 0.5424
C1 C 0.6953(4) 0.0620(5) 0.6449(3)
C2 C 0.7294(3) 0.1903(4) 0.6295(2)
C3 C 0.6972(3) 0.3095(4) 0.6451(2)
H9 H 0.6553 0.3083 0.6656
C4 C 0.7275(3) 0.4289(4) 0.63012(19)
C5 C 0.6931(3) 0.5566(4) 0.6464(2)
C6 C 0.7895(3) 0.4301(4) 0.5992(2)
H10 H 0.8094 0.5106 0.5886
C7 C 0.8222(3) 0.3122(4) 0.5839(2)
C8 C 0.7920(3) 0.1929(4) 0.5996(2)
H11 H 0.8141 0.1137 0.5899
C9 C 0.8911(3) 0.3163(6) 0.5514(2)
C10 C 0.7175(4) -0.1003(7) 0.7874(3)
H12 H 0.7405 -0.0255 0.7739
C11 C 0.6562(3) -0.2762(5) 0.7887(3)
H13 H 0.6273 -0.3520 0.7779
C12 C 0.6693(5) -0.3038(6) 0.8984(3)
H14 H 0.7187 -0.3166 0.9232
H15 H 0.6457 -0.3902 0.8903
C13 C 0.6175(4) -0.2183(6) 0.9309(3)
C14 C 0.5403(5) -0.2100(8) 0.9136(4)
H16 H 0.5174 -0.2636 0.8828
C15 C 0.4951(4) -0.1258(9) 0.9398(4)
H17 H 0.4425 -0.1226 0.9259
C16 C 0.5243(3) -0.0459(5) 0.9859(2)
C17 C 0.6025(4) -0.0560(8) 1.0031(3)
H18 H 0.6254 -0.0034 1.0342
C18 C 0.6487(5) -0.1407(9) 0.9766(3)
H19 H 0.7014 -0.1445 0.9901
C19 C 0.5176(4) -0.0956(7) 0.5746(3)
H20 H 0.5458 -0.0255 0.5623
C20 C 0.4892(4) -0.2656(6) 0.6183(3)
H21 H 0.4910 -0.3402 0.6423
C21 C 0.3498(4) -0.2805(7) 0.5736(3)
H22 H 0.3510 -0.3703 0.5890
H23 H 0.3315 -0.2847 0.5316
C22 C 0.2347(5) -0.1326(10) 0.5697(3)
H24 H 0.2294 -0.1367 0.5288
C23 C 0.1830(4) -0.0604(9) 0.5955(3)
H25 H 0.1425 -0.0181 0.5718
C24 C 0.1895(4) -0.0488(7) 0.6567(3)
C25 C 0.2507(5) -0.1125(9) 0.6887(3)
H26 H 0.2577 -0.1064 0.7297
C26 C 0.3021(5) -0.1851(9) 0.6624(4)
H27 H 0.3434 -0.2259 0.6859
C27 C 0.2943(4) -0.1990(7) 0.6028(3)
C28 C 0.1337(4) 0.0294(7) 0.6849(3)
C29 C 0.0572(9) 0.056(2) 0.6539(6)
H28 H 0.0436 0.0308 0.6147
C30 C 0.0042(11) 0.121(2) 0.6835(7)
H29 H -0.0455 0.1381 0.6643
C31 C 0.0259(4) 0.1621(7) 0.7435(3)
C32 C 0.0972(10) 0.140(3) 0.7678(8)
H30 H 0.1136 0.1689 0.8062
C33 C 0.1493(9) 0.074(3) 0.7377(8)
H31 H 0.1992 0.0615 0.7574
C34 C -0.0325(5) 0.2359(9) 0.7741(4)
C35 C -0.0183(4) 0.1623(9) 0.8810(4)
H32 H 0.0185 0.2243 0.8966
C36 C -0.0961(5) 0.0068(12) 0.8707(5)
H33 H -0.1263 -0.0645 0.8793
Co1B Co 0.34066(4) 0.18983(5) 1.33983(3)
Co1_2 Co 0.65934(4) 0.81017(5) 0.66017(3)
Co1B_2 Co 0.34066(4) -0.81017(5) 1.33983(3)
Co2_2 Co 0.0000 -0.5000 1.5000
Co2A Co 0.0000 -0.0000 1.0000
Co2A_2 Co 1.0000 -0.0000 1.0000
N1B N 0.3228(3) 0.1895(4) 1.2491(2)
N2B N 0.2788(4) 0.1285(7) 1.1566(3)
N3B N 0.3188(3) 0.2418(5) 1.1567(2)
N4B N 0.4513(3) 0.1857(4) 1.3848(2)
N5B N 0.5545(4) 0.1151(7) 1.4456(3)
N6B N 0.5717(3) 0.2259(5) 1.4167(2)
N7B N 1.0503(4) -0.1579(7) 1.1753(3)
N8B N 1.0997(5) -0.0565(10) 1.1831(4)
N9B N 1.0453(3) -0.0681(8) 1.0879(3)
N9A N 1.0453(3) 0.5681(8) 0.5879(3)
N9C N 0.9547(3) 0.4319(8) 0.4121(3)
O1B O 0.3616(3) -0.0605(4) 1.3295(2)
O2B O 0.2751(2) 0.0454(3) 1.36924(19)
O3B O 0.3642(2) -0.5579(3) 1.32724(16)
O4B O 0.27751(19) -0.6643(3) 1.36906(15)
O4_2 O 0.72249(19) -0.3357(3) 0.63094(15)
O4B_2 O 0.27751(19) 0.3357(3) 1.36906(15)
O5B O 0.0923(2) -0.4302(5) 1.4654(2)
O5B_2 O 1.0923(2) 0.5698(5) 0.4654(2)
O6B O 0.0739(2) -0.2122(4) 1.45569(19)
O7B O 0.9364(3) 0.6810(5) 0.4787(2)
H1B H 0.9553 0.6947 0.5146
H2B H 0.9721 0.6879 0.4576
C1B C 0.3047(4) -0.0620(5) 1.3551(3)
C2B C 0.2706(3) -0.1903(4) 1.3705(2)
C3B C 0.3028(3) -0.3095(4) 1.3549(2)
H9B H 0.3447 -0.3083 1.3344
C4B C 0.2725(3) -0.4289(4) 1.36988(19)
C5B C 0.3069(3) -0.5566(4) 1.3536(2)
C6B C 0.2105(3) -0.4301(4) 1.4008(2)
H10B H 0.1906 -0.5106 1.4114
C7B C 0.1778(3) -0.3122(4) 1.4161(2)
C8B C 0.2080(3) -0.1929(4) 1.4004(2)
H11B H 0.1859 -0.1137 1.4101
C9B C 0.1089(3) -0.3163(6) 1.4486(2)
C10B C 0.2825(4) 0.1003(7) 1.2126(3)
H12B H 0.2595 0.0255 1.2261
C11B C 0.3438(3) 0.2762(5) 1.2113(3)
H13B H 0.3727 0.3520 1.2221
C12B C 0.3307(5) 0.3038(6) 1.1016(3)
H14B H 0.2813 0.3166 1.0768
H15B H 0.3543 0.3902 1.1097
C13B C 0.3825(4) 0.2183(6) 1.0691(3)
C14B C 0.4597(5) 0.2100(8) 1.0864(4)
H16B H 0.4826 0.2636 1.1172
C15B C 0.5049(4) 0.1258(9) 1.0602(4)
H17B H 0.5575 0.1226 1.0741
C16B C 0.4757(3) 0.0459(5) 1.0141(2)
C17B C 0.3975(4) 0.0560(8) 0.9969(3)
H18B H 0.3746 0.0034 0.9658
C18B C 0.3513(5) 0.1407(9) 1.0234(3)
H19B H 0.2986 0.1445 1.0099
C19B C 0.4824(4) 0.0956(7) 1.4254(3)
H20B H 0.4542 0.0255 1.4377
C20B C 0.5108(4) 0.2656(6) 1.3817(3)
H21B H 0.5090 0.3402 1.3577
C21B C 0.6502(4) 0.2805(7) 1.4264(3)
H22B H 0.6490 0.3703 1.4110
H23B H 0.6685 0.2847 1.4684
C22B C 0.7653(5) 0.1326(10) 1.4303(3)
H24B H 0.7706 0.1367 1.4712
C23B C 0.8170(4) 0.0604(9) 1.4045(3)
H25B H 0.8575 0.0181 1.4282
C24B C 0.8105(4) 0.0488(7) 1.3433(3)
C25B C 0.7493(5) 0.1125(9) 1.3113(3)
H26B H 0.7423 0.1064 1.2703
C26B C 0.6979(5) 0.1851(9) 1.3376(4)
H27B H 0.6566 0.2259 1.3141
C27B C 0.7057(4) 0.1990(7) 1.3972(3)
C28B C 0.8663(4) -0.0294(7) 1.3151(3)
C29B C 0.9428(9) -0.056(2) 1.3461(6)
H28B H 0.9564 -0.0308 1.3853
C30B C 0.9958(11) -0.121(2) 1.3165(7)
H29B H 1.0455 -0.1381 1.3357
C31B C 0.9741(4) -0.1621(7) 1.2565(3)
C32B C 0.9028(10) -0.140(3) 1.2322(8)
H30B H 0.8864 -0.1689 1.1938
C33B C 0.8507(9) -0.074(3) 1.2623(8)
H31B H 0.8008 -0.0615 1.2426
C34B C 1.0325(5) -0.2359(9) 1.2259(4)
C35B C 1.0183(4) -0.1623(9) 1.1190(4)
H32B H 0.9815 -0.2243 1.1034
C36B C 1.0961(5) -0.0068(12) 1.1293(5)
H33B H 1.1263 0.0645 1.1207
O8 O 0.8326(5) 0.7869(9) 0.5509(4)
H3 H 0.8015 0.7537 0.5733
H4 H 0.8542 0.7176 0.5400
O9 O 0.5328(4) 0.4170(5) 0.7314(3)
H5 H 0.5237 0.4732 0.7572
H6 H 0.5637 0.4598 0.7132
O10 O 0.5361(3) 0.1477(5) 0.7418(3)
H7 H 0.5531 0.2267 0.7413
H8 H 0.5674 0.1208 0.7196
loop_
_geom_bond_atom_site_label_1
_geom_bond_atom_site_label_2
_geom_bond_site_symmetry_1
_geom_bond_site_symmetry_2
Co1 N1 1_555 1_555
Co2 O5 1_555 1_555
N1 C10 1_555 1_555
N2 N3 1_555 1_555
N3 C11 1_555 1_555
N4 Co1 1_555 1_555
N5 N6 1_555 1_555
N6 C20 1_555 1_555
N7 N8 1_555 1_555
N8 C36 1_555 1_555
N9 C35 1_555 1_555
O1 C1 1_555 1_555
O2 Co1 1_555 1_555
O3 C5 1_555 1_555
O4 C5 1_555 1_555
O5 C9 1_555 1_555
O6 C9 1_555 1_555
O7 Co2 1_555 1_555
H1 O7 1_555 1_555
H2 O7 1_555 1_555
O8 H3 1_555 1_555
H4 O8 1_555 1_555
O9 H5 1_555 1_555
H6 O9 1_555 1_555
O10 H7 1_555 1_555
H8 O10 1_555 1_555
C1 O2 1_555 1_555
C2 C1 1_555 1_555
C3 C2 1_555 1_555
H9 C3 1_555 1_555
C4 C3 1_555 1_555
C5 C4 1_555 1_555
C6 C4 1_555 1_555
H10 C6 1_555 1_555
C7 C6 1_555 1_555
C8 C2 1_555 1_555
H11 C8 1_555 1_555
C9 C7 1_555 1_555
C10 N2 1_555 1_555
H12 C10 1_555 1_555
C11 N1 1_555 1_555
H13 C11 1_555 1_555
C12 N3 1_555 1_555
H14 C12 1_555 1_555
H15 C12 1_555 1_555
C13 C12 1_555 1_555
C14 C13 1_555 1_555
H16 C14 1_555 1_555
C15 C14 1_555 1_555
H17 C15 1_555 1_555
C16 C15 1_555 1_555
C17 C16 1_555 1_555
H18 C17 1_555 1_555
C18 C13 1_555 1_555
H19 C18 1_555 1_555
C19 N4 1_555 1_555
H20 C19 1_555 1_555
C20 N4 1_555 1_555
H21 C20 1_555 1_555
C21 N6 1_555 1_555
H22 C21 1_555 1_555
H23 C21 1_555 1_555
C22 H24 1_555 1_555
C23 C22 1_555 1_555
H25 C23 1_555 1_555
C24 C23 1_555 1_555
C25 C24 1_555 1_555
H26 C25 1_555 1_555
C26 C25 1_555 1_555
H27 C26 1_555 1_555
C27 C21 1_555 1_555
C28 C24 1_555 1_555
C29 C28 1_555 1_555
H28 C29 1_555 1_555
C30 C29 1_555 1_555
H29 C30 1_555 1_555
C31 C30 1_555 1_555
C32 C31 1_555 1_555
H30 C32 1_555 1_555
C33 C28 1_555 1_555
H31 C33 1_555 1_555
C34 N7 1_555 1_555
C35 N7 1_555 1_555
H32 C35 1_555 1_555
C36 N9 1_555 1_555
H33 C36 1_555 1_555
Co1B N1B 1_555 1_555
Co1_2 O4 1_555 1_555
Co1B_2 O4B 1_555 1_555
Co2_2 O5B 1_555 1_555
Co2A N9 1_555 1_555
Co2A_2 N9B 1_555 1_555
N1B C10B 1_555 1_555
N2B N3B 1_555 1_555
N3B C11B 1_555 1_555
N4B Co1B 1_555 1_555
N5B N6B 1_555 1_555
N6B C20B 1_555 1_555
N7B N8B 1_555 1_555
N8B C36B 1_555 1_555
N9B C35B 1_555 1_555
N9A Co2 1_555 1_555
N9C Co2 1_555 1_555
O1B C1B 1_555 1_555
O2B Co1B 1_555 1_555
O3B C5B 1_555 1_555
O4B C5B 1_555 1_555
O4_2 Co1 1_555 1_555
O4B_2 Co1B 1_555 1_555
O5B C9B 1_555 1_555
O5B_2 Co2 1_555 1_555
O6B C9B 1_555 1_555
O7B Co2 1_555 1_555
H1B O7B 1_555 1_555
H2B O7B 1_555 1_555
C1B O2B 1_555 1_555
C2B C1B 1_555 1_555
C3B C2B 1_555 1_555
H9B C3B 1_555 1_555
C4B C3B 1_555 1_555
C5B C4B 1_555 1_555
C6B C4B 1_555 1_555
H10B C6B 1_555 1_555
C7B C6B 1_555 1_555
C8B C2B 1_555 1_555
H11B C8B 1_555 1_555
C9B C7B 1_555 1_555
C10B N2B 1_555 1_555
H12B C10B 1_555 1_555
C11B N1B 1_555 1_555
H13B C11B 1_555 1_555
C12B N3B 1_555 1_555
H14B C12B 1_555 1_555
H15B C12B 1_555 1_555
C13B C12B 1_555 1_555
C14B C13B 1_555 1_555
H16B C14B 1_555 1_555
C15B C14B 1_555 1_555
H17B C15B 1_555 1_555
C16B C16 1_555 1_555
C17B C16B 1_555 1_555
H18B C17B 1_555 1_555
C18B C13B 1_555 1_555
H19B C18B 1_555 1_555
C19B N4B 1_555 1_555
H20B C19B 1_555 1_555
C20B N4B 1_555 1_555
H21B C20B 1_555 1_555
C21B N6B 1_555 1_555
H22B C21B 1_555 1_555
H23B C21B 1_555 1_555
C22B H24B 1_555 1_555
C23B C22B 1_555 1_555
H25B C23B 1_555 1_555
C24B C23B 1_555 1_555
C25B C24B 1_555 1_555
H26B C25B 1_555 1_555
C26B C25B 1_555 1_555
H27B C26B 1_555 1_555
C27B C21B 1_555 1_555
C28B C24B 1_555 1_555
C29B C28B 1_555 1_555
H28B C29B 1_555 1_555
C30B C29B 1_555 1_555
H29B C30B 1_555 1_555
C31B C30B 1_555 1_555
C32B C31B 1_555 1_555
H30B C32B 1_555 1_555
C33B C28B 1_555 1_555
H31B C33B 1_555 1_555
C34B N7B 1_555 1_555
C35B N7B 1_555 1_555
H32B C35B 1_555 1_555
C36B N9B 1_555 1_555
H33B C36B 1_555 1_555
N5 C19 1_555 1_555
C7 C8 1_555 1_555
C17 C18 1_555 1_555
C22 C27 1_555 1_555
C26 C27 1_555 1_555
C31 C34 1_555 1_555
C32 C33 1_555 1_555
N5B C19B 1_555 1_555
C7B C8B 1_555 1_555
C15B C16B 1_555 1_555
C17B C18B 1_555 1_555
C22B C27B 1_555 1_555
C26B C27B 1_555 1_555
C31B C34B 1_555 1_555
C32B C33B 1_555 1_555

#END
