
#######################################################################
#
#                 Cambridge Crystallographic Data Centre
#                                CCDC 
#
#######################################################################
#
# If this CIF has been generated from an entry in the Cambridge 
# Structural Database, then it will include bibliographic, chemical, 
# crystal, experimental, refinement or atomic coordinate data resulting 
# from the CCDC's data processing and validation procedures.
#
#######################################################################

data_QUFGIH
_chemical_formula_moiety         '(C4 Al3 Mg1 N4 O16 P4 1-)n'
_symmetry_cell_setting           orthorhombic
_symmetry_space_group_name_H-M   'P b c m'
_symmetry_Int_Tables_number      57
_space_group_name_Hall           '-P 2c 2b'
loop_
_symmetry_equiv_pos_site_id
_symmetry_equiv_pos_as_xyz
1 x,y,z
2 x,1/2-y,-z
3 -x,1/2+y,1/2-z
4 -x,-y,1/2+z
5 -x,-y,-z
6 -x,1/2+y,z
7 x,1/2-y,1/2+z
8 x,y,1/2-z
_cell_length_a                   9.2187(4)
_cell_length_b                   14.8652(4)
_cell_length_c                   14.5811(4)
_cell_angle_alpha                90
_cell_angle_beta                 90
_cell_angle_gamma                90
_cell_volume                     1998.16
loop_
_atom_site_label
_atom_site_type_symbol
_atom_site_fract_x
_atom_site_fract_y
_atom_site_fract_z
_atom_site_U_iso_or_equiv
_atom_site_thermal_displace_type
P1 P -0.1110(14) 0.3347(7) 0.2500 0.0304 Uiso
P2 P -0.3149(15) -0.0362(7) 0.2500 0.0304 Uiso
P3 P 0.1548(9) 0.1356(5) 0.1041(6) 0.0304 Uiso
Al1 Al 0.1480(10) 0.3479(5) 0.1145(7) 0.0398 Uiso
Al2 Al -0.1011(15) 0.1353(8) 0.2500 0.0398 Uiso
Mg1 Mg -0.3291(19) 0.5190(8) 0.2500 0.0398 Uiso
O1 O -0.1856(16) 0.2430(10) 0.2500 0.0549 Uiso
O2 O -0.2428(19) 0.3946(12) 0.2500 0.0549 Uiso
O3 O -0.0275(13) 0.3597(8) 0.1628(8) 0.0549 Uiso
O4 O -0.2437(21) 0.0537(10) 0.2500 0.0549 Uiso
O5 O -0.4685(18) -0.0061(17) 0.2500 0.0549 Uiso
O6 O -0.2720(15) -0.0737(8) 0.1602(7) 0.0549 Uiso
O7 O 0.2674(16) 0.0695(8) 0.1364(9) 0.0549 Uiso
O8 O 0.1269(13) 0.1116(6) 0.0026(8) 0.0549 Uiso
O9 O 0.0134(13) 0.1191(8) 0.1526(9) 0.0549 Uiso
O10 O 0.2102(11) 0.2328(7) 0.1187(7) 0.0549 Uiso
O5E O -0.5315(18) 0.4939(17) 0.2500 0.0549 Uiso
Mg1E Mg -0.6709(19) 0.0190(8) 0.2500 0.0398 Uiso
O6E O 0.2720(15) 0.4263(8) 0.1602(7) 0.0549 Uiso
O6G O -0.2720(15) -0.0737(8) 0.3398(7) 0.0549 Uiso
O9G O 0.0134(13) 0.1191(8) 0.3474(9) 0.0549 Uiso
O3G O -0.0275(13) 0.3597(8) 0.3372(8) 0.0549 Uiso
O7B O -0.2674(16) 0.5695(8) 0.3636(9) 0.0549 Uiso
Al1F Al 0.1480(10) 0.1521(5) 0.6145(7) 0.0398 Uiso
Al1E Al -0.1480(10) -0.1521(5) 0.1145(7) 0.0398 Uiso
Al1B Al -0.1480(10) -0.1521(5) 0.3855(7) 0.0398 Uiso
P3G P 0.1548(9) 0.1356(5) 0.3959(6) 0.0304 Uiso
Al1G Al 0.1480(10) 0.3479(5) 0.3855(7) 0.0398 Uiso
O6B O 0.2720(15) 0.4263(8) 0.3398(7) 0.0549 Uiso
O7E O -0.2674(16) 0.5695(8) 0.1364(9) 0.0549 Uiso
O8A O 0.1269(13) 0.3884(6) -0.0026(8) 0.0549 Uiso
O8F O 0.1269(13) 0.3884(6) 0.5026(8) 0.0549 Uiso
O7G O 0.2674(16) 0.0695(8) 0.3636(9) 0.0549 Uiso
O8G O 0.1269(13) 0.1116(6) 0.4974(8) 0.0549 Uiso
O10G O 0.2102(11) 0.2328(7) 0.3813(7) 0.0549 Uiso
Al1A Al 0.1480(10) 0.1521(5) -0.1145(7) 0.0398 Uiso
Mg1E_2 Mg 0.3291(19) 0.0190(8) 0.2500 0.0398 Uiso
N1 N 0.2174(14) -0.0856(9) -0.0038(18) 0.0800 Uiso
N2 N 0.3542(26) -0.2792(16) 0.0528(19) 0.0800 Uiso
C1 C 0.3775(16) -0.1031(10) -0.0106(25) 0.0800 Uiso
C2 C 0.4177(18) -0.1908(12) 0.0373(17) 0.0800 Uiso
C2A C 0.4177(18) -0.3092(12) -0.0373(17) 0.0800 Uiso
N2A N 0.3542(26) -0.2208(16) -0.0528(19) 0.0800 Uiso
C1A C 0.3775(16) -0.3969(10) 0.0106(25) 0.0800 Uiso
N1A N 0.2174(14) -0.4144(9) 0.0038(18) 0.0800 Uiso
loop_
_geom_bond_atom_site_label_1
_geom_bond_atom_site_label_2
_geom_bond_site_symmetry_1
_geom_bond_site_symmetry_2
N1 C1 1_555 1_555
N2 C2 1_555 1_555
C1 C2 1_555 1_555
C2 N2A 1_555 1_555
P1 O1 1_555 1_555
P2 O4 1_555 1_555
P3 O7 1_555 1_555
Al1 O3 1_555 1_555
Al2 O1 1_555 1_555
Mg1 O2 1_555 1_555
O2 P1 1_555 1_555
O3 P1 1_555 1_555
O4 Al2 1_555 1_555
O5 P2 1_555 1_555
O6 P2 1_555 1_555
O7 Mg1E_2 1_555 1_555
O8 P3 1_555 1_555
O9 P3 1_555 1_555
O10 P3 1_555 1_555
C2A N2 1_555 1_555
N2A C2A 1_555 1_555
C1A C2A 1_555 1_555
N1A C1A 1_555 1_555
O5E Mg1 1_555 1_555
Mg1E O5 1_555 1_555
O6E Al1 1_555 1_555
O6G P2 1_555 1_555
O9G Al2 1_555 1_555
O3G P1 1_555 1_555
O7B Mg1 1_555 1_555
Al1F O8G 1_555 1_555
Al1E O6 1_555 1_555
Al1B O6G 1_555 1_555
P3G O9G 1_555 1_555
Al1G O3G 1_555 1_555
O6B Al1G 1_555 1_555
O7E Mg1 1_555 1_555
O8A Al1 1_555 1_555
O8F Al1G 1_555 1_555
O7G P3G 1_555 1_555
O8G P3G 1_555 1_555
O10G P3G 1_555 1_555
Al1A O8 1_555 1_555
Mg1E_2 O7G 1_555 1_555
Al1 O10 1_555 1_555
Al2 O9 1_555 1_555
Al1G O10G 1_555 1_555

#END
