
#######################################################################
#
#                 Cambridge Crystallographic Data Centre
#                                CCDC 
#
#######################################################################
#
# If this CIF has been generated from an entry in the Cambridge 
# Structural Database, then it will include bibliographic, chemical, 
# crystal, experimental, refinement or atomic coordinate data resulting 
# from the CCDC's data processing and validation procedures.
#
#######################################################################

data_LAPLEW01
_chemical_formula_moiety         '(C18 H18 In1 N3 O8)n'
_symmetry_cell_setting           orthorhombic
_symmetry_space_group_name_H-M   'F d d d'
_symmetry_Int_Tables_number      70
_space_group_name_Hall           '-F 2uv 2vw'
loop_
_symmetry_equiv_pos_site_id
_symmetry_equiv_pos_as_xyz
1 x,y,z
2 1/4-x,1/4-y,z
3 x,1/4-y,1/4-z
4 1/4-x,y,1/4-z
5 x,1/2+y,1/2+z
6 1/4-x,3/4-y,1/2+z
7 x,3/4-y,3/4-z
8 1/4-x,1/2+y,3/4-z
9 1/2+x,y,1/2+z
10 3/4-x,1/4-y,1/2+z
11 1/2+x,1/4-y,3/4-z
12 3/4-x,y,3/4-z
13 1/2+x,1/2+y,z
14 3/4-x,3/4-y,z
15 1/2+x,3/4-y,1/4-z
16 3/4-x,1/2+y,1/4-z
17 -x,-y,-z
18 3/4+x,3/4+y,-z
19 -x,3/4+y,3/4+z
20 3/4+x,-y,3/4+z
21 -x,1/2-y,1/2-z
22 3/4+x,1/4+y,1/2-z
23 -x,1/4+y,1/4+z
24 3/4+x,1/2-y,1/4+z
25 1/2-x,-y,1/2-z
26 1/4+x,3/4+y,1/2-z
27 1/2-x,3/4+y,1/4+z
28 1/4+x,-y,1/4+z
29 1/2-x,1/2-y,-z
30 1/4+x,1/4+y,-z
31 1/2-x,1/4+y,3/4+z
32 1/4+x,1/2-y,3/4+z
_cell_length_a                   15.155(3)
_cell_length_b                   26.139(6)
_cell_length_c                   31.908(7)
_cell_angle_alpha                90
_cell_angle_beta                 90
_cell_angle_gamma                90
_cell_volume                     12639.9
loop_
_atom_site_label
_atom_site_type_symbol
_atom_site_fract_x
_atom_site_fract_y
_atom_site_fract_z
C9 C 0.655(2) 0.3150(12) 0.5872(10)
H6 H 0.6720 0.2902 0.5656
H7 H 0.6069 0.3365 0.5766
H8 H 0.7057 0.3365 0.5943
N2 N 0.6250 0.287(2) 0.6250
H9 H 0.6701 0.2666 0.6331
C9C C 0.595(2) 0.3150(12) 0.6628(10)
H6C H 0.5780 0.2902 0.6844
H7C H 0.6431 0.3365 0.6734
H8C H 0.5443 0.3365 0.6557
H9C H 0.5799 0.2666 0.6169
In1 In 0.3750 0.3750 0.56560(2)
O1 O 0.4887(4) 0.4119(3) 0.60175(19)
O2 O 0.3542(4) 0.4340(3) 0.6157(2)
O3 O 0.4891(4) 0.3391(3) 0.5298(2)
O4 O 0.3552(4) 0.3126(3) 0.5183(2)
C1 C 0.4367(6) 0.3106(4) 0.5095(3)
C2 C 0.4688(4) 0.2786(3) 0.47460(18)
C3 C 0.4138(3) 0.2438(3) 0.4544(2)
C4 C 0.5559(4) 0.2840(3) 0.4618(2)
C5 C 0.4460(4) 0.2145(3) 0.4215(2)
N1 N 0.3273(14) 0.2357(7) 0.4666(6)
C6 C 0.5881(3) 0.2547(3) 0.4288(2)
H1 H 0.5935 0.3078 0.4756
H2 H 0.4085 0.1908 0.4077
C7 C 0.5332(4) 0.2200(3) 0.40865(18)
H3 H 0.2950 0.2127 0.4536
H4 H 0.3046 0.2535 0.4874
H5 H 0.6477 0.2584 0.4200
C8 C 0.5649(6) 0.1870(4) 0.3733(3)
O1M O 0.2613(4) 0.3381(3) 0.60175(19)
O2M O 0.3958(4) 0.3160(3) 0.6157(2)
O3M O 0.2609(4) 0.4109(3) 0.5298(2)
O4M O 0.3948(4) 0.4374(3) 0.5183(2)
C1M C 0.3133(6) 0.4394(4) 0.5095(3)
C2M C 0.2812(4) 0.4714(3) 0.47460(18)
C3M C 0.3362(3) 0.5062(3) 0.4544(2)
C4M C 0.1941(4) 0.4660(3) 0.4618(2)
C5M C 0.3040(4) 0.5355(3) 0.4215(2)
N1M N 0.4227(14) 0.5143(7) 0.4666(6)
C6M C 0.1619(3) 0.4953(3) 0.4288(2)
H1M H 0.1565 0.4422 0.4756
H2M H 0.3415 0.5592 0.4077
C7M C 0.2168(4) 0.5300(3) 0.40865(18)
H3M H 0.4550 0.5373 0.4536
H4M H 0.4454 0.4965 0.4874
H5M H 0.1023 0.4916 0.4200
C8M C 0.1851(6) 0.5630(4) 0.3733(3)
O1R O 0.5113(4) 0.1619(3) 0.35175(19)
O2R O 0.6458(4) 0.1840(3) 0.3657(2)
O1S O 0.2387(4) 0.5881(3) 0.35175(19)
O2S O 0.1042(4) 0.5660(3) 0.3657(2)
In1R In 0.6250 0.1250 0.31560(2)
In1S In 0.1250 0.6250 0.31560(2)
loop_
_geom_bond_atom_site_label_1
_geom_bond_atom_site_label_2
_geom_bond_site_symmetry_1
_geom_bond_site_symmetry_2
In1 O1 1_555 1_555
O2 In1 1_555 1_555
O3 In1 1_555 1_555
O4 In1 1_555 1_555
C1 O3 1_555 1_555
C2 C1 1_555 1_555
C3 C2 1_555 1_555
C4 C2 1_555 1_555
C5 C3 1_555 1_555
N1 C3 1_555 1_555
C6 C4 1_555 1_555
H1 C4 1_555 1_555
H2 C5 1_555 1_555
C7 C5 1_555 1_555
H3 N1 1_555 1_555
H4 N1 1_555 1_555
H5 C6 1_555 1_555
C8 C7 1_555 1_555
C9 H6 1_555 1_555
H7 C9 1_555 1_555
H8 C9 1_555 1_555
N2 C9 1_555 1_555
H9 N2 1_555 1_555
O1M In1 1_555 1_555
O2M In1 1_555 1_555
O3M In1 1_555 1_555
O4M In1 1_555 1_555
C1M O3M 1_555 1_555
C2M C1M 1_555 1_555
C3M C2M 1_555 1_555
C4M C2M 1_555 1_555
C5M C3M 1_555 1_555
N1M C3M 1_555 1_555
C6M C4M 1_555 1_555
H1M C4M 1_555 1_555
H2M C5M 1_555 1_555
C7M C5M 1_555 1_555
H3M N1M 1_555 1_555
H4M N1M 1_555 1_555
H5M C6M 1_555 1_555
C8M C7M 1_555 1_555
O1R C8 1_555 1_555
O2R C8 1_555 1_555
O1S C8M 1_555 1_555
O2S C8M 1_555 1_555
In1R O1R 1_555 1_555
In1S O1S 1_555 1_555
C9C N2 1_555 1_555
H6C C9C 1_555 1_555
H7C C9C 1_555 1_555
H8C C9C 1_555 1_555
H9C N2 1_555 1_555
O4 C1 1_555 1_555
C6 C7 1_555 1_555
O4M C1M 1_555 1_555
C6M C7M 1_555 1_555
O2R In1R 1_555 1_555
O2S In1S 1_555 1_555

#END
