
#######################################################################
#
#                 Cambridge Crystallographic Data Centre
#                                CCDC 
#
#######################################################################
#
# If this CIF has been generated from an entry in the Cambridge 
# Structural Database, then it will include bibliographic, chemical, 
# crystal, experimental, refinement or atomic coordinate data resulting 
# from the CCDC's data processing and validation procedures.
#
#######################################################################

data_LAPLOG
_chemical_formula_moiety         '(C16 H10 In1 N2 O8 1-)n'
_symmetry_cell_setting           orthorhombic
_symmetry_space_group_name_H-M   'F d d d'
_symmetry_Int_Tables_number      70
_space_group_name_Hall           '-F 2uv 2vw'
loop_
_symmetry_equiv_pos_site_id
_symmetry_equiv_pos_as_xyz
1 x,y,z
2 1/4-x,1/4-y,z
3 x,1/4-y,1/4-z
4 1/4-x,y,1/4-z
5 x,1/2+y,1/2+z
6 1/4-x,3/4-y,1/2+z
7 x,3/4-y,3/4-z
8 1/4-x,1/2+y,3/4-z
9 1/2+x,y,1/2+z
10 3/4-x,1/4-y,1/2+z
11 1/2+x,1/4-y,3/4-z
12 3/4-x,y,3/4-z
13 1/2+x,1/2+y,z
14 3/4-x,3/4-y,z
15 1/2+x,3/4-y,1/4-z
16 3/4-x,1/2+y,1/4-z
17 -x,-y,-z
18 3/4+x,3/4+y,-z
19 -x,3/4+y,3/4+z
20 3/4+x,-y,3/4+z
21 -x,1/2-y,1/2-z
22 3/4+x,1/4+y,1/2-z
23 -x,1/4+y,1/4+z
24 3/4+x,1/2-y,1/4+z
25 1/2-x,-y,1/2-z
26 1/4+x,3/4+y,1/2-z
27 1/2-x,3/4+y,1/4+z
28 1/4+x,-y,1/4+z
29 1/2-x,1/2-y,-z
30 1/4+x,1/4+y,-z
31 1/2-x,1/4+y,3/4+z
32 1/4+x,1/2-y,3/4+z
_cell_length_a                   15.1230(7)
_cell_length_b                   23.0564(10)
_cell_length_c                   34.0427(14)
_cell_angle_alpha                90
_cell_angle_beta                 90
_cell_angle_gamma                90
_cell_volume                     11870.1
loop_
_atom_site_label
_atom_site_type_symbol
_atom_site_fract_x
_atom_site_fract_y
_atom_site_fract_z
_atom_site_U_iso_or_equiv
_atom_site_thermal_displace_type
In1 In 0.3750 0.3750 0.07344(2) 0.0287 Uani
O1 O 0.6477(3) 0.1908(2) -0.12788(11) 0.0385 Uani
O2 O 0.5116(3) 0.16877(18) -0.14375(11) 0.0380 Uani
O3 O 0.3566(3) 0.3077(2) 0.02686(13) 0.0503 Uani
O4 O 0.4912(3) 0.3344(2) 0.04031(12) 0.0457 Uani
C1 C 0.4392(4) 0.3071(3) 0.01823(17) 0.0413 Uani
C2 C 0.4698(6) 0.2791(5) -0.0180(2) 0.0390 Uiso
C3 C 0.4108(4) 0.2536(5) -0.0441(3) 0.0350 Uiso
C4 C 0.5601(5) 0.2771(6) -0.0254(3) 0.0470 Uiso
N1 N 0.3211(10) 0.2477(7) -0.0386(5) 0.0750 Uiso
C5 C 0.4421(5) 0.2262(5) -0.0777(2) 0.0330 Uiso
H1 H 0.6004 0.2945 -0.0076 0.0570 Uiso
C6 C 0.5914(4) 0.2497(5) -0.0590(3) 0.0430 Uiso
H2 H 0.2964 0.2607 -0.0169 0.0900 Uiso
H3 H 0.2885 0.2310 -0.0567 0.0900 Uiso
H4 H 0.4018 0.2088 -0.0956 0.0390 Uiso
C7 C 0.5324(5) 0.2242(4) -0.0852(2) 0.0290 Uiso
H5 H 0.6531 0.2483 -0.0641 0.0510 Uiso
C8 C 0.5655(4) 0.1938(3) -0.12134(15) 0.0350 Uani
O1M O 0.1023(3) 0.5592(2) -0.12788(11) 0.0385 Uani
O2M O 0.2384(3) 0.58123(18) -0.14375(11) 0.0380 Uani
O3M O 0.3934(3) 0.4423(2) 0.02686(13) 0.0503 Uani
O4M O 0.2588(3) 0.4156(2) 0.04031(12) 0.0457 Uani
C1M C 0.3108(4) 0.4429(3) 0.01823(17) 0.0413 Uani
C2M C 0.2802(6) 0.4709(5) -0.0180(2) 0.0390 Uiso
C3M C 0.3392(4) 0.4964(5) -0.0441(3) 0.0350 Uiso
C4M C 0.1899(5) 0.4729(6) -0.0254(3) 0.0470 Uiso
N1M N 0.4289(10) 0.5023(7) -0.0386(5) 0.0750 Uiso
C5M C 0.3079(5) 0.5238(5) -0.0777(2) 0.0330 Uiso
H1M H 0.1496 0.4555 -0.0076 0.0570 Uiso
C6M C 0.1586(4) 0.5003(5) -0.0590(3) 0.0430 Uiso
H2M H 0.4536 0.4893 -0.0169 0.0900 Uiso
H3M H 0.4615 0.5190 -0.0567 0.0900 Uiso
H4M H 0.3482 0.5412 -0.0956 0.0390 Uiso
C7M C 0.2176(5) 0.5258(4) -0.0852(2) 0.0290 Uiso
H5M H 0.0969 0.5017 -0.0641 0.0510 Uiso
C8M C 0.1845(4) 0.5562(3) -0.12134(15) 0.0350 Uani
In1R In 0.6250 0.1250 -0.17656(2) 0.0287 Uani
In1S In 0.1250 0.6250 -0.17656(2) 0.0287 Uani
O1V O 0.3523(3) 0.4408(2) 0.12212(11) 0.0385 Uani
O1W O 0.3977(3) 0.3092(2) 0.12212(11) 0.0385 Uani
O2V O 0.4884(3) 0.41877(18) 0.10625(11) 0.0380 Uani
O2W O 0.2616(3) 0.33123(18) 0.10625(11) 0.0380 Uani
loop_
_atom_site_aniso_label
_atom_site_aniso_U_11
_atom_site_aniso_U_22
_atom_site_aniso_U_33
_atom_site_aniso_U_23
_atom_site_aniso_U_13
_atom_site_aniso_U_12
In1 0.0315(4) 0.0382(4) 0.0164(4) 0.000 0.000 -0.00385(16)
O1 0.0344 0.053 0.028 -0.0065 0.0047 0.0031
O2 0.0385 0.05 0.0255 -0.0084 0.0004 0.0061
O3 0.044 0.076 0.031 -0.024 0.0083 -0.012
O4 0.039 0.068 0.03 -0.0159 0.0032 -0.0049
C1 0.039 0.055 0.03 -0.009 0.001 0.007
C8 0.036(3) 0.043(3) 0.026(3) -0.001(2) 0.000(2) -0.006(2)
O1M 0.0344 0.053 0.028 0.0065 -0.0047 0.0031
O2M 0.0385 0.05 0.0255 0.0084 -0.0004 0.0061
O3M 0.044 0.076 0.031 0.024 -0.0083 -0.012
O4M 0.039 0.068 0.03 0.0159 -0.0032 -0.0049
C1M 0.039 0.055 0.03 0.009 -0.001 0.007
C8M 0.036 0.043 0.026 0.001 0 -0.006
In1R 0.0315 0.0382 0.0164 0 0 0.00385
In1S 0.0315 0.0382 0.0164 0 0 0.00385
O1V 0.0344 0.053 0.028 -0.0065 -0.0047 -0.0031
O1W 0.0344 0.053 0.028 0.0065 0.0047 -0.0031
O2V 0.0385 0.05 0.0255 -0.0084 -0.0004 -0.0061
O2W 0.0385 0.05 0.0255 0.0084 0.0004 -0.0061
loop_
_geom_bond_atom_site_label_1
_geom_bond_atom_site_label_2
_geom_bond_site_symmetry_1
_geom_bond_site_symmetry_2
In1 O3 1_555 1_555
O1 C8 1_555 1_555
O2 C8 1_555 1_555
O3 C1 1_555 1_555
O4 In1 1_555 1_555
C1 O4 1_555 1_555
C2 C1 1_555 1_555
C3 C2 1_555 1_555
C4 C2 1_555 1_555
N1 C3 1_555 1_555
C5 C3 1_555 1_555
H1 C4 1_555 1_555
C6 C4 1_555 1_555
H2 N1 1_555 1_555
H3 N1 1_555 1_555
H4 C5 1_555 1_555
C7 C5 1_555 1_555
H5 C6 1_555 1_555
C8 C7 1_555 1_555
O1M C8M 1_555 1_555
O2M C8M 1_555 1_555
O3M In1 1_555 1_555
O4M In1 1_555 1_555
C1M O3M 1_555 1_555
C2M C1M 1_555 1_555
C3M C2M 1_555 1_555
C4M C2M 1_555 1_555
N1M C3M 1_555 1_555
C5M C3M 1_555 1_555
H1M C4M 1_555 1_555
C6M C4M 1_555 1_555
H2M N1M 1_555 1_555
H3M N1M 1_555 1_555
H4M C5M 1_555 1_555
C7M C5M 1_555 1_555
H5M C6M 1_555 1_555
C8M C7M 1_555 1_555
In1R O1 1_555 1_555
In1S O1M 1_555 1_555
O1V In1 1_555 1_555
O1W In1 1_555 1_555
O2V In1 1_555 1_555
O2W In1 1_555 1_555
O2 In1R 1_555 1_555
C6 C7 1_555 1_555
O2M In1S 1_555 1_555
O4M C1M 1_555 1_555
C6M C7M 1_555 1_555

#END
