
#######################################################################
#
#                 Cambridge Crystallographic Data Centre
#                                CCDC 
#
#######################################################################
#
# If this CIF has been generated from an entry in the Cambridge 
# Structural Database, then it will include bibliographic, chemical, 
# crystal, experimental, refinement or atomic coordinate data resulting 
# from the CCDC's data processing and validation procedures.
#
#######################################################################

data_LAPLUM
_chemical_formula_moiety         '(C18 H18 In1 N3 O8)n'
_symmetry_cell_setting           orthorhombic
_symmetry_space_group_name_H-M   'F d d d'
_symmetry_Int_Tables_number      70
_space_group_name_Hall           '-F 2uv 2vw'
loop_
_symmetry_equiv_pos_site_id
_symmetry_equiv_pos_as_xyz
1 x,y,z
2 1/4-x,1/4-y,z
3 x,1/4-y,1/4-z
4 1/4-x,y,1/4-z
5 x,1/2+y,1/2+z
6 1/4-x,3/4-y,1/2+z
7 x,3/4-y,3/4-z
8 1/4-x,1/2+y,3/4-z
9 1/2+x,y,1/2+z
10 3/4-x,1/4-y,1/2+z
11 1/2+x,1/4-y,3/4-z
12 3/4-x,y,3/4-z
13 1/2+x,1/2+y,z
14 3/4-x,3/4-y,z
15 1/2+x,3/4-y,1/4-z
16 3/4-x,1/2+y,1/4-z
17 -x,-y,-z
18 3/4+x,3/4+y,-z
19 -x,3/4+y,3/4+z
20 3/4+x,-y,3/4+z
21 -x,1/2-y,1/2-z
22 3/4+x,1/4+y,1/2-z
23 -x,1/4+y,1/4+z
24 3/4+x,1/2-y,1/4+z
25 1/2-x,-y,1/2-z
26 1/4+x,3/4+y,1/2-z
27 1/2-x,3/4+y,1/4+z
28 1/4+x,-y,1/4+z
29 1/2-x,1/2-y,-z
30 1/4+x,1/4+y,-z
31 1/2-x,1/4+y,3/4+z
32 1/4+x,1/2-y,3/4+z
_cell_length_a                   15.1046(4)
_cell_length_b                   24.5318(7)
_cell_length_c                   33.1539(9)
_cell_angle_alpha                90
_cell_angle_beta                 90
_cell_angle_gamma                90
_cell_volume                     12284.9
loop_
_atom_site_label
_atom_site_type_symbol
_atom_site_fract_x
_atom_site_fract_y
_atom_site_fract_z
N2 N 0.1250 0.468(2) 0.1250
H5 H 0.0799 0.4906 0.1326
C9 C 0.095(3) 0.4412(15) 0.0878(10)
H6 H 0.0688 0.4683 0.0695
H7 H 0.0499 0.4137 0.0945
H8 H 0.1450 0.4235 0.0745
H5C H 0.1701 0.4906 0.1174
C9C C 0.155(3) 0.4412(15) 0.1622(10)
H6C H 0.1812 0.4683 0.1805
H7C H 0.2001 0.4137 0.1555
H8C H 0.1050 0.4235 0.1755
In1 In 0.3750 0.3750 0.06860(2)
O1 O 0.3558(4) 0.3098(3) 0.02182(18)
O2 O 0.4909(4) 0.3375(3) 0.03377(18)
O3 O 0.6466(4) 0.1886(3) -0.13234(18)
O4 O 0.5115(4) 0.1642(3) -0.14686(16)
N1 N 0.3365(17) 0.2149(11) -0.0235(8)
H1 H 0.3056 0.1901 -0.0365
H2 H 0.3155 0.2294 -0.0012
C1 C 0.4386(6) 0.3091(4) 0.0130(2)
C2 C 0.4708(6) 0.2772(4) -0.0218(2)
C3 C 0.5327(5) 0.2220(3) -0.0892(2)
C4 C 0.5654(5) 0.1904(3) -0.1252(2)
C5 C 0.4191(12) 0.2314(8) -0.0384(5)
C6 C 0.4498(13) 0.2070(9) -0.0742(6)
H3 H 0.4147 0.1807 -0.0879
C7 C 0.5881(14) 0.2621(9) -0.0707(6)
H4 H 0.6448 0.2708 -0.0814
C8 C 0.5553(12) 0.2882(8) -0.0361(5)
O1M O 0.3942(4) 0.4402(3) 0.02182(18)
O2M O 0.2591(4) 0.4125(3) 0.03377(18)
O3M O 0.1034(4) 0.5614(3) -0.13234(18)
O4M O 0.2385(4) 0.5858(3) -0.14686(16)
N1M N 0.4135(17) 0.5351(11) -0.0235(8)
H1M H 0.4444 0.5599 -0.0365
H2M H 0.4345 0.5206 -0.0012
C1M C 0.3114(6) 0.4409(4) 0.0130(2)
C2M C 0.2792(6) 0.4728(4) -0.0218(2)
C3M C 0.2173(5) 0.5280(3) -0.0892(2)
C4M C 0.1846(5) 0.5596(3) -0.1252(2)
C5M C 0.3309(12) 0.5186(8) -0.0384(5)
C6M C 0.3002(13) 0.5430(9) -0.0742(6)
H3M H 0.3353 0.5693 -0.0879
C7M C 0.1619(14) 0.4879(9) -0.0707(6)
H4M H 0.1052 0.4792 -0.0814
C8M C 0.1947(12) 0.4618(8) -0.0361(5)
In1R In 0.6250 0.1250 -0.18140(2)
In1S In 0.1250 0.6250 -0.18140(2)
O3V O 0.3534(4) 0.4386(3) 0.11766(18)
O3W O 0.3966(4) 0.3114(3) 0.11766(18)
O4V O 0.4885(4) 0.4142(3) 0.10314(16)
O4W O 0.2615(4) 0.3358(3) 0.10314(16)
loop_
_geom_bond_atom_site_label_1
_geom_bond_atom_site_label_2
_geom_bond_site_symmetry_1
_geom_bond_site_symmetry_2
In1 O1 1_555 1_555
O1 C1 1_555 1_555
O2 In1 1_555 1_555
O3 C4 1_555 1_555
O4 C4 1_555 1_555
N1 H1 1_555 1_555
H2 N1 1_555 1_555
C1 O2 1_555 1_555
C2 C1 1_555 1_555
C3 C4 1_555 1_555
C5 N1 1_555 1_555
C6 C3 1_555 1_555
H3 C6 1_555 1_555
C7 C3 1_555 1_555
H4 C7 1_555 1_555
C8 C2 1_555 1_555
N2 H5 1_555 1_555
C9 N2 1_555 1_555
H6 C9 1_555 1_555
H7 C9 1_555 1_555
H8 C9 1_555 1_555
O1M In1 1_555 1_555
O2M In1 1_555 1_555
O3M C4M 1_555 1_555
O4M C4M 1_555 1_555
N1M H1M 1_555 1_555
H2M N1M 1_555 1_555
C1M O1M 1_555 1_555
C2M C1M 1_555 1_555
C3M C4M 1_555 1_555
C5M N1M 1_555 1_555
C6M C3M 1_555 1_555
H3M C6M 1_555 1_555
C7M C3M 1_555 1_555
H4M C7M 1_555 1_555
C8M C2M 1_555 1_555
In1R O3 1_555 1_555
In1S O3M 1_555 1_555
O3V In1 1_555 1_555
O3W In1 1_555 1_555
O4V In1 1_555 1_555
O4W In1 1_555 1_555
H5C N2 1_555 1_555
C9C N2 1_555 1_555
H6C C9C 1_555 1_555
H7C C9C 1_555 1_555
H8C C9C 1_555 1_555
O4 In1R 1_555 1_555
C2 C5 1_555 1_555
C5 C6 1_555 1_555
C7 C8 1_555 1_555
O2M C1M 1_555 1_555
O4M In1S 1_555 1_555
C2M C5M 1_555 1_555
C5M C6M 1_555 1_555
C7M C8M 1_555 1_555

#END
