
#######################################################################
#
#                 Cambridge Crystallographic Data Centre
#                                CCDC 
#
#######################################################################
#
# If this CIF has been generated from an entry in the Cambridge 
# Structural Database, then it will include bibliographic, chemical, 
# crystal, experimental, refinement or atomic coordinate data resulting 
# from the CCDC's data processing and validation procedures.
#
#######################################################################

data_LAPLOG01
_chemical_formula_moiety         '(C20 H26 In1 N4 O8 1+)n'
_symmetry_cell_setting           orthorhombic
_symmetry_space_group_name_H-M   'F d d d'
_symmetry_Int_Tables_number      70
_space_group_name_Hall           '-F 2uv 2vw'
loop_
_symmetry_equiv_pos_site_id
_symmetry_equiv_pos_as_xyz
1 x,y,z
2 1/4-x,1/4-y,z
3 x,1/4-y,1/4-z
4 1/4-x,y,1/4-z
5 x,1/2+y,1/2+z
6 1/4-x,3/4-y,1/2+z
7 x,3/4-y,3/4-z
8 1/4-x,1/2+y,3/4-z
9 1/2+x,y,1/2+z
10 3/4-x,1/4-y,1/2+z
11 1/2+x,1/4-y,3/4-z
12 3/4-x,y,3/4-z
13 1/2+x,1/2+y,z
14 3/4-x,3/4-y,z
15 1/2+x,3/4-y,1/4-z
16 3/4-x,1/2+y,1/4-z
17 -x,-y,-z
18 3/4+x,3/4+y,-z
19 -x,3/4+y,3/4+z
20 3/4+x,-y,3/4+z
21 -x,1/2-y,1/2-z
22 3/4+x,1/4+y,1/2-z
23 -x,1/4+y,1/4+z
24 3/4+x,1/2-y,1/4+z
25 1/2-x,-y,1/2-z
26 1/4+x,3/4+y,1/2-z
27 1/2-x,3/4+y,1/4+z
28 1/4+x,-y,1/4+z
29 1/2-x,1/2-y,-z
30 1/4+x,1/4+y,-z
31 1/2-x,1/4+y,3/4+z
32 1/4+x,1/2-y,3/4+z
_cell_length_a                   15.3069(5)
_cell_length_b                   26.9467(8)
_cell_length_c                   31.2840(10)
_cell_angle_alpha                90
_cell_angle_beta                 90
_cell_angle_gamma                90
_cell_volume                     12903.7
loop_
_atom_site_label
_atom_site_type_symbol
_atom_site_fract_x
_atom_site_fract_y
_atom_site_fract_z
N3 N 0.3158(18) 0.5392(11) 0.0796(10)
H11 H 0.3411 0.5101 0.0715
H12 H 0.3401 0.5481 0.1050
C13 C 0.339(4) 0.577(2) 0.048(2)
H13 H 0.4024 0.5801 0.0458
H14 H 0.3151 0.5677 0.0198
H15 H 0.3139 0.6092 0.0564
C14 C 0.225(2) 0.5300(15) 0.0867(13)
H16 H 0.2179 0.5041 0.1084
H17 H 0.1964 0.5606 0.0965
H18 H 0.1976 0.5190 0.0599
N4 N 0.1250 0.4623(13) 0.1250
H19 H 0.0816 0.4824 0.1346
C15 C 0.0918(14) 0.4371(7) 0.0890(6)
H20 H 0.0722 0.4614 0.0677
H21 H 0.1377 0.4163 0.0766
H22 H 0.0424 0.4163 0.0977
H19C H 0.1684 0.4824 0.1154
C15C C 0.1582(14) 0.4371(7) 0.1610(6)
H20C H 0.1778 0.4614 0.1823
H21C H 0.1123 0.4163 0.1734
H22C H 0.2076 0.4163 0.1523
In1 In 0.3750 0.3750 0.06570(2)
O1 O 0.3963(2) 0.43611(16) 0.01764(12)
O2 O 0.2628(2) 0.41161(13) 0.02976(11)
O3 O 0.1040(2) 0.56777(14) -0.13221(12)
O4 O 0.2383(2) 0.58756(12) -0.14851(10)
C1 C 0.3151(3) 0.43843(19) 0.00915(15)
C2 C 0.2832(3) 0.4720(2) -0.02515(16)
C3 C 0.2179(3) 0.5320(2) -0.09026(16)
C4 C 0.1851(3) 0.56419(18) -0.12562(13)
N1 N 0.4211(9) 0.5206(6) -0.0295(5)
H1 H 0.4425 0.4942 -0.0162
H2 H 0.4545 0.5272 -0.0519
C5 C 0.3369(7) 0.5111(5) -0.0425(4)
C6 C 0.1976(8) 0.4634(5) -0.0412(4)
H3 H 0.1639 0.4370 -0.0297
C7 C 0.3017(7) 0.5410(5) -0.0751(4)
H4 H 0.3353 0.5674 -0.0868
C8 C 0.1619(8) 0.4929(5) -0.0736(4)
H5 H 0.1044 0.4876 -0.0840
O1M O 0.3537(2) 0.31389(16) 0.01764(12)
O2M O 0.4872(2) 0.33839(13) 0.02976(11)
O3M O 0.6460(2) 0.18223(14) -0.13221(12)
O4M O 0.5117(2) 0.16244(12) -0.14851(10)
C1M C 0.4349(3) 0.31157(19) 0.00915(15)
C2M C 0.4668(3) 0.2780(2) -0.02515(16)
C3M C 0.5321(3) 0.2180(2) -0.09026(16)
C4M C 0.5649(3) 0.18581(18) -0.12562(13)
N1M N 0.3289(9) 0.2294(6) -0.0295(5)
H1M H 0.3075 0.2558 -0.0162
H2M H 0.2955 0.2228 -0.0519
C5M C 0.4131(7) 0.2389(5) -0.0425(4)
C6M C 0.5524(8) 0.2866(5) -0.0412(4)
H3M H 0.5861 0.3130 -0.0297
C7M C 0.4483(7) 0.2090(5) -0.0751(4)
H4M H 0.4147 0.1826 -0.0868
C8M C 0.5881(8) 0.2571(5) -0.0736(4)
H5M H 0.6456 0.2624 -0.0840
In1R In 0.6250 0.1250 -0.18430(2)
In1S In 0.1250 0.6250 -0.18430(2)
O3Z O 0.3960(2) 0.31777(14) 0.11779(12)
O3AA O 0.3540(2) 0.43223(14) 0.11779(12)
O4Z O 0.2617(2) 0.33756(12) 0.10149(10)
O4AA O 0.4883(2) 0.41244(12) 0.10149(10)
loop_
_geom_bond_atom_site_label_1
_geom_bond_atom_site_label_2
_geom_bond_site_symmetry_1
_geom_bond_site_symmetry_2
In1 O1 1_555 1_555
O1 C1 1_555 1_555
O2 In1 1_555 1_555
O3 C4 1_555 1_555
O4 C4 1_555 1_555
C1 O2 1_555 1_555
C2 C1 1_555 1_555
C3 C4 1_555 1_555
N1 H1 1_555 1_555
H2 N1 1_555 1_555
C5 C2 1_555 1_555
C6 C2 1_555 1_555
H3 C6 1_555 1_555
C7 C3 1_555 1_555
H4 C7 1_555 1_555
C8 C3 1_555 1_555
H5 C8 1_555 1_555
N3 H11 1_555 1_555
H12 N3 1_555 1_555
C13 N3 1_555 1_555
H13 C13 1_555 1_555
H14 C13 1_555 1_555
H15 C13 1_555 1_555
C14 N3 1_555 1_555
H16 C14 1_555 1_555
H17 C14 1_555 1_555
H18 C14 1_555 1_555
N4 H19 1_555 1_555
C15 N4 1_555 1_555
H20 C15 1_555 1_555
H21 C15 1_555 1_555
H22 C15 1_555 1_555
O1M In1 1_555 1_555
O2M In1 1_555 1_555
O3M C4M 1_555 1_555
O4M C4M 1_555 1_555
C1M O1M 1_555 1_555
C2M C1M 1_555 1_555
C3M C4M 1_555 1_555
N1M H1M 1_555 1_555
H2M N1M 1_555 1_555
C5M C2M 1_555 1_555
C6M C2M 1_555 1_555
H3M C6M 1_555 1_555
C7M C3M 1_555 1_555
H4M C7M 1_555 1_555
C8M C3M 1_555 1_555
H5M C8M 1_555 1_555
In1R O3M 1_555 1_555
In1S O3 1_555 1_555
O3Z In1 1_555 1_555
O3AA In1 1_555 1_555
O4Z In1 1_555 1_555
O4AA In1 1_555 1_555
H19C N4 1_555 1_555
C15C N4 1_555 1_555
H20C C15C 1_555 1_555
H21C C15C 1_555 1_555
H22C C15C 1_555 1_555
O4 In1S 1_555 1_555
N1 C5 1_555 1_555
C5 C7 1_555 1_555
C6 C8 1_555 1_555
O2M C1M 1_555 1_555
O4M In1R 1_555 1_555
N1M C5M 1_555 1_555
C5M C7M 1_555 1_555
C6M C8M 1_555 1_555

#END
