
#######################################################################
#
#                 Cambridge Crystallographic Data Centre
#                                CCDC 
#
#######################################################################
#
# If this CIF has been generated from an entry in the Cambridge 
# Structural Database, then it will include bibliographic, chemical, 
# crystal, experimental, refinement or atomic coordinate data resulting 
# from the CCDC's data processing and validation procedures.
#
#######################################################################

data_LAPLEW
_chemical_formula_moiety         '(C20 H26 In1 N4 O8 1+)n'
_symmetry_cell_setting           orthorhombic
_symmetry_space_group_name_H-M   'F d d d'
_symmetry_Int_Tables_number      70
_space_group_name_Hall           '-F 2uv 2vw'
loop_
_symmetry_equiv_pos_site_id
_symmetry_equiv_pos_as_xyz
1 x,y,z
2 1/4-x,1/4-y,z
3 x,1/4-y,1/4-z
4 1/4-x,y,1/4-z
5 x,1/2+y,1/2+z
6 1/4-x,3/4-y,1/2+z
7 x,3/4-y,3/4-z
8 1/4-x,1/2+y,3/4-z
9 1/2+x,y,1/2+z
10 3/4-x,1/4-y,1/2+z
11 1/2+x,1/4-y,3/4-z
12 3/4-x,y,3/4-z
13 1/2+x,1/2+y,z
14 3/4-x,3/4-y,z
15 1/2+x,3/4-y,1/4-z
16 3/4-x,1/2+y,1/4-z
17 -x,-y,-z
18 3/4+x,3/4+y,-z
19 -x,3/4+y,3/4+z
20 3/4+x,-y,3/4+z
21 -x,1/2-y,1/2-z
22 3/4+x,1/4+y,1/2-z
23 -x,1/4+y,1/4+z
24 3/4+x,1/2-y,1/4+z
25 1/2-x,-y,1/2-z
26 1/4+x,3/4+y,1/2-z
27 1/2-x,3/4+y,1/4+z
28 1/4+x,-y,1/4+z
29 1/2-x,1/2-y,-z
30 1/4+x,1/4+y,-z
31 1/2-x,1/4+y,3/4+z
32 1/4+x,1/2-y,3/4+z
_cell_length_a                   15.2451(4)
_cell_length_b                   26.7998(8)
_cell_length_c                   31.3225(8)
_cell_angle_alpha                90
_cell_angle_beta                 90
_cell_angle_gamma                90
_cell_volume                     12797.3
loop_
_atom_site_label
_atom_site_type_symbol
_atom_site_fract_x
_atom_site_fract_y
_atom_site_fract_z
N3 N 0.1250 0.4605(13) 0.1250
H11 H 0.1686 0.4809 0.1155
C13 C 0.0905(14) 0.4350(7) 0.0875(6)
H12 H 0.0712 0.4598 0.0665
H13 H 0.1365 0.4141 0.0750
H14 H 0.0407 0.4141 0.0958
H11C H 0.0814 0.4809 0.1345
C13C C 0.1595(14) 0.4350(7) 0.1625(6)
H12C H 0.1788 0.4598 0.1835
H13C H 0.1135 0.4141 0.1750
H14C H 0.2093 0.4141 0.1542
N4 N 0.343(2) 0.572(2) 0.0501(18)
H16 H 0.3793 0.5530 0.0339
H17 H 0.3767 0.5926 0.0663
C14 C 0.291(3) 0.5391(15) 0.0786(12)
H18 H 0.3309 0.5197 0.0967
H19 H 0.2526 0.5595 0.0966
H20 H 0.2554 0.5164 0.0613
C15 C 0.287(4) 0.6028(19) 0.0216(15)
H21 H 0.3240 0.6239 0.0035
H22 H 0.2511 0.5809 0.0035
H23 H 0.2483 0.6240 0.0389
In1 In 0.3750 0.3750 0.06555(2)
O1 O 0.2623(2) 0.41140(15) 0.02959(12)
O2 O 0.3961(3) 0.43618(17) 0.01764(12)
O3 O 0.2383(2) 0.58759(13) -0.14867(11)
O4 O 0.1038(2) 0.56740(15) -0.13271(12)
N1 N 0.4309(10) 0.5005(7) -0.0448(6)
H1 H 0.4476 0.4807 -0.0234
H2 H 0.4587 0.4905 -0.0684
C1 C 0.3150(3) 0.4385(2) 0.00899(16)
C2 C 0.2828(4) 0.4718(2) -0.02527(18)
C3 C 0.3409(9) 0.4984(5) -0.0506(4)
C4 C 0.3060(8) 0.5277(6) -0.0831(5)
H3 H 0.3451 0.5458 -0.1010
C5 C 0.2177(3) 0.5317(2) -0.09056(17)
C6 C 0.1850(3) 0.56389(18) -0.12597(15)
C7 C 0.1606(8) 0.5045(5) -0.0659(4)
H4 H 0.0992 0.5059 -0.0710
C8 C 0.1944(7) 0.4746(5) -0.0329(4)
H5 H 0.1551 0.4560 -0.0155
O1M O 0.4877(2) 0.33860(15) 0.02959(12)
O2M O 0.3539(3) 0.31382(17) 0.01764(12)
O3M O 0.5117(2) 0.16241(13) -0.14867(11)
O4M O 0.6462(2) 0.18260(15) -0.13271(12)
N1M N 0.3191(10) 0.2495(7) -0.0448(6)
H1M H 0.3024 0.2693 -0.0234
H2M H 0.2913 0.2595 -0.0684
C1M C 0.4350(3) 0.3115(2) 0.00899(16)
C2M C 0.4672(4) 0.2782(2) -0.02527(18)
C3M C 0.4091(9) 0.2516(5) -0.0506(4)
C4M C 0.4440(8) 0.2223(6) -0.0831(5)
H3M H 0.4049 0.2042 -0.1010
C5M C 0.5323(3) 0.2183(2) -0.09056(17)
C6M C 0.5650(3) 0.18611(18) -0.12597(15)
C7M C 0.5894(8) 0.2455(5) -0.0659(4)
H4M H 0.6508 0.2441 -0.0710
C8M C 0.5556(7) 0.2754(5) -0.0329(4)
H5M H 0.5949 0.2940 -0.0155
In1R In 0.6250 0.1250 -0.18445(2)
In1S In 0.1250 0.6250 -0.18445(2)
O3Z O 0.2617(2) 0.33759(13) 0.10133(11)
O3AA O 0.4883(2) 0.41241(13) 0.10133(11)
O4Z O 0.3962(2) 0.31740(15) 0.11729(12)
O4AA O 0.3538(2) 0.43260(15) 0.11729(12)
loop_
_geom_bond_atom_site_label_1
_geom_bond_atom_site_label_2
_geom_bond_site_symmetry_1
_geom_bond_site_symmetry_2
In1 O1 1_555 1_555
O1 C1 1_555 1_555
O2 In1 1_555 1_555
O3 C6 1_555 1_555
O4 C6 1_555 1_555
N1 H1 1_555 1_555
H2 N1 1_555 1_555
C1 O2 1_555 1_555
C2 C1 1_555 1_555
C3 N1 1_555 1_555
C4 C3 1_555 1_555
H3 C4 1_555 1_555
C5 C4 1_555 1_555
C6 C5 1_555 1_555
C7 C5 1_555 1_555
H4 C7 1_555 1_555
C8 C2 1_555 1_555
H5 C8 1_555 1_555
N3 H11 1_555 1_555
C13 N3 1_555 1_555
H12 C13 1_555 1_555
H13 C13 1_555 1_555
H14 C13 1_555 1_555
N4 H16 1_555 1_555
H17 N4 1_555 1_555
C14 N4 1_555 1_555
H18 C14 1_555 1_555
H19 C14 1_555 1_555
H20 C14 1_555 1_555
C15 N4 1_555 1_555
H21 C15 1_555 1_555
H22 C15 1_555 1_555
H23 C15 1_555 1_555
O1M In1 1_555 1_555
O2M In1 1_555 1_555
O3M C6M 1_555 1_555
O4M C6M 1_555 1_555
N1M H1M 1_555 1_555
H2M N1M 1_555 1_555
C1M O1M 1_555 1_555
C2M C1M 1_555 1_555
C3M N1M 1_555 1_555
C4M C3M 1_555 1_555
H3M C4M 1_555 1_555
C5M C4M 1_555 1_555
C6M C5M 1_555 1_555
C7M C5M 1_555 1_555
H4M C7M 1_555 1_555
C8M C2M 1_555 1_555
H5M C8M 1_555 1_555
In1R O3M 1_555 1_555
In1S O3 1_555 1_555
O3Z In1 1_555 1_555
O3AA In1 1_555 1_555
O4Z In1 1_555 1_555
O4AA In1 1_555 1_555
H11C N3 1_555 1_555
C13C N3 1_555 1_555
H12C C13C 1_555 1_555
H13C C13C 1_555 1_555
H14C C13C 1_555 1_555
O4 In1S 1_555 1_555
C2 C3 1_555 1_555
C7 C8 1_555 1_555
O2M C1M 1_555 1_555
O4M In1R 1_555 1_555
C2M C3M 1_555 1_555
C7M C8M 1_555 1_555

#END
