
#######################################################################
#
#                 Cambridge Crystallographic Data Centre
#                                CCDC 
#
#######################################################################
#
# If this CIF has been generated from an entry in the Cambridge 
# Structural Database, then it will include bibliographic, chemical, 
# crystal, experimental, refinement or atomic coordinate data resulting 
# from the CCDC's data processing and validation procedures.
#
#######################################################################

data_LAPMEX
_chemical_formula_moiety         '(C16 H10 In1 N2 O8 1-)n'
_symmetry_cell_setting           orthorhombic
_symmetry_space_group_name_H-M   'F d d d'
_symmetry_Int_Tables_number      70
_space_group_name_Hall           '-F 2uv 2vw'
loop_
_symmetry_equiv_pos_site_id
_symmetry_equiv_pos_as_xyz
1 x,y,z
2 1/4-x,1/4-y,z
3 x,1/4-y,1/4-z
4 1/4-x,y,1/4-z
5 x,1/2+y,1/2+z
6 1/4-x,3/4-y,1/2+z
7 x,3/4-y,3/4-z
8 1/4-x,1/2+y,3/4-z
9 1/2+x,y,1/2+z
10 3/4-x,1/4-y,1/2+z
11 1/2+x,1/4-y,3/4-z
12 3/4-x,y,3/4-z
13 1/2+x,1/2+y,z
14 3/4-x,3/4-y,z
15 1/2+x,3/4-y,1/4-z
16 3/4-x,1/2+y,1/4-z
17 -x,-y,-z
18 3/4+x,3/4+y,-z
19 -x,3/4+y,3/4+z
20 3/4+x,-y,3/4+z
21 -x,1/2-y,1/2-z
22 3/4+x,1/4+y,1/2-z
23 -x,1/4+y,1/4+z
24 3/4+x,1/2-y,1/4+z
25 1/2-x,-y,1/2-z
26 1/4+x,3/4+y,1/2-z
27 1/2-x,3/4+y,1/4+z
28 1/4+x,-y,1/4+z
29 1/2-x,1/2-y,-z
30 1/4+x,1/4+y,-z
31 1/2-x,1/4+y,3/4+z
32 1/4+x,1/2-y,3/4+z
_cell_length_a                   14.9603(4)
_cell_length_b                   21.8384(6)
_cell_length_c                   34.7768(9)
_cell_angle_alpha                90
_cell_angle_beta                 90
_cell_angle_gamma                90
_cell_volume                     11361.9
loop_
_atom_site_label
_atom_site_type_symbol
_atom_site_fract_x
_atom_site_fract_y
_atom_site_fract_z
In1 In 0.8750 0.3750 0.07845(2)
O1 O 0.8597(6) 0.3027(4) 0.0333(2)
O2 O 0.9937(5) 0.3350(4) 0.0452(2)
O3 O 1.0105(6) 0.1693(4) -0.1385(2)
O4 O 1.1472(5) 0.1953(4) -0.1243(2)
C1 C 0.9401(8) 0.3052(5) 0.0240(3)
C2 C 1.0650(8) 0.1964(5) -0.1168(3)
N1 N 0.842(2) 0.2147(16) -0.0213(10)
H1 H 0.8172 0.2295 -0.0003
H2 H 0.8124 0.1886 -0.0358
C3 C 0.9756(11) 0.2725(8) -0.0105(4)
C4 C 0.9226(11) 0.2316(10) -0.0310(5)
C5 C 0.9522(12) 0.2084(9) -0.0660(5)
H3 H 0.9160 0.1805 -0.0800
C6 C 1.0348(11) 0.2261(9) -0.0805(4)
C7 C 1.0878(9) 0.2670(10) -0.0600(5)
H4 H 1.1443 0.2791 -0.0699
C8 C 1.0582(11) 0.2902(9) -0.0250(5)
O1M O 0.8903(6) 0.4473(4) 0.0333(2)
O2M O 0.7563(5) 0.4150(4) 0.0452(2)
O3M O 0.7395(6) 0.5807(4) -0.1385(2)
O4M O 0.6028(5) 0.5547(4) -0.1243(2)
C1M C 0.8099(8) 0.4448(5) 0.0240(3)
C2M C 0.6850(8) 0.5536(5) -0.1168(3)
N1M N 0.908(2) 0.5353(16) -0.0213(10)
H1M H 0.9328 0.5205 -0.0003
H2M H 0.9376 0.5614 -0.0358
C3M C 0.7744(11) 0.4775(8) -0.0105(4)
C4M C 0.8274(11) 0.5184(10) -0.0310(5)
C5M C 0.7978(12) 0.5416(9) -0.0660(5)
H3M H 0.8340 0.5695 -0.0800
C6M C 0.7152(11) 0.5239(9) -0.0805(4)
C7M C 0.6622(9) 0.4830(10) -0.0600(5)
H4M H 0.6057 0.4709 -0.0699
C8M C 0.6918(11) 0.4598(9) -0.0250(5)
In1R In 1.1250 0.1250 -0.17155(2)
In1S In 0.6250 0.6250 -0.17155(2)
O3V O 0.9895(6) 0.4193(4) 0.1115(2)
O3W O 0.7605(6) 0.3307(4) 0.1115(2)
O4V O 0.8528(5) 0.4453(4) 0.1257(2)
O4W O 0.8972(5) 0.3047(4) 0.1257(2)
loop_
_geom_bond_atom_site_label_1
_geom_bond_atom_site_label_2
_geom_bond_site_symmetry_1
_geom_bond_site_symmetry_2
In1 O1 1_555 1_555
O1 C1 1_555 1_555
O2 In1 1_555 1_555
O3 C2 1_555 1_555
O4 C2 1_555 1_555
C1 O2 1_555 1_555
C2 C6 1_555 1_555
N1 H1 1_555 1_555
H2 N1 1_555 1_555
C3 C1 1_555 1_555
C4 N1 1_555 1_555
C5 C4 1_555 1_555
H3 C5 1_555 1_555
C6 C5 1_555 1_555
C7 C6 1_555 1_555
H4 C7 1_555 1_555
C8 C3 1_555 1_555
O1M In1 1_555 1_555
O2M In1 1_555 1_555
O3M C2M 1_555 1_555
O4M C2M 1_555 1_555
C1M O1M 1_555 1_555
C2M C6M 1_555 1_555
N1M H1M 1_555 1_555
H2M N1M 1_555 1_555
C3M C1M 1_555 1_555
C4M N1M 1_555 1_555
C5M C4M 1_555 1_555
H3M C5M 1_555 1_555
C6M C5M 1_555 1_555
C7M C6M 1_555 1_555
H4M C7M 1_555 1_555
C8M C3M 1_555 1_555
In1R O3 1_555 1_555
In1S O3M 1_555 1_555
O3V In1 1_555 1_555
O3W In1 1_555 1_555
O4V In1 1_555 1_555
O4W In1 1_555 1_555
O4 In1R 1_555 1_555
C3 C4 1_555 1_555
C7 C8 1_555 1_555
O2M C1M 1_555 1_555
O4M In1S 1_555 1_555
C3M C4M 1_555 1_555
C7M C8M 1_555 1_555

#END
