
#######################################################################
#
#                 Cambridge Crystallographic Data Centre
#                                CCDC 
#
#######################################################################
#
# If this CIF has been generated from an entry in the Cambridge 
# Structural Database, then it will include bibliographic, chemical, 
# crystal, experimental, refinement or atomic coordinate data resulting 
# from the CCDC's data processing and validation procedures.
#
#######################################################################

data_LAPMUN
_chemical_formula_moiety         '(C16 H10 In1 N2 O8 1-)n'
_symmetry_cell_setting           orthorhombic
_symmetry_space_group_name_H-M   'F d d d'
_symmetry_Int_Tables_number      70
_space_group_name_Hall           '-F 2uv 2vw'
loop_
_symmetry_equiv_pos_site_id
_symmetry_equiv_pos_as_xyz
1 x,y,z
2 1/4-x,1/4-y,z
3 x,1/4-y,1/4-z
4 1/4-x,y,1/4-z
5 x,1/2+y,1/2+z
6 1/4-x,3/4-y,1/2+z
7 x,3/4-y,3/4-z
8 1/4-x,1/2+y,3/4-z
9 1/2+x,y,1/2+z
10 3/4-x,1/4-y,1/2+z
11 1/2+x,1/4-y,3/4-z
12 3/4-x,y,3/4-z
13 1/2+x,1/2+y,z
14 3/4-x,3/4-y,z
15 1/2+x,3/4-y,1/4-z
16 3/4-x,1/2+y,1/4-z
17 -x,-y,-z
18 3/4+x,3/4+y,-z
19 -x,3/4+y,3/4+z
20 3/4+x,-y,3/4+z
21 -x,1/2-y,1/2-z
22 3/4+x,1/4+y,1/2-z
23 -x,1/4+y,1/4+z
24 3/4+x,1/2-y,1/4+z
25 1/2-x,-y,1/2-z
26 1/4+x,3/4+y,1/2-z
27 1/2-x,3/4+y,1/4+z
28 1/4+x,-y,1/4+z
29 1/2-x,1/2-y,-z
30 1/4+x,1/4+y,-z
31 1/2-x,1/4+y,3/4+z
32 1/4+x,1/2-y,3/4+z
_cell_length_a                   15.0954(14)
_cell_length_b                   25.789(2)
_cell_length_c                   32.274(3)
_cell_angle_alpha                90
_cell_angle_beta                 90
_cell_angle_gamma                90
_cell_volume                     12564.1
loop_
_atom_site_label
_atom_site_type_symbol
_atom_site_fract_x
_atom_site_fract_y
_atom_site_fract_z
In1 In 0.8750 0.3750 0.06641(2)
O1 O 0.8529(4) 0.4361(2) 0.11610(17)
O2 O 0.9883(4) 0.4130(2) 0.10224(16)
O3 O 1.0091(3) 0.5882(2) 0.28120(16)
O4 O 1.1445(3) 0.5623(3) 0.26929(17)
C1 C 0.9353(5) 0.4384(3) 0.1238(2)
C2 C 1.0621(5) 0.5610(3) 0.2606(2)
N1 N 1.1801(15) 0.4946(11) 0.2102(7)
H1 H 1.2050 0.5120 0.2306
H2 H 1.2118 0.4730 0.1952
C3 C 0.9661(8) 0.4761(6) 0.1572(4)
C4 C 1.0547(7) 0.4723(6) 0.1685(4)
H3 H 1.0933 0.4498 0.1537
C5 C 1.0869(5) 0.5014(6) 0.2015(4)
C6 C 1.0305(7) 0.5343(5) 0.2232(3)
C7 C 0.9419(7) 0.5380(6) 0.2118(5)
C8 C 0.9097(6) 0.5089(7) 0.1789(5)
H4 H 0.8491 0.5115 0.1711
O1M O 0.8971(4) 0.3139(2) 0.11610(17)
O2M O 0.7617(4) 0.3370(2) 0.10224(16)
O3M O 0.7409(3) 0.1618(2) 0.28120(16)
O4M O 0.6055(3) 0.1877(3) 0.26929(17)
C1M C 0.8147(5) 0.3116(3) 0.1238(2)
C2M C 0.6879(5) 0.1890(3) 0.2606(2)
N1M N 0.5699(15) 0.2554(11) 0.2102(7)
H1M H 0.5450 0.2380 0.2306
H2M H 0.5382 0.2770 0.1952
C3M C 0.7839(8) 0.2739(6) 0.1572(4)
C4M C 0.6953(7) 0.2777(6) 0.1685(4)
H3M H 0.6567 0.3002 0.1537
C5M C 0.6631(5) 0.2486(6) 0.2015(4)
C6M C 0.7195(7) 0.2157(5) 0.2232(3)
C7M C 0.8081(7) 0.2120(6) 0.2118(5)
C8M C 0.8403(6) 0.2411(7) 0.1789(5)
H4M H 0.9009 0.2385 0.1711
In1V In 1.1250 0.6250 0.31641(2)
In1W In 0.6250 0.1250 0.31641(2)
O3R O 0.9909(3) 0.3382(2) 0.03120(16)
O3S O 0.7591(3) 0.4118(2) 0.03120(16)
O4R O 0.8555(3) 0.3123(3) 0.01929(17)
O4S O 0.8945(3) 0.4377(3) 0.01929(17)
loop_
_geom_bond_atom_site_label_1
_geom_bond_atom_site_label_2
_geom_bond_site_symmetry_1
_geom_bond_site_symmetry_2
In1 O1 1_555 1_555
O1 C1 1_555 1_555
O2 In1 1_555 1_555
O3 C2 1_555 1_555
O4 C2 1_555 1_555
C1 O2 1_555 1_555
C2 C6 1_555 1_555
N1 H1 1_555 1_555
H2 N1 1_555 1_555
C3 C1 1_555 1_555
C4 C3 1_555 1_555
H3 C4 1_555 1_555
C5 N1 1_555 1_555
C6 C5 1_555 1_555
C7 C6 1_555 1_555
C8 C3 1_555 1_555
H4 C8 1_555 1_555
O1M In1 1_555 1_555
O2M In1 1_555 1_555
O3M C2M 1_555 1_555
O4M C2M 1_555 1_555
C1M O1M 1_555 1_555
C2M C6M 1_555 1_555
N1M H1M 1_555 1_555
H2M N1M 1_555 1_555
C3M C1M 1_555 1_555
C4M C3M 1_555 1_555
H3M C4M 1_555 1_555
C5M N1M 1_555 1_555
C6M C5M 1_555 1_555
C7M C6M 1_555 1_555
C8M C3M 1_555 1_555
H4M C8M 1_555 1_555
In1V O3 1_555 1_555
In1W O3M 1_555 1_555
O3R In1 1_555 1_555
O3S In1 1_555 1_555
O4R In1 1_555 1_555
O4S In1 1_555 1_555
O4 In1V 1_555 1_555
C4 C5 1_555 1_555
C7 C8 1_555 1_555
O2M C1M 1_555 1_555
O4M In1W 1_555 1_555
C4M C5M 1_555 1_555
C7M C8M 1_555 1_555

#END
