
#######################################################################
#
#                 Cambridge Crystallographic Data Centre
#                                CCDC 
#
#######################################################################
#
# If this CIF has been generated from an entry in the Cambridge 
# Structural Database, then it will include bibliographic, chemical, 
# crystal, experimental, refinement or atomic coordinate data resulting 
# from the CCDC's data processing and validation procedures.
#
#######################################################################

data_LAPMAT
_chemical_formula_moiety         '(C16 H10 In1 N2 O8 1-)n'
_symmetry_cell_setting           orthorhombic
_symmetry_space_group_name_H-M   'F d d d'
_symmetry_Int_Tables_number      70
_space_group_name_Hall           '-F 2uv 2vw'
loop_
_symmetry_equiv_pos_site_id
_symmetry_equiv_pos_as_xyz
1 x,y,z
2 1/4-x,1/4-y,z
3 x,1/4-y,1/4-z
4 1/4-x,y,1/4-z
5 x,1/2+y,1/2+z
6 1/4-x,3/4-y,1/2+z
7 x,3/4-y,3/4-z
8 1/4-x,1/2+y,3/4-z
9 1/2+x,y,1/2+z
10 3/4-x,1/4-y,1/2+z
11 1/2+x,1/4-y,3/4-z
12 3/4-x,y,3/4-z
13 1/2+x,1/2+y,z
14 3/4-x,3/4-y,z
15 1/2+x,3/4-y,1/4-z
16 3/4-x,1/2+y,1/4-z
17 -x,-y,-z
18 3/4+x,3/4+y,-z
19 -x,3/4+y,3/4+z
20 3/4+x,-y,3/4+z
21 -x,1/2-y,1/2-z
22 3/4+x,1/4+y,1/2-z
23 -x,1/4+y,1/4+z
24 3/4+x,1/2-y,1/4+z
25 1/2-x,-y,1/2-z
26 1/4+x,3/4+y,1/2-z
27 1/2-x,3/4+y,1/4+z
28 1/4+x,-y,1/4+z
29 1/2-x,1/2-y,-z
30 1/4+x,1/4+y,-z
31 1/2-x,1/4+y,3/4+z
32 1/4+x,1/2-y,3/4+z
_cell_length_a                   15.151(4)
_cell_length_b                   23.282(7)
_cell_length_c                   33.961(14)
_cell_angle_alpha                90
_cell_angle_beta                 90
_cell_angle_gamma                90
_cell_volume                     11979.6
loop_
_atom_site_label
_atom_site_type_symbol
_atom_site_fract_x
_atom_site_fract_y
_atom_site_fract_z
O1 O 0.4887(3) 0.4176(2) 0.10521(15)
O2 O 0.3535(4) 0.4404(2) 0.12052(15)
O3 O 0.6433(4) 0.5580(3) 0.27554(18)
O4 O 0.5088(4) 0.5851(3) 0.28857(16)
C1 C 0.4348(5) 0.4431(3) 0.1276(2)
C2 C 0.4667(12) 0.4777(9) 0.1626(6)
C3 C 0.4105(6) 0.5068(4) 0.1862(3)
C4 C 0.5575(11) 0.4756(9) 0.1718(5)
C5 C 0.4428(5) 0.5337(4) 0.2201(2)
H1 H 0.3525 0.5144 0.1771
H2 H 0.5969 0.4555 0.1550
C6 C 0.5900(10) 0.5026(9) 0.2054(5)
C7 C 0.5312(14) 0.5337(11) 0.2298(7)
C8 C 0.5614(5) 0.5572(4) 0.2669(2)
N1 N 0.6785(15) 0.4943(11) 0.2111(7)
H3 H 0.7089 0.4735 0.1942
H4 H 0.7050 0.5098 0.2316
In1 In 0.3750 0.3750 0.07207(2)
O1M O 0.2613(3) 0.3324(2) 0.10521(15)
O2M O 0.3965(4) 0.3096(2) 0.12052(15)
O3M O 0.1067(4) 0.1920(3) 0.27554(18)
O4M O 0.2412(4) 0.1649(3) 0.28857(16)
C1M C 0.3152(5) 0.3069(3) 0.1276(2)
C2M C 0.2833(12) 0.2723(9) 0.1626(6)
C3M C 0.3395(6) 0.2432(4) 0.1862(3)
C4M C 0.1925(11) 0.2744(9) 0.1718(5)
C5M C 0.3072(5) 0.2163(4) 0.2201(2)
H1M H 0.3975 0.2356 0.1771
H2M H 0.1531 0.2945 0.1550
C6M C 0.1600(10) 0.2474(9) 0.2054(5)
C7M C 0.2188(14) 0.2163(11) 0.2298(7)
C8M C 0.1886(5) 0.1928(4) 0.2669(2)
N1M N 0.0715(15) 0.2557(11) 0.2111(7)
H3M H 0.0411 0.2765 0.1942
H4M H 0.0450 0.2402 0.2316
O3R O 0.3567(4) 0.3080(3) 0.02554(18)
O3S O 0.3933(4) 0.4420(3) 0.02554(18)
O4R O 0.4912(4) 0.3351(3) 0.03857(16)
O4S O 0.2588(4) 0.4149(3) 0.03857(16)
In1V In 0.6250 0.6250 0.32207(2)
In1W In 0.1250 0.1250 0.32207(2)
loop_
_geom_bond_atom_site_label_1
_geom_bond_atom_site_label_2
_geom_bond_site_symmetry_1
_geom_bond_site_symmetry_2
O1 C1 1_555 1_555
O2 C1 1_555 1_555
O3 C8 1_555 1_555
O4 C8 1_555 1_555
C1 C2 1_555 1_555
C2 C3 1_555 1_555
C3 C5 1_555 1_555
C4 C2 1_555 1_555
C5 C7 1_555 1_555
H1 C3 1_555 1_555
H2 C4 1_555 1_555
C6 C4 1_555 1_555
C7 C6 1_555 1_555
C8 C7 1_555 1_555
N1 C6 1_555 1_555
H3 N1 1_555 1_555
H4 N1 1_555 1_555
In1 O1 1_555 1_555
O1M In1 1_555 1_555
O2M In1 1_555 1_555
O3M C8M 1_555 1_555
O4M C8M 1_555 1_555
C1M O1M 1_555 1_555
C2M C1M 1_555 1_555
C3M C2M 1_555 1_555
C4M C2M 1_555 1_555
C5M C3M 1_555 1_555
H1M C3M 1_555 1_555
H2M C4M 1_555 1_555
C6M C4M 1_555 1_555
C7M C5M 1_555 1_555
C8M C7M 1_555 1_555
N1M C6M 1_555 1_555
H3M N1M 1_555 1_555
H4M N1M 1_555 1_555
O3R In1 1_555 1_555
O3S In1 1_555 1_555
O4R In1 1_555 1_555
O4S In1 1_555 1_555
In1V O3 1_555 1_555
In1W O3M 1_555 1_555
O2 In1 1_555 1_555
O4 In1V 1_555 1_555
O2M C1M 1_555 1_555
O4M In1W 1_555 1_555
C6M C7M 1_555 1_555

#END
