
#######################################################################
#
#                 Cambridge Crystallographic Data Centre
#                                CCDC 
#
#######################################################################
#
# If this CIF has been generated from an entry in the Cambridge 
# Structural Database, then it will include bibliographic, chemical, 
# crystal, experimental, refinement or atomic coordinate data resulting 
# from the CCDC's data processing and validation procedures.
#
#######################################################################

data_LAPMIB
_chemical_formula_moiety         '(C16 H10 In1 N2 O8 1-)n'
_symmetry_cell_setting           orthorhombic
_symmetry_space_group_name_H-M   'F d d d'
_symmetry_Int_Tables_number      70
_space_group_name_Hall           '-F 2uv 2vw'
loop_
_symmetry_equiv_pos_site_id
_symmetry_equiv_pos_as_xyz
1 x,y,z
2 1/4-x,1/4-y,z
3 x,1/4-y,1/4-z
4 1/4-x,y,1/4-z
5 x,1/2+y,1/2+z
6 1/4-x,3/4-y,1/2+z
7 x,3/4-y,3/4-z
8 1/4-x,1/2+y,3/4-z
9 1/2+x,y,1/2+z
10 3/4-x,1/4-y,1/2+z
11 1/2+x,1/4-y,3/4-z
12 3/4-x,y,3/4-z
13 1/2+x,1/2+y,z
14 3/4-x,3/4-y,z
15 1/2+x,3/4-y,1/4-z
16 3/4-x,1/2+y,1/4-z
17 -x,-y,-z
18 3/4+x,3/4+y,-z
19 -x,3/4+y,3/4+z
20 3/4+x,-y,3/4+z
21 -x,1/2-y,1/2-z
22 3/4+x,1/4+y,1/2-z
23 -x,1/4+y,1/4+z
24 3/4+x,1/2-y,1/4+z
25 1/2-x,-y,1/2-z
26 1/4+x,3/4+y,1/2-z
27 1/2-x,3/4+y,1/4+z
28 1/4+x,-y,1/4+z
29 1/2-x,1/2-y,-z
30 1/4+x,1/4+y,-z
31 1/2-x,1/4+y,3/4+z
32 1/4+x,1/2-y,3/4+z
_cell_length_a                   14.900(3)
_cell_length_b                   21.816(5)
_cell_length_c                   34.796(7)
_cell_angle_alpha                90
_cell_angle_beta                 90
_cell_angle_gamma                90
_cell_volume                     11310.7
loop_
_atom_site_label
_atom_site_type_symbol
_atom_site_fract_x
_atom_site_fract_y
_atom_site_fract_z
_atom_site_U_iso_or_equiv
_atom_site_thermal_displace_type
In1 In 0.3750 0.3750 0.08006(3) 0.0629 Uani
O1 O 0.3964(7) 0.3040(5) 0.1269(3) 0.0753 Uani
O2 O 0.2604(7) 0.3307(5) 0.1131(3) 0.0780 Uani
O3 O 0.3919(7) 0.4461(5) 0.0353(3) 0.0847 Uani
O4 O 0.2562(6) 0.4152(5) 0.0474(2) 0.0810 Uani
C1 C 0.3123(13) 0.4451(7) 0.0257(4) 0.0787 Uani
C2 C 0.2763(15) 0.4799(16) -0.0090(7) 0.0580 Uiso
C3 C 0.1900(8) 0.4652(5) -0.0215(4) 0.0790 Uiso
C4 C 0.3275(18) 0.5197(15) -0.0301(8) 0.0690 Uiso
H1 H 0.1522 0.4389 -0.0070 0.0950 Uiso
C5 C 0.1614(8) 0.4905(6) -0.0561(4) 0.0970 Uiso
N1 N 0.413(2) 0.5424(18) -0.0178(10) 0.1360 Uiso
C6 C 0.295(2) 0.5442(14) -0.0629(9) 0.0870 Uiso
H2 H 0.1037 0.4795 -0.0655 0.1170 Uiso
C7 C 0.2127(19) 0.5311(14) -0.0775(7) 0.0660 Uiso
H3 H 0.4407 0.5706 -0.0314 0.1630 Uiso
H4 H 0.4376 0.5282 0.0033 0.1630 Uiso
H5 H 0.3319 0.5723 -0.0765 0.1040 Uiso
C8 C 0.1853(11) 0.5528(6) -0.1152(4) 0.0643 Uani
O1M O 0.3536(7) 0.4460(5) 0.1269(3) 0.0753 Uani
O2M O 0.4896(7) 0.4193(5) 0.1131(3) 0.0780 Uani
O3M O 0.3581(7) 0.3039(5) 0.0353(3) 0.0847 Uani
O4M O 0.4938(6) 0.3348(5) 0.0474(2) 0.0810 Uani
C1M C 0.4377(13) 0.3049(7) 0.0257(4) 0.0787 Uani
C2M C 0.4737(15) 0.2701(16) -0.0090(7) 0.0580 Uiso
C3M C 0.5600(8) 0.2848(5) -0.0215(4) 0.0790 Uiso
C4M C 0.4225(18) 0.2303(15) -0.0301(8) 0.0690 Uiso
H1M H 0.5978 0.3111 -0.0070 0.0950 Uiso
C5M C 0.5886(8) 0.2595(6) -0.0561(4) 0.0970 Uiso
N1M N 0.337(2) 0.2076(18) -0.0178(10) 0.1360 Uiso
C6M C 0.455(2) 0.2058(14) -0.0629(9) 0.0870 Uiso
H2M H 0.6463 0.2705 -0.0655 0.1170 Uiso
C7M C 0.5373(19) 0.2189(14) -0.0775(7) 0.0660 Uiso
H3M H 0.3093 0.1794 -0.0314 0.1630 Uiso
H4M H 0.3124 0.2218 0.0033 0.1630 Uiso
H5M H 0.4181 0.1777 -0.0765 0.1040 Uiso
C8M C 0.5647(11) 0.1972(6) -0.1152(4) 0.0643 Uani
O1DA O 0.1036(7) 0.5540(5) -0.1231(3) 0.0753 Uani
O2DA O 0.2396(7) 0.5807(5) -0.1369(3) 0.0780 Uani
O1EA O 0.6464(7) 0.1960(5) -0.1231(3) 0.0753 Uani
O2EA O 0.5104(7) 0.1693(5) -0.1369(3) 0.0780 Uani
In1S In 0.1250 0.6250 -0.16994(3) 0.0629 Uani
In1R In 0.6250 0.1250 -0.16994(3) 0.0629 Uani
loop_
_atom_site_aniso_label
_atom_site_aniso_U_11
_atom_site_aniso_U_22
_atom_site_aniso_U_33
_atom_site_aniso_U_23
_atom_site_aniso_U_13
_atom_site_aniso_U_12
In1 0.0806(12) 0.0811(11) 0.0269(7) 0.000 0.000 -0.0031(8)
O1 0.081(7) 0.096(7) 0.049(5) 0.007(5) -0.001(5) 0.003(6)
O2 0.083(7) 0.106(8) 0.045(5) 0.021(5) 0.003(5) -0.007(6)
O3 0.086 0.117 0.051 0.028 -0.022 -0.018
O4 0.091 0.114 0.038 0.013 0.001 -0.018
C1 0.127 0.077 0.032 0.01 -0.015 0.009
C8 0.076(11) 0.073(9) 0.044(7) 0.004(6) 0.006(7) -0.006(8)
O1M 0.081 0.096 0.049 -0.007 0.001 0.003
O2M 0.083 0.106 0.045 -0.021 -0.003 -0.007
O3M 0.086 0.117 0.051 -0.028 0.022 -0.018
O4M 0.091 0.114 0.038 -0.013 -0.001 -0.018
C1M 0.127 0.077 0.032 0.01 -0.015 0.009
C8M 0.076(11) 0.073(9) 0.044(7) 0.004(6) 0.006(7) -0.006(8)
O1DA 0.081(7) 0.096(7) 0.049(5) 0.007(5) -0.001(5) 0.003(6)
O2DA 0.083(7) 0.106(8) 0.045(5) 0.021(5) 0.003(5) -0.007(6)
O1EA 0.081(7) 0.096(7) 0.049(5) 0.007(5) -0.001(5) 0.003(6)
O2EA 0.083(7) 0.106(8) 0.045(5) 0.021(5) 0.003(5) -0.007(6)
In1S 0.0806(12) 0.0811(11) 0.0269(7) 0.000 0.000 -0.0031(8)
In1R 0.0806(12) 0.0811(11) 0.0269(7) 0.000 0.000 -0.0031(8)
loop_
_geom_bond_atom_site_label_1
_geom_bond_atom_site_label_2
_geom_bond_site_symmetry_1
_geom_bond_site_symmetry_2
In1 O1 1_555 1_555
O2 In1 1_555 1_555
O3 In1 1_555 1_555
O4 In1 1_555 1_555
C1 O3 1_555 1_555
C2 C1 1_555 1_555
C3 C2 1_555 1_555
C4 C2 1_555 1_555
H1 C3 1_555 1_555
C5 C3 1_555 1_555
N1 C4 1_555 1_555
C6 C4 1_555 1_555
H2 C5 1_555 1_555
C7 C5 1_555 1_555
H3 N1 1_555 1_555
H4 N1 1_555 1_555
H5 C6 1_555 1_555
C8 C7 1_555 1_555
O1M In1 1_555 1_555
O2M In1 1_555 1_555
O3M In1 1_555 1_555
O4M In1 1_555 1_555
C1M O3M 1_555 1_555
C2M C1M 1_555 1_555
C3M C2M 1_555 1_555
C4M C2M 1_555 1_555
H1M C3M 1_555 1_555
C5M C3M 1_555 1_555
N1M C4M 1_555 1_555
C6M C4M 1_555 1_555
H2M C5M 1_555 1_555
C7M C5M 1_555 1_555
H3M N1M 1_555 1_555
H4M N1M 1_555 1_555
H5M C6M 1_555 1_555
C8M C7M 1_555 1_555
O1DA C8 1_555 1_555
O2DA C8 1_555 1_555
O1EA C8M 1_555 1_555
O2EA C8M 1_555 1_555
In1S O1DA 1_555 1_555
In1R O1EA 1_555 1_555
O4 C1 1_555 1_555
C6 C7 1_555 1_555
O4M C1M 1_555 1_555
C6M C7M 1_555 1_555
O2DA In1S 1_555 1_555
O2EA In1R 1_555 1_555

#END
