
#######################################################################
#
#                 Cambridge Crystallographic Data Centre
#                                CCDC 
#
#######################################################################
#
# If this CIF has been generated from an entry in the Cambridge 
# Structural Database, then it will include bibliographic, chemical, 
# crystal, experimental, refinement or atomic coordinate data resulting 
# from the CCDC's data processing and validation procedures.
#
#######################################################################

data_LAPNUO
_chemical_formula_moiety         '(C16 H10 In1 N2 O8 1-)n'
_symmetry_cell_setting           orthorhombic
_symmetry_space_group_name_H-M   'F d d d'
_symmetry_Int_Tables_number      70
_space_group_name_Hall           '-F 2uv 2vw'
loop_
_symmetry_equiv_pos_site_id
_symmetry_equiv_pos_as_xyz
1 x,y,z
2 1/4-x,1/4-y,z
3 x,1/4-y,1/4-z
4 1/4-x,y,1/4-z
5 x,1/2+y,1/2+z
6 1/4-x,3/4-y,1/2+z
7 x,3/4-y,3/4-z
8 1/4-x,1/2+y,3/4-z
9 1/2+x,y,1/2+z
10 3/4-x,1/4-y,1/2+z
11 1/2+x,1/4-y,3/4-z
12 3/4-x,y,3/4-z
13 1/2+x,1/2+y,z
14 3/4-x,3/4-y,z
15 1/2+x,3/4-y,1/4-z
16 3/4-x,1/2+y,1/4-z
17 -x,-y,-z
18 3/4+x,3/4+y,-z
19 -x,3/4+y,3/4+z
20 3/4+x,-y,3/4+z
21 -x,1/2-y,1/2-z
22 3/4+x,1/4+y,1/2-z
23 -x,1/4+y,1/4+z
24 3/4+x,1/2-y,1/4+z
25 1/2-x,-y,1/2-z
26 1/4+x,3/4+y,1/2-z
27 1/2-x,3/4+y,1/4+z
28 1/4+x,-y,1/4+z
29 1/2-x,1/2-y,-z
30 1/4+x,1/4+y,-z
31 1/2-x,1/4+y,3/4+z
32 1/4+x,1/2-y,3/4+z
_cell_length_a                   15.0597(5)
_cell_length_b                   26.9731(9)
_cell_length_c                   31.2339(10)
_cell_angle_alpha                90
_cell_angle_beta                 90
_cell_angle_gamma                90
_cell_volume                     12687.4
loop_
_atom_site_label
_atom_site_type_symbol
_atom_site_fract_x
_atom_site_fract_y
_atom_site_fract_z
_atom_site_U_iso_or_equiv
_atom_site_thermal_displace_type
In1 In 0.8750 0.3750 0.07050(2) 0.0602 Uani
O1 O 0.8540(6) 0.4341(4) 0.1212(3) 0.0910 Uani
O2 O 0.9895(6) 0.4107(3) 0.1076(2) 0.0880 Uani
O3 O 1.0111(5) 0.5877(3) 0.2851(2) 0.0917 Uani
O4 O 1.1475(6) 0.5650(4) 0.2721(3) 0.1003 Uani
C1 C 0.9368(9) 0.4368(4) 0.1281(3) 0.0777 Uani
C2 C 1.0653(9) 0.5613(5) 0.2642(4) 0.0893 Uani
C3 C 1.0319(7) 0.5284(4) 0.2296(3) 0.0927 Uani
C4 C 0.9688(7) 0.4695(4) 0.1632(3) 0.0880 Uani
N1 N 1.176(2) 0.4828(12) 0.2267(11) 0.2070 Uiso
H1 H 1.2078 0.4598 0.2155 0.2490 Uiso
H2 H 1.1971 0.5011 0.2467 0.2490 Uiso
C5 C 0.9114(13) 0.5061(7) 0.1819(6) 0.0790 Uiso
H3 H 0.8532 0.5103 0.1726 0.0950 Uiso
C6 C 0.9467(11) 0.5345(7) 0.2140(6) 0.0720 Uiso
H4 H 0.9115 0.5593 0.2259 0.0860 Uiso
C7 C 1.0863(13) 0.4907(7) 0.2118(6) 0.0820 Uiso
C8 C 1.0526(13) 0.4616(8) 0.1798(6) 0.0850 Uiso
H5 H 1.0869 0.4358 0.1690 0.1020 Uiso
O1M O 0.8960(6) 0.3159(4) 0.1212(3) 0.0910 Uani
O2M O 0.7605(6) 0.3393(3) 0.1076(2) 0.0880 Uani
O3M O 0.7389(5) 0.1623(3) 0.2851(2) 0.0917 Uani
O4M O 0.6025(6) 0.1850(4) 0.2721(3) 0.1003 Uani
C1M C 0.8132(9) 0.3132(4) 0.1281(3) 0.0777 Uani
C2M C 0.6847(9) 0.1887(5) 0.2642(4) 0.0893 Uani
C3M C 0.7181(7) 0.2216(4) 0.2296(3) 0.0927 Uani
C4M C 0.7812(7) 0.2805(4) 0.1632(3) 0.0880 Uani
N1M N 0.574(2) 0.2672(12) 0.2267(11) 0.2070 Uiso
H1M H 0.5422 0.2902 0.2155 0.2490 Uiso
H2M H 0.5529 0.2489 0.2467 0.2490 Uiso
C5M C 0.8386(13) 0.2439(7) 0.1819(6) 0.0790 Uiso
H3M H 0.8968 0.2397 0.1726 0.0950 Uiso
C6M C 0.8033(11) 0.2155(7) 0.2140(6) 0.0720 Uiso
H4M H 0.8385 0.1907 0.2259 0.0860 Uiso
C7M C 0.6637(13) 0.2593(7) 0.2118(6) 0.0820 Uiso
C8M C 0.6974(13) 0.2884(8) 0.1798(6) 0.0850 Uiso
H5M H 0.6631 0.3142 0.1690 0.1020 Uiso
In1V In 1.1250 0.6250 0.32050(2) 0.0602 Uani
In1W In 0.6250 0.1250 0.32050(2) 0.0602 Uani
O3R O 0.9889(5) 0.3377(3) 0.0351(2) 0.0917 Uani
O3S O 0.7611(5) 0.4123(3) 0.0351(2) 0.0917 Uani
O4R O 0.8525(6) 0.3150(4) 0.0221(3) 0.1003 Uani
O4S O 0.8975(6) 0.4350(4) 0.0221(3) 0.1003 Uani
loop_
_atom_site_aniso_label
_atom_site_aniso_U_11
_atom_site_aniso_U_22
_atom_site_aniso_U_33
_atom_site_aniso_U_23
_atom_site_aniso_U_13
_atom_site_aniso_U_12
In1 0.0648(7) 0.0703(7) 0.0456(6) 0.000 0.000 -0.0025(4)
O1 0.087 0.105 0.081 -0.024 -0.001 -0.012
O2 0.097 0.098 0.069 -0.019 0.005 -0.009
O3 0.086 0.114 0.075 -0.032 0 -0.003
O4 0.086 0.131 0.084 -0.046 -0.008 0
C1 0.083(7) 0.077(7) 0.073(7) -0.010(5) 0.011(6) -0.012(6)
C2 0.098 0.103 0.067 -0.02 0.004 0.012
C3 0.082(7) 0.109(9) 0.087(8) -0.041(7) -0.002(6) 0.004(6)
C4 0.084(7) 0.108(9) 0.072(7) -0.018(6) 0.001(6) 0.001(6)
O1M 0.087 0.105 0.081 0.024 0.001 -0.012
O2M 0.097 0.098 0.069 0.019 -0.005 -0.009
O3M 0.086 0.114 0.075 0.032 0 -0.003
O4M 0.086 0.131 0.084 0.046 0.008 0
C1M 0.083 0.077 0.073 0.01 -0.011 -0.012
C2M 0.098 0.103 0.067 0.02 -0.004 0.012
C3M 0.082 0.109 0.087 0.041 0.002 0.004
C4M 0.084 0.108 0.072 0.018 -0.001 0.001
In1V 0.0648 0.0703 0.0456 0 0 0.0025
In1W 0.0648 0.0703 0.0456 0 0 0.0025
O3R 0.086 0.114 0.075 -0.032 0 0.003
O3S 0.086 0.114 0.075 0.032 0 0.003
O4R 0.086 0.131 0.084 -0.046 0.008 0
O4S 0.086 0.131 0.084 0.046 -0.008 0
loop_
_geom_bond_atom_site_label_1
_geom_bond_atom_site_label_2
_geom_bond_site_symmetry_1
_geom_bond_site_symmetry_2
In1 O1 1_555 1_555
O1 C1 1_555 1_555
O2 In1 1_555 1_555
O3 C2 1_555 1_555
O4 C2 1_555 1_555
C1 O2 1_555 1_555
C2 C3 1_555 1_555
C3 C6 1_555 1_555
C4 C1 1_555 1_555
N1 H1 1_555 1_555
H2 N1 1_555 1_555
C5 C4 1_555 1_555
H3 C5 1_555 1_555
C6 C5 1_555 1_555
H4 C6 1_555 1_555
C7 C3 1_555 1_555
C8 C4 1_555 1_555
H5 C8 1_555 1_555
O1M In1 1_555 1_555
O2M In1 1_555 1_555
O3M C2M 1_555 1_555
O4M C2M 1_555 1_555
C1M O1M 1_555 1_555
C2M C3M 1_555 1_555
C3M C6M 1_555 1_555
C4M C1M 1_555 1_555
N1M H1M 1_555 1_555
H2M N1M 1_555 1_555
C5M C4M 1_555 1_555
H3M C5M 1_555 1_555
C6M C5M 1_555 1_555
H4M C6M 1_555 1_555
C7M C3M 1_555 1_555
C8M C4M 1_555 1_555
H5M C8M 1_555 1_555
In1V O3 1_555 1_555
In1W O3M 1_555 1_555
O3R In1 1_555 1_555
O3S In1 1_555 1_555
O4R In1 1_555 1_555
O4S In1 1_555 1_555
O4 In1V 1_555 1_555
N1 C7 1_555 1_555
C7 C8 1_555 1_555
O2M C1M 1_555 1_555
O4M In1W 1_555 1_555
N1M C7M 1_555 1_555
C7M C8M 1_555 1_555

#END
