
#######################################################################
#
#                 Cambridge Crystallographic Data Centre
#                                CCDC 
#
#######################################################################
#
# If this CIF has been generated from an entry in the Cambridge 
# Structural Database, then it will include bibliographic, chemical, 
# crystal, experimental, refinement or atomic coordinate data resulting 
# from the CCDC's data processing and validation procedures.
#
#######################################################################

data_LAPNOI
_chemical_formula_moiety         '(C16 H10 In1 N2 O8 1-)n'
_symmetry_cell_setting           orthorhombic
_symmetry_space_group_name_H-M   'F d d d'
_symmetry_Int_Tables_number      70
_space_group_name_Hall           '-F 2uv 2vw'
loop_
_symmetry_equiv_pos_site_id
_symmetry_equiv_pos_as_xyz
1 x,y,z
2 1/4-x,1/4-y,z
3 x,1/4-y,1/4-z
4 1/4-x,y,1/4-z
5 x,1/2+y,1/2+z
6 1/4-x,3/4-y,1/2+z
7 x,3/4-y,3/4-z
8 1/4-x,1/2+y,3/4-z
9 1/2+x,y,1/2+z
10 3/4-x,1/4-y,1/2+z
11 1/2+x,1/4-y,3/4-z
12 3/4-x,y,3/4-z
13 1/2+x,1/2+y,z
14 3/4-x,3/4-y,z
15 1/2+x,3/4-y,1/4-z
16 3/4-x,1/2+y,1/4-z
17 -x,-y,-z
18 3/4+x,3/4+y,-z
19 -x,3/4+y,3/4+z
20 3/4+x,-y,3/4+z
21 -x,1/2-y,1/2-z
22 3/4+x,1/4+y,1/2-z
23 -x,1/4+y,1/4+z
24 3/4+x,1/2-y,1/4+z
25 1/2-x,-y,1/2-z
26 1/4+x,3/4+y,1/2-z
27 1/2-x,3/4+y,1/4+z
28 1/4+x,-y,1/4+z
29 1/2-x,1/2-y,-z
30 1/4+x,1/4+y,-z
31 1/2-x,1/4+y,3/4+z
32 1/4+x,1/2-y,3/4+z
_cell_length_a                   15.0441(6)
_cell_length_b                   26.8210(10)
_cell_length_c                   31.4116(12)
_cell_angle_alpha                90
_cell_angle_beta                 90
_cell_angle_gamma                90
_cell_volume                     12674.5
loop_
_atom_site_label
_atom_site_type_symbol
_atom_site_fract_x
_atom_site_fract_y
_atom_site_fract_z
_atom_site_U_iso_or_equiv
_atom_site_thermal_displace_type
In1 In 0.6250 0.6250 0.32068(2) 0.0498 Uani
O1 O 0.6047(6) 0.5656(4) 0.3714(3) 0.0783 Uani
O2 O 0.7400(5) 0.5894(3) 0.3575(2) 0.0737 Uani
O3 O 0.8960(5) 0.4353(4) 0.5227(3) 0.0830 Uani
O4 O 0.7603(5) 0.4127(3) 0.5354(2) 0.0790 Uani
C1 C 0.6862(8) 0.5633(4) 0.3784(3) 0.0663 Uani
C2 C 0.8150(8) 0.4387(4) 0.5143(3) 0.0707 Uani
N1 N 0.923(2) 0.5212(13) 0.4786(11) 0.1540 Uiso
H1 H 0.9457 0.5036 0.4987 0.1850 Uiso
H2 H 0.9525 0.5453 0.4675 0.1850 Uiso
C3 C 0.8020(7) 0.5397(5) 0.4306(4) 0.0700 Uiso
H3 H 0.8366 0.5654 0.4196 0.0840 Uiso
C4 C 0.8346(6) 0.5102(5) 0.4635(4) 0.0660 Uiso
C5 C 0.7828(6) 0.4719(4) 0.4800(3) 0.0763 Uani
C6 C 0.6985(7) 0.4629(5) 0.4635(5) 0.0630 Uiso
H4 H 0.6639 0.4373 0.4745 0.0760 Uiso
C7 C 0.6660(6) 0.4924(5) 0.4306(4) 0.0760 Uiso
H5 H 0.6096 0.4864 0.4196 0.0910 Uiso
C8 C 0.7178(6) 0.5307(4) 0.4141(3) 0.0743 Uani
O1A O 0.6453(6) 0.6844(4) 0.3714(3) 0.0783 Uani
O2A O 0.5100(5) 0.6606(3) 0.3575(2) 0.0737 Uani
O3A O 0.3540(5) 0.8147(4) 0.5227(3) 0.0830 Uani
O4A O 0.4897(5) 0.8373(3) 0.5354(2) 0.0790 Uani
C1A C 0.5638(8) 0.6867(4) 0.3784(3) 0.0663 Uani
C2A C 0.4350(8) 0.8113(4) 0.5143(3) 0.0707 Uani
N1A N 0.327(2) 0.7288(13) 0.4786(11) 0.1540 Uiso
H1A H 0.3043 0.7464 0.4987 0.1850 Uiso
H2A H 0.2975 0.7047 0.4675 0.1850 Uiso
C3A C 0.4480(7) 0.7103(5) 0.4306(4) 0.0700 Uiso
H3A H 0.4134 0.6846 0.4196 0.0840 Uiso
C4A C 0.4154(6) 0.7398(5) 0.4635(4) 0.0660 Uiso
C5A C 0.4672(6) 0.7781(4) 0.4800(3) 0.0763 Uani
C6A C 0.5515(7) 0.7871(5) 0.4635(5) 0.0630 Uiso
H4A H 0.5861 0.8127 0.4745 0.0760 Uiso
C7A C 0.5840(6) 0.7576(5) 0.4306(4) 0.0760 Uiso
H5A H 0.6404 0.7636 0.4196 0.0910 Uiso
C8A C 0.5322(6) 0.7193(4) 0.4141(3) 0.0743 Uani
In1V In 0.3750 0.8750 0.57068(2) 0.0498 Uani
In1Z In 0.8750 0.3750 0.57068(2) 0.0498 Uani
O3S O 0.6460(5) 0.5647(4) 0.2727(3) 0.0830 Uani
O3DA O 0.6040(5) 0.6853(4) 0.2727(3) 0.0830 Uani
O4S O 0.5103(5) 0.5873(3) 0.2854(2) 0.0790 Uani
O4DA O 0.7397(5) 0.6627(3) 0.2854(2) 0.0790 Uani
loop_
_atom_site_aniso_label
_atom_site_aniso_U_11
_atom_site_aniso_U_22
_atom_site_aniso_U_33
_atom_site_aniso_U_23
_atom_site_aniso_U_13
_atom_site_aniso_U_12
In1 0.0531(6) 0.0587(6) 0.0375(6) 0.000 0.000 0.0029(4)
O1 0.076 0.093 0.066 0.022 -0.003 0.014
O2 0.08 0.084 0.057 0.02 0.004 0.009
O3 0.075 0.105 0.069 0.036 -0.006 0
O4 0.069 0.1 0.068 0.029 -0.002 0.002
C1 0.068(7) 0.068(6) 0.063(6) 0.006(5) 0.002(5) 0.014(5)
C2 0.078 0.078 0.056 0.014 0.002 -0.005
C5 0.065(6) 0.088(8) 0.076(7) 0.029(6) 0.001(6) 0.002(6)
C8 0.068(7) 0.090(8) 0.065(6) 0.017(6) 0.009(5) 0.007(6)
O1A 0.076 0.093 0.066 -0.022 0.003 0.014
O2A 0.08 0.084 0.057 -0.02 -0.004 0.009
O3A 0.075 0.105 0.069 -0.036 0.006 0
O4A 0.069 0.1 0.068 -0.029 0.002 0.002
C1A 0.068 0.068 0.063 -0.006 -0.002 0.014
C2A 0.078 0.078 0.056 -0.014 -0.002 -0.005
C5A 0.065 0.088 0.076 -0.029 -0.001 0.002
C8A 0.068 0.09 0.065 -0.017 -0.009 0.007
In1V 0.0531 0.0587 0.0375 0 0 -0.0029
In1Z 0.0531 0.0587 0.0375 0 0 -0.0029
O3S 0.075 0.105 0.069 -0.036 -0.006 0
O3DA 0.075 0.105 0.069 0.036 0.006 0
O4S 0.069 0.1 0.068 -0.029 -0.002 -0.002
O4DA 0.069 0.1 0.068 0.029 0.002 -0.002
loop_
_geom_bond_atom_site_label_1
_geom_bond_atom_site_label_2
_geom_bond_site_symmetry_1
_geom_bond_site_symmetry_2
In1 O1 1_555 1_555
O1 C1 1_555 1_555
O2 In1 1_555 1_555
O3 C2 1_555 1_555
O4 C2 1_555 1_555
C1 O2 1_555 1_555
C2 C5 1_555 1_555
N1 H1 1_555 1_555
H2 N1 1_555 1_555
C3 H3 1_555 1_555
C4 N1 1_555 1_555
C5 C4 1_555 1_555
C6 C5 1_555 1_555
H4 C6 1_555 1_555
C7 C6 1_555 1_555
H5 C7 1_555 1_555
C8 C1 1_555 1_555
O1A In1 1_555 1_555
O2A In1 1_555 1_555
O3A C2A 1_555 1_555
O4A C2A 1_555 1_555
C1A O1A 1_555 1_555
C2A C5A 1_555 1_555
N1A H1A 1_555 1_555
H2A N1A 1_555 1_555
C3A H3A 1_555 1_555
C4A N1A 1_555 1_555
C5A C4A 1_555 1_555
C6A C5A 1_555 1_555
H4A C6A 1_555 1_555
C7A C6A 1_555 1_555
H5A C7A 1_555 1_555
C8A C1A 1_555 1_555
In1V O3A 1_555 1_555
In1Z O3 1_555 1_555
O3S In1 1_555 1_555
O3DA In1 1_555 1_555
O4S In1 1_555 1_555
O4DA In1 1_555 1_555
O4 In1Z 1_555 1_555
C3 C4 1_555 1_555
C3 C8 1_555 1_555
C7 C8 1_555 1_555
O2A C1A 1_555 1_555
O4A In1V 1_555 1_555
C3A C4A 1_555 1_555
C3A C8A 1_555 1_555
C7A C8A 1_555 1_555

#END
