
#######################################################################
#
#                 Cambridge Crystallographic Data Centre
#                                CCDC 
#
#######################################################################
#
# If this CIF has been generated from an entry in the Cambridge 
# Structural Database, then it will include bibliographic, chemical, 
# crystal, experimental, refinement or atomic coordinate data resulting 
# from the CCDC's data processing and validation procedures.
#
#######################################################################

data_LAPNAU
_chemical_formula_moiety         '(C16 H10 In1 N2 O8 1-)n'
_symmetry_cell_setting           orthorhombic
_symmetry_space_group_name_H-M   'F d d d'
_symmetry_Int_Tables_number      70
_space_group_name_Hall           '-F 2uv 2vw'
loop_
_symmetry_equiv_pos_site_id
_symmetry_equiv_pos_as_xyz
1 x,y,z
2 1/4-x,1/4-y,z
3 x,1/4-y,1/4-z
4 1/4-x,y,1/4-z
5 x,1/2+y,1/2+z
6 1/4-x,3/4-y,1/2+z
7 x,3/4-y,3/4-z
8 1/4-x,1/2+y,3/4-z
9 1/2+x,y,1/2+z
10 3/4-x,1/4-y,1/2+z
11 1/2+x,1/4-y,3/4-z
12 3/4-x,y,3/4-z
13 1/2+x,1/2+y,z
14 3/4-x,3/4-y,z
15 1/2+x,3/4-y,1/4-z
16 3/4-x,1/2+y,1/4-z
17 -x,-y,-z
18 3/4+x,3/4+y,-z
19 -x,3/4+y,3/4+z
20 3/4+x,-y,3/4+z
21 -x,1/2-y,1/2-z
22 3/4+x,1/4+y,1/2-z
23 -x,1/4+y,1/4+z
24 3/4+x,1/2-y,1/4+z
25 1/2-x,-y,1/2-z
26 1/4+x,3/4+y,1/2-z
27 1/2-x,3/4+y,1/4+z
28 1/4+x,-y,1/4+z
29 1/2-x,1/2-y,-z
30 1/4+x,1/4+y,-z
31 1/2-x,1/4+y,3/4+z
32 1/4+x,1/2-y,3/4+z
_cell_length_a                   15.142(8)
_cell_length_b                   22.235(13)
_cell_length_c                   34.53(2)
_cell_angle_alpha                90
_cell_angle_beta                 90
_cell_angle_gamma                90
_cell_volume                     11625.6
loop_
_atom_site_label
_atom_site_type_symbol
_atom_site_fract_x
_atom_site_fract_y
_atom_site_fract_z
_atom_site_U_iso_or_equiv
_atom_site_thermal_displace_type
In1 In 0.8750 0.3750 0.57906(2) 0.0466 Uani
O1 O 0.7425(5) 0.1652(3) 0.79573(19) 0.0670 Uani
O2 O 0.6094(5) 0.1955(4) 0.7835(2) 0.0747 Uani
O3 O 0.8967(6) 0.3045(4) 0.6267(2) 0.0727 Uani
O4 O 0.7629(5) 0.3326(4) 0.6127(2) 0.0753 Uani
C1 C 0.8159(8) 0.3050(5) 0.6343(3) 0.0647 Uani
C2 C 0.7832(17) 0.2678(13) 0.6687(7) 0.0510 Uiso
C3 C 0.8391(8) 0.2416(7) 0.6935(4) 0.0830 Uani
C4 C 0.6959(14) 0.2742(12) 0.6783(6) 0.0510 Uiso
H1 H 0.8992 0.2403 0.6880 0.1000 Uiso
C5 C 0.8076(7) 0.2165(6) 0.7273(3) 0.0750 Uani
C6 C 0.6619(15) 0.2468(12) 0.7114(7) 0.0570 Uiso
H2 H 0.6590 0.2971 0.6625 0.0620 Uiso
C7 C 0.7178(17) 0.2154(13) 0.7360(8) 0.0580 Uiso
H3 H 0.8475 0.1999 0.7448 0.0900 Uiso
N1 N 0.5725(18) 0.2553(14) 0.7164(9) 0.1160 Uiso
C8 C 0.6897(7) 0.1944(5) 0.7742(3) 0.0607 Uani
H4 H 0.5428 0.2755 0.6996 0.1390 Uiso
H5 H 0.5463 0.2405 0.7363 0.1390 Uiso
O1M O 1.0075(5) 0.5848(3) 0.79573(19) 0.0670 Uani
O2M O 1.1406(5) 0.5545(4) 0.7835(2) 0.0747 Uani
O3M O 0.8533(6) 0.4455(4) 0.6267(2) 0.0727 Uani
O4M O 0.9871(5) 0.4174(4) 0.6127(2) 0.0753 Uani
C1M C 0.9341(8) 0.4450(5) 0.6343(3) 0.0647 Uani
C2M C 0.9668(17) 0.4822(13) 0.6687(7) 0.0510 Uiso
C3M C 0.9109(8) 0.5084(7) 0.6935(4) 0.0830 Uani
C4M C 1.0541(14) 0.4758(12) 0.6783(6) 0.0510 Uiso
H1M H 0.8508 0.5097 0.6880 0.1000 Uiso
C5M C 0.9424(7) 0.5335(6) 0.7273(3) 0.0750 Uani
C6M C 1.0881(15) 0.5032(12) 0.7114(7) 0.0570 Uiso
H2M H 1.0910 0.4529 0.6625 0.0620 Uiso
C7M C 1.0322(17) 0.5346(13) 0.7360(8) 0.0580 Uiso
H3M H 0.9025 0.5501 0.7448 0.0900 Uiso
N1M N 1.1775(18) 0.4947(14) 0.7164(9) 0.1160 Uiso
C8M C 1.0603(7) 0.5556(5) 0.7742(3) 0.0607 Uani
H4M H 1.2072 0.4745 0.6996 0.1390 Uiso
H5M H 1.2037 0.5095 0.7363 0.1390 Uiso
In1V In 1.1250 0.6250 0.82906(2) 0.0466 Uani
In1W In 0.6250 0.1250 0.82906(2) 0.0466 Uani
O1DA O 0.7575(5) 0.4152(3) 0.54573(19) 0.0670 Uani
O1EA O 0.9925(5) 0.3348(3) 0.54573(19) 0.0670 Uani
O2DA O 0.8906(5) 0.4455(4) 0.5335(2) 0.0747 Uani
O2EA O 0.8594(5) 0.3045(4) 0.5335(2) 0.0747 Uani
loop_
_atom_site_aniso_label
_atom_site_aniso_U_11
_atom_site_aniso_U_22
_atom_site_aniso_U_33
_atom_site_aniso_U_23
_atom_site_aniso_U_13
_atom_site_aniso_U_12
In1 0.0478(6) 0.0655(6) 0.0264(5) 0.000 0.000 -0.0035(4)
O1 0.063 0.092 0.046 0.02 0.006 0.004
O2 0.067 0.1 0.057 0.033 0.019 0.013
O3 0.078 0.089 0.051 0.014 0.012 -0.005
O4 0.08 0.098 0.048 0.028 0 -0.012
C1 0.075 0.078 0.041 -0.001 -0.007 0.026
C3 0.057(6) 0.122(11) 0.070(7) 0.025(7) -0.020(6) -0.008(7)
C5 0.061(6) 0.104(9) 0.060(6) 0.029(6) -0.004(5) -0.015(6)
C8 0.064(6) 0.073(7) 0.045(5) 0.014(5) 0.004(5) -0.005(5)
O1M 0.063 0.092 0.046 -0.02 -0.006 0.004
O2M 0.067 0.1 0.057 -0.033 -0.019 0.013
O3M 0.078 0.089 0.051 -0.014 -0.012 -0.005
O4M 0.08 0.098 0.048 -0.028 0 -0.012
C1M 0.075 0.078 0.041 0.001 0.007 0.026
C3M 0.057 0.122 0.07 -0.025 0.02 -0.008
C5M 0.061 0.104 0.06 -0.029 0.004 -0.015
C8M 0.064 0.073 0.045 -0.014 -0.004 -0.005
In1V 0.0478 0.0655 0.0264 0 0 0.0035
In1W 0.0478 0.0655 0.0264 0 0 0.0035
O1DA 0.063 0.092 0.046 0.02 -0.006 -0.004
O1EA 0.063 0.092 0.046 -0.02 0.006 -0.004
O2DA 0.067 0.1 0.057 0.033 -0.019 -0.013
O2EA 0.067 0.1 0.057 -0.033 0.019 -0.013
loop_
_geom_bond_atom_site_label_1
_geom_bond_atom_site_label_2
_geom_bond_site_symmetry_1
_geom_bond_site_symmetry_2
In1 O3 1_555 1_555
O1 C8 1_555 1_555
O2 C8 1_555 1_555
O3 C1 1_555 1_555
O4 In1 1_555 1_555
C1 O4 1_555 1_555
C2 C1 1_555 1_555
C3 C2 1_555 1_555
C4 C2 1_555 1_555
H1 C3 1_555 1_555
C5 C3 1_555 1_555
C6 C4 1_555 1_555
H2 C4 1_555 1_555
C7 C5 1_555 1_555
H3 C5 1_555 1_555
N1 C6 1_555 1_555
C8 C7 1_555 1_555
H4 N1 1_555 1_555
H5 N1 1_555 1_555
O1M C8M 1_555 1_555
O2M C8M 1_555 1_555
O3M In1 1_555 1_555
O4M In1 1_555 1_555
C1M O3M 1_555 1_555
C2M C1M 1_555 1_555
C3M C2M 1_555 1_555
C4M C2M 1_555 1_555
H1M C3M 1_555 1_555
C5M C3M 1_555 1_555
C6M C4M 1_555 1_555
H2M C4M 1_555 1_555
C7M C5M 1_555 1_555
H3M C5M 1_555 1_555
N1M C6M 1_555 1_555
C8M C7M 1_555 1_555
H4M N1M 1_555 1_555
H5M N1M 1_555 1_555
In1V O1M 1_555 1_555
In1W O1 1_555 1_555
O1DA In1 1_555 1_555
O1EA In1 1_555 1_555
O2DA In1 1_555 1_555
O2EA In1 1_555 1_555
O2 In1W 1_555 1_555
C6 C7 1_555 1_555
O2M In1V 1_555 1_555
O4M C1M 1_555 1_555
C6M C7M 1_555 1_555

#END
