
#######################################################################
#
#                 Cambridge Crystallographic Data Centre
#                                CCDC 
#
#######################################################################
#
# If this CIF has been generated from an entry in the Cambridge 
# Structural Database, then it will include bibliographic, chemical, 
# crystal, experimental, refinement or atomic coordinate data resulting 
# from the CCDC's data processing and validation procedures.
#
#######################################################################

data_LAPNEY
_chemical_formula_moiety         '(C16 H10 In1 N2 O8 1-)n'
_symmetry_cell_setting           orthorhombic
_symmetry_space_group_name_H-M   'F d d d'
_symmetry_Int_Tables_number      70
_space_group_name_Hall           '-F 2uv 2vw'
loop_
_symmetry_equiv_pos_site_id
_symmetry_equiv_pos_as_xyz
1 x,y,z
2 1/4-x,1/4-y,z
3 x,1/4-y,1/4-z
4 1/4-x,y,1/4-z
5 x,1/2+y,1/2+z
6 1/4-x,3/4-y,1/2+z
7 x,3/4-y,3/4-z
8 1/4-x,1/2+y,3/4-z
9 1/2+x,y,1/2+z
10 3/4-x,1/4-y,1/2+z
11 1/2+x,1/4-y,3/4-z
12 3/4-x,y,3/4-z
13 1/2+x,1/2+y,z
14 3/4-x,3/4-y,z
15 1/2+x,3/4-y,1/4-z
16 3/4-x,1/2+y,1/4-z
17 -x,-y,-z
18 3/4+x,3/4+y,-z
19 -x,3/4+y,3/4+z
20 3/4+x,-y,3/4+z
21 -x,1/2-y,1/2-z
22 3/4+x,1/4+y,1/2-z
23 -x,1/4+y,1/4+z
24 3/4+x,1/2-y,1/4+z
25 1/2-x,-y,1/2-z
26 1/4+x,3/4+y,1/2-z
27 1/2-x,3/4+y,1/4+z
28 1/4+x,-y,1/4+z
29 1/2-x,1/2-y,-z
30 1/4+x,1/4+y,-z
31 1/2-x,1/4+y,3/4+z
32 1/4+x,1/2-y,3/4+z
_cell_length_a                   15.158(5)
_cell_length_b                   22.565(8)
_cell_length_c                   34.411(12)
_cell_angle_alpha                90
_cell_angle_beta                 90
_cell_angle_gamma                90
_cell_volume                     11769.9
loop_
_atom_site_label
_atom_site_type_symbol
_atom_site_fract_x
_atom_site_fract_y
_atom_site_fract_z
_atom_site_U_iso_or_equiv
_atom_site_thermal_displace_type
In1 In 0.3750 0.3750 0.57776(2) 0.0479 Uani
O1 O 0.3907(4) 0.4446(3) 0.53204(19) 0.0770 Uani
O2 O 0.2576(4) 0.4155(3) 0.54429(17) 0.0680 Uani
O3 O 0.3973(5) 0.3060(3) 0.62570(18) 0.0707 Uani
O4 O 0.2628(5) 0.3321(3) 0.61097(19) 0.0770 Uani
C1 C 0.3172(7) 0.3056(4) 0.6332(2) 0.0643 Uani
C2 C 0.2793(16) 0.2827(11) 0.6713(7) 0.0610 Uiso
C3 C 0.1992(13) 0.2932(11) 0.6840(6) 0.0660 Uiso
C4 C 0.3396(7) 0.2431(5) 0.6927(3) 0.0793 Uani
H1 H 0.1613 0.3165 0.6693 0.0790 Uiso
C5 C 0.1703(13) 0.2702(11) 0.7191(6) 0.0670 Uiso
C6 C 0.3082(6) 0.2175(5) 0.7262(3) 0.0740 Uani
H2 H 0.3966 0.2358 0.6839 0.0950 Uiso
C7 C 0.2230(12) 0.2306(9) 0.7392(6) 0.0460 Uiso
N1 N 0.0879(15) 0.2872(11) 0.7301(7) 0.1140 Uiso
H3 H 0.3436 0.1914 0.7402 0.0890 Uiso
C8 C 0.1896(6) 0.1947(4) 0.7734(2) 0.0630 Uani
H4 H 0.0650 0.2731 0.7510 0.1370 Uiso
H5 H 0.0588 0.3121 0.7162 0.1370 Uiso
O1M O 0.3593(4) 0.3054(3) 0.53204(19) 0.0770 Uani
O2M O 0.4924(4) 0.3345(3) 0.54429(17) 0.0680 Uani
O3M O 0.3527(5) 0.4440(3) 0.62570(18) 0.0707 Uani
O4M O 0.4872(5) 0.4179(3) 0.61097(19) 0.0770 Uani
C1M C 0.4328(7) 0.4444(4) 0.6332(2) 0.0643 Uani
C2M C 0.4707(16) 0.4673(11) 0.6713(7) 0.0610 Uiso
C3M C 0.5508(13) 0.4568(11) 0.6840(6) 0.0660 Uiso
C4M C 0.4104(7) 0.5069(5) 0.6927(3) 0.0793 Uani
H1M H 0.5887 0.4335 0.6693 0.0790 Uiso
C5M C 0.5797(13) 0.4798(11) 0.7191(6) 0.0670 Uiso
C6M C 0.4418(6) 0.5325(5) 0.7262(3) 0.0740 Uani
H2M H 0.3534 0.5142 0.6839 0.0950 Uiso
C7M C 0.5270(12) 0.5194(9) 0.7392(6) 0.0460 Uiso
N1M N 0.6621(15) 0.4628(11) 0.7301(7) 0.1140 Uiso
H3M H 0.4064 0.5586 0.7402 0.0890 Uiso
C8M C 0.5604(6) 0.5553(4) 0.7734(2) 0.0630 Uani
H4M H 0.6850 0.4769 0.7510 0.1370 Uiso
H5M H 0.6912 0.4379 0.7162 0.1370 Uiso
O2Z O 0.2424(4) 0.1655(3) 0.79429(17) 0.0680 Uani
O1Z O 0.1093(4) 0.1946(3) 0.78204(19) 0.0770 Uani
O2AA O 0.5076(4) 0.5845(3) 0.79429(17) 0.0680 Uani
O1AA O 0.6407(4) 0.5554(3) 0.78204(19) 0.0770 Uani
In1W In 0.1250 0.1250 0.82776(2) 0.0479 Uani
In1V In 0.6250 0.6250 0.82776(2) 0.0479 Uani
loop_
_atom_site_aniso_label
_atom_site_aniso_U_11
_atom_site_aniso_U_22
_atom_site_aniso_U_33
_atom_site_aniso_U_23
_atom_site_aniso_U_13
_atom_site_aniso_U_12
In1 0.0538(5) 0.0662(6) 0.0238(4) 0.000 0.000 -0.0028(3)
O1 0.071(4) 0.104(5) 0.056(4) 0.033(4) -0.017(3) -0.013(4)
O2 0.067 0.094 0.043 0.021 -0.004 0
O3 0.067 0.099 0.046 0.016 0.015 -0.003
O4 0.086 0.097 0.048 0.023 0.001 -0.011
C1 0.078 0.072 0.043 0.003 -0.005 0.01
C4 0.056(5) 0.119(9) 0.063(6) 0.021(6) -0.013(5) -0.003(5)
C6 0.066(6) 0.098(7) 0.058(5) 0.029(5) -0.006(5) -0.007(5)
C8 0.070(6) 0.076(6) 0.043(4) 0.012(4) -0.004(4) -0.009(5)
O1M 0.071 0.104 0.056 -0.033 0.017 -0.013
O2M 0.067 0.094 0.043 -0.021 0.004 0
O3M 0.067 0.099 0.046 -0.016 -0.015 -0.003
O4M 0.086 0.097 0.048 -0.023 -0.001 -0.011
C1M 0.078 0.072 0.043 0.003 -0.005 0.01
C4M 0.056(5) 0.119(9) 0.063(6) 0.021(6) -0.013(5) -0.003(5)
C6M 0.066(6) 0.098(7) 0.058(5) 0.029(5) -0.006(5) -0.007(5)
C8M 0.070(6) 0.076(6) 0.043(4) 0.012(4) -0.004(4) -0.009(5)
O2Z 0.067 0.094 0.043 0.021 -0.004 0
O1Z 0.071(4) 0.104(5) 0.056(4) 0.033(4) -0.017(3) -0.013(4)
O2AA 0.067 0.094 0.043 0.021 -0.004 0
O1AA 0.071(4) 0.104(5) 0.056(4) 0.033(4) -0.017(3) -0.013(4)
In1W 0.0538(5) 0.0662(6) 0.0238(4) 0.000 0.000 -0.0028(3)
In1V 0.0538(5) 0.0662(6) 0.0238(4) 0.000 0.000 -0.0028(3)
loop_
_geom_bond_atom_site_label_1
_geom_bond_atom_site_label_2
_geom_bond_site_symmetry_1
_geom_bond_site_symmetry_2
In1 O1 1_555 1_555
O2 In1 1_555 1_555
O3 In1 1_555 1_555
O4 In1 1_555 1_555
C1 O3 1_555 1_555
C2 C1 1_555 1_555
C3 C2 1_555 1_555
C4 C2 1_555 1_555
H1 C3 1_555 1_555
C5 C3 1_555 1_555
C6 C4 1_555 1_555
H2 C4 1_555 1_555
C7 C5 1_555 1_555
N1 C5 1_555 1_555
H3 C6 1_555 1_555
C8 C7 1_555 1_555
H4 N1 1_555 1_555
H5 N1 1_555 1_555
O1M In1 1_555 1_555
O2M In1 1_555 1_555
O3M In1 1_555 1_555
O4M In1 1_555 1_555
C1M O3M 1_555 1_555
C2M C1M 1_555 1_555
C3M C2M 1_555 1_555
C4M C2M 1_555 1_555
H1M C3M 1_555 1_555
C5M C3M 1_555 1_555
C6M C4M 1_555 1_555
H2M C4M 1_555 1_555
C7M C5M 1_555 1_555
N1M C5M 1_555 1_555
H3M C6M 1_555 1_555
C8M C7M 1_555 1_555
H4M N1M 1_555 1_555
H5M N1M 1_555 1_555
O2Z C8 1_555 1_555
O1Z C8 1_555 1_555
O2AA C8M 1_555 1_555
O1AA C8M 1_555 1_555
In1W O2Z 1_555 1_555
In1V O2AA 1_555 1_555
O4 C1 1_555 1_555
C6 C7 1_555 1_555
O4M C1M 1_555 1_555
C6M C7M 1_555 1_555
O1Z In1W 1_555 1_555
O1AA In1V 1_555 1_555

#END
