
#######################################################################
#
#                 Cambridge Crystallographic Data Centre
#                                CCDC 
#
#######################################################################
#
# If this CIF has been generated from an entry in the Cambridge 
# Structural Database, then it will include bibliographic, chemical, 
# crystal, experimental, refinement or atomic coordinate data resulting 
# from the CCDC's data processing and validation procedures.
#
#######################################################################

data_LAPPOK
_chemical_formula_moiety         '(C16 H10 In1 N2 O8 1-)n'
_symmetry_cell_setting           orthorhombic
_symmetry_space_group_name_H-M   'F d d d'
_symmetry_Int_Tables_number      70
_space_group_name_Hall           '-F 2uv 2vw'
loop_
_symmetry_equiv_pos_site_id
_symmetry_equiv_pos_as_xyz
1 x,y,z
2 1/4-x,1/4-y,z
3 x,1/4-y,1/4-z
4 1/4-x,y,1/4-z
5 x,1/2+y,1/2+z
6 1/4-x,3/4-y,1/2+z
7 x,3/4-y,3/4-z
8 1/4-x,1/2+y,3/4-z
9 1/2+x,y,1/2+z
10 3/4-x,1/4-y,1/2+z
11 1/2+x,1/4-y,3/4-z
12 3/4-x,y,3/4-z
13 1/2+x,1/2+y,z
14 3/4-x,3/4-y,z
15 1/2+x,3/4-y,1/4-z
16 3/4-x,1/2+y,1/4-z
17 -x,-y,-z
18 3/4+x,3/4+y,-z
19 -x,3/4+y,3/4+z
20 3/4+x,-y,3/4+z
21 -x,1/2-y,1/2-z
22 3/4+x,1/4+y,1/2-z
23 -x,1/4+y,1/4+z
24 3/4+x,1/2-y,1/4+z
25 1/2-x,-y,1/2-z
26 1/4+x,3/4+y,1/2-z
27 1/2-x,3/4+y,1/4+z
28 1/4+x,-y,1/4+z
29 1/2-x,1/2-y,-z
30 1/4+x,1/4+y,-z
31 1/2-x,1/4+y,3/4+z
32 1/4+x,1/2-y,3/4+z
_cell_length_a                   15.5561(5)
_cell_length_b                   27.0768(9)
_cell_length_c                   31.4398(13)
_cell_angle_alpha                90
_cell_angle_beta                 90
_cell_angle_gamma                90
_cell_volume                     13242.7
loop_
_atom_site_label
_atom_site_type_symbol
_atom_site_fract_x
_atom_site_fract_y
_atom_site_fract_z
_atom_site_U_iso_or_equiv
_atom_site_thermal_displace_type
In1 In 0.3750 0.3750 0.06840(2) 0.0495 Uani
O1 O 0.2654(3) 0.4121(2) 0.03285(19) 0.0787 Uani
O2 O 0.1058(5) 0.5661(3) -0.1306(2) 0.0807 Uani
O3 O 0.2371(3) 0.5881(2) -0.14586(17) 0.0737 Uani
C1 C 0.1865(7) 0.5630(4) -0.1232(2) 0.0680 Uani
O4 O 0.3950(4) 0.4367(3) 0.0206(3) 0.0877 Uani
C2 C 0.3171(6) 0.4392(3) 0.0113(2) 0.0703 Uani
C3 C 0.2847(6) 0.4645(5) -0.0271(4) 0.0550 Uiso
C4 C 0.1984(6) 0.4610(6) -0.0383(4) 0.0700 Uiso
H1 H 0.1627 0.4389 -0.0242 0.0840 Uiso
C5 C 0.1657(5) 0.4905(6) -0.0707(4) 0.0840 Uiso
H2 H 0.1080 0.4881 -0.0781 0.1010 Uiso
C6 C 0.2191(6) 0.5235(6) -0.0918(4) 0.0590 Uiso
C7 C 0.3053(6) 0.5270(6) -0.0806(4) 0.0720 Uiso
H3 H 0.3411 0.5491 -0.0947 0.0860 Uiso
C8 C 0.3381(5) 0.4975(6) -0.0483(4) 0.0660 Uiso
N1 N 0.4247(14) 0.5014(8) -0.0431(8) 0.1260 Uiso
H4 H 0.4539 0.5209 -0.0591 0.1520 Uiso
H5 H 0.4502 0.4844 -0.0237 0.1520 Uiso
O1M O 0.4846(3) 0.3379(2) 0.03285(19) 0.0787 Uani
O2M O 0.6442(5) 0.1839(3) -0.1306(2) 0.0807 Uani
O3M O 0.5129(3) 0.1619(2) -0.14586(17) 0.0737 Uani
C1M C 0.5635(7) 0.1870(4) -0.1232(2) 0.0680 Uani
O4M O 0.3550(4) 0.3133(3) 0.0206(3) 0.0877 Uani
C2M C 0.4329(6) 0.3108(3) 0.0113(2) 0.0703 Uani
C3M C 0.4653(6) 0.2855(5) -0.0271(4) 0.0550 Uiso
C4M C 0.5516(6) 0.2890(6) -0.0383(4) 0.0700 Uiso
H1M H 0.5873 0.3111 -0.0242 0.0840 Uiso
C5M C 0.5843(5) 0.2595(6) -0.0707(4) 0.0840 Uiso
H2M H 0.6420 0.2619 -0.0781 0.1010 Uiso
C6M C 0.5309(6) 0.2265(6) -0.0918(4) 0.0590 Uiso
C7M C 0.4447(6) 0.2230(6) -0.0806(4) 0.0720 Uiso
H3M H 0.4089 0.2009 -0.0947 0.0860 Uiso
C8M C 0.4119(5) 0.2525(6) -0.0483(4) 0.0660 Uiso
N1M N 0.3253(14) 0.2486(8) -0.0431(8) 0.1260 Uiso
H4M H 0.2961 0.2291 -0.0591 0.1520 Uiso
H5M H 0.2998 0.2656 -0.0237 0.1520 Uiso
In1R In 0.6250 0.1250 -0.18160(2) 0.0495 Uani
In1S In 0.1250 0.6250 -0.18160(2) 0.0495 Uani
O2Z O 0.3942(5) 0.3161(3) 0.1194(2) 0.0807 Uani
O2AA O 0.3558(5) 0.4339(3) 0.1194(2) 0.0807 Uani
O3Z O 0.2629(3) 0.3381(2) 0.10414(17) 0.0737 Uani
O3AA O 0.4871(3) 0.4119(2) 0.10414(17) 0.0737 Uani
loop_
_atom_site_aniso_label
_atom_site_aniso_U_11
_atom_site_aniso_U_22
_atom_site_aniso_U_33
_atom_site_aniso_U_23
_atom_site_aniso_U_13
_atom_site_aniso_U_12
In1 0.0449(6) 0.0651(6) 0.0386(6) 0.000 0.000 -0.00269(19)
O1 0.062 0.096 0.078 0.022 -0.005 0.002
O2 0.06 0.104 0.078 0.013 -0.011 0.013
O3 0.063 0.095 0.063 0.017 -0.004 0.009
C1 0.074 0.076 0.054 0.009 0.003 0.01
O4 0.063(3) 0.114(5) 0.086(5) 0.028(4) -0.018(3) -0.003(4)
C2 0.065(5) 0.082(4) 0.064(5) 0.011(4) -0.006(4) 0.008(4)
O1M 0.062 0.096 0.078 -0.022 0.005 0.002
O2M 0.06 0.104 0.078 -0.013 0.011 0.013
O3M 0.063 0.095 0.063 -0.017 0.004 0.009
C1M 0.074 0.076 0.054 -0.009 -0.003 0.01
O4M 0.063 0.114 0.086 -0.028 0.018 -0.003
C2M 0.065 0.082 0.064 -0.011 0.006 0.008
In1R 0.0449 0.0651 0.0386 0 0 0.00269
In1S 0.0449 0.0651 0.0386 0 0 0.00269
O2Z 0.06 0.104 0.078 0.013 0.011 -0.013
O2AA 0.06 0.104 0.078 -0.013 -0.011 -0.013
O3Z 0.063 0.095 0.063 0.017 0.004 -0.009
O3AA 0.063 0.095 0.063 -0.017 -0.004 -0.009
loop_
_geom_bond_atom_site_label_1
_geom_bond_atom_site_label_2
_geom_bond_site_symmetry_1
_geom_bond_site_symmetry_2
In1 O1 1_555 1_555
O1 C2 1_555 1_555
O2 C1 1_555 1_555
O3 C1 1_555 1_555
C1 C6 1_555 1_555
O4 In1 1_555 1_555
C2 O4 1_555 1_555
C3 C2 1_555 1_555
C4 C3 1_555 1_555
H1 C4 1_555 1_555
C5 C4 1_555 1_555
H2 C5 1_555 1_555
C6 C5 1_555 1_555
C7 C6 1_555 1_555
H3 C7 1_555 1_555
C8 C3 1_555 1_555
N1 C8 1_555 1_555
H4 N1 1_555 1_555
H5 N1 1_555 1_555
O1M In1 1_555 1_555
O2M C1M 1_555 1_555
O3M C1M 1_555 1_555
C1M C6M 1_555 1_555
O4M In1 1_555 1_555
C2M O1M 1_555 1_555
C3M C2M 1_555 1_555
C4M C3M 1_555 1_555
H1M C4M 1_555 1_555
C5M C4M 1_555 1_555
H2M C5M 1_555 1_555
C6M C5M 1_555 1_555
C7M C6M 1_555 1_555
H3M C7M 1_555 1_555
C8M C3M 1_555 1_555
N1M C8M 1_555 1_555
H4M N1M 1_555 1_555
H5M N1M 1_555 1_555
In1R O2M 1_555 1_555
In1S O2 1_555 1_555
O2Z In1 1_555 1_555
O2AA In1 1_555 1_555
O3Z In1 1_555 1_555
O3AA In1 1_555 1_555
O3 In1S 1_555 1_555
C7 C8 1_555 1_555
O3M In1R 1_555 1_555
O4M C2M 1_555 1_555
C7M C8M 1_555 1_555

#END
