
#######################################################################
#
#                 Cambridge Crystallographic Data Centre
#                                CCDC 
#
#######################################################################
#
# If this CIF has been generated from an entry in the Cambridge 
# Structural Database, then it will include bibliographic, chemical, 
# crystal, experimental, refinement or atomic coordinate data resulting 
# from the CCDC's data processing and validation procedures.
#
#######################################################################

data_LAPPEA
_chemical_formula_moiety         '(C16 H10 In1 N2 O8 1-)n'
_symmetry_cell_setting           orthorhombic
_symmetry_space_group_name_H-M   'F d d d'
_symmetry_Int_Tables_number      70
_space_group_name_Hall           '-F 2uv 2vw'
loop_
_symmetry_equiv_pos_site_id
_symmetry_equiv_pos_as_xyz
1 x,y,z
2 1/4-x,1/4-y,z
3 x,1/4-y,1/4-z
4 1/4-x,y,1/4-z
5 x,1/2+y,1/2+z
6 1/4-x,3/4-y,1/2+z
7 x,3/4-y,3/4-z
8 1/4-x,1/2+y,3/4-z
9 1/2+x,y,1/2+z
10 3/4-x,1/4-y,1/2+z
11 1/2+x,1/4-y,3/4-z
12 3/4-x,y,3/4-z
13 1/2+x,1/2+y,z
14 3/4-x,3/4-y,z
15 1/2+x,3/4-y,1/4-z
16 3/4-x,1/2+y,1/4-z
17 -x,-y,-z
18 3/4+x,3/4+y,-z
19 -x,3/4+y,3/4+z
20 3/4+x,-y,3/4+z
21 -x,1/2-y,1/2-z
22 3/4+x,1/4+y,1/2-z
23 -x,1/4+y,1/4+z
24 3/4+x,1/2-y,1/4+z
25 1/2-x,-y,1/2-z
26 1/4+x,3/4+y,1/2-z
27 1/2-x,3/4+y,1/4+z
28 1/4+x,-y,1/4+z
29 1/2-x,1/2-y,-z
30 1/4+x,1/4+y,-z
31 1/2-x,1/4+y,3/4+z
32 1/4+x,1/2-y,3/4+z
_cell_length_a                   15.2129(6)
_cell_length_b                   24.490(2)
_cell_length_c                   33.440(2)
_cell_angle_alpha                90
_cell_angle_beta                 90
_cell_angle_gamma                90
_cell_volume                     12458.5
loop_
_atom_site_label
_atom_site_type_symbol
_atom_site_fract_x
_atom_site_fract_y
_atom_site_fract_z
_atom_site_U_iso_or_equiv
_atom_site_thermal_displace_type
In1 In 0.8750 0.3750 0.07360(3) 0.0526 Uani
O1 O 0.9866(6) 0.4159(4) 0.1081(3) 0.0730 Uani
O2 O 0.8528(8) 0.4404(6) 0.1224(3) 0.0850 Uani
O3 O 0.8559(6) 0.3102(5) 0.0273(3) 0.0840 Uani
O4 O 0.9900(5) 0.3365(4) 0.0398(2) 0.0753 Uani
C1 C 0.9382(8) 0.3089(5) 0.0195(3) 0.0653 Uani
C2 C 0.9705(8) 0.2672(7) -0.0138(4) 0.0400 Uiso
C3 C 1.0571(8) 0.2757(6) -0.0255(4) 0.0590 Uiso
C4 C 0.9162(6) 0.2334(8) -0.0362(4) 0.0630 Uiso
H1 H 1.0935 0.2983 -0.0105 0.0710 Uiso
C5 C 1.0894(6) 0.2503(7) -0.0596(4) 0.0540 Uiso
N1 N 0.825(4) 0.2243(15) -0.0210(15) 0.1980 Uiso
C6 C 0.9485(8) 0.2080(7) -0.0704(4) 0.0660 Uiso
H2 H 1.1474 0.2559 -0.0675 0.0650 Uiso
C7 C 1.0351(8) 0.2165(7) -0.0821(3) 0.0390 Uiso
H3 H 0.7898 0.2037 -0.0340 0.2380 Uiso
H4 H 0.8087 0.2397 0.0008 0.2380 Uiso
H5 H 0.9122 0.1854 -0.0854 0.0790 Uiso
C8 C 1.0659(10) 0.1919(5) -0.1197(3) 0.0633 Uani
O1M O 0.7634(6) 0.3341(4) 0.1081(3) 0.0730 Uani
O2M O 0.8972(8) 0.3096(6) 0.1224(3) 0.0850 Uani
O3M O 0.8941(6) 0.4398(5) 0.0273(3) 0.0840 Uani
O4M O 0.7600(5) 0.4135(4) 0.0398(2) 0.0753 Uani
C1M C 0.8118(8) 0.4411(5) 0.0195(3) 0.0653 Uani
C2M C 0.7795(8) 0.4828(7) -0.0138(4) 0.0400 Uiso
C3M C 0.6929(8) 0.4743(6) -0.0255(4) 0.0590 Uiso
C4M C 0.8338(6) 0.5166(8) -0.0362(4) 0.0630 Uiso
H1M H 0.6565 0.4517 -0.0105 0.0710 Uiso
C5M C 0.6606(6) 0.4997(7) -0.0596(4) 0.0540 Uiso
N1M N 0.925(4) 0.5257(15) -0.0210(15) 0.1980 Uiso
C6M C 0.8015(8) 0.5420(7) -0.0704(4) 0.0660 Uiso
H2M H 0.6026 0.4941 -0.0675 0.0650 Uiso
C7M C 0.7149(8) 0.5335(7) -0.0821(3) 0.0390 Uiso
H3M H 0.9602 0.5463 -0.0340 0.2380 Uiso
H4M H 0.9413 0.5103 0.0008 0.2380 Uiso
H5M H 0.8378 0.5646 -0.0854 0.0790 Uiso
C8M C 0.6841(10) 0.5581(5) -0.1197(3) 0.0633 Uani
O2R O 1.1472(8) 0.1904(6) -0.1276(3) 0.0850 Uani
O1R O 1.0134(6) 0.1659(4) -0.1419(3) 0.0730 Uani
O2S O 0.6028(8) 0.5596(6) -0.1276(3) 0.0850 Uani
O1S O 0.7366(6) 0.5841(4) -0.1419(3) 0.0730 Uani
In1R In 1.1250 0.1250 -0.17640(3) 0.0526 Uani
In1S In 0.6250 0.6250 -0.17640(3) 0.0526 Uani
loop_
_atom_site_aniso_label
_atom_site_aniso_U_11
_atom_site_aniso_U_22
_atom_site_aniso_U_33
_atom_site_aniso_U_23
_atom_site_aniso_U_13
_atom_site_aniso_U_12
In1 0.0343(8) 0.0914(11) 0.0320(8) 0.000 0.000 -0.0038(4)
O1 0.067(5) 0.102(6) 0.050(4) -0.018(5) -0.001(4) -0.011(4)
O2 0.051 0.14 0.064 -0.013 -0.015 -0.011
O3 0.063 0.132 0.057 -0.025 0.018 -0.008
O4 0.056 0.118 0.052 -0.026 0.001 -0.006
C1 0.053 0.105 0.038 -0.011 -0.003 -0.014
C8 0.059(7) 0.079(7) 0.052(7) -0.025(5) -0.003(5) -0.016(6)
O1M 0.067 0.102 0.05 0.018 0.001 -0.011
O2M 0.051 0.14 0.064 0.013 0.015 -0.011
O3M 0.063 0.132 0.057 0.025 -0.018 -0.008
O4M 0.056 0.118 0.052 0.026 -0.001 -0.006
C1M 0.053 0.105 0.038 -0.011 -0.003 -0.014
C8M 0.059(7) 0.079(7) 0.052(7) -0.025(5) -0.003(5) -0.016(6)
O2R 0.051 0.14 0.064 -0.013 -0.015 -0.011
O1R 0.067(5) 0.102(6) 0.050(4) -0.018(5) -0.001(4) -0.011(4)
O2S 0.051 0.14 0.064 -0.013 -0.015 -0.011
O1S 0.067(5) 0.102(6) 0.050(4) -0.018(5) -0.001(4) -0.011(4)
In1R 0.0343(8) 0.0914(11) 0.0320(8) 0.000 0.000 -0.0038(4)
In1S 0.0343(8) 0.0914(11) 0.0320(8) 0.000 0.000 -0.0038(4)
loop_
_geom_bond_atom_site_label_1
_geom_bond_atom_site_label_2
_geom_bond_site_symmetry_1
_geom_bond_site_symmetry_2
In1 O1 1_555 1_555
O2 In1 1_555 1_555
O3 In1 1_555 1_555
O4 In1 1_555 1_555
C1 O3 1_555 1_555
C2 C1 1_555 1_555
C3 C2 1_555 1_555
C4 C2 1_555 1_555
H1 C3 1_555 1_555
C5 C3 1_555 1_555
N1 C4 1_555 1_555
C6 C4 1_555 1_555
H2 C5 1_555 1_555
C7 C5 1_555 1_555
H3 N1 1_555 1_555
H4 N1 1_555 1_555
H5 C6 1_555 1_555
C8 C7 1_555 1_555
O1M In1 1_555 1_555
O2M In1 1_555 1_555
O3M In1 1_555 1_555
O4M In1 1_555 1_555
C1M O3M 1_555 1_555
C2M C1M 1_555 1_555
C3M C2M 1_555 1_555
C4M C2M 1_555 1_555
H1M C3M 1_555 1_555
C5M C3M 1_555 1_555
N1M C4M 1_555 1_555
C6M C4M 1_555 1_555
H2M C5M 1_555 1_555
C7M C5M 1_555 1_555
H3M N1M 1_555 1_555
H4M N1M 1_555 1_555
H5M C6M 1_555 1_555
C8M C7M 1_555 1_555
O2R C8 1_555 1_555
O1R C8 1_555 1_555
O2S C8M 1_555 1_555
O1S C8M 1_555 1_555
In1R O2R 1_555 1_555
In1S O2S 1_555 1_555
O4 C1 1_555 1_555
C6 C7 1_555 1_555
O4M C1M 1_555 1_555
C6M C7M 1_555 1_555
O1R In1R 1_555 1_555
O1S In1S 1_555 1_555

#END
