
#######################################################################
#
#                 Cambridge Crystallographic Data Centre
#                                CCDC 
#
#######################################################################
#
# If this CIF has been generated from an entry in the Cambridge 
# Structural Database, then it will include bibliographic, chemical, 
# crystal, experimental, refinement or atomic coordinate data resulting 
# from the CCDC's data processing and validation procedures.
#
#######################################################################

data_LAPPIE
_chemical_formula_moiety         '(C16 H10 In1 N2 O8 1-)n'
_symmetry_cell_setting           orthorhombic
_symmetry_space_group_name_H-M   'F d d d'
_symmetry_Int_Tables_number      70
_space_group_name_Hall           '-F 2uv 2vw'
loop_
_symmetry_equiv_pos_site_id
_symmetry_equiv_pos_as_xyz
1 x,y,z
2 1/4-x,1/4-y,z
3 x,1/4-y,1/4-z
4 1/4-x,y,1/4-z
5 x,1/2+y,1/2+z
6 1/4-x,3/4-y,1/2+z
7 x,3/4-y,3/4-z
8 1/4-x,1/2+y,3/4-z
9 1/2+x,y,1/2+z
10 3/4-x,1/4-y,1/2+z
11 1/2+x,1/4-y,3/4-z
12 3/4-x,y,3/4-z
13 1/2+x,1/2+y,z
14 3/4-x,3/4-y,z
15 1/2+x,3/4-y,1/4-z
16 3/4-x,1/2+y,1/4-z
17 -x,-y,-z
18 3/4+x,3/4+y,-z
19 -x,3/4+y,3/4+z
20 3/4+x,-y,3/4+z
21 -x,1/2-y,1/2-z
22 3/4+x,1/4+y,1/2-z
23 -x,1/4+y,1/4+z
24 3/4+x,1/2-y,1/4+z
25 1/2-x,-y,1/2-z
26 1/4+x,3/4+y,1/2-z
27 1/2-x,3/4+y,1/4+z
28 1/4+x,-y,1/4+z
29 1/2-x,1/2-y,-z
30 1/4+x,1/4+y,-z
31 1/2-x,1/4+y,3/4+z
32 1/4+x,1/2-y,3/4+z
_cell_length_a                   15.4920(5)
_cell_length_b                   26.7238(14)
_cell_length_c                   31.7627(19)
_cell_angle_alpha                90
_cell_angle_beta                 90
_cell_angle_gamma                90
_cell_volume                     13149.9
loop_
_atom_site_label
_atom_site_type_symbol
_atom_site_fract_x
_atom_site_fract_y
_atom_site_fract_z
_atom_site_U_iso_or_equiv
_atom_site_thermal_displace_type
In1 In 0.8750 0.3750 0.06887(2) 0.0520 Uani
O1 O 0.6055(6) 0.5652(4) -0.1308(3) 0.0807 Uani
O2 O 0.8949(5) 0.4372(4) 0.0210(3) 0.0903 Uani
O3 O 0.7651(4) 0.4121(3) 0.0332(2) 0.0763 Uani
O4 O 0.7376(4) 0.5878(3) -0.1455(2) 0.0733 Uani
C1 C 0.8164(7) 0.4386(3) 0.0113(3) 0.0653 Uani
C2 C 0.6876(8) 0.5624(4) -0.1231(2) 0.0633 Uani
N1 N 0.922(2) 0.5214(10) -0.0238(10) 0.1540 Uiso
H1 H 0.9550 0.5432 -0.0353 0.1850 Uiso
H2 H 0.9399 0.5037 -0.0030 0.1850 Uiso
C3 C 0.7811(7) 0.4809(7) -0.0185(4) 0.0590 Uiso
C4 C 0.8344(6) 0.5145(7) -0.0394(4) 0.0750 Uiso
C5 C 0.8024(7) 0.5423(6) -0.0730(4) 0.0690 Uiso
H3 H 0.8381 0.5648 -0.0870 0.0830 Uiso
C6 C 0.7170(7) 0.5365(6) -0.0855(3) 0.0490 Uiso
C7 C 0.6637(6) 0.5029(6) -0.0646(4) 0.0680 Uiso
H4 H 0.6066 0.4990 -0.0730 0.0820 Uiso
C8 C 0.6957(7) 0.4751(6) -0.0310(4) 0.0610 Uiso
H5 H 0.6600 0.4526 -0.0170 0.0730 Uiso
O1M O 1.1445(6) 0.1848(4) -0.1308(3) 0.0807 Uani
O2M O 0.8551(5) 0.3128(4) 0.0210(3) 0.0903 Uani
O3M O 0.9849(4) 0.3379(3) 0.0332(2) 0.0763 Uani
O4M O 1.0124(4) 0.1622(3) -0.1455(2) 0.0733 Uani
C1M C 0.9336(7) 0.3114(3) 0.0113(3) 0.0653 Uani
C2M C 1.0624(8) 0.1876(4) -0.1231(2) 0.0633 Uani
N1M N 0.828(2) 0.2286(10) -0.0238(10) 0.1540 Uiso
H1M H 0.7950 0.2068 -0.0353 0.1850 Uiso
H2M H 0.8101 0.2463 -0.0030 0.1850 Uiso
C3M C 0.9689(7) 0.2691(7) -0.0185(4) 0.0590 Uiso
C4M C 0.9156(6) 0.2355(7) -0.0394(4) 0.0750 Uiso
C5M C 0.9476(7) 0.2077(6) -0.0730(4) 0.0690 Uiso
H3M H 0.9119 0.1852 -0.0870 0.0830 Uiso
C6M C 1.0330(7) 0.2135(6) -0.0855(3) 0.0490 Uiso
C7M C 1.0863(6) 0.2471(6) -0.0646(4) 0.0680 Uiso
H4M H 1.1434 0.2510 -0.0730 0.0820 Uiso
C8M C 1.0543(7) 0.2749(6) -0.0310(4) 0.0610 Uiso
H5M H 1.0900 0.2974 -0.0170 0.0730 Uiso
In1R In 1.1250 0.1250 -0.18113(2) 0.0520 Uani
In1S In 0.6250 0.6250 -0.18113(2) 0.0520 Uani
O1Z O 0.8945(6) 0.3152(4) 0.1192(3) 0.0807 Uani
O1AA O 0.8555(6) 0.4348(4) 0.1192(3) 0.0807 Uani
O4Z O 0.7624(4) 0.3378(3) 0.1045(2) 0.0733 Uani
O4AA O 0.9876(4) 0.4122(3) 0.1045(2) 0.0733 Uani
loop_
_atom_site_aniso_label
_atom_site_aniso_U_11
_atom_site_aniso_U_22
_atom_site_aniso_U_33
_atom_site_aniso_U_23
_atom_site_aniso_U_13
_atom_site_aniso_U_12
In1 0.0417(7) 0.0759(8) 0.0384(7) 0.000 0.000 -0.0035(3)
O1 0.056 0.11 0.076 0.011 -0.014 0.007
O2 0.06 0.129 0.082 0.026 -0.026 -0.003
O3 0.058 0.101 0.07 0.025 -0.003 0.003
O4 0.062 0.098 0.06 0.012 -0.007 0.011
C1 0.069(6) 0.072(4) 0.055(5) 0.016(4) -0.006(4) 0.001(4)
C2 0.066 0.081 0.043 0.016 -0.003 0.009
O1M 0.056 0.11 0.076 -0.011 0.014 0.007
O2M 0.06 0.129 0.082 -0.026 0.026 -0.003
O3M 0.058 0.101 0.07 -0.025 0.003 0.003
O4M 0.062 0.098 0.06 -0.012 0.007 0.011
C1M 0.069 0.072 0.055 -0.016 0.006 0.001
C2M 0.066 0.081 0.043 -0.016 0.003 0.009
In1R 0.0417 0.0759 0.0384 0 0 0.0035
In1S 0.0417 0.0759 0.0384 0 0 0.0035
O1Z 0.056 0.11 0.076 0.011 0.014 -0.007
O1AA 0.056 0.11 0.076 -0.011 -0.014 -0.007
O4Z 0.062 0.098 0.06 0.012 0.007 -0.011
O4AA 0.062 0.098 0.06 -0.012 -0.007 -0.011
loop_
_geom_bond_atom_site_label_1
_geom_bond_atom_site_label_2
_geom_bond_site_symmetry_1
_geom_bond_site_symmetry_2
In1 O2 1_555 1_555
O1 C2 1_555 1_555
O2 C1 1_555 1_555
O3 In1 1_555 1_555
O4 C2 1_555 1_555
C1 O3 1_555 1_555
C2 C6 1_555 1_555
N1 H1 1_555 1_555
H2 N1 1_555 1_555
C3 C1 1_555 1_555
C4 N1 1_555 1_555
C5 C4 1_555 1_555
H3 C5 1_555 1_555
C6 C5 1_555 1_555
C7 C6 1_555 1_555
H4 C7 1_555 1_555
C8 C3 1_555 1_555
H5 C8 1_555 1_555
O1M C2M 1_555 1_555
O2M In1 1_555 1_555
O3M In1 1_555 1_555
O4M C2M 1_555 1_555
C1M O2M 1_555 1_555
C2M C6M 1_555 1_555
N1M H1M 1_555 1_555
H2M N1M 1_555 1_555
C3M C1M 1_555 1_555
C4M N1M 1_555 1_555
C5M C4M 1_555 1_555
H3M C5M 1_555 1_555
C6M C5M 1_555 1_555
C7M C6M 1_555 1_555
H4M C7M 1_555 1_555
C8M C3M 1_555 1_555
H5M C8M 1_555 1_555
In1R O1M 1_555 1_555
In1S O1 1_555 1_555
O1Z In1 1_555 1_555
O1AA In1 1_555 1_555
O4Z In1 1_555 1_555
O4AA In1 1_555 1_555
O4 In1S 1_555 1_555
C3 C4 1_555 1_555
C7 C8 1_555 1_555
O3M C1M 1_555 1_555
O4M In1R 1_555 1_555
C3M C4M 1_555 1_555
C7M C8M 1_555 1_555

#END
