
#######################################################################
#
#                 Cambridge Crystallographic Data Centre
#                                CCDC 
#
#######################################################################
#
# If this CIF has been generated from an entry in the Cambridge 
# Structural Database, then it will include bibliographic, chemical, 
# crystal, experimental, refinement or atomic coordinate data resulting 
# from the CCDC's data processing and validation procedures.
#
#######################################################################

data_LAPPAW
_chemical_formula_moiety         '(C16 H10 In1 N2 O8 1-)n'
_symmetry_cell_setting           orthorhombic
_symmetry_space_group_name_H-M   'F d d d'
_symmetry_Int_Tables_number      70
_space_group_name_Hall           '-F 2uv 2vw'
loop_
_symmetry_equiv_pos_site_id
_symmetry_equiv_pos_as_xyz
1 x,y,z
2 1/4-x,1/4-y,z
3 x,1/4-y,1/4-z
4 1/4-x,y,1/4-z
5 x,1/2+y,1/2+z
6 1/4-x,3/4-y,1/2+z
7 x,3/4-y,3/4-z
8 1/4-x,1/2+y,3/4-z
9 1/2+x,y,1/2+z
10 3/4-x,1/4-y,1/2+z
11 1/2+x,1/4-y,3/4-z
12 3/4-x,y,3/4-z
13 1/2+x,1/2+y,z
14 3/4-x,3/4-y,z
15 1/2+x,3/4-y,1/4-z
16 3/4-x,1/2+y,1/4-z
17 -x,-y,-z
18 3/4+x,3/4+y,-z
19 -x,3/4+y,3/4+z
20 3/4+x,-y,3/4+z
21 -x,1/2-y,1/2-z
22 3/4+x,1/4+y,1/2-z
23 -x,1/4+y,1/4+z
24 3/4+x,1/2-y,1/4+z
25 1/2-x,-y,1/2-z
26 1/4+x,3/4+y,1/2-z
27 1/2-x,3/4+y,1/4+z
28 1/4+x,-y,1/4+z
29 1/2-x,1/2-y,-z
30 1/4+x,1/4+y,-z
31 1/2-x,1/4+y,3/4+z
32 1/4+x,1/2-y,3/4+z
_cell_length_a                   15.8532(4)
_cell_length_b                   27.8955(7)
_cell_length_c                   30.7522(9)
_cell_angle_alpha                90
_cell_angle_beta                 90
_cell_angle_gamma                90
_cell_volume                     13599.6
loop_
_atom_site_label
_atom_site_type_symbol
_atom_site_fract_x
_atom_site_fract_y
_atom_site_fract_z
_atom_site_U_iso_or_equiv
_atom_site_thermal_displace_type
In1 In 0.3750 0.3750 0.06699(2) 0.0202 Uani
O1 O 0.3979(3) 0.43558(19) 0.01745(15) 0.0529 Uani
O2 O 0.1077(3) 0.56844(18) -0.12998(15) 0.0463 Uani
O3 O 0.2368(3) 0.58909(14) -0.14688(12) 0.0416 Uani
O4 O 0.2683(3) 0.41242(15) 0.03089(14) 0.0467 Uani
C1 C 0.3189(3) 0.4387(2) 0.00952(16) 0.0393 Uani
C2 C 0.2869(3) 0.4725(2) -0.02397(17) 0.0430 Uani
C3 C 0.2208(3) 0.5331(2) -0.08867(17) 0.0413 Uani
C4 C 0.1865(4) 0.5653(2) -0.12357(14) 0.0360 Uani
N1 N 0.4220(9) 0.5202(6) -0.0282(5) 0.0690 Uiso
H1 H 0.4408 0.4956 -0.0136 0.0830 Uiso
H2 H 0.4552 0.5248 -0.0504 0.0830 Uiso
C5 C 0.3394(7) 0.5117(4) -0.0420(4) 0.0380 Uiso
C6 C 0.3038(6) 0.5408(4) -0.0745(4) 0.0290 Uiso
H3 H 0.3356 0.5653 -0.0867 0.0350 Uiso
C7 C 0.1681(7) 0.4939(5) -0.0720(4) 0.0400 Uiso
H4 H 0.1137 0.4885 -0.0824 0.0490 Uiso
C8 C 0.2041(7) 0.4652(5) -0.0398(4) 0.0370 Uiso
H5 H 0.1723 0.4403 -0.0283 0.0440 Uiso
O1M O 0.3521(3) 0.31442(19) 0.01745(15) 0.0529 Uani
O2M O 0.6423(3) 0.18156(18) -0.12998(15) 0.0463 Uani
O3M O 0.5132(3) 0.16091(14) -0.14688(12) 0.0416 Uani
O4M O 0.4817(3) 0.33758(15) 0.03089(14) 0.0467 Uani
C1M C 0.4311(3) 0.3113(2) 0.00952(16) 0.0393 Uani
C2M C 0.4631(3) 0.2775(2) -0.02397(17) 0.0430 Uani
C3M C 0.5292(3) 0.2169(2) -0.08867(17) 0.0413 Uani
C4M C 0.5635(4) 0.1847(2) -0.12357(14) 0.0360 Uani
N1M N 0.3280(9) 0.2298(6) -0.0282(5) 0.0690 Uiso
H1M H 0.3092 0.2544 -0.0136 0.0830 Uiso
H2M H 0.2948 0.2252 -0.0504 0.0830 Uiso
C5M C 0.4106(7) 0.2383(4) -0.0420(4) 0.0380 Uiso
C6M C 0.4462(6) 0.2092(4) -0.0745(4) 0.0290 Uiso
H3M H 0.4144 0.1847 -0.0867 0.0350 Uiso
C7M C 0.5819(7) 0.2561(5) -0.0720(4) 0.0400 Uiso
H4M H 0.6363 0.2615 -0.0824 0.0490 Uiso
C8M C 0.5459(7) 0.2848(5) -0.0398(4) 0.0370 Uiso
H5M H 0.5777 0.3097 -0.0283 0.0440 Uiso
In1R In 0.6250 0.1250 -0.18301(2) 0.0202 Uani
In1S In 0.1250 0.6250 -0.18301(2) 0.0202 Uani
O2Z O 0.3923(3) 0.31844(18) 0.12002(15) 0.0463 Uani
O2AA O 0.3577(3) 0.43156(18) 0.12002(15) 0.0463 Uani
O3Z O 0.2632(3) 0.33909(14) 0.10312(12) 0.0416 Uani
O3AA O 0.4868(3) 0.41091(14) 0.10312(12) 0.0416 Uani
loop_
_atom_site_aniso_label
_atom_site_aniso_U_11
_atom_site_aniso_U_22
_atom_site_aniso_U_33
_atom_site_aniso_U_23
_atom_site_aniso_U_13
_atom_site_aniso_U_12
In1 0.0246(2) 0.0224(2) 0.0136(2) 0.000 0.000 -0.00155(10)
O1 0.0397(19) 0.073(3) 0.046(2) 0.032(2) -0.0055(18) 0.004(2)
O2 0.044 0.052 0.043 0.0209 -0.0061 0.0068
O3 0.0475 0.0466 0.0308 0.0165 -0.0007 0.0067
O4 0.045 0.052 0.043 0.0248 -0.004 -0.0025
C1 0.041(2) 0.046(2) 0.031(2) 0.0163(19) -0.0031(18) 0.004(2)
C2 0.039(2) 0.053(3) 0.037(2) 0.025(2) -0.0024(18) 0.003(2)
C3 0.041(2) 0.047(3) 0.036(2) 0.021(2) -0.0026(18) 0.0066(19)
C4 0.046 0.035 0.027 0.0093 -0.0018 0.008
O1M 0.0397 0.073 0.046 -0.032 0.0055 0.004
O2M 0.044 0.052 0.043 -0.0209 0.0061 0.0068
O3M 0.0475 0.0466 0.0308 -0.0165 0.0007 0.0067
O4M 0.045 0.052 0.043 -0.0248 0.004 -0.0025
C1M 0.041 0.046 0.031 -0.0163 0.0031 0.004
C2M 0.039 0.053 0.037 -0.025 0.0024 0.003
C3M 0.041 0.047 0.036 -0.021 0.0026 0.0066
C4M 0.046 0.035 0.027 -0.0093 0.0018 0.008
In1R 0.0246 0.0224 0.0136 0 0 0.00155
In1S 0.0246 0.0224 0.0136 0 0 0.00155
O2Z 0.044 0.052 0.043 0.0209 0.0061 -0.0068
O2AA 0.044 0.052 0.043 -0.0209 -0.0061 -0.0068
O3Z 0.0475 0.0466 0.0308 0.0165 0.0007 -0.0067
O3AA 0.0475 0.0466 0.0308 -0.0165 -0.0007 -0.0067
loop_
_geom_bond_atom_site_label_1
_geom_bond_atom_site_label_2
_geom_bond_site_symmetry_1
_geom_bond_site_symmetry_2
In1 O1 1_555 1_555
O1 C1 1_555 1_555
O2 C4 1_555 1_555
O3 C4 1_555 1_555
O4 In1 1_555 1_555
C1 O4 1_555 1_555
C2 C1 1_555 1_555
C3 C4 1_555 1_555
N1 H1 1_555 1_555
H2 N1 1_555 1_555
C5 C2 1_555 1_555
C6 C3 1_555 1_555
H3 C6 1_555 1_555
C7 C3 1_555 1_555
H4 C7 1_555 1_555
C8 C2 1_555 1_555
H5 C8 1_555 1_555
O1M In1 1_555 1_555
O2M C4M 1_555 1_555
O3M C4M 1_555 1_555
O4M In1 1_555 1_555
C1M O1M 1_555 1_555
C2M C1M 1_555 1_555
C3M C4M 1_555 1_555
N1M H1M 1_555 1_555
H2M N1M 1_555 1_555
C5M C2M 1_555 1_555
C6M C3M 1_555 1_555
H3M C6M 1_555 1_555
C7M C3M 1_555 1_555
H4M C7M 1_555 1_555
C8M C2M 1_555 1_555
H5M C8M 1_555 1_555
In1R O2M 1_555 1_555
In1S O2 1_555 1_555
O2Z In1 1_555 1_555
O2AA In1 1_555 1_555
O3Z In1 1_555 1_555
O3AA In1 1_555 1_555
O3 In1S 1_555 1_555
N1 C5 1_555 1_555
C5 C6 1_555 1_555
C7 C8 1_555 1_555
O3M In1R 1_555 1_555
O4M C1M 1_555 1_555
N1M C5M 1_555 1_555
C5M C6M 1_555 1_555
C7M C8M 1_555 1_555

#END
