
#######################################################################
#
#                 Cambridge Crystallographic Data Centre
#                                CCDC 
#
#######################################################################
#
# If this CIF has been generated from an entry in the Cambridge 
# Structural Database, then it will include bibliographic, chemical, 
# crystal, experimental, refinement or atomic coordinate data resulting 
# from the CCDC's data processing and validation procedures.
#
#######################################################################

data_IBAPUY
_chemical_formula_moiety         'C128 H48 F20 Mn1 N15 O14 Pd1 Zn9'
_symmetry_cell_setting           orthorhombic
_symmetry_space_group_name_H-M   'P m m m'
_symmetry_Int_Tables_number      47
_space_group_name_Hall           '-P 2 2'
loop_
_symmetry_equiv_pos_site_id
_symmetry_equiv_pos_as_xyz
1 x,y,z
2 -x,-y,z
3 -x,y,-z
4 x,-y,-z
5 -x,-y,-z
6 x,y,-z
7 x,-y,z
8 -x,y,z
_cell_length_a                   16.5671(5)
_cell_length_b                   16.5864(5)
_cell_length_c                   22.1775(10)
_cell_angle_alpha                90
_cell_angle_beta                 90
_cell_angle_gamma                90
_cell_volume                     6094.12
loop_
_atom_site_label
_atom_site_type_symbol
_atom_site_fract_x
_atom_site_fract_y
_atom_site_fract_z
Zn1 Zn 0.0000 0.5000 0.43450(6)
Pd1 Pd 0.5000 1.0000 0.5000
O1 O 0.0837(2) 0.5838(2) 0.45210(18)
N1 N 0.5000 0.8802(3) 0.5000
N2 N 0.3803(3) 1.0000 0.5000
C1 C 0.1075(4) 0.6069(4) 0.5000
C2 C 0.1734(3) 0.6742(3) 0.5000
C3 C 0.2008(3) 0.7018(3) 0.4450(3)
H1 H 0.1811 0.6821 0.4076
C4 C 0.2606(3) 0.7620(3) 0.4493(3)
H2 H 0.2814 0.7842 0.4130
C5 C 0.2887(3) 0.7887(3) 0.5000
C6 C 0.3542(3) 0.8548(3) 0.5000
C7 C 0.3307(3) 0.9333(3) 0.5000
C8 C 0.2443(3) 0.9591(3) 0.5000
C9 C 0.4326(3) 0.8316(3) 0.5000
C10 C 0.4601(3) 0.7447(3) 0.5000
Mn1 Mn 0.0000 0.5000 0.0000
N3 N 0.0000 0.5000 0.3553(5)
N4 N 0.0611(8) 0.4382(9) 0.0662(3)
C11 C -0.0429(6) 0.5430(6) 0.3174(5)
H3 H -0.0775 0.5792 0.3383
C12 C -0.0519(7) 0.5504(7) 0.2574(5)
H4 H -0.0895 0.5862 0.2393
C13 C 0.0000 0.5000 0.2239(5)
C14 C 0.0000 0.5000 0.1555(6)
C15 C 0.0554(10) 0.4485(10) 0.1258(3)
C16 C 0.1082(13) 0.3925(14) 0.1564(5)
H5 H 0.1103 0.3825 0.1985
C17 C 0.1541(12) 0.3568(13) 0.1133(5)
H6 H 0.1938 0.3162 0.1189
C18 C 0.1298(11) 0.3939(14) 0.0571(5)
C19 C 0.129(2) 0.3597(19) 0.0000
C20 C 0.204(4) 0.306(5) 0.0000
C21 C 0.279(6) 0.331(2) 0.0000
C22 C 0.339(3) 0.282(7) 0.0000
C23 C 0.326(6) 0.205(6) 0.0000
C24 C 0.252(8) 0.179(2) 0.0000
C25 C 0.192(4) 0.229(7) 0.0000
F1 F 0.300(2) 0.420(2) 0.0000
F2 F 0.4301(18) 0.300(3) 0.0000
F3 F 0.398(2) 0.146(3) 0.0000
F4 F 0.244(2) 0.0862(18) 0.0000
F5 F 0.110(2) 0.185(2) 0.0000
Zn1B Zn 0.0000 0.5000 0.56550(6)
Zn1B_2 Zn 1.0000 0.5000 0.56550(6)
Zn1_2 Zn 1.0000 0.5000 0.43450(6)
Zn1_3 Zn 1.0000 1.5000 0.43450(6)
Zn1B_3 Zn 1.0000 1.5000 0.56550(6)
Zn1B_4 Zn 0.0000 1.5000 0.56550(6)
Zn1_4 Zn 0.0000 1.5000 0.43450(6)
Zn1B_5 Zn 0.0000 0.5000 -0.43450(6)
O1E O 0.0837(2) 0.5838(2) 0.54790(18)
O1B O 0.9163(2) 0.5838(2) 0.54790(18)
O1G O 0.9163(2) 0.5838(2) 0.45210(18)
O1A O 0.9163(2) 1.4162(2) 0.45210(18)
O1D O 0.9163(2) 1.4162(2) 0.54790(18)
O1C O 0.0837(2) 1.4162(2) 0.54790(18)
O1F O 0.0837(2) 1.4162(2) 0.45210(18)
O1F_2 O 0.0837(2) 0.4162(2) 0.45210(18)
O1G_2 O -0.0837(2) 0.5838(2) 0.45210(18)
O1A_2 O -0.0837(2) 0.4162(2) 0.45210(18)
O1C_2 O 0.0837(2) 0.4162(2) 0.54790(18)
O1B_2 O -0.0837(2) 0.5838(2) 0.54790(18)
O1D_2 O -0.0837(2) 0.4162(2) 0.54790(18)
N1A N 0.5000 1.1198(3) 0.5000
N2A N 0.6197(3) 1.0000 0.5000
C1B C 0.8925(4) 0.6069(4) 0.5000
C1A C 0.8925(4) 1.3931(4) 0.5000
C1C C 0.1075(4) 1.3931(4) 0.5000
C2B C 0.8266(3) 0.6742(3) 0.5000
C2A C 0.8266(3) 1.3258(3) 0.5000
C2C C 0.1734(3) 1.3258(3) 0.5000
C3E C 0.2008(3) 0.7018(3) 0.5550(3)
C3B C 0.7992(3) 0.7018(3) 0.5550(3)
C3G C 0.7992(3) 0.7018(3) 0.4450(3)
C3A C 0.7992(3) 1.2982(3) 0.4450(3)
C3D C 0.7992(3) 1.2982(3) 0.5550(3)
C3C C 0.2008(3) 1.2982(3) 0.5550(3)
C3F C 0.2008(3) 1.2982(3) 0.4450(3)
H1E H 0.1811 0.6821 0.5924
H1G H 0.8189 0.6821 0.4076
H1B H 0.8189 0.6821 0.5924
H1D H 0.8189 1.3179 0.5924
H1A H 0.8189 1.3179 0.4076
H1F H 0.1811 1.3179 0.4076
H1C H 0.1811 1.3179 0.5924
C4E C 0.2606(3) 0.7620(3) 0.5507(3)
C4B C 0.7394(3) 0.7620(3) 0.5507(3)
C4G C 0.7394(3) 0.7620(3) 0.4493(3)
C4A C 0.7394(3) 1.2380(3) 0.4493(3)
C4D C 0.7394(3) 1.2380(3) 0.5507(3)
C4C C 0.2606(3) 1.2380(3) 0.5507(3)
C4F C 0.2606(3) 1.2380(3) 0.4493(3)
H2E H 0.2814 0.7842 0.5870
H2G H 0.7186 0.7842 0.4130
H2B H 0.7186 0.7842 0.5870
H2D H 0.7186 1.2158 0.5870
H2A H 0.7186 1.2158 0.4130
H2F H 0.2814 1.2158 0.4130
H2C H 0.2814 1.2158 0.5870
C5B C 0.7113(3) 0.7887(3) 0.5000
C5A C 0.7113(3) 1.2113(3) 0.5000
C5C C 0.2887(3) 1.2113(3) 0.5000
C6B C 0.6458(3) 0.8548(3) 0.5000
C6A C 0.6458(3) 1.1452(3) 0.5000
C6C C 0.3542(3) 1.1452(3) 0.5000
C7B C 0.6693(3) 0.9333(3) 0.5000
C7A C 0.6693(3) 1.0667(3) 0.5000
C7C C 0.3307(3) 1.0667(3) 0.5000
C8C C 0.2443(3) 1.0409(3) 0.5000
C8A C 0.7557(3) 1.0409(3) 0.5000
C8B C 0.7557(3) 0.9591(3) 0.5000
C9B C 0.5674(3) 0.8316(3) 0.5000
C9A C 0.5674(3) 1.1684(3) 0.5000
C9C C 0.4326(3) 1.1684(3) 0.5000
C10C C 0.4601(3) 1.2553(3) 0.5000
C10A C 0.5399(3) 1.2553(3) 0.5000
C10B C 0.5399(3) 0.7447(3) 0.5000
N3B N 0.0000 0.5000 -0.3553(5)
N3B_2 N 0.0000 0.5000 0.6447(5)
N4F N 0.0611(8) 0.5618(9) 0.0662(3)
N4A N -0.0611(8) 0.5618(9) 0.0662(3)
N4G N -0.0611(8) 0.4382(9) 0.0662(3)
N4B N -0.0611(8) 0.4382(9) -0.0662(3)
N4C N 0.0611(8) 0.5618(9) -0.0662(3)
N4D N -0.0611(8) 0.5618(9) -0.0662(3)
N4E N 0.0611(8) 0.4382(9) -0.0662(3)
C11A C 0.0429(6) 0.4570(6) 0.3174(5)
C11F C -0.0429(6) 0.4570(6) 0.3174(5)
C11G C 0.0429(6) 0.5430(6) 0.3174(5)
C11B C 0.0429(6) 0.5430(6) -0.3174(5)
C11C C -0.0429(6) 0.4570(6) -0.3174(5)
C11D C 0.0429(6) 0.4570(6) -0.3174(5)
C11E C -0.0429(6) 0.5430(6) -0.3174(5)
H3F H -0.0775 0.4208 0.3383
H3G H 0.0775 0.5792 0.3383
H3A H 0.0775 0.4208 0.3383
H3C H -0.0775 0.4208 -0.3383
H3E H -0.0775 0.5792 -0.3383
H3D H 0.0775 0.4208 -0.3383
H3B H 0.0775 0.5792 -0.3383
C12A C 0.0519(7) 0.4496(7) 0.2574(5)
C12F C -0.0519(7) 0.4496(7) 0.2574(5)
C12G C 0.0519(7) 0.5504(7) 0.2574(5)
C12B C 0.0519(7) 0.5504(7) -0.2574(5)
C12C C -0.0519(7) 0.4496(7) -0.2574(5)
C12D C 0.0519(7) 0.4496(7) -0.2574(5)
C12E C -0.0519(7) 0.5504(7) -0.2574(5)
H4F H -0.0895 0.4138 0.2393
H4G H 0.0895 0.5862 0.2393
H4A H 0.0895 0.4138 0.2393
H4C H -0.0895 0.4138 -0.2393
H4E H -0.0895 0.5862 -0.2393
H4D H 0.0895 0.4138 -0.2393
H4B H 0.0895 0.5862 -0.2393
C13B C -0.0000 0.5000 -0.2239(5)
C14B C 0.0000 0.5000 -0.1555(6)
C15F C 0.0554(10) 0.5515(10) 0.1258(3)
C15A C -0.0554(10) 0.5515(10) 0.1258(3)
C15G C -0.0554(10) 0.4485(10) 0.1258(3)
C15B C -0.0554(10) 0.4485(10) -0.1258(3)
C15C C 0.0554(10) 0.5515(10) -0.1258(3)
C15E C 0.0554(10) 0.4485(10) -0.1258(3)
C15D C -0.0554(10) 0.5515(10) -0.1258(3)
C16F C 0.1082(13) 0.6075(14) 0.1564(5)
C16A C -0.1082(13) 0.6075(14) 0.1564(5)
C16G C -0.1082(13) 0.3925(14) 0.1564(5)
C16C C 0.1082(13) 0.6075(14) -0.1564(5)
C16D C -0.1082(13) 0.6075(14) -0.1564(5)
C16E C 0.1082(13) 0.3925(14) -0.1564(5)
C16B C -0.1082(13) 0.3925(14) -0.1564(5)
H5G H -0.1103 0.3825 0.1985
H5C H 0.1103 0.6175 -0.1985
H5D H -0.1103 0.6175 -0.1985
H5E H 0.1103 0.3825 -0.1985
H5B H -0.1103 0.3825 -0.1985
H5A H -0.1103 0.6175 0.1985
H5F H 0.1103 0.6175 0.1985
C17F C 0.1541(12) 0.6432(13) 0.1133(5)
C17A C -0.1541(12) 0.6432(13) 0.1133(5)
C17G C -0.1541(12) 0.3568(13) 0.1133(5)
C17C C 0.1541(12) 0.6432(13) -0.1133(5)
C17D C -0.1541(12) 0.6432(13) -0.1133(5)
C17E C 0.1541(12) 0.3568(13) -0.1133(5)
C17B C -0.1541(12) 0.3568(13) -0.1133(5)
H6G H -0.1938 0.3162 0.1189
H6C H 0.1938 0.6838 -0.1189
H6D H -0.1938 0.6838 -0.1189
H6E H 0.1938 0.3162 -0.1189
H6B H -0.1938 0.3162 -0.1189
H6A H -0.1938 0.6838 0.1189
H6F H 0.1938 0.6838 0.1189
C18F C 0.1298(11) 0.6061(14) 0.0571(5)
C18A C -0.1298(11) 0.6061(14) 0.0571(5)
C18G C -0.1298(11) 0.3939(14) 0.0571(5)
C18B C -0.1298(11) 0.3939(14) -0.0571(5)
C18C C 0.1298(11) 0.6061(14) -0.0571(5)
C18D C -0.1298(11) 0.6061(14) -0.0571(5)
C18E C 0.1298(11) 0.3939(14) -0.0571(5)
C19B C -0.129(2) 0.3597(19) 0.0000
C19C C 0.129(2) 0.6403(19) 0.0000
C19A C -0.129(2) 0.6403(19) 0.0000
C20C C 0.204(4) 0.694(5) 0.0000
C20A C -0.204(4) 0.694(5) 0.0000
C20B C -0.204(4) 0.306(5) 0.0000
C21C C 0.279(6) 0.669(2) 0.0000
C21A C -0.279(6) 0.669(2) 0.0000
C21B C -0.279(6) 0.331(2) 0.0000
C22C C 0.339(3) 0.718(7) 0.0000
C22A C -0.339(3) 0.718(7) 0.0000
C22B C -0.339(3) 0.282(7) 0.0000
C23C C 0.326(6) 0.795(6) 0.0000
C23A C -0.326(6) 0.795(6) 0.0000
C23B C -0.326(6) 0.205(6) 0.0000
C24C C 0.252(8) 0.821(2) 0.0000
C24A C -0.252(8) 0.821(2) 0.0000
C24B C -0.252(8) 0.179(2) 0.0000
C25C C 0.192(4) 0.771(7) 0.0000
C25A C -0.192(4) 0.771(7) 0.0000
C25B C -0.192(4) 0.229(7) 0.0000
F1C F 0.300(2) 0.580(2) 0.0000
F1A F -0.300(2) 0.580(2) 0.0000
F1B F -0.300(2) 0.420(2) 0.0000
F2C F 0.4301(18) 0.700(3) 0.0000
F2A F -0.4301(18) 0.700(3) 0.0000
F2B F -0.4301(18) 0.300(3) 0.0000
F3C F 0.398(2) 0.854(3) 0.0000
F3A F -0.398(2) 0.854(3) 0.0000
F3B F -0.398(2) 0.146(3) 0.0000
F4C F 0.244(2) 0.9138(18) 0.0000
F4A F -0.244(2) 0.9138(18) 0.0000
F4B F -0.244(2) 0.0862(18) 0.0000
F5C F 0.110(2) 0.815(2) 0.0000
F5A F -0.110(2) 0.815(2) 0.0000
F5B F -0.110(2) 0.185(2) 0.0000
loop_
_geom_bond_atom_site_label_1
_geom_bond_atom_site_label_2
_geom_bond_site_symmetry_1
_geom_bond_site_symmetry_2
Zn1 O1 1_555 1_555
Pd1 N1 1_555 1_555
O1 C1 1_555 1_555
N1 C9 1_555 1_555
N2 Pd1 1_555 1_555
C1 C2 1_555 1_555
C2 C3 1_555 1_555
C3 H1 1_555 1_555
C4 C3 1_555 1_555
H2 C4 1_555 1_555
C5 C4 1_555 1_555
C6 C5 1_555 1_555
C7 N2 1_555 1_555
C8 C7 1_555 1_555
C9 C6 1_555 1_555
C10 C9 1_555 1_555
Mn1 N4 1_555 1_555
N3 Zn1 1_555 1_555
N4 C15 1_555 1_555
C11 N3 1_555 1_555
H3 C11 1_555 1_555
C12 C11 1_555 1_555
H4 C12 1_555 1_555
C13 C12 1_555 1_555
C14 C13 1_555 1_555
C15 C14 1_555 1_555
C16 C15 1_555 1_555
H5 C16 1_555 1_555
C17 C16 1_555 1_555
H6 C17 1_555 1_555
C18 N4 1_555 1_555
C19 C18 1_555 1_555
C20 C19 1_555 1_555
C21 C20 1_555 1_555
C22 C21 1_555 1_555
C23 C22 1_555 1_555
C24 C23 1_555 1_555
C25 C20 1_555 1_555
F1 C21 1_555 1_555
F2 C22 1_555 1_555
F3 C23 1_555 1_555
F4 C24 1_555 1_555
F5 C25 1_555 1_555
Zn1B O1E 1_555 1_555
Zn1B_2 O1B 1_555 1_555
Zn1_2 O1G 1_555 1_555
Zn1_3 O1A 1_555 1_555
Zn1B_3 O1D 1_555 1_555
Zn1B_4 O1C 1_555 1_555
Zn1_4 O1F 1_555 1_555
Zn1B_5 N3B 1_555 1_555
O1E C1 1_555 1_555
O1B C1B 1_555 1_555
O1G C1B 1_555 1_555
O1A C1A 1_555 1_555
O1D C1A 1_555 1_555
O1C C1C 1_555 1_555
O1F C1C 1_555 1_555
O1F_2 Zn1 1_555 1_555
O1G_2 Zn1 1_555 1_555
O1A_2 Zn1 1_555 1_555
O1C_2 Zn1B 1_555 1_555
O1B_2 Zn1B 1_555 1_555
O1D_2 Zn1B 1_555 1_555
N1A Pd1 1_555 1_555
N2A Pd1 1_555 1_555
C1B C2B 1_555 1_555
C1A C2A 1_555 1_555
C1C C2C 1_555 1_555
C2B C3B 1_555 1_555
C2A C3A 1_555 1_555
C2C C3C 1_555 1_555
C3E C2 1_555 1_555
C3B H1B 1_555 1_555
C3G C2B 1_555 1_555
C3A H1A 1_555 1_555
C3D C2A 1_555 1_555
C3C H1C 1_555 1_555
C3F C2C 1_555 1_555
H1E C3E 1_555 1_555
H1G C3G 1_555 1_555
H1D C3D 1_555 1_555
H1F C3F 1_555 1_555
C4E C5 1_555 1_555
C4B C3B 1_555 1_555
C4G C3G 1_555 1_555
C4A C3A 1_555 1_555
C4D C3D 1_555 1_555
C4C C3C 1_555 1_555
C4F C3F 1_555 1_555
H2E C4E 1_555 1_555
H2G C4G 1_555 1_555
H2B C4B 1_555 1_555
H2D C4D 1_555 1_555
H2A C4A 1_555 1_555
H2F C4F 1_555 1_555
H2C C4C 1_555 1_555
C5B C4B 1_555 1_555
C5A C4A 1_555 1_555
C5C C4C 1_555 1_555
C6B C5B 1_555 1_555
C6A C5A 1_555 1_555
C6C C5C 1_555 1_555
C7B N2A 1_555 1_555
C7A N2A 1_555 1_555
C7C N2 1_555 1_555
C8C C8 1_555 1_555
C8A C7A 1_555 1_555
C8B C7B 1_555 1_555
C9B N1 1_555 1_555
C9A N1A 1_555 1_555
C9C N1A 1_555 1_555
C10C C9C 1_555 1_555
C10A C9A 1_555 1_555
C10B C10 1_555 1_555
N3B C11B 1_555 1_555
N3B_2 Zn1B 1_555 1_555
N4F Mn1 1_555 1_555
N4A Mn1 1_555 1_555
N4G Mn1 1_555 1_555
N4B Mn1 1_555 1_555
N4C Mn1 1_555 1_555
N4D Mn1 1_555 1_555
N4E Mn1 1_555 1_555
C11A N3 1_555 1_555
C11F N3 1_555 1_555
C11G N3 1_555 1_555
C11B C11D 1_555 1_555
C11C N3B 1_555 1_555
C11D N3B 1_555 1_555
C11E N3B 1_555 1_555
H3F C11F 1_555 1_555
H3G C11G 1_555 1_555
H3A C11A 1_555 1_555
H3C C11C 1_555 1_555
H3E C11E 1_555 1_555
H3D C11D 1_555 1_555
H3B C11B 1_555 1_555
C12A C13 1_555 1_555
C12F C12 1_555 1_555
C12G C12 1_555 1_555
C12B C11B 1_555 1_555
C12C C11C 1_555 1_555
C12D C11D 1_555 1_555
C12E C11E 1_555 1_555
H4F C12F 1_555 1_555
H4G C12G 1_555 1_555
H4A C12A 1_555 1_555
H4C C12C 1_555 1_555
H4E C12E 1_555 1_555
H4D C12D 1_555 1_555
H4B C12B 1_555 1_555
C13B C12B 1_555 1_555
C14B C13B 1_555 1_555
C15F C14 1_555 1_555
C15A C14 1_555 1_555
C15G C14 1_555 1_555
C15B N4B 1_555 1_555
C15C N4C 1_555 1_555
C15E N4E 1_555 1_555
C15D N4D 1_555 1_555
C16F C15F 1_555 1_555
C16A C15A 1_555 1_555
C16G C15G 1_555 1_555
C16C C15C 1_555 1_555
C16D C15D 1_555 1_555
C16E C15E 1_555 1_555
C16B C15B 1_555 1_555
H5G C16G 1_555 1_555
H5C C16C 1_555 1_555
H5D C16D 1_555 1_555
H5E C16E 1_555 1_555
H5B C16B 1_555 1_555
H5A C16A 1_555 1_555
H5F C16F 1_555 1_555
C17F C16F 1_555 1_555
C17A C16A 1_555 1_555
C17G C16G 1_555 1_555
C17C C16C 1_555 1_555
C17D C16D 1_555 1_555
C17E C16E 1_555 1_555
C17B C16B 1_555 1_555
H6G C17G 1_555 1_555
H6C C17C 1_555 1_555
H6D C17D 1_555 1_555
H6E C17E 1_555 1_555
H6B C17B 1_555 1_555
H6A C17A 1_555 1_555
H6F C17F 1_555 1_555
C18F N4F 1_555 1_555
C18A N4A 1_555 1_555
C18G N4G 1_555 1_555
C18B N4B 1_555 1_555
C18C N4C 1_555 1_555
C18D N4D 1_555 1_555
C18E C19 1_555 1_555
C19B C18G 1_555 1_555
C19C C18F 1_555 1_555
C19A C18A 1_555 1_555
C20C C19C 1_555 1_555
C20A C19A 1_555 1_555
C20B C19B 1_555 1_555
C21C C20C 1_555 1_555
C21A C20A 1_555 1_555
C21B C20B 1_555 1_555
C22C C21C 1_555 1_555
C22A C21A 1_555 1_555
C22B C21B 1_555 1_555
C23C C22C 1_555 1_555
C23A C22A 1_555 1_555
C23B C22B 1_555 1_555
C24C C23C 1_555 1_555
C24A C23A 1_555 1_555
C24B C23B 1_555 1_555
C25C C20C 1_555 1_555
C25A C20A 1_555 1_555
C25B C20B 1_555 1_555
F1C C21C 1_555 1_555
F1A C21A 1_555 1_555
F1B C21B 1_555 1_555
F2C C22C 1_555 1_555
F2A C22A 1_555 1_555
F2B C22B 1_555 1_555
F3C C23C 1_555 1_555
F3A C23A 1_555 1_555
F3B C23B 1_555 1_555
F4C C24C 1_555 1_555
F4A C24A 1_555 1_555
F4B C24B 1_555 1_555
F5C C25C 1_555 1_555
F5A C25A 1_555 1_555
F5B C25B 1_555 1_555
C6 C7 1_555 1_555
C11 C11F 1_555 1_555
C11 C11G 1_555 1_555
C13 C12F 1_555 1_555
C13 C12G 1_555 1_555
C15 C15F 1_555 1_555
C17 C18 1_555 1_555
C24 C25 1_555 1_555
C3E C4E 1_555 1_555
C4G C5B 1_555 1_555
C4D C5A 1_555 1_555
C4F C5C 1_555 1_555
C6B C7B 1_555 1_555
C6B C9B 1_555 1_555
C6A C7A 1_555 1_555
C6A C9A 1_555 1_555
C6C C7C 1_555 1_555
C6C C9C 1_555 1_555
C7C C8C 1_555 1_555
C8A C8B 1_555 1_555
C9B C10B 1_555 1_555
C10C C10A 1_555 1_555
N4F C15F 1_555 1_555
N4A C15A 1_555 1_555
N4G C15G 1_555 1_555
N4E C18E 1_555 1_555
C11A C11F 1_555 1_555
C11A C11G 1_555 1_555
C11A C12A 1_555 1_555
C11F C12F 1_555 1_555
C11G C12G 1_555 1_555
C11B C11E 1_555 1_555
C11C C11D 1_555 1_555
C11C C11E 1_555 1_555
C12A C12F 1_555 1_555
C12A C12G 1_555 1_555
C12B C12D 1_555 1_555
C12B C12E 1_555 1_555
C12C C12D 1_555 1_555
C12C C12E 1_555 1_555
C12C C13B 1_555 1_555
C12D C13B 1_555 1_555
C12E C13B 1_555 1_555
C14B C15B 1_555 1_555
C14B C15C 1_555 1_555
C14B C15E 1_555 1_555
C14B C15D 1_555 1_555
C15A C15G 1_555 1_555
C15B C15D 1_555 1_555
C15C C15E 1_555 1_555
C17F C18F 1_555 1_555
C17A C18A 1_555 1_555
C17G C18G 1_555 1_555
C17C C18C 1_555 1_555
C17D C18D 1_555 1_555
C17E C18E 1_555 1_555
C17B C18B 1_555 1_555
C18B C19B 1_555 1_555
C18C C19C 1_555 1_555
C18D C19A 1_555 1_555
C24C C25C 1_555 1_555
C24A C25A 1_555 1_555
C24B C25B 1_555 1_555

#END
