
#######################################################################
#
#                 Cambridge Crystallographic Data Centre
#                                CCDC 
#
#######################################################################
#
# If this CIF has been generated from an entry in the Cambridge 
# Structural Database, then it will include bibliographic, chemical, 
# crystal, experimental, refinement or atomic coordinate data resulting 
# from the CCDC's data processing and validation procedures.
#
#######################################################################

data_IBAPOS
_chemical_formula_moiety         'C128 H56 Cl2 F20 Fe1 N15 O14 Zn10'
_symmetry_cell_setting           orthorhombic
_symmetry_space_group_name_H-M   'P m m m'
_symmetry_Int_Tables_number      47
_space_group_name_Hall           '-P 2 2'
loop_
_symmetry_equiv_pos_site_id
_symmetry_equiv_pos_as_xyz
1 x,y,z
2 -x,-y,z
3 -x,y,-z
4 x,-y,-z
5 -x,-y,-z
6 x,y,-z
7 x,-y,z
8 -x,y,z
_cell_length_a                   16.614(3)
_cell_length_b                   16.640(3)
_cell_length_c                   22.194(5)
_cell_angle_alpha                90
_cell_angle_beta                 90
_cell_angle_gamma                90
_cell_volume                     6135.69
loop_
_atom_site_label
_atom_site_type_symbol
_atom_site_fract_x
_atom_site_fract_y
_atom_site_fract_z
Zn1 Zn 0.0000 0.5000 -0.43536(7)
Fe1 Fe -0.5000 0.0000 -0.5000
F1 F -0.2975(17) 0.4058(18) 0.0000
F2 F -0.4331(16) 0.2882(17) 0.0000
F3 F -0.4305(18) 0.1511(18) 0.0000
F4 F -0.2406(18) 0.0723(17) 0.0000
F5 F -0.1108(19) 0.1837(15) 0.0000
Cl1 Cl -0.5000 -0.0000 -0.6153(6)
O1 O -0.0821(2) 0.4155(2) -0.4526(2)
N1 N -0.5000 0.1198(4) -0.5000
N2 N -0.3776(5) 0.0000 -0.5000
C1 C -0.1103(5) 0.3907(5) -0.5000
C2 C -0.1691(4) 0.3307(4) -0.5000
C3 C -0.2001(3) 0.2990(3) -0.4449(4)
H1 H -0.1824 0.3208 -0.4076
C4 C -0.2551(4) 0.2376(4) -0.4451(4)
H2 H -0.2709 0.2127 -0.4084
C5 C -0.2876(5) 0.2122(5) -0.5000
C6 C -0.3574(4) 0.1453(4) -0.5000
C7 C -0.3249(4) 0.0627(4) -0.5000
C8 C -0.2510(4) 0.0383(4) -0.5000
H3 H -0.2046 0.0718 -0.5000
C9 C -0.4341(4) 0.1684(4) -0.5000
C10 C -0.4559(4) 0.2554(4) -0.5000
H4 H -0.4207 0.3004 -0.5000
Zn2 Zn 0.0000 0.5000 0.0000
N3 N 0.0000 0.5000 -0.3474(6)
N4 N -0.0649(12) 0.4504(11) -0.0768(9)
C11 C -0.0566(10) 0.5388(8) -0.3089(8)
H5 H -0.0993 0.5640 -0.3303
C12 C -0.0630(12) 0.5478(9) -0.2471(9)
H6 H -0.1014 0.5793 -0.2260
C13 C 0.0000 0.5000 -0.2213(11)
C14 C 0.0000 0.5000 -0.1523(11)
C15 C -0.0557(12) 0.4469(12) -0.1322(11)
C16 C -0.1110(18) 0.3858(16) -0.1555(12)
H7 H -0.1250 0.3786 -0.1966
C17 C -0.1395(17) 0.3404(17) -0.1082(12)
H8 H -0.1584 0.2865 -0.1092
C18 C -0.1341(18) 0.3937(18) -0.05585(2)
C19 C -0.143(3) 0.353(2) 0.0000
C20 C -0.215(3) 0.290(3) 0.0000
C21 C -0.295(4) 0.3147(19) 0.0000(8)
C22 C -0.356(2) 0.258(4) 0.0000(12)
C23 C -0.337(3) 0.176(3) 0.0000(14)
C24 C -0.257(4) 0.1520(18) 0.0000(13)
C25 C -0.196(2) 0.209(4) 0.0000(8)
Zn1B Zn 0.0000 0.5000 -0.56464(7)
Zn1_2 Zn -1.0000 -0.5000 -0.43536(7)
Zn1_3 Zn -1.0000 0.5000 -0.43536(7)
Zn1_4 Zn 0.0000 -0.5000 -0.43536(7)
Zn1B_2 Zn -1.0000 -0.5000 -0.56464(7)
Zn1B_3 Zn 0.0000 -0.5000 -0.56464(7)
Zn1B_4 Zn 0.0000 0.5000 0.43536(7)
Zn1B_5 Zn -1.0000 0.5000 -0.56464(7)
F1A F 0.2975(17) 0.5942(18) 0.0000
F1C F -0.2975(17) 0.5942(18) 0.0000
F1B F 0.2975(17) 0.4058(18) 0.0000
F2A F 0.4331(16) 0.7118(17) 0.0000
F2C F -0.4331(16) 0.7118(17) 0.0000
F2B F 0.4331(16) 0.2882(17) 0.0000
F3A F 0.4305(18) 0.8489(18) 0.0000
F3C F -0.4305(18) 0.8489(18) 0.0000
F3B F 0.4305(18) 0.1511(18) 0.0000
F4A F 0.2406(18) 0.9277(17) 0.0000
F4C F -0.2406(18) 0.9277(17) 0.0000
F4B F 0.2406(18) 0.0723(17) 0.0000
F5A F 0.1108(19) 0.8163(15) 0.0000
F5C F -0.1108(19) 0.8163(15) 0.0000
F5B F 0.1108(19) 0.1837(15) 0.0000
Cl1B Cl -0.5000 0.0000 -0.3847(6)
O1B O -0.9179(2) 0.4155(2) -0.5474(2)
O1C O -0.0821(2) -0.4155(2) -0.5474(2)
O1E O -0.0821(2) 0.4155(2) -0.5474(2)
O1F O -0.0821(2) -0.4155(2) -0.4526(2)
O1G O -0.9179(2) 0.4155(2) -0.4526(2)
O1A O -0.9179(2) -0.4155(2) -0.4526(2)
O1D O -0.9179(2) -0.4155(2) -0.5474(2)
O1A_2 O 0.0821(2) 0.5845(2) -0.4526(2)
O1B_2 O 0.0821(2) 0.4155(2) -0.5474(2)
O1C_2 O -0.0821(2) 0.5845(2) -0.5474(2)
O1D_2 O 0.0821(2) 0.5845(2) -0.5474(2)
O1F_2 O -0.0821(2) 0.5845(2) -0.4526(2)
O1G_2 O 0.0821(2) 0.4155(2) -0.4526(2)
N1A N -0.5000 -0.1198(4) -0.5000
N2A N -0.6224(5) 0.0000 -0.5000
C1B C -0.8897(5) 0.3907(5) -0.5000
C1C C -0.1103(5) -0.3907(5) -0.5000
C1A C -0.8897(5) -0.3907(5) -0.5000
C2B C -0.8309(4) 0.3307(4) -0.5000
C2C C -0.1691(4) -0.3307(4) -0.5000
C2A C -0.8309(4) -0.3307(4) -0.5000
C3B C -0.7999(3) 0.2990(3) -0.5551(4)
C3C C -0.2001(3) -0.2990(3) -0.5551(4)
C3E C -0.2001(3) 0.2990(3) -0.5551(4)
C3F C -0.2001(3) -0.2990(3) -0.4449(4)
C3G C -0.7999(3) 0.2990(3) -0.4449(4)
C3A C -0.7999(3) -0.2990(3) -0.4449(4)
C3D C -0.7999(3) -0.2990(3) -0.5551(4)
H1B H -0.8176 0.3208 -0.5924
H1C H -0.1824 -0.3208 -0.5924
H1E H -0.1824 0.3208 -0.5924
H1F H -0.1824 -0.3208 -0.4076
H1G H -0.8176 0.3208 -0.4076
H1A H -0.8176 -0.3208 -0.4076
H1D H -0.8176 -0.3208 -0.5924
C4B C -0.7449(4) 0.2376(4) -0.5549(4)
C4C C -0.2551(4) -0.2376(4) -0.5549(4)
C4E C -0.2551(4) 0.2376(4) -0.5549(4)
C4F C -0.2551(4) -0.2376(4) -0.4451(4)
C4G C -0.7449(4) 0.2376(4) -0.4451(4)
C4A C -0.7449(4) -0.2376(4) -0.4451(4)
C4D C -0.7449(4) -0.2376(4) -0.5549(4)
H2B H -0.7291 0.2127 -0.5916
H2C H -0.2709 -0.2127 -0.5916
H2E H -0.2709 0.2127 -0.5916
H2F H -0.2709 -0.2127 -0.4084
H2G H -0.7291 0.2127 -0.4084
H2A H -0.7291 -0.2127 -0.4084
H2D H -0.7291 -0.2127 -0.5916
C5B C -0.7124(5) 0.2122(5) -0.5000
C5C C -0.2876(5) -0.2122(5) -0.5000
C5A C -0.7124(5) -0.2122(5) -0.5000
C6B C -0.6426(4) 0.1453(4) -0.5000
C6C C -0.3574(4) -0.1453(4) -0.5000
C6A C -0.6426(4) -0.1453(4) -0.5000
C7B C -0.6751(4) 0.0627(4) -0.5000
C7C C -0.3249(4) -0.0627(4) -0.5000
C7A C -0.6751(4) -0.0627(4) -0.5000
C8B C -0.7490(4) 0.0383(4) -0.5000
C8C C -0.2510(4) -0.0383(4) -0.5000
C8A C -0.7490(4) -0.0383(4) -0.5000
H3B H -0.7954 0.0718 -0.5000
H3C H -0.2046 -0.0718 -0.5000
H3A H -0.7954 -0.0718 -0.5000
C9B C -0.5659(4) 0.1684(4) -0.5000
C9C C -0.4341(4) -0.1684(4) -0.5000
C9A C -0.5659(4) -0.1684(4) -0.5000
C10B C -0.5441(4) 0.2554(4) -0.5000
C10C C -0.4559(4) -0.2554(4) -0.5000
C10A C -0.5441(4) -0.2554(4) -0.5000
H4B H -0.5793 0.3004 -0.5000
H4C H -0.4207 -0.3004 -0.5000
H4A H -0.5793 -0.3004 -0.5000
N3B N 0.0000 0.5000 0.3474(6)
N3B_2 N 0.0000 0.5000 -0.6526(6)
N4A N 0.0649(12) 0.5496(11) -0.0768(9)
N4D N 0.0649(12) 0.5496(11) 0.0768(9)
N4E N -0.0649(12) 0.4504(11) 0.0768(9)
N4F N -0.0649(12) 0.5496(11) -0.0768(9)
N4G N 0.0649(12) 0.4504(11) -0.0768(9)
N4B N 0.0649(12) 0.4504(11) 0.0768(9)
N4C N -0.0649(12) 0.5496(11) 0.0768(9)
C11A C 0.0566(10) 0.4612(8) -0.3089(8)
C11D C 0.0566(10) 0.4612(8) 0.3089(8)
C11E C -0.0566(10) 0.5388(8) 0.3089(8)
C11F C -0.0566(10) 0.4612(8) -0.3089(8)
C11G C 0.0566(10) 0.5388(8) -0.3089(8)
C11B C 0.0566(10) 0.5388(8) 0.3089(8)
C11C C -0.0566(10) 0.4612(8) 0.3089(8)
H5A H 0.0993 0.4360 -0.3303
H5D H 0.0993 0.4360 0.3303
H5E H -0.0993 0.5640 0.3303
H5F H -0.0993 0.4360 -0.3303
H5G H 0.0993 0.5640 -0.3303
H5B H 0.0993 0.5640 0.3303
H5C H -0.0993 0.4360 0.3303
C12A C 0.0630(12) 0.4522(9) -0.2471(9)
C12D C 0.0630(12) 0.4522(9) 0.2471(9)
C12E C -0.0630(12) 0.5478(9) 0.2471(9)
C12F C -0.0630(12) 0.4522(9) -0.2471(9)
C12G C 0.0630(12) 0.5478(9) -0.2471(9)
C12B C 0.0630(12) 0.5478(9) 0.2471(9)
C12C C -0.0630(12) 0.4522(9) 0.2471(9)
H6A H 0.1014 0.4207 -0.2260
H6D H 0.1014 0.4207 0.2260
H6E H -0.1014 0.5793 0.2260
H6F H -0.1014 0.4207 -0.2260
H6G H 0.1014 0.5793 -0.2260
H6B H 0.1014 0.5793 0.2260
H6C H -0.1014 0.4207 0.2260
C13B C 0.0000 0.5000 0.2213(11)
C14B C 0.0000 0.5000 0.1523(11)
C15A C 0.0557(12) 0.5531(12) -0.1322(11)
C15D C 0.0557(12) 0.5531(12) 0.1322(11)
C15E C -0.0557(12) 0.4469(12) 0.1322(11)
C15F C -0.0557(12) 0.5531(12) -0.1322(11)
C15G C 0.0557(12) 0.4469(12) -0.1322(11)
C15B C 0.0557(12) 0.4469(12) 0.1322(11)
C15C C -0.0557(12) 0.5531(12) 0.1322(11)
C16A C 0.1110(18) 0.6142(16) -0.1555(12)
C16D C 0.1110(18) 0.6142(16) 0.1555(12)
C16E C -0.1110(18) 0.3858(16) 0.1555(12)
C16F C -0.1110(18) 0.6142(16) -0.1555(12)
C16G C 0.1110(18) 0.3858(16) -0.1555(12)
C16B C 0.1110(18) 0.3858(16) 0.1555(12)
C16C C -0.1110(18) 0.6142(16) 0.1555(12)
H7A H 0.1250 0.6214 -0.1966
H7D H 0.1250 0.6214 0.1966
H7E H -0.1250 0.3786 0.1966
H7F H -0.1250 0.6214 -0.1966
H7G H 0.1250 0.3786 -0.1966
H7B H 0.1250 0.3786 0.1966
H7C H -0.1250 0.6214 0.1966
C17A C 0.1395(17) 0.6596(17) -0.1082(12)
C17D C 0.1395(17) 0.6596(17) 0.1082(12)
C17E C -0.1395(17) 0.3404(17) 0.1082(12)
C17F C -0.1395(17) 0.6596(17) -0.1082(12)
C17G C 0.1395(17) 0.3404(17) -0.1082(12)
C17B C 0.1395(17) 0.3404(17) 0.1082(12)
C17C C -0.1395(17) 0.6596(17) 0.1082(12)
H8A H 0.1584 0.7135 -0.1092
H8D H 0.1584 0.7135 0.1092
H8E H -0.1584 0.2865 0.1092
H8F H -0.1584 0.7135 -0.1092
H8G H 0.1584 0.2865 -0.1092
H8B H 0.1584 0.2865 0.1092
H8C H -0.1584 0.7135 0.1092
C18A C 0.1341(18) 0.6063(18) -0.05585(2)
C18D C 0.1341(18) 0.6063(18) 0.05585(2)
C18E C -0.1341(18) 0.3937(18) 0.05585(2)
C18F C -0.1341(18) 0.6063(18) -0.05585(2)
C18G C 0.1341(18) 0.3937(18) -0.05585(2)
C18B C 0.1341(18) 0.3937(18) 0.05585(2)
C18C C -0.1341(18) 0.6063(18) 0.05585(2)
C19A C 0.143(3) 0.647(2) 0.0000
C19C C -0.143(3) 0.647(2) 0.0000
C19B C 0.143(3) 0.353(2) 0.0000
C20A C 0.215(3) 0.710(3) 0.0000
C20C C -0.215(3) 0.710(3) 0.0000
C20B C 0.215(3) 0.290(3) 0.0000
C21A C 0.295(4) 0.6853(19) 0.0000(8)
C21C C -0.295(4) 0.6853(19) 0.0000(8)
C21B C 0.295(4) 0.3147(19) 0.0000(8)
C22A C 0.356(2) 0.742(4) 0.0000(12)
C22C C -0.356(2) 0.742(4) 0.0000(12)
C22B C 0.356(2) 0.258(4) 0.0000(12)
C23A C 0.337(3) 0.824(3) 0.0000(14)
C23C C -0.337(3) 0.824(3) 0.0000(14)
C23B C 0.337(3) 0.176(3) 0.0000(14)
C24A C 0.257(4) 0.8480(18) 0.0000(13)
C24C C -0.257(4) 0.8480(18) 0.0000(13)
C24B C 0.257(4) 0.1520(18) 0.0000(13)
C25A C 0.196(2) 0.791(4) 0.0000(8)
C25C C -0.196(2) 0.791(4) 0.0000(8)
C25B C 0.196(2) 0.209(4) 0.0000(8)
loop_
_geom_bond_atom_site_label_1
_geom_bond_atom_site_label_2
_geom_bond_site_symmetry_1
_geom_bond_site_symmetry_2
Zn1 O1 1_555 1_555
Fe1 Cl1 1_555 1_555
F1 C21 1_555 1_555
F2 C22 1_555 1_555
F3 C23 1_555 1_555
F4 C24 1_555 1_555
F5 C25 1_555 1_555
O1 C1 1_555 1_555
N1 Fe1 1_555 1_555
N2 Fe1 1_555 1_555
C1 C2 1_555 1_555
C2 C3 1_555 1_555
C3 H1 1_555 1_555
C4 C3 1_555 1_555
H2 C4 1_555 1_555
C5 C4 1_555 1_555
C6 C5 1_555 1_555
C7 N2 1_555 1_555
C8 C7 1_555 1_555
H3 C8 1_555 1_555
C9 N1 1_555 1_555
C10 C9 1_555 1_555
H4 C10 1_555 1_555
Zn2 N4 1_555 1_555
N3 Zn1 1_555 1_555
N4 C15 1_555 1_555
C11 N3 1_555 1_555
H5 C11 1_555 1_555
C12 C11 1_555 1_555
H6 C12 1_555 1_555
C13 C12 1_555 1_555
C14 C13 1_555 1_555
C15 C14 1_555 1_555
C16 C15 1_555 1_555
H7 C16 1_555 1_555
C17 C16 1_555 1_555
H8 C17 1_555 1_555
C18 N4 1_555 1_555
C19 C18 1_555 1_555
C20 C19 1_555 1_555
C21 C20 1_555 1_555
C22 C21 1_555 1_555
C23 C22 1_555 1_555
C24 C23 1_555 1_555
C25 C20 1_555 1_555
Zn1B O1E 1_555 1_555
Zn1_2 O1A 1_555 1_555
Zn1_3 O1G 1_555 1_555
Zn1_4 O1F 1_555 1_555
Zn1B_2 O1D 1_555 1_555
Zn1B_3 O1C 1_555 1_555
Zn1B_4 N3B 1_555 1_555
Zn1B_5 O1B 1_555 1_555
F1A C21A 1_555 1_555
F1C C21C 1_555 1_555
F1B C21B 1_555 1_555
F2A C22A 1_555 1_555
F2C C22C 1_555 1_555
F2B C22B 1_555 1_555
F3A C23A 1_555 1_555
F3C C23C 1_555 1_555
F3B C23B 1_555 1_555
F4A C24A 1_555 1_555
F4C C24C 1_555 1_555
F4B C24B 1_555 1_555
F5A C25A 1_555 1_555
F5C C25C 1_555 1_555
F5B C25B 1_555 1_555
Cl1B Fe1 1_555 1_555
O1B C1B 1_555 1_555
O1C C1C 1_555 1_555
O1E C1 1_555 1_555
O1F C1C 1_555 1_555
O1G C1B 1_555 1_555
O1A C1A 1_555 1_555
O1D C1A 1_555 1_555
O1A_2 Zn1 1_555 1_555
O1B_2 Zn1B 1_555 1_555
O1C_2 Zn1B 1_555 1_555
O1D_2 Zn1B 1_555 1_555
O1F_2 Zn1 1_555 1_555
O1G_2 Zn1 1_555 1_555
N1A Fe1 1_555 1_555
N2A Fe1 1_555 1_555
C1B C2B 1_555 1_555
C1C C2C 1_555 1_555
C1A C2A 1_555 1_555
C2B C3B 1_555 1_555
C2C C3C 1_555 1_555
C2A C3A 1_555 1_555
C3B H1B 1_555 1_555
C3C H1C 1_555 1_555
C3E C2 1_555 1_555
C3F C2C 1_555 1_555
C3G C2B 1_555 1_555
C3A H1A 1_555 1_555
C3D C2A 1_555 1_555
H1E C3E 1_555 1_555
H1F C3F 1_555 1_555
H1G C3G 1_555 1_555
H1D C3D 1_555 1_555
C4B C3B 1_555 1_555
C4C C3C 1_555 1_555
C4E C5 1_555 1_555
C4F C3F 1_555 1_555
C4G C3G 1_555 1_555
C4A C3A 1_555 1_555
C4D C3D 1_555 1_555
H2B C4B 1_555 1_555
H2C C4C 1_555 1_555
H2E C4E 1_555 1_555
H2F C4F 1_555 1_555
H2G C4G 1_555 1_555
H2A C4A 1_555 1_555
H2D C4D 1_555 1_555
C5B C4B 1_555 1_555
C5C C4C 1_555 1_555
C5A C4A 1_555 1_555
C6B C5B 1_555 1_555
C6C C5C 1_555 1_555
C6A C5A 1_555 1_555
C7B N2A 1_555 1_555
C7C N2 1_555 1_555
C7A N2A 1_555 1_555
C8B C7B 1_555 1_555
C8C C8 1_555 1_555
C8A C7A 1_555 1_555
H3B C8B 1_555 1_555
H3C C8C 1_555 1_555
H3A C8A 1_555 1_555
C9B N1 1_555 1_555
C9C N1A 1_555 1_555
C9A N1A 1_555 1_555
C10B C10 1_555 1_555
C10C C9C 1_555 1_555
C10A C9A 1_555 1_555
H4B C10B 1_555 1_555
H4C C10C 1_555 1_555
H4A C10A 1_555 1_555
N3B C11D 1_555 1_555
N3B_2 Zn1B 1_555 1_555
N4A Zn2 1_555 1_555
N4D Zn2 1_555 1_555
N4E Zn2 1_555 1_555
N4F Zn2 1_555 1_555
N4G Zn2 1_555 1_555
N4B Zn2 1_555 1_555
N4C Zn2 1_555 1_555
C11A N3 1_555 1_555
C11D C11B 1_555 1_555
C11E N3B 1_555 1_555
C11F N3 1_555 1_555
C11G N3 1_555 1_555
C11B N3B 1_555 1_555
C11C N3B 1_555 1_555
H5A C11A 1_555 1_555
H5D C11D 1_555 1_555
H5E C11E 1_555 1_555
H5F C11F 1_555 1_555
H5G C11G 1_555 1_555
H5B C11B 1_555 1_555
H5C C11C 1_555 1_555
C12A C13 1_555 1_555
C12D C11D 1_555 1_555
C12E C11E 1_555 1_555
C12F C12 1_555 1_555
C12G C13 1_555 1_555
C12B C11B 1_555 1_555
C12C C11C 1_555 1_555
H6A C12A 1_555 1_555
H6D C12D 1_555 1_555
H6E C12E 1_555 1_555
H6F C12F 1_555 1_555
H6G C12G 1_555 1_555
H6B C12B 1_555 1_555
H6C C12C 1_555 1_555
C13B C12D 1_555 1_555
C14B C13B 1_555 1_555
C15A C14 1_555 1_555
C15D N4D 1_555 1_555
C15E N4E 1_555 1_555
C15F C14 1_555 1_555
C15G C14 1_555 1_555
C15B N4B 1_555 1_555
C15C N4C 1_555 1_555
C16A C15A 1_555 1_555
C16D C15D 1_555 1_555
C16E C15E 1_555 1_555
C16F C15F 1_555 1_555
C16G C15G 1_555 1_555
C16B C15B 1_555 1_555
C16C C15C 1_555 1_555
H7A C16A 1_555 1_555
H7D C16D 1_555 1_555
H7E C16E 1_555 1_555
H7F C16F 1_555 1_555
H7G C16G 1_555 1_555
H7B C16B 1_555 1_555
H7C C16C 1_555 1_555
C17A C16A 1_555 1_555
C17D C16D 1_555 1_555
C17E C16E 1_555 1_555
C17F C16F 1_555 1_555
C17G C16G 1_555 1_555
C17B C16B 1_555 1_555
C17C C16C 1_555 1_555
H8A C17A 1_555 1_555
H8D C17D 1_555 1_555
H8E C17E 1_555 1_555
H8F C17F 1_555 1_555
H8G C17G 1_555 1_555
H8B C17B 1_555 1_555
H8C C17C 1_555 1_555
C18A N4A 1_555 1_555
C18D N4D 1_555 1_555
C18E C19 1_555 1_555
C18F N4F 1_555 1_555
C18G N4G 1_555 1_555
C18B N4B 1_555 1_555
C18C N4C 1_555 1_555
C19A C18A 1_555 1_555
C19C C18F 1_555 1_555
C19B C18G 1_555 1_555
C20A C19A 1_555 1_555
C20C C19C 1_555 1_555
C20B C19B 1_555 1_555
C21A C20A 1_555 1_555
C21C C20C 1_555 1_555
C21B C20B 1_555 1_555
C22A C21A 1_555 1_555
C22C C21C 1_555 1_555
C22B C21B 1_555 1_555
C23A C22A 1_555 1_555
C23C C22C 1_555 1_555
C23B C22B 1_555 1_555
C24A C23A 1_555 1_555
C24C C23C 1_555 1_555
C24B C23B 1_555 1_555
C25A C20A 1_555 1_555
C25C C20C 1_555 1_555
C25B C20B 1_555 1_555
C6 C7 1_555 1_555
C6 C9 1_555 1_555
N4 N4F 1_555 1_555
C11 C11F 1_555 1_555
C13 C12F 1_555 1_555
C15 C15F 1_555 1_555
C17 C18 1_555 1_555
C24 C25 1_555 1_555
C3E C4E 1_555 1_555
C4F C5C 1_555 1_555
C4G C5B 1_555 1_555
C4D C5A 1_555 1_555
C6B C7B 1_555 1_555
C6B C9B 1_555 1_555
C6C C7C 1_555 1_555
C6C C9C 1_555 1_555
C6A C7A 1_555 1_555
C6A C9A 1_555 1_555
C7C C8C 1_555 1_555
C8B C8A 1_555 1_555
C9B C10B 1_555 1_555
C10C C10A 1_555 1_555
N4A N4G 1_555 1_555
N4A C15A 1_555 1_555
N4D N4B 1_555 1_555
N4E N4C 1_555 1_555
N4E C18E 1_555 1_555
N4F C15F 1_555 1_555
N4G C15G 1_555 1_555
C11A C11G 1_555 1_555
C11A C12A 1_555 1_555
C11E C11C 1_555 1_555
C11F C12F 1_555 1_555
C11G C12G 1_555 1_555
C12A C12G 1_555 1_555
C12D C12B 1_555 1_555
C12E C12C 1_555 1_555
C12E C13B 1_555 1_555
C12B C13B 1_555 1_555
C12C C13B 1_555 1_555
C14B C15D 1_555 1_555
C14B C15E 1_555 1_555
C14B C15B 1_555 1_555
C14B C15C 1_555 1_555
C15A C15G 1_555 1_555
C15D C15B 1_555 1_555
C15E C15C 1_555 1_555
C17A C18A 1_555 1_555
C17D C18D 1_555 1_555
C17E C18E 1_555 1_555
C17F C18F 1_555 1_555
C17G C18G 1_555 1_555
C17B C18B 1_555 1_555
C17C C18C 1_555 1_555
C18D C19A 1_555 1_555
C18B C19B 1_555 1_555
C18C C19C 1_555 1_555
C24A C25A 1_555 1_555
C24C C25C 1_555 1_555
C24B C25B 1_555 1_555

#END
