
#######################################################################
#
#                 Cambridge Crystallographic Data Centre
#                                CCDC 
#
#######################################################################
#
# If this CIF has been generated from an entry in the Cambridge 
# Structural Database, then it will include bibliographic, chemical, 
# crystal, experimental, refinement or atomic coordinate data resulting 
# from the CCDC's data processing and validation procedures.
#
#######################################################################

data_IBAQAF
_chemical_formula_moiety         'C128 H56 F20 Mn1 N15 O16 Zn10'
_symmetry_cell_setting           orthorhombic
_symmetry_space_group_name_H-M   'P m m m'
_symmetry_Int_Tables_number      47
_space_group_name_Hall           '-P 2 2'
loop_
_symmetry_equiv_pos_site_id
_symmetry_equiv_pos_as_xyz
1 x,y,z
2 -x,-y,z
3 -x,y,-z
4 x,-y,-z
5 -x,-y,-z
6 x,y,-z
7 x,-y,z
8 -x,y,z
_cell_length_a                   16.6121(10)
_cell_length_b                   16.6202(9)
_cell_length_c                   22.1631(19)
_cell_angle_alpha                90
_cell_angle_beta                 90
_cell_angle_gamma                90
_cell_volume                     6119.15
loop_
_atom_site_label
_atom_site_type_symbol
_atom_site_fract_x
_atom_site_fract_y
_atom_site_fract_z
Zn1 Zn 0.0000 0.5000 -0.43462(5)
Zn2 Zn -0.5000 0.0000 -0.5000
O1 O -0.08369(17) 0.41562(17) -0.44915(16)
O2 O -0.5000 -0.0000 -0.6040(11)
N1 N -0.5000 0.1233(3) -0.5000
N2 N -0.3785(3) 0.0000 -0.5000
C1 C -0.1068(3) 0.3936(3) -0.5000
C2 C -0.1708(3) 0.3278(2) -0.5000
C3 C -0.2008(3) 0.2989(3) -0.4463(2)
H1 H -0.1802 0.3197 -0.4095
C4 C -0.2604(3) 0.2401(3) -0.4445(3)
H2 H -0.2808 0.2208 -0.4072
C5 C -0.2898(3) 0.2101(2) -0.5000
C6 C -0.3542(3) 0.1460(2) -0.5000
C7 C -0.3271(3) 0.0655(2) -0.5000
C8 C -0.2447(3) 0.0400(3) -0.5000
H3 H -0.1987 0.0740 -0.5000
C9 C -0.4345(3) 0.1720(2) -0.5000
C10 C -0.4596(3) 0.2553(2) -0.5000
H4 H -0.4255 0.3012 -0.5000
Mn1 Mn 0.0000 0.5000 0.0000
N3 N 0.0000 0.5000 -0.3465(4)
N4 N -0.0593(8) 0.4387(10) -0.0660(4)
C11 C 0.0497(7) 0.5446(7) -0.3151(5)
H5 H 0.0872 0.5772 -0.3363
C12 C 0.0504(8) 0.5467(8) -0.2545(5)
H6 H 0.0873 0.5819 -0.2352
C13 C -0.0000 0.5000 -0.2187(8)
C14 C 0.0000 0.5000 -0.1497(8)
C15 C -0.0539(12) 0.4453(12) -0.1256(4)
C16 C -0.1097(17) 0.3911(18) -0.1544(6)
H7 H -0.1178 0.3848 -0.1966
C17 C -0.1480(17) 0.3512(17) -0.1103(8)
H8 H -0.1793 0.3036 -0.1137
C18 C -0.1307(11) 0.3969(15) -0.0564(7)
C19 C -0.121(3) 0.361(2) 0.0000
C20 C -0.1870(17) 0.2982(17) 0.0000
C21 C -0.2669(15) 0.3303(17) 0.0000
C22 C -0.3352(16) 0.2788(15) 0.0000
C23 C -0.3233(16) 0.1941(15) 0.0000
C24 C -0.2435(16) 0.1616(17) 0.0000
C25 C -0.1752(17) 0.2136(16) 0.0000
F1 F -0.2761(19) 0.4108(17) 0.0000
F2 F -0.4101(16) 0.3106(18) 0.0000
F3 F -0.3872(18) 0.1430(18) 0.0000
F4 F -0.233(2) 0.0814(16) 0.0000
F5 F -0.1001(18) 0.183(2) 0.0000
Zn1B Zn 0.0000 0.5000 -0.56538(5)
Zn1_2 Zn -1.0000 -0.5000 -0.43462(5)
Zn1_3 Zn -1.0000 0.5000 -0.43462(5)
Zn1_4 Zn -0.0000 -0.5000 -0.43462(5)
Zn1B_2 Zn -1.0000 -0.5000 -0.56538(5)
Zn1B_3 Zn -0.0000 -0.5000 -0.56538(5)
Zn1B_4 Zn 0.0000 0.5000 0.43462(5)
Zn1B_5 Zn -1.0000 0.5000 -0.56538(5)
O1B O -0.91631(17) 0.41562(17) -0.55085(16)
O1C O -0.08369(17) -0.41562(17) -0.55085(16)
O1E O -0.08369(17) 0.41562(17) -0.55085(16)
O1F O -0.08369(17) -0.41562(17) -0.44915(16)
O1G O -0.91631(17) 0.41562(17) -0.44915(16)
O1A O -0.91631(17) -0.41562(17) -0.44915(16)
O1D O -0.91631(17) -0.41562(17) -0.55085(16)
O1A_2 O 0.08369(17) 0.58438(17) -0.44915(16)
O1B_2 O 0.08369(17) 0.41562(17) -0.55085(16)
O1C_2 O -0.08369(17) 0.58438(17) -0.55085(16)
O1D_2 O 0.08369(17) 0.58438(17) -0.55085(16)
O1F_2 O -0.08369(17) 0.58438(17) -0.44915(16)
O1G_2 O 0.08369(17) 0.41562(17) -0.44915(16)
O2B O -0.5000 0.0000 -0.3960(11)
N1A N -0.5000 -0.1233(3) -0.5000
N2A N -0.6215(3) 0.0000 -0.5000
C1B C -0.8932(3) 0.3936(3) -0.5000
C1C C -0.1068(3) -0.3936(3) -0.5000
C1A C -0.8932(3) -0.3936(3) -0.5000
C2B C -0.8292(3) 0.3278(2) -0.5000
C2C C -0.1708(3) -0.3278(2) -0.5000
C2A C -0.8292(3) -0.3278(2) -0.5000
C3B C -0.7992(3) 0.2989(3) -0.5537(2)
C3C C -0.2008(3) -0.2989(3) -0.5537(2)
C3E C -0.2008(3) 0.2989(3) -0.5537(2)
C3F C -0.2008(3) -0.2989(3) -0.4463(2)
C3G C -0.7992(3) 0.2989(3) -0.4463(2)
C3A C -0.7992(3) -0.2989(3) -0.4463(2)
C3D C -0.7992(3) -0.2989(3) -0.5537(2)
H1B H -0.8198 0.3197 -0.5905
H1C H -0.1802 -0.3197 -0.5905
H1E H -0.1802 0.3197 -0.5905
H1F H -0.1802 -0.3197 -0.4095
H1G H -0.8198 0.3197 -0.4095
H1A H -0.8198 -0.3197 -0.4095
H1D H -0.8198 -0.3197 -0.5905
C4B C -0.7396(3) 0.2401(3) -0.5555(3)
C4C C -0.2604(3) -0.2401(3) -0.5555(3)
C4E C -0.2604(3) 0.2401(3) -0.5555(3)
C4F C -0.2604(3) -0.2401(3) -0.4445(3)
C4G C -0.7396(3) 0.2401(3) -0.4445(3)
C4A C -0.7396(3) -0.2401(3) -0.4445(3)
C4D C -0.7396(3) -0.2401(3) -0.5555(3)
H2B H -0.7192 0.2208 -0.5928
H2C H -0.2808 -0.2208 -0.5928
H2E H -0.2808 0.2208 -0.5928
H2F H -0.2808 -0.2208 -0.4072
H2G H -0.7192 0.2208 -0.4072
H2A H -0.7192 -0.2208 -0.4072
H2D H -0.7192 -0.2208 -0.5928
C5B C -0.7102(3) 0.2101(2) -0.5000
C5C C -0.2898(3) -0.2101(2) -0.5000
C5A C -0.7102(3) -0.2101(2) -0.5000
C6B C -0.6458(3) 0.1460(2) -0.5000
C6C C -0.3542(3) -0.1460(2) -0.5000
C6A C -0.6458(3) -0.1460(2) -0.5000
C7B C -0.6729(3) 0.0655(2) -0.5000
C7C C -0.3271(3) -0.0655(2) -0.5000
C7A C -0.6729(3) -0.0655(2) -0.5000
C8B C -0.7553(3) 0.0400(3) -0.5000
C8C C -0.2447(3) -0.0400(3) -0.5000
C8A C -0.7553(3) -0.0400(3) -0.5000
H3B H -0.8013 0.0740 -0.5000
H3C H -0.1987 -0.0740 -0.5000
H3A H -0.8013 -0.0740 -0.5000
C9B C -0.5655(3) 0.1720(2) -0.5000
C9C C -0.4345(3) -0.1720(2) -0.5000
C9A C -0.5655(3) -0.1720(2) -0.5000
C10B C -0.5404(3) 0.2553(2) -0.5000
C10C C -0.4596(3) -0.2553(2) -0.5000
C10A C -0.5404(3) -0.2553(2) -0.5000
H4B H -0.5745 0.3012 -0.5000
H4C H -0.4255 -0.3012 -0.5000
H4A H -0.5745 -0.3012 -0.5000
N3B N 0.0000 0.5000 0.3465(4)
N3B_2 N 0.0000 0.5000 -0.6535(4)
N4A N 0.0593(8) 0.5613(10) -0.0660(4)
N4D N 0.0593(8) 0.5613(10) 0.0660(4)
N4E N -0.0593(8) 0.4387(10) 0.0660(4)
N4F N -0.0593(8) 0.5613(10) -0.0660(4)
N4G N 0.0593(8) 0.4387(10) -0.0660(4)
N4B N 0.0593(8) 0.4387(10) 0.0660(4)
N4C N -0.0593(8) 0.5613(10) 0.0660(4)
C11A C -0.0497(7) 0.4554(7) -0.3151(5)
C11D C -0.0497(7) 0.4554(7) 0.3151(5)
C11E C 0.0497(7) 0.5446(7) 0.3151(5)
C11F C 0.0497(7) 0.4554(7) -0.3151(5)
C11G C -0.0497(7) 0.5446(7) -0.3151(5)
C11B C -0.0497(7) 0.5446(7) 0.3151(5)
C11C C 0.0497(7) 0.4554(7) 0.3151(5)
H5A H -0.0872 0.4228 -0.3363
H5D H -0.0872 0.4228 0.3363
H5E H 0.0872 0.5772 0.3363
H5F H 0.0872 0.4228 -0.3363
H5G H -0.0872 0.5772 -0.3363
H5B H -0.0872 0.5772 0.3363
H5C H 0.0872 0.4228 0.3363
C12A C -0.0504(8) 0.4533(8) -0.2545(5)
C12D C -0.0504(8) 0.4533(8) 0.2545(5)
C12E C 0.0504(8) 0.5467(8) 0.2545(5)
C12F C 0.0504(8) 0.4533(8) -0.2545(5)
C12G C -0.0504(8) 0.5467(8) -0.2545(5)
C12B C -0.0504(8) 0.5467(8) 0.2545(5)
C12C C 0.0504(8) 0.4533(8) 0.2545(5)
H6A H -0.0873 0.4181 -0.2352
H6D H -0.0873 0.4181 0.2352
H6E H 0.0873 0.5819 0.2352
H6F H 0.0873 0.4181 -0.2352
H6G H -0.0873 0.5819 -0.2352
H6B H -0.0873 0.5819 0.2352
H6C H 0.0873 0.4181 0.2352
C13B C 0.0000 0.5000 0.2187(8)
C14B C -0.0000 0.5000 0.1497(8)
C15A C 0.0539(12) 0.5547(12) -0.1256(4)
C15D C 0.0539(12) 0.5547(12) 0.1256(4)
C15E C -0.0539(12) 0.4453(12) 0.1256(4)
C15F C -0.0539(12) 0.5547(12) -0.1256(4)
C15G C 0.0539(12) 0.4453(12) -0.1256(4)
C15B C 0.0539(12) 0.4453(12) 0.1256(4)
C15C C -0.0539(12) 0.5547(12) 0.1256(4)
C16A C 0.1097(17) 0.6089(18) -0.1544(6)
C16D C 0.1097(17) 0.6089(18) 0.1544(6)
C16E C -0.1097(17) 0.3911(18) 0.1544(6)
C16F C -0.1097(17) 0.6089(18) -0.1544(6)
C16G C 0.1097(17) 0.3911(18) -0.1544(6)
C16B C 0.1097(17) 0.3911(18) 0.1544(6)
C16C C -0.1097(17) 0.6089(18) 0.1544(6)
H7A H 0.1178 0.6152 -0.1966
H7D H 0.1178 0.6152 0.1966
H7E H -0.1178 0.3848 0.1966
H7F H -0.1178 0.6152 -0.1966
H7G H 0.1178 0.3848 -0.1966
H7B H 0.1178 0.3848 0.1966
H7C H -0.1178 0.6152 0.1966
C17A C 0.1480(17) 0.6488(17) -0.1103(8)
C17D C 0.1480(17) 0.6488(17) 0.1103(8)
C17E C -0.1480(17) 0.3512(17) 0.1103(8)
C17F C -0.1480(17) 0.6488(17) -0.1103(8)
C17G C 0.1480(17) 0.3512(17) -0.1103(8)
C17B C 0.1480(17) 0.3512(17) 0.1103(8)
C17C C -0.1480(17) 0.6488(17) 0.1103(8)
H8A H 0.1793 0.6964 -0.1137
H8D H 0.1793 0.6964 0.1137
H8E H -0.1793 0.3036 0.1137
H8F H -0.1793 0.6964 -0.1137
H8G H 0.1793 0.3036 -0.1137
H8B H 0.1793 0.3036 0.1137
H8C H -0.1793 0.6964 0.1137
C18A C 0.1307(11) 0.6031(15) -0.0564(7)
C18D C 0.1307(11) 0.6031(15) 0.0564(7)
C18E C -0.1307(11) 0.3969(15) 0.0564(7)
C18F C -0.1307(11) 0.6031(15) -0.0564(7)
C18G C 0.1307(11) 0.3969(15) -0.0564(7)
C18B C 0.1307(11) 0.3969(15) 0.0564(7)
C18C C -0.1307(11) 0.6031(15) 0.0564(7)
C19A C 0.121(3) 0.639(2) 0.0000
C19C C -0.121(3) 0.639(2) 0.0000
C19B C 0.121(3) 0.361(2) 0.0000
C20A C 0.1870(17) 0.7018(17) 0.0000
C20C C -0.1870(17) 0.7018(17) 0.0000
C20B C 0.1870(17) 0.2982(17) 0.0000
C21A C 0.2669(15) 0.6697(17) 0.0000
C21C C -0.2669(15) 0.6697(17) 0.0000
C21B C 0.2669(15) 0.3303(17) 0.0000
C22A C 0.3352(16) 0.7212(15) 0.0000
C22C C -0.3352(16) 0.7212(15) 0.0000
C22B C 0.3352(16) 0.2788(15) 0.0000
C23A C 0.3233(16) 0.8059(15) 0.0000
C23C C -0.3233(16) 0.8059(15) 0.0000
C23B C 0.3233(16) 0.1941(15) 0.0000
C24A C 0.2435(16) 0.8384(17) 0.0000
C24C C -0.2435(16) 0.8384(17) 0.0000
C24B C 0.2435(16) 0.1616(17) 0.0000
C25A C 0.1752(17) 0.7864(16) 0.0000
C25C C -0.1752(17) 0.7864(16) 0.0000
C25B C 0.1752(17) 0.2136(16) 0.0000
F1A F 0.2761(19) 0.5892(17) 0.0000
F1C F -0.2761(19) 0.5892(17) 0.0000
F1B F 0.2761(19) 0.4108(17) 0.0000
F2A F 0.4101(16) 0.6894(18) 0.0000
F2C F -0.4101(16) 0.6894(18) 0.0000
F2B F 0.4101(16) 0.3106(18) 0.0000
F3A F 0.3872(18) 0.8570(18) 0.0000
F3C F -0.3872(18) 0.8570(18) 0.0000
F3B F 0.3872(18) 0.1430(18) 0.0000
F4A F 0.233(2) 0.9186(16) 0.0000
F4C F -0.233(2) 0.9186(16) 0.0000
F4B F 0.233(2) 0.0814(16) 0.0000
F5A F 0.1001(18) 0.817(2) 0.0000
F5C F -0.1001(18) 0.817(2) 0.0000
F5B F 0.1001(18) 0.183(2) 0.0000
loop_
_geom_bond_atom_site_label_1
_geom_bond_atom_site_label_2
_geom_bond_site_symmetry_1
_geom_bond_site_symmetry_2
Zn1 O1 1_555 1_555
Zn2 O2 1_555 1_555
O1 C1 1_555 1_555
N1 Zn2 1_555 1_555
N2 Zn2 1_555 1_555
C1 C2 1_555 1_555
C2 C3 1_555 1_555
C3 H1 1_555 1_555
C4 C3 1_555 1_555
H2 C4 1_555 1_555
C5 C4 1_555 1_555
C6 C5 1_555 1_555
C7 N2 1_555 1_555
C8 C7 1_555 1_555
H3 C8 1_555 1_555
C9 N1 1_555 1_555
C10 C9 1_555 1_555
H4 C10 1_555 1_555
Mn1 N4 1_555 1_555
N3 Zn1 1_555 1_555
N4 C15 1_555 1_555
C11 N3 1_555 1_555
H5 C11 1_555 1_555
C12 C11 1_555 1_555
H6 C12 1_555 1_555
C13 C12 1_555 1_555
C14 C13 1_555 1_555
C15 C14 1_555 1_555
C16 C15 1_555 1_555
H7 C16 1_555 1_555
C17 C16 1_555 1_555
H8 C17 1_555 1_555
C18 N4 1_555 1_555
C19 C18 1_555 1_555
C20 C19 1_555 1_555
C21 C20 1_555 1_555
C22 C21 1_555 1_555
C23 C22 1_555 1_555
C24 C23 1_555 1_555
C25 C20 1_555 1_555
F1 C21 1_555 1_555
F2 C22 1_555 1_555
F3 C23 1_555 1_555
F4 C24 1_555 1_555
F5 C25 1_555 1_555
Zn1B O1E 1_555 1_555
Zn1_2 O1A 1_555 1_555
Zn1_3 O1G 1_555 1_555
Zn1_4 O1F 1_555 1_555
Zn1B_2 O1D 1_555 1_555
Zn1B_3 O1C 1_555 1_555
Zn1B_4 N3B 1_555 1_555
Zn1B_5 O1B 1_555 1_555
O1B C1B 1_555 1_555
O1C C1C 1_555 1_555
O1E C1 1_555 1_555
O1F C1C 1_555 1_555
O1G C1B 1_555 1_555
O1A C1A 1_555 1_555
O1D C1A 1_555 1_555
O1A_2 Zn1 1_555 1_555
O1B_2 Zn1B 1_555 1_555
O1C_2 Zn1B 1_555 1_555
O1D_2 Zn1B 1_555 1_555
O1F_2 Zn1 1_555 1_555
O1G_2 Zn1 1_555 1_555
O2B Zn2 1_555 1_555
N1A Zn2 1_555 1_555
N2A Zn2 1_555 1_555
C1B C2B 1_555 1_555
C1C C2C 1_555 1_555
C1A C2A 1_555 1_555
C2B C3B 1_555 1_555
C2C C3C 1_555 1_555
C2A C3A 1_555 1_555
C3B H1B 1_555 1_555
C3C H1C 1_555 1_555
C3E C2 1_555 1_555
C3F C2C 1_555 1_555
C3G C2B 1_555 1_555
C3A H1A 1_555 1_555
C3D C2A 1_555 1_555
H1E C3E 1_555 1_555
H1F C3F 1_555 1_555
H1G C3G 1_555 1_555
H1D C3D 1_555 1_555
C4B C3B 1_555 1_555
C4C C3C 1_555 1_555
C4E C5 1_555 1_555
C4F C3F 1_555 1_555
C4G C3G 1_555 1_555
C4A C3A 1_555 1_555
C4D C3D 1_555 1_555
H2B C4B 1_555 1_555
H2C C4C 1_555 1_555
H2E C4E 1_555 1_555
H2F C4F 1_555 1_555
H2G C4G 1_555 1_555
H2A C4A 1_555 1_555
H2D C4D 1_555 1_555
C5B C4B 1_555 1_555
C5C C4C 1_555 1_555
C5A C4A 1_555 1_555
C6B C5B 1_555 1_555
C6C C5C 1_555 1_555
C6A C5A 1_555 1_555
C7B N2A 1_555 1_555
C7C N2 1_555 1_555
C7A N2A 1_555 1_555
C8B C7B 1_555 1_555
C8C C8 1_555 1_555
C8A C7A 1_555 1_555
H3B C8B 1_555 1_555
H3C C8C 1_555 1_555
H3A C8A 1_555 1_555
C9B N1 1_555 1_555
C9C N1A 1_555 1_555
C9A N1A 1_555 1_555
C10B C10 1_555 1_555
C10C C9C 1_555 1_555
C10A C9A 1_555 1_555
H4B C10B 1_555 1_555
H4C C10C 1_555 1_555
H4A C10A 1_555 1_555
N3B C11D 1_555 1_555
N3B_2 Zn1B 1_555 1_555
N4A Mn1 1_555 1_555
N4D Mn1 1_555 1_555
N4E Mn1 1_555 1_555
N4F Mn1 1_555 1_555
N4G Mn1 1_555 1_555
N4B Mn1 1_555 1_555
N4C Mn1 1_555 1_555
C11A N3 1_555 1_555
C11D C11B 1_555 1_555
C11E N3B 1_555 1_555
C11F N3 1_555 1_555
C11G N3 1_555 1_555
C11B N3B 1_555 1_555
C11C N3B 1_555 1_555
H5A C11A 1_555 1_555
H5D C11D 1_555 1_555
H5E C11E 1_555 1_555
H5F C11F 1_555 1_555
H5G C11G 1_555 1_555
H5B C11B 1_555 1_555
H5C C11C 1_555 1_555
C12A C13 1_555 1_555
C12D C11D 1_555 1_555
C12E C11E 1_555 1_555
C12F C12 1_555 1_555
C12G C12 1_555 1_555
C12B C11B 1_555 1_555
C12C C11C 1_555 1_555
H6A C12A 1_555 1_555
H6D C12D 1_555 1_555
H6E C12E 1_555 1_555
H6F C12F 1_555 1_555
H6G C12G 1_555 1_555
H6B C12B 1_555 1_555
H6C C12C 1_555 1_555
C13B C12D 1_555 1_555
C14B C13B 1_555 1_555
C15A C14 1_555 1_555
C15D N4D 1_555 1_555
C15E N4E 1_555 1_555
C15F C14 1_555 1_555
C15G C14 1_555 1_555
C15B N4B 1_555 1_555
C15C N4C 1_555 1_555
C16A C15A 1_555 1_555
C16D C15D 1_555 1_555
C16E C15E 1_555 1_555
C16F C15F 1_555 1_555
C16G C15G 1_555 1_555
C16B C15B 1_555 1_555
C16C C15C 1_555 1_555
H7A C16A 1_555 1_555
H7D C16D 1_555 1_555
H7E C16E 1_555 1_555
H7F C16F 1_555 1_555
H7G C16G 1_555 1_555
H7B C16B 1_555 1_555
H7C C16C 1_555 1_555
C17A C16A 1_555 1_555
C17D C16D 1_555 1_555
C17E C16E 1_555 1_555
C17F C16F 1_555 1_555
C17G C16G 1_555 1_555
C17B C16B 1_555 1_555
C17C C16C 1_555 1_555
H8A C17A 1_555 1_555
H8D C17D 1_555 1_555
H8E C17E 1_555 1_555
H8F C17F 1_555 1_555
H8G C17G 1_555 1_555
H8B C17B 1_555 1_555
H8C C17C 1_555 1_555
C18A N4A 1_555 1_555
C18D N4D 1_555 1_555
C18E C19 1_555 1_555
C18F N4F 1_555 1_555
C18G N4G 1_555 1_555
C18B N4B 1_555 1_555
C18C N4C 1_555 1_555
C19A C18A 1_555 1_555
C19C C18F 1_555 1_555
C19B C18G 1_555 1_555
C20A C19A 1_555 1_555
C20C C19C 1_555 1_555
C20B C19B 1_555 1_555
C21A C20A 1_555 1_555
C21C C20C 1_555 1_555
C21B C20B 1_555 1_555
C22A C21A 1_555 1_555
C22C C21C 1_555 1_555
C22B C21B 1_555 1_555
C23A C22A 1_555 1_555
C23C C22C 1_555 1_555
C23B C22B 1_555 1_555
C24A C23A 1_555 1_555
C24C C23C 1_555 1_555
C24B C23B 1_555 1_555
C25A C20A 1_555 1_555
C25C C20C 1_555 1_555
C25B C20B 1_555 1_555
F1A C21A 1_555 1_555
F1C C21C 1_555 1_555
F1B C21B 1_555 1_555
F2A C22A 1_555 1_555
F2C C22C 1_555 1_555
F2B C22B 1_555 1_555
F3A C23A 1_555 1_555
F3C C23C 1_555 1_555
F3B C23B 1_555 1_555
F4A C24A 1_555 1_555
F4C C24C 1_555 1_555
F4B C24B 1_555 1_555
F5A C25A 1_555 1_555
F5C C25C 1_555 1_555
F5B C25B 1_555 1_555
C6 C7 1_555 1_555
C6 C9 1_555 1_555
C11 C11F 1_555 1_555
C11 C11G 1_555 1_555
C13 C12F 1_555 1_555
C13 C12G 1_555 1_555
C15 C15G 1_555 1_555
C17 C18 1_555 1_555
C24 C25 1_555 1_555
C3E C4E 1_555 1_555
C4F C5C 1_555 1_555
C4G C5B 1_555 1_555
C4D C5A 1_555 1_555
C6B C7B 1_555 1_555
C6B C9B 1_555 1_555
C6C C7C 1_555 1_555
C6C C9C 1_555 1_555
C6A C7A 1_555 1_555
C6A C9A 1_555 1_555
C7C C8C 1_555 1_555
C8B C8A 1_555 1_555
C9B C10B 1_555 1_555
C10C C10A 1_555 1_555
N4A C15A 1_555 1_555
N4E C18E 1_555 1_555
N4F C15F 1_555 1_555
N4G C15G 1_555 1_555
C11A C11F 1_555 1_555
C11A C11G 1_555 1_555
C11A C12A 1_555 1_555
C11D C11C 1_555 1_555
C11E C11B 1_555 1_555
C11E C11C 1_555 1_555
C11F C12F 1_555 1_555
C11G C12G 1_555 1_555
C12A C12F 1_555 1_555
C12A C12G 1_555 1_555
C12D C12B 1_555 1_555
C12D C12C 1_555 1_555
C12E C12B 1_555 1_555
C12E C12C 1_555 1_555
C12E C13B 1_555 1_555
C12B C13B 1_555 1_555
C12C C13B 1_555 1_555
C14B C15D 1_555 1_555
C14B C15E 1_555 1_555
C14B C15B 1_555 1_555
C14B C15C 1_555 1_555
C15A C15F 1_555 1_555
C15D C15C 1_555 1_555
C15E C15B 1_555 1_555
C17A C18A 1_555 1_555
C17D C18D 1_555 1_555
C17E C18E 1_555 1_555
C17F C18F 1_555 1_555
C17G C18G 1_555 1_555
C17B C18B 1_555 1_555
C17C C18C 1_555 1_555
C18D C19A 1_555 1_555
C18B C19B 1_555 1_555
C18C C19C 1_555 1_555
C24A C25A 1_555 1_555
C24C C25C 1_555 1_555
C24B C25B 1_555 1_555

#END
