
#######################################################################
#
#                 Cambridge Crystallographic Data Centre
#                                CCDC 
#
#######################################################################
#
# If this CIF has been generated from an entry in the Cambridge 
# Structural Database, then it will include bibliographic, chemical, 
# crystal, experimental, refinement or atomic coordinate data resulting 
# from the CCDC's data processing and validation procedures.
#
#######################################################################

data_YUXQIS
_chemical_formula_moiety         '(C18 H13 Cd1 N3 O4)n'
_symmetry_cell_setting           hexagonal
_symmetry_space_group_name_H-M   'P 6/m'
_symmetry_Int_Tables_number      175
_space_group_name_Hall           '-P 6'
loop_
_symmetry_equiv_pos_site_id
_symmetry_equiv_pos_as_xyz
1 x,y,z
2 x-y,x,z
3 -y,x-y,z
4 -x,-y,z
5 -x+y,-x,z
6 y,-x+y,z
7 -x,-y,-z
8 -x+y,-x,-z
9 y,-x+y,-z
10 x,y,-z
11 x-y,x,-z
12 -y,x-y,-z
_cell_length_a                   25.290(4)
_cell_length_b                   25.290(4)
_cell_length_c                   11.690(2)
_cell_angle_alpha                90
_cell_angle_beta                 90
_cell_angle_gamma                120
_cell_volume                     6475.05
loop_
_atom_site_label
_atom_site_type_symbol
_atom_site_fract_x
_atom_site_fract_y
_atom_site_fract_z
Cd1 Cd 0.58761(3) 0.52508(3) 2.0000
O1 O 0.6026(4) 0.6218(3) 2.0000
O2 O 0.5030(4) 0.5627(3) 2.0000
O3 O 0.5724(4) 0.8805(3) 2.0000
O4 O 0.4731(4) 0.8254(3) 2.0000
C1 C 0.5505(5) 0.6154(5) 2.0000
C2 C 0.5424(4) 0.6699(4) 2.0000
C3 C 0.4858(4) 0.6622(4) 2.0000
H1 H 0.4516 0.6233 2.0000
C4 C 0.4798(5) 0.7154(5) 2.0000
N1 N 0.4232(6) 0.7060(7) 2.0000
H3 H 0.4171 0.7365 2.0000
H4 H 0.3927 0.6693 2.0000
C5 C 0.5294(4) 0.7734(4) 2.0000
C6 C 0.5863(5) 0.7779(5) 2.0000
H5 H 0.6211 0.8164 2.0000
C7 C 0.5928(5) 0.7274(5) 2.0000
H8 H 0.6317 0.7320 2.0000
C8 C 0.5250(6) 0.8296(5) 2.0000
N4 N 0.5830(3) 0.5200(3) 1.8025(5)
C9 C 0.6022(5) 0.5692(5) 1.7416(7)
H11 H 0.6175 0.6062 1.7798
C10 C 0.6015(5) 0.5697(4) 1.6233(6)
H12 H 0.6135 0.6063 1.5850
C11 C 0.5838(4) 0.5187(4) 1.5632(6)
C12 C 0.5658(5) 0.4698(4) 1.6257(6)
H13 H 0.5529 0.4326 1.5895
C13 C 0.5651(5) 0.4715(5) 1.7443(7)
H14 H 0.5507 0.4349 1.7837
Cd1C Cd 0.41239(3) 0.47492(3) 2.0000
Cd1E Cd 0.52508(3) 0.93747(4) 2.0000
Cd1_2 Cd 0.58761(3) 0.52508(3) 1.0000
O2C O 0.4970(4) 0.4373(3) 2.0000
O3A O 0.6919(5) 0.5724(4) 2.0000
O4A O 0.6477(5) 0.4731(4) 2.0000
N4I N 0.5830(3) 0.5200(3) 1.1975(5)
N4I_2 N 0.5830(3) 0.5200(3) 2.1975(5)
C9I C 0.6022(5) 0.5692(5) 1.2584(7)
H11I H 0.6175 0.6062 1.2202
C10I C 0.6015(5) 0.5697(4) 1.3767(6)
H12I H 0.6135 0.6063 1.4150
C11I C 0.5838(4) 0.5187(4) 1.4368(6)
C12I C 0.5658(5) 0.4698(4) 1.3743(6)
H13I H 0.5529 0.4326 1.4105
C13I C 0.5651(5) 0.4715(5) 1.2557(7)
H14I H 0.5507 0.4349 1.2163
loop_
_geom_bond_atom_site_label_1
_geom_bond_atom_site_label_2
_geom_bond_site_symmetry_1
_geom_bond_site_symmetry_2
Cd1 O1 1_555 1_555
O1 C1 1_555 1_555
O2 Cd1 1_555 1_555
O3 C8 1_555 1_555
O4 C8 1_555 1_555
C1 O2 1_555 1_555
C2 C1 1_555 1_555
C3 C2 1_555 1_555
H1 C3 1_555 1_555
C4 C3 1_555 1_555
N1 C4 1_555 1_555
H3 N1 1_555 1_555
H4 N1 1_555 1_555
C5 C4 1_555 1_555
C6 C5 1_555 1_555
H5 C6 1_555 1_555
C7 C2 1_555 1_555
H8 C7 1_555 1_555
C8 C5 1_555 1_555
N4 Cd1 1_555 1_555
C9 N4 1_555 1_555
H11 C9 1_555 1_555
C10 C9 1_555 1_555
H12 C10 1_555 1_555
C11 C10 1_555 1_555
C12 C11 1_555 1_555
H13 C12 1_555 1_555
C13 N4 1_555 1_555
H14 C13 1_555 1_555
Cd1C O2 1_555 1_555
Cd1E O3 1_555 1_555
Cd1_2 N4I 1_555 1_555
O2C Cd1 1_555 1_555
O3A Cd1 1_555 1_555
O4A Cd1 1_555 1_555
N4I C9I 1_555 1_555
N4I_2 Cd1 1_555 1_555
C9I H11I 1_555 1_555
C10I C9I 1_555 1_555
H12I C10I 1_555 1_555
C11I C11 1_555 1_555
C12I C11I 1_555 1_555
H13I C12I 1_555 1_555
C13I N4I 1_555 1_555
H14I C13I 1_555 1_555
O4 Cd1E 1_555 1_555
C6 C7 1_555 1_555
C12 C13 1_555 1_555
Cd1C O2C 1_555 1_555
C10I C11I 1_555 1_555
C12I C13I 1_555 1_555

#END
