
#######################################################################
#
#                 Cambridge Crystallographic Data Centre
#                                CCDC 
#
#######################################################################
#
# If this CIF has been generated from an entry in the Cambridge 
# Structural Database, then it will include bibliographic, chemical, 
# crystal, experimental, refinement or atomic coordinate data resulting 
# from the CCDC's data processing and validation procedures.
#
#######################################################################

data_YUXQOY
_chemical_formula_moiety         '(C18 H13 Cd1 N3 O4)n'
_symmetry_cell_setting           orthorhombic
_symmetry_space_group_name_H-M   'P b a m'
_symmetry_Int_Tables_number      55
_space_group_name_Hall           '-P 2 2ab'
loop_
_symmetry_equiv_pos_site_id
_symmetry_equiv_pos_as_xyz
1 x,y,z
2 -x,-y,z
3 1/2+x,1/2-y,-z
4 1/2-x,1/2+y,-z
5 -x,-y,-z
6 x,y,-z
7 1/2-x,1/2+y,z
8 1/2+x,1/2-y,z
_cell_length_a                   13.700(3)
_cell_length_b                   21.050(4)
_cell_length_c                   11.720(2)
_cell_angle_alpha                90
_cell_angle_beta                 90
_cell_angle_gamma                90
_cell_volume                     3379.87
loop_
_atom_site_label
_atom_site_type_symbol
_atom_site_fract_x
_atom_site_fract_y
_atom_site_fract_z
Cd1 Cd 0.40131(3) 0.565669(16) 0.0000
O1 O 0.2829(3) 0.48625(16) 0.0000
O2 O 0.4289(3) 0.44608(16) 0.0000
O3 O 0.2332(3) 0.13931(18) 0.0000
O4 O 0.0874(3) 0.17737(17) 0.0000
C1 C 0.3388(5) 0.4398(2) 0.0000
C2 C 0.2960(4) 0.3734(2) 0.0000
C3 C 0.3554(5) 0.3213(2) 0.0000
H1 H 0.4228 0.3262 0.0000
C4 C 0.3138(6) 0.2608(3) 0.0000
H2 H 0.349(6) 0.231(4) 0.0000
C5 C 0.1978(4) 0.3652(2) 0.0000
H3 H 0.1570 0.4022 0.0000
C6 C 0.1573(4) 0.3051(3) 0.0000
N1 N 0.0605(3) 0.30160(16) 0.0000
H4 H 0.0246 0.3374 0.0000
H5 H 0.0308 0.2634 0.0000
C7 C 0.2162(3) 0.25166(16) 0.0000
C8 C 0.1761(3) 0.18527(16) 0.0000
N2 N 0.4071(2) 0.56518(14) 0.19840(17)
C9 C 0.4792(2) 0.59827(17) 0.2569(2)
H6 H 0.5276 0.6197 0.2167
C10 C 0.4790(3) 0.59931(18) 0.3755(2)
H7 H 0.5273 0.6215 0.4147
C11 C 0.4067(3) 0.56727(16) 0.43558(17)
C12 C 0.3346(2) 0.53419(18) 0.3771(2)
H8 H 0.2862 0.5127 0.4172
C13 C 0.3348(2) 0.53314(17) 0.2585(2)
H9 H 0.2865 0.5110 0.2193
Cd1A Cd 0.59869(3) 0.434331(16) 0.0000
Cd1C Cd 0.09869(3) 0.065669(16) 0.0000
Cd1_2 Cd 0.40131(3) 0.565669(16) 1.0000
O2A O 0.5711(3) 0.55392(16) 0.0000
O3C O 0.2668(3) 0.63931(18) 0.0000
O4C O 0.4126(3) 0.67737(17) 0.0000
N2E N 0.4071(2) 0.56518(14) 0.80160(17)
N2E_2 N 0.4071(2) 0.56518(14) -0.19840(17)
C9E C 0.4792(2) 0.59827(17) 0.7431(2)
H6E H 0.5276 0.6197 0.7833
C10E C 0.4790(3) 0.59931(18) 0.6245(2)
H7E H 0.5273 0.6215 0.5853
C11E C 0.4067(3) 0.56727(16) 0.56442(17)
C12E C 0.3346(2) 0.53419(18) 0.6229(2)
H8E H 0.2862 0.5127 0.5828
C13E C 0.3348(2) 0.53314(17) 0.7415(2)
H9E H 0.2865 0.5110 0.7807
loop_
_geom_bond_atom_site_label_1
_geom_bond_atom_site_label_2
_geom_bond_site_symmetry_1
_geom_bond_site_symmetry_2
Cd1 O1 1_555 1_555
O1 C1 1_555 1_555
O2 Cd1 1_555 1_555
O3 C8 1_555 1_555
O4 C8 1_555 1_555
C1 O2 1_555 1_555
C2 C1 1_555 1_555
C3 C2 1_555 1_555
H1 C3 1_555 1_555
C4 C3 1_555 1_555
H2 C4 1_555 1_555
C5 C2 1_555 1_555
H3 C5 1_555 1_555
C6 C5 1_555 1_555
N1 C6 1_555 1_555
H4 N1 1_555 1_555
H5 N1 1_555 1_555
C7 C4 1_555 1_555
C8 C7 1_555 1_555
N2 Cd1 1_555 1_555
C9 N2 1_555 1_555
H6 C9 1_555 1_555
C10 C9 1_555 1_555
H7 C10 1_555 1_555
C11 C10 1_555 1_555
C12 C11 1_555 1_555
H8 C12 1_555 1_555
C13 N2 1_555 1_555
H9 C13 1_555 1_555
Cd1A O2 1_555 1_555
Cd1C O3 1_555 1_555
Cd1_2 N2E 1_555 1_555
O2A Cd1 1_555 1_555
O3C Cd1 1_555 1_555
O4C Cd1 1_555 1_555
N2E C9E 1_555 1_555
N2E_2 Cd1 1_555 1_555
C9E H6E 1_555 1_555
C10E C9E 1_555 1_555
H7E C10E 1_555 1_555
C11E C11 1_555 1_555
C12E C11E 1_555 1_555
H8E C12E 1_555 1_555
C13E N2E 1_555 1_555
H9E C13E 1_555 1_555
O4 Cd1C 1_555 1_555
C6 C7 1_555 1_555
C12 C13 1_555 1_555
Cd1A O2A 1_555 1_555
C10E C11E 1_555 1_555
C12E C13E 1_555 1_555

#END
