
#######################################################################
#
#                 Cambridge Crystallographic Data Centre
#                                CCDC 
#
#######################################################################
#
# If this CIF has been generated from an entry in the Cambridge 
# Structural Database, then it will include bibliographic, chemical, 
# crystal, experimental, refinement or atomic coordinate data resulting 
# from the CCDC's data processing and validation procedures.
#
#######################################################################

data_OMIPAD
_chemical_formula_moiety         '(C99 H71 N7 O9 Zn2)n'
_symmetry_cell_setting           monoclinic
_symmetry_space_group_name_H-M   'P 21/c'
_symmetry_Int_Tables_number      14
_space_group_name_Hall           '-P 2ybc'
loop_
_symmetry_equiv_pos_site_id
_symmetry_equiv_pos_as_xyz
1 x,y,z
2 -x,1/2+y,1/2-z
3 -x,-y,-z
4 x,1/2-y,1/2+z
_cell_length_a                   8.9575(8)
_cell_length_b                   19.6850(18)
_cell_length_c                   25.063(2)
_cell_angle_alpha                90
_cell_angle_beta                 96.015(2)
_cell_angle_gamma                90
_cell_volume                     4394.99
loop_
_atom_site_label
_atom_site_type_symbol
_atom_site_fract_x
_atom_site_fract_y
_atom_site_fract_z
C1 C 0.3900(5) 0.2489(2) -0.01758(16)
H1 H 0.3057 0.2272 -0.0070
C2 C 0.4983(6) 0.2102(2) -0.03760(18)
H2 H 0.4873 0.1633 -0.0396
C3 C 0.6238(5) 0.2405(2) -0.05486(16)
C4 C 0.6332(6) 0.3112(2) -0.05013(19)
H3 H 0.7153 0.3345 -0.0609
C5 C 0.5189(6) 0.3457(2) -0.0292(2)
H4 H 0.5260 0.3928 -0.0267
C6 C 0.7406(5) 0.1993(2) -0.07664(16)
C7 C 0.7034(6) 0.1381(2) -0.1022(2)
H5 H 0.6035 0.1245 -0.1075
C8 C 0.8131(6) 0.0973(3) -0.1199(2)
H6 H 0.7859 0.0563 -0.1366
C9 C 0.9605(5) 0.1157(2) -0.11354(16)
C10 C 0.9988(6) 0.1779(3) -0.0907(2)
H7 H 1.0982 0.1923 -0.0876
C11 C 0.8891(6) 0.2188(3) -0.07242(19)
H8 H 0.9163 0.2606 -0.0569
C12 C 1.0458(5) 0.0449(2) -0.18330(15)
C13 C 1.0701(5) -0.0223(2) -0.19413(17)
H9 H 1.1102 -0.0507 -0.1667
C14 C 1.0362(5) -0.0484(2) -0.24503(17)
H10 H 1.0537 -0.0942 -0.2510
C15 C 0.9770(5) -0.0082(2) -0.28734(16)
C16 C 0.9499(6) 0.0600(2) -0.27597(17)
H11 H 0.9073 0.0884 -0.3031
C17 C 0.9856(6) 0.0857(2) -0.22510(17)
H12 H 0.9687 0.1315 -0.2187
C18 C 0.9359(5) -0.0360(2) -0.34098(16)
C19 C 0.8960(8) -0.1038(3) -0.34923(19)
H13 H 0.8999 -0.1334 -0.3202
C20 C 0.8512(8) -0.1272(3) -0.3996(2)
H14 H 0.8231 -0.1725 -0.4038
C21 C 0.8872(6) -0.0241(3) -0.43686(18)
H15 H 0.8858 0.0038 -0.4669
C22 C 0.9329(6) 0.0031(2) -0.38683(17)
H16 H 0.9619 0.0484 -0.3841
C23 C 1.1939(5) 0.0509(2) -0.09462(16)
C24 C 1.1798(6) 0.0485(3) -0.04007(18)
H17 H 1.0881 0.0591 -0.0278
C25 C 1.2998(6) 0.0309(3) -0.00382(18)
H18 H 1.2887 0.0327 0.0326
C26 C 1.4356(5) 0.0105(2) -0.01958(16)
C27 C 1.4456(5) 0.0099(2) -0.07471(16)
H19 H 1.5341 -0.0048 -0.0873
C28 C 1.3275(5) 0.0304(2) -0.11118(15)
H20 H 1.3392 0.0304 -0.1476
C29 C 0.0017(7) 0.3097(3) 0.04741(18)
C30 C -0.1257(6) 0.2710(2) 0.06844(16)
C31 C -0.2501(6) 0.3048(2) 0.08485(19)
H21 H -0.2561 0.3519 0.0820
C32 C -0.3635(6) 0.2696(2) 0.10510(18)
H22 H -0.4468 0.2929 0.1149
C33 C -0.3556(5) 0.1997(2) 0.11111(17)
C34 C -0.2349(6) 0.1666(2) 0.09272(19)
H23 H -0.2303 0.1195 0.0946
C35 C -0.1218(6) 0.2012(3) 0.07191(19)
H24 H -0.0418 0.1774 0.0600
C36 C -0.4727(5) 0.1621(2) 0.13677(17)
C37 C -0.6219(6) 0.1623(3) 0.1169(2)
H25 H -0.6528 0.1870 0.0861
C38 C -0.7267(7) 0.1260(3) 0.1423(2)
H26 H -0.8269 0.1262 0.1281
C39 C -0.6850(6) 0.0901(3) 0.1875(2)
H27 H -0.7561 0.0649 0.2034
C40 C -0.5377(5) 0.0907(2) 0.21025(17)
C41 C -0.4320(5) 0.1254(2) 0.18395(18)
H28 H -0.3318 0.1243 0.1980
C42 C -0.4915(5) 0.0552(2) 0.26166(17)
C43 C -0.5508(9) -0.0043(4) 0.2745(3)
H29 H -0.6247 -0.0238 0.2505
C44 C -0.5064(10) -0.0379(4) 0.3222(3)
H30 H -0.5475 -0.0801 0.3287
C45 C -0.3418(8) 0.0508(4) 0.3473(2)
H31 H -0.2693 0.0703 0.3718
C46 C -0.3842(7) 0.0837(3) 0.2997(2)
H32 H -0.3411 0.1253 0.2928
C47 C -0.4040(6) -0.0101(3) 0.3593(2)
C48 C -0.3493(8) -0.0461(5) 0.4096(3)
N1 N 1.0736(4) 0.0725(2) -0.13124(13)
N2 N 0.4003(4) 0.31628(18) -0.01261(13)
N3 N 0.8458(4) -0.08762(19) -0.44350(14)
O1 O 0.1111(4) 0.2802(2) 0.03463(15)
O2 O -0.0089(5) 0.3717(2) 0.04300(16)
O3 O -0.3470(9) -0.1082(5) 0.4093(3)
O4 O -0.2846(8) -0.0194(5) 0.4467(2)
Zn1 Zn 0.22643(6) 0.37169(2) 0.017772(17)
C1B C 2.6100(5) -0.2489(2) 0.01758(16)
H1B H 2.6943 -0.2272 0.0070
C2B C 2.5017(6) -0.2102(2) 0.03760(18)
H2B H 2.5127 -0.1633 0.0396
C3B C 2.3762(5) -0.2405(2) 0.05486(16)
C4B C 2.3668(6) -0.3112(2) 0.05013(19)
H3B H 2.2847 -0.3345 0.0609
C5B C 2.4811(6) -0.3457(2) 0.0292(2)
H4B H 2.4740 -0.3928 0.0267
C6B C 2.2594(5) -0.1993(2) 0.07664(16)
C7B C 2.2966(6) -0.1381(2) 0.1022(2)
H5B H 2.3965 -0.1245 0.1075
C8B C 2.1869(6) -0.0973(3) 0.1199(2)
H6B H 2.2141 -0.0563 0.1366
C9B C 2.0395(5) -0.1157(2) 0.11354(16)
C10B C 2.0012(6) -0.1779(3) 0.0907(2)
H7B H 1.9018 -0.1923 0.0876
C11B C 2.1109(6) -0.2188(3) 0.07242(19)
H8B H 2.0837 -0.2606 0.0569
C12B C 1.9542(5) -0.0449(2) 0.18330(15)
C13B C 1.9299(5) 0.0223(2) 0.19413(17)
H9B H 1.8898 0.0507 0.1667
C14B C 1.9638(5) 0.0484(2) 0.24503(17)
H10B H 1.9463 0.0942 0.2510
C15B C 2.0230(5) 0.0082(2) 0.28734(16)
C16B C 2.0501(6) -0.0600(2) 0.27597(17)
H11B H 2.0927 -0.0884 0.3031
C17B C 2.0144(6) -0.0857(2) 0.22510(17)
H12B H 2.0313 -0.1315 0.2187
C18B C 2.0641(5) 0.0360(2) 0.34098(16)
C19B C 2.1040(8) 0.1038(3) 0.34923(19)
H13B H 2.1001 0.1334 0.3202
C20B C 2.1488(8) 0.1272(3) 0.3996(2)
H14B H 2.1769 0.1725 0.4038
C21B C 2.1128(6) 0.0241(3) 0.43686(18)
H15B H 2.1142 -0.0038 0.4669
C22B C 2.0671(6) -0.0031(2) 0.38683(17)
H16B H 2.0381 -0.0484 0.3841
C23B C 1.8061(5) -0.0509(2) 0.09462(16)
C24B C 1.8202(6) -0.0485(3) 0.04007(18)
H17B H 1.9119 -0.0591 0.0278
C25B C 1.7002(6) -0.0309(3) 0.00382(18)
H18B H 1.7113 -0.0327 -0.0326
C26B C 1.5644(5) -0.0105(2) 0.01958(16)
C27B C 1.5544(5) -0.0099(2) 0.07471(16)
H19B H 1.4659 0.0048 0.0873
C28B C 1.6725(5) -0.0304(2) 0.11118(15)
H20B H 1.6608 -0.0304 0.1476
N1B N 1.9264(4) -0.0725(2) 0.13124(13)
N2B N 2.5997(4) -0.31628(18) 0.01261(13)
N3B N 2.1542(4) 0.08762(19) 0.44350(14)
C29B C 2.9983(7) -0.3097(3) -0.04741(18)
C30B C 3.1257(6) -0.2710(2) -0.06844(16)
C31B C 3.2501(6) -0.3048(2) -0.08485(19)
H21B H 3.2561 -0.3519 -0.0820
C32B C 3.3635(6) -0.2696(2) -0.10510(18)
H22B H 3.4468 -0.2929 -0.1149
C33B C 3.3556(5) -0.1997(2) -0.11111(17)
C34B C 3.2349(6) -0.1666(2) -0.09272(19)
H23B H 3.2303 -0.1195 -0.0946
C35B C 3.1218(6) -0.2012(3) -0.07191(19)
H24B H 3.0418 -0.1774 -0.0600
C36B C 3.4727(5) -0.1621(2) -0.13677(17)
C37B C 3.6219(6) -0.1623(3) -0.1169(2)
H25B H 3.6528 -0.1870 -0.0861
C38B C 3.7267(7) -0.1260(3) -0.1423(2)
H26B H 3.8269 -0.1262 -0.1281
C39B C 3.6850(6) -0.0901(3) -0.1875(2)
H27B H 3.7561 -0.0649 -0.2034
C40B C 3.5377(5) -0.0907(2) -0.21025(17)
C41B C 3.4320(5) -0.1254(2) -0.18395(18)
H28B H 3.3318 -0.1243 -0.1980
C42B C 3.4915(5) -0.0552(2) -0.26166(17)
C43B C 3.5508(9) 0.0043(4) -0.2745(3)
H29B H 3.6247 0.0238 -0.2505
C44B C 3.5064(10) 0.0379(4) -0.3222(3)
H30B H 3.5475 0.0801 -0.3287
C45B C 3.3418(8) -0.0508(4) -0.3473(2)
H31B H 3.2693 -0.0703 -0.3718
C46B C 3.3842(7) -0.0837(3) -0.2997(2)
H32B H 3.3411 -0.1253 -0.2928
C47B C 3.4040(6) 0.0101(3) -0.3593(2)
C48B C 3.3493(8) 0.0461(5) -0.4096(3)
O1B O 2.8889(4) -0.2802(2) -0.03463(15)
O2B O 3.0089(5) -0.3717(2) -0.04300(16)
O3B O 3.3470(9) 0.1082(5) -0.4093(3)
O4B O 3.2846(8) 0.0194(5) -0.4467(2)
Zn1B Zn 2.77357(6) -0.37169(2) -0.017772(17)
N3A N 0.1542(4) 0.41238(19) -0.05650(14)
N3C N 2.8458(4) -0.41238(19) 0.05650(14)
O3A O 0.3470(9) 0.3918(5) 0.0907(3)
O3C O 2.6530(9) -0.3918(5) -0.0907(3)
O4A O 0.2846(8) 0.4806(5) 0.0533(2)
O4C O 2.7154(8) -0.4806(5) -0.0533(2)
Zn1A Zn -0.22643(6) -0.12831(2) 0.482228(17)
Zn1A_2 Zn 0.77357(6) -0.12831(2) -0.517772(17)
Zn1C Zn 2.22643(6) 0.12831(2) 0.517772(17)
Zn1C_2 Zn 3.22643(6) 0.12831(2) -0.482228(17)
C49 C 0.920(4) 0.7625(9) 0.7353(15)
H33 H 0.9321 0.7376 0.7031
H34 H 1.0135 0.7630 0.7579
H35 H 0.8903 0.8083 0.7263
C50 C 0.837(2) 0.7079(8) 0.8104(5)
H36 H 0.7464 0.7029 0.8274
H37 H 0.9039 0.7383 0.8311
H38 H 0.8844 0.6644 0.8083
C51 C 0.662(3) 0.7227(6) 0.7342(6)
H39 H 0.5933 0.7040 0.7552
N4 N 0.810(2) 0.7361(9) 0.7551(8)
O5 O 0.6239(19) 0.7380(10) 0.6822(5)
loop_
_geom_bond_atom_site_label_1
_geom_bond_atom_site_label_2
_geom_bond_site_symmetry_1
_geom_bond_site_symmetry_2
C1 H1 1_555 1_555
C2 C1 1_555 1_555
H2 C2 1_555 1_555
C3 C2 1_555 1_555
C4 C3 1_555 1_555
H3 C4 1_555 1_555
C5 C4 1_555 1_555
H4 C5 1_555 1_555
C6 C3 1_555 1_555
C7 C6 1_555 1_555
H5 C7 1_555 1_555
C8 C7 1_555 1_555
H6 C8 1_555 1_555
C9 C8 1_555 1_555
C10 C9 1_555 1_555
H7 C10 1_555 1_555
C11 C6 1_555 1_555
H8 C11 1_555 1_555
C12 C13 1_555 1_555
C13 H9 1_555 1_555
C14 C13 1_555 1_555
H10 C14 1_555 1_555
C15 C14 1_555 1_555
C16 C15 1_555 1_555
H11 C16 1_555 1_555
C17 C12 1_555 1_555
H12 C17 1_555 1_555
C18 C15 1_555 1_555
C19 C18 1_555 1_555
H13 C19 1_555 1_555
C20 C19 1_555 1_555
H14 C20 1_555 1_555
C21 H15 1_555 1_555
C22 C18 1_555 1_555
H16 C22 1_555 1_555
C23 C24 1_555 1_555
C24 H17 1_555 1_555
C25 C24 1_555 1_555
H18 C25 1_555 1_555
C26 C25 1_555 1_555
C27 C26 1_555 1_555
H19 C27 1_555 1_555
C28 C23 1_555 1_555
H20 C28 1_555 1_555
C29 C30 1_555 1_555
C30 C31 1_555 1_555
C31 H21 1_555 1_555
C32 C31 1_555 1_555
H22 C32 1_555 1_555
C33 C32 1_555 1_555
C34 C33 1_555 1_555
H23 C34 1_555 1_555
C35 C30 1_555 1_555
H24 C35 1_555 1_555
C36 C33 1_555 1_555
C37 C36 1_555 1_555
H25 C37 1_555 1_555
C38 C37 1_555 1_555
H26 C38 1_555 1_555
C39 C38 1_555 1_555
H27 C39 1_555 1_555
C40 C39 1_555 1_555
C41 C36 1_555 1_555
H28 C41 1_555 1_555
C42 C40 1_555 1_555
C43 C42 1_555 1_555
H29 C43 1_555 1_555
C44 C43 1_555 1_555
H30 C44 1_555 1_555
C45 H31 1_555 1_555
C46 C42 1_555 1_555
H32 C46 1_555 1_555
C47 C44 1_555 1_555
C48 C47 1_555 1_555
N1 C9 1_555 1_555
N2 C1 1_555 1_555
N3 C20 1_555 1_555
O1 C29 1_555 1_555
O2 C29 1_555 1_555
O3 C48 1_555 1_555
O4 C48 1_555 1_555
Zn1 N2 1_555 1_555
C49 H33 1_555 1_555
H34 C49 1_555 1_555
H35 C49 1_555 1_555
C50 H36 1_555 1_555
H37 C50 1_555 1_555
H38 C50 1_555 1_555
C51 H39 1_555 1_555
N4 C49 1_555 1_555
O5 C51 1_555 1_555
C1B H1B 1_555 1_555
C2B C1B 1_555 1_555
H2B C2B 1_555 1_555
C3B C2B 1_555 1_555
C4B C3B 1_555 1_555
H3B C4B 1_555 1_555
C5B C4B 1_555 1_555
H4B C5B 1_555 1_555
C6B C3B 1_555 1_555
C7B C6B 1_555 1_555
H5B C7B 1_555 1_555
C8B C7B 1_555 1_555
H6B C8B 1_555 1_555
C9B C8B 1_555 1_555
C10B C9B 1_555 1_555
H7B C10B 1_555 1_555
C11B C6B 1_555 1_555
H8B C11B 1_555 1_555
C12B C13B 1_555 1_555
C13B H9B 1_555 1_555
C14B C13B 1_555 1_555
H10B C14B 1_555 1_555
C15B C14B 1_555 1_555
C16B C15B 1_555 1_555
H11B C16B 1_555 1_555
C17B C12B 1_555 1_555
H12B C17B 1_555 1_555
C18B C15B 1_555 1_555
C19B C18B 1_555 1_555
H13B C19B 1_555 1_555
C20B C19B 1_555 1_555
H14B C20B 1_555 1_555
C21B H15B 1_555 1_555
C22B C18B 1_555 1_555
H16B C22B 1_555 1_555
C23B C24B 1_555 1_555
C24B H17B 1_555 1_555
C25B C24B 1_555 1_555
H18B C25B 1_555 1_555
C26B C26 1_555 1_555
C27B C26B 1_555 1_555
H19B C27B 1_555 1_555
C28B C23B 1_555 1_555
H20B C28B 1_555 1_555
N1B C9B 1_555 1_555
N2B C1B 1_555 1_555
N3B C20B 1_555 1_555
C29B C30B 1_555 1_555
C30B C31B 1_555 1_555
C31B H21B 1_555 1_555
C32B C31B 1_555 1_555
H22B C32B 1_555 1_555
C33B C32B 1_555 1_555
C34B C33B 1_555 1_555
H23B C34B 1_555 1_555
C35B C30B 1_555 1_555
H24B C35B 1_555 1_555
C36B C33B 1_555 1_555
C37B C36B 1_555 1_555
H25B C37B 1_555 1_555
C38B C37B 1_555 1_555
H26B C38B 1_555 1_555
C39B C38B 1_555 1_555
H27B C39B 1_555 1_555
C40B C39B 1_555 1_555
C41B C36B 1_555 1_555
H28B C41B 1_555 1_555
C42B C40B 1_555 1_555
C43B C42B 1_555 1_555
H29B C43B 1_555 1_555
C44B C43B 1_555 1_555
H30B C44B 1_555 1_555
C45B H31B 1_555 1_555
C46B C42B 1_555 1_555
H32B C46B 1_555 1_555
C47B C44B 1_555 1_555
C48B C47B 1_555 1_555
O1B C29B 1_555 1_555
O2B C29B 1_555 1_555
O3B C48B 1_555 1_555
O4B C48B 1_555 1_555
Zn1B N2B 1_555 1_555
N3A Zn1 1_555 1_555
N3C Zn1B 1_555 1_555
O3A Zn1 1_555 1_555
O3C Zn1B 1_555 1_555
O4A Zn1 1_555 1_555
O4C Zn1B 1_555 1_555
Zn1A O3 1_555 1_555
Zn1A_2 N3 1_555 1_555
Zn1C N3B 1_555 1_555
Zn1C_2 O3B 1_555 1_555
C5 N2 1_555 1_555
C10 C11 1_555 1_555
C12 N1 1_555 1_555
C16 C17 1_555 1_555
C21 C22 1_555 1_555
C21 N3 1_555 1_555
C23 N1 1_555 1_555
C27 C28 1_555 1_555
C34 C35 1_555 1_555
C40 C41 1_555 1_555
C45 C46 1_555 1_555
C45 C47 1_555 1_555
O1 Zn1 1_555 1_555
O2 Zn1 1_555 1_555
O4 Zn1A 1_555 1_555
C50 N4 1_555 1_555
C51 N4 1_555 1_555
C5B N2B 1_555 1_555
C10B C11B 1_555 1_555
C12B N1B 1_555 1_555
C16B C17B 1_555 1_555
C21B C22B 1_555 1_555
C21B N3B 1_555 1_555
C23B N1B 1_555 1_555
C25B C26B 1_555 1_555
C27B C28B 1_555 1_555
C34B C35B 1_555 1_555
C40B C41B 1_555 1_555
C45B C46B 1_555 1_555
C45B C47B 1_555 1_555
O1B Zn1B 1_555 1_555
O2B Zn1B 1_555 1_555
O4B Zn1C_2 1_555 1_555

#END
