
#######################################################################
#
#                 Cambridge Crystallographic Data Centre
#                                CCDC 
#
#######################################################################
#
# If this CIF has been generated from an entry in the Cambridge 
# Structural Database, then it will include bibliographic, chemical, 
# crystal, experimental, refinement or atomic coordinate data resulting 
# from the CCDC's data processing and validation procedures.
#
#######################################################################

data_JAVTAC
_chemical_formula_moiety         '(Al5 F2 O20 P5 2-)n'
_symmetry_cell_setting           orthorhombic
_symmetry_space_group_name_H-M   'I b m 2'
_symmetry_Int_Tables_number      46
_space_group_name_Hall           'I 2 -2b'
loop_
_symmetry_equiv_pos_site_id
_symmetry_equiv_pos_as_xyz
1 x,y,z
2 -x,-y,z
3 -x,1/2+y,z
4 x,1/2-y,z
5 1/2+x,1/2+y,1/2+z
6 1/2-x,1/2-y,1/2+z
7 1/2-x,y,1/2+z
8 1/2+x,-y,1/2+z
_cell_length_a                   13.292(2)
_cell_length_b                   18.469(2)
_cell_length_c                   8.4212(16)
_cell_angle_alpha                90
_cell_angle_beta                 90
_cell_angle_gamma                90
_cell_volume                     2067.32
loop_
_atom_site_label
_atom_site_type_symbol
_atom_site_fract_x
_atom_site_fract_y
_atom_site_fract_z
Al1 Al 0.1301(4) 0.0330(3) -0.1797(4)
Al2 Al -0.0498(4) 0.1054(3) -0.6969(4)
Al3 Al -0.1478(14) 0.2500 -0.1880(20)
P1 P 0.1518(4) 0.0375(4) 0.1925(6)
P2 P -0.0506(3) 0.1100(2) -0.3234(3)
P3 P -0.1360(8) 0.2500 0.1773(10)
O1 O 0.1482(12) 0.0397(9) 0.0182(12)
O2 O -0.0570(30) 0.1174(13) -0.4959(12)
O3 O -0.1520(30) 0.2500 0.0130(20)
O4 O 0.2505(7) 0.0638(5) 0.2449(12)
O5 O 0.0729(8) 0.0878(6) 0.2452(18)
O6 O 0.0543(6) 0.0981(5) -0.2672(11)
O7 O 0.1294(9) -0.0379(5) 0.2416(16)
O8 O -0.1168(9) 0.0499(6) -0.2646(16)
O9 O -0.0792(9) 0.1864(5) 0.2123(14)
O10 O -0.0906(15) 0.1762(5) -0.2580(30)
O11 O -0.2328(16) 0.2500 0.2410(30)
F1 F 0.0000 0.0000 -0.0865(13)
Al1C Al 0.1301(4) 0.4670(3) -0.1797(4)
Al1F Al 0.3699(4) 0.0330(3) 0.3203(4)
Al1A Al -0.1301(4) -0.0330(3) -0.1797(4)
Al1B Al -0.1301(4) 0.5330(3) -0.1797(4)
Al1F_2 Al 0.3699(4) 0.0330(3) -0.6797(4)
Al2C Al -0.0498(4) 0.3946(3) -0.6969(4)
Al2_2 Al -0.0498(4) 0.1054(3) 0.3031(4)
Al2A Al 0.0498(4) -0.1054(3) 0.3031(4)
Al2C_2 Al -0.0498(4) 0.3946(3) 0.3031(4)
Al2F Al 0.5498(4) 0.1054(3) -0.1969(4)
Al2G Al 0.4502(4) -0.1054(3) -0.1969(4)
Al3E Al -0.3522(14) 0.2500 0.3120(20)
P1F P 0.3482(4) 0.0375(4) -0.3075(6)
P2C P -0.0506(3) 0.3900(2) -0.3234(3)
O1F O 0.3518(12) 0.0397(9) -0.4818(12)
O1C O 0.1482(12) 0.4603(9) 0.0182(12)
O2C O -0.0570(30) 0.3826(13) -0.4959(12)
O4F O 0.2495(7) 0.0638(5) -0.2551(12)
O4E O 0.2495(7) 0.4362(5) -0.2551(12)
O5F O 0.4271(8) 0.0878(6) -0.2548(18)
O5_2 O 0.0729(8) 0.0878(6) -0.7548(18)
O5C O 0.0729(8) 0.4122(6) -0.7548(18)
O6C O 0.0543(6) 0.4019(5) -0.2672(11)
O7F O 0.3706(9) -0.0379(5) -0.2584(16)
O7A O -0.1294(9) 0.0379(5) -0.7584(16)
O7B O -0.1294(9) 0.4621(5) -0.7584(16)
O8C O -0.1168(9) 0.4501(6) -0.2646(16)
O8A O 0.1168(9) -0.0499(6) -0.2646(16)
O8B O 0.1168(9) 0.5499(6) -0.2646(16)
O9C O -0.0792(9) 0.3136(5) 0.2123(14)
O9_2 O -0.0792(9) 0.1864(5) -0.7877(14)
O9C_2 O -0.0792(9) 0.3136(5) -0.7877(14)
O10C O -0.0906(15) 0.3238(5) -0.2580(30)
O11E O -0.2672(16) 0.2500 -0.2590(30)
F1B F 0.0000 0.5000 -0.0865(13)
loop_
_geom_bond_atom_site_label_1
_geom_bond_atom_site_label_2
_geom_bond_site_symmetry_1
_geom_bond_site_symmetry_2
Al1 O1 1_555 1_555
Al2 O2 1_555 1_555
Al3 O3 1_555 1_555
P1 O1 1_555 1_555
P2 O2 1_555 1_555
P3 O3 1_555 1_555
O4 P1 1_555 1_555
O5 P1 1_555 1_555
O6 Al1 1_555 1_555
O7 P1 1_555 1_555
O8 P2 1_555 1_555
O9 P3 1_555 1_555
O10 Al3 1_555 1_555
O11 P3 1_555 1_555
F1 Al1 1_555 1_555
Al1C O1C 1_555 1_555
Al1F O4 1_555 1_555
Al1A O8 1_555 1_555
Al1B O8C 1_555 1_555
Al1F_2 O1F 1_555 1_555
Al2C O2C 1_555 1_555
Al2_2 O5 1_555 1_555
Al2A O7 1_555 1_555
Al2C_2 O9C 1_555 1_555
Al2F O5F 1_555 1_555
Al2G O7F 1_555 1_555
Al3E O11 1_555 1_555
P1F O1F 1_555 1_555
P2C O2C 1_555 1_555
O4F Al1 1_555 1_555
O4E Al1C 1_555 1_555
O5F P1F 1_555 1_555
O5_2 Al2 1_555 1_555
O5C Al2C 1_555 1_555
O6C Al1C 1_555 1_555
O7F P1F 1_555 1_555
O7A Al2 1_555 1_555
O7B Al2C 1_555 1_555
O8C P2C 1_555 1_555
O8A Al1 1_555 1_555
O8B Al1C 1_555 1_555
O9C P3 1_555 1_555
O9_2 Al2 1_555 1_555
O9C_2 Al2C 1_555 1_555
O10C Al3 1_555 1_555
O11E Al3 1_555 1_555
F1B Al1C 1_555 1_555
P2 O6 1_555 1_555
P2 O10 1_555 1_555
O9 Al2_2 1_555 1_555
F1 Al1A 1_555 1_555
Al1B F1B 1_555 1_555
P1F O4F 1_555 1_555
P2C O6C 1_555 1_555
P2C O10C 1_555 1_555

#END
