
#######################################################################
#
#                 Cambridge Crystallographic Data Centre
#                                CCDC 
#
#######################################################################
#
# If this CIF has been generated from an entry in the Cambridge 
# Structural Database, then it will include bibliographic, chemical, 
# crystal, experimental, refinement or atomic coordinate data resulting 
# from the CCDC's data processing and validation procedures.
#
#######################################################################

data_ROYREE
_chemical_formula_moiety         '(C84 H83 Ho2 N5 O26)n'
_symmetry_cell_setting           orthorhombic
_symmetry_space_group_name_H-M   'P n a 21'
_symmetry_Int_Tables_number      33
_space_group_name_Hall           'P 2c -2n'
loop_
_symmetry_equiv_pos_site_id
_symmetry_equiv_pos_as_xyz
1 x,y,z
2 -x,-y,1/2+z
3 1/2-x,1/2+y,1/2+z
4 1/2+x,1/2-y,z
_cell_length_a                   19.0994(2)
_cell_length_b                   14.41797(17)
_cell_length_c                   30.5930(5)
_cell_angle_alpha                90
_cell_angle_beta                 90
_cell_angle_gamma                90
_cell_volume                     8424.53
loop_
_atom_site_label
_atom_site_type_symbol
_atom_site_fract_x
_atom_site_fract_y
_atom_site_fract_z
Ho1 Ho 0.311453(9) 1.027254(12) 0.370799(6)
Ho2 Ho 0.357506(9) 0.964803(12) 0.246812(6)
O1 O 0.37794(15) 0.84146(19) 0.29536(10)
O2 O 0.33428(16) 0.8709(2) 0.36247(9)
O3 O 0.40855(17) 0.6714(2) 0.27474(10)
H1 H 0.4028 0.7272 0.2707
O4 O 0.69554(16) 0.5184(2) 0.35140(11)
O5 O 0.76124(14) 0.52758(19) 0.29330(11)
O6 O 0.56104(16) 0.5058(3) 0.34517(11)
H2 H 0.5996 0.5049 0.3569
O7 O 0.1095(3) 1.5746(3) -0.01919(14)
O8 O 0.1606(2) 1.4705(2) -0.06172(11)
O9 O 0.2067(2) 1.3184(2) -0.02996(11)
H3 H 0.2011 1.3596 -0.0481
O10 O 0.41622(16) 1.0553(2) 0.19032(11)
O11 O 0.30847(16) 1.0118(2) 0.17735(12)
O12 O 0.24481(18) 1.0660(3) 0.10856(12)
H4 H 0.2544 1.0318 0.1291
O13 O 0.83027(18) 1.3794(2) 0.25981(11)
O14 O 0.79021(17) 1.3467(2) 0.32651(10)
O15 O 0.75892(18) 1.1746(2) 0.34478(11)
H5 H 0.7398 1.2249 0.3483
O16 O 0.41057(16) 1.0230(2) 0.33083(12)
O17 O 0.47297(15) 0.9995(3) 0.27189(11)
O18 O 0.60775(16) 1.0058(3) 0.27579(12)
H6 H 0.5689 1.0017 0.2646
O19 O 0.3764(2) 1.1479(2) 0.40358(12)
H7 H 0.4056 1.1722 0.3848
H8 H 0.3481 1.1910 0.4125
O20 O 0.28247(18) 0.8422(2) 0.22358(11)
H9 H 0.2616 0.8177 0.2459
H10 H 0.2508 0.8636 0.2058
O21 O 0.2316(2) 1.1017(3) 0.41602(15)
O22 O 0.42874(18) 0.8592(3) 0.20814(12)
N1 N 0.1461(3) 1.1831(4) 0.4453(3)
N2 N 0.5300(2) 0.7970(3) 0.1822(2)
C1 C 0.3636(2) 0.8184(3) 0.33488(15)
C2 C 0.3823(2) 0.7226(3) 0.34869(14)
C3 C 0.3793(2) 0.7003(3) 0.39183(15)
H11 H 0.3666 0.7460 0.4117
C4 C 0.3946(2) 0.6113(3) 0.40763(14)
C5 C 0.3910(3) 0.5896(4) 0.45284(16)
H12 H 0.3819 0.6368 0.4728
C6 C 0.4003(3) 0.5025(4) 0.4676(2)
H13 H 0.3971 0.4894 0.4973
C7 C 0.4152(3) 0.4313(4) 0.4372(2)
H14 H 0.4203 0.3709 0.4473
C8 C 0.4220(3) 0.4478(3) 0.3942(2)
H15 H 0.4329 0.3992 0.3754
C9 C 0.41276(19) 0.5404(3) 0.37682(17)
C10 C 0.41898(19) 0.5639(3) 0.33204(14)
C11 C 0.40324(19) 0.6525(3) 0.31831(13)
C12 C 0.4385(2) 0.4904(3) 0.29748(17)
H16 H 0.4368 0.4298 0.3112
H17 H 0.4030 0.4913 0.2748
C13 C 0.5096(2) 0.5018(3) 0.27602(17)
C14 C 0.5167(3) 0.4963(4) 0.22922(17)
C15 C 0.4607(3) 0.4856(5) 0.20067(19)
H18 H 0.4152 0.4845 0.2116
C16 C 0.4719(3) 0.4765(6) 0.1563(2)
H19 H 0.4336 0.4679 0.1380
C17 C 0.5391(3) 0.4800(5) 0.1379(2)
H20 H 0.5455 0.4736 0.1080
C18 C 0.5938(3) 0.4925(5) 0.16436(19)
H21 H 0.6383 0.4964 0.1522
C19 C 0.5864(3) 0.5003(4) 0.21097(17)
C20 C 0.6443(2) 0.5104(3) 0.23788(17)
H22 H 0.6887 0.5137 0.2255
C21 C 0.6374(2) 0.5157(3) 0.28273(16)
C22 C 0.5691(2) 0.5083(3) 0.30148(16)
C23 C 0.7011(2) 0.5228(3) 0.31024(16)
C24 C 0.4692(2) 1.0110(3) 0.31272(16)
C25 C 0.5342(2) 1.0098(3) 0.33950(16)
C26 C 0.5292(2) 1.0055(4) 0.38457(16)
H23 H 0.4851 1.0062 0.3975
C27 C 0.5882(3) 1.0001(4) 0.41110(18)
C28 C 0.5830(4) 0.9885(5) 0.4565(2)
H24 H 0.5388 0.9859 0.4692
C29 C 0.6402(4) 0.9810(5) 0.4825(2)
H25 H 0.6354 0.9728 0.5125
C30 C 0.7067(3) 0.9858(5) 0.4632(2)
H26 H 0.7462 0.9809 0.4808
C31 C 0.7147(3) 0.9972(5) 0.4199(2)
H27 H 0.7598 1.0019 0.4086
C32 C 0.6561(2) 1.0025(4) 0.39040(18)
C33 C 0.6628(2) 1.0052(3) 0.34423(17)
C34 C 0.6012(2) 1.0063(3) 0.31968(16)
C35 C 0.7325(2) 0.9970(3) 0.32113(18)
H28 H 0.7341 0.9366 0.3072
H29 H 0.7689 0.9978 0.3433
C36 C 0.7512(2) 1.0687(3) 0.28706(16)
C37 C 0.7607(2) 1.0475(3) 0.24187(18)
C38 C 0.7516(3) 0.9570(3) 0.2238(2)
H30 H 0.7378 0.9085 0.2419
C39 C 0.7628(3) 0.9404(4) 0.1807(2)
H31 H 0.7586 0.8800 0.1703
C40 C 0.7801(3) 1.0105(5) 0.1519(2)
H32 H 0.7850 0.9980 0.1222
C41 C 0.7901(2) 1.0987(4) 0.16753(17)
H33 H 0.8030 1.1460 0.1485
C42 C 0.7809(2) 1.1177(3) 0.21223(16)
C43 C 0.7940(2) 1.2083(3) 0.22826(16)
H34 H 0.8082 1.2548 0.2091
C44 C 0.7860(2) 1.2276(3) 0.27157(16)
C45 C 0.7655(2) 1.1575(3) 0.30157(16)
C46 C 0.8036(2) 1.3256(3) 0.28667(16)
C47 C 0.3629(2) 1.0595(3) 0.16735(16)
C48 C 0.3598(2) 1.1203(3) 0.12822(16)
C49 C 0.4161(2) 1.1746(4) 0.11829(16)
H35 H 0.4556 1.1713 0.1360
C50 C 0.4171(2) 1.2352(3) 0.08250(17)
C51 C 0.4760(3) 1.2868(5) 0.0713(2)
H36 H 0.5160 1.2823 0.0885
C52 C 0.4765(4) 1.3434(5) 0.0362(2)
H37 H 0.5159 1.3789 0.0301
C53 C 0.4189(4) 1.3485(5) 0.0095(2)
H38 H 0.4208 1.3854 -0.0154
C54 C 0.3575(3) 1.2998(4) 0.01888(19)
H39 H 0.3188 1.3049 0.0006
C55 C 0.3546(2) 1.2428(3) 0.05638(16)
C56 C 0.2943(3) 1.1876(4) 0.06657(16)
C57 C 0.2998(2) 1.1237(4) 0.10054(16)
C58 C 0.2262(3) 1.1976(4) 0.04035(17)
H40 H 0.2370 1.1895 0.0096
H41 H 0.1949 1.1478 0.0488
C59 C 0.1880(2) 1.2879(3) 0.04566(15)
C60 C 0.1583(2) 1.3155(4) 0.08638(15)
C61 C 0.1592(3) 1.2570(5) 0.12366(17)
H42 H 0.1795 1.1985 0.1219
C62 C 0.1306(3) 1.2862(5) 0.16185(18)
H43 H 0.1317 1.2470 0.1860
C63 C 0.0995(3) 1.3731(5) 0.16596(19)
H44 H 0.0819 1.3920 0.1929
C64 C 0.0947(3) 1.4304(5) 0.1309(2)
H45 H 0.0722 1.4873 0.1335
C65 C 0.1241(3) 1.4030(4) 0.09004(16)
C66 C 0.1201(3) 1.4604(4) 0.05303(18)
H46 H 0.0990 1.5183 0.0557
C67 C 0.1461(3) 1.4342(4) 0.01337(16)
C68 C 0.1801(3) 1.3469(4) 0.00965(15)
C69 C 0.1368(3) 1.5002(4) -0.02421(18)
C70 C 0.2025(4) 1.1687(6) 0.4266(2)
H47 H 0.2265 1.2228 0.4195
C71 C 0.1045(5) 1.1021(6) 0.4573(4)
H48 H 0.0624 1.1010 0.4402
H49 H 0.0927 1.1051 0.4877
H50 H 0.1310 1.0468 0.4517
C72 C 0.1109(5) 1.2725(5) 0.4508(4)
H51 H 0.1428 1.3217 0.4438
H52 H 0.0955 1.2789 0.4805
H53 H 0.0711 1.2754 0.4316
C73 C 0.4885(3) 0.8619(5) 0.1992(2)
H54 H 0.5103 0.9183 0.2050
C74 C 0.4881(4) 0.7167(7) 0.1687(7)
C75 C 0.6058(3) 0.7881(10) 0.1792(6)
Ho1B Ho 0.188547(9) 1.527254(12) -0.129201(6)
Ho1C Ho 0.811453(9) 0.472746(12) 0.370799(6)
Ho1C_2 Ho 0.811453(9) 1.472746(12) 0.370799(6)
Ho2C Ho 0.857506(9) 0.535197(12) 0.246812(6)
Ho2C_2 Ho 0.857506(9) 1.535197(12) 0.246812(6)
O4C O 0.19554(16) 0.9816(2) 0.35140(11)
O5C O 0.26124(14) 0.97242(19) 0.29330(11)
O8B O 0.3394(2) 0.9705(2) 0.43828(11)
O13C O 0.33027(18) 1.1206(2) 0.25981(11)
O14C O 0.29021(17) 1.1533(2) 0.32651(10)
O23 O 0.4858(3) 0.2369(3) 0.3641(2)
N3 N 0.5277(2) 0.2486(4) 0.29693(16)
C78 C 0.4734(4) 0.2396(6) 0.3264(3)
H55 H 0.4274 0.2356 0.3166
C79 C 0.6006(3) 0.2567(6) 0.2887(4)
H56 H 0.6168 0.2023 0.2737
H57 H 0.6252 0.2628 0.3160
H58 H 0.6092 0.3105 0.2710
C80 C 0.4952(4) 0.2505(6) 0.2528(2)
H59 H 0.5172 0.2976 0.2354
H60 H 0.4461 0.2639 0.2555
H61 H 0.5011 0.1912 0.2390
O24 O 0.6984(3) 0.7492(4) 0.28431(19)
N4 N 0.6331(2) 0.7507(4) 0.34278(15)
C81 C 0.6901(5) 0.7477(6) 0.3222(3)
H62 H 0.7304 0.7438 0.3391
C82 C 0.5675(4) 0.7524(9) 0.3202(4)
H63 H 0.5756 0.7627 0.2896
H64 H 0.5390 0.8015 0.3317
H65 H 0.5440 0.6942 0.3242
C83 C 0.6329(8) 0.7464(11) 0.3901(2)
H66 H 0.6744 0.7154 0.4000
H67 H 0.5924 0.7127 0.3998
H68 H 0.6316 0.8081 0.4018
O25 O 0.2369(5) 0.2879(6) 0.6382(3)
N5 N 0.2808(5) 0.2809(5) 0.5692(3)
C84 C 0.2637(8) 0.3201(12) 0.6096(5)
H69 H 0.2764 0.3819 0.6132
C85 C 0.2662(10) 0.1827(7) 0.5596(6)
H70 H 0.2924 0.1441 0.5792
H71 H 0.2795 0.1691 0.5300
H72 H 0.2170 0.1708 0.5633
C86 C 0.3101(10) 0.3196(14) 0.5292(4)
H73 H 0.3185 0.3847 0.5331
H74 H 0.2777 0.3107 0.5055
H75 H 0.3534 0.2889 0.5225
O26 O 0.4821(17) 0.232(2) 0.5419(12)
loop_
_geom_bond_atom_site_label_1
_geom_bond_atom_site_label_2
_geom_bond_site_symmetry_1
_geom_bond_site_symmetry_2
Ho1 O2 1_555 1_555
Ho2 O1 1_555 1_555
O1 C1 1_555 1_555
O2 C1 1_555 1_555
O3 H1 1_555 1_555
O4 C23 1_555 1_555
O5 C23 1_555 1_555
O6 H2 1_555 1_555
O7 C69 1_555 1_555
O8 C69 1_555 1_555
O9 H3 1_555 1_555
O10 Ho2 1_555 1_555
O11 Ho2 1_555 1_555
O12 H4 1_555 1_555
O13 C46 1_555 1_555
O14 C46 1_555 1_555
O15 H5 1_555 1_555
O16 Ho1 1_555 1_555
O17 Ho2 1_555 1_555
O18 H6 1_555 1_555
O19 Ho1 1_555 1_555
H7 O19 1_555 1_555
H8 O19 1_555 1_555
O20 Ho2 1_555 1_555
H9 O20 1_555 1_555
H10 O20 1_555 1_555
O21 Ho1 1_555 1_555
O22 Ho2 1_555 1_555
N1 C70 1_555 1_555
N2 C73 1_555 1_555
C1 C2 1_555 1_555
C2 C3 1_555 1_555
C3 H11 1_555 1_555
C4 C3 1_555 1_555
C5 C4 1_555 1_555
H12 C5 1_555 1_555
C6 C5 1_555 1_555
H13 C6 1_555 1_555
C7 C6 1_555 1_555
H14 C7 1_555 1_555
C8 C7 1_555 1_555
H15 C8 1_555 1_555
C9 C4 1_555 1_555
C10 C9 1_555 1_555
C11 O3 1_555 1_555
C12 C10 1_555 1_555
H16 C12 1_555 1_555
H17 C12 1_555 1_555
C13 C12 1_555 1_555
C14 C13 1_555 1_555
C15 C14 1_555 1_555
H18 C15 1_555 1_555
C16 C15 1_555 1_555
H19 C16 1_555 1_555
C17 C16 1_555 1_555
H20 C17 1_555 1_555
C18 C17 1_555 1_555
H21 C18 1_555 1_555
C19 C14 1_555 1_555
C20 C19 1_555 1_555
H22 C20 1_555 1_555
C21 C20 1_555 1_555
C22 O6 1_555 1_555
C23 C21 1_555 1_555
C24 O16 1_555 1_555
C25 C24 1_555 1_555
C26 C25 1_555 1_555
H23 C26 1_555 1_555
C27 C26 1_555 1_555
C28 C27 1_555 1_555
H24 C28 1_555 1_555
C29 C28 1_555 1_555
H25 C29 1_555 1_555
C30 C29 1_555 1_555
H26 C30 1_555 1_555
C31 C30 1_555 1_555
H27 C31 1_555 1_555
C32 C27 1_555 1_555
C33 C32 1_555 1_555
C34 O18 1_555 1_555
C35 C33 1_555 1_555
H28 C35 1_555 1_555
H29 C35 1_555 1_555
C36 C35 1_555 1_555
C37 C36 1_555 1_555
C38 C37 1_555 1_555
H30 C38 1_555 1_555
C39 C38 1_555 1_555
H31 C39 1_555 1_555
C40 C39 1_555 1_555
H32 C40 1_555 1_555
C41 C40 1_555 1_555
H33 C41 1_555 1_555
C42 C37 1_555 1_555
C43 C42 1_555 1_555
H34 C43 1_555 1_555
C44 C43 1_555 1_555
C45 O15 1_555 1_555
C46 C44 1_555 1_555
C47 O10 1_555 1_555
C48 C47 1_555 1_555
C49 C48 1_555 1_555
H35 C49 1_555 1_555
C50 C49 1_555 1_555
C51 C50 1_555 1_555
H36 C51 1_555 1_555
C52 C51 1_555 1_555
H37 C52 1_555 1_555
C53 C52 1_555 1_555
H38 C53 1_555 1_555
C54 C53 1_555 1_555
H39 C54 1_555 1_555
C55 C50 1_555 1_555
C56 C55 1_555 1_555
C57 O12 1_555 1_555
C58 C56 1_555 1_555
H40 C58 1_555 1_555
H41 C58 1_555 1_555
C59 C58 1_555 1_555
C60 C59 1_555 1_555
C61 C60 1_555 1_555
H42 C61 1_555 1_555
C62 C61 1_555 1_555
H43 C62 1_555 1_555
C63 C62 1_555 1_555
H44 C63 1_555 1_555
C64 C63 1_555 1_555
H45 C64 1_555 1_555
C65 C60 1_555 1_555
C66 C65 1_555 1_555
H46 C66 1_555 1_555
C67 C66 1_555 1_555
C68 O9 1_555 1_555
C69 C67 1_555 1_555
C70 O21 1_555 1_555
H47 C70 1_555 1_555
C71 N1 1_555 1_555
H48 C71 1_555 1_555
H49 C71 1_555 1_555
H50 C71 1_555 1_555
C72 N1 1_555 1_555
H51 C72 1_555 1_555
H52 C72 1_555 1_555
H53 C72 1_555 1_555
C73 O22 1_555 1_555
H54 C73 1_555 1_555
C74 N2 1_555 1_555
C75 N2 1_555 1_555
O23 C78 1_555 1_555
N3 C78 1_555 1_555
C78 H55 1_555 1_555
C79 N3 1_555 1_555
H56 C79 1_555 1_555
H57 C79 1_555 1_555
H58 C79 1_555 1_555
C80 N3 1_555 1_555
H59 C80 1_555 1_555
H60 C80 1_555 1_555
H61 C80 1_555 1_555
O24 C81 1_555 1_555
N4 C81 1_555 1_555
C81 H62 1_555 1_555
C82 N4 1_555 1_555
H63 C82 1_555 1_555
H64 C82 1_555 1_555
H65 C82 1_555 1_555
C83 N4 1_555 1_555
H66 C83 1_555 1_555
H67 C83 1_555 1_555
H68 C83 1_555 1_555
O25 C84 1_555 1_555
N5 C84 1_555 1_555
C84 H69 1_555 1_555
C85 N5 1_555 1_555
H70 C85 1_555 1_555
H71 C85 1_555 1_555
H72 C85 1_555 1_555
C86 N5 1_555 1_555
H73 C86 1_555 1_555
H74 C86 1_555 1_555
H75 C86 1_555 1_555
Ho1B O8 1_555 1_555
Ho1C O4 1_555 1_555
Ho1C_2 O14 1_555 1_555
Ho2C O5 1_555 1_555
Ho2C_2 O13 1_555 1_555
O4C Ho1 1_555 1_555
O5C Ho1 1_555 1_555
O8B Ho1 1_555 1_555
O13C Ho2 1_555 1_555
O14C Ho1 1_555 1_555
Ho2 O5C 1_555 1_555
O5 Ho1C 1_555 1_555
O11 C47 1_555 1_555
O17 C24 1_555 1_555
C2 C11 1_555 1_555
C8 C9 1_555 1_555
C10 C11 1_555 1_555
C13 C22 1_555 1_555
C18 C19 1_555 1_555
C21 C22 1_555 1_555
C25 C34 1_555 1_555
C31 C32 1_555 1_555
C33 C34 1_555 1_555
C36 C45 1_555 1_555
C41 C42 1_555 1_555
C44 C45 1_555 1_555
C48 C57 1_555 1_555
C54 C55 1_555 1_555
C56 C57 1_555 1_555
C59 C68 1_555 1_555
C64 C65 1_555 1_555
C67 C68 1_555 1_555

#END
