
#######################################################################
#
#                 Cambridge Crystallographic Data Centre
#                                CCDC 
#
#######################################################################
#
# If this CIF has been generated from an entry in the Cambridge 
# Structural Database, then it will include bibliographic, chemical, 
# crystal, experimental, refinement or atomic coordinate data resulting 
# from the CCDC's data processing and validation procedures.
#
#######################################################################

data_OSUPEZ
_chemical_formula_moiety         'C36 H32 Dy8 O24 S8'
_symmetry_cell_setting           monoclinic
_symmetry_space_group_name_H-M   'C 2/c'
_symmetry_Int_Tables_number      15
_space_group_name_Hall           '-C 2yc'
loop_
_symmetry_equiv_pos_site_id
_symmetry_equiv_pos_as_xyz
1 x,y,z
2 -x,y,1/2-z
3 1/2+x,1/2+y,z
4 1/2-x,1/2+y,1/2-z
5 -x,-y,-z
6 x,-y,1/2+z
7 1/2-x,1/2-y,-z
8 1/2+x,1/2-y,1/2+z
_cell_length_a                   26.333(3)
_cell_length_b                   12.2760(9)
_cell_length_c                   19.5387(19)
_cell_angle_alpha                90
_cell_angle_beta                 122.809(9)
_cell_angle_gamma                90
_cell_volume                     5308.61
loop_
_atom_site_label
_atom_site_type_symbol
_atom_site_fract_x
_atom_site_fract_y
_atom_site_fract_z
Dy1 Dy -0.00134(5) 0.5251(4) 0.1235(2)
O1 O 0.0625(5) 0.4209(11) 0.1052(7)
O2 O 0.0493(5) 0.3668(10) -0.0115(7)
O3 O 0.4017(5) 0.0581(11) 0.2518(7)
O4 O 0.4232(5) 0.1455(11) 0.3635(7)
O5 O -0.0110(5) 0.6758(8) 0.1873(6)
O6 O 0.0105(6) 1.3791(9) 0.2020(9)
O7 O -0.0977(5) 0.5096(10) 0.1128(7)
H1 H -0.1159 0.5577 0.1231
H2 H -0.0805 0.4806 0.1597
O8 O -0.0691(4) 0.3981(9) 0.0147(6)
H3 H -0.0598 0.3458 -0.0050
H4 H -0.0824 0.4345 -0.0288
S1 S 0.1811(11) 0.353(2) 0.2167(14)
S2 S 0.3125(10) 0.251(2) 0.3115(11)
S3 S 0.0055(12) 0.9048(16) 0.1758(12)
S4 S 0.0112(19) 1.155(3) 0.185(3)
C1 C 0.0773(7) 0.3731(14) 0.0603(11)
C2 C 0.3866(8) 0.1256(16) 0.2897(11)
C3 C 0.1384(7) 0.3245(15) 0.1125(11)
C4 C 0.169(4) 0.258(9) 0.086(3)
C5 C 0.2287(9) 0.2253(18) 0.1468(13)
C6 C 0.2399(8) 0.2730(17) 0.2222(13)
C7 C 0.3296(8) 0.1720(18) 0.2533(12)
C8 C 0.283(7) 0.167(12) 0.170(7)
C9 C 0.1454(14) 0.221(3) 0.005(2)
H5 H 0.1549 0.2726 -0.0236
H6 H 0.1023 0.2125 -0.0237
H7 H 0.1633 0.1516 0.0065
C10 C 0.280(2) 0.115(5) 0.106(3)
H8 H 0.3009 0.0471 0.1241
H9 H 0.2981 0.1599 0.0846
H10 H 0.2383 0.1025 0.0644
C11 C 0.0000 0.7226(16) 0.2500
C12 C -0.0000 1.3337(19) 0.2500
C13 C -0.0000 0.8420(16) 0.2500
C14 C -0.005(4) 0.918(7) 0.299(5)
C15 C 0.00(3) 1.03(4) 0.29(5)
C16 C 0.00(3) 1.03(4) 0.22(5)
C17 C 0.0000 1.2135(19) 0.2500
C18 C -0.002(6) 1.140(11) 0.304(9)
C19 C -0.0137(15) 0.889(3) 0.368(2)
H11 H -0.0130 0.8106 0.3714
H12 H -0.0516 0.9156 0.3569
H13 H 0.0189 0.9186 0.4179
C20 C -0.0109(14) 1.159(3) 0.373(2)
H14 H 0.0227 1.1276 0.4220
H15 H -0.0480 1.1268 0.3621
H16 H -0.0119 1.2361 0.3806
O5A O 0.0110(5) 0.6758(8) 0.3127(6)
O6A O -0.0105(6) 1.3791(9) 0.2980(9)
S3A S -0.0055(12) 0.9048(16) 0.3242(12)
S4A S -0.0112(19) 1.155(3) 0.315(3)
C14A C 0.005(4) 0.918(7) 0.201(5)
C15A C 0.00(3) 1.03(4) 0.21(5)
C16A C 0.00(3) 1.03(4) 0.28(5)
C18A C 0.002(6) 1.140(11) 0.196(9)
C19A C 0.0137(15) 0.889(3) 0.132(2)
H11A H 0.0130 0.8106 0.1286
H12A H 0.0516 0.9156 0.1431
H13A H -0.0189 0.9186 0.0821
C20A C 0.0109(14) 1.159(3) 0.127(2)
H14A H -0.0227 1.1276 0.0780
H15A H 0.0480 1.1268 0.1379
H16A H 0.0119 1.2361 0.1194
Dy1A Dy 0.00134(5) 0.5251(4) 0.3765(2)
O1A O -0.0625(5) 0.4209(11) 0.3948(7)
O2A O -0.0493(5) 0.3668(10) 0.5115(7)
O3A O -0.4017(5) 0.0581(11) 0.2482(7)
O4A O -0.4232(5) 0.1455(11) 0.1365(7)
O7A O 0.0977(5) 0.5096(10) 0.3872(7)
H1A H 0.1159 0.5577 0.3769
H2A H 0.0805 0.4806 0.3403
O8A O 0.0691(4) 0.3981(9) 0.4853(6)
H3A H 0.0598 0.3458 0.5050
H4A H 0.0824 0.4345 0.5288
S1A S -0.1811(11) 0.353(2) 0.2833(14)
S2A S -0.3125(10) 0.251(2) 0.1885(11)
C1A C -0.0773(7) 0.3731(14) 0.4397(11)
C2A C -0.3866(8) 0.1256(16) 0.2103(11)
C3A C -0.1384(7) 0.3245(15) 0.3875(11)
C4A C -0.169(4) 0.258(9) 0.414(3)
C5A C -0.2287(9) 0.2253(18) 0.3532(13)
C6A C -0.2399(8) 0.2730(17) 0.2778(13)
C7A C -0.3296(8) 0.1720(18) 0.2467(12)
C8A C -0.283(7) 0.167(12) 0.330(7)
C9A C -0.1454(14) 0.221(3) 0.495(2)
H5A H -0.1549 0.2726 0.5236
H6A H -0.1023 0.2125 0.5237
H7A H -0.1633 0.1516 0.4935
C10A C -0.280(2) 0.115(5) 0.394(3)
H8A H -0.3009 0.0471 0.3759
H9A H -0.2981 0.1599 0.4154
H10A H -0.2383 0.1025 0.4356
Dy1_2 Dy -0.00134(5) 1.5251(4) 0.1235(2)
Dy1A_2 Dy 0.00134(5) 1.5251(4) 0.3765(2)
Dy1B Dy -0.50134(5) 0.0251(4) 0.1235(2)
Dy1C Dy 0.50134(5) 0.0251(4) 0.3765(2)
Dy1D Dy 0.00134(5) 0.4749(4) -0.1235(2)
Dy1E Dy -0.00134(5) 0.4749(4) 0.6235(2)
O2D O -0.0493(5) 0.6332(10) 0.0115(7)
O2E O 0.0493(5) 0.6332(10) 0.4885(7)
O3B O -0.0983(5) 0.5581(11) 0.2518(7)
O3C O 0.0983(5) 0.5581(11) 0.2482(7)
O4B O -0.0768(5) 0.6455(11) 0.3635(7)
O4C O 0.0768(5) 0.6455(11) 0.1365(7)
O6_2 O 0.0105(6) 0.3791(9) 0.2020(9)
O6A_2 O -0.0105(6) 0.3791(9) 0.2980(9)
loop_
_geom_bond_atom_site_label_1
_geom_bond_atom_site_label_2
_geom_bond_site_symmetry_1
_geom_bond_site_symmetry_2
Dy1 O1 1_555 1_555
O1 C1 1_555 1_555
O2 C1 1_555 1_555
O3 C2 1_555 1_555
O4 C2 1_555 1_555
O5 Dy1 1_555 1_555
O6 C12 1_555 1_555
O7 Dy1 1_555 1_555
H1 O7 1_555 1_555
H2 O7 1_555 1_555
O8 Dy1 1_555 1_555
H3 O8 1_555 1_555
H4 O8 1_555 1_555
S1 C3 1_555 1_555
S2 C6 1_555 1_555
S3 C13 1_555 1_555
S4 C16 1_555 1_555
C1 C3 1_555 1_555
C2 C7 1_555 1_555
C3 C4 1_555 1_555
C4 C5 1_555 1_555
C5 C6 1_555 1_555
C6 S1 1_555 1_555
C7 S2 1_555 1_555
C8 C5 1_555 1_555
C9 C4 1_555 1_555
H5 C9 1_555 1_555
H6 C9 1_555 1_555
H7 C9 1_555 1_555
C10 C8 1_555 1_555
H8 C10 1_555 1_555
H9 C10 1_555 1_555
H10 C10 1_555 1_555
C11 O5 1_555 1_555
C12 C17 1_555 1_555
C13 C11 1_555 1_555
C14 C13 1_555 1_555
C15 C14 1_555 1_555
C16 S3 1_555 1_555
C17 S4 1_555 1_555
C18 C15 1_555 1_555
C19 C14 1_555 1_555
H11 C19 1_555 1_555
H12 C19 1_555 1_555
H13 C19 1_555 1_555
C20 C18 1_555 1_555
H14 C20 1_555 1_555
H15 C20 1_555 1_555
H16 C20 1_555 1_555
O5A C11 1_555 1_555
O6A C12 1_555 1_555
S3A C13 1_555 1_555
S4A C15 1_555 1_555
C14A C13 1_555 1_555
C15A S3 1_555 1_555
C16A C14 1_555 1_555
C18A C16 1_555 1_555
C19A S3 1_555 1_555
H11A C19A 1_555 1_555
H12A C19A 1_555 1_555
H13A C19A 1_555 1_555
C20A S4 1_555 1_555
H14A C20A 1_555 1_555
H15A C20A 1_555 1_555
H16A C20A 1_555 1_555
Dy1A O5A 1_555 1_555
O1A Dy1A 1_555 1_555
O2A C1A 1_555 1_555
O3A C2A 1_555 1_555
O4A C2A 1_555 1_555
O7A Dy1A 1_555 1_555
H1A O7A 1_555 1_555
H2A O7A 1_555 1_555
O8A Dy1A 1_555 1_555
H3A O8A 1_555 1_555
H4A O8A 1_555 1_555
S1A C3A 1_555 1_555
S2A C6A 1_555 1_555
C1A O1A 1_555 1_555
C2A C7A 1_555 1_555
C3A C1A 1_555 1_555
C4A C3A 1_555 1_555
C5A C4A 1_555 1_555
C6A S1A 1_555 1_555
C7A S2A 1_555 1_555
C8A C5A 1_555 1_555
C9A C4A 1_555 1_555
H5A C9A 1_555 1_555
H6A C9A 1_555 1_555
H7A C9A 1_555 1_555
C10A C8A 1_555 1_555
H8A C10A 1_555 1_555
H9A C10A 1_555 1_555
H10A C10A 1_555 1_555
Dy1_2 O6 1_555 1_555
Dy1A_2 O6A 1_555 1_555
Dy1B O3A 1_555 1_555
Dy1C O3 1_555 1_555
Dy1D O2 1_555 1_555
Dy1E O2A 1_555 1_555
O2D Dy1 1_555 1_555
O2E Dy1A 1_555 1_555
O3B Dy1A 1_555 1_555
O3C Dy1 1_555 1_555
O4B Dy1A 1_555 1_555
O4C Dy1 1_555 1_555
O6_2 Dy1 1_555 1_555
O6A_2 Dy1A 1_555 1_555
O4 Dy1C 1_555 1_555
S4 C15A 1_555 1_555
C7 C8 1_555 1_555
C15 C16 1_555 1_555
C15 S3A 1_555 1_555
C15 C15A 1_555 1_555
C16 C14A 1_555 1_555
C16 C16A 1_555 1_555
C17 C18 1_555 1_555
C17 S4A 1_555 1_555
C17 C18A 1_555 1_555
C18 C16A 1_555 1_555
C19 S3A 1_555 1_555
C20 S4A 1_555 1_555
S3A C16A 1_555 1_555
S4A C16A 1_555 1_555
C14A C15A 1_555 1_555
C14A C19A 1_555 1_555
C15A C16A 1_555 1_555
C15A C18A 1_555 1_555
C18A C20A 1_555 1_555
O4A Dy1B 1_555 1_555
C5A C6A 1_555 1_555
C7A C8A 1_555 1_555

#END
