
#######################################################################
#
#                 Cambridge Crystallographic Data Centre
#                                CCDC 
#
#######################################################################
#
# If this CIF has been generated from an entry in the Cambridge 
# Structural Database, then it will include bibliographic, chemical, 
# crystal, experimental, refinement or atomic coordinate data resulting 
# from the CCDC's data processing and validation procedures.
#
#######################################################################

data_OSUPOJ
_chemical_formula_moiety         'C41 H43 Eu8 N1 O25 S8'
_symmetry_cell_setting           monoclinic
_symmetry_space_group_name_H-M   'C 2/c'
_symmetry_Int_Tables_number      15
_space_group_name_Hall           '-C 2yc'
loop_
_symmetry_equiv_pos_site_id
_symmetry_equiv_pos_as_xyz
1 x,y,z
2 -x,y,1/2-z
3 1/2+x,1/2+y,z
4 1/2-x,1/2+y,1/2-z
5 -x,-y,-z
6 x,-y,1/2+z
7 1/2-x,1/2-y,-z
8 1/2+x,1/2-y,1/2+z
_cell_length_a                   26.0190(13)
_cell_length_b                   12.3698(4)
_cell_length_c                   19.5603(11)
_cell_angle_alpha                90
_cell_angle_beta                 121.672(7)
_cell_angle_gamma                90
_cell_volume                     5357.88
loop_
_atom_site_label
_atom_site_type_symbol
_atom_site_fract_x
_atom_site_fract_y
_atom_site_fract_z
N1 N 0.2881(4) 0.4469(9) 0.1122(6)
O9 O 0.1927(3) 0.4039(7) 0.0137(5)
C21 C 0.3272(5) 0.5212(10) 0.1793(8)
H17 H 0.3078 0.5913 0.1691
H18 H 0.3652 0.5308 0.1820
C22 C 0.3396(6) 0.4780(11) 0.2597(8)
H19 H 0.3027 0.4775 0.2598
H20 H 0.3685 0.5236 0.3024
H21 H 0.3553 0.4058 0.2677
C23 C 0.3150(5) 0.3558(11) 0.0952(8)
H22 H 0.2867 0.2960 0.0751
H23 H 0.3509 0.3326 0.1447
C24 C 0.3321(5) 0.3843(11) 0.0335(8)
H24 H 0.2960 0.3962 -0.0179
H25 H 0.3547 0.3259 0.0296
H26 H 0.3562 0.4488 0.0501
C25 C 0.2297(5) 0.4648(11) 0.0690(8)
H27 H 0.2149 0.5265 0.0801
Eu1 Eu 0.503180(16) 0.97455(3) 0.37554(2)
S1 S 0.50132(19) 0.5979(3) 0.3305(2)
S2 S 0.4966(2) 0.3456(3) 0.3251(2)
S3 S 0.34259(15) 1.2505(3) 0.4575(2)
S4 S 0.21398(15) 1.3552(3) 0.3626(2)
O1 O 0.4392(2) 1.0771(5) 0.3985(3)
O2 O 0.4506(2) 1.1364(5) 0.5121(3)
O3 O 0.0791(2) 1.3545(5) 0.1372(3)
O4 O 0.0970(2) 1.4374(5) 0.2479(3)
O5 O 0.5154(2) 0.8220(4) 0.3149(3)
O6 O 0.4884(3) 0.1244(4) 0.2976(3)
O7 O 0.6002(2) 0.9863(5) 0.3853(3)
H1 H 0.6066 1.0515 0.3781
H2 H 0.6281 0.9655 0.4317
O8 O 0.5720(2) 1.1009(5) 0.4860(3)
H3 H 0.5538 1.1257 0.5084
H4 H 0.6034 1.0669 0.5206
C1 C 0.4222(3) 1.1285(7) 0.4382(4)
C2 C 0.3622(3) 1.1825(7) 0.3931(4)
C3 C 0.2747(6) 1.2829(13) 0.3725(9)
C4 C 0.2664(6) 1.2444(14) 0.3036(10)
C5 C 0.1751(3) 1.3288(7) 0.2559(4)
C6 C 0.1135(3) 1.3754(7) 0.2113(4)
C7 C 0.5000 0.7761(8) 0.2500
C8 C 0.5000 0.6575(8) 0.2500
C9 C 0.5002(14) 0.4738(11) 0.2214(12)
C10 C 0.4990(14) 0.4727(10) 0.2906(12)
C11 C 0.3236(6) 1.1412(13) 0.2499(9)
H5 H 0.3655 1.1413 0.2668
H6 H 0.3012 1.1838 0.2020
H7 H 0.3086 1.0683 0.2392
C12 C 0.1829(6) 1.2293(13) 0.1514(9)
H8 H 0.1396 1.2348 0.1206
H9 H 0.1945 1.1551 0.1538
H10 H 0.1994 1.2718 0.1264
C13 C 0.4999(7) 0.6105(12) 0.1217(8)
H11 H 0.5039 0.6874 0.1198
H12 H 0.4628 0.5875 0.0749
H13 H 0.5333 0.5754 0.1231
C14 C 0.5012(7) 0.3408(12) 0.1205(8)
H14 H 0.5402 0.3584 0.1294
H15 H 0.4708 0.3823 0.0762
H16 H 0.4935 0.2651 0.1085
C15 C 0.3163(6) 1.1890(13) 0.3160(9)
C16 C 0.2067(6) 1.2708(13) 0.2359(9)
C17 C 0.5000 0.1692(9) 0.2500
C18 C 0.4990(9) 0.5808(10) 0.1970(9)
C19 C 0.4999(9) 0.3669(11) 0.1964(9)
C20 C 0.5000 0.2897(8) 0.2500
S1A S 0.49868(19) 0.5979(3) 0.1695(2)
S2A S 0.5034(2) 0.3456(3) 0.1749(2)
O5A O 0.4846(2) 0.8220(4) 0.1851(3)
O6A O 0.5116(3) 0.1244(4) 0.2024(3)
C9A C 0.4998(14) 0.4738(11) 0.2786(12)
C10A C 0.5010(14) 0.4727(10) 0.2094(12)
C13A C 0.5001(7) 0.6105(12) 0.3783(8)
H11A H 0.4961 0.6874 0.3802
H12A H 0.5372 0.5875 0.4251
H13A H 0.4667 0.5754 0.3769
C14A C 0.4988(7) 0.3408(12) 0.3795(8)
H14A H 0.4598 0.3584 0.3706
H15A H 0.5292 0.3823 0.4238
H16A H 0.5065 0.2651 0.3915
C18A C 0.5010(9) 0.5808(10) 0.3030(9)
C19A C 0.5001(9) 0.3669(11) 0.3036(9)
Eu1A Eu 0.496820(16) 0.97455(3) 0.12446(2)
S3A S 0.65741(15) 1.2505(3) 0.0425(2)
S4A S 0.78602(15) 1.3552(3) 0.1374(2)
O1A O 0.5608(2) 1.0771(5) 0.1015(3)
O2A O 0.5494(2) 1.1364(5) -0.0121(3)
O3A O 0.9209(2) 1.3545(5) 0.3628(3)
O4A O 0.9030(2) 1.4374(5) 0.2521(3)
O7A O 0.3998(2) 0.9863(5) 0.1147(3)
H1A H 0.3934 1.0515 0.1219
H2A H 0.3719 0.9655 0.0683
O8A O 0.4280(2) 1.1009(5) 0.0140(3)
H3A H 0.4462 1.1257 -0.0084
H4A H 0.3966 1.0669 -0.0206
C1A C 0.5778(3) 1.1285(7) 0.0618(4)
C2A C 0.6378(3) 1.1825(7) 0.1069(4)
C3A C 0.7253(6) 1.2829(13) 0.1275(9)
C4A C 0.7336(6) 1.2444(14) 0.1964(10)
C5A C 0.8249(3) 1.3288(7) 0.2441(4)
C6A C 0.8865(3) 1.3754(7) 0.2887(4)
C11A C 0.6764(6) 1.1412(13) 0.2501(9)
H5A H 0.6345 1.1413 0.2332
H6A H 0.6988 1.1838 0.2980
H7A H 0.6914 1.0683 0.2608
C12A C 0.8171(6) 1.2293(13) 0.3486(9)
H8A H 0.8604 1.2348 0.3794
H9A H 0.8055 1.1551 0.3462
H10A H 0.8006 1.2718 0.3736
C15A C 0.6837(6) 1.1890(13) 0.1840(9)
C16A C 0.7933(6) 1.2708(13) 0.2641(9)
Eu1_2 Eu 0.503180(16) -0.02545(3) 0.37554(2)
Eu1A_2 Eu 0.496820(16) -0.02545(3) 0.12446(2)
Eu1B Eu 1.003180(16) 1.47455(3) 0.37554(2)
Eu1C Eu -0.003180(16) 1.47455(3) 0.12446(2)
Eu1D Eu 0.496820(16) 1.02545(3) 0.62446(2)
Eu1E Eu 0.503180(16) 1.02545(3) -0.12446(2)
O2D O 0.5494(2) 0.8636(5) 0.4879(3)
O2E O 0.4506(2) 0.8636(5) 0.0121(3)
O3B O 0.5791(2) 0.8545(5) 0.1372(3)
O3C O 0.4209(2) 0.8545(5) 0.3628(3)
O4B O 0.5970(2) 0.9374(5) 0.2479(3)
O4C O 0.4030(2) 0.9374(5) 0.2521(3)
O6_2 O 0.4884(3) 1.1244(4) 0.2976(3)
O6A_2 O 0.5116(3) 1.1244(4) 0.2024(3)
loop_
_geom_bond_atom_site_label_1
_geom_bond_atom_site_label_2
_geom_bond_site_symmetry_1
_geom_bond_site_symmetry_2
Eu1 O1 1_555 1_555
S1 C8 1_555 1_555
S2 C10 1_555 1_555
S3 C2 1_555 1_555
S4 C3 1_555 1_555
O1 C1 1_555 1_555
O2 C1 1_555 1_555
O3 C6 1_555 1_555
O4 C6 1_555 1_555
O5 Eu1 1_555 1_555
O6 C17 1_555 1_555
O7 Eu1 1_555 1_555
H1 O7 1_555 1_555
H2 O7 1_555 1_555
O8 Eu1 1_555 1_555
H3 O8 1_555 1_555
H4 O8 1_555 1_555
C1 C2 1_555 1_555
C2 C15 1_555 1_555
C3 S3 1_555 1_555
C4 C3 1_555 1_555
C5 S4 1_555 1_555
C6 C5 1_555 1_555
C7 O5 1_555 1_555
C8 C7 1_555 1_555
C9 C10 1_555 1_555
C10 S1 1_555 1_555
C11 H5 1_555 1_555
H6 C11 1_555 1_555
H7 C11 1_555 1_555
C12 H8 1_555 1_555
H9 C12 1_555 1_555
H10 C12 1_555 1_555
C13 H11 1_555 1_555
H12 C13 1_555 1_555
H13 C13 1_555 1_555
C14 H14 1_555 1_555
H15 C14 1_555 1_555
H16 C14 1_555 1_555
C15 C4 1_555 1_555
C16 C4 1_555 1_555
C17 C20 1_555 1_555
C18 C8 1_555 1_555
C19 C9 1_555 1_555
C20 S2 1_555 1_555
N1 C21 1_555 1_555
O9 C25 1_555 1_555
C21 H17 1_555 1_555
H18 C21 1_555 1_555
C22 C21 1_555 1_555
H19 C22 1_555 1_555
H20 C22 1_555 1_555
H21 C22 1_555 1_555
C23 N1 1_555 1_555
H22 C23 1_555 1_555
H23 C23 1_555 1_555
C24 C23 1_555 1_555
H24 C24 1_555 1_555
H25 C24 1_555 1_555
H26 C24 1_555 1_555
C25 N1 1_555 1_555
H27 C25 1_555 1_555
S1A C8 1_555 1_555
S2A C9 1_555 1_555
O5A C7 1_555 1_555
O6A C17 1_555 1_555
C9A S1 1_555 1_555
C10A C10 1_555 1_555
C13A S1 1_555 1_555
H11A C13A 1_555 1_555
H12A C13A 1_555 1_555
H13A C13A 1_555 1_555
C14A S2 1_555 1_555
H14A C14A 1_555 1_555
H15A C14A 1_555 1_555
H16A C14A 1_555 1_555
C18A S1 1_555 1_555
C19A C10 1_555 1_555
Eu1A O5A 1_555 1_555
S3A C2A 1_555 1_555
S4A C3A 1_555 1_555
O1A Eu1A 1_555 1_555
O2A C1A 1_555 1_555
O3A C6A 1_555 1_555
O4A C6A 1_555 1_555
O7A Eu1A 1_555 1_555
H1A O7A 1_555 1_555
H2A O7A 1_555 1_555
O8A Eu1A 1_555 1_555
H3A O8A 1_555 1_555
H4A O8A 1_555 1_555
C1A O1A 1_555 1_555
C2A C1A 1_555 1_555
C3A S3A 1_555 1_555
C4A C3A 1_555 1_555
C5A S4A 1_555 1_555
C6A C5A 1_555 1_555
C11A H5A 1_555 1_555
H6A C11A 1_555 1_555
H7A C11A 1_555 1_555
C12A H8A 1_555 1_555
H9A C12A 1_555 1_555
H10A C12A 1_555 1_555
C15A C2A 1_555 1_555
C16A C4A 1_555 1_555
Eu1_2 O6 1_555 1_555
Eu1A_2 O6A 1_555 1_555
Eu1B O3A 1_555 1_555
Eu1C O3 1_555 1_555
Eu1D O2 1_555 1_555
Eu1E O2A 1_555 1_555
O2D Eu1 1_555 1_555
O2E Eu1A 1_555 1_555
O3B Eu1A 1_555 1_555
O3C Eu1 1_555 1_555
O4B Eu1A 1_555 1_555
O4C Eu1 1_555 1_555
O6_2 Eu1 1_555 1_555
O6A_2 Eu1A 1_555 1_555
S2 C9A 1_555 1_555
O4 Eu1C 1_555 1_555
C5 C16 1_555 1_555
C8 C18A 1_555 1_555
C9 C18 1_555 1_555
C9 S1A 1_555 1_555
C9 C9A 1_555 1_555
C10 C18A 1_555 1_555
C11 C15 1_555 1_555
C12 C16 1_555 1_555
C13 C18 1_555 1_555
C13 S1A 1_555 1_555
C14 C19 1_555 1_555
C14 S2A 1_555 1_555
C18 S1A 1_555 1_555
C18 C10A 1_555 1_555
C19 C20 1_555 1_555
C19 C10A 1_555 1_555
C20 S2A 1_555 1_555
C20 C19A 1_555 1_555
S1A C10A 1_555 1_555
S2A C10A 1_555 1_555
C9A C10A 1_555 1_555
C9A C18A 1_555 1_555
C9A C19A 1_555 1_555
C13A C18A 1_555 1_555
C14A C19A 1_555 1_555
O4A Eu1B 1_555 1_555
C4A C15A 1_555 1_555
C5A C16A 1_555 1_555
C11A C15A 1_555 1_555
C12A C16A 1_555 1_555

#END
