
#######################################################################
#
#                 Cambridge Crystallographic Data Centre
#                                CCDC 
#
#######################################################################
#
# If this CIF has been generated from an entry in the Cambridge 
# Structural Database, then it will include bibliographic, chemical, 
# crystal, experimental, refinement or atomic coordinate data resulting 
# from the CCDC's data processing and validation procedures.
#
#######################################################################

data_OSUPAV
_chemical_formula_moiety         'C36 H32 Gd8 O24 S8'
_symmetry_cell_setting           monoclinic
_symmetry_space_group_name_H-M   'C 2/c'
_symmetry_Int_Tables_number      15
_space_group_name_Hall           '-C 2yc'
loop_
_symmetry_equiv_pos_site_id
_symmetry_equiv_pos_as_xyz
1 x,y,z
2 -x,y,1/2-z
3 1/2+x,1/2+y,z
4 1/2-x,1/2+y,1/2-z
5 -x,-y,-z
6 x,-y,1/2+z
7 1/2-x,1/2-y,-z
8 1/2+x,1/2-y,1/2+z
_cell_length_a                   26.578(3)
_cell_length_b                   12.4498(9)
_cell_length_c                   19.9618(18)
_cell_angle_alpha                90
_cell_angle_beta                 122.923(2)
_cell_angle_gamma                90
_cell_volume                     5544.4
loop_
_atom_site_label
_atom_site_type_symbol
_atom_site_fract_x
_atom_site_fract_y
_atom_site_fract_z
Gd1 Gd 0.49844(2) 0.52068(6) 0.62477(4)
O1 O 0.5605(4) 0.4154(9) 0.6029(5)
O2 O 0.5496(4) 0.3696(8) 0.4880(5)
O3 O 0.9010(4) 0.0549(9) 0.7510(5)
O4 O 0.9206(4) 0.1411(9) 0.8610(5)
O5 O 0.4893(4) 0.6735(7) 0.6880(5)
O6 O 0.5100(5) 1.3740(7) 0.7018(6)
O7 O 0.4001(4) 0.5074(8) 0.6104(5)
H1 H 0.3818 0.5555 0.6206
H2 H 0.4173 0.4784 0.6572
O8 O 0.4294(4) 0.3969(8) 0.5136(5)
H3 H 0.4386 0.3446 0.4939
H4 H 0.4160 0.4333 0.4702
S1 S 0.6783(4) 0.3441(9) 0.7126(5)
S2 S 0.8085(4) 0.2423(9) 0.8066(5)
S3 S 0.5034(4) 0.8988(6) 0.6753(5)
S4 S 0.5072(5) 1.1503(7) 0.6802(6)
C1 C 0.5782(6) 0.3721(12) 0.5628(8)
C2 C 0.8851(6) 0.1177(14) 0.7870(9)
C3 C 0.6373(6) 0.3195(13) 0.6086(8)
C4 C 0.667(4) 0.257(8) 0.581(3)
C5 C 0.7262(7) 0.2216(16) 0.6399(11)
C6 C 0.7366(7) 0.2656(15) 0.7142(11)
C7 C 0.8260(6) 0.1680(15) 0.7467(9)
C8 C 0.781(3) 0.166(7) 0.664(4)
C9 C 0.6454(19) 0.225(4) 0.505(2)
H5 H 0.6336 0.1514 0.4983
H6 H 0.6762 0.2341 0.4939
H7 H 0.6114 0.2688 0.4686
C10 C 0.7785(18) 0.116(4) 0.600(2)
H8 H 0.8063 0.1506 0.5904
H9 H 0.7387 0.1221 0.5534
H10 H 0.7889 0.0416 0.6120
C11 C 0.5000 0.7178(13) 0.7500
C12 C 0.5000 1.3272(14) 0.7500
C13 C 0.5000 0.8393(13) 0.7500
C14 C 0.494(2) 0.914(3) 0.797(2)
C15 C 0.49(2) 1.022(14) 0.79(2)
C16 C 0.50(2) 1.026(14) 0.72(2)
C17 C 0.5000 1.2069(14) 0.7500
C18 C 0.496(2) 1.134(3) 0.800(3)
C19 C 0.4886(12) 0.882(2) 0.8723(16)
H11 H 0.4893 0.8043 0.8761
H12 H 0.4507 0.9092 0.8616
H13 H 0.5212 0.9123 0.9226
C20 C 0.4887(12) 1.157(2) 0.8725(15)
H14 H 0.5222 1.1253 0.9212
H15 H 0.4516 1.1245 0.8613
H16 H 0.4877 1.2339 0.8798
O5A O 0.5107(4) 0.6735(7) 0.8120(5)
O6A O 0.4900(5) 1.3740(7) 0.7982(6)
S3A S 0.4966(4) 0.8988(6) 0.8247(5)
S4A S 0.4928(5) 1.1503(7) 0.8198(6)
C14A C 0.506(2) 0.914(3) 0.703(2)
C15A C 0.51(2) 1.022(14) 0.71(2)
C16A C 0.50(2) 1.026(14) 0.78(2)
C18A C 0.504(2) 1.134(3) 0.700(3)
C19A C 0.5114(12) 0.882(2) 0.6277(16)
H11A H 0.5107 0.8043 0.6239
H12A H 0.5493 0.9092 0.6384
H13A H 0.4788 0.9123 0.5774
C20A C 0.5113(12) 1.157(2) 0.6275(15)
H14A H 0.4778 1.1253 0.5788
H15A H 0.5484 1.1245 0.6387
H16A H 0.5123 1.2339 0.6202
Gd1A Gd 0.50156(2) 0.52068(6) 0.87523(4)
O1A O 0.4395(4) 0.4154(9) 0.8971(5)
O2A O 0.4504(4) 0.3696(8) 1.0120(5)
O3A O 0.0990(4) 0.0549(9) 0.7490(5)
O4A O 0.0794(4) 0.1411(9) 0.6390(5)
O7A O 0.5999(4) 0.5074(8) 0.8896(5)
H1A H 0.6182 0.5555 0.8794
H2A H 0.5827 0.4784 0.8428
O8A O 0.5706(4) 0.3969(8) 0.9864(5)
H3A H 0.5614 0.3446 1.0061
H4A H 0.5840 0.4333 1.0298
S1A S 0.3217(4) 0.3441(9) 0.7874(5)
S2A S 0.1915(4) 0.2423(9) 0.6934(5)
C1A C 0.4218(6) 0.3721(12) 0.9372(8)
C2A C 0.1149(6) 0.1177(14) 0.7130(9)
C3A C 0.3627(6) 0.3195(13) 0.8914(8)
C4A C 0.333(4) 0.257(8) 0.919(3)
C5A C 0.2738(7) 0.2216(16) 0.8601(11)
C6A C 0.2634(7) 0.2656(15) 0.7858(11)
C7A C 0.1740(6) 0.1680(15) 0.7533(9)
C8A C 0.219(3) 0.166(7) 0.836(4)
C9A C 0.3546(19) 0.225(4) 0.995(2)
H5A H 0.3664 0.1514 1.0017
H6A H 0.3238 0.2341 1.0061
H7A H 0.3886 0.2688 1.0314
C10A C 0.2215(18) 0.116(4) 0.900(2)
H8A H 0.1937 0.1506 0.9096
H9A H 0.2613 0.1221 0.9466
H10A H 0.2111 0.0416 0.8880
Gd1_2 Gd 0.49844(2) 1.52068(6) 0.62477(4)
Gd1A_2 Gd 0.50156(2) 1.52068(6) 0.87523(4)
Gd1B Gd -0.00156(2) 0.02068(6) 0.62477(4)
Gd1C Gd 1.00156(2) 0.02068(6) 0.87523(4)
Gd1D Gd 0.50156(2) 0.47932(6) 0.37523(4)
Gd1E Gd 0.49844(2) 0.47932(6) 1.12477(4)
O2D O 0.4504(4) 0.6304(8) 0.5120(5)
O2E O 0.5496(4) 0.6304(8) 0.9880(5)
O3B O 0.4010(4) 0.5549(9) 0.7510(5)
O3C O 0.5990(4) 0.5549(9) 0.7490(5)
O4B O 0.4206(4) 0.6411(9) 0.8610(5)
O4C O 0.5794(4) 0.6411(9) 0.6390(5)
O6_2 O 0.5100(5) 0.3740(7) 0.7018(6)
O6A_2 O 0.4900(5) 0.3740(7) 0.7982(6)
loop_
_geom_bond_atom_site_label_1
_geom_bond_atom_site_label_2
_geom_bond_site_symmetry_1
_geom_bond_site_symmetry_2
Gd1 O1 1_555 1_555
O1 C1 1_555 1_555
O2 C1 1_555 1_555
O3 C2 1_555 1_555
O4 C2 1_555 1_555
O5 Gd1 1_555 1_555
O6 C12 1_555 1_555
O7 Gd1 1_555 1_555
H1 O7 1_555 1_555
H2 O7 1_555 1_555
O8 Gd1 1_555 1_555
H3 O8 1_555 1_555
H4 O8 1_555 1_555
S1 C3 1_555 1_555
S2 C6 1_555 1_555
S3 C13 1_555 1_555
S4 C16 1_555 1_555
C1 C3 1_555 1_555
C2 C7 1_555 1_555
C3 C4 1_555 1_555
C4 C5 1_555 1_555
C5 C6 1_555 1_555
C6 S1 1_555 1_555
C7 S2 1_555 1_555
C8 C5 1_555 1_555
C9 C4 1_555 1_555
H5 C9 1_555 1_555
H6 C9 1_555 1_555
H7 C9 1_555 1_555
C10 C8 1_555 1_555
H8 C10 1_555 1_555
H9 C10 1_555 1_555
H10 C10 1_555 1_555
C11 O5 1_555 1_555
C12 C17 1_555 1_555
C13 C11 1_555 1_555
C14 C13 1_555 1_555
C15 C14 1_555 1_555
C16 S3 1_555 1_555
C17 S4 1_555 1_555
C18 C15 1_555 1_555
C19 C14 1_555 1_555
H11 C19 1_555 1_555
H12 C19 1_555 1_555
H13 C19 1_555 1_555
C20 C18 1_555 1_555
H14 C20 1_555 1_555
H15 C20 1_555 1_555
H16 C20 1_555 1_555
O5A C11 1_555 1_555
O6A C12 1_555 1_555
S3A C13 1_555 1_555
S4A C15 1_555 1_555
C14A S3 1_555 1_555
C15A S3 1_555 1_555
C16A C14 1_555 1_555
C18A C16 1_555 1_555
C19A S3 1_555 1_555
H11A C19A 1_555 1_555
H12A C19A 1_555 1_555
H13A C19A 1_555 1_555
C20A S4 1_555 1_555
H14A C20A 1_555 1_555
H15A C20A 1_555 1_555
H16A C20A 1_555 1_555
Gd1A O5A 1_555 1_555
O1A Gd1A 1_555 1_555
O2A C1A 1_555 1_555
O3A C2A 1_555 1_555
O4A C2A 1_555 1_555
O7A Gd1A 1_555 1_555
H1A O7A 1_555 1_555
H2A O7A 1_555 1_555
O8A Gd1A 1_555 1_555
H3A O8A 1_555 1_555
H4A O8A 1_555 1_555
S1A C3A 1_555 1_555
S2A C6A 1_555 1_555
C1A O1A 1_555 1_555
C2A C7A 1_555 1_555
C3A C1A 1_555 1_555
C4A C3A 1_555 1_555
C5A C4A 1_555 1_555
C6A S1A 1_555 1_555
C7A S2A 1_555 1_555
C8A C5A 1_555 1_555
C9A C4A 1_555 1_555
H5A C9A 1_555 1_555
H6A C9A 1_555 1_555
H7A C9A 1_555 1_555
C10A C8A 1_555 1_555
H8A C10A 1_555 1_555
H9A C10A 1_555 1_555
H10A C10A 1_555 1_555
Gd1_2 O6 1_555 1_555
Gd1A_2 O6A 1_555 1_555
Gd1B O3A 1_555 1_555
Gd1C O3 1_555 1_555
Gd1D O2 1_555 1_555
Gd1E O2A 1_555 1_555
O2D Gd1 1_555 1_555
O2E Gd1A 1_555 1_555
O3B Gd1A 1_555 1_555
O3C Gd1 1_555 1_555
O4B Gd1A 1_555 1_555
O4C Gd1 1_555 1_555
O6_2 Gd1 1_555 1_555
O6A_2 Gd1A 1_555 1_555
O4 Gd1C 1_555 1_555
S4 C15A 1_555 1_555
C7 C8 1_555 1_555
C13 C14A 1_555 1_555
C14 S3A 1_555 1_555
C15 C16 1_555 1_555
C15 S3A 1_555 1_555
C16 C14A 1_555 1_555
C16 C16A 1_555 1_555
C17 C18 1_555 1_555
C17 S4A 1_555 1_555
C17 C18A 1_555 1_555
C18 C16A 1_555 1_555
C19 S3A 1_555 1_555
C20 S4A 1_555 1_555
S3A C16A 1_555 1_555
S4A C16A 1_555 1_555
C14A C15A 1_555 1_555
C14A C19A 1_555 1_555
C15A C16A 1_555 1_555
C15A C18A 1_555 1_555
C18A C20A 1_555 1_555
O4A Gd1B 1_555 1_555
C5A C6A 1_555 1_555
C7A C8A 1_555 1_555

#END
