
#######################################################################
#
#                 Cambridge Crystallographic Data Centre
#                                CCDC 
#
#######################################################################
#
# If this CIF has been generated from an entry in the Cambridge 
# Structural Database, then it will include bibliographic, chemical, 
# crystal, experimental, refinement or atomic coordinate data resulting 
# from the CCDC's data processing and validation procedures.
#
#######################################################################

data_JUTCIM
_chemical_formula_moiety         '(C14 H6 Cu1 N4 O13)n'
_symmetry_cell_setting           rhombohedral
_symmetry_space_group_name_H-M   'R -3'
_symmetry_Int_Tables_number      148
_space_group_name_Hall           '-R 3'
loop_
_symmetry_equiv_pos_site_id
_symmetry_equiv_pos_as_xyz
1 x,y,z
2 -y,x-y,z
3 -x+y,-x,z
4 2/3+x,1/3+y,1/3+z
5 2/3-y,1/3+x-y,1/3+z
6 2/3-x+y,1/3-x,1/3+z
7 1/3+x,2/3+y,2/3+z
8 1/3-y,2/3+x-y,2/3+z
9 1/3-x+y,2/3-x,2/3+z
10 -x,-y,-z
11 y,-x+y,-z
12 x-y,x,-z
13 1/3-x,2/3-y,2/3-z
14 1/3+y,2/3-x+y,2/3-z
15 1/3+x-y,2/3+x,2/3-z
16 2/3-x,1/3-y,1/3-z
17 2/3+y,1/3-x+y,1/3-z
18 2/3+x-y,1/3+x,1/3-z
_cell_length_a                   45.646(7)
_cell_length_b                   45.646(7)
_cell_length_c                   10.915(2)
_cell_angle_alpha                90
_cell_angle_beta                 90
_cell_angle_gamma                120
_cell_volume                     19695.2
loop_
_atom_site_label
_atom_site_type_symbol
_atom_site_fract_x
_atom_site_fract_y
_atom_site_fract_z
Cu1 Cu 0.154622(7) 0.309266(8) 0.41905(3)
O1 O 0.11423(5) 0.28898(5) 0.3160(2)
C1 C 0.11196(7) 0.30266(8) 0.2190(3)
C2 C 0.07860(7) 0.28483(8) 0.1531(3)
C3 C -0.01661(6) 0.23549(7) -0.0316(3)
C4 C 0.04364(6) 0.28160(7) -0.0133(3)
C5 C 0.01668(6) 0.25182(7) 0.0315(3)
C6 C 0.07458(7) 0.29801(7) 0.0455(3)
H1 H 0.0924 0.3177 0.0127
C7 C 0.05271(9) 0.25486(10) 0.1994(4)
H2 H 0.0559 0.2452 0.2695
C8 C 0.02178(8) 0.23945(8) 0.1389(3)
O2 O 0.06725(12) 0.30686(14) -0.1907(4)
O3 O 0.01519(11) 0.29171(12) -0.1648(4)
N1 N 0.04221(12) 0.29511(14) -0.1270(5)
O4 O 0.13487(5) 0.32952(6) 0.1708(2)
C9 C -0.07459(7) 0.22344(7) -0.0449(3)
H3 H -0.0924 0.2251 -0.0116
C10 C -0.07843(7) 0.20638(8) -0.1543(3)
C11 C -0.04365(6) 0.23782(7) 0.0130(3)
C12 C -0.05261(9) 0.20242(12) -0.1991(4)
H4 H -0.0558 0.1895 -0.2690
C13 C -0.02178(8) 0.21780(11) -0.1395(3)
O5 O 0.13448(9) 0.26914(8) 0.5472(3)
C14 C -0.11191(7) 0.19075(7) -0.2192(3)
O6 O -0.11419(5) 0.17484(6) -0.3166(2)
O7 O -0.13482(5) 0.19479(6) -0.1710(2)
N2 N 0.00118(12) 0.20772(16) -0.1813(5)
O8 O 0.02770(12) 0.21595(17) -0.1273(7)
O9 O -0.0035(2) 0.1947(4) -0.2825(9)
N3 N -0.04208(12) 0.25301(14) 0.1269(4)
O10 O -0.06741(12) 0.23937(15) 0.1916(4)
N4 N -0.00112(12) 0.20665(14) 0.1829(5)
O11 O -0.01516(10) 0.27658(12) 0.1649(4)
O12 O -0.02759(12) 0.18817(13) 0.1264(6)
O13 O 0.00345(19) 0.1977(3) 0.2810(8)
Cu1E Cu -0.178689(11) 0.178711(7) -0.24762(3)
Cu1K Cu -0.154644(11) 0.154622(7) -0.41905(3)
Cu1L Cu 0.178711(7) 0.357401(8) 0.24762(3)
O4L O 0.19846(5) 0.33715(6) 0.4959(2)
O6J O 0.17484(6) 0.28903(8) 0.3166(2)
O7G O 0.13854(6) 0.33706(8) 0.4957(2)
loop_
_geom_bond_atom_site_label_1
_geom_bond_atom_site_label_2
_geom_bond_site_symmetry_1
_geom_bond_site_symmetry_2
Cu1 O1 1_555 1_555
O1 C1 1_555 1_555
C1 C2 1_555 1_555
C2 C6 1_555 1_555
C3 C5 1_555 1_555
C4 C5 1_555 1_555
C5 C8 1_555 1_555
C6 C4 1_555 1_555
H1 C6 1_555 1_555
C7 C2 1_555 1_555
H2 C7 1_555 1_555
C8 C7 1_555 1_555
O2 N1 1_555 1_555
O3 N1 1_555 1_555
N1 C4 1_555 1_555
O4 C1 1_555 1_555
C9 H3 1_555 1_555
C10 C9 1_555 1_555
C11 C3 1_555 1_555
C12 C10 1_555 1_555
H4 C12 1_555 1_555
C13 C3 1_555 1_555
O5 Cu1 1_555 1_555
C14 C10 1_555 1_555
O6 C14 1_555 1_555
O7 C14 1_555 1_555
N2 C13 1_555 1_555
O8 N2 1_555 1_555
O9 N2 1_555 1_555
N3 C11 1_555 1_555
O10 N3 1_555 1_555
N4 C8 1_555 1_555
O11 N3 1_555 1_555
O12 N4 1_555 1_555
O13 N4 1_555 1_555
Cu1E O7 1_555 1_555
Cu1K O6 1_555 1_555
Cu1L O4 1_555 1_555
O4L Cu1 1_555 1_555
O6J Cu1 1_555 1_555
O7G Cu1 1_555 1_555
C9 C11 1_555 1_555
C12 C13 1_555 1_555

#END
