
#######################################################################
#
#                 Cambridge Crystallographic Data Centre
#                                CCDC 
#
#######################################################################
#
# If this CIF has been generated from an entry in the Cambridge 
# Structural Database, then it will include bibliographic, chemical, 
# crystal, experimental, refinement or atomic coordinate data resulting 
# from the CCDC's data processing and validation procedures.
#
#######################################################################

data_JUTCOS
_chemical_formula_moiety         'C84 H44 Cu26 N14 O76'
_symmetry_cell_setting           orthorhombic
_symmetry_space_group_name_H-M   'P n n a'
_symmetry_Int_Tables_number      52
_space_group_name_Hall           '-P 2a 2bc'
loop_
_symmetry_equiv_pos_site_id
_symmetry_equiv_pos_as_xyz
1 x,y,z
2 1/2-x,-y,z
3 1/2-x,1/2+y,1/2-z
4 x,1/2-y,1/2-z
5 -x,-y,-z
6 1/2+x,y,-z
7 1/2+x,1/2-y,1/2+z
8 -x,1/2+y,1/2+z
_cell_length_a                   32.4700(10)
_cell_length_b                   22.1150(10)
_cell_length_c                   20.2730(10)
_cell_angle_alpha                90
_cell_angle_beta                 90
_cell_angle_gamma                90
_cell_volume                     14557.5
loop_
_atom_site_label
_atom_site_type_symbol
_atom_site_fract_x
_atom_site_fract_y
_atom_site_fract_z
Cu1 Cu 0.962418(17) 0.85432(3) 0.72297(3)
Cu2 Cu 0.961123(17) 0.92377(3) 0.58648(3)
Cu3 Cu 1.016240(16) 0.81573(3) 0.61089(3)
Cu4 Cu 1.02288(2) 0.7500 0.7500
Cu5 Cu 0.966810(16) 0.98549(3) 0.44975(3)
C1 C 0.76425(18) 0.8827(3) 0.4603(3)
C2 C 0.78910(18) 0.9087(3) 0.4092(3)
C3 C 0.7812(2) 0.8748(4) 0.5208(4)
C4 C 0.82932(17) 0.9240(3) 0.4210(3)
H1 H 0.8452 0.9401 0.3872
C5 C 0.84654(15) 0.9158(3) 0.4830(3)
C6 C 0.88991(14) 0.9342(2) 0.4967(2)
C7 C 0.82258(18) 0.8905(3) 0.5321(3)
H2 H 0.8341 0.8836 0.5734
C8 C 0.7010(2) 0.8195(4) 0.4318(4)
C9 C 0.71891(17) 0.8726(3) 0.4476(3)
C10 C 0.6936(2) 0.9222(3) 0.4542(4)
H3 H 0.7051 0.9591 0.4661
C11 C 0.65141(19) 0.9189(3) 0.4435(4)
H4 H 0.6352 0.9534 0.4468
C12 C 0.63351(16) 0.8635(3) 0.4278(3)
C13 C 0.65840(19) 0.8138(3) 0.4224(4)
H5 H 0.6471 0.7763 0.4125
C14 C 0.58807(16) 0.8589(3) 0.4170(3)
C15 C 0.87957(16) 0.8728(3) 0.7610(3)
C16 C 0.84091(17) 0.9128(3) 0.7547(3)
C17 C 0.8089(2) 0.9040(4) 0.7984(4)
H6 H 0.8105 0.8751 0.8316
C18 C 0.7737(2) 0.9404(4) 0.7908(4)
H7 H 0.7521 0.9359 0.8205
C19 C 0.77013(19) 0.9811(4) 0.7428(4)
C20 C 0.80203(19) 0.9884(4) 0.7015(4)
C21 C 0.83835(18) 0.9550(3) 0.7069(3)
H8 H 0.8602 0.9617 0.6782
C22 C 0.99073(14) 0.8327(2) 0.4803(2)
C23 C 0.98434(16) 0.8090(2) 0.4110(2)
C24 C 0.95068(18) 0.8288(3) 0.3732(2)
H9 H 0.9328 0.8580 0.3896
C25 C 0.94470(18) 0.8041(3) 0.3114(3)
C26 C 0.97190(19) 0.7627(3) 0.2837(2)
C27 C 1.00518(19) 0.7450(3) 0.3226(3)
H10 H 1.0243 0.7177 0.3057
C28 C 1.01035(19) 0.7671(3) 0.3855(3)
H11 H 1.0321 0.7531 0.4111
C29 C 0.99560(15) 0.8341(2) 0.8545(2)
C30 C 1.00104(17) 0.8572(2) 0.9236(2)
C31 C 0.9726(2) 0.8966(3) 0.9492(3)
H12 H 0.9500 0.9081 0.9240
C32 C 0.9775(2) 0.9196(3) 1.0128(3)
H13 H 0.9582 0.9469 1.0291
C33 C 1.01027(19) 0.9028(3) 1.0522(3)
C34 C 1.03843(18) 0.8630(3) 1.0236(3)
C35 C 1.03446(17) 0.8404(2) 0.9610(2)
H14 H 1.0541 0.8140 0.9441
C36 C 1.01047(19) 0.9275(3) 1.1205(3)
C37 C 0.9755(2) 0.9140(3) 1.1604(3)
H15 H 0.9554 0.8882 1.1439
C38 C 0.97052(19) 0.9379(3) 1.2223(3)
H16 H 0.9472 0.9280 1.2466
C39 C 0.99878(17) 0.9756(2) 1.2487(2)
C40 C 0.99362(15) 1.0019(2) 1.3162(2)
C41 C 1.03383(17) 0.9894(2) 1.2116(2)
H17 H 1.0539 1.0148 1.2290
C42 C 1.03880(18) 0.9660(3) 1.1504(3)
O1 O 0.90923(9) 0.95898(15) 0.45085(16)
O2 O 0.90268(10) 0.92258(16) 0.55421(17)
O3 O 0.7881(4) 0.9543(6) 0.3045(7)
O4 O 0.7508(4) 0.8769(5) 0.3183(6)
O5 O 0.7616(3) 0.7695(5) 0.4041(6)
O6 O 0.7064(4) 0.7108(6) 0.4385(7)
O7 O 0.57512(10) 0.80829(16) 0.39861(17)
O8 O 0.56579(12) 0.90373(19) 0.42651(19)
O9 O 0.90943(10) 0.89116(16) 0.72638(16)
O10 O 0.87923(13) 0.8304(2) 0.7992(2)
O11 O 0.8272(2) 1.0382(3) 0.6079(4)
O12 O 0.7825(3) 1.0851(4) 0.6592(4)
O13 O 1.00751(10) 0.79652(15) 0.51966(16)
O14 O 0.97946(10) 0.88505(15) 0.49344(15)
O15 O 0.90496(15) 0.8154(2) 0.2174(2)
O16 O 0.88188(18) 0.8506(3) 0.3061(3)
O17 O 1.01429(10) 0.78665(15) 0.83951(15)
O18 O 0.97273(10) 0.86470(16) 0.81685(16)
O19 O 1.10450(18) 0.8228(3) 1.0281(3)
O20 O 1.07618(14) 0.8472(2) 1.1202(2)
O21 O 1.07968(15) 0.9775(2) 1.0545(2)
O22 O 1.10574(19) 1.0008(3) 1.1461(3)
O23 O 1.01482(10) 1.04752(15) 1.32947(15)
O24 O 0.96902(10) 0.97506(15) 1.35439(16)
O25 O 0.97331(9) 0.99926(14) 0.54415(14)
H18 H 0.9566 1.0329 0.5607
O26 O 0.95951(9) 0.84411(14) 0.62631(14)
H19 H 0.9377 0.8173 0.6103
O27 O 1.01859(9) 0.82652(14) 0.70669(14)
H20 H 1.0396 0.8556 0.7208
O28 O 0.93754(14) 0.7500 0.7500
H21 H 0.9215 0.7430 0.7177
O29 O 1.0913(2) 0.7500 0.7500
H22 H 1.1000 0.7353 0.7139
O30 O 0.7713(7) 0.8561(11) 0.6417(11)
O31 O 0.7347(6) 0.7987(10) 0.5656(11)
N1 N 0.7752(4) 0.9140(7) 0.3396(6)
N2 N 0.7656(5) 0.8336(8) 0.5824(8)
N3 N 0.7247(2) 0.7609(4) 0.4257(5)
N4 N 0.8002(3) 1.0316(5) 0.6467(5)
N5 N 0.9086(2) 0.8236(3) 0.2757(3)
N6 N 1.07609(17) 0.8423(2) 1.0598(2)
N7 N 1.07741(19) 0.9823(3) 1.1155(3)
C15A C 0.62043(16) 1.1272(3) 0.7610(3)
C16A C 0.65909(17) 1.0872(3) 0.7547(3)
C17A C 0.6911(2) 1.0960(4) 0.7984(4)
H6A H 0.6895 1.1249 0.8316
C18A C 0.7263(2) 1.0596(4) 0.7908(4)
H7A H 0.7479 1.0641 0.8205
C19A C 0.72987(19) 1.0189(4) 0.7428(4)
C20A C 0.69797(19) 1.0116(4) 0.7015(4)
C21A C 0.66165(18) 1.0450(3) 0.7069(3)
H8A H 0.6398 1.0383 0.6782
O9A O 0.59057(10) 1.10884(16) 0.72638(16)
O10A O 0.62077(13) 1.1696(2) 0.7992(2)
O11A O 0.6728(2) 0.9618(3) 0.6079(4)
O12A O 0.7175(3) 0.9149(4) 0.6592(4)
N4A N 0.6998(3) 0.9684(5) 0.6467(5)
C22C C 0.99073(14) 0.6673(2) 0.0197(2)
C23C C 0.98434(16) 0.6910(2) 0.0890(2)
C24C C 0.95068(18) 0.6712(3) 0.1268(2)
H9C H 0.9328 0.6420 0.1104
C25C C 0.94470(18) 0.6959(3) 0.1886(3)
C26C C 0.97190(19) 0.7373(3) 0.2163(2)
C27C C 1.00518(19) 0.7550(3) 0.1774(3)
H10C H 1.0243 0.7823 0.1943
C28C C 1.01035(19) 0.7329(3) 0.1145(3)
H11C H 1.0321 0.7469 0.0889
O13C O 1.00751(10) 0.70348(15) -0.01966(16)
O14C O 0.97946(10) 0.61495(15) 0.00656(15)
O15C O 0.90496(15) 0.6846(2) 0.2826(2)
O16C O 0.88188(18) 0.6494(3) 0.1939(3)
N5C N 0.9086(2) 0.6764(3) 0.2243(3)
H21C H 0.9215 0.7570 0.7823
H22C H 1.1000 0.7647 0.7861
Cu1A Cu 0.537582(17) 1.14568(3) 0.72297(3)
Cu2A Cu 0.538877(17) 1.07623(3) 0.58648(3)
Cu3A Cu 0.483760(16) 1.18427(3) 0.61089(3)
Cu5A Cu 0.533190(16) 1.01451(3) 0.44975(3)
C1A C 0.73575(18) 1.1173(3) 0.4603(3)
C2A C 0.71090(18) 1.0913(3) 0.4092(3)
C3A C 0.7188(2) 1.1252(4) 0.5208(4)
C4A C 0.67068(17) 1.0760(3) 0.4210(3)
H1A H 0.6548 1.0599 0.3872
C5A C 0.65346(15) 1.0842(3) 0.4830(3)
C6A C 0.61009(14) 1.0658(2) 0.4967(2)
C7A C 0.67742(18) 1.1095(3) 0.5321(3)
H2A H 0.6659 1.1164 0.5734
C8A C 0.7990(2) 1.1805(4) 0.4318(4)
C9A C 0.78109(17) 1.1274(3) 0.4476(3)
C10A C 0.8064(2) 1.0778(3) 0.4542(4)
H3A H 0.7949 1.0409 0.4661
C11A C 0.84859(19) 1.0811(3) 0.4435(4)
H4A H 0.8648 1.0466 0.4468
C12A C 0.86649(16) 1.1365(3) 0.4278(3)
C13A C 0.84160(19) 1.1862(3) 0.4224(4)
H5A H 0.8529 1.2237 0.4125
C14A C 0.91193(16) 1.1411(3) 0.4170(3)
C29A C 0.50440(15) 1.1659(2) 0.8545(2)
C30A C 0.49896(17) 1.1428(2) 0.9236(2)
C31A C 0.5274(2) 1.1034(3) 0.9492(3)
H12A H 0.5500 1.0919 0.9240
C32A C 0.5225(2) 1.0804(3) 1.0128(3)
H13A H 0.5418 1.0531 1.0291
C33A C 0.48973(19) 1.0972(3) 1.0522(3)
C34A C 0.46157(18) 1.1370(3) 1.0236(3)
C35A C 0.46554(17) 1.1596(2) 0.9610(2)
H14A H 0.4459 1.1860 0.9441
C36A C 0.48953(19) 1.0725(3) 1.1205(3)
C37A C 0.5245(2) 1.0860(3) 1.1604(3)
H15A H 0.5446 1.1118 1.1439
C38A C 0.52948(19) 1.0621(3) 1.2223(3)
H16A H 0.5528 1.0720 1.2466
C39A C 0.50122(17) 1.0244(2) 1.2487(2)
C40A C 0.50638(15) 0.9981(2) 1.3162(2)
C41A C 0.46617(17) 1.0106(2) 1.2116(2)
H17A H 0.4461 0.9852 1.2290
C42A C 0.46120(18) 1.0340(3) 1.1504(3)
O1A O 0.59077(9) 1.04102(15) 0.45085(16)
O2A O 0.59732(10) 1.07742(16) 0.55421(17)
O3A O 0.7119(4) 1.0457(6) 0.3045(7)
O4A O 0.7492(4) 1.1231(5) 0.3183(6)
O5A O 0.7384(3) 1.2305(5) 0.4041(6)
O6A O 0.7936(4) 1.2892(6) 0.4385(7)
O7A O 0.92488(10) 1.19171(16) 0.39861(17)
O8A O 0.93421(12) 1.09627(19) 0.42651(19)
O17A O 0.48571(10) 1.21335(15) 0.83951(15)
O18A O 0.52727(10) 1.13530(16) 0.81685(16)
O19A O 0.39550(18) 1.1772(3) 1.0281(3)
O20A O 0.42382(14) 1.1528(2) 1.1202(2)
O21A O 0.42032(15) 1.0225(2) 1.0545(2)
O22A O 0.39426(19) 0.9992(3) 1.1461(3)
O23A O 0.48518(10) 0.95248(15) 1.32947(15)
O24A O 0.53098(10) 1.02494(15) 1.35439(16)
O25A O 0.52669(9) 1.00074(14) 0.54415(14)
H18A H 0.5434 0.9671 0.5607
O26A O 0.54049(9) 1.15589(14) 0.62631(14)
H19A H 0.5623 1.1827 0.6103
O27A O 0.48141(9) 1.17348(14) 0.70669(14)
H20A H 0.4604 1.1444 0.7208
O30A O 0.7287(7) 1.1439(11) 0.6417(11)
O31A O 0.7653(6) 1.2013(10) 0.5656(11)
N1A N 0.7248(4) 1.0860(7) 0.3396(6)
N2A N 0.7344(5) 1.1664(8) 0.5824(8)
N3A N 0.7753(2) 1.2391(4) 0.4257(5)
N6A N 0.42391(17) 1.1577(2) 1.0598(2)
N7A N 0.42259(19) 1.0177(3) 1.1155(3)
Cu1C Cu 0.962418(17) 0.64568(3) 0.77703(3)
Cu1D Cu 1.037582(17) 1.14568(3) 1.27703(3)
Cu1E Cu 0.462418(17) 0.85432(3) 1.27703(3)
Cu2C Cu 0.961123(17) 0.57623(3) -0.08648(3)
Cu2D Cu 1.038877(17) 1.07623(3) 1.41352(3)
Cu2E Cu 0.461123(17) 0.92377(3) 1.41352(3)
Cu3B Cu 0.483760(16) 1.31573(3) 0.88911(3)
Cu3C Cu 1.016240(16) 0.68427(3) -0.11089(3)
Cu3C_2 Cu 1.016240(16) 0.68427(3) 0.88911(3)
Cu3D Cu 0.983760(16) 1.18427(3) 0.38911(3)
Cu3E Cu 0.516240(16) 0.81573(3) 0.38911(3)
Cu4A Cu 0.47712(2) 1.2500 0.7500
Cu5_2 Cu 0.966810(16) 0.98549(3) 1.44975(3)
Cu5A_2 Cu 0.533190(16) 1.01451(3) 1.44975(3)
Cu5C Cu 0.966810(16) 0.51451(3) 0.05025(3)
Cu5D Cu 1.033190(16) 1.01451(3) 0.55025(3)
Cu5E Cu 0.466810(16) 0.98549(3) 0.55025(3)
O7D O 0.42488(10) 1.19171(16) 0.60139(17)
O7E O 1.07512(10) 0.80829(16) 0.60139(17)
O8D O 0.43421(12) 1.09627(19) 0.57349(19)
O8E O 1.06579(12) 0.90373(19) 0.57349(19)
O13A O 0.49249(10) 1.20348(15) 0.51966(16)
O14A O 0.52054(10) 1.11495(15) 0.49344(15)
O17B O 0.48571(10) 1.28665(15) 0.66049(15)
O17C O 1.01429(10) 0.71335(15) 0.66049(15)
O23D O 0.98518(10) 0.95248(15) 0.67053(15)
O23E O 0.51482(10) 1.04752(15) 0.67053(15)
O24_2 O 0.96902(10) 0.97506(15) 0.35439(16)
O24A_2 O 0.53098(10) 1.02494(15) 0.35439(16)
O25D O 1.02669(9) 1.00074(14) 0.45585(14)
O25E O 0.47331(9) 0.99926(14) 0.45585(14)
O27C O 1.01859(9) 0.67348(14) 0.79331(14)
O28A O 0.56246(14) 1.2500 0.7500
loop_
_geom_bond_atom_site_label_1
_geom_bond_atom_site_label_2
_geom_bond_site_symmetry_1
_geom_bond_site_symmetry_2
Cu1 O9 1_555 1_555
Cu2 O2 1_555 1_555
Cu3 O13 1_555 1_555
Cu4 O17 1_555 1_555
Cu5 O1 1_555 1_555
C1 C2 1_555 1_555
C2 C4 1_555 1_555
C3 C1 1_555 1_555
C4 H1 1_555 1_555
C5 C4 1_555 1_555
C6 C5 1_555 1_555
C7 C3 1_555 1_555
H2 C7 1_555 1_555
C8 C9 1_555 1_555
C9 C1 1_555 1_555
C10 C9 1_555 1_555
H3 C10 1_555 1_555
C11 C10 1_555 1_555
H4 C11 1_555 1_555
C12 C11 1_555 1_555
C13 C8 1_555 1_555
H5 C13 1_555 1_555
C14 C12 1_555 1_555
C15 C16 1_555 1_555
C16 C17 1_555 1_555
C17 H6 1_555 1_555
C18 C17 1_555 1_555
H7 C18 1_555 1_555
C19 C18 1_555 1_555
C20 C19 1_555 1_555
C21 C16 1_555 1_555
H8 C21 1_555 1_555
C22 C23 1_555 1_555
C23 C24 1_555 1_555
C24 H9 1_555 1_555
C25 C24 1_555 1_555
C26 C25 1_555 1_555
C27 C26 1_555 1_555
H10 C27 1_555 1_555
C28 C23 1_555 1_555
H11 C28 1_555 1_555
C29 C30 1_555 1_555
C30 C31 1_555 1_555
C31 H12 1_555 1_555
C32 C31 1_555 1_555
H13 C32 1_555 1_555
C33 C32 1_555 1_555
C34 C33 1_555 1_555
C35 C30 1_555 1_555
H14 C35 1_555 1_555
C36 C33 1_555 1_555
C37 C36 1_555 1_555
H15 C37 1_555 1_555
C38 C37 1_555 1_555
H16 C38 1_555 1_555
C39 C38 1_555 1_555
C40 C39 1_555 1_555
C41 C39 1_555 1_555
H17 C41 1_555 1_555
C42 C36 1_555 1_555
O1 C6 1_555 1_555
O2 C6 1_555 1_555
O3 N1 1_555 1_555
O4 N1 1_555 1_555
O5 N3 1_555 1_555
O6 N3 1_555 1_555
O7 C14 1_555 1_555
O8 C14 1_555 1_555
O9 C15 1_555 1_555
O10 C15 1_555 1_555
O11 N4 1_555 1_555
O12 N4 1_555 1_555
O13 C22 1_555 1_555
O14 Cu2 1_555 1_555
O15 N5 1_555 1_555
O16 N5 1_555 1_555
O17 C29 1_555 1_555
O18 Cu1 1_555 1_555
O19 N6 1_555 1_555
O20 N6 1_555 1_555
O21 N7 1_555 1_555
O22 N7 1_555 1_555
O23 C40 1_555 1_555
O24 C40 1_555 1_555
O25 Cu2 1_555 1_555
H18 O25 1_555 1_555
O26 Cu1 1_555 1_555
H19 O26 1_555 1_555
O27 Cu1 1_555 1_555
H20 O27 1_555 1_555
O28 Cu1 1_555 1_555
H21 O28 1_555 1_555
O29 Cu4 1_555 1_555
H22 O29 1_555 1_555
O30 N2 1_555 1_555
O31 N2 1_555 1_555
N1 C2 1_555 1_555
N2 C3 1_555 1_555
N3 C8 1_555 1_555
N4 C20 1_555 1_555
N5 C25 1_555 1_555
N6 C34 1_555 1_555
N7 C42 1_555 1_555
C15A C16A 1_555 1_555
C16A C17A 1_555 1_555
C17A H6A 1_555 1_555
C18A C17A 1_555 1_555
H7A C18A 1_555 1_555
C19A C19 1_555 1_555
C20A C19A 1_555 1_555
C21A C16A 1_555 1_555
H8A C21A 1_555 1_555
O9A C15A 1_555 1_555
O10A C15A 1_555 1_555
O11A N4A 1_555 1_555
O12A N4A 1_555 1_555
N4A C20A 1_555 1_555
C22C C23C 1_555 1_555
C23C C24C 1_555 1_555
C24C H9C 1_555 1_555
C25C C24C 1_555 1_555
C26C C26 1_555 1_555
C27C C26C 1_555 1_555
H10C C27C 1_555 1_555
C28C C23C 1_555 1_555
H11C C28C 1_555 1_555
O13C C22C 1_555 1_555
O14C C22C 1_555 1_555
O15C N5C 1_555 1_555
O16C N5C 1_555 1_555
N5C C25C 1_555 1_555
H21C O28 1_555 1_555
H22C O29 1_555 1_555
Cu1A O9A 1_555 1_555
Cu2A O2A 1_555 1_555
Cu3A O26A 1_555 1_555
Cu5A O8 1_555 1_555
C1A C2A 1_555 1_555
C2A C4A 1_555 1_555
C3A C1A 1_555 1_555
C4A H1A 1_555 1_555
C5A C4A 1_555 1_555
C6A C5A 1_555 1_555
C7A C3A 1_555 1_555
H2A C7A 1_555 1_555
C8A C9A 1_555 1_555
C9A C1A 1_555 1_555
C10A C9A 1_555 1_555
H3A C10A 1_555 1_555
C11A C10A 1_555 1_555
H4A C11A 1_555 1_555
C12A C11A 1_555 1_555
C13A C8A 1_555 1_555
H5A C13A 1_555 1_555
C14A C12A 1_555 1_555
C29A C30A 1_555 1_555
C30A C31A 1_555 1_555
C31A H12A 1_555 1_555
C32A C31A 1_555 1_555
H13A C32A 1_555 1_555
C33A C32A 1_555 1_555
C34A C33A 1_555 1_555
C35A C30A 1_555 1_555
H14A C35A 1_555 1_555
C36A C33A 1_555 1_555
C37A C36A 1_555 1_555
H15A C37A 1_555 1_555
C38A C37A 1_555 1_555
H16A C38A 1_555 1_555
C39A C38A 1_555 1_555
C40A C39A 1_555 1_555
C41A C39A 1_555 1_555
H17A C41A 1_555 1_555
C42A C36A 1_555 1_555
O1A Cu5A 1_555 1_555
O2A C6A 1_555 1_555
O3A N1A 1_555 1_555
O4A N1A 1_555 1_555
O5A N3A 1_555 1_555
O6A N3A 1_555 1_555
O7A C14A 1_555 1_555
O8A Cu5 1_555 1_555
O17A C29A 1_555 1_555
O18A Cu1A 1_555 1_555
O19A N6A 1_555 1_555
O20A N6A 1_555 1_555
O21A N7A 1_555 1_555
O22A N7A 1_555 1_555
O23A C40A 1_555 1_555
O24A C40A 1_555 1_555
O25A Cu2A 1_555 1_555
H18A O25A 1_555 1_555
O26A Cu1A 1_555 1_555
H19A O26A 1_555 1_555
O27A Cu1A 1_555 1_555
H20A O27A 1_555 1_555
O30A N2A 1_555 1_555
O31A N2A 1_555 1_555
N1A C2A 1_555 1_555
N2A C3A 1_555 1_555
N3A C8A 1_555 1_555
N6A C34A 1_555 1_555
N7A C42A 1_555 1_555
Cu1C O28 1_555 1_555
Cu1D O23 1_555 1_555
Cu1E O23A 1_555 1_555
Cu2C O14C 1_555 1_555
Cu2D O23 1_555 1_555
Cu2E O23A 1_555 1_555
Cu3B O17A 1_555 1_555
Cu3C O13C 1_555 1_555
Cu3C_2 O17 1_555 1_555
Cu3D O7A 1_555 1_555
Cu3E O7 1_555 1_555
Cu4A O17A 1_555 1_555
Cu5_2 O24 1_555 1_555
Cu5A_2 O24A 1_555 1_555
Cu5C O14C 1_555 1_555
Cu5D O25 1_555 1_555
Cu5E O25A 1_555 1_555
O7D Cu3A 1_555 1_555
O7E Cu3 1_555 1_555
O8D Cu3A 1_555 1_555
O8E Cu3 1_555 1_555
O13A Cu3A 1_555 1_555
O14A Cu2A 1_555 1_555
O17B Cu3A 1_555 1_555
O17C Cu3 1_555 1_555
O23D Cu1 1_555 1_555
O23E Cu1A 1_555 1_555
O24_2 Cu5 1_555 1_555
O24A_2 Cu5A 1_555 1_555
O25D Cu5 1_555 1_555
O25E Cu5A 1_555 1_555
O27C Cu4 1_555 1_555
O28A Cu1A 1_555 1_555
Cu2 O26 1_555 1_555
Cu2 O23D 1_555 1_555
Cu3 O26 1_555 1_555
Cu3 O27 1_555 1_555
Cu4 O27 1_555 1_555
Cu4 O28 1_555 1_555
Cu4 O17C 1_555 1_555
Cu5 O14 1_555 1_555
Cu5 O25 1_555 1_555
C5 C7 1_555 1_555
C12 C13 1_555 1_555
C20 C21 1_555 1_555
C22 O14 1_555 1_555
C27 C28 1_555 1_555
C29 O18 1_555 1_555
C34 C35 1_555 1_555
C41 C42 1_555 1_555
O8 Cu3E 1_555 1_555
C18A C19A 1_555 1_555
C20A C21A 1_555 1_555
C25C C26C 1_555 1_555
C27C C28C 1_555 1_555
Cu2A O26A 1_555 1_555
Cu2A O23E 1_555 1_555
Cu3A O27A 1_555 1_555
Cu5A O25A 1_555 1_555
Cu5A O14A 1_555 1_555
C5A C7A 1_555 1_555
C6A O1A 1_555 1_555
C12A C13A 1_555 1_555
C14A O8A 1_555 1_555
C29A O18A 1_555 1_555
C34A C35A 1_555 1_555
C41A C42A 1_555 1_555
O8A Cu3D 1_555 1_555
O27A Cu4A 1_555 1_555
Cu1C O27C 1_555 1_555
Cu3C_2 O27C 1_555 1_555
Cu4A O17B 1_555 1_555
Cu4A O28A 1_555 1_555
Cu5D O8E 1_555 1_555
Cu5D O25D 1_555 1_555
Cu5E O8D 1_555 1_555
Cu5E O25E 1_555 1_555

#END
