
#######################################################################
#
#                 Cambridge Crystallographic Data Centre
#                                CCDC 
#
#######################################################################
#
# If this CIF has been generated from an entry in the Cambridge 
# Structural Database, then it will include bibliographic, chemical, 
# crystal, experimental, refinement or atomic coordinate data resulting 
# from the CCDC's data processing and validation procedures.
#
#######################################################################

data_SETWUL
_chemical_formula_moiety         '(C24 H36 Co2 Mo8 N18 O32)n'
_symmetry_cell_setting           triclinic
_symmetry_space_group_name_H-M   'P -1'
_symmetry_Int_Tables_number      2
_space_group_name_Hall           '-P 1'
loop_
_symmetry_equiv_pos_site_id
_symmetry_equiv_pos_as_xyz
1 x,y,z
2 -x,-y,-z
_cell_length_a                   10.5490(7)
_cell_length_b                   10.8420(7)
_cell_length_c                   13.8000(9)
_cell_angle_alpha                87.135(6)
_cell_angle_beta                 72.428(6)
_cell_angle_gamma                66.412(7)
_cell_volume                     1374.43
loop_
_atom_site_label
_atom_site_type_symbol
_atom_site_fract_x
_atom_site_fract_y
_atom_site_fract_z
Co1 Co 0.49638(9) 0.68178(8) -0.15793(6)
Mo1 Mo 0.02505(5) 0.50140(5) -0.13399(3)
Mo2 Mo 0.32442(6) 0.20912(5) -0.13127(4)
Mo3 Mo 0.01004(6) 0.22915(5) 0.01750(4)
Mo4 Mo 0.28144(5) 0.48368(5) -0.01517(4)
C1 C 0.5934(8) 1.4149(7) -0.2947(5)
H1 H 0.5014 1.4136 -0.2742
C2 C 0.7675(11) 1.4712(10) -0.3167(8)
C3 C 0.7124(7) 1.2172(6) -0.4270(5)
H2 H 0.6820 1.2548 -0.4855
H3 H 0.6453 1.1792 -0.3881
C4 C 0.8625(6) 1.1068(5) -0.4634(4)
C5 C 0.9095(6) 0.9998(6) -0.4022(4)
C6 C 1.0443(6) 0.8946(5) -0.4395(4)
C7 C 1.0920(7) 0.7775(6) -0.3746(5)
H4 H 1.0068 0.7712 -0.3262
H5 H 1.1459 0.6939 -0.4181
C8 C 1.2552(9) 0.8930(7) -0.2340(6)
H6 H 1.2657 0.9597 -0.2014
C9 C 1.2889(7) 0.7010(6) -0.2886(5)
H7 H 1.3230 0.6085 -0.3037
C10 C 0.8106(7) 1.0016(6) -0.2958(4)
H8 H 0.8677 0.9735 -0.2490
H9 H 0.7387 1.0930 -0.2733
C11 C 0.6779(7) 0.8552(6) -0.2135(4)
H10 H 0.6826 0.8614 -0.1478
C12 C 0.6329(9) 0.8104(8) -0.3415(5)
H11 H 0.5965 0.7757 -0.3818
N1 N 0.6128(6) 0.7900(5) -0.2423(4)
N2 N 0.7368(6) 0.9121(5) -0.2935(4)
N3 N 0.7078(7) 0.8832(7) -0.3768(4)
N4 N 1.3381(6) 0.7571(5) -0.2343(4)
N5 N 1.1836(6) 0.7949(5) -0.3191(4)
N6 N 1.1609(8) 0.9199(5) -0.2836(5)
N7 N 0.6227(7) 1.5051(5) -0.2581(4)
N8 N 0.7050(6) 1.3260(6) -0.3631(4)
N9 N 0.8201(10) 1.3681(9) -0.3869(7)
O1 O -0.1033(5) 0.1584(4) 0.0090(3)
O2 O -0.1291(4) 0.3969(4) 0.1077(3)
O3 O 0.0902(5) 0.1449(4) 0.1043(3)
O4 O -0.0556(5) 0.5963(4) -0.2164(3)
O5 O -0.1236(4) 0.6156(4) 0.0051(3)
O6 O 0.4367(5) 0.1257(4) -0.2455(4)
O7 O 0.3775(4) 0.3598(4) -0.1301(3)
O8 O 0.3548(4) 0.3907(4) 0.0738(3)
O9 O 0.3697(4) 0.5883(4) -0.0536(3)
O10 O 0.0936(4) 0.6020(4) 0.0822(3)
O11 O 0.1772(5) 0.3687(4) -0.2095(3)
O12 O 0.1645(5) 0.1591(4) -0.1060(3)
O13 O 0.4023(5) 0.1207(4) -0.0438(4)
O14 O 0.3776(5) 0.8460(4) -0.0450(3)
C1A C 1.4066(8) 0.5851(7) -0.7053(5)
H1A H 1.4986 0.5864 -0.7258
C2A C 1.2325(11) 0.5288(10) -0.6833(8)
C3A C 1.2876(7) 0.7828(6) -0.5730(5)
H2A H 1.3180 0.7452 -0.5145
H3A H 1.3547 0.8208 -0.6119
C4A C 1.1375(6) 0.8932(5) -0.5366(4)
C5A C 1.0905(6) 1.0002(6) -0.5978(4)
C6A C 0.9557(6) 1.1054(5) -0.5605(4)
C7A C 0.9080(7) 1.2225(6) -0.6254(5)
H4A H 0.9932 1.2288 -0.6738
H5A H 0.8541 1.3061 -0.5819
C8A C 0.7448(9) 1.1070(7) -0.7660(6)
H6A H 0.7343 1.0403 -0.7986
C9A C 0.7111(7) 1.2990(6) -0.7114(5)
H7A H 0.6770 1.3915 -0.6963
C10A C 1.1894(7) 0.9984(6) -0.7042(4)
H8A H 1.1323 1.0265 -0.7510
H9A H 1.2613 0.9070 -0.7267
C11A C 1.3221(7) 1.1448(6) -0.7865(4)
H10A H 1.3174 1.1386 -0.8522
C12A C 1.3671(9) 1.1896(8) -0.6585(5)
H11A H 1.4035 1.2243 -0.6182
N1A N 1.3872(6) 1.2100(5) -0.7577(4)
N2A N 1.2632(6) 1.0879(5) -0.7065(4)
N3A N 1.2922(7) 1.1168(7) -0.6232(4)
N4A N 0.6619(6) 1.2429(5) -0.7657(4)
N5A N 0.8164(6) 1.2051(5) -0.6809(4)
N6A N 0.8391(8) 1.0801(5) -0.7164(5)
N7A N 1.3773(7) 0.4949(5) -0.7419(4)
N8A N 1.2950(6) 0.6740(6) -0.6369(4)
N9A N 1.1799(10) 0.6319(9) -0.6131(7)
Co1A Co -0.49638(9) 0.31822(8) 0.15793(6)
Mo1A Mo -0.02505(5) 0.49860(5) 0.13399(3)
Mo2A Mo -0.32442(6) 0.79088(5) 0.13127(4)
Mo3A Mo -0.01004(6) 0.77085(5) -0.01750(4)
Mo4A Mo -0.28144(5) 0.51632(5) 0.01517(4)
O1A O 0.1033(5) 0.8416(4) -0.0090(3)
O2A O 0.1291(4) 0.6031(4) -0.1077(3)
O3A O -0.0902(5) 0.8551(4) -0.1043(3)
O4A O 0.0556(5) 0.4037(4) 0.2164(3)
O5A O 0.1236(4) 0.3844(4) -0.0051(3)
O6A O -0.4367(5) 0.8743(4) 0.2455(4)
O7A O -0.3775(4) 0.6402(4) 0.1301(3)
O8A O -0.3548(4) 0.6093(4) -0.0738(3)
O9A O -0.3697(4) 0.4117(4) 0.0536(3)
O10A O -0.0936(4) 0.3980(4) -0.0822(3)
O11A O -0.1772(5) 0.6313(4) 0.2095(3)
O12A O -0.1645(5) 0.8409(4) 0.1060(3)
O13A O -0.4023(5) 0.8793(4) 0.0438(4)
O14A O -0.3776(5) 0.1540(4) 0.0450(3)
Co1_2 Co -0.50362(9) 0.68178(8) -0.15793(6)
Co1_3 Co 0.49638(9) 1.68178(8) -0.15793(6)
Co1_4 Co 1.49638(9) 0.68178(8) -0.15793(6)
Co1A_2 Co 0.50362(9) 0.31822(8) 0.15793(6)
Co1A_3 Co 0.50362(9) 1.31822(8) -0.84207(6)
Co1A_4 Co 1.50362(9) 0.31822(8) -0.84207(6)
Co1A_5 Co 1.50362(9) 1.31822(8) -0.84207(6)
N1A_2 N -0.6128(6) 0.2100(5) 0.2423(4)
N4_2 N 0.3381(6) 0.7571(5) -0.2343(4)
N4A_2 N -0.3381(6) 0.2429(5) 0.2343(4)
N7_2 N 0.6227(7) 0.5051(5) -0.2581(4)
N7A_2 N -0.6227(7) 0.4949(5) 0.2581(4)
O8_2 O -0.6452(4) 0.3907(4) 0.0738(3)
O8A_2 O 0.6452(4) 0.6093(4) -0.0738(3)
O15 O 0.433(2) 0.157(2) -0.4508(14)
O16 O 0.149(2) 0.1970(19) -0.3949(12)
O18 O 0.394(2) 0.451(2) -0.4646(15)
O20 O 0.097(3) 0.441(3) -0.4468(17)
loop_
_geom_bond_atom_site_label_1
_geom_bond_atom_site_label_2
_geom_bond_site_symmetry_1
_geom_bond_site_symmetry_2
Co1 N1 1_555 1_555
Mo1 O4 1_555 1_555
Mo2 O6 1_555 1_555
Mo3 O1 1_555 1_555
Mo4 O7 1_555 1_555
C1 H1 1_555 1_555
C2 N7 1_555 1_555
C3 H2 1_555 1_555
H3 C3 1_555 1_555
C4 C3 1_555 1_555
C5 C4 1_555 1_555
C6 C5 1_555 1_555
C7 C6 1_555 1_555
H4 C7 1_555 1_555
H5 C7 1_555 1_555
C8 H6 1_555 1_555
C9 H7 1_555 1_555
C10 C5 1_555 1_555
H8 C10 1_555 1_555
H9 C10 1_555 1_555
C11 H10 1_555 1_555
C12 H11 1_555 1_555
N1 C11 1_555 1_555
N2 C10 1_555 1_555
N3 C12 1_555 1_555
N4 C8 1_555 1_555
N5 C7 1_555 1_555
N6 C8 1_555 1_555
N7 C1 1_555 1_555
N8 C1 1_555 1_555
N9 C2 1_555 1_555
O2 Mo3 1_555 1_555
O3 Mo3 1_555 1_555
O5 Mo1 1_555 1_555
O7 Mo2 1_555 1_555
O8 Mo4 1_555 1_555
O9 Co1 1_555 1_555
O10 Mo4 1_555 1_555
O11 Mo1 1_555 1_555
O12 Mo2 1_555 1_555
O13 Mo2 1_555 1_555
O14 Co1 1_555 1_555
C1A H1A 1_555 1_555
C2A N7A 1_555 1_555
C3A H2A 1_555 1_555
H3A C3A 1_555 1_555
C4A C6 1_555 1_555
C5A C4A 1_555 1_555
C6A C4 1_555 1_555
C7A C6A 1_555 1_555
H4A C7A 1_555 1_555
H5A C7A 1_555 1_555
C8A H6A 1_555 1_555
C9A H7A 1_555 1_555
C10A C5A 1_555 1_555
H8A C10A 1_555 1_555
H9A C10A 1_555 1_555
C11A H10A 1_555 1_555
C12A H11A 1_555 1_555
N1A C11A 1_555 1_555
N2A C10A 1_555 1_555
N3A C12A 1_555 1_555
N4A C8A 1_555 1_555
N5A C7A 1_555 1_555
N6A C8A 1_555 1_555
N7A C1A 1_555 1_555
N8A C1A 1_555 1_555
N9A C2A 1_555 1_555
Co1A O9A 1_555 1_555
Mo1A O2 1_555 1_555
Mo2A O5 1_555 1_555
Mo3A O5 1_555 1_555
Mo4A O2 1_555 1_555
O1A Mo3A 1_555 1_555
O2A Mo1 1_555 1_555
O3A Mo3A 1_555 1_555
O4A Mo1A 1_555 1_555
O5A Mo1 1_555 1_555
O6A Mo2A 1_555 1_555
O7A Mo2A 1_555 1_555
O8A Mo4A 1_555 1_555
O9A Mo4A 1_555 1_555
O10A Mo1 1_555 1_555
O11A Mo1A 1_555 1_555
O12A Mo2A 1_555 1_555
O13A Mo2A 1_555 1_555
O14A Co1A 1_555 1_555
Co1_2 O8A 1_555 1_555
Co1_3 N7 1_555 1_555
Co1_4 N4 1_555 1_555
Co1A_2 O8 1_555 1_555
Co1A_3 N4A 1_555 1_555
Co1A_4 N7A 1_555 1_555
Co1A_5 N1A 1_555 1_555
N1A_2 Co1A 1_555 1_555
N4_2 Co1 1_555 1_555
N4A_2 Co1A 1_555 1_555
N7_2 Co1 1_555 1_555
N7A_2 Co1A 1_555 1_555
O8_2 Co1A 1_555 1_555
O8A_2 Co1 1_555 1_555
Mo2 O11 1_555 1_555
Mo2 O5A 1_555 1_555
Mo3 O12 1_555 1_555
Mo3 O5A 1_555 1_555
Mo3 O10A 1_555 1_555
Mo4 O9 1_555 1_555
Mo4 O2A 1_555 1_555
Mo4 O5A 1_555 1_555
C3 N8 1_555 1_555
C9 N4 1_555 1_555
C9 N5 1_555 1_555
C11 N2 1_555 1_555
C12 N1 1_555 1_555
N2 N3 1_555 1_555
N5 N6 1_555 1_555
N8 N9 1_555 1_555
O5 Mo1A 1_555 1_555
O5 Mo4A 1_555 1_555
O10 Mo1A 1_555 1_555
O10 Mo3A 1_555 1_555
C3A C4A 1_555 1_555
C3A N8A 1_555 1_555
C5A C6A 1_555 1_555
C9A N4A 1_555 1_555
C9A N5A 1_555 1_555
C11A N2A 1_555 1_555
C12A N1A 1_555 1_555
N2A N3A 1_555 1_555
N5A N6A 1_555 1_555
N8A N9A 1_555 1_555
Mo1A O5A 1_555 1_555
Mo2A O11A 1_555 1_555
Mo3A O2A 1_555 1_555
Mo3A O12A 1_555 1_555
Mo4A O7A 1_555 1_555
Mo4A O10A 1_555 1_555

#END
