
#######################################################################
#
#                 Cambridge Crystallographic Data Centre
#                                CCDC 
#
#######################################################################
#
# If this CIF has been generated from an entry in the Cambridge 
# Structural Database, then it will include bibliographic, chemical, 
# crystal, experimental, refinement or atomic coordinate data resulting 
# from the CCDC's data processing and validation procedures.
#
#######################################################################

data_SETXAS
_chemical_formula_moiety         '(C24 H38 Mo8 N18 O33 Zn2)n'
_symmetry_cell_setting           triclinic
_symmetry_space_group_name_H-M   'P -1'
_symmetry_Int_Tables_number      2
_space_group_name_Hall           '-P 1'
loop_
_symmetry_equiv_pos_site_id
_symmetry_equiv_pos_as_xyz
1 x,y,z
2 -x,-y,-z
_cell_length_a                   10.5750(5)
_cell_length_b                   10.8940(5)
_cell_length_c                   13.8700(7)
_cell_angle_alpha                87.233(4)
_cell_angle_beta                 72.403(4)
_cell_angle_gamma                66.408(4)
_cell_volume                     1390.96
loop_
_atom_site_label
_atom_site_type_symbol
_atom_site_fract_x
_atom_site_fract_y
_atom_site_fract_z
Zn1 Zn -1.00224(7) 0.18223(6) 0.33584(5)
Mo1 Mo -0.78084(5) 0.01550(4) 0.51356(4)
Mo2 Mo -0.47275(5) -0.00117(4) 0.36644(4)
Mo3 Mo -0.17573(5) -0.29117(5) 0.37352(4)
Mo4 Mo -0.49051(5) -0.26909(5) 0.52015(4)
C1 C -1.4543(5) 0.3944(5) 0.0598(4)
C2 C -1.3630(5) 0.3940(5) -0.0364(4)
C3 C -1.4087(5) 0.4989(5) -0.0974(4)
C4 C -1.4077(6) 0.2788(5) 0.1245(4)
H1 H -1.4931 0.2728 0.1723
H2 H -1.3536 0.1954 0.0813
C5 C -1.2108(6) 0.2026(6) 0.2090(4)
H3 H -1.1743 0.1108 0.1917
C6 C -1.2498(7) 0.3915(6) 0.2684(5)
H4 H -1.2413 0.4576 0.3028
C7 C -1.2108(6) 0.2839(6) -0.0740(5)
H5 H -1.1450 0.3223 -0.1137
H6 H -1.1790 0.2472 -0.0162
C8 C -1.0913(7) 0.0879(6) -0.2070(5)
H7 H -1.0006 0.0911 -0.2298
C9 C -1.2657(8) 0.0299(8) -0.1815(6)
C10 C -1.3118(6) 0.4982(5) -0.2033(4)
H8 H -1.2395 0.4075 -0.2265
H9 H -1.3695 0.5263 -0.2493
C11 C -1.1814(6) 0.6467(6) -0.2838(5)
H10 H -1.1876 0.6424 -0.3490
C12 C -1.1330(7) 0.6870(7) -0.1566(5)
H11 H -1.0971 0.7210 -0.1157
N1 N -1.1645(5) 0.2589(4) 0.2652(4)
N2 N -1.3170(5) 0.2957(4) 0.1808(4)
N3 N -1.3448(6) 0.4192(5) 0.2195(4)
N4 N -1.1228(5) -0.0027(5) -0.2404(4)
N5 N -1.2041(5) 0.1746(5) -0.1368(4)
N6 N -1.318(2) 0.157(2) -0.1374(15)
N7 N -1.1147(5) 0.7108(5) -0.2541(4)
N8 N -1.2384(5) 0.5892(5) -0.2052(4)
N9 N -1.2054(6) 0.6122(6) -0.1228(4)
O1 O -0.8517(4) 0.1060(4) 0.4240(3)
O2 O -0.8776(4) 0.1414(4) 0.6269(3)
O3 O -0.8696(4) -0.0882(4) 0.5522(3)
O4 O -0.6300(4) -0.1016(4) 0.6080(3)
O5 O -0.5926(4) -0.1036(3) 0.4179(3)
O6 O -0.5514(4) 0.0913(4) 0.2833(3)
O7 O -0.3209(4) -0.1352(4) 0.2927(3)
O8 O -0.3770(4) -0.1157(3) 0.4961(3)
O9 O -0.0613(4) -0.3763(4) 0.2607(4)
O10 O -0.0994(4) -0.3761(4) 0.4620(4)
O11 O -0.3349(4) -0.3418(4) 0.3988(3)
O12 O -0.4133(4) -0.3511(4) 0.6077(3)
O13 O -0.6033(3) -0.3401(3) 0.5120(2)
O14 O -1.1188(3) 0.3441(3) 0.4517(2)
H12 H -1.0812 0.3815 0.4798
H13 H -1.1899 0.3375 0.4967
C1A C -1.5457(5) 0.6056(5) -0.0598(4)
C2A C -1.6370(5) 0.6060(5) 0.0364(4)
C3A C -1.5913(5) 0.5011(5) 0.0974(4)
C4A C -1.5923(6) 0.7212(5) -0.1245(4)
H1A H -1.5069 0.7272 -0.1723
H2A H -1.6464 0.8046 -0.0813
C5A C -1.7892(6) 0.7974(6) -0.2090(4)
H3A H -1.8257 0.8892 -0.1917
C6A C -1.7502(7) 0.6085(6) -0.2684(5)
H4A H -1.7587 0.5424 -0.3028
C7A C -1.7892(6) 0.7161(6) 0.0740(5)
H5A H -1.8550 0.6777 0.1137
H6A H -1.8210 0.7528 0.0162
C8A C -1.9087(7) 0.9121(6) 0.2070(5)
H7A H -1.9994 0.9089 0.2298
C9A C -1.7343(8) 0.9701(8) 0.1815(6)
C10A C -1.6882(6) 0.5018(5) 0.2033(4)
H8A H -1.7605 0.5925 0.2265
H9A H -1.6305 0.4737 0.2493
C11A C -1.8186(6) 0.3533(6) 0.2838(5)
H10A H -1.8124 0.3576 0.3490
C12A C -1.8670(7) 0.3130(7) 0.1566(5)
H11A H -1.9029 0.2790 0.1157
N1A N -1.8355(5) 0.7411(4) -0.2652(4)
N2A N -1.6830(5) 0.7043(4) -0.1808(4)
N3A N -1.6552(6) 0.5808(5) -0.2195(4)
N4A N -1.8772(5) 1.0027(5) 0.2404(4)
N5A N -1.7959(5) 0.8254(5) 0.1368(4)
N6A N -1.682(2) 0.843(2) 0.1374(15)
N7A N -1.8853(5) 0.2892(5) 0.2541(4)
N8A N -1.7616(5) 0.4108(5) 0.2052(4)
N9A N -1.7946(6) 0.3878(6) 0.1228(4)
Zn1A Zn -1.99776(7) 0.81777(6) -0.33584(5)
Mo1A Mo -2.21916(5) 0.98450(4) -0.51356(4)
Mo2A Mo -2.52725(5) 1.00117(4) -0.36644(4)
Mo3A Mo -2.82427(5) 1.29117(5) -0.37352(4)
Mo4A Mo -2.50949(5) 1.26909(5) -0.52015(4)
O1A O -2.1483(4) 0.8940(4) -0.4240(3)
O2A O -2.1224(4) 0.8586(4) -0.6269(3)
O3A O -2.1304(4) 1.0882(4) -0.5522(3)
O4A O -2.3700(4) 1.1016(4) -0.6080(3)
O5A O -2.4074(4) 1.1036(3) -0.4179(3)
O6A O -2.4486(4) 0.9087(4) -0.2833(3)
O7A O -2.6791(4) 1.1352(4) -0.2927(3)
O8A O -2.6230(4) 1.1157(3) -0.4961(3)
O9A O -2.9387(4) 1.3763(4) -0.2607(4)
O10A O -2.9006(4) 1.3761(4) -0.4620(4)
O11A O -2.6651(4) 1.3418(4) -0.3988(3)
O12A O -2.5867(4) 1.3511(4) -0.6077(3)
O13A O -2.3967(3) 1.3401(3) -0.5120(2)
O14A O -1.8812(3) 0.6559(3) -0.4517(2)
H12A H -1.9188 0.6185 -0.4798
H13A H -1.8101 0.6625 -0.4967
Zn1_2 Zn -2.00224(7) 0.18223(6) 0.33584(5)
Zn1_3 Zn -2.00224(7) 1.18223(6) -0.66416(5)
Zn1_4 Zn -2.00224(7) 1.18223(6) 0.33584(5)
Zn1A_2 Zn -0.99776(7) -0.18223(6) -0.33584(5)
Zn1A_3 Zn -0.99776(7) -0.18223(6) 0.66416(5)
Zn1A_4 Zn -0.99776(7) 0.81777(6) -0.33584(5)
Mo1_2 Mo -2.78084(5) 1.01550(4) -0.48644(4)
Mo1A_2 Mo -0.21916(5) -0.01550(4) 0.48644(4)
Mo2_2 Mo -2.47275(5) 0.99883(4) -0.63356(4)
Mo2A_2 Mo -0.52725(5) 0.00117(4) 0.63356(4)
Mo3_2 Mo -2.17573(5) 0.70883(5) -0.62648(4)
Mo3A_2 Mo -0.82427(5) 0.29117(5) 0.62648(4)
N4_2 N -2.1228(5) 0.9973(5) -0.2404(4)
N4A_2 N -0.8772(5) 0.0027(5) 0.2404(4)
N7_2 N -2.1147(5) 0.7108(5) -0.2541(4)
N7A_2 N -0.8853(5) 0.2892(5) 0.2541(4)
O2_2 O -2.8776(4) 1.1414(4) -0.3731(3)
O2A_2 O -0.1224(4) -0.1414(4) 0.3731(3)
O3_2 O -1.8696(4) 0.9118(4) -0.4478(3)
O3A_2 O -1.1304(4) 0.0882(4) 0.4478(3)
O4_2 O -2.6300(4) 0.8984(4) -0.3920(3)
O4A_2 O -0.3700(4) 0.1016(4) 0.3920(3)
O8_2 O -2.3770(4) 0.8843(3) -0.5039(3)
O8A_2 O -0.6230(4) 0.1157(3) 0.5039(3)
O16 O -1.1021(13) -0.0512(12) 0.0290(9)
O17 O -1.3555(15) 0.6961(14) 0.1096(11)
O18 O -1.0730(16) 0.6483(16) 0.0576(12)
O19 O -1.586(2) 0.6990(18) 0.2767(14)
O20 O -1.4010(17) 0.9393(17) 0.0538(13)
loop_
_geom_bond_atom_site_label_1
_geom_bond_atom_site_label_2
_geom_bond_site_symmetry_1
_geom_bond_site_symmetry_2
Zn1 N1 1_555 1_555
Mo1 O1 1_555 1_555
Mo2 O5 1_555 1_555
Mo3 O7 1_555 1_555
Mo4 O4 1_555 1_555
C1 C2 1_555 1_555
C2 C3 1_555 1_555
C3 C10 1_555 1_555
C4 C1 1_555 1_555
H1 C4 1_555 1_555
H2 C4 1_555 1_555
C5 H3 1_555 1_555
C6 H4 1_555 1_555
C7 C2 1_555 1_555
H5 C7 1_555 1_555
H6 C7 1_555 1_555
C8 H7 1_555 1_555
C9 N4 1_555 1_555
C10 H8 1_555 1_555
H9 C10 1_555 1_555
C11 H10 1_555 1_555
C12 H11 1_555 1_555
N1 C5 1_555 1_555
N2 C4 1_555 1_555
N3 C6 1_555 1_555
N4 C8 1_555 1_555
N5 C7 1_555 1_555
N6 C9 1_555 1_555
N7 C11 1_555 1_555
N8 C10 1_555 1_555
N9 C12 1_555 1_555
O1 Zn1 1_555 1_555
O2 Mo1 1_555 1_555
O3 Mo1 1_555 1_555
O4 Mo1 1_555 1_555
O5 Mo1 1_555 1_555
O6 Mo2 1_555 1_555
O7 Mo2 1_555 1_555
O8 Mo2 1_555 1_555
O9 Mo3 1_555 1_555
O10 Mo3 1_555 1_555
O11 Mo3 1_555 1_555
O12 Mo4 1_555 1_555
O13 Mo4 1_555 1_555
O14 Zn1 1_555 1_555
H12 O14 1_555 1_555
H13 O14 1_555 1_555
C1A C3 1_555 1_555
C2A C1A 1_555 1_555
C3A C1 1_555 1_555
C4A C1A 1_555 1_555
H1A C4A 1_555 1_555
H2A C4A 1_555 1_555
C5A H3A 1_555 1_555
C6A H4A 1_555 1_555
C7A C2A 1_555 1_555
H5A C7A 1_555 1_555
H6A C7A 1_555 1_555
C8A H7A 1_555 1_555
C9A N4A 1_555 1_555
C10A C3A 1_555 1_555
H8A C10A 1_555 1_555
H9A C10A 1_555 1_555
C11A H10A 1_555 1_555
C12A H11A 1_555 1_555
N1A C5A 1_555 1_555
N2A C4A 1_555 1_555
N3A C6A 1_555 1_555
N4A C8A 1_555 1_555
N5A C7A 1_555 1_555
N6A C9A 1_555 1_555
N7A C11A 1_555 1_555
N8A C10A 1_555 1_555
N9A C12A 1_555 1_555
Zn1A N1A 1_555 1_555
Mo1A O1A 1_555 1_555
Mo2A O5A 1_555 1_555
Mo3A O7A 1_555 1_555
Mo4A O4A 1_555 1_555
O1A Zn1A 1_555 1_555
O2A Mo1A 1_555 1_555
O3A Mo1A 1_555 1_555
O4A Mo1A 1_555 1_555
O5A Mo1A 1_555 1_555
O6A Mo2A 1_555 1_555
O7A Mo2A 1_555 1_555
O8A Mo2A 1_555 1_555
O9A Mo3A 1_555 1_555
O10A Mo3A 1_555 1_555
O11A Mo3A 1_555 1_555
O12A Mo4A 1_555 1_555
O13A Mo4A 1_555 1_555
O14A Zn1A 1_555 1_555
H12A O14A 1_555 1_555
H13A O14A 1_555 1_555
Zn1_2 N7A 1_555 1_555
Zn1_3 O3A 1_555 1_555
Zn1_4 N4A 1_555 1_555
Zn1A_2 N4 1_555 1_555
Zn1A_3 O3 1_555 1_555
Zn1A_4 N7 1_555 1_555
Mo1_2 O8A 1_555 1_555
Mo1A_2 O8 1_555 1_555
Mo2_2 O4A 1_555 1_555
Mo2A_2 O4 1_555 1_555
Mo3_2 O2A 1_555 1_555
Mo3A_2 O2 1_555 1_555
N4_2 Zn1A 1_555 1_555
N4A_2 Zn1 1_555 1_555
N7_2 Zn1A 1_555 1_555
N7A_2 Zn1 1_555 1_555
O2_2 Mo3A 1_555 1_555
O2A_2 Mo3 1_555 1_555
O3_2 Zn1A 1_555 1_555
O3A_2 Zn1 1_555 1_555
O4_2 Mo2A 1_555 1_555
O4A_2 Mo2 1_555 1_555
O8_2 Mo1A 1_555 1_555
O8A_2 Mo1 1_555 1_555
Mo2 O8A_2 1_555 1_555
Mo3 O8 1_555 1_555
Mo4 O5 1_555 1_555
Mo4 O8 1_555 1_555
Mo4 O11 1_555 1_555
C5 N2 1_555 1_555
C6 N1 1_555 1_555
C8 N5 1_555 1_555
C11 N8 1_555 1_555
C12 N7 1_555 1_555
N2 N3 1_555 1_555
N5 N6 1_555 1_555
N8 N9 1_555 1_555
O8 Mo2A_2 1_555 1_555
C2A C3A 1_555 1_555
C5A N2A 1_555 1_555
C6A N1A 1_555 1_555
C8A N5A 1_555 1_555
C11A N8A 1_555 1_555
C12A N7A 1_555 1_555
N2A N3A 1_555 1_555
N5A N6A 1_555 1_555
N8A N9A 1_555 1_555
Mo2A O8_2 1_555 1_555
Mo3A O8A 1_555 1_555
Mo4A O5A 1_555 1_555
Mo4A O8A 1_555 1_555
Mo4A O11A 1_555 1_555
O8A Mo2_2 1_555 1_555
Mo1_2 O2_2 1_555 1_555
Mo1_2 O4_2 1_555 1_555
Mo1A_2 O2A_2 1_555 1_555
Mo1A_2 O4A_2 1_555 1_555
Mo2_2 O8_2 1_555 1_555
Mo2A_2 O8A_2 1_555 1_555
Mo3_2 O8_2 1_555 1_555
Mo3A_2 O8A_2 1_555 1_555

#END
