
#######################################################################
#
#                 Cambridge Crystallographic Data Centre
#                                CCDC 
#
#######################################################################
#
# If this CIF has been generated from an entry in the Cambridge 
# Structural Database, then it will include bibliographic, chemical, 
# crystal, experimental, refinement or atomic coordinate data resulting 
# from the CCDC's data processing and validation procedures.
#
#######################################################################

data_HIJMEU
_chemical_formula_moiety         '(C4 H20 Mn3 Mo4 N4 O28 P4 2-)n'
_symmetry_cell_setting           tetragonal
_symmetry_space_group_name_H-M   'I 41/a'
_symmetry_Int_Tables_number      88
_space_group_name_Hall           '-I 4ad'
loop_
_symmetry_equiv_pos_site_id
_symmetry_equiv_pos_as_xyz
1 x,y,z
2 3/4-y,1/4+x,1/4+z
3 1/2-x,-y,1/2+z
4 3/4+y,3/4-x,3/4+z
5 1/2+x,1/2+y,1/2+z
6 1/4-y,3/4+x,3/4+z
7 -x,1/2-y,z
8 1/4+y,1/4-x,1/4+z
9 -x,-y,-z
10 1/4+y,3/4-x,3/4-z
11 1/2+x,y,1/2-z
12 1/4-y,1/4+x,1/4-z
13 1/2-x,1/2-y,1/2-z
14 3/4+y,1/4-x,1/4-z
15 x,1/2+y,-z
16 3/4-y,3/4+x,3/4-z
_cell_length_a                   17.2470(19)
_cell_length_b                   17.2470(19)
_cell_length_c                   10.8317(11)
_cell_angle_alpha                90
_cell_angle_beta                 90
_cell_angle_gamma                90
_cell_volume                     3221.99
loop_
_atom_site_label
_atom_site_type_symbol
_atom_site_fract_x
_atom_site_fract_y
_atom_site_fract_z
Mn1 Mn 0.5000 0.2500 -0.1250
Mn2 Mn 0.7500 0.2500 0.2500
Mo1 Mo 0.80836(13) 0.41175(13) 0.0586(2)
P1 P 0.6341(4) 0.3355(4) 0.0535(7)
O1 O 0.7031(10) 0.3695(10) -0.0216(15)
O2 O 0.6583(10) 0.2596(10) 0.1159(16)
O3 O 0.5661(11) 0.3260(11) -0.0339(16)
O4 O 0.6082(10) 0.3965(10) 0.1502(16)
O5 O 0.7504(10) 0.4646(10) 0.1697(15)
O6 O 0.8974(10) 0.4575(10) 0.0852(16)
O7 O 0.8209(10) 0.3246(10) 0.1405(16)
Mn2F Mn 0.2500 0.2500 0.2500
Mo1F Mo 0.19164(13) 0.08825(13) 0.0586(2)
P1F P 0.3659(4) 0.1645(4) 0.0535(7)
O1F O 0.2969(10) 0.1305(10) -0.0216(15)
O2F O 0.3417(10) 0.2404(10) 0.1159(16)
O3F O 0.4339(11) 0.1740(11) -0.0339(16)
O4F O 0.3918(10) 0.1035(10) 0.1502(16)
O5F O 0.2496(10) 0.0354(10) 0.1697(15)
O6F O 0.1026(10) 0.0425(10) 0.0852(16)
O7F O 0.1791(10) 0.1754(10) 0.1405(16)
Mo1I Mo 0.66175(13) -0.05836(13) -0.3086(2)
P1I P 0.5855(4) 0.1159(4) -0.3035(7)
O1I O 0.6195(10) 0.0469(10) -0.2284(15)
O2I O 0.5096(10) 0.0917(10) -0.3659(16)
O3I O 0.5760(11) 0.1839(11) -0.2161(16)
O4I O 0.6465(10) 0.1418(10) -0.4002(16)
O5I O 0.7146(10) -0.0004(10) -0.4197(15)
O6I O 0.7075(10) -0.1474(10) -0.3352(16)
O7I O 0.5746(10) -0.0709(10) -0.3905(16)
Mo1O Mo 0.33825(13) 0.55836(13) -0.3086(2)
P1O P 0.4145(4) 0.3841(4) -0.3035(7)
O1O O 0.3805(10) 0.4531(10) -0.2284(15)
O2O O 0.4904(10) 0.4083(10) -0.3659(16)
O3O O 0.4240(11) 0.3161(11) -0.2161(16)
O4O O 0.3535(10) 0.3582(10) -0.4002(16)
O5O O 0.2854(10) 0.5004(10) -0.4197(15)
O6O O 0.2925(10) 0.6474(10) -0.3352(16)
O7O O 0.4254(10) 0.5709(10) -0.3905(16)
Mn2A Mn 0.5000 0.0000 -0.5000
Mn2B Mn 0.7500 -0.2500 -0.2500
Mn2C Mn 0.0000 0.0000 0.0000
Mn2D Mn 0.2500 0.7500 -0.2500
Mn2E Mn 1.0000 0.5000 0.0000
Mn2G Mn 0.5000 0.5000 -0.5000
Mo1A Mo 0.33825(13) 0.05836(13) 0.3086(2)
Mo1G Mo 0.66175(13) 0.44164(13) 0.3086(2)
Mo1J Mo 0.30836(13) 0.41175(13) -0.5586(2)
Mo1L Mo 0.69164(13) 0.08825(13) -0.5586(2)
O2J O 0.1583(10) 0.2596(10) 0.3841(16)
O2L O 0.8417(10) 0.2404(10) 0.3841(16)
O4C O 0.1465(10) 0.1418(10) -0.0998(16)
O4E O 0.8535(10) 0.3582(10) -0.0998(16)
O4H O 0.3918(10) 0.6035(10) -0.1502(16)
O4N O 0.6082(10) -0.1035(10) -0.1502(16)
O5C O 0.2146(10) -0.0004(10) -0.0803(15)
O5E O 0.7854(10) 0.5004(10) -0.0803(15)
O5H O 0.2496(10) 0.5354(10) -0.1697(15)
O5N O 0.7504(10) -0.0354(10) -0.1697(15)
O6A O 0.2925(10) 0.1474(10) 0.3352(16)
O6G O 0.7075(10) 0.3526(10) 0.3352(16)
O6K O 0.7925(10) 0.1474(10) 0.1648(16)
O6M O 0.2075(10) 0.3526(10) 0.1648(16)
O7J O 0.3209(10) 0.3246(10) 0.3595(16)
O7L O 0.6791(10) 0.1754(10) 0.3595(16)
C1 C 0.936(3) 0.496(3) 0.389(5)
H1 H 0.9702 0.5043 0.3183
H2 H 0.8961 0.5350 0.3936
C2 C 0.908(3) 0.413(2) 0.402(5)
H3 H 0.8911 0.3956 0.3213
H4 H 0.9511 0.3815 0.4270
N1 N 0.978(4) 0.480(4) 0.508(5)
N2 N 0.844(3) 0.400(3) 0.489(5)
H5 H 0.8462 0.3510 0.5160
H6 H 0.7989 0.4076 0.4511
H7 H 0.8483 0.4321 0.5526
C1H C 1.064(3) 0.504(3) 0.611(5)
H1H H 1.0298 0.4957 0.6817
H2H H 1.1039 0.4650 0.6064
C2H C 1.092(3) 0.587(2) 0.598(5)
H3H H 1.1089 0.6044 0.6787
H4H H 1.0489 0.6185 0.5730
N1H N 1.022(4) 0.520(4) 0.492(5)
N2H N 1.156(3) 0.600(3) 0.511(5)
H5H H 1.1538 0.6490 0.4840
H6H H 1.2011 0.5924 0.5489
H7H H 1.1517 0.5679 0.4474
loop_
_geom_bond_atom_site_label_1
_geom_bond_atom_site_label_2
_geom_bond_site_symmetry_1
_geom_bond_site_symmetry_2
Mn1 O3 1_555 1_555
Mn2 O2 1_555 1_555
Mo1 O1 1_555 1_555
P1 O1 1_555 1_555
O2 P1 1_555 1_555
O3 P1 1_555 1_555
O4 P1 1_555 1_555
O5 Mo1 1_555 1_555
O6 Mo1 1_555 1_555
O7 Mn2 1_555 1_555
C1 H1 1_555 1_555
H2 C1 1_555 1_555
C2 C1 1_555 1_555
H3 C2 1_555 1_555
H4 C2 1_555 1_555
N1 C1 1_555 1_555
N2 C2 1_555 1_555
H5 N2 1_555 1_555
H6 N2 1_555 1_555
H7 N2 1_555 1_555
Mn2F O2F 1_555 1_555
Mo1F O1F 1_555 1_555
P1F O1F 1_555 1_555
O2F P1F 1_555 1_555
O3F Mn1 1_555 1_555
O4F P1F 1_555 1_555
O5F Mo1F 1_555 1_555
O6F Mo1F 1_555 1_555
O7F Mn2F 1_555 1_555
Mo1I O1I 1_555 1_555
P1I O1I 1_555 1_555
O2I P1I 1_555 1_555
O3I Mn1 1_555 1_555
O4I P1I 1_555 1_555
O5I Mo1I 1_555 1_555
O6I Mo1I 1_555 1_555
O7I Mo1I 1_555 1_555
Mo1O O1O 1_555 1_555
P1O O1O 1_555 1_555
O2O P1O 1_555 1_555
O3O Mn1 1_555 1_555
O4O P1O 1_555 1_555
O5O Mo1O 1_555 1_555
O6O Mo1O 1_555 1_555
O7O Mo1O 1_555 1_555
Mn2A O2I 1_555 1_555
Mn2B O6I 1_555 1_555
Mn2C O6F 1_555 1_555
Mn2D O6O 1_555 1_555
Mn2E O6 1_555 1_555
Mn2G O2O 1_555 1_555
Mo1A O4F 1_555 1_555
Mo1G O4 1_555 1_555
Mo1J O4O 1_555 1_555
Mo1L O4I 1_555 1_555
O2J Mn2F 1_555 1_555
O2L Mn2 1_555 1_555
O4C Mo1F 1_555 1_555
O4E Mo1 1_555 1_555
O4H Mo1O 1_555 1_555
O4N Mo1I 1_555 1_555
O5C Mo1F 1_555 1_555
O5E Mo1 1_555 1_555
O5H Mo1O 1_555 1_555
O5N Mo1I 1_555 1_555
O6A Mn2F 1_555 1_555
O6G Mn2 1_555 1_555
O6K Mn2 1_555 1_555
O6M Mn2F 1_555 1_555
O7J Mn2F 1_555 1_555
O7L Mn2 1_555 1_555
C1H H1H 1_555 1_555
H2H C1H 1_555 1_555
C2H C1H 1_555 1_555
H3H C2H 1_555 1_555
H4H C2H 1_555 1_555
N1H C1H 1_555 1_555
N2H C2H 1_555 1_555
H5H N2H 1_555 1_555
H6H N2H 1_555 1_555
H7H N2H 1_555 1_555
Mo1 O7 1_555 1_555
O5 Mo1G 1_555 1_555
Mo1F O7F 1_555 1_555
P1F O3F 1_555 1_555
O5F Mo1A 1_555 1_555
P1I O3I 1_555 1_555
O5I Mo1L 1_555 1_555
O7I Mn2A 1_555 1_555
P1O O3O 1_555 1_555
O5O Mo1J 1_555 1_555
O7O Mn2G 1_555 1_555
Mo1A O6A 1_555 1_555
Mo1G O6G 1_555 1_555

#END
