
#######################################################################
#
#                 Cambridge Crystallographic Data Centre
#                                CCDC 
#
#######################################################################
#
# If this CIF has been generated from an entry in the Cambridge 
# Structural Database, then it will include bibliographic, chemical, 
# crystal, experimental, refinement or atomic coordinate data resulting 
# from the CCDC's data processing and validation procedures.
#
#######################################################################

data_IMAJUD
_chemical_formula_moiety         '(C74 H51 Co3 N7 O13)n'
_symmetry_cell_setting           orthorhombic
_symmetry_space_group_name_H-M   'C m c 21'
_symmetry_Int_Tables_number      36
_space_group_name_Hall           'C 2c -2'
loop_
_symmetry_equiv_pos_site_id
_symmetry_equiv_pos_as_xyz
1 x,y,z
2 -x,-y,1/2+z
3 -x,y,z
4 x,-y,1/2+z
5 1/2+x,1/2+y,z
6 1/2-x,1/2-y,1/2+z
7 1/2-x,1/2+y,z
8 1/2+x,1/2-y,1/2+z
_cell_length_a                   16.8325(4)
_cell_length_b                   23.8971(6)
_cell_length_c                   22.7526(5)
_cell_angle_alpha                90
_cell_angle_beta                 90
_cell_angle_gamma                90
_cell_volume                     9152.19
loop_
_atom_site_label
_atom_site_type_symbol
_atom_site_fract_x
_atom_site_fract_y
_atom_site_fract_z
Co1 Co 0.39850(6) 0.50137(5) 0.31443(7)
Co2 Co 0.5000 0.48509(8) 0.45031(9)
O1 O 0.5000 0.4965(3) 0.3609(3)
O2 O 0.1490(5) 0.9429(4) -0.1275(3)
O3 O 0.0899(4) 0.9531(4) -0.0399(3)
O4 O 0.5893(4) 0.4237(3) 0.4447(4)
O5 O 0.6512(4) 0.4365(4) 0.3601(4)
O6 O 1.0647(4) 0.0530(4) 0.7499(4)
N1 N 0.5000 0.4869(6) 0.5430(6)
N2 N 0.2873(3) 0.5054(3) 0.2650(3)
N3 N 0.0000 0.5119(6) 0.2040(5)
N4 N 0.0697(4) 0.5141(4) 0.1138(3)
N5 N 0.0000 0.5183(7) -0.1032(5)
C1 C 0.5704(11) 0.4558(10) 0.5728(9)
H1 H 0.5701 0.4172 0.5612
H2 H 0.5651 0.4584 0.6148
H3 H 0.6196 0.4728 0.5609
C2 C 0.2849(5) 0.5133(5) 0.2070(4)
H4 H 0.3325 0.5187 0.1872
C3 C 0.2145(5) 0.5138(5) 0.1746(4)
H5 H 0.2154 0.5168 0.1339
C4 C 0.1430(5) 0.5097(5) 0.2048(4)
C5 C 0.1445(5) 0.5052(4) 0.2645(4)
H6 H 0.0977 0.5037 0.2861
C6 C 0.2177(5) 0.5029(4) 0.2921(4)
H7 H 0.2180 0.4994 0.3328
C7 C 0.0673(5) 0.5127(4) 0.1722(4)
C8 C 0.0000 0.5148(6) 0.0853(6)
C9 C 0.0000 0.5174(5) 0.0208(5)
C10 C 0.0707(6) 0.5182(4) -0.0105(5)
H8 H 0.1198 0.5183 0.0083
C11 C 0.0644(7) 0.5189(5) -0.0715(4)
H9 H 0.1121 0.5199 -0.0922
C12 C 0.5000 0.5843(5) 0.2475(6)
C13 C 0.5000 0.6323(5) 0.2027(5)
C14 C 0.5000 0.7257(7) 0.1272(7)
C15 C 0.5000 0.7768(6) 0.0867(8)
C16 C 0.4305(7) 0.7984(5) 0.0677(6)
H10 H 0.3836 0.7838 0.0829
C17 C 0.4252(8) 0.8409(5) 0.0272(6)
C18 C 0.5000 0.8649(6) 0.0069(8)
H11 H 0.5000 0.859(7) -0.035(8)
C19 C 0.3484(8) 0.8636(6) 0.0042(6)
C20 C 0.3481(7) 0.8760(5) -0.0558(6)
H12 H 0.3937 0.8714 -0.0784
C21 C 0.2786(7) 0.8954(6) -0.0807(6)
H13 H 0.2715 0.8962 -0.1213
C22 C 0.2211(9) 0.9131(6) -0.0434(6)
C23 C 0.2256(16) 0.9012(11) 0.0143(11)
H14 H 0.1926 0.9196 0.0408
C24 C 0.2765(11) 0.8638(8) 0.0334(9)
H15 H 0.2650 0.8394 0.0640
C25 C 0.1453(8) 0.9397(5) -0.0732(6)
C26 C 0.6455(6) 0.4167(4) 0.4091(5)
C27 C 0.7124(6) 0.3851(5) 0.4306(5)
C28 C 0.7159(6) 0.3630(6) 0.4875(6)
H16 H 0.6728 0.3658 0.5129
C29 C 0.7891(6) 0.3353(6) 0.5058(6)
H17 H 0.7940 0.3225 0.5442
C30 C 0.8525(5) 0.3278(4) 0.4661(5)
C31 C 0.8490(5) 0.3470(4) 0.4099(5)
H18 H 0.8907 0.3408 0.3839
C32 C 0.7786(7) 0.3775(4) 0.3915(6)
H19 H 0.7763 0.3923 0.3538
C33 C 0.9296(5) 0.3009(5) 0.4856(5)
C34 C 1.0000 0.3203(6) 0.4677(8)
H20 H 1.0000 0.3496 0.4408
C35 C 0.9289(5) 0.2569(5) 0.5269(6)
H21 H 0.8811 0.2442 0.5424
C36 C 1.0000 0.2328(7) 0.5441(8)
C37 C 1.0000 0.1848(7) 0.5862(8)
C38 C 1.0626(13) 0.1805(9) 0.6227(9)
H22 H 1.1045 0.2057 0.6208
C39 C 1.0626(16) 0.1340(10) 0.6662(11)
H23 H 1.1099 0.1252 0.6852
C40 C 1.0000 0.1053(6) 0.6788(8)
C41 C 1.0000 0.0650(5) 0.7298(6)
C42 C 0.4321(11) 0.6663(8) 0.1954(9)
H24 H 0.3881 0.6599 0.2192
C43 C 0.4287(10) 0.7075(8) 0.1553(9)
H25 H 0.3804 0.7241 0.1460
O7 O 0.4354(6) 0.5744(5) 0.2734(6)
O2B O 0.8510(5) 0.9429(4) -0.1275(3)
O3B O 0.9101(4) 0.9531(4) -0.0399(3)
C16B C 0.5695(7) 0.7984(5) 0.0677(6)
H10B H 0.6164 0.7838 0.0829
C17B C 0.5748(8) 0.8409(5) 0.0272(6)
C19B C 0.6516(8) 0.8636(6) 0.0042(6)
C20B C 0.6519(7) 0.8760(5) -0.0558(6)
H12B H 0.6063 0.8714 -0.0784
C21B C 0.7214(7) 0.8954(6) -0.0807(6)
H13B H 0.7285 0.8962 -0.1213
C22B C 0.7789(9) 0.9131(6) -0.0434(6)
C23B C 0.7744(16) 0.9012(11) 0.0143(11)
H14B H 0.8074 0.9196 0.0408
C24B C 0.7235(11) 0.8638(8) 0.0334(9)
H15B H 0.7350 0.8394 0.0640
C25B C 0.8547(8) 0.9397(5) -0.0732(6)
C42B C 0.5679(11) 0.6663(8) 0.1954(9)
H24B H 0.6119 0.6599 0.2192
C43B C 0.5713(10) 0.7075(8) 0.1553(9)
H25B H 0.6196 0.7241 0.1460
O7B O 0.5646(6) 0.5744(5) 0.2734(6)
O4B O 1.4107(4) 0.4237(3) 0.4447(4)
O5B O 1.3488(4) 0.4365(4) 0.3601(4)
O6B O 0.9353(4) 0.0530(4) 0.7499(4)
C26B C 1.3545(6) 0.4167(4) 0.4091(5)
C27B C 1.2876(6) 0.3851(5) 0.4306(5)
C28B C 1.2841(6) 0.3630(6) 0.4875(6)
H16B H 1.3272 0.3658 0.5129
C29B C 1.2109(6) 0.3353(6) 0.5058(6)
H17B H 1.2060 0.3225 0.5442
C30B C 1.1475(5) 0.3278(4) 0.4661(5)
C31B C 1.1510(5) 0.3470(4) 0.4099(5)
H18B H 1.1093 0.3408 0.3839
C32B C 1.2214(7) 0.3775(4) 0.3915(6)
H19B H 1.2237 0.3923 0.3538
C33B C 1.0704(5) 0.3009(5) 0.4856(5)
C35B C 1.0711(5) 0.2569(5) 0.5269(6)
H21B H 1.1189 0.2442 0.5424
C38B C 0.9374(13) 0.1805(9) 0.6227(9)
H22B H 0.8955 0.2057 0.6208
C39B C 0.9374(16) 0.1340(10) 0.6662(11)
H23B H 0.8901 0.1252 0.6852
C1B C 0.4296(11) 0.4558(10) 0.5728(9)
H1B H 0.4299 0.4172 0.5612
H2B H 0.4349 0.4584 0.6148
H3B H 0.3804 0.4728 0.5609
N2B N -0.2873(3) 0.5054(3) 0.2650(3)
N4B N -0.0697(4) 0.5141(4) 0.1138(3)
C2B C -0.2849(5) 0.5133(5) 0.2070(4)
H4B H -0.3325 0.5187 0.1872
C3B C -0.2145(5) 0.5138(5) 0.1746(4)
H5B H -0.2154 0.5168 0.1339
C4B C -0.1430(5) 0.5097(5) 0.2048(4)
C5B C -0.1445(5) 0.5052(4) 0.2645(4)
H6B H -0.0977 0.5037 0.2861
C6B C -0.2177(5) 0.5029(4) 0.2921(4)
H7B H -0.2180 0.4994 0.3328
C7B C -0.0673(5) 0.5127(4) 0.1722(4)
C10B C -0.0707(6) 0.5182(4) -0.0105(5)
H8B H -0.1198 0.5183 0.0083
C11B C -0.0644(7) 0.5189(5) -0.0715(4)
H9B H -0.1121 0.5199 -0.0922
Co1B Co -0.39850(6) 0.50137(5) 0.31443(7)
Co1_2 Co 1.39850(6) 0.50137(5) 0.31443(7)
Co1B_2 Co 0.60150(6) 0.50137(5) 0.31443(7)
Co1E Co 0.10150(6) 0.99863(5) -0.18557(7)
Co1E_2 Co 1.10150(6) -0.00137(5) 0.81443(7)
Co1G Co 0.89850(6) -0.00137(5) 0.81443(7)
Co1G_2 Co 0.89850(6) 0.99863(5) -0.18557(7)
Co2_2 Co 1.5000 0.48509(8) 0.45031(9)
Co2E Co 0.0000 1.01491(8) -0.04969(9)
Co2E_2 Co 1.0000 1.01491(8) -0.04969(9)
O1_2 O -0.5000 0.4965(3) 0.3609(3)
O2E O 0.3510(5) 0.5571(4) 0.3725(3)
O2G O -0.3510(5) 0.5571(4) 0.3725(3)
O3E O 0.4101(4) 0.5469(4) 0.4601(3)
O3G O 0.5899(4) 0.5469(4) 0.4601(3)
O4B_2 O 0.4107(4) 0.4237(3) 0.4447(4)
O5_2 O -0.3488(4) 0.4365(4) 0.3601(4)
O5B_2 O 0.3488(4) 0.4365(4) 0.3601(4)
O6E O 0.4353(4) 0.4470(4) 0.2499(4)
O6G O -0.4353(4) 0.4470(4) 0.2499(4)
O7B_2 O -0.4354(6) 0.5744(5) 0.2734(6)
loop_
_geom_bond_atom_site_label_1
_geom_bond_atom_site_label_2
_geom_bond_site_symmetry_1
_geom_bond_site_symmetry_2
Co1 O1 1_555 1_555
Co2 O1 1_555 1_555
O1 Co1B_2 1_555 1_555
O2 C25 1_555 1_555
O3 C25 1_555 1_555
O4 Co2 1_555 1_555
O5 C26 1_555 1_555
O6 C41 1_555 1_555
N1 Co2 1_555 1_555
N2 Co1 1_555 1_555
N3 C7 1_555 1_555
N4 C7 1_555 1_555
N5 C11 1_555 1_555
C1 N1 1_555 1_555
H1 C1 1_555 1_555
H2 C1 1_555 1_555
H3 C1 1_555 1_555
C2 N2 1_555 1_555
H4 C2 1_555 1_555
C3 C2 1_555 1_555
H5 C3 1_555 1_555
C4 C3 1_555 1_555
C5 C4 1_555 1_555
H6 C5 1_555 1_555
C6 N2 1_555 1_555
H7 C6 1_555 1_555
C7 C4 1_555 1_555
C8 N4 1_555 1_555
C9 C8 1_555 1_555
C10 C9 1_555 1_555
H8 C10 1_555 1_555
C11 C10 1_555 1_555
H9 C11 1_555 1_555
C12 C13 1_555 1_555
C13 C42 1_555 1_555
C14 C15 1_555 1_555
C15 C16 1_555 1_555
C16 H10 1_555 1_555
C17 C16 1_555 1_555
C18 C17 1_555 1_555
H11 C18 1_555 1_555
C19 C17 1_555 1_555
C20 C19 1_555 1_555
H12 C20 1_555 1_555
C21 C20 1_555 1_555
H13 C21 1_555 1_555
C22 C21 1_555 1_555
C23 C22 1_555 1_555
H14 C23 1_555 1_555
C24 C19 1_555 1_555
H15 C24 1_555 1_555
C25 C22 1_555 1_555
C26 O4 1_555 1_555
C27 C26 1_555 1_555
C28 C27 1_555 1_555
H16 C28 1_555 1_555
C29 C28 1_555 1_555
H17 C29 1_555 1_555
C30 C29 1_555 1_555
C31 C30 1_555 1_555
H18 C31 1_555 1_555
C32 C27 1_555 1_555
H19 C32 1_555 1_555
C33 C30 1_555 1_555
C34 C33 1_555 1_555
H20 C34 1_555 1_555
C35 C33 1_555 1_555
H21 C35 1_555 1_555
C36 C35 1_555 1_555
C37 C36 1_555 1_555
C38 C37 1_555 1_555
H22 C38 1_555 1_555
C39 C38 1_555 1_555
H23 C39 1_555 1_555
C40 C39 1_555 1_555
C41 C40 1_555 1_555
C42 H24 1_555 1_555
C43 C14 1_555 1_555
H25 C43 1_555 1_555
O7 Co1 1_555 1_555
O2B C25B 1_555 1_555
O3B C25B 1_555 1_555
C16B C15 1_555 1_555
H10B C16B 1_555 1_555
C17B C18 1_555 1_555
C19B C17B 1_555 1_555
C20B C19B 1_555 1_555
H12B C20B 1_555 1_555
C21B C20B 1_555 1_555
H13B C21B 1_555 1_555
C22B C21B 1_555 1_555
C23B C22B 1_555 1_555
H14B C23B 1_555 1_555
C24B C19B 1_555 1_555
H15B C24B 1_555 1_555
C25B C22B 1_555 1_555
C42B C13 1_555 1_555
H24B C42B 1_555 1_555
C43B C14 1_555 1_555
H25B C43B 1_555 1_555
O7B C12 1_555 1_555
O4B C26B 1_555 1_555
O5B C26B 1_555 1_555
O6B C41 1_555 1_555
C26B C27B 1_555 1_555
C27B C28B 1_555 1_555
C28B H16B 1_555 1_555
C29B C28B 1_555 1_555
H17B C29B 1_555 1_555
C30B C29B 1_555 1_555
C31B C30B 1_555 1_555
H18B C31B 1_555 1_555
C32B C27B 1_555 1_555
H19B C32B 1_555 1_555
C33B C34 1_555 1_555
C35B C36 1_555 1_555
H21B C35B 1_555 1_555
C38B C37 1_555 1_555
H22B C38B 1_555 1_555
C39B C40 1_555 1_555
H23B C39B 1_555 1_555
C1B N1 1_555 1_555
H1B C1B 1_555 1_555
H2B C1B 1_555 1_555
H3B C1B 1_555 1_555
N2B C2B 1_555 1_555
N4B C8 1_555 1_555
C2B H4B 1_555 1_555
C3B C2B 1_555 1_555
H5B C3B 1_555 1_555
C4B C3B 1_555 1_555
C5B C4B 1_555 1_555
H6B C5B 1_555 1_555
C6B N2B 1_555 1_555
H7B C6B 1_555 1_555
C7B N3 1_555 1_555
C10B C9 1_555 1_555
H8B C10B 1_555 1_555
C11B N5 1_555 1_555
H9B C11B 1_555 1_555
Co1B N2B 1_555 1_555
Co1_2 O5B 1_555 1_555
Co1B_2 O5 1_555 1_555
Co1E O2 1_555 1_555
Co1E_2 O6 1_555 1_555
Co1G O6B 1_555 1_555
Co1G_2 O2B 1_555 1_555
Co2_2 O4B 1_555 1_555
Co2E O3 1_555 1_555
Co2E_2 O3B 1_555 1_555
O1_2 Co1B 1_555 1_555
O2E Co1 1_555 1_555
O2G Co1B 1_555 1_555
O3E Co2 1_555 1_555
O3G Co2 1_555 1_555
O4B_2 Co2 1_555 1_555
O5_2 Co1B 1_555 1_555
O5B_2 Co1 1_555 1_555
O6E Co1 1_555 1_555
O6G Co1B 1_555 1_555
O7B_2 Co1B 1_555 1_555
C5 C6 1_555 1_555
C12 O7 1_555 1_555
C23 C24 1_555 1_555
C31 C32 1_555 1_555
C42 C43 1_555 1_555
C16B C17B 1_555 1_555
C23B C24B 1_555 1_555
C42B C43B 1_555 1_555
O7B Co1B_2 1_555 1_555
C30B C33B 1_555 1_555
C31B C32B 1_555 1_555
C33B C35B 1_555 1_555
C38B C39B 1_555 1_555
N4B C7B 1_555 1_555
C4B C7B 1_555 1_555
C5B C6B 1_555 1_555
C10B C11B 1_555 1_555

#END
