
#######################################################################
#
#                 Cambridge Crystallographic Data Centre
#                                CCDC 
#
#######################################################################
#
# If this CIF has been generated from an entry in the Cambridge 
# Structural Database, then it will include bibliographic, chemical, 
# crystal, experimental, refinement or atomic coordinate data resulting 
# from the CCDC's data processing and validation procedures.
#
#######################################################################

data_QIYDEJ
_chemical_formula_moiety         '(C142 H76 Cu6 N2 O28)n'
_symmetry_cell_setting           tetragonal
_symmetry_space_group_name_H-M   'I 4/m'
_symmetry_Int_Tables_number      87
_space_group_name_Hall           '-I 4'
loop_
_symmetry_equiv_pos_site_id
_symmetry_equiv_pos_as_xyz
1 x,y,z
2 -x,-y,z
3 -y,x,z
4 y,-x,z
5 1/2+x,1/2+y,1/2+z
6 1/2-x,1/2-y,1/2+z
7 1/2-y,1/2+x,1/2+z
8 1/2+y,1/2-x,1/2+z
9 -x,-y,-z
10 x,y,-z
11 y,-x,-z
12 -y,x,-z
13 1/2-x,1/2-y,1/2-z
14 1/2+x,1/2+y,1/2-z
15 1/2+y,1/2-x,1/2-z
16 1/2-y,1/2+x,1/2-z
_cell_length_a                   32.4569(9)
_cell_length_b                   32.4569(9)
_cell_length_c                   37.5208(14)
_cell_angle_alpha                90
_cell_angle_beta                 90
_cell_angle_gamma                90
_cell_volume                     39526.3
loop_
_atom_site_label
_atom_site_type_symbol
_atom_site_fract_x
_atom_site_fract_y
_atom_site_fract_z
Cu1 Cu 0.53925(2) 0.25444(2) 0.0000
Cu2 Cu 0.52448(2) 0.17411(2) 0.0000
Cu3 Cu 1.0000 0.5000 0.28504(2)
O1 O 0.57994(7) 0.24120(7) 0.03630(5)
O2 O 0.56731(6) 0.17319(7) 0.03684(5)
O3 O 0.75601(7) 0.00317(7) 0.46347(5)
O4 O 0.68794(7) 0.01580(6) 0.46295(5)
O5 O 0.96588(7) 0.45044(7) 0.28006(8)
O6 O 0.96573(7) 0.45092(6) 0.22012(7)
O7 O 1.0000 0.5000 0.34088(10)
N1 N 0.51450(12) 0.10947(11) 0.0000
C1 C 0.58526(9) 0.20460(14) 0.04737(7)
C2 C 0.61667(9) 0.20037(11) 0.07741(7)
C3 C 0.62401(10) 0.16356(12) 0.09268(9)
H1 H 0.6099 0.1401 0.0845
C4 C 0.65192(12) 0.15983(12) 0.12008(9)
H2 H 0.6572 0.1337 0.1299
C5 C 0.67175(11) 0.19293(14) 0.13298(9)
C6 C 0.66468(14) 0.23063(14) 0.11762(12)
H3 H 0.6785 0.2541 0.1261
C7 C 0.63699(12) 0.23399(12) 0.08943(10)
H4 H 0.6324 0.2598 0.0787
C8 C 0.70158(12) 0.19053(11) 0.16253(9)
C9 C 0.72461(11) 0.19089(10) 0.18650(9)
C10 C 0.75111(10) 0.19395(11) 0.21725(8)
C11 C 0.78221(10) 0.22300(10) 0.21793(8)
H5 H 0.7870 0.2398 0.1979
C12 C 0.80628(10) 0.22737(10) 0.24795(9)
C13 C 0.79887(10) 0.20329(10) 0.27825(8)
H6 H 0.8149 0.2066 0.2989
C14 C 0.76728(10) 0.17423(10) 0.27705(8)
C15 C 0.74322(10) 0.17003(10) 0.24745(8)
H7 H 0.7213 0.1510 0.2474
C16 C 0.83648(11) 0.26021(12) 0.24900(10)
C17 C 0.85818(12) 0.28886(12) 0.24968(10)
C18 C 0.88344(10) 0.32583(11) 0.24997(12)
C19 C 0.89278(12) 0.34578(12) 0.21774(12)
H8 H 0.8838 0.3349 0.1959
C20 C 0.91549(12) 0.38185(12) 0.21892(12)
H9 H 0.9211 0.3958 0.1975
C21 C 0.93007(10) 0.39786(10) 0.25022(12)
C22 C 0.92127(11) 0.37791(12) 0.28127(12)
H10 H 0.9307 0.3888 0.3030
C23 C 0.89840(12) 0.34154(12) 0.28123(12)
H11 H 0.8932 0.3277 0.3028
C24 C 0.95553(9) 0.43606(10) 0.25066(15)
C25 C 0.75894(11) 0.14932(11) 0.30825(10)
C26 C 0.75201(12) 0.12901(11) 0.33384(10)
C27 C 0.74516(14) 0.10234(12) 0.36389(9)
C28 C 0.70616(14) 0.09576(11) 0.37625(10)
H12 H 0.6840 0.1091 0.3650
C29 C 0.69817(11) 0.06955(10) 0.40540(9)
H13 H 0.6712 0.0652 0.4137
C30 C 0.73127(12) 0.05076(9) 0.42117(8)
C31 C 0.77089(12) 0.05846(12) 0.40923(10)
H14 H 0.7934 0.0458 0.4206
C32 C 0.77757(13) 0.08398(13) 0.38144(11)
H15 H 0.8047 0.0893 0.3740
C33 C 0.72389(14) 0.02073(9) 0.45192(8)
C34 C 0.5434(2) 0.0824(2) 0.0000
H16 H 0.5702 0.0932 0.0000
C35 C 0.5411(2) 0.0401(2) 0.0000
H17 H 0.5652 0.0241 0.0000
C36 C 0.50312(14) 0.02188(13) 0.0000
C37 C 0.4706(3) 0.0482(2) 0.0000
H18 H 0.4434 0.0381 0.0000
C38 C 0.4782(3) 0.0904(2) 0.0000
H19 H 0.4549 0.1076 0.0000
O8 O 0.54980(11) 0.31924(10) 0.0000
N1A N 0.48550(12) -0.10947(11) 0.0000
C34A C 0.4566(2) -0.0824(2) 0.0000
H16A H 0.4298 -0.0932 0.0000
C35A C 0.4589(2) -0.0401(2) 0.0000
H17A H 0.4348 -0.0241 0.0000
C36A C 0.49688(14) -0.02188(13) 0.0000
C37A C 0.5294(3) -0.0482(2) 0.0000
H18A H 0.5566 -0.0381 0.0000
C38A C 0.5218(3) -0.0904(2) 0.0000
H19A H 0.5451 -0.1076 0.0000
Cu1A Cu 0.46075(2) -0.25444(2) 0.0000
Cu2A Cu 0.47552(2) -0.17411(2) 0.0000
O1A O 0.42006(7) -0.24120(7) 0.03630(5)
O2A O 0.43269(6) -0.17319(7) 0.03684(5)
O3A O 0.24399(7) -0.00317(7) 0.46347(5)
O4A O 0.31206(7) -0.01580(6) 0.46295(5)
O5A O 0.03412(7) -0.45044(7) 0.28006(8)
O6A O 0.03427(7) -0.45092(6) 0.22012(7)
C1A C 0.41474(9) -0.20460(14) 0.04737(7)
C2A C 0.38333(9) -0.20037(11) 0.07741(7)
C3A C 0.37599(10) -0.16356(12) 0.09268(9)
H1A H 0.3901 -0.1401 0.0845
C4A C 0.34808(12) -0.15983(12) 0.12008(9)
H2A H 0.3428 -0.1337 0.1299
C5A C 0.32825(11) -0.19293(14) 0.13298(9)
C6A C 0.33532(14) -0.23063(14) 0.11762(12)
H3A H 0.3215 -0.2541 0.1261
C7A C 0.36301(12) -0.23399(12) 0.08943(10)
H4A H 0.3676 -0.2598 0.0787
C8A C 0.29842(12) -0.19053(11) 0.16253(9)
C9A C 0.27539(11) -0.19089(10) 0.18650(9)
C10A C 0.24889(10) -0.19395(11) 0.21725(8)
C11A C 0.21779(10) -0.22300(10) 0.21793(8)
H5A H 0.2130 -0.2398 0.1979
C12A C 0.19372(10) -0.22737(10) 0.24795(9)
C13A C 0.20113(10) -0.20329(10) 0.27825(8)
H6A H 0.1851 -0.2066 0.2989
C14A C 0.23272(10) -0.17423(10) 0.27705(8)
C15A C 0.25678(10) -0.17003(10) 0.24745(8)
H7A H 0.2787 -0.1510 0.2474
C16A C 0.16352(11) -0.26021(12) 0.24900(10)
C17A C 0.14182(12) -0.28886(12) 0.24968(10)
C18A C 0.11656(10) -0.32583(11) 0.24997(12)
C19A C 0.10722(12) -0.34578(12) 0.21774(12)
H8A H 0.1162 -0.3349 0.1959
C20A C 0.08451(12) -0.38185(12) 0.21892(12)
H9A H 0.0789 -0.3958 0.1975
C21A C 0.06993(10) -0.39786(10) 0.25022(12)
C22A C 0.07873(11) -0.37791(12) 0.28127(12)
H10A H 0.0693 -0.3888 0.3030
C23A C 0.10160(12) -0.34154(12) 0.28123(12)
H11A H 0.1068 -0.3277 0.3028
C24A C 0.04447(9) -0.43606(10) 0.25066(15)
C25A C 0.24106(11) -0.14932(11) 0.30825(10)
C26A C 0.24799(12) -0.12901(11) 0.33384(10)
C27A C 0.25484(14) -0.10234(12) 0.36389(9)
C28A C 0.29384(14) -0.09576(11) 0.37625(10)
H12A H 0.3160 -0.1091 0.3650
C29A C 0.30183(11) -0.06955(10) 0.40540(9)
H13A H 0.3288 -0.0652 0.4137
C30A C 0.26873(12) -0.05076(9) 0.42117(8)
C31A C 0.22911(12) -0.05846(12) 0.40923(10)
H14A H 0.2066 -0.0458 0.4206
C32A C 0.22243(13) -0.08398(13) 0.38144(11)
H15A H 0.1953 -0.0893 0.3740
C33A C 0.27611(14) -0.02073(9) 0.45192(8)
O8A O 0.45020(11) -0.31924(10) 0.0000
O1H O 0.42006(7) -0.24120(7) -0.03630(5)
O2H O 0.43269(6) -0.17319(7) -0.03684(5)
O3H O 0.24399(7) -0.00317(7) -0.46347(5)
O4H O 0.31206(7) -0.01580(6) -0.46295(5)
O5H O 0.03412(7) -0.45044(7) -0.28006(8)
O6H O 0.03427(7) -0.45092(6) -0.22012(7)
C1H C 0.41474(9) -0.20460(14) -0.04737(7)
C2H C 0.38333(9) -0.20037(11) -0.07741(7)
C3H C 0.37599(10) -0.16356(12) -0.09268(9)
H1H H 0.3901 -0.1401 -0.0845
C4H C 0.34808(12) -0.15983(12) -0.12008(9)
H2H H 0.3428 -0.1337 -0.1299
C5H C 0.32825(11) -0.19293(14) -0.13298(9)
C6H C 0.33532(14) -0.23063(14) -0.11762(12)
H3H H 0.3215 -0.2541 -0.1261
C7H C 0.36301(12) -0.23399(12) -0.08943(10)
H4H H 0.3676 -0.2598 -0.0787
C8H C 0.29842(12) -0.19053(11) -0.16253(9)
C9H C 0.27539(11) -0.19089(10) -0.18650(9)
C10H C 0.24889(10) -0.19395(11) -0.21725(8)
C11H C 0.21779(10) -0.22300(10) -0.21793(8)
H5H H 0.2130 -0.2398 -0.1979
C12H C 0.19372(10) -0.22737(10) -0.24795(9)
C13H C 0.20113(10) -0.20329(10) -0.27825(8)
H6H H 0.1851 -0.2066 -0.2989
C14H C 0.23272(10) -0.17423(10) -0.27705(8)
C15H C 0.25678(10) -0.17003(10) -0.24745(8)
H7H H 0.2787 -0.1510 -0.2474
C16H C 0.16352(11) -0.26021(12) -0.24900(10)
C17H C 0.14182(12) -0.28886(12) -0.24968(10)
C18H C 0.11656(10) -0.32583(11) -0.24997(12)
C19H C 0.10722(12) -0.34578(12) -0.21774(12)
H8H H 0.1162 -0.3349 -0.1959
C20H C 0.08451(12) -0.38185(12) -0.21892(12)
H9H H 0.0789 -0.3958 -0.1975
C21H C 0.06993(10) -0.39786(10) -0.25022(12)
C22H C 0.07873(11) -0.37791(12) -0.28127(12)
H10H H 0.0693 -0.3888 -0.3030
C23H C 0.10160(12) -0.34154(12) -0.28123(12)
H11H H 0.1068 -0.3277 -0.3028
C24H C 0.04447(9) -0.43606(10) -0.25066(15)
C25H C 0.24106(11) -0.14932(11) -0.30825(10)
C26H C 0.24799(12) -0.12901(11) -0.33384(10)
C27H C 0.25484(14) -0.10234(12) -0.36389(9)
C28H C 0.29384(14) -0.09576(11) -0.37625(10)
H12H H 0.3160 -0.1091 -0.3650
C29H C 0.30183(11) -0.06955(10) -0.40540(9)
H13H H 0.3288 -0.0652 -0.4137
C30H C 0.26873(12) -0.05076(9) -0.42117(8)
C31H C 0.22911(12) -0.05846(12) -0.40923(10)
H14H H 0.2066 -0.0458 -0.4206
C32H C 0.22243(13) -0.08398(13) -0.38144(11)
H15H H 0.1953 -0.0893 -0.3740
C33H C 0.27611(14) -0.02073(9) -0.45192(8)
Cu3H Cu 1.0000 0.5000 -0.28504(2)
O1I O 0.57994(7) 0.24120(7) -0.03630(5)
O2I O 0.56731(6) 0.17319(7) -0.03684(5)
O3I O 0.75601(7) 0.00317(7) -0.46347(5)
O4I O 0.68794(7) 0.01580(6) -0.46295(5)
O5I O 0.96588(7) 0.45044(7) -0.28006(8)
O6I O 0.96573(7) 0.45092(6) -0.22012(7)
O7H O 1.0000 0.5000 -0.34088(10)
C1I C 0.58526(9) 0.20460(14) -0.04737(7)
C2I C 0.61667(9) 0.20037(11) -0.07741(7)
C3I C 0.62401(10) 0.16356(12) -0.09268(9)
H1I H 0.6099 0.1401 -0.0845
C4I C 0.65192(12) 0.15983(12) -0.12008(9)
H2I H 0.6572 0.1337 -0.1299
C5I C 0.67175(11) 0.19293(14) -0.13298(9)
C6I C 0.66468(14) 0.23063(14) -0.11762(12)
H3I H 0.6785 0.2541 -0.1261
C7I C 0.63699(12) 0.23399(12) -0.08943(10)
H4I H 0.6324 0.2598 -0.0787
C8I C 0.70158(12) 0.19053(11) -0.16253(9)
C9I C 0.72461(11) 0.19089(10) -0.18650(9)
C10I C 0.75111(10) 0.19395(11) -0.21725(8)
C11I C 0.78221(10) 0.22300(10) -0.21793(8)
H5I H 0.7870 0.2398 -0.1979
C12I C 0.80628(10) 0.22737(10) -0.24795(9)
C13I C 0.79887(10) 0.20329(10) -0.27825(8)
H6I H 0.8149 0.2066 -0.2989
C14I C 0.76728(10) 0.17423(10) -0.27705(8)
C15I C 0.74322(10) 0.17003(10) -0.24745(8)
H7I H 0.7213 0.1510 -0.2474
C16I C 0.83648(11) 0.26021(12) -0.24900(10)
C17I C 0.85818(12) 0.28886(12) -0.24968(10)
C18I C 0.88344(10) 0.32583(11) -0.24997(12)
C19I C 0.89278(12) 0.34578(12) -0.21774(12)
H8I H 0.8838 0.3349 -0.1959
C20I C 0.91549(12) 0.38185(12) -0.21892(12)
H9I H 0.9211 0.3958 -0.1975
C21I C 0.93007(10) 0.39786(10) -0.25022(12)
C22I C 0.92127(11) 0.37791(12) -0.28127(12)
H10I H 0.9307 0.3888 -0.3030
C23I C 0.89840(12) 0.34154(12) -0.28123(12)
H11I H 0.8932 0.3277 -0.3028
C24I C 0.95553(9) 0.43606(10) -0.25066(15)
C25I C 0.75894(11) 0.14932(11) -0.30825(10)
C26I C 0.75201(12) 0.12901(11) -0.33384(10)
C27I C 0.74516(14) 0.10234(12) -0.36389(9)
C28I C 0.70616(14) 0.09576(11) -0.37625(10)
H12I H 0.6840 0.1091 -0.3650
C29I C 0.69817(11) 0.06955(10) -0.40540(9)
H13I H 0.6712 0.0652 -0.4137
C30I C 0.73127(12) 0.05076(9) -0.42117(8)
C31I C 0.77089(12) 0.05846(12) -0.40923(10)
H14I H 0.7934 0.0458 -0.4206
C32I C 0.77757(13) 0.08398(13) -0.38144(11)
H15I H 0.8047 0.0893 -0.3740
C33I C 0.72389(14) 0.02073(9) -0.45192(8)
Cu1F Cu 0.24556(2) 0.03925(2) -0.5000
Cu1F_2 Cu 0.24556(2) 0.03925(2) 0.5000
Cu1G Cu 0.75444(2) -0.03925(2) -0.5000
Cu1G_2 Cu 0.75444(2) -0.03925(2) 0.5000
Cu2F Cu 0.32589(2) 0.02448(2) -0.5000
Cu2F_2 Cu 0.32589(2) 0.02448(2) 0.5000
Cu2G Cu 0.67411(2) -0.02448(2) -0.5000
Cu2G_2 Cu 0.67411(2) -0.02448(2) 0.5000
Cu3_2 Cu 0.0000 -0.5000 0.28504(2)
Cu3F Cu 0.0000 -0.5000 -0.21496(2)
Cu3F_2 Cu 1.0000 0.5000 -0.21496(2)
Cu3H_2 Cu 0.0000 -0.5000 -0.28504(2)
Cu3N Cu -0.0000 -0.5000 0.21496(2)
Cu3N_2 Cu 1.0000 0.5000 0.21496(2)
O3F O 0.49683(7) 0.25601(7) -0.03653(5)
O3G O 0.50317(7) -0.25601(7) -0.03653(5)
O3N O 0.50317(7) -0.25601(7) 0.03653(5)
O3O O 0.49683(7) 0.25601(7) 0.03653(5)
O4F O 0.48420(6) 0.18794(7) -0.03705(5)
O4G O 0.51580(6) -0.18794(7) -0.03705(5)
O4N O 0.51580(6) -0.18794(7) 0.03705(5)
O4O O 0.48420(6) 0.18794(7) 0.03705(5)
O5A_2 O 1.03412(7) 0.54956(7) 0.28006(8)
O5H_2 O 1.03412(7) 0.54956(7) -0.28006(8)
O6F O 1.04908(6) 0.46573(7) -0.27988(7)
O6G O 0.95092(6) 0.53427(7) -0.27988(7)
O6N O 0.95092(6) 0.53427(7) 0.27988(7)
O6O O 1.04908(6) 0.46573(7) 0.27988(7)
loop_
_geom_bond_atom_site_label_1
_geom_bond_atom_site_label_2
_geom_bond_site_symmetry_1
_geom_bond_site_symmetry_2
Cu1 Cu2 1_555 1_555
Cu2 O2 1_555 1_555
Cu3 O5 1_555 1_555
O1 Cu1 1_555 1_555
O2 C1 1_555 1_555
O3 C33 1_555 1_555
O4 C33 1_555 1_555
O5 C24 1_555 1_555
O6 C24 1_555 1_555
O7 Cu3 1_555 1_555
N1 Cu2 1_555 1_555
C1 O1 1_555 1_555
C2 C1 1_555 1_555
C3 C2 1_555 1_555
H1 C3 1_555 1_555
C4 C3 1_555 1_555
H2 C4 1_555 1_555
C5 C4 1_555 1_555
C6 C5 1_555 1_555
H3 C6 1_555 1_555
C7 C2 1_555 1_555
H4 C7 1_555 1_555
C8 C5 1_555 1_555
C9 C8 1_555 1_555
C10 C9 1_555 1_555
C11 C10 1_555 1_555
H5 C11 1_555 1_555
C12 C11 1_555 1_555
C13 C12 1_555 1_555
H6 C13 1_555 1_555
C14 C13 1_555 1_555
C15 C10 1_555 1_555
H7 C15 1_555 1_555
C16 C12 1_555 1_555
C17 C16 1_555 1_555
C18 C17 1_555 1_555
C19 C18 1_555 1_555
H8 C19 1_555 1_555
C20 C19 1_555 1_555
H9 C20 1_555 1_555
C21 C20 1_555 1_555
C22 C21 1_555 1_555
H10 C22 1_555 1_555
C23 C18 1_555 1_555
H11 C23 1_555 1_555
C24 C21 1_555 1_555
C25 C14 1_555 1_555
C26 C25 1_555 1_555
C27 C26 1_555 1_555
C28 C27 1_555 1_555
H12 C28 1_555 1_555
C29 C28 1_555 1_555
H13 C29 1_555 1_555
C30 C29 1_555 1_555
C31 C30 1_555 1_555
H14 C31 1_555 1_555
C32 C27 1_555 1_555
H15 C32 1_555 1_555
C33 C30 1_555 1_555
C34 N1 1_555 1_555
H16 C34 1_555 1_555
C35 C34 1_555 1_555
H17 C35 1_555 1_555
C36 C35 1_555 1_555
C37 C36 1_555 1_555
H18 C37 1_555 1_555
C38 N1 1_555 1_555
H19 C38 1_555 1_555
O8 Cu1 1_555 1_555
N1A C34A 1_555 1_555
C34A H16A 1_555 1_555
C35A C34A 1_555 1_555
H17A C35A 1_555 1_555
C36A C36 1_555 1_555
C37A C36A 1_555 1_555
H18A C37A 1_555 1_555
C38A N1A 1_555 1_555
H19A C38A 1_555 1_555
Cu1A Cu2A 1_555 1_555
Cu2A N1A 1_555 1_555
O1A Cu1A 1_555 1_555
O2A Cu2A 1_555 1_555
O3A C33A 1_555 1_555
O4A C33A 1_555 1_555
O5A C24A 1_555 1_555
O6A C24A 1_555 1_555
C1A O1A 1_555 1_555
C2A C1A 1_555 1_555
C3A C2A 1_555 1_555
H1A C3A 1_555 1_555
C4A C3A 1_555 1_555
H2A C4A 1_555 1_555
C5A C4A 1_555 1_555
C6A C5A 1_555 1_555
H3A C6A 1_555 1_555
C7A C2A 1_555 1_555
H4A C7A 1_555 1_555
C8A C5A 1_555 1_555
C9A C8A 1_555 1_555
C10A C9A 1_555 1_555
C11A C10A 1_555 1_555
H5A C11A 1_555 1_555
C12A C11A 1_555 1_555
C13A C12A 1_555 1_555
H6A C13A 1_555 1_555
C14A C13A 1_555 1_555
C15A C10A 1_555 1_555
H7A C15A 1_555 1_555
C16A C12A 1_555 1_555
C17A C16A 1_555 1_555
C18A C17A 1_555 1_555
C19A C18A 1_555 1_555
H8A C19A 1_555 1_555
C20A C19A 1_555 1_555
H9A C20A 1_555 1_555
C21A C20A 1_555 1_555
C22A C21A 1_555 1_555
H10A C22A 1_555 1_555
C23A C18A 1_555 1_555
H11A C23A 1_555 1_555
C24A C21A 1_555 1_555
C25A C14A 1_555 1_555
C26A C25A 1_555 1_555
C27A C26A 1_555 1_555
C28A C27A 1_555 1_555
H12A C28A 1_555 1_555
C29A C28A 1_555 1_555
H13A C29A 1_555 1_555
C30A C29A 1_555 1_555
C31A C30A 1_555 1_555
H14A C31A 1_555 1_555
C32A C27A 1_555 1_555
H15A C32A 1_555 1_555
C33A C30A 1_555 1_555
O8A Cu1A 1_555 1_555
O1H Cu1A 1_555 1_555
O2H Cu2A 1_555 1_555
O3H C33H 1_555 1_555
O4H C33H 1_555 1_555
O5H C24H 1_555 1_555
O6H C24H 1_555 1_555
C1H O1H 1_555 1_555
C2H C1H 1_555 1_555
C3H C2H 1_555 1_555
H1H C3H 1_555 1_555
C4H C3H 1_555 1_555
H2H C4H 1_555 1_555
C5H C4H 1_555 1_555
C6H C5H 1_555 1_555
H3H C6H 1_555 1_555
C7H C2H 1_555 1_555
H4H C7H 1_555 1_555
C8H C5H 1_555 1_555
C9H C8H 1_555 1_555
C10H C9H 1_555 1_555
C11H C10H 1_555 1_555
H5H C11H 1_555 1_555
C12H C11H 1_555 1_555
C13H C12H 1_555 1_555
H6H C13H 1_555 1_555
C14H C13H 1_555 1_555
C15H C10H 1_555 1_555
H7H C15H 1_555 1_555
C16H C12H 1_555 1_555
C17H C16H 1_555 1_555
C18H C17H 1_555 1_555
C19H C18H 1_555 1_555
H8H C19H 1_555 1_555
C20H C19H 1_555 1_555
H9H C20H 1_555 1_555
C21H C20H 1_555 1_555
C22H C21H 1_555 1_555
H10H C22H 1_555 1_555
C23H C18H 1_555 1_555
H11H C23H 1_555 1_555
C24H C21H 1_555 1_555
C25H C14H 1_555 1_555
C26H C25H 1_555 1_555
C27H C26H 1_555 1_555
C28H C27H 1_555 1_555
H12H C28H 1_555 1_555
C29H C28H 1_555 1_555
H13H C29H 1_555 1_555
C30H C29H 1_555 1_555
C31H C30H 1_555 1_555
H14H C31H 1_555 1_555
C32H C27H 1_555 1_555
H15H C32H 1_555 1_555
C33H C30H 1_555 1_555
Cu3H O5I 1_555 1_555
O1I Cu1 1_555 1_555
O2I Cu2 1_555 1_555
O3I C33I 1_555 1_555
O4I C33I 1_555 1_555
O5I C24I 1_555 1_555
O6I C24I 1_555 1_555
O7H Cu3H 1_555 1_555
C1I O1I 1_555 1_555
C2I C1I 1_555 1_555
C3I C2I 1_555 1_555
H1I C3I 1_555 1_555
C4I C3I 1_555 1_555
H2I C4I 1_555 1_555
C5I C4I 1_555 1_555
C6I C5I 1_555 1_555
H3I C6I 1_555 1_555
C7I C2I 1_555 1_555
H4I C7I 1_555 1_555
C8I C5I 1_555 1_555
C9I C8I 1_555 1_555
C10I C9I 1_555 1_555
C11I C10I 1_555 1_555
H5I C11I 1_555 1_555
C12I C11I 1_555 1_555
C13I C12I 1_555 1_555
H6I C13I 1_555 1_555
C14I C13I 1_555 1_555
C15I C10I 1_555 1_555
H7I C15I 1_555 1_555
C16I C12I 1_555 1_555
C17I C16I 1_555 1_555
C18I C17I 1_555 1_555
C19I C18I 1_555 1_555
H8I C19I 1_555 1_555
C20I C19I 1_555 1_555
H9I C20I 1_555 1_555
C21I C20I 1_555 1_555
C22I C21I 1_555 1_555
H10I C22I 1_555 1_555
C23I C18I 1_555 1_555
H11I C23I 1_555 1_555
C24I C21I 1_555 1_555
C25I C14I 1_555 1_555
C26I C25I 1_555 1_555
C27I C26I 1_555 1_555
C28I C27I 1_555 1_555
H12I C28I 1_555 1_555
C29I C28I 1_555 1_555
H13I C29I 1_555 1_555
C30I C29I 1_555 1_555
C31I C30I 1_555 1_555
H14I C31I 1_555 1_555
C32I C27I 1_555 1_555
H15I C32I 1_555 1_555
C33I C30I 1_555 1_555
Cu1F O3H 1_555 1_555
Cu1F_2 O3A 1_555 1_555
Cu1G O3I 1_555 1_555
Cu1G_2 O3 1_555 1_555
Cu2F O4H 1_555 1_555
Cu2F_2 O4A 1_555 1_555
Cu2G O4I 1_555 1_555
Cu2G_2 O4 1_555 1_555
Cu3_2 O5A 1_555 1_555
Cu3F O6H 1_555 1_555
Cu3F_2 Cu3H 1_555 1_555
Cu3H_2 O5H 1_555 1_555
Cu3N O6A 1_555 1_555
Cu3N_2 Cu3 1_555 1_555
O3F Cu1 1_555 1_555
O3G Cu1A 1_555 1_555
O3N Cu1A 1_555 1_555
O3O Cu1 1_555 1_555
O4F Cu2 1_555 1_555
O4G Cu2A 1_555 1_555
O4N Cu2A 1_555 1_555
O4O Cu2 1_555 1_555
O5A_2 Cu3 1_555 1_555
O5H_2 Cu3H 1_555 1_555
O6F Cu3H 1_555 1_555
O6G Cu3H 1_555 1_555
O6N Cu3 1_555 1_555
O6O Cu3 1_555 1_555
O6 Cu3N_2 1_555 1_555
C6 C7 1_555 1_555
C14 C15 1_555 1_555
C22 C23 1_555 1_555
C31 C32 1_555 1_555
C37 C38 1_555 1_555
C35A C36A 1_555 1_555
C37A C38A 1_555 1_555
O2A C1A 1_555 1_555
C6A C7A 1_555 1_555
C14A C15A 1_555 1_555
C22A C23A 1_555 1_555
C31A C32A 1_555 1_555
O2H C1H 1_555 1_555
C6H C7H 1_555 1_555
C14H C15H 1_555 1_555
C22H C23H 1_555 1_555
C31H C32H 1_555 1_555
O2I C1I 1_555 1_555
O6I Cu3F_2 1_555 1_555
C6I C7I 1_555 1_555
C14I C15I 1_555 1_555
C22I C23I 1_555 1_555
C31I C32I 1_555 1_555
Cu1F Cu2F 1_555 1_555
Cu1F_2 Cu2F_2 1_555 1_555
Cu1G Cu2G 1_555 1_555
Cu1G_2 Cu2G_2 1_555 1_555
Cu3_2 Cu3N 1_555 1_555
Cu3F Cu3H_2 1_555 1_555

#END
