
#######################################################################
#
#                 Cambridge Crystallographic Data Centre
#                                CCDC 
#
#######################################################################
#
# If this CIF has been generated from an entry in the Cambridge 
# Structural Database, then it will include bibliographic, chemical, 
# crystal, experimental, refinement or atomic coordinate data resulting 
# from the CCDC's data processing and validation procedures.
#
#######################################################################

data_QIYDAF
_chemical_formula_moiety         'C132 H60 Cu18 O34'
_symmetry_cell_setting           cubic
_symmetry_space_group_name_H-M   'I m -3'
_symmetry_Int_Tables_number      204
_space_group_name_Hall           '-I 2 2 3'
loop_
_symmetry_equiv_pos_site_id
_symmetry_equiv_pos_as_xyz
1 x,y,z
2 1/2+x,1/2+y,1/2+z
3 -x,y,-z
4 -x,-y,z
5 x,-y,-z
6 1/2-x,1/2+y,1/2-z
7 1/2-x,1/2-y,1/2+z
8 1/2+x,1/2-y,1/2-z
9 z,x,y
10 y,z,x
11 -z,-x,y
12 z,-x,-y
13 -z,x,-y
14 y,-z,-x
15 -y,z,-x
16 -y,-z,x
17 1/2+z,1/2+x,1/2+y
18 1/2-z,1/2-x,1/2+y
19 1/2+z,1/2-x,1/2-y
20 1/2-z,1/2+x,1/2-y
21 1/2+y,1/2+z,1/2+x
22 1/2+y,1/2-z,1/2-x
23 1/2-y,1/2+z,1/2-x
24 1/2-y,1/2-z,1/2+x
25 -x,-y,-z
26 1/2-x,1/2-y,1/2-z
27 x,-y,z
28 x,y,-z
29 -x,y,z
30 1/2+x,1/2-y,1/2+z
31 1/2+x,1/2+y,1/2-z
32 1/2-x,1/2+y,1/2+z
33 -z,-x,-y
34 -y,-z,-x
35 z,x,-y
36 -z,x,y
37 z,-x,y
38 -y,z,x
39 y,-z,x
40 y,z,-x
41 1/2-z,1/2-x,1/2-y
42 1/2+z,1/2+x,1/2-y
43 1/2-z,1/2+x,1/2+y
44 1/2+z,1/2-x,1/2+y
45 1/2-y,1/2-z,1/2-x
46 1/2-y,1/2+z,1/2+x
47 1/2+y,1/2-z,1/2+x
48 1/2+y,1/2+z,1/2-x
_cell_length_a                   34.121(13)
_cell_length_b                   34.121(13)
_cell_length_c                   34.121(13)
_cell_angle_alpha                90
_cell_angle_beta                 90
_cell_angle_gamma                90
_cell_volume                     39725.1
loop_
_atom_site_label
_atom_site_type_symbol
_atom_site_fract_x
_atom_site_fract_y
_atom_site_fract_z
C1 C 0.4522(3) -0.0516(2) 0.2951(3)
C2 C 0.42216(18) -0.08839(17) 0.2959(3)
C3 C 0.4121(2) -0.1038(2) 0.2596(2)
H1 H 0.4221 -0.0925 0.2365
C4 C 0.3871(3) -0.1360(2) 0.2573(2)
H2 H 0.3803 -0.1464 0.2328
C5 C 0.3723(2) -0.15263(19) 0.2914(3)
C6 C 0.3823(3) -0.1372(3) 0.3277(3)
H3 H 0.3723 -0.1485 0.3507
C7 C 0.4073(3) -0.1051(3) 0.3300(2)
H4 H 0.4141 -0.0946 0.3545
C8 C 0.3460(4) -0.1857(4) 0.2931(4)
C9 C 0.3286(4) -0.2139(5) 0.2890(4)
C10 C 0.3039(3) -0.2477(3) 0.2823(3)
C11 C 0.3081(3) -0.2732(3) 0.2528(3)
H5 H 0.3291 -0.2701 0.2353
O1 O 0.46008(12) -0.04125(12) 0.32966(13)
O2 O 0.45983(14) -0.03938(14) 0.25999(14)
Cu1 Cu 0.5000 0.0000 0.33356(5)
Cu2 Cu 0.5000 0.0000 0.25705(6)
O3 O 0.5000 0.0000 0.3988(4)
O4 O 0.5000 0.0000 0.1930(3)
C1K C 0.2951(3) -0.4522(3) 0.0516(2)
C2K C 0.2959(3) -0.42216(18) 0.08839(17)
C3K C 0.2596(2) -0.4121(2) 0.1038(2)
H1K H 0.2365 -0.4221 0.0925
C4K C 0.2573(2) -0.3871(3) 0.1360(2)
H2K H 0.2328 -0.3803 0.1464
C5K C 0.2914(3) -0.3723(2) 0.15263(19)
C6K C 0.3277(3) -0.3823(3) 0.1372(3)
H3K H 0.3507 -0.3723 0.1485
C7K C 0.3300(2) -0.4073(3) 0.1051(3)
H4K H 0.3545 -0.4141 0.0946
C8K C 0.2931(4) -0.3460(4) 0.1857(4)
C9K C 0.2890(4) -0.3286(4) 0.2139(5)
C10K C 0.2823(3) -0.3039(3) 0.2477(3)
C11K C 0.2528(3) -0.3081(3) 0.2732(3)
H5K H 0.2353 -0.3291 0.2701
O1K O 0.32966(13) -0.46008(12) 0.04125(12)
O2K O 0.25999(14) -0.45983(14) 0.03938(14)
C1O C 0.0516(2) -0.2951(3) 0.4522(3)
C2O C 0.08839(17) -0.2959(3) 0.42216(18)
C3O C 0.1038(2) -0.2596(2) 0.4121(2)
H1O H 0.0925 -0.2365 0.4221
C4O C 0.1360(2) -0.2573(2) 0.3871(3)
H2O H 0.1464 -0.2328 0.3803
C5O C 0.15263(19) -0.2914(3) 0.3723(2)
C6O C 0.1372(3) -0.3277(3) 0.3823(3)
H3O H 0.1485 -0.3507 0.3723
C7O C 0.1051(3) -0.3300(2) 0.4073(3)
H4O H 0.0946 -0.3545 0.4141
C8O C 0.1857(4) -0.2931(4) 0.3460(4)
C9O C 0.2139(5) -0.2890(4) 0.3286(4)
C10O C 0.2477(3) -0.2823(3) 0.3039(3)
C11O C 0.2732(3) -0.2528(3) 0.3081(3)
H5O H 0.2701 -0.2353 0.3291
O1O O 0.04125(12) -0.32966(13) 0.46008(12)
O2O O 0.03938(14) -0.25999(14) 0.45983(14)
C1Z C 0.4522(3) 0.0516(2) 0.2951(3)
C2Z C 0.42216(18) 0.08839(17) 0.2959(3)
C3Z C 0.4121(2) 0.1038(2) 0.2596(2)
H1Z H 0.4221 0.0925 0.2365
C4Z C 0.3871(3) 0.1360(2) 0.2573(2)
H2Z H 0.3803 0.1464 0.2328
C5Z C 0.3723(2) 0.15263(19) 0.2914(3)
C6Z C 0.3823(3) 0.1372(3) 0.3277(3)
H3Z H 0.3723 0.1485 0.3507
C7Z C 0.4073(3) 0.1051(3) 0.3300(2)
H4Z H 0.4141 0.0946 0.3545
C8Z C 0.3460(4) 0.1857(4) 0.2931(4)
C9Z C 0.3286(4) 0.2139(5) 0.2890(4)
C10Z C 0.3039(3) 0.2477(3) 0.2823(3)
C11Z C 0.3081(3) 0.2732(3) 0.2528(3)
H5Z H 0.3291 0.2701 0.2353
O1Z O 0.46008(12) 0.04125(12) 0.32966(13)
O2Z O 0.45983(14) 0.03938(14) 0.25999(14)
C1HA C 0.2951(3) 0.4522(3) 0.0516(2)
C2HA C 0.2959(3) 0.42216(18) 0.08839(17)
C3HA C 0.2596(2) 0.4121(2) 0.1038(2)
H1HA H 0.2365 0.4221 0.0925
C4HA C 0.2573(2) 0.3871(3) 0.1360(2)
H2HA H 0.2328 0.3803 0.1464
C5HA C 0.2914(3) 0.3723(2) 0.15263(19)
C6HA C 0.3277(3) 0.3823(3) 0.1372(3)
H3HA H 0.3507 0.3723 0.1485
C7HA C 0.3300(2) 0.4073(3) 0.1051(3)
H4HA H 0.3545 0.4141 0.0946
C8HA C 0.2931(4) 0.3460(4) 0.1857(4)
C9HA C 0.2890(4) 0.3286(4) 0.2139(5)
C10HA C 0.2823(3) 0.3039(3) 0.2477(3)
C11HA C 0.2528(3) 0.3081(3) 0.2732(3)
H5HA H 0.2353 0.3291 0.2701
O1HA O 0.32966(13) 0.46008(12) 0.04125(12)
O2HA O 0.25999(14) 0.45983(14) 0.03938(14)
C1KA C 0.0516(2) 0.2951(3) 0.4522(3)
C2KA C 0.08839(17) 0.2959(3) 0.42216(18)
C3KA C 0.1038(2) 0.2596(2) 0.4121(2)
H1KA H 0.0925 0.2365 0.4221
C4KA C 0.1360(2) 0.2573(2) 0.3871(3)
H2KA H 0.1464 0.2328 0.3803
C5KA C 0.15263(19) 0.2914(3) 0.3723(2)
C6KA C 0.1372(3) 0.3277(3) 0.3823(3)
H3KA H 0.1485 0.3507 0.3723
C7KA C 0.1051(3) 0.3300(2) 0.4073(3)
H4KA H 0.0946 0.3545 0.4141
C8KA C 0.1857(4) 0.2931(4) 0.3460(4)
C9KA C 0.2139(5) 0.2890(4) 0.3286(4)
C10KA C 0.2477(3) 0.2823(3) 0.3039(3)
C11KA C 0.2732(3) 0.2528(3) 0.3081(3)
H5KA H 0.2701 0.2353 0.3291
O1KA O 0.04125(12) 0.32966(13) 0.46008(12)
O2KA O 0.03938(14) 0.25999(14) 0.45983(14)
C1BA C 0.5478(3) -0.0516(2) 0.2951(3)
C2BA C 0.57784(18) -0.08839(17) 0.2959(3)
C3BA C 0.5879(2) -0.1038(2) 0.2596(2)
H1BA H 0.5779 -0.0925 0.2365
C4BA C 0.6129(3) -0.1360(2) 0.2573(2)
H2BA H 0.6197 -0.1464 0.2328
C5BA C 0.6277(2) -0.15263(19) 0.2914(3)
C6BA C 0.6177(3) -0.1372(3) 0.3277(3)
H3BA H 0.6277 -0.1485 0.3507
C7BA C 0.5927(3) -0.1051(3) 0.3300(2)
H4BA H 0.5859 -0.0946 0.3545
C8BA C 0.6540(4) -0.1857(4) 0.2931(4)
C9BA C 0.6714(4) -0.2139(5) 0.2890(4)
C10BA C 0.6961(3) -0.2477(3) 0.2823(3)
C11BA C 0.6919(3) -0.2732(3) 0.2528(3)
H5BA H 0.6709 -0.2701 0.2353
O1BA O 0.53992(12) -0.04125(12) 0.32966(13)
O2BA O 0.54017(14) -0.03938(14) 0.25999(14)
C1FA C 0.7049(3) -0.4522(3) 0.0516(2)
C2FA C 0.7041(3) -0.42216(18) 0.08839(17)
C3FA C 0.7404(2) -0.4121(2) 0.1038(2)
H1FA H 0.7635 -0.4221 0.0925
C4FA C 0.7427(2) -0.3871(3) 0.1360(2)
H2FA H 0.7672 -0.3803 0.1464
C5FA C 0.7086(3) -0.3723(2) 0.15263(19)
C6FA C 0.6723(3) -0.3823(3) 0.1372(3)
H3FA H 0.6493 -0.3723 0.1485
C7FA C 0.6700(2) -0.4073(3) 0.1051(3)
H4FA H 0.6455 -0.4141 0.0946
C8FA C 0.7069(4) -0.3460(4) 0.1857(4)
C9FA C 0.7110(4) -0.3286(4) 0.2139(5)
C10FA C 0.7177(3) -0.3039(3) 0.2477(3)
C11FA C 0.7472(3) -0.3081(3) 0.2732(3)
H5FA H 0.7647 -0.3291 0.2701
O1FA O 0.67034(13) -0.46008(12) 0.04125(12)
O2FA O 0.74001(14) -0.45983(14) 0.03938(14)
C1LA C 0.9484(2) -0.2951(3) 0.4522(3)
C2LA C 0.91161(17) -0.2959(3) 0.42216(18)
C3LA C 0.8962(2) -0.2596(2) 0.4121(2)
H1LA H 0.9075 -0.2365 0.4221
C4LA C 0.8640(2) -0.2573(2) 0.3871(3)
H2LA H 0.8536 -0.2328 0.3803
C5LA C 0.84737(19) -0.2914(3) 0.3723(2)
C6LA C 0.8628(3) -0.3277(3) 0.3823(3)
H3LA H 0.8515 -0.3507 0.3723
C7LA C 0.8949(3) -0.3300(2) 0.4073(3)
H4LA H 0.9054 -0.3545 0.4141
C8LA C 0.8143(4) -0.2931(4) 0.3460(4)
C9LA C 0.7861(5) -0.2890(4) 0.3286(4)
C10LA C 0.7523(3) -0.2823(3) 0.3039(3)
C11LA C 0.7268(3) -0.2528(3) 0.3081(3)
H5LA H 0.7299 -0.2353 0.3291
O1LA O 0.95875(12) -0.32966(13) 0.46008(12)
O2LA O 0.96062(14) -0.25999(14) 0.45983(14)
C1C C 0.5478(3) 0.0516(2) 0.2951(3)
C2C C 0.57784(18) 0.08839(17) 0.2959(3)
C3C C 0.5879(2) 0.1038(2) 0.2596(2)
H1C H 0.5779 0.0925 0.2365
C4C C 0.6129(3) 0.1360(2) 0.2573(2)
H2C H 0.6197 0.1464 0.2328
C5C C 0.6277(2) 0.15263(19) 0.2914(3)
C6C C 0.6177(3) 0.1372(3) 0.3277(3)
H3C H 0.6277 0.1485 0.3507
C7C C 0.5927(3) 0.1051(3) 0.3300(2)
H4C H 0.5859 0.0946 0.3545
C8C C 0.6540(4) 0.1857(4) 0.2931(4)
C9C C 0.6714(4) 0.2139(5) 0.2890(4)
C10C C 0.6961(3) 0.2477(3) 0.2823(3)
C11C C 0.6919(3) 0.2732(3) 0.2528(3)
H5C H 0.6709 0.2701 0.2353
O1C O 0.53992(12) 0.04125(12) 0.32966(13)
O2C O 0.54017(14) 0.03938(14) 0.25999(14)
C1L C 0.7049(3) 0.4522(3) 0.0516(2)
C2L C 0.7041(3) 0.42216(18) 0.08839(17)
C3L C 0.7404(2) 0.4121(2) 0.1038(2)
H1L H 0.7635 0.4221 0.0925
C4L C 0.7427(2) 0.3871(3) 0.1360(2)
H2L H 0.7672 0.3803 0.1464
C5L C 0.7086(3) 0.3723(2) 0.15263(19)
C6L C 0.6723(3) 0.3823(3) 0.1372(3)
H3L H 0.6493 0.3723 0.1485
C7L C 0.6700(2) 0.4073(3) 0.1051(3)
H4L H 0.6455 0.4141 0.0946
C8L C 0.7069(4) 0.3460(4) 0.1857(4)
C9L C 0.7110(4) 0.3286(4) 0.2139(5)
C10L C 0.7177(3) 0.3039(3) 0.2477(3)
C11L C 0.7472(3) 0.3081(3) 0.2732(3)
H5L H 0.7647 0.3291 0.2701
O1L O 0.67034(13) 0.46008(12) 0.04125(12)
O2L O 0.74001(14) 0.45983(14) 0.03938(14)
C1I C 0.9484(2) 0.2951(3) 0.4522(3)
C2I C 0.91161(17) 0.2959(3) 0.42216(18)
C3I C 0.8962(2) 0.2596(2) 0.4121(2)
H1I H 0.9075 0.2365 0.4221
C4I C 0.8640(2) 0.2573(2) 0.3871(3)
H2I H 0.8536 0.2328 0.3803
C5I C 0.84737(19) 0.2914(3) 0.3723(2)
C6I C 0.8628(3) 0.3277(3) 0.3823(3)
H3I H 0.8515 0.3507 0.3723
C7I C 0.8949(3) 0.3300(2) 0.4073(3)
H4I H 0.9054 0.3545 0.4141
C8I C 0.8143(4) 0.2931(4) 0.3460(4)
C9I C 0.7861(5) 0.2890(4) 0.3286(4)
C10I C 0.7523(3) 0.2823(3) 0.3039(3)
C11I C 0.7268(3) 0.2528(3) 0.3081(3)
H5I H 0.7299 0.2353 0.3291
O1I O 0.95875(12) 0.32966(13) 0.46008(12)
O2I O 0.96062(14) 0.25999(14) 0.45983(14)
Cu1H Cu 0.33356(5) -0.5000 0.0000
Cu2H Cu 0.25705(6) -0.5000 0.0000
O3H O 0.3988(4) -0.5000 0.0000
O4H O 0.1930(3) -0.5000 0.0000
O1H O 0.32966(13) -0.53992(12) -0.04125(12)
O1HA_2 O 0.32966(13) -0.53992(12) 0.04125(12)
O1JA O 0.32966(13) -0.46008(12) -0.04125(12)
O2H O 0.25999(14) -0.54017(14) -0.03938(14)
O2HA_2 O 0.25999(14) -0.54017(14) 0.03938(14)
O2JA O 0.25999(14) -0.45983(14) -0.03938(14)
Cu1H_2 Cu 0.33356(5) 0.5000 0.0000
Cu1I Cu -0.0000 0.33356(5) 0.5000
Cu1I_2 Cu 1.0000 0.33356(5) 0.5000
Cu1J Cu 0.66644(5) -0.5000 0.0000
Cu1J_2 Cu 0.66644(5) 0.5000 0.0000
Cu1M Cu -0.0000 -0.33356(5) 0.5000
Cu1M_2 Cu 1.0000 -0.33356(5) 0.5000
Cu2H_2 Cu 0.25705(6) 0.5000 0.0000
Cu2I Cu -0.0000 0.25705(6) 0.5000
Cu2I_2 Cu 1.0000 0.25705(6) 0.5000
Cu2J Cu 0.74295(6) -0.5000 0.0000
Cu2J_2 Cu 0.74295(6) 0.5000 0.0000
Cu2M Cu -0.0000 -0.25705(6) 0.5000
Cu2M_2 Cu 1.0000 -0.25705(6) 0.5000
loop_
_geom_bond_atom_site_label_1
_geom_bond_atom_site_label_2
_geom_bond_site_symmetry_1
_geom_bond_site_symmetry_2
C1 C2 1_555 1_555
C2 C3 1_555 1_555
C3 H1 1_555 1_555
C4 C3 1_555 1_555
H2 C4 1_555 1_555
C5 C4 1_555 1_555
C6 C5 1_555 1_555
H3 C6 1_555 1_555
C7 C2 1_555 1_555
H4 C7 1_555 1_555
C8 C5 1_555 1_555
C9 C8 1_555 1_555
C10 C9 1_555 1_555
C11 C10 1_555 1_555
H5 C11 1_555 1_555
O1 C1 1_555 1_555
O2 C1 1_555 1_555
Cu1 O1 1_555 1_555
Cu2 O2 1_555 1_555
O3 Cu1 1_555 1_555
O4 Cu2 1_555 1_555
C1K C2K 1_555 1_555
C2K C3K 1_555 1_555
C3K H1K 1_555 1_555
C4K C3K 1_555 1_555
H2K C4K 1_555 1_555
C5K C4K 1_555 1_555
C6K C5K 1_555 1_555
H3K C6K 1_555 1_555
C7K C2K 1_555 1_555
H4K C7K 1_555 1_555
C8K C5K 1_555 1_555
C9K C8K 1_555 1_555
C10K C11 1_555 1_555
C11K C10K 1_555 1_555
H5K C11K 1_555 1_555
O1K C1K 1_555 1_555
O2K C1K 1_555 1_555
C1O C2O 1_555 1_555
C2O C3O 1_555 1_555
C3O H1O 1_555 1_555
C4O C3O 1_555 1_555
H2O C4O 1_555 1_555
C5O C4O 1_555 1_555
C6O C5O 1_555 1_555
H3O C6O 1_555 1_555
C7O C2O 1_555 1_555
H4O C7O 1_555 1_555
C8O C5O 1_555 1_555
C9O C8O 1_555 1_555
C10O C11K 1_555 1_555
C11O C10 1_555 1_555
H5O C11O 1_555 1_555
O1O C1O 1_555 1_555
O2O C1O 1_555 1_555
C1Z C2Z 1_555 1_555
C2Z C3Z 1_555 1_555
C3Z H1Z 1_555 1_555
C4Z C3Z 1_555 1_555
H2Z C4Z 1_555 1_555
C5Z C4Z 1_555 1_555
C6Z C5Z 1_555 1_555
H3Z C6Z 1_555 1_555
C7Z C2Z 1_555 1_555
H4Z C7Z 1_555 1_555
C8Z C5Z 1_555 1_555
C9Z C8Z 1_555 1_555
C10Z C9Z 1_555 1_555
C11Z C10Z 1_555 1_555
H5Z C11Z 1_555 1_555
O1Z Cu1 1_555 1_555
O2Z Cu2 1_555 1_555
C1HA C2HA 1_555 1_555
C2HA C3HA 1_555 1_555
C3HA H1HA 1_555 1_555
C4HA C3HA 1_555 1_555
H2HA C4HA 1_555 1_555
C5HA C4HA 1_555 1_555
C6HA C5HA 1_555 1_555
H3HA C6HA 1_555 1_555
C7HA C2HA 1_555 1_555
H4HA C7HA 1_555 1_555
C8HA C5HA 1_555 1_555
C9HA C8HA 1_555 1_555
C10HA C11Z 1_555 1_555
C11HA C10HA 1_555 1_555
H5HA C11HA 1_555 1_555
O1HA C1HA 1_555 1_555
O2HA C1HA 1_555 1_555
C1KA C2KA 1_555 1_555
C2KA C3KA 1_555 1_555
C3KA H1KA 1_555 1_555
C4KA C3KA 1_555 1_555
H2KA C4KA 1_555 1_555
C5KA C4KA 1_555 1_555
C6KA C5KA 1_555 1_555
H3KA C6KA 1_555 1_555
C7KA C2KA 1_555 1_555
H4KA C7KA 1_555 1_555
C8KA C5KA 1_555 1_555
C9KA C8KA 1_555 1_555
C10KA C11HA 1_555 1_555
C11KA C10Z 1_555 1_555
H5KA C11KA 1_555 1_555
O1KA C1KA 1_555 1_555
O2KA C1KA 1_555 1_555
C1BA C2BA 1_555 1_555
C2BA C3BA 1_555 1_555
C3BA H1BA 1_555 1_555
C4BA C3BA 1_555 1_555
H2BA C4BA 1_555 1_555
C5BA C4BA 1_555 1_555
C6BA C5BA 1_555 1_555
H3BA C6BA 1_555 1_555
C7BA C2BA 1_555 1_555
H4BA C7BA 1_555 1_555
C8BA C5BA 1_555 1_555
C9BA C8BA 1_555 1_555
C10BA C9BA 1_555 1_555
C11BA C10BA 1_555 1_555
H5BA C11BA 1_555 1_555
O1BA Cu1 1_555 1_555
O2BA Cu2 1_555 1_555
C1FA C2FA 1_555 1_555
C2FA C3FA 1_555 1_555
C3FA H1FA 1_555 1_555
C4FA C3FA 1_555 1_555
H2FA C4FA 1_555 1_555
C5FA C4FA 1_555 1_555
C6FA C5FA 1_555 1_555
H3FA C6FA 1_555 1_555
C7FA C2FA 1_555 1_555
H4FA C7FA 1_555 1_555
C8FA C5FA 1_555 1_555
C9FA C8FA 1_555 1_555
C10FA C11BA 1_555 1_555
C11FA C10FA 1_555 1_555
H5FA C11FA 1_555 1_555
O1FA C1FA 1_555 1_555
O2FA C1FA 1_555 1_555
C1LA C2LA 1_555 1_555
C2LA C3LA 1_555 1_555
C3LA H1LA 1_555 1_555
C4LA C3LA 1_555 1_555
H2LA C4LA 1_555 1_555
C5LA C4LA 1_555 1_555
C6LA C5LA 1_555 1_555
H3LA C6LA 1_555 1_555
C7LA C2LA 1_555 1_555
H4LA C7LA 1_555 1_555
C8LA C5LA 1_555 1_555
C9LA C8LA 1_555 1_555
C10LA C11FA 1_555 1_555
C11LA C10BA 1_555 1_555
H5LA C11LA 1_555 1_555
O1LA C1LA 1_555 1_555
O2LA C1LA 1_555 1_555
C1C C2C 1_555 1_555
C2C C3C 1_555 1_555
C3C H1C 1_555 1_555
C4C C3C 1_555 1_555
H2C C4C 1_555 1_555
C5C C4C 1_555 1_555
C6C C5C 1_555 1_555
H3C C6C 1_555 1_555
C7C C2C 1_555 1_555
H4C C7C 1_555 1_555
C8C C5C 1_555 1_555
C9C C8C 1_555 1_555
C10C C9C 1_555 1_555
C11C C10C 1_555 1_555
H5C C11C 1_555 1_555
O1C Cu1 1_555 1_555
O2C Cu2 1_555 1_555
C1L C2L 1_555 1_555
C2L C3L 1_555 1_555
C3L H1L 1_555 1_555
C4L C3L 1_555 1_555
H2L C4L 1_555 1_555
C5L C4L 1_555 1_555
C6L C5L 1_555 1_555
H3L C6L 1_555 1_555
C7L C2L 1_555 1_555
H4L C7L 1_555 1_555
C8L C5L 1_555 1_555
C9L C8L 1_555 1_555
C10L C11C 1_555 1_555
C11L C10L 1_555 1_555
H5L C11L 1_555 1_555
O1L C1L 1_555 1_555
O2L C1L 1_555 1_555
C1I C2I 1_555 1_555
C2I C3I 1_555 1_555
C3I H1I 1_555 1_555
C4I C3I 1_555 1_555
H2I C4I 1_555 1_555
C5I C4I 1_555 1_555
C6I C5I 1_555 1_555
H3I C6I 1_555 1_555
C7I C2I 1_555 1_555
H4I C7I 1_555 1_555
C8I C5I 1_555 1_555
C9I C8I 1_555 1_555
C10I C11L 1_555 1_555
C11I C10C 1_555 1_555
H5I C11I 1_555 1_555
O1I C1I 1_555 1_555
O2I C1I 1_555 1_555
Cu1H O1K 1_555 1_555
Cu2H O2K 1_555 1_555
O3H Cu1H 1_555 1_555
O4H Cu2H 1_555 1_555
O1H Cu1H 1_555 1_555
O1HA_2 Cu1H 1_555 1_555
O1JA Cu1H 1_555 1_555
O2H Cu2H 1_555 1_555
O2HA_2 Cu2H 1_555 1_555
O2JA Cu2H 1_555 1_555
Cu1H_2 O1HA 1_555 1_555
Cu1I O1KA 1_555 1_555
Cu1I_2 O1I 1_555 1_555
Cu1J O1FA 1_555 1_555
Cu1J_2 O1L 1_555 1_555
Cu1M O1O 1_555 1_555
Cu1M_2 O1LA 1_555 1_555
Cu2H_2 O2HA 1_555 1_555
Cu2I O2KA 1_555 1_555
Cu2I_2 O2I 1_555 1_555
Cu2J O2FA 1_555 1_555
Cu2J_2 O2L 1_555 1_555
Cu2M O2O 1_555 1_555
Cu2M_2 O2LA 1_555 1_555
C6 C7 1_555 1_555
Cu1 Cu2 1_555 1_555
C6K C7K 1_555 1_555
C9K C10K 1_555 1_555
C6O C7O 1_555 1_555
C9O C10O 1_555 1_555
C10O C11O 1_555 1_555
C1Z O1Z 1_555 1_555
C1Z O2Z 1_555 1_555
C6Z C7Z 1_555 1_555
C6HA C7HA 1_555 1_555
C9HA C10HA 1_555 1_555
C6KA C7KA 1_555 1_555
C9KA C10KA 1_555 1_555
C10KA C11KA 1_555 1_555
C1BA O1BA 1_555 1_555
C1BA O2BA 1_555 1_555
C6BA C7BA 1_555 1_555
C6FA C7FA 1_555 1_555
C9FA C10FA 1_555 1_555
C6LA C7LA 1_555 1_555
C9LA C10LA 1_555 1_555
C10LA C11LA 1_555 1_555
C1C O1C 1_555 1_555
C1C O2C 1_555 1_555
C6C C7C 1_555 1_555
C6L C7L 1_555 1_555
C9L C10L 1_555 1_555
C6I C7I 1_555 1_555
C9I C10I 1_555 1_555
C10I C11I 1_555 1_555
Cu1H Cu2H 1_555 1_555
Cu1H_2 Cu2H_2 1_555 1_555
Cu1I Cu2I 1_555 1_555
Cu1I_2 Cu2I_2 1_555 1_555
Cu1J Cu2J 1_555 1_555
Cu1J_2 Cu2J_2 1_555 1_555
Cu1M Cu2M 1_555 1_555
Cu1M_2 Cu2M_2 1_555 1_555

#END
