
#######################################################################
#
#                 Cambridge Crystallographic Data Centre
#                                CCDC 
#
#######################################################################
#
# If this CIF has been generated from an entry in the Cambridge 
# Structural Database, then it will include bibliographic, chemical, 
# crystal, experimental, refinement or atomic coordinate data resulting 
# from the CCDC's data processing and validation procedures.
#
#######################################################################

data_QIYDOT
_chemical_formula_moiety         '(C142 H76 Cu6 N2 O28)n'
_symmetry_cell_setting           tetragonal
_symmetry_space_group_name_H-M   'I 4/m c m'
_symmetry_Int_Tables_number      140
_space_group_name_Hall           '-I 4 2c'
loop_
_symmetry_equiv_pos_site_id
_symmetry_equiv_pos_as_xyz
1 x,y,z
2 -x,-y,z
3 -y,x,z
4 y,-x,z
5 -x,y,1/2-z
6 x,-y,1/2-z
7 y,x,1/2-z
8 -y,-x,1/2-z
9 1/2+x,1/2+y,1/2+z
10 1/2-x,1/2-y,1/2+z
11 1/2-y,1/2+x,1/2+z
12 1/2+y,1/2-x,1/2+z
13 1/2-x,1/2+y,-z
14 1/2+x,1/2-y,-z
15 1/2+y,1/2+x,-z
16 1/2-y,1/2-x,-z
17 -x,-y,-z
18 x,y,-z
19 y,-x,-z
20 -y,x,-z
21 x,-y,1/2+z
22 -x,y,1/2+z
23 -y,-x,1/2+z
24 y,x,1/2+z
25 1/2-x,1/2-y,1/2-z
26 1/2+x,1/2+y,1/2-z
27 1/2+y,1/2-x,1/2-z
28 1/2-y,1/2+x,1/2-z
29 1/2+x,1/2-y,z
30 1/2-x,1/2+y,z
31 1/2-y,1/2-x,z
32 1/2+y,1/2+x,z
_cell_length_a                   46.165(6)
_cell_length_b                   46.165(6)
_cell_length_c                   37.747(5)
_cell_angle_alpha                90
_cell_angle_beta                 90
_cell_angle_gamma                90
_cell_volume                     80446.7
loop_
_atom_site_label
_atom_site_type_symbol
_atom_site_fract_x
_atom_site_fract_y
_atom_site_fract_z
Cu1 Cu 0.87216(3) 0.62784(3) 0.0000
Cu2 Cu 0.91237(2) 0.58763(2) 0.0000
Cu3 Cu 0.5000 0.5000 0.21535(4)
O1 O 0.85411(11) 0.60463(15) 0.03625(14)
O2 O 0.88933(12) 0.56965(12) 0.03607(14)
O3 O 0.54171(11) 0.50140(10) 0.22006(10)
O4 O 0.83964(12) 0.66036(12) 0.0000
N1 N 0.94590(12) 0.55410(12) 0.0000
O5 O 0.5000 0.5000 0.15864(16)
C1 C 0.8666(3) 0.5804(3) 0.0471(2)
C2 C 0.85101(17) 0.56658(17) 0.07646(16)
C3 C 0.86297(13) 0.54306(17) 0.0942(2)
H1 H 0.8808 0.5353 0.0867
C4 C 0.84865(16) 0.53105(13) 0.1231(2)
H2 H 0.8567 0.5151 0.1350
C5 C 0.82236(16) 0.54256(15) 0.13419(16)
C6 C 0.81040(13) 0.56609(15) 0.1165(2)
H3 H 0.7926 0.5739 0.1240
C7 C 0.82473(18) 0.57809(13) 0.08760(19)
H4 H 0.8166 0.5940 0.0756
C8 C 0.8077(2) 0.5295(3) 0.1648(3)
C9 C 0.7945(3) 0.5189(3) 0.1912(4)
C10 C 0.7793(3) 0.5079(2) 0.2216(2)
C11 C 0.7499(3) 0.5084(2) 0.2182(2)
H5 H 0.7399 0.5138 0.1975
C12 C 0.7368(3) 0.5000 0.2500
C13 C 0.7953(3) 0.5000 0.2500
H6 H 0.8157 0.5000 0.2500
C14 C 0.7022(5) 0.5000 0.2500
C15 C 0.6735(6) 0.5000 0.2500
C16 C 0.6437(3) 0.5000 0.2500
C17 C 0.6303(3) 0.5011(2) 0.2162(2)
H7 H 0.6409 0.5015 0.1950
C18 C 0.6015(2) 0.50148(16) 0.2173(2)
H8 H 0.5910 0.5027 0.1959
C19 C 0.5861(2) 0.5000 0.2500
C20 C 0.5525(2) 0.5000 0.2500
C21 C 0.9759(3) 0.5628(3) 0.0000
H9 H 0.9808 0.5825 0.0000
C22 C 0.9986(3) 0.5406(3) 0.0000
H10 H 1.0183 0.5456 0.0000
C23 C 0.98952(15) 0.51048(15) 0.0000
O1E O 0.85411(11) 0.39537(15) 0.46375(14)
O2E O 0.88933(12) 0.43035(12) 0.46393(14)
O3E O 0.54171(11) 0.49860(10) 0.27994(10)
C1E C 0.8666(3) 0.4196(3) 0.4529(2)
C2E C 0.85101(17) 0.43342(17) 0.42354(16)
C3E C 0.86297(13) 0.45694(17) 0.4058(2)
H1E H 0.8808 0.4647 0.4133
C4E C 0.84865(16) 0.46895(13) 0.3769(2)
H2E H 0.8567 0.4849 0.3650
C5E C 0.82236(16) 0.45744(15) 0.36581(16)
C6E C 0.81040(13) 0.43391(15) 0.3835(2)
H3E H 0.7926 0.4261 0.3760
C7E C 0.82473(18) 0.42191(13) 0.41240(19)
H4E H 0.8166 0.4060 0.4244
C8E C 0.8077(2) 0.4705(3) 0.3352(3)
C9E C 0.7945(3) 0.4811(3) 0.3088(4)
C10E C 0.7793(3) 0.4921(2) 0.2784(2)
C11E C 0.7499(3) 0.4916(2) 0.2818(2)
H5E H 0.7399 0.4862 0.3025
C17E C 0.6303(3) 0.4989(2) 0.2838(2)
H7E H 0.6409 0.4985 0.3050
C18E C 0.6015(2) 0.49852(16) 0.2827(2)
H8E H 0.5910 0.4973 0.3041
N1A N 1.05410(12) 0.44590(12) 0.0000
C21A C 1.0241(3) 0.4372(3) 0.0000
H9A H 1.0192 0.4175 0.0000
C22A C 1.0014(3) 0.4594(3) 0.0000
H10A H 0.9817 0.4544 0.0000
C23A C 1.01048(15) 0.48952(15) 0.0000
C21N C 1.0628(3) 0.4759(3) 0.0000
H9N H 1.0825 0.4808 0.0000
C22N C 1.0406(3) 0.4986(3) 0.0000
H10N H 1.0456 0.5183 0.0000
C21O C 0.9372(3) 0.5241(3) 0.0000
H9O H 0.9175 0.5192 0.0000
C22O C 0.9594(3) 0.5014(3) 0.0000
H10O H 0.9544 0.4817 0.0000
Cu1A Cu 0.12784(3) 0.37216(3) 0.0000
Cu2A Cu 0.08763(2) 0.41237(2) 0.0000
O1A O 0.14589(11) 0.39537(15) 0.03625(14)
O2A O 0.11067(12) 0.43035(12) 0.03607(14)
O3A O 0.45829(11) 0.49860(10) 0.22006(10)
O4A O 0.16036(12) 0.33964(12) 0.0000
C1A C 0.1334(3) 0.4196(3) 0.0471(2)
C2A C 0.14899(17) 0.43342(17) 0.07646(16)
C3A C 0.13703(13) 0.45694(17) 0.0942(2)
H1A H 0.1192 0.4647 0.0867
C4A C 0.15135(16) 0.46895(13) 0.1231(2)
H2A H 0.1433 0.4849 0.1350
C5A C 0.17764(16) 0.45744(15) 0.13419(16)
C6A C 0.18960(13) 0.43391(15) 0.1165(2)
H3A H 0.2074 0.4261 0.1240
C7A C 0.17527(18) 0.42191(13) 0.08760(19)
H4A H 0.1834 0.4060 0.0756
C8A C 0.1923(2) 0.4705(3) 0.1648(3)
C9A C 0.2055(3) 0.4811(3) 0.1912(4)
C10A C 0.2207(3) 0.4921(2) 0.2216(2)
C11A C 0.2501(3) 0.4916(2) 0.2182(2)
H5A H 0.2601 0.4862 0.1975
C12A C 0.2632(3) 0.5000 0.2500
C13A C 0.2047(3) 0.5000 0.2500
H6A H 0.1843 0.5000 0.2500
C14A C 0.2978(5) 0.5000 0.2500
C15A C 0.3265(6) 0.5000 0.2500
C16A C 0.3563(3) 0.5000 0.2500
C17A C 0.3697(3) 0.4989(2) 0.2162(2)
H7A H 0.3591 0.4985 0.1950
C18A C 0.3985(2) 0.49852(16) 0.2173(2)
H8A H 0.4090 0.4973 0.1959
C19A C 0.4139(2) 0.5000 0.2500
C20A C 0.4475(2) 0.5000 0.2500
O1D O 0.14589(11) 0.60463(15) 0.46375(14)
O2D O 0.11067(12) 0.56965(12) 0.46393(14)
O3D O 0.45829(11) 0.50140(10) 0.27994(10)
C1D C 0.1334(3) 0.5804(3) 0.4529(2)
C2D C 0.14899(17) 0.56658(17) 0.42354(16)
C3D C 0.13703(13) 0.54306(17) 0.4058(2)
H1D H 0.1192 0.5353 0.4133
C4D C 0.15135(16) 0.53105(13) 0.3769(2)
H2D H 0.1433 0.5151 0.3650
C5D C 0.17764(16) 0.54256(15) 0.36581(16)
C6D C 0.18960(13) 0.56609(15) 0.3835(2)
H3D H 0.2074 0.5739 0.3760
C7D C 0.17527(18) 0.57809(13) 0.41240(19)
H4D H 0.1834 0.5940 0.4244
C8D C 0.1923(2) 0.5295(3) 0.3352(3)
C9D C 0.2055(3) 0.5189(3) 0.3088(4)
C10D C 0.2207(3) 0.5079(2) 0.2784(2)
C11D C 0.2501(3) 0.5084(2) 0.2818(2)
H5D H 0.2601 0.5138 0.3025
C17D C 0.3697(3) 0.5011(2) 0.2838(2)
H7D H 0.3591 0.5015 0.3050
C18D C 0.3985(2) 0.50148(16) 0.2827(2)
H8D H 0.4090 0.5027 0.3041
O1B O 0.39537(15) 0.85411(11) 0.03625(14)
O2B O 0.43035(12) 0.88933(12) 0.03607(14)
O3B O 0.49860(10) 0.54171(11) 0.22006(10)
C1B C 0.4196(3) 0.8666(3) 0.0471(2)
C2B C 0.43342(17) 0.85101(17) 0.07646(16)
C3B C 0.45694(17) 0.86297(13) 0.0942(2)
H1B H 0.4647 0.8808 0.0867
C4B C 0.46895(13) 0.84865(16) 0.1231(2)
H2B H 0.4849 0.8567 0.1350
C5B C 0.45744(15) 0.82236(16) 0.13419(16)
C6B C 0.43391(15) 0.81040(13) 0.1165(2)
H3B H 0.4261 0.7926 0.1240
C7B C 0.42191(13) 0.82473(18) 0.08760(19)
H4B H 0.4060 0.8166 0.0756
C8B C 0.4705(3) 0.8077(2) 0.1648(3)
C9B C 0.4811(3) 0.7945(3) 0.1912(4)
C10B C 0.4921(2) 0.7793(3) 0.2216(2)
C11B C 0.4916(2) 0.7499(3) 0.2182(2)
H5B H 0.4862 0.7399 0.1975
C12B C 0.5000 0.7368(3) 0.2500
C13B C 0.5000 0.7953(3) 0.2500
H6B H 0.5000 0.8157 0.2500
C14B C 0.5000 0.7022(5) 0.2500
C15B C 0.5000 0.6735(6) 0.2500
C16B C 0.5000 0.6437(3) 0.2500
C17B C 0.4989(2) 0.6303(3) 0.2162(2)
H7B H 0.4985 0.6409 0.1950
C18B C 0.49852(16) 0.6015(2) 0.2173(2)
H8B H 0.4973 0.5910 0.1959
C19B C 0.5000 0.5861(2) 0.2500
C20B C 0.5000 0.5525(2) 0.2500
O1F O 0.60463(15) 0.85411(11) 0.46375(14)
O2F O 0.56965(12) 0.88933(12) 0.46393(14)
O3F O 0.50140(10) 0.54171(11) 0.27994(10)
C1F C 0.5804(3) 0.8666(3) 0.4529(2)
C2F C 0.56658(17) 0.85101(17) 0.42354(16)
C3F C 0.54306(17) 0.86297(13) 0.4058(2)
H1F H 0.5353 0.8808 0.4133
C4F C 0.53105(13) 0.84865(16) 0.3769(2)
H2F H 0.5151 0.8567 0.3650
C5F C 0.54256(15) 0.82236(16) 0.36581(16)
C6F C 0.56609(15) 0.81040(13) 0.3835(2)
H3F H 0.5739 0.7926 0.3760
C7F C 0.57809(13) 0.82473(18) 0.41240(19)
H4F H 0.5940 0.8166 0.4244
C8F C 0.5295(3) 0.8077(2) 0.3352(3)
C9F C 0.5189(3) 0.7945(3) 0.3088(4)
C10F C 0.5079(2) 0.7793(3) 0.2784(2)
C11F C 0.5084(2) 0.7499(3) 0.2818(2)
H5F H 0.5138 0.7399 0.3025
C17F C 0.5011(2) 0.6303(3) 0.2838(2)
H7F H 0.5015 0.6409 0.3050
C18F C 0.50148(16) 0.6015(2) 0.2827(2)
H8F H 0.5027 0.5910 0.3041
O1C O 0.60463(15) 0.14589(11) 0.03625(14)
O2C O 0.56965(12) 0.11067(12) 0.03607(14)
O3C O 0.50140(10) 0.45829(11) 0.22006(10)
C1C C 0.5804(3) 0.1334(3) 0.0471(2)
C2C C 0.56658(17) 0.14899(17) 0.07646(16)
C3C C 0.54306(17) 0.13703(13) 0.0942(2)
H1C H 0.5353 0.1192 0.0867
C4C C 0.53105(13) 0.15135(16) 0.1231(2)
H2C H 0.5151 0.1433 0.1350
C5C C 0.54256(15) 0.17764(16) 0.13419(16)
C6C C 0.56609(15) 0.18960(13) 0.1165(2)
H3C H 0.5739 0.2074 0.1240
C7C C 0.57809(13) 0.17527(18) 0.08760(19)
H4C H 0.5940 0.1834 0.0756
C8C C 0.5295(3) 0.1923(2) 0.1648(3)
C9C C 0.5189(3) 0.2055(3) 0.1912(4)
C10C C 0.5079(2) 0.2207(3) 0.2216(2)
C11C C 0.5084(2) 0.2501(3) 0.2182(2)
H5C H 0.5138 0.2601 0.1975
C12C C 0.5000 0.2632(3) 0.2500
C13C C 0.5000 0.2047(3) 0.2500
H6C H 0.5000 0.1843 0.2500
C14C C 0.5000 0.2978(5) 0.2500
C15C C 0.5000 0.3265(6) 0.2500
C16C C 0.5000 0.3563(3) 0.2500
C17C C 0.5011(2) 0.3697(3) 0.2162(2)
H7C H 0.5015 0.3591 0.1950
C18C C 0.50148(16) 0.3985(2) 0.2173(2)
H8C H 0.5027 0.4090 0.1959
C19C C 0.5000 0.4139(2) 0.2500
C20C C 0.5000 0.4475(2) 0.2500
O1G O 0.39537(15) 0.14589(11) 0.46375(14)
O2G O 0.43035(12) 0.11067(12) 0.46393(14)
O3G O 0.49860(10) 0.45829(11) 0.27994(10)
C1G C 0.4196(3) 0.1334(3) 0.4529(2)
C2G C 0.43342(17) 0.14899(17) 0.42354(16)
C3G C 0.45694(17) 0.13703(13) 0.4058(2)
H1G H 0.4647 0.1192 0.4133
C4G C 0.46895(13) 0.15135(16) 0.3769(2)
H2G H 0.4849 0.1433 0.3650
C5G C 0.45744(15) 0.17764(16) 0.36581(16)
C6G C 0.43391(15) 0.18960(13) 0.3835(2)
H3G H 0.4261 0.2074 0.3760
C7G C 0.42191(13) 0.17527(18) 0.41240(19)
H4G H 0.4060 0.1834 0.4244
C8G C 0.4705(3) 0.1923(2) 0.3352(3)
C9G C 0.4811(3) 0.2055(3) 0.3088(4)
C10G C 0.4921(2) 0.2207(3) 0.2784(2)
C11G C 0.4916(2) 0.2501(3) 0.2818(2)
H5G H 0.4862 0.2601 0.3025
C17G C 0.4989(2) 0.3697(3) 0.2838(2)
H7G H 0.4985 0.3591 0.3050
C18G C 0.49852(16) 0.3985(2) 0.2827(2)
H8G H 0.4973 0.4090 0.3041
Cu3D Cu 0.5000 0.5000 0.28465(4)
O5D O 0.5000 0.5000 0.34136(16)
Cu1B Cu 0.37216(3) 0.87216(3) 0.0000
Cu1C Cu 0.62784(3) 0.12784(3) 0.0000
Cu1D Cu 0.12784(3) 0.62784(3) 0.5000
Cu1E Cu 0.87216(3) 0.37216(3) 0.5000
Cu1F Cu 0.62784(3) 0.87216(3) 0.5000
Cu1G Cu 0.37216(3) 0.12784(3) 0.5000
Cu2A_2 Cu 1.08763(2) 0.41237(2) 0.0000
Cu2B Cu 0.41237(2) 0.91237(2) 0.0000
Cu2C Cu 0.58763(2) 0.08763(2) 0.0000
Cu2D Cu 0.08763(2) 0.58763(2) 0.5000
Cu2E Cu 0.91237(2) 0.41237(2) 0.5000
Cu2F Cu 0.58763(2) 0.91237(2) 0.5000
Cu2G Cu 0.41237(2) 0.08763(2) 0.5000
O1N O 0.10463(15) 0.35411(11) -0.03625(14)
O1O O 0.89537(15) 0.64589(11) -0.03625(14)
O1P O 0.14589(11) 0.39537(15) -0.03625(14)
O1Q O 0.85411(11) 0.60463(15) -0.03625(14)
O1DA O 0.89537(15) 0.64589(11) 0.03625(14)
O1EA O 0.10463(15) 0.35411(11) 0.03625(14)
O2N O 0.06965(12) 0.38933(12) -0.03607(14)
O2O O 0.93035(12) 0.61067(12) -0.03607(14)
O2P O 0.11067(12) 0.43035(12) -0.03607(14)
O2Q O 0.88933(12) 0.56965(12) -0.03607(14)
O2DA O 0.93035(12) 0.61067(12) 0.03607(14)
O2EA O 0.06965(12) 0.38933(12) 0.03607(14)
N1A_2 N 0.05410(12) 0.44590(12) 0.0000
loop_
_geom_bond_atom_site_label_1
_geom_bond_atom_site_label_2
_geom_bond_site_symmetry_1
_geom_bond_site_symmetry_2
Cu1 Cu2 1_555 1_555
Cu2 O2 1_555 1_555
Cu3 O3 1_555 1_555
O1 Cu1 1_555 1_555
O2 C1 1_555 1_555
O3 C20 1_555 1_555
O4 Cu1 1_555 1_555
N1 Cu2 1_555 1_555
O5 Cu3 1_555 1_555
C1 O1 1_555 1_555
C2 C1 1_555 1_555
C3 C2 1_555 1_555
H1 C3 1_555 1_555
C4 C3 1_555 1_555
H2 C4 1_555 1_555
C5 C4 1_555 1_555
C6 C5 1_555 1_555
H3 C6 1_555 1_555
C7 C2 1_555 1_555
H4 C7 1_555 1_555
C8 C5 1_555 1_555
C9 C8 1_555 1_555
C10 C9 1_555 1_555
C11 C10 1_555 1_555
H5 C11 1_555 1_555
C12 C11 1_555 1_555
C13 C10 1_555 1_555
H6 C13 1_555 1_555
C14 C12 1_555 1_555
C15 C14 1_555 1_555
C16 C15 1_555 1_555
C17 C16 1_555 1_555
H7 C17 1_555 1_555
C18 C17 1_555 1_555
H8 C18 1_555 1_555
C19 C18 1_555 1_555
C20 C19 1_555 1_555
C21 N1 1_555 1_555
H9 C21 1_555 1_555
C22 C21 1_555 1_555
H10 C22 1_555 1_555
C23 C22 1_555 1_555
O1E C1E 1_555 1_555
O2E C1E 1_555 1_555
O3E C20 1_555 1_555
C1E C2E 1_555 1_555
C2E C3E 1_555 1_555
C3E H1E 1_555 1_555
C4E C3E 1_555 1_555
H2E C4E 1_555 1_555
C5E C4E 1_555 1_555
C6E C5E 1_555 1_555
H3E C6E 1_555 1_555
C7E C2E 1_555 1_555
H4E C7E 1_555 1_555
C8E C5E 1_555 1_555
C9E C8E 1_555 1_555
C10E C13 1_555 1_555
C11E C12 1_555 1_555
H5E C11E 1_555 1_555
C17E C16 1_555 1_555
H7E C17E 1_555 1_555
C18E C19 1_555 1_555
H8E C18E 1_555 1_555
N1A C21A 1_555 1_555
C21A H9A 1_555 1_555
C22A C21A 1_555 1_555
H10A C22A 1_555 1_555
C23A C23 1_555 1_555
C21N N1A 1_555 1_555
H9N C21N 1_555 1_555
C22N C23A 1_555 1_555
H10N C22N 1_555 1_555
C21O N1 1_555 1_555
H9O C21O 1_555 1_555
C22O C23 1_555 1_555
H10O C22O 1_555 1_555
Cu1A Cu2A 1_555 1_555
Cu2A O2A 1_555 1_555
O1A Cu1A 1_555 1_555
O2A C1A 1_555 1_555
O3A Cu3 1_555 1_555
O4A Cu1A 1_555 1_555
C1A O1A 1_555 1_555
C2A C1A 1_555 1_555
C3A C2A 1_555 1_555
H1A C3A 1_555 1_555
C4A C3A 1_555 1_555
H2A C4A 1_555 1_555
C5A C4A 1_555 1_555
C6A C5A 1_555 1_555
H3A C6A 1_555 1_555
C7A C2A 1_555 1_555
H4A C7A 1_555 1_555
C8A C5A 1_555 1_555
C9A C8A 1_555 1_555
C10A C9A 1_555 1_555
C11A C10A 1_555 1_555
H5A C11A 1_555 1_555
C12A C11A 1_555 1_555
C13A C10A 1_555 1_555
H6A C13A 1_555 1_555
C14A C12A 1_555 1_555
C15A C14A 1_555 1_555
C16A C15A 1_555 1_555
C17A C16A 1_555 1_555
H7A C17A 1_555 1_555
C18A C17A 1_555 1_555
H8A C18A 1_555 1_555
C19A C18A 1_555 1_555
C20A O3A 1_555 1_555
O1D C1D 1_555 1_555
O2D C1D 1_555 1_555
O3D C20A 1_555 1_555
C1D C2D 1_555 1_555
C2D C3D 1_555 1_555
C3D H1D 1_555 1_555
C4D C3D 1_555 1_555
H2D C4D 1_555 1_555
C5D C4D 1_555 1_555
C6D C5D 1_555 1_555
H3D C6D 1_555 1_555
C7D C2D 1_555 1_555
H4D C7D 1_555 1_555
C8D C5D 1_555 1_555
C9D C8D 1_555 1_555
C10D C13A 1_555 1_555
C11D C12A 1_555 1_555
H5D C11D 1_555 1_555
C17D C16A 1_555 1_555
H7D C17D 1_555 1_555
C18D C19A 1_555 1_555
H8D C18D 1_555 1_555
O1B C1B 1_555 1_555
O2B C1B 1_555 1_555
O3B Cu3 1_555 1_555
C1B C2B 1_555 1_555
C2B C3B 1_555 1_555
C3B H1B 1_555 1_555
C4B C3B 1_555 1_555
H2B C4B 1_555 1_555
C5B C4B 1_555 1_555
C6B C5B 1_555 1_555
H3B C6B 1_555 1_555
C7B C2B 1_555 1_555
H4B C7B 1_555 1_555
C8B C5B 1_555 1_555
C9B C8B 1_555 1_555
C10B C9B 1_555 1_555
C11B C10B 1_555 1_555
H5B C11B 1_555 1_555
C12B C11B 1_555 1_555
C13B C10B 1_555 1_555
H6B C13B 1_555 1_555
C14B C12B 1_555 1_555
C15B C14B 1_555 1_555
C16B C15B 1_555 1_555
C17B C16B 1_555 1_555
H7B C17B 1_555 1_555
C18B C17B 1_555 1_555
H8B C18B 1_555 1_555
C19B C18B 1_555 1_555
C20B O3B 1_555 1_555
O1F C1F 1_555 1_555
O2F C1F 1_555 1_555
O3F C20B 1_555 1_555
C1F C2F 1_555 1_555
C2F C3F 1_555 1_555
C3F H1F 1_555 1_555
C4F C3F 1_555 1_555
H2F C4F 1_555 1_555
C5F C4F 1_555 1_555
C6F C5F 1_555 1_555
H3F C6F 1_555 1_555
C7F C2F 1_555 1_555
H4F C7F 1_555 1_555
C8F C5F 1_555 1_555
C9F C8F 1_555 1_555
C10F C13B 1_555 1_555
C11F C12B 1_555 1_555
H5F C11F 1_555 1_555
C17F C16B 1_555 1_555
H7F C17F 1_555 1_555
C18F C19B 1_555 1_555
H8F C18F 1_555 1_555
O1C C1C 1_555 1_555
O2C C1C 1_555 1_555
O3C Cu3 1_555 1_555
C1C C2C 1_555 1_555
C2C C3C 1_555 1_555
C3C H1C 1_555 1_555
C4C C3C 1_555 1_555
H2C C4C 1_555 1_555
C5C C4C 1_555 1_555
C6C C5C 1_555 1_555
H3C C6C 1_555 1_555
C7C C2C 1_555 1_555
H4C C7C 1_555 1_555
C8C C5C 1_555 1_555
C9C C8C 1_555 1_555
C10C C9C 1_555 1_555
C11C C10C 1_555 1_555
H5C C11C 1_555 1_555
C12C C11C 1_555 1_555
C13C C10C 1_555 1_555
H6C C13C 1_555 1_555
C14C C12C 1_555 1_555
C15C C14C 1_555 1_555
C16C C15C 1_555 1_555
C17C C16C 1_555 1_555
H7C C17C 1_555 1_555
C18C C17C 1_555 1_555
H8C C18C 1_555 1_555
C19C C18C 1_555 1_555
C20C O3C 1_555 1_555
O1G C1G 1_555 1_555
O2G C1G 1_555 1_555
O3G C20C 1_555 1_555
C1G C2G 1_555 1_555
C2G C3G 1_555 1_555
C3G H1G 1_555 1_555
C4G C3G 1_555 1_555
H2G C4G 1_555 1_555
C5G C4G 1_555 1_555
C6G C5G 1_555 1_555
H3G C6G 1_555 1_555
C7G C2G 1_555 1_555
H4G C7G 1_555 1_555
C8G C5G 1_555 1_555
C9G C8G 1_555 1_555
C10G C13C 1_555 1_555
C11G C12C 1_555 1_555
H5G C11G 1_555 1_555
C17G C16C 1_555 1_555
H7G C17G 1_555 1_555
C18G C19C 1_555 1_555
H8G C18G 1_555 1_555
Cu3D Cu3 1_555 1_555
O5D Cu3D 1_555 1_555
Cu1B O1B 1_555 1_555
Cu1C O1C 1_555 1_555
Cu1D O1D 1_555 1_555
Cu1E O1E 1_555 1_555
Cu1F O1F 1_555 1_555
Cu1G O1G 1_555 1_555
Cu2A_2 N1A 1_555 1_555
Cu2B O2B 1_555 1_555
Cu2C O2C 1_555 1_555
Cu2D O2D 1_555 1_555
Cu2E O2E 1_555 1_555
Cu2F O2F 1_555 1_555
Cu2G O2G 1_555 1_555
O1N Cu1A 1_555 1_555
O1O Cu1 1_555 1_555
O1P Cu1A 1_555 1_555
O1Q Cu1 1_555 1_555
O1DA Cu1 1_555 1_555
O1EA Cu1A 1_555 1_555
O2N Cu2A 1_555 1_555
O2O Cu2 1_555 1_555
O2P Cu2A 1_555 1_555
O2Q Cu2 1_555 1_555
O2DA Cu2 1_555 1_555
O2EA Cu2A 1_555 1_555
N1A_2 Cu2A 1_555 1_555
C6 C7 1_555 1_555
O3E Cu3D 1_555 1_555
C6E C7E 1_555 1_555
C9E C10E 1_555 1_555
C10E C11E 1_555 1_555
C17E C18E 1_555 1_555
C22A C23A 1_555 1_555
C21N C22N 1_555 1_555
C21O C22O 1_555 1_555
C6A C7A 1_555 1_555
C19A C20A 1_555 1_555
O3D Cu3D 1_555 1_555
C6D C7D 1_555 1_555
C9D C10D 1_555 1_555
C10D C11D 1_555 1_555
C17D C18D 1_555 1_555
C6B C7B 1_555 1_555
C19B C20B 1_555 1_555
O3F Cu3D 1_555 1_555
C6F C7F 1_555 1_555
C9F C10F 1_555 1_555
C10F C11F 1_555 1_555
C17F C18F 1_555 1_555
C6C C7C 1_555 1_555
C19C C20C 1_555 1_555
O3G Cu3D 1_555 1_555
C6G C7G 1_555 1_555
C9G C10G 1_555 1_555
C10G C11G 1_555 1_555
C17G C18G 1_555 1_555
Cu1B Cu2B 1_555 1_555
Cu1C Cu2C 1_555 1_555
Cu1D Cu2D 1_555 1_555
Cu1E Cu2E 1_555 1_555
Cu1F Cu2F 1_555 1_555
Cu1G Cu2G 1_555 1_555

#END
