
#######################################################################
#
#                 Cambridge Crystallographic Data Centre
#                                CCDC 
#
#######################################################################
#
# If this CIF has been generated from an entry in the Cambridge 
# Structural Database, then it will include bibliographic, chemical, 
# crystal, experimental, refinement or atomic coordinate data resulting 
# from the CCDC's data processing and validation procedures.
#
#######################################################################

data_YUMFES
_chemical_formula_moiety         '(C54 H38 Co3 N12 O16 S6)n'
_symmetry_cell_setting           monoclinic
_symmetry_space_group_name_H-M   'C 2/c'
_symmetry_Int_Tables_number      15
_space_group_name_Hall           '-C 2yc'
loop_
_symmetry_equiv_pos_site_id
_symmetry_equiv_pos_as_xyz
1 x,y,z
2 -x,y,1/2-z
3 1/2+x,1/2+y,z
4 1/2-x,1/2+y,1/2-z
5 -x,-y,-z
6 x,-y,1/2+z
7 1/2-x,1/2-y,-z
8 1/2+x,1/2-y,1/2+z
_cell_length_a                   24.1418(8)
_cell_length_b                   17.5088(6)
_cell_length_c                   14.4562(5)
_cell_angle_alpha                90
_cell_angle_beta                 96.0390(10)
_cell_angle_gamma                90
_cell_volume                     6076.64
loop_
_atom_site_label
_atom_site_type_symbol
_atom_site_fract_x
_atom_site_fract_y
_atom_site_fract_z
Co1 Co -0.199190(10) 1.062140(14) 1.215820(16)
Co2 Co -0.0000 0.608078(19) 0.7500
C1 C -0.11350(8) 1.00946(10) 1.15529(12)
C2 C -0.06514(7) 0.97210(10) 1.11740(12)
C3 C -0.01089(8) 0.99332(11) 1.13786(12)
H1 H 0.0014 1.0349 1.1770
C4 C -0.02663(7) 0.88544(10) 1.03415(13)
C5 C -0.02165(7) 0.82178(10) 0.96945(13)
C6 C 0.02841(8) 0.80446(11) 0.93489(14)
H2 H 0.0607 0.8341 0.9529
C7 C 0.03103(8) 0.74399(11) 0.87429(14)
H3 H 0.0657 0.7330 0.8516
C8 C -0.06171(8) 0.71784(10) 0.87774(13)
H4 H -0.0937 0.6884 0.8569
C9 C -0.06771(7) 0.77713(10) 0.93955(13)
H5 H -0.1028 0.7871 0.9612
N1 N -0.07390(6) 0.91093(8) 1.05774(11)
N2 N -0.01305(6) 0.69985(8) 0.84586(11)
O1 O -0.16239(5) 0.99018(7) 1.12283(9)
O2 O -0.10521(6) 1.05752(7) 1.21908(9)
S1 S 0.031610(19) 0.93507(3) 1.08376(3)
C10 C -0.19440(7) 1.21474(10) 1.28889(13)
C11 C -0.19087(7) 1.22647(10) 1.18671(12)
C12 C -0.18110(7) 1.29366(11) 1.14538(13)
H6 H -0.1776 1.3416 1.1763
C13 C -0.18853(7) 1.18333(10) 1.04253(12)
C14 C -0.19322(7) 1.13110(10) 0.96283(12)
C15 C -0.16460(8) 1.14468(11) 0.88544(13)
H7 H -0.1421 1.1889 0.8827
C16 C -0.16947(8) 1.09289(11) 0.81287(13)
H8 H -0.1499 1.1028 0.7605
C17 C -0.23038(7) 1.01912(10) 0.88562(12)
H9 H -0.2545 0.9762 0.8850
C18 C -0.22775(7) 1.06771(10) 0.96073(12)
H10 H -0.2494 1.0579 1.0107
S2 S -0.175910(19) 1.28000(3) 1.02976(3)
N3 N -0.19530(6) 1.16351(8) 1.12843(10)
N4 N -0.20053(6) 1.02932(8) 0.81284(10)
O3 O -0.19954(5) 1.14494(7) 1.31408(8)
O4 O -0.19150(6) 1.27098(8) 1.33970(9)
C19 C -0.09629(8) 0.54954(11) 0.63999(14)
C20 C -0.05212(7) 0.49312(10) 0.62066(13)
C21 C -0.06118(8) 0.42302(11) 0.58205(13)
H11 H -0.0966 0.4032 0.5591
C22 C 0.03560(7) 0.45325(10) 0.63222(12)
C23 C 0.09685(7) 0.45143(10) 0.65207(12)
C24 C 0.12348(8) 0.38418(10) 0.68254(13)
H12 H 0.1025 0.3395 0.6920
C25 C 0.18079(8) 0.38345(11) 0.69874(13)
H13 H 0.1986 0.3373 0.7196
C26 C 0.18653(8) 0.50964(10) 0.65781(13)
H14 H 0.2084 0.5538 0.6494
C27 C 0.12941(8) 0.51504(11) 0.64000(13)
H15 H 0.1125 0.5620 0.6196
N5 N 0.00282(6) 0.51036(8) 0.64931(10)
N6 N 0.21276(6) 0.44474(8) 0.68660(10)
O5 O -0.08020(5) 0.60239(7) 0.69813(9)
O6 O -0.14371(6) 0.54155(8) 0.60120(12)
S3 S 0.00041(2) 0.37566(3) 0.58082(4)
Co1A Co 0.199190(10) 1.062140(14) 0.284180(16)
Co1E Co -0.199190(10) 0.937860(14) 0.715820(16)
Co1G Co 0.300810(10) 0.437860(14) 0.715820(16)
Co1F Co -0.300810(10) 0.437860(14) 0.784180(16)
Co1E_2 Co -0.199190(10) 0.937860(14) 1.715820(16)
C1A C 0.11350(8) 1.00946(10) 0.34471(12)
C2A C 0.06514(7) 0.97210(10) 0.38260(12)
C3A C 0.01089(8) 0.99332(11) 0.36214(12)
H1A H -0.0014 1.0349 0.3230
C4A C 0.02663(7) 0.88544(10) 0.46585(13)
C5A C 0.02165(7) 0.82178(10) 0.53055(13)
C6A C -0.02841(8) 0.80446(11) 0.56511(14)
H2A H -0.0607 0.8341 0.5471
C7A C -0.03103(8) 0.74399(11) 0.62571(14)
H3A H -0.0657 0.7330 0.6484
C8A C 0.06171(8) 0.71784(10) 0.62226(13)
H4A H 0.0937 0.6884 0.6431
C9A C 0.06771(7) 0.77713(10) 0.56045(13)
H5A H 0.1028 0.7871 0.5388
N1A N 0.07390(6) 0.91093(8) 0.44226(11)
N2A N 0.01305(6) 0.69985(8) 0.65414(11)
O1A O 0.16239(5) 0.99018(7) 0.37717(9)
O2A O 0.10521(6) 1.05752(7) 0.28092(9)
S1A S -0.031610(19) 0.93507(3) 0.41624(3)
C10E C -0.19440(7) 0.78526(10) 1.78889(13)
C11E C -0.19087(7) 0.77353(10) 1.68671(12)
C12E C -0.18110(7) 0.70634(11) 1.64538(13)
H6E H -0.1776 0.6584 1.6763
C13E C -0.18853(7) 0.81667(10) 1.54253(12)
C14E C -0.19322(7) 0.86890(10) 1.46283(12)
C15E C -0.16460(8) 0.85532(11) 1.38544(13)
H7E H -0.1421 0.8111 1.3827
C16E C -0.16947(8) 0.90711(11) 1.31287(13)
H8E H -0.1499 0.8972 1.2605
C17E C -0.23038(7) 0.98088(10) 1.38562(12)
H9E H -0.2545 1.0238 1.3850
C18E C -0.22775(7) 0.93229(10) 1.46073(12)
H10E H -0.2494 0.9421 1.5107
S2E S -0.175910(19) 0.72000(3) 1.52976(3)
N3E N -0.19530(6) 0.83649(8) 1.62843(10)
N3A N 0.19530(6) 1.16351(8) 0.37157(10)
N4E N -0.20053(6) 0.97068(8) 1.31284(10)
N4D N 0.20053(6) 0.97068(8) 0.18716(10)
O3E O -0.19954(5) 0.85506(7) 1.81408(8)
O3A O 0.19954(5) 1.14494(7) 0.18592(8)
O4E O -0.19150(6) 0.72902(8) 1.83970(9)
C19A C 0.09629(8) 0.54954(11) 0.86001(14)
C20A C 0.05212(7) 0.49312(10) 0.87934(13)
C21A C 0.06118(8) 0.42302(11) 0.91795(13)
H11A H 0.0966 0.4032 0.9409
C22A C -0.03560(7) 0.45325(10) 0.86778(12)
C23A C -0.09685(7) 0.45143(10) 0.84793(12)
C24A C -0.12348(8) 0.38418(10) 0.81746(13)
H12A H -0.1025 0.3395 0.8080
C25A C -0.18079(8) 0.38345(11) 0.80126(13)
H13A H -0.1986 0.3373 0.7804
C26A C -0.18653(8) 0.50964(10) 0.84219(13)
H14A H -0.2084 0.5538 0.8506
C27A C -0.12941(8) 0.51504(11) 0.86000(13)
H15A H -0.1125 0.5620 0.8804
N5A N -0.00282(6) 0.51036(8) 0.85069(10)
N6A N -0.21276(6) 0.44474(8) 0.81340(10)
N6G N -0.28724(6) 1.05526(8) 1.18660(10)
N6F N 0.28724(6) 1.05526(8) 0.31340(10)
O5A O 0.08020(5) 0.60239(7) 0.80187(9)
O6A O 0.14371(6) 0.54155(8) 0.89880(12)
S3A S -0.00041(2) 0.37566(3) 0.91918(4)
O7 O 0.31930(6) 0.84662(9) 0.50576(10)
H16 H 0.2836(7) 0.8595(15) 0.5111(19)
H17 H 0.3160(13) 0.8155(15) 0.4550(15)
O8 O 0.20473(6) 0.86828(8) 0.48963(10)
H18 H 0.1958(13) 0.8619(17) 0.5483(12)
H19 H 0.1851(11) 0.9062(13) 0.4601(19)
O9 O 0.15694(8) 0.75835(10) 0.35172(12)
H20 H 0.1621(11) 0.7200(12) 0.3934(16)
H21 H 0.1699(13) 0.7928(16) 0.3950(19)
O10 O 0.06036(8) 0.78199(12) 0.23953(17)
H22 H 0.0883(8) 0.7705(13) 0.2848(14)
H23 H 0.0237 0.7787 0.2464
loop_
_geom_bond_atom_site_label_1
_geom_bond_atom_site_label_2
_geom_bond_site_symmetry_1
_geom_bond_site_symmetry_2
Co1 O1 1_555 1_555
Co2 N2 1_555 1_555
C1 C2 1_555 1_555
C2 C3 1_555 1_555
C3 H1 1_555 1_555
C4 C5 1_555 1_555
C5 C6 1_555 1_555
C6 H2 1_555 1_555
C7 C6 1_555 1_555
H3 C7 1_555 1_555
C8 H4 1_555 1_555
C9 C5 1_555 1_555
H5 C9 1_555 1_555
N1 C2 1_555 1_555
N2 C7 1_555 1_555
O1 C1 1_555 1_555
O2 Co1 1_555 1_555
S1 C3 1_555 1_555
C10 C11 1_555 1_555
C11 C12 1_555 1_555
C12 H6 1_555 1_555
C13 C14 1_555 1_555
C14 C15 1_555 1_555
C15 H7 1_555 1_555
C16 C15 1_555 1_555
H8 C16 1_555 1_555
C17 H9 1_555 1_555
C18 C14 1_555 1_555
H10 C18 1_555 1_555
S2 C12 1_555 1_555
N3 Co1 1_555 1_555
N4 C16 1_555 1_555
O3 Co1 1_555 1_555
O4 C10 1_555 1_555
C19 C20 1_555 1_555
C20 C21 1_555 1_555
C21 H11 1_555 1_555
C22 C23 1_555 1_555
C23 C24 1_555 1_555
C24 H12 1_555 1_555
C25 C24 1_555 1_555
H13 C25 1_555 1_555
C26 H14 1_555 1_555
C27 C23 1_555 1_555
H15 C27 1_555 1_555
N5 Co2 1_555 1_555
N6 C25 1_555 1_555
O5 Co2 1_555 1_555
O6 C19 1_555 1_555
S3 C21 1_555 1_555
O7 H16 1_555 1_555
H17 O7 1_555 1_555
O8 H18 1_555 1_555
H19 O8 1_555 1_555
O9 H20 1_555 1_555
H21 O9 1_555 1_555
O10 H22 1_555 1_555
H23 O10 1_555 1_555
Co1A O1A 1_555 1_555
Co1E N4 1_555 1_555
Co1G N6 1_555 1_555
Co1F N6A 1_555 1_555
Co1E_2 N3E 1_555 1_555
C1A C2A 1_555 1_555
C2A C3A 1_555 1_555
C3A H1A 1_555 1_555
C4A C5A 1_555 1_555
C5A C6A 1_555 1_555
C6A H2A 1_555 1_555
C7A C6A 1_555 1_555
H3A C7A 1_555 1_555
C8A H4A 1_555 1_555
C9A C5A 1_555 1_555
H5A C9A 1_555 1_555
N1A C2A 1_555 1_555
N2A Co2 1_555 1_555
O1A C1A 1_555 1_555
O2A Co1A 1_555 1_555
S1A C3A 1_555 1_555
C10E C11E 1_555 1_555
C11E C12E 1_555 1_555
C12E H6E 1_555 1_555
C13E C14E 1_555 1_555
C14E C15E 1_555 1_555
C15E H7E 1_555 1_555
C16E C15E 1_555 1_555
H8E C16E 1_555 1_555
C17E H9E 1_555 1_555
C18E C14E 1_555 1_555
H10E C18E 1_555 1_555
S2E C12E 1_555 1_555
N3E C11E 1_555 1_555
N3A Co1A 1_555 1_555
N4E Co1 1_555 1_555
N4D Co1A 1_555 1_555
O3E Co1E_2 1_555 1_555
O3A Co1A 1_555 1_555
O4E C10E 1_555 1_555
C19A C20A 1_555 1_555
C20A C21A 1_555 1_555
C21A H11A 1_555 1_555
C22A C23A 1_555 1_555
C23A C24A 1_555 1_555
C24A H12A 1_555 1_555
C25A C24A 1_555 1_555
H13A C25A 1_555 1_555
C26A H14A 1_555 1_555
C27A C23A 1_555 1_555
H15A C27A 1_555 1_555
N5A Co2 1_555 1_555
N6A C25A 1_555 1_555
N6G Co1 1_555 1_555
N6F Co1A 1_555 1_555
O5A Co2 1_555 1_555
O6A C19A 1_555 1_555
S3A C21A 1_555 1_555
C1 O2 1_555 1_555
C4 N1 1_555 1_555
C4 S1 1_555 1_555
C8 C9 1_555 1_555
C8 N2 1_555 1_555
C10 O3 1_555 1_555
C11 N3 1_555 1_555
C13 S2 1_555 1_555
C13 N3 1_555 1_555
C17 C18 1_555 1_555
C17 N4 1_555 1_555
C19 O5 1_555 1_555
C20 N5 1_555 1_555
C22 N5 1_555 1_555
C22 S3 1_555 1_555
C26 C27 1_555 1_555
C26 N6 1_555 1_555
C1A O2A 1_555 1_555
C4A N1A 1_555 1_555
C4A S1A 1_555 1_555
C7A N2A 1_555 1_555
C8A C9A 1_555 1_555
C8A N2A 1_555 1_555
C10E O3E 1_555 1_555
C13E S2E 1_555 1_555
C13E N3E 1_555 1_555
C16E N4E 1_555 1_555
C17E C18E 1_555 1_555
C17E N4E 1_555 1_555
C19A O5A 1_555 1_555
C20A N5A 1_555 1_555
C22A N5A 1_555 1_555
C22A S3A 1_555 1_555
C26A C27A 1_555 1_555
C26A N6A 1_555 1_555

#END
