
#######################################################################
#
#                 Cambridge Crystallographic Data Centre
#                                CCDC 
#
#######################################################################
#
# If this CIF has been generated from an entry in the Cambridge 
# Structural Database, then it will include bibliographic, chemical, 
# crystal, experimental, refinement or atomic coordinate data resulting 
# from the CCDC's data processing and validation procedures.
#
#######################################################################

data_OLUHAG
_chemical_formula_moiety         '(C10 H5 Cu1 N3 O4)n'
_symmetry_cell_setting           monoclinic
_symmetry_space_group_name_H-M   'P 21/c'
_symmetry_Int_Tables_number      14
_space_group_name_Hall           '-P 2ybc'
loop_
_symmetry_equiv_pos_site_id
_symmetry_equiv_pos_as_xyz
1 x,y,z
2 -x,1/2+y,1/2-z
3 -x,-y,-z
4 x,1/2-y,1/2+z
_cell_length_a                   10.9121(3)
_cell_length_b                   11.8420(3)
_cell_length_c                   14.5557(5)
_cell_angle_alpha                90
_cell_angle_beta                 109.471(3)
_cell_angle_gamma                90
_cell_volume                     1773.34
loop_
_atom_site_label
_atom_site_type_symbol
_atom_site_fract_x
_atom_site_fract_y
_atom_site_fract_z
Cu1 Cu 0.09700(4) 0.57655(4) 0.02556(3)
O1 O 0.8251(2) 0.9735(2) 0.36402(18)
O2 O 0.8243(2) 0.5198(2) 0.04991(19)
O3 O 0.9901(2) 0.8503(2) 0.40395(18)
O4 O 0.9888(2) 0.6441(2) 0.09560(19)
N1 N 0.2648(2) 0.6861(2) 0.0692(2)
N2 N 0.4660(2) 0.7428(2) 0.1225(2)
N3 N 0.2640(3) 0.8021(3) 0.0785(3)
C1 C 0.6070(3) 0.7431(3) 0.1560(2)
C2 C 0.6711(3) 0.6727(3) 0.1121(2)
H1 H 0.6251 0.6236 0.0628
C3 C 0.8737(3) 0.7463(3) 0.2207(2)
H2 H 0.9640 0.7476 0.2422
C4 C 0.8791(3) 0.6077(3) 0.0919(2)
C5 C 0.8061(3) 0.6764(3) 0.1433(2)
C6 C 0.8797(3) 0.8846(3) 0.3515(2)
C7 C 0.3847(3) 0.6520(3) 0.0957(2)
H3 H 0.4111 0.5773 0.0964
C8 C 0.6727(3) 0.8127(3) 0.2333(3)
H4 H 0.6272 0.8580 0.2631
C9 C 0.3863(3) 0.8334(3) 0.1114(4)
H5 H 0.4145 0.9075 0.1251
C10 C 0.8076(3) 0.8133(3) 0.2656(2)
Cu1_2 Cu 1.09700(4) 0.57655(4) 0.02556(3)
Cu1A Cu 0.90300(4) 1.07655(4) 0.47444(3)
Cu1B Cu -0.09700(4) 0.42345(4) -0.02556(3)
Cu1B_2 Cu 0.90300(4) 0.42345(4) -0.02556(3)
Cu1C Cu 1.09700(4) 0.92345(4) 0.52556(3)
O1A O 0.1749(2) 0.4735(2) 0.13598(18)
O2B O 0.1757(2) 0.4802(2) -0.04991(19)
O3C O -0.0099(2) 0.6497(2) -0.09605(18)
O4_2 O -0.0112(2) 0.6441(2) 0.09560(19)
loop_
_geom_bond_atom_site_label_1
_geom_bond_atom_site_label_2
_geom_bond_site_symmetry_1
_geom_bond_site_symmetry_2
Cu1 N1 1_555 1_555
O1 C6 1_555 1_555
O2 C4 1_555 1_555
O3 C6 1_555 1_555
O4 C4 1_555 1_555
N1 N3 1_555 1_555
N2 C1 1_555 1_555
N3 C9 1_555 1_555
C1 C2 1_555 1_555
C2 H1 1_555 1_555
C3 H2 1_555 1_555
C4 C5 1_555 1_555
C5 C2 1_555 1_555
C6 C10 1_555 1_555
C7 N1 1_555 1_555
H3 C7 1_555 1_555
C8 C1 1_555 1_555
H4 C8 1_555 1_555
C9 N2 1_555 1_555
H5 C9 1_555 1_555
C10 C3 1_555 1_555
Cu1_2 O4 1_555 1_555
Cu1A O1 1_555 1_555
Cu1B Cu1 1_555 1_555
Cu1B_2 O2 1_555 1_555
Cu1C O3 1_555 1_555
O1A Cu1 1_555 1_555
O2B Cu1 1_555 1_555
O3C Cu1 1_555 1_555
O4_2 Cu1 1_555 1_555
N2 C7 1_555 1_555
C3 C5 1_555 1_555
C8 C10 1_555 1_555
Cu1_2 Cu1B_2 1_555 1_555
Cu1A Cu1C 1_555 1_555

#END
