
#######################################################################
#
#                 Cambridge Crystallographic Data Centre
#                                CCDC 
#
#######################################################################
#
# If this CIF has been generated from an entry in the Cambridge 
# Structural Database, then it will include bibliographic, chemical, 
# crystal, experimental, refinement or atomic coordinate data resulting 
# from the CCDC's data processing and validation procedures.
#
#######################################################################

data_QAGTOH
_chemical_formula_moiety         '(C50 H43 B1 Cu2 F4 N9 1+)n'
_symmetry_cell_setting           triclinic
_symmetry_space_group_name_H-M   'P -1'
_symmetry_Int_Tables_number      2
_space_group_name_Hall           '-P 1'
loop_
_symmetry_equiv_pos_site_id
_symmetry_equiv_pos_as_xyz
1 x,y,z
2 -x,-y,-z
_cell_length_a                   7.3695(10)
_cell_length_b                   13.099(3)
_cell_length_c                   13.448(2)
_cell_angle_alpha                80.353(14)
_cell_angle_beta                 84.930(12)
_cell_angle_gamma                82.795(15)
_cell_volume                     1266.7
loop_
_atom_site_label
_atom_site_type_symbol
_atom_site_fract_x
_atom_site_fract_y
_atom_site_fract_z
Cu1 Cu -1.20434(4) -0.69071(2) 0.79313(2)
N1 N -1.0135(3) -0.6155(2) 0.7013(2)
C1 C -0.8671(4) -0.6730(2) 0.6650(2)
H1 H -0.8614(4) -0.7467(2) 0.6821(2)
C2 C -0.7249(4) -0.6326(2) 0.6047(2)
H2 H -0.6258(4) -0.6778(2) 0.5806(2)
C3 C -0.7267(3) -0.5249(2) 0.5790(2)
C4 C -0.8800(4) -0.4651(2) 0.6144(2)
H3 H -0.8894(4) -0.3913(2) 0.5981(2)
C5 C -1.0181(4) -0.5121(2) 0.6729(2)
H4 H -1.1226(4) -0.4690(2) 0.6944(2)
C6 C -0.5745(4) -0.4755(2) 0.5206(2)
H5 H -0.5834(4) -0.4016(2) 0.5115(2)
N2 N -1.3181(3) -0.7778(2) 0.7043(2)
C7 C -1.4549(4) -0.8344(2) 0.7434(2)
H6 H -1.5057(4) -0.8277(2) 0.8098(2)
C8 C -1.5249(4) -0.9014(2) 0.6924(2)
H7 H -1.6208(4) -0.9402(2) 0.7241(2)
C9 C -1.4568(4) -0.9129(2) 0.5952(2)
C10 C -1.3163(4) -0.8536(2) 0.5535(2)
H8 H -1.2653(4) -0.8579(2) 0.4867(2)
C11 C -1.2514(4) -0.7885(2) 0.6098(2)
H9 H -1.1547(4) -0.7494(2) 0.5803(2)
C12 C -1.5327(4) -0.9865(2) 0.5439(2)
H10 H -1.6371(4) -1.0172(2) 0.5762(2)
N3 N -1.4115(3) -0.6188(2) 0.87116(15)
C13 C -1.4485(3) -0.6499(2) 0.9701(2)
H11 H -1.3587(3) -0.6957(2) 1.0070(2)
C14 C -1.6122(3) -0.6182(2) 1.0212(2)
H12 H -1.6317(3) -0.6416(2) 1.0917(2)
C15 C -1.7479(3) -0.5522(2) 0.9696(2)
C16 C -1.7054(3) -0.5164(2) 0.8673(2)
H13 H -1.7906(3) -0.4684(2) 0.8292(2)
C17 C -1.5391(3) -0.5513(2) 0.8221(2)
H14 H -1.5132(3) -0.5262(2) 0.7524(2)
C18 C -1.9254(3) -0.5236(2) 1.0220(2)
H15 H -1.9344(3) -0.5402(2) 1.0936(2)
N4 N -1.0467(3) -0.8101(2) 0.8845(2)
C19 C -1.0045(3) -0.9049(2) 0.8571(2)
H16 H -1.0810(3) -0.9257(2) 0.8126(2)
C20 C -0.8561(3) -0.9736(2) 0.8900(2)
H17 H -0.8342(3) -1.0402(2) 0.8693(2)
C21 C -0.7388(3) -0.9453(2) 0.9535(2)
C22 C -0.7876(4) -0.8492(2) 0.9863(2)
H18 H -0.7164(4) -0.8276(2) 1.0329(2)
C23 C -0.9392(4) -0.7860(2) 0.9507(2)
H19 H -0.9698(4) -0.7213(2) 0.9745(2)
C24 C -0.5713(3) -1.0139(2) 0.9803(2)
H20 H -0.5638(3) -1.0838(2) 0.9685(2)
C6A C -0.4255(4) -0.5245(2) 0.4794(2)
C3A C -0.2733(3) -0.4751(2) 0.4210(2)
C2A C -0.2751(4) -0.3674(2) 0.3953(2)
C1A C -0.1329(4) -0.3270(2) 0.3350(2)
N1A N 0.0135(3) -0.3845(2) 0.2987(2)
C5A C 0.0181(4) -0.4879(2) 0.3271(2)
C4A C -0.1200(4) -0.5349(2) 0.3856(2)
H3A H -0.1106(4) -0.6087(2) 0.4019(2)
H4A H 0.1226(4) -0.5310(2) 0.3056(2)
H1A H -0.1386(4) -0.2533(2) 0.3179(2)
H2A H -0.3742(4) -0.3222(2) 0.4194(2)
H5A H -0.4166(4) -0.5984(2) 0.4885(2)
C12A C -1.4673(4) -1.0135(2) 0.4561(2)
C9A C -1.5432(4) -1.0871(2) 0.4048(2)
C8A C -1.4751(4) -1.0986(2) 0.3076(2)
C7A C -1.5451(4) -1.1656(2) 0.2566(2)
N2A N -1.6819(3) -1.2222(2) 0.2957(2)
C11A C -1.7486(4) -1.2115(2) 0.3902(2)
C10A C -1.6837(4) -1.1464(2) 0.4465(2)
H8A H -1.7347(4) -1.1421(2) 0.5133(2)
H9A H -1.8453(4) -1.2506(2) 0.4197(2)
H6A H -1.4943(4) -1.1723(2) 0.1902(2)
H7A H -1.3792(4) -1.0598(2) 0.2759(2)
H10A H -1.3629(4) -0.9828(2) 0.4238(2)
C18A C -2.0746(3) -0.4764(2) 0.9780(2)
C15A C -2.2521(3) -0.4478(2) 1.0304(2)
C14A C -2.3878(3) -0.3818(2) 0.9788(2)
C13A C -2.5515(3) -0.3501(2) 1.0299(2)
N3A N -2.5885(3) -0.3812(2) 1.12884(15)
C17A C -2.4609(3) -0.4487(2) 1.1779(2)
C16A C -2.2946(3) -0.4836(2) 1.1327(2)
H13A H -2.2094(3) -0.5316(2) 1.1708(2)
H14A H -2.4868(3) -0.4738(2) 1.2476(2)
H11A H -2.6413(3) -0.3043(2) 0.9930(2)
H12A H -2.3683(3) -0.3584(2) 0.9083(2)
H15A H -2.0656(3) -0.4598(2) 0.9064(2)
C24A C -0.4287(3) -0.9861(2) 1.0197(2)
C21A C -0.2612(3) -1.0547(2) 1.0465(2)
C20A C -0.1439(3) -1.0264(2) 1.1100(2)
C19A C 0.0045(3) -1.0951(2) 1.1429(2)
N4A N 0.0467(3) -1.1899(2) 1.1155(2)
C23A C -0.0608(4) -1.2140(2) 1.0493(2)
C22A C -0.2124(4) -1.1508(2) 1.0137(2)
H18A H -0.2836(4) -1.1724(2) 0.9671(2)
H19A H -0.0302(4) -1.2787(2) 1.0255(2)
H16A H 0.0810(3) -1.0743(2) 1.1874(2)
H17A H -0.1658(3) -0.9598(2) 1.1307(2)
H20A H -0.4362(3) -0.9162(2) 1.0315(2)
Cu1A Cu 0.20434(4) -0.30929(2) 0.20687(2)
Cu1A_2 Cu -1.79566(4) -1.30929(2) 0.20687(2)
Cu1A_3 Cu -2.79566(4) -0.30929(2) 1.20687(2)
Cu1A_4 Cu 0.20434(4) -1.30929(2) 1.20687(2)
N2A_2 N 0.3181(3) -0.2222(2) 0.2957(2)
N3A_2 N 0.4115(3) -0.3812(2) 0.12884(15)
N4A_2 N 0.0467(3) -0.1899(2) 0.1155(2)
B1 B -0.2682(6) 0.2253(3) 0.2363(3)
F1 F -0.3619(4) 0.2904(2) 0.2960(2)
F2 F -0.3836(3) 0.1970(2) 0.1716(2)
F3 F -0.1308(3) 0.2735(2) 0.1773(2)
F4 F -0.1943(3) 0.1339(2) 0.29441(14)
C25 C -0.2262(6) -0.1550(4) 0.7131(3)
H21 H -0.3585(11) -0.1571(27) 0.7278(14)
H22 H -0.1972(46) -0.0834(11) 0.7099(9)
H23 H -0.1603(38) -0.2009(18) 0.7667(5)
C26 C -0.1717(5) -0.1893(3) 0.6181(3)
N5 N -0.1274(5) -0.2152(4) 0.5431(3)
loop_
_geom_bond_atom_site_label_1
_geom_bond_atom_site_label_2
_geom_bond_site_symmetry_1
_geom_bond_site_symmetry_2
Cu1 N1 1_555 1_555
N1 C1 1_555 1_555
C1 H1 1_555 1_555
C2 C1 1_555 1_555
H2 C2 1_555 1_555
C3 C2 1_555 1_555
C4 C3 1_555 1_555
H3 C4 1_555 1_555
C5 N1 1_555 1_555
H4 C5 1_555 1_555
C6 C3 1_555 1_555
H5 C6 1_555 1_555
N2 Cu1 1_555 1_555
C7 N2 1_555 1_555
H6 C7 1_555 1_555
C8 C7 1_555 1_555
H7 C8 1_555 1_555
C9 C8 1_555 1_555
C10 C9 1_555 1_555
H8 C10 1_555 1_555
C11 N2 1_555 1_555
H9 C11 1_555 1_555
C12 C9 1_555 1_555
H10 C12 1_555 1_555
N3 Cu1 1_555 1_555
C13 N3 1_555 1_555
H11 C13 1_555 1_555
C14 C13 1_555 1_555
H12 C14 1_555 1_555
C15 C14 1_555 1_555
C16 C15 1_555 1_555
H13 C16 1_555 1_555
C17 N3 1_555 1_555
H14 C17 1_555 1_555
C18 C15 1_555 1_555
H15 C18 1_555 1_555
N4 Cu1 1_555 1_555
C19 N4 1_555 1_555
H16 C19 1_555 1_555
C20 C19 1_555 1_555
H17 C20 1_555 1_555
C21 C20 1_555 1_555
C22 C21 1_555 1_555
H18 C22 1_555 1_555
C23 N4 1_555 1_555
H19 C23 1_555 1_555
C24 C21 1_555 1_555
H20 C24 1_555 1_555
B1 F1 1_555 1_555
F2 B1 1_555 1_555
F3 B1 1_555 1_555
F4 B1 1_555 1_555
C25 H21 1_555 1_555
H22 C25 1_555 1_555
H23 C25 1_555 1_555
C26 C25 1_555 1_555
N5 C26 1_555 1_555
C6A C6 1_555 1_555
C3A C6A 1_555 1_555
C2A C3A 1_555 1_555
C1A C2A 1_555 1_555
N1A C1A 1_555 1_555
C5A N1A 1_555 1_555
C4A C3A 1_555 1_555
H3A C4A 1_555 1_555
H4A C5A 1_555 1_555
H1A C1A 1_555 1_555
H2A C2A 1_555 1_555
H5A C6A 1_555 1_555
C12A C12 1_555 1_555
C9A C12A 1_555 1_555
C8A C9A 1_555 1_555
C7A C8A 1_555 1_555
N2A C7A 1_555 1_555
C11A N2A 1_555 1_555
C10A C9A 1_555 1_555
H8A C10A 1_555 1_555
H9A C11A 1_555 1_555
H6A C7A 1_555 1_555
H7A C8A 1_555 1_555
H10A C12A 1_555 1_555
C18A C18 1_555 1_555
C15A C18A 1_555 1_555
C14A C15A 1_555 1_555
C13A C14A 1_555 1_555
N3A C13A 1_555 1_555
C17A N3A 1_555 1_555
C16A C15A 1_555 1_555
H13A C16A 1_555 1_555
H14A C17A 1_555 1_555
H11A C13A 1_555 1_555
H12A C14A 1_555 1_555
H15A C18A 1_555 1_555
C24A C24 1_555 1_555
C21A C24A 1_555 1_555
C20A C21A 1_555 1_555
C19A C20A 1_555 1_555
N4A C19A 1_555 1_555
C23A N4A 1_555 1_555
C22A C21A 1_555 1_555
H18A C22A 1_555 1_555
H19A C23A 1_555 1_555
H16A C19A 1_555 1_555
H17A C20A 1_555 1_555
H20A C24A 1_555 1_555
Cu1A N1A 1_555 1_555
Cu1A_2 N2A 1_555 1_555
Cu1A_3 N3A 1_555 1_555
Cu1A_4 N4A 1_555 1_555
N2A_2 Cu1A 1_555 1_555
N3A_2 Cu1A 1_555 1_555
N4A_2 Cu1A 1_555 1_555
C4 C5 1_555 1_555
C10 C11 1_555 1_555
C16 C17 1_555 1_555
C22 C23 1_555 1_555
C5A C4A 1_555 1_555
C11A C10A 1_555 1_555
C17A C16A 1_555 1_555
C23A C22A 1_555 1_555

#END
