
#######################################################################
#
#                 Cambridge Crystallographic Data Centre
#                                CCDC 
#
#######################################################################
#
# If this CIF has been generated from an entry in the Cambridge 
# Structural Database, then it will include bibliographic, chemical, 
# crystal, experimental, refinement or atomic coordinate data resulting 
# from the CCDC's data processing and validation procedures.
#
#######################################################################

data_QAQMON
_chemical_formula_moiety         '(C84 H56 Cu6 O38)n'
_symmetry_cell_setting           tetragonal
_symmetry_space_group_name_H-M   'P 4/n n c'
_symmetry_Int_Tables_number      126
_space_group_name_Hall           '-P 4a 2bc'
loop_
_symmetry_equiv_pos_site_id
_symmetry_equiv_pos_as_xyz
1 x,y,z
2 1/2-x,1/2-y,z
3 1/2-y,x,z
4 y,1/2-x,z
5 1/2-x,y,1/2-z
6 x,1/2-y,1/2-z
7 y,x,1/2-z
8 1/2-y,1/2-x,1/2-z
9 -x,-y,-z
10 1/2+x,1/2+y,-z
11 1/2+y,-x,-z
12 -y,1/2+x,-z
13 1/2+x,-y,1/2+z
14 -x,1/2+y,1/2+z
15 -y,-x,1/2+z
16 1/2+y,1/2+x,1/2+z
_cell_length_a                   31.4065(16)
_cell_length_b                   31.4065(16)
_cell_length_c                   21.5732(10)
_cell_angle_alpha                90
_cell_angle_beta                 90
_cell_angle_gamma                90
_cell_volume                     21279.1
loop_
_atom_site_label
_atom_site_type_symbol
_atom_site_fract_x
_atom_site_fract_y
_atom_site_fract_z
Cu1 Cu -0.03186(3) 0.49830(3) 0.29970(4)
Cu2 Cu 0.250000 0.250000 0.42100(10)
Cu3 Cu 0.250000 0.250000 0.54309(10)
O1 O 0.41235(14) 0.49313(14) 0.7588(2)
O2 O 0.44234(17) 0.46772(16) 0.6716(2)
O3 O 0.02760(17) 0.49263(17) 0.3253(2)
O4 O 0.05586(16) 0.52550(16) 0.2436(2)
O5 O 0.25181(17) 0.31219(18) 0.5334(2)
O6 O 0.24118(16) 0.31209(16) 0.4301(2)
O7 O 0.24928(19) 0.46629(19) 0.5929(3)
O8 O -0.05496(19) 0.47384(17) 0.3890(2)
H1 H -0.038275 0.468709 0.425150
H2 H -0.083643 0.466579 0.398595
O9 O 0.22494(18) 0.4665(2) 0.3757(3)
C1 C 0.3694(3) 0.4746(2) 0.6741(3)
C2 C 0.1029(3) 0.4956(2) 0.3166(3)
C3 C 0.2423(2) 0.3776(3) 0.4827(4)
C4 C 0.4114(3) 0.4792(3) 0.7042(4)
C5 C 0.0573(3) 0.5059(3) 0.2933(4)
C6 C 0.2490(2) 0.3990(3) 0.5381(4)
H3 H 0.255357 0.384424 0.574509
C7 C 0.2465(3) 0.3298(3) 0.4824(4)
C8 C 0.1066(3) 0.4707(2) 0.3688(3)
H4 H 0.082196 0.460240 0.387936
C9 C 0.2899(3) 0.4684(3) 0.6172(4)
C10 C 0.2307(3) 0.4403(4) 0.4305(5)
C11 C 0.2459(3) 0.4431(3) 0.5369(5)
C12 C 0.3658(2) 0.4610(2) 0.6150(3)
H5 H 0.390441 0.453990 0.593467
C13 C 0.2338(2) 0.3993(3) 0.4268(4)
H6 H 0.230691 0.384992 0.389417
C14 C 0.1804(4) 0.4745(3) 0.3605(4)
C15 C 0.1380(3) 0.5099(3) 0.2861(4)
H7 H 0.134266 0.525798 0.250191
C16 C 0.3272(3) 0.4571(3) 0.5849(3)
H8 H 0.325883 0.447331 0.544245
C17 C 0.2368(3) 0.4647(3) 0.4822(6)
H9 H 0.234880 0.494248 0.480888
C18 C 0.1797(3) 0.5016(3) 0.3068(4)
H10 H 0.203957 0.512351 0.287821
O10 O 0.250000 0.250000 0.6416(5)
H11 H 0.272100 0.250000 0.664337
O11 O 0.250000 0.250000 0.3207(5)
H12 H 0.250000 0.227900 0.297966
C19 C 0.3336(3) 0.4850(3) 0.7059(4)
H13 H 0.335690 0.493579 0.747056
C20 C 0.1456(3) 0.4614(3) 0.3926(4)
H14 H 0.148278 0.446537 0.429719
C21 C 0.2912(3) 0.4827(3) 0.6759(5)
H15 H 0.266576 0.490734 0.696791
H11A H 0.227900 0.250000 0.664337
H12A H 0.250000 0.272100 0.297966
Cu1A Cu 0.53186(3) 0.00170(3) 0.29970(4)
O1A O 0.08765(14) 0.00687(14) 0.7588(2)
O2A O 0.05766(17) 0.03228(16) 0.6716(2)
O3A O 0.47240(17) 0.00737(17) 0.3253(2)
O4A O 0.44414(16) -0.02550(16) 0.2436(2)
O5A O 0.24819(17) 0.18781(18) 0.5334(2)
O6A O 0.25882(16) 0.18791(16) 0.4301(2)
O7A O 0.25072(19) 0.03371(19) 0.5929(3)
O8A O 0.55496(19) 0.02616(17) 0.3890(2)
H1A H 0.538275 0.031291 0.425150
H2A H 0.583643 0.033421 0.398595
O9A O 0.27506(18) 0.0335(2) 0.3757(3)
C1A C 0.1306(3) 0.0254(2) 0.6741(3)
C2A C 0.3971(3) 0.0044(2) 0.3166(3)
C3A C 0.2577(2) 0.1224(3) 0.4827(4)
C4A C 0.0886(3) 0.0208(3) 0.7042(4)
C5A C 0.4427(3) -0.0059(3) 0.2933(4)
C6A C 0.2510(2) 0.1010(3) 0.5381(4)
H3A H 0.244643 0.115576 0.574509
C7A C 0.2535(3) 0.1702(3) 0.4824(4)
C8A C 0.3934(3) 0.0293(2) 0.3688(3)
H4A H 0.417804 0.039760 0.387936
C9A C 0.2101(3) 0.0316(3) 0.6172(4)
C10A C 0.2693(3) 0.0597(4) 0.4305(5)
C11A C 0.2541(3) 0.0569(3) 0.5369(5)
C12A C 0.1342(2) 0.0390(2) 0.6150(3)
H5A H 0.109559 0.046010 0.593467
C13A C 0.2662(2) 0.1007(3) 0.4268(4)
H6A H 0.269309 0.115008 0.389417
C14A C 0.3196(4) 0.0255(3) 0.3605(4)
C15A C 0.3620(3) -0.0099(3) 0.2861(4)
H7A H 0.365734 -0.025798 0.250191
C16A C 0.1728(3) 0.0429(3) 0.5849(3)
H8A H 0.174117 0.052669 0.544245
C17A C 0.2632(3) 0.0353(3) 0.4822(6)
H9A H 0.265120 0.005752 0.480888
C18A C 0.3203(3) -0.0016(3) 0.3068(4)
H10A H 0.296043 -0.012351 0.287821
C19A C 0.1664(3) 0.0150(3) 0.7059(4)
H13A H 0.164310 0.006421 0.747056
C20A C 0.3544(3) 0.0386(3) 0.3926(4)
H14A H 0.351722 0.053463 0.429719
C21A C 0.2088(3) 0.0173(3) 0.6759(5)
H15A H 0.233424 0.009266 0.696791
Cu1B Cu 0.00170(3) -0.03186(3) 0.29970(4)
O1B O 0.00687(14) 0.41235(14) 0.7588(2)
O2B O 0.03228(16) 0.44234(17) 0.6716(2)
O3B O 0.00737(17) 0.02760(17) 0.3253(2)
O4B O -0.02550(16) 0.05586(16) 0.2436(2)
O5B O 0.18781(18) 0.25181(17) 0.5334(2)
O6B O 0.18791(16) 0.24118(16) 0.4301(2)
O7B O 0.03371(19) 0.24928(19) 0.5929(3)
O8B O 0.02616(17) -0.05496(19) 0.3890(2)
H1B H 0.031291 -0.038275 0.425150
H2B H 0.033421 -0.083643 0.398595
O9B O 0.0335(2) 0.22494(18) 0.3757(3)
C1B C 0.0254(2) 0.3694(3) 0.6741(3)
C2B C 0.0044(2) 0.1029(3) 0.3166(3)
C3B C 0.1224(3) 0.2423(2) 0.4827(4)
C4B C 0.0208(3) 0.4114(3) 0.7042(4)
C5B C -0.0059(3) 0.0573(3) 0.2933(4)
C6B C 0.1010(3) 0.2490(2) 0.5381(4)
H3B H 0.115576 0.255357 0.574509
C7B C 0.1702(3) 0.2465(3) 0.4824(4)
C8B C 0.0293(2) 0.1066(3) 0.3688(3)
H4B H 0.039760 0.082196 0.387936
C9B C 0.0316(3) 0.2899(3) 0.6172(4)
C10B C 0.0597(4) 0.2307(3) 0.4305(5)
C11B C 0.0569(3) 0.2459(3) 0.5369(5)
C12B C 0.0390(2) 0.3658(2) 0.6150(3)
H5B H 0.046010 0.390441 0.593467
C13B C 0.1007(3) 0.2338(2) 0.4268(4)
H6B H 0.115008 0.230691 0.389417
C14B C 0.0255(3) 0.1804(4) 0.3605(4)
C15B C -0.0099(3) 0.1380(3) 0.2861(4)
H7B H -0.025798 0.134266 0.250191
C16B C 0.0429(3) 0.3272(3) 0.5849(3)
H8B H 0.052669 0.325883 0.544245
C17B C 0.0353(3) 0.2368(3) 0.4822(6)
H9B H 0.005752 0.234880 0.480888
C18B C -0.0016(3) 0.1797(3) 0.3068(4)
H10B H -0.012351 0.203957 0.287821
C19B C 0.0150(3) 0.3336(3) 0.7059(4)
H13B H 0.006421 0.335690 0.747056
C20B C 0.0386(3) 0.1456(3) 0.3926(4)
H14B H 0.053463 0.148278 0.429719
C21B C 0.0173(3) 0.2912(3) 0.6759(5)
H15B H 0.009266 0.266576 0.696791
Cu1C Cu 0.49830(3) 0.53186(3) 0.29970(4)
O1C O 0.49313(14) 0.08765(14) 0.7588(2)
O2C O 0.46772(16) 0.05766(17) 0.6716(2)
O3C O 0.49263(17) 0.47240(17) 0.3253(2)
O4C O 0.52550(16) 0.44414(16) 0.2436(2)
O5C O 0.31219(18) 0.24819(17) 0.5334(2)
O6C O 0.31209(16) 0.25882(16) 0.4301(2)
O7C O 0.46629(19) 0.25072(19) 0.5929(3)
O8C O 0.47384(17) 0.55496(19) 0.3890(2)
H1C H 0.468709 0.538275 0.425150
H2C H 0.466579 0.583643 0.398595
O9C O 0.4665(2) 0.27506(18) 0.3757(3)
C1C C 0.4746(2) 0.1306(3) 0.6741(3)
C2C C 0.4956(2) 0.3971(3) 0.3166(3)
C3C C 0.3776(3) 0.2577(2) 0.4827(4)
C4C C 0.4792(3) 0.0886(3) 0.7042(4)
C5C C 0.5059(3) 0.4427(3) 0.2933(4)
C6C C 0.3990(3) 0.2510(2) 0.5381(4)
H3C H 0.384424 0.244643 0.574509
C7C C 0.3298(3) 0.2535(3) 0.4824(4)
C8C C 0.4707(2) 0.3934(3) 0.3688(3)
H4C H 0.460240 0.417804 0.387936
C9C C 0.4684(3) 0.2101(3) 0.6172(4)
C10C C 0.4403(4) 0.2693(3) 0.4305(5)
C11C C 0.4431(3) 0.2541(3) 0.5369(5)
C12C C 0.4610(2) 0.1342(2) 0.6150(3)
H5C H 0.453990 0.109559 0.593467
C13C C 0.3993(3) 0.2662(2) 0.4268(4)
H6C H 0.384992 0.269309 0.389417
C14C C 0.4745(3) 0.3196(4) 0.3605(4)
C15C C 0.5099(3) 0.3620(3) 0.2861(4)
H7C H 0.525798 0.365734 0.250191
C16C C 0.4571(3) 0.1728(3) 0.5849(3)
H8C H 0.447331 0.174117 0.544245
C17C C 0.4647(3) 0.2632(3) 0.4822(6)
H9C H 0.494248 0.265120 0.480888
C18C C 0.5016(3) 0.3203(3) 0.3068(4)
H10C H 0.512351 0.296043 0.287821
C19C C 0.4850(3) 0.1664(3) 0.7059(4)
H13C H 0.493579 0.164310 0.747056
C20C C 0.4614(3) 0.3544(3) 0.3926(4)
H14C H 0.446537 0.351722 0.429719
C21C C 0.4827(3) 0.2088(3) 0.6759(5)
H15C H 0.490734 0.233424 0.696791
Cu1D Cu 0.53186(3) 0.49830(3) 0.20030(4)
Cu1E Cu -0.03186(3) 0.00170(3) 0.20030(4)
Cu1F Cu 0.49830(3) -0.03186(3) 0.20030(4)
Cu1G Cu 0.00170(3) 0.53186(3) 0.20030(4)
Cu1H Cu 0.03186(3) 0.50170(3) 0.70030(4)
Cu1I Cu 0.46814(3) -0.00170(3) 0.70030(4)
Cu1J Cu -0.00170(3) 0.03186(3) 0.70030(4)
Cu1K Cu 0.50170(3) 0.46814(3) 0.70030(4)
Cu1L Cu 0.46814(3) 0.50170(3) 0.79970(4)
Cu1M Cu 0.03186(3) -0.00170(3) 0.79970(4)
Cu1N Cu 0.50170(3) 0.03186(3) 0.79970(4)
Cu1O Cu -0.00170(3) 0.46814(3) 0.79970(4)
O1L O -0.08765(14) 0.50687(14) 0.2588(2)
O1M O 0.58765(14) -0.00687(14) 0.2588(2)
O1N O 0.50687(14) 0.58765(14) 0.2588(2)
O1O O -0.00687(14) -0.08765(14) 0.2588(2)
O2H O 0.55766(17) 0.53228(16) 0.3284(2)
O2I O -0.05766(17) -0.03228(16) 0.3284(2)
O2J O -0.03228(16) 0.55766(17) 0.3284(2)
O2K O 0.53228(16) -0.05766(17) 0.3284(2)
O4D O 0.44414(16) 0.52550(16) 0.2564(2)
O4E O 0.05586(16) -0.02550(16) 0.2564(2)
O4F O 0.52550(16) 0.05586(16) 0.2564(2)
O4G O -0.02550(16) 0.44414(16) 0.2564(2)
loop_
_geom_bond_atom_site_label_1
_geom_bond_atom_site_label_2
_geom_bond_site_symmetry_1
_geom_bond_site_symmetry_2
Cu1 O3 1_555 1_555
Cu2 Cu3 1_555 1_555
Cu3 O5 1_555 1_555
O1 C4 1_555 1_555
O2 C4 1_555 1_555
O3 C5 1_555 1_555
O4 C5 1_555 1_555
O5 C7 1_555 1_555
O6 Cu2 1_555 1_555
O7 C9 1_555 1_555
O8 Cu1 1_555 1_555
H1 O8 1_555 1_555
H2 O8 1_555 1_555
O9 C10 1_555 1_555
C1 C4 1_555 1_555
C2 C5 1_555 1_555
C3 C6 1_555 1_555
C6 H3 1_555 1_555
C7 O6 1_555 1_555
C8 C2 1_555 1_555
H4 C8 1_555 1_555
C9 C16 1_555 1_555
C10 C13 1_555 1_555
C11 O7 1_555 1_555
C12 C1 1_555 1_555
H5 C12 1_555 1_555
C13 C3 1_555 1_555
H6 C13 1_555 1_555
C14 O9 1_555 1_555
C15 C2 1_555 1_555
H7 C15 1_555 1_555
C16 C12 1_555 1_555
H8 C16 1_555 1_555
C17 C10 1_555 1_555
H9 C17 1_555 1_555
C18 C14 1_555 1_555
H10 C18 1_555 1_555
O10 Cu3 1_555 1_555
H11 O10 1_555 1_555
O11 Cu2 1_555 1_555
H12 O11 1_555 1_555
C19 C1 1_555 1_555
H13 C19 1_555 1_555
C20 C8 1_555 1_555
H14 C20 1_555 1_555
C21 C9 1_555 1_555
H15 C21 1_555 1_555
H11A O10 1_555 1_555
H12A O11 1_555 1_555
Cu1A O3A 1_555 1_555
O1A C4A 1_555 1_555
O2A C4A 1_555 1_555
O3A C5A 1_555 1_555
O4A C5A 1_555 1_555
O5A Cu3 1_555 1_555
O6A Cu2 1_555 1_555
O7A C9A 1_555 1_555
O8A Cu1A 1_555 1_555
H1A O8A 1_555 1_555
H2A O8A 1_555 1_555
O9A C10A 1_555 1_555
C1A C4A 1_555 1_555
C2A C5A 1_555 1_555
C3A C6A 1_555 1_555
C6A H3A 1_555 1_555
C7A O5A 1_555 1_555
C8A C2A 1_555 1_555
H4A C8A 1_555 1_555
C9A C16A 1_555 1_555
C10A C13A 1_555 1_555
C11A O7A 1_555 1_555
C12A C1A 1_555 1_555
H5A C12A 1_555 1_555
C13A C3A 1_555 1_555
H6A C13A 1_555 1_555
C14A O9A 1_555 1_555
C15A C2A 1_555 1_555
H7A C15A 1_555 1_555
C16A C12A 1_555 1_555
H8A C16A 1_555 1_555
C17A C10A 1_555 1_555
H9A C17A 1_555 1_555
C18A C14A 1_555 1_555
H10A C18A 1_555 1_555
C19A C1A 1_555 1_555
H13A C19A 1_555 1_555
C20A C8A 1_555 1_555
H14A C20A 1_555 1_555
C21A C9A 1_555 1_555
H15A C21A 1_555 1_555
Cu1B O3B 1_555 1_555
O1B C4B 1_555 1_555
O2B C4B 1_555 1_555
O3B C5B 1_555 1_555
O4B C5B 1_555 1_555
O5B Cu3 1_555 1_555
O6B Cu2 1_555 1_555
O7B C9B 1_555 1_555
O8B Cu1B 1_555 1_555
H1B O8B 1_555 1_555
H2B O8B 1_555 1_555
O9B C10B 1_555 1_555
C1B C4B 1_555 1_555
C2B C5B 1_555 1_555
C3B C6B 1_555 1_555
C6B H3B 1_555 1_555
C7B O5B 1_555 1_555
C8B C2B 1_555 1_555
H4B C8B 1_555 1_555
C9B C16B 1_555 1_555
C10B C13B 1_555 1_555
C11B O7B 1_555 1_555
C12B C1B 1_555 1_555
H5B C12B 1_555 1_555
C13B C3B 1_555 1_555
H6B C13B 1_555 1_555
C14B O9B 1_555 1_555
C15B C2B 1_555 1_555
H7B C15B 1_555 1_555
C16B C12B 1_555 1_555
H8B C16B 1_555 1_555
C17B C10B 1_555 1_555
H9B C17B 1_555 1_555
C18B C14B 1_555 1_555
H10B C18B 1_555 1_555
C19B C1B 1_555 1_555
H13B C19B 1_555 1_555
C20B C8B 1_555 1_555
H14B C20B 1_555 1_555
C21B C9B 1_555 1_555
H15B C21B 1_555 1_555
Cu1C O3C 1_555 1_555
O1C C4C 1_555 1_555
O2C C4C 1_555 1_555
O3C C5C 1_555 1_555
O4C C5C 1_555 1_555
O5C Cu3 1_555 1_555
O6C Cu2 1_555 1_555
O7C C9C 1_555 1_555
O8C Cu1C 1_555 1_555
H1C O8C 1_555 1_555
H2C O8C 1_555 1_555
O9C C10C 1_555 1_555
C1C C4C 1_555 1_555
C2C C5C 1_555 1_555
C3C C6C 1_555 1_555
C6C H3C 1_555 1_555
C7C O5C 1_555 1_555
C8C C2C 1_555 1_555
H4C C8C 1_555 1_555
C9C C16C 1_555 1_555
C10C C13C 1_555 1_555
C11C O7C 1_555 1_555
C12C C1C 1_555 1_555
H5C C12C 1_555 1_555
C13C C3C 1_555 1_555
H6C C13C 1_555 1_555
C14C O9C 1_555 1_555
C15C C2C 1_555 1_555
H7C C15C 1_555 1_555
C16C C12C 1_555 1_555
H8C C16C 1_555 1_555
C17C C10C 1_555 1_555
H9C C17C 1_555 1_555
C18C C14C 1_555 1_555
H10C C18C 1_555 1_555
C19C C1C 1_555 1_555
H13C C19C 1_555 1_555
C20C C8C 1_555 1_555
H14C C20C 1_555 1_555
C21C C9C 1_555 1_555
H15C C21C 1_555 1_555
Cu1D Cu1C 1_555 1_555
Cu1E Cu1B 1_555 1_555
Cu1F Cu1A 1_555 1_555
Cu1G Cu1 1_555 1_555
Cu1H O2B 1_555 1_555
Cu1I O2C 1_555 1_555
Cu1J O2A 1_555 1_555
Cu1K O2 1_555 1_555
Cu1L O1 1_555 1_555
Cu1M O1A 1_555 1_555
Cu1N O1C 1_555 1_555
Cu1O O1B 1_555 1_555
O1L Cu1 1_555 1_555
O1M Cu1A 1_555 1_555
O1N Cu1C 1_555 1_555
O1O Cu1B 1_555 1_555
O2H Cu1C 1_555 1_555
O2I Cu1B 1_555 1_555
O2J Cu1 1_555 1_555
O2K Cu1A 1_555 1_555
O4D Cu1C 1_555 1_555
O4E Cu1B 1_555 1_555
O4F Cu1A 1_555 1_555
O4G Cu1 1_555 1_555
O4 Cu1G 1_555 1_555
C3 C7 1_555 1_555
C6 C11 1_555 1_555
C11 C17 1_555 1_555
C14 C20 1_555 1_555
C15 C18 1_555 1_555
C19 C21 1_555 1_555
O4A Cu1F 1_555 1_555
O6A C7A 1_555 1_555
C3A C7A 1_555 1_555
C6A C11A 1_555 1_555
C11A C17A 1_555 1_555
C14A C20A 1_555 1_555
C15A C18A 1_555 1_555
C19A C21A 1_555 1_555
O4B Cu1E 1_555 1_555
O6B C7B 1_555 1_555
C3B C7B 1_555 1_555
C6B C11B 1_555 1_555
C11B C17B 1_555 1_555
C14B C20B 1_555 1_555
C15B C18B 1_555 1_555
C19B C21B 1_555 1_555
O4C Cu1D 1_555 1_555
O6C C7C 1_555 1_555
C3C C7C 1_555 1_555
C6C C11C 1_555 1_555
C11C C17C 1_555 1_555
C14C C20C 1_555 1_555
C15C C18C 1_555 1_555
C19C C21C 1_555 1_555
Cu1H Cu1O 1_555 1_555
Cu1I Cu1N 1_555 1_555
Cu1J Cu1M 1_555 1_555
Cu1K Cu1L 1_555 1_555

#END
