
#######################################################################
#
#                 Cambridge Crystallographic Data Centre
#                                CCDC 
#
#######################################################################
#
# If this CIF has been generated from an entry in the Cambridge 
# Structural Database, then it will include bibliographic, chemical, 
# crystal, experimental, refinement or atomic coordinate data resulting 
# from the CCDC's data processing and validation procedures.
#
#######################################################################

data_PENNAZ
_chemical_formula_moiety         '(C33 H25 Cd3 N5 O15)n'
_symmetry_cell_setting           monoclinic
_symmetry_space_group_name_H-M   'C 2/c'
_symmetry_Int_Tables_number      15
_space_group_name_Hall           '-C 2yc'
loop_
_symmetry_equiv_pos_site_id
_symmetry_equiv_pos_as_xyz
1 x,y,z
2 -x,y,1/2-z
3 1/2+x,1/2+y,z
4 1/2-x,1/2+y,1/2-z
5 -x,-y,-z
6 x,-y,1/2+z
7 1/2-x,1/2-y,-z
8 1/2+x,1/2-y,1/2+z
_cell_length_a                   34.8463(14)
_cell_length_b                   18.6178(7)
_cell_length_c                   23.5617(9)
_cell_angle_alpha                90
_cell_angle_beta                 119.9430(10)
_cell_angle_gamma                90
_cell_volume                     13245.6
loop_
_atom_site_label
_atom_site_type_symbol
_atom_site_fract_x
_atom_site_fract_y
_atom_site_fract_z
_atom_site_U_iso_or_equiv
_atom_site_thermal_displace_type
Cd1 Cd 0.209583(13) 0.12259(2) 0.30448(2) 0.0445 Uani
Cd2 Cd 0.320880(14) 0.14037(2) 0.32253(2) 0.0489 Uani
Cd3 Cd 0.175560(15) 0.56423(3) 0.04113(3) 0.0527 Uani
C1 C 0.2489(2) 0.3713(3) 0.2253(3) 0.0452 Uani
H1 H 0.2796 0.3763 0.2479 0.0540 Uiso
C2 C 0.2597(2) 0.2409(3) 0.2520(3) 0.0503 Uani
C3 C 0.23019(19) 0.3045(3) 0.2211(3) 0.0470 Uani
C4 C 0.22195(19) 0.4312(3) 0.1958(3) 0.0431 Uani
C5 C 0.24257(19) 0.5012(3) 0.1964(3) 0.0465 Uani
C6 C 0.1842(2) 0.2971(3) 0.1869(4) 0.0560 Uani
H2 H 0.1714 0.2523 0.1831 0.0670 Uiso
C7 C 0.1765(2) 0.4242(4) 0.1628(4) 0.0510 Uani
H3 H 0.1585 0.4640 0.1434 0.0610 Uiso
C8 C 0.1578(2) 0.3567(3) 0.1589(4) 0.0538 Uani
C9 C 0.0426(2) 0.3923(4) 0.0712(4) 0.0655 Uani
C10 C 0.0259(3) 0.3461(6) 0.0191(5) 0.0937 Uani
H4 H 0.0448 0.3147 0.0142 0.1120 Uiso
C11 C 0.0152(3) 0.4397(6) 0.0774(6) 0.0902 Uani
H5 H 0.0264 0.4720 0.1121 0.1080 Uiso
C12 C -0.0185(3) 0.3459(6) -0.0260(6) 0.0956 Uani
H6 H -0.0297 0.3148 -0.0616 0.1150 Uiso
C13 C -0.0302(3) 0.4391(6) 0.0305(6) 0.0871 Uani
H7 H -0.0489 0.4721 0.0341 0.1050 Uiso
C14 C -0.0468(2) 0.3931(5) -0.0181(4) 0.0697 Uani
C15 C -0.0949(2) 0.3931(6) -0.0703(5) 0.0775 Uani
C16 C 0.22619(17) 0.1824(3) 0.5233(3) 0.0414 Uani
H8 H 0.2566 0.1889 0.5492 0.0500 Uiso
C17 C 0.2411(2) 0.0953(4) 0.4568(4) 0.0511 Uani
C18 C 0.20982(19) 0.1340(3) 0.4717(3) 0.0423 Uani
C19 C 0.19764(18) 0.2212(3) 0.5367(3) 0.0441 Uani
C20 C 0.21522(19) 0.2784(3) 0.5886(3) 0.0461 Uani
C21 C 0.1647(2) 0.1228(4) 0.4342(3) 0.0491 Uani
H9 H 0.1535 0.0903 0.3997 0.0590 Uiso
C22 C 0.15196(19) 0.2101(4) 0.4989(3) 0.0491 Uani
H10 H 0.1325 0.2357 0.5076 0.0590 Uiso
C23 C 0.13602(19) 0.1606(4) 0.4485(3) 0.0513 Uani
C24 C 0.0195(2) 0.1603(5) 0.3823(4) 0.0712 Uani
C25 C 0.0026(3) 0.1170(6) 0.3305(5) 0.0919 Uani
H11 H 0.0213 0.0932 0.3192 0.1100 Uiso
C26 C -0.0085(4) 0.2002(7) 0.3933(6) 0.1061 Uani
H12 H 0.0031 0.2350 0.4259 0.1280 Uiso
C27 C -0.0436(3) 0.1072(7) 0.2930(6) 0.0929 Uani
H13 H -0.0550 0.0753 0.2579 0.1120 Uiso
C28 C -0.0539(4) 0.1910(7) 0.3575(6) 0.1077 Uani
H14 H -0.0724 0.2171 0.3677 0.1290 Uiso
C29 C -0.0712(2) 0.1427(4) 0.3068(4) 0.0626 Uani
C30 C -0.1211(3) 0.1335(5) 0.2655(5) 0.0673 Uani
C31 C 0.0519(7) 0.6594(15) -0.1806(14) 0.2539 Uani
H15 H 0.0415 0.6151 -0.2043 0.3050 Uiso
H16 H 0.0376 0.6990 -0.2097 0.3050 Uiso
H17 H 0.0451 0.6604 -0.1459 0.3050 Uiso
C32 C 0.1085(10) 0.7145(12) -0.1911(10) 0.2550 Uani
H18 H 0.1374 0.7345 -0.1633 0.3780 Uiso
H19 H 0.0870 0.7525 -0.2080 0.3780 Uiso
H20 H 0.1083 0.6893 -0.2267 0.3780 Uiso
C33 C 0.1259(5) 0.6426(7) -0.0951(6) 0.1167 Uani
H21 H 0.1545 0.6605 -0.0781 0.1400 Uiso
N1 N 0.11113(18) 0.3453(3) 0.1207(4) 0.0669 Uani
N2 N 0.08901(18) 0.3992(4) 0.1164(4) 0.0668 Uani
N3 N 0.09003(19) 0.1444(4) 0.4071(3) 0.0642 Uani
N4 N 0.0658(2) 0.1754(4) 0.4234(4) 0.0815 Uani
N5 N 0.0974(4) 0.6645(8) -0.1530(6) 0.1655 Uani
O1 O 0.24292(15) 0.1802(2) 0.2494(2) 0.0525 Uani
O2 O 0.30027(15) 0.2509(3) 0.2799(3) 0.0729 Uani
O3 O 0.21748(14) 0.5506(2) 0.1580(2) 0.0456 Uani
O4 O 0.28261(14) 0.5114(2) 0.2331(2) 0.0578 Uani
O5 O -0.11963(18) 0.4370(4) -0.0647(4) 0.0903 Uani
O6 O -0.1075(2) 0.3501(5) -0.1164(4) 0.1018 Uani
O7 O 0.22668(17) 0.0639(3) 0.4025(3) 0.0599 Uani
O8 O 0.28168(15) 0.0990(3) 0.4988(3) 0.0620 Uani
O9 O 0.25604(14) 0.2827(3) 0.6264(2) 0.0560 Uani
O10 O 0.18697(14) 0.3211(2) 0.5888(2) 0.0532 Uani
O11 O -0.1452(3) 0.1698(7) 0.2709(8) 0.1215 Uani
O12 O -0.1352(4) 0.0808(8) 0.2238(8) 0.1078 Uani
O13 O 0.3155(3) 0.0703(4) 0.2412(4) 0.1027 Uani
O14 O 0.1720(3) 0.4460(4) 0.0208(4) 0.1167 Uani
O15 O 0.1202(2) 0.6006(5) -0.0593(4) 0.1018 Uani
Cd1C Cd 0.290417(13) 0.62259(2) 0.19552(2) 0.0445 Uani
Cd1F Cd 0.290417(13) 0.37741(2) 0.69552(2) 0.0445 Uani
Cd1A Cd -0.209583(13) 0.12259(2) 0.19552(2) 0.0445 Uani
Cd2C Cd 0.179120(14) 0.64037(2) 0.17747(2) 0.0489 Uani
Cd2G Cd -0.179120(14) 0.35963(2) -0.17747(2) 0.0489 Uani
Cd2F Cd 0.179120(14) 0.35963(2) 0.67747(2) 0.0489 Uani
Cd3D Cd -0.175560(15) 0.43577(3) -0.04113(3) 0.0527 Uani
Cd3C Cd 0.324440(15) 0.06423(3) 0.45887(3) 0.0527 Uani
Cd3E Cd 0.175560(15) 0.43577(3) 0.54113(3) 0.0527 Uani
O3C O 0.28252(14) 0.0506(2) 0.3420(2) 0.0456 Uani
O4C O 0.21739(14) 0.0114(2) 0.2669(2) 0.0578 Uani
O5D O 0.11963(18) 0.5630(4) 0.0647(4) 0.0903 Uani
O6G O 0.3925(2) 0.1499(5) 0.3836(4) 0.1018 Uani
O8C O 0.21832(15) 0.5990(3) 0.0012(3) 0.0620 Uani
O9F O 0.24396(14) 0.2173(3) 0.3736(2) 0.0560 Uani
O10F O 0.31303(14) 0.1789(2) 0.4112(2) 0.0532 Uani
O10E O 0.18697(14) 0.6789(2) 0.0888(2) 0.0532 Uani
O11A O 0.1452(3) 0.1698(7) 0.2291(8) 0.1215 Uani
O12A O 0.1352(4) 0.0808(8) 0.2762(8) 0.1078 Uani
loop_
_atom_site_aniso_label
_atom_site_aniso_U_11
_atom_site_aniso_U_22
_atom_site_aniso_U_33
_atom_site_aniso_U_23
_atom_site_aniso_U_13
_atom_site_aniso_U_12
Cd1 0.0201(2) 0.0386(3) 0.0578(3) -0.00647(19) 0.0067(2) 0.00293(15)
Cd2 0.0295(3) 0.0414(3) 0.0611(3) 0.0020(2) 0.0115(2) 0.00782(17)
Cd3 0.0325 0.0528 0.0603 0.0025 0.0138 -0.0103
C1 0.026(3) 0.041(3) 0.055(4) 0.007(3) 0.010(3) -0.003(2)
C2 0.033(3) 0.039(3) 0.066(4) 0.010(3) 0.015(3) 0.005(3)
C3 0.028(3) 0.037(3) 0.059(4) 0.009(3) 0.009(3) 0.001(2)
C4 0.028(3) 0.036(3) 0.051(3) 0.006(3) 0.009(3) -0.002(2)
C5 0.03 0.037 0.059 0.005 0.012 -0.001
C6 0.035(3) 0.032(3) 0.077(5) 0.012(3) 0.010(3) -0.003(2)
C7 0.028(3) 0.041(3) 0.067(4) 0.014(3) 0.011(3) 0.001(2)
C8 0.025(3) 0.039(3) 0.074(4) 0.010(3) 0.007(3) -0.005(2)
C9 0.024(3) 0.054(4) 0.093(6) 0.012(4) 0.010(3) -0.005(3)
C10 0.039(4) 0.092(7) 0.112(8) -0.024(6) 0.009(5) 0.008(4)
C11 0.038(4) 0.096(7) 0.112(8) -0.020(6) 0.019(5) 0.004(4)
C12 0.041(4) 0.103(8) 0.106(7) -0.015(6) 0.009(5) 0.004(5)
C13 0.038(4) 0.092(7) 0.117(8) -0.004(6) 0.028(5) 0.008(4)
C14 0.030(4) 0.076(5) 0.081(5) 0.022(5) 0.011(4) -0.005(4)
C15 0.026 0.09 0.099 0.037 0.018 0.001
C16 0.02 0.039 0.055 -0.003 0.011 -0.002
C17 0.04 0.048 0.062 0.001 0.023 0.006
C18 0.028 0.039 0.053 -0.003 0.015 -0.001
C19 0.025 0.035 0.057 -0.003 0.009 -0.003
C20 0.032 0.041 0.056 -0.009 0.015 -0.001
C21 0.032 0.05 0.053 -0.013 0.012 -0.009
C22 0.024 0.05 0.063 -0.008 0.014 0.001
C23 0.023 0.054 0.062 -0.013 0.01 -0.005
C24 0.032 0.083 0.081 -0.028 0.015 -0.004
C25 0.071 0.109 0.101 -0.026 0.047 -0.003
C26 0.082 0.113 0.115 -0.03 0.043 0.006
C27 0.07 0.112 0.096 -0.024 0.041 -0.006
C28 0.08 0.114 0.12 -0.023 0.043 0.008
C29 0.03 0.064 0.073 -0.001 0.01 0
C30 0.031 0.066 0.078 0.009 0.007 -0.009
C31 0.254 0.254 0.254 0.0001 0.127 0.0001
C32 0.42 0.18 0.139 0.061 0.12 0.02
C33 0.095 0.117 0.098 0.03 0.018 0.011
N1 0.027(3) 0.045(3) 0.094(5) 0.017(3) 0.004(3) -0.005(2)
N2 0.027(3) 0.062(4) 0.087(4) 0.008(3) 0.010(3) -0.001(3)
N3 0.027 0.078 0.072 -0.02 0.013 -0.004
N4 0.029 0.098 0.094 -0.039 0.013 -0.005
N5 0.114 0.165 0.115 0.065 -0.02 -0.01
O1 0.041(2) 0.035(2) 0.071(3) 0.005(2) 0.020(2) 0.0032(19)
O2 0.030(2) 0.047(3) 0.113(4) 0.024(3) 0.014(3) 0.006(2)
O3 0.035 0.033 0.058 0.0068 0.015 -0.0006
O4 0.028 0.047 0.074 0.013 0.007 -0.0075
O5 0.033 0.091 0.133 0.054 0.031 0.01
O6 0.032 0.147 0.094 -0.003 0.007 -0.016
O7 0.059 0.053 0.068 -0.01 0.032 0.005
O8 0.032 0.074 0.073 -0.005 0.021 0.01
O9 0.03 0.052 0.065 -0.018 0.008 -0.0036
O10 0.034 0.045 0.066 -0.012 0.014 0.0013
O11 0.013 0.11 0.178 -0.066 0 0.004
O12 0.037 0.129 0.134 -0.059 0.025 -0.018
O13 0.126(6) 0.083(5) 0.112(5) -0.011(4) 0.069(5) 0.023(4)
O14 0.161 0.077 0.122 -0.026 0.078 -0.032
O15 0.049 0.127 0.086 0.031 0.001 -0.006
Cd1C 0.0201 0.0386 0.0578 0.00647 0.0067 -0.00293
Cd1F 0.0201 0.0386 0.0578 -0.00647 0.0067 0.00293
Cd1A 0.0201 0.0386 0.0578 0.00647 0.0067 -0.00293
Cd2C 0.0295 0.0414 0.0611 -0.002 0.0115 -0.00782
Cd2G 0.0295 0.0414 0.0611 -0.002 0.0115 -0.00782
Cd2F 0.0295 0.0414 0.0611 0.002 0.0115 0.00782
Cd3D 0.0325 0.0528 0.0603 0.0025 0.0138 -0.0103
Cd3C 0.0325(3) 0.0528(3) 0.0603(3) -0.0025(2) 0.0138(2) 0.01030(19)
Cd3E 0.0325 0.0528 0.0603 -0.0025 0.0138 0.0103
O3C 0.035 0.033 0.058 -0.0068 0.015 0.0006
O4C 0.028 0.047 0.074 -0.013 0.007 0.0075
O5D 0.033 0.091 0.133 0.054 0.031 0.01
O6G 0.032 0.147 0.094 0.003 0.007 0.016
O8C 0.032 0.074 0.073 0.005 0.021 -0.01
O9F 0.030(2) 0.052(3) 0.065(3) -0.018(2) 0.008(2) -0.0036(19)
O10F 0.034(2) 0.045(2) 0.066(3) -0.012(2) 0.014(2) 0.0013(19)
O10E 0.034 0.045 0.066 0.012 0.014 -0.0013
O11A 0.013 0.11 0.178 0.066 0 -0.004
O12A 0.037 0.129 0.134 0.059 0.025 0.018
loop_
_geom_bond_atom_site_label_1
_geom_bond_atom_site_label_2
_geom_bond_site_symmetry_1
_geom_bond_site_symmetry_2
Cd1 O1 1_555 1_555
Cd2 O1 1_555 1_555
Cd3 O3 1_555 1_555
C1 H1 1_555 1_555
C2 C3 1_555 1_555
C3 C1 1_555 1_555
C4 C1 1_555 1_555
C5 C4 1_555 1_555
C6 C3 1_555 1_555
H2 C6 1_555 1_555
C7 C4 1_555 1_555
H3 C7 1_555 1_555
C8 C6 1_555 1_555
C9 C10 1_555 1_555
C10 H4 1_555 1_555
C11 C9 1_555 1_555
H5 C11 1_555 1_555
C12 C10 1_555 1_555
H6 C12 1_555 1_555
C13 C11 1_555 1_555
H7 C13 1_555 1_555
C14 C12 1_555 1_555
C15 C14 1_555 1_555
C16 H8 1_555 1_555
C17 C18 1_555 1_555
C18 C16 1_555 1_555
C19 C16 1_555 1_555
C20 C19 1_555 1_555
C21 C18 1_555 1_555
H9 C21 1_555 1_555
C22 C19 1_555 1_555
H10 C22 1_555 1_555
C23 C21 1_555 1_555
C24 C25 1_555 1_555
C25 H11 1_555 1_555
C26 C24 1_555 1_555
H12 C26 1_555 1_555
C27 C25 1_555 1_555
H13 C27 1_555 1_555
C28 C26 1_555 1_555
H14 C28 1_555 1_555
C29 C27 1_555 1_555
C30 C29 1_555 1_555
C31 H15 1_555 1_555
H16 C31 1_555 1_555
H17 C31 1_555 1_555
C32 H18 1_555 1_555
H19 C32 1_555 1_555
H20 C32 1_555 1_555
C33 H21 1_555 1_555
N1 C8 1_555 1_555
N2 C9 1_555 1_555
N3 C23 1_555 1_555
N4 C24 1_555 1_555
N5 C31 1_555 1_555
O1 C2 1_555 1_555
O2 Cd2 1_555 1_555
O3 C5 1_555 1_555
O4 C5 1_555 1_555
O5 C15 1_555 1_555
O6 C15 1_555 1_555
O7 Cd1 1_555 1_555
O8 C17 1_555 1_555
O9 C20 1_555 1_555
O10 C20 1_555 1_555
O11 C30 1_555 1_555
O12 C30 1_555 1_555
O13 Cd2 1_555 1_555
O14 Cd3 1_555 1_555
O15 Cd3 1_555 1_555
Cd1C O4 1_555 1_555
Cd1F O9 1_555 1_555
Cd1A O11 1_555 1_555
Cd2C O3 1_555 1_555
Cd2G O6 1_555 1_555
Cd2F O10 1_555 1_555
Cd3D O5 1_555 1_555
Cd3C O8 1_555 1_555
Cd3E O10 1_555 1_555
O3C Cd2 1_555 1_555
O4C Cd1 1_555 1_555
O5D Cd3 1_555 1_555
O6G Cd2 1_555 1_555
O8C Cd3 1_555 1_555
O9F Cd1 1_555 1_555
O10F Cd2 1_555 1_555
O10E Cd3 1_555 1_555
O11A Cd1 1_555 1_555
O12A Cd1 1_555 1_555
C2 O2 1_555 1_555
C7 C8 1_555 1_555
C13 C14 1_555 1_555
C17 O7 1_555 1_555
C22 C23 1_555 1_555
C28 C29 1_555 1_555
C32 N5 1_555 1_555
C33 N5 1_555 1_555
C33 O15 1_555 1_555
N1 N2 1_555 1_555
N3 N4 1_555 1_555
O12 Cd1A 1_555 1_555
Cd2C O10E 1_555 1_555
Cd3C O3C 1_555 1_555
Cd3C O10F 1_555 1_555

#END
