
#######################################################################
#
#                 Cambridge Crystallographic Data Centre
#                                CCDC 
#
#######################################################################
#
# If this CIF has been generated from an entry in the Cambridge 
# Structural Database, then it will include bibliographic, chemical, 
# crystal, experimental, refinement or atomic coordinate data resulting 
# from the CCDC's data processing and validation procedures.
#
#######################################################################

data_EMEHUB
_chemical_formula_moiety         'C42 H34 Cu4 F7 N6 Si1'
_symmetry_cell_setting           tetragonal
_symmetry_space_group_name_H-M   'I 4/m m m'
_symmetry_Int_Tables_number      139
_space_group_name_Hall           '-I 4 2'
loop_
_symmetry_equiv_pos_site_id
_symmetry_equiv_pos_as_xyz
1 x,y,z
2 -y,x,z
3 -x,-y,z
4 y,-x,z
5 x,-y,-z
6 y,x,-z
7 -x,y,-z
8 -y,-x,-z
9 1/2+x,1/2+y,1/2+z
10 1/2-y,1/2+x,1/2+z
11 1/2-x,1/2-y,1/2+z
12 1/2+y,1/2-x,1/2+z
13 1/2+x,1/2-y,1/2-z
14 1/2+y,1/2+x,1/2-z
15 1/2-x,1/2+y,1/2-z
16 1/2-y,1/2-x,1/2-z
17 -x,-y,-z
18 y,-x,-z
19 x,y,-z
20 -y,x,-z
21 -x,y,z
22 -y,-x,z
23 x,-y,z
24 y,x,z
25 1/2-x,1/2-y,1/2-z
26 1/2+y,1/2-x,1/2-z
27 1/2+x,1/2+y,1/2-z
28 1/2-y,1/2+x,1/2-z
29 1/2-x,1/2+y,1/2+z
30 1/2-y,1/2-x,1/2+z
31 1/2+x,1/2-y,1/2+z
32 1/2+y,1/2+x,1/2+z
_cell_length_a                   13.7150(4)
_cell_length_b                   13.715
_cell_length_c                   7.95226(32)
_cell_angle_alpha                90
_cell_angle_beta                 90
_cell_angle_gamma                90
_cell_volume                     1495.83
loop_
_atom_site_label
_atom_site_type_symbol
_atom_site_fract_x
_atom_site_fract_y
_atom_site_fract_z
_atom_site_U_iso_or_equiv
_atom_site_thermal_displace_type
D1 D 0.1901(8) 0.1901(8) 0.4012(17) 0.0964 Uiso
C5 C 0.2293(6) 0.2293(6) 0.3024(12) 0.0527 Uiso
D1X D 0.3099(8) 0.3099(8) 0.0988(17) 0.0964 Uiso
C5X C 0.2707(6) 0.2707(6) 0.1976(12) 0.0527 Uiso
C1 C 0.0227(4) 0.19917(25) 0.1404(4) 0.0140 Uiso
C2 C 0.02506(28) 0.30028(25) 0.1469(4) 0.0140 Uiso
H1 H 0.0353(10) 0.1575(9) 0.2551(10) 0.0535 Uiso
H2 H 0.0366(9) 0.3363(10) 0.2674(10) 0.0535 Uiso
C3 C -0.000 0.3521(4) 0.000 0.0297 Uiso
C4 C 0.000 0.4553(4) 0.000 0.0297 Uiso
N1 N 0.000 0.14897(34) 0.000 0.0240 Uiso
Cu1 Cu 0.000 0.000 0.000 0.0281 Uiso
Si1 Si 0.000 0.000 0.500 0.0113 Uiso
F1 F 0.000 0.000 0.2830(13) 0.0265 Uiso
F2 F 0.0878(4) 0.0878(4) 0.500 0.0293 Uiso
C1B C -0.0227(4) 0.80083(25) 0.1404(4) 0.0140 Uiso
C2B C -0.02506(28) 0.69972(25) 0.1469(4) 0.0140 Uiso
H1B H -0.0353(10) 0.8425(9) 0.2551(10) 0.0535 Uiso
H2B H -0.0366(9) 0.6637(10) 0.2674(10) 0.0535 Uiso
C3B C -0.000 0.6479(4) 0.000 0.0297 Uiso
C4B C -0.000 0.5447(4) 0.000 0.0297 Uiso
N1B N -0.000 0.85103(34) 0.000 0.0240 Uiso
C1T C -0.0227(4) 0.19917(25) 0.1404(4) 0.0140 Uiso
C2T C -0.02506(28) 0.30028(25) 0.1469(4) 0.0140 Uiso
H1T H -0.0353(10) 0.1575(9) 0.2551(10) 0.0535 Uiso
H2T H -0.0366(9) 0.3363(10) 0.2674(10) 0.0535 Uiso
C1V C 0.0227(4) 0.80083(25) 0.1404(4) 0.0140 Uiso
C2V C 0.02506(28) 0.69972(25) 0.1469(4) 0.0140 Uiso
H1V H 0.0353(10) 0.8425(9) 0.2551(10) 0.0535 Uiso
H2V H 0.0366(9) 0.6637(10) 0.2674(10) 0.0535 Uiso
C1P C -0.0227(4) 0.80083(25) -0.1404(4) 0.0140 Uiso
C2P C -0.02506(28) 0.69972(25) -0.1469(4) 0.0140 Uiso
H1P H -0.0353(10) 0.8425(9) -0.2551(10) 0.0535 Uiso
H2P H -0.0366(9) 0.6637(10) -0.2674(10) 0.0535 Uiso
C1R C 0.0227(4) 0.19917(25) -0.1404(4) 0.0140 Uiso
C2R C 0.02506(28) 0.30028(25) -0.1469(4) 0.0140 Uiso
H1R H 0.0353(10) 0.1575(9) -0.2551(10) 0.0535 Uiso
H2R H 0.0366(9) 0.3363(10) -0.2674(10) 0.0535 Uiso
C1D C 0.0227(4) 0.80083(25) -0.1404(4) 0.0140 Uiso
C2D C 0.02506(28) 0.69972(25) -0.1469(4) 0.0140 Uiso
H1D H 0.0353(10) 0.8425(9) -0.2551(10) 0.0535 Uiso
H2D H 0.0366(9) 0.6637(10) -0.2674(10) 0.0535 Uiso
C1F C -0.0227(4) 0.19917(25) -0.1404(4) 0.0140 Uiso
C2F C -0.02506(28) 0.30028(25) -0.1469(4) 0.0140 Uiso
H1F H -0.0353(10) 0.1575(9) -0.2551(10) 0.0535 Uiso
H2F H -0.0366(9) 0.3363(10) -0.2674(10) 0.0535 Uiso
F2A F -0.0878(4) 0.0878(4) 0.500 0.0293 Uiso
F2B F -0.0878(4) -0.0878(4) 0.500 0.0293 Uiso
F2C F 0.0878(4) -0.0878(4) 0.500 0.0293 Uiso
F1P F 0.000 0.000 0.7170(13) 0.0265 Uiso
C1A C -0.19917(25) 0.0227(4) 0.1404(4) 0.0140 Uiso
C2A C -0.30028(25) 0.02506(28) 0.1469(4) 0.0140 Uiso
H1A H -0.1575(9) 0.0353(10) 0.2551(10) 0.0535 Uiso
H2A H -0.3363(10) 0.0366(9) 0.2674(10) 0.0535 Uiso
C3A C -0.3521(4) 0.000 0.000 0.0297 Uiso
C4A C -0.4553(4) 0.000 0.000 0.0297 Uiso
N1A N -0.14897(34) 0.000 0.000 0.0240 Uiso
C1C C -0.80083(25) -0.0227(4) 0.1404(4) 0.0140 Uiso
C2C C -0.69972(25) -0.02506(28) 0.1469(4) 0.0140 Uiso
H1C H -0.8425(9) -0.0353(10) 0.2551(10) 0.0535 Uiso
H2C H -0.6637(10) -0.0366(9) 0.2674(10) 0.0535 Uiso
C3C C -0.6479(4) 0.000 0.000 0.0297 Uiso
C4C C -0.5447(4) 0.000 0.000 0.0297 Uiso
N1C N -0.85103(34) 0.000 0.000 0.0240 Uiso
C1U C -0.19917(25) -0.0227(4) 0.1404(4) 0.0140 Uiso
C2U C -0.30028(25) -0.02506(28) 0.1469(4) 0.0140 Uiso
H1U H -0.1575(9) -0.0353(10) 0.2551(10) 0.0535 Uiso
H2U H -0.3363(10) -0.0366(9) 0.2674(10) 0.0535 Uiso
C1W C -0.80083(25) 0.0227(4) 0.1404(4) 0.0140 Uiso
C2W C -0.69972(25) 0.02506(28) 0.1469(4) 0.0140 Uiso
H1W H -0.8425(9) 0.0353(10) 0.2551(10) 0.0535 Uiso
H2W H -0.6637(10) 0.0366(9) 0.2674(10) 0.0535 Uiso
C1Q C -0.80083(25) -0.0227(4) -0.1404(4) 0.0140 Uiso
C2Q C -0.69972(25) -0.02506(28) -0.1469(4) 0.0140 Uiso
H1Q H -0.8425(9) -0.0353(10) -0.2551(10) 0.0535 Uiso
H2Q H -0.6637(10) -0.0366(9) -0.2674(10) 0.0535 Uiso
C1S C -0.19917(25) 0.0227(4) -0.1404(4) 0.0140 Uiso
C2S C -0.30028(25) 0.02506(28) -0.1469(4) 0.0140 Uiso
H1S H -0.1575(9) 0.0353(10) -0.2551(10) 0.0535 Uiso
H2S H -0.3363(10) 0.0366(9) -0.2674(10) 0.0535 Uiso
C1E C -0.80083(25) 0.0227(4) -0.1404(4) 0.0140 Uiso
C2E C -0.69972(25) 0.02506(28) -0.1469(4) 0.0140 Uiso
H1E H -0.8425(9) 0.0353(10) -0.2551(10) 0.0535 Uiso
H2E H -0.6637(10) 0.0366(9) -0.2674(10) 0.0535 Uiso
C1G C -0.19917(25) -0.0227(4) -0.1404(4) 0.0140 Uiso
C2G C -0.30028(25) -0.02506(28) -0.1469(4) 0.0140 Uiso
H1G H -0.1575(9) -0.0353(10) -0.2551(10) 0.0535 Uiso
H2G H -0.3363(10) -0.0366(9) -0.2674(10) 0.0535 Uiso
N1B_2 N 0.000 -0.14897(34) 0.000 0.0240 Uiso
N1C_2 N 0.14897(34) 0.000 0.000 0.0240 Uiso
Cu1_2 Cu -1.000 0.000 0.000 0.0281 Uiso
Cu1_3 Cu 0.000 0.000 1.000 0.0281 Uiso
Cu1_4 Cu 0.000 1.000 0.000 0.0281 Uiso
F1P_2 F -0.000 -0.000 -0.2830(13) 0.0265 Uiso
loop_
_geom_bond_atom_site_label_1
_geom_bond_atom_site_label_2
_geom_bond_site_symmetry_1
_geom_bond_site_symmetry_2
C1 C2 1_555 1_555
C2 H2 1_555 1_555
H1 C1 1_555 1_555
H2 H2T 1_555 1_555
C3 C2 1_555 1_555
C4 C3 1_555 1_555
N1 C1 1_555 1_555
Cu1 N1 1_555 1_555
Si1 F1 1_555 1_555
F1 Cu1 1_555 1_555
F2 Si1 1_555 1_555
D1 C5 1_555 1_555
C5 C5X 1_555 1_555
C1B C2B 1_555 1_555
C2B H2B 1_555 1_555
H1B C1B 1_555 1_555
H2B H2V 1_555 1_555
C3B C2B 1_555 1_555
C4B C4 1_555 1_555
N1B C1B 1_555 1_555
C1T C1 1_555 1_555
C2T C1 1_555 1_555
H1T C1 1_555 1_555
H2T C2T 1_555 1_555
C1V C1B 1_555 1_555
C2V C1B 1_555 1_555
H1V C1B 1_555 1_555
H2V C2V 1_555 1_555
C1P N1B 1_555 1_555
C2P C3B 1_555 1_555
H1P C1P 1_555 1_555
H2P C2P 1_555 1_555
C1R N1 1_555 1_555
C2R C3 1_555 1_555
H1R C1R 1_555 1_555
H2R C2R 1_555 1_555
C1D N1B 1_555 1_555
C2D C3B 1_555 1_555
H1D C1P 1_555 1_555
H2D H2P 1_555 1_555
C1F N1 1_555 1_555
C2F C3 1_555 1_555
H1F C1R 1_555 1_555
H2F H2R 1_555 1_555
F2A Si1 1_555 1_555
F2B Si1 1_555 1_555
F2C Si1 1_555 1_555
F1P Si1 1_555 1_555
C1A C2A 1_555 1_555
C2A H2A 1_555 1_555
H1A C1A 1_555 1_555
H2A H2U 1_555 1_555
C3A C2A 1_555 1_555
C4A C3A 1_555 1_555
N1A Cu1 1_555 1_555
C1C C2C 1_555 1_555
C2C H2C 1_555 1_555
H1C C1C 1_555 1_555
H2C H2W 1_555 1_555
C3C C2C 1_555 1_555
C4C C4A 1_555 1_555
N1C C1C 1_555 1_555
C1U C1A 1_555 1_555
C2U C1A 1_555 1_555
H1U C1A 1_555 1_555
H2U C2U 1_555 1_555
C1W C1C 1_555 1_555
C2W C1C 1_555 1_555
H1W C1C 1_555 1_555
H2W C2W 1_555 1_555
C1Q N1C 1_555 1_555
C2Q C3C 1_555 1_555
H1Q C1Q 1_555 1_555
H2Q C2Q 1_555 1_555
C1S N1A 1_555 1_555
C2S C3A 1_555 1_555
H1S C1S 1_555 1_555
H2S C2S 1_555 1_555
C1E N1C 1_555 1_555
C2E C3C 1_555 1_555
H1E C1Q 1_555 1_555
H2E H2Q 1_555 1_555
C1G N1A 1_555 1_555
C2G C3A 1_555 1_555
H1G C1S 1_555 1_555
H2G H2S 1_555 1_555
N1B_2 Cu1 1_555 1_555
N1C_2 Cu1 1_555 1_555
Cu1_2 N1C 1_555 1_555
Cu1_3 F1P 1_555 1_555
Cu1_4 N1B 1_555 1_555
F1P_2 Cu1 1_555 1_555
D1X C5X 1_555 1_555
C2 C1T 1_555 1_555
C2 C2T 1_555 1_555
H1 C1T 1_555 1_555
H1 H1T 1_555 1_555
C3 C2T 1_555 1_555
N1 C1T 1_555 1_555
C2B C1V 1_555 1_555
C2B C2V 1_555 1_555
H1B C1V 1_555 1_555
H1B H1V 1_555 1_555
C3B C4B 1_555 1_555
C3B C2V 1_555 1_555
N1B C1V 1_555 1_555
C1T C2T 1_555 1_555
C1T H1T 1_555 1_555
C1V C2V 1_555 1_555
C1V H1V 1_555 1_555
C1P C2P 1_555 1_555
C1P C1D 1_555 1_555
C1P C2D 1_555 1_555
C2P C1D 1_555 1_555
C2P C2D 1_555 1_555
H1P C1D 1_555 1_555
H1P H1D 1_555 1_555
C1R C2R 1_555 1_555
C1R C1F 1_555 1_555
C1R C2F 1_555 1_555
C2R C1F 1_555 1_555
C2R C2F 1_555 1_555
H1R C1F 1_555 1_555
H1R H1F 1_555 1_555
C1D C2D 1_555 1_555
C1D H1D 1_555 1_555
C2D H2D 1_555 1_555
C1F C2F 1_555 1_555
C1F H1F 1_555 1_555
C2F H2F 1_555 1_555
C1A N1A 1_555 1_555
C2A C1U 1_555 1_555
C2A C2U 1_555 1_555
H1A C1U 1_555 1_555
H1A H1U 1_555 1_555
C3A C2U 1_555 1_555
N1A C1U 1_555 1_555
C2C C1W 1_555 1_555
C2C C2W 1_555 1_555
H1C C1W 1_555 1_555
H1C H1W 1_555 1_555
C3C C4C 1_555 1_555
C3C C2W 1_555 1_555
N1C C1W 1_555 1_555
C1U C2U 1_555 1_555
C1U H1U 1_555 1_555
C1W C2W 1_555 1_555
C1W H1W 1_555 1_555
C1Q C2Q 1_555 1_555
C1Q C1E 1_555 1_555
C1Q C2E 1_555 1_555
C2Q C1E 1_555 1_555
C2Q C2E 1_555 1_555
H1Q C1E 1_555 1_555
H1Q H1E 1_555 1_555
C1S C2S 1_555 1_555
C1S C1G 1_555 1_555
C1S C2G 1_555 1_555
C2S C1G 1_555 1_555
C2S C2G 1_555 1_555
H1S C1G 1_555 1_555
H1S H1G 1_555 1_555
C1E C2E 1_555 1_555
C1E H1E 1_555 1_555
C2E H2E 1_555 1_555
C1G C2G 1_555 1_555
C1G H1G 1_555 1_555
C2G H2G 1_555 1_555

#END
