
#######################################################################
#
#                 Cambridge Crystallographic Data Centre
#                                CCDC 
#
#######################################################################
#
# If this CIF has been generated from an entry in the Cambridge 
# Structural Database, then it will include bibliographic, chemical, 
# crystal, experimental, refinement or atomic coordinate data resulting 
# from the CCDC's data processing and validation procedures.
#
#######################################################################

data_BUNKUS
_chemical_formula_moiety         'C56 H58 F6 O38 Zr11'
_symmetry_cell_setting           hexagonal
_symmetry_space_group_name_H-M   'P 6/m m m'
_symmetry_Int_Tables_number      191
_space_group_name_Hall           '-P 6 2'
loop_
_symmetry_equiv_pos_site_id
_symmetry_equiv_pos_as_xyz
1 x,y,z
2 -y,x-y,z
3 -x+y,-x,z
4 -x,-y,z
5 y,-x+y,z
6 x-y,x,z
7 y,x,-z
8 x-y,-y,-z
9 -x,-x+y,-z
10 -y,-x,-z
11 -x+y,y,-z
12 x,x-y,-z
13 -x,-y,-z
14 y,-x+y,-z
15 x-y,x,-z
16 x,y,-z
17 -y,x-y,-z
18 -x+y,-x,-z
19 -y,-x,z
20 -x+y,y,z
21 x,x-y,z
22 y,x,z
23 x-y,-y,z
24 -x,-x+y,z
_cell_length_a                   49.92(2)
_cell_length_b                   49.92(2)
_cell_length_c                   16.195(6)
_cell_angle_alpha                90
_cell_angle_beta                 90
_cell_angle_gamma                120
_cell_volume                     34951.1
loop_
_atom_site_label
_atom_site_type_symbol
_atom_site_fract_x
_atom_site_fract_y
_atom_site_fract_z
O7 O 0.62861 1.20262 -0.09577
O8 O 0.57302 -0.12557 -0.08587
O9 O 0.39181 0.66568 0.29969
O10 O 0.73192 1.03524 -0.39646
O11 O 0.33404 0.60897 -0.11795
O12 O 1.07382 0.62952 -0.0795
O13 O 1.37324 0.21675 0.72123
O14 O 0.61921 0.58585 0.22435
O15 O 0.46738 0.58603 -0.41021
O16 O 0.80947 0.25133 -1.10207
O17 O -0.34387 0.62175 -0.08189
O18 O 0.03706 0.78859 0.32403
O19 O 0.52893 0.95377 -0.3136
Zr1 Zr 0.46388 0.000 0.1083
Zr2 Zr 0.52669 0.05338 0.000
O1 O 0.47616 0.000 0.23155
O2 O 0.51338 0.02676 0.10884
O3 O 0.47682 0.03079 0.000
O4 O 0.41996 0.000 0.08034
O5 O 0.516812 0.081569 0.072411
O6 O 0.477082 0.046669 0.147813
C1 C 0.49728 0.07573 0.13295
C2 C 0.499149 0.102843 0.182221
C3 C 0.473758 0.098875 0.227503
C4 C 0.475452 0.123457 0.272175
C5 C 0.502235 0.152257 0.272688
C6 C 0.527929 0.155974 0.226282
C7 C 0.526234 0.131392 0.18161
C8 C 0.503357 0.17834 0.321502
C9 C 0.476185 0.178519 0.339016
C10 C 0.477224 0.202689 0.38425
C11 C 0.505413 0.2267 0.412022
C12 C 0.532606 0.226501 0.394457
C13 C 0.531567 0.202331 0.349223
C14 C 0.5098 0.2549 0.458025
H1 H 0.454272 0.078336 0.227943
H2 H 0.457185 0.120602 0.304753
H3 H 0.547516 0.176423 0.225454
H4 H 0.544501 0.134246 0.149033
H5 H 0.45589 0.161259 0.319073
H6 H 0.457659 0.202789 0.396807
H7 H 0.552909 0.243754 0.414381
H8 H 0.551115 0.202202 0.336623
C15 C 0.500 -0.000 0.27106
C16 C 0.500 0.000 0.36606
F1 F 0.47145 0.000 0.39491
F2 F 0.49852 0.02672 0.39491
O1C O 0.52384 0.000 0.23155
F1C F 0.52855 0.000 0.39491
F2C F 0.50148 -0.02672 0.39491
F2S F 0.52820 0.02672 0.39491
F2V F 0.47180 -0.02672 0.39491
O5K O 0.516812 0.435243 0.927589
O6K O 0.477082 0.430413 0.852187
C1K C 0.49728 0.42155 0.86705
C2K C 0.499149 0.396306 0.817779
C3K C 0.473758 0.374883 0.772497
C4K C 0.475452 0.351995 0.727825
C5K C 0.502235 0.349978 0.727312
C6K C 0.527929 0.371955 0.773718
C7K C 0.526234 0.394842 0.81839
C8K C 0.503357 0.325017 0.678498
C9K C 0.476185 0.297666 0.660984
C10K C 0.477224 0.274535 0.61575
C11K C 0.505413 0.278713 0.587978
C12K C 0.532606 0.306105 0.605543
C13K C 0.531567 0.329236 0.650777
C14K C 0.5098 0.2549 0.541975
H1K H 0.454272 0.375936 0.772057
H2K H 0.457185 0.336583 0.695247
H3K H 0.547516 0.371093 0.774546
H4K H 0.544501 0.410255 0.850967
H5K H 0.45589 0.294631 0.680927
H6K H 0.457659 0.254870 0.603193
H7K H 0.552909 0.309155 0.585619
H8K H 0.551115 0.348913 0.663377
O5O O 0.516812 0.081569 0.927589
O6O O 0.477082 0.046669 0.852187
C1O C 0.49728 0.07573 0.86705
C2O C 0.499149 0.102843 0.817779
C3O C 0.473758 0.098875 0.772497
C4O C 0.475452 0.123457 0.727825
C5O C 0.502235 0.152257 0.727312
C6O C 0.527929 0.155974 0.773718
C7O C 0.526234 0.131392 0.81839
C8O C 0.503357 0.17834 0.678498
C9O C 0.476185 0.178519 0.660984
C10O C 0.477224 0.202689 0.61575
C11O C 0.505413 0.2267 0.587978
C12O C 0.532606 0.226501 0.605543
C13O C 0.531567 0.202331 0.650777
H1O H 0.454272 0.078336 0.772057
H2O H 0.457185 0.120602 0.695247
H3O H 0.547516 0.176423 0.774546
H4O H 0.544501 0.134246 0.850967
H5O H 0.45589 0.161259 0.680927
H6O H 0.457659 0.202789 0.603193
H7O H 0.552909 0.243754 0.585619
H8O H 0.551115 0.202202 0.663377
O5T O 0.516812 0.435243 0.072411
O6T O 0.477082 0.430413 0.147813
C1T C 0.49728 0.42155 0.13295
C2T C 0.499149 0.396306 0.182221
C3T C 0.473758 0.374883 0.227503
C4T C 0.475452 0.351995 0.272175
C5T C 0.502235 0.349978 0.272688
C6T C 0.527929 0.371955 0.226282
C7T C 0.526234 0.394842 0.18161
C8T C 0.503357 0.325017 0.321502
C9T C 0.476185 0.297666 0.339016
C10T C 0.477224 0.274535 0.38425
C11T C 0.505413 0.278713 0.412022
C12T C 0.532606 0.306105 0.394457
C13T C 0.531567 0.329236 0.349223
H1T H 0.454272 0.375936 0.227943
H2T H 0.457185 0.336583 0.304753
H3T H 0.547516 0.371093 0.225454
H4T H 0.544501 0.410255 0.149033
H5T H 0.45589 0.294631 0.319073
H6T H 0.457659 0.254870 0.396807
H7T H 0.552909 0.309155 0.414381
H8T H 0.551115 0.348913 0.336623
Zr1C Zr 0.53612 0.000 0.1083
O4C O 0.58004 0.000 0.08034
O2C O 0.48662 -0.02676 0.10884
O3G O 0.44603 -0.03079 0.000
Zr1E Zr 0.46388 0.46388 0.1083
Zr1G Zr 0.46388 0.000 -0.1083
Zr1G_2 Zr 0.46388 0.000 0.8917
Zr1K Zr 0.46388 0.46388 0.8917
Zr2_2 Zr 0.52669 0.05338 1.000
Zr2B Zr 0.52669 0.47331 0.000
Zr2B_2 Zr 0.52669 0.47331 1.000
Zr2C Zr 0.47331 -0.05338 0.000
O2J O 0.51338 0.02676 -0.10884
O3C O 0.52318 -0.03079 0.000
O3J O 0.55397 0.03079 0.000
O5J O 0.564757 0.081569 -0.072411
O5O_2 O 0.516812 0.081569 -0.072411
O5S O 0.564757 0.081569 0.072411
O6C O 0.522918 -0.046669 0.147813
O6S O 0.569587 0.046669 0.147813
O6V O 0.430413 -0.046669 0.147813
loop_
_geom_bond_atom_site_label_1
_geom_bond_atom_site_label_2
_geom_bond_site_symmetry_1
_geom_bond_site_symmetry_2
Zr1 O1 1_555 1_555
Zr2 O2 1_555 1_555
O1 C15 1_555 1_555
O2 Zr1 1_555 1_555
O3 Zr1 1_555 1_555
O4 Zr1 1_555 1_555
O5 Zr2 1_555 1_555
O6 Zr1 1_555 1_555
C1 O5 1_555 1_555
C2 C1 1_555 1_555
C3 C2 1_555 1_555
C4 C3 1_555 1_555
C5 C4 1_555 1_555
C6 C5 1_555 1_555
C7 C2 1_555 1_555
C8 C5 1_555 1_555
C9 C8 1_555 1_555
C10 C9 1_555 1_555
C11 C10 1_555 1_555
C12 C11 1_555 1_555
C13 C8 1_555 1_555
C14 C11 1_555 1_555
H1 C3 1_555 1_555
H2 C4 1_555 1_555
H3 C6 1_555 1_555
H4 C7 1_555 1_555
H5 C9 1_555 1_555
H6 C10 1_555 1_555
H7 C12 1_555 1_555
H8 C13 1_555 1_555
C15 C16 1_555 1_555
C16 F1 1_555 1_555
F2 C16 1_555 1_555
O1C C15 1_555 1_555
F1C C16 1_555 1_555
F2C C16 1_555 1_555
F2S C16 1_555 1_555
F2V C16 1_555 1_555
O5K C1K 1_555 1_555
O6K C1K 1_555 1_555
C1K C2K 1_555 1_555
C2K C3K 1_555 1_555
C3K C4K 1_555 1_555
C4K C5K 1_555 1_555
C5K C6K 1_555 1_555
C6K C7K 1_555 1_555
C7K C2K 1_555 1_555
C8K C5K 1_555 1_555
C9K C8K 1_555 1_555
C10K C9K 1_555 1_555
C11K C10K 1_555 1_555
C12K C11K 1_555 1_555
C13K C8K 1_555 1_555
C14K C14 1_555 1_555
H1K C3K 1_555 1_555
H2K C4K 1_555 1_555
H3K C6K 1_555 1_555
H4K C7K 1_555 1_555
H5K C9K 1_555 1_555
H6K C10K 1_555 1_555
H7K C12K 1_555 1_555
H8K C13K 1_555 1_555
O5O C1O 1_555 1_555
O6O C1O 1_555 1_555
C1O C2O 1_555 1_555
C2O C3O 1_555 1_555
C3O C4O 1_555 1_555
C4O C5O 1_555 1_555
C5O C6O 1_555 1_555
C6O C7O 1_555 1_555
C7O C2O 1_555 1_555
C8O C5O 1_555 1_555
C9O C8O 1_555 1_555
C10O C9O 1_555 1_555
C11O C14K 1_555 1_555
C12O C11O 1_555 1_555
C13O C8O 1_555 1_555
H1O C3O 1_555 1_555
H2O C4O 1_555 1_555
H3O C6O 1_555 1_555
H4O C7O 1_555 1_555
H5O C9O 1_555 1_555
H6O C10O 1_555 1_555
H7O C12O 1_555 1_555
H8O C13O 1_555 1_555
O5T C1T 1_555 1_555
O6T C1T 1_555 1_555
C1T C2T 1_555 1_555
C2T C3T 1_555 1_555
C3T C4T 1_555 1_555
C4T C5T 1_555 1_555
C5T C6T 1_555 1_555
C6T C7T 1_555 1_555
C7T C2T 1_555 1_555
C8T C5T 1_555 1_555
C9T C8T 1_555 1_555
C10T C9T 1_555 1_555
C11T C14 1_555 1_555
C12T C11T 1_555 1_555
C13T C8T 1_555 1_555
H1T C3T 1_555 1_555
H2T C4T 1_555 1_555
H3T C6T 1_555 1_555
H4T C7T 1_555 1_555
H5T C9T 1_555 1_555
H6T C10T 1_555 1_555
H7T C12T 1_555 1_555
H8T C13T 1_555 1_555
Zr1C O2 1_555 1_555
O4C Zr1C 1_555 1_555
O2C Zr1 1_555 1_555
O3G Zr1 1_555 1_555
Zr1E O6T 1_555 1_555
Zr1G O3 1_555 1_555
Zr1G_2 O6O 1_555 1_555
Zr1K O6K 1_555 1_555
Zr2_2 O5O 1_555 1_555
Zr2B O5T 1_555 1_555
Zr2B_2 O5K 1_555 1_555
Zr2C O2C 1_555 1_555
O2J Zr2 1_555 1_555
O3C Zr1C 1_555 1_555
O3J Zr2 1_555 1_555
O5J Zr2 1_555 1_555
O5O_2 Zr2 1_555 1_555
O5S Zr2 1_555 1_555
O6C Zr1C 1_555 1_555
O6S Zr1C 1_555 1_555
O6V Zr1 1_555 1_555
Zr2 O3 1_555 1_555
O6 C1 1_555 1_555
C6 C7 1_555 1_555
C12 C13 1_555 1_555
O1C Zr1C 1_555 1_555
C11K C14K 1_555 1_555
C12K C13K 1_555 1_555
C10O C11O 1_555 1_555
C12O C13O 1_555 1_555
C10T C11T 1_555 1_555
C12T C13T 1_555 1_555
Zr1C O2C 1_555 1_555
Zr1C O3J 1_555 1_555
O3G Zr1G 1_555 1_555
O3G Zr2C 1_555 1_555
Zr1G O2J 1_555 1_555
Zr2C O3C 1_555 1_555

#END
