
#######################################################################
#
#                 Cambridge Crystallographic Data Centre
#                                CCDC 
#
#######################################################################
#
# If this CIF has been generated from an entry in the Cambridge 
# Structural Database, then it will include bibliographic, chemical, 
# crystal, experimental, refinement or atomic coordinate data resulting 
# from the CCDC's data processing and validation procedures.
#
#######################################################################

data_DUGMOJ
_chemical_formula_moiety         '(C82 H60 Cu6 N2 O34)n'
_symmetry_cell_setting           tetragonal
_symmetry_space_group_name_H-M   'I 4/m'
_symmetry_Int_Tables_number      87
_space_group_name_Hall           '-I 4'
loop_
_symmetry_equiv_pos_site_id
_symmetry_equiv_pos_as_xyz
1 x,y,z
2 -y,x,z
3 -x,-y,z
4 y,-x,z
5 1/2+x,1/2+y,1/2+z
6 1/2-y,1/2+x,1/2+z
7 1/2-x,1/2-y,1/2+z
8 1/2+y,1/2-x,1/2+z
9 -x,-y,-z
10 y,-x,-z
11 x,y,-z
12 -y,x,-z
13 1/2-x,1/2-y,1/2-z
14 1/2+y,1/2-x,1/2-z
15 1/2+x,1/2+y,1/2-z
16 1/2-y,1/2+x,1/2-z
_cell_length_a                   29.5350(16)
_cell_length_b                   29.5350(16)
_cell_length_c                   28.0993(18)
_cell_angle_alpha                90
_cell_angle_beta                 90
_cell_angle_gamma                90
_cell_volume                     24511.5
loop_
_atom_site_label
_atom_site_type_symbol
_atom_site_fract_x
_atom_site_fract_y
_atom_site_fract_z
Cu1 Cu 0.18787(2) 0.17381(2) 0.23479(2)
Cu2 Cu 0.14191(2) 0.13118(2) 0.30200(2)
Cu3 Cu 0.01231(3) 0.36176(3) 0.5000
Cu4 Cu 0.00925(3) 0.27316(3) 0.5000
O1 O 0.05526(12) 0.27762(12) 0.45106(14)
O2 O 0.05786(13) 0.35295(12) 0.45023(14)
O3 O 0.16710(15) 0.38760(13) 0.31531(18)
O4 O 0.14765(17) 0.59743(13) 0.33124(16)
O5 O 0.16025(12) 0.75945(12) 0.27475(14)
O6 O 0.12392(13) 0.79853(12) 0.33049(14)
O7 O 0.03704(13) 0.71846(12) 0.45182(14)
O8 O 0.03425(13) 0.64225(12) 0.45114(14)
O9 O 0.13764(13) 0.19155(12) 0.33072(15)
O10 O 0.17642(13) 0.22765(12) 0.27359(16)
O11 O 0.19194(14) 0.11285(13) 0.20822(16)
O12 O 0.15257(15) 0.07714(14) 0.26454(17)
O13 O 0.14536(13) -0.08866(13) 0.26446(15)
O14 O 0.18166(16) -0.12711(14) 0.20780(16)
O15 O 0.2522(2) -0.00789(18) 0.1045(2)
O16 O 0.0173(3) 0.4351(2) 0.5000
O17 O 0.10627(18) 0.09682(18) 0.3597(2)
O18 O 0.0059(3) 0.1996(2) 0.5000
C1 C 0.11346(17) 0.27225(17) 0.37334(19)
H1 H 0.1013 0.2449 0.3857
C2 C 0.1680(2) -0.0913(2) 0.2263(2)
C3 C 0.14312(16) 0.27056(17) 0.33453(19)
C4 C 0.16045(18) 0.31065(18) 0.3171(2)
H2 H 0.1812 0.3099 0.2913
C5 C 0.1481(2) 0.35225(18) 0.3366(2)
C6 C 0.11926(18) 0.35314(18) 0.3756(2)
H3 H 0.1113 0.3811 0.3900
C7 C 0.10186(17) 0.31237(18) 0.39359(19)
C8 C 0.1544(3) 0.4287(2) 0.3304(3)
H4 H 0.1667 0.4341 0.3627
H5 H 0.1210 0.4302 0.3322
C9 C 0.1722(2) 0.46568(18) 0.2958(3)
C10 C 0.1949(3) 0.4552(2) 0.2575(3)
H6 H 0.1987 0.4242 0.2493
C11 C 0.2138(3) 0.4883(3) 0.2283(3)
H7 H 0.2329 0.4800 0.2025
C12 C 0.2047(3) 0.5327(2) 0.2374(3)
H8 H 0.2157 0.5556 0.2167
C13 C 0.1795(2) 0.5444(2) 0.2764(3)
C14 C 0.1643(2) 0.5108(2) 0.3051(3)
H9 H 0.1475 0.5186 0.3327
C15 C 0.1719(3) 0.5945(2) 0.2881(3)
H10 H 0.2014 0.6102 0.2913
H11 H 0.1546 0.6093 0.2622
C16 C 0.1326(2) 0.63895(18) 0.3439(2)
C17 C 0.14518(19) 0.67879(18) 0.3222(2)
H12 H 0.1663 0.6786 0.2967
C18 C 0.12663(19) 0.71928(18) 0.3380(2)
C19 C 0.09641(18) 0.71961(18) 0.3749(2)
H13 H 0.0839 0.7475 0.3853
C20 C 0.08389(17) 0.67998(17) 0.3971(2)
C21 C 0.1015(2) 0.6383(2) 0.3810(2)
H14 H 0.0923 0.6105 0.3952
C22 C 0.15355(19) 0.22712(19) 0.3122(2)
C23 C 0.06989(18) 0.31423(17) 0.4344(2)
C24 C 0.13825(18) 0.76136(18) 0.3132(2)
C25 C 0.04977(18) 0.6797(2) 0.43568(19)
C26 C 0.1861(2) 0.0331(2) 0.2032(2)
C27 C 0.2131(3) 0.0313(2) 0.1633(3)
H15 H 0.2234 0.0586 0.1490
C28 C 0.2251(3) -0.0096(2) 0.1443(3)
C29 C 0.2086(2) -0.0496(2) 0.1637(3)
H16 H 0.2163 -0.0779 0.1499
C30 C 0.1810(2) -0.0481(2) 0.2032(3)
C31 C 0.1701(2) -0.00721(19) 0.2232(2)
H17 H 0.1515 -0.0062 0.2508
C32 C 0.2708(4) -0.0465(4) 0.0876(4)
H18 H 0.2469 -0.0693 0.0812
H19 H 0.2923 -0.0593 0.1111
C33 C 0.2961(4) -0.0338(5) 0.0405(3)
C34 C 0.3408(3) -0.0318(6) 0.0426(4)
H20 H 0.3568 -0.0324 0.0720
C35 C 0.3626(7) -0.0286(6) 0.0000
H21 H 0.3944 -0.0240 0.0000
C36 C 0.2714(6) -0.0316(8) 0.0000
H22 H 0.2393 -0.0287 0.0000
C37 C 0.1764(2) 0.07764(19) 0.2267(2)
C38 C 0.2319(3) 0.1730(2) 0.1409(3)
H23 H 0.2259 0.1418 0.1461
C39 C 0.2513(3) 0.1870(4) 0.0983(3)
H24 H 0.2585 0.1654 0.0744
C40 C 0.2601(3) 0.2327(4) 0.0907(2)
H25 H 0.2734 0.2423 0.0615
C41 C 0.2496(3) 0.2643(3) 0.1256(4)
H26 H 0.2556 0.2955 0.1204
C42 C 0.2302(3) 0.2502(2) 0.1682(3)
H27 H 0.2230 0.2718 0.1920
N1 N 0.22134(17) 0.2046(3) 0.1758(2)
O11J O 0.19194(14) 0.11285(13) -0.20822(16)
O12J O 0.15257(15) 0.07714(14) -0.26454(17)
O13J O 0.14536(13) -0.08866(13) -0.26446(15)
O14J O 0.18166(16) -0.12711(14) -0.20780(16)
O15J O 0.2522(2) -0.00789(18) -0.1045(2)
C2J C 0.1680(2) -0.0913(2) -0.2263(2)
C26J C 0.1861(2) 0.0331(2) -0.2032(2)
C27J C 0.2131(3) 0.0313(2) -0.1633(3)
H15J H 0.2234 0.0586 -0.1490
C28J C 0.2251(3) -0.0096(2) -0.1443(3)
C29J C 0.2086(2) -0.0496(2) -0.1637(3)
H16J H 0.2163 -0.0779 -0.1499
C30J C 0.1810(2) -0.0481(2) -0.2032(3)
C31J C 0.1701(2) -0.00721(19) -0.2232(2)
H17J H 0.1515 -0.0062 -0.2508
C32J C 0.2708(4) -0.0465(4) -0.0876(4)
H18J H 0.2469 -0.0693 -0.0812
H19J H 0.2923 -0.0593 -0.1111
C33J C 0.2961(4) -0.0338(5) -0.0405(3)
C34J C 0.3408(3) -0.0318(6) -0.0426(4)
H20J H 0.3568 -0.0324 -0.0720
C37J C 0.1764(2) 0.07764(19) -0.2267(2)
Cu1A Cu 0.82619(2) 0.18787(2) 0.23479(2)
Cu2A Cu 0.86882(2) 0.14191(2) 0.30200(2)
O1A O 0.72238(12) 0.05526(12) 0.45106(14)
O2A O 0.64705(12) 0.05786(13) 0.45023(14)
O3A O 0.61240(13) 0.16710(15) 0.31531(18)
O4A O 0.40257(13) 0.14765(17) 0.33124(16)
O5A O 0.24055(12) 0.16025(12) 0.27475(14)
O6A O 0.20147(12) 0.12392(13) 0.33049(14)
O7A O 0.28154(12) 0.03704(13) 0.45182(14)
O8A O 0.35775(12) 0.03425(13) 0.45114(14)
O9A O 0.80845(12) 0.13764(13) 0.33072(15)
O10A O 0.77235(12) 0.17642(13) 0.27359(16)
O17A O 0.90318(18) 0.10627(18) 0.3597(2)
C1A C 0.72775(17) 0.11346(17) 0.37334(19)
H1A H 0.7551 0.1013 0.3857
C3A C 0.72944(17) 0.14312(16) 0.33453(19)
C4A C 0.68935(18) 0.16045(18) 0.3171(2)
H2A H 0.6901 0.1812 0.2913
C5A C 0.64775(18) 0.1481(2) 0.3366(2)
C6A C 0.64686(18) 0.11926(18) 0.3756(2)
H3A H 0.6189 0.1113 0.3900
C7A C 0.68763(18) 0.10186(17) 0.39359(19)
C8A C 0.5713(2) 0.1544(3) 0.3304(3)
H4A H 0.5659 0.1667 0.3627
H5A H 0.5698 0.1210 0.3322
C9A C 0.53432(18) 0.1722(2) 0.2958(3)
C10A C 0.5448(2) 0.1949(3) 0.2575(3)
H6A H 0.5758 0.1987 0.2493
C11A C 0.5117(3) 0.2138(3) 0.2283(3)
H7A H 0.5200 0.2329 0.2025
C12A C 0.4673(2) 0.2047(3) 0.2374(3)
H8A H 0.4444 0.2157 0.2167
C13A C 0.4556(2) 0.1795(2) 0.2764(3)
C14A C 0.4892(2) 0.1643(2) 0.3051(3)
H9A H 0.4814 0.1475 0.3327
C15A C 0.4055(2) 0.1719(3) 0.2881(3)
H10A H 0.3898 0.2014 0.2913
H11A H 0.3907 0.1546 0.2622
C16A C 0.36105(18) 0.1326(2) 0.3439(2)
C17A C 0.32121(18) 0.14518(19) 0.3222(2)
H12A H 0.3214 0.1663 0.2967
C18A C 0.28072(18) 0.12663(19) 0.3380(2)
C19A C 0.28039(18) 0.09641(18) 0.3749(2)
H13A H 0.2525 0.0839 0.3853
C20A C 0.32002(17) 0.08389(17) 0.3971(2)
C21A C 0.3617(2) 0.1015(2) 0.3810(2)
H14A H 0.3895 0.0923 0.3952
C22A C 0.77288(19) 0.15355(19) 0.3122(2)
C23A C 0.68577(17) 0.06989(18) 0.4344(2)
C24A C 0.23864(18) 0.13825(18) 0.3132(2)
C25A C 0.3203(2) 0.04977(18) 0.43568(19)
C38A C 0.8270(2) 0.2319(3) 0.1409(3)
H23A H 0.8582 0.2259 0.1461
C39A C 0.8130(4) 0.2513(3) 0.0983(3)
H24A H 0.8346 0.2585 0.0744
C40A C 0.7673(4) 0.2601(3) 0.0907(2)
H25A H 0.7577 0.2734 0.0615
C41A C 0.7357(3) 0.2496(3) 0.1256(4)
H26A H 0.7045 0.2556 0.1204
C42A C 0.7498(2) 0.2302(3) 0.1682(3)
H27A H 0.7282 0.2230 0.1920
N1A N 0.7954(3) 0.22134(17) 0.1758(2)
Cu1C Cu 0.17381(2) -0.18787(2) 0.23479(2)
Cu1C_2 Cu 0.17381(2) 0.81213(2) 0.23479(2)
Cu1I Cu 0.17381(2) -0.18787(2) -0.23479(2)
Cu1J Cu 0.18787(2) 0.17381(2) -0.23479(2)
Cu2C Cu 0.13118(2) -0.14191(2) 0.30200(2)
Cu2C_2 Cu 0.13118(2) 0.85809(2) 0.30200(2)
Cu2I Cu 0.13118(2) -0.14191(2) -0.30200(2)
Cu2J Cu 0.14191(2) 0.13118(2) -0.30200(2)
Cu3A Cu 0.63824(3) 0.01231(3) 0.5000
Cu3B Cu -0.01231(3) 0.63824(3) 0.5000
Cu3C Cu 0.36176(3) -0.01231(3) 0.5000
Cu4A Cu 0.72684(3) 0.00925(3) 0.5000
Cu4B Cu -0.00925(3) 0.72684(3) 0.5000
Cu4C Cu 0.27316(3) -0.00925(3) 0.5000
O1J O 0.05526(12) 0.27762(12) 0.54894(14)
O2J O 0.05786(13) 0.35295(12) 0.54977(14)
O5B O 0.83975(12) 0.24055(12) 0.27475(14)
O6B O 0.87608(13) 0.20147(12) 0.33049(14)
O7B O -0.03704(13) 0.28154(12) 0.45182(14)
O7H O -0.03704(13) 0.28154(12) 0.54818(14)
O8B O -0.03425(13) 0.35775(12) 0.45114(14)
O8H O -0.03425(13) 0.35775(12) 0.54886(14)
O11A O 0.88715(13) 0.19194(14) 0.20822(16)
O12A O 0.92286(14) 0.15257(15) 0.26454(17)
O13A O 0.08866(13) 0.14536(13) 0.26446(15)
O13B O 0.85464(13) 0.08866(13) 0.26446(15)
O14A O 0.12711(14) 0.18166(16) 0.20780(16)
O14B O 0.81834(16) 0.12711(14) 0.20780(16)
loop_
_geom_bond_atom_site_label_1
_geom_bond_atom_site_label_2
_geom_bond_site_symmetry_1
_geom_bond_site_symmetry_2
Cu1 O10 1_555 1_555
Cu2 O9 1_555 1_555
Cu3 O2 1_555 1_555
Cu4 O1 1_555 1_555
O1 C23 1_555 1_555
O2 C23 1_555 1_555
O3 C5 1_555 1_555
O4 C15 1_555 1_555
O5 C24 1_555 1_555
O6 C24 1_555 1_555
O7 C25 1_555 1_555
O8 C25 1_555 1_555
O9 C22 1_555 1_555
O10 C22 1_555 1_555
O11 Cu1 1_555 1_555
O12 Cu2 1_555 1_555
O13 C2 1_555 1_555
O14 C2 1_555 1_555
O15 C28 1_555 1_555
O16 Cu3 1_555 1_555
O17 Cu2 1_555 1_555
O18 Cu4 1_555 1_555
C1 H1 1_555 1_555
C2 C30 1_555 1_555
C3 C1 1_555 1_555
C4 C3 1_555 1_555
H2 C4 1_555 1_555
C5 C4 1_555 1_555
C6 C5 1_555 1_555
H3 C6 1_555 1_555
C7 C1 1_555 1_555
C8 O3 1_555 1_555
H4 C8 1_555 1_555
H5 C8 1_555 1_555
C9 C8 1_555 1_555
C10 C9 1_555 1_555
H6 C10 1_555 1_555
C11 C10 1_555 1_555
H7 C11 1_555 1_555
C12 C11 1_555 1_555
H8 C12 1_555 1_555
C13 C12 1_555 1_555
C14 C9 1_555 1_555
H9 C14 1_555 1_555
C15 C13 1_555 1_555
H10 C15 1_555 1_555
H11 C15 1_555 1_555
C16 O4 1_555 1_555
C17 C16 1_555 1_555
H12 C17 1_555 1_555
C18 C17 1_555 1_555
C19 C18 1_555 1_555
H13 C19 1_555 1_555
C20 C19 1_555 1_555
C21 C16 1_555 1_555
H14 C21 1_555 1_555
C22 C3 1_555 1_555
C23 C7 1_555 1_555
C24 C18 1_555 1_555
C25 C20 1_555 1_555
C26 C27 1_555 1_555
C27 H15 1_555 1_555
C28 C27 1_555 1_555
C29 C28 1_555 1_555
H16 C29 1_555 1_555
C30 C29 1_555 1_555
C31 C26 1_555 1_555
H17 C31 1_555 1_555
C32 O15 1_555 1_555
H18 C32 1_555 1_555
H19 C32 1_555 1_555
C33 C32 1_555 1_555
C34 C33 1_555 1_555
H20 C34 1_555 1_555
C35 C34 1_555 1_555
H21 C35 1_555 1_555
C36 C33 1_555 1_555
H22 C36 1_555 1_555
C37 O11 1_555 1_555
C38 H23 1_555 1_555
C39 C38 1_555 1_555
H24 C39 1_555 1_555
C40 C39 1_555 1_555
H25 C40 1_555 1_555
C41 C40 1_555 1_555
H26 C41 1_555 1_555
C42 C41 1_555 1_555
H27 C42 1_555 1_555
N1 Cu1 1_555 1_555
O11J C37J 1_555 1_555
O12J C37J 1_555 1_555
O13J C2J 1_555 1_555
O14J C2J 1_555 1_555
O15J C28J 1_555 1_555
C2J C30J 1_555 1_555
C26J C27J 1_555 1_555
C27J H15J 1_555 1_555
C28J C27J 1_555 1_555
C29J C28J 1_555 1_555
H16J C29J 1_555 1_555
C30J C29J 1_555 1_555
C31J C26J 1_555 1_555
H17J C31J 1_555 1_555
C32J O15J 1_555 1_555
H18J C32J 1_555 1_555
H19J C32J 1_555 1_555
C33J C36 1_555 1_555
C34J C35 1_555 1_555
H20J C34J 1_555 1_555
C37J C26J 1_555 1_555
Cu1A O10A 1_555 1_555
Cu2A O9A 1_555 1_555
O1A C23A 1_555 1_555
O2A C23A 1_555 1_555
O3A C5A 1_555 1_555
O4A C15A 1_555 1_555
O5A Cu1 1_555 1_555
O6A Cu2 1_555 1_555
O7A C25A 1_555 1_555
O8A C25A 1_555 1_555
O9A C22A 1_555 1_555
O10A C22A 1_555 1_555
O17A Cu2A 1_555 1_555
C1A H1A 1_555 1_555
C3A C1A 1_555 1_555
C4A C3A 1_555 1_555
H2A C4A 1_555 1_555
C5A C4A 1_555 1_555
C6A C5A 1_555 1_555
H3A C6A 1_555 1_555
C7A C1A 1_555 1_555
C8A O3A 1_555 1_555
H4A C8A 1_555 1_555
H5A C8A 1_555 1_555
C9A C8A 1_555 1_555
C10A C9A 1_555 1_555
H6A C10A 1_555 1_555
C11A C10A 1_555 1_555
H7A C11A 1_555 1_555
C12A C11A 1_555 1_555
H8A C12A 1_555 1_555
C13A C12A 1_555 1_555
C14A C9A 1_555 1_555
H9A C14A 1_555 1_555
C15A C13A 1_555 1_555
H10A C15A 1_555 1_555
H11A C15A 1_555 1_555
C16A O4A 1_555 1_555
C17A C16A 1_555 1_555
H12A C17A 1_555 1_555
C18A C17A 1_555 1_555
C19A C18A 1_555 1_555
H13A C19A 1_555 1_555
C20A C19A 1_555 1_555
C21A C16A 1_555 1_555
H14A C21A 1_555 1_555
C22A C3A 1_555 1_555
C23A C7A 1_555 1_555
C24A O5A 1_555 1_555
C25A C20A 1_555 1_555
C38A H23A 1_555 1_555
C39A C38A 1_555 1_555
H24A C39A 1_555 1_555
C40A C39A 1_555 1_555
H25A C40A 1_555 1_555
C41A C40A 1_555 1_555
H26A C41A 1_555 1_555
C42A C41A 1_555 1_555
H27A C42A 1_555 1_555
N1A Cu1A 1_555 1_555
Cu1C O14 1_555 1_555
Cu1C_2 O5 1_555 1_555
Cu1I O14J 1_555 1_555
Cu1J O11J 1_555 1_555
Cu2C O13 1_555 1_555
Cu2C_2 O6 1_555 1_555
Cu2I O13J 1_555 1_555
Cu2J O12J 1_555 1_555
Cu3A O2A 1_555 1_555
Cu3B O8 1_555 1_555
Cu3C O8A 1_555 1_555
Cu4A O1A 1_555 1_555
Cu4B O7 1_555 1_555
Cu4C O7A 1_555 1_555
O1J Cu4 1_555 1_555
O2J Cu3 1_555 1_555
O5B Cu1A 1_555 1_555
O6B Cu2A 1_555 1_555
O7B Cu4 1_555 1_555
O7H Cu4 1_555 1_555
O8B Cu3 1_555 1_555
O8H Cu3 1_555 1_555
O11A Cu1A 1_555 1_555
O12A Cu2A 1_555 1_555
O13A Cu2 1_555 1_555
O13B Cu2A 1_555 1_555
O14A Cu1 1_555 1_555
O14B Cu1A 1_555 1_555
O12 C37 1_555 1_555
C6 C7 1_555 1_555
C13 C14 1_555 1_555
C20 C21 1_555 1_555
C26 C37 1_555 1_555
C30 C31 1_555 1_555
C38 N1 1_555 1_555
C42 N1 1_555 1_555
C30J C31J 1_555 1_555
C32J C33J 1_555 1_555
C33J C34J 1_555 1_555
O6A C24A 1_555 1_555
C6A C7A 1_555 1_555
C13A C14A 1_555 1_555
C18A C24A 1_555 1_555
C20A C21A 1_555 1_555
C38A N1A 1_555 1_555
C42A N1A 1_555 1_555

#END
