
#######################################################################
#
#                 Cambridge Crystallographic Data Centre
#                                CCDC 
#
#######################################################################
#
# If this CIF has been generated from an entry in the Cambridge 
# Structural Database, then it will include bibliographic, chemical, 
# crystal, experimental, refinement or atomic coordinate data resulting 
# from the CCDC's data processing and validation procedures.
#
#######################################################################

data_FUWFUA
_chemical_formula_moiety         '(C88 H72 Cd9 N70 O10)n'
_symmetry_cell_setting           monoclinic
_symmetry_space_group_name_H-M   'C 2/m'
_symmetry_Int_Tables_number      12
_space_group_name_Hall           '-C 2y'
loop_
_symmetry_equiv_pos_site_id
_symmetry_equiv_pos_as_xyz
1 x,y,z
2 -x,y,-z
3 1/2+x,1/2+y,z
4 1/2-x,1/2+y,-z
5 -x,-y,-z
6 x,-y,z
7 1/2-x,1/2-y,-z
8 1/2+x,1/2-y,z
_cell_length_a                   39.073(8)
_cell_length_b                   19.229(4)
_cell_length_c                   13.798(3)
_cell_angle_alpha                90
_cell_angle_beta                 103.60(3)
_cell_angle_gamma                90
_cell_volume                     10076.2
loop_
_atom_site_label
_atom_site_type_symbol
_atom_site_fract_x
_atom_site_fract_y
_atom_site_fract_z
C1 C 0.1297(2) 0.7968(4) 0.8359(6)
H1 H 0.1421 0.7618 0.8757
C2 C 0.1021(3) 0.8411(4) 0.6822(6)
H2 H 0.0952 0.8384 0.6131
C3 C 0.0952(3) 0.8979(4) 0.7291(6)
H3 H 0.0827 0.9335 0.6910
C4 C 0.12556(19) 0.7229(4) 0.6868(5)
C5 C 0.2958(3) 0.5000 0.9619(9)
H4 H 0.2764 0.5000 0.9903
C6 C 0.3527(3) 0.5000 0.8897(8)
H5 H 0.3727 0.5000 0.8640
C7 C 0.1190(2) 0.7872(4) 0.7355(5)
C8 C 0.0892(2) 0.2125(4) 0.2044(6)
C9 C 0.0757(2) 0.1566(4) 0.1346(6)
C10 C -0.0303(2) 0.5000 0.6149(7)
C11 C 0.3286(3) 0.5000 1.0200(8)
H6 H 0.3309 0.5000 1.0886
C12 C 0.2911(3) 0.5000 0.8600(9)
C13 C 0.3207(3) 0.5000 0.8259(8)
H7 H 0.3190 0.5000 0.7575
C14 C 0.0616(2) 0.4444(4) 0.6496(8)
H8 H 0.0734 0.4020 0.6563
C15 C 0.0265(2) 0.4429(4) 0.6314(9)
H9 H 0.0149 0.4005 0.6184
C16 C 0.1224(2) 0.2344(5) 0.2184(7)
H10 H 0.1375 0.2147 0.1830
C17 C 0.0682(2) 0.2454(5) 0.2546(7)
H11 H 0.0447 0.2326 0.2457
C18 C 0.0080(2) 0.5000 0.6314(7)
C19 C 0.1337(2) 0.2859(5) 0.2852(8)
H12 H 0.1572 0.2995 0.2964
C20 C 0.1486(3) 0.5000 1.0603(8)
C21 C 0.1515(4) 0.4444(6) 1.0112(8)
H13 H 0.1559 0.4022 1.0447
C22 C 0.1481(4) 0.4465(7) 0.9050(9)
H14 H 0.1481 0.4042 0.8722
C23 C 0.0819(2) 0.2976(5) 0.3182(7)
H15 H 0.0671 0.3202 0.3519
C24 C 0.0217(3) -0.0000 0.2683(9)
C25 C -0.0173(2) -0.0000 0.2147(7)
C26 C 0.1224(2) 0.8558(4) 0.8778(6)
H16 H 0.1300 0.8606 0.9466
C27 C 0.2576(3) 0.5000 0.7927(8)
Cd1 Cd 0.14264(2) 0.5000 0.68680(4)
Cd2 Cd 0.0000 0.0000 0.0000
Cd3 Cd 0.13512(2) 0.40686(2) 0.43847(3)
Cd4 Cd 0.08573(2) 1.0000 0.90764(5)
N1 N 0.13818(14) 0.6208(3) 0.6677(4)
N2 N 0.13682(15) 0.6666(3) 0.7358(4)
N3 N 0.12821(15) 0.6488(3) 0.5805(4)
N4 N 0.12031(18) 0.7145(3) 0.5907(4)
N5 N 0.10516(17) 0.9070(3) 0.8265(4)
N6 N 0.04330(15) 0.0809(3) 0.0548(5)
N7 N 0.11389(17) 0.3173(3) 0.3344(4)
N8 N 0.14731(17) 0.5330(3) 1.3037(4)
N9 N 0.14851(19) 0.5549(4) 1.2152(4)
N10 N 0.07263(15) 0.0807(3) 0.0263(4)
N11 N 0.04437(15) 0.1289(3) 0.1240(5)
N12 N 0.09360(15) 0.1285(3) 0.0756(5)
N13 N -0.08161(13) 0.4661(3) 0.5924(4)
N14 N -0.04922(14) 0.4442(3) 0.6068(4)
N15 N 0.35673(19) 0.5000 0.9888(6)
N16 N 0.2271(2) 0.5000 0.8171(6)
N17 N 0.2534(2) 0.5000 0.6956(8)
N18 N 0.0802(2) 0.5000 0.6585(6)
N19 N 0.2033(2) 0.5000 0.7303(7)
N20 N 0.1453(2) 0.5000 0.8542(6)
N21 N 0.2185(2) 0.5000 0.6600(7)
O1 O 0.15298(15) 0.5000 0.5317(4)
O2 O -0.02529(17) -0.0000 0.1314(6)
O3 O -0.0378(3) -0.0000 0.2706(7)
O4 O 0.1946(3) 0.3557(4) 0.4732(5)
C28 C 0.1483(3) 0.5000 1.1626(6)
C14E C 0.0616(2) 0.5556(4) 0.6496(8)
H8E H 0.0734 0.5980 0.6563
C15E C 0.0265(2) 0.5571(4) 0.6314(9)
H9E H 0.0149 0.5995 0.6184
N13E N -0.08161(13) 0.5339(3) 0.5924(4)
N14E N -0.04922(14) 0.5558(3) 0.6068(4)
C21E C 0.1515(4) 0.5556(6) 1.0112(8)
H13E H 0.1559 0.5978 1.0447
C22E C 0.1481(4) 0.5535(7) 0.9050(9)
H14E H 0.1481 0.5958 0.8722
N8E N 0.14731(17) 0.4670(3) 1.3037(4)
N9E N 0.14851(19) 0.4451(4) 1.2152(4)
C1A C -0.1297(2) 0.7968(4) -0.8359(6)
H1A H -0.1421 0.7618 -0.8757
C2A C -0.1021(3) 0.8411(4) -0.6822(6)
H2A H -0.0952 0.8384 -0.6131
C3A C -0.0952(3) 0.8979(4) -0.7291(6)
H3A H -0.0827 0.9335 -0.6910
C4A C -0.12556(19) 0.7229(4) -0.6868(5)
C5A C -0.2958(3) 0.5000 -0.9619(9)
H4A H -0.2764 0.5000 -0.9903
C6A C -0.3527(3) 0.5000 -0.8897(8)
H5A H -0.3727 0.5000 -0.8640
C7A C -0.1190(2) 0.7872(4) -0.7355(5)
C8A C -0.0892(2) 0.2125(4) -0.2044(6)
C9A C -0.0757(2) 0.1566(4) -0.1346(6)
C10A C 0.0303(2) 0.5000 -0.6149(7)
C11A C -0.3286(3) 0.5000 -1.0200(8)
H6A H -0.3309 0.5000 -1.0886
C12A C -0.2911(3) 0.5000 -0.8600(9)
C13A C -0.3207(3) 0.5000 -0.8259(8)
H7A H -0.3190 0.5000 -0.7575
C14A C -0.0616(2) 0.4444(4) -0.6496(8)
H8A H -0.0734 0.4020 -0.6563
C15A C -0.0265(2) 0.4429(4) -0.6314(9)
H9A H -0.0149 0.4005 -0.6184
C16A C -0.1224(2) 0.2344(5) -0.2184(7)
H10A H -0.1375 0.2147 -0.1830
C17A C -0.0682(2) 0.2454(5) -0.2546(7)
H11A H -0.0447 0.2326 -0.2457
C18A C -0.0080(2) 0.5000 -0.6314(7)
C19A C -0.1337(2) 0.2859(5) -0.2852(8)
H12A H -0.1572 0.2995 -0.2964
C20A C -0.1486(3) 0.5000 -1.0603(8)
C21A C -0.1515(4) 0.4444(6) -1.0112(8)
H13A H -0.1559 0.4022 -1.0447
C22A C -0.1481(4) 0.4465(7) -0.9050(9)
H14A H -0.1481 0.4042 -0.8722
C23A C -0.0819(2) 0.2976(5) -0.3182(7)
H15A H -0.0671 0.3202 -0.3519
C24A C -0.0217(3) 0.0000 -0.2683(9)
C25A C 0.0173(2) 0.0000 -0.2147(7)
C26A C -0.1224(2) 0.8558(4) -0.8778(6)
H16A H -0.1300 0.8606 -0.9466
C27A C -0.2576(3) 0.5000 -0.7927(8)
Cd1A Cd -0.14264(2) 0.5000 -0.68680(4)
Cd3A Cd -0.13512(2) 0.40686(2) -0.43847(3)
Cd4A Cd -0.08573(2) 1.0000 -0.90764(5)
N1A N -0.13818(14) 0.6208(3) -0.6677(4)
N2A N -0.13682(15) 0.6666(3) -0.7358(4)
N3A N -0.12821(15) 0.6488(3) -0.5805(4)
N4A N -0.12031(18) 0.7145(3) -0.5907(4)
N5A N -0.10516(17) 0.9070(3) -0.8265(4)
N6A N -0.04330(15) 0.0809(3) -0.0548(5)
N7A N -0.11389(17) 0.3173(3) -0.3344(4)
N8A N -0.14731(17) 0.5330(3) -1.3037(4)
N9A N -0.14851(19) 0.5549(4) -1.2152(4)
N10A N -0.07263(15) 0.0807(3) -0.0263(4)
N11A N -0.04437(15) 0.1289(3) -0.1240(5)
N12A N -0.09360(15) 0.1285(3) -0.0756(5)
N13A N 0.08161(13) 0.4661(3) -0.5924(4)
N14A N 0.04922(14) 0.4442(3) -0.6068(4)
N15A N -0.35673(19) 0.5000 -0.9888(6)
N16A N -0.2271(2) 0.5000 -0.8171(6)
N17A N -0.2534(2) 0.5000 -0.6956(8)
N18A N -0.0802(2) 0.5000 -0.6585(6)
N19A N -0.2033(2) 0.5000 -0.7303(7)
N20A N -0.1453(2) 0.5000 -0.8542(6)
N21A N -0.2185(2) 0.5000 -0.6600(7)
O1A O -0.15298(15) 0.5000 -0.5317(4)
O2A O 0.02529(17) 0.0000 -0.1314(6)
O3A O 0.0378(3) 0.0000 -0.2706(7)
O4A O -0.1946(3) 0.3557(4) -0.4732(5)
C28A C -0.1483(3) 0.5000 -1.1626(6)
C14D C -0.0616(2) 0.5556(4) -0.6496(8)
H8D H -0.0734 0.5980 -0.6563
C15D C -0.0265(2) 0.5571(4) -0.6314(9)
H9D H -0.0149 0.5995 -0.6184
N13D N 0.08161(13) 0.5339(3) -0.5924(4)
N14D N 0.04922(14) 0.5558(3) -0.6068(4)
C21D C -0.1515(4) 0.5556(6) -1.0112(8)
H13D H -0.1559 0.5978 -1.0447
C22D C -0.1481(4) 0.5535(7) -0.9050(9)
H14D H -0.1481 0.5958 -0.8722
N8D N -0.14731(17) 0.4670(3) -1.3037(4)
N9D N -0.14851(19) 0.4451(4) -1.2152(4)
C8D C -0.0892(2) -0.2125(4) -0.2044(6)
C9D C -0.0757(2) -0.1566(4) -0.1346(6)
C16D C -0.1224(2) -0.2344(5) -0.2184(7)
H10D H -0.1375 -0.2147 -0.1830
C17D C -0.0682(2) -0.2454(5) -0.2546(7)
H11D H -0.0447 -0.2326 -0.2457
C19D C -0.1337(2) -0.2859(5) -0.2852(8)
H12D H -0.1572 -0.2995 -0.2964
C23D C -0.0819(2) -0.2976(5) -0.3182(7)
H15D H -0.0671 -0.3202 -0.3519
Cd3D Cd -0.13512(2) -0.40686(2) -0.43847(3)
N6D N -0.04330(15) -0.0809(3) -0.0548(5)
N7D N -0.11389(17) -0.3173(3) -0.3344(4)
N10D N -0.07263(15) -0.0807(3) -0.0263(4)
N11D N -0.04437(15) -0.1289(3) -0.1240(5)
N12D N -0.09360(15) -0.1285(3) -0.0756(5)
O4D O -0.1946(3) -0.3557(4) -0.4732(5)
C8E C 0.0892(2) -0.2125(4) 0.2044(6)
C9E C 0.0757(2) -0.1566(4) 0.1346(6)
C16E C 0.1224(2) -0.2344(5) 0.2184(7)
H10E H 0.1375 -0.2147 0.1830
C17E C 0.0682(2) -0.2454(5) 0.2546(7)
H11E H 0.0447 -0.2326 0.2457
C19E C 0.1337(2) -0.2859(5) 0.2852(8)
H12E H 0.1572 -0.2995 0.2964
C23E C 0.0819(2) -0.2976(5) 0.3182(7)
H15E H 0.0671 -0.3202 0.3519
Cd3E Cd 0.13512(2) -0.40686(2) 0.43847(3)
N6E N 0.04330(15) -0.0809(3) 0.0548(5)
N7E N 0.11389(17) -0.3173(3) 0.3344(4)
N10E N 0.07263(15) -0.0807(3) 0.0263(4)
N11E N 0.04437(15) -0.1289(3) 0.1240(5)
N12E N 0.09360(15) -0.1285(3) 0.0756(5)
O4E O 0.1946(3) -0.3557(4) 0.4732(5)
C1E C 0.1297(2) 0.2032(4) 0.8359(6)
H1E H 0.1421 0.2382 0.8757
C2E C 0.1021(3) 0.1589(4) 0.6822(6)
H2E H 0.0952 0.1616 0.6131
C3E C 0.0952(3) 0.1021(4) 0.7291(6)
H3E H 0.0827 0.0665 0.6910
C4E C 0.12556(19) 0.2771(4) 0.6868(5)
C7E C 0.1190(2) 0.2128(4) 0.7355(5)
C26E C 0.1224(2) 0.1442(4) 0.8778(6)
H16E H 0.1300 0.1394 0.9466
N1E N 0.13818(14) 0.3792(3) 0.6677(4)
N2E N 0.13682(15) 0.3334(3) 0.7358(4)
N3E N 0.12821(15) 0.3512(3) 0.5805(4)
N4E N 0.12031(18) 0.2855(3) 0.5907(4)
N5E N 0.10516(17) 0.0930(3) 0.8265(4)
C1E_2 C 0.1297(2) 1.2032(4) 0.8359(6)
H1E_2 H 0.1421 1.2382 0.8757
C2E_2 C 0.1021(3) 1.1589(4) 0.6822(6)
H2E_2 H 0.0952 1.1616 0.6131
C3E_2 C 0.0952(3) 1.1021(4) 0.7291(6)
H3E_2 H 0.0827 1.0665 0.6910
C4E_2 C 0.12556(19) 1.2771(4) 0.6868(5)
C7E_2 C 0.1190(2) 1.2128(4) 0.7355(5)
C26E_2 C 0.1224(2) 1.1442(4) 0.8778(6)
H16E_2 H 0.1300 1.1394 0.9466
N1E_2 N 0.13818(14) 1.3792(3) 0.6677(4)
N2E_2 N 0.13682(15) 1.3334(3) 0.7358(4)
N3E_2 N 0.12821(15) 1.3512(3) 0.5805(4)
N4E_2 N 0.12031(18) 1.2855(3) 0.5907(4)
N5E_2 N 0.10516(17) 1.0930(3) 0.8265(4)
Cd1_2 Cd 0.14264(2) 1.5000 0.68680(4)
Cd3_2 Cd 0.13512(2) 0.40686(2) -0.56153(3)
Cd3_3 Cd 0.13512(2) 0.40686(2) 1.43847(3)
Cd3_4 Cd 0.13512(2) 1.40686(2) 0.43847(3)
Cd3A_2 Cd -0.13512(2) 0.40686(2) -1.43847(3)
Cd3A_3 Cd -0.13512(2) 0.40686(2) 0.56153(3)
Cd3D_2 Cd -0.13512(2) 0.59314(2) -1.43847(3)
Cd3D_3 Cd -0.13512(2) 0.59314(2) -0.43847(3)
Cd3D_4 Cd -0.13512(2) 0.59314(2) 0.56153(3)
Cd3E_2 Cd 0.13512(2) 0.59314(2) -0.56153(3)
Cd3E_3 Cd 0.13512(2) 0.59314(2) 0.43847(3)
Cd3E_4 Cd 0.13512(2) 0.59314(2) 1.43847(3)
Cd4_2 Cd 0.08573(2) 0.0000 -0.09236(5)
Cd4_3 Cd 0.08573(2) 0.0000 0.90764(5)
Cd4A_2 Cd -0.08573(2) -0.0000 0.09236(5)
Cd4B Cd -0.41427(2) 0.5000 -1.09236(5)
Cd4C Cd 0.41427(2) 0.5000 1.09236(5)
N1D N -0.13818(14) 0.3792(3) -0.6677(4)
N3_2 N 0.12821(15) -0.3512(3) 0.5805(4)
N3A_2 N -0.12821(15) -0.3512(3) -0.5805(4)
N3D N -0.12821(15) 0.3512(3) -0.5805(4)
N5D N -0.10516(17) 1.0930(3) -0.8265(4)
N8_2 N 0.14731(17) -0.4670(3) 0.3037(4)
N8A_2 N -0.14731(17) -0.4670(3) -0.3037(4)
N8D_2 N -0.14731(17) 0.4670(3) -0.3037(4)
N8E_2 N 0.14731(17) 0.4670(3) 0.3037(4)
N10_2 N 0.07263(15) 1.0807(3) 1.0263(4)
N10A_2 N -0.07263(15) 1.0807(3) -1.0263(4)
N10D_2 N -0.07263(15) 0.9193(3) -1.0263(4)
N10E_2 N 0.07263(15) 0.9193(3) 1.0263(4)
N13_2 N -0.08161(13) 0.4661(3) -0.4076(4)
N13A_2 N 0.08161(13) 0.4661(3) 0.4076(4)
N13D_2 N 0.08161(13) -0.4661(3) 0.4076(4)
N13E_2 N -0.08161(13) -0.4661(3) -0.4076(4)
N15B N -0.14327(19) 1.0000 -1.0112(6)
N15C N 0.14327(19) 1.0000 1.0112(6)
O1_2 O 0.15298(15) -0.5000 0.5317(4)
O1A_2 O -0.15298(15) -0.5000 -0.5317(4)
O2_2 O -0.02529(17) 1.0000 -0.8686(6)
O2A_2 O 0.02529(17) 1.0000 0.8686(6)
O3_2 O -0.0378(3) 1.0000 -0.7294(7)
O3A_2 O 0.0378(3) 1.0000 0.7294(7)
loop_
_geom_bond_atom_site_label_1
_geom_bond_atom_site_label_2
_geom_bond_site_symmetry_1
_geom_bond_site_symmetry_2
C1 H1 1_555 1_555
C2 H2 1_555 1_555
C3 C2 1_555 1_555
H3 C3 1_555 1_555
C4 C7 1_555 1_555
C5 H4 1_555 1_555
C6 H5 1_555 1_555
C7 C1 1_555 1_555
C8 C9 1_555 1_555
C9 N11 1_555 1_555
C10 C18 1_555 1_555
C11 C5 1_555 1_555
H6 C11 1_555 1_555
C12 C5 1_555 1_555
C13 C6 1_555 1_555
H7 C13 1_555 1_555
C14 H8 1_555 1_555
C15 C14 1_555 1_555
H9 C15 1_555 1_555
C16 C8 1_555 1_555
H10 C16 1_555 1_555
C17 C8 1_555 1_555
H11 C17 1_555 1_555
C18 C15 1_555 1_555
C19 C16 1_555 1_555
H12 C19 1_555 1_555
C20 C21 1_555 1_555
C21 H13 1_555 1_555
C22 C21 1_555 1_555
H14 C22 1_555 1_555
C23 C17 1_555 1_555
H15 C23 1_555 1_555
C24 C25 1_555 1_555
C25 O2 1_555 1_555
C26 C1 1_555 1_555
H16 C26 1_555 1_555
C27 C12 1_555 1_555
Cd1 N1 1_555 1_555
Cd2 N6 1_555 1_555
Cd3 N7 1_555 1_555
Cd4 N5 1_555 1_555
N1 N2 1_555 1_555
N2 C4 1_555 1_555
N3 N1 1_555 1_555
N4 C4 1_555 1_555
N5 C3 1_555 1_555
N6 N10 1_555 1_555
N7 C19 1_555 1_555
N8 N9 1_555 1_555
N9 C28 1_555 1_555
N10 N12 1_555 1_555
N11 N6 1_555 1_555
N12 C9 1_555 1_555
N13 N14 1_555 1_555
N14 C10 1_555 1_555
N15 C6 1_555 1_555
N16 C27 1_555 1_555
N17 C27 1_555 1_555
N18 C14 1_555 1_555
N19 Cd1 1_555 1_555
N20 C22 1_555 1_555
N21 N17 1_555 1_555
O1 Cd1 1_555 1_555
O2 Cd2 1_555 1_555
O3 C25 1_555 1_555
O4 Cd3 1_555 1_555
C28 C20 1_555 1_555
C14E N18 1_555 1_555
H8E C14E 1_555 1_555
C15E C18 1_555 1_555
H9E C15E 1_555 1_555
N13E N13 1_555 1_555
N14E C10 1_555 1_555
C21E C20 1_555 1_555
H13E C21E 1_555 1_555
C22E N20 1_555 1_555
H14E C22E 1_555 1_555
N8E N8 1_555 1_555
N9E C28 1_555 1_555
C1A H1A 1_555 1_555
C2A H2A 1_555 1_555
C3A C2A 1_555 1_555
H3A C3A 1_555 1_555
C4A C7A 1_555 1_555
C5A H4A 1_555 1_555
C6A H5A 1_555 1_555
C7A C1A 1_555 1_555
C8A C9A 1_555 1_555
C9A N11A 1_555 1_555
C10A C18A 1_555 1_555
C11A C5A 1_555 1_555
H6A C11A 1_555 1_555
C12A C5A 1_555 1_555
C13A C6A 1_555 1_555
H7A C13A 1_555 1_555
C14A H8A 1_555 1_555
C15A C14A 1_555 1_555
H9A C15A 1_555 1_555
C16A C8A 1_555 1_555
H10A C16A 1_555 1_555
C17A C8A 1_555 1_555
H11A C17A 1_555 1_555
C18A C15A 1_555 1_555
C19A C16A 1_555 1_555
H12A C19A 1_555 1_555
C20A C21A 1_555 1_555
C21A H13A 1_555 1_555
C22A C21A 1_555 1_555
H14A C22A 1_555 1_555
C23A C17A 1_555 1_555
H15A C23A 1_555 1_555
C24A C25A 1_555 1_555
C25A O2A 1_555 1_555
C26A C1A 1_555 1_555
H16A C26A 1_555 1_555
C27A C12A 1_555 1_555
Cd1A N1A 1_555 1_555
Cd3A N7A 1_555 1_555
Cd4A N5A 1_555 1_555
N1A N2A 1_555 1_555
N2A C4A 1_555 1_555
N3A N1A 1_555 1_555
N4A C4A 1_555 1_555
N5A C3A 1_555 1_555
N6A Cd2 1_555 1_555
N7A C19A 1_555 1_555
N8A N9A 1_555 1_555
N9A C28A 1_555 1_555
N10A N6A 1_555 1_555
N11A N6A 1_555 1_555
N12A C9A 1_555 1_555
N13A N14A 1_555 1_555
N14A C10A 1_555 1_555
N15A C6A 1_555 1_555
N16A C27A 1_555 1_555
N17A C27A 1_555 1_555
N18A C14A 1_555 1_555
N19A Cd1A 1_555 1_555
N20A C22A 1_555 1_555
N21A N17A 1_555 1_555
O1A Cd1A 1_555 1_555
O2A Cd2 1_555 1_555
O3A C25A 1_555 1_555
O4A Cd3A 1_555 1_555
C28A C20A 1_555 1_555
C14D N18A 1_555 1_555
H8D C14D 1_555 1_555
C15D C18A 1_555 1_555
H9D C15D 1_555 1_555
N13D N13A 1_555 1_555
N14D C10A 1_555 1_555
C21D C20A 1_555 1_555
H13D C21D 1_555 1_555
C22D N20A 1_555 1_555
H14D C22D 1_555 1_555
N8D N8A 1_555 1_555
N9D C28A 1_555 1_555
C8D C9D 1_555 1_555
C9D N11D 1_555 1_555
C16D C8D 1_555 1_555
H10D C16D 1_555 1_555
C17D C8D 1_555 1_555
H11D C17D 1_555 1_555
C19D C16D 1_555 1_555
H12D C19D 1_555 1_555
C23D C17D 1_555 1_555
H15D C23D 1_555 1_555
Cd3D N7D 1_555 1_555
N6D Cd2 1_555 1_555
N7D C19D 1_555 1_555
N10D N6D 1_555 1_555
N11D N6D 1_555 1_555
N12D C9D 1_555 1_555
O4D Cd3D 1_555 1_555
C8E C9E 1_555 1_555
C9E N11E 1_555 1_555
C16E C8E 1_555 1_555
H10E C16E 1_555 1_555
C17E C8E 1_555 1_555
H11E C17E 1_555 1_555
C19E C16E 1_555 1_555
H12E C19E 1_555 1_555
C23E C17E 1_555 1_555
H15E C23E 1_555 1_555
Cd3E N7E 1_555 1_555
N6E Cd2 1_555 1_555
N7E C19E 1_555 1_555
N10E N6E 1_555 1_555
N11E N6E 1_555 1_555
N12E C9E 1_555 1_555
O4E Cd3E 1_555 1_555
C1E H1E 1_555 1_555
C2E H2E 1_555 1_555
C3E C2E 1_555 1_555
H3E C3E 1_555 1_555
C4E C7E 1_555 1_555
C7E C1E 1_555 1_555
C26E C1E 1_555 1_555
H16E C26E 1_555 1_555
N1E Cd1 1_555 1_555
N2E C4E 1_555 1_555
N3E Cd3 1_555 1_555
N4E C4E 1_555 1_555
N5E C3E 1_555 1_555
C1E_2 H1E_2 1_555 1_555
C2E_2 H2E_2 1_555 1_555
C3E_2 C2E_2 1_555 1_555
H3E_2 C3E_2 1_555 1_555
C4E_2 C7E_2 1_555 1_555
C7E_2 C1E_2 1_555 1_555
C26E_2 C1E_2 1_555 1_555
H16E_2 C26E_2 1_555 1_555
N1E_2 N2E_2 1_555 1_555
N2E_2 C4E_2 1_555 1_555
N3E_2 N1E_2 1_555 1_555
N4E_2 C4E_2 1_555 1_555
N5E_2 Cd4 1_555 1_555
Cd1_2 N1E_2 1_555 1_555
Cd3_2 N13A 1_555 1_555
Cd3_3 N8E 1_555 1_555
Cd3_4 N3E_2 1_555 1_555
Cd3A_2 N8D 1_555 1_555
Cd3A_3 N13 1_555 1_555
Cd3D_2 N8A 1_555 1_555
Cd3D_3 N3A 1_555 1_555
Cd3D_4 N13E 1_555 1_555
Cd3E_2 N13D 1_555 1_555
Cd3E_3 N3 1_555 1_555
Cd3E_4 N8 1_555 1_555
Cd4_2 N10 1_555 1_555
Cd4_3 N5E 1_555 1_555
Cd4A_2 O2 1_555 1_555
Cd4B N15A 1_555 1_555
Cd4C N15 1_555 1_555
N1D Cd1A 1_555 1_555
N3_2 Cd3E 1_555 1_555
N3A_2 Cd3D 1_555 1_555
N3D Cd3A 1_555 1_555
N5D Cd4A 1_555 1_555
N8_2 Cd3E 1_555 1_555
N8A_2 Cd3D 1_555 1_555
N8D_2 Cd3A 1_555 1_555
N8E_2 Cd3 1_555 1_555
N10_2 Cd4 1_555 1_555
N10A_2 Cd4A 1_555 1_555
N10D_2 Cd4A 1_555 1_555
N10E_2 Cd4 1_555 1_555
N13_2 Cd3A 1_555 1_555
N13A_2 Cd3 1_555 1_555
N13D_2 Cd3E 1_555 1_555
N13E_2 Cd3D 1_555 1_555
N15B Cd4A 1_555 1_555
N15C Cd4 1_555 1_555
O1_2 Cd3E 1_555 1_555
O1A_2 Cd3D 1_555 1_555
O2_2 Cd4A 1_555 1_555
O2A_2 Cd4 1_555 1_555
O3_2 Cd4A 1_555 1_555
O3A_2 Cd4 1_555 1_555
C2 C7 1_555 1_555
C11 N15 1_555 1_555
C12 C13 1_555 1_555
C23 N7 1_555 1_555
C26 N5 1_555 1_555
Cd1 N18 1_555 1_555
Cd1 N20 1_555 1_555
Cd3 O1 1_555 1_555
N3 N4 1_555 1_555
N16 N19 1_555 1_555
N19 N21 1_555 1_555
O1 Cd3E_3 1_555 1_555
O3 Cd4A_2 1_555 1_555
C14E C15E 1_555 1_555
N13E N14E 1_555 1_555
C21E C22E 1_555 1_555
N8E N9E 1_555 1_555
C2A C7A 1_555 1_555
C11A N15A 1_555 1_555
C12A C13A 1_555 1_555
C23A N7A 1_555 1_555
C26A N5A 1_555 1_555
Cd1A N18A 1_555 1_555
Cd1A N20A 1_555 1_555
Cd3A O1A 1_555 1_555
N3A N4A 1_555 1_555
N10A N12A 1_555 1_555
N10A Cd4A_2 1_555 1_555
N16A N19A 1_555 1_555
N19A N21A 1_555 1_555
O1A Cd3D_3 1_555 1_555
O2A Cd4_2 1_555 1_555
O3A Cd4_2 1_555 1_555
C14D C15D 1_555 1_555
N13D N14D 1_555 1_555
C21D C22D 1_555 1_555
N8D N9D 1_555 1_555
C23D N7D 1_555 1_555
N10D N12D 1_555 1_555
N10D Cd4A_2 1_555 1_555
C23E N7E 1_555 1_555
N10E N12E 1_555 1_555
N10E Cd4_2 1_555 1_555
C2E C7E 1_555 1_555
C26E N5E 1_555 1_555
N1E N2E 1_555 1_555
N1E N3E 1_555 1_555
N3E N4E 1_555 1_555
C2E_2 C7E_2 1_555 1_555
C3E_2 N5E_2 1_555 1_555
C26E_2 N5E_2 1_555 1_555
N3E_2 N4E_2 1_555 1_555
N1D N3D 1_555 1_555

#END
