
#######################################################################
#
#                 Cambridge Crystallographic Data Centre
#                                CCDC 
#
#######################################################################
#
# If this CIF has been generated from an entry in the Cambridge 
# Structural Database, then it will include bibliographic, chemical, 
# crystal, experimental, refinement or atomic coordinate data resulting 
# from the CCDC's data processing and validation procedures.
#
#######################################################################

data_GOTNEK
_chemical_formula_moiety         '(C84 H83 Dy2 N5 O26)n'
_symmetry_cell_setting           orthorhombic
_symmetry_space_group_name_H-M   'P n a 21'
_symmetry_Int_Tables_number      33
_space_group_name_Hall           'P 2c -2n'
loop_
_symmetry_equiv_pos_site_id
_symmetry_equiv_pos_as_xyz
1 x,y,z
2 -x,-y,1/2+z
3 1/2-x,1/2+y,1/2+z
4 1/2+x,1/2-y,z
_cell_length_a                   19.1237(3)
_cell_length_b                   14.4603(2)
_cell_length_c                   30.6247(4)
_cell_angle_alpha                90
_cell_angle_beta                 90
_cell_angle_gamma                90
_cell_volume                     8468.78
loop_
_atom_site_label
_atom_site_type_symbol
_atom_site_fract_x
_atom_site_fract_y
_atom_site_fract_z
Dy1 Dy 0.358920(9) 0.537127(11) 0.536606(6)
Dy2 Dy 0.313808(9) 0.474681(11) 0.412364(7)
O1 O 0.33700(16) 0.63139(19) 0.42085(9)
O2 O 0.37956(14) 0.6603(2) 0.48754(9)
O3 O 0.40975(17) 0.8316(2) 0.50800(9)
H1 H 0.4008 0.7771 0.5126
O4 O 0.76260(14) 0.9706(2) 0.48948(10)
O5 O 0.69696(15) 0.9802(2) 0.43130(11)
O6 O 0.56314(16) 0.9934(3) 0.43756(10)
H2 H 0.6016 0.9883 0.4259
O7 O 0.33201(16) 0.3815(2) 0.52331(10)
O8 O 0.29265(16) 0.3463(2) 0.45666(10)
O9 O 0.26127(18) 0.1758(2) 0.43896(10)
H3 H 0.2423 0.2260 0.4353
O10 O -0.08704(15) 0.0199(2) 0.45296(11)
O11 O -0.02495(15) -0.0016(2) 0.51170(10)
O12 O 0.11005(15) 0.0057(2) 0.50871(10)
H4 H 0.0717 0.0129 0.5201
O13 O 0.3926(3) 0.4305(3) 0.30177(12)
O14 O 0.3402(2) 0.5328(2) 0.34455(11)
O15 O 0.29410(19) 0.6851(2) 0.31325(10)
H5 H 0.2957 0.6417 0.3304
O16 O 0.08306(16) 0.9462(2) 0.09373(10)
O17 O 0.19057(16) 0.9905(2) 0.10618(11)
O18 O 0.25302(17) 0.9369(2) 0.17551(11)
H6 H 0.2500 0.9569 0.1505
O19 O 0.42963(17) 0.6431(2) 0.57553(11)
O20 O 0.2340(2) 0.3993(3) 0.36752(14)
O21 O 0.28080(16) 0.6571(2) 0.55964(10)
H7 H 0.2734 0.6983 0.5382
H8 H 0.2979 0.6887 0.5825
O22 O 0.37879(19) 0.3534(2) 0.37930(11)
H9 H 0.4243 0.3469 0.3902
H10 H 0.3844 0.3620 0.3493
N1 N 0.5348(2) 0.6998(3) 0.59746(19)
N2 N 0.1474(2) 0.3179(3) 0.33734(18)
C1 C 0.4053(2) 0.8490(3) 0.46419(13)
C2 C 0.3846(2) 0.7801(3) 0.43412(13)
C3 C 0.3825(2) 0.8015(3) 0.39137(14)
H11 H 0.3707 0.7555 0.3715
C4 C 0.3975(2) 0.8903(3) 0.37573(14)
C5 C 0.3935(3) 0.9103(3) 0.33020(15)
H12 H 0.3837 0.8631 0.3105
C6 C 0.4039(3) 0.9974(4) 0.31555(19)
H13 H 0.4017 1.0100 0.2858
C7 C 0.4181(3) 1.0691(4) 0.3456(2)
H14 H 0.4227 1.1294 0.3354
C8 C 0.4253(3) 1.0521(3) 0.38906(19)
H15 H 0.4370 1.1001 0.4079
C9 C 0.41493(19) 0.9603(2) 0.40603(16)
C10 C 0.42117(19) 0.9381(3) 0.45099(14)
C11 C 0.4405(2) 1.0096(3) 0.48547(16)
H16 H 0.4384 1.0704 0.4721
H17 H 0.4052 1.0079 0.5082
C12 C 0.5110(2) 0.9989(3) 0.50669(16)
C13 C 0.5199(2) 1.0065(3) 0.55331(14)
C14 C 0.4628(3) 1.0177(4) 0.58327(18)
H18 H 0.4173 1.0193 0.5727
C15 C 0.4742(3) 1.0259(5) 0.6261(2)
H19 H 0.4361 1.0346 0.6446
C16 C 0.5410(3) 1.0221(5) 0.6444(2)
H20 H 0.5472 1.0285 0.6744
C17 C 0.5960(3) 1.0091(5) 0.61811(19)
H21 H 0.6404 1.0046 0.6303
C18 C 0.5883(2) 1.0018(3) 0.57180(16)
C19 C 0.6456(2) 0.9906(3) 0.54496(16)
H22 H 0.6899 0.9872 0.5574
C20 C 0.6392(2) 0.9844(3) 0.50022(16)
C21 C 0.5709(2) 0.9929(3) 0.48150(15)
C22 C 0.3658(2) 0.6837(3) 0.44898(14)
C23 C 0.7024(2) 0.9767(3) 0.47278(17)
C24 C 0.2675(2) 0.1587(3) 0.48255(15)
C25 C 0.2895(2) 0.2309(3) 0.51272(14)
C26 C 0.2967(2) 0.2114(3) 0.55562(15)
H23 H 0.3104 0.2582 0.5746
C27 C 0.2839(2) 0.1215(3) 0.57255(15)
C28 C 0.2925(2) 0.1036(4) 0.61659(17)
H24 H 0.3050 0.1513 0.6354
C29 C 0.2827(3) 0.0176(4) 0.6323(2)
H25 H 0.2876 0.0060 0.6621
C30 C 0.2651(3) -0.0552(4) 0.6034(2)
H26 H 0.2611 -0.1152 0.6141
C31 C 0.2545(3) -0.0394(3) 0.5617(2)
H27 H 0.2409 -0.0882 0.5439
C32 C 0.2629(2) 0.0507(3) 0.54271(18)
C33 C 0.2536(2) 0.0703(3) 0.49752(16)
C34 C 0.2352(2) -0.0024(3) 0.46406(17)
H28 H 0.2360 -0.0621 0.4785
H29 H 0.2719 -0.0030 0.4422
C35 C 0.1657(2) 0.0067(3) 0.44055(16)
C36 C 0.1593(2) 0.0032(4) 0.39425(17)
C37 C 0.2184(3) 0.0000(4) 0.3652(2)
H30 H 0.2632 0.0063 0.3766
C38 C 0.2102(3) -0.0121(5) 0.3212(2)
H31 H 0.2497 -0.0172 0.3037
C39 C 0.1439(4) -0.0169(5) 0.3018(2)
H32 H 0.1390 -0.0243 0.2718
C40 C 0.0866(3) -0.0102(5) 0.3284(2)
H33 H 0.0423 -0.0117 0.3159
C41 C 0.0923(3) -0.0012(4) 0.37395(16)
C42 C 0.0330(2) 0.0047(3) 0.40001(14)
H34 H -0.0108 0.0056 0.3867
C43 C 0.0369(2) 0.0092(3) 0.44466(15)
C44 C 0.1030(2) 0.0074(3) 0.46462(14)
C45 C 0.3059(2) 0.3277(3) 0.49727(15)
C46 C -0.0284(2) 0.0096(3) 0.47124(16)
C47 C 0.3197(2) 0.6572(3) 0.27317(14)
C48 C 0.3542(3) 0.5700(4) 0.26945(16)
C49 C 0.3799(3) 0.5448(4) 0.23014(17)
H35 H 0.4018 0.4876 0.2276
C50 C 0.3748(3) 0.6012(4) 0.19305(15)
C51 C 0.4027(3) 0.5752(5) 0.15207(19)
H36 H 0.4245 0.5180 0.1491
C52 C 0.3983(3) 0.6329(5) 0.11662(18)
H37 H 0.4158 0.6148 0.0896
C53 C 0.3676(3) 0.7180(5) 0.12181(18)
H38 H 0.3658 0.7571 0.0977
C54 C 0.3396(2) 0.7487(4) 0.16020(15)
H39 H 0.3204 0.8077 0.1622
C55 C 0.3403(2) 0.6880(4) 0.19759(15)
C56 C 0.3117(2) 0.7161(3) 0.23755(14)
C57 C 0.2717(3) 0.8063(3) 0.24298(15)
H40 H 0.2606 0.8139 0.2737
H41 H 0.3025 0.8568 0.2348
C58 C 0.2045(2) 0.8155(3) 0.21692(14)
C59 C 0.1448(2) 0.7592(3) 0.22708(15)
C60 C 0.1414(3) 0.7001(4) 0.26375(16)
H42 H 0.1797 0.6957 0.2823
C61 C 0.0824(3) 0.6488(4) 0.27256(19)
H43 H 0.0821 0.6089 0.2964
C62 C 0.0239(3) 0.6558(4) 0.2466(2)
H44 H -0.0160 0.6218 0.2532
C63 C 0.0248(3) 0.7128(4) 0.21130(18)
H45 H -0.0148 0.7172 0.1938
C64 C 0.0838(2) 0.7648(3) 0.20062(15)
C65 C 0.0827(2) 0.8266(3) 0.16459(16)
H46 H 0.0435 0.8292 0.1467
C66 C 0.1389(2) 0.8824(3) 0.15594(15)
C67 C 0.1991(2) 0.8786(3) 0.18346(15)
C68 C 0.3649(3) 0.5048(4) 0.30747(18)
C69 C 0.1363(2) 0.9430(3) 0.11668(15)
C70 C 0.4911(3) 0.6334(4) 0.5844(2)
H47 H 0.5095 0.5741 0.5817
C71 C 0.6062(4) 0.6633(7) 0.6041(6)
H48 H 0.6122 0.6463 0.6342
H49 H 0.6398 0.7099 0.5965
H50 H 0.6130 0.6099 0.5859
C72 C 0.5294(6) 0.7960(5) 0.5847(5)
H51 H 0.5552 0.8059 0.5582
H52 H 0.5482 0.8345 0.6074
H53 H 0.4811 0.8115 0.5800
C73 C 0.2077(3) 0.3319(5) 0.3576(2)
H54 H 0.2322 0.2785 0.3649
C74 C 0.0973(5) 0.3909(5) 0.3314(6)
H55 H 0.0654 0.3917 0.3556
H56 H 0.0717 0.3805 0.3048
H57 H 0.1212 0.4491 0.3297
C75 C 0.0963(5) 0.2429(5) 0.3338(5)
H58 H 0.1183 0.1894 0.3213
H59 H 0.0583 0.2622 0.3155
H60 H 0.0787 0.2278 0.3623
Dy1B Dy 0.141080(9) 1.037127(11) 0.036606(6)
Dy1C Dy -0.141080(9) -0.037127(11) 0.536606(6)
Dy1C_2 Dy 0.858920(9) 0.962873(11) 0.536606(6)
Dy2C Dy -0.186192(9) 0.025319(11) 0.412364(7)
Dy2C_2 Dy 0.813808(9) 1.025319(11) 0.412364(7)
O4C O 0.26260(14) 0.5294(2) 0.48948(10)
O5C O 0.19696(15) 0.5198(2) 0.43130(11)
O10C O 0.41296(15) 0.4801(2) 0.45296(11)
O11C O 0.47505(15) 0.5016(2) 0.51170(10)
O16B O 0.41694(16) 0.4462(2) 0.59373(10)
O17B O 0.30943(16) 0.4905(2) 0.60618(11)
O23 O 0.4885(3) 0.2648(4) 0.41789(19)
N3 N 0.5282(2) 0.2530(4) 0.48552(14)
C80 C 0.4753(4) 0.2636(6) 0.4554(2)
H73 H 0.4292 0.2696 0.4646
C81 C 0.4955(4) 0.2515(6) 0.5294(2)
H74 H 0.4460 0.2420 0.5264
H75 H 0.5039 0.3095 0.5438
H76 H 0.5154 0.2023 0.5463
C82 C 0.6011(3) 0.2447(8) 0.4931(4)
H77 H 0.6177 0.2991 0.5078
H78 H 0.6250 0.2382 0.4657
H79 H 0.6099 0.1914 0.5109
O24 O 0.6989(3) 0.7487(4) 0.50157(19)
N4 N 0.6368(2) 0.7484(4) 0.43978(14)
C83 C 0.6948(3) 0.7516(6) 0.4630(3)
H80 H 0.7366 0.7566 0.4477
C84 C 0.5676(4) 0.7456(8) 0.4562(3)
H81 H 0.5688 0.7421 0.4875
H82 H 0.5439 0.6923 0.4447
H83 H 0.5431 0.8006 0.4474
C85 C 0.6298(7) 0.7550(11) 0.3926(2)
H84 H 0.6735 0.7394 0.3791
H85 H 0.6170 0.8170 0.3848
H86 H 0.5942 0.7130 0.3828
O25 O 0.7588(4) 0.7860(6) 0.6443(3)
N5 N 0.7136(5) 0.7774(5) 0.7161(2)
C86 C 0.7319(6) 0.8176(9) 0.6777(3)
H87 H 0.7225 0.8807 0.6764
C87 C 0.7279(9) 0.6791(6) 0.7254(5)
H88 H 0.6996 0.6410 0.7068
H89 H 0.7169 0.6662 0.7554
H90 H 0.7764 0.6662 0.7202
C88 C 0.6907(9) 0.8196(12) 0.7573(4)
H91 H 0.7208 0.7997 0.7806
H92 H 0.6436 0.8010 0.7635
H93 H 0.6927 0.8857 0.7548
O26 O 0.4521(8) 0.7014(14) 0.7077(5)
loop_
_geom_bond_atom_site_label_1
_geom_bond_atom_site_label_2
_geom_bond_site_symmetry_1
_geom_bond_site_symmetry_2
Dy1 O2 1_555 1_555
Dy2 O1 1_555 1_555
O1 C22 1_555 1_555
O2 C22 1_555 1_555
O3 H1 1_555 1_555
O4 C23 1_555 1_555
O5 C23 1_555 1_555
O6 H2 1_555 1_555
O7 Dy1 1_555 1_555
O8 Dy2 1_555 1_555
O9 H3 1_555 1_555
O10 C46 1_555 1_555
O11 C46 1_555 1_555
O12 H4 1_555 1_555
O13 C68 1_555 1_555
O14 Dy2 1_555 1_555
O15 H5 1_555 1_555
O16 C69 1_555 1_555
O17 C69 1_555 1_555
O18 H6 1_555 1_555
O19 Dy1 1_555 1_555
O20 Dy2 1_555 1_555
O21 Dy1 1_555 1_555
H7 O21 1_555 1_555
H8 O21 1_555 1_555
O22 Dy2 1_555 1_555
H9 O22 1_555 1_555
H10 O22 1_555 1_555
N1 C70 1_555 1_555
N2 C73 1_555 1_555
C1 O3 1_555 1_555
C2 C1 1_555 1_555
C3 C2 1_555 1_555
H11 C3 1_555 1_555
C4 C3 1_555 1_555
C5 C4 1_555 1_555
H12 C5 1_555 1_555
C6 C5 1_555 1_555
H13 C6 1_555 1_555
C7 C6 1_555 1_555
H14 C7 1_555 1_555
C8 C7 1_555 1_555
H15 C8 1_555 1_555
C9 C4 1_555 1_555
C10 C1 1_555 1_555
C11 C10 1_555 1_555
H16 C11 1_555 1_555
H17 C11 1_555 1_555
C12 C11 1_555 1_555
C13 C12 1_555 1_555
C14 C13 1_555 1_555
H18 C14 1_555 1_555
C15 C14 1_555 1_555
H19 C15 1_555 1_555
C16 C15 1_555 1_555
H20 C16 1_555 1_555
C17 C16 1_555 1_555
H21 C17 1_555 1_555
C18 C13 1_555 1_555
C19 C18 1_555 1_555
H22 C19 1_555 1_555
C20 C19 1_555 1_555
C21 O6 1_555 1_555
C22 C2 1_555 1_555
C23 C20 1_555 1_555
C24 O9 1_555 1_555
C25 C24 1_555 1_555
C26 C25 1_555 1_555
H23 C26 1_555 1_555
C27 C26 1_555 1_555
C28 C27 1_555 1_555
H24 C28 1_555 1_555
C29 C28 1_555 1_555
H25 C29 1_555 1_555
C30 C29 1_555 1_555
H26 C30 1_555 1_555
C31 C30 1_555 1_555
H27 C31 1_555 1_555
C32 C27 1_555 1_555
C33 C24 1_555 1_555
C34 C33 1_555 1_555
H28 C34 1_555 1_555
H29 C34 1_555 1_555
C35 C34 1_555 1_555
C36 C35 1_555 1_555
C37 C36 1_555 1_555
H30 C37 1_555 1_555
C38 C37 1_555 1_555
H31 C38 1_555 1_555
C39 C38 1_555 1_555
H32 C39 1_555 1_555
C40 C39 1_555 1_555
H33 C40 1_555 1_555
C41 C36 1_555 1_555
C42 C41 1_555 1_555
H34 C42 1_555 1_555
C43 C42 1_555 1_555
C44 O12 1_555 1_555
C45 O7 1_555 1_555
C46 C43 1_555 1_555
C47 O15 1_555 1_555
C48 C47 1_555 1_555
C49 C48 1_555 1_555
H35 C49 1_555 1_555
C50 C49 1_555 1_555
C51 C50 1_555 1_555
H36 C51 1_555 1_555
C52 C51 1_555 1_555
H37 C52 1_555 1_555
C53 C52 1_555 1_555
H38 C53 1_555 1_555
C54 C53 1_555 1_555
H39 C54 1_555 1_555
C55 C50 1_555 1_555
C56 C47 1_555 1_555
C57 C56 1_555 1_555
H40 C57 1_555 1_555
H41 C57 1_555 1_555
C58 C57 1_555 1_555
C59 C58 1_555 1_555
C60 C59 1_555 1_555
H42 C60 1_555 1_555
C61 C60 1_555 1_555
H43 C61 1_555 1_555
C62 C61 1_555 1_555
H44 C62 1_555 1_555
C63 C62 1_555 1_555
H45 C63 1_555 1_555
C64 C59 1_555 1_555
C65 C64 1_555 1_555
H46 C65 1_555 1_555
C66 C65 1_555 1_555
C67 O18 1_555 1_555
C68 O14 1_555 1_555
C69 C66 1_555 1_555
C70 O19 1_555 1_555
H47 C70 1_555 1_555
C71 N1 1_555 1_555
H48 C71 1_555 1_555
H49 C71 1_555 1_555
H50 C71 1_555 1_555
C72 N1 1_555 1_555
H51 C72 1_555 1_555
H52 C72 1_555 1_555
H53 C72 1_555 1_555
C73 O20 1_555 1_555
H54 C73 1_555 1_555
C74 N2 1_555 1_555
H55 C74 1_555 1_555
H56 C74 1_555 1_555
H57 C74 1_555 1_555
C75 N2 1_555 1_555
H58 C75 1_555 1_555
H59 C75 1_555 1_555
H60 C75 1_555 1_555
O23 C80 1_555 1_555
N3 C80 1_555 1_555
C80 H73 1_555 1_555
C81 N3 1_555 1_555
H74 C81 1_555 1_555
H75 C81 1_555 1_555
H76 C81 1_555 1_555
C82 N3 1_555 1_555
H77 C82 1_555 1_555
H78 C82 1_555 1_555
H79 C82 1_555 1_555
O24 C83 1_555 1_555
N4 C83 1_555 1_555
C83 H80 1_555 1_555
C84 N4 1_555 1_555
H81 C84 1_555 1_555
H82 C84 1_555 1_555
H83 C84 1_555 1_555
C85 N4 1_555 1_555
H84 C85 1_555 1_555
H85 C85 1_555 1_555
H86 C85 1_555 1_555
O25 C86 1_555 1_555
N5 C86 1_555 1_555
C86 H87 1_555 1_555
C87 N5 1_555 1_555
H88 C87 1_555 1_555
H89 C87 1_555 1_555
H90 C87 1_555 1_555
C88 N5 1_555 1_555
H91 C88 1_555 1_555
H92 C88 1_555 1_555
H93 C88 1_555 1_555
Dy1B O16 1_555 1_555
Dy1C O11 1_555 1_555
Dy1C_2 O4 1_555 1_555
Dy2C O10 1_555 1_555
Dy2C_2 O4 1_555 1_555
O4C Dy1 1_555 1_555
O5C Dy2 1_555 1_555
O10C Dy2 1_555 1_555
O11C Dy1 1_555 1_555
O16B Dy1 1_555 1_555
O17B Dy1 1_555 1_555
Dy2 O4C 1_555 1_555
O5 Dy2C_2 1_555 1_555
O8 C45 1_555 1_555
O17 Dy1B 1_555 1_555
C8 C9 1_555 1_555
C9 C10 1_555 1_555
C12 C21 1_555 1_555
C17 C18 1_555 1_555
C20 C21 1_555 1_555
C25 C45 1_555 1_555
C31 C32 1_555 1_555
C32 C33 1_555 1_555
C35 C44 1_555 1_555
C40 C41 1_555 1_555
C43 C44 1_555 1_555
C48 C68 1_555 1_555
C54 C55 1_555 1_555
C55 C56 1_555 1_555
C58 C67 1_555 1_555
C63 C64 1_555 1_555
C66 C67 1_555 1_555

#END
