
#######################################################################
#
#                 Cambridge Crystallographic Data Centre
#                                CCDC 
#
#######################################################################
#
# If this CIF has been generated from an entry in the Cambridge 
# Structural Database, then it will include bibliographic, chemical, 
# crystal, experimental, refinement or atomic coordinate data resulting 
# from the CCDC's data processing and validation procedures.
#
#######################################################################

data_GAMXAV
_chemical_formula_moiety         '(C36 H20 Cu3 N4 O10)n'
_symmetry_cell_setting           tetragonal
_symmetry_space_group_name_H-M   'I 4/m'
_symmetry_Int_Tables_number      87
_space_group_name_Hall           '-I 4'
loop_
_symmetry_equiv_pos_site_id
_symmetry_equiv_pos_as_xyz
1 x,y,z
2 -x,-y,z
3 -y,x,z
4 y,-x,z
5 1/2+x,1/2+y,1/2+z
6 1/2-x,1/2-y,1/2+z
7 1/2-y,1/2+x,1/2+z
8 1/2+y,1/2-x,1/2+z
9 -x,-y,-z
10 x,y,-z
11 y,-x,-z
12 -y,x,-z
13 1/2-x,1/2-y,1/2-z
14 1/2+x,1/2+y,1/2-z
15 1/2+y,1/2-x,1/2-z
16 1/2-y,1/2+x,1/2-z
_cell_length_a                   18.615(7)
_cell_length_b                   18.615(7)
_cell_length_c                   36.321(14)
_cell_angle_alpha                90
_cell_angle_beta                 90
_cell_angle_gamma                90
_cell_volume                     12585.9
loop_
_atom_site_label
_atom_site_type_symbol
_atom_site_fract_x
_atom_site_fract_y
_atom_site_fract_z
_atom_site_U_iso_or_equiv
_atom_site_thermal_displace_type
Cu1 Cu -0.21715(12) -0.78363(12) 0.27740(3) 0.0926 Uani
Cu2 Cu -0.0013(3) -0.7124(2) 0.0000 0.1738 Uani
C1 C -0.1348(9) -0.7300(11) 0.2128(7) 0.1770 Uiso
C2 C 0.1333(8) -0.7248(10) 0.2121(4) 0.0910 Uiso
O1 O -0.1307(6) -0.7581(5) 0.2464(3) 0.0970 Uiso
O2 O -0.1911(5) -0.7048(7) 0.2002(3) 0.0940 Uiso
O3 O 0.1946(6) -0.7110(5) 0.2006(2) 0.0790 Uiso
O4 O 0.1339(5) -0.7632(5) 0.2464(3) 0.0900 Uiso
O5 O -0.1629(7) -0.8504(7) 0.3165(3) 0.1450 Uiso
C3 C -0.0634(5) -0.7260(11) 0.1948(5) 0.1130 Uiso
C4 C -0.0029(5) -0.7297(11) 0.2163(5) 0.1300 Uiso
H1 H -0.0039 -0.7354 0.2423 0.1560 Uiso
C5 C 0.0606(5) -0.7241(9) 0.1957(5) 0.0920 Uiso
C6 C 0.0667(8) -0.7149(13) 0.1564(6) 0.1980 Uiso
H2 H 0.1115 -0.7106 0.1441 0.2380 Uiso
C7 C 0.0001(7) -0.7127(12) 0.1380(4) 0.1180 Uiso
C8 C -0.0651(7) -0.7171(12) 0.1554(5) 0.1490 Uiso
H3 H -0.1091 -0.7144 0.1421 0.1790 Uiso
C9 C 0.0007(10) -0.7098(7) 0.0966(4) 0.1360 Uiso
C10 C -0.0243(10) -0.7696(7) 0.0777(5) 0.2720 Uiso
C11 C 0.0269(10) -0.6474(8) 0.0785(5) 0.1680 Uiso
N1 N 0.0316(8) -0.6403(7) 0.0400(2) 0.1860 Uiso
N2 N -0.0306(9) -0.7853(6) 0.0397(3) 0.3900 Uiso
C12 C 0.0538(12) -0.5853(9) 0.0955(4) 0.2050 Uiso
H4 H 0.0586 -0.5773 0.1212 0.2470 Uiso
C13 C -0.0518(13) -0.8341(10) 0.0950(4) 0.2700 Uiso
H5 H -0.0546 -0.8406 0.1209 0.3230 Uiso
C14 C -0.0585(12) -0.8549(11) 0.0338(3) 0.2860 Uiso
C15 C 0.0567(11) -0.5762(8) 0.0342(3) 0.1740 Uiso
C16 C 0.0710(19) -0.5451(13) 0.0000 0.3160 Uiso
H6 H 0.0922 -0.4987 0.0000 0.3790 Uiso
C17 C -0.0681(14) -0.8940(16) 0.0000 0.1720 Uiso
H7 H -0.0802 -0.9436 0.0000 0.2070 Uiso
C18 C 0.0718(13) -0.5379(11) 0.0677(6) 0.2750 Uiso
H8 H 0.0902 -0.4905 0.0701 0.3300 Uiso
C19 C -0.0742(13) -0.8871(11) 0.0689(6) 0.2350 Uiso
H9 H -0.0947 -0.9329 0.0736 0.2820 Uiso
Cu1I Cu -0.21715(12) -0.78363(12) -0.27740(3) 0.0926 Uani
Cu1L Cu -0.28285(12) -0.71637(12) 0.22260(3) 0.0926 Uani
Cu1O Cu 0.28363(12) -0.71715(12) 0.22260(3) 0.0926 Uani
Cu1C Cu 0.21637(12) -0.78285(12) 0.27740(3) 0.0926 Uani
Cu1F Cu 0.28363(12) -0.71715(12) -0.22260(3) 0.0926 Uani
Cu1J Cu 0.21637(12) -0.78285(12) -0.27740(3) 0.0926 Uani
Cu1E Cu -0.28285(12) -0.71637(12) -0.22260(3) 0.0926 Uani
C1I C -0.1348(9) -0.7300(11) -0.2128(7) 0.1770 Uiso
C2I C 0.1333(8) -0.7248(10) -0.2121(4) 0.0910 Uiso
O1I O -0.1307(6) -0.7581(5) -0.2464(3) 0.0970 Uiso
O2I O -0.1911(5) -0.7048(7) -0.2002(3) 0.0940 Uiso
O2L O -0.3089(5) -0.7952(7) 0.2998(3) 0.0940 Uiso
O2E O -0.3089(5) -0.7952(7) -0.2998(3) 0.0940 Uiso
O3I O 0.1946(6) -0.7110(5) -0.2006(2) 0.0790 Uiso
O3N O -0.2110(5) -0.6946(6) 0.2994(2) 0.0790 Uiso
O3G O -0.2110(5) -0.6946(6) -0.2994(2) 0.0790 Uiso
O4I O 0.1339(5) -0.7632(5) -0.2464(3) 0.0900 Uiso
O4B O -0.2368(5) -0.8661(5) 0.2464(3) 0.0900 Uiso
O4K O -0.2368(5) -0.8661(5) -0.2464(3) 0.0900 Uiso
O5I O -0.1629(7) -0.8504(7) -0.3165(3) 0.1450 Uiso
C3I C -0.0634(5) -0.7260(11) -0.1948(5) 0.1130 Uiso
C4I C -0.0029(5) -0.7297(11) -0.2163(5) 0.1300 Uiso
H1I H -0.0039 -0.7354 -0.2423 0.1560 Uiso
C5I C 0.0606(5) -0.7241(9) -0.1957(5) 0.0920 Uiso
C6I C 0.0667(8) -0.7149(13) -0.1564(6) 0.1980 Uiso
H2I H 0.1115 -0.7106 -0.1441 0.2380 Uiso
C7I C 0.0001(7) -0.7127(12) -0.1380(4) 0.1180 Uiso
C8I C -0.0651(7) -0.7171(12) -0.1554(5) 0.1490 Uiso
H3I H -0.1091 -0.7144 -0.1421 0.1790 Uiso
C9I C 0.0007(10) -0.7098(7) -0.0966(4) 0.1360 Uiso
C10I C -0.0243(10) -0.7696(7) -0.0777(5) 0.2720 Uiso
C11I C 0.0269(10) -0.6474(8) -0.0785(5) 0.1680 Uiso
N1I N 0.0316(8) -0.6403(7) -0.0400(2) 0.1860 Uiso
N2I N -0.0306(9) -0.7853(6) -0.0397(3) 0.3900 Uiso
C12I C 0.0538(12) -0.5853(9) -0.0955(4) 0.2050 Uiso
H4I H 0.0586 -0.5773 -0.1212 0.2470 Uiso
C13I C -0.0518(13) -0.8341(10) -0.0950(4) 0.2700 Uiso
H5I H -0.0546 -0.8406 -0.1209 0.3230 Uiso
C14I C -0.0585(12) -0.8549(11) -0.0338(3) 0.2860 Uiso
C15I C 0.0567(11) -0.5762(8) -0.0342(3) 0.1740 Uiso
C18I C 0.0718(13) -0.5379(11) -0.0677(6) 0.2750 Uiso
H8I H 0.0902 -0.4905 -0.0701 0.3300 Uiso
C19I C -0.0742(13) -0.8871(11) -0.0689(6) 0.2350 Uiso
H9I H -0.0947 -0.9329 -0.0736 0.2820 Uiso
loop_
_atom_site_aniso_label
_atom_site_aniso_U_11
_atom_site_aniso_U_22
_atom_site_aniso_U_33
_atom_site_aniso_U_23
_atom_site_aniso_U_13
_atom_site_aniso_U_12
Cu1 0.138 0.132 0.0077 -0.0068 0.0046 0.0076
Cu2 0.075 0.443 0.0034 0 0 0.007
Cu1I 0.138 0.132 0.0077 0.0068 -0.0046 0.0076
Cu1L 0.138 0.132 0.0077 -0.0068 0.0046 0.0076
Cu1O 0.132(2) 0.138(3) 0.0077(8) -0.0046(12) -0.0068(12) -0.0076(16)
Cu1C 0.132 0.138 0.0077 -0.0046 -0.0068 -0.0076
Cu1F 0.132 0.138 0.0077 0.0046 0.0068 -0.0076
Cu1J 0.132 0.138 0.0077 0.0046 0.0068 -0.0076
Cu1E 0.138 0.132 0.0077 0.0068 -0.0046 0.0076
loop_
_geom_bond_atom_site_label_1
_geom_bond_atom_site_label_2
_geom_bond_site_symmetry_1
_geom_bond_site_symmetry_2
Cu1 O1 1_555 1_555
Cu2 N1 1_555 1_555
C1 O1 1_555 1_555
C2 O3 1_555 1_555
O2 C1 1_555 1_555
O3 Cu1O 1_555 1_555
O4 C2 1_555 1_555
O5 Cu1 1_555 1_555
C3 C1 1_555 1_555
C4 C3 1_555 1_555
H1 C4 1_555 1_555
C5 C2 1_555 1_555
C6 C5 1_555 1_555
H2 C6 1_555 1_555
C7 C6 1_555 1_555
C8 C3 1_555 1_555
H3 C8 1_555 1_555
C9 C7 1_555 1_555
C10 C9 1_555 1_555
C11 C9 1_555 1_555
N1 C11 1_555 1_555
N2 Cu2 1_555 1_555
C12 C11 1_555 1_555
H4 C12 1_555 1_555
C13 C10 1_555 1_555
H5 C13 1_555 1_555
C14 N2 1_555 1_555
C15 N1 1_555 1_555
C16 C15 1_555 1_555
H6 C16 1_555 1_555
C17 C14 1_555 1_555
H7 C17 1_555 1_555
C18 C12 1_555 1_555
H8 C18 1_555 1_555
C19 C13 1_555 1_555
H9 C19 1_555 1_555
Cu1I O1I 1_555 1_555
Cu1L O2 1_555 1_555
Cu1C O4 1_555 1_555
Cu1F O3I 1_555 1_555
Cu1J O4I 1_555 1_555
Cu1E O2I 1_555 1_555
C1I O1I 1_555 1_555
C2I O3I 1_555 1_555
O2I C1I 1_555 1_555
O2L Cu1 1_555 1_555
O2E Cu1I 1_555 1_555
O3N Cu1 1_555 1_555
O3G Cu1I 1_555 1_555
O4I C2I 1_555 1_555
O4B Cu1 1_555 1_555
O4K Cu1I 1_555 1_555
O5I Cu1I 1_555 1_555
C3I C1I 1_555 1_555
C4I C3I 1_555 1_555
H1I C4I 1_555 1_555
C5I C2I 1_555 1_555
C6I C5I 1_555 1_555
H2I C6I 1_555 1_555
C7I C6I 1_555 1_555
C8I C3I 1_555 1_555
H3I C8I 1_555 1_555
C9I C7I 1_555 1_555
C10I C9I 1_555 1_555
C11I C9I 1_555 1_555
N1I Cu2 1_555 1_555
N2I Cu2 1_555 1_555
C12I C11I 1_555 1_555
H4I C12I 1_555 1_555
C13I C10I 1_555 1_555
H5I C13I 1_555 1_555
C14I C17 1_555 1_555
C15I C16 1_555 1_555
C18I C12I 1_555 1_555
H8I C18I 1_555 1_555
C19I C13I 1_555 1_555
H9I C19I 1_555 1_555
C4 C5 1_555 1_555
C7 C8 1_555 1_555
C10 N2 1_555 1_555
C14 C19 1_555 1_555
C15 C18 1_555 1_555
C4I C5I 1_555 1_555
C7I C8I 1_555 1_555
C10I N2I 1_555 1_555
C11I N1I 1_555 1_555
N1I C15I 1_555 1_555
N2I C14I 1_555 1_555
C14I C19I 1_555 1_555
C15I C18I 1_555 1_555

#END
