
#######################################################################
#
#                 Cambridge Crystallographic Data Centre
#                                CCDC 
#
#######################################################################
#
# If this CIF has been generated from an entry in the Cambridge 
# Structural Database, then it will include bibliographic, chemical, 
# crystal, experimental, refinement or atomic coordinate data resulting 
# from the CCDC's data processing and validation procedures.
#
#######################################################################

data_DUWRIY
_chemical_formula_moiety         '(C8 H14 Mg2 N1 O17 P2 1-)n'
_symmetry_cell_setting           monoclinic
_symmetry_space_group_name_H-M   'P 21/n'
_symmetry_Int_Tables_number      14
_space_group_name_Hall           '-P 2yn'
loop_
_symmetry_equiv_pos_site_id
_symmetry_equiv_pos_as_xyz
1 x,y,z
2 1/2-x,1/2+y,1/2-z
3 -x,-y,-z
4 1/2+x,1/2-y,1/2+z
_cell_length_a                   9.3755(2)
_cell_length_b                   7.47460(10)
_cell_length_c                   15.4310(2)
_cell_angle_alpha                90
_cell_angle_beta                 100.119(2)
_cell_angle_gamma                90
_cell_volume                     1064.55
loop_
_atom_site_label
_atom_site_type_symbol
_atom_site_fract_x
_atom_site_fract_y
_atom_site_fract_z
Mg1 Mg 0.78015(8) 0.46719(9) 0.59849(4)
P1 P 0.65247(6) 0.59715(7) 0.77434(4)
O1 O 0.74348(19) 0.6146(2) 0.70399(10)
O2 O 0.7154(2) 0.4526(2) 0.84425(11)
H1 H 0.7271 0.3583 0.8192
O3 O 0.63442(18) 0.7639(2) 0.82407(11)
O4 O 0.5016(2) 0.5246(3) 0.72507(12)
H2 H 0.4394 0.5433 0.7553
O5 O 0.63731(17) 0.6579(2) 0.52095(10)
O6 O 0.41185(17) 0.6855(2) 0.44644(10)
O7 O 0.96788(17) 0.6176(2) 0.59181(10)
O8 O 1.14943(18) 0.6404(2) 0.51497(11)
C1 C 0.5143(2) 0.5995(3) 0.49047(14)
C2 C 1.0348(2) 0.5757(3) 0.53153(13)
O5B O 0.36269(17) 0.3421(2) 0.47905(10)
O6B O 0.58815(17) 0.3145(2) 0.55356(10)
C1B C 0.4857(2) 0.4005(3) 0.50953(14)
O7B O 1.03212(17) 0.3824(2) 0.40819(10)
O8B O 0.85057(18) 0.3596(2) 0.48503(11)
C2B C 0.9652(2) 0.4243(3) 0.46847(13)
Mg1B Mg 0.21985(8) 0.53281(9) 0.40151(4)
P1B P 0.34753(6) 0.40285(7) 0.22566(4)
O1B O 0.25652(19) 0.3854(2) 0.29601(10)
O2B O 0.2846(2) 0.5474(2) 0.15575(11)
H1B H 0.2729 0.6417 0.1808
O3B O 0.36558(18) 0.2361(2) 0.17593(11)
O4B O 0.4984(2) 0.4754(3) 0.27493(12)
H2B H 0.5606 0.4567 0.2447
Mg1A Mg 0.71985(8) 0.96719(9) 0.90151(4)
Mg1B_2 Mg 1.21985(8) 0.53281(9) 0.40151(4)
Mg1C Mg 0.28015(8) 0.03281(9) 0.09849(4)
O3A O 0.86558(18) 0.2639(2) 0.67593(11)
O3C O 0.13442(18) 0.7361(2) 0.32407(11)
O7B_2 O 0.03212(17) 0.3824(2) 0.40819(10)
O8_2 O 0.14943(18) 0.6404(2) 0.51497(11)
O9 O 0.2609(2) 0.6194(3) 0.79495(12)
N1 N 0.1810(3) 0.4925(3) 0.95321(14)
H3 H 0.1284 0.5813 0.9696
H4 H 0.1859 0.4058 0.9931
C3 C 0.3203(3) 0.6961(4) 0.87798(18)
H5 H 0.2599 0.7948 0.8905
H6 H 0.4163 0.7425 0.8761
C4 C 0.3292(3) 0.5582(4) 0.94935(17)
H7 H 0.3898 0.4594 0.9372
H8 H 0.3719 0.6104 1.0055
C5 C 0.1154(3) 0.5631(4) 0.79584(19)
H9 H 0.0739 0.5150 0.7386
H10 H 0.0578 0.6656 0.8070
C6 C 0.1092(3) 0.4228(4) 0.86535(18)
H11 H 0.0091 0.3929 0.8671
H12 H 0.1581 0.3151 0.8512
loop_
_geom_bond_atom_site_label_1
_geom_bond_atom_site_label_2
_geom_bond_site_symmetry_1
_geom_bond_site_symmetry_2
Mg1 O1 1_555 1_555
P1 O1 1_555 1_555
O2 P1 1_555 1_555
H1 O2 1_555 1_555
O3 P1 1_555 1_555
O4 P1 1_555 1_555
H2 O4 1_555 1_555
O5 Mg1 1_555 1_555
O6 C1 1_555 1_555
O7 Mg1 1_555 1_555
O8 C2 1_555 1_555
C1 O5 1_555 1_555
C2 O7 1_555 1_555
O9 C3 1_555 1_555
N1 H3 1_555 1_555
H4 N1 1_555 1_555
C3 H5 1_555 1_555
H6 C3 1_555 1_555
C4 N1 1_555 1_555
H7 C4 1_555 1_555
H8 C4 1_555 1_555
C5 O9 1_555 1_555
H9 C5 1_555 1_555
H10 C5 1_555 1_555
C6 N1 1_555 1_555
H11 C6 1_555 1_555
H12 C6 1_555 1_555
O5B C1B 1_555 1_555
O6B Mg1 1_555 1_555
C1B C1 1_555 1_555
O7B C2B 1_555 1_555
O8B Mg1 1_555 1_555
C2B C2 1_555 1_555
Mg1B O6 1_555 1_555
P1B O1B 1_555 1_555
O1B Mg1B 1_555 1_555
O2B P1B 1_555 1_555
H1B O2B 1_555 1_555
O3B P1B 1_555 1_555
O4B P1B 1_555 1_555
H2B O4B 1_555 1_555
Mg1A O3 1_555 1_555
Mg1B_2 O8 1_555 1_555
Mg1C O3B 1_555 1_555
O3A Mg1 1_555 1_555
O3C Mg1B 1_555 1_555
O7B_2 Mg1B 1_555 1_555
O8_2 Mg1B 1_555 1_555
C3 C4 1_555 1_555
C5 C6 1_555 1_555
O5B Mg1B 1_555 1_555
O6B C1B 1_555 1_555
O7B Mg1B_2 1_555 1_555
O8B C2B 1_555 1_555

#END
