
#######################################################################
#
#                 Cambridge Crystallographic Data Centre
#                                CCDC 
#
#######################################################################
#
# If this CIF has been generated from an entry in the Cambridge 
# Structural Database, then it will include bibliographic, chemical, 
# crystal, experimental, refinement or atomic coordinate data resulting 
# from the CCDC's data processing and validation procedures.
#
#######################################################################

data_YAHPED
_chemical_formula_moiety         '(C58 H40 N4 Ni2 O12)n'
_symmetry_cell_setting           monoclinic
_symmetry_space_group_name_H-M   'P 21/c'
_symmetry_Int_Tables_number      14
_space_group_name_Hall           '-P 2ybc'
loop_
_symmetry_equiv_pos_site_id
_symmetry_equiv_pos_as_xyz
1 x,y,z
2 -x,1/2+y,1/2-z
3 -x,-y,-z
4 x,1/2-y,1/2+z
_cell_length_a                   11.248(2)
_cell_length_b                   16.801(4)
_cell_length_c                   14.945(3)
_cell_angle_alpha                90.00
_cell_angle_beta                 103.732(4)
_cell_angle_gamma                90.00
_cell_volume                     2743.54
loop_
_atom_site_label
_atom_site_type_symbol
_atom_site_fract_x
_atom_site_fract_y
_atom_site_fract_z
Ni1 Ni 0.98542(7) 0.95990(4) 0.13291(6)
N1 N 1.1726(5) 0.9560(3) 0.1427(4)
N2 N 1.7985(5) 0.9642(3) 0.1245(4)
O1 O 0.9909(5) 0.8427(3) 0.1979(3)
O2 O 1.0128(5) 0.9527(2) 0.2775(3)
O3 O 1.0148(4) 0.5797(2) 0.3763(3)
O4 O 0.9434(4) 0.5847(2) 0.5034(3)
O5 O 0.9082(5) 0.8494(3) 0.6528(4)
O6 O 1.0231(5) 0.9406(3) 0.6062(4)
H1 H 1.0308 0.9588 0.6596
C1 C 1.2227(6) 0.8980(4) 0.1026(5)
H2 H 1.1728 0.8541 0.0772
C2 C 1.2449(6) 1.0164(4) 0.1799(5)
H3 H 1.2116 1.0577 0.2100
C3 C 1.3427(6) 0.8986(4) 0.0963(5)
H4 H 1.3743 0.8559 0.0673
C4 C 1.3674(6) 1.0212(4) 0.1761(5)
H5 H 1.4162 1.0649 0.2034
C5 C 1.4170(7) 0.9622(4) 0.1328(5)
C6 C 1.5488(6) 0.9628(4) 0.1286(4)
C7 C 1.6001(7) 0.9023(5) 0.0889(8)
H6 H 1.5516 0.8582 0.0620
C8 C 1.6248(7) 1.0258(4) 0.1632(7)
H7 H 1.5935 1.0706 0.1888
C9 C 1.7235(7) 0.9055(5) 0.0881(7)
H8 H 1.7562 0.8629 0.0597
C10 C 1.7485(7) 1.0231(4) 0.1604(7)
H9 H 1.7993 1.0665 0.1860
C11 C 0.9780(6) 0.6160(3) 0.4379(4)
C12 C 0.9921(6) 0.8309(4) 0.3567(5)
C13 C 0.9856(6) 0.8713(4) 0.4358(4)
H10 H 0.9909 0.9278 0.4371
C14 C 0.9905(6) 0.7473(3) 0.3562(4)
H11 H 0.9987 0.7188 0.3031
C15 C 0.9714(6) 0.8304(4) 0.5139(5)
C16 C 0.9769(6) 0.7069(4) 0.4341(5)
C17 C 0.9637(6) 0.7471(3) 0.5119(5)
H12 H 0.9496 0.7187 0.5633
C18 C 0.9622(7) 0.8734(4) 0.5983(5)
C19 C 1.0000(6) 0.8765(4) 0.2730(4)
Ni1_2 Ni -0.01458(7) 0.95990(4) 0.13291(6)
Ni1_3 Ni 1.98542(7) 0.95990(4) 0.13291(6)
Ni1A Ni 1.01458(7) 0.45990(4) 0.36709(6)
Ni1C Ni 0.98542(7) 0.54010(4) 0.63291(6)
Ni1A_2 Ni 1.01458(7) 1.45990(4) 0.36709(6)
Ni1B Ni 1.01458(7) 1.04010(4) -0.13291(6)
N1_2 N 0.1726(5) 0.9560(3) 0.1427(4)
N2_2 N 0.7985(5) 0.9642(3) 0.1245(4)
N2_3 N -0.2015(5) 0.9642(3) 0.1245(4)
O1A O 1.0091(5) 1.3427(3) 0.3021(3)
O1_2 O -0.0091(5) 0.8427(3) 0.1979(3)
O2A O 0.9872(5) 1.4527(2) 0.2225(3)
O2_2 O 0.0128(5) 0.9527(2) 0.2775(3)
O3A O 0.9852(4) 1.0797(2) 0.1237(3)
O3A_2 O -0.0148(4) 1.0797(2) 0.1237(3)
O4A O 1.0566(4) 1.0847(2) -0.0034(3)
O4C O 0.9434(4) 0.9153(2) 0.0034(3)
O4C_2 O -0.0566(4) 0.9153(2) 0.0034(3)
O5A O 1.0918(5) 1.3494(3) -0.1528(4)
O6A O 0.9769(5) 1.4406(3) -0.1062(4)
H1A H 0.9692 1.4588 -0.1596
C1_2 C 0.2227(6) 0.8980(4) 0.1026(5)
H2_2 H 0.1728 0.8541 0.0772
C2_2 C 0.2449(6) 1.0164(4) 0.1799(5)
H3_2 H 0.2116 1.0577 0.2100
C3_2 C 0.3427(6) 0.8986(4) 0.0963(5)
H4_2 H 0.3743 0.8559 0.0673
C4_2 C 0.3674(6) 1.0212(4) 0.1761(5)
H5_2 H 0.4162 1.0649 0.2034
C5_2 C 0.4170(7) 0.9622(4) 0.1328(5)
C6_2 C 0.5488(6) 0.9628(4) 0.1286(4)
C7_2 C 0.6001(7) 0.9023(5) 0.0889(8)
H6_2 H 0.5516 0.8582 0.0620
C8_2 C 0.6248(7) 1.0258(4) 0.1632(7)
H7_2 H 0.5935 1.0706 0.1888
C9_2 C 0.7235(7) 0.9055(5) 0.0881(7)
H8_2 H 0.7562 0.8629 0.0597
C10_2 C 0.7485(7) 1.0231(4) 0.1604(7)
H9_2 H 0.7993 1.0665 0.1860
C11A C 1.0220(6) 1.1160(3) 0.0621(4)
C12A C 1.0079(6) 1.3309(4) 0.1433(5)
C13A C 1.0144(6) 1.3713(4) 0.0642(4)
H10A H 1.0091 1.4278 0.0629
C14A C 1.0095(6) 1.2473(3) 0.1438(4)
H11A H 1.0013 1.2188 0.1969
C15A C 1.0286(6) 1.3304(4) -0.0139(5)
C16A C 1.0231(6) 1.2069(4) 0.0659(5)
C17A C 1.0363(6) 1.2471(3) -0.0119(5)
H12A H 1.0504 1.2187 -0.0633
C18A C 1.0378(7) 1.3734(4) -0.0983(5)
C19A C 1.0000(6) 1.3765(4) 0.2270(4)
C20 C 0.5062(7) 0.1775(5) 0.3764(6)
H13 H 0.5502 0.1536 0.4320
C21 C 0.5695(8) 0.2032(4) 0.3104(7)
C22 C 0.3830(9) 0.1867(5) 0.3608(7)
H14 H 0.3420 0.1695 0.4061
C23 C 0.6978(8) 0.1958(5) 0.3242(7)
H15 H 0.7443 0.1735 0.3800
C24 C 0.7551(9) 0.2199(5) 0.2595(8)
H16 H 0.8414 0.2145 0.2705
C25 C 0.5010(8) 0.2371(5) 0.2260(6)
C26 C 0.5670(10) 0.2617(6) 0.1603(7)
H17 H 0.5239 0.2847 0.1038
C27 C 0.3734(9) 0.2470(6) 0.2136(8)
H18 H 0.3272 0.2716 0.1592
C28 C 0.6899(11) 0.2528(6) 0.1766(9)
H19 H 0.7319 0.2691 0.1316
C29 C 0.3156(9) 0.2211(6) 0.2797(7)
H20 H 0.2294 0.2266 0.2700
C30 C 0.5261(9) 0.0189(5) 0.5429(6)
C31 C 0.4506(12) 0.0387(6) 0.6027(8)
H21 H 0.4846 0.0624 0.6608
C32 C 0.6540(11) 0.0325(6) 0.5654(9)
H22 H 0.6915 0.0570 0.6224
C33 C 0.7226(10) 0.0113(8) 0.5075(13)
H23 H 0.8084 0.0203 0.5244
C34 C 0.3291(15) 0.0236(8) 0.5764(13)
H24 H 0.2782 0.0372 0.6165
C30B C 0.4739(9) -0.0189(5) 0.4571(6)
C31B C 0.5494(12) -0.0387(6) 0.3973(8)
H21B H 0.5154 -0.0624 0.3392
C32B C 0.3460(11) -0.0325(6) 0.4346(9)
H22B H 0.3085 -0.0570 0.3776
C33B C 0.2774(10) -0.0113(8) 0.4925(13)
H23B H 0.1916 -0.0203 0.4756
C34B C 0.6709(15) -0.0236(8) 0.4236(13)
H24B H 0.7218 -0.0372 0.3835
loop_
_geom_bond_atom_site_label_1
_geom_bond_atom_site_label_2
_geom_bond_site_symmetry_1
_geom_bond_site_symmetry_2
Ni1 N1 1_555 1_555
N1 C1 1_555 1_555
N2 C9 1_555 1_555
O1 Ni1 1_555 1_555
O2 Ni1 1_555 1_555
O3 C11 1_555 1_555
O4 C11 1_555 1_555
O5 C18 1_555 1_555
O6 H1 1_555 1_555
C1 H2 1_555 1_555
C2 N1 1_555 1_555
H3 C2 1_555 1_555
C3 C1 1_555 1_555
H4 C3 1_555 1_555
C4 C2 1_555 1_555
H5 C4 1_555 1_555
C5 C3 1_555 1_555
C6 C5 1_555 1_555
C7 C6 1_555 1_555
H6 C7 1_555 1_555
C8 C6 1_555 1_555
H7 C8 1_555 1_555
C9 C7 1_555 1_555
H8 C9 1_555 1_555
C10 N2 1_555 1_555
H9 C10 1_555 1_555
C11 C16 1_555 1_555
C12 C13 1_555 1_555
C13 H10 1_555 1_555
C14 C12 1_555 1_555
H11 C14 1_555 1_555
C15 C13 1_555 1_555
C16 C14 1_555 1_555
C17 C15 1_555 1_555
H12 C17 1_555 1_555
C18 O6 1_555 1_555
C19 O1 1_555 1_555
C20 H13 1_555 1_555
C21 C20 1_555 1_555
C22 C20 1_555 1_555
H14 C22 1_555 1_555
C23 C21 1_555 1_555
H15 C23 1_555 1_555
C24 C23 1_555 1_555
H16 C24 1_555 1_555
C25 C21 1_555 1_555
C26 C25 1_555 1_555
H17 C26 1_555 1_555
C27 C25 1_555 1_555
H18 C27 1_555 1_555
C28 C24 1_555 1_555
H19 C28 1_555 1_555
C29 C22 1_555 1_555
H20 C29 1_555 1_555
C30 C31 1_555 1_555
C31 H21 1_555 1_555
C32 C30 1_555 1_555
H22 C32 1_555 1_555
C33 C32 1_555 1_555
H23 C33 1_555 1_555
C34 C31 1_555 1_555
H24 C34 1_555 1_555
Ni1_2 N1_2 1_555 1_555
Ni1_3 N2 1_555 1_555
Ni1A O3 1_555 1_555
Ni1C O4 1_555 1_555
Ni1A_2 O1A 1_555 1_555
Ni1B O4A 1_555 1_555
N1_2 C1_2 1_555 1_555
N2_2 Ni1 1_555 1_555
N2_3 Ni1_2 1_555 1_555
O1A C19A 1_555 1_555
O1_2 Ni1_2 1_555 1_555
O2A Ni1A_2 1_555 1_555
O2_2 Ni1_2 1_555 1_555
O3A Ni1 1_555 1_555
O3A_2 Ni1_2 1_555 1_555
O4A C11A 1_555 1_555
O4C Ni1 1_555 1_555
O4C_2 Ni1_2 1_555 1_555
O5A C18A 1_555 1_555
O6A H1A 1_555 1_555
C1_2 H2_2 1_555 1_555
C2_2 N1_2 1_555 1_555
H3_2 C2_2 1_555 1_555
C3_2 C1_2 1_555 1_555
H4_2 C3_2 1_555 1_555
C4_2 C2_2 1_555 1_555
H5_2 C4_2 1_555 1_555
C5_2 C3_2 1_555 1_555
C6_2 C5_2 1_555 1_555
C7_2 C6_2 1_555 1_555
H6_2 C7_2 1_555 1_555
C8_2 C6_2 1_555 1_555
H7_2 C8_2 1_555 1_555
C9_2 N2_2 1_555 1_555
H8_2 C9_2 1_555 1_555
C10_2 N2_2 1_555 1_555
H9_2 C10_2 1_555 1_555
C11A O3A 1_555 1_555
C12A C13A 1_555 1_555
C13A H10A 1_555 1_555
C14A C12A 1_555 1_555
H11A C14A 1_555 1_555
C15A C13A 1_555 1_555
C16A C11A 1_555 1_555
C17A C15A 1_555 1_555
H12A C17A 1_555 1_555
C18A O6A 1_555 1_555
C19A O2A 1_555 1_555
C30B C30 1_555 1_555
C31B C30B 1_555 1_555
H21B C31B 1_555 1_555
C32B C30B 1_555 1_555
H22B C32B 1_555 1_555
C33B C34 1_555 1_555
H23B C33B 1_555 1_555
C34B C33 1_555 1_555
H24B C34B 1_555 1_555
O2 C19 1_555 1_555
C4 C5 1_555 1_555
C8 C10 1_555 1_555
C12 C19 1_555 1_555
C15 C18 1_555 1_555
C16 C17 1_555 1_555
C26 C28 1_555 1_555
C27 C29 1_555 1_555
C4_2 C5_2 1_555 1_555
C7_2 C9_2 1_555 1_555
C8_2 C10_2 1_555 1_555
C12A C19A 1_555 1_555
C14A C16A 1_555 1_555
C15A C18A 1_555 1_555
C16A C17A 1_555 1_555
C31B C34B 1_555 1_555
C32B C33B 1_555 1_555

#END
