
#######################################################################
#
#                 Cambridge Crystallographic Data Centre
#                                CCDC 
#
#######################################################################
#
# If this CIF has been generated from an entry in the Cambridge 
# Structural Database, then it will include bibliographic, chemical, 
# crystal, experimental, refinement or atomic coordinate data resulting 
# from the CCDC's data processing and validation procedures.
#
#######################################################################

data_NIXFUX
_chemical_formula_moiety         '(C51 H49 Cd1 N3 O9)n'
_symmetry_cell_setting           tetragonal
_symmetry_space_group_name_H-M   'P 43 21 2'
_symmetry_Int_Tables_number      96
_space_group_name_Hall           'P 4nw 2abw'
loop_
_symmetry_equiv_pos_site_id
_symmetry_equiv_pos_as_xyz
1 x,y,z
2 1/2-y,1/2+x,3/4+z
3 -x,-y,1/2+z
4 1/2+y,1/2-x,1/4+z
5 1/2+x,1/2-y,1/4-z
6 1/2-x,1/2+y,3/4-z
7 y,x,-z
8 -y,-x,1/2-z
_cell_length_a                   15.8642(4)
_cell_length_b                   15.8642(4)
_cell_length_c                   42.9758(15)
_cell_angle_alpha                90
_cell_angle_beta                 90
_cell_angle_gamma                90
_cell_volume                     10815.8
loop_
_atom_site_label
_atom_site_type_symbol
_atom_site_fract_x
_atom_site_fract_y
_atom_site_fract_z
_atom_site_U_iso_or_equiv
_atom_site_thermal_displace_type
O9 O -0.0330(9) 0.7712(8) 0.6429(3) 0.1170 Uani
N5 N -0.0148(5) 0.6359(5) 0.6456(2) 0.1170 Uani
C61 C 0.0170(10) 0.7128(9) 0.6408(5) 0.1170 Uani
C62 C -0.1032(9) 0.6258(13) 0.6475(5) 0.1170 Uani
C63 C 0.0405(7) 0.5655(6) 0.6428(3) 0.1170 Uani
Cd1 Cd 0.08234(2) 0.78153(2) 0.781379(9) 0.0572 Uani
O1 O 0.2317(3) 0.3921(3) 0.69186(14) 0.0877 Uani
O2 O 0.2289(3) 0.3720(3) 0.62515(10) 0.0797 Uani
H1 H 0.2577 0.3755 0.6415 0.0960 Uiso
O3 O 0.0684(4) 0.2829(3) 0.62139(13) 0.1147 Uani
O4 O 0.0693(3) 0.3314(2) 0.68311(10) 0.0668 Uani
H2 H 0.0534 0.3020 0.6680 0.0800 Uiso
O5 O 0.1183(3) 0.7585(3) 0.73113(11) 0.0753 Uani
O6 O 0.2291(3) 0.7868(3) 0.70201(11) 0.0800 Uani
O7 O -0.2311(2) 0.5209(2) 0.57791(9) 0.0617 Uani
O8 O -0.1426(2) 0.5321(3) 0.53840(9) 0.0655 Uani
N1 N 0.0586(7) 0.9215(10) 0.7929(3) 0.0558 Uani
N2 N -0.0479(8) 0.8006(5) 0.7614(3) 0.0558 Uani
C1 C 0.2718(5) 0.5160(5) 0.62355(19) 0.0857 Uani
C2 C 0.3182(5) 0.5103(6) 0.6526(2) 0.0957 Uani
H3 H 0.3681 0.5477 0.6519 0.1150 Uiso
H4 H 0.3379 0.4518 0.6559 0.1150 Uiso
C3 C 0.2602(4) 0.5369(4) 0.67933(17) 0.0733 Uani
C4 C 0.2492(4) 0.6199(4) 0.68559(16) 0.0693 Uani
H5 H 0.2822 0.6607 0.6749 0.0830 Uiso
C5 C 0.1901(4) 0.6460(4) 0.70748(14) 0.0657 Uani
C6 C 0.1420(4) 0.5857(4) 0.72279(13) 0.0670 Uani
H6 H 0.0993 0.6030 0.7369 0.0800 Uiso
C7 C 0.1554(4) 0.5020(4) 0.71772(14) 0.0670 Uani
C8 C 0.0995(5) 0.4375(4) 0.73458(15) 0.0783 Uani
H7 H 0.1282 0.3821 0.7346 0.0940 Uiso
H8 H 0.0922 0.4553 0.7565 0.0940 Uiso
C9 C 0.0125(4) 0.4276(4) 0.71960(13) 0.0647 Uani
C10 C -0.0556(6) 0.4733(5) 0.73062(15) 0.0913 Uani
H9 H -0.0488 0.5108 0.7477 0.1090 Uiso
C11 C -0.1333(6) 0.4639(8) 0.7167(2) 0.1257 Uani
H10 H -0.1801 0.4951 0.7243 0.1510 Uiso
C12 C -0.1438(5) 0.4112(7) 0.69245(18) 0.1053 Uani
H11 H -0.1984 0.4040 0.6837 0.1270 Uiso
C13 C -0.0761(4) 0.3670(4) 0.67992(14) 0.0683 Uani
C14 C -0.0895(6) 0.3094(4) 0.65299(17) 0.0887 Uani
H12 H -0.1495 0.2926 0.6519 0.1060 Uiso
H13 H -0.0551 0.2579 0.6556 0.1060 Uiso
C15 C -0.0640(5) 0.3549(4) 0.62252(15) 0.0797 Uani
C16 C -0.1182(4) 0.4096(3) 0.60862(13) 0.0640 Uani
H14 H -0.1723 0.4181 0.6175 0.0760 Uiso
C17 C -0.0969(4) 0.4537(3) 0.58166(12) 0.0570 Uani
C18 C -0.0170(4) 0.4448(4) 0.57034(14) 0.0720 Uani
H15 H 0.0009 0.4784 0.5533 0.0860 Uiso
C19 C 0.0392(5) 0.3866(5) 0.58356(15) 0.0857 Uani
C20 C 0.1308(6) 0.3866(8) 0.57113(18) 0.1197 Uani
H16 H 0.1581 0.3326 0.5768 0.1440 Uiso
H17 H 0.1295 0.3902 0.5481 0.1440 Uiso
C21 C 0.1809(6) 0.4553(7) 0.58314(18) 0.1017 Uani
C22 C 0.1815(6) 0.5360(9) 0.5691(2) 0.1183 Uani
H18 H 0.1529 0.5429 0.5499 0.1420 Uiso
C23 C 0.2214(9) 0.6052(8) 0.5818(3) 0.1293 Uani
H19 H 0.2169 0.6591 0.5723 0.1550 Uiso
C24 C 0.2676(7) 0.5941(5) 0.6085(3) 0.1213 Uani
H20 H 0.2976 0.6406 0.6170 0.1460 Uiso
C25 C 0.2264(4) 0.4484(4) 0.61096(14) 0.0737 Uani
C26 C 0.0154(5) 0.3437(4) 0.60845(15) 0.0787 Uani
C27 C 0.0029(4) 0.3759(3) 0.69441(13) 0.0590 Uani
C28 C 0.2163(4) 0.4782(4) 0.69679(15) 0.0710 Uani
C29 C 0.1767(4) 0.7371(3) 0.71425(14) 0.0647 Uani
C30 C -0.1598(3) 0.5067(3) 0.56547(12) 0.0573 Uani
C31 C 0.0657(11) 0.2037(6) 0.6054(3) 0.1887 Uani
H21 H 0.0693 0.2117 0.5826 0.2270 Uiso
H22 H 0.0132 0.1727 0.6104 0.2270 Uiso
C32 C 0.1478(6) 0.1539(7) 0.6185(3) 0.1273 Uani
H23 H 0.1619 0.1041 0.6056 0.1530 Uiso
H24 H 0.1976 0.1912 0.6202 0.1530 Uiso
C33 C 0.1155(11) 0.1304(7) 0.6485(3) 0.1530 Uani
H25 H 0.1491 0.1574 0.6648 0.2290 Uiso
H26 H 0.1186 0.0690 0.6509 0.2290 Uiso
H27 H 0.0567 0.1487 0.6503 0.2290 Uiso
C34 C 0.3014(4) 0.3622(4) 0.71002(17) 0.0780 Uani
H28 H 0.2860 0.3609 0.7323 0.0940 Uiso
H29 H 0.3504 0.4002 0.7075 0.0940 Uiso
C35 C 0.3233(5) 0.2758(5) 0.69913(19) 0.0873 Uani
H30 H 0.3385 0.2774 0.6768 0.1050 Uiso
H31 H 0.2740 0.2381 0.7016 0.1050 Uiso
C36 C 0.3970(5) 0.2422(6) 0.7180(3) 0.1257 Uani
H32 H 0.4489 0.2709 0.7116 0.1880 Uiso
H33 H 0.4029 0.1815 0.7144 0.1880 Uiso
H34 H 0.3869 0.2525 0.7402 0.1880 Uiso
C37 C 0.0886(7) 0.9771(8) 0.8065(3) 0.0558 Uani
H35 H 0.1433 0.9648 0.8142 0.0670 Uiso
C38 C 0.0608(9) 1.0602(7) 0.8140(3) 0.0558 Uani
H36 H 0.0946 1.1001 0.8247 0.0670 Uiso
C39 C -0.0219(8) 1.0770(8) 0.8038(3) 0.0558 Uani
H37 H -0.0457 1.1308 0.8079 0.0670 Uiso
C40 C -0.0667(8) 1.0211(7) 0.7889(3) 0.0558 Uani
C41 C -0.0365(8) 0.9393(7) 0.7828(3) 0.0558 Uani
C42 C -0.0845(8) 0.8789(7) 0.7658(3) 0.0558 Uani
C43 C -0.0948(7) 0.7413(7) 0.7457(3) 0.0558 Uani
H38 H -0.0723 0.6863 0.7431 0.0670 Uiso
C44 C -0.1721(7) 0.7587(8) 0.7338(3) 0.0558 Uani
H39 H -0.2008 0.7189 0.7212 0.0670 Uiso
C45 C -0.2086(8) 0.8373(9) 0.7407(3) 0.0558 Uani
H40 H -0.2654 0.8476 0.7347 0.0670 Uiso
C46 C -0.1656(9) 0.8984(7) 0.7556(3) 0.0558 Uani
C47 C -0.1988(7) 0.9803(7) 0.7625(3) 0.0558 Uani
H41 H -0.2545 0.9936 0.7560 0.0670 Uiso
C48 C -0.1524(9) 1.0406(8) 0.7782(3) 0.0558 Uani
H42 H -0.1760 1.0946 0.7821 0.0670 Uiso
Cd1A Cd -0.28153(2) 0.58234(2) 0.531379(9) 0.0572 Uani
Cd1G Cd 0.21847(2) 0.91766(2) 0.718621(9) 0.0572 Uani
O6G O 0.2132(3) 0.7709(3) 0.79799(11) 0.0800 Uani
O7C O 0.0209(2) 0.7311(2) 0.82791(9) 0.0617 Uani
O8C O 0.0321(3) 0.6426(2) 0.78840(9) 0.0655 Uani
loop_
_atom_site_aniso_label
_atom_site_aniso_U_11
_atom_site_aniso_U_22
_atom_site_aniso_U_33
_atom_site_aniso_U_23
_atom_site_aniso_U_13
_atom_site_aniso_U_12
O9 0.112(3) 0.118(3) 0.121(3) -0.006(3) -0.001(3) 0.018(3)
N5 0.112(3) 0.118(3) 0.121(3) -0.006(3) -0.001(3) 0.018(3)
C61 0.112(3) 0.118(3) 0.121(3) -0.006(3) -0.001(3) 0.018(3)
C62 0.112(3) 0.118(3) 0.121(3) -0.006(3) -0.001(3) 0.018(3)
C63 0.112(3) 0.118(3) 0.121(3) -0.006(3) -0.001(3) 0.018(3)
Cd1 0.0561(2) 0.0510(2) 0.0646(2) 0.00374(16) 0.00511(17) -0.00820(14)
O1 0.079(3) 0.065(2) 0.119(4) 0.010(2) -0.030(3) 0.000(2)
O2 0.089(3) 0.085(3) 0.065(2) 0.012(2) -0.003(2) 0.033(2)
O3 0.173(6) 0.077(3) 0.094(3) -0.008(3) -0.057(4) 0.065(4)
O4 0.070(2) 0.0565(19) 0.074(2) 0.0000(17) -0.0115(19) 0.0085(17)
O5 0.084(3) 0.069(2) 0.073(2) -0.0066(19) 0.014(2) -0.006(2)
O6 0.082(3) 0.066(2) 0.092(3) 0.003(2) 0.026(2) -0.015(2)
O7 0.063(2) 0.059(2) 0.063(2) 0.0062(16) 0.0040(17) 0.0061(15)
O8 0.0536(18) 0.081(2) 0.062(2) 0.0165(18) -0.0031(16) 0.0139(17)
N1 0.0594 0.0491 0.059 0.0047 0.0086 -0.0045
N2 0.0594 0.0491 0.059 0.0047 0.0086 -0.0045
C1 0.074(4) 0.087(4) 0.096(5) 0.023(4) 0.040(4) 0.023(3)
C2 0.061(4) 0.103(5) 0.123(6) -0.019(5) 0.007(4) 0.025(4)
C3 0.054(3) 0.074(4) 0.092(4) 0.007(3) 0.006(3) 0.006(3)
C4 0.061(3) 0.057(3) 0.090(4) 0.003(3) 0.013(3) -0.009(2)
C5 0.072(3) 0.058(3) 0.067(3) 0.009(2) 0.010(3) -0.010(2)
C6 0.068(3) 0.072(3) 0.061(3) 0.004(3) 0.008(2) -0.011(3)
C7 0.076(3) 0.060(3) 0.065(3) 0.017(3) -0.008(3) -0.006(2)
C8 0.101(5) 0.072(4) 0.062(3) 0.016(3) -0.005(3) -0.021(3)
C9 0.080(3) 0.064(3) 0.050(3) 0.015(3) 0.000(3) 0.000(3)
C10 0.124(6) 0.099(5) 0.051(3) 0.015(3) 0.025(4) 0.035(4)
C11 0.095(6) 0.197(11) 0.085(6) 0.026(6) 0.015(5) 0.072(7)
C12 0.076(4) 0.176(9) 0.064(4) 0.034(5) -0.003(3) 0.021(5)
C13 0.070(3) 0.068(3) 0.067(3) 0.026(3) 0.001(3) 0.003(3)
C14 0.128(6) 0.052(3) 0.086(4) 0.031(3) -0.039(4) -0.031(3)
C15 0.120(6) 0.056(3) 0.063(3) 0.008(3) -0.023(4) 0.003(3)
C16 0.083(4) 0.048(3) 0.061(3) 0.006(2) -0.016(3) -0.001(2)
C17 0.075(3) 0.044(2) 0.052(3) 0.0039(19) 0.007(2) 0.008(2)
C18 0.081(4) 0.078(4) 0.057(3) 0.007(3) -0.002(3) 0.025(3)
C19 0.098(5) 0.100(5) 0.059(4) -0.021(3) -0.020(3) 0.045(4)
C20 0.108(6) 0.192(11) 0.059(4) -0.019(5) -0.015(4) 0.085(7)
C21 0.091(5) 0.146(7) 0.068(4) 0.018(5) 0.015(4) 0.061(5)
C22 0.100(6) 0.169(11) 0.086(5) 0.068(7) 0.041(5) 0.063(7)
C23 0.148(9) 0.110(7) 0.130(8) 0.065(7) 0.070(8) 0.058(7)
C24 0.132(7) 0.088(5) 0.144(8) 0.040(5) 0.092(7) 0.021(5)
C25 0.070(3) 0.086(4) 0.065(3) 0.012(3) 0.012(3) 0.021(3)
C26 0.105(5) 0.065(3) 0.066(4) -0.008(3) -0.030(3) 0.031(3)
C27 0.072(3) 0.047(2) 0.058(3) 0.013(2) 0.012(2) 0.000(2)
C28 0.067(3) 0.063(3) 0.083(4) 0.018(3) -0.001(3) 0.008(3)
C29 0.072(3) 0.057(3) 0.065(3) -0.007(2) 0.019(3) -0.007(2)
C30 0.062(3) 0.056(3) 0.054(3) 0.007(2) -0.002(2) 0.000(2)
C31 0.312(19) 0.075(5) 0.179(11) -0.045(6) -0.148(13) 0.091(9)
C32 0.098(6) 0.111(7) 0.173(10) -0.008(7) 0.033(6) 0.044(5)
C33 0.232(16) 0.100(7) 0.127(8) 0.018(6) 0.047(9) 0.038(8)
C34 0.068(3) 0.081(4) 0.085(4) 0.002(3) -0.013(3) 0.021(3)
C35 0.082(4) 0.077(4) 0.103(5) -0.023(4) -0.027(4) 0.037(3)
C36 0.076(4) 0.096(5) 0.205(11) -0.009(7) -0.028(6) 0.039(4)
C37 0.0594 0.0491 0.059 0.0047 0.0086 -0.0045
C38 0.0594 0.0491 0.059 0.0047 0.0086 -0.0045
C39 0.0594 0.0491 0.059 0.0047 0.0086 -0.0045
C40 0.0594 0.0491 0.059 0.0047 0.0086 -0.0045
C41 0.0594 0.0491 0.059 0.0047 0.0086 -0.0045
C42 0.0594 0.0491 0.059 0.0047 0.0086 -0.0045
C43 0.0594 0.0491 0.059 0.0047 0.0086 -0.0045
C44 0.0594 0.0491 0.059 0.0047 0.0086 -0.0045
C45 0.0594 0.0491 0.059 0.0047 0.0086 -0.0045
C46 0.0594 0.0491 0.059 0.0047 0.0086 -0.0045
C47 0.0594 0.0491 0.059 0.0047 0.0086 -0.0045
C48 0.0594 0.0491 0.059 0.0047 0.0086 -0.0045
Cd1A 0.051 0.0561 0.0646 0.00511 -0.00374 0.0082
Cd1G 0.051 0.0561 0.0646 0.00511 0.00374 -0.0082
O6G 0.066 0.082 0.092 0.026 0.003 -0.015
O7C 0.059 0.063 0.063 -0.004 0.0062 -0.0061
O8C 0.081 0.0536 0.062 0.0031 0.0165 -0.0139
loop_
_geom_bond_atom_site_label_1
_geom_bond_atom_site_label_2
_geom_bond_site_symmetry_1
_geom_bond_site_symmetry_2
Cd1 O5 1_555 1_555
O1 C28 1_555 1_555
O2 H1 1_555 1_555
O3 C26 1_555 1_555
O4 H2 1_555 1_555
O5 C29 1_555 1_555
O6 C29 1_555 1_555
O7 C30 1_555 1_555
O8 C30 1_555 1_555
N1 Cd1 1_555 1_555
N2 Cd1 1_555 1_555
C1 C2 1_555 1_555
C2 H3 1_555 1_555
H4 C2 1_555 1_555
C3 C2 1_555 1_555
C4 C3 1_555 1_555
H5 C4 1_555 1_555
C5 C4 1_555 1_555
C6 C5 1_555 1_555
H6 C6 1_555 1_555
C7 C6 1_555 1_555
C8 C7 1_555 1_555
H7 C8 1_555 1_555
H8 C8 1_555 1_555
C9 C8 1_555 1_555
C10 C9 1_555 1_555
H9 C10 1_555 1_555
C11 C10 1_555 1_555
H10 C11 1_555 1_555
C12 C11 1_555 1_555
H11 C12 1_555 1_555
C13 C12 1_555 1_555
C14 C13 1_555 1_555
H12 C14 1_555 1_555
H13 C14 1_555 1_555
C15 C14 1_555 1_555
C16 C15 1_555 1_555
H14 C16 1_555 1_555
C17 C16 1_555 1_555
C18 C17 1_555 1_555
H15 C18 1_555 1_555
C19 C18 1_555 1_555
C20 C19 1_555 1_555
H16 C20 1_555 1_555
H17 C20 1_555 1_555
C21 C20 1_555 1_555
C22 C21 1_555 1_555
H18 C22 1_555 1_555
C23 C22 1_555 1_555
H19 C23 1_555 1_555
C24 C1 1_555 1_555
H20 C24 1_555 1_555
C25 O2 1_555 1_555
C26 C15 1_555 1_555
C27 O4 1_555 1_555
C28 C3 1_555 1_555
C29 C5 1_555 1_555
C30 C17 1_555 1_555
C31 O3 1_555 1_555
H21 C31 1_555 1_555
H22 C31 1_555 1_555
C32 C31 1_555 1_555
H23 C32 1_555 1_555
H24 C32 1_555 1_555
C33 C32 1_555 1_555
H25 C33 1_555 1_555
H26 C33 1_555 1_555
H27 C33 1_555 1_555
C34 O1 1_555 1_555
H28 C34 1_555 1_555
H29 C34 1_555 1_555
C35 C34 1_555 1_555
H30 C35 1_555 1_555
H31 C35 1_555 1_555
C36 C35 1_555 1_555
H32 C36 1_555 1_555
H33 C36 1_555 1_555
H34 C36 1_555 1_555
C37 N1 1_555 1_555
H35 C37 1_555 1_555
C38 C37 1_555 1_555
H36 C38 1_555 1_555
C39 C38 1_555 1_555
H37 C39 1_555 1_555
C40 C39 1_555 1_555
C41 N1 1_555 1_555
C42 N2 1_555 1_555
C43 N2 1_555 1_555
H38 C43 1_555 1_555
C44 C43 1_555 1_555
H39 C44 1_555 1_555
C45 C44 1_555 1_555
H40 C45 1_555 1_555
C46 C42 1_555 1_555
C47 C46 1_555 1_555
H41 C47 1_555 1_555
C48 C40 1_555 1_555
H42 C48 1_555 1_555
O9 C61 1_555 1_555
N5 C61 1_555 1_555
C62 N5 1_555 1_555
C63 N5 1_555 1_555
Cd1A O7 1_555 1_555
Cd1G O6 1_555 1_555
O6G Cd1 1_555 1_555
O7C Cd1 1_555 1_555
O8C Cd1 1_555 1_555
O8 Cd1A 1_555 1_555
C1 C25 1_555 1_555
C7 C28 1_555 1_555
C9 C27 1_555 1_555
C13 C27 1_555 1_555
C19 C26 1_555 1_555
C21 C25 1_555 1_555
C23 C24 1_555 1_555
C40 C41 1_555 1_555
C41 C42 1_555 1_555
C45 C46 1_555 1_555
C47 C48 1_555 1_555

#END
