
#######################################################################
#
#                 Cambridge Crystallographic Data Centre
#                                CCDC 
#
#######################################################################
#
# If this CIF has been generated from an entry in the Cambridge 
# Structural Database, then it will include bibliographic, chemical, 
# crystal, experimental, refinement or atomic coordinate data resulting 
# from the CCDC's data processing and validation procedures.
#
#######################################################################

data_RAYMAG
_chemical_formula_moiety         '(C58 H54 Co3 N6 O16)n'
_symmetry_cell_setting           triclinic
_symmetry_space_group_name_H-M   'P -1'
_symmetry_Int_Tables_number      2
_space_group_name_Hall           '-P 1'
loop_
_symmetry_equiv_pos_site_id
_symmetry_equiv_pos_as_xyz
1 x,y,z
2 -x,-y,-z
_cell_length_a                   10.0196(7)
_cell_length_b                   13.5634(10)
_cell_length_c                   17.5811(13)
_cell_angle_alpha                71.9680(10)
_cell_angle_beta                 83.6250(10)
_cell_angle_gamma                78.8330(10)
_cell_volume                     2225.56
loop_
_atom_site_label
_atom_site_type_symbol
_atom_site_fract_x
_atom_site_fract_y
_atom_site_fract_z
Co1 Co 0.19972(3) 0.49180(2) 0.429776(17)
Co2 Co 1.0000 0.5000 0.0000
C1 C 0.5769(2) 0.49590(18) 0.32909(13)
C2 C 0.6750(2) 0.50837(17) 0.37372(13)
H1 H 0.6519 0.5124 0.4255
C3 C 0.8068(2) 0.51485(17) 0.34194(13)
C4 C 0.8424(2) 0.50611(18) 0.26556(13)
H2 H 0.9318 0.5076 0.2449
C5 C 0.7441(2) 0.4951(2) 0.21942(14)
C6 C 0.6112(2) 0.4913(2) 0.25157(14)
H3 H 0.5450 0.4856 0.2208
C7 C 0.4353(2) 0.49027(17) 0.36512(14)
C8 C 0.7814(3) 0.4884(2) 0.13579(15)
O1 O 0.33597(15) 0.51913(14) 0.32025(9)
O2 O 0.41661(14) 0.45963(12) 0.43965(9)
O3 O 0.90514(16) 0.47867(14) 0.11373(9)
O4 O 0.68499(19) 0.4975(2) 0.09192(11)
C9 C 0.3088(3) 0.6847(2) 0.44122(19)
H4 H 0.3924 0.6409 0.4403
C10 C 0.3075(3) 0.7836(2) 0.4477(2)
H5 H 0.3891 0.8046 0.4512
C11 C 0.1862(3) 0.8516(2) 0.44909(18)
C12 C 0.0701(3) 0.8129(2) 0.4456(2)
H6 H -0.0149 0.8546 0.4474
C13 C 0.0792(3) 0.7130(2) 0.43927(19)
H7 H -0.0010 0.6894 0.4370
C14 C 0.1762(3) 0.9609(2) 0.4552(2)
H8 H 0.1451 0.9605 0.5095
H9 H 0.1073 1.0072 0.4199
C15 C 0.3070(3) 1.0063(2) 0.4343(3)
H10 H 0.3733 0.9663 0.4735
H11 H 0.3444 1.0008 0.3822
N1 N 0.19644(19) 0.64846(15) 0.43621(11)
C16 C 0.1869(3) 1.3012(2) 0.37283(18)
H12 H 0.1407 1.3521 0.3312
C17 C 0.2151(4) 1.1981(3) 0.3711(2)
H13 H 0.1900 1.1810 0.3280
C18 C 0.2807(3) 1.1205(2) 0.4330(2)
C19 C 0.3157(3) 1.1507(2) 0.4944(2)
H14 H 0.3594 1.1010 0.5376
C20 C 0.2859(2) 1.2553(2) 0.49196(18)
H15 H 0.3109 1.2741 0.5343
N2 N 0.22351(19) 1.33046(15) 0.43229(12)
C21 C 0.9073(5) 0.2863(4) 0.0441(3)
H16 H 0.8295 0.3226 0.0637
C22 C 0.9124(6) 0.1814(4) 0.0520(3)
H17 H 0.8401 0.1482 0.0781
C23 C 1.1298(5) 0.1756(4) -0.0114(3)
H18 H 1.2095 0.1399 -0.0297
C24 C 1.1192(5) 0.2803(4) -0.0176(3)
H19 H 1.1923 0.3139 -0.0420
C29 C 1.0247(5) 0.1247(3) 0.0212(3)
C30 C 1.0316(7) 0.0083(4) 0.0279(3)
H24 H 1.1265 -0.0240 0.0252
H25 H 0.9922 -0.0264 0.0799
N3 N 1.0091(2) 0.33774(18) 0.00969(13)
C31 C 1.2378(7) 0.3933(6) 0.1213(4)
H26 H 1.2614 0.3253 0.1116
H27 H 1.1631 0.3887 0.1616
C33 C 1.3506(5) 0.4097(5) 0.1545(3)
O5 O 1.18993(18) 0.46590(17) 0.05145(11)
H30 H 1.2375 0.4797 -0.0030
O6 O 1.4645(4) 0.4026(4) 0.0960(2)
H31 H 1.5446 0.4373 0.0944
C34 C 0.9104(2) 0.53099(17) 0.39112(13)
O7 O 1.03239(15) 0.52386(13) 0.36458(9)
O8 O 0.86783(15) 0.55389(12) 0.45422(9)
Co1A Co 1.80028(3) 0.50820(2) -0.429776(17)
Co1_2 Co 0.19972(3) 1.49180(2) 0.429776(17)
Co1_3 Co 1.19972(3) 0.49180(2) 0.429776(17)
Co1A_2 Co 0.80028(3) 0.50820(2) 0.570224(17)
Co1A_3 Co 0.80028(3) 0.50820(2) -0.429776(17)
Co1_4 Co 1.19972(3) 0.49180(2) -0.570224(17)
Co1_5 Co 0.19972(3) -0.50820(2) 0.429776(17)
Co2_2 Co 1.0000 -0.5000 0.0000
C1A C 1.4231(2) 0.50410(18) -0.32909(13)
C2A C 1.3250(2) 0.49163(17) -0.37372(13)
H1A H 1.3481 0.4876 -0.4255
C3A C 1.1932(2) 0.48515(17) -0.34194(13)
C4A C 1.1576(2) 0.49389(18) -0.26556(13)
H2A H 1.0682 0.4924 -0.2449
C5A C 1.2559(2) 0.5049(2) -0.21942(14)
C6A C 1.3888(2) 0.5087(2) -0.25157(14)
H3A H 1.4550 0.5144 -0.2208
C7A C 1.5647(2) 0.50973(17) -0.36512(14)
C8A C 1.2186(3) 0.5116(2) -0.13579(15)
O1A O 1.66403(15) 0.48087(14) -0.32025(9)
O2A O 1.58339(14) 0.54037(12) -0.43965(9)
O3A O 1.09486(16) 0.52133(14) -0.11373(9)
O4A O 1.31501(19) 0.5025(2) -0.09192(11)
C9_2 C 0.3088(3) -0.3153(2) 0.44122(19)
H4_2 H 0.3924 -0.3591 0.4403
C10_2 C 0.3075(3) -0.2164(2) 0.4477(2)
H5_2 H 0.3891 -0.1954 0.4512
C11_2 C 0.1862(3) -0.1484(2) 0.44909(18)
C12_2 C 0.0701(3) -0.1871(2) 0.4456(2)
H6_2 H -0.0149 -0.1454 0.4474
C13_2 C 0.0792(3) -0.2870(2) 0.43927(19)
H7_2 H -0.0010 -0.3106 0.4370
C14_2 C 0.1762(3) -0.0391(2) 0.4552(2)
H8_2 H 0.1451 -0.0395 0.5095
H9_2 H 0.1073 0.0072 0.4199
C15_2 C 0.3070(3) 0.0063(2) 0.4343(3)
H10_2 H 0.3733 -0.0337 0.4735
H11_2 H 0.3444 0.0008 0.3822
N1_2 N 0.19644(19) -0.35154(15) 0.43621(11)
N1A N 1.80356(19) 0.35154(15) -0.43621(11)
C16_2 C 0.1869(3) 0.3012(2) 0.37283(18)
H12_2 H 0.1407 0.3521 0.3312
C17_2 C 0.2151(4) 0.1981(3) 0.3711(2)
H13_2 H 0.1900 0.1810 0.3280
C18_2 C 0.2807(3) 0.1205(2) 0.4330(2)
C19_2 C 0.3157(3) 0.1507(2) 0.4944(2)
H14_2 H 0.3594 0.1010 0.5376
C20_2 C 0.2859(2) 0.2553(2) 0.49196(18)
H15_2 H 0.3109 0.2741 0.5343
N2_2 N 0.22351(19) 0.33046(15) 0.43229(12)
N2A N 1.77649(19) 0.66954(15) -0.43229(12)
C21A C 1.0927(5) -0.2863(4) -0.0441(3)
H16A H 1.1705 -0.3226 -0.0637
C22A C 1.0876(6) -0.1814(4) -0.0520(3)
H17A H 1.1599 -0.1482 -0.0781
C23A C 0.8702(5) -0.1756(4) 0.0114(3)
H18A H 0.7905 -0.1399 0.0297
C24A C 0.8808(5) -0.2803(4) 0.0176(3)
H19A H 0.8077 -0.3139 0.0420
C29A C 0.9753(5) -0.1247(3) -0.0212(3)
C30A C 0.9684(7) -0.0083(4) -0.0279(3)
H24A H 0.8735 0.0240 -0.0252
H25A H 1.0078 0.0264 -0.0799
N3A N 0.9909(2) -0.33774(18) -0.00969(13)
N3A_2 N 0.9909(2) 0.66226(18) -0.00969(13)
C31A C 0.7622(7) 0.6067(6) -0.1213(4)
H26A H 0.7386 0.6747 -0.1116
H27A H 0.8369 0.6113 -0.1616
C33A C 0.6494(5) 0.5903(5) -0.1545(3)
O5A O 0.81007(18) 0.53410(17) -0.05145(11)
H30A H 0.7625 0.5203 0.0030
O6A O 0.5355(4) 0.5974(4) -0.0960(2)
H31A H 0.4554 0.5627 -0.0944
C34A C 1.0896(2) 0.46901(17) -0.39112(13)
O7A O 0.96761(15) 0.47614(13) -0.36458(9)
O7_2 O 0.03239(15) 0.52386(13) 0.36458(9)
O7A_2 O 1.96761(15) 0.47614(13) -0.36458(9)
O8A O 1.13217(15) 0.44611(12) -0.45422(9)
O8A_2 O 0.13217(15) 0.44611(12) 0.54578(9)
O8_2 O 1.86783(15) 0.55389(12) -0.54578(9)
loop_
_geom_bond_atom_site_label_1
_geom_bond_atom_site_label_2
_geom_bond_site_symmetry_1
_geom_bond_site_symmetry_2
Co1 O1 1_555 1_555
Co2 O3 1_555 1_555
C1 C2 1_555 1_555
C2 H1 1_555 1_555
C3 C2 1_555 1_555
C4 C3 1_555 1_555
H2 C4 1_555 1_555
C5 C4 1_555 1_555
C6 C1 1_555 1_555
H3 C6 1_555 1_555
C7 C1 1_555 1_555
C8 C5 1_555 1_555
O1 C7 1_555 1_555
O2 Co1 1_555 1_555
O3 C8 1_555 1_555
O4 C8 1_555 1_555
C9 H4 1_555 1_555
C10 C9 1_555 1_555
H5 C10 1_555 1_555
C11 C10 1_555 1_555
C12 C11 1_555 1_555
H6 C12 1_555 1_555
C13 C12 1_555 1_555
H7 C13 1_555 1_555
C14 C11 1_555 1_555
H8 C14 1_555 1_555
H9 C14 1_555 1_555
C15 C14 1_555 1_555
H10 C15 1_555 1_555
H11 C15 1_555 1_555
N1 Co1 1_555 1_555
C16 H12 1_555 1_555
C17 C16 1_555 1_555
H13 C17 1_555 1_555
C18 C15 1_555 1_555
C19 C18 1_555 1_555
H14 C19 1_555 1_555
C20 C19 1_555 1_555
H15 C20 1_555 1_555
N2 C16 1_555 1_555
C21 H16 1_555 1_555
C22 C21 1_555 1_555
H17 C22 1_555 1_555
C23 H18 1_555 1_555
C24 C23 1_555 1_555
H19 C24 1_555 1_555
C29 C22 1_555 1_555
C30 C29 1_555 1_555
H24 C30 1_555 1_555
H25 C30 1_555 1_555
N3 Co2 1_555 1_555
C31 H26 1_555 1_555
H27 C31 1_555 1_555
C33 C31 1_555 1_555
O5 Co2 1_555 1_555
H30 O5 1_555 1_555
O6 C33 1_555 1_555
H31 O6 1_555 1_555
C34 C3 1_555 1_555
O7 C34 1_555 1_555
O8 C34 1_555 1_555
Co1A O1A 1_555 1_555
Co1_2 N2 1_555 1_555
Co1_3 O7 1_555 1_555
Co1A_2 O8 1_555 1_555
Co1A_3 O7A 1_555 1_555
Co1_4 O8A 1_555 1_555
Co1_5 N1_2 1_555 1_555
Co2_2 N3A 1_555 1_555
C1A C2A 1_555 1_555
C2A H1A 1_555 1_555
C3A C2A 1_555 1_555
C4A C3A 1_555 1_555
H2A C4A 1_555 1_555
C5A C4A 1_555 1_555
C6A C1A 1_555 1_555
H3A C6A 1_555 1_555
C7A C1A 1_555 1_555
C8A C5A 1_555 1_555
O1A C7A 1_555 1_555
O2A Co1A 1_555 1_555
O3A Co2 1_555 1_555
O4A C8A 1_555 1_555
C9_2 H4_2 1_555 1_555
C10_2 C9_2 1_555 1_555
H5_2 C10_2 1_555 1_555
C11_2 C10_2 1_555 1_555
C12_2 C11_2 1_555 1_555
H6_2 C12_2 1_555 1_555
C13_2 C12_2 1_555 1_555
H7_2 C13_2 1_555 1_555
C14_2 C11_2 1_555 1_555
H8_2 C14_2 1_555 1_555
H9_2 C14_2 1_555 1_555
C15_2 C14_2 1_555 1_555
H10_2 C15_2 1_555 1_555
H11_2 C15_2 1_555 1_555
N1_2 C9_2 1_555 1_555
N1A Co1A 1_555 1_555
C16_2 H12_2 1_555 1_555
C17_2 C16_2 1_555 1_555
H13_2 C17_2 1_555 1_555
C18_2 C15_2 1_555 1_555
C19_2 C18_2 1_555 1_555
H14_2 C19_2 1_555 1_555
C20_2 C19_2 1_555 1_555
H15_2 C20_2 1_555 1_555
N2_2 Co1 1_555 1_555
N2A Co1A 1_555 1_555
C21A H16A 1_555 1_555
C22A C21A 1_555 1_555
H17A C22A 1_555 1_555
C23A H18A 1_555 1_555
C24A C23A 1_555 1_555
H19A C24A 1_555 1_555
C29A C22A 1_555 1_555
C30A C30 1_555 1_555
H24A C30A 1_555 1_555
H25A C30A 1_555 1_555
N3A C21A 1_555 1_555
N3A_2 Co2 1_555 1_555
C31A H26A 1_555 1_555
H27A C31A 1_555 1_555
C33A C31A 1_555 1_555
O5A Co2 1_555 1_555
H30A O5A 1_555 1_555
O6A C33A 1_555 1_555
H31A O6A 1_555 1_555
C34A C3A 1_555 1_555
O7A C34A 1_555 1_555
O7_2 Co1 1_555 1_555
O7A_2 Co1A 1_555 1_555
O8A C34A 1_555 1_555
O8A_2 Co1 1_555 1_555
O8_2 Co1A 1_555 1_555
C5 C6 1_555 1_555
C7 O2 1_555 1_555
C9 N1 1_555 1_555
C13 N1 1_555 1_555
C17 C18 1_555 1_555
C20 N2 1_555 1_555
C21 N3 1_555 1_555
C23 C29 1_555 1_555
C24 N3 1_555 1_555
C31 O5 1_555 1_555
C5A C6A 1_555 1_555
C7A O2A 1_555 1_555
C8A O3A 1_555 1_555
C13_2 N1_2 1_555 1_555
C16_2 N2_2 1_555 1_555
C17_2 C18_2 1_555 1_555
C20_2 N2_2 1_555 1_555
C23A C29A 1_555 1_555
C24A N3A 1_555 1_555
C29A C30A 1_555 1_555
C31A O5A 1_555 1_555

#END
