
#######################################################################
#
#                 Cambridge Crystallographic Data Centre
#                                CCDC 
#
#######################################################################
#
# If this CIF has been generated from an entry in the Cambridge 
# Structural Database, then it will include bibliographic, chemical, 
# crystal, experimental, refinement or atomic coordinate data resulting 
# from the CCDC's data processing and validation procedures.
#
#######################################################################

data_MULSER
_chemical_formula_moiety         '(C4 H16 N1 O42 S7 U6 1-)n'
_symmetry_cell_setting           orthorhombic
_symmetry_space_group_name_H-M   'C 2 2 21'
_symmetry_Int_Tables_number      20
_space_group_name_Hall           'C 2c 2'
loop_
_symmetry_equiv_pos_site_id
_symmetry_equiv_pos_as_xyz
1 x,y,z
2 -x,-y,1/2+z
3 x,-y,-z
4 -x,y,1/2-z
5 1/2+x,1/2+y,z
6 1/2-x,1/2-y,1/2+z
7 1/2+x,1/2-y,-z
8 1/2-x,1/2+y,1/2-z
_cell_length_a                   10.3466(2)
_cell_length_b                   18.5415(3)
_cell_length_c                   22.7001(4)
_cell_angle_alpha                90
_cell_angle_beta                 90
_cell_angle_gamma                90
_cell_volume                     4354.82
loop_
_atom_site_label
_atom_site_type_symbol
_atom_site_fract_x
_atom_site_fract_y
_atom_site_fract_z
C1 C 0.0084(13) 0.0687(8) 0.6596(6)
H1 H -0.0399 0.0931 0.6282
H2 H 0.0536 0.1047 0.6836
H3 H -0.0517 0.0415 0.6845
N1 N 0.1023(10) 0.0194(6) 0.6335(5)
C2 C 0.1985(17) -0.0080(11) 0.6767(10)
H4 H 0.1536 -0.0332 0.7087
H5 H 0.2477 0.0325 0.693
H6 H 0.2577 -0.0415 0.657
C3 C 0.0380(17) -0.0374(10) 0.6010(12)
H7 H -0.0153 -0.0659 0.6281
H8 H 0.1027 -0.0686 0.5825
H9 H -0.0171 -0.016 0.5706
C4 C 0.1789(19) 0.0616(10) 0.5889(10)
H10 H 0.2355 0.0288 0.5669
H11 H 0.2315 0.098 0.6091
H12 H 0.1196 0.0856 0.5615
O1 O 0.8568(8) 0.6862(4) 0.4835(3)
O2 O 1.0564(8) 0.8017(4) 0.5662(3)
O3 O 0.9373(7) 0.6602(4) 0.6032(3)
O4 O 1.1337(9) 0.6668(5) 0.5200(4)
O5 O 1.0787(8) 0.7733(4) 0.4370(3)
O6 O 1.3656(8) 0.6508(5) 0.5230(4)
O7 O 1.2829(7) 0.7152(4) 0.4154(3)
O8 O 1.3516(8) 0.6801(4) 0.7224(3)
O9 O 1.1283(8) 0.8091(4) 0.7724(3)
O10 O 1.3854(9) 0.8430(5) 0.7533(3)
O11 O 1.2725(9) 0.8054(5) 0.6467(3)
O12 O 1.0871(7) 0.7039(4) 0.6749(3)
O13 O 0.8803(8) 0.6543(4) 0.7046(3)
O14 O 1.1559(7) 0.7686(4) 0.3389(3)
O15 O 1.2527(8) 0.4613(5) 0.6618(3)
O16 O 0.9789(7) 0.4791(4) 0.5722(3)
O17 O 1.2372(9) 0.5703(4) 0.4668(3)
O18 O 1.2327(8) 0.5683(5) 0.5733(4)
O19 O 1.0482(8) 0.5761(4) 0.6681(3)
O20 O 1.4881(7) 0.9320(4) 0.6971(3)
O21 O 1.0840(7) 0.6599(4) 0.3870(3)
U1 U 0.95670(4) 0.74398(2) 0.524522(15)
U2 U 1.23963(4) 0.74546(2) 0.746160(15)
U3 U 1.11635(4) 0.47027(2) 0.616370(15)
S1 S 0.9896(2) 0.64857(13) 0.66300(10)
S2 S 1.2405(2) 0.61421(13) 0.52064(11)
S3 S 1.1509(2) 0.72885(14) 0.39517(10)
S4 S 1.50000 0.88699(19) 0.75000
O10C O 1.6146(9) 0.8430(5) 0.7467(3)
O20C O 1.5119(7) 0.9320(4) 0.8029(3)
O1B O 0.8568(8) 0.3138(4) 0.5165(3)
O2B O 1.0564(8) 0.1983(4) 0.4338(3)
O3B O 0.9373(7) 0.3398(4) 0.3968(3)
O4B O 1.1337(9) 0.3332(5) 0.4800(4)
O5B O 1.0787(8) 0.2267(4) 0.5630(3)
O6B O 1.3656(8) 0.3492(5) 0.4770(4)
O7B O 1.2829(7) 0.2848(4) 0.5846(3)
O8B O 1.3516(8) 0.3199(4) 0.2776(3)
O9B O 1.1283(8) 0.1909(4) 0.2276(3)
O11B O 1.2725(9) 0.1946(5) 0.3533(3)
O12B O 1.0871(7) 0.2961(4) 0.3251(3)
O13B O 0.8803(8) 0.3457(4) 0.2954(3)
O14B O 1.1559(7) 0.2314(4) 0.6611(3)
O15B O 1.2527(8) 0.5387(5) 0.3382(3)
O16B O 0.9789(7) 0.5209(4) 0.4278(3)
O17B O 1.2372(9) 0.4297(4) 0.5332(3)
O18B O 1.2327(8) 0.4317(5) 0.4267(4)
O19B O 1.0482(8) 0.4239(4) 0.3319(3)
O21B O 1.0840(7) 0.3401(4) 0.6130(3)
U1B U 0.95670(4) 0.25602(2) 0.475478(15)
U2B U 1.23963(4) 0.25454(2) 0.253840(15)
U3B U 1.11635(4) 0.52973(2) 0.383630(15)
S1B S 0.9896(2) 0.35143(13) 0.33700(10)
S2B S 1.2405(2) 0.38579(13) 0.47936(11)
S3B S 1.1509(2) 0.27115(14) 0.60483(10)
O6D O 0.8656(8) 0.1508(5) 0.5230(4)
O6F O 0.8656(8) 0.8492(5) 0.4770(4)
O7D O 0.7829(7) 0.2152(4) 0.4154(3)
O7F O 0.7829(7) 0.7848(4) 0.5846(3)
O10B O 1.3854(9) 0.1570(5) 0.2467(3)
O13A O 1.1197(8) 0.3457(4) 0.2046(3)
O13C O 1.1197(8) 0.6543(4) 0.7954(3)
O14E O 1.3441(7) 0.7314(4) 0.8389(3)
O14G O 1.3441(7) 0.2686(4) 0.1611(3)
O20D O 0.9881(7) 0.4320(4) 0.6971(3)
O20F O 0.9881(7) 0.5680(4) 0.3029(3)
U1D U 1.45670(4) 0.24398(2) 0.524522(15)
U1F U 1.45670(4) 0.75602(2) 0.475478(15)
U2A U 0.76037(4) 0.25454(2) 0.246160(15)
U2C U 0.76037(4) 0.74546(2) 0.753840(15)
U2C_2 U 1.76037(4) 0.74546(2) 0.753840(15)
U2E U 1.26037(4) 0.75454(2) 0.246160(15)
U2G U 1.26037(4) 0.24546(2) 0.753840(15)
U3D U 1.61635(4) 0.97027(2) 0.616370(15)
U3G U 1.38365(4) 0.97027(2) 0.883630(15)
loop_
_geom_bond_atom_site_label_1
_geom_bond_atom_site_label_2
_geom_bond_site_symmetry_1
_geom_bond_site_symmetry_2
C1 H1 1_555 1_555
H2 C1 1_555 1_555
H3 C1 1_555 1_555
N1 C1 1_555 1_555
C2 N1 1_555 1_555
H4 C2 1_555 1_555
H5 C2 1_555 1_555
H6 C2 1_555 1_555
C3 N1 1_555 1_555
H7 C3 1_555 1_555
H8 C3 1_555 1_555
H9 C3 1_555 1_555
C4 N1 1_555 1_555
H10 C4 1_555 1_555
H11 C4 1_555 1_555
H12 C4 1_555 1_555
O1 U1 1_555 1_555
O2 U1 1_555 1_555
O3 U1 1_555 1_555
O4 U1 1_555 1_555
O5 U1 1_555 1_555
O6 S2 1_555 1_555
O7 S3 1_555 1_555
O8 U2 1_555 1_555
O9 U2 1_555 1_555
O10 U2 1_555 1_555
O11 U2 1_555 1_555
O12 U2 1_555 1_555
O13 S1 1_555 1_555
O14 S3 1_555 1_555
O15 U3 1_555 1_555
O16 U3 1_555 1_555
O17 S2 1_555 1_555
O18 U3 1_555 1_555
O19 U3 1_555 1_555
O20 S4 1_555 1_555
O21 S3 1_555 1_555
U1 O6F 1_555 1_555
U2 O13C 1_555 1_555
U3 O17B 1_555 1_555
S1 O3 1_555 1_555
S2 O4 1_555 1_555
S3 O5 1_555 1_555
S4 O10 1_555 1_555
O10C S4 1_555 1_555
O20C S4 1_555 1_555
O1B U1B 1_555 1_555
O2B U1B 1_555 1_555
O3B U1B 1_555 1_555
O4B U1B 1_555 1_555
O5B U1B 1_555 1_555
O6B S2B 1_555 1_555
O7B S3B 1_555 1_555
O8B U2B 1_555 1_555
O9B U2B 1_555 1_555
O11B U2B 1_555 1_555
O12B U2B 1_555 1_555
O13B S1B 1_555 1_555
O14B S3B 1_555 1_555
O15B U3B 1_555 1_555
O16B U3B 1_555 1_555
O17B S2B 1_555 1_555
O18B U3B 1_555 1_555
O19B U3B 1_555 1_555
O21B U3 1_555 1_555
U1B O6D 1_555 1_555
U2B O10B 1_555 1_555
U3B O17 1_555 1_555
S1B O3B 1_555 1_555
S2B O4B 1_555 1_555
S3B O5B 1_555 1_555
O7D U1B 1_555 1_555
O7F U1 1_555 1_555
O13A U2B 1_555 1_555
O14E U2 1_555 1_555
O14G U2B 1_555 1_555
O20D U3 1_555 1_555
O20F U3B 1_555 1_555
U1D O6B 1_555 1_555
U1F O6 1_555 1_555
U2A O13B 1_555 1_555
U2C O13 1_555 1_555
U2C_2 O10C 1_555 1_555
U2E O14 1_555 1_555
U2G O14B 1_555 1_555
U3D O20 1_555 1_555
U3G O20C 1_555 1_555
O7 U1F 1_555 1_555
O12 S1 1_555 1_555
O18 S2 1_555 1_555
O19 S1 1_555 1_555
O21 U3B 1_555 1_555
O7B U1D 1_555 1_555
O12B S1B 1_555 1_555
O18B S2B 1_555 1_555
O19B S1B 1_555 1_555
O21B S3B 1_555 1_555

#END
