
#######################################################################
#
#                 Cambridge Crystallographic Data Centre
#                                CCDC 
#
#######################################################################
#
# If this CIF has been generated from an entry in the Cambridge 
# Structural Database, then it will include bibliographic, chemical, 
# crystal, experimental, refinement or atomic coordinate data resulting 
# from the CCDC's data processing and validation procedures.
#
#######################################################################

data_JURKIS
_chemical_formula_moiety         '(C65 H71 Mn2 N3 O17)n'
_symmetry_cell_setting           monoclinic
_symmetry_space_group_name_H-M   'P 21/c'
_symmetry_Int_Tables_number      14
_space_group_name_Hall           '-P 2ybc'
loop_
_symmetry_equiv_pos_site_id
_symmetry_equiv_pos_as_xyz
1 x,y,z
2 -x,1/2+y,1/2-z
3 -x,-y,-z
4 x,1/2-y,1/2+z
_cell_length_a                   19.6786(11)
_cell_length_b                   22.7703(13)
_cell_length_c                   14.8344(9)
_cell_angle_alpha                90
_cell_angle_beta                 104.1470(10)
_cell_angle_gamma                90
_cell_volume                     6445.52
loop_
_atom_site_label
_atom_site_type_symbol
_atom_site_fract_x
_atom_site_fract_y
_atom_site_fract_z
Mn1 Mn 0.03055(3) 0.56962(3) 0.53378(5)
Mn2 Mn 0.05714(4) 0.56069(5) 0.78814(6)
O1 O 0.03715(16) 0.47835(14) 0.5864(2)
O2 O 0.09472(19) 0.48328(17) 0.7361(3)
O3 O 0.17863(18) 0.39166(16) 0.7226(3)
O4 O 0.87964(17) 0.45045(16) 0.5164(3)
O5 O 0.8917(2) 0.3930(3) 0.6413(3)
O6 O 0.78568(19) 0.4509(2) 0.6907(3)
O7 O 0.93947(17) 0.90900(16) 1.0817(3)
O8 O 0.9524(2) 0.9356(3) 1.2273(3)
O9 O 0.09510(18) 0.89191(17) 1.1597(3)
O10 O 0.1579(3) 0.8933(2) 1.3032(3)
O11 O 0.19978(18) 0.83328(17) 1.1058(3)
O12 O 0.02186(18) 0.65268(16) 0.4568(3)
O13 O 0.0774(4) 0.5311(5) 0.9227(5)
O14 O 0.80262(18) 0.89089(19) 1.0637(3)
N1 N 0.1440(5) 0.4561(6) 1.0228(6)
C1 C 0.0822(2) 0.4597(2) 0.6582(4)
C2 C 0.1223(3) 0.4054(2) 0.6429(4)
H1 H 0.0903 0.3723 0.6297
H2 H 0.1415 0.4114 0.5893
C3 C 0.2367(2) 0.4261(2) 0.7374(4)
C4 C 0.2908(2) 0.4105(2) 0.8133(4)
H3 H 0.2850 0.3788 0.8503
C5 C 0.3532(2) 0.4418(2) 0.8344(3)
C6 C 0.3611(2) 0.48931(19) 0.7777(3)
C7 C 0.3071(2) 0.5042(2) 0.7022(3)
C8 C 0.2446(2) 0.4734(2) 0.6815(3)
H4 H 0.2084 0.4841 0.6311
C9 C 0.3156(3) 0.5536(3) 0.6372(4)
H5 H 0.2702 0.5665 0.6027
H6 H 0.3419 0.5398 0.5948
H7 H 0.3399 0.5858 0.6728
C10 C 0.4116(2) 0.4227(2) 0.9142(3)
H8 H 0.4331 0.4565 0.9480
H9 H 0.4459 0.4014 0.8910
H10 H 0.3932 0.3977 0.9548
C11 C 0.4262(2) 0.52635(19) 0.7996(3)
C12 C 0.4857(2) 0.5082(2) 0.7746(3)
H11 H 0.4851 0.4720 0.7455
C13 C 0.5467(2) 0.5412(2) 0.7904(3)
C14 C 0.5483(2) 0.5967(2) 0.8332(3)
C15 C 0.4881(2) 0.61630(19) 0.8612(3)
C16 C 0.4266(2) 0.58052(19) 0.8442(3)
C17 C 0.3669(2) 0.6016(2) 0.8744(3)
H12 H 0.3265 0.5787 0.8635
C18 C 0.3679(2) 0.6541(2) 0.9186(3)
H13 H 0.3284 0.6663 0.9374
C19 C 0.4288(2) 0.69103(19) 0.9367(3)
C20 C 0.4887(2) 0.6716(2) 0.9081(3)
C21 C 0.5506(2) 0.7069(2) 0.9257(3)
C22 C 0.6097(2) 0.6860(2) 0.8952(3)
H14 H 0.6502 0.7087 0.9061
C23 C 0.6083(2) 0.6339(2) 0.8507(3)
H15 H 0.6475 0.6221 0.8310
C24 C 0.5515(2) 0.7604(2) 0.9743(3)
C25 C 0.4920(2) 0.7780(2) 1.0009(3)
H16 H 0.4931 0.8136 1.0318
C26 C 0.4306(2) 0.7449(2) 0.9840(3)
C27 C 0.3117(4) 0.8052(4) 0.8563(5)
H17 H 0.2653 0.8163 0.8231
H18 H 0.3251 0.7698 0.8302
H19 H 0.3440 0.8361 0.8515
C28 C 0.3694(2) 0.7671(2) 1.0176(3)
C29 C 0.3695(3) 0.7611(3) 1.1099(4)
C30 C 0.4298(4) 0.7319(4) 1.1770(5)
H20 H 0.4233 0.7349 1.2390
H21 H 0.4728 0.7508 1.1742
H22 H 0.4317 0.6912 1.1607
C31 C 0.3134(3) 0.7833(3) 1.1420(4)
H23 H 0.3139 0.7808 1.2047
C32 C 0.2570(3) 0.8092(2) 1.0801(4)
C33 C 0.2575(3) 0.8153(2) 0.9896(4)
H24 H 0.2198 0.8333 0.9488
C34 C 0.3131(3) 0.7952(2) 0.9570(4)
C35 C 0.2050(3) 0.8375(3) 1.2015(4)
H25 H 0.2507 0.8528 1.2325
H26 H 0.2002 0.7988 1.2265
C36 C 0.1482(3) 0.8779(2) 1.2202(4)
C37 C 0.6165(2) 0.7960(2) 1.0001(3)
C38 C 0.6349(2) 0.8343(2) 0.9359(3)
C39 C 0.6971(3) 0.8655(2) 0.9610(4)
H27 H 0.7095 0.8906 0.9182
C40 C 0.7413(3) 0.8598(2) 1.0495(4)
C41 C 0.7227(3) 0.8235(2) 1.1139(4)
H28 H 0.7518 0.8204 1.1734
C42 C 0.6605(3) 0.7912(2) 1.0902(4)
C43 C 0.6418(3) 0.7522(3) 1.1624(4)
H29 H 0.6830 0.7447 1.2110
H30 H 0.6233 0.7158 1.1343
H31 H 0.6073 0.7714 1.1879
C44 C 0.5871(3) 0.8428(2) 0.8415(4)
H32 H 0.6049 0.8737 0.8097
H33 H 0.5411 0.8531 0.8477
H34 H 0.5846 0.8071 0.8065
C45 C 0.8460(3) 0.8926(3) 1.1545(4)
H35 H 0.8489 0.8537 1.1819
H36 H 0.8259 0.9189 1.1925
C46 C 0.9197(3) 0.9140(3) 1.1527(4)
C47 C 0.6094(2) 0.5182(2) 0.7618(3)
C48 C 0.6194(2) 0.5307(2) 0.6738(3)
C49 C 0.6783(2) 0.5082(2) 0.6480(3)
H37 H 0.6852 0.5166 0.5896
C50 C 0.7260(3) 0.4736(2) 0.7089(4)
C51 C 0.7154(3) 0.4612(3) 0.7947(4)
H38 H 0.7474 0.4374 0.8350
C52 C 0.6581(3) 0.4831(3) 0.8230(4)
C53 C 0.6485(4) 0.4685(4) 0.9176(5)
H39 H 0.6881 0.4464 0.9514
H40 H 0.6066 0.4457 0.9114
H41 H 0.6446 0.5042 0.9505
C54 C 0.5676(3) 0.5671(3) 0.6071(4)
H42 H 0.5820 0.5709 0.5501
H43 H 0.5649 0.6054 0.6333
H44 H 0.5224 0.5487 0.5950
C55 C 0.7959(3) 0.4618(3) 0.6010(4)
H45 H 0.7983 0.5038 0.5918
H46 H 0.7560 0.4467 0.5547
C56 C 0.8628(2) 0.4331(3) 0.5873(4)
C57 C 0.1320(6) 0.4848(7) 0.9423(7)
H47 H 0.1576 0.4760 0.8990
C58 C 0.1997(6) 0.4173(7) 1.0464(7)
H48 H 0.2067 0.4060 1.1103
H49 H 0.2414 0.4360 1.0376
H50 H 0.1898 0.3831 1.0076
C59 C 0.1080(6) 0.4645(7) 1.0924(7)
H51 H 0.0691 0.4379 1.0829
H52 H 0.0912 0.5042 1.0899
H53 H 0.1392 0.4573 1.1521
O15 O 0.0321(5) 0.6472(6) 0.8435(10)
Mn1B Mn -0.03055(3) 0.43038(3) 0.46622(5)
Mn1B_2 Mn 0.96945(3) 0.43038(3) 0.46622(5)
Mn1C Mn 0.03055(3) 0.93038(3) 1.03378(5)
Mn1C_2 Mn 1.03055(3) 0.93038(3) 1.03378(5)
Mn2C Mn 0.05714(4) 0.93931(5) 1.28814(6)
Mn2C_2 Mn 1.05714(4) 0.93931(5) 1.28814(6)
O1B O -0.03715(16) 0.52165(14) 0.4136(2)
O4B O 0.12036(17) 0.54955(16) 0.4836(3)
O7C O -0.06053(17) 0.59100(16) 0.5817(3)
O8C O -0.0476(2) 0.5644(3) 0.7273(3)
O9C O 0.09510(18) 0.60809(17) 0.6597(3)
O10C O 0.1579(3) 0.6067(2) 0.8032(3)
O16 O 0.0629(3) 0.7525(3) 0.5593(6)
N2 N 0.1476(4) 0.8184(4) 0.5600(7)
C60 C 0.1114(5) 0.7750(4) 0.5295(9)
H54 H 0.1213 0.7568 0.4780
C61 C 0.2017(5) 0.8430(4) 0.5164(8)
H55 H 0.2445 0.8488 0.5632
H56 H 0.1858 0.8799 0.4876
H57 H 0.2099 0.8161 0.4703
C62 C 0.1331(5) 0.8513(4) 0.6394(8)
H58 H 0.1734 0.8498 0.6911
H59 H 0.0938 0.8338 0.6571
H60 H 0.1225 0.8914 0.6217
O17 O -0.0939(5) 0.7981(5) 0.3171(10)
N3 N -0.1361(7) 0.7553(6) 0.4373(12)
C63 C -0.2043(8) 0.7440(7) 0.3676(13)
H61 H -0.1955 0.7235 0.3151
H62 H -0.2269 0.7807 0.3475
H63 H -0.2341 0.7206 0.3958
C64 C -0.1135(8) 0.7343(7) 0.5383(13)
H64 H -0.0752 0.7580 0.5717
H65 H -0.0989 0.6940 0.5398
H66 H -0.1522 0.7377 0.5668
C65 C -0.0881(9) 0.7776(8) 0.3907(15)
H67 H -0.0419 0.7757 0.4255
loop_
_geom_bond_atom_site_label_1
_geom_bond_atom_site_label_2
_geom_bond_site_symmetry_1
_geom_bond_site_symmetry_2
Mn1 O1 1_555 1_555
Mn2 O2 1_555 1_555
O1 C1 1_555 1_555
O2 C1 1_555 1_555
O3 C2 1_555 1_555
O4 C56 1_555 1_555
O5 C56 1_555 1_555
O6 C50 1_555 1_555
O7 C46 1_555 1_555
O8 C46 1_555 1_555
O9 C36 1_555 1_555
O10 C36 1_555 1_555
O11 C32 1_555 1_555
O12 Mn1 1_555 1_555
O13 Mn2 1_555 1_555
O14 C40 1_555 1_555
N1 C57 1_555 1_555
C1 C2 1_555 1_555
C2 H1 1_555 1_555
H2 C2 1_555 1_555
C3 O3 1_555 1_555
C4 C3 1_555 1_555
H3 C4 1_555 1_555
C5 C4 1_555 1_555
C6 C5 1_555 1_555
C7 C6 1_555 1_555
C8 C3 1_555 1_555
H4 C8 1_555 1_555
C9 C7 1_555 1_555
H5 C9 1_555 1_555
H6 C9 1_555 1_555
H7 C9 1_555 1_555
C10 C5 1_555 1_555
H8 C10 1_555 1_555
H9 C10 1_555 1_555
H10 C10 1_555 1_555
C11 C6 1_555 1_555
C12 C11 1_555 1_555
H11 C12 1_555 1_555
C13 C12 1_555 1_555
C14 C13 1_555 1_555
C15 C14 1_555 1_555
C16 C11 1_555 1_555
C17 C16 1_555 1_555
H12 C17 1_555 1_555
C18 C17 1_555 1_555
H13 C18 1_555 1_555
C19 C18 1_555 1_555
C20 C15 1_555 1_555
C21 C20 1_555 1_555
C22 C21 1_555 1_555
H14 C22 1_555 1_555
C23 C14 1_555 1_555
H15 C23 1_555 1_555
C24 C21 1_555 1_555
C25 C24 1_555 1_555
H16 C25 1_555 1_555
C26 C19 1_555 1_555
C27 H17 1_555 1_555
H18 C27 1_555 1_555
H19 C27 1_555 1_555
C28 C26 1_555 1_555
C29 C28 1_555 1_555
C30 C29 1_555 1_555
H20 C30 1_555 1_555
H21 C30 1_555 1_555
H22 C30 1_555 1_555
C31 C29 1_555 1_555
H23 C31 1_555 1_555
C32 C31 1_555 1_555
C33 C32 1_555 1_555
H24 C33 1_555 1_555
C34 C27 1_555 1_555
C35 O11 1_555 1_555
H25 C35 1_555 1_555
H26 C35 1_555 1_555
C36 C35 1_555 1_555
C37 C24 1_555 1_555
C38 C37 1_555 1_555
C39 C38 1_555 1_555
H27 C39 1_555 1_555
C40 C39 1_555 1_555
C41 C40 1_555 1_555
H28 C41 1_555 1_555
C42 C37 1_555 1_555
C43 C42 1_555 1_555
H29 C43 1_555 1_555
H30 C43 1_555 1_555
H31 C43 1_555 1_555
C44 C38 1_555 1_555
H32 C44 1_555 1_555
H33 C44 1_555 1_555
H34 C44 1_555 1_555
C45 O14 1_555 1_555
H35 C45 1_555 1_555
H36 C45 1_555 1_555
C46 C45 1_555 1_555
C47 C13 1_555 1_555
C48 C47 1_555 1_555
C49 C48 1_555 1_555
H37 C49 1_555 1_555
C50 C49 1_555 1_555
C51 C50 1_555 1_555
H38 C51 1_555 1_555
C52 C47 1_555 1_555
C53 C52 1_555 1_555
H39 C53 1_555 1_555
H40 C53 1_555 1_555
H41 C53 1_555 1_555
C54 C48 1_555 1_555
H42 C54 1_555 1_555
H43 C54 1_555 1_555
H44 C54 1_555 1_555
C55 O6 1_555 1_555
H45 C55 1_555 1_555
H46 C55 1_555 1_555
C56 C55 1_555 1_555
C57 O13 1_555 1_555
H47 C57 1_555 1_555
C58 N1 1_555 1_555
H48 C58 1_555 1_555
H49 C58 1_555 1_555
H50 C58 1_555 1_555
C59 N1 1_555 1_555
H51 C59 1_555 1_555
H52 C59 1_555 1_555
H53 C59 1_555 1_555
O15 Mn2 1_555 1_555
O16 C60 1_555 1_555
N2 C60 1_555 1_555
C60 H54 1_555 1_555
C61 N2 1_555 1_555
H55 C61 1_555 1_555
H56 C61 1_555 1_555
H57 C61 1_555 1_555
C62 N2 1_555 1_555
H58 C62 1_555 1_555
H59 C62 1_555 1_555
H60 C62 1_555 1_555
O17 C65 1_555 1_555
N3 C63 1_555 1_555
C63 H61 1_555 1_555
H62 C63 1_555 1_555
H63 C63 1_555 1_555
C64 N3 1_555 1_555
H64 C64 1_555 1_555
H65 C64 1_555 1_555
H66 C64 1_555 1_555
C65 N3 1_555 1_555
H67 C65 1_555 1_555
Mn1B O1 1_555 1_555
Mn1B_2 O4 1_555 1_555
Mn1C O9 1_555 1_555
Mn1C_2 O7 1_555 1_555
Mn2C O9 1_555 1_555
Mn2C_2 O8 1_555 1_555
O1B Mn1 1_555 1_555
O4B Mn1 1_555 1_555
O7C Mn1 1_555 1_555
O8C Mn2 1_555 1_555
O9C Mn1 1_555 1_555
O10C Mn2 1_555 1_555
Mn2 O9C 1_555 1_555
O10 Mn2C 1_555 1_555
C7 C8 1_555 1_555
C15 C16 1_555 1_555
C19 C20 1_555 1_555
C22 C23 1_555 1_555
C25 C26 1_555 1_555
C28 C34 1_555 1_555
C33 C34 1_555 1_555
C41 C42 1_555 1_555
C51 C52 1_555 1_555
Mn1B O1B 1_555 1_555

#END
