
#######################################################################
#
#                 Cambridge Crystallographic Data Centre
#                                CCDC 
#
#######################################################################
#
# If this CIF has been generated from an entry in the Cambridge 
# Structural Database, then it will include bibliographic, chemical, 
# crystal, experimental, refinement or atomic coordinate data resulting 
# from the CCDC's data processing and validation procedures.
#
#######################################################################

data_NEVGOK
_chemical_formula_moiety         'C14 H30 N4 Ni2 O18 S2'
_symmetry_cell_setting           monoclinic
_symmetry_space_group_name_H-M   'P 21/n'
_symmetry_Int_Tables_number      14
_space_group_name_Hall           '-P 2yn'
loop_
_symmetry_equiv_pos_site_id
_symmetry_equiv_pos_as_xyz
1 x,y,z
2 1/2-x,1/2+y,1/2-z
3 -x,-y,-z
4 1/2+x,1/2-y,1/2+z
_cell_length_a                   8.372(2)
_cell_length_b                   18.301(2)
_cell_length_c                   17.197(2)
_cell_angle_alpha                90
_cell_angle_beta                 97.54(2)
_cell_angle_gamma                90
_cell_volume                     2612.07
loop_
_atom_site_label
_atom_site_type_symbol
_atom_site_fract_x
_atom_site_fract_y
_atom_site_fract_z
Ni1 Ni 0.85389(9) 0.28326(4) 0.01201(4)
Ni2 Ni 0.62330(9) 0.49896(4) 0.30605(4)
O1 O 0.9686(4) 0.2139(2) -0.0563(2)
O2 O 0.6607(4) 0.2128(2) -0.0026(2)
O3 O 0.9522(4) 0.2272(2) 0.1099(2)
O4 O 0.7340(4) 0.3396(2) -0.0822(2)
O5 O 0.5665(4) 0.5363(2) 0.4122(2)
O6 O 0.8107(4) 0.5679(2) 0.3044(2)
O7 O 0.4738(4) 0.5750(2) 0.2431(2)
O8 O 0.7739(4) 0.4280(2) 0.3755(2)
N1 N 0.7611(4) 0.3526(2) 0.0906(2)
N2 N 0.6827(4) 0.4457(2) 0.2069(2)
N3 N 1.0343(4) 0.3625(2) 0.0287(2)
N4 N 0.4395(4) 0.4249(2) 0.2857(2)
C1 C 0.8571(5) 0.4094(2) 0.1150(2)
C2 C 0.8159(5) 0.4568(2) 0.1731(3)
C3 C 0.5899(5) 0.3878(2) 0.1844(2)
C4 C 0.6276(5) 0.3417(2) 0.1252(3)
C5 C 1.0068(5) 0.4169(2) 0.0788(2)
C6 C 1.1150(6) 0.4741(2) 0.0965(3)
C7 C 1.2535(6) 0.4760(3) 0.0599(3)
C8 C 1.2801(6) 0.4205(3) 0.0083(3)
C9 C 1.1684(6) 0.3648(3) -0.0051(3)
C10 C 0.4482(5) 0.3772(2) 0.2269(3)
C11 C 0.3349(6) 0.3232(2) 0.2080(3)
C12 C 0.2054(6) 0.3196(3) 0.2505(3)
C13 C 0.1935(6) 0.3695(3) 0.3093(3)
C14 C 0.3132(6) 0.4210(3) 0.3261(3)
H1 H 0.8848 0.4982 0.1887
H2 H 0.5564 0.3015 0.1081
H3 H 1.0920 0.5119 0.1325
H4 H 1.3304 0.5155 0.0709
H5 H 1.3753 0.4204 -0.0178
H6 H 1.1869 0.3264 -0.0409
H7 H 0.3457 0.2886 0.1663
H8 H 0.1238 0.2822 0.2387
H9 H 0.1016 0.3685 0.3384
H10 H 0.3079 0.4550 0.3692
H11 H 1.0889 0.2370 -0.0532
H12 H 1.0285 0.1808 -0.0431
H13 H 0.6700 0.1880 -0.0300
H14 H 0.5861 0.2200 0.0380
H15 H 0.9064 0.2197 0.1442
H16 H 1.0302 0.2136 0.1177
H17 H 0.6974 0.3002 -0.0952
H18 H 0.7828 0.3495 -0.1336
H19 H 0.6728 0.5385 0.4393
H20 H 0.4773 0.5515 0.4340
H21 H 0.8141 0.6037 0.2764
H22 H 0.9086 0.5671 0.3441
H23 H 0.5012 0.6134 0.2164
H24 H 0.4113 0.6015 0.2757
H25 H 0.7147 0.4175 0.4219
H26 H 0.7946 0.3928 0.3322
S1 S 0.7944(1) 0.23403(6) 0.29992(6)
O9 O 0.8508(4) 0.3093(2) 0.2993(2)
O10 O 0.7557(4) 0.2083(2) 0.2174(2)
O11 O 0.9183(4) 0.1853(2) 0.3406(2)
O12 O 0.6464(4) 0.2298(2) 0.3371(2)
S2 S 0.8045(1) 0.36841(6) 0.58201(6)
O13 O 0.9187(4) 0.4310(2) 0.5907(2)
O14 O 0.6713(4) 0.3877(2) 0.5201(2)
O15 O 0.7339(4) 0.3578(2) 0.6556(2)
O16 O 0.8849(4) 0.3017(2) 0.5620(2)
O17 O 0.1566(4) 0.4398(5) 0.4899(2)
H27 H 0.1454 0.3873 0.5002
H28 H 0.1186 0.4886 0.4779
O18 O 0.9140(4) 0.3731(2) -0.1964(2)
H29 H 0.9180 0.3360 -0.1600
H30 H 1.0080 0.3840 -0.1900
loop_
_geom_bond_atom_site_label_1
_geom_bond_atom_site_label_2
_geom_bond_site_symmetry_1
_geom_bond_site_symmetry_2
Ni1 O1 1_555 1_555
Ni2 O5 1_555 1_555
S1 O9 1_555 1_555
S2 O13 1_555 1_555
O1 H11 1_555 1_555
O2 Ni1 1_555 1_555
O3 Ni1 1_555 1_555
O4 Ni1 1_555 1_555
O5 H19 1_555 1_555
O6 Ni2 1_555 1_555
O7 Ni2 1_555 1_555
O8 Ni2 1_555 1_555
O10 S1 1_555 1_555
O11 S1 1_555 1_555
O12 S1 1_555 1_555
O14 S2 1_555 1_555
O15 S2 1_555 1_555
O16 S2 1_555 1_555
O17 H27 1_555 1_555
O18 H29 1_555 1_555
N1 Ni1 1_555 1_555
N2 Ni2 1_555 1_555
N3 Ni1 1_555 1_555
N4 Ni2 1_555 1_555
C1 N1 1_555 1_555
C2 N2 1_555 1_555
C3 N2 1_555 1_555
C4 N1 1_555 1_555
C5 N3 1_555 1_555
C6 C5 1_555 1_555
C7 C6 1_555 1_555
C8 C7 1_555 1_555
C9 N3 1_555 1_555
C10 N4 1_555 1_555
C11 C10 1_555 1_555
C12 C11 1_555 1_555
C13 C12 1_555 1_555
C14 N4 1_555 1_555
H1 C2 1_555 1_555
H2 C4 1_555 1_555
H3 C6 1_555 1_555
H4 C7 1_555 1_555
H5 C8 1_555 1_555
H6 C9 1_555 1_555
H7 C11 1_555 1_555
H8 C12 1_555 1_555
H9 C13 1_555 1_555
H10 C14 1_555 1_555
H12 O1 1_555 1_555
H13 O2 1_555 1_555
H14 O2 1_555 1_555
H15 O3 1_555 1_555
H16 O3 1_555 1_555
H17 O4 1_555 1_555
H18 O4 1_555 1_555
H20 O5 1_555 1_555
H21 O6 1_555 1_555
H22 O6 1_555 1_555
H23 O7 1_555 1_555
H24 O7 1_555 1_555
H25 O8 1_555 1_555
H26 O8 1_555 1_555
H28 O17 1_555 1_555
H30 O18 1_555 1_555
C1 C2 1_555 1_555
C1 C5 1_555 1_555
C3 C10 1_555 1_555
C3 C4 1_555 1_555
C8 C9 1_555 1_555
C13 C14 1_555 1_555

#END
