
#######################################################################
#
#                 Cambridge Crystallographic Data Centre
#                                CCDC 
#
#######################################################################
#
# If this CIF has been generated from an entry in the Cambridge 
# Structural Database, then it will include bibliographic, chemical, 
# crystal, experimental, refinement or atomic coordinate data resulting 
# from the CCDC's data processing and validation procedures.
#
#######################################################################

data_DIBPIP
_chemical_formula_moiety         '(C41 H40 N10 Ni2 O17)n'
_symmetry_cell_setting           monoclinic
_symmetry_space_group_name_H-M   'C 2/c'
_symmetry_Int_Tables_number      15
_space_group_name_Hall           '-C 2yc'
loop_
_symmetry_equiv_pos_site_id
_symmetry_equiv_pos_as_xyz
1 x,y,z
2 -x,y,1/2-z
3 1/2+x,1/2+y,z
4 1/2-x,1/2+y,1/2-z
5 -x,-y,-z
6 x,-y,1/2+z
7 1/2-x,1/2-y,-z
8 1/2+x,1/2-y,1/2+z
_cell_length_a                   28.2181(8)
_cell_length_b                   10.7585(2)
_cell_length_c                   18.8462(6)
_cell_angle_alpha                90
_cell_angle_beta                 118.560(4)
_cell_angle_gamma                90
_cell_volume                     5025.21
loop_
_atom_site_label
_atom_site_type_symbol
_atom_site_fract_x
_atom_site_fract_y
_atom_site_fract_z
Ni1 Ni 0.2500 0.2500 0.5000
Ni2 Ni 0.2500 0.7500 0.5000
O1 O 0.5000 0.3709(8) 0.7500
O2 O 0.30260(11) 0.3800(3) 0.57630(18)
O3 O 0.26719(12) 0.5612(3) 0.5196(2)
O4 O 0.26789(15) 0.7747(4) 0.6164(2)
O5 O 0.2885(3) 0.7065(7) 0.7360(4)
O6 O 0.22666(16) 0.3752(3) 0.4039(2)
H1 H 0.2002(16) 0.349(3) 0.3609(18)
H2 H 0.222(2) 0.448(2) 0.416(2)
N1 N 0.32877(14) 0.7974(3) 0.5255(2)
N2 N 0.51506(14) 0.8471(3) 0.5429(2)
N3 N 0.51886(15) 0.9788(3) 0.6357(2)
N4 N 0.56664(15) 0.9845(3) 0.6350(2)
H3 H 0.5939 1.0306 0.6649
N5 N 0.68873(13) 0.8167(3) 0.5235(2)
C1 C 0.5000 0.4864(9) 0.7500
C2 C 0.4488(2) 0.5553(6) 0.7244(5)
C3 C 0.4010(2) 0.5050(5) 0.6636(5)
H4 H 0.4025 0.4346 0.6361
C4 C 0.35128(19) 0.5575(4) 0.6433(3)
C5 C 0.30283(17) 0.4965(4) 0.5742(3)
C6 C 0.3485(2) 0.6544(5) 0.6888(3)
C7 C 0.2969(3) 0.7135(6) 0.6772(4)
C8 C 0.3968(3) 0.7025(6) 0.7504(4)
H5 H 0.3954 0.7675 0.7819
C9 C 0.4458(3) 0.6563(7) 0.7656(5)
H6 H 0.4773 0.6940 0.8043
C10 C 0.35740(17) 0.8801(4) 0.5830(3)
H7 H 0.3414 0.9172 0.6108
C11 C 0.40929(18) 0.9130(4) 0.6031(3)
H8 H 0.4278 0.9701 0.6443
C12 C 0.43375(17) 0.8620(4) 0.5627(3)
C13 C 0.4043(2) 0.7771(5) 0.5027(3)
H9 H 0.4194 0.7403 0.4733
C14 C 0.3528(2) 0.7471(5) 0.4864(4)
H10 H 0.3338 0.6890 0.4462
C15 C 0.48864(17) 0.8963(4) 0.5799(3)
C16 C 0.56298(16) 0.9048(4) 0.5789(3)
C17 C 0.60638(17) 0.8787(4) 0.5593(3)
C18 C 0.59542(18) 0.8220(4) 0.4872(3)
H11 H 0.5600 0.8030 0.4495
C19 C 0.63689(18) 0.7938(5) 0.4716(3)
H12 H 0.6286 0.7570 0.4223
C20 C 0.69905(17) 0.8741(4) 0.5920(3)
H13 H 0.7348 0.8924 0.6285
C21 C 0.65943(18) 0.9080(5) 0.6117(3)
H14 H 0.6685 0.9500 0.6596
O2A O 0.69740(11) 0.3800(3) 0.92370(18)
O3A O 0.73281(12) 0.5612(3) 0.9804(2)
O4A O 0.73211(15) 0.7747(4) 0.8836(2)
O5A O 0.7115(3) 0.7065(7) 0.7640(4)
C2A C 0.5512(2) 0.5553(6) 0.7756(5)
C3A C 0.5990(2) 0.5050(5) 0.8364(5)
H4A H 0.5975 0.4346 0.8639
C4A C 0.64872(19) 0.5575(4) 0.8567(3)
C5A C 0.69717(17) 0.4965(4) 0.9258(3)
C6A C 0.6515(2) 0.6544(5) 0.8112(3)
C7A C 0.7031(3) 0.7135(6) 0.8228(4)
C8A C 0.6032(3) 0.7025(6) 0.7496(4)
H5A H 0.6046 0.7675 0.7181
C9A C 0.5542(3) 0.6563(7) 0.7344(5)
H6A H 0.5227 0.6940 0.6957
N1B N -0.17123(14) 0.2974(3) 0.5255(2)
N2B N 0.01506(14) 0.3471(3) 0.5429(2)
N3B N 0.01886(15) 0.4788(3) 0.6357(2)
N4B N 0.06664(15) 0.4845(3) 0.6350(2)
H3B H 0.0939 0.5306 0.6649
N5B N 0.18873(13) 0.3167(3) 0.5235(2)
C10B C -0.14260(17) 0.3801(4) 0.5830(3)
H7B H -0.1586 0.4172 0.6108
C11B C -0.09071(18) 0.4130(4) 0.6031(3)
H8B H -0.0722 0.4701 0.6443
C12B C -0.06625(17) 0.3620(4) 0.5627(3)
C13B C -0.0957(2) 0.2771(5) 0.5027(3)
H9B H -0.0806 0.2403 0.4733
C14B C -0.1472(2) 0.2471(5) 0.4864(4)
H10B H -0.1662 0.1890 0.4462
C15B C -0.01136(17) 0.3963(4) 0.5799(3)
C16B C 0.06298(16) 0.4048(4) 0.5789(3)
C17B C 0.10638(17) 0.3787(4) 0.5593(3)
C18B C 0.09542(18) 0.3220(4) 0.4872(3)
H11B H 0.0600 0.3030 0.4495
C19B C 0.13689(18) 0.2938(5) 0.4716(3)
H12B H 0.1286 0.2570 0.4223
C20B C 0.19905(17) 0.3741(4) 0.5920(3)
H13B H 0.2348 0.3924 0.6285
C21B C 0.15943(18) 0.4080(5) 0.6117(3)
H14B H 0.1685 0.4500 0.6596
O6F O 0.27334(16) 0.1248(3) 0.5961(2)
H1F H 0.2998(16) 0.151(3) 0.6391(18)
H2F H 0.278(2) 0.052(2) 0.584(2)
Ni1A Ni 0.7500 0.2500 1.0000
Ni1B Ni 0.7500 0.7500 0.5000
Ni2A Ni 0.7500 0.7500 1.0000
Ni2B Ni -0.2500 0.2500 0.5000
O2F O 0.19740(11) 0.1200(3) 0.42370(18)
O3F O 0.23281(12) 0.9388(3) 0.4804(2)
O4F O 0.23211(15) 0.7253(4) 0.3836(2)
N1F N 0.17123(14) 0.7026(3) 0.4745(2)
N5D N 0.31127(13) 0.1833(3) 0.4765(2)
O7 O 0.1355(4) 0.3383(10) 0.2487(5)
O8 O 0.3175(4) 0.5660(8) 0.8635(5)
O9 O 0.4356(10) 0.5500(16) 0.9592(13)
O10 O 0.5000 0.1169(7) 0.7500
O11 O 0.6970(3) 0.3348(9) 0.7166(4)
O12 O 0.4742(9) 0.6570(19) 0.405(2)
loop_
_geom_bond_atom_site_label_1
_geom_bond_atom_site_label_2
_geom_bond_site_symmetry_1
_geom_bond_site_symmetry_2
Ni1 O2 1_555 1_555
Ni2 O3 1_555 1_555
O1 C1 1_555 1_555
O2 C5 1_555 1_555
O3 C5 1_555 1_555
O4 Ni2 1_555 1_555
O5 C7 1_555 1_555
O6 Ni1 1_555 1_555
H1 O6 1_555 1_555
H2 O6 1_555 1_555
N1 Ni2 1_555 1_555
N2 C15 1_555 1_555
N3 N4 1_555 1_555
N4 H3 1_555 1_555
N5 C19 1_555 1_555
C1 C2 1_555 1_555
C2 C3 1_555 1_555
C3 H4 1_555 1_555
C4 C3 1_555 1_555
C5 C4 1_555 1_555
C6 C4 1_555 1_555
C7 O4 1_555 1_555
C8 C6 1_555 1_555
H5 C8 1_555 1_555
C9 C2 1_555 1_555
H6 C9 1_555 1_555
C10 N1 1_555 1_555
H7 C10 1_555 1_555
C11 C10 1_555 1_555
H8 C11 1_555 1_555
C12 C11 1_555 1_555
C13 C12 1_555 1_555
H9 C13 1_555 1_555
C14 N1 1_555 1_555
H10 C14 1_555 1_555
C15 N3 1_555 1_555
C16 N2 1_555 1_555
C17 C16 1_555 1_555
C18 C17 1_555 1_555
H11 C18 1_555 1_555
C19 C18 1_555 1_555
H12 C19 1_555 1_555
C20 N5 1_555 1_555
H13 C20 1_555 1_555
C21 C17 1_555 1_555
H14 C21 1_555 1_555
O2A C5A 1_555 1_555
O3A C5A 1_555 1_555
O4A C7A 1_555 1_555
O5A C7A 1_555 1_555
C2A C1 1_555 1_555
C3A C2A 1_555 1_555
H4A C3A 1_555 1_555
C4A C3A 1_555 1_555
C5A C4A 1_555 1_555
C6A C4A 1_555 1_555
C7A C6A 1_555 1_555
C8A C6A 1_555 1_555
H5A C8A 1_555 1_555
C9A C2A 1_555 1_555
H6A C9A 1_555 1_555
N1B C10B 1_555 1_555
N2B C15B 1_555 1_555
N3B N4B 1_555 1_555
N4B H3B 1_555 1_555
N5B Ni1 1_555 1_555
C10B H7B 1_555 1_555
C11B C10B 1_555 1_555
H8B C11B 1_555 1_555
C12B C11B 1_555 1_555
C13B C12B 1_555 1_555
H9B C13B 1_555 1_555
C14B N1B 1_555 1_555
H10B C14B 1_555 1_555
C15B N3B 1_555 1_555
C16B N2B 1_555 1_555
C17B C16B 1_555 1_555
C18B C17B 1_555 1_555
H11B C18B 1_555 1_555
C19B N5B 1_555 1_555
H12B C19B 1_555 1_555
C20B N5B 1_555 1_555
H13B C20B 1_555 1_555
C21B C17B 1_555 1_555
H14B C21B 1_555 1_555
O6F Ni1 1_555 1_555
H1F O6F 1_555 1_555
H2F O6F 1_555 1_555
Ni1A O2A 1_555 1_555
Ni1B N5 1_555 1_555
Ni2A O3A 1_555 1_555
Ni2B N1B 1_555 1_555
O2F Ni1 1_555 1_555
O3F Ni2 1_555 1_555
O4F Ni2 1_555 1_555
N1F Ni2 1_555 1_555
N5D Ni1 1_555 1_555
N4 C16 1_555 1_555
C6 C7 1_555 1_555
C8 C9 1_555 1_555
C12 C15 1_555 1_555
C13 C14 1_555 1_555
C20 C21 1_555 1_555
O4A Ni2A 1_555 1_555
C8A C9A 1_555 1_555
N4B C16B 1_555 1_555
C12B C15B 1_555 1_555
C13B C14B 1_555 1_555
C18B C19B 1_555 1_555
C20B C21B 1_555 1_555

#END
