
#######################################################################
#
#                 Cambridge Crystallographic Data Centre
#                                CCDC 
#
#######################################################################
#
# If this CIF has been generated from an entry in the Cambridge 
# Structural Database, then it will include bibliographic, chemical, 
# crystal, experimental, refinement or atomic coordinate data resulting 
# from the CCDC's data processing and validation procedures.
#
#######################################################################

data_KALXUT
_chemical_formula_moiety         '(C72 H40 O48 Zn8)n'
_symmetry_cell_setting           orthorhombic
_symmetry_space_group_name_H-M   'P m c 21'
_symmetry_Int_Tables_number      26
_space_group_name_Hall           'P 2c -2'
loop_
_symmetry_equiv_pos_site_id
_symmetry_equiv_pos_as_xyz
1 x,y,z
2 -x,-y,1/2+z
3 -x,y,z
4 x,-y,1/2+z
_cell_length_a                   18.3101(18)
_cell_length_b                   33.500(2)
_cell_length_c                   16.7230(15)
_cell_angle_alpha                90
_cell_angle_beta                 90
_cell_angle_gamma                90
_cell_volume                     10257.7
loop_
_atom_site_label
_atom_site_type_symbol
_atom_site_fract_x
_atom_site_fract_y
_atom_site_fract_z
Zn1 Zn 0.16515(8) 0.33557(4) 0.29845(8)
Zn2 Zn 0.33325(8) 0.18670(4) 0.61590(8)
Zn3 Zn 0.33261(9) 0.42158(4) 0.03494(8)
Zn4 Zn 0.16598(9) 0.06534(4) 0.81475(7)
O1 O 0.1877(5) 0.2791(2) 0.3184(5)
O2 O 0.1646(6) 0.2618(3) 0.1910(6)
O3 O 0.2884(6) 0.1888(3) 0.5100(5)
O4 O 0.3174(6) 0.1271(3) 0.4812(5)
O5 O 0.1895(7) 0.1247(3) -0.0531(5)
O6 O 0.1831(5) 0.0589(3) -0.0721(5)
O7 O 0.1617(6) -0.0319(3) 0.1588(5)
O8 O 0.1815(5) -0.0094(2) 0.2794(5)
O9 O 0.1911(6) 0.3546(3) 0.4027(5)
O10 O 0.1723(7) 0.4167(3) 0.3666(8)
O11 O 0.2906(5) 0.5249(2) 0.5222(5)
O12 O 0.3292(6) 0.5133(3) 0.6437(5)
O13 O 0.3083(6) 0.2393(2) 0.6459(5)
O14 O 0.3453(6) 0.2298(3) 0.7740(6)
O15 O 0.3086(5) 0.4008(3) 0.9287(5)
O16 O 0.3481(7) 0.3443(3) 0.9665(6)
O17 O 0.2265(7) 0.3599(3) 0.2178(8)
O18 O 0.2931(8) 0.3922(4) 0.1268(8)
O19 O 0.0617(6) 0.3432(3) 0.2732(6)
O20 O 0.4401(7) 0.4299(4) 0.0357(9)
O21 O 0.3029(7) 0.1434(3) 0.6843(6)
O22 O 0.2445(7) 0.0994(3) 0.7594(6)
O23 O 0.4384(6) 0.1834(3) 0.5969(7)
O24 O 0.0625(6) 0.0790(3) 0.8007(7)
C1 C 0.1813(9) 0.2554(4) 0.2520(10)
C2 C 0.2874(10) 0.1591(5) 0.4664(8)
C3 C 0.2065(8) 0.2125(4) 0.2853(7)
C4 C 0.2320(8) 0.2048(4) 0.3611(7)
H1 H 0.2327 0.2249 0.3996
C5 C 0.2564(8) 0.1672(4) 0.3793(7)
C6 C 0.2500(8) 0.1340(4) 0.3293(7)
H2 H 0.2652 0.1087 0.3454
C7 C 0.2187(8) 0.1407(4) 0.2518(7)
C8 C 0.1954(8) 0.1799(4) 0.2315(8)
H3 H 0.1726 0.1844 0.1825
C9 C 0.1869(8) 0.0889(4) -0.0282(7)
C10 C 0.1717(7) -0.0051(3) 0.2020(7)
C11 C 0.1948(8) 0.0820(3) 0.0575(7)
C12 C 0.1863(7) 0.0437(4) 0.0921(7)
H4 H 0.1794 0.0222 0.0578
C13 C 0.1873(7) 0.0361(3) 0.1726(6)
C14 C 0.1987(8) 0.0682(3) 0.2257(7)
H5 H 0.1989 0.0638 0.2806
C15 C 0.2103(8) 0.1082(3) 0.1945(7)
C16 C 0.2052(8) 0.1135(3) 0.1134(7)
H6 H 0.2088 0.1394 0.0936
C17 C 0.1982(10) 0.3906(5) 0.4158(8)
C18 C 0.3006(9) 0.5027(4) 0.5801(9)
C19 C 0.2249(8) 0.4056(4) 0.4946(7)
C20 C 0.2445(7) 0.4462(3) 0.5036(7)
H7 H 0.2361 0.4644 0.4626
C21 C 0.2744(8) 0.4575(4) 0.5701(7)
C22 C 0.2881(8) 0.4302(3) 0.6343(7)
H8 H 0.3089 0.4392 0.6817
C23 C 0.2707(8) 0.3920(3) 0.6253(8)
C24 C 0.2412(8) 0.3796(4) 0.5509(7)
H9 H 0.2332 0.3525 0.5416
C25 C 0.3278(9) 0.2505(4) 0.7239(9)
C26 C 0.3261(9) 0.3643(5) 0.9148(9)
C27 C 0.3120(8) 0.2928(3) 0.7400(7)
C28 C 0.3202(7) 0.3077(4) 0.8140(8)
H10 H 0.3316 0.2901 0.8553
C29 C 0.3122(8) 0.3500(4) 0.8331(7)
C30 C 0.2945(8) 0.3756(3) 0.7675(7)
H11 H 0.2863 0.4025 0.7784
C31 C 0.2887(8) 0.3633(3) 0.6899(7)
C32 C 0.2916(8) 0.3225(3) 0.6767(7)
H12 H 0.2802 0.3131 0.6259
C33 C 0.2443(12) 0.3738(6) 0.1575(12)
H13 H 0.2082 0.3690 0.1196
C34 C 0.0000 0.3340(6) 0.3117(12)
H14 H 0.0000 0.3220 0.3619
C35 C 0.5000 0.4185(8) 0.0313(17)
H15 H 0.5000 0.3913 0.0208
C36 C 0.2389(12) 0.1313(5) 0.7152(10)
H16 H 0.1950 0.1445 0.7060
C37 C 0.5000 0.1874(7) 0.6221(18)
H17 H 0.5000 0.1957 0.6751
C38 C 0.0000 0.0648(7) 0.8304(13)
H18 H 0.0000 0.0456 0.8705
O19B O -0.0617(6) 0.3432(3) 0.2732(6)
O20B O 0.5599(7) 0.4299(4) 0.0357(9)
O23B O 0.5616(6) 0.1834(3) 0.5969(7)
O24B O -0.0625(6) 0.0790(3) 0.8007(7)
Zn1B Zn -0.16515(8) 0.33557(4) 0.29845(8)
Zn2B Zn -0.33325(8) 0.18670(4) 0.61590(8)
Zn3B Zn -0.33261(9) 0.42158(4) 0.03494(8)
Zn4B Zn -0.16598(9) 0.06534(4) 0.81475(7)
O1B O -0.1877(5) 0.2791(2) 0.3184(5)
O2B O -0.1646(6) 0.2618(3) 0.1910(6)
O3B O -0.2884(6) 0.1888(3) 0.5100(5)
O4B O -0.3174(6) 0.1271(3) 0.4812(5)
O5B O -0.1895(7) 0.1247(3) -0.0531(5)
O6B O -0.1831(5) 0.0589(3) -0.0721(5)
O7B O -0.1617(6) -0.0319(3) 0.1588(5)
O8B O -0.1815(5) -0.0094(2) 0.2794(5)
O9B O -0.1911(6) 0.3546(3) 0.4027(5)
O10B O -0.1723(7) 0.4167(3) 0.3666(8)
O11B O -0.2906(5) 0.5249(2) 0.5222(5)
O12B O -0.3292(6) 0.5133(3) 0.6437(5)
O13B O -0.3083(6) 0.2393(2) 0.6459(5)
O14B O -0.3453(6) 0.2298(3) 0.7740(6)
O15B O -0.3086(5) 0.4008(3) 0.9287(5)
O16B O -0.3481(7) 0.3443(3) 0.9665(6)
O17B O -0.2265(7) 0.3599(3) 0.2178(8)
O18B O -0.2931(8) 0.3922(4) 0.1268(8)
O21B O -0.3029(7) 0.1434(3) 0.6843(6)
O22B O -0.2445(7) 0.0994(3) 0.7594(6)
C1B C -0.1813(9) 0.2554(4) 0.2520(10)
C2B C -0.2874(10) 0.1591(5) 0.4664(8)
C3B C -0.2065(8) 0.2125(4) 0.2853(7)
C4B C -0.2320(8) 0.2048(4) 0.3611(7)
H1B H -0.2327 0.2249 0.3996
C5B C -0.2564(8) 0.1672(4) 0.3793(7)
C6B C -0.2500(8) 0.1340(4) 0.3293(7)
H2B H -0.2652 0.1087 0.3454
C7B C -0.2187(8) 0.1407(4) 0.2518(7)
C8B C -0.1954(8) 0.1799(4) 0.2315(8)
H3B H -0.1726 0.1844 0.1825
C9B C -0.1869(8) 0.0889(4) -0.0282(7)
C10B C -0.1717(7) -0.0051(3) 0.2020(7)
C11B C -0.1948(8) 0.0820(3) 0.0575(7)
C12B C -0.1863(7) 0.0437(4) 0.0921(7)
H4B H -0.1794 0.0222 0.0578
C13B C -0.1873(7) 0.0361(3) 0.1726(6)
C14B C -0.1987(8) 0.0682(3) 0.2257(7)
H5B H -0.1989 0.0638 0.2806
C15B C -0.2103(8) 0.1082(3) 0.1945(7)
C16B C -0.2052(8) 0.1135(3) 0.1134(7)
H6B H -0.2088 0.1394 0.0936
C17B C -0.1982(10) 0.3906(5) 0.4158(8)
C18B C -0.3006(9) 0.5027(4) 0.5801(9)
C19B C -0.2249(8) 0.4056(4) 0.4946(7)
C20B C -0.2445(7) 0.4462(3) 0.5036(7)
H7B H -0.2361 0.4644 0.4626
C21B C -0.2744(8) 0.4575(4) 0.5701(7)
C22B C -0.2881(8) 0.4302(3) 0.6343(7)
H8B H -0.3089 0.4392 0.6817
C23B C -0.2707(8) 0.3920(3) 0.6253(8)
C24B C -0.2412(8) 0.3796(4) 0.5509(7)
H9B H -0.2332 0.3525 0.5416
C25B C -0.3278(9) 0.2505(4) 0.7239(9)
C26B C -0.3261(9) 0.3643(5) 0.9148(9)
C27B C -0.3120(8) 0.2928(3) 0.7400(7)
C28B C -0.3202(7) 0.3077(4) 0.8140(8)
H10B H -0.3316 0.2901 0.8553
C29B C -0.3122(8) 0.3500(4) 0.8331(7)
C30B C -0.2945(8) 0.3756(3) 0.7675(7)
H11B H -0.2863 0.4025 0.7784
C31B C -0.2887(8) 0.3633(3) 0.6899(7)
C32B C -0.2916(8) 0.3225(3) 0.6767(7)
H12B H -0.2802 0.3131 0.6259
C33B C -0.2443(12) 0.3738(6) 0.1575(12)
H13B H -0.2082 0.3690 0.1196
C36B C -0.2389(12) 0.1313(5) 0.7152(10)
H16B H -0.1950 0.1445 0.7060
Zn2B_2 Zn 0.66675(8) 0.18670(4) 0.61590(8)
Zn3_2 Zn 0.33261(9) 0.42158(4) 1.03494(8)
Zn3A Zn -0.33261(9) 0.57842(4) 0.53494(8)
Zn3B_2 Zn -0.33261(9) 0.42158(4) 1.03494(8)
Zn3B_3 Zn 0.66739(9) 0.42158(4) 0.03494(8)
Zn3C Zn 0.33261(9) 0.57842(4) 0.53494(8)
Zn4_2 Zn 0.16598(9) 0.06534(4) -0.18525(7)
Zn4A Zn -0.16598(9) -0.06534(4) 0.31475(7)
Zn4B_2 Zn -0.16598(9) 0.06534(4) -0.18525(7)
Zn4C Zn 0.16598(9) -0.06534(4) 0.31475(7)
O6_2 O 0.1831(5) 0.0589(3) 0.9279(5)
O6B_2 O -0.1831(5) 0.0589(3) 0.9279(5)
O8A O -0.1815(5) 0.0094(2) 0.7794(5)
O8C O 0.1815(5) 0.0094(2) 0.7794(5)
O11A O -0.2906(5) 0.4751(2) 0.0222(5)
O11C O 0.2906(5) 0.4751(2) 0.0222(5)
O15_2 O 0.3086(5) 0.4008(3) -0.0713(5)
O15B_2 O -0.3086(5) 0.4008(3) -0.0713(5)
O20B_2 O -0.4401(7) 0.4299(4) 0.0357(9)
O23B_2 O -0.4384(6) 0.1834(3) 0.5969(7)
loop_
_geom_bond_atom_site_label_1
_geom_bond_atom_site_label_2
_geom_bond_site_symmetry_1
_geom_bond_site_symmetry_2
Zn1 O1 1_555 1_555
Zn2 O3 1_555 1_555
Zn3 O18 1_555 1_555
Zn4 O22 1_555 1_555
O1 C1 1_555 1_555
O2 C1 1_555 1_555
O3 C2 1_555 1_555
O4 C2 1_555 1_555
O5 C9 1_555 1_555
O6 C9 1_555 1_555
O7 C10 1_555 1_555
O8 C10 1_555 1_555
O9 Zn1 1_555 1_555
O10 C17 1_555 1_555
O11 C18 1_555 1_555
O12 C18 1_555 1_555
O13 Zn2 1_555 1_555
O14 C25 1_555 1_555
O15 C26 1_555 1_555
O16 C26 1_555 1_555
O17 Zn1 1_555 1_555
O18 C33 1_555 1_555
O19 Zn1 1_555 1_555
O20 Zn3 1_555 1_555
O21 Zn2 1_555 1_555
O22 C36 1_555 1_555
O23 Zn2 1_555 1_555
O24 Zn4 1_555 1_555
C1 C3 1_555 1_555
C2 C5 1_555 1_555
C3 C4 1_555 1_555
C4 H1 1_555 1_555
C5 C4 1_555 1_555
C6 C5 1_555 1_555
H2 C6 1_555 1_555
C7 C6 1_555 1_555
C8 C3 1_555 1_555
H3 C8 1_555 1_555
C9 C11 1_555 1_555
C10 C13 1_555 1_555
C11 C12 1_555 1_555
C12 H4 1_555 1_555
C13 C12 1_555 1_555
C14 C13 1_555 1_555
H5 C14 1_555 1_555
C15 C7 1_555 1_555
C16 C11 1_555 1_555
H6 C16 1_555 1_555
C17 O9 1_555 1_555
C18 C21 1_555 1_555
C19 C17 1_555 1_555
C20 C19 1_555 1_555
H7 C20 1_555 1_555
C21 C20 1_555 1_555
C22 C21 1_555 1_555
H8 C22 1_555 1_555
C23 C22 1_555 1_555
C24 C19 1_555 1_555
H9 C24 1_555 1_555
C25 O13 1_555 1_555
C26 C29 1_555 1_555
C27 C25 1_555 1_555
C28 C27 1_555 1_555
H10 C28 1_555 1_555
C29 C28 1_555 1_555
C30 C29 1_555 1_555
H11 C30 1_555 1_555
C31 C23 1_555 1_555
C32 C27 1_555 1_555
H12 C32 1_555 1_555
C33 O17 1_555 1_555
H13 C33 1_555 1_555
C34 O19 1_555 1_555
H14 C34 1_555 1_555
C35 O20 1_555 1_555
H15 C35 1_555 1_555
C36 O21 1_555 1_555
H16 C36 1_555 1_555
C37 O23 1_555 1_555
H17 C37 1_555 1_555
C38 O24 1_555 1_555
H18 C38 1_555 1_555
O19B C34 1_555 1_555
O20B C35 1_555 1_555
O23B C37 1_555 1_555
O24B C38 1_555 1_555
Zn1B O19B 1_555 1_555
Zn2B O3B 1_555 1_555
Zn3B O18B 1_555 1_555
Zn4B O24B 1_555 1_555
O1B Zn1B 1_555 1_555
O2B C1B 1_555 1_555
O3B C2B 1_555 1_555
O4B C2B 1_555 1_555
O5B C9B 1_555 1_555
O6B C9B 1_555 1_555
O7B C10B 1_555 1_555
O8B C10B 1_555 1_555
O9B Zn1B 1_555 1_555
O10B C17B 1_555 1_555
O11B C18B 1_555 1_555
O12B C18B 1_555 1_555
O13B Zn2B 1_555 1_555
O14B C25B 1_555 1_555
O15B C26B 1_555 1_555
O16B C26B 1_555 1_555
O17B Zn1B 1_555 1_555
O18B C33B 1_555 1_555
O21B Zn2B 1_555 1_555
O22B Zn4B 1_555 1_555
C1B O1B 1_555 1_555
C2B C5B 1_555 1_555
C3B C1B 1_555 1_555
C4B C3B 1_555 1_555
H1B C4B 1_555 1_555
C5B C4B 1_555 1_555
C6B C5B 1_555 1_555
H2B C6B 1_555 1_555
C7B C6B 1_555 1_555
C8B C3B 1_555 1_555
H3B C8B 1_555 1_555
C9B C11B 1_555 1_555
C10B C13B 1_555 1_555
C11B C12B 1_555 1_555
C12B H4B 1_555 1_555
C13B C12B 1_555 1_555
C14B C13B 1_555 1_555
H5B C14B 1_555 1_555
C15B C7B 1_555 1_555
C16B C11B 1_555 1_555
H6B C16B 1_555 1_555
C17B O9B 1_555 1_555
C18B C21B 1_555 1_555
C19B C17B 1_555 1_555
C20B C19B 1_555 1_555
H7B C20B 1_555 1_555
C21B C20B 1_555 1_555
C22B C21B 1_555 1_555
H8B C22B 1_555 1_555
C23B C22B 1_555 1_555
C24B C19B 1_555 1_555
H9B C24B 1_555 1_555
C25B O13B 1_555 1_555
C26B C29B 1_555 1_555
C27B C25B 1_555 1_555
C28B C27B 1_555 1_555
H10B C28B 1_555 1_555
C29B C28B 1_555 1_555
C30B C29B 1_555 1_555
H11B C30B 1_555 1_555
C31B C23B 1_555 1_555
C32B C27B 1_555 1_555
H12B C32B 1_555 1_555
C33B O17B 1_555 1_555
H13B C33B 1_555 1_555
C36B O21B 1_555 1_555
H16B C36B 1_555 1_555
Zn2B_2 O23B 1_555 1_555
Zn3_2 O15 1_555 1_555
Zn3A O11B 1_555 1_555
Zn3B_2 O15B 1_555 1_555
Zn3B_3 O20B 1_555 1_555
Zn3C O11 1_555 1_555
Zn4_2 O6 1_555 1_555
Zn4A O8B 1_555 1_555
Zn4B_2 O6B 1_555 1_555
Zn4C O8 1_555 1_555
O6_2 Zn4 1_555 1_555
O6B_2 Zn4B 1_555 1_555
O8A Zn4B 1_555 1_555
O8C Zn4 1_555 1_555
O11A Zn3B 1_555 1_555
O11C Zn3 1_555 1_555
O15_2 Zn3 1_555 1_555
O15B_2 Zn3B 1_555 1_555
O20B_2 Zn3B 1_555 1_555
O23B_2 Zn2B 1_555 1_555
C7 C8 1_555 1_555
C14 C15 1_555 1_555
C15 C16 1_555 1_555
C23 C24 1_555 1_555
C30 C31 1_555 1_555
C31 C32 1_555 1_555
O22B C36B 1_555 1_555
C7B C8B 1_555 1_555
C14B C15B 1_555 1_555
C15B C16B 1_555 1_555
C23B C24B 1_555 1_555
C30B C31B 1_555 1_555
C31B C32B 1_555 1_555

#END
