
#######################################################################
#
#                 Cambridge Crystallographic Data Centre
#                                CCDC 
#
#######################################################################
#
# If this CIF has been generated from an entry in the Cambridge 
# Structural Database, then it will include bibliographic, chemical, 
# crystal, experimental, refinement or atomic coordinate data resulting 
# from the CCDC's data processing and validation procedures.
#
#######################################################################

data_FURFOP
_chemical_formula_moiety         '(C72 H82 N18 O18 S4 Zn4)n'
_symmetry_cell_setting           triclinic
_symmetry_space_group_name_H-M   'P -1'
_symmetry_Int_Tables_number      2
_space_group_name_Hall           '-P 1'
loop_
_symmetry_equiv_pos_site_id
_symmetry_equiv_pos_as_xyz
1 x,y,z
2 -x,-y,-z
_cell_length_a                   9.1337(4)
_cell_length_b                   14.4635(6)
_cell_length_c                   18.0343(9)
_cell_angle_alpha                93.353(4)
_cell_angle_beta                 102.988(4)
_cell_angle_gamma                91.068(4)
_cell_volume                     2316.27
loop_
_atom_site_label
_atom_site_type_symbol
_atom_site_fract_x
_atom_site_fract_y
_atom_site_fract_z
Zn1 Zn -0.83969(5) -0.26561(3) -0.40058(3)
Zn2 Zn -0.14622(6) 0.27461(3) -0.07534(3)
C1 C -0.2835(6) 0.1296(3) -0.1703(3)
C2 C -0.4077(6) 0.0602(3) -0.1962(2)
C3 C -0.5207(6) 0.0394(3) -0.1627(3)
H1 H -0.5310 0.0676 -0.1166
C4 C -0.6194(6) -0.0278(3) -0.2037(3)
H2 H -0.7031 -0.0497 -0.1878
C5 C -0.5832(5) -0.0593(3) -0.2694(2)
C6 C -0.6580(5) -0.1302(3) -0.3278(3)
C7 C -0.2389(5) 0.2497(3) 0.0727(3)
H3 H -0.3091 0.2025 0.0515
C8 C -0.2042(6) 0.2799(3) 0.1461(3)
H4 H -0.2464 0.2590 0.1847
C9 C -0.0709(5) 0.3566(3) 0.0851(2)
H5 H -0.0021 0.3992 0.0745
C10 C -0.0144(6) 0.3994(4) 0.2233(3)
H6 H 0.0923 0.3888 0.2306
H7 H -0.0474 0.3767 0.2666
C11 C -0.0389(6) 0.5013(3) 0.2210(2)
H8 H -0.1444 0.5132 0.2174
H9 H -0.0105 0.5244 0.1766
C12 C 0.0562(6) 0.5504(4) 0.2935(2)
H10 H 0.0262 0.5274 0.3374
H11 H 0.1610 0.5364 0.2974
C13 C 0.0402(6) 0.6509(4) 0.2943(2)
H12 H -0.0657 0.6648 0.2839
H13 H 0.0825 0.6753 0.2544
C14 C 0.2255(6) 0.7622(3) 0.3813(3)
H14 H 0.2712 0.7872 0.3454
C15 C 0.2550(6) 0.7852(3) 0.4556(3)
H15 H 0.3258 0.8303 0.4805
C16 C 0.0845(6) 0.6810(4) 0.4342(3)
H16 H 0.0117 0.6383 0.4406
C17 C 0.1312(6) 0.2317(3) -0.1332(3)
H17 H 0.0831 0.1877 -0.1709
C18 C 0.2763(7) 0.2599(4) -0.1207(3)
H18 H 0.3461 0.2388 -0.1476
C19 C 0.1741(6) 0.3327(4) -0.0392(3)
H19 H 0.1616 0.3719 0.0014
C20 C 0.4425(6) 0.3715(4) -0.0241(4)
H20 H 0.5203 0.3524 -0.0500
H21 H 0.4714 0.3536 0.0281
C21 C 0.4299(5) 0.4759(4) -0.0241(3)
H22 H 0.4146 0.4947 -0.0760
H23 H 0.3436 0.4942 -0.0044
C22 C -1.1396(6) -0.2250(4) -0.3648(3)
H24 H -1.1004 -0.1726 -0.3339
C23 C -1.2835(6) -0.2536(4) -0.3808(3)
H25 H -1.3612 -0.2256 -0.3633
C24 C -1.1560(5) -0.3475(3) -0.4380(3)
H26 H -1.1322 -0.3971 -0.4678
C25 C -1.4364(6) -0.3786(5) -0.4693(4)
H27 H -1.5157 -0.3624 -0.4435
H28 H -1.4637 -0.3569 -0.5203
C26 C -1.4252(6) -0.4778(4) -0.4744(3)
H29 H -1.4082 -0.5010 -0.4239
H30 H -1.3410 -0.4945 -0.4965
C27 C -0.2905(6) 0.4412(4) -0.1507(3)
C28 C -0.4225(5) 0.4484(3) -0.2153(3)
C29 C -0.5016(6) 0.3770(3) -0.2591(3)
H31 H -0.4794 0.3152 -0.2525
C30 C -0.6199(6) 0.4062(3) -0.3151(3)
H32 H -0.6851 0.3658 -0.3498
C31 C -0.6294(5) 0.4986(3) -0.3134(2)
C32 C -0.7394(5) 0.5558(3) -0.3629(2)
O1 O -0.2711(5) 0.1642(2) -0.10326(18)
O2 O -0.2020(5) 0.1492(3) -0.2126(2)
O3 O -0.7866(4) -0.1599(2) -0.32346(19)
O4 O -0.5950(4) -0.1576(2) -0.37841(19)
O5 O -0.2548(5) 0.3593(3) -0.1400(2)
O6 O -0.2309(4) 0.5101(3) -0.1149(2)
O7 O -0.8367(4) 0.5195(2) -0.41532(18)
O8 O -0.7212(4) 0.6415(2) -0.34502(18)
N1 N -0.1557(4) 0.2985(2) 0.03375(19)
N2 N -0.0953(5) 0.3471(3) 0.1536(2)
N3 N 0.1164(5) 0.6958(3) 0.36802(19)
N4 N 0.1681(4) 0.7339(2) 0.48986(19)
N5 N 0.0664(4) 0.2778(3) -0.0818(2)
N6 N 0.3018(5) 0.3248(3) -0.0616(2)
N7 N -1.0584(4) -0.2837(2) -0.40029(19)
N8 N -1.2942(5) -0.3314(3) -0.4277(2)
S1 S -0.42366(15) -0.00422(9) -0.28028(7)
S2 S -0.49261(14) 0.55187(8) -0.24231(7)
C17A C 0.8688(6) 0.7683(3) 0.1332(3)
H17A H 0.9169 0.8123 0.1709
C18A C 0.7237(7) 0.7401(4) 0.1207(3)
H18A H 0.6539 0.7612 0.1476
C19A C 0.8259(6) 0.6673(4) 0.0392(3)
H19A H 0.8384 0.6281 -0.0014
C20A C 0.5575(6) 0.6285(4) 0.0241(4)
H20A H 0.4797 0.6476 0.0500
H21A H 0.5286 0.6464 -0.0281
C21A C 0.5701(5) 0.5241(4) 0.0241(3)
H22A H 0.5854 0.5053 0.0760
H23A H 0.6564 0.5058 0.0044
N5A N 0.9336(4) 0.7222(3) 0.0818(2)
N6A N 0.6982(5) 0.6752(3) 0.0616(2)
C22A C -1.8604(6) -0.7750(4) -0.6352(3)
H24A H -1.8996 -0.8274 -0.6661
C23A C -1.7165(6) -0.7464(4) -0.6192(3)
H25A H -1.6388 -0.7744 -0.6367
C24A C -1.8440(5) -0.6525(3) -0.5620(3)
H26A H -1.8678 -0.6029 -0.5322
C25A C -1.5636(6) -0.6214(5) -0.5307(4)
H27A H -1.4843 -0.6376 -0.5565
H28A H -1.5363 -0.6431 -0.4797
C26A C -1.5748(6) -0.5222(4) -0.5256(3)
H29A H -1.5918 -0.4990 -0.5761
H30A H -1.6590 -0.5055 -0.5035
N7A N -1.9416(4) -0.7163(2) -0.59971(19)
N8A N -1.7058(5) -0.6686(3) -0.5723(2)
Zn1A Zn -2.16031(5) -0.73439(3) -0.59942(3)
Zn2A Zn -2.85378(6) -1.27461(3) -0.92466(3)
C1A C -2.7165(6) -1.1296(3) -0.8297(3)
C2A C -2.5923(6) -1.0602(3) -0.8038(2)
C3A C -2.4793(6) -1.0394(3) -0.8373(3)
H1A H -2.4690 -1.0676 -0.8834
C4A C -2.3806(6) -0.9722(3) -0.7963(3)
H2A H -2.2969 -0.9503 -0.8122
C5A C -2.4168(5) -0.9407(3) -0.7306(2)
C6A C -2.3420(5) -0.8698(3) -0.6722(3)
C7A C -2.7611(5) -1.2497(3) -1.0727(3)
H3A H -2.6909 -1.2025 -1.0515
C8A C -2.7958(6) -1.2799(3) -1.1461(3)
H4A H -2.7536 -1.2590 -1.1847
C9A C -2.9291(5) -1.3566(3) -1.0851(2)
H5A H -2.9979 -1.3992 -1.0745
C10A C -2.9856(6) -1.3994(4) -1.2233(3)
H6A H -3.0923 -1.3888 -1.2306
H7A H -2.9526 -1.3767 -1.2666
C11A C -2.9611(6) -1.5013(3) -1.2210(2)
H8A H -2.8556 -1.5132 -1.2174
H9A H -2.9895 -1.5244 -1.1766
C12A C -3.0562(6) -1.5504(4) -1.2935(2)
H10A H -3.0262 -1.5274 -1.3374
H11A H -3.1610 -1.5364 -1.2974
C13A C -3.0402(6) -1.6509(4) -1.2943(2)
H12A H -2.9343 -1.6648 -1.2839
H13A H -3.0825 -1.6753 -1.2544
C14A C -3.2255(6) -1.7622(3) -1.3813(3)
H14A H -3.2712 -1.7872 -1.3454
C15A C -3.2550(6) -1.7852(3) -1.4556(3)
H15A H -3.3258 -1.8303 -1.4805
C16A C -3.0845(6) -1.6810(4) -1.4342(3)
H16A H -3.0117 -1.6383 -1.4406
C27A C -2.7095(6) -1.4412(4) -0.8493(3)
C28A C -2.5775(5) -1.4484(3) -0.7847(3)
C29A C -2.4984(6) -1.3770(3) -0.7409(3)
H31A H -2.5206 -1.3152 -0.7475
C30A C -2.3801(6) -1.4062(3) -0.6849(3)
H32A H -2.3149 -1.3658 -0.6502
C31A C -2.3706(5) -1.4986(3) -0.6866(2)
C32A C -2.2606(5) -1.5558(3) -0.6371(2)
O1A O -2.7289(5) -1.1642(2) -0.89674(18)
O2A O -2.7980(5) -1.1492(3) -0.7874(2)
O3A O -2.2134(4) -0.8401(2) -0.67654(19)
O4A O -2.4050(4) -0.8424(2) -0.62159(19)
O5A O -2.7452(5) -1.3593(3) -0.8600(2)
O6A O -2.7691(4) -1.5101(3) -0.8851(2)
O7A O -2.1633(4) -1.5195(2) -0.58468(18)
O8A O -2.2788(4) -1.6415(2) -0.65498(18)
N1A N -2.8443(4) -1.2985(2) -1.03375(19)
N2A N -2.9047(5) -1.3471(3) -1.1536(2)
N3A N -3.1164(5) -1.6958(3) -1.36802(19)
N4A N -3.1681(4) -1.7339(2) -1.48986(19)
S1A S -2.57634(15) -0.99578(9) -0.71972(7)
S2A S -2.50739(14) -1.55187(8) -0.75769(7)
Zn1_2 Zn -0.83969(5) 0.73439(3) -0.40058(3)
Zn1_3 Zn 0.16031(5) 0.73439(3) 0.59942(3)
Zn1A_2 Zn -3.16031(5) -1.73439(3) -1.59942(3)
Zn1A_3 Zn -2.16031(5) -1.73439(3) -0.59942(3)
Zn2A_2 Zn 1.14622(6) 0.72539(3) 0.07534(3)
O8_2 O -0.7212(4) -0.3585(2) -0.34502(18)
O8A_2 O -2.2788(4) -0.6415(2) -0.65498(18)
N4_2 N -0.8319(4) -0.2661(2) -0.51014(19)
N4A_2 N -2.1681(4) -0.7339(2) -0.48986(19)
N5A_2 N -3.0664(4) -1.2778(3) -0.9182(2)
C33 C -0.6813(9) 0.1144(5) 0.0458(4)
C34 C -0.7593(8) 0.0350(5) -0.0039(4)
H33 H -0.7045 0.0185 -0.0421
H34 H -0.8589 0.0520 -0.0282
H35 H -0.7651 -0.0169 0.0263
C35 C -0.6604(8) 0.2259(4) 0.1500(4)
H36 H -0.5691 0.2412 0.1349
H37 H -0.6371 0.2095 0.2021
H38 H -0.7240 0.2784 0.1452
C36 C -0.8775(8) 0.1150(5) 0.1170(5)
H39 H -0.9200 0.0645 0.0813
H40 H -0.9466 0.1647 0.1126
H41 H -0.8585 0.0945 0.1678
O9 O -0.5599(6) 0.1463(4) 0.0351(3)
N9 N -0.7387(8) 0.1472(4) 0.1008(4)
C37 C -0.8092(11) 0.1271(6) -0.3562(6)
C38 C -0.9361(9) 0.0661(6) -0.3466(5)
H42 H -0.9731 0.0898 -0.3037
H43 H -0.9015 0.0045 -0.3380
H44 H -1.0153 0.0646 -0.3918
C39 C -0.6171(11) 0.1700(7) -0.4154(5)
H45 H -0.6030 0.2185 -0.3756
H46 H -0.6379 0.1965 -0.4641
H47 H -0.5275 0.1349 -0.4099
C40 C -0.7849(15) 0.0325(7) -0.4641(5)
H48 H -0.8692 -0.0014 -0.4544
H49 H -0.7012 -0.0074 -0.4606
H50 H -0.8112 0.0549 -0.5143
O10 O -0.7661(8) 0.1927(4) -0.3088(4)
N10 N -0.7457(10) 0.1078(5) -0.4101(5)
loop_
_geom_bond_atom_site_label_1
_geom_bond_atom_site_label_2
_geom_bond_site_symmetry_1
_geom_bond_site_symmetry_2
Zn1 O3 1_555 1_555
Zn2 O1 1_555 1_555
C1 C2 1_555 1_555
C2 C3 1_555 1_555
C3 H1 1_555 1_555
C4 C3 1_555 1_555
H2 C4 1_555 1_555
C5 C4 1_555 1_555
C6 C5 1_555 1_555
C7 H3 1_555 1_555
C8 C7 1_555 1_555
H4 C8 1_555 1_555
C9 H5 1_555 1_555
C10 H6 1_555 1_555
H7 C10 1_555 1_555
C11 C10 1_555 1_555
H8 C11 1_555 1_555
H9 C11 1_555 1_555
C12 C11 1_555 1_555
H10 C12 1_555 1_555
H11 C12 1_555 1_555
C13 C12 1_555 1_555
H12 C13 1_555 1_555
H13 C13 1_555 1_555
C14 H14 1_555 1_555
C15 C14 1_555 1_555
H15 C15 1_555 1_555
C16 H16 1_555 1_555
C17 H17 1_555 1_555
C18 C17 1_555 1_555
H18 C18 1_555 1_555
C19 H19 1_555 1_555
C20 H20 1_555 1_555
H21 C20 1_555 1_555
C21 C20 1_555 1_555
H22 C21 1_555 1_555
H23 C21 1_555 1_555
C22 H24 1_555 1_555
C23 C22 1_555 1_555
H25 C23 1_555 1_555
C24 H26 1_555 1_555
C25 H27 1_555 1_555
H28 C25 1_555 1_555
C26 C25 1_555 1_555
H29 C26 1_555 1_555
H30 C26 1_555 1_555
C27 C28 1_555 1_555
C28 C29 1_555 1_555
C29 H31 1_555 1_555
C30 C29 1_555 1_555
H32 C30 1_555 1_555
C31 C30 1_555 1_555
C32 C31 1_555 1_555
O1 C1 1_555 1_555
O2 C1 1_555 1_555
O3 C6 1_555 1_555
O4 C6 1_555 1_555
O5 Zn2 1_555 1_555
O6 C27 1_555 1_555
O7 C32 1_555 1_555
O8 C32 1_555 1_555
N1 Zn2 1_555 1_555
N2 C8 1_555 1_555
N3 C13 1_555 1_555
N4 C15 1_555 1_555
N5 Zn2 1_555 1_555
N6 C18 1_555 1_555
N7 Zn1 1_555 1_555
N8 C23 1_555 1_555
S1 C2 1_555 1_555
S2 C28 1_555 1_555
C33 C34 1_555 1_555
C34 H33 1_555 1_555
H34 C34 1_555 1_555
H35 C34 1_555 1_555
C35 H36 1_555 1_555
H37 C35 1_555 1_555
H38 C35 1_555 1_555
C36 H39 1_555 1_555
H40 C36 1_555 1_555
H41 C36 1_555 1_555
O9 C33 1_555 1_555
N9 C33 1_555 1_555
C37 C38 1_555 1_555
C38 H42 1_555 1_555
H43 C38 1_555 1_555
H44 C38 1_555 1_555
C39 H45 1_555 1_555
H46 C39 1_555 1_555
H47 C39 1_555 1_555
C40 H48 1_555 1_555
H49 C40 1_555 1_555
H50 C40 1_555 1_555
O10 C37 1_555 1_555
N10 C37 1_555 1_555
C17A H17A 1_555 1_555
C18A C17A 1_555 1_555
H18A C18A 1_555 1_555
C19A H19A 1_555 1_555
C20A H20A 1_555 1_555
H21A C20A 1_555 1_555
C21A C21 1_555 1_555
H22A C21A 1_555 1_555
H23A C21A 1_555 1_555
N5A C17A 1_555 1_555
N6A C18A 1_555 1_555
C22A H24A 1_555 1_555
C23A C22A 1_555 1_555
H25A C23A 1_555 1_555
C24A H26A 1_555 1_555
C25A H27A 1_555 1_555
H28A C25A 1_555 1_555
C26A C26 1_555 1_555
H29A C26A 1_555 1_555
H30A C26A 1_555 1_555
N7A C22A 1_555 1_555
N8A C23A 1_555 1_555
Zn1A N7A 1_555 1_555
Zn2A O1A 1_555 1_555
C1A C2A 1_555 1_555
C2A C3A 1_555 1_555
C3A H1A 1_555 1_555
C4A C3A 1_555 1_555
H2A C4A 1_555 1_555
C5A C4A 1_555 1_555
C6A C5A 1_555 1_555
C7A H3A 1_555 1_555
C8A C7A 1_555 1_555
H4A C8A 1_555 1_555
C9A H5A 1_555 1_555
C10A H6A 1_555 1_555
H7A C10A 1_555 1_555
C11A C10A 1_555 1_555
H8A C11A 1_555 1_555
H9A C11A 1_555 1_555
C12A C11A 1_555 1_555
H10A C12A 1_555 1_555
H11A C12A 1_555 1_555
C13A C12A 1_555 1_555
H12A C13A 1_555 1_555
H13A C13A 1_555 1_555
C14A H14A 1_555 1_555
C15A C14A 1_555 1_555
H15A C15A 1_555 1_555
C16A H16A 1_555 1_555
C27A C28A 1_555 1_555
C28A C29A 1_555 1_555
C29A H31A 1_555 1_555
C30A C29A 1_555 1_555
H32A C30A 1_555 1_555
C31A C30A 1_555 1_555
C32A C31A 1_555 1_555
O1A C1A 1_555 1_555
O2A C1A 1_555 1_555
O3A Zn1A 1_555 1_555
O4A C6A 1_555 1_555
O5A Zn2A 1_555 1_555
O6A C27A 1_555 1_555
O7A C32A 1_555 1_555
O8A C32A 1_555 1_555
N1A Zn2A 1_555 1_555
N2A C8A 1_555 1_555
N3A C13A 1_555 1_555
N4A C15A 1_555 1_555
S1A C2A 1_555 1_555
S2A C28A 1_555 1_555
Zn1_2 O8 1_555 1_555
Zn1_3 N4 1_555 1_555
Zn1A_2 N4A 1_555 1_555
Zn1A_3 O8A 1_555 1_555
Zn2A_2 N5A 1_555 1_555
O8_2 Zn1 1_555 1_555
O8A_2 Zn1A 1_555 1_555
N4_2 Zn1 1_555 1_555
N4A_2 Zn1A 1_555 1_555
N5A_2 Zn2A 1_555 1_555
C5 S1 1_555 1_555
C7 N1 1_555 1_555
C9 N1 1_555 1_555
C9 N2 1_555 1_555
C10 N2 1_555 1_555
C14 N3 1_555 1_555
C16 N3 1_555 1_555
C16 N4 1_555 1_555
C17 N5 1_555 1_555
C19 N5 1_555 1_555
C19 N6 1_555 1_555
C20 N6 1_555 1_555
C22 N7 1_555 1_555
C24 N7 1_555 1_555
C24 N8 1_555 1_555
C25 N8 1_555 1_555
C27 O5 1_555 1_555
C31 S2 1_555 1_555
C35 N9 1_555 1_555
C36 N9 1_555 1_555
C39 N10 1_555 1_555
C40 N10 1_555 1_555
C19A N5A 1_555 1_555
C19A N6A 1_555 1_555
C20A C21A 1_555 1_555
C20A N6A 1_555 1_555
C24A N7A 1_555 1_555
C24A N8A 1_555 1_555
C25A C26A 1_555 1_555
C25A N8A 1_555 1_555
C5A S1A 1_555 1_555
C6A O3A 1_555 1_555
C7A N1A 1_555 1_555
C9A N1A 1_555 1_555
C9A N2A 1_555 1_555
C10A N2A 1_555 1_555
C14A N3A 1_555 1_555
C16A N3A 1_555 1_555
C16A N4A 1_555 1_555
C27A O5A 1_555 1_555
C31A S2A 1_555 1_555

#END
