
#######################################################################
#
#                 Cambridge Crystallographic Data Centre
#                                CCDC 
#
#######################################################################
#
# If this CIF has been generated from an entry in the Cambridge 
# Structural Database, then it will include bibliographic, chemical, 
# crystal, experimental, refinement or atomic coordinate data resulting 
# from the CCDC's data processing and validation procedures.
#
#######################################################################

data_ETUXEW
_chemical_formula_moiety         '(C6 H20 N2 O12 P4 Zn3)n'
_symmetry_cell_setting           orthorhombic
_symmetry_space_group_name_H-M   'P b c n'
_symmetry_Int_Tables_number      60
_space_group_name_Hall           '-P 2n 2ab'
loop_
_symmetry_equiv_pos_site_id
_symmetry_equiv_pos_as_xyz
1 x,y,z
2 1/2+x,1/2+y,1/2-z
3 x,-y,1/2+z
4 1/2-x,1/2+y,z
5 -x,-y,-z
6 1/2-x,1/2-y,1/2+z
7 -x,y,1/2-z
8 1/2+x,1/2-y,-z
_cell_length_a                   12.7975(3)
_cell_length_b                   10.2182(3)
_cell_length_c                   14.8305(5)
_cell_angle_alpha                90
_cell_angle_beta                 90
_cell_angle_gamma                90
_cell_volume                     1939.35
loop_
_atom_site_label
_atom_site_type_symbol
_atom_site_fract_x
_atom_site_fract_y
_atom_site_fract_z
_atom_site_U_iso_or_equiv
_atom_site_thermal_displace_type
Zn1 Zn 0.66160(2) 0.49641(3) 0.06242(2) 0.0235 Uani
Zn2 Zn 0.5000 0.29115(4) 0.2500 0.0259 Uani
P1 P 0.43009(5) 0.52847(7) 0.13144(5) 0.0236 Uani
H1 H 0.4018(18) 0.593(3) 0.2043(18) 0.0300 Uiso
P2 P 0.70418(5) 0.21315(6) 0.15150(5) 0.0221 Uani
H2 H 0.7746(17) 0.177(2) 0.2104(17) 0.0210 Uiso
O1 O 0.53785(13) 0.58014(18) 0.10865(14) 0.0335 Uani
O2 O 0.71788(14) 0.35834(18) 0.13768(13) 0.0316 Uani
O3 O 0.34910(13) 0.5640(2) 0.06068(12) 0.0326 Uani
O4 O 0.72734(13) 0.13215(18) 0.06693(12) 0.0269 Uani
O5 O 0.42937(15) 0.3844(2) 0.15436(13) 0.0400 Uani
O6 O 0.59834(14) 0.17500(18) 0.18961(14) 0.0356 Uani
P1F P 0.56991(5) 0.52847(7) 0.36856(5) 0.0236 Uani
H1F H 0.5982(18) 0.593(3) 0.2957(18) 0.0300 Uiso
O1F O 0.46215(13) 0.58014(18) 0.39135(14) 0.0335 Uani
O3F O 0.65090(13) 0.5640(2) 0.43932(12) 0.0326 Uani
O5F O 0.57063(15) 0.3844(2) 0.34564(13) 0.0400 Uani
P2F P 0.29582(5) 0.21315(6) 0.34850(5) 0.0221 Uani
H2F H 0.2254(17) 0.177(2) 0.2896(17) 0.0210 Uiso
O2F O 0.28212(14) 0.35834(18) 0.36232(13) 0.0316 Uani
O4F O 0.27266(13) 0.13215(18) 0.43307(12) 0.0269 Uani
O6F O 0.40166(14) 0.17500(18) 0.31039(14) 0.0356 Uani
Zn1F Zn 0.33840(2) 0.49641(3) 0.43758(2) 0.0235 Uani
O3D O 0.65090(13) 0.4360(2) -0.06068(12) 0.0326 Uani
O4C O 0.77266(13) 0.63215(18) 0.06693(12) 0.0269 Uani
Zn1D Zn 0.33840(2) 0.50359(3) -0.06242(2) 0.0235 Uani
Zn1C Zn 0.83840(2) -0.00359(3) 0.06242(2) 0.0235 Uani
Zn1B Zn 0.66160(2) 0.50359(3) 0.56242(2) 0.0235 Uani
Zn1A Zn 0.16160(2) -0.00359(3) 0.43758(2) 0.0235 Uani
O3B O 0.34910(13) 0.4360(2) 0.56068(12) 0.0326 Uani
O4A O 0.22734(13) 0.63215(18) 0.43307(12) 0.0269 Uani
N1 N 0.57964(18) -0.0558(2) 0.44065(18) 0.0324 Uani
H3 H 0.6141(18) -0.094(2) 0.4808(17) 0.0100 Uiso
C1 C 0.5787(3) 0.0864(3) 0.4643(2) 0.0360 Uani
H4 H 0.647(2) 0.113(3) 0.463(2) 0.0390 Uiso
H5 H 0.539(2) 0.130(3) 0.4185(19) 0.0270 Uiso
C2 C 0.4705(2) -0.1084(3) 0.4446(2) 0.0386 Uani
H6 H 0.431(2) -0.067(3) 0.394(2) 0.0360 Uiso
H7 H 0.473(2) -0.196(3) 0.431(2) 0.0500 Uiso
C3 C 0.6287(3) -0.0805(4) 0.3509(3) 0.0510 Uani
H8 H 0.623(3) -0.181(4) 0.333(3) 0.0730 Uiso
H9 H 0.597(4) -0.033(5) 0.311(4) 0.1020 Uiso
H10 H 0.705(3) -0.058(4) 0.354(2) 0.0700 Uiso
C2D C 0.5295(2) 0.1084(3) 0.5554(2) 0.0386 Uani
N1D N 0.42036(18) 0.0558(2) 0.55935(18) 0.0324 Uani
H3D H 0.3859(18) 0.094(2) 0.5192(17) 0.0100 Uiso
C1D C 0.4213(3) -0.0864(3) 0.5357(2) 0.0360 Uani
H4D H 0.353(2) -0.113(3) 0.537(2) 0.0390 Uiso
H5D H 0.461(2) -0.130(3) 0.5815(19) 0.0270 Uiso
C3D C 0.3713(3) 0.0805(4) 0.6491(3) 0.0510 Uani
H8D H 0.377(3) 0.181(4) 0.667(3) 0.0730 Uiso
H9D H 0.403(4) 0.033(5) 0.689(4) 0.1020 Uiso
H10D H 0.295(3) 0.058(4) 0.646(2) 0.0700 Uiso
H6D H 0.569(2) 0.067(3) 0.606(2) 0.0360 Uiso
H7D H 0.527(2) 0.196(3) 0.569(2) 0.0500 Uiso
loop_
_atom_site_aniso_label
_atom_site_aniso_U_11
_atom_site_aniso_U_22
_atom_site_aniso_U_33
_atom_site_aniso_U_23
_atom_site_aniso_U_13
_atom_site_aniso_U_12
Zn1 0.0200(2) 0.0225(2) 0.0281(2) -0.00011(13) -0.00247(13) -0.00153(11)
Zn2 0.0282(3) 0.0243(3) 0.0251(3) 0.000 0.00362(18) 0.000
P1 0.0208(4) 0.0295(4) 0.0206(4) -0.0010(3) -0.0006(3) 0.0029(3)
P2 0.0215(4) 0.0213(4) 0.0235(4) 0.0004(3) -0.0024(3) 0.0037(3)
O1 0.0233(10) 0.0286(11) 0.0485(13) -0.0027(10) 0.0021(9) 0.0014(8)
O2 0.0353(11) 0.0243(10) 0.0352(12) 0.0014(9) -0.0081(9) 0.0003(8)
O3 0.0282 0.0395 0.0301 -0.0025 -0.0062 0.0079
O4 0.0235 0.0294 0.0277 -0.0032 0.0001 0.0075
O5 0.0416(12) 0.0385(12) 0.0400(14) 0.0128(10) -0.0081(9) -0.0064(9)
O6 0.0323 0.033 0.0415 -0.0084 0.0118 -0.0027
P1F 0.0208 0.0295 0.0206 0.001 -0.0006 -0.0029
O1F 0.0233 0.0286 0.0485 0.0027 0.0021 -0.0014
O3F 0.0282 0.0395 0.0301 0.0025 -0.0062 -0.0079
O5F 0.0416 0.0385 0.04 -0.0128 -0.0081 0.0064
P2F 0.0215 0.0213 0.0235 -0.0004 -0.0024 -0.0037
O2F 0.0353 0.0243 0.0352 -0.0014 -0.0081 -0.0003
O4F 0.0235 0.0294 0.0277 0.0032 0.0001 -0.0075
O6F 0.0323 0.033 0.0415 0.0084 0.0118 0.0027
Zn1F 0.02 0.0225 0.0281 0.00011 -0.00247 0.00153
O3D 0.0282 0.0395 0.0301 -0.0025 -0.0062 0.0079
O4C 0.0235 0.0294 0.0277 -0.0032 -0.0001 -0.0075
Zn1D 0.02 0.0225 0.0281 -0.00011 -0.00247 -0.00153
Zn1C 0.02 0.0225 0.0281 -0.00011 0.00247 0.00153
Zn1B 0.02 0.0225 0.0281 0.00011 -0.00247 0.00153
Zn1A 0.02 0.0225 0.0281 0.00011 0.00247 -0.00153
O3B 0.0282 0.0395 0.0301 0.0025 -0.0062 -0.0079
O4A 0.0235 0.0294 0.0277 0.0032 -0.0001 0.0075
N1 0.0291(14) 0.0300(14) 0.0381(16) 0.0049(12) -0.0105(11) 0.0016(11)
C1 0.0310(18) 0.0251(16) 0.052(2) 0.0072(15) -0.0111(15) -0.0035(14)
C2 0.0335(18) 0.0262(18) 0.056(2) -0.0050(17) -0.0108(16) -0.0027(13)
C3 0.045(2) 0.063(3) 0.045(2) -0.003(2) -0.0018(17) -0.0029(19)
C2D 0.0335 0.0262 0.056 -0.005 -0.0108 -0.0027
N1D 0.0291 0.03 0.0381 0.0049 -0.0105 0.0016
C1D 0.031 0.0251 0.052 0.0072 -0.0111 -0.0035
C3D 0.045 0.063 0.045 -0.003 -0.0018 -0.0029
loop_
_geom_bond_atom_site_label_1
_geom_bond_atom_site_label_2
_geom_bond_site_symmetry_1
_geom_bond_site_symmetry_2
Zn1 O1 1_555 1_555
Zn2 O5 1_555 1_555
P1 H1 1_555 1_555
P2 H2 1_555 1_555
O1 P1 1_555 1_555
O2 Zn1 1_555 1_555
O3 P1 1_555 1_555
O4 P2 1_555 1_555
O5 P1 1_555 1_555
O6 Zn2 1_555 1_555
N1 H3 1_555 1_555
C1 N1 1_555 1_555
H4 C1 1_555 1_555
H5 C1 1_555 1_555
C2 N1 1_555 1_555
H6 C2 1_555 1_555
H7 C2 1_555 1_555
C3 N1 1_555 1_555
H8 C3 1_555 1_555
H9 C3 1_555 1_555
H10 C3 1_555 1_555
C2D C1 1_555 1_555
N1D C2D 1_555 1_555
H3D N1D 1_555 1_555
C1D C2 1_555 1_555
H4D C1D 1_555 1_555
H5D C1D 1_555 1_555
C3D N1D 1_555 1_555
H8D C3D 1_555 1_555
H9D C3D 1_555 1_555
H10D C3D 1_555 1_555
H6D C2D 1_555 1_555
H7D C2D 1_555 1_555
P1F H1F 1_555 1_555
O1F P1F 1_555 1_555
O3F P1F 1_555 1_555
O5F Zn2 1_555 1_555
P2F H2F 1_555 1_555
O2F P2F 1_555 1_555
O4F P2F 1_555 1_555
O6F Zn2 1_555 1_555
Zn1F O1F 1_555 1_555
O3D Zn1 1_555 1_555
O4C Zn1 1_555 1_555
Zn1D O3 1_555 1_555
Zn1C O4 1_555 1_555
Zn1B O3F 1_555 1_555
Zn1A O4F 1_555 1_555
O3B Zn1F 1_555 1_555
O4A Zn1F 1_555 1_555
P2 O2 1_555 1_555
P2 O6 1_555 1_555
N1D C1D 1_555 1_555
P1F O5F 1_555 1_555
P2F O6F 1_555 1_555
O2F Zn1F 1_555 1_555

#END
