
#######################################################################
#
#                 Cambridge Crystallographic Data Centre
#                                CCDC 
#
#######################################################################
#
# If this CIF has been generated from an entry in the Cambridge 
# Structural Database, then it will include bibliographic, chemical, 
# crystal, experimental, refinement or atomic coordinate data resulting 
# from the CCDC's data processing and validation procedures.
#
#######################################################################

data_DOYMUB
_chemical_formula_moiety         '(C42 H26 Co3 N4 O14)n'
_symmetry_cell_setting           monoclinic
_symmetry_space_group_name_H-M   'C 2/c'
_symmetry_Int_Tables_number      15
_space_group_name_Hall           '-C 2yc'
loop_
_symmetry_equiv_pos_site_id
_symmetry_equiv_pos_as_xyz
1 x,y,z
2 -x,y,1/2-z
3 1/2+x,1/2+y,z
4 1/2-x,1/2+y,1/2-z
5 -x,-y,-z
6 x,-y,1/2+z
7 1/2-x,1/2-y,-z
8 1/2+x,1/2-y,1/2+z
_cell_length_a                   31.3901(7)
_cell_length_b                   10.9106(2)
_cell_length_c                   15.8458(3)
_cell_angle_alpha                90
_cell_angle_beta                 90.5530(10)
_cell_angle_gamma                90
_cell_volume                     5426.69
loop_
_atom_site_label
_atom_site_type_symbol
_atom_site_fract_x
_atom_site_fract_y
_atom_site_fract_z
Co1 Co 0.645640(13) 0.66445(4) -0.52095(2)
Co2 Co 0.7500 0.7500 -0.5000
O1 O 0.57391(10) 0.2527(3) -0.4761(2)
O2 O 0.65752(7) 0.7594(2) -0.62460(13)
O3 O 0.72403(6) 0.8296(2) -0.60594(12)
O4 O 0.62609(7) 1.1826(3) -0.94682(17)
O5 O 0.69078(6) 1.24605(19) -0.93555(11)
O6 O 0.67310(7) 0.50248(19) -0.51499(16)
O7 O 0.73786(7) 0.57564(19) -0.53904(13)
N1 N 0.58777(8) 0.6015(3) -0.56673(16)
N2 N 0.52271(10) 0.3207(3) -0.5658(2)
H1 H 0.4998 0.2991 -0.5919
C1 C 0.56246(11) 0.6750(4) -0.6111(2)
H2 H 0.5714 0.7545 -0.6225
C2 C 0.52350(14) 0.6367(5) -0.6407(3)
H3 H 0.5060 0.6903 -0.6708
C3 C 0.51056(14) 0.5197(5) -0.6257(3)
H4 H 0.4842 0.4930 -0.6459
C4 C 0.53667(11) 0.4400(4) -0.5800(2)
C5 C 0.57540(10) 0.4860(3) -0.5516(2)
H5 H 0.5935 0.4348 -0.5209
C6 C 0.54123(13) 0.2336(4) -0.5153(3)
C7 C 0.51882(12) 0.1147(4) -0.5095(3)
C8 C 0.47524(12) 0.1001(4) -0.5206(3)
H6 H 0.4583 0.1671 -0.5348
C9 C 0.45711(12) -0.0138(4) -0.5107(3)
H7 H 0.4278 -0.0225 -0.5178
C10 C 0.68888(11) 0.8284(3) -0.64217(19)
C11 C 0.68258(10) 0.9167(3) -0.71466(19)
C12 C 0.6422(4) 0.9342(11) -0.7522(10)
H8 H 0.6195 0.8868 -0.7339
C13 C 0.6353(5) 1.0180(15) -0.8144(9)
H9 H 0.6080 1.0315 -0.8359
C14 C 0.66958(10) 1.0825(3) -0.8448(2)
C15 C 0.70576(9) 1.0883(3) -0.79567(18)
H10 H 0.7262 1.1481 -0.8060
C16 C 0.71184(9) 1.0057(3) -0.73117(19)
H11 H 0.7364 1.0106 -0.6981
C17 C 0.66194(10) 1.1739(3) -0.9131(2)
C18 C 0.71340(11) 0.4905(3) -0.52238(19)
C19 C 0.73186(11) 0.3651(3) -0.5109(2)
C20 C 0.77487(12) 0.3487(4) -0.5135(3)
H12 H 0.7924 0.4161 -0.5230
C21 C 0.79301(12) 0.2353(3) -0.5026(3)
H13 H 0.8225 0.2268 -0.5045
O1D O 0.42609(10) -0.2527(3) -0.5239(2)
N1D N 0.41223(8) -0.6015(3) -0.43327(16)
N2D N 0.47729(10) -0.3207(3) -0.4342(2)
H1D H 0.5002 -0.2991 -0.4081
C1D C 0.43754(11) -0.6750(4) -0.3889(2)
H2D H 0.4286 -0.7545 -0.3775
C2D C 0.47650(14) -0.6367(5) -0.3593(3)
H3D H 0.4940 -0.6903 -0.3292
C3D C 0.48944(14) -0.5197(5) -0.3743(3)
H4D H 0.5158 -0.4930 -0.3541
C4D C 0.46333(11) -0.4400(4) -0.4200(2)
C5D C 0.42460(10) -0.4860(3) -0.4484(2)
H5D H 0.4065 -0.4348 -0.4791
C6D C 0.45877(13) -0.2336(4) -0.4847(3)
C7D C 0.48118(12) -0.1147(4) -0.4905(3)
C8D C 0.52476(12) -0.1001(4) -0.4794(3)
H6D H 0.5417 -0.1671 -0.4652
C9D C 0.54289(12) 0.0138(4) -0.4893(3)
H7D H 0.5722 0.0225 -0.4822
O6F O 0.82690(7) -0.00248(19) -0.48501(16)
O7F O 0.76214(7) -0.07564(19) -0.46096(13)
C18F C 0.78660(11) 0.0095(3) -0.47762(19)
C19F C 0.76814(11) 0.1349(3) -0.4891(2)
C20F C 0.72513(12) 0.1513(4) -0.4865(3)
H12F H 0.7076 0.0839 -0.4770
C21F C 0.70699(12) 0.2647(3) -0.4974(3)
H13F H 0.6775 0.2732 -0.4955
Co1D Co 0.354360(13) -0.66445(4) -0.47905(2)
O2D O 0.34248(7) -0.7594(2) -0.37540(13)
O3D O 0.27597(6) -0.8296(2) -0.39406(12)
O4D O 0.37391(7) -1.1826(3) -0.05318(17)
O5D O 0.30922(6) -1.24605(19) -0.06445(11)
C10D C 0.31112(11) -0.8284(3) -0.35783(19)
C11D C 0.31742(10) -0.9167(3) -0.28534(19)
C12D C 0.3578(4) -0.9342(11) -0.2478(10)
H8D H 0.3805 -0.8868 -0.2661
C13D C 0.3647(5) -1.0180(15) -0.1856(9)
H9D H 0.3920 -1.0315 -0.1641
C14D C 0.33042(10) -1.0825(3) -0.1552(2)
C15D C 0.29424(9) -1.0883(3) -0.20433(18)
H10D H 0.2738 -1.1481 -0.1940
C16D C 0.28816(9) -1.0057(3) -0.26883(19)
H11D H 0.2636 -1.0106 -0.3019
C17D C 0.33806(10) -1.1739(3) -0.0869(2)
Co1A Co 0.354360(13) -1.33555(4) 0.02095(2)
Co1E Co 0.645640(13) 1.33555(4) -1.02095(2)
Co1F Co 0.854360(13) -0.16445(4) -0.47905(2)
Co2_2 Co 0.7500 -0.2500 -0.5000
Co2A Co 0.2500 -1.2500 0.0000
Co2B Co 0.2500 -0.7500 -0.5000
Co2C Co 0.7500 1.2500 -1.0000
O3F O 0.77597(6) 0.6704(2) -0.39406(12)
O4A O 0.37391(7) -0.8174(3) -0.55318(17)
O4E O 0.62609(7) 0.8174(3) -0.44682(17)
O5A O 0.30922(6) -0.75395(19) -0.56445(11)
O5C O 0.80922(6) 0.74605(19) -0.56445(11)
O5E O 0.69078(6) 0.75395(19) -0.43555(11)
O6D O 0.32690(7) -0.50248(19) -0.48501(16)
O7F_2 O 0.76214(7) 0.92436(19) -0.46096(13)
loop_
_geom_bond_atom_site_label_1
_geom_bond_atom_site_label_2
_geom_bond_site_symmetry_1
_geom_bond_site_symmetry_2
Co1 O2 1_555 1_555
Co2 O3 1_555 1_555
O1 C6 1_555 1_555
O2 C10 1_555 1_555
O3 C10 1_555 1_555
O4 C17 1_555 1_555
O5 C17 1_555 1_555
O6 Co1 1_555 1_555
O7 Co2 1_555 1_555
N1 Co1 1_555 1_555
N2 H1 1_555 1_555
C1 N1 1_555 1_555
H2 C1 1_555 1_555
C2 C1 1_555 1_555
H3 C2 1_555 1_555
C3 C2 1_555 1_555
H4 C3 1_555 1_555
C4 N2 1_555 1_555
C5 N1 1_555 1_555
H5 C5 1_555 1_555
C6 N2 1_555 1_555
C7 C6 1_555 1_555
C8 C7 1_555 1_555
H6 C8 1_555 1_555
C9 C8 1_555 1_555
H7 C9 1_555 1_555
C10 C11 1_555 1_555
C11 C12 1_555 1_555
C12 H8 1_555 1_555
C13 C12 1_555 1_555
H9 C13 1_555 1_555
C14 C13 1_555 1_555
C15 C14 1_555 1_555
H10 C15 1_555 1_555
C16 C11 1_555 1_555
H11 C16 1_555 1_555
C17 C14 1_555 1_555
C18 O6 1_555 1_555
C19 C18 1_555 1_555
C20 C19 1_555 1_555
H12 C20 1_555 1_555
C21 C20 1_555 1_555
H13 C21 1_555 1_555
O1D C6D 1_555 1_555
N1D C1D 1_555 1_555
N2D H1D 1_555 1_555
C1D H2D 1_555 1_555
C2D C1D 1_555 1_555
H3D C2D 1_555 1_555
C3D C2D 1_555 1_555
H4D C3D 1_555 1_555
C4D N2D 1_555 1_555
C5D N1D 1_555 1_555
H5D C5D 1_555 1_555
C6D N2D 1_555 1_555
C7D C9 1_555 1_555
C8D C7D 1_555 1_555
H6D C8D 1_555 1_555
C9D C7 1_555 1_555
H7D C9D 1_555 1_555
O6F C18F 1_555 1_555
O7F C18F 1_555 1_555
C18F C19F 1_555 1_555
C19F C21 1_555 1_555
C20F C19F 1_555 1_555
H12F C20F 1_555 1_555
C21F C19 1_555 1_555
H13F C21F 1_555 1_555
Co1D N1D 1_555 1_555
O2D Co1D 1_555 1_555
O3D C10D 1_555 1_555
O4D C17D 1_555 1_555
O5D C17D 1_555 1_555
C10D O2D 1_555 1_555
C11D C10D 1_555 1_555
C12D C11D 1_555 1_555
H8D C12D 1_555 1_555
C13D C12D 1_555 1_555
H9D C13D 1_555 1_555
C14D C13D 1_555 1_555
C15D C14D 1_555 1_555
H10D C15D 1_555 1_555
C16D C11D 1_555 1_555
H11D C16D 1_555 1_555
C17D C14D 1_555 1_555
Co1A O4D 1_555 1_555
Co1E O4 1_555 1_555
Co1F O6F 1_555 1_555
Co2_2 O7F 1_555 1_555
Co2A O5D 1_555 1_555
Co2B O3D 1_555 1_555
Co2C O5 1_555 1_555
O3F Co2 1_555 1_555
O4A Co1D 1_555 1_555
O4E Co1 1_555 1_555
O5A Co1D 1_555 1_555
O5C Co2 1_555 1_555
O5E Co1 1_555 1_555
O6D Co1D 1_555 1_555
O7F_2 Co2 1_555 1_555
Co2 O5E 1_555 1_555
O5 Co1E 1_555 1_555
O7 C18 1_555 1_555
C3 C4 1_555 1_555
C4 C5 1_555 1_555
C15 C16 1_555 1_555
C3D C4D 1_555 1_555
C4D C5D 1_555 1_555
C6D C7D 1_555 1_555
C8D C9D 1_555 1_555
C20F C21F 1_555 1_555
O5D Co1A 1_555 1_555
C15D C16D 1_555 1_555
Co2B O5A 1_555 1_555

#END
