
#######################################################################
#
#                 Cambridge Crystallographic Data Centre
#                                CCDC 
#
#######################################################################
#
# If this CIF has been generated from an entry in the Cambridge 
# Structural Database, then it will include bibliographic, chemical, 
# crystal, experimental, refinement or atomic coordinate data resulting 
# from the CCDC's data processing and validation procedures.
#
#######################################################################

data_PEPXIS
_chemical_formula_moiety         '(C6 H6 Cl1 N9 Zn2)n'
_symmetry_cell_setting           orthorhombic
_symmetry_space_group_name_H-M   'P n m a'
_symmetry_Int_Tables_number      62
_space_group_name_Hall           '-P 2ac 2n'
loop_
_symmetry_equiv_pos_site_id
_symmetry_equiv_pos_as_xyz
1 x,y,z
2 1/2-x,-y,1/2+z
3 -x,1/2+y,-z
4 1/2+x,1/2-y,1/2-z
5 -x,-y,-z
6 1/2+x,y,1/2-z
7 x,1/2-y,z
8 1/2-x,1/2+y,1/2+z
_cell_length_a                   7.5093(11)
_cell_length_b                   9.9120(13)
_cell_length_c                   17.457(2)
_cell_angle_alpha                90
_cell_angle_beta                 90
_cell_angle_gamma                90
_cell_volume                     1299.36
loop_
_atom_site_label
_atom_site_type_symbol
_atom_site_fract_x
_atom_site_fract_y
_atom_site_fract_z
Zn1 Zn 0.52772(11) 0.2500 0.26598(5)
Zn2 Zn 0.38756(13) -0.2500 0.07773(5)
C1 C 0.5946(11) 0.2500 0.0877(4)
H1 H 0.4714 0.2500 0.0823
C2 C 0.1714(8) -0.0100(6) 0.1452(3)
H2 H 0.0630 -0.0313 0.1225
C3 C 0.8687(11) 0.2500 0.0639(4)
H3 H 0.9772 0.2500 0.0382
C4 C 0.4403(8) -0.0172(6) 0.1792(3)
H4 H 0.5582 -0.0442 0.1847
N1 N 0.3736(6) 0.0910(4) 0.2118(2)
N2 N 0.3205(6) -0.0846(4) 0.1372(2)
N3 N 0.6766(8) 0.2500 0.1546(3)
N4 N 0.8535(9) 0.2500 0.1381(4)
N5 N 0.1974(6) 0.0969(4) 0.1892(2)
N6 N 0.7088(9) 0.2500 0.0282(3)
Cl1 Cl 0.6889(3) -0.2500 0.07121(15)
Zn1E Zn 1.02772(11) 0.2500 0.23402(5)
Zn1E_2 Zn 0.02772(11) 0.2500 0.23402(5)
Zn2D Zn 0.61244(13) 0.2500 -0.07773(5)
Zn2_2 Zn 0.38756(13) 0.7500 0.07773(5)
C2F C 0.1714(8) 0.5100(6) 0.1452(3)
H2F H 0.0630 0.5313 0.1225
C4F C 0.4403(8) 0.5172(6) 0.1792(3)
H4F H 0.5582 0.5442 0.1847
N1F N 0.3736(6) 0.4090(4) 0.2118(2)
N2F N 0.3205(6) 0.5846(4) 0.1372(2)
N2F_2 N 0.3205(6) -0.4154(4) 0.1372(2)
N4E N 0.3535(9) 0.2500 0.3619(4)
N5F N 0.1974(6) 0.4031(4) 0.1892(2)
N5E N 0.6974(6) 0.0969(4) 0.3108(2)
N5C N 0.6974(6) 0.4031(4) 0.3108(2)
N6D N 0.2912(9) -0.2500 -0.0282(3)
loop_
_geom_bond_atom_site_label_1
_geom_bond_atom_site_label_2
_geom_bond_site_symmetry_1
_geom_bond_site_symmetry_2
Zn1 N1 1_555 1_555
Zn2 N2 1_555 1_555
C1 H1 1_555 1_555
C2 H2 1_555 1_555
C3 H3 1_555 1_555
C4 H4 1_555 1_555
N1 C4 1_555 1_555
N2 C2 1_555 1_555
N3 Zn1 1_555 1_555
N4 C3 1_555 1_555
N5 C2 1_555 1_555
N6 C1 1_555 1_555
Cl1 Zn2 1_555 1_555
Zn1E N4 1_555 1_555
Zn1E_2 N5 1_555 1_555
Zn2D N6 1_555 1_555
Zn2_2 N2F 1_555 1_555
C2F H2F 1_555 1_555
C4F H4F 1_555 1_555
N1F Zn1 1_555 1_555
N2F C2F 1_555 1_555
N2F_2 Zn2 1_555 1_555
N4E Zn1 1_555 1_555
N5F Zn1E_2 1_555 1_555
N5E Zn1 1_555 1_555
N5C Zn1 1_555 1_555
N6D Zn2 1_555 1_555
C1 N3 1_555 1_555
C3 N6 1_555 1_555
C4 N2 1_555 1_555
N1 N5 1_555 1_555
N3 N4 1_555 1_555
C2F N5F 1_555 1_555
C4F N1F 1_555 1_555
C4F N2F 1_555 1_555
N1F N5F 1_555 1_555

#END
