
#######################################################################
#
#                 Cambridge Crystallographic Data Centre
#                                CCDC 
#
#######################################################################
#
# If this CIF has been generated from an entry in the Cambridge 
# Structural Database, then it will include bibliographic, chemical, 
# crystal, experimental, refinement or atomic coordinate data resulting 
# from the CCDC's data processing and validation procedures.
#
#######################################################################

data_LILZOW
_chemical_formula_moiety         'C44 N3 O12 Zn7'
_symmetry_cell_setting           orthorhombic
_symmetry_space_group_name_H-M   'F 2 2 2'
_symmetry_Int_Tables_number      22
_space_group_name_Hall           'F 2 2'
loop_
_symmetry_equiv_pos_site_id
_symmetry_equiv_pos_as_xyz
1 x,y,z
2 -x,-y,z
3 -x,y,-z
4 x,-y,-z
5 x,1/2+y,1/2+z
6 -x,1/2-y,1/2+z
7 -x,1/2+y,1/2-z
8 x,1/2-y,1/2-z
9 1/2+x,y,1/2+z
10 1/2-x,-y,1/2+z
11 1/2-x,y,1/2-z
12 1/2+x,-y,1/2-z
13 1/2+x,1/2+y,z
14 1/2-x,1/2-y,z
15 1/2-x,1/2+y,-z
16 1/2+x,1/2-y,-z
_cell_length_a                   18.8703(3)
_cell_length_b                   18.8703(3)
_cell_length_c                   27.8994(12)
_cell_angle_alpha                90
_cell_angle_beta                 90
_cell_angle_gamma                90
_cell_volume                     9934.65
loop_
_atom_site_label
_atom_site_type_symbol
_atom_site_fract_x
_atom_site_fract_y
_atom_site_fract_z
_atom_site_U_iso_or_equiv
_atom_site_thermal_displace_type
Zn1 Zn -0.0000 0.0000 0.30138(3) 0.0282 Uani
N1 N 0.0000 0.0000 0.3730(3) 0.0500 Uani
C3 C 0.0538(12) -0.0261(11) 0.3980(6) 0.0650 Uiso
C4 C 0.0530(15) 0.0238(13) 0.4470(7) 0.0920 Uiso
C5 C 0.0000 0.0000 0.4729(3) 0.0763 Uani
C6 C 0.0702(4) -0.1164(3) 0.2492(4) 0.0423 Uani
C7 C 0.1117(4) -0.1866(3) 0.2527(5) 0.0597 Uani
C8 C 0.1567(10) -0.1945(10) 0.2912(7) 0.0610 Uani
C9 C 0.1416(12) -0.2145(9) 0.2056(8) 0.0543 Uani
C10 C 0.0615(8) -0.2500(12) 0.2298(4) 0.0390 Uani
C11 C 0.0380(14) -0.2440(11) 0.1789(7) 0.0873 Uani
C12 C -0.0066(6) -0.2500 0.2500 0.1000 Uani
C13 C 0.1700(18) -0.190(2) 0.2122(12) 0.1540 Uiso
O1 O 0.0472(3) -0.0964(3) 0.2880(2) 0.0527 Uani
O2 O 0.0609(3) -0.0857(2) 0.2102(2) 0.0447 Uani
Zn2 Zn 0.0000 0.0000 0.19900(3) 0.0335 Uani
N2 N 0.0000 0.0000 0.1253(3) 0.0500 Uani
C16 C -0.0550(11) -0.0269(9) 0.1033(6) 0.0640 Uiso
C17 C -0.0610(14) 0.0213(13) 0.0485(7) 0.1080 Uiso
C18 C 0.0000 0.0000 0.0269(3) 0.0637 Uani
C19 C -0.1158(4) -0.0703(3) 0.2478(4) 0.0403 Uani
C20 C -0.1858(4) -0.1109(3) 0.2468(5) 0.0533 Uani
C21 C -0.1961(11) -0.1570(10) 0.2878(7) 0.0623 Uani
C22 C -0.2149(11) -0.1429(10) 0.2042(10) 0.0597 Uani
C23 C -0.2466(14) -0.0620(6) 0.2296(5) 0.0400 Uani
C24 C -0.2579(15) -0.0351(11) 0.1797(6) 0.0763 Uani
C25 C -0.2500 0.0065(4) 0.2500 0.0900 Uani
C26 C -0.181(2) -0.158(2) 0.2005(10) 0.1560 Uiso
O3 O -0.0953(4) -0.0476(3) 0.2904(2) 0.0540 Uani
O4 O -0.0872(3) -0.0611(3) 0.2106(3) 0.0467 Uani
Zn1J Zn -0.5000 -0.0000 0.19862(3) 0.0282 Uani
Zn1F Zn 0.0000 -0.5000 0.19862(3) 0.0282 Uani
Zn1B Zn 0.0000 0.0000 0.69862(3) 0.0282 Uani
N1B N 0.0000 0.0000 0.6270(3) 0.0500 Uani
C3A C -0.0538(12) 0.0261(11) 0.3980(6) 0.0650 Uiso
C3B C -0.0538(12) -0.0261(11) 0.6020(6) 0.0650 Uiso
C3C C 0.0538(12) 0.0261(11) 0.6020(6) 0.0650 Uiso
C4A C -0.0530(15) -0.0238(13) 0.4470(7) 0.0920 Uiso
C4B C -0.0530(15) 0.0238(13) 0.5530(7) 0.0920 Uiso
C4C C 0.0530(15) -0.0238(13) 0.5530(7) 0.0920 Uiso
C5B C -0.0000 -0.0000 0.5271(3) 0.0763 Uani
C6G C 0.0702(4) -0.3836(3) 0.2508(4) 0.0423 Uani
C7G C 0.1117(4) -0.3134(3) 0.2473(5) 0.0597 Uani
C8G C 0.1567(10) -0.3055(10) 0.2088(7) 0.0610 Uani
C9G C 0.1416(12) -0.2855(9) 0.2944(8) 0.0543 Uani
C10G C 0.0615(8) -0.2500(12) 0.2702(4) 0.0390 Uani
C13G C 0.1700(18) -0.310(2) 0.2878(12) 0.1540 Uiso
O1A O -0.0472(3) 0.0964(3) 0.2880(2) 0.0527 Uani
O1G O 0.0472(3) -0.4036(3) 0.2120(2) 0.0527 Uani
O2A O -0.0609(3) 0.0857(2) 0.2102(2) 0.0447 Uani
O2G O 0.0609(3) -0.4143(2) 0.2898(2) 0.0447 Uani
Zn2J Zn -0.5000 0.0000 0.30100(3) 0.0335 Uani
Zn2F Zn 0.0000 -0.5000 0.30100(3) 0.0335 Uani
C16A C 0.0550(11) 0.0269(9) 0.1033(6) 0.0640 Uiso
C17A C 0.0610(14) -0.0213(13) 0.0485(7) 0.1080 Uiso
C18B C -0.0000 -0.0000 -0.0269(3) 0.0637 Uani
C19J C -0.3842(4) -0.0703(3) 0.2522(4) 0.0403 Uani
C20J C -0.3142(4) -0.1109(3) 0.2532(5) 0.0533 Uani
C21J C -0.3039(11) -0.1570(10) 0.2122(7) 0.0623 Uani
C22J C -0.2851(11) -0.1429(10) 0.2958(10) 0.0597 Uani
C23J C -0.2534(14) -0.0620(6) 0.2704(5) 0.0400 Uani
C26J C -0.319(2) -0.158(2) 0.2995(10) 0.1560 Uiso
O3A O 0.0953(4) 0.0476(3) 0.2904(2) 0.0540 Uani
O3J O -0.4047(4) -0.0476(3) 0.2096(2) 0.0540 Uani
O4A O 0.0872(3) 0.0611(3) 0.2106(3) 0.0467 Uani
O4J O -0.4128(3) -0.0611(3) 0.2894(3) 0.0467 Uani
loop_
_atom_site_aniso_label
_atom_site_aniso_U_11
_atom_site_aniso_U_22
_atom_site_aniso_U_33
_atom_site_aniso_U_23
_atom_site_aniso_U_13
_atom_site_aniso_U_12
Zn1 0.0265(8) 0.0286(5) 0.0294(6) 0.000 0.000 0.0008(5)
N1 0.062(8) 0.063(6) 0.025(4) 0.000 0.000 0.005(6)
C5 0.107(15) 0.106(11) 0.016(6) 0.000 0.000 0.031(11)
C6 0.024(4) 0.031(3) 0.072(5) -0.022(6) -0.006(7) 0.001(3)
C7 0.029(5) 0.023(3) 0.127(8) -0.026(6) 0.035(8) -0.002(3)
C8 0.037(14) 0.083(14) 0.063(12) 0.033(12) -0.015(11) 0.050(11)
C9 0.054 0.036 0.073 -0.01 0.029 -0.037
C10 0.027(10) 0.029(5) 0.061(8) -0.012(16) -0.010(6) 0.000(11)
C11 0.14(2) 0.029(8) 0.093(12) -0.010(11) -0.075(14) -0.007(12)
C12 0.004(8) 0.036(5) 0.26(2) 0.040(11) 0.000 0.000
O1 0.058(5) 0.029(3) 0.071(5) 0.005(3) -0.014(4) 0.011(3)
O2 0.042(4) 0.031(3) 0.061(4) 0.009(3) 0.012(3) 0.007(2)
Zn2 0.0375(9) 0.0372(6) 0.0257(6) 0.000 0.000 -0.0014(6)
N2 0.057(8) 0.064(6) 0.029(4) 0.000 0.000 -0.004(6)
C18 0.079(12) 0.089(10) 0.023(6) 0.000 0.000 -0.016(9)
C19 0.028(4) 0.026(3) 0.067(5) 0.012(6) -0.019(7) -0.002(3)
C20 0.018(5) 0.031(3) 0.111(7) -0.002(7) -0.006(8) 0.002(3)
C21 0.055(16) 0.077(12) 0.055(11) 0.039(11) -0.013(12) -0.067(11)
C22 0.023 0.051 0.105 -0.04 -0.021 0.037
C23 0.019(9) 0.028(5) 0.073(9) -0.001(5) 0.000(16) -0.011(10)
C24 0.043(16) 0.116(15) 0.070(11) 0.057(11) -0.010(13) -0.029(14)
C25 0.026(7) 0.015(4) 0.229(18) 0.000 0.012(12) 0.000
O3 0.042(5) 0.048(3) 0.072(5) 0.008(3) -0.006(4) -0.012(3)
O4 0.029(5) 0.048(3) 0.063(4) 0.008(3) -0.005(4) -0.007(3)
Zn1J 0.0265 0.0286 0.0294 0 0 -0.0008
Zn1F 0.0265 0.0286 0.0294 0 0 -0.0008
Zn1B 0.0265 0.0286 0.0294 0 0 -0.0008
N1B 0.062 0.063 0.025 0 0 -0.005
C5B 0.107 0.106 0.016 0 0 -0.031
C6G 0.024 0.031 0.072 -0.022 0.006 -0.001
C7G 0.029 0.023 0.127 -0.026 -0.035 0.002
C8G 0.037 0.083 0.063 0.033 0.015 -0.05
C9G 0.054(14) 0.036(8) 0.073(14) -0.010(9) -0.029(11) 0.037(9)
C10G 0.027 0.029 0.061 -0.012 0.01 0
O1A 0.058 0.029 0.071 -0.005 0.014 0.011
O1G 0.058 0.029 0.071 0.005 0.014 -0.011
O2A 0.042 0.031 0.061 -0.009 -0.012 0.007
O2G 0.042 0.031 0.061 0.009 -0.012 -0.007
Zn2J 0.0375 0.0372 0.0257 0 0 0.0014
Zn2F 0.0375 0.0372 0.0257 0 0 0.0014
C18B 0.079 0.089 0.023 0 0 0.016
C19J 0.028 0.026 0.067 -0.012 -0.019 0.002
C20J 0.018 0.031 0.111 0.002 -0.006 -0.002
C21J 0.055 0.077 0.055 -0.039 -0.013 0.067
C22J 0.023(12) 0.051(9) 0.105(19) 0.040(11) -0.021(11) -0.037(9)
C23J 0.019 0.028 0.073 0.001 0 0.011
O3A 0.042 0.048 0.072 -0.008 0.006 -0.012
O3J 0.042 0.048 0.072 -0.008 -0.006 0.012
O4A 0.029 0.048 0.063 -0.008 0.005 -0.007
O4J 0.029 0.048 0.063 -0.008 -0.005 0.007
loop_
_geom_bond_atom_site_label_1
_geom_bond_atom_site_label_2
_geom_bond_site_symmetry_1
_geom_bond_site_symmetry_2
Zn1 N1 1_555 1_555
N1 C3 1_555 1_555
C3 C4 1_555 1_555
C4 C5 1_555 1_555
C5 C4A 1_555 1_555
C6 C7 1_555 1_555
C7 C8 1_555 1_555
C8 C9G 1_555 1_555
C9 C7 1_555 1_555
C10 C7 1_555 1_555
C11 C10 1_555 1_555
C12 C10 1_555 1_555
C13 C7 1_555 1_555
O1 Zn1 1_555 1_555
O2 C6 1_555 1_555
Zn2 O2 1_555 1_555
N2 Zn2 1_555 1_555
C16 N2 1_555 1_555
C17 C16 1_555 1_555
C18 C17 1_555 1_555
C19 C20 1_555 1_555
C20 C21 1_555 1_555
C21 C22J 1_555 1_555
C22 C20 1_555 1_555
C23 C20 1_555 1_555
C24 C23 1_555 1_555
C25 C23 1_555 1_555
C26 C20 1_555 1_555
O3 Zn1 1_555 1_555
O4 Zn2 1_555 1_555
Zn1J O3J 1_555 1_555
Zn1F O1G 1_555 1_555
Zn1B N1B 1_555 1_555
N1B C3B 1_555 1_555
C3A N1 1_555 1_555
C3B C4B 1_555 1_555
C3C N1B 1_555 1_555
C4A C3A 1_555 1_555
C4B C5B 1_555 1_555
C4C C3C 1_555 1_555
C5B C5 1_555 1_555
C6G C7G 1_555 1_555
C7G C10 1_555 1_555
C8G C9 1_555 1_555
C9G C7G 1_555 1_555
C10G C7 1_555 1_555
C13G C7G 1_555 1_555
O1A Zn1 1_555 1_555
O1G C6G 1_555 1_555
O2A Zn2 1_555 1_555
O2G C6G 1_555 1_555
Zn2J O4J 1_555 1_555
Zn2F O2G 1_555 1_555
C16A N2 1_555 1_555
C17A C18 1_555 1_555
C18B C18 1_555 1_555
C19J C20J 1_555 1_555
C20J C23 1_555 1_555
C21J C22 1_555 1_555
C22J C20J 1_555 1_555
C23J C20 1_555 1_555
C26J C20J 1_555 1_555
O3A Zn1 1_555 1_555
O3J C19J 1_555 1_555
O4A Zn2 1_555 1_555
O4J C19J 1_555 1_555
C6 O1 1_555 1_555
C9 C10 1_555 1_555
C9 C13 1_555 1_555
C10 C10G 1_555 1_555
C12 C10G 1_555 1_555
C19 O3 1_555 1_555
C19 O4 1_555 1_555
C22 C23 1_555 1_555
C22 C26 1_555 1_555
C23 C23J 1_555 1_555
C25 C23J 1_555 1_555
C4C C5B 1_555 1_555
C7G C8G 1_555 1_555
C7G C10G 1_555 1_555
C9G C10G 1_555 1_555
C9G C13G 1_555 1_555
C16A C17A 1_555 1_555
C20J C21J 1_555 1_555
C20J C23J 1_555 1_555
C22J C23J 1_555 1_555
C22J C26J 1_555 1_555

#END
