
#######################################################################
#
#                 Cambridge Crystallographic Data Centre
#                                CCDC 
#
#######################################################################
#
# If this CIF has been generated from an entry in the Cambridge 
# Structural Database, then it will include bibliographic, chemical, 
# crystal, experimental, refinement or atomic coordinate data resulting 
# from the CCDC's data processing and validation procedures.
#
#######################################################################

data_LILZOW01
_chemical_formula_moiety         'C40 N3 O16 Zn7'
_symmetry_cell_setting           tetragonal
_symmetry_space_group_name_H-M   'I -4 c 2'
_symmetry_Int_Tables_number      120
_space_group_name_Hall           'I -4 -2c'
loop_
_symmetry_equiv_pos_site_id
_symmetry_equiv_pos_as_xyz
1 x,y,z
2 -x,-y,z
3 y,-x,-z
4 -y,x,-z
5 x,-y,1/2+z
6 -x,y,1/2+z
7 y,x,1/2-z
8 -y,-x,1/2-z
9 1/2+x,1/2+y,1/2+z
10 1/2-x,1/2-y,1/2+z
11 1/2+y,1/2-x,1/2-z
12 1/2-y,1/2+x,1/2-z
13 1/2+x,1/2-y,z
14 1/2-x,1/2+y,z
15 1/2+y,1/2+x,-z
16 1/2-y,1/2-x,-z
_cell_length_a                   13.3433(3)
_cell_length_b                   13.3433(3)
_cell_length_c                   27.8994(12)
_cell_angle_alpha                90
_cell_angle_beta                 90
_cell_angle_gamma                90
_cell_volume                     4967.31
loop_
_atom_site_label
_atom_site_type_symbol
_atom_site_fract_x
_atom_site_fract_y
_atom_site_fract_z
Zn1 Zn -0.0000 -0.0000 0.05120(3)
N1 N 0.0000 0.0000 0.1237(3)
C1 C 0.0000 0.0000 0.2230(3)
C4 C 0.069(3) -0.060(3) 0.1982(9)
C5 C 0.0765(14) -0.0426(16) 0.1481(6)
O1 O 0.1493(5) -0.0366(6) 0.0387(3)
O2 O 0.1417(5) -0.0368(8) -0.0398(4)
C6 C 0.2967(4) -0.0749(4) 0.0002(6)
C7 C 0.1863(5) -0.0457(5) 0.0038(6)
C8 C 0.3455(13) -0.0682(15) -0.0488(10)
C9 C 0.3620(15) -0.065(2) 0.0370(11)
C10 C 0.3158(12) -0.1907(15) 0.0207(5)
C11 C 0.3527(18) -0.014(2) 0.0412(12)
C12 C 0.2435(5) -0.2565(5) 0.0000
C13 C 0.2946(19) -0.2166(18) 0.0713(7)
Zn1F Zn 0.0000 0.0000 0.44880(3)
Zn1B Zn 0.0000 0.0000 -0.05120(3)
Zn1N Zn 0.5000 -0.5000 -0.05120(3)
Zn1L Zn 0.5000 -0.5000 0.05120(3)
Zn1N_2 Zn -0.5000 0.5000 -0.05120(3)
Zn1L_2 Zn -0.5000 0.5000 0.05120(3)
N1F N -0.0000 -0.0000 0.3763(3)
N1B N 0.0000 0.0000 -0.1237(3)
C1F C -0.0000 -0.0000 0.2770(3)
C4F C -0.060(3) 0.069(3) 0.3018(9)
C4G C 0.060(3) -0.069(3) 0.3018(9)
C4A C -0.069(3) 0.060(3) 0.1982(9)
C5F C -0.0426(16) 0.0765(14) 0.3519(6)
C5G C 0.0426(16) -0.0765(14) 0.3519(6)
C5A C -0.0765(14) 0.0426(16) 0.1481(6)
O1N O 0.4634(6) -0.3507(5) -0.0387(3)
O1A O -0.1493(5) 0.0366(6) 0.0387(3)
O1O O -0.4634(6) 0.3507(5) -0.0387(3)
O1F O -0.0366(6) 0.1493(5) 0.4613(3)
O1G O 0.0366(6) -0.1493(5) 0.4613(3)
O1B O -0.0366(6) -0.1493(5) -0.0387(3)
O1C O 0.0366(6) 0.1493(5) -0.0387(3)
O2N O 0.4632(8) -0.3583(5) 0.0398(4)
O2A O -0.1417(5) 0.0368(8) -0.0398(4)
O2O O -0.4632(8) 0.3583(5) 0.0398(4)
O2B O -0.0368(8) -0.1417(5) 0.0398(4)
O2C O 0.0368(8) 0.1417(5) 0.0398(4)
O2D O 0.1417(5) 0.0368(8) 0.4602(4)
O2E O -0.1417(5) -0.0368(8) 0.4602(4)
C6N C 0.4251(4) -0.2033(4) -0.0002(6)
C6A C -0.2967(4) 0.0749(4) 0.0002(6)
C6O C -0.4251(4) 0.2033(4) -0.0002(6)
C7N C 0.4543(5) -0.3137(5) -0.0038(6)
C7A C -0.1863(5) 0.0457(5) 0.0038(6)
C7O C -0.4543(5) 0.3137(5) -0.0038(6)
C8N C 0.4318(15) -0.1545(13) 0.0488(10)
C8A C -0.3455(13) 0.0682(15) -0.0488(10)
C8O C -0.4318(15) 0.1545(13) 0.0488(10)
C9N C 0.435(2) -0.1380(15) -0.0370(11)
C9A C -0.3620(15) 0.065(2) 0.0370(11)
C9O C -0.435(2) 0.1380(15) -0.0370(11)
C10N C 0.3093(15) -0.1842(12) -0.0207(5)
C10A C -0.3158(12) 0.1907(15) 0.0207(5)
C10O C -0.3093(15) 0.1842(12) -0.0207(5)
C11N C 0.486(2) -0.1473(18) -0.0412(12)
C11A C -0.3527(18) 0.014(2) 0.0412(12)
C11O C -0.486(2) 0.1473(18) -0.0412(12)
C12A C -0.2435(5) 0.2565(5) 0.0000
C13N C 0.2834(18) -0.2054(19) -0.0713(7)
C13A C -0.2946(19) 0.2166(18) 0.0713(7)
C13O C -0.2834(18) 0.2054(19) -0.0713(7)
loop_
_geom_bond_atom_site_label_1
_geom_bond_atom_site_label_2
_geom_bond_site_symmetry_1
_geom_bond_site_symmetry_2
Zn1 N1 1_555 1_555
N1 C5 1_555 1_555
C1 C4 1_555 1_555
C4 C5 1_555 1_555
O1 Zn1 1_555 1_555
O2 C7 1_555 1_555
C6 C7 1_555 1_555
C7 O1 1_555 1_555
C8 C6 1_555 1_555
C9 C6 1_555 1_555
C10 C6 1_555 1_555
C11 C6 1_555 1_555
C12 C10 1_555 1_555
C13 C10 1_555 1_555
Zn1F N1F 1_555 1_555
Zn1B O2 1_555 1_555
Zn1N O1N 1_555 1_555
Zn1L O2N 1_555 1_555
Zn1N_2 O1O 1_555 1_555
Zn1L_2 O2O 1_555 1_555
N1F C5F 1_555 1_555
N1B Zn1B 1_555 1_555
C1F C1 1_555 1_555
C4F C1F 1_555 1_555
C4G C1F 1_555 1_555
C4A C1 1_555 1_555
C5F C4F 1_555 1_555
C5G N1F 1_555 1_555
C5A N1 1_555 1_555
O1N C7N 1_555 1_555
O1A Zn1 1_555 1_555
O1O C7O 1_555 1_555
O1F Zn1F 1_555 1_555
O1G Zn1F 1_555 1_555
O1B Zn1B 1_555 1_555
O1C Zn1B 1_555 1_555
O2N C7N 1_555 1_555
O2A Zn1B 1_555 1_555
O2O C7O 1_555 1_555
O2B Zn1 1_555 1_555
O2C Zn1 1_555 1_555
O2D Zn1F 1_555 1_555
O2E Zn1F 1_555 1_555
C6N C10 1_555 1_555
C6A C7A 1_555 1_555
C6O C7O 1_555 1_555
C7N C6N 1_555 1_555
C7A O1A 1_555 1_555
C8N C9 1_555 1_555
C8A C6A 1_555 1_555
C8O C6O 1_555 1_555
C9N C8 1_555 1_555
C9A C6A 1_555 1_555
C9O C6O 1_555 1_555
C10N C6 1_555 1_555
C10A C6A 1_555 1_555
C10O C6A 1_555 1_555
C11N C6N 1_555 1_555
C11A C6A 1_555 1_555
C11O C6O 1_555 1_555
C12A C10A 1_555 1_555
C13N C10N 1_555 1_555
C13A C10A 1_555 1_555
C13O C10O 1_555 1_555
C9 C11 1_555 1_555
C10 C10N 1_555 1_555
C12 C10N 1_555 1_555
C4G C5G 1_555 1_555
C4A C5A 1_555 1_555
O2A C7A 1_555 1_555
C6N C8N 1_555 1_555
C6N C9N 1_555 1_555
C6N C10N 1_555 1_555
C6O C10A 1_555 1_555
C6O C10O 1_555 1_555
C8A C9O 1_555 1_555
C8O C9A 1_555 1_555
C9N C11N 1_555 1_555
C9A C11A 1_555 1_555
C9O C11O 1_555 1_555
C10A C10O 1_555 1_555
C10O C12A 1_555 1_555

#END
