
#######################################################################
#
#                 Cambridge Crystallographic Data Centre
#                                CCDC 
#
#######################################################################
#
# If this CIF has been generated from an entry in the Cambridge 
# Structural Database, then it will include bibliographic, chemical, 
# crystal, experimental, refinement or atomic coordinate data resulting 
# from the CCDC's data processing and validation procedures.
#
#######################################################################

data_LILZUC
_chemical_formula_moiety         'C48 N3 O12 Zn7'
_symmetry_cell_setting           tetragonal
_symmetry_space_group_name_H-M   'P 4 21 2'
_symmetry_Int_Tables_number      90
_space_group_name_Hall           'P 4ab 2ab'
loop_
_symmetry_equiv_pos_site_id
_symmetry_equiv_pos_as_xyz
1 x,y,z
2 -x,-y,z
3 1/2-y,1/2+x,z
4 1/2+y,1/2-x,z
5 1/2-x,1/2+y,-z
6 1/2+x,1/2-y,-z
7 y,x,-z
8 -y,-x,-z
_cell_length_a                   13.4551(2)
_cell_length_b                   13.4551(2)
_cell_length_c                   9.5832(2)
_cell_angle_alpha                90
_cell_angle_beta                 90
_cell_angle_gamma                90
_cell_volume                     1734.94
loop_
_atom_site_label
_atom_site_type_symbol
_atom_site_fract_x
_atom_site_fract_y
_atom_site_fract_z
Zn1 Zn 0.5000 1.0000 0.84593(7)
Zn2 Zn 0.5000 1.0000 1.14538(8)
O1 O 0.3606(2) 0.9475(3) 0.8812(3)
O2 O 0.3523(2) 0.9769(2) 1.1096(3)
C1 C 0.3149(3) 0.9508(3) 0.9957(5)
C2 C 0.2049(3) 0.9212(3) 0.9962(6)
C3 C 0.1558(10) 0.9848(11) 0.8649(16)
C4 C 0.1887(7) 0.8063(7) 0.9479(9)
C5 C 0.1481(8) 0.9319(8) 1.1223(12)
C6 C 0.2572(9) 0.7447(8) 1.0438(14)
C7 C 0.1476(9) 0.9353(8) 0.8759(13)
C8 C 0.2108(10) 0.7742(10) 0.8013(13)
N1 N 0.5000 1.0000 0.6297(7)
C9 C 0.4134(10) 1.0533(10) 0.4133(13)
C10 C 0.4458(10) 1.0858(10) 0.5769(13)
C11 C 0.4825(10) 1.1055(11) 0.4146(12)
C12 C 0.6055(10) 0.9822(10) 0.5771(13)
N2 N 0.5000 1.0000 0.3606(6)
Zn1D Zn -0.0000 0.5000 1.15407(7)
Zn1D_2 Zn 1.0000 1.5000 1.15407(7)
Zn2_2 Zn 0.5000 1.0000 0.14538(8)
Zn2D Zn 0.0000 0.5000 0.85462(8)
Zn2D_2 Zn 1.0000 1.5000 0.85462(8)
O1G O 0.0525(3) 0.6394(2) 1.1188(3)
O1A O 0.6394(2) 1.0525(3) 0.8812(3)
O1F O 0.9475(3) 1.3606(2) 1.1188(3)
O1B O 0.5525(3) 0.8606(2) 0.8812(3)
O1C O 0.4475(3) 1.1394(2) 0.8812(3)
O2G O 0.0231(2) 0.6477(2) 0.8904(3)
O2A O 0.6477(2) 1.0231(2) 1.1096(3)
O2F O 0.9769(2) 1.3523(2) 0.8904(3)
O2B O 0.5231(2) 0.8523(2) 1.1096(3)
O2C O 0.4769(2) 1.1477(2) 1.1096(3)
C1G C 0.0492(3) 0.6851(3) 1.0043(5)
C1A C 0.6851(3) 1.0492(3) 0.9957(5)
C1F C 0.9508(3) 1.3149(3) 1.0043(5)
C2G C 0.0788(3) 0.7951(3) 1.0038(6)
C2A C 0.7951(3) 1.0788(3) 0.9962(6)
C2F C 0.9212(3) 1.2049(3) 1.0038(6)
C3G C 0.0152(11) 0.8442(10) 1.1351(16)
C3A C 0.8442(10) 1.0152(11) 0.8649(16)
C3F C 0.9848(11) 1.1558(10) 1.1351(16)
C4G C 0.1937(7) 0.8113(7) 1.0521(9)
C4A C 0.8113(7) 1.1937(7) 0.9479(9)
C4F C 0.8063(7) 1.1887(7) 1.0521(9)
C5G C 0.0681(8) 0.8519(8) 0.8777(12)
C5A C 0.8519(8) 1.0681(8) 1.1223(12)
C5F C 0.9319(8) 1.1481(8) 0.8777(12)
C6G C 0.2553(8) 0.7428(9) 0.9562(14)
C6A C 0.7428(9) 1.2553(8) 1.0438(14)
C6F C 0.7447(8) 1.2572(9) 0.9562(14)
C7G C 0.0647(8) 0.8524(9) 1.1241(13)
C7A C 0.8524(9) 1.0647(8) 0.8759(13)
C7F C 0.9353(8) 1.1476(9) 1.1241(13)
C8G C 0.2258(10) 0.7892(10) 1.1987(13)
C8A C 0.7892(10) 1.2258(10) 0.8013(13)
C8F C 0.7742(10) 1.2108(10) 1.1987(13)
C9B C 0.4467(10) 0.9134(10) 0.4133(13)
C9A C 0.5866(10) 0.9467(10) 0.4133(13)
C9C C 0.5533(10) 1.0866(10) 0.4133(13)
C10B C 0.4142(10) 0.9458(10) 0.5769(13)
C10A C 0.5542(10) 0.9142(10) 0.5769(13)
C10C C 0.5858(10) 1.0542(10) 0.5769(13)
C11B C 0.3945(11) 0.9825(10) 0.4146(12)
C11C C 0.6055(11) 1.0175(10) 0.4146(12)
C11A C 0.5175(10) 0.8945(11) 0.4146(12)
C12C C 0.4822(10) 0.8945(10) 0.5771(13)
C12A C 0.3945(10) 1.0178(10) 0.5771(13)
C12B C 0.5178(10) 1.1055(10) 0.5771(13)
N2_2 N 0.5000 1.0000 1.3606(6)
loop_
_geom_bond_atom_site_label_1
_geom_bond_atom_site_label_2
_geom_bond_site_symmetry_1
_geom_bond_site_symmetry_2
Zn1 O1 1_555 1_555
Zn2 O2 1_555 1_555
O1 C1 1_555 1_555
O2 C1 1_555 1_555
C1 C2 1_555 1_555
C2 C3 1_555 1_555
C3 C7 1_555 1_555
C4 C2 1_555 1_555
C5 C2 1_555 1_555
C6 C4 1_555 1_555
C7 C2 1_555 1_555
C8 C4 1_555 1_555
N1 Zn1 1_555 1_555
C9 C10 1_555 1_555
C10 N1 1_555 1_555
C11 C9 1_555 1_555
C12 N1 1_555 1_555
N2 C9 1_555 1_555
Zn1D O1G 1_555 1_555
Zn1D_2 O1F 1_555 1_555
Zn2_2 N2 1_555 1_555
Zn2D O2G 1_555 1_555
Zn2D_2 O2F 1_555 1_555
O1G C1G 1_555 1_555
O1A Zn1 1_555 1_555
O1F C1F 1_555 1_555
O1B Zn1 1_555 1_555
O1C Zn1 1_555 1_555
O2G C1G 1_555 1_555
O2A Zn2 1_555 1_555
O2F C1F 1_555 1_555
O2B Zn2 1_555 1_555
O2C Zn2 1_555 1_555
C1G C2G 1_555 1_555
C1A O1A 1_555 1_555
C1F C2F 1_555 1_555
C2G C4 1_555 1_555
C2A C1A 1_555 1_555
C2F C3F 1_555 1_555
C3G C2G 1_555 1_555
C3A C2A 1_555 1_555
C3F C7F 1_555 1_555
C4G C2 1_555 1_555
C4A C2A 1_555 1_555
C4F C2A 1_555 1_555
C5G C7 1_555 1_555
C5A C2A 1_555 1_555
C5F C2F 1_555 1_555
C6G C4 1_555 1_555
C6A C4A 1_555 1_555
C6F C4A 1_555 1_555
C7G C5 1_555 1_555
C7A C2A 1_555 1_555
C7F C2F 1_555 1_555
C8G C6 1_555 1_555
C8A C4A 1_555 1_555
C8F C4F 1_555 1_555
C9B N2 1_555 1_555
C9A C12 1_555 1_555
C9C C11 1_555 1_555
C10B N1 1_555 1_555
C10A N1 1_555 1_555
C10C N1 1_555 1_555
C11B C9 1_555 1_555
C11C C12 1_555 1_555
C11A N2 1_555 1_555
C12C N1 1_555 1_555
C12A N1 1_555 1_555
C12B N1 1_555 1_555
N2_2 Zn2 1_555 1_555
C4 C4G 1_555 1_555
C6 C4G 1_555 1_555
C6 C6G 1_555 1_555
C8 C6G 1_555 1_555
C9 C12A 1_555 1_555
C10 C11 1_555 1_555
C10 C12A 1_555 1_555
C10 C12B 1_555 1_555
C11 N2 1_555 1_555
C11 C12B 1_555 1_555
C12 C10A 1_555 1_555
C12 C10C 1_555 1_555
N2 C9A 1_555 1_555
N2 C9C 1_555 1_555
N2 C11B 1_555 1_555
N2 C11C 1_555 1_555
O2A C1A 1_555 1_555
C2G C4G 1_555 1_555
C2G C5G 1_555 1_555
C2G C7G 1_555 1_555
C2F C4A 1_555 1_555
C2F C4F 1_555 1_555
C3G C7G 1_555 1_555
C3A C7A 1_555 1_555
C4G C6G 1_555 1_555
C4G C8G 1_555 1_555
C4A C4F 1_555 1_555
C4F C6A 1_555 1_555
C4F C6F 1_555 1_555
C5A C7F 1_555 1_555
C5F C7A 1_555 1_555
C6A C6F 1_555 1_555
C6A C8F 1_555 1_555
C6F C8A 1_555 1_555
C9B C10B 1_555 1_555
C9B C11B 1_555 1_555
C9B C11A 1_555 1_555
C9B C12C 1_555 1_555
C9A C10A 1_555 1_555
C9A C11C 1_555 1_555
C9A C11A 1_555 1_555
C9C C10C 1_555 1_555
C9C C11C 1_555 1_555
C9C C12B 1_555 1_555
C10B C11B 1_555 1_555
C10B C12C 1_555 1_555
C10B C12A 1_555 1_555
C10A C11A 1_555 1_555
C10A C12C 1_555 1_555
C10C C11C 1_555 1_555
C10C C12B 1_555 1_555
C11B C12A 1_555 1_555
C11A C12C 1_555 1_555

#END
