
#######################################################################
#
#                 Cambridge Crystallographic Data Centre
#                                CCDC 
#
#######################################################################
#
# If this CIF has been generated from an entry in the Cambridge 
# Structural Database, then it will include bibliographic, chemical, 
# crystal, experimental, refinement or atomic coordinate data resulting 
# from the CCDC's data processing and validation procedures.
#
#######################################################################

data_OHAGEL
_chemical_formula_moiety         '(C14 H9 Cu1 N1 O5)n'
_symmetry_cell_setting           rhombohedral
_symmetry_space_group_name_H-M   'R -3'
_symmetry_Int_Tables_number      148
_space_group_name_Hall           '-R 3'
loop_
_symmetry_equiv_pos_site_id
_symmetry_equiv_pos_as_xyz
1 x,y,z
2 -y,x-y,z
3 -x+y,-x,z
4 2/3+x,1/3+y,1/3+z
5 2/3-y,1/3+x-y,1/3+z
6 2/3-x+y,1/3-x,1/3+z
7 1/3+x,2/3+y,2/3+z
8 1/3-y,2/3+x-y,2/3+z
9 1/3-x+y,2/3-x,2/3+z
10 -x,-y,-z
11 y,-x+y,-z
12 x-y,x,-z
13 1/3-x,2/3-y,2/3-z
14 1/3+y,2/3-x+y,2/3-z
15 1/3+x-y,2/3+x,2/3-z
16 2/3-x,1/3-y,1/3-z
17 2/3+y,1/3-x+y,1/3-z
18 2/3+x-y,1/3+x,1/3-z
_cell_length_a                   18.456(16)
_cell_length_b                   18.456(16)
_cell_length_c                   34.59(3)
_cell_angle_alpha                90
_cell_angle_beta                 90
_cell_angle_gamma                120
_cell_volume                     10203.7
loop_
_atom_site_label
_atom_site_type_symbol
_atom_site_fract_x
_atom_site_fract_y
_atom_site_fract_z
_atom_site_U_iso_or_equiv
_atom_site_thermal_displace_type
Cu1 Cu 0.1436(2) -0.1421(2) -0.19765(8) 0.0407 Uani
O1 O 0.1832(8) -0.0363(8) -0.1700(4) 0.0280 Uiso
O2 O 0.2278(9) -0.0748(9) -0.1171(4) 0.0500 Uiso
O3 O 0.1899(8) 0.2261(11) -0.1709(4) 0.0350 Uiso
O4 O 0.2277(8) 0.3053(11) -0.1165(4) 0.0340 Uiso
O5 O 0.3685(11) 0.1977(11) -0.0363(5) 0.0860 Uiso
C1 C 0.2164(13) 0.2419(19) -0.1377(6) 0.0220 Uiso
C2 C 0.2145(15) -0.0250(15) -0.1384(7) 0.0430 Uiso
C3 C 0.2475(14) 0.1922(14) -0.1186(6) 0.0370 Uiso
C4 C 0.2966(12) 0.2116(13) -0.0861(6) 0.0270 Uiso
H1 H 0.3132 0.2636 -0.0738 0.0320 Uiso
C5 C 0.3235(13) 0.1602(12) -0.0702(6) 0.0400 Uiso
C6 C 0.3018(14) 0.0828(13) -0.0844(6) 0.0500 Uiso
H2 H 0.3206 0.0482 -0.0731 0.0590 Uiso
C7 C 0.2459(13) 0.0570(14) -0.1191(6) 0.0350 Uiso
C8 C 0.2228(13) 0.1153(13) -0.1369(6) 0.0360 Uiso
H3 H 0.1916 0.1011 -0.1602 0.0430 Uiso
C9 C 0.4077(14) 0.1585(13) -0.0221(5) 0.0830 Uiso
H4 H 0.4473 0.1577 -0.0412 0.0990 Uiso
H5 H 0.3672 0.1004 -0.0143 0.0990 Uiso
C10 C 0.4536(11) 0.2126(11) 0.0128(5) 0.0450 Uiso
C11 C 0.4218(14) 0.1858(14) 0.0494(5) 0.0870 Uiso
H6 H 0.3699 0.1349 0.0512 0.1050 Uiso
N1 N 0.4579(11) 0.2257(11) 0.0837(5) 0.0460 Uiso
C12 C 0.5272(14) 0.2987(13) 0.0781(6) 0.0910 Uiso
H7 H 0.5544 0.3290 0.1008 0.1090 Uiso
C13 C 0.5655(14) 0.3368(13) 0.0431(6) 0.0970 Uiso
H8 H 0.6149 0.3899 0.0413 0.1160 Uiso
C14 C 0.5223(13) 0.2874(12) 0.0106(5) 0.0890 Uiso
H9 H 0.5437 0.3090 -0.0144 0.1070 Uiso
Cu1A Cu 0.1421(2) 0.2857(3) -0.19765(8) 0.0407 Uani
Cu1E Cu 0.3810(3) 0.1897(2) 0.13568(8) 0.0407 Uani
Cu1L Cu 0.1897(2) -0.1912(2) -0.13568(8) 0.0407 Uani
Cu1M Cu 0.1912(2) 0.3810(3) -0.13568(8) 0.0407 Uani
O2L O 0.1055(9) -0.2585(9) -0.2162(4) 0.0500 Uiso
O3B O 0.0362(14) -0.1899(8) -0.1709(4) 0.0350 Uiso
O4N O 0.2557(14) -0.1056(8) -0.2168(4) 0.0340 Uiso
N1G N 0.1076(11) -0.1011(16) -0.2496(5) 0.0460 Uiso
loop_
_atom_site_aniso_label
_atom_site_aniso_U_11
_atom_site_aniso_U_22
_atom_site_aniso_U_33
_atom_site_aniso_U_23
_atom_site_aniso_U_13
_atom_site_aniso_U_12
Cu1 0.062(3) 0.070(3) 0.030(2) 0.005(2) 0.000(2) 0.063(3)
Cu1A 0.07 0.006 0.03 -0.005 -0.005 0.007
Cu1E 0.006 0.062 0.03 0 0.005 -0.001
Cu1L 0.062 0.07 0.03 0.005 0 0.063
Cu1M 0.07 0.006 0.03 -0.005 -0.005 0.007
loop_
_geom_bond_atom_site_label_1
_geom_bond_atom_site_label_2
_geom_bond_site_symmetry_1
_geom_bond_site_symmetry_2
Cu1 O1 1_555 1_555
O1 C2 1_555 1_555
O2 C2 1_555 1_555
O3 C1 1_555 1_555
O4 C1 1_555 1_555
O5 C5 1_555 1_555
C1 C3 1_555 1_555
C2 C7 1_555 1_555
C3 C4 1_555 1_555
C4 H1 1_555 1_555
C5 C4 1_555 1_555
C6 C5 1_555 1_555
H2 C6 1_555 1_555
C7 C6 1_555 1_555
C8 C3 1_555 1_555
H3 C8 1_555 1_555
C9 O5 1_555 1_555
H4 C9 1_555 1_555
H5 C9 1_555 1_555
C10 C9 1_555 1_555
C11 C10 1_555 1_555
H6 C11 1_555 1_555
N1 C11 1_555 1_555
C12 N1 1_555 1_555
H7 C12 1_555 1_555
C13 C12 1_555 1_555
H8 C13 1_555 1_555
C14 C10 1_555 1_555
H9 C14 1_555 1_555
Cu1A O3 1_555 1_555
Cu1E N1 1_555 1_555
Cu1L Cu1 1_555 1_555
Cu1M O4 1_555 1_555
O2L Cu1 1_555 1_555
O3B Cu1 1_555 1_555
O4N Cu1 1_555 1_555
N1G Cu1 1_555 1_555
O2 Cu1L 1_555 1_555
C7 C8 1_555 1_555
C13 C14 1_555 1_555
Cu1A Cu1M 1_555 1_555

#END
