
#######################################################################
#
#                 Cambridge Crystallographic Data Centre
#                                CCDC 
#
#######################################################################
#
# If this CIF has been generated from an entry in the Cambridge 
# Structural Database, then it will include bibliographic, chemical, 
# crystal, experimental, refinement or atomic coordinate data resulting 
# from the CCDC's data processing and validation procedures.
#
#######################################################################

data_OHAGIP
_chemical_formula_moiety         '(C14 H9 Cu1 N1 O5)n'
_symmetry_cell_setting           rhombohedral
_symmetry_space_group_name_H-M   'R -3'
_symmetry_Int_Tables_number      148
_space_group_name_Hall           '-R 3'
loop_
_symmetry_equiv_pos_site_id
_symmetry_equiv_pos_as_xyz
1 x,y,z
2 -y,x-y,z
3 -x+y,-x,z
4 2/3+x,1/3+y,1/3+z
5 2/3-y,1/3+x-y,1/3+z
6 2/3-x+y,1/3-x,1/3+z
7 1/3+x,2/3+y,2/3+z
8 1/3-y,2/3+x-y,2/3+z
9 1/3-x+y,2/3-x,2/3+z
10 -x,-y,-z
11 y,-x+y,-z
12 x-y,x,-z
13 1/3-x,2/3-y,2/3-z
14 1/3+y,2/3-x+y,2/3-z
15 1/3+x-y,2/3+x,2/3-z
16 2/3-x,1/3-y,1/3-z
17 2/3+y,1/3-x+y,1/3-z
18 2/3+x-y,1/3+x,1/3-z
_cell_length_a                   19.132(4)
_cell_length_b                   19.132(4)
_cell_length_c                   37.505(15)
_cell_angle_alpha                90
_cell_angle_beta                 90
_cell_angle_gamma                120
_cell_volume                     11888.9
loop_
_atom_site_label
_atom_site_type_symbol
_atom_site_fract_x
_atom_site_fract_y
_atom_site_fract_z
_atom_site_U_iso_or_equiv
_atom_site_thermal_displace_type
Cu1 Cu 0.52110(5) 0.47890(5) 1.030609(19) 0.0352 Uani
O1 O 0.6275(2) 0.5146(3) 1.01047(12) 0.0471 Uani
O2 O 0.5920(3) 0.5532(3) 0.95991(11) 0.0534 Uani
O3 O 0.8876(2) 0.5149(3) 1.01005(12) 0.0471 Uani
O4 O 0.9613(3) 0.5537(3) 0.96019(11) 0.0527 Uani
C1 C 0.6401(5) 0.5439(4) 0.9793(2) 0.0463 Uani
C2 C 0.7204(2) 0.5672(3) 0.96267(12) 0.0473 Uani
C3 C 0.7399(3) 0.6060(3) 0.92981(13) 0.0621 Uani
H1 H 0.7042 0.6189 0.9188 0.0740 Uiso
C4 C 0.8127(3) 0.6256(3) 0.91348(10) 0.0678 Uani
C5 C 0.8659(2) 0.6064(3) 0.93001(13) 0.0591 Uani
H2 H 0.9146 0.6195 0.9191 0.0710 Uiso
C6 C 0.8464(3) 0.5676(3) 0.96287(13) 0.0441 Uani
C7 C 0.7736(3) 0.5480(2) 0.97920(9) 0.0390 Uani
H3 H 0.7606 0.5220 1.0012 0.0470 Uiso
C8 C 0.9032(4) 0.5444(4) 0.9787(2) 0.0454 Uani
O5 O 0.8303(4) 0.6625(4) 0.88121(13) 0.1038 Uani
C9 C 0.7811(9) 0.6809(10) 0.8632(3) 0.0766 Uani
H4 H 0.7787 0.7251 0.8746 0.0920 Uiso
H5 H 0.7270 0.6346 0.8620 0.0920 Uiso
C10 C 0.8173(9) 0.7050(10) 0.8264(2) 0.0636 Uani
C11 C 0.7791(8) 0.7320(9) 0.8034(3) 0.0957 Uani
H6 H 0.7384 0.7408 0.8118 0.1170 Uiso
C12 C 0.8018(9) 0.7457(10) 0.7678(3) 0.0659 Uani
H7 H 0.7748 0.7628 0.7527 0.0790 Uiso
N1 N 0.8609(9) 0.7355(11) 0.7543(3) 0.0437 Uani
C13 C 0.9002(7) 0.7120(9) 0.7768(3) 0.0749 Uani
H8 H 0.9429 0.7067 0.7682 0.0900 Uiso
C14 C 0.8789(9) 0.6959(10) 0.8120(3) 0.0549 Uani
H9 H 0.9065 0.6784 0.8266 0.0670 Uiso
Cu1B Cu 0.95780(7) 0.47890(5) 1.030609(19) 0.0352 Uani
Cu1G Cu 0.85443(5) 0.70887(7) 0.697276(19) 0.0352 Uani
Cu1I Cu 0.47890(5) 0.52110(5) 0.969391(19) 0.0352 Uani
Cu1K Cu 1.04220(7) 0.52110(5) 0.969391(19) 0.0352 Uani
O2I O 0.4080(3) 0.4468(3) 1.04009(11) 0.0534 Uani
O3A O 0.4851(3) 0.3727(4) 1.01005(12) 0.0471 Uani
O4J O 0.5537(3) 0.5924(4) 1.03981(11) 0.0527 Uani
N1E N 0.5413(14) 0.4724(9) 1.0876(3) 0.0437 Uani
loop_
_atom_site_aniso_label
_atom_site_aniso_U_11
_atom_site_aniso_U_22
_atom_site_aniso_U_33
_atom_site_aniso_U_23
_atom_site_aniso_U_13
_atom_site_aniso_U_12
Cu1 0.0455(6) 0.0450(6) 0.0277(4) 0.0007(5) 0.0004(5) 0.0321(5)
O1 0.044(3) 0.063(4) 0.044(3) 0.011(3) 0.003(3) 0.034(3)
O2 0.048(3) 0.098(4) 0.035(3) 0.014(3) 0.009(3) 0.052(3)
O3 0.041(3) 0.060(4) 0.048(3) 0.012(3) 0.007(3) 0.031(3)
O4 0.035(3) 0.092(4) 0.042(3) 0.011(3) 0.011(3) 0.040(3)
C1 0.055(6) 0.050(5) 0.039(5) -0.018(4) -0.008(5) 0.030(5)
C2 0.054(6) 0.064(6) 0.034(5) 0.004(4) -0.001(4) 0.037(5)
C3 0.059(6) 0.104(7) 0.045(5) 0.020(5) 0.011(4) 0.057(6)
C4 0.055(6) 0.119(8) 0.046(5) 0.027(5) 0.016(5) 0.056(6)
C5 0.052(6) 0.094(7) 0.040(5) 0.010(4) 0.008(4) 0.043(5)
C6 0.045(5) 0.069(6) 0.031(4) 0.005(4) 0.006(4) 0.038(5)
C7 0.046(5) 0.048(5) 0.029(4) -0.003(3) -0.003(4) 0.028(4)
C8 0.037(5) 0.046(5) 0.043(5) -0.012(4) -0.006(4) 0.013(4)
O5 0.093(5) 0.200(7) 0.050(4) 0.061(4) 0.040(4) 0.097(5)
C9 0.076(9) 0.106(9) 0.055(9) 0.030(7) -0.005(7) 0.051(7)
C10 0.080(16) 0.118(17) 0.024(11) 0.025(11) 0.017(10) 0.073(14)
C11 0.131(18) 0.16(2) 0.051(13) 0.020(13) 0.014(12) 0.114(17)
C12 0.066(15) 0.056(15) 0.067(15) -0.005(11) -0.002(11) 0.024(11)
N1 0.045(6) 0.046(5) 0.035(4) -0.009(3) -0.002(4) 0.019(5)
C13 0.10(2) 0.13(2) 0.038(12) -0.014(12) -0.007(13) 0.09(2)
C14 0.059(10) 0.077(10) 0.038(9) 0.009(7) -0.007(8) 0.041(8)
Cu1B 0.0263 0.0455 0.0277 -0.0004 0.0003 0.0134
Cu1G 0.045 0.0263 0.0277 -0.0003 -0.0007 0.0129
Cu1I 0.0455 0.045 0.0277 0.0007 0.0004 0.0321
Cu1K 0.0263 0.0455 0.0277 -0.0004 0.0003 0.0134
O2I 0.048 0.098 0.035 0.014 0.009 0.052
O3A 0.06 0.039 0.048 -0.005 -0.012 0.029
O4J 0.092 0.047 0.042 0 -0.011 0.052
N1E 0.053 0.045 0.035 0.002 -0.007 0.026
loop_
_geom_bond_atom_site_label_1
_geom_bond_atom_site_label_2
_geom_bond_site_symmetry_1
_geom_bond_site_symmetry_2
Cu1 O1 1_555 1_555
O1 C1 1_555 1_555
O2 C1 1_555 1_555
O3 C8 1_555 1_555
O4 C8 1_555 1_555
C1 C2 1_555 1_555
C2 C3 1_555 1_555
C3 H1 1_555 1_555
C4 C3 1_555 1_555
C5 C4 1_555 1_555
H2 C5 1_555 1_555
C6 C5 1_555 1_555
C7 C2 1_555 1_555
H3 C7 1_555 1_555
C8 C6 1_555 1_555
O5 C4 1_555 1_555
C9 O5 1_555 1_555
H4 C9 1_555 1_555
H5 C9 1_555 1_555
C10 C9 1_555 1_555
C11 C10 1_555 1_555
H6 C11 1_555 1_555
C12 C11 1_555 1_555
H7 C12 1_555 1_555
N1 C12 1_555 1_555
C13 N1 1_555 1_555
H8 C13 1_555 1_555
C14 C10 1_555 1_555
H9 C14 1_555 1_555
Cu1B O3 1_555 1_555
Cu1G N1 1_555 1_555
Cu1I Cu1 1_555 1_555
Cu1K O4 1_555 1_555
O2I Cu1 1_555 1_555
O3A Cu1 1_555 1_555
O4J Cu1 1_555 1_555
N1E Cu1 1_555 1_555
O2 Cu1I 1_555 1_555
C6 C7 1_555 1_555
C13 C14 1_555 1_555
Cu1B Cu1K 1_555 1_555

#END
