
#######################################################################
#
#                 Cambridge Crystallographic Data Centre
#                                CCDC 
#
#######################################################################
#
# If this CIF has been generated from an entry in the Cambridge 
# Structural Database, then it will include bibliographic, chemical, 
# crystal, experimental, refinement or atomic coordinate data resulting 
# from the CCDC's data processing and validation procedures.
#
#######################################################################

data_OHAGOV
_chemical_formula_moiety         '(C10 H5 Cu1 N3 O4)n'
_symmetry_cell_setting           monoclinic
_symmetry_space_group_name_H-M   'P 21/c'
_symmetry_Int_Tables_number      14
_space_group_name_Hall           '-P 2ybc'
loop_
_symmetry_equiv_pos_site_id
_symmetry_equiv_pos_as_xyz
1 x,y,z
2 -x,1/2+y,1/2-z
3 -x,-y,-z
4 x,1/2-y,1/2+z
_cell_length_a                   10.884(5)
_cell_length_b                   12.049(6)
_cell_length_c                   14.338(7)
_cell_angle_alpha                90
_cell_angle_beta                 109.552(7)
_cell_angle_gamma                90
_cell_volume                     1771.88
loop_
_atom_site_label
_atom_site_type_symbol
_atom_site_fract_x
_atom_site_fract_y
_atom_site_fract_z
Cu1 Cu 0.09808(7) 0.57435(6) 0.02657(5)
O1 O 0.1753(5) 0.4726(4) 0.1390(3)
O2 O 0.1747(4) 0.0214(4) 0.4499(4)
O3 O 0.0089(4) 0.3523(4) 0.0966(4)
O4 O 0.0093(4) 0.1426(4) 0.4023(3)
C1 C 0.1198(6) 0.3879(6) 0.1491(5)
C2 C 0.1197(6) 0.1081(5) 0.4066(5)
C3 C 0.1918(7) 0.1754(6) 0.3552(6)
C4 C 0.1276(6) 0.2427(4) 0.2780(4)
H1 H 0.0350 0.2404 0.2531
C5 C 0.1917(7) 0.3144(6) 0.2344(6)
C6 C 0.3288(7) 0.3124(6) 0.2694(6)
H2 H 0.3771 0.3590 0.2410
C7 C 0.3917(6) 0.2412(5) 0.3459(5)
C8 C 0.3260(7) 0.1713(6) 0.3888(5)
H3 H 0.3718 0.1215 0.4400
C9 C 0.6149(6) 0.1518(5) 0.4029(4)
H4 H 0.5875 0.0765 0.3964
N1 N 0.5334(5) 0.2414(4) 0.3816(4)
N2 N 0.7356(5) 0.1848(4) 0.4333(4)
N3 N 0.7374(5) 0.3026(4) 0.4330(4)
C10 C 0.6138(6) 0.3305(5) 0.4003(5)
H5 H 0.5840 0.4051 0.3908
Cu1A Cu -0.09808(7) 0.07435(6) 0.47343(5)
Cu1A_2 Cu 0.90192(7) 0.07435(6) 0.47343(5)
Cu1B Cu -0.09808(7) 0.42565(6) -0.02657(5)
Cu1C Cu 0.09808(7) -0.07435(6) 0.52657(5)
O2C O 0.1747(4) 0.4786(4) -0.0501(4)
O3B O -0.0089(4) 0.6477(4) -0.0966(4)
O4A O -0.0093(4) 0.6426(4) 0.0977(3)
N2A N 0.2644(5) 0.6848(4) 0.0667(4)
loop_
_geom_bond_atom_site_label_1
_geom_bond_atom_site_label_2
_geom_bond_site_symmetry_1
_geom_bond_site_symmetry_2
Cu1 O1 1_555 1_555
O1 C1 1_555 1_555
O2 C2 1_555 1_555
O3 C1 1_555 1_555
O4 C2 1_555 1_555
C1 C5 1_555 1_555
C2 C3 1_555 1_555
C3 C4 1_555 1_555
C4 H1 1_555 1_555
C5 C4 1_555 1_555
C6 C5 1_555 1_555
H2 C6 1_555 1_555
C7 C6 1_555 1_555
C8 C3 1_555 1_555
H3 C8 1_555 1_555
C9 H4 1_555 1_555
N1 C7 1_555 1_555
N2 C9 1_555 1_555
N3 N2 1_555 1_555
C10 N1 1_555 1_555
H5 C10 1_555 1_555
Cu1A O4 1_555 1_555
Cu1A_2 N2 1_555 1_555
Cu1B Cu1 1_555 1_555
Cu1C O2 1_555 1_555
O2C Cu1 1_555 1_555
O3B Cu1 1_555 1_555
O4A Cu1 1_555 1_555
N2A Cu1 1_555 1_555
O3 Cu1B 1_555 1_555
C7 C8 1_555 1_555
C9 N1 1_555 1_555
N3 C10 1_555 1_555
Cu1A Cu1C 1_555 1_555

#END
