
#######################################################################
#
#                 Cambridge Crystallographic Data Centre
#                                CCDC 
#
#######################################################################
#
# If this CIF has been generated from an entry in the Cambridge 
# Structural Database, then it will include bibliographic, chemical, 
# crystal, experimental, refinement or atomic coordinate data resulting 
# from the CCDC's data processing and validation procedures.
#
#######################################################################

data_DILXED
_chemical_formula_moiety         '(C58 H62 Cd4 N18 O14)n'
_symmetry_cell_setting           monoclinic
_symmetry_space_group_name_H-M   'P 21/c'
_symmetry_Int_Tables_number      14
_space_group_name_Hall           '-P 2ybc'
loop_
_symmetry_equiv_pos_site_id
_symmetry_equiv_pos_as_xyz
1 x,y,z
2 -x,1/2+y,1/2-z
3 -x,-y,-z
4 x,1/2-y,1/2+z
_cell_length_a                   13.5699(14)
_cell_length_b                   12.2549(13)
_cell_length_c                   38.232(4)
_cell_angle_alpha                90
_cell_angle_beta                 97.4430(10)
_cell_angle_gamma                90
_cell_volume                     6304.33
loop_
_atom_site_label
_atom_site_type_symbol
_atom_site_fract_x
_atom_site_fract_y
_atom_site_fract_z
C1 C 0.0598(7) 0.9677(8) 0.6874(3)
H1 H 0.0945 0.9908 0.6693
C2 C 0.1103(7) 0.9141(8) 0.7164(3)
H2 H 0.1785 0.9035 0.7174
C3 C 0.0640(6) 0.8769(7) 0.7431(2)
C4 C -0.0382(7) 0.8998(8) 0.7409(3)
H3 H -0.0742 0.8794 0.7589
C5 C -0.0840(7) 0.9526(8) 0.7116(3)
H4 H -0.1519 0.9655 0.7103
C6 C 0.1144(6) 0.8147(7) 0.7729(2)
C7 C 0.2183(6) 0.7148(7) 0.8023(2)
C8 C 0.3049(6) 0.6437(7) 0.8156(2)
C9 C 0.3998(7) 0.6527(9) 0.8063(3)
H5 H 0.4152 0.7038 0.7898
C10 C 0.4697(8) 0.5829(10) 0.8224(3)
H6 H 0.5342 0.5865 0.8167
C11 C 0.4481(7) 0.5081(9) 0.8465(3)
H7 H 0.4971 0.4627 0.8577
C12 C 0.3529(6) 0.5016(8) 0.8537(3)
C13 C 0.3152(6) 0.4221(7) 0.8778(2)
C14 C 0.2126(6) 0.3287(7) 0.9020(2)
C15 C 0.1214(7) 0.2800(7) 0.9131(3)
C16 C 0.0377(7) 0.2692(9) 0.8895(3)
H8 H 0.0328 0.2978 0.8668
C17 C -0.0410(9) 0.2118(12) 0.9017(5)
H9 H -0.0994 0.2046 0.8863
C18 C 0.0426(13) 0.1841(12) 0.9553(4)
H10 H 0.0449 0.1582 0.9783
C19 C 0.1227(9) 0.2364(9) 0.9464(3)
H11 H 0.1793 0.2433 0.9628
C20 C 0.7004(7) 0.2452(8) 1.1035(2)
H12 H 0.7097 0.2219 1.1269
C21 C 0.6224(7) 0.2011(7) 1.0815(2)
H13 H 0.5809 0.1493 1.0897
C22 C 0.6070(7) 0.2364(7) 1.0463(2)
C23 C 0.6723(7) 0.3111(8) 1.0359(2)
H14 H 0.6654 0.3353 1.0126
C24 C 0.7487(7) 0.3507(8) 1.0601(3)
H15 H 0.7915 0.4020 1.0524
C25 C 0.5242(7) 0.1886(7) 1.0225(3)
C26 C 0.4059(6) 0.0875(8) 1.0042(2)
C27 C 0.3241(6) 0.0063(7) 1.0001(2)
C28 C 0.2984(7) -0.0588(9) 1.0265(3)
H16 H 0.3341 -0.0562 1.0489
C29 C 0.2185(8) -0.1284(9) 1.0192(3)
H17 H 0.2007 -0.1750 1.0365
C30 C 0.1648(8) -0.1281(9) 0.9854(3)
H18 H 0.1091 -0.1722 0.9803
C31 C 0.1953(6) -0.0619(7) 0.9600(2)
C32 C 0.1491(6) -0.0567(7) 0.9233(2)
C33 C 0.1218(6) -0.0067(7) 0.8707(2)
C34 C 0.1243(6) 0.0506(7) 0.8363(2)
C35 C 0.0368(7) 0.0737(7) 0.8151(2)
H19 H -0.0240 0.0551 0.8222
C36 C 0.0411(8) 0.1246(8) 0.7835(3)
H20 H -0.0183 0.1398 0.7694
C37 C 0.2096(9) 0.1313(11) 0.7928(3)
H21 H 0.2697 0.1522 0.7856
C38 C 0.2118(8) 0.0791(10) 0.8246(3)
H22 H 0.2721 0.0631 0.8380
C39 C 0.5053(8) 0.1261(9) 0.8838(3)
C40 C 0.5618(7) 0.1231(8) 0.8524(3)
C41 C 0.6568(10) 0.1941(11) 0.8556(5)
H23 H 0.6413 0.2670 0.8466
H24 H 0.6862 0.1996 0.8800
C42 C 0.7272(9) 0.1379(10) 0.8340(4)
H25 H 0.7877 0.1176 0.8489
H26 H 0.7446 0.1868 0.8158
C43 C 0.6759(7) 0.0364(8) 0.8172(3)
H27 H 0.6406 0.0551 0.7940
C44 C 0.7455(7) -0.0595(9) 0.8135(3)
C45 C 0.5986(8) 0.0081(8) 0.8430(3)
C46 C 0.5138(11) -0.0645(13) 0.8245(5)
H28 H 0.5418 -0.1236 0.8126
H29 H 0.4717 -0.0216 0.8077
H30 H 0.4754 -0.0932 0.8418
C47 C 0.6442(10) -0.0478(10) 0.8757(3)
H31 H 0.7007 -0.0068 0.8862
H32 H 0.6651 -0.1197 0.8699
H33 H 0.5963 -0.0530 0.8920
C48 C 0.5000(10) 0.1650(13) 0.8270(4)
H34 H 0.4623 0.1077 0.8144
H35 H 0.5365 0.2041 0.8111
H36 H 0.4557 0.2142 0.8367
C49 C -0.0351(7) 0.6207(8) 0.8987(3)
C50 C -0.1225(7) 0.6411(8) 0.9187(3)
H37 H -0.1013 0.6853 0.9397
C51 C -0.2109(7) 0.7006(9) 0.8947(3)
H38 H -0.2041 0.7791 0.8974
H39 H -0.2087 0.6827 0.8701
C52 C -0.3114(7) 0.6627(8) 0.9060(3)
H40 H -0.3516 0.6245 0.8871
H41 H -0.3488 0.7237 0.9137
C53 C -0.2733(8) 0.5801(9) 0.9390(3)
C54 C -0.2853(10) 0.6642(10) 0.9617(4)
H42 H -0.3237 0.6395 0.9796
H43 H -0.3193 0.7235 0.9489
H44 H -0.2214 0.6886 0.9726
C55 C -0.3517(8) 0.4901(9) 0.9408(3)
C56 C -0.1796(6) 0.5410(8) 0.9290(3)
C57 C -0.1854(9) 0.4519(10) 0.9017(4)
H45 H -0.2245 0.3926 0.9089
H46 H -0.1196 0.4263 0.8995
H47 H -0.2157 0.4798 0.8794
C58 C -0.1232(8) 0.4915(9) 0.9621(3)
H48 H -0.0612 0.5292 0.9680
H49 H -0.1106 0.4158 0.9581
H50 H -0.1622 0.4984 0.9813
Cd1 Cd -0.05141(4) 0.81779(5) 0.836113(17)
Cd2 Cd 0.12729(4) 0.58027(5) 0.863565(16)
Cd3 Cd 0.33146(5) 0.10439(5) 0.923097(16)
Cd4 Cd 0.51294(5) 0.32873(6) 0.941106(18)
N1 N -0.0376(5) 0.9864(7) 0.6852(2)
N2 N 0.0742(5) 0.7851(6) 0.80156(18)
N3 N 0.1418(5) 0.7209(6) 0.82085(18)
N4 N 0.2067(5) 0.7727(6) 0.77248(18)
N5 N 0.2824(5) 0.5692(6) 0.83877(19)
N6 N 0.3684(6) 0.3448(6) 0.8965(2)
N7 N 0.2994(6) 0.2833(6) 0.9117(2)
N8 N 0.2161(5) 0.4152(6) 0.8812(2)
N9 N -0.0391(11) 0.1673(10) 0.9333(5)
N10 N 0.1262(7) 0.1538(7) 0.7717(2)
N11 N 0.0521(5) -0.0806(6) 0.87580(19)
N12 N 0.0689(5) -0.1125(6) 0.91020(19)
N13 N 0.1855(5) 0.0103(6) 0.89972(18)
N14 N 0.2753(5) 0.0044(6) 0.96746(18)
N15 N 0.4216(5) 0.1478(6) 0.97681(19)
N16 N 0.5007(6) 0.2153(6) 0.98838(19)
N17 N 0.4676(6) 0.1080(6) 1.0338(2)
N18 N 0.7644(5) 0.3195(6) 1.0936(2)
O1 O -0.1547(5) 0.7131(5) 0.79624(17)
H51 H -0.2182 0.7483 0.7914
H52 H -0.1630 0.6423 0.8062
O2 O -0.0300(5) 0.6686(5) 0.86971(17)
O3 O 0.0309(5) 0.5534(6) 0.9094(2)
O4 O -0.4062(8) 0.4611(11) 0.9156(3)
O5 O -0.3624(10) 0.4521(12) 0.9683(3)
O6 O 0.4235(5) 0.0721(6) 0.88195(19)
O7 O 0.5402(6) 0.1786(6) 0.91025(19)
O8 O 0.8308(5) -0.0573(6) 0.8306(2)
O9 O 0.7157(6) -0.1325(8) 0.7930(3)
O10 O 0.4079(9) 0.4472(9) 0.9684(3)
H53 H 0.3545 0.4055 0.9760
H54 H 0.4454 0.4812 0.9885
Cd1_2 Cd -0.05141(4) -0.18221(5) 0.836113(17)
Cd1_3 Cd 0.94859(4) -0.18221(5) 0.836113(17)
Cd2A Cd -0.12729(4) 1.08027(5) 0.636435(16)
Cd2B Cd 0.87271(4) 0.41973(5) 1.136435(16)
Cd4_2 Cd -0.48706(5) 0.32873(6) 0.941106(18)
N1A N 0.0376(5) 0.4864(7) 0.8148(2)
N11_2 N 0.0521(5) 0.9194(6) 0.87580(19)
N18B N 0.2356(5) 0.6805(6) 0.9064(2)
O4_2 O 0.5938(8) 0.4611(11) 0.9156(3)
O5_2 O 0.6376(10) 0.4521(12) 0.9683(3)
O8_2 O -0.1692(5) 0.9427(6) 0.8306(2)
O11 O 0.3763(7) 0.8564(9) 0.7364(3)
H55 H 0.3289 0.8319 0.7466
H56 H 0.3670 0.9243 0.7328
O12 O 0.5725(8) 0.7750(10) 0.7470(3)
H57 H 0.5105 0.7869 0.7458
H58 H 0.5850 0.7123 0.7560
O13 O 0.6551(7) 0.5789(9) 0.7750(3)
H59 H 0.7135 0.6036 0.7808
H60 H 0.6585 0.5101 0.7725
O14 O 0.9011(8) 0.9072(9) 0.9541(3)
H61 H 0.9483 0.9151 0.9417
H62 H 0.8793 0.9698 0.9587
loop_
_geom_bond_atom_site_label_1
_geom_bond_atom_site_label_2
_geom_bond_site_symmetry_1
_geom_bond_site_symmetry_2
C1 H1 1_555 1_555
C2 C1 1_555 1_555
H2 C2 1_555 1_555
C3 C2 1_555 1_555
C4 C3 1_555 1_555
H3 C4 1_555 1_555
C5 C4 1_555 1_555
H4 C5 1_555 1_555
C6 C3 1_555 1_555
C7 C8 1_555 1_555
C8 C9 1_555 1_555
C9 H5 1_555 1_555
C10 C9 1_555 1_555
H6 C10 1_555 1_555
C11 C10 1_555 1_555
H7 C11 1_555 1_555
C12 C11 1_555 1_555
C13 C12 1_555 1_555
C14 C15 1_555 1_555
C15 C16 1_555 1_555
C16 H8 1_555 1_555
C17 C16 1_555 1_555
H9 C17 1_555 1_555
C18 H10 1_555 1_555
C19 C15 1_555 1_555
H11 C19 1_555 1_555
C20 H12 1_555 1_555
C21 C20 1_555 1_555
H13 C21 1_555 1_555
C22 C21 1_555 1_555
C23 C22 1_555 1_555
H14 C23 1_555 1_555
C24 C23 1_555 1_555
H15 C24 1_555 1_555
C25 C22 1_555 1_555
C26 C27 1_555 1_555
C27 C28 1_555 1_555
C28 H16 1_555 1_555
C29 C28 1_555 1_555
H17 C29 1_555 1_555
C30 C29 1_555 1_555
H18 C30 1_555 1_555
C31 C30 1_555 1_555
C32 C31 1_555 1_555
C33 C34 1_555 1_555
C34 C35 1_555 1_555
C35 H19 1_555 1_555
C36 C35 1_555 1_555
H20 C36 1_555 1_555
C37 H21 1_555 1_555
C38 C34 1_555 1_555
H22 C38 1_555 1_555
C39 C40 1_555 1_555
C40 C41 1_555 1_555
C41 H23 1_555 1_555
H24 C41 1_555 1_555
C42 C41 1_555 1_555
H25 C42 1_555 1_555
H26 C42 1_555 1_555
C43 C42 1_555 1_555
H27 C43 1_555 1_555
C44 C43 1_555 1_555
C45 C40 1_555 1_555
C46 C45 1_555 1_555
H28 C46 1_555 1_555
H29 C46 1_555 1_555
H30 C46 1_555 1_555
C47 C45 1_555 1_555
H31 C47 1_555 1_555
H32 C47 1_555 1_555
H33 C47 1_555 1_555
C48 C40 1_555 1_555
H34 C48 1_555 1_555
H35 C48 1_555 1_555
H36 C48 1_555 1_555
C49 C50 1_555 1_555
C50 H37 1_555 1_555
C51 C50 1_555 1_555
H38 C51 1_555 1_555
H39 C51 1_555 1_555
C52 C51 1_555 1_555
H40 C52 1_555 1_555
H41 C52 1_555 1_555
C53 C52 1_555 1_555
C54 C53 1_555 1_555
H42 C54 1_555 1_555
H43 C54 1_555 1_555
H44 C54 1_555 1_555
C55 C53 1_555 1_555
C56 C50 1_555 1_555
C57 C56 1_555 1_555
H45 C57 1_555 1_555
H46 C57 1_555 1_555
H47 C57 1_555 1_555
C58 C56 1_555 1_555
H48 C58 1_555 1_555
H49 C58 1_555 1_555
H50 C58 1_555 1_555
Cd1 N2 1_555 1_555
Cd2 N3 1_555 1_555
Cd3 N7 1_555 1_555
Cd4 N6 1_555 1_555
N1 C1 1_555 1_555
N2 C6 1_555 1_555
N3 C7 1_555 1_555
N4 C6 1_555 1_555
N5 C8 1_555 1_555
N6 C13 1_555 1_555
N7 C14 1_555 1_555
N8 C13 1_555 1_555
N9 C17 1_555 1_555
N10 C36 1_555 1_555
N11 C33 1_555 1_555
N12 C32 1_555 1_555
N13 C32 1_555 1_555
N14 C27 1_555 1_555
N15 C26 1_555 1_555
N16 C25 1_555 1_555
N17 C25 1_555 1_555
N18 C20 1_555 1_555
O1 Cd1 1_555 1_555
H51 O1 1_555 1_555
H52 O1 1_555 1_555
O2 C49 1_555 1_555
O3 C49 1_555 1_555
O4 C55 1_555 1_555
O5 C55 1_555 1_555
O6 C39 1_555 1_555
O7 C39 1_555 1_555
O8 C44 1_555 1_555
O9 C44 1_555 1_555
O10 Cd4 1_555 1_555
H53 O10 1_555 1_555
H54 O10 1_555 1_555
O11 H55 1_555 1_555
H56 O11 1_555 1_555
O12 H57 1_555 1_555
H58 O12 1_555 1_555
O13 H59 1_555 1_555
H60 O13 1_555 1_555
O14 H61 1_555 1_555
H62 O14 1_555 1_555
Cd1_2 N11 1_555 1_555
Cd1_3 O8 1_555 1_555
Cd2A N1 1_555 1_555
Cd2B N18 1_555 1_555
Cd4_2 O4 1_555 1_555
N1A Cd2 1_555 1_555
N11_2 Cd1 1_555 1_555
N18B Cd2 1_555 1_555
O4_2 Cd4 1_555 1_555
O5_2 Cd4 1_555 1_555
O8_2 Cd1 1_555 1_555
C5 N1 1_555 1_555
C7 N4 1_555 1_555
C12 N5 1_555 1_555
C14 N8 1_555 1_555
C18 C19 1_555 1_555
C18 N9 1_555 1_555
C24 N18 1_555 1_555
C26 N17 1_555 1_555
C31 N14 1_555 1_555
C33 N13 1_555 1_555
C37 C38 1_555 1_555
C37 N10 1_555 1_555
C43 C45 1_555 1_555
C53 C56 1_555 1_555
Cd1 O2 1_555 1_555
Cd2 N5 1_555 1_555
Cd2 N8 1_555 1_555
Cd2 O2 1_555 1_555
Cd2 O3 1_555 1_555
Cd3 N13 1_555 1_555
Cd3 N14 1_555 1_555
Cd3 N15 1_555 1_555
Cd3 O6 1_555 1_555
Cd4 N16 1_555 1_555
Cd4 O7 1_555 1_555
N2 N3 1_555 1_555
N6 N7 1_555 1_555
N11 N12 1_555 1_555
N15 N16 1_555 1_555
O5 Cd4_2 1_555 1_555

#END
