
#######################################################################
#
#                 Cambridge Crystallographic Data Centre
#                                CCDC 
#
#######################################################################
#
# If this CIF has been generated from an entry in the Cambridge 
# Structural Database, then it will include bibliographic, chemical, 
# crystal, experimental, refinement or atomic coordinate data resulting 
# from the CCDC's data processing and validation procedures.
#
#######################################################################

data_PENZIS
_chemical_formula_moiety         '(C13 H20 N2 O12 P4 Zn3)n'
_symmetry_cell_setting           orthorhombic
_symmetry_space_group_name_H-M   'P c c n'
_symmetry_Int_Tables_number      56
_space_group_name_Hall           '-P 2ab 2ac'
loop_
_symmetry_equiv_pos_site_id
_symmetry_equiv_pos_as_xyz
1 x,y,z
2 1/2-x,1/2-y,z
3 -x,1/2+y,1/2-z
4 1/2+x,-y,1/2-z
5 -x,-y,-z
6 1/2+x,1/2+y,-z
7 x,1/2-y,1/2+z
8 1/2-x,y,1/2+z
_cell_length_a                   10.1034(7)
_cell_length_b                   25.1550(16)
_cell_length_c                   9.1040(6)
_cell_angle_alpha                90
_cell_angle_beta                 90
_cell_angle_gamma                90
_cell_volume                     2313.79
loop_
_atom_site_label
_atom_site_type_symbol
_atom_site_fract_x
_atom_site_fract_y
_atom_site_fract_z
Zn1 Zn 0.15762(4) 0.553011(17) 0.12094(5)
Zn2 Zn 0.2500 0.7500 0.34437(7)
P1 P 0.10956(11) 0.68070(4) 0.09736(11)
H1 H 0.0005 0.6879 0.0365
P2 P 0.43152(9) 0.52763(4) 0.28455(10)
H2 H 0.5015 0.5710 0.2903
O1 O 0.1096(3) 0.72294(11) 0.2167(3)
O2 O 0.1982(3) 0.69087(12) -0.0323(3)
O3 O 0.1214(4) 0.62590(12) 0.1591(4)
O4 O 0.3387(3) 0.53275(13) 0.1555(3)
O5 O 0.5289(3) 0.48252(11) 0.2508(3)
O6 O 0.3621(3) 0.52068(12) 0.4297(3)
Zn1A Zn 0.34238(4) 0.946989(17) 0.12094(5)
Zn1C Zn 0.65762(4) 0.446989(17) 0.37906(5)
Zn1G Zn 0.34238(4) 0.553011(17) 0.62094(5)
Zn1C_2 Zn -0.34238(4) 0.446989(17) 0.37906(5)
Zn1D Zn -0.15762(4) 0.446989(17) -0.12094(5)
Zn2F Zn 0.2500 0.7500 -0.15563(7)
P1A P 0.39044(11) 0.81930(4) 0.09736(11)
H1A H 0.4995 0.8121 0.0365
P2C P -0.06848(9) 0.47237(4) 0.21545(10)
H2C H 0.0015 0.4290 0.2097
O1A O 0.3904(3) 0.77706(11) 0.2167(3)
O2A O 0.3018(3) 0.80913(12) -0.0323(3)
O2F O 0.1982(3) 0.80913(12) 0.4677(3)
O2G O 0.3018(3) 0.69087(12) 0.4677(3)
O3A O 0.3786(4) 0.87410(12) 0.1591(4)
O4C O -0.1613(3) 0.46725(13) 0.3445(3)
O4A O 0.1613(3) 0.96725(13) 0.1555(3)
O5C O 0.0289(3) 0.51748(11) 0.2492(3)
O5B O 0.4711(3) 0.98252(11) 0.2492(3)
O6C O -0.1379(3) 0.47932(12) 0.0703(3)
O6G O 0.1379(3) 0.52068(12) -0.0703(3)
O6F O 0.3621(3) 0.97932(12) -0.0703(3)
N1 N 0.5554(3) 0.58594(13) -0.0392(4)
H3 H 0.529(5) 0.560(2) -0.100(5)
C1 C 0.7500 0.7500 0.1615(7)
H4 H 0.826(5) 0.738(2) 0.090(5)
C2 C 0.6998(5) 0.70322(17) 0.2544(4)
H5 H 0.7729 0.6890 0.3153
H6 H 0.6284 0.7154 0.3207
C3 C 0.6484(4) 0.66044(17) 0.1548(4)
C4 C 0.5245(4) 0.66620(16) 0.0885(4)
H7 H 0.4709 0.6961 0.1109
C5 C 0.4805(4) 0.62853(15) -0.0090(4)
H8 H 0.3968 0.6327 -0.0551
C6 C 0.6742(4) 0.57851(16) 0.0242(5)
H9 H 0.7243 0.5475 0.0027
C7 C 0.7229(4) 0.61576(16) 0.1197(4)
H10 H 0.8080 0.6110 0.1621
N1A N 0.9446(3) 0.91406(13) -0.0392(4)
H3A H 0.971(5) 0.940(2) -0.100(5)
H4A H 0.674(5) 0.762(2) 0.090(5)
C2A C 0.8002(5) 0.79678(17) 0.2544(4)
H5A H 0.7271 0.8110 0.3153
H6A H 0.8716 0.7846 0.3207
C3A C 0.8516(4) 0.83956(17) 0.1548(4)
C4A C 0.9755(4) 0.83380(16) 0.0885(4)
H7A H 1.0291 0.8039 0.1109
C5A C 1.0195(4) 0.87147(15) -0.0090(4)
H8A H 1.1032 0.8673 -0.0551
C6A C 0.8258(4) 0.92149(16) 0.0242(5)
H9A H 0.7757 0.9525 0.0027
C7A C 0.7771(4) 0.88424(16) 0.1197(4)
H10A H 0.6920 0.8890 0.1621
loop_
_geom_bond_atom_site_label_1
_geom_bond_atom_site_label_2
_geom_bond_site_symmetry_1
_geom_bond_site_symmetry_2
Zn1 O3 1_555 1_555
Zn2 O1 1_555 1_555
P1 H1 1_555 1_555
P2 H2 1_555 1_555
O1 P1 1_555 1_555
O2 P1 1_555 1_555
O3 P1 1_555 1_555
O4 Zn1 1_555 1_555
O5 P2 1_555 1_555
O6 P2 1_555 1_555
N1 H3 1_555 1_555
C1 H4 1_555 1_555
C2 C1 1_555 1_555
H5 C2 1_555 1_555
H6 C2 1_555 1_555
C3 C2 1_555 1_555
C4 C3 1_555 1_555
H7 C4 1_555 1_555
C5 N1 1_555 1_555
H8 C5 1_555 1_555
C6 N1 1_555 1_555
H9 C6 1_555 1_555
C7 C3 1_555 1_555
H10 C7 1_555 1_555
Zn1A O3A 1_555 1_555
Zn1C O5 1_555 1_555
Zn1G O6 1_555 1_555
Zn1C_2 O4C 1_555 1_555
Zn1D O6C 1_555 1_555
Zn2F O2 1_555 1_555
P1A H1A 1_555 1_555
P2C H2C 1_555 1_555
O1A Zn2 1_555 1_555
O2A Zn2F 1_555 1_555
O2F Zn2 1_555 1_555
O2G Zn2 1_555 1_555
O3A P1A 1_555 1_555
O4C P2C 1_555 1_555
O4A Zn1A 1_555 1_555
O5C Zn1 1_555 1_555
O5B Zn1A 1_555 1_555
O6C P2C 1_555 1_555
O6G Zn1 1_555 1_555
O6F Zn1A 1_555 1_555
N1A H3A 1_555 1_555
H4A C1 1_555 1_555
C2A C1 1_555 1_555
H5A C2A 1_555 1_555
H6A C2A 1_555 1_555
C3A C2A 1_555 1_555
C4A C3A 1_555 1_555
H7A C4A 1_555 1_555
C5A N1A 1_555 1_555
H8A C5A 1_555 1_555
C6A N1A 1_555 1_555
H9A C6A 1_555 1_555
C7A C3A 1_555 1_555
H10A C7A 1_555 1_555
P2 O4 1_555 1_555
C4 C5 1_555 1_555
C6 C7 1_555 1_555
P1A O1A 1_555 1_555
P1A O2A 1_555 1_555
P2C O5C 1_555 1_555
C4A C5A 1_555 1_555
C6A C7A 1_555 1_555

#END
