
#######################################################################
#
#                 Cambridge Crystallographic Data Centre
#                                CCDC 
#
#######################################################################
#
# If this CIF has been generated from an entry in the Cambridge 
# Structural Database, then it will include bibliographic, chemical, 
# crystal, experimental, refinement or atomic coordinate data resulting 
# from the CCDC's data processing and validation procedures.
#
#######################################################################

data_PEPBAO
_chemical_formula_moiety         '(C19 H22 N2 O8 P2 Zn2)n'
_symmetry_cell_setting           orthorhombic
_symmetry_space_group_name_H-M   'P n m a'
_symmetry_Int_Tables_number      62
_space_group_name_Hall           '-P 2ac 2n'
loop_
_symmetry_equiv_pos_site_id
_symmetry_equiv_pos_as_xyz
1 x,y,z
2 1/2-x,-y,1/2+z
3 -x,1/2+y,-z
4 1/2+x,1/2-y,1/2-z
5 -x,-y,-z
6 1/2+x,y,1/2-z
7 x,1/2-y,z
8 1/2-x,1/2+y,1/2+z
_cell_length_a                   9.9947(3)
_cell_length_b                   23.8866(9)
_cell_length_c                   9.5533(11)
_cell_angle_alpha                90
_cell_angle_beta                 90
_cell_angle_gamma                90
_cell_volume                     2280.75
loop_
_atom_site_label
_atom_site_type_symbol
_atom_site_fract_x
_atom_site_fract_y
_atom_site_fract_z
_atom_site_U_iso_or_equiv
_atom_site_thermal_displace_type
C8 C 0.1919(3) 0.72130(14) 0.1896(3) 0.0361 Uani
H10 H 0.1205 0.7015 0.2326 0.0430 Uiso
C9 C 0.2941(3) 0.69249(13) 0.1279(4) 0.0380 Uani
H11 H 0.2938 0.6527 0.1284 0.0460 Uiso
C10 C 0.3979(3) 0.72115(14) 0.0650(3) 0.0336 Uani
O4 O 0.4937(4) 0.68212(18) 0.0202(4) 0.0285 Uiso
H13 H 0.4679 0.6497 0.0405 0.0430 Uiso
C8F C 0.1919(3) 0.77870(14) 0.1896(3) 0.0361 Uani
H10F H 0.1205 0.7985 0.2326 0.0430 Uiso
C9F C 0.2941(3) 0.80751(13) 0.1279(4) 0.0380 Uani
H11F H 0.2938 0.8473 0.1284 0.0460 Uiso
C10F C 0.3979(3) 0.77885(14) 0.0650(3) 0.0336 Uani
O4F O 0.4937(4) 0.81788(18) 0.0202(4) 0.0285 Uiso
H13F H 0.4679 0.8503 0.0405 0.0430 Uiso
Zn1 Zn 0.37449(3) 0.511940(12) 0.17472(3) 0.0149 Uani
P1 P 0.34582(6) 0.43871(3) -0.11269(7) 0.0149 Uani
H1 H 0.2972 0.3914 -0.0686 0.0180 Uiso
O1 O 0.31249(18) 0.48161(8) -0.00231(19) 0.0229 Uani
O2 O 0.49550(17) 0.42960(8) -0.1317(2) 0.0201 Uani
O3 O 0.27781(19) 0.45090(10) -0.2498(2) 0.0302 Uani
N1 N 0.4612(2) 0.44862(9) 0.2829(2) 0.0179 Uani
C1 C 0.4343(2) 0.43660(11) 0.4176(3) 0.0182 Uani
H2 H 0.3754 0.4604 0.4682 0.0220 Uiso
C2 C 0.4894(2) 0.39087(11) 0.4850(3) 0.0183 Uani
H3 H 0.4683 0.3838 0.5803 0.0220 Uiso
C3 C 0.5754(2) 0.35516(11) 0.4137(3) 0.0165 Uani
C4 C 0.6054(3) 0.36933(12) 0.2758(3) 0.0220 Uani
H4 H 0.6660 0.3469 0.2234 0.0260 Uiso
C5 C 0.5479(3) 0.41556(12) 0.2152(3) 0.0235 Uani
H5 H 0.5706 0.4245 0.1213 0.0280 Uiso
C6 C 0.6309(3) 0.30277(10) 0.4785(3) 0.0191 Uani
H6 H 0.6136 0.3034 0.5805 0.0230 Uiso
H7 H 0.7290 0.3018 0.4644 0.0230 Uiso
C7 C 0.5688(4) 0.2500 0.4154(4) 0.0176 Uani
H8 H 0.5828 0.2500 0.3128 0.0210 Uiso
H9 H 0.4712 0.2500 0.4332 0.0210 Uiso
Zn1D Zn 0.62551(3) 0.488060(12) -0.17472(3) 0.0149 Uani
Zn1A Zn 0.12551(3) 0.488060(12) -0.32528(3) 0.0149 Uani
Zn1F Zn 0.37449(3) -0.011940(12) 0.17472(3) 0.0149 Uani
Zn1E Zn 0.87449(3) 0.511940(12) 0.32528(3) 0.0149 Uani
P1D P 0.65418(6) 0.56129(3) 0.11269(7) 0.0149 Uani
H1D H 0.7028 0.6086 0.0686 0.0180 Uiso
O1D O 0.68751(18) 0.51839(8) 0.00231(19) 0.0229 Uani
O2D O 0.50450(17) 0.57040(8) 0.1317(2) 0.0201 Uani
O3D O 0.72219(19) 0.54910(10) 0.2498(2) 0.0302 Uani
O3A O 0.22219(19) 0.54910(10) 0.2502(2) 0.0302 Uani
O3E O 0.77781(19) 0.45090(10) -0.2502(2) 0.0302 Uani
N1F N 0.4612(2) 0.05138(9) 0.2829(2) 0.0179 Uani
N1D N 0.5388(2) 0.55138(9) -0.2829(2) 0.0179 Uani
C1F C 0.4343(2) 0.06340(11) 0.4176(3) 0.0182 Uani
H2F H 0.3754 0.0396 0.4682 0.0220 Uiso
C2F C 0.4894(2) 0.10913(11) 0.4850(3) 0.0183 Uani
H3F H 0.4683 0.1162 0.5803 0.0220 Uiso
C3F C 0.5754(2) 0.14484(11) 0.4137(3) 0.0165 Uani
C4F C 0.6054(3) 0.13067(12) 0.2758(3) 0.0220 Uani
H4F H 0.6660 0.1531 0.2234 0.0260 Uiso
C5F C 0.5479(3) 0.08444(12) 0.2152(3) 0.0235 Uani
H5F H 0.5706 0.0755 0.1213 0.0280 Uiso
C6F C 0.6309(3) 0.19723(10) 0.4785(3) 0.0191 Uani
H6F H 0.6136 0.1966 0.5805 0.0230 Uiso
H7F H 0.7290 0.1982 0.4644 0.0230 Uiso
loop_
_atom_site_aniso_label
_atom_site_aniso_U_11
_atom_site_aniso_U_22
_atom_site_aniso_U_33
_atom_site_aniso_U_23
_atom_site_aniso_U_13
_atom_site_aniso_U_12
C8 0.0274(15) 0.055(2) 0.0258(16) 0.0135(15) -0.0076(13) -0.0119(14)
C9 0.0457(19) 0.0174(15) 0.051(2) 0.0017(15) -0.0285(16) -0.0036(14)
C10 0.0267(15) 0.0436(19) 0.0304(16) -0.0159(14) -0.0102(13) 0.0134(13)
C8F 0.0274 0.055 0.0258 -0.0135 -0.0076 0.0119
C9F 0.0457 0.0174 0.051 -0.0017 -0.0285 0.0036
C10F 0.0267 0.0436 0.0304 0.0159 -0.0102 -0.0134
Zn1 0.01262(13) 0.01760(15) 0.01461(14) 0.00358(12) 0.00041(11) 0.00326(11)
P1 0.0137(3) 0.0139(3) 0.0171(3) 0.0017(3) -0.0023(2) -0.0015(2)
O1 0.0217(9) 0.0256(11) 0.0215(9) -0.0051(8) -0.0059(7) 0.0076(8)
O2 0.0149(8) 0.0183(10) 0.0270(10) 0.0010(8) -0.0026(7) 0.0032(7)
O3 0.0244(10) 0.0469(14) 0.0194(10) -0.0049(9) -0.0077(8) 0.0167(9)
N1 0.0160(10) 0.0189(12) 0.0187(11) 0.0044(9) -0.0006(8) 0.0019(8)
C1 0.0133(11) 0.0208(14) 0.0204(13) 0.0019(11) 0.0017(9) 0.0010(10)
C2 0.0203(12) 0.0185(13) 0.0161(12) 0.0018(11) -0.0004(10) -0.0009(10)
C3 0.0170(11) 0.0136(13) 0.0188(12) 0.0016(10) -0.0054(10) -0.0019(10)
C4 0.0238(14) 0.0220(14) 0.0202(13) 0.0017(11) 0.0034(11) 0.0068(11)
C5 0.0257(14) 0.0257(15) 0.0191(13) 0.0046(11) 0.0036(11) 0.0053(12)
C6 0.0238(13) 0.0146(13) 0.0190(12) 0.0004(10) -0.0075(11) 0.0005(11)
C7 0.0231(18) 0.0132(18) 0.0165(17) 0.000 -0.0048(14) 0.000
Zn1D 0.01262 0.0176 0.01461 0.00358 0.00041 0.00326
Zn1A 0.01262 0.0176 0.01461 -0.00358 -0.00041 0.00326
Zn1F 0.01262 0.0176 0.01461 -0.00358 0.00041 -0.00326
Zn1E 0.01262 0.0176 0.01461 -0.00358 -0.00041 0.00326
P1D 0.0137 0.0139 0.0171 0.0017 -0.0023 -0.0015
O1D 0.0217 0.0256 0.0215 -0.0051 -0.0059 0.0076
O2D 0.0149 0.0183 0.027 0.001 -0.0026 0.0032
O3D 0.0244 0.0469 0.0194 -0.0049 -0.0077 0.0167
O3A 0.0244 0.0469 0.0194 0.0049 0.0077 0.0167
O3E 0.0244 0.0469 0.0194 0.0049 0.0077 0.0167
N1F 0.016 0.0189 0.0187 -0.0044 -0.0006 -0.0019
N1D 0.016 0.0189 0.0187 0.0044 -0.0006 0.0019
C1F 0.0133 0.0208 0.0204 -0.0019 0.0017 -0.001
C2F 0.0203 0.0185 0.0161 -0.0018 -0.0004 0.0009
C3F 0.017 0.0136 0.0188 -0.0016 -0.0054 0.0019
C4F 0.0238 0.022 0.0202 -0.0017 0.0034 -0.0068
C5F 0.0257 0.0257 0.0191 -0.0046 0.0036 -0.0053
C6F 0.0238 0.0146 0.019 -0.0004 -0.0075 -0.0005
loop_
_geom_bond_atom_site_label_1
_geom_bond_atom_site_label_2
_geom_bond_site_symmetry_1
_geom_bond_site_symmetry_2
Zn1 O1 1_555 1_555
P1 H1 1_555 1_555
O1 P1 1_555 1_555
O2 P1 1_555 1_555
O3 P1 1_555 1_555
N1 Zn1 1_555 1_555
C1 N1 1_555 1_555
H2 C1 1_555 1_555
C2 C1 1_555 1_555
H3 C2 1_555 1_555
C3 C2 1_555 1_555
C4 C3 1_555 1_555
H4 C4 1_555 1_555
C5 N1 1_555 1_555
H5 C5 1_555 1_555
C6 C3 1_555 1_555
H6 C6 1_555 1_555
H7 C6 1_555 1_555
C7 C6 1_555 1_555
H8 C7 1_555 1_555
H9 C7 1_555 1_555
C8 H10 1_555 1_555
C9 C8 1_555 1_555
H11 C9 1_555 1_555
C10 C9 1_555 1_555
O4 C10 1_555 1_555
H13 O4 1_555 1_555
Zn1D O2 1_555 1_555
Zn1A O3 1_555 1_555
Zn1F N1F 1_555 1_555
Zn1E O3D 1_555 1_555
P1D H1D 1_555 1_555
O1D Zn1D 1_555 1_555
O2D Zn1 1_555 1_555
O3D P1D 1_555 1_555
O3A Zn1 1_555 1_555
O3E Zn1D 1_555 1_555
N1F C1F 1_555 1_555
N1D Zn1D 1_555 1_555
C1F H2F 1_555 1_555
C2F C1F 1_555 1_555
H3F C2F 1_555 1_555
C3F C2F 1_555 1_555
C4F C3F 1_555 1_555
H4F C4F 1_555 1_555
C5F N1F 1_555 1_555
H5F C5F 1_555 1_555
C6F C7 1_555 1_555
H6F C6F 1_555 1_555
H7F C6F 1_555 1_555
C8F C8 1_555 1_555
H10F C8F 1_555 1_555
C9F C8F 1_555 1_555
H11F C9F 1_555 1_555
C10F C10 1_555 1_555
O4F C10F 1_555 1_555
H13F O4F 1_555 1_555
C4 C5 1_555 1_555
P1D O1D 1_555 1_555
P1D O2D 1_555 1_555
C3F C6F 1_555 1_555
C4F C5F 1_555 1_555
C9F C10F 1_555 1_555

#END
