
#######################################################################
#
#                 Cambridge Crystallographic Data Centre
#                                CCDC 
#
#######################################################################
#
# If this CIF has been generated from an entry in the Cambridge 
# Structural Database, then it will include bibliographic, chemical, 
# crystal, experimental, refinement or atomic coordinate data resulting 
# from the CCDC's data processing and validation procedures.
#
#######################################################################

data_KUYLOH
_chemical_formula_moiety         '(C30 H27 N4 O11 U1 1+)n'
_symmetry_cell_setting           monoclinic
_symmetry_space_group_name_H-M   'P 21/c'
_symmetry_Int_Tables_number      14
_space_group_name_Hall           '-P 2ybc'
loop_
_symmetry_equiv_pos_site_id
_symmetry_equiv_pos_as_xyz
1 x,y,z
2 -x,1/2+y,1/2-z
3 -x,-y,-z
4 x,1/2-y,1/2+z
_cell_length_a                   6.9795(3)
_cell_length_b                   29.5010(15)
_cell_length_c                   15.8327(8)
_cell_angle_alpha                90
_cell_angle_beta                 101.455(5)
_cell_angle_gamma                90
_cell_volume                     3195.05
loop_
_atom_site_label
_atom_site_type_symbol
_atom_site_fract_x
_atom_site_fract_y
_atom_site_fract_z
U1 U 0.98260(3) 0.46394(2) 0.84795(2)
O1 O 0.8013(6) 0.42760(16) 0.7160(3)
O2 O 0.6512(6) 0.48327(16) 0.7691(3)
O3 O -0.7479(6) 0.46833(14) -0.0339(3)
O4 O -0.8759(6) 0.47161(14) 0.0847(3)
O5 O -0.8280(6) 0.09559(14) 0.3181(3)
O6 O -0.9859(7) 0.15932(16) 0.2693(3)
O7 O 0.8622(6) 0.42838(14) 0.9114(3)
O8 O 1.0996(6) 0.50213(15) 0.7871(3)
N1 N 0.0975(7) 0.40201(17) 0.5901(3)
N2 N -0.2385(7) 0.39618(18) 0.1880(3)
N3 N -0.3029(8) 0.21035(18) 0.3768(4)
C1 C 0.6478(9) 0.4497(2) 0.7192(4)
C2 C 0.4559(9) 0.4338(2) 0.6696(4)
C3 C 0.2980(9) 0.4628(2) 0.6516(4)
H1 H 0.3129 0.4940 0.6663
C4 C 0.1164(9) 0.4458(2) 0.6114(4)
H2 H 0.0061 0.4653 0.5993
C5 C 0.2509(9) 0.3733(2) 0.6064(4)
H3 H 0.2324 0.3422 0.5911
C6 C 0.4333(10) 0.3884(2) 0.6449(4)
H4 H 0.5421 0.3684 0.6545
C7 C -0.7421(8) 0.4613(2) 0.0450(4)
C8 C -0.5639(8) 0.4383(2) 0.0961(4)
C9 C -0.5586(9) 0.4238(2) 0.1789(4)
H5 H -0.6681 0.4284 0.2052
C10 C -0.3931(9) 0.4025(2) 0.2236(4)
H6 H -0.3900 0.3922 0.2807
C11 C -0.2397(9) 0.4095(2) 0.1061(4)
H7 H -0.1283 0.4043 0.0814
C12 C -0.4019(9) 0.4305(2) 0.0587(4)
H8 H -0.4037 0.4395 0.0010
C13 C -0.8405(9) 0.1378(2) 0.3031(4)
C14 C -0.6489(10) 0.1635(2) 0.3294(4)
C15 C -0.6368(10) 0.2091(2) 0.3088(5)
H9 H -0.7478 0.2244 0.2772
C16 C -0.4619(10) 0.2319(2) 0.3347(5)
H10 H -0.4547 0.2633 0.3224
C17 C -0.3116(10) 0.1660(2) 0.3964(4)
H11 H -0.1986 0.1512 0.4276
C18 C -0.4792(10) 0.1424(2) 0.3721(4)
H12 H -0.4812 0.1108 0.3843
C19 C -0.0965(8) 0.3556(2) 0.4718(4)
C20 C -0.0723(8) 0.3786(2) 0.3963(4)
C21 C -0.0756(8) 0.3538(2) 0.3212(4)
C22 C -0.1015(8) 0.3067(2) 0.3192(4)
C23 C -0.1107(8) 0.2839(2) 0.3966(4)
C24 C -0.1152(8) 0.3079(2) 0.4730(4)
C25 C -0.0990(9) 0.3835(2) 0.5513(4)
H13 H -0.1920 0.4089 0.5362
H14 H -0.1459 0.3644 0.5945
C26 C -0.0448(10) 0.4295(2) 0.3982(4)
H15 H -0.0688 0.4412 0.3392
H16 H 0.0893 0.4368 0.4270
H17 H -0.1369 0.4434 0.4298
C27 C -0.0504(9) 0.3774(2) 0.2399(4)
H18 H 0.0059 0.3558 0.2037
H19 H 0.0440 0.4026 0.2552
C28 C -0.1182(11) 0.2809(3) 0.2351(5)
H20 H -0.1536 0.2493 0.2436
H21 H 0.0074 0.2818 0.2164
H22 H -0.2193 0.2949 0.1910
C29 C -0.1056(9) 0.2330(2) 0.3989(5)
H23 H -0.0401 0.2232 0.4573
H24 H -0.0251 0.2222 0.3580
C30 C -0.1361(11) 0.2830(3) 0.5525(5)
H25 H -0.1994 0.3027 0.5887
H26 H -0.0065 0.2741 0.5845
H27 H -0.2160 0.2558 0.5367
U1_2 U -1.01740(3) 0.46394(2) -0.15205(2)
U1B U -0.98260(3) 0.53606(2) 0.15205(2)
U1C U -1.01740(3) 0.03606(2) 0.34795(2)
O3_2 O 1.2521(6) 0.46833(14) 0.9661(3)
O4B O 0.8759(6) 0.52839(14) 0.9153(3)
O5C O 1.1720(6) 0.40441(14) 0.8181(3)
O9 O -0.6003(18) 0.3355(4) 0.3367(8)
O10 O -0.5687(18) 0.3617(4) 0.4649(9)
O11 O -0.6211(18) 0.2894(4) 0.4455(9)
N4 N -0.5974(9) 0.3282(4) 0.4134(8)
loop_
_geom_bond_atom_site_label_1
_geom_bond_atom_site_label_2
_geom_bond_site_symmetry_1
_geom_bond_site_symmetry_2
U1 O1 1_555 1_555
O1 C1 1_555 1_555
O2 U1 1_555 1_555
O3 C7 1_555 1_555
O4 C7 1_555 1_555
O5 C13 1_555 1_555
O6 C13 1_555 1_555
O7 U1 1_555 1_555
O8 U1 1_555 1_555
N1 C4 1_555 1_555
N2 C10 1_555 1_555
N3 C16 1_555 1_555
C1 O2 1_555 1_555
C2 C1 1_555 1_555
C3 C2 1_555 1_555
H1 C3 1_555 1_555
C4 C3 1_555 1_555
H2 C4 1_555 1_555
C5 N1 1_555 1_555
H3 C5 1_555 1_555
C6 C2 1_555 1_555
H4 C6 1_555 1_555
C7 C8 1_555 1_555
C8 C9 1_555 1_555
C9 H5 1_555 1_555
C10 C9 1_555 1_555
H6 C10 1_555 1_555
C11 N2 1_555 1_555
H7 C11 1_555 1_555
C12 C8 1_555 1_555
H8 C12 1_555 1_555
C13 C14 1_555 1_555
C14 C15 1_555 1_555
C15 H9 1_555 1_555
C16 C15 1_555 1_555
H10 C16 1_555 1_555
C17 N3 1_555 1_555
H11 C17 1_555 1_555
C18 C14 1_555 1_555
H12 C18 1_555 1_555
C19 C20 1_555 1_555
C20 C21 1_555 1_555
C21 C22 1_555 1_555
C22 C23 1_555 1_555
C23 C24 1_555 1_555
C24 C19 1_555 1_555
C25 N1 1_555 1_555
H13 C25 1_555 1_555
H14 C25 1_555 1_555
C26 C20 1_555 1_555
H15 C26 1_555 1_555
H16 C26 1_555 1_555
H17 C26 1_555 1_555
C27 N2 1_555 1_555
H18 C27 1_555 1_555
H19 C27 1_555 1_555
C28 C22 1_555 1_555
H20 C28 1_555 1_555
H21 C28 1_555 1_555
H22 C28 1_555 1_555
C29 N3 1_555 1_555
H23 C29 1_555 1_555
H24 C29 1_555 1_555
C30 C24 1_555 1_555
H25 C30 1_555 1_555
H26 C30 1_555 1_555
H27 C30 1_555 1_555
O9 N4 1_555 1_555
O10 N4 1_555 1_555
O11 N4 1_555 1_555
U1_2 O3 1_555 1_555
U1B O4 1_555 1_555
U1C O5 1_555 1_555
O3_2 U1 1_555 1_555
O4B U1 1_555 1_555
O5C U1 1_555 1_555
C5 C6 1_555 1_555
C11 C12 1_555 1_555
C17 C18 1_555 1_555
C19 C25 1_555 1_555
C21 C27 1_555 1_555
C23 C29 1_555 1_555

#END
