
#######################################################################
#
#                 Cambridge Crystallographic Data Centre
#                                CCDC 
#
#######################################################################
#
# If this CIF has been generated from an entry in the Cambridge 
# Structural Database, then it will include bibliographic, chemical, 
# crystal, experimental, refinement or atomic coordinate data resulting 
# from the CCDC's data processing and validation procedures.
#
#######################################################################

data_CETGOY
_chemical_formula_moiety         '(C100 H126 N4 Ni2 O9)n'
_symmetry_cell_setting           trigonal
_symmetry_space_group_name_H-M   'P 31 2 1'
_symmetry_Int_Tables_number      152
_space_group_name_Hall           'P 31 2"'
loop_
_symmetry_equiv_pos_site_id
_symmetry_equiv_pos_as_xyz
1 x,y,z
2 -y,x-y,1/3+z
3 -x+y,-x,2/3+z
4 x-y,-y,2/3-z
5 -x,-x+y,1/3-z
6 y,x,-z
_cell_length_a                   25.531(5)
_cell_length_b                   25.531(5)
_cell_length_c                   14.907(5)
_cell_angle_alpha                90
_cell_angle_beta                 90
_cell_angle_gamma                120
_cell_volume                     8415.05
loop_
_atom_site_label
_atom_site_type_symbol
_atom_site_fract_x
_atom_site_fract_y
_atom_site_fract_z
Ni1 Ni 0.51642(3) 0.07144(2) 0.88273(4)
O1 O 0.47055(15) 0.08181(14) 0.9908(2)
O2 O 0.43701(19) 0.0000 0.8333
H1 H 0.4111 -0.0129 0.8745
O3 O 0.52965(18) 0.01479(15) 0.9599(2)
O4 O 0.38403(18) -0.00475(17) 0.9801(2)
O5 O 0.49386(17) -0.07419(15) 0.8905(2)
N1 N 0.5054(2) 0.13783(17) 0.8161(3)
N2 N 0.5407(2) 0.40270(17) 0.6073(3)
C1 C 0.6160(2) -0.0104(3) 1.0383(3)
H3 H 0.6170 0.0293 1.0371
C2 C 0.5095(2) 0.2384(2) 0.7323(3)
C3 C 0.5476(2) -0.0577(2) 1.0321(3)
C4 C 0.4422(3) 0.0951(2) 1.1684(3)
H4 H 0.4777 0.1256 1.1331
C5 C 0.3915(3) 0.0625(3) 1.0988(4)
C6 C 0.4327(3) 0.1324(2) 1.2428(4)
C7 C 0.4926(3) 0.1685(3) 1.2929(4)
C8 C 0.5218(2) -0.0377(2) 0.9531(3)
C9 C 0.5039(3) 0.1896(2) 0.6846(4)
H5 H 0.5015 0.1897 0.6210
C10 C 0.5117(3) 0.2342(3) 0.8262(4)
H6 H 0.5148 0.2660 0.8631
C11 C 0.5017(3) 0.1406(2) 0.7274(4)
H7 H 0.4973 0.1077 0.6922
C12 C 0.5095(3) 0.1842(2) 0.8643(4)
H8 H 0.5110 0.1823 0.9278
C13 C 0.5138(3) 0.2988(3) 0.5992(4)
H9 H 0.5031 0.2647 0.5620
C14 C 0.6013(4) 0.2353(3) 1.3933(4)
C15 C 0.6516(3) -0.0068(3) 1.1242(4)
C16 C 0.4142(3) 0.1750(3) 1.1972(4)
H10 H 0.4037 0.1958 1.2439
H11 H 0.4490 0.2062 1.1628
C17 C 0.4182(2) 0.0445(2) 1.0179(3)
C18 C 0.5338(3) 0.1484(3) 1.3015(4)
C19 C 0.5864(3) 0.1816(3) 1.3507(4)
H12 H 0.6136 0.1665 1.3554
C20 C 0.6510(3) -0.0087(4) 0.9545(4)
H13 H 0.6603 -0.0420 0.9567
H14 H 0.6261 -0.0144 0.9005
C21 C 0.4631(3) 0.0545(3) 1.2100(4)
H15 H 0.4326 0.0273 1.2541
H16 H 0.4662 0.0291 1.1626
C22 C 0.5270(3) 0.3537(3) 0.5605(4)
H17 H 0.5262 0.3560 0.4970
C23 C 0.3745(3) 0.1075(3) 1.0599(4)
H18 H 0.3387 0.0855 1.0206
H19 H 0.4083 0.1374 1.0226
C24 C 0.6151(4) -0.0049(4) 1.2025(4)
H20 H 0.6345 -0.0071 1.2588
H21 H 0.6161 0.0343 1.2019
C25 C 0.5282(3) 0.3439(4) 0.7382(4)
H22 H 0.5287 0.3426 0.8018
C26 C 0.3602(4) 0.1410(4) 1.1340(5)
H23 H 0.3501 0.1701 1.1059
H24 H 0.3245 0.1115 1.1689
C27 C 0.5235(4) 0.0900(3) 1.2562(4)
H25 H 0.5559 0.1004 1.2115
H26 H 0.5270 0.0639 1.3022
C28 C 0.3839(3) 0.0939(3) 1.3149(4)
H27 H 0.3445 0.0699 1.2858
H28 H 0.3815 0.1208 1.3594
H29 H 0.3952 0.0667 1.3448
C29 C 0.5346(3) -0.1228(3) 1.0159(5)
H30 H 0.5550 -0.1240 0.9609
H31 H 0.4909 -0.1499 1.0097
H32 H 0.5496 -0.1358 1.0668
C30 C 0.3359(3) 0.0060(3) 1.1337(4)
H33 H 0.3058 -0.0118 1.0857
H34 H 0.3187 0.0167 1.1843
H35 H 0.3476 -0.0234 1.1534
C31 C 0.5166(3) -0.0538(3) 1.1186(4)
H36 H 0.5147 -0.0160 1.1179
H37 H 0.4746 -0.0883 1.1206
C32 C 0.5073(3) 0.2228(3) 1.3367(4)
H38 H 0.4799 0.2377 1.3329
C33 C 0.5505(4) -0.0550(5) 1.2024(4)
H39 H 0.5299 -0.0513 1.2562
H40 H 0.5492 -0.0943 1.2057
C34 C 0.5594(3) 0.2550(3) 1.3847(4)
H41 H 0.5674 0.2916 1.4128
C35 C 0.6616(5) -0.0613(4) 1.1360(6)
H42 H 0.6848 -0.0633 1.0850
H43 H 0.6224 -0.0987 1.1389
H44 H 0.6840 -0.0565 1.1916
C36 C 0.7089(3) 0.0512(5) 0.9492(5)
H45 H 0.7004 0.0825 0.9262
H46 H 0.7374 0.0481 0.9075
C37 C 0.5396(3) 0.3966(3) 0.6952(4)
H47 H 0.5472 0.4304 0.7311
C38 C 0.6593(4) 0.2694(4) 1.4467(6)
H48 H 0.6656 0.2388 1.4794
C39 C 0.7141(7) 0.3056(9) 1.3869(10)
H49 H 0.7165 0.2788 1.3422
H50 H 0.7509 0.3239 1.4236
H51 H 0.7103 0.3375 1.3564
C40 C 0.6595(7) 0.3133(7) 1.5161(9)
H52 H 0.6238 0.2922 1.5546
H53 H 0.6587 0.3469 1.4856
H54 H 0.6961 0.3290 1.5529
C44 C 0.5162(2) 0.2936(2) 0.6896(3)
C54 C 0.7405(7) 0.0791(8) 1.0211(10)
C55 C 0.7180(5) 0.0553(7) 1.1055(11)
C56 C 0.7522(5) 0.0828(8) 1.1817(9)
H72 H 0.7368 0.0665 1.2393
C57 C 0.8089(5) 0.1342(7) 1.1735(10)
H73 H 0.8322 0.1531 1.2255
C58 C 0.8314(5) 0.1581(7) 1.0891(12)
C59 C 0.7972(7) 0.1305(8) 1.0129(9)
H74 H 0.8125 0.1468 0.9553
C60 C 0.8954(7) 0.2165(7) 1.0732(11)
H75 H 0.8907 0.2411 1.0250
C61 C 0.9399(10) 0.1988(11) 1.0408(16)
H76 H 0.9236 0.1730 0.9877
H77 H 0.9471 0.1765 1.0882
H78 H 0.9780 0.2352 1.0253
C62 C 0.9187(9) 0.2555(9) 1.1560(13)
H79 H 0.8905 0.2693 1.1731
H80 H 0.9585 0.2906 1.1434
H81 H 0.9221 0.2319 1.2051
Ni1C Ni 0.44498(4) -0.07144(2) 0.78394(4)
Ni1B Ni 0.55502(4) 0.48358(3) 0.54940(4)
Ni1A Ni 0.92856(2) 0.44498(4) 1.21606(4)
O1C O 0.38874(21) -0.08181(14) 0.6759(2)
H1C H 0.4240 0.0129 0.7922
O3C O 0.51486(23) -0.01479(15) 0.7068(2)
O4C O 0.38878(25) 0.00475(17) 0.6866(2)
O5C O 0.56805(23) 0.07419(15) 0.7762(2)
N1A N 0.86217(17) 0.36757(26) 1.1494(3)
N1C N 0.36757(26) -0.13783(17) 0.8506(3)
N2A N 0.59730(17) 0.13800(26) 0.9406(3)
N2D N 0.4593(2) -0.13800(26) 0.7260(3)
C1C C 0.6264(4) 0.0104(3) 0.6284(3)
H3C H 0.5877 -0.0293 0.6296
C2A C 0.7616(2) 0.2711(3) 1.0656(3)
C3C C 0.6053(3) 0.0577(2) 0.6346(3)
C4C C 0.3471(4) -0.0951(2) 0.4983(3)
H4C H 0.3521 -0.1256 0.5336
C5C C 0.3290(4) -0.0625(3) 0.5679(4)
C6C C 0.3003(4) -0.1324(2) 0.4239(4)
C7C C 0.3241(4) -0.1685(3) 0.3738(4)
C8C C 0.5595(3) 0.0377(2) 0.7136(3)
C9A C 0.8104(2) 0.3143(4) 1.0179(4)
H5A H 0.8103 0.3118 0.9543
C10A C 0.7658(3) 0.2775(4) 1.1595(4)
H6A H 0.7340 0.2488 1.1964
C11A C 0.8594(2) 0.3611(4) 1.0607(4)
H7A H 0.8923 0.3896 1.0255
C12A C 0.8158(2) 0.3253(4) 1.1976(4)
H8A H 0.8177 0.3287 1.2611
C13A C 0.7012(3) 0.2150(4) 0.9325(4)
H9A H 0.7353 0.2384 0.8953
C14C C 0.3660(5) -0.2353(3) 0.2734(4)
C15C C 0.6584(4) 0.0068(3) 0.5425(4)
C16C C 0.2392(4) -0.1750(3) 0.4695(4)
H10C H 0.2079 -0.1958 0.4228
H11C H 0.2428 -0.2062 0.5039
C17C C 0.3737(3) -0.0445(2) 0.6488(3)
C18C C 0.3854(4) -0.1484(3) 0.3652(4)
C19C C 0.4048(4) -0.1816(3) 0.3160(4)
H12C H 0.4471 -0.1665 0.3113
C20C C 0.6597(5) 0.0087(4) 0.7122(4)
H13C H 0.7023 0.0420 0.7100
H14C H 0.6405 0.0144 0.7662
C21C C 0.4086(4) -0.0545(3) 0.4567(4)
H15C H 0.4053 -0.0273 0.4126
H16C H 0.4371 -0.0291 0.5041
C22A C 0.6463(3) 0.1733(4) 0.8938(4)
H17A H 0.6440 0.1702 0.8303
C23C C 0.2670(4) -0.1075(3) 0.6068(4)
H18C H 0.2532 -0.0855 0.6461
H19C H 0.2709 -0.1374 0.6441
C24C C 0.6200(6) 0.0049(4) 0.4642(4)
H20C H 0.6416 0.0071 0.4079
H21C H 0.5818 -0.0343 0.4648
C25A C 0.6561(4) 0.1843(5) 1.0715(4)
H22A H 0.6574 0.1861 1.1351
C26C C 0.2192(6) -0.1410(4) 0.5327(5)
H23C H 0.1800 -0.1701 0.5608
H24C H 0.2130 -0.1115 0.4978
C27C C 0.4335(5) -0.0900(3) 0.4105(4)
H25C H 0.4555 -0.1004 0.4552
H26C H 0.4631 -0.0639 0.3645
C28C C 0.2900(4) -0.0939(3) 0.3518(4)
H27C H 0.2746 -0.0699 0.3809
H28C H 0.2607 -0.1208 0.3073
H29C H 0.3285 -0.0667 0.3219
C29C C 0.6574(4) 0.1228(3) 0.6508(5)
H30C H 0.6790 0.1240 0.7058
H31C H 0.6408 0.1499 0.6570
H32C H 0.6854 0.1358 0.5999
C30C C 0.3299(4) -0.0060(3) 0.5330(4)
H33C H 0.3176 0.0118 0.5810
H34C H 0.3020 -0.0167 0.4824
H35C H 0.3710 0.0234 0.5133
C31C C 0.5704(4) 0.0538(3) 0.5481(4)
H36C H 0.5307 0.0160 0.5488
H37C H 0.5629 0.0883 0.5461
C32C C 0.2845(4) -0.2228(3) 0.3300(4)
H38C H 0.2422 -0.2377 0.3338
C33C C 0.6055(6) 0.0550(5) 0.4643(4)
H39C H 0.5812 0.0513 0.4105
H40C H 0.6435 0.0943 0.4610
C34C C 0.3044(4) -0.2550(3) 0.2820(4)
H41C H 0.2758 -0.2916 0.2539
C35C C 0.7229(6) 0.0613(4) 0.5307(6)
H42C H 0.7481 0.0633 0.5817
H43C H 0.7211 0.0987 0.5278
H44C H 0.7405 0.0565 0.4751
C36C C 0.6577(6) -0.0512(5) 0.7175(5)
H45C H 0.6179 -0.0825 0.7405
H46C H 0.6893 -0.0481 0.7592
C37A C 0.6034(3) 0.1430(4) 1.0285(4)
H47A H 0.5696 0.1168 1.0644
C38C C 0.3899(6) -0.2694(4) 0.2200(6)
H48C H 0.4268 -0.2388 0.1873
C39C C 0.4085(11) -0.3056(9) 0.2798(10)
H49C H 0.4377 -0.2788 0.3245
H50C H 0.4270 -0.3239 0.2431
H51C H 0.3728 -0.3375 0.3103
C40C C 0.3462(10) -0.3133(7) 0.1506(9)
H52C H 0.3316 -0.2922 0.1121
H53C H 0.3118 -0.3469 0.1811
H54C H 0.3671 -0.3290 0.1138
C44A C 0.7064(2) 0.2226(3) 1.0229(3)
C54C C 0.6614(11) -0.0791(8) 0.6456(10)
C55C C 0.6627(9) -0.0553(7) 0.5612(11)
C56C C 0.6694(9) -0.0828(8) 0.4850(9)
H72C H 0.6703 -0.0665 0.4274
C57C C 0.6747(9) -0.1342(7) 0.4932(10)
H73C H 0.6791 -0.1531 0.4412
C58C C 0.6733(9) -0.1581(7) 0.5776(12)
C59C C 0.6667(11) -0.1305(8) 0.6538(9)
H74C H 0.6657 -0.1468 0.7114
C60C C 0.6789(10) -0.2165(7) 0.5935(11)
H75C H 0.6496 -0.2411 0.6417
C61C C 0.7411(15) -0.1988(11) 0.6259(16)
H76C H 0.7506 -0.1730 0.6790
H77C H 0.7706 -0.1765 0.5785
H78C H 0.7428 -0.2352 0.6414
C62C C 0.6632(13) -0.2555(9) 0.5107(13)
H79C H 0.6212 -0.2693 0.4936
H80C H 0.6679 -0.2906 0.5233
H81C H 0.6902 -0.2319 0.4616
loop_
_geom_bond_atom_site_label_1
_geom_bond_atom_site_label_2
_geom_bond_site_symmetry_1
_geom_bond_site_symmetry_2
Ni1 O1 1_555 1_555
O1 C17 1_555 1_555
O2 Ni1 1_555 1_555
H1 O2 1_555 1_555
O3 Ni1 1_555 1_555
O4 C17 1_555 1_555
O5 C8 1_555 1_555
N1 Ni1 1_555 1_555
N2 C22 1_555 1_555
C1 H3 1_555 1_555
C2 C9 1_555 1_555
C3 C1 1_555 1_555
C4 H4 1_555 1_555
C5 C4 1_555 1_555
C6 C4 1_555 1_555
C7 C6 1_555 1_555
C8 O3 1_555 1_555
C9 H5 1_555 1_555
C10 C2 1_555 1_555
H6 C10 1_555 1_555
C11 N1 1_555 1_555
H7 C11 1_555 1_555
C12 N1 1_555 1_555
H8 C12 1_555 1_555
C13 H9 1_555 1_555
C14 C19 1_555 1_555
C15 C1 1_555 1_555
C16 C6 1_555 1_555
H10 C16 1_555 1_555
H11 C16 1_555 1_555
C17 C5 1_555 1_555
C18 C7 1_555 1_555
C19 C18 1_555 1_555
H12 C19 1_555 1_555
C20 C1 1_555 1_555
H13 C20 1_555 1_555
H14 C20 1_555 1_555
C21 C4 1_555 1_555
H15 C21 1_555 1_555
H16 C21 1_555 1_555
C22 C13 1_555 1_555
H17 C22 1_555 1_555
C23 C5 1_555 1_555
H18 C23 1_555 1_555
H19 C23 1_555 1_555
C24 C15 1_555 1_555
H20 C24 1_555 1_555
H21 C24 1_555 1_555
C25 H22 1_555 1_555
C26 C16 1_555 1_555
H23 C26 1_555 1_555
H24 C26 1_555 1_555
C27 C18 1_555 1_555
H25 C27 1_555 1_555
H26 C27 1_555 1_555
C28 C6 1_555 1_555
H27 C28 1_555 1_555
H28 C28 1_555 1_555
H29 C28 1_555 1_555
C29 C3 1_555 1_555
H30 C29 1_555 1_555
H31 C29 1_555 1_555
H32 C29 1_555 1_555
C30 C5 1_555 1_555
H33 C30 1_555 1_555
H34 C30 1_555 1_555
H35 C30 1_555 1_555
C31 C3 1_555 1_555
H36 C31 1_555 1_555
H37 C31 1_555 1_555
C32 C7 1_555 1_555
H38 C32 1_555 1_555
C33 C24 1_555 1_555
H39 C33 1_555 1_555
H40 C33 1_555 1_555
C34 C14 1_555 1_555
H41 C34 1_555 1_555
C35 C15 1_555 1_555
H42 C35 1_555 1_555
H43 C35 1_555 1_555
H44 C35 1_555 1_555
C36 C20 1_555 1_555
H45 C36 1_555 1_555
H46 C36 1_555 1_555
C37 N2 1_555 1_555
H47 C37 1_555 1_555
C38 C14 1_555 1_555
H48 C38 1_555 1_555
C39 C38 1_555 1_555
H49 C39 1_555 1_555
H50 C39 1_555 1_555
H51 C39 1_555 1_555
C40 C38 1_555 1_555
H52 C40 1_555 1_555
H53 C40 1_555 1_555
H54 C40 1_555 1_555
C44 C2 1_555 1_555
C54 C36 1_555 1_555
C55 C15 1_555 1_555
C56 C55 1_555 1_555
H72 C56 1_555 1_555
C57 C56 1_555 1_555
H73 C57 1_555 1_555
C58 C57 1_555 1_555
C59 C54 1_555 1_555
H74 C59 1_555 1_555
C60 C58 1_555 1_555
H75 C60 1_555 1_555
C61 C60 1_555 1_555
H76 C61 1_555 1_555
H77 C61 1_555 1_555
H78 C61 1_555 1_555
C62 C60 1_555 1_555
H79 C62 1_555 1_555
H80 C62 1_555 1_555
H81 C62 1_555 1_555
Ni1C O2 1_555 1_555
Ni1B N2 1_555 1_555
Ni1A N1A 1_555 1_555
O1C Ni1C 1_555 1_555
H1C O2 1_555 1_555
O3C Ni1C 1_555 1_555
O4C C17C 1_555 1_555
O5C Ni1 1_555 1_555
N1A C11A 1_555 1_555
N1C Ni1C 1_555 1_555
N2A Ni1 1_555 1_555
N2D Ni1C 1_555 1_555
C1C H3C 1_555 1_555
C2A C9A 1_555 1_555
C3C C1C 1_555 1_555
C4C H4C 1_555 1_555
C5C C4C 1_555 1_555
C6C C4C 1_555 1_555
C7C C6C 1_555 1_555
C8C O3C 1_555 1_555
C9A H5A 1_555 1_555
C10A C2A 1_555 1_555
H6A C10A 1_555 1_555
C11A C9A 1_555 1_555
H7A C11A 1_555 1_555
C12A N1A 1_555 1_555
H8A C12A 1_555 1_555
C13A H9A 1_555 1_555
C14C C19C 1_555 1_555
C15C C1C 1_555 1_555
C16C C6C 1_555 1_555
H10C C16C 1_555 1_555
H11C C16C 1_555 1_555
C17C O1C 1_555 1_555
C18C C7C 1_555 1_555
C19C C18C 1_555 1_555
H12C C19C 1_555 1_555
C20C C1C 1_555 1_555
H13C C20C 1_555 1_555
H14C C20C 1_555 1_555
C21C C4C 1_555 1_555
H15C C21C 1_555 1_555
H16C C21C 1_555 1_555
C22A N2A 1_555 1_555
H17A C22A 1_555 1_555
C23C C5C 1_555 1_555
H18C C23C 1_555 1_555
H19C C23C 1_555 1_555
C24C C15C 1_555 1_555
H20C C24C 1_555 1_555
H21C C24C 1_555 1_555
C25A H22A 1_555 1_555
C26C C16C 1_555 1_555
H23C C26C 1_555 1_555
H24C C26C 1_555 1_555
C27C C18C 1_555 1_555
H25C C27C 1_555 1_555
H26C C27C 1_555 1_555
C28C C6C 1_555 1_555
H27C C28C 1_555 1_555
H28C C28C 1_555 1_555
H29C C28C 1_555 1_555
C29C C3C 1_555 1_555
H30C C29C 1_555 1_555
H31C C29C 1_555 1_555
H32C C29C 1_555 1_555
C30C C5C 1_555 1_555
H33C C30C 1_555 1_555
H34C C30C 1_555 1_555
H35C C30C 1_555 1_555
C31C C3C 1_555 1_555
H36C C31C 1_555 1_555
H37C C31C 1_555 1_555
C32C C7C 1_555 1_555
H38C C32C 1_555 1_555
C33C C24C 1_555 1_555
H39C C33C 1_555 1_555
H40C C33C 1_555 1_555
C34C C14C 1_555 1_555
H41C C34C 1_555 1_555
C35C C15C 1_555 1_555
H42C C35C 1_555 1_555
H43C C35C 1_555 1_555
H44C C35C 1_555 1_555
C36C C20C 1_555 1_555
H45C C36C 1_555 1_555
H46C C36C 1_555 1_555
C37A N2A 1_555 1_555
H47A C37A 1_555 1_555
C38C C14C 1_555 1_555
H48C C38C 1_555 1_555
C39C C38C 1_555 1_555
H49C C39C 1_555 1_555
H50C C39C 1_555 1_555
H51C C39C 1_555 1_555
C40C C38C 1_555 1_555
H52C C40C 1_555 1_555
H53C C40C 1_555 1_555
H54C C40C 1_555 1_555
C44A C2A 1_555 1_555
C54C C36C 1_555 1_555
C55C C15C 1_555 1_555
C56C C55C 1_555 1_555
H72C C56C 1_555 1_555
C57C C56C 1_555 1_555
H73C C57C 1_555 1_555
C58C C57C 1_555 1_555
C59C C54C 1_555 1_555
H74C C59C 1_555 1_555
C60C C58C 1_555 1_555
H75C C60C 1_555 1_555
C61C C60C 1_555 1_555
H76C C61C 1_555 1_555
H77C C61C 1_555 1_555
H78C C61C 1_555 1_555
C62C C60C 1_555 1_555
H79C C62C 1_555 1_555
H80C C62C 1_555 1_555
H81C C62C 1_555 1_555
O5 Ni1C 1_555 1_555
C3 C8 1_555 1_555
C9 C11 1_555 1_555
C10 C12 1_555 1_555
C13 C44 1_555 1_555
C21 C27 1_555 1_555
C23 C26 1_555 1_555
C25 C37 1_555 1_555
C25 C44 1_555 1_555
C31 C33 1_555 1_555
C32 C34 1_555 1_555
C54 C55 1_555 1_555
C58 C59 1_555 1_555
O5C C8C 1_555 1_555
C3C C8C 1_555 1_555
C5C C17C 1_555 1_555
C10A C12A 1_555 1_555
C13A C22A 1_555 1_555
C13A C44A 1_555 1_555
C21C C27C 1_555 1_555
C23C C26C 1_555 1_555
C25A C37A 1_555 1_555
C25A C44A 1_555 1_555
C31C C33C 1_555 1_555
C32C C34C 1_555 1_555
C54C C55C 1_555 1_555
C58C C59C 1_555 1_555

#END
