
#######################################################################
#
#                 Cambridge Crystallographic Data Centre
#                                CCDC 
#
#######################################################################
#
# If this CIF has been generated from an entry in the Cambridge 
# Structural Database, then it will include bibliographic, chemical, 
# crystal, experimental, refinement or atomic coordinate data resulting 
# from the CCDC's data processing and validation procedures.
#
#######################################################################

data_BUGSEC
_chemical_formula_moiety         '(C7 H21 Eu1 N1 O10 P1)n'
_symmetry_cell_setting           monoclinic
_symmetry_space_group_name_H-M   'P 21/c'
_symmetry_Int_Tables_number      14
_space_group_name_Hall           '-P 2ybc'
loop_
_symmetry_equiv_pos_site_id
_symmetry_equiv_pos_as_xyz
1 x,y,z
2 -x,1/2+y,1/2-z
3 -x,-y,-z
4 x,1/2-y,1/2+z
_cell_length_a                   5.5520(5)
_cell_length_b                   13.3686(14)
_cell_length_c                   20.797(2)
_cell_angle_alpha                90
_cell_angle_beta                 95.577(3)
_cell_angle_gamma                90
_cell_volume                     1536.3
loop_
_atom_site_label
_atom_site_type_symbol
_atom_site_fract_x
_atom_site_fract_y
_atom_site_fract_z
C1 C 1.3078(14) 0.4623(6) 0.6672(4)
H1 H 1.1655 0.4199 0.6633
H2 H 1.2596 0.5270 0.6827
C2 C 1.5291(17) 0.3078(6) 0.7012(4)
H3 H 1.3781 0.2714 0.7014
H4 H 1.5855 0.3012 0.6587
C3 C 1.7217(17) 0.2644(7) 0.7536(4)
H5 H 1.8746 0.2987 0.7514
H6 H 1.7466 0.1940 0.7452
C4 C 1.6385(15) 0.2770(6) 0.8221(4)
H7 H 1.4852 0.2415 0.8245
C5 C 1.6004(17) 0.3906(6) 0.8349(4)
H8 H 1.5484 0.4001 0.8776
H9 H 1.7513 0.4265 0.8326
C6 C 1.4031(17) 0.4318(7) 0.7825(4)
H10 H 1.3746 0.5022 0.7901
H11 H 1.2521 0.3960 0.7848
C7 C 1.8296(14) 0.2358(5) 0.8749(4)
Eu1 Eu 1.12765(7) 0.36733(3) 0.472180(18)
N1 N 1.4905(13) 0.4178(5) 0.7166(3)
O1 O 1.4592(10) 0.3770(4) 0.5556(3)
O2 O 1.1776(10) 0.5186(4) 0.5457(2)
O3 O 1.6240(9) 0.5498(4) 0.5909(2)
O4 O 1.9980(11) 0.1808(4) 0.8591(3)
O5 O 1.8022(10) 0.2512(4) 0.9326(3)
O6 O 0.93(2) 0.317(8) 0.565(5)
H12 H 0.8138 0.2770 0.5529
H13 H 0.8725 0.3681 0.5823
O7 O 1.35(2) 0.216(9) 0.465(6)
H14 H 1.2795 0.1809 0.4346
H15 H 1.3471 0.1847 0.5006
P1 P 1.4101(4) 0.47912(14) 0.58605(9)
Eu1B Eu 0.87235(7) 0.63267(3) 0.527820(18)
Eu1B_2 Eu 1.87235(7) 0.63267(3) 0.527820(18)
Eu1C Eu 2.12765(7) 0.13267(3) 0.972180(18)
O2B O 0.8224(10) 0.4814(4) 0.4543(2)
O3B O 1.3760(9) 0.4502(4) 0.4091(2)
O4C O 0.9980(11) 0.3192(4) 0.3591(3)
O5C O 0.8022(10) 0.2488(4) 0.4326(3)
O8 O 0.177(2) 0.0740(10) 0.7596(6)
H16 H 0.1906 0.0703 0.8009
H17 H 0.2915 0.1100 0.7474
O9 O -0.023(4) 0.3905(14) 0.1205(10)
H18 H -0.0780 0.4488 0.1117
H19 H 0.1126 0.3950 0.1434
O10 O 0.256(4) 0.4778(15) 0.9865(10)
H20 H 0.3064 0.5374 0.9933
H21 H 0.1544 0.4765 0.9531
loop_
_geom_bond_atom_site_label_1
_geom_bond_atom_site_label_2
_geom_bond_site_symmetry_1
_geom_bond_site_symmetry_2
C1 H1 1_555 1_555
H2 C1 1_555 1_555
C2 H3 1_555 1_555
H4 C2 1_555 1_555
C3 C2 1_555 1_555
H5 C3 1_555 1_555
H6 C3 1_555 1_555
C4 C3 1_555 1_555
H7 C4 1_555 1_555
C5 C4 1_555 1_555
H8 C5 1_555 1_555
H9 C5 1_555 1_555
C6 C5 1_555 1_555
H10 C6 1_555 1_555
H11 C6 1_555 1_555
C7 C4 1_555 1_555
Eu1 O1 1_555 1_555
N1 C1 1_555 1_555
O1 P1 1_555 1_555
O2 Eu1 1_555 1_555
O3 P1 1_555 1_555
O4 C7 1_555 1_555
O5 C7 1_555 1_555
O6 Eu1 1_555 1_555
H12 O6 1_555 1_555
H13 O6 1_555 1_555
O7 Eu1 1_555 1_555
H14 O7 1_555 1_555
H15 O7 1_555 1_555
O8 H16 1_555 1_555
H17 O8 1_555 1_555
O9 H18 1_555 1_555
H19 O9 1_555 1_555
O10 H20 1_555 1_555
H21 O10 1_555 1_555
P1 C1 1_555 1_555
Eu1B O2 1_555 1_555
Eu1B_2 O3 1_555 1_555
Eu1C O4 1_555 1_555
O2B Eu1 1_555 1_555
O3B Eu1 1_555 1_555
O4C Eu1 1_555 1_555
O5C Eu1 1_555 1_555
C2 N1 1_555 1_555
C6 N1 1_555 1_555
O2 P1 1_555 1_555
O5 Eu1C 1_555 1_555
Eu1B O2B 1_555 1_555

#END
