
#######################################################################
#
#                 Cambridge Crystallographic Data Centre
#                                CCDC 
#
#######################################################################
#
# If this CIF has been generated from an entry in the Cambridge 
# Structural Database, then it will include bibliographic, chemical, 
# crystal, experimental, refinement or atomic coordinate data resulting 
# from the CCDC's data processing and validation procedures.
#
#######################################################################

data_BUGSAY
_chemical_formula_moiety         '(C7 H21 Dy1 N1 O10 P1)n'
_symmetry_cell_setting           monoclinic
_symmetry_space_group_name_H-M   'P 21/c'
_symmetry_Int_Tables_number      14
_space_group_name_Hall           '-P 2ybc'
loop_
_symmetry_equiv_pos_site_id
_symmetry_equiv_pos_as_xyz
1 x,y,z
2 -x,1/2+y,1/2-z
3 -x,-y,-z
4 x,1/2-y,1/2+z
_cell_length_a                   5.5286(12)
_cell_length_b                   13.314(2)
_cell_length_c                   20.599(2)
_cell_angle_alpha                90
_cell_angle_beta                 95.244(3)
_cell_angle_gamma                90
_cell_volume                     1509.9
loop_
_atom_site_label
_atom_site_type_symbol
_atom_site_fract_x
_atom_site_fract_y
_atom_site_fract_z
C1 C 1.3078(19) 0.4623(9) 0.6672(5)
H1 H 1.1651 0.4196 0.6634
H2 H 1.2592 0.5273 0.6829
C2 C 1.529(2) 0.3078(8) 0.7012(6)
H3 H 1.3775 0.2713 0.7017
H4 H 1.5856 0.3011 0.6582
C3 C 1.722(2) 0.2644(10) 0.7536(6)
H5 H 1.8751 0.2989 0.7512
H6 H 1.7467 0.1937 0.7451
C4 C 1.639(2) 0.2770(9) 0.8221(5)
H7 H 1.4847 0.2413 0.8247
C5 C 1.600(2) 0.3906(8) 0.8349(6)
H8 H 1.5483 0.4003 0.8781
H9 H 1.7518 0.4266 0.8323
C6 C 1.403(2) 0.4318(9) 0.7825(5)
H10 H 1.3745 0.5025 0.7902
H11 H 1.2516 0.3959 0.7850
C7 C 1.8296(19) 0.2358(8) 0.8749(5)
Dy1 Dy 1.12765(9) 0.36733(4) 0.47218(2)
N1 N 1.4905(18) 0.4178(7) 0.7166(4)
O1 O 1.4592(14) 0.3770(5) 0.5556(4)
O2 O 1.1776(14) 0.5186(6) 0.5457(3)
O3 O 1.6240(13) 0.5498(5) 0.5909(3)
O4 O 1.9980(14) 0.1808(6) 0.8591(4)
O5 O 1.8022(13) 0.2512(6) 0.9326(4)
O6 O 0.93(3) 0.317(11) 0.565(7)
H12 H 0.8138 0.2770 0.5529
H13 H 0.8725 0.3681 0.5823
O7 O 1.35(3) 0.216(12) 0.465(8)
H14 H 1.2795 0.1809 0.4346
H15 H 1.3471 0.1847 0.5006
P1 P 1.4101(5) 0.4791(2) 0.58605(13)
Dy1B Dy 0.87235(9) 0.63267(4) 0.52782(2)
Dy1B_2 Dy 1.87235(9) 0.63267(4) 0.52782(2)
Dy1C Dy 2.12765(9) 0.13267(4) 0.97218(2)
O2B O 0.8224(14) 0.4814(6) 0.4543(3)
O3B O 1.3760(13) 0.4502(5) 0.4091(3)
O4C O 0.9980(14) 0.3192(6) 0.3591(4)
O5C O 0.8022(13) 0.2488(6) 0.4326(4)
O8 O 0.177(4) 0.0740(13) 0.7596(9)
H16 H 0.1906 0.0703 0.8009
H17 H 0.2915 0.1100 0.7474
O9 O -0.023(5) 0.390(2) 0.1205(14)
H18 H -0.0780 0.4488 0.1117
H19 H 0.1126 0.3950 0.1434
O10 O 0.256(6) 0.478(2) 0.9865(13)
H20 H 0.3064 0.5374 0.9933
H21 H 0.1544 0.4765 0.9531
loop_
_geom_bond_atom_site_label_1
_geom_bond_atom_site_label_2
_geom_bond_site_symmetry_1
_geom_bond_site_symmetry_2
C1 H1 1_555 1_555
H2 C1 1_555 1_555
C2 H3 1_555 1_555
H4 C2 1_555 1_555
C3 C2 1_555 1_555
H5 C3 1_555 1_555
H6 C3 1_555 1_555
C4 C3 1_555 1_555
H7 C4 1_555 1_555
C5 C4 1_555 1_555
H8 C5 1_555 1_555
H9 C5 1_555 1_555
C6 C5 1_555 1_555
H10 C6 1_555 1_555
H11 C6 1_555 1_555
C7 C4 1_555 1_555
Dy1 O1 1_555 1_555
N1 C1 1_555 1_555
O1 P1 1_555 1_555
O2 Dy1 1_555 1_555
O3 P1 1_555 1_555
O4 C7 1_555 1_555
O5 C7 1_555 1_555
O6 Dy1 1_555 1_555
H12 O6 1_555 1_555
H13 O6 1_555 1_555
O7 Dy1 1_555 1_555
H14 O7 1_555 1_555
H15 O7 1_555 1_555
O8 H16 1_555 1_555
H17 O8 1_555 1_555
O9 H18 1_555 1_555
H19 O9 1_555 1_555
O10 H20 1_555 1_555
H21 O10 1_555 1_555
P1 C1 1_555 1_555
Dy1B O2 1_555 1_555
Dy1B_2 O3 1_555 1_555
Dy1C O4 1_555 1_555
O2B Dy1 1_555 1_555
O3B Dy1 1_555 1_555
O4C Dy1 1_555 1_555
O5C Dy1 1_555 1_555
C2 N1 1_555 1_555
C6 N1 1_555 1_555
O2 P1 1_555 1_555
O5 Dy1C 1_555 1_555
Dy1B O2B 1_555 1_555

#END
