
#######################################################################
#
#                 Cambridge Crystallographic Data Centre
#                                CCDC 
#
#######################################################################
#
# If this CIF has been generated from an entry in the Cambridge 
# Structural Database, then it will include bibliographic, chemical, 
# crystal, experimental, refinement or atomic coordinate data resulting 
# from the CCDC's data processing and validation procedures.
#
#######################################################################

data_BUGSIG
_chemical_formula_moiety         '(C7 H21 Gd1 N1 O10 P1)n'
_symmetry_cell_setting           monoclinic
_symmetry_space_group_name_H-M   'P 21/c'
_symmetry_Int_Tables_number      14
_space_group_name_Hall           '-P 2ybc'
loop_
_symmetry_equiv_pos_site_id
_symmetry_equiv_pos_as_xyz
1 x,y,z
2 -x,1/2+y,1/2-z
3 -x,-y,-z
4 x,1/2-y,1/2+z
_cell_length_a                   5.515(2)
_cell_length_b                   13.393(3)
_cell_length_c                   20.8105(14)
_cell_angle_alpha                90
_cell_angle_beta                 95.382(3)
_cell_angle_gamma                90
_cell_volume                     1530.34
loop_
_atom_site_label
_atom_site_type_symbol
_atom_site_fract_x
_atom_site_fract_y
_atom_site_fract_z
C1 C 1.3089(11) 0.4612(5) 0.6671(3)
H1 H 1.1676 0.4178 0.6633
H2 H 1.2565 0.5255 0.6823
C2 C 1.5311(13) 0.3087(5) 0.7013(3)
H3 H 1.3788 0.2723 0.7008
H4 H 1.5905 0.3030 0.6591
C3 C 1.7193(14) 0.2649(6) 0.7533(3)
H5 H 1.7445 0.1949 0.7441
H6 H 1.8735 0.2992 0.7515
C4 C 1.6360(13) 0.2753(5) 0.8224(3)
H7 H 1.4816 0.2400 0.8250
C5 C 1.6000(12) 0.3911(4) 0.8348(3)
H8 H 1.7527 0.4261 0.8321
H9 H 1.5487 0.4015 0.8776
C6 C 1.4024(14) 0.4328(6) 0.7828(3)
H10 H 1.3747 0.5031 0.7905
H11 H 1.2500 0.3974 0.7851
C7 C 1.8287(11) 0.2361(4) 0.8750(3)
Gd1 Gd 1.12756(5) 0.36745(2) 0.472230(15)
N1 N 1.4912(9) 0.4187(4) 0.7175(2)
O1 O 1.4593(8) 0.3773(3) 0.5556(2)
O2 O 1.1786(8) 0.5192(3) 0.5452(2)
O3 O 1.6254(8) 0.5497(3) 0.59122(19)
O4 O 1.9981(8) 0.1809(4) 0.8592(2)
O5 O 1.8011(8) 0.2511(3) 0.9323(2)
O6 O 0.929(16) 0.317(6) 0.564(4)
H12 H 0.8139 0.2770 0.5524
H13 H 0.8721 0.3680 0.5818
O7 O 1.345(17) 0.217(7) 0.465(5)
H14 H 1.2778 0.1816 0.4343
H15 H 1.3452 0.1849 0.5002
P1 P 1.4093(3) 0.47879(11) 0.58584(8)
Gd1B Gd 0.87244(5) 0.63255(2) 0.527770(15)
Gd1B_2 Gd 1.87244(5) 0.63255(2) 0.527770(15)
Gd1C Gd 2.12756(5) 0.13255(2) 0.972230(15)
O2B O 0.8214(8) 0.4808(3) 0.4548(2)
O3B O 1.3746(8) 0.4503(3) 0.40878(19)
O4C O 0.9981(8) 0.3191(4) 0.3592(2)
O5C O 0.8011(8) 0.2489(3) 0.4323(2)
O8 O 0.176(2) 0.0727(8) 0.7600(5)
H16 H 0.1888 0.0690 0.8013
H17 H 0.2897 0.1087 0.7478
O9 O -0.020(3) 0.3902(12) 0.1192(8)
H18 H -0.0748 0.4486 0.1104
H19 H 0.1158 0.3947 0.1421
O10 O 0.265(3) 0.4815(12) 0.9863(7)
H20 H 0.3151 0.5411 0.9930
H21 H 0.1632 0.4802 0.9528
loop_
_geom_bond_atom_site_label_1
_geom_bond_atom_site_label_2
_geom_bond_site_symmetry_1
_geom_bond_site_symmetry_2
C1 H1 1_555 1_555
H2 C1 1_555 1_555
C2 H3 1_555 1_555
H4 C2 1_555 1_555
C3 C2 1_555 1_555
H5 C3 1_555 1_555
H6 C3 1_555 1_555
C4 C3 1_555 1_555
H7 C4 1_555 1_555
C5 C4 1_555 1_555
H8 C5 1_555 1_555
H9 C5 1_555 1_555
C6 C5 1_555 1_555
H10 C6 1_555 1_555
H11 C6 1_555 1_555
C7 C4 1_555 1_555
Gd1 O1 1_555 1_555
N1 C1 1_555 1_555
O1 P1 1_555 1_555
O2 Gd1 1_555 1_555
O3 P1 1_555 1_555
O4 C7 1_555 1_555
O5 C7 1_555 1_555
O6 Gd1 1_555 1_555
H12 O6 1_555 1_555
H13 O6 1_555 1_555
O7 Gd1 1_555 1_555
H14 O7 1_555 1_555
H15 O7 1_555 1_555
O8 H16 1_555 1_555
H17 O8 1_555 1_555
O9 H18 1_555 1_555
H19 O9 1_555 1_555
O10 H20 1_555 1_555
H21 O10 1_555 1_555
P1 C1 1_555 1_555
Gd1B O2 1_555 1_555
Gd1B_2 O3 1_555 1_555
Gd1C O4 1_555 1_555
O2B Gd1 1_555 1_555
O3B Gd1 1_555 1_555
O4C Gd1 1_555 1_555
O5C Gd1 1_555 1_555
C2 N1 1_555 1_555
C6 N1 1_555 1_555
O2 P1 1_555 1_555
O5 Gd1C 1_555 1_555
Gd1B O2B 1_555 1_555

#END
