
#######################################################################
#
#                 Cambridge Crystallographic Data Centre
#                                CCDC 
#
#######################################################################
#
# If this CIF has been generated from an entry in the Cambridge 
# Structural Database, then it will include bibliographic, chemical, 
# crystal, experimental, refinement or atomic coordinate data resulting 
# from the CCDC's data processing and validation procedures.
#
#######################################################################

data_KITCAT
_chemical_formula_moiety         '(C10 H12 Ag3 K1 N7 1-)n'
_symmetry_cell_setting           rhombohedral
_symmetry_space_group_name_H-M   'R -3 c'
_symmetry_Int_Tables_number      167
_space_group_name_Hall           '-R 3 2"c'
loop_
_symmetry_equiv_pos_site_id
_symmetry_equiv_pos_as_xyz
1 x,y,z
2 -y,x-y,z
3 -x+y,-x,z
4 y,x,1/2-z
5 -x,-x+y,1/2-z
6 x-y,-y,1/2-z
7 2/3+x,1/3+y,1/3+z
8 2/3-y,1/3+x-y,1/3+z
9 2/3-x+y,1/3-x,1/3+z
10 2/3+y,1/3+x,5/6-z
11 2/3-x,1/3-x+y,5/6-z
12 2/3+x-y,1/3-y,5/6-z
13 1/3+x,2/3+y,2/3+z
14 1/3-y,2/3+x-y,2/3+z
15 1/3-x+y,2/3-x,2/3+z
16 1/3+y,2/3+x,1/6-z
17 1/3-x,2/3-x+y,1/6-z
18 1/3+x-y,2/3-y,1/6-z
19 -x,-y,-z
20 y,-x+y,-z
21 x-y,x,-z
22 -y,-x,1/2+z
23 x,x-y,1/2+z
24 -x+y,y,1/2+z
25 1/3-x,2/3-y,2/3-z
26 1/3+y,2/3-x+y,2/3-z
27 1/3+x-y,2/3+x,2/3-z
28 1/3-y,2/3-x,1/6+z
29 1/3+x,2/3+x-y,1/6+z
30 1/3-x+y,2/3+y,1/6+z
31 2/3-x,1/3-y,1/3-z
32 2/3+y,1/3-x+y,1/3-z
33 2/3+x-y,1/3+x,1/3-z
34 2/3-y,1/3-x,5/6+z
35 2/3+x,1/3+x-y,5/6+z
36 2/3-x+y,1/3+y,5/6+z
_cell_length_a                   9.2899(10)
_cell_length_b                   9.2899(10)
_cell_length_c                   49.248(3)
_cell_angle_alpha                90
_cell_angle_beta                 90
_cell_angle_gamma                120
_cell_volume                     3680.79
loop_
_atom_site_label
_atom_site_type_symbol
_atom_site_fract_x
_atom_site_fract_y
_atom_site_fract_z
Ag1 Ag -0.13441(5) -0.46774(5) 0.0833
K1 K 0.0000 0.0000 0.0000
N1 N -0.2071(5) -0.2898(6) 0.03477(10)
C1 C -0.1916(5) -0.3593(6) 0.05131(10)
Ag1A Ag 0.46774(5) 0.33333(7) 0.0833
N1A N 0.2898(6) 0.0827(8) 0.03477(10)
C1A C 0.3593(6) 0.1677(8) 0.05131(10)
Ag1B Ag -0.33333(7) 0.13441(5) 0.0833
N1B N -0.0827(8) 0.2071(5) 0.03477(10)
C1B C -0.1677(8) 0.1916(5) 0.05131(10)
N1R N 0.2071(5) 0.2898(6) -0.03477(10)
C1R C 0.1916(5) 0.3593(6) -0.05131(10)
N1S N -0.2898(6) -0.0827(8) -0.03477(10)
C1S C -0.3593(6) -0.1677(8) -0.05131(10)
N1T N 0.0827(8) -0.2071(5) -0.03477(10)
C1T C 0.1677(8) -0.1916(5) -0.05131(10)
Ag1R Ag 0.13441(5) 0.46774(5) -0.0833
Ag1S Ag -0.46774(5) -0.33333(7) -0.0833
Ag1T Ag 0.33333(7) -0.13441(5) -0.0833
C1O C -0.0260(6) -0.5249(5) 0.11536(10)
C1P C 0.5249(5) 0.4990(8) 0.11536(10)
C1Q C -0.4990(8) 0.0260(6) 0.11536(10)
N2 N -0.3333 0.3333 -0.30060(12)
C2 C -0.3333 0.3333 -0.2711(2)
H1 H -0.3401 0.4272 -0.2646
C3 C -0.3217(7) 0.1896(8) -0.30959(19)
H2 H -0.3215 0.1864 -0.3291
H3 H -0.4152 0.0897 -0.3028
H4 H -0.2208 0.1982 -0.3028
H1A H -0.4272 0.2327 -0.2646
C3A C -0.1896(8) 0.4887(11) -0.30959(19)
H2A H -0.1864 0.4921 -0.3291
H3A H -0.0897 0.4951 -0.3028
H4A H -0.1982 0.5810 -0.3028
H1B H -0.2327 0.3401 -0.2646
C3B C -0.4887(11) 0.3217(7) -0.30959(19)
H2B H -0.4921 0.3215 -0.3291
H3B H -0.4951 0.4152 -0.3028
H4B H -0.5810 0.2208 -0.3028
loop_
_geom_bond_atom_site_label_1
_geom_bond_atom_site_label_2
_geom_bond_site_symmetry_1
_geom_bond_site_symmetry_2
Ag1 C1 1_555 1_555
K1 N1 1_555 1_555
N1 C1 1_555 1_555
N2 C2 1_555 1_555
C2 H1 1_555 1_555
C3 N2 1_555 1_555
H2 C3 1_555 1_555
H3 C3 1_555 1_555
H4 C3 1_555 1_555
Ag1A C1A 1_555 1_555
N1A K1 1_555 1_555
C1A N1A 1_555 1_555
Ag1B C1B 1_555 1_555
N1B K1 1_555 1_555
C1B N1B 1_555 1_555
N1R K1 1_555 1_555
C1R N1R 1_555 1_555
N1S K1 1_555 1_555
C1S N1S 1_555 1_555
N1T K1 1_555 1_555
C1T N1T 1_555 1_555
Ag1R C1R 1_555 1_555
Ag1S C1S 1_555 1_555
Ag1T C1T 1_555 1_555
C1O Ag1 1_555 1_555
C1P Ag1A 1_555 1_555
C1Q Ag1B 1_555 1_555
H1A C2 1_555 1_555
C3A N2 1_555 1_555
H2A C3A 1_555 1_555
H3A C3A 1_555 1_555
H4A C3A 1_555 1_555
H1B C2 1_555 1_555
C3B N2 1_555 1_555
H2B C3B 1_555 1_555
H3B C3B 1_555 1_555
H4B C3B 1_555 1_555

#END
