
#######################################################################
#
#                 Cambridge Crystallographic Data Centre
#                                CCDC 
#
#######################################################################
#
# If this CIF has been generated from an entry in the Cambridge 
# Structural Database, then it will include bibliographic, chemical, 
# crystal, experimental, refinement or atomic coordinate data resulting 
# from the CCDC's data processing and validation procedures.
#
#######################################################################

data_OXEVOE
_chemical_formula_moiety         '(C14 H14 Ag1 N3 O3 S2)n'
_symmetry_cell_setting           orthorhombic
_symmetry_space_group_name_H-M   'I b a 2'
_symmetry_Int_Tables_number      45
_space_group_name_Hall           'I 2 -2c'
loop_
_symmetry_equiv_pos_site_id
_symmetry_equiv_pos_as_xyz
1 x,y,z
2 -x,-y,z
3 1/2+x,1/2-y,z
4 1/2-x,1/2+y,z
5 1/2+x,1/2+y,1/2+z
6 1/2-x,1/2-y,1/2+z
7 x,-y,1/2+z
8 -x,y,1/2+z
_cell_length_a                   15.319(3)
_cell_length_b                   15.456(2)
_cell_length_c                   16.237(3)
_cell_angle_alpha                90
_cell_angle_beta                 90
_cell_angle_gamma                90
_cell_volume                     3844.44
loop_
_atom_site_label
_atom_site_type_symbol
_atom_site_fract_x
_atom_site_fract_y
_atom_site_fract_z
_atom_site_U_iso_or_equiv
_atom_site_thermal_displace_type
Ag1 Ag 0.41560(5) -0.10187(6) 0.11812(7) 0.0405 Uani
C1 C 0.1942(8) -0.1707(11) 0.0837(11) 0.0620 Uani
H1 H 0.1877 -0.1810 0.1423 0.0740 Uiso
H2 H 0.1874 -0.1092 0.0737 0.0740 Uiso
C2 C 0.1261(8) -0.2210(9) 0.0363(8) 0.0450 Uani
C3 C 0.1248(9) -0.2240(9) -0.0518(10) 0.0447 Uani
H3 H 0.1659 -0.1917 -0.0807 0.0530 Uiso
C4 C 0.0655(7) -0.2725(8) -0.0956(8) 0.0340 Uani
C5 C 0.0066(9) -0.3123(9) -0.0461(9) 0.0447 Uani
H4 H -0.0374 -0.3443 -0.0712 0.0540 Uiso
C6 C 0.0671(7) -0.2658(9) 0.0798(9) 0.0420 Uani
H5 H 0.0695 -0.2658 0.1370 0.0510 Uiso
C7 C 0.0659(8) -0.2860(8) -0.1915(8) 0.0387 Uani
H6 H 0.1134 -0.2528 -0.2153 0.0470 Uiso
H7 H 0.0117 -0.2640 -0.2142 0.0470 Uiso
C8 C 0.1853(9) -0.4266(9) -0.1900(8) 0.0413 Uani
H8 H 0.2024 -0.4812 -0.2148 0.0500 Uiso
H9 H 0.2243 -0.3822 -0.2107 0.0500 Uiso
C9 C 0.1965(8) -0.4335(8) -0.0946(8) 0.0357 Uani
C10 C 0.2503(10) -0.3792(9) -0.0516(12) 0.0430 Uani
H10 H 0.2850 -0.3400 -0.0802 0.0520 Uiso
C11 C 0.2543(9) -0.3815(9) 0.0382(8) 0.0390 Uani
C12 C 0.2034(8) -0.4373(8) 0.0810(8) 0.0403 Uani
H11 H 0.2046 -0.4369 0.1383 0.0480 Uiso
C13 C 0.1487(9) -0.4901(9) -0.0465(9) 0.0487 Uani
H12 H 0.1122 -0.5290 -0.0733 0.0580 Uiso
C14 C 0.3066(10) -0.3198(9) 0.0864(10) 0.0583 Uani
H13 H 0.3674 -0.3372 0.0840 0.0700 Uiso
H14 H 0.2883 -0.3226 0.1435 0.0700 Uiso
N1 N 0.0072(7) -0.3089(8) 0.0421(6) 0.0450 Uani
N2 N 0.1514(7) -0.4932(7) 0.0412(7) 0.0443 Uani
S1 S 0.2976(2) -0.2054(2) 0.0503(3) 0.0514 Uani
S2 S 0.0786(2) -0.4020(2) -0.22103(18) 0.0378 Uani
Ag1B Ag -0.08440(5) -0.39813(6) 0.11812(7) 0.0405 Uani
Ag1C Ag 0.08440(5) -0.60187(6) 0.11812(7) 0.0405 Uani
Ag1E Ag 0.08440(5) -0.39813(6) -0.38188(7) 0.0405 Uani
N1B N 0.5072(7) -0.1911(8) 0.0421(6) 0.0450 Uani
N2C N 0.3486(7) 0.0068(7) 0.0412(7) 0.0443 Uani
S2E S 0.4214(2) -0.0980(2) 0.27897(18) 0.0378 Uani
N3 N 0.1696(11) 0.3180(10) -0.2105(8) 0.0660 Uani
O1 O 0.1176(7) 0.3706(9) -0.2217(9) 0.0747 Uani
O2 O 0.1460(13) 0.2382(10) -0.2022(12) 0.1133 Uani
O3 O 0.2437(9) 0.3499(15) -0.2062(13) 0.1223 Uani
loop_
_atom_site_aniso_label
_atom_site_aniso_U_11
_atom_site_aniso_U_22
_atom_site_aniso_U_33
_atom_site_aniso_U_23
_atom_site_aniso_U_13
_atom_site_aniso_U_12
Ag1 0.0400(4) 0.0541(5) 0.0275(4) 0.0017(6) 0.0001(6) 0.0069(4)
C1 0.034(6) 0.083(10) 0.069(10) -0.029(8) 0.003(7) -0.013(7)
C2 0.030(5) 0.054(8) 0.051(9) -0.008(6) -0.003(5) 0.000(6)
C3 0.039(6) 0.054(8) 0.041(7) -0.009(7) 0.001(6) -0.015(6)
C4 0.027(5) 0.042(7) 0.033(6) -0.003(5) -0.001(5) -0.007(5)
C5 0.037(6) 0.060(7) 0.037(6) -0.009(8) 0.003(5) -0.014(6)
C6 0.035(6) 0.055(7) 0.036(6) -0.012(6) -0.001(5) -0.008(5)
C7 0.038(6) 0.043(7) 0.035(6) 0.002(6) 0.002(5) -0.003(5)
C8 0.044(7) 0.057(8) 0.023(6) 0.000(6) 0.005(5) 0.007(6)
C9 0.032(6) 0.037(6) 0.038(7) 0.010(6) -0.001(5) -0.006(5)
C10 0.049(9) 0.037(6) 0.043(8) 0.007(6) -0.004(7) -0.002(6)
C11 0.043(7) 0.037(6) 0.037(7) 0.005(5) 0.001(5) 0.000(5)
C12 0.045(6) 0.047(7) 0.029(6) -0.009(6) -0.013(5) -0.002(6)
C13 0.062(8) 0.043(7) 0.041(6) 0.002(6) -0.009(7) -0.009(7)
C14 0.063(9) 0.057(8) 0.055(8) 0.006(7) -0.020(7) -0.019(7)
N1 0.035(5) 0.068(8) 0.032(6) -0.001(5) 0.004(4) -0.007(5)
N2 0.050(6) 0.043(6) 0.040(6) 0.005(5) -0.001(5) -0.008(5)
S1 0.0373(15) 0.060(2) 0.057(2) -0.003(2) -0.0050(16) -0.0204(15)
S2 0.0425(15) 0.0489(17) 0.0221(13) 0.0001(13) 0.0009(13) -0.0114(14)
Ag1B 0.04 0.0541 0.0275 -0.0017 0.0001 -0.0069
Ag1C 0.04 0.0541 0.0275 0.0017 -0.0001 -0.0069
Ag1E 0.04 0.0541 0.0275 -0.0017 -0.0001 0.0069
N1B 0.035 0.068 0.032 0.001 0.004 0.007
N2C 0.05 0.043 0.04 0.005 0.001 0.008
S2E 0.0425 0.0489 0.0221 -0.0001 -0.0009 -0.0114
N3 0.079(10) 0.085(10) 0.034(7) 0.006(7) -0.002(7) 0.018(9)
O1 0.037(5) 0.092(8) 0.095(10) 0.022(8) 0.002(6) 0.013(6)
O2 0.164(18) 0.082(11) 0.094(12) 0.008(9) -0.048(12) 0.022(11)
O3 0.045(8) 0.24(2) 0.082(12) 0.010(13) -0.021(8) 0.006(11)
loop_
_geom_bond_atom_site_label_1
_geom_bond_atom_site_label_2
_geom_bond_site_symmetry_1
_geom_bond_site_symmetry_2
Ag1 S1 1_555 1_555
C1 H1 1_555 1_555
H2 C1 1_555 1_555
C2 C1 1_555 1_555
C3 C2 1_555 1_555
H3 C3 1_555 1_555
C4 C3 1_555 1_555
C5 C4 1_555 1_555
H4 C5 1_555 1_555
C6 C2 1_555 1_555
H5 C6 1_555 1_555
C7 C4 1_555 1_555
H6 C7 1_555 1_555
H7 C7 1_555 1_555
C8 H8 1_555 1_555
H9 C8 1_555 1_555
C9 C8 1_555 1_555
C10 C9 1_555 1_555
H10 C10 1_555 1_555
C11 C10 1_555 1_555
C12 C11 1_555 1_555
H11 C12 1_555 1_555
C13 C9 1_555 1_555
H12 C13 1_555 1_555
C14 C11 1_555 1_555
H13 C14 1_555 1_555
H14 C14 1_555 1_555
N1 C5 1_555 1_555
N2 C12 1_555 1_555
S1 C1 1_555 1_555
S2 C7 1_555 1_555
N3 O1 1_555 1_555
O2 N3 1_555 1_555
O3 N3 1_555 1_555
Ag1B N1 1_555 1_555
Ag1C N2 1_555 1_555
Ag1E S2 1_555 1_555
N1B Ag1 1_555 1_555
N2C Ag1 1_555 1_555
S2E Ag1 1_555 1_555
C6 N1 1_555 1_555
C8 S2 1_555 1_555
C13 N2 1_555 1_555
C14 S1 1_555 1_555

#END
