
#######################################################################
#
#                 Cambridge Crystallographic Data Centre
#                                CCDC 
#
#######################################################################
#
# If this CIF has been generated from an entry in the Cambridge 
# Structural Database, then it will include bibliographic, chemical, 
# crystal, experimental, refinement or atomic coordinate data resulting 
# from the CCDC's data processing and validation procedures.
#
#######################################################################

data_CAXPEY
_chemical_formula_moiety         '(C36 H16 Co5 N10 O24)n'
_symmetry_cell_setting           triclinic
_symmetry_space_group_name_H-M   'P -1'
_symmetry_Int_Tables_number      2
_space_group_name_Hall           '-P 1'
loop_
_symmetry_equiv_pos_site_id
_symmetry_equiv_pos_as_xyz
1 x,y,z
2 -x,-y,-z
_cell_length_a                   9.259(3)
_cell_length_b                   11.177(4)
_cell_length_c                   12.131(4)
_cell_angle_alpha                108.02(3)
_cell_angle_beta                 91.64(3)
_cell_angle_gamma                105.27(3)
_cell_volume                     1143.36
loop_
_atom_site_label
_atom_site_type_symbol
_atom_site_fract_x
_atom_site_fract_y
_atom_site_fract_z
Co1 Co -0.15651(19) -0.26358(19) 0.62308(16)
Co2 Co 0.5000 0.5000 0.5000
Co3 Co -0.0808(2) 0.3103(2) 0.17214(17)
O1 O 0.0493(10) -0.1478(11) 0.6373(9)
O2 O 0.2700(9) 0.1698(9) 0.4404(8)
O3 O 0.3605(8) 0.3886(9) 0.3271(7)
O4 O 0.1376(8) 0.3453(8) 0.2362(7)
O5 O 0.4853(10) 0.3233(9) 0.5292(8)
O6 O 0.1736(12) -0.1427(11) 0.7952(8)
O7 O 0.1008(9) 0.6252(10) -0.0352(8)
O8 O 0.3137(11) 0.7203(11) -0.0880(10)
O9 O 0.7297(14) 0.0199(17) 0.8145(13)
O10 O 0.8255(12) 0.1568(16) 0.7310(14)
O11 O 0.7945(11) 0.7579(14) 0.1075(11)
O12 O 0.8095(11) 0.6594(14) 0.2297(13)
N1 N 0.1641(12) 0.4135(11) 0.5232(10)
N2 N 0.2998(11) 0.5135(11) 0.5639(10)
N3 N 0.1328(13) 0.5633(12) 0.6792(10)
N4 N 0.7177(15) 0.0820(16) 0.7523(14)
N5 N 0.7387(13) 0.6886(13) 0.1636(11)
C1 C 0.3904(15) 0.2193(13) 0.5129(13)
C2 C 0.4141(13) 0.1343(12) 0.5830(11)
C3 C 0.2847(13) 0.0446(13) 0.6042(12)
H1 H 0.1901 0.0321 0.5669
C4 C 0.2989(14) -0.0231(12) 0.6791(12)
C5 C 0.4447(14) -0.0077(13) 0.7314(11)
H2 H 0.4555 -0.0519 0.7832
C6 C 0.5707(16) 0.0730(15) 0.7054(13)
C7 C 0.5521(16) 0.1500(12) 0.6333(11)
H3 H 0.6354 0.2106 0.6215
C8 C 0.1605(17) -0.1115(16) 0.7073(13)
C9 C 0.2804(13) 0.4059(12) 0.2535(10)
C10 C 0.3469(13) 0.4978(13) 0.1880(11)
C11 C 0.2623(13) 0.5339(12) 0.1129(10)
H4 H 0.1581 0.4978 0.1007
C12 C 0.3270(15) 0.6212(18) 0.0559(11)
C13 C 0.4891(13) 0.6724(12) 0.0700(10)
H5 H 0.5373 0.7304 0.0327
C14 C 0.5701(13) 0.6306(13) 0.1421(10)
C15 C 0.5041(13) 0.5518(12) 0.2039(10)
H6 H 0.5632 0.5339 0.2565
C16 C 0.2457(16) 0.6620(14) -0.0248(11)
C17 C 0.2738(13) 0.6004(14) 0.6565(12)
H7 H 0.3452 0.6781 0.7004
C18 C 0.0692(15) 0.4531(14) 0.5973(13)
H8 H -0.0318 0.4066 0.5908
Co1A Co 1.15651(19) 1.26358(19) 0.37692(16)
Co1A_2 Co 0.15651(19) 0.26358(19) 0.37692(16)
Co1_2 Co 0.84349(19) 0.73642(19) 0.62308(16)
Co3A Co 1.0808(2) 0.6897(2) 0.82786(17)
Co3A_2 Co 0.0808(2) -0.3103(2) 0.82786(17)
Co3A_3 Co 0.0808(2) 0.6897(2) -0.17214(17)
Co3A_4 Co 0.0808(2) 0.6897(2) 0.82786(17)
Co3_2 Co 0.9192(2) 0.3103(2) 1.17214(17)
Co3_3 Co 0.9192(2) 1.3103(2) 0.17214(17)
Co3_4 Co 0.9192(2) 0.3103(2) 0.17214(17)
O1A O 0.9507(10) 1.1478(11) 0.3627(9)
O2A O 0.7300(9) 0.8302(9) 0.5596(8)
O2A_2 O -0.2700(9) -0.1698(9) 0.5596(8)
O2_2 O 1.2700(9) 1.1698(9) 0.4404(8)
O3A O 0.6395(8) 0.6114(9) 0.6729(7)
O3A_2 O -0.3605(8) -0.3886(9) 0.6729(7)
O3_2 O 1.3605(8) 1.3886(9) 0.3271(7)
O4A O 0.8624(8) 0.6547(8) 0.7638(7)
O4A_2 O -0.1376(8) -0.3453(8) 0.7638(7)
O4_2 O 1.1376(8) 1.3453(8) 0.2362(7)
O5A O 0.5147(10) 0.6767(9) 0.4708(8)
O6A O 0.8264(12) 1.1427(11) 0.2048(8)
O6A_2 O -0.1736(12) 0.1427(11) 0.2048(8)
O6_2 O 1.1736(12) 0.8573(11) 0.7952(8)
O7A O 0.8992(9) 0.3748(10) 1.0352(8)
O7A_2 O -0.1008(9) 0.3748(10) 0.0352(8)
O7_2 O 1.1008(9) 0.6252(10) 0.9648(8)
O8A O 0.6863(11) 0.2797(11) 1.0880(10)
O8A_2 O -0.3137(11) 0.2797(11) 0.0880(10)
O8_2 O 1.3137(11) 0.7203(11) 0.9120(10)
O9A O 0.2703(14) 0.9801(17) 0.1855(13)
O10A O 0.1745(12) 0.8432(16) 0.2690(14)
O11A O 0.2055(11) 0.2421(14) 0.8925(11)
O12A O 0.1905(11) 0.3406(14) 0.7703(13)
N1A N 0.8359(12) 0.5865(11) 0.4768(10)
N1A_2 N -0.1641(12) -0.4135(11) 0.4768(10)
N1_2 N 1.1641(12) 1.4135(11) 0.5232(10)
N2A N 0.7002(11) 0.4865(11) 0.4361(10)
N3A N 0.8672(13) 0.4367(12) 0.3208(10)
N3A_2 N -0.1328(13) 0.4367(12) 0.3208(10)
N3_2 N 1.1328(13) 0.5633(12) 0.6792(10)
N4A N 0.2823(15) 0.9180(16) 0.2477(14)
N5A N 0.2613(13) 0.3114(13) 0.8364(11)
C1A C 0.6096(15) 0.7807(13) 0.4871(13)
C2A C 0.5859(13) 0.8657(12) 0.4170(11)
C3A C 0.7153(13) 0.9554(13) 0.3958(12)
H1A H 0.8099 0.9679 0.4331
C4A C 0.7011(14) 1.0231(12) 0.3209(12)
C5A C 0.5553(14) 1.0077(13) 0.2686(11)
H2A H 0.5445 1.0519 0.2168
C6A C 0.4293(16) 0.9270(15) 0.2946(13)
C7A C 0.4479(16) 0.8500(12) 0.3667(11)
H3A H 0.3646 0.7894 0.3785
C8A C 0.8395(17) 1.1115(16) 0.2927(13)
C9A C 0.7196(13) 0.5941(12) 0.7465(10)
C10A C 0.6531(13) 0.5022(13) 0.8120(11)
C11A C 0.7377(13) 0.4661(12) 0.8871(10)
H4A H 0.8419 0.5022 0.8993
C12A C 0.6730(15) 0.3788(18) 0.9441(11)
C13A C 0.5109(13) 0.3276(12) 0.9300(10)
H5A H 0.4627 0.2696 0.9673
C14A C 0.4299(13) 0.3694(13) 0.8579(10)
C15A C 0.4959(13) 0.4482(12) 0.7961(10)
H6A H 0.4368 0.4661 0.7435
C16A C 0.7543(16) 0.3380(14) 1.0248(11)
C17A C 0.7262(13) 0.3996(14) 0.3435(12)
H7A H 0.6548 0.3219 0.2996
C18A C 0.9308(15) 0.5469(14) 0.4027(13)
H8A H 1.0318 0.5934 0.4092
loop_
_geom_bond_atom_site_label_1
_geom_bond_atom_site_label_2
_geom_bond_site_symmetry_1
_geom_bond_site_symmetry_2
Co1 O1 1_555 1_555
Co2 O3 1_555 1_555
Co3 O4 1_555 1_555
O1 C8 1_555 1_555
O2 C1 1_555 1_555
O3 C9 1_555 1_555
O4 C9 1_555 1_555
O5 Co2 1_555 1_555
O6 C8 1_555 1_555
O7 C16 1_555 1_555
O8 C16 1_555 1_555
O9 N4 1_555 1_555
O10 N4 1_555 1_555
O11 N5 1_555 1_555
O12 N5 1_555 1_555
N1 N2 1_555 1_555
N2 Co2 1_555 1_555
N3 C17 1_555 1_555
N4 C6 1_555 1_555
N5 C14 1_555 1_555
C1 O5 1_555 1_555
C2 C1 1_555 1_555
C3 C2 1_555 1_555
H1 C3 1_555 1_555
C4 C3 1_555 1_555
C5 C4 1_555 1_555
H2 C5 1_555 1_555
C6 C5 1_555 1_555
C7 C2 1_555 1_555
H3 C7 1_555 1_555
C8 C4 1_555 1_555
C9 C10 1_555 1_555
C10 C11 1_555 1_555
C11 H4 1_555 1_555
C12 C11 1_555 1_555
C13 C12 1_555 1_555
H5 C13 1_555 1_555
C14 C13 1_555 1_555
C15 C10 1_555 1_555
H6 C15 1_555 1_555
C16 C12 1_555 1_555
C17 N2 1_555 1_555
H7 C17 1_555 1_555
C18 N1 1_555 1_555
H8 C18 1_555 1_555
Co1A O1A 1_555 1_555
Co1A_2 O2 1_555 1_555
Co1_2 O2A 1_555 1_555
Co3A O4A 1_555 1_555
Co3A_2 O6 1_555 1_555
Co3A_3 O7 1_555 1_555
Co3A_4 N3 1_555 1_555
Co3_2 O7A 1_555 1_555
Co3_3 O4_2 1_555 1_555
Co3_4 N3A 1_555 1_555
O1A C8A 1_555 1_555
O2A C1A 1_555 1_555
O2A_2 Co1 1_555 1_555
O2_2 Co1A 1_555 1_555
O3A Co2 1_555 1_555
O3A_2 Co1 1_555 1_555
O3_2 Co1A 1_555 1_555
O4A Co1_2 1_555 1_555
O4A_2 Co1 1_555 1_555
O4_2 Co1A 1_555 1_555
O5A Co2 1_555 1_555
O6A Co3_3 1_555 1_555
O6A_2 Co3 1_555 1_555
O6_2 Co3A 1_555 1_555
O7A C16A 1_555 1_555
O7A_2 Co3 1_555 1_555
O7_2 Co3A 1_555 1_555
O8A Co3_2 1_555 1_555
O8A_2 Co3 1_555 1_555
O8_2 Co3A 1_555 1_555
O9A N4A 1_555 1_555
O10A N4A 1_555 1_555
O11A N5A 1_555 1_555
O12A N5A 1_555 1_555
N1A Co1_2 1_555 1_555
N1A_2 Co1 1_555 1_555
N1_2 Co1A 1_555 1_555
N2A Co2 1_555 1_555
N3A C17A 1_555 1_555
N3A_2 Co3 1_555 1_555
N3_2 Co3A 1_555 1_555
N4A C6A 1_555 1_555
N5A C14A 1_555 1_555
C1A O5A 1_555 1_555
C2A C1A 1_555 1_555
C3A C2A 1_555 1_555
H1A C3A 1_555 1_555
C4A C3A 1_555 1_555
C5A C4A 1_555 1_555
H2A C5A 1_555 1_555
C6A C5A 1_555 1_555
C7A C2A 1_555 1_555
H3A C7A 1_555 1_555
C8A O6A 1_555 1_555
C9A O3A 1_555 1_555
C10A C9A 1_555 1_555
C11A C10A 1_555 1_555
H4A C11A 1_555 1_555
C12A C11A 1_555 1_555
C13A C12A 1_555 1_555
H5A C13A 1_555 1_555
C14A C13A 1_555 1_555
C15A C10A 1_555 1_555
H6A C15A 1_555 1_555
C16A O8A 1_555 1_555
C17A N2A 1_555 1_555
H7A C17A 1_555 1_555
C18A N1A 1_555 1_555
H8A C18A 1_555 1_555
O3 Co1A_2 1_555 1_555
O4 Co1A_2 1_555 1_555
O8 Co3A_3 1_555 1_555
N1 Co1A_2 1_555 1_555
N3 C18 1_555 1_555
C6 C7 1_555 1_555
C14 C15 1_555 1_555
Co1_2 O3A 1_555 1_555
Co3A_2 O4A_2 1_555 1_555
O4A C9A 1_555 1_555
N1A N2A 1_555 1_555
N3A C18A 1_555 1_555
C4A C8A 1_555 1_555
C6A C7A 1_555 1_555
C12A C16A 1_555 1_555
C14A C15A 1_555 1_555

#END
