
#######################################################################
#
#                 Cambridge Crystallographic Data Centre
#                                CCDC 
#
#######################################################################
#
# If this CIF has been generated from an entry in the Cambridge 
# Structural Database, then it will include bibliographic, chemical, 
# crystal, experimental, refinement or atomic coordinate data resulting 
# from the CCDC's data processing and validation procedures.
#
#######################################################################

data_CAXPIC
_chemical_formula_moiety         '(C36 H20 Co5 N10 O26)n'
_symmetry_cell_setting           triclinic
_symmetry_space_group_name_H-M   'P -1'
_symmetry_Int_Tables_number      2
_space_group_name_Hall           '-P 1'
loop_
_symmetry_equiv_pos_site_id
_symmetry_equiv_pos_as_xyz
1 x,y,z
2 -x,-y,-z
_cell_length_a                   9.202(3)
_cell_length_b                   11.088(4)
_cell_length_c                   11.992(3)
_cell_angle_alpha                108.58(3)
_cell_angle_beta                 91.40(2)
_cell_angle_gamma                104.71(3)
_cell_volume                     1114.35
loop_
_atom_site_label
_atom_site_type_symbol
_atom_site_fract_x
_atom_site_fract_y
_atom_site_fract_z
Co1 Co -0.15461(19) -0.26731(19) 0.61992(18)
Co2 Co 0.5000 0.5000 0.5000
Co3 Co -0.0809(2) 0.2996(2) 0.16360(19)
O1 O 0.0491(10) -0.1563(9) 0.6252(9)
O2 O 0.2713(10) 0.1738(9) 0.4377(9)
O3 O 0.3592(9) 0.3902(9) 0.3311(8)
O4 O 0.1401(8) 0.3449(9) 0.2393(7)
O5 O 0.4866(10) 0.3222(9) 0.5299(10)
O6 O 0.1703(11) -0.1379(10) 0.7938(9)
O7 O 0.0966(10) 0.6160(10) -0.0373(9)
O8 O -0.018(3) 0.140(3) 0.007(3)
O9 O 0.3059(11) 0.7277(11) -0.0762(10)
O10 O 0.7250(13) 0.0155(16) 0.8139(11)
O11 O 0.8249(12) 0.1591(15) 0.7355(15)
O12 O 0.7898(12) 0.7564(13) 0.1090(11)
O13 O 0.8027(12) 0.6589(13) 0.2299(12)
N1 N 0.1623(12) 0.4218(11) 0.5296(9)
N2 N 0.2992(11) 0.5165(12) 0.5727(10)
N3 N 0.1356(12) 0.5761(14) 0.6895(12)
N4 N 0.7187(15) 0.0825(15) 0.7547(14)
N5 N 0.7350(13) 0.6899(12) 0.1650(12)
C1 C 0.3848(15) 0.2157(13) 0.5108(14)
C2 C 0.4106(13) 0.1351(12) 0.5828(11)
C3 C 0.2863(14) 0.0446(11) 0.5994(12)
H1 H 0.1917 0.0298 0.5601
C4 C 0.3038(15) -0.0244(15) 0.6755(13)
C5 C 0.4395(15) -0.0076(13) 0.7301(13)
H2 H 0.4479 -0.0474 0.7866
C6 C 0.5658(14) 0.0684(14) 0.7028(13)
C7 C 0.5509(15) 0.1453(13) 0.6344(13)
H3 H 0.6362 0.2044 0.6230
C8 C 0.1629(15) -0.1105(15) 0.7050(14)
C9 C 0.2821(14) 0.4076(12) 0.2559(11)
C10 C 0.3504(13) 0.4966(12) 0.1884(11)
C11 C 0.2568(15) 0.5349(13) 0.1170(12)
H4 H 0.1519 0.5050 0.1102
C12 C 0.3276(14) 0.6174(13) 0.0588(11)
C13 C 0.4848(14) 0.6712(13) 0.0739(11)
H5 H 0.5305 0.7308 0.0370
C14 C 0.5707(13) 0.6319(13) 0.1467(11)
C15 C 0.5030(13) 0.5493(12) 0.2052(11)
H6 H 0.5617 0.5288 0.2570
C16 C 0.2403(16) 0.6603(13) -0.0216(11)
C17 C 0.2801(14) 0.6062(14) 0.6615(13)
H7 H 0.3549 0.6834 0.7028
C18 C 0.0696(15) 0.4615(16) 0.6030(15)
H8 H -0.0317 0.4155 0.5965
Co1A Co 1.15461(19) 1.26731(19) 0.38008(18)
Co1A_2 Co 0.15461(19) 0.26731(19) 0.38008(18)
Co1_2 Co 0.84539(19) 0.73269(19) 0.61992(18)
Co3A Co 1.0809(2) 0.7004(2) 0.83640(19)
Co3A_2 Co 0.0809(2) -0.2996(2) 0.83640(19)
Co3A_3 Co 0.0809(2) 0.7004(2) -0.16360(19)
Co3A_4 Co 0.0809(2) 0.7004(2) 0.83640(19)
Co3_2 Co 0.9191(2) 0.2996(2) 1.16360(19)
Co3_3 Co 0.9191(2) 1.2996(2) 0.16360(19)
Co3_4 Co 0.9191(2) 0.2996(2) 0.16360(19)
O1A O 0.9509(10) 1.1563(9) 0.3748(9)
O2A O 0.7287(10) 0.8262(9) 0.5623(9)
O2A_2 O -0.2713(10) -0.1738(9) 0.5623(9)
O2_2 O 1.2713(10) 1.1738(9) 0.4377(9)
O3A O 0.6408(9) 0.6098(9) 0.6689(8)
O3A_2 O -0.3592(9) -0.3902(9) 0.6689(8)
O3_2 O 1.3592(9) 1.3902(9) 0.3311(8)
O4A O 0.8599(8) 0.6551(9) 0.7607(7)
O4A_2 O -0.1401(8) -0.3449(9) 0.7607(7)
O4_2 O 1.1401(8) 1.3449(9) 0.2393(7)
O5A O 0.5134(10) 0.6778(9) 0.4701(10)
O6A O 0.8297(11) 1.1379(10) 0.2062(9)
O6A_2 O -0.1703(11) 0.1379(10) 0.2062(9)
O6_2 O 1.1703(11) 0.8621(10) 0.7938(9)
O7A O 0.9034(10) 0.3840(10) 1.0373(9)
O7A_2 O -0.0966(10) 0.3840(10) 0.0373(9)
O7_2 O 1.0966(10) 0.6160(10) 0.9627(9)
O8A O 1.018(3) 0.860(3) 0.993(3)
O9A O 0.6941(11) 0.2723(11) 1.0762(10)
O9A_2 O -0.3059(11) 0.2723(11) 0.0762(10)
O9_2 O 1.3059(11) 0.7277(11) 0.9238(10)
O10A O 0.2750(13) 0.9845(16) 0.1861(11)
O11A O 0.1751(12) 0.8409(15) 0.2645(15)
O12A O 0.2102(12) 0.2436(13) 0.8910(11)
O13A O 0.1973(12) 0.3411(13) 0.7701(12)
N1A N 0.8377(12) 0.5782(11) 0.4704(9)
N1A_2 N -0.1623(12) -0.4218(11) 0.4704(9)
N1_2 N 1.1623(12) 1.4218(11) 0.5296(9)
N2A N 0.7008(11) 0.4835(12) 0.4273(10)
N3A N 0.8644(12) 0.4239(14) 0.3105(12)
N3A_2 N -0.1356(12) 0.4239(14) 0.3105(12)
N3_2 N 1.1356(12) 0.5761(14) 0.6895(12)
N4A N 0.2813(15) 0.9175(15) 0.2453(14)
N5A N 0.2650(13) 0.3101(12) 0.8350(12)
C1A C 0.6152(15) 0.7843(13) 0.4892(14)
C2A C 0.5894(13) 0.8649(12) 0.4172(11)
C3A C 0.7137(14) 0.9554(11) 0.4006(12)
H1A H 0.8083 0.9702 0.4399
C4A C 0.6962(15) 1.0244(15) 0.3245(13)
C5A C 0.5605(15) 1.0076(13) 0.2699(13)
H2A H 0.5521 1.0474 0.2134
C6A C 0.4342(14) 0.9316(14) 0.2972(13)
C7A C 0.4491(15) 0.8547(13) 0.3656(13)
H3A H 0.3638 0.7956 0.3770
C8A C 0.8371(15) 1.1105(15) 0.2950(14)
C9A C 0.7179(14) 0.5924(12) 0.7441(11)
C10A C 0.6496(13) 0.5034(12) 0.8116(11)
C11A C 0.7432(15) 0.4651(13) 0.8830(12)
H4A H 0.8481 0.4950 0.8898
C12A C 0.6724(14) 0.3826(13) 0.9412(11)
C13A C 0.5152(14) 0.3288(13) 0.9261(11)
H5A H 0.4695 0.2692 0.9630
C14A C 0.4293(13) 0.3681(13) 0.8533(11)
C15A C 0.4970(13) 0.4507(12) 0.7948(11)
H6A H 0.4383 0.4712 0.7430
C16A C 0.7597(16) 0.3397(13) 1.0216(11)
C17A C 0.7199(14) 0.3938(14) 0.3385(13)
H7A H 0.6451 0.3166 0.2972
C18A C 0.9304(15) 0.5385(16) 0.3970(15)
H8A H 1.0317 0.5845 0.4035
loop_
_geom_bond_atom_site_label_1
_geom_bond_atom_site_label_2
_geom_bond_site_symmetry_1
_geom_bond_site_symmetry_2
Co1 O1 1_555 1_555
Co2 O3 1_555 1_555
Co3 O4 1_555 1_555
O1 C8 1_555 1_555
O2 C1 1_555 1_555
O3 C9 1_555 1_555
O4 C9 1_555 1_555
O5 Co2 1_555 1_555
O6 C8 1_555 1_555
O7 C16 1_555 1_555
O8 Co3 1_555 1_555
O9 C16 1_555 1_555
O10 N4 1_555 1_555
O11 N4 1_555 1_555
O12 N5 1_555 1_555
O13 N5 1_555 1_555
N1 N2 1_555 1_555
N2 Co2 1_555 1_555
N3 C17 1_555 1_555
N4 C6 1_555 1_555
N5 C14 1_555 1_555
C1 O5 1_555 1_555
C2 C1 1_555 1_555
C3 C2 1_555 1_555
H1 C3 1_555 1_555
C4 C3 1_555 1_555
C5 C4 1_555 1_555
H2 C5 1_555 1_555
C6 C5 1_555 1_555
C7 C2 1_555 1_555
H3 C7 1_555 1_555
C8 C4 1_555 1_555
C9 C10 1_555 1_555
C10 C11 1_555 1_555
C11 H4 1_555 1_555
C12 C11 1_555 1_555
C13 C12 1_555 1_555
H5 C13 1_555 1_555
C14 C13 1_555 1_555
C15 C10 1_555 1_555
H6 C15 1_555 1_555
C16 C12 1_555 1_555
C17 N2 1_555 1_555
H7 C17 1_555 1_555
C18 N1 1_555 1_555
H8 C18 1_555 1_555
Co1A O1A 1_555 1_555
Co1A_2 O2 1_555 1_555
Co1_2 O2A 1_555 1_555
Co3A O4A 1_555 1_555
Co3A_2 O6 1_555 1_555
Co3A_3 O7 1_555 1_555
Co3A_4 N3 1_555 1_555
Co3_2 O7A 1_555 1_555
Co3_3 O4_2 1_555 1_555
Co3_4 N3A 1_555 1_555
O1A C8A 1_555 1_555
O2A C1A 1_555 1_555
O2A_2 Co1 1_555 1_555
O2_2 Co1A 1_555 1_555
O3A Co2 1_555 1_555
O3A_2 Co1 1_555 1_555
O3_2 Co1A 1_555 1_555
O4A Co1_2 1_555 1_555
O4A_2 Co1 1_555 1_555
O4_2 Co1A 1_555 1_555
O5A Co2 1_555 1_555
O6A Co3_3 1_555 1_555
O6A_2 Co3 1_555 1_555
O6_2 Co3A 1_555 1_555
O7A C16A 1_555 1_555
O7A_2 Co3 1_555 1_555
O7_2 Co3A 1_555 1_555
O8A Co3A 1_555 1_555
O9A Co3_2 1_555 1_555
O9A_2 Co3 1_555 1_555
O9_2 Co3A 1_555 1_555
O10A N4A 1_555 1_555
O11A N4A 1_555 1_555
O12A N5A 1_555 1_555
O13A N5A 1_555 1_555
N1A Co1_2 1_555 1_555
N1A_2 Co1 1_555 1_555
N1_2 Co1A 1_555 1_555
N2A Co2 1_555 1_555
N3A C17A 1_555 1_555
N3A_2 Co3 1_555 1_555
N3_2 Co3A 1_555 1_555
N4A C6A 1_555 1_555
N5A C14A 1_555 1_555
C1A O5A 1_555 1_555
C2A C1A 1_555 1_555
C3A C2A 1_555 1_555
H1A C3A 1_555 1_555
C4A C3A 1_555 1_555
C5A C4A 1_555 1_555
H2A C5A 1_555 1_555
C6A C5A 1_555 1_555
C7A C2A 1_555 1_555
H3A C7A 1_555 1_555
C8A O6A 1_555 1_555
C9A O3A 1_555 1_555
C10A C9A 1_555 1_555
C11A C10A 1_555 1_555
H4A C11A 1_555 1_555
C12A C11A 1_555 1_555
C13A C12A 1_555 1_555
H5A C13A 1_555 1_555
C14A C13A 1_555 1_555
C15A C10A 1_555 1_555
H6A C15A 1_555 1_555
C16A O9A 1_555 1_555
C17A N2A 1_555 1_555
H7A C17A 1_555 1_555
C18A N1A 1_555 1_555
H8A C18A 1_555 1_555
O3 Co1A_2 1_555 1_555
O4 Co1A_2 1_555 1_555
O9 Co3A_3 1_555 1_555
N1 Co1A_2 1_555 1_555
N3 C18 1_555 1_555
C6 C7 1_555 1_555
C14 C15 1_555 1_555
Co1_2 O3A 1_555 1_555
Co3A_2 O4A_2 1_555 1_555
O4A C9A 1_555 1_555
N1A N2A 1_555 1_555
N3A C18A 1_555 1_555
C4A C8A 1_555 1_555
C6A C7A 1_555 1_555
C12A C16A 1_555 1_555
C14A C15A 1_555 1_555

#END
