
#######################################################################
#
#                 Cambridge Crystallographic Data Centre
#                                CCDC 
#
#######################################################################
#
# If this CIF has been generated from an entry in the Cambridge 
# Structural Database, then it will include bibliographic, chemical, 
# crystal, experimental, refinement or atomic coordinate data resulting 
# from the CCDC's data processing and validation procedures.
#
#######################################################################

data_EBIPIQ
_chemical_formula_moiety         '(C37 H46 Cu4 N12 O24)n'
_symmetry_cell_setting           triclinic
_symmetry_space_group_name_H-M   'P -1'
_symmetry_Int_Tables_number      2
_space_group_name_Hall           '-P 1'
loop_
_symmetry_equiv_pos_site_id
_symmetry_equiv_pos_as_xyz
1 x,y,z
2 -x,-y,-z
_cell_length_a                   7.5798(9)
_cell_length_b                   8.78490(10)
_cell_length_c                   19.056(3)
_cell_angle_alpha                94.154(11)
_cell_angle_beta                 96.89
_cell_angle_gamma                112.580(8)
_cell_volume                     1153.41
loop_
_atom_site_label
_atom_site_type_symbol
_atom_site_fract_x
_atom_site_fract_y
_atom_site_fract_z
Cu1 Cu 0.68000(8) 0.85471(7) 0.83359(3)
Cu2 Cu -0.00510(8) 0.70464(7) 0.65110(3)
O1 O 0.6958(6) 0.6989(4) 0.7411(2)
O2 O 0.7333(4) 0.5430(4) 0.65326(18)
O3 O 0.0833(5) 0.5378(4) 0.68822(19)
O4 O 0.3364(5) 0.5922(5) 0.6301(2)
O5 O -0.1000(4) 0.0342(4) 0.80869(17)
O6 O 0.0984(6) -0.0988(6) 0.8193(3)
O7 O 0.5060(4) -0.0515(4) 0.78044(17)
O8 O 0.5280(6) 0.0884(5) 0.88566(19)
O9 O 0.8483(5) 0.8266(6) 0.9167(2)
O10 O 0.2721(5) 0.8540(4) 0.65205(19)
O11 O -0.0610(7) 0.6196(5) 0.5269(2)
N1 N 0.1836(6) 0.5197(5) 0.8901(2)
N2 N 0.3072(6) 0.4492(5) 0.9149(2)
N3 N 0.4623(5) 0.6789(5) 0.8661(2)
N4 N -0.2079(6) 1.0658(5) 0.6023(2)
N5 N -0.0397(6) 1.1236(5) 0.5741(2)
N6 N -0.0679(6) 0.8982(5) 0.6271(2)
C1 C -0.0467(7) 0.4204(6) 0.9741(3)
H2 H 0.0084 0.3415 0.9892
H3 H -0.1855 0.3710 0.9764
C2 C -0.0211(7) 0.4440(6) 0.8975(3)
H4 H -0.0826 0.3359 0.8676
H5 H -0.0858 0.5151 0.8805
C3 C 0.4712(7) 0.5486(6) 0.8996(3)
H6 H 0.5866 0.5326 0.9107
C4 C 0.2786(7) 0.6564(6) 0.8617(3)
H7 H 0.2235 0.7258 0.8418
C5 C -0.4487(7) 1.0938(6) 0.5116(3)
H8 H -0.3516 1.1413 0.4809
H9 H -0.5437 1.1440 0.5044
C6 C -0.3498(7) 1.1402(6) 0.5889(3)
H10 H -0.2846 1.2614 0.5996
H11 H -0.4471 1.1012 0.6202
C7 C 0.0395(7) 1.0193(6) 0.5916(3)
H12 H 0.1602 1.0282 0.5803
C8 C -0.2228(7) 0.9324(6) 0.6331(2)
H13 H -0.3265 0.8711 0.6558
C9 C 0.4847(6) 0.4154(5) 0.7209(2)
C10 C 0.2927(6) 0.4009(5) 0.7134(2)
C11 C 0.1596(6) 0.2733(5) 0.7408(2)
H14 H 0.0309 0.2641 0.7362
C12 C 0.2092(6) 0.1573(5) 0.7751(2)
C13 C 0.4021(6) 0.1713(5) 0.7816(2)
C14 C 0.5363(6) 0.3000(5) 0.7534(2)
H15 H 0.6645 0.3084 0.7565
C15 C 0.6469(6) 0.5663(5) 0.7025(3)
C16 C 0.2338(7) 0.5182(6) 0.6742(3)
C17 C 0.0580(7) 0.0182(6) 0.8033(3)
C18 C 0.4786(6) 0.0602(6) 0.8204(3)
H19 H 0.833(14) 0.872(13) 0.951(4)
H20 H 0.958(9) 0.873(12) 0.907(5)
H21 H 0.317(15) 0.783(11) 0.643(6)
H22 H 0.348(13) 0.904(12) 0.694(4)
H23 H -0.052(16) 0.673(12) 0.492(4)
H24 H 0.006(12) 0.571(10) 0.523(5)
Cu1A Cu -1.68000(8) 1.14529(7) 0.16641(3)
Cu1_2 Cu -0.32000(8) -0.14529(7) 0.83359(3)
Cu1_3 Cu 0.68000(8) -0.14529(7) 0.83359(3)
Cu1A_2 Cu -1.68000(8) 2.14529(7) 0.16641(3)
Cu1A_3 Cu -0.68000(8) 0.14529(7) 1.16641(3)
Cu1A_4 Cu -0.68000(8) 2.14529(7) 0.16641(3)
Cu2A Cu -0.99490(8) 1.29536(7) 0.34890(3)
Cu2_2 Cu 0.99490(8) 0.70464(7) 0.65110(3)
Cu2A_2 Cu -1.99490(8) 1.29536(7) 0.34890(3)
O1A O -1.6958(6) 1.3011(4) 0.2589(2)
O2A O -1.7333(4) 1.4570(4) 0.34674(18)
O2_2 O -0.2667(4) 0.5430(4) 0.65326(18)
O2A_2 O -0.7333(4) 1.4570(4) 0.34674(18)
O3A O -1.0833(5) 1.4622(4) 0.31178(19)
O4A O -1.3364(5) 1.4078(5) 0.3699(2)
O5A O -0.9000(4) 1.9658(4) 0.19131(17)
O5_2 O 0.9000(4) 1.0342(4) 0.80869(17)
O5A_2 O -1.9000(4) 0.9658(4) 0.19131(17)
O6A O -1.0984(6) 2.0988(6) 0.1807(3)
O7A O -1.5060(4) 2.0515(4) 0.21956(17)
O7_2 O 0.5060(4) 0.9485(4) 0.78044(17)
O7A_2 O -1.5060(4) 1.0515(4) 0.21956(17)
O8A O -1.5280(6) 1.9116(5) 0.11434(19)
O9A O -1.8483(5) 1.1734(6) 0.0833(2)
O10A O -1.2721(5) 1.1460(4) 0.34795(19)
O11A O -0.9390(7) 1.3804(5) 0.4731(2)
N1A N -0.1836(6) 0.4803(5) 1.1099(2)
N2A N -0.3072(6) 0.5508(5) 1.0851(2)
N3A N -0.4623(5) 0.3211(5) 1.1339(2)
N3A_2 N -1.4623(5) 1.3211(5) 0.1339(2)
N4A N -0.7921(6) 0.9342(5) 0.3977(2)
N5A N -0.9603(6) 0.8764(5) 0.4259(2)
N6A N -0.9321(6) 1.1018(5) 0.3729(2)
C1A C 0.0467(7) 0.5796(6) 1.0259(3)
H2A H -0.0084 0.6585 1.0108
H3A H 0.1855 0.6290 1.0236
C2A C 0.0211(7) 0.5560(6) 1.1025(3)
H4A H 0.0826 0.6641 1.1324
H5A H 0.0858 0.4849 1.1195
C3A C -0.4712(7) 0.4514(6) 1.1004(3)
H6A H -0.5866 0.4674 1.0893
C4A C -0.2786(7) 0.3436(6) 1.1383(3)
H7A H -0.2235 0.2742 1.1582
C5A C -0.5513(7) 0.9062(6) 0.4884(3)
H8A H -0.6484 0.8587 0.5191
H9A H -0.4563 0.8560 0.4956
C6A C -0.6502(7) 0.8598(6) 0.4111(3)
H10A H -0.7154 0.7386 0.4004
H11A H -0.5529 0.8988 0.3798
C7A C -1.0395(7) 0.9807(6) 0.4084(3)
H12A H -1.1602 0.9718 0.4197
C8A C -0.7772(7) 1.0676(6) 0.3669(2)
H13A H -0.6735 1.1289 0.3442
C9A C -1.4847(6) 1.5846(5) 0.2791(2)
C10A C -1.2927(6) 1.5991(5) 0.2866(2)
C11A C -1.1596(6) 1.7267(5) 0.2592(2)
H14A H -1.0309 1.7359 0.2638
C12A C -1.2092(6) 1.8427(5) 0.2249(2)
C13A C -1.4021(6) 1.8287(5) 0.2184(2)
C14A C -1.5363(6) 1.7000(5) 0.2466(2)
H15A H -1.6645 1.6916 0.2435
C15A C -1.6469(6) 1.4337(5) 0.2975(3)
C16A C -1.2338(7) 1.4818(6) 0.3258(3)
C17A C -1.0580(7) 1.9818(6) 0.1967(3)
C18A C -1.4786(6) 1.9398(6) 0.1796(3)
H19A H -1.833(14) 1.128(13) 0.049(4)
H20A H -1.958(9) 1.127(12) 0.093(5)
H21A H -1.317(15) 1.217(11) 0.357(6)
H22A H -1.348(13) 1.096(12) 0.306(4)
H23A H -0.948(16) 1.327(12) 0.508(4)
H24A H -1.006(12) 1.429(10) 0.477(5)
O12 O 0.5000 0.5000 0.5000
O13 O 1.2286(12) 1.1271(9) 0.9546(4)
H1 H 1.3018 1.2224 0.9733
C19 C 1.2909(18) 0.9989(14) 0.9903(5)
H16 H 1.3800 1.0529 1.0341
H17 H 1.3543 0.9539 0.9582
H18 H 1.1777 0.9095 1.0008
loop_
_geom_bond_atom_site_label_1
_geom_bond_atom_site_label_2
_geom_bond_site_symmetry_1
_geom_bond_site_symmetry_2
Cu1 O1 1_555 1_555
Cu2 O3 1_555 1_555
O1 C15 1_555 1_555
O2 C15 1_555 1_555
O3 C16 1_555 1_555
O4 C16 1_555 1_555
O5 C17 1_555 1_555
O6 C17 1_555 1_555
O7 C18 1_555 1_555
O8 C18 1_555 1_555
O9 Cu1 1_555 1_555
O10 Cu2 1_555 1_555
O11 Cu2 1_555 1_555
O13 H1 1_555 1_555
N1 N2 1_555 1_555
N2 C3 1_555 1_555
N3 Cu1 1_555 1_555
N4 N5 1_555 1_555
N5 C7 1_555 1_555
N6 Cu2 1_555 1_555
C1 H2 1_555 1_555
H3 C1 1_555 1_555
C2 N1 1_555 1_555
H4 C2 1_555 1_555
H5 C2 1_555 1_555
C3 N3 1_555 1_555
H6 C3 1_555 1_555
C4 N1 1_555 1_555
H7 C4 1_555 1_555
C5 H8 1_555 1_555
H9 C5 1_555 1_555
C6 N4 1_555 1_555
H10 C6 1_555 1_555
H11 C6 1_555 1_555
C7 N6 1_555 1_555
H12 C7 1_555 1_555
C8 N4 1_555 1_555
H13 C8 1_555 1_555
C9 C10 1_555 1_555
C10 C11 1_555 1_555
C11 H14 1_555 1_555
C12 C11 1_555 1_555
C13 C12 1_555 1_555
C14 C9 1_555 1_555
H15 C14 1_555 1_555
C15 C9 1_555 1_555
C16 C10 1_555 1_555
C17 C12 1_555 1_555
C18 C13 1_555 1_555
C19 O13 1_555 1_555
H16 C19 1_555 1_555
H17 C19 1_555 1_555
H18 C19 1_555 1_555
H19 O9 1_555 1_555
H20 O9 1_555 1_555
H21 O10 1_555 1_555
H22 O10 1_555 1_555
H23 O11 1_555 1_555
H24 O11 1_555 1_555
Cu1A O1A 1_555 1_555
Cu1_2 O5 1_555 1_555
Cu1_3 O7 1_555 1_555
Cu1A_2 O7A 1_555 1_555
Cu1A_3 N3A 1_555 1_555
Cu1A_4 O5A 1_555 1_555
Cu2A O2A_2 1_555 1_555
Cu2_2 O2 1_555 1_555
Cu2A_2 O2A 1_555 1_555
O1A C15A 1_555 1_555
O2A C15A 1_555 1_555
O2_2 Cu2 1_555 1_555
O3A Cu2A 1_555 1_555
O4A C16A 1_555 1_555
O5A C17A 1_555 1_555
O5_2 Cu1 1_555 1_555
O5A_2 Cu1A 1_555 1_555
O6A C17A 1_555 1_555
O7A C18A 1_555 1_555
O7_2 Cu1 1_555 1_555
O7A_2 Cu1A 1_555 1_555
O8A C18A 1_555 1_555
O9A Cu1A 1_555 1_555
O10A Cu2A 1_555 1_555
O11A Cu2A 1_555 1_555
N1A N2A 1_555 1_555
N2A C3A 1_555 1_555
N3A C3A 1_555 1_555
N3A_2 Cu1A 1_555 1_555
N4A N5A 1_555 1_555
N5A C7A 1_555 1_555
N6A Cu2A 1_555 1_555
C1A C1 1_555 1_555
H2A C1A 1_555 1_555
H3A C1A 1_555 1_555
C2A N1A 1_555 1_555
H4A C2A 1_555 1_555
H5A C2A 1_555 1_555
C3A H6A 1_555 1_555
C4A N1A 1_555 1_555
H7A C4A 1_555 1_555
C5A C5 1_555 1_555
H8A C5A 1_555 1_555
H9A C5A 1_555 1_555
C6A N4A 1_555 1_555
H10A C6A 1_555 1_555
H11A C6A 1_555 1_555
C7A N6A 1_555 1_555
H12A C7A 1_555 1_555
C8A N4A 1_555 1_555
H13A C8A 1_555 1_555
C9A C10A 1_555 1_555
C10A C11A 1_555 1_555
C11A H14A 1_555 1_555
C12A C11A 1_555 1_555
C13A C12A 1_555 1_555
C14A C9A 1_555 1_555
H15A C14A 1_555 1_555
C15A C9A 1_555 1_555
C16A O3A 1_555 1_555
C17A C12A 1_555 1_555
C18A C13A 1_555 1_555
H19A O9A 1_555 1_555
H20A O9A 1_555 1_555
H21A O10A 1_555 1_555
H22A O10A 1_555 1_555
H23A O11A 1_555 1_555
H24A O11A 1_555 1_555
N3 C4 1_555 1_555
N6 C8 1_555 1_555
C1 C2 1_555 1_555
C5 C6 1_555 1_555
C13 C14 1_555 1_555
N3A C4A 1_555 1_555
N6A C8A 1_555 1_555
C1A C2A 1_555 1_555
C5A C6A 1_555 1_555
C10A C16A 1_555 1_555
C13A C14A 1_555 1_555

#END
