
#######################################################################
#
#                 Cambridge Crystallographic Data Centre
#                                CCDC 
#
#######################################################################
#
# If this CIF has been generated from an entry in the Cambridge 
# Structural Database, then it will include bibliographic, chemical, 
# crystal, experimental, refinement or atomic coordinate data resulting 
# from the CCDC's data processing and validation procedures.
#
#######################################################################

data_OLOGEC
_chemical_formula_moiety         '(C51 H41 N5 O18 Zn4)n'
_symmetry_cell_setting           monoclinic
_symmetry_space_group_name_H-M   'P 21/c'
_symmetry_Int_Tables_number      14
_space_group_name_Hall           '-P 2ybc'
loop_
_symmetry_equiv_pos_site_id
_symmetry_equiv_pos_as_xyz
1 x,y,z
2 -x,1/2+y,1/2-z
3 -x,-y,-z
4 x,1/2-y,1/2+z
_cell_length_a                   19.0893(15)
_cell_length_b                   26.952(2)
_cell_length_c                   31.7133(18)
_cell_angle_alpha                90
_cell_angle_beta                 119.592(3)
_cell_angle_gamma                90
_cell_volume                     14188.1
loop_
_atom_site_label
_atom_site_type_symbol
_atom_site_fract_x
_atom_site_fract_y
_atom_site_fract_z
C1 C 0.41782(18) 0.58932(11) 0.45930(11)
C2 C 0.49471(19) 0.59058(11) 0.45739(10)
C3 C 0.51357(19) 0.63409(11) 0.44130(11)
H1 H 0.4776 0.6606 0.4306
C4 C 0.58579(18) 0.63775(11) 0.44127(11)
H2 H 0.5980 0.6666 0.4301
C5 C 0.64019(18) 0.59863(10) 0.45781(11)
C6 C 0.62131(18) 0.55564(11) 0.47409(11)
H3 H 0.6576 0.5293 0.4852
C7 C 0.54864(18) 0.55167(12) 0.47386(11)
H4 H 0.5363 0.5227 0.4848
C8 C 0.71762(18) 0.60239(11) 0.45745(11)
C9 C 0.86638(18) 0.60879(10) 0.50121(11)
C10 C 0.91377(17) 0.65135(11) 0.51565(11)
H5 H 0.8965 0.6794 0.5250
C11 C 0.98705(18) 0.65203(10) 0.51614(10)
H6 H 1.0189 0.6804 0.5262
C12 C 1.01272(19) 0.61068(11) 0.50175(10)
C13 C 0.96499(18) 0.56765(11) 0.48707(11)
H7 H 0.9822 0.5397 0.4775
C14 C 0.89241(18) 0.56677(11) 0.48691(11)
H8 H 0.8609 0.5382 0.4773
C15 C 1.09003(19) 0.61324(11) 0.50112(11)
C16 C 0.34835(19) 0.51170(11) 0.58528(11)
C17 C 0.38861(18) 0.47073(11) 0.62062(11)
C18 C 0.38853(19) 0.47145(12) 0.66455(11)
H9 H 0.3635 0.4974 0.6714
C19 C 0.42548(19) 0.43373(12) 0.69815(12)
H10 H 0.4254 0.4343 0.7274
C20 C 0.46265(18) 0.39497(10) 0.68772(10)
C21 C 0.4635(2) 0.39387(12) 0.64422(11)
H11 H 0.4889 0.3681 0.6376
C22 C 0.4261(2) 0.43138(11) 0.61087(11)
H12 H 0.4260 0.4305 0.5815
C23 C 0.49592(18) 0.35133(12) 0.76387(11)
C24 C 0.53529(19) 0.31083(11) 0.80122(11)
C25 C 0.61433(19) 0.31657(11) 0.83883(10)
H13 H 0.6415 0.3462 0.8419
C26 C 0.65289(18) 0.27834(11) 0.87188(10)
H14 H 0.7061 0.2819 0.8964
C27 C 0.61065(18) 0.23474(11) 0.86768(10)
C28 C 0.53105(17) 0.22907(11) 0.83031(10)
H15 H 0.5031 0.1998 0.8275
C29 C 0.49412(18) 0.26757(11) 0.79749(11)
H16 H 0.4411 0.2641 0.7728
C30 C 0.65038(18) 0.19667(11) 0.90527(10)
C31 C 0.17548(18) 0.51368(12) 0.40938(11)
C32 C 0.13262(17) 0.47507(11) 0.37276(10)
C33 C 0.10902(17) 0.43183(11) 0.38573(11)
H17 H 0.1184 0.4277 0.4172
C34 C 0.07125(18) 0.39455(11) 0.35151(10)
H18 H 0.0554 0.3654 0.3600
C35 C 0.05743(19) 0.40103(10) 0.30496(11)
C36 C 0.08083(18) 0.44406(11) 0.29143(11)
H19 H 0.0712 0.4480 0.2599
C37 C 0.11898(18) 0.48154(11) 0.32571(10)
H20 H 0.1352 0.5106 0.3172
C38 C 0.02004(18) 0.35903(11) 0.27086(11)
C39 C -0.06312(18) 0.32535(11) 0.19163(11)
C40 C -0.08485(18) 0.28347(11) 0.20694(11)
H21 H -0.0752 0.2815 0.2386
C41 C -0.12148(18) 0.24357(11) 0.17506(10)
H22 H -0.1373 0.2155 0.1852
C42 C -0.13396(18) 0.24661(11) 0.12764(10)
C43 C -0.11086(18) 0.28818(11) 0.11273(12)
H23 H -0.1186 0.2896 0.0814
C44 C -0.07553(19) 0.32878(12) 0.14437(11)
H24 H -0.0608 0.3572 0.1341
C45 C -0.17358(17) 0.20328(11) 0.09421(11)
C46 C 0.54806(16) 0.57261(11) 0.59435(10)
H25 H 0.5205 0.5426 0.5863
C47 C 0.68170(18) 0.52411(11) 0.62854(11)
H26 H 0.6907 0.5109 0.6589
H27 H 0.7326 0.5296 0.6301
H28 H 0.6506 0.5009 0.6031
C48 C 0.68522(18) 0.62003(10) 0.62965(11)
H29 H 0.6654 0.6394 0.6006
H30 H 0.7410 0.6124 0.6417
H31 H 0.6796 0.6385 0.6537
C49 C 0.45184(17) 0.70220(10) 0.52444(11)
H32 H 0.4966 0.6964 0.5547
C50 C 0.53517(17) 0.76377(11) 0.50495(11)
H33 H 0.5413 0.7960 0.5193
H34 H 0.5375 0.7667 0.4755
H35 H 0.5777 0.7424 0.5271
C51 C 0.37799(18) 0.75890(10) 0.44972(11)
H36 H 0.3507 0.7308 0.4298
H37 H 0.3908 0.7820 0.4315
H38 H 0.3437 0.7747 0.4599
N1 N 0.78770(15) 0.60560(9) 0.49946(9)
N2 N -0.01978(15) 0.36573(9) 0.22639(9)
N3 N 0.49748(15) 0.35211(9) 0.72319(9)
N4 N 0.63709(14) 0.57201(8) 0.61854(8)
N5 N 0.45463(14) 0.74200(8) 0.49374(8)
O1 O 0.27413(12) 0.61011(7) 0.49826(7)
O2 O 0.35842(12) 0.61148(7) 0.42729(7)
O3 O 0.71826(12) 0.60140(7) 0.41816(7)
O4 O 1.12271(12) 0.65277(7) 0.50498(7)
O5 O 1.12315(12) 0.57331(7) 0.49985(7)
O6 O 0.39279(12) 0.54573(7) 0.58495(7)
O7 O 0.27629(12) 0.50732(7) 0.55778(7)
O8 O 0.46084(12) 0.38550(7) 0.77377(7)
O9 O 0.71892(12) 0.20906(7) 0.93866(7)
O10 O 0.19755(12) 0.55302(7) 0.39707(7)
O11 O 0.18717(12) 0.50476(7) 0.45123(7)
O12 O 0.01946(12) 0.31191(7) 0.27575(7)
O13 O -0.18414(12) 0.20537(7) 0.05221(7)
O14 O 0.50929(12) 0.61121(7) 0.58453(7)
O15 O 0.39269(12) 0.67696(7) 0.51112(7)
Zn1 Zn 0.26501(2) 0.609406(12) 0.434883(12)
O16 O -0.19845(11) 0.16818(7) 0.10763(7)
Zn2 Zn 0.21945(2) 0.553006(12) 0.503833(12)
O17 O 0.41226(12) 0.56477(7) 0.49014(7)
Zn3 Zn 0.38863(2) 0.611770(12) 0.549624(12)
O18 O 0.61544(12) 0.15720(7) 0.89997(7)
Zn4 Zn 0.22157(2) 0.668665(12) 0.503853(12)
O4_2 O 0.12271(12) 0.65277(7) 0.50498(7)
O5_2 O 0.12315(12) 0.57331(7) 0.49985(7)
O9A O 0.28108(12) 0.70906(7) 0.56134(7)
O13A O 0.18414(12) 0.70537(7) 0.44779(7)
Zn1A Zn -0.26501(2) 0.109406(12) 0.065117(12)
O16A O 0.19845(11) 0.66818(7) 0.39237(7)
Zn2_2 Zn 1.21945(2) 0.553006(12) 0.503833(12)
Zn3A Zn 0.61137(2) 0.111770(12) 0.950376(12)
O18A O 0.38456(12) 0.65720(7) 0.60003(7)
Zn4_2 Zn 1.22157(2) 0.668665(12) 0.503853(12)
Zn4A Zn 0.77843(2) 0.168665(12) 0.996147(12)
Zn4A_2 Zn -0.22157(2) 0.168665(12) -0.003853(12)
loop_
_geom_bond_atom_site_label_1
_geom_bond_atom_site_label_2
_geom_bond_site_symmetry_1
_geom_bond_site_symmetry_2
C1 C2 1_555 1_555
C2 C3 1_555 1_555
C3 H1 1_555 1_555
C4 C3 1_555 1_555
H2 C4 1_555 1_555
C5 C4 1_555 1_555
C6 C5 1_555 1_555
H3 C6 1_555 1_555
C7 C2 1_555 1_555
H4 C7 1_555 1_555
C8 C5 1_555 1_555
C9 C10 1_555 1_555
C10 H5 1_555 1_555
C11 C10 1_555 1_555
H6 C11 1_555 1_555
C12 C11 1_555 1_555
C13 C12 1_555 1_555
H7 C13 1_555 1_555
C14 C9 1_555 1_555
H8 C14 1_555 1_555
C15 C12 1_555 1_555
C16 C17 1_555 1_555
C17 C18 1_555 1_555
C18 H9 1_555 1_555
C19 C18 1_555 1_555
H10 C19 1_555 1_555
C20 C19 1_555 1_555
C21 C20 1_555 1_555
H11 C21 1_555 1_555
C22 C17 1_555 1_555
H12 C22 1_555 1_555
C23 C24 1_555 1_555
C24 C25 1_555 1_555
C25 H13 1_555 1_555
C26 C25 1_555 1_555
H14 C26 1_555 1_555
C27 C26 1_555 1_555
C28 C27 1_555 1_555
H15 C28 1_555 1_555
C29 C24 1_555 1_555
H16 C29 1_555 1_555
C30 C27 1_555 1_555
C31 C32 1_555 1_555
C32 C33 1_555 1_555
C33 H17 1_555 1_555
C34 C33 1_555 1_555
H18 C34 1_555 1_555
C35 C34 1_555 1_555
C36 C35 1_555 1_555
H19 C36 1_555 1_555
C37 C32 1_555 1_555
H20 C37 1_555 1_555
C38 C35 1_555 1_555
C39 C40 1_555 1_555
C40 H21 1_555 1_555
C41 C40 1_555 1_555
H22 C41 1_555 1_555
C42 C41 1_555 1_555
C43 C42 1_555 1_555
H23 C43 1_555 1_555
C44 C39 1_555 1_555
H24 C44 1_555 1_555
C45 C42 1_555 1_555
C46 H25 1_555 1_555
C47 H26 1_555 1_555
H27 C47 1_555 1_555
H28 C47 1_555 1_555
C48 H29 1_555 1_555
H30 C48 1_555 1_555
H31 C48 1_555 1_555
C49 H32 1_555 1_555
C50 H33 1_555 1_555
H34 C50 1_555 1_555
H35 C50 1_555 1_555
C51 H36 1_555 1_555
H37 C51 1_555 1_555
H38 C51 1_555 1_555
N1 C8 1_555 1_555
N2 C38 1_555 1_555
N3 C20 1_555 1_555
N4 C46 1_555 1_555
N5 C49 1_555 1_555
O1 Zn1 1_555 1_555
O2 C1 1_555 1_555
O3 C8 1_555 1_555
O4 C15 1_555 1_555
O5 C15 1_555 1_555
O6 C16 1_555 1_555
O7 C16 1_555 1_555
O8 C23 1_555 1_555
O9 C30 1_555 1_555
O10 C31 1_555 1_555
O11 C31 1_555 1_555
O12 C38 1_555 1_555
O13 C45 1_555 1_555
O14 C46 1_555 1_555
O15 C49 1_555 1_555
Zn1 O2 1_555 1_555
O16 C45 1_555 1_555
Zn2 O1 1_555 1_555
O17 C1 1_555 1_555
Zn3 O1 1_555 1_555
O18 C30 1_555 1_555
Zn4 O1 1_555 1_555
O4_2 Zn4 1_555 1_555
O5_2 Zn2 1_555 1_555
O9A Zn4 1_555 1_555
O13A Zn4 1_555 1_555
Zn1A O16 1_555 1_555
O16A Zn1 1_555 1_555
Zn2_2 O5 1_555 1_555
Zn3A O18 1_555 1_555
O18A Zn3 1_555 1_555
Zn4_2 O4 1_555 1_555
Zn4A O9 1_555 1_555
Zn4A_2 O13 1_555 1_555
C6 C7 1_555 1_555
C9 N1 1_555 1_555
C13 C14 1_555 1_555
C21 C22 1_555 1_555
C23 N3 1_555 1_555
C28 C29 1_555 1_555
C36 C37 1_555 1_555
C39 N2 1_555 1_555
C43 C44 1_555 1_555
C47 N4 1_555 1_555
C48 N4 1_555 1_555
C50 N5 1_555 1_555
C51 N5 1_555 1_555
O6 Zn3 1_555 1_555
O7 Zn2 1_555 1_555
O10 Zn1 1_555 1_555
O11 Zn2 1_555 1_555
O14 Zn3 1_555 1_555
O15 Zn3 1_555 1_555

#END
