
#######################################################################
#
#                 Cambridge Crystallographic Data Centre
#                                CCDC 
#
#######################################################################
#
# If this CIF has been generated from an entry in the Cambridge 
# Structural Database, then it will include bibliographic, chemical, 
# crystal, experimental, refinement or atomic coordinate data resulting 
# from the CCDC's data processing and validation procedures.
#
#######################################################################

data_BEQFEK
_chemical_formula_moiety         '(C62 H50 Co4 N8 O12)n'
_symmetry_cell_setting           tetragonal
_symmetry_space_group_name_H-M   'I 41/a'
_symmetry_Int_Tables_number      88
_space_group_name_Hall           '-I 4ad'
loop_
_symmetry_equiv_pos_site_id
_symmetry_equiv_pos_as_xyz
1 x,y,z
2 1/2-x,-y,1/2+z
3 3/4-y,1/4+x,1/4+z
4 3/4+y,3/4-x,3/4+z
5 1/2+x,1/2+y,1/2+z
6 -x,1/2-y,z
7 1/4-y,3/4+x,3/4+z
8 1/4+y,1/4-x,1/4+z
9 -x,-y,-z
10 1/2+x,y,1/2-z
11 1/4+y,3/4-x,3/4-z
12 1/4-y,1/4+x,1/4-z
13 1/2-x,1/2-y,1/2-z
14 x,1/2+y,-z
15 3/4+y,1/4-x,1/4-z
16 3/4-y,3/4+x,3/4-z
_cell_length_a                   43.939(10)
_cell_length_b                   43.939(10)
_cell_length_c                   8.5387(19)
_cell_angle_alpha                90
_cell_angle_beta                 90
_cell_angle_gamma                90
_cell_volume                     16485.1
loop_
_atom_site_label
_atom_site_type_symbol
_atom_site_fract_x
_atom_site_fract_y
_atom_site_fract_z
Co1 Co 0.447831(6) 0.904596(6) 0.19294(3)
Co2 Co 0.426100(6) 0.870156(6) 0.50572(3)
C1 C 0.42267(6) 0.93445(6) 0.4871(3)
C2 C 0.41590(6) 0.96527(5) 0.5546(3)
C3 C 0.40453(8) 0.96818(6) 0.7047(4)
H1 H 0.4008 0.9509 0.7642
C4 C 0.39870(9) 0.99663(6) 0.7673(4)
H2 H 0.3910 0.9982 0.8684
C5 C 0.40425(7) 1.02301(6) 0.6801(4)
C6 C 0.41527(7) 1.01992(6) 0.5287(4)
H3 H 0.4189 1.0372 0.4683
C7 C 0.42101(7) 0.99108(6) 0.4661(4)
H4 H 0.4283 0.9893 0.3643
C8 C 0.39837(7) 1.05379(6) 0.7486(4)
C9 C 0.40302(7) 1.05901(6) 0.9077(4)
H5 H 0.4103 1.0434 0.9707
C10 C 0.39684(7) 1.08718(6) 0.9731(3)
H6 H 0.4001 1.0903 1.0795
C11 C 0.38590(6) 1.11072(5) 0.8809(3)
C12 C 0.38179(7) 1.10599(6) 0.7219(3)
H7 H 0.3750 1.1218 0.6587
C13 C 0.38785(8) 1.07758(6) 0.6564(4)
H8 H 0.3848 1.0745 0.5497
C14 C 0.37868(5) 1.14096(5) 0.9544(3)
C15 C 0.47170(6) 0.92009(6) -0.0978(3)
C16 C 0.48274(6) 0.94333(6) -0.2149(3)
C17 C 0.48310(10) 0.97394(7) -0.1747(3)
H9 H 0.4785 0.9798 -0.0728
C18 C 0.49033(10) 0.99581(7) -0.2853(3)
H10 H 0.4907 1.0162 -0.2560
C19 C 0.49710(7) 0.98800(6) -0.4390(3)
C20 C 0.49787(6) 0.95717(6) -0.4760(3)
H11 H 0.5032 0.9512 -0.5769
C21 C 0.49089(6) 0.93503(6) -0.3652(3)
H12 H 0.4917 0.9145 -0.3924
C22 C 0.52633(6) 0.88967(7) 0.1648(3)
H13 H 0.5135 0.9033 0.1071
H14 H 0.5355 0.8754 0.0940
H15 H 0.5420 0.9011 0.2168
C23 C 0.50769(5) 0.87290(5) 0.2839(2)
C24 C 0.51712(5) 0.85117(5) 0.3938(2)
C25 C 0.49088(5) 0.84354(5) 0.4772(3)
C26 C 0.48754(6) 0.82052(7) 0.6074(4)
H16 H 0.4668 0.8202 0.6427
H17 H 0.5006 0.8260 0.6929
H18 H 0.4931 0.8007 0.5694
C27 C 0.55465(7) 0.86730(8) 0.7010(3)
H19 H 0.5704 0.8677 0.7790
H20 H 0.5363 0.8592 0.7460
H21 H 0.5510 0.8876 0.6639
C28 C 0.56447(5) 0.84756(5) 0.5668(3)
C29 C 0.54853(5) 0.84072(5) 0.4292(3)
C30 C 0.56781(5) 0.82263(6) 0.3404(3)
C31 C 0.56319(6) 0.80757(8) 0.1845(3)
H22 H 0.5813 0.7966 0.1562
H23 H 0.5590 0.8228 0.1067
H24 H 0.5464 0.7937 0.1910
N1 N 0.47772(4) 0.87778(4) 0.30046(19)
N2 N 0.46718(4) 0.85975(4) 0.4224(2)
N3 N 0.59212(4) 0.83412(4) 0.5640(2)
N4 N 0.59347(4) 0.81931(4) 0.4236(2)
H25 H 0.6090 0.8090 0.3922
O1 O 0.43123(4) 0.93352(4) 0.3466(2)
O2 O 0.41974(4) 0.91166(4) 0.5766(2)
O3 O 0.36619(4) 1.16075(3) 0.8695(2)
O4 O 0.38570(4) 1.14423(4) 1.0969(2)
O5 O 0.46469(5) 0.93122(4) 0.0371(2)
O6 O 0.46998(5) 0.89280(4) -0.1312(2)
C15H C 0.52830(6) 1.07991(6) -0.9022(3)
C16H C 0.51726(6) 1.05667(6) -0.7851(3)
C17H C 0.51690(10) 1.02606(7) -0.8253(3)
H9H H 0.5215 1.0202 -0.9272
C18H C 0.50967(10) 1.00419(7) -0.7147(3)
H10H H 0.5093 0.9838 -0.7440
C19H C 0.50290(7) 1.01200(6) -0.5610(3)
C20H C 0.50213(6) 1.04283(6) -0.5240(3)
H11H H 0.4968 1.0488 -0.4231
C21H C 0.50911(6) 1.06497(6) -0.6348(3)
H12H H 0.5083 1.0855 -0.6076
O5H O 0.53531(5) 1.06878(4) -1.0371(2)
O6H O 0.53002(5) 1.10720(4) -0.8688(2)
Co1H Co 0.552169(6) 1.095404(6) -1.19294(3)
Co2H Co 0.573900(6) 1.129844(6) -1.50572(3)
C1H C 0.57733(6) 1.06555(6) -1.4871(3)
C2H C 0.58410(6) 1.03473(5) -1.5546(3)
C3H C 0.59547(8) 1.03182(6) -1.7047(4)
H1H H 0.5992 1.0491 -1.7642
C4H C 0.60130(9) 1.00337(6) -1.7673(4)
H2H H 0.6090 1.0018 -1.8684
C5H C 0.59575(7) 0.97699(6) -1.6801(4)
C6H C 0.58473(7) 0.98008(6) -1.5287(4)
H3H H 0.5811 0.9628 -1.4683
C7H C 0.57899(7) 1.00892(6) -1.4661(4)
H4H H 0.5717 1.0107 -1.3643
C8H C 0.60163(7) 0.94621(6) -1.7486(4)
C9H C 0.59698(7) 0.94099(6) -1.9077(4)
H5H H 0.5897 0.9566 -1.9707
C10H C 0.60316(7) 0.91282(6) -1.9731(3)
H6H H 0.5999 0.9097 -2.0795
C11H C 0.61410(6) 0.88928(5) -1.8809(3)
C12H C 0.61821(7) 0.89401(6) -1.7219(3)
H7H H 0.6250 0.8782 -1.6587
C13H C 0.61215(8) 0.92242(6) -1.6564(4)
H8H H 0.6152 0.9255 -1.5497
C14H C 0.62132(5) 0.85904(5) -1.9544(3)
C22H C 0.47367(6) 1.11033(7) -1.1648(3)
H13H H 0.4865 1.0967 -1.1071
H14H H 0.4645 1.1246 -1.0940
H15H H 0.4580 1.0989 -1.2168
C23H C 0.49231(5) 1.12710(5) -1.2839(2)
C24H C 0.48288(5) 1.14883(5) -1.3938(2)
C25H C 0.50912(5) 1.15646(5) -1.4772(3)
C26H C 0.51246(6) 1.17948(7) -1.6074(4)
H16H H 0.5332 1.1798 -1.6427
H17H H 0.4994 1.1740 -1.6929
H18H H 0.5069 1.1993 -1.5694
C27H C 0.44535(7) 1.13270(8) -1.7010(3)
H19H H 0.4296 1.1323 -1.7790
H20H H 0.4637 1.1408 -1.7460
H21H H 0.4490 1.1124 -1.6639
C28H C 0.43553(5) 1.15244(5) -1.5668(3)
C29H C 0.45147(5) 1.15928(5) -1.4292(3)
C30H C 0.43219(5) 1.17737(6) -1.3404(3)
C31H C 0.43681(6) 1.19243(8) -1.1845(3)
H22H H 0.4187 1.2034 -1.1562
H23H H 0.4410 1.1772 -1.1067
H24H H 0.4536 1.2063 -1.1910
N1H N 0.52228(4) 1.12222(4) -1.30046(19)
N2H N 0.53282(4) 1.14025(4) -1.4224(2)
N3H N 0.40788(4) 1.16588(4) -1.5640(2)
N4H N 0.40653(4) 1.18069(4) -1.4236(2)
H25H H 0.3910 1.1910 -1.3922
O1H O 0.56877(4) 1.06648(4) -1.3466(2)
O2H O 0.58026(4) 1.08834(4) -1.5766(2)
O3H O 0.63381(4) 0.83925(3) -1.8695(2)
O4H O 0.61430(4) 0.85577(4) -2.0969(2)
Co1F Co 0.345404(6) 1.197831(6) 0.94294(3)
Co1N Co 0.654596(6) 0.802169(6) -1.94294(3)
Co2F Co 0.379844(6) 1.176100(6) -1.74428(3)
Co2F_2 Co 0.379844(6) 1.176100(6) 1.25572(3)
Co2N Co 0.620156(6) 0.823900(6) -2.25572(3)
Co2N_2 Co 0.620156(6) 0.823900(6) 0.74428(3)
N3C N 0.58412(4) 1.15788(4) -1.6860(2)
N3K N 0.41588(4) 0.84212(4) 0.6860(2)
O3G O 0.41075(3) 0.88381(4) 0.1195(2)
O3O O 0.58925(3) 1.11619(4) -1.1195(2)
O4G O 0.39423(4) 0.86430(4) 0.3469(2)
O4O O 0.60577(4) 1.13570(4) -1.3469(2)
loop_
_geom_bond_atom_site_label_1
_geom_bond_atom_site_label_2
_geom_bond_site_symmetry_1
_geom_bond_site_symmetry_2
Co1 N1 1_555 1_555
Co2 N2 1_555 1_555
C1 C2 1_555 1_555
C2 C3 1_555 1_555
C3 H1 1_555 1_555
C4 C3 1_555 1_555
H2 C4 1_555 1_555
C5 C4 1_555 1_555
C6 C5 1_555 1_555
H3 C6 1_555 1_555
C7 C2 1_555 1_555
H4 C7 1_555 1_555
C8 C5 1_555 1_555
C9 C8 1_555 1_555
H5 C9 1_555 1_555
C10 C9 1_555 1_555
H6 C10 1_555 1_555
C11 C10 1_555 1_555
C12 C11 1_555 1_555
H7 C12 1_555 1_555
C13 C8 1_555 1_555
H8 C13 1_555 1_555
C14 C11 1_555 1_555
C15 C16 1_555 1_555
C16 C17 1_555 1_555
C17 H9 1_555 1_555
C18 C17 1_555 1_555
H10 C18 1_555 1_555
C19 C18 1_555 1_555
C20 C19 1_555 1_555
H11 C20 1_555 1_555
C21 C16 1_555 1_555
H12 C21 1_555 1_555
C22 H13 1_555 1_555
H14 C22 1_555 1_555
H15 C22 1_555 1_555
C23 C22 1_555 1_555
C24 C23 1_555 1_555
C25 C24 1_555 1_555
C26 C25 1_555 1_555
H16 C26 1_555 1_555
H17 C26 1_555 1_555
H18 C26 1_555 1_555
C27 H19 1_555 1_555
H20 C27 1_555 1_555
H21 C27 1_555 1_555
C28 C27 1_555 1_555
C29 C24 1_555 1_555
C30 C29 1_555 1_555
C31 C30 1_555 1_555
H22 C31 1_555 1_555
H23 C31 1_555 1_555
H24 C31 1_555 1_555
N1 C23 1_555 1_555
N2 C25 1_555 1_555
N3 C28 1_555 1_555
N4 C30 1_555 1_555
H25 N4 1_555 1_555
O1 Co1 1_555 1_555
O2 Co2 1_555 1_555
O3 C14 1_555 1_555
O4 C14 1_555 1_555
O5 Co1 1_555 1_555
O6 C15 1_555 1_555
C15H C16H 1_555 1_555
C16H C17H 1_555 1_555
C17H H9H 1_555 1_555
C18H C17H 1_555 1_555
H10H C18H 1_555 1_555
C19H C19 1_555 1_555
C20H C19H 1_555 1_555
H11H C20H 1_555 1_555
C21H C16H 1_555 1_555
H12H C21H 1_555 1_555
O5H C15H 1_555 1_555
O6H C15H 1_555 1_555
Co1H O5H 1_555 1_555
Co2H N2H 1_555 1_555
C1H C2H 1_555 1_555
C2H C3H 1_555 1_555
C3H H1H 1_555 1_555
C4H C3H 1_555 1_555
H2H C4H 1_555 1_555
C5H C4H 1_555 1_555
C6H C5H 1_555 1_555
H3H C6H 1_555 1_555
C7H C2H 1_555 1_555
H4H C7H 1_555 1_555
C8H C5H 1_555 1_555
C9H C8H 1_555 1_555
H5H C9H 1_555 1_555
C10H C9H 1_555 1_555
H6H C10H 1_555 1_555
C11H C10H 1_555 1_555
C12H C11H 1_555 1_555
H7H C12H 1_555 1_555
C13H C8H 1_555 1_555
H8H C13H 1_555 1_555
C14H C11H 1_555 1_555
C22H H13H 1_555 1_555
H14H C22H 1_555 1_555
H15H C22H 1_555 1_555
C23H C22H 1_555 1_555
C24H C23H 1_555 1_555
C25H C24H 1_555 1_555
C26H C25H 1_555 1_555
H16H C26H 1_555 1_555
H17H C26H 1_555 1_555
H18H C26H 1_555 1_555
C27H H19H 1_555 1_555
H20H C27H 1_555 1_555
H21H C27H 1_555 1_555
C28H C27H 1_555 1_555
C29H C24H 1_555 1_555
C30H C29H 1_555 1_555
C31H C30H 1_555 1_555
H22H C31H 1_555 1_555
H23H C31H 1_555 1_555
H24H C31H 1_555 1_555
N1H Co1H 1_555 1_555
N2H C25H 1_555 1_555
N3H C28H 1_555 1_555
N4H C30H 1_555 1_555
H25H N4H 1_555 1_555
O1H Co1H 1_555 1_555
O2H Co2H 1_555 1_555
O3H C14H 1_555 1_555
O4H C14H 1_555 1_555
Co1F O3 1_555 1_555
Co1N O3H 1_555 1_555
Co2F N3H 1_555 1_555
Co2F_2 O4 1_555 1_555
Co2N O4H 1_555 1_555
Co2N_2 N3 1_555 1_555
N3C Co2H 1_555 1_555
N3K Co2 1_555 1_555
O3G Co1 1_555 1_555
O3O Co1H 1_555 1_555
O4G Co2 1_555 1_555
O4O Co2H 1_555 1_555
C1 O1 1_555 1_555
C1 O2 1_555 1_555
C6 C7 1_555 1_555
C12 C13 1_555 1_555
C15 O5 1_555 1_555
C20 C21 1_555 1_555
C28 C29 1_555 1_555
N1 N2 1_555 1_555
N3 N4 1_555 1_555
C18H C19H 1_555 1_555
C20H C21H 1_555 1_555
C1H O1H 1_555 1_555
C1H O2H 1_555 1_555
C6H C7H 1_555 1_555
C12H C13H 1_555 1_555
C23H N1H 1_555 1_555
C28H C29H 1_555 1_555
N1H N2H 1_555 1_555
N3H N4H 1_555 1_555

#END
