
#######################################################################
#
#                 Cambridge Crystallographic Data Centre
#                                CCDC 
#
#######################################################################
#
# If this CIF has been generated from an entry in the Cambridge 
# Structural Database, then it will include bibliographic, chemical, 
# crystal, experimental, refinement or atomic coordinate data resulting 
# from the CCDC's data processing and validation procedures.
#
#######################################################################

data_PIHWAG
_chemical_formula_moiety         '(C30 H30 La1 N3 O9 S3)n'
_symmetry_cell_setting           monoclinic
_symmetry_space_group_name_H-M   'C c'
_symmetry_Int_Tables_number      9
_space_group_name_Hall           'C -2yc'
loop_
_symmetry_equiv_pos_site_id
_symmetry_equiv_pos_as_xyz
1 x,y,z
2 x,-y,1/2+z
3 1/2+x,1/2+y,z
4 1/2+x,1/2-y,1/2+z
_cell_length_a                   23.241(10)
_cell_length_b                   16.264(7)
_cell_length_c                   8.206(4)
_cell_angle_alpha                90
_cell_angle_beta                 91.544(6)
_cell_angle_gamma                90
_cell_volume                     3100.67
loop_
_atom_site_label
_atom_site_type_symbol
_atom_site_fract_x
_atom_site_fract_y
_atom_site_fract_z
C1 C 0.9042(3) 0.5697(5) 0.6149(9)
C2 C 0.9541(3) 0.5429(5) 0.5406(10)
H1 H 0.9805 0.5827 0.5027
C3 C 0.9666(3) 0.4594(5) 0.5198(9)
C4 C 0.9283(3) 0.4019(4) 0.5814(9)
H2 H 0.9368 0.3450 0.5713
C5 C 0.8778(3) 0.4256(4) 0.6575(9)
C6 C 0.8658(3) 0.5093(5) 0.6729(10)
H3 H 0.8313 0.5261 0.7229
C7 C 0.8902(3) 0.6576(5) 0.6328(9)
S1 S 0.83809(8) 0.68873(11) 0.7641(2)
C8 C 0.8435(3) 0.7889(5) 0.7000(9)
C9 C 0.8851(3) 0.7973(5) 0.5853(9)
H4 H 0.8946 0.8483 0.5361
C10 C 0.9123(3) 0.7226(5) 0.5483(10)
H5 H 0.9426 0.7177 0.4733
C11 C 0.8066(3) 0.8529(5) 0.7710(8)
O1 O 0.8078(2) 0.9245(3) 0.7097(6)
O2 O 0.7765(2) 0.8358(3) 0.8905(6)
C12 C 1.0171(3) 0.4318(5) 0.4317(9)
S2 S 1.07405(9) 0.49772(12) 0.4001(3)
C13 C 1.1088(3) 0.4255(4) 0.2833(9)
C14 C 1.0776(3) 0.3537(5) 0.2741(10)
H6 H 1.0892 0.3064 0.2154
C15 C 1.0256(3) 0.3586(5) 0.3635(10)
H7 H 0.9996 0.3139 0.3733
C16 C 1.1640(3) 0.4437(4) 0.2052(9)
O3 O 1.1805(2) 0.3987(3) 0.0939(6)
O4 O 1.1921(2) 0.5075(3) 0.2525(7)
C17 C 0.8379(3) 0.3647(5) 0.7251(9)
S3 S 0.84272(8) 0.26136(11) 0.6787(2)
C18 C 0.7870(3) 0.2372(4) 0.8060(9)
C19 C 0.7655(3) 0.3059(5) 0.8762(10)
H8 H 0.7344 0.3051 0.9491
C20 C 0.7937(3) 0.3782(5) 0.8304(9)
H9 H 0.7834 0.4312 0.8683
C21 C 0.7721(3) 0.1507(4) 0.8417(9)
O5 O 0.7363(2) 0.1348(3) 0.9468(6)
O6 O 0.7977(2) 0.0935(3) 0.7637(6)
La1 La 0.765392(17) 0.98339(2) 0.99655(2)
O7 O 0.8736(2) 0.9701(4) 0.9925(7)
C22 C 0.9093(3) 0.9835(5) 0.8850(10)
H10 H 0.9038 1.0309 0.8186
N1 N 0.9536(3) 0.9368(5) 0.8574(9)
C23 C 0.9955(4) 0.9553(9) 0.7355(13)
H11 H 1.0329 0.9663 0.7892
H12 H 0.9831 1.0038 0.6732
H13 H 0.9990 0.9083 0.6617
C24 C 0.9616(5) 0.8589(6) 0.9440(12)
H14 H 0.9331 0.8544 1.0293
H15 H 1.0004 0.8570 0.9935
H16 H 0.9567 0.8132 0.8671
O1A O 0.8078(2) 1.0755(3) 1.2097(6)
O3B O 0.6805(2) 0.8987(3) 1.0939(6)
O4B O 0.6921(2) 1.0075(3) 1.2525(7)
O4C O 0.6921(2) 0.9925(3) 0.7525(7)
O5_2 O 0.7363(2) 1.1348(3) 0.9468(6)
O6_2 O 0.7977(2) 1.0935(3) 0.7637(6)
O6A O 0.7977(2) 0.9065(3) 1.2637(6)
La1_2 La 0.765392(17) -0.01661(2) 0.99655(2)
La1A La 0.765392(17) 0.01661(2) 0.49655(2)
La1A_2 La 0.765392(17) 1.01661(2) 0.49655(2)
La1B La 1.265392(17) 0.48339(2) -0.00345(2)
La1C La 1.265392(17) 0.51661(2) 0.49655(2)
O8 O 0.5232(11) 0.6864(17) 0.820(3)
C25 C 0.5486(5) 0.7535(8) 0.8092(15)
H17 H 0.5366 0.8038 0.8565
N2 N 0.5969(3) 0.7431(5) 0.7180(9)
C26 C 0.6338(5) 0.8147(7) 0.6985(14)
H18 H 0.6443 0.8197 0.5840
H19 H 0.6687 0.8083 0.7669
H20 H 0.6131 0.8643 0.7315
C27 C 0.6100(5) 0.6696(7) 0.6465(14)
H21 H 0.5816 0.6281 0.6767
H22 H 0.6484 0.6519 0.6839
H23 H 0.6093 0.6761 0.5277
O9 O 0.6078(7) 0.3431(11) 0.6936(19)
C28 C 0.6476(5) 0.3284(8) 0.6167(15)
H24 H 0.6639 0.2748 0.6168
N3 N 0.6706(3) 0.3898(5) 0.5259(9)
C29 C 0.7204(6) 0.3774(8) 0.4344(15)
H25 H 0.7510 0.3544 0.5051
H26 H 0.7331 0.4300 0.3896
H27 H 0.7117 0.3390 0.3450
C30 C 0.6461(8) 0.4710(9) 0.531(2)
H28 H 0.6081 0.4707 0.4768
H29 H 0.6713 0.5097 0.4761
H30 H 0.6423 0.4879 0.6453
loop_
_geom_bond_atom_site_label_1
_geom_bond_atom_site_label_2
_geom_bond_site_symmetry_1
_geom_bond_site_symmetry_2
C1 C2 1_555 1_555
C2 H1 1_555 1_555
C3 C2 1_555 1_555
C4 C3 1_555 1_555
H2 C4 1_555 1_555
C5 C4 1_555 1_555
C6 C1 1_555 1_555
H3 C6 1_555 1_555
C7 C1 1_555 1_555
S1 C7 1_555 1_555
C8 S1 1_555 1_555
C9 C8 1_555 1_555
H4 C9 1_555 1_555
C10 C7 1_555 1_555
H5 C10 1_555 1_555
C11 C8 1_555 1_555
O1 C11 1_555 1_555
O2 C11 1_555 1_555
C12 C3 1_555 1_555
S2 C12 1_555 1_555
C13 S2 1_555 1_555
C14 C13 1_555 1_555
H6 C14 1_555 1_555
C15 C12 1_555 1_555
H7 C15 1_555 1_555
C16 C13 1_555 1_555
O3 C16 1_555 1_555
O4 C16 1_555 1_555
C17 C5 1_555 1_555
S3 C17 1_555 1_555
C18 S3 1_555 1_555
C19 C18 1_555 1_555
H8 C19 1_555 1_555
C20 C17 1_555 1_555
H9 C20 1_555 1_555
C21 C18 1_555 1_555
O5 C21 1_555 1_555
O6 C21 1_555 1_555
La1 O1 1_555 1_555
O7 La1 1_555 1_555
C22 O7 1_555 1_555
H10 C22 1_555 1_555
N1 C22 1_555 1_555
C23 N1 1_555 1_555
H11 C23 1_555 1_555
H12 C23 1_555 1_555
H13 C23 1_555 1_555
C24 N1 1_555 1_555
H14 C24 1_555 1_555
H15 C24 1_555 1_555
H16 C24 1_555 1_555
O8 C25 1_555 1_555
C25 H17 1_555 1_555
N2 C25 1_555 1_555
C26 N2 1_555 1_555
H18 C26 1_555 1_555
H19 C26 1_555 1_555
H20 C26 1_555 1_555
C27 N2 1_555 1_555
H21 C27 1_555 1_555
H22 C27 1_555 1_555
H23 C27 1_555 1_555
O9 C28 1_555 1_555
C28 H24 1_555 1_555
N3 C28 1_555 1_555
C29 N3 1_555 1_555
H25 C29 1_555 1_555
H26 C29 1_555 1_555
H27 C29 1_555 1_555
C30 N3 1_555 1_555
H28 C30 1_555 1_555
H29 C30 1_555 1_555
H30 C30 1_555 1_555
O1A La1 1_555 1_555
O3B La1 1_555 1_555
O4B La1 1_555 1_555
O4C La1 1_555 1_555
O5_2 La1 1_555 1_555
O6_2 La1 1_555 1_555
O6A La1 1_555 1_555
La1_2 O5 1_555 1_555
La1A O6 1_555 1_555
La1A_2 O1 1_555 1_555
La1B O3 1_555 1_555
La1C O4 1_555 1_555
C5 C6 1_555 1_555
C9 C10 1_555 1_555
O2 La1 1_555 1_555
C14 C15 1_555 1_555
O4 La1B 1_555 1_555
C19 C20 1_555 1_555
O6 La1_2 1_555 1_555
O4C La1A_2 1_555 1_555
O6_2 La1A_2 1_555 1_555

#END
