
#######################################################################
#
#                 Cambridge Crystallographic Data Centre
#                                CCDC 
#
#######################################################################
#
# If this CIF has been generated from an entry in the Cambridge 
# Structural Database, then it will include bibliographic, chemical, 
# crystal, experimental, refinement or atomic coordinate data resulting 
# from the CCDC's data processing and validation procedures.
#
#######################################################################

data_PIJROR
_chemical_formula_moiety         '(C30 H30 Ce1 N3 O9 S3)n'
_symmetry_cell_setting           monoclinic
_symmetry_space_group_name_H-M   'C c'
_symmetry_Int_Tables_number      9
_space_group_name_Hall           'C -2yc'
loop_
_symmetry_equiv_pos_site_id
_symmetry_equiv_pos_as_xyz
1 x,y,z
2 x,-y,1/2+z
3 1/2+x,1/2+y,z
4 1/2+x,1/2-y,1/2+z
_cell_length_a                   23.293(6)
_cell_length_b                   16.237(4)
_cell_length_c                   8.172(2)
_cell_angle_alpha                90
_cell_angle_beta                 91.277(4)
_cell_angle_gamma                90
_cell_volume                     3089.95
loop_
_atom_site_label
_atom_site_type_symbol
_atom_site_fract_x
_atom_site_fract_y
_atom_site_fract_z
C1 C 0.2928(4) 0.0690(6) 0.9826(12)
C2 C 0.2425(4) 0.0432(6) 1.0588(11)
H1 H 0.2162 0.0831 1.0974
C3 C 0.2306(4) -0.0407(6) 1.0788(11)
C4 C 0.2686(4) -0.0980(6) 1.0176(12)
H2 H 0.2598 -0.1549 1.0275
C5 C 0.3190(4) -0.0752(6) 0.9422(12)
C6 C 0.3309(4) 0.0091(6) 0.9267(13)
H3 H 0.3655 0.0259 0.8771
C7 C 0.3065(4) 0.1577(6) 0.9664(12)
S1 S 0.35913(10) 0.18886(14) 0.8338(3)
C8 C 0.3528(4) 0.2885(6) 0.8983(12)
C9 C 0.3114(4) 0.2974(6) 1.0113(12)
H4 H 0.3014 0.3486 1.0593
C10 C 0.2849(4) 0.2220(6) 1.0493(12)
H5 H 0.2549 0.2169 1.1255
C11 C 0.3903(4) 0.3542(6) 0.8264(13)
O1 O 0.3891(3) 0.4255(4) 0.8896(8)
O2 O 0.4202(3) 0.3384(4) 0.7042(8)
Ce1 Ce 0.43102(2) 0.48345(2) 0.60112(3)
C12 C 0.1792(4) -0.0665(5) 1.1652(11)
S2 S 0.12223(11) -0.00177(15) 1.1969(3)
C13 C 0.0868(4) -0.0737(6) 1.3131(11)
C14 C 0.1181(4) -0.1466(6) 1.3236(12)
H6 H 0.1060 -0.1938 1.3822
C15 C 0.1700(4) -0.1425(6) 1.2374(13)
H7 H 0.1959 -0.1874 1.2298
C16 C 0.0328(4) -0.0552(5) 1.3902(12)
O3 O 0.0155(2) -0.0997(4) 1.5046(8)
O4 O 0.0032(3) 0.0085(4) 1.3418(9)
C17 C 0.3592(4) -0.1363(6) 0.8729(12)
S3 S 0.35383(10) -0.23913(14) 0.9197(3)
C18 C 0.4087(4) -0.2629(6) 0.7953(13)
C19 C 0.4313(4) -0.1948(6) 0.7223(12)
H8 H 0.4624 -0.1964 0.6492
C20 C 0.4031(4) -0.1223(6) 0.7676(12)
H9 H 0.4133 -0.0692 0.7293
C21 C 0.4243(4) -0.3494(5) 0.7589(11)
O5 O 0.4604(3) -0.3656(4) 0.6506(8)
O6 O 0.3991(3) -0.4082(4) 0.8361(8)
O7 O 0.3242(3) 0.4685(5) 0.6059(9)
C22 C 0.2882(5) 0.4835(6) 0.7165(14)
H10 H 0.2939 0.5305 0.7840
N1 N 0.2439(4) 0.4368(6) 0.7405(11)
C23 C 0.2007(6) 0.4601(11) 0.8637(17)
H11 H 0.2129 0.5109 0.9192
H12 H 0.1974 0.4158 0.9443
H13 H 0.1634 0.4690 0.8087
C24 C 0.2367(5) 0.3590(7) 0.6526(14)
H14 H 0.2609 0.3591 0.5559
H15 H 0.1964 0.3525 0.6181
H16 H 0.2480 0.3133 0.7246
O1A O 0.3891(3) 0.5745(4) 0.3896(8)
Ce1_2 Ce 0.43102(2) -0.51655(2) 0.60112(3)
Ce1A Ce 0.43102(2) -0.48345(2) 1.10112(3)
Ce1A_2 Ce 0.43102(2) 0.51655(2) 1.10112(3)
Ce1B Ce -0.06898(2) -0.01655(2) 1.60112(3)
Ce1C Ce -0.06898(2) 0.01655(2) 1.10112(3)
O3B O 0.5155(2) 0.4003(4) 0.5046(8)
O4B O 0.5032(3) 0.5085(4) 0.3418(9)
O4C O 0.5032(3) 0.4915(4) 0.8418(9)
O5_2 O 0.4604(3) 0.6344(4) 0.6506(8)
O6_2 O 0.3991(3) 0.5918(4) 0.8361(8)
O6A O 0.3991(3) 0.4082(4) 0.3361(8)
O8 O 0.1133(13) 0.3870(19) 0.431(3)
C25 C 0.0837(7) 0.3283(10) 0.463(2)
N2 N 0.0999(4) 0.2557(6) 0.3818(12)
C26 C 0.0615(6) 0.1846(9) 0.3994(17)
C27 C 0.1509(7) 0.2512(10) 0.2851(19)
O9 O 0.0960(9) 0.6593(13) 0.408(2)
C28 C 0.0497(7) 0.6732(11) 0.478(2)
N3 N 0.0261(4) 0.6105(6) 0.5744(11)
C29 C -0.0236(8) 0.6189(11) 0.666(2)
C30 C 0.0528(12) 0.5237(15) 0.577(3)
loop_
_geom_bond_atom_site_label_1
_geom_bond_atom_site_label_2
_geom_bond_site_symmetry_1
_geom_bond_site_symmetry_2
C1 C2 1_555 1_555
C2 H1 1_555 1_555
C3 C2 1_555 1_555
C4 C3 1_555 1_555
H2 C4 1_555 1_555
C5 C4 1_555 1_555
C6 C1 1_555 1_555
H3 C6 1_555 1_555
C7 C1 1_555 1_555
S1 C7 1_555 1_555
C8 S1 1_555 1_555
C9 C8 1_555 1_555
H4 C9 1_555 1_555
C10 C7 1_555 1_555
H5 C10 1_555 1_555
C11 C8 1_555 1_555
O1 C11 1_555 1_555
O2 C11 1_555 1_555
Ce1 O1 1_555 1_555
C12 C3 1_555 1_555
S2 C12 1_555 1_555
C13 S2 1_555 1_555
C14 C13 1_555 1_555
H6 C14 1_555 1_555
C15 C12 1_555 1_555
H7 C15 1_555 1_555
C16 C13 1_555 1_555
O3 C16 1_555 1_555
O4 C16 1_555 1_555
C17 C5 1_555 1_555
S3 C17 1_555 1_555
C18 S3 1_555 1_555
C19 C18 1_555 1_555
H8 C19 1_555 1_555
C20 C17 1_555 1_555
H9 C20 1_555 1_555
C21 C18 1_555 1_555
O5 C21 1_555 1_555
O6 C21 1_555 1_555
O7 Ce1 1_555 1_555
C22 O7 1_555 1_555
H10 C22 1_555 1_555
N1 C22 1_555 1_555
C23 N1 1_555 1_555
H11 C23 1_555 1_555
H12 C23 1_555 1_555
H13 C23 1_555 1_555
C24 N1 1_555 1_555
H14 C24 1_555 1_555
H15 C24 1_555 1_555
H16 C24 1_555 1_555
O8 C25 1_555 1_555
C25 N2 1_555 1_555
N2 C26 1_555 1_555
C27 N2 1_555 1_555
O9 C28 1_555 1_555
C28 N3 1_555 1_555
N3 C29 1_555 1_555
C30 N3 1_555 1_555
O1A Ce1 1_555 1_555
Ce1_2 O5 1_555 1_555
Ce1A O6 1_555 1_555
Ce1A_2 O1 1_555 1_555
Ce1B O3 1_555 1_555
Ce1C O4 1_555 1_555
O3B Ce1 1_555 1_555
O4B Ce1 1_555 1_555
O4C Ce1 1_555 1_555
O5_2 Ce1 1_555 1_555
O6_2 Ce1 1_555 1_555
O6A Ce1 1_555 1_555
C5 C6 1_555 1_555
C9 C10 1_555 1_555
O2 Ce1 1_555 1_555
C14 C15 1_555 1_555
O4 Ce1B 1_555 1_555
C19 C20 1_555 1_555
O6 Ce1_2 1_555 1_555
Ce1A_2 O4C 1_555 1_555
Ce1A_2 O6_2 1_555 1_555

#END
