
#######################################################################
#
#                 Cambridge Crystallographic Data Centre
#                                CCDC 
#
#######################################################################
#
# If this CIF has been generated from an entry in the Cambridge 
# Structural Database, then it will include bibliographic, chemical, 
# crystal, experimental, refinement or atomic coordinate data resulting 
# from the CCDC's data processing and validation procedures.
#
#######################################################################

data_JAFPIQ
_chemical_formula_moiety         '(C16 H22 Ag4 F12 N4 O17 S4)n'
_symmetry_cell_setting           triclinic
_symmetry_space_group_name_H-M   'P -1'
_symmetry_Int_Tables_number      2
_space_group_name_Hall           '-P 1'
loop_
_symmetry_equiv_pos_site_id
_symmetry_equiv_pos_as_xyz
1 x,y,z
2 -x,-y,-z
_cell_length_a                   5.7480(10)
_cell_length_b                   17.7940(10)
_cell_length_c                   18.3390(10)
_cell_angle_alpha                95.830(10)
_cell_angle_beta                 98.890(10)
_cell_angle_gamma                95.490(10)
_cell_volume                     1831.72
loop_
_atom_site_label
_atom_site_type_symbol
_atom_site_fract_x
_atom_site_fract_y
_atom_site_fract_z
Ag1 Ag 0.10248(11) 0.55109(4) 0.37965(4)
Ag2 Ag 0.36485(14) 0.42763(5) 0.50033(4)
Ag3 Ag -0.38209(15) 0.03445(5) 0.19056(5)
Ag4 Ag 0.26721(13) 0.94860(5) 0.00600(5)
C1 C 0.5529(14) 0.4578(4) 0.3580(4)
C2 C 0.5837(14) 0.4258(5) 0.2818(4)
H1 H 0.7060(14) 0.3918(5) 0.2867(4)
H2 H 0.6390(14) 0.4672(5) 0.2560(4)
C3 C 0.3642(15) 0.3833(5) 0.2351(4)
H3 H 0.4021(15) 0.3644(5) 0.1873(4)
H4 H 0.2466(15) 0.4184(5) 0.2263(4)
C4 C 0.3963(14) 0.2502(5) 0.2670(4)
H5 H 0.5613(14) 0.2670(5) 0.2872(4)
H6 H 0.3874(14) 0.2286(5) 0.2158(4)
C5 C 0.3021(14) 0.1885(4) 0.3121(5)
H7 H 0.4111(14) 0.1502(4) 0.3159(5)
H8 H 0.2968(14) 0.2115(4) 0.3620(5)
C6 C 0.0603(17) 0.1510(5) 0.2777(5)
C7 C 0.7564(14) 0.9119(5) 0.0804(4)
C8 C 0.8303(16) 0.8329(5) 0.0855(5)
H9 H 0.8298(16) 0.8086(5) 0.0356(5)
H10 H 0.9915(16) 0.8374(5) 0.1120(5)
C9 C 0.6756(18) 0.7826(6) 0.1236(5)
H11 H 0.6852(18) 0.7300(6) 0.1055(5)
H12 H 0.5125(18) 0.7926(6) 0.1101(5)
C10 C 0.5954(14) 0.7379(5) 0.2454(5)
H13 H 0.4313(14) 0.7482(5) 0.2374(5)
H14 H 0.6017(14) 0.6864(5) 0.2232(5)
C11 C 0.6848(18) 0.7442(6) 0.3271(5)
H15 H 0.8512(18) 0.7366(6) 0.3356(5)
H16 H 0.6686(18) 0.7945(6) 0.3502(5)
C12 C 0.5511(16) 0.6879(5) 0.3590(5)
C13 C -0.1263(18) 0.2148(6) 0.4794(5)
C15 C -0.1485(27) 0.5487(7) 0.1255(6)
F1 F -0.2030(11) 0.2119(4) 0.5443(4)
F2 F 0.0988(12) 0.2017(4) 0.4931(4)
F3 F -0.2441(12) 0.1613(3) 0.4308(4)
F7 F -0.2191(16) 0.4788(4) 0.1347(4)
F8 F -0.0363(17) 0.5460(4) 0.0679(4)
F9 F -0.3400(14) 0.5814(5) 0.1067(4)
N1 N 0.2571(10) 0.3171(3) 0.2693(3)
H17 H 0.0999(10) 0.3011(3) 0.2426(3)
H18 H 0.2444(10) 0.3336(3) 0.3198(3)
N2 N -0.1156(14) 0.1191(5) 0.2515(5)
N3 N 0.7404(12) 0.7930(4) 0.2077(4)
H19 H 0.7183(12) 0.8439(4) 0.2259(4)
H20 H 0.9053(12) 0.7870(4) 0.2207(4)
N4 N 0.4452(15) 0.6423(5) 0.3840(4)
S1 S -0.1511(3) 0.30876(12) 0.44983(11)
S3 S 0.0323(4) 0.59860(14) 0.20715(14)
O1 O 0.3491(9) 0.4462(3) 0.3779(3)
O2 O 0.7302(9) 0.4942(3) 0.4005(3)
O3 O 0.5630(10) 0.9262(3) 0.0990(3)
O4 O 0.8901(11) 0.9579(4) 0.0539(4)
O5 O -0.0124(9) 0.3604(3) 0.5109(3)
O6 O -0.3993(9) 0.3147(3) 0.4390(3)
O7 O -0.0490(10) 0.3043(3) 0.3828(3)
O11 O -0.1127(11) 0.5882(4) 0.2634(3)
O12 O 0.0622(10) 0.6761(3) 0.1926(4)
O13 O 0.2513(14) 0.5636(5) 0.2179(5)
O17 O -0.7330(15) 0.0771(5) 0.1278(5)
O2_2 O -0.2698(9) 0.4942(3) 0.4005(3)
O2A O 0.2698(9) 0.5058(3) 0.5995(3)
O3_2 O -0.4370(10) -0.0738(3) 0.0990(3)
O4_2 O -0.1099(11) 0.9579(4) 0.0539(4)
O4A O 0.1099(11) 1.0421(4) -0.0539(4)
Ag1_2 Ag 1.10248(11) 0.55109(4) 0.37965(4)
Ag2A Ag 0.63515(14) 0.57237(5) 0.49967(4)
Ag3_2 Ag 0.61791(15) 1.03445(5) 0.19056(5)
Ag4_2 Ag 1.26721(13) 0.94860(5) 0.00600(5)
Ag4A Ag 0.73279(13) 1.05140(5) -0.00600(5)
C14 C -0.8183(21) -0.3096(6) -0.0368(5)
F4 F -0.8393(12) -0.2804(4) 0.0311(3)
F5 F -0.6222(14) -0.3387(4) -0.0357(4)
F6 F -0.9951(15) -0.3619(5) -0.0610(4)
S2 S -0.8339(5) -0.23301(14) -0.09813(13)
O8 O -0.6469(17) -0.1799(5) -0.0649(5)
O9 O -1.0661(14) -0.2095(5) -0.0948(4)
O10 O -0.8196(10) -0.2718(4) -0.1692(3)
C16 C -0.7271(33) -0.0331(11) 0.3807(10)
F10 F -0.6368(19) 0.0393(7) 0.3844(6)
F11 F -0.5609(15) -0.0624(5) 0.4238(5)
F12 F -0.9079(22) -0.0428(7) 0.3994(6)
S4 S -0.7192(6) -0.0784(2) 0.2858(2)
O14 O -0.4837(16) -0.0702(6) 0.2721(5)
O15 O -0.8773(19) -0.0390(6) 0.2422(6)
O16 O -0.8011(12) -0.1553(4) 0.2885(4)
loop_
_geom_bond_atom_site_label_1
_geom_bond_atom_site_label_2
_geom_bond_site_symmetry_1
_geom_bond_site_symmetry_2
Ag1 N4 1_555 1_555
Ag2 O1 1_555 1_555
Ag3 N2 1_555 1_555
Ag4 O3 1_555 1_555
C1 C2 1_555 1_555
C2 H1 1_555 1_555
H2 C2 1_555 1_555
C3 C2 1_555 1_555
H3 C3 1_555 1_555
H4 C3 1_555 1_555
C4 H5 1_555 1_555
H6 C4 1_555 1_555
C5 C4 1_555 1_555
H7 C5 1_555 1_555
H8 C5 1_555 1_555
C6 C5 1_555 1_555
C7 C8 1_555 1_555
C8 H9 1_555 1_555
H10 C8 1_555 1_555
C9 C8 1_555 1_555
H11 C9 1_555 1_555
H12 C9 1_555 1_555
C10 H13 1_555 1_555
H14 C10 1_555 1_555
C11 C10 1_555 1_555
H15 C11 1_555 1_555
H16 C11 1_555 1_555
C12 C11 1_555 1_555
C13 F1 1_555 1_555
C14 F4 1_555 1_555
C15 F7 1_555 1_555
C16 F10 1_555 1_555
F2 C13 1_555 1_555
F3 C13 1_555 1_555
F5 C14 1_555 1_555
F6 C14 1_555 1_555
F8 C15 1_555 1_555
F9 C15 1_555 1_555
F11 C16 1_555 1_555
F12 C16 1_555 1_555
N1 C3 1_555 1_555
H17 N1 1_555 1_555
H18 N1 1_555 1_555
N2 C6 1_555 1_555
N3 C9 1_555 1_555
H19 N3 1_555 1_555
H20 N3 1_555 1_555
N4 C12 1_555 1_555
S1 C13 1_555 1_555
S2 C14 1_555 1_555
S3 C15 1_555 1_555
S4 C16 1_555 1_555
O1 Ag1 1_555 1_555
O2 C1 1_555 1_555
O3 C7 1_555 1_555
O4 C7 1_555 1_555
O5 Ag2 1_555 1_555
O6 S1 1_555 1_555
O7 S1 1_555 1_555
O8 S2 1_555 1_555
O9 S2 1_555 1_555
O10 S2 1_555 1_555
O11 Ag1 1_555 1_555
O12 S3 1_555 1_555
O13 S3 1_555 1_555
O14 S4 1_555 1_555
O15 S4 1_555 1_555
O16 S4 1_555 1_555
O17 Ag3 1_555 1_555
O2_2 Ag1 1_555 1_555
O2A Ag2 1_555 1_555
O3_2 Ag3 1_555 1_555
O4_2 Ag4 1_555 1_555
O4A Ag4 1_555 1_555
Ag1_2 O2 1_555 1_555
Ag2A O2 1_555 1_555
Ag3_2 O3 1_555 1_555
Ag4_2 O4 1_555 1_555
Ag4A O4 1_555 1_555
C1 O1 1_555 1_555
C4 N1 1_555 1_555
C10 N3 1_555 1_555
S1 O5 1_555 1_555
S3 O11 1_555 1_555

#END
