
#######################################################################
#
#                 Cambridge Crystallographic Data Centre
#                                CCDC 
#
#######################################################################
#
# If this CIF has been generated from an entry in the Cambridge 
# Structural Database, then it will include bibliographic, chemical, 
# crystal, experimental, refinement or atomic coordinate data resulting 
# from the CCDC's data processing and validation procedures.
#
#######################################################################

data_HIHJUF
_chemical_formula_moiety         '(C12 H10 N8 O4 Zn2)n'
_symmetry_cell_setting           trigonal
_symmetry_space_group_name_H-M   'P -3 1 c'
_symmetry_Int_Tables_number      163
_space_group_name_Hall           '-P 3 2c'
loop_
_symmetry_equiv_pos_site_id
_symmetry_equiv_pos_as_xyz
1 x,y,z
2 -y,x-y,z
3 -x+y,-x,z
4 -y,-x,1/2-z
5 x,x-y,1/2-z
6 -x+y,y,1/2-z
7 -x,-y,-z
8 y,-x+y,-z
9 x-y,x,-z
10 y,x,1/2+z
11 -x,-x+y,1/2+z
12 x-y,-y,1/2+z
_cell_length_a                   11.8739(15)
_cell_length_b                   11.8739(15)
_cell_length_c                   25.494(5)
_cell_angle_alpha                90
_cell_angle_beta                 90
_cell_angle_gamma                120
_cell_volume                     3112.83
loop_
_atom_site_label
_atom_site_type_symbol
_atom_site_fract_x
_atom_site_fract_y
_atom_site_fract_z
_atom_site_U_iso_or_equiv
_atom_site_thermal_displace_type
C1 C 0.4071(12) 0.3489(11) 0.1599(3) 0.0748 Uani
C2 C 0.4026(12) 0.2696(10) 0.2060(3) 0.0723 Uani
C3 C 0.3997(15) 0.3135(12) 0.2563(3) 0.0917 Uani
H1 H 0.3983 0.3906 0.2607 0.1100 Uiso
C4 C 0.1655(8) 0.4476(9) 0.0799(3) 0.0554 Uani
C5 C 0.1929(10) 0.4130(12) 0.0018(3) 0.0730 Uani
H2 H 0.2247 0.3935 -0.0281 0.0880 Uiso
C6 C 0.3987(13) 0.1553(10) 0.2002(3) 0.0818 Uani
H3 H 0.3954 0.1225 0.1667 0.0980 Uiso
N1 N 0.0764(11) 0.4601(8) 0.0531(2) 0.0610 Uani
N2 N 0.2423(9) 0.4195(9) 0.0504(2) 0.0713 Uani
N3 N 0.1766(10) 0.4605(11) 0.1331(3) 0.0774 Uani
N4 N 0.0967(7) 0.4366(9) 0.0007(2) 0.0700 Uani
O1 O 0.4127(9) 0.3073(8) 0.1144(2) 0.0889 Uani
O2 O 0.4031(8) 0.4504(8) 0.1658(3) 0.0802 Uani
Zn1 Zn 0.41315(13) 0.42694(12) 0.06271(3) 0.0619 Uani
H4 H 0.244(8) 0.466(7) 0.146(3) 0.0400 Uiso
H5 H 0.131(11) 0.497(10) 0.154(4) 0.0900 Uiso
C1D C 0.4071(12) 0.0582(16) 0.3401(3) 0.0748 Uani
C2D C 0.4026(12) 0.1330(16) 0.2940(3) 0.0723 Uani
C3D C 0.3997(15) 0.0862(19) 0.2437(3) 0.0917 Uani
H1D H 0.3983 0.0077 0.2393 0.1100 Uiso
C6D C 0.3987(13) 0.2434(16) 0.2998(3) 0.0818 Uani
H3D H 0.3954 0.2729 0.3333 0.0980 Uiso
O1D O 0.4127(9) 0.1054(12) 0.3856(2) 0.0889 Uani
O2D O 0.4031(8) -0.0473(11) 0.3342(3) 0.0802 Uani
C4A C 0.5524(9) 0.7179(12) 0.0799(3) 0.0554 Uani
C5A C 0.5870(12) 0.7799(16) 0.0018(3) 0.0730 Uani
H2A H 0.6065 0.8312 -0.0281 0.0880 Uiso
N1A N 0.5399(8) 0.6163(14) 0.0531(2) 0.0610 Uani
N2A N 0.5805(9) 0.8228(13) 0.0504(2) 0.0713 Uani
N3A N 0.5395(11) 0.7161(15) 0.1331(3) 0.0774 Uani
N4A N 0.5634(9) 0.6601(11) 0.0007(2) 0.0700 Uani
Zn1A Zn 0.57306(12) 0.98621(18) 0.06271(3) 0.0619 Uani
H4A H 0.534(7) 0.778(11) 0.146(3) 0.0400 Uiso
H5A H 0.503(10) 0.634(15) 0.154(4) 0.0900 Uiso
N1B N 0.3837(14) 0.9236(11) 0.0531(2) 0.0610 Uani
N4G N 0.4366(9) 0.3399(11) -0.0007(2) 0.0700 Uani
N4H N 0.6601(11) 1.0967(7) -0.0007(2) 0.0700 Uani
O1A O 0.6927(8) 1.1054(12) 0.1144(2) 0.0889 Uani
Zn1B Zn 0.01379(18) 0.58685(13) 0.06271(3) 0.0619 Uani
Zn1D Zn 0.41315(13) -0.01379(18) 0.43729(3) 0.0619 Uani
Zn1F Zn 0.58685(13) 0.57306(12) -0.06271(3) 0.0619 Uani
Zn1H Zn -0.01379(18) 0.41315(13) -0.06271(3) 0.0619 Uani
loop_
_atom_site_aniso_label
_atom_site_aniso_U_11
_atom_site_aniso_U_22
_atom_site_aniso_U_33
_atom_site_aniso_U_23
_atom_site_aniso_U_13
_atom_site_aniso_U_12
C1 0.128(10) 0.086(7) 0.039(4) 0.015(5) -0.006(5) 0.075(8)
C2 0.137(10) 0.075(7) 0.029(4) 0.007(4) -0.005(5) 0.071(7)
C3 0.186(13) 0.111(9) 0.039(4) 0.010(5) 0.002(6) 0.120(10)
C4 0.045(5) 0.080(7) 0.037(4) 0.008(4) 0.007(4) 0.028(5)
C5 0.083(7) 0.137(10) 0.023(4) 0.000(5) 0.000(4) 0.073(7)
C6 0.165(12) 0.061(6) 0.028(4) 0.004(4) 0.003(5) 0.063(7)
N1 0.046 0.108 0.023 -0.006 -0.002 0.034
N2 0.094(6) 0.127(7) 0.030(3) 0.001(4) 0.005(4) 0.083(6)
N3 0.088(7) 0.145(9) 0.027(3) -0.006(4) -0.008(4) 0.079(7)
N4 0.056(5) 0.128(8) 0.026(3) -0.003(4) 0.004(3) 0.046(5)
O1 0.152(8) 0.112(6) 0.032(3) 0.013(4) 0.003(4) 0.088(6)
O2 0.118(6) 0.095(6) 0.058(4) 0.017(4) -0.012(4) 0.076(5)
Zn1 0.1077(10) 0.0963(9) 0.0233(5) 0.0064(5) 0.0034(5) 0.0823(8)
C1D 0.128 0.064 0.039 0.021 0.006 0.053
C2D 0.137 0.07 0.029 0.012 0.005 0.066
C3D 0.186 0.057 0.039 0.008 -0.002 0.066
C6D 0.165 0.1 0.028 0.001 -0.003 0.102
O1D 0.152 0.088 0.032 0.01 -0.003 0.064
O2D 0.118 0.061 0.058 0.029 0.012 0.042
C4A 0.08 0.069 0.037 -0.001 -0.008 0.052
C5A 0.137 0.074 0.023 0 0 0.064
N1A 0.108 0.086 0.023 0.004 0.006 0.074
N2A 0.127 0.055 0.03 0.004 -0.001 0.044
N3A 0.145 0.075 0.027 -0.002 0.006 0.066
N4A 0.128 0.092 0.026 0.007 0.003 0.082
Zn1A 0.0963 0.0394 0.0233 -0.003 -0.0064 0.014
N1B 0.086 0.046 0.023 0.002 -0.004 0.012
N4G 0.128 0.092 0.026 0.007 0.003 0.082
N4H 0.092 0.056 0.026 -0.004 -0.007 0.01
O1A 0.112 0.088 0.032 -0.01 -0.013 0.024
Zn1B 0.0394 0.1077 0.0233 -0.0034 0.003 0.0254
Zn1D 0.1077 0.0394 0.0233 0.003 -0.0034 0.0254
Zn1F 0.1077 0.0963 0.0233 0.0064 0.0034 0.0823
Zn1H 0.0394 0.1077 0.0233 -0.0034 0.003 0.0254
loop_
_geom_bond_atom_site_label_1
_geom_bond_atom_site_label_2
_geom_bond_site_symmetry_1
_geom_bond_site_symmetry_2
C1 C2 1_555 1_555
C2 C3 1_555 1_555
C3 H1 1_555 1_555
C4 N1 1_555 1_555
C5 H2 1_555 1_555
C6 C2 1_555 1_555
H3 C6 1_555 1_555
N1 N4 1_555 1_555
N2 C4 1_555 1_555
N3 C4 1_555 1_555
N4 C5 1_555 1_555
O1 C1 1_555 1_555
O2 C1 1_555 1_555
Zn1 N2 1_555 1_555
H4 N3 1_555 1_555
H5 N3 1_555 1_555
C1D C2D 1_555 1_555
C2D C3D 1_555 1_555
C3D C6 1_555 1_555
H1D C3D 1_555 1_555
C6D C3 1_555 1_555
H3D C6D 1_555 1_555
O1D C1D 1_555 1_555
O2D C1D 1_555 1_555
C4A N1A 1_555 1_555
C5A H2A 1_555 1_555
N1A Zn1 1_555 1_555
N2A C4A 1_555 1_555
N3A C4A 1_555 1_555
N4A C5A 1_555 1_555
Zn1A N2A 1_555 1_555
H4A N3A 1_555 1_555
H5A N3A 1_555 1_555
N1B Zn1A 1_555 1_555
N4G Zn1 1_555 1_555
N4H Zn1A 1_555 1_555
O1A Zn1A 1_555 1_555
Zn1B N1 1_555 1_555
Zn1D O1D 1_555 1_555
Zn1F N4A 1_555 1_555
Zn1H N4 1_555 1_555
C5 N2 1_555 1_555
O1 Zn1 1_555 1_555
C2D C6D 1_555 1_555
C5A N2A 1_555 1_555
N1A N4A 1_555 1_555

#END
