
#######################################################################
#
#                 Cambridge Crystallographic Data Centre
#                                CCDC 
#
#######################################################################
#
# If this CIF has been generated from an entry in the Cambridge 
# Structural Database, then it will include bibliographic, chemical, 
# crystal, experimental, refinement or atomic coordinate data resulting 
# from the CCDC's data processing and validation procedures.
#
#######################################################################

data_OCIZAD
_chemical_formula_moiety         '(C78 H54 Cu2 N8 O15)n'
_symmetry_cell_setting           monoclinic
_symmetry_space_group_name_H-M   'P 21/c'
_symmetry_Int_Tables_number      14
_space_group_name_Hall           '-P 2ybc'
loop_
_symmetry_equiv_pos_site_id
_symmetry_equiv_pos_as_xyz
1 x,y,z
2 -x,1/2+y,1/2-z
3 -x,-y,-z
4 x,1/2-y,1/2+z
_cell_length_a                   26.9695(15)
_cell_length_b                   14.7086(8)
_cell_length_c                   9.9706(6)
_cell_angle_alpha                90
_cell_angle_beta                 98.0810(10)
_cell_angle_gamma                90
_cell_volume                     3915.9
loop_
_atom_site_label
_atom_site_type_symbol
_atom_site_fract_x
_atom_site_fract_y
_atom_site_fract_z
Cu1 Cu 0.0000 0.5000 1.5000
Cu2 Cu -0.5000 1.0000 0.5000
C1 C 0.04429(11) 0.4823(2) 1.2719(4)
C2 C 0.08486(10) 0.4970(2) 1.1851(3)
C3 C 0.12879(10) 0.5418(2) 1.2367(3)
H1 H 0.1323 0.5656 1.3240
C4 C 0.16719(10) 0.5515(2) 1.1605(3)
H2 H 0.1965 0.5816 1.1956
C5 C 0.16180(10) 0.5162(2) 1.0327(3)
C6 C 0.11839(10) 0.4735(2) 0.9773(3)
H3 H 0.1150 0.4508 0.8895
C7 C 0.07973(11) 0.4649(2) 1.0548(4)
H4 H 0.0500 0.4371 1.0178
C8 C 0.24843(10) 0.5161(2) 1.0000(3)
C9 C 0.26517(10) 0.4569(2) 1.1028(3)
H5 H 0.2424 0.4241 1.1456
C10 C 0.31599(10) 0.4460(2) 1.1426(3)
H6 H 0.3272 0.4063 1.2130
C11 C 0.35006(10) 0.4931(2) 1.0796(3)
C12 C 0.40521(10) 0.4786(2) 1.1193(3)
C13 C 0.33272(10) 0.5515(2) 0.9769(3)
H7 H 0.3556 0.5832 0.9330
C14 C 0.28195(10) 0.5648(2) 0.9364(3)
H8 H 0.2708 0.6058 0.8677
C15 C -0.43103(10) 0.9161(2) 0.7157(3)
H9 H -0.4047 0.9494 0.6894
C16 C -0.50280(12) 0.8603(2) 0.7225(4)
H10 H -0.5367 0.8475 0.7008
C17 C -0.47279(12) 0.8251(2) 0.8287(4)
H11 H -0.4818 0.7842 0.8924
C18 C -0.38136(11) 0.8423(2) 0.9111(3)
C19 C -0.37639(13) 0.7654(2) 0.9872(4)
H12 H -0.4035 0.7263 0.9872
C20 C -0.33116(13) 0.7453(2) 1.0646(4)
H13 H -0.3287 0.6932 1.1179
C21 C -0.28964(11) 0.7996(2) 1.0657(3)
C22 C -0.29682(12) 0.8787(2) 0.9924(4)
H14 H -0.2702 0.9191 0.9939
C23 C -0.34188(12) 0.9003(2) 0.9170(3)
H15 H -0.3454 0.9549 0.8697
C24 C -0.23989(12) 0.7740(2) 1.1368(3)
C25 C -0.23291(17) 0.6860(4) 1.1864(6)
H16 H -0.2598 0.6461 1.1823
C26 C -0.18502(17) 0.6582(4) 1.2424(5)
H17 H -0.1798 0.5987 1.2729
C27 C -0.14336(11) 0.7213(2) 1.2534(3)
C28 C -0.15377(19) 0.8065(3) 1.2073(6)
H18 H -0.1280 0.8490 1.2138
C29 C -0.20118(19) 0.8328(3) 1.1508(5)
H19 H -0.2066 0.8925 1.1217
C30 C -0.08122(6) 0.62171(11) 1.38878(17)
H20 H -0.1042 0.5875 1.4287
N1 N -0.03281(6) 0.60713(11) 1.40742(17)
C31 C -0.04937(6) 0.72415(11) 1.26711(17)
H21 H -0.0457 0.7724 1.2090
N2 N -0.47667(8) 0.91728(17) 0.6513(2)
N3 N -0.42650(9) 0.86137(16) 0.8243(3)
N4 N -0.09371(9) 0.69250(17) 1.3046(3)
C32 C -0.01285(12) 0.6719(2) 1.3303(4)
H22 H 0.0210 0.6782 1.3233
O1 O 0.00482(8) 0.44356(16) 1.2206(2)
O2 O 0.05372(7) 0.50993(15) 1.3932(2)
O3 O 0.43161(7) 0.51012(15) 1.0357(2)
O4 O 0.42014(8) 0.4375(2) 1.2244(3)
O5 O 0.19830(7) 0.52700(16) 0.9477(2)
Cu2A Cu 0.5000 0.5000 1.0000
Cu2_2 Cu 0.5000 0.0000 2.5000
Cu2A_2 Cu -0.5000 0.5000 2.0000
C1B C -0.04429(11) 0.5177(2) 1.7281(4)
C2B C -0.08486(10) 0.5030(2) 1.8149(3)
C3B C -0.12879(10) 0.4582(2) 1.7633(3)
H1B H -0.1323 0.4344 1.6760
C4B C -0.16719(10) 0.4485(2) 1.8395(3)
H2B H -0.1965 0.4184 1.8044
C5B C -0.16180(10) 0.4838(2) 1.9673(3)
C6B C -0.11839(10) 0.5265(2) 2.0227(3)
H3B H -0.1150 0.5492 2.1105
C7B C -0.07973(11) 0.5351(2) 1.9452(4)
H4B H -0.0500 0.5629 1.9822
C8B C -0.24843(10) 0.4839(2) 2.0000(3)
C9B C -0.26517(10) 0.5431(2) 1.8972(3)
H5B H -0.2424 0.5759 1.8544
C10B C -0.31599(10) 0.5540(2) 1.8574(3)
H6B H -0.3272 0.5937 1.7870
C11B C -0.35006(10) 0.5069(2) 1.9204(3)
C12B C -0.40521(10) 0.5214(2) 1.8807(3)
C13B C -0.33272(10) 0.4485(2) 2.0231(3)
H7B H -0.3556 0.4168 2.0670
C14B C -0.28195(10) 0.4352(2) 2.0636(3)
H8B H -0.2708 0.3942 2.1323
C15B C 0.43103(10) 0.0839(2) 2.2843(3)
H9B H 0.4047 0.0506 2.3106
C16B C 0.50280(12) 0.1397(2) 2.2775(4)
H10B H 0.5367 0.1525 2.2992
C17B C 0.47279(12) 0.1749(2) 2.1713(4)
H11B H 0.4818 0.2158 2.1076
C18B C 0.38136(11) 0.1577(2) 2.0889(3)
C19B C 0.37639(13) 0.2346(2) 2.0128(4)
H12B H 0.4035 0.2737 2.0128
C20B C 0.33116(13) 0.2547(2) 1.9354(4)
H13B H 0.3287 0.3068 1.8821
C21B C 0.28964(11) 0.2004(2) 1.9343(3)
C22B C 0.29682(12) 0.1213(2) 2.0076(4)
H14B H 0.2702 0.0809 2.0061
C23B C 0.34188(12) 0.0997(2) 2.0830(3)
H15B H 0.3454 0.0451 2.1303
C24B C 0.23989(12) 0.2260(2) 1.8632(3)
C25B C 0.23291(17) 0.3140(4) 1.8136(6)
H16B H 0.2598 0.3539 1.8177
C26B C 0.18502(17) 0.3418(4) 1.7576(5)
H17B H 0.1798 0.4013 1.7271
C27B C 0.14336(11) 0.2787(2) 1.7466(3)
C28B C 0.15377(19) 0.1935(3) 1.7927(6)
H18B H 0.1280 0.1510 1.7862
C29B C 0.20118(19) 0.1672(3) 1.8492(5)
H19B H 0.2066 0.1075 1.8783
C30B C 0.08122(6) 0.37829(11) 1.61122(17)
H20B H 0.1042 0.4125 1.5713
N1B N 0.03281(6) 0.39287(11) 1.59258(17)
C31B C 0.04937(6) 0.27585(11) 1.73289(17)
H21B H 0.0457 0.2276 1.7910
N2B N 0.47667(8) 0.08272(17) 2.3487(2)
N2B_2 N -0.52333(8) 1.08272(17) 0.3487(2)
N3B N 0.42650(9) 0.13863(16) 2.1757(3)
N4B N 0.09371(9) 0.30750(17) 1.6954(3)
C32B C 0.01285(12) 0.3281(2) 1.6697(4)
H22B H -0.0210 0.3218 1.6767
O1B O -0.00482(8) 0.55644(16) 1.7794(2)
O2B O -0.05372(7) 0.49007(15) 1.6068(2)
O3B O -0.43161(7) 0.48988(15) 1.9643(2)
O3A O -0.43161(7) 1.01012(15) 0.4643(2)
O3C O -0.56839(7) 0.98988(15) 0.5357(2)
O4B O -0.42014(8) 0.5625(2) 1.7756(3)
O5B O -0.19830(7) 0.47300(16) 2.0523(2)
C33 C 0.54041(11) 0.3737(2) 1.2837(4)
C34 C 0.58976(10) 0.3562(2) 1.3676(3)
C35 C 0.60188(11) 0.3872(2) 1.4978(3)
H23 H 0.5779 0.4176 1.5394
C36 C 0.64938(11) 0.3739(2) 1.5683(3)
H24 H 0.6574 0.3953 1.6565
C37 C 0.68456(10) 0.3286(2) 1.5066(3)
C38 C 0.67284(11) 0.2950(2) 1.3774(3)
H25 H 0.6965 0.2626 1.3374
C39 C 0.62558(11) 0.3098(2) 1.3076(3)
H26 H 0.6177 0.2883 1.2194
C40 C 0.77407(10) 0.3193(2) 1.5228(3)
C41 C 0.81127(11) 0.2582(2) 1.5635(3)
H27 H 0.8066 0.2136 1.6266
C42 C 0.85606(11) 0.2630(2) 1.5101(3)
H28 H 0.8812 0.2208 1.5367
C43 C 0.91223(11) 0.3336(3) 1.3633(3)
C44 C 0.86373(10) 0.3294(2) 1.4186(3)
C45 C 0.82534(10) 0.3919(2) 1.3792(3)
H29 H 0.8300 0.4374 1.3175
C46 C 0.78074(10) 0.3865(2) 1.4310(3)
H30 H 0.7553 0.4280 1.4042
O6 O 0.53246(8) 0.36120(15) 1.1633(2)
O7 O 0.50706(8) 0.40606(16) 1.3561(2)
H31 H 0.4805 0.4148 1.3067
O8 O 0.91783(7) 0.40788(17) 1.2952(2)
H32 H 0.9450 0.4066 1.2670
O9 O 0.94326(9) 0.27486(18) 1.3800(3)
O10 O 0.73093(7) 0.31381(15) 1.5845(2)
loop_
_geom_bond_atom_site_label_1
_geom_bond_atom_site_label_2
_geom_bond_site_symmetry_1
_geom_bond_site_symmetry_2
Cu1 N1 1_555 1_555
Cu2 N2 1_555 1_555
C1 C2 1_555 1_555
C2 C3 1_555 1_555
C3 H1 1_555 1_555
C4 C3 1_555 1_555
H2 C4 1_555 1_555
C5 C4 1_555 1_555
C6 C5 1_555 1_555
H3 C6 1_555 1_555
C7 C2 1_555 1_555
H4 C7 1_555 1_555
C8 C9 1_555 1_555
C9 H5 1_555 1_555
C10 C9 1_555 1_555
H6 C10 1_555 1_555
C11 C10 1_555 1_555
C12 C11 1_555 1_555
C13 C11 1_555 1_555
H7 C13 1_555 1_555
C14 C8 1_555 1_555
H8 C14 1_555 1_555
C15 H9 1_555 1_555
C16 H10 1_555 1_555
C17 C16 1_555 1_555
H11 C17 1_555 1_555
C18 C19 1_555 1_555
C19 H12 1_555 1_555
C20 C19 1_555 1_555
H13 C20 1_555 1_555
C21 C20 1_555 1_555
C22 C21 1_555 1_555
H14 C22 1_555 1_555
C23 C18 1_555 1_555
H15 C23 1_555 1_555
C24 C21 1_555 1_555
C25 C24 1_555 1_555
H16 C25 1_555 1_555
C26 C25 1_555 1_555
H17 C26 1_555 1_555
C27 C26 1_555 1_555
C28 C27 1_555 1_555
H18 C28 1_555 1_555
C29 C24 1_555 1_555
H19 C29 1_555 1_555
C30 H20 1_555 1_555
N1 C30 1_555 1_555
C31 H21 1_555 1_555
N2 C15 1_555 1_555
N3 C15 1_555 1_555
N4 C27 1_555 1_555
C32 N1 1_555 1_555
H22 C32 1_555 1_555
O1 C1 1_555 1_555
O2 Cu1 1_555 1_555
O3 C12 1_555 1_555
O4 C12 1_555 1_555
O5 C5 1_555 1_555
C33 C34 1_555 1_555
C34 C35 1_555 1_555
C35 H23 1_555 1_555
C36 C35 1_555 1_555
H24 C36 1_555 1_555
C37 C36 1_555 1_555
C38 C37 1_555 1_555
H25 C38 1_555 1_555
C39 C34 1_555 1_555
H26 C39 1_555 1_555
C40 C41 1_555 1_555
C41 H27 1_555 1_555
C42 C41 1_555 1_555
H28 C42 1_555 1_555
C43 C44 1_555 1_555
C44 C42 1_555 1_555
C45 C44 1_555 1_555
H29 C45 1_555 1_555
C46 C40 1_555 1_555
H30 C46 1_555 1_555
O6 C33 1_555 1_555
O7 C33 1_555 1_555
H31 O7 1_555 1_555
O8 C43 1_555 1_555
H32 O8 1_555 1_555
O9 C43 1_555 1_555
O10 C37 1_555 1_555
Cu2A O3 1_555 1_555
Cu2_2 N2B 1_555 1_555
Cu2A_2 O3B 1_555 1_555
C1B C2B 1_555 1_555
C2B C3B 1_555 1_555
C3B H1B 1_555 1_555
C4B C3B 1_555 1_555
H2B C4B 1_555 1_555
C5B C4B 1_555 1_555
C6B C5B 1_555 1_555
H3B C6B 1_555 1_555
C7B C2B 1_555 1_555
H4B C7B 1_555 1_555
C8B C9B 1_555 1_555
C9B H5B 1_555 1_555
C10B C9B 1_555 1_555
H6B C10B 1_555 1_555
C11B C10B 1_555 1_555
C12B C11B 1_555 1_555
C13B C11B 1_555 1_555
H7B C13B 1_555 1_555
C14B C8B 1_555 1_555
H8B C14B 1_555 1_555
C15B H9B 1_555 1_555
C16B H10B 1_555 1_555
C17B C16B 1_555 1_555
H11B C17B 1_555 1_555
C18B C19B 1_555 1_555
C19B H12B 1_555 1_555
C20B C19B 1_555 1_555
H13B C20B 1_555 1_555
C21B C20B 1_555 1_555
C22B C21B 1_555 1_555
H14B C22B 1_555 1_555
C23B C18B 1_555 1_555
H15B C23B 1_555 1_555
C24B C21B 1_555 1_555
C25B C24B 1_555 1_555
H16B C25B 1_555 1_555
C26B C25B 1_555 1_555
H17B C26B 1_555 1_555
C27B C26B 1_555 1_555
C28B C27B 1_555 1_555
H18B C28B 1_555 1_555
C29B C24B 1_555 1_555
H19B C29B 1_555 1_555
C30B H20B 1_555 1_555
N1B Cu1 1_555 1_555
C31B H21B 1_555 1_555
N2B C15B 1_555 1_555
N2B_2 Cu2 1_555 1_555
N3B C15B 1_555 1_555
N4B C27B 1_555 1_555
C32B N1B 1_555 1_555
H22B C32B 1_555 1_555
O1B C1B 1_555 1_555
O2B Cu1 1_555 1_555
O3B C12B 1_555 1_555
O3A Cu2 1_555 1_555
O3C Cu2 1_555 1_555
O4B C12B 1_555 1_555
O5B C5B 1_555 1_555
C1 O2 1_555 1_555
C6 C7 1_555 1_555
C8 O5 1_555 1_555
C13 C14 1_555 1_555
C16 N2 1_555 1_555
C17 N3 1_555 1_555
C18 N3 1_555 1_555
C22 C23 1_555 1_555
C28 C29 1_555 1_555
C30 N4 1_555 1_555
C31 N4 1_555 1_555
C31 C32 1_555 1_555
C38 C39 1_555 1_555
C40 O10 1_555 1_555
C45 C46 1_555 1_555
C1B O2B 1_555 1_555
C6B C7B 1_555 1_555
C8B O5B 1_555 1_555
C13B C14B 1_555 1_555
C16B N2B 1_555 1_555
C17B N3B 1_555 1_555
C18B N3B 1_555 1_555
C22B C23B 1_555 1_555
C28B C29B 1_555 1_555
C30B N1B 1_555 1_555
C30B N4B 1_555 1_555
C31B N4B 1_555 1_555
C31B C32B 1_555 1_555

#END
