
#######################################################################
#
#                 Cambridge Crystallographic Data Centre
#                                CCDC 
#
#######################################################################
#
# If this CIF has been generated from an entry in the Cambridge 
# Structural Database, then it will include bibliographic, chemical, 
# crystal, experimental, refinement or atomic coordinate data resulting 
# from the CCDC's data processing and validation procedures.
#
#######################################################################

data_IKAYAU
_chemical_formula_moiety         '(C48 H40 Eu2 N4 O18)n'
_symmetry_cell_setting           monoclinic
_symmetry_space_group_name_H-M   'P 21/c'
_symmetry_Int_Tables_number      14
_space_group_name_Hall           '-P 2ybc'
loop_
_symmetry_equiv_pos_site_id
_symmetry_equiv_pos_as_xyz
1 x,y,z
2 -x,1/2+y,1/2-z
3 -x,-y,-z
4 x,1/2-y,1/2+z
_cell_length_a                   20.979(4)
_cell_length_b                   11.5989(19)
_cell_length_c                   20.810(3)
_cell_angle_alpha                90
_cell_angle_beta                 110.391(3)
_cell_angle_gamma                90
_cell_volume                     4746.45
loop_
_atom_site_label
_atom_site_type_symbol
_atom_site_fract_x
_atom_site_fract_y
_atom_site_fract_z
Eu1 Eu 0.053766(11) 0.421736(18) 0.445831(10)
Eu2 Eu 0.400915(11) 0.820743(18) 0.463992(11)
O1 O 0.40354(15) 1.0069(2) 0.51050(15)
O2 O 0.49778(15) 1.1134(2) 0.54650(15)
O3 O 0.46577(18) 1.5416(3) 0.56201(17)
O4 O 0.39073(18) 1.6187(3) 0.46924(16)
O5 O 0.12096(15) 0.4274(3) 0.37054(14)
O6 O 0.01892(15) 0.3512(3) 0.32456(14)
O7 O -0.00944(17) 0.0853(3) 0.12598(15)
O8 O 0.04450(16) 0.1212(3) 0.05392(15)
O9 O 0.33508(15) 0.7910(3) 0.53822(15)
O10 O 0.40252(16) 0.8180(3) 0.64663(15)
O11 O 0.11353(15) 0.5817(2) 0.51130(14)
O12 O 0.40576(18) 0.7267(3) 0.35989(17)
O13 O 0.48481(15) 0.7718(3) 0.57639(14)
N1 N 0.17499(19) 0.3413(3) 0.51605(18)
N2 N 0.0700(2) 0.2022(3) 0.44310(19)
N3 N 0.27426(19) 0.8060(3) 0.38939(18)
N4 N 0.35792(18) 0.9648(3) 0.36182(18)
C1 C 0.4344(2) 1.1028(4) 0.5178(2)
C2 C 0.3931(2) 1.2095(3) 0.4905(2)
C3 C 0.3273(2) 1.2020(4) 0.4435(2)
H1 H 0.3076 1.1300 0.4300
C4 C 0.2909(2) 1.3007(4) 0.4165(3)
H2 H 0.2469 1.2951 0.3850
C5 C 0.3199(3) 1.4075(4) 0.4365(2)
H3 H 0.2954 1.4737 0.4177
C6 C 0.3852(2) 1.4174(4) 0.4843(2)
C7 C 0.4215(2) 1.3178(4) 0.5108(2)
H4 H 0.4654 1.3235 0.5425
C8 C 0.4165(3) 1.5337(4) 0.5075(2)
C9 C 0.0755(2) 0.3789(4) 0.3212(2)
C10 C 0.0898(2) 0.3535(4) 0.2564(2)
C11 C 0.1388(3) 0.4153(4) 0.2405(2)
H5 H 0.1637 0.4720 0.2703
C12 C 0.1512(3) 0.3930(4) 0.1804(2)
H6 H 0.1841 0.4347 0.1698
C13 C 0.1141(2) 0.3083(4) 0.1363(2)
H7 H 0.1215 0.2946 0.0954
C14 C 0.0666(2) 0.2442(3) 0.15225(19)
C15 C 0.0535(2) 0.2679(4) 0.21171(19)
H8 H 0.0202 0.2264 0.2218
C16 C 0.0312(2) 0.1444(4) 0.1068(2)
C17 C 0.3462(2) 0.7965(4) 0.6021(2)
C18 C 0.2857(2) 0.7762(4) 0.6247(2)
C19 C 0.2873(2) 0.8196(4) 0.6879(2)
H9 H 0.3263 0.8560 0.7168
C20 C 0.2318(2) 0.8088(4) 0.7076(2)
H10 H 0.2331 0.8395 0.7494
C21 C 0.1738(2) 0.7529(4) 0.6662(2)
H11 H 0.1362 0.7472 0.6799
C22 C 0.1715(2) 0.7051(3) 0.6043(2)
C23 C 0.2280(2) 0.7190(4) 0.5839(2)
H12 H 0.2266 0.6891 0.5420
C24 C 0.1102(2) 0.6374(3) 0.5624(2)
C25 C 0.2261(2) 0.4064(4) 0.5534(2)
H13 H 0.2191 0.4855 0.5542
C26 C 0.2903(3) 0.3627(5) 0.5918(3)
H14 H 0.3247 0.4121 0.6174
C27 C 0.3019(3) 0.2481(5) 0.5913(3)
H15 H 0.3440 0.2178 0.6174
C28 C 0.2503(3) 0.1761(4) 0.5515(2)
C29 C 0.2593(3) 0.0539(5) 0.5454(3)
H16 H 0.3015 0.0208 0.5688
C30 C 0.2085(3) -0.0125(5) 0.5070(3)
H17 H 0.2164 -0.0906 0.5027
C31 C 0.1422(3) 0.0332(4) 0.4722(3)
C32 C 0.0869(3) -0.0343(5) 0.4349(3)
H18 H 0.0921 -0.1134 0.4315
C33 C 0.0250(3) 0.0156(5) 0.4035(3)
H19 H -0.0124 -0.0291 0.3791
C34 C 0.0187(3) 0.1345(4) 0.4084(3)
H20 H -0.0236 0.1680 0.3864
C35 C 0.1320(2) 0.1531(4) 0.4754(2)
C36 C 0.1866(2) 0.2260(4) 0.5142(2)
C37 C 0.3971(3) 1.0398(4) 0.3468(2)
H21 H 0.4437 1.0344 0.3702
C38 C 0.3743(3) 1.1267(5) 0.2986(3)
H22 H 0.4047 1.1777 0.2903
C39 C 0.3065(3) 1.1358(5) 0.2637(3)
H23 H 0.2897 1.1949 0.2320
C40 C 0.2617(3) 1.0556(4) 0.2757(2)
C41 C 0.1898(3) 1.0583(5) 0.2408(3)
H24 H 0.1711 1.1151 0.2081
C42 C 0.1488(3) 0.9809(5) 0.2541(3)
H25 H 0.1022 0.9850 0.2306
C43 C 0.1753(3) 0.8920(4) 0.3039(2)
C44 C 0.1352(3) 0.8047(5) 0.3167(3)
H26 H 0.0886 0.8037 0.2927
C45 C 0.1638(3) 0.7215(5) 0.3637(3)
H27 H 0.1375 0.6629 0.3720
C46 C 0.2336(2) 0.7261(4) 0.3993(2)
H28 H 0.2528 0.6695 0.4319
C47 C 0.2459(2) 0.8877(4) 0.3409(2)
C48 C 0.2900(2) 0.9701(4) 0.3263(2)
O14 O 0.05966(15) 0.6392(3) 0.58137(14)
O7A O 0.00944(17) 0.5853(3) 0.37402(15)
O8C O 0.04450(16) 0.3788(3) 0.55392(15)
O14B O -0.05966(15) 0.3608(3) 0.41863(14)
O2B O 0.50222(15) 0.8866(2) 0.45350(15)
O4_2 O 0.39073(18) 0.6187(3) 0.46924(16)
Eu2B Eu 0.599085(11) 1.179257(18) 0.536008(11)
Eu2_2 Eu 0.400915(11) 1.820743(18) 0.463992(11)
Eu1A Eu -0.053766(11) -0.078264(18) 0.054169(10)
Eu1C Eu 0.053766(11) 0.078264(18) -0.054169(10)
Eu1B Eu -0.053766(11) 0.578264(18) 0.554169(10)
O15 O 0.4705(4) 0.7847(7) 0.2727(3)
O16 O 0.4309(3) 0.0513(4) 0.7051(3)
O17 O 0.3968(4) 0.4901(4) 0.3248(3)
O18 O 0.4514(4) 0.4439(8) 0.6793(4)
loop_
_geom_bond_atom_site_label_1
_geom_bond_atom_site_label_2
_geom_bond_site_symmetry_1
_geom_bond_site_symmetry_2
Eu1 O5 1_555 1_555
Eu2 O1 1_555 1_555
O1 C1 1_555 1_555
O2 C1 1_555 1_555
O3 C8 1_555 1_555
O4 C8 1_555 1_555
O5 C9 1_555 1_555
O6 Eu1 1_555 1_555
O7 C16 1_555 1_555
O8 C16 1_555 1_555
O9 Eu2 1_555 1_555
O10 C17 1_555 1_555
O11 Eu1 1_555 1_555
O12 Eu2 1_555 1_555
O13 Eu2 1_555 1_555
N1 Eu1 1_555 1_555
N2 Eu1 1_555 1_555
N3 Eu2 1_555 1_555
N4 Eu2 1_555 1_555
C1 C2 1_555 1_555
C2 C3 1_555 1_555
C3 H1 1_555 1_555
C4 C3 1_555 1_555
H2 C4 1_555 1_555
C5 C4 1_555 1_555
H3 C5 1_555 1_555
C6 C5 1_555 1_555
C7 C2 1_555 1_555
H4 C7 1_555 1_555
C8 C6 1_555 1_555
C9 O6 1_555 1_555
C10 C9 1_555 1_555
C11 C10 1_555 1_555
H5 C11 1_555 1_555
C12 C11 1_555 1_555
H6 C12 1_555 1_555
C13 C12 1_555 1_555
H7 C13 1_555 1_555
C14 C13 1_555 1_555
C15 C10 1_555 1_555
H8 C15 1_555 1_555
C16 C14 1_555 1_555
C17 O9 1_555 1_555
C18 C17 1_555 1_555
C19 C18 1_555 1_555
H9 C19 1_555 1_555
C20 C19 1_555 1_555
H10 C20 1_555 1_555
C21 C20 1_555 1_555
H11 C21 1_555 1_555
C22 C21 1_555 1_555
C23 C18 1_555 1_555
H12 C23 1_555 1_555
C24 O11 1_555 1_555
C25 N1 1_555 1_555
H13 C25 1_555 1_555
C26 C25 1_555 1_555
H14 C26 1_555 1_555
C27 C26 1_555 1_555
H15 C27 1_555 1_555
C28 C27 1_555 1_555
C29 C28 1_555 1_555
H16 C29 1_555 1_555
C30 C29 1_555 1_555
H17 C30 1_555 1_555
C31 C30 1_555 1_555
C32 C31 1_555 1_555
H18 C32 1_555 1_555
C33 C32 1_555 1_555
H19 C33 1_555 1_555
C34 N2 1_555 1_555
H20 C34 1_555 1_555
C35 N2 1_555 1_555
C36 N1 1_555 1_555
C37 N4 1_555 1_555
H21 C37 1_555 1_555
C38 C37 1_555 1_555
H22 C38 1_555 1_555
C39 C38 1_555 1_555
H23 C39 1_555 1_555
C40 C39 1_555 1_555
C41 C40 1_555 1_555
H24 C41 1_555 1_555
C42 C41 1_555 1_555
H25 C42 1_555 1_555
C43 C42 1_555 1_555
C44 C43 1_555 1_555
H26 C44 1_555 1_555
C45 C44 1_555 1_555
H27 C45 1_555 1_555
C46 N3 1_555 1_555
H28 C46 1_555 1_555
C47 N3 1_555 1_555
C48 N4 1_555 1_555
O14 C24 1_555 1_555
O7A Eu1 1_555 1_555
O8C Eu1 1_555 1_555
O14B Eu1 1_555 1_555
O2B Eu2 1_555 1_555
O4_2 Eu2 1_555 1_555
Eu2B O2 1_555 1_555
Eu2_2 O4 1_555 1_555
Eu1A O7 1_555 1_555
Eu1C O8 1_555 1_555
Eu1B O14 1_555 1_555
C6 C7 1_555 1_555
C14 C15 1_555 1_555
C22 C23 1_555 1_555
C22 C24 1_555 1_555
C28 C36 1_555 1_555
C31 C35 1_555 1_555
C33 C34 1_555 1_555
C35 C36 1_555 1_555
C40 C48 1_555 1_555
C43 C47 1_555 1_555
C45 C46 1_555 1_555
C47 C48 1_555 1_555

#END
