
#######################################################################
#
#                 Cambridge Crystallographic Data Centre
#                                CCDC 
#
#######################################################################
#
# If this CIF has been generated from an entry in the Cambridge 
# Structural Database, then it will include bibliographic, chemical, 
# crystal, experimental, refinement or atomic coordinate data resulting 
# from the CCDC's data processing and validation procedures.
#
#######################################################################

data_HECQUB
_chemical_formula_moiety         '(C18 H12 N14 O2 Zn1)n'
_symmetry_cell_setting           orthorhombic
_symmetry_space_group_name_H-M   'F d d d'
_symmetry_Int_Tables_number      70
_space_group_name_Hall           '-F 2uv 2vw'
loop_
_symmetry_equiv_pos_site_id
_symmetry_equiv_pos_as_xyz
1 x,y,z
2 x,1/2+y,1/2+z
3 x,1/4-y,1/4-z
4 1/2+x,y,1/2+z
5 1/4-x,y,1/4-z
6 1/2+x,1/2+y,z
7 1/4-x,1/4-y,z
8 3/4-x,3/4-y,z
9 3/4-x,y,3/4-z
10 x,3/4-y,3/4-z
11 3/4-x,1/4-y,1/2+z
12 3/4-x,1/2+y,1/4-z
13 1/4-x,3/4-y,1/2+z
14 1/2+x,3/4-y,1/4-z
15 1/4-x,1/2+y,3/4-z
16 1/2+x,1/4-y,3/4-z
17 -x,-y,-z
18 -x,1/2-y,1/2-z
19 -x,3/4+y,3/4+z
20 1/2-x,-y,1/2-z
21 3/4+x,-y,3/4+z
22 1/2-x,1/2-y,-z
23 3/4+x,3/4+y,-z
24 1/4+x,1/4+y,-z
25 1/4+x,-y,1/4+z
26 -x,1/4+y,1/4+z
27 1/4+x,3/4+y,1/2-z
28 1/4+x,1/2-y,3/4+z
29 3/4+x,1/4+y,1/2-z
30 1/2-x,1/4+y,3/4+z
31 3/4+x,1/2-y,1/4+z
32 1/2-x,3/4+y,1/4+z
_cell_length_a                   16.638(5)
_cell_length_b                   20.198(3)
_cell_length_c                   26.273(3)
_cell_angle_alpha                90
_cell_angle_beta                 90
_cell_angle_gamma                90
_cell_volume                     8829.16
loop_
_atom_site_label
_atom_site_type_symbol
_atom_site_fract_x
_atom_site_fract_y
_atom_site_fract_z
_atom_site_U_iso_or_equiv
_atom_site_thermal_displace_type
Zn1 Zn 0.6250 -0.3750 0.1250 0.0473 Uani
N1 N 0.5349(4) -0.4504(3) 0.1258(2) 0.0750 Uani
C1 C 0.5061(4) -0.4862(3) 0.0887(2) 0.0580 Uani
C2 C 0.4997(9) -0.4741(7) 0.1693(3) 0.1500 Uani
N2 N 0.4550(5) -0.5325(4) 0.1055(2) 0.0863 Uani
H1 H 0.5195(4) -0.4802(3) 0.0547(2) 0.0700 Uiso
C3 C 0.4496(9) -0.5239(7) 0.1579(3) 0.1680 Uani
H2 H 0.5092(9) -0.4579(7) 0.2019(3) 0.1800 Uiso
C4 C 0.4138(5) -0.5807(3) 0.0776(2) 0.0670 Uani
H3 H 0.4178(9) -0.5479(7) 0.1804(3) 0.2020 Uiso
N3 N 0.3750 -0.6250 0.1062(3) 0.0903 Uani
N4 N 0.4170(3) -0.5765(2) 0.0280(2) 0.0543 Uani
C5 C 0.3750 -0.6250 0.0023(3) 0.0487 Uani
O1 O 0.3750 -0.6250 -0.0445(2) 0.0637 Uani
C4G C 0.3362(5) -0.6693(3) 0.0776(2) 0.0670 Uani
N2G N 0.2950(5) -0.7175(4) 0.1055(2) 0.0863 Uani
N4G N 0.3330(3) -0.6735(2) 0.0280(2) 0.0543 Uani
C1G C 0.2439(4) -0.7638(3) 0.0887(2) 0.0580 Uani
C3G C 0.3004(9) -0.7261(7) 0.1579(3) 0.1680 Uani
Zn1P Zn 0.3750 -0.6250 -0.1250 0.0473 Uani
N1G N 0.2151(4) -0.7996(3) 0.1258(2) 0.0750 Uani
H1G H 0.2305(4) -0.7698(3) 0.0547(2) 0.0700 Uiso
C2G C 0.2503(9) -0.7759(7) 0.1693(3) 0.1500 Uani
H3G H 0.3322(9) -0.7021(7) 0.1804(3) 0.2020 Uiso
N1V N 0.2849(4) -0.7004(3) -0.1258(2) 0.0750 Uani
N1P N 0.4651(4) -0.5496(3) -0.1258(2) 0.0750 Uani
N1T N 0.2849(4) -0.5496(3) -0.1242(2) 0.0750 Uani
N1R N 0.4651(4) -0.7004(3) -0.1242(2) 0.0750 Uani
O1H O 0.3750 -0.6250 -0.2055(2) 0.0637 Uani
Zn1E Zn 0.1250 -0.8750 0.1250 0.0473 Uani
H2G H 0.2408(9) -0.7921(7) 0.2019(3) 0.1800 Uiso
C1V C 0.2561(4) -0.7362(3) -0.0887(2) 0.0580 Uani
C2V C 0.2497(9) -0.7241(7) -0.1693(3) 0.1500 Uani
O1U O 0.1250 -0.8750 0.0445(2) 0.0637 Uani
N2V N 0.2050(5) -0.7825(4) -0.1055(2) 0.0863 Uani
H1V H 0.2695(4) -0.7302(3) -0.0547(2) 0.0700 Uiso
C3V C 0.1996(9) -0.7739(7) -0.1579(3) 0.1680 Uani
H2V H 0.2592(9) -0.7079(7) -0.2019(3) 0.1800 Uiso
C5U C 0.1250 -0.8750 -0.0023(3) 0.0487 Uani
C4V C 0.1638(5) -0.8307(3) -0.0776(2) 0.0670 Uani
H3V H 0.1678(9) -0.7979(7) -0.1804(3) 0.2020 Uiso
N4V N 0.1670(3) -0.8265(2) -0.0280(2) 0.0543 Uani
N4U N 0.0830(3) -0.9235(2) -0.0280(2) 0.0543 Uani
N3U N 0.1250 -0.8750 -0.1062(3) 0.0903 Uani
C4U C 0.0862(5) -0.9193(3) -0.0776(2) 0.0670 Uani
N2U N 0.0450(5) -0.9675(4) -0.1055(2) 0.0863 Uani
C1U C -0.0061(4) -1.0138(3) -0.0887(2) 0.0580 Uani
C3U C 0.0504(9) -0.9761(7) -0.1579(3) 0.1680 Uani
N1U N -0.0349(4) -1.0496(3) -0.1258(2) 0.0750 Uani
H1U H -0.0195(4) -1.0198(3) -0.0547(2) 0.0700 Uiso
C2U C 0.0003(9) -1.0259(7) -0.1693(3) 0.1500 Uani
H3U H 0.0822(9) -0.9521(7) -0.1804(3) 0.2020 Uiso
Zn1W Zn -0.1250 -1.1250 -0.1250 0.0473 Uani
H2U H -0.0092(9) -1.0421(7) -0.2019(3) 0.1800 Uiso
loop_
_atom_site_aniso_label
_atom_site_aniso_U_11
_atom_site_aniso_U_22
_atom_site_aniso_U_33
_atom_site_aniso_U_23
_atom_site_aniso_U_13
_atom_site_aniso_U_12
Zn1 0.0635 0.0411 0.0372 0 0 0
N1 0.106 0.076 0.043 -0.003 0.007 -0.037
C1 0.079 0.055 0.04 -0.002 0.003 0.016
C2 0.226 0.179 0.045 0.022 0.018 0.142
N2 0.123 0.095 0.041 0.005 0.006 0.058
C3 0.262 0.202 0.04 0.013 0.02 0.166
C4 0.091 0.064 0.046 0.01 0.002 0.024
N3 0.142 0.092 0.037 0 0 0.058
N4 0.072 0.054 0.037 0.001 0.003 0.007
C5 0.062 0.045 0.039 0 0 -0.003
O1 0.095 0.062 0.034 0 0 0.008
C4G 0.091 0.064 0.046 -0.01 -0.002 0.024
N2G 0.123 0.095 0.041 -0.005 -0.006 0.058
N4G 0.072 0.054 0.037 -0.001 -0.003 0.007
C1G 0.079 0.055 0.04 0.002 -0.003 0.016
C3G 0.262 0.202 0.04 -0.013 -0.02 0.166
Zn1P 0.0635 0.0411 0.0372 0 0 0
N1G 0.106 0.076 0.043 -0.003 -0.007 0.037
C2G 0.226 0.179 0.045 -0.022 -0.018 0.142
N1V 0.106 0.076 0.043 -0.003 -0.007 0.037
N1P 0.106 0.076 0.043 0.003 0.007 0.037
N1T 0.106 0.076 0.043 -0.003 0.007 -0.037
N1R 0.106 0.076 0.043 0.003 -0.007 -0.037
O1H 0.095 0.062 0.034 0 0 -0.008
Zn1E 0.0635 0.0411 0.0372 0 0 0
C1V 0.079 0.055 0.04 0.002 -0.003 0.016
C2V 0.226 0.179 0.045 -0.022 -0.018 0.142
O1U 0.095(4) 0.062(3) 0.034(3) 0.000 0.000 0.008(4)
N2V 0.123 0.095 0.041 -0.005 -0.006 0.058
C3V 0.262 0.202 0.04 -0.013 -0.02 0.166
C5U 0.062(4) 0.045(4) 0.039(4) 0.000 0.000 -0.003(4)
C4V 0.091 0.064 0.046 -0.01 -0.002 0.024
N4V 0.072 0.054 0.037 -0.001 -0.003 0.007
N4U 0.072(3) 0.054(3) 0.037(2) 0.001(2) 0.003(2) 0.007(2)
N3U 0.142(9) 0.092(6) 0.037(4) 0.000 0.000 0.058(7)
C4U 0.091(5) 0.064(4) 0.046(3) 0.010(3) 0.002(3) 0.024(3)
N2U 0.123(6) 0.095(5) 0.041(3) 0.005(3) 0.006(3) 0.058(4)
C1U 0.079(4) 0.055(3) 0.040(3) -0.002(2) 0.003(3) 0.016(3)
C3U 0.262(17) 0.202(13) 0.040(4) 0.013(6) 0.020(6) 0.166(13)
N1U 0.106(4) 0.076(3) 0.043(3) 0.003(3) 0.007(3) 0.037(3)
C2U 0.226(14) 0.179(11) 0.045(4) 0.022(5) 0.018(6) 0.142(11)
Zn1W 0.0635(10) 0.0411(8) 0.0372(9) 0.000 0.000 0.000
loop_
_geom_bond_atom_site_label_1
_geom_bond_atom_site_label_2
_geom_bond_site_symmetry_1
_geom_bond_site_symmetry_2
Zn1 N1 1_555 1_555
N1 C1 1_555 1_555
C1 N2 1_555 1_555
C2 N1 1_555 1_555
N2 C3 1_555 1_555
H1 C1 1_555 1_555
C3 C2 1_555 1_555
H2 C2 1_555 1_555
C4 N2 1_555 1_555
H3 C3 1_555 1_555
N3 C4 1_555 1_555
N4 C4 1_555 1_555
C5 N4 1_555 1_555
O1 C5 1_555 1_555
C4G N3 1_555 1_555
N2G C4G 1_555 1_555
N4G C5 1_555 1_555
C1G N2G 1_555 1_555
C3G N2G 1_555 1_555
Zn1P O1 1_555 1_555
N1G C1G 1_555 1_555
H1G C1G 1_555 1_555
C2G C3G 1_555 1_555
H3G C3G 1_555 1_555
N1V Zn1P 1_555 1_555
N1P Zn1P 1_555 1_555
N1T Zn1P 1_555 1_555
N1R Zn1P 1_555 1_555
O1H Zn1P 1_555 1_555
Zn1E N1G 1_555 1_555
H2G C2G 1_555 1_555
C1V N1V 1_555 1_555
C2V N1V 1_555 1_555
O1U Zn1E 1_555 1_555
N2V C1V 1_555 1_555
H1V C1V 1_555 1_555
C3V C2V 1_555 1_555
H2V C2V 1_555 1_555
C5U O1U 1_555 1_555
C4V N2V 1_555 1_555
H3V C3V 1_555 1_555
N4V C5U 1_555 1_555
N4U C5U 1_555 1_555
N3U C4V 1_555 1_555
C4U N4U 1_555 1_555
N2U C4U 1_555 1_555
C1U N2U 1_555 1_555
C3U N2U 1_555 1_555
N1U C1U 1_555 1_555
H1U C1U 1_555 1_555
C2U C3U 1_555 1_555
H3U C3U 1_555 1_555
Zn1W N1U 1_555 1_555
H2U C2U 1_555 1_555
C4G N4G 1_555 1_555
N1G C2G 1_555 1_555
N2V C3V 1_555 1_555
C4V N4V 1_555 1_555
N3U C4U 1_555 1_555
N1U C2U 1_555 1_555

#END
