
#######################################################################
#
#                 Cambridge Crystallographic Data Centre
#                                CCDC 
#
#######################################################################
#
# If this CIF has been generated from an entry in the Cambridge 
# Structural Database, then it will include bibliographic, chemical, 
# crystal, experimental, refinement or atomic coordinate data resulting 
# from the CCDC's data processing and validation procedures.
#
#######################################################################

data_AVITUU
_chemical_formula_moiety         '(C24 H16 B2 Cu1 F8 N4 S1 1-)n'
_symmetry_cell_setting           tetragonal
_symmetry_space_group_name_H-M   'I 41/a m d'
_symmetry_Int_Tables_number      141
_space_group_name_Hall           '-I 4bd 2'
loop_
_symmetry_equiv_pos_site_id
_symmetry_equiv_pos_as_xyz
1 x,y,z
2 1/4-y,3/4+x,1/4+z
3 1/4+y,1/4-x,3/4+z
4 1/4+y,3/4+x,1/4-z
5 1/2+x,1/2+y,1/2+z
6 3/4-y,1/4+x,3/4+z
7 3/4+y,3/4-x,1/4+z
8 3/4+y,1/4+x,3/4-z
9 1/2-x,-y,1/2+z
10 1/2-x,y,1/2-z
11 x,-y,-z
12 1/4-y,1/4-x,3/4-z
13 -x,1/2-y,z
14 -x,1/2+y,-z
15 1/2+x,1/2-y,1/2-z
16 3/4-y,3/4-x,1/4-z
17 -x,-y,-z
18 3/4+y,1/4-x,3/4-z
19 3/4-y,3/4+x,1/4-z
20 3/4-y,1/4-x,3/4+z
21 1/2-x,1/2-y,1/2-z
22 1/4+y,3/4-x,1/4-z
23 1/4-y,1/4+x,3/4-z
24 1/4-y,3/4-x,1/4+z
25 1/2+x,y,1/2-z
26 1/2+x,-y,1/2+z
27 -x,y,z
28 3/4+y,3/4+x,1/4+z
29 x,1/2+y,-z
30 x,1/2-y,z
31 1/2-x,1/2+y,1/2+z
32 1/4+y,1/4+x,3/4+z
_cell_length_a                   22.522(3)
_cell_length_b                   22.522(3)
_cell_length_c                   33.600(4)
_cell_angle_alpha                90
_cell_angle_beta                 90
_cell_angle_gamma                90
_cell_volume                     17043.3
loop_
_atom_site_label
_atom_site_type_symbol
_atom_site_fract_x
_atom_site_fract_y
_atom_site_fract_z
_atom_site_U_iso_or_equiv
_atom_site_thermal_displace_type
B2 B -0.0000 0.2500 0.8750 0.1140 Uani
F3 F 0.0643(3) 0.2500 0.8711(3) 0.0827 Uani
F3G F 0.0000 0.3143(3) 0.8789(3) 0.0827 Uani
F3Z F -0.0643(3) 0.2500 0.8711(3) 0.0827 Uani
F3Q F -0.0000 0.1857(3) 0.8789(3) 0.0827 Uani
Cu1 Cu 0.32392(2) 0.07392(2) 0.6250 0.0340 Uani
N1 N 0.23688(16) 0.08135(17) 0.64243(12) 0.0367 Uani
C1 C 0.2202(2) 0.1139(2) 0.67355(16) 0.0403 Uani
H1 H 0.2505 0.1335 0.6881 0.0480 Uiso
C2 C 0.1633(2) 0.1213(2) 0.68613(15) 0.0443 Uani
H2 H 0.1548 0.1461 0.7083 0.0530 Uiso
C3 C 0.1177(2) 0.0920(2) 0.66610(15) 0.0407 Uani
C4 C 0.1343(2) 0.0576(2) 0.63369(16) 0.0477 Uani
H3 H 0.1048 0.0375 0.6187 0.0570 Uiso
C5 C 0.19282(19) 0.0524(2) 0.62312(15) 0.0420 Uani
H4 H 0.2029 0.0275 0.6013 0.0500 Uiso
C6 C 0.0552(2) 0.0960(2) 0.67830(16) 0.0400 Uani
S1 S -0.0000 0.09321(9) 0.64275(6) 0.0458 Uani
C7 C 0.03207(19) 0.1005(2) 0.71567(15) 0.0343 Uani
C8 C 0.0670(2) 0.0965(2) 0.75313(15) 0.0383 Uani
C9 C 0.0909(3) 0.0440(2) 0.76507(19) 0.0650 Uani
H5 H 0.0876 0.0099 0.7486 0.0780 Uiso
C10 C 0.1203(3) 0.0404(3) 0.80151(17) 0.0660 Uani
H6 H 0.1355 0.0029 0.8095 0.0790 Uiso
N2 N 0.12803(17) 0.08557(17) 0.82541(12) 0.0353 Uani
C11 C 0.1041(2) 0.1369(2) 0.81397(15) 0.0483 Uani
H7 H 0.1073 0.1701 0.8312 0.0580 Uiso
C12 C 0.0744(2) 0.1441(2) 0.77775(17) 0.0547 Uani
H8 H 0.0595 0.1820 0.7703 0.0660 Uiso
C6Z C -0.0552(2) 0.0960(2) 0.67830(16) 0.0400 Uani
C3Z C -0.1177(2) 0.0920(2) 0.66610(15) 0.0407 Uani
C2Z C -0.1633(2) 0.1213(2) 0.68613(15) 0.0443 Uani
C1Z C -0.2202(2) 0.1139(2) 0.67355(16) 0.0403 Uani
N1Z N -0.23688(16) 0.08135(17) 0.64243(12) 0.0367 Uani
C5Z C -0.19282(19) 0.0524(2) 0.62312(15) 0.0420 Uani
C4Z C -0.1343(2) 0.0576(2) 0.63369(16) 0.0477 Uani
H3Z H -0.1048 0.0375 0.6187 0.0570 Uiso
H4Z H -0.2029 0.0275 0.6013 0.0500 Uiso
H1Z H -0.2505 0.1335 0.6881 0.0480 Uiso
H2Z H -0.1548 0.1461 0.7083 0.0530 Uiso
C7Z C -0.03207(19) 0.1005(2) 0.71567(15) 0.0343 Uani
C8Z C -0.0670(2) 0.0965(2) 0.75313(15) 0.0383 Uani
C9Z C -0.0909(3) 0.0440(2) 0.76507(19) 0.0650 Uani
H5Z H -0.0876 0.0099 0.7486 0.0780 Uiso
C10Z C -0.1203(3) 0.0404(3) 0.80151(17) 0.0660 Uani
H6Z H -0.1355 0.0029 0.8095 0.0790 Uiso
N2Z N -0.12803(17) 0.08557(17) 0.82541(12) 0.0353 Uani
C11Z C -0.1041(2) 0.1369(2) 0.81397(15) 0.0483 Uani
H7Z H -0.1073 0.1701 0.8312 0.0580 Uiso
C12Z C -0.0744(2) 0.1441(2) 0.77775(17) 0.0547 Uani
H8Z H -0.0595 0.1820 0.7703 0.0660 Uiso
N1C N 0.33135(17) -0.01312(16) 0.60757(12) 0.0367 Uani
N2B N 0.33557(17) 0.12197(17) 0.57541(12) 0.0353 Uani
N2I N 0.37197(17) 0.08557(17) 0.67459(12) 0.0353 Uani
Cu1Z Cu -0.32392(2) 0.07392(2) 0.6250 0.0340 Uani
Cu1A Cu 0.17608(2) 0.07392(2) 0.8750 0.0340 Uani
Cu1X Cu -0.17608(2) 0.07392(2) 0.8750 0.0340 Uani
B1 B 0.2500 0.2500 0.7500 0.1250 Uiso
F1 F 0.2500 0.1926(3) 0.7500 0.1387 Uani
F2 F 0.2845(6) 0.2500 0.7133(3) 0.2020 Uani
F1CA F 0.2500 0.3074(3) 0.7500 0.1387 Uani
F2T F 0.2155(6) 0.2500 0.7867(3) 0.2020 Uani
loop_
_atom_site_aniso_label
_atom_site_aniso_U_11
_atom_site_aniso_U_22
_atom_site_aniso_U_33
_atom_site_aniso_U_23
_atom_site_aniso_U_13
_atom_site_aniso_U_12
B2 0.126(18) 0.126(18) 0.09(2) 0.000 0.000 0.000
F3 0.108(9) 0.031(5) 0.109(9) 0.000 0.019(8) 0.000
F3G 0.031 0.108 0.109 -0.019 0 0
F3Z 0.108 0.031 0.109 0 -0.019 0
F3Q 0.031 0.108 0.109 0.019 0 0
Cu1 0.0305(3) 0.0305(3) 0.0411(5) -0.0016(3) 0.0016(3) 0.0002(4)
N1 0.031(2) 0.043(3) 0.036(2) -0.013(2) 0.0095(19) -0.003(2)
C1 0.024(3) 0.045(3) 0.052(3) -0.003(3) -0.004(2) -0.004(2)
C2 0.031(3) 0.052(3) 0.050(3) -0.011(3) 0.004(2) -0.008(3)
C3 0.037(3) 0.043(3) 0.042(3) -0.001(3) 0.004(3) -0.001(2)
C4 0.028(3) 0.061(4) 0.054(4) -0.014(3) -0.004(3) -0.009(3)
C5 0.021(3) 0.056(3) 0.049(3) -0.016(3) 0.000(2) -0.002(2)
C6 0.028(3) 0.047(3) 0.045(3) -0.003(3) -0.003(2) 0.001(2)
S1 0.0276(10) 0.0630(13) 0.0468(12) -0.0043(10) 0.000 0.000
C7 0.023(2) 0.035(3) 0.045(3) -0.005(2) 0.006(2) -0.002(2)
C8 0.023(3) 0.045(3) 0.047(3) -0.001(3) 0.001(2) -0.001(2)
C9 0.092(5) 0.024(3) 0.079(5) -0.015(3) -0.025(4) 0.016(3)
C10 0.101(5) 0.039(3) 0.058(4) -0.009(3) -0.037(4) 0.022(4)
N2 0.032(2) 0.031(2) 0.043(2) -0.0065(19) -0.0055(19) -0.0037(18)
C11 0.058(4) 0.038(3) 0.049(3) -0.011(3) -0.015(3) 0.008(3)
C12 0.061(4) 0.036(3) 0.067(4) -0.006(3) -0.025(3) 0.015(3)
C6Z 0.028 0.047 0.045 -0.003 0.003 -0.001
C3Z 0.037 0.043 0.042 -0.001 -0.004 0.001
C2Z 0.031 0.052 0.05 -0.011 -0.004 0.008
C1Z 0.024 0.045 0.052 -0.003 0.004 0.004
N1Z 0.031 0.043 0.036 -0.013 -0.0095 0.003
C5Z 0.021 0.056 0.049 -0.016 0 0.002
C4Z 0.028 0.061 0.054 -0.014 0.004 0.009
C7Z 0.023 0.035 0.045 -0.005 -0.006 0.002
C8Z 0.023 0.045 0.047 -0.001 -0.001 0.001
C9Z 0.092 0.024 0.079 -0.015 0.025 -0.016
C10Z 0.101 0.039 0.058 -0.009 0.037 -0.022
N2Z 0.032 0.031 0.043 -0.0065 0.0055 0.0037
C11Z 0.058 0.038 0.049 -0.011 0.015 -0.008
C12Z 0.061 0.036 0.067 -0.006 0.025 -0.015
N1C 0.043 0.031 0.036 -0.0095 0.013 -0.003
N2B 0.031 0.032 0.043 0.0055 -0.0065 0.0037
N2I 0.032 0.031 0.043 0.0065 -0.0055 0.0037
Cu1Z 0.0305 0.0305 0.0411 -0.0016 -0.0016 -0.0002
Cu1A 0.0305 0.0305 0.0411 0.0016 0.0016 -0.0002
Cu1X 0.0305 0.0305 0.0411 0.0016 -0.0016 0.0002
F1 0.293(15) 0.030(4) 0.093(7) 0.000 -0.109(8) 0.000
F2 0.115(10) 0.251(18) 0.240(17) 0.000 0.036(11) 0.000
F1CA 0.293 0.03 0.093 0 -0.109 0
F2T 0.115 0.251 0.24 0 0.036 0
loop_
_geom_bond_atom_site_label_1
_geom_bond_atom_site_label_2
_geom_bond_site_symmetry_1
_geom_bond_site_symmetry_2
B1 F1 1_555 1_555
F2 B1 1_555 1_555
B2 F3 1_555 1_555
Cu1 N1 1_555 1_555
N1 C1 1_555 1_555
C1 H1 1_555 1_555
C2 C1 1_555 1_555
H2 C2 1_555 1_555
C3 C2 1_555 1_555
C4 C3 1_555 1_555
H3 C4 1_555 1_555
C5 N1 1_555 1_555
H4 C5 1_555 1_555
C6 C3 1_555 1_555
S1 C6 1_555 1_555
C7 C6 1_555 1_555
C8 C7 1_555 1_555
C9 C8 1_555 1_555
H5 C9 1_555 1_555
C10 C9 1_555 1_555
H6 C10 1_555 1_555
N2 C10 1_555 1_555
C11 N2 1_555 1_555
H7 C11 1_555 1_555
C12 C8 1_555 1_555
H8 C12 1_555 1_555
F1CA B1 1_555 1_555
F2T B1 1_555 1_555
F3G B2 1_555 1_555
F3Z B2 1_555 1_555
F3Q B2 1_555 1_555
C6Z S1 1_555 1_555
C3Z C6Z 1_555 1_555
C2Z C3Z 1_555 1_555
C1Z C2Z 1_555 1_555
N1Z C1Z 1_555 1_555
C5Z N1Z 1_555 1_555
C4Z C3Z 1_555 1_555
H3Z C4Z 1_555 1_555
H4Z C5Z 1_555 1_555
H1Z C1Z 1_555 1_555
H2Z C2Z 1_555 1_555
C7Z C7 1_555 1_555
C8Z C7Z 1_555 1_555
C9Z C8Z 1_555 1_555
H5Z C9Z 1_555 1_555
C10Z C9Z 1_555 1_555
H6Z C10Z 1_555 1_555
N2Z C10Z 1_555 1_555
C11Z N2Z 1_555 1_555
H7Z C11Z 1_555 1_555
C12Z C8Z 1_555 1_555
H8Z C12Z 1_555 1_555
N1C Cu1 1_555 1_555
N2B Cu1 1_555 1_555
N2I Cu1 1_555 1_555
Cu1Z N1Z 1_555 1_555
Cu1A N2 1_555 1_555
Cu1X N2Z 1_555 1_555
C4 C5 1_555 1_555
C11 C12 1_555 1_555
C6Z C7Z 1_555 1_555
C5Z C4Z 1_555 1_555
C11Z C12Z 1_555 1_555

#END
