
#######################################################################
#
#                 Cambridge Crystallographic Data Centre
#                                CCDC 
#
#######################################################################
#
# If this CIF has been generated from an entry in the Cambridge 
# Structural Database, then it will include bibliographic, chemical, 
# crystal, experimental, refinement or atomic coordinate data resulting 
# from the CCDC's data processing and validation procedures.
#
#######################################################################

data_AVIVOQ
_chemical_formula_moiety         '(C26 H16 Ag1 N4 O6 S3 1+)n'
_symmetry_cell_setting           tetragonal
_symmetry_space_group_name_H-M   'I 41/a m d'
_symmetry_Int_Tables_number      141
_space_group_name_Hall           '-I 4bd 2'
loop_
_symmetry_equiv_pos_site_id
_symmetry_equiv_pos_as_xyz
1 x,y,z
2 1/4+y,3/4+x,1/4-z
3 1/4+y,1/4-x,3/4+z
4 1/4-y,3/4+x,1/4+z
5 1/2+x,1/2+y,1/2+z
6 3/4+y,1/4+x,3/4-z
7 3/4+y,3/4-x,1/4+z
8 3/4-y,1/4+x,3/4+z
9 -x,1/2-y,z
10 x,-y,-z
11 -x,1/2+y,-z
12 1/4-y,1/4-x,3/4-z
13 1/2-x,-y,1/2+z
14 1/2+x,1/2-y,1/2-z
15 1/2-x,y,1/2-z
16 3/4-y,3/4-x,1/4-z
17 -x,-y,-z
18 3/4-y,1/4-x,3/4+z
19 3/4-y,3/4+x,1/4-z
20 3/4+y,1/4-x,3/4-z
21 1/2-x,1/2-y,1/2-z
22 1/4-y,3/4-x,1/4+z
23 1/4-y,1/4+x,3/4-z
24 1/4+y,3/4-x,1/4-z
25 x,1/2+y,-z
26 -x,y,z
27 x,1/2-y,z
28 3/4+y,3/4+x,1/4+z
29 1/2+x,y,1/2-z
30 1/2-x,1/2+y,1/2+z
31 1/2+x,-y,1/2+z
32 1/4+y,1/4+x,3/4+z
_cell_length_a                   23.166(5)
_cell_length_b                   23.166(5)
_cell_length_c                   34.931(5)
_cell_angle_alpha                90
_cell_angle_beta                 90
_cell_angle_gamma                90
_cell_volume                     18746.2
loop_
_atom_site_label
_atom_site_type_symbol
_atom_site_fract_x
_atom_site_fract_y
_atom_site_fract_z
Ag1 Ag 0.330503(13) 0.080503(13) 0.6250
N1 N 0.23046(15) 0.08597(16) 0.63974(11)
C2 C 0.2134(2) 0.1192(2) 0.66856(14)
H1 H 0.2411 0.1411 0.6813
C3 C 0.1567(2) 0.1232(2) 0.68069(15)
H2 H 0.1468 0.1480 0.7006
C4 C 0.11487(16) 0.09006(19) 0.66313(12)
C5 C 0.13302(19) 0.0556(2) 0.63295(13)
H3 H 0.1066 0.0326 0.6199
C6 C 0.1903(2) 0.0556(2) 0.62231(14)
H4 H 0.2012 0.0328 0.6016
C7 C 0.05376(17) 0.09157(18) 0.67541(12)
S2 S 0.0000 0.08796(7) 0.64076(5)
C8 C 0.03083(16) 0.09648(18) 0.71143(11)
C9 C 0.06440(17) 0.09457(19) 0.74782(11)
C10 C 0.0850(2) 0.0445(2) 0.76174(14)
H5 H 0.0788 0.0102 0.7486
C11 C 0.1159(2) 0.0446(2) 0.79628(15)
H6 H 0.1314 0.0098 0.8046
N2 N 0.12440(15) 0.09043(14) 0.81781(10)
C12 C 0.1036(2) 0.1380(2) 0.80423(14)
H7 H 0.1089 0.1714 0.8185
C13 C 0.0739(3) 0.1428(2) 0.76959(15)
H8 H 0.0606 0.1786 0.7614
N1Y N -0.23046(15) 0.08597(16) 0.63974(11)
C2Y C -0.2134(2) 0.1192(2) 0.66856(14)
H1Y H -0.2411 0.1411 0.6813
C3Y C -0.1567(2) 0.1232(2) 0.68069(15)
H2Y H -0.1468 0.1480 0.7006
C4Y C -0.11487(16) 0.09006(19) 0.66313(12)
C5Y C -0.13302(19) 0.0556(2) 0.63295(13)
H3Y H -0.1066 0.0326 0.6199
C6Y C -0.1903(2) 0.0556(2) 0.62231(14)
H4Y H -0.2012 0.0328 0.6016
C7Y C -0.05376(17) 0.09157(18) 0.67541(12)
C8Y C -0.03083(16) 0.09648(18) 0.71143(11)
C9Y C -0.06440(17) 0.09457(19) 0.74782(11)
C10Y C -0.0850(2) 0.0445(2) 0.76174(14)
H5Y H -0.0788 0.0102 0.7486
C11Y C -0.1159(2) 0.0446(2) 0.79628(15)
H6Y H -0.1314 0.0098 0.8046
N2Y N -0.12440(15) 0.09043(14) 0.81781(10)
C12Y C -0.1036(2) 0.1380(2) 0.80423(14)
H7Y H -0.1089 0.1714 0.8185
C13Y C -0.0739(3) 0.1428(2) 0.76959(15)
H8Y H -0.0606 0.1786 0.7614
Ag1C Ag 0.169497(13) 0.080503(13) 0.8750
Ag1Y Ag -0.330503(13) 0.080503(13) 0.6250
Ag1AA Ag -0.169497(13) 0.080503(13) 0.8750
N1A N 0.33597(16) -0.01954(15) 0.61026(11)
N2B N 0.34043(14) 0.12560(15) 0.56781(10)
N2N N 0.37560(15) 0.09043(14) 0.68219(10)
C1 C 0.22158(19) 0.2500 0.75358(14)
S1 S 0.27842(19) 0.2500 0.74642(14)
O1 O 0.1781(3) 0.2500 0.7268(2)
O2 O 0.2090(4) 0.2500 0.7950(2)
O3 O 0.2500 0.1774(3) 0.7500
O3Z O 0.2500 0.3226(3) 0.7500
C1T C 0.27842(19) 0.2500 0.74642(14)
S1T S 0.22158(19) 0.2500 0.75358(14)
O1T O 0.3219(3) 0.2500 0.7732(2)
O2T O 0.2910(4) 0.2500 0.7050(2)
loop_
_geom_bond_atom_site_label_1
_geom_bond_atom_site_label_2
_geom_bond_site_symmetry_1
_geom_bond_site_symmetry_2
C1 S1 1_555 1_555
S1 O3 1_555 1_555
O1 C1 1_555 1_555
O2 C1 1_555 1_555
O3 S1T 1_555 1_555
Ag1 N1 1_555 1_555
N1 C2 1_555 1_555
C2 H1 1_555 1_555
C3 C2 1_555 1_555
H2 C3 1_555 1_555
C4 C3 1_555 1_555
C5 C4 1_555 1_555
H3 C5 1_555 1_555
C6 N1 1_555 1_555
H4 C6 1_555 1_555
C7 C4 1_555 1_555
S2 C7 1_555 1_555
C8 C7 1_555 1_555
C9 C8 1_555 1_555
C10 C9 1_555 1_555
H5 C10 1_555 1_555
C11 C10 1_555 1_555
H6 C11 1_555 1_555
N2 C11 1_555 1_555
C12 N2 1_555 1_555
H7 C12 1_555 1_555
C13 C9 1_555 1_555
H8 C13 1_555 1_555
O3Z S1 1_555 1_555
C1T C1 1_555 1_555
S1T S1 1_555 1_555
O1T S1 1_555 1_555
O2T S1 1_555 1_555
N1Y C2Y 1_555 1_555
C2Y H1Y 1_555 1_555
C3Y C2Y 1_555 1_555
H2Y C3Y 1_555 1_555
C4Y C3Y 1_555 1_555
C5Y C4Y 1_555 1_555
H3Y C5Y 1_555 1_555
C6Y N1Y 1_555 1_555
H4Y C6Y 1_555 1_555
C7Y S2 1_555 1_555
C8Y C8 1_555 1_555
C9Y C8Y 1_555 1_555
C10Y C9Y 1_555 1_555
H5Y C10Y 1_555 1_555
C11Y C10Y 1_555 1_555
H6Y C11Y 1_555 1_555
N2Y C11Y 1_555 1_555
C12Y N2Y 1_555 1_555
H7Y C12Y 1_555 1_555
C13Y C9Y 1_555 1_555
H8Y C13Y 1_555 1_555
Ag1C N2 1_555 1_555
Ag1Y N1Y 1_555 1_555
Ag1AA N2Y 1_555 1_555
N1A Ag1 1_555 1_555
N2B Ag1 1_555 1_555
N2N Ag1 1_555 1_555
O1 S1T 1_555 1_555
O2 S1T 1_555 1_555
C5 C6 1_555 1_555
C12 C13 1_555 1_555
O3Z S1T 1_555 1_555
C1T S1T 1_555 1_555
C1T O1T 1_555 1_555
C1T O2T 1_555 1_555
C4Y C7Y 1_555 1_555
C5Y C6Y 1_555 1_555
C7Y C8Y 1_555 1_555
C12Y C13Y 1_555 1_555

#END
