
#######################################################################
#
#                 Cambridge Crystallographic Data Centre
#                                CCDC 
#
#######################################################################
#
# If this CIF has been generated from an entry in the Cambridge 
# Structural Database, then it will include bibliographic, chemical, 
# crystal, experimental, refinement or atomic coordinate data resulting 
# from the CCDC's data processing and validation procedures.
#
#######################################################################

data_AVIVAC
_chemical_formula_moiety         '(C24 H16 Ag1 B1 F4 N4 S1)n'
_symmetry_cell_setting           tetragonal
_symmetry_space_group_name_H-M   'I 41/a m d'
_symmetry_Int_Tables_number      141
_space_group_name_Hall           '-I 4bd 2'
loop_
_symmetry_equiv_pos_site_id
_symmetry_equiv_pos_as_xyz
1 x,y,z
2 1/4-y,3/4+x,1/4+z
3 1/4+y,1/4-x,3/4+z
4 1/4+y,3/4+x,1/4-z
5 1/2+x,1/2+y,1/2+z
6 3/4-y,1/4+x,3/4+z
7 3/4+y,3/4-x,1/4+z
8 3/4+y,1/4+x,3/4-z
9 1/2-x,-y,1/2+z
10 1/2-x,y,1/2-z
11 x,-y,-z
12 1/4-y,1/4-x,3/4-z
13 -x,1/2-y,z
14 -x,1/2+y,-z
15 1/2+x,1/2-y,1/2-z
16 3/4-y,3/4-x,1/4-z
17 -x,-y,-z
18 3/4+y,1/4-x,3/4-z
19 3/4-y,3/4+x,1/4-z
20 3/4-y,1/4-x,3/4+z
21 1/2-x,1/2-y,1/2-z
22 1/4+y,3/4-x,1/4-z
23 1/4-y,1/4+x,3/4-z
24 1/4-y,3/4-x,1/4+z
25 1/2+x,y,1/2-z
26 1/2+x,-y,1/2+z
27 -x,y,z
28 3/4+y,3/4+x,1/4+z
29 x,1/2+y,-z
30 x,1/2-y,z
31 1/2-x,1/2+y,1/2+z
32 1/4+y,1/4+x,3/4+z
_cell_length_a                   22.5430(5)
_cell_length_b                   22.5430(5)
_cell_length_c                   35.5167(12)
_cell_angle_alpha                90
_cell_angle_beta                 90
_cell_angle_gamma                90
_cell_volume                     18049.1
loop_
_atom_site_label
_atom_site_type_symbol
_atom_site_fract_x
_atom_site_fract_y
_atom_site_fract_z
_atom_site_U_iso_or_equiv
_atom_site_thermal_displace_type
Ag1 Ag 0.338573(8) 0.088573(8) 0.6250 0.0319 Uani
N1 N 0.23632(10) 0.09176(9) 0.64109(7) 0.0439 Uani
C1 C 0.21900(12) 0.12319(14) 0.67091(8) 0.0530 Uani
H1 H 0.2483 0.1441 0.6848 0.0640 Uiso
C2 C 0.16087(11) 0.12711(14) 0.68276(9) 0.0474 Uani
H2 H 0.1506 0.1514 0.7036 0.0570 Uiso
C3 C 0.11773(10) 0.09512(10) 0.66383(7) 0.0344 Uani
C4 C 0.13575(11) 0.06162(13) 0.63315(8) 0.0450 Uani
H3 H 0.1077 0.0391 0.6192 0.0540 Uiso
C5 C 0.19464(11) 0.06127(14) 0.62305(7) 0.0441 Uani
H4 H 0.2062 0.0379 0.6020 0.0530 Uiso
C6 C 0.05506(10) 0.09613(10) 0.67555(7) 0.0342 Uani
S1 S 0.0000 0.09296(4) 0.64217(3) 0.0372 Uani
C7 C 0.03178(10) 0.10078(10) 0.71134(7) 0.0336 Uani
C8 C 0.06565(10) 0.10069(10) 0.74718(7) 0.0328 Uani
C9 C 0.08374(14) 0.04801(12) 0.76310(9) 0.0549 Uani
H5 H 0.0773 0.0116 0.7503 0.0660 Uiso
C10 C 0.11120(14) 0.04843(12) 0.79768(8) 0.0554 Uani
H6 H 0.1229 0.0115 0.8083 0.0660 Uiso
N2 N 0.12238(9) 0.09776(9) 0.81718(6) 0.0356 Uani
C11 C 0.10661(15) 0.14722(13) 0.80118(9) 0.0563 Uani
H7 H 0.1159 0.1832 0.8138 0.0680 Uiso
C12 C 0.07743(16) 0.15108(13) 0.76721(10) 0.0603 Uani
H8 H 0.0655 0.1886 0.7577 0.0730 Uiso
C6Z C -0.05506(10) 0.09613(10) 0.67555(7) 0.0342 Uani
C3Z C -0.11773(10) 0.09512(10) 0.66383(7) 0.0344 Uani
C2Z C -0.16087(11) 0.12711(14) 0.68276(9) 0.0474 Uani
C1Z C -0.21900(12) 0.12319(14) 0.67091(8) 0.0530 Uani
N1Z N -0.23632(10) 0.09176(9) 0.64109(7) 0.0439 Uani
C5Z C -0.19464(11) 0.06127(14) 0.62305(7) 0.0441 Uani
C4Z C -0.13575(11) 0.06162(13) 0.63315(8) 0.0450 Uani
H3Z H -0.1077 0.0391 0.6192 0.0540 Uiso
H4Z H -0.2062 0.0379 0.6020 0.0530 Uiso
H1Z H -0.2483 0.1441 0.6848 0.0640 Uiso
H2Z H -0.1506 0.1514 0.7036 0.0570 Uiso
C7Z C -0.03178(10) 0.10078(10) 0.71134(7) 0.0336 Uani
C8Z C -0.06565(10) 0.10069(10) 0.74718(7) 0.0328 Uani
C9Z C -0.08374(14) 0.04801(12) 0.76310(9) 0.0549 Uani
H5Z H -0.0773 0.0116 0.7503 0.0660 Uiso
C10Z C -0.11120(14) 0.04843(12) 0.79768(8) 0.0554 Uani
H6Z H -0.1229 0.0115 0.8083 0.0660 Uiso
N2Z N -0.12238(9) 0.09776(9) 0.81718(6) 0.0356 Uani
C11Z C -0.10661(15) 0.14722(13) 0.80118(9) 0.0563 Uani
H7Z H -0.1159 0.1832 0.8138 0.0680 Uiso
C12Z C -0.07743(16) 0.15108(13) 0.76721(10) 0.0603 Uani
H8Z H -0.0655 0.1886 0.7577 0.0730 Uiso
N1C N 0.34176(9) -0.01368(10) 0.60891(7) 0.0439 Uani
Ag1Z Ag -0.338573(8) 0.088573(8) 0.6250 0.0319 Uani
N2B N 0.34776(9) 0.12762(9) 0.56718(6) 0.0356 Uani
N2I N 0.37762(9) 0.09776(9) 0.68282(6) 0.0356 Uani
Ag1A Ag 0.161427(8) 0.088573(8) 0.8750 0.0319 Uani
Ag1X Ag -0.161427(8) 0.088573(8) 0.8750 0.0319 Uani
B1 B 0.2500 0.2500 0.7500 0.1027 Uani
F1 F 0.2500 0.1910(2) 0.7500 0.1250 Uani
F2 F 0.2213(3) 0.2500 0.7880(2) 0.1567 Uani
F1CA F 0.2500 0.3090(2) 0.7500 0.1250 Uani
F2T F 0.2787(3) 0.2500 0.7120(2) 0.1567 Uani
loop_
_atom_site_aniso_label
_atom_site_aniso_U_11
_atom_site_aniso_U_22
_atom_site_aniso_U_33
_atom_site_aniso_U_23
_atom_site_aniso_U_13
_atom_site_aniso_U_12
Ag1 0.03453(14) 0.03453(14) 0.02660(17) -0.00088(6) 0.00088(6) 0.00095(9)
N1 0.0320(11) 0.0572(14) 0.0426(13) -0.0107(10) 0.0030(10) -0.0025(9)
C1 0.0357(13) 0.0700(19) 0.0534(17) -0.0188(15) 0.0058(12) -0.0090(13)
C2 0.0365(14) 0.0601(18) 0.0455(16) -0.0179(14) 0.0029(10) -0.0040(12)
C3 0.0279(11) 0.0420(13) 0.0334(12) -0.0030(9) -0.0014(9) -0.0003(9)
C4 0.0333(13) 0.0563(16) 0.0453(14) -0.0093(13) 0.0042(11) -0.0055(12)
C5 0.0349(13) 0.0582(17) 0.0392(14) -0.0140(12) 0.0044(10) -0.0014(13)
C6 0.0280(11) 0.0427(13) 0.0320(12) -0.0017(9) -0.0047(9) -0.0012(9)
S1 0.0295(4) 0.0518(5) 0.0304(4) -0.0038(3) 0.000 0.000
C7 0.0298(12) 0.0370(12) 0.0340(12) -0.0020(9) 0.0014(9) 0.0016(9)
C8 0.0283(11) 0.0396(12) 0.0305(11) -0.0007(9) 0.0003(9) -0.0016(10)
C9 0.072(2) 0.0415(15) 0.0513(16) -0.0070(12) -0.0231(15) 0.0042(13)
C10 0.079(2) 0.0416(14) 0.0457(16) -0.0017(12) -0.0172(15) 0.0068(14)
N2 0.0344(11) 0.0435(11) 0.0290(10) 0.0007(8) -0.0025(8) 0.0026(8)
C11 0.079(2) 0.0442(15) 0.0458(17) -0.0044(12) -0.0204(15) 0.0058(15)
C12 0.088(2) 0.0431(16) 0.0498(17) 0.0010(13) -0.0247(16) 0.0070(15)
C6Z 0.028 0.0427 0.032 -0.0017 0.0047 0.0012
C3Z 0.0279 0.042 0.0334 -0.003 0.0014 0.0003
C2Z 0.0365 0.0601 0.0455 -0.0179 -0.0029 0.004
C1Z 0.0357 0.07 0.0534 -0.0188 -0.0058 0.009
N1Z 0.032 0.0572 0.0426 -0.0107 -0.003 0.0025
C5Z 0.0349 0.0582 0.0392 -0.014 -0.0044 0.0014
C4Z 0.0333 0.0563 0.0453 -0.0093 -0.0042 0.0055
C7Z 0.0298 0.037 0.034 -0.002 -0.0014 -0.0016
C8Z 0.0283 0.0396 0.0305 -0.0007 -0.0003 0.0016
C9Z 0.072 0.0415 0.0513 -0.007 0.0231 -0.0042
C10Z 0.079 0.0416 0.0457 -0.0017 0.0172 -0.0068
N2Z 0.0344 0.0435 0.029 0.0007 0.0025 -0.0026
C11Z 0.079 0.0442 0.0458 -0.0044 0.0204 -0.0058
C12Z 0.088 0.0431 0.0498 0.001 0.0247 -0.007
N1C 0.0572 0.032 0.0426 -0.003 0.0107 -0.0025
Ag1Z 0.03453 0.03453 0.0266 -0.00088 -0.00088 -0.00095
N2B 0.0435 0.0344 0.029 0.0025 0.0007 -0.0026
N2I 0.0344 0.0435 0.029 -0.0007 -0.0025 -0.0026
Ag1A 0.03453 0.03453 0.0266 0.00088 0.00088 -0.00095
Ag1X 0.03453 0.03453 0.0266 0.00088 -0.00088 0.00095
B1 0.139(11) 0.102(9) 0.067(7) 0.000 -0.004(7) 0.000
F1 0.192(6) 0.090(4) 0.093(4) 0.000 -0.037(4) 0.000
F2 0.177(7) 0.139(5) 0.154(6) 0.000 0.012(5) 0.000
F1CA 0.192 0.09 0.093 0 -0.037 0
F2T 0.177 0.139 0.154 0 0.012 0
loop_
_geom_bond_atom_site_label_1
_geom_bond_atom_site_label_2
_geom_bond_site_symmetry_1
_geom_bond_site_symmetry_2
B1 F1 1_555 1_555
F2 B1 1_555 1_555
Ag1 N1 1_555 1_555
N1 C1 1_555 1_555
C1 H1 1_555 1_555
C2 C1 1_555 1_555
H2 C2 1_555 1_555
C3 C2 1_555 1_555
C4 C3 1_555 1_555
H3 C4 1_555 1_555
C5 N1 1_555 1_555
H4 C5 1_555 1_555
C6 C3 1_555 1_555
S1 C6 1_555 1_555
C7 C6 1_555 1_555
C8 C7 1_555 1_555
C9 C8 1_555 1_555
H5 C9 1_555 1_555
C10 C9 1_555 1_555
H6 C10 1_555 1_555
N2 C10 1_555 1_555
C11 N2 1_555 1_555
H7 C11 1_555 1_555
C12 C8 1_555 1_555
H8 C12 1_555 1_555
F1CA B1 1_555 1_555
F2T B1 1_555 1_555
C6Z S1 1_555 1_555
C3Z C6Z 1_555 1_555
C2Z C3Z 1_555 1_555
C1Z C2Z 1_555 1_555
N1Z C1Z 1_555 1_555
C5Z N1Z 1_555 1_555
C4Z C3Z 1_555 1_555
H3Z C4Z 1_555 1_555
H4Z C5Z 1_555 1_555
H1Z C1Z 1_555 1_555
H2Z C2Z 1_555 1_555
C7Z C7 1_555 1_555
C8Z C7Z 1_555 1_555
C9Z C8Z 1_555 1_555
H5Z C9Z 1_555 1_555
C10Z C9Z 1_555 1_555
H6Z C10Z 1_555 1_555
N2Z C10Z 1_555 1_555
C11Z N2Z 1_555 1_555
H7Z C11Z 1_555 1_555
C12Z C8Z 1_555 1_555
H8Z C12Z 1_555 1_555
N1C Ag1 1_555 1_555
Ag1Z N1Z 1_555 1_555
N2B Ag1 1_555 1_555
N2I Ag1 1_555 1_555
Ag1A N2 1_555 1_555
Ag1X N2Z 1_555 1_555
C4 C5 1_555 1_555
C11 C12 1_555 1_555
C6Z C7Z 1_555 1_555
C5Z C4Z 1_555 1_555
C11Z C12Z 1_555 1_555

#END
