
#######################################################################
#
#                 Cambridge Crystallographic Data Centre
#                                CCDC 
#
#######################################################################
#
# If this CIF has been generated from an entry in the Cambridge 
# Structural Database, then it will include bibliographic, chemical, 
# crystal, experimental, refinement or atomic coordinate data resulting 
# from the CCDC's data processing and validation procedures.
#
#######################################################################

data_GUVKUE
_chemical_formula_moiety         '(C71 H69 I6 N15 O8 Zn3)n'
_symmetry_cell_setting           orthorhombic
_symmetry_space_group_name_H-M   'P b c a'
_symmetry_Int_Tables_number      61
_space_group_name_Hall           '-P 2ac 2ab'
loop_
_symmetry_equiv_pos_site_id
_symmetry_equiv_pos_as_xyz
1 x,y,z
2 1/2-x,-y,1/2+z
3 -x,1/2+y,1/2-z
4 1/2+x,1/2-y,-z
5 -x,-y,-z
6 1/2+x,y,1/2-z
7 x,1/2-y,1/2+z
8 1/2-x,1/2+y,z
_cell_length_a                   27.742(3)
_cell_length_b                   13.8719(15)
_cell_length_c                   44.522(5)
_cell_angle_alpha                90
_cell_angle_beta                 90
_cell_angle_gamma                90
_cell_volume                     17133.6
loop_
_atom_site_label
_atom_site_type_symbol
_atom_site_fract_x
_atom_site_fract_y
_atom_site_fract_z
Zn1 Zn -0.47560(2) -0.11824(4) 0.585150(14)
Zn2 Zn -0.45396(2) 0.64231(4) 0.412300(13)
Zn3 Zn -0.73943(2) 0.18140(4) 0.819890(12)
I1 I -0.493270(14) -0.19570(3) 0.534060(9)
I2 I -0.426790(17) -0.20256(3) 0.625160(13)
I3 I -0.519160(13) 0.55568(3) 0.382980(9)
I4 I -0.443490(14) 0.82418(3) 0.415140(10)
I5 I -0.828330(14) 0.17832(3) 0.834330(9)
I6 I -0.697280(15) 0.34292(2) 0.812520(9)
C1 C -0.45051(19) 0.0573(4) 0.54983(12)
H1 H -0.4650 0.0217 0.5340
C2 C -0.43563(19) 0.1503(4) 0.54406(12)
H2 H -0.4394 0.1778 0.5247
C3 C -0.42496(18) 0.0662(4) 0.59874(12)
H3 H -0.4210 0.0366 0.6178
C4 C -0.40937(18) 0.1596(4) 0.59508(11)
H4 H -0.3951 0.1936 0.6113
C5 C -0.41488(17) 0.2030(3) 0.56741(11)
C6 C -0.40110(17) 0.3057(3) 0.56270(11)
C7 C -0.3005(3) 0.5048(4) 0.65009(13)
H5 H -0.2867 0.4724 0.6668
C8 C -0.3228(3) 0.4506(4) 0.62825(13)
H6 H -0.3246 0.3824 0.6300
C9 C -0.3168(2) 0.6449(3) 0.62542(12)
H7 H -0.3152 0.7132 0.6244
C10 C -0.3396(2) 0.5962(4) 0.60231(12)
H8 H -0.3529 0.6304 0.5858
C11 C -0.34246(18) 0.4968(3) 0.60376(11)
C12 C -0.36756(17) 0.4423(3) 0.57966(11)
C13 C -0.4290(2) 0.6340(4) 0.47768(11)
H9 H -0.4240 0.7013 0.4754
C14 C -0.4157(2) 0.5906(4) 0.50453(12)
H10 H -0.4019 0.6278 0.5203
C15 C -0.45756(18) 0.4898(4) 0.45889(11)
H11 H -0.4731 0.4551 0.4432
C16 C -0.44511(18) 0.4413(4) 0.48485(11)
H12 H -0.4515 0.3744 0.4869
C17 C -0.42296(17) 0.4927(3) 0.50808(11)
C18 C -0.40688(17) 0.4414(3) 0.53565(11)
C19 C -0.88761(18) -0.0634(4) 0.63372(11)
H13 H -0.9170 -0.0539 0.6442
C20 C -0.84487(18) -0.0453(4) 0.64838(11)
H14 H -0.8449 -0.0250 0.6687
C21 C -0.84751(18) -0.1041(4) 0.59018(11)
H15 H -0.8485 -0.1247 0.5698
C22 C -0.80302(17) -0.0860(4) 0.60311(11)
H16 H -0.7741 -0.0929 0.5919
C23 C -0.80191(16) -0.0573(3) 0.63309(10)
C24 C -0.75544(17) -0.0423(3) 0.64892(10)
C25 C -0.58234(18) -0.0939(4) 0.59070(11)
H17 H -0.5818 -0.1119 0.5701
C26 C -0.62687(18) -0.0786(4) 0.60446(11)
H18 H -0.6560 -0.0860 0.5935
C27 C -0.54175(18) -0.0572(4) 0.63419(12)
H19 H -0.5121 -0.0492 0.6446
C28 C -0.58428(19) -0.0406(4) 0.64960(12)
H20 H -0.5838 -0.0214 0.6701
C29 C -0.62778(17) -0.0525(3) 0.63457(11)
C30 C -0.67429(17) -0.0399(3) 0.65006(10)
C31 C -0.6868(2) 0.1055(5) 0.76672(13)
H21 H -0.6598 0.1319 0.7769
C32 C -0.68052(19) 0.0689(4) 0.73839(12)
H22 H -0.6496 0.0691 0.7293
C33 C -0.76731(19) 0.0668(3) 0.76665(11)
H23 H -0.7974 0.0643 0.7768
C34 C -0.76418(17) 0.0296(3) 0.73758(11)
H24 H -0.7918 0.0036 0.7279
C35 C -0.71993(17) 0.0316(3) 0.72324(11)
C36 C -0.71671(16) -0.0019(3) 0.69165(10)
N1 N -0.44550(14) 0.0149(3) 0.57657(10)
N2 N -0.29721(15) 0.6016(3) 0.64890(9)
N3 N -0.44849(14) 0.5847(3) 0.45488(9)
N4 N -0.37471(15) 0.3482(3) 0.58407(9)
N5 N -0.38220(15) 0.4927(3) 0.55574(9)
N6 N -0.41828(16) 0.3484(3) 0.53809(9)
N7 N -0.88929(14) -0.0940(3) 0.60502(9)
N8 N -0.54057(15) -0.0841(3) 0.60519(9)
N9 N -0.72963(16) 0.1056(3) 0.78072(9)
N10 N -0.71434(14) -0.0550(3) 0.63402(9)
N11 N -0.67291(14) -0.0130(3) 0.67923(8)
N12 N -0.75863(14) -0.0163(3) 0.67777(9)
Zn2C Zn -0.95396(2) -0.14231(4) 0.587700(13)
Zn3B Zn -0.26057(2) 0.68140(4) 0.680110(12)
N2B N -0.70279(15) 0.1016(3) 0.85110(9)
N7C N -0.38929(14) 0.5940(3) 0.39498(9)
C37 C -0.1606(4) 0.7613(5) 0.3130(3)
C38 C -0.1276(5) 0.7420(6) 0.2901(3)
H25 H -0.0939 0.7483 0.2937
C39 C -0.1442(6) 0.7137(8) 0.2626(3)
C40 C -0.1912(6) 0.7042(7) 0.2570(3)
H26 H -0.2011 0.6852 0.2374
C41 C -0.2272(6) 0.7216(7) 0.2791(4)
H27 H -0.2606 0.7138 0.2751
C42 C -0.2097(4) 0.7519(6) 0.3083(3)
C43 C -0.2442(4) 0.7720(6) 0.3307(4)
C44 C -0.2932(4) 0.7623(8) 0.3223(5)
H28 H -0.3036 0.7415 0.3030
C45 C -0.3236(8) 0.7865(11) 0.3451(6)
H29 H -0.3570 0.7826 0.3406
C46 C -0.3121(6) 0.8174(9) 0.3755(6)
H30 H -0.3366 0.8328 0.3896
C47 C -0.2610(5) 0.8235(7) 0.3834(5)
H31 H -0.2509 0.8421 0.4029
C48 C -0.2267(4) 0.8005(6) 0.3604(4)
C49 C -0.1752(3) 0.8061(5) 0.3662(3)
C50 C -0.1582(5) 0.8306(6) 0.3954(3)
H32 H -0.1796 0.8415 0.4117
C51 C -0.1123(5) 0.8371(7) 0.3983(4)
H33 H -0.1013 0.8545 0.4178
C52 C -0.0776(4) 0.8228(5) 0.3778(2)
H34 H -0.0445 0.8302 0.3827
C53 C -0.0919(4) 0.7969(5) 0.3490(3)
H35 H -0.0682 0.7849 0.3341
C54 C -0.1431(3) 0.7878(5) 0.3414(2)
C55 C -0.1049(7) 0.6925(10) 0.2377(4)
H36 H -0.1178 0.7156 0.2183
H37 H -0.0763 0.7323 0.2424
N13 N -0.0873(6) 0.5863(11) 0.2331(3)
N14 N -0.0675(5) 0.5601(9) 0.2579(3)
N15 N -0.0486(6) 0.5222(12) 0.2775(3)
C56 C -0.2204(14) -0.305(2) 0.5631(10)
H38 H -0.1857 -0.3065 0.5588
H39 H -0.2376 -0.3449 0.5486
H40 H -0.2262 -0.3289 0.5834
C57 C -0.238(2) -0.204(3) 0.561(2)
C58 C -0.3155(9) -0.1152(17) 0.5666(7)
H41 H -0.3067 -0.0804 0.5479
H42 H -0.3504 -0.1304 0.5658
C59 C -0.3040(11) -0.052(2) 0.5947(7)
H43 H -0.3227 0.0080 0.5937
H44 H -0.2695 -0.0364 0.5950
H45 H -0.3125 -0.0873 0.6129
O1 O -0.2214(10) -0.135(3) 0.5479(9)
O2 O -0.2868(5) -0.2056(11) 0.5692(4)
C60 C -0.3765(6) -0.0416(19) 0.4858(4)
H46 H -0.4029 -0.0819 0.4784
H47 H -0.3818 0.0253 0.4796
H48 H -0.3753 -0.0451 0.5078
C61 C -0.3314(6) -0.0757(19) 0.4736(4)
C62 C -0.2461(6) -0.045(2) 0.4666(6)
H49 H -0.2460 -0.0110 0.4471
H50 H -0.2404 -0.1147 0.4631
C63 C -0.2090(8) -0.003(3) 0.4879(8)
H51 H -0.1767 -0.0147 0.4798
H52 H -0.2120 -0.0345 0.5075
H53 H -0.2145 0.0661 0.4900
O3 O -0.3175(11) -0.167(2) 0.4631(9)
O4 O -0.2906(5) -0.0297(16) 0.4824(4)
C64 C -0.4758(9) 0.484(2) 0.2981(4)
H54 H -0.4615 0.4884 0.3182
H55 H -0.4950 0.4254 0.2965
H56 H -0.4965 0.5405 0.2947
C65 C -0.4371(8) 0.4826(15) 0.2754(3)
C66 C -0.4070(7) 0.482(2) 0.2241(4)
H57 H -0.3918 0.4177 0.2230
H58 H -0.3817 0.5308 0.2279
C67 C -0.4332(8) 0.504(3) 0.1955(3)
H59 H -0.4104 0.5042 0.1787
H60 H -0.4484 0.5680 0.1970
H61 H -0.4581 0.4554 0.1920
O5 O -0.3908(7) 0.5141(15) 0.2823(3)
O6 O -0.4416(6) 0.4845(15) 0.2464(3)
C68 C -0.5584(10) 0.404(3) 0.3072(6)
H62 H -0.5361 0.4128 0.3241
H63 H -0.5906 0.3886 0.3149
H64 H -0.5601 0.4643 0.2956
C69 C -0.5415(9) 0.327(2) 0.2882(6)
C70 C -0.5473(18) 0.211(3) 0.2492(10)
H65 H -0.5644 0.1527 0.2563
H66 H -0.5124 0.2028 0.2531
C71 C -0.556(3) 0.226(5) 0.2161(9)
H67 H -0.5384 0.1763 0.2047
H68 H -0.5446 0.2897 0.2102
H69 H -0.5905 0.2200 0.2119
O7 O -0.4962(7) 0.287(2) 0.2870(5)
O8 O -0.5645(8) 0.292(2) 0.2644(6)
loop_
_geom_bond_atom_site_label_1
_geom_bond_atom_site_label_2
_geom_bond_site_symmetry_1
_geom_bond_site_symmetry_2
Zn1 I1 1_555 1_555
Zn2 I3 1_555 1_555
Zn3 I5 1_555 1_555
I2 Zn1 1_555 1_555
I4 Zn2 1_555 1_555
I6 Zn3 1_555 1_555
C1 H1 1_555 1_555
C2 C1 1_555 1_555
H2 C2 1_555 1_555
C3 H3 1_555 1_555
C4 C3 1_555 1_555
H4 C4 1_555 1_555
C5 C2 1_555 1_555
C6 C5 1_555 1_555
C7 H5 1_555 1_555
C8 C7 1_555 1_555
H6 C8 1_555 1_555
C9 H7 1_555 1_555
C10 C9 1_555 1_555
H8 C10 1_555 1_555
C11 C8 1_555 1_555
C12 C11 1_555 1_555
C13 H9 1_555 1_555
C14 C13 1_555 1_555
H10 C14 1_555 1_555
C15 H11 1_555 1_555
C16 C15 1_555 1_555
H12 C16 1_555 1_555
C17 C14 1_555 1_555
C18 C17 1_555 1_555
C19 H13 1_555 1_555
C20 C19 1_555 1_555
H14 C20 1_555 1_555
C21 H15 1_555 1_555
C22 C21 1_555 1_555
H16 C22 1_555 1_555
C23 C20 1_555 1_555
C24 C23 1_555 1_555
C25 H17 1_555 1_555
C26 C25 1_555 1_555
H18 C26 1_555 1_555
C27 H19 1_555 1_555
C28 C27 1_555 1_555
H20 C28 1_555 1_555
C29 C26 1_555 1_555
C30 C29 1_555 1_555
C31 H21 1_555 1_555
C32 C31 1_555 1_555
H22 C32 1_555 1_555
C33 H23 1_555 1_555
C34 C33 1_555 1_555
H24 C34 1_555 1_555
C35 C32 1_555 1_555
C36 C35 1_555 1_555
N1 Zn1 1_555 1_555
N2 C7 1_555 1_555
N3 Zn2 1_555 1_555
N4 C6 1_555 1_555
N5 C12 1_555 1_555
N6 C6 1_555 1_555
N7 C19 1_555 1_555
N8 Zn1 1_555 1_555
N9 Zn3 1_555 1_555
N10 C24 1_555 1_555
N11 C30 1_555 1_555
N12 C24 1_555 1_555
C37 C38 1_555 1_555
C38 H25 1_555 1_555
C39 C38 1_555 1_555
C40 C39 1_555 1_555
H26 C40 1_555 1_555
C41 C40 1_555 1_555
H27 C41 1_555 1_555
C42 C37 1_555 1_555
C43 C42 1_555 1_555
C44 C43 1_555 1_555
H28 C44 1_555 1_555
C45 C44 1_555 1_555
H29 C45 1_555 1_555
C46 C45 1_555 1_555
H30 C46 1_555 1_555
C47 C46 1_555 1_555
H31 C47 1_555 1_555
C48 C43 1_555 1_555
C49 C48 1_555 1_555
C50 C49 1_555 1_555
H32 C50 1_555 1_555
C51 C50 1_555 1_555
H33 C51 1_555 1_555
C52 C51 1_555 1_555
H34 C52 1_555 1_555
C53 C52 1_555 1_555
H35 C53 1_555 1_555
C54 C37 1_555 1_555
C55 C39 1_555 1_555
H36 C55 1_555 1_555
H37 C55 1_555 1_555
N13 C55 1_555 1_555
N14 N13 1_555 1_555
N15 N14 1_555 1_555
C56 H38 1_555 1_555
H39 C56 1_555 1_555
H40 C56 1_555 1_555
C57 C56 1_555 1_555
C58 H41 1_555 1_555
H42 C58 1_555 1_555
C59 C58 1_555 1_555
H43 C59 1_555 1_555
H44 C59 1_555 1_555
H45 C59 1_555 1_555
O1 C57 1_555 1_555
O2 C57 1_555 1_555
C60 H46 1_555 1_555
H47 C60 1_555 1_555
H48 C60 1_555 1_555
C61 C60 1_555 1_555
C62 H49 1_555 1_555
H50 C62 1_555 1_555
C63 C62 1_555 1_555
H51 C63 1_555 1_555
H52 C63 1_555 1_555
H53 C63 1_555 1_555
O3 C61 1_555 1_555
O4 C61 1_555 1_555
C64 H54 1_555 1_555
H55 C64 1_555 1_555
H56 C64 1_555 1_555
C65 C64 1_555 1_555
C66 H57 1_555 1_555
H58 C66 1_555 1_555
C67 C66 1_555 1_555
H59 C67 1_555 1_555
H60 C67 1_555 1_555
H61 C67 1_555 1_555
O5 C65 1_555 1_555
O6 C65 1_555 1_555
C68 H62 1_555 1_555
H63 C68 1_555 1_555
H64 C68 1_555 1_555
C69 C68 1_555 1_555
C70 H65 1_555 1_555
H66 C70 1_555 1_555
C71 C70 1_555 1_555
H67 C71 1_555 1_555
H68 C71 1_555 1_555
H69 C71 1_555 1_555
O7 C69 1_555 1_555
O8 C69 1_555 1_555
Zn2C N7 1_555 1_555
Zn3B N2 1_555 1_555
N2B Zn3 1_555 1_555
N7C Zn2 1_555 1_555
C1 N1 1_555 1_555
C3 N1 1_555 1_555
C4 C5 1_555 1_555
C9 N2 1_555 1_555
C10 C11 1_555 1_555
C12 N4 1_555 1_555
C13 N3 1_555 1_555
C15 N3 1_555 1_555
C16 C17 1_555 1_555
C18 N5 1_555 1_555
C18 N6 1_555 1_555
C21 N7 1_555 1_555
C22 C23 1_555 1_555
C25 N8 1_555 1_555
C27 N8 1_555 1_555
C28 C29 1_555 1_555
C30 N10 1_555 1_555
C31 N9 1_555 1_555
C33 N9 1_555 1_555
C34 C35 1_555 1_555
C36 N11 1_555 1_555
C36 N12 1_555 1_555
C41 C42 1_555 1_555
C47 C48 1_555 1_555
C49 C54 1_555 1_555
C53 C54 1_555 1_555
C58 O2 1_555 1_555
C62 O4 1_555 1_555
C66 O6 1_555 1_555
C70 O8 1_555 1_555

#END
