
#######################################################################
#
#                 Cambridge Crystallographic Data Centre
#                                CCDC 
#
#######################################################################
#
# If this CIF has been generated from an entry in the Cambridge 
# Structural Database, then it will include bibliographic, chemical, 
# crystal, experimental, refinement or atomic coordinate data resulting 
# from the CCDC's data processing and validation procedures.
#
#######################################################################

data_GUVLAL
_chemical_formula_moiety         '(C71 H65 I6 N15 O2 Zn3)n'
_symmetry_cell_setting           orthorhombic
_symmetry_space_group_name_H-M   'P b c a'
_symmetry_Int_Tables_number      61
_space_group_name_Hall           '-P 2ac 2ab'
loop_
_symmetry_equiv_pos_site_id
_symmetry_equiv_pos_as_xyz
1 x,y,z
2 1/2-x,-y,1/2+z
3 -x,1/2+y,1/2-z
4 1/2+x,1/2-y,-z
5 -x,-y,-z
6 1/2+x,y,1/2-z
7 x,1/2-y,1/2+z
8 1/2-x,1/2+y,z
_cell_length_a                   27.800(3)
_cell_length_b                   13.7287(15)
_cell_length_c                   45.481(5)
_cell_angle_alpha                90
_cell_angle_beta                 90
_cell_angle_gamma                90
_cell_volume                     17358.2
loop_
_atom_site_label
_atom_site_type_symbol
_atom_site_fract_x
_atom_site_fract_y
_atom_site_fract_z
_atom_site_U_iso_or_equiv
_atom_site_thermal_displace_type
Zn1 Zn 0.25609(5) 1.14327(9) 0.18718(3) 0.0440 Uani
Zn2 Zn 0.47300(5) 0.35769(10) 0.08426(3) 0.0450 Uani
Zn3 Zn 0.94336(5) 0.33559(11) 0.07388(3) 0.0478 Uani
I1 I 0.29935(4) 1.30401(6) 0.19643(2) 0.0701 Uani
I2 I 0.16851(4) 1.14615(9) 0.17232(2) 0.0777 Uani
I3 I 0.42074(4) 0.27403(8) 0.12212(3) 0.0819 Uani
I4 I 0.49279(3) 0.28458(7) 0.03423(2) 0.0637 Uani
I5 I 0.93106(4) 0.15483(7) 0.06448(3) 0.0770 Uani
I6 I 1.01118(3) 0.41635(11) 0.10187(3) 0.0877 Uani
C1 C 0.2992(5) 0.9704(8) 0.1571(3) 0.0517 Uani
H1 H 0.2869 0.9350 0.1735 0.0620 Uiso
C2 C 0.3218(5) 0.9189(9) 0.1345(3) 0.0577 Uani
H2 H 0.3259 0.8504 0.1357 0.0690 Uiso
C3 C 0.3117(5) 1.1150(8) 0.1339(3) 0.0520 Uani
H3 H 0.3094 1.1840 0.1337 0.0630 Uiso
C4 C 0.3334(5) 1.0685(8) 0.1104(3) 0.0497 Uani
H4 H 0.3453 1.1051 0.0942 0.0600 Uiso
C5 C 0.3376(4) 0.9692(7) 0.1106(2) 0.0360 Uani
C6 C 0.3602(4) 0.9176(7) 0.0856(2) 0.0350 Uani
C7 C 0.4100(5) 1.1295(8) -0.0123(3) 0.0487 Uani
H5 H 0.4015 1.1964 -0.0134 0.0580 Uiso
C8 C 0.3984(5) 1.0792(9) 0.0127(2) 0.0503 Uani
H6 H 0.3844 1.1117 0.0291 0.0610 Uiso
C9 C 0.4427(6) 0.9945(11) -0.0330(3) 0.0657 Uani
H7 H 0.4586 0.9643 -0.0491 0.0790 Uiso
C10 C 0.4316(5) 0.9382(10) -0.0091(3) 0.0657 Uani
H8 H 0.4405 0.8715 -0.0083 0.0790 Uiso
C11 C 0.4072(4) 0.9806(9) 0.0137(2) 0.0450 Uani
C12 C 0.3938(4) 0.9249(8) 0.0400(2) 0.0390 Uani
C13 C 0.4497(4) 0.5399(8) 0.0512(2) 0.0400 Uani
H9 H 0.4654 0.5073 0.0355 0.0480 Uiso
C14 C 0.4327(4) 0.6345(9) 0.0470(2) 0.0403 Uani
H10 H 0.4380 0.6664 0.0287 0.0490 Uiso
C15 C 0.4212(4) 0.5405(9) 0.0986(2) 0.0457 Uani
H11 H 0.4174 0.5085 0.1170 0.0550 Uiso
C16 C 0.4027(5) 0.6328(9) 0.0953(3) 0.0533 Uani
H12 H 0.3861 0.6631 0.1111 0.0640 Uiso
C17 C 0.4084(4) 0.6814(8) 0.0690(2) 0.0400 Uani
C18 C 0.3933(4) 0.7843(8) 0.0654(3) 0.0393 Uani
C19 C 0.5401(5) 0.4048(12) 0.1337(3) 0.0653 Uani
H13 H 0.5107 0.4105 0.1442 0.0780 Uiso
C20 C 0.5830(4) 0.4162(11) 0.1495(3) 0.0580 Uani
H14 H 0.5829 0.4249 0.1702 0.0700 Uiso
C21 C 0.5775(4) 0.3873(8) 0.0899(3) 0.0413 Uani
H15 H 0.5762 0.3780 0.0692 0.0500 Uiso
C22 C 0.6222(4) 0.4015(8) 0.1036(2) 0.0420 Uani
H16 H 0.6506 0.4025 0.0920 0.0500 Uiso
C23 C 0.6256(4) 0.4141(7) 0.1337(2) 0.0333 Uani
C24 C 0.6725(4) 0.4261(7) 0.1481(2) 0.0303 Uani
C25 C 0.8386(4) 0.3636(8) 0.0839(2) 0.0383 Uani
H17 H 0.8370 0.3422 0.0641 0.0460 Uiso
C26 C 0.7957(4) 0.3800(7) 0.0988(2) 0.0347 Uani
H18 H 0.7657 0.3708 0.0893 0.0420 Uiso
C27 C 0.8824(4) 0.4074(7) 0.1242(2) 0.0360 Uani
H19 H 0.9128 0.4172 0.1333 0.0430 Uiso
C28 C 0.8421(4) 0.4252(7) 0.1401(2) 0.0320 Uani
H20 H 0.8446 0.4481 0.1598 0.0380 Uiso
C29 C 0.7976(4) 0.4099(7) 0.1276(2) 0.0303 Uani
C30 C 0.7535(4) 0.4243(7) 0.1447(2) 0.0313 Uani
C31 C 0.7717(4) 0.5286(7) 0.2606(2) 0.0393 Uani
H21 H 0.8026 0.5292 0.2695 0.0470 Uiso
C32 C 0.7665(4) 0.4923(7) 0.2314(2) 0.0350 Uani
H22 H 0.7937 0.4701 0.2207 0.0420 Uiso
C33 C 0.6915(5) 0.5585(9) 0.2635(3) 0.0527 Uani
H23 H 0.6648 0.5829 0.2743 0.0630 Uiso
C34 C 0.6844(4) 0.5204(8) 0.2353(3) 0.0440 Uani
H24 H 0.6528 0.5158 0.2275 0.0530 Uiso
C35 C 0.7226(4) 0.4899(7) 0.2192(2) 0.0317 Uani
C36 C 0.7174(4) 0.4589(6) 0.1878(2) 0.0273 Uani
N1 N 0.2941(4) 1.0671(6) 0.1568(2) 0.0423 Uani
N2 N 0.4325(3) 1.0897(7) -0.03500(19) 0.0413 Uani
N3 N 0.4442(3) 0.4942(7) 0.0770(2) 0.0393 Uani
N4 N 0.3716(3) 0.9714(6) 0.06237(19) 0.0390 Uani
N5 N 0.4052(3) 0.8295(6) 0.04114(18) 0.0387 Uani
N6 N 0.3702(3) 0.8224(6) 0.0881(2) 0.0357 Uani
N7 N 0.5378(3) 0.3867(7) 0.1052(2) 0.0407 Uani
N8 N 0.8813(3) 0.3763(6) 0.09587(18) 0.0350 Uani
N9 N 0.7345(4) 0.5611(7) 0.27522(19) 0.0410 Uani
N10 N 0.7113(3) 0.4133(6) 0.13150(18) 0.0310 Uani
N11 N 0.7586(3) 0.4468(5) 0.17313(17) 0.0297 Uani
N12 N 0.6735(3) 0.4489(6) 0.17662(19) 0.0340 Uani
Zn1B Zn 0.74391(5) 0.64327(9) 0.31282(3) 0.0440 Uani
Zn3C Zn 0.44336(5) 1.16441(11) -0.07388(3) 0.0478 Uani
N2C N 0.9325(3) 0.4103(7) 0.03500(19) 0.0413 Uani
N9B N 0.2655(4) 1.0611(7) 0.22478(19) 0.0410 Uani
C37 C 0.2213(6) 0.7016(14) 0.3244(3) 0.0810 Uani
C38 C 0.1819(7) 0.7203(14) 0.3068(4) 0.0930 Uani
H25 H 0.1864 0.7437 0.2874 0.1120 Uiso
C39 C 0.1355(6) 0.705(2) 0.3176(5) 0.1300 Uani
C40 C 0.1296(6) 0.6767(16) 0.3467(6) 0.1123 Uani
H26 H 0.0983 0.6746 0.3551 0.1370 Uiso
C41 C 0.1693(7) 0.652(2) 0.3638(4) 0.1060 Uani
H27 H 0.1649 0.6223 0.3825 0.1270 Uiso
C42 C 0.2155(5) 0.670(2) 0.3533(4) 0.0840 Uani
C43 C 0.2561(6) 0.659(4) 0.3711(4) 0.0923 Uani
C44 C 0.2505(8) 0.646(3) 0.4013(4) 0.1093 Uani
H28 H 0.2196 0.6519 0.4101 0.1310 Uiso
C45 C 0.2906(10) 0.6262(19) 0.4186(4) 0.1127 Uani
H29 H 0.2869 0.6021 0.4380 0.1340 Uiso
C46 C 0.3365(9) 0.642(8) 0.4070(6) 0.1247 Uani
H30 H 0.3636 0.6430 0.4197 0.1510 Uiso
C47 C 0.3423(6) 0.655(3) 0.3769(5) 0.1250 Uani
H31 H 0.3736 0.6568 0.3686 0.1510 Uiso
C48 C 0.3018(6) 0.6668(18) 0.3590(4) 0.0950 Uani
C49 C 0.3073(6) 0.691(3) 0.3294(4) 0.1133 Uani
C50 C 0.3529(6) 0.700(3) 0.3171(6) 0.1393 Uani
H32 H 0.3806 0.6856 0.3286 0.1650 Uiso
C51 C 0.3580(9) 0.728(4) 0.2879(6) 0.1507 Uani
H33 H 0.3891 0.7344 0.2796 0.1790 Uiso
C52 C 0.3175(11) 0.747(4) 0.2708(6) 0.1547 Uani
H34 H 0.3211 0.7655 0.2508 0.1860 Uiso
C53 C 0.2718(9) 0.738(3) 0.2831(4) 0.1243 Uani
H35 H 0.2442 0.7547 0.2719 0.1480 Uiso
C54 C 0.2669(6) 0.705(3) 0.3120(4) 0.1137 Uani
C55 C 0.0996(14) 0.719(2) 0.2923(8) 0.1933 Uani
H36 H 0.1138 0.6945 0.2738 0.2310 Uiso
H37 H 0.0700 0.6820 0.2964 0.2310 Uiso
C56 C 0.0458(10) 0.956(3) 0.2972(5) 0.2200 Uani
C57 C 0.0467(11) 0.858(3) 0.3004(5) 0.2033 Uani
H38 H 0.0222 0.8199 0.3094 0.2420 Uiso
C58 C 0.0090(10) 1.027(2) 0.3064(9) 0.2500 Uani
C59 C -0.0722(10) 1.052(3) 0.3198(9) 0.1733 Uani
H39 H -0.1006 1.0143 0.3253 0.2590 Uiso
H40 H -0.0792 1.0901 0.3020 0.2590 Uiso
H41 H -0.0637 1.0966 0.3359 0.2590 Uiso
N13 N 0.0876(13) 0.8225(19) 0.2888(8) 0.1933 Uani
N14 N 0.1145(10) 0.901(3) 0.2801(9) 0.1967 Uani
N15 N 0.0889(13) 0.981(2) 0.2845(9) 0.1967 Uani
O1 O 0.0130(13) 1.117(2) 0.3021(10) 0.3667 Uani
O2 O -0.0325(11) 0.987(2) 0.3142(7) 0.2300 Uani
C60 C 0.1528(7) 0.3116(16) 0.4769(4) 0.0990 Uani
H42 H 0.1225 0.2891 0.4862 0.1190 Uiso
H43 H 0.1520 0.2928 0.4559 0.1190 Uiso
C61 C 0.1562(7) 0.4233(18) 0.4794(4) 0.1033 Uani
H44 H 0.1295 0.4528 0.4681 0.1240 Uiso
H45 H 0.1522 0.4421 0.5003 0.1240 Uiso
C62 C 0.2021(7) 0.4628(19) 0.4685(5) 0.1170 Uani
H46 H 0.2035 0.5334 0.4729 0.1400 Uiso
H47 H 0.2035 0.4549 0.4469 0.1400 Uiso
C63 C 0.2451(8) 0.413(2) 0.4822(4) 0.1177 Uani
H48 H 0.2458 0.4264 0.5036 0.1420 Uiso
H49 H 0.2751 0.4392 0.4734 0.1420 Uiso
C64 C 0.2427(8) 0.303(2) 0.4771(5) 0.1287 Uani
H50 H 0.2418 0.2897 0.4557 0.1530 Uiso
H51 H 0.2716 0.2717 0.4854 0.1530 Uiso
C65 C 0.1962(7) 0.261(2) 0.4921(5) 0.1323 Uani
H52 H 0.1963 0.2761 0.5135 0.1590 Uiso
H53 H 0.1945 0.1900 0.4895 0.1590 Uiso
C66 C 0.2699(9) 0.167(2) 0.5896(6) 0.1383 Uani
H54 H 0.2381 0.1702 0.5994 0.1660 Uiso
H55 H 0.2948 0.1846 0.6043 0.1660 Uiso
C67 C 0.2713(11) 0.239(3) 0.5640(7) 0.1633 Uani
H56 H 0.2427 0.2287 0.5514 0.1980 Uiso
H57 H 0.2696 0.3064 0.5718 0.1980 Uiso
C68 C 0.3108(11) 0.229(2) 0.5479(7) 0.1633 Uani
H58 H 0.3386 0.2410 0.5610 0.1940 Uiso
H59 H 0.3107 0.2825 0.5331 0.1940 Uiso
C69 C 0.3195(11) 0.139(2) 0.5324(5) 0.1513 Uani
H60 H 0.3514 0.1401 0.5226 0.1820 Uiso
H61 H 0.2944 0.1275 0.5173 0.1820 Uiso
C70 C 0.3176(7) 0.0528(17) 0.5587(5) 0.1087 Uani
H62 H 0.3150 -0.0119 0.5492 0.1300 Uiso
H63 H 0.3481 0.0543 0.5699 0.1300 Uiso
C71 C 0.2788(8) 0.0648(18) 0.5784(6) 0.1270 Uani
H64 H 0.2844 0.0218 0.5955 0.1530 Uiso
H65 H 0.2492 0.0418 0.5685 0.1530 Uiso
loop_
_atom_site_aniso_label
_atom_site_aniso_U_11
_atom_site_aniso_U_22
_atom_site_aniso_U_33
_atom_site_aniso_U_23
_atom_site_aniso_U_13
_atom_site_aniso_U_12
Zn1 0.0673(9) 0.0345(6) 0.0303(6) 0.0004(5) 0.0036(6) 0.0061(6)
Zn2 0.0372(7) 0.0361(7) 0.0617(9) -0.0049(6) -0.0062(6) 0.0008(6)
Zn3 0.0432(7) 0.0548(8) 0.0454(8) 0.0062(7) 0.0050(6) 0.0136(6)
I1 0.1116(8) 0.0320(4) 0.0668(6) -0.0108(4) 0.0073(6) -0.0041(5)
I2 0.0747(7) 0.0933(8) 0.0652(6) 0.0262(6) -0.0146(5) 0.0056(6)
I3 0.0656(6) 0.0675(6) 0.1125(9) 0.0294(6) 0.0064(6) -0.0188(5)
I4 0.0594(5) 0.0566(5) 0.0752(6) -0.0336(5) -0.0158(5) 0.0105(4)
I5 0.0928(8) 0.0491(5) 0.0891(7) 0.0103(5) 0.0195(6) 0.0299(5)
I6 0.0373(5) 0.1536(12) 0.0723(7) -0.0208(7) -0.0009(5) 0.0079(6)
C1 0.090(10) 0.024(5) 0.041(7) 0.003(5) 0.018(6) -0.001(6)
C2 0.077(9) 0.037(6) 0.059(8) -0.005(6) 0.022(7) -0.005(6)
C3 0.080(9) 0.027(5) 0.049(7) 0.004(5) 0.024(7) -0.005(6)
C4 0.080(9) 0.028(5) 0.041(6) -0.001(5) 0.022(6) -0.011(6)
C5 0.040(6) 0.028(5) 0.040(6) -0.009(4) -0.003(5) 0.002(4)
C6 0.032(5) 0.030(5) 0.043(6) -0.004(4) 0.002(5) 0.002(4)
C7 0.072(8) 0.032(6) 0.042(7) -0.004(5) -0.008(6) 0.002(6)
C8 0.081(9) 0.041(6) 0.029(6) -0.007(5) -0.014(6) 0.004(6)
C9 0.088(11) 0.075(10) 0.034(7) 0.007(6) 0.014(7) 0.031(8)
C10 0.089(11) 0.052(8) 0.056(8) 0.012(7) 0.019(8) 0.033(8)
C11 0.054(7) 0.048(7) 0.033(6) 0.000(5) -0.008(5) 0.005(6)
C12 0.049(6) 0.041(6) 0.027(5) -0.003(4) -0.013(5) 0.010(5)
C13 0.037(6) 0.045(6) 0.038(6) -0.012(5) 0.002(5) 0.012(5)
C14 0.037(6) 0.054(7) 0.030(5) 0.003(5) 0.008(4) 0.000(5)
C15 0.057(7) 0.046(6) 0.034(6) 0.002(5) 0.004(5) 0.017(6)
C16 0.067(8) 0.041(7) 0.052(7) -0.012(6) 0.008(6) 0.014(6)
C17 0.044(6) 0.037(6) 0.039(6) -0.013(5) 0.003(5) 0.000(5)
C18 0.039(6) 0.031(5) 0.048(7) 0.004(5) -0.010(5) 0.001(5)
C19 0.042(7) 0.091(11) 0.063(9) -0.018(8) 0.011(6) 0.010(7)
C20 0.041(7) 0.081(10) 0.052(8) -0.014(7) -0.004(6) 0.004(7)
C21 0.040(6) 0.036(6) 0.048(7) -0.004(5) 0.001(5) -0.004(5)
C22 0.042(6) 0.050(7) 0.034(6) 0.001(5) -0.001(5) -0.010(5)
C23 0.043(6) 0.022(5) 0.035(5) 0.001(4) 0.002(5) 0.003(4)
C24 0.039(5) 0.020(4) 0.032(5) 0.005(4) 0.002(4) 0.000(4)
C25 0.048(6) 0.039(6) 0.028(5) -0.003(4) 0.001(5) 0.003(5)
C26 0.036(5) 0.031(5) 0.037(6) 0.004(4) -0.002(4) -0.003(4)
C27 0.033(5) 0.036(5) 0.039(6) 0.009(5) -0.007(4) -0.001(4)
C28 0.040(6) 0.028(5) 0.028(5) 0.002(4) -0.004(4) -0.002(4)
C29 0.035(5) 0.023(4) 0.033(5) 0.012(4) -0.008(4) -0.001(4)
C30 0.042(6) 0.026(5) 0.026(5) 0.003(4) 0.000(4) -0.003(4)
C31 0.054(7) 0.024(5) 0.040(6) 0.007(4) -0.004(5) 0.003(5)
C32 0.046(6) 0.034(5) 0.025(5) 0.002(4) -0.001(4) 0.007(5)
C33 0.052(7) 0.056(8) 0.050(7) -0.011(6) 0.019(6) -0.008(6)
C34 0.047(7) 0.038(6) 0.047(7) -0.006(5) 0.000(5) -0.001(5)
C35 0.043(6) 0.025(5) 0.027(5) -0.002(4) 0.001(4) -0.001(4)
C36 0.042(5) 0.016(4) 0.024(5) 0.004(3) -0.003(4) -0.002(4)
N1 0.062(6) 0.032(5) 0.033(5) 0.003(4) 0.000(4) 0.000(4)
N2 0.051(6) 0.045(5) 0.028(5) -0.001(4) -0.009(4) -0.003(4)
N3 0.035(5) 0.044(5) 0.039(5) -0.004(4) -0.001(4) 0.003(4)
N4 0.045(5) 0.037(5) 0.035(5) -0.009(4) 0.002(4) -0.001(4)
N5 0.056(6) 0.035(5) 0.025(4) -0.008(4) -0.005(4) 0.007(4)
N6 0.033(5) 0.030(4) 0.044(5) -0.007(4) -0.001(4) 0.004(4)
N7 0.038(5) 0.042(5) 0.042(5) 0.003(4) 0.002(4) 0.003(4)
N8 0.041(5) 0.032(4) 0.032(5) 0.004(4) 0.004(4) 0.012(4)
N9 0.054(6) 0.041(5) 0.028(5) 0.011(4) 0.004(4) -0.008(4)
N10 0.037(5) 0.021(4) 0.035(5) 0.004(3) 0.001(4) 0.000(3)
N11 0.039(5) 0.020(4) 0.030(4) -0.001(3) -0.002(4) 0.000(3)
N12 0.042(5) 0.022(4) 0.038(5) -0.001(3) -0.002(4) 0.004(4)
Zn1B 0.0673 0.0345 0.0303 -0.0004 0.0036 -0.0061
Zn3C 0.0432 0.0548 0.0454 0.0062 -0.005 -0.0136
N2C 0.051 0.045 0.028 -0.001 0.009 0.003
N9B 0.054 0.041 0.028 -0.011 0.004 0.008
C37 0.153(17) 0.007(8) 0.083(14) -0.019(10) 0.032(13) -0.016(11)
C38 0.17(2) 0.003(8) 0.106(19) -0.014(11) -0.045(19) 0.002(13)
C39 0.18(2) 0.030(13) 0.18(2) -0.038(17) -0.07(2) 0.010(17)
C40 0.14(2) 0.017(11) 0.18(2) -0.047(15) -0.01(2) 0.019(13)
C41 0.150(14) 0.021(11) 0.147(15) -0.049(12) 0.014(12) -0.004(10)
C42 0.131(17) 0.014(10) 0.107(15) -0.018(11) 0.013(14) 0.008(13)
C43 0.150(17) 0.032(12) 0.095(15) -0.017(13) 0.015(15) 0.010(15)
C44 0.172(18) 0.045(16) 0.111(16) -0.044(13) -0.023(16) 0.013(15)
C45 0.19(2) 0.029(11) 0.119(18) -0.020(13) -0.054(18) 0.019(16)
C46 0.18(2) 0.042(14) 0.152(18) -0.028(15) -0.059(18) 0.016(17)
C47 0.18(2) 0.038(13) 0.157(19) -0.018(17) -0.025(19) 0.017(17)
C48 0.153(16) 0.019(9) 0.113(14) -0.027(12) -0.008(14) 0.012(13)
C49 0.178(19) 0.024(11) 0.138(16) -0.034(13) 0.063(16) -0.004(16)
C50 0.23(2) 0.038(14) 0.15(2) -0.022(19) 0.07(2) -0.007(18)
C51 0.22(2) 0.072(19) 0.16(2) -0.036(19) 0.08(2) -0.018(19)
C52 0.23(3) 0.064(18) 0.17(2) -0.039(17) 0.05(2) -0.04(2)
C53 0.22(2) 0.036(12) 0.117(19) -0.034(15) 0.072(18) -0.041(17)
C54 0.198(12) 0.024(7) 0.119(13) -0.035(10) 0.047(11) -0.020(9)
C55 0.21(3) 0.11(2) 0.26(3) -0.08(3) -0.08(3) 0.02(2)
C56 0.23(3) 0.18(3) 0.25(3) -0.01(3) -0.03(3) 0.01(3)
C57 0.20(3) 0.15(3) 0.26(3) -0.06(3) -0.04(3) 0.05(3)
C58 0.31(4) 0.25(4) 0.19(3) 0.04(3) 0.03(3) 0.00(3)
C59 0.08(3) 0.29(6) 0.15(4) 0.07(4) 0.05(3) 0.05(3)
N13 0.17(3) 0.12(2) 0.29(3) -0.04(3) -0.05(3) 0.02(2)
N14 0.16(3) 0.14(3) 0.29(3) -0.01(3) 0.01(3) -0.01(2)
N15 0.16(3) 0.15(3) 0.28(3) -0.01(3) -0.01(3) 0.01(3)
O1 0.53(7) 0.26(6) 0.31(5) 0.05(5) 0.10(6) -0.05(6)
O2 0.28(4) 0.30(4) 0.11(2) 0.06(3) 0.06(3) 0.00(3)
C60 0.094(12) 0.148(16) 0.055(9) 0.043(11) 0.010(9) 0.018(12)
C61 0.079(11) 0.161(18) 0.070(11) -0.025(12) 0.005(9) 0.020(13)
C62 0.092(13) 0.168(19) 0.091(13) -0.026(13) -0.006(11) 0.018(14)
C63 0.093(13) 0.19(2) 0.070(11) -0.032(14) 0.008(10) -0.006(15)
C64 0.086(12) 0.22(2) 0.080(12) 0.024(15) 0.009(11) 0.026(16)
C65 0.086(12) 0.21(2) 0.101(14) 0.060(14) 0.007(11) 0.029(14)
C66 0.107(15) 0.16(2) 0.148(19) -0.034(16) 0.041(14) -0.060(15)
C67 0.14(2) 0.20(2) 0.15(2) 0.000(19) -0.032(17) -0.04(2)
C68 0.17(2) 0.18(2) 0.14(2) 0.017(18) -0.020(18) -0.06(2)
C69 0.166(19) 0.18(2) 0.108(16) -0.060(15) -0.014(15) -0.041(18)
C70 0.087(12) 0.137(16) 0.102(14) -0.008(13) -0.004(11) 0.027(12)
C71 0.108(14) 0.118(16) 0.155(18) -0.027(14) 0.042(14) -0.034(13)
loop_
_geom_bond_atom_site_label_1
_geom_bond_atom_site_label_2
_geom_bond_site_symmetry_1
_geom_bond_site_symmetry_2
Zn1 I1 1_555 1_555
Zn2 I3 1_555 1_555
Zn3 I5 1_555 1_555
I2 Zn1 1_555 1_555
I4 Zn2 1_555 1_555
I6 Zn3 1_555 1_555
C1 H1 1_555 1_555
C2 C1 1_555 1_555
H2 C2 1_555 1_555
C3 H3 1_555 1_555
C4 C3 1_555 1_555
H4 C4 1_555 1_555
C5 C2 1_555 1_555
C6 C5 1_555 1_555
C7 H5 1_555 1_555
C8 C7 1_555 1_555
H6 C8 1_555 1_555
C9 H7 1_555 1_555
C10 C9 1_555 1_555
H8 C10 1_555 1_555
C11 C8 1_555 1_555
C12 C11 1_555 1_555
C13 H9 1_555 1_555
C14 C13 1_555 1_555
H10 C14 1_555 1_555
C15 H11 1_555 1_555
C16 C15 1_555 1_555
H12 C16 1_555 1_555
C17 C14 1_555 1_555
C18 C17 1_555 1_555
C19 H13 1_555 1_555
C20 C19 1_555 1_555
H14 C20 1_555 1_555
C21 H15 1_555 1_555
C22 C21 1_555 1_555
H16 C22 1_555 1_555
C23 C20 1_555 1_555
C24 C23 1_555 1_555
C25 H17 1_555 1_555
C26 C25 1_555 1_555
H18 C26 1_555 1_555
C27 H19 1_555 1_555
C28 C27 1_555 1_555
H20 C28 1_555 1_555
C29 C26 1_555 1_555
C30 C29 1_555 1_555
C31 H21 1_555 1_555
C32 C31 1_555 1_555
H22 C32 1_555 1_555
C33 H23 1_555 1_555
C34 C33 1_555 1_555
H24 C34 1_555 1_555
C35 C32 1_555 1_555
C36 C35 1_555 1_555
N1 Zn1 1_555 1_555
N2 C7 1_555 1_555
N3 Zn2 1_555 1_555
N4 C6 1_555 1_555
N5 C12 1_555 1_555
N6 C6 1_555 1_555
N7 Zn2 1_555 1_555
N8 Zn3 1_555 1_555
N9 C31 1_555 1_555
N10 C24 1_555 1_555
N11 C30 1_555 1_555
N12 C24 1_555 1_555
C37 C38 1_555 1_555
C38 H25 1_555 1_555
C39 C38 1_555 1_555
C40 C39 1_555 1_555
H26 C40 1_555 1_555
C41 C40 1_555 1_555
H27 C41 1_555 1_555
C42 C37 1_555 1_555
C43 C42 1_555 1_555
C44 C43 1_555 1_555
H28 C44 1_555 1_555
C45 C44 1_555 1_555
H29 C45 1_555 1_555
C46 C45 1_555 1_555
H30 C46 1_555 1_555
C47 C46 1_555 1_555
H31 C47 1_555 1_555
C48 C43 1_555 1_555
C49 C48 1_555 1_555
C50 C49 1_555 1_555
H32 C50 1_555 1_555
C51 C50 1_555 1_555
H33 C51 1_555 1_555
C52 C51 1_555 1_555
H34 C52 1_555 1_555
C53 C52 1_555 1_555
H35 C53 1_555 1_555
C54 C37 1_555 1_555
C55 C39 1_555 1_555
H36 C55 1_555 1_555
H37 C55 1_555 1_555
C56 C57 1_555 1_555
C57 H38 1_555 1_555
C58 C56 1_555 1_555
C59 H39 1_555 1_555
H40 C59 1_555 1_555
H41 C59 1_555 1_555
N13 C55 1_555 1_555
N14 N13 1_555 1_555
N15 C56 1_555 1_555
O1 C58 1_555 1_555
O2 C58 1_555 1_555
C60 H42 1_555 1_555
H43 C60 1_555 1_555
C61 C60 1_555 1_555
H44 C61 1_555 1_555
H45 C61 1_555 1_555
C62 C61 1_555 1_555
H46 C62 1_555 1_555
H47 C62 1_555 1_555
C63 C62 1_555 1_555
H48 C63 1_555 1_555
H49 C63 1_555 1_555
C64 C63 1_555 1_555
H50 C64 1_555 1_555
H51 C64 1_555 1_555
C65 C60 1_555 1_555
H52 C65 1_555 1_555
H53 C65 1_555 1_555
C66 H54 1_555 1_555
H55 C66 1_555 1_555
C67 C66 1_555 1_555
H56 C67 1_555 1_555
H57 C67 1_555 1_555
C68 C67 1_555 1_555
H58 C68 1_555 1_555
H59 C68 1_555 1_555
C69 C68 1_555 1_555
H60 C69 1_555 1_555
H61 C69 1_555 1_555
C70 C69 1_555 1_555
H62 C70 1_555 1_555
H63 C70 1_555 1_555
C71 C66 1_555 1_555
H64 C71 1_555 1_555
H65 C71 1_555 1_555
Zn1B N9 1_555 1_555
Zn3C N2 1_555 1_555
N2C Zn3 1_555 1_555
N9B Zn1 1_555 1_555
C1 N1 1_555 1_555
C3 N1 1_555 1_555
C4 C5 1_555 1_555
C9 N2 1_555 1_555
C10 C11 1_555 1_555
C12 N4 1_555 1_555
C13 N3 1_555 1_555
C15 N3 1_555 1_555
C16 C17 1_555 1_555
C18 N5 1_555 1_555
C18 N6 1_555 1_555
C19 N7 1_555 1_555
C21 N7 1_555 1_555
C22 C23 1_555 1_555
C25 N8 1_555 1_555
C27 N8 1_555 1_555
C28 C29 1_555 1_555
C30 N10 1_555 1_555
C33 N9 1_555 1_555
C34 C35 1_555 1_555
C36 N11 1_555 1_555
C36 N12 1_555 1_555
C41 C42 1_555 1_555
C47 C48 1_555 1_555
C49 C54 1_555 1_555
C53 C54 1_555 1_555
C57 N13 1_555 1_555
C59 O2 1_555 1_555
N14 N15 1_555 1_555
C64 C65 1_555 1_555
C70 C71 1_555 1_555

#END
