
#######################################################################
#
#                 Cambridge Crystallographic Data Centre
#                                CCDC 
#
#######################################################################
#
# If this CIF has been generated from an entry in the Cambridge 
# Structural Database, then it will include bibliographic, chemical, 
# crystal, experimental, refinement or atomic coordinate data resulting 
# from the CCDC's data processing and validation procedures.
#
#######################################################################

data_OJIDAN
_chemical_formula_moiety         '(C54 H36 O16 Sc3 1+)n'
_symmetry_cell_setting           hexagonal
_symmetry_space_group_name_H-M   'P -6 2 c'
_symmetry_Int_Tables_number      190
_space_group_name_Hall           'P -6c -2c'
loop_
_symmetry_equiv_pos_site_id
_symmetry_equiv_pos_as_xyz
1 x,y,z
2 -y,x-y,z
3 -x+y,-x,z
4 x,y,1/2-z
5 -y,x-y,1/2-z
6 -x+y,-x,1/2-z
7 y,x,-z
8 x-y,-y,-z
9 -x,-x+y,-z
10 y,x,1/2+z
11 x-y,-y,1/2+z
12 -x,-x+y,1/2+z
_cell_length_a                   31.470(4)
_cell_length_b                   31.470(4)
_cell_length_c                   16.843(3)
_cell_angle_alpha                90
_cell_angle_beta                 90
_cell_angle_gamma                120
_cell_volume                     14445.9
loop_
_atom_site_label
_atom_site_type_symbol
_atom_site_fract_x
_atom_site_fract_y
_atom_site_fract_z
Sc1 Sc 0.35788(7) 0.81884(6) 0.2500
Sc2 Sc 0.42941(5) 0.92804(4) 0.35274(7)
O1 O 0.43001(19) 0.87013(15) 0.4065(3)
O2 O 0.45836(19) 0.96829(17) 0.4617(3)
O3 O -0.03980(18) 0.5023(2) 0.6849(3)
O4 O 0.3949(2) 0.80130(16) 0.3371(3)
O5 O 0.4066(2) 0.89234(17) 0.2500
O6 O 0.5689(2) 0.56095(16) 0.6854(3)
O7 O 0.31747(17) 0.82664(17) 0.3437(3)
O8 O 0.3042(3) 0.7425(2) 0.2500
O9 O 0.35841(19) 0.90045(17) 0.3976(3)
C1 C 0.4204(3) 0.7434(3) 0.7500
H1 H 0.4079 0.7647 0.7500
C2 C 0.4289(2) 0.7288(2) 0.6786(4)
C3 C 0.4256(2) 0.7519(2) 0.6042(3)
C4 C 0.4199(2) 0.7994(2) 0.4680(4)
C5 C 0.0144(3) 0.5724(3) 0.7500
C6 C -0.0232(3) 0.5237(4) 0.7500
C7 C 0.5591(4) 0.5722(4) 0.7500
C8 C 0.4896(3) 0.6329(3) 0.6822(4)
H2 H 0.4801 0.6400 0.6340
C9 C 0.2332(3) 0.8046(2) 0.6053(4)
C10 C 0.2647(3) 0.8536(2) 0.5914(4)
H3 H 0.2660 0.8760 0.6288
C11 C 0.4456(2) 0.6946(2) 0.6789(3)
H4 H 0.4508 0.6832 0.6311
C12 C 0.4770(3) 0.6473(3) 0.7500
C13 C 0.4094(2) 0.7261(2) 0.5325(4)
H5 H 0.4004 0.6931 0.5303
C14 C 0.5163(4) 0.6079(3) 0.6808(4)
H6 H 0.5244 0.5990 0.6329
C15 C 0.0938(4) 0.6696(4) 0.7500
C16 C 0.2066(2) 0.7837(2) 0.6787(3)
C17 C 0.2943(3) 0.8716(3) 0.5258(5)
H7 H 0.3172 0.9048 0.5216
C18 C 0.2283(3) 0.8032(3) 0.7500
H8 H 0.2593 0.8311 0.7500
C19 C 0.1626(2) 0.7403(3) 0.6802(4)
H9 H 0.1478 0.7256 0.6324
C20 C 0.2583(2) 0.7905(2) 0.4724(4)
H10 H 0.2556 0.7689 0.4324
C21 C 0.4069(2) 0.7496(2) 0.4653(3)
H11 H 0.3964 0.7325 0.4176
C22 C 0.2301(2) 0.7731(2) 0.5419(4)
H12 H 0.2085 0.7396 0.5469
C23 C 0.3231(3) 0.8552(3) 0.3979(4)
C24 C 0.4170(3) 0.8253(3) 0.3983(3)
C25 C 0.4366(3) 0.8238(3) 0.5395(4)
H13 H 0.4463 0.8569 0.5425
C26 C 0.1399(3) 0.7177(3) 0.7500
C27 C 0.4393(3) 0.8003(2) 0.6060(4)
H14 H 0.4506 0.8177 0.6532
C28 C 0.4544(3) 0.6780(3) 0.7500
C29 C 0.2893(2) 0.8389(2) 0.4652(4)
C30 C 0.5297(3) 0.5973(3) 0.7500
C31 C 0.0598(6) 0.6549(6) 0.6911(9)
H15 H 0.0609 0.6769 0.6530
C32 C 0.0233(5) 0.6059(5) 0.6899(9)
H16 H 0.0033 0.5947 0.6453
Sc1_2 Sc 0.35788(7) 0.81884(6) 1.2500
Sc2C Sc 0.42941(5) 0.92804(4) 0.14726(7)
Sc2C_2 Sc 0.42941(5) 0.92804(4) 1.14726(7)
Sc2F Sc -0.07196(4) 0.42941(5) 0.64726(7)
Sc2H Sc 0.57059(5) 0.49863(6) 0.64726(7)
Sc2I Sc -0.07196(4) 0.42941(5) 0.85274(7)
Sc2K Sc 0.57059(5) 0.49863(6) 0.85274(7)
O1C O 0.43001(19) 0.87013(15) 1.0935(3)
O1C_2 O 0.43001(19) 0.87013(15) 0.0935(3)
O2C O 0.45836(19) 0.96829(17) 0.0383(3)
O3C O -0.03980(18) 0.5023(2) 0.8151(3)
O3F O 0.5023(2) 0.96020(18) 0.3151(3)
O3I O 0.5023(2) 0.96020(18) 0.1849(3)
O4C O 0.3949(2) 0.80130(16) 1.1629(3)
O4C_2 O 0.3949(2) 0.80130(16) 0.1629(3)
O6C O 0.5689(2) 0.56095(16) 0.8146(3)
O6H O 0.4311(2) 0.99205(26) 0.3146(3)
O6K O 0.4311(2) 0.99205(26) 0.1854(3)
O7C O 0.31747(17) 0.82664(17) 1.1563(3)
O7C_2 O 0.31747(17) 0.82664(17) 0.1563(3)
O9C O 0.35841(19) 0.90045(17) 1.1024(3)
O9C_2 O 0.35841(19) 0.90045(17) 0.1024(3)
C2C C 0.4289(2) 0.7288(2) 0.8214(4)
C3C C 0.4256(2) 0.7519(2) 0.8958(3)
C4C C 0.4199(2) 0.7994(2) 1.0320(4)
C8C C 0.4896(3) 0.6329(3) 0.8178(4)
H2C H 0.4801 0.6400 0.8660
C9C C 0.2332(3) 0.8046(2) 0.8947(4)
C10C C 0.2647(3) 0.8536(2) 0.9086(4)
H3C H 0.2660 0.8760 0.8712
C11C C 0.4456(2) 0.6946(2) 0.8211(3)
H4C H 0.4508 0.6832 0.8689
C13C C 0.4094(2) 0.7261(2) 0.9675(4)
H5C H 0.4004 0.6931 0.9697
C14C C 0.5163(4) 0.6079(3) 0.8192(4)
H6C H 0.5244 0.5990 0.8671
C16C C 0.2066(2) 0.7837(2) 0.8213(3)
C17C C 0.2943(3) 0.8716(3) 0.9742(5)
H7C H 0.3172 0.9048 0.9784
C19C C 0.1626(2) 0.7403(3) 0.8198(4)
H9C H 0.1478 0.7256 0.8676
C20C C 0.2583(2) 0.7905(2) 1.0276(4)
H10C H 0.2556 0.7689 1.0676
C21C C 0.4069(2) 0.7496(2) 1.0347(3)
H11C H 0.3964 0.7325 1.0824
C22C C 0.2301(2) 0.7731(2) 0.9581(4)
H12C H 0.2085 0.7396 0.9531
C23C C 0.3231(3) 0.8552(3) 1.1021(4)
C24C C 0.4170(3) 0.8253(3) 1.1017(3)
C25C C 0.4366(3) 0.8238(3) 0.9605(4)
H13C H 0.4463 0.8569 0.9575
C27C C 0.4393(3) 0.8003(2) 0.8940(4)
H14C H 0.4506 0.8177 0.8468
C29C C 0.2893(2) 0.8389(2) 1.0348(4)
C31C C 0.0598(6) 0.6549(6) 0.8089(9)
H15C H 0.0609 0.6769 0.8470
C32C C 0.0233(5) 0.6059(5) 0.8101(9)
H16C H 0.0033 0.5947 0.8547
loop_
_geom_bond_atom_site_label_1
_geom_bond_atom_site_label_2
_geom_bond_site_symmetry_1
_geom_bond_site_symmetry_2
Sc1 O4 1_555 1_555
Sc2 O1 1_555 1_555
O1 C24 1_555 1_555
O2 Sc2 1_555 1_555
O3 C6 1_555 1_555
O4 C24 1_555 1_555
O5 Sc1 1_555 1_555
O6 C7 1_555 1_555
O7 Sc1 1_555 1_555
O8 Sc1 1_555 1_555
O9 Sc2 1_555 1_555
C1 H1 1_555 1_555
C2 C1 1_555 1_555
C3 C2 1_555 1_555
C4 C21 1_555 1_555
C5 C6 1_555 1_555
C6 O3C 1_555 1_555
C7 C30 1_555 1_555
C8 H2 1_555 1_555
C9 C10 1_555 1_555
C10 H3 1_555 1_555
C11 C2 1_555 1_555
H4 C11 1_555 1_555
C12 C8 1_555 1_555
C13 C3 1_555 1_555
H5 C13 1_555 1_555
C14 C8 1_555 1_555
H6 C14 1_555 1_555
C15 C26 1_555 1_555
C16 C9 1_555 1_555
C17 C10 1_555 1_555
H7 C17 1_555 1_555
C18 C16 1_555 1_555
H8 C18 1_555 1_555
C19 C16 1_555 1_555
H9 C19 1_555 1_555
C20 H10 1_555 1_555
C21 C13 1_555 1_555
H11 C21 1_555 1_555
C22 C9 1_555 1_555
H12 C22 1_555 1_555
C23 O7 1_555 1_555
C24 C4 1_555 1_555
C25 C4 1_555 1_555
H13 C25 1_555 1_555
C26 C19 1_555 1_555
C27 C3 1_555 1_555
H14 C27 1_555 1_555
C28 C11 1_555 1_555
C29 C17 1_555 1_555
C30 C14 1_555 1_555
C31 C15 1_555 1_555
H15 C31 1_555 1_555
C32 C5 1_555 1_555
H16 C32 1_555 1_555
Sc1_2 O4C 1_555 1_555
Sc2C O5 1_555 1_555
Sc2C_2 O1C 1_555 1_555
Sc2F O3 1_555 1_555
Sc2H O6 1_555 1_555
Sc2I O3C 1_555 1_555
Sc2K O6C 1_555 1_555
O1C C24C 1_555 1_555
O1C_2 Sc2C 1_555 1_555
O2C Sc2C 1_555 1_555
O3F Sc2 1_555 1_555
O3I Sc2C 1_555 1_555
O4C C24C 1_555 1_555
O4C_2 Sc1 1_555 1_555
O6C C7 1_555 1_555
O6H Sc2 1_555 1_555
O6K Sc2C 1_555 1_555
O7C Sc1_2 1_555 1_555
O7C_2 Sc1 1_555 1_555
O9C Sc2C_2 1_555 1_555
O9C_2 Sc2C 1_555 1_555
C2C C1 1_555 1_555
C3C C2C 1_555 1_555
C4C C21C 1_555 1_555
C8C C12 1_555 1_555
H2C C8C 1_555 1_555
C9C C10C 1_555 1_555
C10C H3C 1_555 1_555
C11C C28 1_555 1_555
H4C C11C 1_555 1_555
C13C C3C 1_555 1_555
H5C C13C 1_555 1_555
C14C C30 1_555 1_555
H6C C14C 1_555 1_555
C16C C18 1_555 1_555
C17C C10C 1_555 1_555
H7C C17C 1_555 1_555
C19C C26 1_555 1_555
H9C C19C 1_555 1_555
C20C H10C 1_555 1_555
C21C C13C 1_555 1_555
H11C C21C 1_555 1_555
C22C C9C 1_555 1_555
H12C C22C 1_555 1_555
C23C O7C 1_555 1_555
C24C C4C 1_555 1_555
C25C C4C 1_555 1_555
H13C C25C 1_555 1_555
C27C C3C 1_555 1_555
H14C C27C 1_555 1_555
C29C C17C 1_555 1_555
C31C C15 1_555 1_555
H15C C31C 1_555 1_555
C32C C5 1_555 1_555
H16C C32C 1_555 1_555
Sc2 O5 1_555 1_555
O9 C23 1_555 1_555
C12 C28 1_555 1_555
C20 C22 1_555 1_555
C20 C29 1_555 1_555
C23 C29 1_555 1_555
C25 C27 1_555 1_555
C31 C32 1_555 1_555
O9C C23C 1_555 1_555
C2C C11C 1_555 1_555
C8C C14C 1_555 1_555
C9C C16C 1_555 1_555
C16C C19C 1_555 1_555
C20C C22C 1_555 1_555
C20C C29C 1_555 1_555
C23C C29C 1_555 1_555
C25C C27C 1_555 1_555
C31C C32C 1_555 1_555

#END
