
#######################################################################
#
#                 Cambridge Crystallographic Data Centre
#                                CCDC 
#
#######################################################################
#
# If this CIF has been generated from an entry in the Cambridge 
# Structural Database, then it will include bibliographic, chemical, 
# crystal, experimental, refinement or atomic coordinate data resulting 
# from the CCDC's data processing and validation procedures.
#
#######################################################################

data_MAHCIK
_chemical_formula_moiety         '(C126 H66 N6 O47 Zn11)n'
_symmetry_cell_setting           cubic
_symmetry_space_group_name_H-M   'I 2 3'
_symmetry_Int_Tables_number      197
_space_group_name_Hall           'I 2 2 3'
loop_
_symmetry_equiv_pos_site_id
_symmetry_equiv_pos_as_xyz
1 x,y,z
2 -x,-y,z
3 x,-y,-z
4 z,x,y
5 -x,y,-z
6 z,-x,-y
7 -z,-x,y
8 -z,x,-y
9 y,z,x
10 -y,z,-x
11 -y,-z,x
12 y,-z,-x
13 1/2+x,1/2+y,1/2+z
14 1/2-x,1/2-y,1/2+z
15 1/2+x,1/2-y,1/2-z
16 1/2+z,1/2+x,1/2+y
17 1/2-x,1/2+y,1/2-z
18 1/2+z,1/2-x,1/2-y
19 1/2-z,1/2-x,1/2+y
20 1/2-z,1/2+x,1/2-y
21 1/2+y,1/2+z,1/2+x
22 1/2-y,1/2+z,1/2-x
23 1/2-y,1/2-z,1/2+x
24 1/2+y,1/2-z,1/2-x
_cell_length_a                   33.5988(8)
_cell_length_b                   33.5988(8)
_cell_length_c                   33.5988(8)
_cell_angle_alpha                90
_cell_angle_beta                 90
_cell_angle_gamma                90
_cell_volume                     37929
loop_
_atom_site_label
_atom_site_type_symbol
_atom_site_fract_x
_atom_site_fract_y
_atom_site_fract_z
Zn1 Zn 0.72341(4) 0.72341(4) 0.27659(4)
Zn2 Zn 0.72677(4) 0.77192(5) 0.19688(4)
Zn3 Zn 0.54384(6) 0.5000 0.0000
C1 C 0.53980(13) 0.69167(12) 0.18538(13)
C2 C 0.56230(16) 0.72214(13) 0.16875(17)
H1 H 0.5525 0.7363 0.1471
C3 C 0.59941(16) 0.73142(18) 0.1845(2)
H2 H 0.6145 0.7518 0.1734
C4 C 0.61402(14) 0.7102(2) 0.2169(2)
C5 C 0.59153(15) 0.6798(2) 0.23352(18)
H3 H 0.6013 0.6656 0.2552
C6 C 0.55441(14) 0.67048(15) 0.21777(14)
H4 H 0.5394 0.6501 0.2289
C7 C 0.5012(2) 0.58408(15) 0.08183(15)
C8 C 0.5371(2) 0.60131(14) 0.09323(14)
H5 H 0.5598 0.5972 0.0781
C9 C 0.53883(16) 0.62475(12) 0.12728(13)
H6 H 0.5628 0.6363 0.1349
C10 C 0.50477(15) 0.63096(10) 0.14991(12)
C11 C 0.46893(16) 0.61373(12) 0.13851(14)
C12 C 0.4671(2) 0.59029(14) 0.10447(16)
H7 H 0.4432 0.5788 0.0968
C13 C 0.39470(14) 0.7109(2) 0.21891(19)
C14 C 0.39578(13) 0.6812(2) 0.19013(19)
H8 H 0.3722 0.6705 0.1804
C15 C 0.43212(13) 0.66759(15) 0.17583(15)
C16 C 0.46739(13) 0.68366(12) 0.19030(12)
C17 C 0.46632(15) 0.71335(13) 0.21908(13)
H9 H 0.4899 0.7241 0.2288
C18 C 0.42997(16) 0.72698(17) 0.23339(16)
H10 H 0.4292 0.7469 0.2526
O1 O 0.3225(3) 0.6947(4) 0.2144(4)
C19 C 0.3481(5) 0.7102(5) 0.2304(4)
O2 O 0.3517(2) 0.7497(3) 0.2517(3)
C20 C 0.5013(4) 0.5567(4) 0.0505(4)
O3 O 0.5332(3) 0.5453(2) 0.0394(2)
O4 O 0.6054(3) 0.5000 0.0000
H11 H 0.6135 0.5230 -0.0014
O5 O 0.4687(3) 0.5399(3) 0.0426(3)
O6 O 0.4350(3) 0.6322(4) 0.1488(4)
C21 C 0.6591(3) 0.7291(4) 0.2257(3)
O7 O 0.6727(2) 0.7488(2) 0.1992(2)
O8 O 0.6712(2) 0.7137(3) 0.2562(2)
O9 O 0.75533(19) 0.75533(19) 0.24467(19)
N1 N 0.5062(3) 0.6715(5) 0.1721(4)
H11B H 0.6135 0.4770 0.0014
Zn1A Zn 0.27659(4) 0.27659(4) 0.27659(4)
Zn2A Zn 0.27323(4) 0.22808(5) 0.19688(4)
Zn3A Zn 0.45616(6) 0.5000 0.0000
C1A C 0.46020(13) 0.30833(12) 0.18538(13)
C2A C 0.43770(16) 0.27786(13) 0.16875(17)
H1A H 0.4475 0.2637 0.1471
C3A C 0.40059(16) 0.26858(18) 0.1845(2)
H2A H 0.3855 0.2482 0.1734
C4A C 0.38598(14) 0.2898(2) 0.2169(2)
C5A C 0.40847(15) 0.3202(2) 0.23352(18)
H3A H 0.3987 0.3344 0.2552
C6A C 0.44559(14) 0.32952(15) 0.21777(14)
H4A H 0.4606 0.3499 0.2289
C7A C 0.4988(2) 0.41592(15) 0.08183(15)
C8A C 0.4629(2) 0.39869(14) 0.09323(14)
H5A H 0.4402 0.4028 0.0781
C9A C 0.46117(16) 0.37525(12) 0.12728(13)
H6A H 0.4372 0.3637 0.1349
C10A C 0.49523(15) 0.36904(10) 0.14991(12)
C11A C 0.53107(16) 0.38627(12) 0.13851(14)
C12A C 0.5329(2) 0.40971(14) 0.10447(16)
H7A H 0.5568 0.4212 0.0968
C13A C 0.60530(14) 0.2891(2) 0.21891(19)
C14A C 0.60422(13) 0.3188(2) 0.19013(19)
H8A H 0.6278 0.3295 0.1804
C15A C 0.56788(13) 0.33241(15) 0.17583(15)
C16A C 0.53261(13) 0.31634(12) 0.19030(12)
C17A C 0.53368(15) 0.28665(13) 0.21908(13)
H9A H 0.5101 0.2759 0.2288
C18A C 0.57003(16) 0.27302(17) 0.23339(16)
H10A H 0.5708 0.2531 0.2526
O1A O 0.6775(3) 0.3053(4) 0.2144(4)
C19A C 0.6519(5) 0.2898(5) 0.2304(4)
O2A O 0.6483(2) 0.2503(3) 0.2517(3)
C20A C 0.4987(4) 0.4433(4) 0.0505(4)
O3A O 0.4668(3) 0.4547(2) 0.0394(2)
O4A O 0.3946(3) 0.5000 0.0000
H11A H 0.3865 0.4770 -0.0014
O5A O 0.5313(3) 0.4601(3) 0.0426(3)
O6A O 0.5650(3) 0.3678(4) 0.1488(4)
C21A C 0.3409(3) 0.2709(4) 0.2257(3)
O7A O 0.3273(2) 0.2512(2) 0.1992(2)
O8A O 0.3288(2) 0.2863(3) 0.2562(2)
O9A O 0.24467(19) 0.24467(19) 0.24467(19)
N1A N 0.4938(3) 0.3285(5) 0.1721(4)
H11D H 0.3865 0.5230 0.0014
Zn2B Zn 0.72677(4) 0.22808(5) -0.19688(4)
C1B C 0.53980(13) 0.30833(12) -0.18538(13)
C2B C 0.56230(16) 0.27786(13) -0.16875(17)
H1B H 0.5525 0.2637 -0.1471
C3B C 0.59941(16) 0.26858(18) -0.1845(2)
H2B H 0.6145 0.2482 -0.1734
C4B C 0.61402(14) 0.2898(2) -0.2169(2)
C5B C 0.59153(15) 0.3202(2) -0.23352(18)
H3B H 0.6013 0.3344 -0.2552
C6B C 0.55441(14) 0.32952(15) -0.21777(14)
H4B H 0.5394 0.3499 -0.2289
C7B C 0.5012(2) 0.41592(15) -0.08183(15)
C8B C 0.5371(2) 0.39869(14) -0.09323(14)
H5B H 0.5598 0.4028 -0.0781
C9B C 0.53883(16) 0.37525(12) -0.12728(13)
H6B H 0.5628 0.3637 -0.1349
C10B C 0.50477(15) 0.36904(10) -0.14991(12)
C11B C 0.46893(16) 0.38627(12) -0.13851(14)
C12B C 0.4671(2) 0.40971(14) -0.10447(16)
H7B H 0.4432 0.4212 -0.0968
C13B C 0.39470(14) 0.2891(2) -0.21891(19)
C14B C 0.39578(13) 0.3188(2) -0.19013(19)
H8B H 0.3722 0.3295 -0.1804
C15B C 0.43212(13) 0.33241(15) -0.17583(15)
C16B C 0.46739(13) 0.31634(12) -0.19030(12)
C17B C 0.46632(15) 0.28665(13) -0.21908(13)
H9B H 0.4899 0.2759 -0.2288
C18B C 0.42997(16) 0.27302(17) -0.23339(16)
H10B H 0.4292 0.2531 -0.2526
O1B O 0.3225(3) 0.3053(4) -0.2144(4)
C19B C 0.3481(5) 0.2898(5) -0.2304(4)
O2B O 0.3517(2) 0.2503(3) -0.2517(3)
C20B C 0.5013(4) 0.4433(4) -0.0505(4)
O3B O 0.5332(3) 0.4547(2) -0.0394(2)
O5B O 0.4687(3) 0.4601(3) -0.0426(3)
O6B O 0.4350(3) 0.3678(4) -0.1488(4)
C21B C 0.6591(3) 0.2709(4) -0.2257(3)
O7B O 0.6727(2) 0.2512(2) -0.1992(2)
O8B O 0.6712(2) 0.2863(3) -0.2562(2)
N1B N 0.5062(3) 0.3285(5) -0.1721(4)
Zn2D Zn 0.27323(4) 0.77192(5) -0.19688(4)
C1D C 0.46020(13) 0.69167(12) -0.18538(13)
C2D C 0.43770(16) 0.72214(13) -0.16875(17)
H1D H 0.4475 0.7363 -0.1471
C3D C 0.40059(16) 0.73142(18) -0.1845(2)
H2D H 0.3855 0.7518 -0.1734
C4D C 0.38598(14) 0.7102(2) -0.2169(2)
C5D C 0.40847(15) 0.6798(2) -0.23352(18)
H3D H 0.3987 0.6656 -0.2552
C6D C 0.44559(14) 0.67048(15) -0.21777(14)
H4D H 0.4606 0.6501 -0.2289
C7D C 0.4988(2) 0.58408(15) -0.08183(15)
C8D C 0.4629(2) 0.60131(14) -0.09323(14)
H5D H 0.4402 0.5972 -0.0781
C9D C 0.46117(16) 0.62475(12) -0.12728(13)
H6D H 0.4372 0.6363 -0.1349
C10D C 0.49523(15) 0.63096(10) -0.14991(12)
C11D C 0.53107(16) 0.61373(12) -0.13851(14)
C12D C 0.5329(2) 0.59029(14) -0.10447(16)
H7D H 0.5568 0.5788 -0.0968
C13D C 0.60530(14) 0.7109(2) -0.21891(19)
C14D C 0.60422(13) 0.6812(2) -0.19013(19)
H8D H 0.6278 0.6705 -0.1804
C15D C 0.56788(13) 0.66759(15) -0.17583(15)
C16D C 0.53261(13) 0.68366(12) -0.19030(12)
C17D C 0.53368(15) 0.71335(13) -0.21908(13)
H9D H 0.5101 0.7241 -0.2288
C18D C 0.57003(16) 0.72698(17) -0.23339(16)
H10D H 0.5708 0.7469 -0.2526
O1D O 0.6775(3) 0.6947(4) -0.2144(4)
C19D C 0.6519(5) 0.7102(5) -0.2304(4)
O2D O 0.6483(2) 0.7497(3) -0.2517(3)
C20D C 0.4987(4) 0.5567(4) -0.0505(4)
O3D O 0.4668(3) 0.5453(2) -0.0394(2)
O5D O 0.5313(3) 0.5399(3) -0.0426(3)
O6D O 0.5650(3) 0.6322(4) -0.1488(4)
C21D C 0.3409(3) 0.7291(4) -0.2257(3)
O7D O 0.3273(2) 0.7488(2) -0.1992(2)
O8D O 0.3288(2) 0.7137(3) -0.2562(2)
N1D N 0.4938(3) 0.6715(5) -0.1721(4)
Zn2E Zn 0.19688(4) 0.27323(4) 0.22808(5)
Zn3E Zn 0.0000 0.45616(6) 0.5000
C1E C 0.18538(13) 0.46020(13) 0.30833(12)
C2E C 0.16875(17) 0.43770(16) 0.27786(13)
H1E H 0.1471 0.4475 0.2637
C3E C 0.1845(2) 0.40059(16) 0.26858(18)
H2E H 0.1734 0.3855 0.2482
C4E C 0.2169(2) 0.38598(14) 0.2898(2)
C5E C 0.23352(18) 0.40847(15) 0.3202(2)
H3E H 0.2552 0.3987 0.3344
C6E C 0.21777(14) 0.44559(14) 0.32952(15)
H4E H 0.2289 0.4606 0.3499
C7E C 0.08183(15) 0.4988(2) 0.41592(15)
C8E C 0.09323(14) 0.4629(2) 0.39869(14)
H5E H 0.0781 0.4402 0.4028
C9E C 0.12728(13) 0.46117(16) 0.37525(12)
H6E H 0.1349 0.4372 0.3637
C10E C 0.14991(12) 0.49523(15) 0.36904(10)
C11E C 0.13851(14) 0.53107(16) 0.38627(12)
C12E C 0.10447(16) 0.5329(2) 0.40971(14)
H7E H 0.0968 0.5568 0.4212
C13E C 0.21891(19) 0.60530(14) 0.2891(2)
C14E C 0.19013(19) 0.60422(13) 0.3188(2)
H8E H 0.1804 0.6278 0.3295
C15E C 0.17583(15) 0.56788(13) 0.33241(15)
C16E C 0.19030(12) 0.53261(13) 0.31634(12)
C17E C 0.21908(13) 0.53368(15) 0.28665(13)
H9E H 0.2288 0.5101 0.2759
C18E C 0.23339(16) 0.57003(16) 0.27302(17)
H10E H 0.2526 0.5708 0.2531
O1E O 0.2144(4) 0.6775(3) 0.3053(4)
C19E C 0.2304(4) 0.6519(5) 0.2898(5)
O2E O 0.2517(3) 0.6483(2) 0.2503(3)
C20E C 0.0505(4) 0.4987(4) 0.4433(4)
O3E O 0.0394(2) 0.4668(3) 0.4547(2)
O4E O 0.0000 0.3946(3) 0.5000
H11E H -0.0014 0.3865 0.4770
O5E O 0.0426(3) 0.5313(3) 0.4601(3)
O6E O 0.1488(4) 0.5650(3) 0.3678(4)
C21E C 0.2257(3) 0.3409(3) 0.2709(4)
O7E O 0.1992(2) 0.3273(2) 0.2512(2)
O8E O 0.2562(2) 0.3288(2) 0.2863(3)
N1E N 0.1721(4) 0.4938(3) 0.3285(5)
H11F H 0.0014 0.3865 0.5230
Zn2G Zn 0.80312(4) 0.72677(4) 0.22808(5)
C1G C 0.81462(13) 0.53980(13) 0.30833(12)
C2G C 0.83125(17) 0.56230(16) 0.27786(13)
H1G H 0.8529 0.5525 0.2637
C3G C 0.8155(2) 0.59941(16) 0.26858(18)
H2G H 0.8266 0.6145 0.2482
C4G C 0.7831(2) 0.61402(14) 0.2898(2)
C5G C 0.76648(18) 0.59153(15) 0.3202(2)
H3G H 0.7448 0.6013 0.3344
C6G C 0.78223(14) 0.55441(14) 0.32952(15)
H4G H 0.7711 0.5394 0.3499
C7G C 0.91817(15) 0.5012(2) 0.41592(15)
C8G C 0.90677(14) 0.5371(2) 0.39869(14)
H5G H 0.9219 0.5598 0.4028
C9G C 0.87272(13) 0.53883(16) 0.37525(12)
H6G H 0.8651 0.5628 0.3637
C10G C 0.85009(12) 0.50477(15) 0.36904(10)
C11G C 0.86149(14) 0.46893(16) 0.38627(12)
C12G C 0.89553(16) 0.4671(2) 0.40971(14)
H7G H 0.9032 0.4432 0.4212
C13G C 0.78109(19) 0.39470(14) 0.2891(2)
C14G C 0.80987(19) 0.39578(13) 0.3188(2)
H8G H 0.8196 0.3722 0.3295
C15G C 0.82417(15) 0.43212(13) 0.33241(15)
C16G C 0.80970(12) 0.46739(13) 0.31634(12)
C17G C 0.78092(13) 0.46632(15) 0.28665(13)
H9G H 0.7712 0.4899 0.2759
C18G C 0.76661(16) 0.42997(16) 0.27302(17)
H10G H 0.7474 0.4292 0.2531
O1G O 0.7856(4) 0.3225(3) 0.3053(4)
C19G C 0.7696(4) 0.3481(5) 0.2898(5)
O2G O 0.7483(3) 0.3517(2) 0.2503(3)
C20G C 0.9495(4) 0.5013(4) 0.4433(4)
O3G O 0.9606(2) 0.5332(3) 0.4547(2)
O5G O 0.9574(3) 0.4687(3) 0.4601(3)
O6G O 0.8512(4) 0.4350(3) 0.3678(4)
C21G C 0.7743(3) 0.6591(3) 0.2709(4)
O7G O 0.8008(2) 0.6727(2) 0.2512(2)
O8G O 0.7438(2) 0.6712(2) 0.2863(3)
N1G N 0.8279(4) 0.5062(3) 0.3285(5)
Zn1B Zn 0.72341(4) 0.27659(4) -0.27659(4)
Zn1C Zn 0.27659(4) 0.72341(4) -0.27659(4)
Zn2I Zn 0.22808(5) 0.19688(4) 0.27323(4)
Zn2K Zn 0.77192(5) 0.80312(4) 0.27323(4)
Zn2N Zn 0.22677(4) 0.72808(5) 0.30312(4)
Zn2O Zn 0.69688(4) 0.22677(4) 0.27192(5)
Zn2P Zn 0.77323(4) 0.27192(5) 0.30312(4)
Zn2Q Zn 0.69688(4) 0.77323(4) -0.27192(5)
Zn2R Zn 0.30312(4) 0.77323(4) 0.27192(5)
Zn2S Zn 0.30312(4) 0.22677(4) -0.27192(5)
Zn2T Zn 0.27192(5) 0.69688(4) 0.22677(4)
Zn2U Zn 0.72808(5) 0.69688(4) -0.22677(4)
Zn2V Zn 0.72808(5) 0.30312(4) 0.22677(4)
Zn2W Zn 0.27192(5) 0.30312(4) -0.22677(4)
Zn3C Zn 0.0000 0.54384(6) 0.5000
Zn3C_2 Zn 1.0000 0.54384(6) 0.5000
Zn3E_2 Zn 1.0000 0.45616(6) 0.5000
O1O O 0.7144(4) 0.8225(3) 0.1947(4)
O1Q O 0.7144(4) 0.1775(3) -0.1947(4)
O1R O 0.2856(4) 0.1775(3) 0.1947(4)
O1S O 0.2856(4) 0.8225(3) -0.1947(4)
O1U O 0.8053(4) 0.7144(4) 0.1775(3)
O1W O 0.1947(4) 0.2856(4) 0.1775(3)
O2N O 0.8517(2) 0.7503(3) 0.2483(3)
O2P O 0.1483(2) 0.2497(3) 0.2483(3)
O2T O 0.2497(3) 0.7517(3) -0.1483(2)
O2U O 0.7503(3) 0.7517(3) 0.1483(2)
O2V O 0.7503(3) 0.2483(3) -0.1483(2)
O2W O 0.2497(3) 0.2483(3) 0.1483(2)
O3F O -0.0394(2) 0.4668(3) 0.5453(2)
O5C O 0.0426(3) 0.4687(3) 0.5399(3)
O5G_2 O -0.0426(3) 0.4687(3) 0.4601(3)
O8I O 0.2863(3) 0.2562(2) 0.3288(2)
O8K O 0.7137(3) 0.7438(2) 0.3288(2)
O9B O 0.75533(19) 0.24467(19) -0.24467(19)
O9C O 0.24467(19) 0.75533(19) -0.24467(19)
loop_
_geom_bond_atom_site_label_1
_geom_bond_atom_site_label_2
_geom_bond_site_symmetry_1
_geom_bond_site_symmetry_2
Zn1 O8 1_555 1_555
Zn2 O7 1_555 1_555
Zn3 O3 1_555 1_555
C1 C2 1_555 1_555
C2 H1 1_555 1_555
C3 C2 1_555 1_555
H2 C3 1_555 1_555
C4 C3 1_555 1_555
C5 C4 1_555 1_555
H3 C5 1_555 1_555
C6 C1 1_555 1_555
H4 C6 1_555 1_555
C7 C8 1_555 1_555
C8 H5 1_555 1_555
C9 C8 1_555 1_555
H6 C9 1_555 1_555
C10 C9 1_555 1_555
C11 C10 1_555 1_555
C12 C7 1_555 1_555
H7 C12 1_555 1_555
C13 C14 1_555 1_555
C14 H8 1_555 1_555
C15 C14 1_555 1_555
C16 C15 1_555 1_555
C17 C16 1_555 1_555
H9 C17 1_555 1_555
C18 C13 1_555 1_555
H10 C18 1_555 1_555
O1 C19 1_555 1_555
C19 C13 1_555 1_555
O2 C19 1_555 1_555
C20 C7 1_555 1_555
O3 C20 1_555 1_555
O4 Zn3 1_555 1_555
H11 O4 1_555 1_555
O5 C20 1_555 1_555
O6 C11 1_555 1_555
C21 C4 1_555 1_555
O7 C21 1_555 1_555
O8 C21 1_555 1_555
O9 Zn1 1_555 1_555
N1 C1 1_555 1_555
H11B O4 1_555 1_555
Zn1A O8A 1_555 1_555
Zn2A O7A 1_555 1_555
Zn3A O5 1_555 1_555
C1A C2A 1_555 1_555
C2A H1A 1_555 1_555
C3A C2A 1_555 1_555
H2A C3A 1_555 1_555
C4A C3A 1_555 1_555
C5A C4A 1_555 1_555
H3A C5A 1_555 1_555
C6A C1A 1_555 1_555
H4A C6A 1_555 1_555
C7A C8A 1_555 1_555
C8A H5A 1_555 1_555
C9A C8A 1_555 1_555
H6A C9A 1_555 1_555
C10A C9A 1_555 1_555
C11A C10A 1_555 1_555
C12A C7A 1_555 1_555
H7A C12A 1_555 1_555
C13A C14A 1_555 1_555
C14A H8A 1_555 1_555
C15A C14A 1_555 1_555
C16A C15A 1_555 1_555
C17A C16A 1_555 1_555
H9A C17A 1_555 1_555
C18A C13A 1_555 1_555
H10A C18A 1_555 1_555
O1A C19A 1_555 1_555
C19A C13A 1_555 1_555
O2A C19A 1_555 1_555
C20A C7A 1_555 1_555
O3A Zn3A 1_555 1_555
O4A Zn3A 1_555 1_555
H11A O4A 1_555 1_555
O5A Zn3 1_555 1_555
O6A C11A 1_555 1_555
C21A C4A 1_555 1_555
O7A C21A 1_555 1_555
O8A C21A 1_555 1_555
O9A Zn1A 1_555 1_555
N1A C1A 1_555 1_555
H11D O4A 1_555 1_555
Zn2B O7B 1_555 1_555
C1B C2B 1_555 1_555
C2B H1B 1_555 1_555
C3B C2B 1_555 1_555
H2B C3B 1_555 1_555
C4B C3B 1_555 1_555
C5B C4B 1_555 1_555
H3B C5B 1_555 1_555
C6B C1B 1_555 1_555
H4B C6B 1_555 1_555
C7B C8B 1_555 1_555
C8B H5B 1_555 1_555
C9B C8B 1_555 1_555
H6B C9B 1_555 1_555
C10B C9B 1_555 1_555
C11B C10B 1_555 1_555
C12B C7B 1_555 1_555
H7B C12B 1_555 1_555
C13B C14B 1_555 1_555
C14B H8B 1_555 1_555
C15B C14B 1_555 1_555
C16B C15B 1_555 1_555
C17B C16B 1_555 1_555
H9B C17B 1_555 1_555
C18B C13B 1_555 1_555
H10B C18B 1_555 1_555
O1B C19B 1_555 1_555
C19B C13B 1_555 1_555
O2B C19B 1_555 1_555
C20B C7B 1_555 1_555
O3B Zn3 1_555 1_555
O5B Zn3A 1_555 1_555
O6B C11B 1_555 1_555
C21B C4B 1_555 1_555
O7B C21B 1_555 1_555
O8B C21B 1_555 1_555
N1B C1B 1_555 1_555
Zn2D O7D 1_555 1_555
C1D C2D 1_555 1_555
C2D H1D 1_555 1_555
C3D C2D 1_555 1_555
H2D C3D 1_555 1_555
C4D C3D 1_555 1_555
C5D C4D 1_555 1_555
H3D C5D 1_555 1_555
C6D C1D 1_555 1_555
H4D C6D 1_555 1_555
C7D C8D 1_555 1_555
C8D H5D 1_555 1_555
C9D C8D 1_555 1_555
H6D C9D 1_555 1_555
C10D C9D 1_555 1_555
C11D C10D 1_555 1_555
C12D C7D 1_555 1_555
H7D C12D 1_555 1_555
C13D C14D 1_555 1_555
C14D H8D 1_555 1_555
C15D C14D 1_555 1_555
C16D C15D 1_555 1_555
C17D C16D 1_555 1_555
H9D C17D 1_555 1_555
C18D C13D 1_555 1_555
H10D C18D 1_555 1_555
O1D C19D 1_555 1_555
C19D C13D 1_555 1_555
O2D C19D 1_555 1_555
C20D C7D 1_555 1_555
O3D Zn3A 1_555 1_555
O5D Zn3 1_555 1_555
O6D C11D 1_555 1_555
C21D C4D 1_555 1_555
O7D C21D 1_555 1_555
O8D C21D 1_555 1_555
N1D C1D 1_555 1_555
Zn2E O9A 1_555 1_555
Zn3E O3E 1_555 1_555
C1E C2E 1_555 1_555
C2E H1E 1_555 1_555
C3E C2E 1_555 1_555
H2E C3E 1_555 1_555
C4E C3E 1_555 1_555
C5E C4E 1_555 1_555
H3E C5E 1_555 1_555
C6E C1E 1_555 1_555
H4E C6E 1_555 1_555
C7E C8E 1_555 1_555
C8E H5E 1_555 1_555
C9E C8E 1_555 1_555
H6E C9E 1_555 1_555
C10E C9E 1_555 1_555
C11E C10E 1_555 1_555
C12E C7E 1_555 1_555
H7E C12E 1_555 1_555
C13E C14E 1_555 1_555
C14E H8E 1_555 1_555
C15E C14E 1_555 1_555
C16E C15E 1_555 1_555
C17E C16E 1_555 1_555
H9E C17E 1_555 1_555
C18E C13E 1_555 1_555
H10E C18E 1_555 1_555
O1E C19E 1_555 1_555
C19E C13E 1_555 1_555
O2E C19E 1_555 1_555
C20E C7E 1_555 1_555
O3E C20E 1_555 1_555
O4E Zn3E 1_555 1_555
H11E O4E 1_555 1_555
O5E C20E 1_555 1_555
O6E C11E 1_555 1_555
C21E C4E 1_555 1_555
O7E Zn2E 1_555 1_555
O8E Zn1A 1_555 1_555
N1E C1E 1_555 1_555
H11F O4E 1_555 1_555
Zn2G O9 1_555 1_555
C1G C2G 1_555 1_555
C2G H1G 1_555 1_555
C3G C2G 1_555 1_555
H2G C3G 1_555 1_555
C4G C3G 1_555 1_555
C5G C4G 1_555 1_555
H3G C5G 1_555 1_555
C6G C1G 1_555 1_555
H4G C6G 1_555 1_555
C7G C8G 1_555 1_555
C8G H5G 1_555 1_555
C9G C8G 1_555 1_555
H6G C9G 1_555 1_555
C10G C9G 1_555 1_555
C11G C10G 1_555 1_555
C12G C7G 1_555 1_555
H7G C12G 1_555 1_555
C13G C14G 1_555 1_555
C14G H8G 1_555 1_555
C15G C14G 1_555 1_555
C16G C15G 1_555 1_555
C17G C16G 1_555 1_555
H9G C17G 1_555 1_555
C18G C13G 1_555 1_555
H10G C18G 1_555 1_555
O1G C19G 1_555 1_555
C19G C13G 1_555 1_555
O2G C19G 1_555 1_555
C20G C7G 1_555 1_555
O3G C20G 1_555 1_555
O5G C20G 1_555 1_555
O6G C11G 1_555 1_555
C21G C4G 1_555 1_555
O7G Zn2G 1_555 1_555
O8G Zn1 1_555 1_555
N1G C1G 1_555 1_555
Zn1B O8B 1_555 1_555
Zn1C O8D 1_555 1_555
Zn2I O9A 1_555 1_555
Zn2K O9 1_555 1_555
Zn2N O1E 1_555 1_555
Zn2O O2A 1_555 1_555
Zn2P O1G 1_555 1_555
Zn2Q O2D 1_555 1_555
Zn2R O2 1_555 1_555
Zn2S O2B 1_555 1_555
Zn2T O1 1_555 1_555
Zn2U O1D 1_555 1_555
Zn2V O1A 1_555 1_555
Zn2W O1B 1_555 1_555
Zn3C O5E 1_555 1_555
Zn3C_2 O3G 1_555 1_555
Zn3E_2 O5G 1_555 1_555
O1O Zn2 1_555 1_555
O1Q Zn2B 1_555 1_555
O1R Zn2A 1_555 1_555
O1S Zn2D 1_555 1_555
O1U Zn2G 1_555 1_555
O1W Zn2E 1_555 1_555
O2N Zn2G 1_555 1_555
O2P Zn2E 1_555 1_555
O2T Zn2D 1_555 1_555
O2U Zn2 1_555 1_555
O2V Zn2B 1_555 1_555
O2W Zn2A 1_555 1_555
O3F Zn3E 1_555 1_555
O5C Zn3E 1_555 1_555
O5G_2 Zn3E 1_555 1_555
O8I Zn1A 1_555 1_555
O8K Zn1 1_555 1_555
O9B Zn2B 1_555 1_555
O9C Zn2D 1_555 1_555
Zn2 O9 1_555 1_555
C5 C6 1_555 1_555
C10 N1 1_555 1_555
C11 C12 1_555 1_555
C15 O6 1_555 1_555
C16 N1 1_555 1_555
C17 C18 1_555 1_555
Zn2A O9A 1_555 1_555
C5A C6A 1_555 1_555
C10A N1A 1_555 1_555
C11A C12A 1_555 1_555
C15A O6A 1_555 1_555
C16A N1A 1_555 1_555
C17A C18A 1_555 1_555
C20A O3A 1_555 1_555
C20A O5A 1_555 1_555
C5B C6B 1_555 1_555
C10B N1B 1_555 1_555
C11B C12B 1_555 1_555
C15B O6B 1_555 1_555
C16B N1B 1_555 1_555
C17B C18B 1_555 1_555
C20B O3B 1_555 1_555
C20B O5B 1_555 1_555
C5D C6D 1_555 1_555
C10D N1D 1_555 1_555
C11D C12D 1_555 1_555
C15D O6D 1_555 1_555
C16D N1D 1_555 1_555
C17D C18D 1_555 1_555
C20D O3D 1_555 1_555
C20D O5D 1_555 1_555
C5E C6E 1_555 1_555
C10E N1E 1_555 1_555
C11E C12E 1_555 1_555
C15E O6E 1_555 1_555
C16E N1E 1_555 1_555
C17E C18E 1_555 1_555
O2E Zn2T 1_555 1_555
C21E O7E 1_555 1_555
C21E O8E 1_555 1_555
C5G C6G 1_555 1_555
C10G N1G 1_555 1_555
C11G C12G 1_555 1_555
C15G O6G 1_555 1_555
C16G N1G 1_555 1_555
C17G C18G 1_555 1_555
O2G Zn2V 1_555 1_555
C21G O7G 1_555 1_555
C21G O8G 1_555 1_555
Zn1B O9B 1_555 1_555
Zn1C O9C 1_555 1_555

#END
