
#######################################################################
#
#                 Cambridge Crystallographic Data Centre
#                                CCDC 
#
#######################################################################
#
# If this CIF has been generated from an entry in the Cambridge 
# Structural Database, then it will include bibliographic, chemical, 
# crystal, experimental, refinement or atomic coordinate data resulting 
# from the CCDC's data processing and validation procedures.
#
#######################################################################

data_MAHCOQ
_chemical_formula_moiety         '(C126 H66 Co3 N6 O47 Zn8)n'
_symmetry_cell_setting           cubic
_symmetry_space_group_name_H-M   'I 2 3'
_symmetry_Int_Tables_number      197
_space_group_name_Hall           'I 2 2 3'
loop_
_symmetry_equiv_pos_site_id
_symmetry_equiv_pos_as_xyz
1 x,y,z
2 -x,-y,z
3 -x,y,-z
4 x,-y,-z
5 z,x,y
6 z,-x,-y
7 -z,-x,y
8 -z,x,-y
9 y,z,x
10 -y,z,-x
11 y,-z,-x
12 -y,-z,x
13 1/2+x,1/2+y,1/2+z
14 1/2-x,1/2-y,1/2+z
15 1/2-x,1/2+y,1/2-z
16 1/2+x,1/2-y,1/2-z
17 1/2+z,1/2+x,1/2+y
18 1/2+z,1/2-x,1/2-y
19 1/2-z,1/2-x,1/2+y
20 1/2-z,1/2+x,1/2-y
21 1/2+y,1/2+z,1/2+x
22 1/2-y,1/2+z,1/2-x
23 1/2+y,1/2-z,1/2-x
24 1/2-y,1/2-z,1/2+x
_cell_length_a                   33.7837(3)
_cell_length_b                   33.7837(3)
_cell_length_c                   33.7837(3)
_cell_angle_alpha                90
_cell_angle_beta                 90
_cell_angle_gamma                90
_cell_volume                     38558.6
loop_
_atom_site_label
_atom_site_type_symbol
_atom_site_fract_x
_atom_site_fract_y
_atom_site_fract_z
Co1 Co 0.5000 0.45644(8) 1.0000
C1 C 0.3245(11) 0.6018(5) 0.8107(10)
H1 H 0.3380 0.6242 0.8193
C2 C 0.3610(9) 0.4940(5) 0.8551(9)
C3 C 0.2737(10) 0.5729(5) 0.7707(7)
H2 H 0.2519 0.5747 0.7539
O1 O 0.3662(9) 0.5663(4) 0.8523(8)
C4 C 0.2879(8) 0.5365(6) 0.7830(9)
H3 H 0.2779 0.5139 0.7709
N1 N 0.3300(8) 0.4954(5) 0.8243(8)
C5 C 0.3755(10) 0.5308(6) 0.8686(8)
C6 C 0.3349(9) 0.5680(6) 0.8231(10)
C7 C 0.3149(10) 0.5320(5) 0.8110(9)
C8 C 0.2927(8) 0.6062(6) 0.7841(8)
C9 C 0.4035(9) 0.5324(6) 0.8970(11)
H4 H 0.4138 0.5566 0.9052
C10 C 0.4166(6) 0.4970(7) 0.9139(7)
C11 C 0.3725(9) 0.4607(6) 0.8708(10)
H5 H 0.3619 0.4366 0.8625
C12 C 0.4463(6) 0.4954(7) 0.9461(6)
O2 O 0.4593(5) 0.5316(5) 0.9568(5)
C13 C 0.2849(8) 0.6465(5) 0.7703(9)
O3 O 0.3019(7) 0.6760(3) 0.7851(5)
O4 O 0.4580(5) 0.4638(5) 0.9601(6)
C14 C 0.2869(6) 0.3849(5) 0.7880(7)
C15 C 0.2709(11) 0.4044(7) 0.8186(10)
H6 H 0.2506 0.3926 0.8329
C16 C 0.3120(11) 0.4581(7) 0.8121(11)
C17 C 0.2840(13) 0.4423(7) 0.8296(12)
H7 H 0.2715 0.4556 0.8502
C18 C 0.4006(10) 0.4624(7) 0.9000(10)
H8 H 0.4094 0.4388 0.9110
C19 C 0.3298(10) 0.4428(8) 0.7818(12)
H9 H 0.3507 0.4557 0.7693
O5 O 0.5000 0.3982(5) 1.0000
O6 O 0.2890(5) 0.3303(3) 0.7455(5)
Zn1 Zn 0.27861(7) 0.27861(7) 0.72139(7)
C20 C 0.2758(6) 0.3453(5) 0.7786(7)
O7 O 0.2529(4) 0.3273(3) 0.7996(4)
O8 O 0.2457(4) 0.2457(4) 0.7543(4)
Zn2 Zn 0.23048(7) 0.27358(7) 0.80182(6)
C21 C 0.3155(10) 0.4042(6) 0.7685(9)
H10 H 0.3264 0.3928 0.7460
O9 O 0.2496(5) 0.6508(4) 0.7535(6)
H11 H 0.503(5) 0.3924(8) 0.9734(10)
H11B H 0.497(5) 0.3924(8) 1.0266(10)
Co1A Co 0.5000 0.54356(8) 1.0000
C1A C 0.6755(11) 0.3982(5) 0.8107(10)
H1A H 0.6620 0.3758 0.8193
C2A C 0.6390(9) 0.5060(5) 0.8551(9)
C3A C 0.7263(10) 0.4271(5) 0.7707(7)
H2A H 0.7481 0.4253 0.7539
O1A O 0.6338(9) 0.4337(4) 0.8523(8)
C4A C 0.7121(8) 0.4635(6) 0.7830(9)
H3A H 0.7221 0.4861 0.7709
N1A N 0.6700(8) 0.5046(5) 0.8243(8)
C5A C 0.6245(10) 0.4692(6) 0.8686(8)
C6A C 0.6651(9) 0.4320(6) 0.8231(10)
C7A C 0.6851(10) 0.4680(5) 0.8110(9)
C8A C 0.7073(8) 0.3938(6) 0.7841(8)
C9A C 0.5965(9) 0.4676(6) 0.8970(11)
H4A H 0.5862 0.4434 0.9052
C10A C 0.5834(6) 0.5030(7) 0.9139(7)
C11A C 0.6275(9) 0.5393(6) 0.8708(10)
H5A H 0.6381 0.5634 0.8625
C12A C 0.5537(6) 0.5046(7) 0.9461(6)
O2A O 0.5407(5) 0.4684(5) 0.9568(5)
C13A C 0.7151(8) 0.3535(5) 0.7703(9)
O3A O 0.6981(7) 0.3240(3) 0.7851(5)
O4A O 0.5420(5) 0.5362(5) 0.9601(6)
C14A C 0.7131(6) 0.6151(5) 0.7880(7)
C15A C 0.7291(11) 0.5956(7) 0.8186(10)
H6A H 0.7494 0.6074 0.8329
C16A C 0.6880(11) 0.5419(7) 0.8121(11)
C17A C 0.7160(13) 0.5577(7) 0.8296(12)
H7A H 0.7285 0.5444 0.8502
C18A C 0.5994(10) 0.5376(7) 0.9000(10)
H8A H 0.5906 0.5612 0.9110
C19A C 0.6702(10) 0.5572(8) 0.7818(12)
H9A H 0.6493 0.5443 0.7693
O5A O 0.5000 0.6018(5) 1.0000
O6A O 0.7110(5) 0.6697(3) 0.7455(5)
Zn1A Zn 0.72139(7) 0.72139(7) 0.72139(7)
C20A C 0.7242(6) 0.6547(5) 0.7786(7)
O7A O 0.7471(4) 0.6727(3) 0.7996(4)
O8A O 0.7543(4) 0.7543(4) 0.7543(4)
Zn2A Zn 0.76952(7) 0.72642(7) 0.80182(6)
C21A C 0.6845(10) 0.5958(6) 0.7685(9)
H10A H 0.6736 0.6072 0.7460
O9A O 0.7504(5) 0.3492(4) 0.7535(6)
H11A H 0.497(5) 0.6076(8) 0.9734(10)
H11C H 0.503(5) 0.6076(8) 1.0266(10)
C1B C 0.6755(11) 0.6018(5) 1.1893(10)
H1B H 0.6620 0.6242 1.1807
C2B C 0.6390(9) 0.4940(5) 1.1449(9)
C3B C 0.7263(10) 0.5729(5) 1.2293(7)
H2B H 0.7481 0.5747 1.2461
O1B O 0.6338(9) 0.5663(4) 1.1477(8)
C4B C 0.7121(8) 0.5365(6) 1.2170(9)
H3B H 0.7221 0.5139 1.2291
N1B N 0.6700(8) 0.4954(5) 1.1757(8)
C5B C 0.6245(10) 0.5308(6) 1.1314(8)
C6B C 0.6651(9) 0.5680(6) 1.1769(10)
C7B C 0.6851(10) 0.5320(5) 1.1890(9)
C8B C 0.7073(8) 0.6062(6) 1.2159(8)
C9B C 0.5965(9) 0.5324(6) 1.1030(11)
H4B H 0.5862 0.5566 1.0948
C10B C 0.5834(6) 0.4970(7) 1.0861(7)
C11B C 0.6275(9) 0.4607(6) 1.1292(10)
H5B H 0.6381 0.4366 1.1375
C12B C 0.5537(6) 0.4954(7) 1.0539(6)
O2B O 0.5407(5) 0.5316(5) 1.0432(5)
C13B C 0.7151(8) 0.6465(5) 1.2297(9)
O3B O 0.6981(7) 0.6760(3) 1.2149(5)
O4B O 0.5420(5) 0.4638(5) 1.0399(6)
C14B C 0.7131(6) 0.3849(5) 1.2120(7)
C15B C 0.7291(11) 0.4044(7) 1.1814(10)
H6B H 0.7494 0.3926 1.1671
C16B C 0.6880(11) 0.4581(7) 1.1879(11)
C17B C 0.7160(13) 0.4423(7) 1.1704(12)
H7B H 0.7285 0.4556 1.1498
C18B C 0.5994(10) 0.4624(7) 1.1000(10)
H8B H 0.5906 0.4388 1.0890
C19B C 0.6702(10) 0.4428(8) 1.2182(12)
H9B H 0.6493 0.4557 1.2307
O6B O 0.7110(5) 0.3303(3) 1.2545(5)
C20B C 0.7242(6) 0.3453(5) 1.2214(7)
O7B O 0.7471(4) 0.3273(3) 1.2004(4)
Zn2B Zn 0.76952(7) 0.27358(7) 1.19818(6)
C21B C 0.6845(10) 0.4042(6) 1.2315(9)
H10B H 0.6736 0.3928 1.2540
O9B O 0.7504(5) 0.6508(4) 1.2465(6)
C1C C 0.3245(11) 0.3982(5) 1.1893(10)
H1C H 0.3380 0.3758 1.1807
C2C C 0.3610(9) 0.5060(5) 1.1449(9)
C3C C 0.2737(10) 0.4271(5) 1.2293(7)
H2C H 0.2519 0.4253 1.2461
O1C O 0.3662(9) 0.4337(4) 1.1477(8)
C4C C 0.2879(8) 0.4635(6) 1.2170(9)
H3C H 0.2779 0.4861 1.2291
N1C N 0.3300(8) 0.5046(5) 1.1757(8)
C5C C 0.3755(10) 0.4692(6) 1.1314(8)
C6C C 0.3349(9) 0.4320(6) 1.1769(10)
C7C C 0.3149(10) 0.4680(5) 1.1890(9)
C8C C 0.2927(8) 0.3938(6) 1.2159(8)
C9C C 0.4035(9) 0.4676(6) 1.1030(11)
H4C H 0.4138 0.4434 1.0948
C10C C 0.4166(6) 0.5030(7) 1.0861(7)
C11C C 0.3725(9) 0.5393(6) 1.1292(10)
H5C H 0.3619 0.5634 1.1375
C12C C 0.4463(6) 0.5046(7) 1.0539(6)
O2C O 0.4593(5) 0.4684(5) 1.0432(5)
C13C C 0.2849(8) 0.3535(5) 1.2297(9)
O3C O 0.3019(7) 0.3240(3) 1.2149(5)
O4C O 0.4580(5) 0.5362(5) 1.0399(6)
C14C C 0.2869(6) 0.6151(5) 1.2120(7)
C15C C 0.2709(11) 0.5956(7) 1.1814(10)
H6C H 0.2506 0.6074 1.1671
C16C C 0.3120(11) 0.5419(7) 1.1879(11)
C17C C 0.2840(13) 0.5577(7) 1.1704(12)
H7C H 0.2715 0.5444 1.1498
C18C C 0.4006(10) 0.5376(7) 1.1000(10)
H8C H 0.4094 0.5612 1.0890
C19C C 0.3298(10) 0.5572(8) 1.2182(12)
H9C H 0.3507 0.5443 1.2307
O6C O 0.2890(5) 0.6697(3) 1.2545(5)
C20C C 0.2758(6) 0.6547(5) 1.2214(7)
O7C O 0.2529(4) 0.6727(3) 1.2004(4)
Zn2C Zn 0.23048(7) 0.72642(7) 1.19818(6)
C21C C 0.3155(10) 0.5958(6) 1.2315(9)
H10C H 0.3264 0.6072 1.2540
O9C O 0.2496(5) 0.3492(4) 1.2465(6)
Co1E Co -0.0000 0.5000 0.54356(8)
C1G C 0.1893(10) 0.3245(11) 0.3982(5)
H1G H 0.1807 0.3380 0.3758
C2G C 0.1449(9) 0.3610(9) 0.5060(5)
C3G C 0.2293(7) 0.2737(10) 0.4271(5)
H2G H 0.2461 0.2519 0.4253
O1G O 0.1477(8) 0.3662(9) 0.4337(4)
C4G C 0.2170(9) 0.2879(8) 0.4635(6)
H3G H 0.2291 0.2779 0.4861
N1G N 0.1757(8) 0.3300(8) 0.5046(5)
C5G C 0.1314(8) 0.3755(10) 0.4692(6)
C6G C 0.1769(10) 0.3349(9) 0.4320(6)
C7G C 0.1890(9) 0.3149(10) 0.4680(5)
C8G C 0.2159(8) 0.2927(8) 0.3938(6)
C9G C 0.1030(11) 0.4035(9) 0.4676(6)
H4G H 0.0948 0.4138 0.4434
C10G C 0.0861(7) 0.4166(6) 0.5030(7)
C11G C 0.1292(10) 0.3725(9) 0.5393(6)
H5G H 0.1375 0.3619 0.5634
C12G C 0.0539(6) 0.4463(6) 0.5046(7)
O2G O 0.0432(5) 0.4593(5) 0.4684(5)
C13G C 0.2297(9) 0.2849(8) 0.3535(5)
O3G O 0.2149(5) 0.3019(7) 0.3240(3)
O4G O 0.0399(6) 0.4580(5) 0.5362(5)
C14G C 0.2120(7) 0.2869(6) 0.6151(5)
C15G C 0.1814(10) 0.2709(11) 0.5956(7)
H6G H 0.1671 0.2506 0.6074
C16G C 0.1879(11) 0.3120(11) 0.5419(7)
C17G C 0.1704(12) 0.2840(13) 0.5577(7)
H7G H 0.1498 0.2715 0.5444
C18G C 0.1000(10) 0.4006(10) 0.5376(7)
H8G H 0.0890 0.4094 0.5612
C19G C 0.2182(12) 0.3298(10) 0.5572(8)
H9G H 0.2307 0.3507 0.5443
O5E O 0.0000 0.5000 0.6018(5)
O6G O 0.2545(5) 0.2890(5) 0.6697(3)
C20G C 0.2214(7) 0.2758(6) 0.6547(5)
O7G O 0.2004(4) 0.2529(4) 0.6727(3)
Zn2G Zn 0.19818(6) 0.23048(7) 0.72642(7)
C21G C 0.2315(9) 0.3155(10) 0.5958(6)
H10G H 0.2540 0.3264 0.6072
O9G O 0.2465(6) 0.2496(5) 0.3492(4)
H11G H 0.0266(10) 0.503(5) 0.6076(8)
H11E H -0.0266(10) 0.497(5) 0.6076(8)
C1I C 0.3982(5) 0.8107(10) 0.6755(11)
H1I H 0.3758 0.8193 0.6620
C2I C 0.5060(5) 0.8551(9) 0.6390(9)
C3I C 0.4271(5) 0.7707(7) 0.7263(10)
H2I H 0.4253 0.7539 0.7481
O1I O 0.4337(4) 0.8523(8) 0.6338(9)
C4I C 0.4635(6) 0.7830(9) 0.7121(8)
H3I H 0.4861 0.7709 0.7221
N1I N 0.5046(5) 0.8243(8) 0.6700(8)
C5I C 0.4692(6) 0.8686(8) 0.6245(10)
C6I C 0.4320(6) 0.8231(10) 0.6651(9)
C7I C 0.4680(5) 0.8110(9) 0.6851(10)
C8I C 0.3938(6) 0.7841(8) 0.7073(8)
C9I C 0.4676(6) 0.8970(11) 0.5965(9)
H4I H 0.4434 0.9052 0.5862
C10I C 0.5030(7) 0.9139(7) 0.5834(6)
C11I C 0.5393(6) 0.8708(10) 0.6275(9)
H5I H 0.5634 0.8625 0.6381
C12I C 0.5046(7) 0.9461(6) 0.5537(6)
O2I O 0.4684(5) 0.9568(5) 0.5407(5)
C13I C 0.3535(5) 0.7703(9) 0.7151(8)
O3I O 0.3240(3) 0.7851(5) 0.6981(7)
O4I O 0.5362(5) 0.9601(6) 0.5420(5)
C14I C 0.6151(5) 0.7880(7) 0.7131(6)
C15I C 0.5956(7) 0.8186(10) 0.7291(11)
H6I H 0.6074 0.8329 0.7494
C16I C 0.5419(7) 0.8121(11) 0.6880(11)
C17I C 0.5577(7) 0.8296(12) 0.7160(13)
H7I H 0.5444 0.8502 0.7285
C18I C 0.5376(7) 0.9000(10) 0.5994(10)
H8I H 0.5612 0.9110 0.5906
C19I C 0.5572(8) 0.7818(12) 0.6702(10)
H9I H 0.5443 0.7693 0.6493
O6I O 0.6697(3) 0.7455(5) 0.7110(5)
C20I C 0.6547(5) 0.7786(7) 0.7242(6)
O7I O 0.6727(3) 0.7996(4) 0.7471(4)
Zn2I Zn 0.72642(7) 0.80182(6) 0.76952(7)
C21I C 0.5958(6) 0.7685(9) 0.6845(10)
H10I H 0.6072 0.7460 0.6736
O9I O 0.3492(4) 0.7535(6) 0.7504(5)
Co1D Co 0.0000 0.5000 0.45644(8)
Co1H Co 0.45644(8) 1.0000 0.5000
Co1I Co 0.54356(8) 1.0000 0.5000
O2D O -0.0432(5) 0.4593(5) 0.5316(5)
O2F O 0.0432(5) 0.5407(5) 0.5316(5)
O3N O 0.1981(7) 0.1760(3) 0.7149(5)
O3S O 0.7149(5) 0.8019(7) 0.8240(3)
O3T O 0.1760(3) 0.2851(5) 0.8019(7)
O3U O 0.8240(3) 0.2851(5) 1.1981(7)
O3V O 0.1760(3) 0.7149(5) 1.1981(7)
O3W O 0.8240(3) 0.7149(5) 0.8019(7)
O4E O -0.0399(6) 0.5420(5) 0.5362(5)
O6E O 0.7455(5) 0.7110(5) 0.6697(3)
O6J O 0.3303(3) 0.2545(5) 0.7110(5)
Zn1B Zn 0.72139(7) 0.27861(7) 1.27861(7)
Zn1C Zn 0.27861(7) 0.72139(7) 1.27861(7)
O8B O 0.7543(4) 0.2457(4) 1.2457(4)
O8C O 0.2457(4) 0.7543(4) 1.2457(4)
Zn2E Zn 0.80182(6) 0.76952(7) 0.72642(7)
Zn2J Zn 0.27358(7) 0.19818(6) 0.76952(7)
Zn2M Zn 0.26952(7) 0.22642(7) 0.30182(6)
Zn2N Zn 0.26952(7) 0.77358(7) 0.69818(6)
Zn2P Zn 0.30182(6) 0.73048(7) 0.77358(7)
Zn2Q Zn 0.30182(6) 0.26952(7) 1.22642(7)
Zn2R Zn 0.69818(6) 0.26952(7) 0.77358(7)
Zn2S Zn 0.69818(6) 0.73048(7) 1.22642(7)
Zn2T Zn 0.77358(7) 0.30182(6) 0.73048(7)
Zn2U Zn 0.22642(7) 0.30182(6) 0.26952(7)
Zn2U_2 Zn 0.22642(7) 0.30182(6) 1.26952(7)
Zn2V Zn 0.77358(7) 0.69818(6) 1.26952(7)
Zn2W Zn 0.22642(7) 0.69818(6) 0.73048(7)
O9O O 0.7496(5) 0.8492(4) 0.7465(6)
O9P O 0.2535(6) 0.7496(5) 1.1508(4)
O9Q O 0.2535(6) 0.2504(5) 0.8492(4)
O9R O 0.7465(6) 0.2504(5) 1.1508(4)
O9S O 0.7465(6) 0.7496(5) 0.8492(4)
O9T O 0.1508(4) 0.2535(6) 0.7496(5)
loop_
_geom_bond_atom_site_label_1
_geom_bond_atom_site_label_2
_geom_bond_site_symmetry_1
_geom_bond_site_symmetry_2
Co1 O4 1_555 1_555
C1 H1 1_555 1_555
C2 N1 1_555 1_555
C3 H2 1_555 1_555
O1 C5 1_555 1_555
C4 C3 1_555 1_555
H3 C4 1_555 1_555
N1 C7 1_555 1_555
C5 C2 1_555 1_555
C6 C1 1_555 1_555
C7 C4 1_555 1_555
C8 C1 1_555 1_555
C9 C5 1_555 1_555
H4 C9 1_555 1_555
C10 C9 1_555 1_555
C11 C2 1_555 1_555
H5 C11 1_555 1_555
C12 C10 1_555 1_555
O2 C12 1_555 1_555
C13 C8 1_555 1_555
O3 C13 1_555 1_555
O4 C12 1_555 1_555
C14 C15 1_555 1_555
C15 H6 1_555 1_555
C16 N1 1_555 1_555
C17 C15 1_555 1_555
H7 C17 1_555 1_555
C18 C10 1_555 1_555
H8 C18 1_555 1_555
C19 C16 1_555 1_555
H9 C19 1_555 1_555
O5 Co1 1_555 1_555
O6 Zn1 1_555 1_555
Zn1 O8 1_555 1_555
C20 C14 1_555 1_555
O7 C20 1_555 1_555
O8 Zn2 1_555 1_555
Zn2 O7 1_555 1_555
C21 C14 1_555 1_555
H10 C21 1_555 1_555
O9 C13 1_555 1_555
H11 O5 1_555 1_555
H11B O5 1_555 1_555
Co1A O2 1_555 1_555
C1A H1A 1_555 1_555
C2A N1A 1_555 1_555
C3A H2A 1_555 1_555
O1A C5A 1_555 1_555
C4A C3A 1_555 1_555
H3A C4A 1_555 1_555
N1A C7A 1_555 1_555
C5A C2A 1_555 1_555
C6A C1A 1_555 1_555
C7A C4A 1_555 1_555
C8A C1A 1_555 1_555
C9A C5A 1_555 1_555
H4A C9A 1_555 1_555
C10A C9A 1_555 1_555
C11A C2A 1_555 1_555
H5A C11A 1_555 1_555
C12A C10A 1_555 1_555
O2A Co1 1_555 1_555
C13A C8A 1_555 1_555
O3A C13A 1_555 1_555
O4A Co1A 1_555 1_555
C14A C15A 1_555 1_555
C15A H6A 1_555 1_555
C16A N1A 1_555 1_555
C17A C15A 1_555 1_555
H7A C17A 1_555 1_555
C18A C10A 1_555 1_555
H8A C18A 1_555 1_555
C19A C16A 1_555 1_555
H9A C19A 1_555 1_555
O5A Co1A 1_555 1_555
O6A Zn1A 1_555 1_555
Zn1A O8A 1_555 1_555
C20A C14A 1_555 1_555
O7A C20A 1_555 1_555
O8A Zn2A 1_555 1_555
Zn2A O7A 1_555 1_555
C21A C14A 1_555 1_555
H10A C21A 1_555 1_555
O9A C13A 1_555 1_555
H11A O5A 1_555 1_555
H11C O5A 1_555 1_555
C1B H1B 1_555 1_555
C2B N1B 1_555 1_555
C3B H2B 1_555 1_555
O1B C5B 1_555 1_555
C4B C3B 1_555 1_555
H3B C4B 1_555 1_555
N1B C7B 1_555 1_555
C5B C2B 1_555 1_555
C6B C1B 1_555 1_555
C7B C4B 1_555 1_555
C8B C1B 1_555 1_555
C9B C5B 1_555 1_555
H4B C9B 1_555 1_555
C10B C9B 1_555 1_555
C11B C2B 1_555 1_555
H5B C11B 1_555 1_555
C12B C10B 1_555 1_555
O2B Co1A 1_555 1_555
C13B C8B 1_555 1_555
O3B C13B 1_555 1_555
O4B Co1 1_555 1_555
C14B C15B 1_555 1_555
C15B H6B 1_555 1_555
C16B N1B 1_555 1_555
C17B C15B 1_555 1_555
H7B C17B 1_555 1_555
C18B C10B 1_555 1_555
H8B C18B 1_555 1_555
C19B C16B 1_555 1_555
H9B C19B 1_555 1_555
O6B C20B 1_555 1_555
C20B C14B 1_555 1_555
O7B C20B 1_555 1_555
Zn2B O7B 1_555 1_555
C21B C14B 1_555 1_555
H10B C21B 1_555 1_555
O9B C13B 1_555 1_555
C1C H1C 1_555 1_555
C2C N1C 1_555 1_555
C3C H2C 1_555 1_555
O1C C5C 1_555 1_555
C4C C3C 1_555 1_555
H3C C4C 1_555 1_555
N1C C7C 1_555 1_555
C5C C2C 1_555 1_555
C6C C1C 1_555 1_555
C7C C4C 1_555 1_555
C8C C1C 1_555 1_555
C9C C5C 1_555 1_555
H4C C9C 1_555 1_555
C10C C9C 1_555 1_555
C11C C2C 1_555 1_555
H5C C11C 1_555 1_555
C12C C10C 1_555 1_555
O2C Co1 1_555 1_555
C13C C8C 1_555 1_555
O3C C13C 1_555 1_555
O4C Co1A 1_555 1_555
C14C C15C 1_555 1_555
C15C H6C 1_555 1_555
C16C N1C 1_555 1_555
C17C C15C 1_555 1_555
H7C C17C 1_555 1_555
C18C C10C 1_555 1_555
H8C C18C 1_555 1_555
C19C C16C 1_555 1_555
H9C C19C 1_555 1_555
O6C C20C 1_555 1_555
C20C C14C 1_555 1_555
O7C C20C 1_555 1_555
Zn2C O7C 1_555 1_555
C21C C14C 1_555 1_555
H10C C21C 1_555 1_555
O9C C13C 1_555 1_555
Co1E O4G 1_555 1_555
C1G H1G 1_555 1_555
C2G N1G 1_555 1_555
C3G H2G 1_555 1_555
O1G C5G 1_555 1_555
C4G C3G 1_555 1_555
H3G C4G 1_555 1_555
N1G C7G 1_555 1_555
C5G C2G 1_555 1_555
C6G C1G 1_555 1_555
C7G C4G 1_555 1_555
C8G C1G 1_555 1_555
C9G C5G 1_555 1_555
H4G C9G 1_555 1_555
C10G C9G 1_555 1_555
C11G C2G 1_555 1_555
H5G C11G 1_555 1_555
C12G C10G 1_555 1_555
O2G C12G 1_555 1_555
C13G C8G 1_555 1_555
O3G C13G 1_555 1_555
O4G C12G 1_555 1_555
C14G C15G 1_555 1_555
C15G H6G 1_555 1_555
C16G N1G 1_555 1_555
C17G C15G 1_555 1_555
H7G C17G 1_555 1_555
C18G C10G 1_555 1_555
H8G C18G 1_555 1_555
C19G C16G 1_555 1_555
H9G C19G 1_555 1_555
O5E Co1E 1_555 1_555
O6G Zn1 1_555 1_555
C20G C14G 1_555 1_555
O7G C20G 1_555 1_555
Zn2G O8 1_555 1_555
C21G C14G 1_555 1_555
H10G C21G 1_555 1_555
O9G C13G 1_555 1_555
H11G O5E 1_555 1_555
H11E O5E 1_555 1_555
C1I H1I 1_555 1_555
C2I N1I 1_555 1_555
C3I H2I 1_555 1_555
O1I C5I 1_555 1_555
C4I C3I 1_555 1_555
H3I C4I 1_555 1_555
N1I C7I 1_555 1_555
C5I C2I 1_555 1_555
C6I C1I 1_555 1_555
C7I C4I 1_555 1_555
C8I C1I 1_555 1_555
C9I C5I 1_555 1_555
H4I C9I 1_555 1_555
C10I C9I 1_555 1_555
C11I C2I 1_555 1_555
H5I C11I 1_555 1_555
C12I C10I 1_555 1_555
O2I C12I 1_555 1_555
C13I C8I 1_555 1_555
O3I C13I 1_555 1_555
O4I C12I 1_555 1_555
C14I C15I 1_555 1_555
C15I H6I 1_555 1_555
C16I N1I 1_555 1_555
C17I C15I 1_555 1_555
H7I C17I 1_555 1_555
C18I C10I 1_555 1_555
H8I C18I 1_555 1_555
C19I C16I 1_555 1_555
H9I C19I 1_555 1_555
O6I Zn1A 1_555 1_555
C20I C14I 1_555 1_555
O7I C20I 1_555 1_555
Zn2I O8A 1_555 1_555
C21I C14I 1_555 1_555
H10I C21I 1_555 1_555
O9I C13I 1_555 1_555
Co1D O2G 1_555 1_555
Co1H O2I 1_555 1_555
Co1I O4I 1_555 1_555
O2D Co1E 1_555 1_555
O2F Co1E 1_555 1_555
O3N Zn2G 1_555 1_555
O3S Zn2I 1_555 1_555
O3T Zn2 1_555 1_555
O3U Zn2B 1_555 1_555
O3V Zn2C 1_555 1_555
O3W Zn2A 1_555 1_555
O4E Co1E 1_555 1_555
O6E Zn1A 1_555 1_555
O6J Zn1 1_555 1_555
Zn1B O6B 1_555 1_555
Zn1C O6C 1_555 1_555
O8B Zn2B 1_555 1_555
O8C Zn2C 1_555 1_555
Zn2E O8A 1_555 1_555
Zn2J O8 1_555 1_555
Zn2M O9G 1_555 1_555
Zn2N O3I 1_555 1_555
Zn2P O3 1_555 1_555
Zn2Q O3C 1_555 1_555
Zn2R O3A 1_555 1_555
Zn2S O3B 1_555 1_555
Zn2T O9A 1_555 1_555
Zn2U O3G 1_555 1_555
Zn2U_2 O9C 1_555 1_555
Zn2V O9B 1_555 1_555
Zn2W O9 1_555 1_555
O9O Zn2I 1_555 1_555
O9P Zn2C 1_555 1_555
O9Q Zn2 1_555 1_555
O9R Zn2B 1_555 1_555
O9S Zn2A 1_555 1_555
O9T Zn2G 1_555 1_555
C3 C8 1_555 1_555
O1 C6 1_555 1_555
C6 C7 1_555 1_555
C11 C18 1_555 1_555
C16 C17 1_555 1_555
C19 C21 1_555 1_555
O6 C20 1_555 1_555
C3A C8A 1_555 1_555
O1A C6A 1_555 1_555
C6A C7A 1_555 1_555
C11A C18A 1_555 1_555
C12A O2A 1_555 1_555
C12A O4A 1_555 1_555
C16A C17A 1_555 1_555
C19A C21A 1_555 1_555
O6A C20A 1_555 1_555
C3B C8B 1_555 1_555
O1B C6B 1_555 1_555
C6B C7B 1_555 1_555
C11B C18B 1_555 1_555
C12B O2B 1_555 1_555
C12B O4B 1_555 1_555
C16B C17B 1_555 1_555
C19B C21B 1_555 1_555
C3C C8C 1_555 1_555
O1C C6C 1_555 1_555
C6C C7C 1_555 1_555
C11C C18C 1_555 1_555
C12C O2C 1_555 1_555
C12C O4C 1_555 1_555
C16C C17C 1_555 1_555
C19C C21C 1_555 1_555
C3G C8G 1_555 1_555
O1G C6G 1_555 1_555
C6G C7G 1_555 1_555
C11G C18G 1_555 1_555
C16G C17G 1_555 1_555
C19G C21G 1_555 1_555
O6G C20G 1_555 1_555
O7G Zn2G 1_555 1_555
C3I C8I 1_555 1_555
O1I C6I 1_555 1_555
C6I C7I 1_555 1_555
C11I C18I 1_555 1_555
C16I C17I 1_555 1_555
C19I C21I 1_555 1_555
O6I C20I 1_555 1_555
O7I Zn2I 1_555 1_555
O9I Zn2P 1_555 1_555
Zn1B O8B 1_555 1_555
Zn1C O8C 1_555 1_555

#END
