
#######################################################################
#
#                 Cambridge Crystallographic Data Centre
#                                CCDC 
#
#######################################################################
#
# If this CIF has been generated from an entry in the Cambridge 
# Structural Database, then it will include bibliographic, chemical, 
# crystal, experimental, refinement or atomic coordinate data resulting 
# from the CCDC's data processing and validation procedures.
#
#######################################################################

data_MAHCEG
_chemical_formula_moiety         '(C126 H66 Cu3 N6 O47 Zn8)n'
_symmetry_cell_setting           cubic
_symmetry_space_group_name_H-M   'I 2 3'
_symmetry_Int_Tables_number      197
_space_group_name_Hall           'I 2 2 3'
loop_
_symmetry_equiv_pos_site_id
_symmetry_equiv_pos_as_xyz
1 x,y,z
2 -x,-y,z
3 x,-y,-z
4 z,x,y
5 -x,y,-z
6 z,-x,-y
7 -z,-x,y
8 -z,x,-y
9 y,z,x
10 -y,z,-x
11 -y,-z,x
12 y,-z,-x
13 1/2+x,1/2+y,1/2+z
14 1/2-x,1/2-y,1/2+z
15 1/2+x,1/2-y,1/2-z
16 1/2+z,1/2+x,1/2+y
17 1/2-x,1/2+y,1/2-z
18 1/2+z,1/2-x,1/2-y
19 1/2-z,1/2-x,1/2+y
20 1/2-z,1/2+x,1/2-y
21 1/2+y,1/2+z,1/2+x
22 1/2-y,1/2+z,1/2-x
23 1/2-y,1/2-z,1/2+x
24 1/2+y,1/2-z,1/2-x
_cell_length_a                   33.7553(4)
_cell_length_b                   33.7553(4)
_cell_length_c                   33.7553(4)
_cell_angle_alpha                90
_cell_angle_beta                 90
_cell_angle_gamma                90
_cell_volume                     38461.5
loop_
_atom_site_label
_atom_site_type_symbol
_atom_site_fract_x
_atom_site_fract_y
_atom_site_fract_z
Zn1 Zn 0.22596(2) 0.26854(2) 0.30169(2)
Zn2 Zn 0.22066(2) 0.22066(2) 0.22066(2)
Cu1 Cu -0.03881(3) 0.0000 0.5000
C1 C 0.15514(17) 0.2236(2) 0.2760(2)
C2 C 0.11436(17) 0.2107(2) 0.2871(2)
C3 C 0.0962(2) 0.2263(3) 0.3196(3)
H1 H 0.1095 0.2456 0.3340
C4 C 0.0586(3) 0.2148(4) 0.3322(4)
H2 H 0.0465 0.2265 0.3540
C5 C 0.0403(2) 0.1849(3) 0.3108(3)
C6 C 0.0574(3) 0.1700(4) 0.2780(4)
H3 H 0.0437 0.1514 0.2630
C7 C 0.0954(2) 0.1819(3) 0.2659(3)
H4 H 0.1074 0.1704 0.2440
C8 C 0.00471(19) 0.1394(3) 0.3550(3)
C9 C 0.0391(2) 0.1257(3) 0.3716(3)
H5 H 0.0634 0.1354 0.3627
C10 C 0.0382(2) 0.0980(3) 0.4010(3)
H6 H 0.0620 0.0892 0.4118
C11 C 0.0031(2) 0.0827(2) 0.4153(2)
C12 C -0.03185(19) 0.0967(3) 0.3987(3)
H7 H -0.0560 0.0873 0.4079
C13 C -0.0311(2) 0.1240(4) 0.3691(3)
C14 C -0.06764(19) 0.1648(4) 0.3259(3)
C15 C -0.03243(18) 0.1833(3) 0.3124(3)
C16 C -0.0360(2) 0.2131(3) 0.2845(3)
H8 H -0.0133 0.2247 0.2741
C17 C -0.07317(19) 0.2260(3) 0.2718(3)
H9 H -0.0752 0.2469 0.2541
C18 C -0.10698(18) 0.2076(3) 0.2857(3)
C19 C -0.10424(19) 0.1778(3) 0.3135(3)
H10 H -0.1271 0.1665 0.3238
C20 C 0.0020(2) 0.05213(19) 0.44687(19)
C21 C -0.14762(18) 0.2196(3) 0.2728(2)
N1 N 0.00364(17) 0.1685(3) 0.3251(3)
O1 O 0.25372(11) 0.25372(11) 0.25372(11)
O2 O 0.17244(13) 0.24622(17) 0.29942(17)
O3 O 0.16890(14) 0.21035(18) 0.24417(17)
O4 O -0.06689(14) 0.1347(3) 0.3530(3)
O5 O -0.03142(12) 0.04004(16) 0.45802(16)
O6 O 0.03484(12) 0.04125(16) 0.46011(15)
O7 O -0.17521(12) 0.19759(19) 0.28348(17)
O8 O -0.15031(13) 0.24993(17) 0.25060(18)
O9 O -0.10326(19) 0.0000 0.5000
H11 H -0.1114 -0.0221 0.4939
H11B H -0.1114 0.0221 0.5061
Zn1A Zn -0.22596(2) -0.26854(2) 0.30169(2)
Zn2A Zn -0.22066(2) -0.22066(2) 0.22066(2)
Cu1A Cu 0.03881(3) 0.0000 0.5000
C1A C -0.15514(17) -0.2236(2) 0.2760(2)
C2A C -0.11436(17) -0.2107(2) 0.2871(2)
C3A C -0.0962(2) -0.2263(3) 0.3196(3)
H1A H -0.1095 -0.2456 0.3340
C4A C -0.0586(3) -0.2148(4) 0.3322(4)
H2A H -0.0465 -0.2265 0.3540
C5A C -0.0403(2) -0.1849(3) 0.3108(3)
C6A C -0.0574(3) -0.1700(4) 0.2780(4)
H3A H -0.0437 -0.1514 0.2630
C7A C -0.0954(2) -0.1819(3) 0.2659(3)
H4A H -0.1074 -0.1704 0.2440
C8A C -0.00471(19) -0.1394(3) 0.3550(3)
C9A C -0.0391(2) -0.1257(3) 0.3716(3)
H5A H -0.0634 -0.1354 0.3627
C10A C -0.0382(2) -0.0980(3) 0.4010(3)
H6A H -0.0620 -0.0892 0.4118
C11A C -0.0031(2) -0.0827(2) 0.4153(2)
C12A C 0.03185(19) -0.0967(3) 0.3987(3)
H7A H 0.0560 -0.0873 0.4079
C13A C 0.0311(2) -0.1240(4) 0.3691(3)
C14A C 0.06764(19) -0.1648(4) 0.3259(3)
C15A C 0.03243(18) -0.1833(3) 0.3124(3)
C16A C 0.0360(2) -0.2131(3) 0.2845(3)
H8A H 0.0133 -0.2247 0.2741
C17A C 0.07317(19) -0.2260(3) 0.2718(3)
H9A H 0.0752 -0.2469 0.2541
C18A C 0.10698(18) -0.2076(3) 0.2857(3)
C19A C 0.10424(19) -0.1778(3) 0.3135(3)
H10A H 0.1271 -0.1665 0.3238
C20A C -0.0020(2) -0.05213(19) 0.44687(19)
C21A C 0.14762(18) -0.2196(3) 0.2728(2)
N1A N -0.00364(17) -0.1685(3) 0.3251(3)
O1A O -0.25372(11) -0.25372(11) 0.25372(11)
O2A O -0.17244(13) -0.24622(17) 0.29942(17)
O3A O -0.16890(14) -0.21035(18) 0.24417(17)
O4A O 0.06689(14) -0.1347(3) 0.3530(3)
O5A O 0.03142(12) -0.04004(16) 0.45802(16)
O6A O -0.03484(12) -0.04125(16) 0.46011(15)
O7A O 0.17521(12) -0.19759(19) 0.28348(17)
O8A O 0.15031(13) -0.24993(17) 0.25060(18)
O9A O 0.10326(19) 0.0000 0.5000
H11A H 0.1114 0.0221 0.4939
H11D H 0.1114 -0.0221 0.5061
Zn1B Zn 0.22596(2) -0.26854(2) 0.69831(2)
C1B C 0.15514(17) -0.2236(2) 0.7240(2)
C2B C 0.11436(17) -0.2107(2) 0.7129(2)
C3B C 0.0962(2) -0.2263(3) 0.6804(3)
H1B H 0.1095 -0.2456 0.6660
C4B C 0.0586(3) -0.2148(4) 0.6678(4)
H2B H 0.0465 -0.2265 0.6460
C5B C 0.0403(2) -0.1849(3) 0.6892(3)
C6B C 0.0574(3) -0.1700(4) 0.7220(4)
H3B H 0.0437 -0.1514 0.7370
C7B C 0.0954(2) -0.1819(3) 0.7341(3)
H4B H 0.1074 -0.1704 0.7560
C8B C 0.00471(19) -0.1394(3) 0.6450(3)
C9B C 0.0391(2) -0.1257(3) 0.6284(3)
H5B H 0.0634 -0.1354 0.6373
C10B C 0.0382(2) -0.0980(3) 0.5990(3)
H6B H 0.0620 -0.0892 0.5882
C11B C 0.0031(2) -0.0827(2) 0.5847(2)
C12B C -0.03185(19) -0.0967(3) 0.6013(3)
H7B H -0.0560 -0.0873 0.5921
C13B C -0.0311(2) -0.1240(4) 0.6309(3)
C14B C -0.06764(19) -0.1648(4) 0.6741(3)
C15B C -0.03243(18) -0.1833(3) 0.6876(3)
C16B C -0.0360(2) -0.2131(3) 0.7155(3)
H8B H -0.0133 -0.2247 0.7259
C17B C -0.07317(19) -0.2260(3) 0.7282(3)
H9B H -0.0752 -0.2469 0.7459
C18B C -0.10698(18) -0.2076(3) 0.7143(3)
C19B C -0.10424(19) -0.1778(3) 0.6865(3)
H10B H -0.1271 -0.1665 0.6762
C20B C 0.0020(2) -0.05213(19) 0.55313(19)
C21B C -0.14762(18) -0.2196(3) 0.7272(2)
N1B N 0.00364(17) -0.1685(3) 0.6749(3)
O2B O 0.17244(13) -0.24622(17) 0.70058(17)
O3B O 0.16890(14) -0.21035(18) 0.75583(17)
O4B O -0.06689(14) -0.1347(3) 0.6470(3)
O5B O -0.03142(12) -0.04004(16) 0.54198(16)
O6B O 0.03484(12) -0.04125(16) 0.53989(15)
O7B O -0.17521(12) -0.19759(19) 0.71652(17)
O8B O -0.15031(13) -0.24993(17) 0.74940(18)
Zn1C Zn 0.30169(2) 0.22596(2) 0.26854(2)
Cu1C Cu 0.5000 -0.03881(3) 0.0000
C1C C 0.2760(2) 0.15514(17) 0.2236(2)
C2C C 0.2871(2) 0.11436(17) 0.2107(2)
C3C C 0.3196(3) 0.0962(2) 0.2263(3)
H1C H 0.3340 0.1095 0.2456
C4C C 0.3322(4) 0.0586(3) 0.2148(4)
H2C H 0.3540 0.0465 0.2265
C5C C 0.3108(3) 0.0403(2) 0.1849(3)
C6C C 0.2780(4) 0.0574(3) 0.1700(4)
H3C H 0.2630 0.0437 0.1514
C7C C 0.2659(3) 0.0954(2) 0.1819(3)
H4C H 0.2440 0.1074 0.1704
C8C C 0.3550(3) 0.00471(19) 0.1394(3)
C9C C 0.3716(3) 0.0391(2) 0.1257(3)
H5C H 0.3627 0.0634 0.1354
C10C C 0.4010(3) 0.0382(2) 0.0980(3)
H6C H 0.4118 0.0620 0.0892
C11C C 0.4153(2) 0.0031(2) 0.0827(2)
C12C C 0.3987(3) -0.03185(19) 0.0967(3)
H7C H 0.4079 -0.0560 0.0873
C13C C 0.3691(3) -0.0311(2) 0.1240(4)
C14C C 0.3259(3) -0.06764(19) 0.1648(4)
C15C C 0.3124(3) -0.03243(18) 0.1833(3)
C16C C 0.2845(3) -0.0360(2) 0.2131(3)
H8C H 0.2741 -0.0133 0.2247
C17C C 0.2718(3) -0.07317(19) 0.2260(3)
H9C H 0.2541 -0.0752 0.2469
C18C C 0.2857(3) -0.10698(18) 0.2076(3)
C19C C 0.3135(3) -0.10424(19) 0.1778(3)
H10C H 0.3238 -0.1271 0.1665
C20C C 0.44687(19) 0.0020(2) 0.05213(19)
C21C C 0.2728(2) -0.14762(18) 0.2196(3)
N1C N 0.3251(3) 0.00364(17) 0.1685(3)
O2C O 0.29942(17) 0.17244(13) 0.24622(17)
O3C O 0.24417(17) 0.16890(14) 0.21035(18)
O4C O 0.3530(3) -0.06689(14) 0.1347(3)
O5C O 0.45802(16) -0.03142(12) 0.04004(16)
O6C O 0.46011(15) 0.03484(12) 0.04125(16)
O7C O 0.28348(17) -0.17521(12) 0.19759(19)
O8C O 0.25060(18) -0.15031(13) 0.24993(17)
O9C O 0.5000 -0.10326(19) 0.0000
H11C H 0.4939 -0.1114 -0.0221
H11G H 0.5061 -0.1114 0.0221
Zn1D Zn -0.22596(2) 0.26854(2) 0.69831(2)
C1D C -0.15514(17) 0.2236(2) 0.7240(2)
C2D C -0.11436(17) 0.2107(2) 0.7129(2)
C3D C -0.0962(2) 0.2263(3) 0.6804(3)
H1D H -0.1095 0.2456 0.6660
C4D C -0.0586(3) 0.2148(4) 0.6678(4)
H2D H -0.0465 0.2265 0.6460
C5D C -0.0403(2) 0.1849(3) 0.6892(3)
C6D C -0.0574(3) 0.1700(4) 0.7220(4)
H3D H -0.0437 0.1514 0.7370
C7D C -0.0954(2) 0.1819(3) 0.7341(3)
H4D H -0.1074 0.1704 0.7560
C8D C -0.00471(19) 0.1394(3) 0.6450(3)
C9D C -0.0391(2) 0.1257(3) 0.6284(3)
H5D H -0.0634 0.1354 0.6373
C10D C -0.0382(2) 0.0980(3) 0.5990(3)
H6D H -0.0620 0.0892 0.5882
C11D C -0.0031(2) 0.0827(2) 0.5847(2)
C12D C 0.03185(19) 0.0967(3) 0.6013(3)
H7D H 0.0560 0.0873 0.5921
C13D C 0.0311(2) 0.1240(4) 0.6309(3)
C14D C 0.06764(19) 0.1648(4) 0.6741(3)
C15D C 0.03243(18) 0.1833(3) 0.6876(3)
C16D C 0.0360(2) 0.2131(3) 0.7155(3)
H8D H 0.0133 0.2247 0.7259
C17D C 0.07317(19) 0.2260(3) 0.7282(3)
H9D H 0.0752 0.2469 0.7459
C18D C 0.10698(18) 0.2076(3) 0.7143(3)
C19D C 0.10424(19) 0.1778(3) 0.6865(3)
H10D H 0.1271 0.1665 0.6762
C20D C -0.0020(2) 0.05213(19) 0.55313(19)
C21D C 0.14762(18) 0.2196(3) 0.7272(2)
N1D N -0.00364(17) 0.1685(3) 0.6749(3)
O2D O -0.17244(13) 0.24622(17) 0.70058(17)
O3D O -0.16890(14) 0.21035(18) 0.75583(17)
O4D O 0.06689(14) 0.1347(3) 0.6470(3)
O5D O 0.03142(12) 0.04004(16) 0.54198(16)
O6D O -0.03484(12) 0.04125(16) 0.53989(15)
O7D O 0.17521(12) 0.19759(19) 0.71652(17)
O8D O 0.15031(13) 0.24993(17) 0.74940(18)
Zn1F Zn -0.30169(2) -0.22596(2) 0.26854(2)
C1F C -0.2760(2) -0.15514(17) 0.2236(2)
C2F C -0.2871(2) -0.11436(17) 0.2107(2)
C3F C -0.3196(3) -0.0962(2) 0.2263(3)
H1F H -0.3340 -0.1095 0.2456
C4F C -0.3322(4) -0.0586(3) 0.2148(4)
H2F H -0.3540 -0.0465 0.2265
C5F C -0.3108(3) -0.0403(2) 0.1849(3)
C6F C -0.2780(4) -0.0574(3) 0.1700(4)
H3F H -0.2630 -0.0437 0.1514
C7F C -0.2659(3) -0.0954(2) 0.1819(3)
H4F H -0.2440 -0.1074 0.1704
C8F C -0.3550(3) -0.00471(19) 0.1394(3)
C9F C -0.3716(3) -0.0391(2) 0.1257(3)
H5F H -0.3627 -0.0634 0.1354
C10F C -0.4010(3) -0.0382(2) 0.0980(3)
H6F H -0.4118 -0.0620 0.0892
C11F C -0.4153(2) -0.0031(2) 0.0827(2)
C12F C -0.3987(3) 0.03185(19) 0.0967(3)
H7F H -0.4079 0.0560 0.0873
C13F C -0.3691(3) 0.0311(2) 0.1240(4)
C14F C -0.3259(3) 0.06764(19) 0.1648(4)
C15F C -0.3124(3) 0.03243(18) 0.1833(3)
C16F C -0.2845(3) 0.0360(2) 0.2131(3)
H8F H -0.2741 0.0133 0.2247
C17F C -0.2718(3) 0.07317(19) 0.2260(3)
H9F H -0.2541 0.0752 0.2469
C18F C -0.2857(3) 0.10698(18) 0.2076(3)
C19F C -0.3135(3) 0.10424(19) 0.1778(3)
H10F H -0.3238 0.1271 0.1665
C20F C -0.44687(19) -0.0020(2) 0.05213(19)
C21F C -0.2728(2) 0.14762(18) 0.2196(3)
N1F N -0.3251(3) -0.00364(17) 0.1685(3)
O2F O -0.29942(17) -0.17244(13) 0.24622(17)
O3F O -0.24417(17) -0.16890(14) 0.21035(18)
O4F O -0.3530(3) 0.06689(14) 0.1347(3)
O5F O -0.45802(16) 0.03142(12) 0.04004(16)
O6F O -0.46011(15) -0.03484(12) 0.04125(16)
O7F O -0.28348(17) 0.17521(12) 0.19759(19)
O8F O -0.25060(18) 0.15031(13) 0.24993(17)
Zn1H Zn 0.26854(2) 0.30169(2) 0.22596(2)
Zn1J Zn -0.26854(2) -0.30169(2) 0.22596(2)
Zn1N Zn -0.27404(2) 0.23146(2) 0.19831(2)
Zn1O Zn -0.19831(2) -0.27404(2) 0.76854(2)
Zn1P Zn 0.27404(2) -0.23146(2) 0.19831(2)
Zn1Q Zn -0.19831(2) 0.27404(2) 0.23146(2)
Zn1R Zn 0.19831(2) 0.27404(2) 0.76854(2)
Zn1S Zn 0.19831(2) -0.27404(2) 0.23146(2)
Zn1T Zn -0.23146(2) -0.19831(2) 0.72596(2)
Zn1U Zn 0.23146(2) -0.19831(2) 0.27404(2)
Zn1V Zn 0.23146(2) 0.19831(2) 0.72596(2)
Zn1W Zn -0.23146(2) 0.19831(2) 0.27404(2)
Zn2B Zn 0.22066(2) -0.22066(2) 0.77934(2)
Zn2D Zn -0.22066(2) 0.22066(2) 0.77934(2)
Cu1C_2 Cu -0.5000 -0.03881(3) 0.0000
Cu1E Cu -0.5000 0.03881(3) 0.0000
Cu1E_2 Cu 0.5000 0.03881(3) 0.0000
O1B O 0.25372(11) -0.25372(11) 0.74628(11)
O1D O -0.25372(11) 0.25372(11) 0.74628(11)
O3H O 0.21035(18) 0.24417(17) 0.16890(14)
O3J O -0.21035(18) -0.24417(17) 0.16890(14)
O5G O 0.54198(16) -0.03142(12) -0.04004(16)
O6E O 0.46011(15) -0.03484(12) -0.04125(16)
O6F_2 O 0.53989(15) -0.03484(12) 0.04125(16)
O7O O -0.21652(17) 0.32479(12) 0.69759(19)
O7Q O -0.21652(17) -0.32479(12) 0.30241(19)
O7R O 0.21652(17) -0.32479(12) 0.69759(19)
O7S O 0.21652(17) 0.32479(12) 0.30241(19)
O7T O -0.30241(19) -0.21652(17) 0.32479(12)
O7V O 0.30241(19) 0.21652(17) 0.32479(12)
O8N O 0.34969(13) 0.25007(17) 0.24940(18)
O8P O -0.34969(13) -0.25007(17) 0.24940(18)
O8T O -0.25007(17) -0.24940(18) 0.34969(13)
O8U O 0.25007(17) -0.24940(18) 0.65031(13)
O8V O 0.25007(17) 0.24940(18) 0.34969(13)
O8W O -0.25007(17) 0.24940(18) 0.65031(13)
loop_
_geom_bond_atom_site_label_1
_geom_bond_atom_site_label_2
_geom_bond_site_symmetry_1
_geom_bond_site_symmetry_2
Zn1 O1 1_555 1_555
Zn2 O1 1_555 1_555
Cu1 O5 1_555 1_555
C1 C2 1_555 1_555
C2 C3 1_555 1_555
C3 H1 1_555 1_555
C4 C3 1_555 1_555
H2 C4 1_555 1_555
C5 C4 1_555 1_555
C6 C5 1_555 1_555
H3 C6 1_555 1_555
C7 C2 1_555 1_555
H4 C7 1_555 1_555
C8 C9 1_555 1_555
C9 H5 1_555 1_555
C10 C9 1_555 1_555
H6 C10 1_555 1_555
C11 C10 1_555 1_555
C12 C11 1_555 1_555
H7 C12 1_555 1_555
C13 C8 1_555 1_555
C14 C15 1_555 1_555
C15 C16 1_555 1_555
C16 H8 1_555 1_555
C17 C16 1_555 1_555
H9 C17 1_555 1_555
C18 C17 1_555 1_555
C19 C14 1_555 1_555
H10 C19 1_555 1_555
C20 C11 1_555 1_555
C21 C18 1_555 1_555
N1 C5 1_555 1_555
O1 Zn1C 1_555 1_555
O2 Zn1 1_555 1_555
O3 Zn2 1_555 1_555
O4 C13 1_555 1_555
O5 C20 1_555 1_555
O6 C20 1_555 1_555
O7 C21 1_555 1_555
O8 C21 1_555 1_555
O9 Cu1 1_555 1_555
H11 O9 1_555 1_555
H11B O9 1_555 1_555
Zn1A O1A 1_555 1_555
Zn2A O1A 1_555 1_555
Cu1A O6 1_555 1_555
C1A C2A 1_555 1_555
C2A C3A 1_555 1_555
C3A H1A 1_555 1_555
C4A C3A 1_555 1_555
H2A C4A 1_555 1_555
C5A C4A 1_555 1_555
C6A C5A 1_555 1_555
H3A C6A 1_555 1_555
C7A C2A 1_555 1_555
H4A C7A 1_555 1_555
C8A C9A 1_555 1_555
C9A H5A 1_555 1_555
C10A C9A 1_555 1_555
H6A C10A 1_555 1_555
C11A C10A 1_555 1_555
C12A C11A 1_555 1_555
H7A C12A 1_555 1_555
C13A C8A 1_555 1_555
C14A C15A 1_555 1_555
C15A C16A 1_555 1_555
C16A H8A 1_555 1_555
C17A C16A 1_555 1_555
H9A C17A 1_555 1_555
C18A C17A 1_555 1_555
C19A C14A 1_555 1_555
H10A C19A 1_555 1_555
C20A C11A 1_555 1_555
C21A C18A 1_555 1_555
N1A C5A 1_555 1_555
O1A Zn1F 1_555 1_555
O2A Zn1A 1_555 1_555
O3A Zn2A 1_555 1_555
O4A C13A 1_555 1_555
O5A Cu1A 1_555 1_555
O6A Cu1 1_555 1_555
O7A C21A 1_555 1_555
O8A C21A 1_555 1_555
O9A Cu1A 1_555 1_555
H11A O9A 1_555 1_555
H11D O9A 1_555 1_555
Zn1B O2B 1_555 1_555
C1B C2B 1_555 1_555
C2B C3B 1_555 1_555
C3B H1B 1_555 1_555
C4B C3B 1_555 1_555
H2B C4B 1_555 1_555
C5B C4B 1_555 1_555
C6B C5B 1_555 1_555
H3B C6B 1_555 1_555
C7B C2B 1_555 1_555
H4B C7B 1_555 1_555
C8B C9B 1_555 1_555
C9B H5B 1_555 1_555
C10B C9B 1_555 1_555
H6B C10B 1_555 1_555
C11B C10B 1_555 1_555
C12B C11B 1_555 1_555
H7B C12B 1_555 1_555
C13B C8B 1_555 1_555
C14B C15B 1_555 1_555
C15B C16B 1_555 1_555
C16B H8B 1_555 1_555
C17B C16B 1_555 1_555
H9B C17B 1_555 1_555
C18B C17B 1_555 1_555
C19B C14B 1_555 1_555
H10B C19B 1_555 1_555
C20B C11B 1_555 1_555
C21B C18B 1_555 1_555
N1B C5B 1_555 1_555
O2B C1B 1_555 1_555
O3B C1B 1_555 1_555
O4B C13B 1_555 1_555
O5B Cu1 1_555 1_555
O6B Cu1A 1_555 1_555
O7B C21B 1_555 1_555
O8B C21B 1_555 1_555
Zn1C O2C 1_555 1_555
Cu1C O5C 1_555 1_555
C1C C2C 1_555 1_555
C2C C3C 1_555 1_555
C3C H1C 1_555 1_555
C4C C3C 1_555 1_555
H2C C4C 1_555 1_555
C5C C4C 1_555 1_555
C6C C5C 1_555 1_555
H3C C6C 1_555 1_555
C7C C2C 1_555 1_555
H4C C7C 1_555 1_555
C8C C9C 1_555 1_555
C9C H5C 1_555 1_555
C10C C9C 1_555 1_555
H6C C10C 1_555 1_555
C11C C10C 1_555 1_555
C12C C11C 1_555 1_555
H7C C12C 1_555 1_555
C13C C8C 1_555 1_555
C14C C15C 1_555 1_555
C15C C16C 1_555 1_555
C16C H8C 1_555 1_555
C17C C16C 1_555 1_555
H9C C17C 1_555 1_555
C18C C17C 1_555 1_555
C19C C14C 1_555 1_555
H10C C19C 1_555 1_555
C20C C11C 1_555 1_555
C21C C18C 1_555 1_555
N1C C5C 1_555 1_555
O2C C1C 1_555 1_555
O3C Zn2 1_555 1_555
O4C C13C 1_555 1_555
O5C C20C 1_555 1_555
O6C C20C 1_555 1_555
O7C C21C 1_555 1_555
O8C C21C 1_555 1_555
O9C Cu1C 1_555 1_555
H11C O9C 1_555 1_555
H11G O9C 1_555 1_555
Zn1D O2D 1_555 1_555
C1D C2D 1_555 1_555
C2D C3D 1_555 1_555
C3D H1D 1_555 1_555
C4D C3D 1_555 1_555
H2D C4D 1_555 1_555
C5D C4D 1_555 1_555
C6D C5D 1_555 1_555
H3D C6D 1_555 1_555
C7D C2D 1_555 1_555
H4D C7D 1_555 1_555
C8D C9D 1_555 1_555
C9D H5D 1_555 1_555
C10D C9D 1_555 1_555
H6D C10D 1_555 1_555
C11D C10D 1_555 1_555
C12D C11D 1_555 1_555
H7D C12D 1_555 1_555
C13D C8D 1_555 1_555
C14D C15D 1_555 1_555
C15D C16D 1_555 1_555
C16D H8D 1_555 1_555
C17D C16D 1_555 1_555
H9D C17D 1_555 1_555
C18D C17D 1_555 1_555
C19D C14D 1_555 1_555
H10D C19D 1_555 1_555
C20D C11D 1_555 1_555
C21D C18D 1_555 1_555
N1D C5D 1_555 1_555
O2D C1D 1_555 1_555
O3D C1D 1_555 1_555
O4D C13D 1_555 1_555
O5D Cu1A 1_555 1_555
O6D Cu1 1_555 1_555
O7D C21D 1_555 1_555
O8D C21D 1_555 1_555
Zn1F O2F 1_555 1_555
C1F C2F 1_555 1_555
C2F C3F 1_555 1_555
C3F H1F 1_555 1_555
C4F C3F 1_555 1_555
H2F C4F 1_555 1_555
C5F C4F 1_555 1_555
C6F C5F 1_555 1_555
H3F C6F 1_555 1_555
C7F C2F 1_555 1_555
H4F C7F 1_555 1_555
C8F C9F 1_555 1_555
C9F H5F 1_555 1_555
C10F C9F 1_555 1_555
H6F C10F 1_555 1_555
C11F C10F 1_555 1_555
C12F C11F 1_555 1_555
H7F C12F 1_555 1_555
C13F C8F 1_555 1_555
C14F C15F 1_555 1_555
C15F C16F 1_555 1_555
C16F H8F 1_555 1_555
C17F C16F 1_555 1_555
H9F C17F 1_555 1_555
C18F C17F 1_555 1_555
C19F C14F 1_555 1_555
H10F C19F 1_555 1_555
C20F C11F 1_555 1_555
C21F C18F 1_555 1_555
N1F C5F 1_555 1_555
O2F C1F 1_555 1_555
O3F Zn2A 1_555 1_555
O4F C13F 1_555 1_555
O5F C20F 1_555 1_555
O6F C20F 1_555 1_555
O7F C21F 1_555 1_555
O8F C21F 1_555 1_555
Zn1H O1 1_555 1_555
Zn1J O1A 1_555 1_555
Zn1N O7F 1_555 1_555
Zn1O O8B 1_555 1_555
Zn1P O7C 1_555 1_555
Zn1Q O8 1_555 1_555
Zn1R O8D 1_555 1_555
Zn1S O8A 1_555 1_555
Zn1T O7B 1_555 1_555
Zn1U O7A 1_555 1_555
Zn1V O7D 1_555 1_555
Zn1W O7 1_555 1_555
Zn2B O3B 1_555 1_555
Zn2D O3D 1_555 1_555
Cu1C_2 O6F 1_555 1_555
Cu1E O5F 1_555 1_555
Cu1E_2 O6C 1_555 1_555
O1B Zn1B 1_555 1_555
O1D Zn1D 1_555 1_555
O3H Zn2 1_555 1_555
O3J Zn2A 1_555 1_555
O5G Cu1C 1_555 1_555
O6E Cu1C 1_555 1_555
O6F_2 Cu1C 1_555 1_555
O7O Zn1D 1_555 1_555
O7Q Zn1A 1_555 1_555
O7R Zn1B 1_555 1_555
O7S Zn1 1_555 1_555
O7T Zn1F 1_555 1_555
O7V Zn1C 1_555 1_555
O8N Zn1C 1_555 1_555
O8P Zn1F 1_555 1_555
O8T Zn1A 1_555 1_555
O8U Zn1B 1_555 1_555
O8V Zn1 1_555 1_555
O8W Zn1D 1_555 1_555
C1 O2 1_555 1_555
C1 O3 1_555 1_555
C6 C7 1_555 1_555
C8 N1 1_555 1_555
C12 C13 1_555 1_555
C14 O4 1_555 1_555
C15 N1 1_555 1_555
C18 C19 1_555 1_555
C1A O2A 1_555 1_555
C1A O3A 1_555 1_555
C6A C7A 1_555 1_555
C8A N1A 1_555 1_555
C12A C13A 1_555 1_555
C14A O4A 1_555 1_555
C15A N1A 1_555 1_555
C18A C19A 1_555 1_555
C20A O5A 1_555 1_555
C20A O6A 1_555 1_555
C6B C7B 1_555 1_555
C8B N1B 1_555 1_555
C12B C13B 1_555 1_555
C14B O4B 1_555 1_555
C15B N1B 1_555 1_555
C18B C19B 1_555 1_555
C20B O5B 1_555 1_555
C20B O6B 1_555 1_555
C1C O3C 1_555 1_555
C6C C7C 1_555 1_555
C8C N1C 1_555 1_555
C12C C13C 1_555 1_555
C14C O4C 1_555 1_555
C15C N1C 1_555 1_555
C18C C19C 1_555 1_555
O8C Zn1U 1_555 1_555
C6D C7D 1_555 1_555
C8D N1D 1_555 1_555
C12D C13D 1_555 1_555
C14D O4D 1_555 1_555
C15D N1D 1_555 1_555
C18D C19D 1_555 1_555
C20D O5D 1_555 1_555
C20D O6D 1_555 1_555
C1F O3F 1_555 1_555
C6F C7F 1_555 1_555
C8F N1F 1_555 1_555
C12F C13F 1_555 1_555
C14F O4F 1_555 1_555
C15F N1F 1_555 1_555
C18F C19F 1_555 1_555
O8F Zn1W 1_555 1_555
Zn2B O1B 1_555 1_555
Zn2D O1D 1_555 1_555

#END
