
#######################################################################
#
#                 Cambridge Crystallographic Data Centre
#                                CCDC 
#
#######################################################################
#
# If this CIF has been generated from an entry in the Cambridge 
# Structural Database, then it will include bibliographic, chemical, 
# crystal, experimental, refinement or atomic coordinate data resulting 
# from the CCDC's data processing and validation procedures.
#
#######################################################################

data_KOXGAH
_chemical_formula_moiety         '(C42 H44 Cu2 I2 N6 O6)n'
_symmetry_cell_setting           tetragonal
_symmetry_space_group_name_H-M   'P 43 21 2'
_symmetry_Int_Tables_number      96
_space_group_name_Hall           'P 4nw 2abw'
loop_
_symmetry_equiv_pos_site_id
_symmetry_equiv_pos_as_xyz
1 x,y,z
2 1/2-y,1/2+x,3/4+z
3 -x,-y,1/2+z
4 1/2+y,1/2-x,1/4+z
5 1/2+x,1/2-y,1/4-z
6 1/2-x,1/2+y,3/4-z
7 y,x,-z
8 -y,-x,1/2-z
_cell_length_a                   12.7160(10)
_cell_length_b                   12.7160(10)
_cell_length_c                   62.0780(10)
_cell_angle_alpha                90
_cell_angle_beta                 90
_cell_angle_gamma                90
_cell_volume                     10037.8
loop_
_atom_site_label
_atom_site_type_symbol
_atom_site_fract_x
_atom_site_fract_y
_atom_site_fract_z
O1 O 0.494(3) -0.8318(17) 0.0776(4)
N1 N 0.3509(9) -0.8477(7) 0.0905(2)
C1 C 0.4535(10) -0.8236(16) 0.0950(3)
H1 H 0.4845 -0.8051 0.1084
C2 C 0.308(2) -0.876(2) 0.0700(4)
H2 H 0.2681 -0.8166 0.0641
H3 H 0.2608 -0.9366 0.0718
H4 H 0.3649 -0.8946 0.0601
C3 C 0.2834(15) -0.8431(17) 0.1089(4)
H5 H 0.3260 -0.8359 0.1219
H6 H 0.2416 -0.9078 0.1097
H7 H 0.2363 -0.7825 0.1075
I1 I -0.19820(5) -0.05638(5) -0.099134(10)
I2 I 0.16220(5) -0.04593(5) -0.090210(9)
Cu1 Cu -0.02989(8) -0.05077(8) -0.074695(14)
Cu2 Cu -0.00476(9) -0.05523(8) -0.115343(15)
O3 O -0.2421(4) -0.5311(5) 0.04154(8)
O4 O 0.1311(4) -0.5554(6) 0.04215(8)
O5 O -0.0498(5) -0.7369(4) 0.01923(8)
O6 O -0.0590(5) -0.3598(4) 0.01689(8)
N3 N -0.4271(5) -0.4976(6) 0.11434(11)
N4 N 0.3169(5) -0.5139(6) 0.11505(11)
N5 N -0.0484(6) -0.9251(5) -0.05393(9)
N6 N -0.0398(5) -0.1820(5) -0.05592(10)
C7 C -0.0545(6) -0.5432(5) 0.04227(11)
C8 C -0.1494(6) -0.5310(6) 0.05372(12)
C9 C -0.1486(7) -0.5227(7) 0.07568(13)
C10 C -0.0557(7) -0.5223(7) 0.08605(11)
H15 H -0.0564 -0.5143 0.1013
C11 C 0.0414(6) -0.5330(7) 0.07592(12)
C12 C 0.0370(5) -0.5466(6) 0.05359(12)
C13 C -0.2484(6) -0.5142(7) 0.08870(13)
C14 C -0.2595(7) -0.4344(8) 0.10422(14)
H16 H -0.2058 -0.3833 0.1061
C15 C -0.3479(7) -0.4311(8) 0.11642(14)
H17 H -0.3532 -0.3778 0.1271
C16 C -0.4179(8) -0.5731(9) 0.09926(15)
H18 H -0.4736 -0.6222 0.0977
C17 C -0.3328(7) -0.5826(8) 0.08616(15)
H19 H -0.3310 -0.6354 0.0754
C18 C 0.1383(7) -0.5286(7) 0.08856(13)
C19 C 0.1516(7) -0.5893(7) 0.10703(13)
H20 H 0.0995 -0.6395 0.1108
C20 C 0.2389(7) -0.5776(8) 0.11991(14)
H21 H 0.2431 -0.6172 0.1329
C21 C 0.3079(7) -0.4565(9) 0.09686(15)
H22 H 0.3620 -0.4081 0.0933
C22 C 0.2228(7) -0.4661(8) 0.08335(13)
H23 H 0.2224 -0.4287 0.0701
C23 C -0.2923(8) -0.4311(9) 0.03944(15)
H24 H -0.3227 -0.4106 0.0533
H25 H -0.3482 -0.4357 0.0286
H26 H -0.2405 -0.3785 0.0350
C24 C 0.1770(8) -0.6601(8) 0.04378(17)
H27 H 0.1833 -0.6798 0.0590
H28 H 0.2469 -0.6601 0.0371
H29 H 0.1318 -0.7109 0.0363
C25 C -0.0552(6) -0.5486(6) 0.01806(11)
C26 C -0.0560(6) -0.6436(6) 0.00746(11)
C27 C -0.0601(7) -0.6483(6) -0.01523(11)
C28 C -0.0578(7) -0.5563(7) -0.02641(11)
H30 H -0.0575 -0.5593 -0.0417
C29 C -0.0560(6) -0.4576(6) -0.01651(12)
C30 C -0.0580(6) -0.4554(6) 0.00594(12)
C31 C -0.0578(7) -0.7487(6) -0.02727(12)
C32 C 0.0148(7) -0.8267(6) -0.02343(13)
H31 H 0.0620 -0.8223 -0.0116
C33 C 0.0170(7) -0.9138(7) -0.03762(13)
H32 H 0.0683 -0.9668 -0.0353
C34 C -0.1202(7) -0.8515(7) -0.05738(12)
H33 H -0.1676 -0.8595 -0.0691
C35 C -0.1280(7) -0.7635(7) -0.04444(13)
H34 H -0.1811 -0.7127 -0.0472
C36 C -0.0520(7) -0.3595(6) -0.02958(12)
C37 C 0.0167(7) -0.3561(6) -0.04691(12)
H35 H 0.0599 -0.4149 -0.0502
C38 C 0.0214(7) -0.2664(6) -0.05925(12)
H36 H 0.0706 -0.2641 -0.0707
C39 C -0.1082(7) -0.1881(7) -0.03943(13)
H37 H -0.1540 -0.1303 -0.0370
C40 C -0.1153(7) -0.2727(7) -0.02602(13)
H38 H -0.1634 -0.2721 -0.0143
C41 C -0.1514(7) -0.7783(7) 0.02550(15)
H39 H -0.1893 -0.7254 0.0340
H40 H -0.1415 -0.8419 0.0342
H41 H -0.1922 -0.7956 0.0126
C42 C 0.0417(8) -0.3177(7) 0.02135(16)
H42 H 0.0869 -0.3730 0.0273
H43 H 0.0350 -0.2605 0.0318
H44 H 0.0728 -0.2905 0.0080
Cu1_2 Cu -0.02989(8) -1.05077(8) -0.074695(14)
Cu2C Cu -0.55523(8) -0.49524(9) 0.134657(15)
Cu2C_2 Cu 0.44477(8) -0.49524(9) 0.134657(15)
N3A N -0.0024(6) 0.0729(5) -0.13566(11)
N4A N 0.0139(6) -0.1831(5) -0.13495(11)
N5_2 N -0.0484(6) 0.0749(5) -0.05393(9)
O7 O -0.2751(13) -0.506(2) -0.0609(3)
N7 N -0.1711(8) -0.4660(9) -0.09009(17)
C43 C -0.2371(10) -0.446(2) -0.0734(2)
H45 H -0.2555 -0.3742 -0.0715
C44 C -0.1367(18) -0.5705(13) -0.0952(3)
H46 H -0.1190 -0.6079 -0.0819
H47 H -0.0745 -0.5669 -0.1045
H48 H -0.1931 -0.6081 -0.1027
C45 C -0.1331(13) -0.3831(11) -0.1034(2)
H49 H -0.1537 -0.3153 -0.0972
H50 H -0.1631 -0.3899 -0.1179
H51 H -0.0562 -0.3870 -0.1043
loop_
_geom_bond_atom_site_label_1
_geom_bond_atom_site_label_2
_geom_bond_site_symmetry_1
_geom_bond_site_symmetry_2
O1 C1 1_555 1_555
N1 C1 1_555 1_555
C1 H1 1_555 1_555
C2 N1 1_555 1_555
H2 C2 1_555 1_555
H3 C2 1_555 1_555
H4 C2 1_555 1_555
C3 N1 1_555 1_555
H5 C3 1_555 1_555
H6 C3 1_555 1_555
H7 C3 1_555 1_555
I1 Cu1 1_555 1_555
I2 Cu1 1_555 1_555
Cu1 Cu2 1_555 1_555
Cu2 I1 1_555 1_555
O3 C8 1_555 1_555
O4 C12 1_555 1_555
O5 C26 1_555 1_555
O6 C30 1_555 1_555
N3 C15 1_555 1_555
N4 C20 1_555 1_555
N5 C33 1_555 1_555
N6 Cu1 1_555 1_555
C7 C8 1_555 1_555
C8 C9 1_555 1_555
C9 C10 1_555 1_555
C10 H15 1_555 1_555
C11 C10 1_555 1_555
C12 C7 1_555 1_555
C13 C9 1_555 1_555
C14 C13 1_555 1_555
H16 C14 1_555 1_555
C15 C14 1_555 1_555
H17 C15 1_555 1_555
C16 N3 1_555 1_555
H18 C16 1_555 1_555
C17 C13 1_555 1_555
H19 C17 1_555 1_555
C18 C11 1_555 1_555
C19 C18 1_555 1_555
H20 C19 1_555 1_555
C20 C19 1_555 1_555
H21 C20 1_555 1_555
C21 N4 1_555 1_555
H22 C21 1_555 1_555
C22 C18 1_555 1_555
H23 C22 1_555 1_555
C23 O3 1_555 1_555
H24 C23 1_555 1_555
H25 C23 1_555 1_555
H26 C23 1_555 1_555
C24 O4 1_555 1_555
H27 C24 1_555 1_555
H28 C24 1_555 1_555
H29 C24 1_555 1_555
C25 C7 1_555 1_555
C26 C25 1_555 1_555
C27 C26 1_555 1_555
C28 C27 1_555 1_555
H30 C28 1_555 1_555
C29 C28 1_555 1_555
C30 C25 1_555 1_555
C31 C27 1_555 1_555
C32 C31 1_555 1_555
H31 C32 1_555 1_555
C33 C32 1_555 1_555
H32 C33 1_555 1_555
C34 N5 1_555 1_555
H33 C34 1_555 1_555
C35 C31 1_555 1_555
H34 C35 1_555 1_555
C36 C29 1_555 1_555
C37 C36 1_555 1_555
H35 C37 1_555 1_555
C38 N6 1_555 1_555
H36 C38 1_555 1_555
C39 N6 1_555 1_555
H37 C39 1_555 1_555
C40 C36 1_555 1_555
H38 C40 1_555 1_555
C41 O5 1_555 1_555
H39 C41 1_555 1_555
H40 C41 1_555 1_555
H41 C41 1_555 1_555
C42 O6 1_555 1_555
H42 C42 1_555 1_555
H43 C42 1_555 1_555
H44 C42 1_555 1_555
O7 C43 1_555 1_555
N7 C43 1_555 1_555
C43 H45 1_555 1_555
C44 N7 1_555 1_555
H46 C44 1_555 1_555
H47 C44 1_555 1_555
H48 C44 1_555 1_555
C45 N7 1_555 1_555
H49 C45 1_555 1_555
H50 C45 1_555 1_555
H51 C45 1_555 1_555
Cu1_2 N5 1_555 1_555
Cu2C N3 1_555 1_555
Cu2C_2 N4 1_555 1_555
N3A Cu2 1_555 1_555
N4A Cu2 1_555 1_555
N5_2 Cu1 1_555 1_555
I2 Cu2 1_555 1_555
C11 C12 1_555 1_555
C16 C17 1_555 1_555
C21 C22 1_555 1_555
C29 C30 1_555 1_555
C34 C35 1_555 1_555
C37 C38 1_555 1_555
C39 C40 1_555 1_555

#END
