
#######################################################################
#
#                 Cambridge Crystallographic Data Centre
#                                CCDC 
#
#######################################################################
#
# If this CIF has been generated from an entry in the Cambridge 
# Structural Database, then it will include bibliographic, chemical, 
# crystal, experimental, refinement or atomic coordinate data resulting 
# from the CCDC's data processing and validation procedures.
#
#######################################################################

data_REZXUQ
_chemical_formula_moiety         '(C70 H68 Cr3 N4 O20 1+)n'
_symmetry_cell_setting           hexagonal
_symmetry_space_group_name_H-M   'P -6 2 c'
_symmetry_Int_Tables_number      190
_space_group_name_Hall           'P -6c -2c'
loop_
_symmetry_equiv_pos_site_id
_symmetry_equiv_pos_as_xyz
1 x,y,z
2 -x+y,-x,1/2-z
3 y,x,1/2+z
4 -y,x-y,z
5 x-y,-y,-z
6 x,y,1/2-z
7 -x,-x+y,1/2+z
8 -x+y,-x,z
9 y,x,-z
10 -y,x-y,1/2-z
11 x-y,-y,1/2+z
12 -x,-x+y,-z
_cell_length_a                   20.0405(10)
_cell_length_b                   20.0405(10)
_cell_length_c                   22.9108(10)
_cell_angle_alpha                90
_cell_angle_beta                 90
_cell_angle_gamma                120
_cell_volume                     7968.71
loop_
_atom_site_label
_atom_site_type_symbol
_atom_site_fract_x
_atom_site_fract_y
_atom_site_fract_z
_atom_site_U_iso_or_equiv
_atom_site_thermal_displace_type
C5 C 0.0843 0.2590 0.1098 0.0000 Uiso
C6 C 0.0650 0.1978 0.1574 0.0000 Uiso
N2 N 0.1627 0.3123 0.0996 0.0000 Uiso
C7 C 0.1829 0.3473 0.0442 0.0000 Uiso
C8 C 0.1299 0.3673 0.0198 0.0000 Uiso
C9 C 0.0513 0.3202 0.0330 0.0000 Uiso
C10 C 0.0286 0.2619 0.0758 0.0000 Uiso
C11 C 0.2668 0.3988 0.0308 0.0000 Uiso
C12 C 0.2862 0.3848 -0.1967 0.0000 Uiso
C13 C 0.2652 0.3048 -0.1991 0.0000 Uiso
N3 N 0.2224 0.2628 -0.2500 0.0000 Uiso
C14 C 0.3341 0.4189 -0.2500 0.0000 Uiso
C15 C 0.2598 0.2614 -0.1456 0.0000 Uiso
C12E C 0.2862 0.3848 -0.3033 0.0000 Uiso
C13E C 0.2652 0.3048 -0.3009 0.0000 Uiso
C15E C 0.2598 0.2614 -0.3544 0.0000 Uiso
C16 C -0.0543 0.3061 0.2500 0.0000 Uiso
C17 C -0.0469 0.2403 0.2500 0.0000 Uiso
C18 C 0.0104 0.3791 0.2500 0.0000 Uiso
N4 N 0.0838 0.3872 0.2500 0.0000 Uiso
C19 C 0.0264 0.2483 0.2500 0.0000 Uiso
C20 C 0.0916 0.3217 0.2500 0.0000 Uiso
C21 C 0.1698 0.3299 0.2500 0.0000 Uiso
C22 C 0.0025 0.4495 0.2500 0.0000 Uiso
O1 O -0.0000 0.0000 0.1445 0.0000 Uiso
O2 O 0.3011 0.3011 0.0000 0.0000 Uiso
O3 O -0.1327 -0.2336 0.1453 0.0000 Uiso
O4 O 0.5782 0.6832 0.0991 0.0000 Uiso
Cr1 Cr 0.7271 0.2800 0.2500 0.0000 Uiso
O5 O 0.6667 0.3333 0.2500 0.0000 Uiso
O6 O 0.7881 0.3475 0.1870 0.0000 Uiso
O7 O 0.7892 0.2307 0.2500 0.0000 Uiso
O8 O 0.7857 0.4525 0.1879 0.0000 Uiso
C23 C 0.7947 0.4050 0.1592 0.0000 Uiso
C24 C 0.8597 0.4388 0.1147 0.0000 Uiso
C25 C 0.8910 0.5143 0.0957 0.0000 Uiso
C26 C 0.9477 0.5434 0.0494 0.0000 Uiso
C27 C 0.9718 0.4965 0.0239 0.0000 Uiso
C28 C 0.9363 0.4192 0.0409 0.0000 Uiso
C29 C 0.8727 0.3888 0.0807 0.0000 Uiso
Cr1C Cr 0.7200 0.4471 0.2500 0.0000 Uiso
Cr1A Cr 0.5529 0.2729 0.2500 0.0000 Uiso
Cr1F Cr 1.2729 0.5529 -0.2500 0.0000 Uiso
Cr1B Cr 1.2800 0.7271 -0.2500 0.0000 Uiso
Cr1F_2 Cr 1.2729 0.5529 0.7500 0.0000 Uiso
Cr1B_2 Cr 1.2800 0.7271 0.7500 0.0000 Uiso
Cr1B_3 Cr 0.2800 -0.2729 -0.2500 0.0000 Uiso
Cr1D Cr 0.4471 -0.2800 -0.2500 0.0000 Uiso
O6K O 1.2119 0.5594 -0.1870 0.0000 Uiso
O6E O 0.7881 0.3475 0.3130 0.0000 Uiso
O6F O 1.2119 0.5594 0.6870 0.0000 Uiso
O6G O 0.5594 0.2119 0.1870 0.0000 Uiso
O6H O 0.3475 -0.2119 -0.1870 0.0000 Uiso
O6C O 0.6525 0.4406 0.1870 0.0000 Uiso
O6I O 0.6525 0.4406 0.3130 0.0000 Uiso
O6A O 0.5594 0.2119 0.3130 0.0000 Uiso
O7C O 0.7693 0.5585 0.2500 0.0000 Uiso
O7A O 0.4415 0.2108 0.2500 0.0000 Uiso
O8K O 1.2143 0.6668 -0.1879 0.0000 Uiso
O8E O 0.7857 0.4525 0.3121 0.0000 Uiso
O8F O 1.2143 0.6668 0.6879 0.0000 Uiso
O8G O 0.6668 0.2143 0.1879 0.0000 Uiso
O8H O 0.4525 -0.2143 -0.1879 0.0000 Uiso
O8A O 0.6668 0.2143 0.3121 0.0000 Uiso
O8C O 0.5475 0.3332 0.1879 0.0000 Uiso
O8I O 0.5475 0.3332 0.3121 0.0000 Uiso
C23K C 1.2053 0.6103 -0.1592 0.0000 Uiso
C23E C 0.7947 0.4050 0.3408 0.0000 Uiso
C23F C 1.2053 0.6103 0.6592 0.0000 Uiso
C23G C 0.6103 0.2053 0.1592 0.0000 Uiso
C23H C 0.4050 -0.2053 -0.1592 0.0000 Uiso
C24K C 1.1403 0.5791 -0.1147 0.0000 Uiso
C24E C 0.8597 0.4388 0.3853 0.0000 Uiso
C24F C 1.1403 0.5791 0.6147 0.0000 Uiso
C24G C 0.5791 0.1403 0.1147 0.0000 Uiso
C24H C 0.4388 -0.1403 -0.1147 0.0000 Uiso
C25K C 1.1090 0.6233 -0.0957 0.0000 Uiso
C25E C 0.8910 0.5143 0.4043 0.0000 Uiso
C25F C 1.1090 0.6233 0.5957 0.0000 Uiso
C25G C 0.6233 0.1090 0.0957 0.0000 Uiso
C25H C 0.5143 -0.1090 -0.0957 0.0000 Uiso
C26K C 1.0523 0.5957 -0.0494 0.0000 Uiso
C26E C 0.9477 0.5434 0.4506 0.0000 Uiso
C26F C 1.0523 0.5957 0.5494 0.0000 Uiso
C26G C 0.5957 0.0523 0.0494 0.0000 Uiso
C26H C 0.5434 -0.0523 -0.0494 0.0000 Uiso
C27K C 1.0282 0.5247 -0.0239 0.0000 Uiso
C27E C 0.9718 0.4965 0.4761 0.0000 Uiso
C27F C 1.0282 0.5247 0.5239 0.0000 Uiso
C27G C 0.5247 0.0282 0.0239 0.0000 Uiso
C27H C 0.4965 -0.0282 -0.0239 0.0000 Uiso
C28K C 1.0637 0.4829 -0.0409 0.0000 Uiso
C28E C 0.9363 0.4192 0.4591 0.0000 Uiso
C28F C 1.0637 0.4829 0.5409 0.0000 Uiso
C28G C 0.4829 0.0637 0.0409 0.0000 Uiso
C28H C 0.4192 -0.0637 -0.0409 0.0000 Uiso
C29K C 1.1273 0.5161 -0.0807 0.0000 Uiso
C29E C 0.8727 0.3888 0.4193 0.0000 Uiso
C29F C 1.1273 0.5161 0.5807 0.0000 Uiso
C29G C 0.5161 0.1273 0.0807 0.0000 Uiso
C29H C 0.3888 -0.1273 -0.0807 0.0000 Uiso
C1 C 0.3422 0.5356 0.1975 0.0000 Uiso
C2 C 0.3439 0.4668 0.1975 0.0000 Uiso
C3 C 0.2964 0.4047 0.1548 0.0000 Uiso
N1 N 0.3536 0.4374 0.2500 0.0000 Uiso
C4 C 0.3253 0.5603 0.2500 0.0000 Uiso
C1E C 0.3422 0.5356 0.3025 0.0000 Uiso
C2E C 0.3439 0.4668 0.3025 0.0000 Uiso
C3E C 0.2964 0.4047 0.3452 0.0000 Uiso
loop_
_geom_bond_atom_site_label_1
_geom_bond_atom_site_label_2
_geom_bond_site_symmetry_1
_geom_bond_site_symmetry_2
C1 C2 1_555 1_555
C2 C3 1_555 1_555
N1 C2 1_555 1_555
C4 C1 1_555 1_555
C5 C6 1_555 1_555
N2 C5 1_555 1_555
C7 N2 1_555 1_555
C8 C7 1_555 1_555
C9 C8 1_555 1_555
C10 C5 1_555 1_555
C11 C7 1_555 1_555
C12 C13 1_555 1_555
C13 N3 1_555 1_555
N3 C13E 1_555 1_555
C14 C12 1_555 1_555
C15 C13 1_555 1_555
C16 C17 1_555 1_555
C17 C19 1_555 1_555
C18 C16 1_555 1_555
N4 C18 1_555 1_555
C19 C20 1_555 1_555
C20 N4 1_555 1_555
C21 C20 1_555 1_555
C22 C18 1_555 1_555
Cr1 O5 1_555 1_555
O5 Cr1C 1_555 1_555
O6 Cr1 1_555 1_555
O7 Cr1 1_555 1_555
O8 C23 1_555 1_555
C23 O6 1_555 1_555
C24 C23 1_555 1_555
C25 C24 1_555 1_555
C26 C25 1_555 1_555
C27 C26 1_555 1_555
C28 C27 1_555 1_555
C29 C24 1_555 1_555
C1E C4 1_555 1_555
C2E N1 1_555 1_555
C3E C2E 1_555 1_555
C12E C14 1_555 1_555
C13E C12E 1_555 1_555
C15E C13E 1_555 1_555
Cr1C O8 1_555 1_555
Cr1A O5 1_555 1_555
Cr1F O6K 1_555 1_555
Cr1B O8K 1_555 1_555
Cr1F_2 O6F 1_555 1_555
Cr1B_2 O8F 1_555 1_555
Cr1B_3 O6H 1_555 1_555
Cr1D O8H 1_555 1_555
O6K C23K 1_555 1_555
O6E Cr1 1_555 1_555
O6F C23F 1_555 1_555
O6G Cr1A 1_555 1_555
O6H C23H 1_555 1_555
O6C Cr1C 1_555 1_555
O6I Cr1C 1_555 1_555
O6A Cr1A 1_555 1_555
O7C Cr1C 1_555 1_555
O7A Cr1A 1_555 1_555
O8K C23K 1_555 1_555
O8E Cr1C 1_555 1_555
O8F C23F 1_555 1_555
O8G Cr1 1_555 1_555
O8H C23H 1_555 1_555
O8A Cr1 1_555 1_555
O8C Cr1A 1_555 1_555
O8I Cr1A 1_555 1_555
C23K C24K 1_555 1_555
C23E O6E 1_555 1_555
C23F C24F 1_555 1_555
C23G O6G 1_555 1_555
C23H C24H 1_555 1_555
C24K C25K 1_555 1_555
C24E C23E 1_555 1_555
C24F C25F 1_555 1_555
C24G C23G 1_555 1_555
C24H C25H 1_555 1_555
C25K C26K 1_555 1_555
C25E C24E 1_555 1_555
C25F C26F 1_555 1_555
C25G C24G 1_555 1_555
C25H C26H 1_555 1_555
C26K C27K 1_555 1_555
C26E C25E 1_555 1_555
C26F C27F 1_555 1_555
C26G C25G 1_555 1_555
C26H C27H 1_555 1_555
C27K C27 1_555 1_555
C27E C26E 1_555 1_555
C27F C27E 1_555 1_555
C27G C26G 1_555 1_555
C27H C27G 1_555 1_555
C28K C27K 1_555 1_555
C28E C27E 1_555 1_555
C28F C27F 1_555 1_555
C28G C27G 1_555 1_555
C28H C27H 1_555 1_555
C29K C24K 1_555 1_555
C29E C24E 1_555 1_555
C29F C24F 1_555 1_555
C29G C24G 1_555 1_555
C29H C24H 1_555 1_555
C9 C10 1_555 1_555
C28 C29 1_555 1_555
C1E C2E 1_555 1_555
O8E C23E 1_555 1_555
O8G C23G 1_555 1_555
C28K C29K 1_555 1_555
C28E C29E 1_555 1_555
C28F C29F 1_555 1_555
C28G C29G 1_555 1_555
C28H C29H 1_555 1_555

#END
