
#######################################################################
#
#                 Cambridge Crystallographic Data Centre
#                                CCDC 
#
#######################################################################
#
# If this CIF has been generated from an entry in the Cambridge 
# Structural Database, then it will include bibliographic, chemical, 
# crystal, experimental, refinement or atomic coordinate data resulting 
# from the CCDC's data processing and validation procedures.
#
#######################################################################

data_XOPLOE
_chemical_formula_moiety         '(C33 H29 Cu2 N1 O12)n'
_symmetry_cell_setting           monoclinic
_symmetry_space_group_name_H-M   'C 2/c'
_symmetry_Int_Tables_number      15
_space_group_name_Hall           '-C 2yc'
loop_
_symmetry_equiv_pos_site_id
_symmetry_equiv_pos_as_xyz
1 x,y,z
2 1/2+x,1/2+y,z
3 -x,y,1/2-z
4 1/2-x,1/2+y,1/2-z
5 -x,-y,-z
6 1/2-x,1/2-y,-z
7 x,-y,1/2+z
8 1/2+x,1/2-y,1/2+z
_cell_length_a                   30.8976(12)
_cell_length_b                   16.0853(5)
_cell_length_c                   20.9200(6)
_cell_angle_alpha                90
_cell_angle_beta                 124.480(2)
_cell_angle_gamma                90
_cell_volume                     8570.64
loop_
_atom_site_label
_atom_site_type_symbol
_atom_site_fract_x
_atom_site_fract_y
_atom_site_fract_z
_atom_site_U_iso_or_equiv
_atom_site_thermal_displace_type
Cu1 Cu -0.48703(3) 0.00373(5) -0.04978(4) 0.0274 Uani
Cu2 Cu -0.30166(4) 0.75846(5) 0.45244(5) 0.0338 Uani
O1 O -0.4334(2) 0.0806(3) 0.0274(3) 0.0396 Uani
O2 O -0.45509(19) 0.0742(3) 0.1123(3) 0.0365 Uani
O3 O -0.2594(2) 0.3155(3) 0.2894(3) 0.0516 Uani
O4 O -0.2958(2) 0.6599(3) 0.4016(3) 0.0389 Uani
O5 O -0.2078(2) 0.6455(3) 0.4827(3) 0.0436 Uani
O6 O -0.5372(2) 0.0959(3) -0.0980(3) 0.0382 Uani
O7 O -0.7088(2) 0.3782(3) -0.2245(3) 0.0468 Uani
O8 O -0.7019(2) 0.6816(3) -0.0280(3) 0.0408 Uani
O9 O -0.7890(2) 0.6651(3) -0.1086(3) 0.0392 Uani
O10 O -0.46111(19) 0.0061(3) -0.1257(3) 0.0357 Uani
N1 N -0.3934(2) -0.0133(4) -0.1383(3) 0.0404 Uani
C1 C -0.4273(3) 0.1001(4) 0.0902(4) 0.0318 Uani
C2 C -0.3850(3) 0.1599(4) 0.1412(4) 0.0327 Uani
C3 C -0.3502(3) 0.1888(4) 0.1239(4) 0.0343 Uani
H1 H -0.3545 0.1718 0.0771 0.0410 Uiso
C4 C -0.3097(3) 0.2416(5) 0.1735(4) 0.0393 Uani
H2 H -0.2861 0.2602 0.1611 0.0470 Uiso
C5 C -0.3032(3) 0.2675(5) 0.2410(5) 0.0442 Uani
C6 C -0.3370(3) 0.2420(5) 0.2591(4) 0.0439 Uani
H3 H -0.3328 0.2613 0.3052 0.0530 Uiso
C7 C -0.3782(3) 0.1868(5) 0.2095(4) 0.0384 Uani
H4 H -0.4013 0.1680 0.2227 0.0460 Uiso
C8 C -0.2620(3) 0.3893(5) 0.3215(4) 0.0375 Uani
C9 C -0.2142(3) 0.4242(5) 0.3739(4) 0.0376 Uani
H5 H -0.1830 0.3966 0.3869 0.0460 Uiso
C10 C -0.2109(3) 0.4999(5) 0.4083(4) 0.0345 Uani
H6 H -0.1776 0.5233 0.4459 0.0410 Uiso
C11 C -0.2569(3) 0.5414(5) 0.3874(4) 0.0346 Uani
C12 C -0.3048(3) 0.5058(5) 0.3324(4) 0.0426 Uani
H7 H -0.3363 0.5336 0.3175 0.0510 Uiso
C13 C -0.3073(3) 0.4303(5) 0.2988(4) 0.0433 Uani
H8 H -0.3404 0.4069 0.2602 0.0520 Uiso
C14 C -0.2532(4) 0.6229(5) 0.4274(4) 0.0340 Uani
O11 O -0.5579(2) 0.0905(3) -0.0107(3) 0.0396 Uani
C15 C -0.5987(3) 0.1915(4) -0.1082(4) 0.0316 Uani
C16 C -0.6163(3) 0.2361(5) -0.0697(4) 0.0401 Uani
H9 H -0.6034 0.2219 -0.0177 0.0480 Uiso
C17 C -0.6515(3) 0.2995(5) -0.1050(4) 0.0452 Uani
H10 H -0.6626 0.3298 -0.0778 0.0540 Uiso
C18 C -0.6711(3) 0.3192(5) -0.1825(4) 0.0428 Uani
C19 C -0.6526(3) 0.2781(5) -0.2201(4) 0.0331 Uani
H11 H -0.6642 0.2939 -0.2712 0.0400 Uiso
C20 C -0.6174(3) 0.2137(5) -0.1834(4) 0.0320 Uani
H12 H -0.6057 0.1841 -0.2104 0.0380 Uiso
C21 C -0.7149(4) 0.4447(5) -0.1875(4) 0.0416 Uani
C22 C -0.6728(3) 0.4900(5) -0.1281(4) 0.0466 Uani
H13 H -0.6377 0.4757 -0.1097 0.0560 Uiso
C23 C -0.6829(3) 0.5553(5) -0.0968(4) 0.0456 Uani
H14 H -0.6544 0.5851 -0.0548 0.0550 Uiso
C24 C -0.7340(3) 0.5794(4) -0.1247(4) 0.0333 Uani
C25 C -0.7747(3) 0.5366(5) -0.1852(4) 0.0322 Uani
H15 H -0.8096 0.5542 -0.2064 0.0390 Uiso
C26 C -0.7660(3) 0.4674(5) -0.2169(4) 0.0347 Uani
H16 H -0.7947 0.4367 -0.2578 0.0410 Uiso
C27 C -0.7425(4) 0.6474(5) -0.0845(5) 0.0369 Uani
C28 C -0.4190(4) -0.0224(5) -0.1047(5) 0.0476 Uani
H17 H -0.4020 -0.0552 -0.0589 0.0570 Uiso
C29 C -0.4150(3) 0.0341(6) -0.2087(4) 0.0521 Uani
H18 H -0.4497 0.0554 -0.2256 0.0790 Uiso
H19 H -0.4184 -0.0017 -0.2492 0.0790 Uiso
H20 H -0.3916 0.0807 -0.1991 0.0790 Uiso
C30 C -0.3420(3) -0.0475(6) -0.1064(5) 0.0622 Uani
H21 H -0.3307 -0.0786 -0.0591 0.0940 Uiso
H22 H -0.3171 -0.0023 -0.0940 0.0940 Uiso
H23 H -0.3432 -0.0848 -0.1444 0.0940 Uiso
C31 C -0.5618(3) 0.1204(4) -0.0693(4) 0.0304 Uani
C33 C -0.4731(3) 0.7833(7) 0.3662(7) 0.0920 Uiso
O13 O -0.3856(3) 0.7673(7) 0.3771(7) 0.0420 Uiso
H30 H -0.4002 0.8106 0.3396 0.0500 Uiso
C34 C -0.4242(5) 0.7073(9) 0.3797(8) 0.1140 Uiso
H31 H -0.4376 0.6687 0.3355 0.1370 Uiso
H32 H -0.4025 0.6735 0.4273 0.1370 Uiso
Cu1D Cu -0.51297(3) -0.00373(5) 0.04978(4) 0.0274 Uani
Cu2E Cu -0.19834(4) 0.74154(5) 0.54756(5) 0.0338 Uani
Cu2B Cu -0.69834(4) 0.75846(5) 0.04756(5) 0.0338 Uani
Cu2G Cu -0.80166(4) 0.74154(5) -0.04756(5) 0.0338 Uani
O2D O -0.54491(19) -0.0742(3) -0.1123(3) 0.0365 Uani
O5E O -0.2922(2) 0.8545(3) 0.5173(3) 0.0436 Uani
O8B O -0.2981(2) 0.6816(3) 0.5280(3) 0.0408 Uani
O9G O -0.2890(2) 0.8349(3) 0.3914(3) 0.0392 Uani
O11D O -0.4421(2) -0.0905(3) 0.0107(3) 0.0396 Uani
loop_
_atom_site_aniso_label
_atom_site_aniso_U_11
_atom_site_aniso_U_22
_atom_site_aniso_U_33
_atom_site_aniso_U_23
_atom_site_aniso_U_13
_atom_site_aniso_U_12
Cu1 0.0362(5) 0.0207(5) 0.0269(5) -0.0003(4) 0.0189(4) 0.0015(4)
Cu2 0.0470(6) 0.0233(5) 0.0259(5) -0.0019(4) 0.0176(5) -0.0043(5)
O1 0.049(4) 0.034(3) 0.037(3) -0.011(3) 0.025(3) -0.013(3)
O2 0.037(3) 0.044(3) 0.029(3) -0.012(3) 0.019(3) -0.016(3)
O3 0.050(4) 0.040(4) 0.070(4) -0.030(3) 0.037(3) -0.017(3)
O4 0.052(4) 0.029(3) 0.037(3) -0.004(3) 0.026(3) -0.003(3)
O5 0.055(4) 0.026(3) 0.032(3) -0.013(3) 0.014(3) -0.007(3)
O6 0.052(4) 0.036(3) 0.032(3) 0.007(3) 0.027(3) 0.017(3)
O7 0.055(4) 0.042(4) 0.030(3) -0.004(3) 0.016(3) 0.020(3)
O8 0.055(4) 0.029(3) 0.038(3) -0.004(3) 0.026(3) 0.004(3)
O9 0.051(4) 0.035(3) 0.029(3) 0.001(3) 0.021(3) 0.012(3)
O10 0.030(3) 0.046(4) 0.032(3) 0.002(3) 0.018(3) 0.005(3)
N1 0.046(4) 0.046(5) 0.038(4) 0.005(3) 0.029(4) 0.007(4)
C1 0.040(5) 0.017(4) 0.028(4) -0.007(3) 0.013(4) -0.002(4)
C2 0.037(5) 0.025(4) 0.032(4) -0.007(4) 0.017(4) -0.005(4)
C3 0.047(5) 0.027(4) 0.026(4) -0.002(4) 0.019(4) 0.001(4)
C4 0.056(5) 0.027(5) 0.051(5) -0.008(4) 0.040(5) -0.009(4)
C5 0.052(6) 0.033(5) 0.053(5) -0.013(4) 0.033(5) -0.013(4)
C6 0.064(6) 0.036(5) 0.043(5) -0.013(4) 0.037(5) -0.005(5)
C7 0.046(5) 0.035(5) 0.039(5) 0.000(4) 0.027(4) -0.006(4)
C8 0.055(6) 0.025(5) 0.044(5) -0.016(4) 0.035(5) -0.013(4)
C9 0.040(5) 0.036(5) 0.036(5) -0.006(4) 0.021(4) -0.003(4)
C10 0.038(5) 0.023(4) 0.036(4) -0.009(4) 0.017(4) -0.008(4)
C11 0.052(6) 0.027(4) 0.024(4) -0.004(4) 0.021(4) -0.009(4)
C12 0.050(5) 0.035(5) 0.047(5) -0.006(4) 0.030(5) -0.002(5)
C13 0.041(5) 0.043(5) 0.044(5) -0.023(4) 0.023(5) -0.021(4)
C14 0.059(6) 0.018(4) 0.032(5) -0.001(4) 0.030(5) -0.010(4)
O11 0.055(4) 0.030(3) 0.036(3) 0.011(3) 0.027(3) 0.015(3)
C15 0.039(5) 0.023(4) 0.037(5) 0.004(4) 0.024(4) 0.004(4)
C16 0.047(5) 0.043(5) 0.027(4) 0.007(4) 0.019(4) 0.013(4)
C17 0.063(6) 0.045(5) 0.037(5) 0.003(4) 0.034(5) 0.018(5)
C18 0.050(6) 0.035(5) 0.035(5) 0.004(4) 0.019(5) 0.012(4)
C19 0.041(5) 0.032(5) 0.024(4) 0.001(4) 0.017(4) 0.005(4)
C20 0.033(5) 0.030(4) 0.030(4) 0.001(4) 0.016(4) 0.004(4)
C21 0.069(7) 0.029(5) 0.029(5) 0.005(4) 0.029(5) 0.010(5)
C22 0.043(5) 0.047(6) 0.036(5) -0.005(5) 0.014(4) 0.015(5)
C23 0.047(6) 0.041(5) 0.035(5) -0.013(4) 0.015(4) -0.003(5)
C24 0.050(6) 0.023(4) 0.035(5) 0.010(4) 0.029(5) 0.016(4)
C25 0.039(5) 0.030(5) 0.030(4) 0.005(4) 0.021(4) 0.015(4)
C26 0.039(5) 0.035(5) 0.025(4) 0.004(4) 0.015(4) 0.004(4)
C27 0.061(6) 0.025(5) 0.030(5) 0.008(4) 0.029(5) 0.004(5)
C28 0.054(6) 0.049(6) 0.037(5) -0.004(4) 0.024(5) -0.006(5)
C29 0.052(6) 0.067(7) 0.037(5) 0.005(5) 0.025(5) 0.011(5)
C30 0.040(6) 0.099(8) 0.049(5) 0.011(6) 0.026(5) 0.011(6)
C31 0.037(5) 0.025(4) 0.026(4) -0.003(4) 0.016(4) -0.002(4)
Cu1D 0.0362 0.0207 0.0269 -0.0003 0.0189 0.0015
Cu2E 0.047 0.0233 0.0259 -0.0019 0.0176 -0.0043
Cu2B 0.047 0.0233 0.0259 0.0019 0.0176 0.0043
Cu2G 0.047 0.0233 0.0259 0.0019 0.0176 0.0043
O2D 0.037 0.044 0.029 -0.012 0.019 -0.016
O5E 0.055 0.026 0.032 -0.013 0.014 -0.007
O8B 0.055 0.029 0.038 0.004 0.026 -0.004
O9G 0.051 0.035 0.029 -0.001 0.021 -0.012
O11D 0.055 0.03 0.036 0.011 0.027 0.015
loop_
_geom_bond_atom_site_label_1
_geom_bond_atom_site_label_2
_geom_bond_site_symmetry_1
_geom_bond_site_symmetry_2
Cu1 O1 1_555 1_555
Cu2 O4 1_555 1_555
O1 C1 1_555 1_555
O2 C1 1_555 1_555
O3 C5 1_555 1_555
O4 C14 1_555 1_555
O5 C14 1_555 1_555
O6 Cu1 1_555 1_555
O7 C18 1_555 1_555
O8 C27 1_555 1_555
O9 C27 1_555 1_555
O10 Cu1 1_555 1_555
N1 C28 1_555 1_555
C1 C2 1_555 1_555
C2 C3 1_555 1_555
C3 H1 1_555 1_555
C4 C3 1_555 1_555
H2 C4 1_555 1_555
C5 C4 1_555 1_555
C6 C5 1_555 1_555
H3 C6 1_555 1_555
C7 C2 1_555 1_555
H4 C7 1_555 1_555
C8 O3 1_555 1_555
C9 C8 1_555 1_555
H5 C9 1_555 1_555
C10 C9 1_555 1_555
H6 C10 1_555 1_555
C11 C10 1_555 1_555
C12 C11 1_555 1_555
H7 C12 1_555 1_555
C13 C8 1_555 1_555
H8 C13 1_555 1_555
C14 C11 1_555 1_555
O11 C31 1_555 1_555
C15 C16 1_555 1_555
C16 H9 1_555 1_555
C17 C16 1_555 1_555
H10 C17 1_555 1_555
C18 C17 1_555 1_555
C19 C18 1_555 1_555
H11 C19 1_555 1_555
C20 C15 1_555 1_555
H12 C20 1_555 1_555
C21 O7 1_555 1_555
C22 C21 1_555 1_555
H13 C22 1_555 1_555
C23 C22 1_555 1_555
H14 C23 1_555 1_555
C24 C23 1_555 1_555
C25 C24 1_555 1_555
H15 C25 1_555 1_555
C26 C21 1_555 1_555
H16 C26 1_555 1_555
C27 C24 1_555 1_555
C28 O10 1_555 1_555
H17 C28 1_555 1_555
C29 N1 1_555 1_555
H18 C29 1_555 1_555
H19 C29 1_555 1_555
H20 C29 1_555 1_555
C30 N1 1_555 1_555
H21 C30 1_555 1_555
H22 C30 1_555 1_555
H23 C30 1_555 1_555
C31 O6 1_555 1_555
C33 C34 1_555 1_555
O13 Cu2 1_555 1_555
H30 O13 1_555 1_555
C34 O13 1_555 1_555
H31 C34 1_555 1_555
H32 C34 1_555 1_555
Cu1D O2 1_555 1_555
Cu2E O5 1_555 1_555
Cu2B O8 1_555 1_555
Cu2G O9 1_555 1_555
O2D Cu1 1_555 1_555
O5E Cu2 1_555 1_555
O8B Cu2 1_555 1_555
O9G Cu2 1_555 1_555
O11D Cu1 1_555 1_555
C6 C7 1_555 1_555
C12 C13 1_555 1_555
O11 Cu1D 1_555 1_555
C15 C31 1_555 1_555
C19 C20 1_555 1_555
C25 C26 1_555 1_555

#END
