
#######################################################################
#
#                 Cambridge Crystallographic Data Centre
#                                CCDC 
#
#######################################################################
#
# If this CIF has been generated from an entry in the Cambridge 
# Structural Database, then it will include bibliographic, chemical, 
# crystal, experimental, refinement or atomic coordinate data resulting 
# from the CCDC's data processing and validation procedures.
#
#######################################################################

data_CICSOW
_chemical_formula_moiety         '(C24 H24 Cl2 Fe2 N36 O8 2+)n'
_symmetry_cell_setting           rhombohedral
_symmetry_space_group_name_H-M   'R -3'
_symmetry_Int_Tables_number      148
_space_group_name_Hall           '-R 3'
loop_
_symmetry_equiv_pos_site_id
_symmetry_equiv_pos_as_xyz
1 x,y,z
2 1/3+x,2/3+y,2/3+z
3 2/3+x,1/3+y,1/3+z
4 -y,x-y,z
5 2/3-y,1/3+x-y,1/3+z
6 -x+y,-x,z
7 2/3-x+y,1/3-x,1/3+z
8 1/3-y,2/3+x-y,2/3+z
9 1/3-x+y,2/3-x,2/3+z
10 -x,-y,-z
11 2/3-x,1/3-y,1/3-z
12 1/3-x,2/3-y,2/3-z
13 y,-x+y,-z
14 1/3+y,2/3-x+y,2/3-z
15 x-y,x,-z
16 1/3+x-y,2/3+x,2/3-z
17 2/3+y,1/3-x+y,1/3-z
18 2/3+x-y,1/3+x,1/3-z
_cell_length_a                   11.030
_cell_length_b                   11.030
_cell_length_c                   33.008
_cell_angle_alpha                90
_cell_angle_beta                 90
_cell_angle_gamma                120
_cell_volume                     3477.77
loop_
_atom_site_label
_atom_site_type_symbol
_atom_site_fract_x
_atom_site_fract_y
_atom_site_fract_z
Fe1 Fe 0.0000 0.0000 0.0000
N1 N 0.1692(5) 0.0554(5) 0.0340(1)
N2 N 0.2434(5) 0.1808(5) 0.0554(2)
C1 C 0.2175(6) -0.0245(6) 0.0438(2)
C2 C 0.3325(7) 0.1684(6) 0.0779(2)
N3 N 0.3203(5) 0.0407(5) 0.0715(1)
H1 H 0.192(6) -0.114(7) 0.030(2)
H2 H 0.398(6) 0.238(6) 0.094(2)
N4 N 0.3841(5) -0.0198(5) 0.0919(1)
C3 C 0.4881(7) -0.0405(7) 0.0784(2)
C4 C 0.3317(7) -0.1001(6) 0.1254(2)
N5 N 0.5030(5) -0.1252(5) 0.1022(1)
H3 H 0.531(8) -0.005(7) 0.058(2)
N6 N 0.4005(5) -0.1647(5) 0.1318(1)
H4 H 0.260(6) -0.098(5) 0.139(2)
Fe2 Fe 0.3334 -0.3334 0.1666
N1C N -0.0554(5) 0.1138(7) 0.0340(1)
N1E N -0.1138(7) -0.1692(5) 0.0340(1)
N1I N -0.1692(5) -0.0554(5) -0.0340(1)
N1L N 0.0554(5) -0.1138(7) -0.0340(1)
N1N N 0.1138(7) 0.1692(5) -0.0340(1)
N2C N -0.1808(5) 0.0626(7) 0.0554(2)
C1C C 0.0245(6) 0.2420(8) 0.0438(2)
C1E C -0.2420(8) -0.2175(6) 0.0438(2)
N2E N -0.0626(7) -0.2434(5) 0.0554(2)
N2I N -0.2434(5) -0.1808(5) -0.0554(2)
C1I C -0.2175(6) 0.0245(6) -0.0438(2)
C2C C -0.1684(6) 0.1641(9) 0.0779(2)
N3C N -0.0407(5) 0.2796(7) 0.0715(1)
H1C H 0.114(7) 0.306(9) 0.030(2)
H1E H -0.306(9) -0.192(6) 0.030(2)
N3E N -0.2796(7) -0.3203(5) 0.0715(1)
C2E C -0.1641(9) -0.3325(7) 0.0779(2)
C2I C -0.3325(7) -0.1684(6) -0.0779(2)
N3I N -0.3203(5) -0.0407(5) -0.0715(1)
H1I H -0.192(6) 0.114(7) -0.030(2)
H2C H -0.238(6) 0.160(8) 0.094(2)
N4C N 0.0198(5) 0.4039(7) 0.0919(1)
N4E N -0.4039(7) -0.3841(5) 0.0919(1)
H2E H -0.160(8) -0.398(6) 0.094(2)
H2I H -0.398(6) -0.238(6) -0.094(2)
N4I N -0.3841(5) 0.0198(5) -0.0919(1)
C3C C 0.0405(7) 0.5286(10) 0.0784(2)
C4C C 0.1001(6) 0.4318(9) 0.1254(2)
C3E C -0.5286(10) -0.4881(7) 0.0784(2)
C4E C -0.4318(9) -0.3317(7) 0.1254(2)
C3I C -0.4881(7) 0.0405(7) -0.0784(2)
C4I C -0.3317(7) 0.1001(6) -0.1254(2)
N5C N 0.1252(5) 0.6282(7) 0.1022(1)
H3C H 0.005(7) 0.536(11) 0.058(2)
N6C N 0.1647(5) 0.5652(7) 0.1318(1)
H4C H 0.098(5) 0.358(8) 0.139(2)
H3E H -0.536(11) -0.531(8) 0.058(2)
N5E N -0.6282(7) -0.5030(5) 0.1022(1)
H4E H -0.358(8) -0.260(6) 0.139(2)
N6E N -0.5652(7) -0.4005(5) 0.1318(1)
N5I N -0.5030(5) 0.1252(5) -0.1022(1)
H3I H -0.531(8) 0.005(7) -0.058(2)
N6I N -0.4005(5) 0.1647(5) -0.1318(1)
H4I H -0.260(6) 0.098(5) -0.139(2)
Fe2_2 Fe 0.3334 0.6666 0.1666
Fe2_3 Fe -0.6666 -0.3334 0.1666
Fe2A Fe -0.3333 0.3333 -0.1667
N6Q N -0.7681(7) -0.2662(5) 0.2015(1)
N6P N -0.4980(5) -0.2319(7) 0.2015(1)
N6J N -0.7338(5) -0.5020(5) 0.2015(1)
N6_2 N -0.5995(5) -0.1647(5) 0.1318(1)
N6C_2 N -0.8353(5) -0.4348(7) 0.1318(1)
N5Q N -0.7051(7) -0.1637(5) 0.2311(1)
C4Q C -0.9015(9) -0.3350(7) 0.2079(2)
C4P C -0.4334(6) -0.0985(9) 0.2079(2)
N5P N -0.4585(5) -0.2949(7) 0.2311(1)
C3Q C -0.8047(10) -0.1786(7) 0.2549(2)
N4Q N -0.9294(7) -0.2826(5) 0.2414(1)
H4Q H -0.975(8) -0.407(6) 0.194(2)
H4P H -0.431(5) -0.025(8) 0.194(2)
N4P N -0.3531(5) -0.0706(7) 0.2414(1)
C3P C -0.3738(7) -0.1953(10) 0.2549(2)
H3Q H -0.797(11) -0.136(8) 0.275(2)
N3Q N -1.0537(7) -0.3464(5) 0.2618(1)
N3P N -0.2926(5) 0.0537(7) 0.2618(1)
H3P H -0.338(7) -0.203(11) 0.275(2)
C2Q C -1.1692(9) -0.3342(7) 0.2554(2)
C1Q C -1.0913(8) -0.4492(6) 0.2895(2)
C2P C -0.1649(6) 0.1692(9) 0.2554(2)
C1P C -0.3578(6) 0.0913(8) 0.2895(2)
N2Q N -1.2707(7) -0.4233(5) 0.2779(2)
H2Q H -1.173(8) -0.269(6) 0.239(2)
N1Q N -1.2195(7) -0.4975(5) 0.2993(1)
H1Q H -1.027(9) -0.475(6) 0.303(2)
N2P N -0.1525(5) 0.2707(7) 0.2779(2)
H2P H -0.095(6) 0.173(8) 0.239(2)
N1P N -0.2779(5) 0.2195(7) 0.2993(1)
H1P H -0.447(7) 0.027(9) 0.303(2)
Fe1B Fe -1.3333 -0.6667 0.3333
Fe1B_2 Fe -0.3333 0.3333 0.3333
Cl1 Cl 0.0000 0.0000 0.16633(9)
O1 O 0.0333(7) 0.1355(6) 0.1806(2)
O2 O 0.0000 0.0000 0.1227(3)
O1C O -0.1355(6) -0.1022(9) 0.1806(2)
O1E O 0.1022(9) -0.0333(7) 0.1806(2)
Cl2 Cl 0.6667 0.3333 0.01344(9)
O3 O 0.6667 0.3333 0.0574(3)
O4 O 0.665(2) 0.212(1) -0.0012(3)
O4C O 0.788(1) 0.453(2) -0.0012(3)
O4E O 0.547(2) 0.335(2) -0.0012(3)
loop_
_geom_bond_atom_site_label_1
_geom_bond_atom_site_label_2
_geom_bond_site_symmetry_1
_geom_bond_site_symmetry_2
Fe1 N1 1_555 1_555
N1 N2 1_555 1_555
N2 C2 1_555 1_555
C1 N1 1_555 1_555
C2 N3 1_555 1_555
N3 C1 1_555 1_555
H1 C1 1_555 1_555
H2 C2 1_555 1_555
N4 N3 1_555 1_555
C3 N4 1_555 1_555
C4 N4 1_555 1_555
N5 C3 1_555 1_555
H3 C3 1_555 1_555
N6 C4 1_555 1_555
H4 C4 1_555 1_555
Fe2 N6 1_555 1_555
Cl1 O1 1_555 1_555
O2 Cl1 1_555 1_555
Cl2 O3 1_555 1_555
O4 Cl2 1_555 1_555
N1C Fe1 1_555 1_555
N1E Fe1 1_555 1_555
N1I Fe1 1_555 1_555
N1L Fe1 1_555 1_555
N1N Fe1 1_555 1_555
N2C N1C 1_555 1_555
C1C N1C 1_555 1_555
C1E N1E 1_555 1_555
N2E N1E 1_555 1_555
N2I N1I 1_555 1_555
C1I N1I 1_555 1_555
C2C N2C 1_555 1_555
N3C C1C 1_555 1_555
H1C C1C 1_555 1_555
H1E C1E 1_555 1_555
N3E C1E 1_555 1_555
C2E N2E 1_555 1_555
C2I N2I 1_555 1_555
N3I C1I 1_555 1_555
H1I C1I 1_555 1_555
H2C C2C 1_555 1_555
N4C N3C 1_555 1_555
N4E N3E 1_555 1_555
H2E C2E 1_555 1_555
H2I C2I 1_555 1_555
N4I N3I 1_555 1_555
C3C N4C 1_555 1_555
C4C N4C 1_555 1_555
C3E N4E 1_555 1_555
C4E N4E 1_555 1_555
C3I N4I 1_555 1_555
C4I N4I 1_555 1_555
N5C C3C 1_555 1_555
H3C C3C 1_555 1_555
N6C C4C 1_555 1_555
H4C C4C 1_555 1_555
H3E C3E 1_555 1_555
N5E C3E 1_555 1_555
H4E C4E 1_555 1_555
N6E C4E 1_555 1_555
N5I C3I 1_555 1_555
H3I C3I 1_555 1_555
N6I C4I 1_555 1_555
H4I C4I 1_555 1_555
Fe2_2 N6C 1_555 1_555
Fe2_3 N6E 1_555 1_555
Fe2A N6I 1_555 1_555
N6Q Fe2_3 1_555 1_555
N6P Fe2_3 1_555 1_555
N6J Fe2_3 1_555 1_555
N6_2 Fe2_3 1_555 1_555
N6C_2 Fe2_3 1_555 1_555
N5Q N6Q 1_555 1_555
C4Q N6Q 1_555 1_555
C4P N6P 1_555 1_555
N5P N6P 1_555 1_555
C3Q N5Q 1_555 1_555
N4Q C4Q 1_555 1_555
H4Q C4Q 1_555 1_555
H4P C4P 1_555 1_555
N4P C4P 1_555 1_555
C3P N5P 1_555 1_555
H3Q C3Q 1_555 1_555
N3Q N4Q 1_555 1_555
N3P N4P 1_555 1_555
H3P C3P 1_555 1_555
C2Q N3Q 1_555 1_555
C1Q N3Q 1_555 1_555
C2P N3P 1_555 1_555
C1P N3P 1_555 1_555
N2Q C2Q 1_555 1_555
H2Q C2Q 1_555 1_555
N1Q C1Q 1_555 1_555
H1Q C1Q 1_555 1_555
N2P C2P 1_555 1_555
H2P C2P 1_555 1_555
N1P C1P 1_555 1_555
H1P C1P 1_555 1_555
Fe1B N1Q 1_555 1_555
Fe1B_2 N1P 1_555 1_555
O1C Cl1 1_555 1_555
O1E Cl1 1_555 1_555
O4C Cl2 1_555 1_555
O4E Cl2 1_555 1_555
N5 N6 1_555 1_555
C2C N3C 1_555 1_555
N3E C2E 1_555 1_555
C2I N3I 1_555 1_555
N5C N6C 1_555 1_555
N5E N6E 1_555 1_555
N5I N6I 1_555 1_555
C3Q N4Q 1_555 1_555
N4P C3P 1_555 1_555
N2Q N1Q 1_555 1_555
N2P N1P 1_555 1_555

#END
