
#######################################################################
#
#                 Cambridge Crystallographic Data Centre
#                                CCDC 
#
#######################################################################
#
# If this CIF has been generated from an entry in the Cambridge 
# Structural Database, then it will include bibliographic, chemical, 
# crystal, experimental, refinement or atomic coordinate data resulting 
# from the CCDC's data processing and validation procedures.
#
#######################################################################

data_NUZFAR
_chemical_formula_moiety         'C80 H24 N16 O14 Zn14'
_symmetry_cell_setting           tetragonal
_symmetry_space_group_name_H-M   'I 4/m m m'
_symmetry_Int_Tables_number      139
_space_group_name_Hall           '-I 4 2'
loop_
_symmetry_equiv_pos_site_id
_symmetry_equiv_pos_as_xyz
1 x,y,z
2 -y,x,z
3 -x,-y,z
4 y,-x,z
5 x,-y,-z
6 -y,-x,-z
7 -x,y,-z
8 y,x,-z
9 1/2+x,1/2+y,1/2+z
10 1/2-y,1/2+x,1/2+z
11 1/2-x,1/2-y,1/2+z
12 1/2+y,1/2-x,1/2+z
13 1/2+x,1/2-y,1/2-z
14 1/2-y,1/2-x,1/2-z
15 1/2-x,1/2+y,1/2-z
16 1/2+y,1/2+x,1/2-z
17 -x,-y,-z
18 y,-x,-z
19 x,y,-z
20 -y,x,-z
21 -x,y,z
22 y,x,z
23 x,-y,z
24 -y,-x,z
25 1/2-x,1/2-y,1/2-z
26 1/2+y,1/2-x,1/2-z
27 1/2+x,1/2+y,1/2-z
28 1/2-y,1/2+x,1/2-z
29 1/2-x,1/2+y,1/2+z
30 1/2+y,1/2+x,1/2+z
31 1/2+x,1/2-y,1/2+z
32 1/2-y,1/2-x,1/2+z
_cell_length_a                   16.679(3)
_cell_length_b                   16.679(3)
_cell_length_c                   17.674(3)
_cell_angle_alpha                90
_cell_angle_beta                 90
_cell_angle_gamma                90
_cell_volume                     4916.71
loop_
_atom_site_label
_atom_site_type_symbol
_atom_site_fract_x
_atom_site_fract_y
_atom_site_fract_z
Zn1 Zn 0.0000 0.0000 0.08200(8)
Zn2 Zn -0.0000 -0.0000 0.46972(15)
O1 O 0.0841(2) 0.0841(2) 0.0627(3)
N1 N -0.0000 -0.0000 0.1969(6)
N2 N 0.0000 0.0000 0.3458(10)
N3 N 0.3773(4) 0.5000 0.0000
C1 C 0.1079(3) 0.1079(3) 0.0000
C2 C 0.1730(3) 0.1730(3) 0.0000
C3 C 0.2024(3) 0.2024(3) 0.0679(5)
C4 C 0.2612(4) 0.2612(4) 0.0673(5)
C5 C 0.2454(3) 0.4594(4) 0.0000
C6 C 0.3289(4) 0.4341(4) 0.0000
C7 C 0.3542(4) 0.3542(4) 0.0000
C8 C 0.2905(3) 0.2905(3) 0.0000
C9 C 0.0862(17) 0.0000 0.2255(14)
C10 C 0.093(3) 0.0000 0.3055(19)
C11 C 0.0578(17) -0.0578(17) 0.2319(16)
C12 C 0.0607(19) -0.0607(19) 0.3170(16)
H1 H 0.1824 0.1824 0.1145
H2 H 0.2815 0.2815 0.1137
H3 H 0.1997 0.4255 0.0000
N3A N 0.5000 0.3773(4) 0.0000
C5U C 0.4594(4) 0.2454(3) 0.0000
C6U C 0.4341(4) 0.3289(4) 0.0000
H3U H 0.4255 0.1997 0.0000
O1C O 0.0841(2) 0.9159(2) 0.0627(3)
C1C C 0.1079(3) 0.8921(3) 0.0000
C2C C 0.1730(3) 0.8270(3) 0.0000
C3C C 0.2024(3) 0.7976(3) 0.0679(5)
C4C C 0.2612(4) 0.7388(4) 0.0673(5)
C5V C 0.2454(3) 0.5406(4) 0.0000
C6V C 0.3289(4) 0.5659(4) 0.0000
C7C C 0.3542(4) 0.6458(4) 0.0000
C8C C 0.2905(3) 0.7095(3) 0.0000
H1C H 0.1824 0.8176 0.1145
H2C H 0.2815 0.7185 0.1137
H3V H 0.1997 0.5745 0.0000
O1R O 0.0841(2) 0.0841(2) -0.0627(3)
C3R C 0.2024(3) 0.2024(3) -0.0679(5)
C4R C 0.2612(4) 0.2612(4) -0.0673(5)
H1R H 0.1824 0.1824 -0.1145
H2R H 0.2815 0.2815 -0.1137
O1Q O 0.0841(2) 0.9159(2) -0.0627(3)
C3Q C 0.2024(3) 0.7976(3) -0.0679(5)
C4Q C 0.2612(4) 0.7388(4) -0.0673(5)
H1Q H 0.1824 0.8176 -0.1145
H2Q H 0.2815 0.7185 -0.1137
O1A O 0.9159(2) 0.0841(2) 0.0627(3)
C1A C 0.8921(3) 0.1079(3) 0.0000
C2A C 0.8270(3) 0.1730(3) 0.0000
C3A C 0.7976(3) 0.2024(3) 0.0679(5)
C4A C 0.7388(4) 0.2612(4) 0.0673(5)
C5A C 0.5406(4) 0.2454(3) 0.0000
C6A C 0.5659(4) 0.3289(4) 0.0000
C7A C 0.6458(4) 0.3542(4) 0.0000
C8A C 0.7095(3) 0.2905(3) 0.0000
H1A H 0.8176 0.1824 0.1145
H2A H 0.7185 0.2815 0.1137
H3A H 0.5745 0.1997 0.0000
N3C N 0.5000 0.6227(4) 0.0000
C5C C 0.4594(4) 0.7546(3) 0.0000
C6C C 0.4341(4) 0.6711(4) 0.0000
H3C H 0.4255 0.8003 0.0000
O1B O 0.9159(2) 0.9159(2) 0.0627(3)
C1B C 0.8921(3) 0.8921(3) 0.0000
C2B C 0.8270(3) 0.8270(3) 0.0000
C3B C 0.7976(3) 0.7976(3) 0.0679(5)
C4B C 0.7388(4) 0.7388(4) 0.0673(5)
C5W C 0.5406(4) 0.7546(3) 0.0000
C6W C 0.5659(4) 0.6711(4) 0.0000
C7B C 0.6458(4) 0.6458(4) 0.0000
C8B C 0.7095(3) 0.7095(3) 0.0000
H1B H 0.8176 0.8176 0.1145
H2B H 0.7185 0.7185 0.1137
H3W H 0.5745 0.8003 0.0000
O1S O 0.9159(2) 0.0841(2) -0.0627(3)
C3S C 0.7976(3) 0.2024(3) -0.0679(5)
C4S C 0.7388(4) 0.2612(4) -0.0673(5)
H1S H 0.8176 0.1824 -0.1145
H2S H 0.7185 0.2815 -0.1137
O1P O 0.9159(2) 0.9159(2) -0.0627(3)
C3P C 0.7976(3) 0.7976(3) -0.0679(5)
C4P C 0.7388(4) 0.7388(4) -0.0673(5)
H1P H 0.8176 0.8176 -0.1145
H2P H 0.7185 0.7185 -0.1137
N3B N 0.6227(4) 0.5000 0.0000
C5B C 0.7546(3) 0.5406(4) 0.0000
C6B C 0.6711(4) 0.5659(4) 0.0000
H3B H 0.8003 0.5745 0.0000
C5T C 0.7546(3) 0.4594(4) 0.0000
C6T C 0.6711(4) 0.4341(4) 0.0000
H3T H 0.8003 0.4255 0.0000
C9A C 0.0000 0.0862(17) 0.2255(14)
C10A C 0.0000 0.093(3) 0.3055(19)
C11A C 0.0578(17) 0.0578(17) 0.2319(16)
C12A C 0.0607(19) 0.0607(19) 0.3170(16)
C9B C -0.0862(17) 0.0000 0.2255(14)
C10B C -0.093(3) 0.0000 0.3055(19)
C11B C -0.0578(17) 0.0578(17) 0.2319(16)
C12B C -0.0607(19) 0.0607(19) 0.3170(16)
C9C C 0.0000 -0.0862(17) 0.2255(14)
C10C C 0.0000 -0.093(3) 0.3055(19)
C11C C -0.0578(17) -0.0578(17) 0.2319(16)
C12C C -0.0607(19) -0.0607(19) 0.3170(16)
Zn1P Zn 0.0000 0.0000 -0.08200(8)
Zn2P Zn 0.0000 0.0000 -0.46972(15)
N1P N 0.0000 0.0000 -0.1969(6)
N2P N 0.0000 0.0000 -0.3458(10)
C9P C -0.0862(17) 0.0000 -0.2255(14)
C10P C -0.093(3) 0.0000 -0.3055(19)
C11P C -0.0578(17) 0.0578(17) -0.2319(16)
C12P C -0.0607(19) 0.0607(19) -0.3170(16)
C9Q C 0.0000 -0.0862(17) -0.2255(14)
C10Q C 0.0000 -0.093(3) -0.3055(19)
C11Q C -0.0578(17) -0.0578(17) -0.2319(16)
C12Q C -0.0607(19) -0.0607(19) -0.3170(16)
C9R C 0.0862(17) 0.0000 -0.2255(14)
C10R C 0.093(3) 0.0000 -0.3055(19)
C11R C 0.0578(17) -0.0578(17) -0.2319(16)
C12R C 0.0607(19) -0.0607(19) -0.3170(16)
C9S C 0.0000 0.0862(17) -0.2255(14)
C10S C 0.0000 0.093(3) -0.3055(19)
C11S C 0.0578(17) 0.0578(17) -0.2319(16)
C12S C 0.0607(19) 0.0607(19) -0.3170(16)
Zn1_2 Zn -0.0000 1.0000 0.08200(8)
Zn1_3 Zn 1.0000 0.0000 0.08200(8)
Zn1_4 Zn 1.0000 1.0000 0.08200(8)
Zn1P_2 Zn 0.0000 1.0000 -0.08200(8)
Zn1P_3 Zn 1.0000 0.0000 -0.08200(8)
Zn1P_4 Zn 1.0000 1.0000 -0.08200(8)
Zn2_2 Zn 0.0000 0.0000 -0.53028(15)
Zn2P_2 Zn 0.0000 0.0000 0.53028(15)
Zn2H Zn 0.5000 0.5000 -0.03028(15)
Zn2X Zn 0.5000 0.5000 0.03028(15)
O1A_2 O -0.0841(2) 0.0841(2) 0.0627(3)
O1B_2 O -0.0841(2) -0.0841(2) 0.0627(3)
O1C_2 O 0.0841(2) -0.0841(2) 0.0627(3)
O1P_2 O -0.0841(2) -0.0841(2) -0.0627(3)
O1Q_2 O 0.0841(2) -0.0841(2) -0.0627(3)
O1S_2 O -0.0841(2) 0.0841(2) -0.0627(3)
N3H N -0.1227(4) 0.0000 -0.5000
N3H_2 N -0.1227(4) 0.0000 0.5000
N3I N 0.0000 -0.1227(4) -0.5000
N3I_2 N 0.0000 -0.1227(4) 0.5000
N3J N 0.1227(4) 0.0000 -0.5000
N3J_2 N 0.1227(4) 0.0000 0.5000
N3K N 0.0000 0.1227(4) -0.5000
N3K_2 N 0.0000 0.1227(4) 0.5000
loop_
_geom_bond_atom_site_label_1
_geom_bond_atom_site_label_2
_geom_bond_site_symmetry_1
_geom_bond_site_symmetry_2
Zn1 O1 1_555 1_555
Zn2 N2 1_555 1_555
O1 C1 1_555 1_555
N1 Zn1 1_555 1_555
N2 C10 1_555 1_555
N3 C6 1_555 1_555
C1 C2 1_555 1_555
C2 C3 1_555 1_555
C3 C4 1_555 1_555
C4 C8 1_555 1_555
C5 C6 1_555 1_555
C6 C7 1_555 1_555
C7 C8 1_555 1_555
C8 C4R 1_555 1_555
C9 N1 1_555 1_555
C10 C9 1_555 1_555
C11 N1 1_555 1_555
C12 N2 1_555 1_555
H1 C3 1_555 1_555
H2 C4 1_555 1_555
H3 C5 1_555 1_555
N3A C6U 1_555 1_555
C5U C6U 1_555 1_555
C6U C7 1_555 1_555
H3U C5U 1_555 1_555
O1C C1C 1_555 1_555
C1C C2C 1_555 1_555
C2C C3C 1_555 1_555
C3C C4C 1_555 1_555
C4C C8C 1_555 1_555
C5V C5 1_555 1_555
C6V N3 1_555 1_555
C7C C6V 1_555 1_555
C8C C7C 1_555 1_555
H1C C3C 1_555 1_555
H2C C4C 1_555 1_555
H3V C5V 1_555 1_555
O1R C1 1_555 1_555
C3R C2 1_555 1_555
C4R C3R 1_555 1_555
H1R C3R 1_555 1_555
H2R C4R 1_555 1_555
O1Q C1C 1_555 1_555
C3Q C2C 1_555 1_555
C4Q C8C 1_555 1_555
H1Q C3Q 1_555 1_555
H2Q C4Q 1_555 1_555
O1A C1A 1_555 1_555
C1A C2A 1_555 1_555
C2A C3A 1_555 1_555
C3A C4A 1_555 1_555
C4A C8A 1_555 1_555
C5A C5U 1_555 1_555
C6A N3A 1_555 1_555
C7A C6A 1_555 1_555
C8A C7A 1_555 1_555
H1A C3A 1_555 1_555
H2A C4A 1_555 1_555
H3A C5A 1_555 1_555
N3C C6C 1_555 1_555
C5C C6C 1_555 1_555
C6C C7C 1_555 1_555
H3C C5C 1_555 1_555
O1B C1B 1_555 1_555
C1B C2B 1_555 1_555
C2B C3B 1_555 1_555
C3B C4B 1_555 1_555
C4B C8B 1_555 1_555
C5W C5C 1_555 1_555
C6W N3C 1_555 1_555
C7B C6W 1_555 1_555
C8B C7B 1_555 1_555
H1B C3B 1_555 1_555
H2B C4B 1_555 1_555
H3W C5W 1_555 1_555
O1S C1A 1_555 1_555
C3S C2A 1_555 1_555
C4S C8A 1_555 1_555
H1S C3S 1_555 1_555
H2S C4S 1_555 1_555
O1P C1B 1_555 1_555
C3P C2B 1_555 1_555
C4P C8B 1_555 1_555
H1P C3P 1_555 1_555
H2P C4P 1_555 1_555
N3B C6B 1_555 1_555
C5B C6B 1_555 1_555
C6B C7B 1_555 1_555
H3B C5B 1_555 1_555
C5T C5B 1_555 1_555
C6T C7A 1_555 1_555
H3T C5T 1_555 1_555
C9A N1 1_555 1_555
C10A N2 1_555 1_555
C11A N1 1_555 1_555
C12A N2 1_555 1_555
C9B N1 1_555 1_555
C10B N2 1_555 1_555
C11B N1 1_555 1_555
C12B N2 1_555 1_555
C9C N1 1_555 1_555
C10C N2 1_555 1_555
C11C N1 1_555 1_555
C12C N2 1_555 1_555
Zn1P O1R 1_555 1_555
Zn2P N2P 1_555 1_555
N1P Zn1P 1_555 1_555
N2P C10P 1_555 1_555
C9P N1P 1_555 1_555
C10P C9P 1_555 1_555
C11P N1P 1_555 1_555
C12P N2P 1_555 1_555
C9Q N1P 1_555 1_555
C10Q N2P 1_555 1_555
C11Q N1P 1_555 1_555
C12Q N2P 1_555 1_555
C9R N1P 1_555 1_555
C10R N2P 1_555 1_555
C11R N1P 1_555 1_555
C12R N2P 1_555 1_555
C9S N1P 1_555 1_555
C10S N2P 1_555 1_555
C11S N1P 1_555 1_555
C12S N2P 1_555 1_555
Zn1_2 O1C 1_555 1_555
Zn1_3 O1A 1_555 1_555
Zn1_4 O1B 1_555 1_555
Zn1P_2 O1Q 1_555 1_555
Zn1P_3 O1S 1_555 1_555
Zn1P_4 O1P 1_555 1_555
Zn2_2 Zn2P 1_555 1_555
Zn2P_2 Zn2 1_555 1_555
Zn2H N3 1_555 1_555
Zn2X N3 1_555 1_555
O1A_2 Zn1 1_555 1_555
O1B_2 Zn1 1_555 1_555
O1C_2 Zn1 1_555 1_555
O1P_2 Zn1P 1_555 1_555
O1Q_2 Zn1P 1_555 1_555
O1S_2 Zn1P 1_555 1_555
N3H Zn2P 1_555 1_555
N3H_2 Zn2 1_555 1_555
N3I Zn2P 1_555 1_555
N3I_2 Zn2 1_555 1_555
N3J Zn2P 1_555 1_555
N3J_2 Zn2 1_555 1_555
N3K Zn2P 1_555 1_555
N3K_2 Zn2 1_555 1_555
C9 C11 1_555 1_555
C9 C11A 1_555 1_555
C10 C12 1_555 1_555
C10 C12A 1_555 1_555
C11 C12 1_555 1_555
C11 C9C 1_555 1_555
C12 C10C 1_555 1_555
N3A Zn2H 1_555 1_555
N3A Zn2X 1_555 1_555
C5V C6V 1_555 1_555
C3Q C4Q 1_555 1_555
C5A C6A 1_555 1_555
N3C Zn2H 1_555 1_555
N3C Zn2X 1_555 1_555
C5W C6W 1_555 1_555
C3S C4S 1_555 1_555
C3P C4P 1_555 1_555
N3B C6T 1_555 1_555
N3B Zn2H 1_555 1_555
N3B Zn2X 1_555 1_555
C5T C6T 1_555 1_555
C9A C10A 1_555 1_555
C9A C11A 1_555 1_555
C9A C11B 1_555 1_555
C10A C12A 1_555 1_555
C10A C12B 1_555 1_555
C11A C12A 1_555 1_555
C9B C10B 1_555 1_555
C9B C11B 1_555 1_555
C9B C11C 1_555 1_555
C10B C12B 1_555 1_555
C10B C12C 1_555 1_555
C11B C12B 1_555 1_555
C9C C10C 1_555 1_555
C9C C11C 1_555 1_555
C10C C12C 1_555 1_555
C11C C12C 1_555 1_555
C9P C11P 1_555 1_555
C9P C11Q 1_555 1_555
C10P C12P 1_555 1_555
C10P C12Q 1_555 1_555
C11P C12P 1_555 1_555
C11P C9S 1_555 1_555
C12P C10S 1_555 1_555
C9Q C10Q 1_555 1_555
C9Q C11Q 1_555 1_555
C9Q C11R 1_555 1_555
C10Q C12Q 1_555 1_555
C10Q C12R 1_555 1_555
C11Q C12Q 1_555 1_555
C9R C10R 1_555 1_555
C9R C11R 1_555 1_555
C9R C11S 1_555 1_555
C10R C12R 1_555 1_555
C10R C12S 1_555 1_555
C11R C12R 1_555 1_555
C9S C10S 1_555 1_555
C9S C11S 1_555 1_555
C10S C12S 1_555 1_555
C11S C12S 1_555 1_555
Zn2_2 N3H 1_555 1_555
Zn2_2 N3I 1_555 1_555
Zn2_2 N3J 1_555 1_555
Zn2_2 N3K 1_555 1_555
Zn2P_2 N3H_2 1_555 1_555
Zn2P_2 N3I_2 1_555 1_555
Zn2P_2 N3J_2 1_555 1_555
Zn2P_2 N3K_2 1_555 1_555
Zn2H Zn2X 1_555 1_555

#END
