
#######################################################################
#
#                 Cambridge Crystallographic Data Centre
#                                CCDC 
#
#######################################################################
#
# If this CIF has been generated from an entry in the Cambridge 
# Structural Database, then it will include bibliographic, chemical, 
# crystal, experimental, refinement or atomic coordinate data resulting 
# from the CCDC's data processing and validation procedures.
#
#######################################################################

data_FIBFUS
_chemical_formula_moiety         '(C66 H54 Cl2 N18 Ni1 O8)n'
_symmetry_cell_setting           triclinic
_symmetry_space_group_name_H-M   'P -1'
_symmetry_Int_Tables_number      2
_space_group_name_Hall           '-P 1'
loop_
_symmetry_equiv_pos_site_id
_symmetry_equiv_pos_as_xyz
1 x,y,z
2 -x,-y,-z
_cell_length_a                   13.987(2)
_cell_length_b                   16.153(2)
_cell_length_c                   17.299(2)
_cell_angle_alpha                70.010(10)
_cell_angle_beta                 79.690(10)
_cell_angle_gamma                66.100(10)
_cell_volume                     3354.26
loop_
_atom_site_label
_atom_site_type_symbol
_atom_site_fract_x
_atom_site_fract_y
_atom_site_fract_z
Ni1 Ni 0.71199(5) 0.67213(5) 0.63699(4)
C1 C 0.8822(5) 0.7394(4) 0.6484(4)
H1 H 0.8694 0.7236 0.7052
C2 C 0.8730(5) 0.7591(5) 0.5245(4)
H2 H 0.8550 0.7600 0.4749
C3 C 0.9419(5) 0.7978(5) 0.5320(4)
H3 H 0.9775 0.8288 0.4892
C4 C 1.0054(5) 0.8137(5) 0.6488(4)
H4 H 1.0295 0.8605 0.6079
H5 H 1.0659 0.7603 0.6747
C5 C 0.9312(5) 0.8571(5) 0.7134(3)
C6 C 0.8607(5) 0.9503(5) 0.6903(4)
H6 H 0.8620 0.9879 0.6360
C7 C 0.7886(5) 0.9875(5) 0.7473(3)
H7 H 0.7404 1.0495 0.7305
C8 C 0.7870(5) 0.9332(5) 0.8303(3)
C9 C 0.8577(5) 0.8412(5) 0.8509(3)
H8 H 0.8555 0.8031 0.9049
C10 C 0.9321(5) 0.8020(5) 0.7959(3)
H9 H 0.9813 0.7406 0.8133
N1 N 0.6780(4) 1.0685(4) 0.8717(3)
N2 N 0.5984(3) 1.0542(4) 1.0037(3)
N3 N 0.6980(3) 0.9172(3) 0.9639(3)
C11 C 0.5775(4) 1.2090(5) 0.9103(3)
C12 C 0.5939(5) 1.2636(5) 0.8312(3)
H10 H 0.6339 1.2350 0.7916
C13 C 0.5493(5) 1.3622(5) 0.8124(4)
H11 H 0.5591 1.3992 0.7593
C14 C 0.4910(5) 1.4064(5) 0.8703(4)
C15 C 0.4785(5) 1.3508(5) 0.9464(4)
H12 H 0.4396 1.3791 0.9865
C16 C 0.5211(5) 1.2545(5) 0.9667(4)
H13 H 0.5115 1.2188 1.0204
C17 C 0.4403(5) 1.5122(5) 0.8492(4)
H14 H 0.3654 1.5305 0.8477
H15 H 0.4524 1.5318 0.8925
C18 C 0.6163(4) 0.9022(5) 1.1002(3)
C19 C 0.5529(4) 0.9425(5) 1.1569(3)
H16 H 0.5226 1.0082 1.1439
C20 C 0.5325(5) 0.8867(5) 1.2346(3)
H17 H 0.4882 0.9162 1.2723
C21 C 0.6440(5) 0.7492(5) 1.1976(3)
H18 H 0.6767 0.6835 1.2109
C22 C 0.6632(4) 0.8049(4) 1.1207(3)
H19 H 0.7081 0.7766 1.0825
C23 C 0.7962(5) 0.4616(4) 0.6522(3)
H20 H 0.7301 0.4683 0.6415
C24 C 0.9229(5) 0.4917(4) 0.6707(3)
H21 H 0.9619 0.5244 0.6754
C25 C 0.9611(5) 0.3990(5) 0.6749(4)
H22 H 1.0298 0.3564 0.6841
C26 C 0.8871(5) 0.2898(4) 0.6585(3)
H23 H 0.9461 0.2684 0.6215
H24 H 0.8244 0.2995 0.6345
C27 C 0.9001(5) 0.2127(4) 0.7389(3)
C28 C 0.8566(4) 0.2325(4) 0.8118(3)
H25 H 0.8249 0.2952 0.8126
C29 C 0.8602(4) 0.1591(4) 0.8840(3)
H26 H 0.8275 0.1735 0.9321
C30 C 0.9107(4) 0.0661(4) 0.8859(3)
C31 C 0.9571(4) 0.0451(4) 0.8138(3)
H27 H 0.9915 -0.0176 0.8137
C32 C 0.9514(4) 0.1193(4) 0.7414(3)
H28 H 0.9836 0.1050 0.6932
N4 N 0.8543(3) 0.0102(3) 1.0276(3)
N5 N 0.8998(3) -0.1531(3) 1.0949(3)
N6 N 0.9657(3) -0.1005(3) 0.9609(2)
C33 C 1.0094(4) -0.2682(4) 1.0281(3)
C34 C 0.9740(5) -0.3404(4) 1.0836(3)
H29 H 0.9171 -0.3235 1.1199
C35 C 1.0212(5) -0.4326(5) 1.0846(4)
H30 H 0.9937 -0.4771 1.1187
C36 C 1.1464(5) -0.3943(5) 0.9800(4)
H31 H 1.2041 -0.4125 0.9448
C37 C 1.0970(5) -0.2984(5) 0.9767(3)
H32 H 1.1229 -0.2542 0.9397
C38 C 0.7987(4) -0.0428(4) 1.1699(3)
C39 C 0.7610(5) 0.0442(5) 1.1752(4)
H33 H 0.7670 0.0938 1.1298
C40 C 0.7909(4) -0.1157(5) 1.2382(3)
H34 H 0.8171 -0.1774 1.2351
C41 C 1.2182(4) -0.5990(4) 1.1825(3)
H35 H 1.1728 -0.5415 1.1906
C42 C 1.3311(5) -0.7373(4) 1.2028(3)
H36 H 1.3812 -0.7962 1.2272
C43 C 1.2968(5) -0.7071(4) 1.1245(3)
H37 H 1.3191 -0.7418 1.0871
C44 C 1.1631(5) -0.5630(4) 1.0372(4)
H38 H 1.1103 -0.5878 1.0380
H39 H 1.2085 -0.5685 0.9882
C45 C 1.1115(5) -0.4610(5) 1.0340(4)
C46 C 0.6186(5) 0.7221(4) 1.4691(3)
H40 H 0.5558 0.7656 1.4834
C47 C 0.7726(5) 0.6264(5) 1.4699(3)
H41 H 0.8409 0.5880 1.4853
C48 C 0.7327(5) 0.6367(5) 1.3996(3)
H42 H 0.7675 0.6073 1.3593
C49 C 0.5572(5) 0.7260(5) 1.3398(3)
H43 H 0.4885 0.7582 1.3620
H44 H 0.5565 0.6694 1.3323
C50 C 0.5756(5) 0.7902(5) 1.2567(3)
C51 C 0.5626(5) 1.5891(4) 0.7567(4)
H45 H 0.5990 1.5840 0.7992
C52 C 0.5180(5) 1.6157(5) 0.6411(4)
H46 H 0.5159 1.6334 0.5841
C53 C 0.4494(5) 1.5807(5) 0.6950(4)
H47 H 0.3938 1.5709 0.6819
C54 C 0.5005(5) 0.1555(4) 1.3861(3)
H48 H 0.5359 0.1945 1.3828
C55 C 0.3771(5) 0.1076(4) 1.3918(3)
H49 H 0.3110 0.1061 1.3934
C56 C 0.4678(5) 0.0311(5) 1.3989(4)
H50 H 0.4752 -0.0307 1.4051
C57 C 0.6579(5) 0.0103(5) 1.3984(4)
H51 H 0.6913 0.0455 1.4119
H52 H 0.6709 -0.0494 1.4420
C58 C 0.7068(5) -0.0099(5) 1.3182(4)
C59 C 0.7114(5) 0.0629(5) 1.2495(4)
H53 H 0.6817 0.1251 1.2517
C60 C 0.7442(4) -0.0975(5) 1.3115(3)
H54 H 0.7388 -0.1473 1.3568
N7 N 0.8363(4) 0.7202(4) 0.5990(3)
N8 N 0.9471(4) 0.7826(4) 0.6100(3)
N9 N 0.8177(4) 0.5300(3) 0.6583(3)
N10 N 0.8796(4) 0.3804(3) 0.6629(3)
N11 N 1.2804(3) -0.6674(3) 1.2384(2)
N12 N 1.2261(4) -0.6198(3) 1.1121(3)
N13 N 0.7006(4) 0.6791(3) 1.5144(3)
N14 N 0.6341(4) 0.6973(4) 1.3999(3)
N15 N 0.3956(4) 0.1868(3) 1.3820(3)
N16 N 0.5477(4) 0.0632(4) 1.3951(3)
N17 N 0.5879(4) 1.6215(4) 0.6794(3)
N18 N 0.4785(4) 1.5633(4) 0.7701(3)
C61 C 0.7141(4) 0.9774(5) 0.8911(3)
C62 C 0.6190(4) 1.1051(5) 0.9294(3)
C63 C 0.6373(4) 0.9623(5) 1.0182(3)
C64 C 0.9122(4) -0.0140(4) 0.9615(3)
C65 C 0.8546(4) -0.0647(4) 1.0936(3)
C66 C 0.9571(4) -0.1691(4) 1.0277(3)
Ni1A Ni 1.28801(5) -0.67213(5) 1.36301(4)
Ni1_2 Ni 0.71199(5) 0.67213(5) 1.63699(4)
Ni1A_2 Ni 0.28801(5) 0.32787(5) 1.36301(4)
Ni1_3 Ni 0.71199(5) 1.67213(5) 0.63699(4)
N11A N 0.7196(3) 0.6674(3) 0.7616(2)
N13_2 N 0.7006(4) 0.6791(3) 0.5144(3)
N15A N 0.6044(4) 0.8132(3) 0.6180(3)
N17_2 N 0.5879(4) 0.6215(4) 0.6794(3)
Cl1 Cl 0.7222(3) 0.1744(3) 0.5109(2)
O1 O 0.6711(7) 0.2611(5) 0.4706(6)
O2 O 0.6599(5) 0.1311(6) 0.5488(4)
O3 O 0.7860(7) 0.1720(6) 0.5563(5)
O4 O 0.7769(7) 0.1323(7) 0.4564(5)
Cl2 Cl 0.1747(2) 0.5344(2) 0.76526(15)
O5 O 0.0779(4) 0.5558(7) 0.7557(4)
O6 O 0.1871(6) 0.6115(4) 0.7688(5)
O7 O 0.2067(5) 0.4699(4) 0.8366(3)
O8 O 0.2377(5) 0.5126(5) 0.7039(3)
loop_
_geom_bond_atom_site_label_1
_geom_bond_atom_site_label_2
_geom_bond_site_symmetry_1
_geom_bond_site_symmetry_2
Ni1 N7 1_555 1_555
C1 H1 1_555 1_555
C2 H2 1_555 1_555
C3 C2 1_555 1_555
H3 C3 1_555 1_555
C4 H4 1_555 1_555
H5 C4 1_555 1_555
C5 C4 1_555 1_555
C6 C5 1_555 1_555
H6 C6 1_555 1_555
C7 C6 1_555 1_555
H7 C7 1_555 1_555
C8 C7 1_555 1_555
C9 C8 1_555 1_555
H8 C9 1_555 1_555
C10 C5 1_555 1_555
H9 C10 1_555 1_555
N1 C61 1_555 1_555
N2 C62 1_555 1_555
N3 C61 1_555 1_555
C11 C12 1_555 1_555
C12 H10 1_555 1_555
C13 C12 1_555 1_555
H11 C13 1_555 1_555
C14 C13 1_555 1_555
C15 C14 1_555 1_555
H12 C15 1_555 1_555
C16 C11 1_555 1_555
H13 C16 1_555 1_555
C17 C14 1_555 1_555
H14 C17 1_555 1_555
H15 C17 1_555 1_555
C18 C19 1_555 1_555
C19 H16 1_555 1_555
C20 C19 1_555 1_555
H17 C20 1_555 1_555
C21 H18 1_555 1_555
C22 C18 1_555 1_555
H19 C22 1_555 1_555
C23 H20 1_555 1_555
C24 H21 1_555 1_555
C25 C24 1_555 1_555
H22 C25 1_555 1_555
C26 H23 1_555 1_555
H24 C26 1_555 1_555
C27 C26 1_555 1_555
C28 C27 1_555 1_555
H25 C28 1_555 1_555
C29 C28 1_555 1_555
H26 C29 1_555 1_555
C30 C29 1_555 1_555
C31 C30 1_555 1_555
H27 C31 1_555 1_555
C32 C27 1_555 1_555
H28 C32 1_555 1_555
N4 C64 1_555 1_555
N5 C65 1_555 1_555
N6 C64 1_555 1_555
C33 C34 1_555 1_555
C34 H29 1_555 1_555
C35 C34 1_555 1_555
H30 C35 1_555 1_555
C36 H31 1_555 1_555
C37 C33 1_555 1_555
H32 C37 1_555 1_555
C38 C39 1_555 1_555
C39 H33 1_555 1_555
C40 C38 1_555 1_555
H34 C40 1_555 1_555
C41 H35 1_555 1_555
C42 H36 1_555 1_555
C43 C42 1_555 1_555
H37 C43 1_555 1_555
C44 H38 1_555 1_555
H39 C44 1_555 1_555
C45 C35 1_555 1_555
C46 H40 1_555 1_555
C47 H41 1_555 1_555
C48 C47 1_555 1_555
H42 C48 1_555 1_555
C49 H43 1_555 1_555
H44 C49 1_555 1_555
C50 C20 1_555 1_555
C51 H45 1_555 1_555
C52 H46 1_555 1_555
C53 C52 1_555 1_555
H47 C53 1_555 1_555
C54 H48 1_555 1_555
C55 H49 1_555 1_555
C56 C55 1_555 1_555
H50 C56 1_555 1_555
C57 H51 1_555 1_555
H52 C57 1_555 1_555
C58 C57 1_555 1_555
C59 C39 1_555 1_555
H53 C59 1_555 1_555
C60 C40 1_555 1_555
H54 C60 1_555 1_555
N7 C1 1_555 1_555
N8 C1 1_555 1_555
N9 Ni1 1_555 1_555
N10 C23 1_555 1_555
N11 C41 1_555 1_555
N12 C41 1_555 1_555
N13 C46 1_555 1_555
N14 C46 1_555 1_555
N15 C54 1_555 1_555
N16 C54 1_555 1_555
N17 C51 1_555 1_555
N18 C17 1_555 1_555
C61 C8 1_555 1_555
C62 N1 1_555 1_555
C63 N2 1_555 1_555
C64 C30 1_555 1_555
C65 N4 1_555 1_555
C66 N5 1_555 1_555
Cl1 O1 1_555 1_555
O2 Cl1 1_555 1_555
O3 Cl1 1_555 1_555
O4 Cl1 1_555 1_555
Cl2 O5 1_555 1_555
O6 Cl2 1_555 1_555
O7 Cl2 1_555 1_555
O8 Cl2 1_555 1_555
Ni1A N11 1_555 1_555
Ni1_2 N13 1_555 1_555
Ni1A_2 N15 1_555 1_555
Ni1_3 N17 1_555 1_555
N11A Ni1 1_555 1_555
N13_2 Ni1 1_555 1_555
N15A Ni1 1_555 1_555
N17_2 Ni1 1_555 1_555
C2 N7 1_555 1_555
C3 N8 1_555 1_555
C4 N8 1_555 1_555
C9 C10 1_555 1_555
N3 C63 1_555 1_555
C11 C62 1_555 1_555
C15 C16 1_555 1_555
C18 C63 1_555 1_555
C21 C22 1_555 1_555
C21 C50 1_555 1_555
C23 N9 1_555 1_555
C24 N9 1_555 1_555
C25 N10 1_555 1_555
C26 N10 1_555 1_555
C31 C32 1_555 1_555
N6 C66 1_555 1_555
C33 C66 1_555 1_555
C36 C37 1_555 1_555
C36 C45 1_555 1_555
C38 C65 1_555 1_555
C42 N11 1_555 1_555
C43 N12 1_555 1_555
C44 C45 1_555 1_555
C44 N12 1_555 1_555
C47 N13 1_555 1_555
C48 N14 1_555 1_555
C49 C50 1_555 1_555
C49 N14 1_555 1_555
C51 N18 1_555 1_555
C52 N17 1_555 1_555
C53 N18 1_555 1_555
C55 N15 1_555 1_555
C56 N16 1_555 1_555
C57 N16 1_555 1_555
C58 C59 1_555 1_555
C58 C60 1_555 1_555

#END
