
#######################################################################
#
#                 Cambridge Crystallographic Data Centre
#                                CCDC 
#
#######################################################################
#
# If this CIF has been generated from an entry in the Cambridge 
# Structural Database, then it will include bibliographic, chemical, 
# crystal, experimental, refinement or atomic coordinate data resulting 
# from the CCDC's data processing and validation procedures.
#
#######################################################################

data_DURDEB
_chemical_formula_moiety         '(C22 H14 O10 Zn2)n'
_symmetry_cell_setting           rhombohedral
_symmetry_space_group_name_H-M   'R -3 m'
_symmetry_Int_Tables_number      166
_space_group_name_Hall           '-R 3 2"'
loop_
_symmetry_equiv_pos_site_id
_symmetry_equiv_pos_as_xyz
1 x,y,z
2 -y,x-y,z
3 -x+y,-x,z
4 x-y,-y,-z
5 -x,-x+y,-z
6 y,x,-z
7 2/3+x,1/3+y,1/3+z
8 2/3-y,1/3+x-y,1/3+z
9 2/3-x+y,1/3-x,1/3+z
10 2/3+x-y,1/3-y,1/3-z
11 2/3-x,1/3-x+y,1/3-z
12 2/3+y,1/3+x,1/3-z
13 1/3+x,2/3+y,2/3+z
14 1/3-y,2/3+x-y,2/3+z
15 1/3-x+y,2/3-x,2/3+z
16 1/3+x-y,2/3-y,2/3-z
17 1/3-x,2/3-x+y,2/3-z
18 1/3+y,2/3+x,2/3-z
19 -x,-y,-z
20 y,-x+y,-z
21 x-y,x,-z
22 -x+y,y,z
23 x,x-y,z
24 -y,-x,z
25 1/3-x,2/3-y,2/3-z
26 1/3+y,2/3-x+y,2/3-z
27 1/3+x-y,2/3+x,2/3-z
28 1/3-x+y,2/3+y,2/3+z
29 1/3+x,2/3+x-y,2/3+z
30 1/3-y,2/3-x,2/3+z
31 2/3-x,1/3-y,1/3-z
32 2/3+y,1/3-x+y,1/3-z
33 2/3+x-y,1/3+x,1/3-z
34 2/3-x+y,1/3+y,1/3+z
35 2/3+x,1/3+x-y,1/3+z
36 2/3-y,1/3-x,1/3+z
_cell_length_a                   19.0926(9)
_cell_length_b                   19.0926(9)
_cell_length_c                   37.8155(15)
_cell_angle_alpha                90
_cell_angle_beta                 90
_cell_angle_gamma                120
_cell_volume                     11938
loop_
_atom_site_label
_atom_site_type_symbol
_atom_site_fract_x
_atom_site_fract_y
_atom_site_fract_z
Zn1 Zn 0.80864(2) 0.61729(4) 0.699620(16)
O1 O 0.78258(18) 0.5652(4) 0.74669(12)
H1 H 0.7382 0.5317 0.7366
O2 O 0.7037(2) 0.5541(2) 0.67266(8)
O3 O 0.7420(2) 0.6304(2) 0.62393(9)
C1 C 0.5139(3) 0.4861(3) 0.53505(19)
C2 C 0.5292(3) 0.4708(3) 0.57187(18)
C3 C 0.5990(3) 0.5265(3) 0.58947(12)
H2 H 0.6358 0.5742 0.5782
C4 C 0.6146(3) 0.5111(3) 0.62433(11)
C5 C 0.5586(2) 0.4414(2) 0.64166(16)
H3 H 0.5679 0.4321 0.6649
C6 C 0.6943(3) 0.5712(3) 0.64132(12)
C7 C 0.5619(7) 0.5448(8) 0.5174(3)
H1U H 0.7935 0.5317 0.7366
O2E O 0.5541(2) 0.7037(2) 0.32734(8)
O3E O 0.6304(2) 0.7420(2) 0.37607(9)
C1E C 0.4861(3) 0.5139(3) 0.46495(19)
C2E C 0.4708(3) 0.5292(3) 0.42813(18)
C3E C 0.5265(3) 0.5990(3) 0.41053(12)
H2E H 0.5742 0.6358 0.4218
C4E C 0.5111(3) 0.6146(3) 0.37567(11)
C5E C 0.4414(2) 0.5586(2) 0.35834(16)
H3E H 0.4321 0.5679 0.3351
C6E C 0.5712(3) 0.6943(3) 0.35868(12)
C7E C 0.5448(8) 0.5619(7) 0.4826(3)
O2R O 0.2963(2) 0.4459(2) 0.32734(8)
O3R O 0.2580(2) 0.3696(2) 0.37607(9)
C3R C 0.4010(3) 0.4735(3) 0.41053(12)
H2R H 0.3642 0.4258 0.4218
C4R C 0.3854(3) 0.4889(3) 0.37567(11)
C6R C 0.3057(3) 0.4288(3) 0.35868(12)
C7R C 0.4381(7) 0.4552(8) 0.4826(3)
O2W O 0.4459(2) 0.2963(2) 0.67266(8)
O3W O 0.3696(2) 0.2580(2) 0.62393(9)
C3W C 0.4735(3) 0.4010(3) 0.58947(12)
H2W H 0.4258 0.3642 0.5782
C4W C 0.4889(3) 0.3854(3) 0.62433(11)
C6W C 0.4288(3) 0.3057(3) 0.64132(12)
C7W C 0.4552(8) 0.4381(7) 0.5174(3)
Zn1A Zn 0.38271(4) 0.19135(4) 0.699620(16)
O1A O 0.4348(4) 0.21738(44) 0.74669(12)
H1A H 0.4683 0.2065 0.7366
H1W H 0.4683 0.2618 0.7366
Zn1C Zn 0.19135(4) 0.38271(4) 0.300380(16)
Zn1E Zn 0.61729(4) 0.80864(2) 0.300380(16)
Zn1I Zn 0.85802(4) 0.71604(4) 0.633713(16)
Zn1K Zn 0.28396(4) 0.14197(2) 0.633713(16)
Zn1L Zn 0.14197(2) 0.28396(4) 0.366287(16)
Zn1M Zn 0.71604(4) 0.85802(4) 0.366287(16)
O2A O 0.4459(2) 0.1496(3) 0.67266(8)
O2U O 0.8504(3) 0.5541(2) 0.67266(8)
O3I O 0.7783(3) 0.7029(2) 0.70940(9)
O3K O 0.2971(2) 0.0753(2) 0.70940(9)
O3DA O 0.9247(2) 0.7029(2) 0.70940(9)
O3EA O 0.2971(2) 0.2217(3) 0.70940(9)
loop_
_geom_bond_atom_site_label_1
_geom_bond_atom_site_label_2
_geom_bond_site_symmetry_1
_geom_bond_site_symmetry_2
Zn1 O1 1_555 1_555
O1 H1 1_555 1_555
O2 Zn1 1_555 1_555
O3 C6 1_555 1_555
C1 C2 1_555 1_555
C2 C3 1_555 1_555
C3 H2 1_555 1_555
C4 C3 1_555 1_555
C5 C4 1_555 1_555
H3 C5 1_555 1_555
C6 O2 1_555 1_555
C7 C1 1_555 1_555
H1U O1 1_555 1_555
O2E C6E 1_555 1_555
O3E C6E 1_555 1_555
C1E C2E 1_555 1_555
C2E C3E 1_555 1_555
C3E H2E 1_555 1_555
C4E C3E 1_555 1_555
C5E C4E 1_555 1_555
H3E C5E 1_555 1_555
C6E C4E 1_555 1_555
C7E C7 1_555 1_555
O2R C6R 1_555 1_555
O3R C6R 1_555 1_555
C3R C2E 1_555 1_555
H2R C3R 1_555 1_555
C4R C5E 1_555 1_555
C6R C4R 1_555 1_555
C7R C1E 1_555 1_555
O2W C6W 1_555 1_555
O3W C6W 1_555 1_555
C3W C2 1_555 1_555
H2W C3W 1_555 1_555
C4W C5 1_555 1_555
C6W C4W 1_555 1_555
C7W C1 1_555 1_555
Zn1A O2W 1_555 1_555
O1A Zn1A 1_555 1_555
H1A O1A 1_555 1_555
H1W O1A 1_555 1_555
Zn1C O2R 1_555 1_555
Zn1E O2E 1_555 1_555
Zn1I O3 1_555 1_555
Zn1K O3W 1_555 1_555
Zn1L O3R 1_555 1_555
Zn1M O3E 1_555 1_555
O2A Zn1A 1_555 1_555
O2U Zn1 1_555 1_555
O3I Zn1 1_555 1_555
O3K Zn1A 1_555 1_555
O3DA Zn1 1_555 1_555
O3EA Zn1A 1_555 1_555
C4 C6 1_555 1_555
C1E C7E 1_555 1_555
C3R C4R 1_555 1_555
C7R C7W 1_555 1_555
C3W C4W 1_555 1_555

#END
