
#######################################################################
#
#                 Cambridge Crystallographic Data Centre
#                                CCDC 
#
#######################################################################
#
# If this CIF has been generated from an entry in the Cambridge 
# Structural Database, then it will include bibliographic, chemical, 
# crystal, experimental, refinement or atomic coordinate data resulting 
# from the CCDC's data processing and validation procedures.
#
#######################################################################

data_LOJFOF
_chemical_formula_moiety         '(C54 H36 Cu1 K1 N5 O12)n'
_symmetry_cell_setting           monoclinic
_symmetry_space_group_name_H-M   'I 2/a'
_symmetry_Int_Tables_number      15
_space_group_name_Hall           '-I 2ya'
loop_
_symmetry_equiv_pos_site_id
_symmetry_equiv_pos_as_xyz
1 x,y,z
2 1/2+x,1/2+y,1/2+z
3 1/2+x,-y,z
4 x,1/2-y,1/2+z
5 -x,-y,-z
6 1/2-x,1/2-y,1/2-z
7 1/2-x,y,-z
8 -x,1/2+y,1/2-z
_cell_length_a                   34.9220(10)
_cell_length_b                   8.7900(10)
_cell_length_c                   33.2450(10)
_cell_angle_alpha                90
_cell_angle_beta                 93.836(10)
_cell_angle_gamma                90
_cell_volume                     10182.2
loop_
_atom_site_label
_atom_site_type_symbol
_atom_site_fract_x
_atom_site_fract_y
_atom_site_fract_z
_atom_site_U_iso_or_equiv
_atom_site_thermal_displace_type
N1 N 0.47105(17) 0.3375(8) 0.0751(2) 0.0241 Uani
N2 N 0.52469(18) 0.3129(8) 0.0161(2) 0.0257 Uani
N3 N 0.47076(18) 0.1516(8) -0.0335(2) 0.0259 Uani
N4 N 0.41473(18) 0.2091(8) 0.0215(2) 0.0264 Uani
C1 C 0.3911(2) 0.2515(11) 0.0506(2) 0.0278 Uani
C2 C 0.4026(2) 0.3117(11) 0.0883(3) 0.0277 Uani
C3 C 0.4408(2) 0.3418(10) 0.1001(2) 0.0268 Uani
C4 C 0.4542(3) 0.3926(12) 0.1398(3) 0.0360 Uani
H1 H 0.4395 0.4047 0.1619 0.0430 Uiso
C5 C 0.4921(2) 0.4192(11) 0.1386(3) 0.0330 Uani
H2 H 0.5087 0.4504 0.1601 0.0400 Uiso
C6 C 0.5025(2) 0.3906(10) 0.0981(3) 0.0283 Uani
C7 C 0.5375(2) 0.4206(10) 0.0842(3) 0.0280 Uani
C8 C 0.5469(2) 0.3935(10) 0.0447(2) 0.0257 Uani
C9 C 0.5822(2) 0.4400(11) 0.0279(3) 0.0309 Uani
H3 H 0.6017 0.4968 0.0409 0.0370 Uiso
C10 C 0.5817(2) 0.3864(11) -0.0100(3) 0.0312 Uani
H4 H 0.6002 0.4018 -0.0284 0.0370 Uiso
C11 C 0.5466(2) 0.3004(10) -0.0166(2) 0.0266 Uani
C12 C 0.5371(2) 0.2096(10) -0.0504(3) 0.0271 Uani
C13 C 0.5022(2) 0.1334(10) -0.0565(2) 0.0248 Uani
C14 C 0.4922(2) 0.0295(11) -0.0889(3) 0.0307 Uani
H5 H 0.5085 -0.0037 -0.1081 0.0370 Uiso
C15 C 0.4556(2) -0.0111(11) -0.0867(2) 0.0298 Uani
H6 H 0.4419 -0.0784 -0.1038 0.0360 Uiso
C16 C 0.4412(2) 0.0690(10) -0.0530(2) 0.0253 Uani
C17 C 0.4038(2) 0.0670(10) -0.0421(3) 0.0275 Uani
C18 C 0.3915(2) 0.1388(10) -0.0082(2) 0.0281 Uani
C19 C 0.3518(2) 0.1449(11) 0.0024(3) 0.0333 Uani
H7 H 0.3307 0.1080 -0.0131 0.0400 Uiso
C20 C 0.3513(2) 0.2128(12) 0.0382(3) 0.0345 Uani
H8 H 0.3298 0.2319 0.0525 0.0410 Uiso
C21 C 0.3733(2) 0.3400(10) 0.1177(3) 0.0286 Uani
C22 C 0.3477(3) 0.4625(11) 0.1129(3) 0.0342 Uani
H9 H 0.3489 0.5261 0.0907 0.0410 Uiso
C23 C 0.3205(2) 0.4909(11) 0.1408(3) 0.0333 Uani
H10 H 0.3035 0.5717 0.1368 0.0400 Uiso
C24 C 0.3189(2) 0.3992(10) 0.1740(2) 0.0272 Uani
C25 C 0.3440(2) 0.2754(10) 0.1791(3) 0.0303 Uani
H11 H 0.3427 0.2120 0.2014 0.0370 Uiso
C26 C 0.3707(2) 0.2475(11) 0.1512(3) 0.0302 Uani
H12 H 0.3872 0.1651 0.1550 0.0360 Uiso
C27 C 0.2903(2) 0.4312(12) 0.2048(3) 0.0327 Uani
O1 O 0.26562(17) 0.5318(8) 0.19762(18) 0.0418 Uani
O2 O 0.29193(17) 0.3520(8) 0.23665(19) 0.0390 Uani
C28 C 0.5680(2) 0.4844(11) 0.1140(3) 0.0308 Uani
C29 C 0.5654(2) 0.6284(11) 0.1292(3) 0.0313 Uani
H13 H 0.5457 0.6924 0.1194 0.0380 Uiso
C30 C 0.5919(2) 0.6797(11) 0.1590(3) 0.0319 Uani
H14 H 0.5899 0.7779 0.1691 0.0380 Uiso
C31 C 0.6211(2) 0.5863(11) 0.1738(3) 0.0308 Uani
C32 C 0.6239(3) 0.4415(11) 0.1590(3) 0.0392 Uani
H15 H 0.6433 0.3772 0.1694 0.0470 Uiso
C33 C 0.5978(3) 0.3906(11) 0.1286(3) 0.0393 Uani
H16 H 0.6002 0.2934 0.1180 0.0470 Uiso
C34 C 0.6499(3) 0.6371(12) 0.2062(3) 0.0349 Uani
O3 O 0.6714(2) 0.5492(9) 0.2248(3) 0.0637 Uani
O4 O 0.6496(2) 0.7825(10) 0.2131(2) 0.0416 Uani
H17 H 0.661(3) 0.794(14) 0.226(3) 0.0300 Uiso
C35 C 0.5662(2) 0.1899(11) -0.0810(3) 0.0295 Uani
C36 C 0.6024(2) 0.1316(11) -0.0706(3) 0.0321 Uani
H18 H 0.6085 0.1026 -0.0441 0.0390 Uiso
C37 C 0.6299(2) 0.1152(11) -0.0992(3) 0.0347 Uani
H19 H 0.6539 0.0745 -0.0918 0.0420 Uiso
C38 C 0.6208(3) 0.1604(11) -0.1383(3) 0.0354 Uani
C39 C 0.5848(3) 0.2169(12) -0.1493(3) 0.0383 Uani
H20 H 0.5788 0.2465 -0.1758 0.0460 Uiso
C40 C 0.5574(2) 0.2301(11) -0.1209(3) 0.0332 Uani
H21 H 0.5330 0.2662 -0.1288 0.0400 Uiso
C41 C 0.6514(3) 0.1428(12) -0.1677(3) 0.0411 Uani
O5 O 0.6822(2) 0.0903(9) -0.1596(2) 0.0553 Uani
O6 O 0.6409(2) 0.1976(11) -0.2035(2) 0.0602 Uani
H22 H 0.670(5) 0.203(17) -0.210(4) 0.1200 Uiso
C42 C 0.3740(2) -0.0117(10) -0.0692(2) 0.0277 Uani
C43 C 0.3647(3) 0.0408(13) -0.1071(3) 0.0452 Uani
H23 H 0.3776 0.1256 -0.1160 0.0540 Uiso
C44 C 0.3372(3) -0.0248(13) -0.1330(3) 0.0449 Uani
H24 H 0.3317 0.0150 -0.1586 0.0540 Uiso
C45 C 0.3177(2) -0.1505(11) -0.1203(3) 0.0306 Uani
C46 C 0.3256(3) -0.2085(12) -0.0824(3) 0.0391 Uani
H25 H 0.3125 -0.2929 -0.0736 0.0470 Uiso
C47 C 0.3543(3) -0.1373(12) -0.0567(3) 0.0384 Uani
H26 H 0.3599 -0.1760 -0.0310 0.0460 Uiso
C48 C 0.2886(2) -0.2225(12) -0.1491(3) 0.0341 Uani
O7 O 0.28119(18) -0.1692(8) -0.18242(19) 0.0413 Uani
O8 O 0.27331(19) -0.3479(9) -0.13675(19) 0.0477 Uani
Cu1 Cu 0.47022(3) 0.25271(13) 0.01991(3) 0.0240 Uani
K1 K 0.23251(6) 0.4546(3) 0.27994(7) 0.0433 Uani
O9 O 0.2043(2) 0.7286(12) 0.2592(2) 0.0459 Uani
O12 O 0.2697(7) 0.267(3) 0.3392(7) 0.1060 Uiso
K1B K 0.73251(6) 0.5454(3) 0.27994(7) 0.0433 Uani
K1E K 0.26749(6) 0.0454(3) 0.22006(7) 0.0433 Uani
O2E O 0.20807(17) 0.1480(8) 0.26335(19) 0.0390 Uani
K1A K 0.73251(6) -0.0454(3) -0.22006(7) 0.0433 Uani
K1C K 0.23251(6) 0.0454(3) -0.22006(7) 0.0433 Uani
O3B O 0.1714(2) 0.4508(9) 0.2248(3) 0.0637 Uani
O5A O 0.1822(2) 0.5903(9) 0.3404(2) 0.0553 Uani
O7C O 0.28119(18) 0.6692(8) 0.31758(19) 0.0413 Uani
C49 C 0.4569(4) 0.3565(15) 0.2688(4) 0.0600 Uiso
C50 C 0.4255(4) 0.4380(16) 0.2499(4) 0.0700 Uiso
C51 C 0.4251(5) 0.599(2) 0.2601(5) 0.0970 Uiso
C52 C 0.4544(6) 0.661(2) 0.2880(6) 0.1110 Uiso
C53 C 0.4802(6) 0.573(3) 0.3015(7) 0.1250 Uiso
C54 C 0.4845(5) 0.4342(19) 0.2952(5) 0.0860 Uiso
N5 N 0.4565(5) 0.199(2) 0.2609(5) 0.1170 Uiso
O10 O 0.4780(5) 0.123(2) 0.2793(5) 0.1590 Uiso
O11 O 0.4334(5) 0.144(2) 0.2360(5) 0.1600 Uiso
loop_
_atom_site_aniso_label
_atom_site_aniso_U_11
_atom_site_aniso_U_22
_atom_site_aniso_U_33
_atom_site_aniso_U_23
_atom_site_aniso_U_13
_atom_site_aniso_U_12
N1 0.014(3) 0.031(4) 0.027(4) -0.006(3) -0.001(3) 0.001(3)
N2 0.016(3) 0.032(4) 0.029(4) 0.000(3) 0.000(3) 0.000(3)
N3 0.022(3) 0.029(4) 0.026(4) -0.005(3) -0.003(3) -0.002(3)
N4 0.019(3) 0.035(4) 0.025(4) -0.008(3) 0.000(3) -0.002(3)
C1 0.021(4) 0.038(5) 0.024(4) -0.003(4) -0.002(3) 0.000(4)
C2 0.018(4) 0.039(5) 0.026(5) 0.006(4) 0.000(3) 0.000(4)
C3 0.024(4) 0.033(5) 0.023(4) 0.001(4) -0.001(3) 0.006(4)
C4 0.031(5) 0.049(6) 0.028(5) -0.006(4) 0.001(4) -0.002(5)
C5 0.023(4) 0.046(6) 0.029(5) -0.010(4) -0.005(4) -0.005(4)
C6 0.015(4) 0.039(5) 0.030(5) -0.011(4) -0.005(3) -0.002(4)
C7 0.021(4) 0.034(5) 0.028(5) -0.005(4) -0.006(3) 0.000(4)
C8 0.018(4) 0.035(5) 0.024(4) 0.000(4) 0.001(3) 0.000(4)
C9 0.016(4) 0.048(6) 0.028(5) 0.000(4) -0.004(3) 0.000(4)
C10 0.023(4) 0.044(6) 0.026(5) 0.004(4) -0.002(3) -0.003(4)
C11 0.025(4) 0.033(5) 0.022(4) 0.002(4) 0.002(3) 0.002(4)
C12 0.023(4) 0.029(5) 0.029(5) -0.002(4) 0.000(3) 0.001(4)
C13 0.022(4) 0.032(5) 0.019(4) 0.000(4) -0.009(3) 0.000(4)
C14 0.024(4) 0.043(6) 0.025(5) -0.001(4) 0.000(3) 0.003(4)
C15 0.027(4) 0.041(5) 0.021(4) -0.005(4) -0.002(3) -0.002(4)
C16 0.026(4) 0.027(5) 0.022(4) -0.004(4) -0.005(3) -0.001(4)
C17 0.023(4) 0.031(5) 0.028(5) -0.002(4) -0.003(3) -0.001(4)
C18 0.025(4) 0.034(5) 0.024(4) 0.000(4) -0.009(3) 0.002(4)
C19 0.018(4) 0.049(6) 0.032(5) -0.008(4) -0.005(4) 0.003(4)
C20 0.013(4) 0.058(7) 0.032(5) -0.005(4) -0.003(3) 0.002(4)
C21 0.025(4) 0.030(5) 0.030(5) -0.005(4) -0.003(4) -0.004(4)
C22 0.032(5) 0.044(6) 0.026(5) 0.005(4) -0.002(4) 0.007(4)
C23 0.028(5) 0.038(5) 0.034(5) 0.005(4) 0.003(4) 0.005(4)
C24 0.015(4) 0.040(5) 0.026(5) -0.001(4) -0.002(3) 0.001(4)
C25 0.019(4) 0.039(6) 0.032(5) 0.004(4) -0.006(3) 0.002(4)
C26 0.020(4) 0.036(5) 0.034(5) -0.006(4) -0.002(3) 0.002(4)
C27 0.019(4) 0.052(6) 0.026(5) -0.001(4) -0.006(3) 0.012(4)
O1 0.032(3) 0.067(5) 0.026(3) 0.007(3) 0.000(3) 0.026(4)
O2 0.030(3) 0.055(4) 0.032(4) 0.009(3) 0.001(3) 0.018(3)
C28 0.022(4) 0.044(6) 0.026(5) -0.004(4) -0.001(4) -0.006(4)
C29 0.022(4) 0.041(6) 0.030(5) -0.007(4) -0.005(4) -0.003(4)
C30 0.026(4) 0.037(5) 0.032(5) -0.004(4) -0.003(4) -0.008(4)
C31 0.017(4) 0.045(6) 0.030(5) -0.001(4) -0.002(3) -0.002(4)
C32 0.031(5) 0.037(6) 0.047(6) -0.008(5) -0.017(4) 0.014(4)
C33 0.035(5) 0.034(5) 0.047(6) -0.007(5) -0.012(4) 0.004(4)
C34 0.028(5) 0.040(6) 0.036(5) -0.008(5) -0.004(4) -0.007(4)
O3 0.055(5) 0.051(5) 0.078(6) -0.013(4) -0.048(4) 0.010(4)
O4 0.033(4) 0.054(6) 0.035(4) -0.004(3) -0.018(3) -0.008(3)
C35 0.022(4) 0.037(5) 0.030(5) -0.004(4) 0.005(4) -0.003(4)
C36 0.023(4) 0.043(6) 0.030(5) 0.002(4) -0.001(4) 0.007(4)
C37 0.021(4) 0.040(6) 0.044(6) -0.004(5) 0.008(4) 0.001(4)
C38 0.035(5) 0.039(6) 0.033(5) -0.002(4) 0.009(4) -0.007(5)
C39 0.031(5) 0.059(7) 0.025(5) -0.001(4) 0.003(4) -0.004(5)
C40 0.027(4) 0.042(6) 0.031(5) -0.003(4) 0.005(4) 0.000(4)
C41 0.031(5) 0.049(6) 0.044(6) -0.005(5) 0.007(4) -0.009(5)
O5 0.038(4) 0.065(5) 0.065(5) -0.001(4) 0.020(4) 0.008(4)
O6 0.040(4) 0.102(7) 0.040(4) 0.003(4) 0.012(3) -0.002(4)
C42 0.017(4) 0.039(5) 0.026(4) -0.005(4) -0.007(3) -0.004(4)
C43 0.046(6) 0.061(7) 0.027(5) 0.008(5) -0.009(4) -0.021(5)
C44 0.044(6) 0.056(7) 0.032(5) 0.006(5) -0.017(4) -0.016(5)
C45 0.026(4) 0.041(6) 0.024(5) -0.003(4) -0.004(4) -0.005(4)
C46 0.034(5) 0.050(6) 0.033(5) 0.000(4) -0.001(4) -0.013(5)
C47 0.037(5) 0.050(6) 0.027(5) -0.003(4) -0.007(4) -0.004(5)
C48 0.026(4) 0.052(7) 0.024(5) -0.001(4) -0.001(4) 0.004(4)
O7 0.034(3) 0.060(5) 0.028(4) -0.001(3) -0.011(3) -0.005(3)
O8 0.045(4) 0.064(5) 0.033(4) 0.001(3) -0.005(3) -0.024(4)
Cu1 0.0161(5) 0.0331(6) 0.0223(5) -0.0030(5) -0.0031(4) -0.0011(5)
K1 0.0281 0.0575 0.044 -0.0052 0.0004 0.0022
O9 0.037 0.066 0.034 0.007 -0.002 -0.003
K1B 0.0281 0.0575 0.044 0.0052 0.0004 -0.0022
K1E 0.0281(10) 0.0575(15) 0.0440(13) -0.0052(11) 0.0004(9) 0.0022(10)
O2E 0.03 0.055 0.032 0.009 0.001 0.018
K1A 0.0281 0.0575 0.044 -0.0052 0.0004 0.0022
K1C 0.0281 0.0575 0.044 0.0052 0.0004 -0.0022
O3B 0.055 0.051 0.078 0.013 -0.048 -0.01
O5A 0.038 0.065 0.065 -0.001 0.02 0.008
O7C 0.034 0.06 0.028 0.001 -0.011 0.005
loop_
_geom_bond_atom_site_label_1
_geom_bond_atom_site_label_2
_geom_bond_site_symmetry_1
_geom_bond_site_symmetry_2
N1 C3 1_555 1_555
N2 C8 1_555 1_555
N3 C13 1_555 1_555
N4 C1 1_555 1_555
C1 C2 1_555 1_555
C2 C3 1_555 1_555
C3 C4 1_555 1_555
C4 H1 1_555 1_555
C5 C4 1_555 1_555
H2 C5 1_555 1_555
C6 N1 1_555 1_555
C7 C6 1_555 1_555
C8 C7 1_555 1_555
C9 C8 1_555 1_555
H3 C9 1_555 1_555
C10 C9 1_555 1_555
H4 C10 1_555 1_555
C11 N2 1_555 1_555
C12 C11 1_555 1_555
C13 C12 1_555 1_555
C14 C13 1_555 1_555
H5 C14 1_555 1_555
C15 C14 1_555 1_555
H6 C15 1_555 1_555
C16 N3 1_555 1_555
C17 C16 1_555 1_555
C18 N4 1_555 1_555
C19 C18 1_555 1_555
H7 C19 1_555 1_555
C20 C1 1_555 1_555
H8 C20 1_555 1_555
C21 C2 1_555 1_555
C22 C21 1_555 1_555
H9 C22 1_555 1_555
C23 C22 1_555 1_555
H10 C23 1_555 1_555
C24 C23 1_555 1_555
C25 C24 1_555 1_555
H11 C25 1_555 1_555
C26 C21 1_555 1_555
H12 C26 1_555 1_555
C27 C24 1_555 1_555
O1 C27 1_555 1_555
O2 C27 1_555 1_555
C28 C7 1_555 1_555
C29 C28 1_555 1_555
H13 C29 1_555 1_555
C30 C29 1_555 1_555
H14 C30 1_555 1_555
C31 C30 1_555 1_555
C32 C31 1_555 1_555
H15 C32 1_555 1_555
C33 C28 1_555 1_555
H16 C33 1_555 1_555
C34 C31 1_555 1_555
O3 C34 1_555 1_555
O4 C34 1_555 1_555
H17 O4 1_555 1_555
C35 C12 1_555 1_555
C36 C35 1_555 1_555
H18 C36 1_555 1_555
C37 C36 1_555 1_555
H19 C37 1_555 1_555
C38 C37 1_555 1_555
C39 C38 1_555 1_555
H20 C39 1_555 1_555
C40 C35 1_555 1_555
H21 C40 1_555 1_555
C41 C38 1_555 1_555
O5 C41 1_555 1_555
O6 C41 1_555 1_555
H22 O6 1_555 1_555
C42 C17 1_555 1_555
C43 C42 1_555 1_555
H23 C43 1_555 1_555
C44 C43 1_555 1_555
H24 C44 1_555 1_555
C45 C44 1_555 1_555
C46 C45 1_555 1_555
H25 C46 1_555 1_555
C47 C42 1_555 1_555
H26 C47 1_555 1_555
C48 C45 1_555 1_555
O7 C48 1_555 1_555
O8 C48 1_555 1_555
Cu1 N1 1_555 1_555
K1 O1 1_555 1_555
O9 K1 1_555 1_555
C49 C50 1_555 1_555
C50 C51 1_555 1_555
C51 C52 1_555 1_555
C52 C53 1_555 1_555
C53 C54 1_555 1_555
C54 C49 1_555 1_555
N5 C49 1_555 1_555
O10 N5 1_555 1_555
O11 N5 1_555 1_555
O12 K1 1_555 1_555
K1B O3 1_555 1_555
K1E O2 1_555 1_555
O2E K1 1_555 1_555
K1A O5 1_555 1_555
K1C O7 1_555 1_555
O3B K1 1_555 1_555
O5A K1 1_555 1_555
O7C K1 1_555 1_555
N2 Cu1 1_555 1_555
N3 Cu1 1_555 1_555
N4 Cu1 1_555 1_555
C5 C6 1_555 1_555
C10 C11 1_555 1_555
C15 C16 1_555 1_555
C17 C18 1_555 1_555
C19 C20 1_555 1_555
C25 C26 1_555 1_555
O2 K1 1_555 1_555
C32 C33 1_555 1_555
C39 C40 1_555 1_555
C46 C47 1_555 1_555
K1E O2E 1_555 1_555

#END
