
#######################################################################
#
#                 Cambridge Crystallographic Data Centre
#                                CCDC 
#
#######################################################################
#
# If this CIF has been generated from an entry in the Cambridge 
# Structural Database, then it will include bibliographic, chemical, 
# crystal, experimental, refinement or atomic coordinate data resulting 
# from the CCDC's data processing and validation procedures.
#
#######################################################################

data_LOJFUL
_chemical_formula_moiety         '(C124 H82 N10 Na2 O20 Zn2)n'
_symmetry_cell_setting           triclinic
_symmetry_space_group_name_H-M   'P -1'
_symmetry_Int_Tables_number      2
_space_group_name_Hall           '-P 1'
loop_
_symmetry_equiv_pos_site_id
_symmetry_equiv_pos_as_xyz
1 x,y,z
2 -x,-y,-z
_cell_length_a                   16.3150(5)
_cell_length_b                   17.4050(6)
_cell_length_c                   18.4100(5)
_cell_angle_alpha                89.5920(18)
_cell_angle_beta                 84.330(2)
_cell_angle_gamma                82.5210(15)
_cell_volume                     5157.83
loop_
_atom_site_label
_atom_site_type_symbol
_atom_site_fract_x
_atom_site_fract_y
_atom_site_fract_z
N1 N 0.4719(3) 0.6187(2) 0.8263(2)
N2 N 0.6005(3) 0.4861(2) 0.8201(2)
N3 N 0.4743(3) 0.3836(2) 0.8229(2)
N4 N 0.3457(3) 0.5156(2) 0.8253(2)
C1 C 0.2957(3) 0.5845(3) 0.8312(3)
C2 C 0.3209(3) 0.6579(3) 0.8342(3)
C3 C 0.4042(3) 0.6733(3) 0.8332(3)
C4 C 0.4294(4) 0.7482(4) 0.8389(5)
H1 H 0.3947 0.7951 0.8433
C5 C 0.5118(4) 0.7386(4) 0.8368(4)
H2 H 0.5450 0.7778 0.8399
C6 C 0.5404(4) 0.6575(3) 0.8288(3)
C7 C 0.6225(3) 0.6228(3) 0.8257(3)
C8 C 0.6504(3) 0.5436(3) 0.8222(3)
C9 C 0.7359(4) 0.5085(4) 0.8236(4)
H3 H 0.7822 0.5345 0.8241
C10 C 0.7357(4) 0.4322(4) 0.8240(4)
H4 H 0.7820 0.3952 0.8255
C11 C 0.6516(3) 0.4166(3) 0.8217(3)
C12 C 0.6246(3) 0.3438(3) 0.8240(3)
C13 C 0.5420(3) 0.3281(3) 0.8240(3)
C14 C 0.5160(4) 0.2530(3) 0.8223(4)
H5 H 0.5505 0.2060 0.8212
C15 C 0.4347(4) 0.2618(3) 0.8225(4)
H6 H 0.4015 0.2222 0.8218
C16 C 0.4058(3) 0.3446(3) 0.8243(3)
C17 C 0.3239(3) 0.3780(3) 0.8264(3)
C18 C 0.2960(3) 0.4586(3) 0.8274(3)
C19 C 0.2100(4) 0.4926(4) 0.8349(5)
H7 H 0.1638 0.4662 0.8375
C20 C 0.2095(4) 0.5703(4) 0.8376(5)
H8 H 0.1629 0.6075 0.8425
C21 C 0.2547(4) 0.7262(3) 0.8439(4)
C22 C 0.2357(5) 0.7644(4) 0.9111(4)
H9 H 0.2647 0.7477 0.9505
C23 C 0.1744(4) 0.8266(4) 0.9192(4)
H10 H 0.1629 0.8518 0.9642
C24 C 0.1297(4) 0.8524(3) 0.8626(4)
C25 C 0.1458(4) 0.8144(4) 0.7962(4)
H11 H 0.1148 0.8311 0.7580
C26 C 0.2085(4) 0.7510(4) 0.7855(4)
H12 H 0.2193 0.7257 0.7405
C27 C 0.0630(4) 0.9208(3) 0.8728(4)
O1 O 0.0453(2) 0.9515(2) 0.9329(3)
O2 O 0.0266(3) 0.9416(2) 0.8167(3)
C28 C 0.6867(3) 0.6766(3) 0.8334(3)
C29 C 0.7149(5) 0.6855(4) 0.9013(2)
H13 H 0.6951 0.6577 0.9411
C30 C 0.7727(5) 0.7360(4) 0.9096(2)
H14 H 0.7916 0.7420 0.9550
C31 C 0.8023(3) 0.7776(3) 0.8501(3)
C32 C 0.7741(5) 0.7687(5) 0.7823(3)
H15 H 0.7939 0.7965 0.7424
C33 C 0.7163(5) 0.7182(5) 0.7739(2)
H16 H 0.6974 0.7122 0.7285
C34 C 0.8662(6) 0.8310(5) 0.8622(5)
O3 O 0.8829(3) 0.8481(3) 0.9222(3)
O4 O 0.9111(5) 0.8479(5) 0.7978(5)
C35 C 0.6885(3) 0.2748(3) 0.8327(4)
C36 C 0.6822(3) 0.2295(4) 0.8941(3)
H17 H 0.6389 0.2424 0.9304
C37 C 0.7401(4) 0.1642(4) 0.9024(4)
H18 H 0.7345 0.1336 0.9437
C38 C 0.8055(4) 0.1451(3) 0.8497(4)
C39 C 0.8136(4) 0.1912(4) 0.7887(4)
H19 H 0.8587 0.1795 0.7538
C40 C 0.7548(4) 0.2549(4) 0.7790(4)
H20 H 0.7596 0.2844 0.7369
C41 C 0.8656(4) 0.0742(4) 0.8600(5)
O5 O 0.8526(3) 0.0294(3) 0.9100(4)
O6 O 0.9292(3) 0.0629(2) 0.8116(3)
C42 C 0.2586(3) 0.3250(3) 0.8316(3)
C43 C 0.2448(5) 0.2817(4) 0.8940(4)
H21 H 0.2766 0.2857 0.9328
C44 C 0.1851(5) 0.2332(5) 0.8993(4)
H22 H 0.1765 0.2049 0.9418
C45 C 0.1367(4) 0.2253(4) 0.8420(4)
C46 C 0.1502(4) 0.2672(5) 0.7806(5)
H23 H 0.1184 0.2626 0.7419
C47 C 0.2116(5) 0.3176(5) 0.7743(4)
H24 H 0.2203 0.3458 0.7318
C48 C 0.0737(4) 0.1705(4) 0.8507(4)
O7 O 0.0591(3) 0.1339(3) 0.9043(3)
O8 O 0.0328(3) 0.1675(3) 0.7912(3)
Zn1 Zn 0.4747 0.5011 0.8099
N5 N 0.4845(3) 0.5008(2) 0.69275(16)
C49 C 0.5470(5) 0.5353(7) 0.6533(2)
C50 C 0.5530(5) 0.5352(7) 0.5775(2)
C51 C 0.4966(3) 0.5006(3) 0.54106(16)
C52 C 0.4341(6) 0.4662(7) 0.5805(2)
C53 C 0.4280(5) 0.4663(7) 0.6563(2)
Na1 Na -0.08878(14) 0.94934(13) 0.99980(15)
C54 C -0.3312(12) 0.9589(11) 0.9535(10)
C55 C -0.3776(15) 0.9588(14) 0.8945(12)
C56 C -0.4545(16) 0.9152(16) 0.9193(14)
C57 C -0.4720(13) 0.8910(13) 0.9856(12)
C58 C -0.4283(15) 0.9050(14) 1.0461(12)
C59 C -0.3523(10) 0.9383(9) 1.0349(9)
C60 C -0.2954(9) 0.9560(9) 1.0855(8)
O9 O -0.2261(6) 0.9681(5) 1.0670(5)
O10 O -0.3255(9) 0.9456(9) 1.1496(8)
C61 C -0.270(2) 0.964(2) 1.2056(17)
C62 C -0.2835(18) 1.0357(18) 1.2202(15)
Na1A Na 0.08878(14) 1.05066(13) 1.00020(15)
Na1_2 Na 0.91122(14) 0.94934(13) 0.99980(15)
Na1_3 Na 0.91122(14) -0.05066(13) 0.99980(15)
Na1A_2 Na 0.08878(14) 0.05066(13) 1.00020(15)
C51A C 0.5034(3) 0.4994(3) 0.45894(16)
O1A O -0.0453(2) 1.0485(2) 1.0671(3)
O3_2 O -0.1171(3) 0.8481(3) 0.9222(3)
O5_2 O -0.1474(3) 1.0294(3) 0.9100(4)
O7A O -0.0591(3) 0.8661(3) 1.0957(3)
C50A C 0.4470(5) 0.4648(7) 0.4225(2)
C52A C 0.5659(6) 0.5338(7) 0.4195(2)
C49A C 0.4530(5) 0.4647(7) 0.3467(2)
C53A C 0.5720(5) 0.5337(7) 0.3437(2)
N5A N 0.5155(3) 0.4992(2) 0.30725(16)
Zn1A Zn 0.5253 0.4989 0.1901
O3A O 0.1171(3) 1.1519(3) 1.0778(3)
O5A O 0.1474(3) 0.9706(3) 1.0900(4)
O7_2 O 0.0591(3) 1.1339(3) 0.9043(3)
O9A O 0.2261(6) 1.0319(5) 0.9330(5)
C60A C 0.2954(9) 1.0440(9) 0.9145(8)
C59A C 0.3523(10) 1.0617(9) 0.9651(9)
O10A O 0.3255(9) 1.0544(9) 0.8504(8)
C54A C 0.3312(12) 1.0411(11) 1.0465(10)
C58A C 0.4283(15) 1.0950(14) 0.9539(12)
C61A C 0.270(2) 1.036(2) 0.7944(17)
C55A C 0.3776(15) 1.0412(14) 1.1055(12)
C57A C 0.4720(13) 1.1090(13) 1.0144(12)
C62A C 0.2835(18) 0.9643(18) 0.7798(15)
C56A C 0.4545(16) 1.0848(16) 1.0807(14)
C27A C -0.0630(4) 1.0792(3) 1.1272(4)
C24A C -0.1297(4) 1.1476(3) 1.1374(4)
O2A O -0.0266(3) 1.0584(2) 1.1833(3)
C23A C -0.1744(4) 1.1734(4) 1.0808(4)
C25A C -0.1458(4) 1.1856(4) 1.2038(4)
C22A C -0.2357(5) 1.2356(4) 1.0889(4)
H10A H -0.1629 1.1482 1.0358
H11A H -0.1148 1.1689 1.2420
C26A C -0.2085(4) 1.2490(4) 1.2145(4)
C21A C -0.2547(4) 1.2738(3) 1.1561(4)
H9A H -0.2647 1.2523 1.0495
H12A H -0.2193 1.2743 1.2595
C2A C -0.3209(3) 1.3421(3) 1.1658(3)
C1A C -0.2957(3) 1.4155(3) 1.1688(3)
C3A C -0.4042(3) 1.3267(3) 1.1668(3)
N4A N -0.3457(3) 1.4844(2) 1.1747(2)
C20A C -0.2095(4) 1.4297(4) 1.1624(5)
N1A N -0.4719(3) 1.3813(2) 1.1737(2)
C4A C -0.4294(4) 1.2518(4) 1.1611(5)
C18A C -0.2960(3) 1.5414(3) 1.1726(3)
Zn1A_2 Zn -0.4747 1.4989 1.1901
C19A C -0.2100(4) 1.5074(4) 1.1651(5)
H8A H -0.1629 1.3925 1.1575
C6A C -0.5404(4) 1.3425(3) 1.1712(3)
H1A H -0.3947 1.2049 1.1567
C5A C -0.5118(4) 1.2614(4) 1.1632(4)
C17A C -0.3239(3) 1.6220(3) 1.1736(3)
H7A H -0.1638 1.5338 1.1625
C7A C -0.6225(3) 1.3772(3) 1.1743(3)
H2A H -0.5450 1.2222 1.1601
C16A C -0.4058(3) 1.6554(3) 1.1757(3)
C42A C -0.2586(3) 1.6750(3) 1.1684(3)
C8A C -0.6504(3) 1.4564(3) 1.1778(3)
C28A C -0.6867(3) 1.3234(3) 1.1666(3)
N3A N -0.4743(3) 1.6164(2) 1.1771(2)
C15A C -0.4347(4) 1.7382(3) 1.1775(4)
C43A C -0.2448(5) 1.7183(4) 1.1060(4)
C47A C -0.2116(5) 1.6824(5) 1.2257(4)
N2A N -0.6005(3) 1.5139(2) 1.1799(2)
C9A C -0.7359(4) 1.4915(4) 1.1764(4)
C29A C -0.7149(5) 1.3145(4) 1.0987(2)
C33A C -0.7163(5) 1.2818(5) 1.2261(2)
C13A C -0.5420(3) 1.6719(3) 1.1760(3)
C14A C -0.5160(4) 1.7470(3) 1.1777(4)
H6A H -0.4015 1.7778 1.1782
H21A H -0.2766 1.7143 1.0672
C44A C -0.1851(5) 1.7668(5) 1.1007(4)
C46A C -0.1502(4) 1.7328(5) 1.2194(5)
H24A H -0.2203 1.6542 1.2682
C11A C -0.6516(3) 1.5834(3) 1.1783(3)
H3A H -0.7822 1.4655 1.1759
C10A C -0.7357(4) 1.5678(4) 1.1760(4)
H13A H -0.6951 1.3423 1.0589
C30A C -0.7727(5) 1.2640(4) 1.0904(2)
C32A C -0.7741(5) 1.2313(5) 1.2177(3)
H16A H -0.6974 1.2878 1.2715
C12A C -0.6246(3) 1.6562(3) 1.1760(3)
H5A H -0.5505 1.7940 1.1788
H22A H -0.1765 1.7951 1.0582
C45A C -0.1367(4) 1.7747(4) 1.1580(4)
H23A H -0.1184 1.7374 1.2581
H4A H -0.7820 1.6048 1.1745
H14A H -0.7916 1.2580 1.0450
C31A C -0.8023(3) 1.2224(3) 1.1499(3)
H15A H -0.7939 1.2035 1.2576
C35A C -0.6885(3) 1.7252(3) 1.1673(4)
C48A C -0.0737(4) 1.8295(4) 1.1493(4)
C34A C -0.8662(6) 1.1690(5) 1.1378(5)
C36A C -0.6822(3) 1.7705(4) 1.1059(3)
C40A C -0.7548(4) 1.7451(4) 1.2210(4)
O7A_2 O -0.0591(3) 1.8661(3) 1.0957(3)
O8A O -0.0328(3) 1.8325(3) 1.2088(3)
O3A_2 O -0.8829(3) 1.1519(3) 1.0778(3)
O4A O -0.9111(5) 1.1521(5) 1.2022(5)
H17A H -0.6389 1.7576 1.0696
C37A C -0.7401(4) 1.8358(4) 1.0976(4)
C39A C -0.8136(4) 1.8088(4) 1.2113(4)
H20A H -0.7596 1.7156 1.2631
Na1_4 Na -0.08878(14) 1.94934(13) 0.99980(15)
Na1A_3 Na -0.91122(14) 1.05066(13) 1.00020(15)
H18A H -0.7345 1.8664 1.0563
C38A C -0.8055(4) 1.8549(3) 1.1503(4)
H19A H -0.8587 1.8205 1.2462
C41A C -0.8656(4) 1.9258(4) 1.1400(5)
O5A_2 O -0.8526(3) 1.9706(3) 1.0900(4)
O6A O -0.9292(3) 1.9371(2) 1.1884(3)
Na1A_4 Na -0.91122(14) 2.05066(13) 1.00020(15)
N5A_2 N -0.4845(3) 1.4992(2) 1.30725(16)
loop_
_geom_bond_atom_site_label_1
_geom_bond_atom_site_label_2
_geom_bond_site_symmetry_1
_geom_bond_site_symmetry_2
N1 C3 1_555 1_555
N2 C8 1_555 1_555
N3 C13 1_555 1_555
N4 C1 1_555 1_555
C1 C2 1_555 1_555
C2 C3 1_555 1_555
C3 C4 1_555 1_555
C4 H1 1_555 1_555
C5 C4 1_555 1_555
H2 C5 1_555 1_555
C6 N1 1_555 1_555
C7 C6 1_555 1_555
C8 C7 1_555 1_555
C9 C8 1_555 1_555
H3 C9 1_555 1_555
C10 C9 1_555 1_555
H4 C10 1_555 1_555
C11 N2 1_555 1_555
C12 C11 1_555 1_555
C13 C12 1_555 1_555
C14 C13 1_555 1_555
H5 C14 1_555 1_555
C15 C14 1_555 1_555
H6 C15 1_555 1_555
C16 N3 1_555 1_555
C17 C16 1_555 1_555
C18 N4 1_555 1_555
C19 C18 1_555 1_555
H7 C19 1_555 1_555
C20 C1 1_555 1_555
H8 C20 1_555 1_555
C21 C2 1_555 1_555
C22 C21 1_555 1_555
H9 C22 1_555 1_555
C23 C22 1_555 1_555
H10 C23 1_555 1_555
C24 C23 1_555 1_555
C25 C24 1_555 1_555
H11 C25 1_555 1_555
C26 C21 1_555 1_555
H12 C26 1_555 1_555
C27 C24 1_555 1_555
O1 C27 1_555 1_555
O2 C27 1_555 1_555
C28 C7 1_555 1_555
C29 C28 1_555 1_555
H13 C29 1_555 1_555
C30 C29 1_555 1_555
H14 C30 1_555 1_555
C31 C30 1_555 1_555
C32 C31 1_555 1_555
H15 C32 1_555 1_555
C33 C28 1_555 1_555
H16 C33 1_555 1_555
C34 C31 1_555 1_555
O3 C34 1_555 1_555
O4 C34 1_555 1_555
C35 C12 1_555 1_555
C36 C35 1_555 1_555
H17 C36 1_555 1_555
C37 C36 1_555 1_555
H18 C37 1_555 1_555
C38 C37 1_555 1_555
C39 C38 1_555 1_555
H19 C39 1_555 1_555
C40 C35 1_555 1_555
H20 C40 1_555 1_555
C41 C38 1_555 1_555
O5 C41 1_555 1_555
O6 C41 1_555 1_555
C42 C17 1_555 1_555
C43 C42 1_555 1_555
H21 C43 1_555 1_555
C44 C43 1_555 1_555
H22 C44 1_555 1_555
C45 C44 1_555 1_555
C46 C45 1_555 1_555
H23 C46 1_555 1_555
C47 C42 1_555 1_555
H24 C47 1_555 1_555
C48 C45 1_555 1_555
O7 C48 1_555 1_555
O8 C48 1_555 1_555
Zn1 N1 1_555 1_555
N5 Zn1 1_555 1_555
C49 N5 1_555 1_555
C50 C49 1_555 1_555
C51 C50 1_555 1_555
C52 C51 1_555 1_555
C53 N5 1_555 1_555
Na1 O1 1_555 1_555
C54 C55 1_555 1_555
C55 C56 1_555 1_555
C56 C57 1_555 1_555
C57 C58 1_555 1_555
C58 C59 1_555 1_555
C59 C54 1_555 1_555
C60 C59 1_555 1_555
O9 Na1 1_555 1_555
O10 C60 1_555 1_555
C61 O10 1_555 1_555
C62 C61 1_555 1_555
Na1A O1 1_555 1_555
Na1_2 O3 1_555 1_555
Na1_3 O5 1_555 1_555
Na1A_2 O7 1_555 1_555
C51A C51 1_555 1_555
O1A Na1 1_555 1_555
O3_2 Na1 1_555 1_555
O5_2 Na1 1_555 1_555
O7A Na1 1_555 1_555
C50A C51A 1_555 1_555
C52A C51A 1_555 1_555
C49A C50A 1_555 1_555
C53A C52A 1_555 1_555
N5A C49A 1_555 1_555
Zn1A N5A 1_555 1_555
O3A Na1A 1_555 1_555
O5A Na1A 1_555 1_555
O7_2 Na1A 1_555 1_555
O9A Na1A 1_555 1_555
C60A O9A 1_555 1_555
C59A C60A 1_555 1_555
O10A C60A 1_555 1_555
C54A C59A 1_555 1_555
C58A C59A 1_555 1_555
C61A O10A 1_555 1_555
C55A C54A 1_555 1_555
C57A C58A 1_555 1_555
C62A C61A 1_555 1_555
C56A C55A 1_555 1_555
C27A O1A 1_555 1_555
C24A C27A 1_555 1_555
O2A C27A 1_555 1_555
C23A C24A 1_555 1_555
C25A C24A 1_555 1_555
C22A C23A 1_555 1_555
H10A C23A 1_555 1_555
H11A C25A 1_555 1_555
C26A C25A 1_555 1_555
C21A C22A 1_555 1_555
H9A C22A 1_555 1_555
H12A C26A 1_555 1_555
C2A C21A 1_555 1_555
C1A C2A 1_555 1_555
C3A C2A 1_555 1_555
N4A C1A 1_555 1_555
C20A C1A 1_555 1_555
N1A C3A 1_555 1_555
C4A C3A 1_555 1_555
C18A N4A 1_555 1_555
Zn1A_2 N4A 1_555 1_555
C19A C20A 1_555 1_555
H8A C20A 1_555 1_555
C6A N1A 1_555 1_555
H1A C4A 1_555 1_555
C5A C4A 1_555 1_555
C17A C18A 1_555 1_555
H7A C19A 1_555 1_555
C7A C6A 1_555 1_555
H2A C5A 1_555 1_555
C16A C17A 1_555 1_555
C42A C17A 1_555 1_555
C8A C7A 1_555 1_555
C28A C7A 1_555 1_555
N3A Zn1A_2 1_555 1_555
C15A C16A 1_555 1_555
C43A C42A 1_555 1_555
C47A C42A 1_555 1_555
N2A Zn1A_2 1_555 1_555
C9A C8A 1_555 1_555
C29A C28A 1_555 1_555
C33A C28A 1_555 1_555
C13A N3A 1_555 1_555
C14A C15A 1_555 1_555
H6A C15A 1_555 1_555
H21A C43A 1_555 1_555
C44A C43A 1_555 1_555
C46A C47A 1_555 1_555
H24A C47A 1_555 1_555
C11A N2A 1_555 1_555
H3A C9A 1_555 1_555
C10A C9A 1_555 1_555
H13A C29A 1_555 1_555
C30A C29A 1_555 1_555
C32A C33A 1_555 1_555
H16A C33A 1_555 1_555
C12A C13A 1_555 1_555
H5A C14A 1_555 1_555
H22A C44A 1_555 1_555
C45A C44A 1_555 1_555
H23A C46A 1_555 1_555
H4A C10A 1_555 1_555
H14A C30A 1_555 1_555
C31A C30A 1_555 1_555
H15A C32A 1_555 1_555
C35A C12A 1_555 1_555
C48A C45A 1_555 1_555
C34A C31A 1_555 1_555
C36A C35A 1_555 1_555
C40A C35A 1_555 1_555
O7A_2 C48A 1_555 1_555
O8A C48A 1_555 1_555
O3A_2 C34A 1_555 1_555
O4A C34A 1_555 1_555
H17A C36A 1_555 1_555
C37A C36A 1_555 1_555
C39A C40A 1_555 1_555
H20A C40A 1_555 1_555
Na1_4 O7A_2 1_555 1_555
Na1A_3 O3A_2 1_555 1_555
H18A C37A 1_555 1_555
C38A C37A 1_555 1_555
H19A C39A 1_555 1_555
C41A C38A 1_555 1_555
O5A_2 C41A 1_555 1_555
O6A C41A 1_555 1_555
Na1A_4 O5A_2 1_555 1_555
N5A_2 Zn1A_2 1_555 1_555
N2 Zn1 1_555 1_555
N3 Zn1 1_555 1_555
N4 Zn1 1_555 1_555
C5 C6 1_555 1_555
C10 C11 1_555 1_555
C15 C16 1_555 1_555
C17 C18 1_555 1_555
C19 C20 1_555 1_555
C25 C26 1_555 1_555
C32 C33 1_555 1_555
C39 C40 1_555 1_555
C46 C47 1_555 1_555
C52 C53 1_555 1_555
C60 O9 1_555 1_555
Na1A O1A 1_555 1_555
C53A N5A 1_555 1_555
C57A C56A 1_555 1_555
C26A C21A 1_555 1_555
N1A Zn1A_2 1_555 1_555
C18A C19A 1_555 1_555
C6A C5A 1_555 1_555
C16A N3A 1_555 1_555
C8A N2A 1_555 1_555
C13A C14A 1_555 1_555
C46A C45A 1_555 1_555
C11A C10A 1_555 1_555
C11A C12A 1_555 1_555
C32A C31A 1_555 1_555
C39A C38A 1_555 1_555

#END
