
#######################################################################
#
#                 Cambridge Crystallographic Data Centre
#                                CCDC 
#
#######################################################################
#
# If this CIF has been generated from an entry in the Cambridge 
# Structural Database, then it will include bibliographic, chemical, 
# crystal, experimental, refinement or atomic coordinate data resulting 
# from the CCDC's data processing and validation procedures.
#
#######################################################################

data_BOWDUO
_chemical_formula_moiety         '(C114 H90 Co9 N18 O42)n'
_symmetry_cell_setting           monoclinic
_symmetry_space_group_name_H-M   'C 2/m'
_symmetry_Int_Tables_number      12
_space_group_name_Hall           '-C 2y'
loop_
_symmetry_equiv_pos_site_id
_symmetry_equiv_pos_as_xyz
1 x,y,z
2 -x,y,-z
3 1/2+x,1/2+y,z
4 1/2-x,1/2+y,-z
5 -x,-y,-z
6 x,-y,z
7 1/2-x,1/2-y,-z
8 1/2+x,1/2-y,z
_cell_length_a                   31.1125(17)
_cell_length_b                   25.3261(17)
_cell_length_c                   12.9022(10)
_cell_angle_alpha                90
_cell_angle_beta                 113.280(7)
_cell_angle_gamma                90
_cell_volume                     9338.69
loop_
_atom_site_label
_atom_site_type_symbol
_atom_site_fract_x
_atom_site_fract_y
_atom_site_fract_z
Co1 Co 0.77392(10) 0.5000 -0.0730(3)
Co2 Co 0.79149(10) 0.5000 -0.3288(3)
Co3 Co 0.56323(7) 0.74591(8) -0.43563(17)
Co4 Co 0.5000 0.5000 0.0000
O1 O 0.5725(4) 0.5000 0.0534(11)
O2 O 0.6263(5) 0.5000 0.2289(12)
O3 O 0.9095(4) 0.7103(4) -0.4671(9)
O4 O 0.9705(8) 0.6658(10) -0.357(2)
O5 O 0.7370(4) 0.5587(6) -0.1773(10)
O6 O 0.7436(3) 0.5596(4) -0.3427(9)
O7 O 0.8121(4) 0.5567(5) 0.0425(9)
O8 O 0.8626(4) 0.5797(5) -0.0351(10)
O9 O 0.5393(3) 0.7044(4) -0.3309(8)
O10 O 0.4632(3) 0.6902(4) -0.4349(8)
O11 O 0.8240(4) 0.5000 -0.1543(11)
O12 O 0.5000 0.7907(5) -0.5000
O13 O 0.7631(8) 0.5000 -0.5081(14)
N1 N 0.7215(5) 0.5000 -0.0057(14)
N2 N 0.6254(4) 0.6995(5) -0.3755(10)
N3 N 0.9057(4) 0.6991(5) 0.2996(9)
N4 N 0.4986(4) 0.5624(5) -0.1179(10)
C1 C 0.7310(8) 0.5000 0.102(2)
H1 H 0.7624 0.5000 0.1505
C2 C 0.6989(9) 0.5000 0.150(2)
H2 H 0.7084 0.5000 0.2277
C3 C 0.6513(7) 0.5000 0.0781(17)
C4 C 0.6403(7) 0.5000 -0.0357(19)
H3 H 0.6092 0.5000 -0.0865
C5 C 0.6765(8) 0.5000 -0.0749(19)
H4 H 0.6687 0.5000 -0.1523
C6 C 0.6141(7) 0.5000 0.1263(17)
N5 N 0.8375(4) 0.5628(6) -0.3359(13)
C7 C 0.8197(8) 0.6052(9) -0.403(2)
H5 H 0.7875 0.6107 -0.4318
C8 C 0.8962(6) 0.6375(8) -0.3753(14)
C9 C 0.8474(7) 0.6409(9) -0.4295(18)
H6 H 0.8337 0.6670 -0.4831
C10 C 0.9276(6) 0.6725(8) -0.4061(15)
C11 C 0.6441(5) 0.6815(6) -0.4464(12)
H7 H 0.6334 0.6953 -0.5191
C12 C 0.6786(5) 0.6432(6) -0.4158(12)
H8 H 0.6915 0.6323 -0.4662
C13 C 0.6937(5) 0.6213(6) -0.3088(12)
C14 C 0.6757(5) 0.6410(7) -0.2353(13)
H9 H 0.6862 0.6284 -0.1617
C15 C 0.6416(5) 0.6801(6) -0.2719(12)
H10 H 0.6296 0.6931 -0.2213
C16 C 0.7285(5) 0.5758(6) -0.2733(13)
C17 C 0.8657(5) 0.6738(7) 0.2867(13)
H11 H 0.8514 0.6820 0.3357
C18 C 0.8452(5) 0.6364(7) 0.2042(14)
H12 H 0.8182 0.6189 0.1995
C19 C 0.8657(5) 0.6252(6) 0.1277(14)
C20 C 0.9057(6) 0.6522(7) 0.1400(14)
H13 H 0.9202 0.6460 0.0904
C21 C 0.9244(5) 0.6886(6) 0.2254(13)
H14 H 0.9514 0.7066 0.2316
C22 C 0.8445(5) 0.5846(7) 0.0366(14)
C23 C 0.4617(5) 0.5711(6) -0.2142(12)
H15 H 0.4352 0.5503 -0.2304
C24 C 0.4608(5) 0.6095(6) -0.2905(13)
H16 H 0.4341 0.6143 -0.3561
C25 C 0.5001(5) 0.6412(6) -0.2690(12)
C26 C 0.5381(5) 0.6330(6) -0.1689(13)
H17 H 0.5649 0.6536 -0.1508
C27 C 0.5362(5) 0.5939(6) -0.0951(13)
H18 H 0.5619 0.5894 -0.0272
C28 C 0.5000(5) 0.6821(6) -0.3540(11)
C29 C 0.8831(6) 0.5672(8) -0.2680(18)
C30 C 0.9136(7) 0.6028(9) -0.2860(18)
H19 H 0.8950 0.5452 -0.2053
H20 H 0.9452 0.6031 -0.2386
Co1A Co 0.22608(10) 0.5000 -0.9270(3)
Co2A Co 0.20851(10) 0.5000 -0.6712(3)
Co3A Co 0.43677(7) 0.74591(8) -0.56437(17)
O1A O 0.4275(4) 0.5000 -1.0534(11)
O2A O 0.3737(5) 0.5000 -1.2289(12)
O3A O 0.0905(4) 0.7103(4) -0.5329(9)
O4A O 0.0295(8) 0.6658(10) -0.643(2)
O5A O 0.2630(4) 0.5587(6) -0.8227(10)
O6A O 0.2564(3) 0.5596(4) -0.6573(9)
O7A O 0.1879(4) 0.5567(5) -1.0425(9)
O8A O 0.1374(4) 0.5797(5) -0.9649(10)
O9A O 0.4607(3) 0.7044(4) -0.6691(8)
O10A O 0.5368(3) 0.6902(4) -0.5651(8)
O11A O 0.1760(4) 0.5000 -0.8457(11)
O13A O 0.2369(8) 0.5000 -0.4919(14)
N1A N 0.2785(5) 0.5000 -0.9943(14)
N2A N 0.3746(4) 0.6995(5) -0.6245(10)
N3A N 0.0943(4) 0.6991(5) -1.2996(9)
N4A N 0.5014(4) 0.5624(5) -0.8821(10)
C1A C 0.2690(8) 0.5000 -1.102(2)
H1A H 0.2376 0.5000 -1.1505
C2A C 0.3011(9) 0.5000 -1.150(2)
H2A H 0.2916 0.5000 -1.2277
C3A C 0.3487(7) 0.5000 -1.0781(17)
C4A C 0.3597(7) 0.5000 -0.9643(19)
H3A H 0.3908 0.5000 -0.9135
C5A C 0.3235(8) 0.5000 -0.9251(19)
H4A H 0.3313 0.5000 -0.8477
C6A C 0.3859(7) 0.5000 -1.1263(17)
N5A N 0.1625(4) 0.5628(6) -0.6641(13)
C7A C 0.1803(8) 0.6052(9) -0.597(2)
H5A H 0.2125 0.6107 -0.5682
C8A C 0.1038(6) 0.6375(8) -0.6247(14)
C9A C 0.1526(7) 0.6409(9) -0.5705(18)
H6A H 0.1663 0.6670 -0.5169
C10A C 0.0724(6) 0.6725(8) -0.5939(15)
C11A C 0.3559(5) 0.6815(6) -0.5536(12)
H7A H 0.3666 0.6953 -0.4809
C12A C 0.3214(5) 0.6432(6) -0.5842(12)
H8A H 0.3085 0.6323 -0.5338
C13A C 0.3063(5) 0.6213(6) -0.6912(12)
C14A C 0.3243(5) 0.6410(7) -0.7647(13)
H9A H 0.3138 0.6284 -0.8383
C15A C 0.3584(5) 0.6801(6) -0.7281(12)
H10A H 0.3704 0.6931 -0.7787
C16A C 0.2715(5) 0.5758(6) -0.7267(13)
C17A C 0.1343(5) 0.6738(7) -1.2867(13)
H11A H 0.1486 0.6820 -1.3357
C18A C 0.1548(5) 0.6364(7) -1.2042(14)
H12A H 0.1818 0.6189 -1.1995
C19A C 0.1343(5) 0.6252(6) -1.1277(14)
C20A C 0.0943(6) 0.6522(7) -1.1400(14)
H13A H 0.0798 0.6460 -1.0904
C21A C 0.0756(5) 0.6886(6) -1.2254(13)
H14A H 0.0486 0.7066 -1.2316
C22A C 0.1555(5) 0.5846(7) -1.0366(14)
C23A C 0.5383(5) 0.5711(6) -0.7858(12)
H15A H 0.5648 0.5503 -0.7696
C24A C 0.5392(5) 0.6095(6) -0.7095(13)
H16A H 0.5659 0.6143 -0.6439
C25A C 0.4999(5) 0.6412(6) -0.7310(12)
C26A C 0.4619(5) 0.6330(6) -0.8311(13)
H17A H 0.4351 0.6536 -0.8492
C27A C 0.4638(5) 0.5939(6) -0.9049(13)
H18A H 0.4381 0.5894 -0.9728
C28A C 0.5000(5) 0.6821(6) -0.6460(11)
C29A C 0.1169(6) 0.5672(8) -0.7320(18)
C30A C 0.0864(7) 0.6028(9) -0.7140(18)
H19A H 0.1050 0.5452 -0.7947
H20A H 0.0548 0.6031 -0.7614
Co3D Co 0.43677(7) 0.25409(8) -0.56437(17)
O3D O 0.0905(4) 0.2897(4) -0.5329(9)
O4D O 0.0295(8) 0.3342(10) -0.643(2)
O5D O 0.2630(4) 0.4413(6) -0.8227(10)
O6D O 0.2564(3) 0.4404(4) -0.6573(9)
O7D O 0.1879(4) 0.4433(5) -1.0425(9)
O8D O 0.1374(4) 0.4203(5) -0.9649(10)
O9D O 0.4607(3) 0.2956(4) -0.6691(8)
O10D O 0.5368(3) 0.3098(4) -0.5651(8)
O12D O 0.5000 0.2093(5) -0.5000
N2D N 0.3746(4) 0.3005(5) -0.6245(10)
N3D N 0.0943(4) 0.3009(5) -1.2996(9)
N4D N 0.5014(4) 0.4376(5) -0.8821(10)
N5D N 0.1625(4) 0.4372(6) -0.6641(13)
C7D C 0.1803(8) 0.3948(9) -0.597(2)
H5D H 0.2125 0.3893 -0.5682
C8D C 0.1038(6) 0.3625(8) -0.6247(14)
C9D C 0.1526(7) 0.3591(9) -0.5705(18)
H6D H 0.1663 0.3330 -0.5169
C10D C 0.0724(6) 0.3275(8) -0.5939(15)
C11D C 0.3559(5) 0.3185(6) -0.5536(12)
H7D H 0.3666 0.3047 -0.4809
C12D C 0.3214(5) 0.3568(6) -0.5842(12)
H8D H 0.3085 0.3677 -0.5338
C13D C 0.3063(5) 0.3787(6) -0.6912(12)
C14D C 0.3243(5) 0.3590(7) -0.7647(13)
H9D H 0.3138 0.3716 -0.8383
C15D C 0.3584(5) 0.3199(6) -0.7281(12)
H10D H 0.3704 0.3069 -0.7787
C16D C 0.2715(5) 0.4242(6) -0.7267(13)
C17D C 0.1343(5) 0.3262(7) -1.2867(13)
H11D H 0.1486 0.3180 -1.3357
C18D C 0.1548(5) 0.3636(7) -1.2042(14)
H12D H 0.1818 0.3811 -1.1995
C19D C 0.1343(5) 0.3748(6) -1.1277(14)
C20D C 0.0943(6) 0.3478(7) -1.1400(14)
H13D H 0.0798 0.3540 -1.0904
C21D C 0.0756(5) 0.3114(6) -1.2254(13)
H14D H 0.0486 0.2934 -1.2316
C22D C 0.1555(5) 0.4154(7) -1.0366(14)
C23D C 0.5383(5) 0.4289(6) -0.7858(12)
H15D H 0.5648 0.4497 -0.7696
C24D C 0.5392(5) 0.3905(6) -0.7095(13)
H16D H 0.5659 0.3857 -0.6439
C25D C 0.4999(5) 0.3588(6) -0.7310(12)
C26D C 0.4619(5) 0.3670(6) -0.8311(13)
H17D H 0.4351 0.3464 -0.8492
C27D C 0.4638(5) 0.4061(6) -0.9049(13)
H18D H 0.4381 0.4106 -0.9728
C28D C 0.5000(5) 0.3179(6) -0.6460(11)
C29D C 0.1169(6) 0.4328(8) -0.7320(18)
C30D C 0.0864(7) 0.3972(9) -0.7140(18)
H19D H 0.1050 0.4548 -0.7947
H20D H 0.0548 0.3969 -0.7614
Co3E Co 0.56323(7) 0.25409(8) -0.43563(17)
O3E O 0.9095(4) 0.2897(4) -0.4671(9)
O4E O 0.9705(8) 0.3342(10) -0.357(2)
O5E O 0.7370(4) 0.4413(6) -0.1773(10)
O6E O 0.7436(3) 0.4404(4) -0.3427(9)
O7E O 0.8121(4) 0.4433(5) 0.0425(9)
O8E O 0.8626(4) 0.4203(5) -0.0351(10)
O9E O 0.5393(3) 0.2956(4) -0.3309(8)
O10E O 0.4632(3) 0.3098(4) -0.4349(8)
N2E N 0.6254(4) 0.3005(5) -0.3755(10)
N3E N 0.9057(4) 0.3009(5) 0.2996(9)
N4E N 0.4986(4) 0.4376(5) -0.1179(10)
N5E N 0.8375(4) 0.4372(6) -0.3359(13)
C7E C 0.8197(8) 0.3948(9) -0.403(2)
H5E H 0.7875 0.3893 -0.4318
C8E C 0.8962(6) 0.3625(8) -0.3753(14)
C9E C 0.8474(7) 0.3591(9) -0.4295(18)
H6E H 0.8337 0.3330 -0.4831
C10E C 0.9276(6) 0.3275(8) -0.4061(15)
C11E C 0.6441(5) 0.3185(6) -0.4464(12)
H7E H 0.6334 0.3047 -0.5191
C12E C 0.6786(5) 0.3568(6) -0.4158(12)
H8E H 0.6915 0.3677 -0.4662
C13E C 0.6937(5) 0.3787(6) -0.3088(12)
C14E C 0.6757(5) 0.3590(7) -0.2353(13)
H9E H 0.6862 0.3716 -0.1617
C15E C 0.6416(5) 0.3199(6) -0.2719(12)
H10E H 0.6296 0.3069 -0.2213
C16E C 0.7285(5) 0.4242(6) -0.2733(13)
C17E C 0.8657(5) 0.3262(7) 0.2867(13)
H11E H 0.8514 0.3180 0.3357
C18E C 0.8452(5) 0.3636(7) 0.2042(14)
H12E H 0.8182 0.3811 0.1995
C19E C 0.8657(5) 0.3748(6) 0.1277(14)
C20E C 0.9057(6) 0.3478(7) 0.1400(14)
H13E H 0.9202 0.3540 0.0904
C21E C 0.9244(5) 0.3114(6) 0.2254(13)
H14E H 0.9514 0.2934 0.2316
C22E C 0.8445(5) 0.4154(7) 0.0366(14)
C23E C 0.4617(5) 0.4289(6) -0.2142(12)
H15E H 0.4352 0.4497 -0.2304
C24E C 0.4608(5) 0.3905(6) -0.2905(13)
H16E H 0.4341 0.3857 -0.3561
C25E C 0.5001(5) 0.3588(6) -0.2690(12)
C26E C 0.5381(5) 0.3670(6) -0.1689(13)
H17E H 0.5649 0.3464 -0.1508
C27E C 0.5362(5) 0.4061(6) -0.0951(13)
H18E H 0.5619 0.4106 -0.0272
C28E C 0.5000(5) 0.3179(6) -0.3540(11)
C29E C 0.8831(6) 0.4328(8) -0.2680(18)
C30E C 0.9136(7) 0.3972(9) -0.2860(18)
H19E H 0.8950 0.4548 -0.2053
H20E H 0.9452 0.3969 -0.2386
Co3B Co 0.06323(7) 0.24591(8) -1.43563(17)
Co3B_2 Co 0.06323(7) 0.24591(8) -0.43563(17)
Co3C Co 0.93677(7) 0.24591(8) -0.56437(17)
Co3C_2 Co 0.93677(7) 0.24591(8) 0.43563(17)
Co3F Co 0.93677(7) 0.75409(8) -0.56437(17)
Co3F_2 Co 0.93677(7) 0.75409(8) 0.43563(17)
Co3G Co 0.06323(7) 0.75409(8) -1.43563(17)
Co3G_2 Co 0.06323(7) 0.75409(8) -0.43563(17)
Co4_2 Co 0.5000 0.5000 -1.0000
O1A_2 O 0.4275(4) 0.5000 -0.0534(11)
O3B O 0.4095(4) 0.2103(4) -0.4671(9)
O3C O 0.5905(4) 0.2103(4) -0.5329(9)
O3F O 0.5905(4) 0.7897(4) -0.5329(9)
O3G O 0.4095(4) 0.7897(4) -0.4671(9)
N3B N 0.4057(4) 0.1991(5) -0.7004(9)
N3C N 0.5943(4) 0.1991(5) -0.2996(9)
N3F N 0.5943(4) 0.8009(5) -0.2996(9)
N3G N 0.4057(4) 0.8009(5) -0.7004(9)
N4A_2 N 0.5014(4) 0.5624(5) 0.1179(10)
N4D_2 N 0.5014(4) 0.4376(5) 0.1179(10)
C31 C 0.5532(9) 0.5269(9) -0.365(2)
H21 H 0.5360 0.5448 -0.3313
C32 C 0.6042(8) 0.5244(10) -0.4573(19)
H22 H 0.6225 0.5418 -0.4886
C33 C 0.5779(9) 0.5550(10) -0.412(2)
H23 H 0.5774 0.5917 -0.4152
C31E C 0.5532(9) 0.4731(9) -0.365(2)
H21E H 0.5360 0.4552 -0.3313
C32E C 0.6042(8) 0.4756(10) -0.4573(19)
H22E H 0.6225 0.4582 -0.4886
C33E C 0.5779(9) 0.4450(10) -0.412(2)
H23E H 0.5774 0.4083 -0.4152
loop_
_geom_bond_atom_site_label_1
_geom_bond_atom_site_label_2
_geom_bond_site_symmetry_1
_geom_bond_site_symmetry_2
Co1 O5 1_555 1_555
Co2 O6 1_555 1_555
Co3 O9 1_555 1_555
Co4 O1 1_555 1_555
O1 C6 1_555 1_555
O2 C6 1_555 1_555
O3 C10 1_555 1_555
O4 C10 1_555 1_555
O5 C16 1_555 1_555
O6 C16 1_555 1_555
O7 Co1 1_555 1_555
O8 C22 1_555 1_555
O9 C28 1_555 1_555
O10 C28 1_555 1_555
O11 Co1 1_555 1_555
O12 Co3 1_555 1_555
O13 Co2 1_555 1_555
N1 Co1 1_555 1_555
N2 Co3 1_555 1_555
N3 C17 1_555 1_555
N4 Co4 1_555 1_555
C1 N1 1_555 1_555
H1 C1 1_555 1_555
C2 C1 1_555 1_555
H2 C2 1_555 1_555
C3 C2 1_555 1_555
C4 C3 1_555 1_555
H3 C4 1_555 1_555
C5 N1 1_555 1_555
H4 C5 1_555 1_555
C6 C3 1_555 1_555
N5 Co2 1_555 1_555
C7 N5 1_555 1_555
H5 C7 1_555 1_555
C8 C9 1_555 1_555
C9 C7 1_555 1_555
H6 C9 1_555 1_555
C10 C8 1_555 1_555
C11 N2 1_555 1_555
H7 C11 1_555 1_555
C12 C11 1_555 1_555
H8 C12 1_555 1_555
C13 C12 1_555 1_555
C14 C13 1_555 1_555
H9 C14 1_555 1_555
C15 N2 1_555 1_555
H10 C15 1_555 1_555
C16 C13 1_555 1_555
C17 H11 1_555 1_555
C18 C17 1_555 1_555
H12 C18 1_555 1_555
C19 C18 1_555 1_555
C20 C19 1_555 1_555
H13 C20 1_555 1_555
C21 N3 1_555 1_555
H14 C21 1_555 1_555
C22 O7 1_555 1_555
C23 N4 1_555 1_555
H15 C23 1_555 1_555
C24 C23 1_555 1_555
H16 C24 1_555 1_555
C25 C24 1_555 1_555
C26 C25 1_555 1_555
H17 C26 1_555 1_555
C27 N4 1_555 1_555
H18 C27 1_555 1_555
C28 C25 1_555 1_555
C29 N5 1_555 1_555
C30 C8 1_555 1_555
H19 C29 1_555 1_555
H20 C30 1_555 1_555
C31 H21 1_555 1_555
C32 H22 1_555 1_555
C33 C31 1_555 1_555
H23 C33 1_555 1_555
Co1A O5A 1_555 1_555
Co2A O6A 1_555 1_555
Co3A O10 1_555 1_555
O1A C6A 1_555 1_555
O2A C6A 1_555 1_555
O3A C10A 1_555 1_555
O4A C10A 1_555 1_555
O5A C16A 1_555 1_555
O6A C16A 1_555 1_555
O7A Co1A 1_555 1_555
O8A C22A 1_555 1_555
O9A Co3A 1_555 1_555
O10A Co3 1_555 1_555
O11A Co1A 1_555 1_555
O13A Co2A 1_555 1_555
N1A Co1A 1_555 1_555
N2A Co3A 1_555 1_555
N3A C17A 1_555 1_555
N4A C23A 1_555 1_555
C1A N1A 1_555 1_555
H1A C1A 1_555 1_555
C2A C1A 1_555 1_555
H2A C2A 1_555 1_555
C3A C2A 1_555 1_555
C4A C3A 1_555 1_555
H3A C4A 1_555 1_555
C5A N1A 1_555 1_555
H4A C5A 1_555 1_555
C6A C3A 1_555 1_555
N5A Co2A 1_555 1_555
C7A N5A 1_555 1_555
H5A C7A 1_555 1_555
C8A C9A 1_555 1_555
C9A C7A 1_555 1_555
H6A C9A 1_555 1_555
C10A C8A 1_555 1_555
C11A N2A 1_555 1_555
H7A C11A 1_555 1_555
C12A C11A 1_555 1_555
H8A C12A 1_555 1_555
C13A C12A 1_555 1_555
C14A C13A 1_555 1_555
H9A C14A 1_555 1_555
C15A N2A 1_555 1_555
H10A C15A 1_555 1_555
C16A C13A 1_555 1_555
C17A H11A 1_555 1_555
C18A C17A 1_555 1_555
H12A C18A 1_555 1_555
C19A C18A 1_555 1_555
C20A C19A 1_555 1_555
H13A C20A 1_555 1_555
C21A N3A 1_555 1_555
H14A C21A 1_555 1_555
C22A O7A 1_555 1_555
C23A H15A 1_555 1_555
C24A C23A 1_555 1_555
H16A C24A 1_555 1_555
C25A C24A 1_555 1_555
C26A C25A 1_555 1_555
H17A C26A 1_555 1_555
C27A N4A 1_555 1_555
H18A C27A 1_555 1_555
C28A O9A 1_555 1_555
C29A N5A 1_555 1_555
C30A C8A 1_555 1_555
H19A C29A 1_555 1_555
H20A C30A 1_555 1_555
Co3D O9D 1_555 1_555
O3D C10D 1_555 1_555
O4D C10D 1_555 1_555
O5D Co1A 1_555 1_555
O6D Co2A 1_555 1_555
O7D Co1A 1_555 1_555
O8D C22D 1_555 1_555
O9D C28D 1_555 1_555
O10D C28D 1_555 1_555
O12D Co3D 1_555 1_555
N2D Co3D 1_555 1_555
N3D C17D 1_555 1_555
N4D C23D 1_555 1_555
N5D Co2A 1_555 1_555
C7D N5D 1_555 1_555
H5D C7D 1_555 1_555
C8D C9D 1_555 1_555
C9D C7D 1_555 1_555
H6D C9D 1_555 1_555
C10D C8D 1_555 1_555
C11D N2D 1_555 1_555
H7D C11D 1_555 1_555
C12D C11D 1_555 1_555
H8D C12D 1_555 1_555
C13D C12D 1_555 1_555
C14D C13D 1_555 1_555
H9D C14D 1_555 1_555
C15D N2D 1_555 1_555
H10D C15D 1_555 1_555
C16D O5D 1_555 1_555
C17D H11D 1_555 1_555
C18D C17D 1_555 1_555
H12D C18D 1_555 1_555
C19D C18D 1_555 1_555
C20D C19D 1_555 1_555
H13D C20D 1_555 1_555
C21D N3D 1_555 1_555
H14D C21D 1_555 1_555
C22D O7D 1_555 1_555
C23D H15D 1_555 1_555
C24D C23D 1_555 1_555
H16D C24D 1_555 1_555
C25D C24D 1_555 1_555
C26D C25D 1_555 1_555
H17D C26D 1_555 1_555
C27D N4D 1_555 1_555
H18D C27D 1_555 1_555
C28D C25D 1_555 1_555
C29D N5D 1_555 1_555
C30D C8D 1_555 1_555
H19D C29D 1_555 1_555
H20D C30D 1_555 1_555
Co3E O10D 1_555 1_555
O3E C10E 1_555 1_555
O4E C10E 1_555 1_555
O5E Co1 1_555 1_555
O6E Co2 1_555 1_555
O7E Co1 1_555 1_555
O8E C22E 1_555 1_555
O9E Co3E 1_555 1_555
O10E Co3D 1_555 1_555
N2E Co3E 1_555 1_555
N3E C17E 1_555 1_555
N4E Co4 1_555 1_555
N5E Co2 1_555 1_555
C7E N5E 1_555 1_555
H5E C7E 1_555 1_555
C8E C9E 1_555 1_555
C9E C7E 1_555 1_555
H6E C9E 1_555 1_555
C10E C8E 1_555 1_555
C11E N2E 1_555 1_555
H7E C11E 1_555 1_555
C12E C11E 1_555 1_555
H8E C12E 1_555 1_555
C13E C12E 1_555 1_555
C14E C13E 1_555 1_555
H9E C14E 1_555 1_555
C15E N2E 1_555 1_555
H10E C15E 1_555 1_555
C16E O5E 1_555 1_555
C17E H11E 1_555 1_555
C18E C17E 1_555 1_555
H12E C18E 1_555 1_555
C19E C18E 1_555 1_555
C20E C19E 1_555 1_555
H13E C20E 1_555 1_555
C21E N3E 1_555 1_555
H14E C21E 1_555 1_555
C22E O7E 1_555 1_555
C23E N4E 1_555 1_555
H15E C23E 1_555 1_555
C24E C23E 1_555 1_555
H16E C24E 1_555 1_555
C25E C24E 1_555 1_555
C26E C25E 1_555 1_555
H17E C26E 1_555 1_555
C27E N4E 1_555 1_555
H18E C27E 1_555 1_555
C28E O9E 1_555 1_555
C29E N5E 1_555 1_555
C30E C8E 1_555 1_555
H19E C29E 1_555 1_555
H20E C30E 1_555 1_555
Co3B N3D 1_555 1_555
Co3B_2 O3D 1_555 1_555
Co3C O3E 1_555 1_555
Co3C_2 N3E 1_555 1_555
Co3F O3 1_555 1_555
Co3F_2 N3 1_555 1_555
Co3G N3A 1_555 1_555
Co3G_2 O3A 1_555 1_555
Co4_2 O1A 1_555 1_555
O1A_2 Co4 1_555 1_555
O3B Co3D 1_555 1_555
O3C Co3E 1_555 1_555
O3F Co3 1_555 1_555
O3G Co3A 1_555 1_555
N3B Co3D 1_555 1_555
N3C Co3E 1_555 1_555
N3F Co3 1_555 1_555
N3G Co3A 1_555 1_555
N4A_2 Co4 1_555 1_555
N4D_2 Co4 1_555 1_555
C31E C31 1_555 1_555
H21E C31E 1_555 1_555
C32E C32 1_555 1_555
H22E C32E 1_555 1_555
C33E C31E 1_555 1_555
H23E C33E 1_555 1_555
Co2 O11 1_555 1_555
O12 Co3A 1_555 1_555
C4 C5 1_555 1_555
C14 C15 1_555 1_555
C19 C22 1_555 1_555
C20 C21 1_555 1_555
C26 C27 1_555 1_555
C29 C30 1_555 1_555
C32 C33 1_555 1_555
Co2A O11A 1_555 1_555
O10A C28A 1_555 1_555
N4A Co4_2 1_555 1_555
C4A C5A 1_555 1_555
C14A C15A 1_555 1_555
C19A C22A 1_555 1_555
C20A C21A 1_555 1_555
C25A C28A 1_555 1_555
C26A C27A 1_555 1_555
C29A C30A 1_555 1_555
O6D C16D 1_555 1_555
O12D Co3E 1_555 1_555
N4D Co4_2 1_555 1_555
C13D C16D 1_555 1_555
C14D C15D 1_555 1_555
C19D C22D 1_555 1_555
C20D C21D 1_555 1_555
C26D C27D 1_555 1_555
C29D C30D 1_555 1_555
O6E C16E 1_555 1_555
O10E C28E 1_555 1_555
C13E C16E 1_555 1_555
C14E C15E 1_555 1_555
C19E C22E 1_555 1_555
C20E C21E 1_555 1_555
C25E C28E 1_555 1_555
C26E C27E 1_555 1_555
C29E C30E 1_555 1_555
C32E C33E 1_555 1_555

#END
