
#######################################################################
#
#                 Cambridge Crystallographic Data Centre
#                                CCDC 
#
#######################################################################
#
# If this CIF has been generated from an entry in the Cambridge 
# Structural Database, then it will include bibliographic, chemical, 
# crystal, experimental, refinement or atomic coordinate data resulting 
# from the CCDC's data processing and validation procedures.
#
#######################################################################

data_BOWDOI
_chemical_formula_moiety         '(C108 H92 Co9 N18 O46)n'
_symmetry_cell_setting           monoclinic
_symmetry_space_group_name_H-M   'C 2/c'
_symmetry_Int_Tables_number      15
_space_group_name_Hall           '-C 2yc'
loop_
_symmetry_equiv_pos_site_id
_symmetry_equiv_pos_as_xyz
1 x,y,z
2 -x,y,1/2-z
3 1/2+x,1/2+y,z
4 1/2-x,1/2+y,1/2-z
5 -x,-y,-z
6 x,-y,1/2+z
7 1/2-x,1/2-y,-z
8 1/2+x,1/2-y,1/2+z
_cell_length_a                   31.263(5)
_cell_length_b                   25.383(5)
_cell_length_c                   26.217(5)
_cell_angle_alpha                90
_cell_angle_beta                 116.261(5)
_cell_angle_gamma                90
_cell_volume                     18657.2
loop_
_atom_site_label
_atom_site_type_symbol
_atom_site_fract_x
_atom_site_fract_y
_atom_site_fract_z
Co1 Co 0.067392(17) 0.23968(2) 0.02770(2)
Co2 Co -0.060997(17) 0.24199(2) -0.03584(2)
Co3 Co -0.280934(18) 0.00639(2) -0.06338(2)
Co4 Co 0.200530(18) 0.49697(2) 0.29190(2)
Co5 Co 0.0000 0.00634(3) 0.2500
O1 O 0.00399(8) 0.28477(10) -0.00289(10)
O2 O -0.03708(8) 0.19901(10) 0.03861(10)
O3 O 0.04103(8) 0.18433(10) 0.06559(10)
O4 O -0.03624(8) 0.18536(10) -0.07373(10)
O5 O 0.04144(8) 0.19855(9) -0.04840(9)
O6 O -0.08662(9) 0.28800(10) -0.10930(10)
O7 O -0.02330(12) 0.33880(19) -0.0917(2)
O8 O 0.09506(9) 0.28405(10) 0.10257(10)
O9 O 0.03115(12) 0.3260(2) 0.0945(2)
O10 O -0.24714(11) 0.06900(13) -0.07855(11)
O11 O -0.24899(9) 0.05985(10) -0.16431(10)
O12 O -0.17795(9) 0.44063(12) 0.04532(11)
O13 O -0.12396(10) 0.41754(12) 0.13237(11)
O14 O 0.12682(9) 0.42639(11) -0.13269(11)
O15 O 0.18342(10) 0.44583(12) -0.04535(11)
O16 O 0.07399(8) 0.00748(9) 0.29928(10)
O17 O 0.12887(9) 0.00073(11) 0.26712(11)
O18 O 0.23944(11) 0.04795(15) 0.07514(11)
O19 O 0.16701(8) 0.49476(9) 0.34596(9)
O20 O 0.23322(10) 0.49773(11) 0.23671(11)
O21 O 0.25322(9) 0.05773(10) 0.16482(10)
N1 N 0.00322(10) 0.06762(12) 0.19375(11)
N2 N -0.00125(10) 0.05655(12) -0.19393(12)
N3 N -0.15303(11) 0.44037(14) -0.24268(13)
N4 N 0.15725(11) 0.43205(14) 0.24307(14)
N5 N -0.12521(10) 0.19765(11) -0.06795(12)
N6 N -0.09003(10) 0.29792(12) 0.00271(12)
N7 N 0.09826(10) 0.29534(12) -0.00867(12)
N8 N 0.22760(10) 0.00910(12) 0.47703(12)
N9 N 0.12973(10) 0.19312(12) 0.05947(12)
C1 C -0.03318(13) 0.09977(15) 0.16704(16)
H1 H -0.0588 0.0978 0.1759
C2 C -0.03555(13) 0.13634(15) 0.12650(15)
H2 H -0.0621 0.1579 0.1086
C3 C 0.00313(12) 0.13987(14) 0.11338(14)
C4 C 0.04180(12) 0.10751(15) 0.14228(15)
H3 H 0.0685 0.1095 0.1353
C5 C 0.04064(12) 0.07206(15) 0.18176(15)
H4 H 0.0669 0.0504 0.2008
C6 C 0.00250(12) 0.17794(13) 0.06878(14)
C7 C -0.03845(12) 0.06451(15) -0.18260(15)
H5 H -0.0651 0.0430 -0.2000
C8 C -0.03882(13) 0.10382(15) -0.14573(15)
H6 H -0.0656 0.1087 -0.1395
C9 C 0.00057(12) 0.13529(14) -0.11864(15)
C10 C 0.03924(13) 0.12734(15) -0.13047(15)
H7 H 0.0665 0.1479 -0.1131
C11 C 0.03632(12) 0.08809(15) -0.16873(15)
H8 H 0.0620 0.0836 -0.1772
C12 C 0.00202(12) 0.17710(14) -0.07634(14)
C13 C -0.10576(15) 0.4380(2) -0.2252(2)
H9 H -0.0918 0.4623 -0.2399
C14 C -0.07712(16) 0.4016(2) -0.1869(2)
H10 H -0.0443 0.4025 -0.1748
C15 C -0.09653(14) 0.36351(19) -0.16614(19)
C16 C -0.14610(14) 0.36221(18) -0.18821(18)
H11 H -0.1611 0.3355 -0.1779
C17 C -0.17248(14) 0.40118(17) -0.22559(17)
H12 H -0.2055 0.4002 -0.2397
C18 C -0.06636(15) 0.3267(2) -0.1191(2)
C19 C 0.17789(14) 0.39633(18) 0.22260(18)
H13 H 0.2108 0.3979 0.2354
C20 C 0.15302(14) 0.35805(18) 0.18420(19)
H14 H 0.1688 0.3341 0.1716
C21 C 0.10388(15) 0.3554(2) 0.1643(2)
C22 C 0.08306(15) 0.3887(2) 0.1884(2)
H15 H 0.0507 0.3861 0.1786
C23 C 0.11031(14) 0.42549(19) 0.22680(19)
H16 H 0.0956 0.4474 0.2427
C24 C 0.07412(14) 0.3181(2) 0.1159(2)
C25 C -0.14493(12) 0.17792(15) -0.12060(15)
H17 H -0.1342 0.1899 -0.1464
C26 C -0.18055(12) 0.14052(15) -0.13834(15)
H18 H -0.1933 0.1274 -0.1752
C27 C -0.19708(12) 0.12288(15) -0.10035(14)
C28 C -0.17769(13) 0.14436(16) -0.04628(15)
H19 H -0.1885 0.1337 -0.0200
C29 C -0.14237(12) 0.18151(16) -0.03185(15)
H20 H -0.1298 0.1961 0.0044
C30 C -0.23446(12) 0.07972(15) -0.11589(14)
C31 C -0.07203(14) 0.30227(17) 0.05958(16)
H21 H -0.0476 0.2797 0.0824
C32 C -0.08847(15) 0.33895(17) 0.08507(16)
H22 H -0.0751 0.3410 0.1245
C33 C -0.12469(13) 0.37275(16) 0.05228(16)
C34 C -0.14410(15) 0.36810(18) -0.00594(17)
H23 H -0.1690 0.3898 -0.0295
C35 C -0.12536(14) 0.32999(18) -0.02858(17)
H24 H -0.1384 0.3269 -0.0679
C36 C -0.14358(13) 0.41381(17) 0.07946(15)
C37 C 0.07816(13) 0.30469(16) -0.06486(15)
H25 H 0.0527 0.2838 -0.0885
C38 C 0.09363(14) 0.34397(16) -0.08908(16)
H26 H 0.0786 0.3494 -0.1282
C39 C 0.13153(13) 0.37497(15) -0.05482(16)
C40 C 0.15311(15) 0.36467(18) 0.00289(17)
H27 H 0.1793 0.3843 0.0273
C41 C 0.13536(14) 0.32493(17) 0.02386(16)
H28 H 0.1501 0.3185 0.0628
C42 C 0.14913(14) 0.41937(16) -0.07951(16)
C43 C 0.18139(13) 0.00840(16) 0.46629(15)
H29 H 0.1738 0.0082 0.4968
C44 C 0.14471(12) 0.00793(16) 0.41176(16)
H30 H 0.1131 0.0072 0.4059
C45 C 0.15539(13) 0.00849(15) 0.36629(15)
C46 C 0.20258(13) 0.01033(16) 0.37684(15)
H31 H 0.2110 0.0112 0.3470
C47 C 0.23757(13) 0.01086(16) 0.43318(15)
H32 H 0.2694 0.0125 0.4401
C48 C 0.11616(12) 0.00552(14) 0.30521(14)
C49 C 0.14534(12) 0.17204(15) 0.02401(15)
H33 H 0.1328 0.1845 -0.0132
C50 C 0.17908(12) 0.13277(16) 0.04016(15)
H34 H 0.1886 0.1186 0.0141
C51 C 0.19874(12) 0.11448(14) 0.09587(14)
C52 C 0.18411(13) 0.13860(16) 0.13335(15)
H35 H 0.1975 0.1287 0.1714
C53 C 0.15016(13) 0.17658(16) 0.11372(15)
H36 H 0.1405 0.1920 0.1391
C54 C 0.23389(12) 0.06964(15) 0.11394(15)
Co1A Co -0.067392(17) 0.23968(2) 0.47230(2)
Co2A Co 0.060997(17) 0.24199(2) 0.53584(2)
Co3A Co 0.280934(18) 0.00639(2) 0.56338(2)
Co4A Co -0.200530(18) 0.49697(2) 0.20810(2)
O1A O -0.00399(8) 0.28477(10) 0.50289(10)
O2A O 0.03708(8) 0.19901(10) 0.46139(10)
O3A O -0.04103(8) 0.18433(10) 0.43441(10)
O4A O 0.03624(8) 0.18536(10) 0.57373(10)
O5A O -0.04144(8) 0.19855(9) 0.54840(9)
O6A O 0.08662(9) 0.28800(10) 0.60930(10)
O7A O 0.02330(12) 0.33880(19) 0.5917(2)
O8A O -0.09506(9) 0.28405(10) 0.39743(10)
O9A O -0.03115(12) 0.3260(2) 0.4055(2)
O10A O 0.24714(11) 0.06900(13) 0.57855(11)
O11A O 0.24899(9) 0.05985(10) 0.66431(10)
O12A O 0.17795(9) 0.44063(12) 0.45468(11)
O13A O 0.12396(10) 0.41754(12) 0.36763(11)
O14A O -0.12682(9) 0.42639(11) 0.63269(11)
O15A O -0.18342(10) 0.44583(12) 0.54535(11)
O16A O -0.07399(8) 0.00748(9) 0.20072(10)
O17A O -0.12887(9) 0.00073(11) 0.23288(11)
O18A O -0.23944(11) 0.04795(15) 0.42486(11)
O19A O -0.16701(8) 0.49476(9) 0.15404(9)
O20A O -0.23322(10) 0.49773(11) 0.26329(11)
O21A O -0.25322(9) 0.05773(10) 0.33518(10)
N1A N -0.00322(10) 0.06762(12) 0.30625(11)
N2A N 0.00125(10) 0.05655(12) 0.69393(12)
N3A N 0.15303(11) 0.44037(14) 0.74268(13)
N4A N -0.15725(11) 0.43205(14) 0.25693(14)
N5A N 0.12521(10) 0.19765(11) 0.56795(12)
N6A N 0.09003(10) 0.29792(12) 0.49729(12)
N7A N -0.09826(10) 0.29534(12) 0.50867(12)
N8A N -0.22760(10) 0.00910(12) 0.02297(12)
N9A N -0.12973(10) 0.19312(12) 0.44053(12)
C1A C 0.03318(13) 0.09977(15) 0.33296(16)
H1A H 0.0588 0.0978 0.3241
C2A C 0.03555(13) 0.13634(15) 0.37350(15)
H2A H 0.0621 0.1579 0.3914
C3A C -0.00313(12) 0.13987(14) 0.38662(14)
C4A C -0.04180(12) 0.10751(15) 0.35772(15)
H3A H -0.0685 0.1095 0.3647
C5A C -0.04064(12) 0.07206(15) 0.31824(15)
H4A H -0.0669 0.0504 0.2992
C6A C -0.00250(12) 0.17794(13) 0.43122(14)
C7A C 0.03845(12) 0.06451(15) 0.68260(15)
H5A H 0.0651 0.0430 0.7000
C8A C 0.03882(13) 0.10382(15) 0.64573(15)
H6A H 0.0656 0.1087 0.6395
C9A C -0.00057(12) 0.13529(14) 0.61864(15)
C10A C -0.03924(13) 0.12734(15) 0.63047(15)
H7A H -0.0665 0.1479 0.6131
C11A C -0.03632(12) 0.08809(15) 0.66873(15)
H8A H -0.0620 0.0836 0.6772
C12A C -0.00202(12) 0.17710(14) 0.57634(14)
C13A C 0.10576(15) 0.4380(2) 0.7252(2)
H9A H 0.0918 0.4623 0.7399
C14A C 0.07712(16) 0.4016(2) 0.6869(2)
H10A H 0.0443 0.4025 0.6748
C15A C 0.09653(14) 0.36351(19) 0.66614(19)
C16A C 0.14610(14) 0.36221(18) 0.68821(18)
H11A H 0.1611 0.3355 0.6779
C17A C 0.17248(14) 0.40118(17) 0.72559(17)
H12A H 0.2055 0.4002 0.7397
C18A C 0.06636(15) 0.3267(2) 0.6191(2)
C19A C -0.17789(14) 0.39633(18) 0.27740(18)
H13A H -0.2108 0.3979 0.2646
C20A C -0.15302(14) 0.35805(18) 0.31580(19)
H14A H -0.1688 0.3341 0.3284
C21A C -0.10388(15) 0.3554(2) 0.3357(2)
C22A C -0.08306(15) 0.3887(2) 0.3116(2)
H15A H -0.0507 0.3861 0.3214
C23A C -0.11031(14) 0.42549(19) 0.27320(19)
H16A H -0.0956 0.4474 0.2573
C24A C -0.07412(14) 0.3181(2) 0.3841(2)
C25A C 0.14493(12) 0.17792(15) 0.62060(15)
H17A H 0.1342 0.1899 0.6464
C26A C 0.18055(12) 0.14052(15) 0.63834(15)
H18A H 0.1933 0.1274 0.6752
C27A C 0.19708(12) 0.12288(15) 0.60035(14)
C28A C 0.17769(13) 0.14436(16) 0.54628(15)
H19A H 0.1885 0.1337 0.5200
C29A C 0.14237(12) 0.18151(16) 0.53185(15)
H20A H 0.1298 0.1961 0.4956
C30A C 0.23446(12) 0.07972(15) 0.61589(14)
C31A C 0.07203(14) 0.30227(17) 0.44042(16)
H21A H 0.0476 0.2797 0.4176
C32A C 0.08847(15) 0.33895(17) 0.41493(16)
H22A H 0.0751 0.3410 0.3755
C33A C 0.12469(13) 0.37275(16) 0.44772(16)
C34A C 0.14410(15) 0.36810(18) 0.50594(17)
H23A H 0.1690 0.3898 0.5295
C35A C 0.12536(14) 0.32999(18) 0.52858(17)
H24A H 0.1384 0.3269 0.5679
C36A C 0.14358(13) 0.41381(17) 0.42054(15)
C37A C -0.07816(13) 0.30469(16) 0.56486(15)
H25A H -0.0527 0.2838 0.5885
C38A C -0.09363(14) 0.34397(16) 0.58908(16)
H26A H -0.0786 0.3494 0.6282
C39A C -0.13153(13) 0.37497(15) 0.55482(16)
C40A C -0.15311(15) 0.36467(18) 0.49711(17)
H27A H -0.1793 0.3843 0.4727
C41A C -0.13536(14) 0.32493(17) 0.47614(16)
H28A H -0.1501 0.3185 0.4372
C42A C -0.14913(14) 0.41937(16) 0.57951(16)
C43A C -0.18139(13) 0.00840(16) 0.03371(15)
H29A H -0.1738 0.0082 0.0032
C44A C -0.14471(12) 0.00793(16) 0.08824(16)
H30A H -0.1131 0.0072 0.0941
C45A C -0.15539(13) 0.00849(15) 0.13371(15)
C46A C -0.20258(13) 0.01033(16) 0.12316(15)
H31A H -0.2110 0.0112 0.1530
C47A C -0.23757(13) 0.01086(16) 0.06682(15)
H32A H -0.2694 0.0125 0.0599
C48A C -0.11616(12) 0.00552(14) 0.19479(14)
C49A C -0.14534(12) 0.17204(15) 0.47599(15)
H33A H -0.1328 0.1845 0.5132
C50A C -0.17908(12) 0.13277(16) 0.45984(15)
H34A H -0.1886 0.1186 0.4859
C51A C -0.19874(12) 0.11448(14) 0.40413(14)
C52A C -0.18411(13) 0.13860(16) 0.36665(15)
H35A H -0.1975 0.1287 0.3286
C53A C -0.15016(13) 0.17658(16) 0.38628(15)
H36A H -0.1405 0.1920 0.3609
C54A C -0.23389(12) 0.06964(15) 0.38606(15)
Co3B Co 0.219066(18) 0.50639(2) -0.06338(2)
Co3C Co -0.219066(18) 0.50639(2) 0.56338(2)
Co3D Co 0.280934(18) -0.00639(2) 0.06338(2)
Co3E Co -0.280934(18) -0.00639(2) 0.43662(2)
Co3F Co -0.219066(18) 0.49361(2) 0.06338(2)
Co3G Co 0.219066(18) 0.49361(2) 0.43662(2)
Co4B Co -0.299470(18) -0.00303(2) 0.29190(2)
Co4C Co 0.299470(18) -0.00303(2) 0.20810(2)
Co4D Co -0.200530(18) 0.50303(2) -0.29190(2)
Co4E Co 0.200530(18) 0.50303(2) 0.79190(2)
Co4F Co 0.299470(18) 0.00303(2) 0.70810(2)
Co4G Co -0.299470(18) 0.00303(2) -0.20810(2)
Co5D Co 0.0000 -0.00634(3) -0.2500
Co5D_2 Co -0.0000 -0.00634(3) 0.7500
O11F O -0.25101(9) 0.44015(10) 0.16431(10)
O11G O 0.25101(9) 0.44015(10) 0.33569(10)
O12F O -0.32205(9) 0.05937(12) -0.04532(11)
O12G O 0.32205(9) 0.05937(12) 0.54532(11)
O15B O -0.31658(10) -0.05417(12) -0.04535(11)
O15C O 0.31658(10) -0.05417(12) 0.54535(11)
O18D O -0.23944(11) -0.04795(15) -0.07514(11)
O18E O 0.23944(11) -0.04795(15) 0.57514(11)
O19F O 0.33299(8) 0.00524(9) 0.65404(9)
O19G O -0.33299(8) 0.00524(9) -0.15404(9)
O21B O -0.24678(9) 0.55773(10) 0.16482(10)
O21C O 0.24678(9) 0.55773(10) 0.33518(10)
N2D N 0.00125(10) -0.05655(12) 0.19393(12)
N2E N -0.00125(10) -0.05655(12) 0.30607(12)
N3D N 0.15303(11) 0.55963(14) 0.24268(13)
N3E N -0.15303(11) 0.55963(14) 0.25732(13)
O22 O 0.19342(16) 0.5342(3) 0.12883(17)
O23 O 0.31930(13) 0.54581(18) 0.27794(18)
O24 O 0.97624(13) 0.4400(2) 0.1915(2)
O25 O 0.02579(13) 0.45064(19) 0.80793(19)
loop_
_geom_bond_atom_site_label_1
_geom_bond_atom_site_label_2
_geom_bond_site_symmetry_1
_geom_bond_site_symmetry_2
Co1 O1 1_555 1_555
Co2 O1 1_555 1_555
Co3 O10 1_555 1_555
Co4 O19 1_555 1_555
Co5 O16 1_555 1_555
O2 Co2 1_555 1_555
O3 Co1 1_555 1_555
O4 Co2 1_555 1_555
O5 Co1 1_555 1_555
O6 Co2 1_555 1_555
O7 C18 1_555 1_555
O8 Co1 1_555 1_555
O9 C24 1_555 1_555
O10 C30 1_555 1_555
O11 C30 1_555 1_555
O12 C36 1_555 1_555
O13 C36 1_555 1_555
O14 C42 1_555 1_555
O15 C42 1_555 1_555
O16 C48 1_555 1_555
O17 C48 1_555 1_555
O18 C54 1_555 1_555
O19 Co3G 1_555 1_555
O20 Co4 1_555 1_555
O21 C54 1_555 1_555
N1 Co5 1_555 1_555
N2 C7 1_555 1_555
N3 C13 1_555 1_555
N4 Co4 1_555 1_555
N5 Co2 1_555 1_555
N6 Co2 1_555 1_555
N7 Co1 1_555 1_555
N8 C43 1_555 1_555
N9 Co1 1_555 1_555
C1 N1 1_555 1_555
H1 C1 1_555 1_555
C2 C1 1_555 1_555
H2 C2 1_555 1_555
C3 C2 1_555 1_555
C4 C3 1_555 1_555
H3 C4 1_555 1_555
C5 N1 1_555 1_555
H4 C5 1_555 1_555
C6 O2 1_555 1_555
C7 H5 1_555 1_555
C8 C7 1_555 1_555
H6 C8 1_555 1_555
C9 C8 1_555 1_555
C10 C9 1_555 1_555
H7 C10 1_555 1_555
C11 N2 1_555 1_555
H8 C11 1_555 1_555
C12 O4 1_555 1_555
C13 H9 1_555 1_555
C14 C13 1_555 1_555
H10 C14 1_555 1_555
C15 C14 1_555 1_555
C16 C15 1_555 1_555
H11 C16 1_555 1_555
C17 N3 1_555 1_555
H12 C17 1_555 1_555
C18 O6 1_555 1_555
C19 N4 1_555 1_555
H13 C19 1_555 1_555
C20 C19 1_555 1_555
H14 C20 1_555 1_555
C21 C20 1_555 1_555
C22 C21 1_555 1_555
H15 C22 1_555 1_555
C23 N4 1_555 1_555
H16 C23 1_555 1_555
C24 O8 1_555 1_555
C25 N5 1_555 1_555
H17 C25 1_555 1_555
C26 C25 1_555 1_555
H18 C26 1_555 1_555
C27 C26 1_555 1_555
C28 C27 1_555 1_555
H19 C28 1_555 1_555
C29 N5 1_555 1_555
H20 C29 1_555 1_555
C30 C27 1_555 1_555
C31 N6 1_555 1_555
H21 C31 1_555 1_555
C32 C31 1_555 1_555
H22 C32 1_555 1_555
C33 C32 1_555 1_555
C34 C33 1_555 1_555
H23 C34 1_555 1_555
C35 N6 1_555 1_555
H24 C35 1_555 1_555
C36 C33 1_555 1_555
C37 N7 1_555 1_555
H25 C37 1_555 1_555
C38 C37 1_555 1_555
H26 C38 1_555 1_555
C39 C38 1_555 1_555
C40 C39 1_555 1_555
H27 C40 1_555 1_555
C41 N7 1_555 1_555
H28 C41 1_555 1_555
C42 C39 1_555 1_555
C43 H29 1_555 1_555
C44 C43 1_555 1_555
H30 C44 1_555 1_555
C45 C44 1_555 1_555
C46 C45 1_555 1_555
H31 C46 1_555 1_555
C47 N8 1_555 1_555
H32 C47 1_555 1_555
C48 C45 1_555 1_555
C49 N9 1_555 1_555
H33 C49 1_555 1_555
C50 C49 1_555 1_555
H34 C50 1_555 1_555
C51 C50 1_555 1_555
C52 C51 1_555 1_555
H35 C52 1_555 1_555
C53 N9 1_555 1_555
H36 C53 1_555 1_555
C54 C51 1_555 1_555
Co1A O1A 1_555 1_555
Co2A O1A 1_555 1_555
Co3A N8 1_555 1_555
Co4A O19A 1_555 1_555
O2A Co2A 1_555 1_555
O3A Co1A 1_555 1_555
O4A Co2A 1_555 1_555
O5A Co1A 1_555 1_555
O6A Co2A 1_555 1_555
O7A C18A 1_555 1_555
O8A Co1A 1_555 1_555
O9A C24A 1_555 1_555
O10A Co3A 1_555 1_555
O11A C30A 1_555 1_555
O12A C36A 1_555 1_555
O13A C36A 1_555 1_555
O14A C42A 1_555 1_555
O15A C42A 1_555 1_555
O16A Co5 1_555 1_555
O17A C48A 1_555 1_555
O18A C54A 1_555 1_555
O19A Co3F 1_555 1_555
O20A Co4A 1_555 1_555
O21A C54A 1_555 1_555
N1A Co5 1_555 1_555
N2A C7A 1_555 1_555
N3A C13A 1_555 1_555
N4A Co4A 1_555 1_555
N5A Co2A 1_555 1_555
N6A Co2A 1_555 1_555
N7A Co1A 1_555 1_555
N8A Co3 1_555 1_555
N9A Co1A 1_555 1_555
C1A N1A 1_555 1_555
H1A C1A 1_555 1_555
C2A C1A 1_555 1_555
H2A C2A 1_555 1_555
C3A C2A 1_555 1_555
C4A C3A 1_555 1_555
H3A C4A 1_555 1_555
C5A N1A 1_555 1_555
H4A C5A 1_555 1_555
C6A O2A 1_555 1_555
C7A H5A 1_555 1_555
C8A C7A 1_555 1_555
H6A C8A 1_555 1_555
C9A C8A 1_555 1_555
C10A C9A 1_555 1_555
H7A C10A 1_555 1_555
C11A N2A 1_555 1_555
H8A C11A 1_555 1_555
C12A O4A 1_555 1_555
C13A H9A 1_555 1_555
C14A C13A 1_555 1_555
H10A C14A 1_555 1_555
C15A C14A 1_555 1_555
C16A C15A 1_555 1_555
H11A C16A 1_555 1_555
C17A N3A 1_555 1_555
H12A C17A 1_555 1_555
C18A O6A 1_555 1_555
C19A N4A 1_555 1_555
H13A C19A 1_555 1_555
C20A C19A 1_555 1_555
H14A C20A 1_555 1_555
C21A C20A 1_555 1_555
C22A C21A 1_555 1_555
H15A C22A 1_555 1_555
C23A N4A 1_555 1_555
H16A C23A 1_555 1_555
C24A O8A 1_555 1_555
C25A N5A 1_555 1_555
H17A C25A 1_555 1_555
C26A C25A 1_555 1_555
H18A C26A 1_555 1_555
C27A C26A 1_555 1_555
C28A C27A 1_555 1_555
H19A C28A 1_555 1_555
C29A N5A 1_555 1_555
H20A C29A 1_555 1_555
C30A O10A 1_555 1_555
C31A N6A 1_555 1_555
H21A C31A 1_555 1_555
C32A C31A 1_555 1_555
H22A C32A 1_555 1_555
C33A C32A 1_555 1_555
C34A C33A 1_555 1_555
H23A C34A 1_555 1_555
C35A N6A 1_555 1_555
H24A C35A 1_555 1_555
C36A C33A 1_555 1_555
C37A N7A 1_555 1_555
H25A C37A 1_555 1_555
C38A C37A 1_555 1_555
H26A C38A 1_555 1_555
C39A C38A 1_555 1_555
C40A C39A 1_555 1_555
H27A C40A 1_555 1_555
C41A N7A 1_555 1_555
H28A C41A 1_555 1_555
C42A C39A 1_555 1_555
C43A N8A 1_555 1_555
H29A C43A 1_555 1_555
C44A C43A 1_555 1_555
H30A C44A 1_555 1_555
C45A C44A 1_555 1_555
C46A C45A 1_555 1_555
H31A C46A 1_555 1_555
C47A N8A 1_555 1_555
H32A C47A 1_555 1_555
C48A O16A 1_555 1_555
C49A N9A 1_555 1_555
H33A C49A 1_555 1_555
C50A C49A 1_555 1_555
H34A C50A 1_555 1_555
C51A C50A 1_555 1_555
C52A C51A 1_555 1_555
H35A C52A 1_555 1_555
C53A N9A 1_555 1_555
H36A C53A 1_555 1_555
C54A C51A 1_555 1_555
Co3B O15 1_555 1_555
Co3C O15A 1_555 1_555
Co3D O18 1_555 1_555
Co3E O18A 1_555 1_555
Co3F O12 1_555 1_555
Co3G O12A 1_555 1_555
Co4B O21A 1_555 1_555
Co4C O21 1_555 1_555
Co4D N3 1_555 1_555
Co4E N3A 1_555 1_555
Co4F O11A 1_555 1_555
Co4G O11 1_555 1_555
Co5D N2 1_555 1_555
Co5D_2 N2A 1_555 1_555
O11F Co4A 1_555 1_555
O11G Co4 1_555 1_555
O12F Co3 1_555 1_555
O12G Co3A 1_555 1_555
O15B Co3 1_555 1_555
O15C Co3A 1_555 1_555
O18D Co3 1_555 1_555
O18E Co3A 1_555 1_555
O19F Co3A 1_555 1_555
O19G Co3 1_555 1_555
O21B Co4A 1_555 1_555
O21C Co4 1_555 1_555
N2D Co5 1_555 1_555
N2E Co5 1_555 1_555
N3D Co4 1_555 1_555
N3E Co4A 1_555 1_555
O3 C6 1_555 1_555
O5 C12 1_555 1_555
C3 C6 1_555 1_555
C4 C5 1_555 1_555
C9 C12 1_555 1_555
C10 C11 1_555 1_555
C15 C18 1_555 1_555
C16 C17 1_555 1_555
C21 C24 1_555 1_555
C22 C23 1_555 1_555
C28 C29 1_555 1_555
C34 C35 1_555 1_555
C40 C41 1_555 1_555
C46 C47 1_555 1_555
C52 C53 1_555 1_555
O3A C6A 1_555 1_555
O5A C12A 1_555 1_555
C3A C6A 1_555 1_555
C4A C5A 1_555 1_555
C9A C12A 1_555 1_555
C10A C11A 1_555 1_555
C15A C18A 1_555 1_555
C16A C17A 1_555 1_555
C21A C24A 1_555 1_555
C22A C23A 1_555 1_555
C27A C30A 1_555 1_555
C28A C29A 1_555 1_555
C34A C35A 1_555 1_555
C40A C41A 1_555 1_555
C45A C48A 1_555 1_555
C46A C47A 1_555 1_555
C52A C53A 1_555 1_555
Co4F O19F 1_555 1_555
Co4G O19G 1_555 1_555

#END
