
#######################################################################
#
#                 Cambridge Crystallographic Data Centre
#                                CCDC 
#
#######################################################################
#
# If this CIF has been generated from an entry in the Cambridge 
# Structural Database, then it will include bibliographic, chemical, 
# crystal, experimental, refinement or atomic coordinate data resulting 
# from the CCDC's data processing and validation procedures.
#
#######################################################################

data_BOWDIC
_chemical_formula_moiety         '(C118 H99 Co9 N19 O43)n'
_symmetry_cell_setting           monoclinic
_symmetry_space_group_name_H-M   'P 2/n'
_symmetry_Int_Tables_number      13
_space_group_name_Hall           '-P 2yac'
loop_
_symmetry_equiv_pos_site_id
_symmetry_equiv_pos_as_xyz
1 x,y,z
2 1/2-x,y,1/2-z
3 -x,-y,-z
4 1/2+x,-y,1/2+z
_cell_length_a                   12.653(5)
_cell_length_b                   25.497(5)
_cell_length_c                   28.551(5)
_cell_angle_alpha                90
_cell_angle_beta                 90.945(5)
_cell_angle_gamma                90
_cell_volume                     9209.69
loop_
_atom_site_label
_atom_site_type_symbol
_atom_site_fract_x
_atom_site_fract_y
_atom_site_fract_z
Co1 Co 0.74478(6) 0.99815(2) 0.81303(2)
Co2 Co 0.24573(6) 0.49964(2) 1.18707(2)
Co3 Co 0.88687(6) 0.75065(2) 1.03238(3)
Co4 Co 0.60457(6) 0.74899(2) 1.02427(2)
Co5 Co 0.2500 0.74901(3) 0.7500
O1 O 0.7500 1.04243(16) 0.7500
O2 O 0.2500 0.54577(16) 1.2500
O3 O 0.7417(3) 0.74959(10) 1.07063(12)
O4 O 1.0373(4) 0.74898(14) 0.99960(19)
O5 O 0.8462(3) 0.81250(13) 0.99027(13)
O6 O 0.6727(3) 0.80072(14) 0.97909(13)
O7 O 0.4602(3) 1.18868(13) 0.94041(13)
O8 O 0.3331(3) 1.16943(15) 0.88802(14)
O9 O 0.6609(3) 0.68362(13) 0.99125(13)
O10 O 0.8348(3) 0.69559(13) 0.98369(14)
O11 O -0.0582(3) 0.68954(14) 1.07332(14)
O12 O -0.1900(3) 0.66861(15) 1.12090(15)
O13 O 0.8651(3) 1.04423(13) 0.84118(13)
O14 O 0.9023(4) 1.09680(19) 0.78113(15)
O15 O 0.3465(3) 0.55094(13) 1.15417(12)
O16 O 0.3911(4) 0.60433(16) 1.21334(14)
O17 O 0.2702(3) 0.74911(10) 0.82239(12)
O18 O 0.1452(4) 0.74799(18) 0.87687(18)
O19 O 0.6414(3) 0.55370(12) 0.71309(11)
O20 O 0.6208(3) 0.54213(12) 0.79001(11)
O21 O 0.6164(3) 0.95650(12) 0.78837(11)
O22 O 0.6466(3) 0.94367(12) 0.71216(11)
N1 N 0.7474(3) 0.95113(14) 0.87473(13)
N2 N 0.6331(3) 1.05003(15) 0.84505(14)
N3 N 0.7544(3) 0.54808(14) 0.87437(13)
N4 N 0.1172(3) 0.54572(15) 1.15884(14)
N5 N 1.0510(3) 1.19271(16) 0.91933(15)
N6 N 0.5287(3) 0.69699(15) 1.07131(15)
N7 N 0.4765(3) 0.74824(13) 0.97302(15)
N8 N 0.3668(3) 0.68642(14) 0.74942(14)
N9 N 0.3680(3) 0.81130(14) 0.74846(15)
C1 C 0.8405(4) 0.93372(18) 0.89236(17)
H1 H 0.9037 0.9498 0.8820
C2 C 0.8483(4) 0.89366(18) 0.92476(18)
H2 H 0.9153 0.8827 0.9367
C3 C 0.7549(4) 0.86956(17) 0.93969(16)
C4 C 0.6610(4) 0.8881(2) 0.92195(17)
H3 H 0.5965 0.8729 0.9318
C5 C 0.6591(4) 0.92859(19) 0.88988(18)
H4 H 0.5928 0.9408 0.8782
C6 C 0.7593(4) 0.82365(18) 0.97287(16)
C7 C 0.5374(4) 1.06141(19) 0.82517(19)
H5 H 0.5180 1.0444 0.7967
C8 C 0.4662(4) 1.0968(2) 0.84454(19)
H6 H 0.4007 1.1040 0.8292
C9 C 0.4924(4) 1.12117(19) 0.88643(18)
C10 C 0.5871(4) 1.1085(2) 0.90784(19)
H7 H 0.6073 1.1243 0.9368
C11 C 0.6529(5) 1.0723(2) 0.8866(2)
H8 H 0.7162 1.0626 0.9027
C12 C 0.4212(4) 1.16188(19) 0.90691(18)
C13 C 0.6640(4) 0.56558(19) 0.89196(17)
H9 H 0.5994 0.5502 0.8814
C14 C 0.6605(4) 0.60478(19) 0.92457(17)
H10 H 0.5944 0.6162 0.9361
C15 C 0.7528(4) 0.62777(17) 0.94069(15)
C16 C 0.8472(4) 0.60899(19) 0.92367(17)
H11 H 0.9127 0.6231 0.9345
C17 C 0.8449(4) 0.56975(18) 0.89103(17)
H12 H 0.9101 0.5571 0.8795
C18 C 0.7509(4) 0.67332(18) 0.97489(16)
C19 C 0.1223(5) 0.5649(2) 1.1154(2)
H13 H 0.1778 0.5527 1.0962
C20 C 0.0523(5) 0.6016(2) 1.0961(2)
H14 H 0.0617 0.6146 1.0652
C21 C -0.0297(4) 0.6185(2) 1.12244(19)
C22 C -0.0429(4) 0.5969(2) 1.1658(2)
H15 H -0.1023 0.6062 1.1839
C23 C 0.0313(4) 0.5610(2) 1.1833(2)
H16 H 0.0212 0.5467 1.2136
C24 C -0.0995(4) 0.6618(2) 1.1040(2)
C25 C 1.0048(5) 1.1496(2) 0.9337(2)
H17 H 1.0028 1.1438 0.9665
C26 C 0.9587(5) 1.1120(2) 0.9050(2)
H18 H 0.9272 1.0814 0.9175
C27 C 0.9605(5) 1.1212(2) 0.8567(2)
C28 C 1.0110(5) 1.1661(2) 0.8402(2)
H19 H 1.0148 1.1730 0.8076
C29 C 1.0552(5) 1.2002(2) 0.8729(2)
H20 H 1.0903 1.2306 0.8617
C30 C 0.9052(5) 1.0845(2) 0.8236(2)
C31 C 0.4819(5) 0.6529(2) 1.0589(2)
H21 H 0.4807 0.6445 1.0265
C32 C 0.4338(5) 0.6173(2) 1.08917(19)
H22 H 0.3988 0.5869 1.0776
C33 C 0.4389(5) 0.6280(2) 1.1361(2)
C34 C 0.4864(5) 0.6744(2) 1.1516(2)
H23 H 0.4891 0.6832 1.1840
C35 C 0.5294(5) 0.7072(2) 1.1184(2)
H24 H 0.5615 0.7388 1.1289
C36 C 0.3896(5) 0.5919(2) 1.17096(19)
C37 C 0.3770(4) 0.75378(18) 0.9836(2)
H25 H 0.3584 0.7572 1.0156
C38 C 0.2973(4) 0.7548(2) 0.9493(2)
H26 H 0.2257 0.7593 0.9580
C39 C 0.3226(5) 0.74930(16) 0.9025(2)
C40 C 0.4300(4) 0.74361(19) 0.8914(2)
H27 H 0.4507 0.7399 0.8597
C41 C 0.5043(4) 0.74347(19) 0.92712(19)
H28 H 0.5769 0.7400 0.9197
C42 C 0.2371(5) 0.74903(17) 0.8644(2)
C43 C 0.3765(4) 0.65312(19) 0.78605(19)
H29 H 0.3300 0.6573 0.8116
C44 C 0.4498(4) 0.61369(19) 0.78821(17)
H30 H 0.4541 0.5915 0.8149
C45 C 0.5189(3) 0.60625(16) 0.75058(16)
C46 C 0.5076(4) 0.63956(18) 0.71270(18)
H31 H 0.5513 0.6353 0.6862
C47 C 0.4329(4) 0.67898(19) 0.71336(17)
H32 H 0.4278 0.7020 0.6872
C48 C 0.6006(4) 0.56312(16) 0.75189(16)
C49 C 0.4302(4) 0.82041(19) 0.71126(18)
H33 H 0.4227 0.7984 0.6846
C50 C 0.5038(4) 0.85988(19) 0.71015(18)
H34 H 0.5447 0.8651 0.6829
C51 C 0.5183(4) 0.89223(17) 0.74895(16)
C52 C 0.4528(4) 0.8832(2) 0.78662(18)
H35 H 0.4589 0.9046 0.8138
C53 C 0.3801(4) 0.8440(2) 0.78506(19)
H36 H 0.3355 0.8394 0.8112
C54 C 0.5999(4) 0.93465(17) 0.74935(16)
Co1A Co -0.24478(6) 0.99815(2) 0.68697(2)
Co2A Co 0.25427(6) 0.49964(2) 0.31293(2)
Co3A Co -0.38687(6) 0.75065(2) 0.46762(3)
Co4A Co -0.10457(6) 0.74899(2) 0.47573(2)
O3A O -0.2417(3) 0.74959(10) 0.42937(12)
O4A O -0.5373(4) 0.74898(14) 0.50040(19)
O5A O -0.3462(3) 0.81250(13) 0.50973(13)
O6A O -0.1727(3) 0.80072(14) 0.52091(13)
O7A O 0.0398(3) 1.18868(13) 0.55959(13)
O8A O 0.1669(3) 1.16943(15) 0.61198(14)
O9A O -0.1609(3) 0.68362(13) 0.50875(13)
O10A O -0.3348(3) 0.69559(13) 0.51631(14)
O11A O 0.5582(3) 0.68954(14) 0.42668(14)
O12A O 0.6900(3) 0.66861(15) 0.37910(15)
O13A O -0.3651(3) 1.04423(13) 0.65882(13)
O14A O -0.4023(4) 1.09680(19) 0.71887(15)
O15A O 0.1535(3) 0.55094(13) 0.34583(12)
O16A O 0.1089(4) 0.60433(16) 0.28666(14)
O17A O 0.2298(3) 0.74911(10) 0.67761(12)
O18A O 0.3548(4) 0.74799(18) 0.62313(18)
O19A O -0.1414(3) 0.55370(12) 0.78691(11)
O20A O -0.1208(3) 0.54213(12) 0.70999(11)
O21A O -0.1164(3) 0.95650(12) 0.71163(11)
O22A O -0.1466(3) 0.94367(12) 0.78784(11)
N1A N -0.2474(3) 0.95113(14) 0.62527(13)
N2A N -0.1331(3) 1.05003(15) 0.65495(14)
N3A N -0.2544(3) 0.54808(14) 0.62563(13)
N4A N 0.3828(3) 0.54572(15) 0.34116(14)
N5A N -0.5510(3) 1.19271(16) 0.58067(15)
N6A N -0.0287(3) 0.69699(15) 0.42869(15)
N7A N 0.0235(3) 0.74824(13) 0.52698(15)
N8A N 0.1332(3) 0.68642(14) 0.75058(14)
N9A N 0.1320(3) 0.81130(14) 0.75154(15)
C1A C -0.3405(4) 0.93372(18) 0.60764(17)
H1A H -0.4037 0.9498 0.6180
C2A C -0.3483(4) 0.89366(18) 0.57524(18)
H2A H -0.4153 0.8827 0.5633
C3A C -0.2549(4) 0.86956(17) 0.56031(16)
C4A C -0.1610(4) 0.8881(2) 0.57805(17)
H3A H -0.0965 0.8729 0.5682
C5A C -0.1591(4) 0.92859(19) 0.61012(18)
H4A H -0.0928 0.9408 0.6218
C6A C -0.2593(4) 0.82365(18) 0.52713(16)
C7A C -0.0374(4) 1.06141(19) 0.67483(19)
H5A H -0.0180 1.0444 0.7033
C8A C 0.0338(4) 1.0968(2) 0.65546(19)
H6A H 0.0993 1.1040 0.6708
C9A C 0.0076(4) 1.12117(19) 0.61357(18)
C10A C -0.0871(4) 1.1085(2) 0.59216(19)
H7A H -0.1073 1.1243 0.5632
C11A C -0.1529(5) 1.0723(2) 0.6134(2)
H8A H -0.2162 1.0626 0.5973
C12A C 0.0788(4) 1.16188(19) 0.59309(18)
C13A C -0.1640(4) 0.56558(19) 0.60804(17)
H9A H -0.0994 0.5502 0.6186
C14A C -0.1605(4) 0.60478(19) 0.57543(17)
H10A H -0.0944 0.6162 0.5639
C15A C -0.2528(4) 0.62777(17) 0.55931(15)
C16A C -0.3472(4) 0.60899(19) 0.57633(17)
H11A H -0.4127 0.6231 0.5655
C17A C -0.3449(4) 0.56975(18) 0.60897(17)
H12A H -0.4101 0.5571 0.6205
C18A C -0.2509(4) 0.67332(18) 0.52511(16)
C19A C 0.3777(5) 0.5649(2) 0.3846(2)
H13A H 0.3222 0.5527 0.4038
C20A C 0.4477(5) 0.6016(2) 0.4039(2)
H14A H 0.4383 0.6146 0.4348
C21A C 0.5297(4) 0.6185(2) 0.37756(19)
C22A C 0.5429(4) 0.5969(2) 0.3342(2)
H15A H 0.6023 0.6062 0.3161
C23A C 0.4687(4) 0.5610(2) 0.3167(2)
H16A H 0.4788 0.5467 0.2864
C24A C 0.5995(4) 0.6618(2) 0.3960(2)
C25A C -0.5048(5) 1.1496(2) 0.5663(2)
H17A H -0.5028 1.1438 0.5335
C26A C -0.4587(5) 1.1120(2) 0.5950(2)
H18A H -0.4272 1.0814 0.5825
C27A C -0.4605(5) 1.1212(2) 0.6433(2)
C28A C -0.5110(5) 1.1661(2) 0.6598(2)
H19A H -0.5148 1.1730 0.6924
C29A C -0.5552(5) 1.2002(2) 0.6271(2)
H20A H -0.5903 1.2306 0.6383
C30A C -0.4052(5) 1.0845(2) 0.6764(2)
C31A C 0.0181(5) 0.6529(2) 0.4411(2)
H21A H 0.0193 0.6445 0.4735
C32A C 0.0662(5) 0.6173(2) 0.41083(19)
H22A H 0.1012 0.5869 0.4224
C33A C 0.0611(5) 0.6280(2) 0.3639(2)
C34A C 0.0136(5) 0.6744(2) 0.3484(2)
H23A H 0.0109 0.6832 0.3160
C35A C -0.0294(5) 0.7072(2) 0.3816(2)
H24A H -0.0615 0.7388 0.3711
C36A C 0.1104(5) 0.5919(2) 0.32904(19)
C37A C 0.1230(4) 0.75378(18) 0.5164(2)
H25A H 0.1416 0.7572 0.4844
C38A C 0.2027(4) 0.7548(2) 0.5507(2)
H26A H 0.2743 0.7593 0.5420
C39A C 0.1774(5) 0.74930(16) 0.5975(2)
C40A C 0.0700(4) 0.74361(19) 0.6086(2)
H27A H 0.0493 0.7399 0.6403
C41A C -0.0043(4) 0.74347(19) 0.57288(19)
H28A H -0.0769 0.7400 0.5803
C42A C 0.2629(5) 0.74903(17) 0.6356(2)
C43A C 0.1235(4) 0.65312(19) 0.71395(19)
H29A H 0.1700 0.6573 0.6884
C44A C 0.0502(4) 0.61369(19) 0.71179(17)
H30A H 0.0459 0.5915 0.6851
C45A C -0.0189(3) 0.60625(16) 0.74942(16)
C46A C -0.0076(4) 0.63956(18) 0.78730(18)
H31A H -0.0513 0.6353 0.8138
C47A C 0.0671(4) 0.67898(19) 0.78664(17)
H32A H 0.0722 0.7020 0.8128
C48A C -0.1006(4) 0.56312(16) 0.74811(16)
C49A C 0.0698(4) 0.82041(19) 0.78874(18)
H33A H 0.0773 0.7984 0.8154
C50A C -0.0038(4) 0.85988(19) 0.78985(18)
H34A H -0.0447 0.8651 0.8171
C51A C -0.0183(4) 0.89223(17) 0.75105(16)
C52A C 0.0472(4) 0.8832(2) 0.71338(18)
H35A H 0.0411 0.9046 0.6862
C53A C 0.1199(4) 0.8440(2) 0.71494(19)
H36A H 0.1645 0.8394 0.6888
C54A C -0.0999(4) 0.93465(17) 0.75065(16)
Co1_2 Co -0.25522(6) 0.99815(2) 0.81303(2)
Co1A_2 Co 0.75522(6) 0.99815(2) 0.68697(2)
Co2A_2 Co 0.25427(6) 0.49964(2) 1.31293(2)
Co2B Co -0.24573(6) 0.50036(2) 0.81293(2)
Co2B_2 Co 0.75427(6) 0.50036(2) 0.81293(2)
Co2C Co -0.25427(6) 0.50036(2) 0.68707(2)
Co2C_2 Co 0.74573(6) 0.50036(2) 0.68707(2)
Co3_2 Co -0.11313(6) 0.75065(2) 1.03238(3)
Co3A_2 Co 0.61313(6) 0.75065(2) 0.46762(3)
Co3B Co 1.11313(6) 1.24935(2) 0.96762(3)
Co3C Co -0.61313(6) 1.24935(2) 0.53238(3)
Co4B Co 0.39543(6) 1.25101(2) 0.97573(2)
Co4C Co 0.10457(6) 1.25101(2) 0.52427(2)
O1_2 O -0.2500 1.04243(16) 0.7500
O2_2 O 0.2500 0.54577(16) 0.2500
O7B O 0.5398(3) 0.81132(13) 1.05959(13)
O7C O -0.0398(3) 0.81132(13) 0.44041(13)
O11_2 O 0.9418(3) 0.68954(14) 1.07332(14)
O11A_2 O -0.4418(3) 0.68954(14) 0.42668(14)
O19B O 0.3586(3) 0.44630(12) 0.28691(11)
O19C O 0.1414(3) 0.44630(12) 1.21309(11)
O20B O 0.3792(3) 0.45787(12) 1.20999(11)
O20C O 0.1208(3) 0.45787(12) 0.29001(11)
O22_2 O -0.3534(3) 0.94367(12) 0.71216(11)
O22A_2 O 0.8534(3) 0.94367(12) 0.78784(11)
N3B N 0.2456(3) 0.45192(14) 1.12563(13)
N3C N 0.2544(3) 0.45192(14) 0.37437(13)
N5B N 0.9490(3) 0.80729(16) 1.08067(15)
N5C N -0.4490(3) 0.80729(16) 0.41933(15)
O23 O 0.2011(7) 0.7533(4) 0.0669(3)
N10 N 0.2221(7) 0.7443(3) 0.1437(4)
C55 C 0.1823(8) 0.7295(6) 0.1006(6)
C56 C 0.2832(9) 0.7889(4) 0.1511(6)
H37 H 0.3010 0.7920 0.1845
H38 H 0.2435 0.8199 0.1409
H39 H 0.3484 0.7862 0.1332
C57 C 0.1956(9) 0.7093(5) 0.1821(5)
H40 H 0.1510 0.6807 0.1702
H41 H 0.1573 0.7289 0.2060
H42 H 0.2606 0.6948 0.1960
C58 C 0.2500 0.0897(7) 0.7500
C59 C 0.1820(11) 0.0614(6) 0.7770(5)
H43 H 0.1328 0.0801 0.7954
C60 C 0.1808(12) 0.0075(6) 0.7789(5)
H44 H 0.1346 -0.0108 0.7991
C61 C 0.2500 -0.0189(10) 0.7500
H45 H 0.2500 -0.0562 0.7500
C62 C 0.2500 0.1501(7) 0.7500
C59A C 0.3180(11) 0.0614(6) 0.7230(5)
H43A H 0.3672 0.0801 0.7046
C60A C 0.3192(12) 0.0075(6) 0.7211(5)
H44A H 0.3654 -0.0108 0.7009
loop_
_geom_bond_atom_site_label_1
_geom_bond_atom_site_label_2
_geom_bond_site_symmetry_1
_geom_bond_site_symmetry_2
Co1 O1 1_555 1_555
Co2 O2 1_555 1_555
Co3 O3 1_555 1_555
Co4 O3 1_555 1_555
Co5 O17 1_555 1_555
O1 Co1A_2 1_555 1_555
O2 Co2A_2 1_555 1_555
O4 Co3 1_555 1_555
O5 Co3 1_555 1_555
O6 Co4 1_555 1_555
O7 C12 1_555 1_555
O8 C12 1_555 1_555
O9 Co4 1_555 1_555
O10 Co3 1_555 1_555
O11 C24 1_555 1_555
O12 C24 1_555 1_555
O13 Co1 1_555 1_555
O14 C30 1_555 1_555
O15 Co2 1_555 1_555
O16 C36 1_555 1_555
O17 C42 1_555 1_555
O18 C42 1_555 1_555
O19 C48 1_555 1_555
O20 C48 1_555 1_555
O21 Co1 1_555 1_555
O22 C54 1_555 1_555
N1 Co1 1_555 1_555
N2 Co1 1_555 1_555
N3 C13 1_555 1_555
N4 Co2 1_555 1_555
N5 C25 1_555 1_555
N6 Co4 1_555 1_555
N7 Co4 1_555 1_555
N8 Co5 1_555 1_555
N9 Co5 1_555 1_555
C1 N1 1_555 1_555
H1 C1 1_555 1_555
C2 C1 1_555 1_555
H2 C2 1_555 1_555
C3 C2 1_555 1_555
C4 C3 1_555 1_555
H3 C4 1_555 1_555
C5 N1 1_555 1_555
H4 C5 1_555 1_555
C6 O5 1_555 1_555
C7 N2 1_555 1_555
H5 C7 1_555 1_555
C8 C7 1_555 1_555
H6 C8 1_555 1_555
C9 C8 1_555 1_555
C10 C9 1_555 1_555
H7 C10 1_555 1_555
C11 N2 1_555 1_555
H8 C11 1_555 1_555
C12 C9 1_555 1_555
C13 H9 1_555 1_555
C14 C13 1_555 1_555
H10 C14 1_555 1_555
C15 C14 1_555 1_555
C16 C15 1_555 1_555
H11 C16 1_555 1_555
C17 N3 1_555 1_555
H12 C17 1_555 1_555
C18 O9 1_555 1_555
C19 N4 1_555 1_555
H13 C19 1_555 1_555
C20 C19 1_555 1_555
H14 C20 1_555 1_555
C21 C20 1_555 1_555
C22 C21 1_555 1_555
H15 C22 1_555 1_555
C23 N4 1_555 1_555
H16 C23 1_555 1_555
C24 C21 1_555 1_555
C25 H17 1_555 1_555
C26 C25 1_555 1_555
H18 C26 1_555 1_555
C27 C26 1_555 1_555
C28 C27 1_555 1_555
H19 C28 1_555 1_555
C29 N5 1_555 1_555
H20 C29 1_555 1_555
C30 O13 1_555 1_555
C31 N6 1_555 1_555
H21 C31 1_555 1_555
C32 C31 1_555 1_555
H22 C32 1_555 1_555
C33 C32 1_555 1_555
C34 C33 1_555 1_555
H23 C34 1_555 1_555
C35 N6 1_555 1_555
H24 C35 1_555 1_555
C36 O15 1_555 1_555
C37 N7 1_555 1_555
H25 C37 1_555 1_555
C38 C37 1_555 1_555
H26 C38 1_555 1_555
C39 C38 1_555 1_555
C40 C39 1_555 1_555
H27 C40 1_555 1_555
C41 N7 1_555 1_555
H28 C41 1_555 1_555
C42 C39 1_555 1_555
C43 N8 1_555 1_555
H29 C43 1_555 1_555
C44 C43 1_555 1_555
H30 C44 1_555 1_555
C45 C44 1_555 1_555
C46 C45 1_555 1_555
H31 C46 1_555 1_555
C47 N8 1_555 1_555
H32 C47 1_555 1_555
C48 C45 1_555 1_555
C49 N9 1_555 1_555
H33 C49 1_555 1_555
C50 C49 1_555 1_555
H34 C50 1_555 1_555
C51 C50 1_555 1_555
C52 C51 1_555 1_555
H35 C52 1_555 1_555
C53 N9 1_555 1_555
H36 C53 1_555 1_555
C54 O21 1_555 1_555
O23 C55 1_555 1_555
N10 C55 1_555 1_555
C56 N10 1_555 1_555
H37 C56 1_555 1_555
H38 C56 1_555 1_555
H39 C56 1_555 1_555
C57 N10 1_555 1_555
H40 C57 1_555 1_555
H41 C57 1_555 1_555
H42 C57 1_555 1_555
C58 C59 1_555 1_555
C59 H43 1_555 1_555
C60 C59 1_555 1_555
H44 C60 1_555 1_555
C61 C60 1_555 1_555
H45 C61 1_555 1_555
C62 C58 1_555 1_555
Co1A O13A 1_555 1_555
Co2A O15A 1_555 1_555
Co3A O3A 1_555 1_555
Co4A O3A 1_555 1_555
O4A Co3A 1_555 1_555
O5A Co3A 1_555 1_555
O6A Co4A 1_555 1_555
O7A C12A 1_555 1_555
O8A C12A 1_555 1_555
O9A Co4A 1_555 1_555
O10A Co3A 1_555 1_555
O11A C24A 1_555 1_555
O12A C24A 1_555 1_555
O13A C30A 1_555 1_555
O14A C30A 1_555 1_555
O15A C36A 1_555 1_555
O16A C36A 1_555 1_555
O17A Co5 1_555 1_555
O18A C42A 1_555 1_555
O19A C48A 1_555 1_555
O20A C48A 1_555 1_555
O21A Co1A 1_555 1_555
O22A C54A 1_555 1_555
N1A Co1A 1_555 1_555
N2A Co1A 1_555 1_555
N3A C13A 1_555 1_555
N4A Co2A 1_555 1_555
N5A C25A 1_555 1_555
N6A Co4A 1_555 1_555
N7A Co4A 1_555 1_555
N8A Co5 1_555 1_555
N9A Co5 1_555 1_555
C1A N1A 1_555 1_555
H1A C1A 1_555 1_555
C2A C1A 1_555 1_555
H2A C2A 1_555 1_555
C3A C2A 1_555 1_555
C4A C3A 1_555 1_555
H3A C4A 1_555 1_555
C5A N1A 1_555 1_555
H4A C5A 1_555 1_555
C6A O5A 1_555 1_555
C7A N2A 1_555 1_555
H5A C7A 1_555 1_555
C8A C7A 1_555 1_555
H6A C8A 1_555 1_555
C9A C8A 1_555 1_555
C10A C9A 1_555 1_555
H7A C10A 1_555 1_555
C11A N2A 1_555 1_555
H8A C11A 1_555 1_555
C12A C9A 1_555 1_555
C13A H9A 1_555 1_555
C14A C13A 1_555 1_555
H10A C14A 1_555 1_555
C15A C14A 1_555 1_555
C16A C15A 1_555 1_555
H11A C16A 1_555 1_555
C17A N3A 1_555 1_555
H12A C17A 1_555 1_555
C18A O9A 1_555 1_555
C19A N4A 1_555 1_555
H13A C19A 1_555 1_555
C20A C19A 1_555 1_555
H14A C20A 1_555 1_555
C21A C20A 1_555 1_555
C22A C21A 1_555 1_555
H15A C22A 1_555 1_555
C23A N4A 1_555 1_555
H16A C23A 1_555 1_555
C24A C21A 1_555 1_555
C25A H17A 1_555 1_555
C26A C25A 1_555 1_555
H18A C26A 1_555 1_555
C27A C26A 1_555 1_555
C28A C27A 1_555 1_555
H19A C28A 1_555 1_555
C29A N5A 1_555 1_555
H20A C29A 1_555 1_555
C30A C27A 1_555 1_555
C31A N6A 1_555 1_555
H21A C31A 1_555 1_555
C32A C31A 1_555 1_555
H22A C32A 1_555 1_555
C33A C32A 1_555 1_555
C34A C33A 1_555 1_555
H23A C34A 1_555 1_555
C35A N6A 1_555 1_555
H24A C35A 1_555 1_555
C36A C33A 1_555 1_555
C37A N7A 1_555 1_555
H25A C37A 1_555 1_555
C38A C37A 1_555 1_555
H26A C38A 1_555 1_555
C39A C38A 1_555 1_555
C40A C39A 1_555 1_555
H27A C40A 1_555 1_555
C41A N7A 1_555 1_555
H28A C41A 1_555 1_555
C42A O17A 1_555 1_555
C43A N8A 1_555 1_555
H29A C43A 1_555 1_555
C44A C43A 1_555 1_555
H30A C44A 1_555 1_555
C45A C44A 1_555 1_555
C46A C45A 1_555 1_555
H31A C46A 1_555 1_555
C47A N8A 1_555 1_555
H32A C47A 1_555 1_555
C48A C45A 1_555 1_555
C49A N9A 1_555 1_555
H33A C49A 1_555 1_555
C50A C49A 1_555 1_555
H34A C50A 1_555 1_555
C51A C50A 1_555 1_555
C52A C51A 1_555 1_555
H35A C52A 1_555 1_555
C53A N9A 1_555 1_555
H36A C53A 1_555 1_555
C54A O21A 1_555 1_555
Co1_2 O22A 1_555 1_555
Co1A_2 O22 1_555 1_555
Co2B O19A 1_555 1_555
Co2B_2 O20 1_555 1_555
Co2C O20A 1_555 1_555
Co2C_2 O19 1_555 1_555
Co3_2 O11 1_555 1_555
Co3A_2 O11A 1_555 1_555
Co3B N5 1_555 1_555
Co3C N5A 1_555 1_555
Co4B O7 1_555 1_555
Co4C O7A 1_555 1_555
O1_2 Co1A 1_555 1_555
O2_2 Co2A 1_555 1_555
O7B Co4 1_555 1_555
O7C Co4A 1_555 1_555
O11_2 Co3 1_555 1_555
O11A_2 Co3A 1_555 1_555
O19B Co2A 1_555 1_555
O19C Co2 1_555 1_555
O20B Co2 1_555 1_555
O20C Co2A 1_555 1_555
O22_2 Co1A 1_555 1_555
O22A_2 Co1 1_555 1_555
N3B Co2 1_555 1_555
N3C Co2A 1_555 1_555
N5B Co3 1_555 1_555
N5C Co3A 1_555 1_555
C59A C58 1_555 1_555
H43A C59A 1_555 1_555
C60A C61 1_555 1_555
H44A C60A 1_555 1_555
O6 C6 1_555 1_555
O10 C18 1_555 1_555
N3 Co2B_2 1_555 1_555
C3 C6 1_555 1_555
C4 C5 1_555 1_555
C10 C11 1_555 1_555
C15 C18 1_555 1_555
C16 C17 1_555 1_555
C22 C23 1_555 1_555
C27 C30 1_555 1_555
C28 C29 1_555 1_555
C33 C36 1_555 1_555
C34 C35 1_555 1_555
C40 C41 1_555 1_555
C46 C47 1_555 1_555
C51 C54 1_555 1_555
C52 C53 1_555 1_555
O6A C6A 1_555 1_555
O10A C18A 1_555 1_555
N3A Co2C 1_555 1_555
C3A C6A 1_555 1_555
C4A C5A 1_555 1_555
C10A C11A 1_555 1_555
C15A C18A 1_555 1_555
C16A C17A 1_555 1_555
C22A C23A 1_555 1_555
C28A C29A 1_555 1_555
C34A C35A 1_555 1_555
C39A C42A 1_555 1_555
C40A C41A 1_555 1_555
C46A C47A 1_555 1_555
C51A C54A 1_555 1_555
C52A C53A 1_555 1_555
Co1_2 O1_2 1_555 1_555
C59A C60A 1_555 1_555

#END
