
#######################################################################
#
#                 Cambridge Crystallographic Data Centre
#                                CCDC 
#
#######################################################################
#
# If this CIF has been generated from an entry in the Cambridge 
# Structural Database, then it will include bibliographic, chemical, 
# crystal, experimental, refinement or atomic coordinate data resulting 
# from the CCDC's data processing and validation procedures.
#
#######################################################################

data_OQUFOX
_chemical_formula_moiety         '(C72 H36 F28 O34 Zr6)n'
_symmetry_cell_setting           tetragonal
_symmetry_space_group_name_H-M   'P 42/n c m'
_symmetry_Int_Tables_number      138
_space_group_name_Hall           '-P 4ac 2ac'
loop_
_symmetry_equiv_pos_site_id
_symmetry_equiv_pos_as_xyz
1 x,y,z
2 1/2-y,x,1/2+z
3 1/2-x,1/2-y,z
4 y,1/2-x,1/2+z
5 1/2+x,-y,1/2-z
6 -x,1/2+y,1/2-z
7 1/2+y,1/2+x,-z
8 -y,-x,-z
9 -x,-y,-z
10 1/2+y,-x,1/2-z
11 1/2+x,1/2+y,-z
12 -y,1/2+x,1/2-z
13 1/2-x,y,1/2+z
14 x,1/2-y,1/2+z
15 1/2-y,1/2-x,z
16 y,x,z
_cell_length_a                   34.3562(2)
_cell_length_b                   34.3562(2)
_cell_length_c                   15.0094(3)
_cell_angle_alpha                90
_cell_angle_beta                 90
_cell_angle_gamma                90
_cell_volume                     17716.3
loop_
_atom_site_label
_atom_site_type_symbol
_atom_site_fract_x
_atom_site_fract_y
_atom_site_fract_z
Zr1 Zr 0.55045(3) 0.05045(3) 0.0000
Zr2 Zr 0.46921(4) 0.03079(4) 0.13409(13)
Zr3 Zr 0.54146(4) -0.04146(4) 0.09876(13)
F1 F 0.6038(9) 0.2248(9) 0.092(2)
F2 F 0.5977(9) 0.2648(8) 0.202(2)
F3 F 0.5567(10) 0.2661(8) 0.092(2)
F4 F 0.6048(7) 0.2736(7) 0.4594(17)
F5 F 0.5774(7) 0.2222(6) 0.4293(18)
F6 F 0.6120(6) 0.2480(7) 0.3353(17)
F7 F 0.4341(5) -0.0301(5) 0.4308(11)
O1 O 0.4977(3) 0.0853(3) 0.1855(8)
O2 O 0.5503(3) 0.0979(3) 0.1027(7)
O3 O 0.4842(3) 0.4002(3) 0.3604(10)
O4 O 0.5426(3) 0.3951(3) 0.4194(7)
O5 O 0.4767(4) 0.0233(4) 0.2719(12)
O6 O 0.4381(7) 0.0619(7) 0.355(3)
O7 O 0.5302(3) 0.0201(3) 0.1175(10)
O8 O 0.4393(4) 0.0115(4) 0.0168(10)
O9 O 0.4238(3) 0.0762(3) 0.1432(17)
O10 O 0.5457(4) -0.0457(4) 0.2397(17)
O11 O 0.5856(3) -0.0856(3) 0.0716(12)
C1 C 0.5263(5) 0.1066(3) 0.1563(11)
C2 C 0.5283(4) 0.1460(2) 0.1989(8)
C3 C 0.5509(4) 0.1747(3) 0.1587(8)
H1 H 0.5659 0.1686 0.1075
C4 C 0.5513(4) 0.2122(3) 0.1935(9)
C5 C 0.5293(4) 0.2210(2) 0.2684(9)
C6 C 0.5067(4) 0.1924(3) 0.3086(8)
H2 H 0.4916 0.1984 0.3598
C7 C 0.5062(4) 0.1549(3) 0.2738(8)
H3 H 0.4908 0.1353 0.3012
C8 C 0.5769(9) 0.2423(10) 0.146(2)
C9 C 0.5252(4) 0.2626(2) 0.3010(10)
C10 C 0.5515(3) 0.2790(3) 0.3605(9)
C11 C 0.5478(3) 0.3178(3) 0.3851(8)
H4 H 0.5658 0.3290 0.4257
C12 C 0.5178(3) 0.3402(2) 0.3501(9)
C13 C 0.4915(3) 0.3238(3) 0.2906(9)
H5 H 0.4710 0.3392 0.2667
C14 C 0.4952(4) 0.2850(3) 0.2660(9)
H6 H 0.4772 0.2738 0.2253
C15 C 0.5833(8) 0.2577(6) 0.3935(14)
C16 C 0.5154(4) 0.3815(3) 0.3826(11)
C17 C 0.4647(6) 0.0353(6) 0.3376(17)
C18 C 0.4797(6) 0.0203(6) 0.4250(16)
C19 C 0.4673(5) -0.0140(4) 0.4649(9)
F7F F 0.4699(5) -0.0659(5) 0.5692(11)
O5F O 0.5233(4) -0.0233(4) 0.7281(12)
O6F O 0.5619(7) -0.0619(7) 0.645(3)
C17F C 0.5353(6) -0.0353(6) 0.6624(17)
C18F C 0.5203(6) -0.0203(6) 0.5750(16)
C19F C 0.4860(4) -0.0327(5) 0.5351(9)
F7H F 0.5659(5) 0.0301(5) 0.5692(11)
C19H C 0.5327(5) 0.0140(4) 0.5351(9)
F7N F 0.5301(5) 0.0659(5) 0.4308(11)
C19N C 0.5140(4) 0.0327(5) 0.4649(9)
Zr2F Zr 0.53079(4) -0.03079(4) -0.13409(13)
Zr3F Zr 0.45854(4) 0.04146(4) -0.09876(13)
F1F F 0.7248(9) 0.1038(9) -0.092(2)
F2F F 0.7648(8) 0.0977(9) -0.202(2)
F3F F 0.7661(8) 0.0567(10) -0.092(2)
F4F F 0.7736(7) 0.1048(7) -0.4594(17)
F5F F 0.7222(6) 0.0774(7) -0.4293(18)
F6F F 0.7480(7) 0.1120(6) -0.3353(17)
O1F O 0.5853(3) -0.0023(3) -0.1855(8)
O2F O 0.5979(3) 0.0503(3) -0.1027(7)
O3F O 0.9002(3) -0.0158(3) -0.3604(10)
O4F O 0.8951(3) 0.0426(3) -0.4194(7)
O7F O 0.5201(3) 0.0302(3) -0.1175(10)
O8F O 0.5115(4) -0.0607(4) -0.0168(10)
O9F O 0.5762(3) -0.0762(3) -0.1432(17)
O10F O 0.4543(4) 0.0457(4) -0.2397(17)
O11F O 0.4144(3) 0.0856(3) -0.0716(12)
C1F C 0.6066(3) 0.0263(5) -0.1563(11)
C2F C 0.6460(2) 0.0283(4) -0.1989(8)
C3F C 0.6747(3) 0.0509(4) -0.1587(8)
H1F H 0.6686 0.0659 -0.1075
C4F C 0.7122(3) 0.0513(4) -0.1935(9)
C5F C 0.7210(2) 0.0293(4) -0.2684(9)
C6F C 0.6924(3) 0.0067(4) -0.3086(8)
H2F H 0.6984 -0.0084 -0.3598
C7F C 0.6549(3) 0.0062(4) -0.2738(8)
H3F H 0.6353 -0.0092 -0.3012
C8F C 0.7423(10) 0.0769(9) -0.146(2)
C9F C 0.7626(2) 0.0252(4) -0.3010(10)
C10F C 0.7790(3) 0.0515(3) -0.3605(9)
C11F C 0.8178(3) 0.0478(3) -0.3851(8)
H4F H 0.8290 0.0658 -0.4257
C12F C 0.8402(2) 0.0178(3) -0.3501(9)
C13F C 0.8238(3) -0.0085(3) -0.2906(9)
H5F H 0.8392 -0.0290 -0.2667
C14F C 0.7850(3) -0.0048(4) -0.2660(9)
H6F H 0.7738 -0.0228 -0.2253
C15F C 0.7577(6) 0.0833(8) -0.3935(14)
C16F C 0.8815(3) 0.0154(4) -0.3826(11)
Zr1H Zr 0.44955(3) -0.05045(3) 0.0000
F1H F 0.3962(9) -0.2248(9) -0.092(2)
F2H F 0.4023(9) -0.2648(8) -0.202(2)
F3H F 0.4433(10) -0.2661(8) -0.092(2)
F4H F 0.3952(7) -0.2736(7) -0.4594(17)
F5H F 0.4226(7) -0.2222(6) -0.4293(18)
F6H F 0.3880(6) -0.2480(7) -0.3353(17)
O1H O 0.5023(3) -0.0853(3) -0.1855(8)
O2H O 0.4497(3) -0.0979(3) -0.1027(7)
O3H O 0.5158(3) -0.4002(3) -0.3604(10)
O4H O 0.4574(3) -0.3951(3) -0.4194(7)
O7H O 0.4698(3) -0.0201(3) -0.1175(10)
O8H O 0.5607(4) -0.0115(4) -0.0168(10)
C1H C 0.4737(5) -0.1066(3) -0.1563(11)
C2H C 0.4717(4) -0.1460(2) -0.1989(8)
C3H C 0.4491(4) -0.1747(3) -0.1587(8)
H1H H 0.4341 -0.1686 -0.1075
C4H C 0.4487(4) -0.2122(3) -0.1935(9)
C5H C 0.4707(4) -0.2210(2) -0.2684(9)
C6H C 0.4933(4) -0.1924(3) -0.3086(8)
H2H H 0.5084 -0.1984 -0.3598
C7H C 0.4938(4) -0.1549(3) -0.2738(8)
H3H H 0.5092 -0.1353 -0.3012
C8H C 0.4231(9) -0.2423(10) -0.146(2)
C9H C 0.4748(4) -0.2626(2) -0.3010(10)
C10H C 0.4485(3) -0.2790(3) -0.3605(9)
C11H C 0.4522(3) -0.3178(3) -0.3851(8)
H4H H 0.4342 -0.3290 -0.4257
C12H C 0.4822(3) -0.3402(2) -0.3501(9)
C13H C 0.5085(3) -0.3238(3) -0.2906(9)
H5H H 0.5290 -0.3392 -0.2667
C14H C 0.5048(4) -0.2850(3) -0.2660(9)
H6H H 0.5228 -0.2738 -0.2253
C15H C 0.4167(8) -0.2577(6) -0.3935(14)
C16H C 0.4846(4) -0.3815(3) -0.3826(11)
F1N F 0.2752(9) -0.1038(9) 0.092(2)
F2N F 0.2352(8) -0.0977(9) 0.202(2)
F3N F 0.2339(8) -0.0567(10) 0.092(2)
F4N F 0.2264(7) -0.1048(7) 0.4594(17)
F5N F 0.2778(6) -0.0774(7) 0.4293(18)
F6N F 0.2520(7) -0.1120(6) 0.3353(17)
O1N O 0.4147(3) 0.0023(3) 0.1855(8)
O2N O 0.4021(3) -0.0503(3) 0.1027(7)
O3N O 0.0998(3) 0.0158(3) 0.3604(10)
O4N O 0.1049(3) -0.0426(3) 0.4194(7)
O7N O 0.4799(3) -0.0302(3) 0.1175(10)
O8N O 0.4885(4) 0.0607(4) 0.0168(10)
C1N C 0.3934(3) -0.0263(5) 0.1563(11)
C2N C 0.3540(2) -0.0283(4) 0.1989(8)
C3N C 0.3253(3) -0.0509(4) 0.1587(8)
H1N H 0.3314 -0.0659 0.1075
C4N C 0.2878(3) -0.0513(4) 0.1935(9)
C5N C 0.2790(2) -0.0293(4) 0.2684(9)
C6N C 0.3076(3) -0.0067(4) 0.3086(8)
H2N H 0.3016 0.0084 0.3598
C7N C 0.3451(3) -0.0062(4) 0.2738(8)
H3N H 0.3647 0.0092 0.3012
C8N C 0.2577(10) -0.0769(9) 0.146(2)
C9N C 0.2374(2) -0.0252(4) 0.3010(10)
C10N C 0.2210(3) -0.0515(3) 0.3605(9)
C11N C 0.1822(3) -0.0478(3) 0.3851(8)
H4N H 0.1710 -0.0658 0.4257
C12N C 0.1598(2) -0.0178(3) 0.3501(9)
C13N C 0.1762(3) 0.0085(3) 0.2906(9)
H5N H 0.1608 0.0290 0.2667
C14N C 0.2150(3) 0.0048(4) 0.2660(9)
H6N H 0.2262 0.0228 0.2253
C15N C 0.2423(6) -0.0833(8) 0.3935(14)
C16N C 0.1185(3) -0.0154(4) 0.3826(11)
Zr1A Zr 0.44955(3) -0.44955(3) -0.5000
Zr1C Zr 0.05045(3) -0.05045(3) 0.5000
Zr1I Zr 0.55045(3) 0.44955(3) 0.5000
Zr1K Zr 0.94955(3) 0.05045(3) -0.5000
Zr2F_2 Zr 0.53079(4) -0.03079(4) 0.86591(13)
Zr3A Zr 0.54146(4) -0.45854(4) -0.40124(13)
Zr3C Zr 0.95854(4) -0.04146(4) -0.40124(13)
Zr3D Zr 0.04146(4) 0.04146(4) 0.40124(13)
Zr3E Zr 0.45854(4) 0.45854(4) 0.40124(13)
O3C O 0.4002(3) 0.0158(3) -0.1396(10)
O3E O 0.5158(3) -0.0998(3) 0.1396(10)
O3K O 0.5998(3) -0.0158(3) 0.1396(10)
O3M O 0.4842(3) 0.0998(3) -0.1396(10)
O4C O 0.3951(3) -0.0426(3) -0.0806(7)
O4E O 0.4574(3) -0.1049(3) 0.0806(7)
O4K O 0.6049(3) 0.0426(3) 0.0806(7)
O4M O 0.5426(3) 0.1049(3) -0.0806(7)
O5F_2 O 0.5233(4) -0.0233(4) -0.2719(12)
loop_
_geom_bond_atom_site_label_1
_geom_bond_atom_site_label_2
_geom_bond_site_symmetry_1
_geom_bond_site_symmetry_2
Zr1 O2 1_555 1_555
Zr2 O1 1_555 1_555
Zr3 O7 1_555 1_555
F1 C8 1_555 1_555
F2 C8 1_555 1_555
F3 C8 1_555 1_555
F4 C15 1_555 1_555
F5 C15 1_555 1_555
F6 C15 1_555 1_555
F7 C19 1_555 1_555
O1 C1 1_555 1_555
O2 C1 1_555 1_555
O3 C16 1_555 1_555
O4 C16 1_555 1_555
O5 Zr2 1_555 1_555
O6 C17 1_555 1_555
O7 Zr1 1_555 1_555
O8 Zr2 1_555 1_555
O9 Zr2 1_555 1_555
O10 Zr3 1_555 1_555
O11 Zr3 1_555 1_555
C1 C2 1_555 1_555
C2 C3 1_555 1_555
C3 H1 1_555 1_555
C4 C3 1_555 1_555
C5 C4 1_555 1_555
C6 C5 1_555 1_555
H2 C6 1_555 1_555
C7 C2 1_555 1_555
H3 C7 1_555 1_555
C8 C4 1_555 1_555
C9 C5 1_555 1_555
C10 C9 1_555 1_555
C11 C10 1_555 1_555
H4 C11 1_555 1_555
C12 C11 1_555 1_555
C13 C12 1_555 1_555
H5 C13 1_555 1_555
C14 C9 1_555 1_555
H6 C14 1_555 1_555
C15 C10 1_555 1_555
C16 C12 1_555 1_555
C17 O5 1_555 1_555
C18 C17 1_555 1_555
C19 C18 1_555 1_555
F7F C19F 1_555 1_555
O5F C17F 1_555 1_555
O6F C17F 1_555 1_555
C17F C18F 1_555 1_555
C18F C19F 1_555 1_555
C19F C19 1_555 1_555
F7H C19H 1_555 1_555
C19H C18F 1_555 1_555
F7N C19N 1_555 1_555
C19N C18 1_555 1_555
Zr2F O1F 1_555 1_555
Zr3F O8 1_555 1_555
F1F C8F 1_555 1_555
F2F C8F 1_555 1_555
F3F C8F 1_555 1_555
F4F C15F 1_555 1_555
F5F C15F 1_555 1_555
F6F C15F 1_555 1_555
O1F C1F 1_555 1_555
O2F Zr1 1_555 1_555
O3F C16F 1_555 1_555
O4F C16F 1_555 1_555
O7F Zr1 1_555 1_555
O8F Zr3 1_555 1_555
O9F Zr2F 1_555 1_555
O10F Zr3F 1_555 1_555
O11F Zr3F 1_555 1_555
C1F O2F 1_555 1_555
C2F C1F 1_555 1_555
C3F C2F 1_555 1_555
H1F C3F 1_555 1_555
C4F C3F 1_555 1_555
C5F C4F 1_555 1_555
C6F C5F 1_555 1_555
H2F C6F 1_555 1_555
C7F C2F 1_555 1_555
H3F C7F 1_555 1_555
C8F C4F 1_555 1_555
C9F C5F 1_555 1_555
C10F C9F 1_555 1_555
C11F C10F 1_555 1_555
H4F C11F 1_555 1_555
C12F C11F 1_555 1_555
C13F C12F 1_555 1_555
H5F C13F 1_555 1_555
C14F C9F 1_555 1_555
H6F C14F 1_555 1_555
C15F C10F 1_555 1_555
C16F C12F 1_555 1_555
Zr1H O8 1_555 1_555
F1H C8H 1_555 1_555
F2H C8H 1_555 1_555
F3H C8H 1_555 1_555
F4H C15H 1_555 1_555
F5H C15H 1_555 1_555
F6H C15H 1_555 1_555
O1H Zr2F 1_555 1_555
O2H Zr1H 1_555 1_555
O3H C16H 1_555 1_555
O4H C16H 1_555 1_555
O7H Zr2F 1_555 1_555
O8H Zr1 1_555 1_555
C1H O1H 1_555 1_555
C2H C1H 1_555 1_555
C3H C2H 1_555 1_555
H1H C3H 1_555 1_555
C4H C3H 1_555 1_555
C5H C4H 1_555 1_555
C6H C5H 1_555 1_555
H2H C6H 1_555 1_555
C7H C2H 1_555 1_555
H3H C7H 1_555 1_555
C8H C4H 1_555 1_555
C9H C5H 1_555 1_555
C10H C9H 1_555 1_555
C11H C10H 1_555 1_555
H4H C11H 1_555 1_555
C12H C11H 1_555 1_555
C13H C12H 1_555 1_555
H5H C13H 1_555 1_555
C14H C9H 1_555 1_555
H6H C14H 1_555 1_555
C15H C10H 1_555 1_555
C16H C12H 1_555 1_555
F1N C8N 1_555 1_555
F2N C8N 1_555 1_555
F3N C8N 1_555 1_555
F4N C15N 1_555 1_555
F5N C15N 1_555 1_555
F6N C15N 1_555 1_555
O1N Zr2 1_555 1_555
O2N Zr1H 1_555 1_555
O3N C16N 1_555 1_555
O4N C16N 1_555 1_555
O7N Zr2 1_555 1_555
O8N Zr1 1_555 1_555
C1N O1N 1_555 1_555
C2N C1N 1_555 1_555
C3N C2N 1_555 1_555
H1N C3N 1_555 1_555
C4N C3N 1_555 1_555
C5N C4N 1_555 1_555
C6N C5N 1_555 1_555
H2N C6N 1_555 1_555
C7N C2N 1_555 1_555
H3N C7N 1_555 1_555
C8N C4N 1_555 1_555
C9N C5N 1_555 1_555
C10N C9N 1_555 1_555
C11N C10N 1_555 1_555
H4N C11N 1_555 1_555
C12N C11N 1_555 1_555
C13N C12N 1_555 1_555
H5N C13N 1_555 1_555
C14N C9N 1_555 1_555
H6N C14N 1_555 1_555
C15N C10N 1_555 1_555
C16N C12N 1_555 1_555
Zr1A O4H 1_555 1_555
Zr1C O4N 1_555 1_555
Zr1I O4 1_555 1_555
Zr1K O4F 1_555 1_555
Zr2F_2 O5F 1_555 1_555
Zr3A O3H 1_555 1_555
Zr3C O3F 1_555 1_555
Zr3D O3N 1_555 1_555
Zr3E O3 1_555 1_555
O3C Zr3F 1_555 1_555
O3E Zr3 1_555 1_555
O3K Zr3 1_555 1_555
O3M Zr3F 1_555 1_555
O4C Zr1H 1_555 1_555
O4E Zr1H 1_555 1_555
O4K Zr1 1_555 1_555
O4M Zr1 1_555 1_555
O5F_2 Zr2F 1_555 1_555
Zr2 O7 1_555 1_555
Zr2 O8N 1_555 1_555
Zr3 O8H 1_555 1_555
Zr3 O7N 1_555 1_555
C6 C7 1_555 1_555
C13 C14 1_555 1_555
C19H C19N 1_555 1_555
Zr2F O7F 1_555 1_555
Zr2F O8F 1_555 1_555
Zr2F O8H 1_555 1_555
Zr3F O7F 1_555 1_555
Zr3F O7H 1_555 1_555
Zr3F O8N 1_555 1_555
O8F Zr1H 1_555 1_555
C6F C7F 1_555 1_555
C13F C14F 1_555 1_555
Zr1H O7H 1_555 1_555
Zr1H O7N 1_555 1_555
O2H C1H 1_555 1_555
C6H C7H 1_555 1_555
C13H C14H 1_555 1_555
O2N C1N 1_555 1_555
C6N C7N 1_555 1_555
C13N C14N 1_555 1_555

#END
