
#######################################################################
#
#                 Cambridge Crystallographic Data Centre
#                                CCDC 
#
#######################################################################
#
# If this CIF has been generated from an entry in the Cambridge 
# Structural Database, then it will include bibliographic, chemical, 
# crystal, experimental, refinement or atomic coordinate data resulting 
# from the CCDC's data processing and validation procedures.
#
#######################################################################

data_OQUFAJ03
_chemical_formula_moiety         '(C32 H20 F12 O16 Zr3)n'
_symmetry_cell_setting           tetragonal
_symmetry_space_group_name_H-M   'P 42/m m c'
_symmetry_Int_Tables_number      131
_space_group_name_Hall           '-P 4c 2'
loop_
_symmetry_equiv_pos_site_id
_symmetry_equiv_pos_as_xyz
1 x,y,z
2 -y,x,1/2+z
3 -x,-y,z
4 y,-x,1/2+z
5 x,-y,-z
6 -x,y,-z
7 y,x,1/2-z
8 -y,-x,1/2-z
9 -x,-y,-z
10 y,-x,1/2-z
11 x,y,-z
12 -y,x,1/2-z
13 -x,y,z
14 x,-y,z
15 -y,-x,1/2+z
16 y,x,1/2+z
_cell_length_a                   24.2950(3)
_cell_length_b                   24.2950(3)
_cell_length_c                   15.0574(7)
_cell_angle_alpha                90
_cell_angle_beta                 90
_cell_angle_gamma                90
_cell_volume                     8887.59
loop_
_atom_site_label
_atom_site_type_symbol
_atom_site_fract_x
_atom_site_fract_y
_atom_site_fract_z
Zr1 Zr 0.10068(3) 0.5000 0.0000
Zr2 Zr 0.0000 0.42736(2) 0.11738(4)
F1 F 0.3444(6) 0.2940(6) 0.0803(9)
F2 F 0.3298(5) 0.3810(6) 0.0576(9)
F3 F 0.3670(5) 0.3513(7) 0.1848(9)
O1 O 0.0495(2) 0.5000 0.1185(6)
O2 O 0.14785(14) 0.44465(14) 0.0878(3)
O3 O 0.0497(3) 0.4266(3) 0.0000
O4 O 0.0000 0.3374(2) 0.1099(5)
O5 O 0.0000 0.4303(3) 0.2619(5)
O6 O 0.08362(17) 0.39754(18) 0.1646(4)
C1 C 0.2542(4) 0.2963(4) 0.2329(9)
C2 C 0.2669(3) 0.3342(4) 0.1691(7)
C3 C 0.2276(3) 0.3714(3) 0.1390(7)
H1 H 0.2366 0.3975 0.0945
C4 C 0.1758(3) 0.3698(3) 0.1741(6)
C5 C 0.1627(3) 0.3344(4) 0.2413(9)
H2 H 0.1272 0.3357 0.2678
C6 C 0.2015(4) 0.2965(4) 0.2710(8)
H3 H 0.1924 0.2711 0.3166
C7 C 0.1326(2) 0.4074(3) 0.1388(5)
C8 C 0.3225(5) 0.3416(6) 0.1244(9)
F1F F 0.2940(6) 0.3444(6) 0.4197(9)
F2F F 0.3810(6) 0.3298(5) 0.4424(9)
F3F F 0.3513(7) 0.3670(5) 0.3152(9)
O2F O 0.44465(14) 0.14785(14) 0.4122(3)
O6F O 0.39754(18) 0.08362(17) 0.3354(4)
C1F C 0.2963(4) 0.2542(4) 0.2671(9)
C2F C 0.3342(4) 0.2669(3) 0.3309(7)
C3F C 0.3714(3) 0.2276(3) 0.3610(7)
H1F H 0.3975 0.2366 0.4055
C4F C 0.3698(3) 0.1758(3) 0.3259(6)
C5F C 0.3344(4) 0.1627(3) 0.2587(9)
H2F H 0.3357 0.1272 0.2322
C6F C 0.2965(4) 0.2015(4) 0.2290(8)
H3F H 0.2711 0.1924 0.1834
C7F C 0.4074(3) 0.1326(2) 0.3612(5)
C8F C 0.3416(6) 0.3225(5) 0.3756(9)
Zr2B Zr -0.0000 0.57264(2) 0.11738(4)
O1B O -0.0495(2) 0.5000 0.1185(6)
O3B O -0.0497(3) 0.5734(3) 0.0000
O4B O -0.0000 0.6626(2) 0.1099(5)
O5B O -0.0000 0.5697(3) 0.2619(5)
F1L F -0.3444(6) 0.2940(6) 0.0803(9)
F2L F -0.3298(5) 0.3810(6) 0.0576(9)
F3L F -0.3670(5) 0.3513(7) 0.1848(9)
O2L O -0.14785(14) 0.44465(14) 0.0878(3)
O6L O -0.08362(17) 0.39754(18) 0.1646(4)
C1L C -0.2542(4) 0.2963(4) 0.2329(9)
C2L C -0.2669(3) 0.3342(4) 0.1691(7)
C3L C -0.2276(3) 0.3714(3) 0.1390(7)
H1L H -0.2366 0.3975 0.0945
C4L C -0.1758(3) 0.3698(3) 0.1741(6)
C5L C -0.1627(3) 0.3344(4) 0.2413(9)
H2L H -0.1272 0.3357 0.2678
C6L C -0.2015(4) 0.2965(4) 0.2710(8)
H3L H -0.1924 0.2711 0.3166
C7L C -0.1326(2) 0.4074(3) 0.1388(5)
C8L C -0.3225(5) 0.3416(6) 0.1244(9)
F1K F -0.2940(6) 0.3444(6) 0.4197(9)
F2K F -0.3810(6) 0.3298(5) 0.4424(9)
F3K F -0.3513(7) 0.3670(5) 0.3152(9)
O2K O -0.44465(14) 0.14785(14) 0.4122(3)
O6K O -0.39754(18) 0.08362(17) 0.3354(4)
C1K C -0.2963(4) 0.2542(4) 0.2671(9)
C2K C -0.3342(4) 0.2669(3) 0.3309(7)
C3K C -0.3714(3) 0.2276(3) 0.3610(7)
H1K H -0.3975 0.2366 0.4055
C4K C -0.3698(3) 0.1758(3) 0.3259(6)
C5K C -0.3344(4) 0.1627(3) 0.2587(9)
H2K H -0.3357 0.1272 0.2322
C6K C -0.2965(4) 0.2015(4) 0.2290(8)
H3K H -0.2711 0.1924 0.1834
C7K C -0.4074(3) 0.1326(2) 0.3612(5)
C8K C -0.3416(6) 0.3225(5) 0.3756(9)
Zr1A Zr -0.5000 0.10068(3) 0.5000
Zr1A_2 Zr 0.5000 0.10068(3) 0.5000
Zr1B Zr -0.10068(3) 0.5000 0.0000
Zr2D Zr -0.0000 0.57264(2) -0.11738(4)
Zr2E Zr 0.0000 0.42736(2) -0.11738(4)
Zr2F Zr 0.42736(2) 0.0000 0.38262(4)
Zr2G Zr -0.42736(2) 0.0000 0.38262(4)
O1D O 0.0495(2) 0.5000 -0.1185(6)
O2D O 0.14785(14) 0.55535(14) -0.0878(3)
O2J O 0.14785(14) 0.44465(14) -0.0878(3)
O2M O 0.14785(14) 0.55535(14) 0.0878(3)
O3D O 0.0497(3) 0.5734(3) 0.0000
O3E O -0.0497(3) 0.4266(3) 0.0000
O6B O -0.08362(17) 0.60246(18) 0.1646(4)
O6M O 0.08362(17) 0.60246(18) 0.1646(4)
loop_
_geom_bond_atom_site_label_1
_geom_bond_atom_site_label_2
_geom_bond_site_symmetry_1
_geom_bond_site_symmetry_2
Zr1 O1 1_555 1_555
Zr2 O1 1_555 1_555
F1 C8 1_555 1_555
F2 C8 1_555 1_555
F3 C8 1_555 1_555
O1 Zr2B 1_555 1_555
O2 Zr1 1_555 1_555
O3 Zr1 1_555 1_555
O4 Zr2 1_555 1_555
O5 Zr2 1_555 1_555
O6 Zr2 1_555 1_555
C1 C2 1_555 1_555
C2 C3 1_555 1_555
C3 H1 1_555 1_555
C4 C3 1_555 1_555
C5 C4 1_555 1_555
H2 C5 1_555 1_555
C6 C1 1_555 1_555
H3 C6 1_555 1_555
C7 O2 1_555 1_555
C8 C2 1_555 1_555
F1F C8F 1_555 1_555
F2F C8F 1_555 1_555
F3F C8F 1_555 1_555
O2F C7F 1_555 1_555
O6F C7F 1_555 1_555
C1F C1 1_555 1_555
C2F C1F 1_555 1_555
C3F C2F 1_555 1_555
H1F C3F 1_555 1_555
C4F C3F 1_555 1_555
C5F C4F 1_555 1_555
H2F C5F 1_555 1_555
C6F C1F 1_555 1_555
H3F C6F 1_555 1_555
C7F C4F 1_555 1_555
C8F C2F 1_555 1_555
Zr2B O1B 1_555 1_555
O1B Zr2 1_555 1_555
O3B Zr2B 1_555 1_555
O4B Zr2B 1_555 1_555
O5B Zr2B 1_555 1_555
F1L C8L 1_555 1_555
F2L C8L 1_555 1_555
F3L C8L 1_555 1_555
O2L C7L 1_555 1_555
O6L Zr2 1_555 1_555
C1L C2L 1_555 1_555
C2L C3L 1_555 1_555
C3L H1L 1_555 1_555
C4L C3L 1_555 1_555
C5L C4L 1_555 1_555
H2L C5L 1_555 1_555
C6L C1L 1_555 1_555
H3L C6L 1_555 1_555
C7L O6L 1_555 1_555
C8L C2L 1_555 1_555
F1K C8K 1_555 1_555
F2K C8K 1_555 1_555
F3K C8K 1_555 1_555
O2K C7K 1_555 1_555
O6K C7K 1_555 1_555
C1K C1L 1_555 1_555
C2K C1K 1_555 1_555
C3K C2K 1_555 1_555
H1K C3K 1_555 1_555
C4K C3K 1_555 1_555
C5K C4K 1_555 1_555
H2K C5K 1_555 1_555
C6K C1K 1_555 1_555
H3K C6K 1_555 1_555
C7K C4K 1_555 1_555
C8K C2K 1_555 1_555
Zr1A O2K 1_555 1_555
Zr1A_2 O2F 1_555 1_555
Zr1B O1B 1_555 1_555
Zr2D O3B 1_555 1_555
Zr2E O3 1_555 1_555
Zr2F O6F 1_555 1_555
Zr2G O6K 1_555 1_555
O1D Zr1 1_555 1_555
O2D Zr1 1_555 1_555
O2J Zr1 1_555 1_555
O2M Zr1 1_555 1_555
O3D Zr1 1_555 1_555
O3E Zr2 1_555 1_555
O6B Zr2B 1_555 1_555
O6M Zr2B 1_555 1_555
Zr2 O3 1_555 1_555
O6 C7 1_555 1_555
C4 C7 1_555 1_555
C5 C6 1_555 1_555
C5F C6F 1_555 1_555
Zr2B O3D 1_555 1_555
O3B Zr1B 1_555 1_555
O2L Zr1B 1_555 1_555
C4L C7L 1_555 1_555
C5L C6L 1_555 1_555
C5K C6K 1_555 1_555
Zr1B O3E 1_555 1_555
Zr2D O1D 1_555 1_555
Zr2D O3D 1_555 1_555
Zr2E O1D 1_555 1_555
Zr2E O3E 1_555 1_555

#END
