
#######################################################################
#
#                 Cambridge Crystallographic Data Centre
#                                CCDC 
#
#######################################################################
#
# If this CIF has been generated from an entry in the Cambridge 
# Structural Database, then it will include bibliographic, chemical, 
# crystal, experimental, refinement or atomic coordinate data resulting 
# from the CCDC's data processing and validation procedures.
#
#######################################################################

data_OQUFIR
_chemical_formula_moiety         'C84 H32 F24 O50 S4 Zr16'
_symmetry_cell_setting           tetragonal
_symmetry_space_group_name_H-M   'P 42/m m c'
_symmetry_Int_Tables_number      131
_space_group_name_Hall           '-P 4c 2'
loop_
_symmetry_equiv_pos_site_id
_symmetry_equiv_pos_as_xyz
1 x,y,z
2 -y,x,1/2+z
3 -x,-y,z
4 y,-x,1/2+z
5 x,-y,-z
6 -x,y,-z
7 y,x,1/2-z
8 -y,-x,1/2-z
9 -x,-y,-z
10 y,-x,1/2-z
11 x,y,-z
12 -y,x,1/2-z
13 -x,y,z
14 x,-y,z
15 -y,-x,1/2+z
16 y,x,1/2+z
_cell_length_a                   24.4200(2)
_cell_length_b                   24.4200(2)
_cell_length_c                   14.7231(3)
_cell_angle_alpha                90
_cell_angle_beta                 90
_cell_angle_gamma                90
_cell_volume                     8779.92
loop_
_atom_site_label
_atom_site_type_symbol
_atom_site_fract_x
_atom_site_fract_y
_atom_site_fract_z
Zr1 Zr 0.5000 0.10036(3) 0.0000
Zr2 Zr 0.42779(3) 0.0000 0.12003(5)
F1 F 0.3760(7) 0.3258(6) 0.0542(10)
F2 F 0.3466(7) 0.3651(5) 0.1731(11)
F3 F 0.2912(7) 0.3379(7) 0.0717(11)
O1 O 0.44546(18) 0.14745(17) 0.0906(3)
O2 O 0.3976(2) 0.0834(2) 0.1660(5)
O3 O 0.5000 0.0492(3) 0.1201(7)
O4 O 0.4274(4) 0.0489(3) 0.0000
O5 O 0.3380(3) -0.0000 0.1085(7)
C1 C 0.4078(3) 0.1316(3) 0.1408(6)
C2 C 0.3697(4) 0.1750(3) 0.1768(7)
C3 C 0.3715(4) 0.2263(3) 0.1412(8)
H1 H 0.3990 0.2356 0.0983
C4 C 0.3326(5) 0.2654(4) 0.1681(10)
C5 C 0.2954(5) 0.2535(4) 0.2348(9)
C6 C 0.2969(5) 0.2016(5) 0.2756(9)
H2 H 0.2729 0.1933 0.3246
C7 C 0.3337(5) 0.1619(4) 0.2443(9)
H3 H 0.3336 0.1261 0.2697
C8 C 0.3355(6) 0.3198(6) 0.1202(10)
C9 C 0.4254(5) 0.0000 0.4518(2)
O6 O 0.4277(5) 0.0000 0.2696(7)
S1 S 0.4693(6) -0.0856(5) 0.5000
O7 O 0.4740(7) -0.0927(6) 0.3041(6)
C10 C 0.4486(4) -0.0445(3) 0.4156(3)
C11 C 0.4503(4) -0.0465(4) 0.3130(4)
H4 H 0.4103(7) 0.0295(3) 0.4179(4)
F1F F 0.3258(6) 0.3760(7) 0.4458(10)
F2F F 0.3651(5) 0.3466(7) 0.3269(11)
F3F F 0.3379(7) 0.2912(7) 0.4283(11)
O1F O 0.14745(17) 0.44546(18) 0.4094(3)
O2F O 0.0834(2) 0.3976(2) 0.3340(5)
C1F C 0.1316(3) 0.4078(3) 0.3592(6)
C2F C 0.1750(3) 0.3697(4) 0.3232(7)
C3F C 0.2263(3) 0.3715(4) 0.3588(8)
H1F H 0.2356 0.3990 0.4017
C4F C 0.2654(4) 0.3326(5) 0.3319(10)
C5F C 0.2535(4) 0.2954(5) 0.2652(9)
C6F C 0.2016(5) 0.2969(5) 0.2244(9)
H2F H 0.1933 0.2729 0.1754
C7F C 0.1619(4) 0.3337(5) 0.2557(9)
H3F H 0.1261 0.3336 0.2303
C8F C 0.3198(6) 0.3355(6) 0.3798(10)
C9D C 0.4254(5) 0.0000 0.5482(2)
O6D O 0.4277(5) 0.0000 0.7304(7)
S1D S 0.4693(6) 0.0856(5) 0.5000
O7D O 0.4740(7) 0.0927(6) 0.6959(6)
C10D C 0.4486(4) 0.0445(3) 0.5844(3)
C11D C 0.4503(4) 0.0465(4) 0.6870(4)
H4D H 0.4103(7) -0.0295(3) 0.5821(4)
C9E C 0.5746(5) 0.0000 0.5482(2)
O6E O 0.5723(5) 0.0000 0.7304(7)
S1E S 0.5307(6) -0.0856(5) 0.5000
O7E O 0.5260(7) -0.0927(6) 0.6959(6)
C10E C 0.5514(4) -0.0445(3) 0.5844(3)
C11E C 0.5497(4) -0.0465(4) 0.6870(4)
H4E H 0.5897(7) 0.0295(3) 0.5821(4)
S1B S 0.5307(6) 0.0856(5) 0.5000
O7H O 0.5260(7) 0.0927(6) 0.6959(6)
C10H C 0.5514(4) 0.0445(3) 0.5844(3)
C11H C 0.5497(4) 0.0465(4) 0.6870(4)
H4H H 0.5897(7) -0.0295(3) 0.5821(4)
O7J O 0.4740(7) -0.0927(6) 0.6959(6)
C10J C 0.4486(4) -0.0445(3) 0.5844(3)
C11J C 0.4503(4) -0.0465(4) 0.6870(4)
H4J H 0.4103(7) 0.0295(3) 0.5821(4)
C9B C 0.5746(5) 0.0000 0.4518(2)
O6B O 0.5723(5) 0.0000 0.2696(7)
O7L O 0.5260(7) -0.0927(6) 0.3041(6)
C10L C 0.5514(4) -0.0445(3) 0.4156(3)
C11L C 0.5497(4) -0.0465(4) 0.3130(4)
H4L H 0.5897(7) 0.0295(3) 0.4179(4)
O7M O 0.4740(7) 0.0927(6) 0.3041(6)
C10M C 0.4486(4) 0.0445(3) 0.4156(3)
C11M C 0.4503(4) 0.0465(4) 0.3130(4)
H4M H 0.4103(7) -0.0295(3) 0.4179(4)
O7B O 0.5260(7) 0.0927(6) 0.3041(6)
C10B C 0.5514(4) 0.0445(3) 0.4156(3)
C11B C 0.5497(4) 0.0465(4) 0.3130(4)
H4B H 0.5897(7) -0.0295(3) 0.4179(4)
Zr1B Zr 0.5000 -0.10036(3) 0.0000
Zr2B Zr 0.57221(3) 0.0000 0.12003(5)
F1B F 0.6240(7) -0.3258(6) 0.0542(10)
F2B F 0.6534(7) -0.3651(5) 0.1731(11)
F3B F 0.7088(7) -0.3379(7) 0.0717(11)
O1B O 0.55454(18) -0.14745(17) 0.0906(3)
O2B O 0.6024(2) -0.0834(2) 0.1660(5)
O3B O 0.5000 -0.0492(3) 0.1201(7)
O4B O 0.5726(4) -0.0489(3) 0.0000
O5B O 0.6620(3) -0.0000 0.1085(7)
C1B C 0.5922(3) -0.1316(3) 0.1408(6)
C2B C 0.6303(4) -0.1750(3) 0.1768(7)
C3B C 0.6285(4) -0.2263(3) 0.1412(8)
H1B H 0.6010 -0.2356 0.0983
C4B C 0.6674(5) -0.2654(4) 0.1681(10)
C5B C 0.7046(5) -0.2535(4) 0.2348(9)
C6B C 0.7031(5) -0.2016(5) 0.2756(9)
H2B H 0.7271 -0.1933 0.3246
C7B C 0.6663(5) -0.1619(4) 0.2443(9)
H3B H 0.6664 -0.1261 0.2697
C8B C 0.6645(6) -0.3198(6) 0.1202(10)
F1G F 0.6742(6) -0.3760(7) 0.4458(10)
F2G F 0.6349(5) -0.3466(7) 0.3269(11)
F3G F 0.6621(7) -0.2912(7) 0.4283(11)
O1G O 0.85255(17) -0.44546(18) 0.4094(3)
O2G O 0.9166(2) -0.3976(2) 0.3340(5)
C1G C 0.8684(3) -0.4078(3) 0.3592(6)
C2G C 0.8250(3) -0.3697(4) 0.3232(7)
C3G C 0.7737(3) -0.3715(4) 0.3588(8)
H1G H 0.7644 -0.3990 0.4017
C4G C 0.7346(4) -0.3326(5) 0.3319(10)
C5G C 0.7465(4) -0.2954(5) 0.2652(9)
C6G C 0.7984(5) -0.2969(5) 0.2244(9)
H2G H 0.8067 -0.2729 0.1754
C7G C 0.8381(4) -0.3337(5) 0.2557(9)
H3G H 0.8739 -0.3336 0.2303
C8G C 0.6802(6) -0.3355(6) 0.3798(10)
Zr2D Zr 0.42779(3) -0.0000 -0.12003(5)
O3D O 0.5000 -0.0492(3) -0.1201(7)
O4D O 0.4274(4) -0.0489(3) 0.0000
O5D O 0.3380(3) 0.0000 -0.1085(7)
Zr2E Zr 0.57221(3) -0.0000 -0.12003(5)
O3E O 0.5000 0.0492(3) -0.1201(7)
O4E O 0.5726(4) 0.0489(3) 0.0000
O5E O 0.6620(3) 0.0000 -0.1085(7)
F1L F 0.6240(7) 0.3258(6) 0.0542(10)
F2L F 0.6534(7) 0.3651(5) 0.1731(11)
F3L F 0.7088(7) 0.3379(7) 0.0717(11)
O1L O 0.55454(18) 0.14745(17) 0.0906(3)
O2L O 0.6024(2) 0.0834(2) 0.1660(5)
C1L C 0.5922(3) 0.1316(3) 0.1408(6)
C2L C 0.6303(4) 0.1750(3) 0.1768(7)
C3L C 0.6285(4) 0.2263(3) 0.1412(8)
H1L H 0.6010 0.2356 0.0983
C4L C 0.6674(5) 0.2654(4) 0.1681(10)
C5L C 0.7046(5) 0.2535(4) 0.2348(9)
C6L C 0.7031(5) 0.2016(5) 0.2756(9)
H2L H 0.7271 0.1933 0.3246
C7L C 0.6663(5) 0.1619(4) 0.2443(9)
H3L H 0.6664 0.1261 0.2697
C8L C 0.6645(6) 0.3198(6) 0.1202(10)
F1K F 0.6742(6) 0.3760(7) 0.4458(10)
F2K F 0.6349(5) 0.3466(7) 0.3269(11)
F3K F 0.6621(7) 0.2912(7) 0.4283(11)
O1K O 0.85255(17) 0.44546(18) 0.4094(3)
O2K O 0.9166(2) 0.3976(2) 0.3340(5)
C1K C 0.8684(3) 0.4078(3) 0.3592(6)
C2K C 0.8250(3) 0.3697(4) 0.3232(7)
C3K C 0.7737(3) 0.3715(4) 0.3588(8)
H1K H 0.7644 0.3990 0.4017
C4K C 0.7346(4) 0.3326(5) 0.3319(10)
C5K C 0.7465(4) 0.2954(5) 0.2652(9)
C6K C 0.7984(5) 0.2969(5) 0.2244(9)
H2K H 0.8067 0.2729 0.1754
C7K C 0.8381(4) 0.3337(5) 0.2557(9)
H3K H 0.8739 0.3336 0.2303
C8K C 0.6802(6) 0.3355(6) 0.3798(10)
F1M F 0.3760(7) -0.3258(6) 0.0542(10)
F2M F 0.3466(7) -0.3651(5) 0.1731(11)
F3M F 0.2912(7) -0.3379(7) 0.0717(11)
O1M O 0.44546(18) -0.14745(17) 0.0906(3)
O2M O 0.3976(2) -0.0834(2) 0.1660(5)
C1M C 0.4078(3) -0.1316(3) 0.1408(6)
C2M C 0.3697(4) -0.1750(3) 0.1768(7)
C3M C 0.3715(4) -0.2263(3) 0.1412(8)
H1M H 0.3990 -0.2356 0.0983
C4M C 0.3326(5) -0.2654(4) 0.1681(10)
C5M C 0.2954(5) -0.2535(4) 0.2348(9)
C6M C 0.2969(5) -0.2016(5) 0.2756(9)
H2M H 0.2729 -0.1933 0.3246
C7M C 0.3337(5) -0.1619(4) 0.2443(9)
H3M H 0.3336 -0.1261 0.2697
C8M C 0.3355(6) -0.3198(6) 0.1202(10)
F1I F 0.3258(6) -0.3760(7) 0.4458(10)
F2I F 0.3651(5) -0.3466(7) 0.3269(11)
F3I F 0.3379(7) -0.2912(7) 0.4283(11)
O1I O 0.14745(17) -0.44546(18) 0.4094(3)
O2I O 0.0834(2) -0.3976(2) 0.3340(5)
C1I C 0.1316(3) -0.4078(3) 0.3592(6)
C2I C 0.1750(3) -0.3697(4) 0.3232(7)
C3I C 0.2263(3) -0.3715(4) 0.3588(8)
H1I H 0.2356 -0.3990 0.4017
C4I C 0.2654(4) -0.3326(5) 0.3319(10)
C5I C 0.2535(4) -0.2954(5) 0.2652(9)
C6I C 0.2016(5) -0.2969(5) 0.2244(9)
H2I H 0.1933 -0.2729 0.1754
C7I C 0.1619(4) -0.3337(5) 0.2557(9)
H3I H 0.1261 -0.3336 0.2303
C8I C 0.3198(6) -0.3355(6) 0.3798(10)
Zr1A Zr 0.89964(3) -0.5000 0.5000
Zr1A_2 Zr 0.89964(3) 0.5000 0.5000
Zr1C Zr 0.10036(3) -0.5000 0.5000
Zr1C_2 Zr 0.10036(3) 0.5000 0.5000
Zr2D_2 Zr 0.42779(3) 0.0000 0.87997(5)
Zr2E_2 Zr 0.57221(3) 0.0000 0.87997(5)
Zr2F Zr 0.0000 0.42779(3) 0.37997(5)
Zr2F_2 Zr 1.0000 0.42779(3) 0.37997(5)
Zr2G Zr 0.0000 -0.42779(3) 0.37997(5)
Zr2G_2 Zr 1.0000 -0.42779(3) 0.37997(5)
O1D O 0.44546(18) -0.14745(17) -0.0906(3)
O1E O 0.55454(18) 0.14745(17) -0.0906(3)
O1H O 0.55454(18) -0.14745(17) -0.0906(3)
O1J O 0.44546(18) 0.14745(17) -0.0906(3)
O2D O 0.3976(2) -0.0834(2) -0.1660(5)
O2E O 0.6024(2) 0.0834(2) -0.1660(5)
O2H O 0.6024(2) -0.0834(2) -0.1660(5)
O2J O 0.3976(2) 0.0834(2) -0.1660(5)
O6D_2 O 0.4277(5) 0.0000 -0.2696(7)
O6E_2 O 0.5723(5) 0.0000 -0.2696(7)
loop_
_geom_bond_atom_site_label_1
_geom_bond_atom_site_label_2
_geom_bond_site_symmetry_1
_geom_bond_site_symmetry_2
Zr1 O1 1_555 1_555
Zr2 O2 1_555 1_555
F1 C8 1_555 1_555
F2 C8 1_555 1_555
F3 C8 1_555 1_555
O1 C1 1_555 1_555
O2 C1 1_555 1_555
O3 Zr1 1_555 1_555
O4 Zr1 1_555 1_555
O5 Zr2 1_555 1_555
C1 C2 1_555 1_555
C2 C3 1_555 1_555
C3 H1 1_555 1_555
C4 C3 1_555 1_555
C5 C4 1_555 1_555
C6 C5 1_555 1_555
H2 C6 1_555 1_555
C7 C2 1_555 1_555
H3 C7 1_555 1_555
C8 C4 1_555 1_555
C9 C10 1_555 1_555
O6 Zr2 1_555 1_555
S1 C10 1_555 1_555
O7 C11 1_555 1_555
C10 C11 1_555 1_555
C11 O6 1_555 1_555
H4 C9 1_555 1_555
F1F C8F 1_555 1_555
F2F C8F 1_555 1_555
F3F C8F 1_555 1_555
O1F C1F 1_555 1_555
O2F C1F 1_555 1_555
C1F C2F 1_555 1_555
C2F C3F 1_555 1_555
C3F H1F 1_555 1_555
C4F C3F 1_555 1_555
C5F C5 1_555 1_555
C6F C5F 1_555 1_555
H2F C6F 1_555 1_555
C7F C2F 1_555 1_555
H3F C7F 1_555 1_555
C8F C4F 1_555 1_555
C9D C9 1_555 1_555
O6D C11D 1_555 1_555
S1D C10D 1_555 1_555
O7D C11D 1_555 1_555
C10D C9D 1_555 1_555
C11D C10D 1_555 1_555
H4D C9D 1_555 1_555
C9E C10E 1_555 1_555
O6E C11E 1_555 1_555
S1E S1 1_555 1_555
O7E C11E 1_555 1_555
C10E S1E 1_555 1_555
C11E C10E 1_555 1_555
H4E C9E 1_555 1_555
S1B S1D 1_555 1_555
O7H O7D 1_555 1_555
C10H C9E 1_555 1_555
C11H O6E 1_555 1_555
H4H C9E 1_555 1_555
O7J O7E 1_555 1_555
C10J S1 1_555 1_555
C11J O6D 1_555 1_555
H4J C9D 1_555 1_555
C9B C9E 1_555 1_555
O6B C11L 1_555 1_555
O7L O7 1_555 1_555
C10L S1E 1_555 1_555
C11L O7L 1_555 1_555
H4L C9B 1_555 1_555
O7M C11M 1_555 1_555
C10M C9 1_555 1_555
C11M O6 1_555 1_555
H4M C9 1_555 1_555
O7B O7M 1_555 1_555
C10B S1B 1_555 1_555
C11B O6B 1_555 1_555
H4B C9B 1_555 1_555
Zr1B O1B 1_555 1_555
Zr2B O3 1_555 1_555
F1B C8B 1_555 1_555
F2B C8B 1_555 1_555
F3B C8B 1_555 1_555
O1B C1B 1_555 1_555
O2B Zr2B 1_555 1_555
O3B Zr2 1_555 1_555
O4B Zr1B 1_555 1_555
O5B Zr2B 1_555 1_555
C1B O2B 1_555 1_555
C2B C1B 1_555 1_555
C3B C2B 1_555 1_555
H1B C3B 1_555 1_555
C4B C3B 1_555 1_555
C5B C4B 1_555 1_555
C6B C5B 1_555 1_555
H2B C6B 1_555 1_555
C7B C2B 1_555 1_555
H3B C7B 1_555 1_555
C8B C4B 1_555 1_555
F1G C8G 1_555 1_555
F2G C8G 1_555 1_555
F3G C8G 1_555 1_555
O1G C1G 1_555 1_555
O2G C1G 1_555 1_555
C1G C2G 1_555 1_555
C2G C3G 1_555 1_555
C3G H1G 1_555 1_555
C4G C3G 1_555 1_555
C5G C5B 1_555 1_555
C6G C5G 1_555 1_555
H2G C6G 1_555 1_555
C7G C2G 1_555 1_555
H3G C7G 1_555 1_555
C8G C4G 1_555 1_555
Zr2D O4 1_555 1_555
O3D Zr1B 1_555 1_555
O4D Zr2 1_555 1_555
O5D Zr2D 1_555 1_555
Zr2E O4B 1_555 1_555
O3E Zr1 1_555 1_555
O4E Zr1 1_555 1_555
O5E Zr2E 1_555 1_555
F1L C8L 1_555 1_555
F2L C8L 1_555 1_555
F3L C8L 1_555 1_555
O1L Zr1 1_555 1_555
O2L Zr2B 1_555 1_555
C1L O1L 1_555 1_555
C2L C1L 1_555 1_555
C3L C2L 1_555 1_555
H1L C3L 1_555 1_555
C4L C3L 1_555 1_555
C5L C4L 1_555 1_555
C6L C5L 1_555 1_555
H2L C6L 1_555 1_555
C7L C2L 1_555 1_555
H3L C7L 1_555 1_555
C8L C4L 1_555 1_555
F1K C8K 1_555 1_555
F2K C8K 1_555 1_555
F3K C8K 1_555 1_555
O1K C1K 1_555 1_555
O2K C1K 1_555 1_555
C1K C2K 1_555 1_555
C2K C3K 1_555 1_555
C3K H1K 1_555 1_555
C4K C3K 1_555 1_555
C5K C5L 1_555 1_555
C6K C5K 1_555 1_555
H2K C6K 1_555 1_555
C7K C2K 1_555 1_555
H3K C7K 1_555 1_555
C8K C4K 1_555 1_555
F1M C8M 1_555 1_555
F2M C8M 1_555 1_555
F3M C8M 1_555 1_555
O1M Zr1B 1_555 1_555
O2M Zr2 1_555 1_555
C1M O1M 1_555 1_555
C2M C1M 1_555 1_555
C3M C2M 1_555 1_555
H1M C3M 1_555 1_555
C4M C3M 1_555 1_555
C5M C4M 1_555 1_555
C6M C5M 1_555 1_555
H2M C6M 1_555 1_555
C7M C2M 1_555 1_555
H3M C7M 1_555 1_555
C8M C4M 1_555 1_555
F1I C8I 1_555 1_555
F2I C8I 1_555 1_555
F3I C8I 1_555 1_555
O1I C1I 1_555 1_555
O2I C1I 1_555 1_555
C1I C2I 1_555 1_555
C2I C3I 1_555 1_555
C3I H1I 1_555 1_555
C4I C3I 1_555 1_555
C5I C5M 1_555 1_555
C6I C5I 1_555 1_555
H2I C6I 1_555 1_555
C7I C2I 1_555 1_555
H3I C7I 1_555 1_555
C8I C4I 1_555 1_555
Zr1A O1G 1_555 1_555
Zr1A_2 O1K 1_555 1_555
Zr1C O1I 1_555 1_555
Zr1C_2 O1F 1_555 1_555
Zr2D_2 O6D 1_555 1_555
Zr2E_2 O6E 1_555 1_555
Zr2F O2F 1_555 1_555
Zr2F_2 O2K 1_555 1_555
Zr2G O2I 1_555 1_555
Zr2G_2 O2G 1_555 1_555
O1D Zr1B 1_555 1_555
O1E Zr1 1_555 1_555
O1H Zr1B 1_555 1_555
O1J Zr1 1_555 1_555
O2D Zr2D 1_555 1_555
O2E Zr2E 1_555 1_555
O2H Zr2E 1_555 1_555
O2J Zr2D 1_555 1_555
O6D_2 Zr2D 1_555 1_555
O6E_2 Zr2E 1_555 1_555
Zr2 O3 1_555 1_555
Zr2 O4 1_555 1_555
C6 C7 1_555 1_555
C10 H4M 1_555 1_555
H4 C10M 1_555 1_555
C4F C5F 1_555 1_555
C6F C7F 1_555 1_555
C9D C10J 1_555 1_555
S1D C10M 1_555 1_555
C10D H4J 1_555 1_555
H4D C10J 1_555 1_555
C10E H4H 1_555 1_555
H4E C10H 1_555 1_555
S1B C10H 1_555 1_555
O7H C11H 1_555 1_555
C10H C11H 1_555 1_555
O7J C11J 1_555 1_555
C10J C11J 1_555 1_555
C9B C10L 1_555 1_555
C9B C10B 1_555 1_555
O6B Zr2B 1_555 1_555
C10L C11L 1_555 1_555
C10L H4B 1_555 1_555
H4L C10B 1_555 1_555
C10M C11M 1_555 1_555
O7B C11B 1_555 1_555
C10B C11B 1_555 1_555
Zr1B O3B 1_555 1_555
Zr1B O4D 1_555 1_555
Zr2B O3B 1_555 1_555
Zr2B O4B 1_555 1_555
Zr2B O4E 1_555 1_555
C6B C7B 1_555 1_555
C4G C5G 1_555 1_555
C6G C7G 1_555 1_555
Zr2D O3D 1_555 1_555
Zr2D O4D 1_555 1_555
Zr2D O3E 1_555 1_555
O3D Zr2E 1_555 1_555
Zr2E O3E 1_555 1_555
Zr2E O4E 1_555 1_555
O2L C1L 1_555 1_555
C6L C7L 1_555 1_555
C4K C5K 1_555 1_555
C6K C7K 1_555 1_555
O2M C1M 1_555 1_555
C6M C7M 1_555 1_555
C4I C5I 1_555 1_555
C6I C7I 1_555 1_555

#END
