
#######################################################################
#
#                 Cambridge Crystallographic Data Centre
#                                CCDC 
#
#######################################################################
#
# If this CIF has been generated from an entry in the Cambridge 
# Structural Database, then it will include bibliographic, chemical, 
# crystal, experimental, refinement or atomic coordinate data resulting 
# from the CCDC's data processing and validation procedures.
#
#######################################################################

data_OQUFAJ02
_chemical_formula_moiety         '(C32 H20 F12 O16 Zr3)n'
_symmetry_cell_setting           tetragonal
_symmetry_space_group_name_H-M   'P 42/n c m'
_symmetry_Int_Tables_number      138
_space_group_name_Hall           '-P 4ac 2ac'
loop_
_symmetry_equiv_pos_site_id
_symmetry_equiv_pos_as_xyz
1 x,y,z
2 1/2-y,x,1/2+z
3 1/2-x,1/2-y,z
4 y,1/2-x,1/2+z
5 1/2+x,-y,1/2-z
6 -x,1/2+y,1/2-z
7 1/2+y,1/2+x,-z
8 -y,-x,-z
9 -x,-y,-z
10 1/2+y,-x,1/2-z
11 1/2+x,1/2+y,-z
12 -y,1/2+x,1/2-z
13 1/2-x,y,1/2+z
14 x,1/2-y,1/2+z
15 1/2-y,1/2-x,z
16 y,x,z
_cell_length_a                   34.9195(3)
_cell_length_b                   34.9195(3)
_cell_length_c                   12.05920(10)
_cell_angle_alpha                90
_cell_angle_beta                 90
_cell_angle_gamma                90
_cell_volume                     14704.6
loop_
_atom_site_label
_atom_site_type_symbol
_atom_site_fract_x
_atom_site_fract_y
_atom_site_fract_z
_atom_site_U_iso_or_equiv
_atom_site_thermal_displace_type
Zr1 Zr 0.04973(2) 0.54973(2) 0.5000 0.0247 Uani
Zr2 Zr 0.04510(2) 0.45490(2) 0.40498(8) 0.0278 Uani
Zr3 Zr 0.02315(2) 0.47685(2) 0.68417(8) 0.0279 Uani
F1 F 0.1670(3) 0.4803(4) 1.0534(8) 0.1370 Uani
F2 F 0.2104(3) 0.4518(3) 0.9638(9) 0.1370 Uani
F3 F 0.2234(3) 0.5027(3) 1.0477(8) 0.1370 Uani
F4 F 0.22857(19) 0.5867(3) 0.9667(9) 0.1080 Uani
F5 F 0.2520(3) 0.6097(3) 0.8215(11) 0.1417 Uani
F6 F 0.2839(2) 0.6112(3) 0.9694(10) 0.1177 Uani
O1 O 0.09056(15) 0.55377(16) 0.6387(5) 0.0367 Uani
O2 O 0.07422(17) 0.5072(2) 0.7605(5) 0.0447 Uani
O3 O 0.39438(15) 0.53976(16) 0.9276(5) 0.0370 Uani
O4 O 0.39471(16) 0.4785(2) 0.8696(7) 0.0540 Uani
O5 O -0.01047(18) 0.5585(3) 0.4562(6) 0.0773 Uani
O6 O 0.03463(19) 0.51349(16) 0.3590(7) 0.0623 Uani
O7 O 0.05695(18) 0.44305(18) 0.2323(7) 0.0403 Uani
O8 O 0.08669(18) 0.41331(18) 0.4671(10) 0.0653 Uani
O9 O 0.06708(16) 0.43292(16) 0.7211(9) 0.0517 Uani
O10 O 0.00852(18) 0.49148(18) 0.8548(7) 0.0370 Uani
C1 C 0.0978(2) 0.5316(3) 0.7161(8) 0.0397 Uani
C2 C 0.1388(2) 0.5300(3) 0.7563(7) 0.0363 Uani
C3 C 0.1488(2) 0.5115(4) 0.8520(9) 0.0580 Uani
H1 H 0.1292 0.5007 0.8969 0.0700 Uiso
C4 C 0.1870(3) 0.5080(3) 0.8857(9) 0.0567 Uani
C5 C 0.2150(3) 0.5237(3) 0.8187(8) 0.0567 Uani
C6 C 0.2044(3) 0.5423(4) 0.7223(9) 0.0567 Uani
H2 H 0.2236 0.5534 0.6765 0.0680 Uiso
C7 C 0.1665(3) 0.5448(4) 0.6918(9) 0.0593 Uani
H3 H 0.1598 0.5572 0.6243 0.0710 Uiso
C8 C 0.1963(3) 0.4875(4) 0.9853(11) 0.0840 Uani
C9 C 0.2567(3) 0.5202(3) 0.8405(8) 0.0503 Uani
C10 C 0.2786(3) 0.5508(3) 0.8795(8) 0.0463 Uani
C11 C 0.3177(3) 0.5456(3) 0.8921(9) 0.0513 Uani
H4 H 0.3323 0.5667 0.9182 0.0620 Uiso
C12 C 0.3367(3) 0.5130(3) 0.8704(8) 0.0397 Uani
C13 C 0.3161(3) 0.4819(3) 0.8318(11) 0.0610 Uani
H5 H 0.3286 0.4583 0.8175 0.0730 Uiso
C14 C 0.2761(3) 0.4857(3) 0.8136(10) 0.0607 Uani
H6 H 0.2622 0.4648 0.7830 0.0730 Uiso
C15 C 0.2616(3) 0.5871(4) 0.9089(11) 0.0937 Uani
C16 C 0.3780(3) 0.5098(3) 0.8890(8) 0.0440 Uani
F1F F -0.0197(4) 0.6670(3) -0.0534(8) 0.1370 Uani
F2F F -0.0482(3) 0.7104(3) 0.0362(9) 0.1370 Uani
F3F F 0.0027(3) 0.7234(3) -0.0477(8) 0.1370 Uani
F4F F 0.0867(3) 0.72857(19) 0.0333(9) 0.1080 Uani
F5F F 0.1097(3) 0.7520(3) 0.1785(11) 0.1417 Uani
F6F F 0.1112(3) 0.7839(2) 0.0306(10) 0.1177 Uani
O1F O 0.05377(16) 0.59056(15) 0.3613(5) 0.0367 Uani
O2F O 0.0072(2) 0.57422(17) 0.2395(5) 0.0447 Uani
O3F O 0.03976(16) 0.89438(15) 0.0724(5) 0.0370 Uani
O4F O -0.0215(2) 0.89471(16) 0.1304(7) 0.0540 Uani
O5F O 0.0585(3) 0.48953(18) 0.5438(6) 0.0773 Uani
O6F O 0.01349(16) 0.53463(19) 0.6410(7) 0.0623 Uani
C1F C 0.0316(3) 0.5978(2) 0.2839(8) 0.0397 Uani
C2F C 0.0300(3) 0.6388(2) 0.2437(7) 0.0363 Uani
C3F C 0.0115(4) 0.6488(2) 0.1480(9) 0.0580 Uani
H1F H 0.0007 0.6292 0.1031 0.0700 Uiso
C4F C 0.0080(3) 0.6870(3) 0.1143(9) 0.0567 Uani
C5F C 0.0237(3) 0.7150(3) 0.1813(8) 0.0567 Uani
C6F C 0.0423(4) 0.7044(3) 0.2777(9) 0.0567 Uani
H2F H 0.0534 0.7236 0.3235 0.0680 Uiso
C7F C 0.0448(4) 0.6665(3) 0.3082(9) 0.0593 Uani
H3F H 0.0572 0.6598 0.3757 0.0710 Uiso
C8F C -0.0125(4) 0.6963(3) 0.0147(11) 0.0840 Uani
C9F C 0.0202(3) 0.7567(3) 0.1595(8) 0.0503 Uani
C10F C 0.0508(3) 0.7786(3) 0.1205(8) 0.0463 Uani
C11F C 0.0456(3) 0.8177(3) 0.1079(9) 0.0513 Uani
H4F H 0.0667 0.8323 0.0818 0.0620 Uiso
C12F C 0.0130(3) 0.8367(3) 0.1296(8) 0.0397 Uani
C13F C -0.0181(3) 0.8161(3) 0.1682(11) 0.0610 Uani
H5F H -0.0417 0.8286 0.1825 0.0730 Uiso
C14F C -0.0143(3) 0.7761(3) 0.1864(10) 0.0607 Uani
H6F H -0.0352 0.7622 0.2170 0.0730 Uiso
C15F C 0.0871(4) 0.7616(3) 0.0911(11) 0.0937 Uani
C16F C 0.0098(3) 0.8780(3) 0.1110(8) 0.0440 Uani
Zr1I Zr 0.04973(2) 0.95027(2) 0.0000 0.0247 Uani
Zr1K Zr 0.45027(2) 0.54973(2) 1.0000 0.0247 Uani
Zr2C Zr 0.45490(2) 0.45490(2) 0.90498(8) 0.0278 Uani
Zr2E Zr -0.04510(2) 0.95490(2) 0.09502(8) 0.0278 Uani
Zr2F Zr -0.04510(2) 0.54510(2) 0.59502(8) 0.0278 Uani
Zr3F Zr -0.02315(2) 0.52315(2) 0.31583(8) 0.0279 Uani
O2N O -0.0072(2) 0.42578(17) 0.7605(5) 0.0447 Uani
O3I O 0.03976(16) 0.60562(15) 0.5724(5) 0.0370 Uani
O3L O 0.10562(15) 0.53976(16) 0.4276(5) 0.0370 Uani
O4A O 0.0215(2) 0.39471(16) 0.3696(7) 0.0540 Uani
O4L O 0.10529(16) 0.4785(2) 0.3696(7) 0.0540 Uani
O5H O 0.01047(18) 0.4415(3) 0.5438(6) 0.0773 Uani
O6H O -0.03463(19) 0.48651(16) 0.6410(7) 0.0623 Uani
O6N O -0.01349(16) 0.46537(19) 0.3590(7) 0.0623 Uani
loop_
_atom_site_aniso_label
_atom_site_aniso_U_11
_atom_site_aniso_U_22
_atom_site_aniso_U_33
_atom_site_aniso_U_23
_atom_site_aniso_U_13
_atom_site_aniso_U_12
Zr1 0.0162(3) 0.0162(3) 0.0417(6) 0.0018(3) -0.0018(3) 0.0005(3)
Zr2 0.0213(3) 0.0213(3) 0.0409(6) -0.0015(3) 0.0015(3) 0.0026(3)
Zr3 0.0229(3) 0.0229(3) 0.0380(6) 0.0049(3) -0.0049(3) 0.0004(3)
F1 0.089(4) 0.208(7) 0.114(4) 0.073(4) -0.034(3) -0.024(4)
F2 0.089(4) 0.208(7) 0.114(4) 0.073(4) -0.034(3) -0.024(4)
F3 0.089(4) 0.208(7) 0.114(4) 0.073(4) -0.034(3) -0.024(4)
F4 0.022(4) 0.117(8) 0.185(11) -0.052(8) 0.002(5) 0.012(4)
F5 0.130(10) 0.079(7) 0.216(15) 0.018(8) -0.081(10) 0.038(7)
F6 0.055(5) 0.077(6) 0.221(13) -0.066(7) -0.051(7) 0.023(5)
O1 0.024(3) 0.029(3) 0.057(4) 0.008(3) -0.019(3) -0.006(2)
O2 0.032(3) 0.060(4) 0.042(3) 0.009(3) -0.008(3) -0.005(3)
O3 0.020(3) 0.028(3) 0.063(4) 0.004(3) -0.003(3) -0.001(2)
O4 0.017(3) 0.057(4) 0.088(5) -0.030(4) -0.007(3) 0.003(3)
O5 0.019(3) 0.165(9) 0.048(4) -0.037(5) 0.000(3) -0.012(4)
O6 0.043(4) 0.016(3) 0.128(7) 0.009(4) -0.048(4) -0.009(3)
O7 0.040(3) 0.040(3) 0.041(5) -0.008(3) 0.008(3) 0.001(4)
O8 0.059(4) 0.059(4) 0.078(7) 0.013(3) -0.013(3) 0.038(5)
O9 0.038(3) 0.038(3) 0.079(7) 0.009(3) -0.009(3) 0.019(4)
O10 0.036(3) 0.036(3) 0.039(5) -0.004(3) 0.004(3) -0.016(4)
C1 0.021(4) 0.039(5) 0.059(6) -0.005(4) -0.005(4) -0.006(4)
C2 0.013(4) 0.050(5) 0.046(5) 0.006(4) -0.010(3) -0.004(3)
C3 0.017(4) 0.091(8) 0.066(7) 0.018(6) -0.001(4) -0.008(5)
C4 0.025(3) 0.088(5) 0.057(4) 0.008(3) -0.008(2) -0.001(3)
C5 0.025(3) 0.088(5) 0.057(4) 0.008(3) -0.008(2) -0.001(3)
C6 0.025(3) 0.088(5) 0.057(4) 0.008(3) -0.008(2) -0.001(3)
C7 0.026(5) 0.108(10) 0.044(5) 0.008(6) -0.010(4) -0.003(5)
C8 0.065(6) 0.096(7) 0.091(7) 0.011(6) -0.003(5) -0.004(5)
C9 0.028(5) 0.072(7) 0.051(6) 0.009(5) -0.009(4) -0.001(4)
C10 0.032(5) 0.047(5) 0.060(6) 0.004(5) -0.011(4) 0.003(4)
C11 0.033(5) 0.064(7) 0.057(6) -0.008(5) -0.011(4) 0.011(5)
C12 0.033(5) 0.037(5) 0.049(5) -0.010(4) -0.006(4) 0.002(4)
C13 0.034(5) 0.059(7) 0.090(8) -0.016(6) -0.010(5) -0.006(5)
C14 0.020(4) 0.068(7) 0.094(9) -0.021(6) -0.012(5) -0.002(4)
C15 0.054(9) 0.108(14) 0.119(15) -0.018(12) -0.041(10) 0.004(9)
C16 0.031(5) 0.045(5) 0.056(6) -0.010(4) -0.006(4) 0.002(4)
F1F 0.208 0.089 0.114 0.034 -0.073 -0.024
F2F 0.208 0.089 0.114 0.034 -0.073 -0.024
F3F 0.208 0.089 0.114 0.034 -0.073 -0.024
F4F 0.117 0.022 0.185 -0.002 0.052 0.012
F5F 0.079 0.13 0.216 0.081 -0.018 0.038
F6F 0.077 0.055 0.221 0.051 0.066 0.023
O1F 0.029 0.024 0.057 0.019 -0.008 -0.006
O2F 0.06 0.032 0.042 0.008 -0.009 -0.005
O3F 0.028 0.02 0.063 0.003 -0.004 -0.001
O4F 0.057 0.017 0.088 0.007 0.03 0.003
O5F 0.165 0.019 0.048 0 0.037 -0.012
O6F 0.016 0.043 0.128 0.048 -0.009 -0.009
C1F 0.039 0.021 0.059 0.005 0.005 -0.006
C2F 0.05 0.013 0.046 0.01 -0.006 -0.004
C3F 0.091 0.017 0.066 0.001 -0.018 -0.008
C4F 0.088 0.025 0.057 0.008 -0.008 -0.001
C5F 0.088 0.025 0.057 0.008 -0.008 -0.001
C6F 0.088 0.025 0.057 0.008 -0.008 -0.001
C7F 0.108 0.026 0.044 0.01 -0.008 -0.003
C8F 0.096 0.065 0.091 0.003 -0.011 -0.004
C9F 0.072 0.028 0.051 0.009 -0.009 -0.001
C10F 0.047 0.032 0.06 0.011 -0.004 0.003
C11F 0.064 0.033 0.057 0.011 0.008 0.011
C12F 0.037 0.033 0.049 0.006 0.01 0.002
C13F 0.059 0.034 0.09 0.01 0.016 -0.006
C14F 0.068 0.02 0.094 0.012 0.021 -0.002
C15F 0.108 0.054 0.119 0.041 0.018 0.004
C16F 0.045 0.031 0.056 0.006 0.01 0.002
Zr1I 0.0162 0.0162 0.0417 -0.0018 -0.0018 -0.0005
Zr1K 0.0162 0.0162 0.0417 0.0018 0.0018 -0.0005
Zr2C 0.0213 0.0213 0.0409 -0.0015 -0.0015 -0.0026
Zr2E 0.0213 0.0213 0.0409 0.0015 0.0015 -0.0026
Zr2F 0.0213 0.0213 0.0409 -0.0015 0.0015 0.0026
Zr3F 0.0229 0.0229 0.038 0.0049 -0.0049 0.0004
O2N 0.06 0.032 0.042 0.008 -0.009 -0.005
O3I 0.028 0.02 0.063 -0.003 -0.004 0.001
O3L 0.02 0.028 0.063 0.004 0.003 0.001
O4A 0.057 0.017 0.088 -0.007 0.03 -0.003
O4L 0.017 0.057 0.088 -0.03 0.007 -0.003
O5H 0.019 0.165 0.048 -0.037 0 -0.012
O6H 0.043 0.016 0.128 0.009 -0.048 -0.009
O6N 0.016 0.043 0.128 0.048 -0.009 -0.009
loop_
_geom_bond_atom_site_label_1
_geom_bond_atom_site_label_2
_geom_bond_site_symmetry_1
_geom_bond_site_symmetry_2
Zr1 O1 1_555 1_555
Zr2 O6 1_555 1_555
Zr3 O2 1_555 1_555
F1 C8 1_555 1_555
F2 C8 1_555 1_555
F3 C8 1_555 1_555
F4 C15 1_555 1_555
F5 C15 1_555 1_555
F6 C15 1_555 1_555
O1 C1 1_555 1_555
O2 C1 1_555 1_555
O3 C16 1_555 1_555
O4 C16 1_555 1_555
O5 Zr1 1_555 1_555
O6 Zr1 1_555 1_555
O7 Zr2 1_555 1_555
O8 Zr2 1_555 1_555
O9 Zr3 1_555 1_555
O10 Zr3 1_555 1_555
C1 C2 1_555 1_555
C2 C3 1_555 1_555
C3 H1 1_555 1_555
C4 C3 1_555 1_555
C5 C4 1_555 1_555
C6 C5 1_555 1_555
H2 C6 1_555 1_555
C7 C2 1_555 1_555
H3 C7 1_555 1_555
C8 C4 1_555 1_555
C9 C5 1_555 1_555
C10 C9 1_555 1_555
C11 C10 1_555 1_555
H4 C11 1_555 1_555
C12 C11 1_555 1_555
C13 C12 1_555 1_555
H5 C13 1_555 1_555
C14 C9 1_555 1_555
H6 C14 1_555 1_555
C15 C10 1_555 1_555
C16 C12 1_555 1_555
F1F C8F 1_555 1_555
F2F C8F 1_555 1_555
F3F C8F 1_555 1_555
F4F C15F 1_555 1_555
F5F C15F 1_555 1_555
F6F C15F 1_555 1_555
O1F Zr1 1_555 1_555
O2F C1F 1_555 1_555
O3F C16F 1_555 1_555
O4F C16F 1_555 1_555
O5F Zr1 1_555 1_555
O6F Zr1 1_555 1_555
C1F O1F 1_555 1_555
C2F C1F 1_555 1_555
C3F C2F 1_555 1_555
H1F C3F 1_555 1_555
C4F C3F 1_555 1_555
C5F C4F 1_555 1_555
C6F C5F 1_555 1_555
H2F C6F 1_555 1_555
C7F C2F 1_555 1_555
H3F C7F 1_555 1_555
C8F C4F 1_555 1_555
C9F C5F 1_555 1_555
C10F C9F 1_555 1_555
C11F C10F 1_555 1_555
H4F C11F 1_555 1_555
C12F C11F 1_555 1_555
C13F C12F 1_555 1_555
H5F C13F 1_555 1_555
C14F C9F 1_555 1_555
H6F C14F 1_555 1_555
C15F C10F 1_555 1_555
C16F C12F 1_555 1_555
Zr1I O3F 1_555 1_555
Zr1K O3 1_555 1_555
Zr2C O4 1_555 1_555
Zr2E O4F 1_555 1_555
Zr2F O5 1_555 1_555
Zr3F O5 1_555 1_555
O2N Zr3 1_555 1_555
O3I Zr1 1_555 1_555
O3L Zr1 1_555 1_555
O4A Zr2 1_555 1_555
O4L Zr2 1_555 1_555
O5H Zr2 1_555 1_555
O6H Zr3 1_555 1_555
O6N Zr2 1_555 1_555
Zr2 O5F 1_555 1_555
Zr3 O5F 1_555 1_555
Zr3 O6F 1_555 1_555
Zr3 O5H 1_555 1_555
O6 Zr3F 1_555 1_555
C6 C7 1_555 1_555
C13 C14 1_555 1_555
O2F Zr3F 1_555 1_555
O6F Zr2F 1_555 1_555
C6F C7F 1_555 1_555
C13F C14F 1_555 1_555
Zr2F O6H 1_555 1_555
Zr3F O6N 1_555 1_555

#END
