
#######################################################################
#
#                 Cambridge Crystallographic Data Centre
#                                CCDC 
#
#######################################################################
#
# If this CIF has been generated from an entry in the Cambridge 
# Structural Database, then it will include bibliographic, chemical, 
# crystal, experimental, refinement or atomic coordinate data resulting 
# from the CCDC's data processing and validation procedures.
#
#######################################################################

data_OQUFUD
_chemical_formula_moiety         'C84 H36 F24 O42 Zr16'
_symmetry_cell_setting           tetragonal
_symmetry_space_group_name_H-M   'P 42/m m c'
_symmetry_Int_Tables_number      131
_space_group_name_Hall           '-P 4c 2'
loop_
_symmetry_equiv_pos_site_id
_symmetry_equiv_pos_as_xyz
1 x,y,z
2 -y,x,1/2+z
3 -x,-y,z
4 y,-x,1/2+z
5 x,-y,-z
6 -x,y,-z
7 y,x,1/2-z
8 -y,-x,1/2-z
9 -x,-y,-z
10 y,-x,1/2-z
11 x,y,-z
12 -y,x,1/2-z
13 -x,y,z
14 x,-y,z
15 -y,-x,1/2+z
16 y,x,1/2+z
_cell_length_a                   23.78510(10)
_cell_length_b                   23.78510(10)
_cell_length_c                   16.8399(2)
_cell_angle_alpha                90
_cell_angle_beta                 90
_cell_angle_gamma                90
_cell_volume                     9526.85
loop_
_atom_site_label
_atom_site_type_symbol
_atom_site_fract_x
_atom_site_fract_y
_atom_site_fract_z
Zr1 Zr 0.5000 0.10411(2) 0.0000
Zr2 Zr 0.42687(2) 0.0000 0.10496(3)
O1 O 0.44234(13) 0.15082(12) 0.0797(2)
O2 O 0.39822(17) 0.08360(14) 0.1506(2)
O3 O 0.4241(3) 0.0507(2) 0.0000
O4 O 0.5000 0.0508(2) 0.0998(4)
O5 O 0.3346(2) 0.0000 0.0987(5)
O6 O 0.4530(3) 0.0000 0.2309(3)
C1 C 0.4070(2) 0.1342(2) 0.1295(3)
C2 C 0.3705(3) 0.1773(2) 0.1666(4)
C3 C 0.3363(4) 0.1629(3) 0.2291(6)
H1 H 0.3366 0.1254 0.2488
C4 C 0.3009(4) 0.2030(4) 0.2637(6)
H2 H 0.2792 0.1933 0.3091
C5 C 0.2974(4) 0.2558(3) 0.2331(6)
C6 C 0.3324(4) 0.2698(3) 0.1713(6)
C7 C 0.3702(3) 0.2315(3) 0.1385(5)
H3 H 0.3952 0.2427 0.0974
C8 C 0.5000 0.0000 0.2656(7)
C9 C 0.5000 0.0000 0.3515(4)
C10 C 0.4430(3) -0.0000 0.3754(4)
H4 H 0.4135(5) 0.0000 0.3374(7)
C11 C 0.4293(2) 0.0000 0.4567(5)
H5 H 0.3906(3) 0.0000 0.4707(8)
C12 C 0.47212(17) 0.0000 0.5119(3)
C13 C 0.5416(3) 0.0000 0.4072(4)
F1 F 0.3412(8) 0.3722(5) 0.1731(10)
F2 F 0.3661(7) 0.3345(6) 0.0636(9)
C14 C 0.3306(7) 0.3246(5) 0.1260(9)
F3 F 0.2801(6) 0.3434(7) 0.0934(10)
H6 H 0.5807(5) 0.0000 0.3937(6)
O1F O 0.15082(12) 0.44234(13) 0.4203(2)
O2F O 0.08360(14) 0.39822(17) 0.3494(2)
C1F C 0.1342(2) 0.4070(2) 0.3705(3)
C2F C 0.1773(2) 0.3705(3) 0.3334(4)
C3F C 0.1629(3) 0.3363(4) 0.2709(6)
H1F H 0.1254 0.3366 0.2512
C4F C 0.2030(4) 0.3009(4) 0.2363(6)
H2F H 0.1933 0.2792 0.1909
C5F C 0.2558(3) 0.2974(4) 0.2669(6)
C6F C 0.2698(3) 0.3324(4) 0.3287(6)
C7F C 0.2315(3) 0.3702(3) 0.3615(5)
H3F H 0.2427 0.3952 0.4026
F1F F 0.3722(5) 0.3412(8) 0.3269(10)
F2F F 0.3345(6) 0.3661(7) 0.4364(9)
C14F C 0.3246(5) 0.3306(7) 0.3740(9)
F3F F 0.3434(7) 0.2801(6) 0.4066(10)
O6B O 0.5470(3) 0.0000 0.2309(3)
C10B C 0.5570(3) -0.0000 0.3754(4)
H4B H 0.5865(5) 0.0000 0.3374(7)
C11B C 0.5707(2) 0.0000 0.4567(5)
H5B H 0.6094(3) 0.0000 0.4707(8)
C12B C 0.52788(17) 0.0000 0.5119(3)
C13B C 0.4584(3) 0.0000 0.4072(4)
H6B H 0.4193(5) 0.0000 0.3937(6)
O6D O 0.4530(3) 0.0000 0.7691(3)
C8D C 0.5000 0.0000 0.7344(7)
C9D C 0.5000 0.0000 0.6485(4)
C10D C 0.4430(3) -0.0000 0.6246(4)
H4D H 0.4135(5) 0.0000 0.6626(7)
C11D C 0.4293(2) -0.0000 0.5433(5)
H5D H 0.3906(3) 0.0000 0.5293(8)
C12D C 0.47212(17) 0.0000 0.4881(3)
C13D C 0.5416(3) 0.0000 0.5928(4)
H6D H 0.5807(5) 0.0000 0.6063(6)
O6E O 0.5470(3) 0.0000 0.7691(3)
C10E C 0.5570(3) -0.0000 0.6246(4)
H4E H 0.5865(5) 0.0000 0.6626(7)
C11E C 0.5707(2) -0.0000 0.5433(5)
H5E H 0.6094(3) 0.0000 0.5293(8)
C12E C 0.52788(17) 0.0000 0.4881(3)
C13E C 0.4584(3) 0.0000 0.5928(4)
H6E H 0.4193(5) 0.0000 0.6063(6)
Zr1B Zr 0.5000 -0.10411(2) 0.0000
Zr2B Zr 0.57313(2) 0.0000 0.10496(3)
O1B O 0.55766(13) -0.15082(12) 0.0797(2)
O2B O 0.60178(17) -0.08360(14) 0.1506(2)
O3B O 0.5759(3) -0.0507(2) 0.0000
O4B O 0.5000 -0.0508(2) 0.0998(4)
O5B O 0.6654(2) 0.0000 0.0987(5)
C1B C 0.5930(2) -0.1342(2) 0.1295(3)
C2B C 0.6295(3) -0.1773(2) 0.1666(4)
C3B C 0.6637(4) -0.1629(3) 0.2291(6)
H1B H 0.6634 -0.1254 0.2488
C4B C 0.6991(4) -0.2030(4) 0.2637(6)
H2B H 0.7208 -0.1933 0.3091
C5B C 0.7026(4) -0.2558(3) 0.2331(6)
C6B C 0.6676(4) -0.2698(3) 0.1713(6)
C7B C 0.6298(3) -0.2315(3) 0.1385(5)
H3B H 0.6048 -0.2427 0.0974
F1B F 0.6588(8) -0.3722(5) 0.1731(10)
F2B F 0.6339(7) -0.3345(6) 0.0636(9)
C14B C 0.6694(7) -0.3246(5) 0.1260(9)
F3B F 0.7199(6) -0.3434(7) 0.0934(10)
O1G O 0.84918(12) -0.44234(13) 0.4203(2)
O2G O 0.91640(14) -0.39822(17) 0.3494(2)
C1G C 0.8658(2) -0.4070(2) 0.3705(3)
C2G C 0.8227(2) -0.3705(3) 0.3334(4)
C3G C 0.8371(3) -0.3363(4) 0.2709(6)
H1G H 0.8746 -0.3366 0.2512
C4G C 0.7970(4) -0.3009(4) 0.2363(6)
H2G H 0.8067 -0.2792 0.1909
C5G C 0.7442(3) -0.2974(4) 0.2669(6)
C6G C 0.7302(3) -0.3324(4) 0.3287(6)
C7G C 0.7685(3) -0.3702(3) 0.3615(5)
H3G H 0.7573 -0.3952 0.4026
F1G F 0.6278(5) -0.3412(8) 0.3269(10)
F2G F 0.6655(6) -0.3661(7) 0.4364(9)
C14G C 0.6754(5) -0.3306(7) 0.3740(9)
F3G F 0.6566(7) -0.2801(6) 0.4066(10)
Zr2D Zr 0.42687(2) 0.0000 -0.10496(3)
O3D O 0.4241(3) -0.0507(2) 0.0000
O4D O 0.5000 -0.0508(2) -0.0998(4)
O5D O 0.3346(2) 0.0000 -0.0987(5)
Zr2E Zr 0.57313(2) 0.0000 -0.10496(3)
O3E O 0.5759(3) 0.0507(2) 0.0000
O4E O 0.5000 0.0508(2) -0.0998(4)
O5E O 0.6654(2) 0.0000 -0.0987(5)
O1L O 0.55766(13) 0.15082(12) 0.0797(2)
O2L O 0.60178(17) 0.08360(14) 0.1506(2)
C1L C 0.5930(2) 0.1342(2) 0.1295(3)
C2L C 0.6295(3) 0.1773(2) 0.1666(4)
C3L C 0.6637(4) 0.1629(3) 0.2291(6)
H1L H 0.6634 0.1254 0.2488
C4L C 0.6991(4) 0.2030(4) 0.2637(6)
H2L H 0.7208 0.1933 0.3091
C5L C 0.7026(4) 0.2558(3) 0.2331(6)
C6L C 0.6676(4) 0.2698(3) 0.1713(6)
C7L C 0.6298(3) 0.2315(3) 0.1385(5)
H3L H 0.6048 0.2427 0.0974
F1L F 0.6588(8) 0.3722(5) 0.1731(10)
F2L F 0.6339(7) 0.3345(6) 0.0636(9)
C14L C 0.6694(7) 0.3246(5) 0.1260(9)
F3L F 0.7199(6) 0.3434(7) 0.0934(10)
O1K O 0.84918(12) 0.44234(13) 0.4203(2)
O2K O 0.91640(14) 0.39822(17) 0.3494(2)
C1K C 0.8658(2) 0.4070(2) 0.3705(3)
C2K C 0.8227(2) 0.3705(3) 0.3334(4)
C3K C 0.8371(3) 0.3363(4) 0.2709(6)
H1K H 0.8746 0.3366 0.2512
C4K C 0.7970(4) 0.3009(4) 0.2363(6)
H2K H 0.8067 0.2792 0.1909
C5K C 0.7442(3) 0.2974(4) 0.2669(6)
C6K C 0.7302(3) 0.3324(4) 0.3287(6)
C7K C 0.7685(3) 0.3702(3) 0.3615(5)
H3K H 0.7573 0.3952 0.4026
F1K F 0.6278(5) 0.3412(8) 0.3269(10)
F2K F 0.6655(6) 0.3661(7) 0.4364(9)
C14K C 0.6754(5) 0.3306(7) 0.3740(9)
F3K F 0.6566(7) 0.2801(6) 0.4066(10)
O1M O 0.44234(13) -0.15082(12) 0.0797(2)
O2M O 0.39822(17) -0.08360(14) 0.1506(2)
C1M C 0.4070(2) -0.1342(2) 0.1295(3)
C2M C 0.3705(3) -0.1773(2) 0.1666(4)
C3M C 0.3363(4) -0.1629(3) 0.2291(6)
H1M H 0.3366 -0.1254 0.2488
C4M C 0.3009(4) -0.2030(4) 0.2637(6)
H2M H 0.2792 -0.1933 0.3091
C5M C 0.2974(4) -0.2558(3) 0.2331(6)
C6M C 0.3324(4) -0.2698(3) 0.1713(6)
C7M C 0.3702(3) -0.2315(3) 0.1385(5)
H3M H 0.3952 -0.2427 0.0974
F1M F 0.3412(8) -0.3722(5) 0.1731(10)
F2M F 0.3661(7) -0.3345(6) 0.0636(9)
C14M C 0.3306(7) -0.3246(5) 0.1260(9)
F3M F 0.2801(6) -0.3434(7) 0.0934(10)
O1I O 0.15082(12) -0.44234(13) 0.4203(2)
O2I O 0.08360(14) -0.39822(17) 0.3494(2)
C1I C 0.1342(2) -0.4070(2) 0.3705(3)
C2I C 0.1773(2) -0.3705(3) 0.3334(4)
C3I C 0.1629(3) -0.3363(4) 0.2709(6)
H1I H 0.1254 -0.3366 0.2512
C4I C 0.2030(4) -0.3009(4) 0.2363(6)
H2I H 0.1933 -0.2792 0.1909
C5I C 0.2558(3) -0.2974(4) 0.2669(6)
C6I C 0.2698(3) -0.3324(4) 0.3287(6)
C7I C 0.2315(3) -0.3702(3) 0.3615(5)
H3I H 0.2427 -0.3952 0.4026
F1I F 0.3722(5) -0.3412(8) 0.3269(10)
F2I F 0.3345(6) -0.3661(7) 0.4364(9)
C14I C 0.3246(5) -0.3306(7) 0.3740(9)
F3I F 0.3434(7) -0.2801(6) 0.4066(10)
Zr1A Zr 0.89589(2) -0.5000 0.5000
Zr1A_2 Zr 0.89589(2) 0.5000 0.5000
Zr1C Zr 0.10411(2) -0.5000 0.5000
Zr1C_2 Zr 0.10411(2) 0.5000 0.5000
Zr2D_2 Zr 0.42687(2) 0.0000 0.89504(3)
Zr2E_2 Zr 0.57313(2) 0.0000 0.89504(3)
Zr2F Zr 0.0000 0.42687(2) 0.39504(3)
Zr2F_2 Zr 1.0000 0.42687(2) 0.39504(3)
Zr2G Zr -0.0000 -0.42687(2) 0.39504(3)
Zr2G_2 Zr 1.0000 -0.42687(2) 0.39504(3)
O1D O 0.44234(13) -0.15082(12) -0.0797(2)
O1E O 0.55766(13) 0.15082(12) -0.0797(2)
O1H O 0.55766(13) -0.15082(12) -0.0797(2)
O1J O 0.44234(13) 0.15082(12) -0.0797(2)
O2D O 0.39822(17) -0.08360(14) -0.1506(2)
O2E O 0.60178(17) 0.08360(14) -0.1506(2)
O2H O 0.60178(17) -0.08360(14) -0.1506(2)
O2J O 0.39822(17) 0.08360(14) -0.1506(2)
O6D_2 O 0.4530(3) -0.0000 -0.2309(3)
O6E_2 O 0.5470(3) -0.0000 -0.2309(3)
loop_
_geom_bond_atom_site_label_1
_geom_bond_atom_site_label_2
_geom_bond_site_symmetry_1
_geom_bond_site_symmetry_2
Zr1 O1 1_555 1_555
Zr2 O2 1_555 1_555
O1 C1 1_555 1_555
O2 C1 1_555 1_555
O3 Zr1 1_555 1_555
O4 Zr1 1_555 1_555
O5 Zr2 1_555 1_555
O6 Zr2 1_555 1_555
C1 C2 1_555 1_555
C2 C3 1_555 1_555
C3 H1 1_555 1_555
C4 C3 1_555 1_555
H2 C4 1_555 1_555
C5 C4 1_555 1_555
C6 C5 1_555 1_555
C7 C2 1_555 1_555
H3 C7 1_555 1_555
C8 O6 1_555 1_555
C9 C8 1_555 1_555
C10 C9 1_555 1_555
H4 C10 1_555 1_555
C11 C10 1_555 1_555
H5 C11 1_555 1_555
C12 C11 1_555 1_555
C13 C9 1_555 1_555
F1 C14 1_555 1_555
F2 C14 1_555 1_555
C14 C6 1_555 1_555
F3 C14 1_555 1_555
H6 C13 1_555 1_555
O1F C1F 1_555 1_555
O2F C1F 1_555 1_555
C1F C2F 1_555 1_555
C2F C3F 1_555 1_555
C3F H1F 1_555 1_555
C4F C3F 1_555 1_555
H2F C4F 1_555 1_555
C5F C5 1_555 1_555
C6F C5F 1_555 1_555
C7F C2F 1_555 1_555
H3F C7F 1_555 1_555
F1F C14F 1_555 1_555
F2F C14F 1_555 1_555
C14F C6F 1_555 1_555
F3F C14F 1_555 1_555
O6B C8 1_555 1_555
C10B C9 1_555 1_555
H4B C10B 1_555 1_555
C11B C13 1_555 1_555
H5B C11B 1_555 1_555
C12B C12 1_555 1_555
C13B C9 1_555 1_555
H6B C10 1_555 1_555
O6D C8D 1_555 1_555
C8D C9D 1_555 1_555
C9D C10D 1_555 1_555
C10D H4D 1_555 1_555
C11D C11 1_555 1_555
H5D C11D 1_555 1_555
C12D C11 1_555 1_555
C13D C12B 1_555 1_555
H6D C13D 1_555 1_555
O6E C8D 1_555 1_555
C10E C9D 1_555 1_555
H4E C10E 1_555 1_555
C11E C11B 1_555 1_555
H5E C11E 1_555 1_555
C12E C12 1_555 1_555
C13E C12 1_555 1_555
H6E C10D 1_555 1_555
Zr1B O1B 1_555 1_555
Zr2B O4 1_555 1_555
O1B C1B 1_555 1_555
O2B Zr2B 1_555 1_555
O3B Zr1B 1_555 1_555
O4B Zr2 1_555 1_555
O5B Zr2B 1_555 1_555
C1B O2B 1_555 1_555
C2B C1B 1_555 1_555
C3B C2B 1_555 1_555
H1B C3B 1_555 1_555
C4B C3B 1_555 1_555
H2B C4B 1_555 1_555
C5B C4B 1_555 1_555
C6B C5B 1_555 1_555
C7B C2B 1_555 1_555
H3B C7B 1_555 1_555
F1B C14B 1_555 1_555
F2B C14B 1_555 1_555
C14B C6B 1_555 1_555
F3B C14B 1_555 1_555
O1G C1G 1_555 1_555
O2G C1G 1_555 1_555
C1G C2G 1_555 1_555
C2G C3G 1_555 1_555
C3G H1G 1_555 1_555
C4G C3G 1_555 1_555
H2G C4G 1_555 1_555
C5G C5B 1_555 1_555
C6G C5G 1_555 1_555
C7G C2G 1_555 1_555
H3G C7G 1_555 1_555
F1G C14G 1_555 1_555
F2G C14G 1_555 1_555
C14G C6G 1_555 1_555
F3G C14G 1_555 1_555
Zr2D O3 1_555 1_555
O3D Zr2 1_555 1_555
O4D Zr1B 1_555 1_555
O5D Zr2D 1_555 1_555
Zr2E O3B 1_555 1_555
O3E Zr1 1_555 1_555
O4E Zr1 1_555 1_555
O5E Zr2E 1_555 1_555
O1L Zr1 1_555 1_555
O2L Zr2B 1_555 1_555
C1L O1L 1_555 1_555
C2L C1L 1_555 1_555
C3L C2L 1_555 1_555
H1L C3L 1_555 1_555
C4L C3L 1_555 1_555
H2L C4L 1_555 1_555
C5L C4L 1_555 1_555
C6L C5L 1_555 1_555
C7L C2L 1_555 1_555
H3L C7L 1_555 1_555
F1L C14L 1_555 1_555
F2L C14L 1_555 1_555
C14L C6L 1_555 1_555
F3L C14L 1_555 1_555
O1K C1K 1_555 1_555
O2K C1K 1_555 1_555
C1K C2K 1_555 1_555
C2K C3K 1_555 1_555
C3K H1K 1_555 1_555
C4K C3K 1_555 1_555
H2K C4K 1_555 1_555
C5K C5L 1_555 1_555
C6K C5K 1_555 1_555
C7K C2K 1_555 1_555
H3K C7K 1_555 1_555
F1K C14K 1_555 1_555
F2K C14K 1_555 1_555
C14K C6K 1_555 1_555
F3K C14K 1_555 1_555
O1M Zr1B 1_555 1_555
O2M Zr2 1_555 1_555
C1M O1M 1_555 1_555
C2M C1M 1_555 1_555
C3M C2M 1_555 1_555
H1M C3M 1_555 1_555
C4M C3M 1_555 1_555
H2M C4M 1_555 1_555
C5M C4M 1_555 1_555
C6M C5M 1_555 1_555
C7M C2M 1_555 1_555
H3M C7M 1_555 1_555
F1M C14M 1_555 1_555
F2M C14M 1_555 1_555
C14M C6M 1_555 1_555
F3M C14M 1_555 1_555
O1I C1I 1_555 1_555
O2I C1I 1_555 1_555
C1I C2I 1_555 1_555
C2I C3I 1_555 1_555
C3I H1I 1_555 1_555
C4I C3I 1_555 1_555
H2I C4I 1_555 1_555
C5I C5M 1_555 1_555
C6I C5I 1_555 1_555
C7I C2I 1_555 1_555
H3I C7I 1_555 1_555
F1I C14I 1_555 1_555
F2I C14I 1_555 1_555
C14I C6I 1_555 1_555
F3I C14I 1_555 1_555
Zr1A O1G 1_555 1_555
Zr1A_2 O1K 1_555 1_555
Zr1C O1I 1_555 1_555
Zr1C_2 O1F 1_555 1_555
Zr2D_2 O6D 1_555 1_555
Zr2E_2 O6E 1_555 1_555
Zr2F O2F 1_555 1_555
Zr2F_2 O2K 1_555 1_555
Zr2G O2I 1_555 1_555
Zr2G_2 O2G 1_555 1_555
O1D Zr1B 1_555 1_555
O1E Zr1 1_555 1_555
O1H Zr1B 1_555 1_555
O1J Zr1 1_555 1_555
O2D Zr2D 1_555 1_555
O2E Zr2E 1_555 1_555
O2H Zr2E 1_555 1_555
O2J Zr2D 1_555 1_555
O6D_2 Zr2D 1_555 1_555
O6E_2 Zr2E 1_555 1_555
Zr2 O3 1_555 1_555
Zr2 O4 1_555 1_555
C6 C7 1_555 1_555
C10 C13B 1_555 1_555
C11 C13B 1_555 1_555
C11 H6B 1_555 1_555
C12 C13B 1_555 1_555
C12 C11D 1_555 1_555
C13 C10B 1_555 1_555
C13 C12B 1_555 1_555
C13 C12E 1_555 1_555
H6 C10B 1_555 1_555
H6 C11B 1_555 1_555
C4F C5F 1_555 1_555
C6F C7F 1_555 1_555
O6B Zr2B 1_555 1_555
C10B C11B 1_555 1_555
C11B C12B 1_555 1_555
C11B C12E 1_555 1_555
C12B C12D 1_555 1_555
C12B C11E 1_555 1_555
C13B H6B 1_555 1_555
C13B C12D 1_555 1_555
C9D C13D 1_555 1_555
C9D C13E 1_555 1_555
C10D C11D 1_555 1_555
C10D C13E 1_555 1_555
C11D C12D 1_555 1_555
C11D C13E 1_555 1_555
C11D H6E 1_555 1_555
C12D C12E 1_555 1_555
C12D C13E 1_555 1_555
C13D C10E 1_555 1_555
C13D C11E 1_555 1_555
C13D C12E 1_555 1_555
H6D C10E 1_555 1_555
H6D C11E 1_555 1_555
C10E C11E 1_555 1_555
C11E C12E 1_555 1_555
C13E H6E 1_555 1_555
Zr1B O4B 1_555 1_555
Zr1B O3D 1_555 1_555
Zr2B O3B 1_555 1_555
Zr2B O4B 1_555 1_555
Zr2B O3E 1_555 1_555
C6B C7B 1_555 1_555
C4G C5G 1_555 1_555
C6G C7G 1_555 1_555
Zr2D O3D 1_555 1_555
Zr2D O4D 1_555 1_555
Zr2D O4E 1_555 1_555
O4D Zr2E 1_555 1_555
Zr2E O3E 1_555 1_555
Zr2E O4E 1_555 1_555
O2L C1L 1_555 1_555
C6L C7L 1_555 1_555
C4K C5K 1_555 1_555
C6K C7K 1_555 1_555
O2M C1M 1_555 1_555
C6M C7M 1_555 1_555
C4I C5I 1_555 1_555
C6I C7I 1_555 1_555

#END
