
#######################################################################
#
#                 Cambridge Crystallographic Data Centre
#                                CCDC 
#
#######################################################################
#
# If this CIF has been generated from an entry in the Cambridge 
# Structural Database, then it will include bibliographic, chemical, 
# crystal, experimental, refinement or atomic coordinate data resulting 
# from the CCDC's data processing and validation procedures.
#
#######################################################################

data_OQUGUE
_chemical_formula_moiety         'C78 H32 F24 O46 Zr16'
_symmetry_cell_setting           tetragonal
_symmetry_space_group_name_H-M   'P 42/m m c'
_symmetry_Int_Tables_number      131
_space_group_name_Hall           '-P 4c 2'
loop_
_symmetry_equiv_pos_site_id
_symmetry_equiv_pos_as_xyz
1 x,y,z
2 -y,x,1/2+z
3 -x,-y,z
4 y,-x,1/2+z
5 x,-y,-z
6 -x,y,-z
7 y,x,1/2-z
8 -y,-x,1/2-z
9 -x,-y,-z
10 y,-x,1/2-z
11 x,y,-z
12 -y,x,1/2-z
13 -x,y,z
14 x,-y,z
15 -y,-x,1/2+z
16 y,x,1/2+z
_cell_length_a                   22.8995(6)
_cell_length_b                   22.8995(6)
_cell_length_c                   19.0201(6)
_cell_angle_alpha                90
_cell_angle_beta                 90
_cell_angle_gamma                90
_cell_volume                     9973.9
loop_
_atom_site_label
_atom_site_type_symbol
_atom_site_fract_x
_atom_site_fract_y
_atom_site_fract_z
Zr1 Zr 0.0000 0.42394(5) 0.09283(5)
Zr2 Zr 0.10788(5) 0.5000 0.0000
F1 F 0.3577(11) 0.3730(12) 0.0897(11)
F2 F 0.3909(9) 0.3632(12) 0.1996(12)
F3 F 0.3687(11) 0.2837(10) 0.1355(14)
O1 O 0.1581(3) 0.4416(3) 0.0700(3)
O2 O 0.0869(3) 0.3944(4) 0.1304(4)
O3 O 0.0000 0.4441(4) 0.2079(6)
O4 O 0.0000 0.3263(5) 0.0861(7)
O5 O 0.0541(4) 0.4212(6) 0.0000
O6 O -0.0517(5) 0.5000 0.0905(6)
O7 O 0.0000 0.3969(3) 0.4588(7)
C1 C 0.1400(4) 0.4048(5) 0.1152(5)
C2 C 0.1849(5) 0.3719(5) 0.1565(6)
C3 C 0.2419(5) 0.3766(6) 0.1424(8)
H1 H 0.2554 0.4023 0.1067
C4 C 0.2816(8) 0.3425(9) 0.1817(10)
C5 C 0.2630(7) 0.3035(9) 0.2321(10)
C6 C 0.2046(9) 0.3074(9) 0.2503(10)
H2 H 0.1913 0.2878 0.2913
C7 C 0.1650(7) 0.3390(8) 0.2104(9)
H3 H 0.1245 0.3376 0.2208
C8 C 0.3422(9) 0.3410(8) 0.1562(10)
C9 C -0.0000 0.5000 0.2330(7)
C10 C 0.0000 0.5000 0.3126(4)
C11 C 0.0000 0.44739(17) 0.3492(4)
H4 H 0.0000 0.4115 0.3242
C12 C 0.0000 0.44744(16) 0.4223(4)
C13 C 0.0000 0.5000 0.4599(3)
H5 H 0.0000 0.3625(3) 0.4435(14)
F1F F 0.3730(12) 0.3577(11) 0.4103(11)
F2F F 0.3632(12) 0.3909(9) 0.3004(12)
F3F F 0.2837(10) 0.3687(11) 0.3645(14)
O1F O 0.4416(3) 0.1581(3) 0.4300(3)
O2F O 0.3944(4) 0.0869(3) 0.3696(4)
C1F C 0.4048(5) 0.1400(4) 0.3848(5)
C2F C 0.3719(5) 0.1849(5) 0.3435(6)
C3F C 0.3766(6) 0.2419(5) 0.3576(8)
H1F H 0.4023 0.2554 0.3933
C4F C 0.3425(9) 0.2816(8) 0.3183(10)
C5F C 0.3035(9) 0.2630(7) 0.2679(10)
C6F C 0.3074(9) 0.2046(9) 0.2497(10)
H2F H 0.2878 0.1913 0.2087
C7F C 0.3390(8) 0.1650(7) 0.2896(9)
H3F H 0.3376 0.1245 0.2792
C8F C 0.3410(8) 0.3422(9) 0.3438(10)
O3B O 0.0000 0.5559(4) 0.2079(6)
O7B O 0.0000 0.6031(3) 0.4588(7)
C11B C 0.0000 0.55261(17) 0.3492(4)
H4B H 0.0000 0.5885 0.3242
C12B C 0.0000 0.55256(16) 0.4223(4)
H5B H 0.0000 0.6375(3) 0.4435(14)
O3D O 0.0000 0.5559(4) 0.7921(6)
O7D O 0.0000 0.6031(3) 0.5412(7)
C9D C 0.0000 0.5000 0.7670(7)
C10D C 0.0000 0.5000 0.6874(4)
C11D C 0.0000 0.55261(17) 0.6508(4)
H4D H 0.0000 0.5885 0.6758
C12D C 0.0000 0.55256(16) 0.5777(4)
C13D C 0.0000 0.5000 0.5401(3)
H5D H 0.0000 0.6375(3) 0.5565(14)
O3E O 0.0000 0.4441(4) 0.7921(6)
O7E O 0.0000 0.3969(3) 0.5412(7)
C11E C 0.0000 0.44739(17) 0.6508(4)
H4E H 0.0000 0.4115 0.6758
C12E C 0.0000 0.44744(16) 0.5777(4)
H5E H 0.0000 0.3625(3) 0.5565(14)
Zr1B Zr 0.0000 0.57606(5) 0.09283(5)
Zr2B Zr -0.10788(5) 0.5000 0.0000
F1B F -0.3577(11) 0.6270(12) 0.0897(11)
F2B F -0.3909(9) 0.6368(12) 0.1996(12)
F3B F -0.3687(11) 0.7163(10) 0.1355(14)
O1B O -0.1581(3) 0.5584(3) 0.0700(3)
O2B O -0.0869(3) 0.6056(4) 0.1304(4)
O4B O 0.0000 0.6737(5) 0.0861(7)
O5B O -0.0541(4) 0.5788(6) 0.0000
O6B O 0.0517(5) 0.5000 0.0905(6)
C1B C -0.1400(4) 0.5952(5) 0.1152(5)
C2B C -0.1849(5) 0.6281(5) 0.1565(6)
C3B C -0.2419(5) 0.6234(6) 0.1424(8)
H1B H -0.2554 0.5977 0.1067
C4B C -0.2816(8) 0.6575(9) 0.1817(10)
C5B C -0.2630(7) 0.6965(9) 0.2321(10)
C6B C -0.2046(9) 0.6926(9) 0.2503(10)
H2B H -0.1913 0.7122 0.2913
C7B C -0.1650(7) 0.6610(8) 0.2104(9)
H3B H -0.1245 0.6624 0.2208
C8B C -0.3422(9) 0.6590(8) 0.1562(10)
F1G F -0.3730(12) 0.6423(11) 0.4103(11)
F2G F -0.3632(12) 0.6091(9) 0.3004(12)
F3G F -0.2837(10) 0.6313(11) 0.3645(14)
O1G O -0.4416(3) 0.8419(3) 0.4300(3)
O2G O -0.3944(4) 0.9131(3) 0.3696(4)
C1G C -0.4048(5) 0.8600(4) 0.3848(5)
C2G C -0.3719(5) 0.8151(5) 0.3435(6)
C3G C -0.3766(6) 0.7581(5) 0.3576(8)
H1G H -0.4023 0.7446 0.3933
C4G C -0.3425(9) 0.7184(8) 0.3183(10)
C5G C -0.3035(9) 0.7370(7) 0.2679(10)
C6G C -0.3074(9) 0.7954(9) 0.2497(10)
H2G H -0.2878 0.8087 0.2087
C7G C -0.3390(8) 0.8350(7) 0.2896(9)
H3G H -0.3376 0.8755 0.2792
C8G C -0.3410(8) 0.6578(9) 0.3438(10)
Zr1D Zr 0.0000 0.57606(5) -0.09283(5)
O4D O 0.0000 0.6737(5) -0.0861(7)
O5D O 0.0541(4) 0.5788(6) 0.0000
O6D O -0.0517(5) 0.5000 -0.0905(6)
Zr1E Zr -0.0000 0.42394(5) -0.09283(5)
O4E O -0.0000 0.3263(5) -0.0861(7)
O5E O -0.0541(4) 0.4212(6) 0.0000
O6E O 0.0517(5) 0.5000 -0.0905(6)
F1L F -0.3577(11) 0.3730(12) 0.0897(11)
F2L F -0.3909(9) 0.3632(12) 0.1996(12)
F3L F -0.3687(11) 0.2837(10) 0.1355(14)
O1L O -0.1581(3) 0.4416(3) 0.0700(3)
O2L O -0.0869(3) 0.3944(4) 0.1304(4)
C1L C -0.1400(4) 0.4048(5) 0.1152(5)
C2L C -0.1849(5) 0.3719(5) 0.1565(6)
C3L C -0.2419(5) 0.3766(6) 0.1424(8)
H1L H -0.2554 0.4023 0.1067
C4L C -0.2816(8) 0.3425(9) 0.1817(10)
C5L C -0.2630(7) 0.3035(9) 0.2321(10)
C6L C -0.2046(9) 0.3074(9) 0.2503(10)
H2L H -0.1913 0.2878 0.2913
C7L C -0.1650(7) 0.3390(8) 0.2104(9)
H3L H -0.1245 0.3376 0.2208
C8L C -0.3422(9) 0.3410(8) 0.1562(10)
F1K F -0.3730(12) 0.3577(11) 0.4103(11)
F2K F -0.3632(12) 0.3909(9) 0.3004(12)
F3K F -0.2837(10) 0.3687(11) 0.3645(14)
O1K O -0.4416(3) 0.1581(3) 0.4300(3)
O2K O -0.3944(4) 0.0869(3) 0.3696(4)
C1K C -0.4048(5) 0.1400(4) 0.3848(5)
C2K C -0.3719(5) 0.1849(5) 0.3435(6)
C3K C -0.3766(6) 0.2419(5) 0.3576(8)
H1K H -0.4023 0.2554 0.3933
C4K C -0.3425(9) 0.2816(8) 0.3183(10)
C5K C -0.3035(9) 0.2630(7) 0.2679(10)
C6K C -0.3074(9) 0.2046(9) 0.2497(10)
H2K H -0.2878 0.1913 0.2087
C7K C -0.3390(8) 0.1650(7) 0.2896(9)
H3K H -0.3376 0.1245 0.2792
C8K C -0.3410(8) 0.3422(9) 0.3438(10)
F1M F 0.3577(11) 0.6270(12) 0.0897(11)
F2M F 0.3909(9) 0.6368(12) 0.1996(12)
F3M F 0.3687(11) 0.7163(10) 0.1355(14)
O1M O 0.1581(3) 0.5584(3) 0.0700(3)
O2M O 0.0869(3) 0.6056(4) 0.1304(4)
C1M C 0.1400(4) 0.5952(5) 0.1152(5)
C2M C 0.1849(5) 0.6281(5) 0.1565(6)
C3M C 0.2419(5) 0.6234(6) 0.1424(8)
H1M H 0.2554 0.5977 0.1067
C4M C 0.2816(8) 0.6575(9) 0.1817(10)
C5M C 0.2630(7) 0.6965(9) 0.2321(10)
C6M C 0.2046(9) 0.6926(9) 0.2503(10)
H2M H 0.1913 0.7122 0.2913
C7M C 0.1650(7) 0.6610(8) 0.2104(9)
H3M H 0.1245 0.6624 0.2208
C8M C 0.3422(9) 0.6590(8) 0.1562(10)
F1I F 0.3730(12) 0.6423(11) 0.4103(11)
F2I F 0.3632(12) 0.6091(9) 0.3004(12)
F3I F 0.2837(10) 0.6313(11) 0.3645(14)
O1I O 0.4416(3) 0.8419(3) 0.4300(3)
O2I O 0.3944(4) 0.9131(3) 0.3696(4)
C1I C 0.4048(5) 0.8600(4) 0.3848(5)
C2I C 0.3719(5) 0.8151(5) 0.3435(6)
C3I C 0.3766(6) 0.7581(5) 0.3576(8)
H1I H 0.4023 0.7446 0.3933
C4I C 0.3425(9) 0.7184(8) 0.3183(10)
C5I C 0.3035(9) 0.7370(7) 0.2679(10)
C6I C 0.3074(9) 0.7954(9) 0.2497(10)
H2I H 0.2878 0.8087 0.2087
C7I C 0.3390(8) 0.8350(7) 0.2896(9)
H3I H 0.3376 0.8755 0.2792
C8I C 0.3410(8) 0.6578(9) 0.3438(10)
Zr1D_2 Zr 0.0000 0.57606(5) 0.90717(5)
Zr1E_2 Zr 0.0000 0.42394(5) 0.90717(5)
Zr1F Zr 0.42394(5) 0.0000 0.40717(5)
Zr1F_2 Zr 0.42394(5) 1.0000 0.40717(5)
Zr1G Zr -0.42394(5) 0.0000 0.40717(5)
Zr1G_2 Zr -0.42394(5) 1.0000 0.40717(5)
Zr2A Zr -0.5000 0.10788(5) 0.5000
Zr2A_2 Zr 0.5000 0.10788(5) 0.5000
Zr2C Zr -0.5000 0.89212(5) 0.5000
Zr2C_2 Zr 0.5000 0.89212(5) 0.5000
O1D O 0.1581(3) 0.5584(3) -0.0700(3)
O1E O -0.1581(3) 0.4416(3) -0.0700(3)
O1H O -0.1581(3) 0.5584(3) -0.0700(3)
O1J O 0.1581(3) 0.4416(3) -0.0700(3)
O2D O 0.0869(3) 0.6056(4) -0.1304(4)
O2E O -0.0869(3) 0.3944(4) -0.1304(4)
O2H O -0.0869(3) 0.6056(4) -0.1304(4)
O2J O 0.0869(3) 0.3944(4) -0.1304(4)
O3D_2 O 0.0000 0.5559(4) -0.2079(6)
O3E_2 O 0.0000 0.4441(4) -0.2079(6)
loop_
_geom_bond_atom_site_label_1
_geom_bond_atom_site_label_2
_geom_bond_site_symmetry_1
_geom_bond_site_symmetry_2
Zr1 O2 1_555 1_555
Zr2 O1 1_555 1_555
F1 C8 1_555 1_555
F2 C8 1_555 1_555
F3 C8 1_555 1_555
O1 C1 1_555 1_555
O2 C1 1_555 1_555
O3 Zr1 1_555 1_555
O4 Zr1 1_555 1_555
O5 Zr1 1_555 1_555
O6 Zr1 1_555 1_555
O7 C12 1_555 1_555
C1 C2 1_555 1_555
C2 C3 1_555 1_555
C3 H1 1_555 1_555
C4 C3 1_555 1_555
C5 C4 1_555 1_555
C6 C5 1_555 1_555
H2 C6 1_555 1_555
C7 C2 1_555 1_555
H3 C7 1_555 1_555
C8 C4 1_555 1_555
C9 O3 1_555 1_555
C10 C9 1_555 1_555
C11 C10 1_555 1_555
H4 C11 1_555 1_555
C12 C11 1_555 1_555
C13 C12 1_555 1_555
H5 O7 1_555 1_555
F1F C8F 1_555 1_555
F2F C8F 1_555 1_555
F3F C8F 1_555 1_555
O1F C1F 1_555 1_555
O2F C1F 1_555 1_555
C1F C2F 1_555 1_555
C2F C3F 1_555 1_555
C3F H1F 1_555 1_555
C4F C3F 1_555 1_555
C5F C5 1_555 1_555
C6F C5F 1_555 1_555
H2F C6F 1_555 1_555
C7F C2F 1_555 1_555
H3F C7F 1_555 1_555
C8F C4F 1_555 1_555
O3B C9 1_555 1_555
O7B C12B 1_555 1_555
C11B C10 1_555 1_555
H4B C11B 1_555 1_555
C12B C13 1_555 1_555
H5B O7B 1_555 1_555
O3D C9D 1_555 1_555
O7D O7B 1_555 1_555
C9D C10D 1_555 1_555
C10D C11D 1_555 1_555
C11D H4D 1_555 1_555
C12D O7D 1_555 1_555
C13D C13 1_555 1_555
H5D O7D 1_555 1_555
O3E C9D 1_555 1_555
O7E O7 1_555 1_555
C11E C10D 1_555 1_555
H4E C11E 1_555 1_555
C12E C13D 1_555 1_555
H5E O7E 1_555 1_555
Zr1B O6 1_555 1_555
Zr2B O6 1_555 1_555
F1B C8B 1_555 1_555
F2B C8B 1_555 1_555
F3B C8B 1_555 1_555
O1B Zr2B 1_555 1_555
O2B Zr1B 1_555 1_555
O4B Zr1B 1_555 1_555
O5B Zr1B 1_555 1_555
O6B Zr1 1_555 1_555
C1B O1B 1_555 1_555
C2B C1B 1_555 1_555
C3B C2B 1_555 1_555
H1B C3B 1_555 1_555
C4B C3B 1_555 1_555
C5B C4B 1_555 1_555
C6B C5B 1_555 1_555
H2B C6B 1_555 1_555
C7B C2B 1_555 1_555
H3B C7B 1_555 1_555
C8B C4B 1_555 1_555
F1G C8G 1_555 1_555
F2G C8G 1_555 1_555
F3G C8G 1_555 1_555
O1G C1G 1_555 1_555
O2G C1G 1_555 1_555
C1G C2G 1_555 1_555
C2G C3G 1_555 1_555
C3G H1G 1_555 1_555
C4G C3G 1_555 1_555
C5G C5B 1_555 1_555
C6G C5G 1_555 1_555
H2G C6G 1_555 1_555
C7G C2G 1_555 1_555
H3G C7G 1_555 1_555
C8G C4G 1_555 1_555
Zr1D O5B 1_555 1_555
O4D Zr1D 1_555 1_555
O5D Zr2 1_555 1_555
O6D Zr2B 1_555 1_555
Zr1E O5 1_555 1_555
O4E Zr1E 1_555 1_555
O5E Zr1 1_555 1_555
O6E Zr2 1_555 1_555
F1L C8L 1_555 1_555
F2L C8L 1_555 1_555
F3L C8L 1_555 1_555
O1L Zr2B 1_555 1_555
O2L Zr1 1_555 1_555
C1L O1L 1_555 1_555
C2L C1L 1_555 1_555
C3L C2L 1_555 1_555
H1L C3L 1_555 1_555
C4L C3L 1_555 1_555
C5L C4L 1_555 1_555
C6L C5L 1_555 1_555
H2L C6L 1_555 1_555
C7L C2L 1_555 1_555
H3L C7L 1_555 1_555
C8L C4L 1_555 1_555
F1K C8K 1_555 1_555
F2K C8K 1_555 1_555
F3K C8K 1_555 1_555
O1K C1K 1_555 1_555
O2K C1K 1_555 1_555
C1K C2K 1_555 1_555
C2K C3K 1_555 1_555
C3K H1K 1_555 1_555
C4K C3K 1_555 1_555
C5K C5L 1_555 1_555
C6K C5K 1_555 1_555
H2K C6K 1_555 1_555
C7K C2K 1_555 1_555
H3K C7K 1_555 1_555
C8K C4K 1_555 1_555
F1M C8M 1_555 1_555
F2M C8M 1_555 1_555
F3M C8M 1_555 1_555
O1M Zr2 1_555 1_555
O2M Zr1B 1_555 1_555
C1M O1M 1_555 1_555
C2M C1M 1_555 1_555
C3M C2M 1_555 1_555
H1M C3M 1_555 1_555
C4M C3M 1_555 1_555
C5M C4M 1_555 1_555
C6M C5M 1_555 1_555
H2M C6M 1_555 1_555
C7M C2M 1_555 1_555
H3M C7M 1_555 1_555
C8M C4M 1_555 1_555
F1I C8I 1_555 1_555
F2I C8I 1_555 1_555
F3I C8I 1_555 1_555
O1I C1I 1_555 1_555
O2I C1I 1_555 1_555
C1I C2I 1_555 1_555
C2I C3I 1_555 1_555
C3I H1I 1_555 1_555
C4I C3I 1_555 1_555
C5I C5M 1_555 1_555
C6I C5I 1_555 1_555
H2I C6I 1_555 1_555
C7I C2I 1_555 1_555
H3I C7I 1_555 1_555
C8I C4I 1_555 1_555
Zr1D_2 O3D 1_555 1_555
Zr1E_2 O3E 1_555 1_555
Zr1F O2F 1_555 1_555
Zr1F_2 O2I 1_555 1_555
Zr1G O2K 1_555 1_555
Zr1G_2 O2G 1_555 1_555
Zr2A O1K 1_555 1_555
Zr2A_2 O1F 1_555 1_555
Zr2C O1G 1_555 1_555
Zr2C_2 O1I 1_555 1_555
O1D Zr2 1_555 1_555
O1E Zr2B 1_555 1_555
O1H Zr2B 1_555 1_555
O1J Zr2 1_555 1_555
O2D Zr1D 1_555 1_555
O2E Zr1E 1_555 1_555
O2H Zr1D 1_555 1_555
O2J Zr1E 1_555 1_555
O3D_2 Zr1D 1_555 1_555
O3E_2 Zr1E 1_555 1_555
Zr2 O5 1_555 1_555
Zr2 O6B 1_555 1_555
C6 C7 1_555 1_555
C4F C5F 1_555 1_555
C6F C7F 1_555 1_555
O3B Zr1B 1_555 1_555
C11B C12B 1_555 1_555
C11D C12D 1_555 1_555
C12D C13D 1_555 1_555
O7E C12E 1_555 1_555
C11E C12E 1_555 1_555
Zr1B O6B 1_555 1_555
Zr1B O5D 1_555 1_555
Zr2B O5B 1_555 1_555
Zr2B O5E 1_555 1_555
O2B C1B 1_555 1_555
C6B C7B 1_555 1_555
C4G C5G 1_555 1_555
C6G C7G 1_555 1_555
Zr1D O5D 1_555 1_555
Zr1D O6D 1_555 1_555
Zr1D O6E 1_555 1_555
O6D Zr1E 1_555 1_555
Zr1E O5E 1_555 1_555
Zr1E O6E 1_555 1_555
O2L C1L 1_555 1_555
C6L C7L 1_555 1_555
C4K C5K 1_555 1_555
C6K C7K 1_555 1_555
O2M C1M 1_555 1_555
C6M C7M 1_555 1_555
C4I C5I 1_555 1_555
C6I C7I 1_555 1_555

#END
