
#######################################################################
#
#                 Cambridge Crystallographic Data Centre
#                                CCDC 
#
#######################################################################
#
# If this CIF has been generated from an entry in the Cambridge 
# Structural Database, then it will include bibliographic, chemical, 
# crystal, experimental, refinement or atomic coordinate data resulting 
# from the CCDC's data processing and validation procedures.
#
#######################################################################

data_OQUGAK
_chemical_formula_moiety         'C120 H64 F24 N8 O46 Zr16'
_symmetry_cell_setting           tetragonal
_symmetry_space_group_name_H-M   'P 42/m m c'
_symmetry_Int_Tables_number      131
_space_group_name_Hall           '-P 4c 2'
loop_
_symmetry_equiv_pos_site_id
_symmetry_equiv_pos_as_xyz
1 x,y,z
2 -y,x,1/2+z
3 -x,-y,z
4 y,-x,1/2+z
5 x,-y,-z
6 -x,y,-z
7 y,x,1/2-z
8 -y,-x,1/2-z
9 -x,-y,-z
10 y,-x,1/2-z
11 x,y,-z
12 -y,x,1/2-z
13 -x,y,z
14 x,-y,z
15 -y,-x,1/2+z
16 y,x,1/2+z
_cell_length_a                   22.8727(2)
_cell_length_b                   22.8727(2)
_cell_length_c                   19.0590(3)
_cell_angle_alpha                90
_cell_angle_beta                 90
_cell_angle_gamma                90
_cell_volume                     9970.91
loop_
_atom_site_label
_atom_site_type_symbol
_atom_site_fract_x
_atom_site_fract_y
_atom_site_fract_z
Zr1 Zr 0.10741(7) 0.5000 0.0000
Zr2 Zr 0.0000 0.42335(7) 0.09233(8)
F1 F 0.3689(9) 0.2963(11) 0.1320(16)
F2 F 0.3825(7) 0.3611(15) 0.2090(12)
F3 F 0.3580(10) 0.3852(13) 0.1067(14)
O1 O 0.0543(7) 0.5808(8) 0.0000
O2 O 0.0529(6) 0.5000 0.0913(9)
O3 O 0.0000 0.3254(6) 0.0845(11)
O4 O 0.1581(4) 0.4412(4) 0.0697(5)
O5 O 0.0880(4) 0.3936(5) 0.1275(5)
O6 O 0.0000 0.4020(9) 0.1969(12)
O7 O 0.0000 0.3058(8) 0.2071(12)
N1 N 0.044(4) 0.2842(12) 0.4708(14)
H1 H 0.0385 0.2481 0.4532
H2 H 0.0502 0.2890 0.5171
C1 C 0.2661(4) 0.3085(4) 0.2333(6)
C2 C 0.2841(5) 0.3427(5) 0.1767(6)
C3 C 0.2431(5) 0.3741(4) 0.1381(5)
H3 H 0.2556 0.3972 0.0994
C4 C 0.1849(5) 0.3722(4) 0.1552(6)
C5 C 0.1657(5) 0.3384(5) 0.2110(6)
H4 H 0.1253 0.3369 0.2227
C6 C 0.2067(5) 0.3067(6) 0.2499(7)
H5 H 0.1939 0.2835 0.2883
C7 C 0.3472(6) 0.3459(8) 0.1570(9)
C8 C 0.1407(4) 0.4048(3) 0.1144(4)
C9 C 0.0358(9) 0.3999(11) 0.5284(8)
C10 C 0.0274(9) 0.3875(10) 0.4520(8)
C11 C 0.0346(14) 0.3318(9) 0.4254(10)
C12 C 0.0254(13) 0.3214(8) 0.3542(9)
H6 H 0.0272 0.2830 0.3341
C13 C 0.0091(13) 0.3667(8) 0.3101(9)
C14 C 0.0000 0.4223(7) 0.3376(11)
H7 H -0.0054 0.4552 0.3080
C15 C 0.0116(15) 0.4332(10) 0.4075(10)
H8 H 0.0099 0.4717 0.4275
C16 C -0.0000 0.3560(8) 0.2328(9)
F1F F 0.2963(11) 0.3689(9) 0.3680(16)
F2F F 0.3611(15) 0.3825(7) 0.2910(12)
F3F F 0.3852(13) 0.3580(10) 0.3933(14)
O4F O 0.4412(4) 0.1581(4) 0.4303(5)
O5F O 0.3936(5) 0.0880(4) 0.3725(5)
C1F C 0.3085(4) 0.2661(4) 0.2667(6)
C2F C 0.3427(5) 0.2841(5) 0.3233(6)
C3F C 0.3741(4) 0.2431(5) 0.3619(5)
H3F H 0.3972 0.2556 0.4006
C4F C 0.3722(4) 0.1849(5) 0.3448(6)
C5F C 0.3384(5) 0.1657(5) 0.2890(6)
H4F H 0.3369 0.1253 0.2773
C6F C 0.3067(6) 0.2067(5) 0.2501(7)
H5F H 0.2835 0.1939 0.2117
C7F C 0.3459(8) 0.3472(6) 0.3430(9)
C8F C 0.4048(3) 0.1407(4) 0.3856(4)
O6B O 0.0000 0.5980(9) 0.1969(12)
O7B O 0.0000 0.6942(8) 0.2071(12)
N1B N -0.044(4) 0.7158(12) 0.4708(14)
H1B H -0.0385 0.7519 0.4532
H2B H -0.0502 0.7110 0.5171
C9B C -0.0358(9) 0.6001(11) 0.5284(8)
C10B C -0.0274(9) 0.6125(10) 0.4520(8)
C11B C -0.0346(14) 0.6682(9) 0.4254(10)
C12B C -0.0254(13) 0.6786(8) 0.3542(9)
H6B H -0.0272 0.7170 0.3341
C13B C -0.0091(13) 0.6333(8) 0.3101(9)
C14B C 0.0000 0.5777(7) 0.3376(11)
H7B H 0.0054 0.5448 0.3080
C15B C -0.0116(15) 0.5668(10) 0.4075(10)
H8B H -0.0099 0.5283 0.4275
C16B C -0.0000 0.6440(8) 0.2328(9)
O6D O 0.0000 0.5980(9) 0.8031(12)
O7D O 0.0000 0.6942(8) 0.7929(12)
N1D N 0.044(4) 0.7158(12) 0.5292(14)
H1D H 0.0385 0.7519 0.5468
H2D H 0.0502 0.7110 0.4829
C9D C 0.0358(9) 0.6001(11) 0.4716(8)
C10D C 0.0274(9) 0.6125(10) 0.5480(8)
C11D C 0.0346(14) 0.6682(9) 0.5746(10)
C12D C 0.0254(13) 0.6786(8) 0.6458(9)
H6D H 0.0272 0.7170 0.6659
C13D C 0.0091(13) 0.6333(8) 0.6899(9)
C14D C 0.0000 0.5777(7) 0.6624(11)
H7D H -0.0054 0.5448 0.6920
C15D C 0.0116(15) 0.5668(10) 0.5925(10)
H8D H 0.0099 0.5283 0.5725
C16D C 0.0000 0.6440(8) 0.7672(9)
O6E O 0.0000 0.4020(9) 0.8031(12)
O7E O 0.0000 0.3058(8) 0.7929(12)
N1E N -0.044(4) 0.2842(12) 0.5292(14)
H1E H -0.0385 0.2481 0.5468
H2E H -0.0502 0.2890 0.4829
C9E C -0.0358(9) 0.3999(11) 0.4716(8)
C10E C -0.0274(9) 0.3875(10) 0.5480(8)
C11E C -0.0346(14) 0.3318(9) 0.5746(10)
C12E C -0.0254(13) 0.3214(8) 0.6458(9)
H6E H -0.0272 0.2830 0.6659
C13E C -0.0091(13) 0.3667(8) 0.6899(9)
C14E C 0.0000 0.4223(7) 0.6624(11)
H7E H 0.0054 0.4552 0.6920
C15E C -0.0116(15) 0.4332(10) 0.5925(10)
H8E H -0.0099 0.4717 0.5725
C16E C 0.0000 0.3560(8) 0.7672(9)
N1H N -0.044(4) 0.7158(12) 0.5292(14)
H1H H -0.0385 0.7519 0.5468
H2H H -0.0502 0.7110 0.4829
C9H C -0.0358(9) 0.6001(11) 0.4716(8)
C10H C -0.0274(9) 0.6125(10) 0.5480(8)
C11H C -0.0346(14) 0.6682(9) 0.5746(10)
C12H C -0.0254(13) 0.6786(8) 0.6458(9)
H6H H -0.0272 0.7170 0.6659
C13H C -0.0091(13) 0.6333(8) 0.6899(9)
H7H H 0.0054 0.5448 0.6920
C15H C -0.0116(15) 0.5668(10) 0.5925(10)
H8H H -0.0099 0.5283 0.5725
N1J N 0.044(4) 0.2842(12) 0.5292(14)
H1J H 0.0385 0.2481 0.5468
H2J H 0.0502 0.2890 0.4829
C9J C 0.0358(9) 0.3999(11) 0.4716(8)
C10J C 0.0274(9) 0.3875(10) 0.5480(8)
C11J C 0.0346(14) 0.3318(9) 0.5746(10)
C12J C 0.0254(13) 0.3214(8) 0.6458(9)
H6J H 0.0272 0.2830 0.6659
C13J C 0.0091(13) 0.3667(8) 0.6899(9)
H7J H -0.0054 0.4552 0.6920
C15J C 0.0116(15) 0.4332(10) 0.5925(10)
H8J H 0.0099 0.4717 0.5725
N1L N -0.044(4) 0.2842(12) 0.4708(14)
H1L H -0.0385 0.2481 0.4532
H2L H -0.0502 0.2890 0.5171
C9L C -0.0358(9) 0.3999(11) 0.5284(8)
C10L C -0.0274(9) 0.3875(10) 0.4520(8)
C11L C -0.0346(14) 0.3318(9) 0.4254(10)
C12L C -0.0254(13) 0.3214(8) 0.3542(9)
H6L H -0.0272 0.2830 0.3341
C13L C -0.0091(13) 0.3667(8) 0.3101(9)
H7L H 0.0054 0.4552 0.3080
C15L C -0.0116(15) 0.4332(10) 0.4075(10)
H8L H -0.0099 0.4717 0.4275
N1M N 0.044(4) 0.7158(12) 0.4708(14)
H1M H 0.0385 0.7519 0.4532
H2M H 0.0502 0.7110 0.5171
C9M C 0.0358(9) 0.6001(11) 0.5284(8)
C10M C 0.0274(9) 0.6125(10) 0.4520(8)
C11M C 0.0346(14) 0.6682(9) 0.4254(10)
C12M C 0.0254(13) 0.6786(8) 0.3542(9)
H6M H 0.0272 0.7170 0.3341
C13M C 0.0091(13) 0.6333(8) 0.3101(9)
H7M H -0.0054 0.5448 0.3080
C15M C 0.0116(15) 0.5668(10) 0.4075(10)
H8M H 0.0099 0.5283 0.4275
Zr1B Zr -0.10741(7) 0.5000 0.0000
Zr2B Zr 0.0000 0.57665(7) 0.09233(8)
F1B F -0.3689(9) 0.7037(11) 0.1320(16)
F2B F -0.3825(7) 0.6389(15) 0.2090(12)
F3B F -0.3580(10) 0.6148(13) 0.1067(14)
O1B O -0.0543(7) 0.4192(8) 0.0000
O2B O -0.0529(6) 0.5000 0.0913(9)
O3B O -0.0000 0.6746(6) 0.0845(11)
O4B O -0.1581(4) 0.5588(4) 0.0697(5)
O5B O -0.0880(4) 0.6064(5) 0.1275(5)
C1B C -0.2661(4) 0.6915(4) 0.2333(6)
C2B C -0.2841(5) 0.6573(5) 0.1767(6)
C3B C -0.2431(5) 0.6259(4) 0.1381(5)
H3B H -0.2556 0.6028 0.0994
C4B C -0.1849(5) 0.6278(4) 0.1552(6)
C5B C -0.1657(5) 0.6616(5) 0.2110(6)
H4B H -0.1253 0.6631 0.2227
C6B C -0.2067(5) 0.6933(6) 0.2499(7)
H5B H -0.1939 0.7165 0.2883
C7B C -0.3472(6) 0.6541(8) 0.1570(9)
C8B C -0.1407(4) 0.5952(3) 0.1144(4)
F1G F -0.2963(11) 0.6311(9) 0.3680(16)
F2G F -0.3611(15) 0.6175(7) 0.2910(12)
F3G F -0.3852(13) 0.6420(10) 0.3933(14)
O4G O -0.4412(4) 0.8419(4) 0.4303(5)
O5G O -0.3936(5) 0.9120(4) 0.3725(5)
C1G C -0.3085(4) 0.7339(4) 0.2667(6)
C2G C -0.3427(5) 0.7159(5) 0.3233(6)
C3G C -0.3741(4) 0.7569(5) 0.3619(5)
H3G H -0.3972 0.7444 0.4006
C4G C -0.3722(4) 0.8151(5) 0.3448(6)
C5G C -0.3384(5) 0.8343(5) 0.2890(6)
H4G H -0.3369 0.8747 0.2773
C6G C -0.3067(6) 0.7933(5) 0.2501(7)
H5G H -0.2835 0.8061 0.2117
C7G C -0.3459(8) 0.6528(6) 0.3430(9)
C8G C -0.4048(3) 0.8593(4) 0.3856(4)
Zr2D Zr 0.0000 0.57665(7) -0.09233(8)
O1D O 0.0543(7) 0.4192(8) 0.0000
O2D O 0.0529(6) 0.5000 -0.0913(9)
O3D O -0.0000 0.6746(6) -0.0845(11)
Zr2E Zr 0.0000 0.42335(7) -0.09233(8)
O1E O -0.0543(7) 0.5808(8) 0.0000
O2E O -0.0529(6) 0.5000 -0.0913(9)
O3E O 0.0000 0.3254(6) -0.0845(11)
F1L F -0.3689(9) 0.2963(11) 0.1320(16)
F2L F -0.3825(7) 0.3611(15) 0.2090(12)
F3L F -0.3580(10) 0.3852(13) 0.1067(14)
O4L O -0.1581(4) 0.4412(4) 0.0697(5)
O5L O -0.0880(4) 0.3936(5) 0.1275(5)
C1L C -0.2661(4) 0.3085(4) 0.2333(6)
C2L C -0.2841(5) 0.3427(5) 0.1767(6)
C3L C -0.2431(5) 0.3741(4) 0.1381(5)
H3L H -0.2556 0.3972 0.0994
C4L C -0.1849(5) 0.3722(4) 0.1552(6)
C5L C -0.1657(5) 0.3384(5) 0.2110(6)
H4L H -0.1253 0.3369 0.2227
C6L C -0.2067(5) 0.3067(6) 0.2499(7)
H5L H -0.1939 0.2835 0.2883
C7L C -0.3472(6) 0.3459(8) 0.1570(9)
C8L C -0.1407(4) 0.4048(3) 0.1144(4)
F1K F -0.2963(11) 0.3689(9) 0.3680(16)
F2K F -0.3611(15) 0.3825(7) 0.2910(12)
F3K F -0.3852(13) 0.3580(10) 0.3933(14)
O4K O -0.4412(4) 0.1581(4) 0.4303(5)
O5K O -0.3936(5) 0.0880(4) 0.3725(5)
C1K C -0.3085(4) 0.2661(4) 0.2667(6)
C2K C -0.3427(5) 0.2841(5) 0.3233(6)
C3K C -0.3741(4) 0.2431(5) 0.3619(5)
H3K H -0.3972 0.2556 0.4006
C4K C -0.3722(4) 0.1849(5) 0.3448(6)
C5K C -0.3384(5) 0.1657(5) 0.2890(6)
H4K H -0.3369 0.1253 0.2773
C6K C -0.3067(6) 0.2067(5) 0.2501(7)
H5K H -0.2835 0.1939 0.2117
C7K C -0.3459(8) 0.3472(6) 0.3430(9)
C8K C -0.4048(3) 0.1407(4) 0.3856(4)
F1M F 0.3689(9) 0.7037(11) 0.1320(16)
F2M F 0.3825(7) 0.6389(15) 0.2090(12)
F3M F 0.3580(10) 0.6148(13) 0.1067(14)
O4M O 0.1581(4) 0.5588(4) 0.0697(5)
O5M O 0.0880(4) 0.6064(5) 0.1275(5)
C1M C 0.2661(4) 0.6915(4) 0.2333(6)
C2M C 0.2841(5) 0.6573(5) 0.1767(6)
C3M C 0.2431(5) 0.6259(4) 0.1381(5)
H3M H 0.2556 0.6028 0.0994
C4M C 0.1849(5) 0.6278(4) 0.1552(6)
C5M C 0.1657(5) 0.6616(5) 0.2110(6)
H4M H 0.1253 0.6631 0.2227
C6M C 0.2067(5) 0.6933(6) 0.2499(7)
H5M H 0.1939 0.7165 0.2883
C7M C 0.3472(6) 0.6541(8) 0.1570(9)
C8M C 0.1407(4) 0.5952(3) 0.1144(4)
F1I F 0.2963(11) 0.6311(9) 0.3680(16)
F2I F 0.3611(15) 0.6175(7) 0.2910(12)
F3I F 0.3852(13) 0.6420(10) 0.3933(14)
O4I O 0.4412(4) 0.8419(4) 0.4303(5)
O5I O 0.3936(5) 0.9120(4) 0.3725(5)
C1I C 0.3085(4) 0.7339(4) 0.2667(6)
C2I C 0.3427(5) 0.7159(5) 0.3233(6)
C3I C 0.3741(4) 0.7569(5) 0.3619(5)
H3I H 0.3972 0.7444 0.4006
C4I C 0.3722(4) 0.8151(5) 0.3448(6)
C5I C 0.3384(5) 0.8343(5) 0.2890(6)
H4I H 0.3369 0.8747 0.2773
C6I C 0.3067(6) 0.7933(5) 0.2501(7)
H5I H 0.2835 0.8061 0.2117
C7I C 0.3459(8) 0.6528(6) 0.3430(9)
C8I C 0.4048(3) 0.8593(4) 0.3856(4)
Zr1A Zr -0.5000 0.10741(7) 0.5000
Zr1A_2 Zr 0.5000 0.10741(7) 0.5000
Zr1C Zr -0.5000 0.89259(7) 0.5000
Zr1C_2 Zr 0.5000 0.89259(7) 0.5000
Zr2D_2 Zr 0.0000 0.57665(7) 0.90767(8)
Zr2E_2 Zr 0.0000 0.42335(7) 0.90767(8)
Zr2F Zr 0.42335(7) 0.0000 0.40767(8)
Zr2F_2 Zr 0.42335(7) 1.0000 0.40767(8)
Zr2G Zr -0.42335(7) 0.0000 0.40767(8)
Zr2G_2 Zr -0.42335(7) 1.0000 0.40767(8)
O4D O 0.1581(4) 0.5588(4) -0.0697(5)
O4E O -0.1581(4) 0.4412(4) -0.0697(5)
O4H O -0.1581(4) 0.5588(4) -0.0697(5)
O4J O 0.1581(4) 0.4412(4) -0.0697(5)
O5D O 0.0880(4) 0.6064(5) -0.1275(5)
O5E O -0.0880(4) 0.3936(5) -0.1275(5)
O5H O -0.0880(4) 0.6064(5) -0.1275(5)
O5J O 0.0880(4) 0.3936(5) -0.1275(5)
O6D_2 O 0.0000 0.5980(9) -0.1969(12)
O6E_2 O -0.0000 0.4020(9) -0.1969(12)
loop_
_geom_bond_atom_site_label_1
_geom_bond_atom_site_label_2
_geom_bond_site_symmetry_1
_geom_bond_site_symmetry_2
Zr1 O1 1_555 1_555
Zr2 O2 1_555 1_555
F1 C7 1_555 1_555
F2 C7 1_555 1_555
F3 C7 1_555 1_555
O1 Zr2B 1_555 1_555
O2 Zr1 1_555 1_555
O3 Zr2 1_555 1_555
O4 Zr1 1_555 1_555
O5 Zr2 1_555 1_555
O6 Zr2 1_555 1_555
O7 C16 1_555 1_555
N1 H1 1_555 1_555
H2 N1 1_555 1_555
C1 C2 1_555 1_555
C2 C3 1_555 1_555
C3 H3 1_555 1_555
C4 C3 1_555 1_555
C5 C4 1_555 1_555
H4 C5 1_555 1_555
C6 C1 1_555 1_555
H5 C6 1_555 1_555
C7 C2 1_555 1_555
C8 O4 1_555 1_555
C9 C10 1_555 1_555
C10 C11 1_555 1_555
C11 N1 1_555 1_555
C12 C11 1_555 1_555
H6 C12 1_555 1_555
C13 C12 1_555 1_555
C14 C13 1_555 1_555
H7 C14 1_555 1_555
C15 C10 1_555 1_555
H8 C15 1_555 1_555
C16 O6 1_555 1_555
F1F C7F 1_555 1_555
F2F C7F 1_555 1_555
F3F C7F 1_555 1_555
O4F C8F 1_555 1_555
O5F C8F 1_555 1_555
C1F C1 1_555 1_555
C2F C1F 1_555 1_555
C3F C2F 1_555 1_555
H3F C3F 1_555 1_555
C4F C3F 1_555 1_555
C5F C4F 1_555 1_555
H4F C5F 1_555 1_555
C6F C1F 1_555 1_555
H5F C6F 1_555 1_555
C7F C2F 1_555 1_555
C8F C4F 1_555 1_555
O6B C16B 1_555 1_555
O7B C16B 1_555 1_555
N1B H1B 1_555 1_555
H2B N1B 1_555 1_555
C9B C10B 1_555 1_555
C10B C11B 1_555 1_555
C11B N1B 1_555 1_555
C12B C11B 1_555 1_555
H6B C12B 1_555 1_555
C13B C12B 1_555 1_555
C14B C13B 1_555 1_555
H7B C14B 1_555 1_555
C15B C10B 1_555 1_555
H8B C15B 1_555 1_555
C16B C13B 1_555 1_555
O6D C16D 1_555 1_555
O7D C16D 1_555 1_555
N1D H1D 1_555 1_555
H2D N1D 1_555 1_555
C9D C10B 1_555 1_555
C10D C9B 1_555 1_555
C11D N1D 1_555 1_555
C12D C11D 1_555 1_555
H6D C12D 1_555 1_555
C13D C12D 1_555 1_555
C14D C13D 1_555 1_555
H7D C14D 1_555 1_555
C15D C9B 1_555 1_555
H8D C15D 1_555 1_555
C16D C13D 1_555 1_555
O6E C16E 1_555 1_555
O7E C16E 1_555 1_555
N1E H1E 1_555 1_555
H2E N1E 1_555 1_555
C9E C10 1_555 1_555
C10E C9 1_555 1_555
C11E N1E 1_555 1_555
C12E C11E 1_555 1_555
H6E C12E 1_555 1_555
C13E C12E 1_555 1_555
C14E C13E 1_555 1_555
H7E C14E 1_555 1_555
C15E C9 1_555 1_555
H8E C15E 1_555 1_555
C16E C13E 1_555 1_555
N1H N1B 1_555 1_555
H1H N1H 1_555 1_555
H2H N1H 1_555 1_555
C9H C9B 1_555 1_555
C10H C10D 1_555 1_555
C11H C9B 1_555 1_555
C12H C12D 1_555 1_555
H6H C12H 1_555 1_555
C13H C12D 1_555 1_555
H7H C14D 1_555 1_555
C15H C9B 1_555 1_555
H8H C15D 1_555 1_555
N1J N1 1_555 1_555
H1J N1J 1_555 1_555
H2J N1J 1_555 1_555
C9J C9 1_555 1_555
C10J C10E 1_555 1_555
C11J C9 1_555 1_555
C12J C12E 1_555 1_555
H6J C12J 1_555 1_555
C13J C12E 1_555 1_555
H7J C14E 1_555 1_555
C15J C9 1_555 1_555
H8J C15E 1_555 1_555
N1L N1E 1_555 1_555
H1L N1L 1_555 1_555
H2L N1L 1_555 1_555
C9L C9 1_555 1_555
C10L C10 1_555 1_555
C11L C11 1_555 1_555
C12L C12 1_555 1_555
H6L C12L 1_555 1_555
C13L C12 1_555 1_555
H7L C14 1_555 1_555
C15L C10 1_555 1_555
H8L C15 1_555 1_555
N1M N1D 1_555 1_555
H1M N1M 1_555 1_555
H2M N1M 1_555 1_555
C9M C9B 1_555 1_555
C10M C10B 1_555 1_555
C11M C11B 1_555 1_555
C12M C12B 1_555 1_555
H6M C12M 1_555 1_555
C13M C12B 1_555 1_555
H7M C14B 1_555 1_555
C15M C10B 1_555 1_555
H8M C15B 1_555 1_555
Zr1B O1B 1_555 1_555
Zr2B O2 1_555 1_555
F1B C7B 1_555 1_555
F2B C7B 1_555 1_555
F3B C7B 1_555 1_555
O1B Zr2 1_555 1_555
O2B Zr2 1_555 1_555
O3B Zr2B 1_555 1_555
O4B Zr1B 1_555 1_555
O5B Zr2B 1_555 1_555
C1B C2B 1_555 1_555
C2B C3B 1_555 1_555
C3B H3B 1_555 1_555
C4B C3B 1_555 1_555
C5B C4B 1_555 1_555
H4B C5B 1_555 1_555
C6B C1B 1_555 1_555
H5B C6B 1_555 1_555
C7B C2B 1_555 1_555
C8B O4B 1_555 1_555
F1G C7G 1_555 1_555
F2G C7G 1_555 1_555
F3G C7G 1_555 1_555
O4G C8G 1_555 1_555
O5G C8G 1_555 1_555
C1G C1B 1_555 1_555
C2G C1G 1_555 1_555
C3G C2G 1_555 1_555
H3G C3G 1_555 1_555
C4G C3G 1_555 1_555
C5G C4G 1_555 1_555
H4G C5G 1_555 1_555
C6G C1G 1_555 1_555
H5G C6G 1_555 1_555
C7G C2G 1_555 1_555
C8G C4G 1_555 1_555
Zr2D O1 1_555 1_555
O1D Zr1 1_555 1_555
O2D Zr1 1_555 1_555
O3D Zr2D 1_555 1_555
Zr2E O1B 1_555 1_555
O1E Zr1B 1_555 1_555
O2E Zr1B 1_555 1_555
O3E Zr2E 1_555 1_555
F1L C7L 1_555 1_555
F2L C7L 1_555 1_555
F3L C7L 1_555 1_555
O4L Zr1B 1_555 1_555
O5L Zr2 1_555 1_555
C1L C2L 1_555 1_555
C2L C3L 1_555 1_555
C3L H3L 1_555 1_555
C4L C3L 1_555 1_555
C5L C4L 1_555 1_555
H4L C5L 1_555 1_555
C6L C1L 1_555 1_555
H5L C6L 1_555 1_555
C7L C2L 1_555 1_555
C8L O4L 1_555 1_555
F1K C7K 1_555 1_555
F2K C7K 1_555 1_555
F3K C7K 1_555 1_555
O4K C8K 1_555 1_555
O5K C8K 1_555 1_555
C1K C1L 1_555 1_555
C2K C1K 1_555 1_555
C3K C2K 1_555 1_555
H3K C3K 1_555 1_555
C4K C3K 1_555 1_555
C5K C4K 1_555 1_555
H4K C5K 1_555 1_555
C6K C1K 1_555 1_555
H5K C6K 1_555 1_555
C7K C2K 1_555 1_555
C8K C4K 1_555 1_555
F1M C7M 1_555 1_555
F2M C7M 1_555 1_555
F3M C7M 1_555 1_555
O4M Zr1 1_555 1_555
O5M Zr2B 1_555 1_555
C1M C2M 1_555 1_555
C2M C3M 1_555 1_555
C3M H3M 1_555 1_555
C4M C3M 1_555 1_555
C5M C4M 1_555 1_555
H4M C5M 1_555 1_555
C6M C1M 1_555 1_555
H5M C6M 1_555 1_555
C7M C2M 1_555 1_555
C8M O4M 1_555 1_555
F1I C7I 1_555 1_555
F2I C7I 1_555 1_555
F3I C7I 1_555 1_555
O4I C8I 1_555 1_555
O5I C8I 1_555 1_555
C1I C1M 1_555 1_555
C2I C1I 1_555 1_555
C3I C2I 1_555 1_555
H3I C3I 1_555 1_555
C4I C3I 1_555 1_555
C5I C4I 1_555 1_555
H4I C5I 1_555 1_555
C6I C1I 1_555 1_555
H5I C6I 1_555 1_555
C7I C2I 1_555 1_555
C8I C4I 1_555 1_555
Zr1A O4K 1_555 1_555
Zr1A_2 O4F 1_555 1_555
Zr1C O4G 1_555 1_555
Zr1C_2 O4I 1_555 1_555
Zr2D_2 O6D 1_555 1_555
Zr2E_2 O6E 1_555 1_555
Zr2F O5F 1_555 1_555
Zr2F_2 O5I 1_555 1_555
Zr2G O5K 1_555 1_555
Zr2G_2 O5G 1_555 1_555
O4D Zr1 1_555 1_555
O4E Zr1B 1_555 1_555
O4H Zr1B 1_555 1_555
O4J Zr1 1_555 1_555
O5D Zr2D 1_555 1_555
O5E Zr2E 1_555 1_555
O5H Zr2D 1_555 1_555
O5J Zr2E 1_555 1_555
O6D_2 Zr2D 1_555 1_555
O6E_2 Zr2E 1_555 1_555
Zr2 O1D 1_555 1_555
O5 C8 1_555 1_555
C4 C8 1_555 1_555
C5 C6 1_555 1_555
C11 C9J 1_555 1_555
C13 C16 1_555 1_555
C13 C12L 1_555 1_555
C14 C15 1_555 1_555
C14 C13L 1_555 1_555
C14 C15L 1_555 1_555
C15 C9E 1_555 1_555
C15 C9J 1_555 1_555
C15 C10L 1_555 1_555
H8 C15L 1_555 1_555
C16 C13L 1_555 1_555
C5F C6F 1_555 1_555
O6B Zr2B 1_555 1_555
C11B C9H 1_555 1_555
C13B C12M 1_555 1_555
C14B C15B 1_555 1_555
C14B C13M 1_555 1_555
C14B C15M 1_555 1_555
C15B C9D 1_555 1_555
C15B C9H 1_555 1_555
C15B C10M 1_555 1_555
H8B C15M 1_555 1_555
C16B C13M 1_555 1_555
C9D C10D 1_555 1_555
C9D C9H 1_555 1_555
C9D C9M 1_555 1_555
C9D C11M 1_555 1_555
C9D C15M 1_555 1_555
C10D C11D 1_555 1_555
C10D C15D 1_555 1_555
C10D C15H 1_555 1_555
C11D C11H 1_555 1_555
C11D C9M 1_555 1_555
C13D C12H 1_555 1_555
C14D C15D 1_555 1_555
C14D C13H 1_555 1_555
C14D C15H 1_555 1_555
C15D C10H 1_555 1_555
C15D C9M 1_555 1_555
H8D C15H 1_555 1_555
C16D C13H 1_555 1_555
C9E C10E 1_555 1_555
C9E C9J 1_555 1_555
C9E C9L 1_555 1_555
C9E C11L 1_555 1_555
C9E C15L 1_555 1_555
C10E C11E 1_555 1_555
C10E C15E 1_555 1_555
C10E C15J 1_555 1_555
C11E C11J 1_555 1_555
C11E C9L 1_555 1_555
C13E C12J 1_555 1_555
C14E C15E 1_555 1_555
C14E C13J 1_555 1_555
C14E C15J 1_555 1_555
C15E C10J 1_555 1_555
C15E C9L 1_555 1_555
H8E C15J 1_555 1_555
C16E C13J 1_555 1_555
N1H C11H 1_555 1_555
C9H C10H 1_555 1_555
C9H C10M 1_555 1_555
C9H C15M 1_555 1_555
C10H C11H 1_555 1_555
C10H C15H 1_555 1_555
C10H C9M 1_555 1_555
C11H C12H 1_555 1_555
C12H C13H 1_555 1_555
C15H H8H 1_555 1_555
C15H C9M 1_555 1_555
N1J C11J 1_555 1_555
C9J C10J 1_555 1_555
C9J C10L 1_555 1_555
C9J C15L 1_555 1_555
C10J C11J 1_555 1_555
C10J C15J 1_555 1_555
C10J C9L 1_555 1_555
C11J C12J 1_555 1_555
C12J C13J 1_555 1_555
C15J H8J 1_555 1_555
C15J C9L 1_555 1_555
N1L C11L 1_555 1_555
C9L C10L 1_555 1_555
C10L C11L 1_555 1_555
C10L C15L 1_555 1_555
C11L C12L 1_555 1_555
C12L C13L 1_555 1_555
C15L H8L 1_555 1_555
N1M C11M 1_555 1_555
C9M C10M 1_555 1_555
C10M C11M 1_555 1_555
C10M C15M 1_555 1_555
C11M C12M 1_555 1_555
C12M C13M 1_555 1_555
C15M H8M 1_555 1_555
Zr1B O2B 1_555 1_555
Zr2B O2B 1_555 1_555
Zr2B O1E 1_555 1_555
O5B C8B 1_555 1_555
C4B C8B 1_555 1_555
C5B C6B 1_555 1_555
C5G C6G 1_555 1_555
Zr2D O2D 1_555 1_555
Zr2D O1E 1_555 1_555
Zr2D O2E 1_555 1_555
O1D Zr2E 1_555 1_555
O2D Zr2E 1_555 1_555
Zr2E O2E 1_555 1_555
O5L C8L 1_555 1_555
C4L C8L 1_555 1_555
C5L C6L 1_555 1_555
C5K C6K 1_555 1_555
O5M C8M 1_555 1_555
C4M C8M 1_555 1_555
C5M C6M 1_555 1_555
C5I C6I 1_555 1_555

#END
