
#######################################################################
#
#                 Cambridge Crystallographic Data Centre
#                                CCDC 
#
#######################################################################
#
# If this CIF has been generated from an entry in the Cambridge 
# Structural Database, then it will include bibliographic, chemical, 
# crystal, experimental, refinement or atomic coordinate data resulting 
# from the CCDC's data processing and validation procedures.
#
#######################################################################

data_OPUDIN
_chemical_formula_moiety         'C12 H24 N2 O38 P4 Zn14 2+'
_symmetry_cell_setting           triclinic
_symmetry_space_group_name_H-M   'P -1'
_symmetry_Int_Tables_number      2
_space_group_name_Hall           '-P 1'
loop_
_symmetry_equiv_pos_site_id
_symmetry_equiv_pos_as_xyz
1 x,y,z
2 -x,-y,-z
_cell_length_a                   5.5512(4)
_cell_length_b                   9.7858(5)
_cell_length_c                   12.9382(10)
_cell_angle_alpha                86.877(10)
_cell_angle_beta                 87.809(10)
_cell_angle_gamma                76.451(9)
_cell_volume                     682.031
loop_
_atom_site_label
_atom_site_type_symbol
_atom_site_fract_x
_atom_site_fract_y
_atom_site_fract_z
N1 N -0.3956(5) 0.5844(3) 0.5657(2)
H5 H -0.537(8) 0.661(5) 0.578(3)
H6 H -0.266(8) 0.600(4) 0.597(3)
C5 C -0.4539(7) 0.4508(4) 0.6042(3)
H9 H -0.491(7) 0.456(4) 0.672(3)
H10 H -0.301(7) 0.374(4) 0.597(3)
C6 C -0.3327(6) 0.5793(4) 0.4530(3)
H11 H -0.191(7) 0.513(4) 0.436(3)
H12 H -0.290(8) 0.663(5) 0.428(3)
N1A N -0.6044(5) 0.4156(3) 0.4343(2)
H5A H -0.463(8) 0.339(5) 0.422(3)
H6A H -0.734(8) 0.400(4) 0.403(3)
C5A C -0.5461(7) 0.5492(4) 0.3958(3)
H9A H -0.509(7) 0.544(4) 0.328(3)
H10A H -0.699(7) 0.626(4) 0.403(3)
C6A C -0.6673(6) 0.4207(4) 0.5470(3)
H11A H -0.809(7) 0.487(4) 0.564(3)
H12A H -0.710(8) 0.337(5) 0.572(3)
Zn1 Zn 0.08320(5) -0.37645(3) -0.18720(2)
Zn2 Zn -0.4675(2) 0.02099(12) -0.50723(10)
Zn3 Zn -0.19877(5) 0.07970(3) -0.08085(2)
P1 P 0.00321(12) -0.16412(8) -0.39353(5)
P2 P -0.23076(12) -0.22617(7) 0.01355(5)
O1 O -0.0176(4) -0.2935(2) -0.32506(15)
O2 O -0.1804(4) -0.1411(2) -0.48002(14)
O3 O 0.2691(4) -0.1749(2) -0.43310(16)
O4 O 0.0628(4) -0.0241(3) -0.22310(18)
H1 H 0.189(10) 0.000(5) -0.249(4)
O5 O -0.5140(4) 0.0561(2) -0.34939(16)
O6 O -0.4075(3) 0.0223(2) -0.18704(14)
O7 O -0.5077(3) -0.1866(2) -0.00322(14)
O8 O -0.1177(3) -0.0983(2) 0.01397(14)
O9 O -0.0956(4) -0.3344(2) -0.05883(16)
O10 O -0.3094(4) -0.4179(2) 0.15981(17)
H2 H -0.445(7) -0.382(4) 0.160(3)
O11 O 0.2210(3) -0.2762(2) 0.16656(15)
O12 O 0.1439(3) -0.4821(2) 0.21249(16)
O13 O 0.3992(5) -0.3080(3) -0.1767(2)
H3 H 0.398(8) -0.258(5) -0.133(4)
H4 H 0.516(18) -0.374(10) -0.185(7)
C1 C -0.0803(5) -0.0066(3) -0.3148(2)
H7 H -0.045(5) 0.081(3) -0.356(2)
C2 C -0.3515(5) 0.0256(3) -0.2815(2)
C3 C -0.1897(5) -0.3043(3) 0.1460(2)
H8 H -0.256(5) -0.229(3) 0.191(2)
C4 C 0.0766(5) -0.3587(3) 0.17643(19)
Zn1A Zn -1.08320(5) 0.37645(3) -0.81280(2)
Zn1_2 Zn -0.91680(5) 0.62355(3) -1.18720(2)
Zn1A_2 Zn -0.08320(5) -0.62355(3) 0.18720(2)
Zn2A Zn -0.5325(2) -0.02099(12) -0.49277(10)
Zn2_2 Zn -1.4675(2) 0.02099(12) -0.50723(10)
Zn2A_2 Zn 0.4675(2) -0.02099(12) -0.49277(10)
Zn3A Zn -0.80123(5) -0.07970(3) -0.91915(2)
Zn3_2 Zn -1.19877(5) 0.07970(3) -1.08085(2)
Zn3_3 Zn -0.19877(5) 0.07970(3) -1.08085(2)
Zn3A_2 Zn -0.80123(5) -0.07970(3) 0.08085(2)
Zn3A_3 Zn 0.19877(5) -0.07970(3) 0.08085(2)
P1A P -1.00321(12) 0.16412(8) -0.60647(5)
P2A P -0.76924(12) 0.22617(7) -1.01355(5)
O1A O -0.9824(4) 0.2935(2) -0.67494(15)
O2A O -0.8196(4) 0.1411(2) -0.51998(14)
O3A O -1.2691(4) 0.1749(2) -0.56690(16)
O3_2 O -0.7309(4) -0.1749(2) -0.43310(16)
O3A_2 O -0.2691(4) 0.1749(2) -0.56690(16)
O4A O -1.0628(4) 0.0241(3) -0.77690(18)
H1A H -1.189(10) 0.000(5) -0.751(4)
O5A O -0.4860(4) -0.0561(2) -0.65061(16)
O6A O -0.5925(3) -0.0223(2) -0.81296(14)
O7A O -0.4923(3) 0.1866(2) -0.99678(14)
O7_2 O -0.5077(3) -0.1866(2) -1.00322(14)
O7A_2 O -0.4923(3) 0.1866(2) 0.00322(14)
O8A O -0.8823(3) 0.0983(2) -1.01397(14)
O8_2 O -1.1177(3) -0.0983(2) -0.98603(14)
O8A_2 O 0.1177(3) 0.0983(2) -0.01397(14)
O9A O -0.9044(4) 0.3344(2) -0.94117(16)
O10A O -0.6906(4) 0.4179(2) -1.15981(17)
O10_2 O -1.3094(4) 0.5821(2) -0.84019(17)
O10A_2 O 0.3094(4) -0.5821(2) -0.15981(17)
H2A H -0.555(7) 0.382(4) -1.160(3)
O11A O -1.2210(3) 0.2762(2) -1.16656(15)
O11_2 O -0.7790(3) -0.2762(2) -0.83344(15)
O11A_2 O -0.2210(3) 0.2762(2) -0.16656(15)
O12A O -1.1439(3) 0.4821(2) -1.21249(16)
O12_2 O -0.8561(3) 0.5179(2) -0.78751(16)
O12A_2 O -0.1439(3) -0.5179(2) -0.21249(16)
O13A O -1.3992(5) 0.3080(3) -0.8233(2)
H3A H -1.398(8) 0.258(5) -0.867(4)
H4A H -1.516(18) 0.374(10) -0.815(7)
C1A C -0.9197(5) 0.0066(3) -0.6852(2)
H7A H -0.955(5) -0.081(3) -0.644(2)
C2A C -0.6485(5) -0.0256(3) -0.7185(2)
C3A C -0.8103(5) 0.3043(3) -1.1460(2)
H8A H -0.744(5) 0.229(3) -1.191(2)
C4A C -1.0766(5) 0.3587(3) -1.17643(19)
loop_
_geom_bond_atom_site_label_1
_geom_bond_atom_site_label_2
_geom_bond_site_symmetry_1
_geom_bond_site_symmetry_2
Zn1 O1 1_555 1_555
Zn2 O2 1_555 1_555
Zn3 O4 1_555 1_555
P1 O1 1_555 1_555
P2 O7 1_555 1_555
O2 P1 1_555 1_555
O3 P1 1_555 1_555
O4 H1 1_555 1_555
O5 Zn2 1_555 1_555
O6 Zn3 1_555 1_555
O7 Zn3A_2 1_555 1_555
O8 Zn3 1_555 1_555
O9 Zn1 1_555 1_555
O10 H2 1_555 1_555
O11 C4 1_555 1_555
O12 C4 1_555 1_555
O13 Zn1 1_555 1_555
H3 O13 1_555 1_555
H4 O13 1_555 1_555
N1 H5 1_555 1_555
H6 N1 1_555 1_555
C1 P1 1_555 1_555
H7 C1 1_555 1_555
C2 O5 1_555 1_555
C3 P2 1_555 1_555
H8 C3 1_555 1_555
C4 C3 1_555 1_555
C5 N1 1_555 1_555
H9 C5 1_555 1_555
H10 C5 1_555 1_555
C6 N1 1_555 1_555
H11 C6 1_555 1_555
H12 C6 1_555 1_555
Zn1A O1A 1_555 1_555
Zn1_2 O10A 1_555 1_555
Zn1A_2 O10 1_555 1_555
Zn2A Zn2 1_555 1_555
Zn2_2 O3A 1_555 1_555
Zn2A_2 O3 1_555 1_555
Zn3A O4A 1_555 1_555
Zn3_2 O8A 1_555 1_555
Zn3_3 O7A 1_555 1_555
Zn3A_3 O8 1_555 1_555
P1A O1A 1_555 1_555
P2A O7A 1_555 1_555
O2A Zn2 1_555 1_555
O3A P1A 1_555 1_555
O3_2 Zn2A 1_555 1_555
O3A_2 Zn2 1_555 1_555
O4A H1A 1_555 1_555
O5A Zn2 1_555 1_555
O6A Zn3A 1_555 1_555
O7_2 Zn3A 1_555 1_555
O7A_2 Zn3 1_555 1_555
O8A Zn3A 1_555 1_555
O8_2 Zn3A 1_555 1_555
O8A_2 Zn3 1_555 1_555
O9A Zn1A 1_555 1_555
O10A H2A 1_555 1_555
O10_2 Zn1A 1_555 1_555
O10A_2 Zn1 1_555 1_555
O11A Zn3_2 1_555 1_555
O11_2 Zn3A 1_555 1_555
O11A_2 Zn3 1_555 1_555
O12A Zn1_2 1_555 1_555
O12_2 Zn1A 1_555 1_555
O12A_2 Zn1 1_555 1_555
O13A Zn1A 1_555 1_555
H3A O13A 1_555 1_555
H4A O13A 1_555 1_555
N1A H5A 1_555 1_555
H6A N1A 1_555 1_555
C1A P1A 1_555 1_555
H7A C1A 1_555 1_555
C2A O5A 1_555 1_555
C3A P2A 1_555 1_555
H8A C3A 1_555 1_555
C4A O11A 1_555 1_555
C5A C6 1_555 1_555
H9A C5A 1_555 1_555
H10A C5A 1_555 1_555
C6A C5 1_555 1_555
H11A C6A 1_555 1_555
H12A C6A 1_555 1_555
P2 O8 1_555 1_555
P2 O9 1_555 1_555
O2 Zn2A 1_555 1_555
O4 C1 1_555 1_555
O5 Zn2A 1_555 1_555
O6 C2 1_555 1_555
O10 C3 1_555 1_555
O11 Zn3A_3 1_555 1_555
O12 Zn1A_2 1_555 1_555
C1 C2 1_555 1_555
Zn2A O2A 1_555 1_555
Zn2A O5A 1_555 1_555
Zn3_2 O8_2 1_555 1_555
Zn3A_3 O8A_2 1_555 1_555
P1A O2A 1_555 1_555
P2A O8A 1_555 1_555
P2A O9A 1_555 1_555
O4A C1A 1_555 1_555
O6A C2A 1_555 1_555
O10A C3A 1_555 1_555
O12A C4A 1_555 1_555
N1A C5A 1_555 1_555
N1A C6A 1_555 1_555
C1A C2A 1_555 1_555
C3A C4A 1_555 1_555

#END
