
#######################################################################
#
#                 Cambridge Crystallographic Data Centre
#                                CCDC 
#
#######################################################################
#
# If this CIF has been generated from an entry in the Cambridge 
# Structural Database, then it will include bibliographic, chemical, 
# crystal, experimental, refinement or atomic coordinate data resulting 
# from the CCDC's data processing and validation procedures.
#
#######################################################################

data_ESOROV
_chemical_formula_moiety         'C66 H58 Cd8 N4 O32'
_symmetry_cell_setting           trigonal
_symmetry_space_group_name_H-M   'P 32 2 1'
_symmetry_Int_Tables_number      154
_space_group_name_Hall           'P 32 2"'
loop_
_symmetry_equiv_pos_site_id
_symmetry_equiv_pos_as_xyz
1 x,y,z
2 -y,x-y,2/3+z
3 -x+y,-x,1/3+z
4 y,x,-z
5 -x,-x+y,2/3-z
6 x-y,-y,1/3-z
_cell_length_a                   15.398(8)
_cell_length_b                   15.398(8)
_cell_length_c                   25.456(14)
_cell_angle_alpha                90
_cell_angle_beta                 90
_cell_angle_gamma                120
_cell_volume                     5226.96
loop_
_atom_site_label
_atom_site_type_symbol
_atom_site_fract_x
_atom_site_fract_y
_atom_site_fract_z
O12 O 0.0000 0.6837(11) -0.1667
H28 H 0.0480 0.6703 -0.1644
H28D H -0.0480 0.6223 -0.1689
O13 O 0.1751(11) 0.4147(11) -0.0026(6)
H29 H 0.1950 0.4510 -0.0301
H30 H 0.2242 0.4063 0.0007
C1 C 0.5550(7) 1.0133(7) -0.2126(3)
H1 H 0.6188 1.0537 -0.2264
C2 C 0.1113(6) 0.1195(6) 0.1304(4)
C3 C 0.2605(5) 0.1141(5) 0.1199(3)
C4 C 0.2114(5) 0.0327(6) 0.0849(3)
H2 H 0.2463 0.0061 0.0679
C5 C 0.1127(6) -0.0052(5) 0.0767(3)
C6 C 0.0582(6) 0.0355(5) 0.0997(3)
H3 H -0.0105 0.0072 0.0944
C7 C 0.1018(6) 0.2599(6) 0.1599(4)
C8 C 0.1117(8) 0.2975(6) 0.2088(4)
H4 H 0.0845 0.2540 0.2371
C9 C 0.3715(6) 0.1584(6) 0.1296(3)
C10 C 0.1611(8) 0.3988(7) 0.2173(4)
H5 H 0.1716 0.4238 0.2514
C11 C 0.1743(6) -0.3175(6) -0.0692(4)
C12 C 0.1534(7) -0.2493(7) -0.0384(4)
C13 C 0.1109(7) -0.2020(8) 0.0443(5)
H6 H 0.1047 -0.2092 0.0806
C14 C 0.5447(8) 1.0042(10) -0.1583(4)
H7 H 0.5993 1.0418 -0.1364
C15 C 0.0922(7) -0.1383(7) 0.0213(4)
C16 C 0.1419(7) -0.1751(7) -0.0600(4)
H8 H 0.1557 -0.1613 -0.0956
C17 C 0.4527(10) 0.9388(9) -0.1376(4)
C18 C 0.2097(5) 0.1586(6) 0.1414(3)
H9 H 0.2427 0.2144 0.1632
C19 C 0.3766(12) 0.8939(10) -0.1720(4)
H10 H 0.3127 0.8509 -0.1590
C20 C 0.1407(7) -0.2617(7) 0.0149(4)
H11 H 0.1516 -0.3089 0.0319
Cd1 Cd 0.34980(4) 0.77856(4) 0.19415(2)
Cd2 Cd 0.49186(10) 0.99375(19) -0.33641(11)
N1 N 0.4805(6) 0.9685(6) -0.2452(3)
O1 O 0.1678(5) -0.3165(5) -0.1192(2)
C21 C 0.1944(7) 0.4625(6) 0.1761(3)
O2 O 0.4099(4) 0.2247(5) 0.1632(3)
C22 C 0.1162(11) 0.3122(11) 0.1202(6)
H12 H 0.0967 0.2843 0.0869
O3 O 0.4180(4) 0.1261(5) 0.1051(2)
C23 C 0.2506(6) 0.5759(6) 0.1826(3)
C24 C 0.1647(12) 0.4184(12) 0.1288(7)
H13 H 0.1762 0.4595 0.0998
O4 O 0.0542(4) 0.1551(4) 0.1539(3)
O5 O 0.2556(4) 0.6116(4) 0.2272(2)
O6 O 0.2012(5) -0.3707(5) -0.0488(3)
O7 O 0.0512(5) -0.0904(5) 0.0466(3)
O8 O 0.2891(6) 0.6313(4) 0.1444(3)
O9 O 0.3422(10) 0.988(2) -0.3377(13)
H14 H 0.3339 1.0479 -0.3253
H15 H 0.2743 0.9287 -0.3301
O10 O 0.3971(7) 0.8338(5) -0.3467(3)
H16 H 0.3919 0.8114 -0.3778
H17 H 0.4103 0.7994 -0.3251
C25 C 0.1107(7) -0.1188(8) -0.0316(4)
H18 H 0.1024 -0.0693 -0.0478
C26 C 0.3885(10) 0.9082(8) -0.2258(4)
H19 H 0.3335 0.8764 -0.2481
O11 O 0.6259(9) 0.9618(11) -0.3340(9)
C27 C 0.4392(13) 0.9618(13) -0.0794(6)
H20 H 0.4810 1.0324 -0.0710
H21 H 0.3698 0.9405 -0.0713
C28 C 0.4727(16) 0.9008(15) -0.0526(6)
H22 H 0.5412 0.9218 -0.0626
H23 H 0.4306 0.8310 -0.0624
C29 C 0.4665(8) 0.9131(8) 0.0092(3)
C30 C 0.4413(10) 0.9664(8) 0.0441(4)
H24 H 0.4464 1.0268 0.0337
C31 C 0.4084(10) 0.9296(9) 0.0944(4)
H25 H 0.3915 0.9653 0.1177
N2 N 0.4007(9) 0.8395(9) 0.1099(3)
C32 C 0.4259(11) 0.7861(8) 0.0750(4)
H26 H 0.4208 0.7258 0.0854
C33 C 0.4588(10) 0.8229(9) 0.0247(4)
H27 H 0.4757 0.7872 0.0014
O9E O 0.3542(22) 1.012(2) -0.3290(13)
H14E H 0.2860 0.9521 -0.3414
H15E H 0.3456 1.0713 -0.3366
O11E O 0.6641(14) 1.0382(11) -0.3327(9)
C1E C 0.5417(10) 0.9867(7) -0.4541(3)
H1E H 0.5651 0.9463 -0.4403
C2E C 0.9918(8) 1.8805(6) -0.7971(4)
C3E C 1.1464(7) 1.8859(5) -0.7866(3)
C4E C 1.1787(8) 1.9673(6) -0.7516(3)
H2E H 1.2402 1.9939 -0.7346
C5E C 1.1179(8) 2.0052(5) -0.7434(3)
C6E C 1.0227(8) 1.9645(5) -0.7664(3)
H3E H 0.9823 1.9928 -0.7611
C7E C 0.8419(8) 1.7401(6) -0.8266(4)
C8E C 0.8142(10) 1.7025(6) -0.8755(4)
H4E H 0.8305 1.7460 -0.9038
C9E C 1.2131(8) 1.8416(6) -0.7963(3)
C10E C 0.7623(11) 1.6012(7) -0.8840(4)
H5E H 0.7478 1.5762 -0.9181
C11E C 1.4918(8) 2.3175(6) -0.5975(4)
C12E C 1.4027(10) 2.2493(7) -0.6283(4)
C13E C 1.3129(11) 2.2020(8) -0.7110(5)
H6E H 1.3139 2.2092 -0.7473
C14E C 0.5405(13) 0.9958(10) -0.5084(4)
H7E H 0.5575 0.9582 -0.5303
C15E C 1.2305(10) 2.1383(7) -0.6880(4)
C16E C 1.3170(10) 2.1751(7) -0.6067(4)
H8E H 1.3170 2.1613 -0.5711
C17E C 0.5139(13) 1.0612(9) -0.5291(4)
C18E C 1.0511(8) 1.8414(6) -0.8081(3)
H9E H 1.0283 1.7856 -0.8299
C19E C 0.4827(16) 1.1061(10) -0.4947(4)
H10E H 0.4618 1.1491 -0.5077
C20E C 1.4024(10) 2.2617(7) -0.6816(4)
H11E H 1.4605 2.3089 -0.6986
Cd1E Cd 0.57124(6) 1.22144(4) -0.86082(2)
Cd2E Cd 0.49811(21) 1.00625(19) -0.33026(11)
N1E N 0.5120(8) 1.0315(6) -0.4215(3)
O1E O 1.4843(7) 2.3165(5) -0.5475(2)
C21E C 0.7319(9) 1.5375(6) -0.8428(3)
O2E O 1.1852(6) 1.7753(5) -0.8299(3)
C22E C 0.8040(16) 1.6878(11) -0.7869(6)
H12E H 0.8124 1.7157 -0.7536
O3E O 1.2919(6) 1.8739(5) -0.7718(2)
C23E C 0.6747(8) 1.4241(6) -0.8493(3)
C24E C 0.7463(17) 1.5816(12) -0.7955(7)
H13E H 0.7167 1.5405 -0.7665
O4E O 0.8991(6) 1.8449(4) -0.8206(3)
O5E O 0.6440(6) 1.3884(4) -0.8939(2)
O6E O 1.5719(7) 2.3707(5) -0.6179(3)
O7E O 1.1416(7) 2.0904(5) -0.7133(3)
O8E O 0.6578(7) 1.3687(4) -0.8111(3)
O10E O 0.5633(9) 1.1662(5) -0.3200(3)
H16E H 0.5805 1.1886 -0.2889
H17E H 0.6109 1.2006 -0.3416
C25E C 1.2295(11) 2.1188(8) -0.6351(4)
H18E H 1.1717 2.0693 -0.6189
C26E C 0.4803(13) 1.0918(8) -0.4409(4)
H19E H 0.4571 1.1236 -0.4186
C27E C 0.4774(18) 1.0382(13) -0.5873(6)
H20E H 0.4486 0.9676 -0.5957
H21E H 0.4293 1.0595 -0.5954
C28E C 0.5719(22) 1.0992(15) -0.6141(6)
H22E H 0.6194 1.0782 -0.6041
H23E H 0.5996 1.1690 -0.6043
C29E C 0.5534(11) 1.0869(8) -0.6759(3)
C30E C 0.4749(13) 1.0336(8) -0.7108(4)
H24E H 0.4196 0.9732 -0.7004
C31E C 0.4788(13) 1.0704(9) -0.7611(4)
H25E H 0.4262 1.0347 -0.7844
N2E N 0.5612(13) 1.1605(9) -0.7766(3)
C32E C 0.6398(14) 1.2139(8) -0.7417(4)
H26E H 0.6950 1.2742 -0.7521
C33E C 0.6359(13) 1.1771(9) -0.6914(4)
H27E H 0.6885 1.2128 -0.6681
Cd1_2 Cd 1.34980(4) 1.77856(4) -0.80585(2)
Cd1A Cd 0.22144(4) -0.42876(6) -0.13918(2)
Cd1D Cd 1.65020(4) 2.42876(6) -0.52748(2)
Cd1E_2 Cd 0.57124(6) 0.22144(4) 0.13918(2)
O1B O 0.5157(7) 0.8322(5) 0.2141(2)
O1C O 0.6835(5) 1.1678(5) -0.8808(2)
O2_2 O 0.4099(4) 1.2247(5) -0.8368(3)
O2E_2 O 0.1852(6) 0.7753(5) 0.1701(3)
O3_2 O 0.4180(4) 1.1261(5) -0.8949(2)
O3E_2 O 0.2919(6) 0.8739(5) 0.2282(2)
O6B O 0.4281(7) 0.7988(5) 0.2845(3)
O6C O 0.6293(5) 1.2012(5) -0.9512(3)
loop_
_geom_bond_atom_site_label_1
_geom_bond_atom_site_label_2
_geom_bond_site_symmetry_1
_geom_bond_site_symmetry_2
C1 H1 1_555 1_555
C2 C6 1_555 1_555
C3 C4 1_555 1_555
C4 H2 1_555 1_555
C5 C4 1_555 1_555
C6 C5 1_555 1_555
H3 C6 1_555 1_555
C7 C8 1_555 1_555
C8 H4 1_555 1_555
C9 C3 1_555 1_555
C10 C8 1_555 1_555
H5 C10 1_555 1_555
C11 C12 1_555 1_555
C12 C16 1_555 1_555
C13 H6 1_555 1_555
C14 C1 1_555 1_555
H7 C14 1_555 1_555
C15 C13 1_555 1_555
C16 H8 1_555 1_555
C17 C14 1_555 1_555
C18 C2 1_555 1_555
H9 C18 1_555 1_555
C19 C17 1_555 1_555
H10 C19 1_555 1_555
C20 C12 1_555 1_555
H11 C20 1_555 1_555
Cd1 O5 1_555 1_555
Cd2 N1 1_555 1_555
N1 C1 1_555 1_555
O1 C11 1_555 1_555
C21 C10 1_555 1_555
O2 C9 1_555 1_555
C22 C7 1_555 1_555
H12 C22 1_555 1_555
O3 C9 1_555 1_555
C23 C21 1_555 1_555
C24 C21 1_555 1_555
H13 C24 1_555 1_555
O4 C2 1_555 1_555
O5 C23 1_555 1_555
O6 C11 1_555 1_555
O7 C5 1_555 1_555
O8 Cd1 1_555 1_555
O9 Cd2 1_555 1_555
H14 O9 1_555 1_555
H15 O9 1_555 1_555
O10 Cd2 1_555 1_555
H16 O10 1_555 1_555
H17 O10 1_555 1_555
C25 C15 1_555 1_555
H18 C25 1_555 1_555
C26 C19 1_555 1_555
H19 C26 1_555 1_555
O11 Cd2 1_555 1_555
C27 C17 1_555 1_555
H20 C27 1_555 1_555
H21 C27 1_555 1_555
C28 C27 1_555 1_555
H22 C28 1_555 1_555
H23 C28 1_555 1_555
C29 C28 1_555 1_555
C30 C29 1_555 1_555
H24 C30 1_555 1_555
C31 C30 1_555 1_555
H25 C31 1_555 1_555
N2 Cd1 1_555 1_555
C32 N2 1_555 1_555
H26 C32 1_555 1_555
C33 C29 1_555 1_555
H27 C33 1_555 1_555
O12 H28 1_555 1_555
O13 H29 1_555 1_555
H30 O13 1_555 1_555
O9E Cd2 1_555 1_555
H14E O9 1_555 1_555
H15E O9 1_555 1_555
O11E Cd2 1_555 1_555
C1E H1E 1_555 1_555
C2E C6E 1_555 1_555
C3E C4E 1_555 1_555
C4E H2E 1_555 1_555
C5E C4E 1_555 1_555
C6E C5E 1_555 1_555
H3E C6E 1_555 1_555
C7E C8E 1_555 1_555
C8E H4E 1_555 1_555
C9E C3E 1_555 1_555
C10E C8E 1_555 1_555
H5E C10E 1_555 1_555
C11E C12E 1_555 1_555
C12E C16E 1_555 1_555
C13E H6E 1_555 1_555
C14E C1E 1_555 1_555
H7E C14E 1_555 1_555
C15E C13E 1_555 1_555
C16E H8E 1_555 1_555
C17E C14E 1_555 1_555
C18E C2E 1_555 1_555
H9E C18E 1_555 1_555
C19E C17E 1_555 1_555
H10E C19E 1_555 1_555
C20E C12E 1_555 1_555
H11E C20E 1_555 1_555
Cd1E O5E 1_555 1_555
Cd2E N1 1_555 1_555
N1E Cd2 1_555 1_555
O1E C11E 1_555 1_555
C21E C10E 1_555 1_555
O2E C9E 1_555 1_555
C22E C7E 1_555 1_555
H12E C22E 1_555 1_555
O3E C9E 1_555 1_555
C23E C21E 1_555 1_555
C24E C21E 1_555 1_555
H13E C24E 1_555 1_555
O4E C2E 1_555 1_555
O5E C23E 1_555 1_555
O6E C11E 1_555 1_555
O7E C5E 1_555 1_555
O8E Cd1E 1_555 1_555
O10E Cd2 1_555 1_555
H16E O10E 1_555 1_555
H17E O10E 1_555 1_555
C25E C15E 1_555 1_555
H18E C25E 1_555 1_555
C26E C19E 1_555 1_555
H19E C26E 1_555 1_555
C27E C17E 1_555 1_555
H20E C27E 1_555 1_555
H21E C27E 1_555 1_555
C28E C27E 1_555 1_555
H22E C28E 1_555 1_555
H23E C28E 1_555 1_555
C29E C28E 1_555 1_555
C30E C29E 1_555 1_555
H24E C30E 1_555 1_555
C31E C30E 1_555 1_555
H25E C31E 1_555 1_555
N2E Cd1E 1_555 1_555
C32E N2E 1_555 1_555
H26E C32E 1_555 1_555
C33E C29E 1_555 1_555
H27E C33E 1_555 1_555
Cd1_2 O2E 1_555 1_555
Cd1A O1 1_555 1_555
Cd1D O1E 1_555 1_555
Cd1E_2 O2 1_555 1_555
O1B Cd1 1_555 1_555
O1C Cd1E 1_555 1_555
O2_2 Cd1E 1_555 1_555
O2E_2 Cd1 1_555 1_555
O3_2 Cd1E 1_555 1_555
O3E_2 Cd1 1_555 1_555
O6B Cd1 1_555 1_555
O6C Cd1E 1_555 1_555
H28D O12 1_555 1_555
C3 C18 1_555 1_555
C7 O4 1_555 1_555
C13 C20 1_555 1_555
C15 O7 1_555 1_555
C16 C25 1_555 1_555
N1 C26 1_555 1_555
C22 C24 1_555 1_555
O3 Cd1E_2 1_555 1_555
C23 O8 1_555 1_555
O6 Cd1A 1_555 1_555
O9 Cd2E 1_555 1_555
H14 O9E 1_555 1_555
H15 O9E 1_555 1_555
O10 Cd2E 1_555 1_555
O11 O11E 1_555 1_555
O11 Cd2E 1_555 1_555
C31 N2 1_555 1_555
C32 C33 1_555 1_555
O9E H14E 1_555 1_555
O9E H15E 1_555 1_555
O9E Cd2E 1_555 1_555
O11E Cd2E 1_555 1_555
C1E N1E 1_555 1_555
C3E C18E 1_555 1_555
C7E O4E 1_555 1_555
C13E C20E 1_555 1_555
C15E O7E 1_555 1_555
C16E C25E 1_555 1_555
Cd2E N1E 1_555 1_555
Cd2E O10E 1_555 1_555
N1E C26E 1_555 1_555
C22E C24E 1_555 1_555
O3E Cd1_2 1_555 1_555
C23E O8E 1_555 1_555
O6E Cd1D 1_555 1_555
C31E N2E 1_555 1_555
C32E C33E 1_555 1_555

#END
