
#######################################################################
#
#                 Cambridge Crystallographic Data Centre
#                                CCDC 
#
#######################################################################
#
# If this CIF has been generated from an entry in the Cambridge 
# Structural Database, then it will include bibliographic, chemical, 
# crystal, experimental, refinement or atomic coordinate data resulting 
# from the CCDC's data processing and validation procedures.
#
#######################################################################

data_IROVES
_chemical_formula_moiety         '(C4 H14 O28 P8 U3 Zn2)n'
_symmetry_cell_setting           triclinic
_symmetry_space_group_name_H-M   'P -1'
_symmetry_Int_Tables_number      2
_space_group_name_Hall           '-P 1'
loop_
_symmetry_equiv_pos_site_id
_symmetry_equiv_pos_as_xyz
1 x,y,z
2 -x,-y,-z
_cell_length_a                   5.221(2)
_cell_length_b                   12.860(5)
_cell_length_c                   14.561(5)
_cell_angle_alpha                64.701(7)
_cell_angle_beta                 87.327(10)
_cell_angle_gamma                89.894(9)
_cell_volume                     882.75
loop_
_atom_site_label
_atom_site_type_symbol
_atom_site_fract_x
_atom_site_fract_y
_atom_site_fract_z
U1 U -1.0000 0.0000 0.0000
U2 U -0.83267(14) -0.28370(6) 0.41945(6)
P1 P -0.6425(10) -0.5464(4) 0.4093(4)
P2 P -0.5167(10) -0.0651(5) 0.1859(4)
O1 O -0.698(3) 0.0064(13) 0.1023(11)
O2 O -0.269(3) -0.0937(12) 0.1416(11)
O3 O -0.616(2) -0.4171(11) 0.3759(10)
O4 O -0.549(2) -0.1465(11) 0.4398(10)
O5 O -0.883(3) -0.1343(12) 0.0083(10)
P3 P -0.3221(10) -0.0650(5) 0.3761(4)
O6 O -0.391(2) -0.6065(11) 0.4355(9)
O7 O -1.118(2) -0.3123(11) 0.2945(9)
O8 O -0.101(3) -0.1349(12) 0.3649(10)
O9 O -0.840(2) -0.5975(11) 0.4970(10)
C1 C -0.781(4) -0.5634(18) 0.3015(16)
H1 H -0.9365 -0.5193 0.2835
H2 H -0.6603 -0.5324 0.2431
Zn1 Zn -0.6538(5) -0.1547(2) 0.57610(19)
P4 P -0.8544(10) -0.7113(5) 0.3307(4)
O10 O -0.641(2) -0.1749(11) 0.2611(10)
O11 O -1.026(3) -0.7593(12) 0.4254(10)
O12 O -0.615(2) -0.7762(11) 0.3330(10)
O13 O -0.249(2) 0.0108(11) 0.4261(10)
O14 O -1.022(3) -0.7056(14) 0.2368(12)
C2 C -0.437(4) 0.0212(16) 0.2496(14)
H3 H -0.5874 0.0626 0.2558
H4 H -0.3054 0.0773 0.2092
U2A U -1.16733(14) -0.71630(6) 0.58055(6)
P1A P -1.3575(10) -0.4536(4) 0.5907(4)
P2A P -1.4833(10) -0.9349(5) 0.8141(4)
O1A O -1.302(3) -1.0064(13) 0.8977(11)
O2A O -1.731(3) -0.9063(12) 0.8584(11)
O3A O -1.384(2) -0.5829(11) 0.6241(10)
O4A O -1.451(2) -0.8535(11) 0.5602(10)
P3A P -1.6779(10) -0.9350(5) 0.6239(4)
O6A O -1.609(2) -0.3935(11) 0.5645(9)
O7A O -0.882(2) -0.6877(11) 0.7055(9)
O8A O -1.899(3) -0.8651(12) 0.6351(10)
O9A O -1.160(2) -0.4025(11) 0.5030(10)
C1A C -1.219(4) -0.4366(18) 0.6985(16)
H1A H -1.0635 -0.4807 0.7165
H2A H -1.3397 -0.4676 0.7569
Zn1A Zn -1.3462(5) -0.8453(2) 0.42390(19)
P4A P -1.1456(10) -0.2887(5) 0.6693(4)
O10A O -1.359(2) -0.8251(11) 0.7389(10)
O11A O -0.974(3) -0.2407(12) 0.5746(10)
O12A O -1.385(2) -0.2238(11) 0.6670(10)
O13A O -1.751(2) -1.0108(11) 0.5739(10)
O14A O -0.978(3) -0.2944(14) 0.7632(12)
C2A C -1.563(4) -1.0212(16) 0.7504(14)
H3A H -1.4126 -1.0626 0.7442
H4A H -1.6946 -1.0773 0.7908
O5A O -1.117(3) 0.1343(12) -0.0083(10)
U1_2 U -2.0000 -1.0000 1.0000
U1_3 U -1.0000 -1.0000 1.0000
U1_4 U 0.0000 0.0000 0.0000
U2_2 U -1.83267(14) -0.28370(6) 0.41945(6)
U2_3 U 0.16733(14) -0.28370(6) 0.41945(6)
U2A_2 U -2.16733(14) -0.71630(6) 0.58055(6)
U2A_3 U -0.16733(14) -0.71630(6) 0.58055(6)
O1A_2 O -1.302(3) -0.0064(13) -0.1023(11)
O2_2 O -1.269(3) -0.0937(12) 0.1416(11)
O2A_2 O -0.731(3) 0.0937(12) -0.1416(11)
O6_2 O -1.391(2) -0.6065(11) 0.4355(9)
O6A_2 O -0.609(2) -0.3935(11) 0.5645(9)
O8_2 O -1.101(3) -0.1349(12) 0.3649(10)
O8A_2 O -0.899(3) -0.8651(12) 0.6351(10)
Zn1_2 Zn -1.6538(5) -1.1547(2) 0.57610(19)
Zn1_3 Zn -1.6538(5) -0.1547(2) 0.57610(19)
Zn1A_2 Zn -0.3462(5) -0.8453(2) 0.42390(19)
Zn1A_3 Zn -0.3462(5) 0.1547(2) 0.42390(19)
O12_2 O -1.615(2) -0.7762(11) 0.3330(10)
O12A_2 O -0.385(2) -0.2238(11) 0.6670(10)
O13_2 O -1.249(2) -0.9892(11) 0.4261(10)
O13A_2 O -0.751(2) -0.0108(11) 0.5739(10)
loop_
_geom_bond_atom_site_label_1
_geom_bond_atom_site_label_2
_geom_bond_site_symmetry_1
_geom_bond_site_symmetry_2
U1 O1 1_555 1_555
U2 O3 1_555 1_555
P1 O3 1_555 1_555
P2 O1 1_555 1_555
O2 P2 1_555 1_555
O4 U2 1_555 1_555
O5 U1 1_555 1_555
P3 O4 1_555 1_555
O6 P1 1_555 1_555
O7 U2 1_555 1_555
O8 P3 1_555 1_555
O9 P1 1_555 1_555
C1 P1 1_555 1_555
H1 C1 1_555 1_555
H2 C1 1_555 1_555
Zn1 O4 1_555 1_555
P4 C1 1_555 1_555
O10 U2 1_555 1_555
O11 P4 1_555 1_555
O12 P4 1_555 1_555
O13 P3 1_555 1_555
O14 P4 1_555 1_555
C2 P2 1_555 1_555
H3 C2 1_555 1_555
H4 C2 1_555 1_555
U2A O9 1_555 1_555
P1A O3A 1_555 1_555
P2A O1A 1_555 1_555
O1A U1_3 1_555 1_555
O2A P2A 1_555 1_555
O3A U2A 1_555 1_555
O4A U2A 1_555 1_555
P3A O4A 1_555 1_555
O6A P1A 1_555 1_555
O7A U2A 1_555 1_555
O8A P3A 1_555 1_555
O9A U2 1_555 1_555
C1A P1A 1_555 1_555
H1A C1A 1_555 1_555
H2A C1A 1_555 1_555
Zn1A O11 1_555 1_555
P4A C1A 1_555 1_555
O10A U2A 1_555 1_555
O11A U2 1_555 1_555
O12A P4A 1_555 1_555
O13A P3A 1_555 1_555
O14A P4A 1_555 1_555
C2A P2A 1_555 1_555
H3A C2A 1_555 1_555
H4A C2A 1_555 1_555
O5A U1 1_555 1_555
U1_2 O2A 1_555 1_555
U1_4 O2 1_555 1_555
U2_2 O6A 1_555 1_555
U2_3 O8 1_555 1_555
U2A_2 O8A 1_555 1_555
U2A_3 O6 1_555 1_555
O1A_2 U1 1_555 1_555
O2_2 U1 1_555 1_555
O2A_2 U1 1_555 1_555
O6_2 U2A 1_555 1_555
O6A_2 U2 1_555 1_555
O8_2 U2 1_555 1_555
O8A_2 U2A 1_555 1_555
Zn1_2 O13A 1_555 1_555
Zn1_3 O12A 1_555 1_555
Zn1A_2 O12 1_555 1_555
Zn1A_3 O13 1_555 1_555
O12_2 Zn1A 1_555 1_555
O12A_2 Zn1 1_555 1_555
O13_2 Zn1A 1_555 1_555
O13A_2 Zn1 1_555 1_555
P2 O10 1_555 1_555
P3 C2 1_555 1_555
Zn1 O11A 1_555 1_555
O11 U2A 1_555 1_555
P1A O9A 1_555 1_555
P2A O10A 1_555 1_555
O4A Zn1A 1_555 1_555
P3A C2A 1_555 1_555
P4A O11A 1_555 1_555

#END
