
#######################################################################
#
#                 Cambridge Crystallographic Data Centre
#                                CCDC 
#
#######################################################################
#
# If this CIF has been generated from an entry in the Cambridge 
# Structural Database, then it will include bibliographic, chemical, 
# crystal, experimental, refinement or atomic coordinate data resulting 
# from the CCDC's data processing and validation procedures.
#
#######################################################################

data_CIZQUZ
_chemical_formula_moiety         '(C20 H4 O16 Zn3 2-)n'
_symmetry_cell_setting           orthorhombic
_symmetry_space_group_name_H-M   'F d d d'
_symmetry_Int_Tables_number      70
_space_group_name_Hall           '-F 2uv 2vw'
loop_
_symmetry_equiv_pos_site_id
_symmetry_equiv_pos_as_xyz
1 x,y,z
2 3/4-x,3/4-y,z
3 3/4-x,y,3/4-z
4 x,3/4-y,3/4-z
5 x,1/2+y,1/2+z
6 3/4-x,1/4-y,1/2+z
7 3/4-x,1/2+y,1/4-z
8 x,1/4-y,1/4-z
9 1/2+x,y,1/2+z
10 1/4-x,3/4-y,1/2+z
11 1/4-x,y,1/4-z
12 1/2+x,3/4-y,1/4-z
13 1/2+x,1/2+y,z
14 1/4-x,1/4-y,z
15 1/4-x,1/2+y,3/4-z
16 1/2+x,1/4-y,3/4-z
17 -x,-y,-z
18 1/4+x,1/4+y,-z
19 1/4+x,-y,1/4+z
20 -x,1/4+y,1/4+z
21 -x,1/2-y,1/2-z
22 1/4+x,3/4+y,1/2-z
23 1/4+x,1/2-y,3/4+z
24 -x,3/4+y,3/4+z
25 1/2-x,-y,1/2-z
26 3/4+x,1/4+y,1/2-z
27 3/4+x,-y,3/4+z
28 1/2-x,1/4+y,3/4+z
29 1/2-x,1/2-y,-z
30 3/4+x,3/4+y,-z
31 3/4+x,1/2-y,1/4+z
32 1/2-x,3/4+y,1/4+z
_cell_length_a                   19.7430(3)
_cell_length_b                   26.8524(5)
_cell_length_c                   29.2175(5)
_cell_angle_alpha                90
_cell_angle_beta                 90
_cell_angle_gamma                90
_cell_volume                     15489.6
loop_
_atom_site_label
_atom_site_type_symbol
_atom_site_fract_x
_atom_site_fract_y
_atom_site_fract_z
Zn1 Zn 0.999515(13) 0.306728(10) 0.065677(9)
Zn2 Zn 1.1250 0.374226(14) 0.1250
C1 C 0.72307(12) 0.33355(9) 0.06061(8)
C2 C 0.73914(11) 0.28900(9) 0.03091(8)
C3 C 0.80443(11) 0.26962(9) 0.02514(8)
C4 C 0.86383(12) 0.28629(10) 0.05368(9)
C5 C 0.81425(11) 0.23100(9) -0.00576(8)
H1 H 0.8576 0.2182 -0.0098
C6 C 1.21937(12) 0.30037(10) 0.08547(8)
C7 C 1.23338(13) 0.27313(10) 0.04124(8)
C8 C 1.18546(13) 0.27115(11) 0.00589(9)
C9 C 1.20320(13) 0.24839(11) -0.03493(9)
H2 H 1.1719 0.2475 -0.0587
C10 C 1.11435(15) 0.29170(15) 0.01137(10)
O1 O 0.75740(11) 0.37140(7) 0.05497(7)
O2 O 0.67303(10) 0.32844(7) 0.08661(7)
O3 O 0.85480(12) 0.29843(11) 0.09339(8)
O4 O 0.92046(9) 0.28361(8) 0.03340(7)
O5 O 1.24720(12) 0.28388(9) 0.12024(6)
O6 O 1.18195(11) 0.33775(8) 0.08310(7)
O7 O 1.1002(10) 0.3295(6) -0.0135(8)
O8 O 1.08225(10) 0.27454(9) 0.04565(9)
C1BA C 0.77693(12) 0.16645(9) -0.06061(8)
C2BA C 0.76086(11) 0.21100(9) -0.03091(8)
C3BA C 0.69557(11) 0.23038(9) -0.02514(8)
C4BA C 0.63617(12) 0.21371(10) -0.05368(9)
C5BA C 0.68575(11) 0.26900(9) 0.00576(8)
H1BA H 0.6424 0.2818 0.0098
O1BA O 0.74260(11) 0.12860(7) -0.05497(7)
O2BA O 0.82697(10) 0.17156(7) -0.08661(7)
O3BA O 0.64520(12) 0.20157(11) -0.09339(8)
O4BA O 0.57954(9) 0.21639(8) -0.03340(7)
C6BA C 1.28063(12) 0.19963(10) -0.08547(8)
C7BA C 1.26662(13) 0.22687(10) -0.04124(8)
C8BA C 1.31454(13) 0.22885(11) -0.00589(9)
C9BA C 1.29680(13) 0.25161(11) 0.03493(9)
H2BA H 1.3281 0.2525 0.0587
C10BA C 1.38565(15) 0.20830(15) -0.01137(10)
O5BA O 1.25280(12) 0.21612(9) -0.12024(6)
O6BA O 1.31805(11) 0.16225(8) -0.08310(7)
O7BA O 1.3998(10) 0.1705(6) 0.0135(8)
O8BA O 1.41775(10) 0.22546(9) -0.04565(9)
Zn1A Zn 0.750485(13) 0.443272(10) 0.065677(9)
Zn1J Zn 1.250485(13) 0.306728(10) 0.184323(9)
Zn1V Zn 1.249515(13) 0.193272(10) -0.184323(9)
Zn1BA Zn 0.500485(13) 0.193272(10) -0.065677(9)
Zn1BA_2 Zn 1.500485(13) 0.193272(10) -0.065677(9)
Zn1CA Zn 0.749515(13) 0.056728(10) -0.065677(9)
Zn2A Zn 0.6250 0.375774(14) 0.1250
Zn2V Zn 1.3750 0.125774(14) -0.1250
Zn2W Zn 0.8750 0.124226(14) -0.1250
O1A O 0.99260(11) 0.37860(7) 0.05497(7)
O2A O 1.07697(10) 0.42156(7) 0.08661(7)
O2K O 1.17303(10) 0.42156(7) 0.16339(7)
O4A O 0.82954(9) 0.46639(8) 0.03340(7)
O5J O 1.00280(12) 0.28388(9) 0.12976(6)
O5K O 0.74720(12) 0.46612(9) 0.12976(6)
O6J O 1.06805(11) 0.33775(8) 0.16690(7)
O8A O 0.66775(10) 0.47546(9) 0.04565(9)
loop_
_geom_bond_atom_site_label_1
_geom_bond_atom_site_label_2
_geom_bond_site_symmetry_1
_geom_bond_site_symmetry_2
Zn1 O4 1_555 1_555
Zn2 O6 1_555 1_555
C1 C2 1_555 1_555
C2 C3 1_555 1_555
C3 C4 1_555 1_555
C4 O3 1_555 1_555
C5 C3 1_555 1_555
H1 C5 1_555 1_555
C6 C7 1_555 1_555
C7 C8 1_555 1_555
C8 C9 1_555 1_555
C9 H2 1_555 1_555
C10 C8 1_555 1_555
O1 C1 1_555 1_555
O2 C1 1_555 1_555
O4 C4 1_555 1_555
O5 C6 1_555 1_555
O6 C6 1_555 1_555
O7 C10 1_555 1_555
O8 Zn1 1_555 1_555
C1BA C2BA 1_555 1_555
C2BA C5 1_555 1_555
C3BA C2BA 1_555 1_555
C4BA C3BA 1_555 1_555
C5BA C2 1_555 1_555
H1BA C5BA 1_555 1_555
O1BA C1BA 1_555 1_555
O2BA C1BA 1_555 1_555
O3BA C4BA 1_555 1_555
O4BA C4BA 1_555 1_555
C6BA C7BA 1_555 1_555
C7BA C9 1_555 1_555
C8BA C7BA 1_555 1_555
C9BA C7 1_555 1_555
H2BA C9BA 1_555 1_555
C10BA C8BA 1_555 1_555
O5BA C6BA 1_555 1_555
O6BA C6BA 1_555 1_555
O7BA C10BA 1_555 1_555
O8BA C10BA 1_555 1_555
Zn1A O1 1_555 1_555
Zn1J O5 1_555 1_555
Zn1V O5BA 1_555 1_555
Zn1BA O4BA 1_555 1_555
Zn1BA_2 O8BA 1_555 1_555
Zn1CA O1BA 1_555 1_555
Zn2A O2 1_555 1_555
Zn2V O6BA 1_555 1_555
Zn2W O2BA 1_555 1_555
O1A Zn1 1_555 1_555
O2A Zn2 1_555 1_555
O2K Zn2 1_555 1_555
O4A Zn1A 1_555 1_555
O5J Zn1 1_555 1_555
O5K Zn1A 1_555 1_555
O6J Zn2 1_555 1_555
O8A Zn1A 1_555 1_555
C10 O8 1_555 1_555
C3BA C5BA 1_555 1_555
C8BA C9BA 1_555 1_555

#END
