
#######################################################################
#
#                 Cambridge Crystallographic Data Centre
#                                CCDC 
#
#######################################################################
#
# If this CIF has been generated from an entry in the Cambridge 
# Structural Database, then it will include bibliographic, chemical, 
# crystal, experimental, refinement or atomic coordinate data resulting 
# from the CCDC's data processing and validation procedures.
#
#######################################################################

data_CIZQOT
_chemical_formula_moiety         '(C40 H8 O32 Zn6 2-)n'
_symmetry_cell_setting           orthorhombic
_symmetry_space_group_name_H-M   'P n m a'
_symmetry_Int_Tables_number      62
_space_group_name_Hall           '-P 2ac 2n'
loop_
_symmetry_equiv_pos_site_id
_symmetry_equiv_pos_as_xyz
1 x,y,z
2 1/2-x,-y,1/2+z
3 -x,1/2+y,-z
4 1/2+x,1/2-y,1/2-z
5 -x,-y,-z
6 1/2+x,y,1/2-z
7 x,1/2-y,z
8 1/2-x,1/2+y,1/2+z
_cell_length_a                   14.2823(19)
_cell_length_b                   17.776(3)
_cell_length_c                   27.245(3)
_cell_angle_alpha                90
_cell_angle_beta                 90
_cell_angle_gamma                90
_cell_volume                     6917.02
loop_
_atom_site_label
_atom_site_type_symbol
_atom_site_fract_x
_atom_site_fract_y
_atom_site_fract_z
Zn1 Zn 0.06701(3) 0.02424(3) 0.798223(18)
Zn2 Zn 0.24422(3) 0.03163(3) 0.656064(17)
Zn3 Zn 0.12759(4) -0.04049(3) 0.55389(2)
C1 C 0.1924(3) 0.1121(2) 0.74734(16)
C2 C 0.3958(3) 0.1093(2) 0.71293(15)
C3 C 0.2070(4) 0.2500 0.7472(2)
H1 H 0.1466 0.2500 0.7600
C4 C 0.2496(3) 0.1812(2) 0.73823(15)
C5 C 0.3430(3) 0.1812(2) 0.72169(14)
C6 C 0.3874(4) 0.2500 0.7146(2)
H2 H 0.4497 0.2500 0.7047
C7 C 0.1091(4) -0.1088(3) 0.76351(18)
C8 C 0.1405(3) -0.1126(2) 0.65411(16)
C9 C 0.1044(5) -0.2500 0.7589(2)
H3 H 0.0968 -0.2500 0.7928
C10 C 0.1100(3) -0.1816(2) 0.73412(16)
C11 C 0.1189(3) -0.1820(2) 0.68344(16)
C12 C 0.1196(4) -0.2500 0.6583(2)
H4 H 0.1207 -0.2500 0.6241
C13 C 0.1424(5) 0.1124(3) 0.5873(2)
C14 C 0.0100(5) 0.1121(4) 0.4987(3)
C15 C 0.1404(5) 0.2500 0.5813(3)
H5 H 0.1843 0.2500 0.6065
C16 C 0.1088(4) 0.1824(3) 0.56313(19)
C17 C 0.0445(4) 0.1820(3) 0.5246(2)
C18 C 0.0138(6) 0.2500 0.5063(3)
H6 H -0.0292 0.2500 0.4807
C19 C 0.3307(3) -0.0201(3) 0.55784(16)
C20 C 0.5253(4) -0.0287(3) 0.60462(18)
C21 C 0.4146(3) -0.0033(3) 0.47812(17)
H7 H 0.3562 -0.0066 0.4631
C22 C 0.4198(3) -0.0121(3) 0.52865(15)
C23 C 0.5076(3) -0.0100(3) 0.55085(17)
O1 O 0.1774(2) 0.09422(18) 0.79092(11)
O2 O 0.1570(2) 0.07882(18) 0.71138(12)
O3 O 0.3545(2) 0.05098(17) 0.69901(12)
O4 O 0.4823(2) 0.11114(16) 0.72089(12)
O5 O 0.0439(3) -0.06388(17) 0.75629(12)
O6 O 0.1733(4) -0.0980(3) 0.79321(17)
O7 O 0.1905(2) -0.06520(16) 0.67495(12)
O8 O 0.1110(3) -0.1100(2) 0.61087(13)
O9 O 0.2159(4) 0.1171(3) 0.61141(16)
O10 O 0.0864(7) 0.0522(5) 0.5705(5)
O11 O 0.0510(9) 0.0860(7) 0.4643(5)
O12 O -0.0733(3) 0.1067(2) 0.49415(17)
O13 O 0.3348(2) -0.0122(2) 0.60260(12)
O14 O 0.2578(2) -0.0323(2) 0.53330(14)
O15 O 0.5189(3) -0.0944(2) 0.61838(15)
O16 O 0.5513(3) 0.0245(2) 0.63036(12)
C1F C 0.1924(3) 0.3879(2) 0.74734(16)
C2F C 0.3958(3) 0.3907(2) 0.71293(15)
C4F C 0.2496(3) 0.3188(2) 0.73823(15)
C5F C 0.3430(3) 0.3188(2) 0.72169(14)
O1F O 0.1774(2) 0.40578(18) 0.79092(11)
O2F O 0.1570(2) 0.42118(18) 0.71138(12)
O3F O 0.3545(2) 0.44902(17) 0.69901(12)
O4F O 0.4823(2) 0.38886(16) 0.72089(12)
C7F C 0.1091(4) -0.3912(3) 0.76351(18)
C8F C 0.1405(3) -0.3874(2) 0.65411(16)
C10F C 0.1100(3) -0.3184(2) 0.73412(16)
C11F C 0.1189(3) -0.3180(2) 0.68344(16)
O5F O 0.0439(3) -0.43612(17) 0.75629(12)
O6F O 0.1733(4) -0.4020(3) 0.79321(17)
O7F O 0.1905(2) -0.43480(16) 0.67495(12)
O8F O 0.1110(3) -0.3900(2) 0.61087(13)
C13F C 0.1424(5) 0.3876(3) 0.5873(2)
C14F C 0.0100(5) 0.3879(4) 0.4987(3)
C16F C 0.1088(4) 0.3176(3) 0.56313(19)
C17F C 0.0445(4) 0.3180(3) 0.5246(2)
O9F O 0.2159(4) 0.3829(3) 0.61141(16)
O10F O 0.0864(7) 0.4478(5) 0.5705(5)
O11F O 0.0510(9) 0.4140(7) 0.4643(5)
O12F O -0.0733(3) 0.3933(2) 0.49415(17)
C19D C 0.6693(3) 0.0201(3) 0.44216(16)
C20D C 0.4747(4) 0.0287(3) 0.39538(18)
C21D C 0.5854(3) 0.0033(3) 0.52188(17)
H7D H 0.6438 0.0066 0.5369
C22D C 0.5802(3) 0.0121(3) 0.47135(15)
C23D C 0.4924(3) 0.0100(3) 0.44915(17)
O13D O 0.6652(2) 0.0122(2) 0.39740(12)
O14D O 0.7422(2) 0.0323(2) 0.46670(14)
O15D O 0.4811(3) 0.0944(2) 0.38162(15)
O16D O 0.4487(3) -0.0245(2) 0.36964(12)
Zn3D Zn -0.12759(4) 0.04049(3) 0.44611(2)
Zn1E Zn 0.56701(3) 0.02424(3) 0.701777(18)
Zn2F Zn 0.24422(3) 0.46837(3) 0.656064(17)
Zn1A Zn 0.43299(3) -0.02424(3) 0.298223(18)
Zn1C Zn 0.56701(3) 0.47576(3) 0.701777(18)
Zn1F Zn 0.06701(3) -0.52424(3) 0.798223(18)
Zn1F_2 Zn 0.06701(3) 0.47576(3) 0.798223(18)
Zn2D Zn 0.75578(3) -0.03163(3) 0.343936(17)
Zn2F_2 Zn 0.24422(3) -0.53163(3) 0.656064(17)
Zn3B Zn -0.12759(4) 0.45951(3) 0.44611(2)
Zn3D_2 Zn 0.87241(4) 0.04049(3) 0.44611(2)
Zn3F Zn 0.12759(4) -0.45951(3) 0.55389(2)
Zn3F_2 Zn 0.12759(4) 0.54049(3) 0.55389(2)
O1E O 0.6774(2) 0.09422(18) 0.70908(11)
O4E O -0.0177(2) 0.11114(16) 0.77911(12)
O5E O 0.5439(3) -0.06388(17) 0.74371(12)
O7F_2 O 0.1905(2) 0.56520(16) 0.67495(12)
O8D O -0.1110(3) 0.1100(2) 0.38913(13)
O10D O -0.0864(7) -0.0522(5) 0.4295(5)
O12D O 0.0733(3) -0.1067(2) 0.50585(17)
O13F O 0.3348(2) 0.5122(2) 0.60260(12)
O14D_2 O -0.2578(2) 0.0323(2) 0.46670(14)
O16E O 0.0513(3) 0.0245(2) 0.86964(12)
loop_
_geom_bond_atom_site_label_1
_geom_bond_atom_site_label_2
_geom_bond_site_symmetry_1
_geom_bond_site_symmetry_2
Zn1 O1 1_555 1_555
Zn2 O2 1_555 1_555
Zn3 O8 1_555 1_555
C1 C4 1_555 1_555
C2 C5 1_555 1_555
C3 H1 1_555 1_555
C4 C3 1_555 1_555
C5 C4 1_555 1_555
C6 C5 1_555 1_555
H2 C6 1_555 1_555
C7 C10 1_555 1_555
C8 C11 1_555 1_555
C9 H3 1_555 1_555
C10 C9 1_555 1_555
C11 C10 1_555 1_555
C12 C11 1_555 1_555
H4 C12 1_555 1_555
C13 C16 1_555 1_555
C14 C17 1_555 1_555
C15 H5 1_555 1_555
C16 C15 1_555 1_555
C17 C16 1_555 1_555
C18 C17 1_555 1_555
H6 C18 1_555 1_555
C19 C22 1_555 1_555
C20 C23 1_555 1_555
C21 H7 1_555 1_555
C22 C21 1_555 1_555
C23 C22 1_555 1_555
O1 C1 1_555 1_555
O2 C1 1_555 1_555
O3 Zn2 1_555 1_555
O4 C2 1_555 1_555
O5 Zn1 1_555 1_555
O6 C7 1_555 1_555
O7 Zn2 1_555 1_555
O8 C8 1_555 1_555
O9 Zn2 1_555 1_555
O10 Zn3 1_555 1_555
O11 C14 1_555 1_555
O12 C14 1_555 1_555
O13 Zn2 1_555 1_555
O14 Zn3 1_555 1_555
O15 C20 1_555 1_555
O16 C20 1_555 1_555
C1F C4F 1_555 1_555
C2F C5F 1_555 1_555
C4F C3 1_555 1_555
C5F C6 1_555 1_555
O1F C1F 1_555 1_555
O2F C1F 1_555 1_555
O3F C2F 1_555 1_555
O4F C2F 1_555 1_555
C7F C10F 1_555 1_555
C8F C11F 1_555 1_555
C10F C9 1_555 1_555
C11F C12 1_555 1_555
O5F C7F 1_555 1_555
O6F C7F 1_555 1_555
O7F C8F 1_555 1_555
O8F C8F 1_555 1_555
C13F C16F 1_555 1_555
C14F C17F 1_555 1_555
C16F C15 1_555 1_555
C17F C18 1_555 1_555
O9F C13F 1_555 1_555
O10F C13F 1_555 1_555
O11F C14F 1_555 1_555
O12F C14F 1_555 1_555
C19D C22D 1_555 1_555
C20D C23D 1_555 1_555
C21D C23 1_555 1_555
H7D C21D 1_555 1_555
C22D C21D 1_555 1_555
C23D C21 1_555 1_555
O13D C19D 1_555 1_555
O14D C19D 1_555 1_555
O15D C20D 1_555 1_555
O16D C20D 1_555 1_555
Zn3D O12 1_555 1_555
Zn1E O4 1_555 1_555
Zn2F O2F 1_555 1_555
Zn1A O16D 1_555 1_555
Zn1C O4F 1_555 1_555
Zn1F O5F 1_555 1_555
Zn1F_2 O1F 1_555 1_555
Zn2D O13D 1_555 1_555
Zn2F_2 O7F 1_555 1_555
Zn3B O12F 1_555 1_555
Zn3D_2 O14D 1_555 1_555
Zn3F O8F 1_555 1_555
Zn3F_2 O10F 1_555 1_555
O1E Zn1E 1_555 1_555
O4E Zn1 1_555 1_555
O5E Zn1E 1_555 1_555
O7F_2 Zn2F 1_555 1_555
O8D Zn3D 1_555 1_555
O10D Zn3D 1_555 1_555
O12D Zn3 1_555 1_555
O13F Zn2F 1_555 1_555
O14D_2 Zn3D 1_555 1_555
O16E Zn1 1_555 1_555
C2 O3 1_555 1_555
C7 O5 1_555 1_555
C8 O7 1_555 1_555
C13 O9 1_555 1_555
C13 O10 1_555 1_555
C19 O13 1_555 1_555
C19 O14 1_555 1_555
O16 Zn1E 1_555 1_555
C4F C5F 1_555 1_555
O3F Zn2F 1_555 1_555
C10F C11F 1_555 1_555
C16F C17F 1_555 1_555
O9F Zn2F 1_555 1_555
C22D C23D 1_555 1_555

#END
