
#######################################################################
#
#                 Cambridge Crystallographic Data Centre
#                                CCDC 
#
#######################################################################
#
# If this CIF has been generated from an entry in the Cambridge 
# Structural Database, then it will include bibliographic, chemical, 
# crystal, experimental, refinement or atomic coordinate data resulting 
# from the CCDC's data processing and validation procedures.
#
#######################################################################

data_LACYEW
_chemical_formula_moiety         '(C52 H30 N4 Na2 O21 Pr2 Zn1)n'
_symmetry_cell_setting           orthorhombic
_symmetry_space_group_name_H-M   'I m m a'
_symmetry_Int_Tables_number      74
_space_group_name_Hall           '-I 2b 2'
loop_
_symmetry_equiv_pos_site_id
_symmetry_equiv_pos_as_xyz
1 x,y,z
2 -x,1/2-y,z
3 -x,1/2+y,-z
4 x,-y,-z
5 1/2+x,1/2+y,1/2+z
6 1/2-x,-y,1/2+z
7 1/2-x,y,1/2-z
8 1/2+x,1/2-y,1/2-z
9 -x,-y,-z
10 x,1/2+y,-z
11 x,1/2-y,z
12 -x,y,z
13 1/2-x,1/2-y,1/2-z
14 1/2+x,y,1/2-z
15 1/2+x,-y,1/2+z
16 1/2-x,1/2+y,1/2+z
_cell_length_a                   27.604(7)
_cell_length_b                   29.333(6)
_cell_length_c                   13.110(3)
_cell_angle_alpha                90
_cell_angle_beta                 90
_cell_angle_gamma                90
_cell_volume                     10615.3
loop_
_atom_site_label
_atom_site_type_symbol
_atom_site_fract_x
_atom_site_fract_y
_atom_site_fract_z
_atom_site_U_iso_or_equiv
_atom_site_thermal_displace_type
Pr1 Pr 0.82272(2) 0.5000 0.5000 0.0468 Uani
Zn1 Zn 0.5000 0.2500 0.4369(3) 0.0158 Uani
Na1 Na 0.7500 0.45985(16) 0.7500 0.0447 Uani
O1 O 0.6970(2) 0.48468(19) 0.1880(4) 0.0430 Uiso
O2 O 0.7646(4) 0.4430(4) 0.5328(8) 0.0380 Uiso
O3 O 0.7086(2) 0.4124(2) 0.6405(5) 0.0634 Uiso
O4 O 0.6403(4) 0.4446(4) 0.1207(8) 0.0360 Uiso
O5 O 0.8773(5) 0.5514(5) 0.3988(9) 0.1760 Uiso
H1 H 0.8652 0.5792 0.3719 0.2120 Uiso
O6 O 0.5000 0.2500 0.619(4) 0.1530 Uiso
H2 H 0.5000 0.2220 0.6552 0.1840 Uiso
N1 N 0.5749(3) 0.2500 0.4095(6) 0.0247 Uani
N2 N 0.5000 0.3194(3) 0.4024(6) 0.0260 Uani
C1 C 0.6035(2) 0.2876(2) 0.4073(5) 0.0277 Uani
C2 C 0.6650(3) 0.4255(3) 0.2894(5) 0.0327 Uani
C3 C 0.6550(3) 0.3794(3) 0.4746(5) 0.0337 Uani
H3 H 0.6517 0.3629 0.5366 0.0400 Uiso
C4 C 0.6258(3) 0.3693(3) 0.3924(5) 0.0313 Uani
C5 C 0.6526(3) 0.2728(2) 0.4024(6) 0.0367 Uani
H4 H 0.6803 0.2919 0.3996 0.0440 Uiso
C6 C 0.5874(2) 0.3315(2) 0.4017(5) 0.0303 Uani
C7 C 0.6707(3) 0.4514(3) 0.1964(6) 0.0407 Uani
C8 C 0.6325(3) 0.3923(3) 0.2989(5) 0.0360 Uani
H5 H 0.6134 0.3839 0.2415 0.0440 Uiso
C9 C 0.7200(3) 0.4284(3) 0.5555(6) 0.0463 Uani
C10 C 0.5406(3) 0.3462(2) 0.3994(5) 0.0323 Uani
C11 C 0.5245(3) 0.3933(2) 0.4027(6) 0.0427 Uani
H6 H 0.5447 0.4195 0.4046 0.0510 Uiso
C12 C 0.6954(3) 0.4366(3) 0.3759(6) 0.0360 Uani
H7 H 0.7192 0.4598 0.3691 0.0430 Uiso
C13 C 0.6904(3) 0.4148(2) 0.4661(6) 0.0313 Uani
O1J O 0.6970(2) 0.01532(19) 0.1880(4) 0.0430 Uiso
O2J O 0.7646(4) 0.0570(4) 0.5328(8) 0.0380 Uiso
O3J O 0.7086(2) 0.0876(2) 0.6405(5) 0.0634 Uiso
O4J O 0.6403(4) 0.0554(4) 0.1207(8) 0.0360 Uiso
N2A N 0.5000 0.1806(3) 0.4024(6) 0.0260 Uani
C1J C 0.6035(2) 0.2124(2) 0.4073(5) 0.0277 Uani
C2J C 0.6650(3) 0.0745(3) 0.2894(5) 0.0327 Uani
C3J C 0.6550(3) 0.1206(3) 0.4746(5) 0.0337 Uani
H3J H 0.6517 0.1371 0.5366 0.0400 Uiso
C4J C 0.6258(3) 0.1307(3) 0.3924(5) 0.0313 Uani
C5J C 0.6526(3) 0.2272(2) 0.4024(6) 0.0367 Uani
H4J H 0.6803 0.2081 0.3996 0.0440 Uiso
C6J C 0.5874(2) 0.1685(2) 0.4017(5) 0.0303 Uani
C7J C 0.6707(3) 0.0486(3) 0.1964(6) 0.0407 Uani
C8J C 0.6325(3) 0.1077(3) 0.2989(5) 0.0360 Uani
H5J H 0.6134 0.1161 0.2415 0.0440 Uiso
C9J C 0.7200(3) 0.0716(3) 0.5555(6) 0.0463 Uani
C10J C 0.5406(3) 0.1538(2) 0.3994(5) 0.0323 Uani
C11J C 0.5245(3) 0.1067(2) 0.4027(6) 0.0427 Uani
H6J H 0.5447 0.0805 0.4046 0.0510 Uiso
C12J C 0.6954(3) 0.0634(3) 0.3759(6) 0.0360 Uani
H7J H 0.7192 0.0402 0.3691 0.0430 Uiso
C13J C 0.6904(3) 0.0852(2) 0.4661(6) 0.0313 Uani
O1K O 0.3030(2) 0.48468(19) 0.1880(4) 0.0430 Uiso
O2K O 0.2354(4) 0.4430(4) 0.5328(8) 0.0380 Uiso
O3K O 0.2914(2) 0.4124(2) 0.6405(5) 0.0634 Uiso
O4K O 0.3597(4) 0.4446(4) 0.1207(8) 0.0360 Uiso
N1A N 0.4251(3) 0.2500 0.4095(6) 0.0247 Uani
C1K C 0.3965(2) 0.2876(2) 0.4073(5) 0.0277 Uani
C2K C 0.3350(3) 0.4255(3) 0.2894(5) 0.0327 Uani
C3K C 0.3450(3) 0.3794(3) 0.4746(5) 0.0337 Uani
H3K H 0.3483 0.3629 0.5366 0.0400 Uiso
C4K C 0.3742(3) 0.3693(3) 0.3924(5) 0.0313 Uani
C5K C 0.3474(3) 0.2728(2) 0.4024(6) 0.0367 Uani
H4K H 0.3197 0.2919 0.3996 0.0440 Uiso
C6K C 0.4126(2) 0.3315(2) 0.4017(5) 0.0303 Uani
C7K C 0.3293(3) 0.4514(3) 0.1964(6) 0.0407 Uani
C8K C 0.3675(3) 0.3923(3) 0.2989(5) 0.0360 Uani
H5K H 0.3866 0.3839 0.2415 0.0440 Uiso
C9K C 0.2800(3) 0.4284(3) 0.5555(6) 0.0463 Uani
C10K C 0.4594(3) 0.3462(2) 0.3994(5) 0.0323 Uani
C11K C 0.4755(3) 0.3933(2) 0.4027(6) 0.0427 Uani
H6K H 0.4553 0.4195 0.4046 0.0510 Uiso
C12K C 0.3046(3) 0.4366(3) 0.3759(6) 0.0360 Uani
H7K H 0.2808 0.4598 0.3691 0.0430 Uiso
C13K C 0.3096(3) 0.4148(2) 0.4661(6) 0.0313 Uani
O1A O 0.3030(2) 0.01532(19) 0.1880(4) 0.0430 Uiso
O2A O 0.2354(4) 0.0570(4) 0.5328(8) 0.0380 Uiso
O3A O 0.2914(2) 0.0876(2) 0.6405(5) 0.0634 Uiso
O4A O 0.3597(4) 0.0554(4) 0.1207(8) 0.0360 Uiso
C1A C 0.3965(2) 0.2124(2) 0.4073(5) 0.0277 Uani
C2A C 0.3350(3) 0.0745(3) 0.2894(5) 0.0327 Uani
C3A C 0.3450(3) 0.1206(3) 0.4746(5) 0.0337 Uani
H3A H 0.3483 0.1371 0.5366 0.0400 Uiso
C4A C 0.3742(3) 0.1307(3) 0.3924(5) 0.0313 Uani
C5A C 0.3474(3) 0.2272(2) 0.4024(6) 0.0367 Uani
H4A H 0.3197 0.2081 0.3996 0.0440 Uiso
C6A C 0.4126(2) 0.1685(2) 0.4017(5) 0.0303 Uani
C7A C 0.3293(3) 0.0486(3) 0.1964(6) 0.0407 Uani
C8A C 0.3675(3) 0.1077(3) 0.2989(5) 0.0360 Uani
H5A H 0.3866 0.1161 0.2415 0.0440 Uiso
C9A C 0.2800(3) 0.0716(3) 0.5555(6) 0.0463 Uani
C10A C 0.4594(3) 0.1538(2) 0.3994(5) 0.0323 Uani
C11A C 0.4755(3) 0.1067(2) 0.4027(6) 0.0427 Uani
H6A H 0.4553 0.0805 0.4046 0.0510 Uiso
C12A C 0.3046(3) 0.0634(3) 0.3759(6) 0.0360 Uani
H7A H 0.2808 0.0402 0.3691 0.0430 Uiso
C13A C 0.3096(3) 0.0852(2) 0.4661(6) 0.0313 Uani
H2A H 0.5000 0.2780 0.6552 0.1840 Uiso
Na1J Na 0.7500 0.04015(16) 0.7500 0.0447 Uani
Pr1H Pr 0.17728(2) 0.5000 0.5000 0.0468 Uani
O5K O 0.1227(5) 0.5514(5) 0.3988(9) 0.1760 Uiso
H1K H 0.1348 0.5792 0.3719 0.2120 Uiso
O5C O 0.8773(5) 0.4486(5) 0.6012(9) 0.1760 Uiso
H1C H 0.8652 0.4208 0.6281 0.2120 Uiso
O5H O 0.1227(5) 0.4486(5) 0.6012(9) 0.1760 Uiso
H1H H 0.1348 0.4208 0.6281 0.2120 Uiso
Pr1A Pr 0.17728(2) -0.0000 0.5000 0.0468 Uani
Pr1D Pr 0.32272(2) 0.0000 0.0000 0.0468 Uani
Pr1E Pr 0.67728(2) 0.5000 0.0000 0.0468 Uani
Pr1I Pr 0.82272(2) -0.0000 0.5000 0.0468 Uani
Pr1L Pr 0.67728(2) 0.0000 0.0000 0.0468 Uani
Pr1M Pr 0.32272(2) 0.5000 0.0000 0.0468 Uani
Na1A Na 0.2500 0.04015(16) 0.7500 0.0447 Uani
Na1B Na 0.2500 -0.04015(16) 0.2500 0.0447 Uani
Na1C Na 0.7500 0.54015(16) 0.2500 0.0447 Uani
Na1H Na 0.2500 0.54015(16) 0.2500 0.0447 Uani
Na1I Na 0.7500 -0.04015(16) 0.2500 0.0447 Uani
Na1K Na 0.2500 0.45985(16) 0.7500 0.0447 Uani
O1C O 0.6970(2) 0.51532(19) 0.8120(4) 0.0430 Uiso
O1E O 0.8030(2) 0.51532(19) 0.6880(4) 0.0430 Uiso
O1F O 0.8030(2) 0.48468(19) 0.3120(4) 0.0430 Uiso
O1I O 0.6970(2) -0.01532(19) 0.8120(4) 0.0430 Uiso
O1M O 0.1970(2) 0.48468(19) 0.3120(4) 0.0430 Uiso
O1N O 0.1970(2) 0.51532(19) 0.6880(4) 0.0430 Uiso
O1O O 0.8030(2) -0.01532(19) 0.6880(4) 0.0430 Uiso
O2C O 0.7646(4) 0.5570(4) 0.4672(8) 0.0380 Uiso
O2F O 0.7354(4) 0.4430(4) 0.9672(8) 0.0380 Uiso
O2H O 0.2354(4) 0.5570(4) 0.4672(8) 0.0380 Uiso
O2L O 0.7354(4) 0.0570(4) 0.9672(8) 0.0380 Uiso
O3F O 0.7914(2) 0.4124(2) 0.8595(5) 0.0634 Uiso
O3L O 0.7914(2) 0.0876(2) 0.8595(5) 0.0634 Uiso
O4E O 0.8597(4) 0.5554(4) 0.6207(8) 0.0360 Uiso
O4F O 0.8597(4) 0.4446(4) 0.3793(8) 0.0360 Uiso
O4M O 0.1403(4) 0.4446(4) 0.3793(8) 0.0360 Uiso
O4N O 0.1403(4) 0.5554(4) 0.6207(8) 0.0360 Uiso
loop_
_atom_site_aniso_label
_atom_site_aniso_U_11
_atom_site_aniso_U_22
_atom_site_aniso_U_33
_atom_site_aniso_U_23
_atom_site_aniso_U_13
_atom_site_aniso_U_12
Pr1 0.0304(4) 0.0592(5) 0.0508(5) -0.0250(3) 0.000 0.000
Zn1 0.0228(17) 0.0206(19) 0.0041(16) 0.000 0.000 0.000
Na1 0.038(2) 0.061(3) 0.035(2) 0.000 -0.0115(19) 0.000
N1 0.019(4) 0.024(4) 0.031(4) 0.000 0.003(3) 0.000
N2 0.030(4) 0.028(5) 0.020(4) 0.012(3) 0.000 0.000
C1 0.028(4) 0.025(4) 0.030(4) -0.003(3) 0.010(3) -0.004(3)
C2 0.030(4) 0.047(5) 0.021(3) -0.005(3) -0.006(3) -0.004(3)
C3 0.037(4) 0.049(5) 0.015(3) 0.001(3) 0.002(3) -0.014(4)
C4 0.035(4) 0.034(4) 0.025(4) 0.008(3) 0.000(3) -0.011(3)
C5 0.028(4) 0.034(4) 0.048(5) 0.008(3) -0.010(4) -0.004(3)
C6 0.028(4) 0.035(4) 0.028(4) 0.000(3) -0.019(3) 0.000(3)
C7 0.042(4) 0.043(5) 0.037(4) -0.008(4) -0.010(3) -0.013(4)
C8 0.031(4) 0.041(5) 0.036 -0.001(4) -0.018(3) -0.012(3)
C9 0.072(6) 0.036(5) 0.031(4) 0.016(4) -0.031(4) -0.027(4)
C10 0.035(4) 0.022(4) 0.040(4) -0.013(3) -0.001(3) -0.010(3)
C11 0.055(5) 0.016(4) 0.057(5) 0.012(4) 0.000(4) -0.016(3)
C12 0.033(4) 0.039(5) 0.036(4) -0.007(4) -0.006(3) -0.015(3)
C13 0.045(4) 0.023(4) 0.026(3) -0.013(3) -0.006(3) -0.014(3)
N2A 0.03 0.028 0.02 -0.012 0 0
C1J 0.028 0.025 0.03 0.003 0.01 0.004
C2J 0.03 0.047 0.021 0.005 -0.006 0.004
C3J 0.037 0.049 0.015 -0.001 0.002 0.014
C4J 0.035 0.034 0.025 -0.008 0 0.011
C5J 0.028 0.034 0.048 -0.008 -0.01 0.004
C6J 0.028 0.035 0.028 0 -0.019 0
C7J 0.042 0.043 0.037 0.008 -0.01 0.013
C8J 0.031 0.041 0.036 0.001 -0.018 0.012
C9J 0.072 0.036 0.031 -0.016 -0.031 0.027
C10J 0.035 0.022 0.04 0.013 -0.001 0.01
C11J 0.055 0.016 0.057 -0.012 0 0.016
C12J 0.033 0.039 0.036 0.007 -0.006 0.015
C13J 0.045 0.023 0.026 0.013 -0.006 0.014
N1A 0.019 0.024 0.031 0 -0.003 0
C1K 0.028 0.025 0.03 -0.003 -0.01 0.004
C2K 0.03 0.047 0.021 -0.005 0.006 0.004
C3K 0.037 0.049 0.015 0.001 -0.002 0.014
C4K 0.035 0.034 0.025 0.008 0 0.011
C5K 0.028 0.034 0.048 0.008 0.01 0.004
C6K 0.028 0.035 0.028 0 0.019 0
C7K 0.042 0.043 0.037 -0.008 0.01 0.013
C8K 0.031 0.041 0.036 -0.001 0.018 0.012
C9K 0.072 0.036 0.031 0.016 0.031 0.027
C10K 0.035 0.022 0.04 -0.013 0.001 0.01
C11K 0.055 0.016 0.057 0.012 0 0.016
C12K 0.033 0.039 0.036 -0.007 0.006 0.015
C13K 0.045 0.023 0.026 -0.013 0.006 0.014
C1A 0.028 0.025 0.03 0.003 -0.01 -0.004
C2A 0.03 0.047 0.021 0.005 0.006 -0.004
C3A 0.037 0.049 0.015 -0.001 -0.002 -0.014
C4A 0.035 0.034 0.025 -0.008 0 -0.011
C5A 0.028 0.034 0.048 -0.008 0.01 -0.004
C6A 0.028 0.035 0.028 0 0.019 0
C7A 0.042 0.043 0.037 0.008 0.01 -0.013
C8A 0.031 0.041 0.036 0.001 0.018 -0.012
C9A 0.072 0.036 0.031 -0.016 0.031 -0.027
C10A 0.035 0.022 0.04 0.013 0.001 -0.01
C11A 0.055 0.016 0.057 -0.012 0 -0.016
C12A 0.033 0.039 0.036 0.007 0.006 -0.015
C13A 0.045 0.023 0.026 0.013 0.006 -0.014
Na1J 0.038 0.061 0.035 0 -0.0115 0
Pr1H 0.0304 0.0592 0.0508 -0.025 0 0
Pr1A 0.0304 0.0592 0.0508 0.025 0 0
Pr1D 0.0304 0.0592 0.0508 -0.025 0 0
Pr1E 0.0304 0.0592 0.0508 0.025 0 0
Pr1I 0.0304 0.0592 0.0508 0.025 0 0
Pr1L 0.0304 0.0592 0.0508 -0.025 0 0
Pr1M 0.0304 0.0592 0.0508 0.025 0 0
Na1A 0.038 0.061 0.035 0 0.0115 0
Na1B 0.038 0.061 0.035 0 -0.0115 0
Na1C 0.038 0.061 0.035 0 0.0115 0
Na1H 0.038 0.061 0.035 0 -0.0115 0
Na1I 0.038 0.061 0.035 0 0.0115 0
Na1K 0.038 0.061 0.035 0 0.0115 0
loop_
_geom_bond_atom_site_label_1
_geom_bond_atom_site_label_2
_geom_bond_site_symmetry_1
_geom_bond_site_symmetry_2
Pr1 O2 1_555 1_555
Zn1 O6 1_555 1_555
Na1 O2 1_555 1_555
O1 C7 1_555 1_555
O2 C9 1_555 1_555
O3 Na1 1_555 1_555
O4 C7 1_555 1_555
O5 Pr1 1_555 1_555
H1 O5 1_555 1_555
O6 H2 1_555 1_555
N1 Zn1 1_555 1_555
N2 Zn1 1_555 1_555
C1 N1 1_555 1_555
C2 C7 1_555 1_555
C3 H3 1_555 1_555
C4 C3 1_555 1_555
C5 C1 1_555 1_555
H4 C5 1_555 1_555
C6 C1 1_555 1_555
C8 C2 1_555 1_555
H5 C8 1_555 1_555
C9 O3 1_555 1_555
C10 N2 1_555 1_555
C11 C10 1_555 1_555
H6 C11 1_555 1_555
C12 C2 1_555 1_555
H7 C12 1_555 1_555
C13 C3 1_555 1_555
O1J C7J 1_555 1_555
O2J C9J 1_555 1_555
O3J C9J 1_555 1_555
O4J C7J 1_555 1_555
N2A Zn1 1_555 1_555
C1J N1 1_555 1_555
C2J C7J 1_555 1_555
C3J H3J 1_555 1_555
C4J C3J 1_555 1_555
C5J C5 1_555 1_555
H4J C5J 1_555 1_555
C6J C1J 1_555 1_555
C8J C2J 1_555 1_555
H5J C8J 1_555 1_555
C9J C13J 1_555 1_555
C10J N2A 1_555 1_555
C11J C10J 1_555 1_555
H6J C11J 1_555 1_555
C12J C2J 1_555 1_555
H7J C12J 1_555 1_555
C13J C3J 1_555 1_555
O1K C7K 1_555 1_555
O2K C9K 1_555 1_555
O3K C9K 1_555 1_555
O4K C7K 1_555 1_555
N1A Zn1 1_555 1_555
C1K N1A 1_555 1_555
C2K C7K 1_555 1_555
C3K H3K 1_555 1_555
C4K C3K 1_555 1_555
C5K C1K 1_555 1_555
H4K C5K 1_555 1_555
C6K C1K 1_555 1_555
C8K C2K 1_555 1_555
H5K C8K 1_555 1_555
C9K C13K 1_555 1_555
C10K N2 1_555 1_555
C11K C11 1_555 1_555
H6K C11K 1_555 1_555
C12K C2K 1_555 1_555
H7K C12K 1_555 1_555
C13K C3K 1_555 1_555
O1A C7A 1_555 1_555
O2A C9A 1_555 1_555
O3A C9A 1_555 1_555
O4A C7A 1_555 1_555
C1A N1A 1_555 1_555
C2A C7A 1_555 1_555
C3A H3A 1_555 1_555
C4A C3A 1_555 1_555
C5A C5K 1_555 1_555
H4A C5A 1_555 1_555
C6A C1A 1_555 1_555
C8A C2A 1_555 1_555
H5A C8A 1_555 1_555
C9A C13A 1_555 1_555
C10A N2A 1_555 1_555
C11A C11J 1_555 1_555
H6A C11A 1_555 1_555
C12A C2A 1_555 1_555
H7A C12A 1_555 1_555
C13A C3A 1_555 1_555
H2A O6 1_555 1_555
Na1J O2J 1_555 1_555
Pr1H O2K 1_555 1_555
O5K Pr1H 1_555 1_555
H1K O5K 1_555 1_555
O5C Pr1 1_555 1_555
H1C O5C 1_555 1_555
O5H Pr1H 1_555 1_555
H1H O5H 1_555 1_555
Pr1A O2A 1_555 1_555
Pr1D O1A 1_555 1_555
Pr1E O1 1_555 1_555
Pr1I O2J 1_555 1_555
Pr1L O1J 1_555 1_555
Pr1M O1K 1_555 1_555
Na1A O2A 1_555 1_555
Na1B O1A 1_555 1_555
Na1C O1 1_555 1_555
Na1H O1K 1_555 1_555
Na1I O1J 1_555 1_555
Na1K O2K 1_555 1_555
O1C Na1 1_555 1_555
O1E Pr1 1_555 1_555
O1F Pr1 1_555 1_555
O1I Na1J 1_555 1_555
O1M Pr1H 1_555 1_555
O1N Pr1H 1_555 1_555
O1O Na1J 1_555 1_555
O2C Pr1 1_555 1_555
O2F Na1 1_555 1_555
O2H Pr1H 1_555 1_555
O2L Na1J 1_555 1_555
O3F Na1 1_555 1_555
O3L Na1J 1_555 1_555
O4E Pr1 1_555 1_555
O4F Pr1 1_555 1_555
O4M Pr1H 1_555 1_555
O4N Pr1H 1_555 1_555
Na1 O1E 1_555 1_555
O4 Pr1E 1_555 1_555
C4 C6 1_555 1_555
C4 C8 1_555 1_555
C6 C10 1_555 1_555
C9 C13 1_555 1_555
C12 C13 1_555 1_555
O3J Na1J 1_555 1_555
O4J Pr1L 1_555 1_555
C1J C5J 1_555 1_555
C4J C6J 1_555 1_555
C4J C8J 1_555 1_555
C6J C10J 1_555 1_555
C12J C13J 1_555 1_555
O3K Na1K 1_555 1_555
O4K Pr1M 1_555 1_555
C4K C6K 1_555 1_555
C4K C8K 1_555 1_555
C6K C10K 1_555 1_555
C10K C11K 1_555 1_555
C12K C13K 1_555 1_555
O3A Na1A 1_555 1_555
O4A Pr1D 1_555 1_555
C1A C5A 1_555 1_555
C4A C6A 1_555 1_555
C4A C8A 1_555 1_555
C6A C10A 1_555 1_555
C10A C11A 1_555 1_555
C12A C13A 1_555 1_555
Pr1I O1O 1_555 1_555
Na1C O1F 1_555 1_555
Na1C O2C 1_555 1_555
Na1H O1M 1_555 1_555
Na1H O2H 1_555 1_555
Na1K O1N 1_555 1_555

#END
