
#######################################################################
#
#                 Cambridge Crystallographic Data Centre
#                                CCDC 
#
#######################################################################
#
# If this CIF has been generated from an entry in the Cambridge 
# Structural Database, then it will include bibliographic, chemical, 
# crystal, experimental, refinement or atomic coordinate data resulting 
# from the CCDC's data processing and validation procedures.
#
#######################################################################

data_LACZIB
_chemical_formula_moiety         'C52 H22 N4 Na16 O33 Zn1'
_symmetry_cell_setting           tetragonal
_symmetry_space_group_name_H-M   'I 41/a'
_symmetry_Int_Tables_number      88
_space_group_name_Hall           '-I 4ad'
loop_
_symmetry_equiv_pos_site_id
_symmetry_equiv_pos_as_xyz
1 x,y,z
2 1/2-x,-y,1/2+z
3 3/4-y,1/4+x,1/4+z
4 3/4+y,3/4-x,3/4+z
5 1/2+x,1/2+y,1/2+z
6 -x,1/2-y,z
7 1/4-y,3/4+x,3/4+z
8 1/4+y,1/4-x,1/4+z
9 -x,-y,-z
10 1/2+x,y,1/2-z
11 1/4+y,3/4-x,3/4-z
12 1/4-y,1/4+x,1/4-z
13 1/2-x,1/2-y,1/2-z
14 x,1/2+y,-z
15 3/4+y,1/4-x,1/4-z
16 3/4-y,3/4+x,3/4-z
_cell_length_a                   28.9650(19)
_cell_length_b                   28.9650(19)
_cell_length_c                   12.4113(11)
_cell_angle_alpha                90
_cell_angle_beta                 90
_cell_angle_gamma                90
_cell_volume                     10412.7
loop_
_atom_site_label
_atom_site_type_symbol
_atom_site_fract_x
_atom_site_fract_y
_atom_site_fract_z
Zn1 Zn 0.5000 0.2500 0.34511(3)
Na1 Na 0.70441(2) 0.00001(2) -0.00001(5)
O1 O 0.74397(5) 0.05452(6) 0.55949(12)
O2 O 0.69561(6) 0.00619(5) 0.19024(12)
O3 O 0.69572(7) 0.09579(6) 0.65398(12)
O4 O 0.65419(7) 0.05428(7) 0.09597(12)
N1 N 0.50008(4) 0.17966(4) 0.37113(10)
C1 C 0.62059(5) 0.12946(5) 0.37501(13)
C2 C 0.59859(5) 0.21210(5) 0.37738(13)
C3 C 0.53795(5) 0.15153(5) 0.37276(13)
C4 C 0.58383(5) 0.16618(5) 0.37502(12)
C5 C 0.68821(6) 0.06182(6) 0.37510(13)
H1 H 0.7114 0.0386 0.3752
C6 C 0.64601(6) 0.12097(5) 0.46617(14)
H2 H 0.6401 0.1383 0.5296
C7 C 0.62902(5) 0.10405(6) 0.28324(14)
H3 H 0.6117 0.1100 0.2198
C8 C 0.66294(6) 0.06943(6) 0.28254(14)
C9 C 0.68050(6) 0.08710(6) 0.46716(14)
C10 C 0.47678(6) 0.10365(5) 0.37377(16)
H4 H 0.4573 0.0773 0.3745
C11 C 0.52323(6) 0.10367(5) 0.37367(16)
H5 H 0.5427 0.0773 0.3741
C12 C 0.70869(8) 0.07891(7) 0.56726(16)
C13 C 0.67119(7) 0.04145(7) 0.18245(16)
O5 O 0.5000 0.2500 0.1757(3)
H6 H 0.5087 0.2193 0.1494
O1J O 0.30452(6) 0.00603(5) 0.19051(12)
O2J O 0.25619(5) 0.05439(6) 0.55976(12)
O3J O 0.34579(6) 0.05428(7) 0.09602(12)
O4J O 0.30428(7) 0.09581(7) 0.65403(12)
N1J N 0.42966(4) 0.24992(4) 0.37887(10)
C1J C 0.37946(5) 0.12941(5) 0.37499(13)
C2J C 0.46210(5) 0.15141(5) 0.37262(13)
C3J C 0.40153(5) 0.21205(5) 0.37724(13)
C4J C 0.41618(5) 0.16617(5) 0.37498(12)
C5J C 0.31182(6) 0.06179(6) 0.37490(13)
H1J H 0.2886 0.0386 0.3748
C6J C 0.37097(5) 0.10399(6) 0.28383(14)
H2J H 0.3883 0.1099 0.2204
C7J C 0.35405(6) 0.12098(5) 0.46676(14)
H3J H 0.3600 0.1383 0.5302
C8J C 0.31943(6) 0.08706(6) 0.46746(14)
C9J C 0.33710(6) 0.06950(6) 0.28284(14)
C10J C 0.35365(5) 0.27322(6) 0.37623(16)
H4J H 0.3273 0.2927 0.3755
C11J C 0.35367(5) 0.22677(6) 0.37633(16)
H5J H 0.3273 0.2073 0.3759
C12J C 0.32891(7) 0.04131(8) 0.18274(16)
C13J C 0.29145(7) 0.07881(7) 0.56755(16)
O1O O 0.69548(6) 0.49397(5) 0.19051(12)
O2O O 0.74381(5) 0.44561(6) 0.55976(12)
O3O O 0.65421(6) 0.44572(7) 0.09602(12)
O4O O 0.69572(7) 0.40419(7) 0.65403(12)
N1O N 0.57034(4) 0.25008(4) 0.37887(10)
C1O C 0.62054(5) 0.37059(5) 0.37499(13)
C2O C 0.53790(5) 0.34859(5) 0.37262(13)
C3O C 0.59847(5) 0.28795(5) 0.37724(13)
C4O C 0.58382(5) 0.33383(5) 0.37498(12)
C5O C 0.68818(6) 0.43821(6) 0.37490(13)
H1O H 0.7114 0.4614 0.3748
C6O C 0.62903(5) 0.39601(6) 0.28383(14)
H2O H 0.6117 0.3901 0.2204
C7O C 0.64595(6) 0.37902(5) 0.46676(14)
H3O H 0.6400 0.3617 0.5302
C8O C 0.68057(6) 0.41294(6) 0.46746(14)
C9O C 0.66290(6) 0.43050(6) 0.28284(14)
C10O C 0.64635(5) 0.22678(6) 0.37623(16)
H4O H 0.6727 0.2073 0.3755
C11O C 0.64633(5) 0.27323(6) 0.37633(16)
H5O H 0.6727 0.2927 0.3759
C12O C 0.67109(7) 0.45869(8) 0.18274(16)
C13O C 0.70855(7) 0.42119(7) 0.56755(16)
O1E O 0.25603(5) 0.44548(6) 0.55949(12)
O2E O 0.30439(6) 0.49381(5) 0.19024(12)
O3E O 0.30428(7) 0.40421(6) 0.65398(12)
O4E O 0.34581(7) 0.44572(7) 0.09597(12)
N1E N 0.49992(4) 0.32034(4) 0.37113(10)
C1E C 0.37941(5) 0.37054(5) 0.37501(13)
C2E C 0.40141(5) 0.28790(5) 0.37738(13)
C3E C 0.46205(5) 0.34847(5) 0.37276(13)
C4E C 0.41617(5) 0.33382(5) 0.37502(12)
C5E C 0.31179(6) 0.43818(6) 0.37510(13)
H1E H 0.2886 0.4614 0.3752
C6E C 0.35399(6) 0.37903(5) 0.46617(14)
H2E H 0.3599 0.3617 0.5296
C7E C 0.37098(5) 0.39595(6) 0.28324(14)
H3E H 0.3883 0.3900 0.2198
C8E C 0.33706(6) 0.43057(6) 0.28254(14)
C9E C 0.31950(6) 0.41290(6) 0.46716(14)
C10E C 0.52322(6) 0.39635(5) 0.37377(16)
H4E H 0.5427 0.4227 0.3745
C11E C 0.47677(6) 0.39633(5) 0.37367(16)
H5E H 0.4573 0.4227 0.3741
C12E C 0.29131(8) 0.42109(7) 0.56726(16)
C13E C 0.32881(7) 0.45855(7) 0.18245(16)
H6E H 0.4913 0.2807 0.1494
Na1E Na 0.29559(2) 0.49999(2) -0.00001(5)
Na1J Na 0.25001(2) 0.04559(2) 0.75001(5)
Na1O Na 0.74999(2) 0.45441(2) 0.75001(5)
Na1A Na 0.79559(2) -0.00001(2) 0.49999(5)
Na1B Na 0.74999(2) -0.04559(2) 0.24999(5)
Na1C Na 0.75001(2) 0.04559(2) 0.74999(5)
Na1D Na 0.20441(2) 0.50001(2) 0.49999(5)
Na1F Na 0.24999(2) 0.45441(2) 0.74999(5)
Na1G Na 0.25001(2) 0.54559(2) 0.24999(5)
Na1H Na 0.29559(2) -0.00001(2) 0.00001(5)
Na1I Na 0.20441(2) 0.00001(2) 0.50001(5)
Na1K Na 0.24999(2) -0.04559(2) 0.25001(5)
Na1L Na 0.79559(2) 0.49999(2) 0.50001(5)
Na1M Na 0.70441(2) 0.50001(2) 0.00001(5)
Na1N Na 0.75001(2) 0.54559(2) 0.25001(5)
O1A O 0.75603(5) -0.05452(6) 0.05949(12)
O1B O 0.69548(6) -0.00603(5) -0.19051(12)
O1D O 0.24397(5) 0.55452(6) 0.05949(12)
O1G O 0.30452(6) 0.50603(5) -0.19051(12)
O1I O 0.24397(5) 0.05452(6) 0.94051(12)
O1K O 0.19548(6) -0.00603(5) 0.69051(12)
O1L O 0.75603(5) 0.44548(6) 0.94051(12)
O1N O 0.80452(6) 0.50603(5) 0.69051(12)
O2C O 0.75619(5) 0.05439(6) -0.05976(12)
O2F O 0.24381(5) 0.44561(6) -0.05976(12)
O2H O 0.30439(6) -0.00619(5) 0.80976(12)
O2M O 0.69561(6) 0.50619(5) 0.80976(12)
O3B O 0.65421(6) -0.05428(7) -0.09602(12)
O3G O 0.34579(6) 0.55428(7) -0.09602(12)
O3I O 0.19572(7) 0.09579(6) 0.84602(12)
O3L O 0.80428(7) 0.40421(6) 0.84602(12)
loop_
_geom_bond_atom_site_label_1
_geom_bond_atom_site_label_2
_geom_bond_site_symmetry_1
_geom_bond_site_symmetry_2
Zn1 N1 1_555 1_555
Na1 O2 1_555 1_555
O1 C12 1_555 1_555
O2 C13 1_555 1_555
O3 C12 1_555 1_555
O4 Na1 1_555 1_555
N1 C3 1_555 1_555
C1 C4 1_555 1_555
C2 C4 1_555 1_555
C3 C4 1_555 1_555
C5 H1 1_555 1_555
C6 C1 1_555 1_555
H2 C6 1_555 1_555
C7 C1 1_555 1_555
H3 C7 1_555 1_555
C8 C5 1_555 1_555
C9 C5 1_555 1_555
C10 H4 1_555 1_555
C11 C3 1_555 1_555
H5 C11 1_555 1_555
C12 C9 1_555 1_555
C13 O4 1_555 1_555
O5 Zn1 1_555 1_555
H6 O5 1_555 1_555
O1J C12J 1_555 1_555
O2J C13J 1_555 1_555
O3J C12J 1_555 1_555
O4J C13J 1_555 1_555
N1J Zn1 1_555 1_555
C1J C4J 1_555 1_555
C2J N1 1_555 1_555
C3J N1J 1_555 1_555
C4J C2J 1_555 1_555
C5J H1J 1_555 1_555
C6J C1J 1_555 1_555
H2J C6J 1_555 1_555
C7J C1J 1_555 1_555
H3J C7J 1_555 1_555
C8J C5J 1_555 1_555
C9J C5J 1_555 1_555
C10J H4J 1_555 1_555
C11J C3J 1_555 1_555
H5J C11J 1_555 1_555
C12J C9J 1_555 1_555
C13J C8J 1_555 1_555
O1O C12O 1_555 1_555
O2O C13O 1_555 1_555
O3O C12O 1_555 1_555
O4O C13O 1_555 1_555
N1O Zn1 1_555 1_555
C1O C4O 1_555 1_555
C2O C4O 1_555 1_555
C3O N1O 1_555 1_555
C4O C3O 1_555 1_555
C5O H1O 1_555 1_555
C6O C1O 1_555 1_555
H2O C6O 1_555 1_555
C7O C1O 1_555 1_555
H3O C7O 1_555 1_555
C8O C5O 1_555 1_555
C9O C5O 1_555 1_555
C10O C2 1_555 1_555
H4O C10O 1_555 1_555
C11O C3O 1_555 1_555
H5O C11O 1_555 1_555
C12O C9O 1_555 1_555
C13O C8O 1_555 1_555
O1E C12E 1_555 1_555
O2E C13E 1_555 1_555
O3E C12E 1_555 1_555
O4E C13E 1_555 1_555
N1E Zn1 1_555 1_555
C1E C4E 1_555 1_555
C2E N1J 1_555 1_555
C3E N1E 1_555 1_555
C4E C2E 1_555 1_555
C5E H1E 1_555 1_555
C6E C1E 1_555 1_555
H2E C6E 1_555 1_555
C7E C1E 1_555 1_555
H3E C7E 1_555 1_555
C8E C5E 1_555 1_555
C9E C5E 1_555 1_555
C10E C2O 1_555 1_555
H4E C10E 1_555 1_555
C11E C3E 1_555 1_555
H5E C11E 1_555 1_555
C12E C9E 1_555 1_555
C13E C8E 1_555 1_555
H6E O5 1_555 1_555
Na1E O2E 1_555 1_555
Na1J O2J 1_555 1_555
Na1O O2O 1_555 1_555
Na1A O1 1_555 1_555
Na1B O2 1_555 1_555
Na1C O1 1_555 1_555
Na1D O1E 1_555 1_555
Na1F O1E 1_555 1_555
Na1G O2E 1_555 1_555
Na1H O1J 1_555 1_555
Na1I O2J 1_555 1_555
Na1K O1J 1_555 1_555
Na1L O2O 1_555 1_555
Na1M O1O 1_555 1_555
Na1N O1O 1_555 1_555
O1A Na1 1_555 1_555
O1B Na1 1_555 1_555
O1D Na1E 1_555 1_555
O1G Na1E 1_555 1_555
O1I Na1J 1_555 1_555
O1K Na1J 1_555 1_555
O1L Na1O 1_555 1_555
O1N Na1O 1_555 1_555
O2C Na1 1_555 1_555
O2F Na1E 1_555 1_555
O2H Na1J 1_555 1_555
O2M Na1O 1_555 1_555
O3B Na1 1_555 1_555
O3G Na1E 1_555 1_555
O3I Na1J 1_555 1_555
O3L Na1O 1_555 1_555
O3 Na1C 1_555 1_555
C2 N1O 1_555 1_555
C6 C9 1_555 1_555
C7 C8 1_555 1_555
C8 C13 1_555 1_555
C10 C11 1_555 1_555
C10 C2J 1_555 1_555
O3J Na1H 1_555 1_555
O4J Na1J 1_555 1_555
C3J C4J 1_555 1_555
C6J C9J 1_555 1_555
C7J C8J 1_555 1_555
C10J C11J 1_555 1_555
C10J C2E 1_555 1_555
O3O Na1M 1_555 1_555
O4O Na1O 1_555 1_555
C2O N1E 1_555 1_555
C6O C9O 1_555 1_555
C7O C8O 1_555 1_555
C10O C11O 1_555 1_555
O3E Na1F 1_555 1_555
O4E Na1E 1_555 1_555
C3E C4E 1_555 1_555
C6E C9E 1_555 1_555
C7E C8E 1_555 1_555
C10E C11E 1_555 1_555
Na1B O1A 1_555 1_555
Na1G O1D 1_555 1_555
Na1I O1K 1_555 1_555
Na1L O1N 1_555 1_555

#END
