
#######################################################################
#
#                 Cambridge Crystallographic Data Centre
#                                CCDC 
#
#######################################################################
#
# If this CIF has been generated from an entry in the Cambridge 
# Structural Database, then it will include bibliographic, chemical, 
# crystal, experimental, refinement or atomic coordinate data resulting 
# from the CCDC's data processing and validation procedures.
#
#######################################################################

data_KUJMIN
_chemical_formula_moiety         '(C63 H84 Cd5 N8 O32)n'
_symmetry_cell_setting           triclinic
_symmetry_space_group_name_H-M   'P -1'
_symmetry_Int_Tables_number      2
_space_group_name_Hall           '-P 1'
loop_
_symmetry_equiv_pos_site_id
_symmetry_equiv_pos_as_xyz
1 x,y,z
2 -x,-y,-z
_cell_length_a                   10.2008(7)
_cell_length_b                   20.4494(15)
_cell_length_c                   20.5893(15)
_cell_angle_alpha                88.589(2)
_cell_angle_beta                 76.3950(10)
_cell_angle_gamma                87.033(2)
_cell_volume                     4168.48
loop_
_atom_site_label
_atom_site_type_symbol
_atom_site_fract_x
_atom_site_fract_y
_atom_site_fract_z
O1 O 1.1473(4) 0.73570(17) 0.16372(17)
C1 C 0.7059(5) 0.3279(2) 0.3589(2)
C2 C 0.5820(4) 0.2883(2) 0.3710(2)
C3 C 0.5889(4) 0.2242(2) 0.3942(2)
H1 H 0.6707 0.2057 0.3999
C4 C 0.4742(5) 0.1874(2) 0.4091(2)
C5 C 0.3549(4) 0.2143(2) 0.3971(2)
H2 H 0.2786 0.1896 0.4059
C6 C 0.3472(4) 0.2775(2) 0.3723(2)
C7 C 0.4607(4) 0.3155(2) 0.3610(2)
H3 H 0.4549 0.3589 0.3469
C8 C 0.4802(5) 0.1203(2) 0.4401(2)
C9 C 0.2152(4) 0.3061(2) 0.3603(2)
C10 C 0.9259(5) 0.3618(2) 0.1908(2)
C11 C 0.9635(4) 0.3273(2) 0.1244(2)
C12 C 1.0973(5) 0.3094(2) 0.0954(2)
H4 H 1.1648 0.3203 0.1161
C13 C 1.1311(4) 0.2754(2) 0.0354(2)
C14 C 1.0300(4) 0.2564(2) 0.0062(2)
H5 H 1.0521 0.2324 -0.0330
C15 C 0.8952(4) 0.2732(2) 0.0355(2)
C16 C 0.8639(4) 0.3105(2) 0.0933(2)
H6 H 0.7747 0.3243 0.1112
C17 C 1.2775(4) 0.2572(2) 0.0055(2)
C18 C 0.7822(5) 0.2501(2) 0.0076(2)
C19 C 0.9951(4) 0.5147(2) 0.2699(2)
C20 C 1.1293(4) 0.5465(2) 0.2480(2)
C21 C 1.1316(4) 0.6073(2) 0.2165(2)
H7 H 1.0515 0.6284 0.2117
C22 C 1.2537(4) 0.6367(2) 0.1922(2)
C23 C 1.3722(4) 0.6049(2) 0.1997(2)
H8 H 1.4542 0.6237 0.1820
C24 C 1.3702(4) 0.5452(2) 0.2332(2)
C25 C 1.2476(4) 0.5153(2) 0.2573(2)
H9 H 1.2454 0.4750 0.2794
C26 C 1.2580(5) 0.7032(2) 0.1584(2)
C27 C 1.5008(4) 0.5146(2) 0.2443(2)
C28 C 1.3889(5) 0.8705(2) 0.1687(2)
C29 C 1.4909(4) 0.8829(2) 0.2086(2)
C30 C 1.6282(4) 0.8736(2) 0.1802(2)
H10 H 1.6570 0.8587 0.1366
C31 C 1.7225(4) 0.8861(2) 0.2164(2)
C32 C 1.6797(5) 0.9089(2) 0.2811(2)
H11 H 1.7429 0.9184 0.3051
C33 C 1.5420(5) 0.9176(2) 0.3105(2)
C34 C 1.4493(5) 0.9045(2) 0.2739(2)
H12 H 1.3576 0.9103 0.2934
C35 C 1.8714(5) 0.8741(3) 0.1866(2)
C36 C 1.4968(5) 0.9430(2) 0.3807(2)
C37 C 0.8227(7) 0.4420(3) 0.4675(3)
C38 C 0.8540(12) 0.4439(8) 0.5787(5)
H13 H 0.9097 0.4054 0.5637
H14 H 0.7877 0.4337 0.6186
H15 H 0.9092 0.4776 0.5878
C39 C 0.6756(10) 0.5136(4) 0.5467(4)
H16 H 0.6422 0.5267 0.5083
H17 H 0.7052 0.5512 0.5652
H18 H 0.6049 0.4942 0.5796
C40 C 1.1676(19) 1.0213(5) 0.1353(6)
H19 H 1.0750 1.0247 0.1598
H20 H 1.2032 1.0641 0.1290
H21 H 1.2191 0.9942 0.1599
C41 C 1.1759(9) 0.9915(4) 0.0688(4)
C42 C 1.1901(16) 1.0024(6) -0.0500(5)
H22 H 1.2808 1.0028 -0.0768
H23 H 1.1309 1.0277 -0.0719
H24 H 1.1622 0.9581 -0.0440
C43 C 1.191(2) 1.1037(5) 0.0217(9)
H25 H 1.1976 1.1155 0.0655
H26 H 1.1102 1.1243 0.0124
H27 H 1.2681 1.1178 -0.0108
C44 C 0.0503(9) -0.1080(4) 0.5526(5)
H28 H 0.1365 -0.1166 0.5225
H29 H -0.0201 -0.1124 0.5295
H30 H 0.0392 -0.1387 0.5893
C45 C 0.0430(6) -0.0373(4) 0.5794(3)
C46 C -0.0552(8) 0.0456(4) 0.6531(5)
H31 H 0.0338 0.0620 0.6401
H32 H -0.0851 0.0459 0.7009
H33 H -0.1161 0.0729 0.6339
C47 C -0.1615(7) -0.0642(5) 0.6610(4)
H34 H -0.2337 -0.0591 0.6384
H35 H -0.1941 -0.0515 0.7068
H36 H -0.1289 -0.1092 0.6594
Cd1 Cd 0.98413(3) 0.365664(16) 0.339258(16)
Cd2 Cd 1.45396(3) 0.778970(16) 0.035175(15)
Cd3 Cd 1.13473(3) 0.842377(15) 0.133639(16)
Cd4 Cd 0.34614(3) -0.005909(15) 0.506051(15)
Cd5 Cd 1.72949(3) 0.468023(15) 0.279476(15)
N1 N 0.7870(6) 0.4666(3) 0.5273(3)
N2 N 1.1842(11) 1.0320(4) 0.0185(5)
N3 N -0.0524(5) -0.0232(3) 0.6287(3)
O2 O 0.8174(3) 0.29650(17) 0.3530(2)
O3 O 0.6907(3) 0.38898(16) 0.35905(16)
O4 O 0.3724(3) 0.09071(16) 0.45499(18)
O5 O 0.5931(3) 0.09899(16) 0.44902(18)
O6 O 0.1156(4) 0.2718(2) 0.3726(2)
O7 O 0.2106(3) 0.36291(17) 0.3376(2)
O8 O 1.0111(3) 0.35903(19) 0.22580(17)
O9 O 0.8109(3) 0.38955(18) 0.20545(18)
O10 O 0.6677(3) 0.27874(19) 0.02461(19)
O11 O 0.8049(3) 0.20080(18) -0.02939(17)
O12 O 1.3146(4) 0.2408(2) -0.05384(19)
O13 O 1.3598(4) 0.2587(2) 0.0412(2)
O14 O 0.9758(3) 0.47579(15) 0.31904(16)
O15 O 0.9076(3) 0.52987(17) 0.23746(17)
O16 O 1.3722(3) 0.72066(17) 0.12798(18)
O17 O 1.6102(3) 0.53870(17) 0.21399(17)
O18 O 1.4980(3) 0.46783(17) 0.28427(18)
O19 O 1.4290(4) 0.86414(16) 0.10643(16)
O20 O 1.2683(3) 0.8678(2) 0.20018(18)
O21 O 1.3725(4) 0.94761(18) 0.40630(16)
O22 O 1.5869(4) 0.95845(19) 0.40885(18)
O23 O 1.9537(4) 0.8974(2) 0.2144(2)
O24 O 1.9078(3) 0.8399(2) 0.13592(19)
O25 O 0.9146(4) 0.3996(2) 0.44937(19)
O26 O 1.4409(6) 0.8704(2) -0.0366(2)
O27 O 1.1766(5) 0.9334(2) 0.0642(2)
O28 O 0.1293(4) -0.0003(2) 0.5501(2)
O29 O 1.6747(4) 0.54983(17) 0.36209(18)
Cd1_2 Cd -0.01587(3) 0.365664(16) 0.339258(16)
Cd2A Cd 0.54604(3) 0.221030(16) -0.035175(15)
Cd2A_2 Cd 1.54604(3) 0.221030(16) -0.035175(15)
Cd3_2 Cd 2.13473(3) 0.842377(15) 0.133639(16)
Cd3A Cd 0.86527(3) 0.157623(15) -0.133639(16)
Cd4_2 Cd 1.34614(3) 0.994091(15) 0.506051(15)
Cd4A Cd 0.65386(3) 0.005909(15) 0.493949(15)
Cd4A_2 Cd 1.65386(3) 1.005909(15) 0.493949(15)
Cd5_2 Cd 0.72949(3) 0.468023(15) 0.279476(15)
O3_2 O 1.6907(3) 0.38898(16) 0.35905(16)
O5A O 0.4069(3) -0.09899(16) 0.55098(18)
O6_2 O 1.1156(4) 0.2718(2) 0.3726(2)
O7_2 O 1.2106(3) 0.36291(17) 0.3376(2)
O9_2 O 1.8109(3) 0.38955(18) 0.20545(18)
O10A O 1.3323(3) 0.72126(19) -0.02461(19)
O11A O 1.1951(3) 0.79920(18) 0.02939(17)
O12A O 1.6854(4) 0.7592(2) 0.05384(19)
O13A O 1.6402(4) 0.7413(2) -0.0412(2)
O15_2 O 1.9076(3) 0.52987(17) 0.23746(17)
O21_2 O 0.3725(4) -0.05239(18) 0.40630(16)
O22A O 0.4131(4) 0.04155(19) 0.59115(18)
O23_2 O 0.9537(4) 0.8974(2) 0.2144(2)
O24_2 O 0.9078(3) 0.8399(2) 0.13592(19)
C48 C 0.3517(10) 0.2643(5) 0.1917(5)
H37 H 0.3927 0.2428 0.2244
H38 H 0.3239 0.2321 0.1652
H39 H 0.2744 0.2908 0.2139
C49 C 0.4988(9) 0.3542(4) 0.1852(4)
H40 H 0.4231 0.3746 0.2160
H41 H 0.5461 0.3869 0.1558
H42 H 0.5587 0.3328 0.2096
N4 N 0.4524(7) 0.3072(3) 0.1471(3)
H43 H 0.5230 0.2822 0.1248
H44 H 0.4135 0.3280 0.1169
C50 C 0.4595(12) 0.6681(5) 0.4625(4)
H45 H 0.3802 0.6726 0.4982
H46 H 0.5213 0.7008 0.4664
H47 H 0.5019 0.6254 0.4647
C51 C 0.4205(9) 0.6768(4) 0.3965(4)
C52 C 0.2932(13) 0.7764(5) 0.4402(6)
H48 H 0.2278 0.7574 0.4759
H49 H 0.2513 0.8126 0.4208
H50 H 0.3659 0.7916 0.4572
C53 C 0.2968(13) 0.7333(6) 0.3276(5)
H51 H 0.3705 0.7249 0.2897
H52 H 0.2588 0.7768 0.3241
H53 H 0.2289 0.7022 0.3290
N5 N 0.3462(9) 0.7271(4) 0.3890(4)
O30 O 0.4662(6) 0.6365(3) 0.3528(3)
C54 C 0.5446(14) 0.0774(6) 0.2218(8)
H54 H 0.4713 0.0842 0.2001
H55 H 0.5111 0.0821 0.2692
H56 H 0.5847 0.0341 0.2125
C55 C 0.6485(12) 0.1269(5) 0.1964(5)
C56 C 0.7706(12) 0.0829(5) 0.2781(4)
H57 H 0.6863 0.0684 0.3046
H58 H 0.8176 0.1043 0.3062
H59 H 0.8247 0.0458 0.2576
C57 C 0.8446(16) 0.1795(7) 0.2088(8)
H60 H 0.8939 0.1738 0.1633
H61 H 0.9061 0.1764 0.2377
H62 H 0.7979 0.2217 0.2134
N6 N 0.7454(10) 0.1278(4) 0.2273(4)
O31 O 0.6360(9) 0.1664(4) 0.1508(4)
C58 C 0.4553(9) 0.4161(5) -0.0343(5)
H63 H 0.5252 0.3899 -0.0206
H64 H 0.4935 0.4538 -0.0589
H65 H 0.4146 0.3906 -0.0622
C59 C 0.3504(10) 0.4377(4) 0.0260(5)
C60 C 0.2591(14) 0.5145(6) -0.0479(6)
H66 H 0.3051 0.4871 -0.0842
H67 H 0.3034 0.5551 -0.0504
H68 H 0.1672 0.5231 -0.0507
C61 C 0.1550(11) 0.5026(6) 0.0766(5)
H69 H 0.1725 0.4813 0.1159
H70 H 0.0680 0.4914 0.0712
H71 H 0.1563 0.5492 0.0810
N7 N 0.2616(8) 0.4808(4) 0.0166(4)
O32 O 0.3492(7) 0.4152(3) 0.0834(3)
C62 C 0.8458(9) 0.6472(5) 0.1380(4)
H72 H 0.7946 0.6488 0.1043
H73 H 0.8987 0.6066 0.1348
H74 H 0.9046 0.6831 0.1314
C63 C 0.6719(11) 0.7112(4) 0.2149(5)
H75 H 0.7304 0.7473 0.2077
H76 H 0.6159 0.7129 0.2594
H77 H 0.6160 0.7138 0.1833
N8 N 0.7503(6) 0.6517(3) 0.2066(4)
H78 H 0.6950 0.6181 0.2124
H79 H 0.7984 0.6483 0.2380
loop_
_geom_bond_atom_site_label_1
_geom_bond_atom_site_label_2
_geom_bond_site_symmetry_1
_geom_bond_site_symmetry_2
O1 C26 1_555 1_555
C1 C2 1_555 1_555
C2 C3 1_555 1_555
C3 H1 1_555 1_555
C4 C3 1_555 1_555
C5 C4 1_555 1_555
H2 C5 1_555 1_555
C6 C5 1_555 1_555
C7 C2 1_555 1_555
H3 C7 1_555 1_555
C8 C4 1_555 1_555
C9 C6 1_555 1_555
C10 C11 1_555 1_555
C11 C12 1_555 1_555
C12 H4 1_555 1_555
C13 C12 1_555 1_555
C14 C13 1_555 1_555
H5 C14 1_555 1_555
C15 C14 1_555 1_555
C16 C11 1_555 1_555
H6 C16 1_555 1_555
C17 C13 1_555 1_555
C18 C15 1_555 1_555
C19 C20 1_555 1_555
C20 C21 1_555 1_555
C21 H7 1_555 1_555
C22 C21 1_555 1_555
C23 C22 1_555 1_555
H8 C23 1_555 1_555
C24 C23 1_555 1_555
C25 C20 1_555 1_555
H9 C25 1_555 1_555
C26 C22 1_555 1_555
C27 C24 1_555 1_555
C28 C29 1_555 1_555
C29 C30 1_555 1_555
C30 H10 1_555 1_555
C31 C30 1_555 1_555
C32 C31 1_555 1_555
H11 C32 1_555 1_555
C33 C32 1_555 1_555
C34 C29 1_555 1_555
H12 C34 1_555 1_555
C35 C31 1_555 1_555
C36 C33 1_555 1_555
C37 N1 1_555 1_555
C38 H13 1_555 1_555
H14 C38 1_555 1_555
H15 C38 1_555 1_555
C39 H16 1_555 1_555
H17 C39 1_555 1_555
H18 C39 1_555 1_555
C40 H19 1_555 1_555
H20 C40 1_555 1_555
H21 C40 1_555 1_555
C41 C40 1_555 1_555
C42 H22 1_555 1_555
H23 C42 1_555 1_555
H24 C42 1_555 1_555
C43 H25 1_555 1_555
H26 C43 1_555 1_555
H27 C43 1_555 1_555
C44 H28 1_555 1_555
H29 C44 1_555 1_555
H30 C44 1_555 1_555
C45 C44 1_555 1_555
C46 H31 1_555 1_555
H32 C46 1_555 1_555
H33 C46 1_555 1_555
C47 H34 1_555 1_555
H35 C47 1_555 1_555
H36 C47 1_555 1_555
Cd1 O2 1_555 1_555
Cd2 O16 1_555 1_555
Cd3 O1 1_555 1_555
Cd4 O4 1_555 1_555
Cd5 O17 1_555 1_555
N1 C38 1_555 1_555
N2 C41 1_555 1_555
N3 C45 1_555 1_555
O2 C1 1_555 1_555
O3 C1 1_555 1_555
O4 C8 1_555 1_555
O5 C8 1_555 1_555
O6 C9 1_555 1_555
O7 C9 1_555 1_555
O8 C10 1_555 1_555
O9 C10 1_555 1_555
O10 C18 1_555 1_555
O11 C18 1_555 1_555
O12 C17 1_555 1_555
O13 C17 1_555 1_555
O14 C19 1_555 1_555
O15 C19 1_555 1_555
O16 C26 1_555 1_555
O17 C27 1_555 1_555
O18 C27 1_555 1_555
O19 C28 1_555 1_555
O20 C28 1_555 1_555
O21 C36 1_555 1_555
O22 C36 1_555 1_555
O23 C35 1_555 1_555
O24 C35 1_555 1_555
O25 C37 1_555 1_555
O26 Cd2 1_555 1_555
O27 C41 1_555 1_555
O28 C45 1_555 1_555
O29 Cd5 1_555 1_555
C48 H37 1_555 1_555
H38 C48 1_555 1_555
H39 C48 1_555 1_555
C49 H40 1_555 1_555
H41 C49 1_555 1_555
H42 C49 1_555 1_555
N4 C48 1_555 1_555
H43 N4 1_555 1_555
H44 N4 1_555 1_555
C50 H45 1_555 1_555
H46 C50 1_555 1_555
H47 C50 1_555 1_555
C51 C50 1_555 1_555
C52 H48 1_555 1_555
H49 C52 1_555 1_555
H50 C52 1_555 1_555
C53 H51 1_555 1_555
H52 C53 1_555 1_555
H53 C53 1_555 1_555
N5 C51 1_555 1_555
O30 C51 1_555 1_555
C54 H54 1_555 1_555
H55 C54 1_555 1_555
H56 C54 1_555 1_555
C55 C54 1_555 1_555
C56 H57 1_555 1_555
H58 C56 1_555 1_555
H59 C56 1_555 1_555
C57 H60 1_555 1_555
H61 C57 1_555 1_555
H62 C57 1_555 1_555
N6 C55 1_555 1_555
O31 C55 1_555 1_555
C58 H63 1_555 1_555
H64 C58 1_555 1_555
H65 C58 1_555 1_555
C59 C58 1_555 1_555
C60 H66 1_555 1_555
H67 C60 1_555 1_555
H68 C60 1_555 1_555
C61 H69 1_555 1_555
H70 C61 1_555 1_555
H71 C61 1_555 1_555
N7 C59 1_555 1_555
O32 C59 1_555 1_555
C62 H72 1_555 1_555
H73 C62 1_555 1_555
H74 C62 1_555 1_555
C63 H75 1_555 1_555
H76 C63 1_555 1_555
H77 C63 1_555 1_555
N8 C62 1_555 1_555
H78 N8 1_555 1_555
H79 N8 1_555 1_555
Cd1_2 O6 1_555 1_555
Cd2A O10 1_555 1_555
Cd2A_2 O12 1_555 1_555
Cd3_2 O23 1_555 1_555
Cd3A O11 1_555 1_555
Cd4_2 O21 1_555 1_555
Cd4A O5 1_555 1_555
Cd4A_2 O22 1_555 1_555
Cd5_2 O3 1_555 1_555
O3_2 Cd5 1_555 1_555
O5A Cd4 1_555 1_555
O6_2 Cd1 1_555 1_555
O7_2 Cd1 1_555 1_555
O9_2 Cd5 1_555 1_555
O10A Cd2 1_555 1_555
O11A Cd2 1_555 1_555
O12A Cd2 1_555 1_555
O13A Cd2 1_555 1_555
O15_2 Cd5 1_555 1_555
O21_2 Cd4 1_555 1_555
O22A Cd4 1_555 1_555
O23_2 Cd3 1_555 1_555
O24_2 Cd3 1_555 1_555
C6 C7 1_555 1_555
C15 C16 1_555 1_555
C24 C25 1_555 1_555
C33 C34 1_555 1_555
C39 N1 1_555 1_555
C42 N2 1_555 1_555
C43 N2 1_555 1_555
C46 N3 1_555 1_555
C47 N3 1_555 1_555
Cd1 O8 1_555 1_555
Cd1 O14 1_555 1_555
Cd1 O25 1_555 1_555
Cd2 O19 1_555 1_555
Cd3 O20 1_555 1_555
Cd3 O27 1_555 1_555
Cd3 O11A 1_555 1_555
Cd4 O28 1_555 1_555
Cd5 O18 1_555 1_555
O7 Cd1_2 1_555 1_555
O9 Cd5_2 1_555 1_555
O11 Cd2A 1_555 1_555
O13 Cd2A_2 1_555 1_555
O15 Cd5_2 1_555 1_555
O24 Cd3_2 1_555 1_555
C49 N4 1_555 1_555
C52 N5 1_555 1_555
C53 N5 1_555 1_555
C56 N6 1_555 1_555
C57 N6 1_555 1_555
C60 N7 1_555 1_555
C61 N7 1_555 1_555
C63 N8 1_555 1_555

#END
