
#######################################################################
#
#                 Cambridge Crystallographic Data Centre
#                                CCDC 
#
#######################################################################
#
# If this CIF has been generated from an entry in the Cambridge 
# Structural Database, then it will include bibliographic, chemical, 
# crystal, experimental, refinement or atomic coordinate data resulting 
# from the CCDC's data processing and validation procedures.
#
#######################################################################

data_DUNXUH06
_chemical_formula_moiety         '(C14 H14 N2 O7 S1 Zn1)n'
_symmetry_cell_setting           monoclinic
_symmetry_space_group_name_H-M   'P 21/n'
_symmetry_Int_Tables_number      14
_space_group_name_Hall           '-P 2yn'
loop_
_symmetry_equiv_pos_site_id
_symmetry_equiv_pos_as_xyz
1 x,y,z
2 1/2-x,1/2+y,1/2-z
3 -x,-y,-z
4 1/2+x,1/2-y,1/2+z
_cell_length_a                   11.2655(7)
_cell_length_b                   11.9962(7)
_cell_length_c                   12.5019(8)
_cell_angle_alpha                90
_cell_angle_beta                 94.2940(10)
_cell_angle_gamma                90
_cell_volume                     1684.8
loop_
_atom_site_label
_atom_site_type_symbol
_atom_site_fract_x
_atom_site_fract_y
_atom_site_fract_z
_atom_site_U_iso_or_equiv
_atom_site_thermal_displace_type
Zn1 Zn 0.15934(2) 0.52578(2) 0.481528(19) 0.0261 Uani
S1 S 0.76197(5) 0.53372(5) 0.28456(5) 0.0368 Uani
C1 C 0.42507(18) 0.63356(18) 0.31654(16) 0.0273 Uani
C2 C 0.41209(18) 0.72208(18) 0.24532(17) 0.0272 Uani
H1 H 0.3401 0.7602 0.2374 0.0330 Uiso
C3 C 0.50562(17) 0.75449(17) 0.18561(16) 0.0253 Uani
C4 C 0.61277(18) 0.69696(18) 0.19678(17) 0.0286 Uani
H2 H 0.6754 0.7176 0.1566 0.0340 Uiso
C5 C 0.62587(18) 0.60879(18) 0.26812(17) 0.0284 Uani
C6 C 0.53317(19) 0.57749(19) 0.32880(17) 0.0298 Uani
H3 H 0.5434 0.5191 0.3776 0.0360 Uiso
C7 C 0.3236(2) 0.5984(2) 0.37899(18) 0.0339 Uani
C8 C 0.49201(18) 0.85135(17) 0.11010(17) 0.0265 Uani
O1 O 0.22645(15) 0.64719(16) 0.36615(16) 0.0499 Uani
O2 O 0.33714(16) 0.51875(17) 0.44392(16) 0.0553 Uani
O3 O 0.56036(13) 0.85563(13) 0.03567(12) 0.0323 Uani
O4 O 0.41181(14) 0.92124(14) 0.12643(12) 0.0363 Uani
O5 O 0.81864(14) 0.57261(14) 0.38830(13) 0.0387 Uani
O6 O 0.73054(18) 0.41834(16) 0.2882(2) 0.0676 Uani
O7 O 0.83052(17) 0.5651(2) 0.19739(16) 0.0666 Uani
Zn1A Zn 0.34066(2) 1.02578(2) 0.018472(19) 0.0261 Uani
Zn1B Zn 0.84066(2) 0.47422(2) 0.518472(19) 0.0261 Uani
Zn1C Zn 0.65934(2) 0.97422(2) -0.018472(19) 0.0261 Uani
O3C O 0.06036(13) 0.64437(13) 0.53567(12) 0.0323 Uani
O4A O 0.08819(14) 0.42124(14) 0.37357(12) 0.0363 Uani
O5B O 0.18136(14) 0.42739(14) 0.61170(13) 0.0387 Uani
C9 C 0.9014(3) 0.4088(3) -0.1482(3) 0.0610 Uani
H4 H 0.9233 0.4514 -0.2057 0.0730 Uiso
C10 C 0.8271(4) 0.3593(4) 0.0010(3) 0.0962 Uani
H5 H 0.7889 0.3617 0.0644 0.1150 Uiso
C11 C 0.8760(4) 0.2705(3) -0.0417(4) 0.0935 Uani
H6 H 0.8783 0.1990 -0.0130 0.1130 Uiso
C12 C 0.7984(5) 0.5613(3) -0.0565(3) 0.0916 Uani
H7 H 0.8253 0.6072 -0.1138 0.1100 Uiso
H8 H 0.8299 0.5928 0.0113 0.1100 Uiso
C13 C 0.6646(6) 0.5623(5) -0.0614(5) 0.1363 Uani
H9 H 0.6371 0.6374 -0.0543 0.2040 Uiso
H10 H 0.6380 0.5176 -0.0041 0.2040 Uiso
H11 H 0.6334 0.5323 -0.1290 0.2040 Uiso
C14 C 0.9840(4) 0.2330(4) -0.2084(4) 0.1160 Uani
H12 H 1.0074 0.2778 -0.2669 0.1740 Uiso
H13 H 0.9319 0.1746 -0.2357 0.1740 Uiso
H14 H 1.0534 0.2008 -0.1713 0.1740 Uiso
N1 N 0.8440(3) 0.4467(2) -0.0669(2) 0.0691 Uani
N2 N 0.9225(3) 0.3022(2) -0.1349(3) 0.0740 Uani
loop_
_atom_site_aniso_label
_atom_site_aniso_U_11
_atom_site_aniso_U_22
_atom_site_aniso_U_33
_atom_site_aniso_U_23
_atom_site_aniso_U_13
_atom_site_aniso_U_12
Zn1 0.02319(13) 0.02783(14) 0.02849(14) -0.00257(10) 0.00934(9) -0.00126(10)
S1 0.0294(3) 0.0447(4) 0.0365(3) 0.0018(3) 0.0032(2) 0.0117(2)
C1 0.0257(10) 0.0313(11) 0.0253(10) 0.0030(9) 0.0054(8) -0.0036(8)
C2 0.0218(10) 0.0317(11) 0.0287(11) 0.0018(9) 0.0058(8) 0.0018(8)
C3 0.0244(10) 0.0260(10) 0.0261(10) 0.0021(8) 0.0059(8) -0.0006(8)
C4 0.0252(10) 0.0321(11) 0.0297(11) 0.0010(9) 0.0091(8) -0.0010(8)
C5 0.0250(10) 0.0315(11) 0.0290(11) -0.0007(9) 0.0036(8) 0.0028(8)
C6 0.0310(11) 0.0321(11) 0.0265(11) 0.0057(9) 0.0027(9) 0.0005(9)
C7 0.0319(11) 0.0431(13) 0.0277(11) -0.0009(10) 0.0093(9) -0.0117(10)
C8 0.0265(10) 0.0269(11) 0.0266(11) -0.0004(8) 0.0044(8) -0.0049(8)
O1 0.0352(9) 0.0512(11) 0.0669(13) 0.0095(9) 0.0281(9) 0.0014(8)
O2 0.0357(10) 0.0791(14) 0.0519(12) 0.0360(11) 0.0084(8) -0.0082(9)
O3 0.0355(8) 0.0325(8) 0.0304(8) 0.0040(7) 0.0125(6) -0.0066(7)
O4 0.0425(9) 0.0342(9) 0.0337(9) 0.0096(7) 0.0125(7) 0.0103(7)
O5 0.0346(8) 0.0444(9) 0.0368(9) 0.0082(8) -0.0001(7) 0.0002(7)
O6 0.0544(12) 0.0381(11) 0.1065(18) -0.0110(11) -0.0191(12) 0.0138(9)
O7 0.0424(11) 0.1174(19) 0.0422(11) 0.0158(12) 0.0173(9) 0.0337(12)
Zn1A 0.02319 0.02783 0.02849 0.00257 0.00934 0.00126
Zn1B 0.02319 0.02783 0.02849 -0.00257 0.00934 -0.00126
Zn1C 0.02319 0.02783 0.02849 0.00257 0.00934 0.00126
O3C 0.0355 0.0325 0.0304 -0.004 0.0125 0.0066
O4A 0.0425 0.0342 0.0337 -0.0096 0.0125 -0.0103
O5B 0.0346 0.0444 0.0368 0.0082 -0.0001 0.0002
C9 0.076(2) 0.0526(19) 0.0529(19) 0.0018(15) -0.0055(16) -0.0048(16)
C10 0.155(4) 0.071(3) 0.063(2) 0.027(2) 0.010(3) 0.003(3)
C11 0.129(4) 0.060(2) 0.086(3) 0.029(2) -0.029(3) -0.004(2)
C12 0.163(5) 0.058(2) 0.055(2) 0.0003(17) 0.016(3) 0.009(3)
C13 0.175(6) 0.109(4) 0.117(4) -0.035(4) -0.042(4) 0.058(4)
C14 0.100(3) 0.079(3) 0.166(5) -0.036(3) -0.010(3) 0.025(3)
N1 0.110(2) 0.0514(15) 0.0451(15) 0.0105(12) 0.0004(15) 0.0021(15)
N2 0.0713(18) 0.0539(17) 0.092(2) -0.0060(16) -0.0250(17) 0.0079(14)
loop_
_geom_bond_atom_site_label_1
_geom_bond_atom_site_label_2
_geom_bond_site_symmetry_1
_geom_bond_site_symmetry_2
Zn1 O1 1_555 1_555
S1 C5 1_555 1_555
C1 C2 1_555 1_555
C2 H1 1_555 1_555
C3 C2 1_555 1_555
C4 C3 1_555 1_555
H2 C4 1_555 1_555
C5 C4 1_555 1_555
C6 C1 1_555 1_555
H3 C6 1_555 1_555
C7 C1 1_555 1_555
C8 C3 1_555 1_555
O1 C7 1_555 1_555
O2 Zn1 1_555 1_555
O3 C8 1_555 1_555
O4 C8 1_555 1_555
O5 S1 1_555 1_555
O6 S1 1_555 1_555
O7 S1 1_555 1_555
C9 H4 1_555 1_555
C10 H5 1_555 1_555
C11 C10 1_555 1_555
H6 C11 1_555 1_555
C12 H7 1_555 1_555
H8 C12 1_555 1_555
C13 C12 1_555 1_555
H9 C13 1_555 1_555
H10 C13 1_555 1_555
H11 C13 1_555 1_555
C14 H12 1_555 1_555
H13 C14 1_555 1_555
H14 C14 1_555 1_555
N1 C9 1_555 1_555
N2 C9 1_555 1_555
Zn1A O4 1_555 1_555
Zn1B O5 1_555 1_555
Zn1C O3 1_555 1_555
O3C Zn1 1_555 1_555
O4A Zn1 1_555 1_555
O5B Zn1 1_555 1_555
C5 C6 1_555 1_555
C7 O2 1_555 1_555
C10 N1 1_555 1_555
C11 N2 1_555 1_555
C12 N1 1_555 1_555
C14 N2 1_555 1_555

#END
