
#######################################################################
#
#                 Cambridge Crystallographic Data Centre
#                                CCDC 
#
#######################################################################
#
# If this CIF has been generated from an entry in the Cambridge 
# Structural Database, then it will include bibliographic, chemical, 
# crystal, experimental, refinement or atomic coordinate data resulting 
# from the CCDC's data processing and validation procedures.
#
#######################################################################

data_POCRAB
_chemical_formula_moiety         '(C80 H68 N12 O26 Zn4)n'
_symmetry_cell_setting           triclinic
_symmetry_space_group_name_H-M   'P -1'
_symmetry_Int_Tables_number      2
_space_group_name_Hall           '-P 1'
loop_
_symmetry_equiv_pos_site_id
_symmetry_equiv_pos_as_xyz
1 x,y,z
2 -x,-y,-z
_cell_length_a                   11.1290(9)
_cell_length_b                   13.9880(11)
_cell_length_c                   16.1410(13)
_cell_angle_alpha                82.895(2)
_cell_angle_beta                 88.3920(10)
_cell_angle_gamma                66.7180(10)
_cell_volume                     2289.78
loop_
_atom_site_label
_atom_site_type_symbol
_atom_site_fract_x
_atom_site_fract_y
_atom_site_fract_z
Zn1 Zn 0.98742(5) 0.48622(5) 0.76027(3)
Zn2 Zn 0.22621(7) 0.86977(5) 1.08299(4)
C1 C 1.2257(6) 0.3120(5) 0.6852(4)
H1 H 1.2415 0.2589 0.7294
C2 C 1.2958(6) 0.3043(6) 0.6131(4)
H2 H 1.3666 0.2459 0.5993
C3 C 1.1381(5) 0.4637(5) 0.6087(3)
C4 C 1.0445(5) 0.5706(5) 0.5864(3)
C5 C 1.0346(7) 0.6344(6) 0.5115(4)
H3 H 1.0941 0.6105 0.4695
C6 C 0.9374(8) 0.7320(7) 0.5001(4)
H4 H 0.9301 0.7749 0.4500
C7 C 0.8490(8) 0.7679(6) 0.5629(5)
H5 H 0.7822 0.8345 0.5562
C8 C 0.8640(6) 0.7010(5) 0.6353(4)
H6 H 0.8056 0.7240 0.6780
C9 C 1.2967(6) 0.4210(6) 0.4848(3)
H7 H 1.2270 0.4715 0.4481
H8 H 1.3343 0.3569 0.4590
C10 C 1.4013(5) 0.4635(5) 0.4937(3)
C11 C 1.3831(6) 0.5619(6) 0.4601(3)
H9 H 1.3042 0.6049 0.4328
C12 C 1.5192(6) 0.4006(6) 0.5342(4)
H10 H 1.5332 0.3328 0.5577
C13 C 1.4040(5) 0.5843(4) 0.9573(4)
H11 H 1.3392 0.6419 0.9274
C14 C 1.5341(5) 0.5678(5) 0.9444(4)
H12 H 1.5555 0.6145 0.9070
C15 C 1.3679(4) 0.5183(4) 1.0126(3)
C16 C 1.2247(4) 0.5419(4) 1.0299(3)
H13 H 1.2179 0.4809 1.0620
H14 H 1.1911 0.5994 1.0635
C17 C 1.0809(5) 0.6715(4) 0.9165(3)
H15 H 1.0807 0.7314 0.9359
C18 C 1.0202(5) 0.6676(4) 0.8472(3)
H16 H 0.9718 0.7252 0.8095
C19 C 1.1163(4) 0.5070(4) 0.9065(3)
C20 C 1.1447(4) 0.3946(4) 0.9201(3)
C21 C 1.2311(6) 0.3203(5) 0.9796(4)
H17 H 1.2819 0.3393 1.0137
C22 C 1.2403(7) 0.2195(5) 0.9873(5)
H18 H 1.2997 0.1691 1.0257
C23 C 1.1635(7) 0.1916(5) 0.9392(4)
H19 H 1.1652 0.1241 0.9465
C24 C 1.0823(5) 0.2683(4) 0.8789(3)
H20 H 1.0318 0.2499 0.8441
C25 C 0.2313(10) 0.8799(6) 0.9034(4)
C26 C -0.0369(12) 0.9983(6) 0.8399(7)
C27 C 0.2699(6) 0.7917(4) 0.7777(3)
H21 H 0.3556 0.7571 0.7979
C28 C 0.1809(8) 0.8630(4) 0.8213(4)
C29 C 0.0568(9) 0.9151(5) 0.7926(5)
C30 C 0.0213(6) 0.8957(5) 0.7174(5)
H22 H -0.0642 0.9326 0.6973
C31 C 0.1096(5) 0.8224(4) 0.6705(3)
H23 H 0.0849 0.8099 0.6197
C32 C 0.2341(5) 0.7696(4) 0.7026(3)
C33 C 0.4053(4) 0.6025(4) 0.7004(3)
C34 C 0.5364(4) 0.5791(3) 0.7062(2)
H24 H 0.5683 0.6294 0.6854
C35 C 0.6229(4) 0.4812(3) 0.7427(2)
C36 C 0.7652(4) 0.4605(4) 0.7413(3)
C37 C 0.5732(4) 0.4070(4) 0.7750(3)
C38 C 0.6594(7) 0.3019(5) 0.8204(6)
C39 C 0.4367(5) 0.4358(5) 0.7699(4)
H25 H 0.4022 0.3880 0.7926
C40 C 0.3543(5) 0.5310(4) 0.7330(4)
H26 H 0.2648 0.5478 0.7297
N1 N 1.2406(5) 0.3992(5) 0.5659(3)
N2 N 1.1301(4) 0.4094(4) 0.6815(2)
N3 N 0.9591(4) 0.6039(4) 0.6478(3)
N4 N 1.0403(4) 0.5661(3) 0.8404(2)
N5 N 1.1436(3) 0.5695(3) 0.9536(2)
N6 N 1.0740(4) 0.3661(3) 0.8688(2)
O1 O 0.1816(4) 0.8581(3) 0.9682(2)
O3 O 0.2592(19) 0.9504(11) 0.8920(7)
O4 O 0.3705(10) 0.9268(11) 1.0497(4)
O5 O -0.0078(10) 1.0625(6) 0.8698(5)
O7 O -0.1262(10) 0.9996(6) 0.8649(6)
O9 O 0.7550(7) 0.2865(4) 0.8565(3)
O11 O 0.6155(8) 0.2424(6) 0.8554(6)
O14 O 0.8435(4) 0.3903(4) 0.7042(3)
O16 O 0.7970(3) 0.5251(3) 0.7746(2)
O18 O 0.3243(4) 0.6990(3) 0.6559(2)
Zn1A Zn 2.01258(5) 0.51378(5) 0.23973(3)
Zn1A_2 Zn 2.01258(5) 0.51378(5) 1.23973(3)
Zn1A_3 Zn -0.98742(5) 1.51378(5) 1.23973(3)
Zn2A Zn -0.22621(7) 1.13023(5) 0.91701(4)
Zn2A_2 Zn 0.77379(7) 0.13023(5) 0.91701(4)
Zn2_2 Zn -0.77379(7) 1.86977(5) 1.08299(4)
C1A C 1.7743(6) 0.6880(5) 0.3148(4)
H1A H 1.7585 0.7411 0.2706
C2A C 1.7042(6) 0.6957(6) 0.3869(4)
H2A H 1.6334 0.7541 0.4007
C3A C 1.8619(5) 0.5363(5) 0.3913(3)
C4A C 1.9555(5) 0.4294(5) 0.4136(3)
C5A C 1.9654(7) 0.3656(6) 0.4885(4)
H3A H 1.9059 0.3895 0.5305
C6A C 2.0626(8) 0.2680(7) 0.4999(4)
H4A H 2.0699 0.2251 0.5500
C7A C 2.1510(8) 0.2321(6) 0.4371(5)
H5A H 2.2178 0.1655 0.4438
C8A C 2.1360(6) 0.2990(5) 0.3647(4)
H6A H 2.1944 0.2760 0.3220
C9A C 1.7033(6) 0.5790(6) 0.5152(3)
H7A H 1.7730 0.5285 0.5519
H8A H 1.6657 0.6431 0.5410
C10A C 1.5987(5) 0.5365(5) 0.5063(3)
C11A C 1.6169(6) 0.4381(6) 0.5399(3)
H9A H 1.6958 0.3951 0.5672
C12A C 1.4808(6) 0.5994(6) 0.4658(4)
H10A H 1.4668 0.6672 0.4423
C13A C 1.5960(5) 0.4157(4) 1.0427(4)
H11A H 1.6608 0.3581 1.0726
C14A C 1.4659(5) 0.4322(5) 1.0556(4)
H12A H 1.4445 0.3855 1.0930
C15A C 1.6321(4) 0.4817(4) 0.9874(3)
C16A C 1.7753(4) 0.4581(4) 0.9701(3)
H13A H 1.7821 0.5191 0.9380
H14A H 1.8089 0.4006 0.9365
C17A C 1.9191(5) 0.3285(4) 1.0835(3)
H15A H 1.9193 0.2686 1.0641
C18A C 1.9798(5) 0.3324(4) 1.1528(3)
H16A H 2.0282 0.2748 1.1905
C19A C 1.8837(4) 0.4930(4) 1.0935(3)
C20A C 1.8553(4) 0.6054(4) 1.0799(3)
C21A C 1.7689(6) 0.6797(5) 1.0204(4)
H17A H 1.7181 0.6607 0.9863
C22A C 1.7597(7) 0.7805(5) 1.0127(5)
H18A H 1.7003 0.8309 0.9743
C23A C 1.8365(7) 0.8084(5) 1.0608(4)
H19A H 1.8348 0.8759 1.0535
C24A C 1.9177(5) 0.7317(4) 1.1211(3)
H20A H 1.9682 0.7501 1.1559
C25A C -0.2313(10) 1.1201(6) 1.0966(4)
C26A C 0.0369(12) 1.0017(6) 1.1601(7)
C27A C -0.2699(6) 1.2083(4) 1.2223(3)
H21A H -0.3556 1.2429 1.2021
C28A C -0.1809(8) 1.1370(4) 1.1787(4)
C29A C -0.0568(9) 1.0849(5) 1.2074(5)
C30A C -0.0213(6) 1.1043(5) 1.2826(5)
H22A H 0.0642 1.0674 1.3027
C31A C -0.1096(5) 1.1776(4) 1.3295(3)
H23A H -0.0849 1.1901 1.3803
C32A C -0.2341(5) 1.2304(4) 1.2974(3)
C33A C -0.4053(4) 1.3975(4) 1.2996(3)
C34A C -0.5364(4) 1.4209(3) 1.2938(2)
H24A H -0.5683 1.3706 1.3146
C35A C -0.6229(4) 1.5188(3) 1.2573(2)
C36A C -0.7652(4) 1.5395(4) 1.2587(3)
C37A C -0.5732(4) 1.5930(4) 1.2250(3)
C38A C -0.6594(7) 1.6981(5) 1.1796(6)
C39A C -0.4367(5) 1.5642(5) 1.2301(4)
H25A H -0.4022 1.6120 1.2074
C40A C -0.3543(5) 1.4690(4) 1.2670(4)
H26A H -0.2648 1.4522 1.2703
N1A N 1.7594(5) 0.6008(5) 0.4341(3)
N2A N 1.8699(4) 0.5906(4) 0.3185(2)
N3A N 2.0409(4) 0.3961(4) 0.3522(3)
N4A N 1.9597(4) 0.4339(3) 1.1596(2)
N4A_2 N 1.9597(4) 0.4339(3) 0.1596(2)
N5A N 1.8564(3) 0.4305(3) 1.0464(2)
N6A N 1.9260(4) 0.6339(3) 1.1312(2)
N6A_2 N 1.9260(4) 0.6339(3) 0.1312(2)
O1A O -0.1816(4) 1.1419(3) 1.0318(2)
O3A O -0.2592(19) 1.0496(11) 1.1080(7)
O4A O -0.3705(10) 1.0732(11) 0.9503(4)
O5A O 0.0078(10) 0.9375(6) 1.1302(5)
O7A O 0.1262(10) 1.0004(6) 1.1351(6)
O9A O -0.7550(7) 1.7135(4) 1.1435(3)
O9A_2 O 0.2450(7) 0.7135(4) 1.1435(3)
O9_2 O -0.2450(7) 1.2865(4) 0.8565(3)
O11A O -0.6155(8) 1.7576(6) 1.1446(6)
O11A_2 O 0.3845(8) 0.7576(6) 1.1446(6)
O11_2 O -0.3845(8) 1.2424(6) 0.8554(6)
O14A O -0.8435(4) 1.6097(4) 1.2958(3)
O16A O -0.7970(3) 1.4749(3) 1.2254(2)
O16A_2 O 2.2030(3) 0.4749(3) 0.2254(2)
O18A O -0.3243(4) 1.3010(3) 1.3441(2)
O6 O -0.2817(13) 0.9140(14) 0.7783(10)
O8 O 0.9445(18) 0.1867(9) 0.6846(7)
O10 O 0.6343(12) 0.7486(11) 0.8169(8)
O13 O 1.656(2) 0.1002(17) 0.6468(14)
O15 O 0.453(2) 0.1300(16) 0.8231(13)
O17 O 1.2492(19) 0.0642(15) 0.7429(12)
loop_
_geom_bond_atom_site_label_1
_geom_bond_atom_site_label_2
_geom_bond_site_symmetry_1
_geom_bond_site_symmetry_2
Zn1 N2 1_555 1_555
Zn2 O1 1_555 1_555
C1 H1 1_555 1_555
C2 C1 1_555 1_555
H2 C2 1_555 1_555
C3 C4 1_555 1_555
C4 C5 1_555 1_555
C5 H3 1_555 1_555
C6 C5 1_555 1_555
H4 C6 1_555 1_555
C7 C6 1_555 1_555
H5 C7 1_555 1_555
C8 C7 1_555 1_555
H6 C8 1_555 1_555
C9 H7 1_555 1_555
H8 C9 1_555 1_555
C10 C9 1_555 1_555
C11 C10 1_555 1_555
H9 C11 1_555 1_555
C12 C10 1_555 1_555
H10 C12 1_555 1_555
C13 H11 1_555 1_555
C14 C13 1_555 1_555
H12 C14 1_555 1_555
C15 C13 1_555 1_555
C16 C15 1_555 1_555
H13 C16 1_555 1_555
H14 C16 1_555 1_555
C17 H15 1_555 1_555
C18 C17 1_555 1_555
H16 C18 1_555 1_555
C19 C20 1_555 1_555
C20 C21 1_555 1_555
C21 H17 1_555 1_555
C22 C21 1_555 1_555
H18 C22 1_555 1_555
C23 C22 1_555 1_555
H19 C23 1_555 1_555
C24 C23 1_555 1_555
H20 C24 1_555 1_555
C25 C28 1_555 1_555
C26 C29 1_555 1_555
C27 H21 1_555 1_555
C28 C27 1_555 1_555
C29 C28 1_555 1_555
C30 C29 1_555 1_555
H22 C30 1_555 1_555
C31 C30 1_555 1_555
H23 C31 1_555 1_555
C32 C27 1_555 1_555
C33 C34 1_555 1_555
C34 H24 1_555 1_555
C35 C34 1_555 1_555
C36 C35 1_555 1_555
C37 C35 1_555 1_555
C38 C37 1_555 1_555
C39 C37 1_555 1_555
H25 C39 1_555 1_555
C40 C33 1_555 1_555
H26 C40 1_555 1_555
N1 C2 1_555 1_555
N2 C1 1_555 1_555
N3 Zn1 1_555 1_555
N4 Zn1 1_555 1_555
N5 C16 1_555 1_555
N6 Zn1 1_555 1_555
O1 C25 1_555 1_555
O3 C25 1_555 1_555
O4 Zn2 1_555 1_555
O5 C26 1_555 1_555
O7 C26 1_555 1_555
O9 C38 1_555 1_555
O11 C38 1_555 1_555
O14 C36 1_555 1_555
O16 Zn1 1_555 1_555
O18 C32 1_555 1_555
Zn1A N2A 1_555 1_555
Zn1A_2 N4A 1_555 1_555
Zn1A_3 O16A 1_555 1_555
Zn2A O5 1_555 1_555
Zn2A_2 O9 1_555 1_555
Zn2_2 O9A 1_555 1_555
C1A H1A 1_555 1_555
C2A C1A 1_555 1_555
H2A C2A 1_555 1_555
C3A C4A 1_555 1_555
C4A C5A 1_555 1_555
C5A H3A 1_555 1_555
C6A C5A 1_555 1_555
H4A C6A 1_555 1_555
C7A C6A 1_555 1_555
H5A C7A 1_555 1_555
C8A C7A 1_555 1_555
H6A C8A 1_555 1_555
C9A H7A 1_555 1_555
H8A C9A 1_555 1_555
C10A C9A 1_555 1_555
C11A C12 1_555 1_555
H9A C11A 1_555 1_555
C12A C11 1_555 1_555
H10A C12A 1_555 1_555
C13A H11A 1_555 1_555
C14A C15 1_555 1_555
H12A C14A 1_555 1_555
C15A C14 1_555 1_555
C16A C15A 1_555 1_555
H13A C16A 1_555 1_555
H14A C16A 1_555 1_555
C17A H15A 1_555 1_555
C18A C17A 1_555 1_555
H16A C18A 1_555 1_555
C19A C20A 1_555 1_555
C20A C21A 1_555 1_555
C21A H17A 1_555 1_555
C22A C21A 1_555 1_555
H18A C22A 1_555 1_555
C23A C22A 1_555 1_555
H19A C23A 1_555 1_555
C24A C23A 1_555 1_555
H20A C24A 1_555 1_555
C25A C28A 1_555 1_555
C26A C29A 1_555 1_555
C27A H21A 1_555 1_555
C28A C27A 1_555 1_555
C29A C28A 1_555 1_555
C30A C29A 1_555 1_555
H22A C30A 1_555 1_555
C31A C30A 1_555 1_555
H23A C31A 1_555 1_555
C32A C27A 1_555 1_555
C33A C34A 1_555 1_555
C34A H24A 1_555 1_555
C35A C34A 1_555 1_555
C36A C35A 1_555 1_555
C37A C35A 1_555 1_555
C38A C37A 1_555 1_555
C39A C37A 1_555 1_555
H25A C39A 1_555 1_555
C40A C33A 1_555 1_555
H26A C40A 1_555 1_555
N1A C2A 1_555 1_555
N2A C1A 1_555 1_555
N3A Zn1A 1_555 1_555
N4A C18A 1_555 1_555
N4A_2 Zn1A 1_555 1_555
N5A C16A 1_555 1_555
N6A Zn1A_2 1_555 1_555
N6A_2 Zn1A 1_555 1_555
O1A Zn2A 1_555 1_555
O3A C25A 1_555 1_555
O4A Zn2A 1_555 1_555
O5A Zn2 1_555 1_555
O7A Zn2 1_555 1_555
O9A C38A 1_555 1_555
O9A_2 Zn2 1_555 1_555
O9_2 Zn2A 1_555 1_555
O11A Zn2_2 1_555 1_555
O11A_2 Zn2 1_555 1_555
O11_2 Zn2A 1_555 1_555
O14A C36A 1_555 1_555
O16A C36A 1_555 1_555
O16A_2 Zn1A 1_555 1_555
O18A C32A 1_555 1_555
C3 N1 1_555 1_555
C3 N2 1_555 1_555
C4 N3 1_555 1_555
C8 N3 1_555 1_555
C9 N1 1_555 1_555
C17 N5 1_555 1_555
C18 N4 1_555 1_555
C19 N4 1_555 1_555
C19 N5 1_555 1_555
C20 N6 1_555 1_555
C24 N6 1_555 1_555
C31 C32 1_555 1_555
C33 O18 1_555 1_555
C36 O16 1_555 1_555
C39 C40 1_555 1_555
O7 Zn2A 1_555 1_555
O11 Zn2A_2 1_555 1_555
C3A N1A 1_555 1_555
C3A N2A 1_555 1_555
C4A N3A 1_555 1_555
C8A N3A 1_555 1_555
C9A N1A 1_555 1_555
C10A C11A 1_555 1_555
C10A C12A 1_555 1_555
C13A C14A 1_555 1_555
C13A C15A 1_555 1_555
C17A N5A 1_555 1_555
C19A N4A 1_555 1_555
C19A N5A 1_555 1_555
C20A N6A 1_555 1_555
C24A N6A 1_555 1_555
C25A O1A 1_555 1_555
C26A O5A 1_555 1_555
C26A O7A 1_555 1_555
C31A C32A 1_555 1_555
C33A O18A 1_555 1_555
C38A O11A 1_555 1_555
C39A C40A 1_555 1_555

#END
