
#######################################################################
#
#                 Cambridge Crystallographic Data Centre
#                                CCDC 
#
#######################################################################
#
# If this CIF has been generated from an entry in the Cambridge 
# Structural Database, then it will include bibliographic, chemical, 
# crystal, experimental, refinement or atomic coordinate data resulting 
# from the CCDC's data processing and validation procedures.
#
#######################################################################

data_UQOFIR
_chemical_formula_moiety         'C96 H52 Cd35 Cl5 N64 O24'
_symmetry_cell_setting           tetragonal
_symmetry_space_group_name_H-M   'P 4/m b m'
_symmetry_Int_Tables_number      127
_space_group_name_Hall           '-P 4 2ab'
loop_
_symmetry_equiv_pos_site_id
_symmetry_equiv_pos_as_xyz
1 x,y,z
2 -y,x,z
3 -x,-y,z
4 y,-x,z
5 1/2+x,1/2-y,-z
6 1/2-x,1/2+y,-z
7 1/2+y,1/2+x,-z
8 1/2-y,1/2-x,-z
9 -x,-y,-z
10 y,-x,-z
11 x,y,-z
12 -y,x,-z
13 1/2-x,1/2+y,z
14 1/2+x,1/2-y,z
15 1/2-y,1/2-x,z
16 1/2+y,1/2+x,z
_cell_length_a                   27.809(3)
_cell_length_b                   27.809(3)
_cell_length_c                   20.600(3)
_cell_angle_alpha                90
_cell_angle_beta                 90
_cell_angle_gamma                90
_cell_volume                     15930.8
loop_
_atom_site_label
_atom_site_type_symbol
_atom_site_fract_x
_atom_site_fract_y
_atom_site_fract_z
Cd1 Cd 0.48316(4) 0.59887(3) 0.5000
N1 N 0.5416(3) 0.6287(3) 0.6312(3)
N2 N 0.5397(2) 0.5999(2) 0.5791(2)
N3 N 0.5795(2) 0.5732(2) 0.5791(2)
N4 N 0.6047(3) 0.5846(3) 0.6324(3)
N5 N 0.7203(4) 0.7797(4) 0.9030(4)
H1 H 0.7216 0.7784 0.9456
N6 N 0.6669(5) 0.7273(4) 1.0000
C1 C 0.5824(4) 0.6179(4) 0.6616(4)
C2 C 0.5984(4) 0.6432(3) 0.7194(3)
C3 C 0.5778(3) 0.6860(4) 0.7405(4)
H2 H 0.5516 0.6997 0.7173
C4 C 0.5955(4) 0.7088(3) 0.7955(4)
H3 H 0.5815 0.7381 0.8099
C5 C 0.6339(4) 0.6889(3) 0.8295(3)
C6 C 0.6544(3) 0.6461(4) 0.8084(4)
H4 H 0.6806 0.6325 0.8316
C7 C 0.6367(4) 0.6233(3) 0.7533(4)
H5 H 0.6508 0.5940 0.7389
C8 C 0.6587(4) 0.7165(4) 0.8820(4)
C9 C 0.6907(4) 0.7527(4) 0.8626(3)
C10 C 0.7027(4) 0.7642(4) 0.7961(3)
H6 H 0.6887 0.7500 0.7587
C11 C 0.6472(4) 0.7056(4) 0.9462(4)
C12 C 0.6131(5) 0.6724(4) 0.9672(4)
H7 H 0.5934 0.6530 0.9401
Cl1 Cl 0.5000 0.5000 0.5000
Cl2 Cl 0.4674(2) 0.68537(18) 0.5000
Cd2 Cd 0.46890(13) 0.68747(11) 0.62378(13)
O1 O 0.4739(14) 0.6880(10) 0.7342(13)
O2 O 0.4049(12) 0.7450(9) 0.6247(13)
O3 O 0.5189(14) 0.7576(10) 0.6251(13)
N1J N 0.5416(3) 0.6287(3) 1.3688(3)
N2J N 0.5397(2) 0.5999(2) 1.4209(2)
N3J N 0.5795(2) 0.5732(2) 1.4209(2)
N4J N 0.6047(3) 0.5846(3) 1.3676(3)
N5G N 0.7203(4) 0.7797(4) 1.0970(4)
H1G H 0.7216 0.7784 1.0544
C1J C 0.5824(4) 0.6179(4) 1.3384(4)
C2J C 0.5984(4) 0.6432(3) 1.2806(3)
C3J C 0.5778(3) 0.6860(4) 1.2595(4)
H2J H 0.5516 0.6997 1.2827
C4J C 0.5955(4) 0.7088(3) 1.2045(4)
H3J H 0.5815 0.7381 1.1901
C5J C 0.6339(4) 0.6889(3) 1.1705(3)
C6J C 0.6544(3) 0.6461(4) 1.1916(4)
H4J H 0.6806 0.6325 1.1684
C7J C 0.6367(4) 0.6233(3) 1.2467(4)
H5J H 0.6508 0.5940 1.2611
C8J C 0.6587(4) 0.7165(4) 1.1180(4)
C9J C 0.6907(4) 0.7527(4) 1.1374(3)
C10J C 0.7027(4) 0.7642(4) 1.2039(3)
H6J H 0.6887 0.7500 1.2413
C11J C 0.6472(4) 0.7056(4) 1.0538(4)
C12J C 0.6131(5) 0.6724(4) 1.0328(4)
H7J H 0.5934 0.6530 1.0599
N1N N 0.8713(3) 0.9584(3) 0.6312(3)
N2N N 0.9001(2) 0.9603(2) 0.5791(2)
N3N N 0.9268(2) 0.9205(2) 0.5791(2)
N4N N 0.9154(3) 0.8953(3) 0.6324(3)
N6G N 0.7727(4) 0.8331(5) 1.0000
C1N C 0.8821(4) 0.9176(4) 0.6616(4)
C2N C 0.8568(3) 0.9016(4) 0.7194(3)
C3N C 0.8140(4) 0.9222(3) 0.7405(4)
H2N H 0.8003 0.9484 0.7173
C4N C 0.7912(3) 0.9045(4) 0.7955(4)
H3N H 0.7619 0.9185 0.8099
C5N C 0.8111(3) 0.8661(4) 0.8295(3)
C6N C 0.8539(4) 0.8456(3) 0.8084(4)
H4N H 0.8675 0.8194 0.8316
C7N C 0.8767(3) 0.8633(4) 0.7533(4)
H5N H 0.9060 0.8492 0.7389
C8N C 0.7835(4) 0.8413(4) 0.8820(4)
C9N C 0.7473(4) 0.8093(4) 0.8626(3)
C10N C 0.7358(4) 0.7973(4) 0.7961(3)
H6N H 0.7500 0.8113 0.7587
C11N C 0.7944(4) 0.8528(4) 0.9462(4)
C12N C 0.8276(4) 0.8869(5) 0.9672(4)
H7N H 0.8470 0.9066 0.9401
N1G N 0.8713(3) 0.9584(3) 1.3688(3)
N2G N 0.9001(2) 0.9603(2) 1.4209(2)
N3G N 0.9268(2) 0.9205(2) 1.4209(2)
N4G N 0.9154(3) 0.8953(3) 1.3676(3)
C1G C 0.8821(4) 0.9176(4) 1.3384(4)
C2G C 0.8568(3) 0.9016(4) 1.2806(3)
C3G C 0.8140(4) 0.9222(3) 1.2595(4)
H2G H 0.8003 0.9484 1.2827
C4G C 0.7912(3) 0.9045(4) 1.2045(4)
H3G H 0.7619 0.9185 1.1901
C5G C 0.8111(3) 0.8661(4) 1.1705(3)
C6G C 0.8539(4) 0.8456(3) 1.1916(4)
H4G H 0.8675 0.8194 1.1684
C7G C 0.8767(3) 0.8633(4) 1.2467(4)
H5G H 0.9060 0.8492 1.2611
C8G C 0.7835(4) 0.8413(4) 1.1180(4)
C9G C 0.7473(4) 0.8093(4) 1.1374(3)
C10G C 0.7358(4) 0.7973(4) 1.2039(3)
H6G H 0.7500 0.8113 1.2413
C11G C 0.7944(4) 0.8528(4) 1.0538(4)
C12G C 0.8276(4) 0.8869(5) 1.0328(4)
H7G H 0.8470 0.9066 1.0599
Cd1A Cd 0.40113(3) 0.48316(4) 0.5000
N1A N 0.3713(3) 0.5416(3) 0.6312(3)
N2A N 0.4001(2) 0.5397(2) 0.5791(2)
N3A N 0.4268(2) 0.5795(2) 0.5791(2)
N4A N 0.4154(3) 0.6047(3) 0.6324(3)
N5A N 0.2203(4) 0.7203(4) 0.9030(4)
H1A H 0.2216 0.7216 0.9456
N6A N 0.2727(4) 0.6669(5) 1.0000
C1A C 0.3821(4) 0.5824(4) 0.6616(4)
C2A C 0.3568(3) 0.5984(4) 0.7194(3)
C3A C 0.3140(4) 0.5778(3) 0.7405(4)
H2A H 0.3003 0.5516 0.7173
C4A C 0.2912(3) 0.5955(4) 0.7955(4)
H3A H 0.2619 0.5815 0.8099
C5A C 0.3111(3) 0.6339(4) 0.8295(3)
C6A C 0.3539(4) 0.6544(3) 0.8084(4)
H4A H 0.3675 0.6806 0.8316
C7A C 0.3767(3) 0.6367(4) 0.7533(4)
H5A H 0.4060 0.6508 0.7389
C8A C 0.2835(4) 0.6587(4) 0.8820(4)
C9A C 0.2473(4) 0.6907(4) 0.8626(3)
C10A C 0.2358(4) 0.7027(4) 0.7961(3)
H6A H 0.2500 0.6887 0.7587
C11A C 0.2944(4) 0.6472(4) 0.9462(4)
C12A C 0.3276(4) 0.6131(5) 0.9672(4)
H7A H 0.3470 0.5934 0.9401
Cl2A Cl 0.31463(18) 0.4674(2) 0.5000
Cd2A Cd 0.31253(11) 0.46890(13) 0.62378(13)
O1A O 0.3120(10) 0.4739(14) 0.7342(13)
O2A O 0.2550(9) 0.4049(12) 0.6247(13)
O3A O 0.2424(10) 0.5189(14) 0.6251(13)
N1K N 0.3713(3) 0.5416(3) 1.3688(3)
N2K N 0.4001(2) 0.5397(2) 1.4209(2)
N3K N 0.4268(2) 0.5795(2) 1.4209(2)
N4K N 0.4154(3) 0.6047(3) 1.3676(3)
N5D N 0.2203(4) 0.7203(4) 1.0970(4)
H1D H 0.2216 0.7216 1.0544
C1K C 0.3821(4) 0.5824(4) 1.3384(4)
C2K C 0.3568(3) 0.5984(4) 1.2806(3)
C3K C 0.3140(4) 0.5778(3) 1.2595(4)
H2K H 0.3003 0.5516 1.2827
C4K C 0.2912(3) 0.5955(4) 1.2045(4)
H3K H 0.2619 0.5815 1.1901
C5K C 0.3111(3) 0.6339(4) 1.1705(3)
C6K C 0.3539(4) 0.6544(3) 1.1916(4)
H4K H 0.3675 0.6806 1.1684
C7K C 0.3767(3) 0.6367(4) 1.2467(4)
H5K H 0.4060 0.6508 1.2611
C8K C 0.2835(4) 0.6587(4) 1.1180(4)
C9K C 0.2473(4) 0.6907(4) 1.1374(3)
C10K C 0.2358(4) 0.7027(4) 1.2039(3)
H6K H 0.2500 0.6887 1.2413
C11K C 0.2944(4) 0.6472(4) 1.0538(4)
C12K C 0.3276(4) 0.6131(5) 1.0328(4)
H7K H 0.3470 0.5934 1.0599
N1M N 0.0416(3) 0.8713(3) 0.6312(3)
N2M N 0.0397(2) 0.9001(2) 0.5791(2)
N3M N 0.0795(2) 0.9268(2) 0.5791(2)
N4M N 0.1047(3) 0.9154(3) 0.6324(3)
N6D N 0.1669(5) 0.7727(4) 1.0000
C1M C 0.0824(4) 0.8821(4) 0.6616(4)
C2M C 0.0984(4) 0.8568(3) 0.7194(3)
C3M C 0.0778(3) 0.8140(4) 0.7405(4)
H2M H 0.0516 0.8003 0.7173
C4M C 0.0955(4) 0.7912(3) 0.7955(4)
H3M H 0.0815 0.7619 0.8099
C5M C 0.1339(4) 0.8111(3) 0.8295(3)
C6M C 0.1544(3) 0.8539(4) 0.8084(4)
H4M H 0.1806 0.8675 0.8316
C7M C 0.1367(4) 0.8767(3) 0.7533(4)
H5M H 0.1508 0.9060 0.7389
C8M C 0.1587(4) 0.7835(4) 0.8820(4)
C9M C 0.1907(4) 0.7473(4) 0.8626(3)
C10M C 0.2027(4) 0.7358(4) 0.7961(3)
H6M H 0.1887 0.7500 0.7587
C11M C 0.1472(4) 0.7944(4) 0.9462(4)
C12M C 0.1131(5) 0.8276(4) 0.9672(4)
H7M H 0.0934 0.8470 0.9401
N1D N 0.0416(3) 0.8713(3) 1.3688(3)
N2D N 0.0397(2) 0.9001(2) 1.4209(2)
N3D N 0.0795(2) 0.9268(2) 1.4209(2)
N4D N 0.1047(3) 0.9154(3) 1.3676(3)
C1D C 0.0824(4) 0.8821(4) 1.3384(4)
C2D C 0.0984(4) 0.8568(3) 1.2806(3)
C3D C 0.0778(3) 0.8140(4) 1.2595(4)
H2D H 0.0516 0.8003 1.2827
C4D C 0.0955(4) 0.7912(3) 1.2045(4)
H3D H 0.0815 0.7619 1.1901
C5D C 0.1339(4) 0.8111(3) 1.1705(3)
C6D C 0.1544(3) 0.8539(4) 1.1916(4)
H4D H 0.1806 0.8675 1.1684
C7D C 0.1367(4) 0.8767(3) 1.2467(4)
H5D H 0.1508 0.9060 1.2611
C8D C 0.1587(4) 0.7835(4) 1.1180(4)
C9D C 0.1907(4) 0.7473(4) 1.1374(3)
C10D C 0.2027(4) 0.7358(4) 1.2039(3)
H6D H 0.1887 0.7500 1.2413
C11D C 0.1472(4) 0.7944(4) 1.0538(4)
C12D C 0.1131(5) 0.8276(4) 1.0328(4)
H7D H 0.0934 0.8470 1.0599
Cd1B Cd 0.51684(4) 0.40113(3) 0.5000
Cl2B Cl 0.5326(2) 0.31463(18) 0.5000
Cd2B Cd 0.53110(13) 0.31253(11) 0.62378(13)
O1B O 0.5261(14) 0.3120(10) 0.7342(13)
O2B O 0.5951(12) 0.2550(9) 0.6247(13)
O3B O 0.4811(14) 0.2424(10) 0.6251(13)
Cd1C Cd 0.59887(3) 0.51684(4) 0.5000
Cl2C Cl 0.68537(18) 0.5326(2) 0.5000
Cd2C Cd 0.68747(11) 0.53110(13) 0.62378(13)
O1C O 0.6880(10) 0.5261(14) 0.7342(13)
O2C O 0.7450(9) 0.5951(12) 0.6247(13)
O3C O 0.7576(10) 0.4811(14) 0.6251(13)
Cd2H Cd 0.53110(13) 0.31253(11) 0.37622(13)
O1H O 0.5261(14) 0.3120(10) 0.2658(13)
O2H O 0.5951(12) 0.2550(9) 0.3753(13)
O3H O 0.4811(14) 0.2424(10) 0.3749(13)
Cd2I Cd 0.68747(11) 0.53110(13) 0.37622(13)
O1I O 0.6880(10) 0.5261(14) 0.2658(13)
O2I O 0.7450(9) 0.5951(12) 0.3753(13)
O3I O 0.7576(10) 0.4811(14) 0.3749(13)
Cd2J Cd 0.46890(13) 0.68747(11) 0.37622(13)
O1J O 0.4739(14) 0.6880(10) 0.2658(13)
O2J O 0.4049(12) 0.7450(9) 0.3753(13)
O3J O 0.5189(14) 0.7576(10) 0.3749(13)
Cd2K Cd 0.31253(11) 0.46890(13) 0.37622(13)
O1K O 0.3120(10) 0.4739(14) 0.2658(13)
O2K O 0.2550(9) 0.4049(12) 0.3753(13)
O3K O 0.2424(10) 0.5189(14) 0.3749(13)
Cd1_2 Cd 0.48316(4) 0.59887(3) 1.5000
Cd1A_2 Cd 0.40113(3) 0.48316(4) 1.5000
Cd1C_2 Cd 0.59887(3) 0.51684(4) 1.5000
Cd1D Cd -0.01684(4) 0.90113(3) 0.5000
Cd1D_2 Cd -0.01684(4) 0.90113(3) 1.5000
Cd1D_3 Cd 0.98316(4) 0.90113(3) 0.5000
Cd1D_4 Cd 0.98316(4) 0.90113(3) 1.5000
Cd1F Cd 0.09887(3) 0.98316(4) 0.5000
Cd1F_2 Cd 0.09887(3) 0.98316(4) 1.5000
Cd1G Cd 0.90113(3) 1.01684(4) 0.5000
Cd1G_2 Cd 0.90113(3) 1.01684(4) 1.5000
N1B N 0.4584(3) 0.3713(3) 0.6312(3)
N1C N 0.6287(3) 0.4584(3) 0.6312(3)
N1H N 0.4584(3) 0.3713(3) 0.3688(3)
N1I N 0.6287(3) 0.4584(3) 0.3688(3)
N1J_2 N 0.5416(3) 0.6287(3) 0.3688(3)
N1K_2 N 0.3713(3) 0.5416(3) 0.3688(3)
N2B N 0.4603(2) 0.4001(2) 0.5791(2)
N2C N 0.5999(2) 0.4603(2) 0.5791(2)
N2H N 0.4603(2) 0.4001(2) 0.4209(2)
N2I N 0.5999(2) 0.4603(2) 0.4209(2)
N2J_2 N 0.5397(2) 0.5999(2) 0.4209(2)
N2K_2 N 0.4001(2) 0.5397(2) 0.4209(2)
N3B N 0.4205(2) 0.4268(2) 0.5791(2)
N3C N 0.5732(2) 0.4205(2) 0.5791(2)
N3H N 0.4205(2) 0.4268(2) 0.4209(2)
N3I N 0.5732(2) 0.4205(2) 0.4209(2)
N3J_2 N 0.5795(2) 0.5732(2) 0.4209(2)
N3K_2 N 0.4268(2) 0.5795(2) 0.4209(2)
N4B N 0.3953(3) 0.4154(3) 0.6324(3)
N4C N 0.5846(3) 0.3953(3) 0.6324(3)
N4H N 0.3953(3) 0.4154(3) 0.3676(3)
N4I N 0.5846(3) 0.3953(3) 0.3676(3)
N4J_2 N 0.6047(3) 0.5846(3) 0.3676(3)
N4K_2 N 0.4154(3) 0.6047(3) 0.3676(3)
Cd2D Cd -0.03110(13) 0.81253(11) 1.37622(13)
Cd2D_2 Cd 0.96890(13) 0.81253(11) 1.37622(13)
Cd2F Cd 0.18747(11) 0.96890(13) 1.37622(13)
Cd2G Cd 0.81253(11) 1.03110(13) 1.37622(13)
Cd2I_2 Cd 0.68747(11) 0.53110(13) 1.37622(13)
Cd2J_2 Cd 0.46890(13) 0.68747(11) 1.37622(13)
Cd2K_2 Cd 0.31253(11) 0.46890(13) 1.37622(13)
Cd2M Cd -0.03110(13) 0.81253(11) 0.62378(13)
Cd2M_2 Cd 0.96890(13) 0.81253(11) 0.62378(13)
Cd2N Cd 0.81253(11) 1.03110(13) 0.62378(13)
Cd2O Cd 0.18747(11) 0.96890(13) 0.62378(13)
Cd3 Cd 0.5000 0.5000 0.7238(15)
loop_
_geom_bond_atom_site_label_1
_geom_bond_atom_site_label_2
_geom_bond_site_symmetry_1
_geom_bond_site_symmetry_2
Cd1 N2 1_555 1_555
N1 N2 1_555 1_555
N2 N3 1_555 1_555
N3 N4 1_555 1_555
N4 C1 1_555 1_555
N5 H1 1_555 1_555
N6 C11 1_555 1_555
C1 N1 1_555 1_555
C2 C1 1_555 1_555
C3 C2 1_555 1_555
H2 C3 1_555 1_555
C4 C3 1_555 1_555
H3 C4 1_555 1_555
C5 C4 1_555 1_555
C6 C5 1_555 1_555
H4 C6 1_555 1_555
C7 C2 1_555 1_555
H5 C7 1_555 1_555
C8 C5 1_555 1_555
C9 N5 1_555 1_555
C10 C9 1_555 1_555
H6 C10 1_555 1_555
C11 C8 1_555 1_555
C12 C11 1_555 1_555
H7 C12 1_555 1_555
Cl1 Cd1 1_555 1_555
Cl2 Cd1 1_555 1_555
Cd2 N1 1_555 1_555
O1 Cd2 1_555 1_555
O2 Cd2 1_555 1_555
O3 Cd2 1_555 1_555
N1J N2J 1_555 1_555
N2J N3J 1_555 1_555
N3J N4J 1_555 1_555
N4J C1J 1_555 1_555
N5G H1G 1_555 1_555
C1J N1J 1_555 1_555
C2J C1J 1_555 1_555
C3J C2J 1_555 1_555
H2J C3J 1_555 1_555
C4J C3J 1_555 1_555
H3J C4J 1_555 1_555
C5J C4J 1_555 1_555
C6J C5J 1_555 1_555
H4J C6J 1_555 1_555
C7J C2J 1_555 1_555
H5J C7J 1_555 1_555
C8J C5J 1_555 1_555
C9J N5G 1_555 1_555
C10J C9J 1_555 1_555
H6J C10J 1_555 1_555
C11J N6 1_555 1_555
C12J C12 1_555 1_555
H7J C12J 1_555 1_555
N1N N2N 1_555 1_555
N2N N3N 1_555 1_555
N3N N4N 1_555 1_555
N4N C1N 1_555 1_555
N6G C11N 1_555 1_555
C1N N1N 1_555 1_555
C2N C1N 1_555 1_555
C3N C2N 1_555 1_555
H2N C3N 1_555 1_555
C4N C3N 1_555 1_555
H3N C4N 1_555 1_555
C5N C4N 1_555 1_555
C6N C5N 1_555 1_555
H4N C6N 1_555 1_555
C7N C2N 1_555 1_555
H5N C7N 1_555 1_555
C8N C5N 1_555 1_555
C9N N5 1_555 1_555
C10N C10 1_555 1_555
H6N C10N 1_555 1_555
C11N C8N 1_555 1_555
C12N C11N 1_555 1_555
H7N C12N 1_555 1_555
N1G N2G 1_555 1_555
N2G N3G 1_555 1_555
N3G N4G 1_555 1_555
N4G C1G 1_555 1_555
C1G N1G 1_555 1_555
C2G C1G 1_555 1_555
C3G C2G 1_555 1_555
H2G C3G 1_555 1_555
C4G C3G 1_555 1_555
H3G C4G 1_555 1_555
C5G C4G 1_555 1_555
C6G C5G 1_555 1_555
H4G C6G 1_555 1_555
C7G C2G 1_555 1_555
H5G C7G 1_555 1_555
C8G C5G 1_555 1_555
C9G N5G 1_555 1_555
C10G C10J 1_555 1_555
H6G C10G 1_555 1_555
C11G N6G 1_555 1_555
C12G C12N 1_555 1_555
H7G C12G 1_555 1_555
Cd1A Cl1 1_555 1_555
N1A N2A 1_555 1_555
N2A Cd1A 1_555 1_555
N3A Cd1 1_555 1_555
N4A Cd2 1_555 1_555
N5A H1A 1_555 1_555
N6A C11A 1_555 1_555
C1A N1A 1_555 1_555
C2A C1A 1_555 1_555
C3A C2A 1_555 1_555
H2A C3A 1_555 1_555
C4A C3A 1_555 1_555
H3A C4A 1_555 1_555
C5A C4A 1_555 1_555
C6A C5A 1_555 1_555
H4A C6A 1_555 1_555
C7A C2A 1_555 1_555
H5A C7A 1_555 1_555
C8A C5A 1_555 1_555
C9A N5A 1_555 1_555
C10A C9A 1_555 1_555
H6A C10A 1_555 1_555
C11A C8A 1_555 1_555
C12A C11A 1_555 1_555
H7A C12A 1_555 1_555
Cl2A Cd1A 1_555 1_555
Cd2A N1A 1_555 1_555
O1A Cd2A 1_555 1_555
O2A Cd2A 1_555 1_555
O3A Cd2A 1_555 1_555
N1K N2K 1_555 1_555
N2K N3K 1_555 1_555
N3K N4K 1_555 1_555
N4K C1K 1_555 1_555
N5D H1D 1_555 1_555
C1K N1K 1_555 1_555
C2K C1K 1_555 1_555
C3K C2K 1_555 1_555
H2K C3K 1_555 1_555
C4K C3K 1_555 1_555
H3K C4K 1_555 1_555
C5K C4K 1_555 1_555
C6K C5K 1_555 1_555
H4K C6K 1_555 1_555
C7K C2K 1_555 1_555
H5K C7K 1_555 1_555
C8K C5K 1_555 1_555
C9K N5D 1_555 1_555
C10K C9K 1_555 1_555
H6K C10K 1_555 1_555
C11K N6A 1_555 1_555
C12K C12A 1_555 1_555
H7K C12K 1_555 1_555
N1M N2M 1_555 1_555
N2M N3M 1_555 1_555
N3M N4M 1_555 1_555
N4M C1M 1_555 1_555
N6D C11M 1_555 1_555
C1M N1M 1_555 1_555
C2M C1M 1_555 1_555
C3M C2M 1_555 1_555
H2M C3M 1_555 1_555
C4M C3M 1_555 1_555
H3M C4M 1_555 1_555
C5M C4M 1_555 1_555
C6M C5M 1_555 1_555
H4M C6M 1_555 1_555
C7M C2M 1_555 1_555
H5M C7M 1_555 1_555
C8M C5M 1_555 1_555
C9M N5A 1_555 1_555
C10M C10A 1_555 1_555
H6M C10M 1_555 1_555
C11M C8M 1_555 1_555
C12M C11M 1_555 1_555
H7M C12M 1_555 1_555
N1D N2D 1_555 1_555
N2D N3D 1_555 1_555
N3D N4D 1_555 1_555
N4D C1D 1_555 1_555
C1D N1D 1_555 1_555
C2D C1D 1_555 1_555
C3D C2D 1_555 1_555
H2D C3D 1_555 1_555
C4D C3D 1_555 1_555
H3D C4D 1_555 1_555
C5D C4D 1_555 1_555
C6D C5D 1_555 1_555
H4D C6D 1_555 1_555
C7D C2D 1_555 1_555
H5D C7D 1_555 1_555
C8D C5D 1_555 1_555
C9D N5D 1_555 1_555
C10D C10K 1_555 1_555
H6D C10D 1_555 1_555
C11D N6D 1_555 1_555
C12D C12M 1_555 1_555
H7D C12D 1_555 1_555
Cd1B Cl1 1_555 1_555
Cl2B Cd1B 1_555 1_555
Cd2B Cl2B 1_555 1_555
O1B Cd2B 1_555 1_555
O2B Cd2B 1_555 1_555
O3B Cd2B 1_555 1_555
Cd1C N3 1_555 1_555
Cl2C Cd1C 1_555 1_555
Cd2C N4 1_555 1_555
O1C Cd2C 1_555 1_555
O2C Cd2C 1_555 1_555
O3C Cd2C 1_555 1_555
Cd2H Cl2B 1_555 1_555
O1H Cd2H 1_555 1_555
O2H Cd2H 1_555 1_555
O3H Cd2H 1_555 1_555
Cd2I Cl2C 1_555 1_555
O1I Cd2I 1_555 1_555
O2I Cd2I 1_555 1_555
O3I Cd2I 1_555 1_555
Cd2J Cl2 1_555 1_555
O1J Cd2J 1_555 1_555
O2J Cd2J 1_555 1_555
O3J Cd2J 1_555 1_555
Cd2K Cl2A 1_555 1_555
O1K Cd2K 1_555 1_555
O2K Cd2K 1_555 1_555
O3K Cd2K 1_555 1_555
Cd1_2 N2J 1_555 1_555
Cd1A_2 N2K 1_555 1_555
Cd1C_2 N3J 1_555 1_555
Cd1D N2M 1_555 1_555
Cd1D_2 N2D 1_555 1_555
Cd1D_3 N3N 1_555 1_555
Cd1D_4 N3G 1_555 1_555
Cd1F N3M 1_555 1_555
Cd1F_2 N3D 1_555 1_555
Cd1G N2N 1_555 1_555
Cd1G_2 N2G 1_555 1_555
N1B Cd2B 1_555 1_555
N1C Cd2C 1_555 1_555
N1H Cd2H 1_555 1_555
N1I Cd2I 1_555 1_555
N1J_2 Cd2J 1_555 1_555
N1K_2 Cd2K 1_555 1_555
N2B Cd1B 1_555 1_555
N2C Cd1C 1_555 1_555
N2H Cd1B 1_555 1_555
N2I Cd1C 1_555 1_555
N2J_2 Cd1 1_555 1_555
N2K_2 Cd1A 1_555 1_555
N3B Cd1A 1_555 1_555
N3C Cd1B 1_555 1_555
N3H Cd1A 1_555 1_555
N3I Cd1B 1_555 1_555
N3J_2 Cd1C 1_555 1_555
N3K_2 Cd1 1_555 1_555
N4B Cd2A 1_555 1_555
N4C Cd2B 1_555 1_555
N4H Cd2K 1_555 1_555
N4I Cd2H 1_555 1_555
N4J_2 Cd2I 1_555 1_555
N4K_2 Cd2J 1_555 1_555
Cd2D N1D 1_555 1_555
Cd2D_2 N4G 1_555 1_555
Cd2F N4D 1_555 1_555
Cd2G N1G 1_555 1_555
Cd2I_2 N4J 1_555 1_555
Cd2J_2 N1J 1_555 1_555
Cd2K_2 N1K 1_555 1_555
Cd2M N1M 1_555 1_555
Cd2M_2 N4N 1_555 1_555
Cd2N N1N 1_555 1_555
Cd2O N4M 1_555 1_555
C6 C7 1_555 1_555
C8 C9 1_555 1_555
Cl1 Cd1C 1_555 1_555
Cl2 Cd2 1_555 1_555
C6J C7J 1_555 1_555
C8J C9J 1_555 1_555
C8J C11J 1_555 1_555
C11J C12J 1_555 1_555
C6N C7N 1_555 1_555
C8N C9N 1_555 1_555
C9N C10N 1_555 1_555
C6G C7G 1_555 1_555
C8G C9G 1_555 1_555
C8G C11G 1_555 1_555
C9G C10G 1_555 1_555
C11G C12G 1_555 1_555
N2A N3A 1_555 1_555
N3A N4A 1_555 1_555
N4A C1A 1_555 1_555
C6A C7A 1_555 1_555
C8A C9A 1_555 1_555
Cl2A Cd2A 1_555 1_555
N3K Cd1_2 1_555 1_555
N4K Cd2J_2 1_555 1_555
C6K C7K 1_555 1_555
C8K C9K 1_555 1_555
C8K C11K 1_555 1_555
C11K C12K 1_555 1_555
C6M C7M 1_555 1_555
C8M C9M 1_555 1_555
C9M C10M 1_555 1_555
C6D C7D 1_555 1_555
C8D C9D 1_555 1_555
C8D C11D 1_555 1_555
C9D C10D 1_555 1_555
C11D C12D 1_555 1_555
Cl2C Cd2C 1_555 1_555
N1B N2B 1_555 1_555
N1C N2C 1_555 1_555
N1H N2H 1_555 1_555
N1I N2I 1_555 1_555
N1J_2 N2J_2 1_555 1_555
N1K_2 N2K_2 1_555 1_555
N2B N3B 1_555 1_555
N2C N3C 1_555 1_555
N2H N3H 1_555 1_555
N2I N3I 1_555 1_555
N2J_2 N3J_2 1_555 1_555
N2K_2 N3K_2 1_555 1_555
N3B N4B 1_555 1_555
N3C N4C 1_555 1_555
N3H N4H 1_555 1_555
N3I N4I 1_555 1_555
N3J_2 N4J_2 1_555 1_555
N3K_2 N4K_2 1_555 1_555

#END
