
#######################################################################
#
#                 Cambridge Crystallographic Data Centre
#                                CCDC 
#
#######################################################################
#
# If this CIF has been generated from an entry in the Cambridge 
# Structural Database, then it will include bibliographic, chemical, 
# crystal, experimental, refinement or atomic coordinate data resulting 
# from the CCDC's data processing and validation procedures.
#
#######################################################################

data_UQOFAJ
_chemical_formula_moiety         'C96 H48 Cd21 Cl8 N60 Na19 O28'
_symmetry_cell_setting           tetragonal
_symmetry_space_group_name_H-M   'P 4/m m m'
_symmetry_Int_Tables_number      123
_space_group_name_Hall           '-P 4 2'
loop_
_symmetry_equiv_pos_site_id
_symmetry_equiv_pos_as_xyz
1 x,y,z
2 -y,x,z
3 -x,-y,z
4 y,-x,z
5 x,-y,-z
6 -x,y,-z
7 y,x,-z
8 -y,-x,-z
9 -x,-y,-z
10 y,-x,-z
11 x,y,-z
12 -y,x,-z
13 -x,y,z
14 x,-y,z
15 -y,-x,z
16 y,x,z
_cell_length_a                   20.331(2)
_cell_length_b                   20.331(2)
_cell_length_c                   20.299(4)
_cell_angle_alpha                90
_cell_angle_beta                 90
_cell_angle_gamma                90
_cell_volume                     8390.58
loop_
_atom_site_label
_atom_site_type_symbol
_atom_site_fract_x
_atom_site_fract_y
_atom_site_fract_z
Cd1 Cd 0.09710(3) 0.09710(3) 0.0000
Cd2 Cd -0.05188(16) 0.5000 0.5000
O1 O -0.1750(5) 0.5000 0.5000
Cl1 Cl 0.0000 0.0000 0.0000
Cl2 Cl 0.1794(3) 0.1794(3) 0.0000
N1 N 0.03212(19) 0.1465(2) 0.07938(17)
N2 N 0.0550(3) 0.1816(2) 0.13040(19)
N3 N 0.0000 0.3953(3) 0.5000
N4 N 0.0000 0.5000 0.3983(3)
C1 C 0.0000 0.2016(4) 0.1610(4)
C2 C 0.0000 0.2433(3) 0.2184(3)
C3 C -0.05922(9) 0.2625(3) 0.2467(3)
H1 H -0.0996 0.2467 0.2293
C4 C -0.05924(9) 0.3048(3) 0.3005(3)
H2 H -0.0997 0.3180 0.3199
C5 C 0.0000 0.3278(4) 0.3258(3)
C6 C 0.0000 0.3797(3) 0.3804(3)
C7 C 0.0000 0.3535(3) 0.44519(7)
C8 C 0.0000 0.2903(3) 0.46663(5)
H3 H -0.0000 0.2523 0.4394
C9 C 0.0000 0.44524(7) 0.3565(2)
C10 C 0.0000 0.46668(5) 0.2931(3)
H4 H 0.0000 0.4395 0.2551
Na1 Na 0.1854(4) 0.1854(4) 0.1350(6)
O2 O 0.1961(11) 0.1961(11) 0.2740(17)
O3 O 0.1803(18) 0.3097(17) 0.1207(16)
N1B N -0.03212(19) 0.8535(2) 0.07938(17)
N2B N -0.0550(3) 0.8184(2) 0.13040(19)
N3B N 0.0000 0.6047(3) 0.5000
C1B C -0.0000 0.7984(4) 0.1610(4)
C2B C 0.0000 0.7567(3) 0.2184(3)
C3B C 0.05922(9) 0.7375(3) 0.2467(3)
H1B H 0.0996 0.7533 0.2293
C4B C 0.05924(9) 0.6952(3) 0.3005(3)
H2B H 0.0997 0.6820 0.3199
C5B C 0.0000 0.6722(4) 0.3258(3)
C6B C 0.0000 0.6203(3) 0.3804(3)
C7B C 0.0000 0.6465(3) 0.44519(7)
C8B C 0.0000 0.7097(3) 0.46663(5)
H3B H 0.0000 0.7477 0.4394
C9B C 0.0000 0.55476(7) 0.3565(2)
C10B C 0.0000 0.53332(5) 0.2931(3)
H4B H 0.0000 0.5605 0.2551
N1E N -0.03212(19) 0.1465(2) 0.92062(17)
N2E N -0.0550(3) 0.1816(2) 0.86960(19)
N4D N 0.0000 0.5000 0.6017(3)
C1E C 0.0000 0.2016(4) 0.8390(4)
C2E C 0.0000 0.2433(3) 0.7816(3)
C3E C 0.05922(9) 0.2625(3) 0.7533(3)
H1E H 0.0996 0.2467 0.7707
C4E C 0.05924(9) 0.3048(3) 0.6995(3)
H2E H 0.0997 0.3180 0.6801
C5E C -0.0000 0.3278(4) 0.6742(3)
C6E C 0.0000 0.3797(3) 0.6196(3)
C7E C 0.0000 0.3535(3) 0.55481(7)
C8E C -0.0000 0.2903(3) 0.53337(5)
H3E H 0.0000 0.2523 0.5606
C9E C 0.0000 0.44524(7) 0.6435(2)
C10E C 0.0000 0.46668(5) 0.7069(3)
H4E H 0.0000 0.4395 0.7449
N1J N 0.03212(19) 0.1465(2) 0.92062(17)
N2J N 0.0550(3) 0.1816(2) 0.86960(19)
C3J C -0.05922(9) 0.2625(3) 0.7533(3)
H1J H -0.0996 0.2467 0.7707
C4J C -0.05924(9) 0.3048(3) 0.6995(3)
H2J H -0.0997 0.3180 0.6801
N1L N -0.03212(19) 0.1465(2) 0.07938(17)
N2L N -0.0550(3) 0.1816(2) 0.13040(19)
C3L C 0.05922(9) 0.2625(3) 0.2467(3)
H1L H 0.0996 0.2467 0.2293
C4L C 0.05924(9) 0.3048(3) 0.3005(3)
H2L H 0.0997 0.3180 0.3199
N1M N 0.03212(19) 0.8535(2) 0.07938(17)
N2M N 0.0550(3) 0.8184(2) 0.13040(19)
C3M C -0.05922(9) 0.7375(3) 0.2467(3)
H1M H -0.0996 0.7533 0.2293
C4M C -0.05924(9) 0.6952(3) 0.3005(3)
H2M H -0.0997 0.6820 0.3199
N1D N 0.03212(19) 0.8535(2) 0.92062(17)
N2D N 0.0550(3) 0.8184(2) 0.86960(19)
C1D C 0.0000 0.7984(4) 0.8390(4)
C2D C 0.0000 0.7567(3) 0.7816(3)
C3D C -0.05922(9) 0.7375(3) 0.7533(3)
H1D H -0.0996 0.7533 0.7707
C4D C -0.05924(9) 0.6952(3) 0.6995(3)
H2D H -0.0997 0.6820 0.6801
C5D C 0.0000 0.6722(4) 0.6742(3)
C6D C 0.0000 0.6203(3) 0.6196(3)
C7D C 0.0000 0.6465(3) 0.55481(7)
C8D C 0.0000 0.7097(3) 0.53337(5)
H3D H 0.0000 0.7477 0.5606
C9D C 0.0000 0.55476(7) 0.6435(2)
C10D C 0.0000 0.53332(5) 0.7069(3)
H4D H 0.0000 0.5605 0.7449
N1H N -0.03212(19) 0.8535(2) 0.92062(17)
N2H N -0.0550(3) 0.8184(2) 0.86960(19)
C3H C 0.05922(9) 0.7375(3) 0.7533(3)
H1H H 0.0996 0.7533 0.7707
C4H C 0.05924(9) 0.6952(3) 0.6995(3)
H2H H 0.0997 0.6820 0.6801
Cd1A Cd -0.09710(3) 0.09710(3) 0.0000
Cl2A Cl -0.1794(3) 0.1794(3) 0.0000
N1A N -0.1465(2) 0.03212(19) 0.07938(17)
N2A N -0.1816(2) 0.0550(3) 0.13040(19)
N3A N -0.3953(3) 0.0000 0.5000
N4A N -0.5000 0.0000 0.3983(3)
C1A C -0.2016(4) 0.0000 0.1610(4)
C2A C -0.2433(3) 0.0000 0.2184(3)
C3A C -0.2625(3) -0.05922(9) 0.2467(3)
H1A H -0.2467 -0.0996 0.2293
C4A C -0.3048(3) -0.05924(9) 0.3005(3)
H2A H -0.3180 -0.0997 0.3199
C5A C -0.3278(4) 0.0000 0.3258(3)
C6A C -0.3797(3) 0.0000 0.3804(3)
C7A C -0.3535(3) 0.0000 0.44519(7)
C8A C -0.2903(3) 0.0000 0.46663(5)
H3A H -0.2523 0.0000 0.4394
C9A C -0.44524(7) 0.0000 0.3565(2)
C10A C -0.46668(5) 0.0000 0.2931(3)
H4A H -0.4395 0.0000 0.2551
Na1A Na -0.1854(4) 0.1854(4) 0.1350(6)
O2A O -0.1961(11) 0.1961(11) 0.2740(17)
O3A O -0.3097(17) 0.1803(18) 0.1207(16)
N1C N -0.8535(2) -0.03212(19) 0.07938(17)
N2C N -0.8184(2) -0.0550(3) 0.13040(19)
N3C N -0.6047(3) 0.0000 0.5000
C1C C -0.7984(4) 0.0000 0.1610(4)
C2C C -0.7567(3) 0.0000 0.2184(3)
C3C C -0.7375(3) 0.05922(9) 0.2467(3)
H1C H -0.7533 0.0996 0.2293
C4C C -0.6952(3) 0.05924(9) 0.3005(3)
H2C H -0.6820 0.0997 0.3199
C5C C -0.6722(4) 0.0000 0.3258(3)
C6C C -0.6203(3) 0.0000 0.3804(3)
C7C C -0.6465(3) 0.0000 0.44519(7)
C8C C -0.7097(3) 0.0000 0.46663(5)
H3C H -0.7477 0.0000 0.4394
C9C C -0.55476(7) 0.0000 0.3565(2)
C10C C -0.53332(5) 0.0000 0.2931(3)
H4C H -0.5605 0.0000 0.2551
N1G N -0.1465(2) -0.03212(19) 0.92062(17)
N2G N -0.1816(2) -0.0550(3) 0.86960(19)
N4F N -0.5000 0.0000 0.6017(3)
C1G C -0.2016(4) 0.0000 0.8390(4)
C2G C -0.2433(3) 0.0000 0.7816(3)
C3G C -0.2625(3) 0.05922(9) 0.7533(3)
H1G H -0.2467 0.0996 0.7707
C4G C -0.3048(3) 0.05924(9) 0.6995(3)
H2G H -0.3180 0.0997 0.6801
C5G C -0.3278(4) 0.0000 0.6742(3)
C6G C -0.3797(3) 0.0000 0.6196(3)
C7G C -0.3535(3) 0.0000 0.55481(7)
C8G C -0.2903(3) 0.0000 0.53337(5)
H3G H -0.2523 0.0000 0.5606
C9G C -0.44524(7) 0.0000 0.6435(2)
C10G C -0.46668(5) 0.0000 0.7069(3)
H4G H -0.4395 0.0000 0.7449
N1K N -0.1465(2) 0.03212(19) 0.92062(17)
N2K N -0.1816(2) 0.0550(3) 0.86960(19)
C3K C -0.2625(3) -0.05922(9) 0.7533(3)
H1K H -0.2467 -0.0996 0.7707
C4K C -0.3048(3) -0.05924(9) 0.6995(3)
H2K H -0.3180 -0.0997 0.6801
N1N N -0.1465(2) -0.03212(19) 0.07938(17)
N2N N -0.1816(2) -0.0550(3) 0.13040(19)
C3N C -0.2625(3) 0.05922(9) 0.2467(3)
H1N H -0.2467 0.0996 0.2293
C4N C -0.3048(3) 0.05924(9) 0.3005(3)
H2N H -0.3180 0.0997 0.3199
N1O N -0.8535(2) 0.03212(19) 0.07938(17)
N2O N -0.8184(2) 0.0550(3) 0.13040(19)
C3O C -0.7375(3) -0.05922(9) 0.2467(3)
H1O H -0.7533 -0.0996 0.2293
C4O C -0.6952(3) -0.05924(9) 0.3005(3)
H2O H -0.6820 -0.0997 0.3199
N1F N -0.8535(2) 0.03212(19) 0.92062(17)
N2F N -0.8184(2) 0.0550(3) 0.86960(19)
C1F C -0.7984(4) 0.0000 0.8390(4)
C2F C -0.7567(3) 0.0000 0.7816(3)
C3F C -0.7375(3) -0.05922(9) 0.7533(3)
H1F H -0.7533 -0.0996 0.7707
C4F C -0.6952(3) -0.05924(9) 0.6995(3)
H2F H -0.6820 -0.0997 0.6801
C5F C -0.6722(4) 0.0000 0.6742(3)
C6F C -0.6203(3) 0.0000 0.6196(3)
C7F C -0.6465(3) 0.0000 0.55481(7)
C8F C -0.7097(3) 0.0000 0.53337(5)
H3F H -0.7477 0.0000 0.5606
C9F C -0.55476(7) 0.0000 0.6435(2)
C10F C -0.53332(5) 0.0000 0.7069(3)
H4F H -0.5605 0.0000 0.7449
N1I N -0.8535(2) -0.03212(19) 0.92062(17)
N2I N -0.8184(2) -0.0550(3) 0.86960(19)
C3I C -0.7375(3) 0.05922(9) 0.7533(3)
H1I H -0.7533 0.0996 0.7707
C4I C -0.6952(3) 0.05924(9) 0.6995(3)
H2I H -0.6820 0.0997 0.6801
Cd1B Cd -0.09710(3) -0.09710(3) 0.0000
Cl2B Cl -0.1794(3) -0.1794(3) 0.0000
Na1B Na -0.1854(4) -0.1854(4) 0.1350(6)
O2B O -0.1961(11) -0.1961(11) 0.2740(17)
O3B O -0.1803(18) -0.3097(17) 0.1207(16)
Cd2B Cd 0.05188(16) 0.5000 0.5000
O1B O 0.1750(5) 0.5000 0.5000
Cd2C Cd -0.5000 0.05188(16) 0.5000
O1C O -0.5000 0.1750(5) 0.5000
Na1C Na 0.1854(4) 0.8146(4) 0.1350(6)
O2C O 0.1961(11) 0.8039(11) 0.2740(17)
O3C O 0.3097(17) 0.8197(18) 0.1207(16)
Cd1C Cd 0.09710(3) -0.09710(3) 0.0000
Cl2C Cl 0.1794(3) -0.1794(3) 0.0000
Na1C_2 Na 0.1854(4) -0.1854(4) 0.1350(6)
O2C_2 O 0.1961(11) -0.1961(11) 0.2740(17)
O3C_2 O 0.3097(17) -0.1803(18) 0.1207(16)
Na1F Na 0.1854(4) 0.1854(4) -0.1350(6)
O2F O 0.1961(11) 0.1961(11) -0.2740(17)
O3F O 0.3097(17) 0.1803(18) -0.1207(16)
Na1B_2 Na -0.1854(4) 0.8146(4) 0.1350(6)
O2B_2 O -0.1961(11) 0.8039(11) 0.2740(17)
O3B_2 O -0.1803(18) 0.6903(17) 0.1207(16)
Na1E Na -0.1854(4) 0.1854(4) 0.8650(6)
O2E O -0.1961(11) 0.1961(11) 0.7260(17)
O3E O -0.1803(18) 0.3097(17) 0.8793(16)
Cd2A Cd -0.5000 -0.05188(16) 0.5000
O1A O -0.5000 -0.1750(5) 0.5000
O3O O 0.3097(17) 0.1803(18) 0.1207(16)
O3L O -0.1803(18) 0.3097(17) 0.1207(16)
O3N O -0.3097(17) -0.1803(18) 0.1207(16)
O3M O 0.1803(18) 0.6903(17) 0.1207(16)
O3M_2 O 0.1803(18) -0.3097(17) 0.1207(16)
O3J O 0.1803(18) 0.3097(17) -0.1207(16)
O3N_2 O -0.3097(17) 0.8197(18) 0.1207(16)
O3K O -0.3097(17) 0.1803(18) 0.8793(16)
Cd1_2 Cd -0.90290(3) 0.09710(3) 0.0000
Cd1_3 Cd -0.90290(3) 0.09710(3) 1.0000
Cd1_4 Cd 0.09710(3) 0.09710(3) 1.0000
Cd1A_2 Cd -0.09710(3) 0.09710(3) 1.0000
Cd1B_2 Cd -0.09710(3) -0.09710(3) 1.0000
Cd1B_3 Cd -0.09710(3) 0.90290(3) 0.0000
Cd1B_4 Cd -0.09710(3) 0.90290(3) 1.0000
Cd1C_2 Cd -0.90290(3) -0.09710(3) 0.0000
Cd1C_3 Cd -0.90290(3) -0.09710(3) 1.0000
Cd1C_4 Cd 0.09710(3) 0.90290(3) 0.0000
Cd1C_5 Cd 0.09710(3) 0.90290(3) 1.0000
Cl2A_2 Cl -0.1794(3) 0.1794(3) 1.0000
Cl2B_2 Cl -0.1794(3) 0.8206(3) 0.0000
Cl2C_2 Cl 0.1794(3) 0.8206(3) 0.0000
N1B_2 N -0.03212(19) -0.1465(2) 0.07938(17)
N1C_2 N 0.1465(2) -0.03212(19) 0.07938(17)
N1D_2 N 0.03212(19) -0.1465(2) -0.07938(17)
N1E_2 N -0.03212(19) 0.1465(2) -0.07938(17)
N1F_2 N 0.1465(2) 0.03212(19) -0.07938(17)
N1G_2 N -0.1465(2) -0.03212(19) -0.07938(17)
N1H_2 N -0.03212(19) -0.1465(2) -0.07938(17)
N1I_2 N 0.1465(2) -0.03212(19) -0.07938(17)
N1J_2 N 0.03212(19) 0.1465(2) -0.07938(17)
N1K_2 N -0.1465(2) 0.03212(19) -0.07938(17)
N1M_2 N 0.03212(19) -0.1465(2) 0.07938(17)
N1O_2 N 0.1465(2) 0.03212(19) 0.07938(17)
N2B_2 N -0.0550(3) -0.1816(2) 0.13040(19)
N2C_2 N 0.1816(2) -0.0550(3) 0.13040(19)
N2C_3 N 0.1816(2) 0.9450(3) 0.13040(19)
N2F_2 N 0.1816(2) 0.0550(3) -0.13040(19)
N2J_2 N 0.0550(3) 0.1816(2) -0.13040(19)
N2M_2 N 0.0550(3) -0.1816(2) 0.13040(19)
N2N_2 N -0.1816(2) 0.9450(3) 0.13040(19)
N2O_2 N 0.1816(2) 0.0550(3) 0.13040(19)
Na1_2 Na -0.8146(4) 0.1854(4) 0.1350(6)
Na1C_3 Na -0.8146(4) -0.1854(4) 0.1350(6)
Na1D Na -0.8146(4) -0.1854(4) 0.8650(6)
Na1D_2 Na 0.1854(4) -0.1854(4) -0.1350(6)
Na1D_3 Na 0.1854(4) 0.8146(4) 0.8650(6)
Na1E_2 Na -0.1854(4) 0.1854(4) -0.1350(6)
Na1F_2 Na -0.8146(4) 0.1854(4) 0.8650(6)
Na1F_3 Na 0.1854(4) 0.1854(4) 0.8650(6)
Na1G Na -0.1854(4) -0.1854(4) -0.1350(6)
Na1G_2 Na -0.1854(4) -0.1854(4) 0.8650(6)
Na1G_3 Na -0.1854(4) 0.8146(4) 0.8650(6)
Cd3 Cd 0.0000 0.0000 0.2126(19)
Cd4 Cd 0.0000 0.0000 0.347(4)
loop_
_geom_bond_atom_site_label_1
_geom_bond_atom_site_label_2
_geom_bond_site_symmetry_1
_geom_bond_site_symmetry_2
Cd1 Cl1 1_555 1_555
Cd2 O1 1_555 1_555
Cl1 Cd1A 1_555 1_555
Cl2 Cd1 1_555 1_555
N1 Cd1 1_555 1_555
N2 N1 1_555 1_555
N3 Cd2 1_555 1_555
N4 Cd2 1_555 1_555
C1 N2 1_555 1_555
C2 C1 1_555 1_555
C3 C2 1_555 1_555
H1 C3 1_555 1_555
C4 C3 1_555 1_555
H2 C4 1_555 1_555
C5 C4 1_555 1_555
C6 C5 1_555 1_555
C7 N3 1_555 1_555
C8 C7 1_555 1_555
H3 C8 1_555 1_555
C9 N4 1_555 1_555
C10 C9 1_555 1_555
H4 C10 1_555 1_555
Na1 Cl2 1_555 1_555
O2 Na1 1_555 1_555
O3 Na1 1_555 1_555
Cd3 Cd4 1_555 1_555
N1B N2B 1_555 1_555
N2B C1B 1_555 1_555
N3B Cd2 1_555 1_555
C1B C2B 1_555 1_555
C2B C3B 1_555 1_555
C3B H1B 1_555 1_555
C4B C3B 1_555 1_555
H2B C4B 1_555 1_555
C5B C4B 1_555 1_555
C6B C5B 1_555 1_555
C7B N3B 1_555 1_555
C8B C7B 1_555 1_555
H3B C8B 1_555 1_555
C9B N4 1_555 1_555
C10B C10 1_555 1_555
H4B C10B 1_555 1_555
N1E N2E 1_555 1_555
N2E C1E 1_555 1_555
N4D Cd2 1_555 1_555
C1E C2E 1_555 1_555
C2E C3E 1_555 1_555
C3E H1E 1_555 1_555
C4E C3E 1_555 1_555
H2E C4E 1_555 1_555
C5E C4E 1_555 1_555
C6E C5E 1_555 1_555
C7E N3 1_555 1_555
C8E C8 1_555 1_555
H3E C8E 1_555 1_555
C9E N4D 1_555 1_555
C10E C9E 1_555 1_555
H4E C10E 1_555 1_555
N1J N1E 1_555 1_555
N2J C1E 1_555 1_555
C3J C2E 1_555 1_555
H1J C3J 1_555 1_555
C4J C5E 1_555 1_555
H2J C4J 1_555 1_555
N1L N1 1_555 1_555
N2L C1 1_555 1_555
C3L C2 1_555 1_555
H1L C3L 1_555 1_555
C4L C5 1_555 1_555
H2L C4L 1_555 1_555
N1M N1B 1_555 1_555
N2M C1B 1_555 1_555
C3M C2B 1_555 1_555
H1M C3M 1_555 1_555
C4M C5B 1_555 1_555
H2M C4M 1_555 1_555
N1D N2D 1_555 1_555
N2D C1D 1_555 1_555
C1D C2D 1_555 1_555
C2D C3D 1_555 1_555
C3D H1D 1_555 1_555
C4D C3D 1_555 1_555
H2D C4D 1_555 1_555
C5D C4D 1_555 1_555
C6D C5D 1_555 1_555
C7D N3B 1_555 1_555
C8D C8B 1_555 1_555
H3D C8D 1_555 1_555
C9D N4D 1_555 1_555
C10D C10E 1_555 1_555
H4D C10D 1_555 1_555
N1H N1D 1_555 1_555
N2H C1D 1_555 1_555
C3H C2D 1_555 1_555
H1H C3H 1_555 1_555
C4H C5D 1_555 1_555
H2H C4H 1_555 1_555
Cd1A N1L 1_555 1_555
Cl2A Cd1A 1_555 1_555
N1A Cd1A 1_555 1_555
N2A N1A 1_555 1_555
N3A C7A 1_555 1_555
N4A C9A 1_555 1_555
C1A N2A 1_555 1_555
C2A C1A 1_555 1_555
C3A C2A 1_555 1_555
H1A C3A 1_555 1_555
C4A C3A 1_555 1_555
H2A C4A 1_555 1_555
C5A C4A 1_555 1_555
C6A C5A 1_555 1_555
C7A C6A 1_555 1_555
C8A C7A 1_555 1_555
H3A C8A 1_555 1_555
C9A C6A 1_555 1_555
C10A C9A 1_555 1_555
H4A C10A 1_555 1_555
Na1A N2L 1_555 1_555
O2A Na1A 1_555 1_555
O3A Na1A 1_555 1_555
N1C N2C 1_555 1_555
N2C C1C 1_555 1_555
N3C C7C 1_555 1_555
C1C C2C 1_555 1_555
C2C C3C 1_555 1_555
C3C H1C 1_555 1_555
C4C C3C 1_555 1_555
H2C C4C 1_555 1_555
C5C C4C 1_555 1_555
C6C C5C 1_555 1_555
C7C C6C 1_555 1_555
C8C C7C 1_555 1_555
H3C C8C 1_555 1_555
C9C N4A 1_555 1_555
C10C C10A 1_555 1_555
H4C C10C 1_555 1_555
N1G N2G 1_555 1_555
N2G C1G 1_555 1_555
N4F C9G 1_555 1_555
C1G C2G 1_555 1_555
C2G C3G 1_555 1_555
C3G H1G 1_555 1_555
C4G C3G 1_555 1_555
H2G C4G 1_555 1_555
C5G C4G 1_555 1_555
C6G C5G 1_555 1_555
C7G N3A 1_555 1_555
C8G C8A 1_555 1_555
H3G C8G 1_555 1_555
C9G C6G 1_555 1_555
C10G C9G 1_555 1_555
H4G C10G 1_555 1_555
N1K N1G 1_555 1_555
N2K C1G 1_555 1_555
C3K C2G 1_555 1_555
H1K C3K 1_555 1_555
C4K C5G 1_555 1_555
H2K C4K 1_555 1_555
N1N N1A 1_555 1_555
N2N C1A 1_555 1_555
C3N C2A 1_555 1_555
H1N C3N 1_555 1_555
C4N C5A 1_555 1_555
H2N C4N 1_555 1_555
N1O N1C 1_555 1_555
N2O C1C 1_555 1_555
C3O C2C 1_555 1_555
H1O C3O 1_555 1_555
C4O C5C 1_555 1_555
H2O C4O 1_555 1_555
N1F N2F 1_555 1_555
N2F C1F 1_555 1_555
C1F C2F 1_555 1_555
C2F C3F 1_555 1_555
C3F H1F 1_555 1_555
C4F C3F 1_555 1_555
H2F C4F 1_555 1_555
C5F C4F 1_555 1_555
C6F C5F 1_555 1_555
C7F N3C 1_555 1_555
C8F C8C 1_555 1_555
H3F C8F 1_555 1_555
C9F N4F 1_555 1_555
C10F C10G 1_555 1_555
H4F C10F 1_555 1_555
N1I N1F 1_555 1_555
N2I C1F 1_555 1_555
C3I C2F 1_555 1_555
H1I C3I 1_555 1_555
C4I C5F 1_555 1_555
H2I C4I 1_555 1_555
Cd1B Cl1 1_555 1_555
Cl2B Cd1B 1_555 1_555
Na1B N2N 1_555 1_555
O2B Na1B 1_555 1_555
O3B Na1B 1_555 1_555
Cd2B Cd2 1_555 1_555
O1B Cd2B 1_555 1_555
Cd2C N3A 1_555 1_555
O1C Cd2C 1_555 1_555
Na1C N2M 1_555 1_555
O2C Na1C 1_555 1_555
O3C Na1C 1_555 1_555
Cd1C Cl1 1_555 1_555
Cl2C Cd1C 1_555 1_555
Na1C_2 Cl2C 1_555 1_555
O2C_2 Na1C_2 1_555 1_555
O3C_2 Na1C_2 1_555 1_555
Na1F Cl2 1_555 1_555
O2F Na1F 1_555 1_555
O3F Na1F 1_555 1_555
Na1B_2 N2B 1_555 1_555
O2B_2 Na1B_2 1_555 1_555
O3B_2 Na1B_2 1_555 1_555
Na1E N2E 1_555 1_555
O2E Na1E 1_555 1_555
O3E Na1E 1_555 1_555
Cd2A N3A 1_555 1_555
O1A Cd2A 1_555 1_555
O3O Na1 1_555 1_555
O3L Na1A 1_555 1_555
O3N Na1B 1_555 1_555
O3M Na1C 1_555 1_555
O3M_2 Na1C_2 1_555 1_555
O3J Na1F 1_555 1_555
O3N_2 Na1B_2 1_555 1_555
O3K Na1E 1_555 1_555
Cd1_2 N1O 1_555 1_555
Cd1_3 N1F 1_555 1_555
Cd1_4 N1J 1_555 1_555
Cd1A_2 N1E 1_555 1_555
Cd1B_2 N1G 1_555 1_555
Cd1B_3 N1B 1_555 1_555
Cd1B_4 N1H 1_555 1_555
Cd1C_2 N1C 1_555 1_555
Cd1C_3 N1I 1_555 1_555
Cd1C_4 N1M 1_555 1_555
Cd1C_5 N1D 1_555 1_555
Cl2A_2 Na1E 1_555 1_555
Cl2B_2 Na1B_2 1_555 1_555
Cl2C_2 Na1C 1_555 1_555
N1B_2 Cd1B 1_555 1_555
N1C_2 Cd1C 1_555 1_555
N1D_2 Cd1C 1_555 1_555
N1E_2 Cd1A 1_555 1_555
N1F_2 Cd1 1_555 1_555
N1G_2 Cd1B 1_555 1_555
N1H_2 Cd1B 1_555 1_555
N1I_2 Cd1C 1_555 1_555
N1J_2 Cd1 1_555 1_555
N1K_2 Cd1A 1_555 1_555
N1M_2 Cd1C 1_555 1_555
N1O_2 Cd1 1_555 1_555
N2B_2 Na1B 1_555 1_555
N2C_2 Na1C_2 1_555 1_555
N2C_3 Na1C 1_555 1_555
N2F_2 Na1F 1_555 1_555
N2J_2 Na1F 1_555 1_555
N2M_2 Na1C_2 1_555 1_555
N2N_2 Na1B_2 1_555 1_555
N2O_2 Na1 1_555 1_555
Na1_2 N2O 1_555 1_555
Na1C_3 N2C 1_555 1_555
Na1D N2I 1_555 1_555
Na1D_2 Cl2C 1_555 1_555
Na1D_3 N2D 1_555 1_555
Na1E_2 Cl2A 1_555 1_555
Na1F_2 N2F 1_555 1_555
Na1F_3 N2J 1_555 1_555
Na1G Cl2B 1_555 1_555
Na1G_2 N2G 1_555 1_555
Na1G_3 N2H 1_555 1_555
N2 Na1 1_555 1_555
N3 Cd2B 1_555 1_555
N4 Cd2B 1_555 1_555
C6 C7 1_555 1_555
C6 C9 1_555 1_555
N3B Cd2B 1_555 1_555
C6B C7B 1_555 1_555
C6B C9B 1_555 1_555
C9B C10B 1_555 1_555
N4D Cd2B 1_555 1_555
C6E C7E 1_555 1_555
C6E C9E 1_555 1_555
C7E C8E 1_555 1_555
N1J N2J 1_555 1_555
C3J C4J 1_555 1_555
N1L N2L 1_555 1_555
C3L C4L 1_555 1_555
N1M N2M 1_555 1_555
C3M C4M 1_555 1_555
C6D C7D 1_555 1_555
C6D C9D 1_555 1_555
C7D C8D 1_555 1_555
C9D C10D 1_555 1_555
N1H N2H 1_555 1_555
C3H C4H 1_555 1_555
Cl2A Na1A 1_555 1_555
N2A Na1A 1_555 1_555
N4A Cd2C 1_555 1_555
N4A Cd2A 1_555 1_555
N3C Cd2C 1_555 1_555
N3C Cd2A 1_555 1_555
C6C C9C 1_555 1_555
C9C C10C 1_555 1_555
N4F Cd2C 1_555 1_555
N4F Cd2A 1_555 1_555
C6G C7G 1_555 1_555
C7G C8G 1_555 1_555
N1K N2K 1_555 1_555
N1K Cd1A_2 1_555 1_555
N2K Na1E 1_555 1_555
C3K C4K 1_555 1_555
N1N N2N 1_555 1_555
N1N Cd1B 1_555 1_555
C3N C4N 1_555 1_555
N1O N2O 1_555 1_555
C3O C4O 1_555 1_555
C6F C7F 1_555 1_555
C6F C9F 1_555 1_555
C7F C8F 1_555 1_555
C9F C10F 1_555 1_555
N1I N2I 1_555 1_555
C3I C4I 1_555 1_555
Cl2B Na1B 1_555 1_555
Cd2C Cd2A 1_555 1_555
Cd1A_2 Cl2A_2 1_555 1_555
Cd1B_3 Cl2B_2 1_555 1_555
Cd1C_4 Cl2C_2 1_555 1_555
N1B_2 N1M_2 1_555 1_555
N1B_2 N2B_2 1_555 1_555
N1C_2 N1O_2 1_555 1_555
N1C_2 N2C_2 1_555 1_555
N1D_2 N1H_2 1_555 1_555
N1E_2 N1J_2 1_555 1_555
N1F_2 N1I_2 1_555 1_555
N1F_2 N2F_2 1_555 1_555
N1G_2 N1K_2 1_555 1_555
N1J_2 N2J_2 1_555 1_555
N1M_2 N2M_2 1_555 1_555
N1O_2 N2O_2 1_555 1_555

#END
