
#######################################################################
#
#                 Cambridge Crystallographic Data Centre
#                                CCDC 
#
#######################################################################
#
# If this CIF has been generated from an entry in the Cambridge 
# Structural Database, then it will include bibliographic, chemical, 
# crystal, experimental, refinement or atomic coordinate data resulting 
# from the CCDC's data processing and validation procedures.
#
#######################################################################

data_UQOFEN01
_chemical_formula_moiety         'C96 H48 Cd37 Cl8 N60 O26'
_symmetry_cell_setting           tetragonal
_symmetry_space_group_name_H-M   'P 4/m b m'
_symmetry_Int_Tables_number      127
_space_group_name_Hall           '-P 4 2ab'
loop_
_symmetry_equiv_pos_site_id
_symmetry_equiv_pos_as_xyz
1 x,y,z
2 -y,x,z
3 -x,-y,z
4 y,-x,z
5 1/2+x,1/2-y,-z
6 1/2-x,1/2+y,-z
7 1/2+y,1/2+x,-z
8 1/2-y,1/2-x,-z
9 -x,-y,-z
10 y,-x,-z
11 x,y,-z
12 -y,x,-z
13 1/2-x,1/2+y,z
14 1/2+x,1/2-y,z
15 1/2-y,1/2-x,z
16 1/2+y,1/2+x,z
_cell_length_a                   27.849(2)
_cell_length_b                   27.849(2)
_cell_length_c                   20.452(3)
_cell_angle_alpha                90
_cell_angle_beta                 90
_cell_angle_gamma                90
_cell_volume                     15861.9
loop_
_atom_site_label
_atom_site_type_symbol
_atom_site_fract_x
_atom_site_fract_y
_atom_site_fract_z
Cd1 Cd 0.90348(3) 0.02540(3) 0.0000
Cd2 Cd 0.67969(6) -0.17969(6) -0.5000
O1 O 0.6188(4) -0.1188(4) -0.5000
Cl1 Cl 1.0000 0.0000 0.0000
Cl2 Cl 0.81781(16) 0.0488(2) 0.0000
N1 N 0.7505(4) -0.1456(4) -0.5000
N2 N 0.6952(4) -0.1952(4) -0.3965(4)
N3 N 0.8658(2) -0.0323(2) -0.1313(2)
N4 N 0.8956(2) -0.0325(2) -0.0792(2)
N5 N 0.9210(2) -0.0748(2) -0.0800(2)
N6 N 0.9063(2) -0.1002(2) -0.1307(2)
C1 C 0.8743(2) -0.07336(18) -0.1589(2)
C2 C 0.8483(3) -0.0892(2) -0.2198(3)
C3 C 0.8106(3) -0.0620(2) -0.2446(3)
H1 H 0.8022 -0.0324 -0.2243
C4 C 0.7853(2) -0.0779(3) -0.2990(3)
H2 H 0.7596 -0.0593 -0.3159
C5 C 0.7976(3) -0.1211(3) -0.3286(3)
C6 C 0.8353(3) -0.1484(2) -0.3038(3)
H3 H 0.8437 -0.1779 -0.3240
C7 C 0.8606(3) -0.1324(2) -0.2494(3)
H4 H 0.8863 -0.1511 -0.2324
C8 C 0.7654(3) -0.1415(3) -0.3810(2)
C9 C 0.7766(3) -0.1288(4) -0.4459(3)
C10 C 0.8151(4) -0.1036(4) -0.46701(5)
H5 H 0.8382 -0.0884 -0.4399
C11 C 0.7307(4) -0.1741(4) -0.3574(3)
C12 C 0.7221(4) -0.1851(4) -0.2940(3)
H6 H 0.7373 -0.1714 -0.2568
Cd3 Cd 0.81509(8) 0.04609(9) -0.12471(10)
O2 O 0.7744(8) 0.1204(8) -0.1247(11)
O3 O 0.8178(8) 0.0455(9) -0.2344(10)
O4 O 0.7435(8) 0.0037(9) -0.1224(10)
N2G N 0.6952(4) -0.1952(4) -0.6035(4)
N3J N 0.8658(2) -0.0323(2) -0.8687(2)
N4J N 0.8956(2) -0.0325(2) -0.9208(2)
N5J N 0.9210(2) -0.0748(2) -0.9200(2)
N6J N 0.9063(2) -0.1002(2) -0.8693(2)
C1J C 0.8743(2) -0.07336(18) -0.8411(2)
C2J C 0.8483(3) -0.0892(2) -0.7802(3)
C3J C 0.8106(3) -0.0620(2) -0.7554(3)
H1J H 0.8022 -0.0324 -0.7757
C4J C 0.7853(2) -0.0779(3) -0.7010(3)
H2J H 0.7596 -0.0593 -0.6841
C5J C 0.7976(3) -0.1211(3) -0.6714(3)
C6J C 0.8353(3) -0.1484(2) -0.6962(3)
H3J H 0.8437 -0.1779 -0.6760
C7J C 0.8606(3) -0.1324(2) -0.7506(3)
H4J H 0.8863 -0.1511 -0.7676
C8J C 0.7654(3) -0.1415(3) -0.6190(2)
C9J C 0.7766(3) -0.1288(4) -0.5541(3)
C10J C 0.8151(4) -0.1036(4) -0.53299(5)
H5J H 0.8382 -0.0884 -0.5601
C11J C 0.7307(4) -0.1741(4) -0.6426(3)
C12J C 0.7221(4) -0.1851(4) -0.7060(3)
H6J H 0.7373 -0.1714 -0.7432
N1G N 0.6456(4) -0.2505(4) -0.5000
N3N N 0.5323(2) -0.3658(2) -0.1313(2)
N4N N 0.5325(2) -0.3956(2) -0.0792(2)
N5N N 0.5748(2) -0.4210(2) -0.0800(2)
N6N N 0.6002(2) -0.4063(2) -0.1307(2)
C1N C 0.57336(18) -0.3743(2) -0.1589(2)
C2N C 0.5892(2) -0.3483(3) -0.2198(3)
C3N C 0.5620(2) -0.3106(3) -0.2446(3)
H1N H 0.5324 -0.3022 -0.2243
C4N C 0.5779(3) -0.2853(2) -0.2990(3)
H2N H 0.5593 -0.2596 -0.3159
C5N C 0.6211(3) -0.2976(3) -0.3286(3)
C6N C 0.6484(2) -0.3353(3) -0.3038(3)
H3N H 0.6779 -0.3437 -0.3240
C7N C 0.6324(2) -0.3606(3) -0.2494(3)
H4N H 0.6511 -0.3863 -0.2324
C8N C 0.6415(3) -0.2654(3) -0.3810(2)
C9N C 0.6288(4) -0.2766(3) -0.4459(3)
C10N C 0.6036(4) -0.3151(4) -0.46701(5)
H5N H 0.5884 -0.3382 -0.4399
C11N C 0.6741(4) -0.2307(4) -0.3574(3)
C12N C 0.6851(4) -0.2221(4) -0.2940(3)
H6N H 0.6714 -0.2373 -0.2568
N3G N 0.5323(2) -0.3658(2) -0.8687(2)
N4G N 0.5325(2) -0.3956(2) -0.9208(2)
N5G N 0.5748(2) -0.4210(2) -0.9200(2)
N6G N 0.6002(2) -0.4063(2) -0.8693(2)
C1G C 0.57336(18) -0.3743(2) -0.8411(2)
C2G C 0.5892(2) -0.3483(3) -0.7802(3)
C3G C 0.5620(2) -0.3106(3) -0.7554(3)
H1G H 0.5324 -0.3022 -0.7757
C4G C 0.5779(3) -0.2853(2) -0.7010(3)
H2G H 0.5593 -0.2596 -0.6841
C5G C 0.6211(3) -0.2976(3) -0.6714(3)
C6G C 0.6484(2) -0.3353(3) -0.6962(3)
H3G H 0.6779 -0.3437 -0.6760
C7G C 0.6324(2) -0.3606(3) -0.7506(3)
H4G H 0.6511 -0.3863 -0.7676
C8G C 0.6415(3) -0.2654(3) -0.6190(2)
C9G C 0.6288(4) -0.2766(3) -0.5541(3)
C10G C 0.6036(4) -0.3151(4) -0.53299(5)
H5G H 0.5884 -0.3382 -0.5601
C11G C 0.6741(4) -0.2307(4) -0.6426(3)
C12G C 0.6851(4) -0.2221(4) -0.7060(3)
H6G H 0.6714 -0.2373 -0.7432
Cd1A Cd 0.97460(3) -0.09652(3) 0.0000
Cd2A Cd 1.17969(6) -0.32031(6) -0.5000
O1A O 1.1188(4) -0.3812(4) -0.5000
Cl2A Cl 0.9512(2) -0.18219(16) 0.0000
N1A N 1.1456(4) -0.2495(4) -0.5000
N2A N 1.1952(4) -0.3048(4) -0.3965(4)
N3A N 1.0323(2) -0.1342(2) -0.1313(2)
N4A N 1.0325(2) -0.1044(2) -0.0792(2)
N5A N 1.0748(2) -0.0790(2) -0.0800(2)
N6A N 1.1002(2) -0.0937(2) -0.1307(2)
C1A C 1.07336(18) -0.1257(2) -0.1589(2)
C2A C 1.0892(2) -0.1517(3) -0.2198(3)
C3A C 1.0620(2) -0.1894(3) -0.2446(3)
H1A H 1.0324 -0.1978 -0.2243
C4A C 1.0779(3) -0.2147(2) -0.2990(3)
H2A H 1.0593 -0.2404 -0.3159
C5A C 1.1211(3) -0.2024(3) -0.3286(3)
C6A C 1.1484(2) -0.1647(3) -0.3038(3)
H3A H 1.1779 -0.1563 -0.3240
C7A C 1.1324(2) -0.1394(3) -0.2494(3)
H4A H 1.1511 -0.1137 -0.2324
C8A C 1.1415(3) -0.2346(3) -0.3810(2)
C9A C 1.1288(4) -0.2234(3) -0.4459(3)
C10A C 1.1036(4) -0.1849(4) -0.46701(5)
H5A H 1.0884 -0.1618 -0.4399
C11A C 1.1741(4) -0.2693(4) -0.3574(3)
C12A C 1.1851(4) -0.2779(4) -0.2940(3)
H6A H 1.1714 -0.2627 -0.2568
Cd3A Cd 0.95391(9) -0.18491(8) -0.12471(10)
O2A O 0.8796(8) -0.2256(8) -0.1247(11)
O3A O 0.9545(9) -0.1822(8) -0.2344(10)
O4A O 0.9963(9) -0.2565(8) -0.1224(10)
N2D N 1.1952(4) -0.3048(4) -0.6035(4)
N3K N 1.0323(2) -0.1342(2) -0.8687(2)
N4K N 1.0325(2) -0.1044(2) -0.9208(2)
N5K N 1.0748(2) -0.0790(2) -0.9200(2)
N6K N 1.1002(2) -0.0937(2) -0.8693(2)
C1K C 1.07336(18) -0.1257(2) -0.8411(2)
C2K C 1.0892(2) -0.1517(3) -0.7802(3)
C3K C 1.0620(2) -0.1894(3) -0.7554(3)
H1K H 1.0324 -0.1978 -0.7757
C4K C 1.0779(3) -0.2147(2) -0.7010(3)
H2K H 1.0593 -0.2404 -0.6841
C5K C 1.1211(3) -0.2024(3) -0.6714(3)
C6K C 1.1484(2) -0.1647(3) -0.6962(3)
H3K H 1.1779 -0.1563 -0.6760
C7K C 1.1324(2) -0.1394(3) -0.7506(3)
H4K H 1.1511 -0.1137 -0.7676
C8K C 1.1415(3) -0.2346(3) -0.6190(2)
C9K C 1.1288(4) -0.2234(3) -0.5541(3)
C10K C 1.1036(4) -0.1849(4) -0.53299(5)
H5K H 1.0884 -0.1618 -0.5601
C11K C 1.1741(4) -0.2693(4) -0.6426(3)
C12K C 1.1851(4) -0.2779(4) -0.7060(3)
H6K H 1.1714 -0.2627 -0.7432
N1D N 1.2505(4) -0.3544(4) -0.5000
N3M N 1.3658(2) -0.4677(2) -0.1313(2)
N4M N 1.3956(2) -0.4675(2) -0.0792(2)
N5M N 1.4210(2) -0.4252(2) -0.0800(2)
N6M N 1.4063(2) -0.3998(2) -0.1307(2)
C1M C 1.3743(2) -0.42664(18) -0.1589(2)
C2M C 1.3483(3) -0.4108(2) -0.2198(3)
C3M C 1.3106(3) -0.4380(2) -0.2446(3)
H1M H 1.3022 -0.4676 -0.2243
C4M C 1.2853(2) -0.4221(3) -0.2990(3)
H2M H 1.2596 -0.4407 -0.3159
C5M C 1.2976(3) -0.3789(3) -0.3286(3)
C6M C 1.3353(3) -0.3516(2) -0.3038(3)
H3M H 1.3437 -0.3221 -0.3240
C7M C 1.3606(3) -0.3676(2) -0.2494(3)
H4M H 1.3863 -0.3489 -0.2324
C8M C 1.2654(3) -0.3585(3) -0.3810(2)
C9M C 1.2766(3) -0.3712(4) -0.4459(3)
C10M C 1.3151(4) -0.3964(4) -0.46701(5)
H5M H 1.3382 -0.4116 -0.4399
C11M C 1.2307(4) -0.3259(4) -0.3574(3)
C12M C 1.2221(4) -0.3149(4) -0.2940(3)
H6M H 1.2373 -0.3286 -0.2568
N3D N 1.3658(2) -0.4677(2) -0.8687(2)
N4D N 1.3956(2) -0.4675(2) -0.9208(2)
N5D N 1.4210(2) -0.4252(2) -0.9200(2)
N6D N 1.4063(2) -0.3998(2) -0.8693(2)
C1D C 1.3743(2) -0.42664(18) -0.8411(2)
C2D C 1.3483(3) -0.4108(2) -0.7802(3)
C3D C 1.3106(3) -0.4380(2) -0.7554(3)
H1D H 1.3022 -0.4676 -0.7757
C4D C 1.2853(2) -0.4221(3) -0.7010(3)
H2D H 1.2596 -0.4407 -0.6841
C5D C 1.2976(3) -0.3789(3) -0.6714(3)
C6D C 1.3353(3) -0.3516(2) -0.6962(3)
H3D H 1.3437 -0.3221 -0.6760
C7D C 1.3606(3) -0.3676(2) -0.7506(3)
H4D H 1.3863 -0.3489 -0.7676
C8D C 1.2654(3) -0.3585(3) -0.6190(2)
C9D C 1.2766(3) -0.3712(4) -0.5541(3)
C10D C 1.3151(4) -0.3964(4) -0.53299(5)
H5D H 1.3382 -0.4116 -0.5601
C11D C 1.2307(4) -0.3259(4) -0.6426(3)
C12D C 1.2221(4) -0.3149(4) -0.7060(3)
H6D H 1.2373 -0.3286 -0.7432
Cd1B Cd 1.09652(3) -0.02540(3) 0.0000
Cl2B Cl 1.18219(16) -0.0488(2) 0.0000
Cd3B Cd 1.18491(8) -0.04609(9) -0.12471(10)
O2B O 1.2256(8) -0.1204(8) -0.1247(11)
O3B O 1.1822(8) -0.0455(9) -0.2344(10)
O4B O 1.2565(8) -0.0037(9) -0.1224(10)
Cd1C Cd 1.02540(3) 0.09652(3) 0.0000
Cl2C Cl 1.0488(2) 0.18219(16) 0.0000
Cd3C Cd 1.04609(9) 0.18491(8) -0.12471(10)
O2C O 1.1204(8) 0.2256(8) -0.1247(11)
O3C O 1.0455(9) 0.1822(8) -0.2344(10)
O4C O 1.0037(9) 0.2565(8) -0.1224(10)
Cd3H Cd 1.18491(8) -0.04609(9) -0.87529(10)
O2H O 1.2256(8) -0.1204(8) -0.8753(11)
O3H O 1.1822(8) -0.0455(9) -0.7656(10)
O4H O 1.2565(8) -0.0037(9) -0.8776(10)
Cd3J Cd 0.81509(8) 0.04609(9) -0.87529(10)
O2J O 0.7744(8) 0.1204(8) -0.8753(11)
O3J O 0.8178(8) 0.0455(9) -0.7656(10)
O4J O 0.7435(8) 0.0037(9) -0.8776(10)
Cd3K Cd 0.95391(9) -0.18491(8) -0.87529(10)
O2K O 0.8796(8) -0.2256(8) -0.8753(11)
O3K O 0.9545(9) -0.1822(8) -0.7656(10)
O4K O 0.9963(9) -0.2565(8) -0.8776(10)
Cd3J_2 Cd 0.81509(8) 0.04609(9) 0.12471(10)
O2J_2 O 0.7744(8) 0.1204(8) 0.1247(11)
O3J_2 O 0.8178(8) 0.0455(9) 0.2344(10)
O4J_2 O 0.7435(8) 0.0037(9) 0.1224(10)
Cd1_2 Cd 0.90348(3) 0.02540(3) -1.0000
Cd1A_2 Cd 0.97460(3) -0.09652(3) -1.0000
Cd1B_2 Cd 1.09652(3) -0.02540(3) -1.0000
Cd1D Cd 1.40348(3) -0.52540(3) -1.0000
Cd1D_2 Cd 1.40348(3) -0.52540(3) 0.0000
Cd1E Cd 0.59652(3) -0.47460(3) -1.0000
Cd1E_2 Cd 0.59652(3) -0.47460(3) 0.0000
Cd1G Cd 0.47460(3) -0.40348(3) -1.0000
Cd1G_2 Cd 0.47460(3) -0.40348(3) 0.0000
Cd1G_3 Cd 1.47460(3) -0.40348(3) -1.0000
Cd1G_4 Cd 1.47460(3) -0.40348(3) 0.0000
Cl2_2 Cl 0.81781(16) 0.0488(2) -1.0000
Cl2A_2 Cl 0.9512(2) -0.18219(16) -1.0000
Cl2B_2 Cl 1.18219(16) -0.0488(2) -1.0000
N3B N 1.1342(2) 0.0323(2) -0.1313(2)
N3C N 0.9677(2) 0.1342(2) -0.1313(2)
N3H N 1.1342(2) 0.0323(2) -0.8687(2)
N3J_2 N 0.8658(2) -0.0323(2) 0.1313(2)
N4B N 1.1044(2) 0.0325(2) -0.0792(2)
N4C N 0.9675(2) 0.1044(2) -0.0792(2)
N4H N 1.1044(2) 0.0325(2) 0.0792(2)
N4I N 0.9675(2) 0.1044(2) 0.0792(2)
N4J_2 N 0.8956(2) -0.0325(2) 0.0792(2)
N4K_2 N 1.0325(2) -0.1044(2) 0.0792(2)
N5B N 1.0790(2) 0.0748(2) -0.0800(2)
N5C N 0.9252(2) 0.0790(2) -0.0800(2)
N5H N 1.0790(2) 0.0748(2) 0.0800(2)
N5I N 0.9252(2) 0.0790(2) 0.0800(2)
N5J_2 N 0.9210(2) -0.0748(2) 0.0800(2)
N5K_2 N 1.0748(2) -0.0790(2) 0.0800(2)
N6B N 1.0937(2) 0.1002(2) -0.1307(2)
N6C N 0.8998(2) 0.0937(2) -0.1307(2)
N6I N 0.8998(2) 0.0937(2) -0.8693(2)
N6I_2 N 0.8998(2) 0.0937(2) 0.1307(2)
Cd3D Cd 1.31509(8) -0.54609(9) -0.87529(10)
Cd3E Cd 0.68491(8) -0.45391(9) -0.87529(10)
Cd3G Cd 0.45391(9) -0.31509(8) -0.87529(10)
Cd3G_2 Cd 1.45391(9) -0.31509(8) -0.87529(10)
Cd3H_2 Cd 1.18491(8) -0.04609(9) 0.12471(10)
Cd3I Cd 1.04609(9) 0.18491(8) 0.12471(10)
Cd3K_2 Cd 0.95391(9) -0.18491(8) 0.12471(10)
Cd3L Cd 0.68491(8) -0.45391(9) -0.12471(10)
Cd3M Cd 1.31509(8) -0.54609(9) -0.12471(10)
Cd3N Cd 0.45391(9) -0.31509(8) -0.12471(10)
Cd3N_2 Cd 1.45391(9) -0.31509(8) -0.12471(10)
Cd4 Cd 1.0000 0.0000 -0.5000
loop_
_geom_bond_atom_site_label_1
_geom_bond_atom_site_label_2
_geom_bond_site_symmetry_1
_geom_bond_site_symmetry_2
Cd1 Cl1 1_555 1_555
Cd2 O1 1_555 1_555
Cl1 Cd1A 1_555 1_555
Cl2 Cd1 1_555 1_555
N1 Cd2 1_555 1_555
N2 Cd2 1_555 1_555
N3 N4 1_555 1_555
N4 Cd1 1_555 1_555
N5 N4 1_555 1_555
N6 N5 1_555 1_555
C1 N3 1_555 1_555
C2 C1 1_555 1_555
C3 C2 1_555 1_555
H1 C3 1_555 1_555
C4 C3 1_555 1_555
H2 C4 1_555 1_555
C5 C4 1_555 1_555
C6 C5 1_555 1_555
H3 C6 1_555 1_555
C7 C2 1_555 1_555
H4 C7 1_555 1_555
C8 C5 1_555 1_555
C9 N1 1_555 1_555
C10 C9 1_555 1_555
H5 C10 1_555 1_555
C11 N2 1_555 1_555
C12 C11 1_555 1_555
H6 C12 1_555 1_555
Cd3 Cl2 1_555 1_555
O2 Cd3 1_555 1_555
O3 Cd3 1_555 1_555
O4 Cd3 1_555 1_555
N2G Cd2 1_555 1_555
N3J N4J 1_555 1_555
N4J N5J 1_555 1_555
N5J N6J 1_555 1_555
N6J C1J 1_555 1_555
C1J N3J 1_555 1_555
C2J C1J 1_555 1_555
C3J C2J 1_555 1_555
H1J C3J 1_555 1_555
C4J C3J 1_555 1_555
H2J C4J 1_555 1_555
C5J C4J 1_555 1_555
C6J C5J 1_555 1_555
H3J C6J 1_555 1_555
C7J C2J 1_555 1_555
H4J C7J 1_555 1_555
C8J C5J 1_555 1_555
C9J N1 1_555 1_555
C10J C10 1_555 1_555
H5J C10J 1_555 1_555
C11J N2G 1_555 1_555
C12J C11J 1_555 1_555
H6J C12J 1_555 1_555
N1G Cd2 1_555 1_555
N3N N4N 1_555 1_555
N4N N5N 1_555 1_555
N5N N6N 1_555 1_555
N6N C1N 1_555 1_555
C1N N3N 1_555 1_555
C2N C1N 1_555 1_555
C3N C2N 1_555 1_555
H1N C3N 1_555 1_555
C4N C3N 1_555 1_555
H2N C4N 1_555 1_555
C5N C4N 1_555 1_555
C6N C5N 1_555 1_555
H3N C6N 1_555 1_555
C7N C2N 1_555 1_555
H4N C7N 1_555 1_555
C8N C5N 1_555 1_555
C9N N1G 1_555 1_555
C10N C9N 1_555 1_555
H5N C10N 1_555 1_555
C11N N2 1_555 1_555
C12N C12 1_555 1_555
H6N C12N 1_555 1_555
N3G N4G 1_555 1_555
N4G N5G 1_555 1_555
N5G N6G 1_555 1_555
N6G C1G 1_555 1_555
C1G N3G 1_555 1_555
C2G C1G 1_555 1_555
C3G C2G 1_555 1_555
H1G C3G 1_555 1_555
C4G C3G 1_555 1_555
H2G C4G 1_555 1_555
C5G C4G 1_555 1_555
C6G C5G 1_555 1_555
H3G C6G 1_555 1_555
C7G C2G 1_555 1_555
H4G C7G 1_555 1_555
C8G C5G 1_555 1_555
C9G N1G 1_555 1_555
C10G C10N 1_555 1_555
H5G C10G 1_555 1_555
C11G N2G 1_555 1_555
C12G C12J 1_555 1_555
H6G C12G 1_555 1_555
Cd1A N5 1_555 1_555
Cd2A O1A 1_555 1_555
Cl2A Cd1A 1_555 1_555
N1A Cd2A 1_555 1_555
N2A Cd2A 1_555 1_555
N3A N4A 1_555 1_555
N4A Cd1A 1_555 1_555
N5A N4A 1_555 1_555
N6A N5A 1_555 1_555
C1A N3A 1_555 1_555
C2A C1A 1_555 1_555
C3A C2A 1_555 1_555
H1A C3A 1_555 1_555
C4A C3A 1_555 1_555
H2A C4A 1_555 1_555
C5A C4A 1_555 1_555
C6A C5A 1_555 1_555
H3A C6A 1_555 1_555
C7A C2A 1_555 1_555
H4A C7A 1_555 1_555
C8A C5A 1_555 1_555
C9A N1A 1_555 1_555
C10A C9A 1_555 1_555
H5A C10A 1_555 1_555
C11A N2A 1_555 1_555
C12A C11A 1_555 1_555
H6A C12A 1_555 1_555
Cd3A N6 1_555 1_555
O2A Cd3A 1_555 1_555
O3A Cd3A 1_555 1_555
O4A Cd3A 1_555 1_555
N2D Cd2A 1_555 1_555
N3K N4K 1_555 1_555
N4K N5K 1_555 1_555
N5K N6K 1_555 1_555
N6K C1K 1_555 1_555
C1K N3K 1_555 1_555
C2K C1K 1_555 1_555
C3K C2K 1_555 1_555
H1K C3K 1_555 1_555
C4K C3K 1_555 1_555
H2K C4K 1_555 1_555
C5K C4K 1_555 1_555
C6K C5K 1_555 1_555
H3K C6K 1_555 1_555
C7K C2K 1_555 1_555
H4K C7K 1_555 1_555
C8K C5K 1_555 1_555
C9K N1A 1_555 1_555
C10K C10A 1_555 1_555
H5K C10K 1_555 1_555
C11K N2D 1_555 1_555
C12K C11K 1_555 1_555
H6K C12K 1_555 1_555
N1D Cd2A 1_555 1_555
N3M N4M 1_555 1_555
N4M N5M 1_555 1_555
N5M N6M 1_555 1_555
N6M C1M 1_555 1_555
C1M N3M 1_555 1_555
C2M C1M 1_555 1_555
C3M C2M 1_555 1_555
H1M C3M 1_555 1_555
C4M C3M 1_555 1_555
H2M C4M 1_555 1_555
C5M C4M 1_555 1_555
C6M C5M 1_555 1_555
H3M C6M 1_555 1_555
C7M C2M 1_555 1_555
H4M C7M 1_555 1_555
C8M C5M 1_555 1_555
C9M N1D 1_555 1_555
C10M C9M 1_555 1_555
H5M C10M 1_555 1_555
C11M N2A 1_555 1_555
C12M C12A 1_555 1_555
H6M C12M 1_555 1_555
N3D N4D 1_555 1_555
N4D N5D 1_555 1_555
N5D N6D 1_555 1_555
N6D C1D 1_555 1_555
C1D N3D 1_555 1_555
C2D C1D 1_555 1_555
C3D C2D 1_555 1_555
H1D C3D 1_555 1_555
C4D C3D 1_555 1_555
H2D C4D 1_555 1_555
C5D C4D 1_555 1_555
C6D C5D 1_555 1_555
H3D C6D 1_555 1_555
C7D C2D 1_555 1_555
H4D C7D 1_555 1_555
C8D C5D 1_555 1_555
C9D N1D 1_555 1_555
C10D C10M 1_555 1_555
H5D C10D 1_555 1_555
C11D N2D 1_555 1_555
C12D C12K 1_555 1_555
H6D C12D 1_555 1_555
Cd1B Cl1 1_555 1_555
Cl2B Cd1B 1_555 1_555
Cd3B N6A 1_555 1_555
O2B Cd3B 1_555 1_555
O3B Cd3B 1_555 1_555
O4B Cd3B 1_555 1_555
Cd1C Cl1 1_555 1_555
Cl2C Cd1C 1_555 1_555
Cd3C Cl2C 1_555 1_555
O2C Cd3C 1_555 1_555
O3C Cd3C 1_555 1_555
O4C Cd3C 1_555 1_555
Cd3H N6K 1_555 1_555
O2H Cd3H 1_555 1_555
O3H Cd3H 1_555 1_555
O4H Cd3H 1_555 1_555
Cd3J N3J 1_555 1_555
O2J Cd3J 1_555 1_555
O3J Cd3J 1_555 1_555
O4J Cd3J 1_555 1_555
Cd3K N6J 1_555 1_555
O2K Cd3K 1_555 1_555
O3K Cd3K 1_555 1_555
O4K Cd3K 1_555 1_555
Cd3J_2 Cl2 1_555 1_555
O2J_2 Cd3J_2 1_555 1_555
O3J_2 Cd3J_2 1_555 1_555
O4J_2 Cd3J_2 1_555 1_555
Cd1_2 N4J 1_555 1_555
Cd1A_2 N5J 1_555 1_555
Cd1B_2 N5K 1_555 1_555
Cd1D N4D 1_555 1_555
Cd1D_2 N4M 1_555 1_555
Cd1E N5G 1_555 1_555
Cd1E_2 N5N 1_555 1_555
Cd1G N4G 1_555 1_555
Cd1G_2 N4N 1_555 1_555
Cd1G_3 N5D 1_555 1_555
Cd1G_4 N5M 1_555 1_555
Cl2_2 Cd3J 1_555 1_555
Cl2A_2 Cd3K 1_555 1_555
Cl2B_2 Cd3H 1_555 1_555
N3B Cd3B 1_555 1_555
N3C Cd3C 1_555 1_555
N3H Cd3H 1_555 1_555
N3J_2 Cd3J_2 1_555 1_555
N4B Cd1B 1_555 1_555
N4C Cd1C 1_555 1_555
N4H Cd1B 1_555 1_555
N4I Cd1C 1_555 1_555
N4J_2 Cd1 1_555 1_555
N4K_2 Cd1A 1_555 1_555
N5B Cd1C 1_555 1_555
N5C Cd1 1_555 1_555
N5H Cd1C 1_555 1_555
N5I Cd1 1_555 1_555
N5J_2 Cd1A 1_555 1_555
N5K_2 Cd1B 1_555 1_555
N6B Cd3C 1_555 1_555
N6C Cd3 1_555 1_555
N6I Cd3J 1_555 1_555
N6I_2 Cd3J_2 1_555 1_555
Cd3D N3D 1_555 1_555
Cd3E N6G 1_555 1_555
Cd3G N3G 1_555 1_555
Cd3G_2 N6D 1_555 1_555
Cd3H_2 Cl2B 1_555 1_555
Cd3I Cl2C 1_555 1_555
Cd3K_2 Cl2A 1_555 1_555
Cd3L N6N 1_555 1_555
Cd3M N3M 1_555 1_555
Cd3N N3N 1_555 1_555
Cd3N_2 N6M 1_555 1_555
N3 Cd3 1_555 1_555
N6 C1 1_555 1_555
C6 C7 1_555 1_555
C8 C9 1_555 1_555
C8 C11 1_555 1_555
C6J C7J 1_555 1_555
C8J C9J 1_555 1_555
C8J C11J 1_555 1_555
C9J C10J 1_555 1_555
C6N C7N 1_555 1_555
C8N C9N 1_555 1_555
C8N C11N 1_555 1_555
C11N C12N 1_555 1_555
C6G C7G 1_555 1_555
C8G C9G 1_555 1_555
C8G C11G 1_555 1_555
C9G C10G 1_555 1_555
C11G C12G 1_555 1_555
Cl2A Cd3A 1_555 1_555
N3A Cd3A 1_555 1_555
N5A Cd1B 1_555 1_555
N6A C1A 1_555 1_555
C6A C7A 1_555 1_555
C8A C9A 1_555 1_555
C8A C11A 1_555 1_555
N3K Cd3K 1_555 1_555
N4K Cd1A_2 1_555 1_555
C6K C7K 1_555 1_555
C8K C9K 1_555 1_555
C8K C11K 1_555 1_555
C9K C10K 1_555 1_555
C6M C7M 1_555 1_555
C8M C9M 1_555 1_555
C8M C11M 1_555 1_555
C11M C12M 1_555 1_555
C6D C7D 1_555 1_555
C8D C9D 1_555 1_555
C8D C11D 1_555 1_555
C9D C10D 1_555 1_555
C11D C12D 1_555 1_555
Cl2B Cd3B 1_555 1_555
Cd1_2 Cl2_2 1_555 1_555
Cd1A_2 Cl2A_2 1_555 1_555
Cd1B_2 Cl2B_2 1_555 1_555
N3B N4B 1_555 1_555
N3C N4C 1_555 1_555
N3J_2 N4J_2 1_555 1_555
N4B N5B 1_555 1_555
N4C N5C 1_555 1_555
N4H N5H 1_555 1_555
N4I N5I 1_555 1_555
N4J_2 N5J_2 1_555 1_555
N4K_2 N5K_2 1_555 1_555
N5B N6B 1_555 1_555
N5C N6C 1_555 1_555
N5I N6I_2 1_555 1_555

#END
