
#######################################################################
#
#                 Cambridge Crystallographic Data Centre
#                                CCDC 
#
#######################################################################
#
# If this CIF has been generated from an entry in the Cambridge 
# Structural Database, then it will include bibliographic, chemical, 
# crystal, experimental, refinement or atomic coordinate data resulting 
# from the CCDC's data processing and validation procedures.
#
#######################################################################

data_UQOFOX
_chemical_formula_moiety         'C96 H48 Cl2 Mn18 N52 O4'
_symmetry_cell_setting           tetragonal
_symmetry_space_group_name_H-M   'P 4/m m m'
_symmetry_Int_Tables_number      123
_space_group_name_Hall           '-P 4 2'
loop_
_symmetry_equiv_pos_site_id
_symmetry_equiv_pos_as_xyz
1 x,y,z
2 -y,x,z
3 -x,-y,z
4 y,-x,z
5 x,-y,-z
6 -x,y,-z
7 y,x,-z
8 -y,-x,-z
9 -x,-y,-z
10 y,-x,-z
11 x,y,-z
12 -y,x,-z
13 -x,y,z
14 x,-y,z
15 -y,-x,z
16 y,x,z
_cell_length_a                   20.550(6)
_cell_length_b                   20.550(6)
_cell_length_c                   19.905(11)
_cell_angle_alpha                90
_cell_angle_beta                 90
_cell_angle_gamma                90
_cell_volume                     8405.93
loop_
_atom_site_label
_atom_site_type_symbol
_atom_site_fract_x
_atom_site_fract_y
_atom_site_fract_z
Mn3 Mn 0.5000 0.5000 0.2942(17)
Mn1 Mn 0.59412(4) 0.40588(4) 0.5000
O1 O 0.6701(3) 0.3299(3) 0.5000
N1 N 0.64193(16) 0.46732(14) 0.42304(13)
N2 N 0.67771(19) 0.4457(2) 0.37158(15)
N3 N 1.0000 0.5000 0.1026(3)
N4 N 0.9002(4) 0.5000 0.0000
Mn2 Mn 1.0000 0.5000 0.0000
C1 C 0.6978(2) 0.5000 0.3385(3)
C2 C 0.74382(18) 0.5000 0.2846(2)
C3 C 0.7651(3) 0.44140(8) 0.2576(2)
H1 H 0.7491 0.4014 0.2748
C4 C 0.8099(3) 0.44137(8) 0.2052(2)
H2 H 0.8245 0.4014 0.1866
C5 C 0.83325(18) 0.5000 0.17999(19)
C6 C 0.8827(3) 0.5000 0.1221(3)
C7 C 0.9668(3) 0.5000 0.2124(3)
H3 H 0.9388 0.5000 0.2505
C8 C 0.9488(3) 0.5000 0.1460(2)
C9 C 0.7937(3) 0.5000 0.0343(3)
H4 H 0.7565 0.5000 0.0626
C10 C 0.8574(3) 0.5000 0.0547(3)
Cl1 Cl 0.5000 0.5000 0.5000
N1B N 1.35807(16) 0.53268(14) 0.42304(13)
N2B N 1.32229(19) 0.5543(2) 0.37158(15)
N4B N 1.0998(4) 0.5000 0.0000
C1B C 1.3022(2) 0.5000 0.3385(3)
C2B C 1.25618(18) 0.5000 0.2846(2)
C3B C 1.2349(3) 0.55860(8) 0.2576(2)
H1B H 1.2509 0.5986 0.2748
C4B C 1.1901(3) 0.55863(8) 0.2052(2)
H2B H 1.1755 0.5986 0.1866
C5B C 1.16675(18) 0.5000 0.17999(19)
C6B C 1.1173(3) 0.5000 0.1221(3)
C7B C 1.0332(3) 0.5000 0.2124(3)
H3B H 1.0612 0.5000 0.2505
C8B C 1.0512(3) 0.5000 0.1460(2)
C9B C 1.2063(3) 0.5000 0.0343(3)
H4B H 1.2435 0.5000 0.0626
C10B C 1.1426(3) 0.5000 0.0547(3)
N1D N 0.64193(16) 0.53268(14) -0.42304(13)
N2D N 0.67771(19) 0.5543(2) -0.37158(15)
N3D N 1.0000 0.5000 -0.1026(3)
C1D C 0.6978(2) 0.5000 -0.3385(3)
C2D C 0.74382(18) 0.5000 -0.2846(2)
C3D C 0.7651(3) 0.55860(8) -0.2576(2)
H1D H 0.7491 0.5986 -0.2748
C4D C 0.8099(3) 0.55863(8) -0.2052(2)
H2D H 0.8245 0.5986 -0.1866
C5D C 0.83325(18) 0.5000 -0.17999(19)
C6D C 0.8827(3) 0.5000 -0.1221(3)
C7D C 0.9668(3) 0.5000 -0.2124(3)
H3D H 0.9388 0.5000 -0.2505
C8D C 0.9488(3) 0.5000 -0.1460(2)
C9D C 0.7937(3) 0.5000 -0.0343(3)
H4D H 0.7565 0.5000 -0.0626
C10D C 0.8574(3) 0.5000 -0.0547(3)
N1J N 0.64193(16) 0.46732(14) -0.42304(13)
N2J N 0.67771(19) 0.4457(2) -0.37158(15)
C3J C 0.7651(3) 0.44140(8) -0.2576(2)
H1J H 0.7491 0.4014 -0.2748
C4J C 0.8099(3) 0.44137(8) -0.2052(2)
H2J H 0.8245 0.4014 -0.1866
N1L N 1.35807(16) 0.46732(14) 0.42304(13)
N2L N 1.32229(19) 0.4457(2) 0.37158(15)
C3L C 1.2349(3) 0.44140(8) 0.2576(2)
H1L H 1.2509 0.4014 0.2748
C4L C 1.1901(3) 0.44137(8) 0.2052(2)
H2L H 1.1755 0.4014 0.1866
N1M N 0.64193(16) 0.53268(14) 0.42304(13)
N2M N 0.67771(19) 0.5543(2) 0.37158(15)
C3M C 0.7651(3) 0.55860(8) 0.2576(2)
H1M H 0.7491 0.5986 0.2748
C4M C 0.8099(3) 0.55863(8) 0.2052(2)
H2M H 0.8245 0.5986 0.1866
N1E N 1.35807(16) 0.46732(14) -0.42304(13)
N2E N 1.32229(19) 0.4457(2) -0.37158(15)
C1E C 1.3022(2) 0.5000 -0.3385(3)
C2E C 1.25618(18) 0.5000 -0.2846(2)
C3E C 1.2349(3) 0.44140(8) -0.2576(2)
H1E H 1.2509 0.4014 -0.2748
C4E C 1.1901(3) 0.44137(8) -0.2052(2)
H2E H 1.1755 0.4014 -0.1866
C5E C 1.16675(18) 0.5000 -0.17999(19)
C6E C 1.1173(3) 0.5000 -0.1221(3)
C7E C 1.0332(3) 0.5000 -0.2124(3)
H3E H 1.0612 0.5000 -0.2505
C8E C 1.0512(3) 0.5000 -0.1460(2)
C9E C 1.2063(3) 0.5000 -0.0343(3)
H4E H 1.2435 0.5000 -0.0626
C10E C 1.1426(3) 0.5000 -0.0547(3)
N1H N 1.35807(16) 0.53268(14) -0.42304(13)
N2H N 1.32229(19) 0.5543(2) -0.37158(15)
C3H C 1.2349(3) 0.55860(8) -0.2576(2)
H1H H 1.2509 0.5986 -0.2748
C4H C 1.1901(3) 0.55863(8) -0.2052(2)
H2H H 1.1755 0.5986 -0.1866
Mn1A Mn 0.59412(4) -0.40588(4) 0.5000
O1A O 0.6701(3) -0.3299(3) 0.5000
N1A N 0.53268(14) -0.35807(16) 0.42304(13)
N2A N 0.5543(2) -0.32229(19) 0.37158(15)
N3A N 0.5000 0.0000 0.1026(3)
N4A N 0.5000 -0.0998(4) 0.0000
Mn2A Mn 0.5000 0.0000 0.0000
C1A C 0.5000 -0.3022(2) 0.3385(3)
C2A C 0.5000 -0.25618(18) 0.2846(2)
C3A C 0.55860(8) -0.2349(3) 0.2576(2)
H1A H 0.5986 -0.2509 0.2748
C4A C 0.55863(8) -0.1901(3) 0.2052(2)
H2A H 0.5986 -0.1755 0.1866
C5A C 0.5000 -0.16675(18) 0.17999(19)
C6A C 0.5000 -0.1173(3) 0.1221(3)
C7A C 0.5000 -0.0332(3) 0.2124(3)
H3A H 0.5000 -0.0612 0.2505
C8A C 0.5000 -0.0512(3) 0.1460(2)
C9A C 0.5000 -0.2063(3) 0.0343(3)
H4A H 0.5000 -0.2435 0.0626
C10A C 0.5000 -0.1426(3) 0.0547(3)
N1C N 0.46732(14) 0.35807(16) 0.42304(13)
N2C N 0.4457(2) 0.32229(19) 0.37158(15)
N4C N 0.5000 0.0998(4) 0.0000
C1C C 0.5000 0.3022(2) 0.3385(3)
C2C C 0.5000 0.25618(18) 0.2846(2)
C3C C 0.44140(8) 0.2349(3) 0.2576(2)
H1C H 0.4014 0.2509 0.2748
C4C C 0.44137(8) 0.1901(3) 0.2052(2)
H2C H 0.4014 0.1755 0.1866
C5C C 0.5000 0.16675(18) 0.17999(19)
C6C C 0.5000 0.1173(3) 0.1221(3)
C7C C 0.5000 0.0332(3) 0.2124(3)
H3C H 0.5000 0.0612 0.2505
C8C C 0.5000 0.0512(3) 0.1460(2)
C9C C 0.5000 0.2063(3) 0.0343(3)
H4C H 0.5000 0.2435 0.0626
C10C C 0.5000 0.1426(3) 0.0547(3)
N1F N 0.46732(14) -0.35807(16) -0.42304(13)
N2F N 0.4457(2) -0.32229(19) -0.37158(15)
N3F N 0.5000 0.0000 -0.1026(3)
C1F C 0.5000 -0.3022(2) -0.3385(3)
C2F C 0.5000 -0.25618(18) -0.2846(2)
C3F C 0.44140(8) -0.2349(3) -0.2576(2)
H1F H 0.4014 -0.2509 -0.2748
C4F C 0.44137(8) -0.1901(3) -0.2052(2)
H2F H 0.4014 -0.1755 -0.1866
C5F C 0.5000 -0.16675(18) -0.17999(19)
C6F C 0.5000 -0.1173(3) -0.1221(3)
C7F C 0.5000 -0.0332(3) -0.2124(3)
H3F H 0.5000 -0.0612 -0.2505
C8F C 0.5000 -0.0512(3) -0.1460(2)
C9F C 0.5000 -0.2063(3) -0.0343(3)
H4F H 0.5000 -0.2435 -0.0626
C10F C 0.5000 -0.1426(3) -0.0547(3)
N1K N 0.53268(14) -0.35807(16) -0.42304(13)
N2K N 0.5543(2) -0.32229(19) -0.37158(15)
C3K C 0.55860(8) -0.2349(3) -0.2576(2)
H1K H 0.5986 -0.2509 -0.2748
C4K C 0.55863(8) -0.1901(3) -0.2052(2)
H2K H 0.5986 -0.1755 -0.1866
N1N N 0.53268(14) 0.35807(16) 0.42304(13)
N2N N 0.5543(2) 0.32229(19) 0.37158(15)
C3N C 0.55860(8) 0.2349(3) 0.2576(2)
H1N H 0.5986 0.2509 0.2748
C4N C 0.55863(8) 0.1901(3) 0.2052(2)
H2N H 0.5986 0.1755 0.1866
N1O N 0.46732(14) -0.35807(16) 0.42304(13)
N2O N 0.4457(2) -0.32229(19) 0.37158(15)
C3O C 0.44140(8) -0.2349(3) 0.2576(2)
H1O H 0.4014 -0.2509 0.2748
C4O C 0.44137(8) -0.1901(3) 0.2052(2)
H2O H 0.4014 -0.1755 0.1866
N1G N 0.53268(14) 0.35807(16) -0.42304(13)
N2G N 0.5543(2) 0.32229(19) -0.37158(15)
C1G C 0.5000 0.3022(2) -0.3385(3)
C2G C 0.5000 0.25618(18) -0.2846(2)
C3G C 0.55860(8) 0.2349(3) -0.2576(2)
H1G H 0.5986 0.2509 -0.2748
C4G C 0.55863(8) 0.1901(3) -0.2052(2)
H2G H 0.5986 0.1755 -0.1866
C5G C 0.5000 0.16675(18) -0.17999(19)
C6G C 0.5000 0.1173(3) -0.1221(3)
C7G C 0.5000 0.0332(3) -0.2124(3)
H3G H 0.5000 0.0612 -0.2505
C8G C 0.5000 0.0512(3) -0.1460(2)
C9G C 0.5000 0.2063(3) -0.0343(3)
H4G H 0.5000 0.2435 -0.0626
C10G C 0.5000 0.1426(3) -0.0547(3)
N1I N 0.46732(14) 0.35807(16) -0.42304(13)
N2I N 0.4457(2) 0.32229(19) -0.37158(15)
C3I C 0.44140(8) 0.2349(3) -0.2576(2)
H1I H 0.4014 0.2509 -0.2748
C4I C 0.44137(8) 0.1901(3) -0.2052(2)
H2I H 0.4014 0.1755 -0.1866
Mn1B Mn 0.40588(4) 0.59412(4) 0.5000
O1B O 0.3299(3) 0.6701(3) 0.5000
Mn1C Mn 0.40588(4) 0.40588(4) 0.5000
O1C O 0.3299(3) 0.3299(3) 0.5000
Mn1_2 Mn 0.59412(4) 0.40588(4) -0.5000
Mn1A_2 Mn 0.59412(4) -0.40588(4) -0.5000
Mn1A_3 Mn 0.59412(4) 0.59412(4) -0.5000
Mn1A_4 Mn 0.59412(4) 0.59412(4) 0.5000
Mn1B_2 Mn 0.40588(4) -0.40588(4) -0.5000
Mn1B_3 Mn 0.40588(4) -0.40588(4) 0.5000
Mn1B_4 Mn 1.40588(4) 0.59412(4) -0.5000
Mn1B_5 Mn 1.40588(4) 0.59412(4) 0.5000
Mn1C_2 Mn 0.40588(4) 0.40588(4) -0.5000
Mn1C_3 Mn 1.40588(4) 0.40588(4) -0.5000
Mn1C_4 Mn 1.40588(4) 0.40588(4) 0.5000
N1B_2 N 0.35807(16) 0.53268(14) 0.42304(13)
N1D_2 N 0.64193(16) -0.46732(14) 0.57696(13)
N1E_2 N 0.35807(16) 0.46732(14) 0.57696(13)
N1F_2 N 0.46732(14) 0.64193(16) 0.57696(13)
N1G_2 N 0.53268(14) 0.35807(16) 0.57696(13)
N1H_2 N 0.35807(16) 0.53268(14) 0.57696(13)
N1I_2 N 0.46732(14) 0.35807(16) 0.57696(13)
N1J_2 N 0.64193(16) 0.46732(14) 0.57696(13)
N1K_2 N 0.53268(14) -0.35807(16) 0.57696(13)
N1L_2 N 0.35807(16) 0.46732(14) 0.42304(13)
N1M_2 N 0.64193(16) -0.46732(14) 0.42304(13)
N1O_2 N 0.46732(14) 0.64193(16) 0.42304(13)
Cl1_2 Cl 0.5000 -0.5000 0.5000
loop_
_geom_bond_atom_site_label_1
_geom_bond_atom_site_label_2
_geom_bond_site_symmetry_1
_geom_bond_site_symmetry_2
Mn1 O1 1_555 1_555
N1 Mn1 1_555 1_555
N2 N1 1_555 1_555
N3 Mn2 1_555 1_555
N4 Mn2 1_555 1_555
Mn2 N4B 1_555 1_555
C1 N2 1_555 1_555
C2 C1 1_555 1_555
C3 C2 1_555 1_555
H1 C3 1_555 1_555
C4 C3 1_555 1_555
H2 C4 1_555 1_555
C5 C4 1_555 1_555
C6 C5 1_555 1_555
C7 H3 1_555 1_555
C8 N3 1_555 1_555
C9 H4 1_555 1_555
C10 N4 1_555 1_555
Cl1 Mn1 1_555 1_555
N1B N2B 1_555 1_555
N2B C1B 1_555 1_555
N4B C10B 1_555 1_555
C1B C2B 1_555 1_555
C2B C3B 1_555 1_555
C3B H1B 1_555 1_555
C4B C3B 1_555 1_555
H2B C4B 1_555 1_555
C5B C4B 1_555 1_555
C6B C5B 1_555 1_555
C7B C7 1_555 1_555
H3B C7B 1_555 1_555
C8B N3 1_555 1_555
C9B H4B 1_555 1_555
C10B C6B 1_555 1_555
N1D N2D 1_555 1_555
N2D C1D 1_555 1_555
N3D Mn2 1_555 1_555
C1D C2D 1_555 1_555
C2D C3D 1_555 1_555
C3D H1D 1_555 1_555
C4D C3D 1_555 1_555
H2D C4D 1_555 1_555
C5D C4D 1_555 1_555
C6D C5D 1_555 1_555
C7D H3D 1_555 1_555
C8D N3D 1_555 1_555
C9D C9 1_555 1_555
H4D C9D 1_555 1_555
C10D N4 1_555 1_555
N1J N1D 1_555 1_555
N2J C1D 1_555 1_555
C3J C2D 1_555 1_555
H1J C3J 1_555 1_555
C4J C5D 1_555 1_555
H2J C4J 1_555 1_555
N1L N1B 1_555 1_555
N2L C1B 1_555 1_555
C3L C2B 1_555 1_555
H1L C3L 1_555 1_555
C4L C5B 1_555 1_555
H2L C4L 1_555 1_555
N1M N1 1_555 1_555
N2M C1 1_555 1_555
C3M C2 1_555 1_555
H1M C3M 1_555 1_555
C4M C5 1_555 1_555
H2M C4M 1_555 1_555
N1E N2E 1_555 1_555
N2E C1E 1_555 1_555
C1E C2E 1_555 1_555
C2E C3E 1_555 1_555
C3E H1E 1_555 1_555
C4E C3E 1_555 1_555
H2E C4E 1_555 1_555
C5E C4E 1_555 1_555
C6E C5E 1_555 1_555
C7E C7D 1_555 1_555
H3E C7E 1_555 1_555
C8E N3D 1_555 1_555
C9E C9B 1_555 1_555
H4E C9E 1_555 1_555
C10E N4B 1_555 1_555
N1H N1E 1_555 1_555
N2H C1E 1_555 1_555
C3H C2E 1_555 1_555
H1H C3H 1_555 1_555
C4H C5E 1_555 1_555
H2H C4H 1_555 1_555
Mn1A O1A 1_555 1_555
N1A Mn1A 1_555 1_555
N2A N1A 1_555 1_555
N3A Mn2A 1_555 1_555
N4A Mn2A 1_555 1_555
Mn2A N4C 1_555 1_555
C1A N2A 1_555 1_555
C2A C1A 1_555 1_555
C3A C2A 1_555 1_555
H1A C3A 1_555 1_555
C4A C3A 1_555 1_555
H2A C4A 1_555 1_555
C5A C4A 1_555 1_555
C6A C5A 1_555 1_555
C7A H3A 1_555 1_555
C8A N3A 1_555 1_555
C9A H4A 1_555 1_555
C10A N4A 1_555 1_555
N1C N2C 1_555 1_555
N2C C1C 1_555 1_555
N4C C10C 1_555 1_555
C1C C2C 1_555 1_555
C2C C3C 1_555 1_555
C3C H1C 1_555 1_555
C4C C3C 1_555 1_555
H2C C4C 1_555 1_555
C5C C4C 1_555 1_555
C6C C5C 1_555 1_555
C7C C7A 1_555 1_555
H3C C7C 1_555 1_555
C8C N3A 1_555 1_555
C9C H4C 1_555 1_555
C10C C6C 1_555 1_555
N1F N2F 1_555 1_555
N2F C1F 1_555 1_555
N3F Mn2A 1_555 1_555
C1F C2F 1_555 1_555
C2F C3F 1_555 1_555
C3F H1F 1_555 1_555
C4F C3F 1_555 1_555
H2F C4F 1_555 1_555
C5F C4F 1_555 1_555
C6F C5F 1_555 1_555
C7F H3F 1_555 1_555
C8F N3F 1_555 1_555
C9F C9A 1_555 1_555
H4F C9F 1_555 1_555
C10F N4A 1_555 1_555
N1K N1F 1_555 1_555
N2K C1F 1_555 1_555
C3K C2F 1_555 1_555
H1K C3K 1_555 1_555
C4K C5F 1_555 1_555
H2K C4K 1_555 1_555
N1N Mn1 1_555 1_555
N2N C1C 1_555 1_555
C3N C2C 1_555 1_555
H1N C3N 1_555 1_555
C4N C5C 1_555 1_555
H2N C4N 1_555 1_555
N1O N1A 1_555 1_555
N2O C1A 1_555 1_555
C3O C2A 1_555 1_555
H1O C3O 1_555 1_555
C4O C5A 1_555 1_555
H2O C4O 1_555 1_555
N1G N2G 1_555 1_555
N2G C1G 1_555 1_555
C1G C2G 1_555 1_555
C2G C3G 1_555 1_555
C3G H1G 1_555 1_555
C4G C3G 1_555 1_555
H2G C4G 1_555 1_555
C5G C4G 1_555 1_555
C6G C5G 1_555 1_555
C7G C7F 1_555 1_555
H3G C7G 1_555 1_555
C8G N3F 1_555 1_555
C9G C9C 1_555 1_555
H4G C9G 1_555 1_555
C10G N4C 1_555 1_555
N1I N1G 1_555 1_555
N2I C1G 1_555 1_555
C3I C2G 1_555 1_555
H1I C3I 1_555 1_555
C4I C5G 1_555 1_555
H2I C4I 1_555 1_555
Mn1B Cl1 1_555 1_555
O1B Mn1B 1_555 1_555
Mn1C Cl1 1_555 1_555
O1C Mn1C 1_555 1_555
Mn1_2 N1J 1_555 1_555
Mn1A_2 N1K 1_555 1_555
Mn1A_3 N1D 1_555 1_555
Mn1A_4 Cl1 1_555 1_555
Mn1B_2 N1F 1_555 1_555
Mn1B_3 N1O 1_555 1_555
Mn1B_4 N1H 1_555 1_555
Mn1B_5 N1B 1_555 1_555
Mn1C_2 N1I 1_555 1_555
Mn1C_3 N1E 1_555 1_555
Mn1C_4 N1L 1_555 1_555
N1B_2 Mn1B 1_555 1_555
N1D_2 Mn1A 1_555 1_555
N1E_2 Mn1C 1_555 1_555
N1F_2 Mn1B 1_555 1_555
N1G_2 Mn1 1_555 1_555
N1H_2 Mn1B 1_555 1_555
N1I_2 Mn1C 1_555 1_555
N1J_2 Mn1 1_555 1_555
N1K_2 Mn1A 1_555 1_555
N1L_2 Mn1C 1_555 1_555
N1M_2 Mn1A 1_555 1_555
N1O_2 Mn1B 1_555 1_555
Cl1_2 Mn1A 1_555 1_555
C6 C8 1_555 1_555
C6 C10 1_555 1_555
C7 C8 1_555 1_555
C9 C10 1_555 1_555
C6B C8B 1_555 1_555
C7B C8B 1_555 1_555
C9B C10B 1_555 1_555
C6D C8D 1_555 1_555
C6D C10D 1_555 1_555
C7D C8D 1_555 1_555
C9D C10D 1_555 1_555
N1J N2J 1_555 1_555
C3J C4J 1_555 1_555
N1L N2L 1_555 1_555
C3L C4L 1_555 1_555
N1M N2M 1_555 1_555
N1M Mn1A_4 1_555 1_555
C3M C4M 1_555 1_555
C6E C8E 1_555 1_555
C6E C10E 1_555 1_555
C7E C8E 1_555 1_555
C9E C10E 1_555 1_555
N1H N2H 1_555 1_555
C3H C4H 1_555 1_555
C6A C8A 1_555 1_555
C6A C10A 1_555 1_555
C7A C8A 1_555 1_555
C9A C10A 1_555 1_555
N1C N1N 1_555 1_555
N1C Mn1C 1_555 1_555
C6C C8C 1_555 1_555
C7C C8C 1_555 1_555
C9C C10C 1_555 1_555
C6F C8F 1_555 1_555
C6F C10F 1_555 1_555
C7F C8F 1_555 1_555
C9F C10F 1_555 1_555
N1K N2K 1_555 1_555
C3K C4K 1_555 1_555
N1N N2N 1_555 1_555
C3N C4N 1_555 1_555
N1O N2O 1_555 1_555
C3O C4O 1_555 1_555
N1G Mn1_2 1_555 1_555
C6G C8G 1_555 1_555
C6G C10G 1_555 1_555
C7G C8G 1_555 1_555
C9G C10G 1_555 1_555
N1I N2I 1_555 1_555
C3I C4I 1_555 1_555
Mn1B_3 Cl1_2 1_555 1_555
N1B_2 N1L_2 1_555 1_555
N1E_2 N1H_2 1_555 1_555
N1G_2 N1I_2 1_555 1_555

#END
