
#######################################################################
#
#                 Cambridge Crystallographic Data Centre
#                                CCDC 
#
#######################################################################
#
# If this CIF has been generated from an entry in the Cambridge 
# Structural Database, then it will include bibliographic, chemical, 
# crystal, experimental, refinement or atomic coordinate data resulting 
# from the CCDC's data processing and validation procedures.
#
#######################################################################

data_UQOFEN
_chemical_formula_moiety         'C96 H48 Cd38 Cl5 N64 O20'
_symmetry_cell_setting           tetragonal
_symmetry_space_group_name_H-M   'P 4/m m m'
_symmetry_Int_Tables_number      123
_space_group_name_Hall           '-P 4 2'
loop_
_symmetry_equiv_pos_site_id
_symmetry_equiv_pos_as_xyz
1 x,y,z
2 -y,x,z
3 -x,-y,z
4 y,-x,z
5 x,-y,-z
6 -x,y,-z
7 y,x,-z
8 -y,-x,-z
9 -x,-y,-z
10 y,-x,-z
11 x,y,-z
12 -y,x,-z
13 -x,y,z
14 x,-y,z
15 -y,-x,z
16 y,x,z
_cell_length_a                   21.599(2)
_cell_length_b                   21.599(2)
_cell_length_c                   19.383(4)
_cell_angle_alpha                90
_cell_angle_beta                 90
_cell_angle_gamma                90
_cell_volume                     9042.5
loop_
_atom_site_label
_atom_site_type_symbol
_atom_site_fract_x
_atom_site_fract_y
_atom_site_fract_z
Cd1 Cd 0.09140(2) 0.09140(2) 0.0000
Cd2 Cd 0.5000 0.03761(10) 0.5000
N1 N 0.1800(2) 0.0520(2) 0.1305(2)
N2 N 0.14069(17) 0.03062(15) 0.08122(18)
N3 N 0.5000 0.0000 0.3914(4)
N4 N 0.4020(4) 0.0000 0.5000
C1 C 0.1997(2) 0.0000 0.1592(3)
C2 C 0.24816(19) 0.0000 0.2152(2)
C3 C 0.2703(3) 0.05576(8) 0.2411(3)
H1 H 0.2552 0.0930 0.2239
C4 C 0.3150(3) 0.05578(8) 0.2927(3)
H2 H 0.3298 0.0931 0.3101
C5 C 0.3375(3) 0.0000 0.3183(3)
C6 C 0.3872(3) 0.0000 0.3752(3)
C7 C 0.4496(3) 0.0000 0.3482(3)
C8 C 0.4687(3) 0.0000 0.2823(3)
H3 H 0.4434 0.0000 0.2436
C9 C 0.3624(3) 0.0000 0.4445(3)
C10 C 0.3032(3) -0.0000 0.4651(3)
H4 H 0.2685 0.0000 0.4367
O1 O 0.5000 0.1467(9) 0.5000
Cl1 Cl 0.0000 0.0000 0.0000
Cl2 Cl 0.16930(19) 0.16930(19) 0.0000
Cd3 Cd 0.1732(3) 0.1732(3) 0.1327(4)
O2 O 0.1682(10) 0.1682(10) 0.2473(7)
O3 O 0.2450(4) 0.2450(4) 0.1279(16)
N1B N 0.8200(2) -0.0520(2) 0.1305(2)
N2B N 0.85931(17) -0.03062(15) 0.08122(18)
N4B N 0.5980(4) 0.0000 0.5000
C1B C 0.8003(2) 0.0000 0.1592(3)
C2B C 0.75184(19) 0.0000 0.2152(2)
C3B C 0.7297(3) -0.05576(8) 0.2411(3)
H1B H 0.7448 -0.0930 0.2239
C4B C 0.6850(3) -0.05578(8) 0.2927(3)
H2B H 0.6702 -0.0931 0.3101
C5B C 0.6625(3) 0.0000 0.3183(3)
C6B C 0.6128(3) 0.0000 0.3752(3)
C7B C 0.5504(3) 0.0000 0.3482(3)
C8B C 0.5313(3) 0.0000 0.2823(3)
H3B H 0.5566 0.0000 0.2436
C9B C 0.6376(3) 0.0000 0.4445(3)
C10B C 0.6968(3) -0.0000 0.4651(3)
H4B H 0.7315 0.0000 0.4367
N1D N 0.1800(2) -0.0520(2) 0.8695(2)
N2D N 0.14069(17) -0.03062(15) 0.91878(18)
N3D N 0.5000 0.0000 0.6086(4)
C1D C 0.1997(2) 0.0000 0.8408(3)
C2D C 0.24816(19) 0.0000 0.7848(2)
C3D C 0.2703(3) -0.05576(8) 0.7589(3)
H1D H 0.2552 -0.0930 0.7761
C4D C 0.3150(3) -0.05578(8) 0.7073(3)
H2D H 0.3298 -0.0931 0.6899
C5D C 0.3375(3) 0.0000 0.6817(3)
C6D C 0.3872(3) 0.0000 0.6248(3)
C7D C 0.4496(3) 0.0000 0.6518(3)
C8D C 0.4687(3) 0.0000 0.7177(3)
H3D H 0.4434 0.0000 0.7564
C9D C 0.3624(3) 0.0000 0.5555(3)
C10D C 0.3032(3) 0.0000 0.5349(3)
H4D H 0.2685 0.0000 0.5633
N1J N 0.1800(2) 0.0520(2) 0.8695(2)
N2J N 0.14069(17) 0.03062(15) 0.91878(18)
C3J C 0.2703(3) 0.05576(8) 0.7589(3)
H1J H 0.2552 0.0930 0.7761
C4J C 0.3150(3) 0.05578(8) 0.7073(3)
H2J H 0.3298 0.0931 0.6899
N1L N 0.8200(2) 0.0520(2) 0.1305(2)
N2L N 0.85931(17) 0.03062(15) 0.08122(18)
C3L C 0.7297(3) 0.05576(8) 0.2411(3)
H1L H 0.7448 0.0930 0.2239
C4L C 0.6850(3) 0.05578(8) 0.2927(3)
H2L H 0.6702 0.0931 0.3101
N1M N 0.1800(2) -0.0520(2) 0.1305(2)
N2M N 0.14069(17) -0.03062(15) 0.08122(18)
C3M C 0.2703(3) -0.05576(8) 0.2411(3)
H1M H 0.2552 -0.0930 0.2239
C4M C 0.3150(3) -0.05578(8) 0.2927(3)
H2M H 0.3298 -0.0931 0.3101
N1E N 0.8200(2) 0.0520(2) 0.8695(2)
N2E N 0.85931(17) 0.03062(15) 0.91878(18)
C1E C 0.8003(2) 0.0000 0.8408(3)
C2E C 0.75184(19) 0.0000 0.7848(2)
C3E C 0.7297(3) 0.05576(8) 0.7589(3)
H1E H 0.7448 0.0930 0.7761
C4E C 0.6850(3) 0.05578(8) 0.7073(3)
H2E H 0.6702 0.0931 0.6899
C5E C 0.6625(3) 0.0000 0.6817(3)
C6E C 0.6128(3) 0.0000 0.6248(3)
C7E C 0.5504(3) 0.0000 0.6518(3)
C8E C 0.5313(3) 0.0000 0.7177(3)
H3E H 0.5566 0.0000 0.7564
C9E C 0.6376(3) 0.0000 0.5555(3)
C10E C 0.6968(3) 0.0000 0.5349(3)
H4E H 0.7315 0.0000 0.5633
N1H N 0.8200(2) -0.0520(2) 0.8695(2)
N2H N 0.85931(17) -0.03062(15) 0.91878(18)
C3H C 0.7297(3) -0.05576(8) 0.7589(3)
H1H H 0.7448 -0.0930 0.7761
C4H C 0.6850(3) -0.05578(8) 0.7073(3)
H2H H 0.6702 -0.0931 0.6899
Cd1A Cd -0.09140(2) 0.09140(2) 0.0000
N1A N -0.0520(2) 0.1800(2) 0.1305(2)
N2A N -0.03062(15) 0.14069(17) 0.08122(18)
N3A N 0.0000 0.5000 0.3914(4)
N4A N 0.0000 0.4020(4) 0.5000
C1A C 0.0000 0.1997(2) 0.1592(3)
C2A C 0.0000 0.24816(19) 0.2152(2)
C3A C -0.05576(8) 0.2703(3) 0.2411(3)
H1A H -0.0930 0.2552 0.2239
C4A C -0.05578(8) 0.3150(3) 0.2927(3)
H2A H -0.0931 0.3298 0.3101
C5A C 0.0000 0.3375(3) 0.3183(3)
C6A C 0.0000 0.3872(3) 0.3752(3)
C7A C 0.0000 0.4496(3) 0.3482(3)
C8A C -0.0000 0.4687(3) 0.2823(3)
H3A H -0.0000 0.4434 0.2436
C9A C 0.0000 0.3624(3) 0.4445(3)
C10A C -0.0000 0.3032(3) 0.4651(3)
H4A H 0.0000 0.2685 0.4367
Cl2A Cl -0.16930(19) 0.16930(19) 0.0000
Cd3A Cd -0.1732(3) 0.1732(3) 0.1327(4)
O2A O -0.1682(10) 0.1682(10) 0.2473(7)
O3A O -0.2450(4) 0.2450(4) 0.1279(16)
N1C N 0.0520(2) 0.8200(2) 0.1305(2)
N2C N 0.03062(15) 0.85931(17) 0.08122(18)
N4C N -0.0000 0.5980(4) 0.5000
C1C C 0.0000 0.8003(2) 0.1592(3)
C2C C 0.0000 0.75184(19) 0.2152(2)
C3C C 0.05576(8) 0.7297(3) 0.2411(3)
H1C H 0.0930 0.7448 0.2239
C4C C 0.05578(8) 0.6850(3) 0.2927(3)
H2C H 0.0931 0.6702 0.3101
C5C C 0.0000 0.6625(3) 0.3183(3)
C6C C -0.0000 0.6128(3) 0.3752(3)
C7C C 0.0000 0.5504(3) 0.3482(3)
C8C C 0.0000 0.5313(3) 0.2823(3)
H3C H 0.0000 0.5566 0.2436
C9C C 0.0000 0.6376(3) 0.4445(3)
C10C C -0.0000 0.6968(3) 0.4651(3)
H4C H 0.0000 0.7315 0.4367
N1F N 0.0520(2) 0.1800(2) 0.8695(2)
N2F N 0.03062(15) 0.14069(17) 0.91878(18)
N3F N -0.0000 0.5000 0.6086(4)
C1F C 0.0000 0.1997(2) 0.8408(3)
C2F C 0.0000 0.24816(19) 0.7848(2)
C3F C 0.05576(8) 0.2703(3) 0.7589(3)
H1F H 0.0930 0.2552 0.7761
C4F C 0.05578(8) 0.3150(3) 0.7073(3)
H2F H 0.0931 0.3298 0.6899
C5F C 0.0000 0.3375(3) 0.6817(3)
C6F C 0.0000 0.3872(3) 0.6248(3)
C7F C 0.0000 0.4496(3) 0.6518(3)
C8F C 0.0000 0.4687(3) 0.7177(3)
H3F H 0.0000 0.4434 0.7564
C9F C -0.0000 0.3624(3) 0.5555(3)
C10F C -0.0000 0.3032(3) 0.5349(3)
H4F H 0.0000 0.2685 0.5633
N1K N -0.0520(2) 0.1800(2) 0.8695(2)
N2K N -0.03062(15) 0.14069(17) 0.91878(18)
C3K C -0.05576(8) 0.2703(3) 0.7589(3)
H1K H -0.0930 0.2552 0.7761
C4K C -0.05578(8) 0.3150(3) 0.7073(3)
H2K H -0.0931 0.3298 0.6899
N1N N -0.0520(2) 0.8200(2) 0.1305(2)
N2N N -0.03062(15) 0.85931(17) 0.08122(18)
C3N C -0.05576(8) 0.7297(3) 0.2411(3)
H1N H -0.0930 0.7448 0.2239
C4N C -0.05578(8) 0.6850(3) 0.2927(3)
H2N H -0.0931 0.6702 0.3101
N1O N 0.0520(2) 0.1800(2) 0.1305(2)
N2O N 0.03062(15) 0.14069(17) 0.08122(18)
C3O C 0.05576(8) 0.2703(3) 0.2411(3)
H1O H 0.0930 0.2552 0.2239
C4O C 0.05578(8) 0.3150(3) 0.2927(3)
H2O H 0.0931 0.3298 0.3101
N1G N -0.0520(2) 0.8200(2) 0.8695(2)
N2G N -0.03062(15) 0.85931(17) 0.91878(18)
C1G C 0.0000 0.8003(2) 0.8408(3)
C2G C 0.0000 0.75184(19) 0.7848(2)
C3G C -0.05576(8) 0.7297(3) 0.7589(3)
H1G H -0.0930 0.7448 0.7761
C4G C -0.05578(8) 0.6850(3) 0.7073(3)
H2G H -0.0931 0.6702 0.6899
C5G C 0.0000 0.6625(3) 0.6817(3)
C6G C 0.0000 0.6128(3) 0.6248(3)
C7G C 0.0000 0.5504(3) 0.6518(3)
C8G C 0.0000 0.5313(3) 0.7177(3)
H3G H 0.0000 0.5566 0.7564
C9G C 0.0000 0.6376(3) 0.5555(3)
C10G C 0.0000 0.6968(3) 0.5349(3)
H4G H 0.0000 0.7315 0.5633
N1I N 0.0520(2) 0.8200(2) 0.8695(2)
N2I N 0.03062(15) 0.85931(17) 0.91878(18)
C3I C 0.05576(8) 0.7297(3) 0.7589(3)
H1I H 0.0930 0.7448 0.7761
C4I C 0.05578(8) 0.6850(3) 0.7073(3)
H2I H 0.0931 0.6702 0.6899
Cd1B Cd -0.09140(2) -0.09140(2) 0.0000
Cl2B Cl -0.16930(19) -0.16930(19) 0.0000
Cd3B Cd -0.1732(3) -0.1732(3) 0.1327(4)
O2B O -0.1682(10) -0.1682(10) 0.2473(7)
O3B O -0.2450(4) -0.2450(4) 0.1279(16)
Cd1C Cd 0.09140(2) -0.09140(2) 0.0000
Cl2C Cl 0.16930(19) -0.16930(19) 0.0000
Cd3C Cd 0.1732(3) -0.1732(3) 0.1327(4)
O2C O 0.1682(10) -0.1682(10) 0.2473(7)
O3C O 0.2450(4) -0.2450(4) 0.1279(16)
Cd3D Cd 0.1732(3) -0.1732(3) -0.1327(4)
O2D O 0.1682(10) -0.1682(10) -0.2473(7)
O3D O 0.2450(4) -0.2450(4) -0.1279(16)
Cd3E Cd -0.1732(3) 0.1732(3) -0.1327(4)
O2E O -0.1682(10) 0.1682(10) -0.2473(7)
O3E O -0.2450(4) 0.2450(4) -0.1279(16)
Cd3F Cd 0.1732(3) 0.1732(3) -0.1327(4)
O2F O 0.1682(10) 0.1682(10) -0.2473(7)
O3F O 0.2450(4) 0.2450(4) -0.1279(16)
Cd3G Cd -0.1732(3) -0.1732(3) -0.1327(4)
O2G O -0.1682(10) -0.1682(10) -0.2473(7)
O3G O -0.2450(4) -0.2450(4) -0.1279(16)
Cd2B Cd 0.5000 -0.03761(10) 0.5000
O1B O 0.5000 -0.1467(9) 0.5000
Cd2C Cd 0.03761(10) 0.5000 0.5000
O1C O 0.1467(9) 0.5000 0.5000
Cd2A Cd -0.03761(10) 0.5000 0.5000
O1A O -0.1467(9) 0.5000 0.5000
Cd1_2 Cd 0.09140(2) 0.09140(2) 1.0000
Cd1A_2 Cd -0.09140(2) 0.09140(2) 1.0000
Cd1A_3 Cd 0.90860(2) 0.09140(2) 0.0000
Cd1A_4 Cd 0.90860(2) 0.09140(2) 1.0000
Cd1B_2 Cd -0.09140(2) 0.90860(2) 0.0000
Cd1B_3 Cd -0.09140(2) 0.90860(2) 1.0000
Cd1B_4 Cd 0.90860(2) -0.09140(2) 0.0000
Cd1B_5 Cd 0.90860(2) -0.09140(2) 1.0000
Cd1C_2 Cd 0.09140(2) -0.09140(2) 1.0000
Cd1C_3 Cd 0.09140(2) 0.90860(2) 0.0000
Cd1C_4 Cd 0.09140(2) 0.90860(2) 1.0000
N1B_2 N -0.1800(2) -0.0520(2) 0.1305(2)
N1C_2 N 0.0520(2) -0.1800(2) 0.1305(2)
N1D_2 N 0.1800(2) -0.0520(2) -0.1305(2)
N1E_2 N -0.1800(2) 0.0520(2) -0.1305(2)
N1F_2 N 0.0520(2) 0.1800(2) -0.1305(2)
N1G_2 N -0.0520(2) -0.1800(2) -0.1305(2)
N1H_2 N -0.1800(2) -0.0520(2) -0.1305(2)
N1I_2 N 0.0520(2) -0.1800(2) -0.1305(2)
N1J_2 N 0.1800(2) 0.0520(2) -0.1305(2)
N1K_2 N -0.0520(2) 0.1800(2) -0.1305(2)
N1L_2 N -0.1800(2) 0.0520(2) 0.1305(2)
N1N_2 N -0.0520(2) -0.1800(2) 0.1305(2)
N2B_2 N -0.14069(17) -0.03062(15) 0.08122(18)
N2C_2 N 0.03062(15) -0.14069(17) 0.08122(18)
N2D_2 N 0.14069(17) -0.03062(15) -0.08122(18)
N2E_2 N -0.14069(17) 0.03062(15) -0.08122(18)
N2F_2 N 0.03062(15) 0.14069(17) -0.08122(18)
N2G_2 N -0.03062(15) -0.14069(17) -0.08122(18)
N2H_2 N -0.14069(17) -0.03062(15) -0.08122(18)
N2I_2 N 0.03062(15) -0.14069(17) -0.08122(18)
N2J_2 N 0.14069(17) 0.03062(15) -0.08122(18)
N2K_2 N -0.03062(15) 0.14069(17) -0.08122(18)
N2L_2 N -0.14069(17) 0.03062(15) 0.08122(18)
N2N_2 N -0.03062(15) -0.14069(17) 0.08122(18)
Cd3A_2 Cd 0.8268(3) 0.1732(3) 0.1327(4)
Cd3B_2 Cd -0.1732(3) 0.8268(3) 0.1327(4)
Cd3B_3 Cd 0.8268(3) -0.1732(3) 0.1327(4)
Cd3C_2 Cd 0.1732(3) 0.8268(3) 0.1327(4)
Cd3D_2 Cd 0.1732(3) -0.1732(3) 0.8673(4)
Cd3D_3 Cd 0.1732(3) 0.8268(3) 0.8673(4)
Cd3E_2 Cd -0.1732(3) 0.1732(3) 0.8673(4)
Cd3E_3 Cd 0.8268(3) 0.1732(3) 0.8673(4)
Cd3F_2 Cd 0.1732(3) 0.1732(3) 0.8673(4)
Cd3G_2 Cd -0.1732(3) 0.8268(3) 0.8673(4)
Cd3G_3 Cd 0.8268(3) -0.1732(3) 0.8673(4)
loop_
_geom_bond_atom_site_label_1
_geom_bond_atom_site_label_2
_geom_bond_site_symmetry_1
_geom_bond_site_symmetry_2
Cd1 N2 1_555 1_555
Cd2 N3 1_555 1_555
N1 N2 1_555 1_555
N2 N2M 1_555 1_555
N3 C7 1_555 1_555
N4 Cd2 1_555 1_555
C1 N1 1_555 1_555
C2 C1 1_555 1_555
C3 C2 1_555 1_555
H1 C3 1_555 1_555
C4 C3 1_555 1_555
H2 C4 1_555 1_555
C5 C4 1_555 1_555
C6 C5 1_555 1_555
C7 C6 1_555 1_555
C8 C7 1_555 1_555
H3 C8 1_555 1_555
C9 N4 1_555 1_555
C10 C9 1_555 1_555
H4 C10 1_555 1_555
O1 Cd2 1_555 1_555
Cl1 Cd1 1_555 1_555
Cl2 Cd1 1_555 1_555
Cd3 N1 1_555 1_555
O2 Cd3 1_555 1_555
O3 Cd3 1_555 1_555
N1B N2B 1_555 1_555
N2B N2L 1_555 1_555
N4B Cd2 1_555 1_555
C1B N1B 1_555 1_555
C2B C1B 1_555 1_555
C3B C2B 1_555 1_555
H1B C3B 1_555 1_555
C4B C3B 1_555 1_555
H2B C4B 1_555 1_555
C5B C4B 1_555 1_555
C6B C5B 1_555 1_555
C7B N3 1_555 1_555
C8B C8 1_555 1_555
H3B C8B 1_555 1_555
C9B N4B 1_555 1_555
C10B C9B 1_555 1_555
H4B C10B 1_555 1_555
N1D N2D 1_555 1_555
N2D N2J 1_555 1_555
N3D Cd2 1_555 1_555
C1D N1D 1_555 1_555
C2D C1D 1_555 1_555
C3D C2D 1_555 1_555
H1D C3D 1_555 1_555
C4D C3D 1_555 1_555
H2D C4D 1_555 1_555
C5D C4D 1_555 1_555
C6D C5D 1_555 1_555
C7D N3D 1_555 1_555
C8D C7D 1_555 1_555
H3D C8D 1_555 1_555
C9D N4 1_555 1_555
C10D C10 1_555 1_555
H4D C10D 1_555 1_555
N1J C1D 1_555 1_555
N2J N1J 1_555 1_555
C3J C2D 1_555 1_555
H1J C3J 1_555 1_555
C4J C5D 1_555 1_555
H2J C4J 1_555 1_555
N1L C1B 1_555 1_555
N2L N1L 1_555 1_555
C3L C2B 1_555 1_555
H1L C3L 1_555 1_555
C4L C5B 1_555 1_555
H2L C4L 1_555 1_555
N1M C1 1_555 1_555
N2M N1M 1_555 1_555
C3M C2 1_555 1_555
H1M C3M 1_555 1_555
C4M C5 1_555 1_555
H2M C4M 1_555 1_555
N1E N2E 1_555 1_555
N2E N2H 1_555 1_555
C1E N1E 1_555 1_555
C2E C1E 1_555 1_555
C3E C2E 1_555 1_555
H1E C3E 1_555 1_555
C4E C3E 1_555 1_555
H2E C4E 1_555 1_555
C5E C4E 1_555 1_555
C6E C5E 1_555 1_555
C7E N3D 1_555 1_555
C8E C8D 1_555 1_555
H3E C8E 1_555 1_555
C9E N4B 1_555 1_555
C10E C10B 1_555 1_555
H4E C10E 1_555 1_555
N1H C1E 1_555 1_555
N2H N1H 1_555 1_555
C3H C2E 1_555 1_555
H1H C3H 1_555 1_555
C4H C5E 1_555 1_555
H2H C4H 1_555 1_555
Cd1A Cl1 1_555 1_555
N1A N2A 1_555 1_555
N2A Cd1A 1_555 1_555
N3A C7A 1_555 1_555
N4A C9A 1_555 1_555
C1A N1A 1_555 1_555
C2A C1A 1_555 1_555
C3A C2A 1_555 1_555
H1A C3A 1_555 1_555
C4A C3A 1_555 1_555
H2A C4A 1_555 1_555
C5A C4A 1_555 1_555
C6A C5A 1_555 1_555
C7A C6A 1_555 1_555
C8A C7A 1_555 1_555
H3A C8A 1_555 1_555
C9A C6A 1_555 1_555
C10A C9A 1_555 1_555
H4A C10A 1_555 1_555
Cl2A Cd1A 1_555 1_555
Cd3A N1A 1_555 1_555
O2A Cd3A 1_555 1_555
O3A Cd3A 1_555 1_555
N1C N2C 1_555 1_555
N2C N2N 1_555 1_555
N4C C9C 1_555 1_555
C1C N1C 1_555 1_555
C2C C1C 1_555 1_555
C3C C2C 1_555 1_555
H1C C3C 1_555 1_555
C4C C3C 1_555 1_555
H2C C4C 1_555 1_555
C5C C4C 1_555 1_555
C6C C5C 1_555 1_555
C7C N3A 1_555 1_555
C8C C8A 1_555 1_555
H3C C8C 1_555 1_555
C9C C6C 1_555 1_555
C10C C9C 1_555 1_555
H4C C10C 1_555 1_555
N1F N2F 1_555 1_555
N2F N2K 1_555 1_555
N3F C7F 1_555 1_555
C1F N1F 1_555 1_555
C2F C1F 1_555 1_555
C3F C2F 1_555 1_555
H1F C3F 1_555 1_555
C4F C3F 1_555 1_555
H2F C4F 1_555 1_555
C5F C4F 1_555 1_555
C6F C5F 1_555 1_555
C7F C6F 1_555 1_555
C8F C7F 1_555 1_555
H3F C8F 1_555 1_555
C9F N4A 1_555 1_555
C10F C10A 1_555 1_555
H4F C10F 1_555 1_555
N1K C1F 1_555 1_555
N2K N1K 1_555 1_555
C3K C2F 1_555 1_555
H1K C3K 1_555 1_555
C4K C5F 1_555 1_555
H2K C4K 1_555 1_555
N1N C1C 1_555 1_555
N2N N1N 1_555 1_555
C3N C2C 1_555 1_555
H1N C3N 1_555 1_555
C4N C5C 1_555 1_555
H2N C4N 1_555 1_555
N1O Cd3 1_555 1_555
N2O Cd1 1_555 1_555
C3O C2A 1_555 1_555
H1O C3O 1_555 1_555
C4O C5A 1_555 1_555
H2O C4O 1_555 1_555
N1G N2G 1_555 1_555
N2G N2I 1_555 1_555
C1G N1G 1_555 1_555
C2G C1G 1_555 1_555
C3G C2G 1_555 1_555
H1G C3G 1_555 1_555
C4G C3G 1_555 1_555
H2G C4G 1_555 1_555
C5G C4G 1_555 1_555
C6G C5G 1_555 1_555
C7G N3F 1_555 1_555
C8G C8F 1_555 1_555
H3G C8G 1_555 1_555
C9G N4C 1_555 1_555
C10G C10C 1_555 1_555
H4G C10G 1_555 1_555
N1I C1G 1_555 1_555
N2I N1I 1_555 1_555
C3I C2G 1_555 1_555
H1I C3I 1_555 1_555
C4I C5G 1_555 1_555
H2I C4I 1_555 1_555
Cd1B Cl1 1_555 1_555
Cl2B Cd1B 1_555 1_555
Cd3B Cl2B 1_555 1_555
O2B Cd3B 1_555 1_555
O3B Cd3B 1_555 1_555
Cd1C Cl1 1_555 1_555
Cl2C Cd1C 1_555 1_555
Cd3C N1M 1_555 1_555
O2C Cd3C 1_555 1_555
O3C Cd3C 1_555 1_555
Cd3D Cl2C 1_555 1_555
O2D Cd3D 1_555 1_555
O3D Cd3D 1_555 1_555
Cd3E Cl2A 1_555 1_555
O2E Cd3E 1_555 1_555
O3E Cd3E 1_555 1_555
Cd3F Cl2 1_555 1_555
O2F Cd3F 1_555 1_555
O3F Cd3F 1_555 1_555
Cd3G Cl2B 1_555 1_555
O2G Cd3G 1_555 1_555
O3G Cd3G 1_555 1_555
Cd2B Cd2 1_555 1_555
O1B Cd2B 1_555 1_555
Cd2C N3A 1_555 1_555
O1C Cd2C 1_555 1_555
Cd2A N3A 1_555 1_555
O1A Cd2A 1_555 1_555
Cd1_2 N2J 1_555 1_555
Cd1A_2 N2K 1_555 1_555
Cd1A_3 N2L 1_555 1_555
Cd1A_4 N2E 1_555 1_555
Cd1B_2 N2N 1_555 1_555
Cd1B_3 N2G 1_555 1_555
Cd1B_4 N2B 1_555 1_555
Cd1B_5 N2H 1_555 1_555
Cd1C_2 N2D 1_555 1_555
Cd1C_3 N2C 1_555 1_555
Cd1C_4 N2I 1_555 1_555
N1B_2 Cd3B 1_555 1_555
N1C_2 Cd3C 1_555 1_555
N1D_2 Cd3D 1_555 1_555
N1E_2 Cd3E 1_555 1_555
N1F_2 Cd3F 1_555 1_555
N1G_2 Cd3G 1_555 1_555
N1H_2 Cd3G 1_555 1_555
N1I_2 Cd3D 1_555 1_555
N1J_2 Cd3F 1_555 1_555
N1K_2 Cd3E 1_555 1_555
N1L_2 Cd3A 1_555 1_555
N1N_2 Cd3B 1_555 1_555
N2B_2 Cd1B 1_555 1_555
N2C_2 Cd1C 1_555 1_555
N2D_2 Cd1C 1_555 1_555
N2E_2 Cd1A 1_555 1_555
N2F_2 Cd1 1_555 1_555
N2G_2 Cd1B 1_555 1_555
N2H_2 Cd1B 1_555 1_555
N2I_2 Cd1C 1_555 1_555
N2J_2 Cd1 1_555 1_555
N2K_2 Cd1A 1_555 1_555
N2L_2 Cd1A 1_555 1_555
N2N_2 Cd1B 1_555 1_555
Cd3A_2 N1L 1_555 1_555
Cd3B_2 N1N 1_555 1_555
Cd3B_3 N1B 1_555 1_555
Cd3C_2 N1C 1_555 1_555
Cd3D_2 N1D 1_555 1_555
Cd3D_3 N1I 1_555 1_555
Cd3E_2 N1K 1_555 1_555
Cd3E_3 N1E 1_555 1_555
Cd3F_2 N1J 1_555 1_555
Cd3G_2 N1G 1_555 1_555
Cd3G_3 N1H 1_555 1_555
N3 Cd2B 1_555 1_555
N4 Cd2B 1_555 1_555
C6 C9 1_555 1_555
Cl2 Cd3 1_555 1_555
N4B Cd2B 1_555 1_555
C6B C7B 1_555 1_555
C6B C9B 1_555 1_555
C7B C8B 1_555 1_555
N3D Cd2B 1_555 1_555
C6D C7D 1_555 1_555
C6D C9D 1_555 1_555
C9D C10D 1_555 1_555
C3J C4J 1_555 1_555
C3L C4L 1_555 1_555
N2M Cd1C 1_555 1_555
C3M C4M 1_555 1_555
C6E C7E 1_555 1_555
C6E C9E 1_555 1_555
C7E C8E 1_555 1_555
C9E C10E 1_555 1_555
C3H C4H 1_555 1_555
N2A N2O 1_555 1_555
N4A Cd2C 1_555 1_555
N4A Cd2A 1_555 1_555
C1A N1O 1_555 1_555
Cl2A Cd3A 1_555 1_555
N4C Cd2C 1_555 1_555
N4C Cd2A 1_555 1_555
C6C C7C 1_555 1_555
C7C C8C 1_555 1_555
N1F Cd3F_2 1_555 1_555
N2F Cd1_2 1_555 1_555
N3F Cd2C 1_555 1_555
N3F Cd2A 1_555 1_555
C6F C9F 1_555 1_555
C9F C10F 1_555 1_555
C3K C4K 1_555 1_555
C3N C4N 1_555 1_555
N1O N2O 1_555 1_555
C3O C4O 1_555 1_555
C6G C7G 1_555 1_555
C6G C9G 1_555 1_555
C7G C8G 1_555 1_555
C9G C10G 1_555 1_555
C3I C4I 1_555 1_555
Cl2C Cd3C 1_555 1_555
Cd2C Cd2A 1_555 1_555
N1B_2 N2B_2 1_555 1_555
N1C_2 N2C_2 1_555 1_555
N1D_2 N2D_2 1_555 1_555
N1E_2 N2E_2 1_555 1_555
N1F_2 N2F_2 1_555 1_555
N1G_2 N2G_2 1_555 1_555
N1H_2 N2H_2 1_555 1_555
N1I_2 N2I_2 1_555 1_555
N1J_2 N2J_2 1_555 1_555
N1K_2 N2K_2 1_555 1_555
N1L_2 N2L_2 1_555 1_555
N1N_2 N2N_2 1_555 1_555
N2B_2 N2L_2 1_555 1_555
N2C_2 N2N_2 1_555 1_555
N2D_2 N2J_2 1_555 1_555
N2E_2 N2H_2 1_555 1_555
N2F_2 N2K_2 1_555 1_555
N2G_2 N2I_2 1_555 1_555

#END
