
#######################################################################
#
#                 Cambridge Crystallographic Data Centre
#                                CCDC 
#
#######################################################################
#
# If this CIF has been generated from an entry in the Cambridge 
# Structural Database, then it will include bibliographic, chemical, 
# crystal, experimental, refinement or atomic coordinate data resulting 
# from the CCDC's data processing and validation procedures.
#
#######################################################################

data_REGJIW02
_chemical_formula_moiety         '(C8 H10 Co3 O14)n'
_symmetry_cell_setting           monoclinic
_symmetry_space_group_name_H-M   'C 2/m'
_symmetry_Int_Tables_number      12
_space_group_name_Hall           '-C 2y'
loop_
_symmetry_equiv_pos_site_id
_symmetry_equiv_pos_as_xyz
1 x,y,z
2 -x,y,-z
3 1/2+x,1/2+y,z
4 1/2-x,1/2+y,-z
5 -x,-y,-z
6 x,-y,z
7 1/2-x,1/2-y,-z
8 1/2+x,1/2-y,z
_cell_length_a                   9.2711(4)
_cell_length_b                   12.8719(6)
_cell_length_c                   5.4940(2)
_cell_angle_alpha                90
_cell_angle_beta                 90.685(2)
_cell_angle_gamma                90
_cell_volume                     655.589
loop_
_atom_site_label
_atom_site_type_symbol
_atom_site_fract_x
_atom_site_fract_y
_atom_site_fract_z
O2 O 1.0745(10) 0.5000 0.5790(17)
H3 H 1.009(8) 0.540(6) 0.627(17)
O2A O 0.9255(10) 0.5000 0.4210(17)
H3A H 0.991(8) 0.540(6) 0.373(17)
H3D H 0.991(8) 0.460(6) 0.373(17)
H3E H 1.009(8) 0.460(6) 0.627(17)
Co1 Co 0.5000 0.5000 0.5000
Co2 Co 0.5000 0.38011(4) 1.0000
O3 O 0.6030(3) 0.5000 0.8256(5)
H4 H 0.6920(11) 0.5000 0.856(9)
O4 O 0.3685(2) 0.38851(15) 0.6710(4)
O5 O 0.3810(2) 0.26286(15) 0.1499(3)
C1 C 0.3038(3) 0.3123(2) 0.5754(4)
C2 C 0.3098(3) 0.2576(2) 0.3416(4)
Co1B Co -0.0000 0.0000 0.5000
Co1B_2 Co 1.0000 0.0000 0.5000
Co2_2 Co 0.5000 0.38011(4) 0.0000
Co2D Co 0.5000 0.61989(4) 1.0000
Co2F Co -0.0000 0.11989(4) 0.0000
Co2F_2 Co 0.0000 0.11989(4) 1.0000
Co2D_2 Co 0.5000 0.61989(4) 0.0000
Co2F_3 Co 1.0000 0.11989(4) 1.0000
Co2F_4 Co 1.0000 0.11989(4) 0.0000
O3A O 0.3970(3) 0.5000 0.1744(5)
O3A_2 O 0.3970(3) 0.5000 1.1744(5)
O3_2 O 0.6030(3) 0.5000 -0.1744(5)
H4A H 0.3080(11) 0.5000 0.144(9)
H4A_2 H 0.3080(11) 0.5000 1.144(9)
H4_2 H 0.6920(11) 0.5000 -0.144(9)
O4F O 0.1315(2) 0.11149(15) 0.3290(4)
O4A O 0.6315(2) 0.38851(15) 0.3290(4)
O4G O 0.8685(2) 0.11149(15) 0.6710(4)
O4D O 0.6315(2) 0.61149(15) 0.3290(4)
O4E O 0.3685(2) 0.61149(15) 0.6710(4)
O4A_2 O 0.6315(2) 0.38851(15) 1.3290(4)
O4_2 O 0.3685(2) 0.38851(15) -0.3290(4)
O5F O 0.1190(2) 0.23714(15) 0.8501(3)
O5A O 0.6190(2) 0.26286(15) 0.8501(3)
O5G O 0.8810(2) 0.23714(15) 0.1499(3)
O5_2 O 0.3810(2) 0.26286(15) 1.1499(3)
O5A_2 O 0.6190(2) 0.26286(15) -0.1499(3)
C1F C 0.1962(3) 0.1877(2) 0.4246(4)
C1A C 0.6962(3) 0.3123(2) 0.4246(4)
C1G C 0.8038(3) 0.1877(2) 0.5754(4)
C2F C 0.1902(3) 0.2424(2) 0.6584(4)
C2A C 0.6902(3) 0.2576(2) 0.6584(4)
C2G C 0.8098(3) 0.2424(2) 0.3416(4)
O1 O 0.8919(6) 0.5614(4) 0.9019(12)
H1 H 0.934(11) 0.561(7) 0.767(10)
H2 H 0.907(11) 0.618(4) 0.972(15)
O1E O 0.8919(6) 0.4386(4) 0.9019(12)
H1E H 0.934(11) 0.439(7) 0.767(10)
H2E H 0.907(11) 0.382(4) 0.972(15)
loop_
_geom_bond_atom_site_label_1
_geom_bond_atom_site_label_2
_geom_bond_site_symmetry_1
_geom_bond_site_symmetry_2
O1 H1 1_555 1_555
H2 O1 1_555 1_555
O2 H3 1_555 1_555
Co1 O3 1_555 1_555
Co2 O3 1_555 1_555
O3 H4 1_555 1_555
O4 Co1 1_555 1_555
O5 C2 1_555 1_555
C1 O4 1_555 1_555
C2 C1 1_555 1_555
O1E O1 1_555 1_555
H1E O1E 1_555 1_555
H2E O1E 1_555 1_555
O2A O2 1_555 1_555
H3A O2A 1_555 1_555
H3D O2A 1_555 1_555
H3E O2 1_555 1_555
Co1B O4F 1_555 1_555
Co1B_2 O4G 1_555 1_555
Co2_2 O5 1_555 1_555
Co2D O3 1_555 1_555
Co2F O4F 1_555 1_555
Co2F_2 O5F 1_555 1_555
Co2D_2 O3A 1_555 1_555
Co2F_3 O4G 1_555 1_555
Co2F_4 O5G 1_555 1_555
O3A Co1 1_555 1_555
O3A_2 Co2 1_555 1_555
O3_2 Co2_2 1_555 1_555
H4A O3A 1_555 1_555
H4A_2 O3A_2 1_555 1_555
H4_2 O3_2 1_555 1_555
O4F C1F 1_555 1_555
O4A Co1 1_555 1_555
O4G C1G 1_555 1_555
O4D Co1 1_555 1_555
O4E Co1 1_555 1_555
O4A_2 Co2 1_555 1_555
O4_2 Co2_2 1_555 1_555
O5F C2F 1_555 1_555
O5A Co2 1_555 1_555
O5G C2G 1_555 1_555
O5_2 Co2 1_555 1_555
O5A_2 Co2_2 1_555 1_555
C1F C2 1_555 1_555
C1A O4A 1_555 1_555
C1G C2A 1_555 1_555
C2F C1 1_555 1_555
C2A O5A 1_555 1_555
C2G C1A 1_555 1_555
Co2 O4 1_555 1_555
Co2_2 O3A 1_555 1_555
Co2_2 O4A 1_555 1_555
Co2D O3A_2 1_555 1_555
Co2D O4E 1_555 1_555
Co2D_2 O3_2 1_555 1_555
Co2D_2 O4D 1_555 1_555
C1F C2F 1_555 1_555
C1A C2A 1_555 1_555
C1G C2G 1_555 1_555

#END
