
#######################################################################
#
#                 Cambridge Crystallographic Data Centre
#                                CCDC 
#
#######################################################################
#
# If this CIF has been generated from an entry in the Cambridge 
# Structural Database, then it will include bibliographic, chemical, 
# crystal, experimental, refinement or atomic coordinate data resulting 
# from the CCDC's data processing and validation procedures.
#
#######################################################################

data_FIVYEP01
_chemical_formula_moiety         '(C14 H14 K2 Mg2 O35 U2)n'
_symmetry_cell_setting           monoclinic
_symmetry_space_group_name_H-M   'C 2/m'
_symmetry_Int_Tables_number      12
_space_group_name_Hall           '-C 2y'
loop_
_symmetry_equiv_pos_site_id
_symmetry_equiv_pos_as_xyz
1 x,y,z
2 1/2+x,1/2+y,z
3 -x,y,-z
4 1/2-x,1/2+y,-z
5 -x,-y,-z
6 1/2-x,1/2-y,-z
7 x,-y,z
8 1/2+x,1/2-y,z
_cell_length_a                   20.437(3)
_cell_length_b                   12.841(4)
_cell_length_c                   14.614(4)
_cell_angle_alpha                90
_cell_angle_beta                 94.52(3)
_cell_angle_gamma                90
_cell_volume                     3823.25
loop_
_atom_site_label
_atom_site_type_symbol
_atom_site_fract_x
_atom_site_fract_y
_atom_site_fract_z
U1 U 0.805291(7) 0.248908(11) 0.210959(10)
K1 K 0.78768(10) 0.0000 0.43504(12)
K2 K 0.93868(8) 0.0000 0.59104(13)
O1 O 0.92275(19) 0.2240(4) 0.2104(3)
O2 O 0.85250(19) 0.1387(4) 0.3300(3)
O3 O 0.9410(3) 0.1165(7) 0.4288(4)
O4 O 1.0148(2) 0.1617(5) 0.2826(4)
O5 O 0.78725(19) 0.2252(3) 0.7002(3)
O6 O 0.6712(2) 0.1544(4) 0.6521(3)
O7 O 0.8300(2) 0.1332(4) 0.5892(3)
O8 O 0.6988(2) 0.1256(5) 0.5088(3)
O9 O 0.8320(2) 0.0870(3) 0.1247(3)
O10 O 0.73892(19) 0.0868(3) 0.2412(3)
O11 O 0.87348(18) 0.4126(3) 0.1901(3)
O12 O 0.74329(18) 0.4132(3) 0.1695(3)
O13 O 0.71009(19) 0.2204(3) 0.0979(2)
C1 C 0.9552(3) 0.1779(5) 0.2761(4)
C2 C 0.9141(3) 0.1403(5) 0.3525(4)
C3 C 0.7120(3) 0.1473(4) 0.5905(4)
C4 C 0.7834(2) 0.1690(4) 0.6283(3)
C5 C 0.8120(3) 0.0000 0.1488(5)
C6 C 0.7580(3) 0.0000 0.2157(5)
C7 C 0.8458(3) 0.5000 0.1863(5)
C8 C 0.7708(3) 0.5000 0.1740(5)
C9 C 0.7160(2) 0.2319(4) 0.0139(3)
O18 O 0.67262(18) 0.2165(3) -0.0497(2)
Mg1 Mg 0.92186(13) 0.2910(3) 0.5667(2)
O20 O 1.0389(4) 0.3923(7) 0.6019(10)
H1 H 1.0322 0.4652 0.5929
U1F U 0.805291(7) -0.248908(11) 0.210959(10)
U1E U 0.694709(7) 0.251092(11) 0.789041(10)
U1E_2 U 0.694709(7) 0.251092(11) -0.210959(10)
U1F_2 U 0.805291(7) 0.751092(11) 0.210959(10)
U1C U 0.694709(7) -0.251092(11) 0.789041(10)
K2D K 1.06132(8) 0.0000 0.40896(13)
O1F O 0.92275(19) -0.2240(4) 0.2104(3)
O2F O 0.85250(19) -0.1387(4) 0.3300(3)
O3F O 0.9410(3) -0.1165(7) 0.4288(4)
O3D O 1.0590(3) -0.1165(7) 0.5712(4)
O3B O 1.0590(3) 0.1165(7) 0.5712(4)
O4F O 1.0148(2) -0.1617(5) 0.2826(4)
O4D O 0.9852(2) -0.1617(5) 0.7174(4)
O4B O 0.9852(2) 0.1617(5) 0.7174(4)
O5F O 0.78725(19) -0.2252(3) 0.7002(3)
O5E O 0.71275(19) 0.2748(3) 0.2998(3)
O5C O 0.71275(19) -0.2748(3) 0.2998(3)
O6F O 0.6712(2) -0.1544(4) 0.6521(3)
O6E O 0.8288(2) 0.3456(4) 0.3479(3)
O6C O 0.8288(2) -0.3456(4) 0.3479(3)
O7F O 0.8300(2) -0.1332(4) 0.5892(3)
O8F O 0.6988(2) -0.1256(5) 0.5088(3)
O9F O 0.8320(2) -0.0870(3) 0.1247(3)
O10F O 0.73892(19) -0.0868(3) 0.2412(3)
O11F O 0.87348(18) 0.5874(3) 0.1901(3)
O11F_2 O 0.87348(18) -0.4126(3) 0.1901(3)
O12F O 0.74329(18) 0.5868(3) 0.1695(3)
O12F_2 O 0.74329(18) -0.4132(3) 0.1695(3)
O13E O 0.78991(19) 0.2796(3) -0.0979(2)
O13F O 0.71009(19) -0.2204(3) 0.0979(2)
C1F C 0.9552(3) -0.1779(5) 0.2761(4)
C2F C 0.9141(3) -0.1403(5) 0.3525(4)
C3F C 0.7120(3) -0.1473(4) 0.5905(4)
C4F C 0.7834(2) -0.1690(4) 0.6283(3)
C9E C 0.7840(2) 0.2681(4) -0.0139(3)
O18E O 0.82738(18) 0.2835(3) 0.0497(2)
O18C O 0.82738(18) -0.2835(3) 0.0497(2)
Mg1F Mg 0.92186(13) -0.2910(3) 0.5667(2)
O20F O 1.0389(4) -0.3923(7) 0.6019(10)
H1F H 1.0322 -0.4652 0.5929
O14 O 0.9340(3) 0.1246(8) 0.0079(5)
H5 H 0.8945 0.1370 0.0370
H6 H 0.9515 0.1316 0.0687
O15 O 0.9589(4) 0.3637(8) 0.0598(7)
H8 H 0.9501 0.3450 0.1136
H11 H 1.0009 0.3481 0.0848
O16 O 0.8830 0.5000 0.9631
H7 H 0.9094 0.4524 0.9824
H7F H 0.9094 0.5476 0.9824
O17 O 0.88903(15) 0.1569(4) 0.8317(3)
H3 H 0.8669 0.1049 0.7902
H4 H 0.9100 0.0919 0.8472
O19 O 0.8940(7) 0.3636(19) 0.759(2)
H9 H 0.8915 0.4013 0.7140
H10 H 0.8514 0.3417 0.7395
loop_
_geom_bond_atom_site_label_1
_geom_bond_atom_site_label_2
_geom_bond_site_symmetry_1
_geom_bond_site_symmetry_2
U1 O1 1_555 1_555
K1 O2 1_555 1_555
K2 O3 1_555 1_555
O1 C1 1_555 1_555
O2 U1 1_555 1_555
O3 C2 1_555 1_555
O4 C1 1_555 1_555
O5 C4 1_555 1_555
O6 C3 1_555 1_555
O7 K1 1_555 1_555
O8 K1 1_555 1_555
O9 U1 1_555 1_555
O10 U1 1_555 1_555
O11 U1 1_555 1_555
O12 U1 1_555 1_555
O13 U1 1_555 1_555
C1 C2 1_555 1_555
C2 O2 1_555 1_555
C3 O8 1_555 1_555
C4 O7 1_555 1_555
C5 O9 1_555 1_555
C6 O10 1_555 1_555
C7 O11 1_555 1_555
C8 O12 1_555 1_555
C9 O13 1_555 1_555
O14 H5 1_555 1_555
O15 H8 1_555 1_555
O16 H7 1_555 1_555
O17 H3 1_555 1_555
O18 C9 1_555 1_555
O19 H9 1_555 1_555
Mg1 O7 1_555 1_555
O20 Mg1 1_555 1_555
H1 O20 1_555 1_555
H4 O17 1_555 1_555
H6 O14 1_555 1_555
H10 O19 1_555 1_555
H11 O15 1_555 1_555
U1F O1F 1_555 1_555
U1E O5 1_555 1_555
U1E_2 O18 1_555 1_555
U1F_2 O11F 1_555 1_555
U1C O5F 1_555 1_555
K2D K2 1_555 1_555
O1F C1F 1_555 1_555
O2F K1 1_555 1_555
O3F K2 1_555 1_555
O3D K2 1_555 1_555
O3B K2 1_555 1_555
O4F K2D 1_555 1_555
O4D K2 1_555 1_555
O4B K2 1_555 1_555
O5F C4F 1_555 1_555
O5E U1 1_555 1_555
O5C U1F 1_555 1_555
O6F U1C 1_555 1_555
O6E U1 1_555 1_555
O6C U1F 1_555 1_555
O7F K1 1_555 1_555
O8F K1 1_555 1_555
O9F C5 1_555 1_555
O10F C6 1_555 1_555
O11F C7 1_555 1_555
O11F_2 U1F 1_555 1_555
O12F C8 1_555 1_555
O12F_2 U1F 1_555 1_555
O13E U1E_2 1_555 1_555
O13F U1F 1_555 1_555
C1F O4F 1_555 1_555
C2F O2F 1_555 1_555
C3F O6F 1_555 1_555
C4F O7F 1_555 1_555
C9E C9 1_555 1_555
O18E U1 1_555 1_555
O18C U1F 1_555 1_555
Mg1F O7F 1_555 1_555
O20F Mg1F 1_555 1_555
H1F O20F 1_555 1_555
H7F O16 1_555 1_555
K2 O7 1_555 1_555
K2 O7F 1_555 1_555
O3 K2D 1_555 1_555
O4 K2D 1_555 1_555
O6 U1E 1_555 1_555
C3 C4 1_555 1_555
C5 C6 1_555 1_555
C7 C8 1_555 1_555
U1F O2F 1_555 1_555
U1F O9F 1_555 1_555
U1F O10F 1_555 1_555
U1F_2 O12F 1_555 1_555
K2D O3F 1_555 1_555
K2D O3D 1_555 1_555
K2D O3B 1_555 1_555
O3F C2F 1_555 1_555
O8F C3F 1_555 1_555
O13E C9E 1_555 1_555
C1F C2F 1_555 1_555
C3F C4F 1_555 1_555
C9E O18E 1_555 1_555

#END
