
#######################################################################
#
#                 Cambridge Crystallographic Data Centre
#                                CCDC 
#
#######################################################################
#
# If this CIF has been generated from an entry in the Cambridge 
# Structural Database, then it will include bibliographic, chemical, 
# crystal, experimental, refinement or atomic coordinate data resulting 
# from the CCDC's data processing and validation procedures.
#
#######################################################################

data_METYIU
_chemical_formula_moiety         '(C26 H30 Cd2 N8 O11)n'
_symmetry_cell_setting           tetragonal
_symmetry_space_group_name_H-M   'I 41/a'
_symmetry_Int_Tables_number      88
_space_group_name_Hall           '-I 4ad'
loop_
_symmetry_equiv_pos_site_id
_symmetry_equiv_pos_as_xyz
1 x,y,z
2 3/4-y,1/4+x,1/4+z
3 1/2+x,1/2+y,1/2+z
4 1/4-y,3/4+x,3/4+z
5 1/4+y,1/4-x,1/4+z
6 1/2-x,-y,1/2+z
7 3/4+y,3/4-x,3/4+z
8 -x,1/2-y,z
9 -x,-y,-z
10 1/4+y,3/4-x,3/4-z
11 1/2-x,1/2-y,1/2-z
12 3/4+y,1/4-x,1/4-z
13 3/4-y,3/4+x,3/4-z
14 1/2+x,y,1/2-z
15 1/4-y,1/4+x,1/4-z
16 x,1/2+y,-z
_cell_length_a                   18.6378(19)
_cell_length_b                   18.6378(19)
_cell_length_c                   22.570(3)
_cell_angle_alpha                90
_cell_angle_beta                 90
_cell_angle_gamma                90
_cell_volume                     7840.09
loop_
_atom_site_label
_atom_site_type_symbol
_atom_site_fract_x
_atom_site_fract_y
_atom_site_fract_z
Cd1 Cd 0.07612(3) 0.53760(3) 0.12808(2)
C1 C -0.1441(4) 0.5333(4) 0.2009(3)
C2 C -0.0724(4) 0.5464(5) 0.2044(3)
H1 H -0.0479 0.5561 0.2393
C3 C -0.0945(4) 0.5263(4) 0.1136(3)
H2 H -0.0889 0.5191 0.0731
C4 C -0.1977(4) 0.5338(4) 0.2464(3)
H3 H -0.1816 0.5370 0.2853
C5 C -0.2675(4) 0.5301(4) 0.2383(3)
H4 H -0.2855 0.5251 0.2001
C6 C -0.3177(4) 0.5338(4) 0.2884(3)
C7 C 0.0938(4) 0.7357(4) 0.0230(3)
C8 C 0.0829(4) 0.7021(4) 0.0758(3)
H5 H 0.0708 0.7250 0.1110
C9 C 0.1106(4) 0.6197(4) 0.0135(3)
H6 H 0.1212 0.5752 -0.0031
C10 C 0.0869(4) 0.8098(4) 0.0043(3)
H7 H 0.0793 0.8442 0.0335
C11 C 0.0907(4) 0.8312(4) -0.0500(3)
H8 H 0.0982 0.7967 -0.0792
C12 C 0.0839(4) 0.9079(4) -0.0692(3)
N1 N -0.0416(3) 0.5433(3) 0.1499(3)
N2 N -0.1562(3) 0.5208(3) 0.1418(3)
H14 H -0.1970 0.5111 0.1259
N3 N 0.0924(3) 0.6298(3) 0.0693(3)
N4 N 0.1119(3) 0.6814(3) -0.0161(3)
H15 H 0.1222 0.6867 -0.0530
O1 O 0.0832(3) 0.9575(3) -0.0335(2)
O2 O 0.0777(3) 0.9175(3) -0.1244(2)
O3 O -0.2981(3) 0.5245(3) 0.3408(2)
O4 O -0.3842(3) 0.5488(3) 0.2766(2)
Cd1M Cd 0.57612(3) 0.53760(3) 0.37192(2)
Cd1O Cd 0.07612(3) 1.03760(3) -0.12808(2)
Cd1M_2 Cd -0.42388(3) 0.53760(3) 0.37192(2)
Cd1O_2 Cd 0.07612(3) 0.03760(3) -0.12808(2)
C1M C 0.3559(4) 0.5333(4) 0.2991(3)
C2M C 0.4276(4) 0.5464(5) 0.2956(3)
H1M H 0.4521 0.5561 0.2607
C3M C 0.4055(4) 0.5263(4) 0.3864(3)
H2M H 0.4111 0.5191 0.4269
C4M C 0.3023(4) 0.5338(4) 0.2536(3)
H3M H 0.3184 0.5370 0.2147
C5M C 0.2325(4) 0.5301(4) 0.2617(3)
H4M H 0.2145 0.5251 0.2999
C6M C 0.1823(4) 0.5338(4) 0.2116(3)
C7O C 0.0938(4) 0.2357(4) -0.0230(3)
C8O C 0.0829(4) 0.2021(4) -0.0758(3)
H5O H 0.0708 0.2250 -0.1110
C9O C 0.1106(4) 0.1197(4) -0.0135(3)
H6O H 0.1212 0.0752 0.0031
C10O C 0.0869(4) 0.3098(4) -0.0043(3)
H7O H 0.0793 0.3442 -0.0335
C11O C 0.0907(4) 0.3312(4) 0.0500(3)
H8O H 0.0982 0.2967 0.0792
C12O C 0.0839(4) 0.4079(4) 0.0692(3)
N1M N 0.4584(3) 0.5433(3) 0.3501(3)
N2M N 0.3438(3) 0.5208(3) 0.3582(3)
H14M H 0.3030 0.5111 0.3741
N3O N 0.0924(3) 0.1298(3) -0.0693(3)
N3M N 0.5924(3) 0.6298(3) 0.4307(3)
N4O N 0.1119(3) 0.1814(3) 0.0161(3)
H15O H 0.1222 0.1867 0.0530
O1O O 0.0832(3) 0.4575(3) 0.0335(2)
O1B O 0.5832(3) 0.4575(3) 0.4665(2)
O2O O 0.0777(3) 0.4175(3) 0.1244(2)
O2B O 0.5777(3) 0.4175(3) 0.3756(2)
O3M O 0.2019(3) 0.5245(3) 0.1592(2)
O3_2 O 0.7019(3) 0.5245(3) 0.3408(2)
O4M O 0.1158(3) 0.5488(3) 0.2234(2)
O4_2 O 0.6158(3) 0.5488(3) 0.2766(2)
C13 C 0.4525(6) 0.5858(6) 0.1342(4)
H9 H 0.4252 0.5848 0.1702
H10 H 0.4260 0.6108 0.1042
H11 H 0.4972 0.6100 0.1411
C14 C 0.4667(16) 0.5117(18) 0.1144(12)
H12 H 0.449(4) 0.502(4) 0.0751(19)
H13 H 0.416(3) 0.501(10) 0.118(8)
O5 O 0.5334(14) 0.5103(14) 0.0850(18)
H16 H 0.5487 0.5514 0.0817
O6 O 0.0646(6) 0.6494(5) 0.3024(5)
H17 H 0.076(15) 0.618(8) 0.326(7)
H18 H 0.059(10) 0.632(9) 0.269(4)
O7 O -0.0000 0.7500 0.2134(6)
H19 H 0.034(6) 0.726(7) 0.247(5)
H19G H -0.034(6) 0.774(7) 0.247(5)
loop_
_geom_bond_atom_site_label_1
_geom_bond_atom_site_label_2
_geom_bond_site_symmetry_1
_geom_bond_site_symmetry_2
Cd1 N1 1_555 1_555
C1 C2 1_555 1_555
C2 H1 1_555 1_555
C3 H2 1_555 1_555
C4 C1 1_555 1_555
H3 C4 1_555 1_555
C5 C4 1_555 1_555
H4 C5 1_555 1_555
C6 C5 1_555 1_555
C7 C8 1_555 1_555
C8 H5 1_555 1_555
C9 H6 1_555 1_555
C10 C7 1_555 1_555
H7 C10 1_555 1_555
C11 C10 1_555 1_555
H8 C11 1_555 1_555
C12 C11 1_555 1_555
C13 H9 1_555 1_555
H10 C13 1_555 1_555
H11 C13 1_555 1_555
C14 C13 1_555 1_555
H12 C14 1_555 1_555
H13 C14 1_555 1_555
N1 C2 1_555 1_555
N2 C1 1_555 1_555
H14 N2 1_555 1_555
N3 Cd1 1_555 1_555
N4 C7 1_555 1_555
H15 N4 1_555 1_555
O1 C12 1_555 1_555
O2 C12 1_555 1_555
O3 C6 1_555 1_555
O4 C6 1_555 1_555
O5 C14 1_555 1_555
H16 O5 1_555 1_555
O6 H17 1_555 1_555
H18 O6 1_555 1_555
O7 H19 1_555 1_555
Cd1M N1M 1_555 1_555
Cd1O O1 1_555 1_555
Cd1M_2 O3 1_555 1_555
Cd1O_2 N3O 1_555 1_555
C1M C2M 1_555 1_555
C2M H1M 1_555 1_555
C3M H2M 1_555 1_555
C4M C1M 1_555 1_555
H3M C4M 1_555 1_555
C5M C4M 1_555 1_555
H4M C5M 1_555 1_555
C6M C5M 1_555 1_555
C7O C8O 1_555 1_555
C8O H5O 1_555 1_555
C9O H6O 1_555 1_555
C10O C7O 1_555 1_555
H7O C10O 1_555 1_555
C11O C10O 1_555 1_555
H8O C11O 1_555 1_555
C12O C11O 1_555 1_555
N1M C2M 1_555 1_555
N2M C1M 1_555 1_555
H14M N2M 1_555 1_555
N3O C8O 1_555 1_555
N3M Cd1M 1_555 1_555
N4O C7O 1_555 1_555
H15O N4O 1_555 1_555
O1O Cd1 1_555 1_555
O1B Cd1M 1_555 1_555
O2O Cd1 1_555 1_555
O2B Cd1M 1_555 1_555
O3M Cd1 1_555 1_555
O3_2 Cd1M 1_555 1_555
O4M Cd1 1_555 1_555
O4_2 Cd1M 1_555 1_555
H19G O7 1_555 1_555
C3 N1 1_555 1_555
C3 N2 1_555 1_555
C8 N3 1_555 1_555
C9 N3 1_555 1_555
C9 N4 1_555 1_555
O2 Cd1O 1_555 1_555
O4 Cd1M_2 1_555 1_555
C3M N1M 1_555 1_555
C3M N2M 1_555 1_555
C6M O3M 1_555 1_555
C6M O4M 1_555 1_555
C9O N3O 1_555 1_555
C9O N4O 1_555 1_555
C12O O1O 1_555 1_555
C12O O2O 1_555 1_555

#END
