
#######################################################################
#
#                 Cambridge Crystallographic Data Centre
#                                CCDC 
#
#######################################################################
#
# If this CIF has been generated from an entry in the Cambridge 
# Structural Database, then it will include bibliographic, chemical, 
# crystal, experimental, refinement or atomic coordinate data resulting 
# from the CCDC's data processing and validation procedures.
#
#######################################################################

data_EKEHUZ
_chemical_formula_moiety         '(C6 H14 N2 O6 P2 Zn2)n'
_symmetry_cell_setting           trigonal
_symmetry_space_group_name_H-M   'P 32 2 1'
_symmetry_Int_Tables_number      154
_space_group_name_Hall           'P 32 2"'
loop_
_symmetry_equiv_pos_site_id
_symmetry_equiv_pos_as_xyz
1 x,y,z
2 -y,x-y,2/3+z
3 -x+y,-x,1/3+z
4 y,x,-z
5 x-y,-y,1/3-z
6 -x,-x+y,2/3-z
_cell_length_a                   10.19880(10)
_cell_length_b                   10.19880(10)
_cell_length_c                   13.4856(3)
_cell_angle_alpha                90
_cell_angle_beta                 90
_cell_angle_gamma                120
_cell_volume                     1214.78
loop_
_atom_site_label
_atom_site_type_symbol
_atom_site_fract_x
_atom_site_fract_y
_atom_site_fract_z
_atom_site_U_iso_or_equiv
_atom_site_thermal_displace_type
Zn1 Zn 0.22732(14) 0.58716(14) 0.41483(8) 0.0337 Uani
P1 P 0.1124(3) 0.4730(4) 0.1887(2) 0.0436 Uani
H1 H 0.0849 0.3328 0.1956 0.0520 Uiso
O1 O 0.2116(10) 0.5569(10) 0.2735(5) 0.0534 Uani
O2 O -0.0358(9) 0.4649(12) 0.1852(7) 0.0607 Uani
O3 O 0.1955(9) 0.5350(13) 0.0919(5) 0.0600 Uani
N1 N 0.3440(10) 0.4810(9) 0.4674(6) 0.0333 Uani
C1 C 0.5075(16) 0.5893(17) 0.4824(15) 0.0706 Uani
H2 H 0.5198 0.6645 0.5312 0.0850 Uiso
H3 H 0.5519 0.6412 0.4206 0.0850 Uiso
C2 C 0.2847(16) 0.4128(17) 0.5653(8) 0.0541 Uani
H4 H 0.1765 0.3433 0.5604 0.0640 Uiso
H5 H 0.3008 0.4917 0.6122 0.0640 Uiso
C3 C 0.3280(15) 0.3628(16) 0.3972(8) 0.0508 Uani
H6 H 0.3678 0.4082 0.3330 0.0610 Uiso
H7 H 0.2216 0.2885 0.3891 0.0610 Uiso
N1C N 0.4810(9) 0.3440(10) 0.5326(6) 0.0333 Uani
C1C C 0.5893(17) 0.5075(16) 0.5176(15) 0.0706 Uani
H2C H 0.6645 0.5198 0.4688 0.0850 Uiso
H3C H 0.6412 0.5519 0.5794 0.0850 Uiso
C2C C 0.4128(17) 0.2847(16) 0.4347(8) 0.0541 Uani
H4C H 0.3433 0.1765 0.4396 0.0640 Uiso
H5C H 0.4917 0.3008 0.3878 0.0640 Uiso
C3C C 0.3628(16) 0.3280(15) 0.6028(8) 0.0508 Uani
H6C H 0.4082 0.3678 0.6670 0.0610 Uiso
H7C H 0.2885 0.2216 0.6109 0.0610 Uiso
Zn1C Zn 0.58716(14) 0.22732(14) 0.58517(8) 0.0337 Uani
P1C P 0.4730(4) 0.1124(3) 0.8113(2) 0.0436 Uani
H1C H 0.3328 0.0849 0.8044 0.0520 Uiso
O1C O 0.5569(10) 0.2116(10) 0.7265(5) 0.0534 Uani
O2C O 0.4649(12) -0.0358(9) 0.8148(7) 0.0607 Uani
O3C O 0.5350(13) 0.1955(9) 0.9081(5) 0.0600 Uani
Zn1A Zn 0.41284(14) 0.64016(20) 0.08150(8) 0.0337 Uani
Zn1B Zn 0.35984(20) -0.22732(14) 0.74816(8) 0.0337 Uani
Zn1D Zn 0.64016(20) 0.41284(14) 0.91850(8) 0.0337 Uani
Zn1E Zn -0.22732(14) 0.35984(20) 0.25184(8) 0.0337 Uani
O2B O 0.5007(15) 0.0358(9) 0.5185(7) 0.0607 Uani
O2E O 0.0358(9) 0.5007(15) 0.4815(7) 0.0607 Uani
O3B O 0.3395(16) 0.8045(9) 0.4252(5) 0.0600 Uani
O3E O 0.8045(9) 0.3395(16) 0.5748(5) 0.0600 Uani
loop_
_atom_site_aniso_label
_atom_site_aniso_U_11
_atom_site_aniso_U_22
_atom_site_aniso_U_33
_atom_site_aniso_U_23
_atom_site_aniso_U_13
_atom_site_aniso_U_12
Zn1 0.0322(7) 0.0369(8) 0.0279(7) -0.0007(5) -0.0021(5) 0.0143(5)
P1 0.0364(14) 0.0532(17) 0.0327(14) 0.0005(11) 0.0005(10) 0.0161(12)
O1 0.056(5) 0.071(6) 0.031(3) -0.003(3) -0.002(3) 0.030(5)
O2 0.032(4) 0.078(7) 0.054(5) 0.018(5) 0.007(3) 0.014(4)
O3 0.034(4) 0.097(7) 0.032(4) 0.005(4) -0.004(3) 0.020(4)
N1 0.037(4) 0.032(4) 0.032(4) 0.000(3) 0.000(3) 0.018(3)
C1 0.043(7) 0.055(8) 0.109(13) 0.016(8) -0.006(7) 0.021(7)
C2 0.063(7) 0.085(9) 0.033(5) 0.010(5) 0.012(5) 0.051(7)
C3 0.069(7) 0.066(7) 0.039(5) -0.021(5) -0.025(5) 0.050(7)
N1C 0.032 0.037 0.032 0 0 0.018
C1C 0.055 0.043 0.109 0.006 -0.016 0.021
C2C 0.085 0.063 0.033 -0.012 -0.01 0.051
C3C 0.066 0.069 0.039 0.025 0.021 0.05
Zn1C 0.0369 0.0322 0.0279 0.0021 0.0007 0.0143
P1C 0.0532 0.0364 0.0327 -0.0005 -0.0005 0.0161
O1C 0.071 0.056 0.031 0.002 0.003 0.03
O2C 0.078 0.032 0.054 -0.007 -0.018 0.014
O3C 0.097 0.034 0.032 0.004 -0.005 0.02
Zn1A 0.0369 0.0405 0.0279 -0.0014 0.0007 0.0226
Zn1B 0.0405 0.0322 0.0279 0.0021 0.0014 0.0179
Zn1D 0.0405 0.0369 0.0279 -0.0007 0.0014 0.0226
Zn1E 0.0322 0.0405 0.0279 -0.0014 -0.0021 0.0179
O2B 0.082 0.032 0.054 -0.007 0.011 0.018
O2E 0.032 0.082 0.054 -0.011 0.007 0.018
O3B 0.091 0.034 0.032 0.004 0.009 0.014
O3E 0.034 0.091 0.032 -0.009 -0.004 0.014
loop_
_geom_bond_atom_site_label_1
_geom_bond_atom_site_label_2
_geom_bond_site_symmetry_1
_geom_bond_site_symmetry_2
Zn1 O1 1_555 1_555
P1 H1 1_555 1_555
O1 P1 1_555 1_555
O2 P1 1_555 1_555
O3 P1 1_555 1_555
N1 Zn1 1_555 1_555
C1 N1 1_555 1_555
H2 C1 1_555 1_555
H3 C1 1_555 1_555
C2 N1 1_555 1_555
H4 C2 1_555 1_555
H5 C2 1_555 1_555
C3 N1 1_555 1_555
H6 C3 1_555 1_555
H7 C3 1_555 1_555
N1C C1C 1_555 1_555
C1C C1 1_555 1_555
H2C C1C 1_555 1_555
H3C C1C 1_555 1_555
C2C C3 1_555 1_555
H4C C2C 1_555 1_555
H5C C2C 1_555 1_555
C3C C2 1_555 1_555
H6C C3C 1_555 1_555
H7C C3C 1_555 1_555
Zn1C N1C 1_555 1_555
P1C H1C 1_555 1_555
O1C Zn1C 1_555 1_555
O2C P1C 1_555 1_555
O3C P1C 1_555 1_555
Zn1A O3 1_555 1_555
Zn1B O2C 1_555 1_555
Zn1D O3C 1_555 1_555
Zn1E O2 1_555 1_555
O2B Zn1C 1_555 1_555
O2E Zn1 1_555 1_555
O3B Zn1 1_555 1_555
O3E Zn1C 1_555 1_555
N1C C2C 1_555 1_555
N1C C3C 1_555 1_555
P1C O1C 1_555 1_555

#END
