
#######################################################################
#
#                 Cambridge Crystallographic Data Centre
#                                CCDC 
#
#######################################################################
#
# If this CIF has been generated from an entry in the Cambridge 
# Structural Database, then it will include bibliographic, chemical, 
# crystal, experimental, refinement or atomic coordinate data resulting 
# from the CCDC's data processing and validation procedures.
#
#######################################################################

data_FORKOO
_chemical_formula_moiety         'C80 H24 F7 N10 O8 Si1 Zn4'
_symmetry_cell_setting           tetragonal
_symmetry_space_group_name_H-M   'P 4/m m m'
_symmetry_Int_Tables_number      123
_space_group_name_Hall           '-P 4 2'
loop_
_symmetry_equiv_pos_site_id
_symmetry_equiv_pos_as_xyz
1 x,y,z
2 -y,x,z
3 -x,-y,z
4 y,-x,z
5 x,-y,-z
6 -x,y,-z
7 y,x,-z
8 -y,-x,-z
9 -x,-y,-z
10 y,-x,-z
11 x,y,-z
12 -y,x,-z
13 -x,y,z
14 x,-y,z
15 -y,-x,z
16 y,x,z
_cell_length_a                   19.702(4)
_cell_length_b                   19.702(4)
_cell_length_c                   7.4311(15)
_cell_angle_alpha                90
_cell_angle_beta                 90
_cell_angle_gamma                90
_cell_volume                     2884.52
loop_
_atom_site_label
_atom_site_type_symbol
_atom_site_fract_x
_atom_site_fract_y
_atom_site_fract_z
Zn1 Zn 0.5000 0.5000 0.5000
Si1 Si 0.5000 0.5000 0.0000
F1 F 0.44041(8) 0.44041(8) 0.0000
F2 F 0.5000 0.5000 0.2296(4)
O1 O 0.38566(18) 0.17849(13) 0.5000
N1 N 0.5000 0.39066(15) 0.5000
N2 N 0.5000 0.17776(15) 0.5000
C1 C 0.5000 0.288(3) 0.352(9)
H1 H 0.5000 0.2653 0.2387
C2 C 0.5000 0.361(5) 0.355(11)
H2 H 0.5000 0.3858 0.2452
C3 C 0.5226(14) 0.2854(7) 0.347(2)
C4 C 0.5182(19) 0.3529(15) 0.352(3)
C5 C 0.5000 0.2511(2) 0.5000
C6 C 0.4373(2) 0.14602(18) 0.5000
C7 C 0.4387(2) 0.07031(17) 0.5000
C8 C 0.5000 0.0357(2) 0.5000
C9 C 0.3777(3) 0.03536(18) 0.5000
H3 H 0.3360 0.0595 0.5000
F1A F 0.55959(8) 0.44041(8) 0.0000
F1B F 0.55959(8) 0.55959(8) 0.0000
F1C F 0.44041(8) 0.55959(8) 0.0000
F2D F 0.5000 0.5000 -0.2296(4)
O1B O 0.61434(18) -0.17849(13) 0.5000
N1B N 0.5000 -0.39066(15) 0.5000
N2B N 0.5000 -0.17776(15) 0.5000
C1B C 0.5000 -0.288(3) 0.352(9)
H1B H 0.5000 -0.2653 0.2387
C2B C 0.5000 -0.361(5) 0.355(11)
H2B H 0.5000 -0.3858 0.2452
C3B C 0.4774(14) -0.2854(7) 0.347(2)
C4B C 0.4818(19) -0.3529(15) 0.352(3)
C5B C 0.5000 -0.2511(2) 0.5000
C6B C 0.5627(2) -0.14602(18) 0.5000
C7B C 0.5613(2) -0.07031(17) 0.5000
C8B C 0.5000 -0.0357(2) 0.5000
C9B C 0.6223(3) -0.03536(18) 0.5000
H3B H 0.6640 -0.0595 0.5000
O1D O 0.38566(18) -0.17849(13) 0.5000
C1D C 0.5000 -0.288(3) 0.648(9)
H1D H 0.5000 -0.2653 0.7613
C2D C 0.5000 -0.361(5) 0.645(11)
H2D H 0.5000 -0.3858 0.7548
C3D C 0.5226(14) -0.2854(7) 0.653(2)
C4D C 0.5182(19) -0.3529(15) 0.648(3)
C6D C 0.4373(2) -0.14602(18) 0.5000
C7D C 0.4387(2) -0.07031(17) 0.5000
C9D C 0.3777(3) -0.03536(18) 0.5000
H3D H 0.3360 -0.0595 0.5000
O1E O 0.61434(18) 0.17849(13) 0.5000
C1E C 0.5000 0.288(3) 0.648(9)
H1E H 0.5000 0.2653 0.7613
C2E C 0.5000 0.361(5) 0.645(11)
H2E H 0.5000 0.3858 0.7548
C3E C 0.4774(14) 0.2854(7) 0.653(2)
C4E C 0.4818(19) 0.3529(15) 0.648(3)
C6E C 0.5627(2) 0.14602(18) 0.5000
C7E C 0.5613(2) 0.07031(17) 0.5000
C9E C 0.6223(3) 0.03536(18) 0.5000
H3E H 0.6640 0.0595 0.5000
C3H C 0.4774(14) -0.2854(7) 0.653(2)
C4H C 0.4818(19) -0.3529(15) 0.648(3)
C3J C 0.5226(14) 0.2854(7) 0.653(2)
C4J C 0.5182(19) 0.3529(15) 0.648(3)
C3L C 0.4774(14) 0.2854(7) 0.347(2)
C4L C 0.4818(19) 0.3529(15) 0.352(3)
C3M C 0.5226(14) -0.2854(7) 0.347(2)
C4M C 0.5182(19) -0.3529(15) 0.352(3)
O1A O -0.17849(13) 0.38566(18) 0.5000
N1A N -0.39066(15) 0.5000 0.5000
N2A N -0.17776(15) 0.5000 0.5000
C1A C -0.288(3) 0.5000 0.352(9)
H1A H -0.2653 0.5000 0.2387
C2A C -0.361(5) 0.5000 0.355(11)
H2A H -0.3858 0.5000 0.2452
C3A C -0.2854(7) 0.5226(14) 0.347(2)
C4A C -0.3529(15) 0.5182(19) 0.352(3)
C5A C -0.2511(2) 0.5000 0.5000
C6A C -0.14602(18) 0.4373(2) 0.5000
C7A C -0.07031(17) 0.4387(2) 0.5000
C8A C -0.0357(2) 0.5000 0.5000
C9A C -0.03536(18) 0.3777(3) 0.5000
H3A H -0.0595 0.3360 0.5000
O1C O 0.17849(13) 0.61434(18) 0.5000
N1C N 0.39066(15) 0.5000 0.5000
N2C N 0.17776(15) 0.5000 0.5000
C1C C 0.288(3) 0.5000 0.352(9)
H1C H 0.2653 0.5000 0.2387
C2C C 0.361(5) 0.5000 0.355(11)
H2C H 0.3858 0.5000 0.2452
C3C C 0.2854(7) 0.4774(14) 0.347(2)
C4C C 0.3529(15) 0.4818(19) 0.352(3)
C5C C 0.2511(2) 0.5000 0.5000
C6C C 0.14602(18) 0.5627(2) 0.5000
C7C C 0.07031(17) 0.5613(2) 0.5000
C8C C 0.0357(2) 0.5000 0.5000
C9C C 0.03536(18) 0.6223(3) 0.5000
H3C H 0.0595 0.6640 0.5000
O1F O 0.17849(13) 0.38566(18) 0.5000
C1F C 0.288(3) 0.5000 0.648(9)
H1F H 0.2653 0.5000 0.7613
C2F C 0.361(5) 0.5000 0.645(11)
H2F H 0.3858 0.5000 0.7548
C3F C 0.2854(7) 0.5226(14) 0.653(2)
C4F C 0.3529(15) 0.5182(19) 0.648(3)
C6F C 0.14602(18) 0.4373(2) 0.5000
C7F C 0.07031(17) 0.4387(2) 0.5000
C9F C 0.03536(18) 0.3777(3) 0.5000
H3F H 0.0595 0.3360 0.5000
O1G O -0.17849(13) 0.61434(18) 0.5000
C1G C -0.288(3) 0.5000 0.648(9)
H1G H -0.2653 0.5000 0.7613
C2G C -0.361(5) 0.5000 0.645(11)
H2G H -0.3858 0.5000 0.7548
C3G C -0.2854(7) 0.4774(14) 0.653(2)
C4G C -0.3529(15) 0.4818(19) 0.648(3)
C6G C -0.14602(18) 0.5627(2) 0.5000
C7G C -0.07031(17) 0.5613(2) 0.5000
C9G C -0.03536(18) 0.6223(3) 0.5000
H3G H -0.0595 0.6640 0.5000
C3I C 0.2854(7) 0.4774(14) 0.653(2)
C4I C 0.3529(15) 0.4818(19) 0.648(3)
C3K C -0.2854(7) 0.5226(14) 0.653(2)
C4K C -0.3529(15) 0.5182(19) 0.648(3)
C3N C -0.2854(7) 0.4774(14) 0.347(2)
C4N C -0.3529(15) 0.4818(19) 0.352(3)
C3O C 0.2854(7) 0.5226(14) 0.347(2)
C4O C 0.3529(15) 0.5182(19) 0.352(3)
Zn1_2 Zn -0.5000 0.5000 0.5000
Zn1_3 Zn 0.5000 -0.5000 0.5000
Zn1_4 Zn 0.5000 0.5000 -0.5000
F2D_2 F 0.5000 0.5000 0.7704(4)
N1A_2 N 0.60934(15) 0.5000 0.5000
N1B_2 N 0.5000 0.60934(15) 0.5000
loop_
_geom_bond_atom_site_label_1
_geom_bond_atom_site_label_2
_geom_bond_site_symmetry_1
_geom_bond_site_symmetry_2
Zn1 F2 1_555 1_555
Si1 F1 1_555 1_555
F2 Si1 1_555 1_555
O1 C6 1_555 1_555
N1 Zn1 1_555 1_555
N2 C5 1_555 1_555
C1 H1 1_555 1_555
H1 C3 1_555 1_555
C2 N1 1_555 1_555
H2 C2 1_555 1_555
C3 C2 1_555 1_555
C4 N1 1_555 1_555
C5 C1 1_555 1_555
C6 N2 1_555 1_555
C7 C6 1_555 1_555
C8 C7 1_555 1_555
C9 C7 1_555 1_555
H3 C9 1_555 1_555
F1A Si1 1_555 1_555
F1B Si1 1_555 1_555
F1C Si1 1_555 1_555
F2D Si1 1_555 1_555
O1B C6B 1_555 1_555
N1B C2B 1_555 1_555
N2B C5B 1_555 1_555
C1B H1B 1_555 1_555
H1B C3B 1_555 1_555
C2B C1B 1_555 1_555
H2B C2B 1_555 1_555
C3B C2B 1_555 1_555
C4B N1B 1_555 1_555
C5B C1B 1_555 1_555
C6B N2B 1_555 1_555
C7B C6B 1_555 1_555
C8B C8 1_555 1_555
C9B C7B 1_555 1_555
H3B C9B 1_555 1_555
O1D C6D 1_555 1_555
C1D C5B 1_555 1_555
H1D C1D 1_555 1_555
C2D N1B 1_555 1_555
H2D C2D 1_555 1_555
C3D C5B 1_555 1_555
C4D N1B 1_555 1_555
C6D N2B 1_555 1_555
C7D C8B 1_555 1_555
C9D C9 1_555 1_555
H3D C9D 1_555 1_555
O1E C6E 1_555 1_555
C1E C5 1_555 1_555
H1E C1E 1_555 1_555
C2E N1 1_555 1_555
H2E C2E 1_555 1_555
C3E C5 1_555 1_555
C4E N1 1_555 1_555
C6E N2 1_555 1_555
C7E C8 1_555 1_555
C9E C9B 1_555 1_555
H3E C9E 1_555 1_555
C3H C5B 1_555 1_555
C4H N1B 1_555 1_555
C3J C5 1_555 1_555
C4J N1 1_555 1_555
C3L H1 1_555 1_555
C4L N1 1_555 1_555
C3M H1B 1_555 1_555
C4M N1B 1_555 1_555
O1A C6A 1_555 1_555
N1A C2A 1_555 1_555
N2A C5A 1_555 1_555
C1A H1A 1_555 1_555
H1A C3A 1_555 1_555
C2A C1A 1_555 1_555
H2A C2A 1_555 1_555
C3A C2A 1_555 1_555
C4A N1A 1_555 1_555
C5A C1A 1_555 1_555
C6A N2A 1_555 1_555
C7A C6A 1_555 1_555
C8A C7A 1_555 1_555
C9A C7A 1_555 1_555
H3A C9A 1_555 1_555
O1C C6C 1_555 1_555
N1C Zn1 1_555 1_555
N2C C5C 1_555 1_555
C1C H1C 1_555 1_555
H1C C3C 1_555 1_555
C2C N1C 1_555 1_555
H2C C2C 1_555 1_555
C3C C2C 1_555 1_555
C4C N1C 1_555 1_555
C5C C1C 1_555 1_555
C6C N2C 1_555 1_555
C7C C6C 1_555 1_555
C8C C8A 1_555 1_555
C9C C7C 1_555 1_555
H3C C9C 1_555 1_555
O1F C6F 1_555 1_555
C1F C5C 1_555 1_555
H1F C1F 1_555 1_555
C2F N1C 1_555 1_555
H2F C2F 1_555 1_555
C3F C5C 1_555 1_555
C4F N1C 1_555 1_555
C6F N2C 1_555 1_555
C7F C8C 1_555 1_555
C9F C9A 1_555 1_555
H3F C9F 1_555 1_555
O1G C6G 1_555 1_555
C1G C5A 1_555 1_555
H1G C1G 1_555 1_555
C2G N1A 1_555 1_555
H2G C2G 1_555 1_555
C3G C5A 1_555 1_555
C4G N1A 1_555 1_555
C6G N2A 1_555 1_555
C7G C8A 1_555 1_555
C9G C9C 1_555 1_555
H3G C9G 1_555 1_555
C3I C5C 1_555 1_555
C4I N1C 1_555 1_555
C3K C5A 1_555 1_555
C4K N1A 1_555 1_555
C3N H1A 1_555 1_555
C4N N1A 1_555 1_555
C3O H1C 1_555 1_555
C4O N1C 1_555 1_555
Zn1_2 N1A 1_555 1_555
Zn1_3 N1B 1_555 1_555
Zn1_4 F2D 1_555 1_555
F2D_2 Zn1 1_555 1_555
N1A_2 Zn1 1_555 1_555
N1B_2 Zn1 1_555 1_555
C1 C2 1_555 1_555
C1 C4 1_555 1_555
C1 C4L 1_555 1_555
C2 C3L 1_555 1_555
H2 C4 1_555 1_555
H2 C4L 1_555 1_555
C3 C5 1_555 1_555
C3 C3L 1_555 1_555
C4 C4L 1_555 1_555
C5 C3L 1_555 1_555
C1B C4B 1_555 1_555
C1B C4M 1_555 1_555
C2B C3M 1_555 1_555
H2B C4B 1_555 1_555
H2B C4M 1_555 1_555
C3B C5B 1_555 1_555
C3B C3M 1_555 1_555
C4B C4M 1_555 1_555
C5B C3M 1_555 1_555
C7B C8B 1_555 1_555
C1D C2D 1_555 1_555
C1D C4D 1_555 1_555
C1D C4H 1_555 1_555
H1D C3D 1_555 1_555
H1D C3H 1_555 1_555
C2D C3D 1_555 1_555
C2D C3H 1_555 1_555
H2D C4D 1_555 1_555
H2D C4H 1_555 1_555
C3D C3H 1_555 1_555
C4D C4H 1_555 1_555
C6D C7D 1_555 1_555
C7D C9D 1_555 1_555
C1E C2E 1_555 1_555
C1E C4E 1_555 1_555
C1E C4J 1_555 1_555
H1E C3E 1_555 1_555
H1E C3J 1_555 1_555
C2E C3E 1_555 1_555
C2E C3J 1_555 1_555
H2E C4E 1_555 1_555
H2E C4J 1_555 1_555
C3E C3J 1_555 1_555
C4E C4J 1_555 1_555
C6E C7E 1_555 1_555
C7E C9E 1_555 1_555
C1A C4A 1_555 1_555
C1A C4N 1_555 1_555
C2A C3N 1_555 1_555
H2A C4A 1_555 1_555
H2A C4N 1_555 1_555
C3A C5A 1_555 1_555
C3A C3N 1_555 1_555
C4A C4N 1_555 1_555
C5A C3N 1_555 1_555
C1C C2C 1_555 1_555
C1C C4C 1_555 1_555
C1C C4O 1_555 1_555
C2C C3O 1_555 1_555
H2C C4C 1_555 1_555
H2C C4O 1_555 1_555
C3C C5C 1_555 1_555
C3C C3O 1_555 1_555
C4C C4O 1_555 1_555
C5C C3O 1_555 1_555
C7C C8C 1_555 1_555
C1F C2F 1_555 1_555
C1F C4F 1_555 1_555
C1F C4I 1_555 1_555
H1F C3F 1_555 1_555
H1F C3I 1_555 1_555
C2F C3F 1_555 1_555
C2F C3I 1_555 1_555
H2F C4F 1_555 1_555
H2F C4I 1_555 1_555
C3F C3I 1_555 1_555
C4F C4I 1_555 1_555
C6F C7F 1_555 1_555
C7F C9F 1_555 1_555
C1G C2G 1_555 1_555
C1G C4G 1_555 1_555
C1G C4K 1_555 1_555
H1G C3G 1_555 1_555
H1G C3K 1_555 1_555
C2G C3G 1_555 1_555
C2G C3K 1_555 1_555
H2G C4G 1_555 1_555
H2G C4K 1_555 1_555
C3G C3K 1_555 1_555
C4G C4K 1_555 1_555
C6G C7G 1_555 1_555
C7G C9G 1_555 1_555

#END
