
#######################################################################
#
#                 Cambridge Crystallographic Data Centre
#                                CCDC 
#
#######################################################################
#
# If this CIF has been generated from an entry in the Cambridge 
# Structural Database, then it will include bibliographic, chemical, 
# crystal, experimental, refinement or atomic coordinate data resulting 
# from the CCDC's data processing and validation procedures.
#
#######################################################################

data_HIYYEU
_chemical_formula_moiety         '(C40 H82 Mo1 N16 Ni2 O5)n'
_symmetry_cell_setting           monoclinic
_symmetry_space_group_name_H-M   'C 2/c'
_symmetry_Int_Tables_number      15
_space_group_name_Hall           '-C 2yc'
loop_
_symmetry_equiv_pos_site_id
_symmetry_equiv_pos_as_xyz
1 x,y,z
2 1/2+x,1/2+y,z
3 -x,y,1/2-z
4 1/2-x,1/2+y,1/2-z
5 -x,-y,-z
6 1/2-x,1/2-y,-z
7 x,-y,1/2+z
8 1/2+x,1/2-y,1/2+z
_cell_length_a                   25.1632(5)
_cell_length_b                   15.2710(3)
_cell_length_c                   18.7553(3)
_cell_angle_alpha                90
_cell_angle_beta                 128.0570(10)
_cell_angle_gamma                90
_cell_volume                     5674.81
loop_
_atom_site_label
_atom_site_type_symbol
_atom_site_fract_x
_atom_site_fract_y
_atom_site_fract_z
_atom_site_U_iso_or_equiv
_atom_site_thermal_displace_type
Mo1 Mo 0.5000 0.344764(11) 0.7500 0.0117 Uani
Ni1 Ni 0.5000 0.5000 0.5000 0.0222 Uani
Ni2 Ni 0.7500 0.2500 1.0000 0.0158 Uani
N1 N 0.45469(8) 0.40914(11) 0.39382(11) 0.0276 Uani
H1 H 0.4482 0.4398 0.3462 0.0330 Uiso
N2 N 0.40346(8) 0.53084(13) 0.45117(11) 0.0346 Uani
H2 H 0.3987 0.4932 0.4859 0.0420 Uiso
N3 N 0.73645(8) 0.12457(10) 1.03114(11) 0.0226 Uani
H3 H 0.7785 0.0979 1.0616 0.0270 Uiso
N4 N 0.72079(8) 0.19488(10) 0.88052(10) 0.0252 Uani
H4 H 0.6746 0.2053 0.8453 0.0300 Uiso
N5 N 0.50454(9) 0.41502(11) 0.58897(11) 0.0277 Uani
N6 N 0.54408(11) 0.17423(15) 0.68679(14) 0.0462 Uani
N7 N 0.39143(8) 0.51048(11) 0.67251(11) 0.0284 Uani
C1 C 0.59651(8) 0.30383(10) 0.86805(11) 0.0171 Uani
C2 C 0.38618(11) 0.39810(16) 0.36657(16) 0.0384 Uani
H5 H 0.3878 0.3608 0.4111 0.0460 Uiso
H6 H 0.3567 0.3693 0.3066 0.0460 Uiso
C3 C 0.35838(11) 0.48727(18) 0.36221(14) 0.0394 Uani
H7 H 0.3547 0.5233 0.3155 0.0470 Uiso
H8 H 0.3127 0.4810 0.3453 0.0470 Uiso
C4 C 0.38703(13) 0.6064(2) 0.4683(2) 0.0599 Uani
H9 H 0.3946 0.6473 0.4336 0.0720 Uiso
C5 C 0.43697(13) 0.64389(17) 0.56264(18) 0.0432 Uani
H10 H 0.4429 0.5999 0.6057 0.0520 Uiso
H11 H 0.4155 0.6957 0.5670 0.0520 Uiso
C6 C 0.49245(12) 0.32832(14) 0.40327(15) 0.0326 Uani
C7 C 0.31484(13) 0.6284(2) 0.42627(18) 0.0477 Uani
H12 H 0.2850 0.6027 0.3656 0.0570 Uiso
H13 H 0.3091 0.6921 0.4219 0.0570 Uiso
H14 H 0.3035 0.6047 0.4640 0.0570 Uiso
C8 C 0.49637(18) 0.26094(17) 0.4664(2) 0.0557 Uani
H15 H 0.4508 0.2406 0.4406 0.0670 Uiso
H16 H 0.5239 0.2111 0.4737 0.0670 Uiso
H17 H 0.5170 0.2878 0.5256 0.0670 Uiso
C9 C 0.45762(14) 0.28643(17) 0.30959(16) 0.0440 Uani
H18 H 0.4583 0.3276 0.2701 0.0530 Uiso
H19 H 0.4816 0.2328 0.3160 0.0530 Uiso
H20 H 0.4108 0.2722 0.2830 0.0530 Uiso
C10 C 0.69326(11) 0.07902(12) 0.94245(14) 0.0302 Uani
H21 H 0.6460 0.0993 0.9077 0.0360 Uiso
H22 H 0.6943 0.0150 0.9518 0.0360 Uiso
C11 C 0.72033(11) 0.09968(12) 0.89045(15) 0.0301 Uani
H23 H 0.7667 0.0762 0.9236 0.0360 Uiso
H24 H 0.6914 0.0717 0.8300 0.0360 Uiso
C12 C 0.7326(2) 0.23080(16) 0.8275(2) 0.0706 Uani
H25 H 0.7822 0.2204 0.8645 0.0840 Uiso
C13 C 0.73077(15) 0.33023(15) 0.82172(16) 0.0423 Uani
H26 H 0.6850 0.3491 0.7984 0.0510 Uiso
H27 H 0.7361 0.3464 0.7753 0.0510 Uiso
C14 C 0.71836(11) 0.11478(13) 1.09342(14) 0.0285 Uani
C15 C 0.70846(17) 0.18833(16) 0.73907(17) 0.0492 Uani
H28 H 0.7103 0.1245 0.7455 0.0590 Uiso
H29 H 0.7376 0.2066 0.7237 0.0590 Uiso
H30 H 0.6619 0.2064 0.6909 0.0590 Uiso
C16 C 0.72699(11) 0.01884(13) 1.12345(16) 0.0337 Uani
H31 H 0.7723 -0.0014 1.1479 0.0400 Uiso
H32 H 0.7210 0.0141 1.1703 0.0400 Uiso
H33 H 0.6931 -0.0174 1.0713 0.0400 Uiso
C17 C 0.64596(15) 0.1423(2) 1.0488(2) 0.0559 Uani
H34 H 0.6149 0.1040 0.9970 0.0670 Uiso
H35 H 0.6371 0.1376 1.0927 0.0670 Uiso
H36 H 0.6393 0.2030 1.0280 0.0670 Uiso
C18 C 0.50316(9) 0.38895(11) 0.64493(11) 0.0195 Uani
C19 C 0.52930(9) 0.23448(13) 0.70851(12) 0.0261 Uani
C20 C 0.43017(8) 0.45383(11) 0.69883(11) 0.0186 Uani
N8 N 0.64956(7) 0.28444(10) 0.93104(10) 0.0212 Uani
Ni1B Ni 0.5000 0.5000 1.0000 0.0222 Uani
Ni2B Ni 0.2500 0.2500 0.5000 0.0158 Uani
N1D N 0.54531(8) 0.59086(11) 0.60618(11) 0.0276 Uani
H1D H 0.5518 0.5602 0.6538 0.0330 Uiso
N2D N 0.59654(8) 0.46916(13) 0.54883(11) 0.0346 Uani
H2D H 0.6013 0.5068 0.5141 0.0420 Uiso
N3E N 0.76355(8) 0.37543(10) 0.96886(11) 0.0226 Uani
H3E H 0.7215 0.4021 0.9384 0.0270 Uiso
N4E N 0.77921(8) 0.30512(10) 1.11948(10) 0.0252 Uani
H4E H 0.8254 0.2947 1.1547 0.0300 Uiso
N5B N 0.49546(9) 0.41502(11) 0.91103(11) 0.0277 Uani
N5D N 0.49546(9) 0.58498(11) 0.41103(11) 0.0277 Uani
N6B N 0.45592(11) 0.17423(15) 0.81321(14) 0.0462 Uani
N7B N 0.60857(8) 0.51048(11) 0.82749(11) 0.0284 Uani
C1B C 0.40349(8) 0.30383(10) 0.63195(11) 0.0171 Uani
C2D C 0.61382(11) 0.60190(16) 0.63343(16) 0.0384 Uani
H5D H 0.6122 0.6392 0.5889 0.0460 Uiso
H6D H 0.6433 0.6307 0.6934 0.0460 Uiso
C3D C 0.64162(11) 0.51273(18) 0.63779(14) 0.0394 Uani
H7D H 0.6453 0.4767 0.6845 0.0470 Uiso
H8D H 0.6873 0.5190 0.6547 0.0470 Uiso
C4D C 0.61297(13) 0.3936(2) 0.5317(2) 0.0599 Uani
H9D H 0.6054 0.3527 0.5664 0.0720 Uiso
C5D C 0.56303(13) 0.35611(17) 0.43736(18) 0.0432 Uani
H10D H 0.5571 0.4001 0.3943 0.0520 Uiso
H11D H 0.5845 0.3043 0.4330 0.0520 Uiso
C6D C 0.50755(12) 0.67168(14) 0.59673(15) 0.0326 Uani
C7D C 0.68516(13) 0.3716(2) 0.57373(18) 0.0477 Uani
H12D H 0.7150 0.3973 0.6344 0.0570 Uiso
H13D H 0.6909 0.3079 0.5781 0.0570 Uiso
H14D H 0.6965 0.3953 0.5360 0.0570 Uiso
C8D C 0.50363(18) 0.73906(17) 0.5336(2) 0.0557 Uani
H15D H 0.5492 0.7594 0.5594 0.0670 Uiso
H16D H 0.4761 0.7889 0.5263 0.0670 Uiso
H17D H 0.4830 0.7122 0.4744 0.0670 Uiso
C9D C 0.54238(14) 0.71357(17) 0.69041(16) 0.0440 Uani
H18D H 0.5417 0.6724 0.7299 0.0530 Uiso
H19D H 0.5184 0.7672 0.6840 0.0530 Uiso
H20D H 0.5892 0.7278 0.7170 0.0530 Uiso
C10E C 0.80674(11) 0.42098(12) 1.05755(14) 0.0302 Uani
H21E H 0.8540 0.4007 1.0923 0.0360 Uiso
H22E H 0.8057 0.4850 1.0482 0.0360 Uiso
C11E C 0.77967(11) 0.40032(12) 1.10955(15) 0.0301 Uani
H23E H 0.7333 0.4238 1.0764 0.0360 Uiso
H24E H 0.8086 0.4283 1.1700 0.0360 Uiso
C12E C 0.7674(2) 0.26920(16) 1.1725(2) 0.0706 Uani
H25E H 0.7178 0.2796 1.1355 0.0840 Uiso
C13E C 0.76923(15) 0.16977(15) 1.17828(16) 0.0423 Uani
H26E H 0.8150 0.1509 1.2016 0.0510 Uiso
H27E H 0.7639 0.1536 1.2247 0.0510 Uiso
C14E C 0.78164(11) 0.38522(13) 0.90658(14) 0.0285 Uani
C15E C 0.79154(17) 0.31167(16) 1.26093(17) 0.0492 Uani
H28E H 0.7897 0.3755 1.2545 0.0590 Uiso
H29E H 0.7624 0.2934 1.2763 0.0590 Uiso
H30E H 0.8381 0.2936 1.3091 0.0590 Uiso
C16E C 0.77301(11) 0.48116(13) 0.87655(16) 0.0337 Uani
H31E H 0.7277 0.5014 0.8521 0.0400 Uiso
H32E H 0.7790 0.4859 0.8297 0.0400 Uiso
H33E H 0.8069 0.5174 0.9287 0.0400 Uiso
C17E C 0.85404(15) 0.3577(2) 0.9512(2) 0.0559 Uani
H34E H 0.8851 0.3960 1.0030 0.0670 Uiso
H35E H 0.8629 0.3624 0.9073 0.0670 Uiso
H36E H 0.8607 0.2970 0.9720 0.0670 Uiso
C18B C 0.49684(9) 0.38895(11) 0.85507(11) 0.0195 Uani
C19B C 0.47070(9) 0.23448(13) 0.79149(12) 0.0261 Uani
C20B C 0.56983(8) 0.45383(11) 0.80117(11) 0.0186 Uani
N8B N 0.35044(7) 0.28444(10) 0.56896(10) 0.0212 Uani
N8E N 0.85044(7) 0.21556(10) 1.06896(10) 0.0212 Uani
O1 O 0.2963(3) 0.6651(2) 0.5992(4) 0.0428 Uani
O2 O 0.1733(3) 0.6627(5) 0.4139(4) 0.0526 Uani
O3 O -0.0253(3) 0.4975(3) 0.4062(4) 0.0575 Uani
O4 O 0.0808(4) 0.5952(7) 0.4450(6) 0.0507 Uani
O5 O 0.1497(6) 0.5825(7) 0.2476(8) 0.0764 Uani
loop_
_atom_site_aniso_label
_atom_site_aniso_U_11
_atom_site_aniso_U_22
_atom_site_aniso_U_33
_atom_site_aniso_U_23
_atom_site_aniso_U_13
_atom_site_aniso_U_12
Mo1 0.00964(14) 0.01471(14) 0.01055(14) 0.000 0.00617(10) 0.000
Ni1 0.02128(19) 0.0344(2) 0.01569(18) 0.00046(12) 0.01376(15) -0.00475(13)
Ni2 0.01096(17) 0.01616(17) 0.01509(17) 0.00058(10) 0.00538(14) 0.00127(10)
N1 0.0277(8) 0.0364(9) 0.0220(7) -0.0012(6) 0.0170(7) -0.0073(7)
N2 0.0243(8) 0.0568(11) 0.0229(7) -0.0015(8) 0.0147(7) 0.0003(8)
N3 0.0211(7) 0.0196(7) 0.0287(8) 0.0041(6) 0.0162(7) 0.0013(6)
N4 0.0275(8) 0.0237(8) 0.0214(7) -0.0012(6) 0.0135(7) 0.0018(6)
N5 0.0360(9) 0.0332(8) 0.0229(8) -0.0030(6) 0.0227(7) -0.0056(7)
N6 0.0420(11) 0.0425(10) 0.0393(10) -0.0097(9) 0.0176(9) 0.0152(9)
N7 0.0251(8) 0.0275(8) 0.0294(8) 0.0035(6) 0.0152(7) 0.0070(6)
C1 0.0149(7) 0.0188(7) 0.0177(7) 0.0010(6) 0.0101(7) 0.0004(6)
C2 0.0268(10) 0.0552(14) 0.0323(11) -0.0103(9) 0.0178(9) -0.0164(9)
C3 0.0234(9) 0.0630(15) 0.0251(9) -0.0061(9) 0.0116(8) -0.0070(10)
C4 0.0283(12) 0.0707(19) 0.0641(18) -0.0256(15) 0.0201(13) 0.0025(12)
C5 0.0413(13) 0.0458(13) 0.0475(14) -0.0088(10) 0.0299(12) -0.0005(10)
C6 0.042 0.0323 0.03 -0.0033 0.0254 -0.0075
C7 0.0334(12) 0.0644(16) 0.0445(13) 0.0029(12) 0.0236(11) 0.0111(12)
C8 0.1 0.0394 0.0531 0.0065 0.06 0.0028
C9 0.0537 0.0496 0.0369 -0.0083 0.032 -0.0066
C10 0.0345(10) 0.0208(8) 0.0369(10) -0.0059(7) 0.0228(9) -0.0068(7)
C11 0.0384(11) 0.0204(9) 0.0335(10) -0.0055(7) 0.0232(9) -0.0024(7)
C12 0.159(4) 0.0288(12) 0.0592(17) -0.0071(11) 0.085(2) -0.0108(16)
C13 0.0743(18) 0.0297(10) 0.0355(11) 0.0036(9) 0.0402(13) 0.0007(11)
C14 0.0332 0.0264 0.0341 0.0089 0.0249 0.0068
C15 0.0832(19) 0.0406(13) 0.0382(12) 0.0005(10) 0.0446(14) 0.0095(12)
C16 0.0361 0.0276 0.0399 0.0101 0.0247 0.0012
C17 0.0515 0.0679 0.079 0.0457 0.0556 0.0355
C18 0.0218(8) 0.0227(8) 0.0170(7) -0.0032(6) 0.0135(7) -0.0030(6)
C19 0.0222(9) 0.0286(9) 0.0201(8) -0.0034(7) 0.0093(7) 0.0041(7)
C20 0.0194(7) 0.0198(7) 0.0163(7) 0.0006(6) 0.0108(6) -0.0002(6)
N8 0.0159(7) 0.0225(7) 0.0217(7) 0.0028(6) 0.0098(6) 0.0014(5)
Ni1B 0.02128 0.0344 0.01569 -0.00046 0.01376 0.00475
Ni2B 0.01096 0.01616 0.01509 -0.00058 0.00538 -0.00127
N1D 0.0277 0.0364 0.022 -0.0012 0.017 -0.0073
N2D 0.0243 0.0568 0.0229 -0.0015 0.0147 0.0003
N3E 0.0211 0.0196 0.0287 0.0041 0.0162 0.0013
N4E 0.0275 0.0237 0.0214 -0.0012 0.0135 0.0018
N5B 0.036 0.0332 0.0229 0.003 0.0227 0.0056
N5D 0.036 0.0332 0.0229 -0.003 0.0227 -0.0056
N6B 0.042 0.0425 0.0393 0.0097 0.0176 -0.0152
N7B 0.0251 0.0275 0.0294 -0.0035 0.0152 -0.007
C1B 0.0149 0.0188 0.0177 -0.001 0.0101 -0.0004
C2D 0.0268 0.0552 0.0323 -0.0103 0.0178 -0.0164
C3D 0.0234 0.063 0.0251 -0.0061 0.0116 -0.007
C4D 0.0283 0.0707 0.0641 -0.0256 0.0201 0.0025
C5D 0.0413 0.0458 0.0475 -0.0088 0.0299 -0.0005
C6D 0.0420(11) 0.0323(10) 0.0300(10) -0.0033(8) 0.0254(10) -0.0075(9)
C7D 0.0334 0.0644 0.0445 0.0029 0.0236 0.0111
C8D 0.100(2) 0.0394(13) 0.0531(15) 0.0065(11) 0.0600(17) 0.0028(14)
C9D 0.0537(14) 0.0496(13) 0.0369(11) -0.0083(10) 0.0320(12) -0.0066(11)
C10E 0.0345 0.0208 0.0369 -0.0059 0.0228 -0.0068
C11E 0.0384 0.0204 0.0335 -0.0055 0.0232 -0.0024
C12E 0.159 0.0288 0.0592 -0.0071 0.085 -0.0108
C13E 0.0743 0.0297 0.0355 0.0036 0.0402 0.0007
C14E 0.0332(10) 0.0264(9) 0.0341(10) 0.0089(8) 0.0249(9) 0.0068(8)
C15E 0.0832 0.0406 0.0382 0.0005 0.0446 0.0095
C16E 0.0361(11) 0.0276(10) 0.0399(11) 0.0101(8) 0.0247(10) 0.0012(8)
C17E 0.0515(15) 0.0679(17) 0.079(2) 0.0457(15) 0.0556(16) 0.0355(13)
C18B 0.0218 0.0227 0.017 0.0032 0.0135 0.003
C19B 0.0222 0.0286 0.0201 0.0034 0.0093 -0.0041
C20B 0.0194 0.0198 0.0163 -0.0006 0.0108 0.0002
N8B 0.0159 0.0225 0.0217 -0.0028 0.0098 -0.0014
N8E 0.0159 0.0225 0.0217 0.0028 0.0098 0.0014
O1 0.040(2) 0.0244(13) 0.064(3) 0.0197(16) 0.032(2) 0.0163(14)
O2 0.0353(16) 0.0477(18) 0.065(3) 0.014(2) 0.026(2) -0.0038(12)
O3 0.070(3) 0.043(2) 0.062(3) -0.017(2) 0.042(3) 0.002(2)
O4 0.038(4) 0.045(3) 0.069(6) -0.004(5) 0.033(4) -0.004(3)
O5 0.076(6) 0.083(5) 0.059(4) 0.015(3) 0.036(5) 0.009(4)
loop_
_geom_bond_atom_site_label_1
_geom_bond_atom_site_label_2
_geom_bond_site_symmetry_1
_geom_bond_site_symmetry_2
Mo1 C1 1_555 1_555
Ni1 N1 1_555 1_555
Ni2 N3 1_555 1_555
N1 H1 1_555 1_555
N2 Ni1 1_555 1_555
H2 N2 1_555 1_555
N3 H3 1_555 1_555
N4 Ni2 1_555 1_555
H4 N4 1_555 1_555
N5 Ni1 1_555 1_555
N6 C19 1_555 1_555
N7 C20 1_555 1_555
C1 N8 1_555 1_555
C2 N1 1_555 1_555
H5 C2 1_555 1_555
H6 C2 1_555 1_555
C3 N2 1_555 1_555
H7 C3 1_555 1_555
H8 C3 1_555 1_555
C4 N2 1_555 1_555
H9 C4 1_555 1_555
C5 C4 1_555 1_555
H10 C5 1_555 1_555
H11 C5 1_555 1_555
C6 N1 1_555 1_555
C7 C4 1_555 1_555
H12 C7 1_555 1_555
H13 C7 1_555 1_555
H14 C7 1_555 1_555
C8 C6 1_555 1_555
H15 C8 1_555 1_555
H16 C8 1_555 1_555
H17 C8 1_555 1_555
C9 C6 1_555 1_555
H18 C9 1_555 1_555
H19 C9 1_555 1_555
H20 C9 1_555 1_555
C10 N3 1_555 1_555
H21 C10 1_555 1_555
H22 C10 1_555 1_555
C11 N4 1_555 1_555
H23 C11 1_555 1_555
H24 C11 1_555 1_555
C12 N4 1_555 1_555
H25 C12 1_555 1_555
C13 C12 1_555 1_555
H26 C13 1_555 1_555
H27 C13 1_555 1_555
C14 N3 1_555 1_555
C15 C12 1_555 1_555
H28 C15 1_555 1_555
H29 C15 1_555 1_555
H30 C15 1_555 1_555
C16 C14 1_555 1_555
H31 C16 1_555 1_555
H32 C16 1_555 1_555
H33 C16 1_555 1_555
C17 C14 1_555 1_555
H34 C17 1_555 1_555
H35 C17 1_555 1_555
H36 C17 1_555 1_555
C18 Mo1 1_555 1_555
C19 Mo1 1_555 1_555
C20 Mo1 1_555 1_555
N8 Ni2 1_555 1_555
Ni1B N5B 1_555 1_555
Ni2B N8B 1_555 1_555
N1D Ni1 1_555 1_555
H1D N1D 1_555 1_555
N2D Ni1 1_555 1_555
H2D N2D 1_555 1_555
N3E Ni2 1_555 1_555
H3E N3E 1_555 1_555
N4E Ni2 1_555 1_555
H4E N4E 1_555 1_555
N5B C18B 1_555 1_555
N5D Ni1 1_555 1_555
N6B C19B 1_555 1_555
N7B C20B 1_555 1_555
C1B Mo1 1_555 1_555
C2D N1D 1_555 1_555
H5D C2D 1_555 1_555
H6D C2D 1_555 1_555
C3D N2D 1_555 1_555
H7D C3D 1_555 1_555
H8D C3D 1_555 1_555
C4D N2D 1_555 1_555
H9D C4D 1_555 1_555
C5D C6 1_555 1_555
H10D C5D 1_555 1_555
H11D C5D 1_555 1_555
C6D C5 1_555 1_555
C7D C4D 1_555 1_555
H12D C7D 1_555 1_555
H13D C7D 1_555 1_555
H14D C7D 1_555 1_555
C8D C6D 1_555 1_555
H15D C8D 1_555 1_555
H16D C8D 1_555 1_555
H17D C8D 1_555 1_555
C9D C6D 1_555 1_555
H18D C9D 1_555 1_555
H19D C9D 1_555 1_555
H20D C9D 1_555 1_555
C10E N3E 1_555 1_555
H21E C10E 1_555 1_555
H22E C10E 1_555 1_555
C11E N4E 1_555 1_555
H23E C11E 1_555 1_555
H24E C11E 1_555 1_555
C12E N4E 1_555 1_555
H25E C12E 1_555 1_555
C13E C14 1_555 1_555
H26E C13E 1_555 1_555
H27E C13E 1_555 1_555
C14E C13 1_555 1_555
C15E C12E 1_555 1_555
H28E C15E 1_555 1_555
H29E C15E 1_555 1_555
H30E C15E 1_555 1_555
C16E C14E 1_555 1_555
H31E C16E 1_555 1_555
H32E C16E 1_555 1_555
H33E C16E 1_555 1_555
C17E C14E 1_555 1_555
H34E C17E 1_555 1_555
H35E C17E 1_555 1_555
H36E C17E 1_555 1_555
C18B Mo1 1_555 1_555
C19B Mo1 1_555 1_555
C20B Mo1 1_555 1_555
N8B C1B 1_555 1_555
N8E Ni2 1_555 1_555
N5 C18 1_555 1_555
C2 C3 1_555 1_555
C10 C11 1_555 1_555
N1D C6D 1_555 1_555
N3E C14E 1_555 1_555
C2D C3D 1_555 1_555
C4D C5D 1_555 1_555
C10E C11E 1_555 1_555
C12E C13E 1_555 1_555

#END
