
#######################################################################
#
#                 Cambridge Crystallographic Data Centre
#                                CCDC 
#
#######################################################################
#
# If this CIF has been generated from an entry in the Cambridge 
# Structural Database, then it will include bibliographic, chemical, 
# crystal, experimental, refinement or atomic coordinate data resulting 
# from the CCDC's data processing and validation procedures.
#
#######################################################################

data_EWUSOF
_chemical_formula_moiety         '(C40 H32 Cl2 Cu6 Mo2 N8 O2 S6)n'
_symmetry_cell_setting           orthorhombic
_symmetry_space_group_name_H-M   'F d d d'
_symmetry_Int_Tables_number      70
_space_group_name_Hall           '-F 2uv 2vw'
loop_
_symmetry_equiv_pos_site_id
_symmetry_equiv_pos_as_xyz
1 x,y,z
2 3/4-x,3/4-y,z
3 3/4-x,y,3/4-z
4 x,3/4-y,3/4-z
5 x,1/2+y,1/2+z
6 3/4-x,1/4-y,1/2+z
7 3/4-x,1/2+y,1/4-z
8 x,1/4-y,1/4-z
9 1/2+x,y,1/2+z
10 1/4-x,3/4-y,1/2+z
11 1/4-x,y,1/4-z
12 1/2+x,3/4-y,1/4-z
13 1/2+x,1/2+y,z
14 1/4-x,1/4-y,z
15 1/4-x,1/2+y,3/4-z
16 1/2+x,1/4-y,3/4-z
17 -x,-y,-z
18 1/4+x,1/4+y,-z
19 1/4+x,-y,1/4+z
20 -x,1/4+y,1/4+z
21 -x,1/2-y,1/2-z
22 1/4+x,3/4+y,1/2-z
23 1/4+x,1/2-y,3/4+z
24 -x,3/4+y,3/4+z
25 1/2-x,-y,1/2-z
26 3/4+x,1/4+y,1/2-z
27 3/4+x,-y,3/4+z
28 1/2-x,1/4+y,3/4+z
29 1/2-x,1/2-y,-z
30 3/4+x,3/4+y,-z
31 3/4+x,1/2-y,1/4+z
32 1/2-x,3/4+y,1/4+z
_cell_length_a                   25.5852(15)
_cell_length_b                   29.6200(18)
_cell_length_c                   58.413(4)
_cell_angle_alpha                90
_cell_angle_beta                 90
_cell_angle_gamma                90
_cell_volume                     44267.3
loop_
_atom_site_label
_atom_site_type_symbol
_atom_site_fract_x
_atom_site_fract_y
_atom_site_fract_z
_atom_site_U_iso_or_equiv
_atom_site_thermal_displace_type
Cu1 Cu 0.46841(5) 0.78676(4) 0.45921(2) 0.0786 Uani
Mo1 Mo 0.53580(3) 0.73972(3) 0.484623(18) 0.0780 Uani
Cu2 Cu 0.45475(5) 0.68551(4) 0.49291(3) 0.0885 Uani
S1 S 0.52853(11) 0.81576(8) 0.48373(5) 0.0854 Uani
S2 S 0.48096(10) 0.71085(8) 0.45811(5) 0.0791 Uani
S3 S 0.50868(13) 0.71637(10) 0.51945(6) 0.1030 Uani
O1 O 0.5985(3) 0.7236(3) 0.47904(16) 0.1160 Uani
N1 N 0.3771(3) 0.6909(3) 0.50018(19) 0.0833 Uani
N2 N 0.4683(3) 0.6159(3) 0.49477(19) 0.1037 Uani
N3 N 0.3914(3) 0.7993(3) 0.46925(18) 0.0820 Uani
N4 N 0.4675(3) 0.8176(3) 0.42846(17) 0.0883 Uani
C1 C 0.4453(4) 0.5418(4) 0.5047(2) 0.1067 Uani
H1 H 0.4198 0.5226 0.5106 0.1280 Uiso
C2 C 0.4921(4) 0.5245(3) 0.4983(2) 0.0973 Uani
C3 C 0.4350(4) 0.5855(3) 0.5030(2) 0.1077 Uani
H2 H 0.4023 0.5955 0.5078 0.1290 Uiso
C4 C 0.5265(5) 0.5550(4) 0.4910(3) 0.1717 Uani
H3 H 0.5598 0.5456 0.4868 0.2060 Uiso
C5 C 0.5135(5) 0.6011(4) 0.4896(3) 0.1733 Uani
H4 H 0.5389 0.6214 0.4848 0.2080 Uiso
C6 C 0.2152(4) 0.6956(3) 0.5190(2) 0.0760 Uani
C7 C 0.2710(4) 0.6936(3) 0.5125(2) 0.0793 Uani
C8 C 0.2887(4) 0.6786(4) 0.4917(2) 0.0960 Uani
H5 H 0.2645 0.6686 0.4809 0.1150 Uiso
C9 C 0.4656(5) 0.8636(4) 0.3869(2) 0.1057 Uani
C10 C 0.3395(4) 0.6780(4) 0.4863(2) 0.0967 Uani
H6 H 0.3489 0.6677 0.4718 0.1160 Uiso
C11 C 0.3744(6) 0.8154(4) 0.4893(2) 0.1140 Uani
H7 H 0.3995 0.8244 0.4999 0.1360 Uiso
C12 C 0.2018(4) 0.7135(5) 0.5394(2) 0.1043 Uani
H8 H 0.2270 0.7247 0.5493 0.1250 Uiso
C13 C 0.1776(4) 0.6803(4) 0.5044(2) 0.1070 Uani
H9 H 0.1867 0.6673 0.4905 0.1280 Uiso
C14 C 0.3501(6) 0.7852(5) 0.4551(2) 0.1187 Uani
H10 H 0.3589 0.7741 0.4407 0.1420 Uiso
C15 C 0.3610(5) 0.7058(6) 0.5205(3) 0.1570 Uani
H11 H 0.3864 0.7160 0.5306 0.1880 Uiso
C16 C 0.4695(7) 0.7975(5) 0.4095(3) 0.1583 Uani
H12 H 0.4715 0.7662 0.4097 0.1900 Uiso
C17 C 0.4605(7) 0.8607(5) 0.4264(3) 0.1607 Uani
H13 H 0.4555 0.8778 0.4396 0.1930 Uiso
C18 C 0.3102(5) 0.7074(5) 0.5276(3) 0.1473 Uani
H14 H 0.3018 0.7174 0.5422 0.1770 Uiso
C19 C 0.4601(7) 0.8821(4) 0.4059(3) 0.1587 Uani
H15 H 0.4553 0.9132 0.4060 0.1900 Uiso
C20 C 0.4691(8) 0.8180(5) 0.3887(3) 0.1870 Uani
H16 H 0.4712 0.8005 0.3755 0.2240 Uiso
Cu3 Cu 0.50435(7) 0.79197(5) 0.51880(3) 0.1082 Uani
Cl1 Cl 0.4561(2) 0.83377(15) 0.54336(7) 0.1747 Uani
Cu1BA Cu 0.03159(5) 0.71324(4) 0.54079(2) 0.0786 Uani
Cu1C Cu 0.46841(5) 0.96324(4) 0.29079(2) 0.0786 Uani
Mo1BA Mo -0.03580(3) 0.76028(3) 0.515377(18) 0.0780 Uani
Cu2P Cu 0.54525(5) 0.31449(4) 0.50709(3) 0.0885 Uani
Cu2BA Cu 0.04525(5) 0.81449(4) 0.50709(3) 0.0885 Uani
S1BA S -0.02853(11) 0.68424(8) 0.51627(5) 0.0854 Uani
S2BA S 0.01904(10) 0.78915(8) 0.54189(5) 0.0791 Uani
S3BA S -0.00868(13) 0.78363(10) 0.48055(6) 0.1030 Uani
O1BA O -0.0985(3) 0.7764(3) 0.52096(16) 0.1160 Uani
N1BA N 0.1229(3) 0.8091(3) 0.49982(19) 0.0833 Uani
N2P N 0.5317(3) 0.3841(3) 0.50523(19) 0.1037 Uani
N2BA N 0.0317(3) 0.8841(3) 0.50523(19) 0.1037 Uani
N3BA N 0.1086(3) 0.7007(3) 0.53075(18) 0.0820 Uani
N4C N 0.4675(3) 0.9324(3) 0.32154(17) 0.0883 Uani
N4BA N 0.0325(3) 0.6824(3) 0.57154(17) 0.0883 Uani
C1P C 0.5547(4) 0.4582(4) 0.4953(2) 0.1067 Uani
H1P H 0.5802 0.4774 0.4894 0.1280 Uiso
C2P C 0.5079(4) 0.4755(3) 0.5017(2) 0.0973 Uani
C3P C 0.5650(4) 0.4145(3) 0.4970(2) 0.1077 Uani
H2P H 0.5977 0.4045 0.4922 0.1290 Uiso
C4P C 0.4735(5) 0.4450(4) 0.5090(3) 0.1717 Uani
H3P H 0.4402 0.4544 0.5132 0.2060 Uiso
C5P C 0.4865(5) 0.3989(4) 0.5104(3) 0.1733 Uani
H4P H 0.4611 0.3786 0.5152 0.2080 Uiso
C6BA C 0.2848(4) 0.8044(3) 0.4810(2) 0.0760 Uani
C7BA C 0.2290(4) 0.8064(3) 0.4875(2) 0.0793 Uani
C8BA C 0.2113(4) 0.8214(4) 0.5083(2) 0.0960 Uani
H5BA H 0.2355 0.8314 0.5191 0.1150 Uiso
C9C C 0.4656(5) 0.8864(4) 0.3631(2) 0.1057 Uani
C10BA C 0.1605(4) 0.8220(4) 0.5137(2) 0.0967 Uani
H6BA H 0.1511 0.8323 0.5282 0.1160 Uiso
C11BA C 0.1256(6) 0.6846(4) 0.5107(2) 0.1140 Uani
H7BA H 0.1005 0.6756 0.5001 0.1360 Uiso
C12BA C 0.2982(4) 0.7865(5) 0.4606(2) 0.1043 Uani
H8BA H 0.2730 0.7753 0.4507 0.1250 Uiso
C13BA C 0.3224(4) 0.8197(4) 0.4956(2) 0.1070 Uani
H9BA H 0.3133 0.8327 0.5095 0.1280 Uiso
C14BA C 0.1499(6) 0.7148(5) 0.5449(2) 0.1187 Uani
H10BA H 0.1411 0.7259 0.5593 0.1420 Uiso
C15BA C 0.1390(5) 0.7942(6) 0.4795(3) 0.1570 Uani
H11BA H 0.1136 0.7840 0.4694 0.1880 Uiso
C16C C 0.4695(7) 0.9525(5) 0.3405(3) 0.1583 Uani
H12C H 0.4715 0.9838 0.3403 0.1900 Uiso
C17C C 0.4605(7) 0.8893(5) 0.3236(3) 0.1607 Uani
H13C H 0.4555 0.8722 0.3104 0.1930 Uiso
C18BA C 0.1898(5) 0.7926(5) 0.4724(3) 0.1473 Uani
H14BA H 0.1982 0.7826 0.4578 0.1770 Uiso
C19C C 0.4601(7) 0.8679(4) 0.3441(3) 0.1587 Uani
H15C H 0.4553 0.8368 0.3440 0.1900 Uiso
C20C C 0.4691(8) 0.9320(5) 0.3613(3) 0.1870 Uani
H16C H 0.4712 0.9495 0.3745 0.2240 Uiso
Cu3BA Cu -0.00435(7) 0.70803(5) 0.48120(3) 0.1082 Uani
Cl1BA Cl 0.0439(2) 0.66623(15) 0.45664(7) 0.1747 Uani
loop_
_atom_site_aniso_label
_atom_site_aniso_U_11
_atom_site_aniso_U_22
_atom_site_aniso_U_33
_atom_site_aniso_U_23
_atom_site_aniso_U_13
_atom_site_aniso_U_12
Cu1 0.0775(9) 0.0574(7) 0.1010(10) 0.0123(7) 0.0023(7) 0.0058(6)
Mo1 0.0527(5) 0.0547(5) 0.1265(9) 0.0041(5) -0.0069(5) -0.0005(4)
Cu2 0.0647(8) 0.0511(7) 0.1497(13) 0.0163(8) 0.0022(8) 0.0000(6)
S1 0.0881(19) 0.0520(15) 0.116(2) -0.0003(15) 0.0028(17) -0.0121(13)
S2 0.0654(16) 0.0528(14) 0.119(2) -0.0025(15) -0.0035(15) 0.0001(12)
S3 0.102(2) 0.081(2) 0.126(3) 0.0289(19) -0.018(2) -0.0026(17)
O1 0.048(4) 0.108(6) 0.192(9) -0.009(6) 0.004(5) 0.016(4)
N1 0.071(6) 0.055(5) 0.124(8) 0.010(5) 0.019(6) 0.012(4)
N2 0.057(5) 0.053(5) 0.201(10) 0.029(6) 0.031(6) 0.014(4)
N3 0.073 0.064 0.109 0.014 -0.007 0.001
N4 0.113(7) 0.063(6) 0.089(7) 0.005(5) 0.009(6) 0.005(5)
C1 0.064(6) 0.051(6) 0.205(12) 0.020(7) 0.032(7) 0.003(5)
C2 0.061(6) 0.042(5) 0.189(12) 0.020(7) 0.036(7) 0.002(5)
C3 0.066(6) 0.054(6) 0.203(12) 0.043(7) 0.034(7) 0.010(5)
C4 0.100(9) 0.063(7) 0.352(19) 0.073(10) 0.109(11) 0.026(7)
C5 0.088(8) 0.050(6) 0.382(19) 0.054(10) 0.100(11) 0.022(6)
C6 0.054 0.052 0.122 0.012 0.004 0.009
C7 0.065(6) 0.057(6) 0.116(9) 0.002(6) -0.003(6) 0.002(5)
C8 0.064(7) 0.118(10) 0.106(9) -0.004(8) -0.007(6) 0.005(6)
C9 0.183(12) 0.051(7) 0.083(8) 0.009(6) 0.000(8) 0.019(7)
C10 0.061(7) 0.124(10) 0.105(9) -0.004(8) -0.001(6) 0.005(7)
C11 0.122 0.107 0.113 -0.05 -0.018 0.001
C12 0.055 0.159 0.099 -0.018 0.002 0.02
C13 0.049 0.129 0.143 -0.065 0.018 -0.01
C14 0.134 0.142 0.08 -0.007 0.008 0.007
C15 0.080(9) 0.191(15) 0.200(14) -0.096(12) -0.004(10) -0.029(9)
C16 0.292(18) 0.076(9) 0.107(11) 0.030(9) 0.000(12) 0.017(10)
C17 0.292(17) 0.072(9) 0.118(11) 0.019(8) 0.004(12) 0.023(11)
C18 0.078(9) 0.204(15) 0.160(12) -0.081(11) 0.011(9) -0.012(9)
C19 0.331(18) 0.051(7) 0.094(10) 0.005(7) 0.016(12) 0.027(10)
C20 0.38(2) 0.088(10) 0.093(10) 0.004(9) -0.013(12) 0.026(12)
Cu3 0.1181(13) 0.0832(10) 0.1233(14) 0.0019(9) 0.0104(10) -0.0005(9)
Cl1 0.284(6) 0.127(3) 0.113(3) -0.003(2) 0.057(3) 0.076(3)
Cu1BA 0.0775 0.0574 0.101 0.0123 0.0023 0.0058
Cu1C 0.0775 0.0574 0.101 0.0123 -0.0023 -0.0058
Mo1BA 0.0527 0.0547 0.1265 0.0041 -0.0069 -0.0005
Cu2P 0.0647 0.0511 0.1497 0.0163 0.0022 0
Cu2BA 0.0647 0.0511 0.1497 0.0163 0.0022 0
S1BA 0.0881 0.052 0.116 -0.0003 0.0028 -0.0121
S2BA 0.0654 0.0528 0.119 -0.0025 -0.0035 0.0001
S3BA 0.102 0.081 0.126 0.0289 -0.018 -0.0026
O1BA 0.048 0.108 0.192 -0.009 0.004 0.016
N1BA 0.071 0.055 0.124 0.01 0.019 0.012
N2P 0.057 0.053 0.201 0.029 0.031 0.014
N2BA 0.057 0.053 0.201 0.029 0.031 0.014
N3BA 0.073 0.064 0.109 0.014 -0.007 0.001
N4C 0.113 0.063 0.089 0.005 -0.009 -0.005
N4BA 0.113 0.063 0.089 0.005 0.009 0.005
C1P 0.064 0.051 0.205 0.02 0.032 0.003
C2P 0.061 0.042 0.189 0.02 0.036 0.002
C3P 0.066 0.054 0.203 0.043 0.034 0.01
C4P 0.1 0.063 0.352 0.073 0.109 0.026
C5P 0.088 0.05 0.382 0.054 0.1 0.022
C6BA 0.054 0.052 0.122 0.012 0.004 0.009
C7BA 0.065 0.057 0.116 0.002 -0.003 0.002
C8BA 0.064 0.118 0.106 -0.004 -0.007 0.005
C9C 0.183 0.051 0.083 0.009 0 -0.019
C10BA 0.061 0.124 0.105 -0.004 -0.001 0.005
C11BA 0.122 0.107 0.113 -0.05 -0.018 0.001
C12BA 0.055 0.159 0.099 -0.018 0.002 0.02
C13BA 0.049 0.129 0.143 -0.065 0.018 -0.01
C14BA 0.134 0.142 0.08 -0.007 0.008 0.007
C15BA 0.08 0.191 0.2 -0.096 -0.004 -0.029
C16C 0.292 0.076 0.107 0.03 0 -0.017
C17C 0.292 0.072 0.118 0.019 -0.004 -0.023
C18BA 0.078 0.204 0.16 -0.081 0.011 -0.012
C19C 0.331 0.051 0.094 0.005 -0.016 -0.027
C20C 0.38 0.088 0.093 0.004 0.013 -0.026
Cu3BA 0.1181 0.0832 0.1233 0.0019 0.0104 -0.0005
Cl1BA 0.284 0.127 0.113 -0.003 0.057 0.076
loop_
_geom_bond_atom_site_label_1
_geom_bond_atom_site_label_2
_geom_bond_site_symmetry_1
_geom_bond_site_symmetry_2
Cu1 Mo1 1_555 1_555
Mo1 Cu2 1_555 1_555
Cu2 S2 1_555 1_555
S1 Cu1 1_555 1_555
S2 Cu1 1_555 1_555
S3 Mo1 1_555 1_555
O1 Mo1 1_555 1_555
N1 Cu2 1_555 1_555
N2 Cu2 1_555 1_555
N3 Cu1 1_555 1_555
N4 Cu1 1_555 1_555
C1 H1 1_555 1_555
C2 C1 1_555 1_555
C3 N2 1_555 1_555
H2 C3 1_555 1_555
C4 C2 1_555 1_555
H3 C4 1_555 1_555
C5 N2 1_555 1_555
H4 C5 1_555 1_555
C6 C7 1_555 1_555
C7 C8 1_555 1_555
C8 H5 1_555 1_555
C9 C19 1_555 1_555
C10 N1 1_555 1_555
H6 C10 1_555 1_555
C11 N3 1_555 1_555
H7 C11 1_555 1_555
C12 C6 1_555 1_555
H8 C12 1_555 1_555
C13 C6 1_555 1_555
H9 C13 1_555 1_555
C14 N3 1_555 1_555
H10 C14 1_555 1_555
C15 N1 1_555 1_555
H11 C15 1_555 1_555
C16 N4 1_555 1_555
H12 C16 1_555 1_555
C17 N4 1_555 1_555
H13 C17 1_555 1_555
C18 C7 1_555 1_555
H14 C18 1_555 1_555
C19 C17 1_555 1_555
H15 C19 1_555 1_555
C20 C9 1_555 1_555
H16 C20 1_555 1_555
Cu3 Mo1 1_555 1_555
Cl1 Cu3 1_555 1_555
Cu1BA Mo1BA 1_555 1_555
Cu1C N4C 1_555 1_555
Mo1BA Cu2BA 1_555 1_555
Cu2P N2P 1_555 1_555
Cu2BA S2BA 1_555 1_555
S1BA Cu1BA 1_555 1_555
S2BA Cu1BA 1_555 1_555
S3BA Mo1BA 1_555 1_555
O1BA Mo1BA 1_555 1_555
N1BA Cu2BA 1_555 1_555
N2P C3P 1_555 1_555
N2BA Cu2BA 1_555 1_555
N3BA Cu1BA 1_555 1_555
N4C C16C 1_555 1_555
N4BA Cu1BA 1_555 1_555
C1P H1P 1_555 1_555
C2P C2 1_555 1_555
C3P C1P 1_555 1_555
H2P C3P 1_555 1_555
C4P C2P 1_555 1_555
H3P C4P 1_555 1_555
C5P N2P 1_555 1_555
H4P C5P 1_555 1_555
C6BA C7BA 1_555 1_555
C7BA C8BA 1_555 1_555
C8BA H5BA 1_555 1_555
C9C C9 1_555 1_555
C10BA N1BA 1_555 1_555
H6BA C10BA 1_555 1_555
C11BA C13 1_555 1_555
H7BA C11BA 1_555 1_555
C12BA C14 1_555 1_555
H8BA C12BA 1_555 1_555
C13BA C11 1_555 1_555
H9BA C13BA 1_555 1_555
C14BA C12 1_555 1_555
H10BA C14BA 1_555 1_555
C15BA N1BA 1_555 1_555
H11BA C15BA 1_555 1_555
C16C H12C 1_555 1_555
C17C N4C 1_555 1_555
H13C C17C 1_555 1_555
C18BA C7BA 1_555 1_555
H14BA C18BA 1_555 1_555
C19C C9C 1_555 1_555
H15C C19C 1_555 1_555
C20C C9C 1_555 1_555
H16C C20C 1_555 1_555
Cu3BA Mo1BA 1_555 1_555
Cl1BA Cu3BA 1_555 1_555
Mo1 S1 1_555 1_555
Mo1 S2 1_555 1_555
Cu2 S3 1_555 1_555
S1 Cu3 1_555 1_555
S3 Cu3 1_555 1_555
C1 C3 1_555 1_555
C4 C5 1_555 1_555
C8 C10 1_555 1_555
C15 C18 1_555 1_555
C16 C20 1_555 1_555
Mo1BA S1BA 1_555 1_555
Mo1BA S2BA 1_555 1_555
Cu2BA S3BA 1_555 1_555
S1BA Cu3BA 1_555 1_555
S3BA Cu3BA 1_555 1_555
N3BA C11BA 1_555 1_555
N3BA C14BA 1_555 1_555
C1P C2P 1_555 1_555
C4P C5P 1_555 1_555
C6BA C12BA 1_555 1_555
C6BA C13BA 1_555 1_555
C8BA C10BA 1_555 1_555
C15BA C18BA 1_555 1_555
C16C C20C 1_555 1_555
C17C C19C 1_555 1_555

#END
