
#######################################################################
#
#                 Cambridge Crystallographic Data Centre
#                                CCDC 
#
#######################################################################
#
# If this CIF has been generated from an entry in the Cambridge 
# Structural Database, then it will include bibliographic, chemical, 
# crystal, experimental, refinement or atomic coordinate data resulting 
# from the CCDC's data processing and validation procedures.
#
#######################################################################

data_EWUTEW
_chemical_formula_moiety         '(C61 H61 Cu6 N15 O5 S8 W2)n'
_symmetry_cell_setting           monoclinic
_symmetry_space_group_name_H-M   'C 2/c'
_symmetry_Int_Tables_number      15
_space_group_name_Hall           '-C 2yc'
loop_
_symmetry_equiv_pos_site_id
_symmetry_equiv_pos_as_xyz
1 x,y,z
2 -x,y,1/2-z
3 1/2+x,1/2+y,z
4 1/2-x,1/2+y,1/2-z
5 -x,-y,-z
6 x,-y,1/2+z
7 1/2-x,1/2-y,-z
8 1/2+x,1/2-y,1/2+z
_cell_length_a                   40.669(3)
_cell_length_b                   9.7097(7)
_cell_length_c                   24.7394(19)
_cell_angle_alpha                90
_cell_angle_beta                 105.0230(10)
_cell_angle_gamma                90
_cell_volume                     9435.3
loop_
_atom_site_label
_atom_site_type_symbol
_atom_site_fract_x
_atom_site_fract_y
_atom_site_fract_z
O1 O 0.9741(4) -1.1021(16) -0.6981(7)
N1 N 0.9717(3) -0.9463(12) -0.6376(5)
C1 C 0.9861(4) -1.0475(16) -0.6556(7)
H1 H 1.0070 -1.0786 -0.6339
C2 C 0.9387(4) -0.896(2) -0.6713(8)
H2 H 0.9356 -0.9226 -0.7096
H3 H 0.9381 -0.7969 -0.6690
H4 H 0.9207 -0.9339 -0.6572
C3 C 0.9866(5) -0.8776(19) -0.5841(7)
H5 H 0.9727 -0.8948 -0.5589
H6 H 0.9878 -0.7803 -0.5902
H7 H 1.0091 -0.9128 -0.5683
W1 W 0.089910(5) -0.11744(2) -0.539070(10)
Cu1 Cu 0.145380(19) -0.20911(8) -0.46101(3)
Cu2 Cu 0.107660(17) 0.14553(7) -0.50972(3)
Cu3 Cu 0.130640(18) -0.10410(7) -0.60871(3)
S1 S 0.10779(4) -0.03820(15) -0.45057(6)
S2 S 0.09164(4) 0.05704(14) -0.59911(6)
S3 S 0.12569(4) -0.28525(14) -0.55141(7)
S4 S 0.26118(5) -0.0795(2) -0.38981(11)
O2 O 0.04913(11) -0.1817(5) -0.5519(2)
N2 N 0.19454(14) -0.1721(6) -0.4312(2)
N3 N 0.36130(15) 0.8722(5) -0.5917(2)
N4 N 0.13076(13) -0.1827(6) -0.6855(2)
N5 N 0.07049(12) 0.2843(5) -0.5009(2)
N6 N 0.15301(11) 0.2469(5) -0.4876(2)
N7 N 0.18004(11) -0.0251(5) -0.58240(19)
C4 C 0.10923(19) -0.6016(7) -0.8963(3)
H8 H 0.0900 -0.6497 -0.9156
C5 C 0.10581(18) -0.5048(7) -0.8560(3)
H9 H 0.0847 -0.4893 -0.8492
C6 C 0.13425(17) -0.4323(7) -0.8264(3)
C7 C 0.16439(18) -0.4564(7) -0.8408(3)
H10 H 0.1838 -0.4065 -0.8237
C8 C 0.16576(18) -0.5543(7) -0.8806(3)
H11 H 0.1865 -0.5700 -0.8887
C9 C 0.10426(18) -0.1958(8) -0.7282(3)
H12 H 0.0842 -0.1512 -0.7270
C10 C 0.10440(19) -0.2728(8) -0.7753(3)
H13 H 0.0848 -0.2781 -0.8046
C11 C 0.13295(17) -0.3405(7) -0.7789(3)
C12 C 0.1611(2) -0.3213(11) -0.7365(4)
H14 H 0.1818 -0.3594 -0.7382
C13 C 0.1588(2) -0.2442(11) -0.6906(4)
H15 H 0.1784 -0.2349 -0.6614
C14 C 0.0484(2) 0.2531(9) -0.4722(4)
H16 H 0.0517 0.1719 -0.4516
C15 C 0.0205(2) 0.3339(9) -0.4710(5)
H17 H 0.0055 0.3052 -0.4506
C16 C 0.01501(14) 0.4554(6) -0.4996(3)
C17 C 0.03937(18) 0.4920(7) -0.5251(4)
H18 H 0.0380 0.5768 -0.5431
C18 C 0.06604(19) 0.4052(7) -0.5246(4)
H19 H 0.0822 0.4348 -0.5427
C19 C 0.16019(15) 0.3601(6) -0.5118(3)
H20 H 0.1428 0.4015 -0.5388
C20 C 0.19227(15) 0.4215(6) -0.4994(3)
H21 H 0.1961 0.5002 -0.5183
C21 C 0.21840(14) 0.3626(5) -0.4582(2)
C22 C 0.21056(15) 0.2474(7) -0.4314(3)
H22 H 0.2271 0.2060 -0.4029
C23 C 0.17807(15) 0.1941(7) -0.4471(3)
H23 H 0.1734 0.1166 -0.4284
C24 C 0.20690(15) -0.1029(6) -0.5588(3)
H24 H 0.2030 -0.1942 -0.5510
C25 C 0.23956(15) -0.0570(6) -0.5455(3)
H25 H 0.2573 -0.1168 -0.5296
C26 C 0.25340(14) 0.4192(6) -0.4441(2)
C27 C 0.28139(15) 0.3376(6) -0.4212(3)
H26 H 0.2784 0.2449 -0.4142
C28 C 0.18638(16) 0.1066(6) -0.5914(3)
H27 H 0.1680 0.1638 -0.6071
C29 C 0.2219(2) -0.1347(7) -0.4145(3)
W1F W 0.410090(5) 0.61744(2) -0.460930(10)
Cu1F Cu 0.354620(19) 0.70911(8) -0.53899(3)
Cu1E Cu 0.145380(19) -0.79089(8) -0.96101(3)
Cu2F Cu 0.392340(17) 0.35447(7) -0.49028(3)
Cu2D Cu -0.107660(17) 0.85447(7) -0.49028(3)
Cu3F Cu 0.369360(18) 0.60410(7) -0.39129(3)
Cu3C Cu 0.369360(18) 1.39590(7) -0.89129(3)
S1F S 0.39221(4) 0.53820(15) -0.54943(6)
S2F S 0.40836(4) 0.44296(14) -0.40089(6)
S3F S 0.37431(4) 0.78525(14) -0.44859(7)
S4F S 0.23882(5) 0.5795(2) -0.61019(11)
O2F O 0.45087(11) 0.6817(5) -0.4481(2)
N2F N 0.30546(14) 0.6721(6) -0.5688(2)
N3F N 0.13870(15) -0.3722(5) -0.4083(2)
N3C N 0.13870(15) -0.6278(5) -0.9083(2)
N4F N 0.36924(13) 0.6827(6) -0.3145(2)
N4C N 0.36924(13) 1.3173(6) -0.8145(2)
N5F N 0.42951(12) 0.2157(5) -0.4991(2)
N5D N -0.07049(12) 0.7157(5) -0.4991(2)
N6F N 0.34699(11) 0.2531(5) -0.5124(2)
N7F N 0.31996(11) 0.5251(5) -0.41760(19)
C4C C 0.39077(19) 0.8984(7) -0.6037(3)
H8C H 0.4100 0.8503 -0.5844
C5C C 0.39419(18) 0.9952(7) -0.6440(3)
H9C H 0.4153 1.0107 -0.6508
C6C C 0.36575(17) 1.0677(7) -0.6736(3)
C7C C 0.33561(18) 1.0436(7) -0.6592(3)
H10C H 0.3162 1.0935 -0.6763
C8C C 0.33424(18) 0.9457(7) -0.6194(3)
H11C H 0.3135 0.9300 -0.6113
C9C C 0.39574(18) 1.3042(8) -0.7718(3)
H12C H 0.4158 1.3488 -0.7730
C10C C 0.39560(19) 1.2272(8) -0.7247(3)
H13C H 0.4152 1.2219 -0.6954
C11C C 0.36705(17) 1.1595(7) -0.7211(3)
C12C C 0.3389(2) 1.1787(11) -0.7635(4)
H14C H 0.3182 1.1406 -0.7618
C13C C 0.3412(2) 1.2558(11) -0.8094(4)
H15C H 0.3216 1.2651 -0.8386
C14D C -0.0484(2) 0.7469(9) -0.5278(4)
H16D H -0.0517 0.8281 -0.5484
C15D C -0.0205(2) 0.6661(9) -0.5290(5)
H17D H -0.0055 0.6948 -0.5494
C16D C -0.01501(14) 0.5446(6) -0.5004(3)
C17D C -0.03937(18) 0.5080(7) -0.4749(4)
H18D H -0.0380 0.4232 -0.4569
C18D C -0.06604(19) 0.5948(7) -0.4754(4)
H19D H -0.0822 0.5652 -0.4573
C19F C 0.33981(15) 0.1399(6) -0.4882(3)
H20F H 0.3572 0.0985 -0.4612
C20F C 0.30773(15) 0.0785(6) -0.5006(3)
H21F H 0.3039 -0.0002 -0.4817
C21F C 0.28160(14) 0.1374(5) -0.5418(2)
C22F C 0.28944(15) 0.2526(7) -0.5686(3)
H22F H 0.2729 0.2940 -0.5971
C23F C 0.32193(15) 0.3059(7) -0.5529(3)
H23F H 0.3266 0.3834 -0.5716
C24F C 0.29310(15) 0.6029(6) -0.4412(3)
H24F H 0.2970 0.6942 -0.4490
C25F C 0.26044(15) 0.5570(6) -0.4545(3)
H25F H 0.2427 0.6168 -0.4704
C26F C 0.24660(14) 0.0808(6) -0.5559(2)
C27F C 0.21861(15) 0.1624(6) -0.5788(3)
H26F H 0.2216 0.2551 -0.5858
C28F C 0.31362(16) 0.3934(6) -0.4086(3)
H27F H 0.3320 0.3362 -0.3929
C29F C 0.2781(2) 0.6347(7) -0.5855(3)
C30 C 1.0068(6) -0.549(2) -0.3314(6)
H28 H 1.0105 -0.6422 -0.3351
C31 C 0.9509(6) -0.606(2) -0.3212(10)
H29 H 0.9313 -0.5895 -0.3518
H30 H 0.9448 -0.5935 -0.2865
H31 H 0.9588 -0.6983 -0.3232
C32 C 0.9712(6) -0.361(2) -0.3179(12)
H32 H 0.9878 -0.3074 -0.3298
H33 H 0.9724 -0.3413 -0.2794
H34 H 0.9489 -0.3388 -0.3406
N8 N 0.9779(5) -0.5085(19) -0.3240(5)
O3 O 1.0281(4) -0.470(2) -0.3336(7)
C33 C 0.2622(4) -0.6495(19) -0.2460(8)
H35 H 0.2690 -0.7075 -0.2152
C34 C 0.2668(6) -0.444(2) -0.2966(8)
H36 H 0.2462 -0.4804 -0.3211
H37 H 0.2842 -0.4401 -0.3163
H38 H 0.2625 -0.3537 -0.2846
C35 C 0.3070(4) -0.490(2) -0.2022(7)
H39 H 0.3031 -0.5141 -0.1668
H40 H 0.3094 -0.3915 -0.2041
H41 H 0.3274 -0.5335 -0.2062
N9 N 0.2779(3) -0.5352(13) -0.2475(5)
O4 O 0.2391(3) -0.6804(13) -0.2836(5)
loop_
_geom_bond_atom_site_label_1
_geom_bond_atom_site_label_2
_geom_bond_site_symmetry_1
_geom_bond_site_symmetry_2
O1 C1 1_555 1_555
N1 C1 1_555 1_555
C1 H1 1_555 1_555
C2 N1 1_555 1_555
H2 C2 1_555 1_555
H3 C2 1_555 1_555
H4 C2 1_555 1_555
C3 N1 1_555 1_555
H5 C3 1_555 1_555
H6 C3 1_555 1_555
H7 C3 1_555 1_555
W1 Cu1 1_555 1_555
Cu1 S1 1_555 1_555
Cu2 W1 1_555 1_555
Cu3 W1 1_555 1_555
S1 W1 1_555 1_555
S2 W1 1_555 1_555
S3 W1 1_555 1_555
S4 C29 1_555 1_555
O2 W1 1_555 1_555
N2 Cu1 1_555 1_555
N3 Cu1F 1_555 1_555
N4 Cu3 1_555 1_555
N5 Cu2 1_555 1_555
N6 Cu2 1_555 1_555
N7 Cu3 1_555 1_555
C4 H8 1_555 1_555
C5 C4 1_555 1_555
H9 C5 1_555 1_555
C6 C5 1_555 1_555
C7 C6 1_555 1_555
H10 C7 1_555 1_555
C8 C7 1_555 1_555
H11 C8 1_555 1_555
C9 N4 1_555 1_555
H12 C9 1_555 1_555
C10 C9 1_555 1_555
H13 C10 1_555 1_555
C11 C6 1_555 1_555
C12 C11 1_555 1_555
H14 C12 1_555 1_555
C13 N4 1_555 1_555
H15 C13 1_555 1_555
C14 N5 1_555 1_555
H16 C14 1_555 1_555
C15 C14 1_555 1_555
H17 C15 1_555 1_555
C16 C15 1_555 1_555
C17 C16 1_555 1_555
H18 C17 1_555 1_555
C18 N5 1_555 1_555
H19 C18 1_555 1_555
C19 N6 1_555 1_555
H20 C19 1_555 1_555
C20 C19 1_555 1_555
H21 C20 1_555 1_555
C21 C20 1_555 1_555
C22 C21 1_555 1_555
H22 C22 1_555 1_555
C23 N6 1_555 1_555
H23 C23 1_555 1_555
C24 N7 1_555 1_555
H24 C24 1_555 1_555
C25 C24 1_555 1_555
H25 C25 1_555 1_555
C26 C21 1_555 1_555
C27 C26 1_555 1_555
H26 C27 1_555 1_555
C28 N7 1_555 1_555
H27 C28 1_555 1_555
C29 N2 1_555 1_555
C30 H28 1_555 1_555
C31 H29 1_555 1_555
H30 C31 1_555 1_555
H31 C31 1_555 1_555
C32 H32 1_555 1_555
H33 C32 1_555 1_555
H34 C32 1_555 1_555
C33 H35 1_555 1_555
C34 H36 1_555 1_555
H37 C34 1_555 1_555
H38 C34 1_555 1_555
C35 H39 1_555 1_555
H40 C35 1_555 1_555
H41 C35 1_555 1_555
N8 C30 1_555 1_555
N9 C33 1_555 1_555
O3 C30 1_555 1_555
O4 C33 1_555 1_555
W1F Cu1F 1_555 1_555
Cu1F S1F 1_555 1_555
Cu1E N3C 1_555 1_555
Cu2F W1F 1_555 1_555
Cu2D N5D 1_555 1_555
Cu3F W1F 1_555 1_555
Cu3C N4C 1_555 1_555
S1F W1F 1_555 1_555
S2F W1F 1_555 1_555
S3F W1F 1_555 1_555
S4F C29F 1_555 1_555
O2F W1F 1_555 1_555
N2F Cu1F 1_555 1_555
N3F Cu1 1_555 1_555
N3C C4 1_555 1_555
N4F Cu3F 1_555 1_555
N4C C9C 1_555 1_555
N5F Cu2F 1_555 1_555
N5D C14D 1_555 1_555
N6F Cu2F 1_555 1_555
N7F Cu3F 1_555 1_555
C4C N3 1_555 1_555
H8C C4C 1_555 1_555
C5C C4C 1_555 1_555
H9C C5C 1_555 1_555
C6C C5C 1_555 1_555
C7C C6C 1_555 1_555
H10C C7C 1_555 1_555
C8C N3 1_555 1_555
H11C C8C 1_555 1_555
C9C H12C 1_555 1_555
C10C C9C 1_555 1_555
H13C C10C 1_555 1_555
C11C C6C 1_555 1_555
C12C C11C 1_555 1_555
H14C C12C 1_555 1_555
C13C N4C 1_555 1_555
H15C C13C 1_555 1_555
C14D H16D 1_555 1_555
C15D C14D 1_555 1_555
H17D C15D 1_555 1_555
C16D C16 1_555 1_555
C17D C16D 1_555 1_555
H18D C17D 1_555 1_555
C18D N5D 1_555 1_555
H19D C18D 1_555 1_555
C19F N6F 1_555 1_555
H20F C19F 1_555 1_555
C20F C19F 1_555 1_555
H21F C20F 1_555 1_555
C21F C20F 1_555 1_555
C22F C21F 1_555 1_555
H22F C22F 1_555 1_555
C23F N6F 1_555 1_555
H23F C23F 1_555 1_555
C24F N7F 1_555 1_555
H24F C24F 1_555 1_555
C25F C26 1_555 1_555
H25F C25F 1_555 1_555
C26F C25 1_555 1_555
C27F C28 1_555 1_555
H26F C27F 1_555 1_555
C28F C27 1_555 1_555
H27F C28F 1_555 1_555
C29F N2F 1_555 1_555
Cu1 S3 1_555 1_555
Cu2 S1 1_555 1_555
Cu2 S2 1_555 1_555
Cu3 S2 1_555 1_555
Cu3 S3 1_555 1_555
C8 N3C 1_555 1_555
C10 C11 1_555 1_555
C12 C13 1_555 1_555
C17 C18 1_555 1_555
C22 C23 1_555 1_555
C31 N8 1_555 1_555
C32 N8 1_555 1_555
C34 N9 1_555 1_555
C35 N9 1_555 1_555
Cu1F S3F 1_555 1_555
Cu2F S1F 1_555 1_555
Cu2F S2F 1_555 1_555
Cu3F S2F 1_555 1_555
Cu3F S3F 1_555 1_555
N7F C28F 1_555 1_555
C7C C8C 1_555 1_555
C10C C11C 1_555 1_555
C12C C13C 1_555 1_555
C15D C16D 1_555 1_555
C17D C18D 1_555 1_555
C21F C26F 1_555 1_555
C22F C23F 1_555 1_555
C24F C25F 1_555 1_555
C26F C27F 1_555 1_555

#END
