
#######################################################################
#
#                 Cambridge Crystallographic Data Centre
#                                CCDC 
#
#######################################################################
#
# If this CIF has been generated from an entry in the Cambridge 
# Structural Database, then it will include bibliographic, chemical, 
# crystal, experimental, refinement or atomic coordinate data resulting 
# from the CCDC's data processing and validation procedures.
#
#######################################################################

data_JODGOA
_chemical_formula_moiety         '(C56 H40 Co2 N4 O8)n'
_symmetry_cell_setting           orthorhombic
_symmetry_space_group_name_H-M   'F 2 2 2'
_symmetry_Int_Tables_number      22
_space_group_name_Hall           'F 2 2'
loop_
_symmetry_equiv_pos_site_id
_symmetry_equiv_pos_as_xyz
1 x,y,z
2 -x,-y,z
3 x,-y,-z
4 -x,y,-z
5 x,1/2+y,1/2+z
6 -x,1/2-y,1/2+z
7 x,1/2-y,1/2-z
8 -x,1/2+y,1/2-z
9 1/2+x,y,1/2+z
10 1/2-x,-y,1/2+z
11 1/2+x,-y,1/2-z
12 1/2-x,y,1/2-z
13 1/2+x,1/2+y,z
14 1/2-x,1/2-y,z
15 1/2+x,1/2-y,-z
16 1/2-x,1/2+y,-z
_cell_length_a                   12.8020(3)
_cell_length_b                   34.9232(8)
_cell_length_c                   43.7551(9)
_cell_angle_alpha                90
_cell_angle_beta                 90
_cell_angle_gamma                90
_cell_volume                     19562.3
loop_
_atom_site_label
_atom_site_type_symbol
_atom_site_fract_x
_atom_site_fract_y
_atom_site_fract_z
_atom_site_U_iso_or_equiv
_atom_site_thermal_displace_type
Co1 Co 0.2500 0.7500 0.504494(14) 0.0345 Uani
Co2 Co 0.7500 0.505474(19) 0.2500 0.0330 Uani
O1 O 0.7653(3) 0.55140(9) 0.28533(7) 0.0571 Uani
N1 N 0.3305(3) 0.71703(10) 0.47315(7) 0.0502 Uani
O2 O 0.2713(3) 0.70525(12) 0.54119(8) 0.0736 Uani
N2 N -0.1726(3) 0.53338(11) 0.72172(8) 0.0523 Uani
C1 C 0.6151(4) 0.56793(13) 0.31575(9) 0.0517 Uani
O3 O 0.6232(2) 0.51792(9) 0.27757(6) 0.0563 Uani
O4 O 0.1264(3) 0.71512(10) 0.51783(8) 0.0665 Uani
C2 C 0.4931(4) 0.65646(15) 0.40338(12) 0.0610 Uani
H1 H 0.5629 0.6645 0.3996 0.0730 Uiso
C3 C -0.0023(5) 0.59975(19) 0.65631(14) 0.0777 Uani
H2 H 0.0710 0.6018 0.6592 0.0930 Uiso
C4 C 0.1212(3) 0.67813(13) 0.56309(10) 0.0600 Uani
C5 C 0.6724(3) 0.54502(12) 0.29110(9) 0.0467 Uani
C6 C 0.0161(4) 0.63706(16) 0.60883(13) 0.0733 Uani
C7 C 0.4567(4) 0.62831(14) 0.38636(11) 0.0593 Uani
H3 H 0.3874 0.6200 0.3904 0.0710 Uiso
C8 C -0.0720(4) 0.54021(15) 0.72515(11) 0.0640 Uani
H4 H -0.0370 0.5302 0.7426 0.0770 Uiso
C9 C 0.6655(4) 0.59751(14) 0.33005(11) 0.0643 Uani
H5 H 0.7348 0.6041 0.3243 0.0770 Uiso
C10 C 0.5134(4) 0.60867(16) 0.36175(11) 0.0607 Uani
C11 C 0.4359(4) 0.67643(14) 0.42751(10) 0.0590 Uani
C12 C 0.2839(4) 0.68819(14) 0.45816(11) 0.0600 Uani
H6 H 0.2137 0.6820 0.4632 0.0720 Uiso
C13 C 0.5155(4) 0.55734(15) 0.32303(11) 0.0600 Uani
H7 H 0.4813 0.5368 0.3129 0.0720 Uiso
C14 C 0.1237(6) 0.6295(2) 0.60385(18) 0.0500 Uiso
H8 H 0.1595 0.6106 0.6154 0.0600 Uiso
C15 C -0.0151(4) 0.56182(18) 0.70383(13) 0.0743 Uani
H9 H 0.0579 0.5655 0.7065 0.0890 Uiso
C16 C -0.0643(4) 0.57721(17) 0.67963(12) 0.0743 Uani
C17 C 0.3338(4) 0.66693(15) 0.43554(11) 0.0650 Uani
H10 H 0.2988 0.6463 0.4257 0.0780 Uiso
C18 C 0.6146(4) 0.61792(14) 0.35309(12) 0.0647 Uani
H11 H 0.6497 0.6384 0.3630 0.0780 Uiso
C19 C 0.4653(4) 0.57862(15) 0.34662(11) 0.0630 Uani
H12 H 0.3960 0.5719 0.3522 0.0760 Uiso
C20 C 0.4244(4) 0.72686(13) 0.46553(9) 0.0530 Uani
H13 H 0.4559 0.7483 0.4752 0.0640 Uiso
C21 C -0.2201(4) 0.5528(2) 0.70024(15) 0.1097 Uani
H14 H -0.2941 0.5510 0.6993 0.1320 Uiso
C22 C -0.1729(4) 0.5750(2) 0.67960(17) 0.1127 Uani
H15 H -0.2127 0.5891 0.6651 0.1350 Uiso
C23 C -0.0427(5) 0.6164(2) 0.63269(16) 0.0983 Uani
H16 H -0.1165 0.6153 0.6305 0.1180 Uiso
C24 C 0.1754(7) 0.6509(2) 0.58134(15) 0.0500 Uiso
H17 H 0.2481 0.6471 0.5782 0.0600 Uiso
C25 C 0.4820(4) 0.70616(14) 0.44277(11) 0.0610 Uani
H18 H 0.5521 0.7131 0.4383 0.0730 Uiso
C26 C 0.1748(3) 0.70150(13) 0.53882(10) 0.0490 Uani
C27 C 0.0169(6) 0.6848(3) 0.5698(2) 0.0640 Uiso
H19 H -0.0192 0.7041 0.5588 0.0770 Uiso
C28 C -0.0363(9) 0.6645(3) 0.5917(2) 0.0740 Uiso
H20 H -0.1084 0.6693 0.5951 0.0880 Uiso
O1K O 0.7347(3) 0.55140(9) 0.21467(7) 0.0571 Uani
N1K N 1.1695(3) 0.71703(10) 0.02685(7) 0.0502 Uani
C1K C 0.8849(4) 0.56793(13) 0.18425(9) 0.0517 Uani
O3K O 0.8768(2) 0.51792(9) 0.22243(6) 0.0563 Uani
C2K C 1.0069(4) 0.65646(15) 0.09662(12) 0.0610 Uani
H1K H 0.9371 0.6645 0.1004 0.0730 Uiso
C5K C 0.8276(3) 0.54502(12) 0.20890(9) 0.0467 Uani
C7K C 1.0433(4) 0.62831(14) 0.11364(11) 0.0593 Uani
H3K H 1.1126 0.6200 0.1096 0.0710 Uiso
C9K C 0.8345(4) 0.59751(14) 0.16995(11) 0.0643 Uani
H5K H 0.7652 0.6041 0.1757 0.0770 Uiso
C10K C 0.9866(4) 0.60867(16) 0.13825(11) 0.0607 Uani
C11K C 1.0641(4) 0.67643(14) 0.07249(10) 0.0590 Uani
C12K C 1.2161(4) 0.68819(14) 0.04184(11) 0.0600 Uani
H6K H 1.2863 0.6820 0.0368 0.0720 Uiso
C13K C 0.9845(4) 0.55734(15) 0.17697(11) 0.0600 Uani
H7K H 1.0187 0.5368 0.1871 0.0720 Uiso
C17K C 1.1662(4) 0.66693(15) 0.06446(11) 0.0650 Uani
H10K H 1.2012 0.6463 0.0743 0.0780 Uiso
C18K C 0.8854(4) 0.61792(14) 0.14691(12) 0.0647 Uani
H11K H 0.8503 0.6384 0.1370 0.0780 Uiso
C19K C 1.0347(4) 0.57862(15) 0.15338(11) 0.0630 Uani
H12K H 1.1040 0.5719 0.1478 0.0760 Uiso
C20K C 1.0756(4) 0.72686(13) 0.03447(9) 0.0530 Uani
H13K H 1.0441 0.7483 0.0248 0.0640 Uiso
C25K C 1.0180(4) 0.70616(14) 0.05723(11) 0.0610 Uani
H18K H 0.9479 0.7131 0.0617 0.0730 Uiso
O2M O 0.2287(3) 0.79475(12) 0.54119(8) 0.0736 Uani
N2M N 0.6726(3) 0.96662(11) 0.72172(8) 0.0523 Uani
O4M O 0.3736(3) 0.78488(10) 0.51783(8) 0.0665 Uani
C3M C 0.5023(5) 0.90025(19) 0.65631(14) 0.0777 Uani
H2M H 0.4290 0.8982 0.6592 0.0930 Uiso
C4M C 0.3788(3) 0.82187(13) 0.56309(10) 0.0600 Uani
C6M C 0.4839(4) 0.86294(16) 0.60883(13) 0.0733 Uani
C8M C 0.5720(4) 0.95979(15) 0.72515(11) 0.0640 Uani
H4M H 0.5370 0.9698 0.7426 0.0770 Uiso
C14M C 0.3763(6) 0.8705(2) 0.60385(18) 0.0500 Uiso
H8M H 0.3405 0.8894 0.6154 0.0600 Uiso
C15M C 0.5151(4) 0.93818(18) 0.70383(13) 0.0743 Uani
H9M H 0.4421 0.9345 0.7065 0.0890 Uiso
C16M C 0.5643(4) 0.92279(17) 0.67963(12) 0.0743 Uani
C21M C 0.7201(4) 0.9472(2) 0.70024(15) 0.1097 Uani
H14M H 0.7941 0.9490 0.6993 0.1320 Uiso
C22M C 0.6729(4) 0.9250(2) 0.67960(17) 0.1127 Uani
H15M H 0.7127 0.9109 0.6651 0.1350 Uiso
C23M C 0.5427(5) 0.8836(2) 0.63269(16) 0.0983 Uani
H16M H 0.6165 0.8847 0.6305 0.1180 Uiso
C24M C 0.3246(7) 0.8491(2) 0.58134(15) 0.0500 Uiso
H17M H 0.2519 0.8529 0.5782 0.0600 Uiso
C26M C 0.3252(3) 0.79850(13) 0.53882(10) 0.0490 Uani
C27M C 0.4831(6) 0.8152(3) 0.5698(2) 0.0640 Uiso
H19M H 0.5192 0.7959 0.5588 0.0770 Uiso
C28M C 0.5363(9) 0.8355(3) 0.5917(2) 0.0740 Uiso
H20M H 0.6084 0.8307 0.5951 0.0880 Uiso
Co1F Co 1.2500 0.7500 -0.004494(14) 0.0345 Uani
Co2B Co -0.2500 0.494526(19) 0.7500 0.0330 Uani
Co2D Co 0.7500 1.005474(19) 0.7500 0.0330 Uani
N1M N 0.1695(3) 0.78297(10) 0.47315(7) 0.0502 Uani
N2B N 0.8274(3) 0.46662(11) 0.27828(8) 0.0523 Uani
N2I N 0.6726(3) 0.46662(11) 0.22172(8) 0.0523 Uani
loop_
_atom_site_aniso_label
_atom_site_aniso_U_11
_atom_site_aniso_U_22
_atom_site_aniso_U_33
_atom_site_aniso_U_23
_atom_site_aniso_U_13
_atom_site_aniso_U_12
Co1 0.0254(4) 0.0556(4) 0.0226(3) 0.000 0.000 0.0026(5)
Co2 0.0249(4) 0.0372(3) 0.0370(4) 0.000 0.0015(4) 0.000
O1 0.0371(17) 0.0717(18) 0.0625(16) -0.0098(14) -0.0003(15) -0.0108(15)
N1 0.0305(18) 0.076(2) 0.0442(17) 0.0058(16) 0.0029(15) 0.0151(17)
O2 0.038(2) 0.123(3) 0.0597(18) 0.0321(19) 0.0014(15) -0.0118(18)
N2 0.0329(19) 0.063(2) 0.061(2) 0.0088(16) 0.0049(17) 0.0041(16)
C1 0.044(2) 0.067(3) 0.044(2) -0.0113(18) -0.0035(18) -0.007(2)
O3 0.0386(16) 0.087(2) 0.0433(15) -0.0205(14) 0.0014(13) -0.0079(15)
O4 0.0394(18) 0.083(2) 0.077(2) 0.0302(17) -0.0005(16) 0.0035(15)
C2 0.029(2) 0.087(3) 0.067(3) -0.028(3) 0.005(2) 0.007(2)
C3 0.047(3) 0.109(4) 0.077(4) 0.012(3) 0.004(3) -0.023(3)
C4 0.043(2) 0.071(3) 0.066(3) 0.019(2) 0.000(2) 0.005(2)
C5 0.029(2) 0.061(2) 0.050(2) 0.0084(19) 0.0056(18) -0.0068(19)
C6 0.044(3) 0.089(4) 0.087(4) 0.034(3) 0.000(3) -0.010(3)
C7 0.038(2) 0.076(3) 0.064(3) -0.018(2) 0.001(2) -0.002(2)
C8 0.052(3) 0.081(3) 0.059(3) 0.020(2) -0.015(2) 0.011(2)
C9 0.036(2) 0.076(3) 0.081(3) -0.023(3) 0.005(2) -0.002(2)
C10 0.045(3) 0.086(3) 0.051(3) -0.010(2) -0.001(2) -0.001(2)
C11 0.044(3) 0.081(3) 0.052(2) -0.017(2) 0.003(2) 0.002(2)
C12 0.048(3) 0.073(3) 0.059(3) -0.015(2) -0.001(2) -0.015(2)
C13 0.037(2) 0.086(3) 0.057(3) -0.011(2) 0.0073(19) 0.009(2)
C15 0.031(2) 0.116(4) 0.076(3) 0.020(3) -0.005(2) -0.006(3)
C16 0.060(3) 0.099(4) 0.064(3) 0.029(3) -0.006(3) 0.004(3)
C17 0.043(3) 0.090(3) 0.062(3) -0.028(2) 0.010(2) -0.006(2)
C18 0.042(2) 0.075(3) 0.077(3) -0.034(2) -0.002(2) -0.011(2)
C19 0.033(2) 0.093(3) 0.063(3) -0.031(3) 0.005(2) 0.001(2)
C20 0.046(2) 0.067(3) 0.046(2) -0.0022(19) -0.0091(19) -0.016(2)
C21 0.026(3) 0.191(7) 0.112(5) 0.093(5) -0.017(3) -0.019(3)
C22 0.045(3) 0.150(6) 0.143(6) 0.082(5) -0.034(4) -0.025(4)
C23 0.040(3) 0.140(5) 0.115(5) 0.077(5) -0.006(3) -0.008(3)
C25 0.035(2) 0.080(3) 0.068(3) -0.018(2) 0.005(2) -0.006(2)
C26 0.029(2) 0.067(3) 0.051(2) 0.0013(19) -0.0141(18) 0.0022(19)
O1K 0.0371 0.0717 0.0625 0.0098 -0.0003 0.0108
N1K 0.0305 0.076 0.0442 -0.0058 0.0029 -0.0151
C1K 0.044 0.067 0.044 0.0113 -0.0035 0.007
O3K 0.0386 0.087 0.0433 0.0205 0.0014 0.0079
C2K 0.029 0.087 0.067 0.028 0.005 -0.007
C5K 0.029 0.061 0.05 -0.0084 0.0056 0.0068
C7K 0.038 0.076 0.064 0.018 0.001 0.002
C9K 0.036 0.076 0.081 0.023 0.005 0.002
C10K 0.045 0.086 0.051 0.01 -0.001 0.001
C11K 0.044 0.081 0.052 0.017 0.003 -0.002
C12K 0.048 0.073 0.059 0.015 -0.001 0.015
C13K 0.037 0.086 0.057 0.011 0.0073 -0.009
C17K 0.043 0.09 0.062 0.028 0.01 0.006
C18K 0.042 0.075 0.077 0.034 -0.002 0.011
C19K 0.033 0.093 0.063 0.031 0.005 -0.001
C20K 0.046 0.067 0.046 0.0022 -0.0091 0.016
C25K 0.035 0.08 0.068 0.018 0.005 0.006
O2M 0.038 0.123 0.0597 -0.0321 -0.0014 -0.0118
N2M 0.0329 0.063 0.061 -0.0088 -0.0049 0.0041
O4M 0.0394 0.083 0.077 -0.0302 0.0005 0.0035
C3M 0.047 0.109 0.077 -0.012 -0.004 -0.023
C4M 0.043 0.071 0.066 -0.019 0 0.005
C6M 0.044 0.089 0.087 -0.034 0 -0.01
C8M 0.052 0.081 0.059 -0.02 0.015 0.011
C15M 0.031 0.116 0.076 -0.02 0.005 -0.006
C16M 0.06 0.099 0.064 -0.029 0.006 0.004
C21M 0.026 0.191 0.112 -0.093 0.017 -0.019
C22M 0.045 0.15 0.143 -0.082 0.034 -0.025
C23M 0.04 0.14 0.115 -0.077 0.006 -0.008
C26M 0.029 0.067 0.051 -0.0013 0.0141 0.0022
Co1F 0.0254 0.0556 0.0226 0 0 -0.0026
Co2B 0.0249 0.0372 0.037 0 -0.0015 0
Co2D 0.0249 0.0372 0.037 0 0.0015 0
N1M 0.0305 0.076 0.0442 -0.0058 -0.0029 0.0151
N2B 0.0329 0.063 0.061 0.0088 -0.0049 -0.0041
N2I 0.0329 0.063 0.061 -0.0088 -0.0049 0.0041
loop_
_geom_bond_atom_site_label_1
_geom_bond_atom_site_label_2
_geom_bond_site_symmetry_1
_geom_bond_site_symmetry_2
Co1 N1 1_555 1_555
Co2 O1 1_555 1_555
O1 C5 1_555 1_555
N1 C12 1_555 1_555
O2 Co1 1_555 1_555
N2 C8 1_555 1_555
C1 C5 1_555 1_555
O3 Co2 1_555 1_555
O4 Co1 1_555 1_555
C2 H1 1_555 1_555
C3 H2 1_555 1_555
C4 C24 1_555 1_555
C5 O3 1_555 1_555
C6 C14 1_555 1_555
C7 C2 1_555 1_555
H3 C7 1_555 1_555
C8 H4 1_555 1_555
C9 C1 1_555 1_555
H5 C9 1_555 1_555
C10 C7 1_555 1_555
C11 C2 1_555 1_555
C12 H6 1_555 1_555
C13 C1 1_555 1_555
H7 C13 1_555 1_555
C14 H8 1_555 1_555
C15 C8 1_555 1_555
H9 C15 1_555 1_555
C16 C3 1_555 1_555
C17 C11 1_555 1_555
H10 C17 1_555 1_555
C18 C9 1_555 1_555
H11 C18 1_555 1_555
C19 C10 1_555 1_555
H12 C19 1_555 1_555
C20 N1 1_555 1_555
H13 C20 1_555 1_555
C21 N2 1_555 1_555
H14 C21 1_555 1_555
C22 C16 1_555 1_555
H15 C22 1_555 1_555
C23 C3 1_555 1_555
H16 C23 1_555 1_555
C24 C14 1_555 1_555
H17 C24 1_555 1_555
C25 C11 1_555 1_555
H18 C25 1_555 1_555
C26 O2 1_555 1_555
C27 C4 1_555 1_555
H19 C27 1_555 1_555
C28 C6 1_555 1_555
H20 C28 1_555 1_555
O1K Co2 1_555 1_555
N1K C12K 1_555 1_555
C1K C5K 1_555 1_555
O3K Co2 1_555 1_555
C2K H1K 1_555 1_555
C5K O1K 1_555 1_555
C7K C2K 1_555 1_555
H3K C7K 1_555 1_555
C9K C1K 1_555 1_555
H5K C9K 1_555 1_555
C10K C7K 1_555 1_555
C11K C2K 1_555 1_555
C12K H6K 1_555 1_555
C13K C1K 1_555 1_555
H7K C13K 1_555 1_555
C17K C11K 1_555 1_555
H10K C17K 1_555 1_555
C18K C9K 1_555 1_555
H11K C18K 1_555 1_555
C19K C10K 1_555 1_555
H12K C19K 1_555 1_555
C20K N1K 1_555 1_555
H13K C20K 1_555 1_555
C25K C11K 1_555 1_555
H18K C25K 1_555 1_555
O2M Co1 1_555 1_555
N2M C8M 1_555 1_555
O4M Co1 1_555 1_555
C3M H2M 1_555 1_555
C4M C24M 1_555 1_555
C6M C14M 1_555 1_555
C8M H4M 1_555 1_555
C14M H8M 1_555 1_555
C15M C8M 1_555 1_555
H9M C15M 1_555 1_555
C16M C3M 1_555 1_555
C21M N2M 1_555 1_555
H14M C21M 1_555 1_555
C22M C16M 1_555 1_555
H15M C22M 1_555 1_555
C23M C3M 1_555 1_555
H16M C23M 1_555 1_555
C24M C14M 1_555 1_555
H17M C24M 1_555 1_555
C26M O2M 1_555 1_555
C27M C4M 1_555 1_555
H19M C27M 1_555 1_555
C28M C6M 1_555 1_555
H20M C28M 1_555 1_555
Co1F N1K 1_555 1_555
Co2B N2 1_555 1_555
Co2D N2M 1_555 1_555
N1M Co1 1_555 1_555
N2B Co2 1_555 1_555
N2I Co2 1_555 1_555
O4 C26 1_555 1_555
C4 C26 1_555 1_555
C6 C23 1_555 1_555
C10 C18 1_555 1_555
C12 C17 1_555 1_555
C13 C19 1_555 1_555
C15 C16 1_555 1_555
C20 C25 1_555 1_555
C21 C22 1_555 1_555
C27 C28 1_555 1_555
O3K C5K 1_555 1_555
C10K C18K 1_555 1_555
C12K C17K 1_555 1_555
C13K C19K 1_555 1_555
C20K C25K 1_555 1_555
O4M C26M 1_555 1_555
C4M C26M 1_555 1_555
C6M C23M 1_555 1_555
C15M C16M 1_555 1_555
C21M C22M 1_555 1_555
C27M C28M 1_555 1_555

#END
