
#######################################################################
#
#                 Cambridge Crystallographic Data Centre
#                                CCDC 
#
#######################################################################
#
# If this CIF has been generated from an entry in the Cambridge 
# Structural Database, then it will include bibliographic, chemical, 
# crystal, experimental, refinement or atomic coordinate data resulting 
# from the CCDC's data processing and validation procedures.
#
#######################################################################

data_OCILOE
_chemical_formula_moiety         '(C82 H74 B20 Co3 N4 O16)n'
_symmetry_cell_setting           triclinic
_symmetry_space_group_name_H-M   'P -1'
_symmetry_Int_Tables_number      2
_space_group_name_Hall           '-P 1'
loop_
_symmetry_equiv_pos_site_id
_symmetry_equiv_pos_as_xyz
1 x,y,z
2 -x,-y,-z
_cell_length_a                   14.9086(4)
_cell_length_b                   15.3237(4)
_cell_length_c                   15.6621(5)
_cell_angle_alpha                67.5200(10)
_cell_angle_beta                 62.9120(10)
_cell_angle_gamma                69.2370(10)
_cell_volume                     2871.89
loop_
_atom_site_label
_atom_site_type_symbol
_atom_site_fract_x
_atom_site_fract_y
_atom_site_fract_z
B1 B 0.37557(17) 0.88783(14) 0.80340(16)
H1 H 0.4527 0.8694 0.7445
B2 B 0.28293(19) 0.99382(16) 0.77864(18)
H2 H 0.2988 1.0468 0.7034
B3 B 0.20936(18) 1.03266(16) 0.88955(19)
H3 H 0.1763 1.1112 0.8873
B4 B 0.25836(16) 0.95114(16) 0.98209(17)
H4 H 0.2578 0.9761 1.0409
B5 B 0.36074(15) 0.86295(14) 0.92889(15)
H5 H 0.4284 0.8286 0.9530
B6 B 0.26110(17) 0.87817(15) 0.80262(17)
H6 H 0.2617 0.8533 0.7437
B7 B 0.15895(19) 0.96764(18) 0.8557(2)
H7 H 0.0918 1.0032 0.8310
B8 B 0.14355(17) 0.94039(18) 0.98297(19)
H8 H 0.0667 0.9573 1.0427
B9 B 0.23850(15) 0.83487(16) 1.00605(16)
H9 H 0.2251 0.7810 1.0807
B10 B 0.17601(16) 0.84521(17) 0.92838(18)
H10 H 0.1209 0.7987 0.9520
C1 C 0.33921(14) 0.97872(12) 0.85886(14)
C2 C 0.30823(13) 0.80430(12) 0.89473(13)
C3 C 0.42324(15) 1.03615(13) 0.82309(15)
H11 H 0.4501 1.0561 0.7487
C4 C 0.38298(15) 1.12795(13) 0.85751(14)
C5 C 0.3418(2) 1.21477(15) 0.80294(16)
H12 H 0.3354 1.2176 0.7443
C6 C 0.3098(2) 1.29809(14) 0.83440(16)
H13 H 0.2813 1.3570 0.7961
C7 C 0.35755(15) 1.21482(13) 0.96791(15)
H14 H 0.3639 1.2139 1.0259
C8 C 0.39050(16) 1.12878(13) 0.94193(16)
H15 H 0.4181 1.0706 0.9819
C9 C 0.35311(13) 0.69471(12) 0.89923(14)
H16 H 0.2985 0.6579 0.9490
C10 C 0.44532(13) 0.65704(11) 0.93093(13)
C11 C 0.54373(13) 0.66466(12) 0.86088(13)
H17 H 0.5553 0.6877 0.7919
C12 C 0.62454(13) 0.63839(12) 0.89250(13)
H18 H 0.6914 0.6447 0.8439
C13 C 0.51888(13) 0.59243(12) 1.05631(13)
H19 H 0.5102 0.5657 1.1245
C14 C 0.43336(13) 0.61767(12) 1.03053(14)
H20 H 0.3679 0.6081 1.0802
C15 C 0.89544(12) 0.43143(10) 0.91391(11)
C16 C 0.91133(12) 0.38155(11) 0.84041(11)
C17 C 0.99058(13) 0.30059(12) 0.82296(12)
H21 H 1.0401 0.2794 0.8530
C18 C 0.99748(13) 0.25074(11) 0.76188(12)
H22 H 1.0502 0.1940 0.7524
C19 C 0.92716(13) 0.28354(11) 0.71407(11)
C20 C 0.85090(13) 0.36808(12) 0.72780(12)
H23 H 0.8051 0.3930 0.6930
C21 C 0.84196(13) 0.41540(11) 0.79186(12)
H24 H 0.7883 0.4712 0.8029
C22 C 0.92734(13) 0.22789(11) 0.65438(12)
C23 C 0.93951(13) 0.12772(11) 0.68912(12)
H25 H 0.9556 0.0947 0.7472
C24 C 0.92859(13) 0.07478(11) 0.64034(12)
C25 C 0.90678(13) 0.12362(11) 0.55344(12)
H26 H 0.8996 0.0883 0.5194
C26 C 0.89559(13) 0.22411(11) 0.51668(11)
C27 C 0.90522(13) 0.27497(11) 0.56822(12)
H27 H 0.8965 0.3433 0.5440
C28 C 0.93180(13) -0.03014(11) 0.68772(12)
C29 C 0.99760(13) -0.08527(11) 0.74013(13)
H28 H 1.0487 -0.0585 0.7354
C30 C 0.98877(13) -0.17869(11) 0.79886(12)
H29 H 1.0339 -0.2154 0.8339
C31 C 0.91428(13) -0.21866(11) 0.80648(12)
C32 C 0.85272(15) -0.16640(12) 0.75026(14)
H30 H 0.8039 -0.1945 0.7527
C33 C 0.86227(15) -0.07326(12) 0.69056(14)
H31 H 0.8209 -0.0388 0.6513
C34 C 0.89766(12) -0.31528(11) 0.87887(11)
C35 C 0.86957(13) 0.27977(11) 0.42659(11)
C36 C 0.79643(14) 0.25926(12) 0.40874(12)
H32 H 0.7658 0.2056 0.4523
C37 C 0.76809(13) 0.31687(12) 0.32760(12)
H33 H 0.7178 0.3029 0.3164
C38 C 0.81352(12) 0.39503(11) 0.26282(11)
C39 C 0.88815(12) 0.41502(11) 0.27889(11)
H34 H 0.9202 0.4675 0.2342
C40 C 0.91525(13) 0.35776(11) 0.36043(12)
H35 H 0.9657 0.3718 0.3715
C41 C 0.78311(12) 0.45964(10) 0.17689(11)
Co1 Co 1.0000 -0.5000 1.0000
Co2 Co 0.74163(2) 0.57423(2) 1.02705(2)
N1 N 0.31714(12) 1.29946(10) 0.91572(11)
N2 N 0.61288(11) 0.60416(10) 0.98925(11)
O1 O 0.51032(19) 0.97695(17) 0.8526(2)
H36 H 0.5449 0.9364 0.8189
O2 O 0.38209(11) 0.68129(9) 0.80480(11)
H37 H 0.3575 0.6365 0.8115
O3 O 0.80180(9) 0.46042(8) 0.96551(8)
O4 O 0.97392(9) 0.44016(8) 0.91738(8)
O5 O 0.96149(9) -0.36138(8) 0.92039(9)
O6 O 0.81880(9) -0.34119(8) 0.89402(9)
O7 O 0.69681(9) 0.46622(8) 0.17509(8)
O8 O 0.84299(8) 0.51324(8) 0.10586(8)
B1A B 0.62443(17) 1.11217(14) 1.19660(16)
H1A H 0.5473 1.1306 1.2555
B2A B 0.71707(19) 1.00618(16) 1.22136(18)
H2A H 0.7012 0.9532 1.2966
B3A B 0.79064(18) 0.96734(16) 1.11045(19)
H3A H 0.8237 0.8888 1.1127
B4A B 0.74164(16) 1.04886(16) 1.01791(17)
H4A H 0.7422 1.0239 0.9591
B5A B 0.63926(15) 1.13705(14) 1.07111(15)
H5A H 0.5716 1.1714 1.0470
B6A B 0.73890(17) 1.12183(15) 1.19738(17)
H6A H 0.7383 1.1467 1.2563
B7A B 0.84105(19) 1.03236(18) 1.1443(2)
H7A H 0.9082 0.9968 1.1690
B8A B 0.85645(17) 1.05961(18) 1.01703(19)
H8A H 0.9333 1.0427 0.9573
B9A B 0.76150(15) 1.16513(16) 0.99395(16)
H9A H 0.7749 1.2190 0.9193
B10A B 0.82399(16) 1.15479(17) 1.07162(18)
H10A H 0.8791 1.2013 1.0480
C1A C 0.66079(14) 1.02128(12) 1.14114(14)
C2A C 0.69177(13) 1.19570(12) 1.10527(13)
C3A C 0.57676(15) 0.96385(13) 1.17691(15)
H11A H 0.5499 0.9439 1.2513
C4A C 0.61702(15) 0.87205(13) 1.14249(14)
C5A C 0.6582(2) 0.78523(15) 1.19706(16)
H12A H 0.6646 0.7824 1.2557
C6A C 0.6902(2) 0.70191(14) 1.16560(16)
H13A H 0.7187 0.6430 1.2039
C7A C 0.64245(15) 0.78518(13) 1.03209(15)
H14A H 0.6361 0.7861 0.9741
C8A C 0.60950(16) 0.87122(13) 1.05807(16)
H15A H 0.5819 0.9294 1.0181
C9A C 0.64689(13) 1.30529(12) 1.10077(14)
H16A H 0.7015 1.3421 1.0510
C10A C 0.55468(13) 1.34296(11) 1.06907(13)
C11A C 0.45627(13) 1.33534(12) 1.13912(13)
H17A H 0.4447 1.3123 1.2081
C12A C 0.37546(13) 1.36161(12) 1.10750(13)
H18A H 0.3086 1.3553 1.1561
C13A C 0.48112(13) 1.40757(12) 0.94369(13)
H19A H 0.4898 1.4343 0.8755
C14A C 0.56664(13) 1.38233(12) 0.96947(14)
H20A H 0.6321 1.3919 0.9198
C15A C 0.10456(12) 1.56857(10) 1.08609(11)
C16A C 0.08867(12) 1.61845(11) 1.15959(11)
C17A C 0.00942(13) 1.69941(12) 1.17704(12)
H21A H -0.0401 1.7206 1.1470
C18A C 0.00252(13) 1.74926(11) 1.23812(12)
H22A H -0.0502 1.8060 1.2476
C19A C 0.07284(13) 1.71646(11) 1.28593(11)
C20A C 0.14910(13) 1.63192(12) 1.27220(12)
H23A H 0.1949 1.6070 1.3070
C21A C 0.15804(13) 1.58460(11) 1.20814(12)
H24A H 0.2117 1.5288 1.1971
C22A C 0.07266(13) 1.77211(11) 1.34562(12)
C23A C 0.06049(13) 1.87228(11) 1.31088(12)
H25A H 0.0444 1.9053 1.2528
C24A C 0.07141(13) 1.92522(11) 1.35966(12)
C25A C 0.09322(13) 1.87638(11) 1.44656(12)
H26A H 0.1004 1.9117 1.4806
C26A C 0.10441(13) 1.77589(11) 1.48332(11)
C27A C 0.09478(13) 1.72503(11) 1.43178(12)
H27A H 0.1035 1.6567 1.4560
C28A C 0.06820(13) 2.03014(11) 1.31228(12)
C29A C 0.00240(13) 2.08527(11) 1.25987(13)
H28A H -0.0487 2.0585 1.2646
C30A C 0.01123(13) 2.17869(11) 1.20114(12)
H29A H -0.0339 2.2154 1.1661
C31A C 0.08572(13) 2.21866(11) 1.19352(12)
C32A C 0.14728(15) 2.16640(12) 1.24974(14)
H30A H 0.1961 2.1945 1.2473
C33A C 0.13773(15) 2.07326(12) 1.30944(14)
H31A H 0.1791 2.0388 1.3487
C34A C 0.10234(12) 2.31528(11) 1.12113(11)
C35A C 0.13043(13) 1.72023(11) 1.57341(11)
C36A C 0.20357(14) 1.74074(12) 1.59126(12)
H32A H 0.2342 1.7944 1.5477
C37A C 0.23191(13) 1.68313(12) 1.67240(12)
H33A H 0.2822 1.6971 1.6836
C38A C 0.18648(12) 1.60497(11) 1.73718(11)
C39A C 0.11185(12) 1.58498(11) 1.72111(11)
H34A H 0.0798 1.5325 1.7658
C40A C 0.08475(13) 1.64224(11) 1.63957(12)
H35A H 0.0343 1.6282 1.6285
C41A C 0.21689(12) 1.54036(10) 1.82311(11)
Co2A Co 0.25837(2) 1.42577(2) 0.97295(2)
N1A N 0.68286(12) 0.70054(10) 1.08428(11)
N2A N 0.38712(11) 1.39584(10) 1.01075(11)
O1A O 0.48968(19) 1.02305(17) 1.1474(2)
H36A H 0.4551 1.0636 1.1811
O2A O 0.61791(11) 1.31871(9) 1.19520(11)
H37A H 0.6425 1.3635 1.1885
O3A O 0.19820(9) 1.53958(8) 1.03449(8)
O4A O 0.02608(9) 1.55984(8) 1.08262(8)
O5A O 0.03851(9) 2.36138(8) 1.07961(9)
O6A O 0.18120(9) 2.34119(8) 1.10598(9)
O7A O 0.30319(9) 1.53378(8) 1.82491(8)
O8A O 0.15701(8) 1.48676(8) 1.89414(8)
Co1_2 Co 0.0000 1.5000 1.0000
Co1_3 Co 0.0000 1.5000 2.0000
Co1_4 Co 0.0000 2.5000 1.0000
Co1_5 Co 1.0000 0.5000 0.0000
Co1_6 Co 1.0000 0.5000 1.0000
Co2_2 Co 0.74163(2) -0.42577(2) 1.02705(2)
Co2_3 Co 0.74163(2) 0.57423(2) 0.02705(2)
Co2A_2 Co 0.25837(2) 1.42577(2) 1.97295(2)
Co2A_3 Co 0.25837(2) 2.42577(2) 0.97295(2)
O4_2 O 0.97392(9) -0.55984(8) 0.91738(8)
O4A_2 O 1.02608(9) -0.44016(8) 1.08262(8)
O5A_2 O 1.03851(9) -0.63862(8) 1.07961(9)
O6_2 O 0.81880(9) 0.65881(8) 0.89402(9)
O6A_2 O 0.18120(9) 1.34119(8) 1.10598(9)
O7_2 O 0.69681(9) 0.46622(8) 1.17509(8)
O7A_2 O 0.30319(9) 1.53378(8) 0.82491(8)
O8_2 O 0.84299(8) -0.48676(8) 1.10586(8)
O8_3 O 0.84299(8) 0.51324(8) 1.10586(8)
O8A_2 O 0.15701(8) 1.48676(8) 0.89414(8)
O8A_3 O 1.15701(8) -0.51324(8) 0.89414(8)
loop_
_geom_bond_atom_site_label_1
_geom_bond_atom_site_label_2
_geom_bond_site_symmetry_1
_geom_bond_site_symmetry_2
B1 H1 1_555 1_555
B2 B1 1_555 1_555
H2 B2 1_555 1_555
B3 B2 1_555 1_555
H3 B3 1_555 1_555
B4 B3 1_555 1_555
H4 B4 1_555 1_555
B5 B1 1_555 1_555
H5 B5 1_555 1_555
B6 B1 1_555 1_555
H6 B6 1_555 1_555
B7 B2 1_555 1_555
H7 B7 1_555 1_555
B8 B3 1_555 1_555
H8 B8 1_555 1_555
B9 B4 1_555 1_555
H9 B9 1_555 1_555
B10 B6 1_555 1_555
H10 B10 1_555 1_555
C1 B1 1_555 1_555
C2 B1 1_555 1_555
C3 C1 1_555 1_555
H11 C3 1_555 1_555
C4 C3 1_555 1_555
C5 C4 1_555 1_555
H12 C5 1_555 1_555
C6 C5 1_555 1_555
H13 C6 1_555 1_555
C7 H14 1_555 1_555
C8 C4 1_555 1_555
H15 C8 1_555 1_555
C9 C2 1_555 1_555
H16 C9 1_555 1_555
C10 C9 1_555 1_555
C11 C10 1_555 1_555
H17 C11 1_555 1_555
C12 C11 1_555 1_555
H18 C12 1_555 1_555
C13 H19 1_555 1_555
C14 C10 1_555 1_555
H20 C14 1_555 1_555
C15 C16 1_555 1_555
C16 C17 1_555 1_555
C17 H21 1_555 1_555
C18 C17 1_555 1_555
H22 C18 1_555 1_555
C19 C18 1_555 1_555
C20 C19 1_555 1_555
H23 C20 1_555 1_555
C21 C16 1_555 1_555
H24 C21 1_555 1_555
C22 C19 1_555 1_555
C23 C22 1_555 1_555
H25 C23 1_555 1_555
C24 C23 1_555 1_555
C25 C24 1_555 1_555
H26 C25 1_555 1_555
C26 C25 1_555 1_555
C27 C22 1_555 1_555
H27 C27 1_555 1_555
C28 C24 1_555 1_555
C29 C28 1_555 1_555
H28 C29 1_555 1_555
C30 C29 1_555 1_555
H29 C30 1_555 1_555
C31 C30 1_555 1_555
C32 C31 1_555 1_555
H30 C32 1_555 1_555
C33 C28 1_555 1_555
H31 C33 1_555 1_555
C34 C31 1_555 1_555
C35 C26 1_555 1_555
C36 C35 1_555 1_555
H32 C36 1_555 1_555
C37 C36 1_555 1_555
H33 C37 1_555 1_555
C38 C37 1_555 1_555
C39 C38 1_555 1_555
H34 C39 1_555 1_555
C40 C35 1_555 1_555
H35 C40 1_555 1_555
C41 C38 1_555 1_555
Co1 O5 1_555 1_555
Co2 N2 1_555 1_555
N1 C6 1_555 1_555
N2 C12 1_555 1_555
O1 C3 1_555 1_555
H36 O1 1_555 1_555
O2 C9 1_555 1_555
H37 O2 1_555 1_555
O3 C15 1_555 1_555
O4 C15 1_555 1_555
O5 C34 1_555 1_555
O6 C34 1_555 1_555
O7 C41 1_555 1_555
O8 C41 1_555 1_555
B1A H1A 1_555 1_555
B2A B1A 1_555 1_555
H2A B2A 1_555 1_555
B3A B2A 1_555 1_555
H3A B3A 1_555 1_555
B4A B3A 1_555 1_555
H4A B4A 1_555 1_555
B5A B1A 1_555 1_555
H5A B5A 1_555 1_555
B6A B1A 1_555 1_555
H6A B6A 1_555 1_555
B7A B2A 1_555 1_555
H7A B7A 1_555 1_555
B8A B3A 1_555 1_555
H8A B8A 1_555 1_555
B9A B4A 1_555 1_555
H9A B9A 1_555 1_555
B10A B6A 1_555 1_555
H10A B10A 1_555 1_555
C1A B1A 1_555 1_555
C2A B1A 1_555 1_555
C3A C1A 1_555 1_555
H11A C3A 1_555 1_555
C4A C3A 1_555 1_555
C5A C4A 1_555 1_555
H12A C5A 1_555 1_555
C6A C5A 1_555 1_555
H13A C6A 1_555 1_555
C7A H14A 1_555 1_555
C8A C4A 1_555 1_555
H15A C8A 1_555 1_555
C9A C2A 1_555 1_555
H16A C9A 1_555 1_555
C10A C9A 1_555 1_555
C11A C10A 1_555 1_555
H17A C11A 1_555 1_555
C12A C11A 1_555 1_555
H18A C12A 1_555 1_555
C13A H19A 1_555 1_555
C14A C10A 1_555 1_555
H20A C14A 1_555 1_555
C15A C16A 1_555 1_555
C16A C17A 1_555 1_555
C17A H21A 1_555 1_555
C18A C17A 1_555 1_555
H22A C18A 1_555 1_555
C19A C18A 1_555 1_555
C20A C19A 1_555 1_555
H23A C20A 1_555 1_555
C21A C16A 1_555 1_555
H24A C21A 1_555 1_555
C22A C19A 1_555 1_555
C23A C22A 1_555 1_555
H25A C23A 1_555 1_555
C24A C23A 1_555 1_555
C25A C24A 1_555 1_555
H26A C25A 1_555 1_555
C26A C25A 1_555 1_555
C27A C22A 1_555 1_555
H27A C27A 1_555 1_555
C28A C24A 1_555 1_555
C29A C28A 1_555 1_555
H28A C29A 1_555 1_555
C30A C29A 1_555 1_555
H29A C30A 1_555 1_555
C31A C30A 1_555 1_555
C32A C31A 1_555 1_555
H30A C32A 1_555 1_555
C33A C28A 1_555 1_555
H31A C33A 1_555 1_555
C34A C31A 1_555 1_555
C35A C26A 1_555 1_555
C36A C35A 1_555 1_555
H32A C36A 1_555 1_555
C37A C36A 1_555 1_555
H33A C37A 1_555 1_555
C38A C37A 1_555 1_555
C39A C38A 1_555 1_555
H34A C39A 1_555 1_555
C40A C35A 1_555 1_555
H35A C40A 1_555 1_555
C41A C38A 1_555 1_555
Co2A N1 1_555 1_555
N1A Co2 1_555 1_555
N2A C12A 1_555 1_555
O1A C3A 1_555 1_555
H36A O1A 1_555 1_555
O2A C9A 1_555 1_555
H37A O2A 1_555 1_555
O3A C15A 1_555 1_555
O4A C15A 1_555 1_555
O5A C34A 1_555 1_555
O6A C34A 1_555 1_555
O7A C41A 1_555 1_555
O8A C41A 1_555 1_555
Co1_2 O4A 1_555 1_555
Co1_3 O8A 1_555 1_555
Co1_4 O5A 1_555 1_555
Co1_5 O8 1_555 1_555
Co1_6 O4 1_555 1_555
Co2_2 O6 1_555 1_555
Co2_3 O7 1_555 1_555
Co2A_2 O7A 1_555 1_555
Co2A_3 O6A 1_555 1_555
O4_2 Co1 1_555 1_555
O4A_2 Co1 1_555 1_555
O5A_2 Co1 1_555 1_555
O6_2 Co2 1_555 1_555
O6A_2 Co2A 1_555 1_555
O7_2 Co2 1_555 1_555
O7A_2 Co2A 1_555 1_555
O8_2 Co1 1_555 1_555
O8_3 Co2 1_555 1_555
O8A_2 Co2A 1_555 1_555
O8A_3 Co1 1_555 1_555
B2 B6 1_555 1_555
B2 C1 1_555 1_555
B3 B7 1_555 1_555
B3 C1 1_555 1_555
B4 B5 1_555 1_555
B4 B8 1_555 1_555
B4 C1 1_555 1_555
B5 B9 1_555 1_555
B5 C1 1_555 1_555
B5 C2 1_555 1_555
B6 B7 1_555 1_555
B6 C2 1_555 1_555
B7 B8 1_555 1_555
B7 B10 1_555 1_555
B8 B9 1_555 1_555
B8 B10 1_555 1_555
B9 B10 1_555 1_555
B9 C2 1_555 1_555
B10 C2 1_555 1_555
C7 C8 1_555 1_555
C7 N1 1_555 1_555
C13 C14 1_555 1_555
C13 N2 1_555 1_555
C20 C21 1_555 1_555
C26 C27 1_555 1_555
C32 C33 1_555 1_555
C39 C40 1_555 1_555
Co2 O3 1_555 1_555
O8 Co2_3 1_555 1_555
B2A B6A 1_555 1_555
B2A C1A 1_555 1_555
B3A B7A 1_555 1_555
B3A C1A 1_555 1_555
B4A B5A 1_555 1_555
B4A B8A 1_555 1_555
B4A C1A 1_555 1_555
B5A B9A 1_555 1_555
B5A C1A 1_555 1_555
B5A C2A 1_555 1_555
B6A B7A 1_555 1_555
B6A C2A 1_555 1_555
B7A B8A 1_555 1_555
B7A B10A 1_555 1_555
B8A B9A 1_555 1_555
B8A B10A 1_555 1_555
B9A B10A 1_555 1_555
B9A C2A 1_555 1_555
B10A C2A 1_555 1_555
C6A N1A 1_555 1_555
C7A C8A 1_555 1_555
C7A N1A 1_555 1_555
C13A C14A 1_555 1_555
C13A N2A 1_555 1_555
C20A C21A 1_555 1_555
C26A C27A 1_555 1_555
C32A C33A 1_555 1_555
C39A C40A 1_555 1_555
Co2A N2A 1_555 1_555
Co2A O3A 1_555 1_555
O8A Co2A_2 1_555 1_555
Co1_2 O8A_2 1_555 1_555
Co1_6 O8_3 1_555 1_555
Co2_2 O8_2 1_555 1_555

#END
