
#######################################################################
#
#                 Cambridge Crystallographic Data Centre
#                                CCDC 
#
#######################################################################
#
# If this CIF has been generated from an entry in the Cambridge 
# Structural Database, then it will include bibliographic, chemical, 
# crystal, experimental, refinement or atomic coordinate data resulting 
# from the CCDC's data processing and validation procedures.
#
#######################################################################

data_OCILIY
_chemical_formula_moiety         '(C68 H56 B10 N2 O17 Zn4)n'
_symmetry_cell_setting           monoclinic
_symmetry_space_group_name_H-M   'P n'
_symmetry_Int_Tables_number      7
_space_group_name_Hall           'P -2yac'
loop_
_symmetry_equiv_pos_site_id
_symmetry_equiv_pos_as_xyz
1 x,y,z
2 1/2+x,-y,1/2+z
_cell_length_a                   18.5945(10)
_cell_length_b                   8.0800(5)
_cell_length_c                   30.2904(19)
_cell_angle_alpha                90
_cell_angle_beta                 90.819(2)
_cell_angle_gamma                90
_cell_volume                     4550.47
loop_
_atom_site_label
_atom_site_type_symbol
_atom_site_fract_x
_atom_site_fract_y
_atom_site_fract_z
Zn1 Zn 0.86381(5) 0.03114(12) 0.55825(4)
O1 O 0.7579(4) 0.5992(8) 0.5440(2)
C1 C 0.9665(5) -0.1903(12) 0.7733(3)
Zn2 Zn 0.80317(5) 0.38567(12) 0.52373(3)
O2 O -0.1420(3) 0.1764(7) 0.5017(2)
B1 B 0.9555(8) -0.1670(16) 0.8300(5)
H1 H 0.9103 -0.2210 0.8493
Zn3 Zn 0.66786(5) 0.63735(13) 0.51592(4)
O3 O -0.0471(9) 0.4516(19) 0.4497(5)
H2 H -0.0359 0.5401 0.4706
H3 H -0.0935 0.4959 0.4428
B2 B 0.9408(7) 0.0082(15) 0.7938(4)
H4 H 0.8868 0.0678 0.7893
Zn4 Zn -0.05135(5) 0.22368(16) 0.47341(4)
B3 B 1.0016(6) -0.0121(13) 0.7493(4)
H5 H 0.9856 0.0323 0.7155
B4 B 1.0534(7) -0.1914(15) 0.7572(4)
H6 H 1.0732 -0.2627 0.7281
B5 B 1.0259(6) -0.2916(14) 0.8061(4)
H7 H 1.0268 -0.4294 0.8101
B6 B 0.9933(7) 0.0262(16) 0.8441(5)
H8 H 0.9734 0.0982 0.8731
B7 B 1.0248(8) 0.1249(16) 0.7933(5)
H9 H 1.0262 0.2624 0.7888
B8 B 1.0886(9) 0.006(2) 0.7714(6)
H10 H 1.1320 0.0667 0.7519
B9 B 1.1073(7) -0.1757(15) 0.8060(4)
H11 H 1.1615 -0.2352 0.8096
C2 C 1.0438(6) -0.1555(13) 0.8484(4)
B10 B 1.0869(8) 0.0232(17) 0.8300(5)
H12 H 1.1283 0.0915 0.8501
C3 C 0.9060(7) -0.2880(15) 0.7503(4)
H13 H 0.8613 -0.2806 0.7682
O4 O 0.9287(10) -0.458(2) 0.7478(6)
H14 H 0.8934 -0.5208 0.7427
C4 C 0.8907(6) -0.2244(13) 0.7051(4)
C5 C 0.8447(7) -0.0990(15) 0.6967(4)
H15 H 0.8188 -0.0500 0.7202
C6 C 0.8347(6) -0.0397(13) 0.6524(4)
H16 H 0.7973 0.0382 0.6471
N1 N 0.8728(4) -0.0847(10) 0.6190(3)
C7 C 0.9215(5) -0.2030(11) 0.6261(3)
H17 H 0.9496 -0.2385 0.6020
C8 C 0.9335(7) -0.2778(14) 0.6671(4)
H18 H 0.9688 -0.3620 0.6705
C9 C 1.0640(6) -0.2316(13) 0.8950(4)
H19 H 1.1038 -0.3136 0.8914
O5 O 1.0018(5) -0.3145(12) 0.9081(3)
H20 H 1.0076 -0.3504 0.9339
C10 C 1.0873(6) -0.1013(12) 0.9272(3)
C11 C 1.0426(6) -0.0217(13) 0.9557(4)
H21 H 0.9934 -0.0521 0.9574
C12 C 1.0697(5) 0.1014(11) 0.9816(3)
H22 H 1.0368 0.1625 0.9989
N2 N 1.1398(4) 0.1432(9) 0.9844(2)
C13 C 1.1818(5) 0.0582(11) 0.9570(3)
H23 H 1.2312 0.0884 0.9566
C14 C 1.1621(6) -0.0604(13) 0.9311(4)
H24 H 1.1968 -0.1201 0.9147
O6 O 0.7554(4) 0.0247(8) 0.5648(2)
C15 C 0.7061(5) 0.1347(10) 0.5572(3)
O7 O 0.7120(4) 0.2651(8) 0.5377(2)
C16 C 0.6336(5) 0.0951(11) 0.5773(3)
C17 C 0.6252(6) -0.0218(13) 0.6103(4)
H25 H 0.6647 -0.0884 0.6196
C18 C 0.5634(5) -0.0395(10) 0.6283(3)
H26 H 0.5598 -0.1158 0.6521
C19 C 0.5041(6) 0.0416(12) 0.6160(3)
C20 C 0.5076(5) 0.1519(10) 0.5809(3)
H27 H 0.4656 0.2051 0.5698
C21 C 0.5754(5) 0.1825(11) 0.5624(3)
H28 H 0.5804 0.2629 0.5397
C22 C 0.4348(5) 0.0140(10) 0.6428(3)
C23 C 0.4348(5) 0.0038(11) 0.6844(3)
H29 H 0.4797 -0.0003 0.6997
C24 C 0.3682(5) -0.0022(11) 0.7106(3)
C25 C 0.3073(5) 0.0076(11) 0.6871(3)
H30 H 0.2639 -0.0042 0.7030
C26 C 0.3003(5) 0.0335(11) 0.6417(3)
C27 C 0.3662(5) 0.0369(10) 0.6164(3)
H31 H 0.3660 0.0525 0.5854
C28 C 0.3751(5) -0.0162(11) 0.7591(3)
C29 C 0.4307(6) -0.1042(13) 0.7784(4)
H32 H 0.4650 -0.1603 0.7609
C30 C 0.4353(6) -0.1089(12) 0.8245(4)
H33 H 0.4741 -0.1665 0.8383
C31 C 0.3850(6) -0.0321(12) 0.8507(3)
C32 C 0.3296(6) 0.0505(12) 0.8294(4)
H34 H 0.2951 0.1053 0.8470
C33 C 0.3214(6) 0.0582(13) 0.7861(4)
H35 H 0.2809 0.1118 0.7731
C34 C 0.3899(7) -0.0482(14) 0.9003(4)
O8 O 0.4472(5) -0.1123(10) 0.9141(3)
O9 O 0.3350(6) -0.0084(12) 0.9209(4)
C35 C 0.2336(4) 0.0435(9) 0.6163(3)
C36 C 0.1709(5) -0.0474(11) 0.6271(3)
H36 H 0.1739 -0.1266 0.6502
C37 C 0.1054(5) -0.0257(10) 0.6053(3)
H37 H 0.0631 -0.0786 0.6155
C38 C 0.1033(6) 0.0730(13) 0.5692(4)
C39 C 0.1622(5) 0.1576(11) 0.5548(3)
H38 H 0.1581 0.2281 0.5298
C40 C 0.2305(6) 0.1401(12) 0.5775(4)
H39 H 0.2724 0.1924 0.5666
C41 C 0.0325(5) 0.0860(11) 0.5428(3)
O10 O 0.0347(4) 0.1830(9) 0.5076(2)
O11 O -0.0213(4) 0.0235(8) 0.5558(2)
C42 C 0.7355(5) 0.4955(11) 0.4365(3)
O12 O 0.6773(4) 0.5219(8) 0.4562(2)
O13 O 0.7958(4) 0.4587(8) 0.4596(2)
C43 C 0.7388(6) 0.5026(12) 0.3909(3)
C44 C 0.6889(5) 0.5869(12) 0.3655(3)
H40 H 0.6513 0.6440 0.3799
C45 C 0.6912(5) 0.5924(11) 0.3202(3)
H41 H 0.6547 0.6525 0.3048
C46 C 0.7444(5) 0.5137(10) 0.2955(3)
C47 C 0.7964(6) 0.4254(12) 0.3212(3)
H42 H 0.8339 0.3687 0.3064
C48 C 0.7945(5) 0.4189(12) 0.3666(3)
H43 H 0.8304 0.3584 0.3823
C49 C 0.7473(6) 0.5223(12) 0.2498(4)
C50 C 0.6837(5) 0.5434(11) 0.2212(3)
H44 H 0.6385 0.5534 0.2351
C51 C 0.6844(6) 0.5498(12) 0.1761(3)
C52 C 0.7470(5) 0.5193(11) 0.1553(3)
H45 H 0.7465 0.5097 0.1241
C53 C 0.8154(6) 0.5006(13) 0.1793(4)
C54 C 0.8126(6) 0.4982(11) 0.2246(3)
H46 H 0.8561 0.4794 0.2406
C55 C 0.6148(5) 0.5660(10) 0.1513(3)
C56 C 0.5595(5) 0.6703(10) 0.1668(3)
H47 H 0.5653 0.7286 0.1939
C57 C 0.4975(6) 0.6857(12) 0.1422(3)
H48 H 0.4609 0.7565 0.1530
C58 C 0.4852(6) 0.6065(12) 0.1037(3)
C59 C 0.5374(5) 0.4990(11) 0.0866(3)
H49 H 0.5295 0.4389 0.0600
C60 C 0.6019(6) 0.4855(12) 0.1109(3)
H50 H 0.6390 0.4178 0.0994
C61 C 0.4167(6) 0.6260(12) 0.0778(3)
O14 O 0.3686(4) 0.7236(8) 0.0916(2)
O15 O 0.4043(4) 0.5370(8) 0.0456(2)
C62 C 0.8851(5) 0.4868(12) 0.1573(3)
C63 C 0.8866(6) 0.4024(12) 0.1127(3)
H51 H 0.8434 0.3588 0.1002
C64 C 0.9463(6) 0.3888(12) 0.0913(3)
H52 H 0.9460 0.3417 0.0626
C65 C 1.0143(5) 0.4457(11) 0.1112(3)
C66 C 1.0097(5) 0.5221(11) 0.1518(3)
H53 H 1.0524 0.5626 0.1655
C67 C 0.9459(4) 0.5415(9) 0.1728(3)
H54 H 0.9461 0.5981 0.2003
C68 C 1.0856(5) 0.4253(12) 0.0871(3)
O16 O 1.0793(3) 0.4056(7) 0.0474(2)
O17 O 1.1400(4) 0.4399(9) 0.1108(3)
Zn1_2 Zn -0.13619(5) 0.03114(12) 0.55825(4)
Zn1A Zn 0.36381(5) 0.96886(12) 0.05825(4)
Zn2_2 Zn -0.19683(5) 0.38567(12) 0.52373(3)
Zn2A Zn 0.30317(5) 0.61433(12) 0.02373(3)
O2_2 O 0.8580(3) 0.1764(7) 0.5017(2)
Zn3A Zn 1.16786(5) 0.36265(13) 0.01592(4)
Zn3A_2 Zn 1.16786(5) 0.36265(13) 1.01592(4)
Zn4A Zn 0.44865(5) -0.22368(16) 0.97341(4)
N2A N 0.6398(4) 0.8568(9) 0.4844(2)
O8A O -0.0528(5) 0.1123(10) 0.4141(3)
O11_2 O 0.9787(4) 0.0235(8) 0.5558(2)
O14A O 0.8686(4) 0.2764(8) 0.5916(2)
O15A O 0.9043(4) 0.4630(8) 0.5456(2)
O16A O 0.5793(3) 0.5944(7) 0.5474(2)
loop_
_geom_bond_atom_site_label_1
_geom_bond_atom_site_label_2
_geom_bond_site_symmetry_1
_geom_bond_site_symmetry_2
Zn1 N1 1_555 1_555
O1 Zn2 1_555 1_555
C1 B1 1_555 1_555
Zn2 O7 1_555 1_555
O2 Zn4 1_555 1_555
B1 H1 1_555 1_555
Zn3 O1 1_555 1_555
O3 H2 1_555 1_555
H3 O3 1_555 1_555
B2 C1 1_555 1_555
H4 B2 1_555 1_555
Zn4 O3 1_555 1_555
B3 C1 1_555 1_555
H5 B3 1_555 1_555
B4 C1 1_555 1_555
H6 B4 1_555 1_555
B5 C1 1_555 1_555
H7 B5 1_555 1_555
B6 B1 1_555 1_555
H8 B6 1_555 1_555
B7 B2 1_555 1_555
H9 B7 1_555 1_555
B8 B3 1_555 1_555
H10 B8 1_555 1_555
B9 B4 1_555 1_555
H11 B9 1_555 1_555
C2 B1 1_555 1_555
B10 B6 1_555 1_555
H12 B10 1_555 1_555
C3 C1 1_555 1_555
H13 C3 1_555 1_555
O4 C3 1_555 1_555
H14 O4 1_555 1_555
C4 C3 1_555 1_555
C5 C4 1_555 1_555
H15 C5 1_555 1_555
C6 C5 1_555 1_555
H16 C6 1_555 1_555
N1 C6 1_555 1_555
C7 N1 1_555 1_555
H17 C7 1_555 1_555
C8 C4 1_555 1_555
H18 C8 1_555 1_555
C9 C2 1_555 1_555
H19 C9 1_555 1_555
O5 C9 1_555 1_555
H20 O5 1_555 1_555
C10 C9 1_555 1_555
C11 C10 1_555 1_555
H21 C11 1_555 1_555
C12 C11 1_555 1_555
H22 C12 1_555 1_555
N2 C12 1_555 1_555
C13 N2 1_555 1_555
H23 C13 1_555 1_555
C14 C10 1_555 1_555
H24 C14 1_555 1_555
O6 Zn1 1_555 1_555
C15 O6 1_555 1_555
O7 C15 1_555 1_555
C16 C15 1_555 1_555
C17 C16 1_555 1_555
H25 C17 1_555 1_555
C18 C17 1_555 1_555
H26 C18 1_555 1_555
C19 C18 1_555 1_555
C20 C19 1_555 1_555
H27 C20 1_555 1_555
C21 C16 1_555 1_555
H28 C21 1_555 1_555
C22 C19 1_555 1_555
C23 C22 1_555 1_555
H29 C23 1_555 1_555
C24 C23 1_555 1_555
C25 C24 1_555 1_555
H30 C25 1_555 1_555
C26 C25 1_555 1_555
C27 C22 1_555 1_555
H31 C27 1_555 1_555
C28 C24 1_555 1_555
C29 C28 1_555 1_555
H32 C29 1_555 1_555
C30 C29 1_555 1_555
H33 C30 1_555 1_555
C31 C30 1_555 1_555
C32 C31 1_555 1_555
H34 C32 1_555 1_555
C33 C28 1_555 1_555
H35 C33 1_555 1_555
C34 C31 1_555 1_555
O8 C34 1_555 1_555
O9 C34 1_555 1_555
C35 C26 1_555 1_555
C36 C35 1_555 1_555
H36 C36 1_555 1_555
C37 C36 1_555 1_555
H37 C37 1_555 1_555
C38 C37 1_555 1_555
C39 C38 1_555 1_555
H38 C39 1_555 1_555
C40 C35 1_555 1_555
H39 C40 1_555 1_555
C41 C38 1_555 1_555
O10 Zn4 1_555 1_555
O11 C41 1_555 1_555
C42 O12 1_555 1_555
O12 Zn3 1_555 1_555
O13 Zn2 1_555 1_555
C43 C42 1_555 1_555
C44 C43 1_555 1_555
H40 C44 1_555 1_555
C45 C44 1_555 1_555
H41 C45 1_555 1_555
C46 C45 1_555 1_555
C47 C46 1_555 1_555
H42 C47 1_555 1_555
C48 C43 1_555 1_555
H43 C48 1_555 1_555
C49 C46 1_555 1_555
C50 C49 1_555 1_555
H44 C50 1_555 1_555
C51 C50 1_555 1_555
C52 C51 1_555 1_555
H45 C52 1_555 1_555
C53 C52 1_555 1_555
C54 C49 1_555 1_555
H46 C54 1_555 1_555
C55 C51 1_555 1_555
C56 C55 1_555 1_555
H47 C56 1_555 1_555
C57 C56 1_555 1_555
H48 C57 1_555 1_555
C58 C57 1_555 1_555
C59 C58 1_555 1_555
H49 C59 1_555 1_555
C60 C55 1_555 1_555
H50 C60 1_555 1_555
C61 C58 1_555 1_555
O14 C61 1_555 1_555
O15 C61 1_555 1_555
C62 C53 1_555 1_555
C63 C62 1_555 1_555
H51 C63 1_555 1_555
C64 C63 1_555 1_555
H52 C64 1_555 1_555
C65 C64 1_555 1_555
C66 C65 1_555 1_555
H53 C66 1_555 1_555
C67 C62 1_555 1_555
H54 C67 1_555 1_555
C68 C65 1_555 1_555
O16 C68 1_555 1_555
O17 C68 1_555 1_555
Zn1_2 O2 1_555 1_555
Zn1A O14 1_555 1_555
Zn2_2 O2 1_555 1_555
Zn2A O14 1_555 1_555
O2_2 Zn1 1_555 1_555
Zn3A O16 1_555 1_555
Zn3A_2 N2 1_555 1_555
Zn4A O8 1_555 1_555
N2A Zn3 1_555 1_555
O8A Zn4 1_555 1_555
O11_2 Zn1 1_555 1_555
O14A Zn1 1_555 1_555
O15A Zn2 1_555 1_555
O16A Zn3 1_555 1_555
Zn2 O2_2 1_555 1_555
Zn2 O14A 1_555 1_555
B1 B2 1_555 1_555
B1 B5 1_555 1_555
B2 B3 1_555 1_555
B2 B6 1_555 1_555
B3 B4 1_555 1_555
B3 B7 1_555 1_555
B4 B5 1_555 1_555
B4 B8 1_555 1_555
B5 B9 1_555 1_555
B5 C2 1_555 1_555
B6 B7 1_555 1_555
B6 C2 1_555 1_555
B7 B8 1_555 1_555
B7 B10 1_555 1_555
B8 B9 1_555 1_555
B8 B10 1_555 1_555
B9 C2 1_555 1_555
B9 B10 1_555 1_555
C2 B10 1_555 1_555
C7 C8 1_555 1_555
C13 C14 1_555 1_555
C20 C21 1_555 1_555
C26 C27 1_555 1_555
C32 C33 1_555 1_555
C39 C40 1_555 1_555
C41 O10 1_555 1_555
O11 Zn1_2 1_555 1_555
C42 O13 1_555 1_555
C47 C48 1_555 1_555
C53 C54 1_555 1_555
C59 C60 1_555 1_555
O15 Zn2A 1_555 1_555
C66 C67 1_555 1_555

#END
