
#######################################################################
#
#                 Cambridge Crystallographic Data Centre
#                                CCDC 
#
#######################################################################
#
# If this CIF has been generated from an entry in the Cambridge 
# Structural Database, then it will include bibliographic, chemical, 
# crystal, experimental, refinement or atomic coordinate data resulting 
# from the CCDC's data processing and validation procedures.
#
#######################################################################

data_OCILUK
_chemical_formula_moiety         '(C82 H74 B20 Co3 N4 O16)n'
_symmetry_cell_setting           triclinic
_symmetry_space_group_name_H-M   'P -1'
_symmetry_Int_Tables_number      2
_space_group_name_Hall           '-P 1'
loop_
_symmetry_equiv_pos_site_id
_symmetry_equiv_pos_as_xyz
1 x,y,z
2 -x,-y,-z
_cell_length_a                   14.6335(18)
_cell_length_b                   15.2993(14)
_cell_length_c                   15.6868(17)
_cell_angle_alpha                66.973(4)
_cell_angle_beta                 62.396(5)
_cell_angle_gamma                70.264(4)
_cell_volume                     2811.06
loop_
_atom_site_label
_atom_site_type_symbol
_atom_site_fract_x
_atom_site_fract_y
_atom_site_fract_z
Co1 Co 0.0000 1.0000 0.0000
Co2 Co 0.26291(2) 0.93018(2) -0.02750(2)
O1 O 0.03609(6) 0.86172(5) 0.08169(6)
O2 O 0.18193(6) 0.84290(6) 0.10570(6)
O3 O 0.16162(6) -0.01194(5) 0.89434(5)
O4 O 0.30958(6) 0.04025(6) 0.82118(6)
O5 O 0.20152(6) 0.04230(5) 0.03429(6)
O6 O 0.02688(6) 0.06088(5) 0.08026(6)
O7 O 0.62457(8) 0.80029(7) 0.20148(8)
H1 H 0.6412 0.8507 0.1948
N1 N 0.39124(7) 0.89915(7) 0.01257(7)
N2 N 0.67175(8) 0.19317(7) 0.08716(8)
C1 C 0.10158(8) 0.81520(7) 0.12181(8)
C2 C 0.08748(8) 0.11624(7) 0.16166(8)
C3 C 0.08591(9) 0.13643(8) 0.64199(8)
H2 H 0.0357 0.1186 0.6326
C4 C 0.22159(8) 0.04365(7) 0.82110(8)
C5 C 0.12862(9) 0.21817(7) 0.57448(8)
C6 C 0.19010(8) 0.10623(7) 0.73571(8)
C7 C 0.00638(9) 0.19511(8) 0.17969(8)
H3 H -0.0429 0.2160 0.1489
C8 C 0.08528(9) 0.71690(7) 0.19293(8)
C9 C 0.15562(9) 0.08232(8) 0.21171(8)
H4 H 0.2098 0.0273 0.2009
C10 C 0.11544(9) 0.08110(8) 0.72219(8)
H5 H 0.0851 0.0262 0.7679
C11 C -0.00256(9) 0.24343(8) 0.24287(9)
H6 H -0.0567 0.2986 0.2533
C12 C 0.08906(9) 0.37324(7) 0.44755(8)
H7 H 0.0964 0.4092 0.4808
C13 C 0.10026(9) 0.27266(7) 0.48579(8)
C14 C 0.06766(9) 0.21141(7) 0.29117(8)
C15 C 0.37609(9) 0.86602(8) 0.11045(9)
H8 H 0.3064 0.8647 0.1589
C16 C 0.64045(10) 0.27885(8) 0.02904(10)
H9 H 0.6425 0.2806 -0.0330
C17 C 0.20180(10) 0.24371(8) 0.58975(8)
H10 H 0.2303 0.2999 0.5454
C18 C 0.55966(9) 0.83508(8) 0.07325(9)
C19 C 0.06716(9) 0.42157(7) 0.36093(8)
C20 C 0.14478(9) 0.12847(8) 0.27715(8)
H11 H 0.1901 0.1036 0.3127
C21 C 0.69010(9) 0.68204(8) 0.10952(9)
C22 C 0.05495(9) 0.36775(8) 0.31377(8)
H12 H 0.0383 0.4003 0.2558
C23 C 0.48934(9) 0.90475(9) -0.05441(9)
H13 H 0.5006 0.9309 -0.1235
C24 C 0.64880(9) 0.51181(8) 0.14312(9)
C25 C 0.06672(9) 0.26736(7) 0.35011(8)
C26 C 0.10611(8) 0.06906(7) 0.08587(8)
C27 C 0.00804(9) 0.67632(7) 0.20253(8)
H14 H -0.0385 0.7133 0.1689
C28 C 0.45756(9) 0.83389(8) 0.14344(9)
H15 H 0.4439 0.8113 0.2131
C29 C 0.23325(9) 0.18768(8) 0.66926(8)
H16 H 0.2841 0.2049 0.6783
C30 C 0.08906(9) 0.22049(7) 0.43654(8)
H17 H 0.0967 0.1521 0.4622
C31 C 0.06625(9) 0.52646(7) 0.31142(8)
C32 C 0.60540(10) 0.36461(9) 0.05458(11)
H18 H 0.5839 0.4234 0.0110
C33 C 0.65221(10) 0.79106(8) 0.10573(10)
H19 H 0.7112 0.8260 0.0562
C34 C 0.14033(10) 0.56925(8) 0.30540(9)
H20 H 0.1845 0.5337 0.3419
C35 C 0.14988(10) 0.66354(8) 0.24636(9)
H21 H 0.2009 0.6919 0.2424
C36 C 0.66731(11) 0.19273(9) 0.17441(10)
H22 H 0.6884 0.1329 0.2171
C37 C 0.60212(10) 0.36375(9) 0.14486(10)
C38 C -0.00146(10) 0.58194(8) 0.26104(9)
H23 H -0.0544 0.5548 0.2670
C39 C 0.57510(9) 0.87420(9) -0.02750(10)
H24 H 0.6436 0.8799 -0.0772
C40 C 0.63323(12) 0.27587(9) 0.20548(10)
H25 H 0.6314 0.2722 0.2681
B1 B 0.61547(11) 0.59947(9) 0.20070(11)
H26 H 0.5370 0.6178 0.2597
C41 C 0.56167(10) 0.45582(9) 0.17715(12)
H27 H 0.5334 0.4349 0.2521
B2 B 0.70563(12) 0.49084(10) 0.22525(12)
H28 H 0.6866 0.4362 0.3007
B3 B 0.77898(11) 0.45528(11) 0.11283(12)
H29 H 0.8086 0.3772 0.1143
B4 B 0.63270(10) 0.62943(9) 0.07310(11)
H30 H 0.5653 0.6672 0.0482
B5 B 0.82298(11) 0.63758(11) 0.07722(12)
H31 H 0.8822 0.6816 0.0548
B6 B 0.73270(11) 0.54144(11) 0.01912(11)
H32 H 0.7316 0.5201 -0.0410
B7 B 0.85162(11) 0.54640(12) 0.02043(12)
H33 H 0.9298 0.5292 -0.0395
B8 B 0.83458(12) 0.51480(11) 0.14878(13)
H34 H 0.9018 0.4764 0.1738
B9 B 0.73361(11) 0.60398(10) 0.20338(11)
H35 H 0.7338 0.6256 0.2637
O8 O 0.48134(14) 0.51279(14) 0.1518(2)
H36 H 0.4257 0.4928 0.1940
B10 B 0.76002(11) 0.65450(11) -0.00296(11)
H37 H 0.7773 0.7099 -0.0779
Co2A Co -0.26291(2) 0.06982(2) 0.02750(2)
O1A O -0.03609(6) 0.13828(5) -0.08169(6)
O2A O -0.18193(6) 0.15710(6) -0.10570(6)
O3A O -0.16162(6) 1.01194(5) -0.89434(5)
O4A O -0.30958(6) 0.95975(6) -0.82118(6)
O5A O -0.20152(6) 0.95770(5) -0.03429(6)
O6A O -0.02688(6) 0.93912(5) -0.08026(6)
O7A O -0.62457(8) 0.19971(7) -0.20148(8)
H1A H -0.6412 0.1493 -0.1948
N1A N -0.39124(7) 0.10085(7) -0.01257(7)
N2A N -0.67175(8) 0.80683(7) -0.08716(8)
C1A C -0.10158(8) 0.18480(7) -0.12181(8)
C2A C -0.08748(8) 0.88376(7) -0.16166(8)
C3A C -0.08591(9) 0.86357(8) -0.64199(8)
H2A H -0.0357 0.8814 -0.6326
C4A C -0.22159(8) 0.95635(7) -0.82110(8)
C5A C -0.12862(9) 0.78183(7) -0.57448(8)
C6A C -0.19010(8) 0.89377(7) -0.73571(8)
C7A C -0.00638(9) 0.80489(8) -0.17969(8)
H3A H 0.0429 0.7840 -0.1489
C8A C -0.08528(9) 0.28310(7) -0.19293(8)
C9A C -0.15562(9) 0.91768(8) -0.21171(8)
H4A H -0.2098 0.9727 -0.2009
C10A C -0.11544(9) 0.91890(8) -0.72219(8)
H5A H -0.0851 0.9738 -0.7679
C11A C 0.00256(9) 0.75657(8) -0.24287(9)
H6A H 0.0567 0.7014 -0.2533
C12A C -0.08906(9) 0.62676(7) -0.44755(8)
H7A H -0.0964 0.5908 -0.4808
C13A C -0.10026(9) 0.72734(7) -0.48579(8)
C14A C -0.06766(9) 0.78859(7) -0.29117(8)
C15A C -0.37609(9) 0.13398(8) -0.11045(9)
H8A H -0.3064 0.1353 -0.1589
C16A C -0.64045(10) 0.72115(8) -0.02904(10)
H9A H -0.6425 0.7194 0.0330
C17A C -0.20180(10) 0.75629(8) -0.58975(8)
H10A H -0.2303 0.7001 -0.5454
C18A C -0.55966(9) 0.16492(8) -0.07325(9)
C19A C -0.06716(9) 0.57843(7) -0.36093(8)
C20A C -0.14478(9) 0.87153(8) -0.27715(8)
H11A H -0.1901 0.8964 -0.3127
C21A C -0.69010(9) 0.31796(8) -0.10952(9)
C22A C -0.05495(9) 0.63225(8) -0.31377(8)
H12A H -0.0383 0.5997 -0.2558
C23A C -0.48934(9) 0.09525(9) 0.05441(9)
H13A H -0.5006 0.0691 0.1235
C24A C -0.64880(9) 0.48819(8) -0.14312(9)
C25A C -0.06672(9) 0.73264(7) -0.35011(8)
C26A C -0.10611(8) 0.93094(7) -0.08587(8)
C27A C -0.00804(9) 0.32368(7) -0.20253(8)
H14A H 0.0385 0.2867 -0.1689
C28A C -0.45756(9) 0.16611(8) -0.14344(9)
H15A H -0.4439 0.1887 -0.2131
C29A C -0.23325(9) 0.81232(8) -0.66926(8)
H16A H -0.2841 0.7951 -0.6783
C30A C -0.08906(9) 0.77951(7) -0.43654(8)
H17A H -0.0967 0.8479 -0.4622
C31A C -0.06625(9) 0.47354(7) -0.31142(8)
C32A C -0.60540(10) 0.63539(9) -0.05458(11)
H18A H -0.5839 0.5766 -0.0110
C33A C -0.65221(10) 0.20894(8) -0.10573(10)
H19A H -0.7112 0.1740 -0.0562
C34A C -0.14033(10) 0.43075(8) -0.30540(9)
H20A H -0.1845 0.4663 -0.3419
C35A C -0.14988(10) 0.33646(8) -0.24636(9)
H21A H -0.2009 0.3081 -0.2424
C36A C -0.66731(11) 0.80727(9) -0.17441(10)
H22A H -0.6884 0.8671 -0.2171
C37A C -0.60212(10) 0.63625(9) -0.14486(10)
C38A C 0.00146(10) 0.41806(8) -0.26104(9)
H23A H 0.0544 0.4452 -0.2670
C39A C -0.57510(9) 0.12580(9) 0.02750(10)
H24A H -0.6436 0.1201 0.0772
C40A C -0.63323(12) 0.72413(9) -0.20548(10)
H25A H -0.6314 0.7278 -0.2681
B1A B -0.61547(11) 0.40053(9) -0.20070(11)
H26A H -0.5370 0.3822 -0.2597
C41A C -0.56167(10) 0.54418(9) -0.17715(12)
H27A H -0.5334 0.5651 -0.2521
B2A B -0.70563(12) 0.50916(10) -0.22525(12)
H28A H -0.6866 0.5638 -0.3007
B3A B -0.77898(11) 0.54472(11) -0.11283(12)
H29A H -0.8086 0.6228 -0.1143
B4A B -0.63270(10) 0.37057(9) -0.07310(11)
H30A H -0.5653 0.3328 -0.0482
B5A B -0.82298(11) 0.36242(11) -0.07722(12)
H31A H -0.8822 0.3184 -0.0548
B6A B -0.73270(11) 0.45856(11) -0.01912(11)
H32A H -0.7316 0.4799 0.0410
B7A B -0.85162(11) 0.45360(12) -0.02043(12)
H33A H -0.9298 0.4708 0.0395
B8A B -0.83458(12) 0.48520(11) -0.14878(13)
H34A H -0.9018 0.5236 -0.1738
B9A B -0.73361(11) 0.39602(10) -0.20338(11)
H35A H -0.7338 0.3744 -0.2637
O8A O -0.48134(14) 0.48721(14) -0.1518(2)
H36A H -0.4257 0.5072 -0.1940
B10A B -0.76002(11) 0.34550(11) 0.00296(11)
H37A H -0.7773 0.2901 0.0779
Co1_2 Co 0.0000 0.0000 0.0000
Co1_3 Co 0.0000 0.0000 1.0000
Co1_4 Co -0.0000 1.0000 -1.0000
Co2_2 Co -0.73709(2) 0.93018(2) -0.02750(2)
Co2_3 Co 0.26291(2) -0.06982(2) -0.02750(2)
Co2_4 Co 0.26291(2) -0.06982(2) 0.97250(2)
Co2A_2 Co -0.26291(2) 1.06982(2) -0.97250(2)
Co2A_3 Co -0.26291(2) 1.06982(2) 0.02750(2)
Co2A_4 Co 0.73709(2) 0.06982(2) 0.02750(2)
O1A_2 O -0.03609(6) 1.13828(5) -0.08169(6)
O3_2 O 0.16162(6) 0.98806(5) -0.10566(5)
O3A_2 O -0.16162(6) 0.01194(5) 0.10566(5)
O3A_3 O -0.16162(6) 1.01194(5) 0.10566(5)
O4_2 O 0.30958(6) 1.04025(6) -0.17882(6)
O4A_2 O -0.30958(6) -0.04025(6) 0.17882(6)
O5_2 O 0.20152(6) 1.04230(5) 0.03429(6)
O5A_2 O -0.20152(6) -0.04230(5) -0.03429(6)
O6_2 O 0.02688(6) 1.06088(5) 0.08026(6)
N2_2 N -0.32825(8) 0.19317(7) 0.08716(8)
N2A_2 N 0.32825(8) 0.80683(7) -0.08716(8)
loop_
_geom_bond_atom_site_label_1
_geom_bond_atom_site_label_2
_geom_bond_site_symmetry_1
_geom_bond_site_symmetry_2
Co1 O1 1_555 1_555
Co2 O2 1_555 1_555
O1 C1 1_555 1_555
O2 C1 1_555 1_555
O3 C4 1_555 1_555
O4 C4 1_555 1_555
O5 C26 1_555 1_555
O6 C26 1_555 1_555
O7 H1 1_555 1_555
N1 Co2 1_555 1_555
N2 C16 1_555 1_555
C1 C8 1_555 1_555
C2 C7 1_555 1_555
C3 H2 1_555 1_555
C4 C6 1_555 1_555
C5 C3 1_555 1_555
C6 C10 1_555 1_555
C7 H3 1_555 1_555
C8 C27 1_555 1_555
C9 C2 1_555 1_555
H4 C9 1_555 1_555
C10 C3 1_555 1_555
H5 C10 1_555 1_555
C11 C7 1_555 1_555
H6 C11 1_555 1_555
C12 H7 1_555 1_555
C13 C5 1_555 1_555
C14 C11 1_555 1_555
C15 N1 1_555 1_555
H8 C15 1_555 1_555
C16 H9 1_555 1_555
C17 C5 1_555 1_555
H10 C17 1_555 1_555
C18 C28 1_555 1_555
C19 C12 1_555 1_555
C20 C9 1_555 1_555
H11 C20 1_555 1_555
C21 C33 1_555 1_555
C22 C19 1_555 1_555
H12 C22 1_555 1_555
C23 N1 1_555 1_555
H13 C23 1_555 1_555
C24 B1 1_555 1_555
C25 C14 1_555 1_555
C26 C2 1_555 1_555
C27 H14 1_555 1_555
C28 C15 1_555 1_555
H15 C28 1_555 1_555
C29 C6 1_555 1_555
H16 C29 1_555 1_555
C30 C13 1_555 1_555
H17 C30 1_555 1_555
C31 C19 1_555 1_555
C32 C16 1_555 1_555
H18 C32 1_555 1_555
C33 O7 1_555 1_555
H19 C33 1_555 1_555
C34 C31 1_555 1_555
H20 C34 1_555 1_555
C35 C8 1_555 1_555
H21 C35 1_555 1_555
C36 N2 1_555 1_555
H22 C36 1_555 1_555
C37 C32 1_555 1_555
C38 C27 1_555 1_555
H23 C38 1_555 1_555
C39 C18 1_555 1_555
H24 C39 1_555 1_555
C40 C36 1_555 1_555
H25 C40 1_555 1_555
B1 C21 1_555 1_555
H26 B1 1_555 1_555
C41 C24 1_555 1_555
H27 C41 1_555 1_555
B2 C24 1_555 1_555
H28 B2 1_555 1_555
B3 C24 1_555 1_555
H29 B3 1_555 1_555
B4 C21 1_555 1_555
H30 B4 1_555 1_555
B5 C21 1_555 1_555
H31 B5 1_555 1_555
B6 C24 1_555 1_555
H32 B6 1_555 1_555
B7 B3 1_555 1_555
H33 B7 1_555 1_555
B8 B2 1_555 1_555
H34 B8 1_555 1_555
B9 C21 1_555 1_555
H35 B9 1_555 1_555
O8 C41 1_555 1_555
H36 O8 1_555 1_555
B10 C21 1_555 1_555
H37 B10 1_555 1_555
Co2A O2A 1_555 1_555
O1A C1A 1_555 1_555
O2A C1A 1_555 1_555
O3A C4A 1_555 1_555
O4A C4A 1_555 1_555
O5A C26A 1_555 1_555
O6A Co1 1_555 1_555
O7A H1A 1_555 1_555
N1A Co2A 1_555 1_555
N2A C16A 1_555 1_555
C1A C8A 1_555 1_555
C2A C7A 1_555 1_555
C3A H2A 1_555 1_555
C4A C6A 1_555 1_555
C5A C3A 1_555 1_555
C6A C10A 1_555 1_555
C7A H3A 1_555 1_555
C8A C27A 1_555 1_555
C9A C2A 1_555 1_555
H4A C9A 1_555 1_555
C10A C3A 1_555 1_555
H5A C10A 1_555 1_555
C11A C7A 1_555 1_555
H6A C11A 1_555 1_555
C12A H7A 1_555 1_555
C13A C5A 1_555 1_555
C14A C11A 1_555 1_555
C15A N1A 1_555 1_555
H8A C15A 1_555 1_555
C16A H9A 1_555 1_555
C17A C5A 1_555 1_555
H10A C17A 1_555 1_555
C18A C28A 1_555 1_555
C19A C12A 1_555 1_555
C20A C9A 1_555 1_555
H11A C20A 1_555 1_555
C21A C33A 1_555 1_555
C22A C19A 1_555 1_555
H12A C22A 1_555 1_555
C23A N1A 1_555 1_555
H13A C23A 1_555 1_555
C24A B1A 1_555 1_555
C25A C14A 1_555 1_555
C26A O6A 1_555 1_555
C27A H14A 1_555 1_555
C28A C15A 1_555 1_555
H15A C28A 1_555 1_555
C29A C6A 1_555 1_555
H16A C29A 1_555 1_555
C30A C13A 1_555 1_555
H17A C30A 1_555 1_555
C31A C19A 1_555 1_555
C32A C16A 1_555 1_555
H18A C32A 1_555 1_555
C33A O7A 1_555 1_555
H19A C33A 1_555 1_555
C34A C31A 1_555 1_555
H20A C34A 1_555 1_555
C35A C8A 1_555 1_555
H21A C35A 1_555 1_555
C36A N2A 1_555 1_555
H22A C36A 1_555 1_555
C37A C32A 1_555 1_555
C38A C27A 1_555 1_555
H23A C38A 1_555 1_555
C39A C18A 1_555 1_555
H24A C39A 1_555 1_555
C40A C36A 1_555 1_555
H25A C40A 1_555 1_555
B1A C21A 1_555 1_555
H26A B1A 1_555 1_555
C41A C24A 1_555 1_555
H27A C41A 1_555 1_555
B2A C24A 1_555 1_555
H28A B2A 1_555 1_555
B3A C24A 1_555 1_555
H29A B3A 1_555 1_555
B4A C21A 1_555 1_555
H30A B4A 1_555 1_555
B5A C21A 1_555 1_555
H31A B5A 1_555 1_555
B6A C24A 1_555 1_555
H32A B6A 1_555 1_555
B7A B3A 1_555 1_555
H33A B7A 1_555 1_555
B8A B2A 1_555 1_555
H34A B8A 1_555 1_555
B9A C21A 1_555 1_555
H35A B9A 1_555 1_555
O8A C41A 1_555 1_555
H36A O8A 1_555 1_555
B10A C21A 1_555 1_555
H37A B10A 1_555 1_555
Co1_2 O6 1_555 1_555
Co1_3 O3 1_555 1_555
Co1_4 O3A 1_555 1_555
Co2_2 N2A 1_555 1_555
Co2_3 O5 1_555 1_555
Co2_4 O3 1_555 1_555
Co2A_2 O3A 1_555 1_555
Co2A_3 O5A 1_555 1_555
Co2A_4 N2 1_555 1_555
O1A_2 Co1 1_555 1_555
O3_2 Co1 1_555 1_555
O3A_2 Co2A 1_555 1_555
O3A_3 Co1 1_555 1_555
O4_2 Co2 1_555 1_555
O4A_2 Co2A 1_555 1_555
O5_2 Co2 1_555 1_555
O5A_2 Co2A 1_555 1_555
O6_2 Co1 1_555 1_555
N2_2 Co2A 1_555 1_555
N2A_2 Co2 1_555 1_555
Co2 O3_2 1_555 1_555
O4 Co2_4 1_555 1_555
C12 C13 1_555 1_555
C14 C20 1_555 1_555
C17 C29 1_555 1_555
C18 C33 1_555 1_555
C22 C25 1_555 1_555
C23 C39 1_555 1_555
C24 B4 1_555 1_555
C25 C30 1_555 1_555
C31 C38 1_555 1_555
C34 C35 1_555 1_555
C37 C40 1_555 1_555
C37 C41 1_555 1_555
B1 B2 1_555 1_555
B1 B4 1_555 1_555
B1 B9 1_555 1_555
B2 B3 1_555 1_555
B2 B9 1_555 1_555
B3 B6 1_555 1_555
B3 B8 1_555 1_555
B4 B6 1_555 1_555
B4 B10 1_555 1_555
B5 B7 1_555 1_555
B5 B8 1_555 1_555
B5 B9 1_555 1_555
B5 B10 1_555 1_555
B6 B7 1_555 1_555
B6 B10 1_555 1_555
B7 B8 1_555 1_555
B7 B10 1_555 1_555
B8 B9 1_555 1_555
O1A Co1_2 1_555 1_555
O4A Co2A_2 1_555 1_555
C2A C26A 1_555 1_555
C12A C13A 1_555 1_555
C14A C20A 1_555 1_555
C17A C29A 1_555 1_555
C18A C33A 1_555 1_555
C22A C25A 1_555 1_555
C23A C39A 1_555 1_555
C24A B4A 1_555 1_555
C25A C30A 1_555 1_555
C31A C38A 1_555 1_555
C34A C35A 1_555 1_555
C37A C40A 1_555 1_555
C37A C41A 1_555 1_555
B1A B2A 1_555 1_555
B1A B4A 1_555 1_555
B1A B9A 1_555 1_555
B2A B3A 1_555 1_555
B2A B9A 1_555 1_555
B3A B6A 1_555 1_555
B3A B8A 1_555 1_555
B4A B6A 1_555 1_555
B4A B10A 1_555 1_555
B5A B7A 1_555 1_555
B5A B8A 1_555 1_555
B5A B9A 1_555 1_555
B5A B10A 1_555 1_555
B6A B7A 1_555 1_555
B6A B10A 1_555 1_555
B7A B8A 1_555 1_555
B7A B10A 1_555 1_555
B8A B9A 1_555 1_555
Co1_2 O3A_2 1_555 1_555
Co2A_3 O3A_3 1_555 1_555

#END
