
#######################################################################
#
#                 Cambridge Crystallographic Data Centre
#                                CCDC 
#
#######################################################################
#
# If this CIF has been generated from an entry in the Cambridge 
# Structural Database, then it will include bibliographic, chemical, 
# crystal, experimental, refinement or atomic coordinate data resulting 
# from the CCDC's data processing and validation procedures.
#
#######################################################################

data_OCIMUL
_chemical_formula_moiety         '(C103 H98 B20 Co3 N4 O16)n'
_symmetry_cell_setting           triclinic
_symmetry_space_group_name_H-M   'P -1'
_symmetry_Int_Tables_number      2
_space_group_name_Hall           '-P 1'
loop_
_symmetry_equiv_pos_site_id
_symmetry_equiv_pos_as_xyz
1 x,y,z
2 -x,-y,-z
_cell_length_a                   14.7141(8)
_cell_length_b                   15.3016(7)
_cell_length_c                   15.8557(10)
_cell_angle_alpha                67.095(2)
_cell_angle_beta                 66.061(2)
_cell_angle_gamma                70.802(3)
_cell_volume                     2942.96
loop_
_atom_site_label
_atom_site_type_symbol
_atom_site_fract_x
_atom_site_fract_y
_atom_site_fract_z
Co1 Co 0.0000 1.0000 0.0000
Co2 Co 0.25454(2) 0.93032(2) -0.01916(2)
O1 O 0.18356(12) 0.84139(11) 0.10991(12)
O2 O 0.04059(12) 0.86127(10) 0.07908(11)
O3 O 0.29624(11) 0.03958(11) 0.83570(11)
O4 O 0.15207(11) -0.00944(10) 0.90020(11)
O5 O 0.20005(12) 0.04014(11) 0.04226(11)
O6 O 0.03050(12) 0.05930(11) 0.08087(11)
O7 O 0.63917(14) 0.80173(12) 0.19011(13)
H1 H 0.6557 0.8521 0.1837
C1 C 0.10502(16) 0.81437(15) 0.12222(15)
N1 N 0.68943(16) 0.19397(14) 0.07381(15)
N2 N 0.38711(14) 0.90070(13) 0.01609(14)
C2 C 0.17850(16) 0.10905(15) 0.74507(15)
C3 C 0.20998(16) 0.04507(14) 0.83146(15)
C4 C 0.09331(16) 0.11518(15) 0.16191(15)
C5 C 0.22343(18) 0.18754(16) 0.68104(17)
H2 H 0.2740 0.2026 0.6929
C6 C 0.12230(17) 0.22103(15) 0.57942(15)
C7 C 0.07681(17) 0.21145(15) 0.28784(15)
C8 C 0.16131(17) 0.08188(16) 0.21409(17)
H3 H 0.2142 0.0269 0.2061
C9 C 0.10848(16) 0.06749(14) 0.08902(15)
C10 C 0.10370(16) 0.08745(15) 0.72776(15)
H4 H 0.0714 0.0352 0.7723
C11 C 0.01454(17) 0.19443(16) 0.17582(16)
H5 H -0.0343 0.2153 0.1435
C12 C 0.07519(17) 0.26748(15) 0.34670(16)
C13 C 0.15204(18) 0.12867(16) 0.27748(16)
H6 H 0.1973 0.1041 0.3142
C14 C 0.07668(17) 0.14268(15) 0.64519(16)
H7 H 0.0266 0.1271 0.6331
C15 C 0.56295(17) 0.83692(15) 0.06889(17)
C16 C 0.08901(17) 0.71679(15) 0.19220(16)
C17 C 0.09202(17) 0.22137(15) 0.43593(16)
H8 H 0.0987 0.1531 0.4623
C18 C 0.00739(17) 0.24306(16) 0.23711(17)
H9 H -0.0452 0.2984 0.2446
C19 C 0.56767(18) 0.87930(16) -0.02754(17)
H10 H 0.6309 0.8871 -0.0769
C20 C 0.46790(17) 0.83255(16) 0.13863(17)
H11 H 0.4616 0.8082 0.2053
C21 C 0.09922(17) 0.27427(15) 0.48714(15)
C22 C 0.07208(18) 0.42226(15) 0.35874(16)
C23 C 0.38266(17) 0.86409(16) 0.10985(17)
H12 H 0.3182 0.8599 0.1581
C24 C 0.08895(18) 0.37493(15) 0.44799(16)
H13 H 0.0935 0.4114 0.4823
C25 C 0.47856(18) 0.90999(17) -0.05038(17)
H14 H 0.4824 0.9391 -0.1164
C26 C 0.06472(17) 0.36789(15) 0.30917(16)
H15 H 0.0524 0.3999 0.2490
C27 C 0.69879(16) 0.68596(16) 0.10066(17)
C28 C 0.01546(17) 0.67592(16) 0.19567(17)
H16 H -0.0293 0.7126 0.1589
C29 C 0.65885(17) 0.79414(16) 0.09798(17)
H17 H 0.7125 0.8315 0.0498
C30 C 0.07073(18) 0.52735(15) 0.30980(16)
C31 C 0.1497(2) 0.66481(16) 0.25105(18)
H18 H 0.1986 0.6933 0.2504
C32 C 0.6224(2) 0.36237(18) 0.1315(2)
C33 C 0.00754(18) 0.58186(16) 0.25262(17)
H19 H -0.0414 0.5538 0.2530
C34 C 0.19413(19) 0.24402(16) 0.59939(17)
H20 H 0.2234 0.2987 0.5570
C35 C 0.6471(2) 0.27874(18) 0.0217(2)
H21 H 0.6395 0.2805 -0.0357
C36 C 0.1394(2) 0.57135(16) 0.31092(18)
H22 H 0.1794 0.5374 0.3527
C37 C 0.6138(2) 0.36366(18) 0.0470(2)
H23 H 0.5855 0.4221 0.0070
C38 C 0.66521(19) 0.51309(17) 0.13119(19)
C39 C 0.6974(2) 0.19347(19) 0.1558(2)
H24 H 0.7268 0.1344 0.1941
C40 C 0.6648(3) 0.2751(2) 0.1867(2)
H25 H 0.6714 0.2713 0.2453
C41 C 0.5838(2) 0.45253(19) 0.1651(2)
H26 H 0.5634 0.4290 0.2373
O8 O 0.4948(2) 0.5115(2) 0.1420(3)
H27 H 0.4452 0.4846 0.1783
B1 B 0.6335(2) 0.59989(19) 0.1885(2)
H28 H 0.5600 0.6154 0.2459
B2 B 0.7602(2) 0.6615(2) -0.0084(2)
H29 H 0.7702 0.7184 -0.0803
B3 B 0.6407(2) 0.63101(19) 0.0656(2)
H30 H 0.5713 0.6666 0.0426
B4 B 0.7496(2) 0.60795(19) 0.1909(2)
H31 H 0.7531 0.6290 0.2495
B5 B 0.7267(2) 0.4935(2) 0.2107(2)
H32 H 0.7144 0.4374 0.2831
B6 B 0.8477(2) 0.5223(2) 0.1370(2)
H33 H 0.9165 0.4856 0.1609
B7 B 0.8285(2) 0.6459(2) 0.0691(2)
H34 H 0.8841 0.6921 0.0480
B8 B 0.7383(2) 0.5466(2) 0.0117(2)
H35 H 0.7338 0.5256 -0.0466
B9 B 0.7926(2) 0.4613(2) 0.1012(2)
H36 H 0.8243 0.3838 0.1016
B10 B 0.8551(2) 0.5561(2) 0.0131(2)
H37 H 0.9284 0.5424 -0.0451
Co2A Co -0.25454(2) 0.06968(2) 0.01916(2)
O1A O -0.18356(12) 0.15861(11) -0.10991(12)
O2A O -0.04059(12) 0.13873(10) -0.07908(11)
O3A O -0.29624(11) 0.96042(11) -0.83570(11)
O4A O -0.15207(11) 1.00944(10) -0.90020(11)
O5A O -0.20005(12) 0.95986(11) -0.04226(11)
O6A O -0.03050(12) 0.94070(11) -0.08087(11)
O7A O -0.63917(14) 0.19827(12) -0.19011(13)
H1A H -0.6557 0.1479 -0.1837
C1A C -0.10502(16) 0.18563(15) -0.12222(15)
N1A N -0.68943(16) 0.80603(14) -0.07381(15)
N2A N -0.38711(14) 0.09930(13) -0.01609(14)
C2A C -0.17850(16) 0.89095(15) -0.74507(15)
C3A C -0.20998(16) 0.95493(14) -0.83146(15)
C4A C -0.09331(16) 0.88482(15) -0.16191(15)
C5A C -0.22343(18) 0.81246(16) -0.68104(17)
H2A H -0.2740 0.7974 -0.6929
C6A C -0.12230(17) 0.77897(15) -0.57942(15)
C7A C -0.07681(17) 0.78855(15) -0.28784(15)
C8A C -0.16131(17) 0.91812(16) -0.21409(17)
H3A H -0.2142 0.9731 -0.2061
C9A C -0.10848(16) 0.93251(14) -0.08902(15)
C10A C -0.10370(16) 0.91255(15) -0.72776(15)
H4A H -0.0714 0.9648 -0.7723
C11A C -0.01454(17) 0.80557(16) -0.17582(16)
H5A H 0.0343 0.7847 -0.1435
C12A C -0.07519(17) 0.73252(15) -0.34670(16)
C13A C -0.15204(18) 0.87133(16) -0.27748(16)
H6A H -0.1973 0.8959 -0.3142
C14A C -0.07668(17) 0.85732(15) -0.64519(16)
H7A H -0.0266 0.8729 -0.6331
C15A C -0.56295(17) 0.16308(15) -0.06889(17)
C16A C -0.08901(17) 0.28321(15) -0.19220(16)
C17A C -0.09202(17) 0.77863(15) -0.43593(16)
H8A H -0.0987 0.8469 -0.4623
C18A C -0.00739(17) 0.75694(16) -0.23711(17)
H9A H 0.0452 0.7016 -0.2446
C19A C -0.56767(18) 0.12070(16) 0.02754(17)
H10A H -0.6309 0.1129 0.0769
C20A C -0.46790(17) 0.16745(16) -0.13863(17)
H11A H -0.4616 0.1918 -0.2053
C21A C -0.09922(17) 0.72573(15) -0.48714(15)
C22A C -0.07208(18) 0.57774(15) -0.35874(16)
C23A C -0.38266(17) 0.13591(16) -0.10985(17)
H12A H -0.3182 0.1401 -0.1581
C24A C -0.08895(18) 0.62507(15) -0.44799(16)
H13A H -0.0935 0.5886 -0.4823
C25A C -0.47856(18) 0.09001(17) 0.05038(17)
H14A H -0.4824 0.0609 0.1164
C26A C -0.06472(17) 0.63211(15) -0.30917(16)
H15A H -0.0524 0.6001 -0.2490
C27A C -0.69879(16) 0.31404(16) -0.10066(17)
C28A C -0.01546(17) 0.32408(16) -0.19567(17)
H16A H 0.0293 0.2874 -0.1589
C29A C -0.65885(17) 0.20586(16) -0.09798(17)
H17A H -0.7125 0.1685 -0.0498
C30A C -0.07073(18) 0.47265(15) -0.30980(16)
C31A C -0.1497(2) 0.33519(16) -0.25105(18)
H18A H -0.1986 0.3067 -0.2504
C32A C -0.6224(2) 0.63763(18) -0.1315(2)
C33A C -0.00754(18) 0.41814(16) -0.25262(17)
H19A H 0.0414 0.4462 -0.2530
C34A C -0.19413(19) 0.75598(16) -0.59939(17)
H20A H -0.2234 0.7013 -0.5570
C35A C -0.6471(2) 0.72126(18) -0.0217(2)
H21A H -0.6395 0.7195 0.0357
C36A C -0.1394(2) 0.42865(16) -0.31092(18)
H22A H -0.1794 0.4626 -0.3527
C37A C -0.6138(2) 0.63634(18) -0.0470(2)
H23A H -0.5855 0.5779 -0.0070
C38A C -0.66521(19) 0.48691(17) -0.13119(19)
C39A C -0.6974(2) 0.80653(19) -0.1558(2)
H24A H -0.7268 0.8656 -0.1941
C40A C -0.6648(3) 0.7249(2) -0.1867(2)
H25A H -0.6714 0.7287 -0.2453
C41A C -0.5838(2) 0.54747(19) -0.1651(2)
H26A H -0.5634 0.5710 -0.2373
O8A O -0.4948(2) 0.4885(2) -0.1420(3)
H27A H -0.4452 0.5154 -0.1783
B1A B -0.6335(2) 0.40011(19) -0.1885(2)
H28A H -0.5600 0.3846 -0.2459
B2A B -0.7602(2) 0.3385(2) 0.0084(2)
H29A H -0.7702 0.2816 0.0803
B3A B -0.6407(2) 0.36899(19) -0.0656(2)
H30A H -0.5713 0.3334 -0.0426
B4A B -0.7496(2) 0.39205(19) -0.1909(2)
H31A H -0.7531 0.3710 -0.2495
B5A B -0.7267(2) 0.5065(2) -0.2107(2)
H32A H -0.7144 0.5626 -0.2831
B6A B -0.8477(2) 0.4777(2) -0.1370(2)
H33A H -0.9165 0.5144 -0.1609
B7A B -0.8285(2) 0.3541(2) -0.0691(2)
H34A H -0.8841 0.3079 -0.0480
B8A B -0.7383(2) 0.4534(2) -0.0117(2)
H35A H -0.7338 0.4744 0.0466
B9A B -0.7926(2) 0.5387(2) -0.1012(2)
H36A H -0.8243 0.6162 -0.1016
B10A B -0.8551(2) 0.4439(2) -0.0131(2)
H37A H -0.9284 0.4576 0.0451
Co1_2 Co 0.0000 0.0000 0.0000
Co1_3 Co 0.0000 -0.0000 1.0000
Co1_4 Co 0.0000 1.0000 -1.0000
Co2_2 Co -0.74546(2) 0.93032(2) -0.01916(2)
Co2_3 Co 0.25454(2) -0.06968(2) -0.01916(2)
Co2_4 Co 0.25454(2) -0.06968(2) 0.98084(2)
Co2A_2 Co -0.25454(2) 1.06968(2) -0.98084(2)
Co2A_3 Co -0.25454(2) 1.06968(2) 0.01916(2)
Co2A_4 Co 0.74546(2) 0.06968(2) 0.01916(2)
O2A_2 O -0.04059(12) 1.13873(10) -0.07908(11)
O3_2 O 0.29624(11) 1.03958(11) -0.16430(11)
O3A_2 O -0.29624(11) -0.03958(11) 0.16430(11)
O4_2 O 0.15207(11) 0.99056(10) -0.09980(11)
O4A_2 O -0.15207(11) 0.00944(10) 0.09980(11)
O4A_3 O -0.15207(11) 1.00944(10) 0.09980(11)
O5_2 O 0.20005(12) 1.04014(11) 0.04226(11)
O5A_2 O -0.20005(12) -0.04014(11) -0.04226(11)
O6_2 O 0.03050(12) 1.05930(11) 0.08087(11)
N1_2 N -0.31057(16) 0.19397(14) 0.07381(15)
N1A_2 N 0.31057(16) 0.80603(14) -0.07381(15)
C42 C 0.2405(2) 0.6836(3) 0.4229(2)
C43 C 0.1858(3) 0.6286(3) 0.5093(3)
H40 H 0.1210 0.6582 0.5442
C44 C 0.3330(3) 0.6361(3) 0.3733(3)
H41 H 0.3712 0.6707 0.3114
C45 C 0.2035(3) 0.7905(3) 0.3821(3)
H42 H 0.1824 0.8017 0.3269
H43 H 0.2583 0.8248 0.3610
H44 H 0.1455 0.8146 0.4320
C46 C 0.3705(3) 0.5396(3) 0.4122(3)
H45 H 0.4346 0.5087 0.3776
C47 C 0.3146(3) 0.4870(3) 0.5024(3)
H46 H 0.3414 0.4214 0.5314
C48 C 0.2226(3) 0.5314(3) 0.5465(3)
H47 H 0.1815 0.4951 0.6051
C49 C 0.3531(4) 0.3505(5) 0.3249(4)
H48 H 0.3268 0.4059 0.3473
C50 C 0.3331(3) 0.3521(5) 0.2467(4)
H49 H 0.2937 0.4085 0.2151
C51 C 0.3698(4) 0.2728(4) 0.2145(4)
H50 H 0.3562 0.2730 0.1607
C52 C 0.4093(4) 0.2715(5) 0.3701(3)
H51 H 0.4210 0.2715 0.4247
C53 C 0.4272(5) 0.1921(4) 0.2616(4)
H52 H 0.4517 0.1360 0.2405
C54 C 0.4501(5) 0.1906(4) 0.3385(4)
C55 C 0.5158(6) 0.1020(5) 0.3875(5)
H53 H 0.5670 0.1223 0.3967
H54 H 0.5498 0.0584 0.3471
H55 H 0.4732 0.0683 0.4505
C56 C 0.3231(3) 0.7697(3) 0.5514(3)
H56 H 0.2803 0.7348 0.6099
C57 C 0.2953(4) 0.8692(3) 0.5200(3)
C58 C 0.4497(4) 0.8690(4) 0.3817(3)
H57 H 0.4935 0.9032 0.3236
C59 C 0.3622(4) 0.9193(3) 0.4314(3)
H58 H 0.3455 0.9879 0.4072
C60 C 0.2009(5) 0.9227(4) 0.5733(5)
H59 H 0.1485 0.9380 0.5437
H60 H 0.2130 0.9829 0.5712
H61 H 0.1783 0.8829 0.6406
C61 C 0.4757(4) 0.7681(4) 0.4154(3)
H62 H 0.5366 0.7336 0.3804
C62 C 0.4114(4) 0.7188(3) 0.5005(3)
H63 H 0.4281 0.6502 0.5239
loop_
_geom_bond_atom_site_label_1
_geom_bond_atom_site_label_2
_geom_bond_site_symmetry_1
_geom_bond_site_symmetry_2
Co1 O2 1_555 1_555
Co2 O1 1_555 1_555
O1 C1 1_555 1_555
O2 C1 1_555 1_555
O3 C3 1_555 1_555
O4 C3 1_555 1_555
O5 C9 1_555 1_555
O6 C9 1_555 1_555
O7 H1 1_555 1_555
C1 C16 1_555 1_555
N1 C35 1_555 1_555
N2 Co2 1_555 1_555
C2 C3 1_555 1_555
C4 C8 1_555 1_555
C5 C2 1_555 1_555
H2 C5 1_555 1_555
C6 C14 1_555 1_555
C7 C12 1_555 1_555
C8 H3 1_555 1_555
C9 C4 1_555 1_555
C10 C2 1_555 1_555
H4 C10 1_555 1_555
C11 C4 1_555 1_555
H5 C11 1_555 1_555
C12 C17 1_555 1_555
C13 C7 1_555 1_555
H6 C13 1_555 1_555
C14 C10 1_555 1_555
H7 C14 1_555 1_555
C15 C19 1_555 1_555
C16 C28 1_555 1_555
C17 H8 1_555 1_555
C18 C7 1_555 1_555
H9 C18 1_555 1_555
C19 H10 1_555 1_555
C20 C15 1_555 1_555
H11 C20 1_555 1_555
C21 C6 1_555 1_555
C22 C24 1_555 1_555
C23 N2 1_555 1_555
H12 C23 1_555 1_555
C24 C21 1_555 1_555
H13 C24 1_555 1_555
C25 N2 1_555 1_555
H14 C25 1_555 1_555
C26 C12 1_555 1_555
H15 C26 1_555 1_555
C27 C29 1_555 1_555
C28 H16 1_555 1_555
C29 O7 1_555 1_555
H17 C29 1_555 1_555
C30 C22 1_555 1_555
C31 C16 1_555 1_555
H18 C31 1_555 1_555
C32 C37 1_555 1_555
C33 C28 1_555 1_555
H19 C33 1_555 1_555
C34 C5 1_555 1_555
H20 C34 1_555 1_555
C35 H21 1_555 1_555
C36 C30 1_555 1_555
H22 C36 1_555 1_555
C37 C35 1_555 1_555
H23 C37 1_555 1_555
C38 C41 1_555 1_555
C39 N1 1_555 1_555
H24 C39 1_555 1_555
C40 C32 1_555 1_555
H25 C40 1_555 1_555
C41 C32 1_555 1_555
H26 C41 1_555 1_555
O8 C41 1_555 1_555
H27 O8 1_555 1_555
B1 C27 1_555 1_555
H28 B1 1_555 1_555
B2 C27 1_555 1_555
H29 B2 1_555 1_555
B3 C27 1_555 1_555
H30 B3 1_555 1_555
B4 C27 1_555 1_555
H31 B4 1_555 1_555
B5 C38 1_555 1_555
H32 B5 1_555 1_555
B6 B4 1_555 1_555
H33 B6 1_555 1_555
B7 C27 1_555 1_555
H34 B7 1_555 1_555
B8 C38 1_555 1_555
H35 B8 1_555 1_555
B9 C38 1_555 1_555
H36 B9 1_555 1_555
B10 B2 1_555 1_555
H37 B10 1_555 1_555
C42 C43 1_555 1_555
C43 H40 1_555 1_555
C44 C42 1_555 1_555
H41 C44 1_555 1_555
C45 C42 1_555 1_555
H42 C45 1_555 1_555
H43 C45 1_555 1_555
H44 C45 1_555 1_555
C46 C44 1_555 1_555
H45 C46 1_555 1_555
C47 C46 1_555 1_555
H46 C47 1_555 1_555
C48 C43 1_555 1_555
H47 C48 1_555 1_555
C49 H48 1_555 1_555
C50 C49 1_555 1_555
H49 C50 1_555 1_555
C51 C50 1_555 1_555
H50 C51 1_555 1_555
C52 C49 1_555 1_555
H51 C52 1_555 1_555
C53 C51 1_555 1_555
H52 C53 1_555 1_555
C54 C52 1_555 1_555
C55 C54 1_555 1_555
H53 C55 1_555 1_555
H54 C55 1_555 1_555
H55 C55 1_555 1_555
C56 H56 1_555 1_555
C57 C56 1_555 1_555
C58 H57 1_555 1_555
C59 C57 1_555 1_555
H58 C59 1_555 1_555
C60 C57 1_555 1_555
H59 C60 1_555 1_555
H60 C60 1_555 1_555
H61 C60 1_555 1_555
C61 C58 1_555 1_555
H62 C61 1_555 1_555
C62 C56 1_555 1_555
H63 C62 1_555 1_555
Co2A O1A 1_555 1_555
O1A C1A 1_555 1_555
O2A C1A 1_555 1_555
O3A C3A 1_555 1_555
O4A C3A 1_555 1_555
O5A C9A 1_555 1_555
O6A Co1 1_555 1_555
O7A H1A 1_555 1_555
C1A C16A 1_555 1_555
N1A C35A 1_555 1_555
N2A Co2A 1_555 1_555
C2A C3A 1_555 1_555
C4A C8A 1_555 1_555
C5A C2A 1_555 1_555
H2A C5A 1_555 1_555
C6A C14A 1_555 1_555
C7A C12A 1_555 1_555
C8A H3A 1_555 1_555
C9A O6A 1_555 1_555
C10A C2A 1_555 1_555
H4A C10A 1_555 1_555
C11A C4A 1_555 1_555
H5A C11A 1_555 1_555
C12A C17A 1_555 1_555
C13A C7A 1_555 1_555
H6A C13A 1_555 1_555
C14A C10A 1_555 1_555
H7A C14A 1_555 1_555
C15A C19A 1_555 1_555
C16A C28A 1_555 1_555
C17A H8A 1_555 1_555
C18A C7A 1_555 1_555
H9A C18A 1_555 1_555
C19A H10A 1_555 1_555
C20A C15A 1_555 1_555
H11A C20A 1_555 1_555
C21A C6A 1_555 1_555
C22A C24A 1_555 1_555
C23A N2A 1_555 1_555
H12A C23A 1_555 1_555
C24A C21A 1_555 1_555
H13A C24A 1_555 1_555
C25A N2A 1_555 1_555
H14A C25A 1_555 1_555
C26A C12A 1_555 1_555
H15A C26A 1_555 1_555
C27A C29A 1_555 1_555
C28A H16A 1_555 1_555
C29A O7A 1_555 1_555
H17A C29A 1_555 1_555
C30A C22A 1_555 1_555
C31A C16A 1_555 1_555
H18A C31A 1_555 1_555
C32A C37A 1_555 1_555
C33A C28A 1_555 1_555
H19A C33A 1_555 1_555
C34A C5A 1_555 1_555
H20A C34A 1_555 1_555
C35A H21A 1_555 1_555
C36A C30A 1_555 1_555
H22A C36A 1_555 1_555
C37A C35A 1_555 1_555
H23A C37A 1_555 1_555
C38A C41A 1_555 1_555
C39A N1A 1_555 1_555
H24A C39A 1_555 1_555
C40A C32A 1_555 1_555
H25A C40A 1_555 1_555
C41A C32A 1_555 1_555
H26A C41A 1_555 1_555
O8A C41A 1_555 1_555
H27A O8A 1_555 1_555
B1A C27A 1_555 1_555
H28A B1A 1_555 1_555
B2A C27A 1_555 1_555
H29A B2A 1_555 1_555
B3A C27A 1_555 1_555
H30A B3A 1_555 1_555
B4A C27A 1_555 1_555
H31A B4A 1_555 1_555
B5A C38A 1_555 1_555
H32A B5A 1_555 1_555
B6A B4A 1_555 1_555
H33A B6A 1_555 1_555
B7A C27A 1_555 1_555
H34A B7A 1_555 1_555
B8A C38A 1_555 1_555
H35A B8A 1_555 1_555
B9A C38A 1_555 1_555
H36A B9A 1_555 1_555
B10A B2A 1_555 1_555
H37A B10A 1_555 1_555
Co1_2 O6 1_555 1_555
Co1_3 O4 1_555 1_555
Co1_4 O4A 1_555 1_555
Co2_2 N1A 1_555 1_555
Co2_3 O5 1_555 1_555
Co2_4 O3 1_555 1_555
Co2A_2 O3A 1_555 1_555
Co2A_3 O5A 1_555 1_555
Co2A_4 N1 1_555 1_555
O2A_2 Co1 1_555 1_555
O3_2 Co2 1_555 1_555
O3A_2 Co2A 1_555 1_555
O4_2 Co1 1_555 1_555
O4A_2 Co2A 1_555 1_555
O4A_3 Co1 1_555 1_555
O5_2 Co2 1_555 1_555
O5A_2 Co2A 1_555 1_555
O6_2 Co1 1_555 1_555
N1_2 Co2A 1_555 1_555
N1A_2 Co2 1_555 1_555
Co2 O4_2 1_555 1_555
O4 Co2_4 1_555 1_555
C6 C34 1_555 1_555
C8 C13 1_555 1_555
C11 C18 1_555 1_555
C15 C29 1_555 1_555
C17 C21 1_555 1_555
C19 C25 1_555 1_555
C20 C23 1_555 1_555
C22 C26 1_555 1_555
C30 C33 1_555 1_555
C31 C36 1_555 1_555
C38 B1 1_555 1_555
C38 B3 1_555 1_555
C39 C40 1_555 1_555
B1 B3 1_555 1_555
B1 B4 1_555 1_555
B1 B5 1_555 1_555
B2 B3 1_555 1_555
B2 B7 1_555 1_555
B2 B8 1_555 1_555
B3 B8 1_555 1_555
B4 B5 1_555 1_555
B4 B7 1_555 1_555
B5 B6 1_555 1_555
B5 B9 1_555 1_555
B6 B7 1_555 1_555
B6 B9 1_555 1_555
B6 B10 1_555 1_555
B7 B10 1_555 1_555
B8 B9 1_555 1_555
B8 B10 1_555 1_555
B9 B10 1_555 1_555
C47 C48 1_555 1_555
C53 C54 1_555 1_555
C58 C59 1_555 1_555
C61 C62 1_555 1_555
O2A Co1_2 1_555 1_555
O4A Co2A_2 1_555 1_555
C4A C9A 1_555 1_555
C6A C34A 1_555 1_555
C8A C13A 1_555 1_555
C11A C18A 1_555 1_555
C15A C29A 1_555 1_555
C17A C21A 1_555 1_555
C19A C25A 1_555 1_555
C20A C23A 1_555 1_555
C22A C26A 1_555 1_555
C30A C33A 1_555 1_555
C31A C36A 1_555 1_555
C38A B1A 1_555 1_555
C38A B3A 1_555 1_555
C39A C40A 1_555 1_555
B1A B3A 1_555 1_555
B1A B4A 1_555 1_555
B1A B5A 1_555 1_555
B2A B3A 1_555 1_555
B2A B7A 1_555 1_555
B2A B8A 1_555 1_555
B3A B8A 1_555 1_555
B4A B5A 1_555 1_555
B4A B7A 1_555 1_555
B5A B6A 1_555 1_555
B5A B9A 1_555 1_555
B6A B7A 1_555 1_555
B6A B9A 1_555 1_555
B6A B10A 1_555 1_555
B7A B10A 1_555 1_555
B8A B9A 1_555 1_555
B8A B10A 1_555 1_555
B9A B10A 1_555 1_555
Co1_2 O4A_2 1_555 1_555
Co2A_3 O4A_3 1_555 1_555

#END
