
#######################################################################
#
#                 Cambridge Crystallographic Data Centre
#                                CCDC 
#
#######################################################################
#
# If this CIF has been generated from an entry in the Cambridge 
# Structural Database, then it will include bibliographic, chemical, 
# crystal, experimental, refinement or atomic coordinate data resulting 
# from the CCDC's data processing and validation procedures.
#
#######################################################################

data_OCIMAR
_chemical_formula_moiety         '(C83 H75 B20 Cl3 Co3 N4 O16)n'
_symmetry_cell_setting           triclinic
_symmetry_space_group_name_H-M   'P -1'
_symmetry_Int_Tables_number      2
_space_group_name_Hall           '-P 1'
loop_
_symmetry_equiv_pos_site_id
_symmetry_equiv_pos_as_xyz
1 x,y,z
2 -x,-y,-z
_cell_length_a                   14.7030(8)
_cell_length_b                   15.2876(7)
_cell_length_c                   15.7014(7)
_cell_angle_alpha                67.499(2)
_cell_angle_beta                 64.547(2)
_cell_angle_gamma                69.969(2)
_cell_volume                     2876.26
loop_
_atom_site_label
_atom_site_type_symbol
_atom_site_fract_x
_atom_site_fract_y
_atom_site_fract_z
Co1 Co 1.0000 -0.0000 1.0000
Co2 Co 0.74141(3) 0.07227(2) 1.02417(2)
O1 O 0.84474(14) 1.01259(12) 0.10238(12)
O2 O 0.96004(15) 0.13849(13) 0.92080(13)
O3 O 0.70091(15) 0.96153(13) 0.17003(13)
O4 O 0.79898(14) 0.96172(14) 0.96066(14)
O5 O 0.97053(15) 0.93991(13) 0.91932(13)
O6 O 0.81451(15) 0.16121(14) 0.89436(14)
N1 N 0.3206(2) 0.80507(17) 0.91538(18)
N2 N 0.61041(18) 0.10311(16) 0.98695(17)
C1 C 0.7876(2) 0.95710(18) 0.17176(18)
O7 O 0.3677(2) 0.19393(18) 0.8061(2)
H1 H 0.3454 0.1469 0.8131
C2 C 0.8815(2) 0.77798(18) 0.41917(18)
C3 C 0.9231(2) 0.8596(2) 0.35493(19)
H2 H 0.9721 0.8763 0.3671
C4 C 0.8951(2) 0.18646(18) 0.87915(19)
C5 C 0.8919(2) 0.93243(18) 0.91243(18)
C6 C 0.9088(2) 0.88374(18) 0.83856(18)
C7 C 0.8937(2) 0.91569(19) 0.27454(18)
H3 H 0.9229 0.9702 0.2313
C8 C 0.9117(2) 0.28318(19) 0.80763(19)
C9 C 0.9071(2) 0.72331(19) 0.51005(18)
C10 C 0.9162(2) 0.62318(19) 0.54898(19)
H4 H 0.9109 0.5871 0.5143
C11 C 0.9860(2) 0.32339(19) 0.8034(2)
H5 H 1.0298 0.2868 0.8409
C12 C 0.9145(2) 0.77584(18) 0.56203(18)
H6 H 0.9077 0.8441 0.5363
C13 C 0.8399(2) 0.91614(19) 0.78849(19)
H7 H 0.7852 0.9709 0.7985
C14 C 0.8512(2) 0.86831(19) 0.72374(19)
H8 H 0.8057 0.8922 0.6876
C15 C 0.9409(2) 0.62957(19) 0.68820(19)
H9 H 0.9528 0.5976 0.7487
C16 C 0.3568(3) 0.7190(2) 0.9702(2)
H10 H 0.3601 0.7165 1.0302
C17 C 0.9317(2) 0.72940(19) 0.65086(19)
C18 C 0.8210(2) 0.89219(19) 0.25685(18)
C19 C 0.6189(2) 0.1359(2) 0.8916(2)
H11 H 0.6855 0.1382 0.8432
C20 C 0.8117(2) 0.7535(2) 0.39873(19)
H12 H 0.7850 0.6972 0.4399
C21 C 0.9329(2) 0.47069(19) 0.68873(19)
C22 C 0.9980(2) 0.7544(2) 0.7608(2)
H13 H 1.0517 0.6987 0.7523
C23 C 0.7806(2) 0.8108(2) 0.3185(2)
H14 H 0.7318 0.7942 0.3060
C24 C 0.9892(2) 0.8042(2) 0.8228(2)
H15 H 1.0383 0.7838 0.8544
C25 C 0.9962(2) 0.4164(2) 0.7448(2)
H16 H 1.0466 0.4435 0.7428
C26 C 0.9287(2) 0.78563(18) 0.71139(18)
C27 C 0.8516(3) 0.3351(2) 0.7488(2)
H17 H 0.8025 0.3072 0.7496
C28 C 0.3895(3) 0.6338(2) 0.9440(3)
H18 H 0.4135 0.5746 0.9860
C29 C 0.9330(2) 0.57524(18) 0.63856(19)
C30 C 0.4387(2) 0.1638(2) 0.9301(2)
C31 C 0.4294(2) 0.1250(2) 1.0283(2)
H19 H 0.3640 0.1181 1.0776
C32 C 0.5357(3) 0.1661(2) 0.8613(2)
H20 H 0.5451 0.1884 0.7933
C33 C 0.8631(3) 0.4273(2) 0.6890(2)
H21 H 0.8229 0.4617 0.6476
C34 C 0.3033(2) 0.3143(2) 0.8956(2)
C35 C 0.3202(3) 0.8064(2) 0.8300(2)
H22 H 0.2972 0.8668 0.7888
C36 C 0.3405(3) 0.4868(2) 0.8596(2)
C37 C 0.3872(3) 0.6352(2) 0.8556(2)
C38 C 0.3440(3) 0.2049(2) 0.8992(3)
H23 H 0.2888 0.1689 0.9484
C39 C 0.5169(2) 0.0963(2) 1.0536(2)
H24 H 0.5099 0.0708 1.1211
O8 O 0.5114(3) 0.4814(2) 0.8509(3)
H25 H 0.5166 0.4994 0.8926
C40 C 0.4244(3) 0.5447(2) 0.8219(3)
H26 H 0.4483 0.5650 0.7486
C41 C 0.3516(3) 0.7242(2) 0.7983(2)
H27 H 0.3486 0.7289 0.7374
B1 B 0.3716(3) 0.3964(2) 0.8055(3)
H28 H 0.4469 0.3773 0.7476
B2 B 0.3618(3) 0.3701(3) 0.9289(3)
H29 H 0.4308 0.3342 0.9524
B3 B 0.2540(3) 0.3900(3) 0.8052(3)
H30 H 0.2507 0.3666 0.7473
B4 B 0.2393(3) 0.3430(3) 1.0056(3)
H31 H 0.2275 0.2882 1.0792
B5 B 0.2635(3) 0.4585(3) 0.9813(3)
H32 H 0.2670 0.4820 1.0390
B6 B 0.2121(3) 0.5423(3) 0.8896(4)
H33 H 0.1817 0.6209 0.8870
B7 B 0.2794(4) 0.5035(3) 0.7813(3)
H34 H 0.2941 0.5567 0.7067
B8 B 0.1713(3) 0.3569(3) 0.9294(4)
H35 H 0.1140 0.3118 0.9533
B9 B 0.1559(4) 0.4801(3) 0.8566(4)
H36 H 0.0878 0.5179 0.8319
B10 B 0.1444(3) 0.4499(4) 0.9830(4)
H37 H 0.0691 0.4667 1.0420
Co2A Co 0.25859(3) 0.92773(2) 0.97583(2)
O1A O 0.15526(14) -0.01259(12) 1.89762(12)
O2A O 0.03996(15) 0.86151(13) 1.07920(13)
O3A O 0.29909(15) 0.03847(13) 1.82997(13)
O4A O 0.20102(14) 0.03828(14) 1.03934(14)
O5A O 0.02947(15) 0.06009(13) 1.08068(13)
O6A O 0.18549(15) 0.83879(14) 1.10564(14)
N1A N 0.6794(2) 0.19493(17) 1.08462(18)
N2A N 0.38959(18) 0.89689(16) 1.01305(17)
C1A C 0.2124(2) 0.04290(18) 1.82824(18)
O7A O 0.6323(2) 0.80607(18) 1.1939(2)
H1A H 0.6546 0.8531 1.1869
C2A C 0.1185(2) 0.22202(18) 1.58083(18)
C3A C 0.0769(2) 0.1404(2) 1.64507(19)
H2A H 0.0279 0.1237 1.6329
C4A C 0.1049(2) 0.81354(18) 1.12085(19)
C5A C 0.1081(2) 0.06757(18) 1.08757(18)
C6A C 0.0912(2) 0.11626(18) 1.16144(18)
C7A C 0.1063(2) 0.08431(19) 1.72546(18)
H3A H 0.0771 0.0298 1.7687
C8A C 0.0883(2) 0.71682(19) 1.19237(19)
C9A C 0.0929(2) 0.27669(19) 1.48995(18)
C10A C 0.0838(2) 0.37682(19) 1.45102(19)
H4A H 0.0891 0.4129 1.4857
C11A C 0.0140(2) 0.67661(19) 1.1966(2)
H5A H -0.0298 0.7132 1.1591
C12A C 0.0855(2) 0.22416(18) 1.43797(18)
H6A H 0.0923 0.1559 1.4637
C13A C 0.1601(2) 0.08386(19) 1.21151(19)
H7A H 0.2148 0.0291 1.2015
C14A C 0.1488(2) 0.13169(19) 1.27626(19)
H8A H 0.1943 0.1078 1.3124
C15A C 0.0591(2) 0.37043(19) 1.31180(19)
H9A H 0.0472 0.4024 1.2513
C16A C 0.6432(3) 0.2810(2) 1.0298(2)
H10A H 0.6399 0.2835 0.9698
C17A C 0.0683(2) 0.27060(19) 1.34914(19)
C18A C 0.1790(2) 0.10781(19) 1.74315(18)
C19A C 0.3811(2) 0.8641(2) 1.1084(2)
H11A H 0.3145 0.8618 1.1568
C20A C 0.1883(2) 0.2465(2) 1.60127(19)
H12A H 0.2150 0.3028 1.5601
C21A C 0.0671(2) 0.52931(19) 1.31127(19)
C22A C 0.0020(2) 0.2456(2) 1.2392(2)
H13A H -0.0517 0.3013 1.2477
C23A C 0.2194(2) 0.1892(2) 1.6815(2)
H14A H 0.2682 0.2058 1.6940
C24A C 0.0108(2) 0.1958(2) 1.1772(2)
H15A H -0.0383 0.2162 1.1456
C25A C 0.0038(2) 0.5836(2) 1.2552(2)
H16A H -0.0466 0.5565 1.2572
C26A C 0.0713(2) 0.21437(18) 1.28861(18)
C27A C 0.1484(3) 0.6649(2) 1.2512(2)
H17A H 0.1975 0.6928 1.2504
C28A C 0.6105(3) 0.3662(2) 1.0560(3)
H18A H 0.5865 0.4254 1.0140
C29A C 0.0670(2) 0.42476(18) 1.36144(19)
C30A C 0.5613(2) 0.8362(2) 1.0699(2)
C31A C 0.5706(2) 0.8750(2) 0.9717(2)
H19A H 0.6360 0.8819 0.9224
C32A C 0.4643(3) 0.8339(2) 1.1387(2)
H20A H 0.4549 0.8116 1.2067
C33A C 0.1369(3) 0.5727(2) 1.3110(2)
H21A H 0.1771 0.5383 1.3524
C34A C 0.6967(2) 0.6857(2) 1.1044(2)
C35A C 0.6798(3) 0.1936(2) 1.1700(2)
H22A H 0.7028 0.1332 1.2112
C36A C 0.6595(3) 0.5132(2) 1.1404(2)
C37A C 0.6128(3) 0.3648(2) 1.1444(2)
C38A C 0.6560(3) 0.7951(2) 1.1008(3)
H23A H 0.7112 0.8311 1.0516
C39A C 0.4831(2) 0.9037(2) 0.9464(2)
H24A H 0.4901 0.9292 0.8789
O8A O 0.4886(3) 0.5186(2) 1.1491(3)
H25A H 0.4834 0.5006 1.1074
C40A C 0.5756(3) 0.4553(2) 1.1781(3)
H26A H 0.5517 0.4350 1.2514
C41A C 0.6484(3) 0.2758(2) 1.2017(2)
H27A H 0.6514 0.2711 1.2626
B1A B 0.6284(3) 0.6036(2) 1.1945(3)
H28A H 0.5531 0.6227 1.2524
B2A B 0.6382(3) 0.6299(3) 1.0711(3)
H29A H 0.5692 0.6658 1.0476
B3A B 0.7460(3) 0.6100(3) 1.1948(3)
H30A H 0.7493 0.6334 1.2527
B4A B 0.7607(3) 0.6570(3) 0.9944(3)
H31A H 0.7725 0.7118 0.9208
B5A B 0.7365(3) 0.5415(3) 1.0187(3)
H32A H 0.7330 0.5180 0.9610
B6A B 0.7879(3) 0.4577(3) 1.1104(4)
H33A H 0.8183 0.3791 1.1130
B7A B 0.7206(4) 0.4965(3) 1.2187(3)
H34A H 0.7059 0.4433 1.2933
B8A B 0.8287(3) 0.6431(3) 1.0706(4)
H35A H 0.8860 0.6882 1.0467
B9A B 0.8441(4) 0.5199(3) 1.1434(4)
H36A H 0.9122 0.4821 1.1681
B10A B 0.8556(3) 0.5501(4) 1.0170(4)
H37A H 0.9309 0.5333 0.9580
Co1_2 Co 0.0000 -0.0000 1.0000
Co1_3 Co 0.0000 -0.0000 2.0000
Co1_4 Co 0.0000 1.0000 1.0000
Co1_5 Co 1.0000 1.0000 0.0000
Co1_6 Co 1.0000 1.0000 1.0000
Co2_2 Co 0.74141(3) 1.07227(2) 0.02417(2)
Co2_3 Co 0.74141(3) 1.07227(2) 1.02417(2)
Co2A_2 Co 0.25859(3) -0.07227(2) 0.97583(2)
Co2A_3 Co 0.25859(3) -0.07227(2) 1.97583(2)
O1_2 O 0.84474(14) 0.01259(12) 1.10238(12)
O1A_2 O 0.15526(14) 0.98741(12) 0.89762(12)
O1A_3 O 1.15526(14) -0.01259(12) 0.89762(12)
O2A_2 O 1.03996(15) -0.13849(13) 1.07920(13)
O3_2 O 0.70091(15) -0.03847(13) 1.17003(13)
O3A_2 O 0.29909(15) 1.03847(13) 0.82997(13)
O4_2 O 0.79898(14) -0.03828(14) 0.96066(14)
O4A_2 O 0.20102(14) 1.03828(14) 1.03934(14)
O5_2 O 0.97053(15) -0.06009(13) 0.91932(13)
O5A_2 O 1.02947(15) 0.06009(13) 1.08068(13)
Cl1 Cl 0.63145(12) 0.65554(15) 0.64879(11)
Cl2 Cl 0.6463(2) 0.6667(3) 0.82008(15)
Cl3 Cl 0.6070(2) 0.8409(2) 0.6728(3)
C42 C 0.6657(4) 0.7149(4) 0.7015(4)
H40 H 0.7417 0.7105 0.6682
loop_
_geom_bond_atom_site_label_1
_geom_bond_atom_site_label_2
_geom_bond_site_symmetry_1
_geom_bond_site_symmetry_2
Co1 O2 1_555 1_555
Co2 O6 1_555 1_555
O1 C1 1_555 1_555
O2 C4 1_555 1_555
O3 C1 1_555 1_555
O4 C5 1_555 1_555
O5 C5 1_555 1_555
O6 C4 1_555 1_555
N1 C16 1_555 1_555
N2 Co2 1_555 1_555
C1 C18 1_555 1_555
O7 H1 1_555 1_555
C2 C3 1_555 1_555
C3 H2 1_555 1_555
C4 C8 1_555 1_555
C5 C6 1_555 1_555
C6 C13 1_555 1_555
C7 C3 1_555 1_555
H3 C7 1_555 1_555
C8 C11 1_555 1_555
C9 C2 1_555 1_555
C10 C9 1_555 1_555
H4 C10 1_555 1_555
C11 H5 1_555 1_555
C12 C9 1_555 1_555
H6 C12 1_555 1_555
C13 H7 1_555 1_555
C14 C13 1_555 1_555
H8 C14 1_555 1_555
C15 H9 1_555 1_555
C16 H10 1_555 1_555
C17 C12 1_555 1_555
C18 C7 1_555 1_555
C19 N2 1_555 1_555
H11 C19 1_555 1_555
C20 C2 1_555 1_555
H12 C20 1_555 1_555
C21 C25 1_555 1_555
C22 H13 1_555 1_555
C23 C18 1_555 1_555
H14 C23 1_555 1_555
C24 C6 1_555 1_555
H15 C24 1_555 1_555
C25 C11 1_555 1_555
H16 C25 1_555 1_555
C26 C14 1_555 1_555
C27 C8 1_555 1_555
H17 C27 1_555 1_555
C28 C16 1_555 1_555
H18 C28 1_555 1_555
C29 C10 1_555 1_555
C30 C31 1_555 1_555
C31 H19 1_555 1_555
C32 C19 1_555 1_555
H20 C32 1_555 1_555
C33 C21 1_555 1_555
H21 C33 1_555 1_555
C34 C38 1_555 1_555
C35 N1 1_555 1_555
H22 C35 1_555 1_555
C36 C40 1_555 1_555
C37 C28 1_555 1_555
C38 O7 1_555 1_555
H23 C38 1_555 1_555
C39 N2 1_555 1_555
H24 C39 1_555 1_555
O8 H25 1_555 1_555
C40 C37 1_555 1_555
H26 C40 1_555 1_555
C41 C35 1_555 1_555
H27 C41 1_555 1_555
B1 C34 1_555 1_555
H28 B1 1_555 1_555
B2 C34 1_555 1_555
H29 B2 1_555 1_555
B3 C34 1_555 1_555
H30 B3 1_555 1_555
B4 C34 1_555 1_555
H31 B4 1_555 1_555
B5 C36 1_555 1_555
H32 B5 1_555 1_555
B6 C36 1_555 1_555
H33 B6 1_555 1_555
B7 C36 1_555 1_555
H34 B7 1_555 1_555
B8 C34 1_555 1_555
H35 B8 1_555 1_555
B9 B3 1_555 1_555
H36 B9 1_555 1_555
B10 B4 1_555 1_555
H37 B10 1_555 1_555
Cl1 C42 1_555 1_555
Cl2 C42 1_555 1_555
Cl3 C42 1_555 1_555
C42 H40 1_555 1_555
Co2A N1 1_555 1_555
O1A C1A 1_555 1_555
O2A C4A 1_555 1_555
O3A C1A 1_555 1_555
O4A C5A 1_555 1_555
O5A C5A 1_555 1_555
O6A Co2A 1_555 1_555
N1A Co2 1_555 1_555
N2A Co2A 1_555 1_555
C1A C18A 1_555 1_555
O7A H1A 1_555 1_555
C2A C3A 1_555 1_555
C3A H2A 1_555 1_555
C4A O6A 1_555 1_555
C5A C6A 1_555 1_555
C6A C13A 1_555 1_555
C7A C3A 1_555 1_555
H3A C7A 1_555 1_555
C8A C4A 1_555 1_555
C9A C2A 1_555 1_555
C10A C9A 1_555 1_555
H4A C10A 1_555 1_555
C11A C8A 1_555 1_555
H5A C11A 1_555 1_555
C12A C9A 1_555 1_555
H6A C12A 1_555 1_555
C13A H7A 1_555 1_555
C14A C13A 1_555 1_555
H8A C14A 1_555 1_555
C15A H9A 1_555 1_555
C16A N1A 1_555 1_555
H10A C16A 1_555 1_555
C17A C12A 1_555 1_555
C18A C7A 1_555 1_555
C19A N2A 1_555 1_555
H11A C19A 1_555 1_555
C20A C2A 1_555 1_555
H12A C20A 1_555 1_555
C21A C25A 1_555 1_555
C22A H13A 1_555 1_555
C23A C18A 1_555 1_555
H14A C23A 1_555 1_555
C24A C6A 1_555 1_555
H15A C24A 1_555 1_555
C25A C11A 1_555 1_555
H16A C25A 1_555 1_555
C26A C14A 1_555 1_555
C27A C8A 1_555 1_555
H17A C27A 1_555 1_555
C28A C16A 1_555 1_555
H18A C28A 1_555 1_555
C29A C10A 1_555 1_555
C30A C31A 1_555 1_555
C31A H19A 1_555 1_555
C32A C19A 1_555 1_555
H20A C32A 1_555 1_555
C33A C21A 1_555 1_555
H21A C33A 1_555 1_555
C34A C38A 1_555 1_555
C35A N1A 1_555 1_555
H22A C35A 1_555 1_555
C36A C40A 1_555 1_555
C37A C28A 1_555 1_555
C38A O7A 1_555 1_555
H23A C38A 1_555 1_555
C39A N2A 1_555 1_555
H24A C39A 1_555 1_555
O8A H25A 1_555 1_555
C40A C37A 1_555 1_555
H26A C40A 1_555 1_555
C41A C35A 1_555 1_555
H27A C41A 1_555 1_555
B1A C34A 1_555 1_555
H28A B1A 1_555 1_555
B2A C34A 1_555 1_555
H29A B2A 1_555 1_555
B3A C34A 1_555 1_555
H30A B3A 1_555 1_555
B4A C34A 1_555 1_555
H31A B4A 1_555 1_555
B5A C36A 1_555 1_555
H32A B5A 1_555 1_555
B6A C36A 1_555 1_555
H33A B6A 1_555 1_555
B7A C36A 1_555 1_555
H34A B7A 1_555 1_555
B8A C34A 1_555 1_555
H35A B8A 1_555 1_555
B9A B3A 1_555 1_555
H36A B9A 1_555 1_555
B10A B4A 1_555 1_555
H37A B10A 1_555 1_555
Co1_2 O5A 1_555 1_555
Co1_3 O1A 1_555 1_555
Co1_4 O2A 1_555 1_555
Co1_5 O1 1_555 1_555
Co1_6 O5 1_555 1_555
Co2_2 O1 1_555 1_555
Co2_3 O4 1_555 1_555
Co2A_2 O4A 1_555 1_555
Co2A_3 O1A 1_555 1_555
O1_2 Co1 1_555 1_555
O1A_2 Co2A 1_555 1_555
O1A_3 Co1 1_555 1_555
O2A_2 Co1 1_555 1_555
O3_2 Co2 1_555 1_555
O3A_2 Co2A 1_555 1_555
O4_2 Co2 1_555 1_555
O4A_2 Co2A 1_555 1_555
O5_2 Co1 1_555 1_555
O5A_2 Co1 1_555 1_555
Co2 O1_2 1_555 1_555
O3 Co2_2 1_555 1_555
C15 C17 1_555 1_555
C15 C29 1_555 1_555
C17 C26 1_555 1_555
C20 C23 1_555 1_555
C21 C29 1_555 1_555
C22 C24 1_555 1_555
C22 C26 1_555 1_555
C27 C33 1_555 1_555
C30 C32 1_555 1_555
C30 C38 1_555 1_555
C31 C39 1_555 1_555
C36 B1 1_555 1_555
C36 B2 1_555 1_555
C37 C41 1_555 1_555
O8 C40 1_555 1_555
B1 B2 1_555 1_555
B1 B3 1_555 1_555
B1 B7 1_555 1_555
B2 B4 1_555 1_555
B2 B5 1_555 1_555
B3 B7 1_555 1_555
B3 B8 1_555 1_555
B4 B5 1_555 1_555
B4 B8 1_555 1_555
B5 B6 1_555 1_555
B5 B10 1_555 1_555
B6 B7 1_555 1_555
B6 B9 1_555 1_555
B6 B10 1_555 1_555
B7 B9 1_555 1_555
B8 B9 1_555 1_555
B8 B10 1_555 1_555
B9 B10 1_555 1_555
O3A Co2A_3 1_555 1_555
C15A C17A 1_555 1_555
C15A C29A 1_555 1_555
C17A C26A 1_555 1_555
C20A C23A 1_555 1_555
C21A C29A 1_555 1_555
C22A C24A 1_555 1_555
C22A C26A 1_555 1_555
C27A C33A 1_555 1_555
C30A C32A 1_555 1_555
C30A C38A 1_555 1_555
C31A C39A 1_555 1_555
C36A B1A 1_555 1_555
C36A B2A 1_555 1_555
C37A C41A 1_555 1_555
O8A C40A 1_555 1_555
B1A B2A 1_555 1_555
B1A B3A 1_555 1_555
B1A B7A 1_555 1_555
B2A B4A 1_555 1_555
B2A B5A 1_555 1_555
B3A B7A 1_555 1_555
B3A B8A 1_555 1_555
B4A B5A 1_555 1_555
B4A B8A 1_555 1_555
B5A B6A 1_555 1_555
B5A B10A 1_555 1_555
B6A B7A 1_555 1_555
B6A B9A 1_555 1_555
B6A B10A 1_555 1_555
B7A B9A 1_555 1_555
B8A B9A 1_555 1_555
B8A B10A 1_555 1_555
B9A B10A 1_555 1_555
Co1_4 O1A_2 1_555 1_555

#END
