
#######################################################################
#
#                 Cambridge Crystallographic Data Centre
#                                CCDC 
#
#######################################################################
#
# If this CIF has been generated from an entry in the Cambridge 
# Structural Database, then it will include bibliographic, chemical, 
# crystal, experimental, refinement or atomic coordinate data resulting 
# from the CCDC's data processing and validation procedures.
#
#######################################################################

data_OCIMIZ
_chemical_formula_moiety         '(C100 H89 B20 Co3 N7 O22)n'
_symmetry_cell_setting           triclinic
_symmetry_space_group_name_H-M   'P -1'
_symmetry_Int_Tables_number      2
_space_group_name_Hall           '-P 1'
loop_
_symmetry_equiv_pos_site_id
_symmetry_equiv_pos_as_xyz
1 x,y,z
2 -x,-y,-z
_cell_length_a                   14.9235(9)
_cell_length_b                   15.1203(9)
_cell_length_c                   15.9793(11)
_cell_angle_alpha                67.399(2)
_cell_angle_beta                 68.016(2)
_cell_angle_gamma                70.670(2)
_cell_volume                     3012.09
loop_
_atom_site_label
_atom_site_type_symbol
_atom_site_fract_x
_atom_site_fract_y
_atom_site_fract_z
Co1 Co 0.24835(2) 0.93250(2) -0.01419(2)
C1 C 0.67304(18) 0.51426(18) 0.13259(19)
Co2 Co 0.0000 0.0000 0.0000
B1 B 0.6395(2) 0.6335(2) 0.0693(2)
H1 H 0.5682 0.6661 0.0499
B2 B 0.7352(2) 0.5510(2) 0.0134(2)
H2 H 0.7272 0.5281 -0.0418
B3 B 0.7997(2) 0.4683(2) 0.0966(2)
H3 H 0.8346 0.3906 0.0955
B4 B 0.7417(2) 0.4990(2) 0.2049(2)
H4 H 0.7382 0.4415 0.2752
B5 B 0.6425(2) 0.60257(19) 0.1874(2)
H5 H 0.5734 0.6150 0.2458
B6 B 0.7503(2) 0.6708(2) -0.0077(2)
H6 H 0.7526 0.7289 -0.0775
B7 B 0.8504(2) 0.5676(2) 0.0087(2)
H7 H 0.9190 0.5565 -0.0504
B8 B 0.8532(2) 0.5349(2) 0.1279(2)
H8 H 0.9244 0.5016 0.1475
B9 B 0.7569(2) 0.6178(2) 0.1841(2)
H9 H 0.7638 0.6406 0.2400
C2 C 0.69591(16) 0.69317(17) 0.10019(16)
B10 B 0.8235(2) 0.6599(2) 0.0633(2)
H10 H 0.8742 0.7107 0.0399
C3 C 0.65055(17) 0.80196(16) 0.09999(17)
H11 H 0.6995 0.8427 0.0542
O1 O 0.63147(13) 0.80816(12) 0.19191(12)
H12 H 0.6581 0.8511 0.1881
C4 C 0.55548(16) 0.84153(15) 0.07081(16)
C5 C 0.55686(16) 0.88094(17) -0.02376(17)
H13 H 0.6174 0.8880 -0.0720
C6 C 0.46822(17) 0.90979(17) -0.04650(16)
H14 H 0.4696 0.9356 -0.1113
N1 N 0.38052(13) 0.90273(13) 0.01925(13)
C7 C 0.37963(16) 0.86938(16) 0.11057(16)
H15 H 0.3177 0.8673 0.1577
C8 C 0.46474(16) 0.83793(16) 0.13898(16)
H16 H 0.4611 0.8142 0.2043
C9 C 0.5974(2) 0.4490(2) 0.1692(2)
H17 H 0.5849 0.4230 0.2394
O2 O 0.5068(3) 0.5044(2) 0.1532(3)
H18 H 0.4622 0.4734 0.1890
C10 C 0.63514(19) 0.35950(19) 0.1332(2)
C11 C 0.6101(2) 0.35916(19) 0.0581(2)
H19 H 0.5706 0.4161 0.0260
C12 C 0.6434(2) 0.27437(18) 0.0303(2)
H20 H 0.6262 0.2755 -0.0217
N2 N 0.69836(15) 0.19126(14) 0.07292(14)
C13 C 0.7232(2) 0.19279(18) 0.14464(19)
H21 H 0.7638 0.1353 0.1748
C14 C 0.6929(2) 0.27385(19) 0.1771(2)
H22 H 0.7116 0.2708 0.2290
O3 O 0.18830(12) 0.83769(12) 0.10999(11)
C15 C 0.11082(16) 0.81144(15) 0.12114(15)
O4 O 0.04751(11) 0.85879(11) 0.07727(11)
C16 C 0.09628(16) 0.71338(15) 0.19091(15)
C17 C 0.16040(18) 0.65782(17) 0.24678(17)
H23 H 0.2112 0.6843 0.2444
C18 C 0.15031(19) 0.56422(17) 0.30568(18)
H24 H 0.1939 0.5270 0.3439
C19 C 0.07646(18) 0.52431(16) 0.30920(16)
C20 C 0.01083(17) 0.58186(16) 0.25513(16)
H25 H -0.0410 0.5563 0.2585
C21 C 0.02030(17) 0.67566(16) 0.19678(16)
H26 H -0.0251 0.7141 0.1608
C22 C 0.07343(17) 0.41974(16) 0.36037(16)
C23 C 0.05944(17) 0.36491(16) 0.31485(15)
H27 H 0.0485 0.3966 0.2543
C24 C 0.06111(17) 0.26472(16) 0.35609(16)
C25 C 0.07649(16) 0.21960(16) 0.44593(15)
H28 H 0.0765 0.1518 0.4757
C26 C 0.09187(16) 0.27269(16) 0.49242(15)
C27 C 0.08990(17) 0.37293(16) 0.44927(16)
H29 H 0.0998 0.4095 0.4807
C28 C 0.05783(17) 0.20826(16) 0.29945(15)
C29 C 0.00535(16) 0.25158(16) 0.23220(16)
H30 H -0.0377 0.3144 0.2295
C30 C 0.01515(16) 0.20403(16) 0.16916(16)
H31 H -0.0236 0.2329 0.1259
C31 C 0.08144(16) 0.11432(16) 0.16920(15)
C32 C 0.12911(18) 0.06777(17) 0.23970(17)
H32 H 0.1716 0.0046 0.2426
C33 C 0.11498(18) 0.11301(17) 0.30570(16)
H33 H 0.1446 0.0788 0.3559
C34 C 0.10160(16) 0.06804(15) 0.09387(14)
O5 O 0.02751(11) 0.06158(11) 0.07916(11)
O6 O 0.19187(11) 0.03990(11) 0.05245(11)
C35 C 0.11472(16) 0.22065(15) 0.58466(15)
C36 C 0.06361(16) 0.14969(16) 0.65347(15)
H34 H 0.0098 0.1384 0.6437
C37 C 0.09086(15) 0.09547(16) 0.73617(15)
H35 H 0.0558 0.0472 0.7826
C38 C 0.16955(15) 0.11189(15) 0.75103(14)
C39 C 0.22045(17) 0.18313(16) 0.68304(16)
H36 H 0.2740 0.1947 0.6930
C40 C 0.19267(17) 0.23734(16) 0.60038(16)
H37 H 0.2272 0.2862 0.5543
C41 C 0.20049(15) 0.04973(15) 0.83784(14)
O7 O 0.28370(11) 0.04445(11) 0.84524(11)
O8 O 0.14508(11) -0.00510(11) 0.90486(10)
Co1A Co -0.24835(2) -0.93250(2) 0.01419(2)
C1A C -0.67304(18) -0.51426(18) -0.13259(19)
B1A B -0.6395(2) -0.6335(2) -0.0693(2)
H1A H -0.5682 -0.6661 -0.0499
B2A B -0.7352(2) -0.5510(2) -0.0134(2)
H2A H -0.7272 -0.5281 0.0418
B3A B -0.7997(2) -0.4683(2) -0.0966(2)
H3A H -0.8346 -0.3906 -0.0955
B4A B -0.7417(2) -0.4990(2) -0.2049(2)
H4A H -0.7382 -0.4415 -0.2752
B5A B -0.6425(2) -0.60257(19) -0.1874(2)
H5A H -0.5734 -0.6150 -0.2458
B6A B -0.7503(2) -0.6708(2) 0.0077(2)
H6A H -0.7526 -0.7289 0.0775
B7A B -0.8504(2) -0.5676(2) -0.0087(2)
H7A H -0.9190 -0.5565 0.0504
B8A B -0.8532(2) -0.5349(2) -0.1279(2)
H8A H -0.9244 -0.5016 -0.1475
B9A B -0.7569(2) -0.6178(2) -0.1841(2)
H9A H -0.7638 -0.6406 -0.2400
C2A C -0.69591(16) -0.69317(17) -0.10019(16)
B10A B -0.8235(2) -0.6599(2) -0.0633(2)
H10A H -0.8742 -0.7107 -0.0399
C3A C -0.65055(17) -0.80196(16) -0.09999(17)
H11A H -0.6995 -0.8427 -0.0542
O1A O -0.63147(13) -0.80816(12) -0.19191(12)
H12A H -0.6581 -0.8511 -0.1881
C4A C -0.55548(16) -0.84153(15) -0.07081(16)
C5A C -0.55686(16) -0.88094(17) 0.02376(17)
H13A H -0.6174 -0.8880 0.0720
C6A C -0.46822(17) -0.90979(17) 0.04650(16)
H14A H -0.4696 -0.9356 0.1113
N1A N -0.38052(13) -0.90273(13) -0.01925(13)
C7A C -0.37963(16) -0.86938(16) -0.11057(16)
H15A H -0.3177 -0.8673 -0.1577
C8A C -0.46474(16) -0.83793(16) -0.13898(16)
H16A H -0.4611 -0.8142 -0.2043
C9A C -0.5974(2) -0.4490(2) -0.1692(2)
H17A H -0.5849 -0.4230 -0.2394
O2A O -0.5068(3) -0.5044(2) -0.1532(3)
H18A H -0.4622 -0.4734 -0.1890
C10A C -0.63514(19) -0.35950(19) -0.1332(2)
C11A C -0.6101(2) -0.35916(19) -0.0581(2)
H19A H -0.5706 -0.4161 -0.0260
C12A C -0.6434(2) -0.27437(18) -0.0303(2)
H20A H -0.6262 -0.2755 0.0217
N2A N -0.69836(15) -0.19126(14) -0.07292(14)
C13A C -0.7232(2) -0.19279(18) -0.14464(19)
H21A H -0.7638 -0.1353 -0.1748
C14A C -0.6929(2) -0.27385(19) -0.1771(2)
H22A H -0.7116 -0.2708 -0.2290
O3A O -0.18830(12) -0.83769(12) -0.10999(11)
C15A C -0.11082(16) -0.81144(15) -0.12114(15)
O4A O -0.04751(11) -0.85879(11) -0.07727(11)
C16A C -0.09628(16) -0.71338(15) -0.19091(15)
C17A C -0.16040(18) -0.65782(17) -0.24678(17)
H23A H -0.2112 -0.6843 -0.2444
C18A C -0.15031(19) -0.56422(17) -0.30568(18)
H24A H -0.1939 -0.5270 -0.3439
C19A C -0.07646(18) -0.52431(16) -0.30920(16)
C20A C -0.01083(17) -0.58186(16) -0.25513(16)
H25A H 0.0410 -0.5563 -0.2585
C21A C -0.02030(17) -0.67566(16) -0.19678(16)
H26A H 0.0251 -0.7141 -0.1608
C22A C -0.07343(17) -0.41974(16) -0.36037(16)
C23A C -0.05944(17) -0.36491(16) -0.31485(15)
H27A H -0.0485 -0.3966 -0.2543
C24A C -0.06111(17) -0.26472(16) -0.35609(16)
C25A C -0.07649(16) -0.21960(16) -0.44593(15)
H28A H -0.0765 -0.1518 -0.4757
C26A C -0.09187(16) -0.27269(16) -0.49242(15)
C27A C -0.08990(17) -0.37293(16) -0.44927(16)
H29A H -0.0998 -0.4095 -0.4807
C28A C -0.05783(17) -0.20826(16) -0.29945(15)
C29A C -0.00535(16) -0.25158(16) -0.23220(16)
H30A H 0.0377 -0.3144 -0.2295
C30A C -0.01515(16) -0.20403(16) -0.16916(16)
H31A H 0.0236 -0.2329 -0.1259
C31A C -0.08144(16) -0.11432(16) -0.16920(15)
C32A C -0.12911(18) -0.06777(17) -0.23970(17)
H32A H -0.1716 -0.0046 -0.2426
C33A C -0.11498(18) -0.11301(17) -0.30570(16)
H33A H -0.1446 -0.0788 -0.3559
C34A C -0.10160(16) -0.06804(15) -0.09387(14)
O5A O -0.02751(11) -0.06158(11) -0.07916(11)
O6A O -0.19187(11) -0.03990(11) -0.05245(11)
C35A C -0.11472(16) -0.22065(15) -0.58466(15)
C36A C -0.06361(16) -0.14969(16) -0.65347(15)
H34A H -0.0098 -0.1384 -0.6437
C37A C -0.09086(15) -0.09547(16) -0.73617(15)
H35A H -0.0558 -0.0472 -0.7826
C38A C -0.16955(15) -0.11189(15) -0.75103(14)
C39A C -0.22045(17) -0.18313(16) -0.68304(16)
H36A H -0.2740 -0.1947 -0.6930
C40A C -0.19267(17) -0.23734(16) -0.60038(16)
H37A H -0.2272 -0.2862 -0.5543
C41A C -0.20049(15) -0.04973(15) -0.83784(14)
O7A O -0.28370(11) -0.04445(11) -0.84524(11)
O8A O -0.14508(11) 0.00510(11) -0.90486(10)
Co1_2 Co -0.75165(2) -0.06750(2) -0.01419(2)
Co1_3 Co 0.24835(2) -0.06750(2) -0.01419(2)
Co1_4 Co 0.24835(2) -0.06750(2) 0.98581(2)
Co1A_2 Co -0.24835(2) 0.06750(2) -0.98581(2)
Co1A_3 Co -0.24835(2) 0.06750(2) 0.01419(2)
Co1A_4 Co 0.75165(2) 0.06750(2) 0.01419(2)
Co2_2 Co 0.0000 -1.0000 0.0000
Co2_3 Co 0.0000 0.0000 -1.0000
Co2_4 Co 0.0000 0.0000 1.0000
Co2_5 Co -0.0000 1.0000 0.0000
N2_2 N -0.30164(15) -0.80874(14) 0.07292(14)
N2A_2 N 0.30164(15) 0.80874(14) -0.07292(14)
O4_2 O 0.04751(11) -0.14121(11) 0.07727(11)
O4A_2 O -0.04751(11) 0.14121(11) -0.07727(11)
O6_2 O 0.19187(11) 1.03990(11) 0.05245(11)
O6A_2 O -0.19187(11) -1.03990(11) -0.05245(11)
O7_2 O 0.28370(11) 1.04445(11) -0.15476(11)
O7A_2 O -0.28370(11) -1.04445(11) 0.15476(11)
O8_2 O 0.14508(11) -0.00510(11) -0.09514(10)
O8_3 O 0.14508(11) 0.99490(11) -0.09514(10)
O8A_2 O -0.14508(11) -0.99490(11) 0.09514(10)
O8A_3 O -0.14508(11) 0.00510(11) 0.09514(10)
N3 N 0.3831(3) 0.2908(3) 0.2748(3)
O10 O 0.4319(2) 0.3216(3) 0.3014(3)
O11 O 0.3175(3) 0.3440(3) 0.2375(3)
C42 C 0.4091(2) 0.1855(3) 0.2850(3)
C43 C 0.4983(2) 0.1300(3) 0.3022(2)
H40 H 0.5418 0.1592 0.3089
C44 C 0.5229(2) 0.0318(3) 0.3095(2)
H41 H 0.5844 -0.0074 0.3203
C45 C 0.4581(2) -0.0101(3) 0.3013(2)
H42 H 0.4750 -0.0781 0.3072
C46 C 0.3690(2) 0.0464(2) 0.2844(2)
H43 H 0.3247 0.0169 0.2795
C47 C 0.3442(2) 0.1460(3) 0.2746(2)
H44 H 0.2841 0.1859 0.2611
N4 N 0.2320(2) 0.78695(19) 0.39205(17)
O12 O 0.29925(19) 0.82977(18) 0.33891(17)
O13 O 0.14503(17) 0.82914(17) 0.41415(19)
C48 C 0.2584(2) 0.6796(2) 0.4334(2)
C49 C 0.3557(3) 0.6311(3) 0.4088(3)
H45 H 0.4055 0.6658 0.3651
C50 C 0.3793(3) 0.5308(3) 0.4493(3)
H46 H 0.4458 0.4957 0.4323
C51 C 0.3067(3) 0.4810(2) 0.5146(3)
H47 H 0.3239 0.4123 0.5435
C52 C 0.2094(2) 0.5313(2) 0.5378(2)
H48 H 0.1595 0.4970 0.5820
C53 C 0.1844(2) 0.6319(2) 0.4966(2)
H49 H 0.1176 0.6671 0.5117
N5 N 0.5033(2) 0.2068(3) 0.4974(2)
O14 O 0.4782(3) 0.2858(3) 0.5125(3)
O15 O 0.4442(2) 0.1577(3) 0.5117(2)
C54 C 0.6098(2) 0.1675(2) 0.4614(2)
C55 C 0.6753(3) 0.2267(2) 0.4337(2)
H50 H 0.6526 0.2920 0.4374
C56 C 0.7746(3) 0.1883(3) 0.4003(2)
H51 H 0.8214 0.2274 0.3809
C57 C 0.8068(2) 0.0936(3) 0.3950(2)
H52 H 0.8755 0.0680 0.3715
C58 C 0.7398(2) 0.0354(2) 0.4236(2)
H53 H 0.7627 -0.0300 0.4202
C59 C 0.6396(2) 0.0722(2) 0.4572(2)
H54 H 0.5928 0.0332 0.4768
loop_
_geom_bond_atom_site_label_1
_geom_bond_atom_site_label_2
_geom_bond_site_symmetry_1
_geom_bond_site_symmetry_2
Co1 N1 1_555 1_555
C1 B1 1_555 1_555
Co2 O5 1_555 1_555
B1 H1 1_555 1_555
B2 C1 1_555 1_555
H2 B2 1_555 1_555
B3 C1 1_555 1_555
H3 B3 1_555 1_555
B4 C1 1_555 1_555
H4 B4 1_555 1_555
B5 C1 1_555 1_555
H5 B5 1_555 1_555
B6 B1 1_555 1_555
H6 B6 1_555 1_555
B7 B2 1_555 1_555
H7 B7 1_555 1_555
B8 B3 1_555 1_555
H8 B8 1_555 1_555
B9 B4 1_555 1_555
H9 B9 1_555 1_555
C2 B1 1_555 1_555
B10 B6 1_555 1_555
H10 B10 1_555 1_555
C3 C2 1_555 1_555
H11 C3 1_555 1_555
O1 C3 1_555 1_555
H12 O1 1_555 1_555
C4 C3 1_555 1_555
C5 C4 1_555 1_555
H13 C5 1_555 1_555
C6 C5 1_555 1_555
H14 C6 1_555 1_555
N1 C6 1_555 1_555
C7 N1 1_555 1_555
H15 C7 1_555 1_555
C8 C4 1_555 1_555
H16 C8 1_555 1_555
C9 C1 1_555 1_555
H17 C9 1_555 1_555
O2 C9 1_555 1_555
H18 O2 1_555 1_555
C10 C9 1_555 1_555
C11 C10 1_555 1_555
H19 C11 1_555 1_555
C12 C11 1_555 1_555
H20 C12 1_555 1_555
N2 C12 1_555 1_555
C13 N2 1_555 1_555
H21 C13 1_555 1_555
C14 C10 1_555 1_555
H22 C14 1_555 1_555
O3 Co1 1_555 1_555
C15 O3 1_555 1_555
O4 C15 1_555 1_555
C16 C15 1_555 1_555
C17 C16 1_555 1_555
H23 C17 1_555 1_555
C18 C17 1_555 1_555
H24 C18 1_555 1_555
C19 C18 1_555 1_555
C20 C19 1_555 1_555
H25 C20 1_555 1_555
C21 C16 1_555 1_555
H26 C21 1_555 1_555
C22 C19 1_555 1_555
C23 C22 1_555 1_555
H27 C23 1_555 1_555
C24 C23 1_555 1_555
C25 C24 1_555 1_555
H28 C25 1_555 1_555
C26 C25 1_555 1_555
C27 C22 1_555 1_555
H29 C27 1_555 1_555
C28 C24 1_555 1_555
C29 C28 1_555 1_555
H30 C29 1_555 1_555
C30 C29 1_555 1_555
H31 C30 1_555 1_555
C31 C30 1_555 1_555
C32 C31 1_555 1_555
H32 C32 1_555 1_555
C33 C28 1_555 1_555
H33 C33 1_555 1_555
C34 C31 1_555 1_555
O5 C34 1_555 1_555
O6 C34 1_555 1_555
C35 C26 1_555 1_555
C36 C35 1_555 1_555
H34 C36 1_555 1_555
C37 C36 1_555 1_555
H35 C37 1_555 1_555
C38 C37 1_555 1_555
C39 C38 1_555 1_555
H36 C39 1_555 1_555
C40 C35 1_555 1_555
H37 C40 1_555 1_555
C41 C38 1_555 1_555
O7 C41 1_555 1_555
O8 C41 1_555 1_555
N3 O10 1_555 1_555
O11 N3 1_555 1_555
C42 N3 1_555 1_555
C43 C42 1_555 1_555
H40 C43 1_555 1_555
C44 C43 1_555 1_555
H41 C44 1_555 1_555
C45 C44 1_555 1_555
H42 C45 1_555 1_555
C46 C45 1_555 1_555
H43 C46 1_555 1_555
C47 C42 1_555 1_555
H44 C47 1_555 1_555
N4 O12 1_555 1_555
O13 N4 1_555 1_555
C48 N4 1_555 1_555
C49 C48 1_555 1_555
H45 C49 1_555 1_555
C50 C49 1_555 1_555
H46 C50 1_555 1_555
C51 C50 1_555 1_555
H47 C51 1_555 1_555
C52 C51 1_555 1_555
H48 C52 1_555 1_555
C53 C48 1_555 1_555
H49 C53 1_555 1_555
N5 O14 1_555 1_555
O15 N5 1_555 1_555
C54 N5 1_555 1_555
C55 C54 1_555 1_555
H50 C55 1_555 1_555
C56 C55 1_555 1_555
H51 C56 1_555 1_555
C57 C56 1_555 1_555
H52 C57 1_555 1_555
C58 C57 1_555 1_555
H53 C58 1_555 1_555
C59 C54 1_555 1_555
H54 C59 1_555 1_555
Co1A N1A 1_555 1_555
C1A B1A 1_555 1_555
B1A H1A 1_555 1_555
B2A C1A 1_555 1_555
H2A B2A 1_555 1_555
B3A C1A 1_555 1_555
H3A B3A 1_555 1_555
B4A C1A 1_555 1_555
H4A B4A 1_555 1_555
B5A C1A 1_555 1_555
H5A B5A 1_555 1_555
B6A B1A 1_555 1_555
H6A B6A 1_555 1_555
B7A B2A 1_555 1_555
H7A B7A 1_555 1_555
B8A B3A 1_555 1_555
H8A B8A 1_555 1_555
B9A B4A 1_555 1_555
H9A B9A 1_555 1_555
C2A B1A 1_555 1_555
B10A B6A 1_555 1_555
H10A B10A 1_555 1_555
C3A C2A 1_555 1_555
H11A C3A 1_555 1_555
O1A C3A 1_555 1_555
H12A O1A 1_555 1_555
C4A C3A 1_555 1_555
C5A C4A 1_555 1_555
H13A C5A 1_555 1_555
C6A C5A 1_555 1_555
H14A C6A 1_555 1_555
N1A C6A 1_555 1_555
C7A N1A 1_555 1_555
H15A C7A 1_555 1_555
C8A C4A 1_555 1_555
H16A C8A 1_555 1_555
C9A C1A 1_555 1_555
H17A C9A 1_555 1_555
O2A C9A 1_555 1_555
H18A O2A 1_555 1_555
C10A C9A 1_555 1_555
C11A C10A 1_555 1_555
H19A C11A 1_555 1_555
C12A C11A 1_555 1_555
H20A C12A 1_555 1_555
N2A C12A 1_555 1_555
C13A N2A 1_555 1_555
H21A C13A 1_555 1_555
C14A C10A 1_555 1_555
H22A C14A 1_555 1_555
O3A Co1A 1_555 1_555
C15A O3A 1_555 1_555
O4A C15A 1_555 1_555
C16A C15A 1_555 1_555
C17A C16A 1_555 1_555
H23A C17A 1_555 1_555
C18A C17A 1_555 1_555
H24A C18A 1_555 1_555
C19A C18A 1_555 1_555
C20A C19A 1_555 1_555
H25A C20A 1_555 1_555
C21A C16A 1_555 1_555
H26A C21A 1_555 1_555
C22A C19A 1_555 1_555
C23A C22A 1_555 1_555
H27A C23A 1_555 1_555
C24A C23A 1_555 1_555
C25A C24A 1_555 1_555
H28A C25A 1_555 1_555
C26A C25A 1_555 1_555
C27A C22A 1_555 1_555
H29A C27A 1_555 1_555
C28A C24A 1_555 1_555
C29A C28A 1_555 1_555
H30A C29A 1_555 1_555
C30A C29A 1_555 1_555
H31A C30A 1_555 1_555
C31A C30A 1_555 1_555
C32A C31A 1_555 1_555
H32A C32A 1_555 1_555
C33A C28A 1_555 1_555
H33A C33A 1_555 1_555
C34A C31A 1_555 1_555
O5A Co2 1_555 1_555
O6A C34A 1_555 1_555
C35A C26A 1_555 1_555
C36A C35A 1_555 1_555
H34A C36A 1_555 1_555
C37A C36A 1_555 1_555
H35A C37A 1_555 1_555
C38A C37A 1_555 1_555
C39A C38A 1_555 1_555
H36A C39A 1_555 1_555
C40A C35A 1_555 1_555
H37A C40A 1_555 1_555
C41A C38A 1_555 1_555
O7A C41A 1_555 1_555
O8A C41A 1_555 1_555
Co1_2 N2A 1_555 1_555
Co1_3 O6 1_555 1_555
Co1_4 O7 1_555 1_555
Co1A_2 O7A 1_555 1_555
Co1A_3 O6A 1_555 1_555
Co1A_4 N2 1_555 1_555
Co2_2 O4A 1_555 1_555
Co2_3 O8A 1_555 1_555
Co2_4 O8 1_555 1_555
Co2_5 O4 1_555 1_555
N2_2 Co1A 1_555 1_555
N2A_2 Co1 1_555 1_555
O4_2 Co2 1_555 1_555
O4A_2 Co2 1_555 1_555
O6_2 Co1 1_555 1_555
O6A_2 Co1A 1_555 1_555
O7_2 Co1 1_555 1_555
O7A_2 Co1A 1_555 1_555
O8_2 Co2 1_555 1_555
O8_3 Co1 1_555 1_555
O8A_2 Co1A 1_555 1_555
O8A_3 Co2 1_555 1_555
B1 B2 1_555 1_555
B1 B5 1_555 1_555
B2 B3 1_555 1_555
B2 B6 1_555 1_555
B3 B4 1_555 1_555
B3 B7 1_555 1_555
B4 B5 1_555 1_555
B4 B8 1_555 1_555
B5 B9 1_555 1_555
B5 C2 1_555 1_555
B6 B7 1_555 1_555
B6 C2 1_555 1_555
B7 B8 1_555 1_555
B7 B10 1_555 1_555
B8 B9 1_555 1_555
B8 B10 1_555 1_555
B9 C2 1_555 1_555
B9 B10 1_555 1_555
C2 B10 1_555 1_555
C7 C8 1_555 1_555
C13 C14 1_555 1_555
C20 C21 1_555 1_555
C26 C27 1_555 1_555
C32 C33 1_555 1_555
C39 C40 1_555 1_555
O8 Co1_4 1_555 1_555
C46 C47 1_555 1_555
C52 C53 1_555 1_555
C58 C59 1_555 1_555
B1A B2A 1_555 1_555
B1A B5A 1_555 1_555
B2A B3A 1_555 1_555
B2A B6A 1_555 1_555
B3A B4A 1_555 1_555
B3A B7A 1_555 1_555
B4A B5A 1_555 1_555
B4A B8A 1_555 1_555
B5A B9A 1_555 1_555
B5A C2A 1_555 1_555
B6A B7A 1_555 1_555
B6A C2A 1_555 1_555
B7A B8A 1_555 1_555
B7A B10A 1_555 1_555
B8A B9A 1_555 1_555
B8A B10A 1_555 1_555
B9A C2A 1_555 1_555
B9A B10A 1_555 1_555
C2A B10A 1_555 1_555
C7A C8A 1_555 1_555
C13A C14A 1_555 1_555
C20A C21A 1_555 1_555
C26A C27A 1_555 1_555
C32A C33A 1_555 1_555
C34A O5A 1_555 1_555
C39A C40A 1_555 1_555
O8A Co1A_2 1_555 1_555
Co1_3 O8_2 1_555 1_555
Co1A_3 O8A_3 1_555 1_555
Co2_2 O8A_2 1_555 1_555
Co2_5 O8_3 1_555 1_555

#END
