
#######################################################################
#
#                 Cambridge Crystallographic Data Centre
#                                CCDC 
#
#######################################################################
#
# If this CIF has been generated from an entry in the Cambridge 
# Structural Database, then it will include bibliographic, chemical, 
# crystal, experimental, refinement or atomic coordinate data resulting 
# from the CCDC's data processing and validation procedures.
#
#######################################################################

data_OCIMOF
_chemical_formula_moiety         '(C106 H98 B20 Co3 N4 O16)n'
_symmetry_cell_setting           triclinic
_symmetry_space_group_name_H-M   'P -1'
_symmetry_Int_Tables_number      2
_space_group_name_Hall           '-P 1'
loop_
_symmetry_equiv_pos_site_id
_symmetry_equiv_pos_as_xyz
1 x,y,z
2 -x,-y,-z
_cell_length_a                   14.7228(6)
_cell_length_b                   15.2375(5)
_cell_length_c                   15.7764(6)
_cell_angle_alpha                67.5260(10)
_cell_angle_beta                 65.8470(10)
_cell_angle_gamma                70.8660(10)
_cell_volume                     2921.87
loop_
_atom_site_label
_atom_site_type_symbol
_atom_site_fract_x
_atom_site_fract_y
_atom_site_fract_z
C1 C 0.69630(14) 0.18955(13) 0.10150(14)
Co1 Co 0.25376(2) 0.43110(2) -0.02014(2)
O1 O 0.4974(2) 0.01308(18) 0.1392(2)
H1 H 0.4489 -0.0162 0.1708
B1 B 0.63370(17) 0.10193(15) 0.18850(16)
H2 H 0.5604 0.1162 0.2474
Co2 Co 0.0000 1.5000 0.0000
B2 B 0.74983(18) 0.11138(16) 0.18926(17)
H3 H 0.7539 0.1321 0.2483
B3 B 0.82664(17) 0.15150(19) 0.06655(18)
H4 H 0.8814 0.1989 0.0448
B4 B 0.75736(17) 0.16669(17) -0.00926(17)
H5 H 0.7661 0.2243 -0.0806
B5 B 0.63906(17) 0.13420(16) 0.06622(17)
H6 H 0.5690 0.1693 0.0446
B6 B 0.72875(19) -0.00376(17) 0.20796(18)
H7 H 0.7181 -0.0607 0.2798
B7 B 0.84825(19) 0.02721(19) 0.13282(19)
H8 H 0.9178 -0.0089 0.1553
B8 B 0.85394(18) 0.06181(19) 0.00908(19)
H9 H 0.9270 0.0491 -0.0506
B9 B 0.73667(18) 0.05112(17) 0.00952(17)
H10 H 0.7314 0.0305 -0.0490
C2 C 0.66551(15) 0.01584(14) 0.12996(15)
B10 B 0.79398(19) -0.03451(18) 0.09682(19)
H11 H 0.8270 -0.1116 0.0954
C3 C 0.65361(14) 0.29725(13) 0.10210(14)
H12 H 0.7066 0.3360 0.0553
O2 O 0.63141(11) 0.30298(10) 0.19610(10)
H13 H 0.6519 0.3504 0.1919
C4 C 0.55877(14) 0.33885(12) 0.07211(14)
C5 C 0.46298(14) 0.33529(13) 0.14119(14)
H14 H 0.4553 0.3121 0.2083
C6 C 0.37905(14) 0.36581(13) 0.11117(14)
H15 H 0.3140 0.3621 0.1590
N1 N 0.38519(12) 0.40065(11) 0.01705(11)
C7 C 0.47699(15) 0.40908(13) -0.04902(14)
H16 H 0.4820 0.4367 -0.1155
C8 C 0.56522(14) 0.37946(13) -0.02510(14)
H17 H 0.6290 0.3867 -0.0742
C9 C 0.58487(17) -0.04524(15) 0.16402(17)
H18 H 0.5632 -0.0676 0.2365
C10 C 0.62440(16) -0.13601(15) 0.13073(16)
C11 C 0.6679(2) -0.22251(16) 0.18547(17)
H19 H 0.6758 -0.2252 0.2433
C12 C 0.69981(18) -0.30495(15) 0.15521(16)
H20 H 0.7298 -0.3635 0.1934
N2 N 0.69043(13) -0.30628(11) 0.07475(12)
C13 C 0.64813(16) -0.22207(14) 0.02249(16)
H21 H 0.6408 -0.2212 -0.0350
C14 C 0.61469(16) -0.13678(15) 0.04757(17)
H22 H 0.5853 -0.0791 0.0080
O3 O 0.19910(9) 0.54169(9) 0.04097(9)
C15 C 0.10753(14) 0.56853(12) 0.08914(12)
O4 O 0.02987(9) 0.55862(9) 0.08246(9)
C16 C 0.09274(14) 0.61697(13) 0.16194(13)
C17 C 0.01219(14) 0.69466(13) 0.17849(13)
H23 H -0.0378 0.7140 0.1479
C18 C 0.00504(15) 0.74391(13) 0.23993(13)
H24 H -0.0486 0.7984 0.2492
C19 C 0.07584(15) 0.71422(13) 0.28813(13)
C20 C 0.15334(15) 0.63315(14) 0.27500(14)
H25 H 0.1998 0.6100 0.3102
C21 C 0.16284(15) 0.58632(14) 0.21096(14)
H26 H 0.2175 0.5329 0.2004
C22 C 0.07360(14) 0.77040(13) 0.34800(13)
C23 C 0.06146(14) 0.87092(13) 0.31164(13)
H27 H 0.0483 0.9028 0.2518
C24 C 0.06830(14) 0.92585(13) 0.36159(13)
C25 C 0.08578(14) 0.87851(13) 0.45038(13)
H28 H 0.0897 0.9152 0.4854
C26 C 0.09758(14) 0.77754(13) 0.48840(13)
C27 C 0.09167(15) 0.72463(13) 0.43634(13)
H29 H 0.1001 0.6561 0.4616
C28 C 0.12157(14) 0.72403(12) 0.57990(13)
C29 C 0.07722(14) 0.64498(13) 0.64449(13)
H30 H 0.0274 0.6293 0.6321
C30 C 0.10464(14) 0.58898(13) 0.72635(13)
H31 H 0.0730 0.5360 0.7701
C31 C 0.17889(13) 0.61060(12) 0.74448(12)
C32 C 0.22264(15) 0.69013(13) 0.68132(13)
H32 H 0.2729 0.7055 0.6935
C33 C 0.19306(15) 0.74699(13) 0.60064(13)
H33 H 0.2218 0.8022 0.5590
C34 C 0.21059(13) 0.54630(12) 0.82983(12)
O5 O 0.15237(9) 0.49167(8) 0.89884(9)
O6 O 0.29652(9) 0.54042(9) 0.83439(9)
C35 C 0.06634(14) 1.03093(13) 0.31229(13)
C36 C 0.13258(16) 1.07645(13) 0.31521(14)
H34 H 0.1704 1.0438 0.3589
C37 C 0.14377(15) 1.16889(13) 0.25496(14)
H35 H 0.1909 1.1984 0.2561
C38 C 0.08660(14) 1.21901(12) 0.19276(13)
C39 C 0.01503(14) 1.17698(13) 0.19452(13)
H36 H -0.0276 1.2123 0.1556
C40 C 0.00573(15) 1.08363(13) 0.25301(14)
H37 H -0.0426 1.0549 0.2529
C41 C 0.10384(14) 1.31567(12) 0.12138(13)
O7 O 0.18199(10) 1.34264(9) 0.10957(9)
O8 O 0.04096(10) 1.36126(9) 0.07695(9)
C1A C -0.69630(14) 1.81045(13) -0.10150(14)
Co1A Co -0.25376(2) 1.56890(2) 0.02014(2)
O1A O -0.4974(2) 1.98692(18) -0.1392(2)
H1A H -0.4489 2.0162 -0.1708
B1A B -0.63370(17) 1.89807(15) -0.18850(16)
H2A H -0.5604 1.8838 -0.2474
B2A B -0.74983(18) 1.88862(16) -0.18926(17)
H3A H -0.7539 1.8679 -0.2483
B3A B -0.82664(17) 1.84850(19) -0.06655(18)
H4A H -0.8814 1.8011 -0.0448
B4A B -0.75736(17) 1.83331(17) 0.00926(17)
H5A H -0.7661 1.7757 0.0806
B5A B -0.63906(17) 1.86580(16) -0.06622(17)
H6A H -0.5690 1.8307 -0.0446
B6A B -0.72875(19) 2.00376(17) -0.20796(18)
H7A H -0.7181 2.0607 -0.2798
B7A B -0.84825(19) 1.97279(19) -0.13282(19)
H8A H -0.9178 2.0089 -0.1553
B8A B -0.85394(18) 1.93819(19) -0.00908(19)
H9A H -0.9270 1.9509 0.0506
B9A B -0.73667(18) 1.94888(17) -0.00952(17)
H10A H -0.7314 1.9695 0.0490
C2A C -0.66551(15) 1.98416(14) -0.12996(15)
B10A B -0.79398(19) 2.03451(18) -0.09682(19)
H11A H -0.8270 2.1116 -0.0954
C3A C -0.65361(14) 1.70275(13) -0.10210(14)
H12A H -0.7066 1.6640 -0.0553
O2A O -0.63141(11) 1.69702(10) -0.19610(10)
H13A H -0.6519 1.6496 -0.1919
C4A C -0.55877(14) 1.66115(12) -0.07211(14)
C5A C -0.46298(14) 1.66471(13) -0.14119(14)
H14A H -0.4553 1.6879 -0.2083
C6A C -0.37905(14) 1.63419(13) -0.11117(14)
H15A H -0.3140 1.6379 -0.1590
N1A N -0.38519(12) 1.59935(11) -0.01705(11)
C7A C -0.47699(15) 1.59092(13) 0.04902(14)
H16A H -0.4820 1.5633 0.1155
C8A C -0.56522(14) 1.62054(13) 0.02510(14)
H17A H -0.6290 1.6133 0.0742
C9A C -0.58487(17) 2.04524(15) -0.16402(17)
H18A H -0.5632 2.0676 -0.2365
C10A C -0.62440(16) 2.13601(15) -0.13073(16)
C11A C -0.6679(2) 2.22251(16) -0.18547(17)
H19A H -0.6758 2.2252 -0.2433
C12A C -0.69981(18) 2.30495(15) -0.15521(16)
H20A H -0.7298 2.3635 -0.1934
N2A N -0.69043(13) 2.30628(11) -0.07475(12)
C13A C -0.64813(16) 2.22207(14) -0.02249(16)
H21A H -0.6408 2.2212 0.0350
C14A C -0.61469(16) 2.13678(15) -0.04757(17)
H22A H -0.5853 2.0791 -0.0080
O3A O -0.19910(9) 1.45831(9) -0.04097(9)
C15A C -0.10753(14) 1.43147(12) -0.08914(12)
O4A O -0.02987(9) 1.44138(9) -0.08246(9)
C16A C -0.09274(14) 1.38303(13) -0.16194(13)
C17A C -0.01219(14) 1.30534(13) -0.17849(13)
H23A H 0.0378 1.2860 -0.1479
C18A C -0.00504(15) 1.25609(13) -0.23993(13)
H24A H 0.0486 1.2016 -0.2492
C19A C -0.07584(15) 1.28578(13) -0.28813(13)
C20A C -0.15334(15) 1.36685(14) -0.27500(14)
H25A H -0.1998 1.3900 -0.3102
C21A C -0.16284(15) 1.41368(14) -0.21096(14)
H26A H -0.2175 1.4671 -0.2004
C22A C -0.07360(14) 1.22960(13) -0.34800(13)
C23A C -0.06146(14) 1.12908(13) -0.31164(13)
H27A H -0.0483 1.0972 -0.2518
C24A C -0.06830(14) 1.07415(13) -0.36159(13)
C25A C -0.08578(14) 1.12149(13) -0.45038(13)
H28A H -0.0897 1.0848 -0.4854
C26A C -0.09758(14) 1.22246(13) -0.48840(13)
C27A C -0.09167(15) 1.27537(13) -0.43634(13)
H29A H -0.1001 1.3439 -0.4616
C28A C -0.12157(14) 1.27597(12) -0.57990(13)
C29A C -0.07722(14) 1.35502(13) -0.64449(13)
H30A H -0.0274 1.3707 -0.6321
C30A C -0.10464(14) 1.41102(13) -0.72635(13)
H31A H -0.0730 1.4640 -0.7701
C31A C -0.17889(13) 1.38940(12) -0.74448(12)
C32A C -0.22264(15) 1.30987(13) -0.68132(13)
H32A H -0.2729 1.2945 -0.6935
C33A C -0.19306(15) 1.25301(13) -0.60064(13)
H33A H -0.2218 1.1978 -0.5590
C34A C -0.21059(13) 1.45370(12) -0.82983(12)
O5A O -0.15237(9) 1.50833(8) -0.89884(9)
O6A O -0.29652(9) 1.45958(9) -0.83439(9)
C35A C -0.06634(14) 0.96907(13) -0.31229(13)
C36A C -0.13258(16) 0.92355(13) -0.31521(14)
H34A H -0.1704 0.9562 -0.3589
C37A C -0.14377(15) 0.83111(13) -0.25496(14)
H35A H -0.1909 0.8016 -0.2561
C38A C -0.08660(14) 0.78099(12) -0.19276(13)
C39A C -0.01503(14) 0.82302(13) -0.19452(13)
H36A H 0.0276 0.7877 -0.1556
C40A C -0.00573(15) 0.91637(13) -0.25301(14)
H37A H 0.0426 0.9451 -0.2529
C41A C -0.10384(14) 0.68433(12) -0.12138(13)
O7A O -0.18199(10) 0.65736(9) -0.10957(9)
O8A O -0.04096(10) 0.63874(9) -0.07695(9)
Co1_2 Co -0.74624(2) 2.43110(2) -0.02014(2)
Co1_3 Co 0.25376(2) 0.43110(2) 0.97986(2)
Co1_4 Co 0.25376(2) 1.43110(2) -0.02014(2)
Co1A_2 Co -0.25376(2) 0.56890(2) 0.02014(2)
Co1A_3 Co -0.25376(2) 1.56890(2) -0.97986(2)
Co1A_4 Co 0.74624(2) -0.43110(2) 0.02014(2)
Co2_2 Co -0.0000 0.5000 0.0000
Co2_3 Co -0.0000 0.5000 1.0000
Co2_4 Co 0.0000 1.5000 -1.0000
N2_2 N -0.30957(13) 1.69372(11) 0.07475(12)
N2A_2 N 0.30957(13) 0.30628(11) -0.07475(12)
O4_2 O 0.02987(9) 1.55862(9) 0.08246(9)
O5_2 O 0.15237(9) 0.49167(8) -0.10116(9)
O5_3 O 0.15237(9) 1.49167(8) -0.10116(9)
O5A_2 O -0.15237(9) 1.50833(8) 0.10116(9)
O6_2 O 0.29652(9) 0.54042(9) -0.16561(9)
O6A_2 O -0.29652(9) 1.45958(9) 0.16561(9)
O7_2 O 0.18199(10) 0.34264(9) 0.10957(9)
O7A_2 O -0.18199(10) 1.65736(9) -0.10957(9)
O8A_2 O -0.04096(10) 1.63874(9) -0.07695(9)
C42 C 0.4407(4) 0.3267(5) 0.4419(4)
H40 H 0.4979 0.2974 0.3979
C43 C 0.4310(7) 0.4201(6) 0.4378(6)
H41 H 0.4809 0.4563 0.3907
C44 C 0.3446(8) 0.4635(5) 0.5054(7)
H42 H 0.3369 0.5278 0.5057
C45 C 0.2741(6) 0.4082(5) 0.5692(5)
H43 H 0.2153 0.4353 0.6137
C46 C 0.2860(4) 0.3156(4) 0.5705(4)
H44 H 0.2354 0.2793 0.6154
C47 C 0.3681(4) 0.2747(4) 0.5094(4)
H45 H 0.3761 0.2091 0.5128
C48 C 0.3498(3) 0.1228(3) 0.3822(3)
H46 H 0.3915 0.1521 0.3194
C49 C 0.2535(3) 0.1699(3) 0.4183(2)
H47 H 0.2292 0.2340 0.3837
C50 C 0.1928(2) 0.1244(3) 0.5042(2)
H48 H 0.1247 0.1562 0.5298
C51 C 0.2279(3) 0.0332(4) 0.5545(3)
H49 H 0.1827 0.0018 0.6138
C52 C 0.3255(3) -0.0147(3) 0.5231(2)
H50 H 0.3493 -0.0778 0.5598
C53 C 0.3883(3) 0.0320(3) 0.4359(3)
H51 H 0.4577 0.0022 0.4124
C54 C 0.3509(2) -0.1420(3) 0.3318(2)
H52 H 0.3221 -0.0855 0.3532
C55 C 0.4113(2) -0.2190(3) 0.3776(2)
H53 H 0.4242 -0.2151 0.4302
C56 C 0.4529(3) -0.3010(3) 0.3486(3)
H54 H 0.4954 -0.3539 0.3799
C57 C 0.4323(4) -0.3059(3) 0.2725(3)
H55 H 0.4599 -0.3631 0.2521
C58 C 0.3718(3) -0.2283(4) 0.2261(3)
H56 H 0.3582 -0.2321 0.1738
C59 C 0.3315(2) -0.1459(3) 0.2554(2)
H57 H 0.2906 -0.0919 0.2233
C60 C 0.0895(13) 0.4338(10) 0.5010(11)
H58 H 0.1517 0.3885 0.5012
C61 C 0.0351(12) 0.4719(10) 0.5762(10)
H59 H 0.0590 0.4520 0.6296
C62 C -0.0543(12) 0.5389(11) 0.5767(10)
H60 H -0.0914 0.5660 0.6293
C60A C -0.0895(13) 0.5662(10) 0.4990(11)
H58A H -0.1517 0.6115 0.4988
C61A C -0.0351(12) 0.5281(10) 0.4238(10)
H59A H -0.0590 0.5480 0.3704
C62A C 0.0543(12) 0.4611(11) 0.4233(10)
H60A H 0.0914 0.4340 0.3707
loop_
_geom_bond_atom_site_label_1
_geom_bond_atom_site_label_2
_geom_bond_site_symmetry_1
_geom_bond_site_symmetry_2
C1 B1 1_555 1_555
Co1 N1 1_555 1_555
O1 H1 1_555 1_555
B1 H2 1_555 1_555
Co2 O8 1_555 1_555
B2 C1 1_555 1_555
H3 B2 1_555 1_555
B3 C1 1_555 1_555
H4 B3 1_555 1_555
B4 C1 1_555 1_555
H5 B4 1_555 1_555
B5 C1 1_555 1_555
H6 B5 1_555 1_555
B6 B1 1_555 1_555
H7 B6 1_555 1_555
B7 B2 1_555 1_555
H8 B7 1_555 1_555
B8 B3 1_555 1_555
H9 B8 1_555 1_555
B9 B4 1_555 1_555
H10 B9 1_555 1_555
C2 B1 1_555 1_555
B10 B6 1_555 1_555
H11 B10 1_555 1_555
C3 C1 1_555 1_555
H12 C3 1_555 1_555
O2 C3 1_555 1_555
H13 O2 1_555 1_555
C4 C3 1_555 1_555
C5 C4 1_555 1_555
H14 C5 1_555 1_555
C6 C5 1_555 1_555
H15 C6 1_555 1_555
N1 C6 1_555 1_555
C7 N1 1_555 1_555
H16 C7 1_555 1_555
C8 C4 1_555 1_555
H17 C8 1_555 1_555
C9 O1 1_555 1_555
H18 C9 1_555 1_555
C10 C9 1_555 1_555
C11 C10 1_555 1_555
H19 C11 1_555 1_555
C12 C11 1_555 1_555
H20 C12 1_555 1_555
N2 C12 1_555 1_555
C13 N2 1_555 1_555
H21 C13 1_555 1_555
C14 C10 1_555 1_555
H22 C14 1_555 1_555
O3 Co1 1_555 1_555
C15 O3 1_555 1_555
O4 C15 1_555 1_555
C16 C15 1_555 1_555
C17 C16 1_555 1_555
H23 C17 1_555 1_555
C18 C17 1_555 1_555
H24 C18 1_555 1_555
C19 C18 1_555 1_555
C20 C19 1_555 1_555
H25 C20 1_555 1_555
C21 C16 1_555 1_555
H26 C21 1_555 1_555
C22 C19 1_555 1_555
C23 C22 1_555 1_555
H27 C23 1_555 1_555
C24 C23 1_555 1_555
C25 C24 1_555 1_555
H28 C25 1_555 1_555
C26 C25 1_555 1_555
C27 C22 1_555 1_555
H29 C27 1_555 1_555
C28 C26 1_555 1_555
C29 C28 1_555 1_555
H30 C29 1_555 1_555
C30 C29 1_555 1_555
H31 C30 1_555 1_555
C31 C30 1_555 1_555
C32 C31 1_555 1_555
H32 C32 1_555 1_555
C33 C28 1_555 1_555
H33 C33 1_555 1_555
C34 C31 1_555 1_555
O5 C34 1_555 1_555
O6 C34 1_555 1_555
C35 C24 1_555 1_555
C36 C35 1_555 1_555
H34 C36 1_555 1_555
C37 C36 1_555 1_555
H35 C37 1_555 1_555
C38 C37 1_555 1_555
C39 C38 1_555 1_555
H36 C39 1_555 1_555
C40 C35 1_555 1_555
H37 C40 1_555 1_555
C41 C38 1_555 1_555
O7 C41 1_555 1_555
O8 C41 1_555 1_555
C42 H40 1_555 1_555
C43 C42 1_555 1_555
H41 C43 1_555 1_555
C44 C43 1_555 1_555
H42 C44 1_555 1_555
C45 C44 1_555 1_555
H43 C45 1_555 1_555
C46 C45 1_555 1_555
H44 C46 1_555 1_555
C47 C42 1_555 1_555
H45 C47 1_555 1_555
C48 H46 1_555 1_555
C49 C48 1_555 1_555
H47 C49 1_555 1_555
C50 C49 1_555 1_555
H48 C50 1_555 1_555
C51 C50 1_555 1_555
H49 C51 1_555 1_555
C52 C51 1_555 1_555
H50 C52 1_555 1_555
C53 C48 1_555 1_555
H51 C53 1_555 1_555
C54 H52 1_555 1_555
C55 C54 1_555 1_555
H53 C55 1_555 1_555
C56 C55 1_555 1_555
H54 C56 1_555 1_555
C57 C56 1_555 1_555
H55 C57 1_555 1_555
C58 C57 1_555 1_555
H56 C58 1_555 1_555
C59 C54 1_555 1_555
H57 C59 1_555 1_555
C60 H58 1_555 1_555
C61 C60 1_555 1_555
H59 C61 1_555 1_555
C62 C61 1_555 1_555
H60 C62 1_555 1_555
C1A B1A 1_555 1_555
Co1A N1A 1_555 1_555
O1A H1A 1_555 1_555
B1A H2A 1_555 1_555
B2A C1A 1_555 1_555
H3A B2A 1_555 1_555
B3A C1A 1_555 1_555
H4A B3A 1_555 1_555
B4A C1A 1_555 1_555
H5A B4A 1_555 1_555
B5A C1A 1_555 1_555
H6A B5A 1_555 1_555
B6A B1A 1_555 1_555
H7A B6A 1_555 1_555
B7A B2A 1_555 1_555
H8A B7A 1_555 1_555
B8A B3A 1_555 1_555
H9A B8A 1_555 1_555
B9A B4A 1_555 1_555
H10A B9A 1_555 1_555
C2A B1A 1_555 1_555
B10A B6A 1_555 1_555
H11A B10A 1_555 1_555
C3A C1A 1_555 1_555
H12A C3A 1_555 1_555
O2A C3A 1_555 1_555
H13A O2A 1_555 1_555
C4A C3A 1_555 1_555
C5A C4A 1_555 1_555
H14A C5A 1_555 1_555
C6A C5A 1_555 1_555
H15A C6A 1_555 1_555
N1A C6A 1_555 1_555
C7A N1A 1_555 1_555
H16A C7A 1_555 1_555
C8A C4A 1_555 1_555
H17A C8A 1_555 1_555
C9A O1A 1_555 1_555
H18A C9A 1_555 1_555
C10A C9A 1_555 1_555
C11A C10A 1_555 1_555
H19A C11A 1_555 1_555
C12A C11A 1_555 1_555
H20A C12A 1_555 1_555
N2A C12A 1_555 1_555
C13A N2A 1_555 1_555
H21A C13A 1_555 1_555
C14A C10A 1_555 1_555
H22A C14A 1_555 1_555
O3A Co1A 1_555 1_555
C15A O3A 1_555 1_555
O4A Co2 1_555 1_555
C16A C15A 1_555 1_555
C17A C16A 1_555 1_555
H23A C17A 1_555 1_555
C18A C17A 1_555 1_555
H24A C18A 1_555 1_555
C19A C18A 1_555 1_555
C20A C19A 1_555 1_555
H25A C20A 1_555 1_555
C21A C16A 1_555 1_555
H26A C21A 1_555 1_555
C22A C19A 1_555 1_555
C23A C22A 1_555 1_555
H27A C23A 1_555 1_555
C24A C23A 1_555 1_555
C25A C24A 1_555 1_555
H28A C25A 1_555 1_555
C26A C25A 1_555 1_555
C27A C22A 1_555 1_555
H29A C27A 1_555 1_555
C28A C26A 1_555 1_555
C29A C28A 1_555 1_555
H30A C29A 1_555 1_555
C30A C29A 1_555 1_555
H31A C30A 1_555 1_555
C31A C30A 1_555 1_555
C32A C31A 1_555 1_555
H32A C32A 1_555 1_555
C33A C28A 1_555 1_555
H33A C33A 1_555 1_555
C34A C31A 1_555 1_555
O5A C34A 1_555 1_555
O6A C34A 1_555 1_555
C35A C24A 1_555 1_555
C36A C35A 1_555 1_555
H34A C36A 1_555 1_555
C37A C36A 1_555 1_555
H35A C37A 1_555 1_555
C38A C37A 1_555 1_555
C39A C38A 1_555 1_555
H36A C39A 1_555 1_555
C40A C35A 1_555 1_555
H37A C40A 1_555 1_555
C41A C38A 1_555 1_555
O7A C41A 1_555 1_555
O8A C41A 1_555 1_555
Co1_2 N2A 1_555 1_555
Co1_3 O5 1_555 1_555
Co1_4 O7 1_555 1_555
Co1A_2 O7A 1_555 1_555
Co1A_3 O5A 1_555 1_555
Co1A_4 N2 1_555 1_555
Co2_2 O4 1_555 1_555
Co2_3 O5 1_555 1_555
Co2_4 O5A 1_555 1_555
N2_2 Co1A 1_555 1_555
N2A_2 Co1 1_555 1_555
O4_2 Co2 1_555 1_555
O5_2 Co1 1_555 1_555
O5_3 Co2 1_555 1_555
O5A_2 Co2 1_555 1_555
O6_2 Co1 1_555 1_555
O6A_2 Co1A 1_555 1_555
O7_2 Co1 1_555 1_555
O7A_2 Co1A 1_555 1_555
O8A_2 Co2 1_555 1_555
C60A C62 1_555 1_555
H58A C60A 1_555 1_555
C61A C60A 1_555 1_555
H59A C61A 1_555 1_555
C62A C60 1_555 1_555
H60A C62A 1_555 1_555
B1 B2 1_555 1_555
B1 B5 1_555 1_555
B2 B3 1_555 1_555
B2 B6 1_555 1_555
B3 B4 1_555 1_555
B3 B7 1_555 1_555
B4 B5 1_555 1_555
B4 B8 1_555 1_555
B5 B9 1_555 1_555
B5 C2 1_555 1_555
B6 B7 1_555 1_555
B6 C2 1_555 1_555
B7 B8 1_555 1_555
B7 B10 1_555 1_555
B8 B9 1_555 1_555
B8 B10 1_555 1_555
B9 C2 1_555 1_555
B9 B10 1_555 1_555
C2 B10 1_555 1_555
C2 C9 1_555 1_555
C7 C8 1_555 1_555
C13 C14 1_555 1_555
C20 C21 1_555 1_555
C26 C27 1_555 1_555
C32 C33 1_555 1_555
O6 Co1_3 1_555 1_555
C39 C40 1_555 1_555
C46 C47 1_555 1_555
C52 C53 1_555 1_555
C58 C59 1_555 1_555
Co1A O5A_2 1_555 1_555
B1A B2A 1_555 1_555
B1A B5A 1_555 1_555
B2A B3A 1_555 1_555
B2A B6A 1_555 1_555
B3A B4A 1_555 1_555
B3A B7A 1_555 1_555
B4A B5A 1_555 1_555
B4A B8A 1_555 1_555
B5A B9A 1_555 1_555
B5A C2A 1_555 1_555
B6A B7A 1_555 1_555
B6A C2A 1_555 1_555
B7A B8A 1_555 1_555
B7A B10A 1_555 1_555
B8A B9A 1_555 1_555
B8A B10A 1_555 1_555
B9A C2A 1_555 1_555
B9A B10A 1_555 1_555
C2A B10A 1_555 1_555
C2A C9A 1_555 1_555
C7A C8A 1_555 1_555
C13A C14A 1_555 1_555
C15A O4A 1_555 1_555
C20A C21A 1_555 1_555
C26A C27A 1_555 1_555
C32A C33A 1_555 1_555
O6A Co1A_3 1_555 1_555
C39A C40A 1_555 1_555
O8A Co2_2 1_555 1_555
Co1_4 O5_3 1_555 1_555
Co2_2 O5_2 1_555 1_555
C61A C62A 1_555 1_555

#END
