
#######################################################################
#
#                 Cambridge Crystallographic Data Centre
#                                CCDC 
#
#######################################################################
#
# If this CIF has been generated from an entry in the Cambridge 
# Structural Database, then it will include bibliographic, chemical, 
# crystal, experimental, refinement or atomic coordinate data resulting 
# from the CCDC's data processing and validation procedures.
#
#######################################################################

data_OCINAS
_chemical_formula_moiety         '(C51 H47 B10 N3 O11 Zn2)n'
_symmetry_cell_setting           triclinic
_symmetry_space_group_name_H-M   'P -1'
_symmetry_Int_Tables_number      2
_space_group_name_Hall           '-P 1'
loop_
_symmetry_equiv_pos_site_id
_symmetry_equiv_pos_as_xyz
1 x,y,z
2 -x,-y,-z
_cell_length_a                   11.6364(5)
_cell_length_b                   15.5850(6)
_cell_length_c                   18.8230(8)
_cell_angle_alpha                86.4230(18)
_cell_angle_beta                 82.8690(19)
_cell_angle_gamma                89.7220(19)
_cell_volume                     3380.6
loop_
_atom_site_label
_atom_site_type_symbol
_atom_site_fract_x
_atom_site_fract_y
_atom_site_fract_z
Zn1 Zn 0.54991(5) 0.74924(3) 0.92986(3)
C1 C 0.4232(5) 0.7163(5) 1.3084(3)
Zn2 Zn 0.57990(5) -0.24353(3) 0.77332(3)
B1 B 0.4592(6) 0.7595(5) 1.3851(3)
H1 H 0.4461 0.8278 1.3994
B2 B 0.5640(6) 0.7307(5) 1.3138(3)
H2 H 0.6188 0.7806 1.2803
B3 B 0.5176(8) 0.6375(5) 1.2767(4)
H3 H 0.5414 0.6246 1.2188
B4 B 0.3820(10) 0.6129(7) 1.3218(5)
H4 H 0.3144 0.5839 1.2932
B5 B 0.3436(8) 0.6890(8) 1.3885(4)
H5 H 0.2527 0.7108 1.4041
C2 C 0.5737(5) 0.7002(4) 1.4025(3)
B6 B 0.6193(9) 0.6275(5) 1.3386(4)
H6 H 0.7115 0.6087 1.3226
B7 B 0.5035(11) 0.5548(6) 1.3443(5)
H7 H 0.5179 0.4860 1.3318
B8 B 0.3965(11) 0.5831(8) 1.4124(5)
H8 H 0.3391 0.5333 1.4442
B9 B 0.4450(7) 0.6731(6) 1.4511(4)
H9 H 0.4215 0.6828 1.5096
B10 B 0.5437(9) 0.5947(5) 1.4240(4)
H10 H 0.5867 0.5543 1.4643
C3 C 0.3629(7) 0.7828(5) 1.2573(3)
H11 H 0.3750 0.8431 1.2703
O1 O 0.2457(7) 0.7633(7) 1.2646(4)
H12 H 0.2360 0.7108 1.2767
C4 C 0.4126(5) 0.7715(4) 1.1792(3)
C5 C 0.4891(5) 0.8304(4) 1.1442(3)
H13 H 0.5138 0.8777 1.1680
C6 C 0.5297(5) 0.8197(3) 1.0736(3)
H14 H 0.5819 0.8616 1.0492
N1 N 0.4999(3) 0.7536(2) 1.03682(19)
C7 C 0.4234(4) 0.6971(4) 1.0704(3)
H15 H 0.3989 0.6511 1.0450
C8 C 0.3780(5) 0.7037(4) 1.1423(3)
H16 H 0.3242 0.6622 1.1655
C9 C 0.6756(6) 0.7423(5) 1.4350(3)
H17 H 0.7467 0.7067 1.4245
O2 O 0.6969(7) 0.8251(4) 1.4022(3)
H18 H 0.6964 0.8236 1.3577
C10 C 0.6484(5) 0.7465(4) 1.5163(3)
C11 C 0.5955(7) 0.8146(4) 1.5466(3)
H19 H 0.5710 0.8615 1.5176
C12 C 0.5772(7) 0.8153(4) 1.6205(3)
H20 H 0.5401 0.8642 1.6406
N2 N 0.6074(4) 0.7535(2) 1.6649(2)
C13 C 0.6618(5) 0.6864(4) 1.6340(3)
H21 H 0.6860 0.6402 1.6640
C14 C 0.6836(6) 0.6821(4) 1.5608(3)
H22 H 0.7235 0.6339 1.5412
O3 O 0.4629(3) 0.64198(17) 0.91232(16)
C15 C 0.4211(4) 0.6288(3) 0.8547(2)
O4 O 0.4408(3) 0.67483(18) 0.79698(16)
C16 C 0.3449(4) 0.5520(3) 0.8559(2)
C17 C 0.3483(4) 0.4851(3) 0.9084(3)
H23 H 0.3986 0.4885 0.9442
C18 C 0.2780(4) 0.4138(3) 0.9081(2)
H24 H 0.2826 0.3674 0.9428
C19 C 0.2005(4) 0.4089(3) 0.8576(2)
C20 C 0.1977(4) 0.4763(3) 0.8055(3)
H25 H 0.1451 0.4743 0.7709
C21 C 0.2709(4) 0.5458(3) 0.8041(2)
H26 H 0.2706 0.5901 0.7671
C22 C 0.1289(4) 0.3303(3) 0.8566(2)
C23 C 0.1831(4) 0.2507(3) 0.8542(2)
H27 H 0.2646 0.2486 0.8544
C24 C 0.1240(4) 0.1740(3) 0.8515(2)
C25 C 0.1916(4) 0.0928(3) 0.8486(2)
C26 C 0.2570(5) 0.0720(3) 0.7849(3)
H28 H 0.2539 0.1083 0.7427
C27 C 0.3266(5) -0.0008(3) 0.7817(3)
H29 H 0.3696 -0.0144 0.7376
C28 C 0.3330(4) -0.0532(3) 0.8432(2)
C29 C 0.2662(4) -0.0345(3) 0.9062(3)
H30 H 0.2682 -0.0715 0.9481
C30 C 0.1962(4) 0.0381(3) 0.9089(3)
H31 H 0.1509 0.0503 0.9526
C31 C 0.4131(4) -0.1288(3) 0.8420(2)
O5 O 0.4748(3) -0.14076(18) 0.78310(16)
O6 O 0.4144(3) -0.17519(18) 0.89887(16)
C32 C 0.0018(4) 0.1763(3) 0.8529(2)
C33 C -0.0694(4) 0.0983(3) 0.8520(2)
C34 C -0.0445(4) 0.0362(3) 0.8021(3)
H32 H 0.0231 0.0423 0.7682
C35 C -0.1160(4) -0.0336(3) 0.8010(3)
H33 H -0.0984 -0.0739 0.7654
C36 C -0.2139(4) -0.0464(3) 0.8513(2)
C37 C -0.2403(4) 0.0162(3) 0.9011(3)
H34 H -0.3070 0.0097 0.9356
C38 C -0.1700(4) 0.0872(3) 0.9003(3)
H35 H -0.1907 0.1298 0.9335
C39 C -0.2913(4) -0.1224(3) 0.8518(2)
O7 O -0.2894(3) -0.16139(19) 0.79478(17)
O8 O -0.3527(3) -0.14318(18) 0.91006(17)
C40 C -0.0523(4) 0.2561(3) 0.8545(2)
H36 H -0.1338 0.2583 0.8543
C41 C 0.0078(4) 0.3330(3) 0.8565(2)
C42 C -0.0597(4) 0.4143(3) 0.8572(2)
C43 C -0.1234(4) 0.4363(3) 0.8013(3)
H37 H -0.1199 0.4007 0.7619
C44 C -0.1914(4) 0.5083(3) 0.8016(3)
H38 H -0.2330 0.5222 0.7621
C45 C -0.2008(4) 0.5614(3) 0.8585(2)
C46 C -0.1359(4) 0.5402(3) 0.9150(3)
H39 H -0.1399 0.5757 0.9545
C47 C -0.0659(4) 0.4679(3) 0.9138(3)
H40 H -0.0216 0.4549 0.9522
C48 C -0.2789(4) 0.6379(2) 0.8594(2)
O9 O -0.3186(3) 0.65708(18) 0.80059(17)
O10 O -0.3016(3) 0.67608(18) 0.91623(16)
Zn1_2 Zn -0.45009(5) -0.25076(3) 0.92986(3)
Zn1_3 Zn -0.45009(5) 0.74924(3) 0.92986(3)
Zn1_4 Zn 0.54991(5) -0.25076(3) 0.92986(3)
Zn2_2 Zn -0.42010(5) -0.24353(3) 0.77332(3)
Zn2_3 Zn -0.42010(5) 0.75647(3) 0.77332(3)
Zn2_4 Zn 0.57990(5) 0.75647(3) 0.77332(3)
Zn2_5 Zn 0.57990(5) 0.75647(3) 1.77332(3)
N2_2 N 0.6074(4) -0.2465(2) 0.6649(2)
O4_2 O 0.4408(3) -0.32517(18) 0.79698(16)
O6_2 O 0.4144(3) 0.82481(18) 0.89887(16)
O7_2 O 0.7106(3) -0.16139(19) 0.79478(17)
O8_2 O 0.6473(3) 0.85682(18) 0.91006(17)
O9_2 O 0.6814(3) -0.34292(18) 0.80059(17)
O10_2 O 0.6984(3) 0.67608(18) 0.91623(16)
O12 O -0.0444(5) 0.2752(4) 1.2256(3)
C49 C 0.0124(6) 0.2541(4) 1.1705(4)
H43 H 0.0918 0.2412 1.1724
N3 N -0.0281(5) 0.2478(3) 1.1076(3)
C50 C -0.1442(6) 0.2676(5) 1.0962(6)
H44 H -0.1852 0.2146 1.0893
H45 H -0.1439 0.3068 1.0534
H46 H -0.1834 0.2951 1.1379
C51 C 0.0475(6) 0.2194(5) 1.0477(4)
H47 H 0.1255 0.2108 1.0614
H48 H 0.0502 0.2628 1.0076
H49 H 0.0185 0.1650 1.0332
loop_
_geom_bond_atom_site_label_1
_geom_bond_atom_site_label_2
_geom_bond_site_symmetry_1
_geom_bond_site_symmetry_2
Zn1 N1 1_555 1_555
C1 B1 1_555 1_555
Zn2 O5 1_555 1_555
B1 H1 1_555 1_555
B2 C1 1_555 1_555
H2 B2 1_555 1_555
B3 C1 1_555 1_555
H3 B3 1_555 1_555
B4 C1 1_555 1_555
H4 B4 1_555 1_555
B5 C1 1_555 1_555
H5 B5 1_555 1_555
C2 B1 1_555 1_555
B6 B2 1_555 1_555
H6 B6 1_555 1_555
B7 B3 1_555 1_555
H7 B7 1_555 1_555
B8 B4 1_555 1_555
H8 B8 1_555 1_555
B9 B1 1_555 1_555
H9 B9 1_555 1_555
B10 C2 1_555 1_555
H10 B10 1_555 1_555
C3 C1 1_555 1_555
H11 C3 1_555 1_555
O1 C3 1_555 1_555
H12 O1 1_555 1_555
C4 C3 1_555 1_555
C5 C4 1_555 1_555
H13 C5 1_555 1_555
C6 C5 1_555 1_555
H14 C6 1_555 1_555
N1 C6 1_555 1_555
C7 N1 1_555 1_555
H15 C7 1_555 1_555
C8 C4 1_555 1_555
H16 C8 1_555 1_555
C9 C2 1_555 1_555
H17 C9 1_555 1_555
O2 C9 1_555 1_555
H18 O2 1_555 1_555
C10 C9 1_555 1_555
C11 C10 1_555 1_555
H19 C11 1_555 1_555
C12 C11 1_555 1_555
H20 C12 1_555 1_555
N2 C12 1_555 1_555
C13 N2 1_555 1_555
H21 C13 1_555 1_555
C14 C10 1_555 1_555
H22 C14 1_555 1_555
O3 Zn1 1_555 1_555
C15 O3 1_555 1_555
O4 C15 1_555 1_555
C16 C15 1_555 1_555
C17 C16 1_555 1_555
H23 C17 1_555 1_555
C18 C17 1_555 1_555
H24 C18 1_555 1_555
C19 C18 1_555 1_555
C20 C19 1_555 1_555
H25 C20 1_555 1_555
C21 C16 1_555 1_555
H26 C21 1_555 1_555
C22 C19 1_555 1_555
C23 C22 1_555 1_555
H27 C23 1_555 1_555
C24 C23 1_555 1_555
C25 C24 1_555 1_555
C26 C25 1_555 1_555
H28 C26 1_555 1_555
C27 C26 1_555 1_555
H29 C27 1_555 1_555
C28 C27 1_555 1_555
C29 C28 1_555 1_555
H30 C29 1_555 1_555
C30 C25 1_555 1_555
H31 C30 1_555 1_555
C31 C28 1_555 1_555
O5 C31 1_555 1_555
O6 C31 1_555 1_555
C32 C24 1_555 1_555
C33 C32 1_555 1_555
C34 C33 1_555 1_555
H32 C34 1_555 1_555
C35 C34 1_555 1_555
H33 C35 1_555 1_555
C36 C35 1_555 1_555
C37 C36 1_555 1_555
H34 C37 1_555 1_555
C38 C33 1_555 1_555
H35 C38 1_555 1_555
C39 C36 1_555 1_555
O7 C39 1_555 1_555
O8 C39 1_555 1_555
C40 C32 1_555 1_555
H36 C40 1_555 1_555
C41 C22 1_555 1_555
C42 C41 1_555 1_555
C43 C42 1_555 1_555
H37 C43 1_555 1_555
C44 C43 1_555 1_555
H38 C44 1_555 1_555
C45 C44 1_555 1_555
C46 C45 1_555 1_555
H39 C46 1_555 1_555
C47 C42 1_555 1_555
H40 C47 1_555 1_555
C48 C45 1_555 1_555
O9 C48 1_555 1_555
O10 C48 1_555 1_555
O12 C49 1_555 1_555
C49 H43 1_555 1_555
N3 C49 1_555 1_555
C50 N3 1_555 1_555
H44 C50 1_555 1_555
H45 C50 1_555 1_555
H46 C50 1_555 1_555
C51 N3 1_555 1_555
H47 C51 1_555 1_555
H48 C51 1_555 1_555
H49 C51 1_555 1_555
Zn1_2 O8 1_555 1_555
Zn1_3 O10 1_555 1_555
Zn1_4 O6 1_555 1_555
Zn2_2 O7 1_555 1_555
Zn2_3 O9 1_555 1_555
Zn2_4 O4 1_555 1_555
Zn2_5 N2 1_555 1_555
N2_2 Zn2 1_555 1_555
O4_2 Zn2 1_555 1_555
O6_2 Zn1 1_555 1_555
O7_2 Zn2 1_555 1_555
O8_2 Zn1 1_555 1_555
O9_2 Zn2 1_555 1_555
O10_2 Zn1 1_555 1_555
B1 B2 1_555 1_555
B1 B5 1_555 1_555
B2 B3 1_555 1_555
B2 C2 1_555 1_555
B3 B4 1_555 1_555
B3 B6 1_555 1_555
B4 B5 1_555 1_555
B4 B7 1_555 1_555
B5 B8 1_555 1_555
B5 B9 1_555 1_555
C2 B6 1_555 1_555
C2 B9 1_555 1_555
B6 B7 1_555 1_555
B6 B10 1_555 1_555
B7 B8 1_555 1_555
B7 B10 1_555 1_555
B8 B9 1_555 1_555
B8 B10 1_555 1_555
B9 B10 1_555 1_555
C7 C8 1_555 1_555
C13 C14 1_555 1_555
C20 C21 1_555 1_555
C29 C30 1_555 1_555
C37 C38 1_555 1_555
C40 C41 1_555 1_555
C46 C47 1_555 1_555

#END
