
#######################################################################
#
#                 Cambridge Crystallographic Data Centre
#                                CCDC 
#
#######################################################################
#
# If this CIF has been generated from an entry in the Cambridge 
# Structural Database, then it will include bibliographic, chemical, 
# crystal, experimental, refinement or atomic coordinate data resulting 
# from the CCDC's data processing and validation procedures.
#
#######################################################################

data_NECZAY
_chemical_formula_moiety         '(C6 H32 Be6 N4 O24 P8)n'
_symmetry_cell_setting           monoclinic
_symmetry_space_group_name_H-M   'P 21/c'
_symmetry_Int_Tables_number      14
_space_group_name_Hall           '-P 2ybc'
loop_
_symmetry_equiv_pos_site_id
_symmetry_equiv_pos_as_xyz
1 x,y,z
2 -x,1/2+y,1/2-z
3 -x,-y,-z
4 x,1/2-y,1/2+z
_cell_length_a                   13.5609(2)
_cell_length_b                   17.0431(2)
_cell_length_c                   13.4425(2)
_cell_angle_alpha                90
_cell_angle_beta                 90.931(2)
_cell_angle_gamma                90
_cell_volume                     3106.42
loop_
_atom_site_label
_atom_site_type_symbol
_atom_site_fract_x
_atom_site_fract_y
_atom_site_fract_z
P1 P 0.60410(8) 0.57179(6) 0.89644(8)
H1 H 0.507(4) 0.5595(5) 0.9311(15)
P2 P 0.77393(8) 0.56689(6) 1.17188(8)
H2 H 0.693(3) 0.517(2) 1.1358(15)
P3 P 0.74153(8) 0.65801(6) 1.54145(8)
H3 H 0.836(4) 0.6421(7) 1.5700(13)
P4 P 0.90124(8) 0.42242(6) 1.39240(8)
H4 H 1.000(4) 0.4318(4) 1.4259(15)
P5 P 0.75330(8) 0.34236(6) 1.03547(8)
H5 H 0.655(4) 0.3597(8) 1.0498(7)
P6 P 0.61694(8) 0.39599(6) 1.34890(8)
H6 H 0.6212(2) 0.3800(7) 1.248(4)
P7 P 0.89021(9) 0.58727(6) 0.86442(8)
H7 H 0.8751(7) 0.6140(12) 0.767(4)
P8 P 0.72398(9) 0.45042(6) 1.65426(8)
H8 H 0.805(4) 0.500(2) 1.6307(10)
Be1 Be 0.7474(4) 0.5373(3) 1.3813(4)
Be2 Be 0.7530(5) 0.4522(3) 0.8686(4)
Be3 Be 0.7515(4) 0.6687(3) 1.0008(4)
Be4 Be 0.5991(4) 0.5871(3) 1.6750(4)
Be5 Be 0.8969(4) 0.4295(3) 1.1702(4)
Be6 Be 0.7540(4) 0.3305(3) 1.4922(4)
O1 O 0.6470(3) 0.6340(2) 0.9613(3)
O2 O 0.6550(3) 0.4940(2) 0.9060(3)
O3 O 0.5923(3) 0.60078(18) 0.7922(2)
O4 O 0.7728(2) 0.64234(17) 1.1132(2)
O5 O 0.7551(2) 0.58833(17) 1.2796(2)
O6 O 0.8694(2) 0.52222(16) 1.1600(2)
O7 O 0.7394(4) 0.73786(19) 1.4968(3)
O8 O 0.7111(2) 0.59853(17) 1.4642(2)
O9 O 0.6777(2) 0.65200(16) 1.6325(2)
O10 O 0.8605(2) 0.35460(19) 1.4503(3)
O11 O 0.9063(3) 0.40186(19) 1.2844(2)
O12 O 0.8507(2) 0.49895(17) 1.4132(2)
O13 O 0.8100(3) 0.3774(2) 1.1199(3)
O14 O 0.7639(3) 0.25543(17) 1.0418(2)
O15 O 0.7800(3) 0.37376(19) 0.9346(2)
O16 O 0.6739(3) 0.33151(18) 1.4018(3)
O17 O 0.6589(2) 0.47617(18) 1.3637(3)
O18 O 0.5086(2) 0.39387(19) 1.3764(2)
O19 O 0.8430(3) 0.6448(2) 0.9322(3)
O20 O 0.8486(3) 0.5065(2) 0.8702(3)
O21 O 1.0003(2) 0.58743(19) 0.8851(2)
O22 O 0.6303(2) 0.49873(16) 1.6487(2)
O23 O 0.7190(3) 0.38566(19) 1.5798(2)
O24 O 0.7417(3) 0.41642(19) 1.7572(2)
Be2_2 Be 0.7530(5) 0.4522(3) 1.8686(4)
Be3C Be 0.7515(4) 0.8313(3) 1.5008(4)
Be4_2 Be 0.5991(4) 0.5871(3) 0.6750(4)
Be4B Be 0.4009(4) 0.4129(3) 1.3250(4)
Be5B Be 1.1031(4) 0.5705(3) 0.8298(4)
Be6C Be 0.7540(4) 0.1695(3) 0.9922(4)
O3_2 O 0.5923(3) 0.60078(18) 1.7922(2)
O7C O 0.7394(4) 0.76214(19) 0.9968(3)
O14C O 0.7639(3) 0.24457(17) 1.5418(2)
O18B O 0.4914(2) 0.60613(19) 1.6236(2)
O21B O 0.9997(2) 0.41257(19) 1.1149(2)
O24_2 O 0.7417(3) 0.41642(19) 0.7572(2)
N1 N 0.6465(3) 0.7290(2) 0.2846(3)
H9 H 0.6683 0.7400 0.2240
H10 H 0.6774 0.6866 0.3080
H11 H 0.6584 0.7695 0.3248
N2 N 0.5119(3) 0.6144(2) 0.4167(3)
H12 H 0.4850 0.6097 0.4763
H13 H 0.5763 0.6048 0.4215
H14 H 0.4839 0.5803 0.3748
C1 C 0.4960(4) 0.6952(3) 0.3791(4)
H21 H 0.5244 0.7315 0.4271
H22 H 0.4255 0.7050 0.3761
C2 C 0.5375(4) 0.7136(4) 0.2792(4)
H23 H 0.5081 0.7641 0.2605
C3 C 0.5112(5) 0.6602(5) 0.1963(5)
H24 H 0.4410 0.6523 0.1943
H25 H 0.5436 0.6106 0.2061
H26 H 0.5317 0.6828 0.1346
N3 N 1.0119(3) 0.6288(3) 0.0940(3)
H15 H 0.9849 0.6298 0.0332
H16 H 0.9808 0.5935 0.1309
H17 H 1.0753 0.6159 0.0901
N4 N 1.1542(3) 0.7306(2) 0.2433(3)
H18 H 1.1767 0.7351 0.3056
H19 H 1.1654 0.7751 0.2106
H20 H 1.1849 0.6913 0.2133
C4 C 1.0029(4) 0.7070(3) 0.1402(5)
H27 H 0.9336 0.7206 0.1424
H28 H 1.0348 0.7450 0.0977
C5 C 1.0463(4) 0.7147(4) 0.2439(4)
H29 H 1.0179 0.7638 0.2685
C6 C 1.0170(5) 0.6578(6) 0.3155(5)
H30 H 1.0483 0.6691 0.3784
H31 H 1.0363 0.6064 0.2937
H32 H 0.9466 0.6594 0.3225
loop_
_geom_bond_atom_site_label_1
_geom_bond_atom_site_label_2
_geom_bond_site_symmetry_1
_geom_bond_site_symmetry_2
P1 H1 1_555 1_555
P2 H2 1_555 1_555
P3 H3 1_555 1_555
P4 H4 1_555 1_555
P5 H5 1_555 1_555
P6 H6 1_555 1_555
P7 H7 1_555 1_555
P8 H8 1_555 1_555
Be1 O5 1_555 1_555
Be2 O2 1_555 1_555
Be3 O1 1_555 1_555
Be4 O9 1_555 1_555
Be5 O6 1_555 1_555
Be6 O10 1_555 1_555
O1 P1 1_555 1_555
O2 P1 1_555 1_555
O3 P1 1_555 1_555
O4 P2 1_555 1_555
O5 P2 1_555 1_555
O6 P2 1_555 1_555
O7 P3 1_555 1_555
O8 P3 1_555 1_555
O9 P3 1_555 1_555
O10 P4 1_555 1_555
O11 P4 1_555 1_555
O12 P4 1_555 1_555
O13 P5 1_555 1_555
O14 P5 1_555 1_555
O15 P5 1_555 1_555
O16 P6 1_555 1_555
O17 P6 1_555 1_555
O18 P6 1_555 1_555
O19 P7 1_555 1_555
O20 P7 1_555 1_555
O21 P7 1_555 1_555
O22 P8 1_555 1_555
O23 P8 1_555 1_555
O24 P8 1_555 1_555
N1 H9 1_555 1_555
H10 N1 1_555 1_555
H11 N1 1_555 1_555
N2 H12 1_555 1_555
H13 N2 1_555 1_555
H14 N2 1_555 1_555
N3 H15 1_555 1_555
H16 N3 1_555 1_555
H17 N3 1_555 1_555
N4 H18 1_555 1_555
H19 N4 1_555 1_555
H20 N4 1_555 1_555
C1 N2 1_555 1_555
H21 C1 1_555 1_555
H22 C1 1_555 1_555
C2 N1 1_555 1_555
H23 C2 1_555 1_555
C3 C2 1_555 1_555
H24 C3 1_555 1_555
H25 C3 1_555 1_555
H26 C3 1_555 1_555
C4 N3 1_555 1_555
H27 C4 1_555 1_555
H28 C4 1_555 1_555
C5 N4 1_555 1_555
H29 C5 1_555 1_555
C6 C5 1_555 1_555
H30 C6 1_555 1_555
H31 C6 1_555 1_555
H32 C6 1_555 1_555
Be2_2 O24 1_555 1_555
Be3C O7 1_555 1_555
Be4_2 O3 1_555 1_555
Be4B O18 1_555 1_555
Be5B O21 1_555 1_555
Be6C O14 1_555 1_555
O3_2 Be4 1_555 1_555
O7C Be3 1_555 1_555
O14C Be6 1_555 1_555
O18B Be4 1_555 1_555
O21B Be5 1_555 1_555
O24_2 Be2 1_555 1_555
Be1 O8 1_555 1_555
Be1 O12 1_555 1_555
Be1 O17 1_555 1_555
Be2 O15 1_555 1_555
Be2 O20 1_555 1_555
Be3 O4 1_555 1_555
Be3 O19 1_555 1_555
Be4 O22 1_555 1_555
Be5 O11 1_555 1_555
Be5 O13 1_555 1_555
Be6 O16 1_555 1_555
Be6 O23 1_555 1_555
C1 C2 1_555 1_555
C4 C5 1_555 1_555

#END
