
#######################################################################
#
#                 Cambridge Crystallographic Data Centre
#                                CCDC 
#
#######################################################################
#
# If this CIF has been generated from an entry in the Cambridge 
# Structural Database, then it will include bibliographic, chemical, 
# crystal, experimental, refinement or atomic coordinate data resulting 
# from the CCDC's data processing and validation procedures.
#
#######################################################################

data_QERWAL
_chemical_formula_moiety         '(C60 H74 N12 Ni3 O16)n'
_symmetry_cell_setting           monoclinic
_symmetry_space_group_name_H-M   'P 21/n'
_symmetry_Int_Tables_number      14
_space_group_name_Hall           '-P 2yn'
loop_
_symmetry_equiv_pos_site_id
_symmetry_equiv_pos_as_xyz
1 x,y,z
2 1/2-x,1/2+y,1/2-z
3 -x,-y,-z
4 1/2+x,1/2-y,1/2+z
_cell_length_a                   13.1698(9)
_cell_length_b                   19.1965(12)
_cell_length_c                   16.6969(11)
_cell_angle_alpha                90
_cell_angle_beta                 108.9670(10)
_cell_angle_gamma                90
_cell_volume                     3992.02
loop_
_atom_site_label
_atom_site_type_symbol
_atom_site_fract_x
_atom_site_fract_y
_atom_site_fract_z
C1 C 0.0073(3) 0.0722(2) 0.3381(3)
C2 C 0.0746(3) 0.1209(2) 0.3059(2)
C3 C 0.1787(3) 0.1359(3) 0.3585(3)
H1 H 0.2059 0.1149 0.4129
C4 C 0.2429(3) 0.1817(2) 0.3312(2)
C5 C 0.3553(3) 0.1950(3) 0.3856(3)
C6 C 0.2026(3) 0.2138(3) 0.2529(3)
H2 H 0.2454 0.2463 0.2352
C7 C 0.0993(3) 0.1983(2) 0.2002(2)
C8 C 0.0631(3) 0.2311(3) 0.1147(3)
C9 C 0.0368(3) 0.1506(2) 0.2255(3)
H3 H -0.0320 0.1381 0.1879
C10 C -0.0753(4) 0.0944(3) 0.6172(3)
H4 H -0.1115 0.0534 0.6249
C11 C -0.0792(4) 0.1515(3) 0.6650(3)
H5 H -0.1174 0.1492 0.7044
C12 C -0.0276(4) 0.2132(3) 0.6565(3)
C13 C 0.0230(4) 0.2133(3) 0.5943(3)
H6 H 0.0569 0.2543 0.5835
C14 C 0.0227(3) 0.1533(3) 0.5492(3)
H7 H 0.0575 0.1547 0.5074
C15 C -0.3886(4) 0.3527(3) 0.4008(3)
H8 H -0.4594 0.3523 0.3615
C16 C -0.3221(4) 0.4052(3) 0.3952(3)
H9 H -0.3465 0.4402 0.3532
C17 C -0.2168(4) 0.4071(3) 0.4524(3)
C18 C -0.1867(4) 0.3538(3) 0.5116(3)
H10 H -0.1163 0.3529 0.5514
C19 C -0.2587(3) 0.3028(3) 0.5124(3)
H11 H -0.2359 0.2665 0.5531
C20 C -0.3181(3) 0.1575(3) 0.3901(3)
H12 H -0.3216 0.2009 0.3621
C21 C -0.2474(3) 0.1082(3) 0.3802(3)
H13 H -0.2026 0.1182 0.3471
C22 C -0.2421(3) 0.0441(3) 0.4186(3)
C23 C -0.3109(3) 0.0319(3) 0.4658(3)
H14 H -0.3109 -0.0118 0.4925
C24 C -0.3786(3) 0.0846(3) 0.4729(3)
H15 H -0.4249 0.0757 0.5051
N1 N -0.0228(3) 0.0926(2) 0.5594(2)
N2 N -0.0269(4) 0.2701(3) 0.7043(3)
H16 H -0.051(5) 0.269(3) 0.747(3)
H17 H 0.002(5) 0.306(3) 0.690(4)
N3 N -0.3604(3) 0.3012(2) 0.4586(2)
N4 N -0.1464(4) 0.4577(3) 0.4503(4)
H18 H -0.178(7) 0.492(4) 0.419(5)
H19 H -0.085(5) 0.456(5) 0.490(5)
N5 N -0.3831(3) 0.1475(2) 0.4374(2)
N6 N -0.1684(3) -0.0066(2) 0.4132(2)
H20 H -0.157(5) -0.004(3) 0.362(4)
H21 H -0.198(5) -0.049(4) 0.415(4)
O1 O 0.0458(2) 0.05709(17) 0.41593(18)
O2 O -0.0802(2) 0.0492(2) 0.2885(2)
O3 O 0.3944(2) 0.16533(18) 0.45664(18)
O4 O 0.4120(2) 0.23778(17) 0.36005(19)
O5 O 0.1135(2) 0.28293(19) 0.10061(19)
O6 O -0.0140(2) 0.20454(19) 0.05522(19)
Ni1 Ni -0.46247(4) 0.22617(3) 0.47213(3)
Ni2 Ni 0.0000 0.0000 0.5000
C10B C 0.0753(4) -0.0944(3) 0.3828(3)
H4B H 0.1115 -0.0534 0.3751
C11B C 0.0792(4) -0.1515(3) 0.3350(3)
H5B H 0.1174 -0.1492 0.2956
C12B C 0.0276(4) -0.2132(3) 0.3435(3)
C13B C -0.0230(4) -0.2133(3) 0.4057(3)
H6B H -0.0569 -0.2543 0.4165
C14B C -0.0227(3) -0.1533(3) 0.4508(3)
H7B H -0.0575 -0.1547 0.4926
N1B N 0.0228(3) -0.0926(2) 0.4406(2)
N2B N 0.0269(4) -0.2701(3) 0.2957(3)
H16B H 0.051(5) -0.269(3) 0.253(3)
H17B H -0.002(5) -0.306(3) 0.310(4)
C20B C 0.3181(3) -0.1575(3) 0.6099(3)
H12B H 0.3216 -0.2009 0.6379
C21B C 0.2474(3) -0.1082(3) 0.6198(3)
H13B H 0.2026 -0.1182 0.6529
C22B C 0.2421(3) -0.0441(3) 0.5814(3)
C23B C 0.3109(3) -0.0319(3) 0.5342(3)
H14B H 0.3109 0.0118 0.5075
C24B C 0.3786(3) -0.0846(3) 0.5271(3)
H15B H 0.4249 -0.0757 0.4949
N5B N 0.3831(3) -0.1475(2) 0.5626(2)
N6B N 0.1684(3) 0.0066(2) 0.5868(2)
H20B H 0.157(5) 0.004(3) 0.638(4)
H21B H 0.198(5) 0.049(4) 0.585(4)
C1B C -0.0073(3) -0.0722(2) 0.6619(3)
C2B C -0.0746(3) -0.1209(2) 0.6941(2)
C3B C -0.1787(3) -0.1359(3) 0.6415(3)
H1B H -0.2059 -0.1149 0.5871
C4B C -0.2429(3) -0.1817(2) 0.6688(2)
C5B C -0.3553(3) -0.1950(3) 0.6144(3)
C6B C -0.2026(3) -0.2138(3) 0.7471(3)
H2B H -0.2454 -0.2463 0.7648
C7B C -0.0993(3) -0.1983(2) 0.7998(2)
C8B C -0.0631(3) -0.2311(3) 0.8853(3)
C9B C -0.0368(3) -0.1506(2) 0.7745(3)
H3B H 0.0320 -0.1381 0.8121
O1B O -0.0458(2) -0.05709(17) 0.58407(18)
O2B O 0.0802(2) -0.0492(2) 0.7115(2)
O3B O -0.3944(2) -0.16533(18) 0.54336(18)
O4B O -0.4120(2) -0.23778(17) 0.63995(19)
O5B O -0.1135(2) -0.28293(19) 0.89939(19)
O6B O 0.0140(2) -0.20454(19) 0.94478(19)
Ni1B Ni 0.46247(4) -0.22617(3) 0.52787(3)
C15B C 0.3886(4) -0.3527(3) 0.5992(3)
H8B H 0.4594 -0.3523 0.6385
C16B C 0.3221(4) -0.4052(3) 0.6048(3)
H9B H 0.3465 -0.4402 0.6468
C17B C 0.2168(4) -0.4071(3) 0.5476(3)
C18B C 0.1867(4) -0.3538(3) 0.4884(3)
H10B H 0.1163 -0.3529 0.4486
C19B C 0.2587(3) -0.3028(3) 0.4876(3)
H11B H 0.2359 -0.2665 0.4469
N3B N 0.3604(3) -0.3012(2) 0.5414(2)
N4B N 0.1464(4) -0.4577(3) 0.5497(4)
H18B H 0.178(7) -0.492(4) 0.581(5)
H19B H 0.085(5) -0.456(5) 0.510(5)
Ni1_2 Ni 0.53753(4) 0.22617(3) 0.47213(3)
Ni1C Ni 0.03753(4) 0.27383(3) -0.02787(3)
O3_2 O -0.6056(2) 0.16533(18) 0.45664(18)
O4_2 O -0.5880(2) 0.23778(17) 0.36005(19)
O5C O -0.3865(2) 0.21707(19) 0.60061(19)
O6C O -0.5140(2) 0.29546(19) 0.55522(19)
Ni1B_2 Ni -0.53753(4) -0.22617(3) 0.52787(3)
Ni1A Ni -0.03753(4) -0.27383(3) 1.02787(3)
O3B_2 O 0.6056(2) -0.16533(18) 0.54336(18)
O4B_2 O 0.5880(2) -0.23778(17) 0.63995(19)
O5A O 0.3865(2) -0.21707(19) 0.39939(19)
O6A O 0.5140(2) -0.29546(19) 0.44478(19)
C25 C -0.2618(5) 0.1419(4) -0.0611(4)
H22 H -0.2794 0.1870 -0.0913
H23 H -0.3298 0.1163 -0.0706
C26 C -0.1912(5) 0.1007(4) -0.0988(4)
H24 H -0.2229 0.1010 -0.1613
H25 H -0.1196 0.1229 -0.0836
C27 C -0.1788(6) 0.0268(4) -0.0677(5)
H26 H -0.2501 0.0040 -0.0854
H27 H -0.1506 0.0267 -0.0051
C28 C -0.1030(8) -0.0150(5) -0.1020(6)
H28 H -0.0972 -0.0628 -0.0803
H29 H -0.0318 0.0068 -0.0837
H30 H -0.1313 -0.0158 -0.1641
O7 O -0.2144(3) 0.1551(3) 0.0273(3)
H31 H -0.146(7) 0.167(5) 0.039(5)
C29 C 0.3440(5) 0.1811(3) 0.6527(3)
H32 H 0.3202 0.2288 0.6325
H33 H 0.4235 0.1805 0.6733
C30 C 0.3027(4) 0.1622(3) 0.7240(3)
H34 H 0.3294 0.1153 0.7454
H35 H 0.2233 0.1602 0.7021
C31 C 0.3377(6) 0.2144(4) 0.7971(4)
H36 H 0.3258 0.2622 0.7735
H37 H 0.2917 0.2083 0.8331
C32 C 0.4530(7) 0.2074(5) 0.8513(4)
H38 H 0.4698 0.2423 0.8966
H39 H 0.4994 0.2146 0.8165
H40 H 0.4653 0.1606 0.8762
O8 O 0.3049(3) 0.1330(2) 0.5852(2)
H41 H 0.3194 0.1475 0.5426
C33 C -0.4674(4) 0.0322(3) 0.1963(4)
H42 H -0.3979 0.0173 0.2371
H43 H -0.4928 -0.0050 0.1533
C34 C -0.5470(4) 0.0420(3) 0.2417(3)
H44 H -0.6147 0.0602 0.2014
H45 H -0.5192 0.0771 0.2870
C35 C -0.5707(5) -0.0253(4) 0.2808(4)
H46 H -0.5956 -0.0611 0.2360
H47 H -0.5035 -0.0425 0.3229
C36 C -0.6546(6) -0.0159(5) 0.3235(4)
H48 H -0.6670 -0.0604 0.3475
H49 H -0.7217 0.0002 0.2819
H50 H -0.6297 0.0187 0.3688
O9 O -0.4524(3) 0.0949(2) 0.1558(3)
H51 H -0.3908 0.0950 0.1511
O10 O -0.2524(3) 0.0809(3) 0.1498(3)
H52 H -0.239(6) 0.102(4) 0.113(4)
H53 H -0.206(5) 0.072(5) 0.193(4)
loop_
_geom_bond_atom_site_label_1
_geom_bond_atom_site_label_2
_geom_bond_site_symmetry_1
_geom_bond_site_symmetry_2
C1 C2 1_555 1_555
C2 C3 1_555 1_555
C3 H1 1_555 1_555
C4 C3 1_555 1_555
C5 C4 1_555 1_555
C6 C4 1_555 1_555
H2 C6 1_555 1_555
C7 C6 1_555 1_555
C8 C7 1_555 1_555
C9 C2 1_555 1_555
H3 C9 1_555 1_555
C10 H4 1_555 1_555
C11 C10 1_555 1_555
H5 C11 1_555 1_555
C12 C11 1_555 1_555
C13 C12 1_555 1_555
H6 C13 1_555 1_555
C14 C13 1_555 1_555
H7 C14 1_555 1_555
C15 H8 1_555 1_555
C16 C15 1_555 1_555
H9 C16 1_555 1_555
C17 C16 1_555 1_555
C18 C17 1_555 1_555
H10 C18 1_555 1_555
C19 C18 1_555 1_555
H11 C19 1_555 1_555
C20 H12 1_555 1_555
C21 C20 1_555 1_555
H13 C21 1_555 1_555
C22 C21 1_555 1_555
C23 C22 1_555 1_555
H14 C23 1_555 1_555
C24 C23 1_555 1_555
H15 C24 1_555 1_555
N1 C10 1_555 1_555
N2 C12 1_555 1_555
H16 N2 1_555 1_555
H17 N2 1_555 1_555
N3 C15 1_555 1_555
N4 C17 1_555 1_555
H18 N4 1_555 1_555
H19 N4 1_555 1_555
N5 C20 1_555 1_555
N6 C22 1_555 1_555
H20 N6 1_555 1_555
H21 N6 1_555 1_555
O1 C1 1_555 1_555
O2 C1 1_555 1_555
O3 C5 1_555 1_555
O4 C5 1_555 1_555
O5 C8 1_555 1_555
O6 C8 1_555 1_555
Ni1 N3 1_555 1_555
Ni2 N1 1_555 1_555
C25 H22 1_555 1_555
H23 C25 1_555 1_555
C26 C25 1_555 1_555
H24 C26 1_555 1_555
H25 C26 1_555 1_555
C27 C26 1_555 1_555
H26 C27 1_555 1_555
H27 C27 1_555 1_555
C28 C27 1_555 1_555
H28 C28 1_555 1_555
H29 C28 1_555 1_555
H30 C28 1_555 1_555
O7 C25 1_555 1_555
H31 O7 1_555 1_555
C29 H32 1_555 1_555
H33 C29 1_555 1_555
C30 C29 1_555 1_555
H34 C30 1_555 1_555
H35 C30 1_555 1_555
C31 C30 1_555 1_555
H36 C31 1_555 1_555
H37 C31 1_555 1_555
C32 C31 1_555 1_555
H38 C32 1_555 1_555
H39 C32 1_555 1_555
H40 C32 1_555 1_555
O8 C29 1_555 1_555
H41 O8 1_555 1_555
C33 H42 1_555 1_555
H43 C33 1_555 1_555
C34 C33 1_555 1_555
H44 C34 1_555 1_555
H45 C34 1_555 1_555
C35 C34 1_555 1_555
H46 C35 1_555 1_555
H47 C35 1_555 1_555
C36 C35 1_555 1_555
H48 C36 1_555 1_555
H49 C36 1_555 1_555
H50 C36 1_555 1_555
O9 C33 1_555 1_555
H51 O9 1_555 1_555
O10 H52 1_555 1_555
H53 O10 1_555 1_555
C10B H4B 1_555 1_555
C11B C10B 1_555 1_555
H5B C11B 1_555 1_555
C12B C11B 1_555 1_555
C13B C12B 1_555 1_555
H6B C13B 1_555 1_555
C14B C13B 1_555 1_555
H7B C14B 1_555 1_555
N1B Ni2 1_555 1_555
N2B C12B 1_555 1_555
H16B N2B 1_555 1_555
H17B N2B 1_555 1_555
C20B H12B 1_555 1_555
C21B C20B 1_555 1_555
H13B C21B 1_555 1_555
C22B C21B 1_555 1_555
C23B C22B 1_555 1_555
H14B C23B 1_555 1_555
C24B C23B 1_555 1_555
H15B C24B 1_555 1_555
N5B C20B 1_555 1_555
N6B Ni2 1_555 1_555
H20B N6B 1_555 1_555
H21B N6B 1_555 1_555
C1B C2B 1_555 1_555
C2B C3B 1_555 1_555
C3B H1B 1_555 1_555
C4B C3B 1_555 1_555
C5B C4B 1_555 1_555
C6B C4B 1_555 1_555
H2B C6B 1_555 1_555
C7B C6B 1_555 1_555
C8B C7B 1_555 1_555
C9B C2B 1_555 1_555
H3B C9B 1_555 1_555
O1B Ni2 1_555 1_555
O2B C1B 1_555 1_555
O3B C5B 1_555 1_555
O4B C5B 1_555 1_555
O5B C8B 1_555 1_555
O6B C8B 1_555 1_555
Ni1B N5B 1_555 1_555
C15B H8B 1_555 1_555
C16B C15B 1_555 1_555
H9B C16B 1_555 1_555
C17B C16B 1_555 1_555
C18B C17B 1_555 1_555
H10B C18B 1_555 1_555
C19B C18B 1_555 1_555
H11B C19B 1_555 1_555
N3B Ni1B 1_555 1_555
N4B C17B 1_555 1_555
H18B N4B 1_555 1_555
H19B N4B 1_555 1_555
Ni1_2 O3 1_555 1_555
Ni1C O5 1_555 1_555
O3_2 Ni1 1_555 1_555
O4_2 Ni1 1_555 1_555
O5C Ni1 1_555 1_555
O6C Ni1 1_555 1_555
Ni1B_2 O3B 1_555 1_555
Ni1A O5B 1_555 1_555
O3B_2 Ni1B 1_555 1_555
O4B_2 Ni1B 1_555 1_555
O5A Ni1B 1_555 1_555
O6A Ni1B 1_555 1_555
C7 C9 1_555 1_555
C14 N1 1_555 1_555
C19 N3 1_555 1_555
C24 N5 1_555 1_555
N5 Ni1 1_555 1_555
N6 Ni2 1_555 1_555
O1 Ni2 1_555 1_555
O4 Ni1_2 1_555 1_555
O6 Ni1C 1_555 1_555
C10B N1B 1_555 1_555
C14B N1B 1_555 1_555
C22B N6B 1_555 1_555
C24B N5B 1_555 1_555
C1B O1B 1_555 1_555
C7B C9B 1_555 1_555
O4B Ni1B_2 1_555 1_555
O6B Ni1A 1_555 1_555
C15B N3B 1_555 1_555
C19B N3B 1_555 1_555

#END
