
#######################################################################
#
#                 Cambridge Crystallographic Data Centre
#                                CCDC 
#
#######################################################################
#
# If this CIF has been generated from an entry in the Cambridge 
# Structural Database, then it will include bibliographic, chemical, 
# crystal, experimental, refinement or atomic coordinate data resulting 
# from the CCDC's data processing and validation procedures.
#
#######################################################################

data_PIVWAT
_chemical_formula_moiety         'C54 H46 Ag5 N15 O3 1-'
_symmetry_cell_setting           rhombohedral
_symmetry_space_group_name_H-M   'R -3'
_symmetry_Int_Tables_number      148
_space_group_name_Hall           '-R 3'
loop_
_symmetry_equiv_pos_site_id
_symmetry_equiv_pos_as_xyz
1 x,y,z
2 -y,x-y,z
3 -x+y,-x,z
4 1/3+x,2/3+y,2/3+z
5 1/3-y,2/3+x-y,2/3+z
6 1/3-x+y,2/3-x,2/3+z
7 2/3+x,1/3+y,1/3+z
8 2/3-y,1/3+x-y,1/3+z
9 2/3-x+y,1/3-x,1/3+z
10 -x,-y,-z
11 y,-x+y,-z
12 x-y,x,-z
13 2/3-x,1/3-y,1/3-z
14 2/3+y,1/3-x+y,1/3-z
15 2/3+x-y,1/3+x,1/3-z
16 1/3-x,2/3-y,2/3-z
17 1/3+y,2/3-x+y,2/3-z
18 1/3+x-y,2/3+x,2/3-z
_cell_length_a                   32.9201(15)
_cell_length_b                   32.9201(15)
_cell_length_c                   9.9920(9)
_cell_angle_alpha                90
_cell_angle_beta                 90
_cell_angle_gamma                120
_cell_volume                     9377.89
loop_
_atom_site_label
_atom_site_type_symbol
_atom_site_fract_x
_atom_site_fract_y
_atom_site_fract_z
Ag1 Ag 0.239287(16) 0.088102(15) 0.91290(5)
N2 N 0.26872(17) 0.04872(15) 1.0128(5)
H1 H 0.2518 0.0374 1.0918
N3 N 0.2066(2) 0.1039(3) 0.7381(7)
H2 H 0.2077 0.1318 0.7609
C1 C 0.32638(18) 0.12427(19) 1.1142(6)
C2 C 0.3179(2) 0.1278(2) 1.2479(6)
H3 H 0.3072 0.1012 1.3047
C3 C 0.34172(19) 0.1635(2) 1.0338(6)
H4 H 0.3475 0.1615 0.9415
C4 C 0.3184(2) 0.0786(2) 1.0546(7)
H5 H 0.3391 0.0853 0.9761
H6 H 0.3265 0.0616 1.1215
C5 C 0.2631(2) 0.0067(2) 0.9404(7)
H7 H 0.2721 -0.0115 1.0005
H8 H 0.2845 0.0169 0.8623
C6 C 0.2135(2) -0.0242(2) 0.8937(6)
C7 C 0.1800(2) -0.0587(2) 0.9750(6)
H9 H 0.1893 -0.0624 1.0621
N4 N 0.22273(18) 0.13536(17) 1.0609(5)
C8 C 0.2043(2) 0.1223(2) 1.1821(7)
H10 H 0.1923 0.0906 1.2081
C9 C 0.2020(3) 0.1529(2) 1.2720(7)
H11 H 0.1892 0.1423 1.3587
C10 C 0.1991(3) -0.0194(2) 0.7649(7)
H12 H 0.2205 0.0037 0.7047
C11 C 0.2850(3) 0.1420(3) 0.6424(7)
C12 C 0.3085(3) 0.1900(3) 0.6667(7)
H13 H 0.2914 0.2062 0.6678
C13 C 0.3098(3) 0.1183(3) 0.6436(7)
H14 H 0.2941 0.0854 0.6290
C14 C 0.2327(3) 0.1142(4) 0.6156(8)
H15 H 0.2238 0.1324 0.5559
H16 H 0.2250 0.0846 0.5696
C15 C 0.1567(3) 0.0699(4) 0.7240(10)
H17 H 0.1527 0.0388 0.7089
H18 H 0.1441 0.0771 0.6475
C16 C 0.1305(5) 0.0678(6) 0.8403(19)
C17 C 0.1116(7) 0.0955(8) 0.861(2)
H19 H 0.1157 0.1199 0.7952
N5 N 0.0855(7) 0.0893(9) 0.975(3)
C18 C 0.0804(7) 0.0563(9) 1.058(3)
H20 H 0.0606 0.0516 1.1361
C19 C 0.0734(7) 0.1003(8) 0.955(2)
H21 H 0.0926 0.0967 0.8867
C20 C 0.1238(5) 0.0324(5) 0.9371(19)
H22 H 0.1373 0.0126 0.9203
Ag1L Ag 0.427380(16) 0.245231(15) 0.42043(5)
Ag1J Ag 0.088102(15) -0.151185(22) 1.08710(5)
Ag1L_2 Ag 0.427380(16) 0.245231(15) 1.42043(5)
Ag1G Ag 0.578565(15) 0.484518(22) 1.24623(5)
N2L N 0.39795(17) 0.28461(15) 1.3205(5)
H1L H 0.4149 0.2959 1.2415
N3L N 0.4601(2) 0.2294(3) 0.5952(7)
N3L_2 N 0.4601(2) 0.2294(3) 1.5952(7)
H2L H 0.4590 0.2015 0.5724
C1L C 0.34029(18) 0.20906(19) 1.2191(6)
C2L C 0.3488(2) 0.2055(2) 1.0854(6)
H3L H 0.3595 0.2321 1.0286
C3L C 0.32495(19) 0.1698(2) 1.2995(6)
H4L H 0.3192 0.1718 1.3918
C4L C 0.3483(2) 0.2547(2) 1.2787(7)
H5L H 0.3276 0.2480 1.3572
H6L H 0.3402 0.2717 1.2118
C5L C 0.4036(2) 0.3266(2) 1.3929(7)
H7L H 0.3946 0.3448 1.3328
H8L H 0.3822 0.3164 1.4710
C6L C 0.4532(2) 0.3575(2) 1.4396(6)
C7K C 0.2387(3) 0.1800(2) 1.0250(6)
C7L C 0.4867(2) 0.3920(2) 1.3583(6)
H9L H 0.4774 0.3957 1.2712
N4J N 0.13536(17) -0.08737(25) 0.9391(5)
N4G N 0.53131(17) 0.42070(25) 1.3942(5)
N4L N 0.44394(18) 0.19797(17) 1.2724(5)
C8J C 0.1223(2) -0.0820(3) 0.8179(7)
C8G C 0.5444(2) 0.4153(3) 1.5154(7)
H10J H 0.0906 -0.1017 0.7919
C9J C 0.1529(2) -0.0491(4) 0.7280(7)
C9G C 0.5138(2) 0.3824(4) 1.6053(7)
H11J H 0.1423 -0.0469 0.6413
H11G H 0.5244 0.3802 1.6920
C10K C 0.2185(4) 0.1991(3) 1.2351(7)
C10L C 0.4676(3) 0.3527(2) 1.5684(7)
H12L H 0.4462 0.3296 1.6286
C11L C 0.3817(3) 0.1913(3) 0.6909(7)
C12L C 0.3582(3) 0.1433(3) 0.6666(7)
H13L H 0.3753 0.1271 0.6655
C13L C 0.3569(3) 0.2150(3) 0.6897(7)
H14L H 0.3726 0.2479 0.7043
C14L C 0.4340(3) 0.2191(4) 0.7177(8)
H15L H 0.4429 0.2009 0.7774
H16L H 0.4417 0.2487 0.7637
C15L C 0.5100(3) 0.2634(4) 0.6093(10)
H17L H 0.5140 0.2945 0.6244
H18L H 0.5226 0.2562 0.6858
C16L C 0.5362(5) 0.2655(6) 0.4930(19)
C17L C 0.5551(7) 0.2378(8) 0.472(2)
C17G C 0.5712(8) 0.3494(11) 0.194(2)
H19L H 0.5510 0.2134 0.5381
N5J N 0.0893(9) 0.0038(11) 1.025(3)
N5G N 0.5774(9) 0.3295(11) 0.308(3)
N5L N 0.5812(7) 0.2440(9) 0.358(3)
N5N N 0.6629(11) 0.4188(7) 0.358(3)
C18K C 0.0241(11) 0.0804(7) 0.942(3)
C18J C 0.0563(9) -0.0241(11) 0.942(3)
C18G C 0.6104(9) 0.3574(11) 0.391(3)
C18H C 0.6426(11) 0.2529(7) 0.391(3)
C18L C 0.5863(7) 0.2770(9) 0.275(3)
H20G H 0.6151 0.3423 0.4694
C19J C 0.1003(8) 0.0269(11) 1.045(2)
C19G C 0.5664(8) 0.3064(11) 0.288(2)
C19L C 0.5933(7) 0.2330(8) 0.378(2)
C19N C 0.6398(11) 0.4067(7) 0.378(2)
H21L H 0.5741 0.2366 0.4466
H21G H 0.5700 0.3292 0.2200
C20K C 0.0914(7) 0.1238(5) 1.0629(19)
C20L C 0.5429(5) 0.3009(5) 0.3962(19)
C20H C 0.5753(7) 0.2095(5) 0.2704(19)
H22L H 0.5294 0.3207 0.4130
N1 N 0.2127(7) 0.2232(6) 0.6567(13)
O1 O 0.1916(7) 0.1966(6) 0.7487(13)
O2 O 0.2044(7) 0.2116(7) 0.5424(12)
O3 O 0.2487(6) 0.2595(6) 0.6856(17)
loop_
_geom_bond_atom_site_label_1
_geom_bond_atom_site_label_2
_geom_bond_site_symmetry_1
_geom_bond_site_symmetry_2
N1 O1 1_555 1_555
O2 N1 1_555 1_555
O3 N1 1_555 1_555
Ag1 N2 1_555 1_555
N2 H1 1_555 1_555
N3 Ag1 1_555 1_555
H2 N3 1_555 1_555
C1 C2 1_555 1_555
C2 H3 1_555 1_555
C3 C1 1_555 1_555
H4 C3 1_555 1_555
C4 N2 1_555 1_555
H5 C4 1_555 1_555
H6 C4 1_555 1_555
C5 N2 1_555 1_555
H7 C5 1_555 1_555
H8 C5 1_555 1_555
C6 C5 1_555 1_555
C7 C6 1_555 1_555
H9 C7 1_555 1_555
N4 Ag1 1_555 1_555
C8 N4 1_555 1_555
H10 C8 1_555 1_555
C9 C8 1_555 1_555
H11 C9 1_555 1_555
C10 C6 1_555 1_555
H12 C10 1_555 1_555
C11 C12 1_555 1_555
C12 H13 1_555 1_555
C13 C11 1_555 1_555
H14 C13 1_555 1_555
C14 N3 1_555 1_555
H15 C14 1_555 1_555
H16 C14 1_555 1_555
C15 N3 1_555 1_555
H17 C15 1_555 1_555
H18 C15 1_555 1_555
C16 C15 1_555 1_555
C17 C16 1_555 1_555
H19 C17 1_555 1_555
N5 C17 1_555 1_555
C18 N5 1_555 1_555
H20 C18 1_555 1_555
C19 C17 1_555 1_555
H21 C17 1_555 1_555
C20 C16 1_555 1_555
H22 C20 1_555 1_555
Ag1L N3L 1_555 1_555
Ag1J N4J 1_555 1_555
Ag1L_2 N2L 1_555 1_555
Ag1G N4G 1_555 1_555
N2L H1L 1_555 1_555
N3L H2L 1_555 1_555
N3L_2 Ag1L_2 1_555 1_555
C1L C2L 1_555 1_555
C2L C3 1_555 1_555
H3L C2L 1_555 1_555
C3L C2 1_555 1_555
H4L C3L 1_555 1_555
C4L N2L 1_555 1_555
H5L C4L 1_555 1_555
H6L C4L 1_555 1_555
C5L N2L 1_555 1_555
H7L C5L 1_555 1_555
H8L C5L 1_555 1_555
C6L C5L 1_555 1_555
C7K N4 1_555 1_555
C7L C6L 1_555 1_555
H9L C7L 1_555 1_555
N4J C7 1_555 1_555
N4G C7L 1_555 1_555
N4L Ag1L_2 1_555 1_555
C8J N4J 1_555 1_555
C8G N4G 1_555 1_555
H10J C8J 1_555 1_555
C9J C10 1_555 1_555
C9G C8G 1_555 1_555
H11J C9J 1_555 1_555
H11G C9G 1_555 1_555
C10K C9 1_555 1_555
C10L C6L 1_555 1_555
H12L C10L 1_555 1_555
C11L C12L 1_555 1_555
C12L C13 1_555 1_555
H13L C12L 1_555 1_555
C13L C12 1_555 1_555
H14L C13L 1_555 1_555
C14L N3L 1_555 1_555
H15L C14L 1_555 1_555
H16L C14L 1_555 1_555
C15L N3L 1_555 1_555
H17L C15L 1_555 1_555
H18L C15L 1_555 1_555
C16L C15L 1_555 1_555
C17L C16L 1_555 1_555
C17G N5G 1_555 1_555
H19L C17L 1_555 1_555
N5J C18 1_555 1_555
N5G C18G 1_555 1_555
N5L C17L 1_555 1_555
N5N C18G 1_555 1_555
C18K N5 1_555 1_555
C18J C20 1_555 1_555
C18G H20G 1_555 1_555
C18H N5L 1_555 1_555
C18L N5G 1_555 1_555
C19J C18 1_555 1_555
C19G N5G 1_555 1_555
C19L C17L 1_555 1_555
C19N C18G 1_555 1_555
H21L C17L 1_555 1_555
H21G N5G 1_555 1_555
C20K N5 1_555 1_555
C20L C16L 1_555 1_555
C20H N5L 1_555 1_555
H22L C20L 1_555 1_555
C1 C4 1_555 1_555
C11 C14 1_555 1_555
N5 C19 1_555 1_555
N5 H21 1_555 1_555
C18 C19 1_555 1_555
C18 C20K 1_555 1_555
C19 H21 1_555 1_555
C19 C18K 1_555 1_555
C19 C20K 1_555 1_555
C20 N5J 1_555 1_555
C20 C19J 1_555 1_555
C1L C3L 1_555 1_555
C1L C4L 1_555 1_555
C8J C9J 1_555 1_555
C9G C10L 1_555 1_555
C11L C13L 1_555 1_555
C11L C14L 1_555 1_555
N5J C18J 1_555 1_555
N5J C19J 1_555 1_555
N5G C20L 1_555 1_555
N5L C18L 1_555 1_555
N5L C19L 1_555 1_555
N5L H21L 1_555 1_555
C18J C19J 1_555 1_555
C18G C19G 1_555 1_555
C18G C20L 1_555 1_555
C18H C19L 1_555 1_555
C18L C19L 1_555 1_555
C19G C20L 1_555 1_555
C19L H21L 1_555 1_555
C19L C20H 1_555 1_555

#END
