
#######################################################################
#
#                 Cambridge Crystallographic Data Centre
#                                CCDC 
#
#######################################################################
#
# If this CIF has been generated from an entry in the Cambridge 
# Structural Database, then it will include bibliographic, chemical, 
# crystal, experimental, refinement or atomic coordinate data resulting 
# from the CCDC's data processing and validation procedures.
#
#######################################################################

data_OTARUX
_chemical_formula_moiety         '(C16 H4 Ag1 Cl4 N8)n'
_symmetry_cell_setting           tetragonal
_symmetry_space_group_name_H-M   'I 41/a'
_symmetry_Int_Tables_number      88
_space_group_name_Hall           '-I 4ad'
loop_
_symmetry_equiv_pos_site_id
_symmetry_equiv_pos_as_xyz
1 x,y,z
2 1/2+x,1/2+y,1/2+z
3 3/4-y,1/4+x,1/4+z
4 1/4-y,3/4+x,3/4+z
5 1/2-x,-y,1/2+z
6 -x,1/2-y,z
7 3/4+y,3/4-x,3/4+z
8 1/4+y,1/4-x,1/4+z
9 -x,-y,-z
10 1/2-x,1/2-y,1/2-z
11 1/4+y,3/4-x,3/4-z
12 3/4+y,1/4-x,1/4-z
13 1/2+x,y,1/2-z
14 x,1/2+y,-z
15 1/4-y,1/4+x,1/4-z
16 3/4-y,3/4+x,3/4-z
_cell_length_a                   22.3848(17)
_cell_length_b                   22.3848(17)
_cell_length_c                   3.7128(3)
_cell_angle_alpha                90
_cell_angle_beta                 90
_cell_angle_gamma                90
_cell_volume                     1860.41
loop_
_atom_site_label
_atom_site_type_symbol
_atom_site_fract_x
_atom_site_fract_y
_atom_site_fract_z
_atom_site_U_iso_or_equiv
_atom_site_thermal_displace_type
Ag1 Ag 0.5000 0.2500 -0.1250 0.0237 Uani
N1 N 0.42198(17) 0.19878(17) 0.1384(13) 0.0219 Uani
C1 C 0.37400(19) 0.1898(2) 0.2433(14) 0.0190 Uani
N2 N 0.31966(16) 0.17330(16) 0.3466(11) 0.0179 Uani
C2 C 0.2875(2) 0.21110(19) 0.5458(13) 0.0170 Uani
C3 C 0.22792(19) 0.19311(19) 0.6553(13) 0.0162 Uani
C4 C 0.30754(19) 0.2702(2) 0.6505(13) 0.0177 Uani
Cl1 Cl 0.20341(5) 0.12245(5) 0.5384(3) 0.0218 Uani
H1 H 0.3457 0.2830 0.5841 0.0212 Uiso
Ag1C Ag 0.0000 0.2500 1.6250 0.0237 Uani
Ag1B Ag 0.5000 0.7500 -1.8750 0.0237 Uani
N1I N 0.07802(17) 0.30122(17) 1.3616(13) 0.0219 Uani
N1J N 0.44878(17) 0.32802(17) -0.3884(13) 0.0219 Uani
N1B N 0.55122(17) 0.67198(17) -1.6116(13) 0.0219 Uani
N1E N 0.57802(17) 0.30122(17) 0.1384(13) 0.0219 Uani
N1O N 0.55122(17) 0.17198(17) -0.3884(13) 0.0219 Uani
C1I C 0.12600(19) 0.3102(2) 1.2567(14) 0.0190 Uani
C1J C 0.4398(2) 0.37600(19) -0.4933(14) 0.0190 Uani
C1B C 0.5602(2) 0.62400(19) -1.5067(14) 0.0190 Uani
N2I N 0.18034(16) 0.32670(16) 1.1534(11) 0.0179 Uani
N2J N 0.42330(16) 0.43034(16) -0.5966(11) 0.0179 Uani
N2B N 0.57670(16) 0.56966(16) -1.4034(11) 0.0179 Uani
C2I C 0.2125(2) 0.28890(19) 0.9542(13) 0.0170 Uani
C2J C 0.46110(19) 0.4625(2) -0.7958(13) 0.0170 Uani
C2B C 0.53890(19) 0.5375(2) -1.2042(13) 0.0170 Uani
C3I C 0.27208(19) 0.30689(19) 0.8447(13) 0.0162 Uani
C3J C 0.44311(19) 0.52208(19) -0.9053(13) 0.0162 Uani
C3B C 0.55689(19) 0.47792(19) -1.0947(13) 0.0162 Uani
C4I C 0.19246(19) 0.2298(2) 0.8495(13) 0.0177 Uani
C4J C 0.5202(2) 0.44246(19) -0.9005(13) 0.0177 Uani
C4B C 0.4798(2) 0.55754(19) -1.0995(13) 0.0177 Uani
Cl1I Cl 0.29659(5) 0.37755(5) 0.9616(3) 0.0218 Uani
Cl1J Cl 0.37245(5) 0.54659(5) -0.7884(3) 0.0218 Uani
Cl1B Cl 0.62755(5) 0.45341(5) -1.2116(3) 0.0218 Uani
H1I H 0.1543 0.2170 0.9159 0.0212 Uiso
H1J H 0.5330 0.4043 -0.8341 0.0212 Uiso
H1B H 0.4670 0.5957 -1.1659 0.0212 Uiso
loop_
_atom_site_aniso_label
_atom_site_aniso_U_11
_atom_site_aniso_U_22
_atom_site_aniso_U_33
_atom_site_aniso_U_23
_atom_site_aniso_U_13
_atom_site_aniso_U_12
Ag1 0.02 0.02 0.0312 0 0 0
N1 0.0198 0.019 0.027 -0.0006 -0.002 0.0021
C1 0.021 0.0139 0.022 0.0002 -0.002 0.003
N2 0.0174 0.0172 0.019 -0.0002 0.0015 0.0025
C2 0.015 0.021 0.015 0.0006 -0.0011 -0.0003
C3 0.019(2) 0.0155(19) 0.014(2) -0.0005(18) -0.0043(17) -0.0013(15)
C4 0.0151 0.019 0.019 0.001 -0.0009 -0.002
Cl1 0.0232(6) 0.0183(5) 0.0240(6) -0.0033(5) 0.0033(5) -0.0044(4)
Ag1C 0.02 0.02 0.0312 0 0 0
Ag1B 0.02 0.02 0.0312 0 0 0
N1I 0.0198 0.019 0.027 -0.0006 -0.002 0.0021
N1J 0.019 0.0198 0.027 -0.002 0.0006 -0.0021
N1B 0.019 0.0198 0.027 -0.002 0.0006 -0.0021
N1E 0.0198 0.019 0.027 0.0006 0.002 0.0021
N1O 0.019 0.0198 0.027 0.002 -0.0006 -0.0021
C1I 0.021 0.0139 0.022 0.0002 -0.002 0.003
C1J 0.0139 0.021 0.022 -0.002 -0.0002 -0.003
C1B 0.0139 0.021 0.022 -0.002 -0.0002 -0.003
N2I 0.0174 0.0172 0.019 -0.0002 0.0015 0.0025
N2J 0.0172 0.0174 0.019 0.0015 0.0002 -0.0025
N2B 0.0172 0.0174 0.019 0.0015 0.0002 -0.0025
C2I 0.015 0.021 0.015 0.0006 -0.0011 -0.0003
C2J 0.021 0.015 0.015 -0.0011 -0.0006 0.0003
C2B 0.021 0.015 0.015 -0.0011 -0.0006 0.0003
C3I 0.019 0.0155 0.014 -0.0005 -0.0043 -0.0013
C3J 0.0155 0.019 0.014 -0.0043 0.0005 0.0013
C3B 0.0155 0.019 0.014 -0.0043 0.0005 0.0013
C4I 0.0151(19) 0.019(2) 0.019(2) 0.001(2) -0.0009(18) -0.0020(16)
C4J 0.019 0.0151 0.019 -0.0009 -0.001 0.002
C4B 0.019 0.0151 0.019 -0.0009 -0.001 0.002
Cl1I 0.0232 0.0183 0.024 -0.0033 0.0033 -0.0044
Cl1J 0.0183 0.0232 0.024 0.0033 0.0033 0.0044
Cl1B 0.0183 0.0232 0.024 0.0033 0.0033 0.0044
loop_
_geom_bond_atom_site_label_1
_geom_bond_atom_site_label_2
_geom_bond_site_symmetry_1
_geom_bond_site_symmetry_2
Ag1 N1 1_555 1_555
N1 C1 1_555 1_555
C1 N2 1_555 1_555
N2 C2 1_555 1_555
C2 C3 1_555 1_555
C3 Cl1 1_555 1_555
C4 C2 1_555 1_555
H1 C4 1_555 1_555
Ag1C N1I 1_555 1_555
Ag1B N1B 1_555 1_555
N1I C1I 1_555 1_555
N1J Ag1 1_555 1_555
N1B C1B 1_555 1_555
N1E Ag1 1_555 1_555
N1O Ag1 1_555 1_555
C1I N2I 1_555 1_555
C1J N1J 1_555 1_555
C1B N2B 1_555 1_555
N2I C2I 1_555 1_555
N2J C1J 1_555 1_555
N2B C2B 1_555 1_555
C2I C3I 1_555 1_555
C2J N2J 1_555 1_555
C2B C3B 1_555 1_555
C3I C4 1_555 1_555
C3J C2J 1_555 1_555
C3B C4J 1_555 1_555
C4I C3 1_555 1_555
C4J C2J 1_555 1_555
C4B C2B 1_555 1_555
Cl1I C3I 1_555 1_555
Cl1J C3J 1_555 1_555
Cl1B C3B 1_555 1_555
H1I C4I 1_555 1_555
H1J C4J 1_555 1_555
H1B C4B 1_555 1_555
C2I C4I 1_555 1_555
C3J C4B 1_555 1_555

#END
