
#######################################################################
#
#                 Cambridge Crystallographic Data Centre
#                                CCDC 
#
#######################################################################
#
# If this CIF has been generated from an entry in the Cambridge 
# Structural Database, then it will include bibliographic, chemical, 
# crystal, experimental, refinement or atomic coordinate data resulting 
# from the CCDC's data processing and validation procedures.
#
#######################################################################

data_OTARUX01
_chemical_formula_moiety         '(C16 H4 Ag1 Cl4 N8)n'
_symmetry_cell_setting           tetragonal
_symmetry_space_group_name_H-M   'I 41/a'
_symmetry_Int_Tables_number      88
_space_group_name_Hall           '-I 4ad'
loop_
_symmetry_equiv_pos_site_id
_symmetry_equiv_pos_as_xyz
1 x,y,z
2 1/2+x,1/2+y,1/2+z
3 3/4-y,1/4+x,1/4+z
4 1/4-y,3/4+x,3/4+z
5 1/2-x,-y,1/2+z
6 -x,1/2-y,z
7 3/4+y,3/4-x,3/4+z
8 1/4+y,1/4-x,1/4+z
9 -x,-y,-z
10 1/2-x,1/2-y,1/2-z
11 1/4+y,3/4-x,3/4-z
12 3/4+y,1/4-x,1/4-z
13 1/2+x,y,1/2-z
14 x,1/2+y,-z
15 1/4-y,1/4+x,1/4-z
16 3/4-y,3/4+x,3/4-z
_cell_length_a                   22.3770(11)
_cell_length_b                   22.3770(11)
_cell_length_c                   3.7289(2)
_cell_angle_alpha                90
_cell_angle_beta                 90
_cell_angle_gamma                90
_cell_volume                     1867.17
loop_
_atom_site_label
_atom_site_type_symbol
_atom_site_fract_x
_atom_site_fract_y
_atom_site_fract_z
_atom_site_U_iso_or_equiv
_atom_site_thermal_displace_type
Ag1 Ag 0.5000 0.2500 -0.6250 0.0501 Uani
N1 N 0.42154(9) 0.30011(9) -0.3615(9) 0.0407 Uani
C1 C 0.37466(10) 0.30933(12) -0.2535(8) 0.0302 Uani
N2 N 0.32047(9) 0.32566(9) -0.1462(8) 0.0319 Uani
C2 C 0.28788(10) 0.28823(11) 0.0491(8) 0.0265 Uani
C3 C 0.30655(10) 0.22922(10) 0.1496(9) 0.0281 Uani
C4 C 0.22887(10) 0.30735(10) 0.1620(9) 0.0279 Uani
Cl1 Cl 0.20551(3) 0.37804(3) 0.0498(2) 0.0459 Uani
H1 H 0.3445 0.2164 0.0869 0.0363 Uiso
Ag1C Ag -0.0000 0.2500 1.1250 0.0501 Uani
Ag1B Ag 0.5000 0.7500 -2.3750 0.0501 Uani
N1I N 0.07846(9) 0.19989(9) 0.8615(9) 0.0407 Uani
N1J N 0.55011(9) 0.32846(9) -0.8885(9) 0.0407 Uani
N1B N 0.44989(9) 0.67154(9) -2.1115(9) 0.0407 Uani
N1E N 0.57846(9) 0.19989(9) -0.3615(9) 0.0407 Uani
N1O N 0.44989(9) 0.17154(9) -0.8885(9) 0.0407 Uani
C1I C 0.12534(10) 0.19067(12) 0.7535(8) 0.0302 Uani
C1J C 0.55933(12) 0.37534(10) -0.9965(8) 0.0302 Uani
C1B C 0.44067(12) 0.62466(10) -2.0035(8) 0.0302 Uani
N2I N 0.17953(9) 0.17434(9) 0.6462(8) 0.0319 Uani
N2J N 0.57566(9) 0.42953(9) -1.1038(8) 0.0319 Uani
N2B N 0.42434(9) 0.57047(9) -1.8962(8) 0.0319 Uani
C2I C 0.21212(10) 0.21177(11) 0.4509(8) 0.0265 Uani
C2J C 0.53823(11) 0.46212(10) -1.2991(8) 0.0265 Uani
C2B C 0.46177(11) 0.53788(10) -1.7009(8) 0.0265 Uani
C3I C 0.19345(10) 0.27078(10) 0.3504(9) 0.0281 Uani
C3J C 0.47922(10) 0.44345(10) -1.3996(9) 0.0281 Uani
C3B C 0.52078(10) 0.55655(10) -1.6004(9) 0.0281 Uani
C4I C 0.27113(10) 0.19265(10) 0.3380(9) 0.0279 Uani
C4J C 0.55735(10) 0.52113(10) -1.4120(9) 0.0279 Uani
C4B C 0.44265(10) 0.47887(10) -1.5880(9) 0.0279 Uani
Cl1I Cl 0.29449(3) 0.12196(3) 0.4502(2) 0.0459 Uani
Cl1J Cl 0.62804(3) 0.54449(3) -1.2998(2) 0.0459 Uani
Cl1B Cl 0.37196(3) 0.45551(3) -1.7002(2) 0.0459 Uani
H1I H 0.1555 0.2836 0.4131 0.0363 Uiso
H1J H 0.4664 0.4055 -1.3369 0.0363 Uiso
H1B H 0.5336 0.5945 -1.6631 0.0363 Uiso
loop_
_atom_site_aniso_label
_atom_site_aniso_U_11
_atom_site_aniso_U_22
_atom_site_aniso_U_33
_atom_site_aniso_U_23
_atom_site_aniso_U_13
_atom_site_aniso_U_12
Ag1 0.0396 0.0396 0.071 0 0 0
N1 0.0326 0.041 0.0484 -0.0034 0.0087 -0.0027
C1 0.0345 0.0257 0.0305 0.0011 -0.0011 -0.0085
N2 0.0288 0.0316 0.0354 0.0009 0.0046 -0.0016
C2 0.0248 0.0298 0.0249 -0.0003 0.0002 -0.0004
C3 0.0227 0.0314 0.0301 -0.0030 -0.0005 0.0032
C4 0.0274 0.0258 0.0305 0.0001 -0.0013 0.0031
Cl1 0.0475 0.0347 0.0556 0.0096 0.011 0.0131
Ag1C 0.0396 0.0396 0.071 0 0 0
Ag1B 0.0396 0.0396 0.071 0 0 0
N1I 0.0326 0.041 0.0484 -0.0034 0.0087 -0.0027
N1J 0.041 0.0326 0.0484 0.0087 0.0034 0.0027
N1B 0.041 0.0326 0.0484 0.0087 0.0034 0.0027
N1E 0.0326 0.041 0.0484 0.0034 -0.0087 -0.0027
N1O 0.041 0.0326 0.0484 -0.0087 -0.0034 0.0027
C1I 0.0345 0.0257 0.0305 0.0011 -0.0011 -0.0085
C1J 0.0257 0.0345 0.0305 -0.0011 -0.0011 0.0085
C1B 0.0257 0.0345 0.0305 -0.0011 -0.0011 0.0085
N2I 0.0288 0.0316 0.0354 0.0009 0.0046 -0.0016
N2J 0.0316 0.0288 0.0354 0.0046 -0.0009 0.0016
N2B 0.0316 0.0288 0.0354 0.0046 -0.0009 0.0016
C2I 0.0248 0.0298 0.0249 -0.0003 0.0002 -0.0004
C2J 0.0298 0.0248 0.0249 0.0002 0.0003 0.0004
C2B 0.0298 0.0248 0.0249 0.0002 0.0003 0.0004
C3I 0.0227 0.0314 0.0301 -0.003 -0.0005 0.0032
C3J 0.0314 0.0227 0.0301 -0.0005 0.003 -0.0032
C3B 0.0314 0.0227 0.0301 -0.0005 0.003 -0.0032
C4I 0.0274 0.0258 0.0305 0.0001 -0.0013 0.0031
C4J 0.0258 0.0274 0.0305 -0.0013 -0.0001 -0.0031
C4B 0.0258 0.0274 0.0305 -0.0013 -0.0001 -0.0031
Cl1I 0.0475 0.0347 0.0556 0.0096 0.011 0.0131
Cl1J 0.0347 0.0475 0.0556 0.011 -0.0096 -0.0131
Cl1B 0.0347 0.0475 0.0556 0.011 -0.0096 -0.0131
loop_
_geom_bond_atom_site_label_1
_geom_bond_atom_site_label_2
_geom_bond_site_symmetry_1
_geom_bond_site_symmetry_2
Ag1 N1 1_555 1_555
N1 C1 1_555 1_555
C1 N2 1_555 1_555
N2 C2 1_555 1_555
C2 C3 1_555 1_555
C3 H1 1_555 1_555
C4 C2 1_555 1_555
Cl1 C4 1_555 1_555
Ag1C N1I 1_555 1_555
Ag1B N1B 1_555 1_555
N1I C1I 1_555 1_555
N1J Ag1 1_555 1_555
N1B C1B 1_555 1_555
N1E Ag1 1_555 1_555
N1O Ag1 1_555 1_555
C1I N2I 1_555 1_555
C1J N1J 1_555 1_555
C1B N2B 1_555 1_555
N2I C2I 1_555 1_555
N2J C1J 1_555 1_555
N2B C2B 1_555 1_555
C2I C3I 1_555 1_555
C2J N2J 1_555 1_555
C2B C3B 1_555 1_555
C3I C4 1_555 1_555
C3J C2J 1_555 1_555
C3B C4J 1_555 1_555
C4I C3 1_555 1_555
C4J C2J 1_555 1_555
C4B C2B 1_555 1_555
Cl1I C4I 1_555 1_555
Cl1J C4J 1_555 1_555
Cl1B C4B 1_555 1_555
H1I C3I 1_555 1_555
H1J C3J 1_555 1_555
H1B C3B 1_555 1_555
C2I C4I 1_555 1_555
C3J C4B 1_555 1_555

#END
