
#######################################################################
#
#                 Cambridge Crystallographic Data Centre
#                                CCDC 
#
#######################################################################
#
# If this CIF has been generated from an entry in the Cambridge 
# Structural Database, then it will include bibliographic, chemical, 
# crystal, experimental, refinement or atomic coordinate data resulting 
# from the CCDC's data processing and validation procedures.
#
#######################################################################

data_BUSPIP
_chemical_formula_moiety         'C45 H11 Al12 O47 W13'
_symmetry_cell_setting           cubic
_symmetry_space_group_name_H-M   'F d -3 m'
_symmetry_Int_Tables_number      227
_space_group_name_Hall           '-F 4vw 2vw 3'
loop_
_symmetry_equiv_pos_site_id
_symmetry_equiv_pos_as_xyz
1 x,y,z
2 x,1/4-y,1/4-z
3 3/4-x,1/4-y,1/2+z
4 3/4-x,y,3/4-z
5 -y,1/4+x,1/4+z
6 3/4+y,1/4+x,1/2-z
7 3/4+y,-x,3/4+z
8 -y,-x,-z
9 y,z,x
10 3/4-y,1/4-z,1/2+x
11 y,1/4-z,1/4-x
12 3/4-y,z,3/4-x
13 -z,1/4+y,1/4+x
14 -z,-y,-x
15 3/4+z,-y,3/4+x
16 3/4+z,1/4+y,1/2-x
17 z,x,y
18 1/4-z,1/2+x,3/4-y
19 1/4-z,1/4-x,y
20 z,3/4-x,3/4-y
21 -x,-z,-y
22 -x,3/4+z,3/4+y
23 1/4+x,1/2-z,3/4+y
24 3/4+x,1/4+z,1/2-y
25 x,1/2+y,1/2+z
26 x,3/4-y,3/4-z
27 3/4-x,3/4-y,z
28 3/4-x,1/2+y,1/4-z
29 -y,3/4+x,3/4+z
30 3/4+y,3/4+x,-z
31 3/4+y,1/2-x,1/4+z
32 -y,1/2-x,1/2-z
33 y,1/2+z,1/2+x
34 3/4-y,3/4-z,x
35 y,3/4-z,3/4-x
36 3/4-y,1/2+z,1/4-x
37 -z,3/4+y,3/4+x
38 -z,1/2-y,1/2-x
39 3/4+z,1/2-y,1/4+x
40 3/4+z,3/4+y,-x
41 z,1/2+x,1/2+y
42 1/4-z,x,1/4-y
43 1/4-z,3/4-x,1/2+y
44 z,1/4-x,1/4-y
45 -x,1/2-z,1/2-y
46 -x,1/4+z,1/4+y
47 1/4+x,-z,1/4+y
48 3/4+x,3/4+z,-y
49 1/2+x,y,1/2+z
50 1/2+x,1/4-y,3/4-z
51 1/4-x,1/4-y,z
52 1/4-x,y,1/4-z
53 1/2-y,1/4+x,3/4+z
54 1/4+y,1/4+x,-z
55 1/4+y,-x,1/4+z
56 1/2-y,-x,1/2-z
57 1/2+y,z,1/2+x
58 1/4-y,1/4-z,x
59 1/2+y,1/4-z,3/4-x
60 1/4-y,z,1/4-x
61 1/2-z,1/4+y,3/4+x
62 1/2-z,-y,1/2-x
63 1/4+z,-y,1/4+x
64 1/4+z,1/4+y,-x
65 1/2+z,x,1/2+y
66 3/4-z,1/2+x,1/4-y
67 3/4-z,1/4-x,1/2+y
68 1/2+z,3/4-x,1/4-y
69 1/2-x,-z,1/2-y
70 1/2-x,3/4+z,1/4+y
71 3/4+x,1/2-z,1/4+y
72 1/4+x,1/4+z,-y
73 1/2+x,1/2+y,z
74 1/2+x,3/4-y,1/4-z
75 1/4-x,3/4-y,1/2+z
76 1/4-x,1/2+y,3/4-z
77 1/2-y,3/4+x,1/4+z
78 1/4+y,3/4+x,1/2-z
79 1/4+y,1/2-x,3/4+z
80 1/2-y,1/2-x,-z
81 1/2+y,1/2+z,x
82 1/4-y,3/4-z,1/2+x
83 1/2+y,3/4-z,1/4-x
84 1/4-y,1/2+z,3/4-x
85 1/2-z,3/4+y,1/4+x
86 1/2-z,1/2-y,-x
87 1/4+z,1/2-y,3/4+x
88 1/4+z,3/4+y,1/2-x
89 1/2+z,1/2+x,y
90 3/4-z,x,3/4-y
91 3/4-z,3/4-x,y
92 1/2+z,1/4-x,3/4-y
93 1/2-x,1/2-z,-y
94 1/2-x,1/4+z,3/4+y
95 3/4+x,-z,3/4+y
96 1/4+x,3/4+z,1/2-y
97 -x,-y,-z
98 -x,3/4+y,3/4+z
99 1/4+x,3/4+y,1/2-z
100 1/4+x,-y,1/4+z
101 y,3/4-x,3/4-z
102 1/4-y,3/4-x,1/2+z
103 1/4-y,x,1/4-z
104 y,x,z
105 -y,-z,-x
106 1/4+y,3/4+z,1/2-x
107 -y,3/4+z,3/4+x
108 1/4+y,-z,1/4+x
109 z,3/4-y,3/4-x
110 z,y,x
111 1/4-z,y,1/4-x
112 1/4-z,3/4-y,1/2+x
113 -z,-x,-y
114 3/4+z,1/2-x,1/4+y
115 3/4+z,3/4+x,-y
116 -z,1/4+x,1/4+y
117 x,z,y
118 x,1/4-z,1/4-y
119 3/4-x,1/2+z,1/4-y
120 1/4-x,3/4-z,1/2+y
121 -x,1/2-y,1/2-z
122 -x,1/4+y,1/4+z
123 1/4+x,1/4+y,-z
124 1/4+x,1/2-y,3/4+z
125 y,1/4-x,1/4-z
126 1/4-y,1/4-x,z
127 1/4-y,1/2+x,3/4-z
128 y,1/2+x,1/2+z
129 -y,1/2-z,1/2-x
130 1/4+y,1/4+z,-x
131 -y,1/4+z,1/4+x
132 1/4+y,1/2-z,3/4+x
133 z,1/4-y,1/4-x
134 z,1/2+y,1/2+x
135 1/4-z,1/2+y,3/4-x
136 1/4-z,1/4-y,x
137 -z,1/2-x,1/2-y
138 3/4+z,-x,3/4+y
139 3/4+z,1/4+x,1/2-y
140 -z,3/4+x,3/4+y
141 x,1/2+z,1/2+y
142 x,3/4-z,3/4-y
143 3/4-x,z,3/4-y
144 1/4-x,1/4-z,y
145 1/2-x,-y,1/2-z
146 1/2-x,3/4+y,1/4+z
147 3/4+x,3/4+y,-z
148 3/4+x,-y,3/4+z
149 1/2+y,3/4-x,1/4-z
150 3/4-y,3/4-x,z
151 3/4-y,x,3/4-z
152 1/2+y,x,1/2+z
153 1/2-y,-z,1/2-x
154 3/4+y,3/4+z,-x
155 1/2-y,3/4+z,1/4+x
156 3/4+y,-z,3/4+x
157 1/2+z,3/4-y,1/4-x
158 1/2+z,y,1/2+x
159 3/4-z,y,3/4-x
160 3/4-z,3/4-y,x
161 1/2-z,-x,1/2-y
162 1/4+z,1/2-x,3/4+y
163 1/4+z,3/4+x,1/2-y
164 1/2-z,1/4+x,3/4+y
165 1/2+x,z,1/2+y
166 1/2+x,1/4-z,3/4-y
167 1/4-x,1/2+z,3/4-y
168 3/4-x,3/4-z,y
169 1/2-x,1/2-y,-z
170 1/2-x,1/4+y,3/4+z
171 3/4+x,1/4+y,1/2-z
172 3/4+x,1/2-y,1/4+z
173 1/2+y,1/4-x,3/4-z
174 3/4-y,1/4-x,1/2+z
175 3/4-y,1/2+x,1/4-z
176 1/2+y,1/2+x,z
177 1/2-y,1/2-z,-x
178 3/4+y,1/4+z,1/2-x
179 1/2-y,1/4+z,3/4+x
180 3/4+y,1/2-z,1/4+x
181 1/2+z,1/4-y,3/4-x
182 1/2+z,1/2+y,x
183 3/4-z,1/2+y,1/4-x
184 3/4-z,1/4-y,1/2+x
185 1/2-z,1/2-x,-y
186 1/4+z,-x,1/4+y
187 1/4+z,1/4+x,-y
188 1/2-z,3/4+x,1/4+y
189 1/2+x,1/2+z,y
190 1/2+x,3/4-z,1/4-y
191 1/4-x,z,1/4-y
192 3/4-x,1/4-z,1/2+y
_cell_length_a                   71.687(3)
_cell_length_b                   71.687(3)
_cell_length_c                   71.687(3)
_cell_angle_alpha                90
_cell_angle_beta                 90
_cell_angle_gamma                90
_cell_volume                     368401
loop_
_atom_site_label
_atom_site_type_symbol
_atom_site_fract_x
_atom_site_fract_y
_atom_site_fract_z
C1 C 0.4105(3) 0.5774(2) 0.9609(2)
C2 C 0.4165(2) 0.5785(2) 0.9402(2)
C3 C 0.4353(2) 0.5757(3) 0.9353(2)
H1 H 0.4443 0.5721 0.9443
C4 C 0.4027(2) 0.5849(2) 0.9272(2)
H2 H 0.3902 0.5872 0.9311
C5 C 0.4083(2) 0.5877(3) 0.9083(2)
C6 C 0.3944(2) 0.5958(3) 0.8944(2)
C7 C 0.4450(2) 0.60970(19) 0.9948(2)
C8 C 0.45895(18) 0.61998(19) 0.98259(19)
C9 C 0.45822(17) 0.63912(18) 0.98217(17)
H3 H 0.4499 0.6455 0.9903
C10 C 0.4708(3) 0.61040(19) 0.97076(19)
H4 H 0.4708 0.5971 0.9708
C11 C 0.4698(2) 0.64960(19) 0.96977(19)
C12 C 0.4675(2) 0.67020(17) 0.96747(17)
C13 C 0.41308(18) 0.6873(2) 0.9533(2)
C14 C 0.40051(17) 0.67028(18) 0.95173(19)
C15 C 0.3912(2) 0.6676(2) 0.93460(18)
H5 H 0.3914 0.6766 0.9249
C16 C 0.38140(19) 0.6503(2) 0.9329(2)
C17 C 0.38030(19) 0.6381(2) 0.9475(2)
H6 H 0.3730 0.6271 0.9464
C18 C 0.39007(18) 0.64158(18) 0.96419(17)
C19 C 0.4000(2) 0.65755(18) 0.96625(18)
H7 H 0.4066 0.6600 0.9775
C20 C 0.4789(3) 0.72080(19) 0.97891(19)
C21 C 0.4886(2) 0.73780(19) 0.98864(19)
C22 C 0.48090(17) 0.7455(2) 1.00450(17)
H8 H 0.4703 0.7399 1.0101
C23 C 0.42464(18) 0.73494(17) 0.9662(2)
C24 C 0.41986(18) 0.75388(18) 0.97185(18)
C25 C 0.42230(19) 0.7593(3) 0.99067(19)
H9 H 0.4255 0.7502 0.9998
C26 C 0.41468(17) 0.76778(18) 0.95912(18)
H10 H 0.4131 0.7645 0.9464
C27 C 0.41190(19) 0.7857(2) 0.96428(19)
C28 C 0.40860(19) 0.7999(2) 0.95008(19)
C29 C 0.4198(2) 0.87110(16) 0.91980(16)
C30 C 0.4127(2) 0.88930(17) 0.91270(17)
C31 C 0.42100(19) 0.8969(3) 0.89692(19)
H11 H 0.4319 0.8916 0.8916
C32 C 0.3925(2) 0.6278(2) 0.9791(2)
C33 C 0.3731(2) 0.6456(2) 0.91370(19)
Al1 Al 0.41073(5) 0.83927(5) 0.94212(7)
Al2 Al 0.38424(6) 0.58949(6) 0.98754(5)
Al3 Al 0.35946(6) 0.61563(8) 0.89054(6)
Al4 Al 0.44410(5) 0.70160(5) 0.97546(5)
Al5 Al 0.42441(6) 0.57559(6) 1.0000
Al6 Al 0.3750 0.65435(12) 0.8750
Al7 Al 0.43379(7) 0.71394(5) 0.93379(5)
O1 O 0.39970(12) 0.85030(12) 0.96454(18)
O2 O 0.42121(14) 0.82879(14) 0.92121(14)
O3 O 0.40756(13) 0.81663(13) 0.95528(12)
O4 O 0.41137(12) 0.86402(13) 0.93338(12)
O5 O 0.45135(15) 0.70574(11) 0.95135(11)
O6 O 0.43665(12) 0.69719(11) 1.00092(11)
O7 O 0.46445(12) 0.71485(12) 0.98647(11)
O8 O 0.42212(12) 0.68846(12) 0.96872(13)
O9 O 0.45598(11) 0.67786(12) 0.97770(11)
O10 O 0.43071(11) 0.72404(12) 0.97811(12)
O11 O 0.36047(14) 0.58518(14) 0.97441(12)
O12 O 0.40650(12) 0.59350(12) 1.0000
O13 O 0.38254(16) 0.61332(14) 0.97692(13)
O14 O 0.38026(14) 0.56526(14) 0.99570(15)
O15 O 0.39473(17) 0.58219(15) 0.96469(13)
O16 O 0.36942(14) 0.59719(15) 1.00763(13)
O17 O 0.3750 0.6290(3) 0.8750
O18 O 0.34302(13) 0.6018(2) 0.90698(13)
O19 O 0.36487(13) 0.62994(15) 0.91227(14)
O20 O 0.39992(13) 0.59911(14) 0.87808(15)
O21 O 0.42263(14) 0.57143(13) 0.97254(15)
O22 O 0.44487(13) 0.59218(14) 0.99401(14)
O23 O 0.44310(13) 0.55690(13) 1.0000
O24 O 0.37609(14) 0.65698(14) 0.90073(15)
O25 O 0.3750 0.6816(3) 0.8750
O26 O 0.41500(13) 0.69717(14) 0.93986(15)
O27 O 0.42364(13) 0.73195(14) 0.94880(13)
O28 O 0.41511(18) 0.72325(13) 0.91511(13)
W3 W 0.3657(6) 0.8657(6) 0.9662(10)
W5 W 0.4146(7) 0.7513(7) 0.8923(7)
W6 W 0.4042(8) 0.7041(8) 0.8817(8)
W7 W 0.3123(9) 0.5787(9) 0.8968(4)
W8 W 0.3260(4) 0.5922(9) 0.9864(9)
W9 W 0.3054(9) 0.6027(10) 0.9083(3)
C2AF C 0.4402(2) 0.5785(2) 0.9165(2)
C4AF C 0.4272(2) 0.5849(2) 0.9027(2)
C7G C 0.39030(19) 0.5550(2) 1.0052(2)
C8AF C 0.48259(19) 0.61998(19) 0.95895(18)
C9AF C 0.48217(17) 0.63912(18) 0.95822(17)
C21MC C 0.48864(19) 0.7614(2) 1.01220(19)
C22CC C 0.5045(2) 0.74550(17) 0.98090(17)
C24KE C 0.41986(18) 0.77815(18) 0.99612(18)
C26KE C 0.41468(17) 0.79088(18) 0.98222(18)
C30JC C 0.41270(17) 0.9127(2) 0.88930(17)
C31DB C 0.3969(3) 0.89692(19) 0.92100(19)
C32G C 0.3722(2) 0.6075(2) 1.0209(2)
Al1CC Al 0.41073(5) 0.80788(7) 0.91073(5)
Al1MC Al 0.44212(7) 0.83927(5) 0.91073(5)
Al2G Al 0.41051(6) 0.61576(6) 1.01246(5)
Al3C Al 0.39054(6) 0.61563(8) 0.85946(6)
Al4AF Al 0.47546(5) 0.70160(5) 0.94410(5)
O1Z O 0.35030(12) 0.89970(12) 0.96454(18)
O3KE O 0.40756(13) 0.79472(12) 0.93337(13)
O3UD O 0.43337(13) 0.84244(13) 0.95528(12)
O4AF O 0.43338(12) 0.86402(13) 0.91137(12)
O4UD O 0.38598(13) 0.83863(12) 0.93338(12)
O7AF O 0.48647(11) 0.71485(12) 0.96445(12)
O9AF O 0.47770(11) 0.67786(12) 0.95598(11)
O14G O 0.43474(14) 0.61974(14) 1.00430(15)
O16G O 0.40281(15) 0.63058(14) 0.99237(13)
O19FD O 0.33773(14) 0.62994(15) 0.88513(13)
O20AF O 0.37808(15) 0.59911(14) 0.89992(13)
O20C O 0.35008(13) 0.59911(14) 0.87192(15)
O21G O 0.42857(13) 0.57737(14) 1.02746(15)
O22G O 0.40782(14) 0.55513(13) 1.00599(14)
O24AF O 0.40073(15) 0.65698(14) 0.87609(14)
O24FD O 0.34927(15) 0.65698(14) 0.87391(14)
O24C O 0.37391(14) 0.65698(14) 0.84927(15)
O26AF O 0.43986(15) 0.69717(14) 0.91500(13)
O27AF O 0.44880(13) 0.73195(14) 0.92364(13)
W3Z W 0.3843(6) 0.8843(6) 0.9662(10)
W5AF W 0.3923(7) 0.7513(7) 0.9146(7)
W6C W 0.3458(8) 0.7041(8) 0.8683(8)
W6FD W 0.3683(8) 0.7041(8) 0.8458(8)
W6AF W 0.3817(8) 0.7041(8) 0.9042(8)
W8FD W 0.2636(9) 0.5922(9) 0.9240(4)
W9FD W 0.3417(3) 0.6027(10) 0.9446(9)
loop_
_geom_bond_atom_site_label_1
_geom_bond_atom_site_label_2
_geom_bond_site_symmetry_1
_geom_bond_site_symmetry_2
C1 C2 1_555 1_555
C2 C3 1_555 1_555
C3 H1 1_555 1_555
C4 C2 1_555 1_555
H2 C4 1_555 1_555
C5 C4 1_555 1_555
C6 C5 1_555 1_555
C7 C8 1_555 1_555
C8 C9 1_555 1_555
C9 H3 1_555 1_555
C10 C8 1_555 1_555
H4 C10 1_555 1_555
C11 C9 1_555 1_555
C12 C11 1_555 1_555
C13 C14 1_555 1_555
C14 C15 1_555 1_555
C15 H5 1_555 1_555
C16 C15 1_555 1_555
C17 C16 1_555 1_555
H6 C17 1_555 1_555
C18 C17 1_555 1_555
C19 C14 1_555 1_555
H7 C19 1_555 1_555
C20 C21 1_555 1_555
C21 C22 1_555 1_555
C22 H8 1_555 1_555
C23 C24 1_555 1_555
C24 C25 1_555 1_555
C25 H9 1_555 1_555
C26 C24 1_555 1_555
H10 C26 1_555 1_555
C27 C26 1_555 1_555
C28 C27 1_555 1_555
C29 C30 1_555 1_555
C30 C31 1_555 1_555
C31 H11 1_555 1_555
C32 C18 1_555 1_555
C33 C16 1_555 1_555
Al1 O1 1_555 1_555
Al2 O11 1_555 1_555
Al3 O17 1_555 1_555
Al4 O5 1_555 1_555
Al5 O12 1_555 1_555
Al6 O17 1_555 1_555
Al7 O5 1_555 1_555
O1 W3 1_555 1_555
O2 Al1 1_555 1_555
O3 C28 1_555 1_555
O4 C29 1_555 1_555
O5 Al4AF 1_555 1_555
O6 Al4 1_555 1_555
O7 C20 1_555 1_555
O8 C13 1_555 1_555
O9 C12 1_555 1_555
O10 C23 1_555 1_555
O11 W8 1_555 1_555
O12 Al2 1_555 1_555
O13 C32 1_555 1_555
O14 Al2 1_555 1_555
O15 C1 1_555 1_555
O16 Al2 1_555 1_555
O17 Al3C 1_555 1_555
O18 Al3 1_555 1_555
O19 C33 1_555 1_555
O20 C6 1_555 1_555
O21 C1 1_555 1_555
O22 C7 1_555 1_555
O23 Al5 1_555 1_555
O24 C33 1_555 1_555
O25 Al6 1_555 1_555
O26 C13 1_555 1_555
O27 C23 1_555 1_555
O28 Al7 1_555 1_555
W3 O1Z 1_555 1_555
W5 O28 1_555 1_555
W6 O25 1_555 1_555
W7 W9 1_555 1_555
W8 W9FD 1_555 1_555
W9 O18 1_555 1_555
C2AF C3 1_555 1_555
C4AF C5 1_555 1_555
C7G O14 1_555 1_555
C8AF C10 1_555 1_555
C9AF C11 1_555 1_555
C21MC C22 1_555 1_555
C22CC C21 1_555 1_555
C24KE C25 1_555 1_555
C26KE C27 1_555 1_555
C30JC C31 1_555 1_555
C31DB C30 1_555 1_555
C32G O16 1_555 1_555
Al1CC O2 1_555 1_555
Al1MC O2 1_555 1_555
Al2G O12 1_555 1_555
Al3C O20 1_555 1_555
Al4AF O7AF 1_555 1_555
O1Z W3Z 1_555 1_555
O3KE C28 1_555 1_555
O3UD Al1 1_555 1_555
O4AF C29 1_555 1_555
O4UD Al1 1_555 1_555
O7AF C20 1_555 1_555
O9AF C12 1_555 1_555
O14G C7 1_555 1_555
O16G C32 1_555 1_555
O19FD Al3 1_555 1_555
O20AF C6 1_555 1_555
O20C Al3 1_555 1_555
O21G Al5 1_555 1_555
O22G Al5 1_555 1_555
O24AF Al6 1_555 1_555
O24FD Al6 1_555 1_555
O24C Al6 1_555 1_555
O26AF Al7 1_555 1_555
O27AF Al7 1_555 1_555
W3Z O1 1_555 1_555
W5AF O28 1_555 1_555
W6C O25 1_555 1_555
W6FD O25 1_555 1_555
W6AF O25 1_555 1_555
W8FD W9 1_555 1_555
W9FD O18 1_555 1_555
C18 C19 1_555 1_555
Al1 O3 1_555 1_555
Al1 O4 1_555 1_555
Al2 O13 1_555 1_555
Al2 O15 1_555 1_555
Al3 O19 1_555 1_555
Al3 O20AF 1_555 1_555
Al4 O7 1_555 1_555
Al4 O8 1_555 1_555
Al4 O9 1_555 1_555
Al4 O10 1_555 1_555
Al5 O21 1_555 1_555
Al5 O22 1_555 1_555
Al6 O24 1_555 1_555
Al7 O26 1_555 1_555
Al7 O27 1_555 1_555
W3 W3Z 1_555 1_555
W5 W6 1_555 1_555
W5 W5AF 1_555 1_555
W6 W6FD 1_555 1_555
W6 W6AF 1_555 1_555
C2AF C4AF 1_555 1_555
C7G O22G 1_555 1_555
C8AF C9AF 1_555 1_555
C24KE C26KE 1_555 1_555
Al1CC O3KE 1_555 1_555
Al1MC O4AF 1_555 1_555
Al2G O14G 1_555 1_555
Al2G O16G 1_555 1_555
Al4AF O9AF 1_555 1_555
W5AF W6AF 1_555 1_555
W6C W6FD 1_555 1_555
W6C W6AF 1_555 1_555

#END
