
#######################################################################
#
#                 Cambridge Crystallographic Data Centre
#                                CCDC 
#
#######################################################################
#
# If this CIF has been generated from an entry in the Cambridge 
# Structural Database, then it will include bibliographic, chemical, 
# crystal, experimental, refinement or atomic coordinate data resulting 
# from the CCDC's data processing and validation procedures.
#
#######################################################################

data_KIRTOW
_chemical_formula_moiety         '(C2 H36 Al8 N1 O49 P14 2-)n'
_symmetry_cell_setting           trigonal
_symmetry_space_group_name_H-M   'P -3 c 1'
_symmetry_Int_Tables_number      165
_space_group_name_Hall           '-P 3 2"c'
loop_
_symmetry_equiv_pos_site_id
_symmetry_equiv_pos_as_xyz
1 x,y,z
2 -y,x-y,z
3 -x+y,-x,z
4 y,x,1/2-z
5 x-y,-y,1/2-z
6 -x,-x+y,1/2-z
7 -x,-y,-z
8 y,-x+y,-z
9 x-y,x,-z
10 -y,-x,1/2+z
11 -x+y,y,1/2+z
12 x,x-y,1/2+z
_cell_length_a                   13.1302(2)
_cell_length_b                   13.1302(2)
_cell_length_c                   17.4559(4)
_cell_angle_alpha                90
_cell_angle_beta                 90
_cell_angle_gamma                120
_cell_volume                     2606.25
loop_
_atom_site_label
_atom_site_type_symbol
_atom_site_fract_x
_atom_site_fract_y
_atom_site_fract_z
Al1 Al 0.29204(12) 0.85678(12) 0.45859(9)
Al2 Al -0.0000 1.0000 0.2500
Al3 Al 0.0000 1.0000 0.5000
P1 P 0.16009(10) 0.97326(10) 0.37118(6)
H1 H 0.250(4) 1.055(3) 0.3413(12)
P2 P 0.12623(10) 0.63092(10) 0.55515(7)
H2 H 0.191(2) 0.692(2) 0.624(2)
P3 P 0.3333 0.6667 0.36305(14)
H3 H 0.3333 0.6667 0.281(6)
O1 O 0.1904(3) 0.8795(3) 0.39237(19)
O2 O 0.1312(3) 1.0249(3) 0.44015(16)
O3 O 0.0653(3) 0.9263(3) 0.30983(16)
O4 O 0.1566(3) 0.7248(3) 0.4944(2)
O5 O -0.0033(3) 0.5747(3) 0.5752(2)
O6 O 0.1647(3) 0.5445(3) 0.5345(2)
O7 O 0.3201(3) 0.7715(3) 0.3844(2)
O8 O 0.2590(3) 0.9440(3) 0.54082(19)
H4 H 0.2965 1.0123 0.5605
H5 H 0.1906 0.9358 0.5398
O7A O 0.2285(3) 0.5486(4) 0.3844(2)
O7B O 0.4514(4) 0.6799(3) 0.3844(2)
Al1A Al 0.14322(12) 0.43526(17) 0.45859(9)
P1A P 0.02674(10) 0.18683(14) 0.37118(6)
H1A H -0.055(3) 0.195(5) 0.3413(12)
P2A P 0.36908(10) 0.49531(14) 0.55515(7)
H2A H 0.308(2) 0.499(3) 0.624(2)
O1A O 0.1205(3) 0.3109(4) 0.39237(19)
O2A O -0.0249(3) 0.1063(4) 0.44015(16)
O3A O 0.0737(3) 0.1390(4) 0.30983(16)
O4A O 0.2752(3) 0.4318(4) 0.4944(2)
O5A O 0.4253(3) 0.4220(4) 0.5752(2)
O6A O 0.4555(3) 0.6202(4) 0.5345(2)
O8A O 0.0560(3) 0.3150(4) 0.54082(19)
H4A H -0.0123 0.2842 0.5605
H5A H 0.0642 0.2548 0.5398
Al1B Al -0.43526(17) 0.70796(12) 0.45859(9)
P1B P -0.18683(14) 0.83991(10) 0.37118(6)
H1B H -0.195(5) 0.750(4) 0.3413(12)
P2B P -0.49531(14) 0.87377(10) 0.55515(7)
H2B H -0.499(3) 0.809(2) 0.624(2)
O1B O -0.3109(4) 0.8096(3) 0.39237(19)
O2B O -0.1063(4) 0.8688(3) 0.44015(16)
O3B O -0.1390(4) 0.9347(3) 0.30983(16)
O4B O -0.4318(4) 0.8434(3) 0.4944(2)
O5B O -0.4220(4) 1.0033(3) 0.5752(2)
O6B O -0.6202(4) 0.8353(3) 0.5345(2)
O8B O -0.3150(4) 0.7410(3) 0.54082(19)
H4B H -0.2842 0.7035 0.5605
H5B H -0.2548 0.8094 0.5398
Al1F Al -0.29204(12) 0.14322(12) 0.54141(9)
P1F P -0.16009(10) 0.02674(10) 0.62882(6)
H1F H -0.250(4) -0.055(3) 0.6587(12)
P2F P -0.12623(10) 0.36908(10) 0.44485(7)
H2F H -0.191(2) 0.308(2) 0.376(2)
P3F P -0.3333 0.3333 0.63695(14)
H3F H -0.3333 0.3333 0.719(6)
O1F O -0.1904(3) 0.1205(3) 0.60763(19)
O2F O -0.1312(3) -0.0249(3) 0.55985(16)
O3F O -0.0653(3) 0.0737(3) 0.69017(16)
O4F O -0.1566(3) 0.2752(3) 0.5056(2)
O5F O 0.0033(3) 0.4253(3) 0.4248(2)
O6F O -0.1647(3) 0.4555(3) 0.4655(2)
O7F O -0.3201(3) 0.2285(3) 0.6156(2)
O8F O -0.2590(3) 0.0560(3) 0.45918(19)
H4F H -0.2965 -0.0123 0.4395
H5F H -0.1906 0.0642 0.4602
O7G O -0.2285(3) 0.4514(4) 0.6156(2)
O7H O -0.4514(4) 0.3201(3) 0.6156(2)
Al1G Al -0.14322(12) 0.56474(17) 0.54141(9)
P1G P -0.02674(10) 0.81317(14) 0.62882(6)
H1G H 0.055(3) 0.805(5) 0.6587(12)
P2G P -0.36908(10) 0.50469(14) 0.44485(7)
H2G H -0.308(2) 0.501(3) 0.376(2)
O1G O -0.1205(3) 0.6891(4) 0.60763(19)
O2G O 0.0249(3) 0.8937(4) 0.55985(16)
O3G O -0.0737(3) 0.8610(4) 0.69017(16)
O4G O -0.2752(3) 0.5682(4) 0.5056(2)
O5G O -0.4253(3) 0.5780(4) 0.4248(2)
O6G O -0.4555(3) 0.3798(4) 0.4655(2)
O8G O -0.0560(3) 0.6850(4) 0.45918(19)
H4G H 0.0123 0.7158 0.4395
H5G H -0.0642 0.7452 0.4602
Al1H Al -0.56474(17) 0.29204(12) 0.54141(9)
P1H P -0.81317(14) 0.16009(10) 0.62882(6)
H1H H -0.805(5) 0.250(4) 0.6587(12)
P2H P -0.50469(14) 0.12623(10) 0.44485(7)
H2H H -0.501(3) 0.191(2) 0.376(2)
O1H O -0.6891(4) 0.1904(3) 0.60763(19)
O2H O -0.8937(4) 0.1312(3) 0.55985(16)
O3H O -0.8610(4) 0.0653(3) 0.69017(16)
O4H O -0.5682(4) 0.1566(3) 0.5056(2)
O5H O -0.5780(4) -0.0033(3) 0.4248(2)
O6H O -0.3798(4) 0.1647(3) 0.4655(2)
O8H O -0.6850(4) 0.2590(3) 0.45918(19)
H4H H -0.7158 0.2965 0.4395
H5H H -0.7452 0.1906 0.4602
Al1_2 Al -0.70796(12) -0.14322(12) 0.45859(9)
Al1_3 Al -0.70796(12) 0.85678(12) 0.45859(9)
Al1B_2 Al 0.56474(17) 0.70796(12) 0.45859(9)
Al1F_2 Al -0.29204(12) 1.14322(12) 0.54141(9)
Al1H_2 Al 0.43526(17) 0.29204(12) 0.54141(9)
Al2_2 Al -0.0000 0.0000 0.2500
Al2F Al -1.0000 0.0000 0.7500
Al2F_2 Al 0.0000 0.0000 0.7500
Al2F_3 Al -0.0000 1.0000 0.7500
Al3_2 Al -1.0000 0.0000 0.5000
Al3_3 Al -0.0000 0.0000 0.5000
O2A_2 O -0.0249(3) 1.1063(4) 0.44015(16)
O2F_2 O -0.1312(3) 0.9751(3) 0.55985(16)
O2H_2 O 0.1063(4) 1.1312(3) 0.55985(16)
O3A_2 O 0.0737(3) 1.1390(4) 0.30983(16)
O3C O -0.0737(3) 1.0653(3) 0.19017(16)
O3D O 0.1390(4) 1.0737(3) 0.19017(16)
O3E O -0.0653(3) 0.8610(4) 0.19017(16)
O5A_2 O -0.5747(3) 0.4220(4) 0.5752(2)
O5B_2 O -0.4220(4) 0.0033(3) 0.5752(2)
O5H_2 O 0.4220(4) 0.9967(3) 0.4248(2)
O6A_2 O -0.5445(3) 0.6202(4) 0.5345(2)
O6B_2 O 0.3798(4) 0.8353(3) 0.5345(2)
O7B_2 O -0.5486(4) 0.6799(3) 0.3844(2)
C1 C 0.1124(12) 0.6941(12) 0.2400(7)
H6 H 0.1750 0.7739 0.2346
H7 H 0.1086 0.6504 0.1949
H8 H 0.1269 0.6592 0.2839
N1 N 0.0000 0.692(2) 0.2500
C1E C -0.1124(12) 0.5817(17) 0.2600(7)
H6E H -0.1750 0.5989 0.2654
H7E H -0.1086 0.5418 0.3051
H8E H -0.1269 0.5323 0.2161
O9 O 0.0000 0.5921(19) 0.7500
loop_
_geom_bond_atom_site_label_1
_geom_bond_atom_site_label_2
_geom_bond_site_symmetry_1
_geom_bond_site_symmetry_2
Al1 O1 1_555 1_555
Al2 O3 1_555 1_555
Al3 O2 1_555 1_555
P1 H1 1_555 1_555
P2 H2 1_555 1_555
P3 H3 1_555 1_555
O1 P1 1_555 1_555
O2 P1 1_555 1_555
O3 P1 1_555 1_555
O4 Al1 1_555 1_555
O5 P2 1_555 1_555
O6 P2 1_555 1_555
O7 Al1 1_555 1_555
O8 Al1 1_555 1_555
H4 O8 1_555 1_555
H5 O8 1_555 1_555
C1 H6 1_555 1_555
H7 C1 1_555 1_555
H8 C1 1_555 1_555
N1 C1 1_555 1_555
O7A P3 1_555 1_555
O7B P3 1_555 1_555
Al1A O6 1_555 1_555
P1A H1A 1_555 1_555
P2A H2A 1_555 1_555
O1A Al1A 1_555 1_555
O2A P1A 1_555 1_555
O3A P1A 1_555 1_555
O4A Al1A 1_555 1_555
O5A P2A 1_555 1_555
O6A P2A 1_555 1_555
O8A Al1A 1_555 1_555
H4A O8A 1_555 1_555
H5A O8A 1_555 1_555
Al1B O1B 1_555 1_555
P1B H1B 1_555 1_555
P2B H2B 1_555 1_555
O1B P1B 1_555 1_555
O2B Al3 1_555 1_555
O3B Al2 1_555 1_555
O4B Al1B 1_555 1_555
O5B P2B 1_555 1_555
O6B P2B 1_555 1_555
O8B Al1B 1_555 1_555
H4B O8B 1_555 1_555
H5B O8B 1_555 1_555
Al1F O1F 1_555 1_555
P1F H1F 1_555 1_555
P2F H2F 1_555 1_555
P3F H3F 1_555 1_555
O1F P1F 1_555 1_555
O2F P1F 1_555 1_555
O3F P1F 1_555 1_555
O4F Al1F 1_555 1_555
O5F Al1A 1_555 1_555
O6F P2F 1_555 1_555
O7F Al1F 1_555 1_555
O8F Al1F 1_555 1_555
H4F O8F 1_555 1_555
H5F O8F 1_555 1_555
O7G P3F 1_555 1_555
O7H P3F 1_555 1_555
Al1G O5 1_555 1_555
P1G H1G 1_555 1_555
P2G H2G 1_555 1_555
O1G Al1G 1_555 1_555
O2G Al3 1_555 1_555
O3G P1G 1_555 1_555
O4G Al1G 1_555 1_555
O5G Al1B 1_555 1_555
O6G P2G 1_555 1_555
O8G Al1G 1_555 1_555
H4G O8G 1_555 1_555
H5G O8G 1_555 1_555
Al1H O7H 1_555 1_555
P1H H1H 1_555 1_555
P2H H2H 1_555 1_555
O1H Al1H 1_555 1_555
O2H P1H 1_555 1_555
O3H P1H 1_555 1_555
O4H Al1H 1_555 1_555
O5H P2H 1_555 1_555
O6H Al1F 1_555 1_555
O8H Al1H 1_555 1_555
H4H O8H 1_555 1_555
H5H O8H 1_555 1_555
Al1_2 O5H 1_555 1_555
Al1_3 O6B 1_555 1_555
Al1B_2 O7B 1_555 1_555
Al1F_2 O5B 1_555 1_555
Al1H_2 O5A 1_555 1_555
Al2_2 O3A 1_555 1_555
Al2F O3H 1_555 1_555
Al2F_2 O3F 1_555 1_555
Al2F_3 O3G 1_555 1_555
Al3_2 O2H 1_555 1_555
Al3_3 O2A 1_555 1_555
O2A_2 Al3 1_555 1_555
O2F_2 Al3 1_555 1_555
O2H_2 Al3 1_555 1_555
O3A_2 Al2 1_555 1_555
O3C Al2 1_555 1_555
O3D Al2 1_555 1_555
O3E Al2 1_555 1_555
O5A_2 Al1H 1_555 1_555
O5B_2 Al1F 1_555 1_555
O5H_2 Al1 1_555 1_555
O6A_2 Al1B 1_555 1_555
O6B_2 Al1 1_555 1_555
O7B_2 Al1B 1_555 1_555
C1E N1 1_555 1_555
H6E C1E 1_555 1_555
H7E C1E 1_555 1_555
H8E C1E 1_555 1_555
P2 O4 1_555 1_555
P3 O7 1_555 1_555
O7A Al1A 1_555 1_555
P1A O1A 1_555 1_555
P2A O4A 1_555 1_555
O6A Al1B_2 1_555 1_555
P1B O2B 1_555 1_555
P1B O3B 1_555 1_555
P2B O4B 1_555 1_555
P2F O4F 1_555 1_555
P2F O5F 1_555 1_555
P3F O7F 1_555 1_555
O2F Al3_3 1_555 1_555
O6F Al1G 1_555 1_555
O7G Al1G 1_555 1_555
P1G O1G 1_555 1_555
P1G O2G 1_555 1_555
P2G O4G 1_555 1_555
P2G O5G 1_555 1_555
O6G Al1H 1_555 1_555
P1H O1H 1_555 1_555
P2H O4H 1_555 1_555
P2H O6H 1_555 1_555

#END
