
#######################################################################
#
#                 Cambridge Crystallographic Data Centre
#                                CCDC 
#
#######################################################################
#
# If this CIF has been generated from an entry in the Cambridge 
# Structural Database, then it will include bibliographic, chemical, 
# crystal, experimental, refinement or atomic coordinate data resulting 
# from the CCDC's data processing and validation procedures.
#
#######################################################################

data_AYUWUM
_chemical_formula_moiety         '(C35 H59 Na3 O29 S7)n'
_symmetry_cell_setting           triclinic
_symmetry_space_group_name_H-M   'P -1'
_symmetry_Int_Tables_number      2
_space_group_name_Hall           '-P 1'
loop_
_symmetry_equiv_pos_site_id
_symmetry_equiv_pos_as_xyz
1 x,y,z
2 -x,-y,-z
_cell_length_a                   9.998(4)
_cell_length_b                   16.216(6)
_cell_length_c                   16.663(7)
_cell_angle_alpha                94.899(6)
_cell_angle_beta                 102.410(7)
_cell_angle_gamma                96.101(6)
_cell_volume                     2607.12
loop_
_atom_site_label
_atom_site_type_symbol
_atom_site_fract_x
_atom_site_fract_y
_atom_site_fract_z
S1 S 0.8492(1) -0.47049(7) 0.96245(7)
S2 S 1.1033(1) -0.16352(6) 0.92335(7)
S3 S 0.6461(1) -0.03806(6) 0.99916(7)
S4 S 0.3469(1) -0.35281(6) 0.94581(7)
S5 S 0.8910(1) 0.09121(7) 0.76515(7)
S6 S 0.2970(1) -0.14630(7) 0.69973(7)
S7 S 0.3767(1) -0.65032(7) 0.77309(7)
Na1 Na 0.8894(2) 0.0538(1) 0.5475(1)
Na2 Na 0.5273(2) -0.1040(1) 0.4582(1)
Na3 Na 0.7480(2) -0.1561(1) 1.1368(1)
O1 O 0.6537(3) -0.3476(2) 0.9932(2)
O2 O 0.9681(3) -0.2910(2) 1.0101(2)
O3 O 0.8624(3) -0.1480(2) 1.0115(2)
O4 O 0.5381(3) -0.2025(2) 1.0431(2)
O5 O 1.1019(4) -0.3542(2) 1.2064(2)
O6 O 0.8985(3) -0.3174(2) 1.1445(2)
O7 O 1.0362(3) 0.1244(2) 0.7785(2)
O8 O 0.8398(3) 0.0445(2) 0.6835(2)
O9 O 0.8053(4) 0.1537(2) 0.7831(2)
O10 O 0.3748(3) -0.0683(2) 0.6866(2)
O11 O 0.3110(4) -0.2157(2) 0.6436(2)
O12 O 0.1556(3) -0.1356(2) 0.7017(2)
O13 O 0.2338(3) -0.6347(2) 0.7428(2)
O14 O 0.4492(3) -0.6615(2) 0.7078(2)
O15 O 0.3848(3) -0.7170(2) 0.8256(2)
O17 O 1.0955(3) 0.1361(2) 0.6222(2)
O18 O 1.0242(3) 0.0818(2) 0.4378(2)
O19 O 0.7351(3) -0.0317(2) 0.4357(2)
O20 O 0.5698(3) -0.0229(2) 0.5927(2)
O21 O 0.4597(4) -0.1724(2) 0.3170(2)
O22 O 0.7078(4) 0.1520(2) 0.5201(2)
O23 O 0.7084(4) -0.2019(2) 0.5060(3)
O26 O 0.6356(4) -0.0884(2) 1.2221(2)
C1 C 0.5939(4) -0.4164(2) 0.9421(3)
C2 C 0.4509(4) -0.4252(2) 0.9120(3)
C3 C 0.3839(4) -0.4964(3) 0.8596(3)
C4 C 0.4604(4) -0.5577(2) 0.8370(3)
C5 C 0.6020(4) -0.5488(3) 0.8654(3)
C6 C 0.6697(4) -0.4786(3) 0.9187(3)
C7 C 0.9700(4) -0.3196(3) 0.9299(3)
C8 C 1.0173(4) -0.2651(2) 0.8788(3)
C9 C 1.0092(4) -0.2926(3) 0.7961(3)
C10 C 0.9601(4) -0.3756(3) 0.7641(3)
C11 C 0.9144(4) -0.4287(3) 0.8165(3)
C12 C 0.9158(4) -0.4014(3) 0.8979(3)
C13 C 0.8731(4) -0.0949(2) 0.9544(3)
C14 C 0.7775(4) -0.0377(2) 0.9421(3)
C15 C 0.7852(4) 0.0202(2) 0.8854(3)
C16 C 0.8842(4) 0.0189(2) 0.8393(3)
C17 C 0.9767(4) -0.0399(3) 0.8486(3)
C18 C 0.9717(4) -0.0964(2) 0.9054(3)
C19 C 0.4880(4) -0.1944(2) 0.9624(3)
C20 C 0.5247(4) -0.1186(2) 0.9337(3)
C21 C 0.4675(4) -0.1046(3) 0.8532(3)
C22 C 0.3774(4) -0.1667(3) 0.8006(3)
C23 C 0.3453(4) -0.2437(3) 0.8273(3)
C24 C 0.4001(4) -0.2574(2) 0.9082(3)
C25 C 1.0797(4) -0.3088(3) 1.0737(3)
C26 C 1.0280(5) -0.3293(3) 1.1487(3)
C27 C 0.9593(5) -0.4100(3) 0.6754(3)
C28 C 1.0704(7) -0.4679(5) 0.6792(4)
C29 C 0.8220(6) -0.4618(4) 0.6337(4)
C30 C 0.988(1) -0.3424(4) 0.6219(4)
H1 H 0.2830 -0.5016 0.8433
H2 H 0.6558 -0.5855 0.8468
H3 H 1.0585 -0.2461 0.7661
H4 H 0.8816 -0.4834 0.7942
H5 H 0.7113 0.0511 0.8829
H6 H 1.0401 -0.0422 0.8175
H7 H 0.4958 -0.0433 0.8291
H8 H 0.2867 -0.2874 0.7919
H9 H 1.0639 -0.5076 0.7186
H10 H 1.1611 -0.4385 0.6932
H11 H 1.0458 -0.5023 0.6127
H12 H 0.8342 -0.4920 0.5862
H13 H 0.7508 -0.4279 0.6191
H14 H 0.7934 -0.5010 0.6691
H15 H 1.0787 -0.3131 0.6407
H16 H 0.9738 -0.3762 0.5595
H17 H 0.9231 -0.3023 0.6215
H18 H 1.1562 -0.2573 1.0950
H19 H 1.1209 -0.3576 1.0616
H20 H 0.8738 -0.3341 1.1883
H21 H 0.7379 -0.3527 1.0193
H22 H 0.9296 -0.1875 1.0143
H23 H 0.5187 -0.2606 1.0411
H34 H 1.1015 0.1991 0.5977
H35 H 1.0942 0.1380 0.6816
H36 H 1.1053 0.1182 0.4521
H37 H 0.9633 0.0861 0.3881
H38 H 0.7100 -0.0021 0.3971
H39 H 0.7767 -0.0661 0.4143
H40 H 0.6427 -0.0052 0.6247
H41 H 0.5290 -0.0491 0.6261
H42 H 0.3737 -0.1661 0.2871
H43 H 0.4806 -0.2268 0.3065
H44 H 0.7374 0.1973 0.5530
H45 H 0.7062 0.1793 0.4698
H46 H 0.7537 -0.2398 0.4853
H47 H 0.6816 -0.2325 0.5519
H52 H 0.5841 -0.1155 1.2586
H53 H 0.6513 -0.0385 1.2708
O18A O 0.9758(3) -0.0818(2) 0.5622(2)
O20A O 0.4302(3) 0.0229(2) 0.4073(2)
O22A O 0.2922(4) -0.1520(2) 0.4799(2)
O7A O 0.9638(3) -0.1244(2) 1.2215(2)
O15A O 0.6152(3) -0.2830(2) 1.1744(2)
Na3A Na 1.2520(2) 0.1561(1) 0.8632(1)
Na3A_2 Na 0.2520(2) -0.8439(1) 0.8632(1)
Na1A Na 1.1106(2) -0.0538(1) 0.4525(1)
Na2A Na 0.4727(2) 0.1040(1) 0.5418(1)
H36A H 0.8947 -0.1182 0.5479
H37A H 1.0367 -0.0861 0.6119
H40A H 0.3573 0.0052 0.3753
H41A H 0.4710 0.0491 0.3739
H44A H 0.2626 -0.1973 0.4470
H45A H 0.2938 -0.1793 0.5302
O16 O 0.5632(4) -0.3129(2) 0.5921(2)
C31 C 0.4695(7) -0.4058(4) 0.6748(4)
C32 C 0.5562(5) -0.3295(3) 0.6607(3)
C33 C 0.6375(5) -0.2751(4) 0.7363(3)
C34 C 0.3949(7) -0.4614(4) 0.5992(4)
C35 C 0.6989(6) -0.1906(4) 0.7216(4)
H24 H 0.3200 -0.4350 0.5694
H25 H 0.4661 -0.4722 0.5593
H26 H 0.3565 -0.5132 0.6128
H27 H 0.5360 -0.4354 0.7098
H28 H 0.4115 -0.3797 0.7136
H29 H 0.7327 -0.3023 0.7768
H30 H 0.5978 -0.2682 0.7812
H31 H 0.7384 -0.1582 0.7723
H32 H 0.6298 -0.1631 0.6893
H33 H 0.7693 -0.1978 0.6912
O24 O 0.4114(5) -0.3633(3) 0.4240(3)
H48 H 0.4544 -0.3500 0.4855
H49 H 0.4602 -0.3656 0.3669
O25 O 1.1622(5) -0.3028(3) 1.3839(3)
H50 H 1.2431 -0.3335 1.4126
H51 H 1.1817 -0.3142 1.3267
O27 O 0.8891(5) -0.2980(3) 0.4201(2)
H54 H 1.0032 -0.3051 0.4353
H55 H 0.8358 -0.3302 0.3757
loop_
_geom_bond_atom_site_label_1
_geom_bond_atom_site_label_2
_geom_bond_site_symmetry_1
_geom_bond_site_symmetry_2
S1 C6 1_555 1_555
S2 C8 1_555 1_555
S3 C14 1_555 1_555
S4 C2 1_555 1_555
S5 O7 1_555 1_555
S6 O10 1_555 1_555
S7 O13 1_555 1_555
Na1 O8 1_555 1_555
Na2 O19 1_555 1_555
Na3 O3 1_555 1_555
O1 C1 1_555 1_555
O2 C7 1_555 1_555
O3 C13 1_555 1_555
O4 Na3 1_555 1_555
O5 C26 1_555 1_555
O6 C26 1_555 1_555
O7 Na3A 1_555 1_555
O8 S5 1_555 1_555
O9 S5 1_555 1_555
O11 S6 1_555 1_555
O12 S6 1_555 1_555
O14 S7 1_555 1_555
O15 S7 1_555 1_555
O16 C32 1_555 1_555
O17 Na1 1_555 1_555
O18 Na1 1_555 1_555
O19 Na1 1_555 1_555
O20 Na2 1_555 1_555
O21 Na2 1_555 1_555
O22 Na1 1_555 1_555
O23 Na2 1_555 1_555
O24 H48 1_555 1_555
O25 H50 1_555 1_555
O26 Na3 1_555 1_555
O27 H54 1_555 1_555
C1 C2 1_555 1_555
C2 C3 1_555 1_555
C3 C4 1_555 1_555
C4 S7 1_555 1_555
C5 C4 1_555 1_555
C6 C1 1_555 1_555
C7 C8 1_555 1_555
C8 C9 1_555 1_555
C9 C10 1_555 1_555
C10 C11 1_555 1_555
C11 C12 1_555 1_555
C12 S1 1_555 1_555
C13 C14 1_555 1_555
C14 C15 1_555 1_555
C15 C16 1_555 1_555
C16 S5 1_555 1_555
C17 C16 1_555 1_555
C18 S2 1_555 1_555
C19 O4 1_555 1_555
C20 S3 1_555 1_555
C21 C20 1_555 1_555
C22 S6 1_555 1_555
C23 C22 1_555 1_555
C24 S4 1_555 1_555
C25 O2 1_555 1_555
C26 C25 1_555 1_555
C27 C10 1_555 1_555
C28 C27 1_555 1_555
C29 C27 1_555 1_555
C30 C27 1_555 1_555
C31 C32 1_555 1_555
C32 C33 1_555 1_555
C33 C35 1_555 1_555
C34 C31 1_555 1_555
C35 H31 1_555 1_555
H1 C3 1_555 1_555
H2 C5 1_555 1_555
H3 C9 1_555 1_555
H4 C11 1_555 1_555
H5 C15 1_555 1_555
H6 C17 1_555 1_555
H7 C21 1_555 1_555
H8 C23 1_555 1_555
H9 C28 1_555 1_555
H10 C28 1_555 1_555
H11 C28 1_555 1_555
H12 C29 1_555 1_555
H13 C29 1_555 1_555
H14 C29 1_555 1_555
H15 C30 1_555 1_555
H16 C30 1_555 1_555
H17 C30 1_555 1_555
H18 C25 1_555 1_555
H19 C25 1_555 1_555
H20 O6 1_555 1_555
H21 O1 1_555 1_555
H22 O3 1_555 1_555
H23 O4 1_555 1_555
H24 C34 1_555 1_555
H25 C34 1_555 1_555
H26 C34 1_555 1_555
H27 C31 1_555 1_555
H28 C31 1_555 1_555
H29 C33 1_555 1_555
H30 C33 1_555 1_555
H32 C35 1_555 1_555
H33 C35 1_555 1_555
H34 O17 1_555 1_555
H35 O17 1_555 1_555
H36 O18 1_555 1_555
H37 O18 1_555 1_555
H38 O19 1_555 1_555
H39 O19 1_555 1_555
H40 O20 1_555 1_555
H41 O20 1_555 1_555
H42 O21 1_555 1_555
H43 O21 1_555 1_555
H44 O22 1_555 1_555
H45 O22 1_555 1_555
H46 O23 1_555 1_555
H47 O23 1_555 1_555
H49 O24 1_555 1_555
H51 O25 1_555 1_555
H52 O26 1_555 1_555
H53 O26 1_555 1_555
H55 O27 1_555 1_555
O18A Na1 1_555 1_555
O20A Na2 1_555 1_555
O22A Na2 1_555 1_555
O7A Na3 1_555 1_555
O15A Na3 1_555 1_555
Na3A_2 O15 1_555 1_555
Na1A O18 1_555 1_555
Na2A O20 1_555 1_555
H36A O18A 1_555 1_555
H37A O18A 1_555 1_555
H40A O20A 1_555 1_555
H41A O20A 1_555 1_555
H44A O22A 1_555 1_555
H45A O22A 1_555 1_555
O22 Na2A 1_555 1_555
C5 C6 1_555 1_555
C7 C12 1_555 1_555
C13 C18 1_555 1_555
C17 C18 1_555 1_555
C19 C24 1_555 1_555
C19 C20 1_555 1_555
C21 C22 1_555 1_555
C23 C24 1_555 1_555
O18A Na1A 1_555 1_555
O20A Na2A 1_555 1_555

#END
