
#######################################################################
#
#                 Cambridge Crystallographic Data Centre
#                                CCDC 
#
#######################################################################
#
# If this CIF has been generated from an entry in the Cambridge 
# Structural Database, then it will include bibliographic, chemical, 
# crystal, experimental, refinement or atomic coordinate data resulting 
# from the CCDC's data processing and validation procedures.
#
#######################################################################

data_IWOKOW
_chemical_formula_moiety         '(C132 H140 Fe2 N12 O2 S20)n'
_symmetry_cell_setting           monoclinic
_symmetry_space_group_name_H-M   'C 2/c'
_symmetry_Int_Tables_number      15
_space_group_name_Hall           '-C 2yc'
loop_
_symmetry_equiv_pos_site_id
_symmetry_equiv_pos_as_xyz
1 x,y,z
2 -x,y,1/2-z
3 1/2+x,1/2+y,z
4 1/2-x,1/2+y,1/2-z
5 -x,-y,-z
6 x,-y,1/2+z
7 1/2-x,1/2-y,-z
8 1/2+x,1/2-y,1/2+z
_cell_length_a                   12.0702(12)
_cell_length_b                   24.951(3)
_cell_length_c                   50.623(5)
_cell_angle_alpha                90
_cell_angle_beta                 95.774(2)
_cell_angle_gamma                90
_cell_volume                     15168.5
loop_
_atom_site_label
_atom_site_type_symbol
_atom_site_fract_x
_atom_site_fract_y
_atom_site_fract_z
Fe1 Fe 1.0000 0.92859(7) 0.2500
Fe2 Fe 0.7500 0.7500 0.0000
S1 S 0.71895(17) 0.90177(8) 0.15997(5)
C1 C 0.5786(7) 0.8921(3) 0.16712(17)
C2 C 0.5104(7) 0.9349(3) 0.17263(18)
C3 C 0.4006(7) 0.9222(3) 0.17859(19)
C4 C 0.3690(7) 0.8687(3) 0.1806(2)
H1 H 0.2957 0.8612 0.1849
C5 C 0.4382(8) 0.8261(3) 0.1767(2)
C6 C 0.5424(8) 0.8387(3) 0.16952(19)
H2 H 0.5916 0.8104 0.1661
S2 S 0.56206(19) 1.00084(8) 0.17590(6)
C7 C 0.5770(9) 1.0047(6) 0.2133(3)
H3 H 0.6136 1.0389 0.2189
H4 H 0.5020 1.0046 0.2196
C8 C 0.6408(9) 0.9610(6) 0.2255(2)
C9 C 0.7574(9) 0.9647(5) 0.2320(2)
H5 H 0.7939 0.9972 0.2282
N1 N 0.8168(8) 0.9253(4) 0.24283(18)
C10 C 0.7641(12) 0.8792(6) 0.2480(3)
H6 H 0.8075 0.8505 0.2558
C11 C 0.6528(16) 0.8717(10) 0.2428(3)
H7 H 0.6183 0.8394 0.2476
C12 C 0.5905(12) 0.9133(9) 0.2300(3)
H8 H 0.5137 0.9083 0.2244
C13 C 0.4049(10) 0.7670(4) 0.1808(2)
C14 C 0.4273(12) 0.7546(4) 0.2088(2)
H9 H 0.3903 0.7810 0.2193
H10 H 0.5078 0.7556 0.2139
H11 H 0.3989 0.7187 0.2122
C15 C 0.4651(12) 0.7281(4) 0.1642(3)
H12 H 0.5457 0.7324 0.1683
H13 H 0.4448 0.7356 0.1453
H14 H 0.4437 0.6914 0.1682
C16 C 0.2847(13) 0.7602(5) 0.1749(7)
H15 H 0.2683 0.7228 0.1701
H16 H 0.2578 0.7836 0.1600
H17 H 0.2473 0.7696 0.1906
S3 S 0.30258(19) 0.97202(8) 0.18586(5)
C17 C 0.2797(7) 1.0065(3) 0.1550(2)
C18 C 0.2268(7) 0.9832(3) 0.13207(19)
C19 C 0.2113(8) 1.0139(3) 0.1086(2)
C20 C 0.2433(8) 1.0679(3) 0.1092(2)
H18 H 0.2296 1.0889 0.0935
C21 C 0.2956(7) 1.0920(3) 0.1325(2)
C22 C 0.3152(8) 1.0609(3) 0.1543(2)
H19 H 0.3542 1.0759 0.1698
S4 S 0.1701(3) 0.91746(10) 0.13288(7)
C23 C 0.0277(10) 0.9307(5) 0.1424(2)
H20 H 0.0216 0.9670 0.1501
H21 H -0.0297 0.9262 0.1272
C24 C 0.0194(11) 0.8857(5) 0.1639(2)
C25 C 0.0201(10) 0.9123(3) 0.1881(3)
H22 H 0.0336 0.9498 0.1890
N2 N 0.0011(9) 0.8841(4) 0.2108(2)
C26 C -0.0187(9) 0.8292(4) 0.20950(19)
H23 H -0.0317 0.8100 0.2251
C27 C -0.0194(10) 0.8026(3) 0.1854(2)
H24 H -0.0329 0.7651 0.1845
C28 C -0.0003(11) 0.8308(5) 0.16259(19)
H25 H -0.0008 0.8126 0.1461
C29 C 0.3308(10) 1.1508(3) 0.1337(2)
C30 C 0.3506(12) 1.1706(4) 0.1055(3)
H26 H 0.2794 1.1718 0.0943
H27 H 0.4014 1.1460 0.0976
H28 H 0.3833 1.2066 0.1067
C31 C 0.2432(13) 1.1833(4) 0.1437(3)
H29 H 0.1772 1.1830 0.1307
H30 H 0.2696 1.2202 0.1464
H31 H 0.2239 1.1685 0.1605
C32 C 0.4406(11) 1.1580(4) 0.1523(3)
H32 H 0.4584 1.1962 0.1541
H33 H 0.5014 1.1393 0.1447
H34 H 0.4313 1.1430 0.1698
S5 S 0.1490(2) 0.98864(9) 0.07800(6)
C33 C 0.2518(7) 0.9404(3) 0.06962(18)
C34 C 0.3571(8) 0.9547(3) 0.06387(18)
C35 C 0.4324(7) 0.9134(3) 0.05839(17)
C36 C 0.3963(7) 0.8603(3) 0.05731(17)
H35 H 0.4455 0.8332 0.0523
C37 C 0.2905(7) 0.8457(3) 0.06335(18)
C38 C 0.2179(7) 0.8862(3) 0.06958(18)
H36 H 0.1452 0.8773 0.0738
S6 S 0.3984(2) 1.02351(7) 0.06269(5)
C39 C 0.3660(9) 1.0355(3) 0.02764(19)
H37 H 0.3990 1.0070 0.0173
H38 H 0.2843 1.0352 0.0231
C40 C 0.4134(8) 1.0900(3) 0.02085(17)
C41 C 0.3389(7) 1.1340(3) 0.01768(17)
H39 H 0.2626 1.1283 0.0199
N3 N 0.3716(6) 1.1826(2) 0.01175(15)
C42 C 0.4824(7) 1.1911(3) 0.00955(18)
H40 H 0.5072 1.2259 0.0054
C43 C 0.5594(8) 1.1493(4) 0.0133(2)
H41 H 0.6363 1.1558 0.0122
C44 C 0.5221(8) 1.0984(3) 0.01878(18)
H42 H 0.5733 1.0695 0.0211
C45 C 0.2584(8) 0.7861(3) 0.0648(2)
C46 C 0.2828(12) 0.7571(4) 0.0397(3)
H43 H 0.2710 0.7185 0.0418
H44 H 0.3602 0.7636 0.0363
H45 H 0.2328 0.7704 0.0246
C47 C 0.3339(13) 0.7633(5) 0.0889(3)
H46 H 0.3324 0.7876 0.1040
H47 H 0.4104 0.7600 0.0842
H48 H 0.3064 0.7280 0.0936
C48 C 0.1400(10) 0.7770(5) 0.0681(4)
H49 H 0.0940 0.8009 0.0561
H50 H 0.1265 0.7845 0.0865
H51 H 0.1206 0.7397 0.0638
S7 S 0.57202(19) 0.92622(8) 0.05174(5)
C49 C 0.6343(7) 0.9494(3) 0.08333(17)
C50 C 0.6490(7) 0.9165(3) 0.10570(17)
C51 C 0.6992(6) 0.9390(3) 0.12968(18)
C52 C 0.7425(7) 0.9903(3) 0.12955(19)
H52 H 0.7814 1.0039 0.1454
C53 C 0.7311(8) 1.0226(3) 0.10698(19)
C54 C 0.6756(7) 1.0013(3) 0.08452(19)
H53 H 0.6649 1.0230 0.0691
S8 S 0.60783(19) 0.84794(7) 0.10466(5)
C55 C 0.7469(8) 0.8183(3) 0.1051(2)
H54 H 0.7953 0.8331 0.1203
H55 H 0.7414 0.7791 0.1077
C56 C 0.7990(8) 0.8290(3) 0.0800(2)
C57 C 0.7776(7) 0.7952(3) 0.0584(2)
H56 H 0.7336 0.7643 0.0608
N4 N 0.8132(6) 0.8022(2) 0.03503(18)
C58 C 0.8801(7) 0.8452(3) 0.0322(2)
H57 H 0.9123 0.8500 0.0160
C59 C 0.9026(8) 0.8822(4) 0.0525(2)
H58 H 0.9455 0.9133 0.0498
C60 C 0.8624(8) 0.8735(4) 0.0764(2)
H59 H 0.8782 0.8983 0.0905
C61 C 0.7746(10) 1.0823(4) 0.1079(2)
C62 C 0.719(4) 1.1151(18) 0.1287(7)
H60 H 0.7088 1.0925 0.1441
H61 H 0.6463 1.1281 0.1209
H62 H 0.7663 1.1458 0.1344
C63 C 0.762(4) 1.1119(11) 0.0807(4)
H63 H 0.8341 1.1137 0.0736
H64 H 0.7341 1.1484 0.0832
H65 H 0.7086 1.0925 0.0683
C64 C 0.9010(18) 1.0763(14) 0.1167(8)
H66 H 0.9315 1.0470 0.1067
H67 H 0.9120 1.0682 0.1357
H68 H 0.9393 1.1098 0.1132
N5 N 1.0070(10) 1.0018(4) 0.2296(3)
C65 C 1.0195(12) 1.0334(5) 0.2131(3)
S9 S 1.0101(3) 1.08091(13) 0.19167(9)
N6 N 0.8658(6) 0.7866(3) -0.02278(16)
C66 C 0.9054(7) 0.8116(3) -0.0381(2)
S10 S 0.9546(3) 0.84565(17) -0.06150(9)
S1A S 0.28105(17) 0.90177(8) 0.34003(5)
C1A C 0.4214(7) 0.8921(3) 0.33288(17)
C2A C 0.4896(7) 0.9349(3) 0.32737(18)
C3A C 0.5994(7) 0.9222(3) 0.32141(19)
C4A C 0.6310(7) 0.8687(3) 0.3194(2)
H1A H 0.7043 0.8612 0.3151
C5A C 0.5618(8) 0.8261(3) 0.3233(2)
C6A C 0.4576(8) 0.8387(3) 0.33048(19)
H2A H 0.4084 0.8104 0.3339
S2A S 0.43794(19) 1.00084(8) 0.32410(6)
C7A C 0.4230(9) 1.0047(6) 0.2867(3)
H3A H 0.3864 1.0389 0.2811
H4A H 0.4980 1.0046 0.2804
C8A C 0.3592(9) 0.9610(6) 0.2745(2)
C9A C 0.2426(9) 0.9647(5) 0.2680(2)
H5A H 0.2061 0.9972 0.2718
N1A N 0.1832(8) 0.9253(4) 0.25717(18)
C10A C 0.2359(12) 0.8792(6) 0.2520(3)
H6A H 0.1925 0.8505 0.2442
C11A C 0.3472(16) 0.8717(10) 0.2572(3)
H7A H 0.3817 0.8394 0.2524
C12A C 0.4095(12) 0.9133(9) 0.2700(3)
H8A H 0.4863 0.9083 0.2756
C13A C 0.5951(10) 0.7670(4) 0.3192(2)
C14A C 0.5727(12) 0.7546(4) 0.2912(2)
H9A H 0.6097 0.7810 0.2807
H10A H 0.4922 0.7556 0.2861
H11A H 0.6011 0.7187 0.2878
C15A C 0.5349(12) 0.7281(4) 0.3358(3)
H12A H 0.4543 0.7324 0.3317
H13A H 0.5552 0.7356 0.3547
H14A H 0.5563 0.6914 0.3318
C16A C 0.7153(13) 0.7602(5) 0.3251(7)
H15A H 0.7317 0.7228 0.3299
H16A H 0.7422 0.7836 0.3400
H17A H 0.7527 0.7696 0.3094
S3A S 0.69742(19) 0.97202(8) 0.31414(5)
C17A C 0.7203(7) 1.0065(3) 0.3450(2)
C18A C 0.7732(7) 0.9832(3) 0.36793(19)
C19A C 0.7887(8) 1.0139(3) 0.3914(2)
C20A C 0.7567(8) 1.0679(3) 0.3908(2)
H18A H 0.7704 1.0889 0.4065
C21A C 0.7044(7) 1.0920(3) 0.3675(2)
C22A C 0.6848(8) 1.0609(3) 0.3457(2)
H19A H 0.6458 1.0759 0.3302
S4A S 0.8299(3) 0.91746(10) 0.36712(7)
C23A C 0.9723(10) 0.9307(5) 0.3576(2)
H20A H 0.9784 0.9670 0.3499
H21A H 1.0297 0.9262 0.3728
C24A C 0.9806(11) 0.8857(5) 0.3361(2)
C25A C 0.9799(10) 0.9123(3) 0.3119(3)
H22A H 0.9664 0.9498 0.3110
N2A N 0.9989(9) 0.8841(4) 0.2892(2)
C26A C 1.0187(9) 0.8292(4) 0.29050(19)
H23A H 1.0317 0.8100 0.2749
C27A C 1.0194(10) 0.8026(3) 0.3146(2)
H24A H 1.0329 0.7651 0.3155
C28A C 1.0003(11) 0.8308(5) 0.33741(19)
H25A H 1.0008 0.8126 0.3539
C29A C 0.6692(10) 1.1508(3) 0.3663(2)
C30A C 0.6494(12) 1.1706(4) 0.3945(3)
H26A H 0.7206 1.1718 0.4057
H27A H 0.5986 1.1460 0.4024
H28A H 0.6167 1.2066 0.3933
C31A C 0.7568(13) 1.1833(4) 0.3563(3)
H29A H 0.8228 1.1830 0.3693
H30A H 0.7304 1.2202 0.3536
H31A H 0.7761 1.1685 0.3395
C32A C 0.5594(11) 1.1580(4) 0.3477(3)
H32A H 0.5416 1.1962 0.3459
H33A H 0.4986 1.1393 0.3553
H34A H 0.5687 1.1430 0.3302
S5A S 0.8510(2) 0.98864(9) 0.42200(6)
C33A C 0.7482(7) 0.9404(3) 0.43038(18)
C34A C 0.6429(8) 0.9547(3) 0.43613(18)
C35A C 0.5676(7) 0.9134(3) 0.44161(17)
C36A C 0.6037(7) 0.8603(3) 0.44269(17)
H35A H 0.5545 0.8332 0.4477
C37A C 0.7095(7) 0.8457(3) 0.43665(18)
C38A C 0.7821(7) 0.8862(3) 0.43042(18)
H36A H 0.8548 0.8773 0.4262
S6A S 0.6016(2) 1.02351(7) 0.43731(5)
C39A C 0.6340(9) 1.0355(3) 0.47236(19)
H37A H 0.6010 1.0070 0.4827
H38A H 0.7157 1.0352 0.4769
C40A C 0.5866(8) 1.0900(3) 0.47915(17)
C41A C 0.6611(7) 1.1340(3) 0.48232(17)
H39A H 0.7374 1.1283 0.4801
N3A N 0.6284(6) 1.1826(2) 0.48825(15)
C42A C 0.5176(7) 1.1911(3) 0.49045(18)
H40A H 0.4928 1.2259 0.4946
C43A C 0.4406(8) 1.1493(4) 0.4867(2)
H41A H 0.3637 1.1558 0.4878
C44A C 0.4779(8) 1.0984(3) 0.48122(18)
H42A H 0.4267 1.0695 0.4789
C45A C 0.7416(8) 0.7861(3) 0.4352(2)
C46A C 0.7172(12) 0.7571(4) 0.4603(3)
H43A H 0.7290 0.7185 0.4582
H44A H 0.6398 0.7636 0.4637
H45A H 0.7672 0.7704 0.4754
C47A C 0.6661(13) 0.7633(5) 0.4111(3)
H46A H 0.6676 0.7876 0.3960
H47A H 0.5896 0.7600 0.4158
H48A H 0.6936 0.7280 0.4064
C48A C 0.8600(10) 0.7770(5) 0.4319(4)
H49A H 0.9060 0.8009 0.4439
H50A H 0.8735 0.7845 0.4135
H51A H 0.8794 0.7397 0.4362
S7A S 0.42798(19) 0.92622(8) 0.44826(5)
C49A C 0.3657(7) 0.9494(3) 0.41667(17)
C50A C 0.3510(7) 0.9165(3) 0.39430(17)
C51A C 0.3008(6) 0.9390(3) 0.37032(18)
C52A C 0.2575(7) 0.9903(3) 0.37045(19)
H52A H 0.2186 1.0039 0.3546
C53A C 0.2689(8) 1.0226(3) 0.39302(19)
C54A C 0.3244(7) 1.0013(3) 0.41548(19)
H53A H 0.3351 1.0230 0.4309
S8A S 0.39217(19) 0.84794(7) 0.39534(5)
C55A C 0.2531(8) 0.8183(3) 0.3949(2)
H54A H 0.2047 0.8331 0.3797
H55A H 0.2586 0.7791 0.3923
C56A C 0.2010(8) 0.8290(3) 0.4200(2)
C57A C 0.2224(7) 0.7952(3) 0.4416(2)
H56A H 0.2664 0.7643 0.4392
N4A N 0.1868(6) 0.8022(2) 0.46497(18)
C58A C 0.1199(7) 0.8452(3) 0.4678(2)
H57A H 0.0877 0.8500 0.4840
C59A C 0.0974(8) 0.8822(4) 0.4475(2)
H58A H 0.0545 0.9133 0.4502
C60A C 0.1376(8) 0.8735(4) 0.4236(2)
H59A H 0.1218 0.8983 0.4095
C61A C 0.2254(10) 1.0823(4) 0.3921(2)
C62A C 0.281(4) 1.1151(18) 0.3713(7)
H60A H 0.2912 1.0925 0.3559
H61A H 0.3537 1.1281 0.3791
H62A H 0.2337 1.1458 0.3656
C63A C 0.238(4) 1.1119(11) 0.4193(4)
H63A H 0.1659 1.1137 0.4264
H64A H 0.2659 1.1484 0.4168
H65A H 0.2914 1.0925 0.4317
C64A C 0.0990(18) 1.0763(14) 0.3833(8)
H66A H 0.0685 1.0470 0.3933
H67A H 0.0880 1.0682 0.3643
H68A H 0.0607 1.1098 0.3868
N5A N 0.9930(10) 1.0018(4) 0.2704(3)
C65A C 0.9805(12) 1.0334(5) 0.2869(3)
S9A S 0.9899(3) 1.08091(13) 0.30833(9)
N6F N 0.6342(6) 0.7134(3) 0.02278(16)
C66F C 0.5946(7) 0.6884(3) 0.0381(2)
S10F S 0.5454(3) 0.65435(17) 0.06150(9)
Fe1_2 Fe -0.0000 0.92859(7) 0.2500
Fe2A Fe 0.2500 0.7500 0.5000
Fe2B Fe 0.2500 1.2500 0.0000
Fe2C Fe 0.7500 1.2500 0.5000
N1A_2 N 1.1832(8) 0.9253(4) 0.25717(18)
N2_2 N 1.0011(9) 0.8841(4) 0.2108(2)
N3B N 0.8716(6) 0.6826(2) 0.01175(15)
N3D N 0.6284(6) 0.8174(2) -0.01175(15)
N4F N 0.6868(6) 0.6978(2) -0.03503(18)
O1 O 0.8323(6) 0.0143(3) 0.03149(17)
O2 O 0.1437(6) 0.8988(4) 1.00353(16)
loop_
_geom_bond_atom_site_label_1
_geom_bond_atom_site_label_2
_geom_bond_site_symmetry_1
_geom_bond_site_symmetry_2
Fe1 N1 1_555 1_555
Fe2 N4 1_555 1_555
S1 C1 1_555 1_555
C1 C2 1_555 1_555
C2 C3 1_555 1_555
C3 C4 1_555 1_555
C4 H1 1_555 1_555
C5 C4 1_555 1_555
C6 C1 1_555 1_555
H2 C6 1_555 1_555
S2 C2 1_555 1_555
C7 S2 1_555 1_555
H3 C7 1_555 1_555
H4 C7 1_555 1_555
C8 C7 1_555 1_555
C9 C8 1_555 1_555
H5 C9 1_555 1_555
N1 C9 1_555 1_555
C10 N1 1_555 1_555
H6 C10 1_555 1_555
C11 C10 1_555 1_555
H7 C11 1_555 1_555
C12 C8 1_555 1_555
H8 C12 1_555 1_555
C13 C5 1_555 1_555
C14 C13 1_555 1_555
H9 C14 1_555 1_555
H10 C14 1_555 1_555
H11 C14 1_555 1_555
C15 C13 1_555 1_555
H12 C15 1_555 1_555
H13 C15 1_555 1_555
H14 C15 1_555 1_555
C16 C13 1_555 1_555
H15 C16 1_555 1_555
H16 C16 1_555 1_555
H17 C16 1_555 1_555
S3 C3 1_555 1_555
C17 S3 1_555 1_555
C18 C17 1_555 1_555
C19 C18 1_555 1_555
C20 C19 1_555 1_555
H18 C20 1_555 1_555
C21 C20 1_555 1_555
C22 C17 1_555 1_555
H19 C22 1_555 1_555
S4 C18 1_555 1_555
C23 S4 1_555 1_555
H20 C23 1_555 1_555
H21 C23 1_555 1_555
C24 C23 1_555 1_555
C25 C24 1_555 1_555
H22 C25 1_555 1_555
N2 C25 1_555 1_555
C26 N2 1_555 1_555
H23 C26 1_555 1_555
C27 C26 1_555 1_555
H24 C27 1_555 1_555
C28 C24 1_555 1_555
H25 C28 1_555 1_555
C29 C21 1_555 1_555
C30 C29 1_555 1_555
H26 C30 1_555 1_555
H27 C30 1_555 1_555
H28 C30 1_555 1_555
C31 C29 1_555 1_555
H29 C31 1_555 1_555
H30 C31 1_555 1_555
H31 C31 1_555 1_555
C32 C29 1_555 1_555
H32 C32 1_555 1_555
H33 C32 1_555 1_555
H34 C32 1_555 1_555
S5 C19 1_555 1_555
C33 S5 1_555 1_555
C34 C33 1_555 1_555
C35 C34 1_555 1_555
C36 C35 1_555 1_555
H35 C36 1_555 1_555
C37 C36 1_555 1_555
C38 C33 1_555 1_555
H36 C38 1_555 1_555
S6 C34 1_555 1_555
C39 S6 1_555 1_555
H37 C39 1_555 1_555
H38 C39 1_555 1_555
C40 C39 1_555 1_555
C41 C40 1_555 1_555
H39 C41 1_555 1_555
N3 C41 1_555 1_555
C42 N3 1_555 1_555
H40 C42 1_555 1_555
C43 C42 1_555 1_555
H41 C43 1_555 1_555
C44 C40 1_555 1_555
H42 C44 1_555 1_555
C45 C37 1_555 1_555
C46 C45 1_555 1_555
H43 C46 1_555 1_555
H44 C46 1_555 1_555
H45 C46 1_555 1_555
C47 C45 1_555 1_555
H46 C47 1_555 1_555
H47 C47 1_555 1_555
H48 C47 1_555 1_555
C48 C45 1_555 1_555
H49 C48 1_555 1_555
H50 C48 1_555 1_555
H51 C48 1_555 1_555
S7 C35 1_555 1_555
C49 S7 1_555 1_555
C50 C49 1_555 1_555
C51 S1 1_555 1_555
C52 C51 1_555 1_555
H52 C52 1_555 1_555
C53 C52 1_555 1_555
C54 C49 1_555 1_555
H53 C54 1_555 1_555
S8 C50 1_555 1_555
C55 S8 1_555 1_555
H54 C55 1_555 1_555
H55 C55 1_555 1_555
C56 C55 1_555 1_555
C57 C56 1_555 1_555
H56 C57 1_555 1_555
N4 C57 1_555 1_555
C58 N4 1_555 1_555
H57 C58 1_555 1_555
C59 C58 1_555 1_555
H58 C59 1_555 1_555
C60 C56 1_555 1_555
H59 C60 1_555 1_555
C61 C53 1_555 1_555
C62 C61 1_555 1_555
H60 C62 1_555 1_555
H61 C62 1_555 1_555
H62 C62 1_555 1_555
C63 C61 1_555 1_555
H63 C63 1_555 1_555
H64 C63 1_555 1_555
H65 C63 1_555 1_555
C64 C61 1_555 1_555
H66 C64 1_555 1_555
H67 C64 1_555 1_555
H68 C64 1_555 1_555
N5 Fe1 1_555 1_555
C65 N5 1_555 1_555
S9 C65 1_555 1_555
N6 Fe2 1_555 1_555
C66 N6 1_555 1_555
S10 C66 1_555 1_555
S1A C1A 1_555 1_555
C1A C2A 1_555 1_555
C2A C3A 1_555 1_555
C3A C4A 1_555 1_555
C4A H1A 1_555 1_555
C5A C4A 1_555 1_555
C6A C1A 1_555 1_555
H2A C6A 1_555 1_555
S2A C2A 1_555 1_555
C7A S2A 1_555 1_555
H3A C7A 1_555 1_555
H4A C7A 1_555 1_555
C8A C7A 1_555 1_555
C9A C8A 1_555 1_555
H5A C9A 1_555 1_555
N1A C9A 1_555 1_555
C10A N1A 1_555 1_555
H6A C10A 1_555 1_555
C11A C10A 1_555 1_555
H7A C11A 1_555 1_555
C12A C8A 1_555 1_555
H8A C12A 1_555 1_555
C13A C5A 1_555 1_555
C14A C13A 1_555 1_555
H9A C14A 1_555 1_555
H10A C14A 1_555 1_555
H11A C14A 1_555 1_555
C15A C13A 1_555 1_555
H12A C15A 1_555 1_555
H13A C15A 1_555 1_555
H14A C15A 1_555 1_555
C16A C13A 1_555 1_555
H15A C16A 1_555 1_555
H16A C16A 1_555 1_555
H17A C16A 1_555 1_555
S3A C3A 1_555 1_555
C17A S3A 1_555 1_555
C18A C17A 1_555 1_555
C19A C18A 1_555 1_555
C20A C19A 1_555 1_555
H18A C20A 1_555 1_555
C21A C20A 1_555 1_555
C22A C17A 1_555 1_555
H19A C22A 1_555 1_555
S4A C18A 1_555 1_555
C23A S4A 1_555 1_555
H20A C23A 1_555 1_555
H21A C23A 1_555 1_555
C24A C23A 1_555 1_555
C25A C24A 1_555 1_555
H22A C25A 1_555 1_555
N2A Fe1 1_555 1_555
C26A N2A 1_555 1_555
H23A C26A 1_555 1_555
C27A C26A 1_555 1_555
H24A C27A 1_555 1_555
C28A C24A 1_555 1_555
H25A C28A 1_555 1_555
C29A C21A 1_555 1_555
C30A C29A 1_555 1_555
H26A C30A 1_555 1_555
H27A C30A 1_555 1_555
H28A C30A 1_555 1_555
C31A C29A 1_555 1_555
H29A C31A 1_555 1_555
H30A C31A 1_555 1_555
H31A C31A 1_555 1_555
C32A C29A 1_555 1_555
H32A C32A 1_555 1_555
H33A C32A 1_555 1_555
H34A C32A 1_555 1_555
S5A C19A 1_555 1_555
C33A S5A 1_555 1_555
C34A C33A 1_555 1_555
C35A C34A 1_555 1_555
C36A C35A 1_555 1_555
H35A C36A 1_555 1_555
C37A C36A 1_555 1_555
C38A C33A 1_555 1_555
H36A C38A 1_555 1_555
S6A C34A 1_555 1_555
C39A S6A 1_555 1_555
H37A C39A 1_555 1_555
H38A C39A 1_555 1_555
C40A C39A 1_555 1_555
C41A C40A 1_555 1_555
H39A C41A 1_555 1_555
N3A C41A 1_555 1_555
C42A N3A 1_555 1_555
H40A C42A 1_555 1_555
C43A C42A 1_555 1_555
H41A C43A 1_555 1_555
C44A C40A 1_555 1_555
H42A C44A 1_555 1_555
C45A C37A 1_555 1_555
C46A C45A 1_555 1_555
H43A C46A 1_555 1_555
H44A C46A 1_555 1_555
H45A C46A 1_555 1_555
C47A C45A 1_555 1_555
H46A C47A 1_555 1_555
H47A C47A 1_555 1_555
H48A C47A 1_555 1_555
C48A C45A 1_555 1_555
H49A C48A 1_555 1_555
H50A C48A 1_555 1_555
H51A C48A 1_555 1_555
S7A C35A 1_555 1_555
C49A S7A 1_555 1_555
C50A C49A 1_555 1_555
C51A S1A 1_555 1_555
C52A C51A 1_555 1_555
H52A C52A 1_555 1_555
C53A C52A 1_555 1_555
C54A C49A 1_555 1_555
H53A C54A 1_555 1_555
S8A C50A 1_555 1_555
C55A S8A 1_555 1_555
H54A C55A 1_555 1_555
H55A C55A 1_555 1_555
C56A C55A 1_555 1_555
C57A C56A 1_555 1_555
H56A C57A 1_555 1_555
N4A C57A 1_555 1_555
C58A N4A 1_555 1_555
H57A C58A 1_555 1_555
C59A C58A 1_555 1_555
H58A C59A 1_555 1_555
C60A C56A 1_555 1_555
H59A C60A 1_555 1_555
C61A C53A 1_555 1_555
C62A C61A 1_555 1_555
H60A C62A 1_555 1_555
H61A C62A 1_555 1_555
H62A C62A 1_555 1_555
C63A C61A 1_555 1_555
H63A C63A 1_555 1_555
H64A C63A 1_555 1_555
H65A C63A 1_555 1_555
C64A C61A 1_555 1_555
H66A C64A 1_555 1_555
H67A C64A 1_555 1_555
H68A C64A 1_555 1_555
N5A Fe1 1_555 1_555
C65A N5A 1_555 1_555
S9A C65A 1_555 1_555
N6F Fe2 1_555 1_555
C66F N6F 1_555 1_555
S10F C66F 1_555 1_555
Fe1_2 N2 1_555 1_555
Fe2A N4A 1_555 1_555
Fe2B N3 1_555 1_555
Fe2C N3A 1_555 1_555
N1A_2 Fe1 1_555 1_555
N2_2 Fe1 1_555 1_555
N3B Fe2 1_555 1_555
N3D Fe2 1_555 1_555
N4F Fe2 1_555 1_555
C5 C6 1_555 1_555
C11 C12 1_555 1_555
C21 C22 1_555 1_555
C27 C28 1_555 1_555
C37 C38 1_555 1_555
C43 C44 1_555 1_555
C50 C51 1_555 1_555
C53 C54 1_555 1_555
C59 C60 1_555 1_555
C5A C6A 1_555 1_555
N1A Fe1_2 1_555 1_555
C11A C12A 1_555 1_555
C21A C22A 1_555 1_555
C25A N2A 1_555 1_555
C27A C28A 1_555 1_555
C37A C38A 1_555 1_555
C43A C44A 1_555 1_555
C50A C51A 1_555 1_555
C53A C54A 1_555 1_555
C59A C60A 1_555 1_555

#END
