
#######################################################################
#
#                 Cambridge Crystallographic Data Centre
#                                CCDC 
#
#######################################################################
#
# If this CIF has been generated from an entry in the Cambridge 
# Structural Database, then it will include bibliographic, chemical, 
# crystal, experimental, refinement or atomic coordinate data resulting 
# from the CCDC's data processing and validation procedures.
#
#######################################################################

data_IWOKUC
_chemical_formula_moiety         '(C68 H70 Cl6 Fe1 N6 O4 S6)n'
_symmetry_cell_setting           monoclinic
_symmetry_space_group_name_H-M   'C 2/c'
_symmetry_Int_Tables_number      15
_space_group_name_Hall           '-C 2yc'
loop_
_symmetry_equiv_pos_site_id
_symmetry_equiv_pos_as_xyz
1 x,y,z
2 -x,y,1/2-z
3 1/2+x,1/2+y,z
4 1/2-x,1/2+y,1/2-z
5 -x,-y,-z
6 x,-y,1/2+z
7 1/2-x,1/2-y,-z
8 1/2+x,1/2-y,1/2+z
_cell_length_a                   15.923(4)
_cell_length_b                   26.370(7)
_cell_length_c                   20.627(4)
_cell_angle_alpha                90
_cell_angle_beta                 91.005(7)
_cell_angle_gamma                90
_cell_volume                     8659.73
loop_
_atom_site_label
_atom_site_type_symbol
_atom_site_fract_x
_atom_site_fract_y
_atom_site_fract_z
_atom_site_U_iso_or_equiv
_atom_site_thermal_displace_type
Fe1 Fe 0.7500 0.2500 0.5000 0.0189 Uani
S1 S 1.23739(11) 0.01639(7) 0.69862(10) 0.0222 Uani
C1 C 1.1479(4) 0.0415(3) 0.6566(3) 0.0160 Uani
C2 C 1.0805(5) 0.0110(3) 0.6356(4) 0.0219 Uani
C3 C 1.0133(4) 0.0327(3) 0.6019(3) 0.0186 Uani
C4 C 1.0161(4) 0.0840(3) 0.5838(3) 0.0200 Uani
H1 H 0.9705 0.0981 0.5596 0.0240 Uiso
C5 C 1.0855(4) 0.1151(3) 0.6007(3) 0.0183 Uani
C6 C 1.1494(4) 0.0925(3) 0.6393(4) 0.0176 Uani
H2 H 1.1951 0.1129 0.6539 0.0210 Uiso
O1 O 1.0814(3) -0.04094(17) 0.6467(2) 0.0203 Uani
C7 C 1.1313(5) -0.0660(3) 0.5973(4) 0.0285 Uani
H3 H 1.1910 -0.0558 0.6020 0.0340 Uiso
H4 H 1.1110 -0.0559 0.5535 0.0340 Uiso
C8 C 1.1235(5) -0.1225(3) 0.6051(4) 0.0227 Uani
C9 C 1.1749(4) -0.1522(3) 0.5676(4) 0.0200 Uani
H5 H 1.2143 -0.1355 0.5409 0.0240 Uiso
N1 N 1.1726(4) -0.2036(2) 0.5665(3) 0.0233 Uani
C10 C 1.1194(5) -0.2260(3) 0.6060(4) 0.0260 Uani
H6 H 1.1176 -0.2620 0.6064 0.0310 Uiso
C11 C 1.0671(5) -0.2003(3) 0.6462(4) 0.0296 Uani
H7 H 1.0303 -0.2182 0.6739 0.0360 Uiso
C12 C 1.0688(5) -0.1472(3) 0.6459(4) 0.0280 Uani
H8 H 1.0329 -0.1284 0.6733 0.0330 Uiso
C13 C 1.0920(5) 0.1702(3) 0.5783(4) 0.0250 Uani
C14 C 1.1741(5) 0.1769(3) 0.5414(4) 0.0416 Uani
H9 H 1.2212 0.1645 0.5682 0.0620 Uiso
H10 H 1.1825 0.2129 0.5316 0.0620 Uiso
H11 H 1.1710 0.1575 0.5009 0.0620 Uiso
C15 C 1.0954(5) 0.2057(3) 0.6379(4) 0.0324 Uani
H12 H 1.0474 0.1987 0.6656 0.0490 Uiso
H13 H 1.0935 0.2410 0.6234 0.0490 Uiso
H14 H 1.1477 0.1997 0.6625 0.0490 Uiso
C16 C 1.0177(5) 0.1863(3) 0.5352(4) 0.0314 Uani
H15 H 1.0153 0.1649 0.4964 0.0480 Uiso
H16 H 1.0247 0.2218 0.5223 0.0480 Uiso
H17 H 0.9655 0.1826 0.5591 0.0480 Uiso
S2 S 0.92828(12) -0.00511(7) 0.56965(9) 0.0222 Uani
C17 C 0.8778(4) -0.0304(3) 0.6390(4) 0.0184 Uani
C18 C 0.8499(4) -0.0003(3) 0.6880(4) 0.0184 Uani
C19 C 0.8036(4) -0.0217(2) 0.7383(4) 0.0190 Uani
C20 C 0.7844(4) -0.0734(3) 0.7362(4) 0.0213 Uani
H18 H 0.7547 -0.0879 0.7712 0.0260 Uiso
C21 C 0.8066(4) -0.1038(3) 0.6861(4) 0.0191 Uani
C22 C 0.8559(4) -0.0818(3) 0.6372(4) 0.0196 Uani
H19 H 0.8745 -0.1023 0.6024 0.0240 Uiso
O2 O 0.8643(3) 0.05200(17) 0.6872(2) 0.0204 Uani
C23 C 0.7926(5) 0.0776(3) 0.6556(4) 0.0258 Uani
H20 H 0.7414 0.0731 0.6816 0.0310 Uiso
H21 H 0.7820 0.0631 0.6120 0.0310 Uiso
C24 C 0.8135(4) 0.1330(3) 0.6503(4) 0.0220 Uani
C25 C 0.7811(4) 0.1605(3) 0.5982(4) 0.0224 Uani
H22 H 0.7478 0.1431 0.5666 0.0260 Uiso
N2 N 0.7944(4) 0.2107(2) 0.5900(3) 0.0227 Uani
C26 C 0.8401(5) 0.2354(3) 0.6362(4) 0.0240 Uani
H23 H 0.8492 0.2708 0.6315 0.0280 Uiso
C27 C 0.8740(5) 0.2110(3) 0.6898(4) 0.0274 Uani
H24 H 0.9055 0.2295 0.7214 0.0330 Uiso
C28 C 0.8617(5) 0.1593(3) 0.6969(4) 0.0257 Uani
H25 H 0.8856 0.1418 0.7330 0.0310 Uiso
C29 C 0.7765(5) -0.1586(3) 0.6785(4) 0.0253 Uani
C30 C 0.7345(5) -0.1780(3) 0.7395(4) 0.0392 Uani
H26 H 0.7208 -0.2140 0.7342 0.0590 Uiso
H27 H 0.6828 -0.1587 0.7467 0.0590 Uiso
H28 H 0.7728 -0.1737 0.7768 0.0590 Uiso
C31 C 0.8465(6) -0.1947(3) 0.6629(5) 0.0494 Uani
H29 H 0.8877 -0.1951 0.6987 0.0740 Uiso
H30 H 0.8739 -0.1837 0.6231 0.0740 Uiso
H31 H 0.8235 -0.2289 0.6566 0.0740 Uiso
C32 C 0.7099(6) -0.1592(3) 0.6226(4) 0.0394 Uani
H32 H 0.7343 -0.1449 0.5833 0.0590 Uiso
H33 H 0.6612 -0.1388 0.6350 0.0590 Uiso
H34 H 0.6920 -0.1942 0.6142 0.0590 Uiso
N3 N 0.6516(4) 0.1963(2) 0.4894(3) 0.0291 Uani
C33 C 0.5863(5) 0.1780(3) 0.4758(4) 0.0335 Uani
S3 S 0.4969(2) 0.15439(12) 0.4566(2) 0.0924 Uani
S1A S 0.76261(11) 0.01639(7) 0.80138(10) 0.0222 Uani
C1A C 0.8521(4) 0.0415(3) 0.8434(3) 0.0160 Uani
C2A C 0.9195(5) 0.0110(3) 0.8644(4) 0.0219 Uani
C3A C 0.9867(4) 0.0327(3) 0.8981(3) 0.0186 Uani
C4A C 0.9839(4) 0.0840(3) 0.9162(3) 0.0200 Uani
H1A H 1.0295 0.0981 0.9404 0.0240 Uiso
C5A C 0.9145(4) 0.1151(3) 0.8993(3) 0.0183 Uani
C6A C 0.8506(4) 0.0925(3) 0.8607(4) 0.0176 Uani
H2A H 0.8049 0.1129 0.8461 0.0210 Uiso
O1A O 0.9186(3) -0.04094(17) 0.8533(2) 0.0203 Uani
C7A C 0.8687(5) -0.0660(3) 0.9027(4) 0.0285 Uani
H3A H 0.8090 -0.0558 0.8980 0.0340 Uiso
H4A H 0.8890 -0.0559 0.9465 0.0340 Uiso
C8A C 0.8765(5) -0.1225(3) 0.8949(4) 0.0227 Uani
C9A C 0.8251(4) -0.1522(3) 0.9324(4) 0.0200 Uani
H5A H 0.7857 -0.1355 0.9591 0.0240 Uiso
N1A N 0.8274(4) -0.2036(2) 0.9335(3) 0.0233 Uani
C10A C 0.8806(5) -0.2260(3) 0.8940(4) 0.0260 Uani
H6A H 0.8824 -0.2620 0.8936 0.0310 Uiso
C11A C 0.9329(5) -0.2003(3) 0.8538(4) 0.0296 Uani
H7A H 0.9697 -0.2182 0.8261 0.0360 Uiso
C12A C 0.9312(5) -0.1472(3) 0.8541(4) 0.0280 Uani
H8A H 0.9671 -0.1284 0.8267 0.0330 Uiso
C13A C 0.9080(5) 0.1702(3) 0.9217(4) 0.0250 Uani
C14A C 0.8259(5) 0.1769(3) 0.9586(4) 0.0416 Uani
H9A H 0.7788 0.1645 0.9318 0.0620 Uiso
H10A H 0.8175 0.2129 0.9684 0.0620 Uiso
H11A H 0.8290 0.1575 0.9991 0.0620 Uiso
C15A C 0.9046(5) 0.2057(3) 0.8621(4) 0.0324 Uani
H12A H 0.9526 0.1987 0.8344 0.0490 Uiso
H13A H 0.9065 0.2410 0.8766 0.0490 Uiso
H14A H 0.8523 0.1997 0.8375 0.0490 Uiso
C16A C 0.9823(5) 0.1863(3) 0.9648(4) 0.0314 Uani
H15A H 0.9847 0.1649 1.0036 0.0480 Uiso
H16A H 0.9753 0.2218 0.9777 0.0480 Uiso
H17A H 1.0345 0.1826 0.9409 0.0480 Uiso
S2A S 1.07172(12) -0.00511(7) 0.93035(9) 0.0222 Uani
C17A C 1.1222(4) -0.0304(3) 0.8610(4) 0.0184 Uani
C18A C 1.1501(4) -0.0003(3) 0.8120(4) 0.0184 Uani
C19A C 1.1964(4) -0.0217(2) 0.7617(4) 0.0190 Uani
C20A C 1.2156(4) -0.0734(3) 0.7638(4) 0.0213 Uani
H18A H 1.2453 -0.0879 0.7288 0.0260 Uiso
C21A C 1.1934(4) -0.1038(3) 0.8139(4) 0.0191 Uani
C22A C 1.1441(4) -0.0818(3) 0.8628(4) 0.0196 Uani
H19A H 1.1255 -0.1023 0.8976 0.0240 Uiso
O2A O 1.1357(3) 0.05200(17) 0.8128(2) 0.0204 Uani
C23A C 1.2074(5) 0.0776(3) 0.8444(4) 0.0258 Uani
H20A H 1.2586 0.0731 0.8184 0.0310 Uiso
H21A H 1.2180 0.0631 0.8880 0.0310 Uiso
C24A C 1.1865(4) 0.1330(3) 0.8497(4) 0.0220 Uani
C25A C 1.2189(4) 0.1605(3) 0.9018(4) 0.0224 Uani
H22A H 1.2522 0.1431 0.9334 0.0260 Uiso
N2A N 1.2056(4) 0.2107(2) 0.9100(3) 0.0227 Uani
C26A C 1.1599(5) 0.2354(3) 0.8638(4) 0.0240 Uani
H23A H 1.1508 0.2708 0.8685 0.0280 Uiso
C27A C 1.1260(5) 0.2110(3) 0.8102(4) 0.0274 Uani
H24A H 1.0945 0.2295 0.7786 0.0330 Uiso
C28A C 1.1383(5) 0.1593(3) 0.8031(4) 0.0257 Uani
H25A H 1.1144 0.1418 0.7670 0.0310 Uiso
C29A C 1.2235(5) -0.1586(3) 0.8215(4) 0.0253 Uani
C30A C 1.2655(5) -0.1780(3) 0.7605(4) 0.0392 Uani
H26A H 1.2792 -0.2140 0.7658 0.0590 Uiso
H27A H 1.3172 -0.1587 0.7533 0.0590 Uiso
H28A H 1.2272 -0.1737 0.7232 0.0590 Uiso
C31A C 1.1535(6) -0.1947(3) 0.8371(5) 0.0494 Uani
H29A H 1.1123 -0.1951 0.8013 0.0740 Uiso
H30A H 1.1261 -0.1837 0.8769 0.0740 Uiso
H31A H 1.1765 -0.2289 0.8434 0.0740 Uiso
C32A C 1.2901(6) -0.1592(3) 0.8774(4) 0.0394 Uani
H32A H 1.2657 -0.1449 0.9167 0.0590 Uiso
H33A H 1.3388 -0.1388 0.8650 0.0590 Uiso
H34A H 1.3080 -0.1942 0.8858 0.0590 Uiso
N3F N 0.8484(4) 0.3037(2) 0.5106(3) 0.0291 Uani
C33F C 0.9137(5) 0.3220(3) 0.5242(4) 0.0335 Uani
S3F S 1.0031(2) 0.34561(12) 0.5434(2) 0.0924 Uani
Fe1A Fe 1.2500 0.2500 1.0000 0.0189 Uani
Fe1B Fe 1.2500 -0.2500 0.5000 0.0189 Uani
Fe1C Fe 0.7500 -0.2500 1.0000 0.0189 Uani
N1B N 0.6726(4) 0.2964(2) 0.5665(3) 0.0233 Uani
N1D N 0.8274(4) 0.2036(2) 0.4335(3) 0.0233 Uani
N2F N 0.7056(4) 0.2893(2) 0.4100(3) 0.0227 Uani
C34 C 0.3733(6) 0.0211(4) 0.4775(6) 0.0602 Uani
H35 H 0.4182 0.0455 0.4915 0.0720 Uiso
Cl1 Cl 0.36499(19) 0.02196(12) 0.39541(16) 0.0727 Uani
Cl2 Cl 0.27317(18) 0.04130(14) 0.51154(17) 0.0788 Uani
Cl3 Cl 0.3977(2) -0.03873(14) 0.5082(2) 0.1012 Uani
C35 C 0.4846(7) 0.1253(5) 0.6275(8) 0.0921 Uani
H36 H 0.4958 0.1250 0.5799 0.1100 Uiso
Cl4 Cl 0.4190(4) 0.1767(2) 0.6438(4) 0.2021 Uani
Cl5 Cl 0.4378(3) 0.07073(17) 0.6466(3) 0.1348 Uani
Cl6 Cl 0.5762(2) 0.13424(18) 0.6672(3) 0.1278 Uani
loop_
_atom_site_aniso_label
_atom_site_aniso_U_11
_atom_site_aniso_U_22
_atom_site_aniso_U_33
_atom_site_aniso_U_23
_atom_site_aniso_U_13
_atom_site_aniso_U_12
Fe1 0.0267(8) 0.0047(6) 0.0252(9) 0.0008(6) -0.0003(6) 0.0034(6)
S1 0.0221(9) 0.0165(9) 0.0280(12) 0.0043(8) 0.0007(8) 0.0008(7)
C1 0.024(4) 0.012(3) 0.012(4) 0.003(3) 0.000(3) 0.000(3)
C2 0.036(4) 0.009(3) 0.021(4) -0.001(3) 0.008(3) 0.002(3)
C3 0.026(4) 0.015(4) 0.015(4) -0.003(3) 0.002(3) -0.005(3)
C4 0.025(4) 0.017(4) 0.018(4) -0.001(3) -0.001(3) -0.003(3)
C5 0.023(4) 0.014(3) 0.018(4) -0.004(3) 0.002(3) 0.001(3)
C6 0.016(3) 0.010(3) 0.027(4) -0.003(3) 0.003(3) -0.002(3)
O1 0.034(3) 0.005(2) 0.022(3) -0.001(2) 0.007(2) 0.000(2)
C7 0.050(5) 0.014(4) 0.022(5) 0.000(3) 0.014(4) 0.004(3)
C8 0.028(4) 0.017(4) 0.023(5) -0.001(3) -0.003(3) -0.003(3)
C9 0.022(4) 0.011(3) 0.027(5) 0.000(3) 0.003(3) 0.003(3)
N1 0.032(3) 0.004(3) 0.034(4) 0.000(3) 0.002(3) 0.005(2)
C10 0.031(4) 0.015(4) 0.032(5) 0.006(3) 0.004(4) 0.001(3)
C11 0.033(4) 0.017(4) 0.039(5) 0.009(4) 0.010(4) -0.001(3)
C12 0.028(4) 0.021(4) 0.035(5) -0.004(4) 0.004(3) 0.003(3)
C13 0.042(5) 0.013(4) 0.020(5) 0.000(3) -0.003(3) -0.007(3)
C14 0.049(5) 0.035(5) 0.041(6) 0.019(4) 0.003(4) -0.011(4)
C15 0.043(5) 0.009(4) 0.045(6) -0.001(4) -0.002(4) -0.002(3)
C16 0.042(5) 0.013(4) 0.039(6) 0.002(4) -0.007(4) 0.003(3)
S2 0.0301(10) 0.0159(9) 0.0205(12) -0.0003(8) -0.0019(8) -0.0083(8)
C17 0.020(4) 0.012(3) 0.023(5) -0.003(3) -0.005(3) 0.001(3)
C18 0.016(3) 0.011(3) 0.028(5) 0.000(3) -0.007(3) -0.007(3)
C19 0.027(4) 0.009(3) 0.021(4) 0.000(3) 0.001(3) -0.004(3)
C20 0.029(4) 0.012(4) 0.023(5) -0.001(3) 0.001(3) -0.003(3)
C21 0.019(4) 0.015(4) 0.023(5) 0.002(3) -0.004(3) -0.001(3)
C22 0.024(4) 0.009(3) 0.026(5) -0.002(3) 0.003(3) -0.001(3)
O2 0.023(3) 0.009(2) 0.029(3) 0.002(2) -0.002(2) 0.001(2)
C23 0.028(4) 0.014(4) 0.035(5) 0.003(3) -0.013(3) -0.004(3)
C24 0.020(4) 0.015(4) 0.031(5) 0.001(3) 0.003(3) 0.005(3)
C25 0.030(4) 0.007(3) 0.030(5) 0.004(3) -0.003(3) 0.001(3)
N2 0.031(3) 0.010(3) 0.027(4) 0.001(3) -0.001(3) 0.005(3)
C26 0.032(4) 0.015(4) 0.025(5) 0.000(3) 0.002(3) 0.001(3)
C27 0.037(4) 0.025(4) 0.020(5) -0.002(4) -0.004(3) 0.005(4)
C28 0.038(4) 0.019(4) 0.020(5) 0.008(3) -0.001(3) 0.008(3)
C29 0.031(4) 0.009(3) 0.036(5) -0.003(3) 0.007(4) -0.007(3)
C30 0.041(5) 0.020(4) 0.057(6) 0.001(4) 0.010(4) -0.011(4)
C31 0.044(5) 0.013(4) 0.092(8) -0.004(5) 0.021(5) -0.002(4)
C32 0.046(5) 0.029(5) 0.043(6) -0.002(4) -0.004(4) -0.018(4)
N3 0.035(4) 0.018(3) 0.034(4) 0.003(3) -0.004(3) 0.000(3)
C33 0.037(5) 0.020(4) 0.043(6) 0.005(4) -0.014(4) -0.007(4)
S3 0.0629(19) 0.051(2) 0.161(4) 0.025(2) -0.061(2) -0.0229(16)
S1A 0.0221 0.0165 0.028 -0.0043 0.0007 -0.0008
C1A 0.024 0.012 0.012 -0.003 0 0
C2A 0.036 0.009 0.021 0.001 0.008 -0.002
C3A 0.026 0.015 0.015 0.003 0.002 0.005
C4A 0.025 0.017 0.018 0.001 -0.001 0.003
C5A 0.023 0.014 0.018 0.004 0.002 -0.001
C6A 0.016 0.01 0.027 0.003 0.003 0.002
O1A 0.034 0.005 0.022 0.001 0.007 0
C7A 0.05 0.014 0.022 0 0.014 -0.004
C8A 0.028 0.017 0.023 0.001 -0.003 0.003
C9A 0.022 0.011 0.027 0 0.003 -0.003
N1A 0.032 0.004 0.034 0 0.002 -0.005
C10A 0.031 0.015 0.032 -0.006 0.004 -0.001
C11A 0.033 0.017 0.039 -0.009 0.01 0.001
C12A 0.028 0.021 0.035 0.004 0.004 -0.003
C13A 0.042 0.013 0.02 0 -0.003 0.007
C14A 0.049 0.035 0.041 -0.019 0.003 0.011
C15A 0.043 0.009 0.045 0.001 -0.002 0.002
C16A 0.042 0.013 0.039 -0.002 -0.007 -0.003
S2A 0.0301 0.0159 0.0205 0.0003 -0.0019 0.0083
C17A 0.02 0.012 0.023 0.003 -0.005 -0.001
C18A 0.016 0.011 0.028 0 -0.007 0.007
C19A 0.027 0.009 0.021 0 0.001 0.004
C20A 0.029 0.012 0.023 0.001 0.001 0.003
C21A 0.019 0.015 0.023 -0.002 -0.004 0.001
C22A 0.024 0.009 0.026 0.002 0.003 0.001
O2A 0.023 0.009 0.029 -0.002 -0.002 -0.001
C23A 0.028 0.014 0.035 -0.003 -0.013 0.004
C24A 0.02 0.015 0.031 -0.001 0.003 -0.005
C25A 0.03 0.007 0.03 -0.004 -0.003 -0.001
N2A 0.031 0.01 0.027 -0.001 -0.001 -0.005
C26A 0.032 0.015 0.025 0 0.002 -0.001
C27A 0.037 0.025 0.02 0.002 -0.004 -0.005
C28A 0.038 0.019 0.02 -0.008 -0.001 -0.008
C29A 0.031 0.009 0.036 0.003 0.007 0.007
C30A 0.041 0.02 0.057 -0.001 0.01 0.011
C31A 0.044 0.013 0.092 0.004 0.021 0.002
C32A 0.046 0.029 0.043 0.002 -0.004 0.018
N3F 0.035 0.018 0.034 0.003 -0.004 0
C33F 0.037 0.02 0.043 0.005 -0.014 -0.007
S3F 0.0629 0.051 0.161 0.025 -0.061 -0.0229
Fe1A 0.0267 0.0047 0.0252 -0.0008 -0.0003 -0.0034
Fe1B 0.0267 0.0047 0.0252 0.0008 -0.0003 0.0034
Fe1C 0.0267 0.0047 0.0252 -0.0008 -0.0003 -0.0034
N1B 0.032 0.004 0.034 0 0.002 0.005
N1D 0.032 0.004 0.034 0 0.002 0.005
N2F 0.031 0.01 0.027 0.001 -0.001 0.005
C34 0.048(6) 0.037(6) 0.095(10) 0.000(6) -0.017(6) 0.004(5)
Cl1 0.071(2) 0.062(2) 0.085(2) -0.0070(17) 0.0013(17) -0.0021(15)
Cl2 0.0567(18) 0.090(3) 0.090(2) 0.0156(19) 0.0063(15) 0.0227(17)
Cl3 0.097(3) 0.058(2) 0.148(4) 0.029(2) -0.014(2) 0.0221(19)
C35 0.055(8) 0.072(10) 0.149(14) 0.000(9) -0.003(8) -0.014(7)
Cl4 0.151(5) 0.112(5) 0.341(9) -0.063(5) -0.059(5) 0.072(4)
Cl5 0.145(4) 0.080(3) 0.181(5) -0.016(3) 0.048(3) -0.060(3)
Cl6 0.066(2) 0.118(4) 0.199(5) 0.039(3) -0.006(3) -0.014(2)
loop_
_geom_bond_atom_site_label_1
_geom_bond_atom_site_label_2
_geom_bond_site_symmetry_1
_geom_bond_site_symmetry_2
Fe1 N2 1_555 1_555
S1 C1 1_555 1_555
C1 C2 1_555 1_555
C2 C3 1_555 1_555
C3 C4 1_555 1_555
C4 H1 1_555 1_555
C5 C4 1_555 1_555
C6 C1 1_555 1_555
H2 C6 1_555 1_555
O1 C2 1_555 1_555
C7 O1 1_555 1_555
H3 C7 1_555 1_555
H4 C7 1_555 1_555
C8 C7 1_555 1_555
C9 C8 1_555 1_555
H5 C9 1_555 1_555
N1 C9 1_555 1_555
C10 N1 1_555 1_555
H6 C10 1_555 1_555
C11 C10 1_555 1_555
H7 C11 1_555 1_555
C12 C8 1_555 1_555
H8 C12 1_555 1_555
C13 C5 1_555 1_555
C14 C13 1_555 1_555
H9 C14 1_555 1_555
H10 C14 1_555 1_555
H11 C14 1_555 1_555
C15 C13 1_555 1_555
H12 C15 1_555 1_555
H13 C15 1_555 1_555
H14 C15 1_555 1_555
C16 C13 1_555 1_555
H15 C16 1_555 1_555
H16 C16 1_555 1_555
H17 C16 1_555 1_555
S2 C3 1_555 1_555
C17 S2 1_555 1_555
C18 C17 1_555 1_555
C19 C18 1_555 1_555
C20 C19 1_555 1_555
H18 C20 1_555 1_555
C21 C20 1_555 1_555
C22 C17 1_555 1_555
H19 C22 1_555 1_555
O2 C18 1_555 1_555
C23 O2 1_555 1_555
H20 C23 1_555 1_555
H21 C23 1_555 1_555
C24 C23 1_555 1_555
C25 C24 1_555 1_555
H22 C25 1_555 1_555
N2 C25 1_555 1_555
C26 N2 1_555 1_555
H23 C26 1_555 1_555
C27 C26 1_555 1_555
H24 C27 1_555 1_555
C28 C24 1_555 1_555
H25 C28 1_555 1_555
C29 C21 1_555 1_555
C30 C29 1_555 1_555
H26 C30 1_555 1_555
H27 C30 1_555 1_555
H28 C30 1_555 1_555
C31 C29 1_555 1_555
H29 C31 1_555 1_555
H30 C31 1_555 1_555
H31 C31 1_555 1_555
C32 C29 1_555 1_555
H32 C32 1_555 1_555
H33 C32 1_555 1_555
H34 C32 1_555 1_555
N3 Fe1 1_555 1_555
C33 N3 1_555 1_555
S3 C33 1_555 1_555
C34 H35 1_555 1_555
Cl1 C34 1_555 1_555
Cl2 C34 1_555 1_555
Cl3 C34 1_555 1_555
C35 H36 1_555 1_555
Cl4 C35 1_555 1_555
Cl5 C35 1_555 1_555
Cl6 C35 1_555 1_555
S1A C19 1_555 1_555
C1A S1A 1_555 1_555
C2A C1A 1_555 1_555
C3A C2A 1_555 1_555
C4A C3A 1_555 1_555
H1A C4A 1_555 1_555
C5A C4A 1_555 1_555
C6A C1A 1_555 1_555
H2A C6A 1_555 1_555
O1A C2A 1_555 1_555
C7A O1A 1_555 1_555
H3A C7A 1_555 1_555
H4A C7A 1_555 1_555
C8A C7A 1_555 1_555
C9A C8A 1_555 1_555
H5A C9A 1_555 1_555
N1A C9A 1_555 1_555
C10A N1A 1_555 1_555
H6A C10A 1_555 1_555
C11A C10A 1_555 1_555
H7A C11A 1_555 1_555
C12A C8A 1_555 1_555
H8A C12A 1_555 1_555
C13A C5A 1_555 1_555
C14A C13A 1_555 1_555
H9A C14A 1_555 1_555
H10A C14A 1_555 1_555
H11A C14A 1_555 1_555
C15A C13A 1_555 1_555
H12A C15A 1_555 1_555
H13A C15A 1_555 1_555
H14A C15A 1_555 1_555
C16A C13A 1_555 1_555
H15A C16A 1_555 1_555
H16A C16A 1_555 1_555
H17A C16A 1_555 1_555
S2A C3A 1_555 1_555
C17A S2A 1_555 1_555
C18A C17A 1_555 1_555
C19A S1 1_555 1_555
C20A C19A 1_555 1_555
H18A C20A 1_555 1_555
C21A C20A 1_555 1_555
C22A C17A 1_555 1_555
H19A C22A 1_555 1_555
O2A C18A 1_555 1_555
C23A O2A 1_555 1_555
H20A C23A 1_555 1_555
H21A C23A 1_555 1_555
C24A C23A 1_555 1_555
C25A C24A 1_555 1_555
H22A C25A 1_555 1_555
N2A C25A 1_555 1_555
C26A N2A 1_555 1_555
H23A C26A 1_555 1_555
C27A C26A 1_555 1_555
H24A C27A 1_555 1_555
C28A C24A 1_555 1_555
H25A C28A 1_555 1_555
C29A C21A 1_555 1_555
C30A C29A 1_555 1_555
H26A C30A 1_555 1_555
H27A C30A 1_555 1_555
H28A C30A 1_555 1_555
C31A C29A 1_555 1_555
H29A C31A 1_555 1_555
H30A C31A 1_555 1_555
H31A C31A 1_555 1_555
C32A C29A 1_555 1_555
H32A C32A 1_555 1_555
H33A C32A 1_555 1_555
H34A C32A 1_555 1_555
N3F Fe1 1_555 1_555
C33F N3F 1_555 1_555
S3F C33F 1_555 1_555
Fe1A N2A 1_555 1_555
Fe1B N1 1_555 1_555
Fe1C N1A 1_555 1_555
N1B Fe1 1_555 1_555
N1D Fe1 1_555 1_555
N2F Fe1 1_555 1_555
C5 C6 1_555 1_555
C11 C12 1_555 1_555
C21 C22 1_555 1_555
C27 C28 1_555 1_555
C5A C6A 1_555 1_555
C11A C12A 1_555 1_555
C18A C19A 1_555 1_555
C21A C22A 1_555 1_555
C27A C28A 1_555 1_555

#END
