
#######################################################################
#
#                 Cambridge Crystallographic Data Centre
#                                CCDC 
#
#######################################################################
#
# If this CIF has been generated from an entry in the Cambridge 
# Structural Database, then it will include bibliographic, chemical, 
# crystal, experimental, refinement or atomic coordinate data resulting 
# from the CCDC's data processing and validation procedures.
#
#######################################################################

data_ENAFAB
_chemical_formula_moiety         '(C39 H54 N6 Ni3 O68 P2 W18)n'
_symmetry_cell_setting           cubic
_symmetry_space_group_name_H-M   'P m -3 n'
_symmetry_Int_Tables_number      223
_space_group_name_Hall           '-P 4n 2 3'
loop_
_symmetry_equiv_pos_site_id
_symmetry_equiv_pos_as_xyz
1 x,y,z
2 -x,-y,z
3 -x,y,-z
4 x,-y,-z
5 z,x,y
6 z,-x,-y
7 -z,-x,y
8 -z,x,-y
9 y,z,x
10 -y,z,-x
11 y,-z,-x
12 -y,-z,x
13 1/2+y,1/2+x,1/2-z
14 1/2-y,1/2-x,1/2-z
15 1/2+y,1/2-x,1/2+z
16 1/2-y,1/2+x,1/2+z
17 1/2+x,1/2+z,1/2-y
18 1/2-x,1/2+z,1/2+y
19 1/2-x,1/2-z,1/2-y
20 1/2+x,1/2-z,1/2+y
21 1/2+z,1/2+y,1/2-x
22 1/2+z,1/2-y,1/2+x
23 1/2-z,1/2+y,1/2+x
24 1/2-z,1/2-y,1/2-x
25 -x,-y,-z
26 x,y,-z
27 x,-y,z
28 -x,y,z
29 -z,-x,-y
30 -z,x,y
31 z,x,-y
32 z,-x,y
33 -y,-z,-x
34 y,-z,x
35 -y,z,x
36 y,z,-x
37 1/2-y,1/2-x,1/2+z
38 1/2+y,1/2+x,1/2+z
39 1/2-y,1/2+x,1/2-z
40 1/2+y,1/2-x,1/2-z
41 1/2-x,1/2-z,1/2+y
42 1/2+x,1/2-z,1/2-y
43 1/2+x,1/2+z,1/2+y
44 1/2-x,1/2+z,1/2-y
45 1/2-z,1/2-y,1/2+x
46 1/2-z,1/2+y,1/2-x
47 1/2+z,1/2-y,1/2-x
48 1/2+z,1/2+y,1/2+x
_cell_length_a                   29.557(3)
_cell_length_b                   29.557(3)
_cell_length_c                   29.557(3)
_cell_angle_alpha                90
_cell_angle_beta                 90
_cell_angle_gamma                90
_cell_volume                     25821.5
loop_
_atom_site_label
_atom_site_type_symbol
_atom_site_fract_x
_atom_site_fract_y
_atom_site_fract_z
W1 W 0.26416(3) 0.11919(3) 0.25981(3)
O1 O 0.2745(5) 0.0674(5) 0.2846(5)
Ni1 Ni 0.2759 0.00000(13) 0.28957(13)
O2 O 0.2167 0.0000(10) 0.2496(10)
O3 O 0.3140 0.0000(13) 0.2297(11)
N1 N 0.3348 0.0000(8) 0.3299(9)
N2 N 0.2349 -0.0000(10) 0.3432(9)
C1 C 0.3548(10) 0.0383(9) 0.3404(10)
C2 C 0.2198(8) 0.0391(11) 0.3646(10)
H1 H 0.3424 0.0658 0.3292
C3 C 0.3928(9) 0.0403(10) 0.3670(11)
H2 H 0.2314 0.0672 0.3542
C4 C 0.1888(9) 0.0400(13) 0.4003(12)
O4 O 0.2545(4) -0.1844(4) 0.2209(4)
O5 O 0.2199(5) -0.1417(5) 0.2997(5)
O6 O 0.3088(5) -0.1511(5) 0.2905(6)
O7 O 0.2142(5) -0.0987(5) 0.2225(6)
O8 O 0.3034(5) -0.1140(5) 0.2082(5)
H3 H 0.4050 0.0687 0.3759
C5 C 0.4131 0.0000(12) 0.3808(13)
H4 H 0.1784 0.0683 0.4114
C6 C 0.1728 0.0000(14) 0.4199(13)
P1 P 0.21076(17) -0.21076(17) 0.21076(17)
W2 W 0.30973(3) -0.16109(3) 0.16581(3)
W3 W 0.15499(4) -0.10729(4) 0.19980(4)
C7 C 0.4565 0.0000(12) 0.4104(13)
C8 C 0.1386 0.0000(12) 0.4578(11)
O9 O 0.1800(5) -0.1800(5) 0.1800(5)
O10 O 0.2564(5) -0.1428(5) 0.1345(5)
O11 O 0.3502(6) -0.1406(6) 0.1311(5)
O12 O 0.1331(5) -0.0561(6) 0.2052(6)
O13 O 0.1030(5) -0.1390(6) 0.1779(5)
H5 H 0.4565 0.0271 0.4301
C9 C 0.5000 0.0000 0.3810(19)
H6 H 0.1192 -0.0273 0.4566
C10 C 0.1680 0.000(2) 0.5000
H7 H 0.5000 0.0271 0.3613
H8 H 0.1872 -0.0271 0.5000
O1Z O 0.2745(5) -0.0674(5) 0.2846(5)
C1Z C 0.3548(10) -0.0383(9) 0.3404(10)
C2Z C 0.2198(8) -0.0391(11) 0.3646(10)
W1Z W 0.26416(3) -0.11919(3) 0.25981(3)
C3Z C 0.3928(9) -0.0403(10) 0.3670(11)
H1Z H 0.3424 -0.0658 0.3292
C4Z C 0.1888(9) -0.0400(13) 0.4003(12)
H2Z H 0.2314 -0.0672 0.3542
H3Z H 0.4050 -0.0687 0.3759
H4Z H 0.1784 -0.0683 0.4114
W2K W 0.16109(3) -0.16581(3) 0.30973(3)
W2L W 0.33891(3) -0.19027(3) 0.33419(3)
O4K O 0.1844(4) -0.2209(4) 0.2545(4)
O4E O 0.2209(4) -0.2545(4) 0.1844(4)
O5E O 0.2997(5) -0.2199(5) 0.1417(5)
O6L O 0.3489(5) -0.1912(5) 0.2095(6)
O10K O 0.1428(5) -0.1345(5) 0.2564(5)
O8K O 0.1140(5) -0.2082(5) 0.3034(5)
O11K O 0.1406(6) -0.1311(5) 0.3502(6)
O6Q O 0.1912(5) -0.2095(6) 0.3489(5)
O4L O 0.3156(4) -0.2455(4) 0.2791(4)
O10L O 0.3572(5) -0.2436(5) 0.3655(5)
O8L O 0.3860(5) -0.1966(5) 0.2918(5)
O11L O 0.3594(6) -0.1498(6) 0.3689(5)
O5Q O 0.2801(5) -0.2003(5) 0.3583(5)
O13E O 0.1779(5) -0.1030(5) 0.1390(6)
H5Z H 0.4565 -0.0271 0.4301
H6Z H 0.1192 0.0273 0.4566
W3E W 0.19980(4) -0.15499(4) 0.10729(4)
W3K W 0.10729(4) -0.19980(4) 0.15499(4)
W1GA W 0.11919(3) -0.25981(3) 0.26416(3)
W2E W 0.16581(3) -0.30973(3) 0.16109(3)
W1EA W 0.25981(3) -0.26416(3) 0.11919(3)
W1LA W 0.38081(3) -0.23584(3) 0.24019(3)
W1QA W 0.23584(3) -0.24019(3) 0.38081(3)
P1L P 0.28924(17) -0.28924(17) 0.28924(17)
W3Q W 0.34501(4) -0.30020(4) 0.39271(4)
C7A C 0.5435 0.0000(12) 0.4104(13)
H7A H 0.5000 -0.0271 0.3613
C8C C 0.1386 0.0000(12) 0.5422(11)
H8C H 0.1872 0.0271 0.5000
O7E O 0.2225(6) -0.2142(5) 0.0987(5)
O12E O 0.2052(6) -0.1331(5) 0.0561(6)
O13K O 0.1390(6) -0.1779(5) 0.1030(5)
O10E O 0.1345(5) -0.2564(5) 0.1428(5)
O7K O 0.0987(5) -0.2225(6) 0.2142(5)
O12K O 0.0561(6) -0.2052(6) 0.1331(5)
O5K O 0.1417(5) -0.2997(5) 0.2199(5)
O6K O 0.1511(5) -0.2905(6) 0.3088(5)
O1GA O 0.0674(5) -0.2846(5) 0.2745(5)
O8E O 0.2082(5) -0.3034(5) 0.1140(5)
O11E O 0.1311(5) -0.3502(6) 0.1406(6)
O6W O 0.2095(6) -0.3489(5) 0.1912(5)
O6E O 0.2905(6) -0.3088(5) 0.1511(5)
O1EA O 0.2846(5) -0.2745(5) 0.0674(5)
O5L O 0.3583(5) -0.2801(5) 0.2003(5)
O1LA O 0.4326(5) -0.2255(5) 0.2154(5)
O7L O 0.4013(5) -0.2858(5) 0.2775(6)
O4Q O 0.2455(4) -0.2791(4) 0.3156(4)
O8Q O 0.1966(5) -0.2918(5) 0.3860(5)
O1QA O 0.2255(5) -0.2154(5) 0.4326(5)
O7Q O 0.2858(5) -0.2775(6) 0.4013(5)
O9L O 0.3200(5) -0.3200(5) 0.3200(5)
O4W O 0.2791(4) -0.3156(4) 0.2455(4)
O13Q O 0.3970(5) -0.3221(5) 0.3610(6)
O12Q O 0.3669(5) -0.2948(6) 0.4439(6)
O13W O 0.3221(5) -0.3610(6) 0.3970(5)
C5A C 0.5869 0.0000(12) 0.3808(13)
H5A H 0.5435 -0.0271 0.4301
H5AA H 0.5435 0.0271 0.4301
C6C C 0.1728 0.0000(14) 0.5801(13)
H6C H 0.1192 0.0273 0.5434
H6Y H 0.1192 -0.0273 0.5434
W2Q W 0.19027(3) -0.33419(3) 0.33891(3)
Ni1K Ni -0.00000(13) -0.28957(13) 0.2759
W1SA W 0.24019(3) -0.38081(3) 0.23584(3)
W2W W 0.33419(3) -0.33891(3) 0.19027(3)
Ni1L Ni 0.50000(13) -0.2241 0.21043(13)
W3L W 0.39271(4) -0.34501(4) 0.30020(4)
Ni1Q Ni 0.2241 -0.21043(13) 0.50000(13)
W3W W 0.30020(4) -0.39271(4) 0.34501(4)
Ni1A Ni 0.7241 0.00000(13) 0.28957(13)
C3A C 0.6072(9) -0.0403(10) 0.3670(11)
C3AA C 0.6072(9) 0.0403(10) 0.3670(11)
C4C C 0.1888(9) -0.0400(13) 0.5997(12)
C4Y C 0.1888(9) 0.0400(13) 0.5997(12)
O10Q O 0.2436(5) -0.3655(5) 0.3572(5)
O11Q O 0.1498(6) -0.3689(5) 0.3594(6)
O5W O 0.2003(5) -0.3583(5) 0.2801(5)
O2K O 0.0000(10) -0.2496(10) 0.2167
O3K O -0.0000(13) -0.2297(11) 0.3140
N1K N 0.0000(8) -0.3299(9) 0.3348
O1K O -0.0674(5) -0.2846(5) 0.2745(5)
O8W O 0.2918(5) -0.3860(5) 0.1966(5)
O1SA O 0.2154(5) -0.4326(5) 0.2255(5)
O7W O 0.2775(6) -0.4013(5) 0.2858(5)
O10W O 0.3655(5) -0.3572(5) 0.2436(5)
O11W O 0.3689(5) -0.3594(6) 0.1498(6)
O2L O 0.5000(10) -0.2833 0.2504(10)
O3L O 0.5000(13) -0.1860 0.2703(11)
N1L N 0.5000(8) -0.1652 0.1701(9)
N2L N 0.5000(10) -0.2651 0.1568(9)
O1L O 0.5674(5) -0.2255(5) 0.2154(5)
O12L O 0.4439(6) -0.3669(5) 0.2948(6)
O13L O 0.3610(6) -0.3970(5) 0.3221(5)
N2Q N 0.2651 -0.1568(9) 0.5000(10)
N1Q N 0.1652 -0.1701(9) 0.5000(8)
O2Q O 0.2833 -0.2504(10) 0.5000(10)
O1Q O 0.2255(5) -0.2154(5) 0.5674(5)
O3Q O 0.1860 -0.2703(11) 0.5000(13)
O12W O 0.2948(6) -0.4439(6) 0.3669(5)
N1A N 0.6652 0.0000(8) 0.3299(9)
C1A C 0.6452(10) -0.0383(9) 0.3404(10)
H3A H 0.5950 -0.0687 0.3759
C1AA C 0.6452(10) 0.0383(9) 0.3404(10)
H3AA H 0.5950 0.0687 0.3759
C2C C 0.2198(8) -0.0391(11) 0.6354(10)
H4C H 0.1784 -0.0683 0.5886
C2Y C 0.2198(8) 0.0391(11) 0.6354(10)
H4Y H 0.1784 0.0683 0.5886
C1GA C 0.0383(9) -0.3404(10) 0.3548(10)
C1K C -0.0383(9) -0.3404(10) 0.3548(10)
W1L W 0.61919(3) -0.23584(3) 0.24019(3)
H1A H 0.6576 -0.0658 0.3292
H1AA H 0.6576 0.0658 0.3292
N2C N 0.2349 0.0000(10) 0.6568(9)
H2C H 0.2314 -0.0672 0.6458
H2Y H 0.2314 0.0672 0.6458
H1GA H 0.0658 -0.3292 0.3424
C3GA C 0.0403(10) -0.3670(11) 0.3928(9)
C3K C -0.0403(10) -0.3670(11) 0.3928(9)
H1K H -0.0658 -0.3292 0.3424
Ni1C Ni 0.2759 0.00000(13) 0.71043(13)
H3GA H 0.0687 -0.3759 0.4050
C5K C 0.0000(12) -0.3808(13) 0.4131
H3K H -0.0687 -0.3759 0.4050
C7K C 0.0000(12) -0.4104(13) 0.4565
H5GA H 0.0271 -0.4301 0.4565
C9J C 0.0000 -0.3810(19) 0.5000
H5K H -0.0271 -0.4301 0.4565
H7J H 0.0271 -0.3613 0.5000
C7J C -0.0000(12) -0.4104(13) 0.5435
H7K H -0.0271 -0.3613 0.5000
C5J C -0.0000(12) -0.3808(13) 0.5869
H5FA H -0.0271 -0.4301 0.5435
H5J H 0.0271 -0.4301 0.5435
Ni1J Ni -0.00000(13) -0.28957(13) 0.7241
C3FA C -0.0403(10) -0.3670(11) 0.6072(9)
C3J C 0.0403(10) -0.3670(11) 0.6072(9)
N1J N 0.0000(8) -0.3299(9) 0.6652
C1FA C -0.0383(9) -0.3404(10) 0.6452(10)
H3FA H -0.0687 -0.3759 0.5950
C1J C 0.0383(9) -0.3404(10) 0.6452(10)
H3J H 0.0687 -0.3759 0.5950
H1FA H -0.0658 -0.3292 0.6576
H1J H 0.0658 -0.3292 0.6576
loop_
_geom_bond_atom_site_label_1
_geom_bond_atom_site_label_2
_geom_bond_site_symmetry_1
_geom_bond_site_symmetry_2
W1 O1 1_555 1_555
O1 Ni1 1_555 1_555
Ni1 O2 1_555 1_555
O3 Ni1 1_555 1_555
N1 Ni1 1_555 1_555
N2 Ni1 1_555 1_555
C1 N1 1_555 1_555
C2 N2 1_555 1_555
H1 C1 1_555 1_555
C3 C1 1_555 1_555
H2 C2 1_555 1_555
C4 C2 1_555 1_555
O4 P1 1_555 1_555
O5 W1Z 1_555 1_555
O6 W1Z 1_555 1_555
O7 W3 1_555 1_555
O8 W2 1_555 1_555
H3 C3 1_555 1_555
C5 C3 1_555 1_555
H4 C4 1_555 1_555
C6 C4 1_555 1_555
P1 O9 1_555 1_555
W2 O4 1_555 1_555
W3 O9 1_555 1_555
C7 C5 1_555 1_555
C8 C6 1_555 1_555
O9 W3E 1_555 1_555
O10 W2 1_555 1_555
O11 W2 1_555 1_555
O12 W3 1_555 1_555
O13 W3 1_555 1_555
H5 C7 1_555 1_555
C9 C7 1_555 1_555
H6 C8 1_555 1_555
C10 C8 1_555 1_555
H7 C9 1_555 1_555
H8 C10 1_555 1_555
O1Z Ni1 1_555 1_555
C1Z N1 1_555 1_555
C2Z N2 1_555 1_555
W1Z O4 1_555 1_555
C3Z C5 1_555 1_555
H1Z C1Z 1_555 1_555
C4Z C6 1_555 1_555
H2Z C2Z 1_555 1_555
H3Z C3Z 1_555 1_555
H4Z C4Z 1_555 1_555
W2K O5 1_555 1_555
W2L O6 1_555 1_555
O4K P1 1_555 1_555
O4E P1 1_555 1_555
O5E W2 1_555 1_555
O6L W2 1_555 1_555
O10K W3 1_555 1_555
O8K W2K 1_555 1_555
O11K W2K 1_555 1_555
O6Q W2K 1_555 1_555
O4L W2L 1_555 1_555
O10L W2L 1_555 1_555
O8L W2L 1_555 1_555
O11L W2L 1_555 1_555
O5Q W2L 1_555 1_555
O13E W3 1_555 1_555
H5Z C7 1_555 1_555
H6Z C8 1_555 1_555
W3E O10 1_555 1_555
W3K O9 1_555 1_555
W1GA O4K 1_555 1_555
W2E O4E 1_555 1_555
W1EA O4E 1_555 1_555
W1LA O6L 1_555 1_555
W1QA O6Q 1_555 1_555
P1L O4L 1_555 1_555
W3Q O10L 1_555 1_555
C7A C9 1_555 1_555
H7A C9 1_555 1_555
C8C C10 1_555 1_555
H8C C10 1_555 1_555
O7E W3E 1_555 1_555
O12E W3E 1_555 1_555
O13K W3E 1_555 1_555
O10E W3K 1_555 1_555
O7K W3K 1_555 1_555
O12K W3K 1_555 1_555
O5K W1GA 1_555 1_555
O6K W1GA 1_555 1_555
O1GA W1GA 1_555 1_555
O8E W2E 1_555 1_555
O11E W2E 1_555 1_555
O6W W2E 1_555 1_555
O6E W1EA 1_555 1_555
O1EA W1EA 1_555 1_555
O5L W1LA 1_555 1_555
O1LA W1LA 1_555 1_555
O7L W1LA 1_555 1_555
O4Q W1QA 1_555 1_555
O8Q W1QA 1_555 1_555
O1QA W1QA 1_555 1_555
O7Q W1QA 1_555 1_555
O9L P1L 1_555 1_555
O4W P1L 1_555 1_555
O13Q W3Q 1_555 1_555
O12Q W3Q 1_555 1_555
O13W W3Q 1_555 1_555
C5A C7A 1_555 1_555
H5A C7A 1_555 1_555
H5AA C7A 1_555 1_555
C6C C8C 1_555 1_555
H6C C8C 1_555 1_555
H6Y C8C 1_555 1_555
W2Q O6K 1_555 1_555
Ni1K O1GA 1_555 1_555
W1SA O6W 1_555 1_555
W2W O6E 1_555 1_555
Ni1L O1LA 1_555 1_555
W3L O7L 1_555 1_555
Ni1Q O1QA 1_555 1_555
W3W O9L 1_555 1_555
Ni1A N1A 1_555 1_555
C3A C5A 1_555 1_555
C3AA C5A 1_555 1_555
C4C C6C 1_555 1_555
C4Y C6C 1_555 1_555
O10Q W2Q 1_555 1_555
O11Q W2Q 1_555 1_555
O5W W2Q 1_555 1_555
O2K Ni1K 1_555 1_555
O3K Ni1K 1_555 1_555
N1K Ni1K 1_555 1_555
O1K Ni1K 1_555 1_555
O8W W1SA 1_555 1_555
O1SA W1SA 1_555 1_555
O7W W1SA 1_555 1_555
O10W W2W 1_555 1_555
O11W W2W 1_555 1_555
O2L Ni1L 1_555 1_555
O3L Ni1L 1_555 1_555
N1L Ni1L 1_555 1_555
N2L Ni1L 1_555 1_555
O1L Ni1L 1_555 1_555
O12L W3L 1_555 1_555
O13L W3L 1_555 1_555
N2Q Ni1Q 1_555 1_555
N1Q Ni1Q 1_555 1_555
O2Q Ni1Q 1_555 1_555
O1Q Ni1Q 1_555 1_555
O3Q Ni1Q 1_555 1_555
O12W W3W 1_555 1_555
N1A C1A 1_555 1_555
C1A C3A 1_555 1_555
H3A C3A 1_555 1_555
C1AA C3AA 1_555 1_555
H3AA C3AA 1_555 1_555
C2C C4C 1_555 1_555
H4C C4C 1_555 1_555
C2Y C4Y 1_555 1_555
H4Y C4Y 1_555 1_555
C1GA N1K 1_555 1_555
C1K N1K 1_555 1_555
W1L O1L 1_555 1_555
H1A C1A 1_555 1_555
H1AA C1AA 1_555 1_555
N2C C2C 1_555 1_555
H2C C2C 1_555 1_555
H2Y C2Y 1_555 1_555
H1GA C1GA 1_555 1_555
C3GA C1GA 1_555 1_555
C3K C1K 1_555 1_555
H1K C1K 1_555 1_555
Ni1C N2C 1_555 1_555
H3GA C3GA 1_555 1_555
C5K C3GA 1_555 1_555
H3K C3K 1_555 1_555
C7K C5K 1_555 1_555
H5GA C7K 1_555 1_555
C9J C7K 1_555 1_555
H5K C7K 1_555 1_555
H7J C9J 1_555 1_555
C7J C9J 1_555 1_555
H7K C9J 1_555 1_555
C5J C7J 1_555 1_555
H5FA C7J 1_555 1_555
H5J C7J 1_555 1_555
Ni1J N1J 1_555 1_555
C3FA C5J 1_555 1_555
C3J C5J 1_555 1_555
N1J C1FA 1_555 1_555
C1FA C3FA 1_555 1_555
H3FA C3FA 1_555 1_555
C1J C3J 1_555 1_555
H3J C3J 1_555 1_555
H1FA C1FA 1_555 1_555
H1J C1J 1_555 1_555
O7 W1Z 1_555 1_555
O8 W1Z 1_555 1_555
O13 W3K 1_555 1_555
O1Z W1Z 1_555 1_555
C1Z C3Z 1_555 1_555
C2Z C4Z 1_555 1_555
W2K O4K 1_555 1_555
W2K O10K 1_555 1_555
O5E W1EA 1_555 1_555
O8K W1GA 1_555 1_555
O4L W1LA 1_555 1_555
O8L W1LA 1_555 1_555
O5Q W1QA 1_555 1_555
O13E W3E 1_555 1_555
W3K O13K 1_555 1_555
W1GA O7K 1_555 1_555
W2E O10E 1_555 1_555
W2E O5K 1_555 1_555
W1EA O7E 1_555 1_555
W1EA O8E 1_555 1_555
P1L O4Q 1_555 1_555
W3Q O7Q 1_555 1_555
W3Q O9L 1_555 1_555
O5L W2W 1_555 1_555
O4Q W2Q 1_555 1_555
O8Q W2Q 1_555 1_555
O9L W3L 1_555 1_555
O4W W1SA 1_555 1_555
O4W W2W 1_555 1_555
O13Q W3L 1_555 1_555
O13W W3W 1_555 1_555
W1SA O5W 1_555 1_555
W2W O8W 1_555 1_555
W3L O10W 1_555 1_555
W3W O10Q 1_555 1_555
W3W O7W 1_555 1_555
W3W O13L 1_555 1_555
N1A C1AA 1_555 1_555
C2Y N2C 1_555 1_555
C3K C5K 1_555 1_555
N1J C1J 1_555 1_555

#END
