
#######################################################################
#
#                 Cambridge Crystallographic Data Centre
#                                CCDC 
#
#######################################################################
#
# If this CIF has been generated from an entry in the Cambridge 
# Structural Database, then it will include bibliographic, chemical, 
# crystal, experimental, refinement or atomic coordinate data resulting 
# from the CCDC's data processing and validation procedures.
#
#######################################################################

data_UXELIT
_chemical_formula_moiety         '(C48 H28 O28 Zn8)n'
_symmetry_cell_setting           rhombohedral
_symmetry_space_group_name_H-M   'R -3'
_symmetry_Int_Tables_number      148
_space_group_name_Hall           '-R 3'
loop_
_symmetry_equiv_pos_site_id
_symmetry_equiv_pos_as_xyz
1 x,y,z
2 -y,x-y,z
3 -x+y,-x,z
4 2/3+x,1/3+y,1/3+z
5 2/3-y,1/3+x-y,1/3+z
6 2/3-x+y,1/3-x,1/3+z
7 1/3+x,2/3+y,2/3+z
8 1/3-y,2/3+x-y,2/3+z
9 1/3-x+y,2/3-x,2/3+z
10 -x,-y,-z
11 y,-x+y,-z
12 x-y,x,-z
13 1/3-x,2/3-y,2/3-z
14 1/3+y,2/3-x+y,2/3-z
15 1/3+x-y,2/3+x,2/3-z
16 2/3-x,1/3-y,1/3-z
17 2/3+y,1/3-x+y,1/3-z
18 2/3+x-y,1/3+x,1/3-z
_cell_length_a                   18.388(3)
_cell_length_b                   18.388(3)
_cell_length_c                   43.916(9)
_cell_angle_alpha                90
_cell_angle_beta                 90
_cell_angle_gamma                120
_cell_volume                     12859.5
loop_
_atom_site_label
_atom_site_type_symbol
_atom_site_fract_x
_atom_site_fract_y
_atom_site_fract_z
Zn1 Zn 0.61008(5) 1.22019(5) -0.000639(18)
Zn2 Zn 0.6667 1.3333 -0.06163(3)
Zn3 Zn 0.39106(6) 1.60896(6) -0.19718(2)
Zn4 Zn 0.3333 1.6667 -0.13853(3)
O2 O 0.1547(5) 1.0138(5) 0.1124(2)
O3 O 0.1539(5) 1.1403(5) 0.1121(2)
O4 O 0.5149(4) 1.1969(4) 0.02528(15)
O5 O 0.5152(4) 1.3182(4) 0.02536(15)
O6 O 0.3333 1.6667 -0.18273(17)
O7 O 0.4295(5) 1.5703(5) -0.16291(15)
O8 O 0.3892(3) 1.6103(3) -0.12112(12)
O9 O 0.6667 1.3333 -0.01621(15)
O10 O 0.5663(4) 1.4339(4) -0.03025(16)
C1 C 0.1820(7) 1.0913(8) 0.1042(3)
C2 C 0.2622(8) 1.1314(7) 0.0860(3)
C3 C 0.3095(17) 1.2213(18) 0.0836(6)
H1 H 0.2933 1.2555 0.0946
C4 C 0.2905(18) 1.082(2) 0.0717(6)
H2 H 0.2611 1.0227 0.0747
C5 C 0.3789(17) 1.2567(19) 0.0650(6)
H3 H 0.4078 1.3154 0.0611
C6 C 0.3581(17) 1.1168(19) 0.0538(6)
H4 H 0.3728 1.0819 0.0426
C7 C 0.4075(6) 1.2035(6) 0.0514(2)
C8 C 0.4856(5) 1.2427(5) 0.03275(19)
C9 C 0.4235(5) 1.5756(5) -0.13431(18)
C10 C 0.4618(6) 1.5378(6) -0.1148(2)
C11 C 0.4593(6) 1.5410(6) -0.08373(19)
C12 C 0.4948(6) 1.5058(6) -0.0656(2)
O11 O 0.6667 1.3333 -0.1132(5)
C13 C 0.5299(18) 1.5272(18) -0.1271(6)
C14 C 0.5642(18) 1.4933(18) -0.1091(6)
C15 C 0.546(3) 1.480(3) -0.0777(12)
C16 C 0.585(2) 1.446(2) -0.0565(10)
H5 H 0.5494 1.5441 -0.1473
H6 H 0.6018 1.4778 -0.1179
O12 O 0.6410(15) 1.4314(15) -0.0679(5)
Zn1B Zn 0.61011(7) 1.38992(5) -0.000639(18)
Zn1A Zn 0.77981(5) 1.38989(7) -0.000639(18)
Zn1F Zn 0.94341(5) 1.88686(5) -0.333972(18)
Zn1H Zn 0.94344(7) 2.05659(5) -0.333972(18)
Zn3A Zn 0.39104(6) 0.78210(8) -0.19718(2)
Zn3B Zn 1.21790(8) 1.60894(6) -0.19718(2)
Zn3C Zn 0.05773(6) 0.94229(6) 0.13615(2)
Zn3D Zn 0.05771(6) 1.11543(8) 0.13615(2)
Zn3B_2 Zn 0.21790(8) 1.60894(6) -0.19718(2)
Zn3A_2 Zn 0.39104(6) 1.78210(8) -0.19718(2)
Zn3D_2 Zn 1.05771(6) 1.11543(8) 0.13615(2)
Zn3E Zn 0.88457(8) 0.94227(6) 0.13615(2)
Zn4A Zn 0.3333 0.6666 -0.13853(3)
Zn4B Zn 1.3334 1.6667 -0.13853(3)
O2A O 0.9862(5) 1.1409(7) 0.1124(2)
O2F O 0.4880(5) 1.6805(5) -0.2209(2)
O2G O 0.3195(5) 0.8076(7) -0.2209(2)
O2H O 1.1924(7) 1.5120(5) -0.2209(2)
O3A O 0.8597(5) 1.0136(7) 0.1121(2)
O3F O 0.4872(5) 1.8070(5) -0.2212(2)
O3H O 0.3197(7) 1.5128(5) -0.2212(2)
O3F_2 O 0.4872(5) 0.8070(5) -0.2212(2)
O3G O 1.1930(5) 1.6803(7) -0.2212(2)
O4A O 0.8031(4) 1.3180(6) 0.02528(15)
O4F O 0.8482(4) 1.8636(4) -0.30805(15)
O4B O 0.6820(6) 1.4851(4) 0.02528(15)
O5A O 0.6818(4) 1.1970(6) 0.02536(15)
O5F O 0.8485(4) 1.9849(4) -0.30797(15)
O5B O 0.8030(6) 1.4848(4) 0.02536(15)
O6A O 0.3333 0.6666 -0.18273(17)
O6B O 1.3334 1.6667 -0.18273(17)
O7A O 0.4297(5) 0.8592(7) -0.16291(15)
O7B O 1.1408(7) 1.5705(5) -0.16291(15)
O8A O 0.3897(3) 0.7789(4) -0.12112(12)
O8B O 1.2211(4) 1.6108(3) -0.12112(12)
O8A_2 O 0.3897(3) 1.7789(4) -0.12112(12)
O8B_2 O 0.2211(4) 1.6108(3) -0.12112(12)
O10A O 0.5661(4) 1.1324(6) -0.03025(16)
O10B O 0.8676(6) 1.4337(4) -0.03025(16)
C1A C 0.9087(8) 1.0907(11) 0.1042(3)
C1F C 0.5153(7) 1.7580(8) -0.2291(3)
C2A C 0.8686(7) 1.1308(11) 0.0860(3)
C2F C 0.5955(8) 1.7981(7) -0.2473(3)
C3A C 0.7787(18) 1.0882(25) 0.0836(6)
C3F C 0.6428(17) 1.8880(18) -0.2497(6)
H1A H 0.7445 1.0378 0.0946
H1F H 0.6266 1.9222 -0.2387
C4A C 0.918(2) 1.2085(27) 0.0717(6)
C4F C 0.6238(18) 1.749(2) -0.2616(6)
H2A H 0.9773 1.2384 0.0747
H2F H 0.5944 1.6894 -0.2586
C5A C 0.7433(19) 1.1222(25) 0.0650(6)
C5F C 0.7122(17) 1.9234(19) -0.2683(6)
H3A H 0.6846 1.0924 0.0611
H3F H 0.7411 1.9821 -0.2722
C6A C 0.8832(19) 1.2413(25) 0.0538(6)
C6F C 0.6914(17) 1.7835(19) -0.2795(6)
H4A H 0.9181 1.2909 0.0426
H4F H 0.7061 1.7486 -0.2907
C7A C 0.7965(6) 1.2040(8) 0.0514(2)
C7F C 0.7408(6) 1.8702(6) -0.2819(2)
C8A C 0.7573(5) 1.2429(7) 0.03275(19)
C8F C 0.8189(5) 1.9094(5) -0.30058(19)
C9A C 0.4244(5) 0.8479(7) -0.13431(18)
C9B C 1.1521(7) 1.5765(5) -0.13431(18)
C10A C 0.4622(6) 0.9240(8) -0.1148(2)
C10B C 1.0760(8) 1.5382(6) -0.1148(2)
C11A C 0.4590(6) 0.9183(8) -0.08373(19)
C11B C 1.0817(8) 1.5407(6) -0.08373(19)
C12A C 0.4942(6) 0.9890(8) -0.0656(2)
C12B C 1.0110(8) 1.5052(6) -0.0656(2)
C13A C 0.4728(18) 1.0027(25) -0.1271(6)
C13B C 0.9973(25) 1.4701(18) -0.1271(6)
C14A C 0.5067(18) 1.0709(25) -0.1091(6)
C14B C 0.9291(25) 1.4358(18) -0.1091(6)
C15A C 0.520(3) 1.066(4) -0.0777(12)
C15B C 0.934(4) 1.454(3) -0.0777(12)
C16A C 0.554(2) 1.139(3) -0.0565(10)
C16B C 0.861(3) 1.415(2) -0.0565(10)
H5A H 0.4559 1.0053 -0.1473
H5B H 0.9947 1.4506 -0.1473
H6A H 0.5222 1.1240 -0.1179
H6B H 0.8760 1.3982 -0.1179
O12A O 0.5686(15) 1.2096(21) -0.0679(5)
O12B O 0.7904(21) 1.3590(15) -0.0679(5)
O1 O 0.6667 1.3333 -0.1667
loop_
_geom_bond_atom_site_label_1
_geom_bond_atom_site_label_2
_geom_bond_site_symmetry_1
_geom_bond_site_symmetry_2
Zn1 O4 1_555 1_555
Zn2 O9 1_555 1_555
Zn3 O6 1_555 1_555
Zn4 O6 1_555 1_555
O2 C1 1_555 1_555
O3 C1 1_555 1_555
O4 C8 1_555 1_555
O5 C8 1_555 1_555
O6 Zn3B_2 1_555 1_555
O7 Zn3 1_555 1_555
O8 Zn4 1_555 1_555
O9 Zn1 1_555 1_555
O10 C16 1_555 1_555
C1 C2 1_555 1_555
C2 C3 1_555 1_555
C3 H1 1_555 1_555
C4 C2 1_555 1_555
H2 C4 1_555 1_555
C5 C3 1_555 1_555
H3 C5 1_555 1_555
C6 C4 1_555 1_555
H4 C6 1_555 1_555
C7 C5 1_555 1_555
C8 C7 1_555 1_555
C9 O7 1_555 1_555
C10 C9 1_555 1_555
C11 C10 1_555 1_555
C12 C11 1_555 1_555
O11 Zn2 1_555 1_555
C13 C10 1_555 1_555
C14 C13 1_555 1_555
C15 C12 1_555 1_555
C16 C15 1_555 1_555
H5 C13 1_555 1_555
H6 C14 1_555 1_555
O12 Zn2 1_555 1_555
Zn1B O5 1_555 1_555
Zn1A O9 1_555 1_555
Zn1F O4F 1_555 1_555
Zn1H O5F 1_555 1_555
Zn3A O2G 1_555 1_555
Zn3B O2H 1_555 1_555
Zn3C O2 1_555 1_555
Zn3D O3 1_555 1_555
Zn3A_2 O6 1_555 1_555
Zn3D_2 O2A 1_555 1_555
Zn3E O3A 1_555 1_555
Zn4A O6A 1_555 1_555
Zn4B O6B 1_555 1_555
O2A C1A 1_555 1_555
O2F Zn3 1_555 1_555
O3A C1A 1_555 1_555
O3F Zn3A_2 1_555 1_555
O3H Zn3 1_555 1_555
O3F_2 Zn3A 1_555 1_555
O3G Zn3B 1_555 1_555
O4A Zn1A 1_555 1_555
O4F C8F 1_555 1_555
O4B Zn1B 1_555 1_555
O5A Zn1 1_555 1_555
O5F C8F 1_555 1_555
O5B Zn1A 1_555 1_555
O6A Zn3A 1_555 1_555
O6B Zn3B 1_555 1_555
O7A Zn3A 1_555 1_555
O7B Zn3B 1_555 1_555
O8A Zn4A 1_555 1_555
O8B Zn4B 1_555 1_555
O8A_2 Zn4 1_555 1_555
O8B_2 Zn4 1_555 1_555
O10A Zn1 1_555 1_555
O10B Zn1A 1_555 1_555
C1A C2A 1_555 1_555
C1F O2F 1_555 1_555
C2A C3A 1_555 1_555
C2F C1F 1_555 1_555
C3A H1A 1_555 1_555
C3F C2F 1_555 1_555
H1F C3F 1_555 1_555
C4A C2A 1_555 1_555
C4F C2F 1_555 1_555
H2A C4A 1_555 1_555
H2F C4F 1_555 1_555
C5A C3A 1_555 1_555
C5F C3F 1_555 1_555
H3A C5A 1_555 1_555
H3F C5F 1_555 1_555
C6A C4A 1_555 1_555
C6F C4F 1_555 1_555
H4A C6A 1_555 1_555
H4F C6F 1_555 1_555
C7A C5A 1_555 1_555
C7F C5F 1_555 1_555
C8A O4A 1_555 1_555
C8F C7F 1_555 1_555
C9A O7A 1_555 1_555
C9B O7B 1_555 1_555
C10A C9A 1_555 1_555
C10B C9B 1_555 1_555
C11A C10A 1_555 1_555
C11B C10B 1_555 1_555
C12A C11A 1_555 1_555
C12B C11B 1_555 1_555
C13A C10A 1_555 1_555
C13B C10B 1_555 1_555
C14A C13A 1_555 1_555
C14B C13B 1_555 1_555
C15A C12A 1_555 1_555
C15B C12B 1_555 1_555
C16A O10A 1_555 1_555
C16B O10B 1_555 1_555
H5A C13A 1_555 1_555
H5B C13B 1_555 1_555
H6A C14A 1_555 1_555
H6B C14B 1_555 1_555
O12A Zn2 1_555 1_555
O12B Zn2 1_555 1_555
O8 C9 1_555 1_555
O9 Zn1B 1_555 1_555
O10 Zn1B 1_555 1_555
C6 C7 1_555 1_555
C14 C15 1_555 1_555
C16 O12 1_555 1_555
O3F C1F 1_555 1_555
O5A C8A 1_555 1_555
O8A C9A 1_555 1_555
O8B C9B 1_555 1_555
C6A C7A 1_555 1_555
C6F C7F 1_555 1_555
C7A C8A 1_555 1_555
C14A C15A 1_555 1_555
C14B C15B 1_555 1_555
C15A C16A 1_555 1_555
C15B C16B 1_555 1_555
C16A O12A 1_555 1_555
C16B O12B 1_555 1_555

#END
