
#######################################################################
#
#                 Cambridge Crystallographic Data Centre
#                                CCDC 
#
#######################################################################
#
# If this CIF has been generated from an entry in the Cambridge 
# Structural Database, then it will include bibliographic, chemical, 
# crystal, experimental, refinement or atomic coordinate data resulting 
# from the CCDC's data processing and validation procedures.
#
#######################################################################

data_WEHHEY
_chemical_formula_moiety         '(C41 H36 O24 S2 Zn4)n'
_symmetry_cell_setting           orthorhombic
_symmetry_space_group_name_H-M   'P b c m'
_symmetry_Int_Tables_number      57
_space_group_name_Hall           '-P 2c 2b'
loop_
_symmetry_equiv_pos_site_id
_symmetry_equiv_pos_as_xyz
1 x,y,z
2 -x,-y,1/2+z
3 x,1/2-y,-z
4 -x,1/2+y,1/2-z
5 -x,-y,-z
6 x,y,1/2-z
7 -x,1/2+y,z
8 x,1/2-y,1/2+z
_cell_length_a                   12.1600(11)
_cell_length_b                   26.468(3)
_cell_length_c                   26.331(2)
_cell_angle_alpha                90
_cell_angle_beta                 90
_cell_angle_gamma                90
_cell_volume                     8474.66
loop_
_atom_site_label
_atom_site_type_symbol
_atom_site_fract_x
_atom_site_fract_y
_atom_site_fract_z
Zn1 Zn -0.16448(5) 0.22288(2) 0.2500
Zn2 Zn 0.01045(4) 0.30355(2) 0.2500
Zn3 Zn 0.08493(3) 0.007064(14) 0.540390(16)
C1 C 0.4537(4) 0.2500 0.5000
C2 C 0.3814(3) 0.20624(14) 0.48199(15)
H1 H 0.4270 0.1784 0.4704
H2 H 0.3356 0.1943 0.5097
C3 C 0.5252(3) 0.23288(13) 0.54408(14)
H3 H 0.5802 0.2583 0.5517
H4 H 0.4805 0.2277 0.5741
C4 C 0.2312(3) 0.19501(14) 0.42377(16)
C5 C 0.1748(3) 0.21484(15) 0.38234(16)
H5 H 0.1964 0.2456 0.3685
C6 C 0.0880(3) 0.18927(14) 0.36202(15)
C7 C 0.0546(3) 0.14343(14) 0.38214(15)
H6 H -0.0048 0.1263 0.3681
C8 C 0.1103(3) 0.12336(14) 0.42321(15)
C9 C 0.2001(3) 0.14904(14) 0.44459(15)
H7 H 0.2378 0.1355 0.4721
C10 C 0.0251(3) 0.21378(16) 0.31928(15)
C11 C 0.0713(3) 0.07508(13) 0.44802(16)
C12 C 0.3121(10) 0.0684(4) 0.6582(5)
C13 C 0.1666(7) 0.1304(3) 0.6090(4)
O1 O 0.3150(2) 0.22405(10) 0.44170(11)
O2 O 0.5768(2) 0.18686(10) 0.52959(11)
O3 O -0.2882(4) 0.17536(17) 0.2500
O4 O 0.0647(3) 0.25434(13) 0.30240(14)
O5 O 0.1371(3) 0.35270(15) 0.2500
O6 O -0.0615(2) 0.19256(11) 0.30409(10)
O7 O -0.0075(2) 0.05305(10) 0.42771(12)
O8 O 0.1203(2) 0.06189(10) 0.48812(11)
O9 O 0.1901(3) 0.02635(11) 0.59436(12)
S1 S 0.2514(3) 0.07616(12) 0.59627(13)
C14 C 0.6948(3) 0.18871(14) 0.60476(15)
H8 H 0.6587 0.2165 0.6184
C15 C 0.6606(3) 0.16818(15) 0.55883(15)
C16 C 0.7118(3) 0.12538(14) 0.53906(15)
H9 H 0.6858 0.1108 0.5093
C17 C 0.7837(3) 0.16719(14) 0.63017(14)
C18 C 0.8369(3) 0.12550(15) 0.60916(16)
H10 H 0.8971 0.1115 0.6258
C19 C 0.8012(3) 0.10472(14) 0.56374(15)
C20 C 0.8270(3) 0.19029(15) 0.67751(15)
C21 C 0.8650(4) 0.06178(15) 0.53984(17)
O10 O 0.8256(2) 0.04288(10) 0.50049(12)
O11 O 0.7810(2) 0.22873(10) 0.69437(10)
O12 O 0.9535(2) 0.05032(11) 0.56050(13)
O13 O 0.9100(3) 0.16851(12) 0.69647(12)
Zn1_2 Zn 0.83552(5) 0.22288(2) 0.2500
Zn1B Zn 0.83552(5) 0.27712(2) 0.7500
Zn1B_2 Zn -0.16448(5) 0.27712(2) 0.7500
Zn2_2 Zn 1.01045(4) 0.30355(2) 0.2500
Zn2B Zn 1.01045(4) 0.19645(2) 0.7500
Zn2B_2 Zn 0.01045(4) 0.19645(2) 0.7500
Zn3B Zn 0.08493(3) 0.492936(14) 0.459610(16)
Zn3_2 Zn 1.08493(3) 0.007064(14) 0.540390(16)
Zn3B_2 Zn 1.08493(3) 0.492936(14) 0.459610(16)
Zn3D Zn -0.08493(3) -0.007064(14) 0.459610(16)
Zn3D_2 Zn 0.91507(3) -0.007064(14) 0.459610(16)
Zn3F Zn -0.08493(3) 0.507064(14) 0.540390(16)
Zn3F_2 Zn 0.91507(3) 0.507064(14) 0.540390(16)
C2B C 0.3814(3) 0.29376(14) 0.51801(15)
H1B H 0.4270 0.3216 0.5296
H2B H 0.3356 0.3057 0.4903
C3B C 0.5252(3) 0.26712(13) 0.45592(14)
H3B H 0.5802 0.2417 0.4483
H4B H 0.4805 0.2723 0.4259
C4B C 0.2312(3) 0.30499(14) 0.57623(16)
C5B C 0.1748(3) 0.28516(15) 0.61766(16)
H5B H 0.1964 0.2544 0.6315
C6B C 0.0880(3) 0.31073(14) 0.63798(15)
C7B C 0.0546(3) 0.35657(14) 0.61786(15)
H6B H -0.0048 0.3737 0.6319
C8B C 0.1103(3) 0.37664(14) 0.57679(15)
C9B C 0.2001(3) 0.35096(14) 0.55541(15)
H7B H 0.2378 0.3645 0.5279
C10B C 0.0251(3) 0.28622(16) 0.68072(15)
C11B C 0.0713(3) 0.42492(13) 0.55198(16)
C12B C 0.3121(10) 0.4316(4) 0.3418(5)
C13B C 0.1666(7) 0.3696(3) 0.3910(4)
O1B O 0.3150(2) 0.27595(10) 0.55830(11)
O2B O 0.5768(2) 0.31314(10) 0.47041(11)
O4B O 0.0647(3) 0.24566(13) 0.69760(14)
O4E O 0.0647(3) 0.25434(13) 0.19760(14)
O6B O -0.0615(2) 0.30744(11) 0.69591(10)
O6E O -0.0615(2) 0.19256(11) 0.19591(10)
O7B O -0.0075(2) 0.44695(10) 0.57229(12)
O7D O 0.0075(2) -0.05305(10) 0.57229(12)
O7F O 0.0075(2) 0.55305(10) 0.42771(12)
O8B O 0.1203(2) 0.43811(10) 0.51188(11)
O9B O 0.1901(3) 0.47365(11) 0.40564(12)
S1B S 0.2514(3) 0.42384(12) 0.40373(13)
C14B C 0.6948(3) 0.31129(14) 0.39524(15)
H8B H 0.6587 0.2835 0.3816
C15B C 0.6606(3) 0.33182(15) 0.44117(15)
C16B C 0.7118(3) 0.37462(14) 0.46094(15)
H9B H 0.6858 0.3892 0.4907
C17B C 0.7837(3) 0.33281(14) 0.36983(14)
C18B C 0.8369(3) 0.37450(15) 0.39084(16)
H10B H 0.8971 0.3885 0.3742
C19B C 0.8012(3) 0.39528(14) 0.43626(15)
C20B C 0.8270(3) 0.30971(15) 0.32249(15)
C21B C 0.8650(4) 0.43822(15) 0.46016(17)
O10B O 0.8256(2) 0.45712(10) 0.49951(12)
O10D O 0.1744(2) -0.04288(10) 0.49951(12)
O10F O 0.1744(2) 0.54288(10) 0.50049(12)
O11B O 0.7810(2) 0.27127(10) 0.30563(10)
O11B_2 O -0.2190(2) 0.27127(10) 0.30563(10)
O11G O -0.2190(2) 0.27127(10) 0.19437(10)
O12B O 0.9535(2) 0.44968(11) 0.43950(13)
O12_2 O -0.0465(2) 0.05032(11) 0.56050(13)
O12B_2 O -0.0465(2) 0.44968(11) 0.43950(13)
O13B O 0.9100(3) 0.33149(12) 0.30353(12)
O13B_2 O -0.0900(3) 0.33149(12) 0.30353(12)
O13G O -0.0900(3) 0.33149(12) 0.19647(12)
loop_
_geom_bond_atom_site_label_1
_geom_bond_atom_site_label_2
_geom_bond_site_symmetry_1
_geom_bond_site_symmetry_2
Zn1 O3 1_555 1_555
Zn2 O4 1_555 1_555
Zn3 O8 1_555 1_555
C1 C2 1_555 1_555
C2 H1 1_555 1_555
H2 C2 1_555 1_555
C3 C1 1_555 1_555
H3 C3 1_555 1_555
H4 C3 1_555 1_555
C4 C5 1_555 1_555
C5 H5 1_555 1_555
C6 C5 1_555 1_555
C7 C6 1_555 1_555
H6 C7 1_555 1_555
C8 C7 1_555 1_555
C9 C4 1_555 1_555
H7 C9 1_555 1_555
C10 C6 1_555 1_555
C11 C8 1_555 1_555
C12 S1 1_555 1_555
C13 S1 1_555 1_555
O1 C2 1_555 1_555
O2 C3 1_555 1_555
O4 C10 1_555 1_555
O5 Zn2 1_555 1_555
O6 Zn1 1_555 1_555
O7 C11 1_555 1_555
O8 C11 1_555 1_555
O9 Zn3 1_555 1_555
S1 O9 1_555 1_555
C14 H8 1_555 1_555
C15 O2 1_555 1_555
C16 C15 1_555 1_555
H9 C16 1_555 1_555
C17 C14 1_555 1_555
C18 C17 1_555 1_555
H10 C18 1_555 1_555
C19 C16 1_555 1_555
C20 C17 1_555 1_555
C21 C19 1_555 1_555
O10 C21 1_555 1_555
O11 C20 1_555 1_555
O12 C21 1_555 1_555
O13 C20 1_555 1_555
Zn1_2 O11B 1_555 1_555
Zn1B O11 1_555 1_555
Zn1B_2 O6B 1_555 1_555
Zn2_2 O13B 1_555 1_555
Zn2B O13 1_555 1_555
Zn2B_2 O4B 1_555 1_555
Zn3B O7F 1_555 1_555
Zn3_2 O12 1_555 1_555
Zn3B_2 O12B 1_555 1_555
Zn3D O7 1_555 1_555
Zn3D_2 O10 1_555 1_555
Zn3F O7B 1_555 1_555
Zn3F_2 O10B 1_555 1_555
C2B C1 1_555 1_555
H1B C2B 1_555 1_555
H2B C2B 1_555 1_555
C3B C1 1_555 1_555
H3B C3B 1_555 1_555
H4B C3B 1_555 1_555
C4B C5B 1_555 1_555
C5B H5B 1_555 1_555
C6B C5B 1_555 1_555
C7B C6B 1_555 1_555
H6B C7B 1_555 1_555
C8B C7B 1_555 1_555
C9B C4B 1_555 1_555
H7B C9B 1_555 1_555
C10B C6B 1_555 1_555
C11B C8B 1_555 1_555
C12B S1B 1_555 1_555
C13B S1B 1_555 1_555
O1B C2B 1_555 1_555
O2B C3B 1_555 1_555
O4B C10B 1_555 1_555
O4E Zn2 1_555 1_555
O6B C10B 1_555 1_555
O6E Zn1 1_555 1_555
O7B C11B 1_555 1_555
O7D Zn3 1_555 1_555
O8B Zn3B 1_555 1_555
O9B Zn3B 1_555 1_555
S1B O9B 1_555 1_555
C14B H8B 1_555 1_555
C15B O2B 1_555 1_555
C16B C15B 1_555 1_555
H9B C16B 1_555 1_555
C17B C14B 1_555 1_555
C18B C17B 1_555 1_555
H10B C18B 1_555 1_555
C19B C16B 1_555 1_555
C20B C17B 1_555 1_555
C21B C19B 1_555 1_555
O10B C21B 1_555 1_555
O10D Zn3 1_555 1_555
O10F Zn3B 1_555 1_555
O11B C20B 1_555 1_555
O11B_2 Zn1 1_555 1_555
O11G Zn1 1_555 1_555
O12B C21B 1_555 1_555
O12_2 Zn3 1_555 1_555
O12B_2 Zn3B 1_555 1_555
O13B C20B 1_555 1_555
O13B_2 Zn2 1_555 1_555
O13G Zn2 1_555 1_555
C4 O1 1_555 1_555
C8 C9 1_555 1_555
C10 O6 1_555 1_555
C14 C15 1_555 1_555
C18 C19 1_555 1_555
C4B O1B 1_555 1_555
C8B C9B 1_555 1_555
C11B O8B 1_555 1_555
C14B C15B 1_555 1_555
C18B C19B 1_555 1_555

#END
