
#######################################################################
#
#                 Cambridge Crystallographic Data Centre
#                                CCDC 
#
#######################################################################
#
# If this CIF has been generated from an entry in the Cambridge 
# Structural Database, then it will include bibliographic, chemical, 
# crystal, experimental, refinement or atomic coordinate data resulting 
# from the CCDC's data processing and validation procedures.
#
#######################################################################

data_WEHHOI
_chemical_formula_moiety         '(C45 H42 N2 O24 Zn4)n'
_symmetry_cell_setting           orthorhombic
_symmetry_space_group_name_H-M   'P b c m'
_symmetry_Int_Tables_number      57
_space_group_name_Hall           '-P 2c 2b'
loop_
_symmetry_equiv_pos_site_id
_symmetry_equiv_pos_as_xyz
1 x,y,z
2 -x,-y,1/2+z
3 x,1/2-y,-z
4 -x,1/2+y,1/2-z
5 -x,-y,-z
6 x,y,1/2-z
7 -x,1/2+y,z
8 x,1/2-y,1/2+z
_cell_length_a                   12.3100(7)
_cell_length_b                   26.2500(14)
_cell_length_c                   26.3410(14)
_cell_angle_alpha                90
_cell_angle_beta                 90
_cell_angle_gamma                90
_cell_volume                     8511.76
loop_
_atom_site_label
_atom_site_type_symbol
_atom_site_fract_x
_atom_site_fract_y
_atom_site_fract_z
Zn1 Zn 0.50749(3) 0.194453(13) 0.2500
Zn2 Zn 0.33914(3) 0.276397(13) 0.2500
Zn3 Zn 0.58267(2) 0.007338(9) 0.040895(10)
C1 C -0.0458(2) 0.2500 0.0000
C2 C 0.02457(19) 0.23260(8) 0.04425(9)
H1 H 0.0793 0.2581 0.0518
H2 H -0.0197 0.2275 0.0743
C3 C -0.11769(19) 0.29420(9) 0.01795(9)
H3 H -0.0731 0.3226 0.0290
H4 H -0.1642 0.3057 -0.0095
C4 C 0.1570(2) 0.16648(9) 0.05957(9)
C5 C 0.2106(2) 0.12455(9) 0.03911(9)
H5 H 0.1872 0.1107 0.0085
C6 C 0.2982(2) 0.10352(9) 0.06392(9)
C7 C 0.3317(2) 0.12424(10) 0.10978(10)
H6 H 0.3904 0.1100 0.1270
C8 C 0.2782(2) 0.16609(9) 0.13017(9)
C9 C 0.1914(2) 0.18738(9) 0.10515(9)
H7 H 0.1560 0.2156 0.1187
C10 C 0.3630(2) 0.06154(9) 0.03951(10)
C11 C 0.3228(2) 0.19002(10) 0.17787(9)
C12 C -0.2990(2) 0.35025(9) 0.05597(9)
H8 H -0.2613 0.3645 0.0289
C13 C -0.2658(2) 0.30453(9) 0.07652(10)
C14 C -0.3216(2) 0.28415(9) 0.11806(9)
H9 H -0.2975 0.2539 0.1327
C15 C -0.3897(2) 0.37500(9) 0.07614(9)
C16 C -0.4456(2) 0.35393(9) 0.11641(9)
H10 H -0.5063 0.3704 0.1295
C17 C -0.4112(2) 0.30809(9) 0.13745(9)
C18 C -0.4729(2) 0.28341(10) 0.18036(9)
C19 C -0.4296(2) 0.42340(9) 0.05119(10)
C20 C 0.7251(4) 0.07425(17) 0.1086(2)
C21 C 0.6529(5) 0.12233(19) 0.1077(3)
H11 H 0.5786 0.1126 0.1023
H12 H 0.6760 0.1443 0.0806
H13 H 0.6592 0.1399 0.1395
C22 C 0.9137(11) 0.0531(7) 0.0795(8)
H14 H 0.9849 0.0631 0.0906
H15 H 0.9066 0.0594 0.0438
H16 H 0.9032 0.0175 0.0861
C23 C 0.8675(11) 0.1306(4) 0.1369(5)
H17 H 0.9452 0.1289 0.1397
H18 H 0.8360 0.1315 0.1702
H19 H 0.8475 0.1608 0.1187
N1 N 0.8266(7) 0.0845(4) 0.1089(6)
O1 O 0.07510(15) 0.18580(6) 0.02965(7)
O2 O -0.18145(15) 0.27581(6) 0.05894(7)
O3 O 0.6245(2) 0.14230(10) 0.2500
O4 O 0.32561(16) 0.04201(6) -0.00017(7)
O5 O 0.2306(3) 0.33150(12) 0.2500
O6 O 0.45086(15) 0.04955(7) 0.06104(7)
O7 O 0.40518(16) 0.16796(8) 0.19685(7)
O8 O 0.27813(14) 0.22925(7) 0.19470(6)
O9 O -0.43409(16) 0.24220(7) 0.19672(7)
O10 O -0.55593(15) 0.30442(7) 0.19602(6)
O11 O -0.50859(15) 0.44567(6) 0.07193(7)
O12 O -0.38298(15) 0.43690(6) 0.01105(7)
O13 O 0.68852(17) 0.02883(8) 0.09309(8)
Zn1_2 Zn -0.49251(3) 0.194453(13) 0.2500
Zn1B Zn -0.49251(3) 0.305547(13) -0.2500
Zn1B_2 Zn 0.50749(3) 0.305547(13) -0.2500
Zn2_2 Zn -0.66086(3) 0.276397(13) 0.2500
Zn2B Zn -0.66086(3) 0.223603(13) -0.2500
Zn2B_2 Zn 0.33914(3) 0.223603(13) -0.2500
Zn3B Zn 0.58267(2) 0.492662(9) -0.040895(10)
Zn3_2 Zn -0.41733(2) 0.007338(9) 0.040895(10)
Zn3B_2 Zn -0.41733(2) 0.492662(9) -0.040895(10)
Zn3D Zn -0.58267(2) -0.007338(9) -0.040895(10)
Zn3D_2 Zn 0.41733(2) -0.007338(9) -0.040895(10)
Zn3F Zn -0.58267(2) 0.507338(9) 0.040895(10)
Zn3F_2 Zn 0.41733(2) 0.507338(9) 0.040895(10)
C2B C 0.02457(19) 0.26740(8) -0.04425(9)
H1B H 0.0793 0.2419 -0.0518
H2B H -0.0197 0.2725 -0.0743
C3B C -0.11769(19) 0.20580(9) -0.01795(9)
H3B H -0.0731 0.1774 -0.0290
H4B H -0.1642 0.1943 0.0095
C4B C 0.1570(2) 0.33352(9) -0.05957(9)
C5B C 0.2106(2) 0.37545(9) -0.03911(9)
H5B H 0.1872 0.3893 -0.0085
C6B C 0.2982(2) 0.39648(9) -0.06392(9)
C7B C 0.3317(2) 0.37576(10) -0.10978(10)
H6B H 0.3904 0.3900 -0.1270
C8B C 0.2782(2) 0.33391(9) -0.13017(9)
C9B C 0.1914(2) 0.31262(9) -0.10515(9)
H7B H 0.1560 0.2844 -0.1187
C10B C 0.3630(2) 0.43846(9) -0.03951(10)
C11B C 0.3228(2) 0.30998(10) -0.17787(9)
C12B C -0.2990(2) 0.14975(9) -0.05597(9)
H8B H -0.2613 0.1355 -0.0289
C13B C -0.2658(2) 0.19547(9) -0.07652(10)
C14B C -0.3216(2) 0.21585(9) -0.11806(9)
H9B H -0.2975 0.2461 -0.1327
C15B C -0.3897(2) 0.12500(9) -0.07614(9)
C16B C -0.4456(2) 0.14607(9) -0.11641(9)
H10B H -0.5063 0.1296 -0.1295
C17B C -0.4112(2) 0.19191(9) -0.13745(9)
C18B C -0.4729(2) 0.21659(10) -0.18036(9)
C19B C -0.4296(2) 0.07660(9) -0.05119(10)
C20B C 0.7251(4) 0.42575(17) -0.1086(2)
C21B C 0.6529(5) 0.37767(19) -0.1077(3)
H11B H 0.5786 0.3874 -0.1023
H12B H 0.6760 0.3557 -0.0806
H13B H 0.6592 0.3601 -0.1395
C22B C 0.9137(11) 0.4469(7) -0.0795(8)
H14B H 0.9849 0.4369 -0.0906
H15B H 0.9066 0.4406 -0.0438
H16B H 0.9032 0.4825 -0.0861
C23B C 0.8675(11) 0.3694(4) -0.1369(5)
H17B H 0.9452 0.3711 -0.1397
H18B H 0.8360 0.3685 -0.1702
H19B H 0.8475 0.3392 -0.1187
N1B N 0.8266(7) 0.4155(4) -0.1089(6)
O1B O 0.07510(15) 0.31420(6) -0.02965(7)
O2B O -0.18145(15) 0.22419(6) -0.05894(7)
O4B O 0.32561(16) 0.45799(6) 0.00017(7)
O4D O 0.67439(16) -0.04201(6) 0.00017(7)
O4F O 0.67439(16) 0.54201(6) -0.00017(7)
O6B O 0.45086(15) 0.45045(7) -0.06104(7)
O7B O 0.40518(16) 0.33204(8) -0.19685(7)
O7E O 0.40518(16) 0.16796(8) 0.30315(7)
O8B O 0.27813(14) 0.27075(7) -0.19470(6)
O8E O 0.27813(14) 0.22925(7) 0.30530(6)
O9B O -0.43409(16) 0.25780(7) -0.19672(7)
O9_2 O 0.56591(16) 0.24220(7) 0.19672(7)
O9E O 0.56591(16) 0.24220(7) 0.30328(7)
O10B O -0.55593(15) 0.19558(7) -0.19602(6)
O10_2 O 0.44407(15) 0.30442(7) 0.19602(6)
O10E O 0.44407(15) 0.30442(7) 0.30398(6)
O11B O -0.50859(15) 0.05433(6) -0.07193(7)
O11D O 0.50859(15) 0.55433(6) -0.07193(7)
O11F O 0.50859(15) -0.05433(6) 0.07193(7)
O12B O -0.38298(15) 0.06310(6) -0.01105(7)
O12_2 O 0.61702(15) 0.43690(6) 0.01105(7)
O12B_2 O 0.61702(15) 0.06310(6) -0.01105(7)
O13B O 0.68852(17) 0.47117(8) -0.09309(8)
loop_
_geom_bond_atom_site_label_1
_geom_bond_atom_site_label_2
_geom_bond_site_symmetry_1
_geom_bond_site_symmetry_2
Zn1 O3 1_555 1_555
Zn2 O5 1_555 1_555
Zn3 O6 1_555 1_555
C1 C2 1_555 1_555
C2 H1 1_555 1_555
H2 C2 1_555 1_555
C3 C1 1_555 1_555
H3 C3 1_555 1_555
H4 C3 1_555 1_555
C4 C5 1_555 1_555
C5 H5 1_555 1_555
C6 C5 1_555 1_555
C7 C6 1_555 1_555
H6 C7 1_555 1_555
C8 C7 1_555 1_555
C9 C4 1_555 1_555
H7 C9 1_555 1_555
C10 C6 1_555 1_555
C11 C8 1_555 1_555
C12 H8 1_555 1_555
C13 C12 1_555 1_555
C14 C13 1_555 1_555
H9 C14 1_555 1_555
C15 C12 1_555 1_555
C16 C15 1_555 1_555
H10 C16 1_555 1_555
C17 C14 1_555 1_555
C18 C17 1_555 1_555
C19 C15 1_555 1_555
C20 C21 1_555 1_555
C21 H11 1_555 1_555
H12 C21 1_555 1_555
H13 C21 1_555 1_555
C22 H14 1_555 1_555
H15 C22 1_555 1_555
H16 C22 1_555 1_555
C23 H17 1_555 1_555
H18 C23 1_555 1_555
H19 C23 1_555 1_555
N1 C20 1_555 1_555
O1 C2 1_555 1_555
O2 C3 1_555 1_555
O4 C10 1_555 1_555
O6 C10 1_555 1_555
O7 Zn1 1_555 1_555
O8 Zn2 1_555 1_555
O9 C18 1_555 1_555
O10 C18 1_555 1_555
O11 C19 1_555 1_555
O12 C19 1_555 1_555
O13 Zn3 1_555 1_555
Zn1_2 O9 1_555 1_555
Zn1B O9B 1_555 1_555
Zn1B_2 O7B 1_555 1_555
Zn2_2 O10 1_555 1_555
Zn2B O10B 1_555 1_555
Zn2B_2 O8B 1_555 1_555
Zn3B O4F 1_555 1_555
Zn3_2 O12B 1_555 1_555
Zn3B_2 O12 1_555 1_555
Zn3D O11B 1_555 1_555
Zn3D_2 O4 1_555 1_555
Zn3F O11 1_555 1_555
Zn3F_2 O4B 1_555 1_555
C2B C1 1_555 1_555
H1B C2B 1_555 1_555
H2B C2B 1_555 1_555
C3B C1 1_555 1_555
H3B C3B 1_555 1_555
H4B C3B 1_555 1_555
C4B C5B 1_555 1_555
C5B H5B 1_555 1_555
C6B C5B 1_555 1_555
C7B C6B 1_555 1_555
H6B C7B 1_555 1_555
C8B C7B 1_555 1_555
C9B C4B 1_555 1_555
H7B C9B 1_555 1_555
C10B C6B 1_555 1_555
C11B C8B 1_555 1_555
C12B H8B 1_555 1_555
C13B C12B 1_555 1_555
C14B C13B 1_555 1_555
H9B C14B 1_555 1_555
C15B C12B 1_555 1_555
C16B C15B 1_555 1_555
H10B C16B 1_555 1_555
C17B C14B 1_555 1_555
C18B C17B 1_555 1_555
C19B C15B 1_555 1_555
C20B C21B 1_555 1_555
C21B H11B 1_555 1_555
H12B C21B 1_555 1_555
H13B C21B 1_555 1_555
C22B H14B 1_555 1_555
H15B C22B 1_555 1_555
H16B C22B 1_555 1_555
C23B H17B 1_555 1_555
H18B C23B 1_555 1_555
H19B C23B 1_555 1_555
N1B C20B 1_555 1_555
O1B C2B 1_555 1_555
O2B C3B 1_555 1_555
O4B C10B 1_555 1_555
O4D Zn3 1_555 1_555
O6B Zn3B 1_555 1_555
O7B C11B 1_555 1_555
O7E Zn1 1_555 1_555
O8B C11B 1_555 1_555
O8E Zn2 1_555 1_555
O9B C18B 1_555 1_555
O9_2 Zn1 1_555 1_555
O9E Zn1 1_555 1_555
O10B C18B 1_555 1_555
O10_2 Zn2 1_555 1_555
O10E Zn2 1_555 1_555
O11B C19B 1_555 1_555
O11D Zn3B 1_555 1_555
O11F Zn3 1_555 1_555
O12B C19B 1_555 1_555
O12_2 Zn3B 1_555 1_555
O12B_2 Zn3 1_555 1_555
O13B Zn3B 1_555 1_555
C4 O1 1_555 1_555
C8 C9 1_555 1_555
C11 O7 1_555 1_555
C11 O8 1_555 1_555
C13 O2 1_555 1_555
C16 C17 1_555 1_555
C20 O13 1_555 1_555
C22 N1 1_555 1_555
C23 N1 1_555 1_555
C4B O1B 1_555 1_555
C8B C9B 1_555 1_555
C10B O6B 1_555 1_555
C13B O2B 1_555 1_555
C16B C17B 1_555 1_555
C20B O13B 1_555 1_555
C22B N1B 1_555 1_555
C23B N1B 1_555 1_555

#END
