
#######################################################################
#
#                 Cambridge Crystallographic Data Centre
#                                CCDC 
#
#######################################################################
#
# If this CIF has been generated from an entry in the Cambridge 
# Structural Database, then it will include bibliographic, chemical, 
# crystal, experimental, refinement or atomic coordinate data resulting 
# from the CCDC's data processing and validation procedures.
#
#######################################################################

data_WEHHIC
_chemical_formula_moiety         '(C43 H38 N2 O24 Zn4)n'
_symmetry_cell_setting           orthorhombic
_symmetry_space_group_name_H-M   'P b c m'
_symmetry_Int_Tables_number      57
_space_group_name_Hall           '-P 2c 2b'
loop_
_symmetry_equiv_pos_site_id
_symmetry_equiv_pos_as_xyz
1 x,y,z
2 -x,-y,1/2+z
3 x,1/2-y,-z
4 -x,1/2+y,1/2-z
5 -x,-y,-z
6 x,y,1/2-z
7 -x,1/2+y,z
8 x,1/2-y,1/2+z
_cell_length_a                   12.3830(11)
_cell_length_b                   26.271(2)
_cell_length_c                   26.278(2)
_cell_angle_alpha                90
_cell_angle_beta                 90
_cell_angle_gamma                90
_cell_volume                     8548.6
loop_
_atom_site_label
_atom_site_type_symbol
_atom_site_fract_x
_atom_site_fract_y
_atom_site_fract_z
Zn1 Zn 0.02119(5) 0.30081(2) 0.7500
Zn2 Zn -0.14665(5) 0.21893(2) 0.7500
Zn3 Zn 0.08257(4) 0.005681(16) 1.040841(17)
O1 O 0.3309(2) 0.22161(12) 0.94070(12)
C1 C 0.1246(3) 0.12278(16) 0.92481(16)
C2 C 0.4622(4) 0.2500 1.0000
C3 C 0.1036(3) 0.18801(17) 0.86225(16)
O2 O -0.0418(2) 0.19187(12) 0.80422(11)
O3 O 0.1284(3) 0.06121(11) 0.99030(12)
O4 O 0.0031(2) 0.05280(11) 0.92940(12)
C4 C 0.3907(3) 0.20602(15) 0.98389(15)
H1 H 0.4345 0.1766 0.9756
H2 H 0.3421 0.1969 1.0113
C5 C 0.2138(3) 0.14668(16) 0.94502(17)
H3 H 0.2507 0.1325 0.9724
C6 C 0.0820(3) 0.07468(15) 0.95033(17)
C7 C 0.2471(3) 0.19209(16) 0.92378(16)
O5 O 0.0828(3) 0.25361(14) 0.80214(14)
C8 C 0.1917(4) 0.21254(17) 0.88190(16)
H4 H 0.2150 0.2429 0.8674
C9 C 0.0438(4) 0.2134(2) 0.81981(17)
C10 C 0.0705(3) 0.14273(17) 0.88343(16)
H5 H 0.0116 0.1255 0.8698
O6 O 0.1854(3) 0.02063(17) 1.09634(13)
O7 O -0.2514(4) 0.1629(2) 0.7500
O8 O 0.1319(4) 0.3551(2) 0.7500
N1 N 0.334(2) -0.0207(13) 1.1250(14)
C11 C 0.2313(17) -0.0152(12) 1.115(2)
H6 H 0.1878 -0.0429 1.1233
C12 C 0.380(4) -0.000(2) 1.1700(19)
H7 H 0.4559 -0.0081 1.1709
H8 H 0.3454 -0.0149 1.1991
H9 H 0.3705 0.0360 1.1704
C13 C 0.396(3) -0.0606(15) 1.1033(16)
H10 H 0.4699 -0.0575 1.1139
H11 H 0.3921 -0.0586 1.0669
H12 H 0.3679 -0.0928 1.1144
O9 O 0.5903(2) 0.31042(12) 0.97125(11)
C14 C 0.7256(3) 0.37056(17) 0.96145(16)
H13 H 0.7028 0.3849 0.9920
C15 C 0.5333(3) 0.26628(15) 0.95496(16)
H14 H 0.5834 0.2393 0.9460
H15 H 0.4891 0.2740 0.9255
C16 C 0.6725(3) 0.32860(17) 0.94147(16)
C17 C 0.7053(3) 0.30729(17) 0.89534(16)
H16 H 0.6691 0.2795 0.8817
C18 C 0.7943(3) 0.32875(17) 0.87002(16)
C19 C 0.8133(3) 0.39089(16) 0.93539(17)
C20 C 0.8757(4) 0.43344(18) 0.95977(18)
C21 C 0.8459(4) 0.37016(17) 0.89036(16)
H17 H 0.9042 0.3844 0.8732
C22 C 0.8373(4) 0.30406(19) 0.82266(17)
O10 O 0.8378(3) 0.45370(11) 0.99921(12)
O11 O 0.7895(2) 0.26446(12) 0.80602(11)
O12 O 0.9611(3) 0.44642(12) 0.93828(13)
O13 O 0.9171(3) 0.32501(15) 0.80303(13)
Zn1_2 Zn 1.02119(5) 0.30081(2) 0.7500
Zn1B Zn 1.02119(5) 0.19919(2) 1.2500
Zn1B_2 Zn 0.02119(5) 0.19919(2) 1.2500
Zn2_2 Zn 0.85335(5) 0.21893(2) 0.7500
Zn2B Zn 0.85335(5) 0.28107(2) 1.2500
Zn2B_2 Zn -0.14665(5) 0.28107(2) 1.2500
Zn3B Zn 0.08257(4) 0.494319(16) 0.959159(17)
Zn3_2 Zn 1.08257(4) 0.005681(16) 1.040841(17)
Zn3B_2 Zn 1.08257(4) 0.494319(16) 0.959159(17)
Zn3D Zn -0.08257(4) -0.005681(16) 0.959159(17)
Zn3D_2 Zn 0.91743(4) -0.005681(16) 0.959159(17)
Zn3F Zn -0.08257(4) 0.505681(16) 1.040841(17)
Zn3F_2 Zn 0.91743(4) 0.505681(16) 1.040841(17)
O1B O 0.3309(2) 0.27839(12) 1.05930(12)
C1B C 0.1246(3) 0.37722(16) 1.07519(16)
C3B C 0.1036(3) 0.31199(17) 1.13775(16)
O2B O -0.0418(2) 0.30813(12) 1.19578(11)
O2E O -0.0418(2) 0.19187(12) 0.69578(11)
O3B O 0.1284(3) 0.43879(11) 1.00970(12)
O4B O 0.0031(2) 0.44720(11) 1.07060(12)
O4D O -0.0031(2) -0.05280(11) 1.07060(12)
O4F O -0.0031(2) 0.55280(11) 0.92940(12)
C4B C 0.3907(3) 0.29398(15) 1.01611(15)
H1B H 0.4345 0.3234 1.0244
H2B H 0.3421 0.3031 0.9887
C5B C 0.2138(3) 0.35332(16) 1.05498(17)
H3B H 0.2507 0.3675 1.0276
C6B C 0.0820(3) 0.42532(15) 1.04967(17)
C7B C 0.2471(3) 0.30791(16) 1.07622(16)
O5B O 0.0828(3) 0.24639(14) 1.19786(14)
O5E O 0.0828(3) 0.25361(14) 0.69786(14)
C8B C 0.1917(4) 0.28746(17) 1.11810(16)
H4B H 0.2150 0.2571 1.1326
C9B C 0.0438(4) 0.2866(2) 1.18019(17)
C10B C 0.0705(3) 0.35727(17) 1.11657(16)
H5B H 0.0116 0.3745 1.1302
O6B O 0.1854(3) 0.47937(17) 0.90366(13)
N1B N 0.334(2) 0.5207(13) 0.8750(14)
C11B C 0.2313(17) 0.5152(12) 0.885(2)
H6B H 0.1878 0.5429 0.8767
C12B C 0.380(4) 0.500(2) 0.8300(19)
H7B H 0.4559 0.5081 0.8291
H8B H 0.3454 0.5149 0.8009
H9B H 0.3705 0.4640 0.8296
C13B C 0.396(3) 0.5606(15) 0.8967(16)
H10B H 0.4699 0.5575 0.8861
H11B H 0.3921 0.5586 0.9331
H12B H 0.3679 0.5928 0.8856
O9B O 0.5903(2) 0.18958(12) 1.02875(11)
C14B C 0.7256(3) 0.12944(17) 1.03855(16)
H13B H 0.7028 0.1151 1.0080
C15B C 0.5333(3) 0.23372(15) 1.04504(16)
H14B H 0.5834 0.2607 1.0540
H15B H 0.4891 0.2260 1.0745
C16B C 0.6725(3) 0.17140(17) 1.05853(16)
C17B C 0.7053(3) 0.19271(17) 1.10466(16)
H16B H 0.6691 0.2205 1.1183
C18B C 0.7943(3) 0.17125(17) 1.12998(16)
C19B C 0.8133(3) 0.10911(16) 1.06461(17)
C20B C 0.8757(4) 0.06656(18) 1.04023(18)
C21B C 0.8459(4) 0.12984(17) 1.10964(16)
H17B H 0.9042 0.1156 1.1268
C22B C 0.8373(4) 0.19594(19) 1.17734(17)
O10B O 0.8378(3) 0.04630(11) 1.00079(12)
O10D O 0.1622(3) 0.54630(11) 1.00079(12)
O10F O 0.1622(3) -0.04630(11) 0.99921(12)
O11B O 0.7895(2) 0.23554(12) 1.19398(11)
O11_2 O -0.2105(2) 0.26446(12) 0.80602(11)
O11E O -0.2105(2) 0.26446(12) 0.69398(11)
O12B O 0.9611(3) 0.05358(12) 1.06172(13)
O12_2 O -0.0389(3) 0.44642(12) 0.93828(13)
O12B_2 O -0.0389(3) 0.05358(12) 1.06172(13)
O13B O 0.9171(3) 0.17499(15) 1.19697(13)
O13_2 O -0.0829(3) 0.32501(15) 0.80303(13)
O13E O -0.0829(3) 0.32501(15) 0.69697(13)
loop_
_geom_bond_atom_site_label_1
_geom_bond_atom_site_label_2
_geom_bond_site_symmetry_1
_geom_bond_site_symmetry_2
Zn1 O5 1_555 1_555
Zn2 O2 1_555 1_555
Zn3 O3 1_555 1_555
O1 C4 1_555 1_555
C1 C5 1_555 1_555
C2 C4 1_555 1_555
C3 C8 1_555 1_555
O2 C9 1_555 1_555
O3 C6 1_555 1_555
O4 C6 1_555 1_555
C4 H1 1_555 1_555
H2 C4 1_555 1_555
C5 H3 1_555 1_555
C6 C1 1_555 1_555
C7 O1 1_555 1_555
O5 C9 1_555 1_555
C8 C7 1_555 1_555
H4 C8 1_555 1_555
C9 C3 1_555 1_555
C10 C1 1_555 1_555
H5 C10 1_555 1_555
O6 Zn3 1_555 1_555
O7 Zn2 1_555 1_555
O8 Zn1 1_555 1_555
N1 C11 1_555 1_555
C11 O6 1_555 1_555
H6 C11 1_555 1_555
C12 N1 1_555 1_555
H7 C12 1_555 1_555
H8 C12 1_555 1_555
H9 C12 1_555 1_555
C13 N1 1_555 1_555
H10 C13 1_555 1_555
H11 C13 1_555 1_555
H12 C13 1_555 1_555
O9 C15 1_555 1_555
C14 H13 1_555 1_555
C15 C2 1_555 1_555
H14 C15 1_555 1_555
H15 C15 1_555 1_555
C16 O9 1_555 1_555
C17 C16 1_555 1_555
H16 C17 1_555 1_555
C18 C17 1_555 1_555
C19 C14 1_555 1_555
C20 C19 1_555 1_555
C21 C18 1_555 1_555
H17 C21 1_555 1_555
C22 C18 1_555 1_555
O10 C20 1_555 1_555
O11 C22 1_555 1_555
O12 C20 1_555 1_555
O13 C22 1_555 1_555
Zn1_2 O13 1_555 1_555
Zn1B O13B 1_555 1_555
Zn1B_2 O5B 1_555 1_555
Zn2_2 O11 1_555 1_555
Zn2B O11B 1_555 1_555
Zn2B_2 O2B 1_555 1_555
Zn3B O3B 1_555 1_555
Zn3_2 O12B 1_555 1_555
Zn3B_2 O12 1_555 1_555
Zn3D O4 1_555 1_555
Zn3D_2 O10B 1_555 1_555
Zn3F O4B 1_555 1_555
Zn3F_2 O10 1_555 1_555
O1B C4B 1_555 1_555
C1B C5B 1_555 1_555
C3B C8B 1_555 1_555
O2B C9B 1_555 1_555
O2E Zn2 1_555 1_555
O3B C6B 1_555 1_555
O4B C6B 1_555 1_555
O4D Zn3 1_555 1_555
O4F Zn3B 1_555 1_555
C4B C2 1_555 1_555
H1B C4B 1_555 1_555
H2B C4B 1_555 1_555
C5B H3B 1_555 1_555
C6B C1B 1_555 1_555
C7B O1B 1_555 1_555
O5B C9B 1_555 1_555
O5E Zn1 1_555 1_555
C8B C7B 1_555 1_555
H4B C8B 1_555 1_555
C9B C3B 1_555 1_555
C10B C1B 1_555 1_555
H5B C10B 1_555 1_555
O6B Zn3B 1_555 1_555
N1B C11B 1_555 1_555
C11B O6B 1_555 1_555
H6B C11B 1_555 1_555
C12B N1B 1_555 1_555
H7B C12B 1_555 1_555
H8B C12B 1_555 1_555
H9B C12B 1_555 1_555
C13B N1B 1_555 1_555
H10B C13B 1_555 1_555
H11B C13B 1_555 1_555
H12B C13B 1_555 1_555
O9B C15B 1_555 1_555
C14B H13B 1_555 1_555
C15B C2 1_555 1_555
H14B C15B 1_555 1_555
H15B C15B 1_555 1_555
C16B O9B 1_555 1_555
C17B C16B 1_555 1_555
H16B C17B 1_555 1_555
C18B C17B 1_555 1_555
C19B C14B 1_555 1_555
C20B C19B 1_555 1_555
C21B C18B 1_555 1_555
H17B C21B 1_555 1_555
C22B C18B 1_555 1_555
O10B C20B 1_555 1_555
O10D Zn3B 1_555 1_555
O10F Zn3 1_555 1_555
O11B C22B 1_555 1_555
O11_2 Zn2 1_555 1_555
O11E Zn2 1_555 1_555
O12B C20B 1_555 1_555
O12_2 Zn3B 1_555 1_555
O12B_2 Zn3 1_555 1_555
O13B C22B 1_555 1_555
O13_2 Zn1 1_555 1_555
O13E Zn1 1_555 1_555
C3 C10 1_555 1_555
C5 C7 1_555 1_555
C14 C16 1_555 1_555
C19 C21 1_555 1_555
C3B C10B 1_555 1_555
C5B C7B 1_555 1_555
C14B C16B 1_555 1_555
C19B C21B 1_555 1_555

#END
