
#######################################################################
#
#                 Cambridge Crystallographic Data Centre
#                                CCDC 
#
#######################################################################
#
# If this CIF has been generated from an entry in the Cambridge 
# Structural Database, then it will include bibliographic, chemical, 
# crystal, experimental, refinement or atomic coordinate data resulting 
# from the CCDC's data processing and validation procedures.
#
#######################################################################

data_NOHSIM
_chemical_formula_moiety         '(C8 H30 N2 O16 P4 Zn2)n'
_symmetry_cell_setting           monoclinic
_symmetry_space_group_name_H-M   'P c'
_symmetry_Int_Tables_number      7
_space_group_name_Hall           'P -2yc'
loop_
_symmetry_equiv_pos_site_id
_symmetry_equiv_pos_as_xyz
1 x,y,z
2 x,-y,1/2+z
_cell_length_a                   8.443(2)
_cell_length_b                   13.779(4)
_cell_length_c                   10.170(2)
_cell_angle_alpha                90
_cell_angle_beta                 91.91(2)
_cell_angle_gamma                90
_cell_volume                     1182.48
loop_
_atom_site_label
_atom_site_type_symbol
_atom_site_fract_x
_atom_site_fract_y
_atom_site_fract_z
Zn1 Zn -0.8789(2) 1.92642(5) 0.0396(1)
Zn2 Zn -1.3772(2) 1.36910(5) -0.3496(1)
P1 P -1.1894(2) 1.8062(1) 0.0285(2)
P2 P -0.8497(3) 2.1133(1) 0.2258(2)
P3 P -0.6891(3) 1.7268(1) 0.0591(2)
P4 P -1.3461(3) 1.5370(1) -0.1401(2)
O1 O -1.0959(7) 1.8943(3) 0.0745(6)
O2 O -1.2454(7) 1.7465(3) 0.1425(5)
O3 O -1.3382(7) 1.8476(4) -0.0502(6)
O4 O -1.0939(7) 1.7460(3) -0.0694(5)
O5 O -0.8432(8) 1.9416(4) -0.1470(5)
O6 O -1.0099(9) 2.1700(5) 0.2124(6)
O7 O -0.8327(8) 2.0557(3) 0.1029(5)
O8 O -0.7164(9) 2.1910(4) 0.2209(5)
O9 O -0.7422(7) 1.8247(4) 0.1074(5)
O10 O -0.5943(7) 1.6722(4) 0.1631(5)
O11 O -0.8376(7) 1.6612(4) 0.0283(7)
O12 O -0.5946(7) 1.7356(4) -0.0687(5)
O13 O -1.3363(8) 1.5444(4) 0.0061(5)
O14 O -1.5094(9) 1.5745(5) -0.1950(6)
O15 O -1.215(1) 1.6022(5) -0.2031(6)
O16 O -1.3249(8) 1.4354(3) -0.1883(5)
Zn2A Zn -1.3772(2) 1.63090(5) 0.1504(1)
O5A O -0.8432(8) 2.0584(4) 0.3530(5)
Zn1A Zn -0.8789(2) 2.07358(5) 0.5396(1)
Zn2A_2 Zn -0.3772(2) 1.63090(5) 0.1504(1)
O10_2 O -1.5943(7) 1.6722(4) 0.1631(5)
O16A O -1.3249(8) 1.5646(3) 0.3117(5)
N1 N 0.1295(9) 0.6126(5) 0.4424(7)
C1 C 0.006(1) 0.5905(8) 0.537(1)
C2 C 0.115(1) 0.5453(7) 0.3247(8)
C3 C 0.113(2) 0.7149(6) 0.395(1)
C4 C 0.286(1) 0.5990(9) 0.506(1)
N2 N 0.628(1) 0.8799(5) 0.4780(7)
C5 C 0.490(2) 0.899(1) 0.394(1)
C6 C 0.635(2) 0.7734(7) 0.510(1)
C7 C 0.622(1) 0.9346(6) 0.604(1)
C8 C 0.776(1) 0.9074(8) 0.408(1)
loop_
_geom_bond_atom_site_label_1
_geom_bond_atom_site_label_2
_geom_bond_site_symmetry_1
_geom_bond_site_symmetry_2
Zn1 O1 1_555 1_555
Zn2 O16 1_555 1_555
P1 O1 1_555 1_555
P2 O6 1_555 1_555
P3 O9 1_555 1_555
P4 O13 1_555 1_555
O2 P1 1_555 1_555
O3 P1 1_555 1_555
O4 P1 1_555 1_555
O5 Zn1 1_555 1_555
O7 Zn1 1_555 1_555
O8 P2 1_555 1_555
O9 Zn1 1_555 1_555
O10 P3 1_555 1_555
O11 P3 1_555 1_555
O12 P3 1_555 1_555
O13 Zn2A 1_555 1_555
O14 P4 1_555 1_555
O15 P4 1_555 1_555
O16 P4 1_555 1_555
N1 C1 1_555 1_555
C2 N1 1_555 1_555
C3 N1 1_555 1_555
C4 N1 1_555 1_555
N2 C5 1_555 1_555
C6 N2 1_555 1_555
C7 N2 1_555 1_555
C8 N2 1_555 1_555
Zn2A O2 1_555 1_555
O5A P2 1_555 1_555
Zn1A O5A 1_555 1_555
Zn2A_2 O10 1_555 1_555
O10_2 Zn2A 1_555 1_555
O16A Zn2A 1_555 1_555
P2 O7 1_555 1_555

#END
