
#######################################################################
#
#                 Cambridge Crystallographic Data Centre
#                                CCDC 
#
#######################################################################
#
# If this CIF has been generated from an entry in the Cambridge 
# Structural Database, then it will include bibliographic, chemical, 
# crystal, experimental, refinement or atomic coordinate data resulting 
# from the CCDC's data processing and validation procedures.
#
#######################################################################

data_REYPES
_chemical_formula_moiety         '(C66 H54 N32 O23 Zn6)n'
_symmetry_cell_setting           orthorhombic
_symmetry_space_group_name_H-M   'P c c n'
_symmetry_Int_Tables_number      56
_space_group_name_Hall           '-P 2ab 2ac'
loop_
_symmetry_equiv_pos_site_id
_symmetry_equiv_pos_as_xyz
1 x,y,z
2 1/2-x,1/2-y,z
3 1/2+x,-y,1/2-z
4 -x,1/2+y,1/2-z
5 -x,-y,-z
6 1/2+x,1/2+y,-z
7 1/2-x,y,1/2+z
8 x,1/2-y,1/2+z
_cell_length_a                   39.4912(15)
_cell_length_b                   23.7984(12)
_cell_length_c                   8.9131(3)
_cell_angle_alpha                90
_cell_angle_beta                 90
_cell_angle_gamma                90
_cell_volume                     8376.78
loop_
_atom_site_label
_atom_site_type_symbol
_atom_site_fract_x
_atom_site_fract_y
_atom_site_fract_z
Zn1 Zn 0.02164(2) 0.66373(3) 0.58594(9)
Zn2 Zn -0.09973(2) 0.83276(4) 0.42846(9)
Zn3 Zn 0.14428(2) 0.82962(4) 0.41948(9)
C1 C 0.11932(17) 0.7285(3) 0.5776(8)
N1 N -0.02384(15) 0.7107(2) 0.5319(6)
N2 N 0.18584(15) 0.8874(3) 0.3926(7)
N3 N 0.35708(15) 1.1140(3) 0.1064(7)
N4 N -0.03159(14) 0.7565(3) 0.4573(7)
N5 N -0.06355(15) 0.7700(3) 0.4896(6)
N6 N 0.10747(14) 0.7659(3) 0.4771(6)
N7 N 0.06616(15) 0.7082(2) 0.5269(6)
N8 N 0.07551(14) 0.7536(3) 0.4474(6)
C2 C -0.07548(16) 0.7318(3) 0.5899(8)
C3 C 0.09349(17) 0.6915(3) 0.6110(8)
C4 C -0.04995(17) 0.6935(3) 0.6163(8)
C5 C 0.2446(2) 0.9055(4) 0.4133(10)
H1 H 0.2655 0.8950 0.4523
C6 C 0.21619(19) 0.8743(4) 0.4444(10)
H2 H 0.2184 0.8425 0.5045
C7 C 0.2099(2) 0.9666(4) 0.2680(10)
H3 H 0.2071 0.9980 0.2071
N9 N 0.27226(17) 0.9838(3) 0.2978(9)
C8 C 0.24174(19) 0.9524(4) 0.3239(9)
C9 C 0.3004(2) 1.0496(4) 0.1699(10)
C10 C 0.3549(2) 1.0837(4) 0.2307(10)
H4 H 0.3730 1.0850 0.2978
C11 C 0.3316(2) 1.1117(5) 0.0138(10)
H5 H 0.3328 1.1321 -0.0750
C12 C 0.3276(2) 1.0507(4) 0.2661(10)
H6 H 0.3275 1.0294 0.3536
N10 N 0.26983(17) 1.0176(4) 0.1934(9)
C13 C 0.3026(3) 1.0804(5) 0.0413(12)
H7 H 0.2848 1.0805 -0.0273
C14 C 0.1827(2) 0.9332(4) 0.3048(9)
H8 H 0.1614 0.9425 0.2677
O1 O -0.12680(12) 0.7822(2) 0.5841(6)
O2 O 0.17185(12) 0.7738(2) 0.5567(6)
O3 O 0.06057(12) 0.6152(2) 0.6888(5)
C15 C 0.08838(18) 0.6405(3) 0.7055(8)
C16 C -0.11096(19) 0.7428(3) 0.6475(8)
C17 C 0.15499(17) 0.7371(3) 0.6277(8)
O4 O 0.11159(12) 0.6236(2) 0.7921(5)
O5 O 0.16681(12) 0.7095(2) 0.7345(6)
O6 O -0.01752(12) 0.6165(2) 0.6896(6)
O7 O -0.12195(12) 0.7144(2) 0.7539(6)
C18 C -0.04535(18) 0.6403(3) 0.7042(8)
O8 O -0.06954(12) 0.6228(2) 0.7832(6)
N11 N 0.01890(15) 0.6164(3) 0.3862(7)
C19 C 0.01604(19) 0.5609(3) 0.3923(9)
H9 H 0.0172 0.5439 0.4861
C20 C 0.0181(2) 0.6404(3) 0.2506(9)
H10 H 0.0198 0.6793 0.2454
N12 N 0.13153(16) 0.8756(3) 0.6277(7)
C21 C 0.1067(2) 0.9128(4) 0.6299(10)
H11 H 0.0936 0.9171 0.5440
C22 C 0.1502(2) 0.8698(4) 0.7516(9)
H12 H 0.1680 0.8441 0.7507
N13 N 0.08426(18) 1.1101(3) 1.3883(7)
C23 C 0.0149(2) 0.6111(3) 0.1182(9)
H13 H 0.0158 0.6289 0.0254
C24 C 0.1443(2) 0.9005(4) 0.8824(9)
H14 H 0.1576 0.8953 0.9672
C25 C 0.1186(2) 0.9379(4) 0.8824(8)
N14 N 0.0081(2) 0.5220(3) -0.0080(8)
C26 C 0.0992(2) 0.9457(4) 0.7537(10)
H15 H 0.0818 0.9721 0.7510
C27 C 0.0866(2) 1.0558(4) 1.4039(10)
H16 H 0.0867 1.0418 1.5013
C28 C 0.0101(2) 0.5530(4) 0.1312(9)
C29 C 0.0114(2) 0.5266(4) 0.2691(9)
H17 H 0.0093 0.4878 0.2784
C30 C 0.0810(3) 1.1270(4) 1.2492(11)
H18 H 0.0777 1.1652 1.2333
N15 N 0.09071(18) 1.0035(3) 1.0135(8)
N16 N 0.11463(19) 0.9713(3) 1.0173(8)
C31 C 0.0879(2) 1.0375(3) 1.1469(9)
C32 C 0.0887(3) 1.0174(4) 1.2891(10)
H19 H 0.0907 0.9791 1.3084
C33 C 0.0820(3) 1.0930(5) 1.1250(11)
H20 H 0.0787 1.1075 1.0292
O9 O 0.02147(13) 0.7151(2) 0.7786(6)
H21 H 0.0070 0.7029 0.8456
H22 H 0.0415 0.7145 0.8196
N11D N -0.01890(15) 0.3836(3) -0.3862(7)
C19D C -0.01604(19) 0.4391(3) -0.3923(9)
H9D H -0.0172 0.4561 -0.4861
C20D C -0.0181(2) 0.3596(3) -0.2506(9)
H10D H -0.0198 0.3207 -0.2454
C23D C -0.0149(2) 0.3889(3) -0.1182(9)
H13D H -0.0158 0.3711 -0.0254
N14D N -0.0081(2) 0.4780(3) 0.0080(8)
C28D C -0.0101(2) 0.4470(4) -0.1312(9)
C29D C -0.0114(2) 0.4734(4) -0.2691(9)
H17D H -0.0093 0.5122 -0.2784
Zn1D Zn -0.02164(2) 0.33627(3) -0.58594(9)
Zn2D Zn 0.09973(2) 0.16724(4) -0.42846(9)
Zn3D Zn -0.14428(2) 0.17038(4) -0.41948(9)
C1D C -0.11932(17) 0.2715(3) -0.5776(8)
N1D N 0.02384(15) 0.2893(2) -0.5319(6)
N2D N -0.18584(15) 0.1126(3) -0.3926(7)
N3D N -0.35708(15) -0.1140(3) -0.1064(7)
N4D N 0.03159(14) 0.2435(3) -0.4573(7)
N5D N 0.06355(15) 0.2300(3) -0.4896(6)
N6D N -0.10747(14) 0.2341(3) -0.4771(6)
N7D N -0.06616(15) 0.2918(2) -0.5269(6)
N8D N -0.07551(14) 0.2464(3) -0.4474(6)
C2D C 0.07548(16) 0.2682(3) -0.5899(8)
C3D C -0.09349(17) 0.3085(3) -0.6110(8)
C4D C 0.04995(17) 0.3065(3) -0.6163(8)
C5D C -0.2446(2) 0.0945(4) -0.4133(10)
H1D H -0.2655 0.1050 -0.4523
C6D C -0.21619(19) 0.1257(4) -0.4444(10)
H2D H -0.2184 0.1575 -0.5045
C7D C -0.2099(2) 0.0334(4) -0.2680(10)
H3D H -0.2071 0.0020 -0.2071
N9D N -0.27226(17) 0.0162(3) -0.2978(9)
C8D C -0.24174(19) 0.0476(4) -0.3239(9)
C9D C -0.3004(2) -0.0496(4) -0.1699(10)
C10D C -0.3549(2) -0.0837(4) -0.2307(10)
H4D H -0.3730 -0.0850 -0.2978
C11D C -0.3316(2) -0.1117(5) -0.0138(10)
H5D H -0.3328 -0.1321 0.0750
C12D C -0.3276(2) -0.0507(4) -0.2661(10)
H6D H -0.3275 -0.0294 -0.3536
N10D N -0.26983(17) -0.0176(4) -0.1934(9)
C13D C -0.3026(3) -0.0804(5) -0.0413(12)
H7D H -0.2848 -0.0805 0.0273
C14D C -0.1827(2) 0.0668(4) -0.3048(9)
H8D H -0.1614 0.0575 -0.2677
O1D O 0.12680(12) 0.2178(2) -0.5841(6)
O2D O -0.17185(12) 0.2262(2) -0.5567(6)
O3D O -0.06057(12) 0.3848(2) -0.6888(5)
C15D C -0.08838(18) 0.3595(3) -0.7055(8)
C16D C 0.11096(19) 0.2572(3) -0.6475(8)
C17D C -0.15499(17) 0.2629(3) -0.6277(8)
O4D O -0.11159(12) 0.3764(2) -0.7921(5)
O5D O -0.16681(12) 0.2905(2) -0.7345(6)
O6D O 0.01752(12) 0.3835(2) -0.6896(6)
O7D O 0.12195(12) 0.2856(2) -0.7539(6)
C18D C 0.04535(18) 0.3597(3) -0.7042(8)
O8D O 0.06954(12) 0.3772(2) -0.7832(6)
N12D N -0.13153(16) 0.1244(3) -0.6277(7)
C21D C -0.1067(2) 0.0872(4) -0.6299(10)
H11D H -0.0936 0.0829 -0.5440
C22D C -0.1502(2) 0.1302(4) -0.7516(9)
H12D H -0.1680 0.1559 -0.7507
N13D N -0.08426(18) -0.1101(3) -1.3883(7)
C24D C -0.1443(2) 0.0995(4) -0.8824(9)
H14D H -0.1576 0.1047 -0.9672
C25D C -0.1186(2) 0.0621(4) -0.8824(8)
C26D C -0.0992(2) 0.0543(4) -0.7537(10)
H15D H -0.0818 0.0279 -0.7510
C27D C -0.0866(2) -0.0558(4) -1.4039(10)
H16D H -0.0867 -0.0418 -1.5013
C30D C -0.0810(3) -0.1270(4) -1.2492(11)
H18D H -0.0777 -0.1652 -1.2333
N15D N -0.09071(18) -0.0035(3) -1.0135(8)
N16D N -0.11463(19) 0.0287(3) -1.0173(8)
C31D C -0.0879(2) -0.0375(3) -1.1469(9)
C32D C -0.0887(3) -0.0174(4) -1.2891(10)
H19D H -0.0907 0.0209 -1.3084
C33D C -0.0820(3) -0.0930(5) -1.1250(11)
H20D H -0.0787 -0.1075 -1.0292
O9D O -0.02147(13) 0.2849(2) -0.7786(6)
H21D H -0.0070 0.2971 -0.8456
H22D H -0.0415 0.2855 -0.8196
Zn2_2 Zn -0.09973(2) -0.16724(4) -1.57154(9)
Zn2B Zn 0.40027(2) 1.16724(4) 0.07154(9)
Zn2C Zn 0.09973(2) 0.33276(4) -0.92846(9)
Zn2D_2 Zn 0.09973(2) 1.16724(4) 1.57154(9)
Zn2F Zn -0.40027(2) -0.16724(4) -0.07154(9)
Zn2G Zn -0.09973(2) 0.66724(4) 0.92846(9)
Zn3C Zn -0.14428(2) 0.32962(4) -0.91948(9)
Zn3G Zn 0.14428(2) 0.67038(4) 0.91948(9)
N3B N -0.14292(15) 0.8860(3) 0.3936(7)
N3F N 0.14292(15) 0.1140(3) -0.3936(7)
O4C O -0.11159(12) 0.1236(2) -0.2921(5)
O4G O 0.11159(12) 0.8764(2) 0.2921(5)
O5C O -0.16681(12) 0.2095(2) -0.2345(6)
O5G O 0.16681(12) 0.7905(2) 0.2345(6)
O7C O 0.12195(12) 0.2144(2) -0.2539(6)
O7G O -0.12195(12) 0.7856(2) 0.2539(6)
O8C O 0.06954(12) 0.1228(2) -0.2832(6)
O8G O -0.06954(12) 0.8772(2) 0.2832(6)
N13_2 N 0.08426(18) 0.1101(3) -0.6117(7)
N13D_2 N -0.08426(18) 0.8899(3) 0.6117(7)
O10 O -0.21905(18) 0.7794(4) 0.5701(8)
O11 O 0.2218(3) 0.7826(6) 0.8489(14)
O12 O -0.2632(3) 0.8588(6) 0.6484(15)
O13 O -0.2908(4) 0.8798(7) 0.3651(17)
O14 O -0.1929(3) 0.7173(7) 0.7861(15)
loop_
_geom_bond_atom_site_label_1
_geom_bond_atom_site_label_2
_geom_bond_site_symmetry_1
_geom_bond_site_symmetry_2
Zn1 N1 1_555 1_555
Zn2 N5 1_555 1_555
Zn3 N2 1_555 1_555
C1 N6 1_555 1_555
N1 N4 1_555 1_555
N2 C6 1_555 1_555
N3 C10 1_555 1_555
N4 N5 1_555 1_555
N5 C2 1_555 1_555
N6 Zn3 1_555 1_555
N7 Zn1 1_555 1_555
N8 N6 1_555 1_555
C2 C4 1_555 1_555
C3 C1 1_555 1_555
C4 N1 1_555 1_555
C5 H1 1_555 1_555
C6 C5 1_555 1_555
H2 C6 1_555 1_555
C7 H3 1_555 1_555
N9 C8 1_555 1_555
C8 C5 1_555 1_555
C9 C12 1_555 1_555
C10 H4 1_555 1_555
C11 N3 1_555 1_555
H5 C11 1_555 1_555
C12 C10 1_555 1_555
H6 C12 1_555 1_555
N10 N9 1_555 1_555
C13 C9 1_555 1_555
H7 C13 1_555 1_555
C14 N2 1_555 1_555
H8 C14 1_555 1_555
O1 Zn2 1_555 1_555
O2 Zn3 1_555 1_555
O3 Zn1 1_555 1_555
C15 C3 1_555 1_555
C16 C2 1_555 1_555
C17 C1 1_555 1_555
O4 C15 1_555 1_555
O5 C17 1_555 1_555
O6 Zn1 1_555 1_555
O7 C16 1_555 1_555
C18 C4 1_555 1_555
O8 C18 1_555 1_555
N11 Zn1 1_555 1_555
C19 N11 1_555 1_555
H9 C19 1_555 1_555
C20 N11 1_555 1_555
H10 C20 1_555 1_555
N12 Zn3 1_555 1_555
C21 N12 1_555 1_555
H11 C21 1_555 1_555
C22 N12 1_555 1_555
H12 C22 1_555 1_555
N13 C27 1_555 1_555
C23 C20 1_555 1_555
H13 C23 1_555 1_555
C24 C22 1_555 1_555
H14 C24 1_555 1_555
C25 C24 1_555 1_555
N14 C28 1_555 1_555
C26 C21 1_555 1_555
H15 C26 1_555 1_555
C27 H16 1_555 1_555
C28 C23 1_555 1_555
C29 C19 1_555 1_555
H17 C29 1_555 1_555
C30 N13 1_555 1_555
H18 C30 1_555 1_555
N15 N16 1_555 1_555
N16 C25 1_555 1_555
C31 N15 1_555 1_555
C32 C27 1_555 1_555
H19 C32 1_555 1_555
C33 C30 1_555 1_555
H20 C33 1_555 1_555
O9 Zn1 1_555 1_555
H21 O9 1_555 1_555
H22 O9 1_555 1_555
N11D C19D 1_555 1_555
C19D H9D 1_555 1_555
C20D N11D 1_555 1_555
H10D C20D 1_555 1_555
C23D C20D 1_555 1_555
H13D C23D 1_555 1_555
N14D N14 1_555 1_555
C28D C23D 1_555 1_555
C29D C19D 1_555 1_555
H17D C29D 1_555 1_555
Zn1D N11D 1_555 1_555
Zn2D N5D 1_555 1_555
Zn3D N2D 1_555 1_555
C1D N6D 1_555 1_555
N1D Zn1D 1_555 1_555
N2D C6D 1_555 1_555
N3D C10D 1_555 1_555
N4D N1D 1_555 1_555
N5D N4D 1_555 1_555
N6D Zn3D 1_555 1_555
N7D Zn1D 1_555 1_555
N8D N6D 1_555 1_555
C2D N5D 1_555 1_555
C3D C1D 1_555 1_555
C4D N1D 1_555 1_555
C5D H1D 1_555 1_555
C6D C5D 1_555 1_555
H2D C6D 1_555 1_555
C7D H3D 1_555 1_555
N9D C8D 1_555 1_555
C8D C5D 1_555 1_555
C9D C12D 1_555 1_555
C10D H4D 1_555 1_555
C11D N3D 1_555 1_555
H5D C11D 1_555 1_555
C12D C10D 1_555 1_555
H6D C12D 1_555 1_555
N10D N9D 1_555 1_555
C13D C9D 1_555 1_555
H7D C13D 1_555 1_555
C14D N2D 1_555 1_555
H8D C14D 1_555 1_555
O1D Zn2D 1_555 1_555
O2D Zn3D 1_555 1_555
O3D Zn1D 1_555 1_555
C15D C3D 1_555 1_555
C16D C2D 1_555 1_555
C17D C1D 1_555 1_555
O4D C15D 1_555 1_555
O5D C17D 1_555 1_555
O6D Zn1D 1_555 1_555
O7D C16D 1_555 1_555
C18D C4D 1_555 1_555
O8D C18D 1_555 1_555
N12D Zn3D 1_555 1_555
C21D N12D 1_555 1_555
H11D C21D 1_555 1_555
C22D N12D 1_555 1_555
H12D C22D 1_555 1_555
N13D C27D 1_555 1_555
C24D C22D 1_555 1_555
H14D C24D 1_555 1_555
C25D C24D 1_555 1_555
C26D C21D 1_555 1_555
H15D C26D 1_555 1_555
C27D H16D 1_555 1_555
C30D N13D 1_555 1_555
H18D C30D 1_555 1_555
N15D N16D 1_555 1_555
N16D C25D 1_555 1_555
C31D N15D 1_555 1_555
C32D C27D 1_555 1_555
H19D C32D 1_555 1_555
C33D C30D 1_555 1_555
H20D C33D 1_555 1_555
O9D Zn1D 1_555 1_555
H21D O9D 1_555 1_555
H22D O9D 1_555 1_555
Zn2_2 N13D 1_555 1_555
Zn2B N3 1_555 1_555
Zn2C O7D 1_555 1_555
Zn2D_2 N13 1_555 1_555
Zn2F N3D 1_555 1_555
Zn2G O7 1_555 1_555
Zn3C O4D 1_555 1_555
Zn3G O4 1_555 1_555
N3B Zn2 1_555 1_555
N3F Zn2D 1_555 1_555
O4C Zn3D 1_555 1_555
O4G Zn3 1_555 1_555
O5C Zn3D 1_555 1_555
O5G Zn3 1_555 1_555
O7C Zn2D 1_555 1_555
O7G Zn2 1_555 1_555
O8C Zn2D 1_555 1_555
O8G Zn2 1_555 1_555
N13_2 Zn2D 1_555 1_555
N13D_2 Zn2 1_555 1_555
N7 N8 1_555 1_555
N7 C3 1_555 1_555
C7 C8 1_555 1_555
C7 C14 1_555 1_555
C9 N10 1_555 1_555
C11 C13 1_555 1_555
O1 C16 1_555 1_555
O2 C17 1_555 1_555
O3 C15 1_555 1_555
O5 Zn3G 1_555 1_555
O6 C18 1_555 1_555
O8 Zn2G 1_555 1_555
C25 C26 1_555 1_555
C28 C29 1_555 1_555
C31 C32 1_555 1_555
C31 C33 1_555 1_555
N14D C28D 1_555 1_555
C28D C29D 1_555 1_555
N7D N8D 1_555 1_555
N7D C3D 1_555 1_555
C2D C4D 1_555 1_555
C7D C8D 1_555 1_555
C7D C14D 1_555 1_555
C9D N10D 1_555 1_555
C11D C13D 1_555 1_555
O1D C16D 1_555 1_555
O2D C17D 1_555 1_555
O3D C15D 1_555 1_555
O5D Zn3C 1_555 1_555
O6D C18D 1_555 1_555
O8D Zn2C 1_555 1_555
C25D C26D 1_555 1_555
C31D C32D 1_555 1_555
C31D C33D 1_555 1_555

#END
