
#######################################################################
#
#                 Cambridge Crystallographic Data Centre
#                                CCDC 
#
#######################################################################
#
# If this CIF has been generated from an entry in the Cambridge 
# Structural Database, then it will include bibliographic, chemical, 
# crystal, experimental, refinement or atomic coordinate data resulting 
# from the CCDC's data processing and validation procedures.
#
#######################################################################

data_CUFDUD
_chemical_formula_moiety         'C54 H40 In9 N1 O36 1+'
_symmetry_cell_setting           rhombohedral
_symmetry_space_group_name_H-M   'R 3 c'
_symmetry_Int_Tables_number      161
_space_group_name_Hall           'R 3 -2"c'
loop_
_symmetry_equiv_pos_site_id
_symmetry_equiv_pos_as_xyz
1 x,y,z
2 -y,x-y,z
3 -x+y,-x,z
4 -y,-x,1/2+z
5 -x+y,y,1/2+z
6 x,x-y,1/2+z
7 2/3+x,1/3+y,1/3+z
8 2/3-y,1/3+x-y,1/3+z
9 2/3-x+y,1/3-x,1/3+z
10 2/3-y,1/3-x,5/6+z
11 2/3-x+y,1/3+y,5/6+z
12 2/3+x,1/3+x-y,5/6+z
13 1/3+x,2/3+y,2/3+z
14 1/3-y,2/3+x-y,2/3+z
15 1/3-x+y,2/3-x,2/3+z
16 1/3-y,2/3-x,1/6+z
17 1/3-x+y,2/3+y,1/6+z
18 1/3+x,2/3+x-y,1/6+z
_cell_length_a                   29.14530(10)
_cell_length_b                   29.14530(10)
_cell_length_c                   16.9910(2)
_cell_angle_alpha                90
_cell_angle_beta                 90
_cell_angle_gamma                120
_cell_volume                     12499.3
loop_
_atom_site_label
_atom_site_type_symbol
_atom_site_fract_x
_atom_site_fract_y
_atom_site_fract_z
_atom_site_U_iso_or_equiv
_atom_site_thermal_displace_type
In1 In 0.530981(10) 0.842931(11) 1.386513(16) 0.0251 Uani
C13 C 0.59893(15) 0.79216(16) 1.2189(3) 0.0295 Uani
O1 O 0.59175(11) 0.82798(12) 1.34111(17) 0.0340 Uani
O2 O 0.44567(11) 0.80374(11) 1.36670(18) 0.0321 Uani
O3 O 0.60022(12) 0.70999(13) 0.97708(17) 0.0358 Uani
O4 O 0.74934(11) 0.77432(13) 1.15880(17) 0.0355 Uani
O5 O 0.47735(11) 0.74981(11) 1.38057(19) 0.0368 Uani
O6 O 0.53341(12) 0.81588(13) 1.24841(17) 0.0363 Uani
O7 O 0.52694(12) 0.70817(13) 1.01040(18) 0.0380 Uani
C14 C 0.64710(17) 0.75193(17) 1.1230(3) 0.0309 Uani
H29 H 0.6628 0.7377 1.0913 0.0380 Uiso
C15 C 0.43896(16) 0.75726(17) 1.3700(2) 0.0318 Uani
C16 C 0.64875(16) 0.79994(16) 1.2390(2) 0.0312 Uani
H30 H 0.6652 0.8179 1.2850 0.0370 Uiso
C17 C 0.67384(16) 0.78083(16) 1.1903(2) 0.0289 Uani
C18 C 0.57386(16) 0.76447(17) 1.1510(2) 0.0306 Uani
H31 H 0.5407 0.7595 1.1377 0.0370 Uiso
C19 C 0.38424(17) 0.71051(16) 1.3640(3) 0.0324 Uani
O8 O 0.75323(11) 0.81869(12) 1.26605(18) 0.0364 Uani
C20 C 0.57374(17) 0.71860(17) 1.0261(2) 0.0314 Uani
C21 C 0.57237(17) 0.81307(16) 1.2718(3) 0.0310 Uani
C22 C 0.72826(16) 0.79164(17) 1.2075(2) 0.0303 Uani
C23 C 0.59792(17) 0.74427(17) 1.1031(2) 0.0310 Uiso
C24 C 0.37729(17) 0.65943(16) 1.3643(2) 0.0318 Uiso
H32 H 0.4065 0.6547 1.3646 0.0380 Uiso
In1A In 0.157069(11) 0.688050(15) 1.386513(16) 0.0251 Uani
In1B In 0.311950(15) 0.469019(10) 1.386513(16) 0.0251 Uani
In1C In 0.157069(11) 0.469019(10) 0.886513(16) 0.0251 Uani
In1D In 0.311950(15) 0.842931(11) 0.886513(16) 0.0251 Uani
In1E In 0.530981(10) 0.688050(15) 0.886513(16) 0.0251 Uani
In1I In 0.823736(11) 0.802352(10) 1.219846(16) 0.0251 Uani
In1J In -0.021383(15) 0.176264(11) 1.219846(16) 0.0251 Uani
In1K In 0.197648(10) 1.021383(15) 1.219846(16) 0.0251 Uani
C13A C 0.20784(16) 0.80677(22) 1.2189(3) 0.0295 Uani
C13B C 0.19323(22) 0.40107(15) 1.2189(3) 0.0295 Uani
O1A O 0.17202(12) 0.76377(16) 1.34111(17) 0.0340 Uani
O1B O 0.23623(16) 0.40825(11) 1.34111(17) 0.0340 Uani
O2A O 0.19626(11) 0.64193(16) 1.36670(18) 0.0321 Uani
O2B O 0.35807(16) 0.55433(11) 1.36670(18) 0.0321 Uani
O3A O 0.29001(13) 0.89023(18) 0.97708(17) 0.0358 Uani
O3B O 0.10977(18) 0.39978(12) 0.97708(17) 0.0358 Uani
O3C O 0.29001(13) 0.39978(12) 1.47708(17) 0.0358 Uani
O3D O 0.10977(18) 0.70999(13) 1.47708(17) 0.0358 Uani
O3E O 0.60022(12) 0.89023(18) 1.47708(17) 0.0358 Uani
O4A O 0.22568(13) 0.97502(17) 1.15880(17) 0.0355 Uani
O4B O 0.02498(17) 0.25066(11) 1.15880(17) 0.0355 Uani
O4O O 0.55901(13) 0.91733(11) 1.32547(17) 0.0355 Uani
O4P O 0.35831(17) 0.44099(13) 1.32547(17) 0.0355 Uani
O4Q O 0.08267(11) 0.64169(17) 1.32547(17) 0.0355 Uani
O5A O 0.25019(11) 0.72754(16) 1.38057(19) 0.0368 Uani
O5B O 0.27246(16) 0.52265(11) 1.38057(19) 0.0368 Uani
O6A O 0.18412(13) 0.71753(18) 1.24841(17) 0.0363 Uani
O6B O 0.28247(18) 0.46659(12) 1.24841(17) 0.0363 Uani
O7A O 0.29183(13) 0.81877(18) 1.01040(18) 0.0380 Uani
O7B O 0.18123(18) 0.47306(12) 1.01040(18) 0.0380 Uani
O7C O 0.29183(13) 0.47306(12) 1.51040(18) 0.0380 Uani
O7D O 0.18123(18) 0.70817(13) 1.51040(18) 0.0380 Uani
O7E O 0.52694(12) 0.81877(18) 1.51040(18) 0.0380 Uani
C14A C 0.24807(17) 0.89517(24) 1.1230(3) 0.0309 Uani
C14B C 0.10483(24) 0.35290(17) 1.1230(3) 0.0309 Uani
H29A H 0.2623 0.9251 1.0913 0.0380 Uiso
H29B H 0.0749 0.3372 1.0913 0.0380 Uiso
C15A C 0.24274(17) 0.68170(23) 1.3700(2) 0.0318 Uani
C15B C 0.31830(23) 0.56104(16) 1.3700(2) 0.0318 Uani
C16A C 0.20006(16) 0.84881(23) 1.2390(2) 0.0312 Uani
C16B C 0.15119(23) 0.35125(16) 1.2390(2) 0.0312 Uani
H30A H 0.1821 0.8473 1.2850 0.0370 Uiso
H30B H 0.1527 0.3348 1.2850 0.0370 Uiso
C17A C 0.21917(16) 0.89301(23) 1.1903(2) 0.0289 Uani
C17B C 0.10699(23) 0.32616(16) 1.1903(2) 0.0289 Uani
C18A C 0.23553(17) 0.80939(23) 1.1510(2) 0.0306 Uani
C18B C 0.19061(23) 0.42614(16) 1.1510(2) 0.0306 Uani
H31A H 0.2405 0.7812 1.1377 0.0370 Uiso
H31B H 0.2188 0.4593 1.1377 0.0370 Uiso
C19A C 0.28949(16) 0.67373(23) 1.3640(3) 0.0324 Uani
C19B C 0.32627(23) 0.61576(17) 1.3640(3) 0.0324 Uani
O8A O 0.18131(12) 0.93454(16) 1.26605(18) 0.0364 Uani
O8B O 0.06546(16) 0.24677(11) 1.26605(18) 0.0364 Uani
O8O O 0.51464(12) 0.91344(11) 1.43272(18) 0.0364 Uani
O8P O 0.39879(16) 0.48536(12) 1.43272(18) 0.0364 Uani
O8Q O 0.08656(11) 0.60121(16) 1.43272(18) 0.0364 Uani
C20A C 0.28140(17) 0.85514(24) 1.0261(2) 0.0314 Uani
C20B C 0.14486(24) 0.42626(17) 1.0261(2) 0.0314 Uani
C20C C 0.28140(17) 0.42626(17) 1.5261(2) 0.0314 Uani
C20D C 0.14486(24) 0.71860(17) 1.5261(2) 0.0314 Uani
C20E C 0.57374(17) 0.85514(24) 1.5261(2) 0.0314 Uani
C21A C 0.18693(16) 0.75930(23) 1.2718(3) 0.0310 Uani
C21B C 0.24070(23) 0.42763(17) 1.2718(3) 0.0310 Uani
C22A C 0.20836(17) 0.93662(23) 1.2075(2) 0.0303 Uani
C22B C 0.06338(23) 0.27174(16) 1.2075(2) 0.0303 Uani
C22O C 0.54169(17) 0.93841(16) 1.3742(2) 0.0303 Uani
C22P C 0.39671(23) 0.45831(17) 1.3742(2) 0.0303 Uani
C22Q C 0.06159(16) 0.60329(23) 1.3742(2) 0.0303 Uani
C23A C 0.25573(17) 0.85365(24) 1.1031(2) 0.0310 Uiso
C23B C 0.14635(24) 0.40208(17) 1.1031(2) 0.0310 Uiso
C24A C 0.34057(16) 0.71786(23) 1.3643(2) 0.0318 Uiso
C24B C 0.28214(23) 0.62271(17) 1.3643(2) 0.0318 Uiso
H32A H 0.3453 0.7518 1.3646 0.0380 Uiso
H32B H 0.2482 0.5935 1.3646 0.0380 Uiso
N1 N 0.38550(17) 0.88671(16) 1.5625(3) 0.0486 Uiso
C1 C 0.4569(3) 0.9307(3) 1.6685(5) 0.0870 Uiso
H1 H 0.4535 0.8973 1.6849 0.1040 Uiso
H2 H 0.4341 0.9381 1.7014 0.1040 Uiso
C2 C 0.3299(3) 0.8523(3) 1.4345(5) 0.0850 Uiso
H3 H 0.3179 0.8156 1.4473 0.1020 Uiso
H4 H 0.3036 0.8610 1.4529 0.1020 Uiso
C3 C 0.4103(3) 0.8150(3) 1.5622(4) 0.0766 Uiso
H5 H 0.4460 0.8398 1.5798 0.0920 Uiso
H6 H 0.4104 0.8141 1.5051 0.0920 Uiso
C4 C 0.4421(2) 0.9285(2) 1.5841(3) 0.0567 Uiso
H7 H 0.4662 0.9221 1.5529 0.0680 Uiso
H8 H 0.4475 0.9630 1.5691 0.0680 Uiso
C5 C 0.3470(2) 0.8998(2) 1.6023(4) 0.0664 Uiso
H9 H 0.3531 0.9012 1.6586 0.0800 Uiso
H10 H 0.3114 0.8706 1.5927 0.0800 Uiso
C6 C 0.3486(3) 0.9509(3) 1.5780(4) 0.0743 Uiso
H11 H 0.3843 0.9806 1.5839 0.0890 Uiso
H12 H 0.3383 0.9488 1.5233 0.0890 Uiso
C7 C 0.3381(5) 0.8613(4) 1.3469(7) 0.1280 Uiso
H13 H 0.3054 0.8391 1.3200 0.1920 Uiso
H14 H 0.3644 0.8528 1.3298 0.1920 Uiso
H15 H 0.3499 0.8977 1.3352 0.1920 Uiso
C8 C 0.3835(2) 0.8887(2) 1.4728(3) 0.0580 Uiso
H16 H 0.4091 0.8800 1.4516 0.0700 Uiso
H17 H 0.3948 0.9249 1.4574 0.0700 Uiso
C9 C 0.3933(4) 0.7600(4) 1.5947(6) 0.1290 Uiso
H18 H 0.4174 0.7488 1.5768 0.1940 Uiso
H19 H 0.3581 0.7354 1.5766 0.1940 Uiso
H20 H 0.3935 0.7611 1.6512 0.1940 Uiso
C10 C 0.3731(3) 0.8326(3) 1.5898(4) 0.0667 Uiso
H21 H 0.3728 0.8323 1.6469 0.0800 Uiso
H22 H 0.3377 0.8070 1.5722 0.0800 Uiso
C11 C 0.3107(4) 0.9589(3) 1.6301(6) 0.1090 Uiso
H23 H 0.3108 0.9906 1.6144 0.1640 Uiso
H24 H 0.3217 0.9621 1.6840 0.1640 Uiso
H25 H 0.2756 0.9291 1.6247 0.1640 Uiso
C12 C 0.5156(4) 0.9763(4) 1.6753(5) 0.1150 Uiso
H26 H 0.5273 0.9790 1.7289 0.1720 Uiso
H27 H 0.5182 1.0091 1.6595 0.1720 Uiso
H28 H 0.5375 0.9687 1.6418 0.1720 Uiso
loop_
_atom_site_aniso_label
_atom_site_aniso_U_11
_atom_site_aniso_U_22
_atom_site_aniso_U_33
_atom_site_aniso_U_23
_atom_site_aniso_U_13
_atom_site_aniso_U_12
In1 0.02345(15) 0.02436(16) 0.02761(13) -0.00001(12) -0.00132(12) 0.01202(13)
C13 0.025(2) 0.033(2) 0.033(2) -0.001(2) 0.0010(19) 0.0164(18)
O1 0.0271(16) 0.0377(17) 0.0370(17) -0.0073(14) -0.0021(13) 0.0161(14)
O2 0.0231(15) 0.0260(16) 0.0451(18) -0.0051(13) -0.0038(13) 0.0106(13)
O3 0.0347(17) 0.0461(19) 0.0273(16) -0.0065(14) -0.0049(13) 0.0208(15)
O4 0.0309(17) 0.0500(19) 0.0310(16) -0.0052(14) -0.0028(13) 0.0243(15)
O5 0.0257(16) 0.0324(17) 0.053(2) 0.0006(14) -0.0050(14) 0.0150(14)
O6 0.0357(17) 0.0439(19) 0.0366(17) -0.0051(14) -0.0029(14) 0.0253(15)
O7 0.0321(17) 0.0507(19) 0.0348(17) -0.0130(14) -0.0103(13) 0.0233(15)
C14 0.030(2) 0.037(2) 0.030(2) -0.0006(18) -0.0013(18) 0.020(2)
C15 0.024(2) 0.033(2) 0.035(2) -0.0025(18) -0.0030(17) 0.0117(19)
C16 0.027(2) 0.030(2) 0.031(2) -0.0051(18) -0.0024(17) 0.0101(19)
C17 0.027(2) 0.032(2) 0.027(2) 0.0017(17) 0.0009(17) 0.0142(19)
C18 0.023(2) 0.032(2) 0.037(2) -0.0025(18) 0.0011(18) 0.0139(19)
C19 0.030(2) 0.026(2) 0.038(2) 0.0018(18) 0.0024(18) 0.0116(19)
O8 0.0265(16) 0.0427(18) 0.0390(17) -0.0095(14) -0.0049(13) 0.0166(15)
C20 0.033(3) 0.029(2) 0.033(2) 0.0024(18) -0.0010(19) 0.016(2)
C21 0.037(2) 0.027(2) 0.033(2) -0.0030(18) 0.0031(19) 0.019(2)
C22 0.026(2) 0.039(3) 0.027(2) 0.0068(18) 0.0037(18) 0.017(2)
In1A 0.02436 0.02377 0.02761 -0.00131 1e-05 0.01234
In1B 0.02377 0.02345 0.02761 0.00132 0.00131 0.01143
In1C 0.02436 0.02345 0.02761 0.00132 1e-05 0.01202
In1D 0.02377 0.02436 0.02761 -1e-05 0.00131 0.01234
In1E 0.02345 0.02377 0.02761 -0.00131 -0.00132 0.01143
In1I 0.02436 0.02345 0.02761 0.00132 1e-05 0.01202
In1J 0.02377 0.02436 0.02761 -1e-05 0.00131 0.01234
In1K 0.02345 0.02377 0.02761 -0.00131 -0.00132 0.01143
C13A 0.033 0.0252 0.033 0.002 0.001 0.0166
C13B 0.0252 0.025 0.033 -0.001 -0.002 0.0086
O1A 0.0377 0.0326 0.037 0.0052 0.0073 0.0216
O1B 0.0326 0.0271 0.037 0.0021 -0.0052 0.011
O2A 0.026 0.0279 0.0451 0.0013 0.0051 0.0154
O2B 0.0279 0.0231 0.0451 0.0038 -0.0013 0.0125
O3A 0.0461 0.0392 0.0273 0.0016 0.0065 0.0253
O3B 0.0392 0.0347 0.0273 0.0049 -0.0016 0.0139
O3C 0.0461 0.0347 0.0273 0.0049 0.0065 0.0208
O3D 0.0392 0.0461 0.0273 -0.0065 -0.0016 0.0253
O3E 0.0347 0.0392 0.0273 0.0016 -0.0049 0.0139
O4A 0.05 0.0323 0.031 0.0024 0.0052 0.0257
O4B 0.0323 0.0309 0.031 0.0028 -0.0024 0.0066
O4O 0.05 0.0309 0.031 0.0028 0.0052 0.0243
O4P 0.0323 0.05 0.031 -0.0052 -0.0024 0.0257
O4Q 0.0309 0.0323 0.031 0.0024 -0.0028 0.0066
O5A 0.0324 0.0281 0.053 -0.0056 -0.0006 0.0174
O5B 0.0281 0.0257 0.053 0.005 0.0056 0.0107
O6A 0.0439 0.029 0.0366 0.0022 0.0051 0.0186
O6B 0.029 0.0357 0.0366 0.0029 -0.0022 0.0104
O7A 0.0507 0.0362 0.0348 0.0027 0.013 0.0274
O7B 0.0362 0.0321 0.0348 0.0103 -0.0027 0.0088
O7C 0.0507 0.0321 0.0348 0.0103 0.013 0.0233
O7D 0.0362 0.0507 0.0348 -0.013 -0.0027 0.0274
O7E 0.0321 0.0362 0.0348 0.0027 -0.0103 0.0088
C14A 0.037 0.027 0.03 -0.0007 0.0006 0.017
C14B 0.027 0.03 0.03 0.0013 0.0007 0.01
C15A 0.033 0.0336 0.035 -0.0005 0.0025 0.0213
C15B 0.0336 0.024 0.035 0.003 0.0005 0.0123
C16A 0.03 0.0368 0.031 0.0027 0.0051 0.0199
C16B 0.0368 0.027 0.031 0.0024 -0.0027 0.0169
C17A 0.032 0.0306 0.027 -0.0008 -0.0017 0.0178
C17B 0.0306 0.027 0.027 -0.0009 0.0008 0.0128
C18A 0.032 0.0272 0.037 0.0036 0.0025 0.0181
C18B 0.0272 0.023 0.037 -0.0011 -0.0036 0.0091
C19A 0.026 0.0328 0.038 0.0006 -0.0018 0.0144
C19B 0.0328 0.03 0.038 -0.0024 -0.0006 0.0184
O8A 0.0427 0.036 0.039 0.0046 0.0095 0.0261
O8B 0.036 0.0265 0.039 0.0049 -0.0046 0.0099
O8O 0.0427 0.0265 0.039 0.0049 0.0095 0.0166
O8P 0.036 0.0427 0.039 -0.0095 -0.0046 0.0261
O8Q 0.0265 0.036 0.039 0.0046 -0.0049 0.0099
C20A 0.029 0.03 0.033 -0.0034 -0.0024 0.013
C20B 0.03 0.033 0.033 0.001 0.0034 0.017
C20C 0.029 0.033 0.033 0.001 -0.0024 0.016
C20D 0.03 0.029 0.033 0.0024 0.0034 0.013
C20E 0.033 0.03 0.033 -0.0034 -0.001 0.017
C21A 0.027 0.026 0.033 0.0061 0.003 0.008
C21B 0.026 0.037 0.033 -0.0031 -0.0061 0.018
C22A 0.039 0.031 0.027 -0.0031 -0.0068 0.022
C22B 0.031 0.026 0.027 -0.0037 0.0031 0.009
C22O 0.039 0.026 0.027 -0.0037 -0.0068 0.017
C22P 0.031 0.039 0.027 0.0068 0.0031 0.022
C22Q 0.026 0.031 0.027 -0.0031 0.0037 0.009
loop_
_geom_bond_atom_site_label_1
_geom_bond_atom_site_label_2
_geom_bond_site_symmetry_1
_geom_bond_site_symmetry_2
N1 C4 1_555 1_555
C1 H1 1_555 1_555
H2 C1 1_555 1_555
C2 H3 1_555 1_555
H4 C2 1_555 1_555
C3 H5 1_555 1_555
H6 C3 1_555 1_555
C4 C1 1_555 1_555
H7 C4 1_555 1_555
H8 C4 1_555 1_555
C5 N1 1_555 1_555
H9 C5 1_555 1_555
H10 C5 1_555 1_555
C6 C5 1_555 1_555
H11 C6 1_555 1_555
H12 C6 1_555 1_555
C7 C2 1_555 1_555
H13 C7 1_555 1_555
H14 C7 1_555 1_555
H15 C7 1_555 1_555
C8 N1 1_555 1_555
H16 C8 1_555 1_555
H17 C8 1_555 1_555
C9 C3 1_555 1_555
H18 C9 1_555 1_555
H19 C9 1_555 1_555
H20 C9 1_555 1_555
C10 N1 1_555 1_555
H21 C10 1_555 1_555
H22 C10 1_555 1_555
C11 C6 1_555 1_555
H23 C11 1_555 1_555
H24 C11 1_555 1_555
H25 C11 1_555 1_555
C12 C1 1_555 1_555
H26 C12 1_555 1_555
H27 C12 1_555 1_555
H28 C12 1_555 1_555
In1 O1 1_555 1_555
C13 C16 1_555 1_555
O1 C21 1_555 1_555
O2 In1 1_555 1_555
O3 C20 1_555 1_555
O4 C22 1_555 1_555
O5 In1 1_555 1_555
O6 In1 1_555 1_555
O7 C20 1_555 1_555
C14 H29 1_555 1_555
C15 O2 1_555 1_555
C16 H30 1_555 1_555
C17 C14 1_555 1_555
C18 C13 1_555 1_555
H31 C18 1_555 1_555
C19 C15 1_555 1_555
O8 C22 1_555 1_555
C20 C23 1_555 1_555
C21 C13 1_555 1_555
C22 C17 1_555 1_555
C23 C14 1_555 1_555
C24 C19 1_555 1_555
H32 C24 1_555 1_555
In1A O1A 1_555 1_555
In1B O1B 1_555 1_555
In1C O3B 1_555 1_555
In1D O3A 1_555 1_555
In1E O3 1_555 1_555
In1I O4 1_555 1_555
In1J O4B 1_555 1_555
In1K O4A 1_555 1_555
C13A C16A 1_555 1_555
C13B C16B 1_555 1_555
O1A C21A 1_555 1_555
O1B C21B 1_555 1_555
O2A In1A 1_555 1_555
O2B In1B 1_555 1_555
O3A C20A 1_555 1_555
O3B C20B 1_555 1_555
O3C In1B 1_555 1_555
O3D In1A 1_555 1_555
O3E In1 1_555 1_555
O4A C22A 1_555 1_555
O4B C22B 1_555 1_555
O4O In1 1_555 1_555
O4P In1B 1_555 1_555
O4Q In1A 1_555 1_555
O5A In1A 1_555 1_555
O5B In1B 1_555 1_555
O6A In1A 1_555 1_555
O6B In1B 1_555 1_555
O7A In1D 1_555 1_555
O7B In1C 1_555 1_555
O7C In1B 1_555 1_555
O7D In1A 1_555 1_555
O7E In1 1_555 1_555
C14A H29A 1_555 1_555
C14B H29B 1_555 1_555
C15A O2A 1_555 1_555
C15B O2B 1_555 1_555
C16A H30A 1_555 1_555
C16B H30B 1_555 1_555
C17A C14A 1_555 1_555
C17B C14B 1_555 1_555
C18A C13A 1_555 1_555
C18B C13B 1_555 1_555
H31A C18A 1_555 1_555
H31B C18B 1_555 1_555
C19A C15A 1_555 1_555
C19B C24 1_555 1_555
O8A In1K 1_555 1_555
O8B In1J 1_555 1_555
O8O In1 1_555 1_555
O8P In1B 1_555 1_555
O8Q In1A 1_555 1_555
C20A O7A 1_555 1_555
C20B O7B 1_555 1_555
C20C O3C 1_555 1_555
C20D O3D 1_555 1_555
C20E O3E 1_555 1_555
C21A C13A 1_555 1_555
C21B C13B 1_555 1_555
C22A C17A 1_555 1_555
C22B C17B 1_555 1_555
C22O O4O 1_555 1_555
C22P O4P 1_555 1_555
C22Q O4Q 1_555 1_555
C23A C14A 1_555 1_555
C23B C14B 1_555 1_555
C24A C19 1_555 1_555
C24B C19A 1_555 1_555
H32A C24A 1_555 1_555
H32B C24B 1_555 1_555
C2 C8 1_555 1_555
C3 C10 1_555 1_555
O5 C15 1_555 1_555
O6 C21 1_555 1_555
O7 In1E 1_555 1_555
C16 C17 1_555 1_555
C18 C23 1_555 1_555
O8 In1I 1_555 1_555
O5A C15A 1_555 1_555
O5B C15B 1_555 1_555
O6A C21A 1_555 1_555
O6B C21B 1_555 1_555
O7C C20C 1_555 1_555
O7D C20D 1_555 1_555
O7E C20E 1_555 1_555
C15B C19B 1_555 1_555
C16A C17A 1_555 1_555
C16B C17B 1_555 1_555
C18A C23A 1_555 1_555
C18B C23B 1_555 1_555
C19A C24A 1_555 1_555
C19B C24B 1_555 1_555
O8A C22A 1_555 1_555
O8B C22B 1_555 1_555
O8O C22O 1_555 1_555
O8P C22P 1_555 1_555
O8Q C22Q 1_555 1_555
C20A C23A 1_555 1_555
C20B C23B 1_555 1_555

#END
