
#######################################################################
#
#                 Cambridge Crystallographic Data Centre
#                                CCDC 
#
#######################################################################
#
# If this CIF has been generated from an entry in the Cambridge 
# Structural Database, then it will include bibliographic, chemical, 
# crystal, experimental, refinement or atomic coordinate data resulting 
# from the CCDC's data processing and validation procedures.
#
#######################################################################

data_GEZYOB
_chemical_formula_moiety         '(C12 H69 N2 O59 P17 V9 3-)n'
_symmetry_cell_setting           hexagonal
_symmetry_space_group_name_H-M   'P 63/m'
_symmetry_Int_Tables_number      176
_space_group_name_Hall           '-P 6c'
loop_
_symmetry_equiv_pos_site_id
_symmetry_equiv_pos_as_xyz
1 x,y,z
2 -x,-y,1/2+z
3 -y,x-y,z
4 y,-x+y,1/2+z
5 -x+y,-x,z
6 x-y,x,1/2+z
7 -x,-y,-z
8 x,y,1/2-z
9 y,-x+y,-z
10 -y,x-y,1/2-z
11 x-y,x,-z
12 -x+y,-x,1/2-z
_cell_length_a                   13.41250(10)
_cell_length_b                   13.41250(10)
_cell_length_c                   27.8003(3)
_cell_angle_alpha                90
_cell_angle_beta                 90
_cell_angle_gamma                120
_cell_volume                     4331.11
loop_
_atom_site_label
_atom_site_type_symbol
_atom_site_fract_x
_atom_site_fract_y
_atom_site_fract_z
N1 N 0.4076(8) 1.0521(8) 0.3928(3)
H7 H 0.3846 0.9895 0.4109
H8 H 0.3792 1.0944 0.4048
H9 H 0.4841 1.0933 0.3928
H10 H 0.2814 0.9714 0.3433
C1 C 0.403(2) 1.1129(17) 0.3055(4)
H11 H 0.4755 1.175 0.3176
H12 H 0.3482 1.1394 0.3087
C2 C 0.4224(16) 1.112(2) 0.250
H13 H 0.3702 1.0383 0.2357
H14 H 0.4151 1.1722 0.2336
C3 C 0.5460(14) 1.1368(15) 0.250
H15 H 0.5752 1.1547 0.2173
H16 H 0.592 1.2048 0.2694
H17 H 0.6423 1.0629 0.2611
H18 H 0.5155 0.9744 0.2485
C4 C 0.563(2) 1.0405(17) 0.2686(6)
H19 H 0.5864 1.0581 0.3424
C5 C 0.5434(16) 0.995(2) 0.3201(7)
H20 H 0.5697 0.94 0.3236
H21 H 0.4002 0.8867 0.3585
H22 H 0.3739 0.8901 0.304
C6 C 0.4158(15) 0.9377(19) 0.3313(8)
C7 C 0.3656(13) 1.0175(12) 0.3430(4)
N1G N 0.4076(8) 1.0521(8) 0.1072(3)
H7G H 0.3846 0.9895 0.0891
H8G H 0.3792 1.0944 0.0952
H9G H 0.4841 1.0933 0.1072
H10G H 0.2814 0.9714 0.1567
C1G C 0.403(2) 1.1129(17) 0.1945(4)
H11G H 0.4755 1.175 0.1824
H12G H 0.3482 1.1394 0.1913
H13G H 0.3702 1.0383 0.2643
H14G H 0.4151 1.1722 0.2664
H15G H 0.5752 1.1547 0.2827
H16G H 0.592 1.2048 0.2306
H17G H 0.6423 1.0629 0.2389
H18G H 0.5155 0.9744 0.2515
C4G C 0.563(2) 1.0405(17) 0.2314(6)
H19G H 0.5864 1.0581 0.1576
C5G C 0.5434(16) 0.995(2) 0.1799(7)
H20G H 0.5697 0.94 0.1764
H21G H 0.4002 0.8867 0.1415
H22G H 0.3739 0.8901 0.196
C6G C 0.4158(15) 0.9377(19) 0.1687(8)
C7G C 0.3656(13) 1.0175(12) 0.1570(4)
O11 O 0.5580(13) 0.8258(15) 0.3232(6)
O12 O 0.3333 0.6667 0.3074(17)
V1 V 0.000 1 0.500
V2 V 0.29251(7) 0.85685(7) 0.52686(3)
V3 V 0.000 1 0.66429(4)
P1 P 0.16281(9) 0.97533(9) 0.58404(3)
P2 P 0.12690(10) 0.63024(9) 0.46386(4)
P3 P 0.3333 0.6667 0.58962(7)
P4 P 0.19121(17) 1.06594(17) 0.750
O1 O 0.1502(3) 0.7170(3) 0.50377(13)
O2 O 0.1682(3) 0.5471(3) 0.47567(13)
O3 O 0.0005(3) 0.5697(3) 0.45009(11)
O4 O 0.1866(3) 0.8796(3) 0.56980(12)
O5 O 0.3260(3) 0.7726(3) 0.57592(14)
O6 O 0.2580(3) 0.9474(3) 0.47394(11)
O7 O 0.1412(4) 1.0807(4) 0.70447(12)
O8 O 0.0713(3) 0.9296(3) 0.62249(10)
O9 O 0.1364(3) 1.0286(2) 0.54050(10)
O10 O 0.3209(6) 1.1506(8) 0.750
H1 H 0.3556 1.1147 0.750
H2 H 0.194(6) 0.964(4) 0.750
H3 H 0.165(4) 0.674(4) 0.4198(15)
H4 H 0.259(3) 1.060(3) 0.6039(10)
H5 H 0.3333 0.6667 0.6384(17)
H6 H 0.190(2) 0.935(5) 0.473(2)
O5B O 0.2274(3) 0.5534(4) 0.57592(14)
O5D O 0.4466(4) 0.6740(3) 0.57592(14)
O7G O 0.1412(4) 1.0807(4) 0.79553(12)
V2B V 0.14315(7) 0.43566(10) 0.52686(3)
P1B P 0.02467(9) 0.18748(13) 0.58404(3)
P2B P 0.36976(9) 0.49666(13) 0.46386(4)
O1B O 0.2830(3) 0.4332(4) 0.50377(13)
O2B O 0.4529(3) 0.6211(4) 0.47567(13)
O3B O 0.4303(3) 0.4308(4) 0.45009(11)
O4B O 0.1204(3) 0.3070(4) 0.56980(12)
O6B O 0.0526(3) 0.3106(4) 0.47394(11)
O8B O 0.0704(3) 0.1417(4) 0.62249(10)
O9B O -0.0286(2) 0.1078(4) 0.54050(10)
H3B H 0.326(4) 0.491(6) 0.4198(15)
H4B H -0.060(3) 0.199(4) 0.6039(10)
H6B H 0.065(5) 0.255(5) 0.473(2)
V2D V -0.43566(10) 0.70749(7) 0.52686(3)
P1D P -0.18748(13) 0.83719(9) 0.58404(3)
P2D P -0.49666(13) 0.87310(10) 0.46386(4)
P4D P -0.12527(24) 0.80879(17) 0.750
O1D O -0.4332(4) 0.8498(3) 0.50377(13)
O2D O -0.6211(4) 0.8318(3) 0.47567(13)
O3D O -0.4308(4) 0.9995(3) 0.45009(11)
O4D O -0.3070(4) 0.8134(3) 0.56980(12)
O6D O -0.3106(4) 0.7420(3) 0.47394(11)
O7D O -0.0605(6) 0.8588(4) 0.70447(12)
O8D O -0.1417(4) 0.9287(3) 0.62249(10)
O9D O -0.1078(4) 0.8636(3) 0.54050(10)
O10D O -0.1703(10) 0.6791(6) 0.750
H1D H -0.2409 0.6444 0.750
H2D H -0.230(7) 0.806(6) 0.750
H3D H -0.491(6) 0.835(4) 0.4198(15)
H4D H -0.199(4) 0.741(3) 0.6039(10)
H6D H -0.255(5) 0.810(2) 0.473(2)
O7K O -0.0605(6) 0.8588(4) 0.79553(12)
V2F V -0.29251(7) 0.14315(7) 0.47314(3)
V3F V -0.000 0 0.33571(4)
P1F P -0.16281(9) 0.02467(9) 0.41596(3)
P2F P -0.12690(10) 0.36976(9) 0.53614(4)
P3F P -0.3333 0.3333 0.41038(7)
O1F O -0.1502(3) 0.2830(3) 0.49623(13)
O2F O -0.1682(3) 0.4529(3) 0.52433(13)
O3F O -0.0005(3) 0.4303(3) 0.54991(11)
O4F O -0.1866(3) 0.1204(3) 0.43020(12)
O5F O -0.3260(3) 0.2274(3) 0.42408(14)
O6F O -0.2580(3) 0.0526(3) 0.52606(11)
O8F O -0.0713(3) 0.0704(3) 0.37751(10)
O9F O -0.1364(3) -0.0286(2) 0.45950(10)
H3F H -0.165(4) 0.326(4) 0.5802(15)
H4F H -0.259(3) -0.060(3) 0.3961(10)
H5F H -0.3333 0.3333 0.3616(17)
H6F H -0.190(2) 0.065(5) 0.527(2)
O5H O -0.2274(3) 0.4466(4) 0.42408(14)
O5J O -0.4466(4) 0.3260(3) 0.42408(14)
V2H V -0.14315(7) 0.56434(10) 0.47314(3)
P1H P -0.02467(9) 0.81252(13) 0.41596(3)
P2H P -0.36976(9) 0.50334(13) 0.53614(4)
O1H O -0.2830(3) 0.5668(4) 0.49623(13)
O2H O -0.4529(3) 0.3789(4) 0.52433(13)
O3H O -0.4303(3) 0.5692(4) 0.54991(11)
O4H O -0.1204(3) 0.6930(4) 0.43020(12)
O6H O -0.0526(3) 0.6894(4) 0.52606(11)
O8H O -0.0704(3) 0.8583(4) 0.37751(10)
O9H O 0.0286(2) 0.8922(4) 0.45950(10)
H3H H -0.326(4) 0.509(6) 0.5802(15)
H4H H 0.060(3) 0.801(4) 0.3961(10)
H6H H -0.065(5) 0.745(5) 0.527(2)
V2J V -0.56434(10) 0.29251(7) 0.47314(3)
P1J P -0.81252(13) 0.16281(9) 0.41596(3)
P2J P -0.50334(13) 0.12690(10) 0.53614(4)
O1J O -0.5668(4) 0.1502(3) 0.49623(13)
O2J O -0.3789(4) 0.1682(3) 0.52433(13)
O3J O -0.5692(4) 0.0005(3) 0.54991(11)
O4J O -0.6930(4) 0.1866(3) 0.43020(12)
O6J O -0.6894(4) 0.2580(3) 0.52606(11)
O8J O -0.8583(4) 0.0713(3) 0.37751(10)
O9J O -0.8922(4) 0.1364(3) 0.45950(10)
H3J H -0.509(6) 0.165(4) 0.5802(15)
H4J H -0.801(4) 0.259(3) 0.3961(10)
H6J H -0.745(5) 0.190(2) 0.527(2)
P4B P -0.06594(17) 1.12527(24) 0.750
O7B O -0.0807(4) 1.0605(6) 0.70447(12)
O10B O -0.1506(8) 1.1703(10) 0.750
H1B H -0.1147 1.2409 0.750
H2B H 0.036(4) 1.230(7) 0.750
O7I O -0.0807(4) 1.0605(6) 0.79553(12)
V1_2 V -1.000 -0 0.500
V1_3 V -0.000 -0 0.500
V2_2 V -0.70749(7) -0.14315(7) 0.52686(3)
V2_3 V -0.70749(7) 0.85685(7) 0.52686(3)
V2D_2 V 0.56434(10) 0.70749(7) 0.52686(3)
V2F_2 V -0.29251(7) 1.14315(7) 0.47314(3)
V2J_2 V 0.43566(10) 0.29251(7) 0.47314(3)
V3_2 V -0.000 -0 0.66429(4)
V3F_2 V -1.000 0 0.33571(4)
V3F_3 V 0.000 1 0.33571(4)
V3G V 0.000 1 0.83571(4)
O2B_2 O -0.5471(3) 0.6211(4) 0.47567(13)
O2D_2 O 0.3789(4) 0.8318(3) 0.47567(13)
O3B_2 O -0.5697(3) 0.4308(4) 0.45009(11)
O3D_2 O -0.4308(4) -0.0005(3) 0.45009(11)
O3J_2 O 0.4308(4) 1.0005(3) 0.54991(11)
O5D_2 O -0.5534(4) 0.6740(3) 0.57592(14)
O7F O -0.1412(4) -0.0807(4) 0.29553(12)
O7H O 0.0807(4) -0.0605(6) 0.29553(12)
O7J O 0.0605(6) 0.1412(4) 0.29553(12)
O8B_2 O 0.0704(3) 1.1417(4) 0.62249(10)
O8H_2 O -0.0704(3) -0.1417(4) 0.37751(10)
O8J_2 O 0.1417(4) 0.0713(3) 0.37751(10)
O9B_2 O -0.0286(2) 1.1078(4) 0.54050(10)
O9F_2 O -0.1364(3) 0.9714(2) 0.45950(10)
O9J_2 O 0.1078(4) 1.1364(3) 0.45950(10)
loop_
_geom_bond_atom_site_label_1
_geom_bond_atom_site_label_2
_geom_bond_site_symmetry_1
_geom_bond_site_symmetry_2
V1 O9 1_555 1_555
V2 O1 1_555 1_555
V3 O7 1_555 1_555
P1 O4 1_555 1_555
P2 O1 1_555 1_555
P3 O5 1_555 1_555
P4 O7 1_555 1_555
O2 P2 1_555 1_555
O3 P2 1_555 1_555
O4 V2 1_555 1_555
O5 V2 1_555 1_555
O6 V2 1_555 1_555
O8 V3 1_555 1_555
O9 P1 1_555 1_555
O10 P4 1_555 1_555
H1 O10 1_555 1_555
H2 P4 1_555 1_555
H3 P2 1_555 1_555
H4 P1 1_555 1_555
H5 P3 1_555 1_555
H6 O6 1_555 1_555
N1 H7 1_555 1_555
H8 N1 1_555 1_555
H9 N1 1_555 1_555
H10 C7 1_555 1_555
C1 H11 1_555 1_555
H12 C1 1_555 1_555
C2 C1 1_555 1_555
H13 C2 1_555 1_555
H14 C2 1_555 1_555
C3 C2 1_555 1_555
H15 C3 1_555 1_555
H16 C3 1_555 1_555
H17 C4 1_555 1_555
H18 C4 1_555 1_555
C4 C3 1_555 1_555
H19 C5 1_555 1_555
C5 C4 1_555 1_555
H20 C5 1_555 1_555
H21 C6 1_555 1_555
H22 C6 1_555 1_555
C6 C5 1_555 1_555
C7 N1 1_555 1_555
O5B P3 1_555 1_555
O5D P3 1_555 1_555
O7G P4 1_555 1_555
V2B O2 1_555 1_555
P1B O4B 1_555 1_555
P2B O1B 1_555 1_555
O1B V2B 1_555 1_555
O2B P2B 1_555 1_555
O3B P2B 1_555 1_555
O4B V2B 1_555 1_555
O6B V2B 1_555 1_555
O8B P1B 1_555 1_555
O9B P1B 1_555 1_555
H3B P2B 1_555 1_555
H4B P1B 1_555 1_555
H6B O6B 1_555 1_555
V2D O1D 1_555 1_555
P1D O4D 1_555 1_555
P2D O1D 1_555 1_555
P4D O7D 1_555 1_555
O2D P2D 1_555 1_555
O3D P2D 1_555 1_555
O4D V2D 1_555 1_555
O6D V2D 1_555 1_555
O7D V3 1_555 1_555
O8D V3 1_555 1_555
O9D V1 1_555 1_555
O10D P4D 1_555 1_555
H1D O10D 1_555 1_555
H2D P4D 1_555 1_555
H3D P2D 1_555 1_555
H4D P1D 1_555 1_555
H6D O6D 1_555 1_555
O7K P4D 1_555 1_555
V2F O1F 1_555 1_555
V3F O8F 1_555 1_555
P1F O4F 1_555 1_555
P2F O1F 1_555 1_555
P3F O5F 1_555 1_555
O2F P2F 1_555 1_555
O3F V2B 1_555 1_555
O4F V2F 1_555 1_555
O5F V2F 1_555 1_555
O6F V2F 1_555 1_555
O8F P1F 1_555 1_555
O9F P1F 1_555 1_555
H3F P2F 1_555 1_555
H4F P1F 1_555 1_555
H5F P3F 1_555 1_555
H6F O6F 1_555 1_555
O5H P3F 1_555 1_555
O5J P3F 1_555 1_555
V2H O3 1_555 1_555
P1H O4H 1_555 1_555
P2H O1H 1_555 1_555
O1H V2H 1_555 1_555
O2H P2H 1_555 1_555
O3H V2D 1_555 1_555
O4H V2H 1_555 1_555
O6H V2H 1_555 1_555
O8H P1H 1_555 1_555
O9H V1 1_555 1_555
H3H P2H 1_555 1_555
H4H P1H 1_555 1_555
H6H O6H 1_555 1_555
V2J O5J 1_555 1_555
P1J O4J 1_555 1_555
P2J O1J 1_555 1_555
O1J V2J 1_555 1_555
O2J V2F 1_555 1_555
O3J P2J 1_555 1_555
O4J V2J 1_555 1_555
O6J V2J 1_555 1_555
O8J P1J 1_555 1_555
O9J P1J 1_555 1_555
H3J P2J 1_555 1_555
H4J P1J 1_555 1_555
H6J O6J 1_555 1_555
P4B O7B 1_555 1_555
O7B V3 1_555 1_555
O10B P4B 1_555 1_555
H1B O10B 1_555 1_555
H2B P4B 1_555 1_555
O7I P4B 1_555 1_555
V1_2 O9J 1_555 1_555
V1_3 O9B 1_555 1_555
V2_2 O3J 1_555 1_555
V2_3 O2D 1_555 1_555
V2D_2 O5D 1_555 1_555
V2F_2 O3D 1_555 1_555
V2J_2 O3B 1_555 1_555
V3_2 O8B 1_555 1_555
V3F_2 O8J 1_555 1_555
V3F_3 O8H 1_555 1_555
V3G O7G 1_555 1_555
O2B_2 V2D 1_555 1_555
O2D_2 V2 1_555 1_555
O3B_2 V2J 1_555 1_555
O3D_2 V2F 1_555 1_555
O3J_2 V2 1_555 1_555
O5D_2 V2D 1_555 1_555
O7F V3F 1_555 1_555
O7H V3F 1_555 1_555
O7J V3F 1_555 1_555
O8B_2 V3 1_555 1_555
O8H_2 V3F 1_555 1_555
O8J_2 V3F 1_555 1_555
O9B_2 V1 1_555 1_555
O9F_2 V1 1_555 1_555
O9J_2 V1 1_555 1_555
N1G H7G 1_555 1_555
H8G N1G 1_555 1_555
H9G N1G 1_555 1_555
H10G C7G 1_555 1_555
C1G C2 1_555 1_555
H11G C1G 1_555 1_555
H12G C1G 1_555 1_555
H13G C2 1_555 1_555
H14G C1 1_555 1_555
H15G C3 1_555 1_555
H16G C3 1_555 1_555
H17G C4 1_555 1_555
H18G C4 1_555 1_555
C4G C3 1_555 1_555
H19G C5G 1_555 1_555
C5G C4G 1_555 1_555
H20G C5G 1_555 1_555
H21G C6G 1_555 1_555
H22G C6G 1_555 1_555
C6G C5G 1_555 1_555
C7G N1G 1_555 1_555
P1 O8 1_555 1_555
C1 C7 1_555 1_555
C2 H14G 1_555 1_555
H14 C1G 1_555 1_555
H17 C4G 1_555 1_555
H18 C4G 1_555 1_555
C4 C4G 1_555 1_555
C6 C7 1_555 1_555
O5B V2B 1_555 1_555
O2B V2D_2 1_555 1_555
P1D O8D 1_555 1_555
P1D O9D 1_555 1_555
O7K V3G 1_555 1_555
P2F O3F 1_555 1_555
O2F V2H 1_555 1_555
O9F V1_3 1_555 1_555
O5H V2H 1_555 1_555
P1H O9H 1_555 1_555
P2H O3H 1_555 1_555
O2H V2J 1_555 1_555
P2J O2J 1_555 1_555
O7I V3G 1_555 1_555
C1G C7G 1_555 1_555
H17G C4G 1_555 1_555
H18G C4G 1_555 1_555
C6G C7G 1_555 1_555

#END
