
#######################################################################
#
#                 Cambridge Crystallographic Data Centre
#                                CCDC 
#
#######################################################################
#
# If this CIF has been generated from an entry in the Cambridge 
# Structural Database, then it will include bibliographic, chemical, 
# crystal, experimental, refinement or atomic coordinate data resulting 
# from the CCDC's data processing and validation procedures.
#
#######################################################################

data_GEZZAO
_chemical_formula_moiety         'C5 H44 N1 O81 P17 V20 1+'
_symmetry_cell_setting           hexagonal
_symmetry_space_group_name_H-M   'P 63/m'
_symmetry_Int_Tables_number      176
_space_group_name_Hall           '-P 6c'
loop_
_symmetry_equiv_pos_site_id
_symmetry_equiv_pos_as_xyz
1 x,y,z
2 -x,-y,1/2+z
3 -y,x-y,z
4 y,-x+y,1/2+z
5 -x+y,-x,z
6 x-y,x,1/2+z
7 -x,-y,-z
8 x,y,1/2-z
9 y,-x+y,-z
10 -y,x-y,1/2-z
11 x-y,x,-z
12 -x+y,-x,1/2-z
_cell_length_a                   13.4107(3)
_cell_length_b                   13.4107(3)
_cell_length_c                   27.5678(7)
_cell_angle_alpha                90
_cell_angle_beta                 90
_cell_angle_gamma                120
_cell_volume                     4293.74
loop_
_atom_site_label
_atom_site_type_symbol
_atom_site_fract_x
_atom_site_fract_y
_atom_site_fract_z
N1 N 0.4131(8) 1.0536(8) 0.3933(3)
H8 H 0.4577 1.1299 0.3942
H9 H 0.4456 1.0214 0.4106
H10 H 0.3445 1.0338 0.4058
C1 C 0.3996(19) 1.0148(18) 0.3440(5)
H11 H 0.373 1.0511 0.3205
C2 C 0.3266(18) 0.8924(18) 0.3520(10)
H12 H 0.3287 0.8724 0.3857
H13 H 0.2476 0.8666 0.3429
C3 C 0.5149(18) 1.0320(19) 0.3371(11)
H14 H 0.5576 1.093 0.3139
H15 H 0.5568 1.0525 0.3676
C4 C 0.377(2) 0.8442(19) 0.3208(11)
H16 H 0.3451 0.8329 0.2885
H17 H 0.3626 0.7704 0.3332
C5 C 0.4996(19) 0.924(2) 0.3194(12)
H18 H 0.5284 0.9324 0.2865
H19 H 0.5404 0.8971 0.3398
V1 V -0.00000 1.00000 0.50000
V2 V 0.29205(6) 0.85656(5) 0.52727(3)
V3 V -0.00000 1.00000 0.66457(4)
P1 P 0.16072(8) 0.97361(9) 0.58504(4)
P2 P 0.12631(9) 0.63004(8) 0.46384(4)
P3 P 0.3333 0.6667 0.59128(6)
P4 P 0.1942(3) 1.0569(5) 0.75000
O1 O 0.2055(19) 0.9473(19) 0.75000
H1 H 0.1412 0.89 0.750
O2 O 0.1495(2) 0.7162(2) 0.50424(12)
O3 O 0.1689(3) 0.5475(3) 0.47584(11)
O4 O -0.0000(2) 0.5686(2) 0.44972(11)
O5 O 0.1879(2) 0.8798(2) 0.57110(11)
O6 O 0.3247(3) 0.7713(2) 0.57724(12)
O7 O 0.2567(2) 0.9453(2) 0.47402(11)
O8 O 0.1438(3) 1.0714(3) 0.70438(13)
O9 O 0.0656(3) 0.9253(3) 0.62269(10)
O10 O 0.1361(2) 1.0266(2) 0.54056(10)
O11 O 0.3228(12) 1.1423(12) 0.75000
H2 H 0.3335 1.2081 0.750
H3 H 0.2524(15) 1.0561(17) 0.6054(9)
H4 H 0.3333 0.6667 0.6385(4)
H5 H 0.295(5) 0.974(7) 0.4484(16)
H6 H 0.193(3) 0.943(7) 0.471(2)
O12 O 0.1945(9) 0.6950(9) 0.4189(3)
H7 H 0.1751 0.7415 0.4106
O6B O 0.2287(2) 0.5534(4) 0.57724(12)
O6D O 0.4466(4) 0.6753(3) 0.57724(12)
O8G O 0.1438(3) 1.0714(3) 0.79562(13)
V2B V 0.14344(5) 0.43549(8) 0.52727(3)
P1B P 0.02639(9) 0.18711(12) 0.58504(4)
P2B P 0.36996(8) 0.49627(12) 0.46384(4)
O2B O 0.2838(2) 0.4333(3) 0.50424(12)
O3B O 0.4525(3) 0.6214(4) 0.47584(11)
O4B O 0.4314(2) 0.4314(3) 0.44972(11)
O5B O 0.1202(2) 0.3081(3) 0.57110(11)
O7B O 0.0547(2) 0.3114(3) 0.47402(11)
O9B O 0.0747(3) 0.1403(4) 0.62269(10)
O10B O -0.0266(2) 0.1095(3) 0.54056(10)
H3B H -0.0561(17) 0.1963(23) 0.6054(9)
H5B H 0.026(7) 0.321(9) 0.4484(16)
H6B H 0.057(7) 0.250(8) 0.471(2)
O12B O 0.3050(9) 0.4995(13) 0.4189(3)
H7B H 0.2585 0.4336 0.4106
V2D V -0.43549(8) 0.70795(6) 0.52727(3)
P1D P -0.18711(12) 0.83928(8) 0.58504(4)
P2D P -0.49627(12) 0.87369(9) 0.46384(4)
P4D P -0.1373(6) 0.8058(3) 0.75000
O1D O -0.2582(27) 0.7945(19) 0.75000
H1D H -0.2512 0.8588 0.750
O2D O -0.4333(3) 0.8505(2) 0.50424(12)
O3D O -0.6214(4) 0.8311(3) 0.47584(11)
O4D O -0.4314(3) 1.0000(2) 0.44972(11)
O5D O -0.3081(3) 0.8121(2) 0.57110(11)
O7D O -0.3114(3) 0.7433(2) 0.47402(11)
O8D O -0.0724(4) 0.8562(3) 0.70438(13)
O9D O -0.1403(4) 0.9344(3) 0.62269(10)
O10D O -0.1095(3) 0.8639(2) 0.54056(10)
O11D O -0.1805(17) 0.6772(12) 0.75000
H2D H -0.1254 0.6665 0.750
H3D H -0.1963(23) 0.7476(15) 0.6054(9)
H5D H -0.321(9) 0.705(5) 0.4484(16)
H6D H -0.250(8) 0.807(3) 0.471(2)
O12D O -0.4995(13) 0.8055(9) 0.4189(3)
H7D H -0.4336 0.8249 0.4106
O8K O -0.0724(4) 0.8562(3) 0.79562(13)
V2F V -0.29205(6) 0.14344(5) 0.47273(3)
V3F V 0.00000 -0.00000 0.33543(4)
P1F P -0.16072(8) 0.02639(9) 0.41496(4)
P2F P -0.12631(9) 0.36996(8) 0.53616(4)
P3F P -0.3333 0.3333 0.40872(6)
O2F O -0.1495(2) 0.2838(2) 0.49576(12)
O3F O -0.1689(3) 0.4525(3) 0.52416(11)
O4F O -0.0000(2) 0.4314(2) 0.55028(11)
O5F O -0.1879(2) 0.1202(2) 0.42890(11)
O6F O -0.3247(3) 0.2287(2) 0.42276(12)
O7F O -0.2567(2) 0.0547(2) 0.52598(11)
O9F O -0.0656(3) 0.0747(3) 0.37731(10)
O10F O -0.1361(2) -0.0266(2) 0.45944(10)
H3F H -0.2524(15) -0.0561(17) 0.3946(9)
H4F H -0.3333 0.3333 0.3615(4)
H5F H -0.295(5) 0.026(7) 0.5516(16)
H6F H -0.193(3) 0.057(7) 0.529(2)
O12F O -0.1945(9) 0.3050(9) 0.5811(3)
H7F H -0.1751 0.2585 0.5894
O6H O -0.2287(2) 0.4466(4) 0.42276(12)
O6J O -0.4466(4) 0.3247(3) 0.42276(12)
V2H V -0.14344(5) 0.56451(8) 0.47273(3)
P1H P -0.02639(9) 0.81289(12) 0.41496(4)
P2H P -0.36996(8) 0.50373(12) 0.53616(4)
O2H O -0.2838(2) 0.5667(3) 0.49576(12)
O3H O -0.4525(3) 0.3786(4) 0.52416(11)
O4H O -0.4314(2) 0.5686(3) 0.55028(11)
O5H O -0.1202(2) 0.6919(3) 0.42890(11)
O7H O -0.0547(2) 0.6886(3) 0.52598(11)
O9H O -0.0747(3) 0.8597(4) 0.37731(10)
O10H O 0.0266(2) 0.8905(3) 0.45944(10)
H3H H 0.0561(17) 0.8037(23) 0.3946(9)
H5H H -0.026(7) 0.679(9) 0.5516(16)
H6H H -0.057(7) 0.750(8) 0.529(2)
O12H O -0.3050(9) 0.5005(13) 0.5811(3)
H7H H -0.2585 0.5664 0.5894
V2J V -0.56451(8) 0.29205(6) 0.47273(3)
P1J P -0.81289(12) 0.16072(8) 0.41496(4)
P2J P -0.50373(12) 0.12631(9) 0.53616(4)
O2J O -0.5667(3) 0.1495(2) 0.49576(12)
O3J O -0.3786(4) 0.1689(3) 0.52416(11)
O4J O -0.5686(3) 0.0000(2) 0.55028(11)
O5J O -0.6919(3) 0.1879(2) 0.42890(11)
O7J O -0.6886(3) 0.2567(2) 0.52598(11)
O9J O -0.8597(4) 0.0656(3) 0.37731(10)
O10J O -0.8905(3) 0.1361(2) 0.45944(10)
H3J H -0.8037(23) 0.2524(15) 0.3946(9)
H5J H -0.679(9) 0.295(5) 0.5516(16)
H6J H -0.750(8) 0.193(3) 0.529(2)
O12J O -0.5005(13) 0.1945(9) 0.5811(3)
H7J H -0.5664 0.1751 0.5894
P4B P -0.0569(5) 1.1373(6) 0.75000
O1B O 0.0527(19) 1.2582(27) 0.75000
H1B H 0.11 1.2512 0.750
O8B O -0.0714(3) 1.0724(4) 0.70438(13)
O11B O -0.1423(12) 1.1805(17) 0.75000
H2B H -0.2081 1.1254 0.750
O8I O -0.0714(3) 1.0724(4) 0.79562(13)
V1_2 V -1.00000 -0.00000 0.50000
V1_3 V 0.00000 -0.00000 0.50000
V2_2 V -0.70795(6) -0.14344(5) 0.52727(3)
V2_3 V -0.70795(6) 0.85656(5) 0.52727(3)
V2D_2 V 0.56451(8) 0.70795(6) 0.52727(3)
V2F_2 V -0.29205(6) 1.14344(5) 0.47273(3)
V2J_2 V 0.43549(8) 0.29205(6) 0.47273(3)
V3_2 V 0.00000 -0.00000 0.66457(4)
V3F_2 V -1.00000 -0.00000 0.33543(4)
V3F_3 V 0.00000 1.00000 0.33543(4)
V3G V -0.00000 1.00000 0.83543(4)
O3B_2 O -0.5475(3) 0.6214(4) 0.47584(11)
O3D_2 O 0.3786(4) 0.8311(3) 0.47584(11)
O4B_2 O -0.5686(2) 0.4314(3) 0.44972(11)
O4D_2 O -0.4314(3) -0.0000(2) 0.44972(11)
O4J_2 O 0.4314(3) 1.0000(2) 0.55028(11)
O6D_2 O -0.5534(4) 0.6753(3) 0.57724(12)
O8F O -0.1438(3) -0.0714(3) 0.29562(13)
O8H O 0.0714(3) -0.0724(4) 0.29562(13)
O8J O 0.0724(4) 0.1438(3) 0.29562(13)
O9B_2 O 0.0747(3) 1.1403(4) 0.62269(10)
O9H_2 O -0.0747(3) -0.1403(4) 0.37731(10)
O9J_2 O 0.1403(4) 0.0656(3) 0.37731(10)
O10B_2 O -0.0266(2) 1.1095(3) 0.54056(10)
O10F_2 O -0.1361(2) 0.9734(2) 0.45944(10)
O10J_2 O 0.1095(3) 1.1361(2) 0.45944(10)
loop_
_geom_bond_atom_site_label_1
_geom_bond_atom_site_label_2
_geom_bond_site_symmetry_1
_geom_bond_site_symmetry_2
V1 O10 1_555 1_555
V2 O2 1_555 1_555
V3 O8 1_555 1_555
P1 O5 1_555 1_555
P2 O2 1_555 1_555
P3 O6 1_555 1_555
P4 O1 1_555 1_555
O1 H1 1_555 1_555
O3 P2 1_555 1_555
O4 P2 1_555 1_555
O5 V2 1_555 1_555
O6 V2 1_555 1_555
O7 V2 1_555 1_555
O8 P4 1_555 1_555
O9 V3 1_555 1_555
O10 P1 1_555 1_555
O11 P4 1_555 1_555
H2 O11 1_555 1_555
H3 P1 1_555 1_555
H4 P3 1_555 1_555
H5 O7 1_555 1_555
H6 O7 1_555 1_555
O12 P2 1_555 1_555
H7 O12 1_555 1_555
N1 H8 1_555 1_555
H9 N1 1_555 1_555
H10 N1 1_555 1_555
C1 N1 1_555 1_555
H11 C1 1_555 1_555
C2 C1 1_555 1_555
H12 C2 1_555 1_555
H13 C2 1_555 1_555
C3 C1 1_555 1_555
H14 C3 1_555 1_555
H15 C3 1_555 1_555
C4 C2 1_555 1_555
H16 C4 1_555 1_555
H17 C4 1_555 1_555
C5 C3 1_555 1_555
H18 C5 1_555 1_555
H19 C5 1_555 1_555
O6B P3 1_555 1_555
O6D P3 1_555 1_555
O8G P4 1_555 1_555
V2B O3 1_555 1_555
P1B O5B 1_555 1_555
P2B O2B 1_555 1_555
O2B V2B 1_555 1_555
O3B P2B 1_555 1_555
O4B P2B 1_555 1_555
O5B V2B 1_555 1_555
O7B V2B 1_555 1_555
O9B P1B 1_555 1_555
O10B P1B 1_555 1_555
H3B P1B 1_555 1_555
H5B O7B 1_555 1_555
H6B O7B 1_555 1_555
O12B P2B 1_555 1_555
H7B O12B 1_555 1_555
V2D O2D 1_555 1_555
P1D O5D 1_555 1_555
P2D O2D 1_555 1_555
P4D O1D 1_555 1_555
O1D H1D 1_555 1_555
O3D P2D 1_555 1_555
O4D P2D 1_555 1_555
O5D V2D 1_555 1_555
O7D V2D 1_555 1_555
O8D V3 1_555 1_555
O9D V3 1_555 1_555
O10D V1 1_555 1_555
O11D P4D 1_555 1_555
H2D O11D 1_555 1_555
H3D P1D 1_555 1_555
H5D O7D 1_555 1_555
H6D O7D 1_555 1_555
O12D P2D 1_555 1_555
H7D O12D 1_555 1_555
O8K P4D 1_555 1_555
V2F O2F 1_555 1_555
V3F O9F 1_555 1_555
P1F O5F 1_555 1_555
P2F O2F 1_555 1_555
P3F O6F 1_555 1_555
O3F P2F 1_555 1_555
O4F V2B 1_555 1_555
O5F V2F 1_555 1_555
O6F V2F 1_555 1_555
O7F V2F 1_555 1_555
O9F P1F 1_555 1_555
O10F P1F 1_555 1_555
H3F P1F 1_555 1_555
H4F P3F 1_555 1_555
H5F O7F 1_555 1_555
H6F O7F 1_555 1_555
O12F P2F 1_555 1_555
H7F O12F 1_555 1_555
O6H P3F 1_555 1_555
O6J P3F 1_555 1_555
V2H O4 1_555 1_555
P1H O5H 1_555 1_555
P2H O2H 1_555 1_555
O2H V2H 1_555 1_555
O3H P2H 1_555 1_555
O4H V2D 1_555 1_555
O5H V2H 1_555 1_555
O7H V2H 1_555 1_555
O9H P1H 1_555 1_555
O10H V1 1_555 1_555
H3H P1H 1_555 1_555
H5H O7H 1_555 1_555
H6H O7H 1_555 1_555
O12H P2H 1_555 1_555
H7H O12H 1_555 1_555
V2J O6J 1_555 1_555
P1J O5J 1_555 1_555
P2J O2J 1_555 1_555
O2J V2J 1_555 1_555
O3J V2F 1_555 1_555
O4J P2J 1_555 1_555
O5J V2J 1_555 1_555
O7J V2J 1_555 1_555
O9J P1J 1_555 1_555
O10J P1J 1_555 1_555
H3J P1J 1_555 1_555
H5J O7J 1_555 1_555
H6J O7J 1_555 1_555
O12J P2J 1_555 1_555
H7J O12J 1_555 1_555
P4B O1B 1_555 1_555
O1B H1B 1_555 1_555
O8B V3 1_555 1_555
O11B P4B 1_555 1_555
H2B O11B 1_555 1_555
O8I P4B 1_555 1_555
V1_2 O10J 1_555 1_555
V1_3 O10B 1_555 1_555
V2_2 O4J 1_555 1_555
V2_3 O3D 1_555 1_555
V2D_2 O6D 1_555 1_555
V2F_2 O4D 1_555 1_555
V2J_2 O4B 1_555 1_555
V3_2 O9B 1_555 1_555
V3F_2 O9J 1_555 1_555
V3F_3 O9H 1_555 1_555
V3G O8G 1_555 1_555
O3B_2 V2D 1_555 1_555
O3D_2 V2 1_555 1_555
O4B_2 V2J 1_555 1_555
O4D_2 V2F 1_555 1_555
O4J_2 V2 1_555 1_555
O6D_2 V2D 1_555 1_555
O8F V3F 1_555 1_555
O8H V3F 1_555 1_555
O8J V3F 1_555 1_555
O9B_2 V3 1_555 1_555
O9H_2 V3F 1_555 1_555
O9J_2 V3F 1_555 1_555
O10B_2 V1 1_555 1_555
O10F_2 V1 1_555 1_555
O10J_2 V1 1_555 1_555
P1 O9 1_555 1_555
C4 C5 1_555 1_555
O6B V2B 1_555 1_555
O3B V2D_2 1_555 1_555
P1D O9D 1_555 1_555
P1D O10D 1_555 1_555
P4D O8D 1_555 1_555
O8K V3G 1_555 1_555
P2F O4F 1_555 1_555
O3F V2H 1_555 1_555
O10F V1_3 1_555 1_555
O6H V2H 1_555 1_555
P1H O10H 1_555 1_555
P2H O4H 1_555 1_555
O3H V2J 1_555 1_555
P2J O3J 1_555 1_555
P4B O8B 1_555 1_555
O8I V3G 1_555 1_555

#END
