
#######################################################################
#
#                 Cambridge Crystallographic Data Centre
#                                CCDC 
#
#######################################################################
#
# If this CIF has been generated from an entry in the Cambridge 
# Structural Database, then it will include bibliographic, chemical, 
# crystal, experimental, refinement or atomic coordinate data resulting 
# from the CCDC's data processing and validation procedures.
#
#######################################################################

data_FORPOS
_chemical_formula_moiety         'C28 H46 Ce9 Mo12 N6 O79 Si1'
_symmetry_cell_setting           monoclinic
_symmetry_space_group_name_H-M   'C 2/c'
_symmetry_Int_Tables_number      15
_space_group_name_Hall           '-C 2yc'
loop_
_symmetry_equiv_pos_site_id
_symmetry_equiv_pos_as_xyz
1 x,y,z
2 -x,y,1/2-z
3 1/2+x,1/2+y,z
4 1/2-x,1/2+y,1/2-z
5 -x,-y,-z
6 x,-y,1/2+z
7 1/2-x,1/2-y,-z
8 1/2+x,1/2-y,1/2+z
_cell_length_a                   30.753(3)
_cell_length_b                   15.7285(13)
_cell_length_c                   22.119(2)
_cell_angle_alpha                90
_cell_angle_beta                 133.1180(10)
_cell_angle_gamma                90
_cell_volume                     7809.66
loop_
_atom_site_label
_atom_site_type_symbol
_atom_site_fract_x
_atom_site_fract_y
_atom_site_fract_z
Mo1 Mo 0.5000 0.8605(3) 0.2500
Mo2 Mo 0.36870(15) 0.74768(19) 0.09057(17)
Mo3 Mo 0.42358(12) 0.74780(18) 0.29139(15)
Mo4 Mo 0.44551(10) 0.63542(16) 0.04855(13)
Mo5 Mo 0.42393(13) 0.52272(18) 0.29118(17)
Mo6 Mo 0.37069(13) 0.5229(3) 0.09036(18)
Mo7 Mo 0.5000 0.4098(3) 0.2500
O3 O 0.4605(19) 0.548(3) 0.232(3)
O4 O 0.4425(18) 0.638(3) 0.152(3)
O5 O 0.4349(11) 0.8294(15) 0.1508(14)
O6 O 0.4569(11) 0.8473(16) 0.2871(15)
O7 O 0.3974(10) 0.7174(14) 0.0408(14)
O8 O 0.4947(11) 0.7213(15) 0.4013(14)
O9 O 0.3951(10) 0.6357(16) 0.2781(14)
O10 O 0.5075(10) 0.5524(15) 0.0998(14)
O11 O 0.3603(10) 0.5041(15) 0.1676(14)
O12 O 0.4213(10) 0.4149(16) 0.1438(15)
O13 O 0.3742(11) 0.7479(16) 0.1773(15)
O14 O 0.3925(10) 0.5514(14) 0.0294(13)
O15 O 0.3374(9) 0.6357(16) 0.0653(14)
O16 O 0.4718(10) 0.4437(15) 0.2930(15)
O17 O 0.5000 0.966(2) 0.2500
O18 O 0.3096(12) 0.8069(18) 0.0149(15)
O19 O 0.3893(11) 0.7999(16) 0.3135(14)
O20 O 0.4229(10) 0.6358(13) -0.0437(12)
O21 O 0.3847(10) 0.4708(15) 0.3063(14)
O22 O 0.3095(10) 0.4669(15) 0.0129(14)
Si1 Si 0.5000 0.6354(8) 0.2500
Mo2A Mo 0.63130(15) 0.74768(19) 0.40943(17)
Mo3A Mo 0.57642(12) 0.74780(18) 0.20861(15)
Mo4A Mo 0.55449(10) 0.63542(16) 0.45145(13)
Mo5A Mo 0.57607(13) 0.52272(18) 0.20882(17)
Mo6A Mo 0.62931(13) 0.5229(3) 0.40964(18)
O3A O 0.5395(19) 0.548(3) 0.268(3)
O4A O 0.5575(18) 0.638(3) 0.348(3)
O5A O 0.5651(11) 0.8294(15) 0.3492(14)
O6A O 0.5431(11) 0.8473(16) 0.2129(15)
O7A O 0.6026(10) 0.7174(14) 0.4592(14)
O8A O 0.5053(11) 0.7213(15) 0.0987(14)
O9A O 0.6049(10) 0.6357(16) 0.2219(14)
O10A O 0.4925(10) 0.5524(15) 0.4002(14)
O11A O 0.6397(10) 0.5041(15) 0.3324(14)
O12A O 0.5787(10) 0.4149(16) 0.3562(15)
O13A O 0.6258(11) 0.7479(16) 0.3227(15)
O14A O 0.6075(10) 0.5514(14) 0.4706(13)
O15A O 0.6626(9) 0.6357(16) 0.4347(14)
O16A O 0.5282(10) 0.4437(15) 0.2070(15)
O18A O 0.6904(12) 0.8069(18) 0.4851(15)
O19A O 0.6107(11) 0.7999(16) 0.1865(14)
O20A O 0.5771(10) 0.6358(13) 0.5437(12)
O21A O 0.6153(10) 0.4708(15) 0.1937(14)
O22A O 0.6905(10) 0.4669(15) 0.4871(14)
O40 O 0.7629(11) 0.1475(18) 0.1646(18)
H17 H 0.8001 0.1454 0.1931
H18 H 0.7452 0.1606 0.1151
Ce1 Ce 0.89005(6) -0.36308(9) 1.32743(8)
Ce2 Ce 0.83061(6) -0.37153(8) 0.98577(8)
N1 N 0.8386(10) -0.5036(14) 1.2427(13)
N2 N 0.6334(9) -0.2686(13) 1.0354(12)
O24 O 0.8655(8) -0.4728(12) 1.3815(10)
O25 O 0.8261(8) -0.5974(11) 1.3739(10)
O26 O 0.8758(8) -0.3846(11) 1.2033(10)
O27 O 0.8405(8) -0.4532(11) 1.0904(10)
O28 O 0.7476(8) -0.2338(11) 1.1274(11)
O29 O 0.7770(8) -0.3492(11) 1.2058(11)
O30 O 0.5594(7) -0.1463(11) 0.9311(10)
O31 O 0.4810(8) -0.2180(12) 0.8878(11)
O32 O 0.8392(9) -0.2954(14) 1.3700(13)
H1 H 0.8397 -0.2417 1.3661
H2 H 0.8034 -0.3115 1.3410
O33 O 0.9683(9) -0.3680(14) 1.4895(12)
H3 H 0.9676 -0.3243 1.5114
H4 H 0.9659 -0.4131 1.5082
O34 O 0.9734(8) -0.4775(12) 1.3777(11)
H5 H 0.9588 -0.5178 1.3429
H6 H 1.0017 -0.4545 1.3850
O35 O 0.8652(9) -0.2181(12) 1.2612(13)
H7 H 0.8278 -0.2094 1.2251
H8 H 0.8821 -0.1789 1.2974
O36 O 0.8775(9) -0.5167(12) 1.0140(11)
H9 H 0.8652 -0.5414 0.9705
H10 H 0.8746 -0.5494 1.0417
O37 O 0.7478(9) -0.4710(14) 0.8885(13)
H11 H 0.7220 -0.4700 0.8921
H12 H 0.7598 -0.5215 0.8942
O38 O 0.7450(8) -0.3394(12) 0.9786(11)
H13 H 0.7510 -0.2944 1.0047
H14 H 0.7380 -0.3809 0.9956
O39 O 0.8661(8) -0.2664(11) 1.1054(10)
H15 H 0.8421 -0.2249 1.0865
H16 H 0.9009 -0.2475 1.1314
C1 C 0.8386(12) -0.5400(16) 1.3463(15)
C2 C 0.8150(11) -0.5572(16) 1.2618(14)
C3 C 0.7756(11) -0.6180(17) 1.2083(15)
H19 H 0.7603 -0.6542 1.2233
C4 C 0.7573(12) -0.6273(18) 1.1312(16)
H20 H 0.7275 -0.6653 1.0918
C5 C 0.7862(11) -0.5765(16) 1.1165(15)
H21 H 0.7789 -0.5847 1.0686
C6 C 0.8259(11) -0.5135(17) 1.1722(15)
C7 C 0.8489(11) -0.4481(16) 1.1536(15)
C8 C 0.7375(11) -0.3015(16) 1.1467(15)
C9 C 0.6745(11) -0.3237(16) 1.0959(15)
C10 C 0.6558(11) -0.4000(16) 1.1058(14)
H22 H 0.6834 -0.4397 1.1456
C11 C 0.5958(11) -0.4139(17) 1.0552(15)
H23 H 0.5828 -0.4640 1.0608
C12 C 0.5533(11) -0.3539(16) 0.9948(15)
H24 H 0.5125 -0.3624 0.9607
C13 C 0.5766(11) -0.2809(16) 0.9897(15)
C14 C 0.5352(11) -0.2102(16) 0.9307(15)
Ce1G Ce 1.39005(6) -0.13692(9) 1.82743(8)
Ce1G_2 Ce 0.39005(6) -0.13692(9) 0.82743(8)
Ce1E Ce 0.89005(6) -0.63692(9) 0.82743(8)
Ce2F Ce 0.66939(6) -0.12847(8) 1.01423(8)
Ce2E Ce 0.83061(6) -0.62847(8) 1.48577(8)
Ce2A Ce 1.16939(6) -0.37153(8) 1.51423(8)
Ce2E_2 Ce 0.83061(6) -0.62847(8) 0.48577(8)
N1E N 0.8386(10) -0.4964(14) 0.7427(13)
N1G N 1.3386(10) 0.0036(14) 1.7427(13)
N2G N 1.1334(9) -0.2314(13) 1.5354(12)
N2F N 0.8666(9) -0.2314(13) 0.9646(12)
O24E O 0.8655(8) -0.5272(12) 0.8815(10)
O24G O 1.3655(8) -0.0272(12) 1.8815(10)
O25E O 0.8261(8) -0.4026(11) 0.8739(10)
O25C O 0.6739(8) -0.0974(11) 1.1261(10)
O26E O 0.8758(8) -0.6154(11) 0.7033(10)
O26G O 1.3758(8) -0.1154(11) 1.7033(10)
O27E O 0.8405(8) -0.5468(11) 0.5904(10)
O27F O 0.6595(8) -0.0468(11) 0.9096(10)
O28G O 1.2476(8) -0.2662(11) 1.6274(11)
O28F O 0.7524(8) -0.2662(11) 0.8726(11)
O29G O 1.2770(8) -0.1508(11) 1.7058(11)
O30G O 1.0594(7) -0.3537(11) 1.4311(10)
O30F O 0.9406(7) -0.3537(11) 1.0689(10)
O31G O 0.9810(8) -0.2820(12) 1.3878(11)
O31_2 O 1.4810(8) -0.2180(12) 1.8878(11)
O32G O 1.3392(9) -0.2046(14) 1.8700(13)
H1G H 1.3397 -0.2583 1.8661
H2G H 1.3034 -0.1885 1.8410
O33G O 1.4683(9) -0.1320(14) 1.9895(12)
H3G H 1.4676 -0.1757 2.0114
H4G H 1.4659 -0.0869 2.0082
O34G O 1.4734(8) -0.0225(12) 1.8777(11)
H5G H 1.4588 0.0178 1.8429
H6G H 1.5017 -0.0455 1.8850
O35G O 1.3652(9) -0.2819(12) 1.7612(13)
H7G H 1.3278 -0.2906 1.7251
H8G H 1.3821 -0.3211 1.7974
O36F O 0.6225(9) 0.0167(12) 0.9860(11)
H9F H 0.6348 0.0414 1.0295
H10F H 0.6254 0.0494 0.9583
O37F O 0.7522(9) -0.0290(14) 1.1115(13)
H11F H 0.7780 -0.0300 1.1079
H12F H 0.7402 0.0215 1.1058
O38F O 0.7550(8) -0.1606(12) 1.0214(11)
H13F H 0.7490 -0.2056 0.9953
H14F H 0.7620 -0.1191 1.0044
O39F O 0.6339(8) -0.2336(11) 0.8946(10)
H15F H 0.6579 -0.2751 0.9135
H16F H 0.5991 -0.2525 0.8686
C1E C 0.8386(12) -0.4600(16) 0.8463(15)
C2E C 0.8150(11) -0.4428(16) 0.7618(14)
C3E C 0.7756(11) -0.3820(17) 0.7083(15)
H19E H 0.7603 -0.3458 0.7233
C4E C 0.7573(12) -0.3727(18) 0.6312(16)
H20E H 0.7275 -0.3347 0.5918
C5E C 0.7862(11) -0.4235(16) 0.6165(15)
H21E H 0.7789 -0.4153 0.5686
C6E C 0.8259(11) -0.4865(17) 0.6722(15)
C7E C 0.8489(11) -0.5519(16) 0.6536(15)
C8G C 1.2375(11) -0.1985(16) 1.6467(15)
C9G C 1.1745(11) -0.1763(16) 1.5959(15)
C10G C 1.1558(11) -0.1000(16) 1.6058(14)
H22G H 1.1834 -0.0603 1.6456
C11G C 1.0958(11) -0.0861(17) 1.5552(15)
H23G H 1.0828 -0.0360 1.5608
C12G C 1.0533(11) -0.1461(16) 1.4948(15)
H24G H 1.0125 -0.1376 1.4607
C13G C 1.0766(11) -0.2191(16) 1.4897(15)
C14G C 1.0352(11) -0.2898(16) 1.4307(15)
loop_
_geom_bond_atom_site_label_1
_geom_bond_atom_site_label_2
_geom_bond_site_symmetry_1
_geom_bond_site_symmetry_2
Ce1 N1 1_555 1_555
Ce2 O27 1_555 1_555
Mo1 O5 1_555 1_555
Mo2 O4 1_555 1_555
Mo3 O6 1_555 1_555
Mo4 O4 1_555 1_555
Mo5 O3 1_555 1_555
Mo6 O3 1_555 1_555
Mo7 O3 1_555 1_555
N1 C2 1_555 1_555
N2 C9 1_555 1_555
O3 Si1 1_555 1_555
O4 Mo6 1_555 1_555
O5 Mo2 1_555 1_555
O6 Mo1 1_555 1_555
O7 Mo2 1_555 1_555
O8 Mo3 1_555 1_555
O9 Mo3 1_555 1_555
O10 Mo4 1_555 1_555
O11 Mo5 1_555 1_555
O12 Mo6 1_555 1_555
O13 Mo2 1_555 1_555
O14 Mo4 1_555 1_555
O15 Mo2 1_555 1_555
O16 Mo5 1_555 1_555
O17 Mo1 1_555 1_555
O18 Mo2 1_555 1_555
O19 Mo3 1_555 1_555
O20 Mo4 1_555 1_555
O21 Mo5 1_555 1_555
O22 Mo6 1_555 1_555
O24 Ce1 1_555 1_555
O25 C1 1_555 1_555
O26 Ce1 1_555 1_555
O27 C7 1_555 1_555
O28 C8 1_555 1_555
O29 Ce1 1_555 1_555
O30 C14 1_555 1_555
O31 C14 1_555 1_555
O32 Ce1 1_555 1_555
H1 O32 1_555 1_555
H2 O32 1_555 1_555
O33 Ce1 1_555 1_555
H3 O33 1_555 1_555
H4 O33 1_555 1_555
O34 Ce1 1_555 1_555
H5 O34 1_555 1_555
H6 O34 1_555 1_555
O35 Ce1 1_555 1_555
H7 O35 1_555 1_555
H8 O35 1_555 1_555
O36 Ce2 1_555 1_555
H9 O36 1_555 1_555
H10 O36 1_555 1_555
O37 Ce2 1_555 1_555
H11 O37 1_555 1_555
H12 O37 1_555 1_555
O38 Ce2 1_555 1_555
H13 O38 1_555 1_555
H14 O38 1_555 1_555
O39 Ce2 1_555 1_555
H15 O39 1_555 1_555
H16 O39 1_555 1_555
O40 H17 1_555 1_555
H18 O40 1_555 1_555
Si1 O4 1_555 1_555
C1 O24 1_555 1_555
C2 C1 1_555 1_555
C3 C2 1_555 1_555
H19 C3 1_555 1_555
C4 C3 1_555 1_555
H20 C4 1_555 1_555
C5 C4 1_555 1_555
H21 C5 1_555 1_555
C6 N1 1_555 1_555
C7 O26 1_555 1_555
C8 O29 1_555 1_555
C9 C8 1_555 1_555
C10 C9 1_555 1_555
H22 C10 1_555 1_555
C11 C10 1_555 1_555
H23 C11 1_555 1_555
C12 C11 1_555 1_555
H24 C12 1_555 1_555
C13 N2 1_555 1_555
C14 C13 1_555 1_555
Ce1G N1G 1_555 1_555
Ce1G_2 O31 1_555 1_555
Ce1E N1E 1_555 1_555
Ce2F N2 1_555 1_555
Ce2E O25 1_555 1_555
Ce2A N2G 1_555 1_555
Ce2E_2 O27E 1_555 1_555
Mo2A O4A 1_555 1_555
Mo3A O6A 1_555 1_555
Mo4A O8 1_555 1_555
Mo5A O10 1_555 1_555
Mo6A O3A 1_555 1_555
N1E C2E 1_555 1_555
N2G C9G 1_555 1_555
N2F Ce2 1_555 1_555
O3A Mo7 1_555 1_555
O4A Si1 1_555 1_555
O5A Mo1 1_555 1_555
O6A Mo1 1_555 1_555
O7A Mo2A 1_555 1_555
O8A Mo4 1_555 1_555
O9A Mo3A 1_555 1_555
O10A Mo5 1_555 1_555
O11A Mo5A 1_555 1_555
O12A Mo7 1_555 1_555
O13A Mo2A 1_555 1_555
O14A Mo4A 1_555 1_555
O15A Mo2A 1_555 1_555
O16A Mo7 1_555 1_555
O18A Mo2A 1_555 1_555
O19A Mo3A 1_555 1_555
O20A Mo4A 1_555 1_555
O21A Mo5A 1_555 1_555
O22A Mo6A 1_555 1_555
O24E Ce1E 1_555 1_555
O24G Ce1G 1_555 1_555
O25E Ce2 1_555 1_555
O25C Ce2F 1_555 1_555
O26E Ce1E 1_555 1_555
O26G Ce1G 1_555 1_555
O27E C7E 1_555 1_555
O27F Ce2F 1_555 1_555
O28G Ce2A 1_555 1_555
O28F Ce2 1_555 1_555
O29G Ce1G 1_555 1_555
O30G Ce2A 1_555 1_555
O30F Ce2 1_555 1_555
O31G Ce1 1_555 1_555
O31_2 Ce1G 1_555 1_555
O32G Ce1G 1_555 1_555
H1G O32G 1_555 1_555
H2G O32G 1_555 1_555
O33G Ce1G 1_555 1_555
H3G O33G 1_555 1_555
H4G O33G 1_555 1_555
O34G Ce1G 1_555 1_555
H5G O34G 1_555 1_555
H6G O34G 1_555 1_555
O35G Ce1G 1_555 1_555
H7G O35G 1_555 1_555
H8G O35G 1_555 1_555
O36F Ce2F 1_555 1_555
H9F O36F 1_555 1_555
H10F O36F 1_555 1_555
O37F Ce2F 1_555 1_555
H11F O37F 1_555 1_555
H12F O37F 1_555 1_555
O38F Ce2F 1_555 1_555
H13F O38F 1_555 1_555
H14F O38F 1_555 1_555
O39F Ce2F 1_555 1_555
H15F O39F 1_555 1_555
H16F O39F 1_555 1_555
C1E O24E 1_555 1_555
C2E C1E 1_555 1_555
C3E C2E 1_555 1_555
H19E C3E 1_555 1_555
C4E C3E 1_555 1_555
H20E C4E 1_555 1_555
C5E C4E 1_555 1_555
H21E C5E 1_555 1_555
C6E N1E 1_555 1_555
C7E O26E 1_555 1_555
C8G O28G 1_555 1_555
C9G C8G 1_555 1_555
C10G C9G 1_555 1_555
H22G C10G 1_555 1_555
C11G C10G 1_555 1_555
H23G C11G 1_555 1_555
C12G C11G 1_555 1_555
H24G C12G 1_555 1_555
C13G N2G 1_555 1_555
C14G O30G 1_555 1_555
Mo3 O13 1_555 1_555
Mo4 O7 1_555 1_555
Mo5 O9 1_555 1_555
Mo6 O11 1_555 1_555
Mo6 O14 1_555 1_555
Mo6 O15 1_555 1_555
Mo7 O12 1_555 1_555
Mo7 O16 1_555 1_555
O28 Ce2F 1_555 1_555
O30 Ce2F 1_555 1_555
Si1 O3A 1_555 1_555
C5 C6 1_555 1_555
C6 C7 1_555 1_555
C12 C13 1_555 1_555
Mo2A O5A 1_555 1_555
Mo3A O8A 1_555 1_555
Mo3A O13A 1_555 1_555
Mo4A O4A 1_555 1_555
Mo4A O7A 1_555 1_555
Mo4A O10A 1_555 1_555
Mo5A O3A 1_555 1_555
Mo5A O9A 1_555 1_555
Mo5A O16A 1_555 1_555
Mo6A O4A 1_555 1_555
Mo6A O11A 1_555 1_555
Mo6A O12A 1_555 1_555
Mo6A O14A 1_555 1_555
Mo6A O15A 1_555 1_555
O25E C1E 1_555 1_555
O29G C8G 1_555 1_555
O31G C14G 1_555 1_555
C5E C6E 1_555 1_555
C6E C7E 1_555 1_555
C12G C13G 1_555 1_555
C13G C14G 1_555 1_555

#END
