
#######################################################################
#
#                 Cambridge Crystallographic Data Centre
#                                CCDC 
#
#######################################################################
#
# If this CIF has been generated from an entry in the Cambridge 
# Structural Database, then it will include bibliographic, chemical, 
# crystal, experimental, refinement or atomic coordinate data resulting 
# from the CCDC's data processing and validation procedures.
#
#######################################################################

data_FORPIM
_chemical_formula_moiety         '(C28 H46 La4 Mo12 N4 O75 Si1 4+)n'
_symmetry_cell_setting           monoclinic
_symmetry_space_group_name_H-M   'C 2/c'
_symmetry_Int_Tables_number      15
_space_group_name_Hall           '-C 2yc'
loop_
_symmetry_equiv_pos_site_id
_symmetry_equiv_pos_as_xyz
1 x,y,z
2 -x,y,1/2-z
3 1/2+x,1/2+y,z
4 1/2-x,1/2+y,1/2-z
5 -x,-y,-z
6 x,-y,1/2+z
7 1/2-x,1/2-y,-z
8 1/2+x,1/2-y,1/2+z
_cell_length_a                   30.863(3)
_cell_length_b                   15.7425(16)
_cell_length_c                   22.192(2)
_cell_angle_alpha                90
_cell_angle_beta                 133.1730(10)
_cell_angle_gamma                90
_cell_volume                     7863.38
loop_
_atom_site_label
_atom_site_type_symbol
_atom_site_fract_x
_atom_site_fract_y
_atom_site_fract_z
O23 O 0.2362(8) 0.6456(13) 0.8344(14)
H1 H 0.1990 0.6440 0.8056
H2 H 0.2537 0.6599 0.8834
La1 La 0.89008(4) 0.86284(6) 1.32831(6)
La2 La 0.83052(4) 1.12895(6) 1.48594(5)
N1 N 0.8379(7) 1.0041(9) 1.2419(9)
N2 N 1.1332(6) 0.7308(9) 1.5359(8)
O24 O 0.8757(6) 0.8858(8) 1.2033(8)
O25 O 0.8409(6) 0.9549(8) 1.0911(7)
O26 O 0.8663(6) 0.9739(8) 1.3828(8)
O27 O 0.8253(6) 1.0984(8) 1.3724(8)
O28 O 1.0596(5) 0.8521(8) 1.4316(8)
O29 O 0.9808(5) 0.7808(8) 1.3898(8)
O30 O 1.2471(5) 0.7645(8) 1.6267(7)
O31 O 1.2761(5) 0.6504(8) 1.7058(8)
O32 O 0.9740(6) 0.9759(9) 1.3764(9)
H3 H 0.9769 1.0147 1.4056
H4 H 1.0076 0.9515 1.4048
O33 O 0.8645(6) 0.7172(9) 1.2619(10)
H5 H 0.8813 0.6778 1.2977
H6 H 0.8272 0.7089 1.2258
O34 O 0.9693(7) 0.8707(11) 1.4924(9)
H7 H 0.9751 0.8226 1.5142
H8 H 0.9563 0.9073 1.5049
O35 O 0.8393(6) 0.7940(10) 1.3710(10)
H9 H 0.8641 0.7824 1.4223
H10 H 0.8120 0.8255 1.3592
O36 O 0.8672(6) 1.2344(8) 1.6062(7)
H11 H 0.8727 1.2059 1.6435
H12 H 0.8394 1.2696 1.5867
O37 O 0.8778(7) 0.9820(9) 1.5143(8)
H13 H 0.8661 0.9578 1.4710
H14 H 0.8740 0.9491 1.5408
O38 O 0.7453(7) 1.0279(11) 1.3860(10)
H15 H 0.7198 1.0288 1.3898
H16 H 0.7571 0.9772 1.3913
O39 O 0.7448(6) 1.1611(9) 1.4797(9)
H17 H 0.7379 1.1206 1.4975
H18 H 0.7129 1.1772 1.4323
C1 C 0.8498(8) 0.9478(11) 1.1548(10)
C2 C 0.8252(8) 1.0132(11) 1.1719(11)
C3 C 0.7865(8) 1.0757(11) 1.1167(11)
H19 H 0.7787 1.0828 1.0684
C4 C 0.7588(9) 1.1287(12) 1.1326(12)
H20 H 0.7307 1.1688 1.0943
C5 C 0.7750(8) 1.1188(11) 1.2074(11)
H21 H 0.7590 1.1542 1.2215
C6 C 0.8148(8) 1.0568(11) 1.2611(10)
C7 C 0.8372(8) 1.0425(10) 1.3457(10)
C8 C 1.0350(7) 0.7887(11) 1.4310(11)
C9 C 1.0762(7) 0.7184(11) 1.4892(10)
C10 C 1.0540(8) 0.6450(11) 1.4969(12)
H22 H 1.0134 0.6377 1.4645
C11 C 1.0944(8) 0.5841(12) 1.5541(11)
H23 H 1.0810 0.5335 1.5583
C12 C 1.1556(8) 0.5993(11) 1.6059(11)
H24 H 1.1838 0.5611 1.6471
C13 C 1.1723(7) 0.6740(11) 1.5928(10)
C14 C 1.2361(7) 0.6972(10) 1.6451(10)
La1G La 0.39008(4) 0.63716(6) 0.82831(6)
La1G_2 La 1.39008(4) 0.63716(6) 1.82831(6)
La1E La 0.89008(4) 1.13716(6) 1.82831(6)
La2D La 1.16948(4) 0.87105(6) 1.51406(5)
La2E La 0.83052(4) 0.87105(6) 0.98594(5)
La2C La 0.66948(4) 0.62895(6) 1.01406(5)
La2E_2 La 0.83052(4) 0.87105(6) 1.98594(5)
N1E N 0.8379(7) 0.9959(9) 1.7419(9)
N1G N 0.3379(7) 0.4959(9) 0.7419(9)
N2G N 0.6332(6) 0.7692(9) 1.0359(8)
N2D N 0.8668(6) 1.2692(9) 1.4641(8)
O24E O 0.8757(6) 1.1142(8) 1.7033(8)
O24G O 0.3757(6) 0.6142(8) 0.7033(8)
O25E O 0.8409(6) 1.0451(8) 1.5911(7)
O25A O 1.1591(6) 0.9549(8) 1.4089(7)
O26E O 0.8663(6) 1.0261(8) 1.8828(8)
O26G O 0.3663(6) 0.5261(8) 0.8828(8)
O27E O 0.8253(6) 0.9016(8) 1.8724(8)
O27D O 1.1747(6) 0.9016(8) 1.6276(8)
O28G O 0.5596(5) 0.6479(8) 0.9316(8)
O28D O 0.9404(5) 1.1479(8) 1.5684(8)
O29G O 0.4808(5) 0.7192(8) 0.8898(8)
O30G O 0.7471(5) 0.7355(8) 1.1267(7)
O30D O 0.7529(5) 1.2355(8) 1.3733(7)
O31G O 0.7761(5) 0.8496(8) 1.2058(8)
O31_2 O 0.2761(5) 0.6504(8) 0.7058(8)
O32G O 0.4740(6) 0.5241(9) 0.8764(9)
H3G H 0.4769 0.4853 0.9056
H4G H 0.5076 0.5485 0.9048
O33G O 0.3645(6) 0.7828(9) 0.7619(10)
H5G H 0.3813 0.8222 0.7977
H6G H 0.3272 0.7911 0.7258
O34G O 0.4693(7) 0.6293(11) 0.9924(9)
H7G H 0.4751 0.6774 1.0142
H8G H 0.4563 0.5927 1.0049
O35G O 0.3393(6) 0.7060(10) 0.8710(10)
H9G H 0.3641 0.7176 0.9223
H10G H 0.3120 0.6745 0.8592
O36D O 1.1328(6) 0.7656(8) 1.3938(7)
H11D H 1.1273 0.7941 1.3565
H12D H 1.1606 0.7304 1.4133
O37D O 1.1222(7) 1.0180(9) 1.4857(8)
H13D H 1.1339 1.0422 1.5290
H14D H 1.1260 1.0509 1.4592
O38D O 1.2547(7) 0.9721(11) 1.6140(10)
H15D H 1.2802 0.9712 1.6102
H16D H 1.2429 1.0228 1.6087
O39D O 1.2552(6) 0.8389(9) 1.5203(9)
H17D H 1.2621 0.8794 1.5025
H18D H 1.2871 0.8228 1.5677
C1E C 0.8498(8) 1.0522(11) 1.6548(10)
C2E C 0.8252(8) 0.9868(11) 1.6719(11)
C3E C 0.7865(8) 0.9243(11) 1.6167(11)
H19E H 0.7787 0.9172 1.5684
C4E C 0.7588(9) 0.8713(12) 1.6326(12)
H20E H 0.7307 0.8312 1.5943
C5E C 0.7750(8) 0.8812(11) 1.7074(11)
H21E H 0.7590 0.8458 1.7215
C6E C 0.8148(8) 0.9432(11) 1.7611(10)
C7E C 0.8372(8) 0.9575(10) 1.8457(10)
C8G C 0.5350(7) 0.7113(11) 0.9310(11)
C9G C 0.5762(7) 0.7816(11) 0.9892(10)
C10G C 0.5540(8) 0.8550(11) 0.9969(12)
H22G H 0.5134 0.8623 0.9645
C11G C 0.5944(8) 0.9159(12) 1.0541(11)
H23G H 0.5810 0.9665 1.0583
C12G C 0.6556(8) 0.9007(11) 1.1059(11)
H24G H 0.6838 0.9389 1.1471
C13G C 0.6723(7) 0.8260(11) 1.0928(10)
C14G C 0.7361(7) 0.8028(10) 1.1451(10)
Mo1 Mo 0.5000 1.08966(16) 0.2500
Mo2 Mo 0.57571(10) 0.97667(12) 0.20901(13)
Mo3 Mo 0.57634(8) 0.75225(13) 0.20897(10)
Mo4 Mo 0.5000 0.63955(18) 0.2500
Mo5 Mo 0.37084(9) 0.97621(19) 0.09064(11)
Mo6 Mo 0.55445(7) 0.86423(10) 0.45106(9)
Mo7 Mo 0.63082(10) 0.75205(13) 0.40911(11)
O1 O 0.5392(12) 0.9500(19) 0.2714(18)
O2 O 0.5425(13) 0.7815(18) 0.2748(18)
O3 O 0.5561(13) 0.8603(18) 0.3454(17)
O4 O 0.5316(8) 1.0634(12) 0.2052(11)
O5 O 0.6039(8) 0.8652(10) 0.2212(11)
O6 O 0.5386(10) 0.6569(13) 0.2095(12)
O7 O 0.4261(8) 1.0709(14) 0.1452(11)
O8 O 0.5067(7) 0.9471(10) 0.1001(11)
O9 O 0.5052(7) 0.7787(10) 0.0992(11)
O10 O 0.5749(9) 0.6631(12) 0.3565(11)
O11 O 0.6335(8) 0.9867(13) 0.3276(11)
O12 O 0.6314(9) 0.7474(12) 0.3253(10)
O13 O 0.3389(7) 0.8629(11) 0.0666(10)
O14 O 0.3976(7) 0.9484(11) 0.0389(11)
O15 O 0.6042(7) 0.7804(11) 0.4634(10)
O16 O 0.5000 1.1947(16) 0.2500
O17 O 0.6148(7) 1.0293(11) 0.1949(9)
O18 O 0.6098(7) 0.7000(12) 0.1853(10)
O19 O 0.5000 0.5348(15) 0.2500
O20 O 0.3093(6) 1.0310(9) 0.0136(9)
O21 O 0.5794(8) 0.8642(9) 0.5445(8)
O22 O 0.6909(9) 0.6956(15) 0.4854(11)
Si1 Si 0.5000 0.8645(5) 0.2500
Mo2A Mo 0.42429(10) 0.97667(12) 0.29099(13)
Mo3A Mo 0.42366(8) 0.75225(13) 0.29103(10)
Mo5A Mo 0.62916(9) 0.97621(19) 0.40936(11)
Mo6A Mo 0.44555(7) 0.86423(10) 0.04894(9)
Mo7A Mo 0.36918(10) 0.75205(13) 0.09089(11)
O1A O 0.4608(12) 0.9500(19) 0.2286(18)
O2A O 0.4575(13) 0.7815(18) 0.2252(18)
O3A O 0.4439(13) 0.8603(18) 0.1546(17)
O4A O 0.4684(8) 1.0634(12) 0.2948(11)
O5A O 0.3961(8) 0.8652(10) 0.2788(11)
O6A O 0.4614(10) 0.6569(13) 0.2905(12)
O7A O 0.5739(8) 1.0709(14) 0.3548(11)
O8A O 0.4933(7) 0.9471(10) 0.3999(11)
O9A O 0.4948(7) 0.7787(10) 0.4008(11)
O10A O 0.4251(9) 0.6631(12) 0.1435(11)
O11A O 0.3665(8) 0.9867(13) 0.1724(11)
O12A O 0.3686(9) 0.7474(12) 0.1747(10)
O13A O 0.6611(7) 0.8629(11) 0.4334(10)
O14A O 0.6024(7) 0.9484(11) 0.4611(11)
O15A O 0.3958(7) 0.7804(11) 0.0366(10)
O17A O 0.3852(7) 1.0293(11) 0.3051(9)
O18A O 0.3902(7) 0.7000(12) 0.3147(10)
O20A O 0.6907(6) 1.0310(9) 0.4864(9)
O21A O 0.4206(8) 0.8642(9) -0.0445(8)
O22A O 0.3091(9) 0.6956(15) 0.0146(11)
loop_
_geom_bond_atom_site_label_1
_geom_bond_atom_site_label_2
_geom_bond_site_symmetry_1
_geom_bond_site_symmetry_2
Mo1 O1 1_555 1_555
Mo2 O1 1_555 1_555
Mo3 O2 1_555 1_555
Mo4 O6 1_555 1_555
Mo5 O7 1_555 1_555
Mo6 O3 1_555 1_555
Mo7 O2 1_555 1_555
O1 Si1 1_555 1_555
O2 O3 1_555 1_555
O3 Mo7 1_555 1_555
O4 Mo1 1_555 1_555
O5 Mo2 1_555 1_555
O6 Mo3 1_555 1_555
O7 Mo1 1_555 1_555
O8 Mo2 1_555 1_555
O9 Mo3 1_555 1_555
O10 Mo4 1_555 1_555
O11 Mo2 1_555 1_555
O12 Mo3 1_555 1_555
O13 Mo5 1_555 1_555
O14 Mo5 1_555 1_555
O15 Mo6 1_555 1_555
O16 Mo1 1_555 1_555
O17 Mo2 1_555 1_555
O18 Mo3 1_555 1_555
O19 Mo4 1_555 1_555
O20 Mo5 1_555 1_555
O21 Mo6 1_555 1_555
O22 Mo7 1_555 1_555
Si1 O2 1_555 1_555
O23 H1 1_555 1_555
H2 O23 1_555 1_555
La1 N1 1_555 1_555
La2 O27 1_555 1_555
N1 C2 1_555 1_555
N2 C9 1_555 1_555
O24 La1 1_555 1_555
O25 C1 1_555 1_555
O26 La1 1_555 1_555
O27 C7 1_555 1_555
O28 C8 1_555 1_555
O29 La1 1_555 1_555
O30 C14 1_555 1_555
O31 C14 1_555 1_555
O32 La1 1_555 1_555
H3 O32 1_555 1_555
H4 O32 1_555 1_555
O33 La1 1_555 1_555
H5 O33 1_555 1_555
H6 O33 1_555 1_555
O34 La1 1_555 1_555
H7 O34 1_555 1_555
H8 O34 1_555 1_555
O35 La1 1_555 1_555
H9 O35 1_555 1_555
H10 O35 1_555 1_555
O36 La2 1_555 1_555
H11 O36 1_555 1_555
H12 O36 1_555 1_555
O37 La2 1_555 1_555
H13 O37 1_555 1_555
H14 O37 1_555 1_555
O38 La2 1_555 1_555
H15 O38 1_555 1_555
H16 O38 1_555 1_555
O39 La2 1_555 1_555
H17 O39 1_555 1_555
H18 O39 1_555 1_555
C1 O24 1_555 1_555
C2 C1 1_555 1_555
C3 C2 1_555 1_555
H19 C3 1_555 1_555
C4 C3 1_555 1_555
H20 C4 1_555 1_555
C5 C4 1_555 1_555
H21 C5 1_555 1_555
C6 N1 1_555 1_555
C7 O26 1_555 1_555
C8 O29 1_555 1_555
C9 C8 1_555 1_555
C10 C9 1_555 1_555
H22 C10 1_555 1_555
C11 C10 1_555 1_555
H23 C11 1_555 1_555
C12 C11 1_555 1_555
H24 C12 1_555 1_555
C13 N2 1_555 1_555
C14 C13 1_555 1_555
Mo2A O1A 1_555 1_555
Mo3A O2A 1_555 1_555
Mo5A O1 1_555 1_555
Mo6A O8 1_555 1_555
Mo7A O13 1_555 1_555
O1A Mo1 1_555 1_555
O2A Si1 1_555 1_555
O3A Si1 1_555 1_555
O4A Mo1 1_555 1_555
O5A Mo2A 1_555 1_555
O6A Mo4 1_555 1_555
O7A Mo1 1_555 1_555
O8A Mo6 1_555 1_555
O9A Mo6 1_555 1_555
O10A Mo4 1_555 1_555
O11A Mo5 1_555 1_555
O12A Mo3A 1_555 1_555
O13A Mo7 1_555 1_555
O14A Mo6 1_555 1_555
O15A Mo6A 1_555 1_555
O17A Mo2A 1_555 1_555
O18A Mo3A 1_555 1_555
O20A Mo5A 1_555 1_555
O21A Mo6A 1_555 1_555
O22A Mo7A 1_555 1_555
La1G N1G 1_555 1_555
La1G_2 O31 1_555 1_555
La1E N1E 1_555 1_555
La2D N2 1_555 1_555
La2E O25 1_555 1_555
La2C N2G 1_555 1_555
La2E_2 O27E 1_555 1_555
N1E C2E 1_555 1_555
N2G C9G 1_555 1_555
N2D La2 1_555 1_555
O24E La1E 1_555 1_555
O24G La1G 1_555 1_555
O25E La2 1_555 1_555
O25A La2D 1_555 1_555
O26E La1E 1_555 1_555
O26G La1G 1_555 1_555
O27E C7E 1_555 1_555
O27D La2D 1_555 1_555
O28G La2C 1_555 1_555
O28D La2 1_555 1_555
O29G La1G 1_555 1_555
O30G La2C 1_555 1_555
O30D La2 1_555 1_555
O31G La1 1_555 1_555
O31_2 La1G 1_555 1_555
O32G La1G 1_555 1_555
H3G O32G 1_555 1_555
H4G O32G 1_555 1_555
O33G La1G 1_555 1_555
H5G O33G 1_555 1_555
H6G O33G 1_555 1_555
O34G La1G 1_555 1_555
H7G O34G 1_555 1_555
H8G O34G 1_555 1_555
O35G La1G 1_555 1_555
H9G O35G 1_555 1_555
H10G O35G 1_555 1_555
O36D La2D 1_555 1_555
H11D O36D 1_555 1_555
H12D O36D 1_555 1_555
O37D La2D 1_555 1_555
H13D O37D 1_555 1_555
H14D O37D 1_555 1_555
O38D La2D 1_555 1_555
H15D O38D 1_555 1_555
H16D O38D 1_555 1_555
O39D La2D 1_555 1_555
H17D O39D 1_555 1_555
H18D O39D 1_555 1_555
C1E O24E 1_555 1_555
C2E C1E 1_555 1_555
C3E C2E 1_555 1_555
H19E C3E 1_555 1_555
C4E C3E 1_555 1_555
H20E C4E 1_555 1_555
C5E C4E 1_555 1_555
H21E C5E 1_555 1_555
C6E N1E 1_555 1_555
C7E O26E 1_555 1_555
C8G O28G 1_555 1_555
C9G C8G 1_555 1_555
C10G C9G 1_555 1_555
H22G C10G 1_555 1_555
C11G C10G 1_555 1_555
H23G C11G 1_555 1_555
C12G C11G 1_555 1_555
H24G C12G 1_555 1_555
C13G N2G 1_555 1_555
C14G O30G 1_555 1_555
Mo2 O4 1_555 1_555
Mo3 O5 1_555 1_555
Mo5 O1A 1_555 1_555
Mo7 O10 1_555 1_555
Mo7 O12 1_555 1_555
Mo7 O15 1_555 1_555
O3 Si1 1_555 1_555
O9 Mo6A 1_555 1_555
O11 Mo5A 1_555 1_555
O14 Mo6A 1_555 1_555
Si1 O1A 1_555 1_555
O28 La2D 1_555 1_555
O30 La2D 1_555 1_555
C5 C6 1_555 1_555
C6 C7 1_555 1_555
C12 C13 1_555 1_555
Mo2A O4A 1_555 1_555
Mo2A O8A 1_555 1_555
Mo2A O11A 1_555 1_555
Mo3A O5A 1_555 1_555
Mo3A O6A 1_555 1_555
Mo3A O9A 1_555 1_555
Mo5A O7A 1_555 1_555
Mo5A O13A 1_555 1_555
Mo5A O14A 1_555 1_555
Mo6A O3A 1_555 1_555
Mo7A O2A 1_555 1_555
Mo7A O3A 1_555 1_555
Mo7A O10A 1_555 1_555
Mo7A O12A 1_555 1_555
Mo7A O15A 1_555 1_555
O2A O3A 1_555 1_555
O25E C1E 1_555 1_555
O29G C8G 1_555 1_555
O31G C14G 1_555 1_555
C5E C6E 1_555 1_555
C6E C7E 1_555 1_555
C12G C13G 1_555 1_555
C13G C14G 1_555 1_555

#END
