
#######################################################################
#
#                 Cambridge Crystallographic Data Centre
#                                CCDC 
#
#######################################################################
#
# If this CIF has been generated from an entry in the Cambridge 
# Structural Database, then it will include bibliographic, chemical, 
# crystal, experimental, refinement or atomic coordinate data resulting 
# from the CCDC's data processing and validation procedures.
#
#######################################################################

data_FORQEJ
_chemical_formula_moiety         '(C28 H46 Ce4 Ge1 Mo13 N4 O76 4+)n'
_symmetry_cell_setting           monoclinic
_symmetry_space_group_name_H-M   'C 2/c'
_symmetry_Int_Tables_number      15
_space_group_name_Hall           '-C 2yc'
loop_
_symmetry_equiv_pos_site_id
_symmetry_equiv_pos_as_xyz
1 x,y,z
2 -x,y,1/2-z
3 1/2+x,1/2+y,z
4 1/2-x,1/2+y,1/2-z
5 -x,-y,-z
6 x,-y,1/2+z
7 1/2-x,1/2-y,-z
8 1/2+x,1/2-y,1/2+z
_cell_length_a                   30.727(3)
_cell_length_b                   15.769(2)
_cell_length_c                   22.110(2)
_cell_angle_alpha                90
_cell_angle_beta                 133.0800(10)
_cell_angle_gamma                90
_cell_volume                     7824.82
loop_
_atom_site_label
_atom_site_type_symbol
_atom_site_fract_x
_atom_site_fract_y
_atom_site_fract_z
Ge1 Ge 0.5000 0.13517(17) 0.2500
Mo1 Mo 0.57684(9) 0.24770(15) 0.20839(12)
Mo2 Mo 0.63144(12) 0.24794(16) 0.40956(13)
Mo3 Mo 0.44524(8) 0.13531(13) 0.04801(10)
Mo4 Mo 0.57629(12) 0.02268(14) 0.20884(16)
Mo5 Mo 0.62975(10) 0.0229(2) 0.40982(14)
Mo6 Mo 0.5000 -0.09058(19) 0.2500
Mo7 Mo 0.51652(18) 0.3598(2) 0.2710(2)
O1 O 0.5455(12) 0.2237(16) 0.2759(15)
O2 O 0.5174(11) 0.1381(15) 0.1905(15)
O3 O 0.5591(10) 0.1400(16) 0.3522(15)
O4 O 0.5418(10) 0.0432(15) 0.2723(15)
O5 O 0.6333(11) 0.2516(14) 0.3257(12)
O6 O 0.6064(10) 0.2196(14) 0.4676(15)
O7 O 0.5063(8) 0.0515(12) 0.0984(13)
O8 O 0.3988(11) 0.0508(17) 0.0419(17)
O9 O 0.5064(8) 0.2209(11) 0.0995(13)
O10 O 0.6051(8) 0.1347(12) 0.2213(12)
O11 O 0.5717(12) -0.0728(19) 0.3537(17)
O12 O 0.6353(12) 0.0129(19) 0.3286(16)
O13 O 0.5347(11) -0.0674(17) 0.2053(15)
O14 O 0.5348(13) 0.3375(18) 0.2065(17)
O15 O 0.5849(11) 0.3428(15) 0.3638(14)
O16 O 0.6626(9) 0.1381(15) 0.4339(14)
O17 O 0.6101(9) 0.2999(13) 0.1848(12)
O18 O 0.6896(12) 0.3075(18) 0.4850(16)
O19 O 0.4191(8) 0.1343(11) -0.0465(10)
O20 O 0.6155(8) -0.0296(13) 0.1948(12)
O21 O 0.6914(7) -0.0309(11) 0.4860(10)
O23 O 0.5000 0.4642(16) 0.2500
Mo1A Mo 0.42316(9) 0.24770(15) 0.29161(12)
Mo2A Mo 0.36856(12) 0.24794(16) 0.09044(13)
Mo3A Mo 0.55476(8) 0.13531(13) 0.45199(10)
Mo4A Mo 0.42371(12) 0.02268(14) 0.29116(16)
Mo5A Mo 0.37025(10) 0.0229(2) 0.09018(14)
Mo7A Mo 0.48348(18) 0.3598(2) 0.2290(2)
O1A O 0.4545(12) 0.2237(16) 0.2241(15)
O2A O 0.4826(11) 0.1381(15) 0.3095(15)
O3A O 0.4409(10) 0.1400(16) 0.1478(15)
O4A O 0.4582(10) 0.0432(15) 0.2277(15)
O5A O 0.3667(11) 0.2516(14) 0.1743(12)
O6A O 0.3936(10) 0.2196(14) 0.0324(15)
O7A O 0.4937(8) 0.0515(12) 0.4016(13)
O8A O 0.6012(11) 0.0508(17) 0.4581(17)
O9A O 0.4936(8) 0.2209(11) 0.4005(13)
O10A O 0.3949(8) 0.1347(12) 0.2787(12)
O11A O 0.4283(12) -0.0728(19) 0.1463(17)
O12A O 0.3647(12) 0.0129(19) 0.1714(16)
O13A O 0.4653(11) -0.0674(17) 0.2947(15)
O14A O 0.4652(13) 0.3375(18) 0.2935(17)
O15A O 0.4151(11) 0.3428(15) 0.1362(14)
O16A O 0.3374(9) 0.1381(15) 0.0661(14)
O17A O 0.3899(9) 0.2999(13) 0.3152(12)
O18A O 0.3104(12) 0.3075(18) 0.0150(16)
O19A O 0.5809(8) 0.1343(11) 0.5465(10)
O20A O 0.3845(8) -0.0296(13) 0.3052(12)
O21A O 0.3086(7) -0.0309(11) 0.0140(10)
O40 O 0.7378(11) 0.1446(15) 0.3357(17)
H17 H 0.7004 0.1434 0.3062
H18 H 0.7549 0.1598 0.3844
Ce1 Ce 0.66945(4) 0.37180(7) 0.01442(6)
Ce2 Ce 0.88997(4) 0.13689(7) 0.32709(6)
N1 N 0.6329(7) 0.2326(10) 0.0356(9)
N2 N 0.6625(7) 0.4976(9) 0.2592(10)
O24 O 0.5597(6) 0.3536(9) -0.0688(9)
O25 O 0.4808(6) 0.2821(9) -0.1117(9)
O26 O 0.7470(6) 0.2664(9) 0.1270(8)
O27 O 0.7765(6) 0.1503(9) 0.2051(9)
O28 O 0.6336(7) 0.5286(10) 0.1171(9)
O29 O 0.6737(7) 0.4034(9) 0.1268(9)
O30 O 0.6242(7) 0.6155(9) 0.2960(9)
O31 O 0.6590(7) 0.5471(9) 0.4096(9)
O32 O 0.6336(7) 0.2661(9) -0.1048(9)
H1 H 0.6618 0.2372 -0.0932
H2 H 0.6051 0.2340 -0.1210
O33 O 0.7552(7) 0.3396(10) 0.0221(10)
H3 H 0.7491 0.2949 -0.0042
H4 H 0.7625 0.3810 0.0056
O34 O 0.7524(9) 0.4734(13) 0.1115(13)
H5 H 0.7781 0.4730 0.1076
H6 H 0.7399 0.5236 0.1056
O35 O 0.6219(9) 0.5171(10) -0.0144(10)
H7 H 0.6334 0.5414 0.0288
H8 H 0.6262 0.5500 -0.0404
O36 O 0.9736(7) 0.0254(10) 0.3759(10)
H9 H 0.9762 -0.0133 0.4050
H10 H 1.0073 0.0496 0.4048
O37 O 0.9684(9) 0.1311(14) 0.4907(10)
H11 H 0.9519 0.0928 0.4964
H12 H 0.9833 0.1674 0.5290
O38 O 0.8390(7) 0.2059(12) 0.3683(11)
H13 H 0.8638 0.2180 0.4195
H14 H 0.8118 0.1743 0.3568
O39 O 0.8667(6) 0.2803(9) 0.2625(10)
H15 H 0.8839 0.3193 0.2988
H16 H 0.8294 0.2895 0.2264
C1 C 0.5353(8) 0.2919(13) -0.0693(12)
C2 C 0.5759(8) 0.2201(12) -0.0113(12)
C3 C 0.5540(9) 0.1467(13) -0.0038(13)
H19 H 0.5133 0.1393 -0.0369
C4 C 0.5941(9) 0.0850(14) 0.0538(12)
H20 H 0.5808 0.0348 0.0585
C5 C 0.6559(9) 0.1011(13) 0.1051(13)
H21 H 0.6840 0.0621 0.1453
C6 C 0.6736(9) 0.1762(13) 0.0942(12)
C7 C 0.7378(8) 0.1997(12) 0.1473(11)
C8 C 0.6622(9) 0.4598(12) 0.1534(12)
C9 C 0.6840(8) 0.4440(12) 0.2380(11)
C10 C 0.7259(9) 0.3830(13) 0.2929(12)
H22 H 0.7438 0.3495 0.2804
C11 C 0.7400(11) 0.3741(16) 0.3657(14)
H23 H 0.7673 0.3328 0.4033
C12 C 0.7147(9) 0.4246(13) 0.3844(12)
H24 H 0.7236 0.4170 0.4335
C13 C 0.6755(9) 0.4876(12) 0.3293(12)
C14 C 0.6501(9) 0.5536(12) 0.3454(12)
Ce1E Ce 0.66945(4) 0.62820(7) -0.48558(6)
Ce1E_2 Ce 0.66945(4) 0.62820(7) 0.51442(6)
Ce1G Ce 1.16945(4) 0.12820(7) 0.51442(6)
Ce2C Ce 0.61003(4) 0.63689(7) 0.17291(6)
Ce2G Ce 0.38997(4) 0.36311(7) -0.17291(6)
Ce2F Ce 0.61003(4) 0.36311(7) -0.32709(6)
Ce2G_2 Ce 1.38997(4) 0.36311(7) 0.82709(6)
N1G N 1.1329(7) 0.2674(10) 0.5356(9)
N1E N 0.6329(7) 0.7674(10) -0.4644(9)
N2E N 0.6625(7) 0.5024(9) -0.2408(10)
N2C N 0.8375(7) -0.0024(9) 0.2408(10)
O24G O 1.0597(6) 0.1464(9) 0.4312(9)
O24E O 0.5597(6) 0.6464(9) -0.5688(9)
O25G O 0.9808(6) 0.2179(9) 0.3883(9)
O25D O 0.5192(6) 0.7179(9) 0.1117(9)
O26G O 1.2470(6) 0.2336(9) 0.6270(8)
O26E O 0.7470(6) 0.7336(9) -0.3730(8)
O27G O 1.2765(6) 0.3497(9) 0.7051(9)
O27C O 0.7235(6) 0.6503(9) 0.2949(9)
O28E O 0.6336(7) 0.4714(10) -0.3829(9)
O28C O 0.8664(7) 0.0286(10) 0.3829(9)
O29E O 0.6737(7) 0.5966(9) -0.3732(9)
O30E O 0.6242(7) 0.3845(9) -0.2040(9)
O30C O 0.8758(7) 0.1155(9) 0.2040(9)
O31E O 0.6590(7) 0.4529(9) -0.0904(9)
O31_2 O 0.6590(7) 0.5471(9) -0.5904(9)
O32E O 0.6336(7) 0.7339(9) -0.6048(9)
H1E H 0.6618 0.7628 -0.5932
H2E H 0.6051 0.7660 -0.6210
O33E O 0.7552(7) 0.6604(10) -0.4779(10)
H3E H 0.7491 0.7051 -0.5042
H4E H 0.7625 0.6190 -0.4944
O34E O 0.7524(9) 0.5266(13) -0.3885(13)
H5E H 0.7781 0.5270 -0.3924
H6E H 0.7399 0.4764 -0.3944
O35E O 0.6219(9) 0.4829(10) -0.5144(10)
H7E H 0.6334 0.4586 -0.4712
H8E H 0.6262 0.4500 -0.5404
O36C O 0.5264(7) 0.5254(10) 0.1241(10)
H9C H 0.5238 0.4867 0.0950
H10C H 0.4927 0.5496 0.0952
O37C O 0.5316(9) 0.6311(14) 0.0093(10)
H11C H 0.5481 0.5928 0.0036
H12C H 0.5167 0.6674 -0.0290
O38C O 0.6610(7) 0.7059(12) 0.1317(11)
H13C H 0.6362 0.7180 0.0805
H14C H 0.6882 0.6743 0.1432
O39C O 0.6333(6) 0.7803(9) 0.2375(10)
H15C H 0.6161 0.8193 0.2012
H16C H 0.6706 0.7895 0.2736
C1G C 1.0353(8) 0.2081(13) 0.4307(12)
C2G C 1.0759(8) 0.2799(12) 0.4887(12)
C3G C 1.0540(9) 0.3533(13) 0.4962(13)
H19G H 1.0133 0.3607 0.4631
C4G C 1.0941(9) 0.4150(14) 0.5538(12)
H20G H 1.0808 0.4652 0.5585
C5G C 1.1559(9) 0.3989(13) 0.6051(13)
H21G H 1.1840 0.4379 0.6453
C6G C 1.1736(9) 0.3238(13) 0.5942(12)
C7G C 1.2378(8) 0.3003(12) 0.6473(11)
C8E C 0.6622(9) 0.5402(12) -0.3466(12)
C9E C 0.6840(8) 0.5560(12) -0.2620(11)
C10E C 0.7259(9) 0.6170(13) -0.2071(12)
H22E H 0.7438 0.6505 -0.2196
C11E C 0.7400(11) 0.6259(16) -0.1343(14)
H23E H 0.7673 0.6672 -0.0967
C12E C 0.7147(9) 0.5754(13) -0.1156(12)
H24E H 0.7236 0.5830 -0.0665
C13E C 0.6755(9) 0.5124(12) -0.1707(12)
C14E C 0.6501(9) 0.4464(12) -0.1546(12)
loop_
_geom_bond_atom_site_label_1
_geom_bond_atom_site_label_2
_geom_bond_site_symmetry_1
_geom_bond_site_symmetry_2
Ce1 N1 1_555 1_555
Ce2 O27 1_555 1_555
Ge1 O1 1_555 1_555
Mo1 O1 1_555 1_555
Mo2 O1 1_555 1_555
Mo3 O2 1_555 1_555
Mo4 O2 1_555 1_555
Mo5 O3 1_555 1_555
Mo6 O4 1_555 1_555
Mo7 O1 1_555 1_555
N1 C2 1_555 1_555
N2 C9 1_555 1_555
O2 Ge1 1_555 1_555
O3 Ge1 1_555 1_555
O4 Ge1 1_555 1_555
O5 Mo1 1_555 1_555
O6 Mo2 1_555 1_555
O7 Mo3 1_555 1_555
O8 Mo3 1_555 1_555
O9 Mo1 1_555 1_555
O10 Mo1 1_555 1_555
O11 Mo5 1_555 1_555
O12 Mo4 1_555 1_555
O13 Mo4 1_555 1_555
O14 Mo1 1_555 1_555
O15 Mo2 1_555 1_555
O16 Mo2 1_555 1_555
O17 Mo1 1_555 1_555
O18 Mo2 1_555 1_555
O19 Mo3 1_555 1_555
O20 Mo4 1_555 1_555
O21 Mo5 1_555 1_555
O23 Mo7 1_555 1_555
O24 Ce1 1_555 1_555
O25 C1 1_555 1_555
O26 Ce1 1_555 1_555
O27 C7 1_555 1_555
O28 C8 1_555 1_555
O29 Ce1 1_555 1_555
O30 C14 1_555 1_555
O31 C14 1_555 1_555
O32 Ce1 1_555 1_555
H1 O32 1_555 1_555
H2 O32 1_555 1_555
O33 Ce1 1_555 1_555
H3 O33 1_555 1_555
H4 O33 1_555 1_555
O34 Ce1 1_555 1_555
H5 O34 1_555 1_555
H6 O34 1_555 1_555
O35 Ce1 1_555 1_555
H7 O35 1_555 1_555
H8 O35 1_555 1_555
O36 Ce2 1_555 1_555
H9 O36 1_555 1_555
H10 O36 1_555 1_555
O37 Ce2 1_555 1_555
H11 O37 1_555 1_555
H12 O37 1_555 1_555
O38 Ce2 1_555 1_555
H13 O38 1_555 1_555
H14 O38 1_555 1_555
O39 Ce2 1_555 1_555
H15 O39 1_555 1_555
H16 O39 1_555 1_555
O40 H17 1_555 1_555
H18 O40 1_555 1_555
C1 O24 1_555 1_555
C2 C1 1_555 1_555
C3 C2 1_555 1_555
H19 C3 1_555 1_555
C4 C3 1_555 1_555
H20 C4 1_555 1_555
C5 C4 1_555 1_555
H21 C5 1_555 1_555
C6 N1 1_555 1_555
C7 O26 1_555 1_555
C8 O29 1_555 1_555
C9 C8 1_555 1_555
C10 C9 1_555 1_555
H22 C10 1_555 1_555
C11 C10 1_555 1_555
H23 C11 1_555 1_555
C12 C11 1_555 1_555
H24 C12 1_555 1_555
C13 N2 1_555 1_555
C14 C13 1_555 1_555
Ce1E N1E 1_555 1_555
Ce1E_2 O31 1_555 1_555
Ce1G N1G 1_555 1_555
Ce2C N2 1_555 1_555
Ce2G O25 1_555 1_555
Ce2F N2E 1_555 1_555
Ce2G_2 O27G 1_555 1_555
Mo1A O1A 1_555 1_555
Mo2A O1A 1_555 1_555
Mo3A O3 1_555 1_555
Mo4A O2A 1_555 1_555
Mo5A O8 1_555 1_555
Mo7A Mo7 1_555 1_555
N1G C2G 1_555 1_555
N2E C9E 1_555 1_555
N2C Ce2 1_555 1_555
O1A Ge1 1_555 1_555
O2A Ge1 1_555 1_555
O3A Ge1 1_555 1_555
O4A Ge1 1_555 1_555
O5A Mo1A 1_555 1_555
O6A Mo3 1_555 1_555
O7A Mo3A 1_555 1_555
O8A Mo5 1_555 1_555
O9A Mo1A 1_555 1_555
O10A Mo1A 1_555 1_555
O11A Mo6 1_555 1_555
O12A Mo4A 1_555 1_555
O13A Mo6 1_555 1_555
O14A Mo7 1_555 1_555
O15A Mo7 1_555 1_555
O16A Mo2A 1_555 1_555
O17A Mo1A 1_555 1_555
O18A Mo2A 1_555 1_555
O19A Mo3A 1_555 1_555
O20A Mo4A 1_555 1_555
O21A Mo5A 1_555 1_555
O24G Ce1G 1_555 1_555
O24E Ce1E 1_555 1_555
O25G Ce2 1_555 1_555
O25D Ce2C 1_555 1_555
O26G Ce1G 1_555 1_555
O26E Ce1E 1_555 1_555
O27G C7G 1_555 1_555
O27C Ce2C 1_555 1_555
O28E Ce2F 1_555 1_555
O28C Ce2 1_555 1_555
O29E Ce1E 1_555 1_555
O30E Ce2F 1_555 1_555
O30C Ce2 1_555 1_555
O31E Ce1 1_555 1_555
O31_2 Ce1E 1_555 1_555
O32E Ce1E 1_555 1_555
H1E O32E 1_555 1_555
H2E O32E 1_555 1_555
O33E Ce1E 1_555 1_555
H3E O33E 1_555 1_555
H4E O33E 1_555 1_555
O34E Ce1E 1_555 1_555
H5E O34E 1_555 1_555
H6E O34E 1_555 1_555
O35E Ce1E 1_555 1_555
H7E O35E 1_555 1_555
H8E O35E 1_555 1_555
O36C Ce2C 1_555 1_555
H9C O36C 1_555 1_555
H10C O36C 1_555 1_555
O37C Ce2C 1_555 1_555
H11C O37C 1_555 1_555
H12C O37C 1_555 1_555
O38C Ce2C 1_555 1_555
H13C O38C 1_555 1_555
H14C O38C 1_555 1_555
O39C Ce2C 1_555 1_555
H15C O39C 1_555 1_555
H16C O39C 1_555 1_555
C1G O24G 1_555 1_555
C2G C1G 1_555 1_555
C3G C2G 1_555 1_555
H19G C3G 1_555 1_555
C4G C3G 1_555 1_555
H20G C4G 1_555 1_555
C5G C4G 1_555 1_555
H21G C5G 1_555 1_555
C6G N1G 1_555 1_555
C7G O26G 1_555 1_555
C8E O28E 1_555 1_555
C9E C8E 1_555 1_555
C10E C9E 1_555 1_555
H22E C10E 1_555 1_555
C11E C10E 1_555 1_555
H23E C11E 1_555 1_555
C12E C11E 1_555 1_555
H24E C12E 1_555 1_555
C13E N2E 1_555 1_555
C14E O30E 1_555 1_555
Mo1 O2 1_555 1_555
Mo2 O3 1_555 1_555
Mo2 O5 1_555 1_555
Mo3 O9 1_555 1_555
Mo3 O3A 1_555 1_555
Mo4 O4 1_555 1_555
Mo4 O7 1_555 1_555
Mo4 O10 1_555 1_555
Mo5 O4 1_555 1_555
Mo5 O12 1_555 1_555
Mo5 O16 1_555 1_555
Mo6 O11 1_555 1_555
Mo6 O13 1_555 1_555
Mo6 O4A 1_555 1_555
Mo7 O14 1_555 1_555
Mo7 O15 1_555 1_555
O6 Mo3A 1_555 1_555
O14 Mo7A 1_555 1_555
O15 Mo7A 1_555 1_555
O23 Mo7A 1_555 1_555
O28 Ce2C 1_555 1_555
O30 Ce2C 1_555 1_555
C5 C6 1_555 1_555
C6 C7 1_555 1_555
C12 C13 1_555 1_555
Mo1A O2A 1_555 1_555
Mo1A O14A 1_555 1_555
Mo2A O3A 1_555 1_555
Mo2A O5A 1_555 1_555
Mo2A O6A 1_555 1_555
Mo2A O15A 1_555 1_555
Mo3A O2A 1_555 1_555
Mo3A O8A 1_555 1_555
Mo3A O9A 1_555 1_555
Mo4A O4A 1_555 1_555
Mo4A O7A 1_555 1_555
Mo4A O10A 1_555 1_555
Mo4A O13A 1_555 1_555
Mo5A O3A 1_555 1_555
Mo5A O4A 1_555 1_555
Mo5A O11A 1_555 1_555
Mo5A O12A 1_555 1_555
Mo5A O16A 1_555 1_555
Mo7A O1A 1_555 1_555
Mo7A O14A 1_555 1_555
Mo7A O15A 1_555 1_555
O25G C1G 1_555 1_555
O29E C8E 1_555 1_555
O31E C14E 1_555 1_555
C5G C6G 1_555 1_555
C6G C7G 1_555 1_555
C12E C13E 1_555 1_555
C13E C14E 1_555 1_555

#END
