
#######################################################################
#
#                 Cambridge Crystallographic Data Centre
#                                CCDC 
#
#######################################################################
#
# If this CIF has been generated from an entry in the Cambridge 
# Structural Database, then it will include bibliographic, chemical, 
# crystal, experimental, refinement or atomic coordinate data resulting 
# from the CCDC's data processing and validation procedures.
#
#######################################################################

data_RUVBUH
_chemical_formula_moiety         '(C18 H12 N6 O4 Zn1)n'
_symmetry_cell_setting           orthorhombic
_symmetry_space_group_name_H-M   'P b c n'
_symmetry_Int_Tables_number      60
_space_group_name_Hall           '-P 2n 2ab'
loop_
_symmetry_equiv_pos_site_id
_symmetry_equiv_pos_as_xyz
1 x,y,z
2 1/2-x,1/2-y,1/2+z
3 -x,y,1/2-z
4 1/2+x,1/2-y,-z
5 -x,-y,-z
6 1/2+x,1/2+y,1/2-z
7 x,-y,1/2+z
8 1/2-x,1/2+y,z
_cell_length_a                   20.0621(18)
_cell_length_b                   15.5930(14)
_cell_length_c                   17.2349(15)
_cell_angle_alpha                90
_cell_angle_beta                 90
_cell_angle_gamma                90
_cell_volume                     5391.56
loop_
_atom_site_label
_atom_site_type_symbol
_atom_site_fract_x
_atom_site_fract_y
_atom_site_fract_z
_atom_site_U_iso_or_equiv
_atom_site_thermal_displace_type
Zn1 Zn 0.288681(13) 0.022949(17) 1.005930(15) 0.0286 Uani
N1 N 0.37903(9) 0.07352(13) 1.03332(12) 0.0346 Uani
N2 N 0.42489(11) 0.02179(15) 1.07067(15) 0.0541 Uani
N3 N 0.47141(9) 0.14512(14) 1.04250(12) 0.0380 Uani
N4 N 0.30741(10) -0.03512(13) 0.90142(12) 0.0345 Uani
N5 N 0.36010(11) -0.01949(14) 0.85269(12) 0.0431 Uani
N6 N 0.30405(10) -0.13131(13) 0.81088(12) 0.0354 Uani
C1 C 0.40783(12) 0.14605(18) 1.01731(15) 0.0385 Uani
H1 H 0.3875 0.1919 0.9922 0.0460 Uiso
C2 C 0.47897(13) 0.0668(2) 1.07508(18) 0.0561 Uani
H2 H 0.5182 0.0476 1.0979 0.0670 Uiso
C3 C 0.52162(12) 0.21106(17) 1.03566(15) 0.0394 Uani
C4 C 0.50553(13) 0.29475(18) 1.0499(2) 0.0584 Uani
H3 H 0.4621 0.3098 1.0633 0.0700 Uiso
C5 C 0.55461(14) 0.3569(2) 1.0444(2) 0.0619 Uani
H4 H 0.5441 0.4141 1.0538 0.0740 Uiso
C6 C 0.61904(13) 0.33452(17) 1.02491(16) 0.0417 Uani
C7 C 0.63403(13) 0.24952(19) 1.01032(16) 0.0455 Uani
H5 H 0.6773 0.2341 0.9969 0.0550 Uiso
C8 C 0.58516(13) 0.18708(18) 1.01552(16) 0.0459 Uani
H6 H 0.5952 0.1299 1.0055 0.0550 Uiso
C9 C 0.67249(14) 0.4027(2) 1.02050(18) 0.0505 Uani
C10 C 0.27490(12) -0.10178(17) 0.87553(15) 0.0383 Uani
H7 H 0.2371 -0.1253 0.8985 0.0460 Uiso
C11 C 0.35625(14) -0.07748(18) 0.79871(15) 0.0464 Uani
H8 H 0.3855 -0.0816 0.7570 0.0560 Uiso
C12 C 0.28521(12) -0.20575(16) 0.76635(14) 0.0370 Uani
C13 C 0.29008(13) -0.20263(18) 0.68614(15) 0.0430 Uani
H9 H 0.3039 -0.1528 0.6612 0.0520 Uiso
C14 C 0.27397(13) -0.27503(17) 0.64406(15) 0.0418 Uani
H10 H 0.2770 -0.2739 0.5902 0.0500 Uiso
C15 C 0.25337(13) -0.34929(16) 0.68099(14) 0.0383 Uani
C16 C 0.24851(16) -0.35006(18) 0.76057(15) 0.0500 Uani
H11 H 0.2342 -0.3996 0.7856 0.0600 Uiso
C17 C 0.26451(15) -0.27845(18) 0.80398(15) 0.0494 Uani
H12 H 0.2613 -0.2796 0.8578 0.0590 Uiso
C18 C 0.23596(13) -0.42877(17) 0.63439(16) 0.0422 Uani
O1 O 0.65832(12) 0.47763(15) 1.03259(19) 0.0889 Uani
O2 O 0.73053(9) 0.37746(13) 1.00289(10) 0.0475 Uani
O3 O 0.22946(9) -0.41796(12) 0.56205(10) 0.0448 Uani
O4 O 0.22885(14) -0.49768(14) 0.66693(13) 0.0769 Uani
Zn1A Zn 0.211319(13) -0.522949(17) 0.505930(15) 0.0286 Uani
Zn1C Zn 0.788681(13) 0.477051(17) 0.994070(15) 0.0286 Uani
O2C O 0.23053(9) 0.12254(13) 0.99711(10) 0.0475 Uani
O3A O 0.27054(9) -0.08204(12) 1.06205(10) 0.0448 Uani
loop_
_atom_site_aniso_label
_atom_site_aniso_U_11
_atom_site_aniso_U_22
_atom_site_aniso_U_33
_atom_site_aniso_U_23
_atom_site_aniso_U_13
_atom_site_aniso_U_12
Zn1 0.02867(17) 0.02270(17) 0.03449(18) -0.00053(11) -0.00130(11) -0.00044(10)
N1 0.0283(10) 0.0326(12) 0.0429(12) 0.0001(10) -0.0057(9) -0.0032(9)
N2 0.0392(13) 0.0403(14) 0.0828(18) 0.0151(13) -0.0163(12) -0.0077(10)
N3 0.0322(11) 0.0333(12) 0.0486(13) 0.0016(10) -0.0046(9) -0.0085(9)
N4 0.0357(10) 0.0334(12) 0.0344(11) -0.0062(9) 0.0014(9) -0.0025(9)
N5 0.0453(12) 0.0424(14) 0.0416(12) -0.0071(11) 0.0066(10) -0.0118(10)
N6 0.0409(12) 0.0308(12) 0.0344(11) -0.0055(9) 0.0010(9) -0.0059(9)
C1 0.0324(13) 0.0365(15) 0.0465(15) 0.0054(12) -0.0041(11) -0.0024(11)
C2 0.0365(14) 0.0468(18) 0.085(2) 0.0176(17) -0.0199(14) -0.0072(13)
C3 0.0349(13) 0.0348(15) 0.0485(16) 0.0013(12) -0.0032(12) -0.0126(11)
C4 0.0354(15) 0.0409(17) 0.099(3) -0.0114(17) 0.0120(15) -0.0060(13)
C5 0.0486(17) 0.0350(17) 0.102(3) -0.0102(18) 0.0090(17) -0.0084(13)
C6 0.0391(14) 0.0344(15) 0.0515(16) -0.0019(13) 0.0008(12) -0.0124(11)
C7 0.0306(13) 0.0427(16) 0.0633(18) -0.0020(14) 0.0024(12) -0.0068(11)
C8 0.0395(14) 0.0304(15) 0.0679(19) -0.0010(13) 0.0011(13) -0.0047(11)
C9 0.0457(17) 0.0448(19) 0.0610(18) 0.0012(15) 0.0007(14) -0.0170(14)
C10 0.0393(14) 0.0374(15) 0.0383(15) -0.0049(12) 0.0053(11) -0.0042(11)
C11 0.0525(16) 0.0443(17) 0.0424(15) -0.0080(13) 0.0106(12) -0.0111(13)
C12 0.0444(15) 0.0294(14) 0.0373(14) -0.0054(11) -0.0019(11) -0.0048(11)
C13 0.0625(18) 0.0304(15) 0.0360(14) 0.0003(12) 0.0004(12) -0.0058(12)
C14 0.0594(17) 0.0351(15) 0.0310(14) -0.0023(12) -0.0025(11) -0.0038(12)
C15 0.0488(15) 0.0281(14) 0.0381(14) -0.0028(11) -0.0050(12) -0.0027(11)
C16 0.076(2) 0.0325(15) 0.0416(16) 0.0020(13) 0.0008(14) -0.0144(13)
C17 0.076(2) 0.0419(17) 0.0303(14) -0.0019(13) -0.0020(13) -0.0115(15)
C18 0.0510(16) 0.0298(15) 0.0458(16) -0.0052(13) -0.0039(12) -0.0025(12)
O1 0.0639(16) 0.0368(15) 0.166(3) -0.0149(16) 0.0227(16) -0.0184(11)
O2 0.0405(10) 0.0440(12) 0.0581(13) -0.0003(9) 0.0043(8) -0.0174(9)
O3 0.0584(11) 0.0338(11) 0.0423(11) -0.0102(9) -0.0045(8) -0.0057(8)
O4 0.142(2) 0.0303(12) 0.0585(15) 0.0006(11) -0.0090(14) -0.0189(13)
Zn1A 0.02867 0.0227 0.03449 0.00053 0.0013 -0.00044
Zn1C 0.02867 0.0227 0.03449 -0.00053 0.0013 0.00044
O2C 0.0405 0.044 0.0581 -0.0003 -0.0043 0.0174
O3A 0.0584 0.0338 0.0423 0.0102 0.0045 -0.0057
loop_
_geom_bond_atom_site_label_1
_geom_bond_atom_site_label_2
_geom_bond_site_symmetry_1
_geom_bond_site_symmetry_2
Zn1 N1 1_555 1_555
N1 N2 1_555 1_555
N2 C2 1_555 1_555
N3 C1 1_555 1_555
N4 Zn1 1_555 1_555
N5 N4 1_555 1_555
N6 C10 1_555 1_555
C1 N1 1_555 1_555
H1 C1 1_555 1_555
C2 N3 1_555 1_555
H2 C2 1_555 1_555
C3 N3 1_555 1_555
C4 C3 1_555 1_555
H3 C4 1_555 1_555
C5 C4 1_555 1_555
H4 C5 1_555 1_555
C6 C5 1_555 1_555
C7 C6 1_555 1_555
H5 C7 1_555 1_555
C8 C3 1_555 1_555
H6 C8 1_555 1_555
C9 C6 1_555 1_555
C10 N4 1_555 1_555
H7 C10 1_555 1_555
C11 N5 1_555 1_555
H8 C11 1_555 1_555
C12 N6 1_555 1_555
C13 C12 1_555 1_555
H9 C13 1_555 1_555
C14 C13 1_555 1_555
H10 C14 1_555 1_555
C15 C14 1_555 1_555
C16 C15 1_555 1_555
H11 C16 1_555 1_555
C17 C12 1_555 1_555
H12 C17 1_555 1_555
C18 C15 1_555 1_555
O1 C9 1_555 1_555
O2 C9 1_555 1_555
O3 C18 1_555 1_555
O4 C18 1_555 1_555
Zn1A O3 1_555 1_555
Zn1C O2 1_555 1_555
O2C Zn1 1_555 1_555
O3A Zn1 1_555 1_555
N6 C11 1_555 1_555
C7 C8 1_555 1_555
C16 C17 1_555 1_555

#END
