
#######################################################################
#
#                 Cambridge Crystallographic Data Centre
#                                CCDC 
#
#######################################################################
#
# If this CIF has been generated from an entry in the Cambridge 
# Structural Database, then it will include bibliographic, chemical, 
# crystal, experimental, refinement or atomic coordinate data resulting 
# from the CCDC's data processing and validation procedures.
#
#######################################################################

data_YEZKEV
_chemical_formula_moiety         '(C24 H20 Co1 Cr1 N4 O4)n'
_symmetry_cell_setting           rhombohedral
_symmetry_space_group_name_H-M   'R 3 2'
_symmetry_Int_Tables_number      155
_space_group_name_Hall           'R 3 2"'
loop_
_symmetry_equiv_pos_site_id
_symmetry_equiv_pos_as_xyz
1 x,y,z
2 -y,x-y,z
3 -x+y,-x,z
4 x-y,-y,-z
5 -x,-x+y,-z
6 y,x,-z
7 2/3+x,1/3+y,1/3+z
8 2/3-y,1/3+x-y,1/3+z
9 2/3-x+y,1/3-x,1/3+z
10 2/3+x-y,1/3-y,1/3-z
11 2/3-x,1/3-x+y,1/3-z
12 2/3+y,1/3+x,1/3-z
13 1/3+x,2/3+y,2/3+z
14 1/3-y,2/3+x-y,2/3+z
15 1/3-x+y,2/3-x,2/3+z
16 1/3+x-y,2/3-y,2/3-z
17 1/3-x,2/3-x+y,2/3-z
18 1/3+y,2/3+x,2/3-z
_cell_length_a                   21.4198(8)
_cell_length_b                   21.4198(8)
_cell_length_c                   17.4178(8)
_cell_angle_alpha                90
_cell_angle_beta                 90
_cell_angle_gamma                120
_cell_volume                     6920.78
loop_
_atom_site_label
_atom_site_type_symbol
_atom_site_fract_x
_atom_site_fract_y
_atom_site_fract_z
_atom_site_U_iso_or_equiv
_atom_site_thermal_displace_type
Co1 Co 0.71526(4) 0.6667 0.6667 0.0397 Uani
Cr1 Cr 0.6667 0.54637(5) 0.8333 0.0469 Uani
O1 O 0.68300(19) 0.59876(19) 0.75858(14) 0.0523 Uani
N1 N 0.1530(2) 0.3984(2) 0.38708(19) 0.0482 Uani
O2 O 0.5974(2) 0.4679(2) 0.8156(3) 0.0851 Uani
N2 N 0.60647(19) 0.6035(2) 0.62040(16) 0.0421 Uani
C1 C 0.3894(3) 0.4945(3) 0.5406(3) 0.0589 Uani
H1 H 0.3594 0.4484 0.5612 0.0710 Uiso
C2 C 0.2423(3) 0.4043(3) 0.4721(3) 0.0637 Uani
H2 H 0.2563 0.3801 0.5068 0.0770 Uiso
C3 C 0.2613(3) 0.5082(4) 0.4070(3) 0.0723 Uani
H3 H 0.2883 0.5580 0.3973 0.0860 Uiso
C4 C 0.2884(3) 0.4766(3) 0.4564(3) 0.0556 Uani
C5 C 0.4879(3) 0.5010(3) 0.6205(2) 0.0523 Uani
H4 H 0.4565 0.4544 0.6391 0.0630 Uiso
C6 C 0.5588(2) 0.5385(3) 0.6446(2) 0.0458 Uani
H5 H 0.5741 0.5162 0.6806 0.0550 Uiso
C7 C 0.1957(3) 0.4677(3) 0.3724(3) 0.0594 Uani
H6 H 0.1803 0.4901 0.3367 0.0710 Uiso
C8 C 0.4633(3) 0.5332(3) 0.5683(2) 0.0536 Uani
C9 C 0.3604(3) 0.5175(3) 0.4897(3) 0.0606 Uani
H7 H 0.3890 0.5654 0.4730 0.0730 Uiso
C10 C 0.1766(3) 0.3683(3) 0.4372(3) 0.0599 Uani
H8 H 0.1464 0.3194 0.4493 0.0720 Uiso
C11 C 0.5135(3) 0.6041(3) 0.5440(3) 0.0503 Uani
H9 H 0.4992 0.6291 0.5105 0.0600 Uiso
C12 C 0.5848(3) 0.6365(3) 0.5705(2) 0.0491 Uani
H10 H 0.6184 0.6827 0.5528 0.0590 Uiso
O1I O 0.75091(27) 0.73457(19) 0.57475(14) 0.0523 Uani
N1I N 0.4213(3) 0.9349(2) 0.94625(19) 0.0482 Uani
N2I N 0.66964(28) 0.7298(2) 0.71293(16) 0.0421 Uani
C1I C 0.5616(4) 0.8388(3) 0.7927(3) 0.0589 Uani
H1I H 0.5777 0.8849 0.7721 0.0710 Uiso
C2I C 0.5047(4) 0.9290(3) 0.8612(3) 0.0637 Uani
H2I H 0.5429 0.9532 0.8265 0.0770 Uiso
C3I C 0.4198(5) 0.8251(4) 0.9263(3) 0.0723 Uani
H3I H 0.3970 0.7753 0.9360 0.0860 Uiso
C4I C 0.4785(4) 0.8567(3) 0.8769(3) 0.0556 Uani
C5I C 0.6536(4) 0.8323(3) 0.7128(2) 0.0523 Uani
H4I H 0.6688 0.8789 0.6942 0.0630 Uiso
C6I C 0.6870(4) 0.7948(3) 0.6887(2) 0.0458 Uani
H5I H 0.7246 0.8171 0.6527 0.0550 Uiso
C7I C 0.3947(4) 0.8656(3) 0.9609(3) 0.0594 Uani
H6I H 0.3569 0.8432 0.9966 0.0710 Uiso
C8I C 0.5968(4) 0.8001(3) 0.7650(2) 0.0536 Uani
C9I C 0.5096(4) 0.8158(3) 0.8436(3) 0.0606 Uani
H7I H 0.4903 0.7679 0.8603 0.0730 Uiso
C10I C 0.4750(4) 0.9650(3) 0.8961(3) 0.0599 Uani
H8I H 0.4937 1.0139 0.8840 0.0720 Uiso
C11I C 0.5761(4) 0.7292(3) 0.7893(3) 0.0503 Uani
H9I H 0.5368 0.7042 0.8228 0.0600 Uiso
C12I C 0.6150(4) 0.6968(3) 0.7628(2) 0.0491 Uani
H10I H 0.6024 0.6506 0.7805 0.0590 Uiso
O2P O 0.7359(2) 0.5372(3) 0.8511(3) 0.0851 Uani
Co1C Co 0.04856(4) 0.3333 0.3333 0.0397 Uani
Co1F Co 0.38193(4) 1.0000 1.0000 0.0397 Uani
Cr1I Cr 0.78700(5) 0.78696(5) 0.5000 0.0469 Uani
O1P O 0.65033(19) 0.58243(27) 0.90809(14) 0.0523 Uani
N1C N 0.7546(3) 0.6016(2) 0.61292(19) 0.0482 Uani
N1F N 0.8197(2) 0.7317(2) 0.72041(19) 0.0482 Uani
loop_
_atom_site_aniso_label
_atom_site_aniso_U_11
_atom_site_aniso_U_22
_atom_site_aniso_U_33
_atom_site_aniso_U_23
_atom_site_aniso_U_13
_atom_site_aniso_U_12
Co1 0.0369(4) 0.0669(7) 0.0253(4) -0.0068(4) -0.0034(2) 0.0335(3)
Cr1 0.0533(7) 0.0509(5) 0.0374(5) -0.0053(2) -0.0106(5) 0.0267(4)
O1 0.054(2) 0.090(2) 0.0262(12) -0.0036(13) -0.0015(13) 0.046(2)
N1 0.043(2) 0.073(3) 0.0352(17) -0.0101(18) -0.0072(16) 0.034(2)
O2 0.087(3) 0.048(2) 0.106(3) -0.030(2) -0.028(3) 0.023(2)
N2 0.038(2) 0.072(3) 0.0275(14) -0.0088(15) -0.0056(14) 0.036(2)
C1 0.043(3) 0.077(4) 0.054(3) -0.002(3) -0.009(2) 0.028(3)
C2 0.052(3) 0.082(4) 0.063(3) 0.008(3) -0.020(3) 0.038(3)
C3 0.058(3) 0.078(4) 0.077(3) -0.001(3) -0.032(3) 0.031(3)
C4 0.044(3) 0.066(3) 0.060(3) -0.004(2) -0.021(2) 0.030(3)
C5 0.041(3) 0.067(3) 0.045(2) 0.003(2) -0.007(2) 0.024(2)
C6 0.042(3) 0.065(3) 0.036(2) -0.001(2) -0.0071(18) 0.031(2)
C7 0.054(3) 0.074(4) 0.057(3) -0.007(3) -0.021(2) 0.037(3)
C8 0.047(3) 0.071(4) 0.046(2) -0.012(2) -0.016(2) 0.032(3)
C9 0.048(3) 0.068(3) 0.067(3) -0.007(3) -0.027(3) 0.030(3)
C10 0.049(3) 0.075(4) 0.057(3) 0.001(3) -0.021(2) 0.032(3)
C11 0.040(3) 0.072(3) 0.043(2) 0.002(2) -0.009(2) 0.031(3)
C12 0.041(3) 0.073(3) 0.038(2) 0.001(2) -0.003(2) 0.032(2)
O1I 0.052 0.09 0.0262 -0.0036 -0.0021 0.044
N1I 0.048 0.073 0.0352 -0.0101 -0.0029 0.039
N2I 0.038 0.072 0.0275 -0.0088 -0.0032 0.036
C1I 0.064 0.077 0.054 -0.002 0.007 0.049
C2I 0.058 0.082 0.063 0.008 0.028 0.044
C3I 0.074 0.078 0.077 -0.001 0.031 0.047
C4I 0.05 0.066 0.06 -0.004 0.017 0.036
C5I 0.06 0.067 0.045 0.003 0.01 0.043
C6I 0.045 0.065 0.036 -0.001 0.0061 0.034
C7I 0.054 0.074 0.057 -0.007 0.014 0.037
C8I 0.054 0.071 0.046 -0.012 0.004 0.039
C9I 0.056 0.068 0.067 -0.007 0.02 0.038
C10I 0.06 0.075 0.057 0.001 0.022 0.043
C11I 0.05 0.072 0.043 0.002 0.011 0.041
C12I 0.05 0.073 0.038 0.001 0.004 0.041
O2P 0.087 0.089 0.106 0.002 -0.028 0.064
Co1C 0.0368 0.0669 0.0253 -0.0068 -0.0034 0.0334
Co1F 0.0369 0.0669 0.0253 -0.0068 -0.0034 0.0335
Cr1I 0.0508 0.0509 0.0374 -0.0053 0.0053 0.0242
O1P 0.054 0.052 0.0262 0.0021 -0.0015 0.008
N1C 0.048 0.073 0.0352 -0.0101 -0.0029 0.039
N1F 0.043 0.073 0.0352 -0.0101 -0.0072 0.034
loop_
_geom_bond_atom_site_label_1
_geom_bond_atom_site_label_2
_geom_bond_site_symmetry_1
_geom_bond_site_symmetry_2
Co1 O1 1_555 1_555
Cr1 O1 1_555 1_555
N1 C7 1_555 1_555
O2 Cr1 1_555 1_555
N2 Co1 1_555 1_555
C1 H1 1_555 1_555
C2 H2 1_555 1_555
C3 H3 1_555 1_555
C4 C2 1_555 1_555
C5 H4 1_555 1_555
C6 N2 1_555 1_555
H5 C6 1_555 1_555
C7 C3 1_555 1_555
H6 C7 1_555 1_555
C8 C1 1_555 1_555
C9 C1 1_555 1_555
H7 C9 1_555 1_555
C10 N1 1_555 1_555
H8 C10 1_555 1_555
C11 C8 1_555 1_555
H9 C11 1_555 1_555
C12 N2 1_555 1_555
H10 C12 1_555 1_555
O1I Co1 1_555 1_555
N1I C7I 1_555 1_555
N2I Co1 1_555 1_555
C1I H1I 1_555 1_555
C2I H2I 1_555 1_555
C3I H3I 1_555 1_555
C4I C2I 1_555 1_555
C5I H4I 1_555 1_555
C6I N2I 1_555 1_555
H5I C6I 1_555 1_555
C7I C3I 1_555 1_555
H6I C7I 1_555 1_555
C8I C1I 1_555 1_555
C9I C1I 1_555 1_555
H7I C9I 1_555 1_555
C10I N1I 1_555 1_555
H8I C10I 1_555 1_555
C11I C8I 1_555 1_555
H9I C11I 1_555 1_555
C12I N2I 1_555 1_555
H10I C12I 1_555 1_555
O2P Cr1 1_555 1_555
Co1C N1 1_555 1_555
Co1F N1I 1_555 1_555
Cr1I O1I 1_555 1_555
O1P Cr1 1_555 1_555
N1C Co1 1_555 1_555
N1F Co1 1_555 1_555
C2 C10 1_555 1_555
C3 C4 1_555 1_555
C4 C9 1_555 1_555
C5 C6 1_555 1_555
C5 C8 1_555 1_555
C11 C12 1_555 1_555
C2I C10I 1_555 1_555
C3I C4I 1_555 1_555
C4I C9I 1_555 1_555
C5I C6I 1_555 1_555
C5I C8I 1_555 1_555
C11I C12I 1_555 1_555

#END
