
#######################################################################
#
#                 Cambridge Crystallographic Data Centre
#                                CCDC 
#
#######################################################################
#
# If this CIF has been generated from an entry in the Cambridge 
# Structural Database, then it will include bibliographic, chemical, 
# crystal, experimental, refinement or atomic coordinate data resulting 
# from the CCDC's data processing and validation procedures.
#
#######################################################################

data_EFIMOV
_chemical_formula_moiety         '(C9 H32 Be6 N4 Na2 O25 P6 4-)n'
_symmetry_cell_setting           trigonal
_symmetry_space_group_name_H-M   'P -3 1 c'
_symmetry_Int_Tables_number      163
_space_group_name_Hall           '-P 3 2c'
loop_
_symmetry_equiv_pos_site_id
_symmetry_equiv_pos_as_xyz
1 x,y,z
2 -y,x-y,z
3 -y,-x,1/2-z
4 -x+y,-x,z
5 x,x-y,1/2-z
6 -x+y,y,1/2-z
7 -x,-y,-z
8 y,-x+y,-z
9 y,x,1/2+z
10 x-y,x,-z
11 -x,-x+y,1/2+z
12 x-y,-y,1/2+z
_cell_length_a                   13.056(8)
_cell_length_b                   13.056(8)
_cell_length_c                   9.485(6)
_cell_angle_alpha                90
_cell_angle_beta                 90
_cell_angle_gamma                120
_cell_volume                     1400.19
loop_
_atom_site_label
_atom_site_type_symbol
_atom_site_fract_x
_atom_site_fract_y
_atom_site_fract_z
Na2 Na 0.6667 1.3333 0.0811(4)
O1 O 0.8350(4) 1.41748(19) 0.2500
H1 H 0.8732 1.4274 0.1764
H1D H 0.8732 1.4458 0.3236
N1 N 1.0000 1.0000 -0.2500
N2 N 0.6730(5) 0.8365(3) -0.2500
H2 H 0.6468 0.8046 -0.3346
H3 H 0.6468 0.8860 -0.2301
H4 H 0.6468 0.7796 -0.1853
C1 C 0.8731(8) 0.9546(12) -0.1648(14)
H5 H 0.8678 1.0224 -0.1369
H6 H 0.8678 0.9095 -0.0824
C2 C 0.7969(7) 0.8984(3) -0.2500
C1D C 0.8731(8) 0.9185(14) -0.3352(14)
C1A C 1.0454(12) 0.9185(14) -0.1648(14)
C1E C 1.0815(14) 0.9546(12) -0.3352(14)
C1B C 1.0454(12) 1.1269(8) -0.3352(14)
C1C C 1.0815(14) 1.1269(8) -0.1648(14)
H5C H 1.1546 1.1322 -0.1369
H6C H 1.0417 1.1322 -0.0824
C2C C 1.1015(8) 1.2031(7) -0.2500
N2C N 1.1635(6) 1.3270(5) -0.2500
H2C H 1.1578 1.3532 -0.3346
H3B H 1.1140 1.3532 -0.2699
H2B H 1.1954 1.3532 -0.1654
H3C H 1.2392 1.3532 -0.2301
H4C H 1.1328 1.3532 -0.1853
H4B H 1.2204 1.3532 -0.3147
H5B H 0.9776 1.1322 -0.3631
H6B H 1.0905 1.1322 -0.4176
H5E H 1.1546 1.0224 -0.3631
H6E H 1.0417 0.9095 -0.4176
C2E C 1.1015(8) 0.8984(3) -0.2500
N2E N 1.1635(6) 0.8365(3) -0.2500
H2E H 1.1578 0.8046 -0.1654
H3A H 1.1140 0.7608 -0.2301
H2A H 1.1954 0.8422 -0.3346
H3E H 1.2392 0.8860 -0.2699
H4E H 1.1328 0.7796 -0.3147
H4A H 1.2204 0.8672 -0.1853
H5A H 0.9776 0.8454 -0.1369
H6A H 1.0905 0.9583 -0.0824
H5D H 0.8678 0.8454 -0.3631
H6D H 0.8678 0.9583 -0.4176
H3D H 0.6468 0.7608 -0.2699
H2D H 0.6468 0.8422 -0.1654
H4D H 0.6468 0.8672 -0.3147
P1 P 0.55655(8) 0.88758(8) 0.08991(12)
O2 O 0.6177(2) 0.9921(2) -0.0078(3)
O3 O 0.5853(2) 0.7933(2) 0.0403(3)
O4 O 0.4208(2) 0.8312(2) 0.0831(3)
O5 O 0.5991(2) 0.9268(3) 0.2392(3)
Be1 Be 0.6634(4) 1.1083(4) -0.0993(6)
P1G P 0.88758(8) 1.33103(11) -0.08991(12)
O2G O 0.9921(2) 1.3744(3) 0.0078(3)
O3G O 0.7933(2) 1.2080(3) -0.0403(3)
O4G O 0.8312(2) 1.4104(3) -0.0831(3)
O5G O 0.9268(3) 1.3277(4) -0.2392(3)
P1F P 0.44345(8) 1.11242(8) -0.08991(12)
O2F O 0.3823(2) 1.0079(2) 0.0078(3)
O3F O 0.4147(2) 1.2067(2) -0.0403(3)
O4F O 0.5792(2) 1.1688(2) -0.0831(3)
O5F O 0.4009(2) 1.0732(3) -0.2392(3)
P1K P 0.66897(11) 1.11242(8) -0.41009(12)
O2K O 0.6256(3) 1.0079(2) -0.5078(3)
O3K O 0.7920(3) 1.2067(2) -0.4597(3)
O4K O 0.5896(3) 1.1688(2) -0.4169(3)
O5K O 0.6723(4) 1.0732(3) -0.2608(3)
Be1G Be 1.1083(4) 1.4449(6) 0.0993(6)
Be1F Be 0.3366(4) 0.8917(4) 0.0993(6)
Be1K Be 0.5551(6) 0.8917(4) -0.5993(6)
Be1I Be 0.5551(6) 0.6634(4) 0.0993(6)
Be1C Be 0.4449(6) 1.3366(4) -0.0993(6)
P1C P 1.33103(11) 1.44345(8) 0.08991(12)
O2C O 1.3744(3) 1.3823(2) -0.0078(3)
O3C O 1.2080(3) 1.4147(2) 0.0403(3)
O4C O 1.4104(3) 1.5792(2) 0.0831(3)
O5C O 1.3277(4) 1.4009(2) 0.2392(3)
P1A P 1.11242(8) 1.66897(11) 0.08991(12)
O2A O 1.0079(2) 1.6256(3) -0.0078(3)
O3A O 1.2067(2) 1.7920(3) 0.0403(3)
O4A O 1.1688(2) 1.5896(3) 0.0831(3)
O5A O 1.0732(3) 1.6723(4) 0.2392(3)
Be1K_2 Be 0.5551(6) 0.8917(4) 0.4007(6)
Be1A Be 0.8917(4) 1.5551(6) -0.0993(6)
Be1B Be 0.8917(4) 1.3366(4) -0.4007(6)
Be1E Be 0.4449(6) 1.1083(4) -0.4007(6)
O5B O 1.0732(3) 1.4009(2) 0.2608(3)
O3A_2 O 0.2067(2) 0.7920(3) 0.0403(3)
O5E O 0.3277(4) 0.9268(3) 0.2608(3)
O3D O 0.5853(2) 0.7920(3) -0.5403(3)
O4E O 0.4104(3) 0.8312(2) -0.5831(3)
O5_2 O 0.5991(2) 0.9268(3) -0.7608(3)
O2I O 0.6256(3) 0.6177(2) 0.0078(3)
O4C_2 O 0.4104(3) 0.5792(2) 0.0831(3)
O5D O 0.5991(2) 0.6723(4) 0.2608(3)
O2C_2 O 0.3744(3) 1.3823(2) -0.0078(3)
O4I O 0.5896(3) 1.4208(2) -0.0831(3)
O5J O 0.4009(2) 1.3277(4) -0.2608(3)
Be1C_2 Be 1.4449(6) 1.3366(4) -0.0993(6)
Be1I_2 Be 1.5551(6) 1.6634(4) 0.0993(6)
Be1J Be 1.3366(4) 1.4449(6) 0.4007(6)
Be1F_2 Be 1.3366(4) 1.8917(4) 0.0993(6)
Be1H Be 1.1083(4) 1.6634(4) 0.4007(6)
Na1 Na 0.3333 0.6667 0.2500
loop_
_geom_bond_atom_site_label_1
_geom_bond_atom_site_label_2
_geom_bond_site_symmetry_1
_geom_bond_site_symmetry_2
O1 H1 1_555 1_555
N1 C1 1_555 1_555
N2 H2 1_555 1_555
H2 H3D 1_555 1_555
H3 N2 1_555 1_555
H4 N2 1_555 1_555
C1 H5 1_555 1_555
H6 C1 1_555 1_555
C2 N2 1_555 1_555
P1 O2 1_555 1_555
O2 Be1 1_555 1_555
O3 P1 1_555 1_555
O4 P1 1_555 1_555
O5 P1 1_555 1_555
Be1 O3G 1_555 1_555
H1D O1 1_555 1_555
C1D N1 1_555 1_555
C1A N1 1_555 1_555
C1E N1 1_555 1_555
C1B N1 1_555 1_555
C1C N1 1_555 1_555
H5C C1C 1_555 1_555
H6C C1C 1_555 1_555
C2C C1B 1_555 1_555
N2C C2C 1_555 1_555
H2C N2C 1_555 1_555
H3B N2C 1_555 1_555
H2B N2C 1_555 1_555
H3C N2C 1_555 1_555
H4C N2C 1_555 1_555
H4B N2C 1_555 1_555
H5B C1B 1_555 1_555
H6B C1B 1_555 1_555
H5E C1E 1_555 1_555
H6E C1E 1_555 1_555
C2E C1A 1_555 1_555
N2E C2E 1_555 1_555
H2E N2E 1_555 1_555
H3A N2E 1_555 1_555
H2A N2E 1_555 1_555
H3E N2E 1_555 1_555
H4E N2E 1_555 1_555
H4A N2E 1_555 1_555
H5A C1A 1_555 1_555
H6A C1A 1_555 1_555
H5D C1D 1_555 1_555
H6D C1D 1_555 1_555
H3D N2 1_555 1_555
H2D N2 1_555 1_555
H4D N2 1_555 1_555
P1G O2G 1_555 1_555
O2G Be1G 1_555 1_555
O3G P1G 1_555 1_555
O4G P1G 1_555 1_555
O5G P1G 1_555 1_555
P1F O2F 1_555 1_555
O2F Be1F 1_555 1_555
O3F P1F 1_555 1_555
O4F Be1 1_555 1_555
O5F P1F 1_555 1_555
P1K O2K 1_555 1_555
O2K Be1K 1_555 1_555
O3K P1K 1_555 1_555
O4K P1K 1_555 1_555
O5K Be1 1_555 1_555
Be1G O3C 1_555 1_555
Be1F O4 1_555 1_555
Be1K O3D 1_555 1_555
Be1I O3 1_555 1_555
Be1C O3F 1_555 1_555
P1C O2C 1_555 1_555
O2C Be1C_2 1_555 1_555
O3C P1C 1_555 1_555
O4C P1C 1_555 1_555
O5C P1C 1_555 1_555
P1A O2A 1_555 1_555
O2A Be1A 1_555 1_555
O3A P1A 1_555 1_555
O4A Be1G 1_555 1_555
O5A P1A 1_555 1_555
Be1K_2 O5 1_555 1_555
Be1A O4G 1_555 1_555
Be1B O5G 1_555 1_555
Be1E O5F 1_555 1_555
O5B Be1G 1_555 1_555
O3A_2 Be1F 1_555 1_555
O5E Be1F 1_555 1_555
O4E Be1K 1_555 1_555
O5_2 Be1K 1_555 1_555
O2I Be1I 1_555 1_555
O4C_2 Be1I 1_555 1_555
O5D Be1I 1_555 1_555
O2C_2 Be1C 1_555 1_555
O4I Be1C 1_555 1_555
O5J Be1C 1_555 1_555
Be1I_2 O4C 1_555 1_555
Be1J O5C 1_555 1_555
Be1F_2 O3A 1_555 1_555
Be1H O5A 1_555 1_555
H2 H4D 1_555 1_555
H3 H2D 1_555 1_555
H3 H4D 1_555 1_555
H4 H3D 1_555 1_555
H4 H2D 1_555 1_555
C1 C2 1_555 1_555
C1 C1D 1_555 1_555
C2 C1D 1_555 1_555
C1A C1E 1_555 1_555
C1E C2E 1_555 1_555
C1B C1C 1_555 1_555
C1C C2C 1_555 1_555
H2C H3B 1_555 1_555
H2C H4B 1_555 1_555
H3B H4C 1_555 1_555
H2B H3C 1_555 1_555
H2B H4C 1_555 1_555
H3C H4B 1_555 1_555
H2E H3A 1_555 1_555
H2E H4A 1_555 1_555
H3A H4E 1_555 1_555
H2A H3E 1_555 1_555
H2A H4E 1_555 1_555
H3E H4A 1_555 1_555
P1F O4F 1_555 1_555
P1K O5K 1_555 1_555
O3K Be1B 1_555 1_555
O4K Be1E 1_555 1_555
P1A O4A 1_555 1_555

#END
