
#######################################################################
#
#                 Cambridge Crystallographic Data Centre
#                                CCDC 
#
#######################################################################
#
# If this CIF has been generated from an entry in the Cambridge 
# Structural Database, then it will include bibliographic, chemical, 
# crystal, experimental, refinement or atomic coordinate data resulting 
# from the CCDC's data processing and validation procedures.
#
#######################################################################

data_KAFTUJ
_chemical_formula_moiety         '(C48 H36 N4 O12 Zn3)n'
_symmetry_cell_setting           rhombohedral
_symmetry_space_group_name_H-M   'R -3 c'
_symmetry_Int_Tables_number      167
_space_group_name_Hall           '-R 3 2"c'
loop_
_symmetry_equiv_pos_site_id
_symmetry_equiv_pos_as_xyz
1 x,y,z
2 -y,x-y,z
3 -x+y,-x,z
4 y,x,1/2-z
5 x-y,-y,1/2-z
6 -x,-x+y,1/2-z
7 2/3+x,1/3+y,1/3+z
8 2/3-y,1/3+x-y,1/3+z
9 2/3-x+y,1/3-x,1/3+z
10 2/3+y,1/3+x,5/6-z
11 2/3+x-y,1/3-y,5/6-z
12 2/3-x,1/3-x+y,5/6-z
13 1/3+x,2/3+y,2/3+z
14 1/3-y,2/3+x-y,2/3+z
15 1/3-x+y,2/3-x,2/3+z
16 1/3+y,2/3+x,1/6-z
17 1/3+x-y,2/3-y,1/6-z
18 1/3-x,2/3-x+y,1/6-z
19 -x,-y,-z
20 y,-x+y,-z
21 x-y,x,-z
22 -y,-x,1/2+z
23 -x+y,y,1/2+z
24 x,x-y,1/2+z
25 1/3-x,2/3-y,2/3-z
26 1/3+y,2/3-x+y,2/3-z
27 1/3+x-y,2/3+x,2/3-z
28 1/3-y,2/3-x,1/6+z
29 1/3-x+y,2/3+y,1/6+z
30 1/3+x,2/3+x-y,1/6+z
31 2/3-x,1/3-y,1/3-z
32 2/3+y,1/3-x+y,1/3-z
33 2/3+x-y,1/3+x,1/3-z
34 2/3-y,1/3-x,5/6+z
35 2/3-x+y,1/3+y,5/6+z
36 2/3+x,1/3+x-y,5/6+z
_cell_length_a                   44.6954(9)
_cell_length_b                   44.6954(9)
_cell_length_c                   26.7782(19)
_cell_angle_alpha                90
_cell_angle_beta                 90
_cell_angle_gamma                120
_cell_volume                     46327.4
loop_
_atom_site_label
_atom_site_type_symbol
_atom_site_fract_x
_atom_site_fract_y
_atom_site_fract_z
Zn1 Zn 0.5000 0.5000 0.0000
O1 O 0.21730(11) 0.35682(16) 0.30989(19)
O2 O 0.47902(12) 0.51865(12) 0.44567(19)
O3 O 0.46316(12) 0.49199(12) 0.05223(17)
O4 O 0.48777(12) 0.56510(11) 0.40584(17)
C1 C 0.41758(17) 0.47505(18) 0.1107(3)
C2 C 0.39941(18) 0.4735(2) 0.2969(3)
C3 C 0.44592(17) 0.51212(16) 0.3737(3)
O5 O 0.41077(11) 0.47968(15) 0.0232(2)
C4 C 0.40106(17) 0.45810(19) 0.3401(3)
H1 H 0.3861 0.4345 0.3443
O6 O 0.22969(11) 0.31889(16) 0.2736(2)
C5 C 0.23630(15) 0.34839(23) 0.2900(2)
C6 C 0.4317(2) 0.48342(16) 0.0571(3)
N1 N 0.37770(15) 0.45343(17) 0.2579(2)
C7 C 0.28851(17) 0.40829(25) 0.3060(3)
H2 H 0.2748 0.4128 0.3272
C8 C 0.29481(15) 0.37037(25) 0.2507(3)
H3 H 0.2856 0.3489 0.2351
C9 C 0.42478(17) 0.46883(18) 0.1974(3)
H4 H 0.4392 0.4697 0.2231
C10 C 0.32234(18) 0.43320(27) 0.2989(3)
H5 H 0.3315 0.4540 0.3160
C11 C 0.38316(16) 0.4654(2) 0.1210(3)
H6 H 0.3684 0.4632 0.0950
C12 C 0.42434(17) 0.47640(18) 0.3782(3)
H7 H 0.4255 0.4649 0.4065
C13 C 0.39135(16) 0.46031(18) 0.2086(3)
C14 C 0.43744(16) 0.47604(18) 0.1502(3)
H8 H 0.4602 0.4818 0.1446
C15 C 0.27430(17) 0.37674(24) 0.2826(3)
C16 C 0.34296(16) 0.42745(19) 0.2665(3)
C17 C 0.44264(19) 0.52725(19) 0.3301(3)
H9 H 0.4561 0.5511 0.3267
C18 C 0.32982(18) 0.39588(27) 0.2413(3)
H10 H 0.3435 0.3918 0.2193
C19 C 0.47239(14) 0.53178(17) 0.4116(3)
C20 C 0.4207(2) 0.50887(19) 0.2919(3)
H11 H 0.4201 0.5200 0.2629
C21 C 0.37116(18) 0.4591(2) 0.1689(3)
H12 H 0.3486 0.4538 0.1750
Zn2 Zn 0.52450(2) 0.58380(2) 0.45505(3)
N2 N 0.54817(11) 0.63421(11) 0.4313(2)
C22 C 0.5639(3) 0.63853(18) 0.3824(3)
H13 H 0.5460 0.6258 0.3578
H14 H 0.5793 0.6291 0.3829
C23 C 0.5742(2) 0.65687(17) 0.4658(4)
H15 H 0.5916 0.6499 0.4687
H16 H 0.5638 0.6542 0.4984
C24 C 0.5236(2) 0.64778(17) 0.4278(4)
H17 H 0.5147 0.6480 0.4608
H18 H 0.5042 0.6327 0.4067
N2J N 0.58063(16) 0.69912(11) 0.4020(2)
C22J C 0.59204(35) 0.69480(18) 0.4509(3)
H13J H 0.5869 0.7075 0.4755
H14J H 0.6169 0.7042 0.4504
C23J C 0.58400(26) 0.67646(17) 0.3675(4)
H15J H 0.6084 0.6834 0.3646
H16J H 0.5763 0.6791 0.3349
C24J C 0.54249(26) 0.68555(17) 0.4055(4)
H17J H 0.5334 0.6853 0.3725
H18J H 0.5382 0.7006 0.4266
O1C O 0.35682(16) 0.21730(11) 0.19011(19)
O2C O 0.51865(12) 0.47902(12) 0.05433(19)
O3C O 0.49199(12) 0.46316(12) 0.44777(17)
O4C O 0.56510(11) 0.48777(12) 0.09416(17)
C1C C 0.47505(18) 0.41758(17) 0.3893(3)
C2C C 0.4735(2) 0.39941(18) 0.2031(3)
C3C C 0.51212(16) 0.44592(17) 0.1263(3)
O5C O 0.47968(15) 0.41077(11) 0.4768(2)
C4C C 0.45810(19) 0.40106(17) 0.1599(3)
H1C H 0.4345 0.3861 0.1557
O6C O 0.31889(16) 0.22969(11) 0.2264(2)
C5C C 0.34839(23) 0.23630(15) 0.2100(2)
C6C C 0.48342(16) 0.4317(2) 0.4429(3)
N1C N 0.45343(17) 0.37770(15) 0.2421(2)
C7C C 0.40829(25) 0.28851(17) 0.1940(3)
H2C H 0.4128 0.2748 0.1728
C8C C 0.37037(25) 0.29481(15) 0.2493(3)
H3C H 0.3489 0.2856 0.2649
C9C C 0.46883(18) 0.42478(17) 0.3026(3)
H4C H 0.4697 0.4392 0.2769
C10C C 0.43320(27) 0.32234(18) 0.2011(3)
H5C H 0.4540 0.3315 0.1840
C11C C 0.4654(2) 0.38316(16) 0.3790(3)
H6C H 0.4632 0.3684 0.4050
C12C C 0.47640(18) 0.42434(17) 0.1218(3)
H7C H 0.4649 0.4255 0.0935
C13C C 0.46031(18) 0.39135(16) 0.2914(3)
C14C C 0.47604(18) 0.43744(16) 0.3498(3)
H8C H 0.4818 0.4602 0.3554
C15C C 0.37674(24) 0.27430(17) 0.2174(3)
C16C C 0.42745(19) 0.34296(16) 0.2335(3)
C17C C 0.52725(19) 0.44264(19) 0.1699(3)
H9C H 0.5511 0.4561 0.1733
C18C C 0.39588(27) 0.32982(18) 0.2587(3)
H10C H 0.3918 0.3435 0.2807
C19C C 0.53178(17) 0.47239(14) 0.0884(3)
C20C C 0.50887(19) 0.4207(2) 0.2081(3)
H11C H 0.5200 0.4201 0.2371
C21C C 0.4591(2) 0.37116(18) 0.3311(3)
H12C H 0.4538 0.3486 0.3250
Zn2C Zn 0.58380(2) 0.52450(2) 0.04495(3)
Zn1C Zn 0.5000 0.5000 0.5000
Zn1G Zn 0.1667 0.3333 0.3333
Zn1P Zn 0.3333 0.1667 0.1667
O1N O 0.47285(19) 0.44937(11) -0.02344(19)
O1FA O 0.52715(19) 0.55063(11) 0.02344(19)
O2U O 0.48135(12) 0.52098(12) -0.05433(19)
O3R O 0.53684(12) 0.50801(12) -0.05223(17)
O5R O 0.58923(11) 0.52032(15) -0.0232(2)
O5U O 0.52032(15) 0.58923(11) 0.5232(2)
O6FA O 0.57747(19) 0.56302(11) 0.0597(2)
O6CA O 0.56302(11) 0.57747(19) 0.4403(2)
Zn2J Zn 0.60737(3) 0.74953(2) 0.37828(3)
Zn2R Zn 0.47550(2) 0.41620(2) 0.54495(3)
Zn2U Zn 0.41620(2) 0.47550(2) -0.04495(3)
Zn2IA Zn 0.19117(2) 0.27403(3) 0.28838(3)
Zn2Z Zn 0.27403(3) 0.19117(2) 0.21162(3)
N2C N 0.63421(11) 0.54817(11) 0.0687(2)
loop_
_geom_bond_atom_site_label_1
_geom_bond_atom_site_label_2
_geom_bond_site_symmetry_1
_geom_bond_site_symmetry_2
Zn1 O3 1_555 1_555
O1 C5 1_555 1_555
O2 C19 1_555 1_555
O3 C6 1_555 1_555
O4 C19 1_555 1_555
C1 C6 1_555 1_555
C2 C4 1_555 1_555
C3 C12 1_555 1_555
O5 C6 1_555 1_555
C4 H1 1_555 1_555
O6 C5 1_555 1_555
C5 C15 1_555 1_555
N1 C2 1_555 1_555
C7 H2 1_555 1_555
C8 H3 1_555 1_555
C9 H4 1_555 1_555
C10 C7 1_555 1_555
H5 C10 1_555 1_555
C11 C1 1_555 1_555
H6 C11 1_555 1_555
C12 C4 1_555 1_555
H7 C12 1_555 1_555
C13 N1 1_555 1_555
C14 C1 1_555 1_555
H8 C14 1_555 1_555
C15 C7 1_555 1_555
C16 N1 1_555 1_555
C17 C3 1_555 1_555
H9 C17 1_555 1_555
C18 C8 1_555 1_555
H10 C18 1_555 1_555
C19 C3 1_555 1_555
C20 C2 1_555 1_555
H11 C20 1_555 1_555
C21 C11 1_555 1_555
H12 C21 1_555 1_555
Zn2 O4 1_555 1_555
N2 Zn2 1_555 1_555
C22 N2 1_555 1_555
H13 C22 1_555 1_555
H14 C22 1_555 1_555
C23 N2 1_555 1_555
H15 C23 1_555 1_555
H16 C23 1_555 1_555
C24 N2 1_555 1_555
H17 C24 1_555 1_555
H18 C24 1_555 1_555
N2J C22J 1_555 1_555
C22J C23 1_555 1_555
H13J C22J 1_555 1_555
H14J C22J 1_555 1_555
C23J C22 1_555 1_555
H15J C23J 1_555 1_555
H16J C23J 1_555 1_555
C24J C24 1_555 1_555
H17J C24J 1_555 1_555
H18J C24J 1_555 1_555
O1C C5C 1_555 1_555
O2C Zn1 1_555 1_555
O3C C6C 1_555 1_555
O4C C19C 1_555 1_555
C1C C6C 1_555 1_555
C2C C4C 1_555 1_555
C3C C12C 1_555 1_555
O5C C6C 1_555 1_555
C4C H1C 1_555 1_555
O6C C5C 1_555 1_555
C5C C15C 1_555 1_555
N1C C2C 1_555 1_555
C7C H2C 1_555 1_555
C8C H3C 1_555 1_555
C9C H4C 1_555 1_555
C10C C7C 1_555 1_555
H5C C10C 1_555 1_555
C11C C1C 1_555 1_555
H6C C11C 1_555 1_555
C12C C4C 1_555 1_555
H7C C12C 1_555 1_555
C13C N1C 1_555 1_555
C14C C1C 1_555 1_555
H8C C14C 1_555 1_555
C15C C7C 1_555 1_555
C16C N1C 1_555 1_555
C17C C3C 1_555 1_555
H9C C17C 1_555 1_555
C18C C8C 1_555 1_555
H10C C18C 1_555 1_555
C19C O2C 1_555 1_555
C20C C2C 1_555 1_555
H11C C20C 1_555 1_555
C21C C11C 1_555 1_555
H12C C21C 1_555 1_555
Zn2C O4C 1_555 1_555
Zn1C O2 1_555 1_555
Zn1G O1 1_555 1_555
Zn1P O1C 1_555 1_555
O1N Zn1 1_555 1_555
O1FA Zn1 1_555 1_555
O2U Zn1 1_555 1_555
O3R Zn1 1_555 1_555
O5R Zn2C 1_555 1_555
O5U Zn2 1_555 1_555
O6FA Zn2C 1_555 1_555
O6CA Zn2 1_555 1_555
Zn2J N2J 1_555 1_555
Zn2R O5C 1_555 1_555
Zn2U O5 1_555 1_555
Zn2IA O6 1_555 1_555
Zn2Z O6C 1_555 1_555
N2C Zn2C 1_555 1_555
C8 C15 1_555 1_555
C9 C13 1_555 1_555
C9 C14 1_555 1_555
C10 C16 1_555 1_555
C13 C21 1_555 1_555
C16 C18 1_555 1_555
C17 C20 1_555 1_555
N2J C23J 1_555 1_555
N2J C24J 1_555 1_555
O3C Zn1C 1_555 1_555
C3C C19C 1_555 1_555
C8C C15C 1_555 1_555
C9C C13C 1_555 1_555
C9C C14C 1_555 1_555
C10C C16C 1_555 1_555
C13C C21C 1_555 1_555
C16C C18C 1_555 1_555
C17C C20C 1_555 1_555

#END
