
#######################################################################
#
#                 Cambridge Crystallographic Data Centre
#                                CCDC 
#
#######################################################################
#
# If this CIF has been generated from an entry in the Cambridge 
# Structural Database, then it will include bibliographic, chemical, 
# crystal, experimental, refinement or atomic coordinate data resulting 
# from the CCDC's data processing and validation procedures.
#
#######################################################################

data_GAMFAE
_chemical_formula_moiety         '(C72 H48 Cu6 N18 O12)n'
_symmetry_cell_setting           tetragonal
_symmetry_space_group_name_H-M   'I -4'
_symmetry_Int_Tables_number      82
_space_group_name_Hall           'I -4'
loop_
_symmetry_equiv_pos_site_id
_symmetry_equiv_pos_as_xyz
1 x,y,z
2 y,-x,-z
3 -x,-y,z
4 -y,x,-z
5 1/2+x,1/2+y,1/2+z
6 1/2+y,1/2-x,1/2-z
7 1/2-x,1/2-y,1/2+z
8 1/2-y,1/2+x,1/2-z
_cell_length_a                   17.2079(3)
_cell_length_b                   17.2079(3)
_cell_length_c                   34.0361(10)
_cell_angle_alpha                90
_cell_angle_beta                 90
_cell_angle_gamma                90
_cell_volume                     10078.5
loop_
_atom_site_label
_atom_site_type_symbol
_atom_site_fract_x
_atom_site_fract_y
_atom_site_fract_z
Cu1 Cu 0.58804(10) 0.50646(8) 0.63375(4)
Cu2 Cu 0.58847(12) 0.50999(8) 0.72615(4)
Cu3 Cu 0.66598(11) 0.36259(7) 0.68144(5)
N1 N 0.5510(6) 0.5953(4) 0.7000(2)
N2 N 0.6664(7) 0.3622(5) 0.6267(3)
N3 N 0.6302(5) 0.4235(5) 0.6066(2)
C1 C 0.5334(7) 0.6681(6) 0.7120(3)
O1 O 0.3893(5) 0.7839(4) 0.6862(4)
N4 N 0.5216(5) 0.7981(4) 0.6787(3)
N5 N 0.5566(6) 0.5941(5) 0.6589(3)
O2 O 0.6501(4) 0.8106(3) 0.6693(3)
C2 C 0.5048(7) 0.9590(4) 0.6807(4)
O3 O 0.6546(5) 0.1534(6) 0.3241(3)
N6 N 0.8259(5) 0.1261(5) 0.2358(2)
C3 C 0.6363(7) 0.4071(7) 0.5687(3)
C4 C 0.5877(7) 0.8418(5) 0.6776(5)
N7 N 0.7837(7) 0.1684(6) 0.3367(3)
O4 O 0.5692(6) 0.2726(5) 0.5182(2)
N8 N 0.6902(7) 0.3050(7) 0.5261(3)
C5 C 0.7487(7) 0.2461(6) 0.2524(4)
H1 H 0.7614 0.2613 0.2260
H2 H 0.7636 0.2866 0.2702
H3 H 0.6937 0.2374 0.2543
N9 N 0.8601(6) 0.0643(5) 0.2540(3)
C6 C 0.7918(8) 0.1720(7) 0.2627(3)
C7 C 0.5289(8) 0.6900(6) 0.7526(3)
H4 H 0.5201 0.6446 0.7684
H5 H 0.4868 0.7259 0.7562
H6 H 0.5768 0.7141 0.7604
C8 C 0.6737(8) 0.3398(8) 0.5635(4)
C9 C 0.4382(7) 0.9136(5) 0.6814(5)
C10 C 0.7043(8) 0.1728(8) 0.3471(4)
C11 C 0.4439(7) 0.8256(5) 0.6816(5)
C12 C 0.5820(7) 0.9275(5) 0.6781(5)
C13 C 0.6899(10) 0.3118(8) 0.5983(4)
C14 C 0.7287(8) 0.2494(8) 0.4508(4)
C15 C 0.5306(6) 0.7144(4) 0.6785(4)
C16 C 0.7489(8) 0.2243(8) 0.4122(4)
C17 C 0.5439(7) 0.6678(6) 0.6465(3)
C18 C 0.3575(7) 1.0274(5) 0.6813(6)
H7 H 0.3086 1.0496 0.6845
C19 C 0.7642(11) 0.3105(13) 0.5152(5)
C20 C 0.6095(7) 0.4636(6) 0.5392(3)
H8 H 0.5607 0.4467 0.5284
H9 H 0.6472 0.4674 0.5185
H10 H 0.6030 0.5136 0.5513
C21 C 0.5421(8) 0.6866(6) 0.6026(3)
H11 H 0.5819 0.6575 0.5894
H12 H 0.5511 0.7412 0.5989
H13 H 0.4922 0.6730 0.5921
C22 C 0.7878(8) 0.2753(11) 0.4756(4)
C23 C 0.6112(8) 0.2035(9) 0.3998(4)
H14 H 0.5720 0.1879 0.3827
C24 C 0.8512(9) 0.0728(6) 0.2928(3)
C25 C 0.6886(8) 0.2006(8) 0.3880(4)
O5 O 0.9131(6) 0.1857(7) 0.3509(3)
O6 O 0.8183(7) 0.3387(12) 0.5347(4)
C26 C 0.3642(7) 0.9452(5) 0.6801(6)
H15 H 0.3205 0.9136 0.6785
C27 C 0.6519(8) 0.2492(8) 0.4640(4)
C28 C 0.8058(8) 0.1413(7) 0.2983(3)
C29 C 0.5922(8) 0.2307(8) 0.4387(4)
H16 H 0.5407 0.2357 0.4466
C30 C 0.8835(9) 0.0141(8) 0.3216(4)
H17 H 0.9305 0.0340 0.3330
H18 H 0.8943 -0.0337 0.3081
H19 H 0.8460 0.0048 0.3420
C31 C 0.8261(9) 0.2226(11) 0.4010(4)
C32 C 0.8453(9) 0.1892(9) 0.3611(4)
C33 C 0.6350(9) 0.2755(8) 0.5045(4)
C34 C 0.7338(11) 0.2384(9) 0.6113(4)
H20 H 0.7685 0.2512 0.6324
H21 H 0.7630 0.2183 0.5895
H22 H 0.6972 0.2000 0.6200
C35 C 0.8836(10) 0.2542(14) 0.4227(5)
H23 H 0.9329 0.2599 0.4119
C36 C 0.8688(9) 0.2794(14) 0.4628(6)
H24 H 0.9083 0.2969 0.4793
N1B N 0.4490(6) 1.4047(4) 0.7000(2)
C1B C 0.4666(7) 1.3319(6) 0.7120(3)
O1B O 0.6107(5) 1.2161(4) 0.6862(4)
N4B N 0.4784(5) 1.2019(4) 0.6787(3)
N5B N 0.4434(6) 1.4059(5) 0.6589(3)
O2B O 0.3499(4) 1.1894(3) 0.6693(3)
C2B C 0.4952(7) 1.0410(4) 0.6807(4)
C4B C 0.4123(7) 1.1582(5) 0.6776(5)
C7B C 0.4711(8) 1.3100(6) 0.7526(3)
H4B H 0.4799 1.3554 0.7684
H5B H 0.5132 1.2741 0.7562
H6B H 0.4232 1.2859 0.7604
C9B C 0.5618(7) 1.0864(5) 0.6814(5)
C11B C 0.5561(7) 1.1744(5) 0.6816(5)
C12B C 0.4180(7) 1.0725(5) 0.6781(5)
C15B C 0.4694(6) 1.2856(4) 0.6785(4)
C17B C 0.4561(7) 1.3322(6) 0.6465(3)
C18B C 0.6425(7) 0.9726(5) 0.6813(6)
H7B H 0.6914 0.9504 0.6845
C21B C 0.4579(8) 1.3134(6) 0.6026(3)
H11B H 0.4181 1.3425 0.5894
H12B H 0.4489 1.2588 0.5989
H13B H 0.5078 1.3270 0.5921
C26B C 0.6358(7) 1.0548(5) 0.6801(6)
H15B H 0.6795 1.0864 0.6785
Cu1B Cu 0.41196(10) 0.49354(8) 0.63375(4)
Cu3B Cu 0.33402(11) 0.63741(7) 0.68144(5)
N2B N 0.3336(7) 0.6378(5) 0.6267(3)
N3B N 0.3698(5) 0.5765(5) 0.6066(2)
O3B O 0.3454(5) 0.8466(6) 0.3241(3)
N6B N 0.1741(5) 0.8739(5) 0.2358(2)
C3B C 0.3637(7) 0.5929(7) 0.5687(3)
N7B N 0.2163(7) 0.8316(6) 0.3367(3)
O4B O 0.4308(6) 0.7274(5) 0.5182(2)
N8B N 0.3098(7) 0.6950(7) 0.5261(3)
C5B C 0.2513(7) 0.7539(6) 0.2524(4)
H1B H 0.2386 0.7387 0.2260
H2B H 0.2364 0.7134 0.2702
H3B H 0.3063 0.7626 0.2543
N9B N 0.1399(6) 0.9357(5) 0.2540(3)
C6B C 0.2082(8) 0.8280(7) 0.2627(3)
C8B C 0.3263(8) 0.6602(8) 0.5635(4)
C10B C 0.2957(8) 0.8272(8) 0.3471(4)
C13B C 0.3101(10) 0.6882(8) 0.5983(4)
C14B C 0.2713(8) 0.7506(8) 0.4508(4)
C16B C 0.2511(8) 0.7757(8) 0.4122(4)
C19B C 0.2358(11) 0.6895(13) 0.5152(5)
C20B C 0.3905(7) 0.5364(6) 0.5392(3)
H8B H 0.4393 0.5533 0.5284
H9B H 0.3528 0.5326 0.5185
H10B H 0.3970 0.4864 0.5513
C22B C 0.2122(8) 0.7247(11) 0.4756(4)
C23B C 0.3888(8) 0.7965(9) 0.3998(4)
H14B H 0.4280 0.8121 0.3827
C24B C 0.1488(9) 0.9272(6) 0.2928(3)
C25B C 0.3114(8) 0.7994(8) 0.3880(4)
O5B O 0.0869(6) 0.8143(7) 0.3509(3)
O6B O 0.1817(7) 0.6613(12) 0.5347(4)
C27B C 0.3481(8) 0.7508(8) 0.4640(4)
C28B C 0.1942(8) 0.8587(7) 0.2983(3)
C29B C 0.4078(8) 0.7693(8) 0.4387(4)
H16B H 0.4593 0.7643 0.4466
C30B C 0.1165(9) 0.9859(8) 0.3216(4)
H17B H 0.0695 0.9660 0.3330
H18B H 0.1057 1.0337 0.3081
H19B H 0.1540 0.9952 0.3420
C31B C 0.1739(9) 0.7774(11) 0.4010(4)
C32B C 0.1547(9) 0.8108(9) 0.3611(4)
C33B C 0.3650(9) 0.7245(8) 0.5045(4)
C34B C 0.2662(11) 0.7616(9) 0.6113(4)
H20B H 0.2315 0.7488 0.6324
H21B H 0.2370 0.7817 0.5895
H22B H 0.3028 0.8000 0.6200
C35B C 0.1164(10) 0.7458(14) 0.4227(5)
H23B H 0.0671 0.7401 0.4119
C36B C 0.1312(9) 0.7206(14) 0.4628(6)
H24B H 0.0917 0.7031 0.4793
Cu2F Cu 0.91153(12) -0.00999(8) 0.22615(4)
Cu1B_2 Cu 0.41196(10) 1.49354(8) 0.63375(4)
Cu2B Cu 0.41153(12) 1.49001(8) 0.72615(4)
Cu2D Cu 0.08847(12) 1.00999(8) 0.22615(4)
Cu3_2 Cu 0.66598(11) 1.36259(7) 0.68144(5)
Cu3D Cu 0.16598(11) 0.86259(7) 0.18144(5)
Cu3F Cu 0.83402(11) 0.13741(7) 0.18144(5)
N1F N 0.9490(6) -0.0953(4) 0.2000(2)
O1B_2 O 0.6107(5) 0.2161(4) 0.6862(4)
N5B_2 N 0.4434(6) 0.4059(5) 0.6589(3)
N6D N 0.3259(5) 0.6261(5) 0.7358(2)
N6F N 0.6741(5) 0.3739(5) 0.7358(2)
N9F N 0.6399(6) 0.4357(5) 0.7540(3)
loop_
_geom_bond_atom_site_label_1
_geom_bond_atom_site_label_2
_geom_bond_site_symmetry_1
_geom_bond_site_symmetry_2
Cu1 N3 1_555 1_555
Cu2 N1 1_555 1_555
Cu3 N2 1_555 1_555
N1 C1 1_555 1_555
N2 N3 1_555 1_555
N3 C3 1_555 1_555
C1 C7 1_555 1_555
O1 C11 1_555 1_555
N4 C4 1_555 1_555
N5 Cu1 1_555 1_555
O2 C4 1_555 1_555
C2 C9 1_555 1_555
O3 C10 1_555 1_555
N6 N9 1_555 1_555
C3 C8 1_555 1_555
C4 C12 1_555 1_555
N7 C10 1_555 1_555
O4 C33 1_555 1_555
N8 C8 1_555 1_555
C5 H1 1_555 1_555
H2 C5 1_555 1_555
H3 C5 1_555 1_555
N9 C24 1_555 1_555
C6 N6 1_555 1_555
C7 H4 1_555 1_555
H5 C7 1_555 1_555
H6 C7 1_555 1_555
C8 C13 1_555 1_555
C9 C11 1_555 1_555
C10 C25 1_555 1_555
C11 N4 1_555 1_555
C12 C2 1_555 1_555
C13 N2 1_555 1_555
C14 C16 1_555 1_555
C15 C1 1_555 1_555
C16 C25 1_555 1_555
C17 N5 1_555 1_555
C18 H7 1_555 1_555
C19 N8 1_555 1_555
C20 C3 1_555 1_555
H8 C20 1_555 1_555
H9 C20 1_555 1_555
H10 C20 1_555 1_555
C21 C17 1_555 1_555
H11 C21 1_555 1_555
H12 C21 1_555 1_555
H13 C21 1_555 1_555
C22 C14 1_555 1_555
C23 H14 1_555 1_555
C24 C28 1_555 1_555
C25 C23 1_555 1_555
O5 C32 1_555 1_555
O6 C19 1_555 1_555
C26 C9 1_555 1_555
H15 C26 1_555 1_555
C27 C14 1_555 1_555
C28 N7 1_555 1_555
C29 C23 1_555 1_555
H16 C29 1_555 1_555
C30 C24 1_555 1_555
H17 C30 1_555 1_555
H18 C30 1_555 1_555
H19 C30 1_555 1_555
C31 C16 1_555 1_555
C32 N7 1_555 1_555
C33 N8 1_555 1_555
C34 C13 1_555 1_555
H20 C34 1_555 1_555
H21 C34 1_555 1_555
H22 C34 1_555 1_555
C35 C31 1_555 1_555
H23 C35 1_555 1_555
C36 C22 1_555 1_555
H24 C36 1_555 1_555
N1B C1B 1_555 1_555
C1B C7B 1_555 1_555
O1B C11B 1_555 1_555
N4B C4B 1_555 1_555
N5B N1B 1_555 1_555
O2B C4B 1_555 1_555
C2B C2 1_555 1_555
C4B C12B 1_555 1_555
C7B H4B 1_555 1_555
H5B C7B 1_555 1_555
H6B C7B 1_555 1_555
C9B C2B 1_555 1_555
C11B N4B 1_555 1_555
C12B C18 1_555 1_555
C15B C1B 1_555 1_555
C17B N5B 1_555 1_555
C18B C12 1_555 1_555
H7B C18B 1_555 1_555
C21B C17B 1_555 1_555
H11B C21B 1_555 1_555
H12B C21B 1_555 1_555
H13B C21B 1_555 1_555
C26B C9B 1_555 1_555
H15B C26B 1_555 1_555
Cu1B N3B 1_555 1_555
Cu3B O1 1_555 1_555
N2B Cu3B 1_555 1_555
N3B N2B 1_555 1_555
O3B C10B 1_555 1_555
N6B N9B 1_555 1_555
C3B N3B 1_555 1_555
N7B C10B 1_555 1_555
O4B C33B 1_555 1_555
N8B C8B 1_555 1_555
C5B H1B 1_555 1_555
H2B C5B 1_555 1_555
H3B C5B 1_555 1_555
N9B C24B 1_555 1_555
C6B N6B 1_555 1_555
C8B C3B 1_555 1_555
C10B C25B 1_555 1_555
C13B N2B 1_555 1_555
C14B C16B 1_555 1_555
C16B C25B 1_555 1_555
C19B N8B 1_555 1_555
C20B C3B 1_555 1_555
H8B C20B 1_555 1_555
H9B C20B 1_555 1_555
H10B C20B 1_555 1_555
C22B C14B 1_555 1_555
C23B H14B 1_555 1_555
C24B C28B 1_555 1_555
C25B C23B 1_555 1_555
O5B C32B 1_555 1_555
O6B C19B 1_555 1_555
C27B C14B 1_555 1_555
C28B N7B 1_555 1_555
C29B C23B 1_555 1_555
H16B C29B 1_555 1_555
C30B C24B 1_555 1_555
H17B C30B 1_555 1_555
H18B C30B 1_555 1_555
H19B C30B 1_555 1_555
C31B C16B 1_555 1_555
C32B N7B 1_555 1_555
C33B N8B 1_555 1_555
C34B C13B 1_555 1_555
H20B C34B 1_555 1_555
H21B C34B 1_555 1_555
H22B C34B 1_555 1_555
C35B C31B 1_555 1_555
H23B C35B 1_555 1_555
C36B C22B 1_555 1_555
H24B C36B 1_555 1_555
Cu2F N9 1_555 1_555
Cu1B_2 N5B 1_555 1_555
Cu2B N1B 1_555 1_555
Cu2D N9B 1_555 1_555
Cu3_2 O1B 1_555 1_555
Cu3D N6B 1_555 1_555
Cu3F N6 1_555 1_555
N1F Cu2F 1_555 1_555
O1B_2 Cu3 1_555 1_555
N5B_2 Cu1B 1_555 1_555
N6D Cu3B 1_555 1_555
N6F Cu3 1_555 1_555
N9F Cu2 1_555 1_555
N1 N5 1_555 1_555
N4 C15 1_555 1_555
C5 C6 1_555 1_555
C6 C28 1_555 1_555
C15 C17 1_555 1_555
C18 C26 1_555 1_555
C19 C22 1_555 1_555
C27 C29 1_555 1_555
C27 C33 1_555 1_555
C31 C32 1_555 1_555
C35 C36 1_555 1_555
N4B C15B 1_555 1_555
C2B C12B 1_555 1_555
C9B C11B 1_555 1_555
C15B C17B 1_555 1_555
C18B C26B 1_555 1_555
C5B C6B 1_555 1_555
C6B C28B 1_555 1_555
C8B C13B 1_555 1_555
C19B C22B 1_555 1_555
C27B C29B 1_555 1_555
C27B C33B 1_555 1_555
C31B C32B 1_555 1_555
C35B C36B 1_555 1_555
N6F N9F 1_555 1_555

#END
