
#######################################################################
#
#                 Cambridge Crystallographic Data Centre
#                                CCDC 
#
#######################################################################
#
# If this CIF has been generated from an entry in the Cambridge 
# Structural Database, then it will include bibliographic, chemical, 
# crystal, experimental, refinement or atomic coordinate data resulting 
# from the CCDC's data processing and validation procedures.
#
#######################################################################

data_GAMFEI
_chemical_formula_moiety         '(C77 H52 Cu6 N20 O13 1-)n'
_symmetry_cell_setting           tetragonal
_symmetry_space_group_name_H-M   'I -4'
_symmetry_Int_Tables_number      82
_space_group_name_Hall           'I -4'
loop_
_symmetry_equiv_pos_site_id
_symmetry_equiv_pos_as_xyz
1 x,y,z
2 y,-x,-z
3 -x,-y,z
4 -y,x,-z
5 1/2+x,1/2+y,1/2+z
6 1/2+y,1/2-x,1/2-z
7 1/2-x,1/2-y,1/2+z
8 1/2-y,1/2+x,1/2-z
_cell_length_a                   17.3245(3)
_cell_length_b                   17.3245(3)
_cell_length_c                   33.9396(6)
_cell_angle_alpha                90
_cell_angle_beta                 90
_cell_angle_gamma                90
_cell_volume                     10186.6
loop_
_atom_site_label
_atom_site_type_symbol
_atom_site_fract_x
_atom_site_fract_y
_atom_site_fract_z
C37 C 0.4014(14) 0.474(3) 0.8330(11)
H25 H 0.3844 0.4250 0.8409
N10 N 0.4587(10) 0.510(3) 0.8472(11)
C38 C 0.4643(16) 0.574(3) 0.8291(12)
H26 H 0.5012 0.6124 0.8337
N11 N 0.4102(17) 0.577(2) 0.8036(11)
C39 C 0.3713(10) 0.515(3) 0.8060(11)
H27 H 0.3285 0.5023 0.7908
C40 C 0.434(3) 0.621(2) 0.7735(12)
C41 C 0.466(3) 0.630(2) 0.7357(12)
O7 O 0.322(3) 0.508(3) 0.5064(14)
H28 H 0.3541 0.5209 0.4865
Cu1 Cu 0.08513(9) 0.50757(7) 0.61521(3)
Cu2 Cu 0.15839(9) 0.36418(7) 0.56711(4)
Cu3 Cu 0.08297(11) 0.51218(7) 0.52200(3)
N1 N 0.1269(5) 0.4245(5) 0.64167(18)
N2 N 0.1604(6) 0.3645(5) 0.6223(2)
N3 N 0.3709(6) 0.0667(5) 0.9934(2)
N4 N 0.0507(6) 0.5985(4) 0.54945(19)
N5 N 0.0547(5) 0.5972(4) 0.59042(19)
N6 N 0.3377(6) 0.1278(5) 1.0124(2)
N7 N 0.2957(6) 0.1709(5) 0.9107(2)
O1 O 0.0708(5) 0.2812(5) 0.73421(19)
O2 O -0.1083(5) 0.7849(3) 0.5662(4)
N8 N 0.0222(5) 0.7986(3) 0.5723(2)
O3 O 0.1505(4) 0.8128(4) 0.5824(3)
O4 O 0.4214(5) 0.1889(6) 0.8963(2)
O5 O 0.1687(6) 0.1550(6) 0.9251(2)
C1 C 0.0364(7) 0.6714(5) 0.5378(3)
C2 C 0.0045(6) 0.9592(4) 0.5720(3)
C3 C 0.1355(6) 0.4119(6) 0.6806(2)
N9 N 0.1956(6) 0.3112(6) 0.7228(2)
O6 O 0.3223(6) 0.3438(10) 0.7121(3)
C4 C 0.3582(8) 0.0733(6) 0.9548(2)
C5 C 0.0892(6) 0.8428(4) 0.5766(3)
C6 C 0.1921(8) 0.3160(7) 0.6487(3)
C7 C -0.0534(6) 0.8268(4) 0.5700(4)
C8 C 0.2741(8) 0.3171(10) 0.7338(3)
C9 C 0.2616(9) 0.2448(6) 0.9966(3)
H1 H 0.2072 0.2352 0.9940
H2 H 0.2761 0.2868 0.9797
H3 H 0.2732 0.2578 1.0234
C10 C 0.1040(6) 0.4644(6) 0.7105(2)
H4 H 0.0942 0.5139 0.6989
H5 H 0.1405 0.4700 0.7316
H6 H 0.0566 0.4436 0.7207
C11 C 0.3057(7) 0.1736(5) 0.9850(3)
C12 C 0.0321(6) 0.7167(4) 0.5713(3)
C13 C 0.0804(6) 0.9285(4) 0.5737(3)
C14 C 0.3169(7) 0.1412(6) 0.9490(2)
C15 C 0.2551(6) 0.2302(7) 0.8362(3)
C16 C 0.2936(7) 0.2855(9) 0.7740(3)
C17 C 0.2178(7) 0.1752(7) 0.9019(3)
C18 C 0.0460(8) 0.6875(6) 0.6469(3)
H7 H -0.0056 0.6967 0.6560
H8 H 0.0768 0.7328 0.6513
H9 H 0.0678 0.6449 0.6611
C19 C -0.0625(6) 0.9128(4) 0.5715(3)
C20 C 0.0998(7) 0.2342(8) 0.8124(3)
H10 H 0.0484 0.2350 0.8046
C21 C 0.1194(7) 0.2081(8) 0.8505(3)
H11 H 0.0809 0.1933 0.8680
C22 C 0.1968(7) 0.2044(7) 0.8619(3)
C23 C 0.0446(6) 0.6691(5) 0.6039(3)
C24 C 0.3544(7) 0.1945(8) 0.8865(3)
C25 C 0.3331(7) 0.2298(9) 0.8476(3)
C26 C 0.3700(9) 0.2828(13) 0.7853(5)
H12 H 0.4087 0.2986 0.7681
C27 C 0.2364(11) 0.2450(10) 0.6372(4)
H13 H 0.2186 0.2270 0.6121
H14 H 0.2285 0.2055 0.6566
H15 H 0.2904 0.2571 0.6356
C28 C 0.1422(6) 0.9751(5) 0.5728(5)
H16 H 0.1914 0.9536 0.5728
C29 C 0.0276(8) 0.6939(6) 0.4963(3)
H17 H 0.0538 0.6573 0.4798
H18 H 0.0494 0.7443 0.4924
H19 H -0.0262 0.6949 0.4896
C30 C 0.1753(7) 0.3444(7) 0.6854(2)
C31 C 0.2348(6) 0.2573(7) 0.7980(3)
C32 C 0.1357(7) 0.2838(7) 0.7466(3)
C33 C 0.1562(6) 0.2585(6) 0.7869(2)
C34 C 0.3887(8) 0.2559(11) 0.8235(4)
H20 H 0.4398 0.2562 0.8319
C35 C -0.1344(7) 0.9443(5) 0.5718(5)
H21 H -0.1779 0.9128 0.5713
C36 C 0.3890(10) 0.0163(7) 0.9256(3)
H22 H 0.4274 0.0408 0.9095
H23 H 0.3477 -0.0020 0.9093
H24 H 0.4119 -0.0264 0.9394
N4B N -0.0507(6) 1.4015(4) 0.54945(19)
N5B N -0.0547(5) 1.4028(4) 0.59042(19)
O2B O 0.1083(5) 1.2151(3) 0.5662(4)
N8B N -0.0222(5) 1.2014(3) 0.5723(2)
O3B O -0.1505(4) 1.1872(4) 0.5824(3)
C1B C -0.0364(7) 1.3286(5) 0.5378(3)
C2B C -0.0045(6) 1.0408(4) 0.5720(3)
C5B C -0.0892(6) 1.1572(4) 0.5766(3)
C7B C 0.0534(6) 1.1732(4) 0.5700(4)
C12B C -0.0321(6) 1.2833(4) 0.5713(3)
C13B C -0.0804(6) 1.0715(4) 0.5737(3)
C18B C -0.0460(8) 1.3125(6) 0.6469(3)
H7B H 0.0056 1.3033 0.6560
H8B H -0.0768 1.2672 0.6513
H9B H -0.0678 1.3551 0.6611
C19B C 0.0625(6) 1.0872(4) 0.5715(3)
C23B C -0.0446(6) 1.3309(5) 0.6039(3)
C28B C -0.1422(6) 1.0249(5) 0.5728(5)
H16B H -0.1914 1.0464 0.5728
C29B C -0.0276(8) 1.3061(6) 0.4963(3)
H17B H -0.0538 1.3427 0.4798
H18B H -0.0494 1.2557 0.4924
H19B H 0.0262 1.3051 0.4896
C35B C 0.1344(7) 1.0557(5) 0.5718(5)
H21B H 0.1779 1.0872 0.5713
Cu1B Cu -0.08513(9) 0.49243(7) 0.61521(3)
Cu2B Cu -0.15839(9) 0.63582(7) 0.56711(4)
N1B N -0.1269(5) 0.5755(5) 0.64167(18)
N2B N -0.1604(6) 0.6355(5) 0.6223(2)
N3B N -0.3709(6) 0.9333(5) 0.9934(2)
N6B N -0.3377(6) 0.8722(5) 1.0124(2)
N7B N -0.2957(6) 0.8291(5) 0.9107(2)
O1B O -0.0708(5) 0.7188(5) 0.73421(19)
O4B O -0.4214(5) 0.8111(6) 0.8963(2)
O5B O -0.1687(6) 0.8450(6) 0.9251(2)
C3B C -0.1355(6) 0.5881(6) 0.6806(2)
N9B N -0.1956(6) 0.6888(6) 0.7228(2)
O6B O -0.3223(6) 0.6562(10) 0.7121(3)
C4B C -0.3582(8) 0.9267(6) 0.9548(2)
C6B C -0.1921(8) 0.6840(7) 0.6487(3)
C8B C -0.2741(8) 0.6829(10) 0.7338(3)
C9B C -0.2616(9) 0.7552(6) 0.9966(3)
H1B H -0.2072 0.7648 0.9940
H2B H -0.2761 0.7132 0.9797
H3B H -0.2732 0.7422 1.0234
C10B C -0.1040(6) 0.5356(6) 0.7105(2)
H4B H -0.0942 0.4861 0.6989
H5B H -0.1405 0.5300 0.7316
H6B H -0.0566 0.5564 0.7207
C11B C -0.3057(7) 0.8264(5) 0.9850(3)
C14B C -0.3169(7) 0.8588(6) 0.9490(2)
C15B C -0.2551(6) 0.7698(7) 0.8362(3)
C16B C -0.2936(7) 0.7145(9) 0.7740(3)
C17B C -0.2178(7) 0.8248(7) 0.9019(3)
C20B C -0.0998(7) 0.7658(8) 0.8124(3)
H10B H -0.0484 0.7650 0.8046
C21B C -0.1194(7) 0.7919(8) 0.8505(3)
H11B H -0.0809 0.8067 0.8680
C22B C -0.1968(7) 0.7956(7) 0.8619(3)
C24B C -0.3544(7) 0.8055(8) 0.8865(3)
C25B C -0.3331(7) 0.7702(9) 0.8476(3)
C26B C -0.3700(9) 0.7172(13) 0.7853(5)
H12B H -0.4087 0.7014 0.7681
C27B C -0.2364(11) 0.7550(10) 0.6372(4)
H13B H -0.2186 0.7730 0.6121
H14B H -0.2285 0.7945 0.6566
H15B H -0.2904 0.7429 0.6356
C30B C -0.1753(7) 0.6556(7) 0.6854(2)
C31B C -0.2348(6) 0.7427(7) 0.7980(3)
C32B C -0.1357(7) 0.7162(7) 0.7466(3)
C33B C -0.1562(6) 0.7415(6) 0.7869(2)
C34B C -0.3887(8) 0.7441(11) 0.8235(4)
H20B H -0.4398 0.7438 0.8319
C36B C -0.3890(10) 0.9837(7) 0.9256(3)
H22B H -0.4274 0.9592 0.9095
H23B H -0.3477 1.0020 0.9093
H24B H -0.4119 1.0264 0.9394
Cu3F Cu 0.41703(11) -0.01218(7) 1.02200(3)
Cu1B_2 Cu -0.08513(9) 1.49243(7) 0.61521(3)
Cu2_2 Cu 0.15839(9) 1.36418(7) 0.56711(4)
Cu2D Cu -0.34161(9) 0.86418(7) 1.06711(4)
Cu2F Cu 0.34161(9) 0.13582(7) 1.06711(4)
Cu3B Cu -0.08297(11) 1.48782(7) 0.52200(3)
Cu3D Cu -0.41703(11) 1.01218(7) 1.02200(3)
N3F N 0.1291(6) 0.4333(5) 0.4934(2)
N4F N 0.4493(6) -0.0985(4) 1.04945(19)
N5B_2 N -0.0547(5) 0.4028(4) 0.59042(19)
N6D N -0.1623(6) 0.6278(5) 0.5124(2)
N6F N 0.1623(6) 0.3722(5) 0.5124(2)
O2B_2 O 0.1083(5) 0.2151(3) 0.5662(4)
loop_
_geom_bond_atom_site_label_1
_geom_bond_atom_site_label_2
_geom_bond_site_symmetry_1
_geom_bond_site_symmetry_2
Cu1 N1 1_555 1_555
Cu2 N2 1_555 1_555
Cu3 N4 1_555 1_555
N1 N2 1_555 1_555
N2 C6 1_555 1_555
N3 N6 1_555 1_555
N4 N5 1_555 1_555
N5 Cu1 1_555 1_555
N6 C11 1_555 1_555
N7 C14 1_555 1_555
O1 C32 1_555 1_555
O2 C7 1_555 1_555
N8 C5 1_555 1_555
O3 C5 1_555 1_555
O4 C24 1_555 1_555
O5 C17 1_555 1_555
C1 N4 1_555 1_555
C2 C13 1_555 1_555
C3 N1 1_555 1_555
N9 C8 1_555 1_555
O6 C8 1_555 1_555
C4 N3 1_555 1_555
C5 C13 1_555 1_555
C6 C27 1_555 1_555
C7 N8 1_555 1_555
C8 C16 1_555 1_555
C9 H1 1_555 1_555
H2 C9 1_555 1_555
H3 C9 1_555 1_555
C10 C3 1_555 1_555
H4 C10 1_555 1_555
H5 C10 1_555 1_555
H6 C10 1_555 1_555
C11 C9 1_555 1_555
C12 N8 1_555 1_555
C13 C28 1_555 1_555
C14 C4 1_555 1_555
C15 C22 1_555 1_555
C16 C26 1_555 1_555
C17 N7 1_555 1_555
C18 H7 1_555 1_555
H8 C18 1_555 1_555
H9 C18 1_555 1_555
C19 C2 1_555 1_555
C20 H10 1_555 1_555
C21 C20 1_555 1_555
H11 C21 1_555 1_555
C22 C17 1_555 1_555
C23 N5 1_555 1_555
C24 N7 1_555 1_555
C25 C15 1_555 1_555
C26 H12 1_555 1_555
C27 H13 1_555 1_555
H14 C27 1_555 1_555
H15 C27 1_555 1_555
C28 H16 1_555 1_555
C29 C1 1_555 1_555
H17 C29 1_555 1_555
H18 C29 1_555 1_555
H19 C29 1_555 1_555
C30 C3 1_555 1_555
C31 C15 1_555 1_555
C32 N9 1_555 1_555
C33 C20 1_555 1_555
C34 C25 1_555 1_555
H20 C34 1_555 1_555
C35 C19 1_555 1_555
H21 C35 1_555 1_555
C36 C4 1_555 1_555
H22 C36 1_555 1_555
H23 C36 1_555 1_555
H24 C36 1_555 1_555
C37 H25 1_555 1_555
N10 C37 1_555 1_555
C38 N10 1_555 1_555
H26 C38 1_555 1_555
N11 C38 1_555 1_555
C39 C37 1_555 1_555
H27 C39 1_555 1_555
C40 N11 1_555 1_555
C41 C40 1_555 1_555
O7 H28 1_555 1_555
N4B N5B 1_555 1_555
N5B C23B 1_555 1_555
O2B C7B 1_555 1_555
N8B C5B 1_555 1_555
O3B C5B 1_555 1_555
C1B N4B 1_555 1_555
C2B C2 1_555 1_555
C5B C13B 1_555 1_555
C7B N8B 1_555 1_555
C12B N8B 1_555 1_555
C13B C2B 1_555 1_555
C18B H7B 1_555 1_555
H8B C18B 1_555 1_555
H9B C18B 1_555 1_555
C19B C2B 1_555 1_555
C23B C12B 1_555 1_555
C28B C35 1_555 1_555
H16B C28B 1_555 1_555
C29B C1B 1_555 1_555
H17B C29B 1_555 1_555
H18B C29B 1_555 1_555
H19B C29B 1_555 1_555
C35B C28 1_555 1_555
H21B C35B 1_555 1_555
Cu1B N1B 1_555 1_555
Cu2B O2 1_555 1_555
N1B N2B 1_555 1_555
N2B Cu2B 1_555 1_555
N3B N6B 1_555 1_555
N6B C11B 1_555 1_555
N7B C14B 1_555 1_555
O1B C32B 1_555 1_555
O4B C24B 1_555 1_555
O5B C17B 1_555 1_555
C3B N1B 1_555 1_555
N9B C8B 1_555 1_555
O6B C8B 1_555 1_555
C4B N3B 1_555 1_555
C6B N2B 1_555 1_555
C8B C16B 1_555 1_555
C9B H1B 1_555 1_555
H2B C9B 1_555 1_555
H3B C9B 1_555 1_555
C10B C3B 1_555 1_555
H4B C10B 1_555 1_555
H5B C10B 1_555 1_555
H6B C10B 1_555 1_555
C11B C9B 1_555 1_555
C14B C4B 1_555 1_555
C15B C22B 1_555 1_555
C16B C26B 1_555 1_555
C17B N7B 1_555 1_555
C20B H10B 1_555 1_555
C21B C20B 1_555 1_555
H11B C21B 1_555 1_555
C22B C17B 1_555 1_555
C24B N7B 1_555 1_555
C25B C15B 1_555 1_555
C26B H12B 1_555 1_555
C27B C6B 1_555 1_555
H13B C27B 1_555 1_555
H14B C27B 1_555 1_555
H15B C27B 1_555 1_555
C30B C3B 1_555 1_555
C31B C15B 1_555 1_555
C32B N9B 1_555 1_555
C33B C20B 1_555 1_555
C34B C25B 1_555 1_555
H20B C34B 1_555 1_555
C36B C4B 1_555 1_555
H22B C36B 1_555 1_555
H23B C36B 1_555 1_555
H24B C36B 1_555 1_555
Cu3F N3 1_555 1_555
Cu1B_2 N5B 1_555 1_555
Cu2_2 O2B 1_555 1_555
Cu2D N6B 1_555 1_555
Cu2F N6 1_555 1_555
Cu3B N4B 1_555 1_555
Cu3D N3B 1_555 1_555
N3F Cu3 1_555 1_555
N4F Cu3F 1_555 1_555
N5B_2 Cu1B 1_555 1_555
N6D Cu2B 1_555 1_555
N6F Cu2 1_555 1_555
O2B_2 Cu2 1_555 1_555
C1 C12 1_555 1_555
N9 C30 1_555 1_555
C6 C30 1_555 1_555
C7 C19 1_555 1_555
C11 C14 1_555 1_555
C12 C23 1_555 1_555
C16 C31 1_555 1_555
C18 C23 1_555 1_555
C21 C22 1_555 1_555
C24 C25 1_555 1_555
C26 C34 1_555 1_555
C31 C33 1_555 1_555
C32 C33 1_555 1_555
N11 C39 1_555 1_555
C1B C12B 1_555 1_555
C7B C19B 1_555 1_555
C13B C28B 1_555 1_555
C18B C23B 1_555 1_555
C19B C35B 1_555 1_555
N9B C30B 1_555 1_555
C6B C30B 1_555 1_555
C11B C14B 1_555 1_555
C16B C31B 1_555 1_555
C21B C22B 1_555 1_555
C24B C25B 1_555 1_555
C26B C34B 1_555 1_555
C31B C33B 1_555 1_555
C32B C33B 1_555 1_555
N3F N6F 1_555 1_555

#END
