
#######################################################################
#
#                 Cambridge Crystallographic Data Centre
#                                CCDC 
#
#######################################################################
#
# If this CIF has been generated from an entry in the Cambridge 
# Structural Database, then it will include bibliographic, chemical, 
# crystal, experimental, refinement or atomic coordinate data resulting 
# from the CCDC's data processing and validation procedures.
#
#######################################################################

data_GAMKUD
_chemical_formula_moiety         '(C72 H48 Cu6 N18 O12)n'
_symmetry_cell_setting           tetragonal
_symmetry_space_group_name_H-M   'I -4'
_symmetry_Int_Tables_number      82
_space_group_name_Hall           'I -4'
loop_
_symmetry_equiv_pos_site_id
_symmetry_equiv_pos_as_xyz
1 x,y,z
2 y,-x,-z
3 -x,-y,z
4 -y,x,-z
5 1/2+x,1/2+y,1/2+z
6 1/2+y,1/2-x,1/2-z
7 1/2-x,1/2-y,1/2+z
8 1/2-y,1/2+x,1/2-z
_cell_length_a                   17.4696(5)
_cell_length_b                   17.4696(5)
_cell_length_c                   33.7023(9)
_cell_angle_alpha                90
_cell_angle_beta                 90
_cell_angle_gamma                90
_cell_volume                     10285.5
loop_
_atom_site_label
_atom_site_type_symbol
_atom_site_fract_x
_atom_site_fract_y
_atom_site_fract_z
_atom_site_U_iso_or_equiv
_atom_site_thermal_displace_type
Cu1 Cu 0.83821(19) 0.62767(14) 0.43313(6) 0.0951 Uani
Cu2 Cu 0.91472(17) 0.48698(15) 0.38524(5) 0.0718 Uani
Cu3 Cu 0.9150(2) 0.48485(16) 0.47915(6) 0.0854 Uani
N1 N 0.8397(12) 0.6289(10) 0.3776(3) 0.0977 Uani
N2 N 0.6664(12) 0.8783(9) -0.0118(3) 0.0907 Uani
N3 N 0.7084(12) 0.8303(11) 0.0896(4) 0.0923 Uani
N4 N 0.8724(9) 0.5670(9) 0.3585(3) 0.0727 Uani
N5 N 0.6327(12) 0.9417(9) 0.0069(3) 0.0893 Uani
N6 N 0.9797(9) 0.2012(7) 0.4320(5) 0.0793 Uani
N7 N 0.9454(11) 0.4033(9) 0.4105(4) 0.0837 Uani
O1 O 0.9283(12) 0.7254(13) 0.2689(4) 0.1330 Uani
C1 C 0.9628(13) 0.3277(10) 0.4646(4) 0.0750 Uani
O2 O 1.1094(10) 0.2140(7) 0.4365(9) 0.1523 Uani
C2 C 0.8620(12) 0.5819(13) 0.3198(4) 0.0800 Uani
C3 C 0.7008(16) 0.8321(14) 0.0148(5) 0.0983 Uani
O3 O 0.8320(12) 0.8585(14) 0.0777(4) 0.1540 Uani
C4 C 0.9963(11) 0.0401(8) 0.4334(7) 0.0837 Uani
N8 N 0.8035(13) 0.6810(13) 0.2764(4) 0.1070 Uani
O4 O 0.8510(9) 0.1866(7) 0.4231(9) 0.1580 Uani
C5 C 0.8112(17) 0.6768(13) 0.3520(4) 0.1177 Uani
O5 O 0.5831(11) 0.8029(14) 0.1019(5) 0.1377 Uani
C6 C 0.8051(13) 0.7997(14) 0.1393(5) 0.0910 Uani
C7 C 0.7857(17) 0.8313(18) 0.1005(6) 0.1160 Uani
C8 C 0.9699(10) 0.2811(8) 0.4319(6) 0.0770 Uani
C9 C 1.0615(12) 0.0854(8) 0.4333(9) 0.1007 Uani
C10 C 0.8623(16) 0.7183(16) 0.2560(6) 0.1083 Uani
C11 C 0.8264(14) 0.6482(15) 0.3136(4) 0.1003 Uani
C12 C 0.7470(18) 0.7648(15) 0.0024(6) 0.1170 Uani
H1 H 0.7187 0.7187 0.0074 0.1730 Uiso
H2 H 0.7940 0.7638 0.0172 0.1730 Uiso
H3 H 0.7583 0.7685 -0.0254 0.1730 Uiso
C13 C 0.8783(16) 0.8046(19) 0.1531(7) 0.1340 Uani
H4 H 0.9159 0.8268 0.1374 0.1600 Uiso
C14 C 0.9218(12) 0.0717(9) 0.4324(9) 0.0990 Uani
C15 C 1.0555(12) 0.1735(9) 0.4339(8) 0.0940 Uani
C16 C 0.9578(12) 0.3288(10) 0.3979(5) 0.0710 Uani
C17 C 0.637(2) 0.699(3) 0.2116(8) 0.1820 Uani
H5 H 0.6003 0.6733 0.2269 0.2160 Uiso
C18 C 0.7681(12) 0.7393(13) 0.2022(4) 0.0840 Uani
C19 C 0.6450(17) 0.9289(13) 0.0463(4) 0.1040 Uani
C20 C 0.8943(17) 0.5275(13) 0.2891(5) 0.1093 Uani
H6 H 0.9473 0.5391 0.2846 0.1620 Uiso
H7 H 0.8664 0.5330 0.2647 0.1620 Uiso
H8 H 0.8896 0.4758 0.2985 0.1620 Uiso
C21 C 0.8432(13) 0.7469(14) 0.2151(4) 0.0917 Uani
O6 O 0.6855(14) 0.6346(19) 0.2831(6) 0.2210 Uani
C22 C 0.9132(11) 0.1561(9) 0.4283(9) 0.1023 Uani
C23 C 0.7475(12) 0.7695(13) 0.1641(4) 0.0860 Uani
C24 C 0.8586(13) 0.0263(10) 0.4300(12) 0.1387 Uani
H9 H 0.8107 0.0479 0.4256 0.1680 Uiso
C25 C 0.7111(15) 0.704(2) 0.2241(6) 0.1243 Uani
C26 C 0.9607(17) 0.3044(13) 0.3548(5) 0.1043 Uani
H10 H 0.9163 0.2742 0.3486 0.1570 Uiso
H11 H 1.0060 0.2747 0.3502 0.1570 Uiso
H12 H 0.9615 0.3490 0.3381 0.1570 Uiso
C27 C 0.8975(16) 0.777(2) 0.1907(7) 0.1317 Uani
H13 H 0.9481 0.7787 0.1991 0.1600 Uiso
C28 C 0.7304(16) 0.669(2) 0.2627(6) 0.1383 Uani
C29 C 0.6867(14) 0.8612(12) 0.0513(4) 0.0840 Uani
C30 C 0.9712(19) 0.3089(15) 0.5073(6) 0.1183 Uani
H14 H 0.9627 0.2551 0.5112 0.1760 Uiso
H15 H 0.9345 0.3375 0.5224 0.1760 Uiso
H16 H 1.0220 0.3219 0.5160 0.1760 Uiso
C31 C 0.6729(14) 0.7661(16) 0.1507(5) 0.1070 Uani
C32 C 1.1336(12) 0.0549(9) 0.4343(12) 0.1413 Uani
H17 H 1.1763 0.0860 0.4378 0.1690 Uiso
C33 C 0.6503(15) 0.8021(16) 0.1126(6) 0.1060 Uani
C34 C 0.6160(19) 0.733(2) 0.1740(8) 0.1770 Uani
H18 H 0.5653 0.7334 0.1656 0.2130 Uiso
C35 C 0.766(2) 0.7459(19) 0.3643(7) 0.1870 Uani
H19 H 0.7127 0.7352 0.3621 0.2810 Uiso
H20 H 0.7793 0.7882 0.3474 0.2810 Uiso
H21 H 0.7785 0.7586 0.3913 0.2810 Uiso
N9 N 0.9515(11) 0.4022(9) 0.4522(4) 0.0803 Uani
C36 C 0.615(2) 0.9850(17) 0.0767(5) 0.1440 Uani
H22 H 0.6537 1.0228 0.0821 0.2170 Uiso
H23 H 0.6027 0.9582 0.1007 0.2170 Uiso
H24 H 0.5701 1.0097 0.0666 0.2170 Uiso
N6B N 1.0203(9) -0.2012(7) 0.4320(5) 0.0793 Uani
N7B N 1.0546(11) -0.4033(9) 0.4105(4) 0.0837 Uani
C1B C 1.0372(13) -0.3277(10) 0.4646(4) 0.0750 Uani
O2B O 0.8906(10) -0.2140(7) 0.4365(9) 0.1523 Uani
C4B C 1.0037(11) -0.0401(8) 0.4334(7) 0.0837 Uani
O4B O 1.1490(9) -0.1866(7) 0.4231(9) 0.1580 Uani
C8B C 1.0301(10) -0.2811(8) 0.4319(6) 0.0770 Uani
C9B C 0.9385(12) -0.0854(8) 0.4333(9) 0.1007 Uani
C14B C 1.0782(12) -0.0717(9) 0.4324(9) 0.0990 Uani
C15B C 0.9445(12) -0.1735(9) 0.4339(8) 0.0940 Uani
C16B C 1.0422(12) -0.3288(10) 0.3979(5) 0.0710 Uani
C22B C 1.0868(11) -0.1561(9) 0.4283(9) 0.1023 Uani
C24B C 1.1414(13) -0.0263(10) 0.4300(12) 0.1387 Uani
H9B H 1.1893 -0.0479 0.4256 0.1680 Uiso
C26B C 1.0393(17) -0.3044(13) 0.3548(5) 0.1043 Uani
H10B H 1.0837 -0.2742 0.3486 0.1570 Uiso
H11B H 0.9940 -0.2747 0.3502 0.1570 Uiso
H12B H 1.0385 -0.3490 0.3381 0.1570 Uiso
C30B C 1.0288(19) -0.3089(15) 0.5073(6) 0.1183 Uani
H14B H 1.0373 -0.2551 0.5112 0.1760 Uiso
H15B H 1.0655 -0.3375 0.5224 0.1760 Uiso
H16B H 0.9780 -0.3219 0.5160 0.1760 Uiso
C32B C 0.8664(12) -0.0549(9) 0.4343(12) 0.1413 Uani
H17B H 0.8237 -0.0860 0.4378 0.1690 Uiso
N9B N 1.0485(11) -0.4022(9) 0.4522(4) 0.0803 Uani
Cu1B Cu 1.16179(19) -0.62767(14) 0.43313(6) 0.0951 Uani
Cu2B Cu 1.08528(17) -0.48698(15) 0.38524(5) 0.0718 Uani
Cu3B Cu 1.0850(2) -0.48485(16) 0.47915(6) 0.0854 Uani
N1B N 1.1603(12) -0.6289(10) 0.3776(3) 0.0977 Uani
N2B N 1.3336(12) -0.8783(9) -0.0118(3) 0.0907 Uani
N3B N 1.2916(12) -0.8303(11) 0.0896(4) 0.0923 Uani
N4B N 1.1276(9) -0.5670(9) 0.3585(3) 0.0727 Uani
N5B N 1.3673(12) -0.9417(9) 0.0069(3) 0.0893 Uani
O1B O 1.0717(12) -0.7254(13) 0.2689(4) 0.1330 Uani
C2B C 1.1380(12) -0.5819(13) 0.3198(4) 0.0800 Uani
C3B C 1.2992(16) -0.8321(14) 0.0148(5) 0.0983 Uani
O3B O 1.1680(12) -0.8585(14) 0.0777(4) 0.1540 Uani
N8B N 1.1965(13) -0.6810(13) 0.2764(4) 0.1070 Uani
C5B C 1.1888(17) -0.6768(13) 0.3520(4) 0.1177 Uani
O5B O 1.4169(11) -0.8029(14) 0.1019(5) 0.1377 Uani
C6B C 1.1949(13) -0.7997(14) 0.1393(5) 0.0910 Uani
C7B C 1.2143(17) -0.8313(18) 0.1005(6) 0.1160 Uani
C10B C 1.1377(16) -0.7183(16) 0.2560(6) 0.1083 Uani
C11B C 1.1736(14) -0.6482(15) 0.3136(4) 0.1003 Uani
C12B C 1.2530(18) -0.7648(15) 0.0024(6) 0.1170 Uani
H1B H 1.2813 -0.7187 0.0074 0.1730 Uiso
H2B H 1.2060 -0.7638 0.0172 0.1730 Uiso
H3B H 1.2417 -0.7685 -0.0254 0.1730 Uiso
C13B C 1.1217(16) -0.8046(19) 0.1531(7) 0.1340 Uani
H4B H 1.0841 -0.8268 0.1374 0.1600 Uiso
C17B C 1.363(2) -0.699(3) 0.2116(8) 0.1820 Uani
H5B H 1.3997 -0.6733 0.2269 0.2160 Uiso
C18B C 1.2319(12) -0.7393(13) 0.2022(4) 0.0840 Uani
C19B C 1.3550(17) -0.9289(13) 0.0463(4) 0.1040 Uani
C20B C 1.1057(17) -0.5275(13) 0.2891(5) 0.1093 Uani
H6B H 1.0527 -0.5391 0.2846 0.1620 Uiso
H7B H 1.1336 -0.5330 0.2647 0.1620 Uiso
H8B H 1.1104 -0.4758 0.2985 0.1620 Uiso
C21B C 1.1568(13) -0.7469(14) 0.2151(4) 0.0917 Uani
O6B O 1.3145(14) -0.6346(19) 0.2831(6) 0.2210 Uani
C23B C 1.2525(12) -0.7695(13) 0.1641(4) 0.0860 Uani
C25B C 1.2889(15) -0.704(2) 0.2241(6) 0.1243 Uani
C27B C 1.1025(16) -0.777(2) 0.1907(7) 0.1317 Uani
H13B H 1.0519 -0.7787 0.1991 0.1600 Uiso
C28B C 1.2696(16) -0.669(2) 0.2627(6) 0.1383 Uani
C29B C 1.3133(14) -0.8612(12) 0.0513(4) 0.0840 Uani
C31B C 1.3271(14) -0.7661(16) 0.1507(5) 0.1070 Uani
C33B C 1.3497(15) -0.8021(16) 0.1126(6) 0.1060 Uani
C34B C 1.3840(19) -0.733(2) 0.1740(8) 0.1770 Uani
H18B H 1.4347 -0.7334 0.1656 0.2130 Uiso
C35B C 1.234(2) -0.7459(19) 0.3643(7) 0.1870 Uani
H19B H 1.2873 -0.7352 0.3621 0.2810 Uiso
H20B H 1.2207 -0.7882 0.3474 0.2810 Uiso
H21B H 1.2215 -0.7586 0.3913 0.2810 Uiso
C36B C 1.385(2) -0.9850(17) 0.0767(5) 0.1440 Uani
H22B H 1.3463 -1.0228 0.0821 0.2170 Uiso
H23B H 1.3973 -0.9582 0.1007 0.2170 Uiso
H24B H 1.4299 -1.0097 0.0666 0.2170 Uiso
Cu1D Cu 1.33821(19) -0.87233(14) -0.06687(6) 0.0951 Uani
Cu1F Cu 0.66179(19) 0.87233(14) -0.06687(6) 0.0951 Uani
Cu3D Cu 1.4150(2) -1.01515(16) -0.02085(6) 0.0854 Uani
Cu3F Cu 0.5850(2) 1.01515(16) -0.02085(6) 0.0854 Uani
N2D N 1.1664(12) -0.6217(9) 0.4882(3) 0.0907 Uani
N2F N 0.8336(12) 0.6217(9) 0.4882(3) 0.0907 Uani
N5D N 1.1327(12) -0.5583(9) 0.5069(3) 0.0893 Uani
N5F N 0.8673(12) 0.5583(9) 0.5069(3) 0.0893 Uani
loop_
_atom_site_aniso_label
_atom_site_aniso_U_11
_atom_site_aniso_U_22
_atom_site_aniso_U_33
_atom_site_aniso_U_23
_atom_site_aniso_U_13
_atom_site_aniso_U_12
Cu1 0.159(3) 0.0958(16) 0.0304(8) 0.0036(12) 0.0100(14) 0.0514(16)
Cu2 0.112(2) 0.0632(16) 0.0402(9) 0.0039(9) 0.0033(11) 0.0243(15)
Cu3 0.148(3) 0.0688(19) 0.0395(9) -0.0016(10) 0.0090(12) 0.0307(18)
N1 0.166(18) 0.090(12) 0.037(5) 0.011(6) 0.008(8) 0.053(12)
N2 0.163 0.069 0.04 0.004 -0.025 0.053
N3 0.134(16) 0.096(12) 0.047(7) 0.020(7) -0.024(8) 0.005(11)
N4 0.110(11) 0.076(9) 0.032(5) -0.009(5) 0.006(6) 0.021(8)
N5 0.171 0.066 0.031 -0.01 -0.01 0.021
N6 0.107(11) 0.054(6) 0.077(7) -0.003(8) 0.009(9) 0.020(6)
N7 0.147(15) 0.064(10) 0.040(5) -0.011(6) 0.009(7) 0.016(10)
O1 0.137(15) 0.20(2) 0.062(7) 0.042(10) -0.031(9) -0.003(13)
C1 0.125(15) 0.051(10) 0.049(7) -0.008(7) 0.007(8) 0.037(9)
O2 0.120(12) 0.047(6) 0.29(3) -0.020(14) -0.065(18) 0.005(7)
C2 0.110(14) 0.104(15) 0.026(6) 0.016(7) -0.001(7) 0.007(11)
C3 0.16(2) 0.099(16) 0.036(7) 0.016(8) -0.016(9) 0.010(14)
O3 0.148(15) 0.24(2) 0.074(9) 0.079(12) -0.017(9) -0.035(15)
C4 0.108(13) 0.054(8) 0.089(10) -0.006(10) -0.003(12) 0.023(8)
N8 0.134(16) 0.148(18) 0.039(6) 0.032(9) 0.002(8) 0.046(13)
O4 0.085(9) 0.059(7) 0.33(3) 0.029(13) 0.042(15) 0.028(6)
C5 0.21(3) 0.108(16) 0.035(7) 0.027(8) 0.014(11) 0.103(17)
O5 0.115(14) 0.20(2) 0.098(11) 0.081(13) -0.024(10) 0.000(13)
C6 0.092(14) 0.123(18) 0.058(9) 0.033(10) -0.018(9) 0.009(12)
C7 0.14(2) 0.15(2) 0.058(10) 0.045(13) -0.013(12) -0.013(17)
C8 0.097(11) 0.067(8) 0.067(8) 0.004(10) 0.005(10) 0.018(8)
C9 0.113(15) 0.038(7) 0.151(17) -0.021(13) -0.037(16) 0.020(8)
C10 0.13(2) 0.14(2) 0.055(9) 0.026(11) -0.007(12) 0.048(16)
C11 0.130(17) 0.15(2) 0.021(5) 0.023(8) 0.003(7) 0.069(15)
C12 0.18(3) 0.106(18) 0.065(10) 0.005(12) -0.015(13) 0.054(18)
C13 0.115(19) 0.20(3) 0.087(14) 0.078(18) -0.020(13) -0.016(19)
C14 0.092(13) 0.054(8) 0.151(17) 0.020(14) 0.034(16) 0.023(8)
C15 0.116(15) 0.046(8) 0.120(14) -0.004(13) -0.014(15) 0.025(9)
C16 0.103(13) 0.058(10) 0.052(7) 0.015(7) 0.007(8) 0.021(9)
C17 0.15(3) 0.30(5) 0.096(18) 0.11(3) -0.032(18) -0.07(3)
C18 0.098(14) 0.113(16) 0.041(6) 0.020(8) -0.014(8) 0.017(11)
C19 0.19 0.099 0.023 -0.002 -0.01 0.035
C20 0.19(3) 0.095(15) 0.043(7) -0.007(8) 0.000(11) 0.044(15)
C21 0.102(14) 0.134(18) 0.039(7) 0.023(9) -0.012(8) -0.003(12)
O6 0.157(19) 0.39(4) 0.116(14) 0.17(2) -0.020(13) -0.01(2)
C22 0.092(13) 0.055(9) 0.16(2) 0.031(14) 0.034(15) 0.026(8)
C23 0.098(14) 0.118(17) 0.042(7) 0.033(9) -0.003(8) -0.003(11)
C24 0.095(15) 0.051(9) 0.27(3) 0.036(19) 0.08(2) 0.026(9)
C25 0.096(16) 0.21(3) 0.067(11) 0.063(16) -0.010(11) 0.012(17)
C26 0.18(3) 0.077(14) 0.056(9) -0.011(9) -0.003(12) 0.001(15)
C27 0.108(19) 0.21(3) 0.077(13) 0.052(17) -0.016(12) 0.017(19)
C28 0.117(19) 0.23(3) 0.068(12) 0.082(17) -0.003(12) 0.03(2)
C29 0.135(18) 0.083(12) 0.034(6) 0.016(7) -0.025(8) 0.020(11)
C30 0.20(3) 0.098(18) 0.057(10) 0.008(10) -0.003(13) 0.009(17)
C31 0.114(17) 0.15(2) 0.057(9) 0.049(12) -0.023(10) -0.014(15)
C32 0.098(14) 0.046(8) 0.28(3) -0.045(18) -0.08(2) 0.026(9)
C33 0.110(18) 0.14(2) 0.068(11) 0.040(12) -0.014(12) 0.028(15)
C34 0.13(2) 0.29(5) 0.111(19) 0.14(3) -0.034(17) -0.02(3)
C35 0.31(5) 0.18(3) 0.071(13) 0.007(16) 0.00(2) 0.18(3)
N9 0.136(14) 0.063(9) 0.042(5) 0.014(6) -0.001(7) 0.029(9)
C36 0.26 0.13 0.042 -0.025 -0.018 0.07
N6B 0.107 0.054 0.077 0.003 -0.009 0.02
N7B 0.147 0.064 0.04 0.011 -0.009 0.016
C1B 0.125 0.051 0.049 0.008 -0.007 0.037
O2B 0.12 0.047 0.29 0.02 0.065 0.005
C4B 0.108 0.054 0.089 0.006 0.003 0.023
O4B 0.085 0.059 0.33 -0.029 -0.042 0.028
C8B 0.097 0.067 0.067 -0.004 -0.005 0.018
C9B 0.113 0.038 0.151 0.021 0.037 0.02
C14B 0.092 0.054 0.151 -0.02 -0.034 0.023
C15B 0.116 0.046 0.12 0.004 0.014 0.025
C16B 0.103 0.058 0.052 -0.015 -0.007 0.021
C22B 0.092 0.055 0.16 -0.031 -0.034 0.026
C24B 0.095 0.051 0.27 -0.036 -0.08 0.026
C26B 0.18 0.077 0.056 0.011 0.003 0.001
C30B 0.2 0.098 0.057 -0.008 0.003 0.009
C32B 0.098 0.046 0.28 0.045 0.08 0.026
N9B 0.136 0.063 0.042 -0.014 0.001 0.029
Cu1B 0.159 0.0958 0.0304 -0.0036 -0.01 0.0514
Cu2B 0.112 0.0632 0.0402 -0.0039 -0.0033 0.0243
Cu3B 0.148 0.0688 0.0395 0.0016 -0.009 0.0307
N1B 0.166 0.09 0.037 -0.011 -0.008 0.053
N2B 0.163 0.069 0.04 -0.004 0.025 0.053
N3B 0.134 0.096 0.047 -0.02 0.024 0.005
N4B 0.11 0.076 0.032 0.009 -0.006 0.021
N5B 0.171 0.066 0.031 0.01 0.01 0.021
O1B 0.137 0.2 0.062 -0.042 0.031 -0.003
C2B 0.11 0.104 0.026 -0.016 0.001 0.007
C3B 0.16 0.099 0.036 -0.016 0.016 0.01
O3B 0.148 0.24 0.074 -0.079 0.017 -0.035
N8B 0.134 0.148 0.039 -0.032 -0.002 0.046
C5B 0.21 0.108 0.035 -0.027 -0.014 0.103
O5B 0.115 0.2 0.098 -0.081 0.024 0
C6B 0.092 0.123 0.058 -0.033 0.018 0.009
C7B 0.14 0.15 0.058 -0.045 0.013 -0.013
C10B 0.13 0.14 0.055 -0.026 0.007 0.048
C11B 0.13 0.15 0.021 -0.023 -0.003 0.069
C12B 0.18 0.106 0.065 -0.005 0.015 0.054
C13B 0.115 0.2 0.087 -0.078 0.02 -0.016
C17B 0.15 0.3 0.096 -0.11 0.032 -0.07
C18B 0.098 0.113 0.041 -0.02 0.014 0.017
C19B 0.19 0.099 0.023 0.002 0.01 0.035
C20B 0.19 0.095 0.043 0.007 0 0.044
C21B 0.102 0.134 0.039 -0.023 0.012 -0.003
O6B 0.157 0.39 0.116 -0.17 0.02 -0.01
C23B 0.098 0.118 0.042 -0.033 0.003 -0.003
C25B 0.096 0.21 0.067 -0.063 0.01 0.012
C27B 0.108 0.21 0.077 -0.052 0.016 0.017
C28B 0.117 0.23 0.068 -0.082 0.003 0.03
C29B 0.135 0.083 0.034 -0.016 0.025 0.02
C31B 0.114 0.15 0.057 -0.049 0.023 -0.014
C33B 0.11 0.14 0.068 -0.04 0.014 0.028
C34B 0.13 0.29 0.111 -0.14 0.034 -0.02
C35B 0.31 0.18 0.071 -0.007 0 0.18
C36B 0.26 0.13 0.042 0.025 0.018 0.07
Cu1D 0.159 0.0958 0.0304 0.0036 0.01 0.0514
Cu1F 0.159 0.0958 0.0304 -0.0036 -0.01 0.0514
Cu3D 0.148 0.0688 0.0395 -0.0016 0.009 0.0307
Cu3F 0.148 0.0688 0.0395 0.0016 -0.009 0.0307
N2D 0.163 0.069 0.04 0.004 -0.025 0.053
N2F 0.163 0.069 0.04 -0.004 0.025 0.053
N5D 0.171 0.066 0.031 -0.01 -0.01 0.021
N5F 0.171 0.066 0.031 0.01 0.01 0.021
loop_
_geom_bond_atom_site_label_1
_geom_bond_atom_site_label_2
_geom_bond_site_symmetry_1
_geom_bond_site_symmetry_2
Cu1 N1 1_555 1_555
Cu2 N4 1_555 1_555
Cu3 N9 1_555 1_555
N1 N4 1_555 1_555
N2 N5 1_555 1_555
N3 C7 1_555 1_555
N4 C2 1_555 1_555
N5 C19 1_555 1_555
N6 C8 1_555 1_555
N7 Cu2 1_555 1_555
O1 C10 1_555 1_555
C1 C8 1_555 1_555
O2 C15 1_555 1_555
C2 C11 1_555 1_555
C3 N2 1_555 1_555
O3 C7 1_555 1_555
C4 C9 1_555 1_555
N8 C10 1_555 1_555
O4 C22 1_555 1_555
C5 N1 1_555 1_555
O5 C33 1_555 1_555
C6 C7 1_555 1_555
C8 C16 1_555 1_555
C9 C15 1_555 1_555
C10 C21 1_555 1_555
C11 N8 1_555 1_555
C12 C3 1_555 1_555
H1 C12 1_555 1_555
H2 C12 1_555 1_555
H3 C12 1_555 1_555
C13 C6 1_555 1_555
H4 C13 1_555 1_555
C14 C4 1_555 1_555
C15 N6 1_555 1_555
C16 N7 1_555 1_555
C17 H5 1_555 1_555
C18 C21 1_555 1_555
C19 C29 1_555 1_555
C20 C2 1_555 1_555
H6 C20 1_555 1_555
H7 C20 1_555 1_555
H8 C20 1_555 1_555
C21 C27 1_555 1_555
O6 C28 1_555 1_555
C22 N6 1_555 1_555
C23 C6 1_555 1_555
C24 C14 1_555 1_555
H9 C24 1_555 1_555
C25 C17 1_555 1_555
C26 C16 1_555 1_555
H10 C26 1_555 1_555
H11 C26 1_555 1_555
H12 C26 1_555 1_555
C27 C13 1_555 1_555
H13 C27 1_555 1_555
C28 N8 1_555 1_555
C29 N3 1_555 1_555
C30 C1 1_555 1_555
H14 C30 1_555 1_555
H15 C30 1_555 1_555
H16 C30 1_555 1_555
C31 C23 1_555 1_555
C32 C9 1_555 1_555
H17 C32 1_555 1_555
C33 N3 1_555 1_555
C34 C17 1_555 1_555
H18 C34 1_555 1_555
C35 C5 1_555 1_555
H19 C35 1_555 1_555
H20 C35 1_555 1_555
H21 C35 1_555 1_555
N9 N7 1_555 1_555
C36 C19 1_555 1_555
H22 C36 1_555 1_555
H23 C36 1_555 1_555
H24 C36 1_555 1_555
N6B C8B 1_555 1_555
N7B C16B 1_555 1_555
C1B C8B 1_555 1_555
O2B C15B 1_555 1_555
C4B C4 1_555 1_555
O4B C22B 1_555 1_555
C8B C16B 1_555 1_555
C9B C4B 1_555 1_555
C14B C4B 1_555 1_555
C15B N6B 1_555 1_555
C16B C26B 1_555 1_555
C22B N6B 1_555 1_555
C24B C32 1_555 1_555
H9B C24B 1_555 1_555
C26B H10B 1_555 1_555
H11B C26B 1_555 1_555
H12B C26B 1_555 1_555
C30B C1B 1_555 1_555
H14B C30B 1_555 1_555
H15B C30B 1_555 1_555
H16B C30B 1_555 1_555
C32B C24 1_555 1_555
H17B C32B 1_555 1_555
N9B N7B 1_555 1_555
Cu1B N1B 1_555 1_555
Cu2B N7B 1_555 1_555
Cu3B N9B 1_555 1_555
N1B N4B 1_555 1_555
N2B N5B 1_555 1_555
N3B C7B 1_555 1_555
N4B Cu2B 1_555 1_555
N5B C19B 1_555 1_555
O1B C10B 1_555 1_555
C2B N4B 1_555 1_555
C3B N2B 1_555 1_555
O3B C7B 1_555 1_555
N8B C10B 1_555 1_555
C5B N1B 1_555 1_555
O5B C33B 1_555 1_555
C6B C7B 1_555 1_555
C10B C21B 1_555 1_555
C11B C2B 1_555 1_555
C12B C3B 1_555 1_555
H1B C12B 1_555 1_555
H2B C12B 1_555 1_555
H3B C12B 1_555 1_555
C13B C6B 1_555 1_555
H4B C13B 1_555 1_555
C17B H5B 1_555 1_555
C18B C21B 1_555 1_555
C19B C29B 1_555 1_555
C20B C2B 1_555 1_555
H6B C20B 1_555 1_555
H7B C20B 1_555 1_555
H8B C20B 1_555 1_555
C21B C27B 1_555 1_555
O6B C28B 1_555 1_555
C23B C6B 1_555 1_555
C25B C17B 1_555 1_555
C27B C13B 1_555 1_555
H13B C27B 1_555 1_555
C28B N8B 1_555 1_555
C29B N3B 1_555 1_555
C31B C23B 1_555 1_555
C33B N3B 1_555 1_555
C34B C17B 1_555 1_555
H18B C34B 1_555 1_555
C35B C5B 1_555 1_555
H19B C35B 1_555 1_555
H20B C35B 1_555 1_555
H21B C35B 1_555 1_555
C36B C19B 1_555 1_555
H22B C36B 1_555 1_555
H23B C36B 1_555 1_555
H24B C36B 1_555 1_555
Cu1D N2B 1_555 1_555
Cu1F N2 1_555 1_555
Cu3D N5B 1_555 1_555
Cu3F N5 1_555 1_555
N2D Cu1B 1_555 1_555
N2F Cu1 1_555 1_555
N5D Cu3B 1_555 1_555
N5F Cu3 1_555 1_555
C1 N9 1_555 1_555
C3 C29 1_555 1_555
C5 C11 1_555 1_555
C14 C22 1_555 1_555
C18 C23 1_555 1_555
C18 C25 1_555 1_555
C25 C28 1_555 1_555
C31 C33 1_555 1_555
C31 C34 1_555 1_555
C1B N9B 1_555 1_555
C9B C15B 1_555 1_555
C9B C32B 1_555 1_555
C14B C22B 1_555 1_555
C14B C24B 1_555 1_555
C3B C29B 1_555 1_555
N8B C11B 1_555 1_555
C5B C11B 1_555 1_555
C18B C23B 1_555 1_555
C18B C25B 1_555 1_555
C25B C28B 1_555 1_555
C31B C33B 1_555 1_555
C31B C34B 1_555 1_555
N2D N5D 1_555 1_555
N2F N5F 1_555 1_555

#END
