
#######################################################################
#
#                 Cambridge Crystallographic Data Centre
#                                CCDC 
#
#######################################################################
#
# If this CIF has been generated from an entry in the Cambridge 
# Structural Database, then it will include bibliographic, chemical, 
# crystal, experimental, refinement or atomic coordinate data resulting 
# from the CCDC's data processing and validation procedures.
#
#######################################################################

data_GINLIA
_chemical_formula_moiety         '(C40 H28 Cl2 O12 Zn2)n'
_symmetry_cell_setting           monoclinic
_symmetry_space_group_name_H-M   'P 21'
_symmetry_Int_Tables_number      4
_space_group_name_Hall           'P 2yb'
loop_
_symmetry_equiv_pos_site_id
_symmetry_equiv_pos_as_xyz
1 x,y,z
2 -x,1/2+y,-z
_cell_length_a                   10.1889(13)
_cell_length_b                   16.651(2)
_cell_length_c                   19.730(3)
_cell_angle_alpha                90
_cell_angle_beta                 101.825(2)
_cell_angle_gamma                90
_cell_volume                     3276.26
loop_
_atom_site_label
_atom_site_type_symbol
_atom_site_fract_x
_atom_site_fract_y
_atom_site_fract_z
Zn1 Zn 0.50206(9) 0.65804(7) 0.61545(5)
Zn2 Zn 0.24220(13) 0.56384(9) 0.49973(6)
C1 C 0.4043(10) 0.7099(7) 0.4732(5)
C2 C 0.4077(11) 0.7726(6) 0.4190(5)
O1 O 0.4676(7) 0.7250(5) 0.5315(4)
O2 O 0.3275(8) 0.6483(5) 0.4542(3)
O3 O 0.6039(11) 0.9921(5) 0.4687(4)
O4 O 0.4993(7) 1.0414(4) 0.3680(3)
O5 O -0.3343(10) 0.6957(6) -0.3204(4)
O6 O -0.2738(7) 0.6385(6) -0.4086(4)
O7 O 0.2056(6) 0.6361(4) -0.4221(3)
O8 O 0.3568(7) 0.6874(5) -0.3367(3)
O9 O 0.1729(9) 0.5257(6) 0.4024(4)
O10 O 0.1061(13) 0.4887(7) 0.5331(6)
C3 C 0.4646(10) 0.8481(7) 0.4373(5)
C4 C 0.4628(10) 0.9060(7) 0.3901(5)
C5 C 0.4113(11) 0.8910(6) 0.3220(5)
H1 H 0.4175 0.9310 0.2884
C6 C 0.3501(10) 0.8183(7) 0.3010(5)
C7 C 0.3475(10) 0.7577(7) 0.3476(4)
H2 H 0.3073 0.7074 0.3332
C8 C 0.5286(12) 0.9845(7) 0.4097(5)
C9 C 0.3053(12) 0.8007(7) 0.2244(5)
C10 C 0.1663(12) 0.7749(7) 0.1974(5)
C11 C 0.0704(12) 0.7649(7) 0.2399(6)
H3 H 0.0941 0.7728 0.2885
C12 C -0.0552(10) 0.7439(9) 0.2088(6)
C13 C -0.0916(16) 0.7296(10) 0.1368(6)
H4 H -0.1814 0.7153 0.1167
C14 C -0.0033(11) 0.7360(8) 0.0972(5)
H5 H -0.0272 0.7205 0.0499
C15 C 0.1231(11) 0.7646(7) 0.1232(5)
C16 C 0.2176(11) 0.7771(7) 0.0794(5)
C17 C 0.3451(12) 0.8053(8) 0.1108(5)
O11 O 0.4303(16) 0.8132(8) 0.0638(5)
C18 C 0.569(2) 0.8482(16) 0.0907(8)
H6 H 0.6281 0.8091 0.1204
H7 H 0.5645 0.8980 0.1174
C19 C 0.618(2) 0.8647(15) 0.0271(9)
H8 H 0.5710 0.8301 -0.0103
H9 H 0.7146 0.8539 0.0350
H10 H 0.6014 0.9211 0.0140
C20 C 0.3901(13) 0.8164(7) 0.1795(6)
H11 H 0.4789 0.8349 0.1968
C21 C 0.174(2) 0.7695(11) 0.0025(8)
C22 C 0.1591(14) 0.8277(6) -0.0447(4)
C23 C 0.1985(14) 0.9034(7) -0.0186(4)
H12 H 0.2230 0.9116 0.0300
C24 C 0.2020(15) 0.9672(6) -0.0637(6)
H13 H 0.2289 1.0190 -0.0459
C25 C 0.1661(16) 0.9552(6) -0.1348(5)
C26 C 0.1268(14) 0.8795(7) -0.1609(4)
H14 H 0.1023 0.8713 -0.2095
C27 C 0.1233(14) 0.8157(6) -0.1158(5)
C28 C 0.108(2) 0.7400(11) -0.1417(7)
C29 C 0.1447(18) 0.6775(11) -0.0956(6)
H15 H 0.1450 0.6240 -0.1122
C30 C 0.182(2) 0.6928(10) -0.0233(7)
O12 O 0.2121(15) 0.6256(7) 0.0233(5)
C31 C 0.134(2) 0.5452(13) 0.0014(8)
H16 H 0.0364 0.5565 -0.0130
H17 H 0.1646 0.5207 -0.0382
C32 C 0.157(2) 0.4902(14) 0.0601(9)
H18 H 0.2453 0.4648 0.0640
H19 H 0.0875 0.4487 0.0531
H20 H 0.1550 0.5199 0.1027
C33 C 0.0687(10) 0.7181(7) -0.2176(5)
C34 C -0.0688(10) 0.7123(7) -0.2476(5)
H21 H -0.1366 0.7250 -0.2227
C35 C -0.0994(10) 0.6859(7) -0.3186(5)
C36 C -0.0023(8) 0.6738(7) -0.3547(5)
H22 H -0.0261 0.6556 -0.4012
C37 C 0.1346(10) 0.6876(7) -0.3246(5)
C38 C 0.1624(10) 0.7091(8) -0.2576(5)
H23 H 0.2536 0.7187 -0.2365
C39 C -0.2439(10) 0.6700(8) -0.3537(6)
C40 C 0.2429(9) 0.6690(7) -0.3652(4)
Cl1 Cl -0.1787(6) 0.7388(4) 0.2597(3)
Cl2 Cl 0.1659(6) 1.0321(4) -0.1942(3)
Zn1_2 Zn -0.49794(9) 0.65804(7) -0.38455(5)
Zn1_3 Zn 0.50206(9) 0.65804(7) -0.38455(5)
Zn1A Zn 0.49794(9) 1.15804(7) 0.38455(5)
Zn2_2 Zn 0.24220(13) 0.56384(9) -0.50027(6)
Zn2A Zn 0.75780(13) 1.06384(9) 0.50027(6)
O3A O 0.3961(11) 0.4921(5) 0.5313(4)
O4A O 0.5007(7) 0.5414(4) 0.6320(3)
O5_2 O 0.6657(10) 0.6957(6) 0.6796(4)
O6_2 O 0.7262(7) 0.6385(6) 0.5914(4)
O7_2 O 0.2056(6) 0.6361(4) 0.5779(3)
O8_2 O 0.3568(7) 0.6874(5) 0.6633(3)
loop_
_geom_bond_atom_site_label_1
_geom_bond_atom_site_label_2
_geom_bond_site_symmetry_1
_geom_bond_site_symmetry_2
Zn1 O1 1_555 1_555
Zn2 O2 1_555 1_555
C1 C2 1_555 1_555
C2 C3 1_555 1_555
O1 C1 1_555 1_555
O2 C1 1_555 1_555
O3 C8 1_555 1_555
O4 C8 1_555 1_555
O5 C39 1_555 1_555
O6 C39 1_555 1_555
O7 C40 1_555 1_555
O8 C40 1_555 1_555
O9 Zn2 1_555 1_555
O10 Zn2 1_555 1_555
C3 C4 1_555 1_555
C4 C5 1_555 1_555
C5 H1 1_555 1_555
C6 C5 1_555 1_555
C7 C2 1_555 1_555
H2 C7 1_555 1_555
C8 C4 1_555 1_555
C9 C6 1_555 1_555
C10 C9 1_555 1_555
C11 C10 1_555 1_555
H3 C11 1_555 1_555
C12 C11 1_555 1_555
C13 C12 1_555 1_555
H4 C13 1_555 1_555
C14 C13 1_555 1_555
H5 C14 1_555 1_555
C15 C10 1_555 1_555
C16 C15 1_555 1_555
C17 C16 1_555 1_555
O11 C17 1_555 1_555
C18 O11 1_555 1_555
H6 C18 1_555 1_555
H7 C18 1_555 1_555
C19 C18 1_555 1_555
H8 C19 1_555 1_555
H9 C19 1_555 1_555
H10 C19 1_555 1_555
C20 C9 1_555 1_555
H11 C20 1_555 1_555
C21 C16 1_555 1_555
C22 C21 1_555 1_555
C23 C22 1_555 1_555
H12 C23 1_555 1_555
C24 C23 1_555 1_555
H13 C24 1_555 1_555
C25 C24 1_555 1_555
C26 C25 1_555 1_555
H14 C26 1_555 1_555
C27 C22 1_555 1_555
C28 C27 1_555 1_555
C29 C28 1_555 1_555
H15 C29 1_555 1_555
C30 C21 1_555 1_555
O12 C30 1_555 1_555
C31 O12 1_555 1_555
H16 C31 1_555 1_555
H17 C31 1_555 1_555
C32 C31 1_555 1_555
H18 C32 1_555 1_555
H19 C32 1_555 1_555
H20 C32 1_555 1_555
C33 C28 1_555 1_555
C34 C33 1_555 1_555
H21 C34 1_555 1_555
C35 C34 1_555 1_555
C36 C35 1_555 1_555
H22 C36 1_555 1_555
C37 C36 1_555 1_555
C38 C33 1_555 1_555
H23 C38 1_555 1_555
C39 C35 1_555 1_555
C40 C37 1_555 1_555
Cl1 C12 1_555 1_555
Cl2 C25 1_555 1_555
Zn1_2 O5 1_555 1_555
Zn1_3 O8 1_555 1_555
Zn1A O4 1_555 1_555
Zn2_2 O7 1_555 1_555
Zn2A O3 1_555 1_555
O3A Zn2 1_555 1_555
O4A Zn1 1_555 1_555
O5_2 Zn1 1_555 1_555
O6_2 Zn1 1_555 1_555
O7_2 Zn2 1_555 1_555
O8_2 Zn1 1_555 1_555
O6 Zn1_2 1_555 1_555
C6 C7 1_555 1_555
C14 C15 1_555 1_555
C17 C20 1_555 1_555
C26 C27 1_555 1_555
C29 C30 1_555 1_555
C37 C38 1_555 1_555

#END
