
#######################################################################
#
#                 Cambridge Crystallographic Data Centre
#                                CCDC 
#
#######################################################################
#
# If this CIF has been generated from an entry in the Cambridge 
# Structural Database, then it will include bibliographic, chemical, 
# crystal, experimental, refinement or atomic coordinate data resulting 
# from the CCDC's data processing and validation procedures.
#
#######################################################################

data_HOBGEL
_chemical_formula_moiety         '(C23 H21 N5 Ni2 O8)n'
_symmetry_cell_setting           monoclinic
_symmetry_space_group_name_H-M   'C 2'
_symmetry_Int_Tables_number      5
_space_group_name_Hall           'C 2y'
loop_
_symmetry_equiv_pos_site_id
_symmetry_equiv_pos_as_xyz
1 x,y,z
2 -x,y,-z
3 1/2+x,1/2+y,z
4 1/2-x,1/2+y,-z
_cell_length_a                   30.840(15)
_cell_length_b                   6.574(3)
_cell_length_c                   7.704(4)
_cell_angle_alpha                90
_cell_angle_beta                 101.557(6)
_cell_angle_gamma                90
_cell_volume                     1530.26
loop_
_atom_site_label
_atom_site_type_symbol
_atom_site_fract_x
_atom_site_fract_y
_atom_site_fract_z
Ni1 Ni 0.27864(3) 0.26860(19) 0.27578(11)
O1 O 0.30640(19) 0.4895(10) 0.4589(8)
O2 O 0.3078(2) 0.4095(13) 1.0916(9)
C1 C 0.3787(2) -0.2061(15) 0.3363(11)
H1 H 0.3791 -0.3404 0.2911
O3 O 0.2499(2) 0.5469(11) 0.9102(9)
O4 O 0.2455(2) 0.6236(12) 0.5291(9)
C2 C 0.3736(3) 0.1736(17) 0.4578(15)
H2 H 0.3720 0.3078 0.5017
C3 C 0.4599(2) -0.231(2) 0.4679(17)
N1 N 0.3364(2) 0.0967(11) 0.3509(11)
C4 C 0.3397(3) -0.0924(13) 0.3009(12)
H3 H 0.3138 -0.1563 0.2362
C5 C 0.4163(3) -0.1238(15) 0.4364(17)
C6 C 0.4126(3) 0.0732(16) 0.5061(17)
H4 H 0.4369 0.1337 0.5848
N2 N 0.2845(2) 0.8910(11) 0.7688(12)
H5 H 0.2851 1.0085 0.7043
H6 H 0.2943 0.9198 0.8870
C7 C 0.3131(3) 0.725(2) 0.7076(12)
H7 H 0.3395 0.7879 0.6715
C8 C 0.2861(4) 0.6004(16) 0.5526(11)
N3 N 0.5000 -0.546(2) 0.5000
C9 C 0.5000 -0.125(2) 0.5000
H8 H 0.5000 0.0196 0.5000
C10 C 0.4618(3) -0.4386(16) 0.473(2)
H9 H 0.4347 -0.5117 0.4566
C11 C 0.2902(3) 0.5156(18) 0.9630(13)
C12 C 0.3273(3) 0.586(2) 0.8607(16)
H10 H 0.3511 0.6543 0.9465
H11 H 0.3404 0.4631 0.8175
Ni1_2 Ni 0.27864(3) 0.26860(19) -0.72422(11)
Ni1_3 Ni 0.27864(3) 0.26860(19) 1.27578(11)
Ni1C Ni 0.22136(3) 0.76860(19) 0.72422(11)
Ni1A Ni 0.72136(3) 0.26860(19) 0.72422(11)
Ni1C_2 Ni 0.22136(3) 0.76860(19) -0.27578(11)
O1_2 O 0.30640(19) 0.4895(10) -0.5411(8)
O2_2 O 0.3078(2) 0.4095(13) 0.0916(9)
O2_3 O 0.3078(2) 0.4095(13) -0.9084(9)
C1A C 0.6213(2) -0.2061(15) 0.6637(11)
H1A H 0.6209 -0.3404 0.7089
O3_2 O 0.2499(2) 0.5469(11) -0.0898(9)
O3C O 0.2501(2) 0.0469(11) 0.0898(9)
O3C_2 O 0.2501(2) 0.0469(11) -0.9102(9)
O4_2 O 0.2455(2) 0.6236(12) -0.4709(9)
O4C O 0.2545(2) 0.1236(12) 0.4709(9)
O4C_2 O 0.2545(2) 0.1236(12) -0.5291(9)
C2A C 0.6264(3) 0.1736(17) 0.5422(15)
H2A H 0.6280 0.3078 0.4983
C3A C 0.5401(2) -0.231(2) 0.5321(17)
N1A N 0.6636(2) 0.0967(11) 0.6491(11)
N1_2 N 0.3364(2) 0.0967(11) -0.6491(11)
C4A C 0.6603(3) -0.0924(13) 0.6991(12)
H3A H 0.6862 -0.1563 0.7638
C5A C 0.5837(3) -0.1238(15) 0.5636(17)
C6A C 0.5874(3) 0.0732(16) 0.4939(17)
H4A H 0.5631 0.1337 0.4152
N2_2 N 0.2845(2) 0.8910(11) -0.2312(12)
N2C N 0.2155(2) 0.3910(11) 0.2312(12)
N2C_2 N 0.2155(2) 0.3910(11) -0.7688(12)
H5_2 H 0.2851 1.0085 -0.2957
H5C H 0.2149 0.5085 0.2957
H5C_2 H 0.2149 0.5085 -0.7043
H6_2 H 0.2943 0.9198 -0.1130
H6C H 0.2057 0.4198 0.1130
H6C_2 H 0.2057 0.4198 -0.8870
C7_2 C 0.3131(3) 0.725(2) -0.2924(12)
H7_2 H 0.3395 0.7879 -0.3285
C8_2 C 0.2861(4) 0.6004(16) -0.4474(11)
C10A C 0.5382(3) -0.4386(16) 0.527(2)
H9A H 0.5653 -0.5117 0.5434
C11_2 C 0.2902(3) 0.5156(18) -0.0370(13)
C12_2 C 0.3273(3) 0.586(2) -0.1393(16)
H10_2 H 0.3511 0.6543 -0.0535
H11_2 H 0.3404 0.4631 -0.1825
loop_
_geom_bond_atom_site_label_1
_geom_bond_atom_site_label_2
_geom_bond_site_symmetry_1
_geom_bond_site_symmetry_2
Ni1 O1 1_555 1_555
O1 C8 1_555 1_555
O2 C11 1_555 1_555
C1 H1 1_555 1_555
O3 C11 1_555 1_555
O4 C8 1_555 1_555
C2 H2 1_555 1_555
C3 C5 1_555 1_555
N1 Ni1 1_555 1_555
C4 C1 1_555 1_555
H3 C4 1_555 1_555
C5 C1 1_555 1_555
C6 C2 1_555 1_555
H4 C6 1_555 1_555
N2 H5 1_555 1_555
H6 N2 1_555 1_555
C7 N2 1_555 1_555
H7 C7 1_555 1_555
C8 C7 1_555 1_555
N3 C10 1_555 1_555
C9 C3 1_555 1_555
H8 C9 1_555 1_555
C10 C3 1_555 1_555
H9 C10 1_555 1_555
C11 C12 1_555 1_555
C12 C7 1_555 1_555
H10 C12 1_555 1_555
H11 C12 1_555 1_555
Ni1_2 O1_2 1_555 1_555
Ni1_3 O2 1_555 1_555
Ni1C O3 1_555 1_555
Ni1A N1A 1_555 1_555
Ni1C_2 O3_2 1_555 1_555
O1_2 C8_2 1_555 1_555
O2_2 Ni1 1_555 1_555
O2_3 Ni1_2 1_555 1_555
C1A H1A 1_555 1_555
O3_2 C11_2 1_555 1_555
O3C Ni1 1_555 1_555
O3C_2 Ni1_2 1_555 1_555
O4_2 Ni1C_2 1_555 1_555
O4C Ni1 1_555 1_555
O4C_2 Ni1_2 1_555 1_555
C2A H2A 1_555 1_555
C3A C9 1_555 1_555
N1A C2A 1_555 1_555
N1_2 Ni1_2 1_555 1_555
C4A C1A 1_555 1_555
H3A C4A 1_555 1_555
C5A C1A 1_555 1_555
C6A C2A 1_555 1_555
H4A C6A 1_555 1_555
N2_2 Ni1C_2 1_555 1_555
N2C Ni1 1_555 1_555
N2C_2 Ni1_2 1_555 1_555
H5_2 N2_2 1_555 1_555
H5C N2C 1_555 1_555
H5C_2 N2C_2 1_555 1_555
H6_2 N2_2 1_555 1_555
H6C N2C 1_555 1_555
H6C_2 N2C_2 1_555 1_555
C7_2 N2_2 1_555 1_555
H7_2 C7_2 1_555 1_555
C8_2 O4_2 1_555 1_555
C10A N3 1_555 1_555
H9A C10A 1_555 1_555
C11_2 O2_2 1_555 1_555
C12_2 C7_2 1_555 1_555
H10_2 C12_2 1_555 1_555
H11_2 C12_2 1_555 1_555
O4 Ni1C 1_555 1_555
C2 N1 1_555 1_555
N1 C4 1_555 1_555
C5 C6 1_555 1_555
N2 Ni1C 1_555 1_555
C3A C5A 1_555 1_555
C3A C10A 1_555 1_555
N1A C4A 1_555 1_555
C5A C6A 1_555 1_555
C7_2 C8_2 1_555 1_555
C11_2 C12_2 1_555 1_555

#END
