
#######################################################################
#
#                 Cambridge Crystallographic Data Centre
#                                CCDC 
#
#######################################################################
#
# If this CIF has been generated from an entry in the Cambridge 
# Structural Database, then it will include bibliographic, chemical, 
# crystal, experimental, refinement or atomic coordinate data resulting 
# from the CCDC's data processing and validation procedures.
#
#######################################################################

data_HOBGOV
_chemical_formula_moiety         '(C20 H20 N4 Ni2 O8)n'
_symmetry_cell_setting           monoclinic
_symmetry_space_group_name_H-M   'P 21'
_symmetry_Int_Tables_number      4
_space_group_name_Hall           'P 2yb'
loop_
_symmetry_equiv_pos_site_id
_symmetry_equiv_pos_as_xyz
1 x,y,z
2 -x,1/2+y,-z
_cell_length_a                   6.429(4)
_cell_length_b                   25.180(15)
_cell_length_c                   7.874(5)
_cell_angle_alpha                90
_cell_angle_beta                 90.101(7)
_cell_angle_gamma                90
_cell_volume                     1274.66
loop_
_atom_site_label
_atom_site_type_symbol
_atom_site_fract_x
_atom_site_fract_y
_atom_site_fract_z
Ni1 Ni 0.1191(4) 0.7353(5) 1.1840(2)
Ni2 Ni 0.6192(3) 0.8055(5) 1.6881(2)
O1 O 0.3189(19) 0.7753(6) 1.3551(12)
C1 C 0.358(3) 0.8241(6) 1.3730(14)
O2 O 0.4550(17) 0.8436(6) 1.4947(12)
C2 C 0.2935(18) 0.8641(6) 1.2316(12)
H1 H 0.2142 0.8933 1.2854
H2 H 0.4219 0.8797 1.1838
C3 C 0.1674(14) 0.8429(6) 1.0888(11)
H3 H 0.1069 0.8734 1.0239
N1 N -0.0042(17) 0.8089(7) 1.1507(15)
H4 H -0.1106 0.8078 1.0725
H5 H -0.0556 0.8217 1.2516
C4 C 0.307(2) 0.8099(6) 0.9682(14)
O3 O 0.3016(19) 0.7618(6) 0.9932(15)
O4 O 0.4185(19) 0.8349(6) 0.8673(13)
O5 O -0.0828(18) 0.7079(6) 1.3595(11)
C5 C -0.176(2) 0.7282(6) 1.4823(14)
O6 O -0.181(2) 0.7786(6) 1.5005(17)
C6 C -0.219(2) 0.6803(6) 1.6042(13)
H6 H -0.3010 0.6532 1.5428
H7 H -0.0841 0.6640 1.6365
C7 C -0.3357(18) 0.6964(6) 1.7663(15)
H8 H -0.3977 0.6646 1.8230
N2 N -0.507(2) 0.7298(8) 1.676(2)
H9 H -0.6316 0.7279 1.7323
H10 H -0.5254 0.7191 1.5650
C8 C -0.161(2) 0.7208(6) 1.8773(18)
O7 O -0.0646(19) 0.6964(7) 1.9866(15)
O8 O -0.193(2) 0.7704(6) 1.8747(17)
N3 N 0.2965(13) 0.6655(5) 1.2145(15)
C9 C 0.2201(15) 0.6238(6) 1.2990(16)
H11 H 0.0777 0.6240 1.3309
C10 C 0.3415(15) 0.5803(6) 1.3415(17)
H12 H 0.2887 0.5542 1.4171
C11 C 0.5426(15) 0.5746(5) 1.2734(18)
C12 C 0.6153(17) 0.6179(6) 1.1798(18)
H13 H 0.7476 0.6165 1.1265
C13 C 0.4938(15) 0.6627(6) 1.1655(18)
H14 H 0.5549 0.6936 1.1174
C14 C 0.656(2) 0.5250(6) 1.285(2)
H15 H 0.5965 0.4985 1.3561
N4 N 1.2043(14) 0.3732(5) 1.2686(16)
C15 C 1.0134(16) 0.3758(6) 1.3349(17)
H16 H 0.9624 0.3462 1.3971
C16 C 0.8869(18) 0.4200(6) 1.3164(17)
H17 H 0.7497 0.4195 1.3608
C17 C 0.9602(16) 0.4656(5) 1.2323(18)
C18 C 1.1628(17) 0.4623(6) 1.1693(17)
H18 H 1.2259 0.4924 1.1179
C19 C 1.2704(18) 0.4152(6) 1.1822(19)
H19 H 1.4004 0.4126 1.1256
C20 C 0.831(2) 0.5122(6) 1.209(2)
H20 H 0.8798 0.5370 1.1274
Ni1_2 Ni 0.1191(4) 0.7353(5) 2.1840(2)
Ni2_2 Ni 0.6192(3) 0.8055(5) 0.6881(2)
Ni2_3 Ni -0.3808(3) 0.8055(5) 1.6881(2)
Ni2A Ni 1.3808(3) 0.3055(5) 1.3119(2)
O4_2 O 0.4185(19) 0.8349(6) 1.8673(13)
O6_2 O 0.819(2) 0.7786(6) 1.5005(17)
N2_2 N 0.493(2) 0.7298(8) 1.676(2)
H9_2 H 0.3684 0.7279 1.7323
H10_2 H 0.4746 0.7191 1.5650
O7_2 O -0.0646(19) 0.6964(7) 0.9866(15)
O8_2 O 0.807(2) 0.7704(6) 1.8747(17)
N4A N 0.7957(14) 0.8732(5) 1.7314(16)
loop_
_geom_bond_atom_site_label_1
_geom_bond_atom_site_label_2
_geom_bond_site_symmetry_1
_geom_bond_site_symmetry_2
Ni1 O1 1_555 1_555
Ni2 O2 1_555 1_555
O1 C1 1_555 1_555
C1 O2 1_555 1_555
C2 C1 1_555 1_555
H1 C2 1_555 1_555
H2 C2 1_555 1_555
C3 C2 1_555 1_555
H3 C3 1_555 1_555
N1 Ni1 1_555 1_555
H4 N1 1_555 1_555
H5 N1 1_555 1_555
C4 C3 1_555 1_555
O3 Ni1 1_555 1_555
O4 C4 1_555 1_555
O5 Ni1 1_555 1_555
C5 O5 1_555 1_555
O6 C5 1_555 1_555
C6 C5 1_555 1_555
H6 C6 1_555 1_555
H7 C6 1_555 1_555
C7 C6 1_555 1_555
H8 C7 1_555 1_555
N2 C7 1_555 1_555
H9 N2 1_555 1_555
H10 N2 1_555 1_555
C8 C7 1_555 1_555
O7 C8 1_555 1_555
O8 C8 1_555 1_555
N3 Ni1 1_555 1_555
C9 N3 1_555 1_555
H11 C9 1_555 1_555
C10 C9 1_555 1_555
H12 C10 1_555 1_555
C11 C10 1_555 1_555
C12 C11 1_555 1_555
H13 C12 1_555 1_555
C13 N3 1_555 1_555
H14 C13 1_555 1_555
C14 C11 1_555 1_555
H15 C14 1_555 1_555
N4 C15 1_555 1_555
C15 H16 1_555 1_555
C16 C15 1_555 1_555
H17 C16 1_555 1_555
C17 C16 1_555 1_555
C18 C17 1_555 1_555
H18 C18 1_555 1_555
C19 N4 1_555 1_555
H19 C19 1_555 1_555
C20 C14 1_555 1_555
H20 C20 1_555 1_555
Ni1_2 O7 1_555 1_555
Ni2_2 O4 1_555 1_555
Ni2_3 O6 1_555 1_555
Ni2A N4 1_555 1_555
O4_2 Ni2 1_555 1_555
O6_2 Ni2 1_555 1_555
N2_2 Ni2 1_555 1_555
H9_2 N2_2 1_555 1_555
H10_2 N2_2 1_555 1_555
O7_2 Ni1 1_555 1_555
O8_2 Ni2 1_555 1_555
N4A Ni2 1_555 1_555
C3 N1 1_555 1_555
C4 O3 1_555 1_555
N2 Ni2_3 1_555 1_555
O8 Ni2_3 1_555 1_555
C12 C13 1_555 1_555
C17 C20 1_555 1_555
C18 C19 1_555 1_555

#END
