
#######################################################################
#
#                 Cambridge Crystallographic Data Centre
#                                CCDC 
#
#######################################################################
#
# If this CIF has been generated from an entry in the Cambridge 
# Structural Database, then it will include bibliographic, chemical, 
# crystal, experimental, refinement or atomic coordinate data resulting 
# from the CCDC's data processing and validation procedures.
#
#######################################################################

data_IKOTUZ
_chemical_formula_moiety         '(C14 H8 K1 O11 S2 Sm1)n'
_symmetry_cell_setting           rhombohedral
_symmetry_space_group_name_H-M   'R 3 c'
_symmetry_Int_Tables_number      161
_space_group_name_Hall           'R 3 -2"c'
loop_
_symmetry_equiv_pos_site_id
_symmetry_equiv_pos_as_xyz
1 x,y,z
2 -y,x-y,z
3 -x+y,-x,z
4 -y,-x,1/2+z
5 -x+y,y,1/2+z
6 x,x-y,1/2+z
7 2/3+x,1/3+y,1/3+z
8 2/3-y,1/3+x-y,1/3+z
9 2/3-x+y,1/3-x,1/3+z
10 2/3-y,1/3-x,5/6+z
11 2/3-x+y,1/3+y,5/6+z
12 2/3+x,1/3+x-y,5/6+z
13 1/3+x,2/3+y,2/3+z
14 1/3-y,2/3+x-y,2/3+z
15 1/3-x+y,2/3-x,2/3+z
16 1/3-y,2/3-x,1/6+z
17 1/3-x+y,2/3+y,1/6+z
18 1/3+x,2/3+x-y,1/6+z
_cell_length_a                   48.832(2)
_cell_length_b                   48.832(2)
_cell_length_c                   8.4834(6)
_cell_angle_alpha                90
_cell_angle_beta                 90
_cell_angle_gamma                120
_cell_volume                     17519
loop_
_atom_site_label
_atom_site_type_symbol
_atom_site_fract_x
_atom_site_fract_y
_atom_site_fract_z
K1 K 0.40824(6) 0.91404(6) 0.2374(2)
Sm1 Sm 0.48613(2) 0.99175(2) -0.45134(5)
S1 S 0.42463(3) 0.90999(3) -0.39475(18)
S2 S 0.24365(3) 0.91847(3) -0.23178(17)
O1 O 0.46616(10) 0.97207(11) -0.1897(5)
O2 O 0.44750(9) 0.95655(10) 0.0485(5)
O3 O 0.44462(9) 0.93776(10) -0.4931(5)
O4 O 0.40400(11) 0.88309(11) -0.4937(6)
O5 O 0.44237(12) 0.90400(13) -0.2793(7)
O6 O 0.21221(11) 0.85286(11) -0.6177(6)
O7 O 0.19361(10) 0.85085(11) -0.3798(5)
O8 O 0.22789(11) 0.92322(12) -0.3629(6)
O9 O 0.22163(10) 0.89550(10) -0.1171(6)
O10 O 0.26755(10) 0.94725(10) -0.1559(6)
C1 C 0.40965(13) 0.93963(15) -0.1573(6)
C2 C 0.39915(13) 0.91960(15) -0.2867(7)
C3 C 0.36812(13) 0.90654(16) -0.3367(8)
H1 H 0.3616 0.8941 -0.4270
C4 C 0.34626(16) 0.91187(19) -0.2529(8)
C5 C 0.35665(15) 0.92992(18) -0.1206(8)
H2 H 0.3425 0.9329 -0.0604
C6 C 0.38797(16) 0.94392(19) -0.0736(8)
H3 H 0.3945 0.9565 0.0164
C7 C 0.44287(12) 0.95660(13) -0.0949(7)
C8 C 0.31322(15) 0.89841(19) -0.3113(8)
C9 C 0.29868(14) 0.87241(18) -0.4082(9)
H4 H 0.3097 0.8622 -0.4378
C10 C 0.26836(15) 0.86107(18) -0.4626(9)
H5 H 0.2600 0.8446 -0.5354
C11 C 0.25019(14) 0.87352(15) -0.4115(8)
C12 C 0.26358(13) 0.89911(15) -0.3109(7)
C13 C 0.29555(14) 0.91227(15) -0.2654(8)
H6 H 0.3049 0.9305 -0.2039
C14 C 0.21660(14) 0.85863(14) -0.4723(7)
O11 O 0.50005(14) 1.04471(14) -0.3787(8)
K1_2 K 0.40824(6) 0.91404(6) -0.7626(2)
K1D K 0.50580(8) 0.91404(6) -0.2626(2)
K1H K 0.17247(8) 0.92509(6) -0.4293(2)
Sm1D Sm 0.50562(3) 0.99175(2) 0.04866(5)
Sm1H Sm 0.17229(3) 0.84720(2) -0.11801(5)
Sm1K Sm 0.15280(2) 0.82771(3) -0.61801(5)
O1D O 0.50591(15) 0.97207(11) -0.6897(5)
O2D O 0.50905(13) 0.95655(10) -0.4515(5)
O3_2 O 0.44462(9) 0.93776(10) 0.5069(5)
O4_2 O 0.40400(11) 0.88309(11) 0.5063(6)
O5D O 0.46163(18) 0.90400(13) 0.2207(7)
O6Q O 0.54554(11) 1.02602(16) -0.4510(6)
O7M O 0.48248(11) 1.00943(15) -0.7131(5)
O7Q O 0.52694(10) 1.00943(15) -0.2131(5)
O8M O 0.41011(12) 0.97134(16) 0.3038(6)
O9M O 0.43783(10) 0.99280(14) -0.4504(6)
loop_
_geom_bond_atom_site_label_1
_geom_bond_atom_site_label_2
_geom_bond_site_symmetry_1
_geom_bond_site_symmetry_2
K1 O2 1_555 1_555
Sm1 O1 1_555 1_555
S1 O3 1_555 1_555
S2 O8 1_555 1_555
O1 C7 1_555 1_555
O2 C7 1_555 1_555
O3 Sm1 1_555 1_555
O4 S1 1_555 1_555
O5 S1 1_555 1_555
O6 C14 1_555 1_555
O7 C14 1_555 1_555
O8 K1H 1_555 1_555
O9 S2 1_555 1_555
O10 S2 1_555 1_555
C1 C2 1_555 1_555
C2 S1 1_555 1_555
C3 C2 1_555 1_555
H1 C3 1_555 1_555
C4 C3 1_555 1_555
C5 C4 1_555 1_555
H2 C5 1_555 1_555
C6 K1 1_555 1_555
H3 C6 1_555 1_555
C7 C1 1_555 1_555
C8 C4 1_555 1_555
C9 C8 1_555 1_555
H4 C9 1_555 1_555
C10 C9 1_555 1_555
H5 C10 1_555 1_555
C11 C10 1_555 1_555
C12 S2 1_555 1_555
C13 C8 1_555 1_555
H6 C13 1_555 1_555
C14 C11 1_555 1_555
O11 Sm1 1_555 1_555
K1_2 O3 1_555 1_555
K1D O5 1_555 1_555
Sm1D O1 1_555 1_555
Sm1H O7 1_555 1_555
Sm1K O6 1_555 1_555
O1D Sm1 1_555 1_555
O2D Sm1 1_555 1_555
O3_2 K1 1_555 1_555
O4_2 K1 1_555 1_555
O5D K1 1_555 1_555
O6Q Sm1 1_555 1_555
O7M Sm1 1_555 1_555
O7Q Sm1 1_555 1_555
O8M K1 1_555 1_555
O9M Sm1 1_555 1_555
O2 Sm1D 1_555 1_555
O4 K1_2 1_555 1_555
O7 Sm1K 1_555 1_555
O9 Sm1H 1_555 1_555
C1 C6 1_555 1_555
C5 C6 1_555 1_555
C11 C12 1_555 1_555
C12 C13 1_555 1_555
K1D O2D 1_555 1_555
Sm1D O7Q 1_555 1_555

#END
