
#######################################################################
#
#                 Cambridge Crystallographic Data Centre
#                                CCDC 
#
#######################################################################
#
# If this CIF has been generated from an entry in the Cambridge 
# Structural Database, then it will include bibliographic, chemical, 
# crystal, experimental, refinement or atomic coordinate data resulting 
# from the CCDC's data processing and validation procedures.
#
#######################################################################

data_IKOVAH
_chemical_formula_moiety         '(C14 H8 Eu1 K1 O11 S2)n'
_symmetry_cell_setting           rhombohedral
_symmetry_space_group_name_H-M   'R 3 c'
_symmetry_Int_Tables_number      161
_space_group_name_Hall           'R 3 -2"c'
loop_
_symmetry_equiv_pos_site_id
_symmetry_equiv_pos_as_xyz
1 x,y,z
2 -y,x-y,z
3 -x+y,-x,z
4 -y,-x,1/2+z
5 -x+y,y,1/2+z
6 x,x-y,1/2+z
7 2/3+x,1/3+y,1/3+z
8 2/3-y,1/3+x-y,1/3+z
9 2/3-x+y,1/3-x,1/3+z
10 2/3-y,1/3-x,5/6+z
11 2/3-x+y,1/3+y,5/6+z
12 2/3+x,1/3+x-y,5/6+z
13 1/3+x,2/3+y,2/3+z
14 1/3-y,2/3+x-y,2/3+z
15 1/3-x+y,2/3-x,2/3+z
16 1/3-y,2/3-x,1/6+z
17 1/3-x+y,2/3+y,1/6+z
18 1/3+x,2/3+x-y,1/6+z
_cell_length_a                   48.7999(3)
_cell_length_b                   48.7999(3)
_cell_length_c                   8.45290(10)
_cell_angle_alpha                90
_cell_angle_beta                 90
_cell_angle_gamma                120
_cell_volume                     17433.1
loop_
_atom_site_label
_atom_site_type_symbol
_atom_site_fract_x
_atom_site_fract_y
_atom_site_fract_z
K1 K 0.82706(5) 0.07445(5) -0.56842(19)
Eu1 Eu 0.82765(2) 0.15298(2) 0.11809(4)
S1 S 0.84792(3) 0.09178(3) 0.06418(15)
S2 S 0.65891(3) -0.08968(3) -0.10120(15)
O1 O 0.82728(9) 0.13320(9) -0.1404(4)
O2 O 0.82386(9) 0.11444(8) -0.3782(4)
O3 O 0.84006(9) 0.11159(9) 0.1630(5)
O4 O 0.85410(11) 0.07122(10) 0.1647(5)
O5 O 0.87188(10) 0.10960(10) -0.0504(6)
O6 O 0.69302(10) -0.12123(10) 0.2860(5)
O7 O 0.67663(10) -0.13942(9) 0.0484(5)
O8 O 0.63836(11) -0.10548(10) 0.0312(5)
O9 O 0.65993(10) -0.11160(9) -0.2158(5)
O10 O 0.65419(11) -0.06578(9) -0.1781(5)
O11 O 0.78907(12) 0.16720(13) 0.0500(7)
C1 C 0.80321(13) 0.07694(12) -0.1733(6)
C2 C 0.81253(13) 0.06626(11) -0.0431(6)
C3 C 0.79487(14) 0.03490(12) 0.0052(7)
H1 H 0.8013 0.0283 0.0938
C4 C 0.76818(16) 0.01347(14) -0.0749(7)
C5 C 0.76037(15) 0.02343(14) -0.2086(7)
H2 H 0.7434 0.0088 -0.2689
C6 C 0.77718(14) 0.05511(14) -0.2584(7)
H3 H 0.7708 0.0614 -0.3485
C7 C 0.81949(11) 0.11027(12) -0.2352(6)
C8 C 0.74842(15) -0.01950(13) -0.0196(6)
C9 C 0.76054(16) -0.03433(14) 0.0773(8)
H4 H 0.7818 -0.0235 0.1054
C10 C 0.74136(16) -0.06454(13) 0.1309(8)
H5 H 0.7493 -0.0730 0.2039
C11 C 0.71039(14) -0.08279(13) 0.0791(6)
C12 C 0.69822(14) -0.06980(12) -0.0205(6)
C13 C 0.71706(14) -0.03775(12) -0.0661(7)
H6 H 0.7081 -0.0286 -0.1291
C14 C 0.69184(13) -0.11672(13) 0.1400(6)
K1_2 K 0.82706(5) 0.07445(5) 0.43158(19)
K1C K 0.92555(5) 0.17294(5) -0.06842(19)
K1N K 0.58072(7) -0.16039(5) 0.09825(19)
Eu1C Eu 0.84702(2) 0.17235(2) -0.38191(4)
Eu1N Eu 0.65866(3) -0.16098(2) -0.21524(4)
Eu1P Eu 0.65866(3) -0.18035(2) 0.28476(4)
O1C O 0.86680(9) 0.17272(9) 0.3596(4)
O2C O 0.88556(8) 0.17614(9) 0.1218(4)
O3_2 O 0.84006(9) 0.11159(9) -0.8370(5)
O4_2 O 0.85410(11) 0.07122(10) -0.8353(5)
O5C O 0.89040(10) 0.12812(10) -0.5504(6)
O6J O 0.85242(14) 0.21210(10) 0.1193(5)
O7G O 0.80609(9) 0.14938(13) 0.3817(5)
O7J O 0.85062(13) 0.19391(9) -0.1183(5)
O8G O 0.77215(10) 0.07717(15) -0.6355(5)
O9G O 0.77827(9) 0.10486(13) 0.1175(5)
loop_
_geom_bond_atom_site_label_1
_geom_bond_atom_site_label_2
_geom_bond_site_symmetry_1
_geom_bond_site_symmetry_2
K1 O2 1_555 1_555
Eu1 O1 1_555 1_555
S1 O3 1_555 1_555
S2 O8 1_555 1_555
O1 C7 1_555 1_555
O2 C7 1_555 1_555
O3 Eu1 1_555 1_555
O4 S1 1_555 1_555
O5 S1 1_555 1_555
O6 C14 1_555 1_555
O7 C14 1_555 1_555
O8 K1N 1_555 1_555
O9 S2 1_555 1_555
O10 S2 1_555 1_555
O11 Eu1 1_555 1_555
C1 C2 1_555 1_555
C2 S1 1_555 1_555
C3 C2 1_555 1_555
H1 C3 1_555 1_555
C4 C3 1_555 1_555
C5 C4 1_555 1_555
H2 C5 1_555 1_555
C6 K1 1_555 1_555
H3 C6 1_555 1_555
C7 C1 1_555 1_555
C8 C4 1_555 1_555
C9 C8 1_555 1_555
H4 C9 1_555 1_555
C10 C9 1_555 1_555
H5 C10 1_555 1_555
C11 C10 1_555 1_555
C12 S2 1_555 1_555
C13 C8 1_555 1_555
H6 C13 1_555 1_555
C14 C11 1_555 1_555
K1_2 O3 1_555 1_555
K1C O5 1_555 1_555
Eu1C O1 1_555 1_555
Eu1N O7 1_555 1_555
Eu1P O6 1_555 1_555
O1C Eu1 1_555 1_555
O2C Eu1 1_555 1_555
O3_2 K1 1_555 1_555
O4_2 K1 1_555 1_555
O5C K1 1_555 1_555
O6J Eu1 1_555 1_555
O7G Eu1 1_555 1_555
O7J Eu1 1_555 1_555
O8G K1 1_555 1_555
O9G Eu1 1_555 1_555
O2 Eu1C 1_555 1_555
O4 K1_2 1_555 1_555
O7 Eu1P 1_555 1_555
O9 Eu1N 1_555 1_555
C1 C6 1_555 1_555
C5 C6 1_555 1_555
C11 C12 1_555 1_555
C12 C13 1_555 1_555
K1C O2C 1_555 1_555
Eu1C O7J 1_555 1_555

#END
