
#######################################################################
#
#                 Cambridge Crystallographic Data Centre
#                                CCDC 
#
#######################################################################
#
# If this CIF has been generated from an entry in the Cambridge 
# Structural Database, then it will include bibliographic, chemical, 
# crystal, experimental, refinement or atomic coordinate data resulting 
# from the CCDC's data processing and validation procedures.
#
#######################################################################

data_IKOVEL
_chemical_formula_moiety         '(C17 H15 K1 N1 O12 Pr1 S2)n'
_symmetry_cell_setting           rhombohedral
_symmetry_space_group_name_H-M   'R 3 c'
_symmetry_Int_Tables_number      161
_space_group_name_Hall           'R 3 -2"c'
loop_
_symmetry_equiv_pos_site_id
_symmetry_equiv_pos_as_xyz
1 x,y,z
2 -y,x-y,z
3 -x+y,-x,z
4 -y,-x,1/2+z
5 -x+y,y,1/2+z
6 x,x-y,1/2+z
7 2/3+x,1/3+y,1/3+z
8 2/3-y,1/3+x-y,1/3+z
9 2/3-x+y,1/3-x,1/3+z
10 2/3-y,1/3-x,5/6+z
11 2/3-x+y,1/3+y,5/6+z
12 2/3+x,1/3+x-y,5/6+z
13 1/3+x,2/3+y,2/3+z
14 1/3-y,2/3+x-y,2/3+z
15 1/3-x+y,2/3-x,2/3+z
16 1/3-y,2/3-x,1/6+z
17 1/3-x+y,2/3+y,1/6+z
18 1/3+x,2/3+x-y,1/6+z
_cell_length_a                   48.884(2)
_cell_length_b                   48.884(2)
_cell_length_c                   8.5632(6)
_cell_angle_alpha                90
_cell_angle_beta                 90
_cell_angle_gamma                120
_cell_volume                     17721.5
loop_
_atom_site_label
_atom_site_type_symbol
_atom_site_fract_x
_atom_site_fract_y
_atom_site_fract_z
K1 K 0.59219(5) 0.08755(5) 0.7590(2)
Pr1 Pr 0.51478(2) 0.00956(2) 1.45095(4)
S1 S 0.57690(3) 0.09194(4) 1.39234(18)
S2 S 0.75601(3) 0.08047(3) 1.23701(17)
O1 O 0.53509(10) 0.02976(11) 1.1906(5)
O2 O 0.55390(9) 0.04554(10) 0.9542(5)
O3 O 0.55723(10) 0.06459(10) 1.4926(5)
O4 O 0.59792(11) 0.11928(12) 1.4916(6)
O5 O 0.55890(12) 0.09765(13) 1.2785(7)
O6 O 0.78779(10) 0.14602(11) 1.6210(5)
O7 O 0.80636(10) 0.14848(11) 1.3838(5)
O8 O 0.77202(12) 0.07590(13) 1.3681(6)
O9 O 0.77761(9) 0.10265(10) 1.1221(5)
O10 O 0.73248(11) 0.05192(11) 1.1667(6)
C1 C 0.59147(14) 0.06200(15) 1.1574(7)
C2 C 0.60164(12) 0.08104(15) 1.2898(7)
C3 C 0.63274(14) 0.09456(17) 1.3385(7)
H1 H 0.6392 0.1074 1.4265
C4 C 0.65483(15) 0.08929(19) 1.2575(8)
C5 C 0.64461(16) 0.0714(2) 1.1228(8)
H2 H 0.6589 0.0683 1.0647
C6 C 0.61331(15) 0.05798(19) 1.0715(8)
H3 H 0.6071 0.0463 0.9795
C7 C 0.55809(13) 0.04502(14) 1.0993(6)
C8 C 0.68770(15) 0.10228(18) 1.3125(8)
C9 C 0.70185(16) 0.1281(2) 1.4125(9)
H4 H 0.6908 0.1380 1.4450
C10 C 0.73259(15) 0.13914(19) 1.4639(9)
H5 H 0.7415 0.1560 1.5333
C11 C 0.75007(15) 0.12618(16) 1.4164(7)
C12 C 0.73595(14) 0.09983(15) 1.3126(7)
C13 C 0.70517(14) 0.08814(17) 1.2673(8)
H6 H 0.6956 0.0702 1.2044
C14 C 0.78321(14) 0.14083(14) 1.4782(7)
O11 O 0.50010(15) -0.04401(15) 1.3831(7)
C15 C 0.5030(6) -0.0603(6) 1.308(3)
N1 N 0.4876(4) -0.0937(4) 1.3143(19)
C16 C 0.4688(6) -0.1041(7) 1.452(3)
C17 C 0.5007(10) -0.1132(10) 1.266(5)
O12 O 0.6540(8) 0.1331(8) 0.766(4)
K1_2 K 0.59219(5) 0.08755(5) 1.7590(2)
K1D K 0.49536(7) 0.08755(5) 1.2590(2)
K1N K 0.82869(7) 0.07448(5) 1.4257(2)
Pr1D Pr 0.49478(3) 0.00956(2) 0.95095(4)
Pr1N Pr 0.82811(3) 0.15189(2) 1.11762(4)
Pr1Q Pr 0.84811(2) 0.17189(3) 1.61762(4)
O1D O 0.49467(15) 0.02976(11) 1.6906(5)
O2D O 0.49164(13) 0.04554(10) 1.4542(5)
O3_2 O 0.55723(10) 0.06459(10) 0.4926(5)
O4_2 O 0.59792(11) 0.11928(12) 0.4916(6)
O5D O 0.53875(18) 0.09765(13) 0.7785(7)
O6K O 0.45446(10) -0.02490(15) 1.4543(5)
O7G O 0.51819(11) -0.00879(15) 1.7171(5)
O7K O 0.47303(10) -0.00879(15) 1.2171(5)
O8G O 0.59077(13) 0.02945(18) 0.7014(6)
O9G O 0.56402(10) 0.00829(13) 1.4554(5)
loop_
_geom_bond_atom_site_label_1
_geom_bond_atom_site_label_2
_geom_bond_site_symmetry_1
_geom_bond_site_symmetry_2
K1 O2 1_555 1_555
Pr1 O1 1_555 1_555
S1 O3 1_555 1_555
S2 O8 1_555 1_555
O1 C7 1_555 1_555
O2 C7 1_555 1_555
O3 Pr1 1_555 1_555
O4 S1 1_555 1_555
O5 S1 1_555 1_555
O6 C14 1_555 1_555
O7 C14 1_555 1_555
O8 K1N 1_555 1_555
O9 S2 1_555 1_555
O10 S2 1_555 1_555
C1 C2 1_555 1_555
C2 S1 1_555 1_555
C3 C2 1_555 1_555
H1 C3 1_555 1_555
C4 C3 1_555 1_555
C5 C4 1_555 1_555
H2 C5 1_555 1_555
C6 C1 1_555 1_555
H3 C6 1_555 1_555
C7 C1 1_555 1_555
C8 C4 1_555 1_555
C9 C8 1_555 1_555
H4 C9 1_555 1_555
C10 C9 1_555 1_555
H5 C10 1_555 1_555
C11 C10 1_555 1_555
C12 S2 1_555 1_555
C13 C8 1_555 1_555
H6 C13 1_555 1_555
C14 C11 1_555 1_555
O11 Pr1 1_555 1_555
C15 O11 1_555 1_555
N1 C15 1_555 1_555
C16 N1 1_555 1_555
C17 N1 1_555 1_555
O12 K1 1_555 1_555
K1_2 O3 1_555 1_555
K1D O5 1_555 1_555
Pr1D O1 1_555 1_555
Pr1N O7 1_555 1_555
Pr1Q O6 1_555 1_555
O1D Pr1 1_555 1_555
O2D Pr1 1_555 1_555
O3_2 K1 1_555 1_555
O4_2 K1 1_555 1_555
O5D K1 1_555 1_555
O6K Pr1 1_555 1_555
O7G Pr1 1_555 1_555
O7K Pr1 1_555 1_555
O8G K1 1_555 1_555
O9G Pr1 1_555 1_555
O2 Pr1D 1_555 1_555
O4 K1_2 1_555 1_555
O7 Pr1Q 1_555 1_555
O9 Pr1N 1_555 1_555
C5 C6 1_555 1_555
C11 C12 1_555 1_555
C12 C13 1_555 1_555
K1D O2D 1_555 1_555
Pr1D O7K 1_555 1_555

#END
