
#######################################################################
#
#                 Cambridge Crystallographic Data Centre
#                                CCDC 
#
#######################################################################
#
# If this CIF has been generated from an entry in the Cambridge 
# Structural Database, then it will include bibliographic, chemical, 
# crystal, experimental, refinement or atomic coordinate data resulting 
# from the CCDC's data processing and validation procedures.
#
#######################################################################

data_ELECIJ
_chemical_formula_moiety         '(C42 H35 Eu2 N2 O24 1-)n'
_symmetry_cell_setting           orthorhombic
_symmetry_space_group_name_H-M   'P b c n'
_symmetry_Int_Tables_number      60
_space_group_name_Hall           '-P 2n 2ab'
loop_
_symmetry_equiv_pos_site_id
_symmetry_equiv_pos_as_xyz
1 x,y,z
2 1/2-x,1/2-y,1/2+z
3 1/2+x,1/2-y,-z
4 -x,y,1/2-z
5 -x,-y,-z
6 1/2+x,1/2+y,1/2-z
7 1/2-x,1/2+y,z
8 x,-y,1/2+z
_cell_length_a                   27.8885(7)
_cell_length_b                   11.4437(3)
_cell_length_c                   17.7204(5)
_cell_angle_alpha                90
_cell_angle_beta                 90
_cell_angle_gamma                90
_cell_volume                     5655.42
loop_
_atom_site_label
_atom_site_type_symbol
_atom_site_fract_x
_atom_site_fract_y
_atom_site_fract_z
Eu1 Eu 0.06808(2) 0.18380(2) 0.22246(2)
O1 O 0.12485(13) 0.3020(3) 0.1497(2)
O2 O 0.13729(14) 0.3041(3) 0.2721(2)
O3 O 0.35122(14) 0.5346(4) 0.0853(3)
O4 O 0.36188(13) 0.5617(3) 0.2076(2)
O5 O 0.1946(9) 0.339(3) 0.0585(10)
H1 H 0.1683 0.3137 0.0712
O6 O 0.2896(11) 0.535(4) 0.3008(10)
H2 H 0.3184 0.5446 0.2937
O7 O 0.08154(12) 0.1167(3) 0.3568(2)
O8 O 0.01064(12) 0.1868(3) 0.32865(19)
O9 O -0.06504(12) 0.1151(3) 0.4085(2)
H3 H -0.0914 0.0842 0.4133
O10 O 0.03799(13) -0.0141(3) 0.2300(2)
O11 O 0.03803(13) -0.6210(3) 0.2306(2)
O12 O 0.0801(3) -0.2074(7) 0.1939(6)
H4 H 0.0784 -0.1361 0.1974
C1 C 0.1503(2) 0.3293(5) 0.2063(3)
C2 C 0.1979(2) 0.3855(5) 0.1923(3)
C3 C 0.2164(2) 0.3927(6) 0.1200(3)
C4 C 0.2615(2) 0.4391(6) 0.1080(4)
H5 H 0.2737 0.4430 0.0592
C5 C 0.2887(2) 0.4798(5) 0.1679(4)
C6 C 0.2699(2) 0.4734(7) 0.2401(4)
C7 C 0.2251(2) 0.4263(6) 0.2520(4)
H6 H 0.2129 0.4219 0.3008
C8 C 0.3375(2) 0.5280(5) 0.1515(4)
C9 C 0.03764(18) 0.1251(4) 0.3718(3)
C10 C 0.01653(18) 0.0635(4) 0.4376(3)
C11 C -0.03243(18) 0.0583(4) 0.4529(3)
C12 C -0.04772(19) -0.0041(5) 0.5145(3)
H7 H -0.0804 -0.0069 0.5247
C13 C 0.0000 -0.0641(6) 0.2500
C14 C 0.0000 -0.1950(6) 0.2500
C15 C 0.0386(2) -0.2569(5) 0.2215(4)
C16 C 0.0392(2) -0.3784(5) 0.2219(4)
H8 H 0.0664 -0.4206 0.2028
C17 C 0.0000 -0.4387(6) 0.2500
C18 C 0.0000 -0.5695(6) 0.2500
O7D O -0.08154(12) -0.1167(3) 0.6432(2)
O8D O -0.01064(12) -0.1868(3) 0.67135(19)
O9D O 0.06504(12) -0.1151(3) 0.5915(2)
H3D H 0.0914 -0.0842 0.5867
C9D C -0.03764(18) -0.1251(4) 0.6282(3)
C10D C -0.01653(18) -0.0635(4) 0.5624(3)
C11D C 0.03243(18) -0.0583(4) 0.5471(3)
C12D C 0.04772(19) 0.0041(5) 0.4855(3)
H7D H 0.0804 0.0069 0.4753
O10C O -0.03799(13) -0.0141(3) 0.2700(2)
O11C O -0.03803(13) -0.6210(3) 0.2694(2)
O12C O -0.0801(3) -0.2074(7) 0.3061(6)
H4C H -0.0784 -0.1361 0.3026
C15C C -0.0386(2) -0.2569(5) 0.2785(4)
C16C C -0.0392(2) -0.3784(5) 0.2781(4)
H8C H -0.0664 -0.4206 0.2972
Eu1C Eu -0.06808(2) 0.18380(2) 0.27754(2)
O1C O -0.12485(13) 0.3020(3) 0.3503(2)
O2C O -0.13729(14) 0.3041(3) 0.2279(2)
O3C O -0.35122(14) 0.5346(4) 0.4147(3)
O4C O -0.36188(13) 0.5617(3) 0.2924(2)
O5C O -0.1946(9) 0.339(3) 0.4415(10)
H1C H -0.1683 0.3137 0.4288
O6C O -0.2896(11) 0.535(4) 0.1992(10)
H2C H -0.3184 0.5446 0.2063
C1C C -0.1503(2) 0.3293(5) 0.2937(3)
C2C C -0.1979(2) 0.3855(5) 0.3077(3)
C3C C -0.2164(2) 0.3927(6) 0.3800(3)
C4C C -0.2615(2) 0.4391(6) 0.3920(4)
H5C H -0.2737 0.4430 0.4408
C5C C -0.2887(2) 0.4798(5) 0.3321(4)
C6C C -0.2699(2) 0.4734(7) 0.2599(4)
C7C C -0.2251(2) 0.4263(6) 0.2480(4)
H6C H -0.2129 0.4219 0.1992
C8C C -0.3375(2) 0.5280(5) 0.3485(4)
Eu1_2 Eu 0.06808(2) -0.81620(2) 0.22246(2)
Eu1C_2 Eu -0.06808(2) -0.81620(2) 0.27754(2)
Eu1D Eu -0.06808(2) -0.18380(2) 0.77754(2)
Eu1E Eu -0.43192(2) 0.68380(2) 0.27754(2)
Eu1F Eu 0.43192(2) 0.68380(2) 0.22246(2)
Eu1G Eu 0.06808(2) -0.18380(2) 0.72246(2)
O4E O -0.13812(13) 0.0617(3) 0.2924(2)
O4F O 0.13812(13) 0.0617(3) 0.2076(2)
O7C O -0.08154(12) 0.1167(3) 0.1432(2)
O8C O -0.01064(12) 0.1868(3) 0.17135(19)
O9C O 0.06504(12) 0.1151(3) 0.0915(2)
O11_2 O 0.03803(13) 0.3790(3) 0.2306(2)
O11C_2 O -0.03803(13) 0.3790(3) 0.2694(2)
N3 N 0.2238(6) 0.7529(16) -0.0631(10)
N4 N 0.1626(5) 0.7195(14) -0.0053(9)
C29 C 0.2387(6) 0.6766(15) -0.0089(11)
H32 H 0.2694 0.6471 -0.0005
C30 C 0.1964(7) 0.6536(14) 0.0311(9)
H33 H 0.1922 0.6050 0.0726
C31 C 0.1770(6) 0.7841(14) -0.0648(9)
H34 H 0.1602 0.8340 -0.0967
C32 C 0.1133(6) 0.6935(19) 0.0128(14)
H35 H 0.0991 0.7690 0.0238
H36 H 0.1149 0.6528 0.0608
C33 C 0.0741(7) 0.6273(14) -0.0326(12)
H37 H 0.0431 0.6591 -0.0185
H38 H 0.0788 0.6443 -0.0857
C34 C 0.0718(7) 0.4933(13) -0.0233(11)
H39 H 0.0828 0.4746 0.0272
H40 H 0.0385 0.4699 -0.0265
C35 C 0.1004(7) 0.4183(12) -0.0789(12)
H41 H 0.1341 0.4265 -0.0664
H42 H 0.0959 0.4514 -0.1288
C36 C 0.0893(8) 0.2871(14) -0.0840(15)
H43 H 0.0601 0.2777 -0.1129
H44 H 0.0829 0.2590 -0.0333
C37 C 0.1282(9) 0.2071(17) -0.1194(16)
H45 H 0.1372 0.1478 -0.0839
H46 H 0.1559 0.2530 -0.1322
H47 H 0.1157 0.1710 -0.1642
C38 C 0.2581(7) 0.801(2) -0.1153(12)
H48 H 0.2426 0.8175 -0.1624
H49 H 0.2834 0.7452 -0.1235
H50 H 0.2713 0.8715 -0.0948
loop_
_geom_bond_atom_site_label_1
_geom_bond_atom_site_label_2
_geom_bond_site_symmetry_1
_geom_bond_site_symmetry_2
Eu1 O1 1_555 1_555
O1 C1 1_555 1_555
O2 Eu1 1_555 1_555
O3 C8 1_555 1_555
O4 C8 1_555 1_555
O5 H1 1_555 1_555
O6 H2 1_555 1_555
O7 Eu1 1_555 1_555
O8 Eu1 1_555 1_555
O9 H3 1_555 1_555
O10 Eu1 1_555 1_555
O11 C18 1_555 1_555
O12 H4 1_555 1_555
C1 O2 1_555 1_555
C2 C1 1_555 1_555
C3 O5 1_555 1_555
C4 C3 1_555 1_555
H5 C4 1_555 1_555
C5 C4 1_555 1_555
C6 O6 1_555 1_555
C7 C2 1_555 1_555
H6 C7 1_555 1_555
C8 C5 1_555 1_555
C9 O7 1_555 1_555
C10 C9 1_555 1_555
C11 O9 1_555 1_555
C12 C11 1_555 1_555
H7 C12 1_555 1_555
C13 O10 1_555 1_555
C14 C13 1_555 1_555
C15 O12 1_555 1_555
C16 C15 1_555 1_555
H8 C16 1_555 1_555
C17 C16 1_555 1_555
C18 C17 1_555 1_555
N3 C29 1_555 1_555
N4 C30 1_555 1_555
C29 H32 1_555 1_555
C30 C29 1_555 1_555
H33 C30 1_555 1_555
C31 N3 1_555 1_555
H34 C31 1_555 1_555
C32 N4 1_555 1_555
H35 C32 1_555 1_555
H36 C32 1_555 1_555
C33 C32 1_555 1_555
H37 C33 1_555 1_555
H38 C33 1_555 1_555
C34 C33 1_555 1_555
H39 C34 1_555 1_555
H40 C34 1_555 1_555
C35 C34 1_555 1_555
H41 C35 1_555 1_555
H42 C35 1_555 1_555
C36 C35 1_555 1_555
H43 C36 1_555 1_555
H44 C36 1_555 1_555
C37 C36 1_555 1_555
H45 C37 1_555 1_555
H46 C37 1_555 1_555
H47 C37 1_555 1_555
C38 N3 1_555 1_555
H48 C38 1_555 1_555
H49 C38 1_555 1_555
H50 C38 1_555 1_555
O7D C9D 1_555 1_555
O8D C9D 1_555 1_555
O9D H3D 1_555 1_555
C9D C10D 1_555 1_555
C10D C12 1_555 1_555
C11D O9D 1_555 1_555
C12D C10 1_555 1_555
H7D C12D 1_555 1_555
O10C C13 1_555 1_555
O11C C18 1_555 1_555
O12C H4C 1_555 1_555
C15C C14 1_555 1_555
C16C C17 1_555 1_555
H8C C16C 1_555 1_555
Eu1C O8 1_555 1_555
O1C Eu1C 1_555 1_555
O2C Eu1C 1_555 1_555
O3C C8C 1_555 1_555
O4C C8C 1_555 1_555
O5C H1C 1_555 1_555
O6C H2C 1_555 1_555
C1C O1C 1_555 1_555
C2C C1C 1_555 1_555
C3C O5C 1_555 1_555
C4C C3C 1_555 1_555
H5C C4C 1_555 1_555
C5C C4C 1_555 1_555
C6C O6C 1_555 1_555
C7C C2C 1_555 1_555
H6C C7C 1_555 1_555
C8C C5C 1_555 1_555
Eu1_2 O11 1_555 1_555
Eu1C_2 O11C 1_555 1_555
Eu1D O7D 1_555 1_555
Eu1E O4C 1_555 1_555
Eu1F O4 1_555 1_555
Eu1G O8D 1_555 1_555
O4E Eu1C 1_555 1_555
O4F Eu1 1_555 1_555
O7C Eu1C 1_555 1_555
O8C Eu1 1_555 1_555
O9C Eu1 1_555 1_555
O11_2 Eu1 1_555 1_555
O11C_2 Eu1C 1_555 1_555
O8 C9 1_555 1_555
O9 Eu1C 1_555 1_555
C2 C3 1_555 1_555
C5 C6 1_555 1_555
C6 C7 1_555 1_555
C10 C11 1_555 1_555
C14 C15 1_555 1_555
N4 C31 1_555 1_555
O8D Eu1D 1_555 1_555
O9D Eu1G 1_555 1_555
C10D C11D 1_555 1_555
C11D C12D 1_555 1_555
O10C Eu1C 1_555 1_555
O12C C15C 1_555 1_555
C15C C16C 1_555 1_555
Eu1C O8C 1_555 1_555
O2C C1C 1_555 1_555
C2C C3C 1_555 1_555
C5C C6C 1_555 1_555
C6C C7C 1_555 1_555

#END
