
#######################################################################
#
#                 Cambridge Crystallographic Data Centre
#                                CCDC 
#
#######################################################################
#
# If this CIF has been generated from an entry in the Cambridge 
# Structural Database, then it will include bibliographic, chemical, 
# crystal, experimental, refinement or atomic coordinate data resulting 
# from the CCDC's data processing and validation procedures.
#
#######################################################################

data_INIRII
_chemical_formula_moiety         '(C52 H116 Ge14 N4 O87 Tb10)n'
_symmetry_cell_setting           triclinic
_symmetry_space_group_name_H-M   'P -1'
_symmetry_Int_Tables_number      2
_space_group_name_Hall           '-P 1'
loop_
_symmetry_equiv_pos_site_id
_symmetry_equiv_pos_as_xyz
1 x,y,z
2 -x,-y,-z
_cell_length_a                   12.8712(2)
_cell_length_b                   21.6552(4)
_cell_length_c                   23.5052(4)
_cell_angle_alpha                106.275(2)
_cell_angle_beta                 101.460(2)
_cell_angle_gamma                94.9090(10)
_cell_volume                     6093.78
loop_
_atom_site_label
_atom_site_type_symbol
_atom_site_fract_x
_atom_site_fract_y
_atom_site_fract_z
Tb1 Tb 0.4437 0.3348 -0.1689
Tb2 Tb 0.7896 0.5278 -0.0180
Tb3 Tb 0.7042 0.4214 0.0717
Tb4 Tb 0.4194 0.3923 0.0869
Tb5 Tb 0.3677 0.2792 0.1800
Tb6 Tb 0.0905 0.1194 0.2419
Tb7 Tb 0.0627 0.0584 0.3746
Tb8 Tb 0.2859 0.0114 0.4693
Tb9 Tb -0.2170 0.0459 0.4015
Tb10 Tb 0.0551 0.2027 0.6259
Ge1 Ge 0.7002 0.3623 -0.0906
Ge2 Ge 0.5186 0.2966 -0.0383
Ge3 Ge 0.2691 0.3108 -0.0625
Ge4 Ge 0.1919 0.4064 -0.1423
Ge5 Ge 0.3678 0.4739 -0.1923
Ge6 Ge 0.6193 0.4567 -0.1733
Ge7 Ge 0.1529 0.3491 0.1137
Ge8 Ge 0.3189 0.0812 0.3275
Ge9 Ge 0.2191 0.1782 0.5050
Ge10 Ge -0.0320 0.1872 0.4772
Ge11 Ge -0.2031 0.1538 0.5534
Ge12 Ge -0.1053 0.1027 0.6698
Ge13 Ge 0.1470 0.0895 0.6929
Ge14 Ge 0.3119 0.1226 0.6174
N1 N 0.5701 0.2696 0.2256
N2 N 0.7851 0.2517 0.2574
N3 N -0.1103 0.1039 0.1860
N4 N -0.3280 0.0848 0.1319
O1 O 0.5794 0.3098 -0.0969
O2 O 0.3884 0.2930 -0.0886
O3 O 0.1955 0.3321 -0.1252
O4 O 0.2946 0.4023 -0.1845
O5 O 0.4785 0.4277 -0.2001
O6 O 0.6375 0.3806 -0.1575
O7 O 0.7164 0.4254 -0.0237
O8 O 0.5319 0.3700 0.0190
O9 O 0.2901 0.3816 -0.0007
O10 O 0.2362 0.4725 -0.0765
O11 O 0.4208 0.5315 -0.1210
O12 O 0.6556 0.5137 -0.1011
O13 O 0.8711 0.4454 -0.0824
O14 O 1.0412 0.4443 -0.0421
O15 O 0.7169 0.3143 0.0135
O16 O 0.8371 0.2549 0.0384
O17 O 0.3738 0.2782 0.0258
O18 O 0.3267 0.2106 0.0748
O19 O 0.0698 0.2804 -0.2717
O20 O -0.0006 0.3080 -0.3514
O21 O 0.2168 0.5184 -0.1795
O22 O 0.0964 0.5660 -0.2258
O23 O 0.5636 0.5502 -0.1953
O24 O 0.6051 0.6132 -0.2501
O25 O 0.0622 0.2086 0.2092
O26 O 0.1898 0.2569 0.1782
O27 O 0.2689 0.1467 0.2415
O28 O 0.3728 0.1709 0.1834
O29 O 0.1013 0.2047 0.5287
O30 O -0.0870 0.1986 0.5429
O31 O -0.1339 0.1619 0.6295
O32 O 0.0342 0.1349 0.6875
O33 O 0.2160 0.1463 0.6634
O34 O 0.3006 0.1813 0.5778
O35 O 0.1975 0.0960 0.4629
O36 O -0.0455 0.1045 0.4396
O37 O -0.2205 0.0757 0.5033
O38 O -0.1445 0.0292 0.6117
O39 O 0.0930 0.0157 0.6359
O40 O 0.2677 0.0436 0.5689
O41 O 0.1387 0.2153 0.3312
O42 O 0.1059 0.1770 0.4055
O43 O -0.2322 0.1577 0.4301
O44 O -0.3623 0.2092 0.4009
O45 O -0.3783 0.0786 0.5663
O46 O -0.5471 0.0685 0.5162
O47 O -0.0382 0.0312 0.7210
O48 O -0.0677 -0.0015 0.7987
O49 O 0.2978 0.0421 0.6919
O50 O 0.4301 0.0219 0.7563
O51 O 0.4514 0.2978 0.7227
O52 O 0.5005 0.2359 0.7794
O53 O 0.3950 0.1597 0.3638
H1 H 0.4485 0.1571 0.3882
O54 O 0.3534 0.0375 0.3822
H2 H 0.4146 0.0187 0.3771
O55 O 0.1837 0.0856 0.3207
O56 O 0.2868 0.3417 0.1215
O57 O 0.1261 0.4117 0.0775
H3 H 0.0611 0.4255 0.0827
O58 O 0.0770 0.2771 0.0589
H4 H 0.0130 0.2801 0.0543
O59 O 0.6733 0.3489 0.1333
O60 O 0.5068 0.3278 0.1439
O61 O -0.0403 0.0943 0.2955
O62 O -0.2060 0.0812 0.3102
O63 O 0.2803 0.2582 -0.2205
O64 O 0.4699 0.4258 -0.0760
O65 O 0.8901 0.3954 0.1011
O66 O 0.3647 0.2792 0.2846
O67 O 0.0961 0.0802 0.1362
O68 O -0.4087 0.0599 0.3631
O69 O 0.0309 0.0914 0.5580
O70 O 0.2189 0.2811 0.6505
C1 C 0.8127 0.3123 -0.1071
H5 H 0.7973 0.2709 -0.0999
H6 H 0.8137 0.3035 -0.1497
C2 C 0.9226 0.3460 -0.0684
H7 H 0.9765 0.3232 -0.0852
H8 H 0.9285 0.3426 -0.0276
C3 C 0.9467 0.4174 -0.0640
C4 C 0.5475 0.2149 -0.0251
H9 H 0.5303 0.2139 0.0131
H10 H 0.5002 0.1798 -0.0574
C5 C 0.6619 0.2025 -0.0228
H11 H 0.6735 0.1672 -0.0056
H12 H 0.6716 0.1885 -0.0642
C6 C 0.7456 0.2607 0.0139
C7 C 0.1818 0.2339 -0.0625
H13 H 0.1250 0.2472 -0.0422
H14 H 0.1483 0.2089 -0.1044
C8 C 0.2427 0.1896 -0.0313
H15 H 0.1917 0.1592 -0.0235
H16 H 0.2824 0.1647 -0.0584
C9 C 0.3192 0.2284 0.0278
C10 C 0.0475 0.4018 -0.1880
H17 H 0.0026 0.3681 -0.1804
H18 H 0.0232 0.4427 -0.1709
C11 C 0.0254 0.3890 -0.2561
H19 H -0.0459 0.3986 -0.2695
H20 H 0.0756 0.4196 -0.2643
C12 C 0.0320 0.3222 -0.2945
C13 C 0.3233 0.4878 -0.2702
H21 H 0.3828 0.5132 -0.2770
H22 H 0.3084 0.4459 -0.3014
C14 C 0.2268 0.5215 -0.2779
H23 H 0.2476 0.5618 -0.2860
H24 H 0.1737 0.4943 -0.3134
C15 C 0.1756 0.5370 -0.2246
C16 C 0.6957 0.4625 -0.2347
H25 H 0.7697 0.4814 -0.2150
H26 H 0.6954 0.4190 -0.2610
C17 C 0.6472 0.5036 -0.2738
H27 H 0.7018 0.5199 -0.2912
H28 H 0.5899 0.4763 -0.3071
C18 C 0.6032 0.5605 -0.2369
C19 C 0.1065 0.3698 0.1885
H29 H 0.1688 0.3860 0.2223
H30 H 0.0628 0.4043 0.1896
C20 C 0.0424 0.3120 0.1965
H31 H 0.0218 0.3256 0.2351
H32 H -0.0227 0.2981 0.1644
C21 C 0.1020 0.2552 0.1951
C22 C 0.3538 0.0370 0.2513
H33 H 0.4017 0.0064 0.2585
H34 H 0.2885 0.0123 0.2227
C23 C 0.4063 0.0824 0.2223
H35 H 0.4775 0.1012 0.2475
H36 H 0.4144 0.0570 0.1828
C24 C 0.3444 0.1373 0.2143
C25 C 0.3022 0.2418 0.4825
H37 H 0.3334 0.2782 0.5187
H38 H 0.3608 0.2225 0.4676
C26 C 0.2400 0.2678 0.4341
H39 H 0.2055 0.3032 0.4537
H40 H 0.2901 0.2853 0.4146
C27 C 0.1557 0.2165 0.3857
C28 C -0.0702 0.2525 0.4390
H41 H -0.0183 0.2917 0.4584
H42 H -0.0676 0.2371 0.3964
C29 C -0.1832 0.2685 0.4434
H43 H -0.1817 0.2923 0.4853
H44 H -0.2036 0.2964 0.4185
C30 C -0.2666 0.2081 0.4227
C31 C -0.3218 0.2017 0.5555
H45 H -0.3238 0.2214 0.5977
H46 H -0.3101 0.2365 0.5380
C32 C -0.4304 0.1604 0.5214
H47 H -0.4862 0.1864 0.5303
H48 H -0.4346 0.1499 0.4780
C33 C -0.4530 0.0983 0.5359
C34 C -0.1716 0.1229 0.7381
H49 H -0.1719 0.1695 0.7521
H50 H -0.2455 0.1017 0.7248
C35 C -0.1149 0.1016 0.7909
H51 H -0.0565 0.1355 0.8162
H52 H -0.1648 0.0959 0.8156
C36 C -0.0709 0.0386 0.7695
C37 C 0.1987 0.1015 0.7787
H53 H 0.1840 0.1432 0.8018
H54 H 0.1600 0.0678 0.7897
C38 C 0.3184 0.0991 0.7961
H55 H 0.3580 0.1419 0.8037
H56 H 0.3349 0.0872 0.8333
C39 C 0.3529 0.0501 0.7457
C40 C 0.4600 0.1347 0.6628
H57 H 0.4600 0.1249 0.7006
H58 H 0.4968 0.1032 0.6394
C41 C 0.5242 0.2020 0.6781
H59 H 0.6001 0.1999 0.6901
H60 H 0.5123 0.2171 0.6425
C42 C 0.4905 0.2480 0.7287
C43 C 0.6078 0.3258 0.1556
C44 C 0.6456 0.2911 0.2009
C45 C 0.7513 0.2836 0.2148
H61 H 0.7999 0.2997 0.1961
C46 C 0.7080 0.2281 0.2822
H62 H 0.7266 0.2050 0.3097
C47 C 0.6040 0.2384 0.2666
H63 H 0.5542 0.2232 0.2852
C48 C -0.1451 0.1097 0.1310
H64 H -0.0949 0.1208 0.1106
C49 C -0.2528 0.1000 0.1024
H65 H -0.2737 0.1039 0.0635
C50 C -0.2925 0.0807 0.1899
H66 H -0.3416 0.0715 0.2117
C51 C -0.1847 0.0902 0.2153
C52 C -0.1421 0.0886 0.2787
Tb1_2 Tb 0.4437 0.3348 0.8311
Tb2A Tb 0.2104 0.4722 0.0180
Tb2A_2 Tb 1.2104 0.4722 0.0180
Tb3A Tb 0.2958 0.5786 -0.0717
Tb4A Tb 0.5806 0.6077 -0.0869
Tb5A Tb 0.6323 0.7208 -0.1800
Tb6A Tb -0.0905 -0.1194 0.7581
Tb7A Tb -0.0627 -0.0584 0.6254
Tb8_2 Tb -0.7141 0.0114 0.4693
Tb8A Tb -0.2859 -0.0114 0.5307
Tb9A Tb 0.2170 -0.0459 0.5985
Tb10_2 Tb 0.0551 0.2027 -0.3741
O9A O 0.7099 0.6184 0.0007
O10A O 0.7638 0.5275 0.0765
O11A O 0.5792 0.4685 0.1210
O12A O 0.3444 0.4863 0.1011
O14A O 0.9588 0.5557 0.0421
O19_2 O 0.0698 0.2804 0.7283
O20_2 O -0.0006 0.3080 0.6486
O21A O 0.7832 0.4816 0.1795
O23A O 0.4364 0.4498 0.1953
O24A O 0.3949 0.3868 0.2501
O37A O 0.2205 -0.0757 0.4967
O38A O 0.1445 -0.0292 0.3883
O39A O -0.0930 -0.0157 0.3641
O40A O -0.2677 -0.0436 0.4311
O45A O 0.3783 -0.0786 0.4337
O46_2 O 0.4529 0.0685 0.5162
O47A O 0.0382 -0.0312 0.2790
O48A O 0.0677 0.0015 0.2013
O49A O -0.2978 -0.0421 0.3081
O51_2 O 0.4514 0.2978 -0.2773
O52_2 O 0.5005 0.2359 -0.2206
O57A O 0.8739 0.5883 -0.0775
O71 O 0.0923 0.1441 0.0558
O72 O 0.0483 0.4508 0.3339
O73 O 0.2000 0.3540 0.3341
O74 O 0.6233 0.3712 0.5668
O75 O 0.3614 0.4414 0.5765
O76 O 0.8676 0.3864 0.6028
O77 O 0.4518 0.6779 0.5743
O78 O 0.4732 0.3585 0.6324
O79 O 0.0174 0.4259 0.5299
O80 O 0.1903 0.3727 0.5876
O81 O 0.6322 0.1513 0.8201
O82 O 0.7620 0.0212 0.9110
O83 O 0.5509 0.0574 0.8781
O84 O 0.8964 0.1333 0.9837
O85 O 0.4869 0.0548 0.9853
O86 O 0.9422 0.9625 0.0585
O87 O 0.6912 0.9312 0.9638
loop_
_geom_bond_atom_site_label_1
_geom_bond_atom_site_label_2
_geom_bond_site_symmetry_1
_geom_bond_site_symmetry_2
Tb1 O1 1_555 1_555
Tb2 O7 1_555 1_555
Tb3 O7 1_555 1_555
Tb4 O8 1_555 1_555
Tb5 N1 1_555 1_555
Tb6 N3 1_555 1_555
Tb7 O35 1_555 1_555
Tb8 O35 1_555 1_555
Tb9 O36 1_555 1_555
Tb10 O29 1_555 1_555
Ge1 O1 1_555 1_555
Ge2 O1 1_555 1_555
Ge3 O2 1_555 1_555
Ge4 O3 1_555 1_555
Ge5 O4 1_555 1_555
Ge6 O5 1_555 1_555
Ge7 O56 1_555 1_555
Ge8 O53 1_555 1_555
Ge9 O29 1_555 1_555
Ge10 O29 1_555 1_555
Ge11 O30 1_555 1_555
Ge12 O31 1_555 1_555
Ge13 O32 1_555 1_555
Ge14 O33 1_555 1_555
N1 C44 1_555 1_555
N2 C45 1_555 1_555
N3 C48 1_555 1_555
N4 C49 1_555 1_555
O2 Tb1 1_555 1_555
O3 Ge3 1_555 1_555
O4 Tb1 1_555 1_555
O5 Tb1 1_555 1_555
O6 Tb1 1_555 1_555
O7 Ge1 1_555 1_555
O8 Tb3 1_555 1_555
O9 Tb4 1_555 1_555
O10 Ge4 1_555 1_555
O11 Ge5 1_555 1_555
O12 Tb2 1_555 1_555
O13 Tb2 1_555 1_555
O14 C3 1_555 1_555
O15 Tb3 1_555 1_555
O16 C6 1_555 1_555
O17 Tb4 1_555 1_555
O18 Tb5 1_555 1_555
O19 C12 1_555 1_555
O20 C12 1_555 1_555
O21 Ge5 1_555 1_555
O22 C15 1_555 1_555
O23 C18 1_555 1_555
O24 C18 1_555 1_555
O25 Tb6 1_555 1_555
O26 Tb5 1_555 1_555
O27 Tb6 1_555 1_555
O28 Tb5 1_555 1_555
O30 Tb10 1_555 1_555
O31 Tb10 1_555 1_555
O32 Tb10 1_555 1_555
O33 Tb10 1_555 1_555
O34 Ge9 1_555 1_555
O35 Ge9 1_555 1_555
O36 Tb7 1_555 1_555
O37 Tb9 1_555 1_555
O38 Ge12 1_555 1_555
O39 Ge13 1_555 1_555
O40 Tb8 1_555 1_555
O41 Tb6 1_555 1_555
O42 Tb7 1_555 1_555
O43 Tb9 1_555 1_555
O44 C30 1_555 1_555
O45 C33 1_555 1_555
O46 C33 1_555 1_555
O47 C36 1_555 1_555
O48 C36 1_555 1_555
O49 Ge13 1_555 1_555
O50 C39 1_555 1_555
O51 C42 1_555 1_555
O52 C42 1_555 1_555
O53 H1 1_555 1_555
O54 Tb8 1_555 1_555
H2 O54 1_555 1_555
O55 Tb6 1_555 1_555
O56 Tb4 1_555 1_555
O57 Ge7 1_555 1_555
H3 O57 1_555 1_555
O58 Ge7 1_555 1_555
H4 O58 1_555 1_555
O59 Tb3 1_555 1_555
O60 Tb4 1_555 1_555
O61 Tb6 1_555 1_555
O62 Tb9 1_555 1_555
O63 Tb1 1_555 1_555
O64 Tb1 1_555 1_555
O65 Tb3 1_555 1_555
O66 Tb5 1_555 1_555
O67 Tb6 1_555 1_555
O68 Tb9 1_555 1_555
O69 Tb10 1_555 1_555
O70 Tb10 1_555 1_555
C1 Ge1 1_555 1_555
H5 C1 1_555 1_555
H6 C1 1_555 1_555
C2 C1 1_555 1_555
H7 C2 1_555 1_555
H8 C2 1_555 1_555
C3 O13 1_555 1_555
C4 Ge2 1_555 1_555
H9 C4 1_555 1_555
H10 C4 1_555 1_555
C5 C4 1_555 1_555
H11 C5 1_555 1_555
H12 C5 1_555 1_555
C6 O15 1_555 1_555
C7 Ge3 1_555 1_555
H13 C7 1_555 1_555
H14 C7 1_555 1_555
C8 C7 1_555 1_555
H15 C8 1_555 1_555
H16 C8 1_555 1_555
C9 O17 1_555 1_555
C10 Ge4 1_555 1_555
H17 C10 1_555 1_555
H18 C10 1_555 1_555
C11 C10 1_555 1_555
H19 C11 1_555 1_555
H20 C11 1_555 1_555
C12 C11 1_555 1_555
C13 Ge5 1_555 1_555
H21 C13 1_555 1_555
H22 C13 1_555 1_555
C14 C13 1_555 1_555
H23 C14 1_555 1_555
H24 C14 1_555 1_555
C15 O21 1_555 1_555
C16 Ge6 1_555 1_555
H25 C16 1_555 1_555
H26 C16 1_555 1_555
C17 C16 1_555 1_555
H27 C17 1_555 1_555
H28 C17 1_555 1_555
C18 C17 1_555 1_555
C19 Ge7 1_555 1_555
H29 C19 1_555 1_555
H30 C19 1_555 1_555
C20 C19 1_555 1_555
H31 C20 1_555 1_555
H32 C20 1_555 1_555
C21 O25 1_555 1_555
C22 Ge8 1_555 1_555
H33 C22 1_555 1_555
H34 C22 1_555 1_555
C23 C22 1_555 1_555
H35 C23 1_555 1_555
H36 C23 1_555 1_555
C24 O27 1_555 1_555
C25 Ge9 1_555 1_555
H37 C25 1_555 1_555
H38 C25 1_555 1_555
C26 C25 1_555 1_555
H39 C26 1_555 1_555
H40 C26 1_555 1_555
C27 O41 1_555 1_555
C28 Ge10 1_555 1_555
H41 C28 1_555 1_555
H42 C28 1_555 1_555
C29 C28 1_555 1_555
H43 C29 1_555 1_555
H44 C29 1_555 1_555
C30 O43 1_555 1_555
C31 Ge11 1_555 1_555
H45 C31 1_555 1_555
H46 C31 1_555 1_555
C32 C31 1_555 1_555
H47 C32 1_555 1_555
H48 C32 1_555 1_555
C33 C32 1_555 1_555
C34 Ge12 1_555 1_555
H49 C34 1_555 1_555
H50 C34 1_555 1_555
C35 C34 1_555 1_555
H51 C35 1_555 1_555
H52 C35 1_555 1_555
C36 C35 1_555 1_555
C37 Ge13 1_555 1_555
H53 C37 1_555 1_555
H54 C37 1_555 1_555
C38 C37 1_555 1_555
H55 C38 1_555 1_555
H56 C38 1_555 1_555
C39 O49 1_555 1_555
C40 Ge14 1_555 1_555
H57 C40 1_555 1_555
H58 C40 1_555 1_555
C41 C40 1_555 1_555
H59 C41 1_555 1_555
H60 C41 1_555 1_555
C42 C41 1_555 1_555
C43 O59 1_555 1_555
C44 C43 1_555 1_555
C45 C44 1_555 1_555
H61 C45 1_555 1_555
C46 N2 1_555 1_555
H62 C46 1_555 1_555
C47 N1 1_555 1_555
H63 C47 1_555 1_555
C48 H64 1_555 1_555
C49 C48 1_555 1_555
H65 C49 1_555 1_555
C50 N4 1_555 1_555
H66 C50 1_555 1_555
C51 N3 1_555 1_555
C52 O61 1_555 1_555
Tb1_2 O51 1_555 1_555
Tb2A O9 1_555 1_555
Tb2A_2 O14 1_555 1_555
Tb3A O10 1_555 1_555
Tb4A O11 1_555 1_555
Tb5A O24 1_555 1_555
Tb6A O48 1_555 1_555
Tb7A O38 1_555 1_555
Tb8_2 O46 1_555 1_555
Tb8A O37 1_555 1_555
Tb9A O39 1_555 1_555
Tb10_2 O19 1_555 1_555
O9A Tb2 1_555 1_555
O10A Tb2 1_555 1_555
O11A Tb3 1_555 1_555
O12A Tb4 1_555 1_555
O14A Tb2 1_555 1_555
O19_2 Tb10 1_555 1_555
O20_2 Tb10 1_555 1_555
O21A Tb3 1_555 1_555
O23A Tb4 1_555 1_555
O24A Tb5 1_555 1_555
O37A Tb8 1_555 1_555
O38A Tb7 1_555 1_555
O39A Tb7 1_555 1_555
O40A Tb9 1_555 1_555
O45A Tb8 1_555 1_555
O46_2 Tb8 1_555 1_555
O47A Tb7 1_555 1_555
O48A Tb6 1_555 1_555
O49A Tb9 1_555 1_555
O51_2 Tb1 1_555 1_555
O52_2 Tb1 1_555 1_555
O57A Tb2 1_555 1_555
Tb3 O10A 1_555 1_555
Tb4 O11A 1_555 1_555
Tb5 O56 1_555 1_555
Tb5 O60 1_555 1_555
Tb7 O55 1_555 1_555
Tb7 O61 1_555 1_555
Tb8 O38A 1_555 1_555
Tb9 O39A 1_555 1_555
Ge1 O6 1_555 1_555
Ge2 O2 1_555 1_555
Ge2 O8 1_555 1_555
Ge3 O9 1_555 1_555
Ge4 O4 1_555 1_555
Ge5 O5 1_555 1_555
Ge6 O6 1_555 1_555
Ge6 O12 1_555 1_555
Ge8 O54 1_555 1_555
Ge8 O55 1_555 1_555
Ge10 O30 1_555 1_555
Ge10 O36 1_555 1_555
Ge11 O31 1_555 1_555
Ge11 O37 1_555 1_555
Ge12 O32 1_555 1_555
Ge13 O33 1_555 1_555
Ge14 O34 1_555 1_555
Ge14 O40 1_555 1_555
O10 Tb2A 1_555 1_555
O11 Tb3A 1_555 1_555
O12 Tb4A 1_555 1_555
O18 C9 1_555 1_555
O20 Tb10_2 1_555 1_555
O21 Tb3A 1_555 1_555
O23 Tb4A 1_555 1_555
O26 C21 1_555 1_555
O28 C24 1_555 1_555
O38 Tb8A 1_555 1_555
O39 Tb7A 1_555 1_555
O40 Tb9A 1_555 1_555
O42 C27 1_555 1_555
O45 Tb8A 1_555 1_555
O47 Tb7A 1_555 1_555
O49 Tb9A 1_555 1_555
O52 Tb1_2 1_555 1_555
O57 Tb2A 1_555 1_555
O60 C43 1_555 1_555
O62 C52 1_555 1_555
C2 C3 1_555 1_555
C5 C6 1_555 1_555
C8 C9 1_555 1_555
C14 C15 1_555 1_555
C20 C21 1_555 1_555
C23 C24 1_555 1_555
C26 C27 1_555 1_555
C29 C30 1_555 1_555
C38 C39 1_555 1_555
C46 C47 1_555 1_555
C50 C51 1_555 1_555
C51 C52 1_555 1_555
Tb2A O12A 1_555 1_555
Tb4A O9A 1_555 1_555
Tb8A O40A 1_555 1_555
Tb9A O37A 1_555 1_555

#END
