
#######################################################################
#
#                 Cambridge Crystallographic Data Centre
#                                CCDC 
#
#######################################################################
#
# If this CIF has been generated from an entry in the Cambridge 
# Structural Database, then it will include bibliographic, chemical, 
# crystal, experimental, refinement or atomic coordinate data resulting 
# from the CCDC's data processing and validation procedures.
#
#######################################################################

data_CAHVAJ
_chemical_formula_moiety         '(C4 H21 N2 O27 P5 V4)n'
_symmetry_cell_setting           monoclinic
_symmetry_space_group_name_H-M   'P 2/n'
_symmetry_Int_Tables_number      13
_space_group_name_Hall           '-P 2yac'
loop_
_symmetry_equiv_pos_site_id
_symmetry_equiv_pos_as_xyz
1 x,y,z
2 1/2-x,y,1/2-z
3 -x,-y,-z
4 1/2+x,-y,1/2+z
_cell_length_a                   9.6448(7)
_cell_length_b                   8.8770(7)
_cell_length_c                   14.813(1)
_cell_angle_alpha                90
_cell_angle_beta                 91.936(2)
_cell_angle_gamma                90
_cell_volume                     1267.52
loop_
_atom_site_label
_atom_site_type_symbol
_atom_site_fract_x
_atom_site_fract_y
_atom_site_fract_z
V1 V -0.0645(1) -0.0021(2) 0.1513(1)
V2 V 0.1685(2) -0.5002(2) -0.1068(1)
P1 P 0.0080(2) -0.2527(2) 0.0047(1)
P2 P -0.2500 0.2531(3) 0.2500
P3 P -0.2500 -0.2477(3) 0.2500
P4 P 0.2500 0.1046(4) 0.2500
O1 O 0.0469(5) -0.1617(6) 0.0882(4)
O2 O 0.1357(6) -0.3504(6) -0.0167(4)
O3 O -0.0349(5) -0.1573(6) -0.0778(4)
O4 O -0.1182(5) -0.1545(6) 0.2437(4)
O5 O -0.1197(6) 0.1607(6) 0.2383(4)
O6 O -0.2710(6) -0.3498(6) 0.1654(4)
O7 O -0.2797(6) 0.3552(6) 0.1662(4)
O8 O -0.1186(6) -0.3561(6) 0.0198(4)
O9 O -0.2024(5) -0.0093(7) 0.0885(4)
O10 O 0.0296(6) -0.4933(8) -0.1668(4)
O11 O 0.1214(5) 0.0110(6) 0.2401(3)
O12 O 0.2594(6) 0.2114(7) 0.1659(4)
O13 O -0.3856(12) 0.5100(15) 0.0246(8)
O5A O -0.3803(6) 0.1607(6) 0.2617(4)
O7A O -0.2203(6) 0.3552(6) 0.3338(4)
O4A O -0.3818(5) -0.1545(6) 0.2563(4)
O6A O -0.2290(6) -0.3498(6) 0.3346(4)
O11A O 0.3786(5) 0.0110(6) 0.2599(3)
O12A O 0.2406(6) 0.2114(7) 0.3341(4)
P1B P -0.0080(2) 0.2527(2) -0.0047(1)
O1B O -0.0469(5) 0.1617(6) -0.0882(4)
O2B O -0.1357(6) 0.3504(6) 0.0167(4)
O3B O 0.0349(5) 0.1573(6) 0.0778(4)
O8B O 0.1186(6) 0.3561(6) -0.0198(4)
V1B V 0.0645(1) 0.0021(2) -0.1513(1)
V2B V -0.1685(2) 0.5002(2) 0.1068(1)
O9B O 0.2024(5) 0.0093(7) -0.0885(4)
O10B O -0.0296(6) 0.4933(8) 0.1668(4)
O13B O 0.3856(12) -0.5100(15) -0.0246(8)
O6B O 0.2710(6) -0.6502(6) -0.1654(4)
O7B O 0.2797(6) -0.3552(6) -0.1662(4)
O8B_2 O 0.1186(6) -0.6439(6) -0.0198(4)
V2B_2 V -0.1685(2) -0.4998(2) 0.1068(1)
V1A V -0.4355(1) -0.0021(2) 0.3487(1)
V2C V -0.3315(2) 0.5002(2) 0.3932(1)
V2C_2 V -0.3315(2) -0.4998(2) 0.3932(1)
V1A_2 V 0.5645(1) -0.0021(2) 0.3487(1)
V2_2 V 0.1685(2) 0.4998(2) -0.1068(1)
O4B O 0.1182(5) 0.1545(6) -0.2437(4)
O5B O 0.1197(6) -0.1607(6) -0.2383(4)
O11B O -0.1214(5) -0.0110(6) -0.2401(3)
O6_2 O -0.2710(6) 0.6502(6) 0.1654(4)
O8_2 O -0.1186(6) 0.6439(6) 0.0198(4)
N1 N -0.4871(7) 0.0215(9) 0.0938(4)
C1 C -0.5587(9) -0.1139(11) 0.0581(6)
C2 C -0.5009(10) 0.1525(11) 0.0332(6)
C2B C -0.4991(10) -0.1525(11) -0.0332(6)
N1B N -0.5129(7) -0.0215(9) -0.0938(4)
C1B C -0.4413(9) 0.1139(11) -0.0581(6)
O14 O -0.7500 0.7066(17) 0.2500
O15 O -0.6638(29) 0.5226(26) 0.1119(17)
loop_
_geom_bond_atom_site_label_1
_geom_bond_atom_site_label_2
_geom_bond_site_symmetry_1
_geom_bond_site_symmetry_2
V1 O1 1_555 1_555
V2 O2 1_555 1_555
P1 O1 1_555 1_555
P2 O5 1_555 1_555
P3 O4 1_555 1_555
P4 O11 1_555 1_555
O2 P1 1_555 1_555
O3 P1 1_555 1_555
O4 V1 1_555 1_555
O5 V1 1_555 1_555
O6 P3 1_555 1_555
O7 P2 1_555 1_555
O8 P1 1_555 1_555
O9 V1 1_555 1_555
O10 V2 1_555 1_555
O11 V1 1_555 1_555
O12 P4 1_555 1_555
O13 V2B 1_555 1_555
N1 C1 1_555 1_555
C1 C2B 1_555 1_555
C2 N1 1_555 1_555
O5A P2 1_555 1_555
O7A P2 1_555 1_555
O4A P3 1_555 1_555
O6A P3 1_555 1_555
O11A P4 1_555 1_555
O12A P4 1_555 1_555
P1B O1B 1_555 1_555
O1B V1B 1_555 1_555
O2B P1B 1_555 1_555
O3B V1 1_555 1_555
O8B P1B 1_555 1_555
V1B O3 1_555 1_555
V2B O7 1_555 1_555
O9B V1B 1_555 1_555
O10B V2B 1_555 1_555
O13B V2 1_555 1_555
O6B V2 1_555 1_555
O7B V2 1_555 1_555
O8B_2 V2 1_555 1_555
V2B_2 O6 1_555 1_555
V1A O5A 1_555 1_555
V2C O7A 1_555 1_555
V2C_2 O6A 1_555 1_555
V1A_2 O11A 1_555 1_555
V2_2 O8B 1_555 1_555
O4B V1B 1_555 1_555
O5B V1B 1_555 1_555
O11B V1B 1_555 1_555
O6_2 V2B 1_555 1_555
O8_2 V2B 1_555 1_555
C2B N1B 1_555 1_555
N1B C1B 1_555 1_555
C1B C2 1_555 1_555
O8 V2B_2 1_555 1_555
O4A V1A 1_555 1_555
P1B O3B 1_555 1_555
O2B V2B 1_555 1_555

#END
