
#######################################################################
#
#                 Cambridge Crystallographic Data Centre
#                                CCDC 
#
#######################################################################
#
# If this CIF has been generated from an entry in the Cambridge 
# Structural Database, then it will include bibliographic, chemical, 
# crystal, experimental, refinement or atomic coordinate data resulting 
# from the CCDC's data processing and validation procedures.
#
#######################################################################

data_ITAHEQ
_chemical_formula_moiety         '(C36 H42 Eu2 O12)n'
_symmetry_cell_setting           hexagonal
_symmetry_space_group_name_H-M   'P 63 c m'
_symmetry_Int_Tables_number      185
_space_group_name_Hall           'P 6c -2'
loop_
_symmetry_equiv_pos_site_id
_symmetry_equiv_pos_as_xyz
1 x,y,z
2 -y,x-y,z
3 -x+y,-x,z
4 -x,-y,1/2+z
5 y,-x+y,1/2+z
6 x-y,x,1/2+z
7 -y,-x,1/2+z
8 -x+y,y,1/2+z
9 x,x-y,1/2+z
10 y,x,z
11 x-y,-y,z
12 -x,-x+y,z
_cell_length_a                   16.46600(10)
_cell_length_b                   16.46600(10)
_cell_length_c                   7.73750(10)
_cell_angle_alpha                90
_cell_angle_beta                 90
_cell_angle_gamma                120
_cell_volume                     1816.8
loop_
_atom_site_label
_atom_site_type_symbol
_atom_site_fract_x
_atom_site_fract_y
_atom_site_fract_z
Eu1 Eu -0.3333 1.3333 0.3688(2)
O1 O -0.30479(7) 1.25164(7) 0.6339(3)
O2 O -0.36223(19) 1.17591(12) 0.8333(2)
C1 C -0.33656(12) 1.17341(11) 0.6861(3)
C2 C -0.33568(9) 1.08777(10) 0.6151(2)
C3 C -0.24538(19) 1.0000 0.6515(3)
H1 H -0.1918 1.0000 0.7067
C4 C -0.42673(13) 1.0000 0.6214(5)
H2 H -0.4646 1.0000 0.5253
H3 H -0.4586 1.0000 0.7269
C5 C -0.31835(18) 1.08403(15) 0.4359(2)
H4 H -0.2570 1.1373 0.4110
H5 H -0.3637 1.0938 0.3729
C6 C -0.32060(14) 1.0000 0.3608(5)
H6 H -0.3151 1.0000 0.2347
C7 C -0.25388(10) 1.08867(11) 0.6989(3)
H7 H -0.2596 1.0912 0.8233
H8 H -0.1969 1.1448 0.6637
C8 C -0.24137(15) 1.0000 0.4615(3)
H9 H -0.2379 0.9453 0.4262
H10 H -0.1832 1.0547 0.4262
C2J C -0.42345(13) 0.91223(10) 0.6151(2)
C1J C -0.50997(16) 0.82659(11) 0.6861(3)
O1J O -0.55643(10) 0.74836(7) 0.6339(3)
O2J O -0.53814(22) 0.82409(12) 0.8333(2)
C5J C -0.40238(23) 0.91597(15) 0.4359(2)
H4J H -0.3943 0.8627 0.4110
H5J H -0.4575 0.9062 0.3729
C7J C -0.34255(15) 0.91133(11) 0.6989(3)
H7J H -0.3508 0.9088 0.8233
H8J H -0.3417 0.8552 0.6637
O1A O -0.25164(7) 1.44357(10) 0.6339(3)
O2A O -0.17591(12) 1.46186(22) 0.8333(2)
C1A C -0.17341(11) 1.49003(16) 0.6861(3)
C2A C -0.08777(10) 1.57655(13) 0.6151(2)
C3A C 0.0000 1.75462(19) 0.6515(3)
H1A H 0.0000 1.8082 0.7067
C4A C 0.0000 1.57327(13) 0.6214(5)
H2A H 0.0000 1.5354 0.5253
H3A H 0.0000 1.5414 0.7269
C5A C -0.08403(15) 1.59762(23) 0.4359(2)
H4A H -0.1373 1.6057 0.4110
H5A H -0.0938 1.5425 0.3729
C6A C 0.0000 1.67940(14) 0.3608(5)
H6A H -0.0000 1.6849 0.2347
C7A C -0.08867(11) 1.65745(15) 0.6989(3)
H7A H -0.0912 1.6492 0.8233
H8A H -0.1448 1.6583 0.6637
C8A C 0.0000 1.75863(15) 0.4615(3)
H9A H 0.0547 1.8168 0.4262
H10A H -0.0547 1.7621 0.4262
C2I C 0.08777(10) 1.66432(9) 0.6151(2)
C1I C 0.17341(11) 1.66344(12) 0.6861(3)
O1I O 0.25164(7) 1.69521(7) 0.6339(3)
O2I O 0.17591(12) 1.63777(19) 0.8333(2)
C5I C 0.08403(15) 1.68165(18) 0.4359(2)
H4I H 0.1373 1.7430 0.4110
H5I H 0.0938 1.6363 0.3729
C7I C 0.08867(11) 1.74612(10) 0.6989(3)
H7I H 0.0912 1.7404 0.8233
H8I H 0.1448 1.8031 0.6637
O1B O -0.44357(10) 1.30479(7) 0.6339(3)
O2B O -0.46186(22) 1.36223(19) 0.8333(2)
C1B C -0.49003(16) 1.33656(12) 0.6861(3)
C2B C -0.57655(13) 1.33568(9) 0.6151(2)
C3B C -0.75462(19) 1.24538(19) 0.6515(3)
H1B H -0.8082 1.1918 0.7067
C4B C -0.57327(13) 1.42673(13) 0.6214(5)
H2B H -0.5354 1.4646 0.5253
H3B H -0.5414 1.4586 0.7269
C5B C -0.59762(23) 1.31835(18) 0.4359(2)
H4B H -0.6057 1.2570 0.4110
H5B H -0.5425 1.3637 0.3729
C6B C -0.67940(14) 1.32060(14) 0.3608(5)
H6B H -0.6849 1.3151 0.2347
C7B C -0.65745(15) 1.25388(10) 0.6989(3)
H7B H -0.6492 1.2596 0.8233
H8B H -0.6583 1.1969 0.6637
C8B C -0.75863(15) 1.24137(15) 0.4615(3)
H9B H -0.8168 1.2379 0.4262
H10B H -0.7621 1.1832 0.4262
C2K C -0.66432(9) 1.42345(13) 0.6151(2)
C1K C -0.66344(12) 1.50997(16) 0.6861(3)
O1K O -0.69521(7) 1.55643(10) 0.6339(3)
O2K O -0.63777(19) 1.53814(22) 0.8333(2)
C5K C -0.68165(18) 1.40238(23) 0.4359(2)
H4K H -0.7430 1.3943 0.4110
H5K H -0.6363 1.4575 0.3729
C7K C -0.74612(10) 1.34255(15) 0.6989(3)
H7K H -0.7404 1.3508 0.8233
H8K H -0.8031 1.3417 0.6637
Eu1J Eu -0.6666 0.6667 0.3688(2)
O1F O -0.25164(7) 1.30479(7) 0.1339(3)
O1G O -0.44357(10) 1.25164(7) 0.1339(3)
O1H O -0.30479(7) 1.44357(10) 0.1339(3)
O2F O -0.17591(12) 1.36223(19) 0.3333(2)
O2G O -0.46186(22) 1.17591(12) 0.3333(2)
O2H O -0.36223(19) 1.46186(22) 0.3333(2)
Eu1F Eu -0.3333 1.3333 0.8688(2)
Eu1C Eu -0.6667 0.6667 0.8688(2)
Eu1C_2 Eu 0.3333 1.6667 0.8688(2)
Eu1I Eu 0.3333 1.6667 0.3688(2)
Eu1C_3 Eu -0.6667 1.6667 0.8688(2)
Eu1I_2 Eu -0.6667 1.6667 0.3688(2)
O1C O -0.69521(7) 0.74836(7) 0.1339(3)
O1D O -0.74836(7) 0.55643(10) 0.1339(3)
O1E O -0.55643(10) 0.69521(7) 0.1339(3)
O1I_2 O -0.74836(7) 0.69521(7) 0.6339(3)
O1K_2 O -0.69521(7) 0.55643(10) 0.6339(3)
O2C O -0.63777(19) 0.82409(12) 0.3333(2)
O2D O -0.82409(12) 0.53814(22) 0.3333(2)
O2E O -0.53814(22) 0.63777(19) 0.3333(2)
loop_
_geom_bond_atom_site_label_1
_geom_bond_atom_site_label_2
_geom_bond_site_symmetry_1
_geom_bond_site_symmetry_2
Eu1 O1 1_555 1_555
O1 C1 1_555 1_555
O2 C1 1_555 1_555
C1 C2 1_555 1_555
C2 C4 1_555 1_555
C3 H1 1_555 1_555
C4 H2 1_555 1_555
H3 C4 1_555 1_555
C5 C2 1_555 1_555
H4 C5 1_555 1_555
H5 C5 1_555 1_555
C6 C5 1_555 1_555
H6 C6 1_555 1_555
C7 C2 1_555 1_555
H7 C7 1_555 1_555
H8 C7 1_555 1_555
C8 C3 1_555 1_555
H9 C8 1_555 1_555
H10 C8 1_555 1_555
C2J C4 1_555 1_555
C1J C2J 1_555 1_555
O1J C1J 1_555 1_555
O2J C1J 1_555 1_555
C5J C6 1_555 1_555
H4J C5J 1_555 1_555
H5J C5J 1_555 1_555
C7J C3 1_555 1_555
H7J C7J 1_555 1_555
H8J C7J 1_555 1_555
O1A Eu1 1_555 1_555
O2A C1A 1_555 1_555
C1A O1A 1_555 1_555
C2A C1A 1_555 1_555
C3A H1A 1_555 1_555
C4A C2A 1_555 1_555
H2A C4A 1_555 1_555
H3A C4A 1_555 1_555
C5A C2A 1_555 1_555
H4A C5A 1_555 1_555
H5A C5A 1_555 1_555
C6A C5A 1_555 1_555
H6A C6A 1_555 1_555
C7A C2A 1_555 1_555
H7A C7A 1_555 1_555
H8A C7A 1_555 1_555
C8A C3A 1_555 1_555
H9A C8A 1_555 1_555
H10A C8A 1_555 1_555
C2I C4A 1_555 1_555
C1I C2I 1_555 1_555
O1I C1I 1_555 1_555
O2I C1I 1_555 1_555
C5I C6A 1_555 1_555
H4I C5I 1_555 1_555
H5I C5I 1_555 1_555
C7I C3A 1_555 1_555
H7I C7I 1_555 1_555
H8I C7I 1_555 1_555
O1B Eu1 1_555 1_555
O2B C1B 1_555 1_555
C1B O1B 1_555 1_555
C2B C1B 1_555 1_555
C3B H1B 1_555 1_555
C4B C2B 1_555 1_555
H2B C4B 1_555 1_555
H3B C4B 1_555 1_555
C5B C2B 1_555 1_555
H4B C5B 1_555 1_555
H5B C5B 1_555 1_555
C6B C5B 1_555 1_555
H6B C6B 1_555 1_555
C7B C2B 1_555 1_555
H7B C7B 1_555 1_555
H8B C7B 1_555 1_555
C8B C3B 1_555 1_555
H9B C8B 1_555 1_555
H10B C8B 1_555 1_555
C2K C4B 1_555 1_555
C1K C2K 1_555 1_555
O1K C1K 1_555 1_555
O2K C1K 1_555 1_555
C5K C6B 1_555 1_555
H4K C5K 1_555 1_555
H5K C5K 1_555 1_555
C7K C3B 1_555 1_555
H7K C7K 1_555 1_555
H8K C7K 1_555 1_555
Eu1J O1J 1_555 1_555
O1F Eu1 1_555 1_555
O1G Eu1 1_555 1_555
O1H Eu1 1_555 1_555
O2F Eu1 1_555 1_555
O2G Eu1 1_555 1_555
O2H Eu1 1_555 1_555
Eu1F O1 1_555 1_555
Eu1C O1J 1_555 1_555
Eu1C_2 O1I 1_555 1_555
Eu1I O1I 1_555 1_555
Eu1C_3 O1K 1_555 1_555
Eu1I_2 O1K 1_555 1_555
O1C Eu1J 1_555 1_555
O1D Eu1J 1_555 1_555
O1E Eu1J 1_555 1_555
O1I_2 Eu1J 1_555 1_555
O1K_2 Eu1J 1_555 1_555
O2C Eu1J 1_555 1_555
O2D Eu1J 1_555 1_555
O2E Eu1J 1_555 1_555
O2 Eu1F 1_555 1_555
C3 C7 1_555 1_555
C6 C8 1_555 1_555
C2J C5J 1_555 1_555
C2J C7J 1_555 1_555
O2J Eu1C 1_555 1_555
O1A Eu1F 1_555 1_555
O2A Eu1F 1_555 1_555
C3A C7A 1_555 1_555
C6A C8A 1_555 1_555
C2I C7I 1_555 1_555
C2I C5I 1_555 1_555
O2I Eu1C_2 1_555 1_555
O1B Eu1F 1_555 1_555
O2B Eu1F 1_555 1_555
C3B C7B 1_555 1_555
C6B C8B 1_555 1_555
C2K C7K 1_555 1_555
C2K C5K 1_555 1_555
O2K Eu1C_3 1_555 1_555
Eu1C O1I_2 1_555 1_555
Eu1C O1K_2 1_555 1_555

#END
