
#######################################################################
#
#                 Cambridge Crystallographic Data Centre
#                                CCDC 
#
#######################################################################
#
# If this CIF has been generated from an entry in the Cambridge 
# Structural Database, then it will include bibliographic, chemical, 
# crystal, experimental, refinement or atomic coordinate data resulting 
# from the CCDC's data processing and validation procedures.
#
#######################################################################

data_TAGBUZ
_chemical_formula_moiety         '(C32 H18 Ag1 F3 N4 O8 S1)n'
_symmetry_cell_setting           monoclinic
_symmetry_space_group_name_H-M   'C c'
_symmetry_Int_Tables_number      9
_space_group_name_Hall           'C -2yc'
loop_
_symmetry_equiv_pos_site_id
_symmetry_equiv_pos_as_xyz
1 x,y,z
2 x,-y,1/2+z
3 1/2+x,1/2+y,z
4 1/2+x,1/2-y,1/2+z
_cell_length_a                   17.4002(13)
_cell_length_b                   11.1573(7)
_cell_length_c                   17.4202(13)
_cell_angle_alpha                90
_cell_angle_beta                 113.479(5)
_cell_angle_gamma                90
_cell_volume                     3101.94
loop_
_atom_site_label
_atom_site_type_symbol
_atom_site_fract_x
_atom_site_fract_y
_atom_site_fract_z
_atom_site_U_iso_or_equiv
_atom_site_thermal_displace_type
Ag1 Ag 0.10629(2) 0.26823(2) 0.69175(2) 0.0585 Uani
S1 S -0.09379(6) 0.38124(9) 0.68633(6) 0.0518 Uani
O1 O -0.04133(18) 0.3673(3) 0.63933(19) 0.0677 Uani
O2 O -0.0527(3) 0.3696(3) 0.7750(2) 0.0807 Uani
O3 O -0.1724(2) 0.3194(3) 0.6517(2) 0.0793 Uani
O4 O 0.49124(14) 0.58134(18) 0.44344(15) 0.0402 Uani
O5 O 0.60338(18) 1.0021(3) 0.4406(2) 0.0429 Uani
O6 O 0.17966(14) 0.9122(2) 0.37489(19) 0.0499 Uani
N1 N 0.1889(2) 0.3003(4) 0.6037(2) 0.0646 Uani
N2 N 0.5928(2) 1.5773(3) 0.66007(18) 0.0475 Uani
N3 N 0.1495(2) 1.5678(3) 0.2655(3) 0.0626 Uani
C1 C -0.1228(4) 0.5373(4) 0.6731(4) 0.0771 Uani
C2 C 0.2322(2) 0.3495(4) 0.5798(3) 0.0480 Uani
C3 C 0.2847(2) 0.4184(3) 0.5490(2) 0.0387 Uani
C4 C 0.3239(2) 0.3642(3) 0.5022(2) 0.0408 Uani
H1 H 0.3184 0.2812 0.4920 0.0490 Uiso
C5 C 0.37081(19) 0.4326(2) 0.47070(19) 0.0345 Uani
H2 H 0.3981 0.3962 0.4398 0.0410 Uiso
C6 C 0.37774(19) 0.5563(3) 0.4849(2) 0.0300 Uani
C7 C 0.3390(2) 0.6096(3) 0.5323(2) 0.0368 Uani
H3 H 0.3445 0.6925 0.5426 0.0440 Uiso
C8 C 0.2924(2) 0.5409(3) 0.5642(2) 0.0401 Uani
H4 H 0.2661 0.5770 0.5961 0.0480 Uiso
C9 C 0.43228(18) 0.6279(2) 0.45281(19) 0.0292 Uani
C10 C 0.41557(19) 0.7599(2) 0.43754(19) 0.0282 Uani
C11 C 0.48391(18) 0.8347(2) 0.45310(18) 0.0279 Uani
H5 H 0.5377 0.8018 0.4680 0.0330 Uiso
C12 C 0.47282(18) 0.9585(2) 0.44660(18) 0.0291 Uani
C13 C 0.39317(18) 1.0067(2) 0.42233(18) 0.0279 Uani
H6 H 0.3862 1.0903 0.4205 0.0330 Uiso
C14 C 0.32303(19) 0.9318(3) 0.40047(19) 0.0282 Uani
C15 C 0.33538(18) 0.8077(2) 0.40932(19) 0.0285 Uani
H7 H 0.2890 0.7564 0.3961 0.0340 Uiso
C16 C 0.54831(18) 1.0364(2) 0.46208(19) 0.0305 Uani
C17 C 0.55601(18) 1.1550(2) 0.50548(19) 0.0291 Uani
C18 C 0.6010(2) 1.2465(3) 0.4873(2) 0.0382 Uani
H8 H 0.6234 1.2340 0.4468 0.0460 Uiso
C19 C 0.6129(2) 1.3552(3) 0.5283(2) 0.0391 Uani
H9 H 0.6422 1.4175 0.5156 0.0470 Uiso
C20 C 0.5803(2) 1.3706(2) 0.58945(19) 0.0331 Uani
C21 C 0.5370(2) 1.2792(3) 0.6097(2) 0.0368 Uani
H10 H 0.5162 1.2906 0.6514 0.0440 Uiso
C22 C 0.5250(2) 1.1702(3) 0.5668(2) 0.0341 Uani
H11 H 0.4960 1.1075 0.5795 0.0410 Uiso
C23 C 0.5884(2) 1.4864(3) 0.6302(2) 0.0383 Uani
C24 C 0.23481(19) 0.9775(3) 0.3734(2) 0.0324 Uani
C25 C 0.21454(18) 1.1058(2) 0.34553(19) 0.0290 Uani
C26 C 0.25246(19) 1.1655(3) 0.29931(19) 0.0327 Uani
H12 H 0.2916 1.1249 0.2841 0.0390 Uiso
C27 C 0.2330(2) 1.2837(3) 0.2758(2) 0.0366 Uani
H13 H 0.2582 1.3239 0.2444 0.0440 Uiso
C28 C 0.1750(2) 1.3420(3) 0.2998(2) 0.0352 Uani
C29 C 0.1341(2) 1.2834(3) 0.3425(2) 0.0375 Uani
H14 H 0.0937 1.3237 0.3560 0.0450 Uiso
C30 C 0.1535(2) 1.1640(3) 0.3654(2) 0.0347 Uani
H15 H 0.1258 1.1228 0.3941 0.0420 Uiso
C31 C 0.1592(2) 1.4690(3) 0.2803(3) 0.0455 Uani
F1 F -0.1755(2) 0.5637(2) 0.7083(2) 0.1031 Uani
F2 F -0.1599(3) 0.5663(4) 0.5928(3) 0.1298 Uani
F3 F -0.0534(3) 0.6054(3) 0.7066(3) 0.1285 Uani
N2B N 0.0928(2) 0.0773(3) 0.66007(18) 0.0475 Uani
N3A N 0.1495(2) 0.4322(3) 0.7655(3) 0.0626 Uani
Ag1B Ag 0.60629(2) 1.76823(2) 0.69175(2) 0.0585 Uani
Ag1A Ag 0.10629(2) 1.73177(2) 0.19175(2) 0.0585 Uani
O7 O 0.34722(19) 0.4673(3) 0.7672(2) 0.0715 Uani
O8 O 0.4397(3) 0.3744(4) 0.7391(2) 0.0978 Uani
N4 N 0.4136(2) 0.4629(3) 0.7606(2) 0.0552 Uani
C32 C 0.4657(3) 0.5716(4) 0.7801(3) 0.0729 Uani
H16 H 0.4566 0.6169 0.8233 0.1100 Uiso
H17 H 0.4505 0.6204 0.7301 0.1100 Uiso
H18 H 0.5242 0.5492 0.7997 0.1100 Uiso
loop_
_atom_site_aniso_label
_atom_site_aniso_U_11
_atom_site_aniso_U_22
_atom_site_aniso_U_33
_atom_site_aniso_U_23
_atom_site_aniso_U_13
_atom_site_aniso_U_12
Ag1 0.0784(2) 0.03029(11) 0.0792(2) -0.01950(16) 0.04432(17) -0.01670(17)
S1 0.0603(6) 0.0482(5) 0.0579(6) -0.0104(4) 0.0351(5) -0.0018(4)
O1 0.0633(18) 0.081(2) 0.0730(19) -0.0194(16) 0.0422(16) -0.0002(15)
O2 0.106(3) 0.082(2) 0.059(2) -0.0004(18) 0.038(2) 0.008(2)
O3 0.083(2) 0.073(2) 0.102(2) -0.0408(19) 0.058(2) -0.0319(18)
O4 0.0400(13) 0.0286(11) 0.0576(15) 0.0027(10) 0.0252(12) 0.0037(9)
O5 0.0362(11) 0.0324(9) 0.0669(14) -0.0082(9) 0.0276(10) -0.0015(8)
O6 0.0335(13) 0.0329(11) 0.088(2) 0.0133(12) 0.0292(13) 0.0011(10)
N1 0.055(2) 0.077(2) 0.068(2) 0.0152(18) 0.0309(19) -0.0174(18)
N2 0.067(2) 0.0299(14) 0.0491(19) -0.0063(11) 0.0267(17) -0.0072(13)
N3 0.068(2) 0.0346(16) 0.092(3) 0.0158(16) 0.039(2) 0.0151(15)
C1 0.120(4) 0.055(2) 0.096(4) 0.010(2) 0.085(4) 0.005(3)
C2 0.043(2) 0.0477(19) 0.051(2) 0.0048(17) 0.0162(18) -0.0080(17)
C3 0.0292(16) 0.0428(17) 0.040(2) 0.0113(14) 0.0096(15) -0.0048(13)
C4 0.0412(18) 0.0271(15) 0.049(2) 0.0030(13) 0.0126(16) -0.0061(13)
C5 0.0374(17) 0.0256(13) 0.0397(19) 0.0010(12) 0.0144(15) -0.0013(12)
C6 0.0312(17) 0.0232(14) 0.0329(17) 0.0027(12) 0.0098(14) 0.0004(12)
C7 0.0456(19) 0.0269(13) 0.0376(18) 0.0001(12) 0.0164(15) -0.0024(13)
C8 0.0404(18) 0.0431(17) 0.0382(19) 0.0007(14) 0.0170(16) 0.0006(14)
C9 0.0290(15) 0.0226(13) 0.0333(17) 0.0007(11) 0.0096(13) 0.0009(11)
C10 0.0309(15) 0.0240(12) 0.0299(15) -0.0012(11) 0.0122(12) -0.0004(11)
C11 0.0280(16) 0.0254(13) 0.0324(16) -0.0002(11) 0.0144(13) 0.0010(11)
C12 0.0335(16) 0.0258(13) 0.0308(16) -0.0026(11) 0.0159(13) -0.0028(11)
C13 0.0336(16) 0.0195(12) 0.0313(16) -0.0019(11) 0.0138(13) -0.0004(11)
C14 0.0284(16) 0.0249(14) 0.0307(17) 0.0029(12) 0.0111(14) 0.0017(12)
C15 0.0301(15) 0.0239(12) 0.0319(15) 0.0002(12) 0.0129(12) -0.0055(11)
C16 0.0295(16) 0.0233(12) 0.0394(18) 0.0011(11) 0.0145(14) 0.0006(11)
C17 0.0274(16) 0.0213(12) 0.0372(17) 0.0010(12) 0.0114(13) -0.0013(11)
C18 0.0437(19) 0.0305(15) 0.049(2) -0.0006(13) 0.0275(16) -0.0026(12)
C19 0.0430(19) 0.0244(14) 0.055(2) -0.0003(13) 0.0250(17) -0.0038(13)
C20 0.0359(17) 0.0240(14) 0.0350(18) -0.0021(12) 0.0095(14) -0.0009(12)
C21 0.0448(19) 0.0321(15) 0.0339(18) -0.0007(13) 0.0160(15) -0.0010(14)
C22 0.0341(19) 0.0258(16) 0.0441(19) 0.0011(14) 0.0173(16) -0.0052(13)
C23 0.0440(19) 0.0268(15) 0.0422(19) -0.0004(13) 0.0151(16) -0.0026(13)
C24 0.0323(16) 0.0272(13) 0.0407(18) 0.0024(12) 0.0178(14) -0.0006(12)
C25 0.0273(15) 0.0246(13) 0.0337(16) -0.0005(12) 0.0106(13) 0.0012(11)
C26 0.0329(17) 0.0319(15) 0.0378(18) 0.0037(12) 0.0189(15) 0.0057(12)
C27 0.0353(17) 0.0347(16) 0.0409(18) 0.0092(13) 0.0164(15) 0.0015(13)
C28 0.0368(18) 0.0267(15) 0.0364(19) 0.0030(13) 0.0087(15) 0.0039(13)
C29 0.0360(18) 0.0307(15) 0.050(2) -0.0017(14) 0.0217(16) 0.0071(13)
C30 0.0369(18) 0.0263(14) 0.047(2) 0.0015(13) 0.0231(16) 0.0026(13)
C31 0.044(2) 0.0360(17) 0.061(2) 0.0106(16) 0.0256(19) 0.0088(14)
F1 0.172(3) 0.0577(15) 0.144(3) 0.0262(17) 0.131(3) 0.0367(18)
F2 0.177(4) 0.132(3) 0.124(3) 0.072(3) 0.106(3) 0.075(3)
F3 0.189(4) 0.0686(19) 0.178(4) -0.038(2) 0.126(3) -0.061(2)
N2B 0.067 0.0299 0.0491 -0.0063 0.0267 -0.0072
N3A 0.068 0.0346 0.092 -0.0158 0.039 -0.0151
Ag1B 0.0784 0.03029 0.0792 -0.0195 0.04432 -0.0167
Ag1A 0.0784 0.03029 0.0792 0.0195 0.04432 0.0167
O7 0.0497(18) 0.090(2) 0.074(2) -0.0008(18) 0.0237(16) 0.0013(16)
O8 0.112(3) 0.087(3) 0.092(3) -0.020(2) 0.038(2) 0.033(2)
N4 0.055(2) 0.067(2) 0.0410(19) 0.0055(16) 0.0164(16) 0.0154(17)
C32 0.068(3) 0.078(3) 0.079(3) 0.020(3) 0.036(3) 0.001(2)
loop_
_geom_bond_atom_site_label_1
_geom_bond_atom_site_label_2
_geom_bond_site_symmetry_1
_geom_bond_site_symmetry_2
Ag1 O1 1_555 1_555
S1 O1 1_555 1_555
O2 S1 1_555 1_555
O3 S1 1_555 1_555
O4 C9 1_555 1_555
O5 C16 1_555 1_555
O6 C24 1_555 1_555
O7 N4 1_555 1_555
O8 N4 1_555 1_555
N1 Ag1 1_555 1_555
N2 C23 1_555 1_555
N3 C31 1_555 1_555
N4 C32 1_555 1_555
C1 S1 1_555 1_555
C2 N1 1_555 1_555
C3 C2 1_555 1_555
C4 C3 1_555 1_555
H1 C4 1_555 1_555
C5 C4 1_555 1_555
H2 C5 1_555 1_555
C6 C5 1_555 1_555
C7 C6 1_555 1_555
H3 C7 1_555 1_555
C8 C3 1_555 1_555
H4 C8 1_555 1_555
C9 C6 1_555 1_555
C10 C9 1_555 1_555
C11 C10 1_555 1_555
H5 C11 1_555 1_555
C12 C11 1_555 1_555
C13 C12 1_555 1_555
H6 C13 1_555 1_555
C14 C13 1_555 1_555
C15 C10 1_555 1_555
H7 C15 1_555 1_555
C16 C12 1_555 1_555
C17 C16 1_555 1_555
C18 C17 1_555 1_555
H8 C18 1_555 1_555
C19 C18 1_555 1_555
H9 C19 1_555 1_555
C20 C19 1_555 1_555
C21 C20 1_555 1_555
H10 C21 1_555 1_555
C22 C17 1_555 1_555
H11 C22 1_555 1_555
C23 C20 1_555 1_555
C24 C14 1_555 1_555
C25 C24 1_555 1_555
C26 C25 1_555 1_555
H12 C26 1_555 1_555
C27 C26 1_555 1_555
H13 C27 1_555 1_555
C28 C27 1_555 1_555
C29 C28 1_555 1_555
H14 C29 1_555 1_555
C30 C25 1_555 1_555
H15 C30 1_555 1_555
C31 C28 1_555 1_555
C32 H16 1_555 1_555
H17 C32 1_555 1_555
H18 C32 1_555 1_555
F1 C1 1_555 1_555
F2 C1 1_555 1_555
F3 C1 1_555 1_555
N2B Ag1 1_555 1_555
N3A Ag1 1_555 1_555
Ag1B N2 1_555 1_555
Ag1A N3 1_555 1_555
C7 C8 1_555 1_555
C14 C15 1_555 1_555
C21 C22 1_555 1_555
C29 C30 1_555 1_555

#END
