
#######################################################################
#
#                 Cambridge Crystallographic Data Centre
#                                CCDC 
#
#######################################################################
#
# If this CIF has been generated from an entry in the Cambridge 
# Structural Database, then it will include bibliographic, chemical, 
# crystal, experimental, refinement or atomic coordinate data resulting 
# from the CCDC's data processing and validation procedures.
#
#######################################################################

data_CAHQOS
_chemical_formula_moiety         '(C4 H11 Al4 N1 O17 P4)n'
_symmetry_cell_setting           triclinic
_symmetry_space_group_name_H-M   'P -1'
_symmetry_Int_Tables_number      2
_space_group_name_Hall           '-P 1'
loop_
_symmetry_equiv_pos_site_id
_symmetry_equiv_pos_as_xyz
1 x,y,z
2 -x,-y,-z
_cell_length_a                   8.701(3)
_cell_length_b                   9.210(3)
_cell_length_c                   12.385(3)
_cell_angle_alpha                111.11(2)
_cell_angle_beta                 101.42(2)
_cell_angle_gamma                102.08(2)
_cell_volume                     863.77
loop_
_atom_site_label
_atom_site_type_symbol
_atom_site_fract_x
_atom_site_fract_y
_atom_site_fract_z
Al1 Al 0.6985(1) 0.2096(1) -0.3759(1)
Al2 Al 0.6494(1) -0.2177(1) -0.8557(1)
Al3 Al 0.9802(1) 0.6694(1) -0.0572(1)
Al4 Al 0.5051(1) 0.2067(1) -0.8538(1)
P1 P 0.5990(1) 0.4840(1) -0.1989(1)
P2 P 0.5571(1) 0.0549(1) -0.6567(1)
P3 P 0.7794(1) 0.0517(1) -0.9322(1)
P4 P 1.0363(1) 0.3432(1) -0.1807(1)
O1 O 0.6732(2) 0.1599(2) -0.5277(2)
O2 O 0.5164(2) 0.1643(2) -0.7165(2)
O3 O 0.9094(2) 0.2594(3) -0.3065(2)
O4 O 0.5116(2) -0.2519(2) -1.0016(2)
O5 O 0.6367(2) -0.0652(2) -0.7232(2)
O6 O 0.5085(2) 0.5950(2) -0.2300(2)
O7 O 0.5121(2) 0.3862(2) -0.1422(2)
O8 O 0.3947(2) -0.0399(2) -0.6460(2)
O9 O 0.6234(3) 0.3712(2) -0.3160(2)
O10 O 1.0715(3) 0.5284(2) -0.1322(2)
O11 O 0.7695(2) 0.5918(2) -0.1097(2)
O12 O 1.1945(2) 0.3043(2) -0.1870(2)
O13 O 0.6928(2) 0.1652(2) -0.8653(2)
O14 O 0.9504(2) 0.1557(2) -0.9213(2)
O15 O 0.8095(2) -0.0656(2) -0.8758(2)
O16 O 0.6836(2) -0.0418(2) -1.0671(2)
O17 O 0.9580(2) 0.2831(2) -0.0974(2)
O8A O 0.6053(2) 0.0399(2) -0.3540(2)
O7A O 0.4879(2) -0.3862(2) -0.8578(2)
O12A O 0.8055(2) -0.3043(2) -0.8130(2)
O14A O 1.0496(2) 0.8443(2) -0.0787(2)
O17A O 1.0420(2) 0.7169(2) 0.0974(2)
O4A O 0.4884(2) 0.2519(2) -0.9984(2)
O6A O 0.4915(2) 0.4050(2) -0.7700(2)
O16A O 0.3164(2) 0.0418(2) -0.9329(2)
Al4A Al 0.4949(1) -0.2067(1) -1.1462(1)
Al4A_2 Al 0.4949(1) 0.7933(1) -0.1462(1)
Al2A Al 0.3506(1) 0.2177(1) -0.1443(1)
Al1A Al 0.3015(1) -0.2096(1) -0.6241(1)
Al2A_2 Al 1.3506(1) 0.2177(1) -0.1443(1)
Al3A Al 1.0198(1) 0.3306(1) -0.9428(1)
Al3A_2 Al 1.0198(1) 0.3306(1) 0.0572(1)
N1 N -0.1522(3) -0.0946(4) -0.2660(3)
C1 C -0.0796(10) -0.3433(8) -0.3932(6)
C2 C -0.1530(9) -0.3956(9) -0.5284(5)
C3 C -0.1566(14) -0.2202(12) -0.3747(6)
C4 C -0.2123(19) -0.2525(16) -0.4918(7)
loop_
_geom_bond_atom_site_label_1
_geom_bond_atom_site_label_2
_geom_bond_site_symmetry_1
_geom_bond_site_symmetry_2
Al1 O1 1_555 1_555
Al2 O4 1_555 1_555
Al3 O10 1_555 1_555
Al4 O2 1_555 1_555
P1 O6 1_555 1_555
P2 O1 1_555 1_555
P3 O13 1_555 1_555
P4 O3 1_555 1_555
O2 P2 1_555 1_555
O3 Al1 1_555 1_555
O4 Al4A 1_555 1_555
O5 Al2 1_555 1_555
O6 Al4A_2 1_555 1_555
O7 P1 1_555 1_555
O8 P2 1_555 1_555
O9 Al1 1_555 1_555
O10 P4 1_555 1_555
O11 Al3 1_555 1_555
O12 P4 1_555 1_555
O13 Al4 1_555 1_555
O14 P3 1_555 1_555
O15 Al2 1_555 1_555
O16 P3 1_555 1_555
O17 P4 1_555 1_555
N1 C3 1_555 1_555
C1 C2 1_555 1_555
C2 C4 1_555 1_555
C3 C1 1_555 1_555
C4 C3 1_555 1_555
O8A Al1 1_555 1_555
O7A Al2 1_555 1_555
O12A Al2 1_555 1_555
O14A Al3 1_555 1_555
O17A Al3 1_555 1_555
O4A Al4 1_555 1_555
O6A Al4 1_555 1_555
O16A Al4 1_555 1_555
Al4A O16 1_555 1_555
Al2A O7 1_555 1_555
Al1A O8 1_555 1_555
Al2A_2 O12 1_555 1_555
Al3A O14 1_555 1_555
Al3A_2 O17 1_555 1_555
P1 O9 1_555 1_555
P1 O11 1_555 1_555
P2 O5 1_555 1_555
P3 O15 1_555 1_555

#END
