
#######################################################################
#
#                 Cambridge Crystallographic Data Centre
#                                CCDC 
#
#######################################################################
#
# If this CIF has been generated from an entry in the Cambridge 
# Structural Database, then it will include bibliographic, chemical, 
# crystal, experimental, refinement or atomic coordinate data resulting 
# from the CCDC's data processing and validation procedures.
#
#######################################################################

data_OZOPEA
_chemical_formula_moiety         '(C40 H32 Co2 N4 O10)n'
_symmetry_cell_setting           orthorhombic
_symmetry_space_group_name_H-M   'P 21 21 2'
_symmetry_Int_Tables_number      18
_space_group_name_Hall           'P 2 2ab'
loop_
_symmetry_equiv_pos_site_id
_symmetry_equiv_pos_as_xyz
1 x,y,z
2 -x,-y,z
3 1/2-x,1/2+y,-z
4 1/2+x,1/2-y,-z
_cell_length_a                   23.7716(11)
_cell_length_b                   11.4208(7)
_cell_length_c                   16.2480(9)
_cell_angle_alpha                90
_cell_angle_beta                 90
_cell_angle_gamma                90
_cell_volume                     4411.18
loop_
_atom_site_label
_atom_site_type_symbol
_atom_site_fract_x
_atom_site_fract_y
_atom_site_fract_z
Co1 Co 0.20114(2) 0.79836(4) 0.34700(3)
Co2 Co 0.30463(2) 0.71919(4) 0.15165(3)
N1 N 0.30604(13) -0.0916(3) 0.1493(2)
N2 N 0.19921(13) 1.6102(3) 0.3454(2)
O1 O 0.22212(10) 0.7124(3) 0.12264(18)
O2 O 0.28319(10) 0.8007(3) 0.38149(17)
N3 N 0.20186(13) 0.9875(3) 0.3471(2)
O3 O 0.18389(11) 0.8110(3) 0.22648(17)
O4 O -0.17138(11) 0.7873(3) -0.02180(18)
O5 O 0.67471(11) 0.7046(3) 0.52277(19)
O6 O -0.10538(11) 0.7761(3) -0.11584(19)
O7 O 0.32134(12) 0.7175(3) 0.27133(17)
C1 C 0.19980(16) 1.3636(3) 0.3446(3)
O8 O 0.61083(11) 0.6998(3) 0.61978(19)
N4 N 0.30523(13) 0.5309(3) 0.1553(2)
C2 C 0.30686(17) 0.1551(3) 0.1523(3)
C3 C 0.32395(13) 0.7573(3) 0.3428(3)
C4 C -0.12061(16) 0.7796(4) -0.0425(3)
C5 C 0.62451(16) 0.6991(4) 0.5456(3)
C6 C 0.18149(13) 0.7602(3) 0.1580(2)
C7 C 0.24466(19) 1.0498(4) 0.3771(3)
H1 H 0.2754 1.0100 0.3989
C8 C 0.15834(19) 1.0480(4) 0.3169(3)
H2 H 0.1272 1.0065 0.2981
C9 C 0.08126(19) 0.8205(6) 0.1450(4)
H3 H 0.0857 0.8657 0.1921
C10 C 0.2665(2) -0.0278(4) 0.1126(3)
H4 H 0.2377 -0.0673 0.0857
C11 C 0.2322(2) 1.5491(4) 0.3954(3)
H5 H 0.2557 1.5900 0.4311
C12 C 0.15708(19) 1.1692(4) 0.3119(3)
H6 H 0.1266 1.2068 0.2876
C13 C 0.34650(19) -0.0308(4) 0.1861(3)
H7 H 0.3756 -0.0722 0.2109
C14 C 0.1645(2) 1.4283(4) 0.2940(3)
H8 H 0.1396 1.3899 0.2591
C15 C 0.58097(18) 0.6833(6) 0.4778(3)
H9 H 0.5882 0.7386 0.4330
C16 C -0.07756(18) 0.7762(7) 0.0270(3)
H10 H -0.0732 0.8549 0.0502
O9 O -0.02646(14) 0.7400(5) -0.0078(2)
C17 C 0.3482(2) 0.0893(4) 0.1899(3)
H11 H 0.3773 0.1264 0.2179
C18 C 0.3423(3) 0.3492(4) 0.2030(5)
H12 H 0.3683 0.3109 0.2361
C19 C 0.37906(15) 0.7515(4) 0.3855(2)
C20 C 0.24537(19) 1.1719(4) 0.3773(3)
H13 H 0.2756 1.2117 0.4004
C21 C 0.2338(2) 1.4279(4) 0.3974(3)
H14 H 0.2575 1.3897 0.4341
C22 C 0.1659(2) 1.5485(4) 0.2951(3)
H15 H 0.1425 1.5890 0.2591
C23 C 0.3396(3) 0.4698(4) 0.2033(4)
H16 H 0.3631 0.5105 0.2391
O10 O 0.52770(13) 0.7072(6) 0.5145(2)
C24 C 0.26533(19) 0.0916(4) 0.1115(3)
H17 H 0.2368 0.1306 0.0836
C25 C 0.2709(2) 0.3490(4) 0.1048(4)
H18 H 0.2464 0.3108 0.0691
C26 C 0.30642(16) 0.2851(3) 0.1536(3)
C27 C 0.2711(2) 0.4688(4) 0.1082(3)
H19 H 0.2456 0.5091 0.0753
C28 C 0.47948(17) 0.7151(6) 0.3826(3)
H20 H 0.5123 0.7027 0.3528
C29 C 0.48107(18) 0.7225(7) 0.4661(3)
C30 C 0.12643(16) 0.7583(4) 0.1141(2)
C31 C 0.0672(2) 0.6867(7) 0.0047(4)
H21 H 0.0629 0.6416 -0.0425
C32 C 0.38212(18) 0.7651(7) 0.4700(3)
H22 H 0.3502 0.7864 0.4995
C33 C 0.4328(2) 0.7468(8) 0.5108(3)
H23 H 0.4343 0.7508 0.5679
C34 C 0.20124(17) 1.2342(3) 0.3432(3)
C35 C 0.11859(19) 0.6924(6) 0.0433(3)
H24 H 0.1488 0.6511 0.0214
C36 C 0.02264(18) 0.7471(6) 0.0356(3)
C37 C 0.42809(16) 0.7264(5) 0.3422(3)
H25 H 0.4265 0.7169 0.2854
C38 C 0.0291(2) 0.8158(7) 0.1058(4)
H26 H -0.0012 0.8582 0.1264
C39 C 0.5854(3) 0.5579(7) 0.4461(5)
H27 H 0.6218 0.5459 0.4221
H28 H 0.5802 0.5043 0.4910
H29 H 0.5568 0.5446 0.4053
C40 C -0.0969(4) 0.6930(11) 0.0934(6)
H30 H -0.1318 0.7201 0.1159
H31 H -0.1019 0.6164 0.0703
H32 H -0.0690 0.6897 0.1362
Co1_2 Co 0.20114(2) 1.79836(4) 0.34700(3)
Co1C Co 0.70114(2) 0.70164(4) 0.65300(3)
Co2_2 Co 0.30463(2) -0.28081(4) 0.15165(3)
Co2C Co -0.19537(2) 0.78081(4) -0.15165(3)
N1_2 N 0.30604(13) 0.9084(3) 0.1493(2)
N2_2 N 0.19921(13) 0.6102(3) 0.3454(2)
O4C O 0.32862(11) 0.7127(3) 0.02180(18)
O5C O 0.17471(11) 0.7954(3) 0.47723(19)
O6C O 0.39462(11) 0.7239(3) 0.11584(19)
O8C O 0.11083(11) 0.8002(3) 0.38022(19)
loop_
_geom_bond_atom_site_label_1
_geom_bond_atom_site_label_2
_geom_bond_site_symmetry_1
_geom_bond_site_symmetry_2
Co1 O2 1_555 1_555
Co2 O1 1_555 1_555
N1 C10 1_555 1_555
N2 C11 1_555 1_555
O1 C6 1_555 1_555
O2 C3 1_555 1_555
N3 Co1 1_555 1_555
O3 Co1 1_555 1_555
O4 C4 1_555 1_555
O5 C5 1_555 1_555
O6 C4 1_555 1_555
O7 Co2 1_555 1_555
C1 C14 1_555 1_555
O8 C5 1_555 1_555
N4 Co2 1_555 1_555
C2 C17 1_555 1_555
C3 O7 1_555 1_555
C4 C16 1_555 1_555
C5 C15 1_555 1_555
C6 O3 1_555 1_555
C7 N3 1_555 1_555
H1 C7 1_555 1_555
C8 N3 1_555 1_555
H2 C8 1_555 1_555
C9 H3 1_555 1_555
C10 H4 1_555 1_555
C11 H5 1_555 1_555
C12 C8 1_555 1_555
H6 C12 1_555 1_555
C13 N1 1_555 1_555
H7 C13 1_555 1_555
C14 H8 1_555 1_555
C15 H9 1_555 1_555
C16 H10 1_555 1_555
O9 C16 1_555 1_555
C17 C13 1_555 1_555
H11 C17 1_555 1_555
C18 H12 1_555 1_555
C19 C3 1_555 1_555
C20 C7 1_555 1_555
H13 C20 1_555 1_555
C21 C1 1_555 1_555
H14 C21 1_555 1_555
C22 N2 1_555 1_555
H15 C22 1_555 1_555
C23 N4 1_555 1_555
H16 C23 1_555 1_555
O10 C15 1_555 1_555
C24 C2 1_555 1_555
H17 C24 1_555 1_555
C25 H18 1_555 1_555
C26 C2 1_555 1_555
C27 N4 1_555 1_555
H19 C27 1_555 1_555
C28 H20 1_555 1_555
C29 O10 1_555 1_555
C30 C6 1_555 1_555
C31 H21 1_555 1_555
C32 C19 1_555 1_555
H22 C32 1_555 1_555
C33 C29 1_555 1_555
H23 C33 1_555 1_555
C34 C1 1_555 1_555
C35 C30 1_555 1_555
H24 C35 1_555 1_555
C36 O9 1_555 1_555
C37 C19 1_555 1_555
H25 C37 1_555 1_555
C38 C9 1_555 1_555
H26 C38 1_555 1_555
C39 C15 1_555 1_555
H27 C39 1_555 1_555
H28 C39 1_555 1_555
H29 C39 1_555 1_555
C40 C16 1_555 1_555
H30 C40 1_555 1_555
H31 C40 1_555 1_555
H32 C40 1_555 1_555
Co1_2 N2 1_555 1_555
Co1C O5 1_555 1_555
Co2_2 N1 1_555 1_555
Co2C O4 1_555 1_555
N1_2 Co2 1_555 1_555
N2_2 Co1 1_555 1_555
O4C Co2 1_555 1_555
O5C Co1 1_555 1_555
O6C Co2 1_555 1_555
O8C Co1 1_555 1_555
O6 Co2C 1_555 1_555
O8 Co1C 1_555 1_555
C9 C30 1_555 1_555
C10 C24 1_555 1_555
C11 C21 1_555 1_555
C12 C34 1_555 1_555
C14 C22 1_555 1_555
C18 C23 1_555 1_555
C18 C26 1_555 1_555
C20 C34 1_555 1_555
C25 C26 1_555 1_555
C25 C27 1_555 1_555
C28 C29 1_555 1_555
C28 C37 1_555 1_555
C31 C35 1_555 1_555
C31 C36 1_555 1_555
C32 C33 1_555 1_555
C36 C38 1_555 1_555

#END
