
#######################################################################
#
#                 Cambridge Crystallographic Data Centre
#                                CCDC 
#
#######################################################################
#
# If this CIF has been generated from an entry in the Cambridge 
# Structural Database, then it will include bibliographic, chemical, 
# crystal, experimental, refinement or atomic coordinate data resulting 
# from the CCDC's data processing and validation procedures.
#
#######################################################################

data_OZOPIE
_chemical_formula_moiety         '(C40 H32 Co2 N4 O10)n'
_symmetry_cell_setting           orthorhombic
_symmetry_space_group_name_H-M   'P 21 21 2'
_symmetry_Int_Tables_number      18
_space_group_name_Hall           'P 2 2ab'
loop_
_symmetry_equiv_pos_site_id
_symmetry_equiv_pos_as_xyz
1 x,y,z
2 -x,-y,z
3 1/2-x,1/2+y,-z
4 1/2+x,1/2-y,-z
_cell_length_a                   23.759(3)
_cell_length_b                   11.4143(15)
_cell_length_c                   16.225(2)
_cell_angle_alpha                90
_cell_angle_beta                 90
_cell_angle_gamma                90
_cell_volume                     4400.1
loop_
_atom_site_label
_atom_site_type_symbol
_atom_site_fract_x
_atom_site_fract_y
_atom_site_fract_z
Co1 Co 0.30466(2) 0.78132(4) 0.15163(4)
Co2 Co 0.20111(2) 0.70218(4) 0.34700(4)
N1 N 0.30608(15) 0.5925(3) 0.1494(2)
N2 N 0.19908(14) -0.1091(3) 0.3459(2)
O1 O 0.22236(11) 0.7888(3) 0.12265(19)
O2 O 0.28294(11) 0.7005(3) 0.38125(19)
O3 O 0.67446(12) 0.7953(4) 0.5230(2)
O4 O 0.61073(13) 0.8000(4) 0.6198(2)
O5 O -0.17137(13) 0.7121(4) -0.0216(2)
N3 N 0.20183(15) 0.5124(3) 0.3475(2)
O6 O 0.18403(13) 0.6902(3) 0.22638(18)
O7 O -0.10540(13) 0.7231(3) -0.1160(2)
C1 C 0.19952(18) 0.1369(3) 0.3439(3)
N4 N 0.30515(15) -0.0302(3) 0.1551(2)
C2 C 0.30689(19) 0.3452(3) 0.1520(3)
O8 O 0.32129(13) 0.7837(3) 0.27106(18)
C3 C -0.12055(18) 0.7197(5) -0.0421(3)
C4 C 0.32392(16) 0.7428(3) 0.3421(3)
C5 C 0.62458(18) 0.8005(4) 0.5453(3)
C6 C 0.18138(15) 0.7403(4) 0.1577(3)
C7 C 0.2322(2) -0.0471(4) 0.3948(3)
H1 H 0.2561 -0.0877 0.4301
C8 C 0.1568(2) 0.3320(4) 0.3121(3)
H2 H 0.1262 0.2948 0.2879
C9 C 0.1651(2) 0.0729(4) 0.2933(3)
H3 H 0.1409 0.1115 0.2573
C10 C 0.2336(2) 0.0723(4) 0.3969(3)
H4 H 0.2574 0.1105 0.4336
C11 C 0.3415(3) 0.1515(5) 0.2036(5)
H5 H 0.3669 0.1903 0.2378
C12 C -0.0773(2) 0.7246(8) 0.0271(3)
H6 H -0.0726 0.6457 0.0499
C13 C 0.2701(3) 0.0331(5) 0.1087(3)
H7 H 0.2439 -0.0067 0.0766
C14 C 0.2675(2) 0.5278(4) 0.1131(3)
H8 H 0.2387 0.5672 0.0859
C15 C 0.12656(18) 0.7413(5) 0.1142(3)
C16 C 0.1659(2) -0.0486(4) 0.2950(3)
H9 H 0.1423 -0.0894 0.2593
C17 C 0.2449(2) 0.3290(4) 0.3771(3)
H10 H 0.2753 0.2895 0.4002
C18 C 0.3458(2) 0.5317(4) 0.1871(3)
H11 H 0.3742 0.5734 0.2135
O9 O -0.02654(15) 0.7593(5) -0.0078(3)
C19 C 0.37879(17) 0.7486(5) 0.3856(3)
C20 C 0.42820(18) 0.7738(5) 0.3425(3)
H12 H 0.4266 0.7839 0.2857
C21 C 0.1584(2) 0.4527(4) 0.3172(3)
H13 H 0.1275 0.4946 0.2983
C22 C 0.2657(2) 0.4084(4) 0.1118(3)
H14 H 0.2369 0.3698 0.0840
C23 C 0.2442(2) 0.4494(4) 0.3770(3)
H15 H 0.2750 0.4888 0.3987
C24 C 0.2702(3) 0.1515(5) 0.1056(4)
H16 H 0.2454 0.1900 0.0704
C25 C 0.30650(19) 0.2161(4) 0.1539(3)
C26 C 0.3401(3) 0.0315(5) 0.2042(4)
H17 H 0.3640 -0.0087 0.2397
C27 C 0.20111(19) 0.2665(4) 0.3434(3)
C28 C 0.3483(2) 0.4109(5) 0.1902(4)
H18 H 0.3777 0.3740 0.2179
C29 C 0.0225(2) 0.7521(7) 0.0365(3)
C30 C 0.4797(2) 0.7841(7) 0.3821(3)
H19 H 0.5126 0.7953 0.3521
C31 C 0.4810(2) 0.7774(7) 0.4657(3)
C32 C 0.1192(2) 0.8074(7) 0.0445(4)
H20 H 0.1494 0.8493 0.0234
C33 C 0.3821(2) 0.7347(7) 0.4694(3)
H21 H 0.3502 0.7136 0.4991
C34 C 0.0814(2) 0.6807(6) 0.1443(4)
H22 H 0.0854 0.6371 0.1923
C35 C 0.5808(2) 0.8154(6) 0.4781(3)
H23 H 0.5878 0.7589 0.4338
C36 C 0.0295(2) 0.6829(7) 0.1046(4)
H24 H -0.0001 0.6377 0.1242
O10 O 0.52786(14) 0.7926(6) 0.5146(2)
C37 C 0.4326(2) 0.7518(9) 0.5100(3)
H25 H 0.4341 0.7460 0.5671
C38 C 0.0676(2) 0.8130(8) 0.0049(4)
H26 H 0.0634 0.8577 -0.0427
C39 C 0.5856(3) 0.9393(8) 0.4446(6)
H27 H 0.6222 0.9501 0.4206
H28 H 0.5573 0.9516 0.4033
H29 H 0.5805 0.9944 0.4886
C40 C -0.0969(4) 0.8048(11) 0.0946(6)
H30 H -0.1320 0.7766 0.1163
H31 H -0.0693 0.8067 0.1378
H32 H -0.1020 0.8823 0.0729
Co1_2 Co 0.30466(2) -0.21868(4) 0.15163(4)
Co1C Co -0.19534(2) 0.71868(4) -0.15163(4)
Co2_2 Co 0.20111(2) -0.29782(4) 0.34700(4)
Co2C Co 0.70111(2) 0.79782(4) 0.65300(4)
N2_2 N 0.19908(14) 0.8909(3) 0.3459(2)
O3C O 0.17446(12) 0.7047(4) 0.4770(2)
O4C O 0.11073(13) 0.7000(4) 0.3802(2)
O5C O 0.32863(13) 0.7879(4) 0.0216(2)
O7C O 0.39460(13) 0.7769(3) 0.1160(2)
N4_2 N 0.30515(15) 0.9698(3) 0.1551(2)
loop_
_geom_bond_atom_site_label_1
_geom_bond_atom_site_label_2
_geom_bond_site_symmetry_1
_geom_bond_site_symmetry_2
Co1 N1 1_555 1_555
Co2 O2 1_555 1_555
N1 C14 1_555 1_555
N2 C7 1_555 1_555
O1 Co1 1_555 1_555
O2 C4 1_555 1_555
O3 C5 1_555 1_555
O4 C5 1_555 1_555
O5 C3 1_555 1_555
N3 Co2 1_555 1_555
O6 Co2 1_555 1_555
O7 C3 1_555 1_555
C1 C9 1_555 1_555
N4 C13 1_555 1_555
C2 C22 1_555 1_555
O8 Co1 1_555 1_555
C3 C12 1_555 1_555
C4 O8 1_555 1_555
C5 C35 1_555 1_555
C6 O1 1_555 1_555
C7 H1 1_555 1_555
C8 H2 1_555 1_555
C9 H3 1_555 1_555
C10 C1 1_555 1_555
H4 C10 1_555 1_555
C11 H5 1_555 1_555
C12 H6 1_555 1_555
C13 H7 1_555 1_555
C14 H8 1_555 1_555
C15 C6 1_555 1_555
C16 N2 1_555 1_555
H9 C16 1_555 1_555
C17 H10 1_555 1_555
C18 N1 1_555 1_555
H11 C18 1_555 1_555
O9 C12 1_555 1_555
C19 C4 1_555 1_555
C20 C19 1_555 1_555
H12 C20 1_555 1_555
C21 N3 1_555 1_555
H13 C21 1_555 1_555
C22 C14 1_555 1_555
H14 C22 1_555 1_555
C23 N3 1_555 1_555
H15 C23 1_555 1_555
C24 C13 1_555 1_555
H16 C24 1_555 1_555
C25 C2 1_555 1_555
C26 N4 1_555 1_555
H17 C26 1_555 1_555
C27 C1 1_555 1_555
C28 C2 1_555 1_555
H18 C28 1_555 1_555
C29 O9 1_555 1_555
C30 C20 1_555 1_555
H19 C30 1_555 1_555
C31 C30 1_555 1_555
C32 C15 1_555 1_555
H20 C32 1_555 1_555
C33 C19 1_555 1_555
H21 C33 1_555 1_555
C34 C15 1_555 1_555
H22 C34 1_555 1_555
C35 H23 1_555 1_555
C36 C29 1_555 1_555
H24 C36 1_555 1_555
O10 C31 1_555 1_555
C37 C31 1_555 1_555
H25 C37 1_555 1_555
C38 C29 1_555 1_555
H26 C38 1_555 1_555
C39 C35 1_555 1_555
H27 C39 1_555 1_555
H28 C39 1_555 1_555
H29 C39 1_555 1_555
C40 C12 1_555 1_555
H30 C40 1_555 1_555
H31 C40 1_555 1_555
H32 C40 1_555 1_555
Co1_2 N4 1_555 1_555
Co1C O5 1_555 1_555
Co2_2 N2 1_555 1_555
Co2C O3 1_555 1_555
N2_2 Co2 1_555 1_555
O3C Co2 1_555 1_555
O4C Co2 1_555 1_555
O5C Co1 1_555 1_555
O7C Co1 1_555 1_555
N4_2 Co1 1_555 1_555
O4 Co2C 1_555 1_555
O6 C6 1_555 1_555
O7 Co1C 1_555 1_555
C7 C10 1_555 1_555
C8 C21 1_555 1_555
C8 C27 1_555 1_555
C9 C16 1_555 1_555
C11 C25 1_555 1_555
C11 C26 1_555 1_555
C17 C23 1_555 1_555
C17 C27 1_555 1_555
C18 C28 1_555 1_555
C24 C25 1_555 1_555
C32 C38 1_555 1_555
C33 C37 1_555 1_555
C34 C36 1_555 1_555
C35 O10 1_555 1_555

#END
