
#######################################################################
#
#                 Cambridge Crystallographic Data Centre
#                                CCDC 
#
#######################################################################
#
# If this CIF has been generated from an entry in the Cambridge 
# Structural Database, then it will include bibliographic, chemical, 
# crystal, experimental, refinement or atomic coordinate data resulting 
# from the CCDC's data processing and validation procedures.
#
#######################################################################

data_OKAYIK
_chemical_formula_moiety         '(C16 H14 Ca1 O6 S1)n'
_symmetry_cell_setting           monoclinic
_symmetry_space_group_name_H-M   'P 21/n'
_symmetry_Int_Tables_number      14
_space_group_name_Hall           '-P 2yn'
loop_
_symmetry_equiv_pos_site_id
_symmetry_equiv_pos_as_xyz
1 x,y,z
2 1/2-x,1/2+y,1/2-z
3 -x,-y,-z
4 1/2+x,1/2-y,1/2+z
_cell_length_a                   11.6667(11)
_cell_length_b                   5.5586(5)
_cell_length_c                   22.935(2)
_cell_angle_alpha                90
_cell_angle_beta                 101.011(3)
_cell_angle_gamma                90
_cell_volume                     1459.97
loop_
_atom_site_label
_atom_site_type_symbol
_atom_site_fract_x
_atom_site_fract_y
_atom_site_fract_z
S1 S 0.39611(14) 0.0346(3) 0.10598(7)
O1 O -0.0131(4) 0.4756(8) 0.2471(2)
O2 O 0.2595(4) 0.0834(8) -0.1903(2)
O3 O -0.0412(4) 0.0802(9) 0.2556(2)
O4 O 0.2641(4) 0.4768(8) -0.17273(19)
O5 O 0.4127(4) -0.2245(8) 0.1100(2)
O6 O 0.4936(4) 0.1964(8) 0.12913(19)
C1 C 0.1886(6) -0.0578(12) 0.1392(3)
H1 H 0.1877 -0.2030 0.1173
C2 C 0.2792(6) 0.1094(11) 0.1409(3)
C3 C 0.2906(6) -0.0594(12) -0.0087(3)
H2 H 0.2676 -0.2072 0.0064
C4 C 0.3520(6) 0.1097(11) 0.0290(3)
C5 C 0.2781(6) 0.3294(12) 0.1705(3)
H3 H 0.3385 0.4439 0.1703
C6 C 0.3806(6) 0.3352(12) 0.0106(3)
H4 H 0.4179 0.4521 0.0380
C7 C 0.2635(6) -0.0102(12) -0.0685(3)
H5 H 0.2228 -0.1254 -0.0954
C8 C 0.1003(6) -0.0071(12) 0.1701(3)
H6 H 0.0401 -0.1217 0.1707
C9 C 0.1882(6) 0.3771(11) 0.1998(3)
H7 H 0.1872 0.5263 0.2200
C10 C 0.3521(6) 0.3827(11) -0.0504(3)
H8 H 0.3713 0.5348 -0.0649
C11 C 0.2738(5) 0.2606(9) -0.1550(3)
C12 C 0.0061(5) 0.2562(9) 0.2372(3)
C13 C 0.0987(5) 0.2128(11) 0.2008(3)
C14 C 0.2966(6) 0.2131(11) -0.0900(3)
Ca1 Ca 0.63659(11) 0.24372(18) 0.22129(5)
O1A O 0.5131(4) -0.0244(8) 0.2529(2)
O2B O 0.7405(4) -0.0834(8) 0.1903(2)
O2C O 0.7595(4) 0.4166(8) 0.3097(2)
O3A O 0.5412(4) 0.5802(9) 0.2444(2)
O4B O 0.7359(4) 0.5232(8) 0.17273(19)
Ca1A Ca -0.13659(11) -0.25628(18) 0.27871(5)
Ca1A_2 Ca -0.13659(11) 0.74372(18) 0.27871(5)
Ca1B Ca 0.36341(11) -0.24372(18) -0.22129(5)
Ca1B_2 Ca 0.36341(11) 0.75628(18) -0.22129(5)
Ca1C Ca 0.13659(11) 0.25628(18) -0.27871(5)
C15 C 0.0272(5) 0.392(2) 0.0153(10)
H9 H 0.1122 0.4021 0.0191
H10 H -0.0018 0.2488 -0.0078
H11 H 0.0075 0.3818 0.0549
C15B C -0.0272(5) 0.608(2) -0.0153(10)
H9B H -0.1122 0.5979 -0.0191
H10B H 0.0018 0.7512 0.0078
H11B H -0.0075 0.6182 -0.0549
loop_
_geom_bond_atom_site_label_1
_geom_bond_atom_site_label_2
_geom_bond_site_symmetry_1
_geom_bond_site_symmetry_2
S1 O5 1_555 1_555
O1 C12 1_555 1_555
O2 C11 1_555 1_555
O3 C12 1_555 1_555
O4 C11 1_555 1_555
O6 S1 1_555 1_555
C1 H1 1_555 1_555
C2 S1 1_555 1_555
C3 H2 1_555 1_555
C4 S1 1_555 1_555
C5 C2 1_555 1_555
H3 C5 1_555 1_555
C6 C4 1_555 1_555
H4 C6 1_555 1_555
C7 C3 1_555 1_555
H5 C7 1_555 1_555
C8 C1 1_555 1_555
H6 C8 1_555 1_555
C9 C5 1_555 1_555
H7 C9 1_555 1_555
C10 C6 1_555 1_555
H8 C10 1_555 1_555
C11 C14 1_555 1_555
C12 C13 1_555 1_555
C13 C8 1_555 1_555
C14 C7 1_555 1_555
Ca1 O6 1_555 1_555
C15 H9 1_555 1_555
H10 C15 1_555 1_555
H11 C15 1_555 1_555
O1A Ca1 1_555 1_555
O2B Ca1 1_555 1_555
O2C Ca1 1_555 1_555
O3A Ca1 1_555 1_555
O4B Ca1 1_555 1_555
Ca1A O3 1_555 1_555
Ca1A_2 O1 1_555 1_555
Ca1B O2 1_555 1_555
Ca1B_2 O4 1_555 1_555
Ca1C O2 1_555 1_555
C15B C15 1_555 1_555
H9B C15B 1_555 1_555
H10B C15B 1_555 1_555
H11B C15B 1_555 1_555
C1 C2 1_555 1_555
C3 C4 1_555 1_555
C9 C13 1_555 1_555
C10 C14 1_555 1_555

#END
