
#######################################################################
#
#                 Cambridge Crystallographic Data Centre
#                                CCDC 
#
#######################################################################
#
# If this CIF has been generated from an entry in the Cambridge 
# Structural Database, then it will include bibliographic, chemical, 
# crystal, experimental, refinement or atomic coordinate data resulting 
# from the CCDC's data processing and validation procedures.
#
#######################################################################

data_OKAYEG
_chemical_formula_moiety         '(C16 H12 Ca1 O6 S1)n'
_symmetry_cell_setting           monoclinic
_symmetry_space_group_name_H-M   'P 21/n'
_symmetry_Int_Tables_number      14
_space_group_name_Hall           '-P 2yn'
loop_
_symmetry_equiv_pos_site_id
_symmetry_equiv_pos_as_xyz
1 x,y,z
2 1/2-x,1/2+y,1/2-z
3 -x,-y,-z
4 1/2+x,1/2-y,1/2+z
_cell_length_a                   11.5955(3)
_cell_length_b                   5.55810(10)
_cell_length_c                   22.9548(5)
_cell_angle_alpha                90
_cell_angle_beta                 101.062(3)
_cell_angle_gamma                90
_cell_volume                     1451.93
loop_
_atom_site_label
_atom_site_type_symbol
_atom_site_fract_x
_atom_site_fract_y
_atom_site_fract_z
O1 O 0.73729(10) 0.4786(2) 0.67232(5)
C1 C 0.72776(13) 0.2633(3) 0.65555(6)
Ca1 Ca 0.36319(3) 0.24220(5) 0.279171(13)
S1 S 0.60426(3) 0.03343(6) 0.394666(15)
O2 O 1.01164(10) 0.4744(2) 0.25206(5)
O3 O 0.74104(10) 0.0866(2) 0.69107(5)
O4 O 0.50603(9) 0.1911(2) 0.37164(5)
O5 O 1.04045(10) 0.0793(2) 0.24321(5)
O6 O 0.58752(10) -0.22328(19) 0.39113(5)
C2 C 0.70469(13) 0.2102(3) 0.59021(6)
C3 C 0.73740(14) -0.0105(3) 0.56944(7)
H1 H 0.7768 -0.1234 0.5959
C4 C 0.72159(13) 0.1073(3) 0.35948(6)
C5 C 0.65030(13) 0.1088(3) 0.47036(6)
C6 C 0.90071(13) 0.2069(3) 0.29904(6)
C7 C 0.90060(13) -0.0104(3) 0.32949(7)
H2 H 0.9601 -0.1221 0.3290
C8 C 0.81169(14) -0.0599(3) 0.36058(7)
H3 H 0.8122 -0.2025 0.3818
C9 C 0.62029(14) 0.3323(3) 0.49026(7)
H4 H 0.5821 0.4461 0.4637
C10 C 0.81221(13) 0.3750(3) 0.30039(7)
H5 H 0.8142 0.5219 0.2812
C11 C 0.71094(14) -0.0612(3) 0.50899(7)
H6 H 0.7335 -0.2068 0.4946
C12 C 0.99290(13) 0.2577(3) 0.26199(7)
C13 C 0.72097(13) 0.3264(3) 0.32993(7)
H7 H 0.6609 0.4372 0.3300
C14 C 0.64849(13) 0.3821(3) 0.55056(6)
H8 H 0.6297 0.5313 0.5646
O1B O 0.26271(10) 0.5214(2) 0.32768(5)
Ca1A Ca 1.13681(3) -0.25780(5) 0.220829(13)
Ca1A_2 Ca 1.13681(3) 0.74220(5) 0.220829(13)
Ca1B Ca 0.63681(3) -0.24220(5) 0.720829(13)
Ca1B_2 Ca 0.63681(3) 0.75780(5) 0.720829(13)
Ca1C Ca 0.86319(3) 0.25780(5) 0.779171(13)
O2A O 0.48836(10) -0.0256(2) 0.24794(5)
O3B O 0.25896(10) -0.0866(2) 0.30893(5)
O3C O 0.24104(10) 0.4134(2) 0.19107(5)
O5A O 0.45955(10) 0.5793(2) 0.25679(5)
C16 C 0.99025(13) 0.5082(3) 0.52644(6)
H11 H 1.0183 0.6565 0.5545
H12 H 0.9469 0.3744 0.5468
C16B C 1.00975(13) 0.4918(3) 0.47356(6)
H11B H 0.9817 0.3435 0.4455
H12B H 1.0531 0.6256 0.4532
loop_
_geom_bond_atom_site_label_1
_geom_bond_atom_site_label_2
_geom_bond_site_symmetry_1
_geom_bond_site_symmetry_2
O1 C1 1_555 1_555
C1 O3 1_555 1_555
Ca1 O4 1_555 1_555
S1 O4 1_555 1_555
O2 C12 1_555 1_555
O3 Ca1B 1_555 1_555
O5 C12 1_555 1_555
O6 S1 1_555 1_555
C2 C1 1_555 1_555
C3 C2 1_555 1_555
H1 C3 1_555 1_555
C4 S1 1_555 1_555
C5 S1 1_555 1_555
C6 C7 1_555 1_555
C7 H2 1_555 1_555
C8 C4 1_555 1_555
H3 C8 1_555 1_555
C9 C5 1_555 1_555
H4 C9 1_555 1_555
C10 C6 1_555 1_555
H5 C10 1_555 1_555
C11 C3 1_555 1_555
H6 C11 1_555 1_555
C12 C6 1_555 1_555
C13 C4 1_555 1_555
H7 C13 1_555 1_555
C14 C2 1_555 1_555
H8 C14 1_555 1_555
C16 H11 1_555 1_555
H12 C16 1_555 1_555
O1B Ca1 1_555 1_555
Ca1A O5 1_555 1_555
Ca1A_2 O2 1_555 1_555
Ca1B_2 O1 1_555 1_555
Ca1C O3 1_555 1_555
O2A Ca1 1_555 1_555
O3B Ca1 1_555 1_555
O3C Ca1 1_555 1_555
O5A Ca1 1_555 1_555
C16B C16 1_555 1_555
H11B C16B 1_555 1_555
H12B C16B 1_555 1_555
C5 C11 1_555 1_555
C7 C8 1_555 1_555
C9 C14 1_555 1_555
C10 C13 1_555 1_555

#END
