
#######################################################################
#
#                 Cambridge Crystallographic Data Centre
#                                CCDC 
#
#######################################################################
#
# If this CIF has been generated from an entry in the Cambridge 
# Structural Database, then it will include bibliographic, chemical, 
# crystal, experimental, refinement or atomic coordinate data resulting 
# from the CCDC's data processing and validation procedures.
#
#######################################################################

data_WAHRIJ
_chemical_formula_moiety         '(C75 H70 Cl4 Fe4 N12 O14 2+)n'
_symmetry_cell_setting           monoclinic
_symmetry_space_group_name_H-M   'P 21/m'
_symmetry_Int_Tables_number      11
_space_group_name_Hall           '-P 2yb'
loop_
_symmetry_equiv_pos_site_id
_symmetry_equiv_pos_as_xyz
1 x,y,z
2 -x,1/2+y,-z
3 -x,-y,-z
4 x,1/2-y,z
_cell_length_a                   12.398(3)
_cell_length_b                   33.496(7)
_cell_length_c                   12.868(3)
_cell_angle_alpha                90
_cell_angle_beta                 96.64(3)
_cell_angle_gamma                90
_cell_volume                     5308.02
loop_
_atom_site_label
_atom_site_type_symbol
_atom_site_fract_x
_atom_site_fract_y
_atom_site_fract_z
Cl2 Cl 1.0963(6) -0.2500 0.4944(2)
Cl3 Cl 0.7330(12) -0.2500 0.6553(12)
Cl4 Cl 0.8323(17) 0.2500 0.8333(17)
Fe1 Fe 0.69786(6) 0.06952(2) 0.60443(5)
Fe2 Fe 0.5000 0.0000 0.5000
Fe3 Fe 1.21931(12) -0.2500 0.69427(15)
Cl1 Cl 1.3502(3) -0.2500 0.8504(6)
O1 O 1.3474(11) -0.2043(3) 0.6403(16)
C1 C 0.7915(5) 0.15021(16) 0.7326(4)
H1 H 0.7317 0.1567 0.6773
H2 H 0.8164 0.1754 0.7679
C2 C 1.0698(10) -0.2500 0.8792(10)
H3 H 1.0225 -0.2500 0.9361
H4 H 1.1463 -0.2500 0.9113
N1 N 0.6965(4) 0.08985(14) 0.7717(3)
N2 N 0.7515(4) 0.12308(13) 0.8087(3)
C3 C 0.7580(5) 0.1256(2) 0.9125(4)
C4 C 0.7039(6) 0.0934(2) 0.9468(4)
C5 C 0.6673(5) 0.07123(18) 0.8563(4)
C6 C 0.6067(7) 0.0328(2) 0.8467(5)
H5 H 0.5561 0.0330 0.7823
H6 H 0.5660 0.0295 0.9070
H7 H 0.6581 0.0107 0.8444
C7 C 0.8162(9) 0.1603(3) 0.9720(6)
H8 H 0.7933 0.1855 0.9377
H9 H 0.8949 0.1571 0.9725
H10 H 0.7980 0.1605 1.0441
C8 C 0.6908(6) 0.0832(2) 1.0565(4)
C9 C 0.6785(13) 0.1111(4) 1.1281(7)
H11 H 0.6792 0.1384 1.1076
C10 C 0.6646(16) 0.1023(4) 1.2317(8)
H12 H 0.6552 0.1231 1.2801
C11 C 0.6646(5) 0.06257(19) 1.2630(4)
C12 C 0.6865(9) 0.0334(3) 1.1979(7)
H13 H 0.6907 0.0065 1.2217
C13 C 0.7033(9) 0.0423(3) 1.0940(7)
H14 H 0.7228 0.0218 1.0488
C14 C 0.6513(5) 0.05323(19) 1.3735(5)
O2 O 0.6950(4) 0.07557(18) 1.4431(3)
O3 O 0.6024(5) 0.02273(16) 1.3932(4)
N3 N 0.8581(4) 0.10005(14) 0.6237(3)
N4 N 0.8808(3) 0.13215(14) 0.6853(3)
C15 C 0.9869(5) 0.14015(19) 0.6991(5)
C16 C 1.0371(5) 0.1120(2) 0.6430(5)
C17 C 0.9518(5) 0.08719(19) 0.5977(5)
C18 C 1.0350(6) 0.1749(2) 0.7622(7)
H15 H 1.1112 0.1782 0.7502
H16 H 1.0309 0.1699 0.8366
H17 H 0.9945 0.1992 0.7408
C19 C 0.9601(6) 0.0521(2) 0.5284(6)
H18 H 0.9689 0.0278 0.5708
H19 H 1.0230 0.0554 0.4895
H20 H 0.8939 0.0501 0.4791
C20 C 1.1523(5) 0.1080(2) 0.6314(6)
C21 C 1.2122(5) 0.1396(2) 0.6017(6)
H21 H 1.1791 0.1650 0.5884
C22 C 1.3232(5) 0.1343(2) 0.5910(7)
H22 H 1.3648 0.1564 0.5722
C23 C 1.3718(5) 0.0981(2) 0.6069(5)
C24 C 1.3105(5) 0.0656(2) 0.6361(6)
H23 H 1.3430 0.0400 0.6464
C25 C 1.2028(5) 0.0711(2) 0.6498(6)
H24 H 1.1622 0.0493 0.6722
C26 C 1.4885(5) 0.09141(19) 0.5951(5)
O4 O 1.5254(3) 0.05596(12) 0.5947(3)
O5 O 1.5508(3) 0.12109(14) 0.5892(4)
N5 N 1.1132(6) -0.20609(19) 0.7358(7)
N6 N 1.0490(6) -0.21490(15) 0.8160(6)
C27 C 0.9745(7) -0.1863(2) 0.8226(6)
C28 C 0.9878(7) -0.1583(2) 0.7492(6)
C29 C 1.0747(7) -0.1720(2) 0.6935(8)
C30 C 1.1120(10) -0.1518(3) 0.6049(9)
H25 H 1.1780 -0.1367 0.6282
H26 H 1.0555 -0.1336 0.5740
H27 H 1.1278 -0.1716 0.5526
C31 C 0.8917(8) -0.1874(2) 0.9006(8)
H28 H 0.8534 -0.1618 0.8995
H29 H 0.9289 -0.1923 0.9709
H30 H 0.8394 -0.2089 0.8817
C32 C 0.9208(7) -0.1227(2) 0.7242(6)
C33 C 0.8090(9) -0.1266(3) 0.6881(9)
H31 H 0.7757 -0.1522 0.6828
C34 C 0.7475(8) -0.0919(2) 0.6601(8)
H32 H 0.6731 -0.0943 0.6335
C35 C 0.7929(6) -0.05533(19) 0.6707(5)
C36 C 0.8962(7) -0.0512(2) 0.7136(6)
H33 H 0.9257 -0.0252 0.7254
C37 C 0.9608(8) -0.0844(2) 0.7413(7)
H34 H 1.0335 -0.0807 0.7723
C38 C 0.7249(5) -0.01978(18) 0.6335(4)
O6 O 0.6291(4) -0.02599(15) 0.5957(4)
O7 O 0.7650(4) 0.01371(13) 0.6463(3)
N5C N 1.1132(6) -0.29391(19) 0.7358(7)
N6C N 1.0490(6) -0.28510(15) 0.8160(6)
C27C C 0.9745(7) -0.3137(2) 0.8226(6)
C28C C 0.9878(7) -0.3417(2) 0.7492(6)
C29C C 1.0747(7) -0.3280(2) 0.6935(8)
C30C C 1.1120(10) -0.3482(3) 0.6049(9)
H25C H 1.1780 -0.3633 0.6282
H26C H 1.0555 -0.3664 0.5740
H27C H 1.1278 -0.3284 0.5526
C31C C 0.8917(8) -0.3126(2) 0.9006(8)
H28C H 0.8534 -0.3382 0.8995
H29C H 0.9289 -0.3077 0.9709
H30C H 0.8394 -0.2911 0.8817
C32C C 0.9208(7) -0.3773(2) 0.7242(6)
C33C C 0.8090(9) -0.3734(3) 0.6881(9)
H31C H 0.7757 -0.3478 0.6828
C34C C 0.7475(8) -0.4081(2) 0.6601(8)
H32C H 0.6731 -0.4057 0.6335
C35C C 0.7929(6) -0.44467(19) 0.6707(5)
C36C C 0.8962(7) -0.4488(2) 0.7136(6)
H33C H 0.9257 -0.4748 0.7254
C37C C 0.9608(8) -0.4156(2) 0.7413(7)
H34C H 1.0335 -0.4193 0.7723
C38C C 0.7249(5) -0.48022(18) 0.6335(4)
O6C O 0.6291(4) -0.47401(15) 0.5957(4)
O7C O 0.7650(4) -0.51371(13) 0.6463(3)
Fe1_2 Fe 0.69786(6) 0.06952(2) -0.39557(5)
C1_2 C 0.7915(5) 0.15021(16) -0.2674(4)
H1_2 H 0.7317 0.1567 -0.3227
H2_2 H 0.8164 0.1754 -0.2321
N1_2 N 0.6965(4) 0.08985(14) -0.2283(3)
N2_2 N 0.7515(4) 0.12308(13) -0.1913(3)
C3_2 C 0.7580(5) 0.1256(2) -0.0875(4)
C4_2 C 0.7039(6) 0.0934(2) -0.0532(4)
C5_2 C 0.6673(5) 0.07123(18) -0.1437(4)
C6_2 C 0.6067(7) 0.0328(2) -0.1533(5)
H5_2 H 0.5561 0.0330 -0.2177
H6_2 H 0.5660 0.0295 -0.0930
H7_2 H 0.6581 0.0107 -0.1556
C7_2 C 0.8162(9) 0.1603(3) -0.0280(6)
H8_2 H 0.7933 0.1855 -0.0623
H9_2 H 0.8949 0.1571 -0.0275
H10_2 H 0.7980 0.1605 0.0441
C8_2 C 0.6908(6) 0.0832(2) 0.0565(4)
C9_2 C 0.6785(13) 0.1111(4) 0.1281(7)
H11_2 H 0.6792 0.1384 0.1076
C10_2 C 0.6646(16) 0.1023(4) 0.2317(8)
H12_2 H 0.6552 0.1231 0.2801
C11_2 C 0.6646(5) 0.06257(19) 0.2630(4)
C12_2 C 0.6865(9) 0.0334(3) 0.1979(7)
H13_2 H 0.6907 0.0065 0.2217
C13_2 C 0.7033(9) 0.0423(3) 0.0940(7)
H14_2 H 0.7228 0.0218 0.0488
C14_2 C 0.6513(5) 0.05323(19) 0.3735(5)
O2_2 O 0.6950(4) 0.07557(18) 0.4431(3)
O3_2 O 0.6024(5) 0.02273(16) 0.3932(4)
N3_2 N 0.8581(4) 0.10005(14) -0.3763(3)
N4_2 N 0.8808(3) 0.13215(14) -0.3147(3)
C15_2 C 0.9869(5) 0.14015(19) -0.3009(5)
C16_2 C 1.0371(5) 0.1120(2) -0.3570(5)
C17_2 C 0.9518(5) 0.08719(19) -0.4023(5)
C18_2 C 1.0350(6) 0.1749(2) -0.2378(7)
H15_2 H 1.1112 0.1782 -0.2498
H16_2 H 1.0309 0.1699 -0.1634
H17_2 H 0.9945 0.1992 -0.2592
C19_2 C 0.9601(6) 0.0521(2) -0.4716(6)
H18_2 H 0.9689 0.0278 -0.4292
H19_2 H 1.0230 0.0554 -0.5105
H20_2 H 0.8939 0.0501 -0.5209
C20_2 C 1.1523(5) 0.1080(2) -0.3686(6)
C21_2 C 1.2122(5) 0.1396(2) -0.3983(6)
H21_2 H 1.1791 0.1650 -0.4116
C22_2 C 1.3232(5) 0.1343(2) -0.4090(7)
H22_2 H 1.3648 0.1564 -0.4278
C23_2 C 1.3718(5) 0.0981(2) -0.3931(5)
C24_2 C 1.3105(5) 0.0656(2) -0.3639(6)
H23_2 H 1.3430 0.0400 -0.3536
C25_2 C 1.2028(5) 0.0711(2) -0.3502(6)
H24_2 H 1.1622 0.0493 -0.3278
C26_2 C 1.4885(5) 0.09141(19) -0.4049(5)
O4_2 O 1.5254(3) 0.05596(12) -0.4053(3)
O5_2 O 1.5508(3) 0.12109(14) -0.4108(4)
O1C O 1.3474(11) -0.2957(3) 0.6403(16)
Fe1_3 Fe 0.69786(6) 0.06952(2) 1.60443(5)
Fe1_4 Fe 1.69786(6) 0.06952(2) -0.39557(5)
Fe1_5 Fe 1.69786(6) 0.06952(2) 0.60443(5)
Fe1C Fe 0.69786(6) -0.56952(2) 0.60443(5)
Fe2_2 Fe 0.5000 0.0000 1.5000
Fe2_3 Fe 1.5000 0.0000 -0.5000
Fe2_4 Fe 1.5000 0.0000 0.5000
Fe2A Fe 0.5000 -0.5000 0.5000
O2_3 O 0.6950(4) 0.07557(18) -0.5569(3)
O3B O 0.3976(5) -0.02273(16) 0.6068(4)
O4_3 O 0.5254(3) 0.05596(12) -0.4053(3)
O4_4 O 0.5254(3) 0.05596(12) 0.5947(3)
O4B O 0.4746(3) -0.05596(12) 0.4053(3)
O6B O 0.3709(4) 0.02599(15) 0.4043(4)
O7_2 O 0.7650(4) 0.01371(13) -0.3537(3)
loop_
_geom_bond_atom_site_label_1
_geom_bond_atom_site_label_2
_geom_bond_site_symmetry_1
_geom_bond_site_symmetry_2
Fe1 N1 1_555 1_555
Fe2 O6 1_555 1_555
Fe3 Cl1 1_555 1_555
O1 Fe3 1_555 1_555
C1 H1 1_555 1_555
H2 C1 1_555 1_555
C2 H3 1_555 1_555
H4 C2 1_555 1_555
N1 N2 1_555 1_555
N2 C1 1_555 1_555
C3 N2 1_555 1_555
C4 C3 1_555 1_555
C5 N1 1_555 1_555
C6 C5 1_555 1_555
H5 C6 1_555 1_555
H6 C6 1_555 1_555
H7 C6 1_555 1_555
C7 C3 1_555 1_555
H8 C7 1_555 1_555
H9 C7 1_555 1_555
H10 C7 1_555 1_555
C8 C4 1_555 1_555
C9 C8 1_555 1_555
H11 C9 1_555 1_555
C10 C9 1_555 1_555
H12 C10 1_555 1_555
C11 C10 1_555 1_555
C12 C11 1_555 1_555
H13 C12 1_555 1_555
C13 C8 1_555 1_555
H14 C13 1_555 1_555
C14 C11 1_555 1_555
O2 C14 1_555 1_555
O3 C14 1_555 1_555
N3 Fe1 1_555 1_555
N4 C1 1_555 1_555
C15 N4 1_555 1_555
C16 C15 1_555 1_555
C17 N3 1_555 1_555
C18 C15 1_555 1_555
H15 C18 1_555 1_555
H16 C18 1_555 1_555
H17 C18 1_555 1_555
C19 C17 1_555 1_555
H18 C19 1_555 1_555
H19 C19 1_555 1_555
H20 C19 1_555 1_555
C20 C16 1_555 1_555
C21 C20 1_555 1_555
H21 C21 1_555 1_555
C22 C21 1_555 1_555
H22 C22 1_555 1_555
C23 C22 1_555 1_555
C24 C23 1_555 1_555
H23 C24 1_555 1_555
C25 C20 1_555 1_555
H24 C25 1_555 1_555
C26 C23 1_555 1_555
O4 C26 1_555 1_555
O5 C26 1_555 1_555
N5 Fe3 1_555 1_555
N6 C2 1_555 1_555
C27 N6 1_555 1_555
C28 C27 1_555 1_555
C29 N5 1_555 1_555
C30 C29 1_555 1_555
H25 C30 1_555 1_555
H26 C30 1_555 1_555
H27 C30 1_555 1_555
C31 C27 1_555 1_555
H28 C31 1_555 1_555
H29 C31 1_555 1_555
H30 C31 1_555 1_555
C32 C28 1_555 1_555
C33 C32 1_555 1_555
H31 C33 1_555 1_555
C34 C33 1_555 1_555
H32 C34 1_555 1_555
C35 C34 1_555 1_555
C36 C35 1_555 1_555
H33 C36 1_555 1_555
C37 C32 1_555 1_555
H34 C37 1_555 1_555
C38 C35 1_555 1_555
O6 C38 1_555 1_555
O7 Fe1 1_555 1_555
N5C Fe3 1_555 1_555
N6C C2 1_555 1_555
C27C N6C 1_555 1_555
C28C C27C 1_555 1_555
C29C N5C 1_555 1_555
C30C C29C 1_555 1_555
H25C C30C 1_555 1_555
H26C C30C 1_555 1_555
H27C C30C 1_555 1_555
C31C C27C 1_555 1_555
H28C C31C 1_555 1_555
H29C C31C 1_555 1_555
H30C C31C 1_555 1_555
C32C C28C 1_555 1_555
C33C C32C 1_555 1_555
H31C C33C 1_555 1_555
C34C C33C 1_555 1_555
H32C C34C 1_555 1_555
C35C C34C 1_555 1_555
C36C C35C 1_555 1_555
H33C C36C 1_555 1_555
C37C C32C 1_555 1_555
H34C C37C 1_555 1_555
C38C C35C 1_555 1_555
O6C C38C 1_555 1_555
O7C C38C 1_555 1_555
Fe1_2 N1_2 1_555 1_555
C1_2 H1_2 1_555 1_555
H2_2 C1_2 1_555 1_555
N1_2 N2_2 1_555 1_555
N2_2 C1_2 1_555 1_555
C3_2 N2_2 1_555 1_555
C4_2 C3_2 1_555 1_555
C5_2 N1_2 1_555 1_555
C6_2 C5_2 1_555 1_555
H5_2 C6_2 1_555 1_555
H6_2 C6_2 1_555 1_555
H7_2 C6_2 1_555 1_555
C7_2 C3_2 1_555 1_555
H8_2 C7_2 1_555 1_555
H9_2 C7_2 1_555 1_555
H10_2 C7_2 1_555 1_555
C8_2 C4_2 1_555 1_555
C9_2 C8_2 1_555 1_555
H11_2 C9_2 1_555 1_555
C10_2 C9_2 1_555 1_555
H12_2 C10_2 1_555 1_555
C11_2 C10_2 1_555 1_555
C12_2 C11_2 1_555 1_555
H13_2 C12_2 1_555 1_555
C13_2 C8_2 1_555 1_555
H14_2 C13_2 1_555 1_555
C14_2 C11_2 1_555 1_555
O2_2 Fe1 1_555 1_555
O3_2 Fe2 1_555 1_555
N3_2 Fe1_2 1_555 1_555
N4_2 C1_2 1_555 1_555
C15_2 N4_2 1_555 1_555
C16_2 C15_2 1_555 1_555
C17_2 N3_2 1_555 1_555
C18_2 C15_2 1_555 1_555
H15_2 C18_2 1_555 1_555
H16_2 C18_2 1_555 1_555
H17_2 C18_2 1_555 1_555
C19_2 C17_2 1_555 1_555
H18_2 C19_2 1_555 1_555
H19_2 C19_2 1_555 1_555
H20_2 C19_2 1_555 1_555
C20_2 C16_2 1_555 1_555
C21_2 C20_2 1_555 1_555
H21_2 C21_2 1_555 1_555
C22_2 C21_2 1_555 1_555
H22_2 C22_2 1_555 1_555
C23_2 C22_2 1_555 1_555
C24_2 C23_2 1_555 1_555
H23_2 C24_2 1_555 1_555
C25_2 C20_2 1_555 1_555
H24_2 C25_2 1_555 1_555
C26_2 C23_2 1_555 1_555
O4_2 C26_2 1_555 1_555
O5_2 C26_2 1_555 1_555
O1C Fe3 1_555 1_555
Fe1_3 O2 1_555 1_555
Fe1_4 O4_2 1_555 1_555
Fe1_5 O4 1_555 1_555
Fe1C O7C 1_555 1_555
Fe2_2 O3 1_555 1_555
Fe2_3 O4_2 1_555 1_555
Fe2_4 O4 1_555 1_555
Fe2A O6C 1_555 1_555
O2_3 Fe1_2 1_555 1_555
O3B Fe2 1_555 1_555
O4_3 Fe1_2 1_555 1_555
O4_4 Fe1 1_555 1_555
O4B Fe2 1_555 1_555
O6B Fe2 1_555 1_555
O7_2 Fe1_2 1_555 1_555
Fe2 O4_4 1_555 1_555
C4 C5 1_555 1_555
C12 C13 1_555 1_555
N3 N4 1_555 1_555
C16 C17 1_555 1_555
C24 C25 1_555 1_555
N5 N6 1_555 1_555
C28 C29 1_555 1_555
C36 C37 1_555 1_555
C38 O7 1_555 1_555
N5C N6C 1_555 1_555
C28C C29C 1_555 1_555
C36C C37C 1_555 1_555
C4_2 C5_2 1_555 1_555
C12_2 C13_2 1_555 1_555
C14_2 O2_2 1_555 1_555
C14_2 O3_2 1_555 1_555
N3_2 N4_2 1_555 1_555
C16_2 C17_2 1_555 1_555
C24_2 C25_2 1_555 1_555

#END
