
#######################################################################
#
#                 Cambridge Crystallographic Data Centre
#                                CCDC 
#
#######################################################################
#
# If this CIF has been generated from an entry in the Cambridge 
# Structural Database, then it will include bibliographic, chemical, 
# crystal, experimental, refinement or atomic coordinate data resulting 
# from the CCDC's data processing and validation procedures.
#
#######################################################################

data_SEYFEI
_chemical_formula_moiety         '(C5 H13 Lu1 N1 O10 P1)n'
_symmetry_cell_setting           orthorhombic
_symmetry_space_group_name_H-M   'P 21 21 21'
_symmetry_Int_Tables_number      19
_space_group_name_Hall           'P 2ac 2ab'
loop_
_symmetry_equiv_pos_site_id
_symmetry_equiv_pos_as_xyz
1 x,y,z
2 1/2-x,-y,1/2+z
3 -x,1/2+y,1/2-z
4 1/2+x,1/2-y,-z
_cell_length_a                   8.94660(10)
_cell_length_b                   8.9062(2)
_cell_length_c                   15.5353(3)
_cell_angle_alpha                90
_cell_angle_beta                 90
_cell_angle_gamma                90
_cell_volume                     1237.86
loop_
_atom_site_label
_atom_site_type_symbol
_atom_site_fract_x
_atom_site_fract_y
_atom_site_fract_z
_atom_site_U_iso_or_equiv
_atom_site_thermal_displace_type
Lu1 Lu -0.03214(3) 0.61178(2) 0.604913(14) 0.0139 Uani
P1 P -0.12683(18) 0.93331(17) 0.70610(10) 0.0191 Uani
N1 N -0.2564(5) 0.6598(5) 0.7107(3) 0.0140 Uani
C1 C -0.2151(7) 0.7858(7) 0.7681(4) 0.0190 Uani
H1 H -0.1470 0.7505 0.8123 0.0230 Uiso
H2 H -0.3039 0.8247 0.7962 0.0230 Uiso
C2 C -0.3928(7) 0.6935(8) 0.6613(4) 0.0217 Uani
H3 H -0.4422 0.7792 0.6873 0.0260 Uiso
H4 H -0.4602 0.6085 0.6656 0.0260 Uiso
C3 C -0.3658(6) 0.7267(7) 0.5680(4) 0.0170 Uani
C4 C -0.2795(7) 0.5187(7) 0.7589(4) 0.0190 Uani
H5 H -0.3792 0.5175 0.7836 0.0230 Uiso
H6 H -0.2078 0.5121 0.8056 0.0230 Uiso
C5 C -0.2603(6) 0.3852(7) 0.6985(4) 0.0190 Uani
O1 O -0.2432(5) 0.6848(5) 0.5344(3) 0.0233 Uani
O2 O -0.4691(6) 0.7914(5) 0.5281(3) 0.0243 Uani
O3 O -0.3153(5) 0.2619(5) 0.7221(3) 0.0263 Uani
O4 O -0.1875(5) 0.4040(5) 0.6293(3) 0.0273 Uani
O5 O -0.2497(6) 1.0174(5) 0.6526(3) 0.0297 Uani
H7 H -0.2704 1.0971 0.6762 0.0440 Uiso
O6 O -0.0493(5) 1.0390(5) 0.7666(3) 0.0216 Uani
O7 O -0.0248(5) 0.8534(4) 0.6444(2) 0.0222 Uani
O8 O 0.0568(7) 0.4136(5) 0.5211(4) 0.0487 Uani
O9 O 0.2318(4) 0.6521(5) 0.6113(3) 0.0260 Uani
Lu1C Lu -0.53214(3) 0.88822(2) 0.395087(14) 0.0139 Uani
Lu1B Lu 0.03214(3) 1.11178(2) 0.895087(14) 0.0139 Uani
O2C O 0.0309(6) 0.7086(5) 0.4719(3) 0.0243 Uani
O6B O 0.0493(5) 0.5390(5) 0.7334(3) 0.0216 Uani
O10 O 0.0668(13) 0.1057(8) 0.5208(6) 0.1190 Uani
loop_
_atom_site_aniso_label
_atom_site_aniso_U_11
_atom_site_aniso_U_22
_atom_site_aniso_U_33
_atom_site_aniso_U_23
_atom_site_aniso_U_13
_atom_site_aniso_U_12
Lu1 0.01597(11) 0.01430(10) 0.01142(10) 0.00063(10) 0.00129(10) 0.00126(10)
P1 0.0237(8) 0.0174(8) 0.0162(7) -0.0023(6) -0.0011(6) -0.0006(6)
N1 0.017(2) 0.013(2) 0.012(2) 0.0010(18) -0.0006(19) 0.0022(18)
C1 0.020(3) 0.017(3) 0.020(3) 0.001(3) 0.004(3) 0.001(2)
C2 0.017(3) 0.031(4) 0.017(3) 0.004(3) 0.003(3) 0.004(3)
C3 0.012(3) 0.023(3) 0.016(3) -0.001(2) -0.004(2) 0.001(2)
C4 0.020(3) 0.022(3) 0.015(3) 0.000(2) 0.004(2) 0.000(2)
C5 0.023(3) 0.015(3) 0.019(3) -0.002(3) 0.003(2) 0.000(3)
O1 0.020(2) 0.037(3) 0.013(2) 0.002(2) 0.0033(18) 0.000(2)
O2 0.020(2) 0.038(3) 0.015(2) 0.0069(18) -0.004(2) 0.001(2)
O3 0.031(3) 0.017(2) 0.031(3) 0.004(2) 0.007(2) -0.0049(19)
O4 0.038(2) 0.021(2) 0.023(2) -0.0044(19) 0.0111(18) -0.009(2)
O5 0.040(3) 0.016(2) 0.033(3) -0.0041(19) -0.015(2) 0.004(2)
O6 0.023(2) 0.025(2) 0.0168(19) -0.0078(17) 0.0002(19) -0.001(2)
O7 0.031(2) 0.016(2) 0.0196(19) -0.0032(15) 0.0055(19) -0.0037(19)
O8 0.062(4) 0.027(3) 0.057(3) -0.017(2) 0.027(3) 0.000(3)
O9 0.017(2) 0.038(3) 0.023(2) 0.008(2) 0.002(2) -0.0043(17)
Lu1C 0.01597 0.0143 0.01142 0.00063 -0.00129 -0.00126
Lu1B 0.01597 0.0143 0.01142 -0.00063 0.00129 -0.00126
O2C 0.02 0.038 0.015 0.0069 0.004 -0.001
O6B 0.023 0.025 0.0168 0.0078 0.0002 0.001
O10 0.200(10) 0.046(4) 0.111(7) -0.013(5) 0.077(7) 0.017(7)
loop_
_geom_bond_atom_site_label_1
_geom_bond_atom_site_label_2
_geom_bond_site_symmetry_1
_geom_bond_site_symmetry_2
Lu1 N1 1_555 1_555
P1 C1 1_555 1_555
N1 C1 1_555 1_555
C1 H1 1_555 1_555
H2 C1 1_555 1_555
C2 N1 1_555 1_555
H3 C2 1_555 1_555
H4 C2 1_555 1_555
C3 C2 1_555 1_555
C4 N1 1_555 1_555
H5 C4 1_555 1_555
H6 C4 1_555 1_555
C5 C4 1_555 1_555
O1 Lu1 1_555 1_555
O2 C3 1_555 1_555
O3 C5 1_555 1_555
O4 Lu1 1_555 1_555
O5 P1 1_555 1_555
H7 O5 1_555 1_555
O6 P1 1_555 1_555
O7 Lu1 1_555 1_555
O8 Lu1 1_555 1_555
O9 Lu1 1_555 1_555
Lu1C O2 1_555 1_555
Lu1B O6 1_555 1_555
O2C Lu1 1_555 1_555
O6B Lu1 1_555 1_555
P1 O7 1_555 1_555
C3 O1 1_555 1_555
C5 O4 1_555 1_555

#END
