
#######################################################################
#
#                 Cambridge Crystallographic Data Centre
#                                CCDC 
#
#######################################################################
#
# If this CIF has been generated from an entry in the Cambridge 
# Structural Database, then it will include bibliographic, chemical, 
# crystal, experimental, refinement or atomic coordinate data resulting 
# from the CCDC's data processing and validation procedures.
#
#######################################################################

data_LOMMOR
_chemical_formula_moiety         '(C42 H24 N4 O16 Y2)n'
_symmetry_cell_setting           tetragonal
_symmetry_space_group_name_H-M   'I -4 2 d'
_symmetry_Int_Tables_number      122
_space_group_name_Hall           'I -4 2bw'
loop_
_symmetry_equiv_pos_site_id
_symmetry_equiv_pos_as_xyz
1 x,y,z
2 -x,-y,z
3 y,-x,-z
4 -y,x,-z
5 1/2-x,y,3/4-z
6 1/2+x,-y,3/4-z
7 1/2-y,-x,3/4+z
8 1/2+y,x,3/4+z
9 1/2+x,1/2+y,1/2+z
10 1/2-x,1/2-y,1/2+z
11 1/2+y,1/2-x,1/2-z
12 1/2-y,1/2+x,1/2-z
13 -x,1/2+y,1/4-z
14 x,1/2-y,1/4-z
15 -y,1/2-x,1/4+z
16 y,1/2+x,1/4+z
_cell_length_a                   28.9603(6)
_cell_length_b                   28.9603(6)
_cell_length_c                   10.5023(3)
_cell_angle_alpha                90
_cell_angle_beta                 90
_cell_angle_gamma                90
_cell_volume                     8808.27
loop_
_atom_site_label
_atom_site_type_symbol
_atom_site_fract_x
_atom_site_fract_y
_atom_site_fract_z
_atom_site_U_iso_or_equiv
_atom_site_thermal_displace_type
Y1 Y 0.891172(11) 0.183310(12) 0.21466(3) 0.0099 Uani
C1 C 0.95807(13) 0.28172(14) 0.2589(3) 0.0149 Uani
C2 C 1.00151(14) 0.28100(14) 0.3332(3) 0.0190 Uani
C3 C 1.02035(16) 0.24671(17) 0.4038(4) 0.0373 Uani
H1 H 1.0079 0.2168 0.4175 0.0450 Uiso
C4 C 1.06246(16) 0.26447(16) 0.4536(5) 0.0387 Uani
H2 H 1.0837 0.2486 0.5071 0.0460 Uiso
C5 C 1.06647(14) 0.30770(14) 0.4107(3) 0.0197 Uani
C6 C 1.10204(14) 0.34231(14) 0.4353(3) 0.0193 Uani
C7 C 0.82472(13) 0.22298(13) -0.0162(3) 0.0163 Uani
C8 C 0.78287(13) 0.20273(13) -0.0741(3) 0.0152 Uani
C9 C 0.77110(14) 0.15788(14) -0.0910(4) 0.0227 Uani
H3 H 0.7879 0.1316 -0.0627 0.0270 Uiso
C10 C 0.99084(16) 0.12195(16) 0.2506(4) 0.0357 Uani
H4 H 0.9890 0.1230 0.1603 0.0430 Uiso
C11 C 1.0294(2) 0.1005(2) 0.3068(5) 0.0620 Uani
H5 H 1.0528 0.0873 0.2552 0.0740 Uiso
C12 C 1.0326(2) 0.0990(2) 0.4364(5) 0.0623 Uani
H6 H 1.0585 0.0847 0.4756 0.0750 Uiso
C13 C 0.99768(17) 0.11836(18) 0.5114(4) 0.0410 Uani
C14 C 0.9970(2) 0.11725(19) 0.6487(5) 0.0480 Uani
H7 H 1.0227 0.1046 0.6928 0.0570 Uiso
C15 C 0.96133(19) 0.13351(16) 0.7156(5) 0.0430 Uani
H8 H 0.9617 0.1310 0.8058 0.0520 Uiso
C16 C 0.92310(19) 0.15437(16) 0.6550(4) 0.0367 Uani
C17 C 0.8838(2) 0.17012(17) 0.7199(5) 0.0510 Uani
H9 H 0.8825 0.1688 0.8102 0.0610 Uiso
C18 C 0.8478(2) 0.1871(2) 0.6537(5) 0.0600 Uani
H10 H 0.8206 0.1969 0.6967 0.0720 Uiso
C19 C 0.85070(18) 0.19025(18) 0.5211(4) 0.0457 Uani
H11 H 0.8253 0.2031 0.4764 0.0550 Uiso
C20 C 0.92255(15) 0.15721(14) 0.5194(4) 0.0247 Uani
C21 C 0.96030(15) 0.13882(14) 0.4472(4) 0.0243 Uani
N1 N 0.95735(12) 0.14050(12) 0.3174(3) 0.0217 Uani
N2 N 0.88665(13) 0.17638(11) 0.4546(3) 0.0273 Uani
O1 O 0.94890(9) 0.31645(10) 0.1925(2) 0.0187 Uani
O2 O 0.93370(9) 0.24543(9) 0.2676(2) 0.0202 Uani
O3 O 1.02925(8) 0.31900(9) 0.3343(2) 0.0171 Uani
O4 O 1.10206(10) 0.38204(9) 0.3861(3) 0.0237 Uani
O5 O 1.13394(10) 0.32948(11) 0.5105(3) 0.0325 Uani
O6 O 0.83070(9) 0.26587(9) -0.0205(2) 0.0190 Uani
O7 O 0.85155(9) 0.19385(9) 0.0315(3) 0.0208 Uani
O8 O 0.7500 0.23124(12) -0.1250 0.0167 Uani
C7D C 0.67528(13) 0.22298(13) -0.2338(3) 0.0163 Uani
C8D C 0.71713(13) 0.20273(13) -0.1759(3) 0.0152 Uani
C9D C 0.72890(14) 0.15788(14) -0.1590(4) 0.0227 Uani
H3D H 0.7121 0.1316 -0.1873 0.0270 Uiso
O6D O 0.66930(9) 0.26587(9) -0.2295(2) 0.0190 Uani
O7D O 0.64845(9) 0.19385(9) -0.2815(3) 0.0208 Uani
Y1D Y 0.608828(11) 0.183310(12) -0.46466(3) 0.0099 Uani
C1D C 0.54193(13) 0.28172(14) -0.5089(3) 0.0149 Uani
C2D C 0.49849(14) 0.28100(14) -0.5832(3) 0.0190 Uani
C3D C 0.47965(16) 0.24671(17) -0.6538(4) 0.0373 Uani
H1D H 0.4921 0.2168 -0.6675 0.0450 Uiso
C4D C 0.43754(16) 0.26447(16) -0.7036(5) 0.0387 Uani
H2D H 0.4163 0.2486 -0.7571 0.0460 Uiso
C5D C 0.43353(14) 0.30770(14) -0.6607(3) 0.0197 Uani
C6D C 0.39796(14) 0.34231(14) -0.6853(3) 0.0193 Uani
C10D C 0.50916(16) 0.12195(16) -0.5006(4) 0.0357 Uani
H4D H 0.5110 0.1230 -0.4103 0.0430 Uiso
C11D C 0.4706(2) 0.1005(2) -0.5568(5) 0.0620 Uani
H5D H 0.4472 0.0873 -0.5052 0.0740 Uiso
C12D C 0.4674(2) 0.0990(2) -0.6864(5) 0.0623 Uani
H6D H 0.4415 0.0847 -0.7256 0.0750 Uiso
C13D C 0.50232(17) 0.11836(18) -0.7614(4) 0.0410 Uani
C14D C 0.5030(2) 0.11725(19) -0.8987(5) 0.0480 Uani
H7D H 0.4773 0.1046 -0.9428 0.0570 Uiso
C15D C 0.53867(19) 0.13351(16) -0.9656(5) 0.0430 Uani
H8D H 0.5383 0.1310 -1.0558 0.0520 Uiso
C16D C 0.57690(19) 0.15437(16) -0.9050(4) 0.0367 Uani
C17D C 0.6162(2) 0.17012(17) -0.9699(5) 0.0510 Uani
H9D H 0.6175 0.1688 -1.0602 0.0610 Uiso
C18D C 0.6522(2) 0.1871(2) -0.9037(5) 0.0600 Uani
H10D H 0.6794 0.1969 -0.9467 0.0720 Uiso
C19D C 0.64930(18) 0.19025(18) -0.7711(4) 0.0457 Uani
H11D H 0.6747 0.2031 -0.7264 0.0550 Uiso
C20D C 0.57745(15) 0.15721(14) -0.7694(4) 0.0247 Uani
C21D C 0.53970(15) 0.13882(14) -0.6972(4) 0.0243 Uani
N1D N 0.54265(12) 0.14050(12) -0.5674(3) 0.0217 Uani
N2D N 0.61335(13) 0.17638(11) -0.7046(3) 0.0273 Uani
O1D O 0.55110(9) 0.31645(10) -0.4425(2) 0.0187 Uani
O2D O 0.56630(9) 0.24543(9) -0.5176(2) 0.0202 Uani
O3D O 0.47075(8) 0.31900(9) -0.5843(2) 0.0171 Uani
O4D O 0.39794(10) 0.38204(9) -0.6361(3) 0.0237 Uani
O5D O 0.36606(10) 0.32948(11) -0.7605(3) 0.0325 Uani
Y1I Y 0.608828(11) 0.316690(12) -0.28534(3) 0.0099 Uani
Y1K Y 0.316690(12) 0.391172(11) -0.71466(3) 0.0099 Uani
Y1M Y 0.891172(11) 0.316690(12) 0.03534(3) 0.0099 Uani
Y1O Y 1.183310(12) 0.391172(11) 0.46466(3) 0.0099 Uani
O1I O 0.55110(9) 0.18355(10) -0.3075(2) 0.0187 Uani
O1M O 0.94890(9) 0.18355(10) 0.0575(2) 0.0187 Uani
O4C O 0.61796(9) 0.10206(10) -0.3861(3) 0.0237 Uani
O4G O 0.88204(9) 0.10206(10) 0.1361(3) 0.0237 Uani
O5C O 0.67052(11) 0.13394(10) -0.5105(3) 0.0325 Uani
O5G O 0.82948(11) 0.13394(10) 0.2605(3) 0.0325 Uani
O6I O 0.66930(9) 0.23413(9) -0.5205(2) 0.0190 Uani
O6M O 0.83070(9) 0.23413(9) 0.2705(2) 0.0190 Uani
O9 O 0.94207(14) 0.03876(16) -0.0055(4) 0.0677 Uani
H12 H 0.9687(10) 0.0496(19) -0.012(5) 0.0810 Uiso
H13 H 0.9277(15) 0.0543(18) 0.048(4) 0.0810 Uiso
loop_
_atom_site_aniso_label
_atom_site_aniso_U_11
_atom_site_aniso_U_22
_atom_site_aniso_U_33
_atom_site_aniso_U_23
_atom_site_aniso_U_13
_atom_site_aniso_U_12
Y1 0.00786(18) 0.00887(18) 0.01308(14) -0.00228(14) -0.00065(14) -0.00139(14)
C1 0.009(2) 0.022(2) 0.0138(19) -0.0049(15) 0.0006(14) -0.0017(16)
C2 0.019(2) 0.014(2) 0.024(2) -0.0015(16) -0.0028(16) -0.0069(17)
C3 0.029(3) 0.027(3) 0.056(3) 0.015(2) -0.022(2) -0.017(2)
C4 0.032(3) 0.031(3) 0.053(3) 0.018(2) -0.028(2) -0.017(2)
C5 0.015(2) 0.023(3) 0.021(2) 0.0021(16) -0.0066(16) -0.0064(17)
C6 0.012(2) 0.026(2) 0.020(2) -0.0024(16) 0.0003(15) -0.0055(16)
C7 0.014(2) 0.020(2) 0.0149(19) -0.0047(15) 0.0009(15) 0.0007(16)
C8 0.012(2) 0.015(2) 0.0186(19) 0.0015(15) -0.0027(15) 0.0017(15)
C9 0.021(2) 0.016(2) 0.031(2) 0.0033(17) -0.0088(18) 0.0009(17)
C10 0.027(3) 0.041(3) 0.039(3) 0.011(2) 0.000(2) 0.015(2)
C11 0.051(3) 0.070(3) 0.065(3) 0.014(2) 0.004(2) 0.016(2)
C12 0.054(3) 0.072(3) 0.061(3) 0.019(2) -0.008(2) 0.012(2)
C13 0.030(3) 0.048(4) 0.045(3) 0.015(2) -0.013(2) -0.003(2)
C14 0.045(3) 0.053(3) 0.046(3) 0.016(2) -0.026(2) -0.012(3)
C15 0.064(4) 0.037(3) 0.028(2) 0.008(2) -0.018(3) -0.025(3)
C16 0.058(3) 0.025(2) 0.027(2) 0.0049(18) -0.013(2) -0.014(2)
C17 0.074(4) 0.049(3) 0.030(2) -0.003(2) 0.007(3) 0.004(2)
C18 0.068(3) 0.063(3) 0.049(2) 0.003(2) 0.015(2) 0.017(2)
C19 0.057(3) 0.051(3) 0.029(2) 0.012(2) 0.018(2) 0.021(3)
C20 0.036(3) 0.014(2) 0.024(2) 0.0000(17) -0.0006(19) -0.0088(18)
C21 0.024(2) 0.023(2) 0.026(2) 0.0097(18) -0.0096(19) -0.0109(18)
N1 0.0176(19) 0.024(2) 0.0236(19) 0.0039(14) -0.0045(14) -0.0001(15)
N2 0.038(2) 0.021(2) 0.0228(15) -0.0005(15) 0.0040(17) 0.0063(17)
O1 0.0174(15) 0.0175(14) 0.0211(13) 0.0012(12) -0.0034(11) -0.0010(12)
O2 0.0162(15) 0.0182(16) 0.0261(15) -0.0023(12) -0.0043(11) -0.0049(11)
O3 0.0137(14) 0.0174(15) 0.0203(13) -0.0015(11) -0.0002(10) -0.0052(12)
O4 0.0164(16) 0.0180(16) 0.0366(16) 0.0005(12) -0.0044(12) -0.0031(12)
O5 0.0239(18) 0.039(2) 0.0345(18) 0.0133(14) -0.0127(13) -0.0178(14)
O6 0.0121(15) 0.0187(16) 0.0263(14) -0.0044(12) -0.0026(11) -0.0016(11)
O7 0.0144(15) 0.0221(17) 0.0260(14) -0.0021(12) -0.0072(12) 0.0057(11)
O8 0.016(2) 0.013(2) 0.0210(18) 0.000 -0.0039(15) 0.000
C7D 0.014 0.02 0.0149 0.0047 0.0009 -0.0007
C8D 0.012 0.015 0.0186 -0.0015 -0.0027 -0.0017
C9D 0.021 0.016 0.031 -0.0033 -0.0088 -0.0009
O6D 0.0121 0.0187 0.0263 0.0044 -0.0026 0.0016
O7D 0.0144 0.0221 0.026 0.0021 -0.0072 -0.0057
Y1D 0.00786 0.00887 0.01308 0.00228 -0.00065 0.00139
C1D 0.009 0.022 0.0138 0.0049 0.0006 0.0017
C2D 0.019 0.014 0.024 0.0015 -0.0028 0.0069
C3D 0.029 0.027 0.056 -0.015 -0.022 0.017
C4D 0.032 0.031 0.053 -0.018 -0.028 0.017
C5D 0.015 0.023 0.021 -0.0021 -0.0066 0.0064
C6D 0.012 0.026 0.02 0.0024 0.0003 0.0055
C10D 0.027 0.041 0.039 -0.011 0 -0.015
C11D 0.051 0.07 0.065 -0.014 0.004 -0.016
C12D 0.054 0.072 0.061 -0.019 -0.008 -0.012
C13D 0.03 0.048 0.045 -0.015 -0.013 0.003
C14D 0.045 0.053 0.046 -0.016 -0.026 0.012
C15D 0.064 0.037 0.028 -0.008 -0.018 0.025
C16D 0.058 0.025 0.027 -0.0049 -0.013 0.014
C17D 0.074 0.049 0.03 0.003 0.007 -0.004
C18D 0.068 0.063 0.049 -0.003 0.015 -0.017
C19D 0.057 0.051 0.029 -0.012 0.018 -0.021
C20D 0.036 0.014 0.024 0 -0.0006 0.0088
C21D 0.024 0.023 0.026 -0.0097 -0.0096 0.0109
N1D 0.0176 0.024 0.0236 -0.0039 -0.0045 0.0001
N2D 0.038 0.021 0.0228 0.0005 0.004 -0.0063
O1D 0.0174 0.0175 0.0211 -0.0012 -0.0034 0.001
O2D 0.0162 0.0182 0.0261 0.0023 -0.0043 0.0049
O3D 0.0137 0.0174 0.0203 0.0015 -0.0002 0.0052
O4D 0.0164 0.018 0.0366 -0.0005 -0.0044 0.0031
O5D 0.0239 0.039 0.0345 -0.0133 -0.0127 0.0178
Y1I 0.00786 0.00887 0.01308 0.00228 0.00065 -0.00139
Y1K 0.00887 0.00786 0.01308 0.00065 -0.00228 0.00139
Y1M 0.00786 0.00887 0.01308 -0.00228 0.00065 0.00139
Y1O 0.00887 0.00786 0.01308 -0.00065 -0.00228 -0.00139
O1I 0.0174 0.0175 0.0211 -0.0012 0.0034 -0.001
O1M 0.0174 0.0175 0.0211 0.0012 0.0034 0.001
O4C 0.018 0.0164 0.0366 0.0044 0.0005 0.0031
O4G 0.018 0.0164 0.0366 -0.0044 0.0005 -0.0031
O5C 0.039 0.0239 0.0345 0.0127 0.0133 0.0178
O5G 0.039 0.0239 0.0345 -0.0127 0.0133 -0.0178
O6I 0.0121 0.0187 0.0263 0.0044 0.0026 -0.0016
O6M 0.0121 0.0187 0.0263 -0.0044 0.0026 0.0016
O9 0.048(3) 0.067(3) 0.088(3) -0.032(2) 0.008(2) 0.011(2)
loop_
_geom_bond_atom_site_label_1
_geom_bond_atom_site_label_2
_geom_bond_site_symmetry_1
_geom_bond_site_symmetry_2
Y1 N1 1_555 1_555
C1 C2 1_555 1_555
C2 C3 1_555 1_555
C3 H1 1_555 1_555
C4 C3 1_555 1_555
H2 C4 1_555 1_555
C5 C4 1_555 1_555
C6 C5 1_555 1_555
C7 C8 1_555 1_555
C8 C9 1_555 1_555
C9 H3 1_555 1_555
C10 H4 1_555 1_555
C11 C10 1_555 1_555
H5 C11 1_555 1_555
C12 C11 1_555 1_555
H6 C12 1_555 1_555
C13 C12 1_555 1_555
C14 C13 1_555 1_555
H7 C14 1_555 1_555
C15 C14 1_555 1_555
H8 C15 1_555 1_555
C16 C15 1_555 1_555
C17 C16 1_555 1_555
H9 C17 1_555 1_555
C18 C17 1_555 1_555
H10 C18 1_555 1_555
C19 C18 1_555 1_555
H11 C19 1_555 1_555
C20 C16 1_555 1_555
C21 C13 1_555 1_555
N1 C10 1_555 1_555
N2 Y1 1_555 1_555
O1 C1 1_555 1_555
O2 Y1 1_555 1_555
O3 C2 1_555 1_555
O4 C6 1_555 1_555
O5 C6 1_555 1_555
O6 C7 1_555 1_555
O7 Y1 1_555 1_555
O8 C8 1_555 1_555
O9 H12 1_555 1_555
H13 O9 1_555 1_555
C7D C8D 1_555 1_555
C8D O8 1_555 1_555
C9D C9 1_555 1_555
H3D C9D 1_555 1_555
O6D C7D 1_555 1_555
O7D C7D 1_555 1_555
Y1D O7D 1_555 1_555
C1D C2D 1_555 1_555
C2D C3D 1_555 1_555
C3D H1D 1_555 1_555
C4D C3D 1_555 1_555
H2D C4D 1_555 1_555
C5D C4D 1_555 1_555
C6D C5D 1_555 1_555
C10D H4D 1_555 1_555
C11D C10D 1_555 1_555
H5D C11D 1_555 1_555
C12D C11D 1_555 1_555
H6D C12D 1_555 1_555
C13D C12D 1_555 1_555
C14D C13D 1_555 1_555
H7D C14D 1_555 1_555
C15D C14D 1_555 1_555
H8D C15D 1_555 1_555
C16D C15D 1_555 1_555
C17D C16D 1_555 1_555
H9D C17D 1_555 1_555
C18D C17D 1_555 1_555
H10D C18D 1_555 1_555
C19D C18D 1_555 1_555
H11D C19D 1_555 1_555
C20D C16D 1_555 1_555
C21D C13D 1_555 1_555
N1D Y1D 1_555 1_555
N2D Y1D 1_555 1_555
O1D C1D 1_555 1_555
O2D Y1D 1_555 1_555
O3D C2D 1_555 1_555
O4D C6D 1_555 1_555
O5D C6D 1_555 1_555
Y1I O6D 1_555 1_555
Y1K O4D 1_555 1_555
Y1M O1 1_555 1_555
Y1O O4 1_555 1_555
O1I Y1D 1_555 1_555
O1M Y1 1_555 1_555
O4C Y1D 1_555 1_555
O4G Y1 1_555 1_555
O5C Y1D 1_555 1_555
O5G Y1 1_555 1_555
O6I Y1D 1_555 1_555
O6M Y1 1_555 1_555
C1 O2 1_555 1_555
C5 O3 1_555 1_555
C7 O7 1_555 1_555
C19 N2 1_555 1_555
C20 C21 1_555 1_555
C20 N2 1_555 1_555
C21 N1 1_555 1_555
O5 Y1O 1_555 1_555
O6 Y1M 1_555 1_555
C8D C9D 1_555 1_555
C1D O2D 1_555 1_555
C5D O3D 1_555 1_555
C10D N1D 1_555 1_555
C19D N2D 1_555 1_555
C20D C21D 1_555 1_555
C20D N2D 1_555 1_555
C21D N1D 1_555 1_555
O1D Y1I 1_555 1_555
O5D Y1K 1_555 1_555

#END
