
#######################################################################
#
#                 Cambridge Crystallographic Data Centre
#                                CCDC 
#
#######################################################################
#
# If this CIF has been generated from an entry in the Cambridge 
# Structural Database, then it will include bibliographic, chemical, 
# crystal, experimental, refinement or atomic coordinate data resulting 
# from the CCDC's data processing and validation procedures.
#
#######################################################################

data_LADKIN
_chemical_formula_moiety         '(C12 H36 In5 N4 O33 P8 1+)n'
_symmetry_cell_setting           triclinic
_symmetry_space_group_name_H-M   'P -1'
_symmetry_Int_Tables_number      2
_space_group_name_Hall           '-P 1'
loop_
_symmetry_equiv_pos_site_id
_symmetry_equiv_pos_as_xyz
1 x,y,z
2 -x,-y,-z
_cell_length_a                   7.8224(11)
_cell_length_b                   10.6257(15)
_cell_length_c                   13.1557(19)
_cell_angle_alpha                94.720(2)
_cell_angle_beta                 92.336(2)
_cell_angle_gamma                110.181(2)
_cell_volume                     1020.07
loop_
_atom_site_label
_atom_site_type_symbol
_atom_site_fract_x
_atom_site_fract_y
_atom_site_fract_z
N1 N 0.9275(15) 0.3580(13) 0.4677(9)
C3 C 1.0517(18) 0.4547(16) 0.4054(11)
H6 H 1.0223 0.4211 0.3337
C4 C 0.9611(18) 0.4070(16) 0.5786(10)
H7 H 1.0814 0.4105 0.6032
H8 H 0.8714 0.3455 0.6169
H9 H 1.1763 0.4611 0.4229
N1A N 1.0725(15) 0.6420(13) 0.5323(9)
C3A C 0.9483(18) 0.5453(16) 0.5946(11)
H6A H 0.9777 0.5789 0.6663
C4A C 1.0389(18) 0.5930(16) 0.4214(10)
H7A H 0.9186 0.5895 0.3968
H8A H 1.1286 0.6545 0.3831
H9A H 0.8237 0.5389 0.5771
N2 N 0.9088(15) 0.3565(11) -0.0221(9)
H10 H 0.9109 0.2721 -0.0299
H11 H 0.7925 0.3518 -0.0338
C5 C 0.9755(18) 0.5617(13) 0.0974(10)
H12 H 0.8512 0.5600 0.0869
H13 H 1.0217 0.6025 0.1663
C6 C 0.977(2) 0.4179(14) 0.0850(11)
H14 H 1.0999 0.4188 0.0992
H15 H 0.8991 0.3648 0.1331
N2A N 1.0912(15) 0.6435(11) 0.0221(9)
H10A H 1.0891 0.7279 0.0299
H11A H 1.2075 0.6482 0.0338
C5A C 1.0245(18) 0.4383(13) -0.0974(10)
H12A H 1.1488 0.4400 -0.0869
H13A H 0.9783 0.3975 -0.1663
C6A C 1.023(2) 0.5821(14) -0.0850(11)
H14A H 0.9001 0.5812 -0.0992
H15A H 1.1009 0.6352 -0.1331
O17 O 0.850(4) 0.0799(19) 0.4866(17)
H16 H 0.9494 0.0639 0.4897
H17 H 0.7822 0.0335 0.4349
In1 In 1.0000 1.0000 0.0000
In2 In 0.47591(11) 0.75318(8) 0.74624(6)
In3 In 0.51272(11) 0.77883(8) 0.24906(6)
P1 P 0.8059(4) 1.0717(3) -0.2168(3)
H1 H 0.936(19) 1.092(14) -0.256(10)
P2 P 0.8457(6) 1.0990(4) 0.2243(3)
H2 H 0.9568 1.1217 0.2669
P3 P 0.5770(4) 0.7365(3) 0.4997(2)
H3 H 0.70(2) 0.804(14) 0.533(10)
P4 P 0.5753(7) 0.8080(6) 0.0027(4)
H4 H 0.5754 0.8984 0.0147
O1 O 0.8574(14) 1.0835(10) -0.1045(7)
O2 O 0.7755(12) 0.8147(10) 0.0065(7)
O3 O 0.4748(12) 0.7278(10) 0.0876(7)
O4 O 0.7313(11) 1.1818(8) -0.2434(7)
O5 O 0.7264(14) 0.9591(10) 0.2481(9)
O6 O 0.6992(12) 0.6651(9) 0.2519(7)
O7 O 0.5343(15) 0.8085(10) 0.4114(7)
O8 O 0.4403(11) 0.7226(9) 0.5819(6)
O9 O 0.6872(12) 0.9354(8) -0.2606(7)
O10 O 0.3378(11) 0.3625(8) 0.2600(7)
O11 O 0.4706(14) 0.7470(11) -0.0953(7)
O12 O 0.7060(14) 0.4604(10) 0.2614(7)
O13 O 0.3275(11) 0.5692(8) 0.2546(6)
O14 O 0.5867(14) 0.5988(10) 0.4631(7)
H5 H 0.6139 0.5647 0.5120
O15 O 0.9011(15) 1.1036(10) 0.1174(7)
O16 O 0.7661(13) 1.2042(10) 0.2554(7)
C1 C 0.6278(15) 0.5425(11) 0.2569(8)
C2 C 0.4134(17) 0.4849(12) 0.2573(9)
In2A In 0.52409(11) 0.24682(8) 0.25376(6)
In3A In 0.48728(11) 0.22117(8) 0.75094(6)
P2A P 0.1543(6) -0.0990(4) 0.7757(3)
H2A H 0.0432 -0.1217 0.7331
P3A P 0.4230(4) 0.2635(3) 0.5003(2)
H3A H 0.30(2) 0.196(14) 0.467(10)
P4A P 0.4247(7) 0.1920(6) 0.9973(4)
H4A H 0.4246 0.1016 0.9853
O2A O 0.2245(12) 0.1853(10) 0.9935(7)
O3A O 0.5252(12) 0.2722(10) 0.9124(7)
O5A O 0.2736(14) 0.0409(10) 0.7519(9)
O6A O 0.3008(12) 0.3349(9) 0.7481(7)
O7A O 0.4657(15) 0.1915(10) 0.5886(7)
O8A O 0.5597(11) 0.2774(9) 0.4181(6)
O10A O 0.6622(11) 0.6375(8) 0.7400(7)
O11A O 0.5294(14) 0.2530(11) 1.0953(7)
O12A O 0.2940(14) 0.5396(10) 0.7386(7)
O13A O 0.6725(11) 0.4308(8) 0.7454(6)
O14A O 0.4133(14) 0.4012(10) 0.5369(7)
H5A H 0.3861 0.4353 0.4880
O15A O 0.0989(15) -0.1036(10) 0.8826(7)
O16A O 0.2339(13) -0.2042(10) 0.7446(7)
C1A C 0.3722(15) 0.4575(11) 0.7431(8)
C2A C 0.5866(17) 0.5151(12) 0.7427(9)
P1A P 1.1941(4) 0.9283(3) 0.2168(3)
H1A H 1.064(19) 0.908(14) 0.256(10)
O1A O 1.1426(14) 0.9165(10) 0.1045(7)
O4A O 1.2687(11) 0.8182(8) 0.2434(7)
O9A O 1.3128(12) 1.0646(8) 0.2606(7)
In1_2 In 0.0000 -0.0000 1.0000
In2_2 In 0.47591(11) -0.24682(8) 0.74624(6)
In2_3 In 0.47591(11) 0.75318(8) -0.25376(6)
In2A_2 In 0.52409(11) 0.24682(8) 1.25376(6)
In2A_3 In 0.52409(11) 1.24682(8) 0.25376(6)
In2A_4 In 1.52409(11) 1.24682(8) 0.25376(6)
In3_2 In 1.51272(11) 0.77883(8) 0.24906(6)
In3A_2 In 0.48728(11) 1.22117(8) -0.24906(6)
O2A_2 O 1.2245(12) 1.1853(10) -0.0065(7)
O4_2 O 0.7313(11) 0.1818(8) 0.7566(7)
O4A_2 O 0.2687(11) 0.8182(8) 0.2434(7)
O9_2 O 0.6872(12) 0.9354(8) 0.7394(7)
O9A_2 O 0.3128(12) 0.0646(8) 0.2606(7)
O11_2 O 0.4706(14) 0.7470(11) 0.9047(7)
O11A_2 O 0.5294(14) 0.2530(11) 0.0953(7)
O15A_2 O 1.0989(15) 0.8964(10) -0.1174(7)
O16_2 O 0.7661(13) 0.2042(10) 0.2554(7)
O16A_2 O 0.2339(13) 0.7958(10) 0.7446(7)
loop_
_geom_bond_atom_site_label_1
_geom_bond_atom_site_label_2
_geom_bond_site_symmetry_1
_geom_bond_site_symmetry_2
In1 O1 1_555 1_555
In2 O8 1_555 1_555
In3 O3 1_555 1_555
P1 H1 1_555 1_555
P2 H2 1_555 1_555
P3 H3 1_555 1_555
P4 H4 1_555 1_555
O1 P1 1_555 1_555
O2 In1 1_555 1_555
O3 P4 1_555 1_555
O4 P1 1_555 1_555
O5 In3 1_555 1_555
O6 In3 1_555 1_555
O7 In3 1_555 1_555
O8 P3 1_555 1_555
O9 P1 1_555 1_555
O10 C2 1_555 1_555
O11 P4 1_555 1_555
O12 C1 1_555 1_555
O13 In3 1_555 1_555
O14 P3 1_555 1_555
H5 O14 1_555 1_555
O15 In1 1_555 1_555
O16 P2 1_555 1_555
C1 O6 1_555 1_555
C2 O13 1_555 1_555
N1 C3 1_555 1_555
C3 H6 1_555 1_555
C4 N1 1_555 1_555
H7 C4 1_555 1_555
H8 C4 1_555 1_555
H9 C3 1_555 1_555
N2 H10 1_555 1_555
H11 N2 1_555 1_555
C5 H12 1_555 1_555
H13 C5 1_555 1_555
C6 N2 1_555 1_555
H14 C6 1_555 1_555
H15 C6 1_555 1_555
O17 H16 1_555 1_555
H17 O17 1_555 1_555
In2A O10 1_555 1_555
In3A O3A 1_555 1_555
P2A H2A 1_555 1_555
P3A H3A 1_555 1_555
P4A H4A 1_555 1_555
O2A P4A 1_555 1_555
O3A P4A 1_555 1_555
O5A In3A 1_555 1_555
O6A In3A 1_555 1_555
O7A In3A 1_555 1_555
O8A In2A 1_555 1_555
O10A In2 1_555 1_555
O11A P4A 1_555 1_555
O12A In2 1_555 1_555
O13A In3A 1_555 1_555
O14A P3A 1_555 1_555
H5A O14A 1_555 1_555
O15A P2A 1_555 1_555
O16A P2A 1_555 1_555
C1A O6A 1_555 1_555
C2A O10A 1_555 1_555
P1A H1A 1_555 1_555
O1A In1 1_555 1_555
O4A P1A 1_555 1_555
O9A P1A 1_555 1_555
In1_2 O2A 1_555 1_555
In2_2 O16A 1_555 1_555
In2_3 O9 1_555 1_555
In2A_2 O11A 1_555 1_555
In2A_3 O16 1_555 1_555
In2A_4 O9A 1_555 1_555
In3_2 O4A 1_555 1_555
In3A_2 O4 1_555 1_555
O2A_2 In1 1_555 1_555
O4_2 In3A 1_555 1_555
O4A_2 In3 1_555 1_555
O9_2 In2 1_555 1_555
O9A_2 In2A 1_555 1_555
O11_2 In2 1_555 1_555
O11A_2 In2A 1_555 1_555
O15A_2 In1 1_555 1_555
O16_2 In2A 1_555 1_555
O16A_2 In2 1_555 1_555
N1A C3A 1_555 1_555
C3A C4 1_555 1_555
H6A C3A 1_555 1_555
C4A C3 1_555 1_555
H7A C4A 1_555 1_555
H8A C4A 1_555 1_555
H9A C3A 1_555 1_555
N2A C5 1_555 1_555
H10A N2A 1_555 1_555
H11A N2A 1_555 1_555
C5A N2 1_555 1_555
H12A C5A 1_555 1_555
H13A C5A 1_555 1_555
C6A N2A 1_555 1_555
H14A C6A 1_555 1_555
H15A C6A 1_555 1_555
P2 O5 1_555 1_555
P2 O15 1_555 1_555
P3 O7 1_555 1_555
P4 O2 1_555 1_555
O11 In2_3 1_555 1_555
O12 In2A 1_555 1_555
C1 C2 1_555 1_555
C5 C6 1_555 1_555
P2A O5A 1_555 1_555
P3A O7A 1_555 1_555
P3A O8A 1_555 1_555
O12A C1A 1_555 1_555
O13A C2A 1_555 1_555
O15A In1_2 1_555 1_555
C1A C2A 1_555 1_555
P1A O1A 1_555 1_555
N1A C4A 1_555 1_555
C5A C6A 1_555 1_555

#END
