
#######################################################################
#
#                 Cambridge Crystallographic Data Centre
#                                CCDC 
#
#######################################################################
#
# If this CIF has been generated from an entry in the Cambridge 
# Structural Database, then it will include bibliographic, chemical, 
# crystal, experimental, refinement or atomic coordinate data resulting 
# from the CCDC's data processing and validation procedures.
#
#######################################################################

data_CEYWOU
_chemical_formula_moiety         'C50 H38 N4 O23 Tb7'
_symmetry_cell_setting           triclinic
_symmetry_space_group_name_H-M   'P -1'
_symmetry_Int_Tables_number      2
_space_group_name_Hall           '-P 1'
loop_
_symmetry_equiv_pos_site_id
_symmetry_equiv_pos_as_xyz
1 x,y,z
2 -x,-y,-z
_cell_length_a                   9.9199(4)
_cell_length_b                   10.4905(4)
_cell_length_c                   13.4316(8)
_cell_angle_alpha                105.687(4)
_cell_angle_beta                 101.880(5)
_cell_angle_gamma                94.436(3)
_cell_volume                     1303.68
loop_
_atom_site_label
_atom_site_type_symbol
_atom_site_fract_x
_atom_site_fract_y
_atom_site_fract_z
O9 O 0.5715(5) 0.1394(5) 0.1894(4)
H19 H 0.5521 0.0887 0.2248
H20 H 0.6516 0.1317 0.1790
Tb1 Tb 0.74376(3) 0.49442(3) 0.47550(2)
O1 O 0.6287(5) 0.6672(5) 0.4380(4)
O2 O 0.4241(5) 0.6205(5) 0.4737(4)
O3 O 0.0537(5) 1.3557(5) 0.4708(4)
O4 O -0.1735(5) 1.2895(5) 0.4289(4)
O5 O 0.8681(5) 0.4767(5) 0.6468(5)
O6 O 0.7258(5) 0.6285(5) 0.6554(5)
O7 O 0.5572(5) 0.3851(5) 0.3187(5)
H1 H 0.5565 0.3199 0.2661
H2 H 0.4907 0.4267 0.3041
O8 O 0.8326(5) 0.5024(5) 0.3209(4)
H3 H 0.8073 0.4509 0.2586
H4 H 0.9195 0.5150 0.3403
N1 N 0.5002(8) 0.9839(8) 0.3326(9)
C1 C 0.5065(7) 0.6864(6) 0.4392(6)
C2 C 0.4517(7) 0.7979(7) 0.4002(7)
C3 C 0.5415(8) 0.8810(9) 0.3700(9)
H5 H 0.6355 0.8654 0.3757
C4 C 0.3640(8) 1.0073(9) 0.3278(8)
H6 H 0.3328 1.0776 0.3010
C5 C 0.2713(7) 0.9306(7) 0.3613(6)
C6 C 0.3175(7) 0.8249(7) 0.3950(6)
H7 H 0.2546 0.7693 0.4153
C7 C 0.1297(7) 0.9633(6) 0.3592(6)
C8 C 0.0179(8) 0.8643(8) 0.3274(7)
H8 H 0.0330 0.7736 0.3058
C9 C -0.1151(8) 0.8925(7) 0.3257(9)
H9 H -0.1915 0.8226 0.3007
C10 C -0.1355(8) 1.0209(8) 0.3602(9)
H10 H -0.2269 1.0406 0.3626
C11 C -0.0252(7) 1.1256(6) 0.3927(6)
C12 C 0.1097(7) 1.0952(7) 0.3931(6)
H11 H 0.1866 1.1646 0.4164
C13 C -0.0492(6) 1.2666(6) 0.4343(6)
C14 C 0.8101(9) 0.5661(9) 0.6985(4)
C15 C 0.8660(13) 0.6110(14) 0.8157(6)
C16 C 0.8357(14) 0.7311(13) 0.8754(9)
H12 H 0.7801 0.7838 0.8411
N2 N 0.8868(16) 0.7741(11) 0.9852(9)
C17 C 0.9682(15) 0.6970(14) 1.0353(6)
H13 H 1.0032 0.7264 1.1104
C18 C 0.9986(13) 0.5769(12) 0.9757(8)
C19 C 0.9475(12) 0.5339(10) 0.8659(8)
H14 H 0.9682 0.4518 0.8251
C20 C 1.0843(14) 0.4901(13) 1.0301(9)
C21 C 1.1544(17) 0.4003(16) 0.9707(7)
H15 H 1.1489 0.3951 0.8982
C22 C 1.2327(17) 0.3182(15) 1.0172(9)
H16 H 1.2806 0.2568 0.9766
C23 C 1.2408(16) 0.3257(14) 1.1233(9)
H17 H 1.2942 0.2696 1.1551
C24 C 1.1706(15) 0.4155(14) 1.1828(6)
C25 C 1.0924(12) 0.4977(12) 1.1362(8)
H18 H 1.0445 0.5590 1.1768
O5A O 1.1319(5) 0.5233(5) 1.3532(5)
O6A O 1.2742(5) 0.3715(5) 1.3446(5)
C14A C 1.1899(9) 0.4339(9) 1.3015(4)
C15A C 1.1340(13) 0.3890(14) 1.1843(6)
C16A C 1.1643(14) 0.2689(13) 1.1246(9)
H12A H 1.2199 0.2162 1.1589
N2A N 1.1132(16) 0.2259(11) 1.0148(9)
C17A C 1.0318(15) 0.3030(14) 0.9647(6)
H13A H 0.9968 0.2736 0.8896
C18A C 1.0014(13) 0.4231(12) 1.0243(8)
C19A C 1.0525(12) 0.4661(10) 1.1341(8)
H14A H 1.0318 0.5482 1.1749
C20A C 0.9157(14) 0.5099(13) 0.9699(9)
C21A C 0.8456(17) 0.5997(16) 1.0293(7)
H15A H 0.8511 0.6049 1.1018
C22A C 0.7673(17) 0.6818(15) 0.9828(9)
H16A H 0.7194 0.7432 1.0234
C23A C 0.7592(16) 0.6743(14) 0.8767(9)
H17A H 0.7058 0.7304 0.8449
C24A C 0.8294(15) 0.5845(14) 0.8172(6)
C25A C 0.9076(12) 0.5023(12) 0.8638(8)
H18A H 0.9555 0.4410 0.8232
Tb1A Tb 0.25624(3) 0.50558(3) 0.52450(2)
O1A O 0.3713(5) 0.3328(5) 0.5620(4)
O2A O 0.5759(5) 0.3795(5) 0.5263(4)
O3A O 0.9463(5) -0.3557(5) 0.5292(4)
O4A O 1.1735(5) -0.2895(5) 0.5711(4)
O7A O 0.4428(5) 0.6149(5) 0.6813(5)
H1A H 0.4435 0.6801 0.7339
H2A H 0.5093 0.5733 0.6959
O8A O 0.1674(5) 0.4976(5) 0.6791(4)
H3A H 0.1927 0.5491 0.7414
H4A H 0.0805 0.4850 0.6597
N1A N 0.4998(8) 0.0161(8) 0.6674(9)
C1A C 0.4935(7) 0.3136(6) 0.5608(6)
C2A C 0.5483(7) 0.2021(7) 0.5998(7)
C3A C 0.4585(8) 0.1190(9) 0.6300(9)
H5A H 0.3645 0.1346 0.6243
C4A C 0.6360(8) -0.0073(9) 0.6722(8)
H6A H 0.6672 -0.0776 0.6990
C5A C 0.7287(7) 0.0694(7) 0.6387(6)
C6A C 0.6825(7) 0.1751(7) 0.6050(6)
H7A H 0.7454 0.2307 0.5847
C7A C 0.8703(7) 0.0367(6) 0.6408(6)
C8A C 0.9821(8) 0.1357(8) 0.6726(7)
H8A H 0.9670 0.2264 0.6942
C9A C 1.1151(8) 0.1075(7) 0.6743(9)
H9A H 1.1915 0.1774 0.6993
C10A C 1.1355(8) -0.0209(8) 0.6398(9)
H10A H 1.2269 -0.0406 0.6374
C11A C 1.0252(7) -0.1256(6) 0.6073(6)
C12A C 0.8903(7) -0.0952(7) 0.6069(6)
H11A H 0.8134 -0.1646 0.5836
C13A C 1.0492(6) -0.2666(6) 0.5657(6)
Tb1_2 Tb -0.25624(3) 1.49442(3) 0.47550(2)
Tb1_3 Tb 0.74376(3) -0.50558(3) 0.47550(2)
Tb1A_2 Tb 0.25624(3) 1.50558(3) 0.52450(2)
Tb1A_3 Tb 1.25624(3) -0.49442(3) 0.52450(2)
Tb1A_4 Tb 1.25624(3) 0.50558(3) 1.52450(2)
O3_2 O 0.0537(5) 0.3557(5) 0.4708(4)
O3A_2 O 0.9463(5) 0.6443(5) 0.5292(4)
O4_2 O 0.8265(5) 0.2895(5) 0.4289(4)
O4A_2 O 0.1735(5) 0.7105(5) 0.5711(4)
O5A_2 O 0.1319(5) 0.5233(5) 0.3532(5)
O6A_2 O 0.2742(5) 0.3715(5) 0.3446(5)
loop_
_geom_bond_atom_site_label_1
_geom_bond_atom_site_label_2
_geom_bond_site_symmetry_1
_geom_bond_site_symmetry_2
Tb1 O1 1_555 1_555
O1 C1 1_555 1_555
O2 C1 1_555 1_555
O3 C13 1_555 1_555
O4 C13 1_555 1_555
O5 Tb1 1_555 1_555
O6 Tb1 1_555 1_555
O7 Tb1 1_555 1_555
H1 O7 1_555 1_555
H2 O7 1_555 1_555
O8 Tb1 1_555 1_555
H3 O8 1_555 1_555
H4 O8 1_555 1_555
N1 C3 1_555 1_555
C1 C2 1_555 1_555
C2 C3 1_555 1_555
C3 H5 1_555 1_555
C4 N1 1_555 1_555
H6 C4 1_555 1_555
C5 C4 1_555 1_555
C6 C2 1_555 1_555
H7 C6 1_555 1_555
C7 C5 1_555 1_555
C8 C7 1_555 1_555
H8 C8 1_555 1_555
C9 C8 1_555 1_555
H9 C9 1_555 1_555
C10 C9 1_555 1_555
H10 C10 1_555 1_555
C11 C10 1_555 1_555
C12 C7 1_555 1_555
H11 C12 1_555 1_555
C13 C11 1_555 1_555
C14 O5 1_555 1_555
C15 C14 1_555 1_555
C16 C15 1_555 1_555
H12 C16 1_555 1_555
N2 C16 1_555 1_555
C17 N2 1_555 1_555
H13 C17 1_555 1_555
C18 C17 1_555 1_555
C19 C15 1_555 1_555
H14 C19 1_555 1_555
C20 C18 1_555 1_555
C21 C20 1_555 1_555
H15 C21 1_555 1_555
C22 C21 1_555 1_555
H16 C22 1_555 1_555
C23 C22 1_555 1_555
H17 C23 1_555 1_555
C24 C23 1_555 1_555
C25 C20 1_555 1_555
H18 C25 1_555 1_555
O9 H19 1_555 1_555
H20 O9 1_555 1_555
O5A C14A 1_555 1_555
O6A C14A 1_555 1_555
C14A C24 1_555 1_555
C15A C24 1_555 1_555
C16A C23 1_555 1_555
H12A C16A 1_555 1_555
N2A C22 1_555 1_555
C17A C21 1_555 1_555
H13A C17A 1_555 1_555
C18A C20 1_555 1_555
C19A C25 1_555 1_555
H14A C25 1_555 1_555
C20A C18 1_555 1_555
C21A C17 1_555 1_555
H15A C21A 1_555 1_555
C22A N2 1_555 1_555
H16A C22A 1_555 1_555
C23A C16 1_555 1_555
H17A C16 1_555 1_555
C24A C14 1_555 1_555
C25A C19 1_555 1_555
H18A C19 1_555 1_555
Tb1A O2 1_555 1_555
O1A Tb1A 1_555 1_555
O2A Tb1 1_555 1_555
O3A C13A 1_555 1_555
O4A C13A 1_555 1_555
O7A Tb1A 1_555 1_555
H1A O7A 1_555 1_555
H2A O7A 1_555 1_555
O8A Tb1A 1_555 1_555
H3A O8A 1_555 1_555
H4A O8A 1_555 1_555
N1A C3A 1_555 1_555
C1A O1A 1_555 1_555
C2A C1A 1_555 1_555
C3A C2A 1_555 1_555
H5A C3A 1_555 1_555
C4A N1A 1_555 1_555
H6A C4A 1_555 1_555
C5A C4A 1_555 1_555
C6A C2A 1_555 1_555
H7A C6A 1_555 1_555
C7A C5A 1_555 1_555
C8A C7A 1_555 1_555
H8A C8A 1_555 1_555
C9A C8A 1_555 1_555
H9A C9A 1_555 1_555
C10A C9A 1_555 1_555
H10A C10A 1_555 1_555
C11A C10A 1_555 1_555
C12A C7A 1_555 1_555
H11A C12A 1_555 1_555
C13A C11A 1_555 1_555
Tb1_2 O4 1_555 1_555
Tb1_3 O3A 1_555 1_555
Tb1A_2 O3 1_555 1_555
Tb1A_3 O4A 1_555 1_555
Tb1A_4 O5A 1_555 1_555
O3_2 Tb1A 1_555 1_555
O3A_2 Tb1 1_555 1_555
O4_2 Tb1 1_555 1_555
O4A_2 Tb1A 1_555 1_555
O5A_2 Tb1A 1_555 1_555
O6A_2 Tb1A 1_555 1_555
O6 C14 1_555 1_555
C5 C6 1_555 1_555
C11 C12 1_555 1_555
C15 C24A 1_555 1_555
C18 C19 1_555 1_555
H14 C25A 1_555 1_555
H17 C16A 1_555 1_555
C24 C25 1_555 1_555
H18 C19A 1_555 1_555
O6A Tb1A_4 1_555 1_555
C14A C15A 1_555 1_555
C15A C16A 1_555 1_555
C15A C19A 1_555 1_555
C16A N2A 1_555 1_555
N2A C17A 1_555 1_555
C17A C18A 1_555 1_555
C18A C19A 1_555 1_555
C18A C20A 1_555 1_555
C19A H14A 1_555 1_555
C20A C21A 1_555 1_555
C20A C25A 1_555 1_555
C21A C22A 1_555 1_555
C22A C23A 1_555 1_555
C23A H17A 1_555 1_555
C23A C24A 1_555 1_555
C24A C25A 1_555 1_555
C25A H18A 1_555 1_555
O2A C1A 1_555 1_555
C5A C6A 1_555 1_555
C11A C12A 1_555 1_555

#END
