
#######################################################################
#
#                 Cambridge Crystallographic Data Centre
#                                CCDC 
#
#######################################################################
#
# If this CIF has been generated from an entry in the Cambridge 
# Structural Database, then it will include bibliographic, chemical, 
# crystal, experimental, refinement or atomic coordinate data resulting 
# from the CCDC's data processing and validation procedures.
#
#######################################################################

data_XOVVEK
_chemical_formula_moiety         '(C44 H34 N18 O19 Zn7)n'
_symmetry_cell_setting           triclinic
_symmetry_space_group_name_H-M   'P -1'
_symmetry_Int_Tables_number      2
_space_group_name_Hall           '-P 1'
loop_
_symmetry_equiv_pos_site_id
_symmetry_equiv_pos_as_xyz
1 x,y,z
2 -x,-y,-z
_cell_length_a                   9.758(4)
_cell_length_b                   11.890(4)
_cell_length_c                   15.220(6)
_cell_angle_alpha                95.544(7)
_cell_angle_beta                 99.068(7)
_cell_angle_gamma                112.874(6)
_cell_volume                     1582.29
loop_
_atom_site_label
_atom_site_type_symbol
_atom_site_fract_x
_atom_site_fract_y
_atom_site_fract_z
Zn1 Zn 0.5000 1.0000 1.0000
Zn2 Zn 0.99014(7) 1.07190(6) 0.79451(4)
Zn3 Zn 1.44287(7) 1.10923(6) 0.56858(4)
Zn4 Zn 0.89116(8) 1.18813(6) 1.16921(4)
N1 N 0.7254(5) 1.0390(5) 0.9858(3)
N2 N 0.8659(5) 1.1146(5) 1.0415(3)
N3 N 0.9071(5) 1.0692(5) 0.9062(3)
N4 N 1.1223(6) 1.0148(5) 0.7285(4)
N5 N 1.1840(6) 0.9322(5) 0.7486(3)
N6 N 1.3018(6) 1.0368(5) 0.6504(3)
N7 N 0.6181(6) 1.0619(5) 0.6061(3)
N8 N 0.6543(6) 0.9762(5) 0.5581(3)
N9 N 0.8178(6) 1.0516(5) 0.6894(3)
O1 O 0.4276(5) 0.8437(4) 0.8888(3)
O2 O 0.1998(5) 0.6925(4) 0.8324(4)
O3 O 0.1082(5) 0.2568(4) 0.8031(3)
O4 O 0.2721(6) 0.2087(4) 0.8915(4)
O5 O 0.8427(6) 0.8497(4) 0.7826(4)
O6 O 0.9041(5) 0.6905(4) 0.7726(4)
O7 O 0.5393(7) 0.2883(5) 0.6053(4)
O8 O 0.3062(7) 0.2558(5) 0.5397(4)
O9 O 0.4921(6) 1.1190(4) 0.9080(3)
C1 C 0.7576(6) 1.0155(5) 0.9070(4)
H1 H 0.6837 0.9662 0.8565
C2 C 0.9693(7) 1.1296(6) 0.9914(4)
H2 H 1.0730 1.1767 1.0129
C3 C 1.1968(8) 1.0747(6) 0.6695(4)
H3 H 1.1774 1.1366 0.6442
C4 C 1.2896(8) 0.9485(6) 0.7014(4)
H4 H 1.3495 0.9038 0.7030
C5 C 0.7201(8) 1.1045(7) 0.6831(4)
H5 H 0.7232 1.1648 0.7280
C6 C 0.7727(7) 0.9730(6) 0.6109(4)
H6 H 0.8199 0.9217 0.5954
C7 C 0.3431(7) 0.7325(5) 0.8644(4)
C8 C 0.2401(7) 0.2863(6) 0.8521(4)
C9 C 0.4013(7) 0.6335(6) 0.8732(4)
C10 C 0.3010(7) 0.5106(6) 0.8547(4)
H7 H 0.1977 0.4896 0.8345
C11 C 0.3513(7) 0.4174(5) 0.8657(4)
C12 C 0.5087(7) 0.4504(6) 0.8926(5)
H8 H 0.5439 0.3888 0.8997
C13 C 0.6120(7) 0.5737(7) 0.9089(5)
H9 H 0.7160 0.5947 0.9247
C14 C 0.5573(7) 0.6665(6) 0.9012(4)
H10 H 0.6249 0.7496 0.9146
C15 C 0.8108(7) 0.7412(6) 0.7538(4)
C16 C 0.4333(9) 0.3265(6) 0.5829(5)
C17 C 0.6564(7) 0.6588(6) 0.6966(4)
C18 C 0.6199(7) 0.5371(6) 0.6640(4)
H11 H 0.6927 0.5052 0.6760
C19 C 0.4761(7) 0.4606(6) 0.6132(4)
C20 C 0.3719(9) 0.5113(8) 0.5918(5)
H12 H 0.2767 0.4617 0.5555
C21 C 0.4062(8) 0.6330(7) 0.6231(6)
H13 H 0.3346 0.6656 0.6085
C22 C 0.5467(8) 0.7067(7) 0.6761(5)
H14 H 0.5695 0.7889 0.6987
Zn2A Zn 0.00986(7) 0.92810(6) 1.20549(4)
Zn2_2 Zn -0.00986(7) 0.07190(6) 0.79451(4)
Zn2A_2 Zn 1.00986(7) 1.92810(6) 1.20549(4)
Zn2A_3 Zn 1.00986(7) 0.92810(6) 1.20549(4)
Zn3A Zn 0.55713(7) 0.89077(6) 1.43142(4)
Zn3_2 Zn 0.44287(7) 1.10923(6) 0.56858(4)
Zn3A_2 Zn 0.55713(7) 0.89077(6) 0.43142(4)
Zn3_3 Zn 0.44287(7) 0.10923(6) 0.56858(4)
Zn3A_3 Zn 1.55713(7) 1.89077(6) 1.43142(4)
Zn3_4 Zn 0.44287(7) 1.10923(6) 1.56858(4)
Zn4A Zn 0.10884(8) 0.81187(6) 0.83079(4)
Zn4A_2 Zn 1.10884(8) 0.81187(6) 0.83079(4)
N1A N 0.2746(5) 0.9610(5) 1.0142(3)
N2A N 0.1341(5) 0.8854(5) 0.9585(3)
N3A N 0.0929(5) 0.9308(5) 1.0938(3)
N4A N 0.8777(6) 0.9852(5) 1.2715(4)
N4A_2 N -0.1223(6) 0.9852(5) 1.2715(4)
N5A N 0.8160(6) 1.0678(5) 1.2514(3)
N5_2 N 0.1840(6) 0.9322(5) 0.7486(3)
N6A N 0.6982(6) 0.9632(5) 1.3496(3)
N7A N 0.3819(6) 0.9381(5) 1.3939(3)
N7_2 N 1.6181(6) 1.0619(5) 0.6061(3)
N8A N 0.3457(6) 1.0238(5) 1.4419(3)
N8A_2 N 1.3457(6) 1.0238(5) 0.4419(3)
N8_2 N 0.6543(6) 0.9762(5) 1.5581(3)
N9A N 0.1822(6) 0.9484(5) 1.3106(3)
O1A O 0.5724(5) 1.1563(4) 1.1112(3)
O2A O 0.8002(5) 1.3075(4) 1.1676(4)
O3A O 0.8918(5) 1.7432(4) 1.1969(3)
O3_2 O 1.1082(5) 1.2568(4) 0.8031(3)
O3A_2 O -0.1082(5) 0.7432(4) 1.1969(3)
O4A O 0.7279(6) 1.7913(4) 1.1085(4)
O5A O 1.1573(6) 1.1503(4) 1.2174(4)
O5A_2 O 0.1573(6) 1.1503(4) 1.2174(4)
O6A O 1.0959(5) 1.3095(4) 1.2274(4)
O6_2 O -0.0959(5) 0.6905(4) 0.7726(4)
O7A O 1.4607(7) 1.7117(5) 1.3947(4)
O7_2 O 1.5393(7) 1.2883(5) 0.6053(4)
O7A_2 O 0.4607(7) 0.7117(5) 1.3947(4)
O8A O 1.6938(7) 1.7442(5) 1.4603(4)
O9A O 0.5079(6) 0.8810(4) 1.0920(3)
C1A C 0.2424(6) 0.9845(5) 1.0930(4)
H1A H 0.3163 1.0338 1.1435
C2A C 0.0307(7) 0.8704(6) 1.0086(4)
H2A H -0.0730 0.8233 0.9871
C3A C 0.8032(8) 0.9253(6) 1.3305(4)
H3A H 0.8226 0.8634 1.3558
C4A C 0.7104(8) 1.0515(6) 1.2986(4)
H4A H 0.6505 1.0962 1.2970
C5A C 0.2799(8) 0.8955(7) 1.3169(4)
H5A H 0.2768 0.8352 1.2720
C6A C 0.2273(7) 1.0270(6) 1.3891(4)
H6A H 0.1801 1.0783 1.4046
C7A C 0.6569(7) 1.2675(5) 1.1356(4)
C8A C 0.7599(7) 1.7137(6) 1.1479(4)
C9A C 0.5987(7) 1.3665(6) 1.1268(4)
C10A C 0.6990(7) 1.4894(6) 1.1453(4)
H7A H 0.8023 1.5104 1.1655
C11A C 0.6487(7) 1.5826(5) 1.1343(4)
C12A C 0.4913(7) 1.5496(6) 1.1074(5)
H8A H 0.4561 1.6112 1.1003
C13A C 0.3880(7) 1.4263(7) 1.0911(5)
H9A H 0.2840 1.4053 1.0753
C14A C 0.4427(7) 1.3335(6) 1.0988(4)
H10A H 0.3751 1.2504 1.0854
C15A C 1.1892(7) 1.2588(6) 1.2462(4)
C16A C 1.5667(9) 1.6735(6) 1.4171(5)
C17A C 1.3436(7) 1.3412(6) 1.3034(4)
C18A C 1.3801(7) 1.4629(6) 1.3360(4)
H11A H 1.3073 1.4948 1.3240
C19A C 1.5239(7) 1.5394(6) 1.3868(4)
C20A C 1.6281(9) 1.4887(8) 1.4082(5)
H12A H 1.7233 1.5383 1.4445
C21A C 1.5938(8) 1.3670(7) 1.3769(6)
H13A H 1.6654 1.3344 1.3915
C22A C 1.4533(8) 1.2933(7) 1.3239(5)
H14A H 1.4305 1.2111 1.3013
O10 O 0.2221(10) 0.6866(8) 0.0838(9)
loop_
_geom_bond_atom_site_label_1
_geom_bond_atom_site_label_2
_geom_bond_site_symmetry_1
_geom_bond_site_symmetry_2
Zn1 N1 1_555 1_555
Zn2 N3 1_555 1_555
Zn3 N6 1_555 1_555
Zn4 N2 1_555 1_555
N1 N2 1_555 1_555
N2 C2 1_555 1_555
N3 C1 1_555 1_555
N4 Zn2 1_555 1_555
N5 N4 1_555 1_555
N6 C3 1_555 1_555
N7 N8 1_555 1_555
N8 C6 1_555 1_555
N9 Zn2 1_555 1_555
O1 Zn1 1_555 1_555
O2 C7 1_555 1_555
O3 C8 1_555 1_555
O4 C8 1_555 1_555
O5 Zn2 1_555 1_555
O6 C15 1_555 1_555
O7 C16 1_555 1_555
O8 C16 1_555 1_555
O9 Zn1 1_555 1_555
C1 N1 1_555 1_555
H1 C1 1_555 1_555
C2 N3 1_555 1_555
H2 C2 1_555 1_555
C3 N4 1_555 1_555
H3 C3 1_555 1_555
C4 N5 1_555 1_555
H4 C4 1_555 1_555
C5 N7 1_555 1_555
H5 C5 1_555 1_555
C6 N9 1_555 1_555
H6 C6 1_555 1_555
C7 O1 1_555 1_555
C8 C11 1_555 1_555
C9 C7 1_555 1_555
C10 C9 1_555 1_555
H7 C10 1_555 1_555
C11 C10 1_555 1_555
C12 C11 1_555 1_555
H8 C12 1_555 1_555
C13 C12 1_555 1_555
H9 C13 1_555 1_555
C14 C9 1_555 1_555
H10 C14 1_555 1_555
C15 O5 1_555 1_555
C16 C19 1_555 1_555
C17 C15 1_555 1_555
C18 C17 1_555 1_555
H11 C18 1_555 1_555
C19 C18 1_555 1_555
C20 C19 1_555 1_555
H12 C20 1_555 1_555
C21 C20 1_555 1_555
H13 C21 1_555 1_555
C22 C17 1_555 1_555
H14 C22 1_555 1_555
Zn2A N3A 1_555 1_555
Zn2_2 O3 1_555 1_555
Zn2A_2 O3A 1_555 1_555
Zn2A_3 N4A 1_555 1_555
Zn3A N6A 1_555 1_555
Zn3_2 N7 1_555 1_555
Zn3A_2 N8 1_555 1_555
Zn3_3 O7 1_555 1_555
Zn3A_3 O7A 1_555 1_555
Zn3_4 N8A 1_555 1_555
Zn4A O2 1_555 1_555
Zn4A_2 N5 1_555 1_555
N1A Zn1 1_555 1_555
N2A Zn4A 1_555 1_555
N3A C1A 1_555 1_555
N4A N5A 1_555 1_555
N4A_2 Zn2A 1_555 1_555
N5A Zn4 1_555 1_555
N5_2 Zn4A 1_555 1_555
N6A C3A 1_555 1_555
N7A Zn3A 1_555 1_555
N7_2 Zn3 1_555 1_555
N8A N7A 1_555 1_555
N8A_2 Zn3 1_555 1_555
N8_2 Zn3A 1_555 1_555
N9A Zn2A 1_555 1_555
O1A Zn1 1_555 1_555
O2A Zn4 1_555 1_555
O3A C8A 1_555 1_555
O3_2 Zn2 1_555 1_555
O3A_2 Zn2A 1_555 1_555
O4A C8A 1_555 1_555
O5A Zn2A_3 1_555 1_555
O5A_2 Zn2A 1_555 1_555
O6A Zn4 1_555 1_555
O6_2 Zn4A 1_555 1_555
O7A C16A 1_555 1_555
O7_2 Zn3 1_555 1_555
O7A_2 Zn3A 1_555 1_555
O8A C16A 1_555 1_555
O9A Zn1 1_555 1_555
C1A N1A 1_555 1_555
H1A C1A 1_555 1_555
C2A N2A 1_555 1_555
H2A C2A 1_555 1_555
C3A N4A 1_555 1_555
H3A C3A 1_555 1_555
C4A N5A 1_555 1_555
H4A C4A 1_555 1_555
C5A N7A 1_555 1_555
H5A C5A 1_555 1_555
C6A N8A 1_555 1_555
H6A C6A 1_555 1_555
C7A O1A 1_555 1_555
C8A C11A 1_555 1_555
C9A C7A 1_555 1_555
C10A C9A 1_555 1_555
H7A C10A 1_555 1_555
C11A C10A 1_555 1_555
C12A C11A 1_555 1_555
H8A C12A 1_555 1_555
C13A C12A 1_555 1_555
H9A C13A 1_555 1_555
C14A C9A 1_555 1_555
H10A C14A 1_555 1_555
C15A O5A 1_555 1_555
C16A C19A 1_555 1_555
C17A C15A 1_555 1_555
C18A C17A 1_555 1_555
H11A C18A 1_555 1_555
C19A C18A 1_555 1_555
C20A C19A 1_555 1_555
H12A C20A 1_555 1_555
C21A C20A 1_555 1_555
H13A C21A 1_555 1_555
C22A C17A 1_555 1_555
H14A C22A 1_555 1_555
N6 C4 1_555 1_555
N9 C5 1_555 1_555
O6 Zn4A_2 1_555 1_555
C13 C14 1_555 1_555
C21 C22 1_555 1_555
N1A N2A 1_555 1_555
N3A C2A 1_555 1_555
N6A C4A 1_555 1_555
N9A C5A 1_555 1_555
N9A C6A 1_555 1_555
O2A C7A 1_555 1_555
O6A C15A 1_555 1_555
C13A C14A 1_555 1_555
C21A C22A 1_555 1_555

#END
