
#######################################################################
#
#                 Cambridge Crystallographic Data Centre
#                                CCDC 
#
#######################################################################
#
# If this CIF has been generated from an entry in the Cambridge 
# Structural Database, then it will include bibliographic, chemical, 
# crystal, experimental, refinement or atomic coordinate data resulting 
# from the CCDC's data processing and validation procedures.
#
#######################################################################

data_DOCKOW
_chemical_formula_moiety         '(C116 H82 Mn3 N6 O42 Zn6)n'
_symmetry_cell_setting           triclinic
_symmetry_space_group_name_H-M   'P -1'
_symmetry_Int_Tables_number      2
_space_group_name_Hall           '-P 1'
loop_
_symmetry_equiv_pos_site_id
_symmetry_equiv_pos_as_xyz
1 x,y,z
2 -x,-y,-z
_cell_length_a                   10.426(2)
_cell_length_b                   14.962(3)
_cell_length_c                   21.102(4)
_cell_angle_alpha                100.01(3)
_cell_angle_beta                 93.54(3)
_cell_angle_gamma                106.90(3)
_cell_volume                     3079.58
loop_
_atom_site_label
_atom_site_type_symbol
_atom_site_fract_x
_atom_site_fract_y
_atom_site_fract_z
Zn1 Zn 0.58434(8) 0.01513(6) 0.26206(4)
Zn2 Zn 0.82690(8) 0.67666(5) 0.49701(4)
Mn1 Mn 0.76349(9) 1.01221(7) 0.80225(5)
Mn2 Mn 1.0000 0.5000 0.5000
Zn3 Zn 1.00896(9) 1.05120(7) 0.93602(5)
O1 O 0.8602(4) -0.0233(3) -0.0075(2)
O2 O 0.9076(5) 0.9349(3) 0.7846(2)
O3 O 1.0182(5) 0.9264(3) 0.8769(2)
C1 C 0.6214(6) -0.0880(4) -0.0223(3)
O4 O 0.7576(5) -0.0272(4) -0.1012(2)
O5 O 0.8918(5) 0.7026(3) 0.5876(2)
O6 O 0.5843(5) 0.1440(3) 0.2958(3)
O7 O 1.4648(5) 0.9240(4) 0.3041(3)
O8 O 0.9639(5) 0.5765(3) 0.5918(2)
O9 O 1.2583(5) 0.9388(4) 0.2883(3)
O10 O 1.0003(5) 1.1730(4) 1.0105(3)
H1 H 1.0812 1.2096 1.0156
H2 H 0.9748 1.1613 1.0465
O11 O 0.5894(5) -0.0305(4) 0.1726(2)
O12 O 0.3964(5) 0.1198(3) 0.2321(3)
O13 O 1.0109(5) 0.6251(4) 0.4630(3)
C2 C 0.9792(7) 0.8998(5) 0.8165(3)
O14 O 0.7866(5) 0.4466(3) 0.4567(3)
N1 N 0.7078(6) 0.7655(4) 0.5025(3)
O15 O 0.6967(5) 0.5633(4) 0.4494(3)
N2 N 0.7566(6) 0.0207(5) 0.3157(3)
C3 C 1.1817(7) 0.7915(5) 0.3660(3)
H3 H 1.1368 0.8370 0.3743
C4 C 0.9701(6) 0.7768(5) 0.7176(3)
H4 H 0.9120 0.8010 0.6956
C5 C 0.7520(7) -0.0448(5) -0.0461(3)
C6 C 0.6121(6) -0.0728(5) 0.0426(3)
H5 H 0.6893 -0.0408 0.0716
O16 O 1.1258(6) 1.1434(4) 0.8875(3)
C7 C 0.4782(7) -0.0746(5) 0.1377(4)
C8 C 0.9494(7) 0.6541(5) 0.6165(3)
C9 C 1.0049(6) 0.6983(5) 0.6861(3)
C10 C 1.2866(7) 0.8063(5) 0.3286(3)
O17 O 0.9327(5) 1.1396(4) 0.8357(3)
C11 C 0.5059(7) -0.1381(5) -0.0665(3)
H6 H 0.5112 -0.1476 -0.1109
C12 C 0.4871(6) -0.1049(5) 0.0663(3)
C13 C 1.0213(7) 0.8182(5) 0.7810(3)
C14 C 1.1377(7) 1.2392(5) 0.8096(4)
C15 C 1.3376(8) 0.8963(5) 0.3046(4)
C16 C 0.4892(7) 0.1703(5) 0.2756(4)
O18 O 1.5521(6) 1.3271(5) 0.8414(4)
H7 H 1.6311 1.3572 0.8550
C17 C 0.6996(7) 0.4778(5) 0.4347(4)
C18 C 1.0584(8) 1.1678(5) 0.8466(4)
C19 C 1.0943(9) 0.6648(6) 0.7181(4)
H8 H 1.1180 0.6130 0.6970
C20 C 0.3841(7) -0.1730(5) -0.0430(4)
H9 H 0.3081 -0.2093 -0.0716
C21 C 1.2764(7) 1.2683(5) 0.8189(4)
H10 H 1.3205 1.2413 0.8462
C22 C 0.6765(9) 0.8055(7) 0.5583(4)
H11 H 0.7089 0.7920 0.5964
C23 C 0.3743(7) -0.1543(5) 0.0231(4)
H12 H 0.2910 -0.1754 0.0381
C24 C 1.1117(10) 0.7831(7) 0.8128(4)
H13 H 1.1469 0.8109 0.8557
C25 C 0.9384(7) 0.0058(6) 0.4132(4)
C26 C 1.0733(9) 1.2781(6) 0.7672(4)
H14 H 0.9795 1.2588 0.7601
C27 C 1.5038(10) 1.3727(7) 0.8036(5)
C28 C 1.1420(7) 0.7090(5) 0.3914(4)
C29 C 0.8036(7) 0.0892(5) 0.3681(4)
H15 H 0.7747 0.1430 0.3719
C30 C 0.5885(7) 0.4152(5) 0.3840(4)
C31 C 1.2053(9) 0.6399(6) 0.3764(5)
H16 H 1.1793 0.5846 0.3930
C32 C 1.3517(8) 1.3373(6) 0.7882(4)
O19 O 1.5703(7) 1.4396(5) 0.7816(4)
C33 C 1.1481(12) 1.3454(7) 0.7357(5)
H17 H 1.1046 1.3701 0.7065
C34 C 1.3504(9) 0.7366(6) 0.3134(5)
H18 H 1.4210 0.7462 0.2879
C35 C 1.0279(8) -0.0032(7) 0.4692(4)
H19 H 1.0453 -0.0640 0.4587
H20 H 1.1137 0.0466 0.4741
C36 C 0.5505(8) 0.8871(6) 0.5071(5)
C37 C 0.4656(9) 0.9546(6) 0.5092(5)
H21 H 0.3827 0.9232 0.4803
H22 H 0.4415 0.9679 0.5528
C38 C 0.8932(8) 0.0843(6) 0.4171(4)
H23 H 0.9234 0.1341 0.4529
C39 C 0.5991(10) 0.8656(7) 0.5623(5)
H24 H 0.5795 0.8918 0.6024
O20 O 0.3651(5) -0.0937(3) 0.1574(2)
C40 C 1.1494(11) 0.7071(8) 0.7812(4)
H25 H 1.2112 0.6849 0.8023
C41 C 0.5853(10) 0.8502(7) 0.4493(5)
H26 H 0.5593 0.8666 0.4110
C42 C 0.8057(9) -0.0516(7) 0.3106(5)
H27 H 0.7788 -0.0983 0.2729
C43 C 0.8937(10) -0.0627(7) 0.3574(5)
H28 H 0.9232 -0.1162 0.3514
C44 C 1.3070(10) 0.6526(7) 0.3367(5)
H29 H 1.3468 0.6047 0.3256
C45 C 0.6610(10) 0.7874(7) 0.4492(5)
H30 H 0.6800 0.7591 0.4095
C46 C 1.2852(11) 1.3757(7) 0.7471(4)
H31 H 1.3345 1.4229 0.7270
C47 C 0.5890(7) 0.3247(5) 0.3545(4)
H32 H 0.6583 0.3019 0.3675
C48 C 0.4800(7) 0.4466(5) 0.3645(4)
H33 H 0.4756 0.5059 0.3846
C49 C 0.3810(8) 0.3905(5) 0.3161(4)
H34 H 0.3116 0.4128 0.3025
C50 C 0.4880(7) 0.2678(5) 0.3061(3)
C51 C 0.3840(7) 0.3009(5) 0.2876(4)
H35 H 0.3153 0.2626 0.2555
O21 O 0.9593(5) 0.7471(3) 0.4395(2)
C52 C 1.0314(7) 0.6924(5) 0.4329(3)
Zn1A Zn 1.41566(8) 0.98487(6) 0.73794(4)
Zn1_2 Zn 1.58434(8) 1.01513(6) 0.26206(4)
Zn1A_2 Zn 1.41566(8) -0.01513(6) 0.73794(4)
Zn1A_3 Zn 0.41566(8) -0.01513(6) 0.73794(4)
Zn1_3 Zn 0.58434(8) 1.01513(6) 1.26206(4)
Zn2A Zn 1.17310(8) 0.32334(5) 0.50299(4)
Zn2A_2 Zn 0.17310(8) 1.32334(5) 0.50299(4)
Mn1A Mn 1.23651(9) -0.01221(7) 0.19775(5)
Mn1_2 Mn 0.76349(9) 0.01221(7) -0.19775(5)
Mn1A_2 Mn 1.23651(9) 0.98779(7) 0.19775(5)
Mn1A_3 Mn 0.23651(9) -0.01221(7) 0.19775(5)
Mn1_3 Mn 0.76349(9) 0.01221(7) 0.80225(5)
Mn1_4 Mn 1.76349(9) 1.01221(7) 0.80225(5)
Mn1A_4 Mn 0.23651(9) 0.98779(7) 1.19775(5)
Zn3A Zn 0.99104(9) -0.05120(7) 0.06398(5)
Zn3_2 Zn 1.00896(9) 0.05120(7) -0.06398(5)
Zn3A_2 Zn 0.99104(9) 0.94880(7) 1.06398(5)
O1_2 O 0.8602(4) 0.9767(3) 0.9925(2)
O1A O 1.1398(4) 1.0233(3) 1.0075(2)
O1A_2 O 1.1398(4) 0.0233(3) 0.0075(2)
O2A O 1.0924(5) 0.0651(3) 0.2154(2)
O3A O 0.9818(5) 0.0736(3) 0.1231(2)
C1_2 C 0.6214(6) 0.9120(4) 0.9777(3)
O4_2 O 0.7576(5) 0.9728(4) 0.8988(2)
O4A O 1.2424(5) 0.0272(4) 0.1012(2)
O5A O 1.1082(5) 0.2974(3) 0.4124(2)
O6A O 1.4157(5) 0.8560(3) 0.7042(3)
O7A O 0.5352(5) 0.0760(4) 0.6959(3)
O7_2 O 0.4648(5) -0.0760(4) 0.3041(3)
O7A_2 O 1.5352(5) 1.0760(4) 0.6959(3)
O8A O 1.0361(5) 0.4235(3) 0.4082(2)
O9A O 0.7417(5) 0.0612(4) 0.7117(3)
O9A_2 O 0.7417(5) 1.0612(4) 0.7117(3)
O9_2 O 1.2583(5) -0.0612(4) 0.2883(3)
O10A O 0.9997(5) -0.1730(4) -0.0105(3)
H1A H 0.9188 -0.2096 -0.0156
H2A H 1.0252 -0.1613 -0.0465
O11_2 O 0.5894(5) 0.9695(4) 1.1726(2)
O11A O 1.4106(5) 1.0305(4) 0.8274(2)
O12A O 1.6036(5) 0.8802(3) 0.7679(3)
O12A_2 O 0.6036(5) 0.8802(3) 0.7679(3)
O12_2 O 1.3964(5) 0.1198(3) 0.2321(3)
O13A O 0.9891(5) 0.3749(4) 0.5370(3)
C2A C 1.0208(7) 0.1002(5) 0.1835(3)
O14A O 1.2134(5) 0.5534(3) 0.5433(3)
N1A N 0.2922(6) 1.2345(4) 0.4975(3)
N1A_2 N 1.2922(6) 0.2345(4) 0.4975(3)
O15A O 1.3033(5) 0.4367(4) 0.5506(3)
N2A N 1.2434(6) -0.0207(5) 0.6843(3)
N2A_2 N 1.2434(6) 0.9793(5) 0.6843(3)
C3A C 0.8183(7) 0.2085(5) 0.6340(3)
H3A H 0.8632 0.1630 0.6257
C4A C 1.0299(6) 0.2232(5) 0.2824(3)
H4A H 1.0880 0.1990 0.3044
C5_2 C 0.7520(7) 0.9552(5) 0.9539(3)
C6_2 C 0.6121(6) 0.9272(5) 1.0426(3)
H5_2 H 0.6893 0.9592 1.0716
O16A O 0.8742(6) -0.1434(4) 0.1125(3)
C7_2 C 0.4782(7) 0.9254(5) 1.1377(4)
C8A C 1.0506(7) 0.3459(5) 0.3835(3)
C9A C 0.9951(6) 0.3017(5) 0.3139(3)
C10A C 0.7134(7) 0.1937(5) 0.6714(3)
O17A O 1.0673(5) -0.1396(4) 0.1643(3)
C11_2 C 0.5059(7) 0.8619(5) 0.9335(3)
H6_2 H 0.5112 0.8524 0.8891
C12_2 C 0.4871(6) 0.8951(5) 1.0663(3)
C13A C 0.9787(7) 0.1818(5) 0.2190(3)
C14A C 0.8623(7) -0.2392(5) 0.1904(4)
C15A C 0.6624(8) 0.1037(5) 0.6954(4)
C16A C 1.5108(7) 0.8297(5) 0.7244(4)
O18A O 0.4479(6) -0.3271(5) 0.1586(4)
H7A H 0.3689 -0.3572 0.1450
C17A C 1.3004(7) 0.5222(5) 0.5653(4)
C18A C 0.9416(8) -0.1678(5) 0.1534(4)
C19A C 0.9057(9) 0.3352(6) 0.2819(4)
H8A H 0.8820 0.3870 0.3030
C20_2 C 0.3841(7) 0.8270(5) 0.9570(4)
H9_2 H 0.3081 0.7907 0.9284
C21A C 0.7236(7) -0.2683(5) 0.1811(4)
H10A H 0.6795 -0.2413 0.1538
C22A C 0.3235(9) 1.1945(7) 0.4417(4)
H11A H 0.2911 1.2080 0.4036
C23_2 C 0.3743(7) 0.8457(5) 1.0231(4)
H12_2 H 0.2910 0.8246 1.0381
C24A C 0.8883(10) 0.2169(7) 0.1872(4)
H13A H 0.8531 0.1891 0.1443
C25A C 1.0616(7) -0.0058(6) 0.5868(4)
C26A C 0.9267(9) -0.2781(6) 0.2328(4)
H14A H 1.0205 -0.2588 0.2399
C27A C 0.4962(10) -0.3727(7) 0.1964(5)
C28A C 0.8580(7) 0.2910(5) 0.6086(4)
C29A C 1.1964(7) -0.0892(5) 0.6319(4)
H15A H 1.2253 -0.1430 0.6281
C30A C 1.4115(7) 0.5848(5) 0.6160(4)
C31A C 0.7947(9) 0.3601(6) 0.6236(5)
H16A H 0.8207 0.4154 0.6070
C32A C 0.6483(8) -0.3373(6) 0.2118(4)
O19A O 0.4297(7) -0.4396(5) 0.2184(4)
C33A C 0.8519(12) -0.3454(7) 0.2643(5)
H17A H 0.8954 -0.3701 0.2935
C34A C 0.6496(9) 0.2634(6) 0.6866(5)
H18A H 0.5790 0.2538 0.7121
C35A C 0.9721(8) 0.0032(7) 0.5308(4)
H19A H 0.9547 0.0640 0.5413
H20A H 0.8863 -0.0466 0.5259
C36A C 0.4495(8) 1.1129(6) 0.4929(5)
C37A C 0.5344(9) 1.0454(6) 0.4908(5)
H21A H 0.6173 1.0768 0.5197
H22A H 0.5585 1.0321 0.4472
C38A C 1.1068(8) -0.0843(6) 0.5829(4)
H23A H 1.0766 -0.1341 0.5471
C39A C 0.4009(10) 1.1344(7) 0.4377(5)
H24A H 0.4205 1.1082 0.3976
O20_2 O 0.3651(5) 0.9063(3) 1.1574(2)
O20A O 0.6349(5) 1.0937(3) 0.8426(2)
O20_3 O 1.3651(5) -0.0937(3) 0.1574(2)
C40A C 0.8506(11) 0.2929(8) 0.2188(4)
H25A H 0.7888 0.3151 0.1977
C41A C 0.4147(10) 1.1498(7) 0.5507(5)
H26A H 0.4407 1.1334 0.5890
C42A C 1.1943(9) 0.0516(7) 0.6894(5)
H27A H 1.2212 0.0983 0.7271
C43A C 1.1063(10) 0.0627(7) 0.6426(5)
H28A H 1.0768 0.1162 0.6486
C44A C 0.6930(10) 0.3474(7) 0.6633(5)
H29A H 0.6532 0.3953 0.6744
C45A C 0.3390(10) 1.2126(7) 0.5508(5)
H30A H 0.3200 1.2409 0.5905
C46A C 0.7148(11) -0.3757(7) 0.2529(4)
H31A H 0.6655 -0.4229 0.2730
C47A C 1.4110(7) 0.6753(5) 0.6455(4)
H32A H 1.3417 0.6981 0.6325
C48A C 1.5200(7) 0.5534(5) 0.6355(4)
H33A H 1.5244 0.4941 0.6154
C49A C 1.6190(8) 0.6095(5) 0.6839(4)
H34A H 1.6884 0.5872 0.6975
C50A C 1.5120(7) 0.7322(5) 0.6939(3)
C51A C 1.6160(7) 0.6991(5) 0.7124(4)
H35A H 1.6847 0.7374 0.7445
O21A O 1.0407(5) 0.2529(3) 0.5605(2)
C52A C 0.9686(7) 0.3076(5) 0.5671(3)
C53 C 1.1106(10) 0.6470(7) 0.1035(5)
H36 H 1.1482 0.7119 0.1049
C54 C 0.9784(10) 0.6048(7) 0.0759(5)
H37 H 0.9305 0.6405 0.0587
C55 C 0.9179(10) 0.5086(7) 0.0743(6)
N3 N 1.1872(8) 0.6029(6) 0.1278(5)
C56 C 1.1300(11) 0.5113(8) 0.1270(7)
H38 H 1.1808 0.4779 0.1446
C57 C 0.5337(9) 0.3986(6) 0.0768(5)
C58 C 0.4516(9) 0.3758(7) 0.1246(5)
H39 H 0.4862 0.3947 0.1681
C59 C 0.4746(9) 0.3667(6) 0.0144(5)
H40 H 0.5254 0.3792 -0.0196
C60 C 0.9959(11) 0.4626(8) 0.1006(7)
H41 H 0.9600 0.3981 0.1011
C61 C 0.7726(10) 0.4555(8) 0.0454(6)
H42 H 0.7469 0.4859 0.0118
H43 H 0.7657 0.3905 0.0257
C62 C 0.3398(9) 0.3162(7) 0.0017(5)
H44 H 0.3023 0.2966 -0.0414
N4 N 0.2604(7) 0.2935(5) 0.0456(4)
C63 C 0.3180(10) 0.3248(7) 0.1060(5)
H45 H 0.2638 0.3113 0.1386
C64 C 0.6806(10) 0.4547(8) 0.0947(5)
H46 H 0.6856 0.5204 0.1116
H47 H 0.7150 0.4311 0.1300
loop_
_geom_bond_atom_site_label_1
_geom_bond_atom_site_label_2
_geom_bond_site_symmetry_1
_geom_bond_site_symmetry_2
Zn1 O6 1_555 1_555
Zn2 O5 1_555 1_555
Mn1 O2 1_555 1_555
Mn2 O8 1_555 1_555
Zn3 O3 1_555 1_555
O1 C5 1_555 1_555
O2 C2 1_555 1_555
O3 C2 1_555 1_555
C1 C5 1_555 1_555
O4 C5 1_555 1_555
O5 C8 1_555 1_555
O6 C16 1_555 1_555
O7 C15 1_555 1_555
O8 C8 1_555 1_555
O9 C15 1_555 1_555
O10 Zn3 1_555 1_555
H1 O10 1_555 1_555
H2 O10 1_555 1_555
O11 Zn1 1_555 1_555
O12 C16 1_555 1_555
O13 Zn2 1_555 1_555
C2 C13 1_555 1_555
O14 Mn2 1_555 1_555
N1 Zn2 1_555 1_555
O15 Zn2 1_555 1_555
N2 Zn1 1_555 1_555
C3 H3 1_555 1_555
C4 H4 1_555 1_555
C6 C1 1_555 1_555
H5 C6 1_555 1_555
O16 Zn3 1_555 1_555
C7 O11 1_555 1_555
C8 C9 1_555 1_555
C9 C4 1_555 1_555
C10 C3 1_555 1_555
O17 Mn1 1_555 1_555
C11 C1 1_555 1_555
H6 C11 1_555 1_555
C12 C6 1_555 1_555
C13 C4 1_555 1_555
C14 C18 1_555 1_555
C15 C10 1_555 1_555
C16 C50 1_555 1_555
O18 H7 1_555 1_555
C17 O14 1_555 1_555
C18 O16 1_555 1_555
C19 C9 1_555 1_555
H8 C19 1_555 1_555
C20 C11 1_555 1_555
H9 C20 1_555 1_555
C21 C14 1_555 1_555
H10 C21 1_555 1_555
C22 N1 1_555 1_555
H11 C22 1_555 1_555
C23 C12 1_555 1_555
H12 C23 1_555 1_555
C24 C13 1_555 1_555
H13 C24 1_555 1_555
C25 C35 1_555 1_555
C26 C14 1_555 1_555
H14 C26 1_555 1_555
C27 O18 1_555 1_555
C28 C3 1_555 1_555
C29 N2 1_555 1_555
H15 C29 1_555 1_555
C30 C17 1_555 1_555
C31 C28 1_555 1_555
H16 C31 1_555 1_555
C32 C21 1_555 1_555
O19 C27 1_555 1_555
C33 C26 1_555 1_555
H17 C33 1_555 1_555
C34 C10 1_555 1_555
H18 C34 1_555 1_555
C35 H19 1_555 1_555
H20 C35 1_555 1_555
C36 C37 1_555 1_555
C37 H21 1_555 1_555
H22 C37 1_555 1_555
C38 C25 1_555 1_555
H23 C38 1_555 1_555
C39 C22 1_555 1_555
H24 C39 1_555 1_555
O20 C7 1_555 1_555
C40 C19 1_555 1_555
H25 C40 1_555 1_555
C41 C36 1_555 1_555
H26 C41 1_555 1_555
C42 N2 1_555 1_555
H27 C42 1_555 1_555
C43 C25 1_555 1_555
H28 C43 1_555 1_555
C44 C31 1_555 1_555
H29 C44 1_555 1_555
C45 N1 1_555 1_555
H30 C45 1_555 1_555
C46 C32 1_555 1_555
H31 C46 1_555 1_555
C47 C30 1_555 1_555
H32 C47 1_555 1_555
C48 C30 1_555 1_555
H33 C48 1_555 1_555
C49 C48 1_555 1_555
H34 C49 1_555 1_555
C50 C47 1_555 1_555
C51 C49 1_555 1_555
H35 C51 1_555 1_555
O21 Zn2 1_555 1_555
C52 O13 1_555 1_555
C53 H36 1_555 1_555
C54 C53 1_555 1_555
H37 C54 1_555 1_555
C55 C54 1_555 1_555
N3 C53 1_555 1_555
C56 N3 1_555 1_555
H38 C56 1_555 1_555
C57 C58 1_555 1_555
C58 H39 1_555 1_555
C59 C57 1_555 1_555
H40 C59 1_555 1_555
C60 C55 1_555 1_555
H41 C60 1_555 1_555
C61 C55 1_555 1_555
H42 C61 1_555 1_555
H43 C61 1_555 1_555
C62 C59 1_555 1_555
H44 C62 1_555 1_555
N4 C62 1_555 1_555
C63 C58 1_555 1_555
H45 C63 1_555 1_555
C64 C57 1_555 1_555
H46 C64 1_555 1_555
H47 C64 1_555 1_555
Zn1A O6A 1_555 1_555
Zn1_2 O7 1_555 1_555
Zn1A_2 N2A 1_555 1_555
Zn1A_3 O7A 1_555 1_555
Zn1_3 O11_2 1_555 1_555
Zn2A O5A 1_555 1_555
Zn2A_2 N1A 1_555 1_555
Mn1A O2A 1_555 1_555
Mn1_2 O4 1_555 1_555
Mn1A_2 O9 1_555 1_555
Mn1A_3 O12 1_555 1_555
Mn1_3 O9A 1_555 1_555
Mn1_4 O12A 1_555 1_555
Mn1A_4 O20_2 1_555 1_555
Zn3A O1 1_555 1_555
Zn3_2 O1 1_555 1_555
Zn3A_2 O1_2 1_555 1_555
O1_2 Zn3 1_555 1_555
O1A Zn3 1_555 1_555
O1A_2 Zn3A 1_555 1_555
O2A C2A 1_555 1_555
O3A Zn3A 1_555 1_555
C1_2 C5_2 1_555 1_555
O4_2 Mn1 1_555 1_555
O4A Mn1A 1_555 1_555
O5A C8A 1_555 1_555
O6A C16A 1_555 1_555
O7A C15A 1_555 1_555
O7_2 Zn1 1_555 1_555
O7A_2 Zn1A 1_555 1_555
O8A Mn2 1_555 1_555
O9A C15A 1_555 1_555
O9A_2 Mn1 1_555 1_555
O9_2 Mn1A 1_555 1_555
O10A Zn3A 1_555 1_555
H1A O10A 1_555 1_555
H2A O10A 1_555 1_555
O11_2 C7_2 1_555 1_555
O11A Zn1A 1_555 1_555
O12A C16A 1_555 1_555
O12A_2 Mn1 1_555 1_555
O12_2 Mn1A 1_555 1_555
O13A Mn2 1_555 1_555
C2A O3A 1_555 1_555
O14A Mn2 1_555 1_555
N1A C22A 1_555 1_555
N1A_2 Zn2A 1_555 1_555
O15A Zn2A 1_555 1_555
N2A C29A 1_555 1_555
N2A_2 Zn1A 1_555 1_555
C3A H3A 1_555 1_555
C4A H4A 1_555 1_555
C5_2 O1_2 1_555 1_555
C6_2 C1_2 1_555 1_555
H5_2 C6_2 1_555 1_555
O16A Zn3A 1_555 1_555
C7_2 C12_2 1_555 1_555
C8A O8A 1_555 1_555
C9A C4A 1_555 1_555
C10A C3A 1_555 1_555
O17A Mn1A 1_555 1_555
C11_2 C1_2 1_555 1_555
H6_2 C11_2 1_555 1_555
C12_2 C6_2 1_555 1_555
C13A C2A 1_555 1_555
C14A C18A 1_555 1_555
C15A C10A 1_555 1_555
C16A C50A 1_555 1_555
O18A H7A 1_555 1_555
C17A O14A 1_555 1_555
C18A O16A 1_555 1_555
C19A C9A 1_555 1_555
H8A C19A 1_555 1_555
C20_2 C11_2 1_555 1_555
H9_2 C20_2 1_555 1_555
C21A C14A 1_555 1_555
H10A C21A 1_555 1_555
C22A H11A 1_555 1_555
C23_2 C12_2 1_555 1_555
H12_2 C23_2 1_555 1_555
C24A C13A 1_555 1_555
H13A C24A 1_555 1_555
C25A C35A 1_555 1_555
C26A C14A 1_555 1_555
H14A C26A 1_555 1_555
C27A O18A 1_555 1_555
C28A C3A 1_555 1_555
C29A H15A 1_555 1_555
C30A C17A 1_555 1_555
C31A C28A 1_555 1_555
H16A C31A 1_555 1_555
C32A C21A 1_555 1_555
O19A C27A 1_555 1_555
C33A C26A 1_555 1_555
H17A C33A 1_555 1_555
C34A C10A 1_555 1_555
H18A C34A 1_555 1_555
C35A C35 1_555 1_555
H19A C35A 1_555 1_555
H20A C35A 1_555 1_555
C36A C37A 1_555 1_555
C37A C37 1_555 1_555
H21A C37A 1_555 1_555
H22A C37A 1_555 1_555
C38A C25A 1_555 1_555
H23A C38A 1_555 1_555
C39A C22A 1_555 1_555
H24A C39A 1_555 1_555
O20_2 C7_2 1_555 1_555
O20A Mn1 1_555 1_555
O20_3 Mn1A 1_555 1_555
C40A C19A 1_555 1_555
H25A C40A 1_555 1_555
C41A C36A 1_555 1_555
H26A C41A 1_555 1_555
C42A N2A 1_555 1_555
H27A C42A 1_555 1_555
C43A C25A 1_555 1_555
H28A C43A 1_555 1_555
C44A C31A 1_555 1_555
H29A C44A 1_555 1_555
C45A N1A 1_555 1_555
H30A C45A 1_555 1_555
C46A C32A 1_555 1_555
H31A C46A 1_555 1_555
C47A C30A 1_555 1_555
H32A C47A 1_555 1_555
C48A C30A 1_555 1_555
H33A C48A 1_555 1_555
C49A C48A 1_555 1_555
H34A C49A 1_555 1_555
C50A C47A 1_555 1_555
C51A C49A 1_555 1_555
H35A C51A 1_555 1_555
O21A Zn2A 1_555 1_555
C52A O13A 1_555 1_555
Mn2 O13 1_555 1_555
O15 C17 1_555 1_555
C7 C12 1_555 1_555
O17 C18 1_555 1_555
C20 C23 1_555 1_555
C24 C40 1_555 1_555
C27 C32 1_555 1_555
C28 C52 1_555 1_555
C29 C38 1_555 1_555
C33 C46 1_555 1_555
C34 C44 1_555 1_555
C36 C39 1_555 1_555
O20 Mn1A_3 1_555 1_555
C41 C45 1_555 1_555
C42 C43 1_555 1_555
C50 C51 1_555 1_555
O21 C52 1_555 1_555
C56 C60 1_555 1_555
C61 C64 1_555 1_555
N4 C63 1_555 1_555
Zn2A O13A 1_555 1_555
Zn3_2 O1A_2 1_555 1_555
Zn3A_2 O1A 1_555 1_555
O4_2 C5_2 1_555 1_555
O15A C17A 1_555 1_555
C4A C13A 1_555 1_555
C8A C9A 1_555 1_555
O17A C18A 1_555 1_555
C20_2 C23_2 1_555 1_555
C24A C40A 1_555 1_555
C27A C32A 1_555 1_555
C28A C52A 1_555 1_555
C29A C38A 1_555 1_555
C33A C46A 1_555 1_555
C34A C44A 1_555 1_555
C36A C39A 1_555 1_555
C41A C45A 1_555 1_555
C42A C43A 1_555 1_555
C50A C51A 1_555 1_555
O21A C52A 1_555 1_555

#END
