
#######################################################################
#
#                 Cambridge Crystallographic Data Centre
#                                CCDC 
#
#######################################################################
#
# If this CIF has been generated from an entry in the Cambridge 
# Structural Database, then it will include bibliographic, chemical, 
# crystal, experimental, refinement or atomic coordinate data resulting 
# from the CCDC's data processing and validation procedures.
#
#######################################################################

data_XEJTIR
_chemical_formula_moiety         '(C30 H20 Al1 Cl4 Cu1 N4 O4)n'
_symmetry_cell_setting           monoclinic
_symmetry_space_group_name_H-M   'P 21/c'
_symmetry_Int_Tables_number      14
_space_group_name_Hall           '-P 2ybc'
loop_
_symmetry_equiv_pos_site_id
_symmetry_equiv_pos_as_xyz
1 x,y,z
2 -x,1/2+y,1/2-z
3 -x,-y,-z
4 x,1/2-y,1/2+z
_cell_length_a                   12.4486(6)
_cell_length_b                   15.0360(6)
_cell_length_c                   16.5961(7)
_cell_angle_alpha                90
_cell_angle_beta                 92.074(2)
_cell_angle_gamma                90
_cell_volume                     3104.38
loop_
_atom_site_label
_atom_site_type_symbol
_atom_site_fract_x
_atom_site_fract_y
_atom_site_fract_z
Cu1 Cu -0.97741(2) 0.52137(2) -0.768510(18)
Al1 Al -0.51823(6) 0.48321(5) -0.25377(4)
O1 O -0.63096(14) 0.44938(11) -0.31018(10)
O2 O -0.44082(13) 0.55024(11) -0.31385(10)
O3 O -0.45565(14) 0.38889(12) -0.21652(11)
O4 O -0.55234(14) 0.54391(11) -0.16921(10)
N1 N -0.89007(17) 0.51758(14) 0.13453(13)
N2 N -0.05957(17) 0.86308(14) -0.27700(12)
N3 N -0.07577(19) 0.08310(15) -0.26718(14)
N4 N -0.90158(16) 0.51114(14) -0.66084(13)
C1 C -0.68317(19) 0.46267(15) -0.38059(14)
C2 C -0.6353(2) 0.50189(17) -0.44600(15)
H1 H -0.5627 0.5211 -0.4412
C3 C -0.6924(2) 0.51295(17) -0.51740(16)
H2 H -0.6587 0.5396 -0.5618
C4 C -0.7987(2) 0.48587(16) -0.52574(15)
C5 C -0.8472(2) 0.4471(2) -0.46038(17)
H3 H -0.9201 0.4284 -0.4651
C6 C -0.7897(2) 0.43586(19) -0.38875(16)
H4 H -0.8234 0.4094 -0.3442
C7 C -0.8573(2) 0.49898(16) -0.60050(15)
C8 C -0.36168(18) 0.61021(16) -0.30468(14)
C9 C -0.2927(2) 0.61182(17) -0.23704(15)
H5 H -0.3019 0.5696 -0.1953
C10 C -0.2115(2) 0.67349(17) -0.22949(16)
H6 H -0.1643 0.6734 -0.1832
C11 C -0.19857(19) 0.73639(16) -0.29045(15)
C12 C -0.2665(2) 0.73456(17) -0.35863(16)
H7 H -0.2575 0.7768 -0.4004
C13 C -0.3468(2) 0.67187(16) -0.36592(15)
H8 H -0.3924 0.6706 -0.4131
C14 C -0.1192(2) 0.80524(17) -0.28202(15)
C15 C -0.3773(2) 0.33063(16) -0.22774(15)
C16 C -0.2872(2) 0.35156(18) -0.27072(17)
H9 H -0.2800 0.4095 -0.2927
C17 C -0.2083(2) 0.28947(18) -0.28188(17)
H10 H -0.1477 0.3042 -0.3124
C18 C -0.2169(2) 0.20523(17) -0.24869(17)
C19 C -0.3049(2) 0.18540(18) -0.20416(19)
H11 H -0.3107 0.1281 -0.1805
C20 C -0.3845(2) 0.24701(18) -0.19339(17)
H12 H -0.4445 0.2323 -0.1623
C21 C -0.1364(2) 0.13872(19) -0.26007(17)
C22 C -0.6214(2) 0.53390(16) -0.11074(15)
C23 C -0.7918(2) 0.48637(17) -0.06097(16)
H13 H -0.8594 0.4581 -0.0700
C24 C -0.7209(2) 0.49222(17) -0.12249(15)
H14 H -0.7400 0.4675 -0.1737
C25 C -0.7644(2) 0.52183(17) 0.01437(15)
C26 C -0.6650(2) 0.56234(18) 0.02726(16)
H15 H -0.6455 0.5859 0.0789
C27 C -0.5948(2) 0.56842(18) -0.03445(16)
H16 H -0.5272 0.5965 -0.0251
C28 C -0.8367(2) 0.51744(17) 0.07991(16)
Cu1_2 Cu -0.97741(2) 0.52137(2) 0.231490(18)
Cu1C Cu 0.02259(2) 0.97863(2) -0.268510(18)
Cu1C_2 Cu 0.02259(2) -0.02137(2) -0.268510(18)
N1_2 N -0.89007(17) 0.51758(14) -0.86547(13)
N2C N -1.05957(17) 0.63692(14) -0.77700(12)
N3C N -1.07577(19) 0.41690(15) -0.76718(14)
C29 C -0.4425(3) 0.74550(19) -0.11771(18)
H17 H -0.4782 0.6960 -0.1475
H18 H -0.4111 0.7861 -0.1575
Cl1 Cl -0.53772(7) 0.80342(6) -0.06211(6)
Cl2 Cl -0.34025(7) 0.70320(6) -0.05314(5)
C30 C -0.0993(15) 0.2679(9) -0.0281(9)
H19 H -0.1634 0.2520 0.0024
H20 H -0.1231 0.3101 -0.0710
Cl3 Cl -0.0531(7) 0.1730(3) -0.0735(4)
Cl4 Cl -0.0079(7) 0.3233(4) 0.0375(5)
loop_
_geom_bond_atom_site_label_1
_geom_bond_atom_site_label_2
_geom_bond_site_symmetry_1
_geom_bond_site_symmetry_2
Cu1 N4 1_555 1_555
Al1 O1 1_555 1_555
O1 C1 1_555 1_555
O2 Al1 1_555 1_555
O3 Al1 1_555 1_555
O4 Al1 1_555 1_555
N1 C28 1_555 1_555
N2 C14 1_555 1_555
N3 C21 1_555 1_555
N4 C7 1_555 1_555
C1 C2 1_555 1_555
C2 H1 1_555 1_555
C3 C2 1_555 1_555
H2 C3 1_555 1_555
C4 C3 1_555 1_555
C5 C4 1_555 1_555
H3 C5 1_555 1_555
C6 C1 1_555 1_555
H4 C6 1_555 1_555
C7 C4 1_555 1_555
C8 O2 1_555 1_555
C9 C8 1_555 1_555
H5 C9 1_555 1_555
C10 C9 1_555 1_555
H6 C10 1_555 1_555
C11 C10 1_555 1_555
C12 C11 1_555 1_555
H7 C12 1_555 1_555
C13 C8 1_555 1_555
H8 C13 1_555 1_555
C14 C11 1_555 1_555
C15 O3 1_555 1_555
C16 C15 1_555 1_555
H9 C16 1_555 1_555
C17 C16 1_555 1_555
H10 C17 1_555 1_555
C18 C17 1_555 1_555
C19 C18 1_555 1_555
H11 C19 1_555 1_555
C20 C15 1_555 1_555
H12 C20 1_555 1_555
C21 C18 1_555 1_555
C22 O4 1_555 1_555
C23 H13 1_555 1_555
C24 C22 1_555 1_555
H14 C24 1_555 1_555
C25 C23 1_555 1_555
C26 C25 1_555 1_555
H15 C26 1_555 1_555
C27 C22 1_555 1_555
H16 C27 1_555 1_555
C28 C25 1_555 1_555
C29 H17 1_555 1_555
H18 C29 1_555 1_555
Cl1 C29 1_555 1_555
Cl2 C29 1_555 1_555
C30 H19 1_555 1_555
H20 C30 1_555 1_555
Cl3 C30 1_555 1_555
Cl4 C30 1_555 1_555
Cu1_2 N1 1_555 1_555
Cu1C N2 1_555 1_555
Cu1C_2 N3 1_555 1_555
N1_2 Cu1 1_555 1_555
N2C Cu1 1_555 1_555
N3C Cu1 1_555 1_555
C5 C6 1_555 1_555
C12 C13 1_555 1_555
C19 C20 1_555 1_555
C23 C24 1_555 1_555
C26 C27 1_555 1_555

#END
