
#######################################################################
#
#                 Cambridge Crystallographic Data Centre
#                                CCDC 
#
#######################################################################
#
# If this CIF has been generated from an entry in the Cambridge 
# Structural Database, then it will include bibliographic, chemical, 
# crystal, experimental, refinement or atomic coordinate data resulting 
# from the CCDC's data processing and validation procedures.
#
#######################################################################

data_ORUHAM
_chemical_formula_moiety         '(C35 H22 Cd2 N6 O9)n'
_symmetry_cell_setting           monoclinic
_symmetry_space_group_name_H-M   'P 21/c'
_symmetry_Int_Tables_number      14
_space_group_name_Hall           '-P 2ybc'
loop_
_symmetry_equiv_pos_site_id
_symmetry_equiv_pos_as_xyz
1 x,y,z
2 -x,1/2+y,1/2-z
3 -x,-y,-z
4 x,1/2-y,1/2+z
_cell_length_a                   15.477(7)
_cell_length_b                   25.656(9)
_cell_length_c                   8.289(3)
_cell_angle_alpha                90
_cell_angle_beta                 105.077(6)
_cell_angle_gamma                90
_cell_volume                     3178.08
loop_
_atom_site_label
_atom_site_type_symbol
_atom_site_fract_x
_atom_site_fract_y
_atom_site_fract_z
Cd1 Cd 0.453136(13) 0.278920(7) 0.17201(2)
Cd2 Cd 0.958401(12) 0.471589(7) 0.77039(2)
O1 O 0.57316(18) 0.32748(12) 0.3310(4)
O2 O 0.59760(19) 0.30204(12) 0.1004(3)
O3 O 0.98127(15) 0.45127(9) 0.2771(3)
O4 O 1.01199(13) 0.43177(8) 0.5483(3)
O5 O 1.03661(16) 0.40624(10) 0.9174(3)
O6 O 1.09414(15) 0.47995(8) 1.0323(3)
O7 O 1.32388(15) 0.27171(8) 1.5825(3)
O8 O 1.41535(14) 0.28073(7) 1.4218(3)
O9 O 0.53029(17) 0.20486(10) 0.2692(3)
H1 H 0.5446 0.1751 0.3128
H2 H 0.5754 0.2171 0.2415
N1 N 0.82452(16) 0.41852(9) 0.7527(3)
N2 N 0.6644(2) 0.36614(11) 0.7210(4)
N3 N 0.69215(15) 0.50411(9) 0.4301(3)
N4 N 0.83780(14) 0.49932(9) 0.5594(3)
N5 N 0.82378(15) 0.53934(9) 0.4530(3)
H3 H 0.8643 0.5600 0.4360
N6 N 0.61605(16) 0.65643(9) 0.0195(3)
C1 C 0.6217(2) 0.32395(12) 0.2364(4)
C2 C 0.71293(18) 0.34851(11) 0.2846(4)
C3 C 0.7267(2) 0.39155(13) 0.2005(4)
H4 H 0.6798 0.4052 0.1172
C4 C 0.8102(2) 0.41580(12) 0.2371(4)
H5 H 0.8185 0.4451 0.1767
C5 C 0.87980(18) 0.39723(11) 0.3600(3)
C6 C 0.96459(18) 0.42893(10) 0.3968(4)
C7 C 0.86956(18) 0.35091(10) 0.4488(3)
C8 C 0.9410(2) 0.32669(12) 0.5676(4)
H6 H 0.9978 0.3415 0.5928
C9 C 0.9270(3) 0.28207(13) 0.6447(5)
H7 H 0.9747 0.2663 0.7209
C10 C 0.8421(3) 0.25934(13) 0.6113(5)
H8 H 0.8335 0.2290 0.6665
C11 C 0.7725(2) 0.28149(11) 0.4989(5)
H9 H 0.7161 0.2663 0.4788
C12 C 0.78354(18) 0.32688(10) 0.4119(3)
C13 C 1.0941(2) 0.43110(12) 1.0252(4)
C14 C 1.16250(19) 0.39962(11) 1.1489(3)
C15 C 1.1345(2) 0.35394(13) 1.2045(4)
H10 H 1.0745 0.3445 1.1695
C16 C 1.1953(2) 0.32126(12) 1.3136(4)
H11 H 1.1749 0.2909 1.3525
C17 C 1.28346(19) 0.33338(11) 1.3631(3)
C18 C 1.34548(18) 0.29321(10) 1.4641(3)
C19 C 1.31516(18) 0.38110(10) 1.3145(3)
C20 C 1.4054(2) 0.39694(12) 1.3715(4)
H12 H 1.4457 0.3762 1.4477
C21 C 1.4342(2) 0.44190(13) 1.3165(4)
H13 H 1.4940 0.4515 1.3548
C22 C 1.3748(2) 0.47412(13) 1.2027(5)
H14 H 1.3954 0.5046 1.1645
C23 C 1.2865(2) 0.46072(12) 1.1479(4)
H15 H 1.2476 0.4822 1.0720
C24 C 1.25363(18) 0.41507(11) 1.2042(3)
C25 C 0.8188(2) 0.37722(12) 0.8442(4)
H16 H 0.8700 0.3651 0.9206
C26 C 0.7389(2) 0.35173(12) 0.8294(4)
H17 H 0.7374 0.3233 0.8983
C27 C 0.6697(2) 0.40754(12) 0.6266(4)
H18 H 0.6185 0.4191 0.5488
C28 C 0.74896(18) 0.43340(10) 0.6422(3)
C29 C 0.75754(17) 0.47912(10) 0.5421(3)
C30 C 0.73657(18) 0.54214(11) 0.3776(3)
C31 C 0.69602(19) 0.58229(10) 0.2558(3)
C32 C 0.7455(2) 0.62203(12) 0.2124(4)
H19 H 0.8067 0.6245 0.2612
C33 C 0.7026(2) 0.65812(12) 0.0950(4)
H20 H 0.7364 0.6850 0.0675
C34 C 0.5691(2) 0.61810(12) 0.0624(4)
H21 H 0.5083 0.6162 0.0101
C35 C 0.6057(2) 0.58091(12) 0.1804(4)
H22 H 0.5698 0.5552 0.2087
Cd1_2 Cd 1.453136(13) 0.278920(7) 1.17201(2)
Cd1B Cd 0.546864(13) 0.721080(7) -0.17201(2)
Cd1C Cd 1.453136(13) 0.221080(7) 1.67201(2)
Cd2B Cd 1.041599(12) 0.528411(7) 0.22961(2)
Cd2B_2 Cd 1.041599(12) 0.528411(7) 1.22961(2)
O3B O 1.01873(15) 0.54873(9) 0.7229(3)
O6B O 0.90586(15) 0.52005(8) 0.9677(3)
O7C O 0.32388(15) 0.22829(8) 0.0825(3)
O8_2 O 0.41535(14) 0.28073(7) 0.4218(3)
O8C O 0.41535(14) 0.21927(7) -0.0782(3)
N6B N 0.38395(16) 0.34357(9) -0.0195(3)
loop_
_geom_bond_atom_site_label_1
_geom_bond_atom_site_label_2
_geom_bond_site_symmetry_1
_geom_bond_site_symmetry_2
Cd1 O1 1_555 1_555
Cd2 O4 1_555 1_555
O1 C1 1_555 1_555
O2 Cd1 1_555 1_555
O3 C6 1_555 1_555
O4 C6 1_555 1_555
O5 Cd2 1_555 1_555
O6 Cd2 1_555 1_555
O7 C18 1_555 1_555
O8 C18 1_555 1_555
O9 Cd1 1_555 1_555
H1 O9 1_555 1_555
H2 O9 1_555 1_555
N1 Cd2 1_555 1_555
N2 C26 1_555 1_555
N3 C29 1_555 1_555
N4 Cd2 1_555 1_555
N5 N4 1_555 1_555
H3 N5 1_555 1_555
N6 C33 1_555 1_555
C1 O2 1_555 1_555
C2 C1 1_555 1_555
C3 C2 1_555 1_555
H4 C3 1_555 1_555
C4 C3 1_555 1_555
H5 C4 1_555 1_555
C5 C4 1_555 1_555
C6 C5 1_555 1_555
C7 C5 1_555 1_555
C8 C7 1_555 1_555
H6 C8 1_555 1_555
C9 C8 1_555 1_555
H7 C9 1_555 1_555
C10 C9 1_555 1_555
H8 C10 1_555 1_555
C11 C10 1_555 1_555
H9 C11 1_555 1_555
C12 C2 1_555 1_555
C13 O5 1_555 1_555
C14 C13 1_555 1_555
C15 C14 1_555 1_555
H10 C15 1_555 1_555
C16 C15 1_555 1_555
H11 C16 1_555 1_555
C17 C16 1_555 1_555
C18 C17 1_555 1_555
C19 C17 1_555 1_555
C20 C19 1_555 1_555
H12 C20 1_555 1_555
C21 C20 1_555 1_555
H13 C21 1_555 1_555
C22 C21 1_555 1_555
H14 C22 1_555 1_555
C23 C22 1_555 1_555
H15 C23 1_555 1_555
C24 C14 1_555 1_555
C25 N1 1_555 1_555
H16 C25 1_555 1_555
C26 C25 1_555 1_555
H17 C26 1_555 1_555
C27 N2 1_555 1_555
H18 C27 1_555 1_555
C28 N1 1_555 1_555
C29 N4 1_555 1_555
C30 N3 1_555 1_555
C31 C30 1_555 1_555
C32 C31 1_555 1_555
H19 C32 1_555 1_555
C33 C32 1_555 1_555
H20 C33 1_555 1_555
C34 N6 1_555 1_555
H21 C34 1_555 1_555
C35 C31 1_555 1_555
H22 C35 1_555 1_555
Cd1_2 O8 1_555 1_555
Cd1B N6 1_555 1_555
Cd1C O7 1_555 1_555
Cd2B O3 1_555 1_555
Cd2B_2 O6 1_555 1_555
O3B Cd2 1_555 1_555
O6B Cd2 1_555 1_555
O7C Cd1 1_555 1_555
O8_2 Cd1 1_555 1_555
O8C Cd1 1_555 1_555
N6B Cd1 1_555 1_555
O6 C13 1_555 1_555
O8 Cd1C 1_555 1_555
N5 C30 1_555 1_555
C7 C12 1_555 1_555
C11 C12 1_555 1_555
C19 C24 1_555 1_555
C23 C24 1_555 1_555
C27 C28 1_555 1_555
C28 C29 1_555 1_555
C34 C35 1_555 1_555
Cd2B_2 O6B 1_555 1_555

#END
