
#######################################################################
#
#                 Cambridge Crystallographic Data Centre
#                                CCDC 
#
#######################################################################
#
# If this CIF has been generated from an entry in the Cambridge 
# Structural Database, then it will include bibliographic, chemical, 
# crystal, experimental, refinement or atomic coordinate data resulting 
# from the CCDC's data processing and validation procedures.
#
#######################################################################

data_JUHNIL
_chemical_formula_moiety         '(C36 H26 Cu6 N4 O33)n'
_symmetry_cell_setting           orthorhombic
_symmetry_space_group_name_H-M   'P n m a'
_symmetry_Int_Tables_number      62
_space_group_name_Hall           '-P 2ac 2n'
loop_
_symmetry_equiv_pos_site_id
_symmetry_equiv_pos_as_xyz
1 x,y,z
2 1/2-x,-y,1/2+z
3 1/2+x,1/2-y,1/2-z
4 -x,1/2+y,-z
5 -x,-y,-z
6 1/2+x,y,1/2-z
7 1/2-x,1/2+y,1/2+z
8 x,1/2-y,z
_cell_length_a                   19.348(2)
_cell_length_b                   21.1104(19)
_cell_length_c                   19.8221(19)
_cell_angle_alpha                90
_cell_angle_beta                 90
_cell_angle_gamma                90
_cell_volume                     8096.22
loop_
_atom_site_label
_atom_site_type_symbol
_atom_site_fract_x
_atom_site_fract_y
_atom_site_fract_z
Cu1 Cu -0.05614(4) 0.7500 0.93946(5)
Cu2 Cu -0.15870(4) 0.7500 0.84994(5)
Cu3 Cu -0.09902(5) 0.7500 0.60988(5)
Cu4 Cu 0.01691(3) 1.05911(3) 0.51328(3)
Cu5 Cu 0.37708(5) 1.2500 1.10258(5)
C1 C -0.0495(3) 0.8359(2) 0.8279(3)
C2 C -0.0139(3) 0.8901(2) 0.7928(3)
C3 C 0.0331(3) 0.9254(2) 0.8303(3)
H1 H 0.0435 0.9134 0.8743
C4 C 0.0646(3) 0.9783(3) 0.8024(3)
C5 C 0.0504(2) 0.9958(2) 0.7366(3)
H2 H 0.0703 1.0322 0.7187
C6 C 0.0068(3) 0.9593(2) 0.6972(3)
C7 C 0.0025(2) 0.9741(3) 0.6235(3)
C8 C -0.0273(2) 0.9063(2) 0.7256(3)
C9 C -0.0770(3) 0.8671(2) 0.6832(3)
C10 C 0.1672(3) 1.1655(2) 1.0364(3)
C11 C 0.2019(3) 1.1132(2) 0.9987(3)
C12 C 0.1625(3) 1.0782(2) 0.9530(3)
H3 H 0.1177 1.0910 0.9427
C13 C 0.1898(3) 1.0247(3) 0.9229(3)
C14 C 0.2566(3) 1.0053(3) 0.9385(3)
H4 H 0.2739 0.9677 0.9209
C15 C 0.2973(3) 1.0422(2) 0.9805(3)
C16 C 0.3720(3) 1.0239(3) 0.9903(3)
C17 C 0.2714(2) 1.0961(2) 1.0114(3)
C18 C 0.3168(3) 1.1309(2) 1.0606(3)
N1 N 0.1104(2) 1.0173(2) 0.8413(2)
N2 N 0.1491(2) 0.9865(2) 0.8796(2)
O1 O -0.01974(19) 0.81582(17) 0.8796(2)
O2 O -0.10571(18) 0.81662(16) 0.80394(19)
O3 O -0.05333(17) 0.81369(15) 0.66434(18)
O4 O -0.13498(17) 0.88940(17) 0.6690(2)
O5 O -0.01267(18) 0.92967(16) 0.58469(18)
O6 O 0.01629(18) 1.03009(16) 0.60721(18)
O7 O 0.11080(19) 1.18599(18) 1.0123(2)
O8 O 0.19469(17) 1.18374(16) 1.09063(19)
O9 O 0.33439(17) 1.18685(16) 1.04403(18)
O10 O 0.33451(19) 1.10215(17) 1.1117(2)
O11 O 0.41547(17) 1.06825(16) 0.9815(2)
O12 O 0.38603(17) 0.96758(18) 1.0032(2)
O13 O 0.0281(3) 0.7500 1.0083(3)
H5 H 0.0718 0.7500 1.0023
H6 H 0.0136 0.7500 1.0485
O14 O -0.2478(3) 0.7500 0.7829(4)
O15 O -0.1510(2) 0.8150(2) 0.5613(3)
H7 H -0.1451 0.8119 0.5193
H8 H -0.1929 0.8143 0.5756
O16 O 0.41258(17) 1.31235(16) 1.16563(19)
H9 H 0.4565 1.3132 1.1638
H10 H 0.3923 1.3460 1.1519
O17 O 0.0022(3) 0.7500 0.5414(3)
O18 O 0.0423(2) 1.1551(2) 0.5356(2)
H11 H 0.0444 1.1619 0.5798
H12 H 0.0111 1.1818 0.5189
H13 H -0.2493 0.7867 0.7485
H13G H -0.2493 0.7133 0.7485
Cu4D Cu -0.01691(3) 0.94089(3) 0.48672(3)
C1D C 0.0495(3) 1.1641(2) 0.1721(3)
C2D C 0.0139(3) 1.1099(2) 0.2072(3)
C3D C -0.0331(3) 1.0746(2) 0.1697(3)
H1D H -0.0435 1.0866 0.1257
C4D C -0.0646(3) 1.0217(3) 0.1976(3)
C5D C -0.0504(2) 1.0042(2) 0.2634(3)
H2D H -0.0703 0.9678 0.2813
C6D C -0.0068(3) 1.0407(2) 0.3028(3)
C7D C -0.0025(2) 1.0259(3) 0.3765(3)
C8D C 0.0273(2) 1.0937(2) 0.2744(3)
C9D C 0.0770(3) 1.1329(2) 0.3168(3)
C10D C -0.1672(3) 0.8345(2) -0.0364(3)
C11D C -0.2019(3) 0.8868(2) 0.0013(3)
C12D C -0.1625(3) 0.9218(2) 0.0470(3)
H3D H -0.1177 0.9090 0.0573
C13D C -0.1898(3) 0.9753(3) 0.0771(3)
C14D C -0.2566(3) 0.9947(3) 0.0615(3)
H4D H -0.2739 1.0323 0.0791
C15D C -0.2973(3) 0.9578(2) 0.0195(3)
C16D C -0.3720(3) 0.9761(3) 0.0097(3)
C17D C -0.2714(2) 0.9039(2) -0.0114(3)
C18D C -0.3168(3) 0.8691(2) -0.0606(3)
N1D N -0.1104(2) 0.9827(2) 0.1587(2)
N2D N -0.1491(2) 1.0135(2) 0.1204(2)
O1D O 0.01974(19) 1.18418(17) 0.1204(2)
O2D O 0.10571(18) 1.18338(16) 0.19606(19)
O3D O 0.05333(17) 1.18631(15) 0.33566(18)
O4D O 0.13498(17) 1.11060(17) 0.3310(2)
O5D O 0.01267(18) 1.07033(16) 0.41531(18)
O6D O -0.01629(18) 0.96991(16) 0.39279(18)
O7D O -0.11080(19) 0.81401(18) -0.0123(2)
O8D O -0.19469(17) 0.81626(16) -0.09063(19)
O9D O -0.33439(17) 0.81315(16) -0.04403(18)
O10D O -0.33451(19) 0.89785(17) -0.1117(2)
O11D O -0.41547(17) 0.93175(16) 0.0185(2)
O12D O -0.38603(17) 1.03242(18) -0.0032(2)
O18D O -0.0423(2) 0.8449(2) 0.4644(2)
H11D H -0.0444 0.8381 0.4202
H12D H -0.0111 0.8182 0.4811
O15G O -0.1510(2) 0.6850(2) 0.5613(3)
H7G H -0.1451 0.6881 0.5193
H8G H -0.1929 0.6857 0.5756
O16G O 0.41258(17) 1.18765(16) 1.16563(19)
H9G H 0.4565 1.1868 1.1638
H10G H 0.3923 1.1540 1.1519
Cu1_2 Cu -0.05614(4) 0.7500 -0.06054(5)
Cu1C Cu 0.05614(4) 1.2500 0.06054(5)
Cu1C_2 Cu 0.05614(4) 1.2500 1.06054(5)
Cu2_2 Cu -0.15870(4) 0.7500 -0.15006(5)
Cu2C Cu 0.15870(4) 1.2500 0.15006(5)
Cu2C_2 Cu 0.15870(4) 1.2500 1.15006(5)
Cu3C Cu 0.09902(5) 1.2500 0.39012(5)
Cu4A Cu -0.51691(3) 0.94089(3) 0.01328(3)
Cu4A_2 Cu 0.48309(3) 0.94089(3) 1.01328(3)
Cu4E Cu -0.48309(3) 1.05911(3) -0.01328(3)
Cu4E_2 Cu 0.51691(3) 1.05911(3) 0.98672(3)
Cu5A Cu 0.12292(5) 0.7500 0.60258(5)
Cu5C Cu -0.37708(5) 0.7500 -0.10258(5)
O1G O -0.01974(19) 0.68418(17) 0.8796(2)
O2G O -0.10571(18) 0.68338(16) 0.80394(19)
O3G O -0.05333(17) 0.68631(15) 0.66434(18)
O7C O -0.11080(19) 0.68599(18) 0.9877(2)
O7D_2 O -0.11080(19) 0.81401(18) 0.9877(2)
O8C O -0.19469(17) 0.68374(16) 0.90937(19)
O8D_2 O -0.19469(17) 0.81626(16) 0.90937(19)
O9G O 0.33439(17) 1.31315(16) 1.04403(18)
O11A O 0.08453(17) 0.93175(16) 0.4815(2)
O11E O -0.08453(17) 1.06825(16) 0.5185(2)
O12A O 0.11397(17) 1.03242(18) 0.5032(2)
O12E O -0.11397(17) 0.96758(18) 0.4968(2)
O17A O 0.4978(3) 1.2500 1.0414(3)
loop_
_geom_bond_atom_site_label_1
_geom_bond_atom_site_label_2
_geom_bond_site_symmetry_1
_geom_bond_site_symmetry_2
Cu1 Cu2 1_555 1_555
Cu2 O2 1_555 1_555
Cu3 O3 1_555 1_555
Cu4 O6 1_555 1_555
Cu5 O9 1_555 1_555
C1 C2 1_555 1_555
C2 C3 1_555 1_555
C3 H1 1_555 1_555
C4 C3 1_555 1_555
C5 C4 1_555 1_555
H2 C5 1_555 1_555
C6 C5 1_555 1_555
C7 C6 1_555 1_555
C8 C2 1_555 1_555
C9 C8 1_555 1_555
C10 C11 1_555 1_555
C11 C12 1_555 1_555
C12 H3 1_555 1_555
C13 C12 1_555 1_555
C14 C13 1_555 1_555
H4 C14 1_555 1_555
C15 C14 1_555 1_555
C16 C15 1_555 1_555
C17 C11 1_555 1_555
C18 C17 1_555 1_555
N1 C4 1_555 1_555
N2 C13 1_555 1_555
O1 Cu1 1_555 1_555
O2 C1 1_555 1_555
O3 C9 1_555 1_555
O4 C9 1_555 1_555
O5 C7 1_555 1_555
O6 C7 1_555 1_555
O7 C10 1_555 1_555
O8 C10 1_555 1_555
O9 C18 1_555 1_555
O10 C18 1_555 1_555
O11 C16 1_555 1_555
O12 C16 1_555 1_555
O13 Cu1 1_555 1_555
H5 O13 1_555 1_555
H6 O13 1_555 1_555
O14 Cu2 1_555 1_555
O15 Cu3 1_555 1_555
H7 O15 1_555 1_555
H8 O15 1_555 1_555
O16 Cu5 1_555 1_555
H9 O16 1_555 1_555
H10 O16 1_555 1_555
O17 Cu3 1_555 1_555
O18 Cu4 1_555 1_555
H11 O18 1_555 1_555
H12 O18 1_555 1_555
H13 O14 1_555 1_555
H13G O14 1_555 1_555
Cu4D Cu4 1_555 1_555
C1D C2D 1_555 1_555
C2D C3D 1_555 1_555
C3D H1D 1_555 1_555
C4D C3D 1_555 1_555
C5D C4D 1_555 1_555
H2D C5D 1_555 1_555
C6D C5D 1_555 1_555
C7D C6D 1_555 1_555
C8D C2D 1_555 1_555
C9D C8D 1_555 1_555
C10D C11D 1_555 1_555
C11D C12D 1_555 1_555
C12D H3D 1_555 1_555
C13D C12D 1_555 1_555
C14D C13D 1_555 1_555
H4D C14D 1_555 1_555
C15D C14D 1_555 1_555
C16D C15D 1_555 1_555
C17D C11D 1_555 1_555
C18D C17D 1_555 1_555
N1D C4D 1_555 1_555
N2D C13D 1_555 1_555
O1D C1D 1_555 1_555
O2D C1D 1_555 1_555
O3D C9D 1_555 1_555
O4D C9D 1_555 1_555
O5D Cu4 1_555 1_555
O6D Cu4D 1_555 1_555
O7D C10D 1_555 1_555
O8D C10D 1_555 1_555
O9D C18D 1_555 1_555
O10D C18D 1_555 1_555
O11D C16D 1_555 1_555
O12D C16D 1_555 1_555
O18D Cu4D 1_555 1_555
H11D O18D 1_555 1_555
H12D O18D 1_555 1_555
O15G Cu3 1_555 1_555
H7G O15G 1_555 1_555
H8G O15G 1_555 1_555
O16G Cu5 1_555 1_555
H9G O16G 1_555 1_555
H10G O16G 1_555 1_555
Cu1_2 O7D 1_555 1_555
Cu1C O1D 1_555 1_555
Cu1C_2 O7 1_555 1_555
Cu2_2 O8D 1_555 1_555
Cu2C O2D 1_555 1_555
Cu2C_2 O8 1_555 1_555
Cu3C O3D 1_555 1_555
Cu4A O11D 1_555 1_555
Cu4A_2 O12 1_555 1_555
Cu4E O12D 1_555 1_555
Cu4E_2 O11 1_555 1_555
Cu5A O17 1_555 1_555
Cu5C O9D 1_555 1_555
O1G Cu1 1_555 1_555
O2G Cu2 1_555 1_555
O3G Cu3 1_555 1_555
O7C Cu1 1_555 1_555
O7D_2 Cu1 1_555 1_555
O8C Cu2 1_555 1_555
O8D_2 Cu2 1_555 1_555
O9G Cu5 1_555 1_555
O11A Cu4D 1_555 1_555
O11E Cu4 1_555 1_555
O12A Cu4 1_555 1_555
O12E Cu4D 1_555 1_555
O17A Cu5 1_555 1_555
C1 O1 1_555 1_555
C6 C8 1_555 1_555
C15 C17 1_555 1_555
N1 N2 1_555 1_555
O5 Cu4D 1_555 1_555
C6D C8D 1_555 1_555
C7D O5D 1_555 1_555
C7D O6D 1_555 1_555
C15D C17D 1_555 1_555
N1D N2D 1_555 1_555
Cu1_2 Cu2_2 1_555 1_555
Cu1C Cu2C 1_555 1_555
Cu1C_2 Cu2C_2 1_555 1_555
Cu4A Cu4E 1_555 1_555
Cu4A_2 Cu4E_2 1_555 1_555

#END
