
#######################################################################
#
#                 Cambridge Crystallographic Data Centre
#                                CCDC 
#
#######################################################################
#
# If this CIF has been generated from an entry in the Cambridge 
# Structural Database, then it will include bibliographic, chemical, 
# crystal, experimental, refinement or atomic coordinate data resulting 
# from the CCDC's data processing and validation procedures.
#
#######################################################################

data_JUHNOR
_chemical_formula_moiety         'C72 H48 Cu31 N8 O91'
_symmetry_cell_setting           monoclinic
_symmetry_space_group_name_H-M   'C 2/c'
_symmetry_Int_Tables_number      15
_space_group_name_Hall           '-C 2yc'
loop_
_symmetry_equiv_pos_site_id
_symmetry_equiv_pos_as_xyz
1 x,y,z
2 -x,y,1/2-z
3 1/2+x,1/2+y,z
4 1/2-x,1/2+y,1/2-z
5 -x,-y,-z
6 x,-y,1/2+z
7 1/2-x,1/2-y,-z
8 1/2+x,1/2-y,1/2+z
_cell_length_a                   29.303(3)
_cell_length_b                   16.8527(8)
_cell_length_c                   26.7132(17)
_cell_angle_alpha                90
_cell_angle_beta                 105.027(8)
_cell_angle_gamma                90
_cell_volume                     12740.8
loop_
_atom_site_label
_atom_site_type_symbol
_atom_site_fract_x
_atom_site_fract_y
_atom_site_fract_z
Cu1 Cu 1.0000 0.36306(7) 0.7500
Cu2 Cu 0.87948(3) 0.44676(5) 0.52183(3)
Cu3 Cu 0.97204(3) 0.17881(5) 0.54207(3)
Cu4 Cu 0.60532(3) 0.66470(5) 0.89744(3)
Cu5 Cu 0.7500 0.7500 0.5000
Cu6 Cu 0.86266(3) 0.73463(5) 0.50613(3)
Cu7 Cu 0.70319(3) 0.59593(4) 0.52951(3)
O1 O 0.95077(16) 0.4445(3) 0.74544(17)
O2 O 0.95480(17) 0.4386(3) 0.66453(17)
O3 O 0.95039(17) 0.6084(3) 0.63023(18)
O4 O 0.90970(17) 0.5390(3) 0.56277(17)
O5 O 0.85732(15) 0.6811(3) 0.56935(16)
O6 O 0.78133(15) 0.6460(3) 0.54995(16)
O7 O 0.75049(15) 0.3066(2) 0.93284(15)
O8 O 0.82373(16) 0.3554(3) 0.94780(17)
O9 O 0.71706(16) 0.4567(3) 0.96976(17)
O10 O 0.65536(16) 0.4116(3) 0.90827(17)
O11 O 0.65546(16) 0.5926(3) 0.88576(17)
O12 O 0.6366(2) 0.5853(4) 0.79938(19)
O13 O 1.18873(16) 0.1438(3) 0.59005(16)
O14 O 1.12062(15) 0.2009(3) 0.54853(16)
O15 O 1.0330(2) 0.1748(4) 0.5934(2)
O16 O 1.04828(16) 0.2992(3) 0.57433(17)
O17 O 1.01784(16) 0.2947(3) 0.66903(17)
O18 O 1.04992(15) 0.2852(3) 0.75268(16)
O19 O 1.28143(16) 0.4971(3) 0.93376(16)
O20 O 1.35793(18) 0.4723(3) 0.9654(2)
O21 O 1.35926(16) 0.3265(3) 1.02859(17)
O22 O 1.41467(16) 0.3101(3) 0.98490(17)
O23 O 1.36541(17) 0.1503(3) 0.98074(18)
O24 O 1.3528(2) 0.1042(3) 0.89983(19)
O25 O 0.8996(2) 0.3760(3) 0.58051(19)
H1 H 0.9104 0.3332 0.5717
H2 H 0.9154 0.3979 0.6084
O26 O 0.87605(17) 0.5136(3) 0.46119(17)
H3 H 0.8591 0.5535 0.4625
H4 H 0.8656 0.4786 0.4383
O27 O 0.8023(2) 0.4521(4) 0.5239(3)
H5 H 0.7781 0.4530 0.4983
H6 H 0.8065 0.4100 0.5424
O28 O 1.0023(2) 0.1278(4) 0.4926(2)
H7 H 0.9890 0.0985 0.4668
H8 H 1.0320 0.1211 0.5046
O29 O 0.5704(2) 0.6604(4) 0.8233(2)
H9 H 0.5660 0.7076 0.8126
H10 H 0.5921 0.6342 0.8146
O30 O 0.6600(2) 0.7662(4) 0.8844(2)
H11 H 0.6330 0.7886 0.8719
H12 H 0.6718 0.7741 0.9173
O31 O 0.92262(15) 0.6777(3) 0.51240(16)
H13 H 0.9245 0.6320 0.5266
H14 H 0.9340 0.6795 0.4857
O32 O 0.68903(14) 0.6951(2) 0.49046(16)
O33 O 0.9424(2) 0.2356(4) 0.5884(2)
O34 O 0.9401(2) 0.0614(4) 0.5695(2)
H15 H 0.9141 0.0456 0.5752
H16 H 0.9523 0.0292 0.5519
N1 N 0.7809(2) 0.5294(3) 0.7303(2)
N2 N 0.7983(2) 0.4940(4) 0.7722(2)
N3 N 1.2236(2) 0.2359(4) 0.7715(2)
N4 N 1.2232(2) 0.2914(4) 0.8023(2)
C1 C 0.9349(2) 0.4603(4) 0.6987(3)
C2 C 0.8898(2) 0.5050(4) 0.6828(3)
C3 C 0.8577(2) 0.4958(4) 0.7119(2)
H17 H 0.8653 0.4638 0.7413
C4 C 0.8138(2) 0.5341(4) 0.6979(2)
C5 C 0.8019(2) 0.5789(4) 0.6538(2)
H18 H 0.7724 0.6031 0.6438
C6 C 0.8341(2) 0.5885(4) 0.6235(2)
C7 C 0.8224(2) 0.6425(4) 0.5768(2)
C8 C 0.8782(2) 0.5522(4) 0.6381(2)
C9 C 0.9155(3) 0.5674(4) 0.6079(3)
C10 C 0.7807(2) 0.3558(4) 0.9252(2)
C11 C 0.7624(2) 0.4190(4) 0.8846(2)
C12 C 0.7867(2) 0.4326(4) 0.8470(2)
H19 H 0.8145 0.4052 0.8484
C13 C 0.7697(2) 0.4866(4) 0.8077(2)
C14 C 0.7293(3) 0.5299(4) 0.8065(3)
H20 H 0.7180 0.5663 0.7800
C15 C 0.7056(2) 0.5194(4) 0.8444(3)
C16 C 0.6620(3) 0.5699(4) 0.8431(3)
C17 C 0.7216(2) 0.4632(4) 0.8834(2)
C18 C 0.6946(2) 0.4435(4) 0.9230(3)
C19 C 1.1519(2) 0.1826(4) 0.5884(2)
C20 C 1.1454(2) 0.2080(4) 0.6401(2)
C21 C 1.1847(2) 0.2072(4) 0.6824(2)
H21 H 1.2135 0.1888 0.6786
C22 C 1.1812(2) 0.2339(4) 0.7307(3)
C23 C 1.1378(2) 0.2561(4) 0.7378(2)
H22 H 1.1353 0.2725 0.7702
C24 C 1.0976(2) 0.2538(4) 0.6956(2)
C25 C 1.0508(2) 0.2780(4) 0.7054(2)
C26 C 1.1016(2) 0.2336(4) 0.6461(3)
C27 C 1.0578(2) 0.2384(4) 0.6004(2)
C28 C 1.3173(3) 0.4531(4) 0.9412(2)
C29 C 1.3077(2) 0.3718(4) 0.9177(3)
C30 C 1.2712(2) 0.3647(4) 0.8732(3)
H23 H 1.2520 0.4081 0.8609
C31 C 1.2632(2) 0.2929(4) 0.8468(3)
C32 C 1.2907(2) 0.2274(4) 0.8662(3)
H24 H 1.2851 0.1793 0.8486
C33 C 1.3263(2) 0.2332(4) 0.9113(2)
C34 C 1.3508(2) 0.1564(4) 0.9318(3)
C35 C 1.3356(2) 0.3051(4) 0.9378(3)
C36 C 1.3729(2) 0.3139(4) 0.9884(3)
Cu2A Cu 1.12052(3) 0.44676(5) 0.97817(3)
Cu3A Cu 1.02796(3) 0.17881(5) 0.95793(3)
Cu4A Cu 1.39468(3) 0.66470(5) 0.60256(3)
Cu6A Cu 1.13734(3) 0.73463(5) 0.99387(3)
Cu7A Cu 1.29681(3) 0.59593(4) 0.97049(3)
O1A O 1.04923(16) 0.4445(3) 0.75456(17)
O2A O 1.04520(17) 0.4386(3) 0.83547(17)
O3A O 1.04961(17) 0.6084(3) 0.86977(18)
O4A O 1.09030(17) 0.5390(3) 0.93723(17)
O5A O 1.14268(15) 0.6811(3) 0.93065(16)
O6A O 1.21867(15) 0.6460(3) 0.95005(16)
O7A O 1.24951(15) 0.3066(2) 0.56716(15)
O8A O 1.17627(16) 0.3554(3) 0.55220(17)
O9A O 1.28294(16) 0.4567(3) 0.53024(17)
O10A O 1.34464(16) 0.4116(3) 0.59173(17)
O11A O 1.34454(16) 0.5926(3) 0.61424(17)
O12A O 1.3634(2) 0.5853(4) 0.70062(19)
O13A O 0.81127(16) 0.1438(3) 0.90995(16)
O14A O 0.87938(15) 0.2009(3) 0.95147(16)
O15A O 0.9670(2) 0.1748(4) 0.9066(2)
O16A O 0.95172(16) 0.2992(3) 0.92567(17)
O17A O 0.98216(16) 0.2947(3) 0.83097(17)
O18A O 0.95008(15) 0.2852(3) 0.74732(16)
O19A O 0.71857(16) 0.4971(3) 0.56624(16)
O20A O 0.64207(18) 0.4723(3) 0.5346(2)
O21A O 0.64074(16) 0.3265(3) 0.47141(17)
O22A O 0.58533(16) 0.3101(3) 0.51510(17)
O23A O 0.63459(17) 0.1503(3) 0.51926(18)
O24A O 0.6472(2) 0.1042(3) 0.60017(19)
O25A O 1.1004(2) 0.3760(3) 0.91949(19)
H1A H 1.0896 0.3332 0.9283
H2A H 1.0846 0.3979 0.8916
O26A O 1.12395(17) 0.5136(3) 1.03881(17)
H3A H 1.1409 0.5535 1.0375
H4A H 1.1344 0.4786 1.0617
O27A O 1.1977(2) 0.4521(4) 0.9761(3)
H5A H 1.2219 0.4530 1.0017
H6A H 1.1935 0.4100 0.9576
O28A O 0.9977(2) 0.1278(4) 1.0074(2)
H7A H 1.0110 0.0985 1.0332
H8A H 0.9680 0.1211 0.9954
O29A O 1.4296(2) 0.6604(4) 0.6767(2)
H9A H 1.4340 0.7076 0.6874
H10A H 1.4079 0.6342 0.6854
O30A O 1.3400(2) 0.7662(4) 0.6156(2)
H11A H 1.3670 0.7886 0.6281
H12A H 1.3282 0.7741 0.5827
O31A O 1.07738(15) 0.6777(3) 0.98760(16)
H13A H 1.0755 0.6320 0.9734
H14A H 1.0660 0.6795 1.0143
O32A O 1.31097(14) 0.6951(2) 1.00954(16)
O33A O 1.0576(2) 0.2356(4) 0.9116(2)
O34A O 1.0599(2) 0.0614(4) 0.9305(2)
H15A H 1.0859 0.0456 0.9248
H16A H 1.0477 0.0292 0.9481
N1A N 1.2191(2) 0.5294(3) 0.7697(2)
N2A N 1.2017(2) 0.4940(4) 0.7278(2)
N3A N 0.7764(2) 0.2359(4) 0.7285(2)
N4A N 0.7768(2) 0.2914(4) 0.6977(2)
C1A C 1.0651(2) 0.4603(4) 0.8013(3)
C2A C 1.1102(2) 0.5050(4) 0.8172(3)
C3A C 1.1423(2) 0.4958(4) 0.7881(2)
H17A H 1.1347 0.4638 0.7587
C4A C 1.1862(2) 0.5341(4) 0.8021(2)
C5A C 1.1981(2) 0.5789(4) 0.8462(2)
H18A H 1.2276 0.6031 0.8562
C6A C 1.1659(2) 0.5885(4) 0.8765(2)
C7A C 1.1776(2) 0.6425(4) 0.9232(2)
C8A C 1.1218(2) 0.5522(4) 0.8619(2)
C9A C 1.0845(3) 0.5674(4) 0.8921(3)
C10A C 1.2193(2) 0.3558(4) 0.5748(2)
C11A C 1.2376(2) 0.4190(4) 0.6154(2)
C12A C 1.2133(2) 0.4326(4) 0.6530(2)
H19A H 1.1855 0.4052 0.6516
C13A C 1.2303(2) 0.4866(4) 0.6923(2)
C14A C 1.2707(3) 0.5299(4) 0.6935(3)
H20A H 1.2820 0.5663 0.7200
C15A C 1.2944(2) 0.5194(4) 0.6556(3)
C16A C 1.3380(3) 0.5699(4) 0.6569(3)
C17A C 1.2784(2) 0.4632(4) 0.6166(2)
C18A C 1.3054(2) 0.4435(4) 0.5770(3)
C19A C 0.8481(2) 0.1826(4) 0.9116(2)
C20A C 0.8546(2) 0.2080(4) 0.8599(2)
C21A C 0.8153(2) 0.2072(4) 0.8176(2)
H21A H 0.7865 0.1888 0.8214
C22A C 0.8188(2) 0.2339(4) 0.7693(3)
C23A C 0.8622(2) 0.2561(4) 0.7622(2)
H22A H 0.8647 0.2725 0.7298
C24A C 0.9024(2) 0.2538(4) 0.8044(2)
C25A C 0.9492(2) 0.2780(4) 0.7946(2)
C26A C 0.8984(2) 0.2336(4) 0.8539(3)
C27A C 0.9422(2) 0.2384(4) 0.8996(2)
C28A C 0.6827(3) 0.4531(4) 0.5588(2)
C29A C 0.6923(2) 0.3718(4) 0.5823(3)
C30A C 0.7288(2) 0.3647(4) 0.6268(3)
H23A H 0.7480 0.4081 0.6391
C31A C 0.7368(2) 0.2929(4) 0.6532(3)
C32A C 0.7093(2) 0.2274(4) 0.6338(3)
H24A H 0.7149 0.1793 0.6514
C33A C 0.6737(2) 0.2332(4) 0.5887(2)
C34A C 0.6492(2) 0.1564(4) 0.5682(3)
C35A C 0.6644(2) 0.3051(4) 0.5622(3)
C36A C 0.6271(2) 0.3139(4) 0.5116(3)
Cu2F Cu 0.62052(3) 0.05324(5) 0.47817(3)
Cu2G Cu 1.37948(3) 0.05324(5) 1.02183(3)
Cu3F Cu 0.52796(3) 0.32119(5) 0.45793(3)
Cu3G Cu 1.47204(3) 0.32119(5) 1.04207(3)
Cu4B Cu 1.10532(3) 0.16470(5) 0.89744(3)
Cu4C Cu 0.89468(3) 0.16470(5) 0.60256(3)
Cu4D Cu 1.39468(3) 0.33530(5) 1.10256(3)
Cu4E Cu 0.60532(3) 0.33530(5) 0.39744(3)
Cu5A Cu 1.2500 0.7500 1.0000
Cu5B Cu 1.2500 0.2500 0.5000
Cu5C Cu 0.7500 0.2500 1.0000
Cu6D Cu 1.13734(3) 0.26537(5) 0.49387(3)
Cu6E Cu 0.86266(3) 0.26537(5) 1.00613(3)
Cu6F Cu 0.63734(3) 0.76537(5) 0.49387(3)
Cu6G Cu 1.36266(3) 0.76537(5) 1.00613(3)
Cu7B Cu 1.20319(3) 0.09593(4) 0.52951(3)
Cu7C Cu 0.79681(3) 0.09593(4) 0.97049(3)
Cu7D Cu 1.29681(3) 0.40407(4) 0.47049(3)
Cu7E Cu 0.70319(3) 0.40407(4) 1.02951(3)
O6F O 0.71867(15) 0.8540(3) 0.45005(16)
O7C O 0.74951(15) 0.8066(2) 0.56716(15)
O7E O 0.75049(15) 0.6934(2) 0.43284(15)
O8D O 1.17627(16) 0.6446(3) 1.05220(17)
O8E O 0.82373(16) 0.6446(3) 0.44780(17)
O9D O 1.28294(16) 0.5433(3) 1.03024(17)
O9E O 0.71706(16) 0.5433(3) 0.46976(17)
O13B O 0.68873(16) 0.6438(3) 0.59005(16)
O13C O 1.31127(16) 0.6438(3) 0.90995(16)
O14D O 0.87938(15) 0.7991(3) 0.45147(16)
O14E O 1.12062(15) 0.7991(3) 1.04853(16)
O21D O 0.64074(16) 0.6735(3) 0.97141(17)
O21E O 1.35926(16) 0.6735(3) 0.52859(17)
O22F O 1.08533(16) 0.1899(3) 1.01510(17)
O22G O 0.91467(16) 0.1899(3) 0.48490(17)
O23F O 1.13459(17) 0.3497(3) 1.01926(18)
O23G O 0.86541(17) 0.3497(3) 0.48074(18)
O32F O 0.81097(14) 0.8049(2) 0.50954(16)
O32G O 1.18903(14) 0.8049(2) 0.99046(16)
O33B O 1.4424(2) 0.7356(4) 0.5884(2)
O33C O 0.5576(2) 0.7356(4) 0.9116(2)
O34B O 1.4401(2) 0.5614(4) 0.5695(2)
O34C O 0.5599(2) 0.5614(4) 0.9305(2)
loop_
_geom_bond_atom_site_label_1
_geom_bond_atom_site_label_2
_geom_bond_site_symmetry_1
_geom_bond_site_symmetry_2
Cu1 O1 1_555 1_555
Cu2 O4 1_555 1_555
Cu3 O15 1_555 1_555
Cu4 O11 1_555 1_555
Cu5 O6 1_555 1_555
Cu6 O5 1_555 1_555
Cu7 O6 1_555 1_555
O1 C1 1_555 1_555
O2 Cu1 1_555 1_555
O3 C9 1_555 1_555
O4 C9 1_555 1_555
O5 C7 1_555 1_555
O6 C7 1_555 1_555
O7 C10 1_555 1_555
O8 C10 1_555 1_555
O9 C18 1_555 1_555
O10 C18 1_555 1_555
O11 C16 1_555 1_555
O12 C16 1_555 1_555
O13 C19 1_555 1_555
O14 C19 1_555 1_555
O15 C27 1_555 1_555
O16 C27 1_555 1_555
O17 Cu1 1_555 1_555
O18 Cu1 1_555 1_555
O19 C28 1_555 1_555
O20 C28 1_555 1_555
O21 C36 1_555 1_555
O22 C36 1_555 1_555
O23 C34 1_555 1_555
O24 C34 1_555 1_555
O25 Cu2 1_555 1_555
H1 O25 1_555 1_555
H2 O25 1_555 1_555
O26 Cu2 1_555 1_555
H3 O26 1_555 1_555
H4 O26 1_555 1_555
O27 Cu2 1_555 1_555
H5 O27 1_555 1_555
H6 O27 1_555 1_555
O28 Cu3 1_555 1_555
H7 O28 1_555 1_555
H8 O28 1_555 1_555
O29 Cu4 1_555 1_555
H9 O29 1_555 1_555
H10 O29 1_555 1_555
O30 Cu4 1_555 1_555
H11 O30 1_555 1_555
H12 O30 1_555 1_555
O31 Cu6 1_555 1_555
H13 O31 1_555 1_555
H14 O31 1_555 1_555
O32 Cu5 1_555 1_555
O33 Cu3 1_555 1_555
O34 Cu3 1_555 1_555
H15 O34 1_555 1_555
H16 O34 1_555 1_555
N1 N2 1_555 1_555
N2 C13 1_555 1_555
N3 N4 1_555 1_555
N4 C31 1_555 1_555
C1 O2 1_555 1_555
C2 C1 1_555 1_555
C3 C2 1_555 1_555
H17 C3 1_555 1_555
C4 N1 1_555 1_555
C5 C4 1_555 1_555
H18 C5 1_555 1_555
C6 C5 1_555 1_555
C7 C6 1_555 1_555
C8 C2 1_555 1_555
C9 C8 1_555 1_555
C10 C11 1_555 1_555
C11 C12 1_555 1_555
C12 H19 1_555 1_555
C13 C12 1_555 1_555
C14 C13 1_555 1_555
H20 C14 1_555 1_555
C15 C14 1_555 1_555
C16 C15 1_555 1_555
C17 C11 1_555 1_555
C18 C17 1_555 1_555
C19 C20 1_555 1_555
C20 C21 1_555 1_555
C21 H21 1_555 1_555
C22 N3 1_555 1_555
C23 C22 1_555 1_555
H22 C23 1_555 1_555
C24 C23 1_555 1_555
C25 O17 1_555 1_555
C26 C20 1_555 1_555
C27 C26 1_555 1_555
C28 C29 1_555 1_555
C29 C30 1_555 1_555
C30 H23 1_555 1_555
C31 C30 1_555 1_555
C32 C31 1_555 1_555
H24 C32 1_555 1_555
C33 C32 1_555 1_555
C34 C33 1_555 1_555
C35 C29 1_555 1_555
C36 C35 1_555 1_555
Cu2A O4A 1_555 1_555
Cu3A O15A 1_555 1_555
Cu4A O11A 1_555 1_555
Cu6A O5A 1_555 1_555
Cu7A O19 1_555 1_555
O1A Cu1 1_555 1_555
O2A Cu1 1_555 1_555
O3A C9A 1_555 1_555
O4A C9A 1_555 1_555
O5A C7A 1_555 1_555
O6A Cu7A 1_555 1_555
O7A C10A 1_555 1_555
O8A C10A 1_555 1_555
O9A C18A 1_555 1_555
O10A C18A 1_555 1_555
O11A C16A 1_555 1_555
O12A C16A 1_555 1_555
O13A C19A 1_555 1_555
O14A C19A 1_555 1_555
O15A C27A 1_555 1_555
O16A C27A 1_555 1_555
O17A Cu1 1_555 1_555
O18A Cu1 1_555 1_555
O19A Cu7 1_555 1_555
O20A Cu7 1_555 1_555
O21A C36A 1_555 1_555
O22A C36A 1_555 1_555
O23A C34A 1_555 1_555
O24A C34A 1_555 1_555
O25A Cu2A 1_555 1_555
H1A O25A 1_555 1_555
H2A O25A 1_555 1_555
O26A Cu2A 1_555 1_555
H3A O26A 1_555 1_555
H4A O26A 1_555 1_555
O27A Cu2A 1_555 1_555
H5A O27A 1_555 1_555
H6A O27A 1_555 1_555
O28A Cu3A 1_555 1_555
H7A O28A 1_555 1_555
H8A O28A 1_555 1_555
O29A Cu4A 1_555 1_555
H9A O29A 1_555 1_555
H10A O29A 1_555 1_555
O30A Cu4A 1_555 1_555
H11A O30A 1_555 1_555
H12A O30A 1_555 1_555
O31A Cu6A 1_555 1_555
H13A O31A 1_555 1_555
H14A O31A 1_555 1_555
O32A Cu7A 1_555 1_555
O33A Cu3A 1_555 1_555
O34A Cu3A 1_555 1_555
H15A O34A 1_555 1_555
H16A O34A 1_555 1_555
N1A N2A 1_555 1_555
N2A C13A 1_555 1_555
N3A N4A 1_555 1_555
N4A C31A 1_555 1_555
C1A O1A 1_555 1_555
C2A C1A 1_555 1_555
C3A C2A 1_555 1_555
H17A C3A 1_555 1_555
C4A N1A 1_555 1_555
C5A C4A 1_555 1_555
H18A C5A 1_555 1_555
C6A C5A 1_555 1_555
C7A O6A 1_555 1_555
C8A C2A 1_555 1_555
C9A C8A 1_555 1_555
C10A C11A 1_555 1_555
C11A C12A 1_555 1_555
C12A H19A 1_555 1_555
C13A C12A 1_555 1_555
C14A C13A 1_555 1_555
H20A C14A 1_555 1_555
C15A C14A 1_555 1_555
C16A C15A 1_555 1_555
C17A C11A 1_555 1_555
C18A C17A 1_555 1_555
C19A C20A 1_555 1_555
C20A C21A 1_555 1_555
C21A H21A 1_555 1_555
C22A N3A 1_555 1_555
C23A C22A 1_555 1_555
H22A C23A 1_555 1_555
C24A C23A 1_555 1_555
C25A O17A 1_555 1_555
C26A C20A 1_555 1_555
C27A C26A 1_555 1_555
C28A O19A 1_555 1_555
C29A C28A 1_555 1_555
C30A C29A 1_555 1_555
H23A C30A 1_555 1_555
C31A C30A 1_555 1_555
C32A C31A 1_555 1_555
H24A C32A 1_555 1_555
C33A C32A 1_555 1_555
C34A C33A 1_555 1_555
C35A C29A 1_555 1_555
C36A C35A 1_555 1_555
Cu2F O23A 1_555 1_555
Cu2G O23 1_555 1_555
Cu3F O22A 1_555 1_555
Cu3G O22 1_555 1_555
Cu4B O33A 1_555 1_555
Cu4C O33 1_555 1_555
Cu4D O21 1_555 1_555
Cu4E O21A 1_555 1_555
Cu5A O6A 1_555 1_555
Cu5B O7A 1_555 1_555
Cu5C O7 1_555 1_555
Cu6D O14 1_555 1_555
Cu6E O8 1_555 1_555
Cu6F O32 1_555 1_555
Cu6G O32A 1_555 1_555
Cu7B O13 1_555 1_555
Cu7C O13A 1_555 1_555
Cu7D O9A 1_555 1_555
Cu7E O9 1_555 1_555
O6F Cu5 1_555 1_555
O7C Cu5 1_555 1_555
O7E Cu5 1_555 1_555
O8D Cu6A 1_555 1_555
O8E Cu6 1_555 1_555
O9D Cu7A 1_555 1_555
O9E Cu7 1_555 1_555
O13B Cu7 1_555 1_555
O13C Cu7A 1_555 1_555
O14D Cu6 1_555 1_555
O14E Cu6A 1_555 1_555
O21D Cu4 1_555 1_555
O21E Cu4A 1_555 1_555
O22F Cu3A 1_555 1_555
O22G Cu3 1_555 1_555
O23F Cu2A 1_555 1_555
O23G Cu2 1_555 1_555
O32F Cu5 1_555 1_555
O32G Cu6A 1_555 1_555
O33B Cu4A 1_555 1_555
O33C Cu4 1_555 1_555
O34B Cu4A 1_555 1_555
O34C Cu4 1_555 1_555
Cu6 O32F 1_555 1_555
Cu7 O32 1_555 1_555
O18 C25 1_555 1_555
O20 Cu7A 1_555 1_555
O34 Cu4C 1_555 1_555
C3 C4 1_555 1_555
C6 C8 1_555 1_555
C15 C17 1_555 1_555
C21 C22 1_555 1_555
C24 C25 1_555 1_555
C24 C26 1_555 1_555
C33 C35 1_555 1_555
O2A C1A 1_555 1_555
O8A Cu6D 1_555 1_555
O14A Cu6E 1_555 1_555
O18A C25A 1_555 1_555
O20A C28A 1_555 1_555
O32A Cu5A 1_555 1_555
O34A Cu4B 1_555 1_555
C3A C4A 1_555 1_555
C6A C7A 1_555 1_555
C6A C8A 1_555 1_555
C15A C17A 1_555 1_555
C21A C22A 1_555 1_555
C24A C25A 1_555 1_555
C24A C26A 1_555 1_555
C33A C35A 1_555 1_555
Cu5A O32G 1_555 1_555

#END
