
#######################################################################
#
#                 Cambridge Crystallographic Data Centre
#                                CCDC 
#
#######################################################################
#
# If this CIF has been generated from an entry in the Cambridge 
# Structural Database, then it will include bibliographic, chemical, 
# crystal, experimental, refinement or atomic coordinate data resulting 
# from the CCDC's data processing and validation procedures.
#
#######################################################################

data_LEYQUD
_chemical_formula_moiety         '(C14 H24 Mo12 N2 Nd2 O61 P1 2+)n'
_symmetry_cell_setting           monoclinic
_symmetry_space_group_name_H-M   'C 2/c'
_symmetry_Int_Tables_number      15
_space_group_name_Hall           '-C 2yc'
loop_
_symmetry_equiv_pos_site_id
_symmetry_equiv_pos_as_xyz
1 x,y,z
2 -x,y,1/2-z
3 1/2+x,1/2+y,z
4 1/2-x,1/2+y,1/2-z
5 -x,-y,-z
6 x,-y,1/2+z
7 1/2-x,1/2-y,-z
8 1/2+x,1/2-y,1/2+z
_cell_length_a                   30.5536(19)
_cell_length_b                   15.6430(10)
_cell_length_c                   21.9701(14)
_cell_angle_alpha                90
_cell_angle_beta                 133.0910(10)
_cell_angle_gamma                90
_cell_volume                     7668.28
loop_
_atom_site_label
_atom_site_type_symbol
_atom_site_fract_x
_atom_site_fract_y
_atom_site_fract_z
_atom_site_U_iso_or_equiv
_atom_site_thermal_displace_type
Mo1 Mo 0.5000 0.13709(7) 0.7500 0.0549 Uani
Mo2 Mo 0.5000 0.59387(6) 0.7500 0.0358 Uani
Mo3 Mo 0.36914(3) 0.47836(6) 0.58812(4) 0.0374 Uani
Mo4 Mo 0.36698(3) 0.25132(5) 0.58844(4) 0.0372 Uani
Mo5 Mo 0.44498(3) 0.36468(4) 0.54627(4) 0.0266 Uani
Mo6 Mo 0.57682(3) 0.47840(5) 0.70845(4) 0.0373 Uani
Mo7 Mo 0.57715(3) 0.25158(5) 0.70763(4) 0.0349 Uani
P1 P 0.5000 0.36482(14) 0.7500 0.0162 Uani
O17 O 0.5383(4) 0.4463(5) 0.7706(5) 0.0153 Uani
O18 O 0.4470(4) 0.3621(5) 0.6579(6) 0.0179 Uani
O19 O 0.5413(4) 0.2868(5) 0.7730(5) 0.0171 Uani
O20 O 0.4853(4) 0.3638(5) 0.8017(6) 0.0214 Uani
O21 O 0.4259(3) 0.5709(7) 0.6445(4) 0.0899 Uani
O22 O 0.6322(3) 0.4837(7) 0.8274(4) 0.0933 Uani
O23 O 0.5000 0.6985(6) 0.7500 0.0889 Uani
O24 O 0.5216(5) 0.1767(7) 0.6996(6) 0.0284 Uani
O25 O 0.4238(5) 0.1619(5) 0.6416(5) 0.1014 Uani
O26 O 0.3679(4) 0.2470(4) 0.6742(4) 0.0745 Uani
O27 O 0.3978(4) 0.4490(4) 0.5392(6) 0.0748 Uani
O28 O 0.5344(3) 0.5678(6) 0.7064(4) 0.0814 Uani
O29 O 0.3053(4) 0.1991(6) 0.5105(4) 0.0900 Uani
O30 O 0.3389(3) 0.3652(4) 0.5677(5) 0.0601 Uani
O31 O 0.6115(3) 0.2006(5) 0.6849(4) 0.0767 Uani
O32 O 0.3960(3) 0.2812(4) 0.5368(5) 0.0580 Uani
O33 O 0.5000 0.0320(5) 0.7500 0.0482 Uani
O34 O 0.4201(4) 0.3644(4) 0.4525(4) 0.0567 Uani
O35 O 0.5069(2) 0.4471(4) 0.5999(4) 0.0531 Uani
O36 O 0.6043(3) 0.3648(4) 0.7210(4) 0.0529 Uani
O37 O 0.5056(2) 0.2799(4) 0.5992(4) 0.0528 Uani
O38 O 0.6157(3) 0.5308(4) 0.6932(4) 0.0483 Uani
O39 O 0.3081(2) 0.5333(3) 0.5115(3) 0.0366 Uani
O17A O 0.4617(4) 0.4463(5) 0.7294(5) 0.0153 Uani
O18A O 0.5530(4) 0.3621(5) 0.8421(6) 0.0179 Uani
O19A O 0.4587(4) 0.2868(5) 0.7270(5) 0.0171 Uani
O20A O 0.5147(4) 0.3638(5) 0.6983(6) 0.0214 Uani
Mo3A Mo 0.63086(3) 0.47836(6) 0.91188(4) 0.0374 Uani
Mo4A Mo 0.63302(3) 0.25132(5) 0.91156(4) 0.0372 Uani
Mo5A Mo 0.55502(3) 0.36468(4) 0.95373(4) 0.0266 Uani
Mo6A Mo 0.42318(3) 0.47840(5) 0.79155(4) 0.0373 Uani
Mo7A Mo 0.42285(3) 0.25158(5) 0.79237(4) 0.0349 Uani
O21A O 0.5741(3) 0.5709(7) 0.8555(4) 0.0899 Uani
O22A O 0.3678(3) 0.4837(7) 0.6726(4) 0.0933 Uani
O24A O 0.4784(5) 0.1767(7) 0.8004(6) 0.0284 Uani
O25A O 0.5762(5) 0.1619(5) 0.8584(5) 0.1014 Uani
O26A O 0.6321(4) 0.2470(4) 0.8258(4) 0.0745 Uani
O27A O 0.6022(4) 0.4490(4) 0.9608(6) 0.0748 Uani
O28A O 0.4656(3) 0.5678(6) 0.7936(4) 0.0814 Uani
O29A O 0.6947(4) 0.1991(6) 0.9895(4) 0.0900 Uani
O30A O 0.6611(3) 0.3652(4) 0.9323(5) 0.0601 Uani
O31A O 0.3885(3) 0.2006(5) 0.8151(4) 0.0767 Uani
O32A O 0.6040(3) 0.2812(4) 0.9632(5) 0.0580 Uani
O34A O 0.5799(4) 0.3644(4) 1.0475(4) 0.0567 Uani
O35A O 0.4931(2) 0.4471(4) 0.9001(4) 0.0531 Uani
O36A O 0.3957(3) 0.3648(4) 0.7790(4) 0.0529 Uani
O37A O 0.4944(2) 0.2799(4) 0.9008(4) 0.0528 Uani
O38A O 0.3843(3) 0.5308(4) 0.8068(4) 0.0483 Uani
O39A O 0.6919(2) 0.5333(3) 0.9885(3) 0.0366 Uani
O40 O 0.2388(3) 1.1434(4) 0.3377(5) 0.0654 Uani
H23 H 0.2382 1.1551 0.3760 0.0780 Uiso
H24 H 0.2024 1.1490 0.2899 0.0780 Uiso
Nd1 Nd 0.331286(15) 0.87170(2) 0.48589(2) 0.0172 Uani
Nd2 Nd 0.610545(15) 0.86345(2) 0.67363(2) 0.0187 Uani
O1 O 0.25281(19) 0.7691(3) 0.3723(3) 0.0279 Uani
O2 O 0.2233(2) 0.6521(3) 0.2952(3) 0.0287 Uani
O3 O 0.4405(2) 0.8570(3) 0.5696(3) 0.0298 Uani
O4 O 0.5205(2) 0.7848(3) 0.6139(3) 0.0309 Uani
O5 O 0.6339(2) 0.9721(3) 0.6174(3) 0.0342 Uani
O6 O 0.6733(2) 1.0959(3) 0.6256(3) 0.0312 Uani
O7 O 0.6223(2) 0.8828(3) 0.7951(3) 0.0299 Uani
O8 O 0.6573(2) 0.9527(3) 0.9091(3) 0.0328 Uani
O9 O 0.2474(2) 0.8376(3) 0.4806(4) 0.0341 Uani
H1 H 0.2391 0.8870 0.4868 0.0420 Uiso
H2 H 0.2145 0.8142 0.4386 0.0420 Uiso
O10 O 0.2473(3) 0.9723(4) 0.3897(4) 0.0550 Uani
H3 H 0.2478 1.0218 0.3758 0.0660 Uiso
H4 H 0.2147 0.9641 0.3767 0.0660 Uiso
O11 O 0.3773(3) 1.0172(3) 0.5149(4) 0.0415 Uani
H5 H 0.3616 1.0378 0.4686 0.0500 Uiso
H6 H 0.3873 1.0567 0.5480 0.0500 Uiso
O12 O 0.3666(2) 0.7651(3) 0.6014(3) 0.0347 Uani
H7 H 0.4024 0.7463 0.6365 0.0410 Uiso
H8 H 0.3601 0.7917 0.6285 0.0410 Uiso
O13 O 0.5279(2) 0.9764(3) 0.6229(3) 0.0379 Uani
H9 H 0.5407 1.0054 0.6645 0.0450 Uiso
H10 H 0.4977 0.9484 0.6051 0.0450 Uiso
O14 O 0.5332(3) 0.8684(4) 0.5123(3) 0.0479 Uani
H11 H 0.5135 0.9086 0.4781 0.0580 Uiso
H12 H 0.5278 0.8239 0.4864 0.0580 Uiso
O15 O 0.6335(2) 0.7190(3) 0.7351(4) 0.0467 Uani
H13 H 0.6183 0.6715 0.7117 0.0560 Uiso
H14 H 0.6710 0.7149 0.7725 0.0560 Uiso
O16 O 0.6597(3) 0.7910(4) 0.6303(4) 0.0466 Uani
H15 H 0.6421 0.7629 0.5856 0.0550 Uiso
H16 H 0.6818 0.8284 0.6342 0.0550 Uiso
N1 N 0.3665(2) 0.7345(3) 0.4642(3) 0.0191 Uani
N2 N 0.6617(2) 1.0013(3) 0.7579(3) 0.0162 Uani
C1 C 0.3276(3) 0.6764(4) 0.4069(4) 0.0215 Uani
C2 C 0.3459(3) 0.6011(5) 0.3957(4) 0.0274 Uani
H17 H 0.3173 0.5609 0.3541 0.0330 Uiso
C3 C 0.4065(3) 0.5865(5) 0.4469(4) 0.0291 Uani
H18 H 0.4204 0.5351 0.4419 0.0350 Uiso
C4 C 0.4466(3) 0.6470(4) 0.5049(5) 0.0256 Uani
H19 H 0.4885 0.6385 0.5397 0.0320 Uiso
C5 C 0.4253(3) 0.7204(4) 0.5122(4) 0.0224 Uani
C6 C 0.2623(3) 0.7011(4) 0.3534(4) 0.0209 Uani
C7 C 0.4652(3) 0.7921(5) 0.5703(4) 0.0246 Uani
C8 C 0.6847(3) 1.0546(4) 0.7385(4) 0.0202 Uani
C9 C 0.7260(3) 1.1179(5) 0.7930(5) 0.0294 Uani
H20 H 0.7445 1.1522 0.7802 0.0360 Uiso
C10 C 0.7390(4) 1.1286(5) 0.8664(5) 0.0343 Uani
H21 H 0.7664 1.1717 0.9048 0.0410 Uiso
C11 C 0.7122(3) 1.0765(5) 0.8838(4) 0.0275 Uani
H22 H 0.7196 1.0848 0.9330 0.0330 Uiso
C12 C 0.6744(3) 1.0123(4) 0.8283(4) 0.0222 Uani
C13 C 0.6627(3) 1.0405(4) 0.6539(4) 0.0213 Uani
C14 C 0.6495(3) 0.9457(5) 0.8465(4) 0.0236 Uani
Nd1A Nd 0.668714(15) 0.87170(2) 1.01411(2) 0.0172 Uani
Nd1D Nd 0.668714(15) 1.12830(2) 0.51411(2) 0.0172 Uani
Nd2G Nd 0.110545(15) 0.63655(2) 0.17363(2) 0.0187 Uani
O2G O 0.7233(2) 0.8479(3) 0.7952(3) 0.0287 Uani
O6D O 0.3267(2) 0.9041(3) 0.3744(3) 0.0312 Uani
O8A O 0.3427(2) 0.9527(3) 0.5909(3) 0.0328 Uani
loop_
_atom_site_aniso_label
_atom_site_aniso_U_11
_atom_site_aniso_U_22
_atom_site_aniso_U_33
_atom_site_aniso_U_23
_atom_site_aniso_U_13
_atom_site_aniso_U_12
Mo1 0.1152(13) 0.0070(5) 0.0644(9) 0.000 0.0699(10) 0.000
Mo2 0.0155(5) 0.0092(5) 0.0415(6) 0.000 0.0034(5) 0.000
Mo3 0.0164(3) 0.0683(6) 0.0232(4) 0.0197(3) 0.0118(3) 0.0192(3)
Mo4 0.0314(4) 0.0243(4) 0.0157(3) 0.0010(3) 0.0004(3) -0.0135(3)
Mo5 0.0256(3) 0.0317(4) 0.0210(3) -0.0005(2) 0.0153(3) -0.0002(3)
Mo6 0.0439(4) 0.0432(4) 0.0389(4) 0.0008(3) 0.0338(4) -0.0063(3)
Mo7 0.0355(4) 0.0425(4) 0.0295(4) 0.0006(3) 0.0233(3) 0.0088(3)
P1 0.0150(11) 0.0144(12) 0.0146(11) 0.000 0.0083(10) 0.000
O17 0.019(4) 0.007(4) 0.014(4) -0.001(3) 0.009(4) -0.002(3)
O18 0.012(4) 0.016(5) 0.019(5) 0.000(3) 0.008(4) 0.003(3)
O19 0.016(4) 0.011(4) 0.015(4) 0.001(3) 0.007(4) 0.003(3)
O20 0.022(5) 0.017(5) 0.025(5) 0.000(4) 0.016(4) 0.001(4)
O21 0.034(3) 0.195(9) 0.025(3) -0.007(4) 0.014(3) -0.057(5)
O22 0.061(5) 0.186(10) 0.030(3) 0.029(5) 0.030(3) 0.082(6)
O23 0.178(13) 0.012(4) 0.156(12) 0.000 0.145(12) 0.000
O24 0.033(7) 0.022(6) 0.024(6) -0.002(5) 0.017(6) 0.003(5)
O25 0.192(10) 0.066(5) 0.058(5) 0.040(4) 0.090(6) 0.090(6)
O26 0.131(7) 0.044(4) 0.029(3) 0.015(3) 0.047(4) 0.037(4)
O27 0.108(6) 0.025(3) 0.180(8) 0.030(4) 0.133(7) 0.024(3)
O28 0.050(4) 0.133(7) 0.023(3) -0.005(4) 0.010(3) 0.056(5)
O29 0.088(5) 0.142(8) 0.050(4) -0.064(5) 0.051(4) -0.098(6)
O30 0.060(4) 0.048(4) 0.109(6) 0.048(4) 0.072(5) 0.034(3)
O31 0.047(4) 0.106(6) 0.041(4) -0.013(4) 0.016(3) 0.042(4)
O32 0.040(3) 0.030(3) 0.112(6) 0.030(3) 0.055(4) 0.013(3)
O33 0.047(5) 0.013(4) 0.060(6) 0.000 0.027(5) 0.000
O34 0.095(6) 0.036(4) 0.027(3) -0.003(2) 0.037(4) -0.001(3)
O35 0.020(3) 0.027(3) 0.052(4) -0.002(3) 0.001(3) -0.002(2)
O36 0.022(3) 0.038(4) 0.052(4) 0.011(3) 0.007(3) -0.002(2)
O37 0.022(3) 0.025(3) 0.071(4) 0.011(3) 0.016(3) 0.004(2)
O38 0.043(3) 0.058(4) 0.043(3) -0.003(3) 0.029(3) -0.023(3)
O39 0.021(3) 0.029(3) 0.033(3) -0.002(2) 0.008(2) 0.010(2)
O17A 0.019 0.007 0.014 0.001 0.009 0.002
O18A 0.012 0.016 0.019 0 0.008 -0.003
O19A 0.016 0.011 0.015 -0.001 0.007 -0.003
O20A 0.022 0.017 0.025 0 0.016 -0.001
Mo3A 0.0164 0.0683 0.0232 -0.0197 0.0118 -0.0192
Mo4A 0.0314 0.0243 0.0157 -0.001 0.0004 0.0135
Mo5A 0.0256 0.0317 0.021 0.0005 0.0153 0.0002
Mo6A 0.0439 0.0432 0.0389 -0.0008 0.0338 0.0063
Mo7A 0.0355 0.0425 0.0295 -0.0006 0.0233 -0.0088
O21A 0.034 0.195 0.025 0.007 0.014 0.057
O22A 0.061 0.186 0.03 -0.029 0.03 -0.082
O24A 0.033 0.022 0.024 0.002 0.017 -0.003
O25A 0.192 0.066 0.058 -0.04 0.09 -0.09
O26A 0.131 0.044 0.029 -0.015 0.047 -0.037
O27A 0.108 0.025 0.18 -0.03 0.133 -0.024
O28A 0.05 0.133 0.023 0.005 0.01 -0.056
O29A 0.088 0.142 0.05 0.064 0.051 0.098
O30A 0.06 0.048 0.109 -0.048 0.072 -0.034
O31A 0.047 0.106 0.041 0.013 0.016 -0.042
O32A 0.04 0.03 0.112 -0.03 0.055 -0.013
O34A 0.095 0.036 0.027 0.003 0.037 0.001
O35A 0.02 0.027 0.052 0.002 0.001 0.002
O36A 0.022 0.038 0.052 -0.011 0.007 0.002
O37A 0.022 0.025 0.071 -0.011 0.016 -0.004
O38A 0.043 0.058 0.043 0.003 0.029 0.023
O39A 0.021 0.029 0.033 0.002 0.008 -0.01
O40 0.042(4) 0.070(5) 0.065(5) 0.000(4) 0.029(4) 0.003(3)
Nd1 0.01621(19) 0.0199(2) 0.01714(19) 0.00107(13) 0.01205(17) 0.00172(13)
Nd2 0.01401(19) 0.0213(2) 0.01612(19) -0.00147(13) 0.00842(16) -0.00213(13)
O1 0.014(2) 0.032(3) 0.030(3) -0.007(2) 0.012(2) -0.002(2)
O2 0.016(2) 0.029(3) 0.024(3) -0.006(2) 0.007(2) -0.005(2)
O3 0.013(2) 0.030(3) 0.031(3) -0.007(2) 0.009(2) -0.001(2)
O4 0.010(2) 0.032(3) 0.036(3) 0.002(2) 0.010(2) 0.000(2)
O5 0.051(3) 0.030(3) 0.030(3) -0.009(2) 0.031(3) -0.014(2)
O6 0.048(3) 0.027(3) 0.034(3) -0.002(2) 0.034(3) -0.006(2)
O7 0.039(3) 0.032(3) 0.026(3) -0.003(2) 0.025(3) -0.008(2)
O8 0.047(3) 0.038(3) 0.029(3) 0.003(2) 0.032(3) 0.005(2)
O9 0.032(3) 0.027(3) 0.056(4) -0.004(3) 0.035(3) -0.001(2)
O10 0.040(3) 0.056(4) 0.070(4) 0.038(3) 0.038(3) 0.030(3)
O11 0.077(4) 0.027(3) 0.042(3) -0.011(2) 0.049(3) -0.015(3)
O12 0.036(3) 0.038(3) 0.028(3) 0.013(2) 0.021(3) 0.019(2)
O13 0.026(3) 0.037(3) 0.045(3) -0.008(3) 0.022(3) -0.004(2)
O14 0.050(4) 0.044(4) 0.021(3) -0.007(2) 0.013(3) -0.010(3)
O15 0.023(3) 0.028(3) 0.045(3) 0.006(3) 0.006(3) -0.004(2)
O16 0.043(3) 0.051(4) 0.048(4) -0.023(3) 0.032(3) -0.010(3)
N1 0.014(3) 0.023(3) 0.018(3) 0.004(2) 0.010(2) 0.003(2)
N2 0.013(3) 0.021(3) 0.014(3) -0.002(2) 0.009(2) 0.002(2)
C1 0.021(3) 0.022(4) 0.018(3) 0.000(3) 0.012(3) -0.003(3)
C2 0.025(4) 0.023(4) 0.027(4) -0.003(3) 0.015(3) 0.000(3)
C3 0.034(4) 0.025(4) 0.032(4) 0.005(3) 0.024(4) 0.009(3)
C4 0.020(3) 0.031(4) 0.029(4) 0.002(3) 0.018(3) 0.005(3)
C5 0.016(3) 0.024(4) 0.022(3) 0.003(3) 0.011(3) 0.002(3)
C6 0.017(3) 0.024(4) 0.016(3) -0.002(3) 0.009(3) -0.004(3)
C7 0.018(3) 0.029(4) 0.025(4) 0.004(3) 0.014(3) -0.002(3)
C8 0.020(3) 0.021(3) 0.023(3) 0.001(3) 0.016(3) 0.002(3)
C9 0.029(4) 0.030(4) 0.028(4) -0.003(3) 0.019(3) -0.005(3)
C10 0.034(4) 0.029(4) 0.019(4) -0.007(3) 0.010(3) -0.006(3)
C11 0.031(4) 0.029(4) 0.018(3) -0.005(3) 0.015(3) 0.001(3)
C12 0.022(3) 0.025(4) 0.022(3) 0.006(3) 0.016(3) 0.009(3)
C13 0.020(3) 0.025(4) 0.024(3) 0.001(3) 0.017(3) 0.001(3)
C14 0.025(3) 0.030(4) 0.020(3) 0.007(3) 0.017(3) 0.010(3)
Nd1A 0.01621 0.0199 0.01714 -0.00107 0.01205 -0.00172
Nd1D 0.01621 0.0199 0.01714 0.00107 0.01205 0.00172
Nd2G 0.01401 0.0213 0.01612 0.00147 0.00842 0.00213
O2G 0.016 0.029 0.024 0.006 0.007 0.005
O6D 0.048 0.027 0.034 -0.002 0.034 -0.006
O8A 0.047 0.038 0.029 -0.003 0.032 -0.005
loop_
_geom_bond_atom_site_label_1
_geom_bond_atom_site_label_2
_geom_bond_site_symmetry_1
_geom_bond_site_symmetry_2
Nd1 O1 1_555 1_555
Nd2 O4 1_555 1_555
O1 C6 1_555 1_555
O2 C6 1_555 1_555
O3 Nd1 1_555 1_555
O4 C7 1_555 1_555
O5 Nd2 1_555 1_555
O6 C13 1_555 1_555
O7 Nd2 1_555 1_555
O8 C14 1_555 1_555
O9 Nd1 1_555 1_555
H1 O9 1_555 1_555
H2 O9 1_555 1_555
O10 Nd1 1_555 1_555
H3 O10 1_555 1_555
H4 O10 1_555 1_555
O11 Nd1 1_555 1_555
H5 O11 1_555 1_555
H6 O11 1_555 1_555
O12 Nd1 1_555 1_555
H7 O12 1_555 1_555
H8 O12 1_555 1_555
O13 Nd2 1_555 1_555
H9 O13 1_555 1_555
H10 O13 1_555 1_555
O14 Nd2 1_555 1_555
H11 O14 1_555 1_555
H12 O14 1_555 1_555
O15 Nd2 1_555 1_555
H13 O15 1_555 1_555
H14 O15 1_555 1_555
O16 Nd2 1_555 1_555
H15 O16 1_555 1_555
H16 O16 1_555 1_555
N1 Nd1 1_555 1_555
N2 Nd2 1_555 1_555
C1 N1 1_555 1_555
C2 C1 1_555 1_555
H17 C2 1_555 1_555
C3 C2 1_555 1_555
H18 C3 1_555 1_555
C4 C3 1_555 1_555
H19 C4 1_555 1_555
C5 N1 1_555 1_555
C6 C1 1_555 1_555
C7 O3 1_555 1_555
C8 N2 1_555 1_555
C9 C8 1_555 1_555
H20 C9 1_555 1_555
C10 C9 1_555 1_555
H21 C10 1_555 1_555
C11 C10 1_555 1_555
H22 C11 1_555 1_555
C12 N2 1_555 1_555
C13 O5 1_555 1_555
C14 O7 1_555 1_555
Mo1 O19 1_555 1_555
Mo2 O17 1_555 1_555
Mo3 O18 1_555 1_555
Mo4 O18 1_555 1_555
Mo5 O18 1_555 1_555
Mo6 O17 1_555 1_555
Mo7 O19 1_555 1_555
P1 O17 1_555 1_555
O17 O20A 1_555 1_555
O18 P1 1_555 1_555
O19 P1 1_555 1_555
O20 P1 1_555 1_555
O21 Mo2 1_555 1_555
O22 Mo6 1_555 1_555
O23 Mo2 1_555 1_555
O24 Mo1 1_555 1_555
O25 Mo1 1_555 1_555
O26 Mo4 1_555 1_555
O27 Mo3 1_555 1_555
O28 Mo2 1_555 1_555
O29 Mo4 1_555 1_555
O30 Mo3 1_555 1_555
O31 Mo7 1_555 1_555
O32 Mo4 1_555 1_555
O33 Mo1 1_555 1_555
O34 Mo5 1_555 1_555
O35 Mo5 1_555 1_555
O36 Mo6 1_555 1_555
O37 Mo5 1_555 1_555
O38 Mo6 1_555 1_555
O39 Mo3 1_555 1_555
O40 H23 1_555 1_555
H24 O40 1_555 1_555
Nd1A O8 1_555 1_555
Nd1D O6 1_555 1_555
Nd2G O2 1_555 1_555
O2G Nd2 1_555 1_555
O6D Nd1 1_555 1_555
O8A Nd1 1_555 1_555
O17A Mo2 1_555 1_555
O18A P1 1_555 1_555
O19A Mo1 1_555 1_555
O20A Mo5 1_555 1_555
Mo3A O17 1_555 1_555
Mo4A O19 1_555 1_555
Mo5A O20 1_555 1_555
Mo6A O20 1_555 1_555
Mo7A O20 1_555 1_555
O21A Mo2 1_555 1_555
O22A Mo3 1_555 1_555
O24A Mo1 1_555 1_555
O25A Mo1 1_555 1_555
O26A Mo7 1_555 1_555
O27A Mo3A 1_555 1_555
O28A Mo2 1_555 1_555
O29A Mo4A 1_555 1_555
O30A Mo3A 1_555 1_555
O31A Mo7A 1_555 1_555
O32A Mo4A 1_555 1_555
O34A Mo5A 1_555 1_555
O35A Mo5A 1_555 1_555
O36A Mo6A 1_555 1_555
O37A Mo5A 1_555 1_555
O38A Mo6A 1_555 1_555
O39A Mo3A 1_555 1_555
C4 C5 1_555 1_555
C5 C7 1_555 1_555
C8 C13 1_555 1_555
C11 C12 1_555 1_555
C12 C14 1_555 1_555
Mo3 O21 1_555 1_555
Mo3 O17A 1_555 1_555
Mo4 O25 1_555 1_555
Mo4 O30 1_555 1_555
Mo4 O19A 1_555 1_555
Mo5 O27 1_555 1_555
Mo5 O32 1_555 1_555
Mo6 O28 1_555 1_555
Mo6 O35 1_555 1_555
Mo6 O20A 1_555 1_555
Mo7 O24 1_555 1_555
Mo7 O36 1_555 1_555
Mo7 O37 1_555 1_555
Mo7 O20A 1_555 1_555
P1 O17A 1_555 1_555
P1 O19A 1_555 1_555
P1 O20A 1_555 1_555
O18 O19A 1_555 1_555
O18 O20A 1_555 1_555
O19 O18A 1_555 1_555
O19 O20A 1_555 1_555
O20 O17A 1_555 1_555
O20 O18A 1_555 1_555
O20 O19A 1_555 1_555
O22 Mo3A 1_555 1_555
O26 Mo7A 1_555 1_555
O17A Mo6A 1_555 1_555
O18A Mo3A 1_555 1_555
O18A Mo4A 1_555 1_555
O18A Mo5A 1_555 1_555
O19A Mo7A 1_555 1_555
Mo3A O21A 1_555 1_555
Mo4A O25A 1_555 1_555
Mo4A O26A 1_555 1_555
Mo4A O30A 1_555 1_555
Mo5A O27A 1_555 1_555
Mo5A O32A 1_555 1_555
Mo6A O22A 1_555 1_555
Mo6A O28A 1_555 1_555
Mo6A O35A 1_555 1_555
Mo7A O24A 1_555 1_555
Mo7A O36A 1_555 1_555
Mo7A O37A 1_555 1_555

#END
