
#######################################################################
#
#                 Cambridge Crystallographic Data Centre
#                                CCDC 
#
#######################################################################
#
# If this CIF has been generated from an entry in the Cambridge 
# Structural Database, then it will include bibliographic, chemical, 
# crystal, experimental, refinement or atomic coordinate data resulting 
# from the CCDC's data processing and validation procedures.
#
#######################################################################

data_LEYREO
_chemical_formula_moiety         '(C14 H24 Mo12 N2 O61 P1 Pr2 2+)n'
_symmetry_cell_setting           monoclinic
_symmetry_space_group_name_H-M   'C 2/c'
_symmetry_Int_Tables_number      15
_space_group_name_Hall           '-C 2yc'
loop_
_symmetry_equiv_pos_site_id
_symmetry_equiv_pos_as_xyz
1 x,y,z
2 -x,y,1/2-z
3 1/2+x,1/2+y,z
4 1/2-x,1/2+y,1/2-z
5 -x,-y,-z
6 x,-y,1/2+z
7 1/2-x,1/2-y,-z
8 1/2+x,1/2-y,1/2+z
_cell_length_a                   30.644(2)
_cell_length_b                   15.6647(12)
_cell_length_c                   22.023(3)
_cell_angle_alpha                90
_cell_angle_beta                 133.1350(10)
_cell_angle_gamma                90
_cell_volume                     7714.63
loop_
_atom_site_label
_atom_site_type_symbol
_atom_site_fract_x
_atom_site_fract_y
_atom_site_fract_z
_atom_site_U_iso_or_equiv
_atom_site_thermal_displace_type
Mo1 Mo 0.5000 0.13707(7) 0.7500 0.0528 Uani
Mo2 Mo 0.5000 0.59328(6) 0.7500 0.0358 Uani
Mo3 Mo 0.36933(3) 0.47805(6) 0.58822(4) 0.0378 Uani
Mo4 Mo 0.36726(3) 0.25124(5) 0.58868(4) 0.0363 Uani
Mo5 Mo 0.44498(3) 0.36443(4) 0.54647(4) 0.0282 Uani
Mo6 Mo 0.57666(4) 0.47800(5) 0.70859(5) 0.0387 Uani
Mo7 Mo 0.57688(3) 0.25144(5) 0.70767(4) 0.0366 Uani
P1 P 0.5000 0.36459(15) 0.7500 0.0162 Uani
O17 O 0.5377(4) 0.4458(5) 0.7708(5) 0.0168 Uani
O18 O 0.4468(4) 0.3620(5) 0.6575(5) 0.0179 Uani
O19 O 0.5407(4) 0.2865(5) 0.7728(5) 0.0201 Uani
O20 O 0.4847(4) 0.3635(6) 0.8014(6) 0.0217 Uani
O21 O 0.4267(3) 0.5701(6) 0.6453(4) 0.0856 Uani
O22 O 0.6320(3) 0.4834(6) 0.8275(4) 0.0878 Uani
O23 O 0.5000 0.6978(5) 0.7500 0.0915 Uani
O24 O 0.5213(6) 0.1778(7) 0.6995(7) 0.0310 Uani
O25 O 0.4238(4) 0.1617(5) 0.6416(5) 0.0958 Uani
O26 O 0.3679(4) 0.2462(4) 0.6744(4) 0.0738 Uani
O27 O 0.3978(4) 0.4479(4) 0.5391(6) 0.0742 Uani
O28 O 0.5345(3) 0.5671(5) 0.7062(4) 0.0778 Uani
O29 O 0.3052(3) 0.1997(5) 0.5105(4) 0.0829 Uani
O30 O 0.3391(3) 0.3648(4) 0.5674(5) 0.0593 Uani
O31 O 0.6112(3) 0.1999(5) 0.6854(4) 0.0737 Uani
O32 O 0.3959(3) 0.2811(4) 0.5368(5) 0.0572 Uani
O33 O 0.5000 0.0320(5) 0.7500 0.0501 Uani
O34 O 0.4193(3) 0.3638(3) 0.4526(4) 0.0558 Uani
O35 O 0.5065(2) 0.4466(3) 0.6003(4) 0.0531 Uani
O36 O 0.6042(3) 0.3646(3) 0.7210(4) 0.0524 Uani
O37 O 0.5056(2) 0.2800(4) 0.5994(4) 0.0517 Uani
O38 O 0.6151(3) 0.5303(4) 0.6929(4) 0.0482 Uani
O39 O 0.3081(2) 0.5329(3) 0.5115(3) 0.0375 Uani
O17A O 0.4623(4) 0.4458(5) 0.7292(5) 0.0168 Uani
O18A O 0.5532(4) 0.3620(5) 0.8425(5) 0.0179 Uani
O19A O 0.4593(4) 0.2865(5) 0.7272(5) 0.0201 Uani
O20A O 0.5153(4) 0.3635(6) 0.6986(6) 0.0217 Uani
Mo3A Mo 0.63067(3) 0.47805(6) 0.91178(4) 0.0378 Uani
Mo4A Mo 0.63274(3) 0.25124(5) 0.91132(4) 0.0363 Uani
Mo5A Mo 0.55502(3) 0.36443(4) 0.95353(4) 0.0282 Uani
Mo6A Mo 0.42334(4) 0.47800(5) 0.79141(5) 0.0387 Uani
Mo7A Mo 0.42312(3) 0.25144(5) 0.79233(4) 0.0366 Uani
O21A O 0.5733(3) 0.5701(6) 0.8547(4) 0.0856 Uani
O22A O 0.3680(3) 0.4834(6) 0.6725(4) 0.0878 Uani
O24A O 0.4787(6) 0.1778(7) 0.8005(7) 0.0310 Uani
O25A O 0.5762(4) 0.1617(5) 0.8584(5) 0.0958 Uani
O26A O 0.6321(4) 0.2462(4) 0.8256(4) 0.0738 Uani
O27A O 0.6022(4) 0.4479(4) 0.9609(6) 0.0742 Uani
O28A O 0.4655(3) 0.5671(5) 0.7938(4) 0.0778 Uani
O29A O 0.6948(3) 0.1997(5) 0.9895(4) 0.0829 Uani
O30A O 0.6609(3) 0.3648(4) 0.9326(5) 0.0593 Uani
O31A O 0.3888(3) 0.1999(5) 0.8146(4) 0.0737 Uani
O32A O 0.6041(3) 0.2811(4) 0.9632(5) 0.0572 Uani
O34A O 0.5807(3) 0.3638(3) 1.0474(4) 0.0558 Uani
O35A O 0.4935(2) 0.4466(3) 0.8997(4) 0.0531 Uani
O36A O 0.3958(3) 0.3646(3) 0.7790(4) 0.0524 Uani
O37A O 0.4944(2) 0.2800(4) 0.9006(4) 0.0517 Uani
O38A O 0.3849(3) 0.5303(4) 0.8071(4) 0.0482 Uani
O39A O 0.6919(2) 0.5329(3) 0.9885(3) 0.0375 Uani
O40 O 0.2377(3) 1.1435(4) 0.3367(5) 0.0679 Uani
H23 H 0.2361 1.1515 0.3728 0.0810 Uiso
H24 H 0.2039 1.1539 0.2884 0.0810 Uiso
Pr1 Pr 0.331271(17) 0.87141(2) 0.48605(2) 0.0182 Uani
Pr2 Pr 0.610522(17) 0.86318(2) 0.67293(2) 0.0196 Uani
O1 O 0.2530(2) 0.7679(3) 0.3723(3) 0.0279 Uani
O2 O 0.2236(2) 0.6517(3) 0.2946(3) 0.0289 Uani
O3 O 0.4405(2) 0.8564(3) 0.5694(3) 0.0308 Uani
O4 O 0.5203(2) 0.7839(3) 0.6136(3) 0.0310 Uani
O5 O 0.6341(3) 0.9729(3) 0.6176(3) 0.0355 Uani
O6 O 0.6741(3) 1.0967(3) 0.6263(3) 0.0330 Uani
O7 O 0.6225(2) 0.8835(3) 0.7952(3) 0.0323 Uani
O8 O 0.6571(3) 0.9535(3) 0.9086(3) 0.0350 Uani
O9 O 0.2473(2) 0.8378(3) 0.4809(4) 0.0367 Uani
H1 H 0.2390 0.8872 0.4871 0.0450 Uiso
H2 H 0.2145 0.8145 0.4389 0.0450 Uiso
O10 O 0.2466(3) 0.9725(4) 0.3885(4) 0.0572 Uani
H3 H 0.2472 1.0220 0.3746 0.0690 Uiso
H4 H 0.2140 0.9643 0.3755 0.0690 Uiso
O11 O 0.3778(3) 1.0175(3) 0.5153(4) 0.0429 Uani
H5 H 0.3621 1.0381 0.4690 0.0510 Uiso
H6 H 0.3878 1.0570 0.5484 0.0510 Uiso
O12 O 0.3670(2) 0.7647(3) 0.6028(3) 0.0357 Uani
H7 H 0.4029 0.7459 0.6379 0.0430 Uiso
H8 H 0.3605 0.7913 0.6298 0.0430 Uiso
O13 O 0.5270(2) 0.9767(3) 0.6222(3) 0.0390 Uani
H9 H 0.5399 1.0056 0.6638 0.0480 Uiso
H10 H 0.4968 0.9487 0.6044 0.0480 Uiso
O14 O 0.5325(3) 0.8692(4) 0.5102(3) 0.0506 Uani
H11 H 0.5128 0.9094 0.4760 0.0600 Uiso
H12 H 0.5271 0.8248 0.4843 0.0600 Uiso
O15 O 0.6344(2) 0.7182(3) 0.7356(4) 0.0503 Uani
H13 H 0.6193 0.6708 0.7121 0.0600 Uiso
H14 H 0.6719 0.7142 0.7729 0.0600 Uiso
O16 O 0.6602(3) 0.7914(4) 0.6294(4) 0.0481 Uani
H15 H 0.6425 0.7633 0.5846 0.0580 Uiso
H16 H 0.6823 0.8288 0.6332 0.0580 Uiso
N1 N 0.3667(2) 0.7339(3) 0.4640(3) 0.0179 Uani
N2 N 0.6618(2) 1.0014(3) 0.7578(3) 0.0174 Uani
C1 C 0.3277(3) 0.6760(4) 0.4068(4) 0.0210 Uani
C2 C 0.3461(3) 0.6008(4) 0.3959(5) 0.0269 Uani
H17 H 0.3175 0.5609 0.3541 0.0320 Uiso
C3 C 0.4068(3) 0.5855(5) 0.4469(5) 0.0291 Uani
H18 H 0.4205 0.5340 0.4418 0.0350 Uiso
C4 C 0.4469(3) 0.6455(4) 0.5049(5) 0.0266 Uani
H19 H 0.4886 0.6365 0.5396 0.0320 Uiso
C5 C 0.4258(3) 0.7198(4) 0.5124(4) 0.0207 Uani
C6 C 0.2632(3) 0.6994(4) 0.3540(4) 0.0212 Uani
C7 C 0.4655(3) 0.7912(5) 0.5700(4) 0.0249 Uani
C8 C 0.6849(3) 1.0549(4) 0.7390(4) 0.0195 Uani
C9 C 0.7260(4) 1.1174(5) 0.7932(5) 0.0314 Uani
H20 H 0.7446 1.1514 0.7806 0.0380 Uiso
C10 C 0.7390(4) 1.1288(5) 0.8667(5) 0.0364 Uani
H21 H 0.7659 1.1721 0.9050 0.0440 Uiso
C11 C 0.7124(3) 1.0766(4) 0.8832(4) 0.0268 Uani
H22 H 0.7199 1.0847 0.9325 0.0320 Uiso
C12 C 0.6747(3) 1.0125(4) 0.8286(4) 0.0207 Uani
C13 C 0.6627(3) 1.0412(4) 0.6544(4) 0.0220 Uani
C14 C 0.6490(3) 0.9457(5) 0.8456(4) 0.0255 Uani
Pr1A Pr 0.668729(17) 0.87141(2) 1.01395(2) 0.0182 Uani
Pr1D Pr 0.668729(17) 1.12859(2) 0.51395(2) 0.0182 Uani
Pr2G Pr 0.110522(17) 0.63682(2) 0.17293(2) 0.0196 Uani
O2G O 0.7236(2) 0.8483(3) 0.7946(3) 0.0289 Uani
O6D O 0.3259(3) 0.9033(3) 0.3737(3) 0.0330 Uani
O8A O 0.3429(3) 0.9535(3) 0.5914(3) 0.0350 Uani
loop_
_atom_site_aniso_label
_atom_site_aniso_U_11
_atom_site_aniso_U_22
_atom_site_aniso_U_33
_atom_site_aniso_U_23
_atom_site_aniso_U_13
_atom_site_aniso_U_12
Mo1 0.1095(13) 0.0075(5) 0.0621(9) 0.000 0.0667(10) 0.000
Mo2 0.0189(5) 0.0092(5) 0.0412(7) 0.000 0.0057(5) 0.000
Mo3 0.0208(4) 0.0671(6) 0.0228(4) 0.0192(4) 0.0138(4) 0.0197(4)
Mo4 0.0337(4) 0.0248(4) 0.0158(4) 0.0006(3) 0.0034(3) -0.0131(3)
Mo5 0.0301(4) 0.0332(4) 0.0214(4) -0.0001(3) 0.0177(3) 0.0001(3)
Mo6 0.0475(5) 0.0444(5) 0.0399(5) 0.0006(4) 0.0360(4) -0.0067(4)
Mo7 0.0397(4) 0.0443(4) 0.0304(4) 0.0000(3) 0.0257(4) 0.0090(3)
P1 0.0178(12) 0.0154(12) 0.0129(12) 0.000 0.0095(11) 0.000
O17 0.020(5) 0.011(4) 0.016(5) 0.003(4) 0.011(4) 0.002(4)
O18 0.013(5) 0.014(5) 0.015(5) 0.003(4) 0.005(4) 0.005(4)
O19 0.021(5) 0.019(5) 0.016(5) 0.001(4) 0.011(5) 0.007(4)
O20 0.022(5) 0.028(5) 0.021(5) 0.001(4) 0.017(5) 0.001(4)
O21 0.036(4) 0.186(9) 0.025(3) -0.004(4) 0.017(3) -0.053(5)
O22 0.061(5) 0.174(8) 0.029(4) 0.029(4) 0.031(4) 0.077(5)
O23 0.182(13) 0.011(5) 0.158(12) 0.000 0.146(12) 0.000
O24 0.038(8) 0.023(7) 0.028(7) 0.000(5) 0.021(7) 0.010(5)
O25 0.171(9) 0.073(5) 0.058(5) 0.039(4) 0.084(6) 0.087(6)
O26 0.130(7) 0.045(4) 0.035(4) 0.015(3) 0.052(5) 0.035(4)
O27 0.117(6) 0.025(3) 0.177(8) 0.024(4) 0.138(7) 0.019(4)
O28 0.052(4) 0.129(7) 0.020(3) -0.005(4) 0.012(3) 0.048(5)
O29 0.083(5) 0.132(7) 0.042(4) -0.058(4) 0.046(4) -0.088(5)
O30 0.070(5) 0.046(4) 0.111(6) 0.042(4) 0.081(5) 0.030(3)
O31 0.050(4) 0.104(6) 0.041(4) -0.005(4) 0.021(4) 0.045(4)
O32 0.051(4) 0.028(3) 0.113(6) 0.033(3) 0.064(4) 0.019(3)
O33 0.052(6) 0.020(4) 0.057(6) 0.000 0.029(5) 0.000
O34 0.094(6) 0.033(3) 0.024(3) 0.002(3) 0.034(4) 0.001(3)
O35 0.022(3) 0.026(3) 0.049(4) 0.002(3) 0.000(3) 0.001(2)
O36 0.024(3) 0.038(4) 0.049(4) 0.008(3) 0.007(3) -0.002(3)
O37 0.022(3) 0.029(3) 0.063(4) 0.007(3) 0.013(3) 0.003(3)
O38 0.047(4) 0.059(4) 0.041(4) -0.004(3) 0.031(3) -0.022(3)
O39 0.025(3) 0.032(3) 0.037(3) -0.003(3) 0.014(3) 0.009(2)
O17A 0.02 0.011 0.016 -0.003 0.011 -0.002
O18A 0.013 0.014 0.015 -0.003 0.005 -0.005
O19A 0.021 0.019 0.016 -0.001 0.011 -0.007
O20A 0.022 0.028 0.021 -0.001 0.017 -0.001
Mo3A 0.0208 0.0671 0.0228 -0.0192 0.0138 -0.0197
Mo4A 0.0337 0.0248 0.0158 -0.0006 0.0034 0.0131
Mo5A 0.0301 0.0332 0.0214 0.0001 0.0177 -0.0001
Mo6A 0.0475 0.0444 0.0399 -0.0006 0.036 0.0067
Mo7A 0.0397 0.0443 0.0304 0 0.0257 -0.009
O21A 0.036 0.186 0.025 0.004 0.017 0.053
O22A 0.061 0.174 0.029 -0.029 0.031 -0.077
O24A 0.038 0.023 0.028 0 0.021 -0.01
O25A 0.171 0.073 0.058 -0.039 0.084 -0.087
O26A 0.13 0.045 0.035 -0.015 0.052 -0.035
O27A 0.117 0.025 0.177 -0.024 0.138 -0.019
O28A 0.052 0.129 0.02 0.005 0.012 -0.048
O29A 0.083 0.132 0.042 0.058 0.046 0.088
O30A 0.07 0.046 0.111 -0.042 0.081 -0.03
O31A 0.05 0.104 0.041 0.005 0.021 -0.045
O32A 0.051 0.028 0.113 -0.033 0.064 -0.019
O34A 0.094 0.033 0.024 -0.002 0.034 -0.001
O35A 0.022 0.026 0.049 -0.002 0 -0.001
O36A 0.024 0.038 0.049 -0.008 0.007 0.002
O37A 0.022 0.029 0.063 -0.007 0.013 -0.003
O38A 0.047 0.059 0.041 0.004 0.031 0.022
O39A 0.025 0.032 0.037 0.003 0.014 -0.009
O40 0.045(4) 0.069(5) 0.065(5) 0.004(4) 0.028(4) 0.007(4)
Pr1 0.0201(2) 0.0209(2) 0.0176(2) 0.00104(16) 0.01442(18) 0.00186(16)
Pr2 0.0175(2) 0.0223(2) 0.0161(2) -0.00144(16) 0.01032(18) -0.00224(16)
O1 0.020(3) 0.031(3) 0.030(3) -0.008(2) 0.016(3) -0.003(2)
O2 0.021(3) 0.028(3) 0.028(3) -0.006(2) 0.013(3) -0.005(2)
O3 0.017(3) 0.032(3) 0.033(3) -0.007(2) 0.013(3) -0.001(2)
O4 0.014(3) 0.030(3) 0.036(3) -0.002(2) 0.012(3) -0.003(2)
O5 0.057(4) 0.031(3) 0.031(3) -0.010(2) 0.035(3) -0.016(3)
O6 0.053(4) 0.030(3) 0.033(3) -0.003(2) 0.036(3) -0.008(3)
O7 0.046(3) 0.033(3) 0.025(3) -0.005(2) 0.027(3) -0.009(3)
O8 0.056(4) 0.037(3) 0.028(3) 0.003(2) 0.035(3) 0.003(3)
O9 0.039(3) 0.028(3) 0.058(4) -0.006(3) 0.039(3) -0.004(3)
O10 0.047(4) 0.060(4) 0.074(5) 0.044(4) 0.045(4) 0.032(3)
O11 0.079(5) 0.030(3) 0.042(4) -0.010(3) 0.050(4) -0.015(3)
O12 0.041(3) 0.036(3) 0.031(3) 0.016(3) 0.025(3) 0.021(3)
O13 0.032(3) 0.039(3) 0.041(3) -0.009(3) 0.023(3) -0.004(3)
O14 0.052(4) 0.048(4) 0.017(3) -0.005(3) 0.010(3) -0.007(3)
O15 0.027(3) 0.028(3) 0.048(4) 0.005(3) 0.007(3) -0.009(3)
O16 0.047(4) 0.054(4) 0.053(4) -0.022(3) 0.038(4) -0.011(3)
N1 0.015(3) 0.025(3) 0.014(3) 0.004(2) 0.010(3) 0.001(2)
N2 0.020(3) 0.018(3) 0.016(3) 0.001(2) 0.013(3) 0.001(2)
C1 0.022(4) 0.023(4) 0.017(4) -0.002(3) 0.013(3) -0.004(3)
C2 0.035(4) 0.015(4) 0.030(4) 0.000(3) 0.022(4) 0.000(3)
C3 0.039(5) 0.027(4) 0.030(4) 0.002(3) 0.027(4) 0.004(4)
C4 0.022(4) 0.031(4) 0.030(4) 0.006(3) 0.019(4) 0.007(3)
C5 0.024(4) 0.020(4) 0.023(4) 0.000(3) 0.018(4) -0.003(3)
C6 0.020(4) 0.026(4) 0.015(4) -0.002(3) 0.011(3) -0.005(3)
C7 0.022(4) 0.026(4) 0.023(4) 0.003(3) 0.014(4) -0.003(3)
C8 0.022(4) 0.018(4) 0.020(4) 0.001(3) 0.015(3) 0.003(3)
C9 0.031(4) 0.032(4) 0.024(4) -0.004(3) 0.016(4) -0.010(3)
C10 0.040(5) 0.031(4) 0.018(4) -0.010(3) 0.012(4) -0.009(4)
C11 0.034(4) 0.023(4) 0.017(4) -0.002(3) 0.015(4) 0.003(3)
C12 0.026(4) 0.023(4) 0.018(4) 0.004(3) 0.017(3) 0.006(3)
C13 0.027(4) 0.023(4) 0.026(4) -0.001(3) 0.022(4) 0.000(3)
C14 0.029(4) 0.027(4) 0.026(4) 0.013(3) 0.021(4) 0.013(3)
Pr1A 0.0201 0.0209 0.0176 -0.00104 0.01442 -0.00186
Pr1D 0.0201 0.0209 0.0176 0.00104 0.01442 0.00186
Pr2G 0.0175 0.0223 0.0161 0.00144 0.01032 0.00224
O2G 0.021 0.028 0.028 0.006 0.013 0.005
O6D 0.053 0.03 0.033 -0.003 0.036 -0.008
O8A 0.056 0.037 0.028 -0.003 0.035 -0.003
loop_
_geom_bond_atom_site_label_1
_geom_bond_atom_site_label_2
_geom_bond_site_symmetry_1
_geom_bond_site_symmetry_2
Pr1 O1 1_555 1_555
Pr2 O4 1_555 1_555
O1 C6 1_555 1_555
O2 C6 1_555 1_555
O3 Pr1 1_555 1_555
O4 C7 1_555 1_555
O5 Pr2 1_555 1_555
O6 C13 1_555 1_555
O7 Pr2 1_555 1_555
O8 C14 1_555 1_555
O9 Pr1 1_555 1_555
H1 O9 1_555 1_555
H2 O9 1_555 1_555
O10 Pr1 1_555 1_555
H3 O10 1_555 1_555
H4 O10 1_555 1_555
O11 Pr1 1_555 1_555
H5 O11 1_555 1_555
H6 O11 1_555 1_555
O12 Pr1 1_555 1_555
H7 O12 1_555 1_555
H8 O12 1_555 1_555
O13 Pr2 1_555 1_555
H9 O13 1_555 1_555
H10 O13 1_555 1_555
O14 Pr2 1_555 1_555
H11 O14 1_555 1_555
H12 O14 1_555 1_555
O15 Pr2 1_555 1_555
H13 O15 1_555 1_555
H14 O15 1_555 1_555
O16 Pr2 1_555 1_555
H15 O16 1_555 1_555
H16 O16 1_555 1_555
N1 Pr1 1_555 1_555
N2 Pr2 1_555 1_555
C1 N1 1_555 1_555
C2 C1 1_555 1_555
H17 C2 1_555 1_555
C3 C2 1_555 1_555
H18 C3 1_555 1_555
C4 C3 1_555 1_555
H19 C4 1_555 1_555
C5 N1 1_555 1_555
C6 C1 1_555 1_555
C7 O3 1_555 1_555
C8 N2 1_555 1_555
C9 C8 1_555 1_555
H20 C9 1_555 1_555
C10 C9 1_555 1_555
H21 C10 1_555 1_555
C11 C10 1_555 1_555
H22 C11 1_555 1_555
C12 N2 1_555 1_555
C13 O5 1_555 1_555
C14 O7 1_555 1_555
Mo1 O19 1_555 1_555
Mo2 O17 1_555 1_555
Mo3 O18 1_555 1_555
Mo4 O18 1_555 1_555
Mo5 O18 1_555 1_555
Mo6 O17 1_555 1_555
Mo7 O19 1_555 1_555
P1 O17 1_555 1_555
O17 O20A 1_555 1_555
O18 P1 1_555 1_555
O19 P1 1_555 1_555
O20 P1 1_555 1_555
O21 Mo2 1_555 1_555
O22 Mo6 1_555 1_555
O23 Mo2 1_555 1_555
O24 Mo1 1_555 1_555
O25 Mo1 1_555 1_555
O26 Mo4 1_555 1_555
O27 Mo3 1_555 1_555
O28 Mo2 1_555 1_555
O29 Mo4 1_555 1_555
O30 Mo3 1_555 1_555
O31 Mo7 1_555 1_555
O32 Mo4 1_555 1_555
O33 Mo1 1_555 1_555
O34 Mo5 1_555 1_555
O35 Mo5 1_555 1_555
O36 Mo6 1_555 1_555
O37 Mo5 1_555 1_555
O38 Mo6 1_555 1_555
O39 Mo3 1_555 1_555
O40 H23 1_555 1_555
H24 O40 1_555 1_555
Pr1A O8 1_555 1_555
Pr1D O6 1_555 1_555
Pr2G O2 1_555 1_555
O2G Pr2 1_555 1_555
O6D Pr1 1_555 1_555
O8A Pr1 1_555 1_555
O17A Mo2 1_555 1_555
O18A P1 1_555 1_555
O19A Mo1 1_555 1_555
O20A Mo5 1_555 1_555
Mo3A O17 1_555 1_555
Mo4A O19 1_555 1_555
Mo5A O20 1_555 1_555
Mo6A O20 1_555 1_555
Mo7A O20 1_555 1_555
O21A Mo2 1_555 1_555
O22A Mo3 1_555 1_555
O24A Mo1 1_555 1_555
O25A Mo1 1_555 1_555
O26A Mo7 1_555 1_555
O27A Mo3A 1_555 1_555
O28A Mo2 1_555 1_555
O29A Mo4A 1_555 1_555
O30A Mo3A 1_555 1_555
O31A Mo7A 1_555 1_555
O32A Mo4A 1_555 1_555
O34A Mo5A 1_555 1_555
O35A Mo5A 1_555 1_555
O36A Mo6A 1_555 1_555
O37A Mo5A 1_555 1_555
O38A Mo6A 1_555 1_555
O39A Mo3A 1_555 1_555
C4 C5 1_555 1_555
C5 C7 1_555 1_555
C8 C13 1_555 1_555
C11 C12 1_555 1_555
C12 C14 1_555 1_555
Mo3 O21 1_555 1_555
Mo3 O17A 1_555 1_555
Mo4 O25 1_555 1_555
Mo4 O30 1_555 1_555
Mo4 O19A 1_555 1_555
Mo5 O27 1_555 1_555
Mo5 O32 1_555 1_555
Mo6 O28 1_555 1_555
Mo6 O35 1_555 1_555
Mo6 O20A 1_555 1_555
Mo7 O24 1_555 1_555
Mo7 O36 1_555 1_555
Mo7 O37 1_555 1_555
Mo7 O20A 1_555 1_555
P1 O17A 1_555 1_555
P1 O19A 1_555 1_555
P1 O20A 1_555 1_555
O18 O19A 1_555 1_555
O18 O20A 1_555 1_555
O19 O18A 1_555 1_555
O19 O20A 1_555 1_555
O20 O17A 1_555 1_555
O20 O18A 1_555 1_555
O20 O19A 1_555 1_555
O22 Mo3A 1_555 1_555
O26 Mo7A 1_555 1_555
O17A Mo6A 1_555 1_555
O18A Mo3A 1_555 1_555
O18A Mo4A 1_555 1_555
O18A Mo5A 1_555 1_555
O19A Mo7A 1_555 1_555
Mo3A O21A 1_555 1_555
Mo4A O25A 1_555 1_555
Mo4A O26A 1_555 1_555
Mo4A O30A 1_555 1_555
Mo5A O27A 1_555 1_555
Mo5A O32A 1_555 1_555
Mo6A O22A 1_555 1_555
Mo6A O28A 1_555 1_555
Mo6A O35A 1_555 1_555
Mo7A O24A 1_555 1_555
Mo7A O36A 1_555 1_555
Mo7A O37A 1_555 1_555

#END
