
#######################################################################
#
#                 Cambridge Crystallographic Data Centre
#                                CCDC 
#
#######################################################################
#
# If this CIF has been generated from an entry in the Cambridge 
# Structural Database, then it will include bibliographic, chemical, 
# crystal, experimental, refinement or atomic coordinate data resulting 
# from the CCDC's data processing and validation procedures.
#
#######################################################################

data_LIBQIY
_chemical_formula_moiety         '(C14 H24 Mo12 N2 O61 P1 Sm2 2+)n'
_symmetry_cell_setting           monoclinic
_symmetry_space_group_name_H-M   'C 2/c'
_symmetry_Int_Tables_number      15
_space_group_name_Hall           '-C 2yc'
loop_
_symmetry_equiv_pos_site_id
_symmetry_equiv_pos_as_xyz
1 x,y,z
2 -x,y,1/2-z
3 1/2+x,1/2+y,z
4 1/2-x,1/2+y,1/2-z
5 -x,-y,-z
6 x,-y,1/2+z
7 1/2-x,1/2-y,-z
8 1/2+x,1/2-y,1/2+z
_cell_length_a                   30.4265(19)
_cell_length_b                   15.6032(10)
_cell_length_c                   21.9006(13)
_cell_angle_alpha                90
_cell_angle_beta                 133.0160(10)
_cell_angle_gamma                90
_cell_volume                     7602.14
loop_
_atom_site_label
_atom_site_type_symbol
_atom_site_fract_x
_atom_site_fract_y
_atom_site_fract_z
Sm1 Sm -0.16852(2) 0.87253(3) -0.01430(3)
Sm2 Sm 0.11041(2) 0.86397(3) 0.17475(3)
O24 O -0.2513(3) 0.8382(4) -0.0188(5)
H1 H -0.2596 0.8876 -0.0125
H2 H -0.2841 0.8148 -0.0608
O25 O -0.2519(4) 0.9732(5) -0.1090(5)
O26 O -0.1234(4) 1.0186(4) 0.0138(5)
O27 O -0.1336(3) 0.7658(4) 0.0996(4)
H3 H -0.0978 0.7469 0.1347
H4 H -0.1402 0.7923 0.1267
O28 O 0.0282(3) 0.9768(5) 0.1235(5)
O29 O 0.0330(4) 0.8674(5) 0.0132(4)
O30 O 0.1323(3) 0.7196(4) 0.2343(5)
O31 O 0.1589(4) 0.7913(5) 0.1325(5)
H5 H 0.1412 0.7632 0.0877
H6 H 0.1810 0.8287 0.1363
O32 O -0.2476(3) 0.7720(4) -0.1287(4)
O33 O -0.2776(3) 0.6534(4) -0.2049(4)
O34 O -0.0600(3) 0.8593(4) 0.0695(4)
O35 O 0.0211(3) 0.7868(4) 0.1157(4)
O36 O 0.1340(3) 0.9699(4) 0.1180(4)
O37 O 0.1726(3) 1.0947(4) 0.1241(4)
O38 O 0.1216(3) 0.8829(4) 0.2951(4)
O39 O 0.1568(3) 0.9523(4) 0.4095(4)
N1 N -0.1342(3) 0.7370(5) -0.0361(4)
N2 N 0.1617(3) 1.0006(4) 0.2582(4)
C1 C -0.1731(4) 0.6785(6) -0.0940(5)
C2 C -0.1547(5) 0.6024(6) -0.1043(6)
H7 H -0.1831 0.5616 -0.1453
C3 C -0.0932(4) 0.5882(6) -0.0526(6)
H8 H -0.0792 0.5370 -0.0580
C4 C -0.0529(4) 0.6482(6) 0.0060(6)
H9 H -0.0109 0.6392 0.0413
C5 C -0.0744(4) 0.7223(6) 0.0130(6)
C6 C -0.2380(4) 0.7024(6) -0.1465(6)
C7 C -0.0344(4) 0.7939(6) 0.0716(6)
C8 C 0.1848(4) 1.0539(5) 0.2383(6)
C9 C 0.2255(4) 1.1166(7) 0.2921(6)
H10 H 0.2438 1.1510 0.2787
C10 C 0.2393(5) 1.1283(6) 0.3663(6)
H11 H 0.2666 1.1718 0.4044
C11 C 0.2126(4) 1.0755(6) 0.3840(6)
H12 H 0.2204 1.0839 0.4336
C12 C 0.1749(4) 1.0112(6) 0.3297(5)
C13 C 0.1625(4) 1.0384(6) 0.1535(6)
C14 C 0.1483(4) 0.9442(6) 0.3457(6)
Sm1A Sm 0.16852(2) 0.87253(3) 0.51430(3)
Sm1D Sm 0.16852(2) 1.12747(3) 0.01430(3)
Sm2G Sm -0.38959(2) 0.63603(3) -0.32525(3)
O33G O 0.2224(3) 0.8466(4) 0.2951(4)
O37D O -0.1726(3) 0.9053(4) -0.1241(4)
O39A O -0.1568(3) 0.9523(4) 0.0905(4)
O40 O -0.2609(4) 1.1434(6) -0.1624(6)
Mo1 Mo 0.0000 0.13702(9) 0.2500
Mo2 Mo 0.0000 0.59517(8) 0.2500
Mo3 Mo -0.13108(4) 0.47931(8) 0.08780(6)
Mo4 Mo -0.13326(5) 0.25165(6) 0.08818(6)
Mo5 Mo -0.05489(4) 0.36531(6) 0.04596(5)
Mo6 Mo 0.07735(5) 0.47920(7) 0.20854(6)
Mo7 Mo 0.07761(4) 0.25174(6) 0.20761(6)
P1 P 0.0000 0.36533(19) 0.2500
O1 O 0.0383(5) 0.4472(7) 0.2706(7)
O2 O -0.0532(5) 0.3628(7) 0.1577(7)
O3 O 0.0416(5) 0.2876(7) 0.2734(7)
O4 O -0.0146(5) 0.3635(7) 0.3022(8)
O5 O -0.0741(4) 0.5716(8) 0.1440(5)
O6 O 0.1328(5) 0.4858(8) 0.3276(6)
O7 O 0.0000 0.7003(8) 0.2500
O8 O 0.0221(7) 0.1767(10) 0.1999(9)
O9 O -0.0758(6) 0.1621(7) 0.1419(6)
O10 O -0.1333(5) 0.2466(6) 0.1738(5)
O11 O -0.1025(4) 0.4495(5) 0.0386(7)
O12 O 0.0346(4) 0.5688(7) 0.2063(5)
O13 O -0.1948(5) 0.1991(7) 0.0106(6)
O14 O -0.1616(4) 0.3659(5) 0.0670(6)
O15 O 0.1117(4) 0.2001(7) 0.1850(6)
O16 O -0.1045(4) 0.2819(5) 0.0358(7)
O17 O 0.0000 0.0323(6) 0.2500
O18 O -0.0805(5) 0.3651(5) -0.0484(5)
O19 O 0.0070(3) 0.4487(5) 0.1001(5)
O20 O 0.1052(3) 0.3649(5) 0.2208(5)
O21 O 0.0058(3) 0.2803(5) 0.0990(5)
O22 O 0.1167(4) 0.5313(5) 0.1934(5)
O23 O -0.1924(3) 0.5343(5) 0.0109(4)
O1A O -0.0383(5) 0.4472(7) 0.2294(7)
O2A O 0.0532(5) 0.3628(7) 0.3423(7)
O3A O -0.0416(5) 0.2876(7) 0.2266(7)
O4A O 0.0146(5) 0.3635(7) 0.1978(8)
Mo3A Mo 0.13108(4) 0.47931(8) 0.41220(6)
Mo4A Mo 0.13326(5) 0.25165(6) 0.41182(6)
Mo5A Mo 0.05489(4) 0.36531(6) 0.45404(5)
Mo6A Mo -0.07735(5) 0.47920(7) 0.29146(6)
Mo7A Mo -0.07761(4) 0.25174(6) 0.29239(6)
O5A O 0.0741(4) 0.5716(8) 0.3560(5)
O6A O -0.1328(5) 0.4858(8) 0.1724(6)
O8A O -0.0221(7) 0.1767(10) 0.3001(9)
O9A O 0.0758(6) 0.1621(7) 0.3581(6)
O10A O 0.1333(5) 0.2466(6) 0.3262(5)
O11A O 0.1025(4) 0.4495(5) 0.4614(7)
O12A O -0.0346(4) 0.5688(7) 0.2937(5)
O13A O 0.1948(5) 0.1991(7) 0.4894(6)
O14A O 0.1616(4) 0.3659(5) 0.4330(6)
O15A O -0.1117(4) 0.2001(7) 0.3150(6)
O16A O 0.1045(4) 0.2819(5) 0.4642(7)
O18A O 0.0805(5) 0.3651(5) 0.5484(5)
O19A O -0.0070(3) 0.4487(5) 0.3999(5)
O20A O -0.1052(3) 0.3649(5) 0.2792(5)
O21A O -0.0058(3) 0.2803(5) 0.4010(5)
O22A O -0.1167(4) 0.5313(5) 0.3066(5)
O23A O 0.1924(3) 0.5343(5) 0.4891(4)
loop_
_geom_bond_atom_site_label_1
_geom_bond_atom_site_label_2
_geom_bond_site_symmetry_1
_geom_bond_site_symmetry_2
Mo1 O3 1_555 1_555
Mo2 O1 1_555 1_555
Mo3 O2 1_555 1_555
Mo4 O2 1_555 1_555
Mo5 O2 1_555 1_555
Mo6 O1 1_555 1_555
Mo7 O3 1_555 1_555
P1 O1 1_555 1_555
O1 O4A 1_555 1_555
O2 P1 1_555 1_555
O3 P1 1_555 1_555
O4 P1 1_555 1_555
O5 Mo2 1_555 1_555
O6 Mo6 1_555 1_555
O7 Mo2 1_555 1_555
O8 Mo1 1_555 1_555
O9 Mo1 1_555 1_555
O10 Mo4 1_555 1_555
O11 Mo3 1_555 1_555
O12 Mo2 1_555 1_555
O13 Mo4 1_555 1_555
O14 Mo3 1_555 1_555
O15 Mo7 1_555 1_555
O16 Mo4 1_555 1_555
O17 Mo1 1_555 1_555
O18 Mo5 1_555 1_555
O19 Mo5 1_555 1_555
O20 Mo6 1_555 1_555
O21 Mo5 1_555 1_555
O22 Mo6 1_555 1_555
O23 Mo3 1_555 1_555
Sm1 O24 1_555 1_555
Sm2 O28 1_555 1_555
O24 H1 1_555 1_555
H2 O24 1_555 1_555
O25 Sm1 1_555 1_555
O26 Sm1 1_555 1_555
O27 Sm1 1_555 1_555
H3 O27 1_555 1_555
H4 O27 1_555 1_555
O29 Sm2 1_555 1_555
O30 Sm2 1_555 1_555
O31 Sm2 1_555 1_555
H5 O31 1_555 1_555
H6 O31 1_555 1_555
O32 Sm1 1_555 1_555
O33 C6 1_555 1_555
O34 Sm1 1_555 1_555
O35 Sm2 1_555 1_555
O36 Sm2 1_555 1_555
O37 C13 1_555 1_555
O38 Sm2 1_555 1_555
O39 C14 1_555 1_555
N1 Sm1 1_555 1_555
N2 Sm2 1_555 1_555
C1 N1 1_555 1_555
C2 C1 1_555 1_555
H7 C2 1_555 1_555
C3 C2 1_555 1_555
H8 C3 1_555 1_555
C4 C3 1_555 1_555
H9 C4 1_555 1_555
C5 N1 1_555 1_555
C6 O32 1_555 1_555
C7 O34 1_555 1_555
C8 N2 1_555 1_555
C9 C8 1_555 1_555
H10 C9 1_555 1_555
C10 C9 1_555 1_555
H11 C10 1_555 1_555
C11 C10 1_555 1_555
H12 C11 1_555 1_555
C12 N2 1_555 1_555
C13 O36 1_555 1_555
C14 O38 1_555 1_555
O1A Mo2 1_555 1_555
O2A P1 1_555 1_555
O3A Mo1 1_555 1_555
O4A Mo5 1_555 1_555
Mo3A O1 1_555 1_555
Mo4A O3 1_555 1_555
Mo5A O4 1_555 1_555
Mo6A O4 1_555 1_555
Mo7A O4 1_555 1_555
O5A Mo2 1_555 1_555
O6A Mo3 1_555 1_555
O8A Mo1 1_555 1_555
O9A Mo1 1_555 1_555
O10A Mo7 1_555 1_555
O11A Mo3A 1_555 1_555
O12A Mo2 1_555 1_555
O13A Mo4A 1_555 1_555
O14A Mo3A 1_555 1_555
O15A Mo7A 1_555 1_555
O16A Mo4A 1_555 1_555
O18A Mo5A 1_555 1_555
O19A Mo5A 1_555 1_555
O20A Mo6A 1_555 1_555
O21A Mo5A 1_555 1_555
O22A Mo6A 1_555 1_555
O23A Mo3A 1_555 1_555
Sm1A O39 1_555 1_555
Sm1D O37 1_555 1_555
Sm2G O33 1_555 1_555
O33G Sm2 1_555 1_555
O37D Sm1 1_555 1_555
O39A Sm1 1_555 1_555
Mo3 O5 1_555 1_555
Mo3 O1A 1_555 1_555
Mo4 O9 1_555 1_555
Mo4 O14 1_555 1_555
Mo4 O3A 1_555 1_555
Mo5 O11 1_555 1_555
Mo5 O16 1_555 1_555
Mo6 O12 1_555 1_555
Mo6 O19 1_555 1_555
Mo6 O4A 1_555 1_555
Mo7 O8 1_555 1_555
Mo7 O20 1_555 1_555
Mo7 O21 1_555 1_555
Mo7 O4A 1_555 1_555
P1 O1A 1_555 1_555
P1 O3A 1_555 1_555
P1 O4A 1_555 1_555
O2 O3A 1_555 1_555
O2 O4A 1_555 1_555
O3 O2A 1_555 1_555
O3 O4A 1_555 1_555
O4 O1A 1_555 1_555
O4 O2A 1_555 1_555
O4 O3A 1_555 1_555
O6 Mo3A 1_555 1_555
O10 Mo7A 1_555 1_555
O35 C7 1_555 1_555
C1 C6 1_555 1_555
C4 C5 1_555 1_555
C5 C7 1_555 1_555
C8 C13 1_555 1_555
C11 C12 1_555 1_555
C12 C14 1_555 1_555
O1A Mo6A 1_555 1_555
O2A Mo3A 1_555 1_555
O2A Mo4A 1_555 1_555
O2A Mo5A 1_555 1_555
O3A Mo7A 1_555 1_555
Mo3A O5A 1_555 1_555
Mo4A O9A 1_555 1_555
Mo4A O10A 1_555 1_555
Mo4A O14A 1_555 1_555
Mo5A O11A 1_555 1_555
Mo5A O16A 1_555 1_555
Mo6A O6A 1_555 1_555
Mo6A O12A 1_555 1_555
Mo6A O19A 1_555 1_555
Mo7A O8A 1_555 1_555
Mo7A O20A 1_555 1_555
Mo7A O21A 1_555 1_555

#END
