
#######################################################################
#
#                 Cambridge Crystallographic Data Centre
#                                CCDC 
#
#######################################################################
#
# If this CIF has been generated from an entry in the Cambridge 
# Structural Database, then it will include bibliographic, chemical, 
# crystal, experimental, refinement or atomic coordinate data resulting 
# from the CCDC's data processing and validation procedures.
#
#######################################################################

data_DODGOU
_chemical_formula_moiety         'C90 H72 Br2 N2 O15 Zn9'
_symmetry_cell_setting           orthorhombic
_symmetry_space_group_name_H-M   'P m m m'
_symmetry_Int_Tables_number      47
_space_group_name_Hall           '-P 2 2'
loop_
_symmetry_equiv_pos_site_id
_symmetry_equiv_pos_as_xyz
1 x,y,z
2 -x,-y,z
3 -x,y,-z
4 x,-y,-z
5 -x,-y,-z
6 x,y,-z
7 x,-y,z
8 -x,y,z
_cell_length_a                   10.2939(11)
_cell_length_b                   16.4035(15)
_cell_length_c                   18.242(3)
_cell_angle_alpha                90
_cell_angle_beta                 90
_cell_angle_gamma                90
_cell_volume                     3080.27
loop_
_atom_site_label
_atom_site_type_symbol
_atom_site_fract_x
_atom_site_fract_y
_atom_site_fract_z
Br1 Br 0.1820(2) 1.0000 0.5000
Zn1 Zn 0.0000 0.5000 0.42022(14)
O1 O 0.1356(7) 0.5872(4) 0.4408(4)
N1 N 0.0000 0.5000 0.3153(11)
C1 C 0.1607(13) 0.6136(7) 0.5000
C2 C 0.2346(13) 0.6960(6) 0.5000
C3 C 0.2711(11) 0.7324(6) 0.4361(6)
H1 H 0.2547 0.7059 0.3907
C4 C 0.3307(11) 0.8064(6) 0.4367(7)
H2 H 0.3498 0.8326 0.3916
C5 C 0.3632(13) 0.8431(7) 0.5000
C6 C 0.4314(10) 0.9269(6) 0.5000
C7 C 0.3661(16) 1.0000 0.5000
C8 C -0.0960(18) 0.5364(13) 0.2735(9)
H3 H -0.1617 0.5663 0.2983
C9 C -0.1021(18) 0.5318(16) 0.1975(8)
C10 C 0.0000 0.5000 0.1563(11)
C11 C 0.0000 0.5000 0.0796(10)
C12 C -0.1207(2) 0.5000 0.0449(6)
C13 C -0.2449(2) 0.5421(4) 0.0608(5)
H4 H -0.2411 0.5887 0.0916
C14 C -0.3611(2) 0.5204(6) 0.0357(5)
H5 H -0.3694 0.4741 0.0048
H6 H -0.4358 0.5511 0.0488
C15 C -0.224(4) 0.569(4) 0.190(3)
H7 H -0.2724 0.5289 0.1646
C16 C -0.315(6) 0.632(4) 0.199(4)
H8 H -0.2905 0.6810 0.2229
H9 H -0.4002 0.6257 0.1801
Br1A Br 0.8180(2) 1.0000 0.5000
O1B O 0.8644(7) 0.5872(4) 0.5592(4)
C1B C 0.8393(13) 0.6136(7) 0.5000
C2B C 0.7654(13) 0.6960(6) 0.5000
C3B C 0.7289(11) 0.7324(6) 0.5639(6)
H1B H 0.7453 0.7059 0.6093
C4B C 0.6693(11) 0.8064(6) 0.5633(7)
H2B H 0.6502 0.8326 0.6084
C5B C 0.6368(13) 0.8431(7) 0.5000
C6B C 0.5686(10) 0.9269(6) 0.5000
C7A C 0.6339(16) 1.0000 0.5000
O1C O 0.1356(7) 1.4128(4) 0.5592(4)
C1C C 0.1607(13) 1.3864(7) 0.5000
C2C C 0.2346(13) 1.3040(6) 0.5000
C3C C 0.2711(11) 1.2676(6) 0.5639(6)
H1C H 0.2547 1.2941 0.6093
C4C C 0.3307(11) 1.1936(6) 0.5633(7)
H2C H 0.3498 1.1674 0.6084
C5C C 0.3632(13) 1.1569(7) 0.5000
C6C C 0.4314(10) 1.0731(6) 0.5000
O1D O 0.8644(7) 1.4128(4) 0.5592(4)
C1A C 0.8393(13) 1.3864(7) 0.5000
C2A C 0.7654(13) 1.3040(6) 0.5000
C3D C 0.7289(11) 1.2676(6) 0.5639(6)
H1D H 0.7453 1.2941 0.6093
C4D C 0.6693(11) 1.1936(6) 0.5633(7)
H2D H 0.6502 1.1674 0.6084
C5A C 0.6368(13) 1.1569(7) 0.5000
C6A C 0.5686(10) 1.0731(6) 0.5000
O1E O 0.1356(7) 0.5872(4) 0.5592(4)
C3E C 0.2711(11) 0.7324(6) 0.5639(6)
H1E H 0.2547 0.7059 0.6093
C4E C 0.3307(11) 0.8064(6) 0.5633(7)
H2E H 0.3498 0.8326 0.6084
O1F O 0.1356(7) 1.4128(4) 0.4408(4)
C3F C 0.2711(11) 1.2676(6) 0.4361(6)
H1F H 0.2547 1.2941 0.3907
C4F C 0.3307(11) 1.1936(6) 0.4367(7)
H2F H 0.3498 1.1674 0.3916
O1G O 0.8644(7) 0.5872(4) 0.4408(4)
C3G C 0.7289(11) 0.7324(6) 0.4361(6)
H1G H 0.7453 0.7059 0.3907
C4G C 0.6693(11) 0.8064(6) 0.4367(7)
H2G H 0.6502 0.8326 0.3916
O1A O 0.8644(7) 1.4128(4) 0.4408(4)
C3A C 0.7289(11) 1.2676(6) 0.4361(6)
H1A H 0.7453 1.2941 0.3907
C4A C 0.6693(11) 1.1936(6) 0.4367(7)
H2A H 0.6502 1.1674 0.3916
C8A C 0.0960(18) 0.4636(13) 0.2735(9)
H3A H 0.1617 0.4337 0.2983
C9A C 0.1021(18) 0.4682(16) 0.1975(8)
C12A C 0.1207(2) 0.5000 0.0449(6)
C13A C 0.2449(2) 0.4579(4) 0.0608(5)
H4A H 0.2411 0.4113 0.0916
C14A C 0.3611(2) 0.4796(6) 0.0357(5)
H5A H 0.3694 0.5259 0.0048
H6A H 0.4358 0.4489 0.0488
C15A C 0.224(4) 0.431(4) 0.190(3)
H7A H 0.2724 0.4711 0.1646
C16A C 0.315(6) 0.368(4) 0.199(4)
H8A H 0.2905 0.3190 0.2229
H9A H 0.4002 0.3743 0.1801
N1B N 0.0000 0.5000 -0.3153(11)
C8B C 0.0960(18) 0.5364(13) -0.2735(9)
H3B H 0.1617 0.5663 -0.2983
C9B C 0.1021(18) 0.5318(16) -0.1975(8)
C10B C 0.0000 0.5000 -0.1563(11)
C11B C 0.0000 0.5000 -0.0796(10)
C12B C 0.1207(2) 0.5000 -0.0449(6)
C13B C 0.2449(2) 0.5421(4) -0.0608(5)
H4B H 0.2411 0.5887 -0.0916
C14B C 0.3611(2) 0.5204(6) -0.0357(5)
H5B H 0.3694 0.4741 -0.0048
H6B H 0.4358 0.5511 -0.0488
C15B C 0.224(4) 0.569(4) -0.190(3)
H7B H 0.2724 0.5289 -0.1646
C16B C 0.315(6) 0.632(4) -0.199(4)
H8B H 0.2905 0.6810 -0.2229
H9B H 0.4002 0.6257 -0.1801
C8C C -0.0960(18) 0.4636(13) -0.2735(9)
H3C H -0.1617 0.4337 -0.2983
C9C C -0.1021(18) 0.4682(16) -0.1975(8)
C12C C -0.1207(2) 0.5000 -0.0449(6)
C13C C -0.2449(2) 0.4579(4) -0.0608(5)
H4C H -0.2411 0.4113 -0.0916
C14C C -0.3611(2) 0.4796(6) -0.0357(5)
H5C H -0.3694 0.5259 -0.0048
H6C H -0.4358 0.4489 -0.0488
C15C C -0.224(4) 0.431(4) -0.190(3)
H7C H -0.2724 0.4711 -0.1646
C16C C -0.315(6) 0.368(4) -0.199(4)
H8C H -0.2905 0.3190 -0.2229
H9C H -0.4002 0.3743 -0.1801
C8D C 0.0960(18) 0.4636(13) -0.2735(9)
H3D H 0.1617 0.4337 -0.2983
C9D C 0.1021(18) 0.4682(16) -0.1975(8)
C13D C 0.2449(2) 0.4579(4) -0.0608(5)
H4D H 0.2411 0.4113 -0.0916
C14D C 0.3611(2) 0.4796(6) -0.0357(5)
H5D H 0.3694 0.5259 -0.0048
H6D H 0.4358 0.4489 -0.0488
C15D C 0.224(4) 0.431(4) -0.190(3)
H7D H 0.2724 0.4711 -0.1646
C16D C 0.315(6) 0.368(4) -0.199(4)
H8D H 0.2905 0.3190 -0.2229
H9D H 0.4002 0.3743 -0.1801
C8E C -0.0960(18) 0.5364(13) -0.2735(9)
H3E H -0.1617 0.5663 -0.2983
C9E C -0.1021(18) 0.5318(16) -0.1975(8)
C13E C -0.2449(2) 0.5421(4) -0.0608(5)
H4E H -0.2411 0.5887 -0.0916
C14E C -0.3611(2) 0.5204(6) -0.0357(5)
H5E H -0.3694 0.4741 -0.0048
H6E H -0.4358 0.5511 -0.0488
C15E C -0.224(4) 0.569(4) -0.190(3)
H7E H -0.2724 0.5289 -0.1646
C16E C -0.315(6) 0.632(4) -0.199(4)
H8E H -0.2905 0.6810 -0.2229
H9E H -0.4002 0.6257 -0.1801
C8F C -0.0960(18) 0.4636(13) 0.2735(9)
H3F H -0.1617 0.4337 0.2983
C9F C -0.1021(18) 0.4682(16) 0.1975(8)
C13F C -0.2449(2) 0.4579(4) 0.0608(5)
H4F H -0.2411 0.4113 0.0916
C14F C -0.3611(2) 0.4796(6) 0.0357(5)
H5F H -0.3694 0.5259 0.0048
H6F H -0.4358 0.4489 0.0488
C15F C -0.224(4) 0.431(4) 0.190(3)
H7F H -0.2724 0.4711 0.1646
C16F C -0.315(6) 0.368(4) 0.199(4)
H8F H -0.2905 0.3190 0.2229
H9F H -0.4002 0.3743 0.1801
C8G C 0.0960(18) 0.5364(13) 0.2735(9)
H3G H 0.1617 0.5663 0.2983
C9G C 0.1021(18) 0.5318(16) 0.1975(8)
C13G C 0.2449(2) 0.5421(4) 0.0608(5)
H4G H 0.2411 0.5887 0.0916
C14G C 0.3611(2) 0.5204(6) 0.0357(5)
H5G H 0.3694 0.4741 0.0048
H6G H 0.4358 0.5511 0.0488
C15G C 0.224(4) 0.569(4) 0.190(3)
H7G H 0.2724 0.5289 0.1646
C16G C 0.315(6) 0.632(4) 0.199(4)
H8G H 0.2905 0.6810 0.2229
H9G H 0.4002 0.6257 0.1801
Zn1B Zn 0.0000 0.5000 -0.42022(14)
Zn1_2 Zn 0.0000 1.5000 0.42022(14)
Zn1_3 Zn 1.0000 0.5000 0.42022(14)
Zn1_4 Zn 1.0000 1.5000 0.42022(14)
Zn1B_2 Zn 0.0000 0.5000 0.57978(14)
Zn1B_3 Zn 0.0000 1.5000 0.57978(14)
Zn1B_4 Zn 1.0000 0.5000 0.57978(14)
Zn1B_5 Zn 1.0000 1.5000 0.57978(14)
O1A_2 O -0.1356(7) 0.4128(4) 0.4408(4)
O1B_2 O -0.1356(7) 0.5872(4) -0.4408(4)
O1C_2 O 0.1356(7) 0.4128(4) -0.4408(4)
O1D_2 O -0.1356(7) 0.4128(4) -0.4408(4)
O1E_2 O 0.1356(7) 0.5872(4) -0.4408(4)
O1F_2 O 0.1356(7) 0.4128(4) 0.4408(4)
O1G_2 O -0.1356(7) 0.5872(4) 0.4408(4)
loop_
_geom_bond_atom_site_label_1
_geom_bond_atom_site_label_2
_geom_bond_site_symmetry_1
_geom_bond_site_symmetry_2
Br1 C7 1_555 1_555
Zn1 O1 1_555 1_555
O1 C1 1_555 1_555
N1 Zn1 1_555 1_555
C1 C2 1_555 1_555
C2 C3 1_555 1_555
C3 H1 1_555 1_555
C4 C3 1_555 1_555
H2 C4 1_555 1_555
C5 C4 1_555 1_555
C6 C5 1_555 1_555
C7 C6 1_555 1_555
C8 N1 1_555 1_555
H3 C8 1_555 1_555
C9 C8 1_555 1_555
C10 C9 1_555 1_555
C11 C10 1_555 1_555
C12 C11 1_555 1_555
C13 C12 1_555 1_555
H4 C13 1_555 1_555
C14 C13 1_555 1_555
H5 C14 1_555 1_555
H6 C14 1_555 1_555
C15 C9 1_555 1_555
H7 C15 1_555 1_555
C16 C15 1_555 1_555
H8 C16 1_555 1_555
H9 C16 1_555 1_555
Br1A C7A 1_555 1_555
O1B C1B 1_555 1_555
C1B C2B 1_555 1_555
C2B C3B 1_555 1_555
C3B H1B 1_555 1_555
C4B C3B 1_555 1_555
H2B C4B 1_555 1_555
C5B C4B 1_555 1_555
C6B C6 1_555 1_555
C7A C6B 1_555 1_555
O1C C1C 1_555 1_555
C1C C2C 1_555 1_555
C2C C3C 1_555 1_555
C3C H1C 1_555 1_555
C4C C3C 1_555 1_555
H2C C4C 1_555 1_555
C5C C4C 1_555 1_555
C6C C7 1_555 1_555
O1D C1A 1_555 1_555
C1A C2A 1_555 1_555
C2A C3D 1_555 1_555
C3D H1D 1_555 1_555
C4D C3D 1_555 1_555
H2D C4D 1_555 1_555
C5A C4D 1_555 1_555
C6A C7A 1_555 1_555
O1E C1 1_555 1_555
C3E C2 1_555 1_555
H1E C3E 1_555 1_555
C4E C5 1_555 1_555
H2E C4E 1_555 1_555
O1F C1C 1_555 1_555
C3F C2C 1_555 1_555
H1F C3F 1_555 1_555
C4F C5C 1_555 1_555
H2F C4F 1_555 1_555
O1G C1B 1_555 1_555
C3G C2B 1_555 1_555
H1G C3G 1_555 1_555
C4G C5B 1_555 1_555
H2G C4G 1_555 1_555
O1A C1A 1_555 1_555
C3A C2A 1_555 1_555
H1A C3A 1_555 1_555
C4A C5A 1_555 1_555
H2A C4A 1_555 1_555
C8A N1 1_555 1_555
H3A C8A 1_555 1_555
C9A C10 1_555 1_555
C12A C11 1_555 1_555
C13A C12A 1_555 1_555
H4A C13A 1_555 1_555
C14A C13A 1_555 1_555
H5A C14A 1_555 1_555
H6A C14A 1_555 1_555
C15A C9A 1_555 1_555
H7A C15A 1_555 1_555
C16A C15A 1_555 1_555
H8A C16A 1_555 1_555
H9A C16A 1_555 1_555
N1B C8B 1_555 1_555
C8B H3B 1_555 1_555
C9B C8B 1_555 1_555
C10B C9B 1_555 1_555
C11B C10B 1_555 1_555
C12B C12A 1_555 1_555
C13B C12B 1_555 1_555
H4B C13B 1_555 1_555
C14B C14A 1_555 1_555
H5B C14A 1_555 1_555
H6B C14B 1_555 1_555
C15B C9B 1_555 1_555
H7B C15B 1_555 1_555
C16B C15B 1_555 1_555
H8B C16B 1_555 1_555
H9B C16B 1_555 1_555
C8C N1B 1_555 1_555
H3C C8C 1_555 1_555
C9C C10B 1_555 1_555
C12C C12 1_555 1_555
C13C C12C 1_555 1_555
H4C C13C 1_555 1_555
C14C C14 1_555 1_555
H5C C14 1_555 1_555
H6C C14C 1_555 1_555
C15C C9C 1_555 1_555
H7C C15C 1_555 1_555
C16C C15C 1_555 1_555
H8C C16C 1_555 1_555
H9C C16C 1_555 1_555
C8D N1B 1_555 1_555
H3D C8D 1_555 1_555
C9D C8B 1_555 1_555
C13D C12B 1_555 1_555
H4D C13D 1_555 1_555
C14D C14A 1_555 1_555
H5D C14A 1_555 1_555
H6D C14D 1_555 1_555
C15D C9D 1_555 1_555
H7D C15D 1_555 1_555
C16D C15D 1_555 1_555
H8D C16D 1_555 1_555
H9D C16D 1_555 1_555
C8E N1B 1_555 1_555
H3E C8E 1_555 1_555
C9E C10B 1_555 1_555
C13E C12C 1_555 1_555
H4E C13E 1_555 1_555
C14E C14 1_555 1_555
H5E C14 1_555 1_555
H6E C14E 1_555 1_555
C15E C9E 1_555 1_555
H7E C15E 1_555 1_555
C16E C15E 1_555 1_555
H8E C16E 1_555 1_555
H9E C16E 1_555 1_555
C8F N1 1_555 1_555
H3F C8F 1_555 1_555
C9F C8 1_555 1_555
C13F C12 1_555 1_555
H4F C13F 1_555 1_555
C14F C13 1_555 1_555
H5F C14 1_555 1_555
H6F C14F 1_555 1_555
C15F C9F 1_555 1_555
H7F C15F 1_555 1_555
C16F C15F 1_555 1_555
H8F C16F 1_555 1_555
H9F C16F 1_555 1_555
C8G N1 1_555 1_555
H3G C8G 1_555 1_555
C9G C10 1_555 1_555
C13G C12A 1_555 1_555
H4G C13G 1_555 1_555
C14G C13A 1_555 1_555
H5G C14A 1_555 1_555
H6G C14G 1_555 1_555
C15G C9G 1_555 1_555
H7G C15G 1_555 1_555
C16G C15G 1_555 1_555
H8G C16G 1_555 1_555
H9G C16G 1_555 1_555
Zn1B N1B 1_555 1_555
Zn1_2 O1F 1_555 1_555
Zn1_3 O1G 1_555 1_555
Zn1_4 O1A 1_555 1_555
Zn1B_2 O1E 1_555 1_555
Zn1B_3 O1C 1_555 1_555
Zn1B_4 O1B 1_555 1_555
Zn1B_5 O1D 1_555 1_555
O1A_2 Zn1 1_555 1_555
O1B_2 Zn1B 1_555 1_555
O1C_2 Zn1B 1_555 1_555
O1D_2 Zn1B 1_555 1_555
O1E_2 Zn1B 1_555 1_555
O1F_2 Zn1 1_555 1_555
O1G_2 Zn1 1_555 1_555
C8 C8F 1_555 1_555
C9 C8F 1_555 1_555
C9 C9F 1_555 1_555
C10 C9F 1_555 1_555
C13 C13F 1_555 1_555
C14 C13F 1_555 1_555
C14 C14F 1_555 1_555
H5 C14C 1_555 1_555
H5 C14E 1_555 1_555
H5 C14F 1_555 1_555
C5B C6B 1_555 1_555
C5C C6C 1_555 1_555
C6C C6A 1_555 1_555
C5A C6A 1_555 1_555
C3E C4E 1_555 1_555
C3F C4F 1_555 1_555
C3G C4G 1_555 1_555
C3A C4A 1_555 1_555
C8A C9A 1_555 1_555
C8A C8G 1_555 1_555
C8A C9G 1_555 1_555
C9A C8G 1_555 1_555
C9A C9G 1_555 1_555
C13A C13G 1_555 1_555
C14A C13G 1_555 1_555
C14A C14G 1_555 1_555
H5A C14B 1_555 1_555
H5A C14D 1_555 1_555
H5A C14G 1_555 1_555
C8B C8D 1_555 1_555
C9B C8D 1_555 1_555
C9B C9D 1_555 1_555
C10B C9D 1_555 1_555
C11B C12B 1_555 1_555
C11B C12C 1_555 1_555
C13B C14B 1_555 1_555
C13B C13D 1_555 1_555
C13B C14D 1_555 1_555
C14B H5B 1_555 1_555
C14B C13D 1_555 1_555
C14B C14D 1_555 1_555
C14B H5D 1_555 1_555
C14B C14G 1_555 1_555
C14B H5G 1_555 1_555
H5B C14D 1_555 1_555
H5B C14G 1_555 1_555
C8C C9C 1_555 1_555
C8C C8E 1_555 1_555
C8C C9E 1_555 1_555
C9C C8E 1_555 1_555
C9C C9E 1_555 1_555
C13C C14C 1_555 1_555
C13C C13E 1_555 1_555
C13C C14E 1_555 1_555
C14C H5C 1_555 1_555
C14C C13E 1_555 1_555
C14C C14E 1_555 1_555
C14C H5E 1_555 1_555
C14C C14F 1_555 1_555
C14C H5F 1_555 1_555
H5C C14E 1_555 1_555
H5C C14F 1_555 1_555
C8D C9D 1_555 1_555
C13D C14D 1_555 1_555
C14D H5D 1_555 1_555
C14D C14G 1_555 1_555
C14D H5G 1_555 1_555
H5D C14G 1_555 1_555
C8E C9E 1_555 1_555
C13E C14E 1_555 1_555
C14E H5E 1_555 1_555
C14E C14F 1_555 1_555
C14E H5F 1_555 1_555
H5E C14F 1_555 1_555
C8F C9F 1_555 1_555
C13F C14F 1_555 1_555
C14F H5F 1_555 1_555
C8G C9G 1_555 1_555
C13G C14G 1_555 1_555
C14G H5G 1_555 1_555

#END
