
#######################################################################
#
#                 Cambridge Crystallographic Data Centre
#                                CCDC 
#
#######################################################################
#
# If this CIF has been generated from an entry in the Cambridge 
# Structural Database, then it will include bibliographic, chemical, 
# crystal, experimental, refinement or atomic coordinate data resulting 
# from the CCDC's data processing and validation procedures.
#
#######################################################################

data_DODGUA
_chemical_formula_moiety         'C74 H56 Br2 N2 O15 Zn9'
_symmetry_cell_setting           orthorhombic
_symmetry_space_group_name_H-M   'P m m m'
_symmetry_Int_Tables_number      47
_space_group_name_Hall           '-P 2 2'
loop_
_symmetry_equiv_pos_site_id
_symmetry_equiv_pos_as_xyz
1 x,y,z
2 -x,-y,z
3 x,-y,-z
4 -x,y,-z
5 -x,-y,-z
6 x,y,-z
7 -x,y,z
8 x,-y,z
_cell_length_a                   10.5916(6)
_cell_length_b                   16.2330(8)
_cell_length_c                   18.2994(14)
_cell_angle_alpha                90
_cell_angle_beta                 90
_cell_angle_gamma                90
_cell_volume                     3146.28
loop_
_atom_site_label
_atom_site_type_symbol
_atom_site_fract_x
_atom_site_fract_y
_atom_site_fract_z
Br1 Br 0.19094(15) 1.0000 0.5000
Zn1 Zn 0.0000 0.5000 0.42016(10)
O1 O 0.1309(5) 0.5871(3) 0.4382(3)
N1 N 0.0000 0.5000 0.3101(7)
C1 C 0.1582(9) 0.6155(5) 0.5000
C2 C 0.2365(9) 0.6951(5) 0.5000
C3 C 0.2707(9) 0.7321(5) 0.4347(5)
H1 H 0.2494 0.7074 0.3893
C4 C 0.3368(9) 0.8060(5) 0.4371(5)
H2 H 0.3636 0.8298 0.3923
C5 C 0.3650(8) 0.8460(5) 0.5000
C6 C 0.4324(8) 0.9245(6) 0.5000
C7 C 0.3699(12) 1.0000 0.5000
C8 C -0.0813(17) 0.5405(14) 0.2691(10)
H3 H -0.1442 0.5716 0.2938
C9 C -0.0838(17) 0.5421(16) 0.1979(10)
H4 H -0.1471 0.5740 0.1744
C10 C 0.0000 0.5000 0.1557(11)
C11 C 0.0000 0.5000 0.0769(11)
C12 C -0.1074(2) 0.5000 0.0393(4)
C13 C -0.2251(2) 0.5367(5) 0.0684(2)
H5 H -0.2239 0.5550 0.1178
C14 C -0.3322(2) 0.5465(5) 0.0316(3)
H6 H -0.3377 0.5292 -0.0179
H7 H -0.4033 0.5708 0.0548
O1B O 0.1309(5) 1.4129(3) 0.5618(3)
C1B C 0.1582(9) 1.3845(5) 0.5000
C2B C 0.2365(9) 1.3049(5) 0.5000
C3B C 0.2707(9) 1.2679(5) 0.5653(5)
H1B H 0.2494 1.2926 0.6107
C4B C 0.3368(9) 1.1940(5) 0.5629(5)
H2B H 0.3636 1.1702 0.6077
C5B C 0.3650(8) 1.1540(5) 0.5000
C6B C 0.4324(8) 1.0755(6) 0.5000
Br1A Br 0.80906(15) 1.0000 0.5000
O1C O 0.8691(5) 0.5871(3) 0.5618(3)
C1C C 0.8418(9) 0.6155(5) 0.5000
C2C C 0.7635(9) 0.6951(5) 0.5000
C3C C 0.7293(9) 0.7321(5) 0.5653(5)
H1C H 0.7506 0.7074 0.6107
C4C C 0.6632(9) 0.8060(5) 0.5629(5)
H2C H 0.6364 0.8298 0.6077
C5C C 0.6350(8) 0.8460(5) 0.5000
C6C C 0.5676(8) 0.9245(6) 0.5000
C7A C 0.6301(12) 1.0000 0.5000
O1D O 0.8691(5) 1.4129(3) 0.5618(3)
C1A C 0.8418(9) 1.3845(5) 0.5000
C2A C 0.7635(9) 1.3049(5) 0.5000
C3D C 0.7293(9) 1.2679(5) 0.5653(5)
H1D H 0.7506 1.2926 0.6107
C4D C 0.6632(9) 1.1940(5) 0.5629(5)
H2D H 0.6364 1.1702 0.6077
C5A C 0.6350(8) 1.1540(5) 0.5000
C6A C 0.5676(8) 1.0755(6) 0.5000
O1E O 0.1309(5) 0.5871(3) 0.5618(3)
C3E C 0.2707(9) 0.7321(5) 0.5653(5)
H1E H 0.2494 0.7074 0.6107
C4E C 0.3368(9) 0.8060(5) 0.5629(5)
H2E H 0.3636 0.8298 0.6077
O1F O 0.8691(5) 0.5871(3) 0.4382(3)
C3F C 0.7293(9) 0.7321(5) 0.4347(5)
H1F H 0.7506 0.7074 0.3893
C4F C 0.6632(9) 0.8060(5) 0.4371(5)
H2F H 0.6364 0.8298 0.3923
O1G O 0.1309(5) 1.4129(3) 0.4382(3)
C3G C 0.2707(9) 1.2679(5) 0.4347(5)
H1G H 0.2494 1.2926 0.3893
C4G C 0.3368(9) 1.1940(5) 0.4371(5)
H2G H 0.3636 1.1702 0.3923
O1A O 0.8691(5) 1.4129(3) 0.4382(3)
C3A C 0.7293(9) 1.2679(5) 0.4347(5)
H1A H 0.7506 1.2926 0.3893
C4A C 0.6632(9) 1.1940(5) 0.4371(5)
H2A H 0.6364 1.1702 0.3923
C8A C 0.0813(17) 0.4595(14) 0.2691(10)
H3A H 0.1442 0.4284 0.2938
C9A C 0.0838(17) 0.4579(16) 0.1979(10)
H4A H 0.1471 0.4260 0.1744
C12A C 0.1074(2) 0.5000 0.0393(4)
C13A C 0.2251(2) 0.4633(5) 0.0684(2)
H5A H 0.2239 0.4450 0.1178
C14A C 0.3322(2) 0.4535(5) 0.0316(3)
H6A H 0.3377 0.4708 -0.0179
H7A H 0.4033 0.4292 0.0548
N1B N -0.0000 0.5000 -0.3101(7)
C8B C -0.0813(17) 0.4595(14) -0.2691(10)
H3B H -0.1442 0.4284 -0.2938
C9B C -0.0838(17) 0.4579(16) -0.1979(10)
H4B H -0.1471 0.4260 -0.1744
C10B C -0.0000 0.5000 -0.1557(11)
C11B C 0.0000 0.5000 -0.0769(11)
C12B C -0.1074(2) 0.5000 -0.0393(4)
C13B C -0.2251(2) 0.4633(5) -0.0684(2)
H5B H -0.2239 0.4450 -0.1178
C14B C -0.3322(2) 0.4535(5) -0.0316(3)
H6B H -0.3377 0.4708 0.0179
H7B H -0.4033 0.4292 -0.0548
C8C C 0.0813(17) 0.5405(14) -0.2691(10)
H3C H 0.1442 0.5716 -0.2938
C9C C 0.0838(17) 0.5421(16) -0.1979(10)
H4C H 0.1471 0.5740 -0.1744
C12C C 0.1074(2) 0.5000 -0.0393(4)
C13C C 0.2251(2) 0.5367(5) -0.0684(2)
H5C H 0.2239 0.5550 -0.1178
C14C C 0.3322(2) 0.5465(5) -0.0316(3)
H6C H 0.3377 0.5292 0.0179
H7C H 0.4033 0.5708 -0.0548
C8D C 0.0813(17) 0.4595(14) -0.2691(10)
H3D H 0.1442 0.4284 -0.2938
C9D C 0.0838(17) 0.4579(16) -0.1979(10)
H4D H 0.1471 0.4260 -0.1744
C13D C 0.2251(2) 0.4633(5) -0.0684(2)
H5D H 0.2239 0.4450 -0.1178
C14D C 0.3322(2) 0.4535(5) -0.0316(3)
H6D H 0.3377 0.4708 0.0179
H7D H 0.4033 0.4292 -0.0548
C8E C -0.0813(17) 0.5405(14) -0.2691(10)
H3E H -0.1442 0.5716 -0.2938
C9E C -0.0838(17) 0.5421(16) -0.1979(10)
H4E H -0.1471 0.5740 -0.1744
C13E C -0.2251(2) 0.5367(5) -0.0684(2)
H5E H -0.2239 0.5550 -0.1178
C14E C -0.3322(2) 0.5465(5) -0.0316(3)
H6E H -0.3377 0.5292 0.0179
H7E H -0.4033 0.5708 -0.0548
C8F C 0.0813(17) 0.5405(14) 0.2691(10)
H3F H 0.1442 0.5716 0.2938
C9F C 0.0838(17) 0.5421(16) 0.1979(10)
H4F H 0.1471 0.5740 0.1744
C13F C 0.2251(2) 0.5367(5) 0.0684(2)
H5F H 0.2239 0.5550 0.1178
C14F C 0.3322(2) 0.5465(5) 0.0316(3)
H6F H 0.3377 0.5292 -0.0179
H7F H 0.4033 0.5708 0.0548
C8G C -0.0813(17) 0.4595(14) 0.2691(10)
H3G H -0.1442 0.4284 0.2938
C9G C -0.0838(17) 0.4579(16) 0.1979(10)
H4G H -0.1471 0.4260 0.1744
C13G C -0.2251(2) 0.4633(5) 0.0684(2)
H5G H -0.2239 0.4450 0.1178
C14G C -0.3322(2) 0.4535(5) 0.0316(3)
H6G H -0.3377 0.4708 -0.0179
H7G H -0.4033 0.4292 0.0548
Zn1B Zn -0.0000 0.5000 -0.42016(10)
Zn1_2 Zn 0.0000 1.5000 0.42016(10)
Zn1_3 Zn 1.0000 0.5000 0.42016(10)
Zn1_4 Zn 1.0000 1.5000 0.42016(10)
Zn1B_2 Zn 0.0000 0.5000 0.57984(10)
Zn1B_3 Zn 0.0000 1.5000 0.57984(10)
Zn1B_4 Zn 1.0000 0.5000 0.57984(10)
Zn1B_5 Zn 1.0000 1.5000 0.57984(10)
O1A_2 O -0.1309(5) 0.4129(3) 0.4382(3)
O1B_2 O 0.1309(5) 0.4129(3) -0.4382(3)
O1C_2 O -0.1309(5) 0.5871(3) -0.4382(3)
O1D_2 O -0.1309(5) 0.4129(3) -0.4382(3)
O1E_2 O 0.1309(5) 0.5871(3) -0.4382(3)
O1F_2 O -0.1309(5) 0.5871(3) 0.4382(3)
O1G_2 O 0.1309(5) 0.4129(3) 0.4382(3)
loop_
_geom_bond_atom_site_label_1
_geom_bond_atom_site_label_2
_geom_bond_site_symmetry_1
_geom_bond_site_symmetry_2
Br1 C7 1_555 1_555
Zn1 O1 1_555 1_555
O1 C1 1_555 1_555
N1 Zn1 1_555 1_555
C1 C2 1_555 1_555
C2 C3 1_555 1_555
C3 H1 1_555 1_555
C4 C3 1_555 1_555
H2 C4 1_555 1_555
C5 C4 1_555 1_555
C6 C5 1_555 1_555
C7 C6 1_555 1_555
C8 N1 1_555 1_555
H3 C8 1_555 1_555
C9 C8 1_555 1_555
H4 C9 1_555 1_555
C10 C9 1_555 1_555
C11 C10 1_555 1_555
C12 C11 1_555 1_555
C13 C12 1_555 1_555
H5 C13 1_555 1_555
C14 C13 1_555 1_555
H6 C14 1_555 1_555
H7 C14 1_555 1_555
O1B C1B 1_555 1_555
C1B C2B 1_555 1_555
C2B C3B 1_555 1_555
C3B H1B 1_555 1_555
C4B C3B 1_555 1_555
H2B C4B 1_555 1_555
C5B C4B 1_555 1_555
C6B C7 1_555 1_555
Br1A C7A 1_555 1_555
O1C C1C 1_555 1_555
C1C C2C 1_555 1_555
C2C C3C 1_555 1_555
C3C H1C 1_555 1_555
C4C C3C 1_555 1_555
H2C C4C 1_555 1_555
C5C C4C 1_555 1_555
C6C C6 1_555 1_555
C7A C6C 1_555 1_555
O1D C1A 1_555 1_555
C1A C2A 1_555 1_555
C2A C3D 1_555 1_555
C3D H1D 1_555 1_555
C4D C3D 1_555 1_555
H2D C4D 1_555 1_555
C5A C4D 1_555 1_555
C6A C6B 1_555 1_555
O1E C1 1_555 1_555
C3E C2 1_555 1_555
H1E C3E 1_555 1_555
C4E C5 1_555 1_555
H2E C4E 1_555 1_555
O1F C1C 1_555 1_555
C3F C2C 1_555 1_555
H1F C3F 1_555 1_555
C4F C5C 1_555 1_555
H2F C4F 1_555 1_555
O1G C1B 1_555 1_555
C3G C2B 1_555 1_555
H1G C3G 1_555 1_555
C4G C5B 1_555 1_555
H2G C4G 1_555 1_555
O1A C1A 1_555 1_555
C3A C2A 1_555 1_555
H1A C3A 1_555 1_555
C4A C5A 1_555 1_555
H2A C4A 1_555 1_555
C8A N1 1_555 1_555
H3A C8A 1_555 1_555
C9A C10 1_555 1_555
H4A C9A 1_555 1_555
C12A C11 1_555 1_555
C13A C12A 1_555 1_555
H5A C13A 1_555 1_555
C14A C13A 1_555 1_555
H6A C14A 1_555 1_555
H7A C14A 1_555 1_555
N1B C8B 1_555 1_555
C8B H3B 1_555 1_555
C9B C8B 1_555 1_555
H4B C9B 1_555 1_555
C10B C9B 1_555 1_555
C11B C10B 1_555 1_555
C12B C12 1_555 1_555
C13B C12B 1_555 1_555
H5B C13B 1_555 1_555
C14B H6 1_555 1_555
H6B C14 1_555 1_555
H7B C14B 1_555 1_555
C8C N1B 1_555 1_555
H3C C8C 1_555 1_555
C9C C10B 1_555 1_555
H4C C9C 1_555 1_555
C12C C12A 1_555 1_555
C13C C12C 1_555 1_555
H5C C13C 1_555 1_555
C14C H6A 1_555 1_555
H6C C14A 1_555 1_555
H7C C14C 1_555 1_555
C8D N1B 1_555 1_555
H3D C8D 1_555 1_555
C9D C9B 1_555 1_555
H4D C9D 1_555 1_555
C13D C12C 1_555 1_555
H5D C13D 1_555 1_555
C14D C14A 1_555 1_555
H6D C14D 1_555 1_555
H7D C14D 1_555 1_555
C8E N1B 1_555 1_555
H3E C8E 1_555 1_555
C9E C9B 1_555 1_555
H4E C9E 1_555 1_555
C13E C12B 1_555 1_555
H5E C13E 1_555 1_555
C14E C14 1_555 1_555
H6E C14E 1_555 1_555
H7E C14E 1_555 1_555
C8F N1 1_555 1_555
H3F C8F 1_555 1_555
C9F C9 1_555 1_555
H4F C9F 1_555 1_555
C13F C12A 1_555 1_555
H5F C13F 1_555 1_555
C14F C14A 1_555 1_555
H6F C14D 1_555 1_555
H7F C14F 1_555 1_555
C8G N1 1_555 1_555
H3G C8G 1_555 1_555
C9G C9 1_555 1_555
H4G C9G 1_555 1_555
C13G C12 1_555 1_555
H5G C13G 1_555 1_555
C14G C14 1_555 1_555
H6G C14E 1_555 1_555
H7G C14G 1_555 1_555
Zn1B N1B 1_555 1_555
Zn1_2 O1G 1_555 1_555
Zn1_3 O1F 1_555 1_555
Zn1_4 O1A 1_555 1_555
Zn1B_2 O1E 1_555 1_555
Zn1B_3 O1B 1_555 1_555
Zn1B_4 O1C 1_555 1_555
Zn1B_5 O1D 1_555 1_555
O1A_2 Zn1 1_555 1_555
O1B_2 Zn1B 1_555 1_555
O1C_2 Zn1B 1_555 1_555
O1D_2 Zn1B 1_555 1_555
O1E_2 Zn1B 1_555 1_555
O1F_2 Zn1 1_555 1_555
O1G_2 Zn1 1_555 1_555
C8 C8F 1_555 1_555
C8 C8G 1_555 1_555
C10 C9F 1_555 1_555
C10 C9G 1_555 1_555
C13 C13G 1_555 1_555
C5B C6B 1_555 1_555
C5C C6C 1_555 1_555
C7A C6A 1_555 1_555
C5A C6A 1_555 1_555
C3E C4E 1_555 1_555
C3F C4F 1_555 1_555
C3G C4G 1_555 1_555
C3A C4A 1_555 1_555
C8A C9A 1_555 1_555
C8A C8F 1_555 1_555
C8A C8G 1_555 1_555
C9A C9F 1_555 1_555
C9A C9G 1_555 1_555
C13A C13F 1_555 1_555
C8B C8D 1_555 1_555
C8B C8E 1_555 1_555
C10B C9D 1_555 1_555
C10B C9E 1_555 1_555
C11B C12B 1_555 1_555
C11B C12C 1_555 1_555
C13B C14B 1_555 1_555
C13B C13E 1_555 1_555
C14B H6B 1_555 1_555
C14B C14E 1_555 1_555
C14B C14G 1_555 1_555
C8C C9C 1_555 1_555
C8C C8D 1_555 1_555
C8C C8E 1_555 1_555
C9C C9D 1_555 1_555
C9C C9E 1_555 1_555
C13C C14C 1_555 1_555
C13C C13D 1_555 1_555
C14C H6C 1_555 1_555
C14C C14D 1_555 1_555
C14C C14F 1_555 1_555
C8D C9D 1_555 1_555
C13D C14D 1_555 1_555
H6D C14F 1_555 1_555
C8E C9E 1_555 1_555
C13E C14E 1_555 1_555
H6E C14G 1_555 1_555
C8F C9F 1_555 1_555
C13F C14F 1_555 1_555
C14F H6F 1_555 1_555
C8G C9G 1_555 1_555
C13G C14G 1_555 1_555
C14G H6G 1_555 1_555

#END
