
#######################################################################
#
#                 Cambridge Crystallographic Data Centre
#                                CCDC 
#
#######################################################################
#
# If this CIF has been generated from an entry in the Cambridge 
# Structural Database, then it will include bibliographic, chemical, 
# crystal, experimental, refinement or atomic coordinate data resulting 
# from the CCDC's data processing and validation procedures.
#
#######################################################################

data_VOLQOD
_chemical_formula_moiety         '(C57 H36 O14 Zn4)n'
_symmetry_cell_setting           monoclinic
_symmetry_space_group_name_H-M   'C 2/c'
_symmetry_Int_Tables_number      15
_space_group_name_Hall           '-C 2yc'
loop_
_symmetry_equiv_pos_site_id
_symmetry_equiv_pos_as_xyz
1 x,y,z
2 -x,y,1/2-z
3 1/2+x,1/2+y,z
4 1/2-x,1/2+y,1/2-z
5 -x,-y,-z
6 x,-y,1/2+z
7 1/2-x,1/2-y,-z
8 1/2+x,1/2-y,1/2+z
_cell_length_a                   26.3857(14)
_cell_length_b                   28.3859(14)
_cell_length_c                   31.6139(16)
_cell_angle_alpha                90
_cell_angle_beta                 113.567(2)
_cell_angle_gamma                90
_cell_volume                     21703.3
loop_
_atom_site_label
_atom_site_type_symbol
_atom_site_fract_x
_atom_site_fract_y
_atom_site_fract_z
Zn1 Zn 0.85684(4) 0.61180(3) 0.34980(3)
Zn2 Zn 0.97250(4) 0.58129(3) 0.42686(3)
Zn3 Zn 0.96835(4) 0.65222(3) 0.34785(3)
Zn4 Zn 0.92798(4) 0.68391(3) 0.42649(3)
O1 O 0.93196(16) 0.63209(12) 0.38770(13)
O2 O 0.8376(2) 0.55247(15) 0.36846(15)
O3 O 0.9230(2) 0.52783(15) 0.41606(14)
O4 O 0.53073(16) 1.05647(14) 0.40909(16)
O5 O 0.5184(2) 1.10235(17) 0.34759(16)
O6 O 0.9179(3) 0.34875(19) 0.78277(17)
O7 O 0.8449(2) 0.38923(17) 0.78472(17)
O8 O 0.51179(19) 0.20760(17) 0.36993(16)
O9 O 0.4759(2) 0.23399(15) 0.41918(17)
O10 O 0.8570(2) 0.71317(16) 0.40635(16)
O11 O 0.80606(17) 0.65940(16) 0.35208(14)
O12 O 0.49915(19) 0.90428(16) -0.00806(14)
O13 O 0.4645(2) 0.83155(17) -0.00877(14)
C1 C 0.5332(3) 1.0647(3) 0.3694(3)
C2 C 0.5542(3) 1.0248(2) 0.3503(2)
C3 C 0.5589(3) 1.0327(2) 0.3098(2)
H1 H 0.5535 1.0633 0.2966
C4 C 0.5721(3) 0.9947(3) 0.2881(2)
H2 H 0.5755 0.9995 0.2596
C5 C 0.5805(3) 0.9498(2) 0.3075(2)
C6 C 0.5779(3) 0.9432(2) 0.3499(2)
H3 H 0.5854 0.9131 0.3641
C7 C 0.5645(3) 0.9804(3) 0.3713(2)
H4 H 0.5623 0.9759 0.4003
C8 C 0.5943(3) 0.9097(2) 0.2826(3)
C9 C 0.5689(3) 0.9085(3) 0.2337(2)
H5 H 0.5440 0.9326 0.2169
C10 C 0.5815(3) 0.8713(3) 0.2109(2)
C11 C 0.6183(3) 0.8369(2) 0.2353(2)
H6 H 0.6268 0.8119 0.2191
C12 C 0.6435(3) 0.8379(3) 0.2835(3)
C13 C 0.6320(3) 0.8743(2) 0.3075(2)
H7 H 0.6492 0.8754 0.3403
C14 C 0.5561(3) 0.8702(3) 0.1594(2)
C15 C 0.5526(3) 0.9124(2) 0.1344(2)
H8 H 0.5647 0.9415 0.1500
C16 C 0.5314(3) 0.9104(2) 0.0869(2)
H9 H 0.5307 0.9384 0.0703
C17 C 0.5114(3) 0.8698(2) 0.0627(2)
C18 C 0.5160(3) 0.8276(3) 0.0882(2)
H10 H 0.5039 0.7986 0.0725
C19 C 0.5373(3) 0.8287(2) 0.1343(2)
H11 H 0.5398 0.8001 0.1506
C20 C 0.6847(3) 0.8010(3) 0.3083(2)
C21 C 0.7332(3) 0.8120(2) 0.3482(2)
H12 H 0.7379 0.8431 0.3603
C22 C 0.7736(3) 0.7785(3) 0.3696(2)
H13 H 0.8053 0.7863 0.3964
C23 C 0.7672(3) 0.7346(2) 0.3519(3)
C24 C 0.7175(3) 0.7223(3) 0.3126(2)
H14 H 0.7122 0.6909 0.3013
C25 C 0.6780(3) 0.7554(3) 0.2915(2)
H15 H 0.6459 0.7471 0.2652
C26 C 0.8700(4) 0.5269(3) 0.4000(3)
C27 C 0.8456(4) 0.4927(2) 0.4226(3)
C28 C 0.8796(3) 0.4682(2) 0.4627(2)
H16 H 0.9186 0.4717 0.4742
C29 C 0.8568(4) 0.4391(2) 0.4853(2)
H17 H 0.8803 0.4224 0.5120
C30 C 0.7989(4) 0.4339(3) 0.4695(3)
C31 C 0.7655(3) 0.4601(3) 0.4283(3)
H18 H 0.7263 0.4579 0.4167
C32 C 0.7894(4) 0.4879(2) 0.4059(2)
H19 H 0.7667 0.5039 0.3785
C33 C 0.7735(4) 0.4042(3) 0.4934(3)
C34 C 0.7969(3) 0.4011(3) 0.5407(3)
H20 H 0.8306 0.4173 0.5572
C35 C 0.7727(4) 0.3749(3) 0.5653(3)
C36 C 0.7243(4) 0.3517(3) 0.5410(3)
H21 H 0.7072 0.3338 0.5571
C37 C 0.6993(4) 0.3541(3) 0.4920(3)
C38 C 0.7252(4) 0.3803(3) 0.4701(3)
H22 H 0.7090 0.3819 0.4373
C39 C 0.6484(4) 0.3261(3) 0.4668(3)
C40 C 0.6051(4) 0.3226(3) 0.4819(3)
H23 H 0.6065 0.3409 0.5075
C41 C 0.5615(3) 0.2937(3) 0.4606(3)
H24 H 0.5332 0.2903 0.4717
C42 C 0.5594(4) 0.2685(3) 0.4211(3)
C43 C 0.6005(4) 0.2726(3) 0.4063(3)
H25 H 0.5986 0.2548 0.3804
C44 C 0.6432(4) 0.3007(4) 0.4268(3)
H26 H 0.6706 0.3038 0.4146
C45 C 0.7964(4) 0.3729(3) 0.6165(3)
C46 C 0.8529(5) 0.3595(3) 0.6393(3)
H27 H 0.8739 0.3518 0.6219
C47 C 0.8770(3) 0.3579(2) 0.6873(3)
H28 H 0.9146 0.3488 0.7024
C48 C 0.8480(4) 0.3689(3) 0.7131(3)
C49 C 0.7932(5) 0.3821(3) 0.6912(3)
H29 H 0.7729 0.3905 0.7091
C50 C 0.7666(4) 0.3833(3) 0.6416(3)
H30 H 0.7286 0.3913 0.6267
C51 C 0.8706(4) 0.3702(3) 0.7646(3)
C52 C 0.5131(4) 0.2354(3) 0.4032(3)
C53 C 0.8154(4) 0.7002(3) 0.3733(3)
C54 C 0.4910(3) 0.8696(3) 0.0115(3)
Zn1E Zn 0.85684(4) 0.38820(3) 0.84980(3)
Zn2B Zn 0.47250(4) 1.08129(3) 0.42686(3)
Zn2G Zn 0.47250(4) 0.91871(3) -0.07314(3)
Zn3B Zn 0.46835(4) 1.15222(3) 0.34785(3)
Zn3E Zn 0.96835(4) 0.34778(3) 0.84785(3)
Zn3B_2 Zn 0.46835(4) 0.15222(3) 0.34785(3)
Zn4B Zn 0.42798(4) 0.18391(3) 0.42649(3)
Zn4G Zn 0.42798(4) 0.81609(3) -0.07351(3)
O4B O 1.03073(16) 0.55647(14) 0.40909(16)
O5B O 1.0184(2) 0.60235(17) 0.34759(16)
O6E O 0.9179(3) 0.65125(19) 0.28277(17)
O7E O 0.8449(2) 0.61077(17) 0.28472(17)
O8B O 1.01179(19) 0.70760(17) 0.36993(16)
O9B O 0.9759(2) 0.73399(15) 0.41918(17)
O12G O 0.99915(19) 0.59572(16) 0.49194(14)
O13G O 0.9645(2) 0.66845(17) 0.49123(14)
O14 O 0.8717(4) 0.6125(3) 0.4504(3)
C55 C 0.8569(6) 0.5824(5) 0.5129(5)
H31 H 0.8551 0.5481 0.5090
H32 H 0.8331 0.5920 0.5285
H33 H 0.8951 0.5918 0.5315
C56 C 0.8395(6) 0.6033(5) 0.4712(5)
C57 C 0.7766(8) 0.6064(7) 0.4443(6)
H34 H 0.7638 0.6378 0.4482
H35 H 0.7585 0.5826 0.4560
H36 H 0.7674 0.6007 0.4115
loop_
_geom_bond_atom_site_label_1
_geom_bond_atom_site_label_2
_geom_bond_site_symmetry_1
_geom_bond_site_symmetry_2
Zn1 O1 1_555 1_555
Zn2 O1 1_555 1_555
Zn3 O1 1_555 1_555
Zn4 O1 1_555 1_555
O2 Zn1 1_555 1_555
O3 Zn2 1_555 1_555
O4 C1 1_555 1_555
O5 C1 1_555 1_555
O6 C51 1_555 1_555
O7 C51 1_555 1_555
O8 C52 1_555 1_555
O9 C52 1_555 1_555
O10 Zn4 1_555 1_555
O11 Zn1 1_555 1_555
O12 C54 1_555 1_555
O13 C54 1_555 1_555
C1 C2 1_555 1_555
C2 C3 1_555 1_555
C3 H1 1_555 1_555
C4 C3 1_555 1_555
H2 C4 1_555 1_555
C5 C4 1_555 1_555
C6 C5 1_555 1_555
H3 C6 1_555 1_555
C7 C2 1_555 1_555
H4 C7 1_555 1_555
C8 C5 1_555 1_555
C9 C8 1_555 1_555
H5 C9 1_555 1_555
C10 C9 1_555 1_555
C11 C10 1_555 1_555
H6 C11 1_555 1_555
C12 C11 1_555 1_555
C13 C8 1_555 1_555
H7 C13 1_555 1_555
C14 C10 1_555 1_555
C15 C14 1_555 1_555
H8 C15 1_555 1_555
C16 C15 1_555 1_555
H9 C16 1_555 1_555
C17 C16 1_555 1_555
C18 C17 1_555 1_555
H10 C18 1_555 1_555
C19 C14 1_555 1_555
H11 C19 1_555 1_555
C20 C12 1_555 1_555
C21 C20 1_555 1_555
H12 C21 1_555 1_555
C22 C21 1_555 1_555
H13 C22 1_555 1_555
C23 C22 1_555 1_555
C24 C23 1_555 1_555
H14 C24 1_555 1_555
C25 C20 1_555 1_555
H15 C25 1_555 1_555
C26 O2 1_555 1_555
C27 C26 1_555 1_555
C28 C27 1_555 1_555
H16 C28 1_555 1_555
C29 C28 1_555 1_555
H17 C29 1_555 1_555
C30 C29 1_555 1_555
C31 C30 1_555 1_555
H18 C31 1_555 1_555
C32 C27 1_555 1_555
H19 C32 1_555 1_555
C33 C30 1_555 1_555
C34 C33 1_555 1_555
H20 C34 1_555 1_555
C35 C34 1_555 1_555
C36 C35 1_555 1_555
H21 C36 1_555 1_555
C37 C36 1_555 1_555
C38 C33 1_555 1_555
H22 C38 1_555 1_555
C39 C37 1_555 1_555
C40 C39 1_555 1_555
H23 C40 1_555 1_555
C41 C40 1_555 1_555
H24 C41 1_555 1_555
C42 C41 1_555 1_555
C43 C42 1_555 1_555
H25 C43 1_555 1_555
C44 C39 1_555 1_555
H26 C44 1_555 1_555
C45 C35 1_555 1_555
C46 C45 1_555 1_555
H27 C46 1_555 1_555
C47 C46 1_555 1_555
H28 C47 1_555 1_555
C48 C47 1_555 1_555
C49 C48 1_555 1_555
H29 C49 1_555 1_555
C50 C45 1_555 1_555
H30 C50 1_555 1_555
C51 C48 1_555 1_555
C52 C42 1_555 1_555
C53 O10 1_555 1_555
C54 C17 1_555 1_555
O14 C56 1_555 1_555
C55 H31 1_555 1_555
H32 C55 1_555 1_555
H33 C55 1_555 1_555
C56 C55 1_555 1_555
C57 C56 1_555 1_555
H34 C57 1_555 1_555
H35 C57 1_555 1_555
H36 C57 1_555 1_555
Zn1E O7 1_555 1_555
Zn2B O4 1_555 1_555
Zn2G O12 1_555 1_555
Zn3B O5 1_555 1_555
Zn3E O6 1_555 1_555
Zn3B_2 O8 1_555 1_555
Zn4B O9 1_555 1_555
Zn4G O13 1_555 1_555
O4B Zn2 1_555 1_555
O5B Zn3 1_555 1_555
O6E Zn3 1_555 1_555
O7E Zn1 1_555 1_555
O8B Zn3 1_555 1_555
O9B Zn4 1_555 1_555
O12G Zn2 1_555 1_555
O13G Zn4 1_555 1_555
O3 C26 1_555 1_555
O11 C53 1_555 1_555
C6 C7 1_555 1_555
C12 C13 1_555 1_555
C18 C19 1_555 1_555
C23 C53 1_555 1_555
C24 C25 1_555 1_555
C31 C32 1_555 1_555
C37 C38 1_555 1_555
C43 C44 1_555 1_555
C49 C50 1_555 1_555

#END
