
#######################################################################
#
#                 Cambridge Crystallographic Data Centre
#                                CCDC 
#
#######################################################################
#
# If this CIF has been generated from an entry in the Cambridge 
# Structural Database, then it will include bibliographic, chemical, 
# crystal, experimental, refinement or atomic coordinate data resulting 
# from the CCDC's data processing and validation procedures.
#
#######################################################################

data_IDIWIB
_chemical_formula_moiety         '(C8 H5 O5 V1)n'
_symmetry_cell_setting           orthorhombic
_symmetry_space_group_name_H-M   'P n m a'
_symmetry_Int_Tables_number      62
_space_group_name_Hall           '-P 2ac 2n'
loop_
_symmetry_equiv_pos_site_id
_symmetry_equiv_pos_as_xyz
1 x,y,z
2 1/2+x,y,1/2-z
3 x,1/2-y,z
4 1/2-x,1/2+y,1/2+z
5 -x,-y,-z
6 1/2-x,-y,1/2+z
7 -x,1/2+y,-z
8 1/2+x,1/2-y,1/2-z
_cell_length_a                   17.5185(11)
_cell_length_b                   6.8750(4)
_cell_length_c                   12.1680(8)
_cell_angle_alpha                90
_cell_angle_beta                 90
_cell_angle_gamma                90
_cell_volume                     1465.51
loop_
_atom_site_label
_atom_site_type_symbol
_atom_site_fract_x
_atom_site_fract_y
_atom_site_fract_z
_atom_site_U_iso_or_equiv
_atom_site_thermal_displace_type
V1 V 0.0000 0.0000 0.0000 0.0183 Uani
O1 O -0.0068(2) -0.2500 -0.0745(3) 0.0201 Uani
O2 O 0.08936(15) -0.0864(4) 0.0892(2) 0.0325 Uani
O3 O 0.42601(16) -0.4120(5) 0.3853(2) 0.0317 Uani
C1 C 0.2270(3) -0.4242(7) 0.2015(4) 0.0420 Uani
H1 H 0.2046 -0.5416 0.1815 0.0500 Uiso
C2 C 0.2942(2) -0.4235(7) 0.2595(4) 0.0423 Uani
H2 H 0.3169 -0.5408 0.2792 0.0510 Uiso
C3 C 0.3287(3) -0.2500 0.2889(5) 0.0290 Uani
C4 C 0.1925(3) -0.2500 0.1728(5) 0.0280 Uani
C5 C 0.3988(3) -0.2500 0.3588(5) 0.0217 Uani
C6 C 0.1182(3) -0.2500 0.1118(5) 0.0243 Uani
O2B O 0.08936(15) -0.4136(4) 0.0892(2) 0.0325 Uani
C2B C 0.2942(2) -0.0765(7) 0.2595(4) 0.0423 Uani
C1B C 0.2270(3) -0.0758(7) 0.2015(4) 0.0420 Uani
H1B H 0.2046 0.0416 0.1815 0.0500 Uiso
H2B H 0.3169 0.0408 0.2792 0.0510 Uiso
O3B O 0.42601(16) -0.0880(5) 0.3853(2) 0.0317 Uani
O1D O 0.0068(2) 0.2500 0.0745(3) 0.0201 Uani
O2D O -0.08936(15) 0.0864(4) -0.0892(2) 0.0325 Uani
O3C O 0.07399(16) 0.0880(5) -0.1147(2) 0.0317 Uani
O3G O -0.07399(16) -0.0880(5) 0.1147(2) 0.0317 Uani
V1B V 0.0000 -0.5000 0.0000 0.0183 Uani
V1C V 0.5000 -0.5000 0.5000 0.0183 Uani
V1A V 0.5000 -0.0000 0.5000 0.0183 Uani
loop_
_atom_site_aniso_label
_atom_site_aniso_U_11
_atom_site_aniso_U_22
_atom_site_aniso_U_33
_atom_site_aniso_U_23
_atom_site_aniso_U_13
_atom_site_aniso_U_12
V1 0.0128(4) 0.0156(4) 0.0264(4) 0.0009(4) 0.0007(5) 0.0004(4)
O1 0.023(2) 0.0127(15) 0.0245(19) 0.000 0.0011(19) 0.000
O2 0.0259(16) 0.0228(16) 0.0489(18) -0.0027(15) -0.0154(14) 0.0017(14)
O3 0.0306 0.0243 0.0401 -0.002 -0.0156 0.004
C1 0.039 0.018 0.069 -0.007 -0.022 -0.002
C2 0.033 0.023 0.071 0.006 -0.03 0.002
C3 0.022 0.022 0.043 0 -0.013 0
C4 0.022(3) 0.024(3) 0.038(4) 0.000 -0.015(3) 0.000
C5 0.018 0.02 0.027 0 -0.006 0
C6 0.016(3) 0.025(3) 0.032(3) 0.000 -0.002(3) 0.000
O2B 0.0259 0.0228 0.0489 0.0027 -0.0154 -0.0017
C2B 0.033 0.023 0.071 -0.006 -0.03 -0.002
C1B 0.039(3) 0.018(2) 0.069(3) 0.007(2) -0.022(3) 0.002(2)
O3B 0.0306 0.0243 0.0401 0.002 -0.0156 -0.004
O1D 0.023 0.0127 0.0245 0 0.0011 0
O2D 0.0259 0.0228 0.0489 -0.0027 -0.0154 0.0017
O3C 0.0306 0.0243 0.0401 -0.002 0.0156 -0.004
O3G 0.0306 0.0243 0.0401 -0.002 0.0156 -0.004
V1B 0.0128 0.0156 0.0264 -0.0009 0.0007 -0.0004
V1C 0.0128 0.0156 0.0264 0.0009 -0.0007 -0.0004
V1A 0.0128 0.0156 0.0264 -0.0009 -0.0007 0.0004
loop_
_geom_bond_atom_site_label_1
_geom_bond_atom_site_label_2
_geom_bond_site_symmetry_1
_geom_bond_site_symmetry_2
V1 O1 1_555 1_555
O1 V1B 1_555 1_555
O2 V1 1_555 1_555
O3 C5 1_555 1_555
C1 H1 1_555 1_555
C2 C1 1_555 1_555
H2 C2 1_555 1_555
C3 C2 1_555 1_555
C4 C1 1_555 1_555
C5 C3 1_555 1_555
C6 O2 1_555 1_555
O2B C6 1_555 1_555
C2B C3 1_555 1_555
C1B C4 1_555 1_555
H1B C1B 1_555 1_555
H2B C2B 1_555 1_555
O3B C5 1_555 1_555
O1D V1 1_555 1_555
O2D V1 1_555 1_555
O3C V1 1_555 1_555
O3G V1 1_555 1_555
V1B O2B 1_555 1_555
V1C O3 1_555 1_555
V1A O3B 1_555 1_555
C4 C6 1_555 1_555
C2B C1B 1_555 1_555

#END
