
#######################################################################
#
#                 Cambridge Crystallographic Data Centre
#                                CCDC 
#
#######################################################################
#
# If this CIF has been generated from an entry in the Cambridge 
# Structural Database, then it will include bibliographic, chemical, 
# crystal, experimental, refinement or atomic coordinate data resulting 
# from the CCDC's data processing and validation procedures.
#
#######################################################################

data_MOKMOQ
_chemical_formula_moiety         '(C30 H22 N4 O8 Zn2)n'
_symmetry_cell_setting           monoclinic
_symmetry_space_group_name_H-M   'C 2/c'
_symmetry_Int_Tables_number      15
_space_group_name_Hall           '-C 2yc'
loop_
_symmetry_equiv_pos_site_id
_symmetry_equiv_pos_as_xyz
1 x,y,z
2 -x,y,1/2-z
3 1/2+x,1/2+y,z
4 1/2-x,1/2+y,1/2-z
5 -x,-y,-z
6 x,-y,1/2+z
7 1/2-x,1/2-y,-z
8 1/2+x,1/2-y,1/2+z
_cell_length_a                   16.2326(19)
_cell_length_b                   14.5987(19)
_cell_length_c                   36.175(4)
_cell_angle_alpha                90
_cell_angle_beta                 94.930(9)
_cell_angle_gamma                90
_cell_volume                     8540.85
loop_
_atom_site_label
_atom_site_type_symbol
_atom_site_fract_x
_atom_site_fract_y
_atom_site_fract_z
C1 C 0.7714(18) 0.484(3) 0.1980(6)
H1 H 0.7316 0.5195 0.1849
C2 C 0.8634(16) 0.3814(19) 0.1984(5)
H2 H 0.8922 0.3371 0.1863
C3 C 0.7717(18) 0.484(2) 0.2357(5)
H3 H 0.7279 0.5097 0.2470
C4 C 0.8699(19) 0.381(2) 0.2372(5)
H4 H 0.8985 0.3337 0.2497
Zn1 Zn 0.80850(7) 0.43892(9) 0.12289(3)
Zn2 Zn 0.79306(7) 0.43964(9) 0.04038(3)
O1 O 0.8830(5) 0.5333(6) 0.0489(2)
N1 N 0.7780(5) 0.5558(7) 0.4842(2)
N2 N 0.8204(6) 0.4387(7) 0.1790(2)
O2 O 0.7094(5) 0.5371(6) 0.0542(2)
O3 O 1.2061(5) 0.8438(6) 0.0490(2)
O4 O 0.7221(6) 0.5407(6) 0.1155(2)
O5 O 0.3916(5) 0.8390(6) 0.1128(2)
O6 O 1.2157(5) 0.8474(6) 0.1107(2)
C5 C 0.4870(7) 0.7540(8) 0.0834(3)
O7 O 0.8952(6) 0.5329(6) 0.1112(3)
O8 O 0.3846(5) 0.8429(6) 0.0524(2)
C6 C 1.1138(6) 0.7521(8) 0.0796(3)
C7 C 0.6214(8) 0.6332(9) 0.0848(3)
C8 C 0.9146(7) 0.5588(8) 0.0802(3)
C9 C 0.9857(7) 0.6285(8) 0.0798(3)
C10 C 0.6889(7) 0.5653(8) 0.0847(3)
C11 C 0.7630(9) 0.5507(9) 0.4065(3)
C12 C 0.8367(11) 0.4461(12) 0.2566(4)
C13 C 1.0798(7) 0.7163(8) 0.0472(3)
H5 H 1.0997 0.7342 0.0249
C14 C 1.0163(7) 0.6539(9) 0.0470(3)
H6 H 0.9940 0.6288 0.0247
C15 C 1.0220(7) 0.6640(9) 0.1126(3)
H7 H 1.0032 0.6458 0.1351
C16 C 0.4158(7) 0.8173(8) 0.0829(3)
C17 C 1.0843(8) 0.7247(9) 0.1124(3)
H8 H 1.1077 0.7486 0.1347
C18 C 0.8131(9) 0.4899(10) 0.4266(3)
H9 H 0.8427 0.4461 0.4145
C19 C 0.5183(9) 0.7123(12) 0.1159(4)
H10 H 0.4939 0.7237 0.1378
N3 N 0.7931(10) 0.4881(11) 0.3510(3)
C20 C 0.5882(13) 0.6771(16) 0.0530(4)
H11 H 0.6116 0.6659 0.0309
C21 C 0.7571(10) 0.5511(11) 0.3649(3)
C22 C 0.7192(9) 0.6148(10) 0.4265(3)
H12 H 0.6837 0.6566 0.4140
N4 N 0.7843(11) 0.4833(12) 0.3125(3)
C23 C 1.1839(7) 0.8196(8) 0.0797(3)
C24 C 0.5240(11) 0.7351(14) 0.0527(4)
H13 H 0.5048 0.7628 0.0304
C25 C 0.5843(10) 0.6550(11) 0.1163(3)
H14 H 0.6050 0.6296 0.1388
C26 C 0.8195(9) 0.4940(10) 0.4655(3)
H15 H 0.8538 0.4524 0.4788
C27 C 0.7294(8) 0.6147(9) 0.4646(3)
H16 H 0.7009 0.6581 0.4773
C28 C 0.8453(14) 0.4551(15) 0.2980(4)
C29 C 0.7108(14) 0.6210(14) 0.3441(4)
H17 H 0.7137 0.6105 0.3180
H18 H 0.6541 0.6189 0.3497
H19 H 0.7337 0.6800 0.3506
C30 C 0.921(2) 0.428(4) 0.3173(7)
H20 H 0.9176 0.4371 0.3434
H21 H 0.9650 0.4648 0.3091
H22 H 0.9310 0.3648 0.3125
Zn1B Zn 0.30850(7) 0.93892(9) 0.12289(3)
Zn1B_2 Zn 1.30850(7) 0.93892(9) 0.12289(3)
Zn2B Zn 0.29306(7) 0.93964(9) 0.04038(3)
Zn2B_2 Zn 1.29306(7) 0.93964(9) 0.04038(3)
Zn2E Zn 0.79306(7) 0.56036(9) 0.54038(3)
N1E N 0.7780(5) 0.4442(7) -0.0158(2)
O3B O 0.7061(5) 0.3438(6) 0.0490(2)
O5B O 0.8916(5) 0.3390(6) 0.1128(2)
O6B O 0.7157(5) 0.3474(6) 0.1107(2)
O8B O 0.8846(5) 0.3429(6) 0.0524(2)
loop_
_geom_bond_atom_site_label_1
_geom_bond_atom_site_label_2
_geom_bond_site_symmetry_1
_geom_bond_site_symmetry_2
C1 H1 1_555 1_555
C2 H2 1_555 1_555
C3 C1 1_555 1_555
H3 C3 1_555 1_555
C4 C2 1_555 1_555
H4 C4 1_555 1_555
Zn1 N2 1_555 1_555
Zn2 O1 1_555 1_555
O1 C8 1_555 1_555
N1 C26 1_555 1_555
N2 C1 1_555 1_555
O2 Zn2 1_555 1_555
O3 C23 1_555 1_555
O4 Zn1 1_555 1_555
O5 C16 1_555 1_555
O6 C23 1_555 1_555
C5 C16 1_555 1_555
O7 Zn1 1_555 1_555
O8 C16 1_555 1_555
C6 C13 1_555 1_555
C7 C10 1_555 1_555
C8 O7 1_555 1_555
C9 C8 1_555 1_555
C10 O2 1_555 1_555
C11 C18 1_555 1_555
C12 C3 1_555 1_555
C13 H5 1_555 1_555
C14 C9 1_555 1_555
H6 C14 1_555 1_555
C15 C9 1_555 1_555
H7 C15 1_555 1_555
C17 C6 1_555 1_555
H8 C17 1_555 1_555
C18 H9 1_555 1_555
C19 C5 1_555 1_555
H10 C19 1_555 1_555
N3 C21 1_555 1_555
C20 C7 1_555 1_555
H11 C20 1_555 1_555
C21 C11 1_555 1_555
C22 C11 1_555 1_555
H12 C22 1_555 1_555
N4 N3 1_555 1_555
C23 C6 1_555 1_555
C24 C5 1_555 1_555
H13 C24 1_555 1_555
C25 C7 1_555 1_555
H14 C25 1_555 1_555
C26 C18 1_555 1_555
H15 C26 1_555 1_555
C27 N1 1_555 1_555
H16 C27 1_555 1_555
C28 C12 1_555 1_555
C29 C21 1_555 1_555
H17 C29 1_555 1_555
H18 C29 1_555 1_555
H19 C29 1_555 1_555
C30 C28 1_555 1_555
H20 C30 1_555 1_555
H21 C30 1_555 1_555
H22 C30 1_555 1_555
Zn1B O5 1_555 1_555
Zn1B_2 O6 1_555 1_555
Zn2B O8 1_555 1_555
Zn2B_2 O3 1_555 1_555
Zn2E N1 1_555 1_555
N1E Zn2 1_555 1_555
O3B Zn2 1_555 1_555
O5B Zn1 1_555 1_555
O6B Zn1 1_555 1_555
O8B Zn2 1_555 1_555
C2 N2 1_555 1_555
C4 C12 1_555 1_555
O4 C10 1_555 1_555
C13 C14 1_555 1_555
C15 C17 1_555 1_555
C19 C25 1_555 1_555
C20 C24 1_555 1_555
C22 C27 1_555 1_555
N4 C28 1_555 1_555

#END
