
#######################################################################
#
#                 Cambridge Crystallographic Data Centre
#                                CCDC 
#
#######################################################################
#
# If this CIF has been generated from an entry in the Cambridge 
# Structural Database, then it will include bibliographic, chemical, 
# crystal, experimental, refinement or atomic coordinate data resulting 
# from the CCDC's data processing and validation procedures.
#
#######################################################################

data_MOKMUW
_chemical_formula_moiety         '(C30 H24 N6 O8 Zn2)n'
_symmetry_cell_setting           monoclinic
_symmetry_space_group_name_H-M   'C 2/c'
_symmetry_Int_Tables_number      15
_space_group_name_Hall           '-C 2yc'
loop_
_symmetry_equiv_pos_site_id
_symmetry_equiv_pos_as_xyz
1 x,y,z
2 -x,y,1/2-z
3 1/2+x,1/2+y,z
4 1/2-x,1/2+y,1/2-z
5 -x,-y,-z
6 x,-y,1/2+z
7 1/2-x,1/2-y,-z
8 1/2+x,1/2-y,1/2+z
_cell_length_a                   17.1558(6)
_cell_length_b                   13.4604(4)
_cell_length_c                   36.1586(11)
_cell_angle_alpha                90
_cell_angle_beta                 97.233(2)
_cell_angle_gamma                90
_cell_volume                     8283.44
loop_
_atom_site_label
_atom_site_type_symbol
_atom_site_fract_x
_atom_site_fract_y
_atom_site_fract_z
Zn1 Zn 0.31961(4) 0.54991(4) 1.120577(15)
Zn2 Zn 0.29575(4) 0.55202(4) 1.038518(15)
O1 O 0.2132(2) 0.6523(3) 1.04722(10)
O2 O 0.2292(3) 0.6448(4) 1.10918(11)
O3 O -0.1147(3) 0.9570(3) 1.04852(11)
O4 O -0.0964(3) 0.9538(3) 1.11082(12)
O5 O 0.2184(3) 0.4440(3) 1.05078(12)
O6 O 0.2397(3) 0.4382(3) 1.11276(13)
O7 O -0.1181(2) 0.1616(3) 1.04887(11)
O8 O -0.1047(3) 0.1599(3) 1.11024(11)
N1 N 0.2795(3) 0.5452(3) 0.98191(11)
N2 N 0.3016(4) 0.4798(5) 0.84885(14)
N3 N 0.2968(5) 0.4768(6) 0.80987(17)
C1 C 0.1936(3) 0.6741(4) 1.07817(15)
C2 C 0.1231(3) 0.7392(4) 1.07899(15)
C3 C 0.0919(4) 0.7555(5) 1.11219(15)
C4 C 0.0255(4) 0.8175(5) 1.11177(15)
C5 C -0.0080(3) 0.8625(4) 1.07928(15)
C6 C 0.0271(4) 0.8453(4) 1.04573(15)
C7 C 0.0902(3) 0.7836(4) 1.04670(13)
H1 H 0.1121 0.7710 1.0243
C8 C -0.0776(4) 0.9276(4) 1.07981(15)
C9 C 0.1991(4) 0.4178(4) 1.08201(16)
C10 C -0.0824(3) 0.1845(4) 1.07998(15)
C11 C 0.3229(4) 0.4827(5) 0.96356(15)
H2 H 0.3589 0.4397 0.9778
C12 C 0.3176(4) 0.4782(5) 0.92532(15)
H3 H 0.3493 0.4334 0.9135
C13 C 0.2631(4) 0.5425(4) 0.90384(15)
C14 C 0.2203(3) 0.6073(4) 0.92296(14)
H4 H 0.1841 0.6521 0.9098
C15 C 0.2306(3) 0.6062(4) 0.96152(14)
H5 H 0.2010 0.6518 0.9742
C16 C 0.2571(5) 0.5417(5) 0.86238(17)
C17 C 0.1861(10) 0.5982(12) 0.8412(4)
H6 H 0.1880 0.5928 0.8143
H7 H 0.1886 0.6683 0.8485
H8 H 0.1371 0.5690 0.8474
C18 C 0.3529(6) 0.4674(9) 0.7958(2)
C19 C 0.3473(5) 0.4551(7) 0.75517(18)
C20 C 0.1273(4) 0.3552(5) 1.08212(18)
C21 C 0.0804(5) 0.3382(8) 1.04830(17)
H9 H 0.0957 0.3639 1.0258
C22 C 0.0111(5) 0.2836(8) 1.04750(18)
H10 H -0.0208 0.2720 1.0245
C23 C -0.0113(4) 0.2459(5) 1.08053(18)
C24 C 0.0356(5) 0.2628(8) 1.11437(17)
H11 H 0.0204 0.2372 1.1369
C25 C 0.1049(5) 0.3175(8) 1.11516(17)
N4 N 0.1343(10) 0.3343(13) 1.1472(4)
C26 C 0.3097(10) 0.5189(14) 0.7370(5)
H12 H 0.2852 0.5700 0.7495
C27 C 0.3017(12) 0.5184(15) 0.6972(5)
H13 H 0.2730 0.5708 0.6842
C28 C 0.3735(12) 0.3791(15) 0.6971(5)
H14 H 0.4008 0.3309 0.6845
C29 C 0.3780(12) 0.3744(15) 0.7363(5)
H15 H 0.4009 0.3188 0.7497
N5 N 0.3325(3) 0.4483(4) 0.67736(13)
N6 N 0.0068(10) 0.8988(11) 1.0122(4)
H16 H 0.0344 0.8911 0.9935
H17 H -0.0335 0.9398 1.0100
C30 C 0.4409(13) 0.469(3) 0.8159(8)
H18 H 0.4642 0.4027 0.8143
H19 H 0.4410 0.4870 0.8422
H20 H 0.4716 0.5174 0.8037
Zn1B Zn -0.18039(4) 0.04991(4) 1.120577(15)
Zn1B_2 Zn -0.18039(4) 1.04991(4) 1.120577(15)
Zn1E Zn 0.31961(4) 0.45009(4) 0.620577(15)
Zn2B Zn -0.20425(4) 0.05202(4) 1.038518(15)
Zn2B_2 Zn -0.20425(4) 1.05202(4) 1.038518(15)
O3B O 0.3853(3) 0.4570(3) 1.04852(11)
O4B O 0.4036(3) 0.4538(3) 1.11082(12)
O7B O 0.3819(2) 0.6616(3) 1.04887(11)
O8B O 0.3953(3) 0.6599(3) 1.11024(11)
N5E N 0.3325(3) 0.5517(4) 1.17736(13)
loop_
_geom_bond_atom_site_label_1
_geom_bond_atom_site_label_2
_geom_bond_site_symmetry_1
_geom_bond_site_symmetry_2
Zn1 O2 1_555 1_555
Zn2 O1 1_555 1_555
O1 C1 1_555 1_555
O2 C1 1_555 1_555
O3 C8 1_555 1_555
O4 C8 1_555 1_555
O5 Zn2 1_555 1_555
O6 Zn1 1_555 1_555
O7 C10 1_555 1_555
O8 C10 1_555 1_555
N1 Zn2 1_555 1_555
N2 N3 1_555 1_555
N3 C18 1_555 1_555
C1 C2 1_555 1_555
C2 C3 1_555 1_555
C3 C4 1_555 1_555
C4 C5 1_555 1_555
C5 C6 1_555 1_555
C6 C7 1_555 1_555
C7 C2 1_555 1_555
H1 C7 1_555 1_555
C8 C5 1_555 1_555
C9 O5 1_555 1_555
C10 C23 1_555 1_555
C11 N1 1_555 1_555
H2 C11 1_555 1_555
C12 C11 1_555 1_555
H3 C12 1_555 1_555
C13 C12 1_555 1_555
C14 C13 1_555 1_555
H4 C14 1_555 1_555
C15 N1 1_555 1_555
H5 C15 1_555 1_555
C16 N2 1_555 1_555
C17 C16 1_555 1_555
H6 C17 1_555 1_555
H7 C17 1_555 1_555
H8 C17 1_555 1_555
C18 C19 1_555 1_555
C19 C26 1_555 1_555
C20 C9 1_555 1_555
C21 C20 1_555 1_555
H9 C21 1_555 1_555
C22 C21 1_555 1_555
H10 C22 1_555 1_555
C23 C22 1_555 1_555
C24 C23 1_555 1_555
H11 C24 1_555 1_555
C25 C20 1_555 1_555
N4 C25 1_555 1_555
C26 H12 1_555 1_555
C27 C26 1_555 1_555
H13 C27 1_555 1_555
C28 H14 1_555 1_555
C29 C19 1_555 1_555
H15 C29 1_555 1_555
N5 C27 1_555 1_555
N6 C6 1_555 1_555
H16 N6 1_555 1_555
H17 N6 1_555 1_555
C30 C18 1_555 1_555
H18 C30 1_555 1_555
H19 C30 1_555 1_555
H20 C30 1_555 1_555
Zn1B O8 1_555 1_555
Zn1B_2 O4 1_555 1_555
Zn1E N5 1_555 1_555
Zn2B O7 1_555 1_555
Zn2B_2 O3 1_555 1_555
O3B Zn2 1_555 1_555
O4B Zn1 1_555 1_555
O7B Zn2 1_555 1_555
O8B Zn1 1_555 1_555
N5E Zn1 1_555 1_555
O6 C9 1_555 1_555
C13 C16 1_555 1_555
C14 C15 1_555 1_555
C24 C25 1_555 1_555
C28 C29 1_555 1_555
C28 N5 1_555 1_555

#END
