
#######################################################################
#
#                 Cambridge Crystallographic Data Centre
#                                CCDC 
#
#######################################################################
#
# If this CIF has been generated from an entry in the Cambridge 
# Structural Database, then it will include bibliographic, chemical, 
# crystal, experimental, refinement or atomic coordinate data resulting 
# from the CCDC's data processing and validation procedures.
#
#######################################################################

data_QOZPEC
_chemical_formula_moiety         '(C28 H18 Cd2 N16 O13)n'
_symmetry_cell_setting           monoclinic
_symmetry_space_group_name_H-M   'P 2/n'
_symmetry_Int_Tables_number      13
_space_group_name_Hall           '-P 2yac'
loop_
_symmetry_equiv_pos_site_id
_symmetry_equiv_pos_as_xyz
1 x,y,z
2 1/2-x,y,1/2-z
3 -x,-y,-z
4 1/2+x,-y,1/2+z
_cell_length_a                   9.847(5)
_cell_length_b                   14.929(8)
_cell_length_c                   21.957(13)
_cell_angle_alpha                90
_cell_angle_beta                 102.680(11)
_cell_angle_gamma                90
_cell_volume                     3149.09
loop_
_atom_site_label
_atom_site_type_symbol
_atom_site_fract_x
_atom_site_fract_y
_atom_site_fract_z
Cd1 Cd 0.16284(2) 0.739116(17) 0.323995(11)
C1 C 0.0291(4) 0.5559(3) 0.45271(19)
C2 C -0.1084(4) 0.5437(3) 0.46035(19)
C3 C 0.1350(4) 0.5120(3) 0.4941(2)
H1 H 0.2286 0.5209 0.4908
C4 C 0.0601(4) 0.6145(3) 0.4017(2)
C5 C -0.2264(4) 0.5977(4) 0.4212(2)
C6 C -0.4425(4) 0.6267(4) 0.2897(2)
H2 H -0.3732 0.6212 0.2659
C7 C -0.5511(4) 0.6174(3) 0.3647(2)
H3 H -0.5727 0.6041 0.4038
C8 C 0.4521(4) 0.9472(3) 0.44620(19)
C9 C 0.5887(5) 0.9760(3) 0.4612(2)
C10 C 0.3663(4) 0.9702(4) 0.4854(2)
H4 H 0.2731 0.9489 0.4761
C11 C 0.3875(4) 0.8920(3) 0.38874(19)
C12 C 0.7256(12) 0.9482(10) 0.4377(7)
C13 C 0.8920(11) 0.9691(7) 0.3256(7)
H5 H 0.8753 1.0316 0.3202
C14 C 0.8794(10) 0.8289(7) 0.3506(5)
H6 H 0.8524 0.7736 0.3657
N1 N -0.3202(3) 0.5465(3) 0.38323(18)
H7 H -0.3113 0.4879 0.3813
N2 N -0.4339(3) 0.5927(3) 0.34666(17)
N3 N -0.5611(3) 0.6686(2) 0.27161(14)
N4 N -0.6295(3) 0.6625(2) 0.31942(14)
N5 N 0.6985(8) 0.9297(6) 0.3751(4)
H8 H 0.6134 0.9303 0.3519
N6 N 0.8128(8) 0.9101(6) 0.3506(5)
N7 N 0.9842(13) 0.8422(7) 0.3262(7)
N8 N 0.9943(9) 0.9253(6) 0.3104(5)
O1 O 0.1733(3) 0.6514(3) 0.41023(16)
O2 O -0.0306(4) 0.6232(3) 0.35295(18)
O3 O -0.2394(4) 0.6775(3) 0.4276(2)
O4 O 0.2500 0.8284(2) 0.2500
H9 H 0.3224 0.8624 0.2654
O5 O 0.2921(3) 0.8398(3) 0.39486(15)
O6 O 0.4303(3) 0.9063(3) 0.34003(15)
O7 O 0.8388(8) 0.9446(6) 0.4695(4)
C1B C -0.0291(4) 0.4441(3) 0.54729(19)
C2B C 0.1084(4) 0.4563(3) 0.53965(19)
C3B C -0.1350(4) 0.4880(3) 0.5059(2)
H1B H -0.2286 0.4791 0.5092
C4B C -0.0601(4) 0.3855(3) 0.5983(2)
C5B C 0.2264(4) 0.4023(4) 0.5788(2)
C6B C 0.4425(4) 0.3733(4) 0.7103(2)
H2B H 0.3732 0.3788 0.7341
C7B C 0.5511(4) 0.3826(3) 0.6353(2)
H3B H 0.5727 0.3959 0.5962
N1B N 0.3202(3) 0.4535(3) 0.61677(18)
H7B H 0.3113 0.5121 0.6187
N2B N 0.4339(3) 0.4073(3) 0.65334(17)
N3B N 0.5611(3) 0.3314(2) 0.72839(14)
N4B N 0.6295(3) 0.3375(2) 0.68058(14)
O1B O -0.1733(3) 0.3486(3) 0.58977(16)
O2B O 0.0306(4) 0.3768(3) 0.64705(18)
O3B O 0.2394(4) 0.3225(3) 0.5724(2)
C8B C 0.5479(4) 1.0528(3) 0.55380(19)
C9B C 0.4113(5) 1.0240(3) 0.5388(2)
C10B C 0.6337(4) 1.0298(4) 0.5146(2)
H4B H 0.7269 1.0511 0.5239
C11B C 0.6125(4) 1.1080(3) 0.61126(19)
C12B C 0.2744(12) 1.0518(10) 0.5623(7)
C13B C 0.1080(11) 1.0309(7) 0.6744(7)
H5B H 0.1247 0.9684 0.6798
C14B C 0.1206(10) 1.1711(7) 0.6494(5)
H6B H 0.1476 1.2264 0.6343
N5B N 0.3015(8) 1.0703(6) 0.6249(4)
H8B H 0.3866 1.0697 0.6481
N6B N 0.1872(8) 1.0899(6) 0.6494(5)
N7B N 0.0158(13) 1.1578(7) 0.6738(7)
N8B N 0.0057(9) 1.0747(6) 0.6896(5)
O5B O 0.7079(3) 1.1602(3) 0.60514(15)
O6B O 0.5697(3) 1.0937(3) 0.65997(15)
O7B O 0.1612(8) 1.0554(6) 0.5305(4)
H9A H 0.1776 0.8624 0.2346
Cd1A Cd -0.66284(2) 0.739116(17) 0.176005(11)
Cd1_2 Cd -0.83716(2) 0.739116(17) 0.323995(11)
Cd1_3 Cd 1.16284(2) 0.739116(17) 0.323995(11)
Cd1A_2 Cd 0.33716(2) 0.739116(17) 0.176005(11)
Cd1B Cd -0.16284(2) 0.260884(17) 0.676005(11)
Cd1B_2 Cd -0.16284(2) 1.260884(17) 0.676005(11)
Cd1B_3 Cd 0.83716(2) 0.260884(17) 0.676005(11)
Cd1B_4 Cd 0.83716(2) 1.260884(17) 0.676005(11)
Cd1C Cd 0.66284(2) 0.260884(17) 0.823995(11)
N3A N 0.0611(3) 0.6686(2) 0.22839(14)
N4_2 N 0.3705(3) 0.6625(2) 0.31942(14)
N4A N -0.8705(3) 0.6625(2) 0.18058(14)
N7_2 N -0.0158(13) 0.8422(7) 0.3262(7)
N7A N -0.4842(13) 0.8422(7) 0.1738(7)
O1A O -0.6733(3) 0.6514(3) 0.08977(16)
O2A O -0.4694(4) 0.6232(3) 0.14705(18)
O4_2 O -0.7500 0.8284(2) 0.2500
O5A O -0.7921(3) 0.8398(3) 0.10514(15)
loop_
_geom_bond_atom_site_label_1
_geom_bond_atom_site_label_2
_geom_bond_site_symmetry_1
_geom_bond_site_symmetry_2
Cd1 O1 1_555 1_555
C1 C2 1_555 1_555
C2 C5 1_555 1_555
C3 C1 1_555 1_555
H1 C3 1_555 1_555
C4 C1 1_555 1_555
C5 N1 1_555 1_555
C6 H2 1_555 1_555
C7 H3 1_555 1_555
C8 C9 1_555 1_555
C9 C12 1_555 1_555
C10 C8 1_555 1_555
H4 C10 1_555 1_555
C11 C8 1_555 1_555
C12 N5 1_555 1_555
C13 H5 1_555 1_555
C14 H6 1_555 1_555
N1 H7 1_555 1_555
N2 C6 1_555 1_555
N3 C6 1_555 1_555
N4 C7 1_555 1_555
N5 H8 1_555 1_555
N6 C13 1_555 1_555
N7 C14 1_555 1_555
N8 C13 1_555 1_555
O1 C4 1_555 1_555
O2 Cd1 1_555 1_555
O3 C5 1_555 1_555
O4 Cd1 1_555 1_555
H9 O4 1_555 1_555
O5 Cd1 1_555 1_555
O6 C11 1_555 1_555
O7 C12 1_555 1_555
C1B C2B 1_555 1_555
C2B C3 1_555 1_555
C3B C2 1_555 1_555
H1B C3B 1_555 1_555
C4B C1B 1_555 1_555
C5B C2B 1_555 1_555
C6B H2B 1_555 1_555
C7B H3B 1_555 1_555
N1B C5B 1_555 1_555
H7B N1B 1_555 1_555
N2B C6B 1_555 1_555
N3B C6B 1_555 1_555
N4B C7B 1_555 1_555
O1B C4B 1_555 1_555
O2B C4B 1_555 1_555
O3B C5B 1_555 1_555
C8B C9B 1_555 1_555
C9B C10 1_555 1_555
C10B C9 1_555 1_555
H4B C10B 1_555 1_555
C11B C8B 1_555 1_555
C12B C9B 1_555 1_555
C13B H5B 1_555 1_555
C14B H6B 1_555 1_555
N5B C12B 1_555 1_555
H8B N5B 1_555 1_555
N6B C13B 1_555 1_555
N7B C14B 1_555 1_555
N8B C13B 1_555 1_555
O5B C11B 1_555 1_555
O6B C11B 1_555 1_555
O7B C12B 1_555 1_555
H9A O4 1_555 1_555
Cd1A N3 1_555 1_555
Cd1_2 N4 1_555 1_555
Cd1_3 N7 1_555 1_555
Cd1A_2 O4 1_555 1_555
Cd1B O1B 1_555 1_555
Cd1B_2 N7B 1_555 1_555
Cd1B_3 N4B 1_555 1_555
Cd1B_4 O5B 1_555 1_555
Cd1C N3B 1_555 1_555
N3A Cd1 1_555 1_555
N4_2 Cd1 1_555 1_555
N4A Cd1A 1_555 1_555
N7_2 Cd1 1_555 1_555
N7A Cd1A 1_555 1_555
O1A Cd1A 1_555 1_555
O2A Cd1A 1_555 1_555
O4_2 Cd1A 1_555 1_555
O5A Cd1A 1_555 1_555
C4 O2 1_555 1_555
C7 N2 1_555 1_555
C11 O5 1_555 1_555
C14 N6 1_555 1_555
N1 N2 1_555 1_555
N3 N4 1_555 1_555
N5 N6 1_555 1_555
N7 N8 1_555 1_555
C1B C3B 1_555 1_555
C7B N2B 1_555 1_555
N1B N2B 1_555 1_555
N3B N4B 1_555 1_555
O2B Cd1B 1_555 1_555
C8B C10B 1_555 1_555
C14B N6B 1_555 1_555
N5B N6B 1_555 1_555
N7B N8B 1_555 1_555
Cd1_2 O4_2 1_555 1_555

#END
