
#######################################################################
#
#                 Cambridge Crystallographic Data Centre
#                                CCDC 
#
#######################################################################
#
# If this CIF has been generated from an entry in the Cambridge 
# Structural Database, then it will include bibliographic, chemical, 
# crystal, experimental, refinement or atomic coordinate data resulting 
# from the CCDC's data processing and validation procedures.
#
#######################################################################

data_LUDKOM
_chemical_formula_moiety         'C11 H7 Cu4 O10'
_symmetry_cell_setting           trigonal
_symmetry_space_group_name_H-M   'P -3 m 1'
_symmetry_Int_Tables_number      164
_space_group_name_Hall           '-P 3 2"'
loop_
_symmetry_equiv_pos_site_id
_symmetry_equiv_pos_as_xyz
1 x,y,z
2 -y,x-y,z
3 -x+y,-x,z
4 x-y,-y,-z
5 -x,-x+y,-z
6 y,x,-z
7 -x,-y,-z
8 y,-x+y,-z
9 x-y,x,-z
10 -x+y,y,z
11 x,x-y,z
12 -y,-x,z
_cell_length_a                   18.5420(12)
_cell_length_b                   18.5420(12)
_cell_length_c                   6.8114(5)
_cell_angle_alpha                90
_cell_angle_beta                 90
_cell_angle_gamma                120
_cell_volume                     2028.06
loop_
_atom_site_label
_atom_site_type_symbol
_atom_site_fract_x
_atom_site_fract_y
_atom_site_fract_z
_atom_site_U_iso_or_equiv
_atom_site_thermal_displace_type
Cu1 Cu 0.47635(9) 0.52365(9) 0.1560(3) 0.0263 Uani
O1 O 0.4404(7) 0.4104(7) 0.2493(12) 0.0450 Uiso
O2 O 0.4816(7) 0.3720(7) -0.0172(14) 0.0460 Uiso
O3 O 0.4387(5) 0.5613(5) 0.4178(19) 0.0500 Uiso
O4 O 0.2924(6) 0.0860(7) 0.7717(14) 0.0580 Uiso
C1 C 0.4502(6) 0.3585(8) 0.1518(16) 0.0460 Uiso
C2 C 0.4239(6) 0.2761(8) 0.2438(15) 0.0464 Uiso
C3 C 0.3823(7) 0.2554(9) 0.4240(18) 0.0480 Uiso
C4 C 0.3582(7) 0.1791(4) 0.510(2) 0.0510 Uiso
C5 C 0.4420(7) 0.2210(4) 0.153(2) 0.0460 Uiso
C6 C 0.3130(7) 0.1565(4) 0.698(2) 0.0540 Uiso
C7 C 0.2488(9) 0.0563(13) 0.951(3) 0.0580 Uiso
H1 H 0.3781 0.2971 0.4982 0.0596 Uiso
H2 H 0.4698 0.2349 0.0328 0.0579 Uiso
H3 H 0.2790 0.0918 1.0610 0.0660 Uiso
H4 H 0.1951 0.0528 0.9486 0.0660 Uiso
O1J O 0.4404(7) 0.0300(10) 0.2493(12) 0.0450 Uiso
O2J O 0.4816(7) 0.1096(10) -0.0172(14) 0.0460 Uiso
O4J O 0.2924(6) 0.2064(9) 0.7717(14) 0.0580 Uiso
C1J C 0.4502(6) 0.0917(10) 0.1518(16) 0.0460 Uiso
C2J C 0.4239(6) 0.1478(10) 0.2438(15) 0.0464 Uiso
C3J C 0.3823(7) 0.1269(11) 0.4240(18) 0.0480 Uiso
C7J C 0.2488(9) 0.1925(16) 0.951(3) 0.0580 Uiso
H1J H 0.3781 0.0810 0.4982 0.0596 Uiso
H3J H 0.2790 0.1872 1.0610 0.0660 Uiso
H4J H 0.1951 0.1423 0.9486 0.0660 Uiso
Cu1F Cu 0.52365(9) 0.47635(9) -0.1560(3) 0.0263 Uani
Cu1A Cu 0.47635(9) -0.04730(13) 0.1560(3) 0.0263 Uani
Cu1G Cu 0.52365(9) 0.04730(13) -0.1560(3) 0.0263 Uani
O1K O 0.5896(7) 0.5596(7) 0.2493(12) 0.0450 Uiso
O2F O 0.5184(7) 0.6280(7) 0.0172(14) 0.0460 Uiso
O2E O 0.3720(7) 0.4816(7) 0.0172(14) 0.0460 Uiso
loop_
_atom_site_aniso_label
_atom_site_aniso_U_11
_atom_site_aniso_U_22
_atom_site_aniso_U_33
_atom_site_aniso_U_23
_atom_site_aniso_U_13
_atom_site_aniso_U_12
Cu1 0.0235(15) 0.0235(15) 0.0356(13) 0.0002(6) -0.0002(6) 0.0145(17)
Cu1F 0.0235 0.0235 0.0356 0.0002 -0.0002 0.0145
Cu1A 0.0235 0.018 0.0356 -0.0004 -0.0002 0.009
Cu1G 0.0235 0.018 0.0356 -0.0004 -0.0002 0.009
loop_
_geom_bond_atom_site_label_1
_geom_bond_atom_site_label_2
_geom_bond_site_symmetry_1
_geom_bond_site_symmetry_2
Cu1 O1 1_555 1_555
O1 C1 1_555 1_555
O2 C1 1_555 1_555
O3 Cu1 1_555 1_555
O4 C6 1_555 1_555
C1 C2 1_555 1_555
C2 C3 1_555 1_555
C3 C4 1_555 1_555
C4 C6 1_555 1_555
C5 C2 1_555 1_555
C6 O4J 1_555 1_555
C7 O4 1_555 1_555
H1 C3 1_555 1_555
H2 C5 1_555 1_555
H3 C7 1_555 1_555
H4 C7 1_555 1_555
O1J C1J 1_555 1_555
O2J C1J 1_555 1_555
O4J C7J 1_555 1_555
C1J C2J 1_555 1_555
C2J C5 1_555 1_555
C3J C4 1_555 1_555
C7J H3J 1_555 1_555
H1J C3J 1_555 1_555
H4J C7J 1_555 1_555
Cu1F Cu1 1_555 1_555
Cu1A O1J 1_555 1_555
Cu1G O2J 1_555 1_555
O1K Cu1 1_555 1_555
O2F Cu1 1_555 1_555
O2E Cu1 1_555 1_555
O2 Cu1F 1_555 1_555
C2J C3J 1_555 1_555
Cu1A Cu1G 1_555 1_555

#END
