
#######################################################################
#
#                 Cambridge Crystallographic Data Centre
#                                CCDC 
#
#######################################################################
#
# If this CIF has been generated from an entry in the Cambridge 
# Structural Database, then it will include bibliographic, chemical, 
# crystal, experimental, refinement or atomic coordinate data resulting 
# from the CCDC's data processing and validation procedures.
#
#######################################################################

data_IKOKEA
_chemical_formula_moiety         '(C6 H11 Al3 F1 N2 O12 P3)n'
_symmetry_cell_setting           triclinic
_symmetry_space_group_name_H-M   'P -1'
_symmetry_Int_Tables_number      2
_space_group_name_Hall           '-P 1'
loop_
_symmetry_equiv_pos_site_id
_symmetry_equiv_pos_as_xyz
1 x,y,z
2 -x,-y,-z
_cell_length_a                   9.22763(8)
_cell_length_b                   9.28611(7)
_cell_length_c                   9.37888(6)
_cell_angle_alpha                85.2128(5)
_cell_angle_beta                 77.3119(6)
_cell_angle_gamma                89.3472(6)
_cell_volume                     781.285
loop_
_atom_site_label
_atom_site_type_symbol
_atom_site_fract_x
_atom_site_fract_y
_atom_site_fract_z
_atom_site_U_iso_or_equiv
_atom_site_thermal_displace_type
Al1 Al 0.8664(4) 0.0653(4) 0.0841(4) 0.0067 Uiso
P1 P 0.1700(4) 0.13943(32) 0.13700(32) 0.0064 Uiso
P2 P 0.3755(4) 0.12060(33) 0.67611(34) 0.0064 Uiso
P3 P 0.6209(4) 0.31593(32) 0.09528(30) 0.0064 Uiso
Al2 Al 0.6232(4) 0.65829(34) 0.0856(4) 0.0076 Uiso
Al3 Al 0.3956(4) 0.1193(4) 0.3395(4) 0.0076 Uiso
O1 O 0.7728(8) 0.2336(7) 0.0668(7) 0.0068 Uiso
O2 O 0.5271(8) 0.0510(7) 0.6690(6) 0.0068 Uiso
O3 O 0.2540(8) 0.0126(7) 0.7460(6) 0.0068 Uiso
O4 O -0.0001(8) 0.1447(6) 0.1855(6) 0.0068 Uiso
O5 O 0.5402(8) 0.3123(6) -0.0381(6) 0.0068 Uiso
O6 O 0.2329(8) 0.0236(6) 0.0367(6) 0.0068 Uiso
O7 O 0.3611(7) 0.1678(6) 0.5172(7) 0.0068 Uiso
O8 O 0.6493(7) 0.4751(7) 0.1242(7) 0.0068 Uiso
O9 O 0.2278(7) 0.1194(6) 0.2803(6) 0.0068 Uiso
O10 O 0.2315(8) 0.2863(6) 0.0597(6) 0.0068 Uiso
O11 O 0.3682(8) 0.2552(6) 0.7566(6) 0.0068 Uiso
O12 O 0.5117(8) 0.2546(6) 0.2333(6) 0.0068 Uiso
F1 F 1.0154(6) 0.1050(5) -0.0806(5) 0.0081 Uiso
Al1_2 Al -0.1336(4) 0.0653(4) 0.0841(4) 0.0067 Uiso
Al1A Al 0.1336(4) -0.0653(4) -0.0841(4) 0.0067 Uiso
Al1A_2 Al 0.1336(4) -0.0653(4) 0.9159(4) 0.0067 Uiso
Al1A_3 Al 1.1336(4) -0.0653(4) -0.0841(4) 0.0067 Uiso
Al2A Al 0.3768(4) 0.34171(34) -0.0856(4) 0.0076 Uiso
Al2A_2 Al 0.3768(4) 0.34171(34) 0.9144(4) 0.0076 Uiso
Al3A Al 0.6044(4) -0.1193(4) 0.6605(4) 0.0076 Uiso
O2A O 0.4729(8) -0.0510(7) 0.3310(6) 0.0068 Uiso
O3A O 0.7460(8) -0.0126(7) 0.2540(6) 0.0068 Uiso
O4_2 O 0.9999(8) 0.1447(6) 0.1855(6) 0.0068 Uiso
O5A O 0.4598(8) 0.6877(6) 0.0381(6) 0.0068 Uiso
O6A O 0.7671(8) -0.0236(6) -0.0367(6) 0.0068 Uiso
O10A O 0.7685(8) 0.7137(6) -0.0597(6) 0.0068 Uiso
O11A O 0.6318(8) 0.7448(6) 0.2434(6) 0.0068 Uiso
F1A F 0.9846(6) -0.1050(5) 0.0806(5) 0.0081 Uiso
N1 N 0.0950(6) 0.5820(5) 0.3051(4) 0.0761 Uiso
C1 C 0.0995(5) 0.6838(4) 0.3960(4) 0.0761 Uiso
N2 N 0.2073(5) 0.6496(5) 0.4663(5) 0.0761 Uiso
C2 C 0.2737(6) 0.5213(6) 0.4183(7) 0.1740 Uiso
C3 C 0.2039(7) 0.4793(5) 0.3180(6) 0.1740 Uiso
C4 C -0.0066(8) 0.5737(8) 0.2041(5) 0.1387 Uiso
C5 C -0.0006(7) 0.8118(6) 0.4126(8) 0.1387 Uiso
C6 C 0.2563(7) 0.7283(8) 0.5786(6) 0.1387 Uiso
loop_
_geom_bond_atom_site_label_1
_geom_bond_atom_site_label_2
_geom_bond_site_symmetry_1
_geom_bond_site_symmetry_2
Al1 O1 1_555 1_555
P1 O4 1_555 1_555
P2 O2 1_555 1_555
P3 O1 1_555 1_555
Al2 O8 1_555 1_555
Al3 O7 1_555 1_555
O2 Al3A 1_555 1_555
O3 P2 1_555 1_555
O4 Al1_2 1_555 1_555
O5 P3 1_555 1_555
O6 P1 1_555 1_555
O7 P2 1_555 1_555
O8 P3 1_555 1_555
O9 P1 1_555 1_555
O10 P1 1_555 1_555
O11 P2 1_555 1_555
O12 P3 1_555 1_555
F1 Al1 1_555 1_555
N1 C1 1_555 1_555
C1 N2 1_555 1_555
N2 C2 1_555 1_555
C2 C3 1_555 1_555
C3 N1 1_555 1_555
C4 N1 1_555 1_555
C5 C1 1_555 1_555
C6 N2 1_555 1_555
Al1A O6 1_555 1_555
Al1A_2 O3 1_555 1_555
Al1A_3 F1 1_555 1_555
Al2A O5 1_555 1_555
Al2A_2 O11 1_555 1_555
O2A Al3 1_555 1_555
O3A Al1 1_555 1_555
O4_2 Al1 1_555 1_555
O5A Al2 1_555 1_555
O6A Al1 1_555 1_555
O10A Al2 1_555 1_555
O11A Al2 1_555 1_555
F1A Al1 1_555 1_555
Al3 O9 1_555 1_555
Al3 O12 1_555 1_555
O10 Al2A 1_555 1_555
Al1A_3 F1A 1_555 1_555

#END
