
#######################################################################
#
#                 Cambridge Crystallographic Data Centre
#                                CCDC 
#
#######################################################################
#
# If this CIF has been generated from an entry in the Cambridge 
# Structural Database, then it will include bibliographic, chemical, 
# crystal, experimental, refinement or atomic coordinate data resulting 
# from the CCDC's data processing and validation procedures.
#
#######################################################################

data_DOPHOH
_chemical_formula_moiety         '(C84 H114 Cu12 N12 O87)n'
_symmetry_cell_setting           cubic
_symmetry_space_group_name_H-M   'F 2 3'
_symmetry_Int_Tables_number      196
_space_group_name_Hall           'F 2 2 3'
loop_
_symmetry_equiv_pos_site_id
_symmetry_equiv_pos_as_xyz
1 x,y,z
2 -x,-y,z
3 x,-y,-z
4 -x,y,-z
5 z,x,y
6 y,z,x
7 -z,-x,y
8 -y,z,-x
9 z,-x,-y
10 -y,-z,x
11 -z,x,-y
12 y,-z,-x
13 x,1/2+y,1/2+z
14 -x,1/2-y,1/2+z
15 x,1/2-y,1/2-z
16 -x,1/2+y,1/2-z
17 z,1/2+x,1/2+y
18 y,1/2+z,1/2+x
19 -z,1/2-x,1/2+y
20 -y,1/2+z,1/2-x
21 z,1/2-x,1/2-y
22 -y,1/2-z,1/2+x
23 -z,1/2+x,1/2-y
24 y,1/2-z,1/2-x
25 1/2+x,y,1/2+z
26 1/2-x,-y,1/2+z
27 1/2+x,-y,1/2-z
28 1/2-x,y,1/2-z
29 1/2+z,x,1/2+y
30 1/2+y,z,1/2+x
31 1/2-z,-x,1/2+y
32 1/2-y,z,1/2-x
33 1/2+z,-x,1/2-y
34 1/2-y,-z,1/2+x
35 1/2-z,x,1/2-y
36 1/2+y,-z,1/2-x
37 1/2+x,1/2+y,z
38 1/2-x,1/2-y,z
39 1/2+x,1/2-y,-z
40 1/2-x,1/2+y,-z
41 1/2+z,1/2+x,y
42 1/2+y,1/2+z,x
43 1/2-z,1/2-x,y
44 1/2-y,1/2+z,-x
45 1/2+z,1/2-x,-y
46 1/2-y,1/2-z,x
47 1/2-z,1/2+x,-y
48 1/2+y,1/2-z,-x
_cell_length_a                   34.172(5)
_cell_length_b                   34.172(5)
_cell_length_c                   34.172(5)
_cell_angle_alpha                90
_cell_angle_beta                 90
_cell_angle_gamma                90
_cell_volume                     39903.5
loop_
_atom_site_label
_atom_site_type_symbol
_atom_site_fract_x
_atom_site_fract_y
_atom_site_fract_z
Cu1 Cu 0.2500 0.7500 0.95473(5)
Cu2 Cu 0.28920(7) 1.0000 1.0000
Cu3 Cu 0.2500 0.7500 1.03162(4)
Cu4 Cu 0.21095(7) 1.0000 1.0000
O1 O 0.1463(3) 0.8622(2) 0.9872(2)
O2 O 0.1950(2) 0.7661(2) 1.0259(2)
C1 C 0.4001(3) 0.8577(3) 0.9125(3)
H1 H 0.4070 0.8363 0.9277
O3 O 0.2500 0.7500 0.8917(4)
C2 C 0.1172(3) 0.7432(3) 0.9918(3)
H2 H 0.1228 0.7304 0.9671
H3 H 0.1284 0.7274 1.0125
O4 O 0.2500 0.7500 1.0935(3)
N1 N 0.3062(2) 0.8745(2) 0.9585(3)
O5 O 0.2136(2) 0.9444(2) 0.9912(2)
C3 C 0.3672(3) 0.8799(3) 0.9227(3)
C4 C 0.1205(3) 0.8677(3) 0.9227(3)
O6 O 0.2662(2) 0.8047(2) 1.0251(2)
C5 C 0.1317(3) 0.8453(3) 0.9581(3)
N2 N 0.1254(2) 0.8065(2) 0.9580(3)
H4 H 0.1146 0.7954 0.9381
C6 C 0.1370(3) 0.7835(3) 0.9920(3)
H5 H 0.1296 0.7976 1.0159
C7 C 0.2434(3) 0.8827(3) 0.9921(3)
C8 C 0.0875(3) 0.8574(3) 0.9001(3)
H6 H 0.0726 0.8357 0.9069
C9 C 0.1810(3) 0.7755(3) 0.9926(3)
O7 O 0.3621(2) 0.8542(2) 0.9874(2)
O8 O 0.1505(4) 1.0000 1.0000
C10 C 0.2755(3) 0.8186(3) 0.9927(3)
O9 O 0.3488(4) 1.0000 1.0000
C11 C 0.2455(3) 0.9264(3) 0.9970(3)
C12 C 0.3453(3) 0.8685(3) 0.9583(3)
O10 O 0.2758(2) 0.8007(2) 0.9607(2)
C13 C 0.0735(3) 0.7454(4) 0.9972(3)
O11 O 0.0560(2) 0.7136(2) 0.9911(2)
O12 O 0.19921(19) 0.7758(2) 0.9605(2)
O13 O 0.2770(2) 0.9421(2) 1.0073(2)
C14 C 0.2833(3) 0.8625(3) 0.9920(3)
O14 O 0.0580(2) 0.7770(2) 1.0075(2)
H7 H 0.2954 0.8840 0.9377
H8 H 0.2300 0.8776 0.9669
H9 H 0.2270 0.8718 1.0123
H10 H 0.2977 0.8698 1.0155
O1F O 0.0128(2) 0.8537(3) 0.8622(2)
O2F O -0.0259(2) 0.8050(2) 0.7661(2)
C2F C 0.0082(3) 0.8828(3) 0.7432(3)
H2F H 0.0329 0.8772 0.7304
H3F H -0.0125 0.8716 0.7274
C4F C 0.0773(3) 0.8795(3) 0.8677(3)
C5F C 0.0419(3) 0.8683(3) 0.8453(3)
N2F N 0.0420(3) 0.8746(2) 0.8065(2)
H4F H 0.0619 0.8854 0.7954
C6F C 0.0080(3) 0.8630(3) 0.7835(3)
H5F H -0.0159 0.8704 0.7976
C8F C 0.0999(3) 0.9125(3) 0.8574(3)
H6F H 0.0931 0.9274 0.8357
C9F C 0.0074(3) 0.8190(3) 0.7755(3)
C13F C 0.0028(3) 0.9265(3) 0.7454(4)
O11F O 0.0089(2) 0.9440(2) 0.7136(2)
O12F O 0.0395(2) 0.80079(19) 0.7758(2)
O14F O -0.0075(2) 0.9420(2) 0.7770(2)
O1G O 0.1378(2) 0.9872(2) 0.8537(3)
O2G O 0.2339(2) 1.0259(2) 0.8050(2)
C2G C 0.2568(3) 0.9918(3) 0.8828(3)
H2G H 0.2696 0.9671 0.8772
H3G H 0.2726 1.0125 0.8716
C4G C 0.1323(3) 0.9227(3) 0.8795(3)
C5G C 0.1547(3) 0.9581(3) 0.8683(3)
N2G N 0.1935(2) 0.9580(3) 0.8746(2)
H4G H 0.2046 0.9381 0.8854
C6G C 0.2165(3) 0.9920(3) 0.8630(3)
H5G H 0.2024 1.0159 0.8704
C8G C 0.1426(3) 0.9001(3) 0.9125(3)
H6G H 0.1643 0.9069 0.9274
C9G C 0.2245(3) 0.9926(3) 0.8190(3)
C13G C 0.2546(4) 0.9972(3) 0.9265(3)
O11G O 0.2864(2) 0.9911(2) 0.9440(2)
O12G O 0.2242(2) 0.9605(2) 0.80079(19)
O14G O 0.2230(2) 1.0075(2) 0.9420(2)
C1CA C 0.3577(3) 0.9125(3) 0.9001(3)
H1CA H 0.3363 0.9277 0.9070
N1CA N 0.3745(2) 0.9585(3) 0.8062(2)
O5CA O 0.4444(2) 0.9912(2) 0.7136(2)
C3CA C 0.3799(3) 0.9227(3) 0.8672(3)
O6CA O 0.3047(2) 1.0251(2) 0.7662(2)
C7CA C 0.3827(3) 0.9921(3) 0.7434(3)
O7CA O 0.3542(2) 0.9874(2) 0.8621(2)
C10CA C 0.3186(3) 0.9927(3) 0.7755(3)
C11CA C 0.4264(3) 0.9970(3) 0.7455(3)
C12CA C 0.3685(3) 0.9583(3) 0.8453(3)
O10CA O 0.3007(2) 0.9607(2) 0.7758(2)
O13CA O 0.4421(2) 1.0073(2) 0.7770(2)
C14CA C 0.3625(3) 0.9920(3) 0.7833(3)
H7CA H 0.3840 0.9377 0.7954
H8CA H 0.3776 0.9669 0.7300
H9CA H 0.3718 1.0123 0.7270
H10CA H 0.3698 1.0155 0.7977
C1NA C 0.4125(3) 0.9001(3) 0.8577(3)
H1NA H 0.4277 0.9070 0.8363
N1NA N 0.4585(3) 0.8062(2) 0.8745(2)
O5NA O 0.4912(2) 0.7136(2) 0.9444(2)
C3NA C 0.4227(3) 0.8672(3) 0.8799(3)
O6NA O 0.5251(2) 0.7662(2) 0.8047(2)
C7NA C 0.4921(3) 0.7434(3) 0.8827(3)
O7NA O 0.4874(2) 0.8621(2) 0.8542(2)
C10NA C 0.4927(3) 0.7755(3) 0.8186(3)
C11NA C 0.4970(3) 0.7455(3) 0.9264(3)
C12NA C 0.4583(3) 0.8453(3) 0.8685(3)
O10NA O 0.4607(2) 0.7758(2) 0.8007(2)
O13NA O 0.5073(2) 0.7770(2) 0.9421(2)
C14NA C 0.4920(3) 0.7833(3) 0.8625(3)
H7NA H 0.4377 0.7954 0.8840
H8NA H 0.4669 0.7300 0.8776
H9NA H 0.5123 0.7270 0.8718
H10NA H 0.5155 0.7977 0.8698
O1B O 0.1463(3) 1.1378(2) 1.0128(2)
O2B O 0.1950(2) 1.2339(2) 0.9741(2)
C1B C 0.4001(3) 1.1423(3) 1.0875(3)
H1B H 0.4070 1.1637 1.0723
C2B C 0.1172(3) 1.2568(3) 1.0082(3)
H2B H 0.1228 1.2696 1.0329
H3B H 0.1284 1.2726 0.9875
N1B N 0.3062(2) 1.1255(2) 1.0415(3)
O5B O 0.2136(2) 1.0556(2) 1.0088(2)
C3B C 0.3672(3) 1.1201(3) 1.0773(3)
C4B C 0.1205(3) 1.1323(3) 1.0773(3)
O6B O 0.2662(2) 1.1953(2) 0.9749(2)
C5B C 0.1317(3) 1.1547(3) 1.0419(3)
N2B N 0.1254(2) 1.1935(2) 1.0420(3)
H4B H 0.1146 1.2046 1.0619
C6B C 0.1370(3) 1.2165(3) 1.0080(3)
H5B H 0.1296 1.2024 0.9841
C7B C 0.2434(3) 1.1173(3) 1.0079(3)
C8B C 0.0875(3) 1.1426(3) 1.0999(3)
H6B H 0.0726 1.1643 1.0931
C9B C 0.1810(3) 1.2245(3) 1.0074(3)
O7B O 0.3621(2) 1.1458(2) 1.0126(2)
C10B C 0.2755(3) 1.1814(3) 1.0073(3)
C11B C 0.2455(3) 1.0736(3) 1.0030(3)
C12B C 0.3453(3) 1.1315(3) 1.0417(3)
O10B O 0.2758(2) 1.1993(2) 1.0393(2)
C13B C 0.0735(3) 1.2546(4) 1.0028(3)
O11B O 0.0560(2) 1.2864(2) 1.0089(2)
O12B O 0.19921(19) 1.2242(2) 1.0395(2)
O13B O 0.2770(2) 1.0579(2) 0.9927(2)
C14B C 0.2833(3) 1.1375(3) 1.0080(3)
O14B O 0.0580(2) 1.2230(2) 0.9925(2)
H7B H 0.2954 1.1160 1.0623
H8B H 0.2300 1.1224 1.0331
H9B H 0.2270 1.1282 0.9877
H10B H 0.2977 1.1302 0.9845
O1J O 0.0128(2) 1.1463(3) 1.1378(2)
O2J O -0.0259(2) 1.1950(2) 1.2339(2)
C2J C 0.0082(3) 1.1172(3) 1.2568(3)
H2J H 0.0329 1.1228 1.2696
H3J H -0.0125 1.1284 1.2726
C4J C 0.0773(3) 1.1205(3) 1.1323(3)
C5J C 0.0419(3) 1.1317(3) 1.1547(3)
N2J N 0.0420(3) 1.1254(2) 1.1935(2)
H4J H 0.0619 1.1146 1.2046
C6J C 0.0080(3) 1.1370(3) 1.2165(3)
H5J H -0.0159 1.1296 1.2024
C8J C 0.0999(3) 1.0875(3) 1.1426(3)
H6J H 0.0931 1.0726 1.1643
C9J C 0.0074(3) 1.1810(3) 1.2245(3)
C13J C 0.0028(3) 1.0735(3) 1.2546(4)
O11J O 0.0089(2) 1.0560(2) 1.2864(2)
O12J O 0.0395(2) 1.19921(19) 1.2242(2)
O14J O -0.0075(2) 1.0580(2) 1.2230(2)
O1I O 0.1378(2) 1.0128(2) 1.1463(3)
O2I O 0.2339(2) 0.9741(2) 1.1950(2)
C2I C 0.2568(3) 1.0082(3) 1.1172(3)
H2I H 0.2696 1.0329 1.1228
H3I H 0.2726 0.9875 1.1284
C4I C 0.1323(3) 1.0773(3) 1.1205(3)
C5I C 0.1547(3) 1.0419(3) 1.1317(3)
N2I N 0.1935(2) 1.0420(3) 1.1254(2)
H4I H 0.2046 1.0619 1.1146
C6I C 0.2165(3) 1.0080(3) 1.1370(3)
H5I H 0.2024 0.9841 1.1296
C8I C 0.1426(3) 1.0999(3) 1.0875(3)
H6I H 0.1643 1.0931 1.0726
C9I C 0.2245(3) 1.0074(3) 1.1810(3)
C13I C 0.2546(4) 1.0028(3) 1.0735(3)
O11I O 0.2864(2) 1.0089(2) 1.0560(2)
O12I O 0.2242(2) 1.0395(2) 1.19921(19)
O14I O 0.2230(2) 0.9925(2) 1.0580(2)
C1IA C 0.3577(3) 1.0875(3) 1.0999(3)
H1IA H 0.3363 1.0723 1.0930
N1IA N 0.3745(2) 1.0415(3) 1.1938(2)
O5IA O 0.4444(2) 1.0088(2) 1.2864(2)
C3IA C 0.3799(3) 1.0773(3) 1.1328(3)
O6IA O 0.3047(2) 0.9749(2) 1.2338(2)
C7IA C 0.3827(3) 1.0079(3) 1.2566(3)
O7IA O 0.3542(2) 1.0126(2) 1.1379(2)
C10IA C 0.3186(3) 1.0073(3) 1.2245(3)
C11IA C 0.4264(3) 1.0030(3) 1.2545(3)
C12IA C 0.3685(3) 1.0417(3) 1.1547(3)
O10IA O 0.3007(2) 1.0393(2) 1.2242(2)
O13IA O 0.4421(2) 0.9927(2) 1.2230(2)
C14IA C 0.3625(3) 1.0080(3) 1.2167(3)
H7IA H 0.3840 1.0623 1.2046
H8IA H 0.3776 1.0331 1.2700
H9IA H 0.3718 0.9877 1.2730
H10IA H 0.3698 0.9845 1.2023
C1RA C 0.4125(3) 1.0999(3) 1.1423(3)
H1RA H 0.4277 1.0930 1.1637
N1RA N 0.4585(3) 1.1938(2) 1.1255(2)
O5RA O 0.4912(2) 1.2864(2) 1.0556(2)
C3RA C 0.4227(3) 1.1328(3) 1.1201(3)
O6RA O 0.5251(2) 1.2338(2) 1.1953(2)
C7RA C 0.4921(3) 1.2566(3) 1.1173(3)
O7RA O 0.4874(2) 1.1379(2) 1.1458(2)
C10RA C 0.4927(3) 1.2245(3) 1.1814(3)
C11RA C 0.4970(3) 1.2545(3) 1.0736(3)
C12RA C 0.4583(3) 1.1547(3) 1.1315(3)
O10RA O 0.4607(2) 1.2242(2) 1.1993(2)
O13RA O 0.5073(2) 1.2230(2) 1.0579(2)
C14RA C 0.4920(3) 1.2167(3) 1.1375(3)
H7RA H 0.4377 1.2046 1.1160
H8RA H 0.4669 1.2700 1.1224
H9RA H 0.5123 1.2730 1.1282
H10RA H 0.5155 1.2023 1.1302
Cu2D Cu 0.0000 1.28920(7) 1.0000
Cu4D Cu 0.0000 1.21095(7) 1.0000
O8D O 0.0000 1.1505(4) 1.0000
O9D O -0.0000 1.3488(4) 1.0000
Cu2E Cu 0.0000 1.0000 1.28920(7)
Cu4E Cu 0.0000 1.0000 1.21095(7)
O8E O 0.0000 1.0000 1.1505(4)
O9E O -0.0000 1.0000 1.3488(4)
Cu1F Cu 0.04527(5) 0.7500 0.7500
Cu3F Cu -0.03162(4) 0.7500 0.7500
O3F O 0.1083(4) 0.7500 0.7500
O4F O -0.0935(3) 0.7500 0.7500
Cu1G Cu 0.2500 0.95473(5) 0.7500
Cu3G Cu 0.2500 1.03162(4) 0.7500
O3G O 0.2500 0.8917(4) 0.7500
O4G O 0.2500 1.0935(3) 0.7500
Cu1B Cu 0.2500 1.2500 1.04527(5)
Cu1I Cu 0.2500 1.04527(5) 1.2500
Cu1J Cu 0.04527(5) 1.2500 1.2500
Cu1BA Cu 0.45473(5) 1.2500 1.2500
Cu1FA Cu 0.45473(5) 0.7500 0.7500
Cu2F Cu -0.0000 0.71080(7) 1.0000
Cu2G Cu -0.0000 1.0000 0.71080(7)
Cu2CA Cu 0.5000 1.0000 0.78920(7)
Cu2EA Cu 0.5000 1.0000 1.21080(7)
Cu2NA Cu 0.5000 0.78920(7) 1.0000
Cu2PA Cu 0.5000 1.21080(7) 1.0000
Cu3B Cu 0.2500 1.2500 0.96838(4)
Cu3I Cu 0.2500 0.96838(4) 1.2500
Cu3J Cu -0.03162(4) 1.2500 1.2500
Cu3BA Cu 0.53162(4) 1.2500 1.2500
Cu3FA Cu 0.53162(4) 0.7500 0.7500
Cu4F Cu -0.0000 0.78905(7) 1.0000
Cu4G Cu -0.0000 1.0000 0.78905(7)
Cu4CA Cu 0.5000 1.0000 0.71095(7)
Cu4EA Cu 0.5000 1.0000 1.28905(7)
Cu4NA Cu 0.5000 0.71095(7) 1.0000
Cu4PA Cu 0.5000 1.28905(7) 1.0000
O2V O -0.0259(2) 0.6950(2) 0.7339(2)
O2CA O 0.2661(2) 1.0259(2) 0.6950(2)
O2KA O 0.3050(2) 0.7339(2) 1.0259(2)
O5D O -0.0088(2) 1.2136(2) 0.9444(2)
O5E O -0.0556(2) 0.9912(2) 1.2136(2)
O5I O 0.0556(2) 1.0088(2) 1.2136(2)
O5J O 0.0088(2) 1.2136(2) 1.0556(2)
O6F O -0.0251(2) 0.7338(2) 0.8047(2)
O6G O 0.1953(2) 1.0251(2) 0.7338(2)
O6V O -0.0251(2) 0.7662(2) 0.6953(2)
O6KA O 0.2338(2) 0.6953(2) 1.0251(2)
O10F O 0.0393(2) 0.7242(2) 0.8007(2)
O10G O 0.1993(2) 0.9607(2) 0.7242(2)
O10V O 0.0393(2) 0.7758(2) 0.6993(2)
O10KA O 0.2242(2) 0.6993(2) 0.9607(2)
O11A O -0.0560(2) 1.2864(2) 0.9911(2)
O11H O -0.0089(2) 0.9440(2) 1.2864(2)
O12V O 0.0395(2) 0.69921(19) 0.7242(2)
O12CA O 0.2758(2) 0.9605(2) 0.69921(19)
O12KA O 0.30079(19) 0.7242(2) 0.9605(2)
O13D O 0.0073(2) 1.2770(2) 0.9421(2)
O13E O -0.0579(2) 1.0073(2) 1.2770(2)
O13I O 0.0579(2) 0.9927(2) 1.2770(2)
O13J O -0.0073(2) 1.2770(2) 1.0579(2)
O14A O -0.0580(2) 1.2230(2) 1.0075(2)
O14H O 0.0075(2) 0.9420(2) 1.2230(2)
O15 O 0.0475(2) 0.9525(2) 0.9525(2)
O16 O 0.5000 0.0000 0.0000
O17 O 0.0000 1.0000 1.0000
O18 O 0.2498(4) 0.8921(3) 0.8924(3)
O19 O 0.4256(4) 0.9256(4) 1.0744(4)
O20 O 0.0744(4) 0.9256(4) 1.0744(4)
O21 O 0.1071(2) 0.9336(2) 1.0017(3)
O22 O 0.4330(2) 0.8926(2) 1.0022(3)
O23 O 0.4525(3) 0.9525(3) 0.9525(3)
O24 O 0.1186(5) 0.8814(5) 1.1186(5)
O25 O 0.3813(6) 0.8813(6) 1.1187(6)
O26 O 0.3546(5) 0.8335(5) 1.0658(5)
O27 O 0.1663(6) 0.8549(4) 1.0647(5)
O28 O 0.1850(6) 0.8150(6) 1.1850(6)
O29 O 0.2868(7) 0.8217(8) 1.1105(6)
loop_
_geom_bond_atom_site_label_1
_geom_bond_atom_site_label_2
_geom_bond_site_symmetry_1
_geom_bond_site_symmetry_2
Cu1 O3 1_555 1_555
Cu2 O9 1_555 1_555
Cu3 O2 1_555 1_555
Cu4 O5 1_555 1_555
O1 C5 1_555 1_555
O2 C9 1_555 1_555
C1 H1 1_555 1_555
C2 H2 1_555 1_555
H3 C2 1_555 1_555
O4 Cu3 1_555 1_555
N1 C12 1_555 1_555
O5 C11 1_555 1_555
C3 C1 1_555 1_555
C4 C5 1_555 1_555
O6 Cu3 1_555 1_555
C5 N2 1_555 1_555
N2 H4 1_555 1_555
C6 C2 1_555 1_555
H5 C6 1_555 1_555
C7 C11 1_555 1_555
C8 C4 1_555 1_555
H6 C8 1_555 1_555
C9 C6 1_555 1_555
O7 C12 1_555 1_555
O8 Cu4 1_555 1_555
C10 O6 1_555 1_555
C11 O13 1_555 1_555
C12 C3 1_555 1_555
O10 Cu1 1_555 1_555
C13 C2 1_555 1_555
O11 C13 1_555 1_555
O12 Cu1 1_555 1_555
O13 Cu2 1_555 1_555
C14 N1 1_555 1_555
O14 C13 1_555 1_555
H7 N1 1_555 1_555
H8 C7 1_555 1_555
H9 C7 1_555 1_555
H10 C14 1_555 1_555
O1F C5F 1_555 1_555
O2F C9F 1_555 1_555
C2F H2F 1_555 1_555
H3F C2F 1_555 1_555
C4F C8 1_555 1_555
C5F C4F 1_555 1_555
N2F C5F 1_555 1_555
H4F N2F 1_555 1_555
C6F C2F 1_555 1_555
H5F C6F 1_555 1_555
C8F C4F 1_555 1_555
H6F C8F 1_555 1_555
C9F C6F 1_555 1_555
C13F C2F 1_555 1_555
O11F C13F 1_555 1_555
O12F C9F 1_555 1_555
O14F C13F 1_555 1_555
O1G C5G 1_555 1_555
O2G C9G 1_555 1_555
C2G H2G 1_555 1_555
H3G C2G 1_555 1_555
C4G C8F 1_555 1_555
C5G C4G 1_555 1_555
N2G C5G 1_555 1_555
H4G N2G 1_555 1_555
C6G C2G 1_555 1_555
H5G C6G 1_555 1_555
C8G C4 1_555 1_555
H6G C8G 1_555 1_555
C9G C6G 1_555 1_555
C13G C2G 1_555 1_555
O11G Cu2 1_555 1_555
O12G C9G 1_555 1_555
O14G Cu4 1_555 1_555
C1CA C3 1_555 1_555
H1CA C1CA 1_555 1_555
N1CA C12CA 1_555 1_555
O5CA C11CA 1_555 1_555
C3CA C1CA 1_555 1_555
O6CA C10CA 1_555 1_555
C7CA C11CA 1_555 1_555
O7CA C12CA 1_555 1_555
C10CA O10CA 1_555 1_555
C11CA O13CA 1_555 1_555
C12CA C3CA 1_555 1_555
O10CA Cu1G 1_555 1_555
O13CA Cu2CA 1_555 1_555
C14CA N1CA 1_555 1_555
H7CA N1CA 1_555 1_555
H8CA C7CA 1_555 1_555
H9CA C7CA 1_555 1_555
H10CA C14CA 1_555 1_555
C1NA C3CA 1_555 1_555
H1NA C1NA 1_555 1_555
N1NA C12NA 1_555 1_555
O5NA C11NA 1_555 1_555
C3NA C1 1_555 1_555
O6NA C10NA 1_555 1_555
C7NA C11NA 1_555 1_555
O7NA C12NA 1_555 1_555
C10NA O10NA 1_555 1_555
C11NA O13NA 1_555 1_555
C12NA C3NA 1_555 1_555
O10NA Cu1FA 1_555 1_555
O13NA Cu2NA 1_555 1_555
C14NA N1NA 1_555 1_555
H7NA N1NA 1_555 1_555
H8NA C7NA 1_555 1_555
H9NA C7NA 1_555 1_555
H10NA C14NA 1_555 1_555
O1B C5B 1_555 1_555
O2B C9B 1_555 1_555
C1B H1B 1_555 1_555
C2B H2B 1_555 1_555
H3B C2B 1_555 1_555
N1B C12B 1_555 1_555
O5B Cu4 1_555 1_555
C3B C1B 1_555 1_555
C4B C5B 1_555 1_555
O6B C10B 1_555 1_555
C5B N2B 1_555 1_555
N2B H4B 1_555 1_555
C6B C2B 1_555 1_555
H5B C6B 1_555 1_555
C7B C11B 1_555 1_555
C8B C4B 1_555 1_555
H6B C8B 1_555 1_555
C9B C6B 1_555 1_555
O7B C12B 1_555 1_555
C10B O10B 1_555 1_555
C11B O5B 1_555 1_555
C12B C3B 1_555 1_555
O10B Cu1B 1_555 1_555
C13B C2B 1_555 1_555
O11B C13B 1_555 1_555
O12B C9B 1_555 1_555
O13B Cu2 1_555 1_555
C14B N1B 1_555 1_555
O14B C13B 1_555 1_555
H7B N1B 1_555 1_555
H8B C7B 1_555 1_555
H9B C7B 1_555 1_555
H10B C14B 1_555 1_555
O1J C5J 1_555 1_555
O2J C9J 1_555 1_555
C2J H2J 1_555 1_555
H3J C2J 1_555 1_555
C4J C8B 1_555 1_555
C5J C4J 1_555 1_555
N2J C5J 1_555 1_555
H4J N2J 1_555 1_555
C6J C2J 1_555 1_555
H5J C6J 1_555 1_555
C8J C4J 1_555 1_555
H6J C8J 1_555 1_555
C9J C6J 1_555 1_555
C13J C2J 1_555 1_555
O11J C13J 1_555 1_555
O12J C9J 1_555 1_555
O14J C13J 1_555 1_555
O1I C5I 1_555 1_555
O2I C9I 1_555 1_555
C2I H2I 1_555 1_555
H3I C2I 1_555 1_555
C4I C8J 1_555 1_555
C5I C4I 1_555 1_555
N2I C5I 1_555 1_555
H4I N2I 1_555 1_555
C6I C2I 1_555 1_555
H5I C6I 1_555 1_555
C8I C4B 1_555 1_555
H6I C8I 1_555 1_555
C9I C6I 1_555 1_555
C13I C2I 1_555 1_555
O11I Cu2 1_555 1_555
O12I C9I 1_555 1_555
O14I Cu4 1_555 1_555
C1IA C3B 1_555 1_555
H1IA C1IA 1_555 1_555
N1IA C12IA 1_555 1_555
O5IA C11IA 1_555 1_555
C3IA C1IA 1_555 1_555
O6IA C10IA 1_555 1_555
C7IA C11IA 1_555 1_555
O7IA C12IA 1_555 1_555
C10IA O10IA 1_555 1_555
C11IA O13IA 1_555 1_555
C12IA C3IA 1_555 1_555
O10IA Cu1I 1_555 1_555
O13IA Cu2EA 1_555 1_555
C14IA N1IA 1_555 1_555
H7IA N1IA 1_555 1_555
H8IA C7IA 1_555 1_555
H9IA C7IA 1_555 1_555
H10IA C14IA 1_555 1_555
C1RA C3IA 1_555 1_555
H1RA C1RA 1_555 1_555
N1RA C12RA 1_555 1_555
O5RA C11RA 1_555 1_555
C3RA C1B 1_555 1_555
O6RA C10RA 1_555 1_555
C7RA C11RA 1_555 1_555
O7RA C12RA 1_555 1_555
C10RA O10RA 1_555 1_555
C11RA O13RA 1_555 1_555
C12RA C3RA 1_555 1_555
O10RA Cu1BA 1_555 1_555
O13RA Cu2PA 1_555 1_555
C14RA N1RA 1_555 1_555
H7RA N1RA 1_555 1_555
H8RA C7RA 1_555 1_555
H9RA C7RA 1_555 1_555
H10RA C14RA 1_555 1_555
Cu2D O11B 1_555 1_555
Cu4D O14B 1_555 1_555
O8D Cu4D 1_555 1_555
O9D Cu2D 1_555 1_555
Cu2E O11J 1_555 1_555
Cu4E O14J 1_555 1_555
O8E Cu4E 1_555 1_555
O9E Cu2E 1_555 1_555
Cu1F O12F 1_555 1_555
Cu3F O2F 1_555 1_555
O3F Cu1F 1_555 1_555
O4F Cu3F 1_555 1_555
Cu1G O12G 1_555 1_555
Cu3G O2G 1_555 1_555
O3G Cu1G 1_555 1_555
O4G Cu3G 1_555 1_555
Cu1B O12B 1_555 1_555
Cu1I O12I 1_555 1_555
Cu1J O12J 1_555 1_555
Cu2F O11 1_555 1_555
Cu2G O11F 1_555 1_555
Cu3B O2B 1_555 1_555
Cu3I O2I 1_555 1_555
Cu3J O2J 1_555 1_555
Cu3BA O6RA 1_555 1_555
Cu3FA O6NA 1_555 1_555
Cu4F O14 1_555 1_555
Cu4G O14F 1_555 1_555
Cu4CA O5CA 1_555 1_555
Cu4EA O5IA 1_555 1_555
Cu4NA O5NA 1_555 1_555
Cu4PA O5RA 1_555 1_555
O2V Cu3F 1_555 1_555
O2CA Cu3G 1_555 1_555
O2KA Cu3 1_555 1_555
O5D Cu4D 1_555 1_555
O5E Cu4E 1_555 1_555
O5I Cu4E 1_555 1_555
O5J Cu4D 1_555 1_555
O6F Cu3F 1_555 1_555
O6G Cu3G 1_555 1_555
O6V Cu3F 1_555 1_555
O6KA Cu3 1_555 1_555
O10F Cu1F 1_555 1_555
O10G Cu1G 1_555 1_555
O10V Cu1F 1_555 1_555
O10KA Cu1 1_555 1_555
O11A Cu2D 1_555 1_555
O11H Cu2E 1_555 1_555
O12V Cu1F 1_555 1_555
O12CA Cu1G 1_555 1_555
O12KA Cu1 1_555 1_555
O13D Cu2D 1_555 1_555
O13E Cu2E 1_555 1_555
O13I Cu2E 1_555 1_555
O13J Cu2D 1_555 1_555
O14A Cu4D 1_555 1_555
O14H Cu4E 1_555 1_555
N2 C6 1_555 1_555
C7 C14 1_555 1_555
C9 O12 1_555 1_555
C10 O10 1_555 1_555
C10 C14 1_555 1_555
N2F C6F 1_555 1_555
C4G C8G 1_555 1_555
N2G C6G 1_555 1_555
C13G O11G 1_555 1_555
C13G O14G 1_555 1_555
O6CA Cu3G 1_555 1_555
C7CA C14CA 1_555 1_555
C10CA C14CA 1_555 1_555
C1NA C3NA 1_555 1_555
C7NA C14NA 1_555 1_555
C10NA C14NA 1_555 1_555
O6B Cu3B 1_555 1_555
N2B C6B 1_555 1_555
C7B C14B 1_555 1_555
C10B C14B 1_555 1_555
C11B O13B 1_555 1_555
N2J C6J 1_555 1_555
C4I C8I 1_555 1_555
N2I C6I 1_555 1_555
C13I O11I 1_555 1_555
C13I O14I 1_555 1_555
O6IA Cu3I 1_555 1_555
C7IA C14IA 1_555 1_555
C10IA C14IA 1_555 1_555
C1RA C3RA 1_555 1_555
C7RA C14RA 1_555 1_555
C10RA C14RA 1_555 1_555

#END
