
#######################################################################
#
#                 Cambridge Crystallographic Data Centre
#                                CCDC 
#
#######################################################################
#
# If this CIF has been generated from an entry in the Cambridge 
# Structural Database, then it will include bibliographic, chemical, 
# crystal, experimental, refinement or atomic coordinate data resulting 
# from the CCDC's data processing and validation procedures.
#
#######################################################################

data_LIHSIF
_chemical_formula_moiety         'C21 H23 Cd15 N45 O9'
_symmetry_cell_setting           monoclinic
_symmetry_space_group_name_H-M   'C 2/c'
_symmetry_Int_Tables_number      15
_space_group_name_Hall           '-C 2yc'
loop_
_symmetry_equiv_pos_site_id
_symmetry_equiv_pos_as_xyz
1 x,y,z
2 1/2+x,1/2+y,z
3 -x,y,1/2-z
4 1/2-x,1/2+y,1/2-z
5 -x,-y,-z
6 1/2-x,1/2-y,-z
7 x,-y,1/2+z
8 1/2+x,1/2-y,1/2+z
_cell_length_a                   19.6945(9)
_cell_length_b                   17.3497(8)
_cell_length_c                   13.8790(7)
_cell_angle_alpha                90
_cell_angle_beta                 91.047(2)
_cell_angle_gamma                90
_cell_volume                     4741.57
loop_
_atom_site_label
_atom_site_type_symbol
_atom_site_fract_x
_atom_site_fract_y
_atom_site_fract_z
O5 O 0.2047(6) 0.9770(6) 0.6776(7)
Cd1 Cd 0.5000 -0.12454(3) 0.7500
Cd2 Cd 0.41142(2) 0.23722(2) 0.67747(3)
Cd3 Cd 0.2500 -0.2500 1.0000
Cd4 Cd 0.63979(2) 0.39452(2) 0.39963(3)
O1 O 0.6636(3) -0.2128(3) 0.9204(4)
O2 O 0.6028(3) -0.1196(3) 0.8573(4)
O3 O 0.5760(3) -0.2387(3) 0.8281(4)
O4 O 0.7437(2) 0.3997(3) 0.5095(3)
N1 N 0.6143(3) -0.1909(3) 0.8691(4)
N2 N 0.5000 0.0055(4) 0.7500
N3 N 0.4695(3) 0.1275(3) 0.7264(4)
N4 N 0.5136(3) 0.2934(3) 0.6229(4)
N5 N 0.5750(3) 0.2915(3) 0.6703(4)
N6 N 0.5899(3) 0.3497(3) 0.5295(4)
N7 N 0.4050(3) -0.1824(3) 1.0224(4)
N8 N 0.4365(3) -0.1451(3) 0.8765(4)
N9 N 0.3493(3) -0.1863(3) 0.9620(4)
N10 N 0.3047(3) 0.1882(3) 0.7169(4)
N11 N 0.2132(3) 0.1434(3) 0.7903(4)
N12 N 0.2506(3) 0.1955(3) 0.6543(4)
N13 N 0.3112(3) 0.3568(3) 0.5555(4)
N14 N 0.3474(3) 0.4751(3) 0.5889(4)
N15 N 0.3625(3) 0.3506(3) 0.6212(4)
N17 N 0.5333(9) 0.4141(6) 0.3205(14)
N18 N 0.4284(5) 0.4617(6) 0.2965(8)
C1 C 0.4531(3) 0.0538(4) 0.7143(5)
H1 H 0.4122 0.0372 0.6835
C2 C 0.6186(3) 0.3248(4) 0.6130(5)
H2 H 0.6655 0.3306 0.6287
C3 C 0.5249(3) 0.3280(4) 0.5408(5)
H3 H 0.4904 0.3370 0.4935
C4 C 0.4551(3) -0.1578(4) 0.9695(5)
H4 H 0.4999 -0.1497 0.9939
C5 C 0.3695(3) -0.1632(4) 0.8766(4)
H5 H 0.3405 -0.1597 0.8213
C6 C 0.2808(3) 0.1574(4) 0.7966(5)
H6 H 0.3080 0.1463 0.8521
C7 C 0.1979(3) 0.1684(4) 0.7007(5)
H7 H 0.1534 0.1666 0.6735
C8 C 0.3043(4) 0.4306(4) 0.5390(6)
H8 H 0.2712 0.4508 0.4951
C9 C 0.3823(4) 0.4217(4) 0.6393(6)
H9 H 0.4179 0.4340 0.6837
C10 C 0.5000 0.3848(6) 0.2500
H10 H 0.5000 0.3300 0.2500
C11 C 0.4834(7) 0.4605(8) 0.3513(9)
H11 H 0.4878 0.4902 0.4086
Cd2B Cd 0.58858(2) 0.23722(2) 0.82253(3)
Cd2F Cd 0.41142(2) -0.23722(2) 1.17747(3)
Cd2D Cd 0.58858(2) -0.23722(2) 0.32253(3)
Cd2C Cd 0.08858(2) -0.26278(2) 0.82253(3)
Cd3F Cd 0.2500 0.2500 0.5000
Cd3G Cd 0.7500 -0.2500 0.5000
Cd4B Cd 0.36021(2) 0.39452(2) 1.10037(3)
Cd4G Cd 0.13979(2) 0.10548(2) 0.89963(3)
Cd4D Cd 0.36021(2) 0.60548(2) 0.60037(3)
Cd4B_2 Cd 0.36021(2) 0.39452(2) 0.10037(3)
Cd4A Cd 0.13979(2) -0.10548(2) 1.39963(3)
O1B O 0.3364(3) -0.2128(3) 0.5796(4)
O2B O 0.3972(3) -0.1196(3) 0.6427(4)
O3B O 0.4240(3) -0.2387(3) 0.6719(4)
O4B O 0.2563(2) 0.3997(3) 0.9905(3)
N1B N 0.3857(3) -0.1909(3) 0.6309(4)
N3B N 0.5305(3) 0.1275(3) 0.7736(4)
N4B N 0.4864(3) 0.2934(3) 0.8771(4)
N5B N 0.4250(3) 0.2915(3) 0.8297(4)
N6B N 0.4101(3) 0.3497(3) 0.9705(4)
N7B N 0.5950(3) -0.1824(3) 0.4776(4)
N7F N 0.4050(3) 0.1824(3) 0.5224(4)
N7D N 0.5950(3) 0.1824(3) 0.9776(4)
N8B N 0.5635(3) -0.1451(3) 0.6235(4)
N9B N 0.6507(3) -0.1863(3) 0.5380(4)
N9E N 0.1507(3) -0.3137(3) 1.0380(4)
N10F N 0.3047(3) -0.1882(3) 1.2169(4)
N10B N 0.6953(3) 0.1882(3) 0.7831(4)
N11F N 0.2132(3) -0.1434(3) 1.2903(4)
N11G N 0.7132(3) 0.3566(3) 0.2903(4)
N11E N 0.2868(3) 0.3566(3) 1.2097(4)
N12F N 0.2506(3) -0.1955(3) 1.1543(4)
N12C N 0.2494(3) -0.3045(3) 0.8457(4)
N13C N 0.1888(3) -0.1432(3) 0.9445(4)
N13F N 0.3112(3) -0.3568(3) 1.0555(4)
N14C N 0.1526(3) -0.0249(3) 0.9111(4)
N14D N 0.6526(3) 0.5249(3) 0.4111(4)
N14F N 0.3474(3) 0.5249(3) 1.0889(4)
N15C N 0.1375(3) -0.1494(3) 0.8788(4)
N15B N 0.6375(3) 0.3506(3) 0.8788(4)
N17B N 0.4667(9) 0.4141(6) 0.1795(14)
N17B_2 N 0.4667(9) 0.4141(6) 1.1795(14)
N18B N 0.5716(5) 0.4617(6) 0.2035(8)
C1B C 0.5469(3) 0.0538(4) 0.7857(5)
H1B H 0.5878 0.0372 0.8165
C2B C 0.3814(3) 0.3248(4) 0.8870(5)
H2B H 0.3345 0.3306 0.8713
C3B C 0.4751(3) 0.3280(4) 0.9592(5)
H3B H 0.5096 0.3370 1.0065
C4B C 0.5449(3) -0.1578(4) 0.5305(5)
H4B H 0.5001 -0.1497 0.5061
C5B C 0.6305(3) -0.1632(4) 0.6234(4)
H5B H 0.6595 -0.1597 0.6787
C6F C 0.2808(3) -0.1574(4) 1.2966(5)
H6F H 0.3080 -0.1463 1.3521
C7F C 0.1979(3) -0.1684(4) 1.2007(5)
H7F H 0.1534 -0.1666 1.1735
C8C C 0.1957(4) -0.0694(4) 0.9610(6)
H8C H 0.2288 -0.0492 1.0049
C9C C 0.1177(4) -0.0783(4) 0.8607(6)
H9C H 0.0821 -0.0660 0.8163
C11B C 0.5166(7) 0.4605(8) 0.1487(9)
H11B H 0.5122 0.4902 0.0914
loop_
_geom_bond_atom_site_label_1
_geom_bond_atom_site_label_2
_geom_bond_site_symmetry_1
_geom_bond_site_symmetry_2
Cd1 O2 1_555 1_555
Cd2 N3 1_555 1_555
Cd3 N9 1_555 1_555
Cd4 O4 1_555 1_555
O1 N1 1_555 1_555
O2 N1 1_555 1_555
O3 N1 1_555 1_555
N2 Cd1 1_555 1_555
N3 C1 1_555 1_555
N4 Cd2 1_555 1_555
N5 N4 1_555 1_555
N6 Cd4 1_555 1_555
N7 N9 1_555 1_555
N8 Cd1 1_555 1_555
N9 C5 1_555 1_555
N10 Cd2 1_555 1_555
N11 C6 1_555 1_555
N12 N10 1_555 1_555
N13 N15 1_555 1_555
N14 C8 1_555 1_555
N15 Cd2 1_555 1_555
N17 Cd4 1_555 1_555
N18 C11 1_555 1_555
C1 N2 1_555 1_555
H1 C1 1_555 1_555
C2 N5 1_555 1_555
H2 C2 1_555 1_555
C3 N4 1_555 1_555
H3 C3 1_555 1_555
C4 N7 1_555 1_555
H4 C4 1_555 1_555
C5 N8 1_555 1_555
H5 C5 1_555 1_555
C6 N10 1_555 1_555
H6 C6 1_555 1_555
C7 N11 1_555 1_555
H7 C7 1_555 1_555
C8 N13 1_555 1_555
H8 C8 1_555 1_555
C9 N14 1_555 1_555
H9 C9 1_555 1_555
C10 N17 1_555 1_555
H10 C10 1_555 1_555
C11 N17 1_555 1_555
H11 C11 1_555 1_555
Cd2B N5 1_555 1_555
Cd2F N7 1_555 1_555
Cd2D N7B 1_555 1_555
Cd2C N15C 1_555 1_555
Cd3F N12 1_555 1_555
Cd3G N9B 1_555 1_555
Cd4B O4B 1_555 1_555
Cd4G N11 1_555 1_555
Cd4D N14 1_555 1_555
Cd4B_2 N17B 1_555 1_555
Cd4A N11F 1_555 1_555
O1B N1B 1_555 1_555
O2B Cd1 1_555 1_555
O3B N1B 1_555 1_555
N1B O2B 1_555 1_555
N3B N3 1_555 1_555
N4B Cd2B 1_555 1_555
N5B Cd2 1_555 1_555
N6B Cd4B 1_555 1_555
N7B N9B 1_555 1_555
N7F Cd2 1_555 1_555
N7D Cd2B 1_555 1_555
N8B Cd1 1_555 1_555
N9B C5B 1_555 1_555
N9E Cd3 1_555 1_555
N10F Cd2F 1_555 1_555
N10B Cd2B 1_555 1_555
N11F C6F 1_555 1_555
N11G Cd4 1_555 1_555
N11E Cd4B 1_555 1_555
N12F Cd3 1_555 1_555
N12C Cd3 1_555 1_555
N13C Cd3 1_555 1_555
N13F Cd3 1_555 1_555
N14C Cd4G 1_555 1_555
N14D Cd4 1_555 1_555
N14F Cd4B 1_555 1_555
N15C N13C 1_555 1_555
N15B Cd2B 1_555 1_555
N17B C10 1_555 1_555
N17B_2 Cd4B 1_555 1_555
N18B C11B 1_555 1_555
C1B N2 1_555 1_555
H1B C1B 1_555 1_555
C2B N5B 1_555 1_555
H2B C2B 1_555 1_555
C3B N4B 1_555 1_555
H3B C3B 1_555 1_555
C4B N7B 1_555 1_555
H4B C4B 1_555 1_555
C5B N8B 1_555 1_555
H5B C5B 1_555 1_555
C6F N10F 1_555 1_555
H6F C6F 1_555 1_555
C7F N11F 1_555 1_555
H7F C7F 1_555 1_555
C8C N13C 1_555 1_555
H8C C8C 1_555 1_555
C9C N14C 1_555 1_555
H9C C9C 1_555 1_555
C11B N17B 1_555 1_555
H11B C11B 1_555 1_555
N6 C2 1_555 1_555
N6 C3 1_555 1_555
N8 C4 1_555 1_555
N12 C7 1_555 1_555
N13 Cd3F 1_555 1_555
N15 C9 1_555 1_555
Cd2B N3B 1_555 1_555
N3B C1B 1_555 1_555
N4B N5B 1_555 1_555
N6B C2B 1_555 1_555
N6B C3B 1_555 1_555
N8B C4B 1_555 1_555
N10F N12F 1_555 1_555
N12F C7F 1_555 1_555
N14C C8C 1_555 1_555
N15C C9C 1_555 1_555

#END
