
#######################################################################
#
#                 Cambridge Crystallographic Data Centre
#                                CCDC 
#
#######################################################################
#
# If this CIF has been generated from an entry in the Cambridge 
# Structural Database, then it will include bibliographic, chemical, 
# crystal, experimental, refinement or atomic coordinate data resulting 
# from the CCDC's data processing and validation procedures.
#
#######################################################################

data_OFUFUR
_chemical_formula_moiety         'C30 H32 F4 N14 Ni1 O35 Si1 W9'
_symmetry_cell_setting           monoclinic
_symmetry_space_group_name_H-M   'P 21/n'
_symmetry_Int_Tables_number      14
_space_group_name_Hall           '-P 2yn'
loop_
_symmetry_equiv_pos_site_id
_symmetry_equiv_pos_as_xyz
1 x,y,z
2 1/2-x,1/2+y,1/2-z
3 -x,-y,-z
4 1/2+x,1/2-y,1/2+z
_cell_length_a                   14.6355(4)
_cell_length_b                   21.0669(5)
_cell_length_c                   16.3476(8)
_cell_angle_alpha                90
_cell_angle_beta                 98.2910(10)
_cell_angle_gamma                90
_cell_volume                     4987.69
loop_
_atom_site_label
_atom_site_type_symbol
_atom_site_fract_x
_atom_site_fract_y
_atom_site_fract_z
_atom_site_U_iso_or_equiv
_atom_site_thermal_displace_type
O26 O 1.0018(14) 0.2153(9) 0.3425(11) 0.1830 Uiso
O27 O 0.944(2) -0.1265(13) 0.5205(17) 0.1290 Uiso
O28 O 1.118(3) 0.1220(18) 0.698(2) 0.1820 Uiso
O29 O 0.290(2) 0.1506(13) 0.7689(16) 0.1250 Uiso
C1 C 0.6816(7) 0.0542(5) 0.6442(5) 0.0304 Uani
H1 H 0.7164 0.0394 0.6925 0.0360 Uiso
C2 C 0.6165(7) 0.1132(4) 0.5485(6) 0.0332 Uani
H2 H 0.5975 0.1495 0.5184 0.0400 Uiso
C3 C 0.6362(7) -0.0508(4) 0.5774(6) 0.0328 Uani
H3 H 0.5845 -0.0640 0.5370 0.0390 Uiso
H4 H 0.6296 -0.0704 0.6299 0.0390 Uiso
C4 C 0.7279(8) -0.0721(5) 0.5493(6) 0.0378 Uani
C5 C 0.7257(11) -0.1460(5) 0.5299(7) 0.0601 Uani
H5 H 0.6769 -0.1547 0.4845 0.0720 Uiso
H6 H 0.7838 -0.1584 0.5127 0.0720 Uiso
C6 C 0.7471(8) -0.0350(5) 0.4728(7) 0.0406 Uani
C7 C 0.8151(10) 0.0097(5) 0.4801(8) 0.0579 Uani
H7 H 0.8566 0.0121 0.5288 0.0690 Uiso
C8 C 0.8238(12) 0.0532(6) 0.4143(10) 0.0724 Uani
H8 H 0.8681 0.0852 0.4212 0.0870 Uiso
C9 C 0.7655(15) 0.0469(7) 0.3403(11) 0.0842 Uani
C10 C 0.7008(14) 0.0008(8) 0.3317(9) 0.0845 Uani
H9 H 0.6632 -0.0045 0.2812 0.1020 Uiso
C11 C 0.6896(10) -0.0391(5) 0.3978(8) 0.0544 Uani
C12 C 0.8273(7) 0.2774(4) 0.5917(6) 0.0328 Uani
H10 H 0.8161 0.3148 0.6187 0.0390 Uiso
C13 C 0.8320(12) 0.1832(5) 0.5545(10) 0.0891 Uani
H11 H 0.8231 0.1395 0.5519 0.1070 Uiso
C14 C 0.9117(8) 0.3264(6) 0.4852(6) 0.0426 Uani
H12 H 0.8797 0.3655 0.4946 0.0510 Uiso
H13 H 0.9024 0.3180 0.4263 0.0510 Uiso
C15 C 1.0155(7) 0.3348(5) 0.5154(6) 0.0372 Uani
C16 C 1.0539(8) 0.3934(5) 0.4721(6) 0.0456 Uani
H14 H 1.0106 0.4283 0.4711 0.0550 Uiso
H15 H 1.1118 0.4067 0.5039 0.0550 Uiso
C17 C 1.0351(7) 0.3437(6) 0.6105(6) 0.0371 Uani
C18 C 1.0770(10) 0.2975(7) 0.6621(7) 0.0632 Uani
H16 H 1.0974 0.2599 0.6410 0.0760 Uiso
C19 C 1.0880(12) 0.3085(9) 0.7463(9) 0.0915 Uani
H17 H 1.1150 0.2771 0.7819 0.1100 Uiso
C20 C 1.0612(12) 0.3626(10) 0.7784(8) 0.0781 Uani
C21 C 1.0178(10) 0.4063(8) 0.7322(8) 0.0647 Uani
H18 H 0.9966 0.4428 0.7552 0.0780 Uiso
C22 C 1.0041(8) 0.3966(7) 0.6468(7) 0.0512 Uani
N1 N 0.8001(6) 0.2212(4) 0.6119(5) 0.0356 Uani
N2 N 0.8765(10) 0.2148(6) 0.5032(8) 0.0946 Uani
N3 N 0.8725(6) 0.2740(4) 0.5283(5) 0.0393 Uani
N4 N 0.6694(6) 0.1152(3) 0.6231(4) 0.0270 Uani
N5 N 0.5937(6) 0.0541(4) 0.5214(5) 0.0399 Uani
N6 N 0.6366(6) 0.0183(4) 0.5858(5) 0.0309 Uani
O1 O 0.9771(9) 0.0784(6) 0.9685(7) 0.0253 Uani
O2 O 1.0695(8) -0.0266(5) 0.9419(6) 0.0193 Uani
O3 O 0.9421(8) -0.0096(5) 0.9050(7) 0.0199 Uani
O5 O 0.9938(7) 0.1740(10) 1.0145(5) 0.1614 Uani
O6 O 1.1344(9) 0.2213(4) 0.9361(5) 0.0816 Uani
O7 O 1.1701(6) 0.0966(3) 0.9077(4) 0.0523 Uani
O8 O 1.1291(7) -0.0092(4) 0.8236(6) 0.0729 Uani
O9 O 1.3141(7) 0.0163(7) 0.8860(6) 0.1043 Uani
O10 O 0.8401(6) -0.1332(3) 0.9387(4) 0.0506 Uani
O11 O 0.7492(7) -0.0280(4) 0.9666(4) 0.0555 Uani
O12 O 1.2098(7) -0.0774(4) 0.9496(5) 0.0780 Uani
O13 O 0.7081(6) -0.0876(5) 0.8127(5) 0.0741 Uani
O14 O 0.8210(6) 0.2057(4) 1.0538(6) 0.0669 Uani
O15 O 0.8024(7) 0.0258(5) 0.8362(9) 0.1159 Uani
O16 O 0.8473(6) 0.1294(9) 0.9233(6) 0.1587 Uani
O17 O 0.8934(8) -0.0797(6) 0.8070(9) 0.1230 Uani
O18 O 1.0618(7) -0.1211(3) 0.8547(5) 0.0731 Uani
O19 O 1.0163(7) -0.0715(5) 0.6961(4) 0.0692 Uani
O20 O 0.9603(7) 0.0343(5) 0.7760(8) 0.1080 Uani
O21 O 1.0014(7) 0.1372(8) 0.8609(6) 0.1427 Uani
O22 O 0.6081(6) 0.2516(4) 0.6572(5) 0.0520 Uani
O23 O 0.8331(5) 0.1333(3) 0.7525(4) 0.0285 Uani
O24 O 0.8006(6) -0.0606(4) 0.6167(5) 0.0513 Uani
H19 H 0.8501 -0.0718 0.6033 0.0770 Uiso
O25 O 1.0644(6) 0.2799(4) 0.4961(5) 0.0524 Uani
H20 H 1.0564 0.2744 0.4459 0.0790 Uiso
Si1 Si 1.0000 0.0000 1.0000 0.0264 Uani
Ni1 Ni 0.71811(8) 0.19079(5) 0.70041(7) 0.0248 Uani
W1 W 0.8928(7) 0.0897(5) 0.8320(5) 0.0323 Uani
W2 W 1.01330(4) -0.04874(2) 0.79374(3) 0.0427 Uani
W3 W 0.80106(3) -0.05971(2) 0.87441(3) 0.0372 Uani
W4 W 1.21291(3) 0.00952(2) 0.92070(3) 0.0327 Uani
W5 W 1.09137(3) 0.15061(3) 0.95489(3) 0.0465 Uani
W6 W 0.87356(16) 0.12982(8) 1.04160(15) 0.0302 Uani
F1 F 0.6192(7) -0.0815(4) 0.3881(5) 0.0828 Uani
F2 F 0.7712(8) 0.0880(4) 0.2797(5) 0.1086 Uani
F3 F 0.9600(5) 0.4448(4) 0.5986(4) 0.0657 Uani
F4 F 1.0739(9) 0.3682(6) 0.8622(5) 0.1331 Uani
N7 N 0.7104(7) -0.1838(4) 0.6011(5) 0.0372 Uani
N8 N 1.0687(6) 0.3790(4) 0.3882(5) 0.0405 Uani
N9 N 1.0014(7) 0.3886(5) 0.3210(6) 0.0536 Uani
N10 N 0.6231(7) -0.1946(5) 0.6170(7) 0.0636 Uani
C23 C 0.7712(8) -0.2115(5) 0.6590(7) 0.0426 Uani
H21 H 0.8350 -0.2102 0.6610 0.0520 Uiso
N11 N 0.7732(6) 0.2588(4) 0.7868(5) 0.0348 Uani
C24 C 1.1431(8) 0.3543(5) 0.3624(6) 0.0419 Uani
H22 H 1.1971 0.3438 0.3971 0.0500 Uiso
C25 C 1.0436(8) 0.3689(6) 0.2610(7) 0.0475 Uani
H23 H 1.0151 0.3701 0.2063 0.0570 Uiso
C26 C 0.6367(9) -0.2305(5) 0.6835(8) 0.0575 Uani
H24 H 0.5885 -0.2472 0.7082 0.0690 Uiso
N12 N 0.6310(6) 0.1535(4) 0.7812(5) 0.0289 Uani
O1B O 1.0229(9) -0.0784(6) 1.0315(7) 0.0253 Uani
O2B O 0.9305(8) 0.0266(5) 1.0581(6) 0.0193 Uani
O3B O 1.0579(8) 0.0096(5) 1.0950(7) 0.0199 Uani
O10B O 1.1599(6) 0.1332(3) 1.0613(4) 0.0506 Uani
O11B O 1.2508(7) 0.0280(4) 1.0334(4) 0.0555 Uani
O12B O 0.7902(7) 0.0774(4) 1.0504(5) 0.0780 Uani
O18B O 0.9382(7) 0.1211(3) 1.1453(5) 0.0731 Uani
W4B W 0.78709(3) -0.00952(2) 1.07930(3) 0.0327 Uani
W5B W 0.90863(3) -0.15061(3) 1.04511(3) 0.0465 Uani
W6B W 1.12644(16) -0.12982(8) 0.95840(15) 0.0302 Uani
C23A C 0.7288(8) 0.2885(5) 0.8410(7) 0.0426 Uani
N11A N 0.7268(6) -0.2412(4) 0.7132(5) 0.0348 Uani
C24C C 0.6431(8) 0.1457(5) 0.8624(6) 0.0419 Uani
C25C C 0.5436(8) 0.1311(6) 0.7610(7) 0.0475 Uani
C26A C 0.8633(9) 0.2695(5) 0.8165(8) 0.0575 Uani
N12C N 1.1310(6) 0.3465(4) 0.2812(5) 0.0289 Uani
loop_
_atom_site_aniso_label
_atom_site_aniso_U_11
_atom_site_aniso_U_22
_atom_site_aniso_U_33
_atom_site_aniso_U_23
_atom_site_aniso_U_13
_atom_site_aniso_U_12
C1 0.031(6) 0.041(6) 0.018(4) -0.003(4) -0.001(4) -0.003(4)
C2 0.041(6) 0.030(5) 0.028(5) 0.008(4) 0.003(4) 0.011(5)
C3 0.042(7) 0.022(5) 0.035(5) 0.001(4) 0.008(5) -0.011(4)
C4 0.049(7) 0.035(6) 0.029(5) 0.005(4) 0.004(5) 0.002(5)
C5 0.112(12) 0.040(6) 0.036(6) 0.004(5) 0.037(7) 0.016(7)
C6 0.055(8) 0.024(5) 0.048(6) 0.014(5) 0.025(6) 0.009(5)
C7 0.076(10) 0.042(7) 0.065(8) 0.003(6) 0.042(7) 0.000(6)
C8 0.108(13) 0.045(8) 0.080(10) 0.006(7) 0.067(10) -0.008(8)
C9 0.127(16) 0.051(9) 0.094(12) 0.039(9) 0.082(12) 0.050(10)
C10 0.114(15) 0.098(13) 0.051(8) 0.033(8) 0.044(9) 0.059(11)
C11 0.074(10) 0.034(6) 0.058(8) 0.004(6) 0.019(7) 0.015(6)
C12 0.045(6) 0.024(5) 0.032(5) 0.011(4) 0.014(5) 0.006(4)
C13 0.142(15) 0.038(7) 0.113(12) -0.029(7) 0.106(12) -0.027(8)
C14 0.042(7) 0.055(7) 0.032(5) 0.008(5) 0.009(5) -0.019(6)
C15 0.036(6) 0.047(6) 0.030(5) -0.001(4) 0.010(4) -0.001(5)
C16 0.053(8) 0.047(7) 0.042(6) -0.012(5) 0.025(6) -0.017(6)
C17 0.022(5) 0.067(7) 0.024(5) -0.005(5) 0.009(4) -0.006(5)
C18 0.059(9) 0.086(10) 0.042(7) 0.013(7) -0.002(6) 0.000(8)
C19 0.094(14) 0.117(15) 0.052(9) 0.041(9) -0.029(9) -0.037(12)
C20 0.078(12) 0.117(14) 0.039(8) -0.004(9) 0.007(7) -0.047(11)
C21 0.061(10) 0.084(10) 0.049(8) -0.014(7) 0.008(7) -0.024(8)
C22 0.039(7) 0.083(9) 0.033(6) -0.007(6) 0.010(5) -0.015(7)
N1 0.042(6) 0.034(5) 0.034(4) -0.003(4) 0.016(4) -0.003(4)
N2 0.139(13) 0.069(8) 0.096(9) -0.044(7) 0.086(9) -0.054(8)
N3 0.047(6) 0.048(5) 0.025(4) 0.002(4) 0.012(4) -0.010(4)
N4 0.035(5) 0.021(4) 0.025(4) 0.001(3) 0.004(3) -0.003(3)
N5 0.041(6) 0.034(5) 0.041(5) -0.002(4) -0.007(4) 0.001(4)
N6 0.031(5) 0.036(5) 0.025(4) -0.001(3) 0.002(3) -0.003(4)
O1 0.023 0.025 0.028 -0.003 0.004 -0.012
O2 0.019(6) 0.021(6) 0.017(6) 0.009(5) 0.000(5) 0.002(5)
O3 0.016(6) 0.024(6) 0.020(6) 0.003(5) 0.004(5) -0.006(5)
O5 0.041 0.41 0.032 -0.07 0.001 -0.013
O6 0.165 0.024 0.06 0.019 0.03 0.007
O7 0.087 0.041 0.025 0.003 -0.005 0.001
O8 0.093 0.034 0.075 -0.001 -0.045 0.01
O9 0.047 0.212 0.062 0.054 0.035 0.042
O10 0.077(7) 0.038(4) 0.031(4) -0.001(3) -0.012(4) -0.010(4)
O11 0.086(7) 0.046(5) 0.029(4) -0.001(3) -0.010(4) -0.007(5)
O12 0.104 0.046 0.066 -0.005 -0.049 0.011
O13 0.044(6) 0.112(8) 0.057(5) -0.032(5) -0.024(4) 0.018(5)
O14 0.045(6) 0.054(5) 0.102(7) 0.019(5) 0.012(5) 0.023(4)
O15 0.081(8) 0.093(8) 0.202(13) 0.102(8) 0.116(9) 0.063(6)
O16 0.016(5) 0.42(3) 0.041(5) -0.067(9) 0.007(4) -0.021(9)
O17 0.095(9) 0.100(8) 0.199(13) 0.107(9) 0.106(9) 0.060(7)
O18 0.103(8) 0.028(4) 0.071(6) -0.004(4) -0.046(6) 0.002(5)
O19 0.072(7) 0.109(7) 0.026(4) -0.019(4) 0.005(4) -0.040(6)
O20 0.083(8) 0.059(6) 0.207(13) 0.084(7) 0.106(8) 0.045(6)
O21 0.032(6) 0.36(2) 0.035(5) -0.048(8) 0.001(4) -0.001(9)
O22 0.051(5) 0.044(5) 0.059(5) 0.011(4) 0.001(4) 0.020(4)
O23 0.033(4) 0.021(3) 0.030(3) 0.002(3) -0.001(3) -0.002(3)
O24 0.046(5) 0.050(5) 0.055(5) 0.009(4) -0.003(4) 0.001(4)
O25 0.053(5) 0.052(5) 0.056(5) -0.004(4) 0.021(4) 0.006(4)
Si1 0.0166(19) 0.043(2) 0.0203(17) 0.0031(15) 0.0047(14) 0.0067(16)
Ni1 0.0263(7) 0.0245(6) 0.0243(6) 0.0015(5) 0.0063(5) 0.0005(5)
W1 0.038(4) 0.045(12) 0.014(2) 0.008(6) 0.004(2) 0.020(4)
W2 0.0570(3) 0.0475(3) 0.0272(2) 0.00840(18) 0.0183(2) 0.0264(2)
W3 0.0210(2) 0.0424(3) 0.0465(3) 0.02041(19) -0.00111(18) -0.00571(18)
W4 0.0199 0.0458 0.0338 0.00012 0.0086 0.00099
W5 0.0309 0.0773 0.0297 0.0038 -0.00082 -0.0226
W6 0.0292(8) 0.0324(10) 0.0297(6) -0.0012(7) 0.0063(5) 0.0085(7)
F1 0.088(7) 0.082(6) 0.071(5) 0.011(4) -0.014(5) -0.013(5)
F2 0.159(10) 0.088(6) 0.101(7) 0.057(5) 0.094(7) 0.056(6)
F3 0.064(5) 0.077(5) 0.059(4) -0.005(4) 0.019(4) 0.016(4)
F4 0.167(11) 0.199(12) 0.029(4) 0.007(5) 0.000(5) -0.075(9)
N7 0.059(7) 0.019(4) 0.033(4) 0.008(3) 0.005(4) 0.008(4)
N8 0.028(5) 0.055(6) 0.042(5) -0.005(4) 0.017(4) -0.007(4)
N9 0.045(6) 0.076(7) 0.044(5) 0.011(5) 0.021(5) 0.023(5)
N10 0.040(7) 0.050(6) 0.096(8) 0.040(6) -0.007(6) 0.001(5)
C23 0.032(6) 0.050(7) 0.049(6) 0.001(5) 0.017(5) 0.001(5)
N11 0.047 0.021 0.04 -0.003 0.019 -0.01
C24 0.025(6) 0.063(7) 0.040(6) 0.002(5) 0.013(5) -0.002(5)
C25 0.040(7) 0.069(8) 0.035(6) 0.010(5) 0.010(5) 0.011(6)
C26 0.042(8) 0.037(6) 0.097(10) 0.035(6) 0.022(7) 0.009(6)
N12 0.025 0.037 0.026 0.001 0.008 0.001
O1B 0.023(7) 0.025(6) 0.028(6) -0.003(5) 0.004(5) -0.012(5)
O2B 0.019 0.021 0.017 0.009 0 0.002
O3B 0.016 0.024 0.02 0.003 0.004 -0.006
O10B 0.077 0.038 0.031 -0.001 -0.012 -0.01
O11B 0.086 0.046 0.029 -0.001 -0.01 -0.007
O12B 0.104(9) 0.046(5) 0.066(6) -0.005(4) -0.049(6) 0.011(5)
O18B 0.103 0.028 0.071 -0.004 -0.046 0.002
W4B 0.0199(2) 0.0458(3) 0.0338(2) 0.00012(18) 0.00860(16) 0.00099(17)
W5B 0.0309(3) 0.0773(4) 0.0297(2) 0.0038(2) -0.00082(18) -0.0226(2)
W6B 0.0292 0.0324 0.0297 -0.0012 0.0063 0.0085
C23A 0.032 0.05 0.049 -0.001 0.017 -0.001
N11A 0.047(6) 0.021(4) 0.040(5) 0.003(3) 0.019(4) 0.010(4)
C24C 0.025 0.063 0.04 -0.002 0.013 0.002
C25C 0.04 0.069 0.035 -0.01 0.01 -0.011
C26A 0.042 0.037 0.097 -0.035 0.022 -0.009
N12C 0.025(4) 0.037(5) 0.026(4) -0.001(3) 0.008(3) -0.001(4)
loop_
_geom_bond_atom_site_label_1
_geom_bond_atom_site_label_2
_geom_bond_site_symmetry_1
_geom_bond_site_symmetry_2
C1 H1 1_555 1_555
C2 H2 1_555 1_555
C3 H3 1_555 1_555
H4 C3 1_555 1_555
C4 C3 1_555 1_555
C5 C4 1_555 1_555
H5 C5 1_555 1_555
H6 C5 1_555 1_555
C6 C4 1_555 1_555
C7 C6 1_555 1_555
H7 C7 1_555 1_555
C8 C7 1_555 1_555
H8 C8 1_555 1_555
C9 C8 1_555 1_555
C10 C9 1_555 1_555
H9 C10 1_555 1_555
C11 C6 1_555 1_555
C12 H10 1_555 1_555
C13 H11 1_555 1_555
C14 H12 1_555 1_555
H13 C14 1_555 1_555
C15 C14 1_555 1_555
C16 C15 1_555 1_555
H14 C16 1_555 1_555
H15 C16 1_555 1_555
C17 C15 1_555 1_555
C18 C17 1_555 1_555
H16 C18 1_555 1_555
C19 C18 1_555 1_555
H17 C19 1_555 1_555
C20 C19 1_555 1_555
C21 C20 1_555 1_555
H18 C21 1_555 1_555
C22 C17 1_555 1_555
N1 C12 1_555 1_555
N2 C13 1_555 1_555
N3 C12 1_555 1_555
N4 C1 1_555 1_555
N5 C2 1_555 1_555
N6 C1 1_555 1_555
O1 Si1 1_555 1_555
O2 Si1 1_555 1_555
O3 Si1 1_555 1_555
O5 W5 1_555 1_555
O6 W5 1_555 1_555
O7 W4 1_555 1_555
O8 W2 1_555 1_555
O9 W4 1_555 1_555
O10 W3 1_555 1_555
O11 W3 1_555 1_555
O12 W4 1_555 1_555
O13 W3 1_555 1_555
O14 W6 1_555 1_555
O15 W1 1_555 1_555
O16 W1 1_555 1_555
O17 W2 1_555 1_555
O18 W2 1_555 1_555
O19 W2 1_555 1_555
O20 W1 1_555 1_555
O21 W1 1_555 1_555
O22 Ni1 1_555 1_555
O23 Ni1 1_555 1_555
O24 C4 1_555 1_555
H19 O24 1_555 1_555
O25 C15 1_555 1_555
H20 O25 1_555 1_555
Si1 O1B 1_555 1_555
Ni1 N1 1_555 1_555
W1 O1 1_555 1_555
W2 O2 1_555 1_555
W3 O3 1_555 1_555
W4 O2 1_555 1_555
W5 O1 1_555 1_555
W6 O1 1_555 1_555
F1 C11 1_555 1_555
F2 C9 1_555 1_555
F3 C22 1_555 1_555
F4 C20 1_555 1_555
N7 C5 1_555 1_555
N8 C16 1_555 1_555
N9 N8 1_555 1_555
N10 N7 1_555 1_555
C23 N7 1_555 1_555
H21 C23 1_555 1_555
N11 Ni1 1_555 1_555
C24 N8 1_555 1_555
H22 C24 1_555 1_555
C25 N9 1_555 1_555
H23 C25 1_555 1_555
C26 N10 1_555 1_555
H24 C26 1_555 1_555
N12 Ni1 1_555 1_555
O1B W5B 1_555 1_555
O2B Si1 1_555 1_555
O3B Si1 1_555 1_555
O10B W5 1_555 1_555
O11B W4 1_555 1_555
O12B W6 1_555 1_555
O18B W6 1_555 1_555
W4B O11 1_555 1_555
W5B O10 1_555 1_555
W6B O2 1_555 1_555
C23A N11 1_555 1_555
N11A C23 1_555 1_555
C24C N12 1_555 1_555
C25C N12 1_555 1_555
C26A N11 1_555 1_555
N12C C24 1_555 1_555
C2 N4 1_555 1_555
C3 N6 1_555 1_555
C10 C11 1_555 1_555
C13 N1 1_555 1_555
C14 N3 1_555 1_555
C21 C22 1_555 1_555
N2 N3 1_555 1_555
N4 Ni1 1_555 1_555
N5 N6 1_555 1_555
O3 W1 1_555 1_555
O3 W2 1_555 1_555
O5 W6 1_555 1_555
O7 W5 1_555 1_555
O8 W4 1_555 1_555
O12 W6B 1_555 1_555
O15 W3 1_555 1_555
O16 W6 1_555 1_555
O17 W3 1_555 1_555
O18 W6B 1_555 1_555
O20 W2 1_555 1_555
O21 W5 1_555 1_555
O23 W1 1_555 1_555
W6 O2B 1_555 1_555
C25 N12C 1_555 1_555
C26 N11A 1_555 1_555
O1B W6B 1_555 1_555
O2B W4B 1_555 1_555
O12B W4B 1_555 1_555

#END
