
#######################################################################
#
#                 Cambridge Crystallographic Data Centre
#                                CCDC 
#
#######################################################################
#
# If this CIF has been generated from an entry in the Cambridge 
# Structural Database, then it will include bibliographic, chemical, 
# crystal, experimental, refinement or atomic coordinate data resulting 
# from the CCDC's data processing and validation procedures.
#
#######################################################################

data_NAHNES
_chemical_formula_moiety         '(C46 H28 Cu3 N2 O13)n'
_symmetry_cell_setting           tetragonal
_symmetry_space_group_name_H-M   'I 41/a m d'
_symmetry_Int_Tables_number      141
_space_group_name_Hall           '-I 4bd 2'
loop_
_symmetry_equiv_pos_site_id
_symmetry_equiv_pos_as_xyz
1 x,y,z
2 1/4-y,3/4+x,1/4+z
3 x,-y,-z
4 1/2-x,-y,1/2+z
5 1/4-y,1/4-x,3/4-z
6 1/4+y,3/4+x,1/4-z
7 1/4+y,1/4-x,3/4+z
8 1/2-x,y,1/2-z
9 1/2+x,1/2+y,1/2+z
10 3/4-y,1/4+x,3/4+z
11 1/2+x,1/2-y,1/2-z
12 -x,1/2-y,z
13 3/4-y,3/4-x,1/4-z
14 3/4+y,1/4+x,3/4-z
15 3/4+y,3/4-x,1/4+z
16 -x,1/2+y,-z
17 -x,-y,-z
18 3/4+y,1/4-x,3/4-z
19 -x,y,z
20 1/2+x,y,1/2-z
21 3/4+y,3/4+x,1/4+z
22 3/4-y,1/4-x,3/4+z
23 3/4-y,3/4+x,1/4-z
24 1/2+x,-y,1/2+z
25 1/2-x,1/2-y,1/2-z
26 1/4+y,3/4-x,1/4-z
27 1/2-x,1/2+y,1/2+z
28 x,1/2+y,-z
29 1/4+y,1/4+x,3/4+z
30 1/4-y,3/4-x,1/4+z
31 1/4-y,1/4+x,3/4-z
32 x,1/2-y,z
_cell_length_a                   19.2590(2)
_cell_length_b                   19.2590(2)
_cell_length_c                   61.2256(12)
_cell_angle_alpha                90
_cell_angle_beta                 90
_cell_angle_gamma                90
_cell_volume                     22709.1
loop_
_atom_site_label
_atom_site_type_symbol
_atom_site_fract_x
_atom_site_fract_y
_atom_site_fract_z
Cu1 Cu 0.5000 0.567064(17) 0.497773(6)
Cu2 Cu 1.0000 0.7500 0.603286(8)
N1 N 0.5000 0.67843(13) 0.49643(4)
O1 O 0.57032(9) 0.44654(8) 0.52481(3)
O2 O 0.57110(9) 0.56140(8) 0.52058(3)
O3 O 0.92880(10) 0.67867(9) 0.60665(3)
O4 O 1.0000 0.7500 0.56875(6)
H1 H 1.0000 0.7867 0.5610
C1 C 0.75129(13) 0.50129(13) 0.6250
H2 H 0.7164 0.4664 0.6250
C2 C 0.76203(15) 0.54031(15) 0.60621(4)
C3 C 0.63632(13) 0.51408(13) 0.54928(4)
C4 C 0.71907(15) 0.53055(14) 0.58638(4)
C5 C 0.58946(12) 0.50650(11) 0.53008(4)
C6 C 0.85301(12) 0.60301(12) 0.6250
C7 C 0.81398(14) 0.59072(15) 0.60625(4)
H3 H 0.8228 0.6169 0.5934
C8 C 0.69809(17) 0.58816(15) 0.57440(5)
H4 H 0.7120 0.6333 0.5789
C9 C 0.65668(16) 0.58033(14) 0.55579(5)
H5 H 0.6425 0.6199 0.5477
C10 C 0.65769(15) 0.45670(14) 0.56098(4)
H6 H 0.6444 0.4115 0.5563
C11 C 0.90759(12) 0.65759(12) 0.6250
C12 C 0.69861(16) 0.46472(15) 0.57953(5)
H7 H 0.7127 0.4250 0.5876
C13 C 0.55804(16) 0.71429(16) 0.49624(8)
H8 H 0.6011 0.6903 0.4961
C13R C 0.44196(16) 0.71429(16) 0.49624(8)
H8R H 0.3989 0.6903 0.4961
N1K N 0.5000 0.82157(13) 0.49643(4)
C13EA C 0.55804(16) 0.78571(16) 0.49624(8)
H8EA H 0.6011 0.8097 0.4961
C13K C 0.44196(16) 0.78571(16) 0.49624(8)
H8K H 0.3989 0.8097 0.4961
O1E O 0.69654(8) 0.32032(9) 0.72519(3)
O2E O 0.81140(8) 0.32110(9) 0.72942(3)
O3E O 0.92867(9) 0.67880(10) 0.64335(3)
C2E C 0.79031(15) 0.51203(15) 0.64379(4)
C3E C 0.76408(13) 0.38632(13) 0.70072(4)
C4E C 0.78055(14) 0.46907(15) 0.66362(4)
C5E C 0.75650(11) 0.33946(12) 0.71992(4)
C7E C 0.84072(15) 0.56398(14) 0.64375(4)
H3E H 0.8669 0.5728 0.6566
C8E C 0.83816(15) 0.44809(17) 0.67560(5)
H4E H 0.8833 0.4620 0.6711
C9E C 0.83033(14) 0.40668(16) 0.69421(5)
H5E H 0.8699 0.3925 0.7023
C10E C 0.70670(14) 0.40769(15) 0.68902(4)
H6E H 0.6615 0.3944 0.6937
C12E C 0.71472(15) 0.44861(16) 0.67047(5)
H7E H 0.6750 0.4627 0.6624
H1K H 1.0000 0.7133 0.5610
Cu1B Cu 0.5000 0.432936(17) 0.502227(6)
O1R O 0.42968(9) 0.44654(8) 0.52481(3)
O2R O 0.42890(9) 0.56140(8) 0.52058(3)
O3R O 0.07120(10) 0.67867(9) 0.60665(3)
C1R C 0.24871(13) 0.50129(13) 0.6250
H2R H 0.2836 0.4664 0.6250
C2R C 0.23797(15) 0.54031(15) 0.60621(4)
C3R C 0.36368(13) 0.51408(13) 0.54928(4)
C4R C 0.28093(15) 0.53055(14) 0.58638(4)
C5R C 0.41054(12) 0.50650(11) 0.53008(4)
C6R C 0.14699(12) 0.60301(12) 0.6250
C7R C 0.18602(14) 0.59072(15) 0.60625(4)
H3R H 0.1772 0.6169 0.5934
C8R C 0.30191(17) 0.58816(15) 0.57440(5)
H4R H 0.2880 0.6333 0.5789
C9R C 0.34332(16) 0.58033(14) 0.55579(5)
H5R H 0.3575 0.6199 0.5477
C10R C 0.34231(15) 0.45670(14) 0.56098(4)
H6R H 0.3556 0.4115 0.5563
C11R C 0.09241(12) 0.65759(12) 0.6250
C12R C 0.30139(16) 0.46472(15) 0.57953(5)
H7R H 0.2873 0.4250 0.5876
O1V O 0.30346(8) 0.32032(9) 0.72519(3)
O2V O 0.18860(8) 0.32110(9) 0.72942(3)
O3V O 0.07133(9) 0.67880(10) 0.64335(3)
C2V C 0.20969(15) 0.51203(15) 0.64379(4)
C3V C 0.23592(13) 0.38632(13) 0.70072(4)
C4V C 0.21945(14) 0.46907(15) 0.66362(4)
C5V C 0.24350(11) 0.33946(12) 0.71992(4)
C7V C 0.15928(15) 0.56398(14) 0.64375(4)
H3V H 0.1331 0.5728 0.6566
C8V C 0.16184(15) 0.44809(17) 0.67560(5)
H4V H 0.1167 0.4620 0.6711
C9V C 0.16967(14) 0.40668(16) 0.69421(5)
H5V H 0.1301 0.3925 0.7023
C10V C 0.29330(14) 0.40769(15) 0.68902(4)
H6V H 0.3385 0.3944 0.6937
C12V C 0.28528(15) 0.44861(16) 0.67047(5)
H7V H 0.3250 0.4627 0.6624
Cu1A Cu 0.682936(17) 0.2500 0.747773(6)
Cu1E Cu 0.817064(17) 0.2500 0.752227(6)
Cu1K Cu 0.5000 0.932936(17) 0.497773(6)
Cu1L Cu 0.182936(17) 0.2500 0.752227(6)
Cu1N Cu 0.317064(17) 0.2500 0.747773(6)
Cu2_2 Cu 0.0000 0.7500 0.603286(8)
Cu2E Cu 0.0000 0.7500 0.646714(8)
Cu2E_2 Cu 1.0000 0.7500 0.646714(8)
N1B N 0.5000 0.32157(13) 0.50357(4)
O1B O 0.57032(9) 0.55346(8) 0.47519(3)
O1P O 0.42968(9) 0.55346(8) 0.47519(3)
O2B O 0.57110(9) 0.43860(8) 0.47942(3)
O2P O 0.42890(9) 0.43860(8) 0.47942(3)
O3K O 1.07120(10) 0.82133(9) 0.60665(3)
O3R_2 O 1.07120(10) 0.67867(9) 0.60665(3)
O3EA O 0.92880(10) 0.82133(9) 0.60665(3)
loop_
_geom_bond_atom_site_label_1
_geom_bond_atom_site_label_2
_geom_bond_site_symmetry_1
_geom_bond_site_symmetry_2
Cu1 N1 1_555 1_555
Cu2 O3 1_555 1_555
N1 C13 1_555 1_555
O1 C5 1_555 1_555
O2 Cu1 1_555 1_555
O3 C11 1_555 1_555
O4 Cu2 1_555 1_555
H1 O4 1_555 1_555
C1 H2 1_555 1_555
C2 C1 1_555 1_555
C3 C5 1_555 1_555
C4 C2 1_555 1_555
C5 O2 1_555 1_555
C6 C7 1_555 1_555
C7 C2 1_555 1_555
H3 C7 1_555 1_555
C8 C4 1_555 1_555
H4 C8 1_555 1_555
C9 C3 1_555 1_555
H5 C9 1_555 1_555
C10 C3 1_555 1_555
H6 C10 1_555 1_555
C11 C6 1_555 1_555
C12 C4 1_555 1_555
H7 C12 1_555 1_555
C13 H8 1_555 1_555
C13R N1 1_555 1_555
H8R C13R 1_555 1_555
N1K C13EA 1_555 1_555
C13EA C13 1_555 1_555
H8EA C13EA 1_555 1_555
C13K C13R 1_555 1_555
H8K C13K 1_555 1_555
O1E C5E 1_555 1_555
O2E C5E 1_555 1_555
O3E C11 1_555 1_555
C2E C1 1_555 1_555
C3E C5E 1_555 1_555
C4E C2E 1_555 1_555
C7E C6 1_555 1_555
H3E C7E 1_555 1_555
C8E C4E 1_555 1_555
H4E C8E 1_555 1_555
C9E C3E 1_555 1_555
H5E C9E 1_555 1_555
C10E C3E 1_555 1_555
H6E C10E 1_555 1_555
C12E C4E 1_555 1_555
H7E C12E 1_555 1_555
H1K O4 1_555 1_555
Cu1B Cu1 1_555 1_555
O1R Cu1B 1_555 1_555
O2R Cu1 1_555 1_555
O3R C11R 1_555 1_555
C1R H2R 1_555 1_555
C2R C1R 1_555 1_555
C3R C5R 1_555 1_555
C4R C2R 1_555 1_555
C5R O1R 1_555 1_555
C6R C7R 1_555 1_555
C7R C2R 1_555 1_555
H3R C7R 1_555 1_555
C8R C4R 1_555 1_555
H4R C8R 1_555 1_555
C9R C3R 1_555 1_555
H5R C9R 1_555 1_555
C10R C3R 1_555 1_555
H6R C10R 1_555 1_555
C11R C6R 1_555 1_555
C12R C4R 1_555 1_555
H7R C12R 1_555 1_555
O1V C5V 1_555 1_555
O2V C5V 1_555 1_555
O3V C11R 1_555 1_555
C2V C1R 1_555 1_555
C3V C5V 1_555 1_555
C4V C2V 1_555 1_555
C7V C6R 1_555 1_555
H3V C7V 1_555 1_555
C8V C4V 1_555 1_555
H4V C8V 1_555 1_555
C9V C3V 1_555 1_555
H5V C9V 1_555 1_555
C10V C3V 1_555 1_555
H6V C10V 1_555 1_555
C12V C4V 1_555 1_555
H7V C12V 1_555 1_555
Cu1A O1E 1_555 1_555
Cu1E O2E 1_555 1_555
Cu1K N1K 1_555 1_555
Cu1L O2V 1_555 1_555
Cu1N O1V 1_555 1_555
Cu2_2 O3R 1_555 1_555
Cu2E O3V 1_555 1_555
Cu2E_2 Cu2 1_555 1_555
N1B Cu1B 1_555 1_555
O1B Cu1 1_555 1_555
O1P Cu1 1_555 1_555
O2B Cu1B 1_555 1_555
O2P Cu1B 1_555 1_555
O3K Cu2 1_555 1_555
O3R_2 Cu2 1_555 1_555
O3EA Cu2 1_555 1_555
O1 Cu1B 1_555 1_555
C8 C9 1_555 1_555
C10 C12 1_555 1_555
N1K C13K 1_555 1_555
O3E Cu2E_2 1_555 1_555
C2E C7E 1_555 1_555
C8E C9E 1_555 1_555
C10E C12E 1_555 1_555
O2R C5R 1_555 1_555
C8R C9R 1_555 1_555
C10R C12R 1_555 1_555
C2V C7V 1_555 1_555
C8V C9V 1_555 1_555
C10V C12V 1_555 1_555
Cu1A Cu1E 1_555 1_555
Cu1L Cu1N 1_555 1_555
Cu2_2 Cu2E 1_555 1_555

#END
