
#######################################################################
#
#                 Cambridge Crystallographic Data Centre
#                                CCDC 
#
#######################################################################
#
# If this CIF has been generated from an entry in the Cambridge 
# Structural Database, then it will include bibliographic, chemical, 
# crystal, experimental, refinement or atomic coordinate data resulting 
# from the CCDC's data processing and validation procedures.
#
#######################################################################

data_EWOBEZ
_chemical_formula_moiety         '(C60 H40 Cu4 N8)n'
_symmetry_cell_setting           trigonal
_symmetry_space_group_name_H-M   'P 32 2 1'
_symmetry_Int_Tables_number      154
_space_group_name_Hall           'P 32 2"'
loop_
_symmetry_equiv_pos_site_id
_symmetry_equiv_pos_as_xyz
1 x,y,z
2 -y,x-y,2/3+z
3 -x+y,-x,1/3+z
4 y,x,-z
5 x-y,-y,1/3-z
6 -x,-x+y,2/3-z
_cell_length_a                   18.2348(6)
_cell_length_b                   18.2348(6)
_cell_length_c                   16.3950(4)
_cell_angle_alpha                90
_cell_angle_beta                 90
_cell_angle_gamma                120
_cell_volume                     4721.11
loop_
_atom_site_label
_atom_site_type_symbol
_atom_site_fract_x
_atom_site_fract_y
_atom_site_fract_z
_atom_site_U_iso_or_equiv
_atom_site_thermal_displace_type
Cu1 Cu 0.64439(5) 1.0000 0.6667 0.0615 Uani
Cu2 Cu 0.57197(4) 0.57197(4) 1.0000 0.0536 Uani
Cu3 Cu 0.45204(4) 0.48901(3) 0.85845(3) 0.0525 Uani
N1 N 0.5266(2) 0.6319(2) 0.9493(2) 0.0563 Uani
N2 N 0.4846(2) 0.6009(2) 0.87841(18) 0.0481 Uani
N3 N 0.6080(3) 0.9309(2) 0.7571(2) 0.0633 Uani
N4 N 0.5698(3) 0.9493(2) 0.8191(2) 0.0617 Uani
C1 C 0.4870(3) 0.6648(3) 0.8370(2) 0.0520 Uani
C2 C 0.5337(4) 0.7401(3) 0.8788(2) 0.0657 Uani
C3 C 0.5576(3) 0.7161(3) 0.9509(2) 0.0576 Uani
C4 C 0.4461(5) 0.6505(4) 0.7563(2) 0.0812 Uani
C5 C 0.4439(12) 0.5970(9) 0.6945(8) 0.1029 Uani
H1 H 0.4761 0.5698 0.7027 0.1240 Uiso
C6 C 0.3985(12) 0.5798(10) 0.6213(8) 0.1202 Uani
H2 H 0.3989 0.5409 0.5830 0.1440 Uiso
C7 C 0.3910(9) 0.6844(9) 0.7368(7) 0.0922 Uani
H3 H 0.3833 0.7167 0.7779 0.1100 Uiso
C8 C 0.3537(12) 0.6202(10) 0.6061(8) 0.1304 Uani
H4 H 0.3256 0.6112 0.5552 0.1560 Uiso
C9 C 0.3482(10) 0.6737(9) 0.6625(7) 0.1076 Uani
H5 H 0.3172 0.7017 0.6516 0.1290 Uiso
C10 C 0.5594(4) 0.8242(3) 0.8472(3) 0.0682 Uani
C11 C 0.6026(4) 0.8570(3) 0.7738(3) 0.0780 Uani
C12 C 0.5393(4) 0.8844(3) 0.8734(2) 0.0616 Uani
C13 C 0.6386(11) 0.8184(9) 0.7193(7) 0.1033 Uani
C14 C 0.6881(10) 0.7872(8) 0.7505(7) 0.1238 Uani
H6 H 0.6974 0.7879 0.8076 0.1480 Uiso
C15 C 0.7247(11) 0.7543(9) 0.6959(8) 0.1644 Uani
H7 H 0.7598 0.7335 0.7158 0.1970 Uiso
C16 C 0.7088(10) 0.7530(8) 0.6146(7) 0.1762 Uani
H8 H 0.7320 0.7290 0.5786 0.2110 Uiso
C17 C 0.6231(13) 0.8172(9) 0.6362(7) 0.1320 Uani
H9 H 0.5879 0.8379 0.6161 0.1580 Uiso
C18 C 0.6601(8) 0.7850(6) 0.5819(5) 0.1708 Uani
H10 H 0.6521 0.7851 0.5247 0.2050 Uiso
C19 C 0.6078(4) 0.7672(4) 1.0206(3) 0.0878 Uani
C20 C 0.6959(9) 0.8616(8) 1.1573(7) 0.2062 Uani
H11 H 0.7285 0.8928 1.2031 0.2480 Uiso
C21 C 0.6839(7) 0.8431(6) 1.0155(7) 0.1416 Uani
H12 H 0.7071 0.8635 0.9629 0.1700 Uiso
C22 C 0.7272(10) 0.8902(8) 1.0819(8) 0.1989 Uani
H13 H 0.7787 0.9423 1.0752 0.2390 Uiso
C23 C 0.5790(7) 0.7414(6) 1.1019(4) 0.0958 Uani
H14 H 0.5294 0.6879 1.1096 0.1150 Uiso
C24 C 0.6190(10) 0.7896(8) 1.1710(7) 0.1539 Uani
H15 H 0.5949 0.7738 1.2239 0.1840 Uiso
C25 C 0.4872(5) 0.8832(3) 0.9430(3) 0.0924 Uani
C26 C 0.4172(7) 0.8865(6) 0.9218(8) 0.1190 Uani
H16 H 0.3998 0.8868 0.8672 0.1430 Uiso
C27 C 0.3743(11) 0.8894(8) 0.9906(9) 0.1586 Uani
H17 H 0.3265 0.8958 0.9803 0.1900 Uiso
C28 C 0.4665(12) 0.8866(13) 1.0852(9) 0.1763 Uani
H18 H 0.4858 0.8880 1.1393 0.2120 Uiso
C29 C 0.5148(11) 0.8870(10) 1.0196(5) 0.1413 Uani
H19 H 0.5677 0.8901 1.0290 0.1690 Uiso
C30 C 0.3914(10) 0.8843(8) 1.0723(7) 0.1923 Uani
H20 H 0.3543 0.8795 1.1152 0.2310 Uiso
Cu3C Cu 0.48901(3) 0.45204(4) 1.14155(3) 0.0525 Uani
N1C N 0.6319(2) 0.5266(2) 1.0507(2) 0.0563 Uani
N2C N 0.6009(2) 0.4846(2) 1.12159(18) 0.0481 Uani
N3C N 0.9309(2) 0.6080(3) 1.2429(2) 0.0633 Uani
N4C N 0.9493(2) 0.5698(3) 1.1809(2) 0.0617 Uani
C1C C 0.6648(3) 0.4870(3) 1.1630(2) 0.0520 Uani
C2C C 0.7401(3) 0.5337(4) 1.1212(2) 0.0657 Uani
C3C C 0.7161(3) 0.5576(3) 1.0491(2) 0.0576 Uani
C4C C 0.6505(4) 0.4461(5) 1.2437(2) 0.0812 Uani
C5C C 0.5970(9) 0.4439(12) 1.3055(8) 0.1029 Uani
H1C H 0.5698 0.4761 1.2973 0.1240 Uiso
C6C C 0.5798(10) 0.3985(12) 1.3787(8) 0.1202 Uani
H2C H 0.5409 0.3989 1.4170 0.1440 Uiso
C7C C 0.6844(9) 0.3910(9) 1.2632(7) 0.0922 Uani
H3C H 0.7167 0.3833 1.2221 0.1100 Uiso
C8C C 0.6202(10) 0.3537(12) 1.3939(8) 0.1304 Uani
H4C H 0.6112 0.3256 1.4448 0.1560 Uiso
C9C C 0.6737(9) 0.3482(10) 1.3375(7) 0.1076 Uani
H5C H 0.7017 0.3172 1.3484 0.1290 Uiso
C10C C 0.8242(3) 0.5594(4) 1.1528(3) 0.0682 Uani
C11C C 0.8570(3) 0.6026(4) 1.2262(3) 0.0780 Uani
C12C C 0.8844(3) 0.5393(4) 1.1266(2) 0.0616 Uani
C13C C 0.8184(9) 0.6386(11) 1.2807(7) 0.1033 Uani
C14C C 0.7872(8) 0.6881(10) 1.2495(7) 0.1238 Uani
H6C H 0.7879 0.6974 1.1924 0.1480 Uiso
C15C C 0.7543(9) 0.7247(11) 1.3041(8) 0.1644 Uani
H7C H 0.7335 0.7598 1.2842 0.1970 Uiso
C16C C 0.7530(8) 0.7088(10) 1.3854(7) 0.1762 Uani
H8C H 0.7290 0.7320 1.4214 0.2110 Uiso
C17C C 0.8172(9) 0.6231(13) 1.3638(7) 0.1320 Uani
H9C H 0.8379 0.5879 1.3839 0.1580 Uiso
C18C C 0.7850(6) 0.6601(8) 1.4181(5) 0.1708 Uani
H10C H 0.7851 0.6521 1.4753 0.2050 Uiso
C19C C 0.7672(4) 0.6078(4) 0.9794(3) 0.0878 Uani
C20C C 0.8616(8) 0.6959(9) 0.8427(7) 0.2062 Uani
H11C H 0.8928 0.7285 0.7969 0.2480 Uiso
C21C C 0.8431(6) 0.6839(7) 0.9845(7) 0.1416 Uani
H12C H 0.8635 0.7071 1.0371 0.1700 Uiso
C22C C 0.8902(8) 0.7272(10) 0.9181(8) 0.1989 Uani
H13C H 0.9423 0.7787 0.9248 0.2390 Uiso
C23C C 0.7414(6) 0.5790(7) 0.8981(4) 0.0958 Uani
H14C H 0.6879 0.5294 0.8904 0.1150 Uiso
C24C C 0.7896(8) 0.6190(10) 0.8290(7) 0.1539 Uani
H15C H 0.7738 0.5949 0.7761 0.1840 Uiso
C25C C 0.8832(3) 0.4872(5) 1.0570(3) 0.0924 Uani
C26C C 0.8865(6) 0.4172(7) 1.0782(8) 0.1190 Uani
H16C H 0.8868 0.3998 1.1328 0.1430 Uiso
C27C C 0.8894(8) 0.3743(11) 1.0094(9) 0.1586 Uani
H17C H 0.8958 0.3265 1.0197 0.1900 Uiso
C28C C 0.8866(13) 0.4665(12) 0.9148(9) 0.1763 Uani
H18C H 0.8880 0.4858 0.8607 0.2120 Uiso
C29C C 0.8870(10) 0.5148(11) 0.9804(5) 0.1413 Uani
H19C H 0.8901 0.5677 0.9710 0.1690 Uiso
C30C C 0.8843(8) 0.3914(10) 0.9277(7) 0.1923 Uani
H20C H 0.8795 0.3543 0.8848 0.2310 Uiso
Cu1A Cu 1.0000 0.64439(5) 1.3334 0.0615 Uani
Cu3B Cu 1.03697(5) 0.54796(4) 1.19178(3) 0.0525 Uani
Cu3E Cu 0.54796(4) 1.03697(5) 0.80822(3) 0.0525 Uani
N3D N 0.6771(4) 1.0691(2) 0.5762(2) 0.0633 Uani
N4B N 0.3795(4) 0.4302(3) 1.1524(2) 0.0617 Uani
N4E N 0.4302(3) 0.3795(4) 0.8476(2) 0.0617 Uani
loop_
_atom_site_aniso_label
_atom_site_aniso_U_11
_atom_site_aniso_U_22
_atom_site_aniso_U_33
_atom_site_aniso_U_23
_atom_site_aniso_U_13
_atom_site_aniso_U_12
Cu1 0.0846(5) 0.0351(4) 0.0484(4) 0.0079(3) 0.00397(14) 0.01757(18)
Cu2 0.0556(3) 0.0556(3) 0.0591(4) 0.00798(14) -0.00798(14) 0.0350(4)
Cu3 0.0775(4) 0.0515(3) 0.0526(3) 0.0047(2) 0.0048(2) 0.0503(3)
N1 0.064(2) 0.054(2) 0.060(2) 0.0173(16) 0.0005(17) 0.0364(18)
N2 0.066(2) 0.0502(18) 0.0461(17) 0.0084(14) 0.0048(15) 0.0426(17)
N3 0.114(3) 0.0416(19) 0.0439(18) 0.0071(13) 0.0199(18) 0.046(2)
N4 0.103(3) 0.0391(18) 0.053(2) 0.0078(14) 0.0110(18) 0.043(2)
C1 0.091(3) 0.059(2) 0.0361(18) 0.0111(16) 0.0119(18) 0.060(2)
C2 0.121(4) 0.055(3) 0.041(2) 0.0064(18) 0.011(2) 0.059(3)
C3 0.081(3) 0.053(2) 0.050(2) 0.0134(18) 0.0116(19) 0.042(2)
C4 0.160(5) 0.083(3) 0.037(2) 0.006(2) -0.001(3) 0.088(4)
C5 0.179(11) 0.089(7) 0.070(8) -0.003(5) -0.027(7) 0.089(8)
C6 0.175(14) 0.117(10) 0.058(6) -0.018(6) -0.036(7) 0.065(9)
C7 0.110(9) 0.097(8) 0.082(6) 0.053(5) 0.019(6) 0.061(7)
C8 0.140(12) 0.134(11) 0.094(7) 0.022(6) -0.039(8) 0.051(9)
C9 0.094(9) 0.132(10) 0.100(7) 0.058(6) 0.005(6) 0.059(8)
C10 0.124(4) 0.052(3) 0.050(2) 0.0098(18) 0.019(2) 0.060(3)
C11 0.147(5) 0.056(3) 0.054(2) 0.010(2) 0.025(3) 0.068(3)
C12 0.113(4) 0.044(2) 0.042(2) 0.0073(17) 0.013(2) 0.050(3)
C13 0.199(8) 0.067(5) 0.078(6) 0.037(4) 0.079(5) 0.092(5)
C14 0.194(11) 0.106(7) 0.114(7) 0.040(6) 0.079(7) 0.107(8)
C15 0.256(14) 0.131(9) 0.168(8) 0.024(8) 0.097(9) 0.143(10)
C16 0.313(14) 0.108(8) 0.150(7) 0.043(6) 0.141(9) 0.137(10)
C17 0.270(11) 0.073(5) 0.076(7) 0.033(4) 0.073(6) 0.103(7)
C18 0.312(12) 0.120(6) 0.111(5) 0.022(4) 0.104(6) 0.131(8)
C19 0.121(5) 0.061(3) 0.074(3) 0.000(2) -0.012(3) 0.040(3)
C20 0.247(12) 0.143(8) 0.136(6) -0.053(6) -0.079(7) 0.028(7)
C21 0.161(10) 0.083(7) 0.114(6) 0.018(5) -0.028(7) 0.011(6)
C22 0.234(14) 0.077(7) 0.158(9) -0.021(7) -0.054(9) -0.018(9)
C23 0.148(8) 0.088(5) 0.050(4) -0.011(3) -0.009(4) 0.058(5)
C24 0.244(13) 0.099(8) 0.083(6) -0.024(5) -0.048(7) 0.059(7)
C25 0.167(6) 0.061(3) 0.076(3) 0.014(2) 0.036(3) 0.077(4)
C26 0.141(8) 0.067(7) 0.177(8) 0.062(7) 0.100(7) 0.073(7)
C27 0.225(13) 0.120(10) 0.189(10) 0.055(9) 0.114(9) 0.130(11)
C28 0.283(14) 0.180(13) 0.105(7) 0.031(9) 0.099(9) 0.145(13)
C29 0.275(13) 0.148(11) 0.044(5) 0.038(6) 0.072(6) 0.138(11)
C30 0.290(12) 0.170(8) 0.177(7) 0.019(7) 0.106(9) 0.160(9)
Cu3C 0.0515 0.0775 0.0526 -0.0048 -0.0047 0.0503
N1C 0.054 0.064 0.06 -0.0005 -0.0173 0.0364
N2C 0.0502 0.066 0.0461 -0.0048 -0.0084 0.0426
N3C 0.0416 0.114 0.0439 -0.0199 -0.0071 0.046
N4C 0.0391 0.103 0.053 -0.011 -0.0078 0.043
C1C 0.059 0.091 0.0361 -0.0119 -0.0111 0.06
C2C 0.055 0.121 0.041 -0.011 -0.0064 0.059
C3C 0.053 0.081 0.05 -0.0116 -0.0134 0.042
C4C 0.083 0.16 0.037 0.001 -0.006 0.088
C5C 0.089 0.179 0.07 0.027 0.003 0.089
C6C 0.117 0.175 0.058 0.036 0.018 0.065
C7C 0.097 0.11 0.082 -0.019 -0.053 0.061
C8C 0.134 0.14 0.094 0.039 -0.022 0.051
C9C 0.132 0.094 0.1 -0.005 -0.058 0.059
C10C 0.052 0.124 0.05 -0.019 -0.0098 0.06
C11C 0.056 0.147 0.054 -0.025 -0.01 0.068
C12C 0.044 0.113 0.042 -0.013 -0.0073 0.05
C13C 0.067 0.199 0.078 -0.079 -0.037 0.092
C14C 0.106 0.194 0.114 -0.079 -0.04 0.107
C15C 0.131 0.256 0.168 -0.097 -0.024 0.143
C16C 0.108 0.313 0.15 -0.141 -0.043 0.137
C17C 0.073 0.27 0.076 -0.073 -0.033 0.103
C18C 0.12 0.312 0.111 -0.104 -0.022 0.131
C19C 0.061 0.121 0.074 0.012 0 0.04
C20C 0.143 0.247 0.136 0.079 0.053 0.028
C21C 0.083 0.161 0.114 0.028 -0.018 0.011
C22C 0.077 0.234 0.158 0.054 0.021 -0.018
C23C 0.088 0.148 0.05 0.009 0.011 0.058
C24C 0.099 0.244 0.083 0.048 0.024 0.059
C25C 0.061 0.167 0.076 -0.036 -0.014 0.077
C26C 0.067 0.141 0.177 -0.1 -0.062 0.073
C27C 0.12 0.225 0.189 -0.114 -0.055 0.13
C28C 0.18 0.283 0.105 -0.099 -0.031 0.145
C29C 0.148 0.275 0.044 -0.072 -0.038 0.138
C30C 0.17 0.29 0.177 -0.106 -0.019 0.16
Cu1A 0.0351 0.08456 0.0484 -0.00393 -0.0079 0.01753
Cu3B 0.0284 0.0775 0.0526 -0.0048 -0.0001 0.0272
Cu3E 0.0775 0.0284 0.0526 0.0001 0.0048 0.0272
N3D 0.0636 0.0416 0.0439 0.0071 -0.0128 -0.0044
N4B 0.0561 0.103 0.053 -0.011 -0.0032 0.06
N4E 0.103 0.0561 0.053 0.0032 0.011 0.06
loop_
_geom_bond_atom_site_label_1
_geom_bond_atom_site_label_2
_geom_bond_site_symmetry_1
_geom_bond_site_symmetry_2
Cu1 N3 1_555 1_555
Cu2 N1 1_555 1_555
Cu3 N2 1_555 1_555
N1 N2 1_555 1_555
N2 C1 1_555 1_555
N3 N4 1_555 1_555
N4 C12 1_555 1_555
C1 C2 1_555 1_555
C2 C3 1_555 1_555
C3 N1 1_555 1_555
C4 C1 1_555 1_555
C5 C4 1_555 1_555
H1 C5 1_555 1_555
C6 C5 1_555 1_555
H2 C6 1_555 1_555
C7 C4 1_555 1_555
H3 C7 1_555 1_555
C8 C6 1_555 1_555
H4 C8 1_555 1_555
C9 C7 1_555 1_555
H5 C9 1_555 1_555
C10 C2 1_555 1_555
C11 N3 1_555 1_555
C12 C10 1_555 1_555
C13 C11 1_555 1_555
C14 C13 1_555 1_555
H6 C14 1_555 1_555
C15 C14 1_555 1_555
H7 C15 1_555 1_555
C16 C15 1_555 1_555
H8 C16 1_555 1_555
C17 C13 1_555 1_555
H9 C17 1_555 1_555
C18 C16 1_555 1_555
H10 C18 1_555 1_555
C19 C3 1_555 1_555
C20 H11 1_555 1_555
C21 C19 1_555 1_555
H12 C21 1_555 1_555
C22 C20 1_555 1_555
H13 C22 1_555 1_555
C23 C19 1_555 1_555
H14 C23 1_555 1_555
C24 C20 1_555 1_555
H15 C24 1_555 1_555
C25 C12 1_555 1_555
C26 C25 1_555 1_555
H16 C26 1_555 1_555
C27 C26 1_555 1_555
H17 C27 1_555 1_555
C28 H18 1_555 1_555
C29 C25 1_555 1_555
H19 C29 1_555 1_555
C30 C27 1_555 1_555
H20 C30 1_555 1_555
Cu3C N2C 1_555 1_555
N1C Cu2 1_555 1_555
N2C N1C 1_555 1_555
N3C N4C 1_555 1_555
N4C C12C 1_555 1_555
C1C N2C 1_555 1_555
C2C C1C 1_555 1_555
C3C N1C 1_555 1_555
C4C C1C 1_555 1_555
C5C C4C 1_555 1_555
H1C C5C 1_555 1_555
C6C C5C 1_555 1_555
H2C C6C 1_555 1_555
C7C C4C 1_555 1_555
H3C C7C 1_555 1_555
C8C C6C 1_555 1_555
H4C C8C 1_555 1_555
C9C C7C 1_555 1_555
H5C C9C 1_555 1_555
C10C C2C 1_555 1_555
C11C N3C 1_555 1_555
C12C C10C 1_555 1_555
C13C C11C 1_555 1_555
C14C C13C 1_555 1_555
H6C C14C 1_555 1_555
C15C C14C 1_555 1_555
H7C C15C 1_555 1_555
C16C C15C 1_555 1_555
H8C C16C 1_555 1_555
C17C C13C 1_555 1_555
H9C C17C 1_555 1_555
C18C C16C 1_555 1_555
H10C C18C 1_555 1_555
C19C C3C 1_555 1_555
C20C H11C 1_555 1_555
C21C C19C 1_555 1_555
H12C C21C 1_555 1_555
C22C C20C 1_555 1_555
H13C C22C 1_555 1_555
C23C C19C 1_555 1_555
H14C C23C 1_555 1_555
C24C C20C 1_555 1_555
H15C C24C 1_555 1_555
C25C C12C 1_555 1_555
C26C C25C 1_555 1_555
H16C C26C 1_555 1_555
C27C C26C 1_555 1_555
H17C C27C 1_555 1_555
C28C H18C 1_555 1_555
C29C C25C 1_555 1_555
H19C C29C 1_555 1_555
C30C C27C 1_555 1_555
H20C C30C 1_555 1_555
Cu1A N3C 1_555 1_555
Cu3B N4C 1_555 1_555
Cu3E N4 1_555 1_555
N3D Cu1 1_555 1_555
N4B Cu3C 1_555 1_555
N4E Cu3 1_555 1_555
C8 C9 1_555 1_555
C10 C11 1_555 1_555
C17 C18 1_555 1_555
C21 C22 1_555 1_555
C23 C24 1_555 1_555
C28 C29 1_555 1_555
C28 C30 1_555 1_555
C2C C3C 1_555 1_555
C8C C9C 1_555 1_555
C10C C11C 1_555 1_555
C17C C18C 1_555 1_555
C21C C22C 1_555 1_555
C23C C24C 1_555 1_555
C28C C29C 1_555 1_555
C28C C30C 1_555 1_555

#END
