
#######################################################################
#
#                 Cambridge Crystallographic Data Centre
#                                CCDC 
#
#######################################################################
#
# If this CIF has been generated from an entry in the Cambridge 
# Structural Database, then it will include bibliographic, chemical, 
# crystal, experimental, refinement or atomic coordinate data resulting 
# from the CCDC's data processing and validation procedures.
#
#######################################################################

data_KINDIW
_chemical_formula_moiety         '(C48 H32 Er2 N4 O14)n'
_symmetry_cell_setting           triclinic
_symmetry_space_group_name_H-M   'P -1'
_symmetry_Int_Tables_number      2
_space_group_name_Hall           '-P 1'
loop_
_symmetry_equiv_pos_site_id
_symmetry_equiv_pos_as_xyz
1 x,y,z
2 -x,-y,-z
_cell_length_a                   10.0691(6)
_cell_length_b                   10.9491(7)
_cell_length_c                   13.2211(8)
_cell_angle_alpha                99.7550(10)
_cell_angle_beta                 110.2450(10)
_cell_angle_gamma                107.7930(10)
_cell_volume                     1238.82
loop_
_atom_site_label
_atom_site_type_symbol
_atom_site_fract_x
_atom_site_fract_y
_atom_site_fract_z
Er1 Er 0.15494(3) 0.70651(3) 0.19581(2)
C1 C -0.2127(8) 0.4856(6) 0.0109(5)
C2 C -0.3626(7) 0.4920(6) 0.0052(5)
C3 C -0.3660(7) 0.5709(6) 0.0972(5)
H1 H -0.2757 0.6190 0.1630
C4 C -0.4972(8) 0.4210(7) -0.0923(5)
H2 H -0.4961 0.3678 -0.1545
C5 C 0.0769(9) 0.8513(7) 0.3426(6)
C6 C 0.0387(9) 0.9298(7) 0.4242(6)
C7 C -0.0962(10) 0.9496(9) 0.3873(6)
H3 H -0.1629 0.9154 0.3106
C8 C 0.1335(10) 0.9806(9) 0.5373(6)
H4 H 0.2251 0.9677 0.5640
C9 C 0.3257(8) 0.6007(6) 0.3363(5)
C10 C 0.4158(8) 0.5476(7) 0.4208(5)
C11 C 0.3405(8) 0.4460(7) 0.4557(5)
H5 H 0.2336 0.4098 0.4259
C12 C 0.5759(8) 0.6016(6) 0.4655(6)
H6 H 0.6266 0.6698 0.4423
C13 C 0.0109(10) 0.7345(8) -0.0696(6)
H7 H -0.0365 0.6415 -0.0868
C14 C -0.0266(12) 0.7886(9) -0.1573(7)
H8 H -0.0980 0.7339 -0.2301
C15 C 0.0446(12) 0.9256(10) -0.1342(7)
H9 H 0.0232 0.9655 -0.1913
C16 C 0.1501(11) 1.0039(8) -0.0224(7)
C17 C 0.2277(13) 1.1458(9) 0.0096(8)
H10 H 0.2035 1.1904 -0.0437
C18 C 0.3378(13) 1.2189(9) 0.1179(8)
H11 H 0.3891 1.3115 0.1360
C19 C 0.3741(12) 1.1547(8) 0.2025(7)
C20 C 0.4888(11) 1.2223(8) 0.3122(7)
H12 H 0.5414 1.3154 0.3354
C21 C 0.5232(11) 1.1509(8) 0.3852(6)
H13 H 0.6005 1.1943 0.4584
C22 C 0.4411(9) 1.0123(8) 0.3489(6)
H14 H 0.4649 0.9652 0.4002
C23 C 0.2957(10) 1.0127(8) 0.1732(7)
C24 C 0.1779(10) 0.9377(8) 0.0580(6)
N1 N 0.1088(7) 0.8040(5) 0.0371(5)
N2 N 0.3314(7) 0.9430(6) 0.2460(4)
O1 O -0.0912(5) 0.5597(5) 0.0959(4)
O2 O -0.2193(5) 0.4069(5) -0.0736(4)
O3 O 0.0118(6) 0.8341(5) 0.2382(4)
O4 O 0.1761(6) 0.8011(5) 0.3804(4)
O5 O 0.1810(5) 0.5377(5) 0.2827(4)
O6 O 0.3940(5) 0.7089(4) 0.3206(4)
C1A C -0.7873(8) 0.5144(6) -0.0109(5)
C2A C -0.6374(7) 0.5080(6) -0.0052(5)
C3A C -0.6340(7) 0.4291(6) -0.0972(5)
H1A H -0.7243 0.3810 -0.1630
C4A C -0.5028(8) 0.5790(7) 0.0923(5)
H2A H -0.5039 0.6322 0.1545
O1A O -0.9088(5) 0.4403(5) -0.0959(4)
O2A O -0.7807(5) 0.5931(5) 0.0736(4)
C5A C -0.0769(9) 1.1487(7) 0.6574(6)
C6A C -0.0387(9) 1.0702(7) 0.5758(6)
C7A C 0.0962(10) 1.0504(9) 0.6127(6)
H3A H 0.1629 1.0846 0.6894
C8A C -0.1335(10) 1.0194(9) 0.4627(6)
H4A H -0.2251 1.0323 0.4360
O3A O -0.0118(6) 1.1659(5) 0.7618(4)
O4A O -0.1761(6) 1.1989(5) 0.6196(4)
C9A C 0.6743(8) 0.3993(6) 0.6637(5)
C10A C 0.5842(8) 0.4524(7) 0.5792(5)
C11A C 0.6595(8) 0.5540(7) 0.5443(5)
H5A H 0.7664 0.5902 0.5741
C12A C 0.4241(8) 0.3984(6) 0.5345(6)
H6A H 0.3734 0.3302 0.5577
O5A O 0.8190(5) 0.4623(5) 0.7173(4)
O6A O 0.6060(5) 0.2911(4) 0.6794(4)
Er1A Er -1.15494(3) 0.29349(3) -0.19581(2)
C13A C -1.0109(10) 0.2655(8) 0.0696(6)
H7A H -0.9635 0.3585 0.0868
C14A C -0.9734(12) 0.2114(9) 0.1573(7)
H8A H -0.9020 0.2661 0.2301
C15A C -1.0446(12) 0.0744(10) 0.1342(7)
H9A H -1.0232 0.0345 0.1913
C16A C -1.1501(11) -0.0039(8) 0.0224(7)
C17A C -1.2277(13) -0.1458(9) -0.0096(8)
H10A H -1.2035 -0.1904 0.0437
C18A C -1.3378(13) -0.2189(9) -0.1179(8)
H11A H -1.3891 -0.3115 -0.1360
C19A C -1.3741(12) -0.1547(8) -0.2025(7)
C20A C -1.4888(11) -0.2223(8) -0.3122(7)
H12A H -1.5414 -0.3154 -0.3354
C21A C -1.5232(11) -0.1509(8) -0.3852(6)
H13A H -1.6005 -0.1943 -0.4584
C22A C -1.4411(9) -0.0123(8) -0.3489(6)
H14A H -1.4649 0.0348 -0.4002
C23A C -1.2957(10) -0.0127(8) -0.1732(7)
C24A C -1.1779(10) 0.0623(8) -0.0580(6)
N1A N -1.1088(7) 0.1960(5) -0.0371(5)
N2A N -1.3314(7) 0.0570(6) -0.2460(4)
Er1_2 Er -0.84506(3) 0.70651(3) 0.19581(2)
Er1A_2 Er -0.15494(3) 0.29349(3) -0.19581(2)
Er1A_3 Er -0.15494(3) 1.29349(3) 0.80419(2)
Er1A_4 Er 0.84506(3) 0.29349(3) 0.80419(2)
O2_2 O -1.2193(5) 0.4069(5) -0.0736(4)
O2A_2 O 0.2193(5) 0.5931(5) 0.0736(4)
O3A_2 O -1.0118(6) 0.1659(5) -0.2382(4)
O4A_2 O -1.1761(6) 0.1989(5) -0.3804(4)
O5A_2 O -1.1810(5) 0.4623(5) -0.2827(4)
O6A_2 O -1.3940(5) 0.2911(4) -0.3206(4)
O7 O 0.5000 1.0000 0.0000
O8 O -0.068(3) 0.477(3) 0.4171(18)
loop_
_geom_bond_atom_site_label_1
_geom_bond_atom_site_label_2
_geom_bond_site_symmetry_1
_geom_bond_site_symmetry_2
Er1 N1 1_555 1_555
C1 C2 1_555 1_555
C2 C3 1_555 1_555
C3 H1 1_555 1_555
C4 C2 1_555 1_555
H2 C4 1_555 1_555
C5 C6 1_555 1_555
C6 C7 1_555 1_555
C7 H3 1_555 1_555
C8 C6 1_555 1_555
H4 C8 1_555 1_555
C9 C10 1_555 1_555
C10 C11 1_555 1_555
C11 H5 1_555 1_555
C12 C10 1_555 1_555
H6 C12 1_555 1_555
C13 H7 1_555 1_555
C14 C13 1_555 1_555
H8 C14 1_555 1_555
C15 C14 1_555 1_555
H9 C15 1_555 1_555
C16 C15 1_555 1_555
C17 C16 1_555 1_555
H10 C17 1_555 1_555
C18 C17 1_555 1_555
H11 C18 1_555 1_555
C19 C18 1_555 1_555
C20 C19 1_555 1_555
H12 C20 1_555 1_555
C21 C20 1_555 1_555
H13 C21 1_555 1_555
C22 C21 1_555 1_555
H14 C22 1_555 1_555
C23 C19 1_555 1_555
C24 C16 1_555 1_555
N1 C13 1_555 1_555
N2 Er1 1_555 1_555
O1 Er1 1_555 1_555
O2 C1 1_555 1_555
O3 Er1 1_555 1_555
O4 Er1 1_555 1_555
O5 Er1 1_555 1_555
O6 Er1 1_555 1_555
C1A C2A 1_555 1_555
C2A C3A 1_555 1_555
C3A C4 1_555 1_555
H1A C3A 1_555 1_555
C4A C3 1_555 1_555
H2A C4A 1_555 1_555
O1A C1A 1_555 1_555
O2A C1A 1_555 1_555
C5A C6A 1_555 1_555
C6A C7A 1_555 1_555
C7A C8 1_555 1_555
H3A C7A 1_555 1_555
C8A C7 1_555 1_555
H4A C8A 1_555 1_555
O3A C5A 1_555 1_555
O4A C5A 1_555 1_555
C9A C10A 1_555 1_555
C10A C11A 1_555 1_555
C11A C12 1_555 1_555
H5A C11A 1_555 1_555
C12A C11 1_555 1_555
H6A C12A 1_555 1_555
O5A C9A 1_555 1_555
O6A C9A 1_555 1_555
Er1A O1A 1_555 1_555
C13A H7A 1_555 1_555
C14A C13A 1_555 1_555
H8A C14A 1_555 1_555
C15A C14A 1_555 1_555
H9A C15A 1_555 1_555
C16A C15A 1_555 1_555
C17A C16A 1_555 1_555
H10A C17A 1_555 1_555
C18A C17A 1_555 1_555
H11A C18A 1_555 1_555
C19A C18A 1_555 1_555
C20A C19A 1_555 1_555
H12A C20A 1_555 1_555
C21A C20A 1_555 1_555
H13A C21A 1_555 1_555
C22A C21A 1_555 1_555
H14A C22A 1_555 1_555
C23A C19A 1_555 1_555
C24A C16A 1_555 1_555
N1A Er1A 1_555 1_555
N2A Er1A 1_555 1_555
Er1_2 O2A 1_555 1_555
Er1A_2 O2 1_555 1_555
Er1A_3 O3A 1_555 1_555
Er1A_4 O5A 1_555 1_555
O2_2 Er1A 1_555 1_555
O2A_2 Er1 1_555 1_555
O3A_2 Er1A 1_555 1_555
O4A_2 Er1A 1_555 1_555
O5A_2 Er1A 1_555 1_555
O6A_2 Er1A 1_555 1_555
C1 O1 1_555 1_555
C5 O3 1_555 1_555
C5 O4 1_555 1_555
C9 O5 1_555 1_555
C9 O6 1_555 1_555
C22 N2 1_555 1_555
C23 C24 1_555 1_555
C23 N2 1_555 1_555
C24 N1 1_555 1_555
C2A C4A 1_555 1_555
C6A C8A 1_555 1_555
O4A Er1A_3 1_555 1_555
C10A C12A 1_555 1_555
O6A Er1A_4 1_555 1_555
C13A N1A 1_555 1_555
C22A N2A 1_555 1_555
C23A C24A 1_555 1_555
C23A N2A 1_555 1_555
C24A N1A 1_555 1_555

#END
