
#######################################################################
#
#                 Cambridge Crystallographic Data Centre
#                                CCDC 
#
#######################################################################
#
# If this CIF has been generated from an entry in the Cambridge 
# Structural Database, then it will include bibliographic, chemical, 
# crystal, experimental, refinement or atomic coordinate data resulting 
# from the CCDC's data processing and validation procedures.
#
#######################################################################

data_ECAHOH
_chemical_formula_moiety         '(C18 H20 Cu1 N2 O6)n'
_symmetry_cell_setting           rhombohedral
_symmetry_space_group_name_H-M   'R -3'
_symmetry_Int_Tables_number      148
_space_group_name_Hall           '-R 3'
loop_
_symmetry_equiv_pos_site_id
_symmetry_equiv_pos_as_xyz
1 x,y,z
2 -y,x-y,z
3 -x+y,-x,z
4 2/3+x,1/3+y,1/3+z
5 2/3-y,1/3+x-y,1/3+z
6 2/3-x+y,1/3-x,1/3+z
7 1/3+x,2/3+y,2/3+z
8 1/3-y,2/3+x-y,2/3+z
9 1/3-x+y,2/3-x,2/3+z
10 -x,-y,-z
11 y,-x+y,-z
12 x-y,x,-z
13 1/3-x,2/3-y,2/3-z
14 1/3+y,2/3-x+y,2/3-z
15 1/3+x-y,2/3+x,2/3-z
16 2/3-x,1/3-y,1/3-z
17 2/3+y,1/3-x+y,1/3-z
18 2/3+x-y,1/3+x,1/3-z
_cell_length_a                   26.642(4)
_cell_length_b                   26.642(4)
_cell_length_c                   7.741(2)
_cell_angle_alpha                90
_cell_angle_beta                 90
_cell_angle_gamma                120
_cell_volume                     4758.4
loop_
_atom_site_label
_atom_site_type_symbol
_atom_site_fract_x
_atom_site_fract_y
_atom_site_fract_z
C1 C -0.1815(2) -0.0619(2) 0.6312(6)
H1 H -0.1996 -0.0779 0.7403
H2 H -0.1605 -0.0203 0.6386
H3 H -0.1552 -0.0754 0.6026
C2 C -0.22719(17) -0.08049(17) 0.4934(5)
C3 C -0.22485(19) -0.03788(18) 0.3824(5)
H4 H -0.1984 0.0005 0.4092
C4 C -0.25862(15) -0.04808(15) 0.2354(4)
C5 C -0.24186(14) 0.00032(14) 0.1096(4)
C6 C -0.26042(18) -0.01247(18) -0.0611(5)
H5 H -0.2852 -0.0506 -0.0945
C7 C -0.24190(18) 0.03150(18) -0.1796(5)
H6 H -0.2548 0.0219 -0.2928
C8 C -0.19015(16) 0.09885(16) 0.0228(5)
H7 H -0.1659 0.1374 0.0530
C9 C -0.20653(15) 0.05807(15) 0.1509(5)
H8 H -0.1940 0.0691 0.2639
Cu1 Cu -0.3333 -0.1667 0.3333
N1 N -0.20647(13) 0.08712(13) -0.1419(4)
O1 O -0.26440(10) -0.13344(10) 0.4871(3)
O2 O -0.30149(10) -0.09644(10) 0.1923(3)
C1L C -0.4852(2) -0.2714(2) 0.0355(6)
H1L H -0.4671 -0.2554 -0.0736
H2L H -0.5062 -0.3130 0.0281
H3L H -0.5115 -0.2579 0.0641
C2L C -0.43948(17) -0.25284(17) 0.1733(5)
C3L C -0.44182(19) -0.29545(18) 0.2843(5)
H4L H -0.4683 -0.3338 0.2575
C4L C -0.40805(15) -0.28525(15) 0.4313(4)
C5L C -0.42481(14) -0.33365(14) 0.5571(4)
C6L C -0.40625(18) -0.32086(18) 0.7278(5)
H5L H -0.3815 -0.2827 0.7612
C7L C -0.42477(18) -0.36483(18) 0.8463(5)
H6L H -0.4119 -0.3552 0.9595
C8L C -0.47652(16) -0.43218(16) 0.6439(5)
H7L H -0.5008 -0.4707 0.6137
C9L C -0.46014(15) -0.39140(15) 0.5158(5)
H8L H -0.4727 -0.4024 0.4028
Cu1D Cu -0.1666 0.1667 -0.3334
Cu1G Cu -0.5000 -0.4999 1.0000
N1K N -0.29359(18) -0.20647(13) 0.1419(4)
N1H N -0.37308(18) -0.12686(13) 0.5248(4)
N1L N -0.46020(13) -0.42045(13) 0.8086(4)
O1L O -0.40227(10) -0.19989(10) 0.1796(3)
O2L O -0.36518(10) -0.23689(10) 0.4744(3)
O3 O -0.6667 -0.3333 0.1667
O4 O -0.5535(8) -0.2812(8) 0.562(2)
H9 H -0.5183 -0.2557 0.5444
H10 H -0.5713 -0.2852 0.6565
loop_
_geom_bond_atom_site_label_1
_geom_bond_atom_site_label_2
_geom_bond_site_symmetry_1
_geom_bond_site_symmetry_2
C1 H1 1_555 1_555
H2 C1 1_555 1_555
H3 C1 1_555 1_555
C2 C1 1_555 1_555
C3 C2 1_555 1_555
H4 C3 1_555 1_555
C4 C3 1_555 1_555
C5 C4 1_555 1_555
C6 C5 1_555 1_555
H5 C6 1_555 1_555
C7 C6 1_555 1_555
H6 C7 1_555 1_555
C8 H7 1_555 1_555
C9 C5 1_555 1_555
H8 C9 1_555 1_555
Cu1 O1 1_555 1_555
N1 C7 1_555 1_555
O1 C2 1_555 1_555
O2 C4 1_555 1_555
O4 H9 1_555 1_555
H10 O4 1_555 1_555
C1L H1L 1_555 1_555
H2L C1L 1_555 1_555
H3L C1L 1_555 1_555
C2L C1L 1_555 1_555
C3L C2L 1_555 1_555
H4L C3L 1_555 1_555
C4L C3L 1_555 1_555
C5L C4L 1_555 1_555
C6L C5L 1_555 1_555
H5L C6L 1_555 1_555
C7L C6L 1_555 1_555
H6L C7L 1_555 1_555
C8L H7L 1_555 1_555
C9L C5L 1_555 1_555
H8L C9L 1_555 1_555
Cu1D N1 1_555 1_555
Cu1G N1L 1_555 1_555
N1K Cu1 1_555 1_555
N1H Cu1 1_555 1_555
N1L C7L 1_555 1_555
O1L Cu1 1_555 1_555
O2L Cu1 1_555 1_555
C8 C9 1_555 1_555
C8 N1 1_555 1_555
Cu1 O2 1_555 1_555
C2L O1L 1_555 1_555
C4L O2L 1_555 1_555
C8L C9L 1_555 1_555
C8L N1L 1_555 1_555

#END
