
#######################################################################
#
#                 Cambridge Crystallographic Data Centre
#                                CCDC 
#
#######################################################################
#
# If this CIF has been generated from an entry in the Cambridge 
# Structural Database, then it will include bibliographic, chemical, 
# crystal, experimental, refinement or atomic coordinate data resulting 
# from the CCDC's data processing and validation procedures.
#
#######################################################################

data_EKIDIL
_chemical_formula_moiety         '(C8 H2 Cs1 F4 Ga6 N4 O25 P6 3-)n'
_symmetry_cell_setting           orthorhombic
_symmetry_space_group_name_H-M   'P b c n'
_symmetry_Int_Tables_number      60
_space_group_name_Hall           '-P 2n 2ab'
loop_
_symmetry_equiv_pos_site_id
_symmetry_equiv_pos_as_xyz
1 x,y,z
2 1/2-x,1/2-y,1/2+z
3 1/2+x,1/2-y,-z
4 -x,y,1/2-z
5 -x,-y,-z
6 1/2+x,1/2+y,1/2-z
7 1/2-x,1/2+y,z
8 x,-y,1/2+z
_cell_length_a                   18.0913(3)
_cell_length_b                   16.9739(2)
_cell_length_c                   10.3640(2)
_cell_angle_alpha                90
_cell_angle_beta                 90
_cell_angle_gamma                90
_cell_volume                     3182.58
loop_
_atom_site_label
_atom_site_type_symbol
_atom_site_fract_x
_atom_site_fract_y
_atom_site_fract_z
Ga1 Ga 0.20363(2) 0.23771(2) 0.08534(4)
Ga2 Ga 0.39910(2) 0.20742(2) 0.11145(4)
Ga3 Ga 0.21336(2) 0.41437(2) -0.08767(4)
P1 P 0.32287(5) 0.28415(5) -0.11883(9)
P2 P 0.28283(5) 0.06986(5) 0.10519(9)
P3 P 0.07615(5) 0.29690(5) -0.10030(9)
F1 F 0.29857(12) 0.24615(14) 0.1694(2)
F2 F 0.21007(12) 0.35507(13) 0.0811(2)
O1 O 0.25601(15) 0.23673(15) -0.0766(2)
O2 O 0.21579(15) 0.12353(16) 0.0884(3)
O3 O 0.10798(15) 0.24263(16) 0.0035(2)
O4 O 0.34728(15) 0.25706(16) -0.2532(2)
O5 O 0.39080(14) 0.27281(16) -0.0305(3)
O6 O 0.30542(14) 0.37299(16) -0.1188(3)
O7 O 0.35790(15) 0.11033(15) 0.0813(3)
O8 O 0.07649(15) 0.25175(16) -0.2284(2)
O9 O -0.00250(14) 0.32193(16) -0.0641(3)
O10 O 0.28386(15) 0.03197(16) 0.2400(2)
O11 O 0.27539(17) 0.00628(16) 0.0009(3)
O12 O 0.12012(15) 0.37451(16) -0.1181(3)
P1A P 0.17713(5) 0.21585(5) 0.38117(9)
O1A O 0.24399(15) 0.26327(15) 0.4234(2)
O4A O 0.15272(15) 0.24294(16) 0.2468(2)
O5A O 0.10920(14) 0.22719(16) 0.4695(3)
O6A O 0.19458(14) 0.12701(16) 0.3812(3)
Ga1A Ga 0.29637(2) 0.26229(2) 0.58534(4)
Ga2A Ga 0.10090(2) 0.29258(2) 0.61145(4)
Ga3A Ga 0.28664(2) 0.08563(2) 0.41233(4)
P3A P 0.42385(5) 0.20310(5) 0.39970(9)
O3A O 0.39202(15) 0.25737(16) 0.5035(2)
O8A O 0.42351(15) 0.24825(16) 0.2716(2)
O9A O 0.50250(14) 0.17807(16) 0.4359(3)
O12A O 0.37988(15) 0.12549(16) 0.3819(3)
P2A P 0.21717(5) 0.43014(5) -0.39481(9)
O2A O 0.28421(15) 0.37647(16) -0.4116(3)
O7A O 0.14210(15) 0.38967(15) -0.4187(3)
O10A O 0.21614(15) 0.46803(16) -0.2600(2)
O11A O 0.22461(17) 0.49372(16) -0.4991(3)
F1A F 0.20143(12) 0.25385(14) 0.6694(2)
F2A F 0.28993(12) 0.14493(13) 0.5811(2)
O9B O 0.49750(14) 0.17807(16) 0.0641(3)
O11F O 0.22461(17) 0.50628(16) 0.0009(3)
Ga1A_2 Ga 0.29637(2) 0.26229(2) -0.41466(4)
Ga2A_2 Ga 0.10090(2) 0.29258(2) -0.38855(4)
Ga2B Ga -0.10090(2) 0.29258(2) -0.11145(4)
Ga3F Ga 0.28664(2) -0.08563(2) -0.08767(4)
O2A_2 O 0.28421(15) 0.37647(16) 0.5884(3)
O4_2 O 0.34728(15) 0.25706(16) 0.7468(2)
O7A_2 O 0.14210(15) 0.38967(15) 0.5813(3)
O8_2 O 0.07649(15) 0.25175(16) 0.7716(2)
O9C O 0.00250(14) 0.32193(16) 0.5641(3)
O11G O 0.27539(17) -0.00628(16) 0.5009(3)
Ga2C Ga 0.60090(2) 0.20742(2) 0.38855(4)
Ga3G Ga 0.21336(2) 0.58563(2) -0.58767(4)
O13 O 0.4083(3) -0.0778(3) 0.2490(5)
N1 N 0.0000 -0.0024(7) 0.2500
N2 N 0.0000 0.2179(4) 0.2500
N3 N -0.1825(2) -0.1038(2) 0.2050(4)
C1 C 0.0085(6) 0.1316(6) 0.2120(9)
C2 C 0.0118(8) 0.0786(8) 0.1775(14)
C3 C -0.0605(9) -0.0425(9) 0.1589(15)
C5 C -0.1176(6) -0.0608(7) 0.2635(11)
C1C C -0.0085(6) 0.1316(6) 0.2880(9)
C2C C -0.0118(8) 0.0786(8) 0.3225(14)
C3C C 0.0605(9) -0.0425(9) 0.3411(15)
C5C C 0.1176(6) -0.0608(7) 0.2365(11)
N3C N 0.1825(2) -0.1038(2) 0.2950(4)
Cs1 Cs 0.5000 0.0000 0.5000
loop_
_geom_bond_atom_site_label_1
_geom_bond_atom_site_label_2
_geom_bond_site_symmetry_1
_geom_bond_site_symmetry_2
Ga1 F1 1_555 1_555
Ga2 F1 1_555 1_555
Ga3 F2 1_555 1_555
P1 O1 1_555 1_555
P2 O2 1_555 1_555
P3 O3 1_555 1_555
F2 Ga1 1_555 1_555
O1 Ga1 1_555 1_555
O2 Ga1 1_555 1_555
O3 Ga1 1_555 1_555
O4 P1 1_555 1_555
O5 Ga2 1_555 1_555
O6 Ga3 1_555 1_555
O7 Ga2 1_555 1_555
O8 P3 1_555 1_555
O9 P3 1_555 1_555
O10 P2 1_555 1_555
O11 P2 1_555 1_555
O12 Ga3 1_555 1_555
N1 C2 1_555 1_555
N2 C1 1_555 1_555
N3 C5 1_555 1_555
C1 C2 1_555 1_555
C2 C1C 1_555 1_555
C3 N1 1_555 1_555
C5 C3 1_555 1_555
C1C N2 1_555 1_555
C2C N1 1_555 1_555
C3C N1 1_555 1_555
C5C C3C 1_555 1_555
N3C C5C 1_555 1_555
P1A O1A 1_555 1_555
O1A Ga1A 1_555 1_555
O4A Ga1 1_555 1_555
O5A P1A 1_555 1_555
O6A P1A 1_555 1_555
Ga1A O3A 1_555 1_555
Ga2A O5A 1_555 1_555
Ga3A O10 1_555 1_555
P3A O3A 1_555 1_555
O8A Ga2 1_555 1_555
O9A P3A 1_555 1_555
O12A Ga3A 1_555 1_555
P2A O2A 1_555 1_555
O2A Ga1A_2 1_555 1_555
O7A P2A 1_555 1_555
O10A Ga3 1_555 1_555
O11A P2A 1_555 1_555
F1A Ga1A 1_555 1_555
F2A Ga1A 1_555 1_555
O9B Ga2 1_555 1_555
O11F Ga3 1_555 1_555
Ga1A_2 O4 1_555 1_555
Ga2A_2 O8 1_555 1_555
Ga2B O9 1_555 1_555
Ga3F O11 1_555 1_555
O2A_2 Ga1A 1_555 1_555
O4_2 Ga1A 1_555 1_555
O7A_2 Ga2A 1_555 1_555
O8_2 Ga2A 1_555 1_555
O9C Ga2A 1_555 1_555
O11G Ga3A 1_555 1_555
Ga2C O9A 1_555 1_555
Ga3G O11A 1_555 1_555
P1 O5 1_555 1_555
P1 O6 1_555 1_555
P2 O7 1_555 1_555
P3 O12 1_555 1_555
C1 C2C 1_555 1_555
C1 C1C 1_555 1_555
C2 C2C 1_555 1_555
C1C C2C 1_555 1_555
P1A O4A 1_555 1_555
O6A Ga3A 1_555 1_555
Ga2A F1A 1_555 1_555
Ga3A F2A 1_555 1_555
P3A O8A 1_555 1_555
P3A O12A 1_555 1_555
P2A O10A 1_555 1_555
O7A Ga2A_2 1_555 1_555

#END
