
#######################################################################
#
#                 Cambridge Crystallographic Data Centre
#                                CCDC 
#
#######################################################################
#
# If this CIF has been generated from an entry in the Cambridge 
# Structural Database, then it will include bibliographic, chemical, 
# crystal, experimental, refinement or atomic coordinate data resulting 
# from the CCDC's data processing and validation procedures.
#
#######################################################################

data_MATTUX
_chemical_formula_moiety         '(C34 H20 N2 O8 Zn2)n'
_symmetry_cell_setting           triclinic
_symmetry_space_group_name_H-M   'P -1'
_symmetry_Int_Tables_number      2
_space_group_name_Hall           '-P 1'
loop_
_symmetry_equiv_pos_site_id
_symmetry_equiv_pos_as_xyz
1 x,y,z
2 -x,-y,-z
_cell_length_a                   12.9758(15)
_cell_length_b                   13.1095(15)
_cell_length_c                   13.9258(16)
_cell_angle_alpha                85.310(2)
_cell_angle_beta                 70.710(2)
_cell_angle_gamma                84.193(2)
_cell_volume                     2221.45
loop_
_atom_site_label
_atom_site_type_symbol
_atom_site_fract_x
_atom_site_fract_y
_atom_site_fract_z
Zn1 Zn 0.807523(13) 0.681087(10) 0.336765(10)
Zn2 Zn 0.871071(12) 0.674384(10) 0.113549(10)
O1 O 1.03390(7) 0.66515(6) 0.10177(6)
O2 O 0.97740(7) 0.67370(7) 0.27122(7)
O3 O 1.70315(7) 0.68544(6) 0.18240(6)
O4 O 1.64562(8) 0.68805(7) 0.35140(7)
O5 O 0.80801(7) 0.83368(6) 0.29904(6)
O6 O 0.86653(7) 0.82726(6) 0.12856(6)
O7 O 0.81900(9) 1.52720(6) 0.32141(7)
O8 O 0.86879(7) 1.52196(6) 0.15105(6)
N1 N 0.86601(9) 0.67622(7) 0.97036(7)
N2 N 0.81399(9) 0.67992(7) 0.48080(7)
C1 C 1.05161(11) 0.67168(8) 0.18473(9)
C2 C 1.16702(11) 0.67306(9) 0.18291(9)
C3 C 1.25461(11) 0.66078(11) 0.09066(10)
H1 H 1.2400 0.6526 0.0293
C4 C 1.35976(12) 0.66072(11) 0.08984(10)
H2 H 1.4180 0.6502 0.0279
C5 C 1.38429(11) 0.67592(9) 0.17867(10)
C6 C 1.29565(11) 0.68906(9) 0.27169(10)
C7 C 1.18748(11) 0.68673(9) 0.27029(10)
H3 H 1.1279 0.6949 0.3317
C8 C 1.49134(11) 0.67825(10) 0.18101(10)
H4 H 1.5510 0.6706 0.1195
C9 C 1.51261(11) 0.69114(10) 0.26900(10)
C10 C 1.42512(12) 0.70414(10) 0.36031(10)
H5 H 1.4394 0.7136 0.4215
C11 C 1.32093(12) 0.70314(11) 0.36121(10)
H6 H 1.2628 0.7121 0.4235
C12 C 1.62976(11) 0.68814(9) 0.26686(10)
C13 C 0.83720(10) 0.87436(9) 0.20933(9)
C14 C 0.84009(10) 0.98879(9) 0.19891(9)
C15 C 0.81834(11) 1.04516(9) 0.28335(9)
H7 H 0.7990 1.0114 0.3492
C16 C 0.82442(11) 1.15249(9) 0.27338(9)
C17 C 0.85234(10) 1.20254(8) 0.17583(9)
C18 C 0.87475(12) 1.14379(9) 0.08973(10)
H8 H 0.8944 1.1766 0.0235
C19 C 0.86826(12) 1.03979(9) 0.10128(10)
H9 H 0.8829 1.0011 0.0428
C20 C 0.85782(9) 1.31024(8) 0.16716(9)
H10 H 0.8753 1.3445 0.1016
C21 C 0.83867(11) 1.36590(9) 0.25028(9)
C22 C 0.8300(2) 1.31175(16) 0.34396(17)
H11 H 0.8296 1.3503 0.3990
C23 C 0.8224(2) 1.21231(18) 0.36152(18)
H12 H 0.8159 1.1800 0.4266
C24 C 0.84254(11) 1.48078(9) 0.23967(10)
C25 C 0.8705(2) 0.76405(16) 0.91455(15)
H13 H 0.8804 0.8251 0.9417
C26 C 0.8614(2) 0.76880(15) 0.82025(15)
H14 H 0.8647 0.8328 0.7825
C27 C 0.84674(12) 0.67778(10) 0.77650(10)
C28 C 0.83601(12) 0.67933(9) 0.67412(9)
C29 C 0.88202(14) 0.59409(12) 0.81906(13)
H15 H 0.9010 0.5324 0.7837
C30 C 0.89138(14) 0.59560(13) 0.91271(13)
H16 H 0.9184 0.5337 0.9396
C31 C 0.81340(16) 0.76867(13) 0.62577(13)
H17 H 0.8038 0.8320 0.6574
C32 C 0.80460(16) 0.76600(13) 0.52954(13)
H18 H 0.7910 0.8294 0.4959
C33 C 0.8742(2) 0.60601(16) 0.51487(14)
H19 H 0.9091 0.5517 0.4714
C34 C 0.8889(2) 0.60320(16) 0.60802(14)
H20 H 0.9348 0.5498 0.6269
Zn1_2 Zn 1.807523(13) 0.681087(10) 0.336765(10)
Zn1_3 Zn 0.807523(13) 1.681087(10) 0.336765(10)
Zn2_2 Zn 1.871071(12) 0.674384(10) 0.113549(10)
Zn2_3 Zn 0.871071(12) 1.674384(10) 0.113549(10)
Zn2_4 Zn 0.871071(12) 0.674384(10) 1.113549(10)
O3_2 O 0.70315(7) 0.68544(6) 0.18240(6)
O4_2 O 0.64562(8) 0.68805(7) 0.35140(7)
O7_2 O 0.81900(9) 0.52720(6) 0.32141(7)
O8_2 O 0.86879(7) 0.52196(6) 0.15105(6)
N1_2 N 0.86601(9) 0.67622(7) -0.02964(7)
loop_
_geom_bond_atom_site_label_1
_geom_bond_atom_site_label_2
_geom_bond_site_symmetry_1
_geom_bond_site_symmetry_2
Zn1 Zn2 1_555 1_555
Zn2 O1 1_555 1_555
O1 C1 1_555 1_555
O2 Zn1 1_555 1_555
O3 C12 1_555 1_555
O4 C12 1_555 1_555
O5 Zn1 1_555 1_555
O6 Zn2 1_555 1_555
O7 C24 1_555 1_555
O8 C24 1_555 1_555
N1 C25 1_555 1_555
N2 Zn1 1_555 1_555
C1 O2 1_555 1_555
C2 C1 1_555 1_555
C3 C2 1_555 1_555
H1 C3 1_555 1_555
C4 C3 1_555 1_555
H2 C4 1_555 1_555
C5 C4 1_555 1_555
C6 C5 1_555 1_555
C7 C2 1_555 1_555
H3 C7 1_555 1_555
C8 C5 1_555 1_555
H4 C8 1_555 1_555
C9 C8 1_555 1_555
C10 C9 1_555 1_555
H5 C10 1_555 1_555
C11 C6 1_555 1_555
H6 C11 1_555 1_555
C12 C9 1_555 1_555
C13 O5 1_555 1_555
C14 C13 1_555 1_555
C15 C14 1_555 1_555
H7 C15 1_555 1_555
C16 C15 1_555 1_555
C17 C16 1_555 1_555
C18 C17 1_555 1_555
H8 C18 1_555 1_555
C19 C14 1_555 1_555
H9 C19 1_555 1_555
C20 C17 1_555 1_555
H10 C20 1_555 1_555
C21 C20 1_555 1_555
C22 C21 1_555 1_555
H11 C22 1_555 1_555
C23 C16 1_555 1_555
H12 C23 1_555 1_555
C24 C21 1_555 1_555
C25 H13 1_555 1_555
C26 C25 1_555 1_555
H14 C26 1_555 1_555
C27 C26 1_555 1_555
C28 C27 1_555 1_555
C29 C27 1_555 1_555
H15 C29 1_555 1_555
C30 N1 1_555 1_555
H16 C30 1_555 1_555
C31 C28 1_555 1_555
H17 C31 1_555 1_555
C32 N2 1_555 1_555
H18 C32 1_555 1_555
C33 N2 1_555 1_555
H19 C33 1_555 1_555
C34 C28 1_555 1_555
H20 C34 1_555 1_555
Zn1_2 O4 1_555 1_555
Zn1_3 O7 1_555 1_555
Zn2_2 O3 1_555 1_555
Zn2_3 O8 1_555 1_555
Zn2_4 N1 1_555 1_555
O3_2 Zn2 1_555 1_555
O4_2 Zn1 1_555 1_555
O7_2 Zn1 1_555 1_555
O8_2 Zn2 1_555 1_555
N1_2 Zn2 1_555 1_555
O6 C13 1_555 1_555
C6 C7 1_555 1_555
C10 C11 1_555 1_555
C18 C19 1_555 1_555
C22 C23 1_555 1_555
C29 C30 1_555 1_555
C31 C32 1_555 1_555
C33 C34 1_555 1_555
Zn1_2 Zn2_2 1_555 1_555
Zn1_3 Zn2_3 1_555 1_555

#END
