
#######################################################################
#
#                 Cambridge Crystallographic Data Centre
#                                CCDC 
#
#######################################################################
#
# If this CIF has been generated from an entry in the Cambridge 
# Structural Database, then it will include bibliographic, chemical, 
# crystal, experimental, refinement or atomic coordinate data resulting 
# from the CCDC's data processing and validation procedures.
#
#######################################################################

data_MATVAF
_chemical_formula_moiety         '(C48 H24 N4 O12 Zn2)n'
_symmetry_cell_setting           monoclinic
_symmetry_space_group_name_H-M   'P 21'
_symmetry_Int_Tables_number      4
_space_group_name_Hall           'P 2yb'
loop_
_symmetry_equiv_pos_site_id
_symmetry_equiv_pos_as_xyz
1 x,y,z
2 -x,1/2+y,-z
_cell_length_a                   12.9938(13)
_cell_length_b                   22.318(2)
_cell_length_c                   13.0908(13)
_cell_angle_alpha                90
_cell_angle_beta                 102.582(2)
_cell_angle_gamma                90
_cell_volume                     3705.11
loop_
_atom_site_label
_atom_site_type_symbol
_atom_site_fract_x
_atom_site_fract_y
_atom_site_fract_z
C1 C 0.8443(3) 0.29354(17) 0.9603(3)
H1 H 0.8843 0.2709 1.0166
C2 C 0.8471(3) 0.35387(17) 0.9666(3)
H2 H 0.8881 0.3732 1.0265
C3 C 0.7900(3) 0.38699(19) 0.8853(3)
C4 C 0.7326(3) 0.35860(18) 0.7988(3)
H3 H 0.6943 0.3805 0.7406
C5 C 0.7326(3) 0.29647(18) 0.7998(4)
H4 H 0.6911 0.2761 0.7413
C6 C 0.8809(3) 0.48122(16) 0.8802(3)
C7 C 0.8747(3) 0.54727(18) 0.8733(3)
C8 C 0.7782(3) 0.57701(18) 0.8722(3)
C9 C 0.6874(3) 0.54533(18) 0.8776(3)
C10 C 0.6891(3) 0.47871(16) 0.8841(3)
C11 C 0.5943(3) 0.57469(18) 0.8791(3)
H5 H 0.5333 0.5526 0.8848
C12 C 0.5905(3) 0.63776(19) 0.8720(3)
H6 H 0.5261 0.6581 0.8714
C13 C 0.6787(3) 0.6700(2) 0.8662(3)
C14 C 0.7760(3) 0.64069(18) 0.8671(3)
C15 C 0.8680(3) 0.67141(19) 0.8622(3)
C16 C 0.9601(3) 0.64230(18) 0.8634(3)
H7 H 1.0218 0.6645 0.8604
C17 C 0.9642(3) 0.57922(18) 0.8690(3)
H8 H 1.0286 0.5589 0.8698
C18 C 0.8654(3) 0.73826(16) 0.8562(3)
C19 C 0.6752(3) 0.73490(17) 0.8638(3)
C20 C 0.7638(3) 0.83012(19) 0.8539(3)
C21 C 0.7191(3) 0.85695(17) 0.7615(3)
H9 H 0.6927 0.8338 0.7005
C22 C 0.7130(3) 0.91969(18) 0.7586(4)
H10 H 0.6824 0.9393 0.6948
C23 C 0.7971(4) 0.92486(17) 0.9340(4)
H11 H 0.8253 0.9484 0.9941
C24 C 0.8063(4) 0.86202(18) 0.9412(3)
H12 H 0.8406 0.8429 1.0043
C25 C 0.7455(3) 0.1163(2) 1.6599(3)
C26 C 0.7463(3) 0.12281(18) 1.5451(3)
C27 C 0.7565(4) 0.1807(2) 1.5069(3)
H13 H 0.7613 0.2143 1.5524
C28 C 0.7597(4) 0.1889(2) 1.4027(4)
H14 H 0.7641 0.2281 1.3758
C29 C 0.7561(3) 0.1377(2) 1.3358(3)
C30 C 0.7458(4) 0.0799(2) 1.3760(3)
C31 C 0.7409(3) 0.07458(18) 1.4829(3)
H15 H 0.7336 0.0360 1.5111
C32 C 0.7621(3) 0.14396(19) 1.2291(3)
H16 H 0.7689 0.1827 1.2013
C33 C 0.7583(3) 0.09539(16) 1.1670(3)
C34 C 0.7469(4) 0.0371(2) 1.2079(3)
H17 H 0.7417 0.0030 1.1636
C35 C 0.7434(4) 0.03041(19) 1.3106(4)
H18 H 0.7394 -0.0087 1.3381
C36 C 0.7645(3) 0.1026(2) 1.0549(3)
C37 C -0.0424(3) 0.09855(18) 0.8742(3)
C38 C 0.0715(3) 0.09214(16) 0.8687(3)
C39 C 0.1302(3) 0.14259(18) 0.8674(3)
H19 H 0.1004 0.1810 0.8728
C40 C 0.2365(3) 0.13704(19) 0.8580(3)
C41 C 0.2782(3) 0.07898(19) 0.8513(3)
C42 C 0.2159(3) 0.02842(16) 0.8519(3)
H20 H 0.2445 -0.0104 0.8468
C43 C 0.1135(3) 0.03480(18) 0.8600(3)
H21 H 0.0705 0.0004 0.8598
C44 C 0.3002(3) 0.18902(17) 0.8555(3)
H22 H 0.2710 0.2278 0.8588
C45 C 0.4049(3) 0.18284(17) 0.8483(3)
H23 H 0.4476 0.2173 0.8473
C46 C 0.4470(3) 0.12537(17) 0.8425(3)
C47 C 0.3861(3) 0.07454(18) 0.8423(3)
H24 H 0.4160 0.0362 0.8360
C48 C 0.5609(3) 0.11798(19) 0.8372(3)
N1 N 0.7868(3) 0.26413(15) 0.8770(2)
N2 N 0.7870(3) 0.45217(14) 0.8898(3)
N3 N 0.7692(3) 0.76486(16) 0.8573(3)
N4 N 0.7503(2) 0.95250(15) 0.8456(2)
O1 O 0.9603(2) 0.45334(12) 0.8806(3)
O2 O 0.6138(2) 0.44978(13) 0.8903(3)
O3 O 0.9426(2) 0.76849(12) 0.8515(2)
O4 O 0.5959(2) 0.76455(13) 0.8639(3)
O5 O 0.5924(2) 0.06697(14) 0.8269(3)
O6 O 0.61511(19) 0.16537(14) 0.8477(2)
O7 O -0.0750(2) 0.15055(12) 0.8862(2)
O8 O -0.09586(19) 0.05072(14) 0.8677(2)
O9 O 0.7579(2) 0.05564(13) 1.0021(2)
O10 O 0.7786(2) 0.15421(12) 1.0231(2)
O11 O 0.7377(3) 0.06410(13) 1.6931(2)
O12 O 0.7567(2) 0.16231(13) 1.7126(2)
Zn1 Zn 0.77304(3) 0.173682(16) 0.87068(3)
Zn2 Zn 0.74551(3) 1.043150(16) 0.84397(3)
O5_2 O 0.5924(2) 1.06697(14) 0.8269(3)
O7_2 O 0.9250(2) 0.15055(12) 0.8862(2)
O8_2 O 0.90414(19) 1.05072(14) 0.8677(2)
O9_2 O 0.7579(2) 1.05564(13) 1.0021(2)
O11_2 O 0.7377(3) 1.06410(13) 0.6931(2)
O12_2 O 0.7567(2) 0.16231(13) 0.7126(2)
Zn1_2 Zn -0.22696(3) 0.173682(16) 0.87068(3)
Zn1_3 Zn 0.77304(3) 0.173682(16) 1.87068(3)
Zn1_4 Zn 0.77304(3) 1.173682(16) 0.87068(3)
Zn2_2 Zn 0.74551(3) 0.043150(16) 0.84397(3)
Zn2_3 Zn -0.25449(3) 0.043150(16) 0.84397(3)
Zn2_4 Zn 0.74551(3) 0.043150(16) 1.84397(3)
loop_
_geom_bond_atom_site_label_1
_geom_bond_atom_site_label_2
_geom_bond_site_symmetry_1
_geom_bond_site_symmetry_2
C1 H1 1_555 1_555
C2 C1 1_555 1_555
H2 C2 1_555 1_555
C3 C2 1_555 1_555
C4 C3 1_555 1_555
H3 C4 1_555 1_555
C5 C4 1_555 1_555
H4 C5 1_555 1_555
C6 C7 1_555 1_555
C7 C8 1_555 1_555
C8 C9 1_555 1_555
C9 C10 1_555 1_555
C10 N2 1_555 1_555
C11 C9 1_555 1_555
H5 C11 1_555 1_555
C12 C11 1_555 1_555
H6 C12 1_555 1_555
C13 C12 1_555 1_555
C14 C8 1_555 1_555
C15 C14 1_555 1_555
C16 C15 1_555 1_555
H7 C16 1_555 1_555
C17 C7 1_555 1_555
H8 C17 1_555 1_555
C18 C15 1_555 1_555
C19 C13 1_555 1_555
C20 C21 1_555 1_555
C21 H9 1_555 1_555
C22 C21 1_555 1_555
H10 C22 1_555 1_555
C23 H11 1_555 1_555
C24 C20 1_555 1_555
H12 C24 1_555 1_555
C25 C26 1_555 1_555
C26 C27 1_555 1_555
C27 H13 1_555 1_555
C28 C27 1_555 1_555
H14 C28 1_555 1_555
C29 C28 1_555 1_555
C30 C29 1_555 1_555
C31 C26 1_555 1_555
H15 C31 1_555 1_555
C32 C29 1_555 1_555
H16 C32 1_555 1_555
C33 C32 1_555 1_555
C34 C33 1_555 1_555
H17 C34 1_555 1_555
C35 C30 1_555 1_555
H18 C35 1_555 1_555
C36 C33 1_555 1_555
C37 C38 1_555 1_555
C38 C39 1_555 1_555
C39 H19 1_555 1_555
C40 C39 1_555 1_555
C41 C40 1_555 1_555
C42 C41 1_555 1_555
H20 C42 1_555 1_555
C43 C38 1_555 1_555
H21 C43 1_555 1_555
C44 C40 1_555 1_555
H22 C44 1_555 1_555
C45 C44 1_555 1_555
H23 C45 1_555 1_555
C46 C45 1_555 1_555
C47 C41 1_555 1_555
H24 C47 1_555 1_555
C48 C46 1_555 1_555
N1 C1 1_555 1_555
N2 C3 1_555 1_555
N3 C18 1_555 1_555
N4 C22 1_555 1_555
O1 C6 1_555 1_555
O2 C10 1_555 1_555
O3 C18 1_555 1_555
O4 C19 1_555 1_555
O5 C48 1_555 1_555
O6 C48 1_555 1_555
O7 C37 1_555 1_555
O8 C37 1_555 1_555
O9 C36 1_555 1_555
O10 C36 1_555 1_555
O11 C25 1_555 1_555
O12 C25 1_555 1_555
Zn1 N1 1_555 1_555
Zn2 N4 1_555 1_555
O5_2 Zn2 1_555 1_555
O7_2 Zn1 1_555 1_555
O8_2 Zn2 1_555 1_555
O9_2 Zn2 1_555 1_555
O11_2 Zn2 1_555 1_555
O12_2 Zn1 1_555 1_555
Zn1_2 O7 1_555 1_555
Zn1_3 O12 1_555 1_555
Zn1_4 Zn2 1_555 1_555
Zn2_2 O5 1_555 1_555
Zn2_3 O8 1_555 1_555
Zn2_4 O11 1_555 1_555
C5 N1 1_555 1_555
C6 N2 1_555 1_555
C13 C14 1_555 1_555
C16 C17 1_555 1_555
C19 N3 1_555 1_555
C20 N3 1_555 1_555
C23 C24 1_555 1_555
C23 N4 1_555 1_555
C30 C31 1_555 1_555
C34 C35 1_555 1_555
C42 C43 1_555 1_555
C46 C47 1_555 1_555
O6 Zn1 1_555 1_555
O9 Zn2_2 1_555 1_555
O10 Zn1 1_555 1_555
Zn1 Zn2_2 1_555 1_555
Zn1_2 Zn2_3 1_555 1_555
Zn1_3 Zn2_4 1_555 1_555

#END
