
#######################################################################
#
#                 Cambridge Crystallographic Data Centre
#                                CCDC 
#
#######################################################################
#
# If this CIF has been generated from an entry in the Cambridge 
# Structural Database, then it will include bibliographic, chemical, 
# crystal, experimental, refinement or atomic coordinate data resulting 
# from the CCDC's data processing and validation procedures.
#
#######################################################################

data_MATVIN
_chemical_formula_moiety         '(C38 H24 N6 O20 Zn4)n'
_symmetry_cell_setting           monoclinic
_symmetry_space_group_name_H-M   'C 2/m'
_symmetry_Int_Tables_number      12
_space_group_name_Hall           '-C 2y'
loop_
_symmetry_equiv_pos_site_id
_symmetry_equiv_pos_as_xyz
1 x,y,z
2 1/2+x,1/2+y,z
3 -x,y,-z
4 1/2-x,1/2+y,-z
5 -x,-y,-z
6 1/2-x,1/2-y,-z
7 x,-y,z
8 1/2+x,1/2-y,z
_cell_length_a                   13.4458(17)
_cell_length_b                   11.5837(15)
_cell_length_c                   14.0404(18)
_cell_angle_alpha                90
_cell_angle_beta                 105.407(2)
_cell_angle_gamma                90
_cell_volume                     2108.23
loop_
_atom_site_label
_atom_site_type_symbol
_atom_site_fract_x
_atom_site_fract_y
_atom_site_fract_z
O5 O 0.9938(17) 0.0534(18) 1.0647(16)
C12 C 1.0000 0.269(3) 1.0000
N3 N 1.0000 0.159(3) 1.0000
O5F O 0.9938(17) -0.0534(18) 1.0647(16)
O5D O 1.0062(17) -0.0534(18) 0.9353(16)
O5B O 1.0062(17) 0.0534(18) 0.9353(16)
C12F C 1.0000 -0.269(3) 1.0000
N3F N 1.0000 -0.159(3) 1.0000
Zn1 Zn 0.73846(6) 0.5000 0.58264(6)
Zn2 Zn 0.76892(6) 0.5000 -0.20075(6)
N1 N 0.7406(5) 0.5000 0.4388(5)
N2 N 0.7755(6) 0.5000 -0.0546(5)
O1 O 0.8500(3) 0.3779(4) 0.6322(3)
O2 O 0.8769(4) 0.3788(4) 0.7958(3)
O3 O 1.1568(4) 0.1214(4) 0.7526(3)
O4 O 1.1315(3) 0.1215(4) 0.5884(3)
C1 C 0.8971(5) 0.3467(5) 0.7164(5)
C2 C 0.9865(5) 0.2671(6) 0.7283(5)
H1 H 1.0221 0.2435 0.7932
C3 C 1.0186(5) 0.2280(6) 0.6547(5)
H2 H 0.9818 0.2501 0.5898
C4 C 1.1098(5) 0.1504(5) 0.6663(5)
C5 C 0.7452(5) 0.5985(5) 0.3911(5)
H3 H 0.7439 0.6694 0.4246
C6 C 0.7519(5) 0.6011(5) 0.2943(4)
H4 H 0.7528 0.6728 0.2617
C7 C 0.7570(6) 0.5000 0.2460(6)
C8 C 0.7657(7) 0.5000 0.1411(6)
C9 C 0.7681(17) 0.5924(10) 0.0923(8)
H5 H 0.7664 0.6655 0.1226
C10 C 0.7730(17) 0.5858(10) -0.0063(9)
H6 H 0.7746 0.6574 -0.0389
Zn1A Zn 0.23846(6) 1.0000 0.58264(6)
Zn1_2 Zn 0.73846(6) 0.5000 -0.41736(6)
Zn1A_2 Zn 1.23846(6) -0.0000 0.58264(6)
Zn1A_3 Zn 1.23846(6) 1.0000 0.58264(6)
Zn1A_4 Zn 0.23846(6) -0.0000 0.58264(6)
Zn2_2 Zn 0.76892(6) 0.5000 0.79925(6)
Zn2A Zn 1.26892(6) 0.0000 0.79925(6)
Zn2A_2 Zn 1.26892(6) 1.0000 0.79925(6)
Zn2A_3 Zn 0.26892(6) 1.0000 0.79925(6)
Zn2A_4 Zn 0.26892(6) 0.0000 0.79925(6)
Zn2A_5 Zn 0.26892(6) 1.0000 -0.20075(6)
N1A N 0.2406(5) 1.0000 0.4388(5)
N2A N 0.2755(6) 1.0000 -0.0546(5)
N2_2 N 0.7755(6) 0.5000 0.9454(5)
O1F O 0.8500(3) 0.6221(4) 0.6322(3)
O1A O 0.3500(3) 0.8779(4) 0.6322(3)
O1G O 0.3500(3) 0.1221(4) 0.6322(3)
O1G_2 O 0.3500(3) 1.1221(4) 0.6322(3)
O2F O 0.8769(4) 0.6212(4) 0.7958(3)
O2A O 0.3769(4) 0.8788(4) 0.7958(3)
O2G O 0.3769(4) 0.1212(4) 0.7958(3)
O2_2 O 0.8769(4) 0.3788(4) -0.2042(3)
O2F_2 O 0.8769(4) 0.6212(4) -0.2042(3)
O3F O 1.1568(4) 0.8786(4) 0.7526(3)
O3A O 0.6568(4) 0.6214(4) 0.7526(3)
O3G O 0.6568(4) 0.3786(4) 0.7526(3)
O3A_2 O 0.6568(4) 0.6214(4) -0.2474(3)
O3G_2 O 0.6568(4) 0.3786(4) -0.2474(3)
O4F O 1.1315(3) 0.8785(4) 0.5884(3)
O4A O 0.6315(3) 0.6215(4) 0.5884(3)
O4G O 0.6315(3) 0.3785(4) 0.5884(3)
O4_2 O 0.1315(3) 1.1215(4) 0.5884(3)
O4F_2 O 0.1315(3) 0.8785(4) 0.5884(3)
C1F C 0.8971(5) 0.6533(5) 0.7164(5)
C1A C 0.3971(5) 0.8467(5) 0.7164(5)
C1G C 0.3971(5) 0.1533(5) 0.7164(5)
C2F C 0.9865(5) 0.7329(6) 0.7283(5)
C2A C 0.4865(5) 0.7671(6) 0.7283(5)
C2G C 0.4865(5) 0.2329(6) 0.7283(5)
H1F H 1.0221 0.7565 0.7932
H1A H 0.5221 0.7435 0.7932
H1G H 0.5221 0.2565 0.7932
C3F C 1.0186(5) 0.7720(6) 0.6547(5)
C3A C 0.5186(5) 0.7280(6) 0.6547(5)
C3G C 0.5186(5) 0.2720(6) 0.6547(5)
H2F H 0.9818 0.7499 0.5898
H2A H 0.4818 0.7501 0.5898
H2G H 0.4818 0.2499 0.5898
C4F C 1.1098(5) 0.8496(5) 0.6663(5)
C4A C 0.6098(5) 0.6504(5) 0.6663(5)
C4G C 0.6098(5) 0.3496(5) 0.6663(5)
C5F C 0.7452(5) 0.4015(5) 0.3911(5)
C5A C 0.2452(5) 1.0985(5) 0.3911(5)
C5G C 0.2452(5) 0.9015(5) 0.3911(5)
H3F H 0.7439 0.3306 0.4246
H3A H 0.2439 1.1694 0.4246
H3G H 0.2439 0.8306 0.4246
C6F C 0.7519(5) 0.3989(5) 0.2943(4)
C6A C 0.2519(5) 1.1011(5) 0.2943(4)
C6G C 0.2519(5) 0.8989(5) 0.2943(4)
H4F H 0.7528 0.3272 0.2617
H4A H 0.2528 1.1728 0.2617
H4G H 0.2528 0.8272 0.2617
C7A C 0.2570(6) 1.0000 0.2460(6)
C8A C 0.2657(7) 1.0000 0.1411(6)
C9F C 0.7681(17) 0.4076(10) 0.0923(8)
C9A C 0.2681(17) 1.0924(10) 0.0923(8)
C9G C 0.2681(17) 0.9076(10) 0.0923(8)
H5F H 0.7664 0.3345 0.1226
H5A H 0.2664 1.1655 0.1226
H5G H 0.2664 0.8345 0.1226
C10F C 0.7730(17) 0.4142(10) -0.0063(9)
C10A C 0.2730(17) 1.0858(10) -0.0063(9)
C10G C 0.2730(17) 0.9142(10) -0.0063(9)
H6F H 0.7746 0.3426 -0.0389
H6A H 0.2746 1.1574 -0.0389
H6G H 0.2746 0.8426 -0.0389
loop_
_geom_bond_atom_site_label_1
_geom_bond_atom_site_label_2
_geom_bond_site_symmetry_1
_geom_bond_site_symmetry_2
Zn1 N1 1_555 1_555
Zn2 N2 1_555 1_555
N1 C5 1_555 1_555
N2 C10 1_555 1_555
O1 Zn1 1_555 1_555
O2 C1 1_555 1_555
O3 C4 1_555 1_555
O4 C4 1_555 1_555
C1 O1 1_555 1_555
C2 C1 1_555 1_555
H1 C2 1_555 1_555
C3 C2 1_555 1_555
H2 C3 1_555 1_555
C4 C3 1_555 1_555
C5 H3 1_555 1_555
C6 C5 1_555 1_555
H4 C6 1_555 1_555
C7 C6 1_555 1_555
C8 C7 1_555 1_555
C9 C8 1_555 1_555
H5 C9 1_555 1_555
C10 C9 1_555 1_555
H6 C10 1_555 1_555
O5 N3 1_555 1_555
C12 N3 1_555 1_555
N3 O5B 1_555 1_555
Zn1A Zn2A_3 1_555 1_555
Zn1_2 Zn2 1_555 1_555
Zn1A_2 O4 1_555 1_555
Zn1A_3 Zn2A_2 1_555 1_555
Zn1A_4 Zn2A_4 1_555 1_555
Zn2_2 Zn1 1_555 1_555
Zn2A O3 1_555 1_555
Zn2A_2 O3F 1_555 1_555
Zn2A_3 O2A 1_555 1_555
Zn2A_4 O2G 1_555 1_555
Zn2A_5 N2A 1_555 1_555
N1A Zn1A 1_555 1_555
N2A C10A 1_555 1_555
N2_2 Zn2_2 1_555 1_555
O1F Zn1 1_555 1_555
O1A Zn1A 1_555 1_555
O1G Zn1A_4 1_555 1_555
O1G_2 Zn1A 1_555 1_555
O2F Zn2_2 1_555 1_555
O2A C1A 1_555 1_555
O2G C1G 1_555 1_555
O2_2 Zn2 1_555 1_555
O2F_2 Zn2 1_555 1_555
O3F C4F 1_555 1_555
O3A Zn2_2 1_555 1_555
O3G Zn2_2 1_555 1_555
O3A_2 Zn2 1_555 1_555
O3G_2 Zn2 1_555 1_555
O4F Zn1A_3 1_555 1_555
O4A Zn1 1_555 1_555
O4G Zn1 1_555 1_555
O4_2 Zn1A 1_555 1_555
O4F_2 Zn1A 1_555 1_555
C1F O1F 1_555 1_555
C1A O1A 1_555 1_555
C1G O1G 1_555 1_555
C2F C1F 1_555 1_555
C2A C1A 1_555 1_555
C2G C1G 1_555 1_555
H1F C2F 1_555 1_555
H1A C2A 1_555 1_555
H1G C2G 1_555 1_555
C3F C2F 1_555 1_555
C3A C2A 1_555 1_555
C3G C2G 1_555 1_555
H2F C3F 1_555 1_555
H2A C3A 1_555 1_555
H2G C3G 1_555 1_555
C4F O4F 1_555 1_555
C4A O3A 1_555 1_555
C4G O3G 1_555 1_555
C5F N1 1_555 1_555
C5A N1A 1_555 1_555
C5G N1A 1_555 1_555
H3F C5F 1_555 1_555
H3A C5A 1_555 1_555
H3G C5G 1_555 1_555
C6F C7 1_555 1_555
C6A C5A 1_555 1_555
C6G C5G 1_555 1_555
H4F C6F 1_555 1_555
H4A C6A 1_555 1_555
H4G C6G 1_555 1_555
C7A C6A 1_555 1_555
C8A C7A 1_555 1_555
C9F C8 1_555 1_555
C9A C8A 1_555 1_555
C9G C8A 1_555 1_555
H5F C9F 1_555 1_555
H5A C9A 1_555 1_555
H5G C9G 1_555 1_555
C10F N2 1_555 1_555
C10A C9A 1_555 1_555
C10G N2A 1_555 1_555
H6F C10F 1_555 1_555
H6A C10A 1_555 1_555
H6G C10G 1_555 1_555
O5F O5 1_555 1_555
O5D O5B 1_555 1_555
C12F N3F 1_555 1_555
N3F O5F 1_555 1_555
O2 Zn2_2 1_555 1_555
Zn1A_2 Zn2A 1_555 1_555
O2F C1F 1_555 1_555
O4A C4A 1_555 1_555
O4G C4G 1_555 1_555
C3F C4F 1_555 1_555
C3A C4A 1_555 1_555
C3G C4G 1_555 1_555
C5F C6F 1_555 1_555
C6G C7A 1_555 1_555
C9F C10F 1_555 1_555
C9G C10G 1_555 1_555
O5D N3F 1_555 1_555

#END
