
#######################################################################
#
#                 Cambridge Crystallographic Data Centre
#                                CCDC 
#
#######################################################################
#
# If this CIF has been generated from an entry in the Cambridge 
# Structural Database, then it will include bibliographic, chemical, 
# crystal, experimental, refinement or atomic coordinate data resulting 
# from the CCDC's data processing and validation procedures.
#
#######################################################################

data_NEHMUJ
_chemical_formula_moiety         'C110 H94 Co9 N31 O2 S8'
_symmetry_cell_setting           triclinic
_symmetry_space_group_name_H-M   'P -1'
_symmetry_Int_Tables_number      2
_space_group_name_Hall           '-P 1'
loop_
_symmetry_equiv_pos_site_id
_symmetry_equiv_pos_as_xyz
1 x,y,z
2 -x,-y,-z
_cell_length_a                   13.7195(8)
_cell_length_b                   13.6998(8)
_cell_length_c                   18.1247(11)
_cell_angle_alpha                77.634(3)
_cell_angle_beta                 77.225(3)
_cell_angle_gamma                63.562(3)
_cell_volume                     2948.6
loop_
_atom_site_label
_atom_site_type_symbol
_atom_site_fract_x
_atom_site_fract_y
_atom_site_fract_z
O1 O 0.5812(10) -0.1252(11) 0.4276(10)
N25 N 0.6535(8) -0.0101(9) 0.3666(9)
C61 C 0.6112(17) -0.0587(15) 0.4335(12)
H49 H 0.6067 -0.0398 0.4809
C62 C 0.659(3) -0.039(2) 0.2959(13)
H50 H 0.5872 -0.0033 0.2803
H51 H 0.6836 -0.1176 0.3004
H52 H 0.7094 -0.0173 0.2587
C63 C 0.674(3) 0.076(2) 0.385(2)
H53 H 0.6138 0.1176 0.4203
H54 H 0.6818 0.1244 0.3391
H55 H 0.7407 0.0443 0.4073
O3 O 0.6236(11) 0.9194(10) 0.0723(10)
N27 N 0.5127(9) 0.8463(8) 0.1350(9)
C67 C 0.6036(18) 0.8665(19) 0.1285(17)
H63 H 0.6476 0.8394 0.1670
C68 C 0.507(4) 0.783(4) 0.2108(16)
H64 H 0.4801 0.8316 0.2490
H65 H 0.5795 0.7279 0.2186
H66 H 0.4588 0.7484 0.2145
C69 C 0.429(2) 0.877(2) 0.0883(19)
H67 H 0.4558 0.8302 0.0494
H68 H 0.4093 0.9523 0.0650
H69 H 0.3650 0.8707 0.1194
Co1 Co -0.03079(5) 0.21290(5) 1.12336(3)
S1 S 0.1536(3) -0.17821(16) 1.13762(15)
S2 S -0.26624(18) 0.58891(16) 1.08803(17)
N1 N -0.0003(3) 0.2579(3) 0.9991(2)
N2 N -0.0501(3) 0.1638(3) 1.2482(2)
N3 N -0.1840(3) 0.2018(3) 1.1194(2)
N4 N -0.8760(3) 0.2235(3) 1.1309(2)
N5 N 0.0573(3) 0.0480(4) 1.1091(2)
N6 N -0.1199(3) 0.3775(4) 1.1375(2)
C1 C 0.0959(7) 0.2018(8) 0.9598(5)
H1 H 0.1449 0.1363 0.9833
C2 C 0.1251(8) 0.2385(11) 0.8846(6)
H2 H 0.1947 0.1986 0.8598
C3 C 0.0581(6) 0.3276(7) 0.8472(3)
C4 C -0.0432(8) 0.3874(6) 0.8869(4)
H3 H -0.0944 0.4517 0.8639
C5 C -0.0635(8) 0.3485(7) 0.9590(5)
H4 H -0.1313 0.3903 0.9851
C10 C 0.0936(9) 0.3642(9) 0.7678(4)
H9 H 0.0651 0.3404 0.7367
C11 C -0.0471(5) 0.0652(5) 1.2795(3)
H10 H -0.0513 0.0216 1.2485
C12 C -0.0382(5) 0.0247(5) 1.3555(3)
H11 H -0.0369 -0.0443 1.3753
C13 C -0.0310(4) 0.0895(5) 1.4020(3)
C14 C -0.0393(4) 0.1913(5) 1.3713(3)
H12 H -0.0382 0.2381 1.4011
C15 C -0.0493(4) 0.2239(5) 1.2966(3)
H13 H -0.0564 0.2949 1.2771
C16 C -0.0120(5) 0.0496(5) 1.4826(3)
H14 H -0.0181 0.1013 1.5113
C17 C -0.1892(4) 0.1386(6) 1.0763(4)
H15 H -0.1257 0.0996 1.0449
C18 C -0.2838(5) 0.1272(7) 1.0752(5)
H16 H -0.2834 0.0802 1.0448
C19 C -0.3786(4) 0.1866(5) 1.1200(4)
C20 C -0.3739(4) 0.2505(4) 1.1641(3)
H17 H -0.4367 0.2911 1.1954
C21 C -0.2777(4) 0.2559(4) 1.1632(3)
H18 H -0.2766 0.3002 1.1951
C22 C -0.4822(5) 0.1775(6) 1.1193(5)
H19 H -0.4753 0.1165 1.1003
C23 C -0.7829(5) 0.1403(6) 1.1344(7)
H20 H -0.7818 0.0720 1.1344
C24 C -0.6845(5) 0.1416(6) 1.1381(6)
H21 H -0.6210 0.0766 1.1410
C25 C -0.6817(4) 0.2362(5) 1.1376(3)
C26 C -0.7766(5) 0.3222(6) 1.1395(6)
H22 H -0.7806 0.3898 1.1455
C27 C -0.8696(5) 0.3136(6) 1.1328(6)
H23 H -0.9334 0.3783 1.1293
C28 C -0.5784(4) 0.2434(5) 1.1417(3)
H24 H -0.5855 0.3027 1.1630
C29 C 0.0972(5) -0.0451(5) 1.1209(3)
C30 C -0.1810(4) 0.4654(5) 1.1190(3)
Co2 Co 0.28713(5) 0.53075(5) 0.37657(3)
S3 S 0.67838(15) 0.3461(3) 0.36235(15)
S4 S -0.08881(15) 0.76622(18) 0.41188(16)
N13 N 0.2421(3) 0.5001(3) 0.5008(2)
N14 N 0.3355(3) 0.5502(3) 0.2518(2)
N15 N 0.2988(3) 0.6839(3) 0.3805(2)
N16 N 0.2769(3) 1.3760(3) 0.3693(2)
N17 N 0.4520(4) 0.4424(3) 0.3913(2)
N18 N 0.1225(3) 0.6198(3) 0.3627(2)
C31 C 0.2970(9) 0.4042(8) 0.5389(5)
H25 H 0.3622 0.3548 0.5147
C32 C 0.2596(12) 0.3749(8) 0.6148(6)
H26 H 0.2984 0.3048 0.6389
C33 C 0.1723(7) 0.4425(6) 0.6527(3)
C34 C 0.1122(7) 0.5442(8) 0.6121(4)
H27 H 0.0471 0.5951 0.6352
C35 C 0.1513(7) 0.5651(8) 0.5399(4)
H28 H 0.1104 0.6329 0.5140
C40 C 0.1362(9) 0.4045(8) 0.7331(4)
H33 H 0.1651 0.4277 0.7643
C41 C 0.4347(5) 0.5472(5) 0.2205(3)
H34 H 0.4781 0.5513 0.2515
C42 C 0.4754(5) 0.5381(5) 0.1439(3)
H35 H 0.5443 0.5370 0.1238
C43 C 0.4109(5) 0.5305(4) 0.0981(3)
C44 C 0.3093(4) 0.5396(4) 0.1287(3)
H36 H 0.2627 0.5392 0.0987
C45 C 0.2759(5) 0.5491(4) 0.2033(3)
H37 H 0.2050 0.5555 0.2228
C46 C 0.4503(5) 0.5121(5) 0.0172(3)
H38 H 0.3988 0.5184 -0.0114
C47 C 0.3613(6) 0.6895(5) 0.4240(4)
H39 H 0.3992 0.6267 0.4558
C48 C 0.3727(7) 0.7840(5) 0.4244(5)
H40 H 0.4199 0.7842 0.4541
C49 C 0.3133(5) 0.8784(4) 0.3800(4)
C50 C 0.2499(4) 0.8739(4) 0.3356(3)
H41 H 0.2101 0.9361 0.3042
C51 C 0.2446(4) 0.7772(4) 0.3371(3)
H42 H 0.2001 0.7755 0.3058
C52 C 0.3223(6) 0.9827(5) 0.3802(5)
H43 H 0.3834 0.9758 0.3987
C53 C 0.1867(6) 1.3699(5) 0.3662(6)
H44 H 0.1226 1.4345 0.3674
C54 C 0.1776(6) 1.2757(5) 0.3613(6)
H45 H 0.1098 1.2789 0.3573
C55 C 0.2641(5) 1.1817(4) 0.3621(3)
C56 C 0.3584(6) 1.1849(5) 0.3609(6)
H46 H 0.4236 1.1216 0.3569
C57 C 0.3598(6) 1.2830(5) 0.3657(7)
H47 H 0.4280 1.2816 0.3663
C58 C 0.2569(5) 1.0787(4) 0.3585(4)
H48 H 0.1975 1.0856 0.3379
C59 C 0.5452(5) 0.4026(5) 0.3790(3)
C60 C 0.0347(5) 0.6815(4) 0.3813(3)
Co1A Co 0.03079(5) -0.21290(5) 1.87664(3)
Co1_2 Co -1.03079(5) 0.21290(5) 1.12336(3)
Co1_3 Co 0.96921(5) 0.21290(5) 1.12336(3)
S1A S -0.1536(3) 0.17821(16) 1.86238(15)
S2A S 0.26624(18) -0.58891(16) 1.91197(17)
N1A N 0.0003(3) -0.2579(3) 2.0009(2)
N2A N 0.0501(3) -0.1638(3) 1.7518(2)
N3_2 N 0.8160(3) 0.2018(3) 1.1194(2)
N3A N 0.1840(3) -0.2018(3) 1.8806(2)
N4_2 N 0.1240(3) 0.2235(3) 1.1309(2)
N4A N -0.1240(3) -0.2235(3) 1.8691(2)
N5A N -0.0573(3) -0.0480(4) 1.8909(2)
N6A N 0.1199(3) -0.3775(4) 1.8625(2)
C1A C -0.0959(7) -0.2018(8) 2.0402(5)
H1A H -0.1449 -0.1363 2.0167
C2A C -0.1251(8) -0.2385(11) 2.1154(6)
H2A H -0.1947 -0.1986 2.1402
C3A C -0.0581(6) -0.3276(7) 2.1528(3)
C4A C 0.0432(8) -0.3874(6) 2.1131(4)
H3A H 0.0944 -0.4517 2.1361
C5A C 0.0635(8) -0.3485(7) 2.0410(5)
H4A H 0.1313 -0.3903 2.0149
C10A C -0.0936(9) -0.3642(9) 2.2322(4)
H9A H -0.0651 -0.3404 2.2633
C11A C 0.0471(5) -0.0652(5) 1.7205(3)
H10A H 0.0513 -0.0216 1.7515
C12A C 0.0382(5) -0.0247(5) 1.6445(3)
H11A H 0.0369 0.0443 1.6247
C13A C 0.0310(4) -0.0895(5) 1.5980(3)
C14A C 0.0393(4) -0.1913(5) 1.6287(3)
H12A H 0.0382 -0.2381 1.5989
C15A C 0.0493(4) -0.2239(5) 1.7034(3)
H13A H 0.0564 -0.2949 1.7229
C16A C 0.0120(5) -0.0496(5) 1.5174(3)
H14A H 0.0181 -0.1013 1.4887
C17_2 C 0.8108(4) 0.1386(6) 1.0763(4)
H15_2 H 0.8743 0.0996 1.0449
C18_2 C 0.7162(5) 0.1272(7) 1.0752(5)
H16_2 H 0.7166 0.0802 1.0448
C19_2 C 0.6214(4) 0.1866(5) 1.1200(4)
C20_2 C 0.6261(4) 0.2505(4) 1.1641(3)
H17_2 H 0.5633 0.2911 1.1954
C21_2 C 0.7223(4) 0.2559(4) 1.1632(3)
H18_2 H 0.7234 0.3002 1.1951
C22_2 C 0.5178(5) 0.1775(6) 1.1193(5)
H19_2 H 0.5247 0.1165 1.1003
C23_2 C 0.2171(5) 0.1403(6) 1.1344(7)
H20_2 H 0.2182 0.0720 1.1344
C24_2 C 0.3155(5) 0.1416(6) 1.1381(6)
H21_2 H 0.3790 0.0766 1.1410
C25_2 C 0.3183(4) 0.2362(5) 1.1376(3)
C26_2 C 0.2234(5) 0.3222(6) 1.1395(6)
H22_2 H 0.2194 0.3898 1.1455
C27_2 C 0.1304(5) 0.3136(6) 1.1328(6)
H23_2 H 0.0666 0.3783 1.1293
C28_2 C 0.4216(4) 0.2434(5) 1.1417(3)
H24_2 H 0.4145 0.3027 1.1630
C29A C -0.0972(5) 0.0451(5) 1.8791(3)
C30A C 0.1810(4) -0.4654(5) 1.8810(3)
Co2A Co -0.28713(5) -0.53075(5) 2.62343(3)
Co2_2 Co 0.28713(5) 1.53075(5) 0.37657(3)
Co2A_2 Co 0.71287(5) 0.46925(5) -0.37657(3)
Co2_3 Co 0.28713(5) -0.46925(5) 0.37657(3)
S3A S -0.67838(15) -0.3461(3) 2.63765(15)
S4A S 0.08881(15) -0.76622(18) 2.58812(16)
N13A N -0.2421(3) -0.5001(3) 2.4992(2)
N14A N 0.6645(3) 0.4498(3) -0.2518(2)
N14A_2 N -0.3355(3) -0.5502(3) 2.7482(2)
N15_2 N 0.2988(3) -0.3161(3) 0.3805(2)
N15A N -0.2988(3) -0.6839(3) 2.6195(2)
N16_2 N 0.2769(3) 0.3760(3) 0.3693(2)
N16A N -0.2769(3) -0.3760(3) 2.6307(2)
N17A N -0.4520(4) -0.4424(3) 2.6087(2)
N18A N -0.1225(3) -0.6198(3) 2.6373(2)
C31A C -0.2970(9) -0.4042(8) 2.4611(5)
H25A H -0.3622 -0.3548 2.4853
C32A C -0.2596(12) -0.3749(8) 2.3852(6)
H26A H -0.2984 -0.3048 2.3611
C33A C -0.1723(7) -0.4425(6) 2.3473(3)
C34A C -0.1122(7) -0.5442(8) 2.3879(4)
H27A H -0.0471 -0.5951 2.3648
C35A C -0.1513(7) -0.5651(8) 2.4601(4)
H28A H -0.1104 -0.6329 2.4860
C40A C -0.1362(9) -0.4045(8) 2.2669(4)
H33A H -0.1651 -0.4277 2.2357
C41A C 0.5653(5) 0.4528(5) -0.2205(3)
H34A H 0.5219 0.4487 -0.2515
C42A C 0.5246(5) 0.4619(5) -0.1439(3)
H35A H 0.4557 0.4630 -0.1238
C43A C 0.5891(5) 0.4695(4) -0.0981(3)
C44A C 0.6907(4) 0.4604(4) -0.1287(3)
H36A H 0.7373 0.4608 -0.0987
C45A C 0.7241(5) 0.4509(4) -0.2033(3)
H37A H 0.7950 0.4445 -0.2228
C46A C 0.5497(5) 0.4879(5) -0.0172(3)
H38A H 0.6012 0.4816 0.0114
C47_2 C 0.3613(6) -0.3105(5) 0.4240(4)
H39_2 H 0.3992 -0.3733 0.4558
C48_2 C 0.3727(7) -0.2160(5) 0.4244(5)
H40_2 H 0.4199 -0.2158 0.4541
C49_2 C 0.3133(5) -0.1216(4) 0.3800(4)
C50_2 C 0.2499(4) -0.1261(4) 0.3356(3)
H41_2 H 0.2101 -0.0639 0.3042
C51_2 C 0.2446(4) -0.2228(4) 0.3371(3)
H42_2 H 0.2001 -0.2245 0.3058
C52_2 C 0.3223(6) -0.0173(5) 0.3802(5)
H43_2 H 0.3834 -0.0242 0.3987
C53_2 C 0.1867(6) 0.3699(5) 0.3662(6)
H44_2 H 0.1226 0.4345 0.3674
C54_2 C 0.1776(6) 0.2757(5) 0.3613(6)
H45_2 H 0.1098 0.2789 0.3573
C55_2 C 0.2641(5) 0.1817(4) 0.3621(3)
C56_2 C 0.3584(6) 0.1849(5) 0.3609(6)
H46_2 H 0.4236 0.1216 0.3569
C57_2 C 0.3598(6) 0.2830(5) 0.3657(7)
H47_2 H 0.4280 0.2816 0.3663
C58_2 C 0.2569(5) 0.0787(4) 0.3585(4)
H48_2 H 0.1975 0.0856 0.3379
C59A C -0.5452(5) -0.4026(5) 2.6210(3)
C60A C -0.0347(5) -0.6815(4) 2.6187(3)
loop_
_geom_bond_atom_site_label_1
_geom_bond_atom_site_label_2
_geom_bond_site_symmetry_1
_geom_bond_site_symmetry_2
Co1 N1 1_555 1_555
S1 C29 1_555 1_555
S2 C30 1_555 1_555
N1 C1 1_555 1_555
N2 Co1 1_555 1_555
N3 Co1 1_555 1_555
N4 C23 1_555 1_555
N5 Co1 1_555 1_555
N6 Co1 1_555 1_555
C1 H1 1_555 1_555
C2 C1 1_555 1_555
H2 C2 1_555 1_555
C3 C2 1_555 1_555
C4 C3 1_555 1_555
H3 C4 1_555 1_555
C5 N1 1_555 1_555
H4 C5 1_555 1_555
C10 C3 1_555 1_555
H9 C10 1_555 1_555
C11 N2 1_555 1_555
H10 C11 1_555 1_555
C12 C11 1_555 1_555
H11 C12 1_555 1_555
C13 C12 1_555 1_555
C14 C13 1_555 1_555
H12 C14 1_555 1_555
C15 N2 1_555 1_555
H13 C15 1_555 1_555
C16 C13 1_555 1_555
H14 C16 1_555 1_555
C17 N3 1_555 1_555
H15 C17 1_555 1_555
C18 C17 1_555 1_555
H16 C18 1_555 1_555
C19 C18 1_555 1_555
C20 C19 1_555 1_555
H17 C20 1_555 1_555
C21 N3 1_555 1_555
H18 C21 1_555 1_555
C22 C19 1_555 1_555
H19 C22 1_555 1_555
C23 H20 1_555 1_555
C24 C23 1_555 1_555
H21 C24 1_555 1_555
C25 C24 1_555 1_555
C26 C25 1_555 1_555
H22 C26 1_555 1_555
C27 N4 1_555 1_555
H23 C27 1_555 1_555
C28 C22 1_555 1_555
H24 C28 1_555 1_555
C29 N5 1_555 1_555
C30 N6 1_555 1_555
Co2 N13 1_555 1_555
S3 C59 1_555 1_555
S4 C60 1_555 1_555
N13 C31 1_555 1_555
N14 Co2 1_555 1_555
N15 Co2 1_555 1_555
N16 C53 1_555 1_555
N17 Co2 1_555 1_555
N18 Co2 1_555 1_555
C31 H25 1_555 1_555
C32 C31 1_555 1_555
H26 C32 1_555 1_555
C33 C32 1_555 1_555
C34 C33 1_555 1_555
H27 C34 1_555 1_555
C35 N13 1_555 1_555
H28 C35 1_555 1_555
C40 C10 1_555 1_555
H33 C40 1_555 1_555
C41 N14 1_555 1_555
H34 C41 1_555 1_555
C42 C41 1_555 1_555
H35 C42 1_555 1_555
C43 C42 1_555 1_555
C44 C43 1_555 1_555
H36 C44 1_555 1_555
C45 N14 1_555 1_555
H37 C45 1_555 1_555
C46 C43 1_555 1_555
H38 C46 1_555 1_555
C47 N15 1_555 1_555
H39 C47 1_555 1_555
C48 C47 1_555 1_555
H40 C48 1_555 1_555
C49 C48 1_555 1_555
C50 C49 1_555 1_555
H41 C50 1_555 1_555
C51 N15 1_555 1_555
H42 C51 1_555 1_555
C52 C49 1_555 1_555
H43 C52 1_555 1_555
C53 H44 1_555 1_555
C54 C53 1_555 1_555
H45 C54 1_555 1_555
C55 C54 1_555 1_555
C56 C55 1_555 1_555
H46 C56 1_555 1_555
C57 N16 1_555 1_555
H47 C57 1_555 1_555
C58 C52 1_555 1_555
H48 C58 1_555 1_555
C59 N17 1_555 1_555
C60 N18 1_555 1_555
O1 C61 1_555 1_555
N25 C61 1_555 1_555
C61 H49 1_555 1_555
C62 N25 1_555 1_555
H50 C62 1_555 1_555
H51 C62 1_555 1_555
H52 C62 1_555 1_555
C63 N25 1_555 1_555
H53 C63 1_555 1_555
H54 C63 1_555 1_555
H55 C63 1_555 1_555
O3 C67 1_555 1_555
N27 C67 1_555 1_555
C67 H63 1_555 1_555
C68 N27 1_555 1_555
H64 C68 1_555 1_555
H65 C68 1_555 1_555
H66 C68 1_555 1_555
C69 N27 1_555 1_555
H67 C69 1_555 1_555
H68 C69 1_555 1_555
H69 C69 1_555 1_555
Co1A N1A 1_555 1_555
Co1_2 N4 1_555 1_555
Co1_3 N3_2 1_555 1_555
S1A C29A 1_555 1_555
S2A C30A 1_555 1_555
N1A C1A 1_555 1_555
N2A Co1A 1_555 1_555
N3_2 C17_2 1_555 1_555
N3A Co1A 1_555 1_555
N4_2 Co1 1_555 1_555
N4A Co1A 1_555 1_555
N5A Co1A 1_555 1_555
N6A Co1A 1_555 1_555
C1A H1A 1_555 1_555
C2A C1A 1_555 1_555
H2A C2A 1_555 1_555
C3A C2A 1_555 1_555
C4A C3A 1_555 1_555
H3A C4A 1_555 1_555
C5A N1A 1_555 1_555
H4A C5A 1_555 1_555
C10A C3A 1_555 1_555
H9A C10A 1_555 1_555
C11A N2A 1_555 1_555
H10A C11A 1_555 1_555
C12A C11A 1_555 1_555
H11A C12A 1_555 1_555
C13A C12A 1_555 1_555
C14A C13A 1_555 1_555
H12A C14A 1_555 1_555
C15A N2A 1_555 1_555
H13A C15A 1_555 1_555
C16A C16 1_555 1_555
H14A C16A 1_555 1_555
C17_2 H15_2 1_555 1_555
C18_2 C17_2 1_555 1_555
H16_2 C18_2 1_555 1_555
C19_2 C18_2 1_555 1_555
C20_2 C19_2 1_555 1_555
H17_2 C20_2 1_555 1_555
C21_2 N3_2 1_555 1_555
H18_2 C21_2 1_555 1_555
C22_2 C19_2 1_555 1_555
H19_2 C22_2 1_555 1_555
C23_2 N4_2 1_555 1_555
H20_2 C23_2 1_555 1_555
C24_2 C23_2 1_555 1_555
H21_2 C24_2 1_555 1_555
C25_2 C24_2 1_555 1_555
C26_2 C25_2 1_555 1_555
H22_2 C26_2 1_555 1_555
C27_2 N4_2 1_555 1_555
H23_2 C27_2 1_555 1_555
C28_2 C22_2 1_555 1_555
H24_2 C28_2 1_555 1_555
C29A N5A 1_555 1_555
C30A N6A 1_555 1_555
Co2A N13A 1_555 1_555
Co2_2 N16 1_555 1_555
Co2A_2 N14A 1_555 1_555
Co2_3 N15_2 1_555 1_555
S3A C59A 1_555 1_555
S4A C60A 1_555 1_555
N13A C31A 1_555 1_555
N14A C41A 1_555 1_555
N14A_2 Co2A 1_555 1_555
N15_2 C47_2 1_555 1_555
N15A Co2A 1_555 1_555
N16_2 Co2 1_555 1_555
N16A Co2A 1_555 1_555
N17A Co2A 1_555 1_555
N18A Co2A 1_555 1_555
C31A H25A 1_555 1_555
C32A C31A 1_555 1_555
H26A C32A 1_555 1_555
C33A C32A 1_555 1_555
C34A C33A 1_555 1_555
H27A C34A 1_555 1_555
C35A N13A 1_555 1_555
H28A C35A 1_555 1_555
C40A C10A 1_555 1_555
H33A C40A 1_555 1_555
C41A H34A 1_555 1_555
C42A C41A 1_555 1_555
H35A C42A 1_555 1_555
C43A C42A 1_555 1_555
C44A C43A 1_555 1_555
H36A C44A 1_555 1_555
C45A N14A 1_555 1_555
H37A C45A 1_555 1_555
C46A C46 1_555 1_555
H38A C46A 1_555 1_555
C47_2 H39_2 1_555 1_555
C48_2 C47_2 1_555 1_555
H40_2 C48_2 1_555 1_555
C49_2 C48_2 1_555 1_555
C50_2 C49_2 1_555 1_555
H41_2 C50_2 1_555 1_555
C51_2 N15_2 1_555 1_555
H42_2 C51_2 1_555 1_555
C52_2 C49_2 1_555 1_555
H43_2 C52_2 1_555 1_555
C53_2 N16_2 1_555 1_555
H44_2 C53_2 1_555 1_555
C54_2 C53_2 1_555 1_555
H45_2 C54_2 1_555 1_555
C55_2 C54_2 1_555 1_555
C56_2 C55_2 1_555 1_555
H46_2 C56_2 1_555 1_555
C57_2 N16_2 1_555 1_555
H47_2 C57_2 1_555 1_555
C58_2 C52_2 1_555 1_555
H48_2 C58_2 1_555 1_555
C59A N17A 1_555 1_555
C60A N18A 1_555 1_555
C4 C5 1_555 1_555
C14 C15 1_555 1_555
C20 C21 1_555 1_555
C25 C28 1_555 1_555
C26 C27 1_555 1_555
C33 C40 1_555 1_555
C34 C35 1_555 1_555
C44 C45 1_555 1_555
C50 C51 1_555 1_555
C55 C58 1_555 1_555
C56 C57 1_555 1_555
C4A C5A 1_555 1_555
C13A C16A 1_555 1_555
C14A C15A 1_555 1_555
C20_2 C21_2 1_555 1_555
C25_2 C28_2 1_555 1_555
C26_2 C27_2 1_555 1_555
C33A C40A 1_555 1_555
C34A C35A 1_555 1_555
C43A C46A 1_555 1_555
C44A C45A 1_555 1_555
C50_2 C51_2 1_555 1_555
C55_2 C58_2 1_555 1_555
C56_2 C57_2 1_555 1_555

#END
