
#######################################################################
#
#                 Cambridge Crystallographic Data Centre
#                                CCDC 
#
#######################################################################
#
# If this CIF has been generated from an entry in the Cambridge 
# Structural Database, then it will include bibliographic, chemical, 
# crystal, experimental, refinement or atomic coordinate data resulting 
# from the CCDC's data processing and validation procedures.
#
#######################################################################

data_LARPUS
_chemical_formula_moiety         '(C26 H20 Cd1 F6 N8 Si1)n'
_symmetry_cell_setting           orthorhombic
_symmetry_space_group_name_H-M   'P n n a'
_symmetry_Int_Tables_number      52
_space_group_name_Hall           '-P 2a 2bc'
loop_
_symmetry_equiv_pos_site_id
_symmetry_equiv_pos_as_xyz
1 x,y,z
2 1/2-x,-y,z
3 1/2-x,1/2+y,1/2-z
4 x,1/2-y,1/2-z
5 -x,-y,-z
6 1/2+x,y,-z
7 1/2+x,1/2-y,1/2+z
8 -x,1/2+y,1/2+z
_cell_length_a                   15.429(3)
_cell_length_b                   16.683(3)
_cell_length_c                   12.703(3)
_cell_angle_alpha                90
_cell_angle_beta                 90
_cell_angle_gamma                90
_cell_volume                     3269.78
loop_
_atom_site_label
_atom_site_type_symbol
_atom_site_fract_x
_atom_site_fract_y
_atom_site_fract_z
C1 C 0.9152(3) 0.6683(3) 0.4613(4)
H1 H 0.8636 0.6445 0.4829
C2 C 1.0490(3) 0.6871(3) 0.4278(5)
H2 H 1.1084 0.6784 0.4220
C3 C 1.0080(3) 0.7569(3) 0.3997(5)
H3 H 1.0330 0.8029 0.3718
C4 C 0.8483(3) 0.7942(3) 0.3984(4)
C5 C 0.7748(4) 0.7897(4) 0.4591(5)
H4 H 0.7734 0.7580 0.5193
C6 C 0.7031(4) 0.8335(4) 0.4288(5)
H5 H 0.6531 0.8300 0.4693
C7 C 0.7023(3) 0.8806(3) 0.3438(4)
C8 C 0.7772(3) 0.8852(3) 0.2832(4)
H6 H 0.7782 0.9176 0.2237
C9 C 0.8506(3) 0.8416(3) 0.3110(4)
H7 H 0.9007 0.8449 0.2704
C10 C 0.6230(3) 0.9256(3) 0.3115(4)
C11 C 0.6027(3) 0.9363(3) 0.2086(4)
H8 H 0.6394 0.9154 0.1573
C12 C 0.5681(4) 0.9606(4) 0.3823(5)
H9 H 0.5806 0.9545 0.4535
C13 C 0.4819(4) 1.0052(3) 0.2568(5)
H10 H 0.4303 1.0301 0.2375
Cd1 Cd 1.0000 0.5000 0.5000
N1 N 0.9917(2) 0.6326(3) 0.4651(3)
N2 N 0.9212(2) 0.7438(2) 0.4220(3)
N3 N 0.5309(3) 0.9763(2) 0.1785(3)
N4 N 0.4989(3) 1.0023(3) 0.3569(5)
Si1 Si 0.7500 0.5000 0.55484(17)
F1 F 0.8589(2) 0.50299(16) 0.5531(4)
F2 F 0.7500 0.5000 0.4242(9)
F3 F 0.7500 0.5000 0.6859(8)
F4 F 0.7606(5) 0.4026(5) 0.5167(11)
F1A F 0.6411(2) 0.49701(16) 0.5531(4)
F4A F 0.7394(5) 0.5974(5) 0.5167(11)
C1D C 1.0848(3) 0.3317(3) 0.5387(4)
H1D H 1.1364 0.3555 0.5171
C2D C 0.9510(3) 0.3129(3) 0.5722(5)
H2D H 0.8916 0.3216 0.5780
C3D C 0.9920(3) 0.2431(3) 0.6003(5)
H3D H 0.9670 0.1971 0.6282
C4D C 1.1517(3) 0.2058(3) 0.6016(4)
C5D C 1.2252(4) 0.2103(4) 0.5409(5)
H4D H 1.2266 0.2420 0.4807
C6D C 1.2969(4) 0.1665(4) 0.5712(5)
H5D H 1.3469 0.1700 0.5307
C7D C 1.2977(3) 0.1194(3) 0.6562(4)
C8D C 1.2228(3) 0.1148(3) 0.7168(4)
H6D H 1.2218 0.0824 0.7763
C9D C 1.1494(3) 0.1584(3) 0.6890(4)
H7D H 1.0993 0.1551 0.7296
C10D C 1.3770(3) 0.0744(3) 0.6885(4)
C11D C 1.3973(3) 0.0637(3) 0.7914(4)
H8D H 1.3606 0.0846 0.8427
C12D C 1.4319(4) 0.0394(4) 0.6177(5)
H9D H 1.4194 0.0455 0.5465
C13D C 1.5181(4) -0.0052(3) 0.7432(5)
H10D H 1.5697 -0.0301 0.7625
N1D N 1.0083(2) 0.3674(3) 0.5349(3)
N2D N 1.0788(2) 0.2562(2) 0.5780(3)
N3D N 1.4691(3) 0.0237(2) 0.8215(3)
N4D N 1.5011(3) -0.0023(3) 0.6431(5)
Cd1A Cd 0.5000 0.5000 0.5000
Cd1B Cd 0.5000 1.0000 0.0000
Cd1B_2 Cd 1.5000 0.0000 1.0000
N3B N 0.9691(3) 0.4763(2) 0.3215(3)
N3F N 1.0309(3) 0.5237(2) 0.6785(3)
F1D F 1.1411(2) 0.49701(16) 0.4469(4)
loop_
_geom_bond_atom_site_label_1
_geom_bond_atom_site_label_2
_geom_bond_site_symmetry_1
_geom_bond_site_symmetry_2
C1 H1 1_555 1_555
C2 H2 1_555 1_555
C3 C2 1_555 1_555
H3 C3 1_555 1_555
C4 C5 1_555 1_555
C5 H4 1_555 1_555
C6 C5 1_555 1_555
H5 C6 1_555 1_555
C7 C6 1_555 1_555
C8 C7 1_555 1_555
H6 C8 1_555 1_555
C9 C4 1_555 1_555
H7 C9 1_555 1_555
C10 C7 1_555 1_555
C11 C10 1_555 1_555
H8 C11 1_555 1_555
C12 C10 1_555 1_555
H9 C12 1_555 1_555
C13 H10 1_555 1_555
Cd1 N1 1_555 1_555
N1 C1 1_555 1_555
N2 C1 1_555 1_555
N3 C11 1_555 1_555
N4 C12 1_555 1_555
Si1 F1 1_555 1_555
F1 Cd1 1_555 1_555
F2 Si1 1_555 1_555
F3 Si1 1_555 1_555
F4 Si1 1_555 1_555
F1A Si1 1_555 1_555
F4A Si1 1_555 1_555
C1D H1D 1_555 1_555
C2D H2D 1_555 1_555
C3D C2D 1_555 1_555
H3D C3D 1_555 1_555
C4D C5D 1_555 1_555
C5D H4D 1_555 1_555
C6D C5D 1_555 1_555
H5D C6D 1_555 1_555
C7D C6D 1_555 1_555
C8D C7D 1_555 1_555
H6D C8D 1_555 1_555
C9D C4D 1_555 1_555
H7D C9D 1_555 1_555
C10D C7D 1_555 1_555
C11D C10D 1_555 1_555
H8D C11D 1_555 1_555
C12D C10D 1_555 1_555
H9D C12D 1_555 1_555
C13D H10D 1_555 1_555
N1D Cd1 1_555 1_555
N2D C1D 1_555 1_555
N3D C11D 1_555 1_555
N4D C12D 1_555 1_555
Cd1A F1A 1_555 1_555
Cd1B N3 1_555 1_555
Cd1B_2 N3D 1_555 1_555
N3B Cd1 1_555 1_555
N3F Cd1 1_555 1_555
F1D Cd1 1_555 1_555
C2 N1 1_555 1_555
C3 N2 1_555 1_555
C4 N2 1_555 1_555
C8 C9 1_555 1_555
C13 N3 1_555 1_555
C13 N4 1_555 1_555
C1D N1D 1_555 1_555
C2D N1D 1_555 1_555
C3D N2D 1_555 1_555
C4D N2D 1_555 1_555
C8D C9D 1_555 1_555
C13D N3D 1_555 1_555
C13D N4D 1_555 1_555

#END
