
#######################################################################
#
#                 Cambridge Crystallographic Data Centre
#                                CCDC 
#
#######################################################################
#
# If this CIF has been generated from an entry in the Cambridge 
# Structural Database, then it will include bibliographic, chemical, 
# crystal, experimental, refinement or atomic coordinate data resulting 
# from the CCDC's data processing and validation procedures.
#
#######################################################################

data_ISIYUF01
_chemical_formula_moiety         '(C28 H52 Er4 N4 O32)n'
_symmetry_cell_setting           monoclinic
_symmetry_space_group_name_H-M   'P 21/c'
_symmetry_Int_Tables_number      14
_space_group_name_Hall           '-P 2ybc'
loop_
_symmetry_equiv_pos_site_id
_symmetry_equiv_pos_as_xyz
1 x,y,z
2 -x,1/2+y,1/2-z
3 -x,-y,-z
4 x,1/2-y,1/2+z
_cell_length_a                   14.6163(2)
_cell_length_b                   26.0625(3)
_cell_length_c                   12.67840(10)
_cell_angle_alpha                90
_cell_angle_beta                 105.0459(5)
_cell_angle_gamma                90
_cell_volume                     4664.11
loop_
_atom_site_label
_atom_site_type_symbol
_atom_site_fract_x
_atom_site_fract_y
_atom_site_fract_z
Er1 Er 0.225334(19) 0.465375(12) 0.30476(2)
Er2 Er 0.248742(19) 0.215814(13) 0.181509(19)
Er3 Er 0.281690(19) 0.714370(12) 0.196050(19)
Er4 Er 0.243790(19) 0.534730(12) -0.19186(2)
O1 O 0.3756(3) 0.4707(2) 0.4341(4)
O2 O 0.3750(3) 0.48310(17) 0.2659(3)
O3 O 0.1036(3) 0.25512(18) 0.0685(3)
O4 O 0.1017(3) 0.22478(17) 0.2283(3)
O5 O 0.1311(3) 0.7203(2) 0.0719(4)
O6 O 0.1340(3) 0.73475(17) 0.2391(3)
O7 O 0.3886(3) 0.4996(2) -0.0761(4)
O8 O 0.3910(3) 0.52367(18) -0.2400(4)
O9 O 0.2637(3) 0.38480(16) 0.2519(3)
O10 O 0.2667(3) 0.30108(16) 0.2304(3)
O11 O 0.4005(3) 0.19241(18) 0.2122(4)
O12 O 0.5538(3) 0.20886(19) 0.2594(3)
O13 O 0.2967(3) 0.80205(16) 0.2308(3)
O14 O 0.2745(3) 0.88471(16) 0.2457(3)
O15 O 0.2154(3) 0.55303(16) 0.2663(3)
O16 O 0.2468(3) 0.63508(17) 0.2586(4)
O17 O 0.1870(3) 0.46793(17) 0.1125(3)
O18 O 0.1914(3) 0.49103(16) -0.0533(3)
O19 O 0.1841(3) 0.51278(16) 0.4448(3)
O20 O 0.1884(3) 0.53382(17) 0.6154(3)
O21 O 0.0631(3) 0.45692(17) 0.2467(3)
O22 O -0.0894(3) 0.44186(18) 0.2253(3)
O23 O 0.1922(3) 0.40598(17) 0.4273(3)
O24 O 0.2023(3) 0.33819(17) 0.5326(3)
O25 O 0.3026(3) 0.21706(17) 0.3761(3)
O26 O 0.3022(3) 0.24204(16) 0.5425(3)
O27 O 0.2285(3) 0.13384(17) 0.2441(4)
O28 O 0.2292(3) 0.05014(16) 0.2603(3)
O29 O 0.3023(3) 0.65262(17) 0.0726(4)
O30 O 0.2773(4) 0.58902(17) -0.0450(4)
O31 O 0.3224(3) 0.75930(16) 0.0536(3)
O32 O 0.3278(3) 0.78028(17) -0.1127(3)
C1 C 0.4174(4) 0.4838(3) 0.3637(5)
H1 H 0.4818 0.4942 0.3856
C2 C 0.0623(4) 0.2468(3) 0.1417(5)
H2 H -0.0015 0.2578 0.1306
C3 C 0.0915(5) 0.7341(3) 0.1422(5)
H3 H 0.0270 0.7444 0.1207
C4 C 0.4305(5) 0.5048(2) -0.1482(5)
H4 H 0.4947 0.4943 -0.1339
C5 C 0.2261(5) 0.3413(2) 0.2425(5)
H5 H 0.1618 0.3391 0.2447
C6 C 0.4857(5) 0.1811(3) 0.2270(5)
H6 H 0.4989 0.1466 0.2110
C7 C 0.2484(4) 0.8398(2) 0.2457(4)
H7 H 0.1879 0.8333 0.2577
C8 C 0.2680(5) 0.5891(2) 0.2575(5)
H8 H 0.3291 0.5809 0.2494
C9 C 0.2252(4) 0.4896(2) 0.0477(5)
H9 H 0.2841 0.5063 0.0771
C10 C 0.2163(4) 0.5094(2) 0.5465(5)
H10 H 0.2667 0.4858 0.5727
C11 C -0.0043(4) 0.4308(3) 0.2523(5)
H11 H 0.0105 0.3973 0.2813
C12 C 0.2370(5) 0.3751(3) 0.4951(5)
H12 H 0.3035 0.3801 0.5206
C13 C 0.2659(4) 0.2404(2) 0.4403(5)
H13 H 0.2078 0.2579 0.4113
C14 C 0.2656(5) 0.0918(3) 0.2489(5)
H14 H 0.3292 0.0909 0.2433
C15 C 0.2520(5) 0.6267(3) -0.0024(5)
H15 H 0.1878 0.6371 -0.0294
C16 C 0.2923(4) 0.7571(2) -0.0474(5)
H16 H 0.2383 0.7362 -0.0767
Er2C Er 0.248742(19) 0.284186(13) 0.681509(19)
Er3A Er 0.718310(19) 0.214370(12) 0.303950(19)
Er3C Er 0.281690(19) 0.785630(12) -0.303950(19)
Er4C Er 0.243790(19) 0.965270(12) 0.30814(2)
Er4_2 Er 0.243790(19) 0.534730(12) 0.80814(2)
Er4B Er -0.243790(19) 0.465270(12) 0.19186(2)
Er4C_2 Er 0.243790(19) -0.034730(12) 0.30814(2)
O12A O 0.4462(3) 0.70886(19) 0.2406(3)
O14C O 0.2745(3) 0.61529(16) -0.2543(3)
O20_2 O 0.1884(3) 0.53382(17) -0.3846(3)
O22B O 0.0894(3) 0.55814(18) -0.2253(3)
O24C O 0.2023(3) 0.16181(17) 0.0326(3)
O26C O 0.3022(3) 0.25796(16) 0.0425(3)
O28C O 0.2292(3) 0.44986(16) -0.2397(3)
O32C O 0.3278(3) 0.71972(17) 0.3873(3)
N1 N 0.5481(4) 0.3418(2) 0.3730(5)
H17 H 0.5935 0.3180 0.3658
N2 N 0.4357(4) 0.3420(2) 0.0661(5)
H18 H 0.3979 0.3159 0.0277
C17 C 0.5050(4) 0.3646(3) 0.2585(5)
H19 H 0.4526 0.3882 0.2612
H20 H 0.5539 0.3845 0.2348
C18 C 0.4689(5) 0.3227(3) 0.1794(6)
H21 H 0.5199 0.2972 0.1832
H22 H 0.4159 0.3051 0.1997
C19 C 0.5978(5) 0.3823(3) 0.4452(5)
H23 H 0.6422 0.3996 0.4108
H24 H 0.6328 0.3673 0.5148
H25 H 0.5517 0.4072 0.4582
C20 C 0.4800(5) 0.3143(3) 0.4199(6)
H26 H 0.4486 0.2874 0.3691
H27 H 0.4324 0.3384 0.4322
H28 H 0.5135 0.2986 0.4894
C21 C 0.5143(5) 0.3477(4) 0.0130(6)
H29 H 0.4893 0.3607 -0.0615
H30 H 0.5443 0.3143 0.0104
H31 H 0.5611 0.3719 0.0549
C22 C 0.3735(5) 0.3876(3) 0.0516(5)
H32 H 0.3559 0.3977 -0.0255
H33 H 0.4072 0.4159 0.0961
H34 H 0.3162 0.3794 0.0747
N3 N 0.0693(4) 0.6006(2) 0.3988(4)
H35 H 0.1065 0.5718 0.3974
N4 N -0.0520(4) 0.5840(2) 0.0985(4)
H36 H -0.0952 0.5580 0.0704
C23 C 0.0283(4) 0.6180(3) 0.2817(5)
H37 H -0.0152 0.6472 0.2799
H38 H 0.0799 0.6293 0.2497
C24 C -0.0238(4) 0.5747(3) 0.2175(5)
H39 H 0.0166 0.5437 0.2322
H40 H -0.0813 0.5677 0.2425
C25 C 0.1316(5) 0.6414(3) 0.4602(5)
H41 H 0.1798 0.6504 0.4220
H42 H 0.1628 0.6290 0.5338
H43 H 0.0936 0.6718 0.4655
C26 C -0.0052(5) 0.5861(3) 0.4544(6)
H44 H -0.0452 0.5590 0.4125
H45 H -0.0442 0.6161 0.4590
H46 H 0.0249 0.5735 0.5281
C27 C 0.0268(5) 0.5760(3) 0.0463(6)
H47 H 0.0044 0.5829 -0.0322
H48 H 0.0491 0.5405 0.0577
H49 H 0.0789 0.5994 0.0790
C28 C -0.1043(5) 0.6318(3) 0.0644(5)
H50 H -0.1190 0.6349 -0.0153
H51 H -0.0654 0.6610 0.0982
H52 H -0.1633 0.6314 0.0875
loop_
_geom_bond_atom_site_label_1
_geom_bond_atom_site_label_2
_geom_bond_site_symmetry_1
_geom_bond_site_symmetry_2
Er1 O1 1_555 1_555
Er2 O3 1_555 1_555
Er3 O5 1_555 1_555
Er4 O7 1_555 1_555
O1 C1 1_555 1_555
O2 Er1 1_555 1_555
O3 C2 1_555 1_555
O4 Er2 1_555 1_555
O5 C3 1_555 1_555
O6 Er3 1_555 1_555
O7 C4 1_555 1_555
O8 Er4 1_555 1_555
O9 Er1 1_555 1_555
O10 Er2 1_555 1_555
O11 Er2 1_555 1_555
O12 C6 1_555 1_555
O13 Er3 1_555 1_555
O14 C7 1_555 1_555
O15 Er1 1_555 1_555
O16 Er3 1_555 1_555
O17 Er1 1_555 1_555
O18 Er4 1_555 1_555
O19 Er1 1_555 1_555
O20 C10 1_555 1_555
O21 Er1 1_555 1_555
O22 C11 1_555 1_555
O23 Er1 1_555 1_555
O24 C12 1_555 1_555
O25 Er2 1_555 1_555
O26 C13 1_555 1_555
O27 Er2 1_555 1_555
O28 C14 1_555 1_555
O29 Er3 1_555 1_555
O30 Er4 1_555 1_555
O31 Er3 1_555 1_555
O32 C16 1_555 1_555
C1 O2 1_555 1_555
H1 C1 1_555 1_555
C2 O4 1_555 1_555
H2 C2 1_555 1_555
C3 O6 1_555 1_555
H3 C3 1_555 1_555
C4 O8 1_555 1_555
H4 C4 1_555 1_555
C5 O9 1_555 1_555
H5 C5 1_555 1_555
C6 O11 1_555 1_555
H6 C6 1_555 1_555
C7 O13 1_555 1_555
H7 C7 1_555 1_555
C8 O15 1_555 1_555
H8 C8 1_555 1_555
C9 O17 1_555 1_555
H9 C9 1_555 1_555
C10 O19 1_555 1_555
H10 C10 1_555 1_555
C11 O21 1_555 1_555
H11 C11 1_555 1_555
C12 O23 1_555 1_555
H12 C12 1_555 1_555
C13 O25 1_555 1_555
H13 C13 1_555 1_555
C14 O27 1_555 1_555
H14 C14 1_555 1_555
C15 O29 1_555 1_555
H15 C15 1_555 1_555
C16 O31 1_555 1_555
H16 C16 1_555 1_555
N1 H17 1_555 1_555
N2 H18 1_555 1_555
C17 N1 1_555 1_555
H19 C17 1_555 1_555
H20 C17 1_555 1_555
C18 N2 1_555 1_555
H21 C18 1_555 1_555
H22 C18 1_555 1_555
C19 N1 1_555 1_555
H23 C19 1_555 1_555
H24 C19 1_555 1_555
H25 C19 1_555 1_555
C20 N1 1_555 1_555
H26 C20 1_555 1_555
H27 C20 1_555 1_555
H28 C20 1_555 1_555
C21 N2 1_555 1_555
H29 C21 1_555 1_555
H30 C21 1_555 1_555
H31 C21 1_555 1_555
C22 N2 1_555 1_555
H32 C22 1_555 1_555
H33 C22 1_555 1_555
H34 C22 1_555 1_555
N3 H35 1_555 1_555
N4 H36 1_555 1_555
C23 N3 1_555 1_555
H37 C23 1_555 1_555
H38 C23 1_555 1_555
C24 N4 1_555 1_555
H39 C24 1_555 1_555
H40 C24 1_555 1_555
C25 N3 1_555 1_555
H41 C25 1_555 1_555
H42 C25 1_555 1_555
H43 C25 1_555 1_555
C26 N3 1_555 1_555
H44 C26 1_555 1_555
H45 C26 1_555 1_555
H46 C26 1_555 1_555
C27 N4 1_555 1_555
H47 C27 1_555 1_555
H48 C27 1_555 1_555
H49 C27 1_555 1_555
C28 N4 1_555 1_555
H50 C28 1_555 1_555
H51 C28 1_555 1_555
H52 C28 1_555 1_555
Er2C O24 1_555 1_555
Er3A O12 1_555 1_555
Er3C O32 1_555 1_555
Er4C O14 1_555 1_555
Er4_2 O20 1_555 1_555
Er4B O22 1_555 1_555
Er4C_2 O28 1_555 1_555
O12A Er3 1_555 1_555
O14C Er4 1_555 1_555
O20_2 Er4 1_555 1_555
O22B Er4 1_555 1_555
O24C Er2 1_555 1_555
O26C Er2 1_555 1_555
O28C Er4 1_555 1_555
O32C Er3 1_555 1_555
O10 C5 1_555 1_555
O16 C8 1_555 1_555
O18 C9 1_555 1_555
O26 Er2C 1_555 1_555
O30 C15 1_555 1_555
C17 C18 1_555 1_555
C23 C24 1_555 1_555

#END
