
#######################################################################
#
#                 Cambridge Crystallographic Data Centre
#                                CCDC 
#
#######################################################################
#
# If this CIF has been generated from an entry in the Cambridge 
# Structural Database, then it will include bibliographic, chemical, 
# crystal, experimental, refinement or atomic coordinate data resulting 
# from the CCDC's data processing and validation procedures.
#
#######################################################################

data_ISIYUF
_chemical_formula_moiety         '(C14 H26 Er2 N2 O16)n'
_symmetry_cell_setting           monoclinic
_symmetry_space_group_name_H-M   'C 2/c'
_symmetry_Int_Tables_number      15
_space_group_name_Hall           '-C 2yc'
loop_
_symmetry_equiv_pos_site_id
_symmetry_equiv_pos_as_xyz
1 x,y,z
2 -x,y,1/2-z
3 1/2+x,1/2+y,z
4 1/2-x,1/2+y,1/2-z
5 -x,-y,-z
6 x,-y,1/2+z
7 1/2-x,1/2-y,-z
8 1/2+x,1/2-y,1/2+z
_cell_length_a                   14.7325(2)
_cell_length_b                   12.9990(2)
_cell_length_c                   12.7787(2)
_cell_angle_alpha                90
_cell_angle_beta                 104.9751(6)
_cell_angle_gamma                90
_cell_volume                     2364.11
loop_
_atom_site_label
_atom_site_type_symbol
_atom_site_fract_x
_atom_site_fract_y
_atom_site_fract_z
Er1 Er 0.235233(12) 0.068069(12) -0.188853(13)
O1 O 0.3838(3) 0.0474(3) -0.2322(3)
O2 O 0.3835(3) 0.0230(6) -0.0693(3)
O3 O 0.2067(7) 0.1905(5) -0.0685(6)
O4 O 0.1874(2) 0.0573(2) -0.3797(2)
O5 O 0.1878(2) 0.0180(2) -0.5476(2)
O6 O 0.2565(3) 0.2289(2) -0.2546(3)
O7 O 0.2732(2) 0.3942(2) -0.2751(3)
O8 O 0.0762(3) 0.0858(3) -0.2321(3)
C1 C 0.4239(4) 0.0232(4) -0.1392(5)
H1 H 0.4870 0.0046 -0.1227
C2 C 0.2500 0.2500 0.0000
C3 C 0.2235(3) 0.0175(3) -0.4468(3)
H2 H 0.2812 -0.0152 -0.4211
C4 C 0.2298(4) 0.3182(3) -0.2597(3)
H3 H 0.1699 0.3295 -0.2509
C5 C 0.0000 0.1263(7) -0.2500
H4 H -0.0000 0.1978 -0.2500
Er1F Er 0.264767(12) 0.431931(12) 0.188853(13)
Er1E Er 0.235233(12) -0.068069(12) -0.688853(13)
Er1C Er 0.264767(12) 0.568069(12) -0.311147(13)
Er1A Er -0.235233(12) 0.068069(12) -0.311147(13)
Er1E_2 Er 0.235233(12) -0.068069(12) 0.311147(13)
Er1C_2 Er 0.264767(12) -0.431931(12) -0.311147(13)
O1F O 0.1162(3) 0.4526(3) 0.2322(3)
O2F O 0.1165(3) 0.4770(6) 0.0693(3)
O3F O 0.2933(7) 0.3095(5) 0.0685(6)
O4E O 0.1874(2) -0.0573(2) 0.1203(2)
O4F O 0.3126(2) 0.4427(2) 0.3797(2)
O5E O 0.1878(2) -0.0180(2) -0.0476(2)
O5C O 0.3122(2) 0.5180(2) 0.0476(2)
O6C O 0.2435(3) -0.2711(2) -0.2454(3)
O6F O 0.2435(3) 0.2711(2) 0.2546(3)
O7C O 0.2268(2) -0.1058(2) -0.2249(3)
O7E O 0.2732(2) 0.6058(2) 0.2249(3)
O8A O -0.0762(3) 0.0858(3) -0.2679(3)
O8F O 0.4238(3) 0.4142(3) 0.2321(3)
C1F C 0.0761(4) 0.4768(4) 0.1392(5)
H1F H 0.0130 0.4954 0.1227
C3E C 0.2235(3) -0.0175(3) 0.0532(3)
H2E H 0.2812 0.0152 0.0789
C4C C 0.2702(4) -0.1818(3) -0.2403(3)
H3C H 0.3301 -0.1705 -0.2491
N1 N 0.5527(3) 0.3221(3) 0.9026(4)
H5 H 0.5898 0.3786 0.9059
C6 C 0.4927(8) 0.3143(9) 0.7941(5)
H6 H 0.4578 0.2513 0.7953
H7 H 0.4475 0.3694 0.7902
C7 C 0.4868(5) 0.3411(7) 0.9716(7)
H8 H 0.4486 0.4001 0.9448
H9 H 0.5220 0.3535 1.0449
H10 H 0.4472 0.2821 0.9694
C8 C 0.6135(4) 0.2332(4) 0.9404(5)
H11 H 0.6538 0.2474 1.0109
H12 H 0.6511 0.2198 0.8907
H13 H 0.5755 0.1740 0.9443
N1A N 0.4473(3) 0.3221(3) 0.5974(4)
H5A H 0.4102 0.3786 0.5941
C6A C 0.5073(8) 0.3143(9) 0.7059(5)
H6A H 0.5422 0.2513 0.7047
H7A H 0.5525 0.3694 0.7098
C7A C 0.5132(5) 0.3411(7) 0.5284(7)
H8A H 0.5514 0.4001 0.5552
H9A H 0.4780 0.3535 0.4551
H10A H 0.5528 0.2821 0.5306
C8A C 0.3865(4) 0.2332(4) 0.5596(5)
H11A H 0.3462 0.2474 0.4891
H12A H 0.3489 0.2198 0.6093
H13A H 0.4245 0.1740 0.5557
loop_
_geom_bond_atom_site_label_1
_geom_bond_atom_site_label_2
_geom_bond_site_symmetry_1
_geom_bond_site_symmetry_2
Er1 O1 1_555 1_555
O1 C1 1_555 1_555
O2 Er1 1_555 1_555
O3 Er1 1_555 1_555
O4 Er1 1_555 1_555
O5 C3 1_555 1_555
O6 Er1 1_555 1_555
O7 C4 1_555 1_555
O8 Er1 1_555 1_555
C1 O2 1_555 1_555
H1 C1 1_555 1_555
C2 O3 1_555 1_555
C3 O4 1_555 1_555
H2 C3 1_555 1_555
C4 O6 1_555 1_555
H3 C4 1_555 1_555
C5 O8 1_555 1_555
H4 C5 1_555 1_555
N1 H5 1_555 1_555
C6 N1 1_555 1_555
H6 C6 1_555 1_555
H7 C6 1_555 1_555
C7 N1 1_555 1_555
H8 C7 1_555 1_555
H9 C7 1_555 1_555
H10 C7 1_555 1_555
C8 N1 1_555 1_555
H11 C8 1_555 1_555
H12 C8 1_555 1_555
H13 C8 1_555 1_555
Er1F O1F 1_555 1_555
Er1E O5 1_555 1_555
Er1C O7 1_555 1_555
Er1A O8A 1_555 1_555
Er1E_2 O4E 1_555 1_555
Er1C_2 O6C 1_555 1_555
O1F C1F 1_555 1_555
O2F Er1F 1_555 1_555
O3F C2 1_555 1_555
O4E C3E 1_555 1_555
O4F Er1F 1_555 1_555
O5E Er1 1_555 1_555
O5C Er1F 1_555 1_555
O6C C4C 1_555 1_555
O6F Er1F 1_555 1_555
O7C Er1 1_555 1_555
O7E Er1F 1_555 1_555
O8A C5 1_555 1_555
O8F Er1F 1_555 1_555
C1F O2F 1_555 1_555
H1F C1F 1_555 1_555
C3E O5E 1_555 1_555
H2E C3E 1_555 1_555
C4C O7C 1_555 1_555
H3C C4C 1_555 1_555
N1A H5A 1_555 1_555
C6A C6 1_555 1_555
H6A C6A 1_555 1_555
H7A C6A 1_555 1_555
C7A N1A 1_555 1_555
H8A C7A 1_555 1_555
H9A C7A 1_555 1_555
H10A C7A 1_555 1_555
C8A N1A 1_555 1_555
H11A C8A 1_555 1_555
H12A C8A 1_555 1_555
H13A C8A 1_555 1_555
Er1F O3F 1_555 1_555
N1A C6A 1_555 1_555

#END
