
#######################################################################
#
#                 Cambridge Crystallographic Data Centre
#                                CCDC 
#
#######################################################################
#
# If this CIF has been generated from an entry in the Cambridge 
# Structural Database, then it will include bibliographic, chemical, 
# crystal, experimental, refinement or atomic coordinate data resulting 
# from the CCDC's data processing and validation procedures.
#
#######################################################################

data_CIDKUX
_chemical_formula_moiety         '(C56 H8 Cu4 F32 N32 O4)n'
_symmetry_cell_setting           monoclinic
_symmetry_space_group_name_H-M   'C 2/m'
_symmetry_Int_Tables_number      12
_space_group_name_Hall           '-C 2y'
loop_
_symmetry_equiv_pos_site_id
_symmetry_equiv_pos_as_xyz
1 x,y,z
2 -x,y,-z
3 1/2+x,1/2+y,z
4 1/2-x,1/2+y,-z
5 -x,-y,-z
6 x,-y,z
7 1/2-x,1/2-y,-z
8 1/2+x,1/2-y,z
_cell_length_a                   15.8991(10)
_cell_length_b                   31.5712(18)
_cell_length_c                   13.8721(8)
_cell_angle_alpha                90
_cell_angle_beta                 115.357(3)
_cell_angle_gamma                90
_cell_volume                     6292.3
loop_
_atom_site_label
_atom_site_type_symbol
_atom_site_fract_x
_atom_site_fract_y
_atom_site_fract_z
C1 C 0.3618(3) 0.09995(13) 0.3154(3)
C2 C 0.3168(4) 0.14201(15) 0.2920(4)
C3 C 0.2518(4) 0.15358(16) 0.3278(4)
C4 C 0.2093(4) 0.19291(15) 0.3049(4)
C5 C 0.2348(5) 0.22229(19) 0.2475(5)
C6 C 0.2943(8) 0.2104(2) 0.2131(7)
C7 C 0.3401(7) 0.1721(2) 0.2355(7)
C8 C 0.1044(3) 0.39641(14) 0.1809(3)
C9 C 0.1340(4) 0.35255(14) 0.1978(4)
C10 C 0.1742(4) 0.33353(16) 0.2983(4)
C11 C 0.2007(4) 0.29249(19) 0.3137(4)
C12 C 0.1954(5) 0.26614(17) 0.2303(5)
C13 C 0.1557(6) 0.28440(19) 0.1313(5)
C14 C 0.1267(6) 0.32588(19) 0.1153(5)
N1 N 0.4321(3) 0.04569(11) 0.3935(3)
N2 N 0.4237(3) 0.04440(10) 0.2945(3)
N3 N 0.3809(3) 0.07808(10) 0.2426(3)
N4 N 0.3932(3) 0.08020(11) 0.4089(3)
N5 N 0.0469(2) 0.45433(10) 0.1990(3)
N6 N 0.0572(3) 0.45460(10) 0.1101(3)
N7 N 0.0929(3) 0.41925(11) 0.0954(3)
N8 N 0.0776(3) 0.41759(11) 0.2470(3)
O1 O 0.6041(3) 0.0000 0.4227(3)
O2 O 0.3790(3) 0.0000 0.0620(3)
F1 F 0.2232(2) 0.12615(9) 0.3797(3)
F2 F 0.1441(2) 0.20198(9) 0.3391(3)
F3 F 0.3290(6) 0.23929(13) 0.1615(6)
F4 F 0.4033(5) 0.16262(12) 0.1988(5)
F5 F 0.1848(2) 0.35695(8) 0.3847(2)
F6 F 0.2420(3) 0.27788(10) 0.4151(2)
F7 F 0.1466(6) 0.26096(13) 0.0485(3)
F8 F 0.0954(4) 0.34123(11) 0.0175(3)
Cu1 Cu 0.5000 0.0000 0.5000
Cu2 Cu 0.48423(5) 0.0000 0.24330(5)
Cu3 Cu 0.5000 0.0000 0.0000
H1 H 0.6395(8) -0.02208(8) 0.436(3)
H2 H 0.3469(12) 0.02215(8) 0.035(3)
H1E H 0.6395(8) 0.02208(8) 0.436(3)
H2E H 0.3469(12) -0.02215(8) 0.035(3)
C1A C 0.6382(3) 0.09995(13) -0.3154(3)
C2A C 0.6832(4) 0.14201(15) -0.2920(4)
C3A C 0.7482(4) 0.15358(16) -0.3278(4)
C4A C 0.7907(4) 0.19291(15) -0.3049(4)
C5A C 0.7652(5) 0.22229(19) -0.2475(5)
C6A C 0.7057(8) 0.2104(2) -0.2131(7)
C7A C 0.6599(7) 0.1721(2) -0.2355(7)
C8A C 0.8956(3) 0.39641(14) -0.1809(3)
C9A C 0.8660(4) 0.35255(14) -0.1978(4)
C10A C 0.8258(4) 0.33353(16) -0.2983(4)
C11A C 0.7993(4) 0.29249(19) -0.3137(4)
C12A C 0.8046(5) 0.26614(17) -0.2303(5)
C13A C 0.8443(6) 0.28440(19) -0.1313(5)
C14A C 0.8733(6) 0.32588(19) -0.1153(5)
N1A N 0.5679(3) 0.04569(11) -0.3935(3)
N2A N 0.5763(3) 0.04440(10) -0.2945(3)
N3A N 0.6191(3) 0.07808(10) -0.2426(3)
N4A N 0.6068(3) 0.08020(11) -0.4089(3)
N5A N 0.9531(2) 0.45433(10) -0.1990(3)
N6A N 0.9428(3) 0.45460(10) -0.1101(3)
N7A N 0.9071(3) 0.41925(11) -0.0954(3)
N8A N 0.9224(3) 0.41759(11) -0.2470(3)
O1A O 0.3959(3) 0.0000 -0.4227(3)
O2A O 0.6210(3) 0.0000 -0.0620(3)
F1A F 0.7768(2) 0.12615(9) -0.3797(3)
F2A F 0.8559(2) 0.20198(9) -0.3391(3)
F3A F 0.6710(6) 0.23929(13) -0.1615(6)
F4A F 0.5967(5) 0.16262(12) -0.1988(5)
F5A F 0.8152(2) 0.35695(8) -0.3847(2)
F6A F 0.7580(3) 0.27788(10) -0.4151(2)
F7A F 0.8534(6) 0.26096(13) -0.0485(3)
F8A F 0.9046(4) 0.34123(11) -0.0175(3)
Cu2A Cu 0.51577(5) -0.0000 -0.24330(5)
H1A H 0.3605(8) -0.02208(8) -0.436(3)
H2A H 0.6531(12) 0.02215(8) -0.035(3)
H1D H 0.3605(8) 0.02208(8) -0.436(3)
H2D H 0.6531(12) -0.02215(8) -0.035(3)
C1D C 0.6382(3) -0.09995(13) -0.3154(3)
C2D C 0.6832(4) -0.14201(15) -0.2920(4)
C3D C 0.7482(4) -0.15358(16) -0.3278(4)
C4D C 0.7907(4) -0.19291(15) -0.3049(4)
C5D C 0.7652(5) -0.22229(19) -0.2475(5)
C6D C 0.7057(8) -0.2104(2) -0.2131(7)
C7D C 0.6599(7) -0.1721(2) -0.2355(7)
C8D C 0.8956(3) -0.39641(14) -0.1809(3)
C9D C 0.8660(4) -0.35255(14) -0.1978(4)
C10D C 0.8258(4) -0.33353(16) -0.2983(4)
C11D C 0.7993(4) -0.29249(19) -0.3137(4)
C12D C 0.8046(5) -0.26614(17) -0.2303(5)
C13D C 0.8443(6) -0.28440(19) -0.1313(5)
C14D C 0.8733(6) -0.32588(19) -0.1153(5)
N1D N 0.5679(3) -0.04569(11) -0.3935(3)
N2D N 0.5763(3) -0.04440(10) -0.2945(3)
N3D N 0.6191(3) -0.07808(10) -0.2426(3)
N4D N 0.6068(3) -0.08020(11) -0.4089(3)
N5D N 0.9531(2) -0.45433(10) -0.1990(3)
N6D N 0.9428(3) -0.45460(10) -0.1101(3)
N7D N 0.9071(3) -0.41925(11) -0.0954(3)
N8D N 0.9224(3) -0.41759(11) -0.2470(3)
F1D F 0.7768(2) -0.12615(9) -0.3797(3)
F2D F 0.8559(2) -0.20198(9) -0.3391(3)
F3D F 0.6710(6) -0.23929(13) -0.1615(6)
F4D F 0.5967(5) -0.16262(12) -0.1988(5)
F5D F 0.8152(2) -0.35695(8) -0.3847(2)
F6D F 0.7580(3) -0.27788(10) -0.4151(2)
F7D F 0.8534(6) -0.26096(13) -0.0485(3)
F8D F 0.9046(4) -0.34123(11) -0.0175(3)
C1E C 0.3618(3) -0.09995(13) 0.3154(3)
C2E C 0.3168(4) -0.14201(15) 0.2920(4)
C3E C 0.2518(4) -0.15358(16) 0.3278(4)
C4E C 0.2093(4) -0.19291(15) 0.3049(4)
C5E C 0.2348(5) -0.22229(19) 0.2475(5)
C6E C 0.2943(8) -0.2104(2) 0.2131(7)
C7E C 0.3401(7) -0.1721(2) 0.2355(7)
C8E C 0.1044(3) -0.39641(14) 0.1809(3)
C9E C 0.1340(4) -0.35255(14) 0.1978(4)
C10E C 0.1742(4) -0.33353(16) 0.2983(4)
C11E C 0.2007(4) -0.29249(19) 0.3137(4)
C12E C 0.1954(5) -0.26614(17) 0.2303(5)
C13E C 0.1557(6) -0.28440(19) 0.1313(5)
C14E C 0.1267(6) -0.32588(19) 0.1153(5)
N1E N 0.4321(3) -0.04569(11) 0.3935(3)
N2E N 0.4237(3) -0.04440(10) 0.2945(3)
N3E N 0.3809(3) -0.07808(10) 0.2426(3)
N4E N 0.3932(3) -0.08020(11) 0.4089(3)
N5E N 0.0469(2) -0.45433(10) 0.1990(3)
N6E N 0.0572(3) -0.45460(10) 0.1101(3)
N7E N 0.0929(3) -0.41925(11) 0.0954(3)
N8E N 0.0776(3) -0.41759(11) 0.2470(3)
F1E F 0.2232(2) -0.12615(9) 0.3797(3)
F2E F 0.1441(2) -0.20198(9) 0.3391(3)
F3E F 0.3290(6) -0.23929(13) 0.1615(6)
F4E F 0.4033(5) -0.16262(12) 0.1988(5)
F5E F 0.1848(2) -0.35695(8) 0.3847(2)
F6E F 0.2420(3) -0.27788(10) 0.4151(2)
F7E F 0.1466(6) -0.26096(13) 0.0485(3)
F8E F 0.0954(4) -0.34123(11) 0.0175(3)
N1A_2 N 0.5679(3) 0.04569(11) 0.6065(3)
N1D_2 N 0.5679(3) -0.04569(11) 0.6065(3)
N5B N 0.5469(2) -0.04567(10) 0.1990(3)
N5C N 0.4531(2) -0.04567(10) -0.1990(3)
N5F N 0.4531(2) 0.04567(10) -0.1990(3)
N5G N 0.5469(2) 0.04567(10) 0.1990(3)
N6B N 0.5572(3) -0.04540(10) 0.1101(3)
N6C N 0.4428(3) -0.04540(10) -0.1101(3)
N6F N 0.4428(3) 0.04540(10) -0.1101(3)
N6G N 0.5572(3) 0.04540(10) 0.1101(3)
O1A_2 O 0.3959(3) 0.0000 0.5773(3)
Cu1_2 Cu 0.5000 0.0000 -0.5000
Cu2B Cu -0.01577(5) -0.5000 0.24330(5)
Cu2B_2 Cu -0.01577(5) 0.5000 0.24330(5)
Cu2C Cu 1.01577(5) -0.5000 -0.24330(5)
Cu2C_2 Cu 1.01577(5) 0.5000 -0.24330(5)
Cu3B Cu 0.0000 -0.5000 0.0000
Cu3B_2 Cu 0.0000 0.5000 0.0000
Cu3B_3 Cu 1.0000 -0.5000 0.0000
Cu3B_4 Cu 1.0000 0.5000 0.0000
loop_
_geom_bond_atom_site_label_1
_geom_bond_atom_site_label_2
_geom_bond_site_symmetry_1
_geom_bond_site_symmetry_2
C1 C2 1_555 1_555
C2 C3 1_555 1_555
C3 C4 1_555 1_555
C4 C5 1_555 1_555
C5 C6 1_555 1_555
C6 C7 1_555 1_555
C7 C2 1_555 1_555
C8 C9 1_555 1_555
C9 C10 1_555 1_555
C10 C11 1_555 1_555
C11 C12 1_555 1_555
C12 C5 1_555 1_555
C13 C12 1_555 1_555
C14 C9 1_555 1_555
N1 N2 1_555 1_555
N2 N3 1_555 1_555
N3 C1 1_555 1_555
N4 C1 1_555 1_555
N5 N6 1_555 1_555
N6 N7 1_555 1_555
N7 C8 1_555 1_555
N8 C8 1_555 1_555
O1 Cu1 1_555 1_555
O2 Cu2 1_555 1_555
F1 C3 1_555 1_555
F2 C4 1_555 1_555
F3 C6 1_555 1_555
F4 C7 1_555 1_555
F5 C10 1_555 1_555
F6 C11 1_555 1_555
F7 C13 1_555 1_555
F8 C14 1_555 1_555
Cu1 N1 1_555 1_555
Cu2 N2 1_555 1_555
Cu3 O2 1_555 1_555
H1 O1 1_555 1_555
H2 O2 1_555 1_555
H1E O1 1_555 1_555
H2E O2 1_555 1_555
C1A C2A 1_555 1_555
C2A C3A 1_555 1_555
C3A C4A 1_555 1_555
C4A C5A 1_555 1_555
C5A C6A 1_555 1_555
C6A C7A 1_555 1_555
C7A C2A 1_555 1_555
C8A C9A 1_555 1_555
C9A C10A 1_555 1_555
C10A C11A 1_555 1_555
C11A C12A 1_555 1_555
C12A C5A 1_555 1_555
C13A C12A 1_555 1_555
C14A C9A 1_555 1_555
N1A N2A 1_555 1_555
N2A N3A 1_555 1_555
N3A C1A 1_555 1_555
N4A C1A 1_555 1_555
N5A N6A 1_555 1_555
N6A N7A 1_555 1_555
N7A C8A 1_555 1_555
N8A C8A 1_555 1_555
O1A Cu2A 1_555 1_555
O2A Cu3 1_555 1_555
F1A C3A 1_555 1_555
F2A C4A 1_555 1_555
F3A C6A 1_555 1_555
F4A C7A 1_555 1_555
F5A C10A 1_555 1_555
F6A C11A 1_555 1_555
F7A C13A 1_555 1_555
F8A C14A 1_555 1_555
Cu2A N2A 1_555 1_555
H1A O1A 1_555 1_555
H2A O2A 1_555 1_555
H1D O1A 1_555 1_555
H2D O2A 1_555 1_555
C1D C2D 1_555 1_555
C2D C3D 1_555 1_555
C3D C4D 1_555 1_555
C4D C5D 1_555 1_555
C5D C6D 1_555 1_555
C6D C7D 1_555 1_555
C7D C2D 1_555 1_555
C8D C9D 1_555 1_555
C9D C10D 1_555 1_555
C10D C11D 1_555 1_555
C11D C12D 1_555 1_555
C12D C5D 1_555 1_555
C13D C12D 1_555 1_555
C14D C9D 1_555 1_555
N1D N2D 1_555 1_555
N2D Cu2A 1_555 1_555
N3D C1D 1_555 1_555
N4D C1D 1_555 1_555
N5D N6D 1_555 1_555
N6D N7D 1_555 1_555
N7D C8D 1_555 1_555
N8D C8D 1_555 1_555
F1D C3D 1_555 1_555
F2D C4D 1_555 1_555
F3D C6D 1_555 1_555
F4D C7D 1_555 1_555
F5D C10D 1_555 1_555
F6D C11D 1_555 1_555
F7D C13D 1_555 1_555
F8D C14D 1_555 1_555
C1E C2E 1_555 1_555
C2E C3E 1_555 1_555
C3E C4E 1_555 1_555
C4E C5E 1_555 1_555
C5E C6E 1_555 1_555
C6E C7E 1_555 1_555
C7E C2E 1_555 1_555
C8E C9E 1_555 1_555
C9E C10E 1_555 1_555
C10E C11E 1_555 1_555
C11E C12E 1_555 1_555
C12E C5E 1_555 1_555
C13E C12E 1_555 1_555
C14E C9E 1_555 1_555
N1E Cu1 1_555 1_555
N2E Cu2 1_555 1_555
N3E C1E 1_555 1_555
N4E C1E 1_555 1_555
N5E N6E 1_555 1_555
N6E N7E 1_555 1_555
N7E C8E 1_555 1_555
N8E C8E 1_555 1_555
F1E C3E 1_555 1_555
F2E C4E 1_555 1_555
F3E C6E 1_555 1_555
F4E C7E 1_555 1_555
F5E C10E 1_555 1_555
F6E C11E 1_555 1_555
F7E C13E 1_555 1_555
F8E C14E 1_555 1_555
N1A_2 Cu1 1_555 1_555
N1D_2 Cu1 1_555 1_555
N5B Cu2 1_555 1_555
N5C Cu2A 1_555 1_555
N5F Cu2A 1_555 1_555
N5G Cu2 1_555 1_555
N6B Cu3 1_555 1_555
N6C Cu3 1_555 1_555
N6F Cu3 1_555 1_555
N6G Cu3 1_555 1_555
O1A_2 Cu1 1_555 1_555
Cu1_2 N1A 1_555 1_555
Cu2B N5E 1_555 1_555
Cu2B_2 N5 1_555 1_555
Cu2C N5D 1_555 1_555
Cu2C_2 N5A 1_555 1_555
Cu3B N6E 1_555 1_555
Cu3B_2 N6 1_555 1_555
Cu3B_3 N6D 1_555 1_555
Cu3B_4 N6A 1_555 1_555
C13 C14 1_555 1_555
N1 N4 1_555 1_555
N5 N8 1_555 1_555
O1 Cu2 1_555 1_555
C13A C14A 1_555 1_555
N1A N4A 1_555 1_555
N5A N8A 1_555 1_555
O1A Cu1_2 1_555 1_555
O2A Cu2A 1_555 1_555
C13D C14D 1_555 1_555
N1D N4D 1_555 1_555
N1D Cu1_2 1_555 1_555
N2D N3D 1_555 1_555
N5D N8D 1_555 1_555
C13E C14E 1_555 1_555
N1E N2E 1_555 1_555
N1E N4E 1_555 1_555
N2E N3E 1_555 1_555
N5E N8E 1_555 1_555
N5B N6B 1_555 1_555
N5C N6C 1_555 1_555
N5F N6F 1_555 1_555
N5G N6G 1_555 1_555

#END
