
#######################################################################
#
#                 Cambridge Crystallographic Data Centre
#                                CCDC 
#
#######################################################################
#
# If this CIF has been generated from an entry in the Cambridge 
# Structural Database, then it will include bibliographic, chemical, 
# crystal, experimental, refinement or atomic coordinate data resulting 
# from the CCDC's data processing and validation procedures.
#
#######################################################################

data_CIDLAE
_chemical_formula_moiety         'C46 Cu8 F16 N2 O14'
_symmetry_cell_setting           monoclinic
_symmetry_space_group_name_H-M   'C 2/c'
_symmetry_Int_Tables_number      15
_space_group_name_Hall           '-C 2yc'
loop_
_symmetry_equiv_pos_site_id
_symmetry_equiv_pos_as_xyz
1 x,y,z
2 -x,y,1/2-z
3 1/2+x,1/2+y,z
4 1/2-x,1/2+y,1/2-z
5 -x,-y,-z
6 x,-y,1/2+z
7 1/2-x,1/2-y,-z
8 1/2+x,1/2-y,1/2+z
_cell_length_a                   23.065(5)
_cell_length_b                   19.498(4)
_cell_length_c                   9.529(2)
_cell_angle_alpha                90
_cell_angle_beta                 94.91(3)
_cell_angle_gamma                90
_cell_volume                     4269.67
loop_
_atom_site_label
_atom_site_type_symbol
_atom_site_fract_x
_atom_site_fract_y
_atom_site_fract_z
Cu1 Cu 0.49700(5) 0.22219(4) 0.60839(11)
O1 O 0.5601(2) 0.2900(3) 0.6480(8)
O2 O 0.5611(3) 0.2962(3) 0.8786(8)
O3 O 0.9335(2) 0.6543(3) 0.6253(8)
O4 O 0.9450(3) 0.6494(3) 0.8569(8)
C1 C 0.5783(3) 0.3103(4) 0.7655(12)
C2 C 0.9216(3) 0.6346(4) 0.7387(13)
C3 C 0.6304(5) 0.3612(5) 0.7747(12)
C4 C 0.6241(4) 0.4222(5) 0.6991(10)
F1 F 0.5726(5) 0.4383(7) 0.6312(13)
C5 C 0.6712(5) 0.4663(5) 0.6941(10)
F2 F 0.6651(6) 0.5251(6) 0.6213(14)
C6 C 0.7245(4) 0.4496(5) 0.7646(12)
C7 C 0.7308(4) 0.3887(6) 0.8401(11)
F3 F 0.7823(5) 0.3725(7) 0.9081(15)
C8 C 0.6837(5) 0.3445(5) 0.8452(11)
F4 F 0.6898(6) 0.2858(6) 0.9180(15)
C9 C 0.8693(4) 0.5860(5) 0.7398(10)
C10 C 0.8700(4) 0.5217(5) 0.6769(9)
F5 F 0.9154(5) 0.5027(6) 0.6072(12)
C11 C 0.8234(4) 0.4771(4) 0.6862(8)
F6 F 0.8240(6) 0.4151(5) 0.6255(12)
C12 C 0.7763(4) 0.4968(5) 0.7584(9)
C13 C 0.7756(4) 0.5611(5) 0.8214(8)
F7 F 0.7302(4) 0.5801(6) 0.8910(12)
C14 C 0.8222(4) 0.6057(4) 0.8120(8)
F8 F 0.8216(5) 0.6676(5) 0.8727(12)
N1 N 0.4996(3) 0.2223(3) 0.3867(7)
C15 C 0.5247(10) 0.2864(8) 0.335(2)
C16 C 0.4944(13) 0.1518(6) 0.3286(9)
C17 C 0.5158(11) 0.2908(7) 0.172(2)
C18 C 0.4512(10) 0.2626(12) 0.315(2)
C19 C 0.4431(7) 0.2462(17) 0.156(2)
C20 C 0.4421(6) 0.2046(14) 0.157(2)
C21 C 0.4576(9) 0.1726(11) 0.321(2)
C22 C 0.4401(5) 0.2157(14) 0.316(2)
C23 C 0.5345(10) 0.1647(9) 0.337(2)
N1A N 0.5004(3) 0.2223(3) 0.1133(7)
C15A C 0.4753(10) 0.2864(8) 0.165(2)
C16A C 0.5056(13) 0.1518(6) 0.1714(9)
C17A C 0.4842(11) 0.2908(7) 0.328(2)
C18A C 0.5488(10) 0.2626(12) 0.185(2)
C19A C 0.5569(7) 0.2462(17) 0.344(2)
C20A C 0.5579(6) 0.2046(14) 0.343(2)
C21A C 0.5424(9) 0.1726(11) 0.179(2)
C22A C 0.5599(5) 0.2157(14) 0.184(2)
C23A C 0.4655(10) 0.1647(9) 0.163(2)
Cu1A Cu 0.50300(5) 0.22219(4) -0.10839(11)
O1A O 0.4399(2) 0.2900(3) -0.1480(8)
O2A O 0.4389(3) 0.2962(3) -0.3786(8)
O3A O 0.0665(2) 0.6543(3) -0.1253(8)
O4A O 0.0550(3) 0.6494(3) -0.3569(8)
C1A C 0.4217(3) 0.3103(4) -0.2655(12)
C2A C 0.0784(3) 0.6346(4) -0.2387(13)
C3A C 0.3696(5) 0.3612(5) -0.2747(12)
C4A C 0.3759(4) 0.4222(5) -0.1991(10)
F1A F 0.4274(5) 0.4383(7) -0.1312(13)
C5A C 0.3288(5) 0.4663(5) -0.1941(10)
F2A F 0.3349(6) 0.5251(6) -0.1213(14)
C6A C 0.2755(4) 0.4496(5) -0.2646(12)
C7A C 0.2692(4) 0.3887(6) -0.3401(11)
F3A F 0.2177(5) 0.3725(7) -0.4081(15)
C8A C 0.3163(5) 0.3445(5) -0.3452(11)
F4A F 0.3102(6) 0.2858(6) -0.4180(15)
C9A C 0.1307(4) 0.5860(5) -0.2398(10)
C10A C 0.1300(4) 0.5217(5) -0.1769(9)
F5A F 0.0846(5) 0.5027(6) -0.1072(12)
C11A C 0.1766(4) 0.4771(4) -0.1862(8)
F6A F 0.1760(6) 0.4151(5) -0.1255(12)
C12A C 0.2237(4) 0.4968(5) -0.2584(9)
C13A C 0.2244(4) 0.5611(5) -0.3214(8)
F7A F 0.2698(4) 0.5801(6) -0.3910(12)
C14A C 0.1778(4) 0.6057(4) -0.3120(8)
F8A F 0.1784(5) 0.6676(5) -0.3727(12)
Cu1_2 Cu 0.49700(5) 0.22219(4) -0.39161(11)
Cu1A_2 Cu 0.50300(5) 0.22219(4) 0.89161(11)
Cu1B Cu -0.00300(5) 0.72219(4) -0.39161(11)
Cu1B_2 Cu 0.99700(5) 0.72219(4) 0.60839(11)
Cu1C Cu 0.00300(5) 0.72219(4) -0.10839(11)
Cu1C_2 Cu 1.00300(5) 0.72219(4) 0.89161(11)
O2_2 O 0.5611(3) 0.2962(3) -0.1214(8)
O2A_2 O 0.4389(3) 0.2962(3) 0.6214(8)
O3B O 0.4335(2) 0.1543(3) 0.6253(8)
O3C O 0.5665(2) 0.1543(3) -0.1253(8)
O4B O 0.4450(3) 0.1494(3) -0.1431(8)
O4C O 0.5550(3) 0.1494(3) 0.6431(8)
loop_
_geom_bond_atom_site_label_1
_geom_bond_atom_site_label_2
_geom_bond_site_symmetry_1
_geom_bond_site_symmetry_2
Cu1 O1 1_555 1_555
O1 C1 1_555 1_555
O2 C1 1_555 1_555
O3 C2 1_555 1_555
O4 C2 1_555 1_555
C1 C3 1_555 1_555
C2 C9 1_555 1_555
C3 C4 1_555 1_555
C4 F1 1_555 1_555
C5 C4 1_555 1_555
F2 C5 1_555 1_555
C6 C5 1_555 1_555
C7 C6 1_555 1_555
F3 C7 1_555 1_555
C8 C3 1_555 1_555
F4 C8 1_555 1_555
C9 C10 1_555 1_555
C10 F5 1_555 1_555
C11 C10 1_555 1_555
F6 C11 1_555 1_555
C12 C6 1_555 1_555
C13 C12 1_555 1_555
F7 C13 1_555 1_555
C14 C9 1_555 1_555
F8 C14 1_555 1_555
N1 Cu1 1_555 1_555
C15 N1 1_555 1_555
C16 N1 1_555 1_555
C17 C15 1_555 1_555
C18 N1 1_555 1_555
C19 C18 1_555 1_555
C20 C19 1_555 1_555
C21 N1 1_555 1_555
C22 N1 1_555 1_555
C23 N1 1_555 1_555
N1A C17 1_555 1_555
C15A C17 1_555 1_555
C16A C16 1_555 1_555
C17A N1 1_555 1_555
C18A C15 1_555 1_555
C19A N1 1_555 1_555
C20A N1 1_555 1_555
C21A C23 1_555 1_555
C22A C17 1_555 1_555
C23A C16 1_555 1_555
Cu1A N1A 1_555 1_555
O1A Cu1A 1_555 1_555
O2A C1A 1_555 1_555
O3A C2A 1_555 1_555
O4A C2A 1_555 1_555
C1A O1A 1_555 1_555
C2A C9A 1_555 1_555
C3A C1A 1_555 1_555
C4A C3A 1_555 1_555
F1A C4A 1_555 1_555
C5A C4A 1_555 1_555
F2A C5A 1_555 1_555
C6A C5A 1_555 1_555
C7A C6A 1_555 1_555
F3A C7A 1_555 1_555
C8A C3A 1_555 1_555
F4A C8A 1_555 1_555
C9A C10A 1_555 1_555
C10A F5A 1_555 1_555
C11A C10A 1_555 1_555
F6A C11A 1_555 1_555
C12A C6A 1_555 1_555
C13A C12A 1_555 1_555
F7A C13A 1_555 1_555
C14A C9A 1_555 1_555
F8A C14A 1_555 1_555
Cu1_2 Cu1A 1_555 1_555
Cu1A_2 Cu1 1_555 1_555
Cu1B O4A 1_555 1_555
Cu1B_2 O3 1_555 1_555
Cu1C O3A 1_555 1_555
Cu1C_2 O4 1_555 1_555
O2_2 Cu1A 1_555 1_555
O2A_2 Cu1 1_555 1_555
O3B Cu1 1_555 1_555
O3C Cu1A 1_555 1_555
O4B Cu1A 1_555 1_555
O4C Cu1 1_555 1_555
O2 Cu1A_2 1_555 1_555
C7 C8 1_555 1_555
C11 C12 1_555 1_555
C13 C14 1_555 1_555
C15 C18 1_555 1_555
C15 C17A 1_555 1_555
C15 C19A 1_555 1_555
C15 C20A 1_555 1_555
C16 C21 1_555 1_555
C16 C22 1_555 1_555
C16 C23 1_555 1_555
C16 C20A 1_555 1_555
C17 C17A 1_555 1_555
C17 C18A 1_555 1_555
C18 C21 1_555 1_555
C18 C22 1_555 1_555
C18 C15A 1_555 1_555
C18 C17A 1_555 1_555
C19 C22 1_555 1_555
C19 N1A 1_555 1_555
C19 C15A 1_555 1_555
C19 C23A 1_555 1_555
C20 C21 1_555 1_555
C20 C22 1_555 1_555
C20 N1A 1_555 1_555
C20 C15A 1_555 1_555
C20 C16A 1_555 1_555
C20 C23A 1_555 1_555
C21 C22 1_555 1_555
C21 C23 1_555 1_555
C21 C23A 1_555 1_555
C22 C17A 1_555 1_555
C23 C16A 1_555 1_555
C23 C19A 1_555 1_555
C23 C20A 1_555 1_555
N1A C15A 1_555 1_555
N1A C16A 1_555 1_555
N1A C18A 1_555 1_555
N1A C21A 1_555 1_555
N1A C22A 1_555 1_555
N1A C23A 1_555 1_555
C15A C17A 1_555 1_555
C15A C18A 1_555 1_555
C16A C21A 1_555 1_555
C16A C22A 1_555 1_555
C16A C23A 1_555 1_555
C18A C19A 1_555 1_555
C18A C21A 1_555 1_555
C18A C22A 1_555 1_555
C19A C20A 1_555 1_555
C19A C22A 1_555 1_555
C20A C21A 1_555 1_555
C20A C22A 1_555 1_555
C21A C22A 1_555 1_555
C21A C23A 1_555 1_555
O2A Cu1_2 1_555 1_555
C7A C8A 1_555 1_555
C11A C12A 1_555 1_555
C13A C14A 1_555 1_555
Cu1B Cu1C 1_555 1_555
Cu1B_2 Cu1C_2 1_555 1_555

#END
