
#######################################################################
#
#                 Cambridge Crystallographic Data Centre
#                                CCDC 
#
#######################################################################
#
# If this CIF has been generated from an entry in the Cambridge 
# Structural Database, then it will include bibliographic, chemical, 
# crystal, experimental, refinement or atomic coordinate data resulting 
# from the CCDC's data processing and validation procedures.
#
#######################################################################

data_DICVIW
_chemical_formula_moiety         '(C24 H42 Eu1 N7 O11)n'
_symmetry_cell_setting           monoclinic
_symmetry_space_group_name_H-M   'P 21/c'
_symmetry_Int_Tables_number      14
_space_group_name_Hall           '-P 2ybc'
loop_
_symmetry_equiv_pos_site_id
_symmetry_equiv_pos_as_xyz
1 x,y,z
2 -x,1/2+y,1/2-z
3 -x,-y,-z
4 x,1/2-y,1/2+z
_cell_length_a                   16.6042(5)
_cell_length_b                   26.8003(8)
_cell_length_c                   8.0794(2)
_cell_angle_alpha                90
_cell_angle_beta                 101.191(3)
_cell_angle_gamma                90
_cell_volume                     3526.95
loop_
_atom_site_label
_atom_site_type_symbol
_atom_site_fract_x
_atom_site_fract_y
_atom_site_fract_z
C1 C 0.2802(3) -0.15301(15) 0.4571(6)
C2 C 0.2959(3) -0.09704(15) 0.4615(6)
H1 H 0.316(3) -0.0880(14) 0.360(5)
C3 C 0.2150(3) -0.06930(15) 0.4580(6)
H2 H 0.1753 -0.0795 0.3592
H3 H 0.1933 -0.0781 0.5572
C4 C 0.2271(3) -0.01329(16) 0.4538(6)
H4 H 0.2426 -0.0039 0.3483
H5 H 0.1760 0.0034 0.4601
C5 C 0.3697(3) -0.02321(16) 0.6086(7)
H6 H 0.4068 -0.0124 0.7101
H7 H 0.3941 -0.0146 0.5126
C6 C 0.3585(3) -0.07938(15) 0.6140(6)
H8 H 0.3400 -0.0884 0.7167
H9 H 0.4107 -0.0958 0.6150
C7 C 0.2881(3) 0.04966(15) 0.6595(6)
C8 C 0.2188(3) 0.12066(16) 0.6811(5)
C9 C 0.3494(3) 0.11300(16) 0.8183(6)
C10 C 0.4944(3) 0.10550(16) 0.9616(6)
H10 H 0.4889 0.0731 0.9068
H11 H 0.5077 0.1002 1.0826
C11 C 0.5625(3) 0.13432(15) 0.9069(6)
H12 H 0.5523 0.1360 0.7847
H13 H 0.6141 0.1169 0.9443
C12 C 0.4869(3) 0.21312(15) 0.9321(6)
H14 H 0.4735 0.2181 0.8110
H15 H 0.4901 0.2456 0.9858
C13 C 0.4195(3) 0.18259(16) 0.9874(6)
H16 H 0.4294 0.1808 1.1096
H17 H 0.3668 0.1987 0.9491
C14 C -0.0835(3) 0.21560(16) 0.6623(6)
C15 C 0.5695(3) 0.18717(16) 0.9787(5)
H18 H 0.584(3) 0.1849(14) 1.102(5)
C16 C 0.1488(3) 0.20120(15) 0.6743(6)
H19 H 0.1539 0.2190 0.5723
H20 H 0.1957 0.2098 0.7613
C17 C 0.0706(3) 0.21711(16) 0.7295(6)
H21 H 0.0700 0.2532 0.7388
H22 H 0.0700 0.2033 0.8402
C18 C -0.0013(3) 0.14344(16) 0.5844(6)
H23 H -0.0036 0.1270 0.6903
H24 H -0.0482 0.1324 0.5013
C19 C 0.0766(3) 0.12885(18) 0.5277(7)
H25 H 0.0798 0.0928 0.5219
H26 H 0.0757 0.1420 0.4155
C20 C -0.0059(3) 0.20020(16) 0.6075(6)
H27 H -0.006(3) 0.2159(14) 0.498(5)
C21 C 0.6362(3) 0.21506(15) 0.9171(6)
Eu1 Eu 0.227339(14) -0.255672(7) 0.21500(2)
N1 N 0.2910(2) 0.00259(13) 0.5952(5)
N2 N 0.2174(2) 0.07485(13) 0.6139(5)
N3 N 0.3558(2) 0.06589(12) 0.7635(5)
N4 N 0.2832(3) 0.14235(12) 0.7821(6)
N5 N 0.1489(2) 0.14772(14) 0.6427(5)
N6 N 0.4173(2) 0.13258(13) 0.9180(5)
O1 O 0.2568(2) -0.17195(10) 0.3117(3)
O2 O -0.0895(2) 0.21196(12) 0.8135(4)
O3 O 0.1504(2) -0.33117(11) 0.2661(4)
O4 O -0.14355(17) 0.23376(10) 0.5575(3)
O5 O 0.70888(18) 0.21602(10) 1.0111(3)
O6 O 0.62392(18) 0.23472(10) 0.7758(3)
O7 O 0.28665(19) -0.17605(10) 0.5935(4)
Eu1A Eu -0.227339(14) 0.244328(7) 0.28500(2)
Eu1A_2 Eu 0.772661(14) 0.244328(7) 1.28500(2)
Eu1B Eu -0.227339(14) 0.255672(7) 0.78500(2)
Eu1B_2 Eu 0.772661(14) 0.255672(7) 0.78500(2)
Eu1C Eu 0.227339(14) -0.244328(7) 0.71500(2)
O2B O 0.0895(2) -0.21196(12) 0.1865(4)
O4A O 0.14355(17) -0.26624(10) -0.0575(3)
O4B O 0.14355(17) -0.23376(10) 0.4425(3)
O5A O 0.29112(18) -0.28398(10) 0.4889(3)
O5B O 0.29112(18) -0.21602(10) -0.0111(3)
O6B O 0.37608(18) -0.23472(10) 0.2242(3)
O7C O 0.28665(19) -0.32395(10) 0.0935(4)
C22 C 0.3686(16) 0.1626(11) 0.4215(17)
H28 H 0.4110 0.1392 0.4656
H29 H 0.3435 0.1746 0.5113
H30 H 0.3920 0.1902 0.3714
C23 C 0.2522(19) 0.1757(8) 0.261(3)
H31 H 0.1998 0.1628 0.2733
H32 H 0.2496 0.1860 0.1458
H33 H 0.2663 0.2038 0.3342
O8 O 0.3512(9) 0.0694(4) 0.2539(13)
N7 N 0.3103(10) 0.1396(3) 0.3012(15)
C24 C 0.308(2) 0.1083(7) 0.261(3)
H34 H 0.2545 0.1021 0.2031
O9 O 0.0097(2) 0.66586(13) 0.3967(4)
O10 O 0.2155(3) 0.60278(14) 0.5216(5)
O11 O 0.3303(5) 0.51526(19) 0.5432(7)
loop_
_geom_bond_atom_site_label_1
_geom_bond_atom_site_label_2
_geom_bond_site_symmetry_1
_geom_bond_site_symmetry_2
C1 C2 1_555 1_555
C2 H1 1_555 1_555
C3 C2 1_555 1_555
H2 C3 1_555 1_555
H3 C3 1_555 1_555
C4 C3 1_555 1_555
H4 C4 1_555 1_555
H5 C4 1_555 1_555
C5 H6 1_555 1_555
H7 C5 1_555 1_555
C6 C2 1_555 1_555
H8 C6 1_555 1_555
H9 C6 1_555 1_555
C7 N1 1_555 1_555
C8 N2 1_555 1_555
C9 N3 1_555 1_555
C10 H10 1_555 1_555
H11 C10 1_555 1_555
C11 C10 1_555 1_555
H12 C11 1_555 1_555
H13 C11 1_555 1_555
C12 H14 1_555 1_555
H15 C12 1_555 1_555
C13 C12 1_555 1_555
H16 C13 1_555 1_555
H17 C13 1_555 1_555
C14 C20 1_555 1_555
C15 C11 1_555 1_555
H18 C15 1_555 1_555
C16 H19 1_555 1_555
H20 C16 1_555 1_555
C17 C16 1_555 1_555
H21 C17 1_555 1_555
H22 C17 1_555 1_555
C18 H23 1_555 1_555
H24 C18 1_555 1_555
C19 C18 1_555 1_555
H25 C19 1_555 1_555
H26 C19 1_555 1_555
C20 C17 1_555 1_555
H27 C20 1_555 1_555
C21 C15 1_555 1_555
Eu1 O1 1_555 1_555
N1 C4 1_555 1_555
N2 C7 1_555 1_555
N3 C7 1_555 1_555
N4 C8 1_555 1_555
N5 C8 1_555 1_555
N6 C9 1_555 1_555
O1 C1 1_555 1_555
O2 C14 1_555 1_555
O3 Eu1 1_555 1_555
O4 C14 1_555 1_555
O5 C21 1_555 1_555
O6 C21 1_555 1_555
O7 C1 1_555 1_555
C22 H28 1_555 1_555
H29 C22 1_555 1_555
H30 C22 1_555 1_555
C23 H31 1_555 1_555
H32 C23 1_555 1_555
H33 C23 1_555 1_555
O8 C24 1_555 1_555
N7 C22 1_555 1_555
C24 N7 1_555 1_555
H34 C24 1_555 1_555
Eu1A O4 1_555 1_555
Eu1A_2 O5 1_555 1_555
Eu1B O2 1_555 1_555
Eu1B_2 O5 1_555 1_555
Eu1C O7 1_555 1_555
O2B Eu1 1_555 1_555
O4A Eu1 1_555 1_555
O4B Eu1 1_555 1_555
O5A Eu1 1_555 1_555
O5B Eu1 1_555 1_555
O6B Eu1 1_555 1_555
O7C Eu1 1_555 1_555
C5 C6 1_555 1_555
C5 N1 1_555 1_555
C9 N4 1_555 1_555
C10 N6 1_555 1_555
C12 C15 1_555 1_555
C13 N6 1_555 1_555
C16 N5 1_555 1_555
C18 C20 1_555 1_555
C19 N5 1_555 1_555
O4 Eu1B 1_555 1_555
O6 Eu1B_2 1_555 1_555
C23 N7 1_555 1_555
Eu1C O4B 1_555 1_555
Eu1C O5A 1_555 1_555

#END
