
#######################################################################
#
#                 Cambridge Crystallographic Data Centre
#                                CCDC 
#
#######################################################################
#
# If this CIF has been generated from an entry in the Cambridge 
# Structural Database, then it will include bibliographic, chemical, 
# crystal, experimental, refinement or atomic coordinate data resulting 
# from the CCDC's data processing and validation procedures.
#
#######################################################################

data_EPECOT
_chemical_formula_moiety         '(C147 H107 N5 O31 Zn8)n'
_symmetry_cell_setting           monoclinic
_symmetry_space_group_name_H-M   'P 21'
_symmetry_Int_Tables_number      4
_space_group_name_Hall           'P 2yb'
loop_
_symmetry_equiv_pos_site_id
_symmetry_equiv_pos_as_xyz
1 x,y,z
2 -x,1/2+y,-z
_cell_length_a                   23.310(2)
_cell_length_b                   15.3407(15)
_cell_length_c                   23.684(2)
_cell_angle_alpha                90
_cell_angle_beta                 113.845(3)
_cell_angle_gamma                90
_cell_volume                     7746.29
loop_
_atom_site_label
_atom_site_type_symbol
_atom_site_fract_x
_atom_site_fract_y
_atom_site_fract_z
O1 O 0.3473(3) 0.7845(5) 0.5870(3)
Zn1 Zn 0.34135(5) 0.82552(8) 0.50787(5)
Zn2 Zn 0.39112(5) 0.87092(8) 0.64768(5)
Zn3 Zn 0.83008(6) 0.79245(8) 1.00899(6)
Zn4 Zn 0.39979(5) 0.67299(8) 0.60785(5)
Zn5 Zn 0.26504(6) 0.76562(9) 0.58576(6)
O2 O 0.3312(6) 0.6185(7) 0.5215(4)
C1 C 0.2777(12) 0.5923(17) 0.5026(14)
H1 H 0.2477 0.6337 0.4780
N1 N 0.2523(11) 0.5168(15) 0.5094(14)
C2 C 0.3001(8) 0.4535(11) 0.5476(8)
H2 H 0.2793 0.3999 0.5520
H3 H 0.3239 0.4786 0.5885
H4 H 0.3286 0.4399 0.5278
C3 C 0.1914(14) 0.484(3) 0.493(2)
H5 H 0.1940 0.4242 0.5092
H6 H 0.1689 0.4834 0.4484
H7 H 0.1690 0.5208 0.5115
O3 O 0.4586(5) 0.5661(6) 0.6114(5)
C4 C 0.4519(7) 0.5109(10) 0.5738(7)
H8 H 0.4122 0.5096 0.5399
N2 N 0.4926(5) 0.4515(7) 0.5731(5)
C5 C 0.5580(7) 0.4483(11) 0.6166(7)
H9 H 0.5787 0.3985 0.6068
H10 H 0.5604 0.4421 0.6586
H11 H 0.5791 0.5023 0.6135
C6 C 0.4750(9) 0.3850(11) 0.5276(8)
H12 H 0.5111 0.3472 0.5345
H13 H 0.4608 0.4115 0.4865
H14 H 0.4409 0.3503 0.5303
O4 O 0.8117(9) 0.8812(13) 0.9454(6)
C7 C 0.7797(6) 0.8758(11) 0.8913(5)
H15 H 0.7671 0.8165 0.8848
N3 N 0.7538(7) 0.9117(9) 0.8373(5)
C8 C 0.7918(19) 0.995(2) 0.8420(19)
H16 H 0.7746 1.0256 0.8024
H17 H 0.8356 0.9794 0.8521
H18 H 0.7893 1.0323 0.8744
C9 C 0.7203(18) 0.885(2) 0.7776(10)
H19 H 0.7092 0.9365 0.7504
H20 H 0.6819 0.8559 0.7747
H21 H 0.7457 0.8453 0.7652
O5 O 0.5499(4) 1.2406(6) 0.4406(4)
O6 O 0.6169(4) 1.2640(6) 0.5381(4)
O7 O 0.4176(4) 0.9739(5) 0.6138(4)
O8 O 0.3743(4) 0.9453(5) 0.5126(3)
C10 C 0.5298(5) 1.1675(8) 0.5191(5)
C11 C 0.4660(5) 1.1606(8) 0.4807(5)
H22 H 0.4486 1.1966 0.4451
C12 C 0.4277(6) 1.1019(8) 0.4938(6)
H23 H 0.3849 1.0958 0.4663
C13 C 0.4527(6) 1.0513(8) 0.5483(5)
C14 C 0.5169(5) 1.0583(7) 0.5870(5)
C15 C 0.5555(6) 1.1160(8) 0.5727(5)
C16 C 0.6237(6) 1.1128(9) 0.6189(6)
H24 H 0.6512 1.1540 0.6084
C17 C 0.5532(5) 1.0042(8) 0.6456(5)
H25 H 0.5259 0.9628 0.6561
C18 C 0.6428(5) 1.0171(8) 0.6188(5)
C19 C 0.6032(5) 0.9596(8) 0.6327(5)
C20 C 0.6145(6) 0.8694(9) 0.6339(5)
H26 H 0.5883 0.8301 0.6436
C21 C 0.6624(7) 0.8382(10) 0.6215(6)
H27 H 0.6693 0.7771 0.6223
C22 C 0.7021(7) 0.8952(10) 0.6073(7)
H28 H 0.7350 0.8726 0.5978
C23 C 0.6928(6) 0.9858(10) 0.6073(6)
H29 H 0.7204 1.0249 0.5996
C24 C 0.6243(6) 1.1292(9) 0.6821(6)
C25 C 0.5848(6) 1.0697(9) 0.6954(6)
C26 C 0.5783(8) 1.0782(12) 0.7516(7)
H30 H 0.5518 1.0403 0.7621
C27 C 0.6134(9) 1.1467(13) 0.7927(8)
H31 H 0.6107 1.1530 0.8315
C28 C 0.6497(10) 1.2016(12) 0.7780(8)
H32 H 0.6714 1.2463 0.8064
C29 C 0.6566(7) 1.1954(10) 0.7226(7)
H33 H 0.6825 1.2350 0.7127
C30 C 0.5699(6) 1.2296(8) 0.4988(5)
C31 C 0.4125(5) 0.9844(7) 0.5607(5)
O9 O 0.4696(4) 0.8390(6) 0.7152(4)
O10 O 0.4708(3) 0.6980(6) 0.6923(4)
C32 C 0.5429(4) 0.7504(7) 0.7896(4)
C33 C 0.5438(5) 0.8070(8) 0.8364(5)
H34 H 0.5123 0.8505 0.8274
C34 C 0.5899(5) 0.8003(9) 0.8956(5)
H35 H 0.5885 0.8375 0.9271
C35 C 0.6380(4) 0.7409(7) 0.9098(4)
C36 C 0.6384(4) 0.6833(7) 0.8635(4)
C37 C 0.5896(4) 0.6872(7) 0.8043(4)
C38 C 0.5967(4) 0.6188(7) 0.7599(4)
H36 H 0.5623 0.6211 0.7175
C39 C 0.6877(5) 0.6119(7) 0.8700(5)
H37 H 0.7222 0.6092 0.9122
C40 C 0.6012(5) 0.5313(7) 0.7922(5)
C41 C 0.6494(5) 0.5291(7) 0.8519(5)
C42 C 0.6589(6) 0.4522(8) 0.8878(6)
H38 H 0.6913 0.4491 0.9282
C43 C 0.6203(6) 0.3826(9) 0.8629(6)
H39 H 0.6270 0.3304 0.8864
C44 C 0.5726(6) 0.3853(8) 0.8059(6)
H40 H 0.5460 0.3360 0.7912
C45 C 0.5623(5) 0.4580(8) 0.7692(6)
H41 H 0.5295 0.4587 0.7290
C46 C 0.6618(5) 0.6309(7) 0.7604(4)
C47 C 0.7111(4) 0.6287(7) 0.8197(5)
C48 C 0.7730(5) 0.6380(8) 0.8273(5)
H42 H 0.8058 0.6383 0.8675
C49 C 0.7870(5) 0.6470(8) 0.7754(6)
H43 H 0.8294 0.6506 0.7800
C50 C 0.7373(5) 0.6508(8) 0.7159(5)
H44 H 0.7462 0.6582 0.6804
C51 C 0.6752(5) 0.6435(8) 0.7095(5)
H45 H 0.6420 0.6473 0.6697
C52 C 0.4896(4) 0.7623(7) 0.7262(4)
O11 O 0.6789(3) 0.7750(6) 1.0167(3)
C53 C 0.6920(5) 0.7455(9) 0.9730(5)
O12 O 0.7442(4) 0.7152(9) 0.9808(4)
O13 O 0.3512(4) 0.6122(6) 0.6528(4)
O14 O 0.2507(4) 0.6492(7) 0.6117(5)
C54 C 0.2797(6) 0.5339(9) 0.6824(6)
C55 C 0.2186(6) 0.5317(10) 0.6788(6)
H46 H 0.1878 0.5679 0.6496
C56 C 0.2018(6) 0.4802(12) 0.7151(7)
H47 H 0.1598 0.4819 0.7118
C57 C 0.2461(6) 0.4224(12) 0.7591(7)
C58 C 0.3064(6) 0.4196(10) 0.7601(6)
C59 C 0.3237(5) 0.4765(9) 0.7217(6)
C60 C 0.3937(6) 0.4657(9) 0.7339(6)
H48 H 0.4072 0.5062 0.7086
C61 C 0.3604(6) 0.3586(11) 0.7997(7)
H49 H 0.3476 0.3176 0.8253
C62 C 0.4290(6) 0.4801(9) 0.8020(7)
C63 C 0.4112(6) 0.4231(12) 0.8392(7)
C64 C 0.4390(7) 0.4299(15) 0.9048(7)
H50 H 0.4283 0.3914 0.9305
C65 C 0.4817(8) 0.4948(16) 0.9284(9)
H51 H 0.5010 0.5009 0.9720
C66 C 0.4985(8) 0.5509(15) 0.8943(10)
H52 H 0.5288 0.5945 0.9146
C67 C 0.4727(7) 0.5473(12) 0.8297(8)
H53 H 0.4841 0.5880 0.8058
C68 C 0.4009(6) 0.3702(10) 0.7206(7)
C69 C 0.3829(7) 0.3128(11) 0.7581(8)
C70 C 0.3893(10) 0.2213(12) 0.7510(13)
H54 H 0.3781 0.1811 0.7753
C71 C 0.4116(11) 0.1914(14) 0.7092(14)
H55 H 0.4148 0.1303 0.7045
C72 C 0.4297(11) 0.2479(15) 0.6739(12)
H56 H 0.4464 0.2259 0.6462
C73 C 0.4230(8) 0.3389(12) 0.6794(9)
H57 H 0.4340 0.3781 0.6543
C74 C 0.2963(6) 0.6028(8) 0.6456(5)
O15 O -0.0492(4) 0.8642(7) 0.2056(4)
O16 O -0.0373(4) 0.7227(7) 0.2078(4)
O17 O 0.1974(5) 0.7913(8) 0.5056(5)
O18 O 0.2545(4) 0.8411(7) 0.4485(4)
C75 C 0.0386(7) 0.8074(11) 0.2849(7)
C76 C 0.0454(7) 0.7539(13) 0.3358(7)
H58 H 0.0140 0.7120 0.3323
C77 C 0.0982(6) 0.7626(11) 0.3914(6)
H59 H 0.1021 0.7269 0.4256
C78 C 0.1451(7) 0.8226(11) 0.3976(7)
C79 C 0.1370(7) 0.8759(11) 0.3465(7)
C80 C 0.0847(6) 0.8688(11) 0.2901(7)
C81 C 0.0820(6) 0.9380(10) 0.2419(6)
H60 H 0.0431 0.9339 0.2029
C82 C 0.1831(8) 0.9476(13) 0.3449(9)
H61 H 0.2220 0.9523 0.3838
C83 C 0.1424(6) 0.9248(10) 0.2316(8)
C84 C 0.1954(6) 0.9301(10) 0.2876(9)
C85 C 0.2546(7) 0.9227(11) 0.2881(10)
H62 H 0.2910 0.9264 0.3256
C86 C 0.2588(7) 0.9107(10) 0.2368(10)
H63 H 0.2998 0.9059 0.2378
C87 C 0.2062(9) 0.9037(11) 0.1761(11)
H64 H 0.2139 0.8943 0.1401
C88 C 0.1433(7) 0.9109(10) 0.1716(10)
H65 H 0.1069 0.9071 0.1341
C89 C 0.0891(7) 1.0255(10) 0.2737(6)
C90 C 0.1439(8) 1.0291(12) 0.3285(8)
C91 C 0.1549(10) 1.1131(15) 0.3615(8)
H66 H 0.1904 1.1189 0.3995
C92 C 0.1180(14) 1.1786(15) 0.3404(11)
H67 H 0.1278 1.2327 0.3617
C93 C 0.0620(12) 1.1703(15) 0.2845(11)
H68 H 0.0340 1.2181 0.2700
C94 C 0.0494(9) 1.0948(12) 0.2532(8)
H69 H 0.0125 1.0896 0.2162
C95 C -0.0210(5) 0.7967(10) 0.2275(5)
C96 C 0.2046(6) 0.8206(11) 0.4561(6)
O19 O 0.2496(5) 0.8465(10) 0.6439(5)
O20 O 0.3396(5) 0.9169(7) 0.6879(5)
O21 O 0.9203(5) 0.6364(6) 1.0774(4)
O22 O 0.8698(4) 0.6938(5) 0.9829(4)
C97 C 0.9413(6) 0.5805(7) 0.9949(6)
C98 C 0.9625(5) 0.6094(7) 0.9519(5)
H70 H 0.9495 0.6648 0.9332
C99 C 1.0027(5) 0.5591(7) 0.9354(5)
H71 H 1.0189 0.5822 0.9076
C100 C 1.0196(5) 0.4765(8) 0.9584(5)
C101 C 0.9949(6) 0.4418(8) 0.9981(6)
C102 C 0.9565(6) 0.4938(8) 1.0169(7)
C103 C 0.9327(8) 0.4483(10) 1.0600(8)
H72 H 0.9062 0.4866 1.0739
C104 C 1.0016(6) 0.3491(8) 1.0246(7)
H73 H 1.0283 0.3109 1.0109
C105 C 0.8964(8) 0.3673(11) 1.0218(9)
C106 C 0.9329(7) 0.3152(10) 1.0026(8)
C107 C 0.9078(8) 0.2424(11) 0.9693(11)
H74 H 0.9333 0.2057 0.9568
C108 C 0.8456(10) 0.2207(14) 0.9532(16)
H75 H 0.8268 0.1719 0.9278
C109 C 0.8103(10) 0.2771(17) 0.9777(15)
H76 H 0.7688 0.2608 0.9711
C110 C 0.8335(9) 0.3491(13) 1.0082(11)
H77 H 0.8086 0.3872 1.0205
C111 C 0.9900(9) 0.4135(10) 1.1127(7)
C112 C 1.0280(7) 0.3603(8) 1.0944(7)
C113 C 1.0838(8) 0.3243(10) 1.1364(7)
H78 H 1.1088 0.2883 1.1227
C114 C 1.1025(11) 0.3427(11) 1.2001(8)
H79 H 1.1406 0.3201 1.2298
C115 C 1.0648(12) 0.3932(11) 1.2177(8)
H80 H 1.0766 0.4040 1.2605
C116 C 1.0097(11) 0.4296(11) 1.1758(9)
H81 H 0.9852 0.4657 1.1900
C117 C 0.9079(5) 0.6406(7) 1.0211(6)
O23 O 0.8354(3) 0.7896(5) 1.0930(3)
Zn6 Zn 0.75356(5) 0.76830(9) 1.09287(5)
Zn7 Zn 0.88889(6) 0.69359(9) 1.13346(6)
Zn8 Zn 0.86724(6) 0.90010(9) 1.13700(6)
O24 O 0.7792(9) 0.9558(13) 1.0784(12)
C118 C 0.7587(13) 0.9917(19) 1.0304(13)
H82 H 0.7902 1.0040 1.0157
N4 N 0.7031(9) 1.0189(14) 0.9920(11)
C119 C 0.6478(15) 1.010(3) 1.0062(19)
H83 H 0.6115 1.0364 0.9728
H84 H 0.6553 1.0405 1.0450
H85 H 0.6396 0.9486 1.0102
C120 C 0.6889(15) 1.062(2) 0.9363(12)
H86 H 0.6443 1.0772 0.9181
H87 H 0.6984 1.0240 0.9080
H88 H 0.7141 1.1154 0.9437
O25 O 0.1477(4) 1.0990(6) 0.8355(4)
O26 O 0.2469(4) 1.1451(7) 0.8791(4)
C121 C 0.2865(6) 0.8972(10) 0.6834(6)
C122 C 0.2643(5) 0.9392(12) 0.7280(6)
C123 C 0.2028(7) 0.9336(15) 0.7222(8)
C124 C 0.1829(6) 0.9815(14) 0.7613(8)
C125 C 0.2250(5) 1.0338(11) 0.8077(6)
C126 C 0.2885(7) 1.0148(17) 0.8246(8)
C127 C 0.3088(7) 0.9737(17) 0.7838(8)
C128 C 0.2047(6) 1.0959(8) 0.8451(5)
C129 C 0.1553(10) 0.8519(16) 0.6934(10)
C130 C 0.1231(10) 0.9399(16) 0.7677(10)
C131 C 0.0739(12) 0.945(2) 0.7015(10)
C132 C 0.0935(12) 0.898(2) 0.6610(10)
C133 C 0.0551(19) 0.903(3) 0.5948(12)
C134 C 0.014(3) 0.971(4) 0.5799(18)
C135 C -0.006(2) 1.019(3) 0.6180(14)
C136 C 0.0241(17) 1.006(3) 0.6797(13)
H89 H 0.0120 1.0379 0.7077
H90 H -0.0392 1.0600 0.6016
H91 H -0.0041 0.9872 0.5376
H92 H 0.0586 0.8643 0.5653
C137 C 0.1272(16) 0.8428(16) 0.7815(12)
C138 C 0.1457(15) 0.7936(16) 0.7408(13)
C139 C 0.1162(16) 0.801(2) 0.8274(14)
C140 C 0.1461(19) 0.7039(16) 0.7457(15)
C141 C 0.134(2) 0.6618(18) 0.7934(16)
C142 C 0.116(2) 0.711(2) 0.8323(15)
H93 H 0.1082 0.8348 0.8569
H94 H 0.1049 0.6841 0.8622
H95 H 0.1372 0.6003 0.7982
H96 H 0.1548 0.6694 0.7168
H97 H 0.1103 0.9738 0.7968
H98 H 0.1671 0.8174 0.6639
C143 C 1.0682(5) 0.4292(8) 0.9422(6)
O27 O 1.0802(12) 0.3491(12) 0.9528(13)
O28 O 1.0824(13) 0.4602(16) 0.9006(11)
C144 C 0.2258(7) 0.3789(13) 0.8048(8)
O29 O 0.2701(11) 0.347(3) 0.8515(16)
O30 O 0.1765(10) 0.4170(19) 0.8071(11)
Zn1A Zn 0.65865(5) 1.32552(8) 0.49213(5)
Zn3A Zn 1.16992(6) 0.29245(8) 0.99101(6)
Zn4A Zn 0.60021(5) 1.17299(8) 0.39215(5)
O5A O 0.4501(4) 0.7406(6) 0.5594(4)
O6A O 0.3831(4) 0.7640(6) 0.4619(4)
O15_2 O 0.9508(4) 0.8642(7) 1.2056(4)
O16_2 O 0.9627(4) 0.7227(7) 1.2078(4)
Zn6A Zn 0.24644(5) 0.26830(9) 0.90713(5)
Zn6A_2 Zn 0.24644(5) 1.26830(9) 0.90713(5)
Zn7_2 Zn -0.11111(6) 0.69359(9) 0.13346(6)
Zn7A Zn 0.11111(6) 1.19359(9) 0.86654(6)
Zn8_2 Zn -0.13276(6) 0.90010(9) 0.13700(6)
Zn8A Zn 0.13276(6) 0.40010(9) 0.86300(6)
Zn8A_2 Zn 1.13276(6) 0.40010(9) 0.86300(6)
O25A O 0.8523(4) 0.5990(6) 1.1645(4)
O26A O 0.7531(4) 0.6451(7) 1.1209(4)
O27A O 0.9198(12) 0.8491(12) 1.0472(13)
O28A O 0.9176(13) 0.9602(16) 1.0994(11)
O29A O 0.7299(11) 0.847(3) 1.1485(16)
O30A O 0.8235(10) 0.9170(19) 1.1929(11)
O31 O 0.8437(15) 0.078(2) 0.6527(14)
C145 C 0.8757(14) 0.0948(16) 0.7045(12)
H99 H 0.9159 0.0681 0.7202
N5 N 0.8644(10) 0.1455(15) 0.7448(10)
C146 C 0.8005(13) 0.178(2) 0.719(2)
H100 H 0.7941 0.2174 0.7484
H101 H 0.7711 0.1294 0.7094
H102 H 0.7931 0.2105 0.6806
C147 C 0.9055(14) 0.164(2) 0.8058(12)
H103 H 0.8856 0.2047 0.8240
H104 H 0.9441 0.1898 0.8062
H105 H 0.9157 0.1097 0.8299
loop_
_geom_bond_atom_site_label_1
_geom_bond_atom_site_label_2
_geom_bond_site_symmetry_1
_geom_bond_site_symmetry_2
O1 Zn1 1_555 1_555
Zn1 O8 1_555 1_555
Zn2 O1 1_555 1_555
Zn3 O4 1_555 1_555
Zn4 O1 1_555 1_555
Zn5 O1 1_555 1_555
O2 Zn4 1_555 1_555
C1 O2 1_555 1_555
H1 C1 1_555 1_555
N1 C1 1_555 1_555
C2 N1 1_555 1_555
H2 C2 1_555 1_555
H3 C2 1_555 1_555
H4 C2 1_555 1_555
C3 N1 1_555 1_555
H5 C3 1_555 1_555
H6 C3 1_555 1_555
H7 C3 1_555 1_555
O3 Zn4 1_555 1_555
C4 O3 1_555 1_555
H8 C4 1_555 1_555
N2 C4 1_555 1_555
C5 N2 1_555 1_555
H9 C5 1_555 1_555
H10 C5 1_555 1_555
H11 C5 1_555 1_555
C6 N2 1_555 1_555
H12 C6 1_555 1_555
H13 C6 1_555 1_555
H14 C6 1_555 1_555
O4 C7 1_555 1_555
C7 H15 1_555 1_555
N3 C7 1_555 1_555
C8 N3 1_555 1_555
H16 C8 1_555 1_555
H17 C8 1_555 1_555
H18 C8 1_555 1_555
C9 N3 1_555 1_555
H19 C9 1_555 1_555
H20 C9 1_555 1_555
H21 C9 1_555 1_555
O5 C30 1_555 1_555
O6 C30 1_555 1_555
O7 Zn2 1_555 1_555
O8 C31 1_555 1_555
C10 C11 1_555 1_555
C11 H22 1_555 1_555
C12 C11 1_555 1_555
H23 C12 1_555 1_555
C13 C12 1_555 1_555
C14 C13 1_555 1_555
C15 C10 1_555 1_555
C16 C15 1_555 1_555
H24 C16 1_555 1_555
C17 C14 1_555 1_555
H25 C17 1_555 1_555
C18 C16 1_555 1_555
C19 C17 1_555 1_555
C20 C19 1_555 1_555
H26 C20 1_555 1_555
C21 C20 1_555 1_555
H27 C21 1_555 1_555
C22 C21 1_555 1_555
H28 C22 1_555 1_555
C23 C18 1_555 1_555
H29 C23 1_555 1_555
C24 C16 1_555 1_555
C25 C17 1_555 1_555
C26 C25 1_555 1_555
H30 C26 1_555 1_555
C27 C26 1_555 1_555
H31 C27 1_555 1_555
C28 C27 1_555 1_555
H32 C28 1_555 1_555
C29 C24 1_555 1_555
H33 C29 1_555 1_555
C30 C10 1_555 1_555
C31 O7 1_555 1_555
O9 Zn2 1_555 1_555
O10 Zn4 1_555 1_555
C32 C33 1_555 1_555
C33 H34 1_555 1_555
C34 C33 1_555 1_555
H35 C34 1_555 1_555
C35 C34 1_555 1_555
C36 C35 1_555 1_555
C37 C32 1_555 1_555
C38 C37 1_555 1_555
H36 C38 1_555 1_555
C39 C36 1_555 1_555
H37 C39 1_555 1_555
C40 C38 1_555 1_555
C41 C39 1_555 1_555
C42 C41 1_555 1_555
H38 C42 1_555 1_555
C43 C42 1_555 1_555
H39 C43 1_555 1_555
C44 C43 1_555 1_555
H40 C44 1_555 1_555
C45 C40 1_555 1_555
H41 C45 1_555 1_555
C46 C38 1_555 1_555
C47 C39 1_555 1_555
C48 C47 1_555 1_555
H42 C48 1_555 1_555
C49 C48 1_555 1_555
H43 C49 1_555 1_555
C50 C49 1_555 1_555
H44 C50 1_555 1_555
C51 C46 1_555 1_555
H45 C51 1_555 1_555
C52 O9 1_555 1_555
O11 C53 1_555 1_555
C53 C35 1_555 1_555
O12 Zn3 1_555 1_555
O13 Zn4 1_555 1_555
O14 Zn5 1_555 1_555
C54 C55 1_555 1_555
C55 H46 1_555 1_555
C56 C55 1_555 1_555
H47 C56 1_555 1_555
C57 C56 1_555 1_555
C58 C57 1_555 1_555
C59 C54 1_555 1_555
C60 C59 1_555 1_555
H48 C60 1_555 1_555
C61 C58 1_555 1_555
H49 C61 1_555 1_555
C62 C60 1_555 1_555
C63 C61 1_555 1_555
C64 C63 1_555 1_555
H50 C64 1_555 1_555
C65 C64 1_555 1_555
H51 C65 1_555 1_555
C66 C65 1_555 1_555
H52 C66 1_555 1_555
C67 C62 1_555 1_555
H53 C67 1_555 1_555
C68 C60 1_555 1_555
C69 C61 1_555 1_555
C70 C69 1_555 1_555
H54 C70 1_555 1_555
C71 C70 1_555 1_555
H55 C71 1_555 1_555
C72 C71 1_555 1_555
H56 C72 1_555 1_555
C73 C68 1_555 1_555
H57 C73 1_555 1_555
C74 O13 1_555 1_555
O15 C95 1_555 1_555
O16 C95 1_555 1_555
O17 Zn5 1_555 1_555
O18 Zn1 1_555 1_555
C75 C76 1_555 1_555
C76 H58 1_555 1_555
C77 C76 1_555 1_555
H59 C77 1_555 1_555
C78 C77 1_555 1_555
C79 C78 1_555 1_555
C80 C75 1_555 1_555
C81 C80 1_555 1_555
H60 C81 1_555 1_555
C82 C79 1_555 1_555
H61 C82 1_555 1_555
C83 C81 1_555 1_555
C84 C82 1_555 1_555
C85 C84 1_555 1_555
H62 C85 1_555 1_555
C86 C85 1_555 1_555
H63 C86 1_555 1_555
C87 C86 1_555 1_555
H64 C87 1_555 1_555
C88 C83 1_555 1_555
H65 C88 1_555 1_555
C89 C81 1_555 1_555
C90 C82 1_555 1_555
C91 C90 1_555 1_555
H66 C91 1_555 1_555
C92 C91 1_555 1_555
H67 C92 1_555 1_555
C93 C92 1_555 1_555
H68 C93 1_555 1_555
C94 C89 1_555 1_555
H69 C94 1_555 1_555
C95 C75 1_555 1_555
C96 O17 1_555 1_555
O19 Zn5 1_555 1_555
O20 Zn2 1_555 1_555
O21 C117 1_555 1_555
O22 Zn3 1_555 1_555
C97 C98 1_555 1_555
C98 H70 1_555 1_555
C99 C98 1_555 1_555
H71 C99 1_555 1_555
C100 C99 1_555 1_555
C101 C100 1_555 1_555
C102 C97 1_555 1_555
C103 C102 1_555 1_555
H72 C103 1_555 1_555
C104 C101 1_555 1_555
H73 C104 1_555 1_555
C105 C103 1_555 1_555
C106 C104 1_555 1_555
C107 C106 1_555 1_555
H74 C107 1_555 1_555
C108 C107 1_555 1_555
H75 C108 1_555 1_555
C109 C108 1_555 1_555
H76 C109 1_555 1_555
C110 C105 1_555 1_555
H77 C110 1_555 1_555
C111 C103 1_555 1_555
C112 C104 1_555 1_555
C113 C112 1_555 1_555
H78 C113 1_555 1_555
C114 C113 1_555 1_555
H79 C114 1_555 1_555
C115 C114 1_555 1_555
H80 C115 1_555 1_555
C116 C111 1_555 1_555
H81 C116 1_555 1_555
C117 O22 1_555 1_555
O23 Zn3 1_555 1_555
Zn6 O11 1_555 1_555
Zn7 O21 1_555 1_555
Zn8 O23 1_555 1_555
O24 Zn8 1_555 1_555
C118 O24 1_555 1_555
H82 C118 1_555 1_555
N4 C118 1_555 1_555
C119 N4 1_555 1_555
H83 C119 1_555 1_555
H84 C119 1_555 1_555
H85 C119 1_555 1_555
C120 N4 1_555 1_555
H86 C120 1_555 1_555
H87 C120 1_555 1_555
H88 C120 1_555 1_555
O25 C128 1_555 1_555
O26 C128 1_555 1_555
C121 O19 1_555 1_555
C122 C121 1_555 1_555
C123 C122 1_555 1_555
C124 C123 1_555 1_555
C125 C124 1_555 1_555
C126 C125 1_555 1_555
C127 C122 1_555 1_555
C128 C125 1_555 1_555
C129 C123 1_555 1_555
C130 C124 1_555 1_555
C131 C130 1_555 1_555
C132 C129 1_555 1_555
C133 C132 1_555 1_555
C134 C133 1_555 1_555
C135 C134 1_555 1_555
C136 C131 1_555 1_555
H89 C136 1_555 1_555
H90 C135 1_555 1_555
H91 C134 1_555 1_555
H92 C133 1_555 1_555
C137 C130 1_555 1_555
C138 C129 1_555 1_555
C139 C137 1_555 1_555
C140 C138 1_555 1_555
C141 C140 1_555 1_555
C142 C139 1_555 1_555
H93 C139 1_555 1_555
H94 C142 1_555 1_555
H95 C141 1_555 1_555
H96 C140 1_555 1_555
H97 C130 1_555 1_555
H98 C129 1_555 1_555
C143 C100 1_555 1_555
O27 C143 1_555 1_555
O28 C143 1_555 1_555
C144 C57 1_555 1_555
O29 C144 1_555 1_555
O30 C144 1_555 1_555
O31 C145 1_555 1_555
C145 H99 1_555 1_555
N5 C145 1_555 1_555
C146 N5 1_555 1_555
H100 C146 1_555 1_555
H101 C146 1_555 1_555
H102 C146 1_555 1_555
C147 N5 1_555 1_555
H103 C147 1_555 1_555
H104 C147 1_555 1_555
H105 C147 1_555 1_555
Zn1A O6 1_555 1_555
Zn3A O27 1_555 1_555
Zn4A O5 1_555 1_555
O5A Zn4 1_555 1_555
O6A Zn1 1_555 1_555
O15_2 Zn8 1_555 1_555
O16_2 Zn7 1_555 1_555
Zn6A O29 1_555 1_555
Zn6A_2 O26 1_555 1_555
Zn7_2 O16 1_555 1_555
Zn7A O25 1_555 1_555
Zn8_2 O15 1_555 1_555
Zn8A O30 1_555 1_555
Zn8A_2 O28 1_555 1_555
O25A Zn7 1_555 1_555
O26A Zn6 1_555 1_555
O27A Zn3 1_555 1_555
O28A Zn8 1_555 1_555
O29A Zn6 1_555 1_555
O30A Zn8 1_555 1_555
C13 C31 1_555 1_555
C14 C15 1_555 1_555
C18 C19 1_555 1_555
C22 C23 1_555 1_555
C24 C25 1_555 1_555
C28 C29 1_555 1_555
O10 C52 1_555 1_555
C32 C52 1_555 1_555
C36 C37 1_555 1_555
C40 C41 1_555 1_555
C44 C45 1_555 1_555
C46 C47 1_555 1_555
C50 C51 1_555 1_555
C53 O12 1_555 1_555
O14 C74 1_555 1_555
C54 C74 1_555 1_555
C58 C59 1_555 1_555
C62 C63 1_555 1_555
C66 C67 1_555 1_555
C68 C69 1_555 1_555
C72 C73 1_555 1_555
O18 C96 1_555 1_555
C78 C96 1_555 1_555
C79 C80 1_555 1_555
C83 C84 1_555 1_555
C87 C88 1_555 1_555
C89 C90 1_555 1_555
C93 C94 1_555 1_555
O20 C121 1_555 1_555
C97 C117 1_555 1_555
C101 C102 1_555 1_555
C105 C106 1_555 1_555
C109 C110 1_555 1_555
C111 C112 1_555 1_555
C115 C116 1_555 1_555
O23 Zn6 1_555 1_555
O23 Zn7 1_555 1_555
C126 C127 1_555 1_555
C131 C132 1_555 1_555
C135 C136 1_555 1_555
C137 C138 1_555 1_555
C141 C142 1_555 1_555

#END
