
#######################################################################
#
#                 Cambridge Crystallographic Data Centre
#                                CCDC 
#
#######################################################################
#
# If this CIF has been generated from an entry in the Cambridge 
# Structural Database, then it will include bibliographic, chemical, 
# crystal, experimental, refinement or atomic coordinate data resulting 
# from the CCDC's data processing and validation procedures.
#
#######################################################################

data_ASANAL
_chemical_formula_moiety         '(C56 H84 Cd2 N8 O16)n'
_symmetry_cell_setting           monoclinic
_symmetry_space_group_name_H-M   'P 21/n'
_symmetry_Int_Tables_number      14
_space_group_name_Hall           '-P 2yn'
loop_
_symmetry_equiv_pos_site_id
_symmetry_equiv_pos_as_xyz
1 x,y,z
2 1/2-x,1/2+y,1/2-z
3 -x,-y,-z
4 1/2+x,1/2-y,1/2+z
_cell_length_a                   10.9663(11)
_cell_length_b                   30.592(3)
_cell_length_c                   11.9322(12)
_cell_angle_alpha                90
_cell_angle_beta                 117.0101(10)
_cell_angle_gamma                90
_cell_volume                     3566.4
loop_
_atom_site_label
_atom_site_type_symbol
_atom_site_fract_x
_atom_site_fract_y
_atom_site_fract_z
Cd1 Cd 0.72857(3) 0.23698(2) 0.41926(3)
O1 O 0.8324(4) 0.27214(13) 0.3042(3)
O2 O 0.9764(4) 0.24518(13) 0.4854(3)
O3 O 1.0783(4) 0.28817(14) 0.0217(3)
O4 O 1.3013(4) 0.28998(16) 0.1200(4)
O5 O 0.5320(4) 0.24533(14) 0.2359(3)
H1 H 0.4689 0.2274 0.2348
H2 H 0.5479 0.2394 0.1718
N1 N 0.7091(5) 0.30807(15) 0.4836(4)
N2 N 0.7256(5) 0.16700(15) 0.3437(4)
N3 N 0.5810(8) 0.01995(17) 0.1218(7)
N4 N 0.6033(8) 0.4654(2) 0.5444(6)
C1 C 0.6855(7) 0.3419(2) 0.4059(7)
H3 H 0.6744 0.3367 0.3234
C2 C 0.6765(9) 0.3843(2) 0.4413(9)
H4 H 0.6587 0.4080 0.3843
C3 C 0.6944(9) 0.3915(3) 0.5634(10)
C4 C 0.7177(9) 0.3575(3) 0.6401(8)
H5 H 0.7293 0.3616 0.7233
C5 C 0.7245(7) 0.3171(2) 0.5980(6)
H6 H 0.7415 0.2933 0.6545
C6 C 0.678(2) 0.4327(5) 0.6346(16)
H7 H 0.6283 0.4244 0.6831
H8 H 0.7691 0.4440 0.6941
C7 C 0.8353(7) 0.1477(2) 0.3433(6)
H9 H 0.9182 0.1638 0.3726
C8 C 0.8324(8) 0.1056(2) 0.3021(6)
H10 H 0.9122 0.0934 0.3024
C9 C 0.7163(9) 0.0813(2) 0.2609(7)
C10 C 0.6032(9) 0.1014(2) 0.2560(10)
H11 H 0.5182 0.0864 0.2219
C11 C 0.6114(7) 0.1438(2) 0.3004(8)
H12 H 0.5322 0.1566 0.2996
C12 C 0.7140(11) 0.0340(3) 0.2194(10)
H13 H 0.7828 0.0305 0.1878
H14 H 0.7411 0.0146 0.2934
C13 C 0.9519(5) 0.26836(16) 0.3905(4)
C14 C 1.0669(5) 0.29319(18) 0.3803(4)
C15 C 1.0349(7) 0.34246(19) 0.3729(6)
H15 H 1.0286 0.3518 0.4496
H16 H 0.9459 0.3484 0.2992
C16 C 1.1495(9) 0.3683(2) 0.3610(8)
H17 H 1.1286 0.4003 0.3577
C17 C 1.2830(10) 0.3599(4) 0.4708(8)
H18 H 1.2795 0.3692 0.5488
H19 H 1.3554 0.3770 0.4629
C18 C 1.2066(6) 0.2847(3) 0.4924(5)
H20 H 1.2039 0.2931 0.5714
H21 H 1.2287 0.2531 0.4971
C19 C 1.3160(7) 0.3111(3) 0.4778(6)
H22 H 1.4068 0.3055 0.5517
C20 C 1.1864(5) 0.29368(18) 0.1197(5)
C21 C 1.0722(5) 0.27981(17) 0.2582(4)
H23 H 0.9824 0.2855 0.1852
H24 H 1.0914 0.2481 0.2603
C22 C 1.3225(6) 0.2976(3) 0.3571(5)
H25 H 1.3947 0.3145 0.3486
H26 H 1.3461 0.2662 0.3614
C23 C 1.1848(5) 0.30576(19) 0.2431(5)
C24 C 0.619(3) 0.5045(7) 0.622(3)
H27 H 0.7173 0.5115 0.6739
H28 H 0.5769 0.4997 0.6789
C25 C 0.4562(17) 0.4568(5) 0.4739(17)
H29 H 0.4166 0.4537 0.5333
H30 H 0.4415 0.4290 0.4271
C26 C 0.5524(11) 0.0418(2) 0.0030(8)
H31 H 0.6247 0.0345 -0.0219
H32 H 0.5522 0.0739 0.0139
C27 C 0.5852(12) -0.0272(2) 0.0985(9)
H33 H 0.6080 -0.0437 0.1769
H34 H 0.6569 -0.0332 0.0719
C28 C 1.1504(8) 0.3553(2) 0.2387(6)
H35 H 1.2196 0.3727 0.2266
H36 H 1.0596 0.3611 0.1672
N1B N 0.2909(5) 0.69193(15) 0.5164(4)
N4B N 0.3967(8) 0.5346(2) 0.4556(6)
C1B C 0.3145(7) 0.6581(2) 0.5941(7)
H3B H 0.3256 0.6633 0.6766
C2B C 0.3235(9) 0.6157(2) 0.5587(9)
H4B H 0.3413 0.5920 0.6157
C3B C 0.3056(9) 0.6085(3) 0.4366(10)
C4B C 0.2823(9) 0.6425(3) 0.3599(8)
H5B H 0.2707 0.6384 0.2767
C5B C 0.2755(7) 0.6829(2) 0.4020(6)
H6B H 0.2585 0.7067 0.3455
C6B C 0.322(2) 0.5673(5) 0.3654(16)
H7B H 0.3717 0.5756 0.3169
H8B H 0.2309 0.5560 0.3059
C24B C 0.381(3) 0.4955(7) 0.378(3)
H27B H 0.2827 0.4885 0.3261
H28B H 0.4231 0.5003 0.3211
C25B C 0.5438(17) 0.5432(5) 0.5261(17)
H29B H 0.5834 0.5463 0.4667
H30B H 0.5585 0.5710 0.5729
N2B N 0.2744(5) -0.16700(15) -0.3437(4)
N3B N 0.4190(8) -0.01995(17) -0.1218(7)
C7B C 0.1647(7) -0.1477(2) -0.3433(6)
H9B H 0.0818 -0.1638 -0.3726
C8B C 0.1676(8) -0.1056(2) -0.3021(6)
H10B H 0.0878 -0.0934 -0.3024
C9B C 0.2837(9) -0.0813(2) -0.2609(7)
C10B C 0.3968(9) -0.1014(2) -0.2560(10)
H11B H 0.4818 -0.0864 -0.2219
C11B C 0.3886(7) -0.1438(2) -0.3004(8)
H12B H 0.4678 -0.1566 -0.2996
C12B C 0.2860(11) -0.0340(3) -0.2194(10)
H13B H 0.2172 -0.0305 -0.1878
H14B H 0.2589 -0.0146 -0.2934
C26B C 0.4476(11) -0.0418(2) -0.0030(8)
H31B H 0.3753 -0.0345 0.0219
H32B H 0.4478 -0.0739 -0.0139
C27B C 0.4148(12) 0.0272(2) -0.0985(9)
H33B H 0.3920 0.0437 -0.1769
H34B H 0.3431 0.0332 -0.0719
Cd1B Cd 0.27143(3) -0.23698(2) -0.41926(3)
O1B O 0.1676(4) -0.27214(13) -0.3042(3)
O2B O 0.0236(4) -0.24518(13) -0.4854(3)
O3B O -0.0783(4) -0.28817(14) -0.0217(3)
O4B O -0.3013(4) -0.28998(16) -0.1200(4)
O5B O 0.4680(4) -0.24533(14) -0.2359(3)
H1B H 0.5311 -0.2274 -0.2348
H2B H 0.4521 -0.2394 -0.1718
C13B C 0.0481(5) -0.26836(16) -0.3905(4)
C14B C -0.0669(5) -0.29319(18) -0.3803(4)
C15B C -0.0349(7) -0.34246(19) -0.3729(6)
H15B H -0.0286 -0.3518 -0.4496
H16B H 0.0541 -0.3484 -0.2992
C16B C -0.1495(9) -0.3683(2) -0.3610(8)
H17B H -0.1286 -0.4003 -0.3577
C17B C -0.2830(10) -0.3599(4) -0.4708(8)
H18B H -0.2795 -0.3692 -0.5488
H19B H -0.3554 -0.3770 -0.4629
C18B C -0.2066(6) -0.2847(3) -0.4924(5)
H20B H -0.2039 -0.2931 -0.5714
H21B H -0.2287 -0.2531 -0.4971
C19B C -0.3160(7) -0.3111(3) -0.4778(6)
H22B H -0.4068 -0.3055 -0.5517
C20B C -0.1864(5) -0.29368(18) -0.1197(5)
C21B C -0.0722(5) -0.27981(17) -0.2582(4)
H23B H 0.0176 -0.2855 -0.1852
H24B H -0.0914 -0.2481 -0.2603
C22B C -0.3225(6) -0.2976(3) -0.3571(5)
H25B H -0.3947 -0.3145 -0.3486
H26B H -0.3461 -0.2662 -0.3614
C23B C -0.1848(5) -0.30576(19) -0.2431(5)
C28B C -0.1504(8) -0.3553(2) -0.2387(6)
H35B H -0.2196 -0.3727 -0.2266
H36B H -0.0596 -0.3611 -0.1672
Cd1A Cd -0.22857(3) -0.26302(2) 0.08074(3)
Cd1B_2 Cd 0.27143(3) 0.76302(2) 0.58074(3)
Cd1C Cd 1.22857(3) 0.26302(2) -0.08074(3)
O3A O 0.4217(4) -0.21183(14) -0.5217(3)
O3C O 0.5783(4) 0.21183(14) 0.5217(3)
O4A O 0.1987(4) -0.21002(16) -0.6200(4)
O4C O 0.8013(4) 0.21002(16) 0.6200(4)
N1B_2 N 0.2909(5) -0.30807(15) -0.4836(4)
O6 O 0.8705(12) 0.4187(5) -0.0650(11)
O8 O 0.6851(5) 0.31924(16) 0.0931(4)
O9 O 0.383(2) 0.3918(6) 0.1320(18)
O10 O 0.640(2) 0.4063(5) 0.1330(16)
O11 O 0.8250(8) 0.3324(3) -0.0600(7)
O14 O 0.450(4) 0.4653(11) 0.089(3)
loop_
_geom_bond_atom_site_label_1
_geom_bond_atom_site_label_2
_geom_bond_site_symmetry_1
_geom_bond_site_symmetry_2
Cd1 O1 1_555 1_555
O1 C13 1_555 1_555
O2 Cd1 1_555 1_555
O3 C20 1_555 1_555
O4 C20 1_555 1_555
O5 Cd1 1_555 1_555
H1 O5 1_555 1_555
H2 O5 1_555 1_555
N1 Cd1 1_555 1_555
N2 Cd1 1_555 1_555
N3 C12 1_555 1_555
N4 C6 1_555 1_555
C1 N1 1_555 1_555
H3 C1 1_555 1_555
C2 C1 1_555 1_555
H4 C2 1_555 1_555
C3 C2 1_555 1_555
C4 C3 1_555 1_555
H5 C4 1_555 1_555
C5 N1 1_555 1_555
H6 C5 1_555 1_555
C6 C3 1_555 1_555
H7 C6 1_555 1_555
H8 C6 1_555 1_555
C7 N2 1_555 1_555
H9 C7 1_555 1_555
C8 C7 1_555 1_555
H10 C8 1_555 1_555
C9 C8 1_555 1_555
C10 C9 1_555 1_555
H11 C10 1_555 1_555
C11 N2 1_555 1_555
H12 C11 1_555 1_555
C12 C9 1_555 1_555
H13 C12 1_555 1_555
H14 C12 1_555 1_555
C13 O2 1_555 1_555
C14 C13 1_555 1_555
C15 C14 1_555 1_555
H15 C15 1_555 1_555
H16 C15 1_555 1_555
C16 C15 1_555 1_555
H17 C16 1_555 1_555
C17 C16 1_555 1_555
H18 C17 1_555 1_555
H19 C17 1_555 1_555
C18 C14 1_555 1_555
H20 C18 1_555 1_555
H21 C18 1_555 1_555
C19 C17 1_555 1_555
H22 C19 1_555 1_555
C20 C23 1_555 1_555
C21 C14 1_555 1_555
H23 C21 1_555 1_555
H24 C21 1_555 1_555
C22 C19 1_555 1_555
H25 C22 1_555 1_555
H26 C22 1_555 1_555
C23 C21 1_555 1_555
C24 N4 1_555 1_555
H27 C24 1_555 1_555
H28 C24 1_555 1_555
C25 N4 1_555 1_555
H29 C25 1_555 1_555
H30 C25 1_555 1_555
C26 N3 1_555 1_555
H31 C26 1_555 1_555
H32 C26 1_555 1_555
C27 N3 1_555 1_555
H33 C27 1_555 1_555
H34 C27 1_555 1_555
C28 C16 1_555 1_555
H35 C28 1_555 1_555
H36 C28 1_555 1_555
N1B C1B 1_555 1_555
N4B C6B 1_555 1_555
C1B H3B 1_555 1_555
C2B C1B 1_555 1_555
H4B C2B 1_555 1_555
C3B C2B 1_555 1_555
C4B C3B 1_555 1_555
H5B C4B 1_555 1_555
C5B N1B 1_555 1_555
H6B C5B 1_555 1_555
C6B C3B 1_555 1_555
H7B C6B 1_555 1_555
H8B C6B 1_555 1_555
C24B C25 1_555 1_555
H27B C24B 1_555 1_555
H28B C24B 1_555 1_555
C25B C24 1_555 1_555
H29B C25B 1_555 1_555
H30B C25B 1_555 1_555
N2B C7B 1_555 1_555
N3B C12B 1_555 1_555
C7B H9B 1_555 1_555
C8B C7B 1_555 1_555
H10B C8B 1_555 1_555
C9B C8B 1_555 1_555
C10B C9B 1_555 1_555
H11B C10B 1_555 1_555
C11B N2B 1_555 1_555
H12B C11B 1_555 1_555
C12B C9B 1_555 1_555
H13B C12B 1_555 1_555
H14B C12B 1_555 1_555
C26B C27 1_555 1_555
H31B C26B 1_555 1_555
H32B C26B 1_555 1_555
C27B C26 1_555 1_555
H33B C27B 1_555 1_555
H34B C27B 1_555 1_555
Cd1B N2B 1_555 1_555
O1B Cd1B 1_555 1_555
O2B Cd1B 1_555 1_555
O3B C20B 1_555 1_555
O4B C20B 1_555 1_555
O5B Cd1B 1_555 1_555
H1B O5B 1_555 1_555
H2B O5B 1_555 1_555
C13B O1B 1_555 1_555
C14B C13B 1_555 1_555
C15B C14B 1_555 1_555
H15B C15B 1_555 1_555
H16B C15B 1_555 1_555
C16B C15B 1_555 1_555
H17B C16B 1_555 1_555
C17B C16B 1_555 1_555
H18B C17B 1_555 1_555
H19B C17B 1_555 1_555
C18B C14B 1_555 1_555
H20B C18B 1_555 1_555
H21B C18B 1_555 1_555
C19B C17B 1_555 1_555
H22B C19B 1_555 1_555
C20B C23B 1_555 1_555
C21B C14B 1_555 1_555
H23B C21B 1_555 1_555
H24B C21B 1_555 1_555
C22B C19B 1_555 1_555
H25B C22B 1_555 1_555
H26B C22B 1_555 1_555
C23B C21B 1_555 1_555
C28B C16B 1_555 1_555
H35B C28B 1_555 1_555
H36B C28B 1_555 1_555
Cd1A O3B 1_555 1_555
Cd1B_2 N1B 1_555 1_555
Cd1C O3 1_555 1_555
O3A Cd1B 1_555 1_555
O3C Cd1 1_555 1_555
O4A Cd1B 1_555 1_555
O4C Cd1 1_555 1_555
N1B_2 Cd1B 1_555 1_555
O4 Cd1C 1_555 1_555
C4 C5 1_555 1_555
C10 C11 1_555 1_555
C18 C19 1_555 1_555
C22 C23 1_555 1_555
C23 C28 1_555 1_555
N4B C24B 1_555 1_555
N4B C25B 1_555 1_555
C4B C5B 1_555 1_555
N3B C26B 1_555 1_555
N3B C27B 1_555 1_555
C10B C11B 1_555 1_555
O2B C13B 1_555 1_555
O4B Cd1A 1_555 1_555
C18B C19B 1_555 1_555
C22B C23B 1_555 1_555
C23B C28B 1_555 1_555

#END
