
#######################################################################
#
#                 Cambridge Crystallographic Data Centre
#                                CCDC 
#
#######################################################################
#
# If this CIF has been generated from an entry in the Cambridge 
# Structural Database, then it will include bibliographic, chemical, 
# crystal, experimental, refinement or atomic coordinate data resulting 
# from the CCDC's data processing and validation procedures.
#
#######################################################################

data_NANPUN
_chemical_formula_moiety         'C41 Cd4 N1 O15'
_symmetry_cell_setting           orthorhombic
_symmetry_space_group_name_H-M   'P b c n'
_symmetry_Int_Tables_number      60
_space_group_name_Hall           '-P 2n 2ab'
loop_
_symmetry_equiv_pos_site_id
_symmetry_equiv_pos_as_xyz
1 x,y,z
2 1/2-x,1/2-y,1/2+z
3 1/2+x,1/2-y,-z
4 -x,y,1/2-z
5 -x,-y,-z
6 1/2+x,1/2+y,1/2-z
7 1/2-x,1/2+y,z
8 x,-y,1/2+z
_cell_length_a                   16.632(1)
_cell_length_b                   17.391(3)
_cell_length_c                   15.685(2)
_cell_angle_alpha                90
_cell_angle_beta                 90
_cell_angle_gamma                90
_cell_volume                     4536.84
loop_
_atom_site_label
_atom_site_type_symbol
_atom_site_fract_x
_atom_site_fract_y
_atom_site_fract_z
Cd1 Cd -0.0000 0.0475(2) 0.2500
Cd2 Cd 0.1198(1) 0.3544(1) 0.5622(1)
Cd3 Cd 0.2921(1) 0.1229(1) 0.3999(1)
C1 C 0.162(1) 0.465(1) 0.503(2)
C2 C 0.422(1) 0.167(1) 0.437(1)
C3 C 0.162(1) 0.350(1) 0.696(1)
C4 C 0.230(1) 0.216(1) 0.470(1)
C5 C 0.188(1) 0.259(1) 0.505(1)
C6 C 0.487(1) 0.165(1) 0.440(1)
C7 C 0.319(1) 0.141(1) 0.266(1)
C8 C 0.318(1) 0.021(1) 0.475(2)
N1 N 0.169(1) 0.068(1) 0.358(1)
C9 C 0.112(1) 0.054(1) 0.319(1)
O1 O 0.030(2) 0.208(2) 0.209(2)
O2 O 0.072(1) 0.080(1) 0.095(2)
O3 O 0.065(2) -0.072(2) 0.158(2)
O4 O -0.071(2) 0.168(2) 0.344(2)
O5 O -0.080(2) 0.010(2) 0.408(2)
O6 O -0.029(2) -0.102(2) 0.300(2)
C10 C -0.017(4) 0.261(3) 0.216(4)
C11 C 0.043(3) 0.221(3) 0.141(3)
C12 C 0.090(3) 0.163(2) 0.081(3)
C13 C 0.125(3) 0.138(3) 0.084(3)
C14 C 0.134(2) 0.053(2) 0.076(2)
C15 C 0.117(3) -0.046(3) 0.085(3)
C16 C 0.074(3) -0.063(2) 0.069(3)
C17 C 0.045(3) -0.109(4) 0.126(4)
C18 C 0.020(5) -0.148(5) 0.167(5)
C19 C -0.025(3) -0.163(3) 0.241(5)
C9C C -0.112(1) 0.054(1) 0.181(1)
O1C O -0.030(2) 0.208(2) 0.291(2)
O2C O -0.072(1) 0.080(1) 0.405(2)
O3C O -0.065(2) -0.072(2) 0.342(2)
O4C O 0.071(2) 0.168(2) 0.156(2)
O5C O 0.080(2) 0.010(2) 0.092(2)
O6C O 0.029(2) -0.102(2) 0.200(2)
C6B C -0.013(1) 0.335(1) 0.560(1)
C8F C 0.182(1) 0.521(1) 0.475(2)
C7A C 0.181(1) 0.359(1) 0.766(1)
Cd2B Cd 0.6198(1) 0.1456(1) 0.4378(1)
C3A C 0.338(1) 0.150(1) 0.196(1)
C1F C 0.338(1) -0.035(1) 0.503(2)
C10C C 0.017(4) 0.261(3) 0.284(4)
C11C C -0.043(3) 0.221(3) 0.359(3)
C12C C -0.090(3) 0.163(2) 0.419(3)
C13C C -0.125(3) 0.138(3) 0.416(3)
C14C C -0.134(2) 0.053(2) 0.424(2)
C15C C -0.117(3) -0.046(3) 0.415(3)
C16C C -0.074(3) -0.063(2) 0.431(3)
C17C C -0.045(3) -0.109(4) 0.374(4)
C18C C -0.020(5) -0.148(5) 0.333(5)
C19C C 0.025(3) -0.163(3) 0.259(5)
O7 O 0.491(8) 0.001(5) 0.271(6)
C20 C 0.504(6) -0.048(5) 0.177(5)
C21 C 0.537(5) -0.007(7) 0.337(6)
O7C O 0.509(8) 0.001(5) 0.229(6)
C20C C 0.496(6) -0.048(5) 0.323(5)
C21C C 0.463(5) -0.007(7) 0.163(6)
O8 O 0.214(3) 0.363(3) 0.200(3)
C22 C 0.192(5) 0.431(4) 0.270(5)
C23 C 0.247(4) 0.351(3) 0.292(3)
loop_
_geom_bond_atom_site_label_1
_geom_bond_atom_site_label_2
_geom_bond_site_symmetry_1
_geom_bond_site_symmetry_2
Cd1 C9 1_555 1_555
Cd2 C1 1_555 1_555
Cd3 C2 1_555 1_555
C1 C8F 1_555 1_555
C2 C6 1_555 1_555
C3 Cd2 1_555 1_555
C4 Cd3 1_555 1_555
C5 Cd2 1_555 1_555
C6 Cd2B 1_555 1_555
C7 Cd3 1_555 1_555
C8 Cd3 1_555 1_555
N1 Cd3 1_555 1_555
C9 N1 1_555 1_555
O1 Cd1 1_555 1_555
O2 Cd1 1_555 1_555
O3 Cd1 1_555 1_555
O4 Cd1 1_555 1_555
O5 Cd1 1_555 1_555
O6 Cd1 1_555 1_555
C10 O1 1_555 1_555
C11 O1 1_555 1_555
C12 O2 1_555 1_555
C13 O2 1_555 1_555
C14 O2 1_555 1_555
C15 O3 1_555 1_555
C16 O3 1_555 1_555
C17 O3 1_555 1_555
C18 O3 1_555 1_555
C19 O6 1_555 1_555
O7 C20 1_555 1_555
C20 O7C 1_555 1_555
C21 O7 1_555 1_555
O8 C22 1_555 1_555
C22 C23 1_555 1_555
C23 O8 1_555 1_555
C9C Cd1 1_555 1_555
O1C Cd1 1_555 1_555
O2C Cd1 1_555 1_555
O3C Cd1 1_555 1_555
O4C Cd1 1_555 1_555
O5C Cd1 1_555 1_555
O6C Cd1 1_555 1_555
C6B Cd2 1_555 1_555
C7A C3 1_555 1_555
C3A C7 1_555 1_555
C1F C8 1_555 1_555
C10C O1 1_555 1_555
C11C O4 1_555 1_555
C12C O4 1_555 1_555
C13C O4 1_555 1_555
C14C O5 1_555 1_555
C15C O5 1_555 1_555
C16C O5 1_555 1_555
C17C O6 1_555 1_555
C18C O6 1_555 1_555
C19C O6 1_555 1_555
O7C O7 1_555 1_555
C20C O7 1_555 1_555
C21C C20 1_555 1_555
C4 C5 1_555 1_555
O1 O1C 1_555 1_555
O1 O4C 1_555 1_555
O2 O5C 1_555 1_555
O3 O6C 1_555 1_555
O4 O1C 1_555 1_555
O5 O2C 1_555 1_555
O6 O3C 1_555 1_555
C10 C11 1_555 1_555
C10 O1C 1_555 1_555
C10 C10C 1_555 1_555
C11 C12 1_555 1_555
C11 O4C 1_555 1_555
C12 C13 1_555 1_555
C12 O4C 1_555 1_555
C13 C14 1_555 1_555
C13 O4C 1_555 1_555
C14 C15 1_555 1_555
C14 O5C 1_555 1_555
C15 C16 1_555 1_555
C15 C17 1_555 1_555
C15 O5C 1_555 1_555
C16 C17 1_555 1_555
C16 O5C 1_555 1_555
C17 C18 1_555 1_555
C17 O6C 1_555 1_555
C18 C19 1_555 1_555
C18 O6C 1_555 1_555
C18 C19C 1_555 1_555
C19 O6C 1_555 1_555
C19 C18C 1_555 1_555
C19 C19C 1_555 1_555
C21 C20C 1_555 1_555
O1C C10C 1_555 1_555
O1C C11C 1_555 1_555
O2C C12C 1_555 1_555
O2C C13C 1_555 1_555
O2C C14C 1_555 1_555
O3C C15C 1_555 1_555
O3C C16C 1_555 1_555
O3C C17C 1_555 1_555
O3C C18C 1_555 1_555
O6C C19C 1_555 1_555
C10C C11C 1_555 1_555
C11C C12C 1_555 1_555
C12C C13C 1_555 1_555
C13C C14C 1_555 1_555
C14C C15C 1_555 1_555
C15C C16C 1_555 1_555
C15C C17C 1_555 1_555
C16C C17C 1_555 1_555
C17C C18C 1_555 1_555
C18C C19C 1_555 1_555
O7C C20C 1_555 1_555
O7C C21C 1_555 1_555

#END
