
#######################################################################
#
#                 Cambridge Crystallographic Data Centre
#                                CCDC 
#
#######################################################################
#
# If this CIF has been generated from an entry in the Cambridge 
# Structural Database, then it will include bibliographic, chemical, 
# crystal, experimental, refinement or atomic coordinate data resulting 
# from the CCDC's data processing and validation procedures.
#
#######################################################################

data_OJAZOP
_chemical_formula_moiety         'C36 Ge15 Nd14 O68'
_symmetry_cell_setting           cubic
_symmetry_space_group_name_H-M   'I a -3'
_symmetry_Int_Tables_number      206
_space_group_name_Hall           '-I 2b 2c 3'
loop_
_symmetry_equiv_pos_site_id
_symmetry_equiv_pos_as_xyz
1 x,y,z
2 1/2-x,-y,1/2+z
3 -x,1/2+y,1/2-z
4 1/2+x,1/2-y,-z
5 z,x,y
6 1/2+z,1/2-x,-y
7 1/2-z,-x,1/2+y
8 -z,1/2+x,1/2-y
9 y,z,x
10 -y,1/2+z,1/2-x
11 1/2+y,1/2-z,-x
12 1/2-y,-z,1/2+x
13 1/2+x,1/2+y,1/2+z
14 -x,1/2-y,z
15 1/2-x,y,-z
16 x,-y,1/2-z
17 1/2+z,1/2+x,1/2+y
18 z,-x,1/2-y
19 -z,1/2-x,y
20 1/2-z,x,-y
21 1/2+y,1/2+z,1/2+x
22 1/2-y,z,-x
23 y,-z,1/2-x
24 -y,1/2-z,x
25 -x,-y,-z
26 1/2+x,y,1/2-z
27 x,1/2-y,1/2+z
28 1/2-x,1/2+y,z
29 -z,-x,-y
30 1/2-z,1/2+x,y
31 1/2+z,x,1/2-y
32 z,1/2-x,1/2+y
33 -y,-z,-x
34 y,1/2-z,1/2+x
35 1/2-y,1/2+z,x
36 1/2+y,z,1/2-x
37 1/2-x,1/2-y,1/2-z
38 x,1/2+y,-z
39 1/2+x,-y,z
40 -x,y,1/2+z
41 1/2-z,1/2-x,1/2-y
42 -z,x,1/2+y
43 z,1/2+x,-y
44 1/2+z,-x,y
45 1/2-y,1/2-z,1/2-x
46 1/2+y,-z,x
47 -y,z,1/2+x
48 y,1/2+z,-x
_cell_length_a                   34.1837(3)
_cell_length_b                   34.1837(3)
_cell_length_c                   34.1837(3)
_cell_angle_alpha                90
_cell_angle_beta                 90
_cell_angle_gamma                90
_cell_volume                     39944.5
loop_
_atom_site_label
_atom_site_type_symbol
_atom_site_fract_x
_atom_site_fract_y
_atom_site_fract_z
_atom_site_U_iso_or_equiv
_atom_site_thermal_displace_type
Nd1 Nd 0.698847(17) 0.698847(17) 0.698847(17) 0.0277 Uani
Nd2 Nd 0.54988(2) 0.54988(2) 0.54988(2) 0.0385 Uani
Nd3 Nd 0.630510(17) 0.542540(17) 0.701560(17) 0.0264 Uani
Nd4 Nd 0.547600(17) 0.619300(18) 0.707660(17) 0.0289 Uani
Ge1 Ge 0.71648(3) 0.59943(3) 0.71519(3) 0.0274 Uani
Ge2 Ge 0.63904(3) 0.63880(3) 0.75445(3) 0.0290 Uani
Ge3 Ge 0.54117(3) 0.52872(3) 0.64982(3) 0.0272 Uani
Ge4 Ge 0.49561(3) 0.60442(3) 0.61853(3) 0.0281 Uani
C1 C 0.7520(4) 0.5694(4) 0.7479(4) 0.0440 Uani
C2 C 0.7338(4) 0.5544(5) 0.7853(4) 0.0490 Uani
C3 C 0.6928(4) 0.5376(4) 0.7812(4) 0.0397 Uani
C4 C 0.6363(4) 0.6257(4) 0.8101(4) 0.0450 Uani
C5 C 0.6054(4) 0.6480(5) 0.8295(4) 0.0463 Uani
C6 C 0.5684(4) 0.6499(4) 0.8067(3) 0.0420 Uani
C7 C 0.5097(4) 0.4954(4) 0.6825(4) 0.0483 Uani
C8 C 0.5288(5) 0.4559(4) 0.6939(5) 0.0547 Uani
C9 C 0.5653(4) 0.4618(3) 0.7163(4) 0.0343 Uani
C10 C 0.4404(4) 0.6092(6) 0.6253(5) 0.0620 Uani
C11 C 0.4249(5) 0.5839(9) 0.6578(6) 0.0993 Uani
C12 C 0.4500(4) 0.5845(6) 0.6939(5) 0.0617 Uani
O1 O 0.6556(2) 0.6556(2) 0.6556(2) 0.0330 Uani
O2 O 0.6901(2) 0.6374(2) 0.7401(2) 0.0307 Uani
O3 O 0.5669(2) 0.5041(3) 0.6124(3) 0.0397 Uani
O4 O 0.7346(12) 0.7115(10) 0.7578(9) 0.0673 Uani
O5 O 0.5122(2) 0.5550(2) 0.6143(2) 0.0303 Uani
O6 O 0.5924(2) 0.5924(2) 0.5924(2) 0.0340 Uani
O7 O 0.7431(2) 0.6381(2) 0.6901(2) 0.0300 Uani
O8 O 0.5491(6) 0.5220(7) 0.4832(6) 0.0270 Uani
O9 O 0.6190(2) 0.6120(2) 0.7150(2) 0.0293 Uani
O10 O 0.4957(3) 0.6278(3) 0.7575(3) 0.0453 Uani
O11 O 0.6889(2) 0.5751(2) 0.6798(2) 0.0293 Uani
O12 O 0.5706(2) 0.5635(2) 0.6725(3) 0.0330 Uani
O13 O 0.6420(2) 0.5279(2) 0.6349(2) 0.0317 Uani
O14 O 0.6705(2) 0.5553(3) 0.7578(2) 0.0387 Uani
O15 O 0.6831(3) 0.5093(3) 0.8001(3) 0.0497 Uani
O16 O 0.5734(3) 0.6484(3) 0.7688(3) 0.0467 Uani
O17 O 0.5371(4) 0.6542(5) 0.8211(3) 0.0747 Uani
O18 O 0.5913(3) 0.4853(2) 0.7029(3) 0.0420 Uani
O19 O 0.5720(3) 0.4415(3) 0.7466(3) 0.0453 Uani
O20 O 0.4869(3) 0.5843(3) 0.6895(3) 0.0517 Uani
O21 O 0.4362(4) 0.5841(6) 0.7267(4) 0.1063 Uani
Nd2O Nd 0.54988(2) 0.45012(2) 0.95012(2) 0.0385 Uani
Nd3D Nd 0.701560(17) 0.630510(17) 0.542540(17) 0.0264 Uani
Nd3H Nd 0.542540(17) 0.701560(17) 0.630510(17) 0.0264 Uani
Nd3O Nd 0.630510(17) 0.457460(17) 0.798440(17) 0.0264 Uani
Nd3S Nd 0.798440(17) 0.630510(17) 0.457460(17) 0.0264 Uani
Nd3W Nd 0.457460(17) 0.798440(17) 0.630510(17) 0.0264 Uani
Nd4D Nd 0.707660(17) 0.547600(17) 0.619300(18) 0.0289 Uani
Nd4H Nd 0.619300(18) 0.707660(17) 0.547600(17) 0.0289 Uani
Nd4O Nd 0.547600(17) 0.380700(18) 0.792340(17) 0.0289 Uani
Nd4S Nd 0.792340(17) 0.547600(17) 0.380700(18) 0.0289 Uani
Ge1D Ge 0.71519(3) 0.71648(3) 0.59943(3) 0.0274 Uani
Ge1H Ge 0.59943(3) 0.71519(3) 0.71648(3) 0.0274 Uani
Ge2D Ge 0.75445(3) 0.63904(3) 0.63880(3) 0.0290 Uani
Ge2H Ge 0.63880(3) 0.75445(3) 0.63904(3) 0.0290 Uani
Ge3O Ge 0.54117(3) 0.47128(3) 0.85018(3) 0.0272 Uani
Ge3D Ge 0.64982(3) 0.54117(3) 0.52872(3) 0.0272 Uani
Ge3H Ge 0.52872(3) 0.64982(3) 0.54117(3) 0.0272 Uani
Ge4D Ge 0.61853(3) 0.49561(3) 0.60442(3) 0.0281 Uani
Ge4H Ge 0.60442(3) 0.61853(3) 0.49561(3) 0.0281 Uani
Ge4Q Ge 0.61853(3) 0.50439(3) 0.89558(3) 0.0281 Uani
Ge4O Ge 0.49561(3) 0.39558(3) 0.88147(3) 0.0281 Uani
C1D C 0.7479(4) 0.7520(4) 0.5694(4) 0.0440 Uani
C1H C 0.5694(4) 0.7479(4) 0.7520(4) 0.0440 Uani
C2D C 0.7853(4) 0.7338(4) 0.5544(5) 0.0490 Uani
C2H C 0.5544(5) 0.7853(4) 0.7338(4) 0.0490 Uani
C3D C 0.7812(4) 0.6928(4) 0.5376(4) 0.0397 Uani
C3H C 0.5376(4) 0.7812(4) 0.6928(4) 0.0397 Uani
C4D C 0.8101(4) 0.6363(4) 0.6257(4) 0.0450 Uani
C4H C 0.6257(4) 0.8101(4) 0.6363(4) 0.0450 Uani
C5D C 0.8295(4) 0.6054(4) 0.6480(5) 0.0463 Uani
C5H C 0.6480(5) 0.8295(4) 0.6054(4) 0.0463 Uani
C6D C 0.8067(3) 0.5684(4) 0.6499(4) 0.0420 Uani
C6H C 0.6499(4) 0.8067(3) 0.5684(4) 0.0420 Uani
C7O C 0.5097(4) 0.5046(4) 0.8175(4) 0.0483 Uani
C7D C 0.6825(4) 0.5097(4) 0.4954(4) 0.0483 Uani
C8O C 0.5288(5) 0.5441(4) 0.8061(5) 0.0547 Uani
C8D C 0.6939(5) 0.5288(5) 0.4559(4) 0.0547 Uani
C9O C 0.5653(4) 0.5382(3) 0.7837(4) 0.0343 Uani
C9D C 0.7163(4) 0.5653(4) 0.4618(3) 0.0343 Uani
C10D C 0.6253(5) 0.4404(4) 0.6092(6) 0.0620 Uani
C10H C 0.6092(6) 0.6253(5) 0.4404(4) 0.0620 Uani
C11D C 0.6578(6) 0.4249(5) 0.5839(9) 0.0993 Uani
C11H C 0.5839(9) 0.6578(6) 0.4249(5) 0.0993 Uani
C12D C 0.6939(5) 0.4500(4) 0.5845(6) 0.0617 Uani
C12H C 0.5845(6) 0.6939(5) 0.4500(4) 0.0617 Uani
O2D O 0.7401(2) 0.6901(2) 0.6374(2) 0.0307 Uani
O2H O 0.6374(2) 0.7401(2) 0.6901(2) 0.0307 Uani
O3H O 0.5041(3) 0.6124(3) 0.5669(2) 0.0397 Uani
O3O O 0.5669(2) 0.4959(3) 0.8876(3) 0.0397 Uani
O3D O 0.6124(3) 0.5669(2) 0.5041(3) 0.0397 Uani
O4D O 0.7578(9) 0.7346(12) 0.7115(10) 0.0673 Uani
O4H O 0.7115(10) 0.7578(9) 0.7346(12) 0.0673 Uani
O5O O 0.5122(2) 0.4450(2) 0.8857(2) 0.0303 Uani
O5D O 0.6143(2) 0.5122(2) 0.5550(2) 0.0303 Uani
O5H O 0.5550(2) 0.6143(2) 0.5122(2) 0.0303 Uani
O7D O 0.6901(2) 0.7431(2) 0.6381(2) 0.0300 Uani
O7H O 0.6381(2) 0.6901(2) 0.7431(2) 0.0300 Uani
O8D O 0.4832(6) 0.5491(6) 0.5220(7) 0.0270 Uani
O8H O 0.5220(7) 0.4832(6) 0.5491(6) 0.0270 Uani
O9D O 0.7150(2) 0.6190(2) 0.6120(2) 0.0293 Uani
O9H O 0.6120(2) 0.7150(2) 0.6190(2) 0.0293 Uani
O10D O 0.7575(3) 0.4957(3) 0.6278(3) 0.0453 Uani
O10H O 0.6278(3) 0.7575(3) 0.4957(3) 0.0453 Uani
O11D O 0.6798(2) 0.6889(2) 0.5751(2) 0.0293 Uani
O11H O 0.5751(2) 0.6798(2) 0.6889(2) 0.0293 Uani
O12D O 0.6725(3) 0.5706(2) 0.5635(2) 0.0330 Uani
O12H O 0.5635(2) 0.6725(3) 0.5706(2) 0.0330 Uani
O12O O 0.5706(2) 0.4365(2) 0.8275(3) 0.0330 Uani
O13H O 0.5279(2) 0.6349(2) 0.6420(2) 0.0317 Uani
O13D O 0.6349(2) 0.6420(2) 0.5279(2) 0.0317 Uani
O14D O 0.7578(2) 0.6705(2) 0.5553(3) 0.0387 Uani
O14H O 0.5553(3) 0.7578(2) 0.6705(2) 0.0387 Uani
O15D O 0.8001(3) 0.6831(3) 0.5093(3) 0.0497 Uani
O15H O 0.5093(3) 0.8001(3) 0.6831(3) 0.0497 Uani
O15O O 0.6831(3) 0.4907(3) 0.6999(3) 0.0497 Uani
O15S O 0.6999(3) 0.6831(3) 0.4907(3) 0.0497 Uani
O15W O 0.4907(3) 0.6999(3) 0.6831(3) 0.0497 Uani
O16D O 0.7688(3) 0.5734(3) 0.6484(3) 0.0467 Uani
O16H O 0.6484(3) 0.7688(3) 0.5734(3) 0.0467 Uani
O17D O 0.8211(3) 0.5371(4) 0.6542(5) 0.0747 Uani
O17H O 0.6542(5) 0.8211(3) 0.5371(4) 0.0747 Uani
O18O O 0.5913(3) 0.5147(2) 0.7971(3) 0.0420 Uani
O18D O 0.7029(3) 0.5913(3) 0.4853(2) 0.0420 Uani
O18H O 0.4853(2) 0.7029(3) 0.5913(3) 0.0420 Uani
O19O O 0.5720(3) 0.5585(3) 0.7534(3) 0.0453 Uani
O19D O 0.7466(3) 0.5720(3) 0.4415(3) 0.0453 Uani
O19S O 0.7534(3) 0.5720(3) 0.5585(3) 0.0453 Uani
O19W O 0.5585(3) 0.7534(3) 0.5720(3) 0.0453 Uani
O20D O 0.6895(3) 0.4869(3) 0.5843(3) 0.0517 Uani
O20H O 0.5843(3) 0.6895(3) 0.4869(3) 0.0517 Uani
O21D O 0.7267(4) 0.4362(4) 0.5841(6) 0.1063 Uani
O21H O 0.5841(6) 0.7267(4) 0.4362(4) 0.1063 Uani
loop_
_atom_site_aniso_label
_atom_site_aniso_U_11
_atom_site_aniso_U_22
_atom_site_aniso_U_33
_atom_site_aniso_U_23
_atom_site_aniso_U_13
_atom_site_aniso_U_12
Nd1 0.0277(2) 0.0277(2) 0.0277(2) -0.0023(2) -0.0023(2) -0.0023(2)
Nd2 0.0385(3) 0.0385(3) 0.0385(3) -0.0039(3) -0.0039(3) -0.0039(3)
Nd3 0.0249 0.0272 0.027 0.005 -0.0014 -0.0016
Nd4 0.0277 0.0328 0.0261 0.0004 0.0015 -0.0003
Ge1 0.0253 0.0275 0.0295 0.0033 -0.0032 -0.0005
Ge2 0.0289 0.034 0.0242 0.0056 -0.0004 0.0001
Ge3 0.0267 0.0273 0.0276 0.0049 -0.0001 -0.0013
Ge4 0.0236 0.0307 0.0299 0 -0.0004 0.0027
C1 0.035 0.062 0.035 0.024 0.003 0.007
C2 0.041 0.06 0.046 0.025 -0.006 -0.021
C3 0.044 0.046 0.029 0.005 -0.005 0.004
C4 0.046 0.051 0.038 0.001 0.019 0.006
C5 0.05 0.063 0.026 0.001 -0.006 0.008
C6 0.038 0.065 0.023 -0.01 0.007 0.002
C7 0.037 0.048 0.06 0.019 0.004 -0.006
C8 0.063 0.043 0.058 0.032 -0.013 -0.021
C9 0.046 0.015 0.042 -0.003 0.009 -0.002
C10 0.031 0.076 0.079 -0.007 0.004 -0.001
C11 0.031 0.2 0.067 0.039 0.012 -0.006
C12 0.03 0.113 0.042 -0.009 0.008 -0.015
O1 0.033(3) 0.033(3) 0.033(3) -0.004(3) -0.004(3) -0.004(3)
O2 0.029 0.03 0.033 0.005 0.009 -0.004
O3 0.032 0.049 0.038 -0.003 0.003 0.007
O4 0.095(17) 0.066(15) 0.041(13) -0.005(12) -0.042(13) -0.029(14)
O5 0.034 0.025 0.032 -0.001 -0.008 0.004
O6 0.034(3) 0.034(3) 0.034(3) 0.002(3) 0.002(3) 0.002(3)
O7 0.029 0.029 0.032 0 -0.003 -0.003
O8 0.027(6) 0.030(6) 0.024(6) -0.009(4) -0.001(4) -0.007(4)
O9 0.034 0.024 0.03 -0.001 0 0.001
O10 0.036 0.055 0.045 0.002 0.01 0.008
O11 0.025 0.031 0.032 -0.002 0 -0.002
O12 0.024 0.035 0.04 0.002 -0.005 -0.002
O13 0.033(4) 0.033(4) 0.029(4) -0.001(3) 0.000(3) -0.002(3)
O14 0.029 0.057 0.03 -0.001 -0.003 0.007
O15 0.043 0.037 0.069 0.009 -0.012 -0.007
O16 0.046 0.06 0.034 -0.01 0.007 -0.015
O17 0.056 0.125 0.043 -0.003 0.009 0.008
O18 0.04 0.031 0.055 0.006 0.004 -0.013
O19 0.045 0.048 0.043 0.007 -0.007 -0.003
O20 0.038 0.055 0.062 -0.02 0.015 -0.016
O21 0.061 0.183 0.075 0.008 0.012 -0.024
Nd2O 0.0385 0.0385 0.0385 -0.0039 0.0039 0.0039
Nd3D 0.0270(3) 0.0249(3) 0.0272(3) -0.0016(2) 0.0050(2) -0.0014(2)
Nd3H 0.0272 0.027 0.0249 -0.0014 -0.0016 0.005
Nd3O 0.0249 0.0272 0.027 0.005 0.0014 0.0016
Nd3S 0.027 0.0249 0.0272 0.0016 0.005 0.0014
Nd3W 0.0272 0.027 0.0249 0.0014 0.0016 0.005
Nd4D 0.0261(3) 0.0277(3) 0.0328(3) -0.0003(2) 0.0004(2) 0.0015(2)
Nd4H 0.0328 0.0261 0.0277 0.0015 -0.0003 0.0004
Nd4O 0.0277 0.0328 0.0261 0.0004 -0.0015 0.0003
Nd4S 0.0261 0.0277 0.0328 0.0003 0.0004 -0.0015
Ge1D 0.0295(6) 0.0253(5) 0.0275(6) -0.0005(4) 0.0033(4) -0.0032(4)
Ge1H 0.0275 0.0295 0.0253 -0.0032 -0.0005 0.0033
Ge2D 0.0242(5) 0.0289(5) 0.0340(6) 0.0001(5) 0.0056(4) -0.0004(4)
Ge2H 0.034 0.0242 0.0289 -0.0004 0.0001 0.0056
Ge3O 0.0267 0.0273 0.0276 0.0049 0.0001 0.0013
Ge3D 0.0276(5) 0.0267(5) 0.0273(5) -0.0013(4) 0.0049(4) -0.0001(4)
Ge3H 0.0273 0.0276 0.0267 -0.0001 -0.0013 0.0049
Ge4D 0.0299(5) 0.0236(5) 0.0307(6) 0.0027(4) 0.0000(5) -0.0004(4)
Ge4H 0.0307 0.0299 0.0236 -0.0004 0.0027 0
Ge4Q 0.0299 0.0236 0.0307 0.0027 0 0.0004
Ge4O 0.0236 0.0307 0.0299 0 0.0004 -0.0027
C1D 0.035(6) 0.035(6) 0.062(8) 0.007(6) 0.024(6) 0.003(5)
C1H 0.062 0.035 0.035 0.003 0.007 0.024
C2D 0.046(8) 0.041(7) 0.060(9) -0.021(6) 0.025(7) -0.006(6)
C2H 0.06 0.046 0.041 -0.006 -0.021 0.025
C3D 0.029(6) 0.044(7) 0.046(7) 0.004(6) 0.005(5) -0.005(5)
C3H 0.046 0.029 0.044 -0.005 0.004 0.005
C4D 0.038(7) 0.046(8) 0.051(8) 0.006(6) 0.001(6) 0.019(6)
C4H 0.051 0.038 0.046 0.019 0.006 0.001
C5D 0.026(6) 0.050(8) 0.063(9) 0.008(7) 0.001(6) -0.006(6)
C5H 0.063 0.026 0.05 -0.006 0.008 0.001
C6D 0.023(5) 0.038(7) 0.065(9) 0.002(6) -0.010(5) 0.007(5)
C6H 0.065 0.023 0.038 0.007 0.002 -0.01
C7O 0.037 0.048 0.06 0.019 -0.004 0.006
C7D 0.060(9) 0.037(7) 0.048(8) -0.006(6) 0.019(7) 0.004(6)
C8O 0.063 0.043 0.058 0.032 0.013 0.021
C8D 0.058(9) 0.063(9) 0.043(7) -0.021(7) 0.032(7) -0.013(7)
C9O 0.046 0.015 0.042 -0.003 -0.009 0.002
C9D 0.042(6) 0.046(7) 0.015(5) -0.002(4) -0.003(4) 0.009(5)
C10D 0.079(12) 0.031(7) 0.076(11) -0.001(7) -0.007(9) 0.004(7)
C10H 0.076 0.079 0.031 0.004 -0.001 -0.007
C11D 0.067(12) 0.031(8) 0.20(3) -0.006(11) 0.039(14) 0.012(8)
C11H 0.2 0.067 0.031 0.012 -0.006 0.039
C12D 0.042(8) 0.030(7) 0.113(15) -0.015(8) -0.009(9) 0.008(6)
C12H 0.113 0.042 0.03 0.008 -0.015 -0.009
O2D 0.033(4) 0.029(4) 0.030(4) -0.004(3) 0.005(3) 0.009(3)
O2H 0.03 0.033 0.029 0.009 -0.004 0.005
O3H 0.049 0.038 0.032 0.003 0.007 -0.003
O3O 0.032 0.049 0.038 -0.003 -0.003 -0.007
O3D 0.038(5) 0.032(4) 0.049(5) 0.007(4) -0.003(4) 0.003(4)
O4D 0.041 0.095 0.066 -0.029 -0.005 -0.042
O4H 0.066 0.041 0.095 -0.042 -0.029 -0.005
O5O 0.034 0.025 0.032 -0.001 0.008 -0.004
O5D 0.032(4) 0.034(4) 0.025(4) 0.004(3) -0.001(3) -0.008(3)
O5H 0.025 0.032 0.034 -0.008 0.004 -0.001
O7D 0.032(4) 0.029(4) 0.029(4) -0.003(3) 0.000(3) -0.003(3)
O7H 0.029 0.032 0.029 -0.003 -0.003 0
O8D 0.024 0.027 0.03 -0.007 -0.009 -0.001
O8H 0.03 0.024 0.027 -0.001 -0.007 -0.009
O9D 0.030(4) 0.034(4) 0.024(4) 0.001(3) -0.001(3) 0.000(3)
O9H 0.024 0.03 0.034 0 0.001 -0.001
O10D 0.045(5) 0.036(4) 0.055(5) 0.008(4) 0.002(4) 0.010(4)
O10H 0.055 0.045 0.036 0.01 0.008 0.002
O11D 0.032(4) 0.025(4) 0.031(4) -0.002(3) -0.002(3) 0.000(3)
O11H 0.031 0.032 0.025 0 -0.002 -0.002
O12D 0.040(4) 0.024(4) 0.035(4) -0.002(3) 0.002(3) -0.005(3)
O12H 0.035 0.04 0.024 -0.005 -0.002 0.002
O12O 0.024 0.035 0.04 0.002 0.005 0.002
O13H 0.033 0.029 0.033 0 -0.002 -0.001
O13D 0.029 0.033 0.033 -0.002 -0.001 0
O14D 0.030(4) 0.029(4) 0.057(6) 0.007(4) -0.001(4) -0.003(3)
O14H 0.057 0.03 0.029 -0.003 0.007 -0.001
O15D 0.069(7) 0.043(5) 0.037(5) -0.007(4) 0.009(5) -0.012(5)
O15H 0.037 0.069 0.043 -0.012 -0.007 0.009
O15O 0.043 0.037 0.069 0.009 0.012 0.007
O15S 0.069 0.043 0.037 0.007 0.009 0.012
O15W 0.037 0.069 0.043 0.012 0.007 0.009
O16D 0.034(5) 0.046(5) 0.060(6) -0.015(5) -0.010(4) 0.007(4)
O16H 0.06 0.034 0.046 0.007 -0.015 -0.01
O17D 0.043(6) 0.056(7) 0.125(12) 0.008(7) -0.003(7) 0.009(5)
O17H 0.125 0.043 0.056 0.009 0.008 -0.003
O18O 0.04 0.031 0.055 0.006 -0.004 0.013
O18D 0.055(5) 0.040(5) 0.031(4) -0.013(4) 0.006(4) 0.004(4)
O18H 0.031 0.055 0.04 0.004 -0.013 0.006
O19O 0.045 0.048 0.043 0.007 0.007 0.003
O19D 0.043(5) 0.045(5) 0.048(5) -0.003(4) 0.007(4) -0.007(4)
O19S 0.043 0.045 0.048 0.003 0.007 0.007
O19W 0.048 0.043 0.045 0.007 0.003 0.007
O20D 0.062(6) 0.038(5) 0.055(6) -0.016(4) -0.020(5) 0.015(5)
O20H 0.055 0.062 0.038 0.015 -0.016 -0.02
O21D 0.075(9) 0.061(8) 0.183(15) -0.024(9) 0.008(9) 0.012(7)
O21H 0.183 0.075 0.061 0.012 -0.024 0.008
loop_
_geom_bond_atom_site_label_1
_geom_bond_atom_site_label_2
_geom_bond_site_symmetry_1
_geom_bond_site_symmetry_2
Nd1 O1 1_555 1_555
Nd2 O3 1_555 1_555
Nd3 O9 1_555 1_555
Nd4 O9 1_555 1_555
Ge1 C1 1_555 1_555
Ge2 C4 1_555 1_555
Ge3 C7 1_555 1_555
Ge4 C10 1_555 1_555
C1 C2 1_555 1_555
C2 C3 1_555 1_555
C3 O14 1_555 1_555
C4 C5 1_555 1_555
C5 C6 1_555 1_555
C6 O16 1_555 1_555
C7 C8 1_555 1_555
C8 C9 1_555 1_555
C9 O18 1_555 1_555
C10 C11 1_555 1_555
C11 C12 1_555 1_555
C12 O20 1_555 1_555
O2 Nd1 1_555 1_555
O3 Ge3 1_555 1_555
O4 Nd1 1_555 1_555
O5 Nd2 1_555 1_555
O6 Nd2 1_555 1_555
O7 Nd1 1_555 1_555
O8 Nd2 1_555 1_555
O9 Ge2 1_555 1_555
O10 Nd4 1_555 1_555
O11 Nd3 1_555 1_555
O12 Nd3 1_555 1_555
O13 Nd3 1_555 1_555
O14 Nd3 1_555 1_555
O15 C3 1_555 1_555
O16 Nd4 1_555 1_555
O17 C6 1_555 1_555
O18 Nd3 1_555 1_555
O19 C9 1_555 1_555
O20 Nd4 1_555 1_555
O21 C12 1_555 1_555
Nd2O O3O 1_555 1_555
Nd3D O9D 1_555 1_555
Nd3H O9H 1_555 1_555
Nd3O O15 1_555 1_555
Nd3S O15D 1_555 1_555
Nd3W O15H 1_555 1_555
Nd4D O11 1_555 1_555
Nd4H O9H 1_555 1_555
Nd4O O19 1_555 1_555
Nd4S O19D 1_555 1_555
Ge1D C1D 1_555 1_555
Ge1H C1H 1_555 1_555
Ge2D O7 1_555 1_555
Ge2H C4H 1_555 1_555
Ge3O C7O 1_555 1_555
Ge3D C7D 1_555 1_555
Ge3H O3H 1_555 1_555
Ge4D O3 1_555 1_555
Ge4H C10H 1_555 1_555
Ge4Q O3O 1_555 1_555
Ge4O O5O 1_555 1_555
C1D C2D 1_555 1_555
C1H C2H 1_555 1_555
C2D C3D 1_555 1_555
C2H C3H 1_555 1_555
C3D O14D 1_555 1_555
C3H O14H 1_555 1_555
C4D Ge2D 1_555 1_555
C4H C5H 1_555 1_555
C5D C4D 1_555 1_555
C5H C6H 1_555 1_555
C6D C5D 1_555 1_555
C6H O16H 1_555 1_555
C7O C8O 1_555 1_555
C7D C8D 1_555 1_555
C8O C9O 1_555 1_555
C8D C9D 1_555 1_555
C9O O18O 1_555 1_555
C9D O18D 1_555 1_555
C10D Ge4D 1_555 1_555
C10H C11H 1_555 1_555
C11D C10D 1_555 1_555
C11H C12H 1_555 1_555
C12D C11D 1_555 1_555
C12H O20H 1_555 1_555
O2D Nd1 1_555 1_555
O2H Nd1 1_555 1_555
O3H Nd2 1_555 1_555
O3O Ge3O 1_555 1_555
O3D Nd2 1_555 1_555
O4D Nd1 1_555 1_555
O4H Nd1 1_555 1_555
O5O Nd2O 1_555 1_555
O5D Nd2 1_555 1_555
O5H Nd2 1_555 1_555
O7D Nd1 1_555 1_555
O7H Nd1 1_555 1_555
O8D Nd2 1_555 1_555
O8H Nd2 1_555 1_555
O9D Nd4D 1_555 1_555
O9H Ge2H 1_555 1_555
O10D Nd4D 1_555 1_555
O10H Nd4H 1_555 1_555
O11D Nd3D 1_555 1_555
O11H Nd4 1_555 1_555
O12D Nd3D 1_555 1_555
O12H Nd3H 1_555 1_555
O12O Nd3O 1_555 1_555
O13H Nd4 1_555 1_555
O13D Nd3D 1_555 1_555
O14D Nd3D 1_555 1_555
O14H Nd3H 1_555 1_555
O15D C3D 1_555 1_555
O15H C3H 1_555 1_555
O15O Nd3 1_555 1_555
O15S Nd3D 1_555 1_555
O15W Nd3H 1_555 1_555
O16D Nd4D 1_555 1_555
O16H Nd4H 1_555 1_555
O17D C6D 1_555 1_555
O17H C6H 1_555 1_555
O18O Nd3O 1_555 1_555
O18D Nd3D 1_555 1_555
O18H Nd3H 1_555 1_555
O19O Nd3 1_555 1_555
O19D Nd3S 1_555 1_555
O19S Nd3D 1_555 1_555
O19W Nd3H 1_555 1_555
O20D Nd4D 1_555 1_555
O20H Nd4H 1_555 1_555
O21D C12D 1_555 1_555
O21H C12H 1_555 1_555
Nd4 O12 1_555 1_555
Nd4 O19O 1_555 1_555
Ge1 O2 1_555 1_555
Ge1 O7 1_555 1_555
Ge1 O11 1_555 1_555
Ge2 O2 1_555 1_555
Ge2 O16 1_555 1_555
Ge2 O7H 1_555 1_555
Ge3 O5 1_555 1_555
Ge3 O12 1_555 1_555
Ge4 O5 1_555 1_555
Ge4 O3H 1_555 1_555
Ge4 O13H 1_555 1_555
O13 Nd4D 1_555 1_555
O13 Ge4D 1_555 1_555
O19 Nd3O 1_555 1_555
Nd3H O11H 1_555 1_555
Nd3H O13H 1_555 1_555
Nd4D O12D 1_555 1_555
Nd4D O19S 1_555 1_555
Nd4H O11D 1_555 1_555
Nd4H O12H 1_555 1_555
Nd4H O13D 1_555 1_555
Nd4H O19W 1_555 1_555
Nd4O O12O 1_555 1_555
Ge1D O2D 1_555 1_555
Ge1D O7D 1_555 1_555
Ge1D O11D 1_555 1_555
Ge1H O2H 1_555 1_555
Ge1H O7H 1_555 1_555
Ge1H O11H 1_555 1_555
Ge2D O2D 1_555 1_555
Ge2D O9D 1_555 1_555
Ge2D O16D 1_555 1_555
Ge2H O2H 1_555 1_555
Ge2H O7D 1_555 1_555
Ge2H O16H 1_555 1_555
Ge3O O5O 1_555 1_555
Ge3O O12O 1_555 1_555
Ge3D O3D 1_555 1_555
Ge3D O5D 1_555 1_555
Ge3D O12D 1_555 1_555
Ge3H O5H 1_555 1_555
Ge3H O12H 1_555 1_555
Ge4D O5D 1_555 1_555
Ge4H O3D 1_555 1_555
Ge4H O5H 1_555 1_555
Ge4H O13D 1_555 1_555
C6D O16D 1_555 1_555
C9O O19O 1_555 1_555
C9D O19D 1_555 1_555
C12D O20D 1_555 1_555

#END
