
#######################################################################
#
#                 Cambridge Crystallographic Data Centre
#                                CCDC 
#
#######################################################################
#
# If this CIF has been generated from an entry in the Cambridge 
# Structural Database, then it will include bibliographic, chemical, 
# crystal, experimental, refinement or atomic coordinate data resulting 
# from the CCDC's data processing and validation procedures.
#
#######################################################################

data_PUFRIR
_chemical_formula_moiety         '(C20 H52 Cl3 Gd1 N4 O30)n'
_symmetry_cell_setting           monoclinic
_symmetry_space_group_name_H-M   'P 21/c'
_symmetry_Int_Tables_number      14
_space_group_name_Hall           '-P 2ybc'
loop_
_symmetry_equiv_pos_site_id
_symmetry_equiv_pos_as_xyz
1 x,y,z
2 -x,1/2+y,1/2-z
3 -x,-y,-z
4 x,1/2-y,1/2+z
_cell_length_a                   17.897(1)
_cell_length_b                   14.731(1)
_cell_length_c                   17.381(1)
_cell_angle_alpha                90
_cell_angle_beta                 116.61(1)
_cell_angle_gamma                90
_cell_volume                     4096.96
loop_
_atom_site_label
_atom_site_type_symbol
_atom_site_fract_x
_atom_site_fract_y
_atom_site_fract_z
O1 O 0.2432(2) 0.0610(3) 0.1014(2)
O2 O 0.3623(2) 0.0274(3) 0.2162(3)
C1 C 0.3191(3) 0.0731(3) 0.1540(3)
C2 C 0.3533(3) 0.1577(3) 0.1287(3)
N1 N 0.4383(2) 0.1908(3) 0.1924(2)
C3 C 0.4403(3) 0.2139(3) 0.2767(3)
C4 C 0.5274(3) 0.2458(3) 0.3393(3)
C5 C 0.4559(3) 0.2761(3) 0.1561(3)
C6 C 0.5357(3) 0.3206(3) 0.2190(3)
C7 C 0.5063(3) 0.1247(3) 0.2066(3)
C8 C 0.5914(3) 0.1672(3) 0.2607(3)
N2 N 0.5812(2) 0.2587(2) 0.2939(2)
C9 C 0.6629(3) 0.3001(3) 0.3573(3)
C10 C 0.7265(2) 0.3234(3) 0.3238(3)
O3 O 0.7865(2) 0.3672(2) 0.3777(2)
O4 O 0.7161(2) 0.2982(3) 0.2515(2)
O5 O 0.0724(2) 0.1372(2) 0.0532(2)
O6 O -0.0381(2) 0.1322(2) -0.0763(2)
C11 C 0.0225(2) 0.1706(2) -0.0171(2)
C12 C 0.0388(3) 0.2701(3) -0.0269(2)
N3 N -0.0045(2) 0.3085(2) -0.1171(2)
C13 C 0.0312(3) 0.4022(3) -0.1137(3)
C14 C -0.0216(3) 0.4513(3) -0.1982(2)
C15 C -0.0969(3) 0.3162(3) -0.1499(3)
C16 C -0.1366(3) 0.3435(3) -0.2449(3)
C17 C 0.0125(3) 0.2528(3) -0.1806(2)
C18 C -0.0112(3) 0.3066(3) -0.2626(2)
N4 N -0.0702(2) 0.3827(2) -0.2666(2)
C19 C -0.1122(2) 0.4240(3) -0.3553(2)
C20 C -0.0540(2) 0.4602(2) -0.3904(2)
O7 O -0.0912(2) 0.4757(2) -0.4701(2)
O8 O 0.0207(2) 0.4729(2) -0.3422(2)
Gd1 Gd 0.12937(1) -0.00612(1) 0.11575(1)
O9 O 0.1756(2) -0.0794(3) 0.2543(2)
O10 O 0.1846(2) 0.1133(2) 0.2269(2)
H1 H 0.3577 0.1416 0.0773
H2 H 0.3142 0.2066 0.1164
H3 H 0.4037 0.2643 0.2695
H4 H 0.4220 0.1623 0.2974
H5 H 0.5260 0.2994 0.3700
H6 H 0.5518 0.1968 0.3793
H7 H 0.4656 0.2568 0.1086
H8 H 0.4092 0.3170 0.1359
H9 H 0.5198 0.3742 0.2393
H10 H 0.5718 0.3370 0.1937
H11 H 0.5003 0.0737 0.2378
H12 H 0.5023 0.1044 0.1524
H13 H 0.6188 0.1753 0.2246
H14 H 0.6249 0.1289 0.3084
H15 H 0.6497 0.3548 0.3787
H16 H 0.6895 0.2579 0.4038
H17 H 0.0978 0.2777 -0.0068
H18 H 0.0209 0.3047 0.0086
H19 H 0.0881 0.3981 -0.1045
H20 H 0.0289 0.4360 -0.0675
H21 H 0.0147 0.4841 -0.2156
H22 H -0.0592 0.4930 -0.1909
H23 H -0.1194 0.2588 -0.1444
H24 H -0.1089 0.3611 -0.1169
H25 H -0.1787 0.3885 -0.2549
H26 H -0.1614 0.2916 -0.2806
H27 H 0.0707 0.2372 -0.1555
H28 H -0.0204 0.1984 -0.1941
H29 H 0.0385 0.3320 -0.2619
H30 H -0.0378 0.2674 -0.3115
H31 H -0.1470 0.3781 -0.3939
H32 H -0.1463 0.4734 -0.3535
O3A O 0.2135(2) -0.1328(2) 0.1223(2)
O6B O 0.0381(2) -0.1322(2) 0.0763(2)
O7A O 0.0912(2) -0.0243(2) -0.0299(2)
O8C O 0.0207(2) 0.0271(2) 0.1578(2)
Gd1A Gd 0.87063(1) 0.49388(1) 0.38425(1)
Gd1B Gd -0.12937(1) 0.00612(1) -0.11575(1)
Gd1A_2 Gd -0.12937(1) 0.49388(1) -0.61575(1)
Gd1C Gd 0.12937(1) 0.50612(1) -0.38425(1)
Cl1 Cl 0.1634(1) -0.1234(1) 0.4592(1)
O11 O 0.0817(4) -0.1223(4) 0.4473(4)
O12 O 0.1842(4) -0.2017(3) 0.4257(3)
O13 O 0.2160(3) -0.1156(3) 0.5471(3)
O14 O 0.1706(3) -0.0438(3) 0.4132(3)
Cl2 Cl -0.1772(1) 0.6348(1) -0.2001(1)
O15 O -0.2265(3) 0.6986(3) -0.1848(4)
O16 O -0.1411(4) 0.5758(4) -0.1269(3)
O17 O -0.1094(3) 0.6792(4) -0.2027(4)
O18 O -0.2177(3) 0.5779(4) -0.2687(4)
Cl3 Cl 0.3735(1) -0.0660(2) -0.0371(1)
O19 O 0.3334(3) 0.0156(2) -0.0750(3)
O20 O 0.4297(2) -0.0909(3) -0.0696(3)
O21 O 0.3136(2) -0.1351(3) -0.0546(3)
O22 O 0.4181(3) -0.0540(3) 0.0532(2)
O23 O 0.1930(3) 0.1479(3) -0.0644(3)
O24 O 0.3938(4) -0.0078(4) 0.3809(4)
O25 O 0.3948(4) -0.1776(4) 0.4546(4)
O26 O 0.4270(4) -0.0232(4) 0.5871(4)
O27 O 0.4002(4) 0.0620(4) 0.7798(4)
O28 O 0.2914(4) 0.0810(4) 0.5663(4)
O29 O 0.3103(4) 0.1315(4) 0.3905(4)
O30 O 0.4179(4) 0.2184(4) -0.0503(4)
loop_
_geom_bond_atom_site_label_1
_geom_bond_atom_site_label_2
_geom_bond_site_symmetry_1
_geom_bond_site_symmetry_2
O1 C1 1_555 1_555
O2 C1 1_555 1_555
C1 C2 1_555 1_555
C2 N1 1_555 1_555
N1 C3 1_555 1_555
C3 C4 1_555 1_555
C4 N2 1_555 1_555
C5 N1 1_555 1_555
C6 C5 1_555 1_555
C7 N1 1_555 1_555
C8 C7 1_555 1_555
N2 C6 1_555 1_555
C9 N2 1_555 1_555
C10 C9 1_555 1_555
O3 C10 1_555 1_555
O4 C10 1_555 1_555
O5 C11 1_555 1_555
O6 C11 1_555 1_555
C11 C12 1_555 1_555
C12 N3 1_555 1_555
N3 C13 1_555 1_555
C13 C14 1_555 1_555
C14 N4 1_555 1_555
C15 N3 1_555 1_555
C16 C15 1_555 1_555
C17 N3 1_555 1_555
C18 C17 1_555 1_555
N4 C16 1_555 1_555
C19 N4 1_555 1_555
C20 C19 1_555 1_555
O7 C20 1_555 1_555
O8 C20 1_555 1_555
Gd1 O1 1_555 1_555
O9 Gd1 1_555 1_555
O10 Gd1 1_555 1_555
Cl1 O11 1_555 1_555
O12 Cl1 1_555 1_555
O13 Cl1 1_555 1_555
O14 Cl1 1_555 1_555
Cl2 O15 1_555 1_555
O16 Cl2 1_555 1_555
O17 Cl2 1_555 1_555
O18 Cl2 1_555 1_555
Cl3 O19 1_555 1_555
O20 Cl3 1_555 1_555
O21 Cl3 1_555 1_555
O22 Cl3 1_555 1_555
H1 C2 1_555 1_555
H2 C2 1_555 1_555
H3 C3 1_555 1_555
H4 C3 1_555 1_555
H5 C4 1_555 1_555
H6 C4 1_555 1_555
H7 C5 1_555 1_555
H8 C5 1_555 1_555
H9 C6 1_555 1_555
H10 C6 1_555 1_555
H11 C7 1_555 1_555
H12 C7 1_555 1_555
H13 C8 1_555 1_555
H14 C8 1_555 1_555
H15 C9 1_555 1_555
H16 C9 1_555 1_555
H17 C12 1_555 1_555
H18 C12 1_555 1_555
H19 C13 1_555 1_555
H20 C13 1_555 1_555
H21 C14 1_555 1_555
H22 C14 1_555 1_555
H23 C15 1_555 1_555
H24 C15 1_555 1_555
H25 C16 1_555 1_555
H26 C16 1_555 1_555
H27 C17 1_555 1_555
H28 C17 1_555 1_555
H29 C18 1_555 1_555
H30 C18 1_555 1_555
H31 C19 1_555 1_555
H32 C19 1_555 1_555
O3A Gd1 1_555 1_555
O6B Gd1 1_555 1_555
O7A Gd1 1_555 1_555
O8C Gd1 1_555 1_555
Gd1A O3 1_555 1_555
Gd1B O6 1_555 1_555
Gd1A_2 O7 1_555 1_555
Gd1C O8 1_555 1_555
C8 N2 1_555 1_555
O5 Gd1 1_555 1_555
C18 N4 1_555 1_555

#END
