
#######################################################################
#
#                 Cambridge Crystallographic Data Centre
#                                CCDC 
#
#######################################################################
#
# If this CIF has been generated from an entry in the Cambridge 
# Structural Database, then it will include bibliographic, chemical, 
# crystal, experimental, refinement or atomic coordinate data resulting 
# from the CCDC's data processing and validation procedures.
#
#######################################################################

data_HEYBIX
_chemical_formula_moiety         '(C3 H6 F2 N3 Nb1 O16 P4 Zn3 4-)n'
_symmetry_cell_setting           orthorhombic
_symmetry_space_group_name_H-M   'F d d d'
_symmetry_Int_Tables_number      70
_space_group_name_Hall           '-F 2uv 2vw'
loop_
_symmetry_equiv_pos_site_id
_symmetry_equiv_pos_as_xyz
1 x,y,z
2 x,1/2+y,1/2+z
3 x,1/4-y,1/4-z
4 1/2+x,y,1/2+z
5 1/4-x,y,1/4-z
6 1/2+x,1/2+y,z
7 1/4-x,1/4-y,z
8 3/4-x,3/4-y,z
9 3/4-x,y,3/4-z
10 x,3/4-y,3/4-z
11 3/4-x,1/4-y,1/2+z
12 3/4-x,1/2+y,1/4-z
13 1/4-x,3/4-y,1/2+z
14 1/2+x,3/4-y,1/4-z
15 1/4-x,1/2+y,3/4-z
16 1/2+x,1/4-y,3/4-z
17 -x,-y,-z
18 -x,1/2-y,1/2-z
19 -x,3/4+y,3/4+z
20 1/2-x,-y,1/2-z
21 3/4+x,-y,3/4+z
22 1/2-x,1/2-y,-z
23 3/4+x,3/4+y,-z
24 1/4+x,1/4+y,-z
25 1/4+x,-y,1/4+z
26 -x,1/4+y,1/4+z
27 1/4+x,3/4+y,1/2-z
28 1/4+x,1/2-y,3/4+z
29 3/4+x,1/4+y,1/2-z
30 1/2-x,1/4+y,3/4+z
31 3/4+x,1/2-y,1/4+z
32 1/2-x,3/4+y,1/4+z
_cell_length_a                   9.1928(2)
_cell_length_b                   14.2090(1)
_cell_length_c                   32.2971(6)
_cell_angle_alpha                90
_cell_angle_beta                 90
_cell_angle_gamma                90
_cell_volume                     4218.66
loop_
_atom_site_label
_atom_site_type_symbol
_atom_site_fract_x
_atom_site_fract_y
_atom_site_fract_z
C1 C 0.051(3) 0.141(2) 0.4235(9)
C2 C 0.1250 0.1250 0.4601(7)
N1 N 0.1250 0.1250 0.3832(4)
N2 N 0.249(2) 0.2054(16) 0.4661(7)
H1 H 0.2962 0.1953 0.4897
H2 H 0.2066 0.2618 0.4669
H3 H 0.3109 0.2031 0.4450
C1F C 0.199(3) 0.109(2) 0.4235(9)
N2F N 0.001(2) 0.0446(16) 0.4661(7)
H1F H -0.0462 0.0547 0.4897
H2F H 0.0434 -0.0118 0.4669
H3F H -0.0609 0.0469 0.4450
Nb1 Nb -0.8750 0.1250 0.6250
Zn1 Zn -0.3750 0.1250 0.49133(6)
Zn2 Zn -0.3750 0.1250 0.6250
P1 P -0.6060(3) 0.0656(2) 0.55978(9)
F1 F -0.8750 -0.0104(9) 0.6250
O1 O -0.7216(10) 0.1295(8) 0.5819(3)
O2 O -0.4865(9) 0.0389(6) 0.5907(3)
O3 O -0.5525(10) 0.1256(9) 0.5236(3)
O4 O -0.6810(10) -0.0223(7) 0.5448(3)
Zn1B Zn -0.3750 0.1250 0.75867(6)
Zn1P Zn -0.6250 -0.1250 0.50867(6)
Zn1Y Zn -0.6250 0.3750 0.74133(6)
Zn1B_2 Zn -1.3750 0.1250 0.75867(6)
Zn1X Zn -1.1250 -0.1250 0.74133(6)
Zn1_2 Zn -1.3750 0.1250 0.49133(6)
Zn1W Zn -1.1250 0.3750 0.50867(6)
Zn2_2 Zn -1.3750 0.1250 0.6250
P1B P -0.6060(3) 0.1844(2) 0.69022(9)
P1D P -1.1440(3) 0.0656(2) 0.69022(9)
P1F P -1.1440(3) 0.1844(2) 0.55978(9)
F1B F -0.8750 0.2604(9) 0.6250
O1B O -0.7216(10) 0.1205(8) 0.6681(3)
O1D O -1.0284(10) 0.1295(8) 0.6681(3)
O1F O -1.0284(10) 0.1205(8) 0.5819(3)
O2B O -0.4865(9) 0.2111(6) 0.6593(3)
O2D O -1.2635(9) 0.0389(6) 0.6593(3)
O2F O -1.2635(9) 0.2111(6) 0.5907(3)
O2D_2 O -0.2635(9) 0.0389(6) 0.6593(3)
O2F_2 O -0.2635(9) 0.2111(6) 0.5907(3)
O3B O -0.5525(10) 0.1244(9) 0.7264(3)
O3D O -1.1975(10) 0.1256(9) 0.7264(3)
O3F O -1.1975(10) 0.1244(9) 0.5236(3)
O3F_2 O -0.1975(10) 0.1244(9) 0.5236(3)
O3D_2 O -0.1975(10) 0.1256(9) 0.7264(3)
O4B O -0.6810(10) 0.2723(7) 0.7052(3)
O4D O -1.0690(10) -0.0223(7) 0.7052(3)
O4F O -1.0690(10) 0.2723(7) 0.5448(3)
O4W O -0.4310(10) 0.2277(7) 0.4552(3)
O4P O -0.3190(10) 0.0223(7) 0.4552(3)
O4X O -0.4310(10) 0.0223(7) 0.7948(3)
O4Y O -0.3190(10) 0.2277(7) 0.7948(3)
loop_
_geom_bond_atom_site_label_1
_geom_bond_atom_site_label_2
_geom_bond_site_symmetry_1
_geom_bond_site_symmetry_2
Nb1 F1 1_555 1_555
Zn1 O3 1_555 1_555
Zn2 O2 1_555 1_555
P1 O1 1_555 1_555
O1 Nb1 1_555 1_555
O2 P1 1_555 1_555
O3 P1 1_555 1_555
O4 P1 1_555 1_555
C1 C2 1_555 1_555
C2 N2 1_555 1_555
N1 C1 1_555 1_555
N2 H1 1_555 1_555
H2 N2 1_555 1_555
H3 N2 1_555 1_555
Zn1B O3B 1_555 1_555
Zn1P O4 1_555 1_555
Zn1Y O4B 1_555 1_555
Zn1B_2 O3D 1_555 1_555
Zn1X O4D 1_555 1_555
Zn1_2 O3F 1_555 1_555
Zn1W O4F 1_555 1_555
Zn2_2 O2D 1_555 1_555
P1B O1B 1_555 1_555
P1D O1D 1_555 1_555
P1F O1F 1_555 1_555
F1B Nb1 1_555 1_555
O1B Nb1 1_555 1_555
O1D Nb1 1_555 1_555
O1F Nb1 1_555 1_555
O2B Zn2 1_555 1_555
O2D P1D 1_555 1_555
O2F Zn2_2 1_555 1_555
O2D_2 Zn2 1_555 1_555
O2F_2 Zn2 1_555 1_555
O3B P1B 1_555 1_555
O3D P1D 1_555 1_555
O3F P1F 1_555 1_555
O3F_2 Zn1 1_555 1_555
O3D_2 Zn1B 1_555 1_555
O4B P1B 1_555 1_555
O4D P1D 1_555 1_555
O4F P1F 1_555 1_555
O4W Zn1 1_555 1_555
O4P Zn1 1_555 1_555
O4X Zn1B 1_555 1_555
O4Y Zn1B 1_555 1_555
C1F C1 1_555 1_555
N2F C2 1_555 1_555
H1F N2F 1_555 1_555
H2F N2F 1_555 1_555
H3F N2F 1_555 1_555
C2 C1F 1_555 1_555
N1 C1F 1_555 1_555
P1B O2B 1_555 1_555
P1F O2F 1_555 1_555

#END
