
#######################################################################
#
#                 Cambridge Crystallographic Data Centre
#                                CCDC 
#
#######################################################################
#
# If this CIF has been generated from an entry in the Cambridge 
# Structural Database, then it will include bibliographic, chemical, 
# crystal, experimental, refinement or atomic coordinate data resulting 
# from the CCDC's data processing and validation procedures.
#
#######################################################################

data_EMUBIZ
_chemical_formula_moiety         '(C7 H5 Cu2 I1 N1 O5)n'
_symmetry_cell_setting           tetragonal
_symmetry_space_group_name_H-M   'P 4/n m m'
_symmetry_Int_Tables_number      129
_space_group_name_Hall           '-P 4a 2a'
loop_
_symmetry_equiv_pos_site_id
_symmetry_equiv_pos_as_xyz
1 x,y,z
2 1/2-x,1/2-y,z
3 1/2-y,x,z
4 y,1/2-x,z
5 -x,1/2+y,-z
6 1/2+x,-y,-z
7 1/2+y,1/2+x,-z
8 -y,-x,-z
9 -x,-y,-z
10 1/2+x,1/2+y,-z
11 1/2+y,-x,-z
12 -y,1/2+x,-z
13 x,1/2-y,z
14 1/2-x,y,z
15 1/2-y,1/2-x,z
16 y,x,z
_cell_length_a                   19.210(5)
_cell_length_b                   19.210(5)
_cell_length_c                   10.994(3)
_cell_angle_alpha                90
_cell_angle_beta                 90
_cell_angle_gamma                90
_cell_volume                     4057.05
loop_
_atom_site_label
_atom_site_type_symbol
_atom_site_fract_x
_atom_site_fract_y
_atom_site_fract_z
_atom_site_U_iso_or_equiv
_atom_site_thermal_displace_type
I1 I 0.62904(2) 0.2500 -0.13589(5) 0.0551 Uani
Cu1 Cu 0.68147(5) 0.2500 0.08659(9) 0.0562 Uani
Cu2 Cu 0.46954(2) 0.46954(2) 0.59500(7) 0.0280 Uani
O1 O 0.42899(19) 0.42899(19) 0.7633(5) 0.0743 Uani
O2 O 0.48383(16) 0.38168(14) 0.5082(3) 0.0423 Uani
O3 O 0.53560(16) 0.43335(14) 0.3506(3) 0.0438 Uani
N1 N 0.6038(3) 0.2500 0.2125(6) 0.0490 Uani
C1 C 0.5797(3) 0.3096(2) 0.2599(4) 0.0480 Uani
H1 H 0.5943 0.3514 0.2259 0.0580 Uiso
C2 C 0.5342(2) 0.3116(2) 0.3568(4) 0.0360 Uani
C3 C 0.5115(3) 0.2500 0.4069(6) 0.0367 Uani
H2 H 0.4814 0.2500 0.4732 0.0440 Uiso
C4 C 0.5149(2) 0.3814(2) 0.4095(5) 0.0363 Uani
O2L O 0.48383(16) 0.11832(14) 0.5082(3) 0.0423 Uani
O3L O 0.53560(16) 0.06665(14) 0.3506(3) 0.0438 Uani
C1L C 0.5797(3) 0.1904(2) 0.2599(4) 0.0480 Uani
H1L H 0.5943 0.1486 0.2259 0.0580 Uiso
C2L C 0.5342(2) 0.1884(2) 0.3568(4) 0.0360 Uani
C4L C 0.5149(2) 0.1186(2) 0.4095(5) 0.0363 Uani
I1F I 0.7500 0.12904(2) 0.13589(5) 0.0551 Uani
I1G I 0.7500 0.37096(2) 0.13589(5) 0.0551 Uani
Cu1F Cu 0.7500 0.18147(5) -0.08659(9) 0.0562 Uani
Cu1G Cu 0.7500 0.31853(5) -0.08659(9) 0.0562 Uani
Cu2C Cu 0.46954(2) 0.03046(2) 0.59500(7) 0.0280 Uani
Cu2D Cu 0.53046(2) -0.03046(2) 0.40500(7) 0.0280 Uani
Cu2G Cu 0.53046(2) 0.53046(2) 0.40500(7) 0.0280 Uani
O2O O 0.38168(14) 0.48383(16) 0.5082(3) 0.0423 Uani
O3G O 0.56665(14) 0.46440(16) 0.6494(3) 0.0438 Uani
O3H O 0.46440(16) 0.56665(14) 0.6494(3) 0.0438 Uani
loop_
_atom_site_aniso_label
_atom_site_aniso_U_11
_atom_site_aniso_U_22
_atom_site_aniso_U_33
_atom_site_aniso_U_23
_atom_site_aniso_U_13
_atom_site_aniso_U_12
I1 0.0316(3) 0.0652(4) 0.0684(4) 0.000 -0.0042(2) 0.000
Cu1 0.0681(6) 0.0423(5) 0.0582(6) 0.000 0.0291(5) 0.000
Cu2 0.0244(3) 0.0244(3) 0.0351(4) 0.0059(2) 0.0059(2) 0.0044(3)
O1 0.069(2) 0.069(2) 0.085(4) 0.021(2) 0.021(2) -0.013(3)
O2 0.0473(19) 0.0276(16) 0.052(2) -0.0005(15) 0.0201(17) 0.0021(14)
O3 0.059(2) 0.0223(16) 0.050(2) 0.0028(15) 0.0137(16) 0.0041(14)
N1 0.065(4) 0.021(3) 0.061(4) 0.000 0.028(3) 0.000
C1 0.068(3) 0.026(2) 0.050(3) 0.002(2) 0.019(3) -0.002(2)
C2 0.042(3) 0.026(2) 0.040(3) -0.003(2) 0.008(2) 0.0000(19)
C3 0.038(4) 0.027(3) 0.045(4) 0.000 0.009(3) 0.000
C4 0.033(2) 0.023(2) 0.053(3) 0.000(2) 0.004(2) 0.0024(18)
O2L 0.0473 0.0276 0.052 0.0005 0.0201 -0.0021
O3L 0.059 0.0223 0.05 -0.0028 0.0137 -0.0041
C1L 0.068 0.026 0.05 -0.002 0.019 0.002
C2L 0.042 0.026 0.04 0.003 0.008 0
C4L 0.033 0.023 0.053 0 0.004 -0.0024
I1F 0.0652 0.0316 0.0684 0.0042 0 0
I1G 0.0652 0.0316 0.0684 -0.0042 0 0
Cu1F 0.0423 0.0681 0.0582 -0.0291 0 0
Cu1G 0.0423 0.0681 0.0582 0.0291 0 0
Cu2C 0.0244 0.0244 0.0351 -0.0059 0.0059 -0.0044
Cu2D 0.0244 0.0244 0.0351 -0.0059 0.0059 -0.0044
Cu2G 0.0244 0.0244 0.0351 0.0059 0.0059 0.0044
O2O 0.0276 0.0473 0.052 0.0201 -0.0005 0.0021
O3G 0.0223 0.059 0.05 0.0137 0.0028 0.0041
O3H 0.059 0.0223 0.05 0.0028 0.0137 0.0041
loop_
_geom_bond_atom_site_label_1
_geom_bond_atom_site_label_2
_geom_bond_site_symmetry_1
_geom_bond_site_symmetry_2
I1 Cu1 1_555 1_555
Cu1 N1 1_555 1_555
Cu2 O1 1_555 1_555
O2 Cu2 1_555 1_555
O3 C4 1_555 1_555
N1 C1 1_555 1_555
C1 H1 1_555 1_555
C2 C1 1_555 1_555
C3 C2 1_555 1_555
H2 C3 1_555 1_555
C4 O2 1_555 1_555
O2L C4L 1_555 1_555
O3L C4L 1_555 1_555
C1L N1 1_555 1_555
H1L C1L 1_555 1_555
C2L C3 1_555 1_555
C4L C2L 1_555 1_555
I1F Cu1 1_555 1_555
I1G Cu1 1_555 1_555
Cu1F I1 1_555 1_555
Cu1G I1 1_555 1_555
Cu2C O2L 1_555 1_555
Cu2D O3L 1_555 1_555
Cu2G O3 1_555 1_555
O2O Cu2 1_555 1_555
O3G Cu2 1_555 1_555
O3H Cu2 1_555 1_555
C2 C4 1_555 1_555
C1L C2L 1_555 1_555
I1F Cu1F 1_555 1_555
I1G Cu1G 1_555 1_555

#END
