
#######################################################################
#
#                 Cambridge Crystallographic Data Centre
#                                CCDC 
#
#######################################################################
#
# If this CIF has been generated from an entry in the Cambridge 
# Structural Database, then it will include bibliographic, chemical, 
# crystal, experimental, refinement or atomic coordinate data resulting 
# from the CCDC's data processing and validation procedures.
#
#######################################################################

data_REYBAA
_chemical_formula_moiety         '(C44 H34 N8 O12 Zn2)n'
_symmetry_cell_setting           monoclinic
_symmetry_space_group_name_H-M   'P 21/n'
_symmetry_Int_Tables_number      14
_space_group_name_Hall           '-P 2yn'
loop_
_symmetry_equiv_pos_site_id
_symmetry_equiv_pos_as_xyz
1 x,y,z
2 1/2-x,1/2+y,1/2-z
3 -x,-y,-z
4 1/2+x,1/2-y,1/2+z
_cell_length_a                   8.158(2)
_cell_length_b                   17.418(4)
_cell_length_c                   17.558(4)
_cell_angle_alpha                90
_cell_angle_beta                 98.280(3)
_cell_angle_gamma                90
_cell_volume                     2468.92
loop_
_atom_site_label
_atom_site_type_symbol
_atom_site_fract_x
_atom_site_fract_y
_atom_site_fract_z
C1 C -0.0570(7) 0.6614(3) 0.1604(3)
C2 C -0.1808(6) 0.6628(3) 0.0885(3)
C3 C -0.1509(7) 0.7022(3) 0.0248(3)
H1 H -0.0509 0.7279 0.0253
C4 C -0.2683(7) 0.7044(3) -0.0404(3)
C5 C -0.2312(8) 0.7472(4) -0.1108(4)
C6 C -0.4162(7) 0.6661(3) -0.0421(3)
H2 H -0.4942 0.6665 -0.0863
C7 C -0.4473(7) 0.6268(4) 0.0232(3)
C8 C -0.3289(7) 0.6244(3) 0.0885(3)
H3 H -0.3491 0.5972 0.1317
C9 C -0.7165(8) 0.5876(5) -0.0343(4)
H4 H -0.6747 0.5654 -0.0784
H5 H -0.7510 0.6398 -0.0471
C10 C -0.8628(7) 0.5413(3) -0.0158(4)
C11 C -1.0025(8) 0.5369(4) -0.0685(4)
H6 H -1.0059 0.5623 -0.1154
C12 C -0.8618(8) 0.5040(4) 0.0540(4)
H7 H -0.7686 0.5068 0.0912
C13 C 0.5733(8) 0.7740(4) 0.2538(4)
H8 H 0.5856 0.7598 0.3053
C14 C 0.7023(9) 0.8113(4) 0.2281(5)
H9 H 0.7993 0.8212 0.2614
C15 C 0.6865(8) 0.8342(4) 0.1514(4)
C16 C 0.5354(9) 0.8185(4) 0.1052(4)
H10 H 0.5176 0.8343 0.0541
C17 C 0.4137(8) 0.7797(4) 0.1357(4)
H11 H 0.3153 0.7688 0.1038
C18 C 1.0286(8) 0.9430(4) 0.1887(4)
C19 C 1.1984(9) 0.9517(4) 0.2146(6)
H12 H 1.2692 0.9096 0.2176
C20 C 1.2595(8) 1.0249(5) 0.2360(4)
H13 H 1.3723 1.0302 0.2527
C21 C 1.0024(8) 1.0773(4) 0.2112(4)
H14 H 0.9342 1.1201 0.2111
C22 C 0.9314(9) 1.0073(4) 0.1883(5)
H15 H 0.8178 1.0038 0.1727
N1 N 0.4297(6) 0.7566(3) 0.2094(3)
N2 N 0.8104(7) 0.8707(3) 0.1207(4)
N3 N 0.9671(7) 0.8732(3) 0.1633(5)
N4 N 1.1672(6) 1.0859(3) 0.2336(3)
O1 O 0.0733(5) 0.7040(2) 0.1593(2)
O2 O -0.0803(5) 0.6224(3) 0.2163(2)
O3 O -0.0961(6) 0.7811(3) -0.1098(3)
O4 O -0.3397(5) 0.7468(3) -0.1699(2)
O5 O -0.5905(5) 0.5877(3) 0.0297(3)
Zn1 Zn 0.24581(8) 0.69417(4) 0.24826(4)
C1B C -1.9430(7) 0.3386(3) -0.1604(3)
C2B C -1.8192(6) 0.3372(3) -0.0885(3)
C3B C -1.8491(7) 0.2978(3) -0.0248(3)
H1B H -1.9491 0.2721 -0.0253
C4B C -1.7317(7) 0.2956(3) 0.0404(3)
C5B C -1.7688(8) 0.2528(4) 0.1108(4)
C6B C -1.5838(7) 0.3339(3) 0.0421(3)
H2B H -1.5058 0.3335 0.0863
C7B C -1.5527(7) 0.3732(4) -0.0232(3)
C8B C -1.6711(7) 0.3756(3) -0.0885(3)
H3B H -1.6509 0.4028 -0.1317
C9B C -1.2835(8) 0.4124(5) 0.0343(4)
H4B H -1.3253 0.4346 0.0784
H5B H -1.2490 0.3602 0.0471
C10B C -1.1372(7) 0.4587(3) 0.0158(4)
C11B C -0.9975(8) 0.4631(4) 0.0685(4)
H6B H -0.9941 0.4377 0.1154
C12B C -1.1382(8) 0.4960(4) -0.0540(4)
H7B H -1.2314 0.4932 -0.0912
O1B O -2.0733(5) 0.2960(2) -0.1593(2)
O2B O -1.9197(5) 0.3776(3) -0.2163(2)
O3B O -1.9039(6) 0.2189(3) 0.1098(3)
O4B O -1.6603(5) 0.2532(3) 0.1699(2)
O5B O -1.4095(5) 0.4123(3) -0.0297(3)
C13B C -2.5733(8) 0.2260(4) -0.2538(4)
H8B H -2.5856 0.2402 -0.3053
C14B C -2.7023(9) 0.1887(4) -0.2281(5)
H9B H -2.7993 0.1788 -0.2614
C15B C -2.6865(8) 0.1658(4) -0.1514(4)
C16B C -2.5354(9) 0.1815(4) -0.1052(4)
H10B H -2.5176 0.1657 -0.0541
C17B C -2.4137(8) 0.2203(4) -0.1357(4)
H11B H -2.3153 0.2312 -0.1038
C18B C -3.0286(8) 0.0570(4) -0.1887(4)
C19B C -3.1984(9) 0.0483(4) -0.2146(6)
H12B H -3.2692 0.0904 -0.2176
C20B C -3.2595(8) -0.0249(5) -0.2360(4)
H13B H -3.3723 -0.0302 -0.2527
C21B C -3.0024(8) -0.0773(4) -0.2112(4)
H14B H -2.9342 -0.1201 -0.2111
C22B C -2.9314(9) -0.0073(4) -0.1883(5)
H15B H -2.8178 -0.0038 -0.1727
N1B N -2.4297(6) 0.2434(3) -0.2094(3)
N2B N -2.8104(7) 0.1293(3) -0.1207(4)
N3B N -2.9671(7) 0.1268(3) -0.1633(5)
N4B N -3.1672(6) -0.0859(3) -0.2336(3)
Zn1B Zn -2.24581(8) 0.30583(4) -0.24826(4)
N4A N 0.3328(6) 0.5859(3) 0.2664(3)
N4C N -2.3328(6) 0.4141(3) -0.2664(3)
O4A O -2.1603(5) 0.2468(3) -0.3301(2)
O4C O 0.1603(5) 0.7532(3) 0.3301(2)
Zn1A Zn -1.74581(8) 0.19417(4) 0.25174(4)
Zn1A_2 Zn 1.25419(8) 1.19417(4) 0.25174(4)
Zn1C Zn -3.25419(8) -0.19417(4) -0.25174(4)
Zn1C_2 Zn -0.25419(8) 0.80583(4) -0.25174(4)
O6 O 0.9071(12) 0.6393(8) 0.3691(5)
O7 O 0.1931(15) 0.8339(11) 0.9723(7)
loop_
_geom_bond_atom_site_label_1
_geom_bond_atom_site_label_2
_geom_bond_site_symmetry_1
_geom_bond_site_symmetry_2
C1 C2 1_555 1_555
C2 C3 1_555 1_555
C3 H1 1_555 1_555
C4 C3 1_555 1_555
C5 C4 1_555 1_555
C6 C4 1_555 1_555
H2 C6 1_555 1_555
C7 C6 1_555 1_555
C8 C2 1_555 1_555
H3 C8 1_555 1_555
C9 H4 1_555 1_555
H5 C9 1_555 1_555
C10 C9 1_555 1_555
C11 C10 1_555 1_555
H6 C11 1_555 1_555
C12 C10 1_555 1_555
H7 C12 1_555 1_555
C13 H8 1_555 1_555
C14 C13 1_555 1_555
H9 C14 1_555 1_555
C15 C14 1_555 1_555
C16 C15 1_555 1_555
H10 C16 1_555 1_555
C17 C16 1_555 1_555
H11 C17 1_555 1_555
C18 C19 1_555 1_555
C19 H12 1_555 1_555
C20 C19 1_555 1_555
H13 C20 1_555 1_555
C21 H14 1_555 1_555
C22 C18 1_555 1_555
H15 C22 1_555 1_555
N1 C13 1_555 1_555
N2 C15 1_555 1_555
N3 C18 1_555 1_555
N4 C20 1_555 1_555
O1 C1 1_555 1_555
O2 C1 1_555 1_555
O3 C5 1_555 1_555
O4 C5 1_555 1_555
O5 C7 1_555 1_555
Zn1 N1 1_555 1_555
C1B C2B 1_555 1_555
C2B C3B 1_555 1_555
C3B H1B 1_555 1_555
C4B C3B 1_555 1_555
C5B C4B 1_555 1_555
C6B C4B 1_555 1_555
H2B C6B 1_555 1_555
C7B C6B 1_555 1_555
C8B C2B 1_555 1_555
H3B C8B 1_555 1_555
C9B H4B 1_555 1_555
H5B C9B 1_555 1_555
C10B C9B 1_555 1_555
C11B C12 1_555 1_555
H6B C11B 1_555 1_555
C12B C11 1_555 1_555
H7B C12B 1_555 1_555
O1B C1B 1_555 1_555
O2B C1B 1_555 1_555
O3B C5B 1_555 1_555
O4B C5B 1_555 1_555
O5B C7B 1_555 1_555
C13B H8B 1_555 1_555
C14B C13B 1_555 1_555
H9B C14B 1_555 1_555
C15B C14B 1_555 1_555
C16B C15B 1_555 1_555
H10B C16B 1_555 1_555
C17B C16B 1_555 1_555
H11B C17B 1_555 1_555
C18B C19B 1_555 1_555
C19B H12B 1_555 1_555
C20B C19B 1_555 1_555
H13B C20B 1_555 1_555
C21B H14B 1_555 1_555
C22B C18B 1_555 1_555
H15B C22B 1_555 1_555
N1B C13B 1_555 1_555
N2B C15B 1_555 1_555
N3B C18B 1_555 1_555
N4B C20B 1_555 1_555
Zn1B O1B 1_555 1_555
N4A Zn1 1_555 1_555
N4C Zn1B 1_555 1_555
O4A Zn1B 1_555 1_555
O4C Zn1 1_555 1_555
Zn1A O4B 1_555 1_555
Zn1A_2 N4 1_555 1_555
Zn1C N4B 1_555 1_555
Zn1C_2 O4 1_555 1_555
C7 C8 1_555 1_555
C9 O5 1_555 1_555
C17 N1 1_555 1_555
C21 C22 1_555 1_555
C21 N4 1_555 1_555
N2 N3 1_555 1_555
O1 Zn1 1_555 1_555
C7B C8B 1_555 1_555
C9B O5B 1_555 1_555
C10B C11B 1_555 1_555
C10B C12B 1_555 1_555
C17B N1B 1_555 1_555
C21B C22B 1_555 1_555
C21B N4B 1_555 1_555
N1B Zn1B 1_555 1_555
N2B N3B 1_555 1_555

#END
