
#######################################################################
#
#                 Cambridge Crystallographic Data Centre
#                                CCDC 
#
#######################################################################
#
# If this CIF has been generated from an entry in the Cambridge 
# Structural Database, then it will include bibliographic, chemical, 
# crystal, experimental, refinement or atomic coordinate data resulting 
# from the CCDC's data processing and validation procedures.
#
#######################################################################

data_XAWVUN
_chemical_formula_moiety         '(C34 H24 Cu2 N2 O10)n'
_symmetry_cell_setting           orthorhombic
_symmetry_space_group_name_H-M   'C c c m'
_symmetry_Int_Tables_number      66
_space_group_name_Hall           '-C 2 2c'
loop_
_symmetry_equiv_pos_site_id
_symmetry_equiv_pos_as_xyz
1 x,y,z
2 1/2+x,1/2+y,z
3 -x,-y,z
4 -x,y,1/2-z
5 x,-y,1/2-z
6 1/2-x,1/2-y,z
7 1/2-x,1/2+y,1/2-z
8 1/2+x,1/2-y,1/2-z
9 -x,-y,-z
10 1/2-x,1/2-y,-z
11 x,y,-z
12 x,-y,1/2+z
13 -x,y,1/2+z
14 1/2+x,1/2+y,-z
15 1/2+x,1/2-y,1/2+z
16 1/2-x,1/2+y,1/2+z
_cell_length_a                   15.2563(12)
_cell_length_b                   28.288(2)
_cell_length_c                   23.5937(18)
_cell_angle_alpha                90
_cell_angle_beta                 90
_cell_angle_gamma                90
_cell_volume                     10182.3
loop_
_atom_site_label
_atom_site_type_symbol
_atom_site_fract_x
_atom_site_fract_y
_atom_site_fract_z
_atom_site_U_iso_or_equiv
_atom_site_thermal_displace_type
Cu1 Cu 0.18480(2) 0.280884(13) 0.5000 0.0526 Uani
O1 O 0.13704(12) 0.23901(6) 0.44164(7) 0.0708 Uani
O2 O 0.24633(12) 0.18640(6) 0.44163(7) 0.0727 Uani
O3 O 0.0772(2) 0.32903(12) 0.5000 0.1170 Uani
N1 N -0.0000 0.09965(9) 0.2500 0.0668 Uani
C1 C 0.17424(19) 0.20260(9) 0.42401(10) 0.0625 Uani
C2 C 0.12925(17) 0.17528(8) 0.37845(10) 0.0627 Uani
C3 C 0.16682(18) 0.13474(9) 0.35618(11) 0.0762 Uani
H1 H 0.2204 0.1240 0.3699 0.0910 Uiso
C4 C 0.12405(19) 0.10998(9) 0.31298(11) 0.0767 Uani
H2 H 0.1502 0.0833 0.2973 0.0920 Uiso
C5 C 0.04298(19) 0.12482(8) 0.29343(10) 0.0683 Uani
C6 C 0.00706(18) 0.16511(9) 0.31574(12) 0.0772 Uani
H3 H -0.0469 0.1757 0.3026 0.0930 Uiso
C7 C 0.04975(19) 0.19018(9) 0.35739(12) 0.0802 Uani
H4 H 0.0245 0.2177 0.3716 0.0960 Uiso
C8 C 0.0000 0.04979(11) 0.2500 0.0575 Uani
C9 C -0.00185(17) 0.02439(8) 0.29995(10) 0.0670 Uani
H5 H -0.0057 0.0404 0.3343 0.0800 Uiso
Cu1C Cu -0.18480(2) 0.280884(13) 0.0000 0.0526 Uani
Cu1E Cu 0.31520(2) 0.219116(13) 0.5000 0.0526 Uani
Cu1G Cu -0.31520(2) 0.219116(13) 0.0000 0.0526 Uani
Cu1B Cu -0.18480(2) -0.280884(13) 0.5000 0.0526 Uani
Cu1A Cu -0.31520(2) -0.219116(13) 0.5000 0.0526 Uani
Cu1D Cu 0.18480(2) -0.280884(13) 0.0000 0.0526 Uani
Cu1F Cu 0.31520(2) -0.219116(13) 0.0000 0.0526 Uani
O1C O -0.13704(12) 0.23901(6) 0.05836(7) 0.0708 Uani
O1B O -0.13704(12) -0.23901(6) 0.44164(7) 0.0708 Uani
O1D O 0.13704(12) -0.23901(6) 0.05836(7) 0.0708 Uani
O1J O 0.13704(12) 0.23901(6) 0.55836(7) 0.0708 Uani
O1L O -0.13704(12) 0.23901(6) -0.05836(7) 0.0708 Uani
O2C O -0.24633(12) 0.18640(6) 0.05837(7) 0.0727 Uani
O2B O -0.24633(12) -0.18640(6) 0.44163(7) 0.0727 Uani
O2D O 0.24633(12) -0.18640(6) 0.05837(7) 0.0727 Uani
O2I O 0.25367(12) 0.31360(6) 0.55837(7) 0.0727 Uani
O2E O 0.25367(12) 0.31360(6) 0.44163(7) 0.0727 Uani
O2N O -0.25367(12) 0.31360(6) -0.05837(7) 0.0727 Uani
O2G O -0.25367(12) 0.31360(6) 0.05837(7) 0.0727 Uani
O3C O -0.0772(2) 0.32903(12) 0.0000 0.1170 Uani
N1B N 0.0000 -0.09965(9) 0.2500 0.0668 Uani
C1C C -0.17424(19) 0.20260(9) 0.07599(10) 0.0625 Uani
C1B C -0.17424(19) -0.20260(9) 0.42401(10) 0.0625 Uani
C1D C 0.17424(19) -0.20260(9) 0.07599(10) 0.0625 Uani
C2C C -0.12925(17) 0.17528(8) 0.12155(10) 0.0627 Uani
C2B C -0.12925(17) -0.17528(8) 0.37845(10) 0.0627 Uani
C2D C 0.12925(17) -0.17528(8) 0.12155(10) 0.0627 Uani
C3C C -0.16682(18) 0.13474(9) 0.14382(11) 0.0762 Uani
C3B C -0.16682(18) -0.13474(9) 0.35618(11) 0.0762 Uani
C3D C 0.16682(18) -0.13474(9) 0.14382(11) 0.0762 Uani
H1C H -0.2204 0.1240 0.1301 0.0910 Uiso
H1B H -0.2204 -0.1240 0.3699 0.0910 Uiso
H1D H 0.2204 -0.1240 0.1301 0.0910 Uiso
C4C C -0.12405(19) 0.10998(9) 0.18702(11) 0.0767 Uani
C4B C -0.12405(19) -0.10998(9) 0.31298(11) 0.0767 Uani
C4D C 0.12405(19) -0.10998(9) 0.18702(11) 0.0767 Uani
H2C H -0.1502 0.0833 0.2027 0.0920 Uiso
H2B H -0.1502 -0.0833 0.2973 0.0920 Uiso
H2D H 0.1502 -0.0833 0.2027 0.0920 Uiso
C5C C -0.04298(19) 0.12482(8) 0.20657(10) 0.0683 Uani
C5B C -0.04298(19) -0.12482(8) 0.29343(10) 0.0683 Uani
C5D C 0.04298(19) -0.12482(8) 0.20657(10) 0.0683 Uani
C6C C -0.00706(18) 0.16511(9) 0.18426(12) 0.0772 Uani
C6B C -0.00706(18) -0.16511(9) 0.31574(12) 0.0772 Uani
C6D C 0.00706(18) -0.16511(9) 0.18426(12) 0.0772 Uani
H3C H 0.0469 0.1757 0.1974 0.0930 Uiso
H3B H 0.0469 -0.1757 0.3026 0.0930 Uiso
H3D H -0.0469 -0.1757 0.1974 0.0930 Uiso
C7C C -0.04975(19) 0.19018(9) 0.14261(12) 0.0802 Uani
C7B C -0.04975(19) -0.19018(9) 0.35739(12) 0.0802 Uani
C7D C 0.04975(19) -0.19018(9) 0.14261(12) 0.0802 Uani
H4C H -0.0245 0.2177 0.1284 0.0960 Uiso
H4B H -0.0245 -0.2177 0.3716 0.0960 Uiso
H4D H 0.0245 -0.2177 0.1284 0.0960 Uiso
C8B C -0.0000 -0.04979(11) 0.2500 0.0575 Uani
C9B C 0.00185(17) -0.02439(8) 0.29995(10) 0.0670 Uani
C9D C -0.00185(17) -0.02439(8) 0.20005(10) 0.0670 Uani
C9C C 0.00185(17) 0.02439(8) 0.20005(10) 0.0670 Uani
H5C H 0.0057 0.0404 0.1657 0.0800 Uiso
H5D H -0.0057 -0.0404 0.1657 0.0800 Uiso
H5B H 0.0057 -0.0404 0.3343 0.0800 Uiso
loop_
_atom_site_aniso_label
_atom_site_aniso_U_11
_atom_site_aniso_U_22
_atom_site_aniso_U_33
_atom_site_aniso_U_23
_atom_site_aniso_U_13
_atom_site_aniso_U_12
Cu1 0.0638(3) 0.0470(3) 0.0471(2) 0.000 0.000 -0.00572(19)
O1 0.0848(12) 0.0597(11) 0.0679(11) -0.0143(9) -0.0108(9) -0.0002(9)
O2 0.0822(12) 0.0656(12) 0.0703(11) -0.0139(9) -0.0180(9) -0.0030(10)
O3 0.106(2) 0.110(2) 0.135(3) 0.000 0.000 0.0296(19)
N1 0.101(2) 0.0438(17) 0.0557(17) 0.000 -0.0300(15) 0.000
C1 0.087(2) 0.0556(15) 0.0449(14) 0.0004(11) -0.0082(13) -0.0203(14)
C2 0.0836(18) 0.0496(15) 0.0549(14) 0.0001(11) -0.0118(13) -0.0084(13)
C3 0.090(2) 0.0637(17) 0.0749(18) -0.0096(14) -0.0262(15) -0.0015(14)
C4 0.097(2) 0.0577(17) 0.0754(18) -0.0115(13) -0.0193(16) 0.0086(14)
C5 0.100(2) 0.0494(15) 0.0554(14) 0.0000(12) -0.0259(14) -0.0012(14)
C6 0.0899(19) 0.0655(18) 0.0763(18) -0.0146(14) -0.0327(15) 0.0175(14)
C7 0.105(2) 0.0557(17) 0.0800(18) -0.0194(14) -0.0278(17) 0.0107(15)
C8 0.089(2) 0.0387(18) 0.0448(19) 0.000 -0.0179(16) 0.000
C9 0.109(2) 0.0503(13) 0.0416(13) -0.0060(11) -0.0039(13) -0.0006(14)
Cu1C 0.0638 0.047 0.0471 0 0 0.00572
Cu1E 0.0638 0.047 0.0471 0 0 -0.00572
Cu1G 0.0638 0.047 0.0471 0 0 0.00572
Cu1B 0.0638 0.047 0.0471 0 0 -0.00572
Cu1A 0.0638 0.047 0.0471 0 0 -0.00572
Cu1D 0.0638 0.047 0.0471 0 0 0.00572
Cu1F 0.0638 0.047 0.0471 0 0 0.00572
O1C 0.0848 0.0597 0.0679 0.0143 -0.0108 0.0002
O1B 0.0848 0.0597 0.0679 0.0143 0.0108 -0.0002
O1D 0.0848 0.0597 0.0679 -0.0143 0.0108 0.0002
O1J 0.0848 0.0597 0.0679 0.0143 0.0108 -0.0002
O1L 0.0848 0.0597 0.0679 -0.0143 0.0108 0.0002
O2C 0.0822 0.0656 0.0703 0.0139 -0.018 0.003
O2B 0.0822 0.0656 0.0703 0.0139 0.018 -0.003
O2D 0.0822 0.0656 0.0703 -0.0139 0.018 0.003
O2I 0.0822 0.0656 0.0703 -0.0139 -0.018 -0.003
O2E 0.0822 0.0656 0.0703 0.0139 0.018 -0.003
O2N 0.0822 0.0656 0.0703 0.0139 -0.018 0.003
O2G 0.0822 0.0656 0.0703 -0.0139 0.018 0.003
O3C 0.106 0.11 0.135 0 0 -0.0296
N1B 0.101 0.0438 0.0557 0 0.03 0
C1C 0.087 0.0556 0.0449 -0.0004 -0.0082 0.0203
C1B 0.087 0.0556 0.0449 -0.0004 0.0082 -0.0203
C1D 0.087 0.0556 0.0449 0.0004 0.0082 0.0203
C2C 0.0836 0.0496 0.0549 -0.0001 -0.0118 0.0084
C2B 0.0836 0.0496 0.0549 -0.0001 0.0118 -0.0084
C2D 0.0836 0.0496 0.0549 0.0001 0.0118 0.0084
C3C 0.09 0.0637 0.0749 0.0096 -0.0262 0.0015
C3B 0.09 0.0637 0.0749 0.0096 0.0262 -0.0015
C3D 0.09 0.0637 0.0749 -0.0096 0.0262 0.0015
C4C 0.097 0.0577 0.0754 0.0115 -0.0193 -0.0086
C4B 0.097 0.0577 0.0754 0.0115 0.0193 0.0086
C4D 0.097 0.0577 0.0754 -0.0115 0.0193 -0.0086
C5C 0.1 0.0494 0.0554 0 -0.0259 0.0012
C5B 0.1 0.0494 0.0554 0 0.0259 -0.0012
C5D 0.1 0.0494 0.0554 0 0.0259 0.0012
C6C 0.0899 0.0655 0.0763 0.0146 -0.0327 -0.0175
C6B 0.0899 0.0655 0.0763 0.0146 0.0327 0.0175
C6D 0.0899 0.0655 0.0763 -0.0146 0.0327 -0.0175
C7C 0.105 0.0557 0.08 0.0194 -0.0278 -0.0107
C7B 0.105 0.0557 0.08 0.0194 0.0278 0.0107
C7D 0.105 0.0557 0.08 -0.0194 0.0278 -0.0107
C8B 0.089 0.0387 0.0448 0 0.0179 0
C9B 0.109 0.0503 0.0416 0.006 0.0039 -0.0006
C9D 0.109 0.0503 0.0416 -0.006 0.0039 0.0006
C9C 0.109 0.0503 0.0416 0.006 -0.0039 0.0006
loop_
_geom_bond_atom_site_label_1
_geom_bond_atom_site_label_2
_geom_bond_site_symmetry_1
_geom_bond_site_symmetry_2
Cu1 O1 1_555 1_555
O1 C1 1_555 1_555
O2 C1 1_555 1_555
O3 Cu1 1_555 1_555
N1 C5 1_555 1_555
C1 C2 1_555 1_555
C2 C3 1_555 1_555
C3 H1 1_555 1_555
C4 C3 1_555 1_555
H2 C4 1_555 1_555
C5 C4 1_555 1_555
C6 C5 1_555 1_555
H3 C6 1_555 1_555
C7 C2 1_555 1_555
H4 C7 1_555 1_555
C8 N1 1_555 1_555
C9 C8 1_555 1_555
H5 C9 1_555 1_555
Cu1C Cu1G 1_555 1_555
Cu1E Cu1 1_555 1_555
Cu1G O2C 1_555 1_555
Cu1B Cu1A 1_555 1_555
Cu1A O2B 1_555 1_555
Cu1D Cu1F 1_555 1_555
Cu1F O2D 1_555 1_555
O1C Cu1C 1_555 1_555
O1B Cu1B 1_555 1_555
O1D Cu1D 1_555 1_555
O1J Cu1 1_555 1_555
O1L Cu1C 1_555 1_555
O2C C1C 1_555 1_555
O2B C1B 1_555 1_555
O2D C1D 1_555 1_555
O2I Cu1 1_555 1_555
O2E Cu1 1_555 1_555
O2N Cu1C 1_555 1_555
O2G Cu1C 1_555 1_555
O3C Cu1C 1_555 1_555
N1B C5B 1_555 1_555
C1C O1C 1_555 1_555
C1B O1B 1_555 1_555
C1D O1D 1_555 1_555
C2C C1C 1_555 1_555
C2B C1B 1_555 1_555
C2D C1D 1_555 1_555
C3C C2C 1_555 1_555
C3B C2B 1_555 1_555
C3D C2D 1_555 1_555
H1C C3C 1_555 1_555
H1B C3B 1_555 1_555
H1D C3D 1_555 1_555
C4C C3C 1_555 1_555
C4B C3B 1_555 1_555
C4D C3D 1_555 1_555
H2C C4C 1_555 1_555
H2B C4B 1_555 1_555
H2D C4D 1_555 1_555
C5C N1 1_555 1_555
C5B C4B 1_555 1_555
C5D N1B 1_555 1_555
C6C C5C 1_555 1_555
C6B C5B 1_555 1_555
C6D C5D 1_555 1_555
H3C C6C 1_555 1_555
H3B C6B 1_555 1_555
H3D C6D 1_555 1_555
C7C C2C 1_555 1_555
C7B C2B 1_555 1_555
C7D C2D 1_555 1_555
H4C C7C 1_555 1_555
H4B C7B 1_555 1_555
H4D C7D 1_555 1_555
C8B N1B 1_555 1_555
C9B C9 1_555 1_555
C9D C8B 1_555 1_555
C9C C8 1_555 1_555
H5C C9C 1_555 1_555
H5D C9D 1_555 1_555
H5B C9B 1_555 1_555
O2 Cu1E 1_555 1_555
C6 C7 1_555 1_555
C4C C5C 1_555 1_555
C4D C5D 1_555 1_555
C6C C7C 1_555 1_555
C6B C7B 1_555 1_555
C6D C7D 1_555 1_555
C8B C9B 1_555 1_555
C9D C9C 1_555 1_555

#END
