
#######################################################################
#
#                 Cambridge Crystallographic Data Centre
#                                CCDC 
#
#######################################################################
#
# If this CIF has been generated from an entry in the Cambridge 
# Structural Database, then it will include bibliographic, chemical, 
# crystal, experimental, refinement or atomic coordinate data resulting 
# from the CCDC's data processing and validation procedures.
#
#######################################################################

data_JOXPIX
_chemical_formula_moiety         '(C36 H30 Ag6 Gd2 N12 O33)n'
_symmetry_cell_setting           triclinic
_symmetry_space_group_name_H-M   'P -1'
_symmetry_Int_Tables_number      2
_space_group_name_Hall           '-P 1'
loop_
_symmetry_equiv_pos_site_id
_symmetry_equiv_pos_as_xyz
1 x,y,z
2 -x,-y,-z
_cell_length_a                   13.8475(7)
_cell_length_b                   15.1719(8)
_cell_length_c                   16.4770(8)
_cell_angle_alpha                75.798(4)
_cell_angle_beta                 81.449(4)
_cell_angle_gamma                63.074(5)
_cell_volume                     2989.26
loop_
_atom_site_label
_atom_site_type_symbol
_atom_site_fract_x
_atom_site_fract_y
_atom_site_fract_z
Ag1 Ag 0.76213(5) 0.08711(4) 0.26010(4)
Ag2 Ag 0.66980(5) 0.53819(4) 0.69512(4)
Ag3 Ag 0.42727(5) 1.09333(4) 0.59894(4)
Ag4 Ag 0.33509(5) 0.53300(4) 0.02744(3)
Ag5 Ag 0.91235(5) 0.91373(4) 0.07748(3)
Ag6 Ag 0.99994(5) 0.46330(4) 0.64286(3)
C1 C 0.7239(6) 0.6753(5) 0.4677(4)
C2 C 0.8093(5) 0.5890(5) 0.5063(4)
C3 C 0.7814(7) 0.7737(6) 0.5138(4)
H1 H 0.7753 0.8366 0.5163
C4 C 0.8644(6) 0.6874(5) 0.5545(4)
H2 H 0.9111 0.6943 0.5850
C5 C 0.8320(6) 0.4808(5) 0.5035(4)
C6 C 0.6398(6) 0.6723(5) 0.4200(4)
C7 C 0.8323(5) 0.7606(5) 0.2760(4)
C8 C 0.7895(6) 0.8647(5) 0.2540(4)
C9 C 0.9115(6) 0.8644(5) 0.3328(4)
H3 H 0.9396 0.8983 0.3549
C10 C 0.9567(6) 0.7603(5) 0.3531(4)
H4 H 1.0161 0.7255 0.3869
C11 C 0.7851(6) 0.7019(5) 0.2472(4)
C12 C 0.6944(6) 0.9299(5) 0.1956(4)
C13 C 0.5139(6) 0.7626(5) 0.6204(4)
C14 C 0.4635(6) 0.8680(5) 0.6007(4)
C15 C 0.6358(7) 0.7695(6) 0.6971(5)
H5 H 0.6958 0.7374 0.7304
C16 C 0.5851(7) 0.8728(6) 0.6777(5)
H6 H 0.6114 0.9094 0.6982
C17 C 0.4728(6) 0.6994(5) 0.5924(4)
C18 C 0.3640(7) 0.9307(5) 0.5460(4)
C19 C 0.8645(5) 0.4071(5) 0.8120(4)
C20 C 0.9460(5) 0.3199(5) 0.8568(4)
C21 C 0.8054(6) 0.3108(5) 0.7654(4)
H7 H 0.7573 0.3050 0.7355
C22 C 0.8870(6) 0.2244(5) 0.8085(4)
H8 H 0.8936 0.1616 0.8051
C23 C 0.8479(6) 0.5142(5) 0.8124(4)
C24 C 1.0226(6) 0.3277(5) 0.9087(4)
C25 C 0.8341(5) 0.2439(5) 1.0476(4)
C26 C 0.8877(5) 0.1384(5) 1.0655(4)
C27 C 0.7157(6) 0.2369(5) 0.9681(4)
H9 H 0.6564 0.2689 0.9341
C28 C 0.7686(6) 0.1340(5) 0.9854(4)
H10 H 0.7446 0.0975 0.9625
C29 C 0.8670(6) 0.3098(5) 1.0840(4)
C30 C 0.9867(6) 0.0762(5) 1.1194(4)
C31 C 0.5336(5) 0.4070(5) 0.1514(4)
C32 C 0.6165(6) 0.3198(5) 0.1941(4)
C33 C 0.4798(6) 0.3079(5) 0.1026(4)
H11 H 0.4348 0.3017 0.0699
C34 C 0.5589(6) 0.2226(5) 0.1464(4)
H12 H 0.5634 0.1598 0.1456
C35 C 0.5132(5) 0.5150(5) 0.1505(4)
C36 C 0.6989(6) 0.3219(5) 0.2433(4)
Gd1 Gd 0.75585(3) 0.48131(2) 0.323210(18)
Gd2 Gd 1.13212(3) 0.20129(3) 1.10366(2)
N1 N 0.8796(5) 0.5953(4) 0.5516(3)
N2 N 0.7104(5) 0.7685(4) 0.4714(3)
N3 N 0.9168(5) 0.7089(4) 0.3253(3)
N4 N 0.8286(5) 0.9174(4) 0.2822(3)
N5 N 0.6290(5) 0.2275(4) 0.1899(3)
N6 N 0.4671(5) 0.3990(4) 0.1063(3)
N7 N 0.4986(5) 0.9225(4) 0.6298(4)
N8 N 0.6007(5) 0.7141(4) 0.6691(4)
N9 N 0.7959(5) 0.4016(4) 0.7670(3)
N10 N 0.9555(5) 0.2286(4) 0.8541(3)
N11 N 0.7478(5) 0.2925(4) 0.9993(3)
N12 N 0.8542(5) 0.0837(4) 1.0344(3)
O1 O 0.8707(4) 0.4526(3) 0.4333(3)
O2 O 0.8189(5) 0.4280(4) 0.5689(3)
O3 O 0.6494(4) 0.5844(3) 0.4222(3)
O4 O 0.5752(5) 0.7509(4) 0.3807(3)
O5 O 0.8092(4) 0.6135(3) 0.2892(3)
O6 O 0.7307(5) 0.7427(4) 0.1851(3)
O7 O 0.6010(5) 0.9519(4) 0.2288(3)
O8 O 0.7188(4) 0.9603(4) 0.1220(3)
O9 O 1.0699(4) 0.2499(4) 0.9647(3)
O10 O 1.0313(5) 0.4065(4) 0.8929(3)
O11 O 0.7895(5) 0.5505(4) 0.8729(3)
O12 O 0.8853(5) 0.5574(3) 0.7516(3)
O13 O 0.9469(4) 0.2632(3) 1.1300(3)
O14 O 0.8124(4) 0.4013(4) 1.0680(3)
O15 O 1.0752(4) 0.0766(3) 1.0880(3)
O16 O 0.9704(4) 0.0290(4) 1.1884(3)
O17 O 0.7780(4) 0.2412(3) 0.2680(3)
O18 O 0.6818(4) 0.4084(3) 0.2533(3)
O19 O 0.4511(4) 0.5559(4) 0.2071(3)
O20 O 0.5561(5) 0.5540(4) 0.0902(3)
O21 O 0.5315(5) 0.6071(4) 0.6027(3)
O22 O 0.3810(5) 0.7451(4) 0.5625(4)
O23 O 0.2748(5) 0.9654(4) 0.5833(3)
O24 O 0.3826(5) 0.9455(4) 0.4686(3)
O25 O 0.8996(4) 0.3095(3) 0.3262(3)
H13 H 0.9232 0.2468 0.3275
H14 H 0.9374 0.3162 0.3584
O26 O 0.6936(4) 0.3847(4) 0.4356(3)
H15 H 0.7483 0.3277 0.4459
H16 H 0.6912 0.4188 0.4704
O27 O 0.5927(4) 0.6132(4) 0.2568(3)
H17 H 0.6058 0.6642 0.2503
H18 H 0.5272 0.6304 0.2747
O28 O 0.8429(4) 0.4849(4) 0.1859(3)
H19 H 0.8828 0.5142 0.1632
H20 H 0.8496 0.4440 0.1560
O29 O 1.2809(5) 0.1007(5) 1.0219(3)
H21 H 1.3158 0.0435 1.0528
H22 H 1.2687 0.0906 0.9768
O30 O 1.2267(10) 0.0771(7) 1.2090(5)
H23 H 1.1926 0.0441 1.2370
H24 H 1.2446 0.1005 1.2431
O31 O 1.0931(4) 0.2827(4) 1.2211(3)
H25 H 1.1110 0.3173 1.2440
H26 H 1.0252 0.3143 1.2143
O32 O 1.0678(11) 0.3879(8) 1.0507(5)
H27 H 1.0786 0.3930 0.9979
H28 H 1.0791 0.4330 1.0640
O33 O 1.2542(11) 0.2737(10) 1.0841(7)
H29 H 1.2662 0.2988 1.1201
H30 H 1.3107 0.2199 1.0787
Ag1_2 Ag 0.76213(5) 1.08711(4) 0.26010(4)
Ag1A Ag 0.23787(5) 0.91289(4) 0.73990(4)
Ag3A Ag 0.57273(5) 0.90667(4) 0.40106(4)
Ag4A Ag 0.66491(5) 0.46700(4) -0.02744(3)
Ag4A_2 Ag 0.66491(5) 0.46700(4) 0.97256(3)
Ag5_2 Ag 0.91235(5) -0.08627(4) 1.07748(3)
Ag5A Ag 1.08765(5) 0.08627(4) 0.92252(3)
Ag6A Ag 1.00006(5) 0.53670(4) 0.35714(3)
N2A N 0.2896(5) 1.2315(4) 0.5286(3)
N3A N 1.0832(5) 0.2911(4) 0.6747(3)
N4_2 N 0.8286(5) -0.0826(4) 0.2822(3)
N10A N 1.0445(5) 0.7714(4) 0.1459(3)
N11A N 0.2522(5) 0.7075(4) 0.0007(3)
N12_2 N 0.8542(5) 1.0837(4) 0.0344(3)
O1A O 1.1293(4) 0.5474(3) 0.5667(3)
O4A O 0.4248(5) 1.2491(4) 0.6193(3)
O5A O 1.1908(4) 0.3865(3) 0.7108(3)
O9A O 0.9301(4) 0.7501(4) 0.0353(3)
O11A O 0.2105(5) 0.4495(4) 0.1271(3)
O14A O 0.1876(4) 0.5987(4) -0.0680(3)
O15A O 0.9248(4) 0.9234(3) -0.0880(3)
O20A O 0.4439(5) 0.4460(4) -0.0902(3)
O23A O 0.7252(5) 0.0346(4) 0.4167(3)
O24A O 0.6174(5) 1.0545(4) 0.5314(3)
loop_
_geom_bond_atom_site_label_1
_geom_bond_atom_site_label_2
_geom_bond_site_symmetry_1
_geom_bond_site_symmetry_2
Ag1 N5 1_555 1_555
Ag2 N8 1_555 1_555
Ag3 N7 1_555 1_555
Ag4 N6 1_555 1_555
Ag5 O8 1_555 1_555
Ag6 N1 1_555 1_555
C1 C2 1_555 1_555
C2 C5 1_555 1_555
C3 H1 1_555 1_555
C4 C3 1_555 1_555
H2 C4 1_555 1_555
C5 O1 1_555 1_555
C6 C1 1_555 1_555
C7 C8 1_555 1_555
C8 C12 1_555 1_555
C9 H3 1_555 1_555
C10 C9 1_555 1_555
H4 C10 1_555 1_555
C11 C7 1_555 1_555
C12 O7 1_555 1_555
C13 C14 1_555 1_555
C14 C18 1_555 1_555
C15 H5 1_555 1_555
C16 C15 1_555 1_555
H6 C16 1_555 1_555
C17 C13 1_555 1_555
C18 O23 1_555 1_555
C19 C20 1_555 1_555
C20 C24 1_555 1_555
C21 H7 1_555 1_555
C22 C21 1_555 1_555
H8 C22 1_555 1_555
C23 C19 1_555 1_555
C24 O9 1_555 1_555
C25 C26 1_555 1_555
C26 C30 1_555 1_555
C27 H9 1_555 1_555
C28 C27 1_555 1_555
H10 C28 1_555 1_555
C29 C25 1_555 1_555
C30 O15 1_555 1_555
C31 C32 1_555 1_555
C32 C36 1_555 1_555
C33 H11 1_555 1_555
C34 C33 1_555 1_555
H12 C34 1_555 1_555
C35 C31 1_555 1_555
C36 O17 1_555 1_555
Gd1 O1 1_555 1_555
Gd2 O9 1_555 1_555
N1 C2 1_555 1_555
N2 C1 1_555 1_555
N3 C7 1_555 1_555
N4 C8 1_555 1_555
N5 C32 1_555 1_555
N6 C31 1_555 1_555
N7 C14 1_555 1_555
N8 C13 1_555 1_555
N9 Ag2 1_555 1_555
N10 C20 1_555 1_555
N11 C25 1_555 1_555
N12 C26 1_555 1_555
O1 Ag6A 1_555 1_555
O2 C5 1_555 1_555
O3 C6 1_555 1_555
O4 C6 1_555 1_555
O5 C11 1_555 1_555
O6 C11 1_555 1_555
O8 C12 1_555 1_555
O9 Ag5A 1_555 1_555
O10 C24 1_555 1_555
O11 C23 1_555 1_555
O12 Ag6 1_555 1_555
O13 C29 1_555 1_555
O14 C29 1_555 1_555
O15 Gd2 1_555 1_555
O16 C30 1_555 1_555
O17 Ag1 1_555 1_555
O18 C36 1_555 1_555
O19 C35 1_555 1_555
O20 C35 1_555 1_555
O21 Ag2 1_555 1_555
O22 C17 1_555 1_555
O23 Ag1A 1_555 1_555
O24 C18 1_555 1_555
O25 Gd1 1_555 1_555
H13 O25 1_555 1_555
H14 O25 1_555 1_555
O26 Gd1 1_555 1_555
H15 O26 1_555 1_555
H16 O26 1_555 1_555
O27 Gd1 1_555 1_555
H17 O27 1_555 1_555
H18 O27 1_555 1_555
O28 Gd1 1_555 1_555
H19 O28 1_555 1_555
H20 O28 1_555 1_555
O29 Gd2 1_555 1_555
H21 O29 1_555 1_555
H22 O29 1_555 1_555
O30 Gd2 1_555 1_555
H23 O30 1_555 1_555
H24 O30 1_555 1_555
O31 Gd2 1_555 1_555
H25 O31 1_555 1_555
H26 O31 1_555 1_555
O32 Gd2 1_555 1_555
H27 O32 1_555 1_555
H28 O32 1_555 1_555
O33 Gd2 1_555 1_555
H29 O33 1_555 1_555
H30 O33 1_555 1_555
Ag1_2 N4 1_555 1_555
Ag3A N2 1_555 1_555
Ag4A O20 1_555 1_555
Ag4A_2 N11 1_555 1_555
Ag5_2 N12 1_555 1_555
Ag5A N10 1_555 1_555
Ag6A N3 1_555 1_555
N2A Ag3 1_555 1_555
N3A Ag6 1_555 1_555
N4_2 Ag1 1_555 1_555
N10A Ag5 1_555 1_555
N11A Ag4 1_555 1_555
N12_2 Ag5 1_555 1_555
O1A Ag6 1_555 1_555
O4A Ag3 1_555 1_555
O5A Ag6 1_555 1_555
O9A Ag5 1_555 1_555
O11A Ag4 1_555 1_555
O14A Ag4 1_555 1_555
O15A Ag5 1_555 1_555
O20A Ag4 1_555 1_555
O23A Ag1 1_555 1_555
O24A Ag3 1_555 1_555
C3 N2 1_555 1_555
C4 N1 1_555 1_555
C9 N4 1_555 1_555
C10 N3 1_555 1_555
C15 N8 1_555 1_555
C16 N7 1_555 1_555
C17 O21 1_555 1_555
C19 N9 1_555 1_555
C21 N9 1_555 1_555
C22 N10 1_555 1_555
C23 O12 1_555 1_555
C27 N11 1_555 1_555
C28 N12 1_555 1_555
C33 N6 1_555 1_555
C34 N5 1_555 1_555
Gd1 O3 1_555 1_555
Gd1 O5 1_555 1_555
Gd1 O18 1_555 1_555
Gd2 O13 1_555 1_555
O4 Ag3A 1_555 1_555
O5 Ag6A 1_555 1_555
O11 Ag4A_2 1_555 1_555
O14 Ag4A_2 1_555 1_555
O15 Ag5A 1_555 1_555
O24 Ag3A 1_555 1_555

#END
