
#######################################################################
#
#                 Cambridge Crystallographic Data Centre
#                                CCDC 
#
#######################################################################
#
# If this CIF has been generated from an entry in the Cambridge 
# Structural Database, then it will include bibliographic, chemical, 
# crystal, experimental, refinement or atomic coordinate data resulting 
# from the CCDC's data processing and validation procedures.
#
#######################################################################

data_MUGFOK
_chemical_formula_moiety         '(C36 H66 Mo1 N16 Ni2 O1)n'
_symmetry_cell_setting           tetragonal
_symmetry_space_group_name_H-M   'I 41/a m d'
_symmetry_Int_Tables_number      141
_space_group_name_Hall           '-I 4bd 2'
loop_
_symmetry_equiv_pos_site_id
_symmetry_equiv_pos_as_xyz
1 x,y,z
2 1/2-x,-y,1/2+z
3 1/4-y,3/4+x,1/4+z
4 1/4+y,1/4-x,3/4+z
5 1/2-x,y,1/2-z
6 x,-y,-z
7 1/4+y,3/4+x,1/4-z
8 1/4-y,1/4-x,3/4-z
9 1/2+x,1/2+y,1/2+z
10 -x,1/2-y,z
11 3/4-y,1/4+x,3/4+z
12 3/4+y,3/4-x,1/4+z
13 -x,1/2+y,-z
14 1/2+x,1/2-y,1/2-z
15 3/4+y,1/4+x,3/4-z
16 3/4-y,3/4-x,1/4-z
17 -x,-y,-z
18 1/2+x,y,1/2-z
19 3/4+y,1/4-x,3/4-z
20 3/4-y,3/4+x,1/4-z
21 1/2+x,-y,1/2+z
22 -x,y,z
23 3/4-y,1/4-x,3/4+z
24 3/4+y,3/4+x,1/4+z
25 1/2-x,1/2-y,1/2-z
26 x,1/2+y,-z
27 1/4+y,3/4-x,1/4-z
28 1/4-y,1/4+x,3/4-z
29 x,1/2-y,z
30 1/2-x,1/2+y,1/2+z
31 1/4-y,3/4-x,1/4+z
32 1/4+y,1/4+x,3/4+z
_cell_length_a                   19.586(3)
_cell_length_b                   19.586(3)
_cell_length_c                   15.481(4)
_cell_angle_alpha                90
_cell_angle_beta                 90
_cell_angle_gamma                90
_cell_volume                     5938.69
loop_
_atom_site_label
_atom_site_type_symbol
_atom_site_fract_x
_atom_site_fract_y
_atom_site_fract_z
C1 C 0.5000 0.68450(18) -0.2307(2)
C2 C 0.50000(19) 0.6479 -0.0824(3)
C3 C 0.56276(13) 0.51602(13) 0.17185(17)
H1 H 0.5557 0.4672 0.1776
H2 H 0.6021 0.5289 0.2063
C4 C 0.5000 0.55464(19) 0.2011(2)
H3 H 0.5000 0.5439 0.2629
C5 C 0.5000 0.63153(19) 0.2042(2)
H4 H 0.5400 0.6482 0.1738
C6 C 0.5000 0.66120(19) 0.2962(2)
C7 C 0.62610(14) 0.48753(14) 0.04731(16)
H5 H 0.6704 0.4940 0.0741
H6 H 0.6134 0.4398 0.0512
Mo1 Mo 0.5000 0.7500 -0.1250
N1 N 0.50000(15) 0.6476 -0.29228(19)
N2 N 0.5000 0.59215(16) -0.0577(2)
N3 N 0.57256(11) 0.53304(11) 0.08800(14)
H7 H 0.5843 0.5775 0.0795
Ni1 Ni 0.5000 0.5000 0.0000
C1G C 0.56550(18) 0.7500 -0.0193(2)
C1I C 0.5000 0.81550(18) -0.2307(2)
C1N C 0.43450(18) 0.7500 -0.0193(2)
C2G C 0.6021 0.75000(19) -0.1676(3)
C2I C 0.50000(19) 0.8521 -0.0824(3)
C2N C 0.3979 0.75000(19) -0.1676(3)
C3E C 0.56276(13) 0.48398(13) -0.17185(17)
C3P C 0.43724(13) 0.48398(13) -0.17185(17)
C3U C 0.43724(13) 0.51602(13) 0.17185(17)
C3G C 0.73398(13) 0.68724(13) -0.42185(17)
C3C C 0.76602(13) 0.68724(13) -0.07815(17)
C3EA C 0.76602(13) 0.81276(13) -0.07815(17)
C3AA C 0.73398(13) 0.81276(13) -0.42185(17)
H1E H 0.5557 0.5328 -0.1776
H1U H 0.4443 0.4672 0.1776
H1P H 0.4443 0.5328 -0.1776
H1G H 0.7828 0.6943 -0.4276
H1C H 0.7172 0.6943 -0.0724
H1AA H 0.7828 0.8057 -0.4276
H1EA H 0.7172 0.8057 -0.0724
H2E H 0.6021 0.4711 -0.2063
H2U H 0.3979 0.5289 0.2063
H2P H 0.3979 0.4711 -0.2063
H2G H 0.7211 0.6479 -0.4563
H2C H 0.7789 0.6479 -0.0437
H2AA H 0.7211 0.8521 -0.4563
H2EA H 0.7789 0.8521 -0.0437
C4E C 0.5000 0.44536(19) -0.2011(2)
C4G C 0.69536(19) 0.7500 -0.4511(2)
C4C C 0.80464(19) 0.7500 -0.0489(2)
H3E H 0.5000 0.4561 -0.2629
H3G H 0.7061 0.7500 -0.5129
H3C H 0.7939 0.7500 0.0129
C5E C 0.5000 0.36847(19) -0.2042(2)
C5G C 0.61847(19) 0.7500 -0.4542(2)
C5C C 0.88153(19) 0.7500 -0.0458(2)
H4U H 0.4600 0.6482 0.1738
H4E H 0.5400 0.3518 -0.1738
H4P H 0.4600 0.3518 -0.1738
H4G H 0.6018 0.7100 -0.4238
H4AA H 0.6018 0.7900 -0.4238
H4C H 0.8982 0.7100 -0.0762
H4EA H 0.8982 0.7900 -0.0762
C6E C 0.5000 0.33880(19) -0.2962(2)
C6G C 0.58880(19) 0.7500 -0.5462(2)
C6C C 0.91120(19) 0.7500 0.0462(2)
C7E C 0.62610(14) 0.51247(14) -0.04731(16)
C7P C 0.37390(14) 0.51247(14) -0.04731(16)
C7U C 0.37390(14) 0.48753(14) 0.04731(16)
C7G C 0.76247(14) 0.62390(14) -0.29731(16)
C7C C 0.73753(14) 0.62390(14) -0.20269(16)
C7EA C 0.73753(14) 0.87610(14) -0.20269(16)
C7AA C 0.76247(14) 0.87610(14) -0.29731(16)
H5U H 0.3296 0.4940 0.0741
H5P H 0.3296 0.5060 -0.0741
H5E H 0.6704 0.5060 -0.0741
H5G H 0.7560 0.5796 -0.3241
H5AA H 0.7560 0.9204 -0.3241
H5EA H 0.7440 0.9204 -0.1759
H5C H 0.7440 0.5796 -0.1759
H6U H 0.3866 0.4398 0.0512
H6P H 0.3866 0.5602 -0.0512
H6E H 0.6134 0.5602 -0.0512
H6G H 0.8102 0.6366 -0.3012
H6AA H 0.8102 0.8634 -0.3012
H6EA H 0.6898 0.8634 -0.1988
H6C H 0.6898 0.6366 -0.1988
N1G N 0.6024 0.75000(15) 0.04228(19)
N1I N 0.50000(15) 0.8524 -0.29228(19)
N1N N 0.3976 0.75000(15) 0.04228(19)
N2G N 0.65785(16) 0.7500 -0.1923(2)
N2I N 0.5000 0.90785(16) -0.0577(2)
N2N N 0.34215(16) 0.7500 -0.1923(2)
N2E N 0.5000 0.40785(16) 0.0577(2)
N2C N 0.84215(16) 0.7500 -0.3077(2)
N3E N 0.57256(11) 0.46696(11) -0.08800(14)
N3P N 0.42744(11) 0.46696(11) -0.08800(14)
N3U N 0.42744(11) 0.53304(11) 0.08800(14)
N3G N 0.71696(11) 0.67744(11) -0.33800(14)
N3C N 0.78304(11) 0.67744(11) -0.16200(14)
N3EA N 0.78304(11) 0.82256(11) -0.16200(14)
N3AA N 0.71696(11) 0.82256(11) -0.33800(14)
H7U H 0.4157 0.5775 0.0795
H7P H 0.4157 0.4225 -0.0795
H7E H 0.5843 0.4225 -0.0795
H7G H 0.6725 0.6657 -0.3295
H7AA H 0.6725 0.8343 -0.3295
H7EA H 0.8275 0.8343 -0.1705
H7C H 0.8275 0.6657 -0.1705
Ni1C Ni 0.7500 0.7500 -0.2500
Ni1I Ni 0.5000 1.0000 0.0000
Ni1J Ni 0.2500 0.7500 -0.2500
O1 O 0.3206(3) 0.6190(3) 0.1701(3)
H8 H 0.3080 0.6561 0.1937
H9 H 0.2858 0.5990 0.1492
loop_
_geom_bond_atom_site_label_1
_geom_bond_atom_site_label_2
_geom_bond_site_symmetry_1
_geom_bond_site_symmetry_2
C1 Mo1 1_555 1_555
C2 Mo1 1_555 1_555
C3 H1 1_555 1_555
H2 C3 1_555 1_555
C4 C3 1_555 1_555
H3 C4 1_555 1_555
C5 C4 1_555 1_555
H4 C5 1_555 1_555
C6 C5 1_555 1_555
C7 H5 1_555 1_555
H6 C7 1_555 1_555
Mo1 C1G 1_555 1_555
N1 C1 1_555 1_555
N2 C2 1_555 1_555
N3 C3 1_555 1_555
H7 N3 1_555 1_555
Ni1 N2 1_555 1_555
O1 H8 1_555 1_555
H9 O1 1_555 1_555
C1G N1G 1_555 1_555
C1I Mo1 1_555 1_555
C1N Mo1 1_555 1_555
C2G Mo1 1_555 1_555
C2I Mo1 1_555 1_555
C2N Mo1 1_555 1_555
C3E H1E 1_555 1_555
C3P H1P 1_555 1_555
C3U C4 1_555 1_555
C3G H1G 1_555 1_555
C3C H1C 1_555 1_555
C3EA H1EA 1_555 1_555
C3AA H1AA 1_555 1_555
H1U C3U 1_555 1_555
H2E C3E 1_555 1_555
H2U C3U 1_555 1_555
H2P C3P 1_555 1_555
H2G C3G 1_555 1_555
H2C C3C 1_555 1_555
H2AA C3AA 1_555 1_555
H2EA C3EA 1_555 1_555
C4E C3E 1_555 1_555
C4G C3G 1_555 1_555
C4C C3C 1_555 1_555
H3E C4E 1_555 1_555
H3G C4G 1_555 1_555
H3C C4C 1_555 1_555
C5E C4E 1_555 1_555
C5G C4G 1_555 1_555
C5C C4C 1_555 1_555
H4U C5 1_555 1_555
H4E C5E 1_555 1_555
H4P C5E 1_555 1_555
H4G C5G 1_555 1_555
H4AA C5G 1_555 1_555
H4C C5C 1_555 1_555
H4EA C5C 1_555 1_555
C6E C5E 1_555 1_555
C6G C5G 1_555 1_555
C6C C5C 1_555 1_555
C7E C7 1_555 1_555
C7P C7U 1_555 1_555
C7U H5U 1_555 1_555
C7G C7C 1_555 1_555
C7C H5C 1_555 1_555
C7EA C7AA 1_555 1_555
C7AA H5AA 1_555 1_555
H5P C7P 1_555 1_555
H5E C7E 1_555 1_555
H5G C7G 1_555 1_555
H5EA C7EA 1_555 1_555
H6U C7U 1_555 1_555
H6P C7P 1_555 1_555
H6E C7E 1_555 1_555
H6G C7G 1_555 1_555
H6AA C7AA 1_555 1_555
H6EA C7EA 1_555 1_555
H6C C7C 1_555 1_555
N1I C1I 1_555 1_555
N1N C1N 1_555 1_555
N2G C2G 1_555 1_555
N2I C2I 1_555 1_555
N2N C2N 1_555 1_555
N2E Ni1 1_555 1_555
N2C Ni1C 1_555 1_555
N3E Ni1 1_555 1_555
N3P Ni1 1_555 1_555
N3U Ni1 1_555 1_555
N3G C3G 1_555 1_555
N3C C3C 1_555 1_555
N3EA C3EA 1_555 1_555
N3AA C3AA 1_555 1_555
H7U N3U 1_555 1_555
H7P N3P 1_555 1_555
H7E N3E 1_555 1_555
H7G N3G 1_555 1_555
H7AA N3AA 1_555 1_555
H7EA N3EA 1_555 1_555
H7C N3C 1_555 1_555
Ni1C N2G 1_555 1_555
Ni1I N2I 1_555 1_555
Ni1J N2N 1_555 1_555
C7 N3 1_555 1_555
N3 Ni1 1_555 1_555
C3E N3E 1_555 1_555
C3P C4E 1_555 1_555
C3P N3P 1_555 1_555
C3U N3U 1_555 1_555
C3EA C4C 1_555 1_555
C3AA C4G 1_555 1_555
C7E N3E 1_555 1_555
C7P N3P 1_555 1_555
C7U N3U 1_555 1_555
C7G N3G 1_555 1_555
C7C N3C 1_555 1_555
C7EA N3EA 1_555 1_555
C7AA N3AA 1_555 1_555
N3G Ni1C 1_555 1_555
N3C Ni1C 1_555 1_555
N3EA Ni1C 1_555 1_555
N3AA Ni1C 1_555 1_555

#END
