
#######################################################################
#
#                 Cambridge Crystallographic Data Centre
#                                CCDC 
#
#######################################################################
#
# If this CIF has been generated from an entry in the Cambridge 
# Structural Database, then it will include bibliographic, chemical, 
# crystal, experimental, refinement or atomic coordinate data resulting 
# from the CCDC's data processing and validation procedures.
#
#######################################################################

data_OCAQOY
_chemical_formula_moiety         '(C30 H32 N6 Ni2 O16 V4)n'
_symmetry_cell_setting           monoclinic
_symmetry_space_group_name_H-M   'C 2/c'
_symmetry_Int_Tables_number      15
_space_group_name_Hall           '-C 2yc'
loop_
_symmetry_equiv_pos_site_id
_symmetry_equiv_pos_as_xyz
1 x,y,z
2 1/2+x,1/2+y,z
3 -x,y,1/2-z
4 1/2-x,1/2+y,1/2-z
5 -x,-y,-z
6 1/2-x,1/2-y,-z
7 x,-y,1/2+z
8 1/2+x,1/2-y,1/2+z
_cell_length_a                   30.3799(9)
_cell_length_b                   11.2402(3)
_cell_length_c                   11.5366(3)
_cell_angle_alpha                90
_cell_angle_beta                 105.9610(10)
_cell_angle_gamma                90
_cell_volume                     3787.6
loop_
_atom_site_label
_atom_site_type_symbol
_atom_site_fract_x
_atom_site_fract_y
_atom_site_fract_z
Ni1 Ni 0.2500 0.2500 -0.5000
Ni2 Ni 0.0000 1.0000 -0.5000
V1 V 0.39317(2) 0.58844(5) -0.17863(4)
V2 V 0.35517(2) 0.40646(5) -0.43583(4)
O1 O 0.29971(7) 0.3744(2) -0.4719(2)
O2 O 0.38569(10) 0.2886(3) -0.3928(3)
O3 O -0.02699(8) 0.9184(3) -0.3704(2)
O4 O 0.44974(8) 0.5716(3) -0.1366(2)
O5 O 0.36845(8) 0.4681(3) -0.5656(2)
O6 O 0.38130(10) 0.7282(3) -0.1971(3)
O7 O 0.36759(8) 0.5140(3) -0.3179(2)
N1 N 0.20042(8) 0.3876(2) -0.4988(2)
N2 N 0.26026(8) 0.2321(2) -0.3017(2)
N3 N 0.04151(8) 0.8497(3) -0.4951(2)
C1 C 0.17620(10) 0.3873(3) -0.4189(3)
C2 C 0.14440(10) 0.4739(4) -0.4142(3)
C3 C 0.13560(10) 0.5655(3) -0.4971(3)
C4 C 0.16040(10) 0.5649(3) -0.5833(3)
C5 C 0.19180(10) 0.4760(3) -0.5805(3)
C6 C 0.10230(10) 0.6614(3) -0.4947(3)
C7 C 0.09650(10) 0.7067(3) -0.3881(3)
C8 C 0.06630(10) 0.7996(3) -0.3924(3)
C9 C 0.04720(10) 0.8053(4) -0.5970(3)
C10 C 0.07620(10) 0.7117(4) -0.6011(3)
C11 C 0.23615(10) 0.1529(3) -0.2572(3)
C12 C 0.23190(10) 0.1553(3) -0.1409(3)
C13 C 0.25298(10) 0.2450(3) -0.0620(2)
C14 C 0.27900(10) 0.3242(3) -0.1060(3)
C15 C 0.28260(10) 0.3155(3) -0.2236(3)
H1 H 0.1800(10) 0.320(4) -0.359(4)
H2 H 0.132(2) 0.458(4) -0.363(4)
H3 H 0.1590(10) 0.632(4) -0.636(4)
H4 H 0.2110(10) 0.475(4) -0.640(4)
H5 H 0.1180(10) 0.685(4) -0.310(4)
H6 H 0.0650(10) 0.846(4) -0.322(4)
H7 H 0.0290(10) 0.835(4) -0.669(4)
H8 H 0.0780(10) 0.695(4) -0.671(4)
H9 H 0.2200(10) 0.097(4) -0.313(4)
H10 H 0.2130(10) 0.090(4) -0.123(4)
H11 H 0.2965 0.3978 -0.0655
H12 H 0.3000(10) 0.382(4) -0.256(4)
O1E O 0.20029(7) 0.1256(2) -0.5281(2)
N1E N 0.29958(8) 0.1124(2) -0.5012(2)
V2E V 0.14483(2) 0.09354(5) -0.56417(4)
O2E O 0.11431(10) 0.2114(3) -0.6072(3)
O5E O 0.13155(8) 0.0319(3) -0.4344(2)
O7E O 0.13241(8) -0.0140(3) -0.6821(2)
N2E N 0.23974(8) 0.2679(2) -0.6983(2)
V1F V 0.39317(2) 0.41156(5) -0.67863(4)
V1C V 0.10683(2) 0.08844(5) -0.32137(4)
V1E V 0.10683(2) -0.08844(5) -0.82137(4)
O5F O 0.36845(8) 0.5319(3) -0.0656(2)
O3D O 0.02699(8) 1.0816(3) -0.6296(2)
O4G O -0.05026(8) 0.9284(3) -0.6366(2)
O4C O 0.05026(8) 1.0716(3) -0.3634(2)
N3D N -0.04151(8) 1.1503(3) -0.5049(2)
O4E O 0.05026(8) -0.0716(3) -0.8634(2)
O5C O 0.13155(8) -0.0319(3) -0.9344(2)
O6E O 0.11870(10) -0.2282(3) -0.8029(3)
Ni2G Ni 0.5000 0.5000 0.0000
C8D C -0.06630(10) 1.2004(3) -0.6076(3)
C9D C -0.04720(10) 1.1947(4) -0.4030(3)
Ni2F Ni 0.0000 0.0000 -1.0000
C7D C -0.09650(10) 1.2933(3) -0.6119(3)
H6D H -0.0650(10) 1.154(4) -0.678(4)
C10D C -0.07620(10) 1.2883(4) -0.3989(3)
H7D H -0.0290(10) 1.165(4) -0.331(4)
C13E C 0.24702(10) 0.2550(3) 0.0620(2)
C6D C -0.10230(10) 1.3386(3) -0.5053(3)
H5D H -0.1180(10) 1.315(4) -0.690(4)
H8D H -0.0780(10) 1.305(4) -0.329(4)
C12E C 0.26810(10) 0.3447(3) 0.1409(3)
C14E C 0.22100(10) 0.1758(3) 0.1060(3)
C3D C -0.13560(10) 1.4345(3) -0.5029(3)
C11E C 0.26385(10) 0.3471(3) 0.2572(3)
H10E H 0.2870(10) 0.410(4) 0.123(4)
C15E C 0.21740(10) 0.1845(3) 0.2236(3)
H11E H 0.2035 0.1022 0.0655
C2D C -0.14440(10) 1.5261(4) -0.5858(3)
C4D C -0.16040(10) 1.4351(3) -0.4167(3)
N2E_2 N 0.23974(8) 0.2679(2) 0.3017(2)
H9E H 0.2800(10) 0.403(4) 0.313(4)
H12E H 0.2000(10) 0.118(4) 0.256(4)
C1D C -0.17620(10) 1.6127(3) -0.5811(3)
H2D H -0.132(2) 1.542(4) -0.637(4)
C5D C -0.19180(10) 1.5240(3) -0.4195(3)
H3D H -0.1590(10) 1.368(4) -0.364(4)
Ni1_2 Ni 0.2500 0.2500 0.5000
N1D N -0.20042(8) 1.6124(2) -0.5012(2)
H1D H -0.1800(10) 1.680(4) -0.641(4)
H4D H -0.2110(10) 1.525(4) -0.360(4)
Ni1A Ni -0.2500 1.7500 -0.5000
O8 O 0.4621(4) -0.8250(10) -0.4140(10)
O9 O 0.4730(7) -0.917(2) -0.567(2)
loop_
_geom_bond_atom_site_label_1
_geom_bond_atom_site_label_2
_geom_bond_site_symmetry_1
_geom_bond_site_symmetry_2
Ni1 O1 1_555 1_555
Ni2 O3 1_555 1_555
V1 O4 1_555 1_555
V2 O1 1_555 1_555
O2 V2 1_555 1_555
O4 Ni2G 1_555 1_555
O5 V2 1_555 1_555
O6 V1 1_555 1_555
O7 V1 1_555 1_555
N1 Ni1 1_555 1_555
N2 Ni1 1_555 1_555
N3 Ni2 1_555 1_555
C1 N1 1_555 1_555
C2 C1 1_555 1_555
C3 C2 1_555 1_555
C4 C3 1_555 1_555
C5 N1 1_555 1_555
C6 C3 1_555 1_555
C7 C6 1_555 1_555
C8 N3 1_555 1_555
C9 N3 1_555 1_555
C10 C6 1_555 1_555
C11 N2 1_555 1_555
C12 C11 1_555 1_555
C13 C12 1_555 1_555
C14 C13 1_555 1_555
C15 N2 1_555 1_555
H1 C1 1_555 1_555
H2 C2 1_555 1_555
H3 C4 1_555 1_555
H4 C5 1_555 1_555
H5 C7 1_555 1_555
H6 C8 1_555 1_555
H7 C9 1_555 1_555
H8 C10 1_555 1_555
H9 C11 1_555 1_555
H10 C12 1_555 1_555
H11 C14 1_555 1_555
H12 C15 1_555 1_555
O1E Ni1 1_555 1_555
N1E Ni1 1_555 1_555
V2E O1E 1_555 1_555
O2E V2E 1_555 1_555
O5E V2E 1_555 1_555
O7E V2E 1_555 1_555
N2E Ni1 1_555 1_555
V1F O5 1_555 1_555
V1C O5E 1_555 1_555
V1E O7E 1_555 1_555
O5F V1 1_555 1_555
O3D Ni2 1_555 1_555
O4G Ni2 1_555 1_555
O4C Ni2 1_555 1_555
N3D Ni2 1_555 1_555
O4E V1E 1_555 1_555
O5C V1E 1_555 1_555
O6E V1E 1_555 1_555
C8D N3D 1_555 1_555
C9D N3D 1_555 1_555
Ni2F O4E 1_555 1_555
C7D C8D 1_555 1_555
H6D C8D 1_555 1_555
C10D C9D 1_555 1_555
H7D C9D 1_555 1_555
C13E C13 1_555 1_555
C6D C7D 1_555 1_555
H5D C7D 1_555 1_555
H8D C10D 1_555 1_555
C12E C13E 1_555 1_555
C14E C13E 1_555 1_555
C3D C6D 1_555 1_555
C11E C12E 1_555 1_555
H10E C12E 1_555 1_555
C15E C14E 1_555 1_555
H11E C14E 1_555 1_555
C2D C3D 1_555 1_555
C4D C3D 1_555 1_555
N2E_2 C11E 1_555 1_555
H9E C11E 1_555 1_555
H12E C15E 1_555 1_555
C1D C2D 1_555 1_555
H2D C2D 1_555 1_555
C5D C4D 1_555 1_555
H3D C4D 1_555 1_555
Ni1_2 N2E_2 1_555 1_555
N1D C1D 1_555 1_555
H1D C1D 1_555 1_555
H4D C5D 1_555 1_555
Ni1A N1D 1_555 1_555
V2 O7 1_555 1_555
C4 C5 1_555 1_555
C7 C8 1_555 1_555
C9 C10 1_555 1_555
C14 C15 1_555 1_555
C10D C6D 1_555 1_555
C15E N2E_2 1_555 1_555
C5D N1D 1_555 1_555

#END
