
#######################################################################
#
#                 Cambridge Crystallographic Data Centre
#                                CCDC 
#
#######################################################################
#
# If this CIF has been generated from an entry in the Cambridge 
# Structural Database, then it will include bibliographic, chemical, 
# crystal, experimental, refinement or atomic coordinate data resulting 
# from the CCDC's data processing and validation procedures.
#
#######################################################################

data_RIRDAZ
_chemical_formula_moiety         '(C20 H14 Co2 N10 O4)n'
_symmetry_cell_setting           hexagonal
_symmetry_space_group_name_H-M   'P 63/m m c'
_symmetry_Int_Tables_number      194
_space_group_name_Hall           '-P 6c 2c'
loop_
_symmetry_equiv_pos_site_id
_symmetry_equiv_pos_as_xyz
1 x,y,z
2 x-y,x,1/2+z
3 -y,x-y,z
4 -x,-y,1/2+z
5 -x+y,-x,z
6 y,-x+y,1/2+z
7 x-y,-y,-z
8 -x,-x+y,-z
9 y,x,-z
10 -y,-x,1/2-z
11 -x+y,y,1/2-z
12 x,x-y,1/2-z
13 -x,-y,-z
14 -x+y,-x,1/2-z
15 y,-x+y,-z
16 x,y,1/2-z
17 x-y,x,-z
18 -y,x-y,1/2-z
19 -x+y,y,z
20 x,x-y,z
21 -y,-x,z
22 y,x,1/2+z
23 x-y,-y,1/2+z
24 -x,-x+y,1/2+z
_cell_length_a                   26.674(2)
_cell_length_b                   26.674(2)
_cell_length_c                   18.4694(20)
_cell_angle_alpha                90
_cell_angle_beta                 90
_cell_angle_gamma                120
_cell_volume                     11380.5
loop_
_atom_site_label
_atom_site_type_symbol
_atom_site_fract_x
_atom_site_fract_y
_atom_site_fract_z
_atom_site_U_iso_or_equiv
_atom_site_thermal_displace_type
C1 C 0.3593(3) 0.3143(3) 0.2844(5) 0.1490 Uani
H1 H 0.3295 0.3123 0.3128 0.1790 Uiso
C2 C 0.4377(4) 0.3216(3) 0.2500 0.0924 Uani
C3 C 0.3872(3) 0.3872(3) 0.5000 0.1290 Uani
H2 H 0.4220 0.4220 0.5000 0.1550 Uiso
N1 N 0.4908(3) 0.3261(2) 0.2500 0.1116 Uani
C4 C 0.2943(3) 0.2407(3) 0.4623(5) 0.1606 Uani
H3 H 0.3121 0.2227 0.4393 0.1920 Uiso
C5 C 0.55122(19) 0.44878(19) 0.4199(6) 0.1239 Uani
C6 C 0.4407(3) 0.22036(14) 0.4149(3) 0.0692 Uani
H4 H 0.4457 0.2229 0.3649 0.0830 Uiso
C7 C 0.4236(5) 0.2657(5) 0.5815(3) 0.1877 Uani
H5 H 0.4218 0.2996 0.5803 0.2250 Uiso
C8 C 0.3248(3) 0.2985(3) 0.4816(4) 0.1347 Uani
C9 C 0.5597(4) 0.3926(4) 0.4874(4) 0.1570 Uani
H6 H 0.5531 0.3597 0.5128 0.1880 Uiso
C10 C 0.4307(3) 0.2408(3) 0.5224(3) 0.1178 Uani
C11 C 0.2357(4) 0.2109(4) 0.4791(7) 0.2170 Uani
H7 H 0.2127 0.1734 0.4619 0.2600 Uiso
Co1 Co 0.44102(3) 0.33220(3) 0.41260(5) 0.0979 Uani
N2 N 0.3820(2) 0.34044(18) 0.4677(3) 0.1312 Uani
N3 N 0.5283(2) 0.4717(2) 0.3773(11) 0.2511 Uani
N4 N 0.4080(2) 0.31763(19) 0.3113(3) 0.0974 Uani
N5 N 0.43719(19) 0.26113(19) 0.4502(2) 0.0888 Uani
N6 N 0.5201(3) 0.3957(2) 0.4461(4) 0.1312 Uani
O1 O 0.4766(2) 0.4431(3) 0.3695(4) 0.1653 Uani
O2 O 0.5146(2) 0.3290(2) 0.3093(4) 0.1653 Uani
C12 C 0.4192(7) 0.2355(8) 0.6445(5) 0.3403 Uani
H8 H 0.4161 0.2508 0.6885 0.4080 Uiso
C1O C 0.3593(3) 0.3143(3) 0.2156(5) 0.1490 Uani
H1O H 0.3295 0.3123 0.1872 0.1790 Uiso
N4O N 0.4080(2) 0.31763(19) 0.1887(3) 0.0974 Uani
O2O O 0.5146(2) 0.3290(2) 0.1907(4) 0.1653 Uani
C4H C 0.2407(3) 0.2943(3) 0.5377(5) 0.1606 Uani
H3H H 0.2227 0.3121 0.5607 0.1920 Uiso
C8H C 0.2985(3) 0.3248(3) 0.5184(4) 0.1347 Uani
C11H C 0.2109(4) 0.2357(4) 0.5209(7) 0.2170 Uani
H7H H 0.1734 0.2127 0.5381 0.2600 Uiso
N2H N 0.34044(18) 0.3820(2) 0.5323(3) 0.1312 Uani
C9T C 0.6074(4) 0.4403(4) 0.4874(4) 0.1570 Uani
H6T H 0.6403 0.4469 0.5128 0.1880 Uiso
N6T N 0.6043(2) 0.4799(3) 0.4461(4) 0.1312 Uani
O1T O 0.5569(3) 0.5234(2) 0.3695(4) 0.1653 Uani
C7S C 0.4236(5) 0.1579(7) 0.5815(3) 0.1877 Uani
H5S H 0.4218 0.1222 0.5803 0.2250 Uiso
C10S C 0.4307(3) 0.1899(4) 0.5224(3) 0.1178 Uani
N5S N 0.43719(19) 0.17606(27) 0.4502(2) 0.0888 Uani
C12S C 0.4192(7) 0.1837(11) 0.6445(5) 0.3403 Uani
H8S H 0.4161 0.1653 0.6885 0.4080 Uiso
Co1H Co 0.33220(3) 0.44102(3) 0.58740(5) 0.0979 Uani
Co1O Co 0.44102(3) 0.33220(3) 0.08740(5) 0.0979 Uani
Co1S Co 0.44102(3) 0.10882(4) 0.41260(5) 0.0979 Uani
Co1T Co 0.66780(3) 0.55898(3) 0.41260(5) 0.0979 Uani
N4H N 0.31763(19) 0.4080(2) 0.6887(3) 0.0974 Uani
N5H N 0.26113(19) 0.43719(19) 0.5498(2) 0.0888 Uani
N6H N 0.3957(2) 0.5201(3) 0.5539(4) 0.1312 Uani
loop_
_atom_site_aniso_label
_atom_site_aniso_U_11
_atom_site_aniso_U_22
_atom_site_aniso_U_33
_atom_site_aniso_U_23
_atom_site_aniso_U_13
_atom_site_aniso_U_12
C1 0.076(4) 0.108(5) 0.267(12) 0.001(5) 0.015(5) 0.049(4)
C2 0.082(5) 0.054(4) 0.144(7) 0.000 0.000 0.036(4)
C3 0.075(3) 0.075(3) 0.219(9) -0.046(3) 0.046(3) 0.024(4)
N1 0.062(4) 0.042(3) 0.248(9) 0.000 0.000 0.039(3)
C4 0.132(6) 0.070(4) 0.227(8) -0.045(4) 0.077(6) 0.011(4)
C5 0.059(3) 0.059(3) 0.249(11) -0.032(3) 0.032(3) 0.026(4)
C6 0.078(4) 0.074(3) 0.057(3) 0.0081(13) 0.016(3) 0.039(2)
C7 0.307(14) 0.217(10) 0.059(3) 0.000(4) 0.047(5) 0.146(10)
C8 0.095(4) 0.069(4) 0.208(7) -0.046(4) 0.039(4) 0.017(3)
C9 0.127(6) 0.154(7) 0.123(5) 0.005(4) -0.005(4) 0.020(5)
C10 0.136(5) 0.141(5) 0.084(3) -0.013(3) 0.031(3) 0.075(4)
C11 0.095(5) 0.122(6) 0.347(16) -0.109(8) 0.071(7) -0.011(5)
Co1 0.0784(6) 0.0584(5) 0.1597(9) -0.0182(3) 0.0296(4) 0.0362(4)
N2 0.089(3) 0.060(3) 0.223(6) -0.043(3) 0.059(3) 0.021(2)
N3 0.076(4) 0.076(4) 0.60(3) 0.034(5) -0.034(5) 0.037(5)
N4 0.099(4) 0.078(3) 0.123(3) 0.002(2) 0.008(3) 0.050(3)
N5 0.108(3) 0.087(3) 0.077(2) -0.004(2) 0.025(2) 0.053(3)
N6 0.091(4) 0.076(3) 0.195(6) -0.035(4) 0.057(4) 0.018(3)
O1 0.102(3) 0.132(3) 0.276(4) 0.007(3) -0.025(3) 0.069(2)
O2 0.102(3) 0.132(3) 0.276(4) 0.007(3) -0.025(3) 0.069(2)
C12 0.44(2) 0.48(4) 0.101(5) -0.038(10) 0.048(7) 0.23(2)
C1O 0.076 0.108 0.267 -0.001 -0.015 0.049
N4O 0.099 0.078 0.123 -0.002 -0.008 0.05
O2O 0.102 0.132 0.276 -0.007 0.025 0.069
C4H 0.07 0.132 0.227 -0.077 0.045 0.011
C8H 0.069 0.095 0.208 -0.039 0.046 0.017
C11H 0.122 0.095 0.347 -0.071 0.109 -0.011
N2H 0.06 0.089 0.223 -0.059 0.043 0.021
C9T 0.154 0.127 0.123 0.005 -0.005 0.02
N6T 0.076 0.091 0.195 -0.057 0.035 0.018
O1T 0.132 0.102 0.276 0.025 -0.007 0.069
C7S 0.307 0.232 0.059 0.047 0.047 0.161
C10S 0.136 0.127 0.084 0.044 0.031 0.061
N5S 0.108 0.089 0.077 0.029 0.025 0.055
C12S 0.44 0.46 0.101 0.086 0.048 0.21
Co1H 0.0584 0.0784 0.1597 -0.0296 0.0182 0.0362
Co1O 0.0784 0.0584 0.1597 0.0182 -0.0296 0.0362
Co1S 0.0784 0.0644 0.1597 0.0478 0.0296 0.0422
Co1T 0.0584 0.0784 0.1597 -0.0296 0.0182 0.0362
N4H 0.078 0.099 0.123 -0.008 -0.002 0.05
N5H 0.087 0.108 0.077 -0.025 0.004 0.053
N6H 0.076 0.091 0.195 -0.057 0.035 0.018
loop_
_geom_bond_atom_site_label_1
_geom_bond_atom_site_label_2
_geom_bond_site_symmetry_1
_geom_bond_site_symmetry_2
C1 H1 1_555 1_555
C2 N1 1_555 1_555
C3 H2 1_555 1_555
N1 O2 1_555 1_555
C4 H3 1_555 1_555
C5 N3 1_555 1_555
C6 H4 1_555 1_555
C7 H5 1_555 1_555
C8 C4 1_555 1_555
C9 H6 1_555 1_555
C10 C7 1_555 1_555
C11 C4 1_555 1_555
H7 C11 1_555 1_555
Co1 N2 1_555 1_555
N2 C3 1_555 1_555
N3 O1 1_555 1_555
N4 C1 1_555 1_555
N5 C6 1_555 1_555
N6 C5 1_555 1_555
C12 C7 1_555 1_555
H8 C12 1_555 1_555
C1O C1 1_555 1_555
H1O C1O 1_555 1_555
N4O C2 1_555 1_555
O2O N1 1_555 1_555
C4H H3H 1_555 1_555
C8H C8 1_555 1_555
C11H C11 1_555 1_555
H7H C11H 1_555 1_555
N2H C3 1_555 1_555
C9T C9 1_555 1_555
H6T C9T 1_555 1_555
N6T C5 1_555 1_555
O1T N3 1_555 1_555
C7S H5S 1_555 1_555
C10S C10 1_555 1_555
N5S C6 1_555 1_555
C12S C12 1_555 1_555
H8S C12S 1_555 1_555
Co1H N2H 1_555 1_555
Co1O N4O 1_555 1_555
Co1S N5S 1_555 1_555
Co1T N6T 1_555 1_555
N4H Co1H 1_555 1_555
N5H Co1H 1_555 1_555
N6H Co1H 1_555 1_555
C2 N4 1_555 1_555
C8 N2 1_555 1_555
C9 N6 1_555 1_555
C10 N5 1_555 1_555
Co1 N4 1_555 1_555
Co1 N5 1_555 1_555
Co1 N6 1_555 1_555
C1O N4O 1_555 1_555
C4H C8H 1_555 1_555
C4H C11H 1_555 1_555
C8H N2H 1_555 1_555
C9T N6T 1_555 1_555
C7S C10S 1_555 1_555
C7S C12S 1_555 1_555
C10S N5S 1_555 1_555

#END
