
#######################################################################
#
#                 Cambridge Crystallographic Data Centre
#                                CCDC 
#
#######################################################################
#
# If this CIF has been generated from an entry in the Cambridge 
# Structural Database, then it will include bibliographic, chemical, 
# crystal, experimental, refinement or atomic coordinate data resulting 
# from the CCDC's data processing and validation procedures.
#
#######################################################################

data_RIRDED
_chemical_formula_moiety         'C20 H10 Co5 N13 O4'
_symmetry_cell_setting           hexagonal
_symmetry_space_group_name_H-M   'P 63/m m c'
_symmetry_Int_Tables_number      194
_space_group_name_Hall           '-P 6c 2c'
loop_
_symmetry_equiv_pos_site_id
_symmetry_equiv_pos_as_xyz
1 x,y,z
2 x-y,x,1/2+z
3 -y,x-y,z
4 -x,-y,1/2+z
5 -x+y,-x,z
6 y,-x+y,1/2+z
7 x-y,-y,-z
8 -x,-x+y,-z
9 y,x,-z
10 -y,-x,1/2-z
11 -x+y,y,1/2-z
12 x,x-y,1/2-z
13 -x,-y,-z
14 -x+y,-x,1/2-z
15 y,-x+y,-z
16 x,y,1/2-z
17 x-y,x,-z
18 -y,x-y,1/2-z
19 -x+y,y,z
20 x,x-y,z
21 -y,-x,z
22 y,x,1/2+z
23 x-y,-y,1/2+z
24 -x,-x+y,1/2+z
_cell_length_a                   26.113(2)
_cell_length_b                   26.113(2)
_cell_length_c                   19.6459(14)
_cell_angle_alpha                90
_cell_angle_beta                 90
_cell_angle_gamma                120
_cell_volume                     11601.6
loop_
_atom_site_label
_atom_site_type_symbol
_atom_site_fract_x
_atom_site_fract_y
_atom_site_fract_z
_atom_site_U_iso_or_equiv
_atom_site_thermal_displace_type
Co1 Co 0.66716(3) 0.10261(3) 0.40179(4) 0.0650 Uani
N1 N 0.74115(19) 0.17309(18) 0.4363(2) 0.0688 Uani
N2 N 0.65954(19) 0.0372(2) 0.4616(3) 0.0783 Uani
N3 N 0.6800(2) 0.0798(2) 0.3081(2) 0.0713 Uani
N4 N 0.6034(3) 0.1219(3) 0.4324(4) 0.1192 Uani
C1 C 0.78285(16) 0.21715(16) 0.4010(3) 0.0569 Uani
C2 C 0.7582(3) 0.1863(3) 0.5034(3) 0.0810 Uani
C3 C 0.6137(3) -0.0000 0.5000 0.0721 Uani
C4 C 0.7032(3) 0.0231(3) 0.4748(3) 0.0934 Uani
C5 C 0.6774(3) 0.1063(3) 0.2500 0.0570 Uani
C6 C 0.6807(3) 0.0326(3) 0.2850(3) 0.0984 Uani
C7 C 0.54807(18) 0.0961(4) 0.4110(5) 0.0724 Uani
C8 C 0.6072(5) 0.1595(6) 0.4747(5) 0.1757 Uani
H1 H 0.7813 0.2187 0.3538 0.0680 Uiso
C9 C 0.7343(4) 0.1562(4) 0.5649(4) 0.1428 Uani
H2 H 0.5781 -0.0000 0.5000 0.0870 Uiso
C10 C 0.7605(3) 0.0455(4) 0.4499(6) 0.1601 Uani
N5 N 0.6762(2) 0.1592(3) 0.2500 0.0636 Uani
H3 H 0.6811 0.0037 0.3121 0.1180 Uiso
N6 N 0.5216(4) 0.0433(8) 0.3742(7) 0.2010 Uani
H4 H 0.6400 0.1833 0.5015 0.2110 Uiso
H5 H 0.6989 0.1203 0.5650 0.1710 Uiso
C11 C 0.7626(5) 0.1797(5) 0.6229(3) 0.1744 Uani
C12 C 0.7936(4) 0.0210(6) 0.4740(8) 0.2119 Uani
H6 H 0.7761 0.0759 0.4181 0.1920 Uiso
O1 O 0.67329(18) 0.17952(18) 0.30582(19) 0.0788 Uani
O2 O 0.5535(4) 0.0254(5) 0.3552(8) 0.2776 Uani
N1T N 0.82691(18) 0.25885(19) 0.4363(2) 0.0688 Uani
C2T C 0.8137(3) 0.2418(3) 0.5034(3) 0.0810 Uani
C9T C 0.8438(4) 0.2657(4) 0.5649(4) 0.1428 Uani
H5T H 0.8797 0.3011 0.5650 0.1710 Uiso
C11T C 0.8203(5) 0.2374(5) 0.6229(3) 0.1744 Uani
N2F N 0.62234(28) -0.0372(2) 0.5384(3) 0.0783 Uani
C4F C 0.6801(4) -0.0231(3) 0.5252(3) 0.0934 Uani
C10F C 0.7150(5) -0.0455(4) 0.5501(6) 0.1601 Uani
C12F C 0.7726(7) -0.0210(6) 0.5260(8) 0.2119 Uani
H6F H 0.7002 -0.0759 0.5819 0.1920 Uiso
N3O N 0.6800(2) 0.0798(2) 0.1919(2) 0.0713 Uani
C6O C 0.6807(3) 0.0326(3) 0.2150(3) 0.0984 Uani
H3O H 0.6811 0.0037 0.1879 0.1180 Uiso
O1O O 0.67329(18) 0.17952(18) 0.19418(19) 0.0788 Uani
N4R N 0.5185(4) 0.1219(3) 0.4324(4) 0.1192 Uani
C8R C 0.5523(8) 0.1595(6) 0.4747(5) 0.1757 Uani
H4R H 0.5433 0.1833 0.5015 0.2110 Uiso
O2R O 0.4719(6) 0.0254(5) 0.3552(8) 0.2776 Uani
Co1F Co 0.56455(4) -0.10261(3) 0.59821(4) 0.0650 Uani
Co1O Co 0.66716(3) 0.10261(3) 0.09821(4) 0.0650 Uani
Co1R Co 0.43545(4) 0.10261(3) 0.40179(4) 0.0650 Uani
Co1T Co 0.89739(3) 0.33284(3) 0.40179(4) 0.0650 Uani
N1F N 0.56806(26) -0.17309(18) 0.5637(2) 0.0688 Uani
N3F N 0.6002(3) -0.0798(2) 0.6919(2) 0.0713 Uani
N4F N 0.4815(4) -0.1219(3) 0.5676(4) 0.1192 Uani
loop_
_atom_site_aniso_label
_atom_site_aniso_U_11
_atom_site_aniso_U_22
_atom_site_aniso_U_33
_atom_site_aniso_U_23
_atom_site_aniso_U_13
_atom_site_aniso_U_12
Co1 0.0552(5) 0.0549(5) 0.0708(6) 0.0181(3) 0.0066(3) 0.0169(4)
N1 0.071(3) 0.071(3) 0.041(2) 0.009(2) 0.008(2) 0.018(2)
N2 0.061(3) 0.072(3) 0.095(4) 0.039(3) 0.012(2) 0.028(2)
N3 0.063(3) 0.054(3) 0.082(3) 0.003(2) -0.009(2) 0.018(2)
N4 0.114(5) 0.122(5) 0.131(6) 0.032(5) 0.014(5) 0.066(5)
C1 0.063(3) 0.063(3) 0.032(3) 0.0036(15) -0.0036(15) 0.022(4)
C2 0.090(4) 0.089(4) 0.051(3) 0.012(3) 0.011(3) 0.035(3)
C3 0.060(3) 0.075(5) 0.087(6) 0.009(4) 0.004(2) 0.038(3)
C4 0.072(4) 0.102(5) 0.111(5) 0.050(4) 0.028(4) 0.047(4)
C5 0.048(4) 0.033(3) 0.075(5) 0.000 0.000 0.009(3)
C6 0.132(6) 0.069(4) 0.110(5) 0.010(3) 0.000(4) 0.062(4)
C7 0.061(4) 0.054(4) 0.100(7) 0.013(4) 0.007(2) 0.027(2)
C8 0.162(9) 0.259(13) 0.123(8) -0.103(9) -0.032(6) 0.118(9)
C9 0.169(8) 0.163(8) 0.051(4) 0.035(5) 0.024(5) 0.049(6)
C10 0.076(5) 0.185(9) 0.215(11) 0.101(9) 0.045(6) 0.062(6)
N5 0.047(3) 0.069(4) 0.052(4) 0.000 0.000 0.012(3)
N6 0.244(15) 0.232(18) 0.123(10) -0.040(11) -0.020(5) 0.116(9)
C11 0.225(11) 0.247(12) 0.034(3) 0.029(5) 0.019(5) 0.105(10)
C12 0.082(6) 0.253(14) 0.329(19) 0.169(13) 0.083(8) 0.105(8)
O1 0.093(3) 0.072(2) 0.059(2) -0.0102(18) 0.0039(19) 0.032(2)
O2 0.134(7) 0.261(10) 0.466(18) -0.196(12) -0.053(9) 0.120(7)
N1T 0.071 0.071 0.041 -0.008 -0.009 0.018
C2T 0.089 0.09 0.051 -0.011 -0.012 0.035
C9T 0.163 0.169 0.051 -0.024 -0.035 0.049
C11T 0.247 0.225 0.034 -0.019 -0.029 0.105
N2F 0.077 0.072 0.095 0.039 0.027 0.044
C4F 0.08 0.102 0.111 0.05 0.022 0.055
C10F 0.137 0.185 0.215 0.101 0.056 0.123
C12F 0.125 0.253 0.329 0.169 0.086 0.148
N3O 0.063 0.054 0.082 -0.003 0.009 0.018
C6O 0.132 0.069 0.11 -0.01 0 0.062
O1O 0.093 0.072 0.059 0.0102 -0.0039 0.032
N4R 0.104 0.122 0.131 0.032 0.018 0.056
C8R 0.185 0.259 0.123 -0.103 -0.071 0.141
O2R 0.155 0.261 0.466 -0.196 -0.143 0.141
Co1F 0.0763 0.0549 0.0708 0.0181 0.0115 0.038
Co1O 0.0552 0.0549 0.0708 -0.0181 -0.0066 0.0169
Co1R 0.0763 0.0549 0.0708 0.0181 0.0115 0.038
Co1T 0.0549 0.0552 0.0708 -0.0066 -0.0181 0.0169
N1F 0.106 0.071 0.041 0.009 0.001 0.053
N3F 0.081 0.054 0.082 0.003 0.012 0.036
N4F 0.104 0.122 0.131 0.032 0.018 0.056
loop_
_geom_bond_atom_site_label_1
_geom_bond_atom_site_label_2
_geom_bond_site_symmetry_1
_geom_bond_site_symmetry_2
Co1 N1 1_555 1_555
N1 C1 1_555 1_555
N2 Co1 1_555 1_555
N3 Co1 1_555 1_555
N4 Co1 1_555 1_555
C1 H1 1_555 1_555
C2 N1 1_555 1_555
C3 N2 1_555 1_555
C4 N2 1_555 1_555
C5 N3 1_555 1_555
C6 N3 1_555 1_555
C7 N4 1_555 1_555
C8 N4 1_555 1_555
C9 C2 1_555 1_555
H2 C3 1_555 1_555
C10 C4 1_555 1_555
N5 C5 1_555 1_555
H3 C6 1_555 1_555
N6 C7 1_555 1_555
H4 C8 1_555 1_555
H5 C9 1_555 1_555
C11 C9 1_555 1_555
C12 C10 1_555 1_555
H6 C10 1_555 1_555
O1 N5 1_555 1_555
O2 N6 1_555 1_555
N1T C1 1_555 1_555
C2T C2 1_555 1_555
C9T C2T 1_555 1_555
H5T C9T 1_555 1_555
C11T C11 1_555 1_555
N2F C3 1_555 1_555
C4F C4 1_555 1_555
C10F C4F 1_555 1_555
C12F C12 1_555 1_555
H6F C10F 1_555 1_555
N3O C5 1_555 1_555
C6O C6 1_555 1_555
H3O C6O 1_555 1_555
O1O N5 1_555 1_555
N4R C7 1_555 1_555
C8R C8 1_555 1_555
H4R C8R 1_555 1_555
O2R N6 1_555 1_555
Co1F N2F 1_555 1_555
Co1O N3O 1_555 1_555
Co1R N4R 1_555 1_555
Co1T N1T 1_555 1_555
N1F Co1F 1_555 1_555
N3F Co1F 1_555 1_555
N4F Co1F 1_555 1_555
N1T C2T 1_555 1_555
C9T C11T 1_555 1_555
N2F C4F 1_555 1_555
C10F C12F 1_555 1_555
N3O C6O 1_555 1_555
N4R C8R 1_555 1_555

#END
