
#######################################################################
#
#                 Cambridge Crystallographic Data Centre
#                                CCDC 
#
#######################################################################
#
# If this CIF has been generated from an entry in the Cambridge 
# Structural Database, then it will include bibliographic, chemical, 
# crystal, experimental, refinement or atomic coordinate data resulting 
# from the CCDC's data processing and validation procedures.
#
#######################################################################

data_RIRDIH
_chemical_formula_moiety         'C20 H10 Co5 N13 O4'
_symmetry_cell_setting           hexagonal
_symmetry_space_group_name_H-M   'P 63/m m c'
_symmetry_Int_Tables_number      194
_space_group_name_Hall           '-P 6c 2c'
loop_
_symmetry_equiv_pos_site_id
_symmetry_equiv_pos_as_xyz
1 x,y,z
2 x-y,x,1/2+z
3 -y,x-y,z
4 -x,-y,1/2+z
5 -x+y,-x,z
6 y,-x+y,1/2+z
7 x-y,-y,-z
8 -x,-x+y,-z
9 y,x,-z
10 -y,-x,1/2-z
11 -x+y,y,1/2-z
12 x,x-y,1/2-z
13 -x,-y,-z
14 -x+y,-x,1/2-z
15 y,-x+y,-z
16 x,y,1/2-z
17 x-y,x,-z
18 -y,x-y,1/2-z
19 -x+y,y,z
20 x,x-y,z
21 -y,-x,z
22 y,x,1/2+z
23 x-y,-y,1/2+z
24 -x,-x+y,1/2+z
_cell_length_a                   25.9949(12)
_cell_length_b                   25.9949(12)
_cell_length_c                   19.7757(11)
_cell_angle_alpha                90
_cell_angle_beta                 90
_cell_angle_gamma                120
_cell_volume                     11572.8
loop_
_atom_site_label
_atom_site_type_symbol
_atom_site_fract_x
_atom_site_fract_y
_atom_site_fract_z
_atom_site_U_iso_or_equiv
_atom_site_thermal_displace_type
Co1 Co 0.43467(4) 0.10167(4) 0.59921(4) 0.0715 Uani
N1 N 0.4826(3) 0.1584(3) 0.7500 0.0734 Uani
C1 C 0.4345(3) 0.21727(16) 0.6043(4) 0.0583 Uani
H1 H 0.4372 0.2186 0.6513 0.0700 Uiso
C2 C 0.4268(4) 0.1033(3) 0.7500 0.0794 Uani
N2 N 0.4323(3) 0.1734(2) 0.5660(2) 0.0811 Uani
O1 O 0.5056(2) 0.1778(2) 0.69430(19) 0.0886 Uani
C3 C 0.5469(3) 0.0937(6) 0.5905(3) 0.0790 Uani
N3 N 0.4017(3) 0.0793(3) 0.6921(3) 0.0961 Uani
N4 N 0.3764(2) 0.0370(2) 0.5405(3) 0.0869 Uani
N5 N 0.5170(3) 0.1191(3) 0.5648(5) 0.1336 Uani
C4 C 0.4304(3) 0.1891(3) 0.4968(4) 0.1008 Uani
C5 C 0.3180(4) 0.0206(4) 0.5280(4) 0.1208 Uani
C6 C 0.3864(4) 0.0000 0.5000 0.0770 Uani
H2 H 0.4222 0.0000 0.5000 0.0920 Uiso
C7 C 0.3503(4) 0.0320(3) 0.7136(4) 0.1131 Uani
H3 H 0.3201 0.0043 0.6861 0.1360 Uiso
C8 C 0.5539(6) 0.1689(6) 0.5328(6) 0.1810 Uani
H4 H 0.5460 0.1972 0.5146 0.2170 Uiso
O2 O 0.5525(3) 0.0231(4) 0.6395(5) 0.1819 Uani
C9 C 0.4295(5) 0.1608(5) 0.4309(7) 0.1580 Uani
H5 H 0.4360 0.1290 0.4249 0.1900 Uiso
C10 C 0.2821(5) 0.0461(6) 0.5502(6) 0.1876 Uani
H6 H 0.2970 0.0790 0.5785 0.2250 Uiso
C11 C 0.2233(5) 0.0174(8) 0.5260(9) 0.2038 Uani
C12 C 0.4182(11) 0.1880(8) 0.3833(7) 0.2663 Uani
N6 N 0.5184(4) 0.0368(7) 0.6247(8) 0.1642 Uani
O1O O 0.5056(2) 0.1778(2) 0.80570(19) 0.0886 Uani
N3O N 0.4017(3) 0.0793(3) 0.8079(3) 0.0961 Uani
C7O C 0.3503(4) 0.0320(3) 0.7864(4) 0.1131 Uani
H3O H 0.3201 0.0043 0.8139 0.1360 Uiso
N2S N 0.4323(3) 0.2589(4) 0.5660(2) 0.0811 Uani
C4S C 0.4304(3) 0.2413(4) 0.4968(4) 0.1008 Uani
C9S C 0.4295(5) 0.2687(7) 0.4309(7) 0.1580 Uani
H5S H 0.4360 0.3070 0.4249 0.1900 Uiso
C12S C 0.4182(11) 0.2302(14) 0.3833(7) 0.2663 Uani
N5R N 0.6021(4) 0.1191(3) 0.5648(5) 0.1336 Uani
C8R C 0.6150(8) 0.1689(6) 0.5328(6) 0.1810 Uani
H4R H 0.6512 0.1972 0.5146 0.2170 Uiso
O2R O 0.4706(5) 0.0231(4) 0.6395(5) 0.1819 Uani
N4F N 0.3394(3) -0.0370(2) 0.4595(3) 0.0869 Uani
C5F C 0.2974(6) -0.0206(4) 0.4720(4) 0.1208 Uani
C10F C 0.2360(8) -0.0461(6) 0.4498(6) 0.1876 Uani
H6F H 0.2180 -0.0790 0.4215 0.2250 Uiso
C11F C 0.2059(9) -0.0174(8) 0.4740(9) 0.2038 Uani
Co1F Co 0.33300(6) -0.10167(4) 0.40079(4) 0.0715 Uani
Co1O Co 0.43467(4) 0.10167(4) 0.90079(4) 0.0715 Uani
Co1R Co 0.66700(6) 0.10167(4) 0.59921(4) 0.0715 Uani
Co1S Co 0.43467(4) 0.33300(6) 0.59921(4) 0.0715 Uani
N2F N 0.2589(4) -0.1734(2) 0.4340(2) 0.0811 Uani
N3F N 0.3224(4) -0.0793(3) 0.3079(3) 0.0961 Uani
N5F N 0.3979(4) -0.1191(3) 0.4352(5) 0.1336 Uani
loop_
_atom_site_aniso_label
_atom_site_aniso_U_11
_atom_site_aniso_U_22
_atom_site_aniso_U_33
_atom_site_aniso_U_23
_atom_site_aniso_U_13
_atom_site_aniso_U_12
Co1 0.0941(7) 0.0660(6) 0.0635(6) -0.0157(3) -0.0093(4) 0.0468(5)
N1 0.082(5) 0.060(4) 0.115(6) 0.000 0.000 0.063(4)
C1 0.085(5) 0.051(3) 0.051(4) -0.0156(17) -0.031(3) 0.043(3)
C2 0.077(6) 0.032(4) 0.101(8) 0.000 0.000 0.006(4)
N2 0.144(5) 0.107(4) 0.022(2) 0.000(2) -0.001(2) 0.085(3)
O1 0.112(3) 0.092(3) 0.055(2) 0.007(2) 0.011(2) 0.046(3)
C3 0.112(5) 0.119(8) 0.009(3) -0.016(4) -0.0078(18) 0.060(4)
N3 0.126(5) 0.095(4) 0.071(3) -0.007(3) -0.038(3) 0.058(4)
N4 0.089(4) 0.065(3) 0.110(4) -0.047(3) -0.037(3) 0.041(3)
N5 0.096(5) 0.090(5) 0.194(8) -0.039(6) -0.014(5) 0.031(4)
C4 0.127(6) 0.098(4) 0.085(5) -0.035(4) -0.027(4) 0.062(4)
C5 0.124(7) 0.128(7) 0.125(7) -0.056(5) -0.028(5) 0.074(5)
C6 0.093(5) 0.072(5) 0.059(5) -0.021(4) -0.010(2) 0.036(3)
C7 0.110(5) 0.057(4) 0.122(6) 0.004(3) 0.004(4) 0.004(4)
C8 0.222(12) 0.176(11) 0.187(12) 0.074(9) 0.057(9) 0.131(10)
O2 0.084(4) 0.241(8) 0.231(9) 0.054(7) 0.022(4) 0.089(5)
C9 0.159(9) 0.133(8) 0.174(12) -0.083(8) -0.017(8) 0.067(7)
C10 0.160(9) 0.266(14) 0.212(12) -0.099(11) -0.010(9) 0.163(10)
C11 0.113(8) 0.282(19) 0.29(2) -0.068(13) -0.043(8) 0.154(12)
C12 0.55(3) 0.31(2) 0.119(9) -0.084(10) -0.045(13) 0.35(2)
N6 0.124(7) 0.194(14) 0.198(14) -0.059(11) -0.029(6) 0.097(7)
O1O 0.112 0.092 0.055 -0.007 -0.011 0.046
N3O 0.126 0.095 0.071 0.007 0.038 0.058
C7O 0.11 0.057 0.122 -0.004 -0.004 0.004
N2S 0.144 0.081 0.022 -0.001 -0.001 0.059
C4S 0.127 0.101 0.085 0.008 -0.027 0.065
C9S 0.159 0.158 0.174 0.066 -0.017 0.092
C12S 0.55 0.16 0.119 0.039 -0.045 0.2
N5R 0.124 0.09 0.194 -0.039 -0.025 0.059
C8R 0.136 0.176 0.187 0.074 0.017 0.045
O2R 0.147 0.241 0.231 0.054 0.032 0.152
N4F 0.072 0.065 0.11 -0.047 -0.01 0.024
C5F 0.104 0.128 0.125 -0.056 -0.028 0.054
C10F 0.1 0.266 0.212 -0.099 -0.089 0.103
C11F 0.087 0.282 0.29 -0.068 -0.025 0.128
Co1F 0.0665 0.066 0.0635 -0.0157 -0.0064 0.0192
Co1O 0.0941 0.066 0.0635 0.0157 0.0093 0.0468
Co1R 0.0665 0.066 0.0635 -0.0157 -0.0064 0.0192
Co1S 0.0941 0.0665 0.0635 0.0064 -0.0093 0.0473
N2F 0.081 0.107 0.022 0 0.001 0.022
N3F 0.105 0.095 0.071 -0.007 0.031 0.037
N5F 0.124 0.09 0.194 -0.039 -0.025 0.059
loop_
_geom_bond_atom_site_label_1
_geom_bond_atom_site_label_2
_geom_bond_site_symmetry_1
_geom_bond_site_symmetry_2
Co1 N2 1_555 1_555
N1 C2 1_555 1_555
C1 H1 1_555 1_555
C2 N3 1_555 1_555
N2 C1 1_555 1_555
O1 N1 1_555 1_555
C3 N5 1_555 1_555
N3 Co1 1_555 1_555
N4 Co1 1_555 1_555
N5 Co1 1_555 1_555
C4 N2 1_555 1_555
C5 N4 1_555 1_555
C6 N4 1_555 1_555
H2 C6 1_555 1_555
C7 N3 1_555 1_555
H3 C7 1_555 1_555
C8 N5 1_555 1_555
H4 C8 1_555 1_555
O2 N6 1_555 1_555
C9 C4 1_555 1_555
H5 C9 1_555 1_555
C10 C5 1_555 1_555
H6 C10 1_555 1_555
C11 C10 1_555 1_555
C12 C9 1_555 1_555
N6 C3 1_555 1_555
O1O N1 1_555 1_555
N3O C2 1_555 1_555
C7O C7 1_555 1_555
H3O C7O 1_555 1_555
N2S C1 1_555 1_555
C4S C4 1_555 1_555
C9S C4S 1_555 1_555
H5S C9S 1_555 1_555
C12S C12 1_555 1_555
N5R C3 1_555 1_555
C8R C8 1_555 1_555
H4R C8R 1_555 1_555
O2R N6 1_555 1_555
N4F C6 1_555 1_555
C5F C5 1_555 1_555
C10F C5F 1_555 1_555
H6F C10F 1_555 1_555
C11F C11 1_555 1_555
Co1F N4F 1_555 1_555
Co1O N3O 1_555 1_555
Co1R N5R 1_555 1_555
Co1S N2S 1_555 1_555
N2F Co1F 1_555 1_555
N3F Co1F 1_555 1_555
N5F Co1F 1_555 1_555
N3O C7O 1_555 1_555
N2S C4S 1_555 1_555
C9S C12S 1_555 1_555
N5R C8R 1_555 1_555
N4F C5F 1_555 1_555
C10F C11F 1_555 1_555

#END
