
#######################################################################
#
#                 Cambridge Crystallographic Data Centre
#                                CCDC 
#
#######################################################################
#
# If this CIF has been generated from an entry in the Cambridge 
# Structural Database, then it will include bibliographic, chemical, 
# crystal, experimental, refinement or atomic coordinate data resulting 
# from the CCDC's data processing and validation procedures.
#
#######################################################################

data_XEGJOK
_chemical_formula_moiety         '(C61 H50 Gd2 N16 O43)n'
_symmetry_cell_setting           monoclinic
_symmetry_space_group_name_H-M   'C 2/c'
_symmetry_Int_Tables_number      15
_space_group_name_Hall           '-C 2yc'
loop_
_symmetry_equiv_pos_site_id
_symmetry_equiv_pos_as_xyz
1 x,y,z
2 -x,y,1/2-z
3 1/2+x,1/2+y,z
4 1/2-x,1/2+y,1/2-z
5 -x,-y,-z
6 x,-y,1/2+z
7 1/2-x,1/2-y,-z
8 1/2+x,1/2-y,1/2+z
_cell_length_a                   24.428(7)
_cell_length_b                   30.251(7)
_cell_length_c                   13.356(3)
_cell_angle_alpha                90
_cell_angle_beta                 96.131(6)
_cell_angle_gamma                90
_cell_volume                     9813.25
loop_
_atom_site_label
_atom_site_type_symbol
_atom_site_fract_x
_atom_site_fract_y
_atom_site_fract_z
_atom_site_U_iso_or_equiv
_atom_site_thermal_displace_type
Gd1 Gd 0.77698(3) 0.761765(18) 0.64753(5) 0.0461 Uani
O1 O 0.7754(4) 0.6857(3) 0.6084(7) 0.0629 Uani
O2 O 0.7296(4) 0.6728(2) 0.4555(7) 0.0514 Uani
O3 O 0.7714(5) 0.3189(3) 0.7612(8) 0.0695 Uani
O4 O 0.6813(5) 0.3231(3) 0.7512(8) 0.0698 Uani
O5 O 0.7991(7) 0.5671(5) 0.8429(10) 0.1278 Uani
O6 O 0.7913(9) 0.5024(4) 0.8038(12) 0.1669 Uani
O7 O 0.6576(8) 0.5282(5) 0.3808(12) 0.1243 Uani
O8 O 0.6974(8) 0.4720(3) 0.4446(9) 0.1286 Uani
O9 O 0.8378(7) 0.4933(4) 0.5624(14) 0.1377 Uani
O10 O 0.8651(7) 0.4280(5) 0.5796(13) 0.1258 Uani
O11 O 0.6507(6) 0.5251(4) 0.6855(13) 0.1227 Uani
O12 O 0.5978(7) 0.4680(5) 0.6683(13) 0.1205 Uani
O13 O 0.6947(4) 0.7544(3) 0.5403(7) 0.0513 Uani
O14 O 0.6325(4) 0.7350(3) 0.4178(8) 0.0573 Uani
O15 O 0.5574(13) 0.7936(13) 0.890(2) 0.4198 Uani
O16 O 0.6200(10) 0.8191(9) 0.8410(17) 0.2784 Uani
O17 O 0.4414(7) 0.6807(5) 0.6618(13) 0.1302 Uani
O18 O 0.4521(8) 0.6915(8) 0.5101(16) 0.1818 Uani
O19 O 0.7212(5) 0.7281(4) 0.7644(10) 0.0894 Uani
O20 O 0.8365(6) 0.7268(3) 0.7725(9) 0.0785 Uani
N1 N 0.7880(8) 0.5401(4) 0.7795(11) 0.0882 Uani
N2 N 0.6948(7) 0.5093(4) 0.4427(11) 0.0773 Uani
N3 N 0.8336(7) 0.4564(4) 0.5929(12) 0.0847 Uani
N4 N 0.6441(8) 0.4855(5) 0.6716(12) 0.0831 Uani
N5 N 0.5788(7) 0.7986(6) 0.8163(12) 0.0958 Uani
N6 N 0.4671(7) 0.6960(7) 0.6003(17) 0.1166 Uani
N7 N 0.6982(8) 0.6812(6) 0.8905(14) 0.1324 Uani
N8 N 0.9135(12) 0.6955(9) 0.8533(18) 0.2140 Uani
C1 C 0.7530(7) 0.6618(4) 0.5419(13) 0.0560 Uani
C2 C 0.7507(7) 0.6126(4) 0.5625(10) 0.0549 Uani
C3 C 0.7702(6) 0.5966(4) 0.6556(10) 0.0546 Uani
H1 H 0.7856 0.6163 0.7041 0.0660 Uiso
C4 C 0.7678(7) 0.5533(4) 0.6796(11) 0.0594 Uani
C5 C 0.7452(7) 0.5220(4) 0.6114(10) 0.0552 Uani
C6 C 0.7241(7) 0.5387(4) 0.5196(11) 0.0594 Uani
C7 C 0.7255(7) 0.5838(4) 0.4926(11) 0.0551 Uani
H2 H 0.7100 0.5936 0.4299 0.0660 Uiso
C8 C 0.7397(7) 0.4732(4) 0.6352(11) 0.0603 Uani
C9 C 0.7817(7) 0.4426(4) 0.6322(11) 0.0601 Uani
C10 C 0.7779(7) 0.4000(4) 0.6625(10) 0.0629 Uani
H3 H 0.8074 0.3808 0.6598 0.0750 Uiso
C11 C 0.7302(6) 0.3857(4) 0.6970(9) 0.0473 Uani
C12 C 0.6866(6) 0.4132(4) 0.6962(10) 0.0500 Uani
H4 H 0.6534 0.4029 0.7153 0.0600 Uiso
C13 C 0.6913(6) 0.4569(4) 0.6668(11) 0.0562 Uani
C14 C 0.7268(9) 0.3388(5) 0.7374(11) 0.0612 Uani
C15 C 0.6463(7) 0.7452(4) 0.5046(12) 0.0510 Uani
C16 C 0.6038(6) 0.7456(4) 0.5795(11) 0.0490 Uani
C17 C 0.6103(6) 0.7711(5) 0.6643(11) 0.0562 Uani
H5 H 0.6418 0.7884 0.6777 0.0670 Uiso
C18 C 0.5702(6) 0.7715(5) 0.7306(11) 0.0540 Uani
C19 C 0.5231(7) 0.7462(6) 0.7152(14) 0.0745 Uani
C20 C 0.5149(7) 0.7228(5) 0.6240(12) 0.0646 Uani
C21 C 0.5541(7) 0.7239(5) 0.5558(12) 0.0698 Uani
H6 H 0.5468 0.7101 0.4936 0.0830 Uiso
C22 C 0.7106(10) 0.6933(6) 0.7946(17) 0.1270 Uani
H7 H 0.7104 0.6703 0.7483 0.1520 Uiso
C23 C 0.6872(13) 0.6358(7) 0.911(2) 0.1753 Uani
H8 H 0.6587 0.6250 0.8618 0.2620 Uiso
H9 H 0.6755 0.6332 0.9769 0.2620 Uiso
H10 H 0.7201 0.6187 0.9073 0.2620 Uiso
C24 C 0.6920(17) 0.7113(12) 0.975(3) 0.2543 Uani
H11 H 0.6538 0.7135 0.9849 0.3810 Uiso
H12 H 0.7057 0.7401 0.9593 0.3810 Uiso
H13 H 0.7126 0.7002 1.0346 0.3810 Uiso
C25 C 0.8855(9) 0.7273(12) 0.789(2) 0.2374 Uani
H14 H 0.9056 0.7487 0.7589 0.2830 Uiso
C26 C 0.971(2) 0.680(4) 0.849(5) 0.8591 Uani
H15 H 0.9962 0.7031 0.8745 1.2240 Uiso
H16 H 0.9769 0.6740 0.7802 1.2240 Uiso
H17 H 0.9777 0.6541 0.8888 1.2240 Uiso
C27 C 0.8901(19) 0.6529(11) 0.881(4) 0.3313 Uani
H18 H 0.8700 0.6398 0.8231 0.4810 Uiso
H19 H 0.8658 0.6577 0.9322 0.4810 Uiso
H20 H 0.9194 0.6334 0.9070 0.4810 Uiso
Gd1F Gd 0.72302(3) 0.738235(18) 0.35247(5) 0.0461 Uani
Gd1C Gd 0.72302(3) 0.261765(18) 0.85247(5) 0.0461 Uani
Gd1A Gd 0.22302(3) 0.761765(18) 0.85247(5) 0.0461 Uani
Gd1G Gd 0.27698(3) 0.738235(18) 1.14753(5) 0.0461 Uani
Gd1E Gd 0.77698(3) 1.238235(18) 0.14753(5) 0.0461 Uani
O1F O 0.7246(4) 0.8143(3) 0.3916(7) 0.0629 Uani
O2F O 0.7704(4) 0.8272(2) 0.5445(7) 0.0514 Uani
O3F O 0.7286(5) 1.1811(3) 0.2388(8) 0.0695 Uani
O3C O 0.7286(5) 0.8189(3) 0.7388(8) 0.0695 Uani
O3E O 0.7714(5) 0.6811(3) 0.2612(8) 0.0695 Uani
O4F O 0.8187(5) 1.1769(3) 0.2488(8) 0.0698 Uani
O4C O 0.8187(5) 0.8231(3) 0.7488(8) 0.0698 Uani
O4E O 0.6813(5) 0.6769(3) 0.2512(8) 0.0698 Uani
O5F O 0.7009(7) 0.9329(5) 0.1571(10) 0.1278 Uani
O6F O 0.7087(9) 0.9976(4) 0.1962(12) 0.1669 Uani
O7F O 0.8424(8) 0.9718(5) 0.6192(12) 0.1243 Uani
O8F O 0.8026(8) 1.0280(3) 0.5554(9) 0.1286 Uani
O9F O 0.6622(7) 1.0067(4) 0.4376(14) 0.1377 Uani
O10F O 0.6349(7) 1.0720(5) 0.4204(13) 0.1258 Uani
O11F O 0.8493(6) 0.9749(4) 0.3145(13) 0.1227 Uani
O12F O 0.9022(7) 1.0320(5) 0.3317(13) 0.1205 Uani
O13A O 0.3053(4) 0.7544(3) 0.9597(7) 0.0513 Uani
O13F O 0.8053(4) 0.7456(3) 0.4597(7) 0.0513 Uani
O14A O 0.3675(4) 0.7350(3) 1.0822(8) 0.0573 Uani
O14F O 0.8675(4) 0.7650(3) 0.5822(8) 0.0573 Uani
O15A O 0.4426(13) 0.7936(13) 0.610(2) 0.4198 Uani
O16A O 0.3800(10) 0.8191(9) 0.6590(17) 0.2784 Uani
O17A O 0.5586(7) 0.6807(5) 0.8382(13) 0.1302 Uani
O18A O 0.5479(8) 0.6915(8) 0.9899(16) 0.1818 Uani
O19F O 0.7788(5) 0.7719(4) 0.2356(10) 0.0894 Uani
O20F O 0.6635(6) 0.7732(3) 0.2275(9) 0.0785 Uani
N1F N 0.7120(8) 0.9599(4) 0.2205(11) 0.0882 Uani
N2F N 0.8052(7) 0.9907(4) 0.5573(11) 0.0773 Uani
N3F N 0.6664(7) 1.0436(4) 0.4071(12) 0.0847 Uani
N4F N 0.8559(8) 1.0145(5) 0.3284(12) 0.0831 Uani
N5A N 0.4212(7) 0.7986(6) 0.6837(12) 0.0958 Uani
N6A N 0.5329(7) 0.6960(7) 0.8997(17) 0.1166 Uani
N7F N 0.8018(8) 0.8188(6) 0.1095(14) 0.1324 Uani
N8F N 0.5865(12) 0.8045(9) 0.1467(18) 0.2140 Uani
C1F C 0.7470(7) 0.8382(4) 0.4581(13) 0.0560 Uani
C2F C 0.7493(7) 0.8874(4) 0.4375(10) 0.0549 Uani
C3F C 0.7298(6) 0.9034(4) 0.3444(10) 0.0546 Uani
H1F H 0.7144 0.8837 0.2959 0.0660 Uiso
C4F C 0.7322(7) 0.9467(4) 0.3204(11) 0.0594 Uani
C5F C 0.7548(7) 0.9780(4) 0.3886(10) 0.0552 Uani
C6F C 0.7759(7) 0.9613(4) 0.4804(11) 0.0594 Uani
C7F C 0.7745(7) 0.9162(4) 0.5074(11) 0.0551 Uani
H2F H 0.7900 0.9064 0.5701 0.0660 Uiso
C8F C 0.7603(7) 1.0268(4) 0.3648(11) 0.0603 Uani
C9F C 0.7183(7) 1.0574(4) 0.3678(11) 0.0601 Uani
C10F C 0.7221(7) 1.1000(4) 0.3375(10) 0.0629 Uani
H3F H 0.6926 1.1192 0.3402 0.0750 Uiso
C11F C 0.7698(6) 1.1143(4) 0.3030(9) 0.0473 Uani
C12F C 0.8134(6) 1.0868(4) 0.3038(10) 0.0500 Uani
H4F H 0.8466 1.0971 0.2847 0.0600 Uiso
C13F C 0.8087(6) 1.0431(4) 0.3332(11) 0.0562 Uani
C14F C 0.7732(9) 1.1612(5) 0.2626(11) 0.0612 Uani
C15A C 0.3537(7) 0.7452(4) 0.9954(12) 0.0510 Uani
C16A C 0.3962(6) 0.7456(4) 0.9205(11) 0.0490 Uani
C17A C 0.3897(6) 0.7711(5) 0.8357(11) 0.0562 Uani
H5A H 0.3582 0.7884 0.8223 0.0670 Uiso
C18A C 0.4298(6) 0.7715(5) 0.7694(11) 0.0540 Uani
C19A C 0.4769(7) 0.7462(6) 0.7848(14) 0.0745 Uani
C20A C 0.4851(7) 0.7228(5) 0.8760(12) 0.0646 Uani
C21A C 0.4459(7) 0.7239(5) 0.9442(12) 0.0698 Uani
H6A H 0.4532 0.7101 1.0064 0.0830 Uiso
C22F C 0.7894(10) 0.8067(6) 0.2054(17) 0.1270 Uani
H7F H 0.7896 0.8297 0.2517 0.1520 Uiso
C23F C 0.8128(13) 0.8642(7) 0.089(2) 0.1753 Uani
H8F H 0.8413 0.8750 0.1382 0.2620 Uiso
H9F H 0.8245 0.8668 0.0231 0.2620 Uiso
H10F H 0.7799 0.8813 0.0927 0.2620 Uiso
C24F C 0.8080(17) 0.7887(12) 0.025(3) 0.2543 Uani
H11F H 0.8462 0.7865 0.0151 0.3810 Uiso
H12F H 0.7943 0.7599 0.0407 0.3810 Uiso
H13F H 0.7874 0.7998 -0.0346 0.3810 Uiso
C25F C 0.6145(9) 0.7727(12) 0.211(2) 0.2374 Uani
H14F H 0.5944 0.7513 0.2411 0.2830 Uiso
C26F C 0.529(2) 0.820(4) 0.151(5) 0.8591 Uani
H15F H 0.5038 0.7969 0.1255 1.2240 Uiso
H16F H 0.5231 0.8260 0.2198 1.2240 Uiso
H17F H 0.5223 0.8459 0.1112 1.2240 Uiso
C27F C 0.6099(19) 0.8471(11) 0.119(4) 0.3313 Uani
H18F H 0.6300 0.8602 0.1769 0.4810 Uiso
H19F H 0.6342 0.8423 0.0678 0.4810 Uiso
H20F H 0.5806 0.8666 0.0930 0.4810 Uiso
O21 O 0.563(3) 0.611(2) 0.299(4) 0.8700 Uiso
C28 C 0.600(2) 0.6249(19) 0.356(3) 0.4800 Uiso
H21 H 0.6300 0.6391 0.3329 0.5790 Uiso
C29 C 0.5964(17) 0.6193(12) 0.459(2) 0.3600 Uiso
C30 C 0.630(2) 0.635(2) 0.537(3) 0.8200 Uiso
H22 H 0.6604 0.6519 0.5252 0.9790 Uiso
C31 C 0.6197(13) 0.6271(11) 0.633(2) 0.1780 Uiso
H23 H 0.6421 0.6385 0.6881 0.2130 Uiso
C32 C 0.5755(19) 0.6017(17) 0.646(3) 0.5700 Uiso
H24 H 0.5680 0.5950 0.7111 0.6820 Uiso
C33 C 0.5415(17) 0.5854(15) 0.567(4) 0.3500 Uiso
H25 H 0.5115 0.5681 0.5796 0.4260 Uiso
C34 C 0.5509(18) 0.5941(13) 0.471(4) 0.7200 Uiso
H26 H 0.5279 0.5836 0.4167 0.8660 Uiso
O22 O 0.5000 0.697(2) 0.2500 0.3805 Uani
O23 O 0.597(2) 0.883(2) 0.560(5) 0.6851 Uani
loop_
_atom_site_aniso_label
_atom_site_aniso_U_11
_atom_site_aniso_U_22
_atom_site_aniso_U_33
_atom_site_aniso_U_23
_atom_site_aniso_U_13
_atom_site_aniso_U_12
Gd1 0.0727(6) 0.0139(3) 0.0564(4) -0.0026(3) 0.0284(3) -0.0022(3)
O1 0.112(9) 0.016(4) 0.062(6) -0.005(4) 0.016(5) 0.007(5)
O2 0.087(8) 0.009(4) 0.063(6) 0.005(4) 0.030(5) -0.005(4)
O3 0.092(9) 0.038(5) 0.090(7) 0.038(5) 0.063(6) 0.018(6)
O4 0.086(9) 0.027(5) 0.097(8) 0.013(5) 0.012(7) -0.010(5)
O5 0.219(19) 0.075(10) 0.076(9) 0.016(8) -0.046(10) -0.029(10)
O6 0.31(3) 0.042(8) 0.128(13) 0.006(8) -0.072(14) 0.018(12)
O7 0.169(17) 0.080(10) 0.125(12) -0.007(9) 0.021(11) -0.057(11)
O8 0.28(2) 0.023(6) 0.079(8) -0.001(5) 0.002(10) -0.036(8)
O9 0.152(14) 0.037(7) 0.248(19) 0.022(9) 0.132(13) 0.000(8)
O10 0.134(14) 0.065(9) 0.193(15) 0.037(10) 0.085(11) 0.021(9)
O11 0.138(13) 0.032(7) 0.210(16) 0.041(8) 0.073(11) 0.024(7)
O12 0.088(12) 0.074(10) 0.197(16) 0.018(10) 0.004(11) 0.017(8)
O13 0.058(7) 0.027(5) 0.075(6) -0.015(4) 0.035(5) 0.001(4)
O14 0.059(7) 0.049(6) 0.065(6) -0.012(5) 0.012(5) 0.002(5)
O15 0.28(3) 0.70(7) 0.32(3) -0.38(5) 0.22(3) -0.31(4)
O16 0.33(3) 0.34(3) 0.20(2) -0.20(3) 0.19(2) -0.17(3)
O17 0.130(14) 0.123(13) 0.150(13) -0.043(11) 0.072(11) -0.068(11)
O18 0.109(15) 0.27(3) 0.172(18) -0.080(18) 0.041(12) -0.095(15)
O19 0.100(10) 0.052(7) 0.129(10) 0.032(7) 0.072(8) 0.000(6)
O20 0.111(11) 0.039(6) 0.086(8) 0.003(5) 0.013(7) 0.017(6)
N1 0.158(16) 0.027(7) 0.073(10) 0.003(7) -0.018(9) -0.012(8)
N2 0.134(15) 0.031(8) 0.066(9) 0.008(7) 0.007(9) -0.006(8)
N3 0.109(13) 0.034(8) 0.123(12) 0.013(8) 0.067(10) 0.020(8)
N4 0.095(14) 0.053(10) 0.103(11) 0.027(8) 0.019(10) 0.024(9)
N5 0.082(12) 0.121(14) 0.092(11) -0.043(10) 0.044(9) -0.029(10)
N6 0.062(12) 0.167(19) 0.126(16) -0.062(15) 0.034(11) -0.050(12)
N7 0.109(15) 0.127(17) 0.165(18) 0.086(16) 0.032(13) -0.016(12)
N8 0.27(4) 0.23(3) 0.15(2) 0.04(2) 0.06(2) 0.14(3)
C1 0.085(12) 0.016(6) 0.073(10) -0.004(7) 0.036(9) 0.006(7)
C2 0.087(12) 0.036(8) 0.044(8) -0.002(6) 0.018(7) 0.007(7)
C3 0.084(12) 0.031(7) 0.048(8) -0.011(6) 0.003(7) -0.005(7)
C4 0.085(12) 0.030(7) 0.064(9) 0.004(7) 0.011(8) -0.007(7)
C5 0.107(13) 0.019(6) 0.041(7) 0.006(6) 0.014(8) -0.002(7)
C6 0.103(13) 0.016(6) 0.064(9) -0.003(6) 0.031(9) -0.005(7)
C7 0.099(12) 0.010(6) 0.059(9) -0.003(6) 0.021(8) -0.011(7)
C8 0.097(14) 0.022(7) 0.063(9) 0.003(6) 0.014(8) -0.012(8)
C9 0.097(13) 0.020(7) 0.071(10) 0.006(6) 0.044(9) -0.003(7)
C10 0.104(13) 0.023(7) 0.067(10) 0.007(6) 0.033(9) 0.006(8)
C11 0.084(12) 0.020(6) 0.040(7) 0.001(5) 0.016(7) 0.002(7)
C12 0.064(10) 0.032(7) 0.055(8) 0.008(6) 0.011(7) 0.002(7)
C13 0.064(11) 0.027(7) 0.082(10) 0.010(7) 0.028(8) 0.015(7)
C14 0.103(15) 0.029(8) 0.052(9) 0.003(6) 0.010(9) 0.008(9)
C15 0.061(11) 0.023(7) 0.067(10) 0.004(6) -0.002(8) -0.005(7)
C16 0.051(9) 0.036(7) 0.064(9) -0.007(6) 0.025(7) -0.012(6)
C17 0.051(10) 0.054(9) 0.066(9) 0.002(7) 0.017(7) -0.009(7)
C18 0.052(10) 0.049(9) 0.065(9) -0.019(7) 0.025(7) -0.010(7)
C19 0.069(12) 0.069(11) 0.094(13) -0.002(9) 0.048(10) -0.001(9)
C20 0.056(11) 0.061(10) 0.083(11) 0.002(8) 0.036(9) -0.007(8)
C21 0.102(14) 0.041(8) 0.074(10) -0.020(7) 0.044(10) -0.009(8)
C22 0.15(2) 0.085(16) 0.16(2) 0.044(16) 0.081(17) 0.028(15)
C23 0.24(4) 0.13(2) 0.16(2) 0.08(2) 0.04(2) -0.02(2)
C24 0.32(6) 0.26(5) 0.19(3) -0.15(4) 0.06(3) -0.06(4)
C25 0.17(3) 0.40(6) 0.16(3) 0.12(3) 0.10(3) 0.17(4)
C26 0.75(16) 1.40(3) 0.51(9) 0.63(15) 0.45(11) 0.8(2)
C27 0.33(7) 0.20(3) 0.44(7) -0.01(4) -0.07(5) -0.20(4)
Gd1F 0.0727 0.0139 0.0564 -0.0026 0.0284 -0.0022
Gd1C 0.0727 0.0139 0.0564 0.0026 0.0284 0.0022
Gd1A 0.0727 0.0139 0.0564 0.0026 0.0284 0.0022
Gd1G 0.0727 0.0139 0.0564 0.0026 0.0284 0.0022
Gd1E 0.0727 0.0139 0.0564 0.0026 0.0284 0.0022
O1F 0.112 0.016 0.062 -0.005 0.016 0.007
O2F 0.087 0.009 0.063 0.005 0.03 -0.005
O3F 0.092 0.038 0.09 0.038 0.063 0.018
O3C 0.092 0.038 0.09 -0.038 0.063 -0.018
O3E 0.092 0.038 0.09 -0.038 0.063 -0.018
O4F 0.086 0.027 0.097 0.013 0.012 -0.01
O4C 0.086 0.027 0.097 -0.013 0.012 0.01
O4E 0.086 0.027 0.097 -0.013 0.012 0.01
O5F 0.219 0.075 0.076 0.016 -0.046 -0.029
O6F 0.31 0.042 0.128 0.006 -0.072 0.018
O7F 0.169 0.08 0.125 -0.007 0.021 -0.057
O8F 0.28 0.023 0.079 -0.001 0.002 -0.036
O9F 0.152 0.037 0.248 0.022 0.132 0
O10F 0.134 0.065 0.193 0.037 0.085 0.021
O11F 0.138 0.032 0.21 0.041 0.073 0.024
O12F 0.088 0.074 0.197 0.018 0.004 0.017
O13A 0.058 0.027 0.075 0.015 0.035 -0.001
O13F 0.058 0.027 0.075 -0.015 0.035 0.001
O14A 0.059 0.049 0.065 0.012 0.012 -0.002
O14F 0.059 0.049 0.065 -0.012 0.012 0.002
O15A 0.28 0.7 0.32 0.38 0.22 0.31
O16A 0.33 0.34 0.2 0.2 0.19 0.17
O17A 0.13 0.123 0.15 0.043 0.072 0.068
O18A 0.109 0.27 0.172 0.08 0.041 0.095
O19F 0.1 0.052 0.129 0.032 0.072 0
O20F 0.111 0.039 0.086 0.003 0.013 0.017
N1F 0.158 0.027 0.073 0.003 -0.018 -0.012
N2F 0.134 0.031 0.066 0.008 0.007 -0.006
N3F 0.109 0.034 0.123 0.013 0.067 0.02
N4F 0.095 0.053 0.103 0.027 0.019 0.024
N5A 0.082 0.121 0.092 0.043 0.044 0.029
N6A 0.062 0.167 0.126 0.062 0.034 0.05
N7F 0.109 0.127 0.165 0.086 0.032 -0.016
N8F 0.27 0.23 0.15 0.04 0.06 0.14
C1F 0.085 0.016 0.073 -0.004 0.036 0.006
C2F 0.087 0.036 0.044 -0.002 0.018 0.007
C3F 0.084 0.031 0.048 -0.011 0.003 -0.005
C4F 0.085 0.03 0.064 0.004 0.011 -0.007
C5F 0.107 0.019 0.041 0.006 0.014 -0.002
C6F 0.103 0.016 0.064 -0.003 0.031 -0.005
C7F 0.099 0.01 0.059 -0.003 0.021 -0.011
C8F 0.097 0.022 0.063 0.003 0.014 -0.012
C9F 0.097 0.02 0.071 0.006 0.044 -0.003
C10F 0.104 0.023 0.067 0.007 0.033 0.006
C11F 0.084 0.02 0.04 0.001 0.016 0.002
C12F 0.064 0.032 0.055 0.008 0.011 0.002
C13F 0.064 0.027 0.082 0.01 0.028 0.015
C14F 0.103 0.029 0.052 0.003 0.01 0.008
C15A 0.061 0.023 0.067 -0.004 -0.002 0.005
C16A 0.051 0.036 0.064 0.007 0.025 0.012
C17A 0.051 0.054 0.066 -0.002 0.017 0.009
C18A 0.052 0.049 0.065 0.019 0.025 0.01
C19A 0.069 0.069 0.094 0.002 0.048 0.001
C20A 0.056 0.061 0.083 -0.002 0.036 0.007
C21A 0.102 0.041 0.074 0.02 0.044 0.009
C22F 0.15 0.085 0.16 0.044 0.081 0.028
C23F 0.24 0.13 0.16 0.08 0.04 -0.02
C24F 0.32 0.26 0.19 -0.15 0.06 -0.06
C25F 0.17 0.4 0.16 0.12 0.1 0.17
C26F 0.75 1.4 0.51 0.63 0.45 0.8
C27F 0.33 0.2 0.44 -0.01 -0.07 -0.2
O22 0.52(9) 0.46(9) 0.19(4) 0.000 0.17(5) 0.000
O23 0.62(9) 0.60(10) 0.84(12) 0.62(10) 0.10(8) 0.21(8)
loop_
_geom_bond_atom_site_label_1
_geom_bond_atom_site_label_2
_geom_bond_site_symmetry_1
_geom_bond_site_symmetry_2
Gd1 O1 1_555 1_555
O1 C1 1_555 1_555
O2 C1 1_555 1_555
O3 C14 1_555 1_555
O4 C14 1_555 1_555
O5 N1 1_555 1_555
O6 N1 1_555 1_555
O7 N2 1_555 1_555
O8 N2 1_555 1_555
O9 N3 1_555 1_555
O10 N3 1_555 1_555
O11 N4 1_555 1_555
O12 N4 1_555 1_555
O13 Gd1 1_555 1_555
O14 C15 1_555 1_555
O15 N5 1_555 1_555
O16 N5 1_555 1_555
O17 N6 1_555 1_555
O18 N6 1_555 1_555
O19 Gd1 1_555 1_555
O20 Gd1 1_555 1_555
O21 C28 1_555 1_555
N1 C4 1_555 1_555
N2 C6 1_555 1_555
N3 C9 1_555 1_555
N4 C13 1_555 1_555
N5 C18 1_555 1_555
N6 C20 1_555 1_555
N7 C22 1_555 1_555
N8 C25 1_555 1_555
C1 C2 1_555 1_555
C2 C3 1_555 1_555
C3 H1 1_555 1_555
C4 C3 1_555 1_555
C5 C4 1_555 1_555
C6 C5 1_555 1_555
C7 C2 1_555 1_555
H2 C7 1_555 1_555
C8 C5 1_555 1_555
C9 C8 1_555 1_555
C10 C9 1_555 1_555
H3 C10 1_555 1_555
C11 C10 1_555 1_555
C12 C11 1_555 1_555
H4 C12 1_555 1_555
C13 C8 1_555 1_555
C14 C11 1_555 1_555
C15 O13 1_555 1_555
C16 C15 1_555 1_555
C17 C16 1_555 1_555
H5 C17 1_555 1_555
C18 C17 1_555 1_555
C19 C18 1_555 1_555
C20 C19 1_555 1_555
C21 C16 1_555 1_555
H6 C21 1_555 1_555
C22 O19 1_555 1_555
H7 C22 1_555 1_555
C23 N7 1_555 1_555
H8 C23 1_555 1_555
H9 C23 1_555 1_555
H10 C23 1_555 1_555
C24 N7 1_555 1_555
H11 C24 1_555 1_555
H12 C24 1_555 1_555
H13 C24 1_555 1_555
C25 O20 1_555 1_555
H14 C25 1_555 1_555
C26 N8 1_555 1_555
H15 C26 1_555 1_555
H16 C26 1_555 1_555
H17 C26 1_555 1_555
C27 N8 1_555 1_555
H18 C27 1_555 1_555
H19 C27 1_555 1_555
H20 C27 1_555 1_555
C28 H21 1_555 1_555
C29 C28 1_555 1_555
C30 C29 1_555 1_555
H22 C30 1_555 1_555
C31 C30 1_555 1_555
H23 C31 1_555 1_555
C32 C31 1_555 1_555
H24 C32 1_555 1_555
C33 C32 1_555 1_555
H25 C33 1_555 1_555
C34 C29 1_555 1_555
H26 C34 1_555 1_555
Gd1F O2 1_555 1_555
Gd1C O3 1_555 1_555
Gd1A O13A 1_555 1_555
Gd1G O13A 1_555 1_555
Gd1E O3F 1_555 1_555
O1F Gd1F 1_555 1_555
O2F Gd1 1_555 1_555
O3F C14F 1_555 1_555
O3C Gd1 1_555 1_555
O3E Gd1F 1_555 1_555
O4F Gd1E 1_555 1_555
O4C Gd1 1_555 1_555
O4E Gd1F 1_555 1_555
O5F N1F 1_555 1_555
O6F N1F 1_555 1_555
O7F N2F 1_555 1_555
O8F N2F 1_555 1_555
O9F N3F 1_555 1_555
O10F N3F 1_555 1_555
O11F N4F 1_555 1_555
O12F N4F 1_555 1_555
O13A C15A 1_555 1_555
O13F Gd1 1_555 1_555
O14A Gd1G 1_555 1_555
O14F Gd1 1_555 1_555
O15A N5A 1_555 1_555
O16A N5A 1_555 1_555
O17A N6A 1_555 1_555
O18A N6A 1_555 1_555
O19F Gd1F 1_555 1_555
O20F Gd1F 1_555 1_555
N1F C4F 1_555 1_555
N2F C6F 1_555 1_555
N3F C9F 1_555 1_555
N4F C13F 1_555 1_555
N5A C18A 1_555 1_555
N6A C20A 1_555 1_555
N7F C22F 1_555 1_555
N8F C25F 1_555 1_555
C1F O1F 1_555 1_555
C2F C1F 1_555 1_555
C3F C2F 1_555 1_555
H1F C3F 1_555 1_555
C4F C3F 1_555 1_555
C5F C4F 1_555 1_555
C6F C5F 1_555 1_555
C7F C2F 1_555 1_555
H2F C7F 1_555 1_555
C8F C5F 1_555 1_555
C9F C8F 1_555 1_555
C10F C9F 1_555 1_555
H3F C10F 1_555 1_555
C11F C10F 1_555 1_555
C12F C11F 1_555 1_555
H4F C12F 1_555 1_555
C13F C8F 1_555 1_555
C14F O4F 1_555 1_555
C15A O14A 1_555 1_555
C16A C15A 1_555 1_555
C17A C16A 1_555 1_555
H5A C17A 1_555 1_555
C18A C17A 1_555 1_555
C19A C19 1_555 1_555
C20A C19A 1_555 1_555
C21A C16A 1_555 1_555
H6A C21A 1_555 1_555
C22F O19F 1_555 1_555
H7F C22F 1_555 1_555
C23F N7F 1_555 1_555
H8F C23F 1_555 1_555
H9F C23F 1_555 1_555
H10F C23F 1_555 1_555
C24F N7F 1_555 1_555
H11F C24F 1_555 1_555
H12F C24F 1_555 1_555
H13F C24F 1_555 1_555
C25F O20F 1_555 1_555
H14F C25F 1_555 1_555
C26F N8F 1_555 1_555
H15F C26F 1_555 1_555
H16F C26F 1_555 1_555
H17F C26F 1_555 1_555
C27F N8F 1_555 1_555
H18F C27F 1_555 1_555
H19F C27F 1_555 1_555
H20F C27F 1_555 1_555
O4 Gd1C 1_555 1_555
O13 Gd1F 1_555 1_555
O14 Gd1F 1_555 1_555
C6 C7 1_555 1_555
C12 C13 1_555 1_555
C20 C21 1_555 1_555
C33 C34 1_555 1_555
Gd1F O13F 1_555 1_555
O2F C1F 1_555 1_555
C6F C7F 1_555 1_555
C11F C14F 1_555 1_555
C12F C13F 1_555 1_555
C18A C19A 1_555 1_555
C20A C21A 1_555 1_555

#END
