
#######################################################################
#
#                 Cambridge Crystallographic Data Centre
#                                CCDC 
#
#######################################################################
#
# If this CIF has been generated from an entry in the Cambridge 
# Structural Database, then it will include bibliographic, chemical, 
# crystal, experimental, refinement or atomic coordinate data resulting 
# from the CCDC's data processing and validation procedures.
#
#######################################################################

data_XEGJUQ
_chemical_formula_moiety         '(C62 H53 Gd2 N17 O44)n'
_symmetry_cell_setting           monoclinic
_symmetry_space_group_name_H-M   'P 21/n'
_symmetry_Int_Tables_number      14
_space_group_name_Hall           '-P 2yn'
loop_
_symmetry_equiv_pos_site_id
_symmetry_equiv_pos_as_xyz
1 x,y,z
2 1/2-x,1/2+y,1/2-z
3 -x,-y,-z
4 1/2+x,1/2-y,1/2+z
_cell_length_a                   13.307(6)
_cell_length_b                   30.217(5)
_cell_length_c                   23.947(7)
_cell_angle_alpha                90
_cell_angle_beta                 98.155(5)
_cell_angle_gamma                90
_cell_volume                     9531.66
loop_
_atom_site_label
_atom_site_type_symbol
_atom_site_fract_x
_atom_site_fract_y
_atom_site_fract_z
_atom_site_U_iso_or_equiv
_atom_site_thermal_displace_type
Gd1 Gd 0.14519(5) 0.22873(2) 0.27035(3) 0.0397 Uani
Gd2 Gd -0.15186(5) 0.25145(2) 0.20980(3) 0.0420 Uani
O1 O 0.0830(8) 0.2248(3) 0.3617(4) 0.0520 Uani
O2 O -0.0460(8) 0.2420(3) 0.2961(4) 0.0512 Uani
O3 O -0.5876(9) 0.2411(3) 0.6187(4) 0.0539 Uani
O4 O -0.4648(7) 0.2620(3) 0.6851(4) 0.0463 Uani
O5 O -0.3586(15) 0.2965(7) 0.3649(9) 0.1640 Uani
O6 O -0.3538(13) 0.3111(6) 0.4477(7) 0.1285 Uani
O7 O -0.0003(17) 0.1877(9) 0.5487(7) 0.1844 Uani
O8 O -0.1510(14) 0.1826(6) 0.5620(6) 0.1291 Uani
O9 O -0.3308(15) 0.1747(6) 0.4405(7) 0.1499 Uani
O10 O -0.4827(19) 0.1884(10) 0.4418(9) 0.2161 Uani
O11 O -0.0993(18) 0.2883(9) 0.5649(10) 0.2310 Uani
O12 O -0.1754(15) 0.3320(7) 0.6008(8) 0.1591 Uani
O13 O 0.2619(8) 0.6739(3) 0.2784(4) 0.0594 Uani
O14 O 0.2518(8) 0.6661(3) 0.1862(5) 0.0584 Uani
O15 O 0.1014(7) 0.3043(3) 0.2736(4) 0.0526 Uani
O16 O -0.0522(8) 0.3188(3) 0.2237(5) 0.0520 Uani
O17 O 0.0962(16) 0.5619(5) 0.3800(7) 0.1463 Uani
O18 O 0.0646(13) 0.4980(4) 0.3482(6) 0.1141 Uani
O19 O 0.1634(15) 0.4678(5) 0.1509(7) 0.1378 Uani
O20 O 0.1484(19) 0.5227(7) 0.1046(9) 0.1623 Uani
O21 O 0.2993(15) 0.4865(5) 0.3031(14) 0.2698 Uani
O22 O 0.3416(11) 0.4216(5) 0.3081(8) 0.1141 Uani
O23 O -0.0623(9) 0.5215(4) 0.2048(7) 0.1080 Uani
O24 O -0.1275(11) 0.4655(5) 0.1594(7) 0.0993 Uani
O25 O 0.0437(8) 0.1632(3) 0.2574(5) 0.0530 Uani
O26 O -0.1100(8) 0.1750(3) 0.2085(4) 0.0539 Uani
O27 O -0.2533(8) -0.1943(3) 0.2422(5) 0.0632 Uani
O28 O -0.2480(9) -0.1836(3) 0.3324(4) 0.0607 Uani
O29 O 0.1232(14) 0.0203(6) 0.3378(9) 0.1319 Uani
O30 O 0.0606(10) -0.0373(4) 0.2975(9) 0.1427 Uani
O31 O -0.3494(12) 0.0565(5) 0.1863(8) 0.1308 Uani
O32 O -0.3104(11) -0.0113(4) 0.2067(8) 0.1156 Uani
O33 O -0.1691(13) 0.0186(4) 0.3496(6) 0.1176 Uani
O34 O -0.1500(15) -0.0357(5) 0.4048(7) 0.1243 Uani
O35 O -0.0845(15) -0.0226(4) 0.1521(6) 0.1305 Uani
O36 O -0.0784(17) -0.0903(5) 0.1376(7) 0.1552 Uani
O37 O 0.2760(9) 0.2613(3) 0.3335(6) 0.0639 Uani
O38 O 0.2572(9) 0.2662(4) 0.2149(5) 0.0749 Uani
O39 O -0.2667(11) 0.2141(4) 0.2621(6) 0.0956 Uani
O40 O -0.2807(10) 0.2196(4) 0.1461(7) 0.0805 Uani
N1 N -0.3226(13) 0.2912(6) 0.4114(6) 0.0834 Uani
N2 N -0.0895(17) 0.1956(7) 0.5344(7) 0.1028 Uani
N3 N -0.3962(19) 0.1919(8) 0.4594(8) 0.1190 Uani
N4 N -0.1763(13) 0.3002(6) 0.5762(7) 0.0872 Uani
N5 N 0.0972(14) 0.5343(6) 0.3442(7) 0.0903 Uani
N6 N 0.1593(14) 0.5067(6) 0.1484(8) 0.0860 Uani
N7 N 0.2780(14) 0.4491(5) 0.2988(9) 0.1013 Uani
N8 N -0.0651(11) 0.4819(5) 0.1962(8) 0.0751 Uani
N9 N 0.0618(12) -0.0006(5) 0.2979(9) 0.0891 Uani
N10 N -0.2859(13) 0.0268(5) 0.2032(8) 0.0875 Uani
N11 N -0.1587(12) -0.0207(5) 0.3582(7) 0.0744 Uani
N12 N -0.1024(15) -0.0591(5) 0.1643(8) 0.1000 Uani
N13 N 0.3532(11) 0.2940(6) 0.4112(7) 0.0768 Uani
N14 N 0.3673(15) 0.3184(6) 0.1995(7) 0.0924 Uani
N15 N -0.382(2) 0.1679(9) 0.2864(12) 0.1601 Uani
N16 N -0.3573(14) 0.1905(8) 0.0635(10) 0.1164 Uani
C1 C -0.0068(14) 0.2342(4) 0.3474(6) 0.0461 Uani
C2 C -0.0753(12) 0.2388(4) 0.3911(6) 0.0480 Uani
C3 C -0.1630(11) 0.2627(5) 0.3809(6) 0.0489 Uani
H1 H -0.1800 0.2774 0.3467 0.0580 Uiso
C4 C -0.2281(12) 0.2650(4) 0.4229(6) 0.0486 Uani
C5 C -0.2047(13) 0.2437(5) 0.4741(6) 0.0553 Uani
C6 C -0.1177(13) 0.2201(6) 0.4816(6) 0.0601 Uani
C7 C -0.0513(13) 0.2180(5) 0.4425(6) 0.0575 Uani
H2 H 0.0094 0.2025 0.4507 0.0690 Uiso
C8 C -0.2782(12) 0.2455(6) 0.5180(6) 0.0555 Uani
C9 C -0.3706(14) 0.2217(6) 0.5103(7) 0.0671 Uani
C10 C -0.4418(13) 0.2228(6) 0.5459(7) 0.0654 Uani
H3 H -0.5012 0.2063 0.5384 0.0780 Uiso
C11 C -0.4230(11) 0.2496(5) 0.5942(6) 0.0441 Uani
C12 C -0.3351(11) 0.2748(5) 0.6030(6) 0.0509 Uani
H4 H -0.3221 0.2932 0.6343 0.0610 Uiso
C13 C -0.2663(11) 0.2722(5) 0.5641(5) 0.0469 Uani
C14 C -0.4954(13) 0.2507(5) 0.6346(6) 0.0465 Uani
C15 C 0.2374(11) 0.6525(4) 0.2335(7) 0.0444 Uani
C16 C 0.1977(11) 0.6072(4) 0.2383(6) 0.0450 Uani
C17 C 0.1652(12) 0.5913(5) 0.2873(7) 0.0640 Uani
H5 H 0.1654 0.6098 0.3183 0.0770 Uiso
C18 C 0.1320(12) 0.5470(5) 0.2897(7) 0.0595 Uani
C19 C 0.1330(12) 0.5174(5) 0.2471(7) 0.0553 Uani
C20 C 0.1629(11) 0.5343(4) 0.1979(7) 0.0517 Uani
C21 C 0.1940(11) 0.5780(5) 0.1940(7) 0.0535 Uani
H6 H 0.2129 0.5879 0.1602 0.0640 Uiso
C22 C 0.1030(12) 0.4688(5) 0.2508(7) 0.0576 Uani
C23 C 0.1736(13) 0.4373(5) 0.2741(8) 0.0640 Uani
C24 C 0.1491(12) 0.3934(5) 0.2758(7) 0.0565 Uani
H7 H 0.1969 0.3735 0.2930 0.0680 Uiso
C25 C 0.0556(14) 0.3785(5) 0.2527(7) 0.0605 Uani
C26 C -0.0128(11) 0.4088(4) 0.2279(7) 0.0498 Uani
H8 H -0.0766 0.3996 0.2109 0.0600 Uiso
C27 C 0.0128(10) 0.4528(4) 0.2281(7) 0.0500 Uani
C28 C 0.0279(12) 0.3296(4) 0.2489(7) 0.0432 Uani
C29 C -0.0418(13) 0.1508(4) 0.2326(6) 0.0422 Uani
C30 C -0.0647(11) 0.1020(4) 0.2361(7) 0.0466 Uani
C31 C 0.0075(12) 0.0727(5) 0.2617(7) 0.0553 Uani
H9 H 0.0726 0.0826 0.2752 0.0670 Uiso
C32 C -0.0167(12) 0.0296(4) 0.2669(7) 0.0579 Uani
C33 C -0.1114(13) 0.0107(5) 0.2493(8) 0.0630 Uani
C34 C -0.1809(13) 0.0419(5) 0.2247(7) 0.0613 Uani
C35 C -0.1594(12) 0.0866(5) 0.2181(7) 0.0546 Uani
H10 H -0.2097 0.1057 0.2014 0.0650 Uiso
C36 C -0.1367(11) -0.0367(4) 0.2591(7) 0.0543 Uani
C37 C -0.1617(11) -0.0509(4) 0.3098(6) 0.0444 Uani
C38 C -0.1901(12) -0.0943(4) 0.3203(7) 0.0530 Uani
H11 H -0.2063 -0.1022 0.3555 0.0640 Uiso
C39 C -0.1935(10) -0.1247(4) 0.2779(7) 0.0472 Uani
C40 C -0.1656(12) -0.1123(4) 0.2272(7) 0.0555 Uani
H12 H -0.1670 -0.1329 0.1982 0.0660 Uiso
C41 C -0.1356(13) -0.0699(5) 0.2192(7) 0.0636 Uani
C42 C -0.2306(11) -0.1704(4) 0.2859(7) 0.0446 Uani
C43 C 0.2996(15) 0.2627(6) 0.3840(10) 0.0787 Uani
H13 H 0.2778 0.2397 0.4051 0.0940 Uiso
C44 C 0.3765(19) 0.2948(9) 0.4731(10) 0.1207 Uani
H14 H 0.3297 0.2760 0.4889 0.1820 Uiso
H15 H 0.3706 0.3245 0.4864 0.1820 Uiso
H16 H 0.4445 0.2843 0.4844 0.1820 Uiso
C45 C 0.3903(19) 0.3312(6) 0.3825(10) 0.1134 Uani
H17 H 0.3759 0.3267 0.3424 0.1670 Uiso
H18 H 0.4622 0.3340 0.3934 0.1670 Uiso
H19 H 0.3573 0.3578 0.3924 0.1670 Uiso
C46 C 0.292(2) 0.2966(10) 0.2078(9) 0.1552 Uani
H20 H 0.2401 0.3174 0.2075 0.1860 Uiso
C47 C 0.459(3) 0.2887(11) 0.2034(14) 0.1905 Uani
H21 H 0.4419 0.2599 0.2162 0.2890 Uiso
H22 H 0.5131 0.3010 0.2295 0.2890 Uiso
H23 H 0.4805 0.2861 0.1669 0.2890 Uiso
C48 C 0.395(3) 0.3637(9) 0.1914(13) 0.1830 Uani
H24 H 0.3476 0.3828 0.2066 0.2690 Uiso
H25 H 0.3922 0.3694 0.1518 0.2690 Uiso
H26 H 0.4619 0.3690 0.2104 0.2690 Uiso
C49 C -0.298(3) 0.1849(9) 0.2824(11) 0.1820 Uani
H27 H -0.2457 0.1683 0.3022 0.2160 Uiso
C50 C -0.472(3) 0.1930(11) 0.2921(17) 0.2510 Uani
H28 H -0.4530 0.2218 0.3072 0.3720 Uiso
H29 H -0.5105 0.1778 0.3171 0.3720 Uiso
H30 H -0.5123 0.1962 0.2558 0.3720 Uiso
C51 C -0.394(3) 0.1248(9) 0.310(2) 0.3435 Uani
H31 H -0.4308 0.1275 0.3415 0.5140 Uiso
H32 H -0.3289 0.1120 0.3221 0.5140 Uiso
H33 H -0.4316 0.1062 0.2818 0.5140 Uiso
C52 C -0.3041(19) 0.2228(8) 0.0976(13) 0.1005 Uani
H34 H -0.2863 0.2486 0.0803 0.1220 Uiso
C53 C -0.380(2) 0.1462(9) 0.0899(13) 0.1500 Uani
H35 H -0.3542 0.1226 0.0692 0.2220 Uiso
H36 H -0.4519 0.1429 0.0887 0.2220 Uiso
H37 H -0.3477 0.1454 0.1284 0.2220 Uiso
C54 C -0.389(2) 0.1978(11) -0.0016(12) 0.1568 Uani
H38 H -0.4608 0.2020 -0.0095 0.2340 Uiso
H39 H -0.3696 0.1724 -0.0217 0.2340 Uiso
H40 H -0.3548 0.2236 -0.0132 0.2340 Uiso
Gd1C Gd -0.35481(5) 0.27127(2) 0.77035(3) 0.0397 Uani
Gd1A Gd 0.35481(5) 0.72873(2) 0.22965(3) 0.0397 Uani
Gd2C Gd -0.65186(5) 0.24855(2) 0.70980(3) 0.0420 Uani
Gd2A Gd -0.34814(5) -0.24855(2) 0.29020(3) 0.0420 Uani
O3C O -0.0876(9) 0.2589(3) 0.1187(4) 0.0539 Uani
O4C O 0.0352(7) 0.2380(3) 0.1851(4) 0.0463 Uani
O13A O 0.2381(8) 0.1739(3) 0.2216(4) 0.0594 Uani
O14A O 0.2482(8) 0.1661(3) 0.3138(5) 0.0584 Uani
O27A O -0.2467(8) 0.3057(3) 0.2578(5) 0.0632 Uani
O28A O -0.2520(9) 0.3164(3) 0.1676(4) 0.0607 Uani
O41 O 0.5769(11) 0.0869(4) 0.4825(7) 0.9400 Uiso
N17 N 0.6227(14) 0.1402(8) 0.6304(12) 0.7633 Uani
C55 C 0.249(3) 0.1659(13) 0.476(2) 0.4543 Uani
H41 H 0.1904 0.1808 0.4599 0.5480 Uiso
C56 C 0.273(2) 0.1604(10) 0.532(2) 0.4708 Uani
H42 H 0.2303 0.1720 0.5562 0.5670 Uiso
C57 C 0.360(2) 0.1378(10) 0.5544(14) 0.4487 Uani
H43 H 0.3777 0.1369 0.5934 0.5400 Uiso
C58 C 0.4205(3) 0.1161(10) 0.5205(2) 2.0000 Uiso
C59 C 0.398(4) 0.1241(15) 0.4635(8) 0.4825 Uani
H44 H 0.4401 0.1128 0.4390 0.5760 Uiso
C60 C 0.315(3) 0.1486(18) 0.4427(17) 0.6900 Uiso
H45 H 0.3027 0.1537 0.4040 0.8310 Uiso
C61 C 0.5291(14) 0.0969(6) 0.5345(7) 0.5109 Uani
C62 C 0.5807(10) 0.1224(16) 0.5879(9) 0.3255 Uani
H46 H 0.5256 0.0698 0.5428 2.0000 Uiso
H47 H 0.629(5) 0.071(3) 0.479(5) 0.9500 Uiso
O42 O -0.558(4) 0.1023(18) -0.091(3) 0.5462 Uani
O43 O -0.075(4) 0.1167(16) 0.391(3) 0.6954 Uani
O44 O 0.545(5) 0.411(2) 0.567(3) 0.4800 Uiso
loop_
_atom_site_aniso_label
_atom_site_aniso_U_11
_atom_site_aniso_U_22
_atom_site_aniso_U_33
_atom_site_aniso_U_23
_atom_site_aniso_U_13
_atom_site_aniso_U_12
Gd1 0.0493(5) 0.0194(3) 0.0571(5) 0.0023(3) 0.0304(3) 0.0021(3)
Gd2 0.0496(5) 0.0206(4) 0.0625(5) 0.0013(3) 0.0308(4) 0.0013(3)
O1 0.049(7) 0.052(7) 0.058(7) -0.005(5) 0.018(5) 0.008(5)
O2 0.074(8) 0.028(5) 0.060(7) 0.003(4) 0.039(6) 0.001(5)
O3 0.063(8) 0.044(6) 0.059(7) 0.000(5) 0.024(6) -0.003(5)
O4 0.065(7) 0.018(5) 0.062(7) 0.003(4) 0.030(5) 0.002(4)
O5 0.140(17) 0.22(2) 0.156(18) 0.071(16) 0.104(15) 0.092(15)
O6 0.124(14) 0.162(16) 0.114(13) 0.025(11) 0.067(11) 0.073(12)
O7 0.148(19) 0.33(3) 0.087(12) 0.094(15) 0.057(12) 0.11(2)
O8 0.155(16) 0.159(16) 0.091(11) 0.060(10) 0.079(11) 0.076(12)
O9 0.182(18) 0.156(16) 0.141(15) -0.089(12) 0.124(14) -0.088(13)
O10 0.15(2) 0.38(4) 0.126(17) -0.13(2) 0.046(15) -0.12(2)
O11 0.19(2) 0.34(3) 0.20(2) -0.20(2) 0.155(19) -0.17(2)
O12 0.184(18) 0.166(18) 0.156(16) -0.095(14) 0.123(14) -0.127(15)
O13 0.075 0.038 0.075 -0.017 0.045 -0.024
O14 0.077 0.033 0.069 0.007 0.023 -0.004
O15 0.037 0.051 0.073 -0.006 0.019 -0.024
O16 0.037 0.028 0.093 -0.002 0.016 -0.007
O17 0.27 0.072 0.125 -0.025 0.125 -0.077
O18 0.206 0.025 0.134 0.012 0.102 -0.022
O19 0.22 0.049 0.167 -0.047 0.105 -0.056
O20 0.27 0.115 0.106 -0.053 0.041 -0.056
O21 0.13 0.043 0.57 -0.039 -0.18 0.005
O22 0.077 0.059 0.201 0.019 0.001 0
O23 0.062 0.033 0.227 0.015 0.014 0.009
O24 0.073 0.065 0.156 0.035 0.003 0.007
O25 0.045(7) 0.036(6) 0.082(8) -0.004(5) 0.023(6) -0.006(5)
O26 0.069(7) 0.008(4) 0.086(8) -0.011(4) 0.015(6) 0.003(5)
O27 0.087(9) 0.039(6) 0.076(8) -0.009(5) 0.054(6) -0.021(5)
O28 0.087(9) 0.041(6) 0.057(7) 0.004(5) 0.020(6) -0.010(5)
O29 0.115(15) 0.080(12) 0.20(2) 0.034(12) 0.020(13) 0.013(10)
O30 0.076(10) 0.025(7) 0.32(2) 0.054(10) 0.004(12) -0.012(6)
O31 0.087(12) 0.068(10) 0.220(19) 0.039(11) -0.038(12) -0.030(8)
O32 0.097(11) 0.020(6) 0.226(18) -0.008(8) 0.010(11) -0.023(6)
O33 0.201(17) 0.037(8) 0.134(13) -0.034(8) 0.090(12) -0.046(9)
O34 0.22(2) 0.065(10) 0.091(11) -0.041(9) 0.033(12) -0.023(10)
O35 0.25(2) 0.046(9) 0.120(12) 0.003(8) 0.111(13) -0.025(10)
O36 0.29(2) 0.053(10) 0.157(15) -0.012(9) 0.151(17) -0.037(12)
O37 0.067(8) 0.043(7) 0.083(9) -0.007(6) 0.015(7) -0.003(5)
O38 0.090(9) 0.061(7) 0.089(9) -0.015(6) 0.066(7) -0.046(7)
O39 0.115(11) 0.063(8) 0.130(11) -0.012(7) 0.091(10) -0.044(7)
O40 0.082(10) 0.065(9) 0.092(10) 0.006(8) 0.004(8) 0.006(6)
N1 0.107(14) 0.116(14) 0.032(8) 0.012(8) 0.026(9) 0.050(11)
N2 0.111(17) 0.135(17) 0.073(12) 0.031(11) 0.050(12) 0.061(13)
N3 0.112(18) 0.18(2) 0.081(13) -0.051(13) 0.069(13) -0.054(16)
N4 0.103(14) 0.097(13) 0.080(11) -0.037(9) 0.077(10) -0.043(10)
N5 0.123 0.067 0.091 -0.018 0.05 -0.025
N6 0.121 0.056 0.093 -0.018 0.057 -0.014
N7 0.09 0.018 0.184 0.007 -0.022 -0.012
N8 0.031 0.04 0.157 0.017 0.023 -0.001
N9 0.060(11) 0.032(9) 0.177(19) 0.024(10) 0.023(11) -0.010(8)
N10 0.074(12) 0.053(11) 0.134(15) 0.025(10) 0.010(11) -0.011(9)
N11 0.099(13) 0.051(10) 0.083(12) -0.022(8) 0.047(10) -0.021(8)
N12 0.166(18) 0.033(9) 0.124(14) -0.017(9) 0.100(13) -0.025(9)
N13 0.069(11) 0.085(12) 0.074(11) -0.018(9) 0.002(8) -0.008(9)
N14 0.106(15) 0.100(15) 0.076(11) 0.007(10) 0.030(10) -0.037(12)
N15 0.16(2) 0.13(2) 0.22(3) -0.04(2) 0.13(2) -0.085(19)
N16 0.065(13) 0.13(2) 0.15(2) -0.014(16) 0.001(12) -0.008(12)
C1 0.080(13) 0.023(7) 0.039(9) 0.004(6) 0.021(8) 0.001(7)
C2 0.064(11) 0.034(8) 0.054(9) 0.007(6) 0.036(8) 0.008(7)
C3 0.057(10) 0.043(9) 0.052(9) 0.007(6) 0.026(8) 0.008(7)
C4 0.064(11) 0.030(8) 0.062(10) 0.000(7) 0.044(8) 0.005(7)
C5 0.062(11) 0.063(11) 0.047(9) -0.002(7) 0.029(8) 0.004(8)
C6 0.069(12) 0.077(12) 0.042(9) 0.012(8) 0.034(8) 0.011(9)
C7 0.062(11) 0.060(11) 0.054(10) -0.008(8) 0.020(8) 0.015(8)
C8 0.056(11) 0.074(12) 0.041(9) -0.001(8) 0.022(7) -0.001(8)
C9 0.082(14) 0.073(13) 0.052(10) -0.028(8) 0.029(9) -0.010(10)
C10 0.069(12) 0.066(12) 0.067(11) -0.002(9) 0.030(9) -0.006(9)
C11 0.049(9) 0.038(8) 0.051(9) -0.013(7) 0.027(7) -0.011(7)
C12 0.056(11) 0.044(9) 0.055(9) -0.006(7) 0.016(8) 0.002(7)
C13 0.050(10) 0.062(10) 0.033(8) 0.000(7) 0.021(7) -0.006(8)
C14 0.061(11) 0.037(8) 0.042(9) -0.010(7) 0.009(8) -0.008(7)
C15 0.04 0.024 0.071 -0.006 0.014 -0.004
C16 0.055 0.025 0.061 0 0.029 -0.003
C17 0.057 0.049 0.09 -0.012 0.024 -0.003
C18 0.067 0.037 0.082 -0.002 0.036 -0.006
C19 0.059 0.029 0.083 -0.004 0.028 -0.001
C20 0.051 0.028 0.082 -0.011 0.03 -0.011
C21 0.055 0.038 0.073 0.001 0.028 -0.006
C22 0.05 0.028 0.096 -0.006 0.015 -0.007
C23 0.054 0.035 0.102 0.006 0.008 -0.006
C24 0.05 0.023 0.098 0.004 0.016 -0.006
C25 0.083 0.022 0.081 0.001 0.027 0.011
C26 0.041 0.021 0.09 -0.007 0.018 -0.005
C27 0.024 0.028 0.098 -0.007 0.009 0.001
C28 0.034 0.017 0.08 0.007 0.013 0.016
C29 0.058(11) 0.016(7) 0.057(9) 0.002(6) 0.023(8) 0.003(7)
C30 0.046(10) 0.024(7) 0.075(11) -0.001(7) 0.027(8) -0.003(7)
C31 0.048(10) 0.048(10) 0.073(11) 0.014(8) 0.019(8) 0.000(7)
C32 0.048(10) 0.021(8) 0.112(14) 0.013(8) 0.037(9) 0.010(7)
C33 0.071(13) 0.020(8) 0.102(13) -0.006(8) 0.026(10) -0.014(8)
C34 0.070(12) 0.024(8) 0.093(13) 0.001(8) 0.022(10) -0.013(8)
C35 0.051(11) 0.034(9) 0.082(12) -0.003(7) 0.021(9) -0.005(7)
C36 0.053(10) 0.019(7) 0.099(12) 0.002(7) 0.039(9) -0.008(6)
C37 0.043(9) 0.030(8) 0.063(10) -0.021(7) 0.017(7) -0.007(6)
C38 0.061(11) 0.026(8) 0.077(11) -0.011(7) 0.027(9) -0.011(7)
C39 0.041(9) 0.023(7) 0.084(11) -0.003(7) 0.031(8) -0.014(6)
C40 0.075(12) 0.017(7) 0.083(11) -0.007(7) 0.041(9) -0.005(7)
C41 0.079(13) 0.020(8) 0.104(14) -0.008(8) 0.055(10) -0.011(7)
C42 0.052(10) 0.013(6) 0.074(11) -0.010(7) 0.027(8) 0.011(6)
C43 0.075(15) 0.061(13) 0.101(17) 0.002(11) 0.016(13) -0.026(10)
C44 0.12(2) 0.14(2) 0.10(2) 0.008(16) 0.008(16) -0.003(16)
C45 0.14(2) 0.050(13) 0.14(2) 0.020(13) -0.015(16) -0.031(13)
C46 0.18(3) 0.21(3) 0.095(17) -0.033(17) 0.087(17) -0.17(3)
C47 0.22(4) 0.14(3) 0.18(3) 0.09(2) -0.08(3) -0.05(3)
C48 0.24(4) 0.12(2) 0.22(3) -0.05(2) 0.14(3) -0.11(2)
C49 0.19(3) 0.25(4) 0.12(2) -0.02(2) 0.07(2) -0.16(3)
C50 0.43(8) 0.10(3) 0.19(4) 0.02(3) -0.07(5) -0.06(4)
C51 0.33(6) 0.12(3) 0.65(10) -0.18(5) 0.31(7) -0.14(4)
C52 0.087(18) 0.088(18) 0.13(2) -0.030(17) 0.027(17) -0.023(13)
C53 0.16(3) 0.09(2) 0.19(3) 0.029(19) -0.01(2) -0.007(18)
C54 0.08(2) 0.23(4) 0.15(3) 0.03(2) -0.020(18) -0.03(2)
Gd1C 0.0493 0.0194 0.0571 -0.0023 0.0304 -0.0021
Gd1A 0.0493 0.0194 0.0571 -0.0023 0.0304 -0.0021
Gd2C 0.0496 0.0206 0.0625 -0.0013 0.0308 -0.0013
Gd2A 0.0496 0.0206 0.0625 -0.0013 0.0308 -0.0013
O3C 0.063 0.044 0.059 0 0.024 0.003
O4C 0.065 0.018 0.062 -0.003 0.03 -0.002
O13A 0.075(8) 0.038(6) 0.075(7) 0.017(5) 0.045(6) 0.024(5)
O14A 0.077(8) 0.033(6) 0.069(7) -0.007(5) 0.023(6) 0.004(5)
O27A 0.087 0.039 0.076 0.009 0.054 0.021
O28A 0.087 0.041 0.057 -0.004 0.02 0.01
N17 1.6(4) 0.34(9) 0.39(9) 0.18(8) 0.28(15) 0.31(15)
C55 0.20(5) 0.45(10) 0.72(14) 0.26(10) 0.09(6) -0.15(5)
C56 0.40(9) 0.54(13) 0.52(10) -0.42(9) 0.23(7) -0.15(6)
C57 0.66(11) 0.25(5) 0.40(7) 0.07(5) -0.05(6) -0.36(6)
C59 0.63(12) 0.18(6) 0.68(11) 0.02(8) 0.24(11) -0.03(7)
C61 1.03(17) 0.13(5) 0.37(10) -0.02(5) 0.09(10) -0.16(7)
C62 0.20(4) 0.24(6) 0.55(11) 0.28(7) 0.10(5) 0.08(4)
O42 0.42(7) 0.48(7) 0.67(9) -0.45(7) -0.16(6) 0.19(5)
O43 0.75(10) 0.42(6) 1.05(13) -0.65(9) 0.59(10) -0.39(7)
loop_
_geom_bond_atom_site_label_1
_geom_bond_atom_site_label_2
_geom_bond_site_symmetry_1
_geom_bond_site_symmetry_2
Gd1 O1 1_555 1_555
Gd2 O2 1_555 1_555
O1 C1 1_555 1_555
O2 Gd1 1_555 1_555
O3 C14 1_555 1_555
O4 C14 1_555 1_555
O5 N1 1_555 1_555
O6 N1 1_555 1_555
O7 N2 1_555 1_555
O8 N2 1_555 1_555
O9 N3 1_555 1_555
O10 N3 1_555 1_555
O11 N4 1_555 1_555
O12 N4 1_555 1_555
O13 C15 1_555 1_555
O14 C15 1_555 1_555
O15 Gd1 1_555 1_555
O16 Gd2 1_555 1_555
O17 N5 1_555 1_555
O18 N5 1_555 1_555
O19 N6 1_555 1_555
O20 N6 1_555 1_555
O21 N7 1_555 1_555
O22 N7 1_555 1_555
O23 N8 1_555 1_555
O24 N8 1_555 1_555
O25 Gd1 1_555 1_555
O26 Gd2 1_555 1_555
O27 C42 1_555 1_555
O28 C42 1_555 1_555
O29 N9 1_555 1_555
O30 N9 1_555 1_555
O31 N10 1_555 1_555
O32 N10 1_555 1_555
O33 N11 1_555 1_555
O34 N11 1_555 1_555
O35 N12 1_555 1_555
O36 N12 1_555 1_555
O37 Gd1 1_555 1_555
O38 Gd1 1_555 1_555
O39 Gd2 1_555 1_555
O40 Gd2 1_555 1_555
O41 C61 1_555 1_555
N1 C4 1_555 1_555
N2 C6 1_555 1_555
N3 C9 1_555 1_555
N4 C13 1_555 1_555
N5 C18 1_555 1_555
N6 C20 1_555 1_555
N7 C23 1_555 1_555
N8 C27 1_555 1_555
N9 C32 1_555 1_555
N10 C34 1_555 1_555
N11 C37 1_555 1_555
N12 C41 1_555 1_555
N13 C43 1_555 1_555
N14 C46 1_555 1_555
N15 C49 1_555 1_555
N16 C52 1_555 1_555
N17 C62 1_555 1_555
C1 O2 1_555 1_555
C2 C1 1_555 1_555
C3 C2 1_555 1_555
H1 C3 1_555 1_555
C4 C3 1_555 1_555
C5 C4 1_555 1_555
C6 C5 1_555 1_555
C7 C2 1_555 1_555
H2 C7 1_555 1_555
C8 C5 1_555 1_555
C9 C8 1_555 1_555
C10 C9 1_555 1_555
H3 C10 1_555 1_555
C11 C10 1_555 1_555
C12 C11 1_555 1_555
H4 C12 1_555 1_555
C13 C8 1_555 1_555
C14 C11 1_555 1_555
C15 C16 1_555 1_555
C16 C17 1_555 1_555
C17 H5 1_555 1_555
C18 C17 1_555 1_555
C19 C18 1_555 1_555
C20 C19 1_555 1_555
C21 C16 1_555 1_555
H6 C21 1_555 1_555
C22 C19 1_555 1_555
C23 C22 1_555 1_555
C24 C23 1_555 1_555
H7 C24 1_555 1_555
C25 C24 1_555 1_555
C26 C25 1_555 1_555
H8 C26 1_555 1_555
C27 C22 1_555 1_555
C28 O15 1_555 1_555
C29 O25 1_555 1_555
C30 C29 1_555 1_555
C31 C30 1_555 1_555
H9 C31 1_555 1_555
C32 C31 1_555 1_555
C33 C32 1_555 1_555
C34 C33 1_555 1_555
C35 C30 1_555 1_555
H10 C35 1_555 1_555
C36 C33 1_555 1_555
C37 C36 1_555 1_555
C38 C37 1_555 1_555
H11 C38 1_555 1_555
C39 C38 1_555 1_555
C40 C39 1_555 1_555
H12 C40 1_555 1_555
C41 C36 1_555 1_555
C42 C39 1_555 1_555
C43 O37 1_555 1_555
H13 C43 1_555 1_555
C44 N13 1_555 1_555
H14 C44 1_555 1_555
H15 C44 1_555 1_555
H16 C44 1_555 1_555
C45 N13 1_555 1_555
H17 C45 1_555 1_555
H18 C45 1_555 1_555
H19 C45 1_555 1_555
C46 O38 1_555 1_555
H20 C46 1_555 1_555
C47 N14 1_555 1_555
H21 C47 1_555 1_555
H22 C47 1_555 1_555
H23 C47 1_555 1_555
C48 N14 1_555 1_555
H24 C48 1_555 1_555
H25 C48 1_555 1_555
H26 C48 1_555 1_555
C49 O39 1_555 1_555
H27 C49 1_555 1_555
C50 N15 1_555 1_555
H28 C50 1_555 1_555
H29 C50 1_555 1_555
H30 C50 1_555 1_555
C51 N15 1_555 1_555
H31 C51 1_555 1_555
H32 C51 1_555 1_555
H33 C51 1_555 1_555
C52 O40 1_555 1_555
H34 C52 1_555 1_555
C53 N16 1_555 1_555
H35 C53 1_555 1_555
H36 C53 1_555 1_555
H37 C53 1_555 1_555
C54 N16 1_555 1_555
H38 C54 1_555 1_555
H39 C54 1_555 1_555
H40 C54 1_555 1_555
C55 H41 1_555 1_555
C56 C55 1_555 1_555
H42 C56 1_555 1_555
C57 C56 1_555 1_555
H43 C57 1_555 1_555
C58 C57 1_555 1_555
C59 C58 1_555 1_555
H44 C59 1_555 1_555
C60 C55 1_555 1_555
H45 C60 1_555 1_555
C61 C58 1_555 1_555
C62 C61 1_555 1_555
H46 C61 1_555 1_555
H47 O41 1_555 1_555
Gd1C O4 1_555 1_555
Gd1A O13 1_555 1_555
Gd2C O3 1_555 1_555
Gd2A O27 1_555 1_555
O3C Gd2 1_555 1_555
O4C Gd1 1_555 1_555
O13A Gd1 1_555 1_555
O14A Gd1 1_555 1_555
O27A Gd2 1_555 1_555
O28A Gd2 1_555 1_555
Gd2 O4C 1_555 1_555
O4 Gd2C 1_555 1_555
O14 Gd1A 1_555 1_555
O16 C28 1_555 1_555
O26 C29 1_555 1_555
O28 Gd2A 1_555 1_555
C6 C7 1_555 1_555
C12 C13 1_555 1_555
C20 C21 1_555 1_555
C25 C28 1_555 1_555
C26 C27 1_555 1_555
C34 C35 1_555 1_555
C40 C41 1_555 1_555
C59 C60 1_555 1_555

#END
