
#######################################################################
#
#                 Cambridge Crystallographic Data Centre
#                                CCDC 
#
#######################################################################
#
# If this CIF has been generated from an entry in the Cambridge 
# Structural Database, then it will include bibliographic, chemical, 
# crystal, experimental, refinement or atomic coordinate data resulting 
# from the CCDC's data processing and validation procedures.
#
#######################################################################

data_XEGKUR
_chemical_formula_moiety         '(C61 H52 Gd2 N16 O44)n'
_symmetry_cell_setting           monoclinic
_symmetry_space_group_name_H-M   'C 2/c'
_symmetry_Int_Tables_number      15
_space_group_name_Hall           '-C 2yc'
loop_
_symmetry_equiv_pos_site_id
_symmetry_equiv_pos_as_xyz
1 x,y,z
2 -x,y,1/2-z
3 1/2+x,1/2+y,z
4 1/2-x,1/2+y,1/2-z
5 -x,-y,-z
6 x,-y,1/2+z
7 1/2-x,1/2-y,-z
8 1/2+x,1/2-y,1/2+z
_cell_length_a                   22.076(7)
_cell_length_b                   30.376(7)
_cell_length_c                   15.309(4)
_cell_angle_alpha                90
_cell_angle_beta                 99.936(6)
_cell_angle_gamma                90
_cell_volume                     10111.9
loop_
_atom_site_label
_atom_site_type_symbol
_atom_site_fract_x
_atom_site_fract_y
_atom_site_fract_z
_atom_site_U_iso_or_equiv
_atom_site_thermal_displace_type
Gd1 Gd 0.70899(3) 0.275672(17) 0.38261(4) 0.0431 Uani
O1 O 0.7121(4) 0.1967(3) 0.3751(5) 0.0498 Uani
O2 O 0.7737(4) 0.1738(3) 0.4982(6) 0.0511 Uani
O3 O 0.7387(4) -0.1614(3) 0.1711(7) 0.0649 Uani
O4 O 0.8382(4) -0.1511(3) 0.1695(6) 0.0641 Uani
O5 O 0.8177(7) 0.0175(3) 0.5257(8) 0.0972 Uani
O6 O 0.8597(7) -0.0034(4) 0.4153(8) 0.1135 Uani
O7 O 0.6637(10) 0.0924(6) 0.1336(11) 0.1825 Uani
O8 O 0.7201(7) 0.0395(3) 0.1205(7) 0.1033 Uani
O9 O 0.6455(9) -0.0539(5) 0.3500(13) 0.1596 Uani
O10 O 0.6428(6) 0.0125(4) 0.2852(12) 0.1332 Uani
O11 O 0.8575(5) 0.0512(3) 0.2188(8) 0.0920 Uani
O12 O 0.9189(5) -0.0029(3) 0.2199(8) 0.0853 Uani
O13 O 0.6929(4) 0.2394(3) 0.5382(6) 0.0508 Uani
O14 O 0.6164(4) 0.2691(3) 0.4467(6) 0.0558 Uani
O15 O 0.4315(10) 0.3090(10) 0.5551(19) 0.4372 Uani
O16 O 0.4006(12) 0.2745(12) 0.649(2) 1.1217 Uani
O17 O 0.5798(13) 0.1900(10) 0.8697(13) 0.7908 Uani
O18 O 0.6193(8) 0.1543(6) 0.7860(12) 0.1570 Uiso
O19 O 0.7570(6) 0.2551(4) 0.2574(8) 0.0924 Uani
O20 O 0.6298(8) 0.2612(5) 0.2628(9) 0.1024 Uani
N1 N 0.8197(6) 0.0177(3) 0.4505(9) 0.0681 Uani
N2 N 0.7042(7) 0.0689(4) 0.1621(9) 0.0848 Uani
N3 N 0.6675(7) -0.0247(5) 0.3091(13) 0.1026 Uani
N4 N 0.8697(7) 0.0122(4) 0.2234(8) 0.0673 Uani
N5 N 0.4454 0.2900 0.6234 0.1460 Uiso
N6 N 0.5809 0.1815 0.7947 0.1947 Uani
N7 N 0.7503(19) 0.2272(11) 0.1046(16) 0.2952 Uani
N8 N 0.567(2) 0.233(3) 0.128(3) 0.6210 Uani
C1 C 0.7451(6) 0.1689(4) 0.4221(10) 0.0515 Uani
C2 C 0.7473(6) 0.1254(4) 0.3794(8) 0.0484 Uani
C3 C 0.7784(6) 0.0912(4) 0.4317(9) 0.0539 Uani
H1 H 0.7939 0.0955 0.4915 0.0640 Uiso
C4 C 0.7852(6) 0.0509(4) 0.3910(9) 0.0561 Uani
C5 C 0.7626(7) 0.0417(4) 0.3017(9) 0.0601 Uani
C6 C 0.7318(7) 0.0760(4) 0.2555(9) 0.0610 Uani
C7 C 0.7233(6) 0.1178(4) 0.2931(10) 0.0640 Uani
H2 H 0.7015 0.1397 0.2588 0.0770 Uiso
C8 C 0.7664(6) -0.0033(4) 0.2664(9) 0.0547 Uani
C9 C 0.7235(7) -0.0346(5) 0.2701(10) 0.0673 Uani
C10 C 0.7284(6) -0.0786(4) 0.2421(9) 0.0615 Uani
H3 H 0.6967 -0.0986 0.2442 0.0740 Uiso
C11 C 0.7822(6) -0.0919(4) 0.2108(8) 0.0545 Uani
C12 C 0.8275(6) -0.0605(4) 0.2066(8) 0.0534 Uani
H4 H 0.8633 -0.0684 0.1864 0.0640 Uiso
C13 C 0.8196(6) -0.0188(4) 0.2314(8) 0.0519 Uani
C14 C 0.7873(7) -0.1373(4) 0.1820(9) 0.0542 Uani
C15 C 0.6374(6) 0.2511(3) 0.5171(9) 0.0474 Uani
C16 C 0.5941(6) 0.2429(4) 0.5817(9) 0.0536 Uani
C17 C 0.5416(7) 0.2663(5) 0.5770(11) 0.0769 Uani
H5 H 0.5308 0.2855 0.5295 0.0920 Uiso
C18 C 0.5033(7) 0.2632(5) 0.6388(13) 0.0974 Uani
C19 C 0.5192(7) 0.2353(5) 0.7138(10) 0.0668 Uani
C20 C 0.5715(7) 0.2096(5) 0.7182(11) 0.0732 Uani
C21 C 0.6099(6) 0.2140(5) 0.6533(10) 0.0658 Uani
H6 H 0.6459 0.1975 0.6583 0.0790 Uiso
C22 C 0.7491(17) 0.2516(15) 0.1801(15) 0.5464 Uani
H7 H 0.7348 0.2791 0.1591 0.6580 Uiso
C23 C 0.767(2) 0.1819(12) 0.1366(16) 0.3758 Uani
H8 H 0.8111 0.1785 0.1447 0.5600 Uiso
H9 H 0.7481 0.1609 0.0937 0.5600 Uiso
H10 H 0.7536 0.1771 0.1921 0.5600 Uiso
C24 C 0.733(4) 0.2233(13) 0.0089(19) 0.4687 Uani
H11 H 0.7558 0.2000 -0.0122 0.7040 Uiso
H13 H 0.6896 0.2168 -0.0057 0.7040 Uiso
C25 C 0.6180(14) 0.2352(10) 0.202(2) 0.3775 Uani
H14 H 0.6468 0.2128 0.2028 0.4560 Uiso
C26 C 0.500(3) 0.232(3) 0.128(6) 0.5800 Uiso
H15 H 0.4785 0.2404 0.0709 0.8770 Uiso
H16 H 0.4906 0.2528 0.1718 0.8770 Uiso
H17 H 0.4878 0.2032 0.1430 0.8770 Uiso
C27 C 0.585(3) 0.223(2) 0.041(5) 0.3800 Uiso
H18 H 0.5584 0.2395 -0.0047 0.5690 Uiso
H19 H 0.5803 0.1923 0.0283 0.5690 Uiso
H20 H 0.6266 0.2319 0.0418 0.5690 Uiso
Gd1F Gd 0.79101(3) 0.224328(17) 0.61739(4) 0.0431 Uani
Gd1C Gd 0.79101(3) -0.224328(17) 0.11739(4) 0.0431 Uani
Gd1A Gd 0.29101(3) 0.275672(17) 1.11739(4) 0.0431 Uani
Gd1G Gd 0.20899(3) 0.224328(17) 0.88261(4) 0.0431 Uani
Gd1E Gd 0.70899(3) 0.724328(17) 0.88261(4) 0.0431 Uani
O1F O 0.7879(4) 0.3033(3) 0.6249(5) 0.0498 Uani
O2F O 0.7263(4) 0.3262(3) 0.5018(6) 0.0511 Uani
O3F O 0.7613(4) 0.6614(3) 0.8289(7) 0.0649 Uani
O3C O 0.7613(4) 0.3386(3) 0.3289(7) 0.0649 Uani
O3E O 0.7387(4) 0.1614(3) 0.6711(7) 0.0649 Uani
O4F O 0.6618(4) 0.6511(3) 0.8305(6) 0.0641 Uani
O4C O 0.6618(4) 0.3489(3) 0.3305(6) 0.0641 Uani
O4E O 0.8382(4) 0.1511(3) 0.6695(6) 0.0641 Uani
O5F O 0.6823(7) 0.4825(3) 0.4743(8) 0.0972 Uani
O6F O 0.6403(7) 0.5034(4) 0.5847(8) 0.1135 Uani
O7F O 0.8363(10) 0.4076(6) 0.8664(11) 0.1825 Uani
O8F O 0.7799(7) 0.4605(3) 0.8795(7) 0.1033 Uani
O9F O 0.8545(9) 0.5539(5) 0.6500(13) 0.1596 Uani
O10F O 0.8572(6) 0.4875(4) 0.7148(12) 0.1332 Uani
O11F O 0.6425(5) 0.4488(3) 0.7812(8) 0.0920 Uani
O12F O 0.5811(5) 0.5029(3) 0.7801(8) 0.0853 Uani
O13A O 0.3071(4) 0.2394(3) 0.9618(6) 0.0508 Uani
O13F O 0.8071(4) 0.2606(3) 0.4618(6) 0.0508 Uani
O14A O 0.3836(4) 0.2691(3) 1.0533(6) 0.0558 Uani
O14F O 0.8836(4) 0.2309(3) 0.5533(6) 0.0558 Uani
O15A O 0.5685(10) 0.3090(10) 0.9449(19) 0.4372 Uani
O16A O 0.5994(12) 0.2745(12) 0.851(2) 1.1217 Uani
O17A O 0.4202(13) 0.1900(10) 0.6303(13) 0.7908 Uani
O18A O 0.3807(8) 0.1543(6) 0.7140(12) 0.1570 Uiso
O19F O 0.7430(6) 0.2449(4) 0.7426(8) 0.0924 Uani
O20F O 0.8702(8) 0.2388(5) 0.7372(9) 0.1024 Uani
N1F N 0.6803(6) 0.4823(3) 0.5495(9) 0.0681 Uani
N2F N 0.7958(7) 0.4311(4) 0.8379(9) 0.0848 Uani
N3F N 0.8325(7) 0.5247(5) 0.6909(13) 0.1026 Uani
N4F N 0.6303(7) 0.4878(4) 0.7766(8) 0.0673 Uani
N5A N 0.5546 0.2900 0.8766 0.1460 Uiso
N6A N 0.4191 0.1815 0.7053 0.1947 Uani
N7F N 0.7497(19) 0.2728(11) 0.8954(16) 0.2952 Uani
N8F N 0.933(2) 0.267(3) 0.872(3) 0.6210 Uani
C1F C 0.7549(6) 0.3311(4) 0.5779(10) 0.0515 Uani
C2F C 0.7527(6) 0.3746(4) 0.6206(8) 0.0484 Uani
C3F C 0.7216(6) 0.4088(4) 0.5683(9) 0.0539 Uani
H1F H 0.7061 0.4045 0.5085 0.0640 Uiso
C4F C 0.7148(6) 0.4491(4) 0.6090(9) 0.0561 Uani
C5F C 0.7374(7) 0.4583(4) 0.6983(9) 0.0601 Uani
C6F C 0.7682(7) 0.4240(4) 0.7445(9) 0.0610 Uani
C7F C 0.7767(6) 0.3822(4) 0.7069(10) 0.0640 Uani
H2F H 0.7985 0.3603 0.7412 0.0770 Uiso
C8F C 0.7336(6) 0.5033(4) 0.7336(9) 0.0547 Uani
C9F C 0.7765(7) 0.5346(5) 0.7299(10) 0.0673 Uani
C10F C 0.7716(6) 0.5786(4) 0.7579(9) 0.0615 Uani
H3F H 0.8033 0.5986 0.7558 0.0740 Uiso
C11F C 0.7178(6) 0.5919(4) 0.7892(8) 0.0545 Uani
C12F C 0.6725(6) 0.5605(4) 0.7934(8) 0.0534 Uani
H4F H 0.6367 0.5684 0.8136 0.0640 Uiso
C13F C 0.6804(6) 0.5188(4) 0.7686(8) 0.0519 Uani
C14F C 0.7127(7) 0.6373(4) 0.8180(9) 0.0542 Uani
C15A C 0.3626(6) 0.2511(3) 0.9829(9) 0.0474 Uani
C16A C 0.4059(6) 0.2429(4) 0.9183(9) 0.0536 Uani
C17A C 0.4584(7) 0.2663(5) 0.9230(11) 0.0769 Uani
H5A H 0.4692 0.2855 0.9705 0.0920 Uiso
C18A C 0.4967(7) 0.2632(5) 0.8612(13) 0.0974 Uani
C19A C 0.4808(7) 0.2353(5) 0.7862(10) 0.0668 Uani
C20A C 0.4285(7) 0.2096(5) 0.7818(11) 0.0732 Uani
C21A C 0.3901(6) 0.2140(5) 0.8467(10) 0.0658 Uani
H6A H 0.3541 0.1975 0.8417 0.0790 Uiso
C22F C 0.7509(17) 0.2484(15) 0.8199(15) 0.5464 Uani
H7F H 0.7652 0.2209 0.8409 0.6580 Uiso
C23F C 0.733(2) 0.3181(12) 0.8634(16) 0.3758 Uani
H8F H 0.6889 0.3215 0.8553 0.5600 Uiso
H9F H 0.7519 0.3391 0.9063 0.5600 Uiso
H10F H 0.7464 0.3229 0.8079 0.5600 Uiso
C24F C 0.767(4) 0.2767(13) 0.9911(19) 0.4687 Uani
H11F H 0.7442 0.3000 1.0122 0.7040 Uiso
H13F H 0.8104 0.2832 1.0057 0.7040 Uiso
C25F C 0.8820(14) 0.2648(10) 0.798(2) 0.3775 Uani
H14F H 0.8532 0.2872 0.7972 0.4560 Uiso
C26F C 1.000(3) 0.268(3) 0.872(6) 0.5800 Uiso
H15F H 1.0215 0.2596 0.9291 0.8770 Uiso
H16F H 1.0094 0.2472 0.8282 0.8770 Uiso
H17F H 1.0122 0.2968 0.8570 0.8770 Uiso
C27F C 0.915(3) 0.277(2) 0.959(5) 0.3800 Uiso
H18F H 0.9416 0.2605 1.0047 0.5690 Uiso
H19F H 0.9197 0.3077 0.9717 0.5690 Uiso
H20F H 0.8734 0.2681 0.9582 0.5690 Uiso
O21 O 0.8713(12) 0.1596(7) 0.3287(19) 0.2267 Uani
C28 C 0.9104(12) 0.1303(9) 0.3321(18) 0.1470 Uani
H21 H 0.9206 0.1219 0.2780 0.1750 Uiso
C29 C 0.9420(8) 0.1073(5) 0.4089(14) 0.1109 Uani
C30 C 0.9287(8) 0.1186(7) 0.4920(14) 0.1093 Uani
H22 H 0.9013 0.1411 0.4988 0.1310 Uiso
C31 C 0.9577(12) 0.0950(8) 0.5625(18) 0.1495 Uani
H23 H 0.9481 0.1018 0.6177 0.1770 Uiso
C32 C 0.9993(14) 0.0626(11) 0.560(2) 0.1953 Uani
H24 H 1.0170 0.0463 0.6088 0.2370 Uiso
C33 C 1.0126(11) 0.0564(11) 0.4761(19) 0.1730 Uani
H25 H 1.0445 0.0371 0.4711 0.2060 Uiso
C34 C 0.9842(9) 0.0754(6) 0.4011(16) 0.1179 Uani
H26 H 0.9929 0.0672 0.3461 0.1410 Uiso
O22 O 0.511(3) -0.018(2) 0.120(4) 0.4900 Uiso
O23 O 0.6111(19) -0.0309(14) 0.053(3) 0.3600 Uiso
O24 O 0.554(4) -0.108(2) 0.092(6) 0.6500 Uiso
loop_
_atom_site_aniso_label
_atom_site_aniso_U_11
_atom_site_aniso_U_22
_atom_site_aniso_U_33
_atom_site_aniso_U_23
_atom_site_aniso_U_13
_atom_site_aniso_U_12
Gd1 0.0670(5) 0.0193(3) 0.0499(4) 0.0035(2) 0.0299(3) 0.0019(3)
O1 0.064(5) 0.030(5) 0.057(5) -0.008(4) 0.015(4) 0.000(4)
O2 0.076(6) 0.032(4) 0.047(5) -0.012(4) 0.015(4) -0.001(4)
O3 0.076(6) 0.027(5) 0.106(7) -0.030(5) 0.056(5) -0.008(4)
O4 0.078(6) 0.025(4) 0.098(7) -0.022(4) 0.040(5) -0.007(4)
O5 0.191(13) 0.045(6) 0.063(7) 0.011(5) 0.043(8) 0.046(7)
O6 0.155(12) 0.094(10) 0.086(8) -0.013(7) 0.005(8) 0.052(9)
O7 0.25(2) 0.127(14) 0.129(13) -0.043(11) -0.084(14) 0.055(15)
O8 0.181(12) 0.039(6) 0.080(8) -0.025(5) -0.005(8) 0.020(7)
O9 0.199(17) 0.063(9) 0.26(2) -0.040(11) 0.161(16) -0.008(10)
O10 0.102(9) 0.057(8) 0.254(19) -0.050(10) 0.068(10) -0.005(7)
O11 0.107(9) 0.036(6) 0.132(10) -0.019(6) 0.018(7) -0.020(6)
O12 0.080(8) 0.046(6) 0.133(10) -0.019(6) 0.027(7) -0.014(6)
O13 0.058 0.032 0.073 0.003 0.041 -0.007
O14 0.063 0.045 0.067 0.016 0.033 -0.001
O15 0.22 0.33 0.86 0.42 0.37 0.21
O16 1.16 1.55 0.96 1.14 1.04 1.22
O17 0.82 0.99 0.78 0.75 0.75 0.8
O19 0.151(11) 0.055(7) 0.086(7) -0.001(6) 0.062(8) -0.010(7)
O20 0.142(13) 0.087(10) 0.080(8) -0.003(7) 0.024(8) -0.027(8)
N1 0.091(9) 0.024(6) 0.083(9) -0.018(6) -0.003(7) 0.021(6)
N2 0.112(11) 0.046(8) 0.082(10) -0.013(7) -0.024(8) 0.030(7)
N3 0.090(10) 0.048(9) 0.180(17) -0.057(10) 0.052(10) 0.008(8)
N4 0.097(10) 0.026(6) 0.077(8) -0.015(5) 0.010(7) -0.015(6)
N6 0.134 0.26 0.21 0.17 0.086 0.114
N7 0.27(4) 0.48(6) 0.12(2) -0.10(2) -0.01(3) 0.04(4)
N8 0.24(5) 1.1(2) 0.49(10) 0.48(12) -0.03(6) -0.29(9)
C1 0.057(8) 0.030(7) 0.071(9) 0.002(6) 0.021(7) 0.002(6)
C2 0.073(9) 0.025(6) 0.048(7) -0.003(5) 0.013(6) -0.004(6)
C3 0.066(8) 0.024(6) 0.073(9) -0.011(6) 0.016(7) -0.001(5)
C4 0.062(8) 0.035(7) 0.074(9) 0.002(6) 0.019(7) 0.011(6)
C5 0.081(9) 0.036(7) 0.060(9) -0.024(6) 0.003(7) 0.002(6)
C6 0.091(10) 0.023(6) 0.063(9) -0.008(6) -0.004(8) 0.011(6)
C7 0.071(9) 0.039(8) 0.083(11) -0.001(7) 0.016(8) 0.013(6)
C8 0.070(9) 0.014(6) 0.080(9) -0.014(6) 0.013(7) -0.005(6)
C9 0.074(9) 0.047(8) 0.081(10) -0.028(7) 0.014(8) 0.021(7)
C10 0.076(9) 0.037(7) 0.075(9) -0.026(6) 0.023(7) 0.005(6)
C11 0.073(9) 0.039(7) 0.054(8) -0.017(6) 0.018(7) -0.002(6)
C12 0.084(9) 0.023(6) 0.056(8) -0.002(5) 0.020(7) 0.006(6)
C13 0.066(8) 0.027(6) 0.064(8) -0.008(5) 0.015(6) -0.005(6)
C14 0.067(9) 0.041(7) 0.059(8) -0.011(6) 0.023(7) 0.007(7)
C15 0.073 0.013 0.065 0.001 0.037 0.005
C16 0.055 0.047 0.066 0.006 0.031 0.004
C17 0.087 0.058 0.104 0.021 0.068 0.017
C18 0.113 0.053 0.15 0.048 0.09 0.03
C19 0.07 0.063 0.084 -0.008 0.06 -0.002
C20 0.071 0.066 0.097 0.014 0.055 -0.001
C21 0.054 0.058 0.1 0.018 0.054 0.013
C22 0.86(16) 0.68(8) 0.150(16) -0.25(4) 0.23(5) -0.57(10)
C23 0.50(8) 0.47(6) 0.10(2) 0.17(3) -0.11(3) -0.34(5)
C24 0.55(15) 0.44(13) 0.37(9) -0.28(10) -0.05(9) 0.07(11)
C25 0.070(18) 0.19(4) 0.81(14) 0.22(6) -0.10(4) -0.01(2)
Gd1F 0.067 0.0193 0.0499 0.0035 0.0299 0.0019
Gd1C 0.067 0.0193 0.0499 -0.0035 0.0299 -0.0019
Gd1A 0.067 0.0193 0.0499 -0.0035 0.0299 -0.0019
Gd1G 0.067 0.0193 0.0499 -0.0035 0.0299 -0.0019
Gd1E 0.067 0.0193 0.0499 -0.0035 0.0299 -0.0019
O1F 0.064 0.03 0.057 -0.008 0.015 0
O2F 0.076 0.032 0.047 -0.012 0.015 -0.001
O3F 0.076 0.027 0.106 -0.03 0.056 -0.008
O3C 0.076 0.027 0.106 0.03 0.056 0.008
O3E 0.076 0.027 0.106 0.03 0.056 0.008
O4F 0.078 0.025 0.098 -0.022 0.04 -0.007
O4C 0.078 0.025 0.098 0.022 0.04 0.007
O4E 0.078 0.025 0.098 0.022 0.04 0.007
O5F 0.191 0.045 0.063 0.011 0.043 0.046
O6F 0.155 0.094 0.086 -0.013 0.005 0.052
O7F 0.25 0.127 0.129 -0.043 -0.084 0.055
O8F 0.181 0.039 0.08 -0.025 -0.005 0.02
O9F 0.199 0.063 0.26 -0.04 0.161 -0.008
O10F 0.102 0.057 0.254 -0.05 0.068 -0.005
O11F 0.107 0.036 0.132 -0.019 0.018 -0.02
O12F 0.08 0.046 0.133 -0.019 0.027 -0.014
O13A 0.058 0.032 0.073 -0.003 0.041 0.007
O13F 0.058(6) 0.032(4) 0.073(6) 0.003(4) 0.041(5) -0.007(4)
O14A 0.063 0.045 0.067 -0.016 0.033 0.001
O14F 0.063(6) 0.045(5) 0.067(6) 0.016(4) 0.033(5) -0.001(4)
O15A 0.22 0.33 0.86 -0.42 0.37 -0.21
O16A 1.16 1.55 0.96 -1.14 1.04 -1.22
O17A 0.82 0.99 0.78 -0.75 0.75 -0.8
O19F 0.151 0.055 0.086 -0.001 0.062 -0.01
O20F 0.142 0.087 0.08 -0.003 0.024 -0.027
N1F 0.091 0.024 0.083 -0.018 -0.003 0.021
N2F 0.112 0.046 0.082 -0.013 -0.024 0.03
N3F 0.09 0.048 0.18 -0.057 0.052 0.008
N4F 0.097 0.026 0.077 -0.015 0.01 -0.015
N6A 0.134 0.26 0.21 -0.17 0.086 -0.114
N7F 0.27 0.48 0.12 -0.1 -0.01 0.04
N8F 0.24 1.1 0.49 0.48 -0.03 -0.29
C1F 0.057 0.03 0.071 0.002 0.021 0.002
C2F 0.073 0.025 0.048 -0.003 0.013 -0.004
C3F 0.066 0.024 0.073 -0.011 0.016 -0.001
C4F 0.062 0.035 0.074 0.002 0.019 0.011
C5F 0.081 0.036 0.06 -0.024 0.003 0.002
C6F 0.091 0.023 0.063 -0.008 -0.004 0.011
C7F 0.071 0.039 0.083 -0.001 0.016 0.013
C8F 0.07 0.014 0.08 -0.014 0.013 -0.005
C9F 0.074 0.047 0.081 -0.028 0.014 0.021
C10F 0.076 0.037 0.075 -0.026 0.023 0.005
C11F 0.073 0.039 0.054 -0.017 0.018 -0.002
C12F 0.084 0.023 0.056 -0.002 0.02 0.006
C13F 0.066 0.027 0.064 -0.008 0.015 -0.005
C14F 0.067 0.041 0.059 -0.011 0.023 0.007
C15A 0.073 0.013 0.065 -0.001 0.037 -0.005
C16A 0.055 0.047 0.066 -0.006 0.031 -0.004
C17A 0.087 0.058 0.104 -0.021 0.068 -0.017
C18A 0.113 0.053 0.15 -0.048 0.09 -0.03
C19A 0.07 0.063 0.084 0.008 0.06 0.002
C20A 0.071 0.066 0.097 -0.014 0.055 0.001
C21A 0.054 0.058 0.1 -0.018 0.054 -0.013
C22F 0.86 0.68 0.15 -0.25 0.23 -0.57
C23F 0.5 0.47 0.1 0.17 -0.11 -0.34
C24F 0.55 0.44 0.37 -0.28 -0.05 0.07
C25F 0.07 0.19 0.81 0.22 -0.1 -0.01
O21 0.23(3) 0.117(18) 0.33(3) 0.026(18) 0.04(2) -0.061(17)
C28 0.14(2) 0.12(2) 0.178(17) -0.003(15) 0.019(16) -0.028(14)
C29 0.118(15) 0.055(11) 0.165(14) -0.007(10) 0.039(12) -0.028(8)
C30 0.064(11) 0.089(14) 0.177(15) -0.037(11) 0.027(11) -0.013(9)
C31 0.16(2) 0.13(2) 0.168(16) 0.002(15) 0.055(16) -0.028(14)
C32 0.18(3) 0.22(4) 0.175(19) 0.03(3) 0.00(2) 0.06(2)
C33 0.079(15) 0.22(3) 0.22(2) 0.01(2) 0.026(19) 0.044(16)
C34 0.123(17) 0.084(14) 0.155(16) -0.037(12) 0.047(12) -0.028(9)
loop_
_geom_bond_atom_site_label_1
_geom_bond_atom_site_label_2
_geom_bond_site_symmetry_1
_geom_bond_site_symmetry_2
Gd1 O1 1_555 1_555
O1 C1 1_555 1_555
O2 C1 1_555 1_555
O3 C14 1_555 1_555
O4 C14 1_555 1_555
O5 N1 1_555 1_555
O6 N1 1_555 1_555
O7 N2 1_555 1_555
O8 N2 1_555 1_555
O9 N3 1_555 1_555
O10 N3 1_555 1_555
O11 N4 1_555 1_555
O12 N4 1_555 1_555
O13 Gd1 1_555 1_555
O14 Gd1 1_555 1_555
O15 N5 1_555 1_555
O16 N5 1_555 1_555
O17 N6 1_555 1_555
O18 N6 1_555 1_555
O19 Gd1 1_555 1_555
O20 Gd1 1_555 1_555
O21 C28 1_555 1_555
N1 C4 1_555 1_555
N2 C6 1_555 1_555
N3 C9 1_555 1_555
N4 C13 1_555 1_555
N5 C18 1_555 1_555
N6 C20 1_555 1_555
N7 C22 1_555 1_555
N8 C25 1_555 1_555
C1 C2 1_555 1_555
C2 C3 1_555 1_555
C3 H1 1_555 1_555
C4 C3 1_555 1_555
C5 C4 1_555 1_555
C6 C5 1_555 1_555
C7 C2 1_555 1_555
H2 C7 1_555 1_555
C8 C5 1_555 1_555
C9 C8 1_555 1_555
C10 C9 1_555 1_555
H3 C10 1_555 1_555
C11 C10 1_555 1_555
C12 C11 1_555 1_555
H4 C12 1_555 1_555
C13 C8 1_555 1_555
C14 C11 1_555 1_555
C15 O13 1_555 1_555
C16 C15 1_555 1_555
C17 C16 1_555 1_555
H5 C17 1_555 1_555
C18 C17 1_555 1_555
C19 C18 1_555 1_555
C20 C19 1_555 1_555
C21 C16 1_555 1_555
H6 C21 1_555 1_555
C22 O19 1_555 1_555
H7 C22 1_555 1_555
C23 N7 1_555 1_555
H8 C23 1_555 1_555
H9 C23 1_555 1_555
H10 C23 1_555 1_555
C24 N7 1_555 1_555
H11 C24 1_555 1_555
H13 C24 1_555 1_555
C25 O20 1_555 1_555
H14 C25 1_555 1_555
C26 N8 1_555 1_555
H15 C26 1_555 1_555
H16 C26 1_555 1_555
H17 C26 1_555 1_555
C27 N8 1_555 1_555
H18 C27 1_555 1_555
H19 C27 1_555 1_555
H20 C27 1_555 1_555
C28 H21 1_555 1_555
C29 C28 1_555 1_555
C30 C29 1_555 1_555
H22 C30 1_555 1_555
C31 C30 1_555 1_555
H23 C31 1_555 1_555
C32 C31 1_555 1_555
H24 C32 1_555 1_555
C33 C32 1_555 1_555
H25 C33 1_555 1_555
C34 C29 1_555 1_555
H26 C34 1_555 1_555
Gd1F O2 1_555 1_555
Gd1C O3 1_555 1_555
Gd1A O13A 1_555 1_555
Gd1G O13A 1_555 1_555
Gd1E O3F 1_555 1_555
O1F Gd1F 1_555 1_555
O2F Gd1 1_555 1_555
O3F C14F 1_555 1_555
O3C Gd1 1_555 1_555
O3E Gd1F 1_555 1_555
O4F Gd1E 1_555 1_555
O4C Gd1 1_555 1_555
O4E Gd1F 1_555 1_555
O5F N1F 1_555 1_555
O6F N1F 1_555 1_555
O7F N2F 1_555 1_555
O8F N2F 1_555 1_555
O9F N3F 1_555 1_555
O10F N3F 1_555 1_555
O11F N4F 1_555 1_555
O12F N4F 1_555 1_555
O13A C15A 1_555 1_555
O13F Gd1 1_555 1_555
O14A Gd1A 1_555 1_555
O14F Gd1F 1_555 1_555
O15A N5A 1_555 1_555
O16A N5A 1_555 1_555
O17A N6A 1_555 1_555
O18A N6A 1_555 1_555
O19F Gd1F 1_555 1_555
O20F Gd1F 1_555 1_555
N1F C4F 1_555 1_555
N2F C6F 1_555 1_555
N3F C9F 1_555 1_555
N4F C13F 1_555 1_555
N5A C18A 1_555 1_555
N6A C20A 1_555 1_555
N7F C22F 1_555 1_555
N8F C25F 1_555 1_555
C1F O1F 1_555 1_555
C2F C1F 1_555 1_555
C3F C2F 1_555 1_555
H1F C3F 1_555 1_555
C4F C3F 1_555 1_555
C5F C4F 1_555 1_555
C6F C5F 1_555 1_555
C7F C2F 1_555 1_555
H2F C7F 1_555 1_555
C8F C5F 1_555 1_555
C9F C8F 1_555 1_555
C10F C9F 1_555 1_555
H3F C10F 1_555 1_555
C11F C10F 1_555 1_555
C12F C11F 1_555 1_555
H4F C12F 1_555 1_555
C13F C8F 1_555 1_555
C14F O4F 1_555 1_555
C15A O14A 1_555 1_555
C16A C15A 1_555 1_555
C17A C16A 1_555 1_555
H5A C17A 1_555 1_555
C18A C17A 1_555 1_555
C19A C19 1_555 1_555
C20A C19A 1_555 1_555
C21A C16A 1_555 1_555
H6A C21A 1_555 1_555
C22F O19F 1_555 1_555
H7F C22F 1_555 1_555
C23F N7F 1_555 1_555
H8F C23F 1_555 1_555
H9F C23F 1_555 1_555
H10F C23F 1_555 1_555
C24F N7F 1_555 1_555
H11F C24F 1_555 1_555
H13F C24F 1_555 1_555
C25F O20F 1_555 1_555
H14F C25F 1_555 1_555
C26F N8F 1_555 1_555
H15F C26F 1_555 1_555
H16F C26F 1_555 1_555
H17F C26F 1_555 1_555
C27F N8F 1_555 1_555
H18F C27F 1_555 1_555
H19F C27F 1_555 1_555
H20F C27F 1_555 1_555
O4 Gd1C 1_555 1_555
O13 Gd1F 1_555 1_555
O14 C15 1_555 1_555
C6 C7 1_555 1_555
C12 C13 1_555 1_555
C20 C21 1_555 1_555
C33 C34 1_555 1_555
Gd1F O13F 1_555 1_555
O2F C1F 1_555 1_555
C6F C7F 1_555 1_555
C11F C14F 1_555 1_555
C12F C13F 1_555 1_555
C18A C19A 1_555 1_555
C20A C21A 1_555 1_555

#END
