
#######################################################################
#
#                 Cambridge Crystallographic Data Centre
#                                CCDC 
#
#######################################################################
#
# If this CIF has been generated from an entry in the Cambridge 
# Structural Database, then it will include bibliographic, chemical, 
# crystal, experimental, refinement or atomic coordinate data resulting 
# from the CCDC's data processing and validation procedures.
#
#######################################################################

data_XEGKIF
_chemical_formula_moiety         '(C78 H57 Gd2 N19 O46)n'
_symmetry_cell_setting           triclinic
_symmetry_space_group_name_H-M   'P -1'
_symmetry_Int_Tables_number      2
_space_group_name_Hall           '-P 1'
loop_
_symmetry_equiv_pos_site_id
_symmetry_equiv_pos_as_xyz
1 x,y,z
2 -x,-y,-z
_cell_length_a                   14.392(3)
_cell_length_b                   16.669(5)
_cell_length_c                   19.637(6)
_cell_angle_alpha                105.471(4)
_cell_angle_beta                 96.286(5)
_cell_angle_gamma                95.100(3)
_cell_volume                     4478.5
loop_
_atom_site_label
_atom_site_type_symbol
_atom_site_fract_x
_atom_site_fract_y
_atom_site_fract_z
Gd1 Gd 0.12672(17) 0.04672(15) 0.05745(12)
Gd2 Gd -0.36170(16) -0.45887(15) 0.50960(13)
O1 O 0.061(3) -0.078(2) 0.0804(19)
O2 O -0.068(3) -0.141(2) 0.0026(18)
O3 O -0.282(3) -0.342(2) 0.475(2)
O4 O -0.257(2) -0.470(3) 0.4206(19)
O5 O 0.137(3) -0.160(3) 0.293(2)
O6 O 0.025(3) -0.200(4) 0.344(3)
O7 O -0.296(4) -0.316(4) 0.086(3)
O8 O -0.241(4) -0.393(4) 0.146(3)
O9 O -0.191(4) -0.139(3) 0.266(3)
O10 O -0.190(4) -0.113(3) 0.379(3)
O11 O -0.031(4) -0.409(3) 0.177(3)
O12 O -0.057(5) -0.500(4) 0.230(3)
O13 O 0.058(2) -0.040(2) -0.0550(18)
O14 O -0.034(2) -0.091(2) -0.1580(18)
O15 O 0.472(2) -0.419(2) -0.4594(18)
O16 O 0.599(2) -0.332(2) -0.4101(18)
O17 O 0.343(4) -0.194(4) -0.075(3)
O18 O 0.440(4) -0.146(4) -0.135(3)
O19 O 0.117(4) -0.143(5) -0.377(3)
O20 O 0.265(4) -0.118(5) -0.369(3)
O21 O 0.206(5) -0.306(5) -0.236(4)
O22 O 0.175(4) -0.361(6) -0.346(4)
O23 O 0.423(4) -0.029(3) -0.236(4)
O24 O 0.548(7) -0.061(6) -0.248(10)
O25 O 0.398(2) -0.497(2) 0.3899(17)
O26 O 0.549(2) -0.440(2) 0.406(2)
O27 O 0.241(3) -0.062(2) 0.0438(19)
O28 O 0.233(3) 0.023(2) 0.1498(19)
O29 O 0.163(3) -0.354(3) 0.292(2)
O30 O 0.188(3) -0.320(3) 0.196(2)
O31 O 0.539(4) -0.204(6) 0.217(6)
O32 O 0.627(5) -0.273(8) 0.247(7)
O33 O 0.351(4) -0.176(3) 0.360(2)
O34 O 0.345(5) -0.049(4) 0.359(3)
O35 O 0.364(6) -0.382(4) 0.110(3)
O36 O 0.380(6) -0.321(4) 0.030(3)
O37 O 0.247(3) 0.085(3) -0.005(2)
O38 O 0.185(6) 0.488(4) 0.189(4)
O39 O -0.222(2) -0.416(2) 0.5901(19)
O40 O 0.010(7) -0.597(8) 0.502(5)
N1 N 0.057(3) -0.190(3) 0.291(3)
N2 N -0.232(3) -0.331(3) 0.125(3)
N3 N -0.187(4) -0.161(3) 0.321(3)
N4 N -0.064(3) -0.432(3) 0.224(3)
N5 N 0.362(4) -0.159(4) -0.121(3)
N6 N 0.194(5) -0.128(5) -0.343(3)
N7 N 0.226(4) -0.323(4) -0.298(3)
N8 N 0.467(5) -0.079(4) -0.257(5)
N9 N 0.215(3) -0.339(3) 0.250(3)
N10 N 0.552(4) -0.249(5) 0.247(4)
N11 N 0.348(4) -0.123(4) 0.329(3)
N12 N 0.364(4) -0.321(4) 0.089(3)
N13 N 0.366(4) 0.111(5) -0.061(4)
N14 N 0.197(3) 0.197(3) 0.137(2)
N15 N -0.096(4) -0.338(3) 0.660(3)
N16 N -0.270(3) -0.587(3) 0.512(2)
C1 C -0.012(4) -0.130(3) 0.060(3)
C2 C -0.037(4) -0.180(3) 0.110(3)
C3 C 0.020(4) -0.167(3) 0.174(3)
H1 H 0.0757 -0.1308 0.1845
C4 C -0.006(4) -0.208(4) 0.223(3)
C5 C -0.090(4) -0.262(3) 0.211(3)
C6 C -0.145(4) -0.273(3) 0.145(3)
C7 C -0.119(4) -0.235(4) 0.095(3)
H2 H -0.1565 -0.2458 0.0507
C8 C -0.126(4) -0.297(4) 0.268(3)
C9 C -0.175(4) -0.248(4) 0.319(3)
C10 C -0.213(4) -0.279(4) 0.370(3)
H3 H -0.2452 -0.2446 0.4028
C11 C -0.204(4) -0.359(4) 0.372(3)
C12 C -0.155(4) -0.409(4) 0.323(3)
H4 H -0.1480 -0.4636 0.3252
C13 C -0.117(4) -0.378(4) 0.272(3)
C14 C -0.249(4) -0.393(4) 0.426(3)
C15 C 0.045(4) -0.072(3) -0.123(3)
C16 C 0.131(4) -0.091(4) -0.159(3)
C17 C 0.209(4) -0.109(4) -0.123(3)
H5 H 0.2136 -0.1028 -0.0739
C18 C 0.283(4) -0.138(4) -0.162(3)
C19 C 0.281(4) -0.149(4) -0.231(3)
C20 C 0.202(4) -0.120(4) -0.266(3)
C21 C 0.127(4) -0.096(4) -0.232(3)
H6 H 0.0744 -0.0822 -0.2562
C22 C 0.345(4) -0.199(4) -0.276(3)
C23 C 0.319(4) -0.281(4) -0.307(3)
C24 C 0.371(4) -0.335(4) -0.352(3)
H7 H 0.3493 -0.3916 -0.3716
C25 C 0.455(4) -0.300(4) -0.364(3)
C26 C 0.487(4) -0.219(4) -0.332(3)
H8 H 0.5460 -0.1969 -0.3381
C27 C 0.432(4) -0.169(4) -0.289(4)
C28 C 0.513(4) -0.354(3) -0.413(3)
C29 C 0.463(4) -0.452(3) 0.378(3)
C30 C 0.436(4) -0.401(3) 0.328(3)
C31 C 0.341(4) -0.397(3) 0.307(3)
H9 H 0.2948 -0.4294 0.3213
C32 C 0.316(4) -0.345(3) 0.266(3)
C33 C 0.382(4) -0.292(4) 0.246(3)
C34 C 0.475(4) -0.299(4) 0.268(4)
C35 C 0.503(4) -0.351(4) 0.308(3)
H10 H 0.5667 -0.3526 0.3209
C36 C 0.354(4) -0.227(4) 0.210(3)
C37 C 0.336(4) -0.148(4) 0.249(3)
C38 C 0.308(4) -0.089(4) 0.217(3)
H11 H 0.2985 -0.0364 0.2454
C39 C 0.295(4) -0.105(3) 0.145(3)
C40 C 0.314(4) -0.183(4) 0.104(3)
H12 H 0.3063 -0.1950 0.0543
C41 C 0.342(4) -0.240(4) 0.137(3)
C42 C 0.255(4) -0.044(4) 0.110(3)
C43 C 0.329(5) 0.098(6) -0.005(4)
H13 H 0.3700 0.1000 0.0356
C44 C 0.467(8) 0.118(13) -0.061(6)
H14 H 0.4872 0.1663 -0.0762
H15 H 0.4841 0.0687 -0.0921
H16 H 0.4980 0.1253 -0.0130
C45 C 0.310(5) 0.106(5) -0.127(4)
H17 H 0.2462 0.0840 -0.1266
H18 H 0.3349 0.0703 -0.1661
H19 H 0.3105 0.1613 -0.1339
C46 C 0.260(5) 0.208(4) 0.194(4)
H20 H 0.2820 0.1604 0.2029
C47 C 0.296(5) 0.284(4) 0.241(3)
H21 H 0.3395 0.2877 0.2806
C48 C 0.267(5) 0.355(4) 0.229(4)
H22 H 0.2918 0.4077 0.2576
C49 C 0.199(6) 0.344(4) 0.171(4)
C50 C 0.166(6) 0.264(4) 0.127(4)
H23 H 0.1201 0.2580 0.0884
C51 C 0.155(8) 0.415(5) 0.155(5)
H24 H 0.1037 0.4048 0.1197
C52 C -0.173(4) -0.346(4) 0.618(3)
H25 H -0.1934 -0.2988 0.6084
C53 C -0.059(5) -0.408(5) 0.679(4)
H26 H -0.0127 -0.4286 0.6494
H27 H -0.0304 -0.3903 0.7282
H28 H -0.1096 -0.4522 0.6732
C54 C -0.041(6) -0.255(5) 0.693(6)
H29 H -0.0304 -0.2458 0.7434
H30 H 0.0181 -0.2535 0.6747
H31 H -0.0757 -0.2127 0.6815
C55 C -0.307(5) -0.662(4) 0.523(3)
H32 H -0.3719 -0.6694 0.5239
C56 C -0.256(5) -0.726(4) 0.531(3)
H33 H -0.2851 -0.7743 0.5387
C57 C -0.162(5) -0.716(5) 0.529(3)
H34 H -0.1250 -0.7568 0.5379
C58 C -0.123(5) -0.649(5) 0.515(5)
C59 C -0.179(4) -0.583(4) 0.507(3)
H35 H -0.1489 -0.5350 0.4987
C60 C -0.020(9) -0.652(8) 0.509(6)
H36 H 0.0116 -0.6977 0.5099
Gd1A Gd -0.12672(17) -0.04672(15) -0.05745(12)
Gd2A Gd 0.36170(16) -0.54113(15) -0.50960(13)
Gd2_2 Gd 0.63830(16) -0.45887(15) -0.49040(13)
Gd2A_2 Gd 0.36170(16) -0.54113(15) 0.49040(13)
Gd2_3 Gd 0.63830(16) -0.45887(15) 0.50960(13)
O2A O 0.068(3) 0.141(2) -0.0026(18)
O13A O -0.058(2) 0.040(2) 0.0550(18)
O14A O 0.034(2) 0.091(2) 0.1580(18)
O15A O -0.472(2) -0.581(2) 0.4594(18)
O15_2 O -0.528(2) -0.419(2) 0.5406(18)
O16_2 O -0.401(2) -0.332(2) 0.5899(18)
O25A O -0.398(2) -0.503(2) 0.6101(17)
O26_2 O -0.451(2) -0.440(2) 0.406(2)
O41 O 0.169(5) -0.554(5) 0.014(4)
N17 N 0.067(7) -0.301(6) -0.005(5)
C61 C 0.113(10) -0.297(8) -0.058(6)
H37 H 0.1074 -0.2516 -0.0774
C62 C 0.164(11) -0.352(6) -0.085(8)
H38 H 0.1930 -0.3493 -0.1241
C63 C 0.176(7) -0.417(5) -0.054(5)
H39 H 0.2145 -0.4576 -0.0724
C64 C 0.130(7) -0.421(5) 0.005(5)
C65 C 0.073(6) -0.360(5) 0.028(5)
H40 H 0.0404 -0.3590 0.0667
C66 C 0.132(7) -0.486(6) 0.029(6)
H41 H 0.0982 -0.4812 0.0677
O42 O -0.306(5) -0.128(4) -0.327(4)
N18 N -0.064(9) -0.066(12) -0.452(6)
C67 C -0.010(7) -0.019(7) -0.389(5)
H42 H 0.0495 0.0062 -0.3913
C68 C -0.039(5) -0.009(5) -0.326(4)
H43 H -0.0014 0.0237 -0.2849
C69 C -0.123(5) -0.048(5) -0.323(4)
H44 H -0.1419 -0.0430 -0.2785
C70 C -0.181(6) -0.093(7) -0.382(4)
C71 C -0.153(8) -0.100(10) -0.448(4)
H45 H -0.1937 -0.1277 -0.4894
C72 C -0.272(7) -0.134(6) -0.379(5)
H46 H -0.3065 -0.1673 -0.4218
O43 O 0.3394(6) -0.4363(7) -0.2336(5)
N19 N 0.5892(8) -0.4280(9) -0.0772(7)
C73 C 0.6186(6) -0.3417(5) -0.0607(7)
H47 H 0.6612 -0.3105 -0.0215
C74 C 0.5733(5) -0.3103(6) -0.1129(6)
H48 H 0.6032 -0.2613 -0.1189
C75 C 0.4890(7) -0.3437(9) -0.1568(4)
H49 H 0.4512 -0.3123 -0.1783
C76 C 0.4664(8) -0.4307(8) -0.1657(5)
C77 C 0.5046(6) -0.4736(7) -0.1183(6)
H50 H 0.4778 -0.5248 -0.1146
C78 C 0.3829(7) -0.4816(5) -0.2027(8)
H51 H 0.3641 -0.5369 -0.2039
O44 O 0.597(10) -0.12(2) -0.589(15)
O45 O 0.484(16) -0.064(12) -0.482(11)
O46 O 0.53(2) -0.196(18) -0.505(15)
loop_
_geom_bond_atom_site_label_1
_geom_bond_atom_site_label_2
_geom_bond_site_symmetry_1
_geom_bond_site_symmetry_2
Gd1 O1 1_555 1_555
Gd2 O3 1_555 1_555
O1 C1 1_555 1_555
O2 C1 1_555 1_555
O3 C14 1_555 1_555
O4 Gd2 1_555 1_555
O5 N1 1_555 1_555
O6 N1 1_555 1_555
O7 N2 1_555 1_555
O8 N2 1_555 1_555
O9 N3 1_555 1_555
O10 N3 1_555 1_555
O11 N4 1_555 1_555
O12 N4 1_555 1_555
O13 Gd1 1_555 1_555
O14 C15 1_555 1_555
O15 C28 1_555 1_555
O16 C28 1_555 1_555
O17 N5 1_555 1_555
O18 N5 1_555 1_555
O19 N6 1_555 1_555
O20 N6 1_555 1_555
O21 N7 1_555 1_555
O22 N7 1_555 1_555
O23 N8 1_555 1_555
O24 N8 1_555 1_555
O25 C29 1_555 1_555
O26 C29 1_555 1_555
O27 Gd1 1_555 1_555
O28 Gd1 1_555 1_555
O29 N9 1_555 1_555
O30 N9 1_555 1_555
O31 N10 1_555 1_555
O32 N10 1_555 1_555
O33 N11 1_555 1_555
O34 N11 1_555 1_555
O35 N12 1_555 1_555
O36 N12 1_555 1_555
O37 Gd1 1_555 1_555
O38 C51 1_555 1_555
O39 Gd2 1_555 1_555
O40 C60 1_555 1_555
O41 C66 1_555 1_555
O42 C72 1_555 1_555
O43 C78 1_555 1_555
N1 C4 1_555 1_555
N2 C6 1_555 1_555
N3 C9 1_555 1_555
N4 C13 1_555 1_555
N5 C18 1_555 1_555
N6 C20 1_555 1_555
N7 C23 1_555 1_555
N8 C27 1_555 1_555
N9 C32 1_555 1_555
N10 C34 1_555 1_555
N11 C37 1_555 1_555
N12 C41 1_555 1_555
N13 C43 1_555 1_555
N14 Gd1 1_555 1_555
N15 C52 1_555 1_555
N16 Gd2 1_555 1_555
N17 C61 1_555 1_555
N18 C67 1_555 1_555
N19 C73 1_555 1_555
C1 C2 1_555 1_555
C2 C3 1_555 1_555
C3 H1 1_555 1_555
C4 C3 1_555 1_555
C5 C4 1_555 1_555
C6 C5 1_555 1_555
C7 C2 1_555 1_555
H2 C7 1_555 1_555
C8 C5 1_555 1_555
C9 C8 1_555 1_555
C10 C9 1_555 1_555
H3 C10 1_555 1_555
C11 C10 1_555 1_555
C12 C11 1_555 1_555
H4 C12 1_555 1_555
C13 C8 1_555 1_555
C14 O4 1_555 1_555
C15 O13 1_555 1_555
C16 C15 1_555 1_555
C17 C16 1_555 1_555
H5 C17 1_555 1_555
C18 C17 1_555 1_555
C19 C18 1_555 1_555
C20 C19 1_555 1_555
C21 C16 1_555 1_555
H6 C21 1_555 1_555
C22 C19 1_555 1_555
C23 C22 1_555 1_555
C24 C23 1_555 1_555
H7 C24 1_555 1_555
C25 C24 1_555 1_555
C26 C25 1_555 1_555
H8 C26 1_555 1_555
C27 C22 1_555 1_555
C28 C25 1_555 1_555
C29 C30 1_555 1_555
C30 C31 1_555 1_555
C31 H9 1_555 1_555
C32 C31 1_555 1_555
C33 C32 1_555 1_555
C34 C33 1_555 1_555
C35 C30 1_555 1_555
H10 C35 1_555 1_555
C36 C33 1_555 1_555
C37 C36 1_555 1_555
C38 C37 1_555 1_555
H11 C38 1_555 1_555
C39 C38 1_555 1_555
C40 C39 1_555 1_555
H12 C40 1_555 1_555
C41 C36 1_555 1_555
C42 O27 1_555 1_555
C43 O37 1_555 1_555
H13 C43 1_555 1_555
C44 N13 1_555 1_555
H14 C44 1_555 1_555
H15 C44 1_555 1_555
H16 C44 1_555 1_555
C45 N13 1_555 1_555
H17 C45 1_555 1_555
H18 C45 1_555 1_555
H19 C45 1_555 1_555
C46 N14 1_555 1_555
H20 C46 1_555 1_555
C47 C46 1_555 1_555
H21 C47 1_555 1_555
C48 C47 1_555 1_555
H22 C48 1_555 1_555
C49 C48 1_555 1_555
C50 N14 1_555 1_555
H23 C50 1_555 1_555
C51 C49 1_555 1_555
H24 C51 1_555 1_555
C52 O39 1_555 1_555
H25 C52 1_555 1_555
C53 N15 1_555 1_555
H26 C53 1_555 1_555
H27 C53 1_555 1_555
H28 C53 1_555 1_555
C54 N15 1_555 1_555
H29 C54 1_555 1_555
H30 C54 1_555 1_555
H31 C54 1_555 1_555
C55 N16 1_555 1_555
H32 C55 1_555 1_555
C56 C55 1_555 1_555
H33 C56 1_555 1_555
C57 C56 1_555 1_555
H34 C57 1_555 1_555
C58 C57 1_555 1_555
C59 N16 1_555 1_555
H35 C59 1_555 1_555
C60 C58 1_555 1_555
H36 C60 1_555 1_555
C61 H37 1_555 1_555
C62 C61 1_555 1_555
H38 C62 1_555 1_555
C63 C62 1_555 1_555
H39 C63 1_555 1_555
C64 C63 1_555 1_555
C65 N17 1_555 1_555
H40 C65 1_555 1_555
C66 C64 1_555 1_555
H41 C66 1_555 1_555
C67 H42 1_555 1_555
C68 C67 1_555 1_555
H43 C68 1_555 1_555
C69 C68 1_555 1_555
H44 C69 1_555 1_555
C70 C69 1_555 1_555
C71 N18 1_555 1_555
H45 C71 1_555 1_555
C72 C70 1_555 1_555
H46 C72 1_555 1_555
C73 H47 1_555 1_555
C74 C73 1_555 1_555
H48 C74 1_555 1_555
C75 C74 1_555 1_555
H49 C75 1_555 1_555
C76 C75 1_555 1_555
C77 N19 1_555 1_555
H50 C77 1_555 1_555
C78 C76 1_555 1_555
H51 C78 1_555 1_555
Gd1A O2 1_555 1_555
Gd2A O15 1_555 1_555
Gd2_2 O15 1_555 1_555
Gd2A_2 O25 1_555 1_555
Gd2_3 O26 1_555 1_555
O2A Gd1 1_555 1_555
O13A Gd1 1_555 1_555
O14A Gd1 1_555 1_555
O15A Gd2 1_555 1_555
O15_2 Gd2 1_555 1_555
O16_2 Gd2 1_555 1_555
O25A Gd2 1_555 1_555
O26_2 Gd2 1_555 1_555
O13 Gd1A 1_555 1_555
O14 Gd1A 1_555 1_555
O16 Gd2_2 1_555 1_555
O28 C42 1_555 1_555
C6 C7 1_555 1_555
C11 C14 1_555 1_555
C12 C13 1_555 1_555
C20 C21 1_555 1_555
C26 C27 1_555 1_555
C34 C35 1_555 1_555
C39 C42 1_555 1_555
C40 C41 1_555 1_555
C49 C50 1_555 1_555
C58 C59 1_555 1_555
C64 C65 1_555 1_555
C70 C71 1_555 1_555
C76 C77 1_555 1_555
Gd1A O13A 1_555 1_555

#END
