
#######################################################################
#
#                 Cambridge Crystallographic Data Centre
#                                CCDC 
#
#######################################################################
#
# If this CIF has been generated from an entry in the Cambridge 
# Structural Database, then it will include bibliographic, chemical, 
# crystal, experimental, refinement or atomic coordinate data resulting 
# from the CCDC's data processing and validation procedures.
#
#######################################################################

data_AMUPOP
_chemical_formula_moiety         '(C57 H57 N13 O13 Zn3)n'
_symmetry_cell_setting           monoclinic
_symmetry_space_group_name_H-M   'C 2/c'
_symmetry_Int_Tables_number      15
_space_group_name_Hall           '-C 2yc'
loop_
_symmetry_equiv_pos_site_id
_symmetry_equiv_pos_as_xyz
1 x,y,z
2 -x,y,1/2-z
3 1/2+x,1/2+y,z
4 1/2-x,1/2+y,1/2-z
5 -x,-y,-z
6 x,-y,1/2+z
7 1/2-x,1/2-y,-z
8 1/2+x,1/2-y,1/2+z
_cell_length_a                   25.801(2)
_cell_length_b                   16.7844(14)
_cell_length_c                   18.9522(14)
_cell_angle_alpha                90
_cell_angle_beta                 128.7640(10)
_cell_angle_gamma                90
_cell_volume                     6399.52
loop_
_atom_site_label
_atom_site_type_symbol
_atom_site_fract_x
_atom_site_fract_y
_atom_site_fract_z
_atom_site_U_iso_or_equiv
_atom_site_thermal_displace_type
Zn1 Zn 0.0000 -0.03903(3) 0.2500 0.0416 Uani
Zn2 Zn 0.268106(15) -0.009717(19) 0.29253(2) 0.0355 Uani
O1 O 0.14802(10) 0.08122(13) 0.21264(13) 0.0455 Uani
O2 O 0.17737(9) -0.03155(12) 0.18604(14) 0.0441 Uani
O3 O 0.02094(11) -0.08439(13) 0.17615(15) 0.0497 Uani
O4 O 0.08721(12) -0.16134(16) 0.29325(15) 0.0594 Uani
C1 C 0.08562(12) -0.17792(15) 0.16803(17) 0.0300 Uani
C2 C 0.03766(12) -0.06935(14) 0.04626(16) 0.0264 Uani
N1 N 0.27664(12) -0.04301(15) 0.40269(16) 0.0426 Uani
C3 C 0.06454(12) 0.00629(14) 0.08235(17) 0.0269 Uani
C4 C 0.07301(11) -0.14660(15) 0.08968(17) 0.0281 Uani
N2 N 0.07965(15) 0.02446(16) 0.3510(2) 0.0506 Uani
N3 N 0.25486(14) -0.09459(16) 0.48797(18) 0.0492 Uani
C5 C 0.06368(13) -0.13894(16) 0.21706(18) 0.0330 Uani
C6 C -0.02595(12) -0.07317(15) -0.03550(17) 0.0292 Uani
H1 H -0.0438 -0.1231 -0.0604 0.0350 Uiso
C7 C 0.13458(12) 0.02047(15) 0.16741(17) 0.0303 Uani
N4 N 0.17417(15) 0.08877(17) 0.4358(2) 0.0579 Uani
C8 C 0.11771(13) -0.25090(16) 0.20134(17) 0.0355 Uani
H2 H 0.1268 -0.2707 0.2539 0.0430 Uiso
C9 C 0.1067(2) 0.0152(2) 0.4395(3) 0.0557 Uani
H3 H 0.0880 -0.0141 0.4602 0.0670 Uiso
N5 N 0.31699(12) -0.09256(17) 0.27442(19) 0.0506 Uani
C10 C 0.25367(19) -0.2284(2) 0.5380(2) 0.0584 Uani
H4 H 0.2334 -0.2605 0.5575 0.0700 Uiso
H5 H 0.3006 -0.2237 0.5888 0.0700 Uiso
C11 C 0.2230(2) -0.1466(2) 0.5136(3) 0.0604 Uani
H6 H 0.1758 -0.1505 0.4635 0.0720 Uiso
H7 H 0.2284 -0.1237 0.5648 0.0720 Uiso
C12 C 0.12181(19) 0.0695(2) 0.3515(3) 0.0568 Uani
H8 H 0.1158 0.0857 0.2999 0.0680 Uiso
C13 C 0.23376(15) -0.08462(19) 0.4034(2) 0.0464 Uani
H9 H 0.1939 -0.1046 0.3518 0.0560 Uiso
C14 C 0.22188(17) 0.2230(2) 0.4863(3) 0.0611 Uani
H10 H 0.1803 0.2461 0.4351 0.0740 Uiso
H11 H 0.2202 0.2189 0.5360 0.0740 Uiso
C15 C 0.37291(18) -0.0826(3) 0.2868(3) 0.0667 Uani
H12 H 0.3921 -0.0333 0.2939 0.0800 Uiso
C16 C 0.31491(19) -0.0571(2) 0.5447(2) 0.0581 Uani
H13 H 0.3416 -0.0544 0.6075 0.0690 Uiso
C17 C 0.32807(17) -0.0251(2) 0.4925(2) 0.0529 Uani
H14 H 0.3657 0.0044 0.5133 0.0630 Uiso
N6 N 0.39848(18) -0.1522(3) 0.2879(3) 0.0899 Uani
C18 C 0.2288(2) 0.1405(2) 0.4613(3) 0.0712 Uani
H15 H 0.2299 0.1443 0.4111 0.0850 Uiso
H16 H 0.2705 0.1173 0.5123 0.0850 Uiso
C19 C 0.3557(3) -0.2116(3) 0.2720(3) 0.0930 Uani
H17 H 0.3599 -0.2661 0.2678 0.1120 Uiso
C20 C 0.3062(2) -0.1735(2) 0.2637(3) 0.0703 Uani
H18 H 0.2695 -0.1987 0.2523 0.0850 Uiso
C21 C 0.1644(2) 0.0546(2) 0.4921(3) 0.0647 Uani
H19 H 0.1924 0.0582 0.5549 0.0770 Uiso
C22 C 0.13665(13) -0.29504(16) 0.15953(19) 0.0371 Uani
O5 O 0.18621(17) -0.39801(17) 0.26983(18) 0.0884 Uani
C23 C 0.09102(14) -0.19176(17) 0.04706(19) 0.0374 Uani
H20 H 0.0821 -0.1724 -0.0055 0.0450 Uiso
C24 C 0.12201(14) -0.26513(17) 0.0806(2) 0.0404 Uani
H21 H 0.1330 -0.2944 0.0500 0.0480 Uiso
C25 C 0.17055(15) -0.37459(19) 0.1984(2) 0.0492 Uani
O6 O 0.18115(12) -0.41320(15) 0.15088(17) 0.0623 Uani
C26 C 0.4635(2) -0.1589(4) 0.2349(4) 0.1076 Uani
H22 H 0.4404 -0.1112 0.1999 0.1280 Uiso
H23 H 0.4393 -0.2047 0.1964 0.1280 Uiso
C27 C 0.4648(3) -0.1616(5) 0.3107(4) 0.1405 Uani
H24 H 0.4939 -0.1197 0.3525 0.1690 Uiso
H25 H 0.4837 -0.2121 0.3414 0.1690 Uiso
O1D O -0.14802(10) -0.08122(13) -0.21264(13) 0.0455 Uani
O2D O -0.17737(9) 0.03155(12) -0.18604(14) 0.0441 Uani
O3D O -0.02094(11) 0.08439(13) -0.17615(15) 0.0497 Uani
O4D O -0.08721(12) 0.16134(16) -0.29325(15) 0.0594 Uani
C1D C -0.08562(12) 0.17792(15) -0.16803(17) 0.0300 Uani
C2D C -0.03766(12) 0.06935(14) -0.04626(16) 0.0264 Uani
C3D C -0.06454(12) -0.00629(14) -0.08235(17) 0.0269 Uani
C4D C -0.07301(11) 0.14660(15) -0.08968(17) 0.0281 Uani
C5D C -0.06368(13) 0.13894(16) -0.21706(18) 0.0330 Uani
C6D C 0.02595(12) 0.07317(15) 0.03550(17) 0.0292 Uani
H1D H 0.0438 0.1231 0.0604 0.0350 Uiso
C7D C -0.13458(12) -0.02047(15) -0.16741(17) 0.0303 Uani
C8D C -0.11771(13) 0.25090(16) -0.20134(17) 0.0355 Uani
H2D H -0.1268 0.2707 -0.2539 0.0430 Uiso
C22D C -0.13665(13) 0.29504(16) -0.15953(19) 0.0371 Uani
O5D O -0.18621(17) 0.39801(17) -0.26983(18) 0.0884 Uani
C23D C -0.09102(14) 0.19176(17) -0.04706(19) 0.0374 Uani
H20D H -0.0821 0.1724 0.0055 0.0450 Uiso
C24D C -0.12201(14) 0.26513(17) -0.0806(2) 0.0404 Uani
H21D H -0.1330 0.2944 -0.0500 0.0480 Uiso
C25D C -0.17055(15) 0.37459(19) -0.1984(2) 0.0492 Uani
O6D O -0.18115(12) 0.41320(15) -0.15088(17) 0.0623 Uani
N1F N 0.22336(12) -0.45699(15) 0.59731(16) 0.0426 Uani
N3F N 0.24514(14) -0.40541(16) 0.51203(18) 0.0492 Uani
C10F C 0.24633(19) -0.2716(2) 0.4620(2) 0.0584 Uani
H4F H 0.2666 -0.2395 0.4425 0.0700 Uiso
H5F H 0.1994 -0.2763 0.4112 0.0700 Uiso
C11F C 0.2770(2) -0.3534(2) 0.4864(3) 0.0604 Uani
H6F H 0.3242 -0.3495 0.5365 0.0720 Uiso
H7F H 0.2716 -0.3763 0.4352 0.0720 Uiso
C13F C 0.26624(15) -0.41538(19) 0.5966(2) 0.0464 Uani
H9F H 0.3061 -0.3954 0.6482 0.0560 Uiso
C16F C 0.18509(19) -0.4429(2) 0.4553(2) 0.0581 Uani
H13F H 0.1584 -0.4456 0.3925 0.0690 Uiso
C17F C 0.17193(17) -0.4749(2) 0.5075(2) 0.0529 Uani
H14F H 0.1343 -0.5044 0.4867 0.0630 Uiso
N2F N 0.42035(15) 0.47554(16) 0.6490(2) 0.0506 Uani
N4F N 0.32583(15) 0.41123(17) 0.5642(2) 0.0579 Uani
C9F C 0.3933(2) 0.4848(2) 0.5605(3) 0.0557 Uani
H3F H 0.4120 0.5141 0.5398 0.0670 Uiso
C12F C 0.37819(19) 0.4305(2) 0.6485(3) 0.0568 Uani
H8F H 0.3842 0.4143 0.7001 0.0680 Uiso
C14F C 0.27812(17) 0.2770(2) 0.5137(3) 0.0611 Uani
H10F H 0.3197 0.2539 0.5649 0.0740 Uiso
H11F H 0.2798 0.2811 0.4640 0.0740 Uiso
C18F C 0.2712(2) 0.3595(2) 0.5387(3) 0.0712 Uani
H15F H 0.2701 0.3557 0.5889 0.0850 Uiso
H16F H 0.2295 0.3827 0.4877 0.0850 Uiso
C21F C 0.3356(2) 0.4454(2) 0.5079(3) 0.0647 Uani
H19F H 0.3076 0.4418 0.4451 0.0770 Uiso
N5A N 0.68301(12) -0.09256(17) 0.22558(19) 0.0506 Uani
C15A C 0.62709(18) -0.0826(3) 0.2132(3) 0.0667 Uani
H12A H 0.6079 -0.0333 0.2061 0.0800 Uiso
N6A N 0.60152(18) -0.1522(3) 0.2121(3) 0.0899 Uani
C19A C 0.6443(3) -0.2116(3) 0.2280(3) 0.0930 Uani
H17A H 0.6401 -0.2661 0.2322 0.1120 Uiso
C20A C 0.6938(2) -0.1735(2) 0.2363(3) 0.0703 Uani
H18A H 0.7305 -0.1987 0.2477 0.0850 Uiso
C26A C 0.5365(2) -0.1589(4) 0.2651(4) 0.1076 Uani
H22A H 0.5596 -0.1112 0.3001 0.1280 Uiso
H23A H 0.5607 -0.2047 0.3036 0.1280 Uiso
C27A C 0.5352(3) -0.1616(5) 0.1893(4) 0.1405 Uani
H24A H 0.5061 -0.1197 0.1475 0.1690 Uiso
H25A H 0.5163 -0.2121 0.1586 0.1690 Uiso
Zn2C Zn 0.231894(15) -0.509717(19) 0.20747(2) 0.0355 Uani
Zn1D Zn -0.0000 0.03903(3) -0.2500 0.0416 Uani
Zn1F Zn 0.5000 0.53903(3) 0.7500 0.0416 Uani
Zn2A Zn 0.731894(15) -0.009717(19) 0.20747(2) 0.0355 Uani
Zn2D Zn -0.268106(15) 0.009717(19) -0.29253(2) 0.0355 Uani
Zn2F Zn 0.231894(15) -0.490283(19) 0.70747(2) 0.0355 Uani
Zn2G Zn -0.231894(15) 0.509717(19) -0.20747(2) 0.0355 Uani
O2C O 0.32263(9) -0.53155(12) 0.31396(14) 0.0441 Uani
O3A O -0.02094(11) -0.08439(13) 0.32385(15) 0.0497 Uani
N1C N 0.22336(12) -0.54301(15) 0.09731(16) 0.0426 Uani
N2A N -0.07965(15) 0.02446(16) 0.1490(2) 0.0506 Uani
N5C N 0.18301(12) -0.59256(17) 0.22558(19) 0.0506 Uani
O6C O 0.31885(12) 0.08680(15) 0.34912(17) 0.0623 Uani
N7 N 0.4655(2) -0.1475(4) 0.5807(4) 0.1107 Uani
C28 C 0.4871(5) -0.1018(11) 0.6514(7) 0.2221 Uani
C29 C 0.4695(4) -0.1263(9) 0.5182(7) 0.2624 Uani
H26 H 0.4513 -0.1676 0.4734 0.3920 Uiso
H27 H 0.5153 -0.1179 0.5448 0.3920 Uiso
H28 H 0.4450 -0.0779 0.4902 0.3920 Uiso
O7 O 0.5147(5) -0.0435(7) 0.6655(10) 0.3248 Uani
C30 C 0.4334(5) -0.2162(7) 0.5748(10) 0.3277 Uani
H29 H 0.4193 -0.2459 0.5222 0.4910 Uiso
H30 H 0.3953 -0.2022 0.5703 0.4910 Uiso
H31 H 0.4632 -0.2481 0.6280 0.4910 Uiso
loop_
_atom_site_aniso_label
_atom_site_aniso_U_11
_atom_site_aniso_U_22
_atom_site_aniso_U_33
_atom_site_aniso_U_23
_atom_site_aniso_U_13
_atom_site_aniso_U_12
Zn1 0.0595(3) 0.0330(3) 0.0586(3) 0.000 0.0497(3) 0.000
Zn2 0.02732(17) 0.03251(18) 0.03832(19) -0.00013(12) 0.01645(14) -0.00710(12)
O1 0.0419(11) 0.0432(12) 0.0392(11) -0.0096(9) 0.0194(9) -0.0050(9)
O2 0.0263(9) 0.0379(11) 0.0497(12) -0.0034(9) 0.0148(9) 0.0009(8)
O3 0.0691(14) 0.0460(12) 0.0603(13) 0.0132(10) 0.0533(12) 0.0238(11)
O4 0.0699(16) 0.0748(17) 0.0468(13) 0.0122(12) 0.0430(13) 0.0199(13)
C1 0.0281(12) 0.0285(13) 0.0314(13) -0.0011(10) 0.0176(11) 0.0021(10)
C2 0.0279(11) 0.0246(12) 0.0299(12) 0.0026(9) 0.0196(10) 0.0036(9)
N1 0.0386(13) 0.0399(14) 0.0418(13) 0.0055(10) 0.0216(11) 0.0003(10)
C3 0.0255(11) 0.0285(12) 0.0291(12) 0.0017(9) 0.0182(10) 0.0019(9)
C4 0.0247(11) 0.0249(12) 0.0315(13) 0.0012(9) 0.0160(10) 0.0001(9)
N2 0.0721(19) 0.0400(15) 0.0724(19) -0.0134(13) 0.0611(17) -0.0141(13)
N3 0.0584(16) 0.0467(16) 0.0487(15) 0.0110(12) 0.0365(13) 0.0051(13)
C5 0.0354(13) 0.0308(13) 0.0379(14) -0.0002(11) 0.0254(12) 0.0003(11)
C6 0.0302(12) 0.0235(12) 0.0342(13) -0.0005(10) 0.0203(11) -0.0008(9)
C7 0.0268(12) 0.0313(13) 0.0318(13) 0.0060(10) 0.0178(11) 0.0007(10)
N4 0.0703(19) 0.0397(15) 0.089(2) -0.0171(15) 0.0621(19) -0.0119(14)
C8 0.0364(14) 0.0319(14) 0.0303(14) 0.0077(10) 0.0170(11) 0.0078(11)
C9 0.075(2) 0.0478(19) 0.074(2) -0.0110(17) 0.061(2) -0.0140(17)
N5 0.0361(13) 0.0528(17) 0.0568(17) -0.0046(13) 0.0261(12) -0.0022(12)
C10 0.075(2) 0.056(2) 0.050(2) 0.0168(16) 0.0419(19) 0.0056(18)
C11 0.080(2) 0.058(2) 0.060(2) 0.0164(17) 0.052(2) 0.0078(19)
C12 0.082(3) 0.0418(18) 0.080(3) -0.0136(17) 0.067(2) -0.0176(17)
C13 0.0449(16) 0.0446(17) 0.0412(16) 0.0086(13) 0.0229(14) -0.0024(13)
C14 0.051(2) 0.044(2) 0.095(3) -0.0149(18) 0.049(2) -0.0106(15)
C15 0.0468(19) 0.079(3) 0.078(3) -0.007(2) 0.0408(19) 0.0002(19)
C16 0.065(2) 0.055(2) 0.0380(17) 0.0008(15) 0.0244(16) 0.0016(17)
C17 0.0458(18) 0.050(2) 0.0470(18) -0.0017(14) 0.0213(15) -0.0049(14)
N6 0.060(2) 0.117(4) 0.098(3) -0.009(2) 0.052(2) 0.023(2)
C18 0.068(2) 0.047(2) 0.121(4) -0.020(2) 0.070(3) -0.0138(18)
C19 0.091(3) 0.084(4) 0.099(4) -0.018(3) 0.057(3) 0.019(3)
C20 0.067(2) 0.057(2) 0.088(3) -0.016(2) 0.049(2) -0.0054(19)
C21 0.085(3) 0.052(2) 0.074(2) -0.0099(18) 0.058(2) -0.0074(19)
C22 0.0313(13) 0.0288(14) 0.0394(15) 0.0002(11) 0.0164(12) 0.0074(10)
O5 0.127(3) 0.0527(17) 0.0558(16) 0.0195(13) 0.0428(17) 0.0451(17)
C23 0.0416(15) 0.0371(15) 0.0398(15) 0.0071(11) 0.0285(13) 0.0073(12)
C24 0.0430(15) 0.0369(15) 0.0475(17) -0.0009(12) 0.0313(14) 0.0110(12)
C25 0.0438(17) 0.0346(16) 0.0488(18) 0.0001(13) 0.0191(15) 0.0130(13)
O6 0.0662(15) 0.0472(14) 0.0681(15) 0.0084(11) 0.0394(13) 0.0278(12)
C26 0.085(3) 0.147(6) 0.112(4) -0.008(4) 0.072(3) -0.025(3)
C27 0.087(4) 0.237(9) 0.114(5) 0.027(5) 0.071(4) 0.073(5)
O1D 0.0419 0.0432 0.0392 -0.0096 0.0194 -0.005
O2D 0.0263 0.0379 0.0497 -0.0034 0.0148 0.0009
O3D 0.0691 0.046 0.0603 0.0132 0.0533 0.0238
O4D 0.0699 0.0748 0.0468 0.0122 0.043 0.0199
C1D 0.0281 0.0285 0.0314 -0.0011 0.0176 0.0021
C2D 0.0279 0.0246 0.0299 0.0026 0.0196 0.0036
C3D 0.0255 0.0285 0.0291 0.0017 0.0182 0.0019
C4D 0.0247 0.0249 0.0315 0.0012 0.016 0.0001
C5D 0.0354 0.0308 0.0379 -0.0002 0.0254 0.0003
C6D 0.0302 0.0235 0.0342 -0.0005 0.0203 -0.0008
C7D 0.0268 0.0313 0.0318 0.006 0.0178 0.0007
C8D 0.0364 0.0319 0.0303 0.0077 0.017 0.0078
C22D 0.0313 0.0288 0.0394 0.0002 0.0164 0.0074
O5D 0.127 0.0527 0.0558 0.0195 0.0428 0.0451
C23D 0.0416 0.0371 0.0398 0.0071 0.0285 0.0073
C24D 0.043 0.0369 0.0475 -0.0009 0.0313 0.011
C25D 0.0438 0.0346 0.0488 0.0001 0.0191 0.013
O6D 0.0662 0.0472 0.0681 0.0084 0.0394 0.0278
N1F 0.0386 0.0399 0.0418 0.0055 0.0216 0.0003
N3F 0.0584 0.0467 0.0487 0.011 0.0365 0.0051
C10F 0.075 0.056 0.05 0.0168 0.0419 0.0056
C11F 0.08 0.058 0.06 0.0164 0.052 0.0078
C13F 0.0449 0.0446 0.0412 0.0086 0.0229 -0.0024
C16F 0.065 0.055 0.038 0.0008 0.0244 0.0016
C17F 0.0458 0.05 0.047 -0.0017 0.0213 -0.0049
N2F 0.0721 0.04 0.0724 -0.0134 0.0611 -0.0141
N4F 0.0703 0.0397 0.089 -0.0171 0.0621 -0.0119
C9F 0.075 0.0478 0.074 -0.011 0.061 -0.014
C12F 0.082 0.0418 0.08 -0.0136 0.067 -0.0176
C14F 0.051 0.044 0.095 -0.0149 0.049 -0.0106
C18F 0.068 0.047 0.121 -0.02 0.07 -0.0138
C21F 0.085 0.052 0.074 -0.0099 0.058 -0.0074
N5A 0.0361 0.0528 0.0568 0.0046 0.0261 0.0022
C15A 0.0468 0.079 0.078 0.007 0.0408 -0.0002
N6A 0.06 0.117 0.098 0.009 0.052 -0.023
C19A 0.091 0.084 0.099 0.018 0.057 -0.019
C20A 0.067 0.057 0.088 0.016 0.049 0.0054
C26A 0.085 0.147 0.112 0.008 0.072 0.025
C27A 0.087 0.237 0.114 -0.027 0.071 -0.073
Zn2C 0.02732 0.03251 0.03832 0.00013 0.01645 0.0071
Zn1D 0.0595 0.033 0.0586 0 0.0497 0
Zn1F 0.0595 0.033 0.0586 0 0.0497 0
Zn2A 0.02732 0.03251 0.03832 0.00013 0.01645 0.0071
Zn2D 0.02732 0.03251 0.03832 -0.00013 0.01645 -0.0071
Zn2F 0.02732 0.03251 0.03832 -0.00013 0.01645 -0.0071
Zn2G 0.02732 0.03251 0.03832 0.00013 0.01645 0.0071
O2C 0.0263 0.0379 0.0497 0.0034 0.0148 -0.0009
O3A 0.0691 0.046 0.0603 -0.0132 0.0533 -0.0238
N1C 0.0386 0.0399 0.0418 -0.0055 0.0216 -0.0003
N2A 0.0721 0.04 0.0724 0.0134 0.0611 0.0141
N5C 0.0361 0.0528 0.0568 0.0046 0.0261 0.0022
O6C 0.0662 0.0472 0.0681 -0.0084 0.0394 -0.0278
N7 0.069(3) 0.165(5) 0.084(3) 0.033(3) 0.041(3) 0.041(3)
C28 0.099(6) 0.41(2) 0.127(7) -0.070(10) 0.056(5) -0.043(9)
C29 0.153(8) 0.49(2) 0.163(8) 0.148(11) 0.108(7) 0.186(11)
O7 0.172(8) 0.348(14) 0.453(16) -0.203(12) 0.195(10) -0.136(8)
C30 0.128(8) 0.173(11) 0.61(3) 0.163(14) 0.196(13) 0.064(7)
loop_
_geom_bond_atom_site_label_1
_geom_bond_atom_site_label_2
_geom_bond_site_symmetry_1
_geom_bond_site_symmetry_2
Zn1 O3 1_555 1_555
Zn2 O2 1_555 1_555
O1 C7 1_555 1_555
O2 C7 1_555 1_555
O3 C5 1_555 1_555
O4 C5 1_555 1_555
C1 C4 1_555 1_555
C2 C3 1_555 1_555
N1 Zn2 1_555 1_555
C3 C7 1_555 1_555
C4 C2 1_555 1_555
N2 Zn1 1_555 1_555
N3 C11 1_555 1_555
C5 C1 1_555 1_555
C6 C2 1_555 1_555
H1 C6 1_555 1_555
N4 C12 1_555 1_555
C8 C1 1_555 1_555
H2 C8 1_555 1_555
C9 N2 1_555 1_555
H3 C9 1_555 1_555
N5 Zn2 1_555 1_555
C10 H4 1_555 1_555
H5 C10 1_555 1_555
C11 C10 1_555 1_555
H6 C11 1_555 1_555
H7 C11 1_555 1_555
C12 N2 1_555 1_555
H8 C12 1_555 1_555
C13 N1 1_555 1_555
H9 C13 1_555 1_555
C14 H10 1_555 1_555
H11 C14 1_555 1_555
C15 N5 1_555 1_555
H12 C15 1_555 1_555
C16 N3 1_555 1_555
H13 C16 1_555 1_555
C17 N1 1_555 1_555
H14 C17 1_555 1_555
N6 C15 1_555 1_555
C18 N4 1_555 1_555
H15 C18 1_555 1_555
H16 C18 1_555 1_555
C19 N6 1_555 1_555
H17 C19 1_555 1_555
C20 N5 1_555 1_555
H18 C20 1_555 1_555
C21 N4 1_555 1_555
H19 C21 1_555 1_555
C22 C8 1_555 1_555
O5 C25 1_555 1_555
C23 C4 1_555 1_555
H20 C23 1_555 1_555
C24 C22 1_555 1_555
H21 C24 1_555 1_555
C25 C22 1_555 1_555
O6 C25 1_555 1_555
C26 H22 1_555 1_555
H23 C26 1_555 1_555
C27 N6 1_555 1_555
H24 C27 1_555 1_555
H25 C27 1_555 1_555
N7 C28 1_555 1_555
C28 O7 1_555 1_555
C29 N7 1_555 1_555
H26 C29 1_555 1_555
H27 C29 1_555 1_555
H28 C29 1_555 1_555
C30 N7 1_555 1_555
H29 C30 1_555 1_555
H30 C30 1_555 1_555
H31 C30 1_555 1_555
O1D C7D 1_555 1_555
O2D C7D 1_555 1_555
O3D C5D 1_555 1_555
O4D C5D 1_555 1_555
C1D C4D 1_555 1_555
C2D C3D 1_555 1_555
C3D C6 1_555 1_555
C4D C2D 1_555 1_555
C5D C1D 1_555 1_555
C6D C3 1_555 1_555
H1D C6D 1_555 1_555
C7D C3D 1_555 1_555
C8D C1D 1_555 1_555
H2D C8D 1_555 1_555
C22D C8D 1_555 1_555
O5D C25D 1_555 1_555
C23D C4D 1_555 1_555
H20D C23D 1_555 1_555
C24D C22D 1_555 1_555
H21D C24D 1_555 1_555
C25D C22D 1_555 1_555
O6D C25D 1_555 1_555
N1F C13F 1_555 1_555
N3F C11F 1_555 1_555
C10F C10 1_555 1_555
H4F C10F 1_555 1_555
H5F C10F 1_555 1_555
C11F C10F 1_555 1_555
H6F C11F 1_555 1_555
H7F C11F 1_555 1_555
C13F N3F 1_555 1_555
H9F C13F 1_555 1_555
C16F N3F 1_555 1_555
H13F C16F 1_555 1_555
C17F N1F 1_555 1_555
H14F C17F 1_555 1_555
N2F C9F 1_555 1_555
N4F C12F 1_555 1_555
C9F H3F 1_555 1_555
C12F N2F 1_555 1_555
H8F C12F 1_555 1_555
C14F C14 1_555 1_555
H10F C14F 1_555 1_555
H11F C14F 1_555 1_555
C18F N4F 1_555 1_555
H15F C18F 1_555 1_555
H16F C18F 1_555 1_555
C21F N4F 1_555 1_555
H19F C21F 1_555 1_555
N5A C15A 1_555 1_555
C15A H12A 1_555 1_555
N6A C15A 1_555 1_555
C19A N6A 1_555 1_555
H17A C19A 1_555 1_555
C20A N5A 1_555 1_555
H18A C20A 1_555 1_555
C26A C26 1_555 1_555
H22A C26A 1_555 1_555
H23A C26A 1_555 1_555
C27A N6A 1_555 1_555
H24A C27A 1_555 1_555
H25A C27A 1_555 1_555
Zn2C O6 1_555 1_555
Zn1D O3D 1_555 1_555
Zn1F N2F 1_555 1_555
Zn2A N5A 1_555 1_555
Zn2D O2D 1_555 1_555
Zn2F N1F 1_555 1_555
Zn2G O6D 1_555 1_555
O2C Zn2C 1_555 1_555
O3A Zn1 1_555 1_555
N1C Zn2C 1_555 1_555
N2A Zn1 1_555 1_555
N5C Zn2C 1_555 1_555
O6C Zn2 1_555 1_555
N3 C13 1_555 1_555
C9 C21 1_555 1_555
C14 C18 1_555 1_555
C16 C17 1_555 1_555
C19 C20 1_555 1_555
C23 C24 1_555 1_555
C26 C27 1_555 1_555
C2D C6D 1_555 1_555
C23D C24D 1_555 1_555
C16F C17F 1_555 1_555
C9F C21F 1_555 1_555
C14F C18F 1_555 1_555
C19A C20A 1_555 1_555
C26A C27A 1_555 1_555

#END
