
#######################################################################
#
#                 Cambridge Crystallographic Data Centre
#                                CCDC 
#
#######################################################################
#
# If this CIF has been generated from an entry in the Cambridge 
# Structural Database, then it will include bibliographic, chemical, 
# crystal, experimental, refinement or atomic coordinate data resulting 
# from the CCDC's data processing and validation procedures.
#
#######################################################################

data_AMUPIJ
_chemical_formula_moiety         '(C44 H54 N8 O21 Zn3)n'
_symmetry_cell_setting           monoclinic
_symmetry_space_group_name_H-M   'C 2/c'
_symmetry_Int_Tables_number      15
_space_group_name_Hall           '-C 2yc'
loop_
_symmetry_equiv_pos_site_id
_symmetry_equiv_pos_as_xyz
1 x,y,z
2 -x,y,1/2-z
3 1/2+x,1/2+y,z
4 1/2-x,1/2+y,1/2-z
5 -x,-y,-z
6 x,-y,1/2+z
7 1/2-x,1/2-y,-z
8 1/2+x,1/2-y,1/2+z
_cell_length_a                   23.559(4)
_cell_length_b                   20.762(4)
_cell_length_c                   17.653(3)
_cell_angle_alpha                90
_cell_angle_beta                 126.614(3)
_cell_angle_gamma                90
_cell_volume                     6930.79
loop_
_atom_site_label
_atom_site_type_symbol
_atom_site_fract_x
_atom_site_fract_y
_atom_site_fract_z
C1 C 0.2813(11) -0.1624(10) 0.4825(16)
H1 H 0.2788 -0.1749 0.4277
H2 H 0.2349 -0.1685 0.4681
C2 C 0.3004(11) -0.0996(11) 0.5031(15)
H3 H 0.3430 -0.0901 0.5084
H4 H 0.3062 -0.0858 0.5598
C3 C 0.2283(10) -0.0681(10) 0.4057(14)
H5 H 0.2339 -0.0618 0.3560
H6 H 0.1863 -0.0935 0.3821
C4 C 0.2285(10) -0.0116(10) 0.4448(13)
H7 H 0.2752 0.0078 0.4837
H8 H 0.2104 -0.0166 0.4815
C5 C 0.1082(9) 0.0292(8) 0.3037(12)
H9 H 0.0784 0.0049 0.3106
C6 C 0.1990(9) 0.0658(9) 0.3204(12)
H10 H 0.2457 0.0716 0.3425
C7 C 0.0898(8) 0.0733(8) 0.2416(11)
H11 H 0.0435 0.0868 0.1970
C8 C 0.2601(5) 0.2313(5) 0.2820(8)
C9 C 0.3090(5) 0.2882(5) 0.3280(7)
C10 C 0.3814(5) 0.2753(5) 0.4047(7)
H12 H 0.3953 0.2335 0.4276
C11 C 0.2906(5) 0.3478(5) 0.3048(8)
H13 H 0.2432 0.3562 0.2571
C12 C 0.3358(5) 0.3997(5) 0.3453(7)
H14 H 0.3187 0.4414 0.3257
C13 C 0.4093(4) 0.3889(4) 0.4178(7)
C14 C 0.4303(5) 0.3241(4) 0.4445(7)
C15 C 0.5042(6) 0.3071(5) 0.5177(9)
C16 C 0.4565(4) 0.4447(4) 0.4581(6)
C17 C 0.4455(4) 0.4892(4) 0.5069(6)
H15 H 0.4086 0.4823 0.5114
C18 C 0.5125(4) 0.4561(4) 0.4504(6)
C19 C 0.5275(4) 0.4142(4) 0.3957(7)
C20 C 0.3817(7) -0.2551(6) 0.7046(10)
H16 H 0.3888 -0.2690 0.7597
C21 C 0.3905(7) -0.2487(6) 0.5963(10)
H17 H 0.4048 -0.2558 0.5580
C22 C 0.3354(8) -0.2112(7) 0.6489(11)
H18 H 0.3056 -0.1874 0.6564
N1 N 0.1793(6) 0.0254(6) 0.3568(9)
N2 N 0.1458(5) 0.0972(5) 0.2494(7)
N3 N 0.3419(8) -0.2090(7) 0.5768(11)
N4 N 0.4169(5) -0.2773(4) 0.6748(6)
O1 O 0.1959(4) 0.2456(4) 0.2182(7)
O2 O 0.2808(4) 0.1760(4) 0.3060(7)
O3 O 0.5482(5) 0.3353(4) 0.5637(8)
O4 O 0.5270(6) 0.2573(6) 0.4902(9)
O5 O 0.4754(3) 0.3877(3) 0.3209(5)
O6 O 0.5900(3) 0.4092(3) 0.4228(5)
O7 O 0.1869(4) 0.1177(4) 0.1045(6)
Zn1 Zn 0.5000 0.33738(7) 0.2500
Zn2 Zn 0.14724(6) 0.16146(5) 0.16649(9)
C8D C 0.7399(5) 0.7687(5) 0.7180(8)
C9D C 0.6910(5) 0.7118(5) 0.6720(7)
C10D C 0.6186(5) 0.7247(5) 0.5953(7)
H12D H 0.6047 0.7665 0.5724
C11D C 0.7094(5) 0.6522(5) 0.6952(8)
H13D H 0.7568 0.6438 0.7429
C12D C 0.6642(5) 0.6003(5) 0.6547(7)
H14D H 0.6813 0.5586 0.6743
C13D C 0.5907(4) 0.6111(4) 0.5822(7)
C14D C 0.5697(5) 0.6759(4) 0.5555(7)
C15D C 0.4958(6) 0.6929(5) 0.4823(9)
C16D C 0.5435(4) 0.5553(4) 0.5419(6)
C17D C 0.5545(4) 0.5108(4) 0.4931(6)
H15D H 0.5914 0.5177 0.4886
C18D C 0.4875(4) 0.5439(4) 0.5496(6)
C19D C 0.4725(4) 0.5858(4) 0.6043(7)
O1D O 0.8041(4) 0.7544(4) 0.7818(7)
O2D O 0.7192(4) 0.8240(4) 0.6940(7)
O3D O 0.4518(5) 0.6647(4) 0.4363(8)
O4D O 0.4730(6) 0.7427(6) 0.5098(9)
O5D O 0.5246(3) 0.6123(3) 0.6791(5)
O6D O 0.4100(3) 0.5908(3) 0.5772(5)
C1G C 0.7813(11) 0.6624(10) 0.9825(16)
H1G H 0.7788 0.6749 0.9277
H2G H 0.7349 0.6685 0.9681
C2G C 0.8004(11) 0.5996(11) 1.0031(15)
H3G H 0.8430 0.5901 1.0084
H4G H 0.8062 0.5858 1.0598
C3G C 0.7283(10) 0.5681(10) 0.9057(14)
H5G H 0.7339 0.5618 0.8560
H6G H 0.6863 0.5935 0.8821
C4G C 0.7285(10) 0.5116(10) 0.9448(13)
H7G H 0.7752 0.4922 0.9837
H8G H 0.7104 0.5166 0.9815
C5G C 0.6082(9) 0.4708(8) 0.8037(12)
H9G H 0.5784 0.4951 0.8106
C6G C 0.6990(9) 0.4342(9) 0.8204(12)
H10G H 0.7457 0.4284 0.8425
C7G C 0.5898(8) 0.4267(8) 0.7416(11)
H11G H 0.5435 0.4132 0.6970
C20G C 0.8817(7) 0.7551(6) 1.2046(10)
H16G H 0.8888 0.7690 1.2597
C21G C 0.8905(7) 0.7487(6) 1.0963(10)
H17G H 0.9048 0.7558 1.0580
C22G C 0.8354(8) 0.7112(7) 1.1489(11)
H18G H 0.8056 0.6874 1.1564
N1G N 0.6793(6) 0.4746(6) 0.8568(9)
N2G N 0.6458(5) 0.4028(5) 0.7494(7)
N3G N 0.8419(8) 0.7090(7) 1.0768(11)
N4G N 0.9169(5) 0.7773(4) 1.1748(6)
O7G O 0.6869(4) 0.3823(4) 0.6045(6)
Zn2G Zn 0.64724(6) 0.33854(5) 0.66649(9)
N4D N 0.5831(5) 0.2773(4) 0.3252(6)
N4E N 0.4169(5) 0.2773(4) 0.1748(6)
O1G O 0.6959(4) 0.2544(4) 0.7182(7)
O3G O 0.0482(5) 0.1647(4) 0.0637(8)
O5A O 0.5246(3) 0.3877(3) 0.1791(5)
Zn1B Zn 1.0000 0.83738(7) 1.2500
Zn1D Zn 0.5000 -0.33738(7) 0.7500
Zn1D_2 Zn 0.5000 0.66262(7) 0.7500
Zn2C Zn 0.35276(6) 0.66146(5) 0.33351(9)
Zn2D Zn 0.85276(6) 0.83854(5) 0.83351(9)
O8 O 0.2904(8) 0.0296(9) 0.1986(13)
O9 O 0.3970(10) 0.0827(10) 0.4316(15)
O10 O 0.0802(8) 0.3553(8) 0.1020(12)
O11 O 0.4862(10) 0.0430(10) 0.3109(16)
O12 O 0.435(2) -0.146(2) 0.092(4)
O13 O 0.3849(10) -0.0371(10) 0.2733(16)
O14 O 0.3617(10) -0.0128(11) 0.3794(17)
loop_
_geom_bond_atom_site_label_1
_geom_bond_atom_site_label_2
_geom_bond_site_symmetry_1
_geom_bond_site_symmetry_2
C1 H1 1_555 1_555
H2 C1 1_555 1_555
C2 C1 1_555 1_555
H3 C2 1_555 1_555
H4 C2 1_555 1_555
C3 C2 1_555 1_555
H5 C3 1_555 1_555
H6 C3 1_555 1_555
C4 C3 1_555 1_555
H7 C4 1_555 1_555
H8 C4 1_555 1_555
C5 H9 1_555 1_555
C6 H10 1_555 1_555
C7 C5 1_555 1_555
H11 C7 1_555 1_555
C8 C9 1_555 1_555
C9 C10 1_555 1_555
C10 H12 1_555 1_555
C11 C9 1_555 1_555
H13 C11 1_555 1_555
C12 C11 1_555 1_555
H14 C12 1_555 1_555
C13 C12 1_555 1_555
C14 C10 1_555 1_555
C15 C14 1_555 1_555
C16 C13 1_555 1_555
C17 C16 1_555 1_555
H15 C17 1_555 1_555
C18 C16 1_555 1_555
C19 C18 1_555 1_555
C20 H16 1_555 1_555
C21 H17 1_555 1_555
C22 C20 1_555 1_555
H18 C22 1_555 1_555
N1 C4 1_555 1_555
N2 C6 1_555 1_555
N3 C1 1_555 1_555
N4 C20 1_555 1_555
O1 C8 1_555 1_555
O2 C8 1_555 1_555
O3 C15 1_555 1_555
O4 C15 1_555 1_555
O5 C19 1_555 1_555
O6 C19 1_555 1_555
O7 Zn2 1_555 1_555
Zn1 O5 1_555 1_555
Zn2 N2 1_555 1_555
C8D C9D 1_555 1_555
C9D C10D 1_555 1_555
C10D H12D 1_555 1_555
C11D C9D 1_555 1_555
H13D C11D 1_555 1_555
C12D C11D 1_555 1_555
H14D C12D 1_555 1_555
C13D C12D 1_555 1_555
C14D C10D 1_555 1_555
C15D C14D 1_555 1_555
C16D C13D 1_555 1_555
C17D C18 1_555 1_555
H15D C17D 1_555 1_555
C18D C17 1_555 1_555
C19D C18D 1_555 1_555
O1D C8D 1_555 1_555
O2D C8D 1_555 1_555
O3D C15D 1_555 1_555
O4D C15D 1_555 1_555
O5D C19D 1_555 1_555
O6D C19D 1_555 1_555
C1G H1G 1_555 1_555
H2G C1G 1_555 1_555
C2G C1G 1_555 1_555
H3G C2G 1_555 1_555
H4G C2G 1_555 1_555
C3G C2G 1_555 1_555
H5G C3G 1_555 1_555
H6G C3G 1_555 1_555
C4G C3G 1_555 1_555
H7G C4G 1_555 1_555
H8G C4G 1_555 1_555
C5G H9G 1_555 1_555
C6G H10G 1_555 1_555
C7G C5G 1_555 1_555
H11G C7G 1_555 1_555
C20G H16G 1_555 1_555
C21G H17G 1_555 1_555
C22G C20G 1_555 1_555
H18G C22G 1_555 1_555
N1G C4G 1_555 1_555
N2G C6G 1_555 1_555
N3G C1G 1_555 1_555
N4G C20G 1_555 1_555
O7G Zn2G 1_555 1_555
Zn2G O3 1_555 1_555
N4D Zn1 1_555 1_555
N4E Zn1 1_555 1_555
O1G Zn2G 1_555 1_555
O3G Zn2 1_555 1_555
O5A Zn1 1_555 1_555
Zn1B N4G 1_555 1_555
Zn1D N4 1_555 1_555
Zn1D_2 O5D 1_555 1_555
Zn2C O3D 1_555 1_555
Zn2D O1D 1_555 1_555
C5 N1 1_555 1_555
C6 N1 1_555 1_555
C7 N2 1_555 1_555
C13 C14 1_555 1_555
C21 N3 1_555 1_555
C21 N4 1_555 1_555
C22 N3 1_555 1_555
O1 Zn2 1_555 1_555
C13D C14D 1_555 1_555
C16D C17D 1_555 1_555
C16D C18D 1_555 1_555
C5G N1G 1_555 1_555
C6G N1G 1_555 1_555
C7G N2G 1_555 1_555
C21G N3G 1_555 1_555
C21G N4G 1_555 1_555
C22G N3G 1_555 1_555
N2G Zn2G 1_555 1_555

#END
