
#######################################################################
#
#                 Cambridge Crystallographic Data Centre
#                                CCDC 
#
#######################################################################
#
# If this CIF has been generated from an entry in the Cambridge 
# Structural Database, then it will include bibliographic, chemical, 
# crystal, experimental, refinement or atomic coordinate data resulting 
# from the CCDC's data processing and validation procedures.
#
#######################################################################

data_ORANAY
_chemical_formula_moiety         '(C42 H34 Ce2 Mg3 N6 O32)n'
_symmetry_cell_setting           hexagonal
_symmetry_space_group_name_H-M   'P 6/m c c'
_symmetry_Int_Tables_number      192
_space_group_name_Hall           '-P 6 2c'
loop_
_symmetry_equiv_pos_site_id
_symmetry_equiv_pos_as_xyz
1 x,y,z
2 -y,x-y,z
3 -x+y,-x,z
4 -x,-y,z
5 y,-x+y,z
6 x-y,x,z
7 y,x,1/2-z
8 x-y,-y,1/2-z
9 -x,-x+y,1/2-z
10 -y,-x,1/2-z
11 -x+y,y,1/2-z
12 x,x-y,1/2-z
13 -x,-y,-z
14 y,-x+y,-z
15 x-y,x,-z
16 x,y,-z
17 -y,x-y,-z
18 -x+y,-x,-z
19 -y,-x,1/2+z
20 -x+y,y,1/2+z
21 x,x-y,1/2+z
22 y,x,1/2+z
23 x-y,-y,1/2+z
24 -x,-x+y,1/2+z
_cell_length_a                   15.6115(9)
_cell_length_b                   15.6115(9)
_cell_length_c                   15.1842(12)
_cell_angle_alpha                90
_cell_angle_beta                 90
_cell_angle_gamma                120
_cell_volume                     3204.88
loop_
_atom_site_label
_atom_site_type_symbol
_atom_site_fract_x
_atom_site_fract_y
_atom_site_fract_z
Ce1 Ce -0.3333 0.3333 -0.2500
Mg1 Mg -0.0000 0.5000 0.0000
O1 O -0.12979(17) 0.51046(17) 0.0000
H1 H -0.1664 0.4764 -0.0399
O2 O -0.19558(14) 0.38449(14) -0.14142(13)
O3 O -0.05831(12) 0.38839(13) -0.09422(11)
N1 N -0.23701(11) 0.23701(11) -0.2500
C1 C -0.13465(17) 0.35303(17) -0.13922(15)
C2 C -0.15932(16) 0.26490(17) -0.19690(15)
C3 C -0.1070(2) 0.2153(2) -0.1943(2)
H2 H -0.0539 0.2352 -0.1559
C4 C -0.13507(17) 0.13507(17) -0.2500
H3 H -0.1007 0.1007 -0.2500
H1O H -0.1664 0.4764 0.0399
O2I O -0.38449(14) 0.19558(14) -0.35858(13)
O3I O -0.38839(13) 0.05831(12) -0.40578(11)
C1I C -0.35303(17) 0.13465(17) -0.36078(15)
C2I C -0.26490(17) 0.15932(16) -0.30310(15)
C3I C -0.2153(2) 0.1070(2) -0.3057(2)
H2I H -0.2352 0.0539 -0.3441
Mg1A Mg -0.5000 0.5000 0.0000
O1A O -0.51046(17) 0.35975(24) 0.0000
H1A H -0.4764 0.3572 -0.0399
O2A O -0.38449(14) 0.41993(20) -0.14142(13)
O3A O -0.38839(13) 0.55330(18) -0.09422(11)
N1A N -0.23701(11) 0.52598(16) -0.2500
C1A C -0.35303(17) 0.51232(24) -0.13922(15)
C2A C -0.26490(17) 0.57578(23) -0.19690(15)
C3A C -0.2153(2) 0.6777(3) -0.1943(2)
H2A H -0.2352 0.7109 -0.1559
C4A C -0.13507(17) 0.72986(24) -0.2500
H3A H -0.1007 0.7986 -0.2500
H1P H -0.4764 0.3572 0.0399
O2K O -0.19558(14) 0.41993(20) -0.35858(13)
O3K O -0.05831(12) 0.55330(18) -0.40578(11)
C1K C -0.13465(17) 0.51232(24) -0.36078(15)
C2K C -0.15932(16) 0.57578(23) -0.30310(15)
C3K C -0.1070(2) 0.6777(3) -0.3057(2)
H2K H -0.0539 0.7109 -0.3441
Mg1B Mg -0.5000 0.0000 0.0000
O1B O -0.35975(24) 0.12979(17) 0.0000
H1B H -0.3572 0.1664 -0.0399
O2B O -0.41993(20) 0.19558(14) -0.14142(13)
O3B O -0.55330(18) 0.05831(12) -0.09422(11)
N1B N -0.52598(16) 0.23701(11) -0.2500
C1B C -0.51232(24) 0.13465(17) -0.13922(15)
C2B C -0.57578(23) 0.15932(16) -0.19690(15)
C3B C -0.6777(3) 0.1070(2) -0.1943(2)
H2B H -0.7109 0.0539 -0.1559
C4B C -0.72986(24) 0.13507(17) -0.2500
H3B H -0.7986 0.1007 -0.2500
H1Q H -0.3572 0.1664 0.0399
O2J O -0.41993(20) 0.38449(14) -0.35858(13)
O3J O -0.55330(18) 0.38839(13) -0.40578(11)
C1J C -0.51232(24) 0.35303(17) -0.36078(15)
C2J C -0.57578(23) 0.26490(17) -0.30310(15)
C3J C -0.6777(3) 0.2153(2) -0.3057(2)
H2J H -0.7109 0.2352 -0.3441
Ce1C Ce 0.3333 0.6667 -0.2500
O1C O 0.12979(17) 0.48954(17) 0.0000
H1C H 0.1664 0.5236 -0.0399
O2C O 0.19558(14) 0.61551(14) -0.14142(13)
O3C O 0.05831(12) 0.61161(13) -0.09422(11)
N1C N 0.23701(11) 0.76299(11) -0.2500
C1C C 0.13465(17) 0.64697(17) -0.13922(15)
C2C C 0.15932(16) 0.73510(17) -0.19690(15)
C3C C 0.1070(2) 0.7847(2) -0.1943(2)
H2C H 0.0539 0.7648 -0.1559
C4C C 0.13507(17) 0.86493(17) -0.2500
H3C H 0.1007 0.8993 -0.2500
H1L H 0.1664 0.5236 0.0399
O2F O 0.38449(14) 0.80442(14) -0.35858(13)
O3F O 0.38839(13) 0.94169(12) -0.40578(11)
C1F C 0.35303(17) 0.86535(17) -0.36078(15)
C2F C 0.26490(17) 0.84068(16) -0.30310(15)
C3F C 0.2153(2) 0.8930(2) -0.3057(2)
H2F H 0.2352 0.9461 -0.3441
O1D O -0.48954(17) 0.64025(24) 0.0000
H1D H -0.5236 0.6428 -0.0399
O2D O -0.61551(14) 0.58007(20) -0.14142(13)
O3D O -0.61161(13) 0.44670(18) -0.09422(11)
N1D N -0.76299(11) 0.47402(16) -0.2500
C1D C -0.64697(17) 0.48768(24) -0.13922(15)
C2D C -0.73510(17) 0.42422(23) -0.19690(15)
C3D C -0.7847(2) 0.3223(3) -0.1943(2)
H2D H -0.7648 0.2891 -0.1559
C4D C -0.86493(17) 0.27014(24) -0.2500
H3D H -0.8993 0.2014 -0.2500
H1M H -0.5236 0.6428 0.0399
O2H O -0.80442(14) 0.58007(20) -0.35858(13)
O3H O -0.94169(12) 0.44670(18) -0.40578(11)
C1H C -0.86535(17) 0.48768(24) -0.36078(15)
C2H C -0.84068(16) 0.42422(23) -0.30310(15)
C3H C -0.8930(2) 0.3223(3) -0.3057(2)
H2H H -0.9461 0.2891 -0.3441
O1E O -0.64025(24) -0.12979(17) 0.0000
H1E H -0.6428 -0.1664 -0.0399
O2E O -0.58007(20) -0.19558(14) -0.14142(13)
O3E O -0.44670(18) -0.05831(12) -0.09422(11)
N1E N -0.47402(16) -0.23701(11) -0.2500
C1E C -0.48768(24) -0.13465(17) -0.13922(15)
C2E C -0.42422(23) -0.15932(16) -0.19690(15)
C3E C -0.3223(3) -0.1070(2) -0.1943(2)
H2E H -0.2891 -0.0539 -0.1559
C4E C -0.27014(24) -0.13507(17) -0.2500
H3E H -0.2014 -0.1007 -0.2500
H1N H -0.6428 -0.1664 0.0399
O2G O -0.58007(20) -0.38449(14) -0.35858(13)
O3G O -0.44670(18) -0.38839(13) -0.40578(11)
C1G C -0.48768(24) -0.35303(17) -0.36078(15)
C2G C -0.42422(23) -0.26490(17) -0.30310(15)
C3G C -0.3223(3) -0.2153(2) -0.3057(2)
H2G H -0.2891 -0.2352 -0.3441
Ce1C_2 Ce -0.6667 -0.3333 -0.2500
Ce1C_3 Ce -0.6667 0.6667 -0.2500
Mg1F Mg -0.5000 0.0000 -0.5000
Mg1F_2 Mg 0.5000 1.0000 -0.5000
Mg1G Mg -0.5000 -0.5000 -0.5000
Mg1G_2 Mg -0.5000 0.5000 -0.5000
Mg1H Mg -1.0000 0.5000 -0.5000
Mg1H_2 Mg -0.0000 0.5000 -0.5000
O2D_2 O 0.38449(14) 0.58007(20) -0.14142(13)
O2E_2 O 0.41993(20) 0.80442(14) -0.14142(13)
O2G_2 O 0.41993(20) 0.61551(14) -0.35858(13)
O2H_2 O 0.19558(14) 0.58007(20) -0.35858(13)
O3L O 0.05831(12) 0.61161(13) 0.09422(11)
O3M O -0.61161(13) 0.44670(18) 0.09422(11)
O3N O -0.44670(18) -0.05831(12) 0.09422(11)
O3O O -0.05831(12) 0.38839(13) 0.09422(11)
O3P O -0.38839(13) 0.55330(18) 0.09422(11)
O3Q O -0.55330(18) 0.05831(12) 0.09422(11)
N1D_2 N 0.23701(11) 0.47402(16) -0.2500
N1E_2 N 0.52598(16) 0.76299(11) -0.2500
O4 O 0.0451(12) 0.2672(9) 0.0000
H4 H 0.098(9) 0.264(15) 0.0000
H5 H 0.066(14) 0.329(3) 0.0000
O5 O 0.0000 0.0000 -0.2500
loop_
_geom_bond_atom_site_label_1
_geom_bond_atom_site_label_2
_geom_bond_site_symmetry_1
_geom_bond_site_symmetry_2
Ce1 O2 1_555 1_555
Mg1 O1 1_555 1_555
O1 H1 1_555 1_555
O2 C1 1_555 1_555
O3 Mg1 1_555 1_555
N1 Ce1 1_555 1_555
C1 O3 1_555 1_555
C2 N1 1_555 1_555
C3 C2 1_555 1_555
H2 C3 1_555 1_555
C4 C3 1_555 1_555
H3 C4 1_555 1_555
O4 H4 1_555 1_555
H5 O4 1_555 1_555
H1O O1 1_555 1_555
O2I Ce1 1_555 1_555
O3I C1I 1_555 1_555
C1I O2I 1_555 1_555
C2I N1 1_555 1_555
C3I C4 1_555 1_555
H2I C3I 1_555 1_555
Mg1A O1A 1_555 1_555
O1A H1A 1_555 1_555
O2A Ce1 1_555 1_555
O3A Mg1A 1_555 1_555
N1A Ce1 1_555 1_555
C1A O2A 1_555 1_555
C2A N1A 1_555 1_555
C3A C2A 1_555 1_555
H2A C3A 1_555 1_555
C4A C3A 1_555 1_555
H3A C4A 1_555 1_555
H1P O1A 1_555 1_555
O2K Ce1 1_555 1_555
O3K C1K 1_555 1_555
C1K O2K 1_555 1_555
C2K N1A 1_555 1_555
C3K C4A 1_555 1_555
H2K C3K 1_555 1_555
Mg1B O1B 1_555 1_555
O1B H1B 1_555 1_555
O2B Ce1 1_555 1_555
O3B Mg1B 1_555 1_555
N1B Ce1 1_555 1_555
C1B O2B 1_555 1_555
C2B N1B 1_555 1_555
C3B C2B 1_555 1_555
H2B C3B 1_555 1_555
C4B C3B 1_555 1_555
H3B C4B 1_555 1_555
H1Q O1B 1_555 1_555
O2J Ce1 1_555 1_555
O3J C1J 1_555 1_555
C1J O2J 1_555 1_555
C2J N1B 1_555 1_555
C3J C4B 1_555 1_555
H2J C3J 1_555 1_555
Ce1C O2C 1_555 1_555
O1C Mg1 1_555 1_555
H1C O1C 1_555 1_555
O2C C1C 1_555 1_555
O3C Mg1 1_555 1_555
N1C Ce1C 1_555 1_555
C1C O3C 1_555 1_555
C2C N1C 1_555 1_555
C3C C2C 1_555 1_555
H2C C3C 1_555 1_555
C4C C3C 1_555 1_555
H3C C4C 1_555 1_555
H1L O1C 1_555 1_555
O2F Ce1C 1_555 1_555
O3F C1F 1_555 1_555
C1F O2F 1_555 1_555
C2F N1C 1_555 1_555
C3F C4C 1_555 1_555
H2F C3F 1_555 1_555
O1D Mg1A 1_555 1_555
H1D O1D 1_555 1_555
O2D C1D 1_555 1_555
O3D Mg1A 1_555 1_555
N1D C2D 1_555 1_555
C1D O3D 1_555 1_555
C2D C1D 1_555 1_555
C3D C2D 1_555 1_555
H2D C3D 1_555 1_555
C4D C3D 1_555 1_555
H3D C4D 1_555 1_555
H1M O1D 1_555 1_555
O2H C1H 1_555 1_555
O3H C1H 1_555 1_555
C1H C2H 1_555 1_555
C2H N1D 1_555 1_555
C3H C4D 1_555 1_555
H2H C3H 1_555 1_555
O1E Mg1B 1_555 1_555
H1E O1E 1_555 1_555
O2E C1E 1_555 1_555
O3E Mg1B 1_555 1_555
N1E C2E 1_555 1_555
C1E O3E 1_555 1_555
C2E C1E 1_555 1_555
C3E C2E 1_555 1_555
H2E C3E 1_555 1_555
C4E C3E 1_555 1_555
H3E C4E 1_555 1_555
H1N O1E 1_555 1_555
O2G C1G 1_555 1_555
O3G C1G 1_555 1_555
C1G C2G 1_555 1_555
C2G N1E 1_555 1_555
C3G C4E 1_555 1_555
H2G C3G 1_555 1_555
Ce1C_2 O2E 1_555 1_555
Ce1C_3 O2D 1_555 1_555
Mg1F O3I 1_555 1_555
Mg1F_2 O3F 1_555 1_555
Mg1G O3G 1_555 1_555
Mg1G_2 O3J 1_555 1_555
Mg1H O3H 1_555 1_555
Mg1H_2 O3K 1_555 1_555
O2D_2 Ce1C 1_555 1_555
O2E_2 Ce1C 1_555 1_555
O2G_2 Ce1C 1_555 1_555
O2H_2 Ce1C 1_555 1_555
O3L Mg1 1_555 1_555
O3M Mg1A 1_555 1_555
O3N Mg1B 1_555 1_555
O3O Mg1 1_555 1_555
O3P Mg1A 1_555 1_555
O3Q Mg1B 1_555 1_555
N1D_2 Ce1C 1_555 1_555
N1E_2 Ce1C 1_555 1_555
C1 C2 1_555 1_555
C1I C2I 1_555 1_555
C2I C3I 1_555 1_555
O3A C1A 1_555 1_555
C1A C2A 1_555 1_555
C1K C2K 1_555 1_555
C2K C3K 1_555 1_555
O3B C1B 1_555 1_555
C1B C2B 1_555 1_555
C1J C2J 1_555 1_555
C2J C3J 1_555 1_555
C1C C2C 1_555 1_555
C1F C2F 1_555 1_555
C2F C3F 1_555 1_555
N1D Ce1C_3 1_555 1_555
O2H Ce1C_3 1_555 1_555
C2H C3H 1_555 1_555
N1E Ce1C_2 1_555 1_555
O2G Ce1C_2 1_555 1_555
C2G C3G 1_555 1_555

#END
