
#######################################################################
#
#                 Cambridge Crystallographic Data Centre
#                                CCDC 
#
#######################################################################
#
# If this CIF has been generated from an entry in the Cambridge 
# Structural Database, then it will include bibliographic, chemical, 
# crystal, experimental, refinement or atomic coordinate data resulting 
# from the CCDC's data processing and validation procedures.
#
#######################################################################

data_LIDSAU
_chemical_formula_moiety         '(C26 H20 N2 Ni2 O11)n'
_symmetry_cell_setting           monoclinic
_symmetry_space_group_name_H-M   'C 2/c'
_symmetry_Int_Tables_number      15
_space_group_name_Hall           '-C 2yc'
loop_
_symmetry_equiv_pos_site_id
_symmetry_equiv_pos_as_xyz
1 x,y,z
2 -x,y,1/2-z
3 1/2+x,1/2+y,z
4 1/2-x,1/2+y,1/2-z
5 -x,-y,-z
6 x,-y,1/2+z
7 1/2-x,1/2-y,-z
8 1/2+x,1/2-y,1/2+z
_cell_length_a                   16.846(12)
_cell_length_b                   14.179(10)
_cell_length_c                   18.754(14)
_cell_angle_alpha                90
_cell_angle_beta                 97.701(10)
_cell_angle_gamma                90
_cell_volume                     4439.17
loop_
_atom_site_label
_atom_site_type_symbol
_atom_site_fract_x
_atom_site_fract_y
_atom_site_fract_z
C1 C 0.30800(14) 0.6254(2) -0.02979(15)
H1 H 0.2552 0.6063 -0.0300
C2 C 0.36405(16) 0.6030(2) 0.02657(14)
C3 C 0.44117(14) 0.63083(18) 0.02683(11)
H2 H 0.4796 0.6154 0.0654
Ni1 Ni 0.040174(19) 0.71858(3) 0.167994(19)
C4 C 0.16253(16) 0.5631(2) 0.19682(15)
O1 O 0.12882(11) 0.62831(15) 0.15898(11)
O2 O 0.13927(12) 0.53032(17) 0.25142(12)
O3 O -0.03633(15) 0.6383(2) 0.09055(13)
H3 H -0.0870 0.6417 0.0804
H4 H -0.0199 0.6058 0.0573
O4 O -0.0000 0.63045(18) 0.2500
H5 H -0.0435 0.5904 0.2288
C5 C 0.46225(10) 0.68119(14) -0.02926(9)
H6 H 0.5151 0.7003 -0.0291
N1 N 0.40621(10) 0.70366(12) -0.08562(8)
C6 C 0.32909(11) 0.67578(17) -0.08588(12)
H7 H 0.2907 0.6912 -0.1245
C7 C 0.39798(16) 0.3372(2) 0.20394(15)
O5 O 0.45149(12) 0.31074(16) 0.16773(12)
O6 O 0.38310(11) 0.29900(15) 0.26076(11)
C8 C 0.35057(15) 0.4205(2) 0.17446(15)
C9 C 0.28115(16) 0.4509(2) 0.20202(16)
H8 H 0.2638 0.4194 0.2406
C10 C 0.23881(17) 0.5280(2) 0.17147(16)
C11 C 0.26709(18) 0.5761(2) 0.11581(17)
H9 H 0.2391 0.6287 0.0966
C12 C 0.33606(17) 0.5487(2) 0.08739(16)
C13 C 0.37574(16) 0.4697(2) 0.11698(16)
H10 H 0.4208 0.4485 0.0980
H5A H 0.0435 0.5904 0.2712
C1A C -0.30800(14) 0.6254(2) 0.52979(15)
H1A H -0.2552 0.6063 0.5300
C2A C -0.36405(16) 0.6030(2) 0.47343(14)
C3A C -0.44117(14) 0.63083(18) 0.47317(11)
H2A H -0.4796 0.6154 0.4346
Ni1A Ni -0.040174(19) 0.71858(3) 0.332006(19)
C4A C -0.16253(16) 0.5631(2) 0.30318(15)
O1A O -0.12882(11) 0.62831(15) 0.34102(11)
O2A O -0.13927(12) 0.53032(17) 0.24858(12)
O3A O 0.03633(15) 0.6383(2) 0.40945(13)
H3A H 0.0870 0.6417 0.4196
H4A H 0.0199 0.6058 0.4427
C5A C -0.46225(10) 0.68119(14) 0.52926(9)
H6A H -0.5151 0.7003 0.5291
N1A N -0.40621(10) 0.70366(12) 0.58562(8)
C6A C -0.32909(11) 0.67578(17) 0.58588(12)
H7A H -0.2907 0.6912 0.6245
C7A C -0.39798(16) 0.3372(2) 0.29606(15)
O5A O -0.45149(12) 0.31074(16) 0.33227(12)
O6A O -0.38310(11) 0.29900(15) 0.23924(11)
C8A C -0.35057(15) 0.4205(2) 0.32554(15)
C9A C -0.28115(16) 0.4509(2) 0.29798(16)
H8A H -0.2638 0.4194 0.2594
C10A C -0.23881(17) 0.5280(2) 0.32853(16)
C11A C -0.26709(18) 0.5761(2) 0.38419(17)
H9A H -0.2391 0.6287 0.4034
C12A C -0.33606(17) 0.5487(2) 0.41261(16)
C13A C -0.37574(16) 0.4697(2) 0.38302(16)
H10A H -0.4208 0.4485 0.4020
Ni1B Ni -0.459826(19) 0.21858(3) 0.167994(19)
Ni1B_2 Ni 0.540174(19) 0.21858(3) 0.167994(19)
Ni1C Ni -0.540174(19) 0.21858(3) 0.332006(19)
Ni1C_2 Ni 0.459826(19) 0.21858(3) 0.332006(19)
Ni1F Ni 0.459826(19) 0.78142(3) -0.167994(19)
Ni1G Ni -0.459826(19) 0.78142(3) 0.667994(19)
N1F N 0.09379(10) 0.79634(12) 0.08562(8)
N1G N -0.09379(10) 0.79634(12) 0.41438(8)
O5B O -0.04851(12) 0.81074(16) 0.16773(12)
O5C O 0.04851(12) 0.81074(16) 0.33227(12)
O6B O -0.11690(11) 0.79900(15) 0.26076(11)
O6C O 0.11690(11) 0.79900(15) 0.23924(11)
loop_
_geom_bond_atom_site_label_1
_geom_bond_atom_site_label_2
_geom_bond_site_symmetry_1
_geom_bond_site_symmetry_2
C1 H1 1_555 1_555
C2 C1 1_555 1_555
C3 C2 1_555 1_555
H2 C3 1_555 1_555
Ni1 O1 1_555 1_555
C4 O1 1_555 1_555
O2 C4 1_555 1_555
O3 Ni1 1_555 1_555
H3 O3 1_555 1_555
H4 O3 1_555 1_555
O4 Ni1 1_555 1_555
H5 O4 1_555 1_555
C5 C3 1_555 1_555
H6 C5 1_555 1_555
N1 C5 1_555 1_555
C6 C1 1_555 1_555
H7 C6 1_555 1_555
C7 O5 1_555 1_555
O5 Ni1B_2 1_555 1_555
O6 C7 1_555 1_555
C8 C7 1_555 1_555
C9 C8 1_555 1_555
H8 C9 1_555 1_555
C10 C4 1_555 1_555
C11 C10 1_555 1_555
H9 C11 1_555 1_555
C12 C2 1_555 1_555
C13 C8 1_555 1_555
H10 C13 1_555 1_555
H5A O4 1_555 1_555
C1A H1A 1_555 1_555
C2A C1A 1_555 1_555
C3A C2A 1_555 1_555
H2A C3A 1_555 1_555
Ni1A O4 1_555 1_555
C4A O1A 1_555 1_555
O1A Ni1A 1_555 1_555
O2A C4A 1_555 1_555
O3A Ni1A 1_555 1_555
H3A O3A 1_555 1_555
H4A O3A 1_555 1_555
C5A C3A 1_555 1_555
H6A C5A 1_555 1_555
N1A C5A 1_555 1_555
C6A C1A 1_555 1_555
H7A C6A 1_555 1_555
C7A O5A 1_555 1_555
O5A Ni1C 1_555 1_555
O6A C7A 1_555 1_555
C8A C7A 1_555 1_555
C9A C8A 1_555 1_555
H8A C9A 1_555 1_555
C10A C4A 1_555 1_555
C11A C10A 1_555 1_555
H9A C11A 1_555 1_555
C12A C2A 1_555 1_555
C13A C8A 1_555 1_555
H10A C13A 1_555 1_555
Ni1B O6A 1_555 1_555
Ni1C_2 O6 1_555 1_555
Ni1F N1 1_555 1_555
Ni1G N1A 1_555 1_555
N1F Ni1 1_555 1_555
N1G Ni1A 1_555 1_555
O5B Ni1 1_555 1_555
O5C Ni1A 1_555 1_555
O6B Ni1A 1_555 1_555
O6C Ni1 1_555 1_555
N1 C6 1_555 1_555
C9 C10 1_555 1_555
C11 C12 1_555 1_555
C12 C13 1_555 1_555
N1A C6A 1_555 1_555
C9A C10A 1_555 1_555
C11A C12A 1_555 1_555
C12A C13A 1_555 1_555

#END
