
#######################################################################
#
#                 Cambridge Crystallographic Data Centre
#                                CCDC 
#
#######################################################################
#
# If this CIF has been generated from an entry in the Cambridge 
# Structural Database, then it will include bibliographic, chemical, 
# crystal, experimental, refinement or atomic coordinate data resulting 
# from the CCDC's data processing and validation procedures.
#
#######################################################################

data_LIDSEY
_chemical_formula_moiety         '(C26 H20 N2 Ni2 O11)n'
_symmetry_cell_setting           monoclinic
_symmetry_space_group_name_H-M   'C 2/c'
_symmetry_Int_Tables_number      15
_space_group_name_Hall           '-C 2yc'
loop_
_symmetry_equiv_pos_site_id
_symmetry_equiv_pos_as_xyz
1 x,y,z
2 -x,y,1/2-z
3 1/2+x,1/2+y,z
4 1/2-x,1/2+y,1/2-z
5 -x,-y,-z
6 x,-y,1/2+z
7 1/2-x,1/2-y,-z
8 1/2+x,1/2-y,1/2+z
_cell_length_a                   16.7830(13)
_cell_length_b                   14.1889(10)
_cell_length_c                   18.6834(14)
_cell_angle_alpha                90
_cell_angle_beta                 97.7430(10)
_cell_angle_gamma                90
_cell_volume                     4408.56
loop_
_atom_site_label
_atom_site_type_symbol
_atom_site_fract_x
_atom_site_fract_y
_atom_site_fract_z
Ni1 Ni 0.04002(2) 0.28037(3) 1.16827(2)
O1 O 0.04798(14) -0.18708(17) 0.83249(13)
O2 O 0.11683(13) -0.19994(16) 0.73950(12)
O3 O 0.37186(14) 0.12860(16) 0.84171(13)
O4 O 0.36098(14) 0.03301(18) 0.74711(14)
O5 O -0.03521(17) 0.3596(2) 1.09170(14)
H1 H -0.0372 0.4210 1.0886
H2 H -0.0852 0.3426 1.0790
O6 O 0.0000 0.36600(19) 1.2500
H3 H 0.0365 0.4002 1.2685
N1 N 0.08026(16) 0.20346(18) 1.08463(15)
C1 C 0.0353(4) 0.1754(5) 1.0330(4)
H4 H -0.0192 0.1880 1.0319
C2 C 0.0591(4) 0.1254(5) 0.9747(4)
H5 H 0.0202 0.1079 0.9368
C3 C 0.1351(2) 0.1024(2) 0.97194(18)
C4 C 0.1910(4) 0.1358(5) 1.0358(3)
H6 H 0.2459 0.1241 1.0386
C5 C 0.1612(4) 0.1845(4) 1.0911(3)
H7 H 0.1955 0.2038 1.1317
C6 C 0.1645(2) 0.0493(2) 0.91231(19)
C7 C 0.1243(2) -0.0300(2) 0.88233(19)
H8 H 0.0787 -0.0509 0.9008
C8 C 0.15035(18) -0.0784(2) 0.82603(17)
C9 C 0.21917(18) -0.0476(2) 0.79786(17)
H9 H 0.2367 -0.0793 0.7593
C10 C 0.26072(19) 0.0298(2) 0.82761(18)
C11 C 0.2333(2) 0.0777(2) 0.8846(2)
H10 H 0.2617 0.1298 0.9045
C12 C 0.10142(17) -0.1626(2) 0.79598(17)
C13 C 0.3375(2) 0.0659(2) 0.80257(19)
H3A H -0.0365 0.4002 1.2315
Ni1A Ni -0.04002(2) 0.28037(3) 1.33173(2)
O1A O -0.04798(14) -0.18708(17) 1.66751(13)
O2A O -0.11683(13) -0.19994(16) 1.76050(12)
O3A O -0.37186(14) 0.12860(16) 1.65829(13)
O4A O -0.36098(14) 0.03301(18) 1.75289(14)
O5A O 0.03521(17) 0.3596(2) 1.40830(14)
H1A H 0.0372 0.4210 1.4114
H2A H 0.0852 0.3426 1.4210
N1A N -0.08026(16) 0.20346(18) 1.41537(15)
C1A C -0.0353(4) 0.1754(5) 1.4670(4)
H4A H 0.0192 0.1880 1.4681
C2A C -0.0591(4) 0.1254(5) 1.5253(4)
H5A H -0.0202 0.1079 1.5632
C3A C -0.1351(2) 0.1024(2) 1.52806(18)
C4A C -0.1910(4) 0.1358(5) 1.4642(3)
H6A H -0.2459 0.1241 1.4614
C5A C -0.1612(4) 0.1845(4) 1.4089(3)
H7A H -0.1955 0.2038 1.3683
C6A C -0.1645(2) 0.0493(2) 1.58769(19)
C7A C -0.1243(2) -0.0300(2) 1.61767(19)
H8A H -0.0787 -0.0509 1.5992
C8A C -0.15035(18) -0.0784(2) 1.67397(17)
C9A C -0.21917(18) -0.0476(2) 1.70214(17)
H9A H -0.2367 -0.0793 1.7407
C10A C -0.26072(19) 0.0298(2) 1.67239(18)
C11A C -0.2333(2) 0.0777(2) 1.6154(2)
H10A H -0.2617 0.1298 1.5955
C12A C -0.10142(17) -0.1626(2) 1.70402(17)
C13A C -0.3375(2) 0.0659(2) 1.69743(19)
Ni1D Ni -0.04002(2) -0.28037(3) 0.83173(2)
Ni1D_2 Ni -0.04002(2) -0.28037(3) 1.83173(2)
Ni1E Ni 0.04002(2) -0.28037(3) 0.66827(2)
Ni1E_2 Ni 0.04002(2) -0.28037(3) 1.66827(2)
Ni1F Ni 0.45998(2) 0.21963(3) 0.83173(2)
Ni1G Ni -0.45998(2) 0.21963(3) 1.66827(2)
O1D O -0.04798(14) 0.18708(17) 1.16751(13)
O1E O 0.04798(14) 0.18708(17) 1.33249(13)
O2D O -0.11683(13) 0.19994(16) 1.26050(12)
O2E O 0.11683(13) 0.19994(16) 1.23950(12)
O3F O 0.12814(14) 0.37140(16) 1.15829(13)
O3G O -0.12814(14) 0.37140(16) 1.34171(13)
loop_
_geom_bond_atom_site_label_1
_geom_bond_atom_site_label_2
_geom_bond_site_symmetry_1
_geom_bond_site_symmetry_2
Ni1 O5 1_555 1_555
O1 C12 1_555 1_555
O2 C12 1_555 1_555
O3 C13 1_555 1_555
O4 C13 1_555 1_555
O5 H1 1_555 1_555
H2 O5 1_555 1_555
O6 Ni1 1_555 1_555
H3 O6 1_555 1_555
N1 Ni1 1_555 1_555
C1 N1 1_555 1_555
H4 C1 1_555 1_555
C2 C1 1_555 1_555
H5 C2 1_555 1_555
C3 C2 1_555 1_555
C4 C3 1_555 1_555
H6 C4 1_555 1_555
C5 N1 1_555 1_555
H7 C5 1_555 1_555
C6 C3 1_555 1_555
C7 C6 1_555 1_555
H8 C7 1_555 1_555
C8 C7 1_555 1_555
C9 C8 1_555 1_555
H9 C9 1_555 1_555
C10 C9 1_555 1_555
C11 C6 1_555 1_555
H10 C11 1_555 1_555
C12 C8 1_555 1_555
C13 C10 1_555 1_555
H3A O6 1_555 1_555
Ni1A O6 1_555 1_555
O1A C12A 1_555 1_555
O2A C12A 1_555 1_555
O3A C13A 1_555 1_555
O4A C13A 1_555 1_555
O5A Ni1A 1_555 1_555
H1A O5A 1_555 1_555
H2A O5A 1_555 1_555
N1A Ni1A 1_555 1_555
C1A N1A 1_555 1_555
H4A C1A 1_555 1_555
C2A C1A 1_555 1_555
H5A C2A 1_555 1_555
C3A C2A 1_555 1_555
C4A C3A 1_555 1_555
H6A C4A 1_555 1_555
C5A N1A 1_555 1_555
H7A C5A 1_555 1_555
C6A C3A 1_555 1_555
C7A C6A 1_555 1_555
H8A C7A 1_555 1_555
C8A C7A 1_555 1_555
C9A C8A 1_555 1_555
H9A C9A 1_555 1_555
C10A C9A 1_555 1_555
C11A C6A 1_555 1_555
H10A C11A 1_555 1_555
C12A C8A 1_555 1_555
C13A C10A 1_555 1_555
Ni1D O1 1_555 1_555
Ni1D_2 O2A 1_555 1_555
Ni1E O2 1_555 1_555
Ni1E_2 O1A 1_555 1_555
Ni1F O3 1_555 1_555
Ni1G O3A 1_555 1_555
O1D Ni1 1_555 1_555
O1E Ni1A 1_555 1_555
O2D Ni1A 1_555 1_555
O2E Ni1 1_555 1_555
O3F Ni1 1_555 1_555
O3G Ni1A 1_555 1_555
C4 C5 1_555 1_555
C10 C11 1_555 1_555
C4A C5A 1_555 1_555
C10A C11A 1_555 1_555

#END
