
#######################################################################
#
#                 Cambridge Crystallographic Data Centre
#                                CCDC 
#
#######################################################################
#
# If this CIF has been generated from an entry in the Cambridge 
# Structural Database, then it will include bibliographic, chemical, 
# crystal, experimental, refinement or atomic coordinate data resulting 
# from the CCDC's data processing and validation procedures.
#
#######################################################################

data_NUDLEF
_chemical_formula_moiety         '(C96 H88 Cd4 Fe4 N8 O30)n'
_symmetry_cell_setting           monoclinic
_symmetry_space_group_name_H-M   'C 2/c'
_symmetry_Int_Tables_number      15
_space_group_name_Hall           '-C 2yc'
loop_
_symmetry_equiv_pos_site_id
_symmetry_equiv_pos_as_xyz
1 x,y,z
2 -x,y,1/2-z
3 1/2+x,1/2+y,z
4 1/2-x,1/2+y,1/2-z
5 -x,-y,-z
6 x,-y,1/2+z
7 1/2-x,1/2-y,-z
8 1/2+x,1/2-y,1/2+z
_cell_length_a                   13.1740(5)
_cell_length_b                   32.5480(10)
_cell_length_c                   33.0390(9)
_cell_angle_alpha                90
_cell_angle_beta                 97.479(3)
_cell_angle_gamma                90
_cell_volume                     14046.2
loop_
_atom_site_label
_atom_site_type_symbol
_atom_site_fract_x
_atom_site_fract_y
_atom_site_fract_z
Fe1 Fe 0.36732(11) 0.07045(4) 0.97906(5)
Fe2 Fe 0.63745(11) -0.17743(4) 1.01721(4)
Cd1 Cd 0.5000 -0.10115(3) 0.7500
Cd2 Cd 0.23674(6) -0.13165(3) 0.75002(2)
Cd3 Cd 0.5000 -0.21117(5) 0.7500
C1 C 0.5884(13) 0.0771(13) 1.0150(7)
C2 C 0.6764(7) 0.0805(3) 1.0455(4)
H1 H 0.6737 0.0589 1.0656
H2 H 0.6743 0.1067 1.0593
C3 C 0.7776(9) 0.0770(8) 1.0271(5)
H3 H 0.8171 0.1015 1.0350
H4 H 0.8151 0.0540 1.0404
C4 C 0.7773(10) 0.0722(7) 0.9865(5)
H5 H 0.8322 0.0533 0.9828
H6 H 0.7959 0.0986 0.9758
C5 C 0.6903(8) 0.0586(3) 0.9614(4)
H7 H 0.6980 0.0293 0.9572
H8 H 0.6895 0.0717 0.9350
C6 C 0.5906(12) 0.0652(9) 0.9749(7)
C7 C 0.4717(8) 0.0737(3) 1.0660(4)
H9 H 0.5295 0.0784 1.0848
C8 C 0.4940(7) 0.0300(3) 0.9186(4)
H10 H 0.5566 0.0247 0.9095
C9 C 0.3726(7) 0.0715(2) 1.0810(3)
C10 C 0.3711(8) 0.0802(3) 1.1223(3)
H11 H 0.4319 0.0858 1.1391
C11 C 0.2769(7) 0.0804(3) 1.1386(4)
C12 C 0.1884(8) 0.0671(4) 1.1133(4)
H12 H 0.1272 0.0657 1.1245
C13 C 0.1875(7) 0.0560(3) 1.0733(4)
C14 C 0.2827(7) 0.0601(2) 1.0550(3)
C15 C 0.4048(7) 0.0156(2) 0.8945(3)
C16 C 0.4196(8) -0.0076(3) 0.8588(3)
H13 H 0.4846 -0.0098 0.8508
C17 C 0.3382(9) -0.0265(3) 0.8365(3)
C18 C 0.2402(9) -0.0196(4) 0.8456(4)
H14 H 0.1853 -0.0311 0.8289
C19 C 0.2207(8) 0.0039(4) 0.8787(3)
C20 C 0.3046(8) 0.0218(3) 0.9026(3)
C21 C 0.0923(8) 0.0434(4) 1.0465(4)
H15 H 0.1089 0.0367 1.0198
H16 H 0.0439 0.0656 1.0444
H17 H 0.0632 0.0198 1.0580
C22 C 0.1148(9) 0.0093(5) 0.8888(5)
H18 H 0.1161 0.0265 0.9125
H19 H 0.0868 -0.0170 0.8944
H20 H 0.0730 0.0218 0.8662
C23 C 0.2675(8) 0.0949(4) 1.1792(3)
C24 C 0.3523(10) -0.0537(4) 0.8010(4)
C25 C 0.8249(10) -0.1725(10) 0.9794(6)
C26 C 0.8967(7) -0.1676(3) 0.9462(3)
H21 H 0.8781 -0.1882 0.9253
H22 H 0.8841 -0.1409 0.9335
C27 C 1.0051(10) -0.1712(7) 0.9597(5)
H23 H 1.0316 -0.1923 0.9432
H24 H 1.0365 -0.1455 0.9532
C28 C 1.0399(11) -0.1800(8) 0.9996(5)
H25 H 1.0753 -0.1557 1.0112
H26 H 1.0910 -0.2014 0.9996
C29 C 0.9671(8) -0.1932(3) 1.0288(4)
H27 H 0.9700 -0.2230 1.0308
H28 H 0.9923 -0.1824 1.0555
C30 C 0.8605(11) -0.1815(9) 1.0193(7)
C31 C 0.6742(6) -0.1756(2) 0.9285(3)
H29 H 0.7177 -0.1707 0.9090
C32 C 0.8075(8) -0.2161(3) 1.0747(4)
H30 H 0.8769 -0.2201 1.0833
C33 C 0.5668(6) -0.1786(2) 0.9141(3)
C34 C 0.5325(6) -0.1721(3) 0.8727(3)
H31 H 0.5799 -0.1670 0.8548
C35 C 0.4300(7) -0.1733(3) 0.8580(3)
C36 C 0.3609(8) -0.1847(3) 0.8850(3)
H32 H 0.2922 -0.1878 0.8746
C37 C 0.3898(7) -0.1916(3) 0.9259(3)
C38 C 0.4923(6) -0.1885(2) 0.9418(3)
C39 C 0.7346(9) -0.2300(3) 1.1016(3)
C40 C 0.7748(12) -0.2482(4) 1.1384(4)
H33 H 0.8453 -0.2488 1.1460
C41 C 0.7084(14) -0.2660(4) 1.1644(4)
C42 C 0.6053(12) -0.2602(5) 1.1554(4)
H34 H 0.5631 -0.2706 1.1735
C43 C 0.5603(11) -0.2398(4) 1.1212(3)
C44 C 0.6291(9) -0.2239(3) 1.0946(3)
C45 C 0.3133(8) -0.2036(4) 0.9541(4)
H35 H 0.3481 -0.2072 0.9813
H36 H 0.2807 -0.2289 0.9449
H37 H 0.2627 -0.1824 0.9541
C46 C 0.4521(11) -0.2366(5) 1.1129(4)
H38 H 0.4340 -0.2218 1.0879
H39 H 0.4264 -0.2223 1.1348
H40 H 0.4227 -0.2636 1.1104
C47 C 0.3902(9) -0.1635(4) 0.8166(4)
C48 C 0.7527(18) -0.2898(6) 1.2015(5)
N1 N 0.4835(6) 0.0694(3) 1.0285(3)
N2 N 0.4951(5) 0.0500(2) 0.9527(3)
N3 N 0.7154(6) -0.1790(2) 0.9651(2)
N4 N 0.7822(6) -0.1991(2) 1.0407(3)
O1 O 0.2775(5) 0.05159(19) 1.0171(2)
O2 O 0.2856(5) 0.0430(2) 0.9350(2)
O3 O 0.0817(7) -0.1282(5) 0.7764(4)
O4 O 0.5185(5) -0.19415(18) 0.9811(2)
O5 O 0.4348(18) -0.2607(5) 0.7955(8)
O6 O 0.5875(6) -0.2076(2) 1.0612(2)
O7 O 0.3496(5) 0.1064(2) 1.2027(2)
O8 O 0.1812(6) 0.0980(4) 1.1926(3)
O9 O 0.4439(6) -0.0593(2) 0.7947(2)
O10 O 0.2783(7) -0.0705(4) 0.7820(4)
O11 O 0.4501(5) -0.1569(2) 0.7890(2)
O12 O 0.2978(6) -0.1583(4) 0.8071(3)
O13 O 0.8515(12) -0.2885(6) 1.2105(4)
O14 O 0.6935(14) -0.3095(5) 1.2204(4)
O15 O 0.3598(6) 0.12459(17) 0.9716(2)
Fe1A Fe 0.63268(11) 0.07045(4) 0.52094(5)
Fe2A Fe 0.36255(11) -0.17743(4) 0.48279(4)
Cd2A Cd 0.76326(6) -0.13165(3) 0.74998(2)
C1A C 0.4116(13) 0.0771(13) 0.4850(7)
C2A C 0.3236(7) 0.0805(3) 0.4545(4)
H1A H 0.3263 0.0589 0.4344
H2A H 0.3257 0.1067 0.4407
C3A C 0.2224(9) 0.0770(8) 0.4729(5)
H3A H 0.1829 0.1015 0.4650
H4A H 0.1849 0.0540 0.4596
C4A C 0.2227(10) 0.0722(7) 0.5135(5)
H5A H 0.1678 0.0533 0.5172
H6A H 0.2041 0.0986 0.5242
C5A C 0.3097(8) 0.0586(3) 0.5386(4)
H7A H 0.3020 0.0293 0.5428
H8A H 0.3105 0.0717 0.5650
C6A C 0.4094(12) 0.0652(9) 0.5251(7)
C7A C 0.5283(8) 0.0737(3) 0.4340(4)
H9A H 0.4705 0.0784 0.4152
C8A C 0.5060(7) 0.0300(3) 0.5814(4)
H10A H 0.4434 0.0247 0.5905
C9A C 0.6274(7) 0.0715(2) 0.4190(3)
C10A C 0.6289(8) 0.0802(3) 0.3777(3)
H11A H 0.5681 0.0858 0.3609
C11A C 0.7231(7) 0.0804(3) 0.3614(4)
C12A C 0.8116(8) 0.0671(4) 0.3867(4)
H12A H 0.8728 0.0657 0.3755
C13A C 0.8125(7) 0.0560(3) 0.4267(4)
C14A C 0.7173(7) 0.0601(2) 0.4450(3)
C15A C 0.5952(7) 0.0156(2) 0.6055(3)
C16A C 0.5804(8) -0.0076(3) 0.6412(3)
H13A H 0.5154 -0.0098 0.6492
C17A C 0.6618(9) -0.0265(3) 0.6635(3)
C18A C 0.7598(9) -0.0196(4) 0.6544(4)
H14A H 0.8147 -0.0311 0.6711
C19A C 0.7793(8) 0.0039(4) 0.6213(3)
C20A C 0.6954(8) 0.0218(3) 0.5974(3)
C21A C 0.9077(8) 0.0434(4) 0.4535(4)
H15A H 0.8911 0.0367 0.4802
H16A H 0.9561 0.0656 0.4556
H17A H 0.9368 0.0198 0.4420
C22A C 0.8852(9) 0.0093(5) 0.6112(5)
H18A H 0.8839 0.0265 0.5875
H19A H 0.9132 -0.0170 0.6056
H20A H 0.9270 0.0218 0.6338
C23A C 0.7325(8) 0.0949(4) 0.3208(3)
C24A C 0.6477(10) -0.0537(4) 0.6990(4)
C25A C 0.1751(10) -0.1725(10) 0.5206(6)
C26A C 0.1033(7) -0.1676(3) 0.5538(3)
H21A H 0.1219 -0.1882 0.5747
H22A H 0.1159 -0.1409 0.5665
C27A C -0.0051(10) -0.1712(7) 0.5403(5)
H23A H -0.0316 -0.1923 0.5568
H24A H -0.0365 -0.1455 0.5468
C28A C -0.0399(11) -0.1800(8) 0.5004(5)
H25A H -0.0753 -0.1557 0.4888
H26A H -0.0910 -0.2014 0.5004
C29A C 0.0329(8) -0.1932(3) 0.4712(4)
H27A H 0.0300 -0.2230 0.4692
H28A H 0.0077 -0.1824 0.4445
C30A C 0.1395(11) -0.1815(9) 0.4807(7)
C31A C 0.3258(6) -0.1756(2) 0.5715(3)
H29A H 0.2823 -0.1707 0.5910
C32A C 0.1925(8) -0.2161(3) 0.4253(4)
H30A H 0.1231 -0.2201 0.4167
C33A C 0.4332(6) -0.1786(2) 0.5859(3)
C34A C 0.4675(6) -0.1721(3) 0.6273(3)
H31A H 0.4201 -0.1670 0.6452
C35A C 0.5700(7) -0.1733(3) 0.6420(3)
C36A C 0.6391(8) -0.1847(3) 0.6150(3)
H32A H 0.7078 -0.1878 0.6254
C37A C 0.6102(7) -0.1916(3) 0.5741(3)
C38A C 0.5077(6) -0.1885(2) 0.5582(3)
C39A C 0.2654(9) -0.2300(3) 0.3984(3)
C40A C 0.2252(12) -0.2482(4) 0.3616(4)
H33A H 0.1547 -0.2488 0.3540
C41A C 0.2916(14) -0.2660(4) 0.3356(4)
C42A C 0.3947(12) -0.2602(5) 0.3446(4)
H34A H 0.4369 -0.2706 0.3265
C43A C 0.4397(11) -0.2398(4) 0.3788(3)
C44A C 0.3709(9) -0.2239(3) 0.4054(3)
C45A C 0.6867(8) -0.2036(4) 0.5459(4)
H35A H 0.6519 -0.2072 0.5187
H36A H 0.7193 -0.2289 0.5551
H37A H 0.7373 -0.1824 0.5459
C46A C 0.5479(11) -0.2366(5) 0.3871(4)
H38A H 0.5660 -0.2218 0.4121
H39A H 0.5736 -0.2223 0.3652
H40A H 0.5773 -0.2636 0.3896
C47A C 0.6098(9) -0.1635(4) 0.6834(4)
C48A C 0.2473(18) -0.2898(6) 0.2985(5)
N1A N 0.5165(6) 0.0694(3) 0.4715(3)
N2A N 0.5049(5) 0.0500(2) 0.5473(3)
N3A N 0.2846(6) -0.1790(2) 0.5349(2)
N4A N 0.2178(6) -0.1991(2) 0.4593(3)
O1A O 0.7225(5) 0.05159(19) 0.4829(2)
O2A O 0.7144(5) 0.0430(2) 0.5650(2)
O3A O 0.9183(7) -0.1282(5) 0.7236(4)
O4A O 0.4815(5) -0.19415(18) 0.5189(2)
O5A O 0.5652(18) -0.2607(5) 0.7045(8)
O6A O 0.4125(6) -0.2076(2) 0.4388(2)
O7A O 0.6504(5) 0.1064(2) 0.2973(2)
O8A O 0.8188(6) 0.0980(4) 0.3074(3)
O9A O 0.5561(6) -0.0593(2) 0.7053(2)
O10A O 0.7217(7) -0.0705(4) 0.7180(4)
O11A O 0.5499(5) -0.1569(2) 0.7110(2)
O12A O 0.7022(6) -0.1583(4) 0.6929(3)
O13A O 0.1485(12) -0.2885(6) 0.2895(4)
O14A O 0.3065(14) -0.3095(5) 0.2796(4)
O15A O 0.6402(6) 0.12459(17) 0.5284(2)
Fe2D Fe 0.36255(11) 0.17743(4) 0.98279(4)
Fe2E Fe 0.63745(11) 0.17743(4) 0.51721(4)
Cd1D Cd 0.5000 0.10115(3) 0.2500
Cd1D_2 Cd 0.5000 0.10115(3) 1.2500
Cd2D Cd 0.76326(6) 0.13165(3) 0.24998(2)
Cd2E Cd 0.23674(6) 0.13165(3) 1.25002(2)
Cd2F Cd 0.26326(6) -0.36835(3) 0.24998(2)
Cd2G Cd 0.73674(6) -0.36835(3) 1.25002(2)
Cd3F Cd 0.0000 -0.28883(5) 0.2500
Cd3F_2 Cd 1.0000 -0.28883(5) 1.2500
O7D O 0.6504(5) -0.1064(2) 0.7973(2)
O7E O 0.3496(5) -0.1064(2) 0.7027(2)
O8D O 0.8188(6) -0.0980(4) 0.8074(3)
O8E O 0.1812(6) -0.0980(4) 0.6926(3)
O13F O 0.6485(12) -0.2115(6) 0.7895(4)
O13G O 0.3515(12) -0.2115(6) 0.7105(4)
O14F O 0.8065(14) -0.1905(5) 0.7796(4)
O14G O 0.1935(14) -0.1905(5) 0.7204(4)
O15D O 0.6402(6) -0.12459(17) 1.0284(2)
O15E O 0.3598(6) -0.12459(17) 0.4716(2)
loop_
_geom_bond_atom_site_label_1
_geom_bond_atom_site_label_2
_geom_bond_site_symmetry_1
_geom_bond_site_symmetry_2
Fe1 N1 1_555 1_555
Fe2 N3 1_555 1_555
Cd1 O9 1_555 1_555
Cd2 O3 1_555 1_555
Cd3 O5 1_555 1_555
C1 C2 1_555 1_555
C2 H1 1_555 1_555
H2 C2 1_555 1_555
C3 C2 1_555 1_555
H3 C3 1_555 1_555
H4 C3 1_555 1_555
C4 C3 1_555 1_555
H5 C4 1_555 1_555
H6 C4 1_555 1_555
C5 C4 1_555 1_555
H7 C5 1_555 1_555
H8 C5 1_555 1_555
C6 C1 1_555 1_555
C7 H9 1_555 1_555
C8 H10 1_555 1_555
C9 C7 1_555 1_555
C10 C9 1_555 1_555
H11 C10 1_555 1_555
C11 C10 1_555 1_555
C12 C11 1_555 1_555
H12 C12 1_555 1_555
C13 C12 1_555 1_555
C14 C9 1_555 1_555
C15 C8 1_555 1_555
C16 C15 1_555 1_555
H13 C16 1_555 1_555
C17 C16 1_555 1_555
C18 C17 1_555 1_555
H14 C18 1_555 1_555
C19 C18 1_555 1_555
C20 C15 1_555 1_555
C21 C13 1_555 1_555
H15 C21 1_555 1_555
H16 C21 1_555 1_555
H17 C21 1_555 1_555
C22 C19 1_555 1_555
H18 C22 1_555 1_555
H19 C22 1_555 1_555
H20 C22 1_555 1_555
C23 C11 1_555 1_555
C24 C17 1_555 1_555
C25 C26 1_555 1_555
C26 H21 1_555 1_555
H22 C26 1_555 1_555
C27 C26 1_555 1_555
H23 C27 1_555 1_555
H24 C27 1_555 1_555
C28 C27 1_555 1_555
H25 C28 1_555 1_555
H26 C28 1_555 1_555
C29 C28 1_555 1_555
H27 C29 1_555 1_555
H28 C29 1_555 1_555
C30 C25 1_555 1_555
C31 H29 1_555 1_555
C32 H30 1_555 1_555
C33 C31 1_555 1_555
C34 C33 1_555 1_555
H31 C34 1_555 1_555
C35 C34 1_555 1_555
C36 C35 1_555 1_555
H32 C36 1_555 1_555
C37 C36 1_555 1_555
C38 C33 1_555 1_555
C39 C32 1_555 1_555
C40 C39 1_555 1_555
H33 C40 1_555 1_555
C41 C40 1_555 1_555
C42 C41 1_555 1_555
H34 C42 1_555 1_555
C43 C42 1_555 1_555
C44 C39 1_555 1_555
C45 C37 1_555 1_555
H35 C45 1_555 1_555
H36 C45 1_555 1_555
H37 C45 1_555 1_555
C46 C43 1_555 1_555
H38 C46 1_555 1_555
H39 C46 1_555 1_555
H40 C46 1_555 1_555
C47 C35 1_555 1_555
C48 C41 1_555 1_555
N1 C1 1_555 1_555
N2 Fe1 1_555 1_555
N3 C25 1_555 1_555
N4 Fe2 1_555 1_555
O1 Fe1 1_555 1_555
O2 Fe1 1_555 1_555
O4 Fe2 1_555 1_555
O6 Fe2 1_555 1_555
O7 C23 1_555 1_555
O8 C23 1_555 1_555
O9 C24 1_555 1_555
O10 Cd2 1_555 1_555
O11 Cd1 1_555 1_555
O12 Cd2 1_555 1_555
O13 C48 1_555 1_555
O14 C48 1_555 1_555
O15 Fe1 1_555 1_555
Fe1A N1A 1_555 1_555
Fe2A N3A 1_555 1_555
Cd2A O3A 1_555 1_555
C1A C2A 1_555 1_555
C2A H1A 1_555 1_555
H2A C2A 1_555 1_555
C3A C2A 1_555 1_555
H3A C3A 1_555 1_555
H4A C3A 1_555 1_555
C4A C3A 1_555 1_555
H5A C4A 1_555 1_555
H6A C4A 1_555 1_555
C5A C4A 1_555 1_555
H7A C5A 1_555 1_555
H8A C5A 1_555 1_555
C6A C1A 1_555 1_555
C7A H9A 1_555 1_555
C8A H10A 1_555 1_555
C9A C7A 1_555 1_555
C10A C9A 1_555 1_555
H11A C10A 1_555 1_555
C11A C10A 1_555 1_555
C12A C11A 1_555 1_555
H12A C12A 1_555 1_555
C13A C12A 1_555 1_555
C14A C9A 1_555 1_555
C15A C8A 1_555 1_555
C16A C15A 1_555 1_555
H13A C16A 1_555 1_555
C17A C16A 1_555 1_555
C18A C17A 1_555 1_555
H14A C18A 1_555 1_555
C19A C18A 1_555 1_555
C20A C15A 1_555 1_555
C21A C13A 1_555 1_555
H15A C21A 1_555 1_555
H16A C21A 1_555 1_555
H17A C21A 1_555 1_555
C22A C19A 1_555 1_555
H18A C22A 1_555 1_555
H19A C22A 1_555 1_555
H20A C22A 1_555 1_555
C23A C11A 1_555 1_555
C24A C17A 1_555 1_555
C25A C26A 1_555 1_555
C26A H21A 1_555 1_555
H22A C26A 1_555 1_555
C27A C26A 1_555 1_555
H23A C27A 1_555 1_555
H24A C27A 1_555 1_555
C28A C27A 1_555 1_555
H25A C28A 1_555 1_555
H26A C28A 1_555 1_555
C29A C28A 1_555 1_555
H27A C29A 1_555 1_555
H28A C29A 1_555 1_555
C30A C25A 1_555 1_555
C31A H29A 1_555 1_555
C32A H30A 1_555 1_555
C33A C31A 1_555 1_555
C34A C33A 1_555 1_555
H31A C34A 1_555 1_555
C35A C34A 1_555 1_555
C36A C35A 1_555 1_555
H32A C36A 1_555 1_555
C37A C36A 1_555 1_555
C38A C33A 1_555 1_555
C39A C32A 1_555 1_555
C40A C39A 1_555 1_555
H33A C40A 1_555 1_555
C41A C40A 1_555 1_555
C42A C41A 1_555 1_555
H34A C42A 1_555 1_555
C43A C42A 1_555 1_555
C44A C39A 1_555 1_555
C45A C37A 1_555 1_555
H35A C45A 1_555 1_555
H36A C45A 1_555 1_555
H37A C45A 1_555 1_555
C46A C43A 1_555 1_555
H38A C46A 1_555 1_555
H39A C46A 1_555 1_555
H40A C46A 1_555 1_555
C47A C35A 1_555 1_555
C48A C41A 1_555 1_555
N1A C1A 1_555 1_555
N2A Fe1A 1_555 1_555
N3A C25A 1_555 1_555
N4A Fe2A 1_555 1_555
O1A Fe1A 1_555 1_555
O2A Fe1A 1_555 1_555
O4A Fe2A 1_555 1_555
O5A Cd3 1_555 1_555
O6A Fe2A 1_555 1_555
O7A C23A 1_555 1_555
O8A C23A 1_555 1_555
O9A Cd1 1_555 1_555
O10A Cd2A 1_555 1_555
O11A Cd1 1_555 1_555
O12A Cd2A 1_555 1_555
O13A C48A 1_555 1_555
O14A C48A 1_555 1_555
O15A Fe1A 1_555 1_555
Fe2D O15 1_555 1_555
Fe2E O15A 1_555 1_555
Cd1D O7A 1_555 1_555
Cd1D_2 O7 1_555 1_555
Cd2D O7A 1_555 1_555
Cd2E O7 1_555 1_555
Cd2F O14A 1_555 1_555
Cd2G O14 1_555 1_555
Cd3F O13A 1_555 1_555
Cd3F_2 O13 1_555 1_555
O7D Cd1 1_555 1_555
O7E Cd1 1_555 1_555
O8D Cd2A 1_555 1_555
O8E Cd2 1_555 1_555
O13F Cd3 1_555 1_555
O13G Cd3 1_555 1_555
O14F Cd2A 1_555 1_555
O14G Cd2 1_555 1_555
O15D Fe2 1_555 1_555
O15E Fe2A 1_555 1_555
Cd2 O7E 1_555 1_555
Cd3 O11 1_555 1_555
Cd3 O11A 1_555 1_555
C5 C6 1_555 1_555
C6 N2 1_555 1_555
C7 N1 1_555 1_555
C8 N2 1_555 1_555
C13 C14 1_555 1_555
C14 O1 1_555 1_555
C19 C20 1_555 1_555
C20 O2 1_555 1_555
C24 O10 1_555 1_555
C29 C30 1_555 1_555
C30 N4 1_555 1_555
C31 N3 1_555 1_555
C32 N4 1_555 1_555
C37 C38 1_555 1_555
C38 O4 1_555 1_555
C43 C44 1_555 1_555
C44 O6 1_555 1_555
C47 O11 1_555 1_555
C47 O12 1_555 1_555
O8 Cd2E 1_555 1_555
Cd2A O7D 1_555 1_555
C5A C6A 1_555 1_555
C6A N2A 1_555 1_555
C7A N1A 1_555 1_555
C8A N2A 1_555 1_555
C13A C14A 1_555 1_555
C14A O1A 1_555 1_555
C19A C20A 1_555 1_555
C20A O2A 1_555 1_555
C24A O9A 1_555 1_555
C24A O10A 1_555 1_555
C29A C30A 1_555 1_555
C30A N4A 1_555 1_555
C31A N3A 1_555 1_555
C32A N4A 1_555 1_555
C37A C38A 1_555 1_555
C38A O4A 1_555 1_555
C43A C44A 1_555 1_555
C44A O6A 1_555 1_555
C47A O11A 1_555 1_555
C47A O12A 1_555 1_555
O8A Cd2D 1_555 1_555

#END
