
#######################################################################
#
#                 Cambridge Crystallographic Data Centre
#                                CCDC 
#
#######################################################################
#
# If this CIF has been generated from an entry in the Cambridge 
# Structural Database, then it will include bibliographic, chemical, 
# crystal, experimental, refinement or atomic coordinate data resulting 
# from the CCDC's data processing and validation procedures.
#
#######################################################################

data_NUDLAB
_chemical_formula_moiety         '(C48 H44 Fe2 N4 O15 Zn2)n'
_symmetry_cell_setting           orthorhombic
_symmetry_space_group_name_H-M   'P n n a'
_symmetry_Int_Tables_number      52
_space_group_name_Hall           '-P 2a 2bc'
loop_
_symmetry_equiv_pos_site_id
_symmetry_equiv_pos_as_xyz
1 x,y,z
2 1/2-x,-y,z
3 x,1/2-y,1/2-z
4 1/2-x,1/2+y,1/2-z
5 -x,-y,-z
6 1/2+x,y,-z
7 -x,1/2+y,1/2+z
8 1/2+x,1/2-y,1/2+z
_cell_length_a                   16.4980(5)
_cell_length_b                   13.1090(5)
_cell_length_c                   29.3810(8)
_cell_angle_alpha                90
_cell_angle_beta                 90
_cell_angle_gamma                90
_cell_volume                     6354.3
loop_
_atom_site_label
_atom_site_type_symbol
_atom_site_fract_x
_atom_site_fract_y
_atom_site_fract_z
Fe1 Fe -0.15049(4) 0.45793(6) 0.55912(2)
Zn1 Zn 0.2500 0.5000 0.80043(2)
Zn2 Zn 0.16108(6) 0.7500 0.7500
C1 C -0.0569(7) 0.6489(8) 0.5289(4)
C2 C -0.0488(4) 0.7649(4) 0.5424(2)
H1 H -0.0919 0.7828 0.5634
H2 H 0.0025 0.7756 0.5578
C3 C -0.0530(7) 0.8307(6) 0.5029(2)
H3 H -0.0867 0.8884 0.5113
H4 H 0.0011 0.8572 0.4979
C4 C -0.0814(6) 0.7950(6) 0.4605(2)
H5 H -0.0386 0.8079 0.4386
H6 H -0.1264 0.8386 0.4520
C5 C -0.1080(6) 0.6906(5) 0.4533(2)
H7 H -0.0853 0.6654 0.4250
H8 H -0.1666 0.6891 0.4506
C6 C -0.0805(8) 0.6173(7) 0.4942(3)
C7 C -0.0286(3) 0.5977(4) 0.60665(17)
H9 H -0.0032 0.6608 0.6092
C8 C -0.1440(3) 0.4741(4) 0.45577(16)
H10 H -0.1409 0.5132 0.4294
C9 C -0.0131(3) 0.5243(4) 0.64151(16)
C10 C 0.0429(3) 0.5503(4) 0.67554(16)
H11 H 0.0640 0.6161 0.6763
C11 C 0.0670(3) 0.4811(5) 0.70749(17)
C12 C 0.0345(4) 0.3838(6) 0.7059(2)
H12 H 0.0507 0.3369 0.7278
C13 C -0.0204(5) 0.3533(5) 0.6737(2)
C14 C -0.0459(3) 0.4246(4) 0.64084(18)
C15 C -0.1634(3) 0.3683(4) 0.45047(15)
C16 C -0.1731(3) 0.3304(4) 0.40584(16)
H13 H -0.1717 0.3753 0.3814
C17 C -0.1847(3) 0.2282(4) 0.39800(16)
C18 C -0.1882(4) 0.1615(4) 0.43447(17)
H14 H -0.1974 0.0927 0.4288
C19 C -0.1785(3) 0.1936(4) 0.47919(16)
C20 C -0.1666(3) 0.2986(4) 0.48728(15)
C21 C -0.0539(7) 0.2472(7) 0.6712(4)
H15 H -0.0305 0.2122 0.6457
H16 H -0.1117 0.2501 0.6676
H17 H -0.0410 0.2112 0.6987
C22 C -0.1806(4) 0.1213(5) 0.51850(18)
H18 H -0.1734 0.1585 0.5464
H19 H -0.1379 0.0721 0.5153
H20 H -0.2320 0.0867 0.5191
C23 C 0.1313(3) 0.5062(5) 0.74130(17)
C24 C -0.1905(4) 0.1873(5) 0.35011(17)
N1 N -0.0752(3) 0.5832(3) 0.57166(15)
N2 N -0.1308(3) 0.5195(3) 0.49341(13)
O1 O -0.0985(2) 0.3949(3) 0.61007(13)
O2 O -0.1571(2) 0.3275(3) 0.52968(11)
O3 O 0.0341(4) 0.7500 0.7500
O4 O 0.1641(2) 0.5903(4) 0.74195(13)
O5 O 0.2744(7) 0.7500 0.7500
O6 O 0.1544(2) 0.4379(4) 0.76882(13)
O7 O -0.1596(3) 0.2392(4) 0.31960(14)
O8 O -0.2210(3) 0.1001(3) 0.34662(11)
O9 O -0.2500 0.5000 0.57327(16)
Fe1A Fe -0.34951(4) 0.54207(6) 0.55912(2)
C1A C -0.4431(7) 0.3511(8) 0.5289(4)
C2A C -0.4512(4) 0.2351(4) 0.5424(2)
H1A H -0.4081 0.2172 0.5634
H2A H -0.5025 0.2244 0.5578
C3A C -0.4470(7) 0.1693(6) 0.5029(2)
H3A H -0.4133 0.1116 0.5113
H4A H -0.5011 0.1428 0.4979
C4A C -0.4186(6) 0.2050(6) 0.4605(2)
H5A H -0.4614 0.1921 0.4386
H6A H -0.3736 0.1614 0.4520
C5A C -0.3920(6) 0.3094(5) 0.4533(2)
H7A H -0.4147 0.3346 0.4250
H8A H -0.3334 0.3109 0.4506
C6A C -0.4195(8) 0.3827(7) 0.4942(3)
C7A C -0.4714(3) 0.4023(4) 0.60665(17)
H9A H -0.4968 0.3392 0.6092
C8A C -0.3560(3) 0.5259(4) 0.45577(16)
H10A H -0.3591 0.4868 0.4294
C9A C -0.4869(3) 0.4757(4) 0.64151(16)
C10A C -0.5429(3) 0.4497(4) 0.67554(16)
H11A H -0.5640 0.3839 0.6763
C11A C -0.5670(3) 0.5189(5) 0.70749(17)
C12A C -0.5345(4) 0.6162(6) 0.7059(2)
H12A H -0.5507 0.6631 0.7278
C13A C -0.4796(5) 0.6467(5) 0.6737(2)
C14A C -0.4541(3) 0.5754(4) 0.64084(18)
C15A C -0.3366(3) 0.6317(4) 0.45047(15)
C16A C -0.3269(3) 0.6696(4) 0.40584(16)
H13A H -0.3283 0.6247 0.3814
C17A C -0.3153(3) 0.7718(4) 0.39800(16)
C18A C -0.3118(4) 0.8385(4) 0.43447(17)
H14A H -0.3026 0.9073 0.4288
C19A C -0.3215(3) 0.8064(4) 0.47919(16)
C20A C -0.3334(3) 0.7014(4) 0.48728(15)
C21A C -0.4461(7) 0.7528(7) 0.6712(4)
H15A H -0.4695 0.7878 0.6457
H16A H -0.3883 0.7499 0.6676
H17A H -0.4590 0.7888 0.6987
C22A C -0.3194(4) 0.8787(5) 0.51850(18)
H18A H -0.3266 0.8415 0.5464
H19A H -0.3621 0.9279 0.5153
H20A H -0.2680 0.9133 0.5191
C23A C -0.6313(3) 0.4938(5) 0.74130(17)
C24A C -0.3095(4) 0.8127(5) 0.35011(17)
N1A N -0.4248(3) 0.4168(3) 0.57166(15)
N2A N -0.3692(3) 0.4805(3) 0.49341(13)
O1A O -0.4015(2) 0.6051(3) 0.61007(13)
O2A O -0.3429(2) 0.6725(3) 0.52968(11)
O4A O -0.6641(2) 0.4097(4) 0.74195(13)
O6A O -0.6544(2) 0.5621(4) 0.76882(13)
O7A O -0.3404(3) 0.7608(4) 0.31960(14)
O8A O -0.2790(3) 0.8999(3) 0.34662(11)
Zn1_2 Zn -0.7500 0.5000 0.80043(2)
Zn1F Zn -0.2500 0.0000 0.30043(2)
Zn1F_2 Zn -0.2500 1.0000 0.30043(2)
Zn2A Zn -0.66108(6) 0.2500 0.7500
Zn2D Zn -0.16108(6) 0.2500 0.2500
Zn2E Zn -0.33892(6) 0.7500 0.2500
O4A_2 O 0.3359(2) 0.4097(4) 0.74195(13)
O4B O 0.1641(2) 0.9097(4) 0.75805(13)
O6A_2 O 0.3456(2) 0.5621(4) 0.76882(13)
O7D O 0.1596(3) 0.7608(4) 0.68040(14)
O7F O 0.1596(3) 0.7392(4) 0.81960(14)
O8F O 0.2210(3) 0.6001(3) 0.84662(11)
O8G O 0.2790(3) 0.3999(3) 0.84662(11)
loop_
_geom_bond_atom_site_label_1
_geom_bond_atom_site_label_2
_geom_bond_site_symmetry_1
_geom_bond_site_symmetry_2
Fe1 N1 1_555 1_555
Zn1 O4 1_555 1_555
Zn2 O3 1_555 1_555
C1 C2 1_555 1_555
C2 H1 1_555 1_555
H2 C2 1_555 1_555
C3 C2 1_555 1_555
H3 C3 1_555 1_555
H4 C3 1_555 1_555
C4 C3 1_555 1_555
H5 C4 1_555 1_555
H6 C4 1_555 1_555
C5 C4 1_555 1_555
H7 C5 1_555 1_555
H8 C5 1_555 1_555
C6 C1 1_555 1_555
C7 H9 1_555 1_555
C8 H10 1_555 1_555
C9 C7 1_555 1_555
C10 C9 1_555 1_555
H11 C10 1_555 1_555
C11 C10 1_555 1_555
C12 C11 1_555 1_555
H12 C12 1_555 1_555
C13 C12 1_555 1_555
C14 C9 1_555 1_555
C15 C8 1_555 1_555
C16 C15 1_555 1_555
H13 C16 1_555 1_555
C17 C16 1_555 1_555
C18 C17 1_555 1_555
H14 C18 1_555 1_555
C19 C18 1_555 1_555
C20 C15 1_555 1_555
C21 C13 1_555 1_555
H15 C21 1_555 1_555
H16 C21 1_555 1_555
H17 C21 1_555 1_555
C22 C19 1_555 1_555
H18 C22 1_555 1_555
H19 C22 1_555 1_555
H20 C22 1_555 1_555
C23 C11 1_555 1_555
C24 C17 1_555 1_555
N1 C1 1_555 1_555
N2 Fe1 1_555 1_555
O1 Fe1 1_555 1_555
O2 Fe1 1_555 1_555
O4 Zn2 1_555 1_555
O5 Zn2 1_555 1_555
O6 Zn1 1_555 1_555
O7 C24 1_555 1_555
O8 C24 1_555 1_555
O9 Fe1 1_555 1_555
Fe1A O9 1_555 1_555
C1A C2A 1_555 1_555
C2A H1A 1_555 1_555
H2A C2A 1_555 1_555
C3A C2A 1_555 1_555
H3A C3A 1_555 1_555
H4A C3A 1_555 1_555
C4A C3A 1_555 1_555
H5A C4A 1_555 1_555
H6A C4A 1_555 1_555
C5A C4A 1_555 1_555
H7A C5A 1_555 1_555
H8A C5A 1_555 1_555
C6A C1A 1_555 1_555
C7A H9A 1_555 1_555
C8A H10A 1_555 1_555
C9A C7A 1_555 1_555
C10A C9A 1_555 1_555
H11A C10A 1_555 1_555
C11A C10A 1_555 1_555
C12A C11A 1_555 1_555
H12A C12A 1_555 1_555
C13A C12A 1_555 1_555
C14A C9A 1_555 1_555
C15A C8A 1_555 1_555
C16A C15A 1_555 1_555
H13A C16A 1_555 1_555
C17A C16A 1_555 1_555
C18A C17A 1_555 1_555
H14A C18A 1_555 1_555
C19A C18A 1_555 1_555
C20A C15A 1_555 1_555
C21A C13A 1_555 1_555
H15A C21A 1_555 1_555
H16A C21A 1_555 1_555
H17A C21A 1_555 1_555
C22A C19A 1_555 1_555
H18A C22A 1_555 1_555
H19A C22A 1_555 1_555
H20A C22A 1_555 1_555
C23A C11A 1_555 1_555
C24A C17A 1_555 1_555
N1A Fe1A 1_555 1_555
N2A Fe1A 1_555 1_555
O1A Fe1A 1_555 1_555
O2A Fe1A 1_555 1_555
O4A C23A 1_555 1_555
O6A C23A 1_555 1_555
O7A C24A 1_555 1_555
O8A C24A 1_555 1_555
Zn1_2 O4A 1_555 1_555
Zn1F O8 1_555 1_555
Zn1F_2 O8A 1_555 1_555
Zn2A O4A 1_555 1_555
Zn2D O7 1_555 1_555
Zn2E O7A 1_555 1_555
O4A_2 Zn1 1_555 1_555
O4B Zn2 1_555 1_555
O6A_2 Zn1 1_555 1_555
O7D Zn2 1_555 1_555
O7F Zn2 1_555 1_555
O8F Zn1 1_555 1_555
O8G Zn1 1_555 1_555
C5 C6 1_555 1_555
C6 N2 1_555 1_555
C7 N1 1_555 1_555
C8 N2 1_555 1_555
C13 C14 1_555 1_555
C14 O1 1_555 1_555
C19 C20 1_555 1_555
C20 O2 1_555 1_555
C23 O4 1_555 1_555
C23 O6 1_555 1_555
C1A N1A 1_555 1_555
C5A C6A 1_555 1_555
C6A N2A 1_555 1_555
C7A N1A 1_555 1_555
C8A N2A 1_555 1_555
C13A C14A 1_555 1_555
C14A O1A 1_555 1_555
C19A C20A 1_555 1_555
C20A O2A 1_555 1_555
O6A Zn1_2 1_555 1_555

#END
