
#######################################################################
#
#                 Cambridge Crystallographic Data Centre
#                                CCDC 
#
#######################################################################
#
# If this CIF has been generated from an entry in the Cambridge 
# Structural Database, then it will include bibliographic, chemical, 
# crystal, experimental, refinement or atomic coordinate data resulting 
# from the CCDC's data processing and validation procedures.
#
#######################################################################

data_EMITUQ
_chemical_formula_moiety         '(C38 H20 N2 O12 S2 Zn2)n'
_symmetry_cell_setting           monoclinic
_symmetry_space_group_name_H-M   'P 21/c'
_symmetry_Int_Tables_number      14
_space_group_name_Hall           '-P 2ybc'
loop_
_symmetry_equiv_pos_site_id
_symmetry_equiv_pos_as_xyz
1 x,y,z
2 -x,1/2+y,1/2-z
3 -x,-y,-z
4 x,1/2-y,1/2+z
_cell_length_a                   13.9610(7)
_cell_length_b                   22.649(2)
_cell_length_c                   19.601(3)
_cell_angle_alpha                90
_cell_angle_beta                 101.374(9)
_cell_angle_gamma                90
_cell_volume                     6076.17
loop_
_atom_site_label
_atom_site_type_symbol
_atom_site_fract_x
_atom_site_fract_y
_atom_site_fract_z
Zn1 Zn 0.33675(6) 0.00971(5) 0.66495(5)
Zn2 Zn 0.12227(6) -0.00913(5) 0.63691(5)
S1 S 0.35659(16) 0.23120(10) 0.40362(14)
S2 S 0.10620(19) -0.26281(14) 0.39363(17)
O1 O 0.3297(3) -0.4593(2) 0.2489(3)
O2 O 0.1419(3) -0.0779(2) 0.5744(3)
O3 O 0.2882(3) 0.0562(2) 0.5768(3)
O4 O 0.1689(4) -0.4393(2) 0.2192(3)
O5 O 0.1242(3) 0.0469(2) 0.5586(2)
O6 O 0.3058(3) -0.0658(2) 0.6074(3)
N1 N -0.0223(4) -0.0083(3) 0.6393(3)
O7 O 0.3230(3) 0.4175(2) 0.2206(3)
C1 C 0.2003(6) 0.0691(3) 0.5450(4)
C2 C -0.3214(5) -0.0023(4) 0.6512(4)
C3 C 0.1714(6) 0.2072(3) 0.3916(4)
C4 C 0.2634(5) 0.1870(3) 0.4282(4)
C5 C 0.1755(5) 0.2558(3) 0.3476(4)
C6 C -0.2171(4) -0.0039(3) 0.6449(4)
C7 C 0.2651(6) -0.3847(3) 0.3135(4)
C8 C -0.0560(5) -0.0406(3) 0.6867(4)
H1 H -0.0131 -0.0651 0.7163
O8 O 0.1613(4) 0.4374(2) 0.2006(3)
C9 C 0.2886(6) -0.2930(4) 0.4091(5)
C10 C 0.2730(6) 0.2747(3) 0.3477(4)
C11 C 0.2934(6) 0.3237(4) 0.3068(4)
H2 H 0.3575 0.3351 0.3071
O9 O 0.0421(5) -0.2980(3) 0.4314(4)
C12 C 0.2168(5) 0.3534(3) 0.2672(4)
C13 C 0.0877(5) 0.1797(3) 0.4073(4)
H3 H 0.0255 0.1922 0.3860
C14 C 0.2531(6) -0.4308(3) 0.2578(5)
C15 C 0.1970(6) -0.3102(4) 0.3721(5)
C16 C -0.4653(6) -0.0410(4) 0.6791(4)
H4 H -0.4957 -0.0737 0.6943
C17 C 0.1909(5) -0.2218(4) 0.4532(5)
C18 C -0.1543(5) -0.0385(3) 0.6928(4)
H5 H -0.1767 -0.0593 0.7274
C19 C 0.1000(5) 0.1319(3) 0.4567(4)
H6 H 0.0452 0.1125 0.4659
C20 C 0.2327(5) -0.0931(3) 0.5758(4)
C21 C 0.3576(6) -0.3709(4) 0.3526(4)
H7 H 0.4117 -0.3928 0.3467
C22 C 0.3686(6) -0.3258(4) 0.3990(4)
H8 H 0.4304 -0.3168 0.4243
C23 C 0.1922(5) 0.1144(3) 0.4907(4)
C24 C 0.2491(5) -0.1448(3) 0.5322(4)
C25 C 0.2880(6) -0.2419(4) 0.4565(5)
C26 C 0.1193(5) 0.3339(4) 0.2649(4)
H9 H 0.0682 0.3539 0.2366
C27 C 0.3431(5) -0.1650(4) 0.5349(4)
H10 H 0.3949 -0.1450 0.5624
C28 C 0.1723(5) -0.1748(3) 0.4934(4)
H11 H 0.1084 -0.1637 0.4940
C29 C -0.3663(5) -0.0456(4) 0.6755(5)
H12 H -0.3322 -0.0800 0.6907
N2 N -0.5180(4) 0.0073(3) 0.6619(3)
C30 C 0.0985(6) 0.2872(4) 0.3027(5)
H13 H 0.0339 0.2754 0.2996
C31 C 0.1853(6) -0.3526(4) 0.3232(4)
H14 H 0.1239 -0.3601 0.2963
C32 C 0.3622(6) -0.2136(4) 0.4979(4)
H15 H 0.4261 -0.2269 0.5014
C33 C 0.2359(6) 0.4057(3) 0.2261(4)
C34 C 0.2740(5) 0.1422(3) 0.4758(4)
H16 H 0.3361 0.1303 0.4981
C35 C -0.0857(5) 0.0235(3) 0.5942(4)
H17 H -0.0626 0.0443 0.5598
C36 C -0.3722(6) 0.0498(4) 0.6351(5)
H18 H -0.3413 0.0827 0.6211
C37 C -0.4707(7) 0.0524(4) 0.6401(5)
H19 H -0.5048 0.0873 0.6275
C38 C -0.1843(5) 0.0273(3) 0.5961(4)
H20 H -0.2263 0.0506 0.5645
O10 O 0.4156(4) 0.1975(2) 0.3672(3)
O11 O 0.4021(4) 0.2660(2) 0.4637(3)
O12 O 0.0640(5) -0.2268(3) 0.3336(4)
Zn1_2 Zn -0.66325(6) 0.00971(5) 0.66495(5)
Zn1C Zn 0.33675(6) -0.50971(5) 0.16495(5)
Zn1C_2 Zn 0.33675(6) 0.49029(5) 0.16495(5)
Zn2C Zn 0.12227(6) -0.49087(5) 0.13691(5)
Zn2C_2 Zn 0.12227(6) 0.50913(5) 0.13691(5)
O1C O 0.3297(3) -0.0407(2) 0.7489(3)
O4C O 0.1689(4) -0.0607(2) 0.7192(3)
O7C O 0.3230(3) 0.0825(2) 0.7206(3)
O8C O 0.1613(4) 0.0626(2) 0.7006(3)
N2_2 N 0.4820(4) 0.0073(3) 0.6619(3)
loop_
_geom_bond_atom_site_label_1
_geom_bond_atom_site_label_2
_geom_bond_site_symmetry_1
_geom_bond_site_symmetry_2
Zn1 O3 1_555 1_555
Zn2 O2 1_555 1_555
S1 C4 1_555 1_555
S2 O9 1_555 1_555
O1 C14 1_555 1_555
O2 C20 1_555 1_555
O3 C1 1_555 1_555
O4 C14 1_555 1_555
O5 Zn2 1_555 1_555
O6 Zn1 1_555 1_555
N1 Zn2 1_555 1_555
O7 C33 1_555 1_555
C1 O5 1_555 1_555
C2 C6 1_555 1_555
C3 C4 1_555 1_555
C4 C34 1_555 1_555
C5 C3 1_555 1_555
C6 C18 1_555 1_555
C7 C14 1_555 1_555
C8 N1 1_555 1_555
H1 C8 1_555 1_555
O8 C33 1_555 1_555
C9 C15 1_555 1_555
C10 S1 1_555 1_555
C11 C10 1_555 1_555
H2 C11 1_555 1_555
C12 C11 1_555 1_555
C13 C3 1_555 1_555
H3 C13 1_555 1_555
C15 S2 1_555 1_555
C16 H4 1_555 1_555
C17 S2 1_555 1_555
C18 C8 1_555 1_555
H5 C18 1_555 1_555
C19 C13 1_555 1_555
H6 C19 1_555 1_555
C20 O6 1_555 1_555
C21 C7 1_555 1_555
H7 C21 1_555 1_555
C22 C9 1_555 1_555
H8 C22 1_555 1_555
C23 C1 1_555 1_555
C24 C20 1_555 1_555
C25 C9 1_555 1_555
C26 C12 1_555 1_555
H9 C26 1_555 1_555
C27 C24 1_555 1_555
H10 C27 1_555 1_555
C28 C17 1_555 1_555
H11 C28 1_555 1_555
C29 C2 1_555 1_555
H12 C29 1_555 1_555
N2 C16 1_555 1_555
C30 C5 1_555 1_555
H13 C30 1_555 1_555
C31 C7 1_555 1_555
H14 C31 1_555 1_555
C32 C25 1_555 1_555
H15 C32 1_555 1_555
C33 C12 1_555 1_555
C34 C23 1_555 1_555
H16 C34 1_555 1_555
C35 N1 1_555 1_555
H17 C35 1_555 1_555
C36 C2 1_555 1_555
H18 C36 1_555 1_555
C37 N2 1_555 1_555
H19 C37 1_555 1_555
C38 C6 1_555 1_555
H20 C38 1_555 1_555
O10 S1 1_555 1_555
O11 S1 1_555 1_555
O12 S2 1_555 1_555
Zn1_2 N2 1_555 1_555
Zn1C O1 1_555 1_555
Zn1C_2 O7 1_555 1_555
Zn2C O4 1_555 1_555
Zn2C_2 O8 1_555 1_555
O1C Zn1 1_555 1_555
O4C Zn2 1_555 1_555
O7C Zn1 1_555 1_555
O8C Zn2 1_555 1_555
N2_2 Zn1 1_555 1_555
C5 C10 1_555 1_555
C15 C31 1_555 1_555
C16 C29 1_555 1_555
C17 C25 1_555 1_555
C19 C23 1_555 1_555
C21 C22 1_555 1_555
C24 C28 1_555 1_555
C26 C30 1_555 1_555
C27 C32 1_555 1_555
C35 C38 1_555 1_555
C36 C37 1_555 1_555

#END
