
#######################################################################
#
#                 Cambridge Crystallographic Data Centre
#                                CCDC 
#
#######################################################################
#
# If this CIF has been generated from an entry in the Cambridge 
# Structural Database, then it will include bibliographic, chemical, 
# crystal, experimental, refinement or atomic coordinate data resulting 
# from the CCDC's data processing and validation procedures.
#
#######################################################################

data_EMIVAY
_chemical_formula_moiety         '(C24 H20 N4 O6 S1 Zn1)n'
_symmetry_cell_setting           orthorhombic
_symmetry_space_group_name_H-M   'P b c m'
_symmetry_Int_Tables_number      57
_space_group_name_Hall           '-P 2c 2b'
loop_
_symmetry_equiv_pos_site_id
_symmetry_equiv_pos_as_xyz
1 x,y,z
2 -x,-y,1/2+z
3 x,1/2-y,-z
4 -x,1/2+y,1/2-z
5 -x,-y,-z
6 x,y,1/2-z
7 -x,1/2+y,z
8 x,1/2-y,1/2+z
_cell_length_a                   10.1389(7)
_cell_length_b                   22.0518(12)
_cell_length_c                   14.1837(9)
_cell_angle_alpha                90
_cell_angle_beta                 90
_cell_angle_gamma                90
_cell_volume                     3171.21
loop_
_atom_site_label
_atom_site_type_symbol
_atom_site_fract_x
_atom_site_fract_y
_atom_site_fract_z
_atom_site_U_iso_or_equiv
_atom_site_thermal_displace_type
Zn1 Zn 0.49383(6) 0.52546(3) 0.2500 0.0337 Uani
S1 S 0.92709(15) 0.84080(6) 0.2500 0.0393 Uani
O1 O 1.5515(5) 0.8870(2) 0.2500 0.0607 Uani
O2 O 0.8868(3) 0.86919(13) 0.1643(2) 0.0576 Uani
O3 O 0.6373(4) 0.58325(17) 0.2500 0.0480 Uani
O4 O 1.3898(4) 0.95593(17) 0.2500 0.0487 Uani
O5 O 0.5276(4) 0.6698(2) 0.2500 0.0693 Uani
C1 C 1.1277(6) 0.7670(2) 0.2500 0.0360 Uani
C2 C 1.3566(6) 0.7933(3) 0.2500 0.0440 Uani
H1 H 1.4446 0.7815 0.2500 0.0530 Uiso
N1 N 0.3876(3) 0.52747(15) 0.1335(3) 0.0455 Uani
C3 C 1.4348(7) 0.9018(3) 0.2500 0.0387 Uani
N2 N 0.2598(4) 0.49863(19) 0.0160(3) 0.0570 Uani
C4 C 1.0979(5) 0.8291(2) 0.2500 0.0323 Uani
C5 C 0.7615(5) 0.6724(2) 0.2500 0.0333 Uani
C6 C 1.1945(6) 0.8727(2) 0.2500 0.0360 Uani
H2 H 1.1729 0.9137 0.2500 0.0430 Uiso
C7 C 1.0017(6) 0.6656(3) 0.2500 0.0443 Uani
H3 H 1.0779 0.6422 0.2500 0.0530 Uiso
C8 C 1.0086(6) 0.7287(2) 0.2500 0.0367 Uani
C9 C 1.2586(6) 0.7491(3) 0.2500 0.0457 Uani
H4 H 1.2807 0.7082 0.2500 0.0550 Uiso
C10 C 0.3096(4) 0.48507(18) 0.1011(3) 0.0403 Uani
H5 H 0.2908 0.4494 0.1335 0.0480 Uiso
C11 C 0.8783(6) 0.6388(3) 0.2500 0.0437 Uani
H6 H 0.8729 0.5967 0.2500 0.0520 Uiso
C12 C 0.1658(5) 0.4636(3) -0.0385(4) 0.0667 Uani
H7 H 0.1535 0.4243 -0.0088 0.0800 Uiso
H8 H 0.2009 0.4568 -0.1012 0.0800 Uiso
C13 C 0.7688(6) 0.7360(2) 0.2500 0.0360 Uani
H9 H 0.6928 0.7596 0.2500 0.0430 Uiso
C14 C 0.0336(4) 0.4952(2) -0.0462(3) 0.0517 Uani
H10 H 0.0466 0.5343 -0.0761 0.0620 Uiso
H11 H -0.0236 0.4714 -0.0866 0.0620 Uiso
C15 C 0.6298(6) 0.6406(2) 0.2500 0.0373 Uani
C16 C 1.3261(6) 0.8540(2) 0.2500 0.0347 Uani
C17 C 0.8910(6) 0.7621(2) 0.2500 0.0313 Uani
C18 C 0.3887(6) 0.5723(3) 0.0666(4) 0.0695 Uani
H12 H 0.4346 0.6087 0.0702 0.0830 Uiso
C19 C 0.3119(6) 0.5542(3) -0.0053(4) 0.0760 Uani
H13 H 0.2966 0.5759 -0.0604 0.0910 Uiso
Zn1A Zn -0.49383(6) 0.47454(3) -0.2500 0.0337 Uani
Zn1C Zn 1.50617(6) 1.02546(3) 0.2500 0.0337 Uani
O2E O 0.8868(3) 0.86919(13) 0.3357(2) 0.0576 Uani
O4C O 0.6102(4) 0.45593(17) 0.2500 0.0487 Uani
N1D N -0.3876(3) 0.47253(15) -0.1335(3) 0.0455 Uani
N1E N 0.3876(3) 0.52747(15) 0.3665(3) 0.0455 Uani
N2D N -0.2598(4) 0.50137(19) -0.0160(3) 0.0570 Uani
C10D C -0.3096(4) 0.51493(18) -0.1011(3) 0.0403 Uani
H5D H -0.2908 0.5506 -0.1335 0.0480 Uiso
C12D C -0.1658(5) 0.5364(3) 0.0385(4) 0.0667 Uani
H7D H -0.1535 0.5757 0.0088 0.0800 Uiso
H8D H -0.2009 0.5432 0.1012 0.0800 Uiso
C14D C -0.0336(4) 0.5048(2) 0.0462(3) 0.0517 Uani
H10D H -0.0466 0.4657 0.0761 0.0620 Uiso
H11D H 0.0236 0.5286 0.0866 0.0620 Uiso
C18D C -0.3887(6) 0.4277(3) -0.0666(4) 0.0695 Uani
H12D H -0.4346 0.3913 -0.0702 0.0830 Uiso
C19D C -0.3119(6) 0.4458(3) 0.0053(4) 0.0760 Uani
H13D H -0.2966 0.4241 0.0604 0.0910 Uiso
loop_
_atom_site_aniso_label
_atom_site_aniso_U_11
_atom_site_aniso_U_22
_atom_site_aniso_U_33
_atom_site_aniso_U_23
_atom_site_aniso_U_13
_atom_site_aniso_U_12
Zn1 0.0213(4) 0.0242(3) 0.0556(5) 0.000 0.000 0.0007(3)
S1 0.0288(9) 0.0241(7) 0.0650(11) 0.000 0.000 0.0006(6)
O1 0.028(3) 0.041(3) 0.113(4) 0.000 0.000 -0.008(2)
O2 0.0412(19) 0.0427(17) 0.089(2) 0.0224(16) -0.0115(18) 0.0026(15)
O3 0.026(2) 0.031(2) 0.087(3) 0.000 0.000 -0.0094(18)
O4 0.040(3) 0.031(2) 0.075(3) 0.000 0.000 -0.012(2)
O5 0.025(3) 0.036(3) 0.147(5) 0.000 0.000 -0.0016(19)
C1 0.027(3) 0.027(3) 0.054(4) 0.000 0.000 -0.005(2)
C2 0.026(3) 0.037(3) 0.069(4) 0.000 0.000 -0.010(3)
N1 0.0265(19) 0.0412(18) 0.0689(19) 0.0048(14) -0.0058(14) -0.0081(16)
C3 0.034(4) 0.036(3) 0.046(4) 0.000 0.000 -0.006(3)
N2 0.039(2) 0.085(2) 0.047(2) 0.0128(19) -0.0052(18) 0.0006(17)
C4 0.027(3) 0.032(3) 0.038(3) 0.000 0.000 -0.006(2)
C5 0.026(3) 0.031(3) 0.043(4) 0.000 0.000 -0.004(2)
C6 0.037(4) 0.026(3) 0.045(4) 0.000 0.000 -0.007(3)
C7 0.027(3) 0.025(3) 0.081(5) 0.000 0.000 0.001(3)
C8 0.029(3) 0.027(3) 0.054(4) 0.000 0.000 -0.006(2)
C9 0.033(4) 0.024(3) 0.080(5) 0.000 0.000 -0.001(3)
C10 0.036(2) 0.037(2) 0.048(3) 0.0006(19) -0.007(2) 0.0019(19)
C11 0.038(4) 0.028(3) 0.065(4) 0.000 0.000 -0.004(3)
C12 0.047(3) 0.100(4) 0.053(3) -0.028(3) -0.015(3) 0.014(3)
C13 0.027(3) 0.030(3) 0.051(4) 0.000 0.000 0.005(2)
C14 0.041(3) 0.069(3) 0.045(3) -0.008(2) -0.013(2) 0.006(2)
C15 0.033(4) 0.032(3) 0.047(4) 0.000 0.000 -0.004(3)
C16 0.024(3) 0.026(3) 0.054(4) 0.000 0.000 -0.006(2)
C17 0.032(3) 0.021(3) 0.041(3) 0.000 0.000 0.000(2)
C18 0.0712(14) 0.0694(13) 0.0680(11) 0.0176(9) -0.0078(10) -0.0049(10)
C19 0.0777(15) 0.0792(14) 0.0710(13) 0.0089(10) -0.0077(10) -0.0039(10)
Zn1A 0.0213 0.0242 0.0556 0 0 0.0007
Zn1C 0.0213 0.0242 0.0556 0 0 -0.0007
O2E 0.0412 0.0427 0.089 -0.0224 0.0115 0.0026
O4C 0.04 0.031 0.075 0 0 0.012
N1D 0.0265 0.0412 0.0689 0.0048 -0.0058 -0.0081
N1E 0.0265 0.0412 0.0689 -0.0048 0.0058 -0.0081
N2D 0.039 0.085 0.047 0.0128 -0.0052 0.0006
C10D 0.036 0.037 0.048 0.0006 -0.007 0.0019
C12D 0.047 0.1 0.053 -0.028 -0.015 0.014
C14D 0.041 0.069 0.045 -0.008 -0.013 0.006
C18D 0.0712 0.0694 0.068 0.0176 -0.0078 -0.0049
C19D 0.0777 0.0792 0.071 0.0089 -0.0077 -0.0039
loop_
_geom_bond_atom_site_label_1
_geom_bond_atom_site_label_2
_geom_bond_site_symmetry_1
_geom_bond_site_symmetry_2
Zn1 O3 1_555 1_555
S1 O2 1_555 1_555
O1 C3 1_555 1_555
O3 C15 1_555 1_555
O4 C3 1_555 1_555
O5 C15 1_555 1_555
C1 C4 1_555 1_555
C2 H1 1_555 1_555
N1 Zn1 1_555 1_555
C3 C16 1_555 1_555
N2 C10 1_555 1_555
C4 S1 1_555 1_555
C5 C11 1_555 1_555
C6 C4 1_555 1_555
H2 C6 1_555 1_555
C7 H3 1_555 1_555
C8 C1 1_555 1_555
C9 C1 1_555 1_555
H4 C9 1_555 1_555
C10 N1 1_555 1_555
H5 C10 1_555 1_555
C11 C7 1_555 1_555
H6 C11 1_555 1_555
C12 N2 1_555 1_555
H7 C12 1_555 1_555
H8 C12 1_555 1_555
C13 C5 1_555 1_555
H9 C13 1_555 1_555
C14 C12 1_555 1_555
H10 C14 1_555 1_555
H11 C14 1_555 1_555
C15 C5 1_555 1_555
C16 C2 1_555 1_555
C17 S1 1_555 1_555
C18 N1 1_555 1_555
H12 C18 1_555 1_555
C19 N2 1_555 1_555
H13 C19 1_555 1_555
Zn1A N1D 1_555 1_555
Zn1C O4 1_555 1_555
O2E S1 1_555 1_555
O4C Zn1 1_555 1_555
N1D C10D 1_555 1_555
N1E Zn1 1_555 1_555
N2D C10D 1_555 1_555
C10D H5D 1_555 1_555
C12D N2D 1_555 1_555
H7D C12D 1_555 1_555
H8D C12D 1_555 1_555
C14D C14 1_555 1_555
H10D C14D 1_555 1_555
H11D C14D 1_555 1_555
C18D N1D 1_555 1_555
H12D C18D 1_555 1_555
C19D N2D 1_555 1_555
H13D C19D 1_555 1_555
C2 C9 1_555 1_555
C6 C16 1_555 1_555
C7 C8 1_555 1_555
C8 C17 1_555 1_555
C13 C17 1_555 1_555
C18 C19 1_555 1_555
C12D C14D 1_555 1_555
C18D C19D 1_555 1_555

#END
