
#######################################################################
#
#                 Cambridge Crystallographic Data Centre
#                                CCDC 
#
#######################################################################
#
# If this CIF has been generated from an entry in the Cambridge 
# Structural Database, then it will include bibliographic, chemical, 
# crystal, experimental, refinement or atomic coordinate data resulting 
# from the CCDC's data processing and validation procedures.
#
#######################################################################

data_EYINOR
_chemical_formula_moiety         '(C84 H74 N8 O32 Yb4)n'
_symmetry_cell_setting           monoclinic
_symmetry_space_group_name_H-M   'C 2/c'
_symmetry_Int_Tables_number      15
_space_group_name_Hall           '-C 2yc'
loop_
_symmetry_equiv_pos_site_id
_symmetry_equiv_pos_as_xyz
1 x,y,z
2 -x,y,1/2-z
3 1/2+x,1/2+y,z
4 1/2-x,1/2+y,1/2-z
5 -x,-y,-z
6 x,-y,1/2+z
7 1/2-x,1/2-y,-z
8 1/2+x,1/2-y,1/2+z
_cell_length_a                   29.8541(10)
_cell_length_b                   20.9459(6)
_cell_length_c                   19.3789(6)
_cell_angle_alpha                90
_cell_angle_beta                 94.0710(10)
_cell_angle_gamma                90
_cell_volume                     12087.5
loop_
_atom_site_label
_atom_site_type_symbol
_atom_site_fract_x
_atom_site_fract_y
_atom_site_fract_z
Yb1 Yb 0.276930(10) 0.175800(13) 1.057120(17)
Yb2 Yb 0.182180(12) -0.170880(14) 0.963050(18)
O1 O 0.3399(2) 0.1048(3) 1.0704(4)
O2 O 0.2774(2) 0.0707(3) 1.0194(4)
O3 O 0.2570(2) -0.1601(3) 0.9667(4)
O4 O 0.3083(2) -0.2286(3) 1.0034(3)
O5 O 0.62908(18) -0.2761(3) 1.3819(3)
O6 O 0.69716(19) -0.2914(3) 1.3529(3)
O7 O 0.68946(18) -0.1919(3) 1.0446(3)
O8 O 0.73191(17) -0.2567(3) 1.1113(3)
O9 O 0.1912(2) -0.0569(3) 0.9749(4)
O10 O 0.1489(3) -0.0923(3) 0.8919(4)
O11 O 0.2166(2) 0.1844(3) 0.9815(4)
O12 O 0.17325(19) 0.2434(3) 0.9124(3)
O13 O 0.2931(3) 0.1574(4) 1.1744(5)
O14 O 0.2221(3) 0.1110(4) 1.1095(5)
O15 O 0.2007(3) -0.1571(4) 1.0775(5)
O16 O 0.1173(4) -0.1684(4) 1.0185(6)
C1 C 0.3167(3) 0.0601(4) 1.0447(5)
C2 C 0.3340(3) -0.0063(4) 1.0468(5)
C3 C 0.3768(3) -0.0195(4) 1.0766(5)
H1 H 0.3949 0.0136 1.0943
C4 C 0.3928(3) -0.0826(4) 1.0803(5)
C5 C 0.3651(3) -0.1318(4) 1.0540(5)
H2 H 0.3754 -0.1737 1.0566
C6 C 0.3226(3) -0.1189(4) 1.0239(5)
C7 C 0.3069(3) -0.0567(4) 1.0191(5)
H3 H 0.2787 -0.0482 0.9977
C8 C 0.2941(3) -0.1737(4) 0.9955(6)
C9 C 0.4368(3) -0.0965(4) 1.1113(5)
C10 C 0.4732(3) -0.1134(4) 1.1341(5)
C11 C 0.5149(3) -0.1356(4) 1.1578(5)
C12 C 0.5512(3) -0.1563(4) 1.1771(5)
C13 C 0.5929(3) -0.1840(4) 1.1920(5)
C14 C 0.6055(3) -0.2117(4) 1.2570(5)
H4 H 0.5857 -0.2094 1.2919
C15 C 0.6459(3) -0.2418(4) 1.2701(4)
C16 C 0.6763(3) -0.2443(4) 1.2198(4)
H5 H 0.7039 -0.2641 1.2294
C17 C 0.6661(3) -0.2174(4) 1.1542(4)
C18 C 0.6250(3) -0.1877(4) 1.1413(5)
H6 H 0.6181 -0.1696 1.0980
C19 C 0.6582(3) -0.2718(4) 1.3387(4)
C20 C 0.6984(3) -0.2215(4) 1.0993(4)
C21 C 0.1639(3) -0.0462(4) 0.9263(6)
C22 C 0.1487(3) 0.0191(4) 0.9076(5)
C23 C 0.1729(3) 0.0723(4) 0.9323(5)
H7 H 0.1988 0.0670 0.9611
C24 C 0.1582(3) 0.1327(4) 0.9138(5)
C25 C 0.1193(3) 0.1415(4) 0.8725(5)
H8 H 0.1096 0.1824 0.8604
C26 C 0.0946(3) 0.0887(4) 0.8489(5)
C27 C 0.1105(3) 0.0264(4) 0.8658(5)
H9 H 0.0949 -0.0092 0.8484
C28 C 0.1847(3) 0.1916(4) 0.9380(5)
C29 C 0.0541(3) 0.0956(4) 0.8051(5)
C30 C 0.0202(3) 0.0976(4) 0.7709(5)
C31 C 0.3270(5) 0.1716(6) 1.2110(9)
H10 H 0.3515 0.1835 1.1869
C32 C 0.3780(6) 0.1766(8) 1.3143(10)
H11 H 0.3988 0.1912 1.2821
H12 H 0.3871 0.1353 1.3316
H13 H 0.3776 0.2062 1.3521
C33 C 0.2958(6) 0.1535(9) 1.3161(10)
H14 H 0.2696 0.1534 1.2845
H15 H 0.2916 0.1831 1.3530
H16 H 0.3006 0.1115 1.3349
C34 C 0.1963(9) 0.1012(12) 1.1553(16)
H17 H 0.2081 0.1142 1.1988
C35 C 0.1308(8) 0.0514(12) 1.0964(14)
H18 H 0.1487 0.0549 1.0573
H19 H 0.1036 0.0754 1.0876
H20 H 0.1236 0.0074 1.1038
C36 C 0.1343(9) 0.0778(12) 1.2211(14)
H21 H 0.1547 0.0958 1.2564
H22 H 0.1265 0.0352 1.2341
H23 H 0.1077 0.1035 1.2160
C37 C 0.1968(18) -0.162(2) 1.139(4)
H24 H 0.1722 -0.1864 1.1508
C38 C 0.2105(10) -0.1545(15) 1.2620(15)
H25 H 0.1816 -0.1746 1.2597
H26 H 0.2097 -0.1161 1.2890
H27 H 0.2326 -0.1831 1.2832
C39 C 0.2647(8) -0.1090(12) 1.1852(14)
H28 H 0.2843 -0.1386 1.1641
H29 H 0.2779 -0.0966 1.2297
H30 H 0.2605 -0.0720 1.1563
C40 C 0.0763(7) -0.1704(7) 1.0048(11)
H31 H 0.0667 -0.1701 0.9581
C41 C 0.0579(7) -0.1713(8) 1.1223(11)
H32 H 0.0901 -0.1701 1.1284
H33 H 0.0471 -0.2088 1.1441
H34 H 0.0457 -0.1340 1.1428
C42 C -0.0032(7) -0.1755(8) 1.0306(11)
H35 H -0.0081 -0.1761 0.9811
H36 H -0.0176 -0.1386 1.0485
H37 H -0.0156 -0.2134 1.0494
N1 N 0.3341(5) 0.1724(6) 1.2802(8)
N2 N 0.1553(9) 0.0761(12) 1.1566(13)
N3 N 0.2223(9) -0.1388(11) 1.1930(13)
N4 N 0.0443(6) -0.1728(7) 1.0497(9)
O9A O -0.1912(2) -0.0569(3) 0.5251(4)
O10A O -0.1489(3) -0.0923(3) 0.6081(4)
O11A O -0.2166(2) 0.1844(3) 0.5185(4)
O12A O -0.17325(19) 0.2434(3) 0.5876(3)
C21A C -0.1639(3) -0.0462(4) 0.5737(6)
C22A C -0.1487(3) 0.0191(4) 0.5924(5)
C23A C -0.1729(3) 0.0723(4) 0.5677(5)
H7A H -0.1988 0.0670 0.5389
C24A C -0.1582(3) 0.1327(4) 0.5862(5)
C25A C -0.1193(3) 0.1415(4) 0.6275(5)
H8A H -0.1096 0.1824 0.6396
C26A C -0.0946(3) 0.0887(4) 0.6511(5)
C27A C -0.1105(3) 0.0264(4) 0.6342(5)
H9A H -0.0949 -0.0092 0.6516
C28A C -0.1847(3) 0.1916(4) 0.5620(5)
C29A C -0.0541(3) 0.0956(4) 0.6949(5)
C30A C -0.0202(3) 0.0976(4) 0.7291(5)
Yb1A Yb -0.276930(10) 0.175800(13) 0.442880(17)
Yb2A Yb -0.182180(12) -0.170880(14) 0.536950(18)
O1A O -0.3399(2) 0.1048(3) 0.4296(4)
O2A O -0.2774(2) 0.0707(3) 0.4806(4)
O3A O -0.2570(2) -0.1601(3) 0.5333(4)
O4A O -0.3083(2) -0.2286(3) 0.4966(3)
O5A O -0.62908(18) -0.2761(3) 0.1181(3)
O6A O -0.69716(19) -0.2914(3) 0.1471(3)
O7A O -0.68946(18) -0.1919(3) 0.4554(3)
O8A O -0.73191(17) -0.2567(3) 0.3887(3)
O13A O -0.2931(3) 0.1574(4) 0.3256(5)
O14A O -0.2221(3) 0.1110(4) 0.3905(5)
O15A O -0.2007(3) -0.1571(4) 0.4225(5)
O16A O -0.1173(4) -0.1684(4) 0.4815(6)
C1A C -0.3167(3) 0.0601(4) 0.4553(5)
C2A C -0.3340(3) -0.0063(4) 0.4532(5)
C3A C -0.3768(3) -0.0195(4) 0.4234(5)
H1A H -0.3949 0.0136 0.4057
C4A C -0.3928(3) -0.0826(4) 0.4197(5)
C5A C -0.3651(3) -0.1318(4) 0.4460(5)
H2A H -0.3754 -0.1737 0.4434
C6A C -0.3226(3) -0.1189(4) 0.4761(5)
C7A C -0.3069(3) -0.0567(4) 0.4809(5)
H3A H -0.2787 -0.0482 0.5023
C8A C -0.2941(3) -0.1737(4) 0.5045(6)
C9A C -0.4368(3) -0.0965(4) 0.3887(5)
C10A C -0.4732(3) -0.1134(4) 0.3659(5)
C11A C -0.5149(3) -0.1356(4) 0.3422(5)
C12A C -0.5512(3) -0.1563(4) 0.3229(5)
C13A C -0.5929(3) -0.1840(4) 0.3080(5)
C14A C -0.6055(3) -0.2117(4) 0.2430(5)
H4A H -0.5857 -0.2094 0.2081
C15A C -0.6459(3) -0.2418(4) 0.2299(4)
C16A C -0.6763(3) -0.2443(4) 0.2802(4)
H5A H -0.7039 -0.2641 0.2706
C17A C -0.6661(3) -0.2174(4) 0.3458(4)
C18A C -0.6250(3) -0.1877(4) 0.3587(5)
H6A H -0.6181 -0.1696 0.4020
C19A C -0.6582(3) -0.2718(4) 0.1613(4)
C20A C -0.6984(3) -0.2215(4) 0.4007(4)
C31A C -0.3270(5) 0.1716(6) 0.2890(9)
H10A H -0.3515 0.1835 0.3131
C32A C -0.3780(6) 0.1766(8) 0.1857(10)
H11A H -0.3988 0.1912 0.2179
H12A H -0.3871 0.1353 0.1684
H13A H -0.3776 0.2062 0.1479
C33A C -0.2958(6) 0.1535(9) 0.1839(10)
H14A H -0.2696 0.1534 0.2155
H15A H -0.2916 0.1831 0.1470
H16A H -0.3006 0.1115 0.1651
C34A C -0.1963(9) 0.1012(12) 0.3447(16)
H17A H -0.2081 0.1142 0.3012
C35A C -0.1308(8) 0.0514(12) 0.4036(14)
H18A H -0.1487 0.0549 0.4427
H19A H -0.1036 0.0754 0.4124
H20A H -0.1236 0.0074 0.3962
C36A C -0.1343(9) 0.0778(12) 0.2789(14)
H21A H -0.1547 0.0958 0.2436
H22A H -0.1265 0.0352 0.2659
H23A H -0.1077 0.1035 0.2840
C37A C -0.1968(18) -0.162(2) 0.361(4)
H24A H -0.1722 -0.1864 0.3492
C38A C -0.2105(10) -0.1545(15) 0.2380(15)
H25A H -0.1816 -0.1746 0.2403
H26A H -0.2097 -0.1161 0.2110
H27A H -0.2326 -0.1831 0.2168
C39A C -0.2647(8) -0.1090(12) 0.3148(14)
H28A H -0.2843 -0.1386 0.3359
H29A H -0.2779 -0.0966 0.2703
H30A H -0.2605 -0.0720 0.3437
C40A C -0.0763(7) -0.1704(7) 0.4952(11)
H31A H -0.0667 -0.1701 0.5419
C41A C -0.0579(7) -0.1713(8) 0.3777(11)
H32A H -0.0901 -0.1701 0.3716
H33A H -0.0471 -0.2088 0.3559
H34A H -0.0457 -0.1340 0.3572
C42A C 0.0032(7) -0.1755(8) 0.4694(11)
H35A H 0.0081 -0.1761 0.5189
H36A H 0.0176 -0.1386 0.4515
H37A H 0.0156 -0.2134 0.4506
N1A N -0.3341(5) 0.1724(6) 0.2198(8)
N2A N -0.1553(9) 0.0761(12) 0.3434(13)
N3A N -0.2223(9) -0.1388(11) 0.3070(13)
N4A N -0.0443(6) -0.1728(7) 0.4503(9)
Yb1B Yb 0.776930(10) -0.324200(13) 1.057120(17)
Yb1C Yb -0.776930(10) -0.324200(13) 0.442880(17)
Yb1D Yb 0.723070(10) -0.175800(13) 0.942880(17)
Yb1E Yb -0.723070(10) -0.175800(13) 0.557120(17)
Yb1F Yb 0.223070(10) 0.324200(13) 0.942880(17)
Yb1G Yb -0.223070(10) 0.324200(13) 0.557120(17)
Yb2F Yb -0.682180(12) -0.329120(14) 0.036950(18)
Yb2F_2 Yb 0.317820(12) -0.329120(14) 1.036950(18)
Yb2G Yb -0.317820(12) -0.329120(14) 0.463050(18)
Yb2G_2 Yb 0.682180(12) -0.329120(14) 1.463050(18)
O4F O 0.1917(2) -0.2714(3) 0.9966(3)
O4G O -0.1917(2) -0.2714(3) 0.5034(3)
O5F O -0.12908(18) -0.2239(3) 0.6181(3)
O5G O 0.12908(18) -0.2239(3) 0.8819(3)
O6F O -0.19716(19) -0.2086(3) 0.6471(3)
O6G O 0.19716(19) -0.2086(3) 0.8529(3)
O7D O 0.31054(18) 0.1919(3) 0.9554(3)
O7E O -0.31054(18) 0.1919(3) 0.5446(3)
O8B O 0.23191(17) 0.2433(3) 1.1113(3)
O8C O -0.23191(17) 0.2433(3) 0.3887(3)
O12F O 0.32675(19) 0.2566(3) 1.0876(3)
O12G O -0.32675(19) 0.2566(3) 0.4124(3)
loop_
_geom_bond_atom_site_label_1
_geom_bond_atom_site_label_2
_geom_bond_site_symmetry_1
_geom_bond_site_symmetry_2
Yb1 O1 1_555 1_555
Yb2 O3 1_555 1_555
O1 C1 1_555 1_555
O2 Yb1 1_555 1_555
O3 C8 1_555 1_555
O4 C8 1_555 1_555
O5 C19 1_555 1_555
O6 C19 1_555 1_555
O7 C20 1_555 1_555
O8 C20 1_555 1_555
O9 Yb2 1_555 1_555
O10 Yb2 1_555 1_555
O11 Yb1 1_555 1_555
O12 C28 1_555 1_555
O13 Yb1 1_555 1_555
O14 Yb1 1_555 1_555
O15 Yb2 1_555 1_555
O16 Yb2 1_555 1_555
C1 O2 1_555 1_555
C2 C1 1_555 1_555
C3 C2 1_555 1_555
H1 C3 1_555 1_555
C4 C3 1_555 1_555
C5 C4 1_555 1_555
H2 C5 1_555 1_555
C6 C5 1_555 1_555
C7 C2 1_555 1_555
H3 C7 1_555 1_555
C8 C6 1_555 1_555
C9 C4 1_555 1_555
C10 C9 1_555 1_555
C11 C10 1_555 1_555
C12 C11 1_555 1_555
C13 C12 1_555 1_555
C14 C13 1_555 1_555
H4 C14 1_555 1_555
C15 C14 1_555 1_555
C16 C15 1_555 1_555
H5 C16 1_555 1_555
C17 C16 1_555 1_555
C18 C13 1_555 1_555
H6 C18 1_555 1_555
C19 C15 1_555 1_555
C20 C17 1_555 1_555
C21 O9 1_555 1_555
C22 C21 1_555 1_555
C23 C22 1_555 1_555
H7 C23 1_555 1_555
C24 C23 1_555 1_555
C25 C24 1_555 1_555
H8 C25 1_555 1_555
C26 C25 1_555 1_555
C27 C22 1_555 1_555
H9 C27 1_555 1_555
C28 O11 1_555 1_555
C29 C26 1_555 1_555
C30 C29 1_555 1_555
C31 O13 1_555 1_555
H10 C31 1_555 1_555
C32 H11 1_555 1_555
H12 C32 1_555 1_555
H13 C32 1_555 1_555
C33 H14 1_555 1_555
H15 C33 1_555 1_555
H16 C33 1_555 1_555
C34 O14 1_555 1_555
H17 C34 1_555 1_555
C35 H18 1_555 1_555
H19 C35 1_555 1_555
H20 C35 1_555 1_555
C36 H21 1_555 1_555
H22 C36 1_555 1_555
H23 C36 1_555 1_555
C37 O15 1_555 1_555
H24 C37 1_555 1_555
C38 H25 1_555 1_555
H26 C38 1_555 1_555
H27 C38 1_555 1_555
C39 H28 1_555 1_555
H29 C39 1_555 1_555
H30 C39 1_555 1_555
C40 O16 1_555 1_555
H31 C40 1_555 1_555
C41 H32 1_555 1_555
H33 C41 1_555 1_555
H34 C41 1_555 1_555
C42 H35 1_555 1_555
H36 C42 1_555 1_555
H37 C42 1_555 1_555
N1 C31 1_555 1_555
N2 C34 1_555 1_555
N3 C37 1_555 1_555
N4 C40 1_555 1_555
O9A C21A 1_555 1_555
O10A C21A 1_555 1_555
O11A C28A 1_555 1_555
O12A C28A 1_555 1_555
C21A C22A 1_555 1_555
C22A C23A 1_555 1_555
C23A H7A 1_555 1_555
C24A C23A 1_555 1_555
C25A C24A 1_555 1_555
H8A C25A 1_555 1_555
C26A C25A 1_555 1_555
C27A C22A 1_555 1_555
H9A C27A 1_555 1_555
C28A C24A 1_555 1_555
C29A C26A 1_555 1_555
C30A C30 1_555 1_555
Yb1A O11A 1_555 1_555
Yb2A O9A 1_555 1_555
O1A Yb1A 1_555 1_555
O2A Yb1A 1_555 1_555
O3A Yb2A 1_555 1_555
O4A C8A 1_555 1_555
O5A C19A 1_555 1_555
O6A C19A 1_555 1_555
O7A C20A 1_555 1_555
O8A C20A 1_555 1_555
O13A Yb1A 1_555 1_555
O14A Yb1A 1_555 1_555
O15A Yb2A 1_555 1_555
O16A Yb2A 1_555 1_555
C1A O1A 1_555 1_555
C2A C1A 1_555 1_555
C3A C2A 1_555 1_555
H1A C3A 1_555 1_555
C4A C3A 1_555 1_555
C5A C4A 1_555 1_555
H2A C5A 1_555 1_555
C6A C5A 1_555 1_555
C7A C2A 1_555 1_555
H3A C7A 1_555 1_555
C8A O3A 1_555 1_555
C9A C4A 1_555 1_555
C10A C9A 1_555 1_555
C11A C10A 1_555 1_555
C12A C11A 1_555 1_555
C13A C12A 1_555 1_555
C14A C13A 1_555 1_555
H4A C14A 1_555 1_555
C15A C14A 1_555 1_555
C16A C15A 1_555 1_555
H5A C16A 1_555 1_555
C17A C16A 1_555 1_555
C18A C13A 1_555 1_555
H6A C18A 1_555 1_555
C19A C15A 1_555 1_555
C20A C17A 1_555 1_555
C31A O13A 1_555 1_555
H10A C31A 1_555 1_555
C32A H11A 1_555 1_555
H12A C32A 1_555 1_555
H13A C32A 1_555 1_555
C33A H14A 1_555 1_555
H15A C33A 1_555 1_555
H16A C33A 1_555 1_555
C34A O14A 1_555 1_555
H17A C34A 1_555 1_555
C35A H18A 1_555 1_555
H19A C35A 1_555 1_555
H20A C35A 1_555 1_555
C36A H21A 1_555 1_555
H22A C36A 1_555 1_555
H23A C36A 1_555 1_555
C37A O15A 1_555 1_555
H24A C37A 1_555 1_555
C38A H25A 1_555 1_555
H26A C38A 1_555 1_555
H27A C38A 1_555 1_555
C39A H28A 1_555 1_555
H29A C39A 1_555 1_555
H30A C39A 1_555 1_555
C40A O16A 1_555 1_555
H31A C40A 1_555 1_555
C41A H32A 1_555 1_555
H33A C41A 1_555 1_555
H34A C41A 1_555 1_555
C42A H35A 1_555 1_555
H36A C42A 1_555 1_555
H37A C42A 1_555 1_555
N1A C31A 1_555 1_555
N2A C34A 1_555 1_555
N3A C37A 1_555 1_555
N4A C40A 1_555 1_555
Yb1B O8 1_555 1_555
Yb1C O8A 1_555 1_555
Yb1D O7 1_555 1_555
Yb1E O7A 1_555 1_555
Yb1F O12 1_555 1_555
Yb1G O12A 1_555 1_555
Yb2F O5A 1_555 1_555
Yb2F_2 O4 1_555 1_555
Yb2G O4A 1_555 1_555
Yb2G_2 O5 1_555 1_555
O4F Yb2 1_555 1_555
O4G Yb2A 1_555 1_555
O5F Yb2A 1_555 1_555
O5G Yb2 1_555 1_555
O6F Yb2A 1_555 1_555
O6G Yb2 1_555 1_555
O7D Yb1 1_555 1_555
O7E Yb1A 1_555 1_555
O8B Yb1 1_555 1_555
O8C Yb1A 1_555 1_555
O12F Yb1 1_555 1_555
O12G Yb1A 1_555 1_555
O6 Yb2G_2 1_555 1_555
O10 C21 1_555 1_555
C6 C7 1_555 1_555
C17 C18 1_555 1_555
C24 C28 1_555 1_555
C26 C27 1_555 1_555
C32 N1 1_555 1_555
C33 N1 1_555 1_555
C35 N2 1_555 1_555
C36 N2 1_555 1_555
C38 N3 1_555 1_555
C39 N3 1_555 1_555
C41 N4 1_555 1_555
C42 N4 1_555 1_555
O10A Yb2A 1_555 1_555
C26A C27A 1_555 1_555
C29A C30A 1_555 1_555
O2A C1A 1_555 1_555
O6A Yb2F 1_555 1_555
C6A C7A 1_555 1_555
C6A C8A 1_555 1_555
C17A C18A 1_555 1_555
C32A N1A 1_555 1_555
C33A N1A 1_555 1_555
C35A N2A 1_555 1_555
C36A N2A 1_555 1_555
C38A N3A 1_555 1_555
C39A N3A 1_555 1_555
C41A N4A 1_555 1_555
C42A N4A 1_555 1_555

#END
