
#######################################################################
#
#                 Cambridge Crystallographic Data Centre
#                                CCDC 
#
#######################################################################
#
# If this CIF has been generated from an entry in the Cambridge 
# Structural Database, then it will include bibliographic, chemical, 
# crystal, experimental, refinement or atomic coordinate data resulting 
# from the CCDC's data processing and validation procedures.
#
#######################################################################

data_EYIYES
_chemical_formula_moiety         '(C84 H74 Dy4 N8 O32)n'
_symmetry_cell_setting           monoclinic
_symmetry_space_group_name_H-M   'C 2/c'
_symmetry_Int_Tables_number      15
_space_group_name_Hall           '-C 2yc'
loop_
_symmetry_equiv_pos_site_id
_symmetry_equiv_pos_as_xyz
1 x,y,z
2 -x,y,1/2-z
3 1/2+x,1/2+y,z
4 1/2-x,1/2+y,1/2-z
5 -x,-y,-z
6 x,-y,1/2+z
7 1/2-x,1/2-y,-z
8 1/2+x,1/2-y,1/2+z
_cell_length_a                   29.9537(12)
_cell_length_b                   21.1398(9)
_cell_length_c                   19.4385(8)
_cell_angle_alpha                90
_cell_angle_beta                 93.9800(10)
_cell_angle_gamma                90
_cell_volume                     12279.1
loop_
_atom_site_label
_atom_site_type_symbol
_atom_site_fract_x
_atom_site_fract_y
_atom_site_fract_z
Dy1 Dy 0.276530(11) 0.174570(13) 0.058850(18)
Dy2 Dy 0.181230(13) -0.169700(15) -0.03652(2)
O1 O 0.3403(2) 0.1014(3) 0.0730(4)
O2 O 0.2800(2) 0.0690(3) 0.0155(4)
O3 O 0.2573(2) -0.1599(3) -0.0311(4)
O4 O 0.3092(2) -0.2282(3) 0.0016(3)
O5 O 0.62780(18) -0.2771(3) 0.3813(3)
O6 O 0.69592(18) -0.2915(3) 0.3515(3)
O7 O 0.68886(18) -0.1912(3) 0.0447(3)
O8 O 0.73127(17) -0.2545(2) 0.1132(3)
O9 O 0.1462(3) -0.0903(3) -0.1070(4)
O10 O 0.1910(2) -0.0551(3) -0.0263(4)
O11 O 0.2156(2) 0.1841(3) -0.0186(4)
O12 O 0.17115(19) 0.2439(2) -0.0878(3)
O13 O 0.2973(3) 0.1630(3) 0.1794(5)
O14 O 0.1985(3) -0.1571(4) 0.0791(6)
O15 O 0.1149(4) -0.1679(4) 0.0182(6)
O16 O 0.2221(3) 0.1112(4) 0.1116(4)
C1 C 0.3172(3) 0.0575(4) 0.0438(5)
C2 C 0.3342(3) -0.0091(4) 0.0464(5)
C3 C 0.3767(3) -0.0221(4) 0.0781(5)
H1 H 0.3941 0.0108 0.0970
C4 C 0.3931(3) -0.0838(4) 0.0817(5)
C5 C 0.3648(3) -0.1330(4) 0.0552(5)
H2 H 0.3747 -0.1746 0.0587
C6 C 0.3239(3) -0.1208(4) 0.0251(5)
C7 C 0.3075(3) -0.0589(4) 0.0185(5)
H3 H 0.2795 -0.0509 -0.0038
C8 C 0.2945(3) -0.1743(4) -0.0044(6)
C9 C 0.4360(3) -0.0976(4) 0.1120(5)
C10 C 0.4725(3) -0.1145(4) 0.1334(5)
C11 C 0.5143(3) -0.1364(4) 0.1574(5)
C12 C 0.5502(3) -0.1585(4) 0.1753(5)
C13 C 0.5921(3) -0.1847(4) 0.1933(5)
C14 C 0.6038(3) -0.2123(4) 0.2565(4)
H4 H 0.5839 -0.2103 0.2912
C15 C 0.6445(3) -0.2429(4) 0.2693(4)
C16 C 0.6751(3) -0.2447(4) 0.2179(4)
H5 H 0.7024 -0.2651 0.2267
C17 C 0.6654(3) -0.2162(4) 0.1534(4)
C18 C 0.6237(3) -0.1875(4) 0.1407(5)
H6 H 0.6161 -0.1699 0.0976
C19 C 0.6569(3) -0.2725(4) 0.3387(4)
C20 C 0.6983(3) -0.2206(4) 0.1007(4)
C21 C 0.1620(4) -0.0447(5) -0.0730(6)
C22 C 0.1477(3) 0.0196(4) -0.0928(6)
C23 C 0.1723(3) 0.0732(4) -0.0673(5)
H7 H 0.1979 0.0677 -0.0379
C24 C 0.1580(3) 0.1348(4) -0.0868(5)
C25 C 0.1177(3) 0.1429(4) -0.1267(5)
H8 H 0.1069 0.1834 -0.1367
C26 C 0.0932(3) 0.0894(4) -0.1519(6)
C27 C 0.1087(3) 0.0287(4) -0.1336(5)
H9 H 0.0923 -0.0064 -0.1494
C28 C 0.0545(3) 0.0965(4) -0.1964(6)
C29 C 0.0190(3) 0.0981(4) -0.2282(6)
C30 C 0.3305(5) 0.1747(5) 0.2161(8)
H10 H 0.3555 0.1884 0.1946
C31 C 0.3748(6) 0.1751(7) 0.3278(10)
H11 H 0.3997 0.1797 0.2998
H12 H 0.3787 0.1377 0.3556
H13 H 0.3730 0.2114 0.3572
C32 C 0.2938(6) 0.1631(7) 0.3180(9)
H14 H 0.2693 0.1588 0.2839
H15 H 0.2893 0.1998 0.3458
H16 H 0.2955 0.1262 0.3468
C33 C 0.2060(6) -0.1677(6) 0.1358(11)
H17 H 0.2362 -0.1777 0.1426
C34 C 0.2149(6) -0.1734(7) 0.2609(9)
H18 H 0.2460 -0.1718 0.2523
H19 H 0.2088 -0.2120 0.2846
H20 H 0.2075 -0.1380 0.2888
C35 C 0.1406(6) -0.1689(7) 0.2032(10)
H21 H 0.1311 -0.1256 0.2044
H22 H 0.1338 -0.1896 0.2452
H23 H 0.1253 -0.1899 0.1647
C36 C 0.0768(7) -0.1797(7) -0.0083(11)
H24 H 0.0742 -0.1925 -0.0542
C37 C 0.0474(7) -0.1729(7) 0.0995(12)
H25 H 0.0194 -0.1700 0.1206
H26 H 0.0654 -0.1366 0.1119
H27 H 0.0628 -0.2106 0.1151
C38 C -0.0022(6) -0.2047(9) -0.0019(10)
H28 H -0.0022 -0.2078 -0.0512
H29 H -0.0272 -0.1795 0.0100
H30 H -0.0045 -0.2462 0.0175
C39 C 0.1991(4) 0.0639(6) 0.1161(7)
H31 H 0.2073 0.0306 0.0885
C40 C 0.1443(5) -0.0126(7) 0.1478(8)
H32 H 0.1483 -0.0298 0.1029
H33 H 0.1130 -0.0098 0.1546
H34 H 0.1587 -0.0396 0.1824
C41 C 0.1632(5) 0.0767(7) 0.2215(9)
H35 H 0.1783 0.1169 0.2237
H36 H 0.1780 0.0482 0.2542
H37 H 0.1327 0.0823 0.2324
C42 C 0.1835(3) 0.1903(4) -0.0622(5)
N1 N 0.3346(5) 0.1698(5) 0.2847(8)
N2 N 0.1883(6) -0.1713(6) 0.1963(9)
N3 N 0.0391(6) -0.1753(6) 0.0253(10)
N4 N 0.1644(4) 0.0509(6) 0.1531(7)
O9A O -0.1462(3) -0.0903(3) -0.3930(4)
O10A O -0.1910(2) -0.0551(3) -0.4737(4)
O11A O -0.2156(2) 0.1841(3) -0.4814(4)
O12A O -0.17115(19) 0.2439(2) -0.4122(3)
C21A C -0.1620(4) -0.0447(5) -0.4270(6)
C22A C -0.1477(3) 0.0196(4) -0.4072(6)
C23A C -0.1723(3) 0.0732(4) -0.4327(5)
H7A H -0.1979 0.0677 -0.4621
C24A C -0.1580(3) 0.1348(4) -0.4132(5)
C25A C -0.1177(3) 0.1429(4) -0.3733(5)
H8A H -0.1069 0.1834 -0.3633
C26A C -0.0932(3) 0.0894(4) -0.3481(6)
C27A C -0.1087(3) 0.0287(4) -0.3664(5)
H9A H -0.0923 -0.0064 -0.3506
C28A C -0.0545(3) 0.0965(4) -0.3036(6)
C29A C -0.0190(3) 0.0981(4) -0.2718(6)
C42A C -0.1835(3) 0.1903(4) -0.4378(5)
Dy1A Dy -0.276530(11) 0.174570(13) -0.558850(18)
Dy2A Dy -0.181230(13) -0.169700(15) -0.46348(2)
O1A O -0.3403(2) 0.1014(3) -0.5730(4)
O2A O -0.2800(2) 0.0690(3) -0.5155(4)
O3A O -0.2573(2) -0.1599(3) -0.4689(4)
O4A O -0.3092(2) -0.2282(3) -0.5016(3)
O5A O -0.62780(18) -0.2771(3) -0.8813(3)
O6A O -0.69592(18) -0.2915(3) -0.8515(3)
O7A O -0.68886(18) -0.1912(3) -0.5447(3)
O8A O -0.73127(17) -0.2545(2) -0.6132(3)
O13A O -0.2973(3) 0.1630(3) -0.6794(5)
O14A O -0.1985(3) -0.1571(4) -0.5791(6)
O15A O -0.1149(4) -0.1679(4) -0.5182(6)
O16A O -0.2221(3) 0.1112(4) -0.6116(4)
C1A C -0.3172(3) 0.0575(4) -0.5438(5)
C2A C -0.3342(3) -0.0091(4) -0.5464(5)
C3A C -0.3767(3) -0.0221(4) -0.5781(5)
H1A H -0.3941 0.0108 -0.5970
C4A C -0.3931(3) -0.0838(4) -0.5817(5)
C5A C -0.3648(3) -0.1330(4) -0.5552(5)
H2A H -0.3747 -0.1746 -0.5587
C6A C -0.3239(3) -0.1208(4) -0.5251(5)
C7A C -0.3075(3) -0.0589(4) -0.5185(5)
H3A H -0.2795 -0.0509 -0.4962
C8A C -0.2945(3) -0.1743(4) -0.4956(6)
C9A C -0.4360(3) -0.0976(4) -0.6120(5)
C10A C -0.4725(3) -0.1145(4) -0.6334(5)
C11A C -0.5143(3) -0.1364(4) -0.6574(5)
C12A C -0.5502(3) -0.1585(4) -0.6753(5)
C13A C -0.5921(3) -0.1847(4) -0.6933(5)
C14A C -0.6038(3) -0.2123(4) -0.7565(4)
H4A H -0.5839 -0.2103 -0.7912
C15A C -0.6445(3) -0.2429(4) -0.7693(4)
C16A C -0.6751(3) -0.2447(4) -0.7179(4)
H5A H -0.7024 -0.2651 -0.7267
C17A C -0.6654(3) -0.2162(4) -0.6534(4)
C18A C -0.6237(3) -0.1875(4) -0.6407(5)
H6A H -0.6161 -0.1699 -0.5976
C19A C -0.6569(3) -0.2725(4) -0.8387(4)
C20A C -0.6983(3) -0.2206(4) -0.6007(4)
C30A C -0.3305(5) 0.1747(5) -0.7161(8)
H10A H -0.3555 0.1884 -0.6946
C31A C -0.3748(6) 0.1751(7) -0.8278(10)
H11A H -0.3997 0.1797 -0.7998
H12A H -0.3787 0.1377 -0.8556
H13A H -0.3730 0.2114 -0.8572
C32A C -0.2938(6) 0.1631(7) -0.8180(9)
H14A H -0.2693 0.1588 -0.7839
H15A H -0.2893 0.1998 -0.8458
H16A H -0.2955 0.1262 -0.8468
C33A C -0.2060(6) -0.1677(6) -0.6358(11)
H17A H -0.2362 -0.1777 -0.6426
C34A C -0.2149(6) -0.1734(7) -0.7609(9)
H18A H -0.2460 -0.1718 -0.7523
H19A H -0.2088 -0.2120 -0.7846
H20A H -0.2075 -0.1380 -0.7888
C35A C -0.1406(6) -0.1689(7) -0.7032(10)
H21A H -0.1311 -0.1256 -0.7044
H22A H -0.1338 -0.1896 -0.7452
H23A H -0.1253 -0.1899 -0.6647
C36A C -0.0768(7) -0.1797(7) -0.4917(11)
H24A H -0.0742 -0.1925 -0.4458
C37A C -0.0474(7) -0.1729(7) -0.5995(12)
H25A H -0.0194 -0.1700 -0.6206
H26A H -0.0654 -0.1366 -0.6119
H27A H -0.0628 -0.2106 -0.6151
C38A C 0.0022(6) -0.2047(9) -0.4981(10)
H28A H 0.0022 -0.2078 -0.4488
H29A H 0.0272 -0.1795 -0.5100
H30A H 0.0045 -0.2462 -0.5175
C39A C -0.1991(4) 0.0639(6) -0.6161(7)
H31A H -0.2073 0.0306 -0.5885
C40A C -0.1443(5) -0.0126(7) -0.6478(8)
H32A H -0.1483 -0.0298 -0.6029
H33A H -0.1130 -0.0098 -0.6546
H34A H -0.1587 -0.0396 -0.6824
C41A C -0.1632(5) 0.0767(7) -0.7215(9)
H35A H -0.1783 0.1169 -0.7237
H36A H -0.1780 0.0482 -0.7542
H37A H -0.1327 0.0823 -0.7324
N1A N -0.3346(5) 0.1698(5) -0.7847(8)
N2A N -0.1883(6) -0.1713(6) -0.6963(9)
N3A N -0.0391(6) -0.1753(6) -0.5253(10)
N4A N -0.1644(4) 0.0509(6) -0.6531(7)
Dy1B Dy 0.776530(11) -0.325430(13) 0.058850(18)
Dy1C Dy -0.776530(11) -0.325430(13) -0.558850(18)
Dy1D Dy 0.723470(11) -0.174570(13) -0.058850(18)
Dy1E Dy -0.723470(11) -0.174570(13) -0.441150(18)
Dy1F Dy 0.223470(11) 0.325430(13) -0.058850(18)
Dy1G Dy -0.223470(11) 0.325430(13) -0.441150(18)
Dy2F Dy -0.681230(13) -0.330300(15) -0.96348(2)
Dy2F_2 Dy 0.318770(13) -0.330300(15) 0.03652(2)
Dy2G Dy -0.318770(13) -0.330300(15) -0.53652(2)
Dy2G_2 Dy 0.681230(13) -0.330300(15) 0.46348(2)
O4F O 0.1908(2) -0.2718(3) -0.0016(3)
O4G O -0.1908(2) -0.2718(3) -0.4984(3)
O5F O -0.12780(18) -0.2229(3) -0.3813(3)
O5G O 0.12780(18) -0.2229(3) -0.1187(3)
O6F O -0.19592(18) -0.2085(3) -0.3515(3)
O6G O 0.19592(18) -0.2085(3) -0.1485(3)
O7D O 0.31114(18) 0.1912(3) -0.0447(3)
O7E O -0.31114(18) 0.1912(3) -0.4553(3)
O8B O 0.23127(17) 0.2455(2) 0.1132(3)
O8C O -0.23127(17) 0.2455(2) -0.6132(3)
O12F O 0.32885(19) 0.2561(2) 0.0878(3)
O12G O -0.32885(19) 0.2561(2) -0.5878(3)
loop_
_geom_bond_atom_site_label_1
_geom_bond_atom_site_label_2
_geom_bond_site_symmetry_1
_geom_bond_site_symmetry_2
Dy1 O1 1_555 1_555
Dy2 O3 1_555 1_555
O1 C1 1_555 1_555
O2 Dy1 1_555 1_555
O3 C8 1_555 1_555
O4 C8 1_555 1_555
O5 C19 1_555 1_555
O6 C19 1_555 1_555
O7 C20 1_555 1_555
O8 C20 1_555 1_555
O9 Dy2 1_555 1_555
O10 Dy2 1_555 1_555
O11 Dy1 1_555 1_555
O12 C42 1_555 1_555
O13 Dy1 1_555 1_555
O14 Dy2 1_555 1_555
O15 Dy2 1_555 1_555
O16 Dy1 1_555 1_555
C1 O2 1_555 1_555
C2 C1 1_555 1_555
C3 C2 1_555 1_555
H1 C3 1_555 1_555
C4 C3 1_555 1_555
C5 C4 1_555 1_555
H2 C5 1_555 1_555
C6 C5 1_555 1_555
C7 C2 1_555 1_555
H3 C7 1_555 1_555
C8 C6 1_555 1_555
C9 C4 1_555 1_555
C10 C9 1_555 1_555
C11 C10 1_555 1_555
C12 C11 1_555 1_555
C13 C12 1_555 1_555
C14 C13 1_555 1_555
H4 C14 1_555 1_555
C15 C14 1_555 1_555
C16 C15 1_555 1_555
H5 C16 1_555 1_555
C17 C16 1_555 1_555
C18 C13 1_555 1_555
H6 C18 1_555 1_555
C19 C15 1_555 1_555
C20 C17 1_555 1_555
C21 O9 1_555 1_555
C22 C21 1_555 1_555
C23 C22 1_555 1_555
H7 C23 1_555 1_555
C24 C23 1_555 1_555
C25 C24 1_555 1_555
H8 C25 1_555 1_555
C26 C25 1_555 1_555
C27 C22 1_555 1_555
H9 C27 1_555 1_555
C28 C26 1_555 1_555
C29 C28 1_555 1_555
C30 O13 1_555 1_555
H10 C30 1_555 1_555
C31 H11 1_555 1_555
H12 C31 1_555 1_555
H13 C31 1_555 1_555
C32 H14 1_555 1_555
H15 C32 1_555 1_555
H16 C32 1_555 1_555
C33 O14 1_555 1_555
H17 C33 1_555 1_555
C34 H18 1_555 1_555
H19 C34 1_555 1_555
H20 C34 1_555 1_555
C35 H21 1_555 1_555
H22 C35 1_555 1_555
H23 C35 1_555 1_555
C36 O15 1_555 1_555
H24 C36 1_555 1_555
C37 H25 1_555 1_555
H26 C37 1_555 1_555
H27 C37 1_555 1_555
C38 H28 1_555 1_555
H29 C38 1_555 1_555
H30 C38 1_555 1_555
C39 O16 1_555 1_555
H31 C39 1_555 1_555
C40 H32 1_555 1_555
H33 C40 1_555 1_555
H34 C40 1_555 1_555
C41 H35 1_555 1_555
H36 C41 1_555 1_555
H37 C41 1_555 1_555
C42 O11 1_555 1_555
N1 C30 1_555 1_555
N2 C33 1_555 1_555
N3 C36 1_555 1_555
N4 C39 1_555 1_555
O9A C21A 1_555 1_555
O10A C21A 1_555 1_555
O11A C42A 1_555 1_555
O12A C42A 1_555 1_555
C21A C22A 1_555 1_555
C22A C23A 1_555 1_555
C23A H7A 1_555 1_555
C24A C23A 1_555 1_555
C25A C24A 1_555 1_555
H8A C25A 1_555 1_555
C26A C25A 1_555 1_555
C27A C22A 1_555 1_555
H9A C27A 1_555 1_555
C28A C26A 1_555 1_555
C29A C29 1_555 1_555
C42A C24A 1_555 1_555
Dy1A O11A 1_555 1_555
Dy2A O9A 1_555 1_555
O1A Dy1A 1_555 1_555
O2A Dy1A 1_555 1_555
O3A Dy2A 1_555 1_555
O4A C8A 1_555 1_555
O5A C19A 1_555 1_555
O6A C19A 1_555 1_555
O7A C20A 1_555 1_555
O8A C20A 1_555 1_555
O13A Dy1A 1_555 1_555
O14A Dy2A 1_555 1_555
O15A Dy2A 1_555 1_555
O16A Dy1A 1_555 1_555
C1A O1A 1_555 1_555
C2A C1A 1_555 1_555
C3A C2A 1_555 1_555
H1A C3A 1_555 1_555
C4A C3A 1_555 1_555
C5A C4A 1_555 1_555
H2A C5A 1_555 1_555
C6A C5A 1_555 1_555
C7A C2A 1_555 1_555
H3A C7A 1_555 1_555
C8A O3A 1_555 1_555
C9A C4A 1_555 1_555
C10A C9A 1_555 1_555
C11A C10A 1_555 1_555
C12A C11A 1_555 1_555
C13A C12A 1_555 1_555
C14A C13A 1_555 1_555
H4A C14A 1_555 1_555
C15A C14A 1_555 1_555
C16A C15A 1_555 1_555
H5A C16A 1_555 1_555
C17A C16A 1_555 1_555
C18A C13A 1_555 1_555
H6A C18A 1_555 1_555
C19A C15A 1_555 1_555
C20A C17A 1_555 1_555
C30A O13A 1_555 1_555
H10A C30A 1_555 1_555
C31A H11A 1_555 1_555
H12A C31A 1_555 1_555
H13A C31A 1_555 1_555
C32A H14A 1_555 1_555
H15A C32A 1_555 1_555
H16A C32A 1_555 1_555
C33A O14A 1_555 1_555
H17A C33A 1_555 1_555
C34A H18A 1_555 1_555
H19A C34A 1_555 1_555
H20A C34A 1_555 1_555
C35A H21A 1_555 1_555
H22A C35A 1_555 1_555
H23A C35A 1_555 1_555
C36A O15A 1_555 1_555
H24A C36A 1_555 1_555
C37A H25A 1_555 1_555
H26A C37A 1_555 1_555
H27A C37A 1_555 1_555
C38A H28A 1_555 1_555
H29A C38A 1_555 1_555
H30A C38A 1_555 1_555
C39A O16A 1_555 1_555
H31A C39A 1_555 1_555
C40A H32A 1_555 1_555
H33A C40A 1_555 1_555
H34A C40A 1_555 1_555
C41A H35A 1_555 1_555
H36A C41A 1_555 1_555
H37A C41A 1_555 1_555
N1A C30A 1_555 1_555
N2A C33A 1_555 1_555
N3A C36A 1_555 1_555
N4A C39A 1_555 1_555
Dy1B O8 1_555 1_555
Dy1C O8A 1_555 1_555
Dy1D O7 1_555 1_555
Dy1E O7A 1_555 1_555
Dy1F O12 1_555 1_555
Dy1G O12A 1_555 1_555
Dy2F O5A 1_555 1_555
Dy2F_2 O4 1_555 1_555
Dy2G O4A 1_555 1_555
Dy2G_2 O5 1_555 1_555
O4F Dy2 1_555 1_555
O4G Dy2A 1_555 1_555
O5F Dy2A 1_555 1_555
O5G Dy2 1_555 1_555
O6F Dy2A 1_555 1_555
O6G Dy2 1_555 1_555
O7D Dy1 1_555 1_555
O7E Dy1A 1_555 1_555
O8B Dy1 1_555 1_555
O8C Dy1A 1_555 1_555
O12F Dy1 1_555 1_555
O12G Dy1A 1_555 1_555
O6 Dy2G_2 1_555 1_555
O10 C21 1_555 1_555
C6 C7 1_555 1_555
C17 C18 1_555 1_555
C24 C42 1_555 1_555
C26 C27 1_555 1_555
C31 N1 1_555 1_555
C32 N1 1_555 1_555
C34 N2 1_555 1_555
C35 N2 1_555 1_555
C37 N3 1_555 1_555
C38 N3 1_555 1_555
C40 N4 1_555 1_555
C41 N4 1_555 1_555
O10A Dy2A 1_555 1_555
C26A C27A 1_555 1_555
C28A C29A 1_555 1_555
O2A C1A 1_555 1_555
O6A Dy2F 1_555 1_555
C6A C7A 1_555 1_555
C6A C8A 1_555 1_555
C17A C18A 1_555 1_555
C31A N1A 1_555 1_555
C32A N1A 1_555 1_555
C34A N2A 1_555 1_555
C35A N2A 1_555 1_555
C37A N3A 1_555 1_555
C38A N3A 1_555 1_555
C40A N4A 1_555 1_555
C41A N4A 1_555 1_555

#END
