
#######################################################################
#
#                 Cambridge Crystallographic Data Centre
#                                CCDC 
#
#######################################################################
#
# If this CIF has been generated from an entry in the Cambridge 
# Structural Database, then it will include bibliographic, chemical, 
# crystal, experimental, refinement or atomic coordinate data resulting 
# from the CCDC's data processing and validation procedures.
#
#######################################################################

data_EYOCIG
_chemical_formula_moiety         '(C84 H74 Eu4 N8 O32)n'
_symmetry_cell_setting           monoclinic
_symmetry_space_group_name_H-M   'C 2/c'
_symmetry_Int_Tables_number      15
_space_group_name_Hall           '-C 2yc'
loop_
_symmetry_equiv_pos_site_id
_symmetry_equiv_pos_as_xyz
1 x,y,z
2 -x,y,1/2-z
3 1/2+x,1/2+y,z
4 1/2-x,1/2+y,1/2-z
5 -x,-y,-z
6 x,-y,1/2+z
7 1/2-x,1/2-y,-z
8 1/2+x,1/2-y,1/2+z
_cell_length_a                   30.0058(13)
_cell_length_b                   21.2440(9)
_cell_length_c                   19.5943(9)
_cell_angle_alpha                90
_cell_angle_beta                 93.8700(10)
_cell_angle_gamma                90
_cell_volume                     12461.8
loop_
_atom_site_label
_atom_site_type_symbol
_atom_site_fract_x
_atom_site_fract_y
_atom_site_fract_z
Eu1 Eu 0.276130(5) 0.325950(7) 0.558020(10)
Eu2 Eu 0.180830(7) 0.668400(8) 0.462430(11)
O1 O 0.34049(10) 0.40041(14) 0.57124(19)
O2 O 0.27989(10) 0.43302(14) 0.5131(2)
O3 O 0.25759(12) 0.66123(16) 0.4682(2)
O4 O 0.31048(11) 0.72921(14) 0.50137(19)
O5 O 0.68809(10) 0.69071(15) 0.54580(16)
O6 O 0.73066(9) 0.75402(15) 0.61376(16)
O7 O 0.62718(9) 0.77708(15) 0.87995(16)
O8 O 0.69523(10) 0.79229(18) 0.85019(18)
O9 O 0.19191(13) 0.55250(18) 0.4705(2)
O10 O 0.14595(16) 0.5871(2) 0.3912(3)
O11 O 0.21528(10) 0.31292(15) 0.47877(19)
O12 O 0.17000(10) 0.25485(14) 0.41133(18)
O13 O 0.29578(18) 0.3396(2) 0.6789(3)
O14 O 0.21959(16) 0.3908(2) 0.6054(3)
O15 O 0.1975(2) 0.6521(3) 0.5796(3)
O16 O 0.1126(3) 0.6670(3) 0.5174(4)
C1 C 0.31781(13) 0.44379(18) 0.5429(2)
C2 C 0.33480(12) 0.50957(17) 0.5463(2)
C3 C 0.37658(12) 0.52240(18) 0.5774(2)
H1 H 0.3941 0.4897 0.5958
C4 C 0.39266(12) 0.58452(18) 0.5814(2)
C5 C 0.36550(12) 0.63320(18) 0.5551(2)
H2 H 0.3757 0.6745 0.5584
C6 C 0.32326(12) 0.62076(17) 0.5238(2)
C7 C 0.30815(12) 0.55934(17) 0.5194(2)
H3 H 0.2801 0.5508 0.4985
C8 C 0.29536(15) 0.67400(18) 0.4953(3)
C9 C 0.43582(13) 0.5987(2) 0.6128(2)
C10 C 0.47188(13) 0.6154(2) 0.6362(3)
C11 C 0.51346(13) 0.6358(2) 0.6590(3)
C12 C 0.54996(14) 0.6563(2) 0.6780(3)
C13 C 0.59235(13) 0.6844(2) 0.6935(2)
C14 C 0.62326(13) 0.6866(2) 0.6417(2)
H4 H 0.6162 0.6680 0.5994
C15 C 0.66425(12) 0.7169(2) 0.6548(2)
C16 C 0.67461(12) 0.7438(2) 0.7182(2)
H5 H 0.7023 0.7627 0.7271
C17 C 0.64395(12) 0.7430(2) 0.7695(2)
C18 C 0.60305(12) 0.7130(2) 0.7564(2)
H6 H 0.5826 0.7120 0.7901
C19 C 0.69692(12) 0.72052(19) 0.6010(2)
C20 C 0.65595(13) 0.7727(2) 0.8368(2)
C21 C 0.16253(18) 0.5425(2) 0.4246(3)
C22 C 0.14819(16) 0.4772(2) 0.4062(3)
C23 C 0.17220(15) 0.4247(2) 0.4302(3)
H7 H 0.1985 0.4297 0.4576
C24 C 0.15674(14) 0.36443(18) 0.4131(3)
C25 C 0.11744(14) 0.35644(19) 0.3723(3)
H8 H 0.1072 0.3162 0.3610
C26 C 0.09345(16) 0.4092(2) 0.3486(3)
C27 C 0.10920(17) 0.4701(2) 0.3648(3)
H9 H 0.0936 0.5053 0.3479
C28 C 0.18223(13) 0.30660(18) 0.4366(3)
C29 C 0.05330(17) 0.4027(2) 0.3042(3)
C30 C 0.01967(18) 0.4004(2) 0.2704(3)
C31 C 0.3305(4) 0.3312(4) 0.7159(5)
H10 H 0.3565 0.3223 0.6942
C32 C 0.2924(4) 0.3430(6) 0.8152(7)
H11 H 0.2693 0.3527 0.7805
H12 H 0.2954 0.3771 0.8473
H13 H 0.2847 0.3052 0.8385
C33 C 0.3742(4) 0.3271(5) 0.8258(7)
H14 H 0.3940 0.2993 0.8038
H15 H 0.3677 0.3100 0.8693
H16 H 0.3882 0.3675 0.8323
C34 C 0.1966(5) 0.4357(7) 0.6113(9)
H17 H 0.1948 0.4628 0.5740
C35 C 0.1367(6) 0.4938(9) 0.6386(10)
H18 H 0.1386 0.5023 0.5908
H19 H 0.1387 0.5327 0.6637
H20 H 0.1088 0.4736 0.6456
C36 C 0.1808(6) 0.4348(9) 0.7314(10)
H21 H 0.2006 0.3992 0.7344
H22 H 0.1530 0.4236 0.7495
H23 H 0.1941 0.4691 0.7573
C37 C 0.2108(4) 0.6671(4) 0.6362(6)
H24 H 0.2391 0.6854 0.6374
C38 C 0.2193(5) 0.6811(6) 0.7582(6)
H25 H 0.2507 0.6812 0.7511
H26 H 0.2135 0.6514 0.7935
H27 H 0.2104 0.7224 0.7719
C39 C 0.1471(5) 0.6632(6) 0.7060(8)
H28 H 0.1386 0.7018 0.7271
H29 H 0.1402 0.6283 0.7346
H30 H 0.1311 0.6589 0.6622
C40 C 0.0782(5) 0.6825(6) 0.4847(8)
H31 H 0.0783 0.6968 0.4399
C41 C 0.0043(5) 0.7204(8) 0.4932(8)
H32 H -0.0021 0.7146 0.4449
H33 H 0.0134 0.7631 0.5020
H34 H -0.0219 0.7114 0.5168
C42 C 0.0562(6) 0.6785(6) 0.5901(9)
H35 H 0.0568 0.6363 0.6076
H36 H 0.0365 0.7037 0.6154
H37 H 0.0857 0.6960 0.5947
N1 N 0.3338(3) 0.3339(4) 0.7840(5)
N2 N 0.1732(5) 0.4529(7) 0.6624(8)
N3 N 0.1951(4) 0.6640(4) 0.6972(6)
N4 N 0.0401(5) 0.6779(5) 0.5171(7)
O9A O -0.19191(13) 0.55250(18) 0.0295(2)
O10A O -0.14595(16) 0.5871(2) 0.1088(3)
O11A O -0.21528(10) 0.31292(15) 0.02123(19)
O12A O -0.17000(10) 0.25485(14) 0.08867(18)
C21A C -0.16253(18) 0.5425(2) 0.0754(3)
C22A C -0.14819(16) 0.4772(2) 0.0938(3)
C23A C -0.17220(15) 0.4247(2) 0.0698(3)
H7A H -0.1985 0.4297 0.0424
C24A C -0.15674(14) 0.36443(18) 0.0869(3)
C25A C -0.11744(14) 0.35644(19) 0.1277(3)
H8A H -0.1072 0.3162 0.1390
C26A C -0.09345(16) 0.4092(2) 0.1514(3)
C27A C -0.10920(17) 0.4701(2) 0.1352(3)
H9A H -0.0936 0.5053 0.1521
C28A C -0.18223(13) 0.30660(18) 0.0634(3)
C29A C -0.05330(17) 0.4027(2) 0.1958(3)
C30A C -0.01967(18) 0.4004(2) 0.2296(3)
Eu1A Eu -0.276130(5) 0.325950(7) -0.058020(10)
Eu2A Eu -0.180830(7) 0.668400(8) 0.037570(11)
O1A O -0.34049(10) 0.40041(14) -0.07124(19)
O2A O -0.27989(10) 0.43302(14) -0.0131(2)
O3A O -0.25759(12) 0.66123(16) 0.0318(2)
O4A O -0.31048(11) 0.72921(14) -0.00137(19)
O5A O -0.68809(10) 0.69071(15) -0.04580(16)
O6A O -0.73066(9) 0.75402(15) -0.11376(16)
O7A O -0.62718(9) 0.77708(15) -0.37995(16)
O8A O -0.69523(10) 0.79229(18) -0.35019(18)
O13A O -0.29578(18) 0.3396(2) -0.1789(3)
O14A O -0.21959(16) 0.3908(2) -0.1054(3)
O15A O -0.1975(2) 0.6521(3) -0.0796(3)
O16A O -0.1126(3) 0.6670(3) -0.0174(4)
C1A C -0.31781(13) 0.44379(18) -0.0429(2)
C2A C -0.33480(12) 0.50957(17) -0.0463(2)
C3A C -0.37658(12) 0.52240(18) -0.0774(2)
H1A H -0.3941 0.4897 -0.0958
C4A C -0.39266(12) 0.58452(18) -0.0814(2)
C5A C -0.36550(12) 0.63320(18) -0.0551(2)
H2A H -0.3757 0.6745 -0.0584
C6A C -0.32326(12) 0.62076(17) -0.0238(2)
C7A C -0.30815(12) 0.55934(17) -0.0194(2)
H3A H -0.2801 0.5508 0.0015
C8A C -0.29536(15) 0.67400(18) 0.0047(3)
C9A C -0.43582(13) 0.5987(2) -0.1128(2)
C10A C -0.47188(13) 0.6154(2) -0.1362(3)
C11A C -0.51346(13) 0.6358(2) -0.1590(3)
C12A C -0.54996(14) 0.6563(2) -0.1780(3)
C13A C -0.59235(13) 0.6844(2) -0.1935(2)
C14A C -0.62326(13) 0.6866(2) -0.1417(2)
H4A H -0.6162 0.6680 -0.0994
C15A C -0.66425(12) 0.7169(2) -0.1548(2)
C16A C -0.67461(12) 0.7438(2) -0.2182(2)
H5A H -0.7023 0.7627 -0.2271
C17A C -0.64395(12) 0.7430(2) -0.2695(2)
C18A C -0.60305(12) 0.7130(2) -0.2564(2)
H6A H -0.5826 0.7120 -0.2901
C19A C -0.69692(12) 0.72052(19) -0.1010(2)
C20A C -0.65595(13) 0.7727(2) -0.3368(2)
C31A C -0.3305(4) 0.3312(4) -0.2159(5)
H10A H -0.3565 0.3223 -0.1942
C32A C -0.2924(4) 0.3430(6) -0.3152(7)
H11A H -0.2693 0.3527 -0.2805
H12A H -0.2954 0.3771 -0.3473
H13A H -0.2847 0.3052 -0.3385
C33A C -0.3742(4) 0.3271(5) -0.3258(7)
H14A H -0.3940 0.2993 -0.3038
H15A H -0.3677 0.3100 -0.3693
H16A H -0.3882 0.3675 -0.3323
C34A C -0.1966(5) 0.4357(7) -0.1113(9)
H17A H -0.1948 0.4628 -0.0740
C35A C -0.1367(6) 0.4938(9) -0.1386(10)
H18A H -0.1386 0.5023 -0.0908
H19A H -0.1387 0.5327 -0.1637
H20A H -0.1088 0.4736 -0.1456
C36A C -0.1808(6) 0.4348(9) -0.2314(10)
H21A H -0.2006 0.3992 -0.2344
H22A H -0.1530 0.4236 -0.2495
H23A H -0.1941 0.4691 -0.2573
C37A C -0.2108(4) 0.6671(4) -0.1362(6)
H24A H -0.2391 0.6854 -0.1374
C38A C -0.2193(5) 0.6811(6) -0.2582(6)
H25A H -0.2507 0.6812 -0.2511
H26A H -0.2135 0.6514 -0.2935
H27A H -0.2104 0.7224 -0.2719
C39A C -0.1471(5) 0.6632(6) -0.2060(8)
H28A H -0.1386 0.7018 -0.2271
H29A H -0.1402 0.6283 -0.2346
H30A H -0.1311 0.6589 -0.1622
C40A C -0.0782(5) 0.6825(6) 0.0153(8)
H31A H -0.0783 0.6968 0.0601
C41A C -0.0043(5) 0.7204(8) 0.0068(8)
H32A H 0.0021 0.7146 0.0551
H33A H -0.0134 0.7631 -0.0020
H34A H 0.0219 0.7114 -0.0168
C42A C -0.0562(6) 0.6785(6) -0.0901(9)
H35A H -0.0568 0.6363 -0.1076
H36A H -0.0365 0.7037 -0.1154
H37A H -0.0857 0.6960 -0.0947
N1A N -0.3338(3) 0.3339(4) -0.2840(5)
N2A N -0.1732(5) 0.4529(7) -0.1624(8)
N3A N -0.1951(4) 0.6640(4) -0.1972(6)
N4A N -0.0401(5) 0.6779(5) -0.0171(7)
Eu1B Eu 0.776130(5) 0.825950(7) 0.558020(10)
Eu1C Eu -0.776130(5) 0.825950(7) -0.058020(10)
Eu1D Eu 0.723870(5) 0.674050(7) 0.441980(10)
Eu1E Eu -0.723870(5) 0.674050(7) 0.058020(10)
Eu1F Eu 0.223870(5) 0.174050(7) 0.441980(10)
Eu1G Eu -0.223870(5) 0.174050(7) 0.058020(10)
Eu2F Eu -0.680830(7) 0.831600(8) -0.462430(11)
Eu2F_2 Eu 0.319170(7) 0.831600(8) 0.537570(11)
Eu2G Eu -0.319170(7) 0.831600(8) -0.037570(11)
Eu2G_2 Eu 0.680830(7) 0.831600(8) 0.962430(11)
O4F O 0.18952(11) 0.77079(14) 0.49863(19)
O4G O -0.18952(11) 0.77079(14) 0.00137(19)
O5D O 0.31191(10) 0.30929(15) 0.45420(16)
O5E O -0.31191(10) 0.30929(15) 0.04580(16)
O6B O 0.23066(9) 0.25402(15) 0.61376(16)
O6C O -0.23066(9) 0.25402(15) -0.11376(16)
O7F O -0.12718(9) 0.72292(15) 0.12005(16)
O7G O 0.12718(9) 0.72292(15) 0.37995(16)
O8F O -0.19523(10) 0.70771(18) 0.14981(18)
O8G O 0.19523(10) 0.70771(18) 0.35019(18)
O12F O 0.33000(10) 0.24515(14) 0.58867(18)
O12G O -0.33000(10) 0.24515(14) -0.08867(18)
loop_
_geom_bond_atom_site_label_1
_geom_bond_atom_site_label_2
_geom_bond_site_symmetry_1
_geom_bond_site_symmetry_2
Eu1 O1 1_555 1_555
Eu2 O3 1_555 1_555
O1 C1 1_555 1_555
O2 Eu1 1_555 1_555
O3 C8 1_555 1_555
O4 C8 1_555 1_555
O5 C19 1_555 1_555
O6 C19 1_555 1_555
O7 C20 1_555 1_555
O8 C20 1_555 1_555
O9 Eu2 1_555 1_555
O10 Eu2 1_555 1_555
O11 Eu1 1_555 1_555
O12 C28 1_555 1_555
O13 Eu1 1_555 1_555
O14 Eu1 1_555 1_555
O15 Eu2 1_555 1_555
O16 Eu2 1_555 1_555
C1 O2 1_555 1_555
C2 C1 1_555 1_555
C3 C2 1_555 1_555
H1 C3 1_555 1_555
C4 C3 1_555 1_555
C5 C4 1_555 1_555
H2 C5 1_555 1_555
C6 C5 1_555 1_555
C7 C2 1_555 1_555
H3 C7 1_555 1_555
C8 C6 1_555 1_555
C9 C4 1_555 1_555
C10 C9 1_555 1_555
C11 C10 1_555 1_555
C12 C11 1_555 1_555
C13 C12 1_555 1_555
C14 C13 1_555 1_555
H4 C14 1_555 1_555
C15 C14 1_555 1_555
C16 C15 1_555 1_555
H5 C16 1_555 1_555
C17 C16 1_555 1_555
C18 C13 1_555 1_555
H6 C18 1_555 1_555
C19 C15 1_555 1_555
C20 C17 1_555 1_555
C21 O9 1_555 1_555
C22 C21 1_555 1_555
C23 C22 1_555 1_555
H7 C23 1_555 1_555
C24 C23 1_555 1_555
C25 C24 1_555 1_555
H8 C25 1_555 1_555
C26 C25 1_555 1_555
C27 C22 1_555 1_555
H9 C27 1_555 1_555
C28 O11 1_555 1_555
C29 C26 1_555 1_555
C30 C29 1_555 1_555
C31 O13 1_555 1_555
H10 C31 1_555 1_555
C32 H11 1_555 1_555
H12 C32 1_555 1_555
H13 C32 1_555 1_555
C33 H14 1_555 1_555
H15 C33 1_555 1_555
H16 C33 1_555 1_555
C34 O14 1_555 1_555
H17 C34 1_555 1_555
C35 H18 1_555 1_555
H19 C35 1_555 1_555
H20 C35 1_555 1_555
C36 H21 1_555 1_555
H22 C36 1_555 1_555
H23 C36 1_555 1_555
C37 O15 1_555 1_555
H24 C37 1_555 1_555
C38 H25 1_555 1_555
H26 C38 1_555 1_555
H27 C38 1_555 1_555
C39 H28 1_555 1_555
H29 C39 1_555 1_555
H30 C39 1_555 1_555
C40 O16 1_555 1_555
H31 C40 1_555 1_555
C41 H32 1_555 1_555
H33 C41 1_555 1_555
H34 C41 1_555 1_555
C42 H35 1_555 1_555
H36 C42 1_555 1_555
H37 C42 1_555 1_555
N1 C31 1_555 1_555
N2 C34 1_555 1_555
N3 C37 1_555 1_555
N4 C40 1_555 1_555
O9A C21A 1_555 1_555
O10A C21A 1_555 1_555
O11A C28A 1_555 1_555
O12A C28A 1_555 1_555
C21A C22A 1_555 1_555
C22A C23A 1_555 1_555
C23A H7A 1_555 1_555
C24A C23A 1_555 1_555
C25A C24A 1_555 1_555
H8A C25A 1_555 1_555
C26A C25A 1_555 1_555
C27A C22A 1_555 1_555
H9A C27A 1_555 1_555
C28A C24A 1_555 1_555
C29A C26A 1_555 1_555
C30A C30 1_555 1_555
Eu1A O11A 1_555 1_555
Eu2A O9A 1_555 1_555
O1A Eu1A 1_555 1_555
O2A Eu1A 1_555 1_555
O3A Eu2A 1_555 1_555
O4A C8A 1_555 1_555
O5A C19A 1_555 1_555
O6A C19A 1_555 1_555
O7A C20A 1_555 1_555
O8A C20A 1_555 1_555
O13A Eu1A 1_555 1_555
O14A Eu1A 1_555 1_555
O15A Eu2A 1_555 1_555
O16A Eu2A 1_555 1_555
C1A O1A 1_555 1_555
C2A C1A 1_555 1_555
C3A C2A 1_555 1_555
H1A C3A 1_555 1_555
C4A C3A 1_555 1_555
C5A C4A 1_555 1_555
H2A C5A 1_555 1_555
C6A C5A 1_555 1_555
C7A C2A 1_555 1_555
H3A C7A 1_555 1_555
C8A O3A 1_555 1_555
C9A C4A 1_555 1_555
C10A C9A 1_555 1_555
C11A C10A 1_555 1_555
C12A C11A 1_555 1_555
C13A C12A 1_555 1_555
C14A C13A 1_555 1_555
H4A C14A 1_555 1_555
C15A C14A 1_555 1_555
C16A C15A 1_555 1_555
H5A C16A 1_555 1_555
C17A C16A 1_555 1_555
C18A C13A 1_555 1_555
H6A C18A 1_555 1_555
C19A C15A 1_555 1_555
C20A C17A 1_555 1_555
C31A O13A 1_555 1_555
H10A C31A 1_555 1_555
C32A H11A 1_555 1_555
H12A C32A 1_555 1_555
H13A C32A 1_555 1_555
C33A H14A 1_555 1_555
H15A C33A 1_555 1_555
H16A C33A 1_555 1_555
C34A O14A 1_555 1_555
H17A C34A 1_555 1_555
C35A H18A 1_555 1_555
H19A C35A 1_555 1_555
H20A C35A 1_555 1_555
C36A H21A 1_555 1_555
H22A C36A 1_555 1_555
H23A C36A 1_555 1_555
C37A O15A 1_555 1_555
H24A C37A 1_555 1_555
C38A H25A 1_555 1_555
H26A C38A 1_555 1_555
H27A C38A 1_555 1_555
C39A H28A 1_555 1_555
H29A C39A 1_555 1_555
H30A C39A 1_555 1_555
C40A O16A 1_555 1_555
H31A C40A 1_555 1_555
C41A H32A 1_555 1_555
H33A C41A 1_555 1_555
H34A C41A 1_555 1_555
C42A H35A 1_555 1_555
H36A C42A 1_555 1_555
H37A C42A 1_555 1_555
N1A C31A 1_555 1_555
N2A C34A 1_555 1_555
N3A C37A 1_555 1_555
N4A C40A 1_555 1_555
Eu1B O6 1_555 1_555
Eu1C O6A 1_555 1_555
Eu1D O5 1_555 1_555
Eu1E O5A 1_555 1_555
Eu1F O12 1_555 1_555
Eu1G O12A 1_555 1_555
Eu2F O7A 1_555 1_555
Eu2F_2 O4 1_555 1_555
Eu2G O4A 1_555 1_555
Eu2G_2 O7 1_555 1_555
O4F Eu2 1_555 1_555
O4G Eu2A 1_555 1_555
O5D Eu1 1_555 1_555
O5E Eu1A 1_555 1_555
O6B Eu1 1_555 1_555
O6C Eu1A 1_555 1_555
O7F Eu2A 1_555 1_555
O7G Eu2 1_555 1_555
O8F Eu2A 1_555 1_555
O8G Eu2 1_555 1_555
O12F Eu1 1_555 1_555
O12G Eu1A 1_555 1_555
O8 Eu2G_2 1_555 1_555
O10 C21 1_555 1_555
C6 C7 1_555 1_555
C17 C18 1_555 1_555
C24 C28 1_555 1_555
C26 C27 1_555 1_555
C32 N1 1_555 1_555
C33 N1 1_555 1_555
C35 N2 1_555 1_555
C36 N2 1_555 1_555
C38 N3 1_555 1_555
C39 N3 1_555 1_555
C41 N4 1_555 1_555
C42 N4 1_555 1_555
O10A Eu2A 1_555 1_555
C26A C27A 1_555 1_555
C29A C30A 1_555 1_555
O2A C1A 1_555 1_555
O8A Eu2F 1_555 1_555
C6A C7A 1_555 1_555
C6A C8A 1_555 1_555
C17A C18A 1_555 1_555
C32A N1A 1_555 1_555
C33A N1A 1_555 1_555
C35A N2A 1_555 1_555
C36A N2A 1_555 1_555
C38A N3A 1_555 1_555
C39A N3A 1_555 1_555
C41A N4A 1_555 1_555
C42A N4A 1_555 1_555

#END
