
#######################################################################
#
#                 Cambridge Crystallographic Data Centre
#                                CCDC 
#
#######################################################################
#
# If this CIF has been generated from an entry in the Cambridge 
# Structural Database, then it will include bibliographic, chemical, 
# crystal, experimental, refinement or atomic coordinate data resulting 
# from the CCDC's data processing and validation procedures.
#
#######################################################################

data_EYOCUS
_chemical_formula_moiety         '(C84 H74 N8 O32 Tb4)n'
_symmetry_cell_setting           monoclinic
_symmetry_space_group_name_H-M   'C 2/c'
_symmetry_Int_Tables_number      15
_space_group_name_Hall           '-C 2yc'
loop_
_symmetry_equiv_pos_site_id
_symmetry_equiv_pos_as_xyz
1 x,y,z
2 -x,y,1/2-z
3 1/2+x,1/2+y,z
4 1/2-x,1/2+y,1/2-z
5 -x,-y,-z
6 x,-y,1/2+z
7 1/2-x,1/2-y,-z
8 1/2+x,1/2-y,1/2+z
_cell_length_a                   29.9342(11)
_cell_length_b                   21.1600(7)
_cell_length_c                   19.5148(7)
_cell_angle_alpha                90
_cell_angle_beta                 93.9350(10)
_cell_angle_gamma                90
_cell_volume                     12331.7
loop_
_atom_site_label
_atom_site_type_symbol
_atom_site_fract_x
_atom_site_fract_y
_atom_site_fract_z
Tb1 Tb 0.223680(9) 0.174220(12) 0.441800(15)
Tb2 Tb 0.318850(11) -0.169140(13) 0.537570(16)
O1 O 0.22008(16) 0.0679(2) 0.4869(3)
O2 O 0.15986(15) 0.1007(2) 0.4279(3)
O3 O 0.24251(18) -0.1611(2) 0.5321(3)
O4 O 0.18995(18) -0.2289(2) 0.4982(3)
O5 O -0.12742(15) -0.2770(2) 0.1198(2)
O6 O -0.19564(16) -0.2921(3) 0.1496(3)
O7 O -0.18837(15) -0.1907(2) 0.4551(2)
O8 O -0.23141(15) -0.2546(2) 0.3871(2)
O9 O 0.3460(12) -0.0891(7) 0.6143(8)
O10 O 0.3129(9) -0.0552(10) 0.5220(10)
O11 O 0.28407(15) 0.1858(2) 0.5201(3)
O12 O 0.32892(15) 0.2448(2) 0.5875(3)
O13 O 0.2039(3) 0.1600(4) 0.3216(3)
O14 O 0.3867(3) -0.1584(7) 0.4886(9)
O15 O 0.2814(6) 0.1086(9) 0.4005(9)
O16 O 0.3016(4) -0.1522(4) 0.4211(3)
C1 C 0.1824(2) 0.0572(3) 0.4566(3)
C2 C 0.1657(2) -0.0092(3) 0.4538(3)
C3 C 0.1234(2) -0.0222(3) 0.4231(3)
H1 H 0.1056 0.0107 0.4053
C4 C 0.1076(2) -0.0834(3) 0.4189(3)
C5 C 0.1344(2) -0.1328(3) 0.4463(3)
H2 H 0.1237 -0.1741 0.4440
C6 C 0.1764(2) -0.1209(3) 0.4765(3)
C7 C 0.1921(2) -0.0587(3) 0.4810(3)
H3 H 0.2202 -0.0502 0.5022
C8 C 0.2050(2) -0.1741(3) 0.5042(4)
C9 C 0.0638(2) -0.0983(3) 0.3881(4)
C10 C 0.0279(2) -0.1155(3) 0.3642(4)
C11 C -0.0136(2) -0.1363(3) 0.3413(4)
C12 C -0.0500(2) -0.1568(3) 0.3232(4)
C13 C -0.0929(2) -0.1852(3) 0.3067(4)
C14 C -0.1040(2) -0.2129(3) 0.2441(4)
H4 H -0.0837 -0.2118 0.2101
C15 C -0.1447(2) -0.2420(3) 0.2310(3)
C16 C -0.1749(2) -0.2441(3) 0.2814(3)
H5 H -0.2024 -0.2640 0.2725
C17 C -0.1646(2) -0.2167(3) 0.3454(4)
C18 C -0.1239(2) -0.1876(3) 0.3589(4)
H6 H -0.1167 -0.1695 0.4017
C19 C -0.1568(2) -0.2726(3) 0.1627(4)
C20 C -0.1971(2) -0.2207(3) 0.3999(4)
C21 C 0.3367(10) -0.0436(5) 0.5753(12)
C22 C 0.3516(3) 0.0215(3) 0.5935(5)
C23 C 0.3905(3) 0.0297(4) 0.6357(5)
H7 H 0.4063 -0.0054 0.6531
C24 C 0.4059(3) 0.0908(4) 0.6521(5)
C25 C 0.3817(3) 0.1429(4) 0.6275(4)
H8 H 0.3918 0.1835 0.6386
C26 C 0.3427(3) 0.1349(4) 0.5868(5)
C27 C 0.3276(3) 0.0743(4) 0.5695(5)
H9 H 0.3014 0.0691 0.5417
C28 C 0.3168(3) 0.1922(4) 0.5630(5)
C29 C 0.4457(3) 0.0972(4) 0.6966(5)
C30 C 0.4802(3) 0.0993(4) 0.7304(5)
C31 C 0.1709(8) 0.1694(10) 0.2854(12)
H10 H 0.1459 0.1804 0.3085
C32 C 0.2040(7) 0.1544(11) 0.1838(10)
H11 H 0.2293 0.1479 0.2160
H12 H 0.2097 0.1896 0.1547
H13 H 0.1992 0.1171 0.1562
C33 C 0.1244(7) 0.1727(10) 0.1745(11)
H14 H 0.0990 0.1804 0.2007
H15 H 0.1199 0.1343 0.1488
H16 H 0.1279 0.2073 0.1434
C34 C 0.4243(4) -0.1813(7) 0.5073(8)
H17 H 0.4278 -0.1979 0.5515
C35 C 0.4524(7) -0.1619(9) 0.3984(8)
H18 H 0.4344 -0.1244 0.3975
H19 H 0.4372 -0.1942 0.3712
H20 H 0.4807 -0.1528 0.3800
C36 C 0.4998(5) -0.2173(9) 0.4940(10)
H21 H 0.4982 -0.2268 0.5419
H22 H 0.5256 -0.1915 0.4880
H23 H 0.5022 -0.2560 0.4687
C37 C 0.2975(5) 0.1004(7) 0.3440(8)
H24 H 0.2913 0.1292 0.3086
C38 C 0.3541(5) 0.0644(9) 0.2769(7)
H25 H 0.3368 0.0650 0.2337
H26 H 0.3770 0.0327 0.2758
H27 H 0.3677 0.1050 0.2852
C39 C 0.3564(5) 0.0504(9) 0.3974(7)
H28 H 0.3405 0.0401 0.4370
H29 H 0.3693 0.0918 0.4030
H30 H 0.3797 0.0199 0.3925
C40 C 0.2866(6) -0.1668(9) 0.3630(6)
H31 H 0.2562 -0.1763 0.3589
C41 C 0.2808(8) -0.1852(13) 0.2420(8)
H32 H 0.2500 -0.1899 0.2521
H33 H 0.2911 -0.2238 0.2227
H34 H 0.2834 -0.1514 0.2098
C42 C 0.3556(6) -0.1642(11) 0.3035(12)
H35 H 0.3685 -0.1585 0.3495
H36 H 0.3623 -0.1282 0.2762
H37 H 0.3679 -0.2015 0.2841
N1 N 0.1645(6) 0.1671(9) 0.2208(9)
N2 N 0.4600(4) -0.1840(6) 0.4691(7)
N3 N 0.3241(4) 0.0494(6) 0.3335(6)
N4 N 0.3076(6) -0.1710(9) 0.3047(7)
O9A O 0.6540(12) -0.0891(7) 0.8857(8)
O10A O 0.6871(9) -0.0552(10) 0.9780(10)
O11A O 0.71593(15) 0.1858(2) 0.9799(3)
O12A O 0.67108(15) 0.2448(2) 0.9125(3)
C21A C 0.6633(10) -0.0436(5) 0.9247(12)
C22A C 0.6484(3) 0.0215(3) 0.9065(5)
C23A C 0.6095(3) 0.0297(4) 0.8643(5)
H7A H 0.5937 -0.0054 0.8469
C24A C 0.5941(3) 0.0908(4) 0.8479(5)
C25A C 0.6183(3) 0.1429(4) 0.8725(4)
H8A H 0.6082 0.1835 0.8614
C26A C 0.6573(3) 0.1349(4) 0.9132(5)
C27A C 0.6724(3) 0.0743(4) 0.9305(5)
H9A H 0.6986 0.0691 0.9583
C28A C 0.6832(3) 0.1922(4) 0.9370(5)
C29A C 0.5543(3) 0.0972(4) 0.8034(5)
C30A C 0.5198(3) 0.0993(4) 0.7696(5)
Tb1A Tb 0.776320(9) 0.174220(12) 1.058200(15)
Tb2A Tb 0.681150(11) -0.169140(13) 0.962430(16)
O1A O 0.77992(16) 0.0679(2) 1.0131(3)
O2A O 0.84014(15) 0.1007(2) 1.0721(3)
O3A O 0.75749(18) -0.1611(2) 0.9679(3)
O4A O 0.81005(18) -0.2289(2) 1.0018(3)
O5A O 1.12742(15) -0.2770(2) 1.3802(2)
O6A O 1.19564(16) -0.2921(3) 1.3504(3)
O7A O 1.18837(15) -0.1907(2) 1.0449(2)
O8A O 1.23141(15) -0.2546(2) 1.1129(2)
O13A O 0.7961(3) 0.1600(4) 1.1784(3)
O14A O 0.6133(3) -0.1584(7) 1.0114(9)
O15A O 0.7186(6) 0.1086(9) 1.0995(9)
O16A O 0.6984(4) -0.1522(4) 1.0789(3)
C1A C 0.8176(2) 0.0572(3) 1.0434(3)
C2A C 0.8343(2) -0.0092(3) 1.0462(3)
C3A C 0.8766(2) -0.0222(3) 1.0769(3)
H1A H 0.8944 0.0107 1.0947
C4A C 0.8924(2) -0.0834(3) 1.0811(3)
C5A C 0.8656(2) -0.1328(3) 1.0537(3)
H2A H 0.8763 -0.1741 1.0560
C6A C 0.8236(2) -0.1209(3) 1.0235(3)
C7A C 0.8079(2) -0.0587(3) 1.0190(3)
H3A H 0.7798 -0.0502 0.9978
C8A C 0.7950(2) -0.1741(3) 0.9958(4)
C9A C 0.9362(2) -0.0983(3) 1.1119(4)
C10A C 0.9721(2) -0.1155(3) 1.1358(4)
C11A C 1.0136(2) -0.1363(3) 1.1587(4)
C12A C 1.0500(2) -0.1568(3) 1.1768(4)
C13A C 1.0929(2) -0.1852(3) 1.1933(4)
C14A C 1.1040(2) -0.2129(3) 1.2559(4)
H4A H 1.0837 -0.2118 1.2899
C15A C 1.1447(2) -0.2420(3) 1.2690(3)
C16A C 1.1749(2) -0.2441(3) 1.2186(3)
H5A H 1.2024 -0.2640 1.2275
C17A C 1.1646(2) -0.2167(3) 1.1546(4)
C18A C 1.1239(2) -0.1876(3) 1.1411(4)
H6A H 1.1167 -0.1695 1.0983
C19A C 1.1568(2) -0.2726(3) 1.3373(4)
C20A C 1.1971(2) -0.2207(3) 1.1001(4)
C31A C 0.8291(8) 0.1694(10) 1.2146(12)
H10A H 0.8541 0.1804 1.1915
C32A C 0.7960(7) 0.1544(11) 1.3162(10)
H11A H 0.7707 0.1479 1.2840
H12A H 0.7903 0.1896 1.3453
H13A H 0.8008 0.1171 1.3438
C33A C 0.8756(7) 0.1727(10) 1.3255(11)
H14A H 0.9010 0.1804 1.2993
H15A H 0.8801 0.1343 1.3512
H16A H 0.8721 0.2073 1.3566
C34A C 0.5757(4) -0.1813(7) 0.9927(8)
H17A H 0.5722 -0.1979 0.9485
C35A C 0.5476(7) -0.1619(9) 1.1016(8)
H18A H 0.5656 -0.1244 1.1025
H19A H 0.5628 -0.1942 1.1288
H20A H 0.5193 -0.1528 1.1200
C36A C 0.5002(5) -0.2173(9) 1.0060(10)
H21A H 0.5018 -0.2268 0.9581
H22A H 0.4744 -0.1915 1.0120
H23A H 0.4978 -0.2560 1.0313
C37A C 0.7025(5) 0.1004(7) 1.1560(8)
H24A H 0.7087 0.1292 1.1914
C38A C 0.6459(5) 0.0644(9) 1.2231(7)
H25A H 0.6632 0.0650 1.2663
H26A H 0.6230 0.0327 1.2242
H27A H 0.6323 0.1050 1.2148
C39A C 0.6436(5) 0.0504(9) 1.1026(7)
H28A H 0.6595 0.0401 1.0630
H29A H 0.6307 0.0918 1.0970
H30A H 0.6203 0.0199 1.1075
C40A C 0.7134(6) -0.1668(9) 1.1370(6)
H31A H 0.7438 -0.1763 1.1411
C41A C 0.7192(8) -0.1852(13) 1.2580(8)
H32A H 0.7500 -0.1899 1.2479
H33A H 0.7089 -0.2238 1.2773
H34A H 0.7166 -0.1514 1.2902
C42A C 0.6444(6) -0.1642(11) 1.1965(12)
H35A H 0.6315 -0.1585 1.1505
H36A H 0.6377 -0.1282 1.2238
H37A H 0.6321 -0.2015 1.2159
N1A N 0.8355(6) 0.1671(9) 1.2792(9)
N2A N 0.5400(4) -0.1840(6) 1.0309(7)
N3A N 0.6759(4) 0.0494(6) 1.1665(6)
N4A N 0.6924(6) -0.1710(9) 1.1953(7)
Tb1B Tb -0.276320(9) -0.325780(12) 0.441800(15)
Tb1C Tb 1.276320(9) -0.325780(12) 1.058200(15)
Tb1D Tb -0.223680(9) -0.174220(12) 0.558200(15)
Tb1E Tb 1.223680(9) -0.174220(12) 0.941800(15)
Tb1F Tb 0.276320(9) 0.325780(12) 0.558200(15)
Tb1G Tb 0.723680(9) 0.325780(12) 0.941800(15)
Tb2F Tb 0.181150(11) -0.330860(13) 0.462430(16)
Tb2F_2 Tb 1.181150(11) -0.330860(13) 1.462430(16)
Tb2G Tb -0.181150(11) -0.330860(13) 0.037570(16)
Tb2G_2 Tb 0.818850(11) -0.330860(13) 1.037570(16)
O4F O 0.31005(18) -0.2711(2) 0.5018(3)
O4G O 0.68995(18) -0.2711(2) 0.9982(3)
O5F O 0.62742(15) -0.2230(2) 0.8802(2)
O5G O 0.37258(15) -0.2230(2) 0.6198(2)
O6F O 0.69564(16) -0.2079(3) 0.8504(3)
O6G O 0.30436(16) -0.2079(3) 0.6496(3)
O7D O 0.18837(15) 0.1907(2) 0.5449(2)
O7E O 0.81163(15) 0.1907(2) 0.9551(2)
O8B O 0.26859(15) 0.2454(2) 0.3871(2)
O8C O 0.73141(15) 0.2454(2) 1.1129(2)
O12F O 0.17108(15) 0.2552(2) 0.4125(3)
O12G O 0.82892(15) 0.2552(2) 1.0875(3)
loop_
_geom_bond_atom_site_label_1
_geom_bond_atom_site_label_2
_geom_bond_site_symmetry_1
_geom_bond_site_symmetry_2
Tb1 O1 1_555 1_555
Tb2 O3 1_555 1_555
O1 C1 1_555 1_555
O2 Tb1 1_555 1_555
O3 C8 1_555 1_555
O4 C8 1_555 1_555
O5 C19 1_555 1_555
O6 C19 1_555 1_555
O7 C20 1_555 1_555
O8 C20 1_555 1_555
O9 Tb2 1_555 1_555
O10 Tb2 1_555 1_555
O11 Tb1 1_555 1_555
O12 C28 1_555 1_555
O13 Tb1 1_555 1_555
O14 Tb2 1_555 1_555
O15 Tb1 1_555 1_555
O16 Tb2 1_555 1_555
C1 O2 1_555 1_555
C2 C1 1_555 1_555
C3 C2 1_555 1_555
H1 C3 1_555 1_555
C4 C3 1_555 1_555
C5 C4 1_555 1_555
H2 C5 1_555 1_555
C6 C5 1_555 1_555
C7 C2 1_555 1_555
H3 C7 1_555 1_555
C8 C6 1_555 1_555
C9 C4 1_555 1_555
C10 C9 1_555 1_555
C11 C10 1_555 1_555
C12 C11 1_555 1_555
C13 C12 1_555 1_555
C14 C13 1_555 1_555
H4 C14 1_555 1_555
C15 C14 1_555 1_555
C16 C15 1_555 1_555
H5 C16 1_555 1_555
C17 C16 1_555 1_555
C18 C13 1_555 1_555
H6 C18 1_555 1_555
C19 C15 1_555 1_555
C20 C17 1_555 1_555
C21 O9 1_555 1_555
C22 C21 1_555 1_555
C23 C22 1_555 1_555
H7 C23 1_555 1_555
C24 C23 1_555 1_555
C25 C24 1_555 1_555
H8 C25 1_555 1_555
C26 C25 1_555 1_555
C27 C22 1_555 1_555
H9 C27 1_555 1_555
C28 O11 1_555 1_555
C29 C24 1_555 1_555
C30 C29 1_555 1_555
C31 O13 1_555 1_555
H10 C31 1_555 1_555
C32 H11 1_555 1_555
H12 C32 1_555 1_555
H13 C32 1_555 1_555
C33 H14 1_555 1_555
H15 C33 1_555 1_555
H16 C33 1_555 1_555
C34 O14 1_555 1_555
H17 C34 1_555 1_555
C35 H18 1_555 1_555
H19 C35 1_555 1_555
H20 C35 1_555 1_555
C36 H21 1_555 1_555
H22 C36 1_555 1_555
H23 C36 1_555 1_555
C37 O15 1_555 1_555
H24 C37 1_555 1_555
C38 H25 1_555 1_555
H26 C38 1_555 1_555
H27 C38 1_555 1_555
C39 H28 1_555 1_555
H29 C39 1_555 1_555
H30 C39 1_555 1_555
C40 O16 1_555 1_555
H31 C40 1_555 1_555
C41 H32 1_555 1_555
H33 C41 1_555 1_555
H34 C41 1_555 1_555
C42 H35 1_555 1_555
H36 C42 1_555 1_555
H37 C42 1_555 1_555
N1 C31 1_555 1_555
N2 C34 1_555 1_555
N3 C37 1_555 1_555
N4 C40 1_555 1_555
O9A C21A 1_555 1_555
O10A C21A 1_555 1_555
O11A C28A 1_555 1_555
O12A C28A 1_555 1_555
C21A C22A 1_555 1_555
C22A C23A 1_555 1_555
C23A H7A 1_555 1_555
C24A C23A 1_555 1_555
C25A C24A 1_555 1_555
H8A C25A 1_555 1_555
C26A C25A 1_555 1_555
C27A C22A 1_555 1_555
H9A C27A 1_555 1_555
C28A C26A 1_555 1_555
C29A C24A 1_555 1_555
C30A C30 1_555 1_555
Tb1A O11A 1_555 1_555
Tb2A O9A 1_555 1_555
O1A Tb1A 1_555 1_555
O2A Tb1A 1_555 1_555
O3A Tb2A 1_555 1_555
O4A C8A 1_555 1_555
O5A C19A 1_555 1_555
O6A C19A 1_555 1_555
O7A C20A 1_555 1_555
O8A C20A 1_555 1_555
O13A Tb1A 1_555 1_555
O14A Tb2A 1_555 1_555
O15A Tb1A 1_555 1_555
O16A Tb2A 1_555 1_555
C1A O1A 1_555 1_555
C2A C1A 1_555 1_555
C3A C2A 1_555 1_555
H1A C3A 1_555 1_555
C4A C3A 1_555 1_555
C5A C4A 1_555 1_555
H2A C5A 1_555 1_555
C6A C5A 1_555 1_555
C7A C2A 1_555 1_555
H3A C7A 1_555 1_555
C8A O3A 1_555 1_555
C9A C4A 1_555 1_555
C10A C9A 1_555 1_555
C11A C10A 1_555 1_555
C12A C11A 1_555 1_555
C13A C12A 1_555 1_555
C14A C13A 1_555 1_555
H4A C14A 1_555 1_555
C15A C14A 1_555 1_555
C16A C15A 1_555 1_555
H5A C16A 1_555 1_555
C17A C16A 1_555 1_555
C18A C13A 1_555 1_555
H6A C18A 1_555 1_555
C19A C15A 1_555 1_555
C20A C17A 1_555 1_555
C31A O13A 1_555 1_555
H10A C31A 1_555 1_555
C32A H11A 1_555 1_555
H12A C32A 1_555 1_555
H13A C32A 1_555 1_555
C33A H14A 1_555 1_555
H15A C33A 1_555 1_555
H16A C33A 1_555 1_555
C34A O14A 1_555 1_555
H17A C34A 1_555 1_555
C35A H18A 1_555 1_555
H19A C35A 1_555 1_555
H20A C35A 1_555 1_555
C36A H21A 1_555 1_555
H22A C36A 1_555 1_555
H23A C36A 1_555 1_555
C37A O15A 1_555 1_555
H24A C37A 1_555 1_555
C38A H25A 1_555 1_555
H26A C38A 1_555 1_555
H27A C38A 1_555 1_555
C39A H28A 1_555 1_555
H29A C39A 1_555 1_555
H30A C39A 1_555 1_555
C40A O16A 1_555 1_555
H31A C40A 1_555 1_555
C41A H32A 1_555 1_555
H33A C41A 1_555 1_555
H34A C41A 1_555 1_555
C42A H35A 1_555 1_555
H36A C42A 1_555 1_555
H37A C42A 1_555 1_555
N1A C31A 1_555 1_555
N2A C34A 1_555 1_555
N3A C37A 1_555 1_555
N4A C40A 1_555 1_555
Tb1B O8 1_555 1_555
Tb1C O8A 1_555 1_555
Tb1D O7 1_555 1_555
Tb1E O7A 1_555 1_555
Tb1F O12 1_555 1_555
Tb1G O12A 1_555 1_555
Tb2F O4 1_555 1_555
Tb2F_2 O5A 1_555 1_555
Tb2G O5 1_555 1_555
Tb2G_2 O4A 1_555 1_555
O4F Tb2 1_555 1_555
O4G Tb2A 1_555 1_555
O5F Tb2A 1_555 1_555
O5G Tb2 1_555 1_555
O6F Tb2A 1_555 1_555
O6G Tb2 1_555 1_555
O7D Tb1 1_555 1_555
O7E Tb1A 1_555 1_555
O8B Tb1 1_555 1_555
O8C Tb1A 1_555 1_555
O12F Tb1 1_555 1_555
O12G Tb1A 1_555 1_555
O6 Tb2G 1_555 1_555
O10 C21 1_555 1_555
C6 C7 1_555 1_555
C17 C18 1_555 1_555
C26 C27 1_555 1_555
C26 C28 1_555 1_555
C32 N1 1_555 1_555
C33 N1 1_555 1_555
C35 N2 1_555 1_555
C36 N2 1_555 1_555
C38 N3 1_555 1_555
C39 N3 1_555 1_555
C41 N4 1_555 1_555
C42 N4 1_555 1_555
O10A Tb2A 1_555 1_555
C26A C27A 1_555 1_555
C29A C30A 1_555 1_555
O2A C1A 1_555 1_555
O6A Tb2F_2 1_555 1_555
C6A C7A 1_555 1_555
C6A C8A 1_555 1_555
C17A C18A 1_555 1_555
C32A N1A 1_555 1_555
C33A N1A 1_555 1_555
C35A N2A 1_555 1_555
C36A N2A 1_555 1_555
C38A N3A 1_555 1_555
C39A N3A 1_555 1_555
C41A N4A 1_555 1_555
C42A N4A 1_555 1_555

#END
