
#######################################################################
#
#                 Cambridge Crystallographic Data Centre
#                                CCDC 
#
#######################################################################
#
# If this CIF has been generated from an entry in the Cambridge 
# Structural Database, then it will include bibliographic, chemical, 
# crystal, experimental, refinement or atomic coordinate data resulting 
# from the CCDC's data processing and validation procedures.
#
#######################################################################

data_EYOCOM
_chemical_formula_moiety         '(C84 H74 Er4 N8 O32)n'
_symmetry_cell_setting           monoclinic
_symmetry_space_group_name_H-M   'C 2/c'
_symmetry_Int_Tables_number      15
_space_group_name_Hall           '-C 2yc'
loop_
_symmetry_equiv_pos_site_id
_symmetry_equiv_pos_as_xyz
1 x,y,z
2 -x,y,1/2-z
3 1/2+x,1/2+y,z
4 1/2-x,1/2+y,1/2-z
5 -x,-y,-z
6 x,-y,1/2+z
7 1/2-x,1/2-y,-z
8 1/2+x,1/2-y,1/2+z
_cell_length_a                   29.9258(10)
_cell_length_b                   21.0418(7)
_cell_length_c                   19.4326(6)
_cell_angle_alpha                90
_cell_angle_beta                 94.0000(10)
_cell_angle_gamma                90
_cell_volume                     12206.8
loop_
_atom_site_label
_atom_site_type_symbol
_atom_site_fract_x
_atom_site_fract_y
_atom_site_fract_z
Er1 Er 0.276590(11) 0.175000(14) 1.057660(18)
Er2 Er 0.181990(13) -0.170010(14) 0.962550(19)
O1 O 0.2791(2) 0.0697(3) 1.0168(4)
O2 O 0.3397(2) 0.1026(3) 1.0708(4)
O3 O 0.2582(2) -0.1600(3) 0.9662(4)
O4 O 0.3091(2) -0.2283(2) 1.0023(3)
O5 O 0.62853(18) -0.2770(3) 1.3816(3)
O6 O 0.69703(18) -0.2904(3) 1.3518(3)
O7 O 0.68897(18) -0.1925(3) 1.0449(3)
O8 O 0.73144(17) -0.2568(3) 1.1116(3)
O9 O 0.1472(3) -0.0911(3) 0.8915(4)
O10 O 0.1908(2) -0.0561(3) 0.9738(4)
O11 O 0.2166(2) 0.1845(3) 0.9807(4)
O12 O 0.1717(2) 0.2442(3) 0.9122(3)
O13 O 0.2955(3) 0.1609(4) 1.1774(5)
O14 O 0.2217(3) 0.1133(4) 1.1118(5)
O15 O 0.1162(4) -0.1640(4) 1.0166(5)
O16 O 0.2013(3) -0.1557(4) 1.0777(5)
C1 C 0.3172(3) 0.0585(4) 1.0431(5)
C2 C 0.3337(3) -0.0085(4) 1.0466(5)
C3 C 0.3766(3) -0.0219(4) 1.0774(5)
H1 H 0.3944 0.0111 1.0958
C4 C 0.3926(3) -0.0831(4) 1.0808(5)
C5 C 0.3648(3) -0.1329(4) 1.0530(5)
H2 H 0.3753 -0.1745 1.0547
C6 C 0.3231(3) -0.1203(4) 1.0239(5)
C7 C 0.3078(3) -0.0584(4) 1.0183(5)
H3 H 0.2800 -0.0500 0.9956
C8 C 0.2946(3) -0.1740(4) 0.9950(6)
C9 C 0.4360(3) -0.0983(4) 1.1113(5)
C10 C 0.4729(3) -0.1142(4) 1.1331(5)
C11 C 0.5141(3) -0.1348(4) 1.1586(5)
C12 C 0.5501(3) -0.1559(4) 1.1768(5)
C13 C 0.5935(3) -0.1854(4) 1.1923(5)
C14 C 0.6045(3) -0.2116(4) 1.2574(4)
H4 H 0.5847 -0.2087 1.2921
C15 C 0.6456(3) -0.2420(4) 1.2693(4)
C16 C 0.6749(3) -0.2449(4) 1.2182(4)
H5 H 0.7016 -0.2671 1.2268
C17 C 0.6664(3) -0.2157(4) 1.1530(4)
C18 C 0.6232(3) -0.1871(4) 1.1418(5)
H6 H 0.6150 -0.1692 1.0990
C19 C 0.6579(3) -0.2715(4) 1.3384(4)
C20 C 0.6984(3) -0.2212(4) 1.1002(4)
C21 C 0.1631(4) -0.0456(4) 0.9253(6)
C22 C 0.1474(3) 0.0194(4) 0.9072(5)
C23 C 0.1725(3) 0.0729(4) 0.9313(5)
H7 H 0.1989 0.0674 0.9589
C24 C 0.1575(3) 0.1341(4) 0.9133(5)
C25 C 0.1187(3) 0.1431(4) 0.8726(5)
H8 H 0.1090 0.1839 0.8609
C26 C 0.0938(3) 0.0899(4) 0.8486(5)
C27 C 0.1098(3) 0.0265(4) 0.8662(5)
H9 H 0.0941 -0.0090 0.8492
C28 C 0.1840(3) 0.1916(4) 0.9374(5)
C29 C 0.0538(3) 0.0958(4) 0.8032(5)
C30 C 0.0198(3) 0.0980(4) 0.7721(5)
C31 C 0.3287(5) 0.1752(6) 1.2132(8)
H10 H 0.3526 0.1907 1.1901
C32 C 0.2974(6) 0.1499(8) 1.3155(9)
H11 H 0.2720 0.1454 1.2829
H12 H 0.2906 0.1803 1.3501
H13 H 0.3042 0.1096 1.3370
C33 C 0.3763(6) 0.1821(7) 1.3192(9)
H14 H 0.3925 0.1429 1.3244
H15 H 0.3705 0.1984 1.3639
H16 H 0.3938 0.2124 1.2956
C34 C 0.1993(5) 0.0694(6) 1.1216(7)
H17 H 0.2063 0.0370 1.0917
C35 C 0.1587(5) 0.0775(7) 1.2248(9)
H18 H 0.1755 0.1162 1.2314
H19 H 0.1672 0.0484 1.2614
H20 H 0.1273 0.0867 1.2251
C36 C 0.1434(5) -0.0098(7) 1.1418(8)
H21 H 0.1215 -0.0173 1.1747
H22 H 0.1642 -0.0446 1.1427
H23 H 0.1287 -0.0061 1.0965
C37 C 0.0784(7) -0.1820(7) 0.9902(10)
H24 H 0.0758 -0.1884 0.9427
C38 C 0.0579(6) -0.2038(9) 1.0977(10)
H25 H 0.0333 -0.2112 1.1259
H26 H 0.0743 -0.1670 1.1143
H27 H 0.0774 -0.2401 1.0997
C39 C 0.0052(6) -0.2338(8) 0.9987(9)
H28 H -0.0021 -0.2234 0.9511
H29 H -0.0207 -0.2280 1.0244
H30 H 0.0147 -0.2773 1.0022
C40 C 0.2133(5) -0.1704(6) 1.1355(9)
H31 H 0.2413 -0.1898 1.1380
C41 C 0.2194(6) -0.1729(7) 1.2617(8)
H32 H 0.2510 -0.1700 1.2571
H33 H 0.2124 -0.2136 1.2806
H34 H 0.2103 -0.1399 1.2919
C42 C 0.1482(6) -0.1609(7) 1.1948(10)
H35 H 0.1387 -0.1578 1.2409
H36 H 0.1350 -0.1978 1.1726
H37 H 0.1388 -0.1236 1.1692
N1 N 0.3353(5) 0.1715(5) 1.2805(8)
N2 N 0.1678(4) 0.0496(6) 1.1595(7)
N3 N 0.0407(6) -0.1931(8) 1.0261(9)
N4 N 0.1967(5) -0.1659(6) 1.1973(8)
O9A O -0.1472(3) -0.0911(3) 0.6085(4)
O10A O -0.1908(2) -0.0561(3) 0.5262(4)
O11A O -0.2166(2) 0.1845(3) 0.5193(4)
O12A O -0.1717(2) 0.2442(3) 0.5878(3)
C21A C -0.1631(4) -0.0456(4) 0.5747(6)
C22A C -0.1474(3) 0.0194(4) 0.5928(5)
C23A C -0.1725(3) 0.0729(4) 0.5687(5)
H7A H -0.1989 0.0674 0.5411
C24A C -0.1575(3) 0.1341(4) 0.5867(5)
C25A C -0.1187(3) 0.1431(4) 0.6274(5)
H8A H -0.1090 0.1839 0.6391
C26A C -0.0938(3) 0.0899(4) 0.6514(5)
C27A C -0.1098(3) 0.0265(4) 0.6338(5)
H9A H -0.0941 -0.0090 0.6508
C28A C -0.1840(3) 0.1916(4) 0.5626(5)
C29A C -0.0538(3) 0.0958(4) 0.6968(5)
C30A C -0.0198(3) 0.0980(4) 0.7279(5)
Er1A Er -0.276590(11) 0.175000(14) 0.442340(18)
Er2A Er -0.181990(13) -0.170010(14) 0.537450(19)
O1A O -0.2791(2) 0.0697(3) 0.4832(4)
O2A O -0.3397(2) 0.1026(3) 0.4292(4)
O3A O -0.2582(2) -0.1600(3) 0.5338(4)
O4A O -0.3091(2) -0.2283(2) 0.4977(3)
O5A O -0.62853(18) -0.2770(3) 0.1184(3)
O6A O -0.69703(18) -0.2904(3) 0.1482(3)
O7A O -0.68897(18) -0.1925(3) 0.4551(3)
O8A O -0.73144(17) -0.2568(3) 0.3884(3)
O13A O -0.2955(3) 0.1609(4) 0.3226(5)
O14A O -0.2217(3) 0.1133(4) 0.3882(5)
O15A O -0.1162(4) -0.1640(4) 0.4834(5)
O16A O -0.2013(3) -0.1557(4) 0.4223(5)
C1A C -0.3172(3) 0.0585(4) 0.4569(5)
C2A C -0.3337(3) -0.0085(4) 0.4534(5)
C3A C -0.3766(3) -0.0219(4) 0.4226(5)
H1A H -0.3944 0.0111 0.4042
C4A C -0.3926(3) -0.0831(4) 0.4192(5)
C5A C -0.3648(3) -0.1329(4) 0.4470(5)
H2A H -0.3753 -0.1745 0.4453
C6A C -0.3231(3) -0.1203(4) 0.4761(5)
C7A C -0.3078(3) -0.0584(4) 0.4817(5)
H3A H -0.2800 -0.0500 0.5044
C8A C -0.2946(3) -0.1740(4) 0.5050(6)
C9A C -0.4360(3) -0.0983(4) 0.3887(5)
C10A C -0.4729(3) -0.1142(4) 0.3669(5)
C11A C -0.5141(3) -0.1348(4) 0.3414(5)
C12A C -0.5501(3) -0.1559(4) 0.3232(5)
C13A C -0.5935(3) -0.1854(4) 0.3077(5)
C14A C -0.6045(3) -0.2116(4) 0.2426(4)
H4A H -0.5847 -0.2087 0.2079
C15A C -0.6456(3) -0.2420(4) 0.2307(4)
C16A C -0.6749(3) -0.2449(4) 0.2818(4)
H5A H -0.7016 -0.2671 0.2732
C17A C -0.6664(3) -0.2157(4) 0.3470(4)
C18A C -0.6232(3) -0.1871(4) 0.3582(5)
H6A H -0.6150 -0.1692 0.4010
C19A C -0.6579(3) -0.2715(4) 0.1616(4)
C20A C -0.6984(3) -0.2212(4) 0.3998(4)
C31A C -0.3287(5) 0.1752(6) 0.2868(8)
H10A H -0.3526 0.1907 0.3099
C32A C -0.2974(6) 0.1499(8) 0.1845(9)
H11A H -0.2720 0.1454 0.2171
H12A H -0.2906 0.1803 0.1499
H13A H -0.3042 0.1096 0.1630
C33A C -0.3763(6) 0.1821(7) 0.1808(9)
H14A H -0.3925 0.1429 0.1756
H15A H -0.3705 0.1984 0.1361
H16A H -0.3938 0.2124 0.2044
C34A C -0.1993(5) 0.0694(6) 0.3784(7)
H17A H -0.2063 0.0370 0.4083
C35A C -0.1587(5) 0.0775(7) 0.2752(9)
H18A H -0.1755 0.1162 0.2686
H19A H -0.1672 0.0484 0.2386
H20A H -0.1273 0.0867 0.2749
C36A C -0.1434(5) -0.0098(7) 0.3582(8)
H21A H -0.1215 -0.0173 0.3253
H22A H -0.1642 -0.0446 0.3573
H23A H -0.1287 -0.0061 0.4035
C37A C -0.0784(7) -0.1820(7) 0.5098(10)
H24A H -0.0758 -0.1884 0.5573
C38A C -0.0579(6) -0.2038(9) 0.4023(10)
H25A H -0.0333 -0.2112 0.3741
H26A H -0.0743 -0.1670 0.3857
H27A H -0.0774 -0.2401 0.4003
C39A C -0.0052(6) -0.2338(8) 0.5013(9)
H28A H 0.0021 -0.2234 0.5489
H29A H 0.0207 -0.2280 0.4756
H30A H -0.0147 -0.2773 0.4978
C40A C -0.2133(5) -0.1704(6) 0.3645(9)
H31A H -0.2413 -0.1898 0.3620
C41A C -0.2194(6) -0.1729(7) 0.2383(8)
H32A H -0.2510 -0.1700 0.2429
H33A H -0.2124 -0.2136 0.2194
H34A H -0.2103 -0.1399 0.2081
C42A C -0.1482(6) -0.1609(7) 0.3052(10)
H35A H -0.1387 -0.1578 0.2591
H36A H -0.1350 -0.1978 0.3274
H37A H -0.1388 -0.1236 0.3308
N1A N -0.3353(5) 0.1715(5) 0.2195(8)
N2A N -0.1678(4) 0.0496(6) 0.3405(7)
N3A N -0.0407(6) -0.1931(8) 0.4739(9)
N4A N -0.1967(5) -0.1659(6) 0.3027(8)
Er1B Er 0.776590(11) -0.325000(14) 1.057660(18)
Er1C Er -0.776590(11) -0.325000(14) 0.442340(18)
Er1D Er 0.723410(11) -0.175000(14) 0.942340(18)
Er1E Er -0.723410(11) -0.175000(14) 0.557660(18)
Er1F Er 0.223410(11) 0.325000(14) 0.942340(18)
Er1G Er -0.223410(11) 0.325000(14) 0.557660(18)
Er2F Er -0.681990(13) -0.329990(14) 0.037450(19)
Er2F_2 Er 0.318010(13) -0.329990(14) 1.037450(19)
Er2G Er -0.318010(13) -0.329990(14) 0.462550(19)
Er2G_2 Er 0.681990(13) -0.329990(14) 1.462550(19)
O4F O 0.1909(2) -0.2717(2) 0.9977(3)
O4G O -0.1909(2) -0.2717(2) 0.5023(3)
O5F O -0.12853(18) -0.2230(3) 0.6184(3)
O5G O 0.12853(18) -0.2230(3) 0.8816(3)
O6F O -0.19703(18) -0.2096(3) 0.6482(3)
O6G O 0.19703(18) -0.2096(3) 0.8518(3)
O7D O 0.31103(18) 0.1925(3) 0.9551(3)
O7E O -0.31103(18) 0.1925(3) 0.5449(3)
O8B O 0.23144(17) 0.2432(3) 1.1116(3)
O8C O -0.23144(17) 0.2432(3) 0.3884(3)
O12F O 0.3283(2) 0.2558(3) 1.0878(3)
O12G O -0.3283(2) 0.2558(3) 0.4122(3)
loop_
_geom_bond_atom_site_label_1
_geom_bond_atom_site_label_2
_geom_bond_site_symmetry_1
_geom_bond_site_symmetry_2
Er1 O1 1_555 1_555
Er2 O3 1_555 1_555
O1 C1 1_555 1_555
O2 Er1 1_555 1_555
O3 C8 1_555 1_555
O4 C8 1_555 1_555
O5 C19 1_555 1_555
O6 C19 1_555 1_555
O7 C20 1_555 1_555
O8 C20 1_555 1_555
O9 Er2 1_555 1_555
O10 Er2 1_555 1_555
O11 Er1 1_555 1_555
O12 C28 1_555 1_555
O13 Er1 1_555 1_555
O14 Er1 1_555 1_555
O15 Er2 1_555 1_555
O16 Er2 1_555 1_555
C1 O2 1_555 1_555
C2 C1 1_555 1_555
C3 C2 1_555 1_555
H1 C3 1_555 1_555
C4 C3 1_555 1_555
C5 C4 1_555 1_555
H2 C5 1_555 1_555
C6 C5 1_555 1_555
C7 C2 1_555 1_555
H3 C7 1_555 1_555
C8 C6 1_555 1_555
C9 C4 1_555 1_555
C10 C9 1_555 1_555
C11 C10 1_555 1_555
C12 C11 1_555 1_555
C13 C12 1_555 1_555
C14 C13 1_555 1_555
H4 C14 1_555 1_555
C15 C14 1_555 1_555
C16 C15 1_555 1_555
H5 C16 1_555 1_555
C17 C16 1_555 1_555
C18 C13 1_555 1_555
H6 C18 1_555 1_555
C19 C15 1_555 1_555
C20 C17 1_555 1_555
C21 O9 1_555 1_555
C22 C21 1_555 1_555
C23 C22 1_555 1_555
H7 C23 1_555 1_555
C24 C23 1_555 1_555
C25 C24 1_555 1_555
H8 C25 1_555 1_555
C26 C25 1_555 1_555
C27 C22 1_555 1_555
H9 C27 1_555 1_555
C28 O11 1_555 1_555
C29 C26 1_555 1_555
C30 C29 1_555 1_555
C31 O13 1_555 1_555
H10 C31 1_555 1_555
C32 H11 1_555 1_555
H12 C32 1_555 1_555
H13 C32 1_555 1_555
C33 H14 1_555 1_555
H15 C33 1_555 1_555
H16 C33 1_555 1_555
C34 O14 1_555 1_555
H17 C34 1_555 1_555
C35 H18 1_555 1_555
H19 C35 1_555 1_555
H20 C35 1_555 1_555
C36 H21 1_555 1_555
H22 C36 1_555 1_555
H23 C36 1_555 1_555
C37 O15 1_555 1_555
H24 C37 1_555 1_555
C38 H25 1_555 1_555
H26 C38 1_555 1_555
H27 C38 1_555 1_555
C39 H28 1_555 1_555
H29 C39 1_555 1_555
H30 C39 1_555 1_555
C40 O16 1_555 1_555
H31 C40 1_555 1_555
C41 H32 1_555 1_555
H33 C41 1_555 1_555
H34 C41 1_555 1_555
C42 H35 1_555 1_555
H36 C42 1_555 1_555
H37 C42 1_555 1_555
N1 C31 1_555 1_555
N2 C34 1_555 1_555
N3 C37 1_555 1_555
N4 C40 1_555 1_555
O9A C21A 1_555 1_555
O10A C21A 1_555 1_555
O11A C28A 1_555 1_555
O12A C28A 1_555 1_555
C21A C22A 1_555 1_555
C22A C23A 1_555 1_555
C23A H7A 1_555 1_555
C24A C23A 1_555 1_555
C25A C24A 1_555 1_555
H8A C25A 1_555 1_555
C26A C25A 1_555 1_555
C27A C22A 1_555 1_555
H9A C27A 1_555 1_555
C28A C24A 1_555 1_555
C29A C26A 1_555 1_555
C30A C30 1_555 1_555
Er1A O11A 1_555 1_555
Er2A O9A 1_555 1_555
O1A Er1A 1_555 1_555
O2A Er1A 1_555 1_555
O3A Er2A 1_555 1_555
O4A C8A 1_555 1_555
O5A C19A 1_555 1_555
O6A C19A 1_555 1_555
O7A C20A 1_555 1_555
O8A C20A 1_555 1_555
O13A Er1A 1_555 1_555
O14A Er1A 1_555 1_555
O15A Er2A 1_555 1_555
O16A Er2A 1_555 1_555
C1A O1A 1_555 1_555
C2A C1A 1_555 1_555
C3A C2A 1_555 1_555
H1A C3A 1_555 1_555
C4A C3A 1_555 1_555
C5A C4A 1_555 1_555
H2A C5A 1_555 1_555
C6A C5A 1_555 1_555
C7A C2A 1_555 1_555
H3A C7A 1_555 1_555
C8A O3A 1_555 1_555
C9A C4A 1_555 1_555
C10A C9A 1_555 1_555
C11A C10A 1_555 1_555
C12A C11A 1_555 1_555
C13A C12A 1_555 1_555
C14A C13A 1_555 1_555
H4A C14A 1_555 1_555
C15A C14A 1_555 1_555
C16A C15A 1_555 1_555
H5A C16A 1_555 1_555
C17A C16A 1_555 1_555
C18A C13A 1_555 1_555
H6A C18A 1_555 1_555
C19A C15A 1_555 1_555
C20A C17A 1_555 1_555
C31A O13A 1_555 1_555
H10A C31A 1_555 1_555
C32A H11A 1_555 1_555
H12A C32A 1_555 1_555
H13A C32A 1_555 1_555
C33A H14A 1_555 1_555
H15A C33A 1_555 1_555
H16A C33A 1_555 1_555
C34A O14A 1_555 1_555
H17A C34A 1_555 1_555
C35A H18A 1_555 1_555
H19A C35A 1_555 1_555
H20A C35A 1_555 1_555
C36A H21A 1_555 1_555
H22A C36A 1_555 1_555
H23A C36A 1_555 1_555
C37A O15A 1_555 1_555
H24A C37A 1_555 1_555
C38A H25A 1_555 1_555
H26A C38A 1_555 1_555
H27A C38A 1_555 1_555
C39A H28A 1_555 1_555
H29A C39A 1_555 1_555
H30A C39A 1_555 1_555
C40A O16A 1_555 1_555
H31A C40A 1_555 1_555
C41A H32A 1_555 1_555
H33A C41A 1_555 1_555
H34A C41A 1_555 1_555
C42A H35A 1_555 1_555
H36A C42A 1_555 1_555
H37A C42A 1_555 1_555
N1A C31A 1_555 1_555
N2A C34A 1_555 1_555
N3A C37A 1_555 1_555
N4A C40A 1_555 1_555
Er1B O8 1_555 1_555
Er1C O8A 1_555 1_555
Er1D O7 1_555 1_555
Er1E O7A 1_555 1_555
Er1F O12 1_555 1_555
Er1G O12A 1_555 1_555
Er2F O5A 1_555 1_555
Er2F_2 O4 1_555 1_555
Er2G O4A 1_555 1_555
Er2G_2 O5 1_555 1_555
O4F Er2 1_555 1_555
O4G Er2A 1_555 1_555
O5F Er2A 1_555 1_555
O5G Er2 1_555 1_555
O6F Er2A 1_555 1_555
O6G Er2 1_555 1_555
O7D Er1 1_555 1_555
O7E Er1A 1_555 1_555
O8B Er1 1_555 1_555
O8C Er1A 1_555 1_555
O12F Er1 1_555 1_555
O12G Er1A 1_555 1_555
O6 Er2G_2 1_555 1_555
O10 C21 1_555 1_555
C6 C7 1_555 1_555
C17 C18 1_555 1_555
C24 C28 1_555 1_555
C26 C27 1_555 1_555
C32 N1 1_555 1_555
C33 N1 1_555 1_555
C35 N2 1_555 1_555
C36 N2 1_555 1_555
C38 N3 1_555 1_555
C39 N3 1_555 1_555
C41 N4 1_555 1_555
C42 N4 1_555 1_555
O10A Er2A 1_555 1_555
C26A C27A 1_555 1_555
C29A C30A 1_555 1_555
O2A C1A 1_555 1_555
O6A Er2F 1_555 1_555
C6A C7A 1_555 1_555
C6A C8A 1_555 1_555
C17A C18A 1_555 1_555
C32A N1A 1_555 1_555
C33A N1A 1_555 1_555
C35A N2A 1_555 1_555
C36A N2A 1_555 1_555
C38A N3A 1_555 1_555
C39A N3A 1_555 1_555
C41A N4A 1_555 1_555
C42A N4A 1_555 1_555

#END
