
#######################################################################
#
#                 Cambridge Crystallographic Data Centre
#                                CCDC 
#
#######################################################################
#
# If this CIF has been generated from an entry in the Cambridge 
# Structural Database, then it will include bibliographic, chemical, 
# crystal, experimental, refinement or atomic coordinate data resulting 
# from the CCDC's data processing and validation procedures.
#
#######################################################################

data_REKQOP
_chemical_formula_moiety         'C24 Fe6 N16 Pd5 S11'
_symmetry_cell_setting           tetragonal
_symmetry_space_group_name_H-M   'P 4/m'
_symmetry_Int_Tables_number      83
_space_group_name_Hall           '-P 4'
loop_
_symmetry_equiv_pos_site_id
_symmetry_equiv_pos_as_xyz
1 x,y,z
2 -x,-y,z
3 -y,x,z
4 y,-x,z
5 -x,-y,-z
6 x,y,-z
7 y,-x,-z
8 -y,x,-z
_cell_length_a                   8.6730(11)
_cell_length_b                   8.6730(11)
_cell_length_c                   7.2010(7)
_cell_angle_alpha                90
_cell_angle_beta                 90
_cell_angle_gamma                90
_cell_volume                     541.666
loop_
_atom_site_label
_atom_site_type_symbol
_atom_site_fract_x
_atom_site_fract_y
_atom_site_fract_z
Fe1 Fe 0.5000 0.5000 1.0000
Pd1 Pd 0.0000 1.0000 1.0000
S1 S -0.0181(2) 0.7320(2) 1.0000
N1 N 0.5000 0.5000 0.6914(15)
N2 N 0.2805(7) 0.6063(7) 1.0000
C1 C 0.4561(15) 0.6240(12) 0.5978(17)
C2 C 0.1591(9) 0.6613(8) 1.0000
Fe1_2 Fe 0.5000 0.5000 2.0000
Fe1_3 Fe -0.5000 -0.5000 2.0000
Fe1_4 Fe -0.5000 1.5000 1.0000
Fe1_5 Fe 0.5000 0.5000 0.0000
Fe1_6 Fe 0.5000 1.5000 1.0000
Pd1_2 Pd -0.0000 0.0000 2.0000
Pd1_3 Pd -0.0000 0.0000 1.0000
Pd1_4 Pd 1.0000 0.0000 1.0000
Pd1_5 Pd 1.0000 1.0000 1.0000
S1A S 0.0181(2) 1.2680(2) 1.0000
S1B S 0.2680(2) -0.0181(2) 1.0000
S1B_2 S 0.2680(2) -0.0181(2) 2.0000
S1C S -0.2680(2) 0.0181(2) 2.0000
S1C_2 S 0.7320(2) 1.0181(2) 1.0000
S1A_2 S 1.0181(2) 0.2680(2) 1.0000
S1B_3 S 0.2680(2) 0.9819(2) 1.0000
S1_2 S -0.0181(2) -0.2680(2) 2.0000
S1A_3 S 0.0181(2) 0.2680(2) 2.0000
S1C_3 S -0.2680(2) 1.0181(2) 1.0000
N1D N 0.5000 0.5000 0.3086(15)
N1D_2 N 0.5000 0.5000 1.3086(15)
N1_2 N 0.5000 0.5000 1.6914(15)
N1D_3 N 0.5000 0.5000 2.3086(15)
N2A N -0.2805(7) 1.3937(7) 1.0000
N2B N 0.3937(7) 0.2805(7) 1.0000
N2B_2 N 0.3937(7) 0.2805(7) 2.0000
N2C N -0.3937(7) -0.2805(7) 2.0000
N2C_2 N 0.6063(7) 0.7195(7) 1.0000
N2A_2 N 0.7195(7) 0.3937(7) 1.0000
N2B_3 N 0.3937(7) 1.2805(7) 1.0000
N2_2 N 0.2805(7) 0.6063(7) 2.0000
N2A_3 N 0.7195(7) 0.3937(7) 2.0000
N2C_3 N 0.6063(7) 0.7195(7) 2.0000
C1A C 0.5439(15) 0.3760(12) 0.5978(17)
C1B C 0.3760(12) 0.4561(15) 0.5978(17)
C1C C 0.6240(12) 0.5439(15) 0.5978(17)
C1D C 0.5439(15) 0.3760(12) 0.4022(17)
C1E C 0.4561(15) 0.6240(12) 0.4022(17)
C1F C 0.6240(12) 0.5439(15) 0.4022(17)
C1G C 0.3760(12) 0.4561(15) 0.4022(17)
C1G_2 C 0.3760(12) 0.4561(15) 1.4022(17)
C1F_2 C 0.6240(12) 0.5439(15) 1.4022(17)
C1D_2 C 0.5439(15) 0.3760(12) 1.4022(17)
C1E_2 C 0.4561(15) 0.6240(12) 1.4022(17)
C1C_2 C 0.6240(12) 0.5439(15) 1.5978(17)
C1B_2 C 0.3760(12) 0.4561(15) 1.5978(17)
C1_2 C 0.4561(15) 0.6240(12) 1.5978(17)
C1A_2 C 0.5439(15) 0.3760(12) 1.5978(17)
C2A C -0.1591(9) 1.3387(8) 1.0000
C2B C 0.3387(8) 0.1591(9) 1.0000
C2B_2 C 0.3387(8) 0.1591(9) 2.0000
C2C C -0.3387(8) -0.1591(9) 2.0000
C2C_2 C 0.6613(8) 0.8409(9) 1.0000
C2A_2 C 0.8409(9) 0.3387(8) 1.0000
C2B_3 C 0.3387(8) 1.1591(9) 1.0000
loop_
_geom_bond_atom_site_label_1
_geom_bond_atom_site_label_2
_geom_bond_site_symmetry_1
_geom_bond_site_symmetry_2
Fe1 N1 1_555 1_555
Pd1 S1 1_555 1_555
S1 C2 1_555 1_555
N1 C1 1_555 1_555
N2 Fe1 1_555 1_555
C1 C1B 1_555 1_555
C2 N2 1_555 1_555
Fe1_2 N1_2 1_555 1_555
Fe1_3 N2C 1_555 1_555
Fe1_4 N2A 1_555 1_555
Fe1_5 N1D 1_555 1_555
Fe1_6 N2B_3 1_555 1_555
Pd1_2 S1B_2 1_555 1_555
Pd1_3 S1B 1_555 1_555
Pd1_4 S1A_2 1_555 1_555
Pd1_5 S1C_2 1_555 1_555
S1A Pd1 1_555 1_555
S1B C2B 1_555 1_555
S1B_2 C2B_2 1_555 1_555
S1C Pd1_2 1_555 1_555
S1C_2 C2C_2 1_555 1_555
S1A_2 C2A_2 1_555 1_555
S1B_3 Pd1 1_555 1_555
S1_2 Pd1_2 1_555 1_555
S1A_3 Pd1_2 1_555 1_555
S1C_3 Pd1 1_555 1_555
N1D C1D 1_555 1_555
N1D_2 Fe1 1_555 1_555
N1_2 C1C_2 1_555 1_555
N1D_3 Fe1_2 1_555 1_555
N2A C2A 1_555 1_555
N2B Fe1 1_555 1_555
N2B_2 Fe1_2 1_555 1_555
N2C C2C 1_555 1_555
N2C_2 Fe1 1_555 1_555
N2A_2 Fe1 1_555 1_555
N2B_3 C2B_3 1_555 1_555
N2_2 Fe1_2 1_555 1_555
N2A_3 Fe1_2 1_555 1_555
N2C_3 Fe1_2 1_555 1_555
C1A N1 1_555 1_555
C1B N1 1_555 1_555
C1C N1 1_555 1_555
C1D C1A 1_555 1_555
C1E C1 1_555 1_555
C1F N1D 1_555 1_555
C1G N1D 1_555 1_555
C1G_2 N1D_2 1_555 1_555
C1F_2 N1D_2 1_555 1_555
C1D_2 N1D_2 1_555 1_555
C1E_2 N1D_2 1_555 1_555
C1C_2 C1F_2 1_555 1_555
C1B_2 N1_2 1_555 1_555
C1_2 N1_2 1_555 1_555
C1A_2 N1_2 1_555 1_555
C2A S1A 1_555 1_555
C2B N2B 1_555 1_555
C2B_2 N2B_2 1_555 1_555
C2C S1C 1_555 1_555
C2C_2 N2C_2 1_555 1_555
C2A_2 N2A_2 1_555 1_555
C2B_3 S1B_3 1_555 1_555
C1 C1C 1_555 1_555
N1D C1E 1_555 1_555
C1A C1B 1_555 1_555
C1A C1C 1_555 1_555
C1B C1G 1_555 1_555
C1C C1F 1_555 1_555
C1D C1F 1_555 1_555
C1D C1G 1_555 1_555
C1E C1F 1_555 1_555
C1E C1G 1_555 1_555
C1G_2 C1D_2 1_555 1_555
C1G_2 C1E_2 1_555 1_555
C1G_2 C1B_2 1_555 1_555
C1F_2 C1D_2 1_555 1_555
C1F_2 C1E_2 1_555 1_555
C1D_2 C1A_2 1_555 1_555
C1E_2 C1_2 1_555 1_555
C1C_2 C1_2 1_555 1_555
C1C_2 C1A_2 1_555 1_555
C1B_2 C1_2 1_555 1_555
C1B_2 C1A_2 1_555 1_555

#END
