
#######################################################################
#
#                 Cambridge Crystallographic Data Centre
#                                CCDC 
#
#######################################################################
#
# If this CIF has been generated from an entry in the Cambridge 
# Structural Database, then it will include bibliographic, chemical, 
# crystal, experimental, refinement or atomic coordinate data resulting 
# from the CCDC's data processing and validation procedures.
#
#######################################################################

data_QADVUN
_chemical_formula_moiety         '(C3 H15 N2 O12 P3 Zn3)n'
_symmetry_cell_setting           triclinic
_symmetry_space_group_name_H-M   'P -1'
_symmetry_Int_Tables_number      2
_space_group_name_Hall           '-P 1'
loop_
_symmetry_equiv_pos_site_id
_symmetry_equiv_pos_as_xyz
1 x,y,z
2 -x,-y,-z
_cell_length_a                   5.0986(6)
_cell_length_b                   10.4943(12)
_cell_length_c                   12.4457(14)
_cell_angle_alpha                87.614(2)
_cell_angle_beta                 87.2580(10)
_cell_angle_gamma                89.994(2)
_cell_volume                     664.582
loop_
_atom_site_label
_atom_site_type_symbol
_atom_site_fract_x
_atom_site_fract_y
_atom_site_fract_z
Zn1 Zn 0.21169(13) 0.35799(6) -0.00161(6)
Zn2 Zn 0.71971(13) 0.14534(6) -0.00245(6)
Zn3 Zn 0.80521(14) 0.39410(7) 0.39234(6)
P1 P 0.2482(3) 0.11324(15) -0.13789(13)
P2 P 0.7119(3) 0.39338(15) 0.13820(12)
P3 P 0.2978(3) 0.32839(16) 0.52299(13)
O1 O 0.4215(8) 0.3996(4) 0.1162(3)
O2 O 0.8394(8) 0.5250(4) 0.1225(3)
O3 O 0.3698(8) 0.1969(4) -0.0514(4)
O4 O 0.8540(8) 0.3061(4) 0.0544(3)
O5 O 0.3376(10) -0.0231(4) -0.1139(4)
O6 O -0.0495(8) 0.1275(5) -0.1264(4)
O7 O 0.5893(9) 0.3052(5) 0.5027(4)
O8 O 0.2517(13) 0.4247(5) 0.6092(4)
O9 O 0.7507(9) 0.3354(4) 0.2498(4)
O10 O 0.1709(9) 0.3640(5) 0.4187(4)
O11 O 0.3536(9) 0.1575(5) -0.2474(4)
O12 O 0.1691(9) 0.2016(5) 0.5694(4)
H1 H 0.2351 0.1803 0.6262
O2A O 0.1606(8) 0.4750(4) -0.1225(3)
O4_2 O -0.1460(8) 0.3061(4) 0.0544(3)
O5A O 0.6624(10) 0.0231(4) 0.1139(4)
O6_2 O 0.9505(8) 0.1275(5) -0.1264(4)
O8A O 0.7483(13) 0.5753(5) 0.3908(4)
O10_2 O 1.1709(9) 0.3640(5) 0.4187(4)
Zn1A Zn 0.78831(13) 0.64201(6) 0.00161(6)
Zn1_2 Zn 1.21169(13) 0.35799(6) -0.00161(6)
Zn2A Zn 0.28029(13) -0.14534(6) 0.00245(6)
Zn2_2 Zn -0.28029(13) 0.14534(6) -0.00245(6)
Zn3A Zn 0.19479(14) 0.60590(7) 0.60766(6)
Zn3_2 Zn -0.19479(14) 0.39410(7) 0.39234(6)
N1 N 0.7442(11) 0.3679(6) -0.2608(5)
C1 C 0.247(8) -0.060(4) 0.536(2)
C2 C 0.308(5) -0.027(2) 0.416(2)
C3 C 0.130(4) 0.052(2) 0.3400(17)
N2 N 0.238(2) 0.1450(11) 0.2529(9)
loop_
_geom_bond_atom_site_label_1
_geom_bond_atom_site_label_2
_geom_bond_site_symmetry_1
_geom_bond_site_symmetry_2
Zn1 O1 1_555 1_555
Zn2 O3 1_555 1_555
Zn3 O7 1_555 1_555
P1 O3 1_555 1_555
P2 O1 1_555 1_555
P3 O7 1_555 1_555
O2 P2 1_555 1_555
O3 Zn1 1_555 1_555
O4 Zn2 1_555 1_555
O5 P1 1_555 1_555
O6 P1 1_555 1_555
O8 P3 1_555 1_555
O9 Zn3 1_555 1_555
O10 P3 1_555 1_555
O11 P1 1_555 1_555
O12 P3 1_555 1_555
H1 O12 1_555 1_555
C1 C2 1_555 1_555
C2 C3 1_555 1_555
C3 N2 1_555 1_555
O2A Zn1 1_555 1_555
O4_2 Zn1 1_555 1_555
O5A Zn2 1_555 1_555
O6_2 Zn2 1_555 1_555
O8A Zn3 1_555 1_555
O10_2 Zn3 1_555 1_555
Zn1A O2 1_555 1_555
Zn1_2 O4 1_555 1_555
Zn2A O5 1_555 1_555
Zn2_2 O6 1_555 1_555
Zn3A O8 1_555 1_555
Zn3_2 O10 1_555 1_555
P2 O4 1_555 1_555
P2 O9 1_555 1_555
O4_2 Zn2_2 1_555 1_555

#END
