
#######################################################################
#
#                 Cambridge Crystallographic Data Centre
#                                CCDC 
#
#######################################################################
#
# If this CIF has been generated from an entry in the Cambridge 
# Structural Database, then it will include bibliographic, chemical, 
# crystal, experimental, refinement or atomic coordinate data resulting 
# from the CCDC's data processing and validation procedures.
#
#######################################################################

data_QIZLIW
_chemical_formula_moiety         '(C18 H22 Cu4 O23 Se1)n'
_symmetry_cell_setting           monoclinic
_symmetry_space_group_name_H-M   'C 2/c'
_symmetry_Int_Tables_number      15
_space_group_name_Hall           '-C 2yc'
loop_
_symmetry_equiv_pos_site_id
_symmetry_equiv_pos_as_xyz
1 x,y,z
2 -x,y,1/2-z
3 1/2+x,1/2+y,z
4 1/2-x,1/2+y,1/2-z
5 -x,-y,-z
6 x,-y,1/2+z
7 1/2-x,1/2-y,-z
8 1/2+x,1/2-y,1/2+z
_cell_length_a                   41.0363(18)
_cell_length_b                   12.1733(4)
_cell_length_c                   14.1609(5)
_cell_angle_alpha                90
_cell_angle_beta                 100.869(3)
_cell_angle_gamma                90
_cell_volume                     6947.14
loop_
_atom_site_label
_atom_site_type_symbol
_atom_site_fract_x
_atom_site_fract_y
_atom_site_fract_z
Se1 Se 0.516360(19) 0.04716(6) 0.13802(5)
Cu1 Cu 0.72545(2) 0.32085(8) 0.49266(7)
Cu2 Cu 0.56196(2) -0.00278(7) -0.04574(6)
Cu3 Cu 0.54928(3) 0.22512(7) 0.07950(6)
Cu4 Cu 0.54105(2) 0.21816(7) 0.32317(6)
O1 O 0.70530(17) -0.2135(6) 0.0682(5)
O2 O 0.74845(16) -0.0969(6) 0.0866(5)
O3 O 0.74591(15) 0.1244(6) 0.3900(4)
O4 O 0.70349(16) 0.2429(6) 0.3771(4)
O5 O 0.60557(14) 0.0376(5) 0.0198(4)
O6 O 0.59628(16) 0.1305(6) 0.1482(4)
O7 O 0.6894(2) 0.4495(8) 0.4936(8)
O8 O 0.55790(18) 0.2764(5) -0.0409(4)
O9 O 0.55838(16) 0.1228(4) -0.1292(4)
O10 O 0.5578(2) 0.6308(5) -0.3693(4)
O11 O 0.54517(19) 0.6314(5) -0.2209(4)
O12 O 0.54566(18) 0.2767(5) -0.5496(4)
O13 O 0.56214(16) 0.1273(4) -0.4596(4)
O14 O 0.59041(16) 0.1347(6) 0.3454(4)
O15 O 0.52311(14) 0.0899(4) 0.0295(3)
O16 O 0.53071(14) 0.1711(4) 0.1905(3)
O17 O 0.47578(13) 0.0699(4) 0.1382(3)
C1 C 0.7198(2) -0.1241(8) 0.0966(6)
C2 C 0.7008(2) -0.0433(8) 0.1455(6)
C3 C 0.6674(2) -0.0248(7) 0.1086(6)
H1 H 0.6564 -0.0669 0.0576
C4 C 0.6506(2) 0.0570(8) 0.1484(6)
C5 C 0.6665(2) 0.1185(7) 0.2267(6)
H2 H 0.6551 0.1726 0.2535
C6 C 0.6998(2) 0.0974(8) 0.2642(5)
C7 C 0.7171(2) 0.0178(8) 0.2234(6)
H3 H 0.7394 0.0054 0.2480
C8 C 0.7177(2) 0.1600(7) 0.3505(6)
C9 C 0.6142(2) 0.0771(6) 0.1028(5)
C10 C 0.5576(2) 0.2244(6) -0.1190(5)
C11 C 0.5559(2) 0.2911(7) -0.2088(5)
C12 C 0.5564(2) 0.2355(7) -0.2942(5)
H4 H 0.5586 0.1595 -0.2935
C13 C 0.5538(2) 0.2920(6) -0.3805(5)
C14 C 0.5515(3) 0.4049(7) -0.3814(5)
H5 H 0.5500 0.4431 -0.4389
C15 C 0.5513(3) 0.4623(7) -0.2953(5)
C16 C 0.5526(2) 0.4050(7) -0.2096(5)
H6 H 0.5513 0.4426 -0.1532
C17 C 0.5513(2) 0.5856(7) -0.2940(5)
C18 C 0.5536(2) 0.2266(6) -0.4712(5)
Cu1C Cu 0.77455(2) -0.17915(8) 0.00734(7)
Cu1E Cu 0.72545(2) -0.32085(8) -0.00734(7)
Cu1F Cu 0.77455(2) 0.17915(8) 0.50734(7)
Cu2D Cu 0.43804(2) 0.00278(7) 0.04574(6)
Cu2E Cu 0.56196(2) 0.00278(7) -0.54574(6)
Cu2E_2 Cu 0.56196(2) 0.00278(7) 0.45426(6)
Cu3E Cu 0.54928(3) 0.77488(7) -0.42050(6)
Cu4_2 Cu 0.54105(2) 0.21816(7) -0.67683(6)
Cu4A Cu 0.45895(2) 0.21816(7) 0.17683(6)
Cu4E Cu 0.54105(2) 0.78184(7) -0.17683(6)
O1E O 0.70530(17) 0.2135(6) 0.5682(5)
O2C O 0.75155(16) 0.4031(6) 0.4134(5)
O3F O 0.75409(15) 0.3756(6) 0.6100(4)
O10E O 0.5578(2) 0.3692(5) 0.1307(4)
O11E O 0.54517(19) 0.3686(5) 0.2791(4)
O12_2 O 0.54566(18) 0.2767(5) 0.4504(4)
O13E O 0.56214(16) -0.1273(4) 0.0404(4)
O14E O 0.59041(16) -0.1347(6) -0.1546(4)
O17A O 0.52422(13) 0.0699(4) 0.3618(3)
O17D O 0.52422(13) -0.0699(4) -0.1382(3)
O18 O 0.6326(5) 0.2617(17) 0.4636(14)
O19 O 0.7818(10) 0.623(3) 0.536(3)
O20 O 0.8060(10) -0.094(3) 0.318(3)
O21 O 0.6478(10) 0.129(3) -0.124(3)
O22 O 0.6147(11) 0.565(4) -0.470(3)
O23 O 0.7498(15) 0.745(5) 0.641(4)
loop_
_geom_bond_atom_site_label_1
_geom_bond_atom_site_label_2
_geom_bond_site_symmetry_1
_geom_bond_site_symmetry_2
Se1 O15 1_555 1_555
Cu1 O4 1_555 1_555
Cu2 O5 1_555 1_555
Cu3 O6 1_555 1_555
Cu4 O14 1_555 1_555
O1 C1 1_555 1_555
O2 C1 1_555 1_555
O3 C8 1_555 1_555
O4 C8 1_555 1_555
O5 C9 1_555 1_555
O6 C9 1_555 1_555
O7 Cu1 1_555 1_555
O8 Cu3 1_555 1_555
O9 Cu2 1_555 1_555
O10 C17 1_555 1_555
O11 C17 1_555 1_555
O12 C18 1_555 1_555
O13 C18 1_555 1_555
O14 Cu2E_2 1_555 1_555
O15 Cu2 1_555 1_555
O16 Se1 1_555 1_555
O17 Se1 1_555 1_555
C1 C2 1_555 1_555
C2 C3 1_555 1_555
C3 H1 1_555 1_555
C4 C3 1_555 1_555
C5 C4 1_555 1_555
H2 C5 1_555 1_555
C6 C5 1_555 1_555
C7 C2 1_555 1_555
H3 C7 1_555 1_555
C8 C6 1_555 1_555
C9 C4 1_555 1_555
C10 O8 1_555 1_555
C11 C10 1_555 1_555
C12 C11 1_555 1_555
H4 C12 1_555 1_555
C13 C12 1_555 1_555
C14 C13 1_555 1_555
H5 C14 1_555 1_555
C15 C14 1_555 1_555
C16 C11 1_555 1_555
H6 C16 1_555 1_555
C17 C15 1_555 1_555
C18 C13 1_555 1_555
Cu1C O2 1_555 1_555
Cu1E O1 1_555 1_555
Cu1F Cu1 1_555 1_555
Cu2D O17 1_555 1_555
Cu2E O13 1_555 1_555
Cu2E_2 O17A 1_555 1_555
Cu3E O10 1_555 1_555
Cu4_2 O12 1_555 1_555
Cu4A O17 1_555 1_555
Cu4E O11 1_555 1_555
O1E Cu1 1_555 1_555
O2C Cu1 1_555 1_555
O3F Cu1 1_555 1_555
O10E Cu3 1_555 1_555
O11E Cu4 1_555 1_555
O12_2 Cu4 1_555 1_555
O13E Cu2 1_555 1_555
O14E Cu2 1_555 1_555
O17A Cu4 1_555 1_555
O17D Cu2 1_555 1_555
Cu3 O15 1_555 1_555
Cu3 O16 1_555 1_555
Cu4 O16 1_555 1_555
O3 Cu1F 1_555 1_555
O9 C10 1_555 1_555
C6 C7 1_555 1_555
C15 C16 1_555 1_555
Cu1C Cu1E 1_555 1_555

#END
