
#######################################################################
#
#                 Cambridge Crystallographic Data Centre
#                                CCDC 
#
#######################################################################
#
# If this CIF has been generated from an entry in the Cambridge 
# Structural Database, then it will include bibliographic, chemical, 
# crystal, experimental, refinement or atomic coordinate data resulting 
# from the CCDC's data processing and validation procedures.
#
#######################################################################

data_FUNBOG
_chemical_formula_moiety         '(C44 H24 Br2 N4 O8 Zn2)n'
_symmetry_cell_setting           monoclinic
_symmetry_space_group_name_H-M   'P 2/m'
_symmetry_Int_Tables_number      10
_space_group_name_Hall           '-P 2y'
loop_
_symmetry_equiv_pos_site_id
_symmetry_equiv_pos_as_xyz
1 x,y,z
2 -x,y,-z
3 -x,-y,-z
4 x,-y,z
_cell_length_a                   11.7110(16)
_cell_length_b                   15.6181(12)
_cell_length_c                   16.0362(19)
_cell_angle_alpha                90
_cell_angle_beta                 90.205(10)
_cell_angle_gamma                90
_cell_volume                     2933.06
loop_
_atom_site_label
_atom_site_type_symbol
_atom_site_fract_x
_atom_site_fract_y
_atom_site_fract_z
Zn1 Zn 0.50004(6) 0.5000 0.40815(4)
Br1 Br 0.72075(7) 0.0000 0.49978(10)
O1 O 0.6177(3) 0.4087(2) 0.5700(2)
O2 O 0.6195(3) 0.4097(2) 0.4299(2)
N1 N 0.4998(5) 0.5000 0.2831(4)
N2 N 0.4533(6) 0.5000 0.0179(6)
C1 C 0.8966(4) 0.0000 0.4967(5)
C2 C 0.7351(4) 0.3070(3) 0.4993(3)
C3 C 0.9386(4) 0.0787(3) 0.4994(3)
C4 C 0.8383(5) 0.1976(3) 0.5737(4)
H1 H 0.8591 0.1722 0.6240
C5 C 0.7721(5) 0.2711(3) 0.4261(4)
H2 H 0.7516 0.2964 0.3758
C6 C 0.7720(5) 0.2711(3) 0.5752(3)
H3 H 0.7522 0.2963 0.6256
C7 C 0.8742(4) 0.1609(3) 0.4999(4)
C8 C 0.6541(4) 0.3817(2) 0.4993(3)
C9 C 0.8398(5) 0.1971(3) 0.4254(4)
H4 H 0.8614 0.1726 0.3750
C10 C 0.3998(8) 0.5000 0.2437(5)
H5 H 0.3348 0.5000 0.2768
C11 C 0.5899(9) 0.5000 0.2320(6)
H6 H 0.6625 0.5000 0.2557
C12 C 0.5812(10) 0.5000 0.1440(6)
H7 H 0.6469 0.5000 0.1116
C13 C 0.4753(11) 0.5000 0.1063(7)
C14 C 0.3832(11) 0.5000 0.1606(5)
H8 H 0.3092 0.5000 0.1394
Zn1A Zn 1.49996(6) -0.5000 0.59185(4)
Zn1A_2 Zn 0.49996(6) 0.5000 0.59185(4)
Zn1_2 Zn 1.50004(6) -0.5000 0.40815(4)
Zn1A_3 Zn 0.49996(6) -0.5000 0.59185(4)
Zn1_3 Zn 0.50004(6) -0.5000 0.40815(4)
Zn1_4 Zn 1.50004(6) 0.5000 0.40815(4)
Zn1A_4 Zn 1.49996(6) 0.5000 0.59185(4)
Zn1A_5 Zn 0.49996(6) 0.5000 -0.40815(4)
Br1A Br 1.27925(7) 0.0000 0.50022(10)
O1B O 1.3823(3) -0.4087(2) 0.4300(2)
O1C O 0.6177(3) -0.4087(2) 0.5700(2)
O1A O 1.3823(3) 0.4087(2) 0.4300(2)
O1A_2 O 0.3823(3) 0.4087(2) 0.4300(2)
O1B_2 O 0.3823(3) 0.5913(2) 0.4300(2)
O1C_2 O 1.6177(3) -0.4087(2) 0.5700(2)
O1_2 O 1.6177(3) -0.5913(2) 0.5700(2)
O2B O 1.3805(3) -0.4097(2) 0.5701(2)
O2C O 0.6195(3) -0.4097(2) 0.4299(2)
O2A O 1.3805(3) 0.4097(2) 0.5701(2)
O2C_2 O 0.6195(3) 0.5903(2) 0.4299(2)
O2A_2 O 1.3805(3) -0.5903(2) 0.5701(2)
N1A N 0.5002(5) 0.5000 -0.2831(4)
N1A_2 N 1.5002(5) -0.5000 0.7169(4)
N2A N 0.5467(6) 0.5000 -0.0179(6)
C1A C 1.1034(4) 0.0000 0.5033(5)
C2B C 1.2649(4) -0.3070(3) 0.5007(3)
C2C C 0.7351(4) -0.3070(3) 0.4993(3)
C2A C 1.2649(4) 0.3070(3) 0.5007(3)
C3A C 1.0614(4) 0.0787(3) 0.5006(3)
C3B C 1.0614(4) -0.0787(3) 0.5006(3)
C3C C 0.9386(4) -0.0787(3) 0.4994(3)
C4B C 1.1617(5) -0.1976(3) 0.4263(4)
C4C C 0.8383(5) -0.1976(3) 0.5737(4)
C4A C 1.1617(5) 0.1976(3) 0.4263(4)
H1B H 1.1409 -0.1722 0.3760
H1C H 0.8591 -0.1722 0.6240
H1A H 1.1409 0.1722 0.3760
C5B C 1.2279(5) -0.2711(3) 0.5739(4)
C5C C 0.7721(5) -0.2711(3) 0.4261(4)
C5A C 1.2279(5) 0.2711(3) 0.5739(4)
H2B H 1.2484 -0.2964 0.6242
H2C H 0.7516 -0.2964 0.3758
H2A H 1.2484 0.2964 0.6242
C6B C 1.2280(5) -0.2711(3) 0.4248(3)
C6C C 0.7720(5) -0.2711(3) 0.5752(3)
C6A C 1.2280(5) 0.2711(3) 0.4248(3)
H3B H 1.2478 -0.2963 0.3744
H3C H 0.7522 -0.2963 0.6256
H3A H 1.2478 0.2963 0.3744
C7B C 1.1258(4) -0.1609(3) 0.5001(4)
C7C C 0.8742(4) -0.1609(3) 0.4999(4)
C7A C 1.1258(4) 0.1609(3) 0.5001(4)
C8B C 1.3459(4) -0.3817(2) 0.5007(3)
C8C C 0.6541(4) -0.3817(2) 0.4993(3)
C8A C 1.3459(4) 0.3817(2) 0.5007(3)
C9B C 1.1602(5) -0.1971(3) 0.5746(4)
C9C C 0.8398(5) -0.1971(3) 0.4254(4)
C9A C 1.1602(5) 0.1971(3) 0.5746(4)
H4B H 1.1386 -0.1726 0.6250
H4C H 0.8614 -0.1726 0.3750
H4A H 1.1386 0.1726 0.6250
C10A C 0.6002(8) 0.5000 -0.2437(5)
H5A H 0.6652 0.5000 -0.2768
C11A C 0.4101(9) 0.5000 -0.2320(6)
H6A H 0.3375 0.5000 -0.2557
C12A C 0.4188(10) 0.5000 -0.1440(6)
H7A H 0.3531 0.5000 -0.1116
C13A C 0.5247(11) 0.5000 -0.1063(7)
C14A C 0.6168(11) 0.5000 -0.1606(5)
H8A H 0.6908 0.5000 -0.1394
loop_
_geom_bond_atom_site_label_1
_geom_bond_atom_site_label_2
_geom_bond_site_symmetry_1
_geom_bond_site_symmetry_2
Zn1 O2 1_555 1_555
Br1 C1 1_555 1_555
O1 C8 1_555 1_555
O2 C8 1_555 1_555
N1 Zn1 1_555 1_555
N2 C13 1_555 1_555
C1 C3 1_555 1_555
C2 C5 1_555 1_555
C3 C7 1_555 1_555
C4 H1 1_555 1_555
C5 H2 1_555 1_555
C6 C2 1_555 1_555
H3 C6 1_555 1_555
C7 C4 1_555 1_555
C8 C2 1_555 1_555
C9 C5 1_555 1_555
H4 C9 1_555 1_555
C10 N1 1_555 1_555
H5 C10 1_555 1_555
C11 N1 1_555 1_555
H6 C11 1_555 1_555
C12 C11 1_555 1_555
H7 C12 1_555 1_555
C13 C12 1_555 1_555
C14 C10 1_555 1_555
H8 C14 1_555 1_555
Zn1A O1C_2 1_555 1_555
Zn1A_2 O1 1_555 1_555
Zn1_2 O1B 1_555 1_555
Zn1A_3 O1C 1_555 1_555
Zn1_3 O2C 1_555 1_555
Zn1_4 O1A 1_555 1_555
Zn1A_4 O2A 1_555 1_555
Zn1A_5 N1A 1_555 1_555
Br1A C1A 1_555 1_555
O1B C8B 1_555 1_555
O1C C8C 1_555 1_555
O1A C8A 1_555 1_555
O1A_2 Zn1 1_555 1_555
O1B_2 Zn1 1_555 1_555
O1_2 Zn1A 1_555 1_555
O2B Zn1A 1_555 1_555
O2C C8C 1_555 1_555
O2A C8A 1_555 1_555
O2C_2 Zn1 1_555 1_555
O2A_2 Zn1A 1_555 1_555
N1A C10A 1_555 1_555
N1A_2 Zn1A 1_555 1_555
N2A N2 1_555 1_555
C1A C3A 1_555 1_555
C2B C5B 1_555 1_555
C2C C5C 1_555 1_555
C2A C5A 1_555 1_555
C3A C3 1_555 1_555
C3B C1A 1_555 1_555
C3C C1 1_555 1_555
C4B H1B 1_555 1_555
C4C H1C 1_555 1_555
C4A H1A 1_555 1_555
C5B H2B 1_555 1_555
C5C H2C 1_555 1_555
C5A H2A 1_555 1_555
C6B C2B 1_555 1_555
C6C C2C 1_555 1_555
C6A C2A 1_555 1_555
H3B C6B 1_555 1_555
H3C C6C 1_555 1_555
H3A C6A 1_555 1_555
C7B C3B 1_555 1_555
C7C C3C 1_555 1_555
C7A C3A 1_555 1_555
C8B O2B 1_555 1_555
C8C C2C 1_555 1_555
C8A C2A 1_555 1_555
C9B C5B 1_555 1_555
C9C C5C 1_555 1_555
C9A C5A 1_555 1_555
H4B C9B 1_555 1_555
H4C C9C 1_555 1_555
H4A C9A 1_555 1_555
C10A H5A 1_555 1_555
C11A N1A 1_555 1_555
H6A C11A 1_555 1_555
C12A C11A 1_555 1_555
H7A C12A 1_555 1_555
C13A N2A 1_555 1_555
C14A C10A 1_555 1_555
H8A C14A 1_555 1_555
C4 C6 1_555 1_555
C7 C9 1_555 1_555
C13 C14 1_555 1_555
C2B C8B 1_555 1_555
C3B C3C 1_555 1_555
C4B C6B 1_555 1_555
C4B C7B 1_555 1_555
C4C C6C 1_555 1_555
C4C C7C 1_555 1_555
C4A C6A 1_555 1_555
C4A C7A 1_555 1_555
C7B C9B 1_555 1_555
C7C C9C 1_555 1_555
C7A C9A 1_555 1_555
C12A C13A 1_555 1_555
C13A C14A 1_555 1_555

#END
