
#######################################################################
#
#                 Cambridge Crystallographic Data Centre
#                                CCDC 
#
#######################################################################
#
# If this CIF has been generated from an entry in the Cambridge 
# Structural Database, then it will include bibliographic, chemical, 
# crystal, experimental, refinement or atomic coordinate data resulting 
# from the CCDC's data processing and validation procedures.
#
#######################################################################

data_FUNBEW
_chemical_formula_moiety         '(C44 H24 Br2 N2 O8 Zn2)n'
_symmetry_cell_setting           orthorhombic
_symmetry_space_group_name_H-M   'P m m m'
_symmetry_Int_Tables_number      47
_space_group_name_Hall           '-P 2 2'
loop_
_symmetry_equiv_pos_site_id
_symmetry_equiv_pos_as_xyz
1 x,y,z
2 -x,-y,z
3 -x,y,-z
4 x,-y,-z
5 -x,-y,-z
6 x,y,-z
7 x,-y,z
8 -x,y,z
_cell_length_a                   11.2038(19)
_cell_length_b                   13.975(3)
_cell_length_c                   15.848(3)
_cell_angle_alpha                90
_cell_angle_beta                 90
_cell_angle_gamma                90
_cell_volume                     2481.37
loop_
_atom_site_label
_atom_site_type_symbol
_atom_site_fract_x
_atom_site_fract_y
_atom_site_fract_z
Br1 Br 0.29245(9) -0.0000 0.5000
Zn1 Zn 0.5000 0.10377(7) 0.0000
O1 O 0.3752(3) 0.07897(18) 0.08950(16)
N1 N 0.5000 0.2458(5) 0.0000
C1 C 0.1212(7) -0.0000 0.5000
C2 C 0.0606(4) -0.0000 0.4227(3)
C3 C 0.1301(4) 0.0000 0.3416(3)
C4 C 0.1618(4) 0.0843(3) 0.3031(3)
H1 H 0.1380 0.1434 0.3276
C5 C 0.2273(4) 0.0845(3) 0.2298(3)
H2 H 0.2479 0.1436 0.2039
C6 C 0.2632(5) 0.0000 0.1937(3)
C7 C 0.3441(5) -0.0000 0.1169(3)
C8 C 0.4056(7) 0.2948(5) 0.0000
H3 H 0.3323 0.2607 0.0000
C9 C 0.3984(7) 0.3951(6) 0.0000
H4 H 0.3226 0.4255 0.0000
C10 C 0.5000 0.4492(5) 0.0000
Br1A Br -0.29245(9) -0.0000 0.5000
Zn1A Zn 0.5000 -0.10377(7) 0.0000
Zn1_2 Zn -0.5000 0.10377(7) 1.0000
Zn1A_2 Zn -0.5000 -0.10377(7) 1.0000
Zn1A_3 Zn 0.5000 -0.10377(7) 1.0000
Zn1_3 Zn 0.5000 0.10377(7) 1.0000
Zn1A_4 Zn -0.5000 -0.10377(7) 0.0000
Zn1_4 Zn -0.5000 0.10377(7) 0.0000
Zn1A_5 Zn 0.5000 0.89623(7) 0.0000
O1F O 0.3752(3) -0.07897(18) 0.08950(16)
O1B O -0.3752(3) 0.07897(18) 0.91050(16)
O1D O -0.3752(3) -0.07897(18) 0.91050(16)
O1C O 0.3752(3) -0.07897(18) 0.91050(16)
O1E O 0.3752(3) 0.07897(18) 0.91050(16)
O1A O -0.3752(3) -0.07897(18) 0.08950(16)
O1G O -0.3752(3) 0.07897(18) 0.08950(16)
O1G_2 O 0.6248(3) 0.07897(18) 0.08950(16)
O1B_2 O 0.6248(3) 0.07897(18) -0.08950(16)
O1E_2 O 0.3752(3) 0.07897(18) -0.08950(16)
O1A_2 O 0.6248(3) -0.07897(18) 0.08950(16)
O1D_2 O 0.6248(3) -0.07897(18) -0.08950(16)
O1C_2 O 0.3752(3) -0.07897(18) -0.08950(16)
N1A N 0.5000 0.7542(5) 0.0000
N1A_2 N 0.5000 -0.2458(5) 0.0000
C1A C -0.1212(7) -0.0000 0.5000
C2A C -0.0606(4) -0.0000 0.4227(3)
C2B C -0.0606(4) 0.0000 0.5773(3)
C2C C 0.0606(4) 0.0000 0.5773(3)
C3B C -0.1301(4) 0.0000 0.6584(3)
C3C C 0.1301(4) 0.0000 0.6584(3)
C3A C -0.1301(4) 0.0000 0.3416(3)
C4F C 0.1618(4) -0.0843(3) 0.3031(3)
C4B C -0.1618(4) 0.0843(3) 0.6969(3)
C4D C -0.1618(4) -0.0843(3) 0.6969(3)
C4C C 0.1618(4) -0.0843(3) 0.6969(3)
C4E C 0.1618(4) 0.0843(3) 0.6969(3)
C4A C -0.1618(4) -0.0843(3) 0.3031(3)
C4G C -0.1618(4) 0.0843(3) 0.3031(3)
H1F H 0.1380 -0.1434 0.3276
H1B H -0.1380 0.1434 0.6724
H1D H -0.1380 -0.1434 0.6724
H1C H 0.1380 -0.1434 0.6724
H1E H 0.1380 0.1434 0.6724
H1A H -0.1380 -0.1434 0.3276
H1G H -0.1380 0.1434 0.3276
C5F C 0.2273(4) -0.0845(3) 0.2298(3)
C5B C -0.2273(4) 0.0845(3) 0.7702(3)
C5D C -0.2273(4) -0.0845(3) 0.7702(3)
C5C C 0.2273(4) -0.0845(3) 0.7702(3)
C5E C 0.2273(4) 0.0845(3) 0.7702(3)
C5A C -0.2273(4) -0.0845(3) 0.2298(3)
C5G C -0.2273(4) 0.0845(3) 0.2298(3)
H2F H 0.2479 -0.1436 0.2039
H2B H -0.2479 0.1436 0.7961
H2D H -0.2479 -0.1436 0.7961
H2C H 0.2479 -0.1436 0.7961
H2E H 0.2479 0.1436 0.7961
H2A H -0.2479 -0.1436 0.2039
H2G H -0.2479 0.1436 0.2039
C6B C -0.2632(5) 0.0000 0.8063(3)
C6C C 0.2632(5) 0.0000 0.8063(3)
C6A C -0.2632(5) 0.0000 0.1937(3)
C7B C -0.3441(5) -0.0000 0.8831(3)
C7C C 0.3441(5) -0.0000 0.8831(3)
C7A C -0.3441(5) -0.0000 0.1169(3)
C8B C 0.5944(7) 0.2948(5) 0.0000
C8A C 0.5944(7) 0.7052(5) 0.0000
C8C C 0.4056(7) 0.7052(5) 0.0000
H3B H 0.6677 0.2607 0.0000
H3C H 0.3323 0.7393 0.0000
H3A H 0.6677 0.7393 0.0000
C9B C 0.6016(7) 0.3951(6) 0.0000
C9A C 0.6016(7) 0.6049(6) 0.0000
C9C C 0.3984(7) 0.6049(6) 0.0000
H4B H 0.6774 0.4255 0.0000
H4C H 0.3226 0.5745 0.0000
H4A H 0.6774 0.5745 0.0000
C10A C 0.5000 0.5508(5) 0.0000
loop_
_geom_bond_atom_site_label_1
_geom_bond_atom_site_label_2
_geom_bond_site_symmetry_1
_geom_bond_site_symmetry_2
Br1 C1 1_555 1_555
Zn1 O1 1_555 1_555
O1 C7 1_555 1_555
N1 Zn1 1_555 1_555
C1 C2 1_555 1_555
C2 C3 1_555 1_555
C3 C4 1_555 1_555
C4 H1 1_555 1_555
C5 C4 1_555 1_555
H2 C5 1_555 1_555
C6 C5 1_555 1_555
C7 C6 1_555 1_555
C8 N1 1_555 1_555
H3 C8 1_555 1_555
C9 C8 1_555 1_555
H4 C9 1_555 1_555
C10 C9 1_555 1_555
Br1A C1A 1_555 1_555
Zn1A O1F 1_555 1_555
Zn1_2 O1B 1_555 1_555
Zn1A_2 O1D 1_555 1_555
Zn1A_3 O1C 1_555 1_555
Zn1_3 O1E 1_555 1_555
Zn1A_4 O1A 1_555 1_555
Zn1_4 O1G 1_555 1_555
Zn1A_5 N1A 1_555 1_555
O1F C7 1_555 1_555
O1B C7B 1_555 1_555
O1D C7B 1_555 1_555
O1C C7C 1_555 1_555
O1E C7C 1_555 1_555
O1A C7A 1_555 1_555
O1G C7A 1_555 1_555
O1G_2 Zn1 1_555 1_555
O1B_2 Zn1 1_555 1_555
O1E_2 Zn1 1_555 1_555
O1A_2 Zn1A 1_555 1_555
O1D_2 Zn1A 1_555 1_555
O1C_2 Zn1A 1_555 1_555
N1A C8A 1_555 1_555
N1A_2 Zn1A 1_555 1_555
C1A C2A 1_555 1_555
C2A C2 1_555 1_555
C2B C1A 1_555 1_555
C2C C1 1_555 1_555
C3B C2B 1_555 1_555
C3C C2C 1_555 1_555
C3A C2A 1_555 1_555
C4F C3 1_555 1_555
C4B C3B 1_555 1_555
C4D C3B 1_555 1_555
C4C C3C 1_555 1_555
C4E C3C 1_555 1_555
C4A C3A 1_555 1_555
C4G C3A 1_555 1_555
H1F C4F 1_555 1_555
H1B C4B 1_555 1_555
H1D C4D 1_555 1_555
H1C C4C 1_555 1_555
H1E C4E 1_555 1_555
H1A C4A 1_555 1_555
H1G C4G 1_555 1_555
C5F C6 1_555 1_555
C5B C4B 1_555 1_555
C5D C4D 1_555 1_555
C5C C4C 1_555 1_555
C5E C4E 1_555 1_555
C5A C4A 1_555 1_555
C5G C4G 1_555 1_555
H2F C5F 1_555 1_555
H2B C5B 1_555 1_555
H2D C5D 1_555 1_555
H2C C5C 1_555 1_555
H2E C5E 1_555 1_555
H2A C5A 1_555 1_555
H2G C5G 1_555 1_555
C6B C5B 1_555 1_555
C6C C5C 1_555 1_555
C6A C5A 1_555 1_555
C7B C6B 1_555 1_555
C7C C6C 1_555 1_555
C7A C6A 1_555 1_555
C8B N1 1_555 1_555
C8A H3A 1_555 1_555
C8C N1A 1_555 1_555
H3B C8B 1_555 1_555
H3C C8C 1_555 1_555
C9B C10 1_555 1_555
C9A C8A 1_555 1_555
C9C C8C 1_555 1_555
H4B C9B 1_555 1_555
H4C C9C 1_555 1_555
H4A C9A 1_555 1_555
C10A C10 1_555 1_555
C2B C2C 1_555 1_555
C4F C5F 1_555 1_555
C5D C6B 1_555 1_555
C5E C6C 1_555 1_555
C5G C6A 1_555 1_555
C8B C9B 1_555 1_555
C9A C10A 1_555 1_555
C9C C10A 1_555 1_555

#END
