
#######################################################################
#
#                 Cambridge Crystallographic Data Centre
#                                CCDC 
#
#######################################################################
#
# If this CIF has been generated from an entry in the Cambridge 
# Structural Database, then it will include bibliographic, chemical, 
# crystal, experimental, refinement or atomic coordinate data resulting 
# from the CCDC's data processing and validation procedures.
#
#######################################################################

data_FUNCAT
_chemical_formula_moiety         '(C46 H26 N6 O8 Zn2)n'
_symmetry_cell_setting           monoclinic
_symmetry_space_group_name_H-M   'P 1 1 21'
_symmetry_Int_Tables_number      4
_space_group_name_Hall           'P 2c'
loop_
_symmetry_equiv_pos_site_id
_symmetry_equiv_pos_as_xyz
1 x,y,z
2 -x,-y,1/2+z
_cell_length_a                   15.674(2)
_cell_length_b                   18.118(2)
_cell_length_c                   11.5857(14)
_cell_angle_alpha                90
_cell_angle_beta                 90
_cell_angle_gamma                90.00
_cell_volume                     3290.12
loop_
_atom_site_label
_atom_site_type_symbol
_atom_site_fract_x
_atom_site_fract_y
_atom_site_fract_z
O1 O 0.4145(3) 0.0816(2) 1.6045(4)
O2 O -0.4218(3) 0.0765(3) 0.8610(5)
O3 O 0.39655(19) 0.08387(16) 0.8540(3)
O4 O -0.41358(18) 0.08884(16) 1.6179(3)
O5 O 0.4134(3) 0.2165(2) 1.6053(5)
O6 O -0.4252(3) 0.2101(2) 0.8851(4)
O7 O 0.3907(2) 0.19787(19) 0.8539(3)
O8 O -0.4045(2) 0.20621(17) 1.6444(3)
N1 N 0.49336(15) 0.95690(14) 1.740740(1)
N2 N 0.50536(3) 0.68188(16) 1.6402(2)
N3 N 0.52440(3) 0.67892(18) 1.8407(3)
N4 N 0.50194(16) 0.61101(19) 1.6437(3)
N5 N 0.52119(17) 0.6077(2) 1.8498(4)
N6 N 0.496080(12) 0.34121(13) 1.74463(12)
C1 C 0.29762(19) 0.15335(18) 1.5218(3)
C2 C -0.31465(4) 0.14446(4) 0.96941(5)
C3 C 0.3732(3) 0.1517(3) 1.5994(4)
C4 C -0.39363(9) 0.14904(9) 0.90027(10)
C5 C 0.14854(17) 0.16041(17) 1.3732(3)
C6 C -0.16453(18) 0.14802(16) 1.1132(2)
C7 C 0.1507(2) 0.14238(19) 1.1100(3)
C8 C -0.16642(17) 0.16036(15) 1.3765(3)
C9 C 0.51236(16) 0.84027(16) 1.8395(2)
H5 H 0.5227 0.8176 1.9102
C10 C 0.49375(19) 0.83916(19) 1.6434(3)
H6 H 0.4903 0.8157 1.5722
C11 C 0.0741(3) 0.1450(4) 1.1844(5)
C12 C -0.0856(2) 0.1631(2) 1.3108(4)
C13 C 0.3712(2) 0.1404(2) 0.8941(4)
C14 C -0.3832(2) 0.1445(2) 1.5935(4)
C15 C 0.2962(2) 0.13993(17) 0.9729(3)
C16 C -0.3119(2) 0.15253(15) 1.5131(3)
C17 C -0.0082(4) 0.1472(3) 1.1271(6)
H7 H -0.0102 0.1420 1.0473
C18 C -0.0062(3) 0.1673(2) 1.3591(4)
H8 H -0.0040 0.1762 1.4381
C19 C 0.0673(2) 0.1601(2) 1.3061(4)
C20 C -0.0899(2) 0.1577(2) 1.1918(3)
C21 C 0.2344(2) 0.0994(3) 1.5295(5)
H9 H 0.2385 0.0610 1.5825
C22 C -0.25244(15) 0.08997(16) 0.97383(19)
H10 H -0.2613 0.0495 0.9259
C23 C 0.1649(4) 0.1050(3) 1.4550(4)
H11 H 0.1245 0.0676 1.4600
C24 C -0.1787(2) 0.0879(2) 1.0404(3)
H12 H -0.1407 0.0485 1.0366
C25 C 0.2882(3) 0.2045(3) 1.4337(4)
H13 H 0.3304 0.2401 1.4244
C26 C -0.29483(19) 0.20170(17) 1.0442(2)
H14 H -0.3331 0.2409 1.0475
C27 C 0.2193(2) 0.2055(3) 1.3585(5)
H15 H 0.2205 0.2377 1.2959
C28 C -0.22306(19) 0.2062(2) 1.1151(3)
H16 H -0.2144 0.2469 1.1626
C29 C 0.50511(18) 0.91652(18) 1.8375(3)
H17 H 0.5086 0.9416 1.9074
C30 C 0.48720(19) 0.9152(2) 1.6449(3)
H18 H 0.4779 0.9392 1.5750
C31 C 0.50509(17) 0.79490(15) 1.7410
C32 C 0.2367(2) 0.1971(2) 0.9656(5)
H19 H 0.2470 0.2353 0.9138
C33 C -0.25565(18) 0.21246(18) 1.5164(3)
H20 H -0.2662 0.2497 1.5698
C34 C 0.2883(3) 0.0902(3) 1.0631(4)
H21 H 0.3313 0.0563 1.0788
C35 C -0.2957(2) 0.0940(2) 1.4365(3)
H22 H -0.3314 0.0531 1.4316
C36 C 0.512340(18) 0.71367(14) 1.74127(8)
C37 C 0.1626(3) 0.1999(3) 1.0321(4)
H23 H 0.1233 0.2381 1.0248
C38 C -0.1863(2) 0.2196(2) 1.4461(3)
H24 H -0.1538 0.2626 1.4452
C39 C 0.2150(2) 0.0924(3) 1.1292(5)
H25 H 0.2089 0.0586 1.1891
C40 C -0.22300(19) 0.10116(19) 1.3684(4)
H26 H -0.2115 0.0644 1.3145
C41 C 0.50942(17) 0.57854(14) 1.745140(3)
C42 C 0.50480(17) 0.49727(13) 1.746090(2)
C43 C 0.51212(17) 0.45429(16) 1.8431(3)
H27 H 0.5207 0.4778 1.9135
C44 C 0.49353(17) 0.45553(16) 1.6478(3)
H28 H 0.4887 0.4801 1.5776
C45 C 0.50748(2) 0.37837(19) 1.8423(2)
H29 H 0.5124 0.3526 1.9114
C46 C 0.48898(3) 0.3796(2) 1.6472(2)
H30 H 0.4808 0.3548 1.5778
Zn1 Zn 0.49281(3) 0.22585(2) 1.749260(10)
Zn2 Zn 0.49427(3) 0.06448(2) 1.742230(4)
O2_2 O 0.5782(3) 0.0765(3) 1.8610(5)
O3_2 O 0.39655(19) 0.08387(16) 1.8540(3)
O4_2 O 0.58642(18) 0.08884(16) 1.6179(3)
O6_2 O 0.5748(3) 0.2101(2) 1.8851(4)
O7_2 O 0.3907(2) 0.19787(19) 1.8539(3)
O8_2 O 0.5955(2) 0.20621(17) 1.6444(3)
N1_2 N 0.49336(15) -0.04310(14) 1.740740(1)
Zn1_2 Zn -0.50719(3) 0.22585(2) 0.749260(10)
Zn1_3 Zn 0.49281(3) 0.22585(2) 0.749260(10)
Zn1_4 Zn -0.50719(3) 0.22585(2) 1.749260(10)
Zn2_2 Zn -0.50573(3) 0.06448(2) 0.742230(4)
Zn2_3 Zn 0.49427(3) 0.06448(2) 0.742230(4)
Zn2_4 Zn -0.50573(3) 0.06448(2) 1.742230(4)
Zn2_5 Zn 0.49427(3) 1.06448(2) 1.742230(4)
loop_
_geom_bond_atom_site_label_1
_geom_bond_atom_site_label_2
_geom_bond_site_symmetry_1
_geom_bond_site_symmetry_2
O1 C3 1_555 1_555
O2 C4 1_555 1_555
O3 C13 1_555 1_555
O4 C14 1_555 1_555
O5 C3 1_555 1_555
O6 C4 1_555 1_555
O7 C13 1_555 1_555
O8 C14 1_555 1_555
N1 C29 1_555 1_555
N2 N4 1_555 1_555
N3 N5 1_555 1_555
N4 C41 1_555 1_555
N5 C41 1_555 1_555
N6 C45 1_555 1_555
C1 C3 1_555 1_555
C2 C4 1_555 1_555
C5 C19 1_555 1_555
C6 C20 1_555 1_555
C7 C11 1_555 1_555
C8 C12 1_555 1_555
C9 H5 1_555 1_555
C10 H6 1_555 1_555
C11 C17 1_555 1_555
C12 C18 1_555 1_555
C13 C15 1_555 1_555
C14 C16 1_555 1_555
C15 C32 1_555 1_555
C16 C33 1_555 1_555
C17 H7 1_555 1_555
C18 H8 1_555 1_555
C19 C11 1_555 1_555
C20 C12 1_555 1_555
C21 C1 1_555 1_555
H9 C21 1_555 1_555
C22 C2 1_555 1_555
H10 C22 1_555 1_555
C23 C5 1_555 1_555
H11 C23 1_555 1_555
C24 C6 1_555 1_555
H12 C24 1_555 1_555
C25 C1 1_555 1_555
H13 C25 1_555 1_555
C26 C2 1_555 1_555
H14 C26 1_555 1_555
C27 C5 1_555 1_555
H15 C27 1_555 1_555
C28 C6 1_555 1_555
H16 C28 1_555 1_555
C29 C9 1_555 1_555
H17 C29 1_555 1_555
C30 N1 1_555 1_555
H18 C30 1_555 1_555
C31 C9 1_555 1_555
C32 H19 1_555 1_555
C33 H20 1_555 1_555
C34 C15 1_555 1_555
H21 C34 1_555 1_555
C35 C16 1_555 1_555
H22 C35 1_555 1_555
C36 N2 1_555 1_555
C37 C7 1_555 1_555
H23 C37 1_555 1_555
C38 C8 1_555 1_555
H24 C38 1_555 1_555
C39 C7 1_555 1_555
H25 C39 1_555 1_555
C40 C8 1_555 1_555
H26 C40 1_555 1_555
C41 C42 1_555 1_555
C42 C43 1_555 1_555
C43 H27 1_555 1_555
C44 C42 1_555 1_555
H28 C44 1_555 1_555
C45 C43 1_555 1_555
H29 C45 1_555 1_555
C46 N6 1_555 1_555
H30 C46 1_555 1_555
Zn1 O5 1_555 1_555
Zn2 O1 1_555 1_555
O2_2 Zn2 1_555 1_555
O3_2 Zn2 1_555 1_555
O4_2 Zn2 1_555 1_555
O6_2 Zn1 1_555 1_555
O7_2 Zn1 1_555 1_555
O8_2 Zn1 1_555 1_555
N1_2 Zn2 1_555 1_555
Zn1_2 O6 1_555 1_555
Zn1_3 O7 1_555 1_555
Zn1_4 O8 1_555 1_555
Zn2_2 O2 1_555 1_555
Zn2_3 O3 1_555 1_555
Zn2_4 O4 1_555 1_555
Zn2_5 N1 1_555 1_555
N3 C36 1_555 1_555
N6 Zn1 1_555 1_555
C10 C30 1_555 1_555
C10 C31 1_555 1_555
C17 C20 1_555 1_555
C18 C19 1_555 1_555
C21 C23 1_555 1_555
C22 C24 1_555 1_555
C25 C27 1_555 1_555
C26 C28 1_555 1_555
C31 C36 1_555 1_555
C32 C37 1_555 1_555
C33 C38 1_555 1_555
C34 C39 1_555 1_555
C35 C40 1_555 1_555
C44 C46 1_555 1_555

#END
