
#######################################################################
#
#                 Cambridge Crystallographic Data Centre
#                                CCDC 
#
#######################################################################
#
# If this CIF has been generated from an entry in the Cambridge 
# Structural Database, then it will include bibliographic, chemical, 
# crystal, experimental, refinement or atomic coordinate data resulting 
# from the CCDC's data processing and validation procedures.
#
#######################################################################

data_FUNCEX
_chemical_formula_moiety         '(C46 H24 Br2 N6 O8 Zn2)n'
_symmetry_cell_setting           monoclinic
_symmetry_space_group_name_H-M   'P 2/m'
_symmetry_Int_Tables_number      10
_space_group_name_Hall           '-P 2y'
loop_
_symmetry_equiv_pos_site_id
_symmetry_equiv_pos_as_xyz
1 x,y,z
2 -x,y,-z
3 -x,-y,-z
4 x,-y,z
_cell_length_a                   11.6151(11)
_cell_length_b                   15.6480(10)
_cell_length_c                   18.163(3)
_cell_angle_alpha                90
_cell_angle_beta                 93.202(10)
_cell_angle_gamma                90
_cell_volume                     3296.03
loop_
_atom_site_label
_atom_site_type_symbol
_atom_site_fract_x
_atom_site_fract_y
_atom_site_fract_z
Zn1 Zn 0.00762(8) 0.0000 0.08107(7)
Br1 Br 0.21933(10) 0.5000 0.00062(12)
O1 O 0.1297(4) 0.0911(3) 0.0605(3)
O2 O 0.1162(4) 0.0909(3) -0.0626(3)
N1 N 0.00566(7) 0.0000 0.1893(7)
N2 N -0.0998(17) 0.0000 0.4613(16)
N3 N 0.1031(17) 0.0000 0.4672(15)
C1 C 0.3844(7) 0.5000 -0.0029(5)
C2 C 0.2352(6) 0.1941(4) 0.0000(4)
C3 C 0.1515(6) 0.1156(4) -0.0010(5)
C4 C 0.4374(5) 0.4223(3) 0.0005(4)
C5 C 0.3734(6) 0.3393(3) 0.0001(4)
C6 C 0.2759(7) 0.2285(5) 0.0665(5)
H3 H 0.2576 0.2046 0.1112
C7 C 0.2657(7) 0.2281(5) -0.0657(5)
H4 H 0.2420 0.2020 -0.1100
C8 C 0.3336(8) 0.3033(5) -0.0655(5)
H5 H 0.3512 0.3283 -0.1098
C9 C 0.3489(8) 0.3041(5) 0.0632(5)
H6 H 0.3790 0.3282 0.1069
C10 C -0.0902(13) 0.0000 0.2253(10)
H7 H -0.1598 0.0000 0.1974
C11 C 0.1031(13) 0.0000 0.2327(10)
H8 H 0.1730 0.0000 0.2101
C12 C -0.0954(14) 0.0000 0.3008(10)
H9 H -0.1671 0.0000 0.3211
C13 C 0.00279(4) 0.0000 0.3471(10)
C14 C 0.1059(14) 0.0000 0.3098(11)
H10 H 0.1765 0.0000 0.3366
C15 C 0.00128(5) 0.0000 0.4301(10)
Zn1_2 Zn 0.00762(8) 1.0000 0.08107(7)
Zn1A Zn -0.00762(8) 0.0000 -0.08107(7)
Zn1A_2 Zn -0.00762(8) 1.0000 -0.08107(7)
Zn1A_3 Zn 0.99238(8) 1.0000 -0.08107(7)
Zn1_3 Zn 1.00762(8) 1.0000 0.08107(7)
Zn1A_4 Zn 0.99238(8) 0.0000 -0.08107(7)
Zn1_4 Zn 1.00762(8) 0.0000 0.08107(7)
Zn1A_5 Zn -0.00762(8) 0.0000 0.91893(7)
Br1A Br 0.78067(10) 0.5000 -0.00062(12)
O1C O 0.1297(4) 0.9089(3) 0.0605(3)
O1B O 0.8703(4) 0.9089(3) -0.0605(3)
O1A O 0.8703(4) 0.0911(3) -0.0605(3)
O1C_2 O 0.1297(4) -0.0911(3) 0.0605(3)
O1_2 O 0.1297(4) 1.0911(3) 0.0605(3)
O2C O 0.1162(4) 0.9091(3) -0.0626(3)
O2B O 0.8838(4) 0.9091(3) 0.0626(3)
O2A O 0.8838(4) 0.0909(3) 0.0626(3)
O2A_2 O -0.1162(4) 0.0909(3) 0.0626(3)
O2B_2 O -0.1162(4) -0.0909(3) 0.0626(3)
O2B_3 O -0.1162(4) 0.9091(3) 0.0626(3)
O2A_3 O -0.1162(4) 1.0909(3) 0.0626(3)
N1A N -0.00566(7) 0.0000 0.8107(7)
N1_2 N 0.00566(7) 1.0000 0.1893(7)
N2A N 0.0998(17) 0.0000 0.5387(16)
N3A N -0.1031(17) 0.0000 0.5328(15)
C1A C 0.6156(7) 0.5000 0.0029(5)
C2C C 0.2352(6) 0.8059(4) 0.0000(4)
C2B C 0.7648(6) 0.8059(4) 0.0000(4)
C2A C 0.7648(6) 0.1941(4) 0.0000(4)
C3C C 0.1515(6) 0.8844(4) -0.0010(5)
C3B C 0.8485(6) 0.8844(4) 0.0010(5)
C3A C 0.8485(6) 0.1156(4) 0.0010(5)
C4A C 0.5626(5) 0.4223(3) -0.0005(4)
C4B C 0.5626(5) 0.5777(3) -0.0005(4)
C4C C 0.4374(5) 0.5777(3) 0.0005(4)
C5C C 0.3734(6) 0.6607(3) 0.0001(4)
C5B C 0.6266(6) 0.6607(3) -0.0001(4)
C5A C 0.6266(6) 0.3393(3) -0.0001(4)
C6C C 0.2759(7) 0.7715(5) 0.0665(5)
C6B C 0.7241(7) 0.7715(5) -0.0665(5)
C6A C 0.7241(7) 0.2285(5) -0.0665(5)
H3C H 0.2576 0.7954 0.1112
H3B H 0.7424 0.7954 -0.1112
H3A H 0.7424 0.2046 -0.1112
C7C C 0.2657(7) 0.7719(5) -0.0657(5)
C7B C 0.7343(7) 0.7719(5) 0.0657(5)
C7A C 0.7343(7) 0.2281(5) 0.0657(5)
H4C H 0.2420 0.7980 -0.1100
H4B H 0.7580 0.7980 0.1100
H4A H 0.7580 0.2020 0.1100
C8C C 0.3336(8) 0.6967(5) -0.0655(5)
C8B C 0.6664(8) 0.6967(5) 0.0655(5)
C8A C 0.6664(8) 0.3033(5) 0.0655(5)
H5C H 0.3512 0.6717 -0.1098
H5B H 0.6488 0.6717 0.1098
H5A H 0.6488 0.3283 0.1098
C9C C 0.3489(8) 0.6959(5) 0.0632(5)
C9B C 0.6511(8) 0.6959(5) -0.0632(5)
C9A C 0.6511(8) 0.3041(5) -0.0632(5)
H6C H 0.3790 0.6718 0.1069
H6B H 0.6210 0.6718 -0.1069
H6A H 0.6210 0.3282 -0.1069
C10A C 0.0902(13) 0.0000 0.7747(10)
H7A H 0.1598 0.0000 0.8026
C11A C -0.1031(13) 0.0000 0.7673(10)
H8A H -0.1730 0.0000 0.7899
C12A C 0.0954(14) 0.0000 0.6992(10)
H9A H 0.1671 0.0000 0.6789
C13A C -0.00279(4) 0.0000 0.6529(10)
C14A C -0.1059(14) 0.0000 0.6902(11)
H10A H -0.1765 0.0000 0.6634
C15A C -0.00128(5) 0.0000 0.5699(10)
loop_
_geom_bond_atom_site_label_1
_geom_bond_atom_site_label_2
_geom_bond_site_symmetry_1
_geom_bond_site_symmetry_2
Zn1 O1 1_555 1_555
Br1 C1 1_555 1_555
O1 C3 1_555 1_555
O2 C3 1_555 1_555
N1 Zn1 1_555 1_555
N2 C15 1_555 1_555
N3 C15 1_555 1_555
C1 C4 1_555 1_555
C2 C3 1_555 1_555
C4 C5 1_555 1_555
C5 C8 1_555 1_555
C6 C2 1_555 1_555
H3 C6 1_555 1_555
C7 C2 1_555 1_555
H4 C7 1_555 1_555
C8 C7 1_555 1_555
H5 C8 1_555 1_555
C9 C5 1_555 1_555
H6 C9 1_555 1_555
C10 N1 1_555 1_555
H7 C10 1_555 1_555
C11 N1 1_555 1_555
H8 C11 1_555 1_555
C12 C10 1_555 1_555
H9 C12 1_555 1_555
C13 C12 1_555 1_555
C14 C11 1_555 1_555
H10 C14 1_555 1_555
C15 C13 1_555 1_555
Zn1_2 O1C 1_555 1_555
Zn1A O2 1_555 1_555
Zn1A_2 O2C 1_555 1_555
Zn1A_3 O1B 1_555 1_555
Zn1_3 O2B 1_555 1_555
Zn1A_4 O1A 1_555 1_555
Zn1_4 O2A 1_555 1_555
Zn1A_5 N1A 1_555 1_555
Br1A C1A 1_555 1_555
O1C C3C 1_555 1_555
O1B C3B 1_555 1_555
O1A C3A 1_555 1_555
O1C_2 Zn1 1_555 1_555
O1_2 Zn1_2 1_555 1_555
O2C C3C 1_555 1_555
O2B C3B 1_555 1_555
O2A C3A 1_555 1_555
O2A_2 Zn1 1_555 1_555
O2B_2 Zn1 1_555 1_555
O2B_3 Zn1_2 1_555 1_555
O2A_3 Zn1_2 1_555 1_555
N1A C10A 1_555 1_555
N1_2 Zn1_2 1_555 1_555
N2A N3 1_555 1_555
N3A N2 1_555 1_555
C1A C4A 1_555 1_555
C2C C3C 1_555 1_555
C2B C3B 1_555 1_555
C2A C3A 1_555 1_555
C4A C4 1_555 1_555
C4B C1A 1_555 1_555
C4C C1 1_555 1_555
C5C C4C 1_555 1_555
C5B C4B 1_555 1_555
C5A C4A 1_555 1_555
C6C C2C 1_555 1_555
C6B C2B 1_555 1_555
C6A C2A 1_555 1_555
H3C C6C 1_555 1_555
H3B C6B 1_555 1_555
H3A C6A 1_555 1_555
C7C C2C 1_555 1_555
C7B C2B 1_555 1_555
C7A C2A 1_555 1_555
H4C C7C 1_555 1_555
H4B C7B 1_555 1_555
H4A C7A 1_555 1_555
C8C C5C 1_555 1_555
C8B C5B 1_555 1_555
C8A C5A 1_555 1_555
H5C C8C 1_555 1_555
H5B C8B 1_555 1_555
H5A C8A 1_555 1_555
C9C C5C 1_555 1_555
C9B C5B 1_555 1_555
C9A C5A 1_555 1_555
H6C C9C 1_555 1_555
H6B C9B 1_555 1_555
H6A C9A 1_555 1_555
C10A H7A 1_555 1_555
C11A N1A 1_555 1_555
H8A C11A 1_555 1_555
C12A C10A 1_555 1_555
H9A C12A 1_555 1_555
C13A C12A 1_555 1_555
C14A C11A 1_555 1_555
H10A C14A 1_555 1_555
C15A N2A 1_555 1_555
C6 C9 1_555 1_555
C13 C14 1_555 1_555
N3A C15A 1_555 1_555
C4B C4C 1_555 1_555
C6C C9C 1_555 1_555
C6B C9B 1_555 1_555
C6A C9A 1_555 1_555
C7C C8C 1_555 1_555
C7B C8B 1_555 1_555
C7A C8A 1_555 1_555
C13A C14A 1_555 1_555
C13A C15A 1_555 1_555

#END
