
#######################################################################
#
#                 Cambridge Crystallographic Data Centre
#                                CCDC 
#
#######################################################################
#
# If this CIF has been generated from an entry in the Cambridge 
# Structural Database, then it will include bibliographic, chemical, 
# crystal, experimental, refinement or atomic coordinate data resulting 
# from the CCDC's data processing and validation procedures.
#
#######################################################################

data_FUNCIB
_chemical_formula_moiety         'C78 H40 Br2 N5 O22 Zn9'
_symmetry_cell_setting           orthorhombic
_symmetry_space_group_name_H-M   'P m m m'
_symmetry_Int_Tables_number      47
_space_group_name_Hall           '-P 2 2'
loop_
_symmetry_equiv_pos_site_id
_symmetry_equiv_pos_as_xyz
1 x,y,z
2 -x,-y,z
3 -x,y,-z
4 x,-y,-z
5 -x,-y,-z
6 x,y,-z
7 x,-y,z
8 -x,y,z
_cell_length_a                   10.1617(13)
_cell_length_b                   16.451(2)
_cell_length_c                   22.313(3)
_cell_angle_alpha                90
_cell_angle_beta                 90
_cell_angle_gamma                90
_cell_volume                     3730.07
loop_
_atom_site_label
_atom_site_type_symbol
_atom_site_fract_x
_atom_site_fract_y
_atom_site_fract_z
Zn1 Zn 0.5000 0.5000 0.56549(7)
Br1 Br 0.6801(2) 0.0000 0.5000
O1 O 0.6319(6) 0.4150(4) 0.5504(2)
C1 C 0.6631(14) 0.3856(9) 0.5000
C2 C 0.7359(14) 0.3082(8) 0.5000
C3 C 0.7638(11) 0.2642(7) 0.4481(3)
H1 H 0.7379 0.2866 0.4107
C4 C 0.8251(9) 0.1920(6) 0.4482(3)
H2 H 0.8419 0.1649 0.4114
C5 C 0.8628(12) 0.1581(8) 0.5000
C6 C 0.9316(9) 0.0761(6) 0.5000
C7 C 0.8684(14) 0.0000 0.5000
N1 N 0.5000 0.5000 0.6512(4)
N2 N 0.5000 0.5000 0.8434(5)
O2 O 0.3904(19) 0.6167(12) 0.8427(6)
C8 C 0.4070(11) 0.5309(7) 0.6868(4)
H3 H 0.3358 0.5564 0.6666
C9 C 0.3987(12) 0.5314(9) 0.7485(4)
H4 H 0.3231 0.5535 0.7676
C10 C 0.5000 0.5000 0.7825(7)
C11 C 0.4481(17) 0.5734(13) 0.8710(7)
C12 C 0.4434(16) 0.5626(14) 0.9388(7)
C13 C 0.389(2) 0.6277(17) 0.9686(8)
H5 H 0.3514 0.6719 0.9470
C14 C 0.5000 0.5000 0.9651(7)
Zn1B Zn 0.5000 0.5000 0.43451(7)
Zn1B_2 Zn 1.5000 0.5000 0.43451(7)
Zn1_2 Zn 1.5000 0.5000 0.56549(7)
Zn1_3 Zn 1.5000 -0.5000 0.56549(7)
Zn1B_3 Zn 1.5000 -0.5000 0.43451(7)
Zn1B_4 Zn 0.5000 -0.5000 0.43451(7)
Zn1_4 Zn 0.5000 -0.5000 0.56549(7)
Zn1B_5 Zn 0.5000 0.5000 1.43451(7)
Br1A Br 1.3199(2) 0.0000 0.5000
O1E O 0.6319(6) 0.4150(4) 0.4496(2)
O1B O 1.3681(6) 0.4150(4) 0.4496(2)
O1G O 1.3681(6) 0.4150(4) 0.5504(2)
O1A O 1.3681(6) -0.4150(4) 0.5504(2)
O1D O 1.3681(6) -0.4150(4) 0.4496(2)
O1C O 0.6319(6) -0.4150(4) 0.4496(2)
O1F O 0.6319(6) -0.4150(4) 0.5504(2)
O1A_2 O 0.3681(6) 0.5850(4) 0.5504(2)
O1F_2 O 0.6319(6) 0.5850(4) 0.5504(2)
O1G_2 O 0.3681(6) 0.4150(4) 0.5504(2)
O1D_2 O 0.3681(6) 0.5850(4) 0.4496(2)
O1C_2 O 0.6319(6) 0.5850(4) 0.4496(2)
O1B_2 O 0.3681(6) 0.4150(4) 0.4496(2)
C1B C 1.3369(14) 0.3856(9) 0.5000
C1A C 1.3369(14) -0.3856(9) 0.5000
C1C C 0.6631(14) -0.3856(9) 0.5000
C2B C 1.2641(14) 0.3082(8) 0.5000
C2A C 1.2641(14) -0.3082(8) 0.5000
C2C C 0.7359(14) -0.3082(8) 0.5000
C3E C 0.7638(11) 0.2642(7) 0.5519(3)
C3B C 1.2362(11) 0.2642(7) 0.5519(3)
C3G C 1.2362(11) 0.2642(7) 0.4481(3)
C3A C 1.2362(11) -0.2642(7) 0.4481(3)
C3D C 1.2362(11) -0.2642(7) 0.5519(3)
C3C C 0.7638(11) -0.2642(7) 0.5519(3)
C3F C 0.7638(11) -0.2642(7) 0.4481(3)
H1E H 0.7379 0.2866 0.5893
H1G H 1.2621 0.2866 0.4107
H1B H 1.2621 0.2866 0.5893
H1D H 1.2621 -0.2866 0.5893
H1A H 1.2621 -0.2866 0.4107
H1F H 0.7379 -0.2866 0.4107
H1C H 0.7379 -0.2866 0.5893
C4E C 0.8251(9) 0.1920(6) 0.5518(3)
C4B C 1.1749(9) 0.1920(6) 0.5518(3)
C4G C 1.1749(9) 0.1920(6) 0.4482(3)
C4A C 1.1749(9) -0.1920(6) 0.4482(3)
C4D C 1.1749(9) -0.1920(6) 0.5518(3)
C4C C 0.8251(9) -0.1920(6) 0.5518(3)
C4F C 0.8251(9) -0.1920(6) 0.4482(3)
H2E H 0.8419 0.1649 0.5886
H2G H 1.1581 0.1649 0.4114
H2B H 1.1581 0.1649 0.5886
H2D H 1.1581 -0.1649 0.5886
H2A H 1.1581 -0.1649 0.4114
H2F H 0.8419 -0.1649 0.4114
H2C H 0.8419 -0.1649 0.5886
C5B C 1.1372(12) 0.1581(8) 0.5000
C5A C 1.1372(12) -0.1581(8) 0.5000
C5C C 0.8628(12) -0.1581(8) 0.5000
C6B C 1.0684(9) 0.0761(6) 0.5000
C6A C 1.0684(9) -0.0761(6) 0.5000
C6C C 0.9316(9) -0.0761(6) 0.5000
C7A C 1.1316(14) 0.0000 0.5000
N1B N 0.5000 0.5000 1.3488(4)
N1B_2 N 0.5000 0.5000 0.3488(4)
N2B N 0.5000 0.5000 1.1566(5)
O2D O 0.6096(19) 0.3833(12) 1.1573(6)
O2F O 0.3904(19) 0.3833(12) 0.8427(6)
O2G O 0.6096(19) 0.6167(12) 0.8427(6)
O2C O 0.3904(19) 0.3833(12) 1.1573(6)
O2B O 0.6096(19) 0.6167(12) 1.1573(6)
O2A O 0.6096(19) 0.3833(12) 0.8427(6)
O2E O 0.3904(19) 0.6167(12) 1.1573(6)
C8F C 0.4070(11) 0.4691(7) 0.6868(4)
C8A C 0.5930(11) 0.4691(7) 0.6868(4)
C8G C 0.5930(11) 0.5309(7) 0.6868(4)
C8E C 0.4070(11) 0.5309(7) 1.3132(4)
C8D C 0.5930(11) 0.4691(7) 1.3132(4)
C8B C 0.5930(11) 0.5309(7) 1.3132(4)
C8C C 0.4070(11) 0.4691(7) 1.3132(4)
H3A H 0.6642 0.4436 0.6666
H3G H 0.6642 0.5564 0.6666
H3D H 0.6642 0.4436 1.3334
H3C H 0.3358 0.4436 1.3334
H3E H 0.3358 0.5564 1.3334
H3B H 0.6642 0.5564 1.3334
H3F H 0.3358 0.4436 0.6666
C9A C 0.6013(12) 0.4686(9) 0.7485(4)
C9G C 0.6013(12) 0.5314(9) 0.7485(4)
C9E C 0.3987(12) 0.5314(9) 1.2515(4)
C9D C 0.6013(12) 0.4686(9) 1.2515(4)
C9C C 0.3987(12) 0.4686(9) 1.2515(4)
C9B C 0.6013(12) 0.5314(9) 1.2515(4)
C9F C 0.3987(12) 0.4686(9) 0.7485(4)
H4G H 0.6769 0.5535 0.7676
H4E H 0.3231 0.5535 1.2324
H4C H 0.3231 0.4465 1.2324
H4D H 0.6769 0.4465 1.2324
H4B H 0.6769 0.5535 1.2324
H4A H 0.6769 0.4465 0.7676
H4F H 0.3231 0.4465 0.7676
C10B C 0.5000 0.5000 1.2175(7)
C11E C 0.4481(17) 0.5734(13) 1.1290(7)
C11D C 0.5519(17) 0.4266(13) 1.1290(7)
C11A C 0.5519(17) 0.4266(13) 0.8710(7)
C11F C 0.4481(17) 0.4266(13) 0.8710(7)
C11G C 0.5519(17) 0.5734(13) 0.8710(7)
C11B C 0.5519(17) 0.5734(13) 1.1290(7)
C11C C 0.4481(17) 0.4266(13) 1.1290(7)
C12E C 0.4434(16) 0.5626(14) 1.0612(7)
C12D C 0.5566(16) 0.4374(14) 1.0612(7)
C12A C 0.5566(16) 0.4374(14) 0.9388(7)
C12F C 0.4434(16) 0.4374(14) 0.9388(7)
C12G C 0.5566(16) 0.5626(14) 0.9388(7)
C12B C 0.5566(16) 0.5626(14) 1.0612(7)
C12C C 0.4434(16) 0.4374(14) 1.0612(7)
C13E C 0.389(2) 0.6277(17) 1.0314(8)
C13D C 0.611(2) 0.3723(17) 1.0314(8)
C13A C 0.611(2) 0.3723(17) 0.9686(8)
C13F C 0.389(2) 0.3723(17) 0.9686(8)
C13C C 0.389(2) 0.3723(17) 1.0314(8)
C13G C 0.611(2) 0.6277(17) 0.9686(8)
C13B C 0.611(2) 0.6277(17) 1.0314(8)
H5D H 0.6486 0.3281 1.0530
H5F H 0.3514 0.3281 0.9470
H5G H 0.6486 0.6719 0.9470
H5C H 0.3514 0.3281 1.0530
H5B H 0.6486 0.6719 1.0530
H5A H 0.6486 0.3281 0.9470
H5E H 0.3514 0.6719 1.0530
C14B C 0.5000 0.5000 1.0349(7)
loop_
_geom_bond_atom_site_label_1
_geom_bond_atom_site_label_2
_geom_bond_site_symmetry_1
_geom_bond_site_symmetry_2
Zn1 O1 1_555 1_555
Br1 C7 1_555 1_555
O1 C1 1_555 1_555
C1 C2 1_555 1_555
C2 C3 1_555 1_555
C3 H1 1_555 1_555
C4 C3 1_555 1_555
H2 C4 1_555 1_555
C5 C4 1_555 1_555
C6 C5 1_555 1_555
C7 C6 1_555 1_555
N1 Zn1 1_555 1_555
N2 C10 1_555 1_555
O2 C11 1_555 1_555
C8 N1 1_555 1_555
H3 C8 1_555 1_555
C9 C8 1_555 1_555
H4 C9 1_555 1_555
C10 C9 1_555 1_555
C11 N2 1_555 1_555
C12 C11 1_555 1_555
C13 C12 1_555 1_555
H5 C13 1_555 1_555
C14 C12 1_555 1_555
Zn1B O1E 1_555 1_555
Zn1B_2 O1B 1_555 1_555
Zn1_2 O1G 1_555 1_555
Zn1_3 O1A 1_555 1_555
Zn1B_3 O1D 1_555 1_555
Zn1B_4 O1C 1_555 1_555
Zn1_4 O1F 1_555 1_555
Zn1B_5 N1B 1_555 1_555
Br1A C7A 1_555 1_555
O1E C1 1_555 1_555
O1B C1B 1_555 1_555
O1G C1B 1_555 1_555
O1A C1A 1_555 1_555
O1D C1A 1_555 1_555
O1C C1C 1_555 1_555
O1F C1C 1_555 1_555
O1A_2 Zn1 1_555 1_555
O1F_2 Zn1 1_555 1_555
O1G_2 Zn1 1_555 1_555
O1D_2 Zn1B 1_555 1_555
O1C_2 Zn1B 1_555 1_555
O1B_2 Zn1B 1_555 1_555
C1B C2B 1_555 1_555
C1A C2A 1_555 1_555
C1C C2C 1_555 1_555
C2B C3B 1_555 1_555
C2A C3A 1_555 1_555
C2C C3C 1_555 1_555
C3E C2 1_555 1_555
C3B H1B 1_555 1_555
C3G C2B 1_555 1_555
C3A H1A 1_555 1_555
C3D C2A 1_555 1_555
C3C H1C 1_555 1_555
C3F C2C 1_555 1_555
H1E C3E 1_555 1_555
H1G C3G 1_555 1_555
H1D C3D 1_555 1_555
H1F C3F 1_555 1_555
C4E C5 1_555 1_555
C4B C3B 1_555 1_555
C4G C3G 1_555 1_555
C4A C3A 1_555 1_555
C4D C3D 1_555 1_555
C4C C3C 1_555 1_555
C4F C3F 1_555 1_555
H2E C4E 1_555 1_555
H2G C4G 1_555 1_555
H2B C4B 1_555 1_555
H2D C4D 1_555 1_555
H2A C4A 1_555 1_555
H2F C4F 1_555 1_555
H2C C4C 1_555 1_555
C5B C4B 1_555 1_555
C5A C4A 1_555 1_555
C5C C4C 1_555 1_555
C6B C6 1_555 1_555
C6A C5A 1_555 1_555
C6C C7 1_555 1_555
C7A C6B 1_555 1_555
N1B C8E 1_555 1_555
N1B_2 Zn1B 1_555 1_555
N2B C10B 1_555 1_555
O2D C11D 1_555 1_555
O2F C11F 1_555 1_555
O2G C11G 1_555 1_555
O2C C11C 1_555 1_555
O2B C11B 1_555 1_555
O2A C11A 1_555 1_555
O2E C11E 1_555 1_555
C8F N1 1_555 1_555
C8A N1 1_555 1_555
C8G N1 1_555 1_555
C8E C8C 1_555 1_555
C8D N1B 1_555 1_555
C8B N1B 1_555 1_555
C8C N1B 1_555 1_555
H3A C8A 1_555 1_555
H3G C8G 1_555 1_555
H3D C8D 1_555 1_555
H3C C8C 1_555 1_555
H3E C8E 1_555 1_555
H3B C8B 1_555 1_555
H3F C8F 1_555 1_555
C9A C10 1_555 1_555
C9G C10 1_555 1_555
C9E C8E 1_555 1_555
C9D C8D 1_555 1_555
C9C C8E 1_555 1_555
C9B C8D 1_555 1_555
C9F C8 1_555 1_555
H4G C9G 1_555 1_555
H4E C9E 1_555 1_555
H4C C9C 1_555 1_555
H4D C9D 1_555 1_555
H4B C9B 1_555 1_555
H4A C9A 1_555 1_555
H4F C9F 1_555 1_555
C10B C9E 1_555 1_555
C11E N2B 1_555 1_555
C11D N2B 1_555 1_555
C11A N2 1_555 1_555
C11F N2 1_555 1_555
C11G N2 1_555 1_555
C11B N2B 1_555 1_555
C11C N2B 1_555 1_555
C12E C11E 1_555 1_555
C12D C11D 1_555 1_555
C12A C14 1_555 1_555
C12F C14 1_555 1_555
C12G C12 1_555 1_555
C12B C11B 1_555 1_555
C12C C11C 1_555 1_555
C13E C13 1_555 1_555
C13D C12D 1_555 1_555
C13A C12A 1_555 1_555
C13F C12F 1_555 1_555
C13C C12C 1_555 1_555
C13G C12G 1_555 1_555
C13B C12B 1_555 1_555
H5D C13D 1_555 1_555
H5F C13F 1_555 1_555
H5G C13G 1_555 1_555
H5C C13C 1_555 1_555
H5B C13B 1_555 1_555
H5A C13A 1_555 1_555
H5E C13E 1_555 1_555
C14B C14 1_555 1_555
C8 C8F 1_555 1_555
C9 C8F 1_555 1_555
C9 C9F 1_555 1_555
C10 C9F 1_555 1_555
C11 C11G 1_555 1_555
C14 C12G 1_555 1_555
C3E C4E 1_555 1_555
C4G C5B 1_555 1_555
C4D C5A 1_555 1_555
C4F C5C 1_555 1_555
C5B C6B 1_555 1_555
C5C C6C 1_555 1_555
C6A C6C 1_555 1_555
C6A C7A 1_555 1_555
C8F C9F 1_555 1_555
C8A C8G 1_555 1_555
C8A C9A 1_555 1_555
C8A C9G 1_555 1_555
C8G C9A 1_555 1_555
C8G C9G 1_555 1_555
C8D C8B 1_555 1_555
C8B C9D 1_555 1_555
C8B C9B 1_555 1_555
C8C C9E 1_555 1_555
C8C C9C 1_555 1_555
C9A C9G 1_555 1_555
C9E C9C 1_555 1_555
C9D C9B 1_555 1_555
C9D C10B 1_555 1_555
C9C C10B 1_555 1_555
C9B C10B 1_555 1_555
C11E C11B 1_555 1_555
C11D C11C 1_555 1_555
C11A C11F 1_555 1_555
C11A C12A 1_555 1_555
C11F C12F 1_555 1_555
C11G C12G 1_555 1_555
C12E C12B 1_555 1_555
C12E C13E 1_555 1_555
C12E C14B 1_555 1_555
C12D C12C 1_555 1_555
C12D C14B 1_555 1_555
C12A C12F 1_555 1_555
C12B C14B 1_555 1_555
C12C C14B 1_555 1_555
C13D C13A 1_555 1_555
C13F C13C 1_555 1_555
C13G C13B 1_555 1_555

#END
