
#######################################################################
#
#                 Cambridge Crystallographic Data Centre
#                                CCDC 
#
#######################################################################
#
# If this CIF has been generated from an entry in the Cambridge 
# Structural Database, then it will include bibliographic, chemical, 
# crystal, experimental, refinement or atomic coordinate data resulting 
# from the CCDC's data processing and validation procedures.
#
#######################################################################

data_FIMNIA
_chemical_formula_moiety         '(C30 H24 Ag8 As1 N25 O42 W12)n'
_symmetry_cell_setting           triclinic
_symmetry_space_group_name_H-M   'P -1'
_symmetry_Int_Tables_number      2
_space_group_name_Hall           '-P 1'
loop_
_symmetry_equiv_pos_site_id
_symmetry_equiv_pos_as_xyz
1 x,y,z
2 -x,-y,-z
_cell_length_a                   12.0216(9)
_cell_length_b                   13.9379(11)
_cell_length_c                   22.7658(17)
_cell_angle_alpha                95.8250(10)
_cell_angle_beta                 104.7220(10)
_cell_angle_gamma                104.0360(10)
_cell_volume                     3524.66
loop_
_atom_site_label
_atom_site_type_symbol
_atom_site_fract_x
_atom_site_fract_y
_atom_site_fract_z
As1 As 1.26181(15) -0.30545(11) 1.29252(7)
W1 W 1.10243(8) -0.44543(6) 1.14433(4)
O1 O 1.8118(19) -0.1085(16) 1.2470(9)
O2 O 1.0284(11) -0.3468(9) 1.1654(5)
Ag1 Ag 1.7086(3) -0.2013(2) 1.15264(13)
N1 N 2.0261(16) 0.2134(11) 1.5037(7)
N2 N 2.2459(13) 0.1219(10) 1.2070(6)
N3 N 1.7824(14) 0.1312(11) 1.2445(7)
N4 N 0.9717(16) 0.2479(12) 1.0107(8)
N5 N 2.0554(14) 0.0860(12) 1.1891(7)
N6 N 1.6282(14) 0.0584(11) 1.1670(6)
N7 N 2.0239(15) 0.1857(12) 1.4070(7)
N8 N 1.7378(13) 0.0593(10) 1.1928(7)
N9 N 2.1014(13) 0.1395(10) 1.2466(6)
N10 N 1.2160(14) 0.0183(10) 0.9611(6)
N11 N 1.7546(16) 0.4325(13) 1.3753(7)
N12 N 1.3164(14) 0.0792(11) 1.0600(7)
N13 N 1.5282(17) -0.1956(11) 1.0361(10)
N14 N 1.5957(13) 0.1281(10) 1.1985(6)
N15 N 1.3660(14) 0.0149(11) 1.0379(7)
N16 N 2.4709(15) 0.3074(12) 1.4263(7)
N17 N 1.307(2) -0.0244(15) 0.9771(10)
N18 N 2.1408(14) 0.0756(12) 1.1636(7)
N19 N 1.4634(18) -0.2336(13) 0.9780(9)
N20 N 1.6014(16) -0.2499(12) 1.0546(9)
N21 N 2.1006(18) 0.2786(13) 1.4335(7)
N22 N 1.4955(17) -0.3120(11) 0.9577(8)
N23 N 1.737(2) -0.1303(14) 1.4370(10)
N24 N 2.0983(17) 0.2917(12) 1.4921(7)
N25 N 1.7404(16) -0.5619(12) 1.0005(9)
C1 C 1.581(2) -0.3238(14) 1.0066(10)
W2 W 0.98881(8) -0.30526(6) 1.32664(4)
O3 O 1.1238(17) -0.2501(12) 0.8627(8)
O4 O 1.1564(10) -0.2463(7) 1.2904(5)
Ag2 Ag 1.81376(16) 0.57465(10) 1.44092(7)
C2 C 1.608(2) -0.4699(14) 0.9494(11)
H1 H 1.5535 -0.4634 0.9139
W3 W 1.53327(8) -0.29281(6) 1.25471(4)
O5 O 1.1570(14) -0.4609(9) 1.4769(6)
Ag3 Ag 1.97724(15) 0.15561(14) 1.30314(7)
C3 C 1.713(3) -0.4207(19) 1.0578(12)
H2 H 1.7293 -0.3803 1.0957
W4 W 1.04824(8) -0.54216(5) 1.26781(4)
O6 O 1.0041(11) -0.5370(9) 1.1802(5)
Ag4 Ag 1.51501(14) -0.05671(10) 1.08548(7)
C4 C 2.3087(16) 0.2150(12) 1.3167(9)
W5 W 1.03882(7) -0.21223(6) 1.19973(4)
O7 O 1.3178(13) -0.1683(10) 1.0954(6)
Ag5 Ag 1.86387(15) 0.00254(16) 1.14295(8)
C5 C 1.2227(16) 0.0807(12) 1.0117(7)
W6 W 1.32705(8) -0.20042(6) 1.16623(4)
O8 O 0.8585(13) -0.3309(10) 1.3470(6)
Ag6 Ag 0.85152(16) 0.33907(12) 1.00108(8)
C6 C 1.160(2) 0.2245(14) 1.0550(10)
H3 H 1.2333 0.2478 1.0856
W7 W 1.41821(9) -0.17869(6) 1.44545(4)
O9 O 1.4951(14) -0.1001(9) 1.5119(6)
Ag7 Ag 1.40322(15) 0.11941(14) 1.17633(8)
C7 C 1.8009(18) 0.3564(14) 1.3912(8)
H4 H 1.8499 0.3629 1.4310
W8 W 1.19601(8) -0.08041(5) 1.34317(4)
O10 O 1.0306(13) -0.4876(9) 1.0691(6)
Ag8 Ag 1.3144(2) -0.17265(15) 0.93507(10)
C8 C 1.0232(17) 0.1048(12) 0.9707(8)
H5 H 1.0015 0.0455 0.9426
W9 W 1.47803(8) -0.39439(5) 1.39232(4)
O11 O 1.1445(12) -0.5007(9) 1.3513(6)
C9 C 1.6498(19) 0.3331(13) 1.2771(9)
H6 H 1.5940 0.3250 1.2390
W10 W 1.30931(8) -0.53699(5) 1.23465(4)
O12 O 1.1944(14) 0.0336(10) 1.3753(6)
C10 C 1.1372(16) 0.1367(12) 1.0135(7)
W11 W 1.21370(8) -0.40469(6) 1.42454(4)
O13 O 1.3609(12) -0.4414(8) 1.4348(6)
C11 C 1.7044(16) 0.2579(12) 1.2927(8)
W12 W 1.48480(7) -0.07491(5) 1.31018(4)
O14 O 1.5216(12) -0.2676(9) 1.4476(5)
C12 C 1.6903(17) 0.1715(13) 1.2450(8)
O15 O 0.9386(14) -0.1790(11) 1.1437(6)
C13 C 1.777(3) 0.2695(19) 1.3499(12)
H7 H 1.8120 0.2190 1.3617
O16 O 0.9395(14) -0.6457(10) 1.2702(7)
C14 C 1.638(2) -0.4048(14) 1.0058(12)
O17 O 1.5809(12) 0.0435(9) 1.3312(7)
C15 C 2.4967(19) 0.2394(16) 1.3892(9)
H8 H 2.5691 0.2239 1.4020
O18 O 1.4250(11) -0.4206(8) 1.2257(6)
C16 C 2.2826(19) 0.2821(14) 1.3540(9)
H9 H 2.2096 0.2971 1.3428
O19 O 1.3674(11) -0.2403(8) 1.2661(5)
C17 C 2.368(2) 0.3286(15) 1.4100(9)
H10 H 2.3522 0.3756 1.4363
O20 O 1.2002(11) -0.4190(8) 1.2498(5)
C18 C 1.983(3) 0.1471(19) 1.4515(12)
O21 O 1.5849(12) -0.4438(9) 1.4268(6)
C19 C 1.9000(17) 0.0508(13) 1.4448(8)
O22 O 1.3181(12) -0.2782(8) 1.4748(5)
C20 C 0.9438(18) 0.1604(12) 0.9700(8)
H11 H 0.8688 0.1381 0.9411
O23 O 1.1685(12) -0.6056(8) 1.2529(5)
C21 C 2.420(3) 0.1938(19) 1.3343(12)
H12 H 2.4392 0.1490 1.3082
O24 O 1.2899(12) -0.1269(8) 1.4107(5)
C22 C 1.890(3) -0.0342(19) 1.4032(12)
H13 H 1.9384 -0.0304 1.3772
O25 O 1.4904(12) -0.1228(8) 1.3846(6)
C23 C 2.2227(16) 0.1608(13) 1.2580(8)
O26 O 1.3348(13) -0.0531(8) 1.3152(6)
C24 C 1.763(2) -0.496(2) 1.0525(13)
H14 H 1.8178 -0.5036 1.0876
O27 O 1.2302(10) -0.3374(8) 1.1426(5)
C25 C 1.8280(19) 0.0409(18) 1.4864(9)
H15 H 1.8358 0.0941 1.5168
O28 O 1.0931(11) -0.0928(9) 1.2615(6)
C26 C 1.667(2) -0.5468(15) 0.9511(11)
H16 H 1.6534 -0.5896 0.9143
O29 O 1.4210(12) -0.0814(8) 1.2208(5)
C27 C 1.682(2) 0.4217(15) 1.3208(10)
H17 H 1.6494 0.4740 1.3102
O30 O 1.3658(14) -0.6322(9) 1.2167(6)
C28 C 1.808(2) -0.1228(15) 1.4007(11)
H18 H 1.8016 -0.1790 1.3730
O31 O 1.0553(12) -0.1650(8) 1.3582(6)
C29 C 1.747(2) -0.0511(19) 1.4793(10)
H19 H 1.6969 -0.0590 1.5048
O32 O 1.5874(12) -0.1506(9) 1.2918(6)
C30 C 1.078(3) 0.2763(19) 1.0512(12)
H20 H 1.0983 0.3358 1.0790
O33 O 1.1008(12) -0.3348(9) 1.3925(6)
O34 O 0.9820(12) -0.4337(8) 1.2820(6)
O35 O 1.5445(11) -0.3213(9) 1.3357(5)
O36 O 1.1857(11) -0.1741(9) 1.1794(5)
O37 O 1.2088(11) -0.5291(8) 1.1562(5)
O38 O 1.3236(11) -0.3173(8) 1.3642(5)
O39 O 1.4646(11) -0.2505(9) 1.1790(6)
O40 O 1.6572(14) -0.3113(10) 1.2410(7)
O41 O 0.9323(12) -0.2664(9) 1.2481(6)
O42 O 1.3873(11) -0.4925(8) 1.3208(5)
N2_2 N 1.2459(13) 0.1219(10) 1.2070(6)
N10A N 1.7840(14) -0.0183(10) 1.0389(6)
N24A N 1.9017(17) 0.7083(12) 1.5079(7)
N25_2 N 0.7404(16) 0.4381(12) 1.0005(9)
Ag2_2 Ag 1.81376(16) -0.42535(10) 1.44092(7)
Ag2A Ag 1.18624(16) -0.57465(10) 1.55908(7)
Ag2A_2 Ag 2.18624(16) 0.42535(10) 1.55908(7)
O5A O 1.8430(14) 0.4609(9) 1.5231(6)
Ag5A Ag 1.13613(15) -0.00254(16) 0.85705(8)
Ag6_2 Ag 1.85152(16) -0.66093(12) 1.00108(8)
Ag7_2 Ag 2.40322(15) 0.11941(14) 1.17633(8)
O21_2 O 1.5849(12) 0.5562(9) 1.4268(6)
loop_
_geom_bond_atom_site_label_1
_geom_bond_atom_site_label_2
_geom_bond_site_symmetry_1
_geom_bond_site_symmetry_2
As1 O4 1_555 1_555
W1 O2 1_555 1_555
O1 Ag1 1_555 1_555
O2 W5 1_555 1_555
Ag1 N20 1_555 1_555
N1 N24 1_555 1_555
N2 N18 1_555 1_555
N3 N8 1_555 1_555
N4 Ag6 1_555 1_555
N5 N9 1_555 1_555
N6 N8 1_555 1_555
N7 N21 1_555 1_555
N8 Ag5 1_555 1_555
N9 Ag3 1_555 1_555
N10 N17 1_555 1_555
N11 Ag2 1_555 1_555
N12 N15 1_555 1_555
N13 N19 1_555 1_555
N14 N6 1_555 1_555
N15 N17 1_555 1_555
N16 C15 1_555 1_555
N17 Ag8 1_555 1_555
N18 N5 1_555 1_555
N19 N22 1_555 1_555
N20 N13 1_555 1_555
N21 N24 1_555 1_555
N22 C1 1_555 1_555
N23 C28 1_555 1_555
N24 Ag2A_2 1_555 1_555
N25 C24 1_555 1_555
C1 N20 1_555 1_555
W2 O4 1_555 1_555
O3 Ag8 1_555 1_555
O4 W5 1_555 1_555
Ag2 N24A 1_555 1_555
C2 H1 1_555 1_555
W3 O18 1_555 1_555
O5 W11 1_555 1_555
Ag3 N3 1_555 1_555
C3 H2 1_555 1_555
W4 O6 1_555 1_555
O6 W1 1_555 1_555
Ag4 N6 1_555 1_555
C4 C16 1_555 1_555
W5 O15 1_555 1_555
O7 Ag4 1_555 1_555
Ag5 Ag1 1_555 1_555
C5 N10 1_555 1_555
W6 O7 1_555 1_555
O8 W2 1_555 1_555
Ag6 N25_2 1_555 1_555
C6 H3 1_555 1_555
W7 O9 1_555 1_555
Ag7 N12 1_555 1_555
C7 N11 1_555 1_555
H4 C7 1_555 1_555
W8 O4 1_555 1_555
O10 W1 1_555 1_555
Ag8 N19 1_555 1_555
C8 H5 1_555 1_555
W9 O13 1_555 1_555
O11 W4 1_555 1_555
C9 H6 1_555 1_555
W10 O18 1_555 1_555
O12 W8 1_555 1_555
C10 C5 1_555 1_555
W11 O11 1_555 1_555
O13 W11 1_555 1_555
C11 C9 1_555 1_555
W12 O17 1_555 1_555
O14 W7 1_555 1_555
C12 N3 1_555 1_555
C13 C7 1_555 1_555
H7 C13 1_555 1_555
O16 W4 1_555 1_555
C14 C1 1_555 1_555
C15 H8 1_555 1_555
C16 H9 1_555 1_555
O19 As1 1_555 1_555
C17 N16 1_555 1_555
H10 C17 1_555 1_555
O20 As1 1_555 1_555
C18 N1 1_555 1_555
O21 W9 1_555 1_555
C19 C18 1_555 1_555
O22 W7 1_555 1_555
C20 N4 1_555 1_555
H11 C20 1_555 1_555
O23 W4 1_555 1_555
C21 C4 1_555 1_555
H12 C21 1_555 1_555
O24 W7 1_555 1_555
C22 C19 1_555 1_555
H13 C22 1_555 1_555
O25 W7 1_555 1_555
C23 N2 1_555 1_555
O26 W8 1_555 1_555
C24 C3 1_555 1_555
H14 C24 1_555 1_555
O27 W1 1_555 1_555
C25 C19 1_555 1_555
H15 C25 1_555 1_555
O28 W5 1_555 1_555
C26 N25 1_555 1_555
H16 C26 1_555 1_555
O29 W6 1_555 1_555
C27 N11 1_555 1_555
H17 C27 1_555 1_555
O30 W10 1_555 1_555
C28 C22 1_555 1_555
H18 C28 1_555 1_555
O31 W2 1_555 1_555
C29 N23 1_555 1_555
H19 C29 1_555 1_555
O32 W3 1_555 1_555
C30 N4 1_555 1_555
H20 C30 1_555 1_555
O33 W2 1_555 1_555
O34 W2 1_555 1_555
O35 W3 1_555 1_555
O36 W5 1_555 1_555
O37 W1 1_555 1_555
O38 As1 1_555 1_555
O39 W3 1_555 1_555
O40 W3 1_555 1_555
O41 W2 1_555 1_555
O42 W9 1_555 1_555
N2_2 Ag7 1_555 1_555
N10A Ag5 1_555 1_555
Ag2_2 O21 1_555 1_555
Ag2A O5 1_555 1_555
O5A Ag2 1_555 1_555
Ag5A N10 1_555 1_555
Ag6_2 N25 1_555 1_555
Ag7_2 N2 1_555 1_555
O21_2 Ag2 1_555 1_555
W1 O20 1_555 1_555
N5 Ag5 1_555 1_555
N7 Ag3 1_555 1_555
N7 C18 1_555 1_555
N9 C23 1_555 1_555
N12 C5 1_555 1_555
N13 Ag4 1_555 1_555
N14 Ag7 1_555 1_555
N14 C12 1_555 1_555
N15 Ag4 1_555 1_555
C2 C14 1_555 1_555
C2 C26 1_555 1_555
W3 O19 1_555 1_555
C3 C14 1_555 1_555
W4 O20 1_555 1_555
W4 O34 1_555 1_555
C4 C23 1_555 1_555
W5 O41 1_555 1_555
W6 O19 1_555 1_555
W6 O27 1_555 1_555
W6 O36 1_555 1_555
W6 O39 1_555 1_555
C6 C10 1_555 1_555
C6 C30 1_555 1_555
W7 O38 1_555 1_555
W8 O24 1_555 1_555
W8 O28 1_555 1_555
W8 O31 1_555 1_555
C8 C10 1_555 1_555
C8 C20 1_555 1_555
W9 O14 1_555 1_555
W9 O35 1_555 1_555
W9 O38 1_555 1_555
C9 C27 1_555 1_555
W10 O20 1_555 1_555
W10 O23 1_555 1_555
W10 O37 1_555 1_555
W10 O42 1_555 1_555
W11 O22 1_555 1_555
W11 O33 1_555 1_555
W11 O38 1_555 1_555
C11 C12 1_555 1_555
C11 C13 1_555 1_555
W12 O19 1_555 1_555
W12 O25 1_555 1_555
W12 O26 1_555 1_555
W12 O29 1_555 1_555
W12 O32 1_555 1_555
C15 C21 1_555 1_555
C16 C17 1_555 1_555
C25 C29 1_555 1_555

#END
