
#######################################################################
#
#                 Cambridge Crystallographic Data Centre
#                                CCDC 
#
#######################################################################
#
# If this CIF has been generated from an entry in the Cambridge 
# Structural Database, then it will include bibliographic, chemical, 
# crystal, experimental, refinement or atomic coordinate data resulting 
# from the CCDC's data processing and validation procedures.
#
#######################################################################

data_IXAZEO
_chemical_formula_moiety         '(C16 H34 Co1 K2 La2 N6 O25)n'
_symmetry_cell_setting           monoclinic
_symmetry_space_group_name_H-M   'C 2/c'
_symmetry_Int_Tables_number      15
_space_group_name_Hall           '-C 2yc'
loop_
_symmetry_equiv_pos_site_id
_symmetry_equiv_pos_as_xyz
1 x,y,z
2 -x,y,1/2-z
3 1/2+x,1/2+y,z
4 1/2-x,1/2+y,1/2-z
5 -x,-y,-z
6 x,-y,1/2+z
7 1/2-x,1/2-y,-z
8 1/2+x,1/2-y,1/2+z
_cell_length_a                   18.8168(16)
_cell_length_b                   11.3511(10)
_cell_length_c                   16.9284(15)
_cell_angle_alpha                90
_cell_angle_beta                 102.0510(10)
_cell_angle_gamma                90
_cell_volume                     3536.08
loop_
_atom_site_label
_atom_site_type_symbol
_atom_site_fract_x
_atom_site_fract_y
_atom_site_fract_z
_atom_site_U_iso_or_equiv
_atom_site_thermal_displace_type
La1 La 0.309997(15) 0.20992(2) 0.335975(17) 0.0235 Uani
K1 K 0.65439(17) 0.0995(4) 0.52468(19) 0.0644 Uani
O1 O 0.3929(2) 0.1476(4) 0.4686(3) 0.0459 Uani
O2 O 0.5044(3) 0.1326(4) 0.5429(3) 0.0499 Uani
O3 O 0.4426(2) 0.2167(4) 0.3428(3) 0.0452 Uani
O4 O 0.5555(3) 0.1905(7) 0.4067(4) 0.0767 Uani
O5 O 0.3384(2) 0.4188(3) 0.2975(3) 0.0340 Uani
O6 O 0.2278(3) 0.1395(4) 0.4276(3) 0.0468 Uani
O7 O 0.1707(2) 0.4887(3) 0.1804(3) 0.0411 Uani
O8 O 0.2101(2) 0.1472(3) 0.5536(3) 0.0409 Uani
O9 O 0.2022(2) 0.3343(3) 0.2594(3) 0.0342 Uani
O10 O 0.2975(2) 0.5915(3) 0.2463(2) 0.0316 Uani
O11 O 0.3310(3) 0.1963(5) 0.1896(3) 0.0528 Uani
C1 C 0.4604(3) 0.1524(5) 0.4790(3) 0.0355 Uani
C2 C 0.4902(3) 0.1888(6) 0.4035(4) 0.0415 Uani
C3 C 0.2904(3) 0.4847(4) 0.2614(3) 0.0242 Uani
C4 C 0.2323(3) 0.1875(5) 0.4950(4) 0.0340 Uani
C5 C 0.2145(3) 0.4311(4) 0.2317(3) 0.0261 Uani
O12 O 0.7678(4) 0.1126(7) 0.4424(4) 0.0880 Uani
O6F O 0.2722(3) 0.3605(4) 0.5724(3) 0.0468 Uani
C4F C 0.2677(3) 0.3125(5) 0.5050(4) 0.0340 Uani
O8F O 0.2899(2) 0.3528(3) 0.4464(3) 0.0409 Uani
La1D La 0.690003(15) -0.20992(2) 0.664025(17) 0.0235 Uani
K1D K 0.34561(17) -0.0995(4) 0.47532(19) 0.0644 Uani
O1D O 0.6071(2) -0.1476(4) 0.5314(3) 0.0459 Uani
O2D O 0.4956(3) -0.1326(4) 0.4571(3) 0.0499 Uani
O3D O 0.5574(2) -0.2167(4) 0.6572(3) 0.0452 Uani
O4D O 0.4445(3) -0.1905(7) 0.5933(4) 0.0767 Uani
O5D O 0.6616(2) -0.4188(3) 0.7025(3) 0.0340 Uani
O7D O 0.8293(2) -0.4887(3) 0.8196(3) 0.0411 Uani
O9D O 0.7978(2) -0.3343(3) 0.7406(3) 0.0342 Uani
O10D O 0.7025(2) -0.5915(3) 0.7537(2) 0.0316 Uani
O11D O 0.6690(3) -0.1963(5) 0.8104(3) 0.0528 Uani
C1D C 0.5396(3) -0.1524(5) 0.5210(3) 0.0355 Uani
C2D C 0.5098(3) -0.1888(6) 0.5965(4) 0.0415 Uani
C3D C 0.7096(3) -0.4847(4) 0.7386(3) 0.0242 Uani
C5D C 0.7855(3) -0.4311(4) 0.7683(3) 0.0261 Uani
O12D O 0.2322(4) -0.1126(7) 0.5576(4) 0.0880 Uani
La1C La 0.190003(15) 0.70992(2) 0.164025(17) 0.0235 Uani
La1F La 0.190003(15) 0.29008(2) 0.664025(17) 0.0235 Uani
La1G La 0.809997(15) -0.70992(2) 0.835975(17) 0.0235 Uani
K1C K 0.84561(17) -0.4005(4) 0.97532(19) 0.0644 Uani
K1G K 0.15439(17) 0.4005(4) 0.02468(19) 0.0644 Uani
O6D O 0.7722(3) -0.1395(4) 0.5724(3) 0.0468 Uani
O7C O 0.3293(2) -0.0113(3) 0.3196(3) 0.0411 Uani
O7G O 0.6707(2) 0.0113(3) 0.6804(3) 0.0411 Uani
O8B O 0.7101(2) -0.3528(3) 0.5536(3) 0.0409 Uani
O10C O 0.2025(2) 0.0915(3) 0.2537(2) 0.0316 Uani
O10G O 0.7975(2) -0.0915(3) 0.7463(2) 0.0316 Uani
Co1 Co 0.5000 0.29444(8) 0.7500 0.0273 Uani
N1 N 0.5620(3) 0.4130(4) 0.8154(3) 0.0351 Uani
H1 H 0.6091 0.3949 0.8185 0.0420 Uiso
H2 H 0.5535 0.4843 0.7921 0.0420 Uiso
N2 N 0.4410(3) 0.3024(4) 0.8325(3) 0.0350 Uani
H3 H 0.3939 0.3121 0.8086 0.0420 Uiso
H4 H 0.4452 0.2345 0.8606 0.0420 Uiso
N3 N 0.5606(3) 0.1671(5) 0.8081(4) 0.0445 Uani
H5 H 0.6070 0.1765 0.8034 0.0530 Uiso
H6 H 0.5593 0.1696 0.8609 0.0530 Uiso
C6 C 0.5463(4) 0.4160(6) 0.8974(4) 0.0440 Uani
H7 H 0.5626 0.4900 0.9237 0.0530 Uiso
H8 H 0.5714 0.3521 0.9298 0.0530 Uiso
C7 C 0.4656(4) 0.4031(6) 0.8885(4) 0.0409 Uani
H9 H 0.4539 0.3879 0.9407 0.0490 Uiso
H10 H 0.4413 0.4750 0.8668 0.0490 Uiso
C8 C 0.5334(7) 0.0538(10) 0.7743(8) 0.0987 Uani
H11 H 0.5675 0.0227 0.7439 0.1180 Uiso
H12 H 0.5328 -0.0001 0.8186 0.1180 Uiso
N3A N 0.4394(3) 0.1671(5) 0.6919(4) 0.0445 Uani
H5A H 0.3930 0.1765 0.6966 0.0530 Uiso
H6A H 0.4407 0.1696 0.6391 0.0530 Uiso
C8A C 0.4666(7) 0.0538(10) 0.7257(8) 0.0987 Uani
H11A H 0.4325 0.0227 0.7561 0.1180 Uiso
H12A H 0.4672 -0.0001 0.6814 0.1180 Uiso
N1A N 0.4380(3) 0.4130(4) 0.6846(3) 0.0351 Uani
H1A H 0.3909 0.3949 0.6815 0.0420 Uiso
H2A H 0.4465 0.4843 0.7079 0.0420 Uiso
N2A N 0.5590(3) 0.3024(4) 0.6675(3) 0.0350 Uani
H3A H 0.6061 0.3121 0.6914 0.0420 Uiso
H4A H 0.5548 0.2345 0.6394 0.0420 Uiso
C6A C 0.4537(4) 0.4160(6) 0.6026(4) 0.0440 Uani
H7A H 0.4374 0.4900 0.5763 0.0530 Uiso
H8A H 0.4286 0.3521 0.5702 0.0530 Uiso
C7A C 0.5344(4) 0.4031(6) 0.6115(4) 0.0409 Uani
H9A H 0.5461 0.3879 0.5593 0.0490 Uiso
H10A H 0.5587 0.4750 0.6332 0.0490 Uiso
O13 O 0.5000 0.6285(5) 0.7500 0.0501 Uani
H13 H 0.4812 0.6689 0.7746 0.0750 Uiso
H13A H 0.5188 0.6689 0.7254 0.0750 Uiso
loop_
_atom_site_aniso_label
_atom_site_aniso_U_11
_atom_site_aniso_U_22
_atom_site_aniso_U_33
_atom_site_aniso_U_23
_atom_site_aniso_U_13
_atom_site_aniso_U_12
La1 0.0263(2) 0.01886(17) 0.02743(19) -0.00060(9) 0.01063(13) 0.00011(9)
K1 0.0398(15) 0.114(3) 0.0434(16) 0.0413(18) 0.0180(13) 0.0261(17)
O1 0.042(2) 0.063(3) 0.037(2) 0.011(2) 0.018(2) 0.012(2)
O2 0.060(3) 0.050(3) 0.034(2) -0.0040(19) -0.003(2) 0.005(2)
O3 0.028(2) 0.065(3) 0.044(3) 0.020(2) 0.011(2) 0.0013(18)
O4 0.030(3) 0.125(5) 0.073(4) 0.044(4) 0.006(3) 0.001(3)
O5 0.0284(19) 0.0251(17) 0.048(2) 0.0073(16) 0.0065(18) -0.0008(14)
O6 0.056(3) 0.049(2) 0.043(2) -0.0197(19) 0.028(2) -0.025(2)
O7 0.041 0.0272 0.05 0.0083 -0.002 -0.006
O8 0.061 0.0285 0.04 -0.0027 0.026 -0.0037
O9 0.0303 0.0228 0.05 0.0085 0.0098 0
O10 0.033 0.0201 0.043 0.0045 0.0111 -0.0045
O11 0.053(3) 0.072(3) 0.038(2) -0.005(2) 0.020(2) -0.004(2)
C1 0.049(3) 0.030(3) 0.027(3) -0.004(2) 0.007(2) 0.004(2)
C2 0.030(3) 0.047(3) 0.047(4) 0.008(3) 0.007(3) 0.001(2)
C3 0.026(2) 0.022(2) 0.027(2) 0.0005(17) 0.011(2) -0.0027(17)
C4 0.035(3) 0.034(3) 0.037(3) -0.005(2) 0.017(3) -0.004(2)
C5 0.029 0.018 0.034 -0.0016 0.013 -0.0015
O12 0.094(5) 0.097(5) 0.080(4) 0.020(4) 0.034(4) 0.034(4)
O6F 0.056 0.049 0.043 -0.0197 0.028 -0.025
C4F 0.035 0.034 0.037 -0.005 0.017 -0.004
O8F 0.061 0.0285 0.04 -0.0027 0.026 -0.0037
La1D 0.0263 0.01886 0.02743 -0.0006 0.01063 0.00011
K1D 0.0398 0.114 0.0434 0.0413 0.018 0.0261
O1D 0.042 0.063 0.037 0.011 0.018 0.012
O2D 0.06 0.05 0.034 -0.004 -0.003 0.005
O3D 0.028 0.065 0.044 0.02 0.011 0.0013
O4D 0.03 0.125 0.073 0.044 0.006 0.001
O5D 0.0284 0.0251 0.048 0.0073 0.0065 -0.0008
O7D 0.041 0.0272 0.05 0.0083 -0.002 -0.006
O9D 0.0303 0.0228 0.05 0.0085 0.0098 0
O10D 0.033 0.0201 0.043 0.0045 0.0111 -0.0045
O11D 0.053 0.072 0.038 -0.005 0.02 -0.004
C1D 0.049 0.03 0.027 -0.004 0.007 0.004
C2D 0.03 0.047 0.047 0.008 0.007 0.001
C3D 0.026 0.022 0.027 0.0005 0.011 -0.0027
C5D 0.029 0.018 0.034 -0.0016 0.013 -0.0015
O12D 0.094 0.097 0.08 0.02 0.034 0.034
La1C 0.0263 0.01886 0.02743 0.0006 0.01063 -0.00011
La1F 0.0263 0.01886 0.02743 -0.0006 0.01063 0.00011
La1G 0.0263 0.01886 0.02743 0.0006 0.01063 -0.00011
K1C 0.0398 0.114 0.0434 -0.0413 0.018 -0.0261
K1G 0.0398 0.114 0.0434 -0.0413 0.018 -0.0261
O6D 0.056 0.049 0.043 -0.0197 0.028 -0.025
O7C 0.041 0.0272 0.05 -0.0083 -0.002 0.006
O7G 0.041 0.0272 0.05 -0.0083 -0.002 0.006
O8B 0.061 0.0285 0.04 -0.0027 0.026 -0.0037
O10C 0.033 0.0201 0.043 -0.0045 0.0111 0.0045
O10G 0.033 0.0201 0.043 -0.0045 0.0111 0.0045
Co1 0.0252(5) 0.0279(5) 0.0330(5) 0.000 0.0159(4) 0.000
N1 0.037(2) 0.036(2) 0.036(3) -0.0006(19) 0.016(2) -0.0001(19)
N2 0.028(2) 0.045(3) 0.037(3) 0.0052(19) 0.018(2) 0.0074(18)
N3 0.041(3) 0.042(3) 0.059(3) 0.009(2) 0.030(3) 0.012(2)
C6 0.050(4) 0.052(4) 0.032(3) -0.001(3) 0.013(3) 0.003(3)
C7 0.047(3) 0.048(3) 0.032(3) -0.001(2) 0.018(3) 0.012(3)
C8 0.105(5) 0.073(4) 0.112(5) -0.004(4) 0.009(4) 0.011(4)
N3A 0.041 0.042 0.059 -0.009 0.03 -0.012
C8A 0.105 0.073 0.112 0.004 0.009 -0.011
N1A 0.037 0.036 0.036 0.0006 0.016 0.0001
N2A 0.028 0.045 0.037 -0.0052 0.018 -0.0074
C6A 0.05 0.052 0.032 0.001 0.013 -0.003
C7A 0.047 0.048 0.032 0.001 0.018 -0.012
O13 0.073(4) 0.030(3) 0.060(4) 0.000 0.043(4) 0.000
loop_
_geom_bond_atom_site_label_1
_geom_bond_atom_site_label_2
_geom_bond_site_symmetry_1
_geom_bond_site_symmetry_2
La1 O1 1_555 1_555
K1 O2 1_555 1_555
O1 C1 1_555 1_555
O2 C1 1_555 1_555
O3 La1 1_555 1_555
O4 K1 1_555 1_555
O5 La1 1_555 1_555
O6 La1 1_555 1_555
O7 C5 1_555 1_555
O8 C4 1_555 1_555
O9 La1 1_555 1_555
O10 C3 1_555 1_555
O11 La1 1_555 1_555
C1 C2 1_555 1_555
C2 O3 1_555 1_555
C3 O5 1_555 1_555
C4 O6 1_555 1_555
C5 O9 1_555 1_555
O12 K1 1_555 1_555
Co1 N1 1_555 1_555
N1 H1 1_555 1_555
H2 N1 1_555 1_555
N2 Co1 1_555 1_555
H3 N2 1_555 1_555
H4 N2 1_555 1_555
N3 Co1 1_555 1_555
H5 N3 1_555 1_555
H6 N3 1_555 1_555
C6 N1 1_555 1_555
H7 C6 1_555 1_555
H8 C6 1_555 1_555
C7 N2 1_555 1_555
H9 C7 1_555 1_555
H10 C7 1_555 1_555
C8 N3 1_555 1_555
H11 C8 1_555 1_555
H12 C8 1_555 1_555
O13 H13 1_555 1_555
O6F C4F 1_555 1_555
C4F C4 1_555 1_555
O8F La1 1_555 1_555
La1D O1D 1_555 1_555
K1D O1 1_555 1_555
O1D K1 1_555 1_555
O2D K1D 1_555 1_555
O3D La1D 1_555 1_555
O4D K1D 1_555 1_555
O5D La1D 1_555 1_555
O7D C5D 1_555 1_555
O9D La1D 1_555 1_555
O10D C3D 1_555 1_555
O11D La1D 1_555 1_555
C1D O1D 1_555 1_555
C2D O3D 1_555 1_555
C3D O5D 1_555 1_555
C5D O9D 1_555 1_555
O12D K1D 1_555 1_555
La1C O7 1_555 1_555
La1F O8 1_555 1_555
La1G O7D 1_555 1_555
K1C O7D 1_555 1_555
K1G O7 1_555 1_555
O6D La1D 1_555 1_555
O7C La1 1_555 1_555
O7G K1 1_555 1_555
O8B La1D 1_555 1_555
O10C La1 1_555 1_555
O10G La1D 1_555 1_555
N3A Co1 1_555 1_555
H5A N3A 1_555 1_555
H6A N3A 1_555 1_555
C8A C8 1_555 1_555
H11A C8A 1_555 1_555
H12A C8A 1_555 1_555
N1A Co1 1_555 1_555
H1A N1A 1_555 1_555
H2A N1A 1_555 1_555
N2A Co1 1_555 1_555
H3A N2A 1_555 1_555
H4A N2A 1_555 1_555
C6A N1A 1_555 1_555
H7A C6A 1_555 1_555
H8A C6A 1_555 1_555
C7A N2A 1_555 1_555
H9A C7A 1_555 1_555
H10A C7A 1_555 1_555
H13A O13 1_555 1_555
O4 C2 1_555 1_555
O10 La1C 1_555 1_555
C3 C5 1_555 1_555
C6 C7 1_555 1_555
O6F La1F 1_555 1_555
C4F O8F 1_555 1_555
La1D O7G 1_555 1_555
K1D O7C 1_555 1_555
O2D C1D 1_555 1_555
O4D C2D 1_555 1_555
O10D La1G 1_555 1_555
C1D C2D 1_555 1_555
C3D C5D 1_555 1_555
N3A C8A 1_555 1_555
C6A C7A 1_555 1_555

#END
