
#######################################################################
#
#                 Cambridge Crystallographic Data Centre
#                                CCDC 
#
#######################################################################
#
# If this CIF has been generated from an entry in the Cambridge 
# Structural Database, then it will include bibliographic, chemical, 
# crystal, experimental, refinement or atomic coordinate data resulting 
# from the CCDC's data processing and validation procedures.
#
#######################################################################

data_BEJZAS
_chemical_formula_moiety         '(C5 H15 N1 O9 P2 Zn1)n'
_symmetry_cell_setting           orthorhombic
_symmetry_space_group_name_H-M   'P 21 21 21'
_symmetry_Int_Tables_number      19
_space_group_name_Hall           'P 2ac 2ab'
loop_
_symmetry_equiv_pos_site_id
_symmetry_equiv_pos_as_xyz
1 x,y,z
2 1/2+x,1/2-y,-z
3 -x,1/2+y,1/2-z
4 1/2-x,-y,1/2+z
_cell_length_a                   10.42002(13)
_cell_length_b                   10.45229(17)
_cell_length_c                   11.62209(17)
_cell_angle_alpha                90
_cell_angle_beta                 90
_cell_angle_gamma                90
_cell_volume                     1265.8
loop_
_atom_site_label
_atom_site_type_symbol
_atom_site_fract_x
_atom_site_fract_y
_atom_site_fract_z
_atom_site_U_iso_or_equiv
_atom_site_thermal_displace_type
Zn1 Zn 0.55313(19) 0.20064(21) 0.11876(23) 0.0068 Uiso
P1 P 0.3123(4) 0.1601(5) -0.0449(4) 0.0068 Uiso
P2 P 0.4868(4) -0.0724(4) 0.1994(4) 0.0068 Uiso
O1 O 0.5606(9) 0.0489(8) 0.2049(7) 0.0187 Uiso
O2 O 0.5214(7) -0.1629(8) 0.2944(7) 0.0187 Uiso
O3 O 0.2448(8) 0.1146(10) 0.0617(8) 0.0187 Uiso
O4 O 0.4547(8) 0.1897(8) -0.0199(7) 0.0187 Uiso
O5 O 0.2371(7) 0.2734(8) -0.0884(8) 0.0187 Uiso
O6 O 0.3455(6) -0.0448(9) 0.1992(9) 0.0187 Uiso
O7 O 0.5176(8) -0.1347(8) 0.0839(7) 0.0187 Uiso
O8 O 0.3120(7) 0.0536(8) -0.1351(8) 0.0187 Uiso
H1 H 0.263(7) 0.024(4) 0.087(4) 0.0660 Uiso
H2 H 0.236(4) 0.005(6) -0.160(5) 0.0660 Uiso
H3 H 0.447(6) -0.149(8) 0.028(7) 0.0660 Uiso
O2B O 0.4786(7) 0.3371(8) 0.2056(7) 0.0187 Uiso
O5A O 0.7371(7) 0.2266(8) 0.0884(8) 0.0187 Uiso
Zn1B Zn 0.44687(19) -0.29936(21) 0.38124(23) 0.0068 Uiso
Zn1A Zn 0.05313(19) 0.29936(21) -0.11876(23) 0.0068 Uiso
O9 O 0.4356(11) 0.6858(10) 0.9399(7) 0.0340 Uiso
C1 C 0.4468(13) 0.5537(12) 0.9639(9) 0.0390 Uiso
C2 C 0.4645(11) 0.4811(10) 0.8529(10) 0.0490 Uiso
C3 C 0.3427(13) 0.6432(10) 0.7551(9) 0.0360 Uiso
C4 C 0.3693(12) 0.4320(12) 0.6671(8) 0.0420 Uiso
C5 C 0.3280(11) 0.7094(10) 0.8697(11) 0.0310 Uiso
N1 N 0.3526(8) 0.5035(9) 0.7765(7) 0.0220 Uiso
H4 H 0.5193(26) 0.5398(23) 1.0133(19) 0.0660 Uiso
H5 H 0.3708(26) 0.5246(21) 1.0023(22) 0.0660 Uiso
H6 H 0.4725(27) 0.3908(14) 0.8687(20) 0.0660 Uiso
H7 H 0.5408(15) 0.5110(27) 0.8149(16) 0.0660 Uiso
H8 H 0.4187(24) 0.6730(18) 0.7166(20) 0.0660 Uiso
H9 H 0.2694(24) 0.6603(21) 0.7075(19) 0.0660 Uiso
H10 H 0.2531(16) 0.6778(27) 0.9078(18) 0.0660 Uiso
H11 H 0.3190(27) 0.7998(14) 0.8579(20) 0.0660 Uiso
H12 H 0.374(10) 0.3421(16) 0.6837(22) 0.0660 Uiso
H13 H 0.298(6) 0.449(8) 0.617(4) 0.0660 Uiso
H14 H 0.447(6) 0.459(8) 0.629(5) 0.0660 Uiso
H15 H 0.2811(15) 0.4757(18) 0.8119(14) 0.0660 Uiso
loop_
_geom_bond_atom_site_label_1
_geom_bond_atom_site_label_2
_geom_bond_site_symmetry_1
_geom_bond_site_symmetry_2
Zn1 O1 1_555 1_555
P1 O3 1_555 1_555
P2 O1 1_555 1_555
O2 P2 1_555 1_555
O3 H1 1_555 1_555
O4 Zn1 1_555 1_555
O5 P1 1_555 1_555
O6 P2 1_555 1_555
O7 P2 1_555 1_555
O8 P1 1_555 1_555
H2 O8 1_555 1_555
H3 O7 1_555 1_555
O9 C1 1_555 1_555
C1 C2 1_555 1_555
C2 N1 1_555 1_555
C3 C5 1_555 1_555
C4 N1 1_555 1_555
C5 O9 1_555 1_555
N1 C3 1_555 1_555
H4 C1 1_555 1_555
H5 C1 1_555 1_555
H6 C2 1_555 1_555
H7 C2 1_555 1_555
H8 C3 1_555 1_555
H9 C3 1_555 1_555
H10 C5 1_555 1_555
H11 C5 1_555 1_555
H12 C4 1_555 1_555
H13 C4 1_555 1_555
H14 C4 1_555 1_555
H15 N1 1_555 1_555
O2B Zn1 1_555 1_555
O5A Zn1 1_555 1_555
Zn1B O2 1_555 1_555
Zn1A O5 1_555 1_555
P1 O4 1_555 1_555

#END
