
#######################################################################
#
#                 Cambridge Crystallographic Data Centre
#                                CCDC 
#
#######################################################################
#
# If this CIF has been generated from an entry in the Cambridge 
# Structural Database, then it will include bibliographic, chemical, 
# crystal, experimental, refinement or atomic coordinate data resulting 
# from the CCDC's data processing and validation procedures.
#
#######################################################################

data_HUXDOT
_chemical_formula_moiety         '(C24 H18 Ag4 Cl4 N18 O16)n'
_symmetry_cell_setting           orthorhombic
_symmetry_space_group_name_H-M   'P b c 21'
_symmetry_Int_Tables_number      29
_space_group_name_Hall           'P 2c -2b'
loop_
_symmetry_equiv_pos_site_id
_symmetry_equiv_pos_as_xyz
1 x,y,z
2 -x,-y,1/2+z
3 -x,1/2+y,z
4 x,1/2-y,1/2+z
_cell_length_a                   7.7880(13)
_cell_length_b                   14.259(2)
_cell_length_c                   36.544(6)
_cell_angle_alpha                90
_cell_angle_beta                 90
_cell_angle_gamma                90
_cell_volume                     4058.18
loop_
_atom_site_label
_atom_site_type_symbol
_atom_site_fract_x
_atom_site_fract_y
_atom_site_fract_z
_atom_site_U_iso_or_equiv
_atom_site_thermal_displace_type
Ag1 Ag 0.58710(19) 0.39392(8) 0.55853(4) 0.0468 Uani
Ag2 Ag 0.92016(19) 0.11557(9) 0.64808(4) 0.0484 Uani
Ag3 Ag 0.8786(3) 0.24363(11) 0.36938(6) 0.0685 Uani
Ag4 Ag 0.4518(3) 0.68627(11) 0.31906(5) 0.0678 Uani
N1 N 0.959(2) 0.0907(11) 0.8051(4) 0.0450 Uani
N2 N 0.892(2) 0.1653(12) 0.8060(4) 0.0497 Uani
N3 N 0.7754(16) 0.2953(9) 0.5971(4) 0.0353 Uani
N4 N 0.7291(15) 0.2111(7) 0.6048(3) 0.0270 Uani
N5 N 0.572(2) 0.3818(14) 0.4074(5) 0.0620 Uani
N6 N 0.607(2) 0.3415(13) 0.3771(5) 0.0590 Uani
N7 N 1.0992(18) -0.0842(10) 0.8708(4) 0.0430 Uani
N8 N 1.033(2) 0.1060(11) 0.8677(5) 0.0543 Uani
N9 N 0.854(2) 0.1808(11) 0.7038(4) 0.0487 Uani
N10 N 0.744(2) 0.2711(10) 0.7685(4) 0.0470 Uani
N11 N 1.0743(17) 0.4648(10) 0.6363(4) 0.0383 Uani
N12 N 1.0321(18) 0.2665(9) 0.6303(4) 0.0350 Uani
N13 N 0.4269(17) 0.0465(8) 0.5664(3) 0.0303 Uani
N14 N 0.4781(19) 0.2471(11) 0.5697(5) 0.0467 Uani
N15 N 0.668(2) 0.3274(14) 0.5017(4) 0.0563 Uani
N16 N 0.792(2) 0.2798(11) 0.4330(4) 0.0517 Uani
N17 N 0.423(2) 0.5291(11) 0.3203(5) 0.0493 Uani
N18 N 0.473(2) 0.3416(11) 0.3198(5) 0.0507 Uani
C1 C 1.004(3) 0.0562(16) 0.8400(6) 0.0593 Uani
C2 C 1.038(2) -0.0474(15) 0.8415(6) 0.0563 Uani
H1 H 1.0142 -0.0848 0.8212 0.0670 Uiso
C3 C 1.131(2) -0.0282(15) 0.9015(5) 0.0503 Uani
H2 H 1.1756 -0.0524 0.9232 0.0600 Uiso
C4 C 1.093(3) 0.0654(15) 0.8972(6) 0.0543 Uani
H3 H 1.1108 0.1038 0.9174 0.0650 Uiso
C5 C 0.842(2) 0.1939(13) 0.7689(5) 0.0443 Uani
C6 C 0.900(3) 0.1499(15) 0.7407(6) 0.0523 Uani
H4 H 0.9713 0.0982 0.7438 0.0630 Uiso
C7 C 0.744(3) 0.2552(13) 0.7032(5) 0.0517 Uani
H5 H 0.6974 0.2741 0.6810 0.0620 Uiso
C8 C 0.699(3) 0.3037(18) 0.7349(6) 0.0683 Uani
H6 H 0.6379 0.3594 0.7330 0.0820 Uiso
C9 C 0.9264(18) 0.3275(10) 0.6167(4) 0.0287 Uani
C10 C 0.9494(18) 0.4242(10) 0.6170(5) 0.0307 Uani
H7 H 0.8756 0.4617 0.6034 0.0370 Uiso
C11 C 1.197(3) 0.3999(12) 0.6513(6) 0.0477 Uani
H8 H 1.2935 0.4222 0.6635 0.0570 Uiso
C12 C 1.173(2) 0.3090(12) 0.6477(6) 0.0443 Uani
H9 H 1.2562 0.2696 0.6575 0.0530 Uiso
C13 C 0.5832(19) 0.1825(10) 0.5867(4) 0.0287 Uani
C14 C 0.553(2) 0.0886(13) 0.5849(5) 0.0363 Uani
H10 H 0.6268 0.0500 0.5980 0.0440 Uiso
C15 C 0.321(2) 0.1074(12) 0.5511(5) 0.0470 Uani
H11 H 0.2233 0.0848 0.5394 0.0560 Uiso
C16 C 0.349(2) 0.2062(12) 0.5518(5) 0.0470 Uani
H12 H 0.2731 0.2443 0.5390 0.0560 Uiso
C17 C 0.665(3) 0.3419(14) 0.4361(5) 0.0497 Uani
C18 C 0.603(2) 0.3667(12) 0.4725(4) 0.0380 Uani
H13 H 0.5160 0.4111 0.4750 0.0460 Uiso
C19 C 0.788(3) 0.2728(14) 0.4976(6) 0.0560 Uani
H14 H 0.8353 0.2472 0.5187 0.0670 Uiso
C20 C 0.860(3) 0.2453(14) 0.4642(5) 0.0510 Uani
H15 H 0.9534 0.2045 0.4636 0.0610 Uiso
C21 C 0.528(3) 0.3922(13) 0.3452(5) 0.0510 Uani
C22 C 0.506(3) 0.4875(15) 0.3493(5) 0.0540 Uani
H16 H 0.5445 0.5206 0.3697 0.0640 Uiso
C23 C 0.381(2) 0.4786(13) 0.2911(5) 0.0457 Uani
H17 H 0.3376 0.5085 0.2704 0.0550 Uiso
C24 C 0.402(3) 0.3740(15) 0.2909(6) 0.0560 Uani
H18 H 0.3672 0.3363 0.2715 0.0670 Uiso
N13B N 0.5731(17) 0.5465(8) 0.5664(3) 0.0303 Uani
Ag1B Ag 0.41290(19) -0.10608(8) 0.55853(4) 0.0468 Uani
Ag2B Ag 1.07984(19) 0.61557(9) 0.64808(4) 0.0484 Uani
Ag4B Ag 0.5482(3) 0.18627(11) 0.31906(5) 0.0678 Uani
N11B N 0.9257(17) -0.0352(10) 0.6363(4) 0.0383 Uani
N2C N 0.892(2) 0.3347(12) 0.3060(4) 0.0497 Uani
N8C N 1.033(2) 0.3940(11) 0.3677(5) 0.0543 Uani
N7A N 0.9008(18) 0.0842(10) 0.3708(4) 0.0430 Uani
N10A N 0.256(2) 0.7289(10) 0.2685(4) 0.0470 Uani
N18B N 0.527(2) 0.8416(11) 0.3198(5) 0.0507 Uani
Ag3C Ag 0.8786(3) 0.25637(11) 0.86938(6) 0.0685 Uani
Ag3A Ag 1.1214(3) -0.24363(11) 0.86938(6) 0.0685 Uani
Ag4A Ag 0.5482(3) 0.31373(11) 0.81906(5) 0.0678 Uani
O1 O -0.033(2) 0.4354(16) 0.5222(7) 0.1633 Uani
O2 O 0.235(3) 0.4213(13) 0.5453(5) 0.1250 Uani
O3 O 0.195(4) 0.4909(18) 0.4894(5) 0.1937 Uani
O4 O 0.108(2) 0.5646(9) 0.5414(5) 0.0860 Uani
Cl1 Cl 0.1300(7) 0.4780(5) 0.52317(18) 0.0717 Uani
O5 O 0.2655(19) 0.0898(9) 0.6468(4) 0.0790 Uani
O6 O 0.3962(19) -0.0489(8) 0.6603(4) 0.0787 Uani
O7 O 0.5238(17) 0.0876(12) 0.6756(5) 0.0990 Uani
O8 O 0.279(2) 0.0409(13) 0.7061(4) 0.1107 Uani
Cl2 Cl 0.3650(6) 0.0432(4) 0.67344(14) 0.0547 Uani
O9 O 0.9516(18) 0.8922(14) 0.7443(5) 0.1077 Uani
O10 O 0.790(2) 0.8342(13) 0.7898(4) 0.1043 Uani
O11 O 0.674(3) 0.9384(13) 0.7486(6) 0.1373 Uani
O12 O 0.736(3) 0.7895(12) 0.7314(5) 0.1207 Uani
Cl3 Cl 0.7855(7) 0.8650(4) 0.75405(17) 0.0690 Uani
O13 O 0.248(4) 0.199(3) 0.3918(9) 0.3800 Uani
O14 O 0.237(3) 0.0730(14) 0.4291(8) 0.1453 Uani
O15 O 0.4943(18) 0.1430(17) 0.4160(7) 0.1293 Uani
O16 O 0.298(5) 0.217(2) 0.4524(9) 0.3400 Uani
Cl4 Cl 0.3233(9) 0.1565(5) 0.4233(3) 0.1140 Uani
loop_
_atom_site_aniso_label
_atom_site_aniso_U_11
_atom_site_aniso_U_22
_atom_site_aniso_U_33
_atom_site_aniso_U_23
_atom_site_aniso_U_13
_atom_site_aniso_U_12
Ag1 0.0682(9) 0.0190(6) 0.0533(7) -0.0008(5) -0.0020(7) 0.0098(5)
Ag2 0.0642 0.0216 0.0593 -0.0006 0.0017 0.0092
Ag3 0.0958(12) 0.0380(8) 0.0718(10) -0.0075(7) 0.0174(10) 0.0037(8)
Ag4 0.1034 0.0356 0.0643 0.0011 -0.0028 0.003
N1 0.057 0.032 0.046 -0.004 -0.004 0.005
N2 0.048 0.044 0.057 0.002 -0.004 0
N3 0.033(6) 0.035(6) 0.038(6) 0.013(5) -0.004(5) -0.006(5)
N4 0.033(6) 0.007(4) 0.041(6) 0.001(4) -0.005(5) -0.001(4)
N5 0.064(8) 0.064(8) 0.058(8) 0.000(7) 0.003(7) 0.000(7)
N6 0.070(8) 0.056(8) 0.051(7) 0.001(6) -0.001(6) 0.006(7)
N7 0.05 0.035 0.044 0.013 -0.002 -0.007
N8 0.046 0.046 0.071 0.007 0.01 -0.013
N9 0.049 0.045 0.052 0.005 -0.001 0.011
N10 0.059 0.037 0.045 0.001 -0.001 0.027
N11 0.038(6) 0.034(6) 0.043(6) 0.002(5) -0.001(5) -0.005(5)
N12 0.037(6) 0.027(6) 0.041(6) 0.010(5) -0.007(5) -0.016(5)
N13 0.042(6) 0.017(5) 0.032(6) 0.006(4) -0.005(5) -0.006(5)
N14 0.037(6) 0.038(6) 0.065(7) -0.005(5) -0.001(6) 0.012(6)
N15 0.052(7) 0.071(8) 0.046(7) -0.006(6) 0.000(6) 0.000(7)
N16 0.057(7) 0.048(7) 0.050(7) -0.011(6) 0.006(6) 0.004(6)
N17 0.067(8) 0.032(6) 0.049(7) 0.005(6) 0.001(6) -0.002(6)
N18 0.057(7) 0.045(7) 0.050(6) 0.007(6) 0.000(6) 0.002(6)
C1 0.061 0.061 0.056 0.001 0.006 0.016
C2 0.05 0.054 0.065 0.002 -0.006 0.004
C3 0.046 0.061 0.044 0.014 -0.011 0.006
C4 0.054 0.053 0.056 0.009 0.017 0.006
C5 0.043 0.045 0.045 0.008 -0.004 -0.003
C6 0.056 0.045 0.056 0.005 -0.007 0.002
C7 0.056 0.045 0.054 0.006 -0.007 0.014
C8 0.076 0.075 0.054 -0.003 0.006 0.004
C9 0.038(4) 0.015(4) 0.033(4) 0.003(3) -0.007(4) -0.001(3)
C10 0.025(6) 0.021(6) 0.046(7) 0.008(5) -0.013(6) 0.006(5)
C11 0.051(8) 0.040(7) 0.052(7) -0.012(6) -0.017(7) -0.008(6)
C12 0.035(7) 0.037(7) 0.061(7) -0.003(6) -0.021(6) -0.007(6)
C13 0.038(4) 0.015(4) 0.033(4) 0.003(3) -0.007(4) -0.001(3)
C14 0.037(7) 0.037(7) 0.035(7) -0.003(6) 0.003(6) -0.005(6)
C15 0.038(7) 0.039(7) 0.064(8) 0.011(6) -0.012(7) 0.004(6)
C16 0.048(7) 0.033(7) 0.060(8) 0.007(6) -0.019(7) -0.001(6)
C17 0.058(8) 0.056(8) 0.035(7) -0.008(6) 0.008(6) 0.008(7)
C18 0.049(7) 0.033(7) 0.032(6) 0.001(6) 0.002(6) 0.016(6)
C19 0.066(9) 0.044(8) 0.058(8) -0.007(7) 0.001(7) 0.011(7)
C20 0.052(8) 0.053(8) 0.048(8) -0.007(6) -0.004(7) 0.018(7)
C21 0.065(9) 0.037(7) 0.051(8) 0.012(6) -0.006(7) -0.003(7)
C22 0.053(8) 0.060(9) 0.049(8) -0.014(7) -0.007(7) -0.006(7)
C23 0.043(7) 0.043(8) 0.051(8) 0.014(6) 0.005(6) 0.007(6)
C24 0.065(9) 0.045(8) 0.058(8) 0.000(7) 0.001(7) 0.001(7)
N13B 0.042 0.017 0.032 0.006 0.005 0.006
Ag1B 0.0682 0.019 0.0533 -0.0008 0.002 -0.0098
Ag2B 0.0642(9) 0.0216(6) 0.0593(8) -0.0006(6) -0.0017(7) -0.0092(5)
Ag4B 0.1034 0.0356 0.0643 0.0011 0.0028 -0.003
N11B 0.038 0.034 0.043 0.002 0.001 0.005
N2C 0.048 0.044 0.057 -0.002 -0.004 0
N8C 0.046 0.046 0.071 -0.007 0.01 0.013
N7A 0.05 0.035 0.044 -0.013 0.002 -0.007
N10A 0.059 0.037 0.045 -0.001 0.001 0.027
N18B 0.057 0.045 0.05 0.007 0 -0.002
Ag3C 0.0958 0.038 0.0718 0.0075 0.0174 -0.0037
Ag3A 0.0958 0.038 0.0718 0.0075 -0.0174 0.0037
Ag4A 0.1034 0.0356 0.0643 -0.0011 0.0028 0.003
O1 0.149(14) 0.168(15) 0.173(14) -0.005(10) -0.007(10) -0.005(10)
O2 0.117(11) 0.123(11) 0.135(11) 0.005(9) -0.009(9) 0.013(9)
O3 0.206(17) 0.185(17) 0.190(17) 0.005(10) 0.010(10) 0.018(10)
O4 0.085(9) 0.071(8) 0.102(9) 0.005(7) -0.012(7) 0.014(7)
Cl1 0.053(3) 0.078(4) 0.084(4) -0.009(3) -0.012(3) 0.013(3)
O5 0.087 0.057 0.093 -0.003 -0.009 0.007
O6 0.068 0.059 0.109 -0.004 -0.01 0.021
O7 0.081 0.1 0.116 -0.004 -0.018 -0.013
O8 0.112 0.122 0.098 0.014 0.019 0.011
Cl2 0.04 0.06 0.064 0.006 -0.001 0.003
O9 0.092(10) 0.109(11) 0.122(11) 0.015(8) 0.012(8) -0.003(8)
O10 0.096(9) 0.112(10) 0.105(9) -0.008(8) -0.024(8) -0.025(8)
O11 0.132(12) 0.128(12) 0.152(12) -0.014(9) 0.006(9) 0.000(9)
O12 0.129(11) 0.115(11) 0.118(10) -0.007(9) 0.000(9) -0.004(9)
Cl3 0.057(3) 0.068(3) 0.082(4) -0.003(3) 0.012(3) -0.003(3)
O13 0.38(4) 0.38(4) 0.38(4) 0.001(10) -0.002(10) 0.002(10)
O14 0.134(12) 0.142(13) 0.160(13) 0.006(9) -0.009(9) -0.018(9)
O15 0.120(11) 0.123(11) 0.145(12) -0.014(9) -0.008(9) 0.005(9)
O16 0.34(4) 0.34(4) 0.34(4) -0.008(10) 0.000(10) 0.000(10)
Cl4 0.062(4) 0.071(4) 0.209(10) -0.051(6) 0.005(5) -0.001(3)
loop_
_geom_bond_atom_site_label_1
_geom_bond_atom_site_label_2
_geom_bond_site_symmetry_1
_geom_bond_site_symmetry_2
Ag1 N3 1_555 1_555
Ag2 N4 1_555 1_555
Ag3 N6 1_555 1_555
Ag4 N17 1_555 1_555
N1 N2 1_555 1_555
N2 C5 1_555 1_555
N3 N4 1_555 1_555
N4 C13 1_555 1_555
N5 N6 1_555 1_555
N6 C21 1_555 1_555
N7 C2 1_555 1_555
N8 C1 1_555 1_555
N9 Ag2 1_555 1_555
N10 C5 1_555 1_555
N11 C10 1_555 1_555
N12 Ag2 1_555 1_555
N13 C14 1_555 1_555
N14 Ag1 1_555 1_555
N15 Ag1 1_555 1_555
N16 Ag3 1_555 1_555
N17 C22 1_555 1_555
N18 C21 1_555 1_555
C1 N1 1_555 1_555
C2 C1 1_555 1_555
H1 C2 1_555 1_555
C3 N7 1_555 1_555
H2 C3 1_555 1_555
C4 N8 1_555 1_555
H3 C4 1_555 1_555
C5 C6 1_555 1_555
C6 N9 1_555 1_555
H4 C6 1_555 1_555
C7 N9 1_555 1_555
H5 C7 1_555 1_555
C8 N10 1_555 1_555
H6 C8 1_555 1_555
C9 N3 1_555 1_555
C10 C9 1_555 1_555
H7 C10 1_555 1_555
C11 N11 1_555 1_555
H8 C11 1_555 1_555
C12 N12 1_555 1_555
H9 C12 1_555 1_555
C13 N14 1_555 1_555
C14 C13 1_555 1_555
H10 C14 1_555 1_555
C15 N13 1_555 1_555
H11 C15 1_555 1_555
C16 N14 1_555 1_555
H12 C16 1_555 1_555
C17 N5 1_555 1_555
C18 N15 1_555 1_555
H13 C18 1_555 1_555
C19 N15 1_555 1_555
H14 C19 1_555 1_555
C20 N16 1_555 1_555
H15 C20 1_555 1_555
C21 C22 1_555 1_555
C22 H16 1_555 1_555
C23 N17 1_555 1_555
H17 C23 1_555 1_555
C24 N18 1_555 1_555
H18 C24 1_555 1_555
O1 Cl1 1_555 1_555
O2 Cl1 1_555 1_555
O3 Cl1 1_555 1_555
O4 Cl1 1_555 1_555
O5 Cl2 1_555 1_555
O6 Cl2 1_555 1_555
O7 Cl2 1_555 1_555
O8 Cl2 1_555 1_555
O9 Cl3 1_555 1_555
O10 Cl3 1_555 1_555
O11 Cl3 1_555 1_555
O12 Cl3 1_555 1_555
O13 Cl4 1_555 1_555
O14 Cl4 1_555 1_555
O15 Cl4 1_555 1_555
O16 Cl4 1_555 1_555
N13B Ag1 1_555 1_555
Ag1B N13 1_555 1_555
Ag2B N11 1_555 1_555
Ag4B N18 1_555 1_555
N11B Ag2 1_555 1_555
N2C Ag3 1_555 1_555
N8C Ag3 1_555 1_555
N7A Ag3 1_555 1_555
N10A Ag4 1_555 1_555
N18B Ag4 1_555 1_555
Ag3C N2 1_555 1_555
Ag3A N7 1_555 1_555
Ag4A N10 1_555 1_555
N8 Ag3C 1_555 1_555
N12 C9 1_555 1_555
N16 C17 1_555 1_555
C3 C4 1_555 1_555
C7 C8 1_555 1_555
C11 C12 1_555 1_555
C15 C16 1_555 1_555
C17 C18 1_555 1_555
C19 C20 1_555 1_555
C23 C24 1_555 1_555

#END
