
#######################################################################
#
#                 Cambridge Crystallographic Data Centre
#                                CCDC 
#
#######################################################################
#
# If this CIF has been generated from an entry in the Cambridge 
# Structural Database, then it will include bibliographic, chemical, 
# crystal, experimental, refinement or atomic coordinate data resulting 
# from the CCDC's data processing and validation procedures.
#
#######################################################################

data_BUXZAX
_chemical_formula_moiety         '(C48 H32 Cl1 Fe3 Hf3 N4 O16 3+)n'
_symmetry_cell_setting           hexagonal
_symmetry_space_group_name_H-M   'P 6/m m m'
_symmetry_Int_Tables_number      191
_space_group_name_Hall           '-P 6 2'
loop_
_symmetry_equiv_pos_site_id
_symmetry_equiv_pos_as_xyz
1 x,y,z
2 -y,x-y,z
3 -x+y,-x,z
4 -x,-y,z
5 y,-x+y,z
6 x-y,x,z
7 y,x,-z
8 x-y,-y,-z
9 -x,-x+y,-z
10 -y,-x,-z
11 -x+y,y,-z
12 x,x-y,-z
13 -x,-y,-z
14 y,-x+y,-z
15 x-y,x,-z
16 x,y,-z
17 -y,x-y,-z
18 -x+y,-x,-z
19 -y,-x,z
20 -x+y,y,z
21 x,x-y,z
22 y,x,z
23 x-y,-y,z
24 -x,-x+y,z
_cell_length_a                   42.7645(13)
_cell_length_b                   42.7645(13)
_cell_length_c                   16.7556(5)
_cell_angle_alpha                90
_cell_angle_beta                 90
_cell_angle_gamma                120
_cell_volume                     26537.3
loop_
_atom_site_label
_atom_site_type_symbol
_atom_site_fract_x
_atom_site_fract_y
_atom_site_fract_z
Hf1 Hf 0.46655(2) 0.53345(2) 0.5000
Hf2 Hf 0.45920(2) 0.45920(2) 0.60321(2)
Fe1 Fe 0.49574(13) 0.74787(6) 1.0000
Cl1 Cl 0.4299(4) 0.71496(19) 1.0000
O1 O 0.48399(10) 0.51601(10) 0.6056(4)
O2 O 0.4439(2) 0.47688(19) 0.5000
O3 O 0.48198(12) 0.57901(11) 0.5806(2)
O4 O 0.53115(15) 0.58538(14) 0.6446(3)
O5 O 0.46056(19) 0.46056(19) 0.7360(4)
O6 O 0.40925(17) 0.40925(17) 0.5878(4)
N1 N 0.5013(3) 0.75066(17) 0.8792(4)
N2 N 0.5027(4) 0.7051(2) 1.0000
C1 C 0.5064(2) 0.5940(2) 0.6304(4)
C2 C 0.5070(2) 0.6227(2) 0.6848(4)
C3 C 0.4762(3) 0.6250(2) 0.6908(4)
H1 H 0.4558 0.6100 0.6597
C4 C 0.4753(3) 0.6498(3) 0.7434(4)
H2 H 0.4548 0.6525 0.7462
C5 C 0.5052(3) 0.6706(2) 0.7916(4)
C6 C 0.5354(3) 0.6659(3) 0.7876(5)
H3 H 0.5553 0.6793 0.8214
C7 C 0.5361(3) 0.6420(3) 0.7353(4)
H4 H 0.5562 0.6386 0.7333
C8 C 0.5038(3) 0.6957(2) 0.8560(3)
C9 C 0.5042(3) 0.7270(2) 0.8303(4)
C10 C 0.5064(3) 0.7381(2) 0.7484(3)
H5 H 0.5076 0.7257 0.7033
C11 C 0.5019(3) 0.6534(2) 0.9594(3)
C12 C 0.5022(3) 0.6849(2) 0.9341(3)
O3O O 0.48198(12) 0.57901(11) 1.4194(2)
O4O O 0.53115(15) 0.58538(14) 1.3554(3)
N1K N 0.5013(3) 0.75064(34) 1.1208(4)
C1O C 0.5064(2) 0.5940(2) 1.3696(4)
C2O C 0.5070(2) 0.6227(2) 1.3152(4)
C3O C 0.4762(3) 0.6250(2) 1.3092(4)
H1O H 0.4558 0.6100 1.3403
C4O C 0.4753(3) 0.6498(3) 1.2566(4)
H2O H 0.4548 0.6525 1.2538
C5O C 0.5052(3) 0.6706(2) 1.2084(4)
C6O C 0.5354(3) 0.6659(3) 1.2124(5)
H3O H 0.5553 0.6793 1.1786
C7O C 0.5361(3) 0.6420(3) 1.2647(4)
H4O H 0.5562 0.6386 1.2667
C8O C 0.5038(3) 0.6957(2) 1.1440(3)
C9O C 0.5042(3) 0.7270(2) 1.1697(4)
C10O C 0.5064(3) 0.7381(2) 1.2516(3)
H5O H 0.5076 0.7257 1.2967
C11O C 0.5019(3) 0.6534(2) 1.0406(3)
C12O C 0.5022(3) 0.6849(2) 1.0659(3)
O3T O 0.48198(12) 0.90297(16) 0.5806(2)
O4T O 0.53115(15) 0.94577(21) 0.6446(3)
N2K N 0.5027(4) 0.7976(4) 1.0000
C1T C 0.5064(2) 0.9124(3) 0.6304(4)
C2T C 0.5070(2) 0.8843(3) 0.6848(4)
C3T C 0.4762(3) 0.8512(4) 0.6908(4)
H1T H 0.4558 0.8458 0.6597
C4T C 0.4753(3) 0.8255(4) 0.7434(4)
H2T H 0.4548 0.8023 0.7462
C5T C 0.5052(3) 0.8346(4) 0.7916(4)
C6T C 0.5354(3) 0.8695(4) 0.7876(5)
H3T H 0.5553 0.8760 0.8214
C7T C 0.5361(3) 0.8941(4) 0.7353(4)
H4T H 0.5562 0.9176 0.7333
C8T C 0.5038(3) 0.8081(4) 0.8560(3)
C9T C 0.5042(3) 0.7772(4) 0.8303(4)
C10T C 0.5064(3) 0.7683(4) 0.7484(3)
H5T H 0.5076 0.7819 0.7033
C11T C 0.5019(3) 0.8485(4) 0.9594(3)
C12T C 0.5022(3) 0.8173(4) 0.9341(3)
O3K O 0.48198(12) 0.90297(16) 1.4194(2)
O4K O 0.53115(15) 0.94577(21) 1.3554(3)
C1K C 0.5064(2) 0.9124(3) 1.3696(4)
C2K C 0.5070(2) 0.8843(3) 1.3152(4)
C3K C 0.4762(3) 0.8512(4) 1.3092(4)
H1K H 0.4558 0.8458 1.3403
C4K C 0.4753(3) 0.8255(4) 1.2566(4)
H2K H 0.4548 0.8023 1.2538
C5K C 0.5052(3) 0.8346(4) 1.2084(4)
C6K C 0.5354(3) 0.8695(4) 1.2124(5)
H3K H 0.5553 0.8760 1.1786
C7K C 0.5361(3) 0.8941(4) 1.2647(4)
H4K H 0.5562 0.9176 1.2667
C8K C 0.5038(3) 0.8081(4) 1.1440(3)
C9K C 0.5042(3) 0.7772(4) 1.1697(4)
C10K C 0.5064(3) 0.7683(4) 1.2516(3)
H5K H 0.5076 0.7819 1.2967
C11K C 0.5019(3) 0.8485(4) 1.0406(3)
C12K C 0.5022(3) 0.8173(4) 1.0659(3)
Hf2C Hf 0.54080(2) 0.54080(2) 0.60321(2)
O5C O 0.53944(19) 0.53944(19) 0.7360(4)
O6C O 0.59075(17) 0.59075(17) 0.5878(4)
O1I O 0.48399(10) 0.51601(10) 0.3944(4)
O2I O 0.52312(19) 0.5561(2) 0.5000
Hf1_2 Hf 0.46655(2) 0.53345(2) 1.5000
Hf1A Hf 0.46655(2) 0.93310(3) 0.5000
Hf1A_2 Hf 0.46655(2) 0.93310(3) 1.5000
Hf2A Hf 0.54080(2) 1.00000(3) 0.60321(2)
Hf2F Hf 0.45920(2) 0.45920(2) 0.39679(2)
Hf2H Hf 0.54080(2) 1.00000(3) 1.39679(2)
Hf2I Hf 0.54080(2) 0.54080(2) 0.39679(2)
Hf2I_2 Hf 0.54080(2) 0.54080(2) 1.39679(2)
O1C O 0.51601(10) 0.48399(10) 0.6056(4)
O2C O 0.5561(2) 0.52312(19) 0.5000
O2F O 0.47688(19) 0.4439(2) 0.5000
O3I O 0.42099(11) 0.51802(12) 0.4194(2)
O3O_2 O 0.48198(12) 0.57901(11) 0.4194(2)
O3R O 0.42099(11) 0.51802(12) 0.5806(2)
O4C O 0.46885(15) 0.41462(14) 0.6446(3)
O4R O 0.41462(14) 0.46885(15) 0.6446(3)
O4U O 0.58538(14) 0.53115(15) 0.6446(3)
Fe2 Fe 0.5758(5) 0.6284(8) 0.5000
Fe3 Fe 0.46765(16) 0.53235(16) 0.7967(6)
loop_
_geom_bond_atom_site_label_1
_geom_bond_atom_site_label_2
_geom_bond_site_symmetry_1
_geom_bond_site_symmetry_2
Hf1 O1 1_555 1_555
Hf2 O1 1_555 1_555
Fe1 Cl1 1_555 1_555
O1 Hf2C 1_555 1_555
O2 Hf1 1_555 1_555
O3 Hf1 1_555 1_555
O4 C1 1_555 1_555
O5 Hf2 1_555 1_555
O6 Hf2 1_555 1_555
N1 Fe1 1_555 1_555
N2 Fe1 1_555 1_555
C1 O3 1_555 1_555
C2 C1 1_555 1_555
C3 C2 1_555 1_555
H1 C3 1_555 1_555
C4 C3 1_555 1_555
H2 C4 1_555 1_555
C5 C4 1_555 1_555
C6 C5 1_555 1_555
H3 C6 1_555 1_555
C7 C2 1_555 1_555
H4 C7 1_555 1_555
C8 C5 1_555 1_555
C9 N1 1_555 1_555
C10 C9 1_555 1_555
H5 C10 1_555 1_555
C11 C12 1_555 1_555
C12 N2 1_555 1_555
O3O C1O 1_555 1_555
O4O C1O 1_555 1_555
N1K Fe1 1_555 1_555
C1O C2O 1_555 1_555
C2O C3O 1_555 1_555
C3O H1O 1_555 1_555
C4O C3O 1_555 1_555
H2O C4O 1_555 1_555
C5O C4O 1_555 1_555
C6O C5O 1_555 1_555
H3O C6O 1_555 1_555
C7O C2O 1_555 1_555
H4O C7O 1_555 1_555
C8O C5O 1_555 1_555
C9O N1K 1_555 1_555
C10O C9O 1_555 1_555
H5O C10O 1_555 1_555
C11O C11 1_555 1_555
C12O N2 1_555 1_555
O3T C1T 1_555 1_555
O4T C1T 1_555 1_555
N2K Fe1 1_555 1_555
C1T C2T 1_555 1_555
C2T C3T 1_555 1_555
C3T H1T 1_555 1_555
C4T C3T 1_555 1_555
H2T C4T 1_555 1_555
C5T C4T 1_555 1_555
C6T C5T 1_555 1_555
H3T C6T 1_555 1_555
C7T C2T 1_555 1_555
H4T C7T 1_555 1_555
C8T C5T 1_555 1_555
C9T N1 1_555 1_555
C10T C10 1_555 1_555
H5T C10T 1_555 1_555
C11T C12T 1_555 1_555
C12T N2K 1_555 1_555
O3K C1K 1_555 1_555
O4K C1K 1_555 1_555
C1K C2K 1_555 1_555
C2K C3K 1_555 1_555
C3K H1K 1_555 1_555
C4K C3K 1_555 1_555
H2K C4K 1_555 1_555
C5K C4K 1_555 1_555
C6K C5K 1_555 1_555
H3K C6K 1_555 1_555
C7K C2K 1_555 1_555
H4K C7K 1_555 1_555
C8K C5K 1_555 1_555
C9K N1K 1_555 1_555
C10K C10O 1_555 1_555
H5K C10K 1_555 1_555
C11K C11T 1_555 1_555
C12K N2K 1_555 1_555
Hf2C O4 1_555 1_555
O5C Hf2C 1_555 1_555
O6C Hf2C 1_555 1_555
O1I Hf1 1_555 1_555
O2I Hf1 1_555 1_555
Hf1_2 O3O 1_555 1_555
Hf1A O3T 1_555 1_555
Hf1A_2 O3K 1_555 1_555
Hf2A O4T 1_555 1_555
Hf2F O2 1_555 1_555
Hf2H O4K 1_555 1_555
Hf2I O1I 1_555 1_555
Hf2I_2 O4O 1_555 1_555
O1C Hf2 1_555 1_555
O2C Hf2C 1_555 1_555
O2F Hf2 1_555 1_555
O3I Hf1 1_555 1_555
O3O_2 Hf1 1_555 1_555
O3R Hf1 1_555 1_555
O4C Hf2 1_555 1_555
O4R Hf2 1_555 1_555
O4U Hf2C 1_555 1_555
Hf2 O2 1_555 1_555
C6 C7 1_555 1_555
C8 C9 1_555 1_555
C8 C12 1_555 1_555
C6O C7O 1_555 1_555
C8O C9O 1_555 1_555
C8O C12O 1_555 1_555
C11O C12O 1_555 1_555
C6T C7T 1_555 1_555
C8T C9T 1_555 1_555
C8T C12T 1_555 1_555
C9T C10T 1_555 1_555
C6K C7K 1_555 1_555
C8K C9K 1_555 1_555
C8K C12K 1_555 1_555
C9K C10K 1_555 1_555
C11K C12K 1_555 1_555
Hf2C O2I 1_555 1_555
Hf2C O1C 1_555 1_555
O1I Hf2F 1_555 1_555
O2I Hf2I 1_555 1_555
Hf2F O2F 1_555 1_555
Hf2I O2C 1_555 1_555

#END
