
#######################################################################
#
#                 Cambridge Crystallographic Data Centre
#                                CCDC 
#
#######################################################################
#
# If this CIF has been generated from an entry in the Cambridge 
# Structural Database, then it will include bibliographic, chemical, 
# crystal, experimental, refinement or atomic coordinate data resulting 
# from the CCDC's data processing and validation procedures.
#
#######################################################################

data_DANFUW
_chemical_formula_moiety         '(C29 H19 N3 Ni1 O6)n'
_symmetry_cell_setting           orthorhombic
_symmetry_space_group_name_H-M   'I b c a'
_symmetry_Int_Tables_number      73
_space_group_name_Hall           '-I 2b 2c'
loop_
_symmetry_equiv_pos_site_id
_symmetry_equiv_pos_as_xyz
1 x,y,z
2 1/2-x,-y,1/2+z
3 -x,1/2+y,1/2-z
4 1/2+x,1/2-y,-z
5 1/2+x,1/2+y,1/2+z
6 -x,1/2-y,z
7 1/2-x,y,-z
8 x,-y,1/2-z
9 -x,-y,-z
10 1/2+x,y,1/2-z
11 x,1/2-y,1/2+z
12 1/2-x,1/2+y,z
13 1/2-x,1/2-y,1/2-z
14 x,1/2+y,-z
15 1/2+x,-y,z
16 -x,y,1/2+z
_cell_length_a                   19.6025(10)
_cell_length_b                   23.5274(12)
_cell_length_c                   25.9223(13)
_cell_angle_alpha                90
_cell_angle_beta                 90
_cell_angle_gamma                90
_cell_volume                     11955.3
loop_
_atom_site_label
_atom_site_type_symbol
_atom_site_fract_x
_atom_site_fract_y
_atom_site_fract_z
_atom_site_U_iso_or_equiv
_atom_site_thermal_displace_type
Ni1 Ni 0.316200(14) 0.335239(11) 0.200277(11) 0.0260 Uani
O1 O -0.04422(10) 0.31981(9) 0.22792(9) 0.0697 Uani
O2 O 0.33343(8) 0.28267(7) 0.26286(6) 0.0390 Uani
H1 H 0.3263 0.2469 0.2651 0.0580 Uiso
H2 H 0.3739 0.2899 0.2743 0.0580 Uiso
O3 O -0.08736(7) 0.36338(7) 0.29714(6) 0.0332 Uani
O4 O 0.21078(8) 0.32640(6) 0.21488(6) 0.0329 Uani
O5 O 0.26743(7) 0.39625(6) 0.25100(6) 0.0339 Uani
O6 O 0.08408(8) 0.51714(6) 0.33438(6) 0.0395 Uani
C1 C -0.24235(15) 0.38041(11) 0.60693(11) 0.0517 Uani
H3 H -0.2287 0.3419 0.6033 0.0620 Uiso
C2 C -0.21006(15) 0.42040(11) 0.57724(11) 0.0508 Uani
H4 H -0.1753 0.4093 0.5537 0.0610 Uiso
C3 C -0.22833(11) 0.47712(10) 0.58164(8) 0.0316 Uani
C4 C -0.28144(13) 0.48933(10) 0.61505(9) 0.0386 Uani
H5 H -0.2972 0.5273 0.6186 0.0460 Uiso
C5 C -0.31119(12) 0.44656(10) 0.64296(10) 0.0402 Uani
H6 H -0.3478 0.4561 0.6653 0.0480 Uiso
C6 C -0.19009(11) 0.52319(10) 0.55507(9) 0.0315 Uani
C7 C -0.14989(12) 0.51393(10) 0.51165(8) 0.0329 Uani
H7 H -0.1494 0.4775 0.4959 0.0390 Uiso
C8 C -0.11056(12) 0.55750(10) 0.49122(8) 0.0338 Uani
C9 C -0.11409(13) 0.61023(10) 0.51543(9) 0.0388 Uani
H8 H -0.0883 0.6415 0.5028 0.0470 Uiso
C10 C -0.15604(12) 0.61651(10) 0.55844(9) 0.0363 Uani
C11 C -0.16029(13) 0.67070(9) 0.58831(10) 0.0360 Uani
C12 C -0.11033(16) 0.71140(13) 0.58899(13) 0.0716 Uani
H9 H -0.0707 0.7068 0.5683 0.0860 Uiso
C13 C -0.11739(16) 0.75924(12) 0.61968(13) 0.0670 Uani
H10 H -0.0823 0.7871 0.6189 0.0810 Uiso
C14 C -0.21877(14) 0.72810(11) 0.64936(11) 0.0527 Uani
H11 H -0.2579 0.7334 0.6704 0.0630 Uiso
C15 C -0.21513(15) 0.67994(11) 0.62008(11) 0.0517 Uani
H12 H -0.2508 0.6527 0.6217 0.0620 Uiso
C16 C -0.06218(12) 0.54675(9) 0.44826(8) 0.0326 Uani
C17 C -0.04062(15) 0.58953(10) 0.41470(10) 0.0504 Uani
H13 H -0.0589 0.6267 0.4182 0.0610 Uiso
C18 C 0.00671(15) 0.57880(10) 0.37650(10) 0.0511 Uani
H14 H 0.0202 0.6083 0.3536 0.0610 Uiso
C19 C 0.03429(12) 0.52532(10) 0.37167(9) 0.0343 Uani
C20 C 0.01469(12) 0.48269(10) 0.40476(9) 0.0355 Uani
H15 H 0.0345 0.4460 0.4019 0.0430 Uiso
C21 C -0.03344(12) 0.49327(10) 0.44191(8) 0.0340 Uani
H16 H -0.0475 0.4632 0.4639 0.0410 Uiso
C22 C 0.08361(11) 0.46515(9) 0.30855(8) 0.0282 Uani
C23 C 0.02333(11) 0.43650(10) 0.29869(8) 0.0307 Uani
H17 H -0.0189 0.4520 0.3098 0.0370 Uiso
C24 C 0.02470(11) 0.38543(9) 0.27268(8) 0.0292 Uani
C25 C 0.08635(11) 0.36432(9) 0.25450(8) 0.0299 Uani
H18 H 0.0873 0.3297 0.2356 0.0360 Uiso
C26 C 0.14627(10) 0.39340(9) 0.26378(8) 0.0258 Uani
C27 C 0.14536(11) 0.44426(9) 0.29154(8) 0.0281 Uani
H19 H 0.1865 0.4641 0.2986 0.0340 Uiso
C28 C -0.04058(11) 0.35351(10) 0.26491(9) 0.0352 Uani
C29 C 0.21202(11) 0.37107(9) 0.24262(9) 0.0274 Uani
N1 N -0.29177(10) 0.39229(8) 0.64062(7) 0.0337 Uani
N2 N -0.19396(10) 0.57420(8) 0.57758(7) 0.0356 Uani
N3 N -0.17078(10) 0.76792(8) 0.65007(8) 0.0342 Uani
Ni1D Ni -0.183800(14) 0.835239(11) 0.700277(11) 0.0260 Uani
Ni1I Ni -0.183800(14) 0.335239(11) 0.299723(11) 0.0260 Uani
Ni1O Ni -0.316200(14) 0.335239(11) 0.700277(11) 0.0260 Uani
O3I O 0.41264(7) 0.36338(7) 0.20286(6) 0.0332 Uani
N1O N 0.29177(10) 0.39229(8) 0.14062(7) 0.0337 Uani
N3D N 0.32922(10) 0.26792(8) 0.15007(8) 0.0342 Uani
loop_
_atom_site_aniso_label
_atom_site_aniso_U_11
_atom_site_aniso_U_22
_atom_site_aniso_U_33
_atom_site_aniso_U_23
_atom_site_aniso_U_13
_atom_site_aniso_U_12
Ni1 0.01740(18) 0.02346(18) 0.0372(2) -0.00190(12) 0.00464(11) 0.00165(11)
O1 0.0406(11) 0.0805(14) 0.0881(16) -0.0562(13) 0.0204(11) -0.0229(11)
O2 0.0335(9) 0.0337(9) 0.0498(10) 0.0104(8) 0.0050(8) -0.0049(7)
O3 0.0173(8) 0.0383(9) 0.0441(9) -0.0110(7) 0.0028(7) -0.0018(7)
O4 0.0207(8) 0.0281(9) 0.0499(10) -0.0102(7) 0.0083(7) -0.0002(7)
O5 0.0204(8) 0.0342(9) 0.0471(9) -0.0090(7) 0.0029(7) -0.0004(7)
O6 0.0365(9) 0.0321(9) 0.0499(10) -0.0194(8) 0.0224(8) -0.0087(7)
C1 0.0653(18) 0.0281(13) 0.0618(17) -0.0081(12) 0.0252(15) 0.0012(13)
C2 0.0611(18) 0.0304(14) 0.0610(17) -0.0083(13) 0.0333(15) -0.0041(13)
C3 0.0303(12) 0.0332(12) 0.0314(12) -0.0059(10) 0.0021(10) -0.0029(10)
C4 0.0363(13) 0.0307(13) 0.0489(14) 0.0047(11) 0.0132(12) 0.0058(11)
C5 0.0311(13) 0.0369(14) 0.0527(15) 0.0055(12) 0.0160(12) 0.0061(11)
C6 0.0320(12) 0.0302(12) 0.0322(12) -0.0027(10) 0.0064(10) -0.0024(10)
C7 0.0359(13) 0.0307(13) 0.0321(12) -0.0077(10) 0.0051(10) -0.0004(11)
C8 0.0362(13) 0.0342(13) 0.0309(12) -0.0039(10) 0.0098(10) 0.0018(11)
C9 0.0478(15) 0.0283(12) 0.0404(13) -0.0037(10) 0.0191(12) -0.0028(12)
C10 0.0408(13) 0.0265(12) 0.0416(14) -0.0051(10) 0.0147(11) 0.0018(11)
C11 0.0424(14) 0.0255(12) 0.0401(14) -0.0040(10) 0.0171(12) -0.0003(11)
C12 0.062(2) 0.0558(18) 0.097(2) -0.0404(18) 0.0526(19) -0.0173(16)
C13 0.0545(18) 0.0475(17) 0.099(2) -0.0328(17) 0.0447(18) -0.0189(15)
C14 0.0449(15) 0.0428(15) 0.0704(18) -0.0198(14) 0.0323(15) -0.0090(13)
C15 0.0492(17) 0.0377(14) 0.0681(18) -0.0185(14) 0.0307(15) -0.0134(13)
C16 0.0362(13) 0.0309(13) 0.0306(12) -0.0077(10) 0.0094(10) -0.0002(10)
C17 0.0681(19) 0.0265(13) 0.0567(16) -0.0031(12) 0.0337(15) 0.0090(13)
C18 0.0682(19) 0.0311(14) 0.0539(16) -0.0023(12) 0.0375(15) -0.0010(13)
C19 0.0301(12) 0.0341(13) 0.0387(13) -0.0150(11) 0.0118(10) -0.0034(10)
C20 0.0382(13) 0.0305(13) 0.0377(13) -0.0080(10) 0.0050(11) 0.0075(11)
C21 0.0408(13) 0.0309(13) 0.0302(12) -0.0020(10) 0.0073(10) 0.0006(11)
C22 0.0260(12) 0.0267(11) 0.0320(11) -0.0077(9) 0.0097(9) -0.0014(10)
C23 0.0226(11) 0.0344(13) 0.0350(12) -0.0069(10) 0.0081(9) 0.0042(10)
C24 0.0203(11) 0.0316(12) 0.0356(12) -0.0081(10) 0.0025(9) -0.0009(10)
C25 0.0239(11) 0.0272(11) 0.0386(13) -0.0099(10) 0.0046(10) 0.0011(10)
C26 0.0203(11) 0.0266(11) 0.0306(11) -0.0028(9) 0.0050(9) 0.0023(9)
C27 0.0219(11) 0.0305(12) 0.0320(11) -0.0048(9) 0.0039(9) -0.0042(10)
C28 0.0225(12) 0.0342(13) 0.0489(14) -0.0105(11) 0.0016(11) 0.0002(10)
C29 0.0212(11) 0.0242(11) 0.0369(12) -0.0011(10) 0.0044(10) 0.0008(9)
N1 0.0284(10) 0.0324(11) 0.0404(11) -0.0002(9) 0.0022(9) -0.0031(9)
N2 0.0391(11) 0.0304(11) 0.0374(11) -0.0039(9) 0.0135(9) -0.0012(9)
N3 0.0343(11) 0.0268(10) 0.0416(11) -0.0053(9) 0.0123(9) 0.0030(9)
Ni1D 0.0174 0.02346 0.0372 -0.0019 0.00464 0.00165
Ni1I 0.0174 0.02346 0.0372 0.0019 -0.00464 0.00165
Ni1O 0.0174 0.02346 0.0372 -0.0019 -0.00464 -0.00165
O3I 0.0173 0.0383 0.0441 0.011 -0.0028 -0.0018
N1O 0.0284 0.0324 0.0404 -0.0002 -0.0022 0.0031
N3D 0.0343 0.0268 0.0416 -0.0053 0.0123 0.003
loop_
_geom_bond_atom_site_label_1
_geom_bond_atom_site_label_2
_geom_bond_site_symmetry_1
_geom_bond_site_symmetry_2
Ni1 O2 1_555 1_555
O1 C28 1_555 1_555
O2 H1 1_555 1_555
H2 O2 1_555 1_555
O3 C28 1_555 1_555
O4 Ni1 1_555 1_555
O5 Ni1 1_555 1_555
O6 C19 1_555 1_555
C1 H3 1_555 1_555
C2 C1 1_555 1_555
H4 C2 1_555 1_555
C3 C2 1_555 1_555
C4 C3 1_555 1_555
H5 C4 1_555 1_555
C5 C4 1_555 1_555
H6 C5 1_555 1_555
C6 C3 1_555 1_555
C7 C6 1_555 1_555
H7 C7 1_555 1_555
C8 C7 1_555 1_555
C9 C8 1_555 1_555
H8 C9 1_555 1_555
C10 C9 1_555 1_555
C11 C10 1_555 1_555
C12 C11 1_555 1_555
H9 C12 1_555 1_555
C13 C12 1_555 1_555
H10 C13 1_555 1_555
C14 H11 1_555 1_555
C15 C11 1_555 1_555
H12 C15 1_555 1_555
C16 C8 1_555 1_555
C17 C16 1_555 1_555
H13 C17 1_555 1_555
C18 C17 1_555 1_555
H14 C18 1_555 1_555
C19 C18 1_555 1_555
C20 C19 1_555 1_555
H15 C20 1_555 1_555
C21 C16 1_555 1_555
H16 C21 1_555 1_555
C22 O6 1_555 1_555
C23 C22 1_555 1_555
H17 C23 1_555 1_555
C24 C23 1_555 1_555
C25 C24 1_555 1_555
H18 C25 1_555 1_555
C26 C25 1_555 1_555
C27 C22 1_555 1_555
H19 C27 1_555 1_555
C28 C24 1_555 1_555
C29 O4 1_555 1_555
N1 C1 1_555 1_555
N2 C6 1_555 1_555
N3 C13 1_555 1_555
Ni1D N3 1_555 1_555
Ni1I O3 1_555 1_555
Ni1O N1 1_555 1_555
O3I Ni1 1_555 1_555
N1O Ni1 1_555 1_555
N3D Ni1 1_555 1_555
O5 C29 1_555 1_555
C5 N1 1_555 1_555
C10 N2 1_555 1_555
C14 C15 1_555 1_555
C14 N3 1_555 1_555
C20 C21 1_555 1_555
C26 C27 1_555 1_555
C26 C29 1_555 1_555

#END
