
#######################################################################
#
#                 Cambridge Crystallographic Data Centre
#                                CCDC 
#
#######################################################################
#
# If this CIF has been generated from an entry in the Cambridge 
# Structural Database, then it will include bibliographic, chemical, 
# crystal, experimental, refinement or atomic coordinate data resulting 
# from the CCDC's data processing and validation procedures.
#
#######################################################################

data_DANFIK
_chemical_formula_moiety         '(C68 H42 Co2 N8 O10)n'
_symmetry_cell_setting           monoclinic
_symmetry_space_group_name_H-M   'C 2/m'
_symmetry_Int_Tables_number      12
_space_group_name_Hall           '-C 2y'
loop_
_symmetry_equiv_pos_site_id
_symmetry_equiv_pos_as_xyz
1 x,y,z
2 -x,y,-z
3 1/2+x,1/2+y,z
4 1/2-x,1/2+y,-z
5 -x,-y,-z
6 x,-y,z
7 1/2-x,1/2-y,-z
8 1/2+x,1/2-y,z
_cell_length_a                   16.201(3)
_cell_length_b                   49.374(8)
_cell_length_c                   10.0575(16)
_cell_angle_alpha                90
_cell_angle_beta                 110.045(3)
_cell_angle_gamma                90
_cell_volume                     7557.74
loop_
_atom_site_label
_atom_site_type_symbol
_atom_site_fract_x
_atom_site_fract_y
_atom_site_fract_z
Co1 Co 0.08902(4) 0.115157(15) 0.39303(7)
N1 N 0.0901(3) 0.07212(9) 0.3798(5)
N2 N 0.5955(3) 0.34220(10) 1.4218(5)
N3 N 0.6825(3) 0.24946(9) 1.6202(5)
N4 N 0.8740(9) 0.2053(2) 2.0675(10)
O1 O 0.0826(2) 0.11802(8) 1.1807(4)
O2 O 0.0422(2) 0.11556(9) 0.6673(4)
O3 O 0.2141(2) 0.11817(8) 1.3389(4)
O4 O 0.1586(2) 0.11118(7) 0.6034(3)
O5 O 0.4148(2) 0.12711(8) 1.0443(4)
C1 C 0.0136(7) 0.0577(2) 0.336(2)
H1 H -0.0405 0.0672 0.3100
C2 C 0.0116(7) 0.0298(2) 0.3277(19)
H2 H -0.0431 0.0207 0.2899
C3 C 0.0894(5) 0.01499(11) 0.3747(8)
C4 C 0.1647(7) 0.0297(2) 0.436(2)
H3 H 0.2193 0.0205 0.4733
C5 C 0.1633(6) 0.05757(18) 0.4465(16)
H4 H 0.2152 0.0668 0.5019
C6 C 0.1643(4) 0.11857(11) 1.2113(5)
C7 C 0.2018(3) 0.11942(10) 1.0934(5)
C8 C 0.2909(3) 0.12342(10) 1.1243(6)
H5 H 0.3287 0.1257 1.2195
C9 C 0.3241(3) 0.12411(11) 1.0157(6)
C10 C 0.2722(3) 0.12041(10) 0.8784(5)
H6 H 0.2968 0.1203 0.8051
C11 C 0.1815(3) 0.11684(10) 0.8473(5)
C12 C 0.1469(3) 0.11681(10) 0.9554(5)
H7 H 0.0854 0.1150 0.9342
C13 C 0.1224(3) 0.11422(10) 0.6954(5)
C14 C 0.4555(4) 0.14745(14) 1.1393(6)
C15 C 0.4247(4) 0.17331(15) 1.1234(7)
H8 H 0.3724 0.1775 1.0474
C16 C 0.4678(4) 0.19342(14) 1.2149(7)
H9 H 0.4438 0.2112 1.2028
C17 C 0.5454(3) 0.18834(13) 1.3243(6)
C18 C 0.5741(4) 0.16222(15) 1.3319(6)
H10 H 0.6286 0.1581 1.4031
C19 C 0.5314(4) 0.14162(14) 1.2463(7)
H11 H 0.5540 0.1237 1.2609
C20 C 0.5923(4) 0.20960(12) 1.4293(6)
C21 C 0.5776(4) 0.23685(12) 1.3965(6)
H12 H 0.5368 0.2422 1.3075
C22 C 0.6235(3) 0.25656(11) 1.4954(5)
C23 C 0.6120(4) 0.28553(12) 1.4686(5)
C24 C 0.5431(4) 0.29702(12) 1.3585(6)
H13 H 0.4999 0.2857 1.2951
C25 C 0.5376(4) 0.32433(13) 1.3416(6)
H14 H 0.4887 0.3313 1.2669
C26 C 0.6626(4) 0.33079(12) 1.5278(6)
H15 H 0.7053 0.3426 1.5882
C27 C 0.6737(4) 0.30382(12) 1.5548(6)
H16 H 0.7227 0.2974 1.6311
C28 C 0.6533(4) 0.20286(12) 1.5589(6)
H17 H 0.6657 0.1844 1.5851
C29 C 0.6961(4) 0.22340(12) 1.6501(6)
C30 C 0.7653(4) 0.21715(12) 1.7914(6)
C31 C 0.7758(8) 0.2351(2) 1.9011(11)
H18 H 0.7429 0.2515 1.8846
C32 C 0.8337(9) 0.2294(2) 2.0341(12)
H19 H 0.8456 0.2430 2.1051
C33 C 0.8694(9) 0.1883(2) 1.9550(11)
H20 H 0.9088 0.1734 1.9694
C34 C 0.8085(7) 0.19279(19) 1.8230(10)
H21 H 0.7961 0.1790 1.7532
N1E N 0.0901(3) -0.07212(9) 0.3798(5)
C1E C 0.0136(7) -0.0577(2) 0.336(2)
H1E H -0.0405 -0.0672 0.3100
C2E C 0.0116(7) -0.0298(2) 0.3277(19)
H2E H -0.0431 -0.0207 0.2899
C3E C 0.0894(5) -0.01499(11) 0.3747(8)
C4E C 0.1647(7) -0.0297(2) 0.436(2)
H3E H 0.2193 -0.0205 0.4733
C5E C 0.1633(6) -0.05757(18) 0.4465(16)
H4E H 0.2152 -0.0668 0.5019
Co1A Co -0.08902(4) 0.115157(15) 0.60697(7)
N2A N -0.5955(3) 0.34220(10) -0.4218(5)
N3A N -0.6825(3) 0.24946(9) -0.6202(5)
N4A N -0.8740(9) 0.2053(2) -1.0675(10)
O1A O -0.0826(2) 0.11802(8) -0.1807(4)
O2A O -0.0422(2) 0.11556(9) 0.3327(4)
O3A O -0.2141(2) 0.11817(8) -0.3389(4)
O4A O -0.1586(2) 0.11118(7) 0.3966(3)
O5A O -0.4148(2) 0.12711(8) -0.0443(4)
C6A C -0.1643(4) 0.11857(11) -0.2113(5)
C7A C -0.2018(3) 0.11942(10) -0.0934(5)
C8A C -0.2909(3) 0.12342(10) -0.1243(6)
H5A H -0.3287 0.1257 -0.2195
C9A C -0.3241(3) 0.12411(11) -0.0157(6)
C10A C -0.2722(3) 0.12041(10) 0.1216(5)
H6A H -0.2968 0.1203 0.1949
C11A C -0.1815(3) 0.11684(10) 0.1527(5)
C12A C -0.1469(3) 0.11681(10) 0.0446(5)
H7A H -0.0854 0.1150 0.0658
C13A C -0.1224(3) 0.11422(10) 0.3046(5)
C14A C -0.4555(4) 0.14745(14) -0.1393(6)
C15A C -0.4247(4) 0.17331(15) -0.1234(7)
H8A H -0.3724 0.1775 -0.0474
C16A C -0.4678(4) 0.19342(14) -0.2149(7)
H9A H -0.4438 0.2112 -0.2028
C17A C -0.5454(3) 0.18834(13) -0.3243(6)
C18A C -0.5741(4) 0.16222(15) -0.3319(6)
H10A H -0.6286 0.1581 -0.4031
C19A C -0.5314(4) 0.14162(14) -0.2463(7)
H11A H -0.5540 0.1237 -0.2609
C20A C -0.5923(4) 0.20960(12) -0.4293(6)
C21A C -0.5776(4) 0.23685(12) -0.3965(6)
H12A H -0.5368 0.2422 -0.3075
C22A C -0.6235(3) 0.25656(11) -0.4954(5)
C23A C -0.6120(4) 0.28553(12) -0.4686(5)
C24A C -0.5431(4) 0.29702(12) -0.3585(6)
H13A H -0.4999 0.2857 -0.2951
C25A C -0.5376(4) 0.32433(13) -0.3416(6)
H14A H -0.4887 0.3313 -0.2669
C26A C -0.6626(4) 0.33079(12) -0.5278(6)
H15A H -0.7053 0.3426 -0.5882
C27A C -0.6737(4) 0.30382(12) -0.5548(6)
H16A H -0.7227 0.2974 -0.6311
C28A C -0.6533(4) 0.20286(12) -0.5589(6)
H17A H -0.6657 0.1844 -0.5851
C29A C -0.6961(4) 0.22340(12) -0.6501(6)
C30A C -0.7653(4) 0.21715(12) -0.7914(6)
C31A C -0.7758(8) 0.2351(2) -0.9011(11)
H18A H -0.7429 0.2515 -0.8846
C32A C -0.8337(9) 0.2294(2) -1.0341(12)
H19A H -0.8456 0.2430 -1.1051
C33A C -0.8694(9) 0.1883(2) -0.9550(11)
H20A H -0.9088 0.1734 -0.9694
C34A C -0.8085(7) 0.19279(19) -0.8230(10)
H21A H -0.7961 0.1790 -0.7532
Co1_2 Co 0.08902(4) 0.115157(15) 1.39303(7)
Co1A_2 Co -0.08902(4) 0.115157(15) -0.39303(7)
Co1E Co 0.08902(4) -0.115157(15) 0.39303(7)
Co1F Co -0.58902(4) 0.384843(15) -0.39303(7)
Co1G Co 0.58902(4) 0.384843(15) 1.39303(7)
N1A N -0.0901(3) 0.07212(9) 0.6202(5)
N2F N -0.0955(3) 0.15780(10) 0.5782(5)
N2G N 0.0955(3) 0.15780(10) 0.4218(5)
O1_2 O 0.0826(2) 0.11802(8) 0.1807(4)
O1A_2 O -0.0826(2) 0.11802(8) 0.8193(4)
O3_2 O 0.2141(2) 0.11817(8) 0.3389(4)
O3A_2 O -0.2141(2) 0.11817(8) 0.6611(4)
loop_
_geom_bond_atom_site_label_1
_geom_bond_atom_site_label_2
_geom_bond_site_symmetry_1
_geom_bond_site_symmetry_2
Co1 N1 1_555 1_555
N1 C1 1_555 1_555
N2 C25 1_555 1_555
N3 C22 1_555 1_555
N4 C32 1_555 1_555
O1 C6 1_555 1_555
O2 C13 1_555 1_555
O3 C6 1_555 1_555
O4 Co1 1_555 1_555
O5 C9 1_555 1_555
C1 H1 1_555 1_555
C2 C1 1_555 1_555
H2 C2 1_555 1_555
C3 C2 1_555 1_555
C4 C3 1_555 1_555
H3 C4 1_555 1_555
C5 N1 1_555 1_555
H4 C5 1_555 1_555
C6 C7 1_555 1_555
C7 C8 1_555 1_555
C8 H5 1_555 1_555
C9 C8 1_555 1_555
C10 C9 1_555 1_555
H6 C10 1_555 1_555
C11 C10 1_555 1_555
C12 C7 1_555 1_555
H7 C12 1_555 1_555
C13 O4 1_555 1_555
C14 O5 1_555 1_555
C15 C14 1_555 1_555
H8 C15 1_555 1_555
C16 C15 1_555 1_555
H9 C16 1_555 1_555
C17 C16 1_555 1_555
C18 C17 1_555 1_555
H10 C18 1_555 1_555
C19 C14 1_555 1_555
H11 C19 1_555 1_555
C20 C17 1_555 1_555
C21 C20 1_555 1_555
H12 C21 1_555 1_555
C22 C21 1_555 1_555
C23 C22 1_555 1_555
C24 C23 1_555 1_555
H13 C24 1_555 1_555
C25 C24 1_555 1_555
H14 C25 1_555 1_555
C26 N2 1_555 1_555
H15 C26 1_555 1_555
C27 C23 1_555 1_555
H16 C27 1_555 1_555
C28 C20 1_555 1_555
H17 C28 1_555 1_555
C29 N3 1_555 1_555
C30 C29 1_555 1_555
C31 C30 1_555 1_555
H18 C31 1_555 1_555
C32 C31 1_555 1_555
H19 C32 1_555 1_555
C33 N4 1_555 1_555
H20 C33 1_555 1_555
C34 C30 1_555 1_555
H21 C34 1_555 1_555
N1E C1E 1_555 1_555
C1E H1E 1_555 1_555
C2E C1E 1_555 1_555
H2E C2E 1_555 1_555
C3E C3 1_555 1_555
C4E C3E 1_555 1_555
H3E C4E 1_555 1_555
C5E N1E 1_555 1_555
H4E C5E 1_555 1_555
Co1A O2 1_555 1_555
N2A C25A 1_555 1_555
N3A C22A 1_555 1_555
N4A C32A 1_555 1_555
O1A C6A 1_555 1_555
O2A Co1 1_555 1_555
O3A C6A 1_555 1_555
O4A Co1A 1_555 1_555
O5A C9A 1_555 1_555
C6A C7A 1_555 1_555
C7A C8A 1_555 1_555
C8A H5A 1_555 1_555
C9A C8A 1_555 1_555
C10A C9A 1_555 1_555
H6A C10A 1_555 1_555
C11A C10A 1_555 1_555
C12A C7A 1_555 1_555
H7A C12A 1_555 1_555
C13A O2A 1_555 1_555
C14A O5A 1_555 1_555
C15A C14A 1_555 1_555
H8A C15A 1_555 1_555
C16A C15A 1_555 1_555
H9A C16A 1_555 1_555
C17A C16A 1_555 1_555
C18A C17A 1_555 1_555
H10A C18A 1_555 1_555
C19A C14A 1_555 1_555
H11A C19A 1_555 1_555
C20A C17A 1_555 1_555
C21A C20A 1_555 1_555
H12A C21A 1_555 1_555
C22A C21A 1_555 1_555
C23A C22A 1_555 1_555
C24A C23A 1_555 1_555
H13A C24A 1_555 1_555
C25A C24A 1_555 1_555
H14A C25A 1_555 1_555
C26A N2A 1_555 1_555
H15A C26A 1_555 1_555
C27A C23A 1_555 1_555
H16A C27A 1_555 1_555
C28A C20A 1_555 1_555
H17A C28A 1_555 1_555
C29A N3A 1_555 1_555
C30A C29A 1_555 1_555
C31A C30A 1_555 1_555
H18A C31A 1_555 1_555
C32A C31A 1_555 1_555
H19A C32A 1_555 1_555
C33A N4A 1_555 1_555
H20A C33A 1_555 1_555
C34A C30A 1_555 1_555
H21A C34A 1_555 1_555
Co1_2 O1 1_555 1_555
Co1A_2 O1A 1_555 1_555
Co1E N1E 1_555 1_555
Co1F N2A 1_555 1_555
Co1G N2 1_555 1_555
N1A Co1A 1_555 1_555
N2F Co1A 1_555 1_555
N2G Co1 1_555 1_555
O1_2 Co1 1_555 1_555
O1A_2 Co1A 1_555 1_555
O3_2 Co1 1_555 1_555
O3A_2 Co1A 1_555 1_555
O3 Co1_2 1_555 1_555
C4 C5 1_555 1_555
C11 C12 1_555 1_555
C11 C13 1_555 1_555
C18 C19 1_555 1_555
C26 C27 1_555 1_555
C28 C29 1_555 1_555
C33 C34 1_555 1_555
C2E C3E 1_555 1_555
C4E C5E 1_555 1_555
O3A Co1A_2 1_555 1_555
O4A C13A 1_555 1_555
C11A C12A 1_555 1_555
C11A C13A 1_555 1_555
C18A C19A 1_555 1_555
C26A C27A 1_555 1_555
C28A C29A 1_555 1_555
C33A C34A 1_555 1_555

#END
