
#######################################################################
#
#                 Cambridge Crystallographic Data Centre
#                                CCDC 
#
#######################################################################
#
# If this CIF has been generated from an entry in the Cambridge 
# Structural Database, then it will include bibliographic, chemical, 
# crystal, experimental, refinement or atomic coordinate data resulting 
# from the CCDC's data processing and validation procedures.
#
#######################################################################

data_OFAPIW
_chemical_formula_moiety         'C29 H15 Co4 N8 O6'
_symmetry_cell_setting           monoclinic
_symmetry_space_group_name_H-M   'C 2/m'
_symmetry_Int_Tables_number      12
_space_group_name_Hall           '-C 2y'
loop_
_symmetry_equiv_pos_site_id
_symmetry_equiv_pos_as_xyz
1 x,y,z
2 -x,y,-z
3 1/2+x,1/2+y,z
4 1/2-x,1/2+y,-z
5 -x,-y,-z
6 x,-y,z
7 1/2-x,1/2-y,-z
8 1/2+x,1/2-y,z
_cell_length_a                   20.547(9)
_cell_length_b                   9.966(5)
_cell_length_c                   15.687(7)
_cell_angle_alpha                90
_cell_angle_beta                 99.638(6)
_cell_angle_gamma                90
_cell_volume                     3166.91
loop_
_atom_site_label
_atom_site_type_symbol
_atom_site_fract_x
_atom_site_fract_y
_atom_site_fract_z
O3 O 0.3388(3) 0.0000 0.6005(5)
H11 H 0.3601 0.0683 0.6146
H11E H 0.3601 -0.0683 0.6146
Co1 Co 0.136790(9) 1.0000 -0.111151(13)
N1 N 0.14999(6) 1.0000 0.02928(9)
O1 O 0.06030(5) 0.85866(10) -0.11219(6)
N2 N 0.12392(7) 1.0000 -0.25160(9)
N3 N 0.24286(6) 1.0000 -0.10707(8)
C1 C 0.09628(8) 1.0000 0.06724(11)
C2 C 0.20799(9) 1.0000 0.08325(13)
C3 C 0.09058(6) 0.75327(14) -0.11504(8)
H1 H 0.0553 1.0000 0.0315
C4 C 0.09702(9) 1.0000 0.15473(11)
C5 C 0.21341(11) 1.0000 0.17097(14)
H2 H 0.2465 1.0000 0.0595
O2 O 0.15119(5) 0.75402(13) -0.11685(8)
C6 C 0.05479(5) 0.62066(12) -0.11620(7)
H3 H 0.0576 1.0000 0.1764
C7 C 0.15597(10) 1.0000 0.20987(12)
H4 H 0.2549 1.0000 0.2054
C8 C -0.01278(5) 0.62023(11) -0.11406(8)
C9 C 0.08713(7) 0.5000 -0.11771(11)
C10 C 0.16178(12) 1.0000 0.30256(14)
H5 H -0.0350 0.7013 -0.1129
C11 C -0.04753(7) 0.5000 -0.11365(10)
H6 H 0.1321 0.5000 -0.1198
N4 N 0.11320(10) 1.0000 0.33998(11)
H7 H 0.2037 1.0000 0.3358
C12 C -0.11902(7) 0.5000 -0.11075(10)
N5 N 0.12818(13) 1.0422(3) 0.43136(14)
C13 C -0.15466(6) 0.61404(14) -0.10764(12)
C14 C 0.10001(16) 1.0000 0.47285(16)
H8 H -0.1334 0.6966 -0.1062
C15 C -0.22208(6) 0.61012(15) -0.10659(13)
H9 H 0.0530 1.0000 0.4478
C16 C 0.11013(14) 1.0000 0.56880(15)
H10 H -0.2440 0.6916 -0.1055
C17 C 0.0680(2) 0.9291(5) 0.6108(2)
C18 C 0.15062(18) 0.9143(5) 0.6154(2)
C19 C 0.07637(19) 0.9347(4) 0.7004(2)
C20 C 0.15584(19) 0.9113(4) 0.7063(2)
O1E O 0.06030(5) 1.14134(10) -0.11219(6)
C6E C 0.05479(5) 0.37934(12) -0.11620(7)
C8E C -0.01278(5) 0.37977(11) -0.11406(8)
C3E C 0.09058(6) 0.24673(14) -0.11504(8)
N5E N 0.12818(13) 0.9578(3) 0.43136(14)
C13E C -0.15466(6) 0.38596(14) -0.10764(12)
H5E H -0.0350 0.2987 -0.1129
O1E_2 O 0.06030(5) 0.14134(10) -0.11219(6)
O2E O 0.15119(5) 0.24598(13) -0.11685(8)
H8E H -0.1334 0.3034 -0.1062
C15E C -0.22208(6) 0.38988(15) -0.10659(13)
Co1_2 Co 0.136790(9) 0.0000 -0.111151(13)
N3B N -0.25714(6) 0.5000 -0.10707(8)
H10E H -0.2440 0.3084 -0.1055
C17E C 0.0680(2) 1.0709(5) 0.6108(2)
C18E C 0.15062(18) 1.0857(5) 0.6154(2)
Co1B Co -0.363210(9) 0.5000 -0.111151(13)
C19E C 0.07637(19) 1.0653(4) 0.7004(2)
C20E C 0.15584(19) 1.0887(4) 0.7063(2)
N2_2 N 0.12392(7) 1.0000 0.74840(9)
Co1_3 Co 0.136790(9) 1.0000 0.888849(13)
loop_
_geom_bond_atom_site_label_1
_geom_bond_atom_site_label_2
_geom_bond_site_symmetry_1
_geom_bond_site_symmetry_2
Co1 N1 1_555 1_555
N1 C1 1_555 1_555
O1 Co1 1_555 1_555
N2 Co1 1_555 1_555
N3 Co1 1_555 1_555
C1 H1 1_555 1_555
C2 N1 1_555 1_555
C3 O1 1_555 1_555
C4 C1 1_555 1_555
C5 C2 1_555 1_555
H2 C2 1_555 1_555
O2 C3 1_555 1_555
C6 C3 1_555 1_555
H3 C4 1_555 1_555
C7 C4 1_555 1_555
H4 C5 1_555 1_555
C8 C6 1_555 1_555
C9 C6 1_555 1_555
C10 C7 1_555 1_555
H5 C8 1_555 1_555
C11 C8 1_555 1_555
H6 C9 1_555 1_555
N4 C10 1_555 1_555
H7 C10 1_555 1_555
C12 C11 1_555 1_555
N5 N4 1_555 1_555
C13 C12 1_555 1_555
C14 N5 1_555 1_555
H8 C13 1_555 1_555
C15 C13 1_555 1_555
H9 C14 1_555 1_555
C16 C14 1_555 1_555
H10 C15 1_555 1_555
C17 C16 1_555 1_555
C18 C16 1_555 1_555
C19 C17 1_555 1_555
C20 C18 1_555 1_555
O3 H11 1_555 1_555
O1E Co1 1_555 1_555
C6E C9 1_555 1_555
C8E C11 1_555 1_555
C3E C6E 1_555 1_555
N5E N4 1_555 1_555
C13E C12 1_555 1_555
H5E C8E 1_555 1_555
O1E_2 C3E 1_555 1_555
O2E C3E 1_555 1_555
H8E C13E 1_555 1_555
C15E C13E 1_555 1_555
Co1_2 O1E_2 1_555 1_555
N3B C15 1_555 1_555
H10E C15E 1_555 1_555
C17E C16 1_555 1_555
C18E C16 1_555 1_555
Co1B N3B 1_555 1_555
C19E C19 1_555 1_555
C20E C20 1_555 1_555
N2_2 C19 1_555 1_555
Co1_3 N2_2 1_555 1_555
H11E O3 1_555 1_555
C5 C7 1_555 1_555
N5 N5E 1_555 1_555
C14 N5E 1_555 1_555
C17 C18 1_555 1_555
C17 C17E 1_555 1_555
C18 C18E 1_555 1_555
C19 C20 1_555 1_555
C20 N2_2 1_555 1_555
C6E C8E 1_555 1_555
C15E N3B 1_555 1_555
C17E C18E 1_555 1_555
C17E C19E 1_555 1_555
C18E C20E 1_555 1_555
C19E C20E 1_555 1_555
C19E N2_2 1_555 1_555
C20E N2_2 1_555 1_555

#END
