
#######################################################################
#
#                 Cambridge Crystallographic Data Centre
#                                CCDC 
#
#######################################################################
#
# If this CIF has been generated from an entry in the Cambridge 
# Structural Database, then it will include bibliographic, chemical, 
# crystal, experimental, refinement or atomic coordinate data resulting 
# from the CCDC's data processing and validation procedures.
#
#######################################################################

data_EXOZIB
_chemical_formula_moiety         '(C24 H34 Cu3 N6 O23)n'
_symmetry_cell_setting           monoclinic
_symmetry_space_group_name_H-M   'C 2/m'
_symmetry_Int_Tables_number      12
_space_group_name_Hall           '-C 2y'
loop_
_symmetry_equiv_pos_site_id
_symmetry_equiv_pos_as_xyz
1 x,y,z
2 -x,y,-z
3 1/2+x,1/2+y,z
4 1/2-x,1/2+y,-z
5 -x,-y,-z
6 x,-y,z
7 1/2-x,1/2-y,-z
8 1/2+x,1/2-y,z
_cell_length_a                   23.65(3)
_cell_length_b                   11.709(16)
_cell_length_c                   12.626(17)
_cell_angle_alpha                90
_cell_angle_beta                 105.079(17)
_cell_angle_gamma                90
_cell_volume                     3375.98
loop_
_atom_site_label
_atom_site_type_symbol
_atom_site_fract_x
_atom_site_fract_y
_atom_site_fract_z
Cu1 Cu 0.01353(3) 0.0000 0.90544(6)
Cu2 Cu 0.0000 0.0000 0.5000
O1 O 0.02711(17) 0.0000 0.7474(4)
O2 O 0.0718(2) 0.0000 0.6144(4)
O3 O 0.42989(13) 0.3806(3) 1.0258(3)
O4 O 0.45223(13) 0.3819(3) 0.8666(3)
O5 O 0.23986(14) 0.1935(3) 0.8338(4)
O6 O 0.3977(2) 0.0000 1.0276(5)
N1 N 0.23850(18) 0.0000 0.8288(5)
N2 N 0.31917(14) 0.1000(3) 0.9352(3)
C1 C 0.0730(3) 0.0000 0.7133(6)
C2 C 0.1317(2) 0.0000 0.7967(5)
H1 H 0.1345 0.0670 0.8431
C3 C 0.1819(2) 0.0000 0.7446(5)
H2 H 0.1795 -0.0670 0.6985
C4 C 0.26391(17) 0.1046(4) 0.8636(4)
C5 C 0.3486(2) -0.0000 0.9709(6)
C6 C 0.3495(2) 0.2086(4) 0.9713(4)
H3 H 0.3758 0.1992 1.0438
H4 H 0.3209 0.2667 0.9759
C7 C 0.3837(2) 0.2465(4) 0.8921(4)
H5 H 0.3562 0.2679 0.8236
H6 H 0.4061 0.1820 0.8770
C8 C 0.42502(17) 0.3451(4) 0.9305(4)
O10 O 0.0000 0.1627(10) 0.5000
Cu1A Cu -0.01353(3) 0.0000 0.09456(6)
Cu1C Cu 0.48647(3) 0.5000 1.09456(6)
Cu1B Cu 0.51353(3) 0.5000 0.90544(6)
Cu1C_2 Cu 0.48647(3) -0.5000 1.09456(6)
Cu1B_2 Cu 0.51353(3) -0.5000 0.90544(6)
Cu1B_3 Cu -0.48647(3) 0.5000 -0.09456(6)
Cu1C_3 Cu -0.51353(3) 0.5000 0.09456(6)
Cu1B_4 Cu -0.48647(3) -0.5000 -0.09456(6)
Cu1C_4 Cu -0.51353(3) -0.5000 0.09456(6)
O1A O -0.02711(17) 0.0000 0.2526(4)
O2A O -0.0718(2) 0.0000 0.3856(4)
O3E O 0.42989(13) -0.3806(3) 1.0258(3)
O3A O -0.42989(13) 0.3806(3) -0.0258(3)
O3D O -0.42989(13) -0.3806(3) -0.0258(3)
O3C O 0.07011(13) -0.1194(3) 0.9742(3)
O3F O 0.07011(13) 0.1194(3) 0.9742(3)
O3B O -0.07011(13) -0.1194(3) 0.0258(3)
O3G O -0.07011(13) 0.1194(3) 0.0258(3)
O4E O 0.45223(13) -0.3819(3) 0.8666(3)
O4A O -0.45223(13) 0.3819(3) 0.1334(3)
O4D O -0.45223(13) -0.3819(3) 0.1334(3)
O4B O -0.04777(13) -0.1181(3) 0.8666(3)
O4G O -0.04777(13) 0.1181(3) 0.8666(3)
O4C O 0.04777(13) -0.1181(3) 0.1334(3)
O4F O 0.04777(13) 0.1181(3) 0.1334(3)
O5E O 0.23986(14) -0.1935(3) 0.8338(4)
O5A O -0.23986(14) 0.1935(3) 0.1662(4)
O5D O -0.23986(14) -0.1935(3) 0.1662(4)
O6A O -0.3977(2) 0.0000 -0.0276(5)
N1A N -0.23850(18) 0.0000 0.1712(5)
N2E N 0.31917(14) -0.1000(3) 0.9352(3)
N2A N -0.31917(14) 0.1000(3) 0.0648(3)
N2D N -0.31917(14) -0.1000(3) 0.0648(3)
C1A C -0.0730(3) -0.0000 0.2867(6)
C2A C -0.1317(2) 0.0000 0.2033(5)
H1E H 0.1345 -0.0670 0.8431
H1A H -0.1345 0.0670 0.1569
H1D H -0.1345 -0.0670 0.1569
C3A C -0.1819(2) 0.0000 0.2554(5)
H2E H 0.1795 0.0670 0.6985
H2A H -0.1795 -0.0670 0.3015
H2D H -0.1795 0.0670 0.3015
C4E C 0.26391(17) -0.1046(4) 0.8636(4)
C4A C -0.26391(17) 0.1046(4) 0.1364(4)
C4D C -0.26391(17) -0.1046(4) 0.1364(4)
C5A C -0.3486(2) 0.0000 0.0291(6)
C6E C 0.3495(2) -0.2086(4) 0.9713(4)
C6A C -0.3495(2) 0.2086(4) 0.0287(4)
C6D C -0.3495(2) -0.2086(4) 0.0287(4)
H3E H 0.3758 -0.1992 1.0438
H3A H -0.3758 0.1992 -0.0438
H3D H -0.3758 -0.1992 -0.0438
H4E H 0.3209 -0.2667 0.9759
H4A H -0.3209 0.2667 0.0241
H4D H -0.3209 -0.2667 0.0241
C7E C 0.3837(2) -0.2465(4) 0.8921(4)
C7A C -0.3837(2) 0.2465(4) 0.1079(4)
C7D C -0.3837(2) -0.2465(4) 0.1079(4)
H5E H 0.3562 -0.2679 0.8236
H5A H -0.3562 0.2679 0.1764
H5D H -0.3562 -0.2679 0.1764
H6E H 0.4061 -0.1820 0.8770
H6A H -0.4061 0.1820 0.1230
H6D H -0.4061 -0.1820 0.1230
C8E C 0.42502(17) -0.3451(4) 0.9305(4)
C8A C -0.42502(17) 0.3451(4) 0.0695(4)
C8D C -0.42502(17) -0.3451(4) 0.0695(4)
O10D O -0.0000 -0.1627(10) 0.5000
O7 O 0.3351(10) -0.0000 0.6867(18)
O8 O 0.2657(8) 0.5000 0.8505(16)
O9 O 0.5090(9) 0.2166(17) 0.7261(15)
loop_
_geom_bond_atom_site_label_1
_geom_bond_atom_site_label_2
_geom_bond_site_symmetry_1
_geom_bond_site_symmetry_2
Cu1 O1 1_555 1_555
Cu2 O2 1_555 1_555
O1 C1 1_555 1_555
O2 C1 1_555 1_555
O3 C8 1_555 1_555
O4 C8 1_555 1_555
O5 C4 1_555 1_555
O6 C5 1_555 1_555
N1 C3 1_555 1_555
N2 C4 1_555 1_555
C1 C2 1_555 1_555
C2 H1 1_555 1_555
C3 C2 1_555 1_555
H2 C3 1_555 1_555
C4 N1 1_555 1_555
C5 N2 1_555 1_555
C6 N2 1_555 1_555
H3 C6 1_555 1_555
H4 C6 1_555 1_555
C7 C6 1_555 1_555
H5 C7 1_555 1_555
H6 C7 1_555 1_555
C8 C7 1_555 1_555
O10 Cu2 1_555 1_555
Cu1A O1A 1_555 1_555
Cu1C O3 1_555 1_555
Cu1B O4 1_555 1_555
Cu1C_2 O3E 1_555 1_555
Cu1B_2 O4E 1_555 1_555
Cu1B_3 O3A 1_555 1_555
Cu1C_3 O4A 1_555 1_555
Cu1B_4 O3D 1_555 1_555
Cu1C_4 O4D 1_555 1_555
O1A C1A 1_555 1_555
O2A Cu2 1_555 1_555
O3E C8E 1_555 1_555
O3A C8A 1_555 1_555
O3D C8D 1_555 1_555
O3C Cu1 1_555 1_555
O3F Cu1 1_555 1_555
O3B Cu1A 1_555 1_555
O3G Cu1A 1_555 1_555
O4E C8E 1_555 1_555
O4A C8A 1_555 1_555
O4D C8D 1_555 1_555
O4B Cu1 1_555 1_555
O4G Cu1 1_555 1_555
O4C Cu1A 1_555 1_555
O4F Cu1A 1_555 1_555
O5E C4E 1_555 1_555
O5A C4A 1_555 1_555
O5D C4D 1_555 1_555
O6A C5A 1_555 1_555
N1A C3A 1_555 1_555
N2E C5 1_555 1_555
N2A C4A 1_555 1_555
N2D C4D 1_555 1_555
C1A O2A 1_555 1_555
C2A C1A 1_555 1_555
H1E C2 1_555 1_555
H1A C2A 1_555 1_555
H1D C2A 1_555 1_555
C3A C2A 1_555 1_555
H2E C3 1_555 1_555
H2A C3A 1_555 1_555
H2D C3A 1_555 1_555
C4E N1 1_555 1_555
C4A N1A 1_555 1_555
C4D N1A 1_555 1_555
C5A N2A 1_555 1_555
C6E N2E 1_555 1_555
C6A N2A 1_555 1_555
C6D N2D 1_555 1_555
H3E C6E 1_555 1_555
H3A C6A 1_555 1_555
H3D C6D 1_555 1_555
H4E C6E 1_555 1_555
H4A C6A 1_555 1_555
H4D C6D 1_555 1_555
C7E C6E 1_555 1_555
C7A C6A 1_555 1_555
C7D C6D 1_555 1_555
H5E C7E 1_555 1_555
H5A C7A 1_555 1_555
H5D C7D 1_555 1_555
H6E C7E 1_555 1_555
H6A C7A 1_555 1_555
H6D C7D 1_555 1_555
C8E C7E 1_555 1_555
C8A C7A 1_555 1_555
C8D C7D 1_555 1_555
O10D Cu2 1_555 1_555
N2E C4E 1_555 1_555
N2D C5A 1_555 1_555

#END
