
#######################################################################
#
#                 Cambridge Crystallographic Data Centre
#                                CCDC 
#
#######################################################################
#
# If this CIF has been generated from an entry in the Cambridge 
# Structural Database, then it will include bibliographic, chemical, 
# crystal, experimental, refinement or atomic coordinate data resulting 
# from the CCDC's data processing and validation procedures.
#
#######################################################################

data_OLOMUZ
_chemical_formula_moiety         '(C48 H44 Ag8 Ca1 N8 O23 S8)n'
_symmetry_cell_setting           rhombohedral
_symmetry_space_group_name_H-M   'R -3 c'
_symmetry_Int_Tables_number      167
_space_group_name_Hall           '-R 3 2"c'
loop_
_symmetry_equiv_pos_site_id
_symmetry_equiv_pos_as_xyz
1 x,y,z
2 -y,x-y,z
3 -x+y,-x,z
4 x-y,-y,1/2-z
5 -x,-x+y,1/2-z
6 y,x,1/2-z
7 2/3+x,1/3+y,1/3+z
8 2/3-y,1/3+x-y,1/3+z
9 2/3-x+y,1/3-x,1/3+z
10 2/3+x-y,1/3-y,5/6-z
11 2/3-x,1/3-x+y,5/6-z
12 2/3+y,1/3+x,5/6-z
13 1/3+x,2/3+y,2/3+z
14 1/3-y,2/3+x-y,2/3+z
15 1/3-x+y,2/3-x,2/3+z
16 1/3+x-y,2/3-y,1/6-z
17 1/3-x,2/3-x+y,1/6-z
18 1/3+y,2/3+x,1/6-z
19 -x,-y,-z
20 y,-x+y,-z
21 x-y,x,-z
22 -x+y,y,1/2+z
23 x,x-y,1/2+z
24 -y,-x,1/2+z
25 1/3-x,2/3-y,2/3-z
26 1/3+y,2/3-x+y,2/3-z
27 1/3+x-y,2/3+x,2/3-z
28 1/3-x+y,2/3+y,1/6+z
29 1/3+x,2/3+x-y,1/6+z
30 1/3-y,2/3-x,1/6+z
31 2/3-x,1/3-y,1/3-z
32 2/3+y,1/3-x+y,1/3-z
33 2/3+x-y,1/3+x,1/3-z
34 2/3-x+y,1/3+y,5/6+z
35 2/3+x,1/3+x-y,5/6+z
36 2/3-y,1/3-x,5/6+z
_cell_length_a                   21.8815(6)
_cell_length_b                   21.8815(6)
_cell_length_c                   75.310(4)
_cell_angle_alpha                90
_cell_angle_beta                 90
_cell_angle_gamma                120
_cell_volume                     31227.5
loop_
_atom_site_label
_atom_site_type_symbol
_atom_site_fract_x
_atom_site_fract_y
_atom_site_fract_z
Ag1 Ag 0.43243(4) -0.25956(3) 1.005468(8)
Ca1 Ca 0.63054(11) -0.13250(14) 0.90621(3)
S1 S 0.45857(11) -0.24186(10) 0.96130(2)
N1 N 0.5342(4) -0.1845(3) 0.99093(8)
O1 O 0.5813(4) -0.1084(4) 0.93484(9)
O2 O 0.6288(5) -0.1740(5) 0.93689(9)
O3 O 0.5307(5) -0.2393(5) 0.89821(11)
O4 O 0.7254(5) -0.0166(6) 0.91313(11)
O5 O 0.7053(7) -0.1823(9) 0.90602(14)
C1 C 0.5354(4) -0.1847(4) 0.97354(9)
C2 C 0.5981(4) -0.1406(4) 0.96350(11)
C3 C 0.6592(5) -0.0949(5) 0.97324(13)
H1 H 0.7009 -0.0641 0.9674
C4 C 0.6560(5) -0.0967(4) 0.99155(12)
H2 H 0.6961 -0.0681 0.9982
C5 C 0.5929(5) -0.1412(4) 0.99986(12)
H3 H 0.5912 -0.1411 1.0122
C6 C 0.6031(5) -0.1406(5) 0.94375(12)
Ag2 Ag 0.40566(4) -0.35943(3) 0.975840(8)
S2 S 0.42580(16) -0.36471(11) 1.01944(3)
N2 N 0.4822(5) -0.3860(3) 0.99019(8)
O6 O 0.5525(6) -0.4395(4) 1.04434(9)
O7 O 0.5398(7) -0.3473(5) 1.04596(11)
C7 C 0.5379(9) -0.3988(7) 1.03763(15)
C8 C 0.5280(7) -0.4040(5) 1.01737(11)
C9 C 0.4829(6) -0.3857(4) 1.00781(9)
C10 C 0.5239(7) -0.4037(5) 0.98141(12)
H4 H 0.5216 -0.4048 0.9690
C11 C 0.5699(7) -0.4204(5) 0.98936(13)
H5 H 0.5997 -0.4302 0.9826
C12 C 0.5706(7) -0.4219(5) 1.00726(13)
H6 H 0.5997 -0.4352 1.0130
Ag1B Ag 0.30801(5) -0.43243(4) 1.005468(8)
Ca1K Ca 0.53417(14) -0.03613(11) 0.92712(3)
Ca1AA Ca 0.57029(18) -0.46583(14) 1.07288(3)
S1B S 0.29957(15) -0.45857(11) 0.96130(2)
O1K O 0.5583(4) -0.0854(4) 0.89849(9)
Ag2A Ag 0.35943(3) -0.23491(5) 0.975840(8)
S2A S 0.36471(11) -0.20949(19) 1.01944(3)
O6GA O 0.6747(7) -0.1062(4) 0.87767(9)
Ag3 Ag 0.90004(6) -0.07247(6) 0.985249(14)
S3 S 0.9101(2) 0.0335(2) 0.97111(5)
N3 N 0.8520(5) 0.0544(5) 1.00011(16)
O8 O 0.7918(6) 0.0156(8) 0.94430(16)
O9 O 0.8389(11) 0.1318(9) 0.9443(2)
C13 C 0.8100(7) 0.0724(7) 1.0090(3)
H7 H 0.8114 0.0726 1.0213
C14 C 0.7657(7) 0.0902(7) 1.0009(2)
H8 H 0.7343 0.0985 1.0073
C15 C 0.7700(8) 0.0955(7) 0.9824(4)
H9 H 0.7440 0.1120 0.9764
C16 C 0.8124(7) 0.0764(7) 0.9728(2)
C17 C 0.8555(6) 0.0558(6) 0.9829(2)
C18 C 0.8096(9) 0.0731(10) 0.9523(3)
Ag3A Ag 1.07247(6) -0.02749(8) 0.985249(14)
S3A S 0.9665(2) -0.1234(3) 0.97111(5)
N3A N 0.9456(5) -0.2024(7) 1.00011(16)
O8A O 0.9844(8) -0.2238(10) 0.94430(16)
O9A O 0.8682(9) -0.2929(14) 0.9443(2)
C13A C 0.9276(7) -0.2624(10) 1.0090(3)
H7A H 0.9274 -0.2612 1.0213
C14A C 0.9098(7) -0.3245(10) 1.0009(2)
H8A H 0.9015 -0.3642 1.0073
C15A C 0.9045(7) -0.3255(11) 0.9824(4)
H9A H 0.8880 -0.3680 0.9764
C16A C 0.9236(7) -0.2640(10) 0.9728(2)
C17A C 0.9442(6) -0.2003(8) 0.9829(2)
C18A C 0.9269(10) -0.2635(13) 0.9523(3)
Ag3B Ag 1.02749(8) 0.09996(6) 0.985249(14)
S3B S 1.1234(3) 0.0899(2) 0.97111(5)
N3B N 1.2024(7) 0.1480(5) 1.00011(16)
O8B O 1.2238(10) 0.2082(6) 0.94430(16)
O9B O 1.2929(14) 0.1611(11) 0.9443(2)
C13B C 1.2624(10) 0.1900(7) 1.0090(3)
H7B H 1.2612 0.1886 1.0213
C14B C 1.3245(10) 0.2343(7) 1.0009(2)
H8B H 1.3642 0.2657 1.0073
C15B C 1.3255(11) 0.2300(8) 0.9824(4)
H9B H 1.3680 0.2560 0.9764
C16B C 1.2640(10) 0.1876(7) 0.9728(2)
C17B C 1.2003(8) 0.1445(6) 0.9829(2)
C18B C 1.2635(13) 0.1904(9) 0.9523(3)
Ag3S Ag 0.92753(6) 0.02749(8) 1.014751(14)
S3S S 1.0335(2) 0.1234(3) 1.02889(5)
N3S N 1.0544(5) 0.2024(7) 0.99989(16)
O8S O 1.0156(8) 0.2238(10) 1.05570(16)
O9S O 1.1318(9) 0.2929(14) 1.0557(2)
C13S C 1.0724(7) 0.2624(10) 0.9910(3)
H7S H 1.0726 0.2612 0.9787
C14S C 1.0902(7) 0.3245(10) 0.9991(2)
H8S H 1.0985 0.3642 0.9927
C15S C 1.0955(7) 0.3255(11) 1.0176(4)
H9S H 1.1120 0.3680 1.0236
C16S C 1.0764(7) 0.2640(10) 1.0272(2)
C17S C 1.0558(6) 0.2003(8) 1.0171(2)
C18S C 1.0731(10) 0.2635(13) 1.0477(3)
Ag3T Ag 0.97251(8) -0.09996(6) 1.014751(14)
S3T S 0.8766(3) -0.0899(2) 1.02889(5)
N3T N 0.7976(7) -0.1480(5) 0.99989(16)
O8T O 0.7762(10) -0.2082(6) 1.05570(16)
O9T O 0.7071(14) -0.1611(11) 1.0557(2)
C13T C 0.7376(10) -0.1900(7) 0.9910(3)
H7T H 0.7388 -0.1886 0.9787
C14T C 0.6755(10) -0.2343(7) 0.9991(2)
H8T H 0.6358 -0.2657 0.9927
C15T C 0.6745(11) -0.2300(8) 1.0176(4)
H9T H 0.6320 -0.2560 1.0236
C16T C 0.7360(10) -0.1876(7) 1.0272(2)
C17T C 0.7997(8) -0.1445(6) 1.0171(2)
C18T C 0.7365(13) -0.1904(9) 1.0477(3)
Ag3R Ag 1.09996(6) 0.07247(6) 1.014751(14)
S3R S 1.0899(2) -0.0335(2) 1.02889(5)
N3R N 1.1480(5) -0.0544(5) 0.99989(16)
O8R O 1.2082(6) -0.0156(8) 1.05570(16)
O9R O 1.1611(11) -0.1318(9) 1.0557(2)
C13R C 1.1900(7) -0.0724(7) 0.9910(3)
H7R H 1.1886 -0.0726 0.9787
C14R C 1.2343(7) -0.0902(7) 0.9991(2)
H8R H 1.2657 -0.0985 0.9927
C15R C 1.2300(8) -0.0955(7) 1.0176(4)
H9R H 1.2560 -0.1120 1.0236
C16R C 1.1876(7) -0.0764(7) 1.0272(2)
C17R C 1.1445(6) -0.0558(6) 1.0171(2)
C18R C 1.1904(9) -0.0731(10) 1.0477(3)
O10 O 0.3333 -0.3333 1.0513(5)
O11 O 0.5702(14) -0.3175(8) 0.9374(3)
O12 O 0.810(2) -0.1823(15) 0.8774(2)
O13 O 0.7780(10) -0.1264(15) 0.9443(4)
loop_
_geom_bond_atom_site_label_1
_geom_bond_atom_site_label_2
_geom_bond_site_symmetry_1
_geom_bond_site_symmetry_2
Ag1 N1 1_555 1_555
Ca1 O1 1_555 1_555
S1 C1 1_555 1_555
N1 C1 1_555 1_555
O1 C6 1_555 1_555
O2 Ca1 1_555 1_555
O3 Ca1 1_555 1_555
O4 Ca1 1_555 1_555
O5 Ca1 1_555 1_555
C1 C2 1_555 1_555
C2 C3 1_555 1_555
C3 H1 1_555 1_555
C4 C3 1_555 1_555
H2 C4 1_555 1_555
C5 N1 1_555 1_555
H3 C5 1_555 1_555
C6 O2 1_555 1_555
Ag2 S1 1_555 1_555
S2 Ag1 1_555 1_555
N2 Ag2 1_555 1_555
O6 C7 1_555 1_555
O7 C7 1_555 1_555
C7 C8 1_555 1_555
C8 C9 1_555 1_555
C9 S2 1_555 1_555
C10 N2 1_555 1_555
H4 C10 1_555 1_555
C11 C10 1_555 1_555
H5 C11 1_555 1_555
C12 C8 1_555 1_555
H6 C12 1_555 1_555
Ag3 S3 1_555 1_555
S3 C17 1_555 1_555
N3 C13 1_555 1_555
O8 C18 1_555 1_555
O9 C18 1_555 1_555
C13 H7 1_555 1_555
C14 C13 1_555 1_555
H8 C14 1_555 1_555
C15 C14 1_555 1_555
H9 C15 1_555 1_555
C16 C15 1_555 1_555
C17 N3 1_555 1_555
C18 C16 1_555 1_555
Ag1B S2 1_555 1_555
Ca1K O1 1_555 1_555
Ca1AA O6 1_555 1_555
S1B Ag2 1_555 1_555
O1K Ca1 1_555 1_555
Ag2A S1 1_555 1_555
S2A Ag1 1_555 1_555
O6GA Ca1 1_555 1_555
Ag3A S3A 1_555 1_555
S3A Ag3 1_555 1_555
N3A C13A 1_555 1_555
O8A C18A 1_555 1_555
O9A C18A 1_555 1_555
C13A H7A 1_555 1_555
C14A C13A 1_555 1_555
H8A C14A 1_555 1_555
C15A C14A 1_555 1_555
H9A C15A 1_555 1_555
C16A C15A 1_555 1_555
C17A S3A 1_555 1_555
C18A C16A 1_555 1_555
Ag3B S3 1_555 1_555
S3B Ag3A 1_555 1_555
N3B C13B 1_555 1_555
O8B C18B 1_555 1_555
O9B C18B 1_555 1_555
C13B H7B 1_555 1_555
C14B C13B 1_555 1_555
H8B C14B 1_555 1_555
C15B C14B 1_555 1_555
H9B C15B 1_555 1_555
C16B C15B 1_555 1_555
C17B S3B 1_555 1_555
C18B C16B 1_555 1_555
Ag3S N3 1_555 1_555
S3S Ag3S 1_555 1_555
N3S Ag3B 1_555 1_555
O8S C18S 1_555 1_555
O9S C18S 1_555 1_555
C13S N3S 1_555 1_555
H7S C13S 1_555 1_555
C14S C13S 1_555 1_555
H8S C14S 1_555 1_555
C15S C14S 1_555 1_555
H9S C15S 1_555 1_555
C16S C15S 1_555 1_555
C17S S3S 1_555 1_555
C18S C16S 1_555 1_555
Ag3T N3A 1_555 1_555
S3T Ag3S 1_555 1_555
N3T Ag3 1_555 1_555
O8T C18T 1_555 1_555
O9T C18T 1_555 1_555
C13T N3T 1_555 1_555
H7T C13T 1_555 1_555
C14T C13T 1_555 1_555
H8T C14T 1_555 1_555
C15T C14T 1_555 1_555
H9T C15T 1_555 1_555
C16T C15T 1_555 1_555
C17T S3T 1_555 1_555
C18T C16T 1_555 1_555
Ag3R N3B 1_555 1_555
S3R Ag3T 1_555 1_555
N3R Ag3A 1_555 1_555
O8R C18R 1_555 1_555
O9R C18R 1_555 1_555
C13R N3R 1_555 1_555
H7R C13R 1_555 1_555
C14R C13R 1_555 1_555
H8R C14R 1_555 1_555
C15R C14R 1_555 1_555
H9R C15R 1_555 1_555
C16R C15R 1_555 1_555
C17R S3R 1_555 1_555
C18R C16R 1_555 1_555
C2 C6 1_555 1_555
C4 C5 1_555 1_555
N2 C9 1_555 1_555
C11 C12 1_555 1_555
C16 C17 1_555 1_555
Ca1K O1K 1_555 1_555
N3A C17A 1_555 1_555
C16A C17A 1_555 1_555
Ag3B S3B 1_555 1_555
N3B C17B 1_555 1_555
C16B C17B 1_555 1_555
S3S Ag3R 1_555 1_555
N3S C17S 1_555 1_555
C16S C17S 1_555 1_555
Ag3T S3T 1_555 1_555
N3T C17T 1_555 1_555
C16T C17T 1_555 1_555
Ag3R S3R 1_555 1_555
N3R C17R 1_555 1_555
C16R C17R 1_555 1_555

#END
