
#######################################################################
#
#                 Cambridge Crystallographic Data Centre
#                                CCDC 
#
#######################################################################
#
# If this CIF has been generated from an entry in the Cambridge 
# Structural Database, then it will include bibliographic, chemical, 
# crystal, experimental, refinement or atomic coordinate data resulting 
# from the CCDC's data processing and validation procedures.
#
#######################################################################

data_INALOA
_chemical_formula_moiety         '(C24 H28 Cu2 N2 O8)n'
_symmetry_cell_setting           monoclinic
_symmetry_space_group_name_H-M   'C 2/c'
_symmetry_Int_Tables_number      15
_space_group_name_Hall           '-C 2yc'
loop_
_symmetry_equiv_pos_site_id
_symmetry_equiv_pos_as_xyz
1 x,y,z
2 -x,y,1/2-z
3 1/2+x,1/2+y,z
4 1/2-x,1/2+y,1/2-z
5 -x,-y,-z
6 x,-y,1/2+z
7 1/2-x,1/2-y,-z
8 1/2+x,1/2-y,1/2+z
_cell_length_a                   26.105(5)
_cell_length_b                   12.3990(18)
_cell_length_c                   9.0710(14)
_cell_angle_alpha                90
_cell_angle_beta                 97.138(14)
_cell_angle_gamma                90
_cell_volume                     2913.31
loop_
_atom_site_label
_atom_site_type_symbol
_atom_site_fract_x
_atom_site_fract_y
_atom_site_fract_z
_atom_site_U_iso_or_equiv
_atom_site_thermal_displace_type
Cu1 Cu 0.708533(16) 0.28163(3) 0.91570(4) 0.0354 Uani
O1 O 0.74140(10) 0.42353(19) 0.9462(3) 0.0520 Uani
O2 O 0.82136(12) 0.7983(2) 1.3966(3) 0.0542 Uani
O3 O 0.81220(10) 0.37027(18) 1.0894(3) 0.0486 Uani
N1 N 0.64284(11) 0.3430(2) 0.7688(3) 0.0383 Uani
O4 O 0.75042(11) 0.7462(2) 1.2536(3) 0.0455 Uani
C1 C 0.64720(14) 0.4332(3) 0.6934(4) 0.0456 Uani
H1 H 0.6783 0.4707 0.7080 0.0550 Uiso
C2 C 0.60775(14) 0.4740(3) 0.5944(4) 0.0468 Uani
H2 H 0.6124 0.5379 0.5440 0.0560 Uiso
C3 C 0.56183(14) 0.4208(3) 0.5701(4) 0.0456 Uani
C4 C 0.55720(14) 0.3269(3) 0.6491(4) 0.0499 Uani
H3 H 0.5265 0.2880 0.6369 0.0600 Uiso
C5 C 0.59841(16) 0.2918(3) 0.7461(4) 0.0484 Uani
H4 H 0.5947 0.2284 0.7985 0.0580 Uiso
C6 C 0.51737(15) 0.4629(4) 0.4633(4) 0.0583 Uani
H5 H 0.4973 0.4024 0.4201 0.0700 Uiso
H6 H 0.5309 0.5012 0.3834 0.0700 Uiso
C7 C 0.79601(16) 0.7768(2) 1.2727(4) 0.0412 Uani
C8 C 0.82424(17) 0.7855(3) 1.1384(4) 0.0470 Uani
H7 H 0.7998 0.7790 1.0492 0.0570 Uiso
H8 H 0.8404 0.8559 1.1373 0.0570 Uiso
C9 C 0.86542(17) 0.6980(3) 1.1386(5) 0.0546 Uani
H9 H 0.8919 0.7102 1.2219 0.0660 Uiso
H10 H 0.8816 0.7042 1.0482 0.0660 Uiso
C10 C 0.78425(15) 0.4405(3) 1.0212(3) 0.0408 Uani
C11 C 0.80279(15) 0.5563(3) 1.0258(4) 0.0503 Uani
H11 H 0.7735 0.6029 1.0342 0.0610 Uiso
H12 H 0.8153 0.5726 0.9319 0.0610 Uiso
C12 C 0.84453(15) 0.5837(3) 1.1489(4) 0.0485 Uani
H13 H 0.8311 0.5755 1.2433 0.0590 Uiso
H14 H 0.8727 0.5330 1.1473 0.0590 Uiso
N1D N 0.35716(11) 0.6570(2) 0.2312(3) 0.0383 Uani
C1D C 0.35280(14) 0.5668(3) 0.3066(4) 0.0456 Uani
H1D H 0.3217 0.5293 0.2920 0.0550 Uiso
C2D C 0.39225(14) 0.5260(3) 0.4056(4) 0.0468 Uani
H2D H 0.3876 0.4621 0.4560 0.0560 Uiso
C3D C 0.43817(14) 0.5792(3) 0.4299(4) 0.0456 Uani
C4D C 0.44280(14) 0.6731(3) 0.3509(4) 0.0499 Uani
H3D H 0.4735 0.7120 0.3631 0.0600 Uiso
C5D C 0.40159(16) 0.7082(3) 0.2539(4) 0.0484 Uani
H4D H 0.4053 0.7716 0.2015 0.0580 Uiso
C6D C 0.48263(15) 0.5371(4) 0.5367(4) 0.0583 Uani
H5D H 0.5027 0.5976 0.5799 0.0700 Uiso
H6D H 0.4691 0.4988 0.6166 0.0700 Uiso
Cu1D Cu 0.291467(16) 0.71837(3) 0.08430(4) 0.0354 Uani
O1D O 0.25860(10) 0.57647(19) 0.0538(3) 0.0520 Uani
O2D O 0.17864(12) 0.2017(2) -0.3966(3) 0.0542 Uani
O3D O 0.18780(10) 0.62973(18) -0.0894(3) 0.0486 Uani
O4D O 0.24958(11) 0.2538(2) -0.2536(3) 0.0455 Uani
C7D C 0.20399(16) 0.2232(2) -0.2727(4) 0.0412 Uani
C8D C 0.17576(17) 0.2145(3) -0.1384(4) 0.0470 Uani
H7D H 0.2002 0.2210 -0.0492 0.0570 Uiso
H8D H 0.1596 0.1441 -0.1373 0.0570 Uiso
C9D C 0.13458(17) 0.3020(3) -0.1386(5) 0.0546 Uani
H9D H 0.1081 0.2898 -0.2219 0.0660 Uiso
H10D H 0.1184 0.2958 -0.0482 0.0660 Uiso
C10D C 0.21575(15) 0.5595(3) -0.0212(3) 0.0408 Uani
C11D C 0.19721(15) 0.4437(3) -0.0258(4) 0.0503 Uani
H11D H 0.2265 0.3971 -0.0342 0.0610 Uiso
H12D H 0.1847 0.4274 0.0681 0.0610 Uiso
C12D C 0.15547(15) 0.4163(3) -0.1489(4) 0.0485 Uani
H13D H 0.1689 0.4245 -0.2433 0.0590 Uiso
H14D H 0.1273 0.4670 -0.1473 0.0590 Uiso
Cu1A Cu 0.291467(16) 0.28163(3) -0.41570(4) 0.0354 Uani
Cu1B Cu 0.208533(16) 0.78163(3) -0.08430(4) 0.0354 Uani
Cu1C Cu 0.791467(16) 0.78163(3) 1.58430(4) 0.0354 Uani
Cu1E Cu 0.708533(16) 0.71837(3) 1.41570(4) 0.0354 Uani
Cu1F Cu 0.791467(16) 0.21837(3) 1.08430(4) 0.0354 Uani
Cu1G Cu 0.208533(16) 0.21837(3) -0.58430(4) 0.0354 Uani
O2C O 0.67864(12) 0.2983(2) 1.1034(3) 0.0542 Uani
O2G O 0.32136(12) 0.7017(2) -0.1034(3) 0.0542 Uani
O3B O 0.31220(10) 0.87027(18) 0.0894(3) 0.0486 Uani
O3F O 0.68780(10) 0.12973(18) 0.9106(3) 0.0486 Uani
O4A O 0.24958(11) 0.7462(2) 0.2464(3) 0.0455 Uani
O4E O 0.75042(11) 0.2538(2) 0.7536(3) 0.0455 Uani
loop_
_atom_site_aniso_label
_atom_site_aniso_U_11
_atom_site_aniso_U_22
_atom_site_aniso_U_33
_atom_site_aniso_U_23
_atom_site_aniso_U_13
_atom_site_aniso_U_12
Cu1 0.0392(3) 0.0317(2) 0.0321(2) 0.00065(14) -0.00848(17) 0.00805(16)
O1 0.0556(17) 0.0365(13) 0.0573(15) -0.0012(10) -0.0197(12) 0.0053(12)
O2 0.0559 0.0663 0.0392 -0.0059 0.0007 -0.0253
O3 0.0533 0.0329 0.055 0.0052 -0.0115 0.0049
N1 0.0389(17) 0.0360(14) 0.0378(14) 0.0048(11) -0.0044(11) 0.0105(13)
O4 0.0448 0.052 0.0386 0 0.0003 -0.0117
C1 0.048(2) 0.0410(18) 0.0437(18) 0.0045(14) -0.0101(15) 0.0047(16)
C2 0.052(2) 0.0441(19) 0.0421(18) 0.0105(14) -0.0034(16) 0.0135(17)
C3 0.047(2) 0.051(2) 0.0357(16) -0.0035(14) -0.0071(14) 0.0224(17)
C4 0.036(2) 0.057(2) 0.054(2) 0.0001(17) -0.0053(16) 0.0036(17)
C5 0.044(2) 0.048(2) 0.051(2) 0.0127(15) -0.0026(17) 0.0048(17)
C6 0.053(2) 0.069(3) 0.047(2) -0.0022(18) -0.0175(17) 0.024(2)
C7 0.055 0.0303 0.0371 0.0005 0.0006 -0.0084
C8 0.063 0.0359 0.0433 -0.001 0.0113 -0.0163
C9 0.05 0.052 0.062 -0.0043 0.0076 -0.0118
C10 0.054(2) 0.0309(16) 0.0350(16) -0.0057(13) -0.0038(14) 0.0061(15)
C11 0.063(3) 0.0338(17) 0.050(2) 0.0013(15) -0.0095(17) -0.0033(17)
C12 0.048(2) 0.0415(19) 0.054(2) -0.0048(15) -0.0020(16) 0.0009(17)
N1D 0.0389 0.036 0.0378 0.0048 -0.0044 0.0105
C1D 0.048 0.041 0.0437 0.0045 -0.0101 0.0047
C2D 0.052 0.0441 0.0421 0.0105 -0.0034 0.0135
C3D 0.047 0.051 0.0357 -0.0035 -0.0071 0.0224
C4D 0.036 0.057 0.054 0.0001 -0.0053 0.0036
C5D 0.044 0.048 0.051 0.0127 -0.0026 0.0048
C6D 0.053 0.069 0.047 -0.0022 -0.0175 0.024
Cu1D 0.0392 0.0317 0.0321 0.00065 -0.00848 0.00805
O1D 0.0556 0.0365 0.0573 -0.0012 -0.0197 0.0053
O2D 0.0559 0.0663 0.0392 -0.0059 0.0007 -0.0253
O3D 0.0533 0.0329 0.055 0.0052 -0.0115 0.0049
O4D 0.0448 0.052 0.0386 0 0.0003 -0.0117
C7D 0.055 0.0303 0.0371 0.0005 0.0006 -0.0084
C8D 0.063 0.0359 0.0433 -0.001 0.0113 -0.0163
C9D 0.05 0.052 0.062 -0.0043 0.0076 -0.0118
C10D 0.054 0.0309 0.035 -0.0057 -0.0038 0.0061
C11D 0.063 0.0338 0.05 0.0013 -0.0095 -0.0033
C12D 0.048 0.0415 0.054 -0.0048 -0.002 0.0009
Cu1A 0.0392 0.0317 0.0321 -0.00065 -0.00848 -0.00805
Cu1B 0.0392 0.0317 0.0321 0.00065 -0.00848 0.00805
Cu1C 0.0392 0.0317 0.0321 -0.00065 -0.00848 -0.00805
Cu1E 0.0392 0.0317 0.0321 -0.00065 -0.00848 -0.00805
Cu1F 0.0392 0.0317 0.0321 0.00065 -0.00848 0.00805
Cu1G 0.0392 0.0317 0.0321 -0.00065 -0.00848 -0.00805
O2C 0.0559 0.0663 0.0392 0.0059 0.0007 0.0253
O2G 0.0559 0.0663 0.0392 0.0059 0.0007 0.0253
O3B 0.0533 0.0329 0.055 0.0052 -0.0115 0.0049
O3F 0.0533 0.0329 0.055 0.0052 -0.0115 0.0049
O4A 0.0448 0.052 0.0386 0 0.0003 0.0117
O4E 0.0448 0.052 0.0386 0 0.0003 0.0117
loop_
_geom_bond_atom_site_label_1
_geom_bond_atom_site_label_2
_geom_bond_site_symmetry_1
_geom_bond_site_symmetry_2
Cu1 O1 1_555 1_555
O1 C10 1_555 1_555
O2 C7 1_555 1_555
O3 C10 1_555 1_555
N1 Cu1 1_555 1_555
O4 C7 1_555 1_555
C1 N1 1_555 1_555
H1 C1 1_555 1_555
C2 C1 1_555 1_555
H2 C2 1_555 1_555
C3 C2 1_555 1_555
C4 C3 1_555 1_555
H3 C4 1_555 1_555
C5 N1 1_555 1_555
H4 C5 1_555 1_555
C6 C3 1_555 1_555
H5 C6 1_555 1_555
H6 C6 1_555 1_555
C7 C8 1_555 1_555
C8 H7 1_555 1_555
H8 C8 1_555 1_555
C9 C8 1_555 1_555
H9 C9 1_555 1_555
H10 C9 1_555 1_555
C10 C11 1_555 1_555
C11 H11 1_555 1_555
H12 C11 1_555 1_555
C12 C9 1_555 1_555
H13 C12 1_555 1_555
H14 C12 1_555 1_555
N1D C1D 1_555 1_555
C1D H1D 1_555 1_555
C2D C1D 1_555 1_555
H2D C2D 1_555 1_555
C3D C2D 1_555 1_555
C4D C3D 1_555 1_555
H3D C4D 1_555 1_555
C5D N1D 1_555 1_555
H4D C5D 1_555 1_555
C6D C6 1_555 1_555
H5D C6D 1_555 1_555
H6D C6D 1_555 1_555
Cu1D N1D 1_555 1_555
O1D Cu1D 1_555 1_555
O2D C7D 1_555 1_555
O3D C10D 1_555 1_555
O4D C7D 1_555 1_555
C7D C8D 1_555 1_555
C8D H7D 1_555 1_555
H8D C8D 1_555 1_555
C9D C8D 1_555 1_555
H9D C9D 1_555 1_555
H10D C9D 1_555 1_555
C10D O1D 1_555 1_555
C11D C10D 1_555 1_555
H11D C11D 1_555 1_555
H12D C11D 1_555 1_555
C12D C9D 1_555 1_555
H13D C12D 1_555 1_555
H14D C12D 1_555 1_555
Cu1A O4D 1_555 1_555
Cu1B O3D 1_555 1_555
Cu1C O2 1_555 1_555
Cu1E O4 1_555 1_555
Cu1F O3 1_555 1_555
Cu1G O2D 1_555 1_555
O2C Cu1 1_555 1_555
O2G Cu1D 1_555 1_555
O3B Cu1D 1_555 1_555
O3F Cu1 1_555 1_555
O4A Cu1D 1_555 1_555
O4E Cu1 1_555 1_555
C4 C5 1_555 1_555
C11 C12 1_555 1_555
C3D C6D 1_555 1_555
C4D C5D 1_555 1_555
C11D C12D 1_555 1_555

#END
