
#######################################################################
#
#                 Cambridge Crystallographic Data Centre
#                                CCDC 
#
#######################################################################
#
# If this CIF has been generated from an entry in the Cambridge 
# Structural Database, then it will include bibliographic, chemical, 
# crystal, experimental, refinement or atomic coordinate data resulting 
# from the CCDC's data processing and validation procedures.
#
#######################################################################

data_FIFNUE01
_chemical_formula_moiety         '(C12 H20 Co1 N2 O9)n'
_symmetry_cell_setting           monoclinic
_symmetry_space_group_name_H-M   'C c'
_symmetry_Int_Tables_number      9
_space_group_name_Hall           'C -2yc'
loop_
_symmetry_equiv_pos_site_id
_symmetry_equiv_pos_as_xyz
1 x,y,z
2 x,-y,1/2+z
3 1/2+x,1/2+y,z
4 1/2+x,1/2-y,1/2+z
_cell_length_a                   10.5245(11)
_cell_length_b                   20.292(2)
_cell_length_c                   8.1405(8)
_cell_angle_alpha                90
_cell_angle_beta                 102.250(2)
_cell_angle_gamma                90
_cell_volume                     1698.93
loop_
_atom_site_label
_atom_site_type_symbol
_atom_site_fract_x
_atom_site_fract_y
_atom_site_fract_z
_atom_site_U_iso_or_equiv
_atom_site_thermal_displace_type
Co1 Co 0.45406(13) 0.25374(3) 0.37208(14) 0.0203 Uani
O1 O 0.2962(4) 0.20260(19) 0.2226(5) 0.0296 Uani
O2 O 0.5250(4) 0.2834(2) 0.1625(5) 0.0321 Uani
N1 N 0.3562(5) 0.3469(2) 0.3657(6) 0.0265 Uani
N2 N 0.0511(5) 0.6599(2) 0.3821(6) 0.0289 Uani
C1 C 0.2441(7) 0.3546(3) 0.4202(9) 0.0342 Uani
H1 H 0.2063 0.3165 0.4583 0.0410 Uiso
C2 C 0.4053(7) 0.4024(3) 0.3137(10) 0.0378 Uani
H2 H 0.4834 0.3993 0.2734 0.0450 Uiso
C3 C 0.2340(6) 0.4707(3) 0.3724(8) 0.0274 Uani
C4 C 0.1718(6) 0.5361(3) 0.3790(8) 0.0277 Uani
C5 C -0.0050(6) 0.6041(3) 0.4148(9) 0.0341 Uani
H3 H -0.0886 0.6071 0.4409 0.0410 Uiso
C6 C 0.1824(6) 0.4131(3) 0.4237(8) 0.0340 Uani
H4 H 0.1030 0.4147 0.4616 0.0410 Uiso
C7 C 0.2340(7) 0.5941(3) 0.3458(9) 0.0347 Uani
H5 H 0.3185 0.5927 0.3219 0.0410 Uiso
C8 C 0.0482(6) 0.5428(3) 0.4139(9) 0.0362 Uani
H6 H 0.0015 0.5050 0.4368 0.0430 Uiso
O3 O 0.3927(6) 0.2313(3) 0.5917(8) 0.0369 Uani
C9 C 0.1703(6) 0.6535(3) 0.3485(8) 0.0288 Uani
H7 H 0.2136 0.6924 0.3252 0.0340 Uiso
C10 C 0.3486(7) 0.4636(3) 0.3156(10) 0.0381 Uani
H8 H 0.3882 0.5011 0.2778 0.0460 Uiso
O4 O 0.1174(4) 0.19857(19) 0.0211(5) 0.0295 Uani
C11 C 0.1953(7) 0.2276(2) 0.1349(8) 0.0255 Uani
O5 O 0.5112(6) 0.2884(3) -0.1129(6) 0.0561 Uani
C12 C 0.4877(7) 0.2632(3) 0.0127(9) 0.0330 Uani
H9 H 0.174(5) 0.270(3) 0.144(6) 0.0060 Uiso
H10 H 0.431(7) 0.224(4) 0.011(8) 0.0350 Uiso
H11 H 0.346(8) 0.194(5) 0.599(10) 0.0500 Uiso
H12 H 0.415(7) 0.244(3) 0.649(10) 0.0000 Uiso
Co1B Co -0.04594(13) 0.75374(3) 0.37208(14) 0.0203 Uani
Co1C Co -0.04594(13) 0.24626(3) -0.12792(14) 0.0203 Uani
N2B N 0.5511(5) 0.1599(2) 0.3821(6) 0.0289 Uani
O4C O 0.6174(4) 0.30143(19) 0.5211(5) 0.0295 Uani
O6 O 0.0588(8) 0.0758(4) 0.2294(12) 0.1072 Uani
O7 O 0.3531(6) 0.0922(3) 0.0136(7) 0.0553 Uani
O8 O 0.2452(5) 0.1356(2) 0.6937(6) 0.0469 Uani
O9 O 0.6884(8) 0.4838(3) 0.0187(10) 0.0901 Uani
loop_
_atom_site_aniso_label
_atom_site_aniso_U_11
_atom_site_aniso_U_22
_atom_site_aniso_U_33
_atom_site_aniso_U_23
_atom_site_aniso_U_13
_atom_site_aniso_U_12
Co1 0.0190(3) 0.0198(4) 0.0203(4) -0.0012(3) 0.0000(2) 0.0025(3)
O1 0.026(2) 0.025(2) 0.033(2) -0.0024(17) -0.0047(19) 0.0036(17)
O2 0.035(2) 0.030(2) 0.031(2) -0.0011(17) 0.0063(19) -0.0014(18)
N1 0.024(2) 0.026(2) 0.027(2) -0.0040(19) 0.000(2) 0.0040(19)
N2 0.028(3) 0.027(2) 0.031(3) -0.0011(19) 0.005(2) 0.003(2)
C1 0.034(4) 0.023(3) 0.047(4) 0.001(3) 0.012(3) -0.001(3)
C2 0.036(4) 0.024(3) 0.058(4) 0.003(3) 0.020(3) 0.005(2)
C3 0.031(4) 0.022(3) 0.027(3) -0.002(2) 0.001(3) 0.004(2)
C4 0.027(4) 0.024(3) 0.031(3) -0.001(2) 0.004(3) 0.005(2)
C5 0.025(3) 0.024(3) 0.054(4) 0.003(2) 0.010(3) 0.005(2)
C6 0.029(3) 0.030(3) 0.047(4) 0.003(3) 0.017(3) 0.006(2)
C7 0.030(4) 0.028(3) 0.046(4) 0.009(3) 0.008(3) 0.003(2)
C8 0.031(3) 0.026(3) 0.052(4) 0.004(3) 0.010(3) -0.001(2)
O3 0.048(3) 0.037(3) 0.024(3) -0.005(2) 0.004(2) -0.010(3)
C9 0.026(3) 0.018(3) 0.043(3) 0.002(2) 0.009(3) 0.005(2)
C10 0.038(4) 0.023(3) 0.058(4) 0.005(3) 0.021(3) 0.004(3)
O4 0.027(2) 0.024(2) 0.031(2) -0.0023(16) -0.0083(19) 0.0017(16)
C11 0.023(3) 0.019(2) 0.031(3) 0.000(3) -0.002(2) 0.000(3)
O5 0.074(4) 0.062(3) 0.034(3) -0.005(2) 0.015(2) -0.020(3)
C12 0.040(4) 0.035(3) 0.025(3) -0.001(3) 0.009(3) 0.002(3)
Co1B 0.019 0.0198 0.0203 -0.0012 0 0.0025
Co1C 0.019 0.0198 0.0203 0.0012 0 -0.0025
N2B 0.028 0.027 0.031 -0.0011 0.005 0.003
O4C 0.027 0.024 0.031 0.0023 -0.0083 -0.0017
O6 0.085(6) 0.094(6) 0.134(8) 0.057(5) 0.004(5) -0.031(5)
O7 0.062(4) 0.047(3) 0.058(3) -0.001(2) 0.015(3) 0.011(3)
O8 0.051(3) 0.041(3) 0.051(3) 0.004(2) 0.016(2) -0.003(2)
O9 0.109(6) 0.061(4) 0.093(5) 0.015(4) 0.005(4) -0.010(4)
loop_
_geom_bond_atom_site_label_1
_geom_bond_atom_site_label_2
_geom_bond_site_symmetry_1
_geom_bond_site_symmetry_2
Co1 O1 1_555 1_555
O1 C11 1_555 1_555
O2 Co1 1_555 1_555
N1 Co1 1_555 1_555
N2 C5 1_555 1_555
C1 N1 1_555 1_555
H1 C1 1_555 1_555
C2 N1 1_555 1_555
H2 C2 1_555 1_555
C3 C4 1_555 1_555
C4 C7 1_555 1_555
C5 H3 1_555 1_555
C6 C1 1_555 1_555
H4 C6 1_555 1_555
C7 H5 1_555 1_555
C8 C4 1_555 1_555
H6 C8 1_555 1_555
O3 Co1 1_555 1_555
C9 N2 1_555 1_555
H7 C9 1_555 1_555
C10 C2 1_555 1_555
H8 C10 1_555 1_555
O4 C11 1_555 1_555
C11 H9 1_555 1_555
O5 C12 1_555 1_555
C12 O2 1_555 1_555
H10 C12 1_555 1_555
H11 O3 1_555 1_555
H12 O3 1_555 1_555
Co1B N2 1_555 1_555
Co1C O4 1_555 1_555
N2B Co1 1_555 1_555
O4C Co1 1_555 1_555
C3 C6 1_555 1_555
C3 C10 1_555 1_555
C5 C8 1_555 1_555
C7 C9 1_555 1_555

#END
