
#######################################################################
#
#                 Cambridge Crystallographic Data Centre
#                                CCDC 
#
#######################################################################
#
# If this CIF has been generated from an entry in the Cambridge 
# Structural Database, then it will include bibliographic, chemical, 
# crystal, experimental, refinement or atomic coordinate data resulting 
# from the CCDC's data processing and validation procedures.
#
#######################################################################

data_HUQHEI
_chemical_formula_moiety         '(C91 H63 N7 O13 Zn3)n'
_symmetry_cell_setting           triclinic
_symmetry_space_group_name_H-M   'P -1'
_symmetry_Int_Tables_number      2
_space_group_name_Hall           '-P 1'
loop_
_symmetry_equiv_pos_site_id
_symmetry_equiv_pos_as_xyz
1 x,y,z
2 -x,-y,-z
_cell_length_a                   19.612(4)
_cell_length_b                   20.640(4)
_cell_length_c                   21.567(4)
_cell_angle_alpha                115.922(4)
_cell_angle_beta                 98.944(4)
_cell_angle_gamma                100.421(4)
_cell_volume                     7445.89
loop_
_atom_site_label
_atom_site_type_symbol
_atom_site_fract_x
_atom_site_fract_y
_atom_site_fract_z
C1 C 0.6785(2) -0.71359(18) -0.82761(18)
C2 C 0.67183(17) -0.63941(18) -0.77742(18)
C3 C 0.60432(19) -0.62900(19) -0.7737(2)
H1 H 0.5634 -0.6694 -0.8007
C4 C 0.59758(19) -0.5593(2) -0.7304(2)
H2 H 0.5521 -0.5535 -0.7273
C5 C 0.65733(18) -0.49763(18) -0.69122(19)
C6 C 0.72426(18) -0.50928(18) -0.69401(18)
H3 H 0.7651 -0.4689 -0.6669
C7 C 0.73208(18) -0.57893(17) -0.73580(17)
H4 H 0.7778 -0.5854 -0.7361
C8 C 0.64936(19) -0.42136(19) -0.65020(19)
C9 C 0.5978(2) -0.40897(19) -0.6109(2)
H5 H 0.5696 -0.4485 -0.6081
C10 C 0.6902(2) -0.36122(19) -0.65274(19)
H6 H 0.7248 -0.3684 -0.6781
C11 C 0.61503(16) 0.1004(2) -0.79911(19)
C12 C 0.61891(17) 0.05400(19) -0.76269(18)
C13 C 0.60940(17) -0.02297(19) -0.80083(19)
H7 H 0.6029 -0.0462 -0.8501
C14 C 0.60969(18) -0.0645(2) -0.76566(19)
H8 H 0.6027 -0.1159 -0.7922
C15 C 0.62003(19) -0.0330(2) -0.69155(19)
C16 C 0.62861(19) 0.0452(2) -0.65385(19)
H9 H 0.6345 0.0683 -0.6047
C17 C 0.62842(17) 0.0875(2) -0.68825(19)
H10 H 0.6346 0.1389 -0.6621
C18 C 0.6206(2) -0.0780(2) -0.6550(2)
C19 C 0.5859(2) -0.1540(2) -0.6894(2)
H11 H 0.5626 -0.1776 -0.7379
C20 C 0.5847(2) -0.1958(2) -0.6540(2)
H12 H 0.5598 -0.2465 -0.6787
C21 C 0.6556(2) -0.0460(2) -0.5835(2)
H13 H 0.6801 0.0048 -0.5582
C22 C 0.64884(19) 0.07330(18) -0.02641(19)
C23 C 0.64188(16) 0.02697(17) -0.10479(17)
C24 C 0.57593(17) -0.00121(18) -0.15349(17)
H14 H 0.5354 0.0082 -0.1380
C25 C 0.56978(16) -0.04342(17) -0.22539(18)
H15 H 0.5249 -0.0624 -0.2580
C26 C 0.63012(17) -0.05804(18) -0.24993(18)
C27 C 0.69594(17) -0.02900(18) -0.19959(18)
H16 H 0.7368 -0.0379 -0.2148
C28 C 0.70234(16) 0.01232(17) -0.12843(18)
H17 H 0.7471 0.0307 -0.0956
C29 C 0.62333(18) -0.10018(18) -0.32789(19)
C30 C 0.5761(2) -0.09317(19) -0.37809(19)
H18 H 0.5451 -0.0639 -0.3630
C31 C 0.5738(2) -0.1278(2) -0.4487(2)
H19 H 0.5426 -0.1206 -0.4806
C32 C 0.6177(2) -0.17391(19) -0.4735(2)
C33 C 0.6644(2) -0.18341(19) -0.42458(19)
H20 H 0.6941 -0.2142 -0.4402
C34 C 0.66680(18) -0.14757(18) -0.35350(18)
H21 H 0.6980 -0.1548 -0.3215
C35 C 0.6198(2) -0.1635(2) -0.5825(2)
C36 C 0.6544(2) -0.0899(2) -0.5488(2)
H22 H 0.6784 -0.0671 -0.5006
C37 C 0.6809(2) -0.2914(2) -0.61893(19)
H23 H 0.7087 -0.2521 -0.6223
C38 C 0.5892(2) -0.3381(2) -0.5764(2)
H24 H 0.5551 -0.3302 -0.5505
C39 C 0.43710(17) 0.07527(17) 0.01469(19)
H25 H 0.4534 0.0472 -0.0242
C40 C 0.46082(19) 0.16064(18) 0.13517(19)
H26 H 0.4935 0.1908 0.1798
C41 C 0.3914(2) 0.1594(2) 0.1284(2)
H27 H 0.3767 0.1893 0.1677
C42 C 0.34127(17) 0.1131(2) 0.0622(2)
C43 C 0.36515(18) 0.07072(19) 0.0051(2)
H28 H 0.3329 0.0392 -0.0396
C44 C 0.1662(2) 0.1353(3) 0.0869(2)
C45 C 0.7363(3) 0.2193(3) -0.0360(3)
H29 H 0.7836 0.2169 -0.0321
C46 C 0.6231(4) 0.1991(4) -0.1093(4)
H30 H 0.6129 0.2383 -0.1185
H31 H 0.6106 0.2043 -0.0663
H32 H 0.5954 0.1512 -0.1486
C47 C 0.7272(5) 0.1855(5) -0.1633(4)
H33 H 0.7783 0.1947 -0.1488
H34 H 0.7165 0.2160 -0.1846
H35 H 0.7055 0.1335 -0.1974
C48 C 0.6308(2) -0.2783(2) -0.57982(19)
C49 C 0.0452(2) 0.0947(2) 0.0169(3)
H36 H 0.0104 0.0601 -0.0252
C50 C 0.1156(2) 0.0862(3) 0.0263(3)
H37 H 0.1266 0.0469 -0.0093
C51 C 0.0771(3) 0.1912(4) 0.1277(3)
H38 H 0.0644 0.2268 0.1652
C52 C 0.1451(3) 0.1846(4) 0.1397(3)
H39 H 0.1771 0.2145 0.1848
N1 N 0.48480(13) 0.11968(13) 0.07940(14)
N2 N 0.26440(18) 0.10774(19) 0.04831(19)
N3 N 0.24204(19) 0.1357(2) 0.1007(2)
N4 N 0.02750(16) 0.14921(17) 0.06484(18)
N5 N 0.6985(4) 0.2045(3) -0.1007(3)
N6 N 0.6174(2) -0.20676(16) -0.54732(16)
O1 O 0.62091(12) -0.76288(12) -0.86838(12)
O2 O 0.74063(12) -0.72117(12) -0.82844(12)
O3 O 0.61709(11) 0.06879(12) -0.86518(12)
O4 O 0.71076(13) 0.09930(12) 0.01619(12)
O5 O 0.59171(11) 0.08276(11) -0.00877(11)
O6 O 0.60778(13) 0.16385(13) -0.76815(13)
O7 O 0.71554(15) 0.23567(16) 0.01841(16)
Zn1 Zn 0.764750(19) 0.20250(2) 0.09087(2)
Zn2 Zn 0.591830(19) 0.12918(2) 0.09238(2)
C53 C -0.15013(17) 0.11944(18) -0.85900(18)
C54 C -0.14862(17) 0.07372(18) -0.82143(18)
C55 C -0.0964(2) 0.0367(2) -0.8225(2)
H40 H -0.0623 0.0399 -0.8473
C56 C -0.0944(2) -0.0051(2) -0.7872(2)
H41 H -0.0584 -0.0290 -0.7883
C57 C -0.14397(17) -0.01259(18) -0.75032(19)
C58 C -0.14239(18) -0.05846(18) -0.71451(19)
C59 C -0.0863(2) -0.0871(2) -0.7067(2)
H42 H -0.0483 -0.0773 -0.7252
C60 C -0.1982(2) -0.0753(2) -0.6850(2)
H43 H -0.2376 -0.0568 -0.6886
C61 C -0.0862(2) -0.7045(2) -0.8751(2)
C62 C -0.09436(19) -0.62830(18) -0.8351(2)
C63 C -0.0459(2) -0.5777(2) -0.7714(2)
H44 H -0.0082 -0.5916 -0.7533
C64 C -0.0523(2) -0.50493(19) -0.7327(2)
H45 H -0.0189 -0.4713 -0.6892
C65 C -0.1552(2) -0.53458(18) -0.82290(19)
H46 H -0.1929 -0.5209 -0.8413
C66 C -0.1486(2) -0.60711(19) -0.86108(19)
H47 H -0.1817 -0.6410 -0.9046
C67 C -0.11393(19) -0.40626(18) -0.71680(19)
C68 C -0.08913(18) -0.36451(18) -0.64351(19)
H48 H -0.0669 -0.3850 -0.6181
C69 C -0.0955(2) 0.1139(3) -0.0833(2)
C70 C -0.10410(17) 0.0688(2) -0.1614(2)
C71 C -0.11403(16) -0.0081(2) -0.19271(19)
H49 H -0.1173 -0.0318 -0.1648
C72 C -0.11911(16) -0.04995(18) -0.26402(18)
H50 H -0.1252 -0.1013 -0.2832
C73 C -0.11547(18) -0.01794(18) -0.30774(19)
C74 C -0.1068(2) 0.0595(2) -0.2767(2)
H51 H -0.1055 0.0828 -0.3050
C75 C -0.1000(2) 0.1020(2) -0.2040(2)
H52 H -0.0926 0.1536 -0.1841
C76 C -0.11956(19) -0.06183(18) -0.38386(18)
C77 C -0.15135(18) -0.13974(18) -0.42219(18)
H53 H -0.1695 -0.1643 -0.3984
C78 C -0.15655(19) -0.18104(18) -0.49407(19)
H54 H -0.1788 -0.2324 -0.5180
C79 C -0.12894(19) -0.14661(18) -0.53072(19)
C80 C -0.0969(2) -0.06991(19) -0.49425(19)
H55 H -0.0775 -0.0462 -0.5181
C81 C -0.0936(2) -0.0285(2) -0.4232(2)
H56 H -0.0735 0.0232 -0.4004
C82 C -0.1392(2) -0.14421(18) -0.64399(19)
C83 C -0.0834(2) -0.1304(2) -0.6722(2)
H57 H -0.0445 -0.1496 -0.6683
C84 C -0.1961(2) -0.1176(2) -0.6518(2)
H58 H -0.2344 -0.1284 -0.6340
C85 C -0.1287(2) -0.26056(18) -0.64161(19)
C86 C -0.09625(19) -0.29259(18) -0.6062(2)
H59 H -0.0788 -0.2661 -0.5567
C87 C -0.1474(2) -0.37235(19) -0.75204(19)
H60 H -0.1655 -0.3986 -0.8015
C88 C -0.1539(2) -0.30167(18) -0.71507(19)
H61 H -0.1759 -0.2806 -0.7401
C89 C -0.19817(19) 0.0677(2) -0.7852(2)
H62 H -0.2335 0.0925 -0.7838
C90 C -0.1063(2) -0.48311(18) -0.75809(19)
C91 C -0.1965(2) 0.0249(2) -0.7502(2)
H63 H -0.2313 0.0212 -0.7261
N7 N -0.13594(17) -0.18658(15) -0.60600(15)
O8 O -0.19088(11) 0.16155(12) -0.84759(12)
O9 O -0.14003(12) -0.75756(12) -0.92289(13)
O10 O -0.02711(14) -0.71753(13) -0.86551(15)
O11 O -0.11465(13) 0.08020(15) -0.04942(13)
O12 O -0.10932(14) 0.11106(14) -0.89981(14)
O13 O -0.06802(15) 0.18225(16) -0.05203(15)
Zn3 Zn -0.07367(2) 0.16493(2) 0.05037(2)
O1_2 O 0.62091(12) 0.23712(12) 0.13162(12)
O2_2 O 0.74063(12) 0.27883(12) 0.17156(12)
O3_2 O 0.61709(11) 0.06879(12) 0.13482(12)
Zn1_2 Zn -0.235250(19) -0.79750(2) -0.90913(2)
Zn1_3 Zn -0.235250(19) 0.20250(2) -0.90913(2)
Zn1_4 Zn 0.764750(19) -0.79750(2) -0.90913(2)
Zn2_2 Zn 0.591830(19) -0.87082(2) -0.90762(2)
Zn2_3 Zn 0.591830(19) 0.12918(2) -0.90762(2)
O8_2 O 0.80912(11) 0.16155(12) 0.15241(12)
O9_2 O -0.14003(12) 0.24244(12) 0.07711(13)
O9_3 O 0.85997(12) 0.24244(12) 0.07711(13)
O10_2 O -0.02711(14) 0.28247(13) 0.13449(15)
O12_2 O -0.10932(14) 0.11106(14) 0.10019(14)
Zn3_2 Zn -0.07367(2) -0.83507(2) -0.94963(2)
Zn3_3 Zn -0.07367(2) 0.16493(2) -0.94963(2)
loop_
_geom_bond_atom_site_label_1
_geom_bond_atom_site_label_2
_geom_bond_site_symmetry_1
_geom_bond_site_symmetry_2
C1 C2 1_555 1_555
C2 C3 1_555 1_555
C3 H1 1_555 1_555
C4 C3 1_555 1_555
H2 C4 1_555 1_555
C5 C4 1_555 1_555
C6 C5 1_555 1_555
H3 C6 1_555 1_555
C7 C2 1_555 1_555
H4 C7 1_555 1_555
C8 C5 1_555 1_555
C9 C8 1_555 1_555
H5 C9 1_555 1_555
C10 C8 1_555 1_555
H6 C10 1_555 1_555
C11 C12 1_555 1_555
C12 C13 1_555 1_555
C13 H7 1_555 1_555
C14 C13 1_555 1_555
H8 C14 1_555 1_555
C15 C14 1_555 1_555
C16 C15 1_555 1_555
H9 C16 1_555 1_555
C17 C12 1_555 1_555
H10 C17 1_555 1_555
C18 C15 1_555 1_555
C19 C18 1_555 1_555
H11 C19 1_555 1_555
C20 C19 1_555 1_555
H12 C20 1_555 1_555
C21 C18 1_555 1_555
H13 C21 1_555 1_555
C22 C23 1_555 1_555
C23 C24 1_555 1_555
C24 H14 1_555 1_555
C25 C24 1_555 1_555
H15 C25 1_555 1_555
C26 C25 1_555 1_555
C27 C26 1_555 1_555
H16 C27 1_555 1_555
C28 C23 1_555 1_555
H17 C28 1_555 1_555
C29 C26 1_555 1_555
C30 C29 1_555 1_555
H18 C30 1_555 1_555
C31 C30 1_555 1_555
H19 C31 1_555 1_555
C32 C31 1_555 1_555
C33 C32 1_555 1_555
H20 C33 1_555 1_555
C34 C29 1_555 1_555
H21 C34 1_555 1_555
C35 C20 1_555 1_555
C36 C21 1_555 1_555
H22 C36 1_555 1_555
C37 C10 1_555 1_555
H23 C37 1_555 1_555
C38 C9 1_555 1_555
H24 C38 1_555 1_555
C39 H25 1_555 1_555
C40 H26 1_555 1_555
C41 C40 1_555 1_555
H27 C41 1_555 1_555
C42 C41 1_555 1_555
C43 C39 1_555 1_555
H28 C43 1_555 1_555
C44 C50 1_555 1_555
C45 H29 1_555 1_555
C46 H30 1_555 1_555
H31 C46 1_555 1_555
H32 C46 1_555 1_555
C47 H33 1_555 1_555
H34 C47 1_555 1_555
H35 C47 1_555 1_555
C48 C37 1_555 1_555
C49 H36 1_555 1_555
C50 C49 1_555 1_555
H37 C50 1_555 1_555
C51 H38 1_555 1_555
C52 C44 1_555 1_555
H39 C52 1_555 1_555
N1 C39 1_555 1_555
N2 C42 1_555 1_555
N3 C44 1_555 1_555
N4 C49 1_555 1_555
N5 C45 1_555 1_555
N6 C32 1_555 1_555
O1 C1 1_555 1_555
O2 C1 1_555 1_555
O3 C11 1_555 1_555
O4 C22 1_555 1_555
O5 C22 1_555 1_555
O6 C11 1_555 1_555
O7 C45 1_555 1_555
Zn1 O4 1_555 1_555
Zn2 N1 1_555 1_555
C53 C54 1_555 1_555
C54 C55 1_555 1_555
C55 H40 1_555 1_555
C56 C55 1_555 1_555
H41 C56 1_555 1_555
C57 C56 1_555 1_555
C58 C57 1_555 1_555
C59 C58 1_555 1_555
H42 C59 1_555 1_555
C60 C58 1_555 1_555
H43 C60 1_555 1_555
C61 C62 1_555 1_555
C62 C63 1_555 1_555
C63 H44 1_555 1_555
C64 C63 1_555 1_555
H45 C64 1_555 1_555
C65 H46 1_555 1_555
C66 C62 1_555 1_555
H47 C66 1_555 1_555
C67 C68 1_555 1_555
C68 H48 1_555 1_555
C69 C70 1_555 1_555
C70 C71 1_555 1_555
C71 H49 1_555 1_555
C72 C71 1_555 1_555
H50 C72 1_555 1_555
C73 C72 1_555 1_555
C74 C73 1_555 1_555
H51 C74 1_555 1_555
C75 C70 1_555 1_555
H52 C75 1_555 1_555
C76 C73 1_555 1_555
C77 C76 1_555 1_555
H53 C77 1_555 1_555
C78 C77 1_555 1_555
H54 C78 1_555 1_555
C79 C78 1_555 1_555
C80 C79 1_555 1_555
H55 C80 1_555 1_555
C81 C76 1_555 1_555
H56 C81 1_555 1_555
C82 C83 1_555 1_555
C83 C59 1_555 1_555
H57 C83 1_555 1_555
C84 C60 1_555 1_555
H58 C84 1_555 1_555
C85 C86 1_555 1_555
C86 C68 1_555 1_555
H59 C86 1_555 1_555
C87 C67 1_555 1_555
H60 C87 1_555 1_555
C88 C85 1_555 1_555
H61 C88 1_555 1_555
C89 C54 1_555 1_555
H62 C89 1_555 1_555
C90 C64 1_555 1_555
C91 C57 1_555 1_555
H63 C91 1_555 1_555
N7 C79 1_555 1_555
O8 C53 1_555 1_555
O9 C61 1_555 1_555
O10 C61 1_555 1_555
O11 C69 1_555 1_555
O12 C53 1_555 1_555
O13 C69 1_555 1_555
Zn3 N4 1_555 1_555
O1_2 Zn2 1_555 1_555
O2_2 Zn1 1_555 1_555
O3_2 Zn2 1_555 1_555
Zn1_2 O9 1_555 1_555
Zn1_3 O8 1_555 1_555
Zn1_4 O2 1_555 1_555
Zn2_2 O1 1_555 1_555
Zn2_3 O3 1_555 1_555
O8_2 Zn1 1_555 1_555
O9_2 Zn3 1_555 1_555
O9_3 Zn1 1_555 1_555
O10_2 Zn3 1_555 1_555
O12_2 Zn3 1_555 1_555
Zn3_2 O9 1_555 1_555
Zn3_3 O12 1_555 1_555
C6 C7 1_555 1_555
C16 C17 1_555 1_555
C27 C28 1_555 1_555
C33 C34 1_555 1_555
C35 C36 1_555 1_555
C35 N6 1_555 1_555
C38 C48 1_555 1_555
C40 N1 1_555 1_555
C42 C43 1_555 1_555
C46 N5 1_555 1_555
C47 N5 1_555 1_555
C48 N6 1_555 1_555
C51 C52 1_555 1_555
C51 N4 1_555 1_555
N2 N3 1_555 1_555
O5 Zn2 1_555 1_555
O7 Zn1 1_555 1_555
C65 C66 1_555 1_555
C65 C90 1_555 1_555
C67 C90 1_555 1_555
C74 C75 1_555 1_555
C80 C81 1_555 1_555
C82 C84 1_555 1_555
C82 N7 1_555 1_555
C85 N7 1_555 1_555
C87 C88 1_555 1_555
C89 C91 1_555 1_555
O10 Zn3_2 1_555 1_555
O11 Zn3 1_555 1_555
O13 Zn3 1_555 1_555

#END
