
#######################################################################
#
#                 Cambridge Crystallographic Data Centre
#                                CCDC 
#
#######################################################################
#
# If this CIF has been generated from an entry in the Cambridge 
# Structural Database, then it will include bibliographic, chemical, 
# crystal, experimental, refinement or atomic coordinate data resulting 
# from the CCDC's data processing and validation procedures.
#
#######################################################################

data_HUQHAE
_chemical_formula_moiety         '(C94 H67 N5 O13 Zn3)n'
_symmetry_cell_setting           triclinic
_symmetry_space_group_name_H-M   'P -1'
_symmetry_Int_Tables_number      2
_space_group_name_Hall           '-P 1'
loop_
_symmetry_equiv_pos_site_id
_symmetry_equiv_pos_as_xyz
1 x,y,z
2 -x,-y,-z
_cell_length_a                   19.608(4)
_cell_length_b                   21.133(4)
_cell_length_c                   21.571(4)
_cell_angle_alpha                117.428(3)
_cell_angle_beta                 100.548(4)
_cell_angle_gamma                99.067(3)
_cell_volume                     7493.93
loop_
_atom_site_label
_atom_site_type_symbol
_atom_site_fract_x
_atom_site_fract_y
_atom_site_fract_z
Zn1 Zn 0.59857(5) 0.13165(5) 0.09704(5)
O1 O 0.7158(3) 0.1042(3) 1.0136(3)
O2 O 0.6229(3) -0.7657(3) 0.1341(3)
O3 O 0.5956(2) 0.0800(3) 0.9940(3)
C1 C 0.4662(6) 0.1690(5) 0.1364(5)
H1 H 0.5006 0.2024 0.1826
C2 C 0.6513(5) 0.0684(5) 0.9715(5)
O4 O 0.7448(4) -0.7145(3) 0.1748(3)
O5 O 0.6228(2) 0.0734(3) 0.1408(3)
N1 N 0.0251(4) 0.1592(4) 0.0730(4)
C3 C 0.5600(5) -0.0544(5) 0.7696(6)
H2 H 0.5123 -0.0744 0.7374
C4 C 0.6182(4) -0.0253(5) 0.3125(5)
C5 C 0.6229(4) -0.0653(5) 0.7444(5)
C6 C 0.6965(4) 0.0077(4) 0.8625(5)
H3 H 0.7440 0.0290 0.8953
N2 N 0.5941(4) -0.2119(4) 0.4373(4)
C7 C 0.6303(4) 0.0922(5) 0.3187(5)
H4 H 0.6358 0.1439 0.3471
C8 C 0.6110(5) -0.1055(5) 0.6636(5)
C9 C 0.6101(4) -0.0787(5) 0.3414(5)
C10 C 0.6093(4) -0.0601(5) 0.2326(5)
H5 H 0.6005 -0.1123 0.2036
C11 C 0.6514(4) -0.4946(5) 0.3038(5)
C12 C 0.6679(4) -0.6365(4) 0.2191(5)
O6 O 0.6143(3) 0.1683(3) 0.2390(3)
C13 C 0.6769(4) -0.3631(4) 0.3373(5)
H6 H 0.7105 -0.3722 0.3098
C14 C 0.7180(5) -0.5014(5) 0.3004(4)
H7 H 0.7568 -0.4576 0.3227
C15 C 0.3996(7) 0.1704(6) 0.1298(7)
H8 H 0.3876 0.2073 0.1690
C16 C 0.6428(5) 0.0228(5) 0.8929(5)
C17 C 0.6371(4) -0.0922(5) 0.4474(5)
H9 H 0.6605 -0.0717 0.4978
C18 C 0.5755(4) -0.1543(5) 0.2983(4)
H10 H 0.5538 -0.1765 0.2473
C19 C 0.6575(5) -0.1486(4) 0.6351(5)
H11 H 0.6935 -0.1526 0.6681
C20 C 0.6420(5) -0.4183(5) 0.3440(5)
C21 C 0.5978(4) -0.1805(4) 0.5126(5)
C22 C 0.6111(5) -0.2821(5) 0.4059(4)
N3 N 0.4904(5) 0.1231(4) 0.0817(5)
C23 C 0.6243(4) 0.0614(5) 0.2450(6)
C24 C 0.5737(4) -0.3419(5) 0.4088(5)
H12 H 0.5360 -0.3361 0.4313
C25 C 0.5739(5) -0.1971(5) 0.3332(6)
H13 H 0.5541 -0.2494 0.3041
C26 C 0.6216(4) 0.1062(5) 0.2096(5)
C27 C 0.5768(5) -0.0081(5) 0.8521(5)
H14 H 0.5385 -0.0020 0.8737
C28 C 0.4382(4) 0.0743(5) 0.0175(5)
H15 H 0.4514 0.0396 -0.0222
C29 C 0.6912(4) -0.0347(4) 0.7901(5)
H16 H 0.7323 -0.0421 0.7732
C30 C 0.6409(4) -0.0469(5) 0.4158(6)
H17 H 0.6644 0.0048 0.4452
C31 C 0.6139(4) -0.0164(5) 0.2007(5)
H18 H 0.6102 -0.0378 0.1502
C32 C 0.5989(5) -0.1671(6) 0.4048(6)
C33 C 0.3653(4) 0.0740(6) 0.0086(6)
H19 H 0.3305 0.0425 -0.0378
C34 C 0.5543(4) -0.1041(5) 0.6112(5)
H20 H 0.5208 -0.0772 0.6283
C35 C 0.6778(5) -0.7117(5) 0.1750(5)
C36 C 0.5471(5) -0.1402(5) 0.5374(5)
H21 H 0.5095 -0.1383 0.5040
C37 C 0.6286(4) 0.0503(5) 0.3517(5)
H22 H 0.6347 0.0738 0.4028
C38 C 0.7328(5) -0.5721(5) 0.2645(4)
H23 H 0.7805 -0.5772 0.2695
C39 C 0.6032(4) -0.6283(5) 0.2267(5)
H24 H 0.5629 -0.6709 0.2038
C40 C 0.2609(8) 0.1024(8) 0.0522(7)
H25 H 0.2246 0.0573 0.0184
C41 C 0.5890(4) -0.4082(4) 0.3806(4)
H26 H 0.5642 -0.4472 0.3857
C42 C 0.6660(5) -0.2924(5) 0.3691(5)
H27 H 0.6936 -0.2531 0.3664
C43 C 0.3454(5) 0.1186(7) 0.0661(7)
C44 C 0.5939(5) -0.5568(5) 0.2684(5)
H28 H 0.5472 -0.5521 0.2719
C45 C 0.6539(4) -0.1839(4) 0.5647(5)
H29 H 0.6874 -0.2111 0.5485
C46 C 0.0340(5) 0.0948(6) 0.0558(6)
H30 H -0.0066 0.0550 0.0422
C47 C 0.1032(6) 0.0813(7) 0.0564(6)
H31 H 0.1095 0.0343 0.0467
C48 C 0.0807(6) 0.2248(10) 0.0931(9)
H32 H 0.0706 0.2709 0.1053
C49 C 0.1619(7) 0.1394(11) 0.0717(9)
C50 C 0.2543(9) 0.1570(8) 0.0918(8)
H33 H 0.2904 0.2016 0.1273
C51 C 0.1516(6) 0.2165(14) 0.0937(11)
H34 H 0.1910 0.2573 0.1072
Zn2 Zn 0.76627(5) 0.20753(5) 1.09345(5)
Zn3 Zn 0.92080(5) 0.17003(5) 1.05586(5)
O7 O 0.8100(2) 0.1677(3) 1.1560(3)
O8 O 0.8857(3) 0.1084(3) 1.0961(3)
O9 O 0.7051(3) 0.2391(3) 1.0220(4)
N4 N 0.8559(3) -0.1825(4) 1.3857(4)
O10 O 0.8826(3) 0.0920(3) 1.9532(3)
C52 C 0.8435(4) -0.0144(4) 1.2379(4)
O11 O 0.8572(3) -0.7551(3) 1.0799(3)
C53 C 0.8428(5) 0.1151(5) 1.1353(5)
C54 C 0.8058(4) 0.0362(4) 1.2562(5)
H35 H 0.7821 0.0440 1.2928
C55 C 0.9045(4) -0.6200(5) 1.1746(5)
C56 C 0.8899(4) -0.0043(5) 1.6922(5)
O12 O 0.9736(3) -0.7092(3) 1.1537(4)
C57 C 0.8437(4) 0.0702(4) 1.1700(4)
C58 C 0.8535(4) -0.1434(5) 1.3471(5)
C59 C 0.8482(4) -0.0597(5) 1.2771(4)
C60 C 0.8620(5) -0.2547(5) 1.3518(5)
C61 C 0.8869(5) -0.4787(5) 1.2428(5)
C62 C 0.8776(4) -0.3999(5) 1.2832(6)
C63 C 0.8225(5) -0.1707(5) 1.4947(5)
H36 H 0.7897 -0.2190 1.4680
C64 C 0.9042(4) -0.1367(4) 1.3127(4)
H37 H 0.9421 -0.1597 1.3135
C65 C 0.8637(5) -0.1403(5) 1.4609(6)
C66 C 0.8974(4) -0.2833(5) 1.3920(5)
H38 H 0.9179 -0.2522 1.4433
C67 C 0.8023(4) 0.0758(5) 1.2213(5)
H39 H 0.7721 0.1081 1.2306
C68 C 0.9007(4) -0.0958(4) 1.2759(4)
H40 H 0.9348 -0.0934 1.2503
O13 O 0.9425(3) 0.1921(3) 1.9576(3)
C69 C 0.9145(5) -0.0216(5) 1.5772(5)
H41 H 0.9445 0.0280 1.6035
C70 C 0.8465(4) -0.6023(5) 1.1395(4)
H42 H 0.8147 -0.6381 1.0925
C71 C 0.9028(5) -0.3544(5) 1.3593(5)
H43 H 0.9239 -0.3730 1.3884
C72 C 0.7988(4) -0.0680(5) 1.3138(5)
H44 H 0.7623 -0.0430 1.3163
C73 C 0.8360(4) -0.2997(5) 1.2775(5)
H45 H 0.8135 -0.2803 1.2498
C74 C 0.9415(5) -0.4953(5) 1.2778(5)
H46 H 0.9722 -0.4579 1.3248
C75 C 0.8788(5) -0.0509(6) 1.6140(5)
C76 C 0.8388(5) -0.5325(5) 1.1760(5)
H47 H 0.7995 -0.5205 1.1550
C77 C 0.8795(5) -0.0251(5) 1.1870(5)
H48 H 0.9031 -0.0633 1.1731
C78 C 0.8407(5) -0.3731(5) 1.2397(5)
H49 H 0.8207 -0.4035 1.1883
C79 C 0.9077(4) 0.0725(5) 1.7277(5)
H50 H 0.9156 0.0968 1.7009
C80 C 0.9530(4) -0.5656(5) 1.2462(5)
H51 H 0.9906 -0.5770 1.2703
C81 C 0.8001(4) -0.1095(5) 1.3458(5)
H52 H 0.7635 -0.1152 1.3677
C82 C 0.9054(5) -0.0658(5) 1.5018(6)
H53 H 0.9282 -0.0446 1.4779
C83 C 0.8740(4) -0.0395(5) 1.7314(5)
H54 H 0.8562 -0.0920 1.7063
C84 C 0.8341(5) -0.1239(5) 1.5698(5)
H55 H 0.8090 -0.1439 1.5933
C85 C 0.8822(5) 0.0183(4) 1.1555(5)
H56 H 0.9109 0.0126 1.1233
N5 N 0.6279(5) 0.1930(4) 0.9168(4)
C86 C 0.8840(5) 0.0015(5) 1.8079(5)
H57 H 0.8798 -0.0230 1.8351
C87 C 0.9142(4) 0.1157(5) 1.8033(5)
H58 H 0.9280 0.1683 1.8266
C88 C 0.9005(4) 0.0815(6) 1.8433(5)
C89 C 0.9144(5) -0.6976(5) 1.1355(5)
C90 C 0.9076(5) 0.1230(6) 1.9207(6)
C91 C 0.6934(5) 0.2116(6) 0.9534(6)
C92 C 0.7507(4) 0.2072(5) 0.9186(5)
H59 H 0.7403 0.1568 0.8772
H60 H 0.7968 0.2191 0.9540
H61 H 0.7537 0.2427 0.9012
C93 C 0.5628(5) 0.1935(5) 0.9482(5)
H62 H 0.5804 0.2205 1.0017
H63 H 0.5358 0.1424 0.9306
H64 H 0.5311 0.2181 0.9323
C94 C 0.6056(6) 0.1553(6) 0.8301(6)
H65 H 0.6228 0.1922 0.8169
H66 H 0.5530 0.1362 0.8103
H67 H 0.6275 0.1144 0.8099
Zn1_2 Zn 0.59857(5) -0.86835(5) 0.09704(5)
Zn1_3 Zn 0.59857(5) 0.13165(5) 1.09704(5)
O2_2 O 0.6229(3) 0.2343(3) 0.1341(3)
O3_2 O 0.5956(2) 0.0800(3) -0.0060(3)
O4_2 O 0.7448(4) 0.2855(3) 1.1748(3)
N1_2 N 1.0251(4) 0.1592(4) 1.0730(4)
Zn2_2 Zn 0.76627(5) -0.79247(5) 0.09345(5)
Zn2_3 Zn 0.76627(5) -0.79247(5) 1.09345(5)
Zn3_2 Zn -0.07920(5) 0.17003(5) 0.05586(5)
Zn3_3 Zn 0.92080(5) -0.82997(5) 1.05586(5)
Zn3_4 Zn 0.92080(5) 0.17003(5) 2.05586(5)
O10_2 O 0.8826(3) 0.0920(3) 0.9532(3)
O11_2 O 0.8572(3) 0.2449(3) 1.0799(3)
O12_2 O 0.9736(3) 0.2908(3) 1.1537(4)
O13_2 O 0.9425(3) 0.1921(3) 0.9576(3)
loop_
_geom_bond_atom_site_label_1
_geom_bond_atom_site_label_2
_geom_bond_site_symmetry_1
_geom_bond_site_symmetry_2
Zn1 O5 1_555 1_555
O1 C2 1_555 1_555
O2 C35 1_555 1_555
O3 C2 1_555 1_555
C1 H1 1_555 1_555
C2 C16 1_555 1_555
O4 C35 1_555 1_555
O5 C26 1_555 1_555
N1 C46 1_555 1_555
C3 H2 1_555 1_555
C4 C9 1_555 1_555
C5 C3 1_555 1_555
C6 H3 1_555 1_555
N2 C21 1_555 1_555
C7 H4 1_555 1_555
C8 C5 1_555 1_555
C9 C18 1_555 1_555
C10 C4 1_555 1_555
H5 C10 1_555 1_555
C11 C14 1_555 1_555
C12 C35 1_555 1_555
O6 C26 1_555 1_555
C13 H6 1_555 1_555
C14 H7 1_555 1_555
C15 C1 1_555 1_555
H8 C15 1_555 1_555
C16 C6 1_555 1_555
C17 H9 1_555 1_555
C18 H10 1_555 1_555
C19 C8 1_555 1_555
H11 C19 1_555 1_555
C20 C11 1_555 1_555
C21 C36 1_555 1_555
C22 N2 1_555 1_555
N3 Zn1 1_555 1_555
C23 C7 1_555 1_555
C24 C22 1_555 1_555
H12 C24 1_555 1_555
C25 C18 1_555 1_555
H13 C25 1_555 1_555
C26 C23 1_555 1_555
C27 C3 1_555 1_555
H14 C27 1_555 1_555
C28 N3 1_555 1_555
H15 C28 1_555 1_555
C29 C5 1_555 1_555
H16 C29 1_555 1_555
C30 C9 1_555 1_555
H17 C30 1_555 1_555
C31 C10 1_555 1_555
H18 C31 1_555 1_555
C32 N2 1_555 1_555
C33 C28 1_555 1_555
H19 C33 1_555 1_555
C34 C8 1_555 1_555
H20 C34 1_555 1_555
C36 C34 1_555 1_555
H21 C36 1_555 1_555
C37 C4 1_555 1_555
H22 C37 1_555 1_555
C38 C12 1_555 1_555
H23 C38 1_555 1_555
C39 C12 1_555 1_555
H24 C39 1_555 1_555
C40 H25 1_555 1_555
C41 C20 1_555 1_555
H26 C41 1_555 1_555
C42 C13 1_555 1_555
H27 C42 1_555 1_555
C43 C15 1_555 1_555
C44 C11 1_555 1_555
H28 C44 1_555 1_555
C45 C19 1_555 1_555
H29 C45 1_555 1_555
C46 H30 1_555 1_555
C47 C46 1_555 1_555
H31 C47 1_555 1_555
C48 N1 1_555 1_555
H32 C48 1_555 1_555
C49 C47 1_555 1_555
C50 C40 1_555 1_555
H33 C50 1_555 1_555
C51 C48 1_555 1_555
H34 C51 1_555 1_555
Zn2 O1 1_555 1_555
Zn3 O8 1_555 1_555
O7 Zn2 1_555 1_555
O8 C53 1_555 1_555
O9 Zn2 1_555 1_555
N4 C58 1_555 1_555
O10 C90 1_555 1_555
C52 C54 1_555 1_555
O11 C89 1_555 1_555
C53 O7 1_555 1_555
C54 H35 1_555 1_555
C55 C70 1_555 1_555
C56 C75 1_555 1_555
O12 C89 1_555 1_555
C57 C53 1_555 1_555
C58 C64 1_555 1_555
C59 C52 1_555 1_555
C60 N4 1_555 1_555
C61 C62 1_555 1_555
C62 C71 1_555 1_555
C63 H36 1_555 1_555
C64 H37 1_555 1_555
C65 N4 1_555 1_555
C66 C60 1_555 1_555
H38 C66 1_555 1_555
C67 C54 1_555 1_555
H39 C67 1_555 1_555
C68 C59 1_555 1_555
H40 C68 1_555 1_555
O13 C90 1_555 1_555
C69 H41 1_555 1_555
C70 H42 1_555 1_555
C71 C66 1_555 1_555
H43 C71 1_555 1_555
C72 C59 1_555 1_555
H44 C72 1_555 1_555
C73 C60 1_555 1_555
H45 C73 1_555 1_555
C74 C61 1_555 1_555
H46 C74 1_555 1_555
C75 C69 1_555 1_555
C76 C61 1_555 1_555
H47 C76 1_555 1_555
C77 C52 1_555 1_555
H48 C77 1_555 1_555
C78 C62 1_555 1_555
H49 C78 1_555 1_555
C79 C56 1_555 1_555
H50 C79 1_555 1_555
C80 C55 1_555 1_555
H51 C80 1_555 1_555
C81 C58 1_555 1_555
H52 C81 1_555 1_555
C82 C65 1_555 1_555
H53 C82 1_555 1_555
C83 C56 1_555 1_555
H54 C83 1_555 1_555
C84 C63 1_555 1_555
H55 C84 1_555 1_555
C85 C57 1_555 1_555
H56 C85 1_555 1_555
N5 C91 1_555 1_555
C86 C83 1_555 1_555
H57 C86 1_555 1_555
C87 C79 1_555 1_555
H58 C87 1_555 1_555
C88 C86 1_555 1_555
C89 C55 1_555 1_555
C90 C88 1_555 1_555
C91 O9 1_555 1_555
C92 C91 1_555 1_555
H59 C92 1_555 1_555
H60 C92 1_555 1_555
H61 C92 1_555 1_555
C93 N5 1_555 1_555
H62 C93 1_555 1_555
H63 C93 1_555 1_555
H64 C93 1_555 1_555
C94 N5 1_555 1_555
H65 C94 1_555 1_555
H66 C94 1_555 1_555
H67 C94 1_555 1_555
Zn1_2 O2 1_555 1_555
Zn1_3 O3 1_555 1_555
O2_2 Zn1 1_555 1_555
O3_2 Zn1 1_555 1_555
O4_2 Zn2 1_555 1_555
N1_2 Zn3 1_555 1_555
Zn2_2 O4 1_555 1_555
Zn2_3 O11 1_555 1_555
Zn3_2 N1 1_555 1_555
Zn3_3 O11 1_555 1_555
Zn3_4 O10 1_555 1_555
O10_2 Zn3 1_555 1_555
O11_2 Zn2 1_555 1_555
O12_2 Zn3 1_555 1_555
O13_2 Zn3 1_555 1_555
C1 N3 1_555 1_555
C6 C29 1_555 1_555
C7 C37 1_555 1_555
C13 C20 1_555 1_555
C14 C38 1_555 1_555
C16 C27 1_555 1_555
C17 C30 1_555 1_555
C17 C32 1_555 1_555
C21 C45 1_555 1_555
C22 C42 1_555 1_555
C23 C31 1_555 1_555
C24 C41 1_555 1_555
C25 C32 1_555 1_555
C33 C43 1_555 1_555
C39 C44 1_555 1_555
C40 C43 1_555 1_555
C49 C50 1_555 1_555
C49 C51 1_555 1_555
Zn3 O11_2 1_555 1_555
O12 Zn3_3 1_555 1_555
C57 C67 1_555 1_555
C63 C65 1_555 1_555
C64 C68 1_555 1_555
O13 Zn3_4 1_555 1_555
C69 C82 1_555 1_555
C70 C76 1_555 1_555
C72 C81 1_555 1_555
C73 C78 1_555 1_555
C74 C80 1_555 1_555
C75 C84 1_555 1_555
C77 C85 1_555 1_555
C87 C88 1_555 1_555

#END
