
#######################################################################
#
#                 Cambridge Crystallographic Data Centre
#                                CCDC 
#
#######################################################################
#
# If this CIF has been generated from an entry in the Cambridge 
# Structural Database, then it will include bibliographic, chemical, 
# crystal, experimental, refinement or atomic coordinate data resulting 
# from the CCDC's data processing and validation procedures.
#
#######################################################################

data_HUQHIM
_chemical_formula_moiety         '(C92 H64 N6 O14 Zn3)n'
_symmetry_cell_setting           monoclinic
_symmetry_space_group_name_H-M   'P 21/c'
_symmetry_Int_Tables_number      14
_space_group_name_Hall           '-P 2ybc'
loop_
_symmetry_equiv_pos_site_id
_symmetry_equiv_pos_as_xyz
1 x,y,z
2 -x,1/2+y,1/2-z
3 -x,-y,-z
4 x,1/2-y,1/2+z
_cell_length_a                   21.210(3)
_cell_length_b                   36.410(5)
_cell_length_c                   19.419(3)
_cell_angle_alpha                90
_cell_angle_beta                 94.425(3)
_cell_angle_gamma                90
_cell_volume                     14951.7
loop_
_atom_site_label
_atom_site_type_symbol
_atom_site_fract_x
_atom_site_fract_y
_atom_site_fract_z
C1 C 0.7602(6) 0.5492(2) 0.7232(5)
H1 H 0.7906 0.5551 0.7586
C2 C 0.3587 0.0214 0.6133
H2 H 0.3788 0.0038 0.5855
H3 H 0.3174 0.0127 0.6224
H4 H 0.3837 0.0248 0.6562
C3 C 0.2520(2) 0.20810(13) 0.0078(3)
H5 H 0.2186 0.2211 0.0244
C4 C 0.2287(3) 0.18650(14) 0.1494(3)
C5 C 0.2619(2) 0.20756(13) -0.0615(3)
H6 H 0.2347 0.2213 -0.0912
C6 C 0.3439(2) 0.17030(14) 0.0264(3)
H7 H 0.3737 0.1580 0.0554
C7 C 0.2942(3) 0.18827(14) 0.0519(3)
C8 C 0.3479(2) 0.17116(13) -0.0427(2)
H8 H 0.3812 0.1585 -0.0602
C9 C 0.3243(5) 0.0835(3) 0.6087(5)
H9 H 0.3090 0.0752 0.6494
C10 C 1.0986(2) 0.21174(12) 0.4802(2)
C11 C 1.0422(2) 0.23407(13) 0.4898(2)
C12 C 1.0465(2) 0.27185(12) 0.5006(2)
H10 H 1.0860 0.2831 0.5029
C13 C 0.9338(2) 0.27690(13) 0.5058(2)
C14 C 0.9941(2) 0.29261(13) 0.5078(2)
H11 H 0.9984 0.3178 0.5141
C15 C 0.3796(2) 0.22678(12) 0.5475(2)
C16 C 0.3250(2) 0.20291(13) 0.5525(2)
C17 C 0.4613(2) 0.26560(14) 0.6012(2)
H12 H 0.4807 0.2760 0.6411
C18 C 0.1686(2) 0.16967(12) 0.3196(2)
H13 H 0.1347 0.1576 0.3371
C19 C 0.1732(2) 0.16967(13) 0.2498(2)
H14 H 0.1423 0.1583 0.2207
C20 C 0.5399(2) 0.29786(13) 0.5345(2)
C21 C 0.4540(2) 0.25809(13) 0.4796(2)
H15 H 0.4681 0.2635 0.4366
C22 C 0.4098(2) 0.24295(14) 0.6061(2)
H16 H 0.3950 0.2384 0.6491
C23 C 0.9833(2) 0.21828(12) 0.4847(2)
H17 H 0.9791 0.1934 0.4744
C24 C 0.4025(2) 0.23490(13) 0.4835(2)
H18 H 0.3831 0.2247 0.4434
C25 C 0.9291(2) 0.23930(13) 0.4950(3)
H19 H 0.8899 0.2279 0.4944
C26 C 0.4846(2) 0.27315(13) 0.5375(2)
C27 C 0.6496(2) 0.34031(13) 0.5295(3)
C28 C 0.2240(2) 0.18666(12) 0.2229(2)
C29 C 0.2584(2) 0.20362(12) 0.3376(2)
H20 H 0.2880 0.2153 0.3680
C30 C 0.3704 0.0683 0.5033
H21 H 0.3665 0.0944 0.4962
H22 H 0.3428 0.0558 0.4695
H23 H 0.4133 0.0610 0.4986
C31 C 0.2661(2) 0.20506(12) 0.2684(2)
H24 H 0.2993 0.2183 0.2521
C32 C 0.8706(2) 0.33511(13) 0.4909(3)
H25 H 0.9046 0.3464 0.4719
C33 C 0.7598(2) 0.44152(13) 0.6349(2)
H26 H 0.7917 0.4478 0.6683
C34 C 0.7650(2) 0.33918(14) 0.5275(3)
C35 C 0.7158(2) 0.50485(14) 0.6421(2)
C36 C 0.5827(2) 0.29213(12) 0.4839(2)
H27 H 0.5743 0.2738 0.4511
C37 C 0.8771(2) 0.29888(13) 0.5131(2)
C38 C 0.5518(2) 0.32614(14) 0.5772(3)
H28 H 0.5225 0.3318 0.6087
C39 C 0.7124(2) 0.39568(13) 0.5575(3)
C40 C 0.6369(2) 0.31288(13) 0.4813(3)
H29 H 0.6646 0.3084 0.4474
C41 C 0.7159(2) 0.46694(13) 0.6132(3)
C42 C 0.7175(2) 0.57407(13) 0.7026(3)
C43 C 0.7577(2) 0.40591(14) 0.6074(3)
H30 H 0.7879 0.3889 0.6236
C44 C 0.7194(3) 0.61180(13) 0.7347(3)
C45 C 0.8148(2) 0.35527(13) 0.4959(3)
H31 H 0.8111 0.3790 0.4784
C46 C 0.6070(2) 0.34811(13) 0.5768(3)
H32 H 0.6141 0.3673 0.6079
C47 C 0.7710(2) 0.30386(13) 0.5520(3)
H33 H 0.7380 0.2933 0.5740
C48 C 0.6681(3) 0.42174(14) 0.5342(3)
H34 H 0.6368 0.4155 0.5000
C49 C 0.8250(2) 0.28403(13) 0.5447(2)
H35 H 0.8274 0.2600 0.5609
C50 C 0.6699(3) 0.45656(14) 0.5607(3)
H36 H 0.6402 0.4737 0.5437
C51 C 0.6779(3) 0.53087(17) 0.6207(4)
H37 H 0.6486 0.5260 0.5837
C52 C 0.6783(3) 0.56557(15) 0.6499(4)
H38 H 0.6501 0.5832 0.6315
C53 C 0.7612(5) 0.5147(2) 0.6940(5)
H39 H 0.7924 0.4980 0.7091
N1 N 0.2852(3) 0.18729(12) 0.1237(3)
H40 H 0.3183 0.1872 0.1522
N2 N 0.30715(15) 0.18896(10) -0.08849(18)
N3 N 0.21022(17) 0.18612(9) 0.36321(17)
N4 N 0.3525(5) 0.0589(3) 0.5740(7)
N5 N 0.70859(18) 0.35972(10) 0.5308(2)
O1 O 1.09209(14) 0.17962(8) 0.45544(15)
O2 O 1.15239(14) 0.22491(8) 0.49492(15)
O3 O 0.1697(3) 0.18412(15) 0.1065(3)
O4 O 0.31352(16) 0.19172(10) 0.60925(19)
O5 O 0.29187(14) 0.19528(9) 0.49628(16)
O6 O 0.75731(19) 0.61660(9) 0.78648(18)
O7 O 0.68073(17) 0.63398(9) 0.7094(2)
O8 O 0.3154(2) 0.11395(13) 0.5970(3)
Zn1 Zn 0.20285(2) 0.180270(14) 0.46871(3)
Zn2 Zn 0.25375(3) 0.153300(15) 0.63754(3)
C54 C 0.7031(2) 0.29031(16) -0.1768(3)
H41 H 0.7039 0.2682 -0.1527
C55 C 1.0300(2) 0.27518(12) -0.2520(2)
C56 C 1.1339(2) 0.23035(12) -0.2625(2)
C57 C 1.0608(2) 0.25897(12) -0.1939(2)
H42 H 1.0456 0.2630 -0.1508
C58 C 0.4218(2) 0.21375(15) -0.1999(2)
C59 C 1.1022(2) 0.24486(13) -0.3206(2)
H43 H 1.1150 0.2389 -0.3640
C60 C 1.1916(2) 0.20561(12) -0.2688(3)
C61 C 0.4787(2) 0.23629(13) -0.2054(2)
C62 C 1.1130(2) 0.23719(12) -0.1985(2)
H44 H 1.1340 0.2272 -0.1590
C63 C 0.4752(2) 0.27426(14) -0.2161(2)
H45 H 0.4358 0.2855 -0.2217
C64 C 1.0522(2) 0.26786(13) -0.3156(2)
H46 H 1.0329 0.2787 -0.3552
C65 C 0.9752(2) 0.29966(11) -0.2449(2)
C66 C 0.6484(2) 0.30151(14) -0.2103(3)
C67 C 0.5298(2) 0.29558(13) -0.2185(2)
H47 H 0.5267 0.3207 -0.2265
C68 C 0.8716(2) 0.34310(12) -0.2251(3)
C69 C 0.8173(2) 0.39937(12) -0.1834(3)
C70 C 0.5894(2) 0.27874(13) -0.2089(2)
C71 C 0.6479(2) 0.33315(14) -0.2454(3)
H48 H 0.6105 0.3411 -0.2689
C72 C 0.8440(2) 0.57032(13) -0.0998(3)
H49 H 0.8578 0.5902 -0.1247
C73 C 0.8180(2) 0.57736(12) -0.0400(2)
C74 C 0.8686(2) 0.45745(12) -0.1672(3)
H50 H 0.9013 0.4732 -0.1764
C75 C 0.9252(2) 0.30064(14) -0.2922(3)
H51 H 0.9263 0.2863 -0.3317
C76 C 0.9744(2) 0.32219(12) -0.1863(2)
H52 H 1.0091 0.3226 -0.1540
C77 C 0.7565(2) 0.34249(13) -0.2156(3)
C78 C 0.7025(2) 0.35448(14) -0.2474(3)
H53 H 0.7011 0.3768 -0.2707
C79 C 0.9220(2) 0.34388(12) -0.1765(3)
H54 H 0.9212 0.3587 -0.1376
C80 C 0.8651(2) 0.42332(13) -0.1981(3)
H55 H 0.8946 0.4165 -0.2287
C81 C 0.8515(2) 0.53605(12) -0.1260(3)
H56 H 0.8734 0.5324 -0.1651
C82 C 0.5385(3) 0.22072(14) -0.1985(3)
H57 H 0.5418 0.1954 -0.1922
C83 C 0.8719(2) 0.32219(12) -0.2847(3)
H58 H 0.8381 0.3225 -0.3181
C84 C 0.8070(2) 0.61511(13) -0.0161(3)
C85 C 0.5924(2) 0.24068(13) -0.2003(3)
H59 H 0.6314 0.2290 -0.1959
C86 C 0.7979(3) 0.54875(15) -0.0050(3)
H60 H 0.7810 0.5531 0.0370
C87 C 0.8248(3) 0.50612(14) -0.0915(3)
C88 C 0.8242(2) 0.46869(12) -0.1228(3)
C89 C 0.7768(3) 0.44457(14) -0.1106(3)
H61 H 0.7460 0.4518 -0.0818
C90 C 0.8009(3) 0.51213(14) -0.0283(3)
H62 H 0.7874 0.4927 -0.0020
C91 C 0.7733(3) 0.40985(15) -0.1396(3)
H63 H 0.7411 0.3938 -0.1295
C92 C 0.7577(3) 0.31042(17) -0.1772(4)
H64 H 0.7946 0.3027 -0.1523
N6 N 0.81396(17) 0.36425(11) -0.2158(2)
O9 O 0.36816(15) 0.22720(9) -0.21929(14)
O10 O 1.22725(14) 0.20162(9) -0.21689(16)
O11 O 0.42656(16) 0.18184(9) -0.17649(19)
O12 O 1.19784(16) 0.19160(9) -0.32793(16)
O13 O 0.79916(16) 0.62168(8) 0.04469(17)
O14 O 0.80997(15) 0.64196(8) -0.05925(16)
Zn3 Zn 0.31476(2) 0.186600(14) -0.19162(3)
O1_2 O 0.09209(14) 0.17962(8) 0.45544(15)
O2_2 O 0.15239(14) 0.22491(8) 0.49492(15)
O6A O 0.24269(19) 0.11660(9) 0.71352(18)
O7A O 0.31927(17) 0.13398(9) -0.2094(2)
Zn1_2 Zn 1.20285(2) 0.180270(14) 0.46871(3)
Zn1A Zn 0.79715(2) 0.680270(14) 0.03129(3)
Zn2_2 Zn 1.25375(3) 0.153300(15) -0.36246(3)
Zn2A Zn 0.74625(3) 0.653300(15) -0.13754(3)
Zn2A_2 Zn 0.74625(3) 0.653300(15) 0.86246(3)
O10_2 O 0.22725(14) 0.20162(9) -0.21689(16)
O12_2 O 0.19784(16) 0.19160(9) 0.67207(16)
O13A O 0.20084(16) 0.12168(8) 0.45531(17)
O14A O 0.19003(15) 0.14196(8) 0.55925(16)
Zn3_2 Zn 1.31476(2) 0.186600(14) -0.19162(3)
Zn3A Zn 0.68524(2) 0.686600(14) 0.69162(3)
loop_
_geom_bond_atom_site_label_1
_geom_bond_atom_site_label_2
_geom_bond_site_symmetry_1
_geom_bond_site_symmetry_2
C1 H1 1_555 1_555
C2 H2 1_555 1_555
H3 C2 1_555 1_555
H4 C2 1_555 1_555
C3 H5 1_555 1_555
C4 C28 1_555 1_555
C5 C3 1_555 1_555
H6 C5 1_555 1_555
C6 H7 1_555 1_555
C7 C3 1_555 1_555
C8 C6 1_555 1_555
H8 C8 1_555 1_555
C9 H9 1_555 1_555
C10 C11 1_555 1_555
C11 C12 1_555 1_555
C12 H10 1_555 1_555
C13 C14 1_555 1_555
C14 C12 1_555 1_555
H11 C14 1_555 1_555
C15 C16 1_555 1_555
C16 O4 1_555 1_555
C17 H12 1_555 1_555
C18 H13 1_555 1_555
C19 C18 1_555 1_555
H14 C19 1_555 1_555
C20 C26 1_555 1_555
C21 H15 1_555 1_555
C22 C15 1_555 1_555
H16 C22 1_555 1_555
C23 C11 1_555 1_555
H17 C23 1_555 1_555
C24 C15 1_555 1_555
H18 C24 1_555 1_555
C25 C13 1_555 1_555
H19 C25 1_555 1_555
C26 C17 1_555 1_555
C27 C40 1_555 1_555
C28 C19 1_555 1_555
C29 H20 1_555 1_555
C30 H21 1_555 1_555
H22 C30 1_555 1_555
H23 C30 1_555 1_555
C31 C28 1_555 1_555
H24 C31 1_555 1_555
C32 H25 1_555 1_555
C33 H26 1_555 1_555
C34 C45 1_555 1_555
C35 C41 1_555 1_555
C36 C20 1_555 1_555
H27 C36 1_555 1_555
C37 C13 1_555 1_555
C38 C20 1_555 1_555
H28 C38 1_555 1_555
C39 C43 1_555 1_555
C40 C36 1_555 1_555
H29 C40 1_555 1_555
C41 C33 1_555 1_555
C42 C1 1_555 1_555
C43 C33 1_555 1_555
H30 C43 1_555 1_555
C44 C42 1_555 1_555
C45 C32 1_555 1_555
H31 C45 1_555 1_555
C46 C27 1_555 1_555
H32 C46 1_555 1_555
C47 C34 1_555 1_555
H33 C47 1_555 1_555
C48 C39 1_555 1_555
H34 C48 1_555 1_555
C49 C37 1_555 1_555
H35 C49 1_555 1_555
C50 C41 1_555 1_555
H36 C50 1_555 1_555
C51 C35 1_555 1_555
H37 C51 1_555 1_555
C52 C42 1_555 1_555
H38 C52 1_555 1_555
C53 C1 1_555 1_555
H39 C53 1_555 1_555
N1 C4 1_555 1_555
H40 N1 1_555 1_555
N2 C5 1_555 1_555
N3 C18 1_555 1_555
N4 C2 1_555 1_555
N5 C27 1_555 1_555
O1 C10 1_555 1_555
O2 C10 1_555 1_555
O3 C4 1_555 1_555
O4 Zn2 1_555 1_555
O5 C16 1_555 1_555
O6 C44 1_555 1_555
O7 C44 1_555 1_555
O8 C9 1_555 1_555
Zn1 N3 1_555 1_555
Zn2 O8 1_555 1_555
C54 H41 1_555 1_555
C55 C57 1_555 1_555
C56 C59 1_555 1_555
C57 H42 1_555 1_555
C58 C61 1_555 1_555
C59 H43 1_555 1_555
C60 C56 1_555 1_555
C61 C63 1_555 1_555
C62 C56 1_555 1_555
H44 C62 1_555 1_555
C63 H45 1_555 1_555
C64 C55 1_555 1_555
H46 C64 1_555 1_555
C65 C55 1_555 1_555
C66 C54 1_555 1_555
C67 C63 1_555 1_555
H47 C67 1_555 1_555
C68 C79 1_555 1_555
C69 C80 1_555 1_555
C70 C66 1_555 1_555
C71 C66 1_555 1_555
H48 C71 1_555 1_555
C72 H49 1_555 1_555
C73 C72 1_555 1_555
C74 H50 1_555 1_555
C75 C65 1_555 1_555
H51 C75 1_555 1_555
C76 C65 1_555 1_555
H52 C76 1_555 1_555
C77 C78 1_555 1_555
C78 C71 1_555 1_555
H53 C78 1_555 1_555
C79 C76 1_555 1_555
H54 C79 1_555 1_555
C80 C74 1_555 1_555
H55 C80 1_555 1_555
C81 C72 1_555 1_555
H56 C81 1_555 1_555
C82 C61 1_555 1_555
H57 C82 1_555 1_555
C83 C68 1_555 1_555
H58 C83 1_555 1_555
C84 C73 1_555 1_555
C85 C70 1_555 1_555
H59 C85 1_555 1_555
C86 C73 1_555 1_555
H60 C86 1_555 1_555
C87 C81 1_555 1_555
C88 C74 1_555 1_555
C89 C88 1_555 1_555
H61 C89 1_555 1_555
C90 C86 1_555 1_555
H62 C90 1_555 1_555
C91 C69 1_555 1_555
H63 C91 1_555 1_555
C92 C54 1_555 1_555
H64 C92 1_555 1_555
N6 C68 1_555 1_555
O9 C58 1_555 1_555
O10 C60 1_555 1_555
O11 C58 1_555 1_555
O12 C60 1_555 1_555
O13 C84 1_555 1_555
O14 C84 1_555 1_555
Zn3 N2 1_555 1_555
O1_2 Zn1 1_555 1_555
O2_2 Zn1 1_555 1_555
O6A Zn2 1_555 1_555
O7A Zn3 1_555 1_555
Zn1_2 O1 1_555 1_555
Zn1A O13 1_555 1_555
Zn2_2 O12 1_555 1_555
Zn2A O14 1_555 1_555
Zn2A_2 O6 1_555 1_555
O10_2 Zn3 1_555 1_555
O12_2 Zn2 1_555 1_555
O13A Zn1 1_555 1_555
O14A Zn1 1_555 1_555
Zn3_2 O10 1_555 1_555
Zn3A O7 1_555 1_555
C6 C7 1_555 1_555
C7 N1 1_555 1_555
C8 N2 1_555 1_555
C9 N4 1_555 1_555
C17 C22 1_555 1_555
C21 C24 1_555 1_555
C21 C26 1_555 1_555
C23 C25 1_555 1_555
C29 C31 1_555 1_555
C29 N3 1_555 1_555
C30 N4 1_555 1_555
C32 C37 1_555 1_555
C34 N5 1_555 1_555
C35 C53 1_555 1_555
C38 C46 1_555 1_555
C39 N5 1_555 1_555
C47 C49 1_555 1_555
C48 C50 1_555 1_555
C51 C52 1_555 1_555
O2 Zn1_2 1_555 1_555
O5 Zn1 1_555 1_555
Zn2 O14A 1_555 1_555
C57 C62 1_555 1_555
C59 C64 1_555 1_555
C67 C70 1_555 1_555
C69 N6 1_555 1_555
C75 C83 1_555 1_555
C77 C92 1_555 1_555
C77 N6 1_555 1_555
C82 C85 1_555 1_555
C87 C88 1_555 1_555
C87 C90 1_555 1_555
C89 C91 1_555 1_555
O9 Zn3 1_555 1_555
O11 Zn3 1_555 1_555
O14 Zn1A 1_555 1_555

#END
