
#######################################################################
#
#                 Cambridge Crystallographic Data Centre
#                                CCDC 
#
#######################################################################
#
# If this CIF has been generated from an entry in the Cambridge 
# Structural Database, then it will include bibliographic, chemical, 
# crystal, experimental, refinement or atomic coordinate data resulting 
# from the CCDC's data processing and validation procedures.
#
#######################################################################

data_HUQHUY
_chemical_formula_moiety         '(C94 H62 N4 O13 Zn3)n'
_symmetry_cell_setting           monoclinic
_symmetry_space_group_name_H-M   'C 2/c'
_symmetry_Int_Tables_number      15
_space_group_name_Hall           '-C 2yc'
loop_
_symmetry_equiv_pos_site_id
_symmetry_equiv_pos_as_xyz
1 x,y,z
2 -x,y,1/2-z
3 1/2+x,1/2+y,z
4 1/2-x,1/2+y,1/2-z
5 -x,-y,-z
6 x,-y,1/2+z
7 1/2-x,1/2-y,-z
8 1/2+x,1/2-y,1/2+z
_cell_length_a                   36.80(2)
_cell_length_b                   21.661(14)
_cell_length_c                   44.65(3)
_cell_angle_alpha                90
_cell_angle_beta                 100.400(5)
_cell_angle_gamma                90
_cell_volume                     35006.9
loop_
_atom_site_label
_atom_site_type_symbol
_atom_site_fract_x
_atom_site_fract_y
_atom_site_fract_z
C1 C 0.95137(18) 0.0146(4) -0.2543(2)
H1 H 0.9677 -0.0099 -0.2627
C2 C 0.93223(18) 0.0557(4) -0.20985(16)
C3 C 0.90697(17) 0.0876(4) -0.25968(19)
H2 H 0.8891 0.1119 -0.2716
C4 C 0.9340(2) 0.0507(3) -0.17579(16)
C5 C 0.9660(2) 0.0327(4) -0.12558(19)
H3 H 0.9877 0.0226 -0.1123
C6 C 0.9903(2) 0.8367(4) 0.0276(2)
H4 H 0.9816 0.8566 0.0093
C7 C 1.32589(18) 0.5173(4) 0.0448(2)
C8 C 1.07086(19) 0.3581(3) 0.06682(19)
H5 H 1.0819 0.3232 0.0767
C9 C 1.04475(17) 0.6899(3) 0.0556(2)
C10 C 1.0766(2) 0.4669(3) 0.0535(2)
C11 C 0.93476(17) 0.0440(3) -0.11530(15)
C12 C 0.97268(16) 0.1894(3) 0.04596(16)
C13 C 0.98525(18) 0.8593(3) 0.0536(2)
C14 C 0.95801(15) 0.0036(3) -0.06215(15)
H6 H 0.9740 -0.0208 -0.0709
C15 C 1.06490(18) 0.6789(3) 0.03429(19)
H7 H 1.0674 0.7097 0.0203
C16 C 0.9519(2) 0.1326(3) 0.04080(18)
C17 C 1.01039(19) 0.1867(3) 0.05145(16)
H8 H 1.0225 0.1489 0.0538
C18 C 1.07943(17) 0.5792(3) 0.0536(2)
C19 C 0.99844(19) 0.8335(4) 0.0820(2)
H9 H 0.9955 0.8521 0.1001
C20 C 1.03003(17) 0.2412(3) 0.05337(17)
H10 H 1.0556 0.2382 0.0562
C21 C 1.03345(18) 0.3561(3) 0.0497(2)
C22 C 0.95774(17) -0.0022(3) -0.03209(16)
H11 H 0.9727 -0.0311 -0.0204
C23 C 0.93585(18) 0.0434(3) -0.07961(16)
C24 C 1.01502(17) 0.2994(3) 0.05145(19)
C25 C 1.0413(2) 0.4627(3) 0.0379(2)
H12 H 1.0309 0.4975 0.0275
C26 C 1.2750(2) 0.5518(4) 0.0704(2)
H13 H 1.2667 0.5719 0.0863
C27 C 0.89980(19) 0.0604(4) -0.16338(16)
H14 H 0.8771 0.0681 -0.1757
C28 C 1.00973(17) 0.7803(4) 0.02871(16)
H15 H 1.0135 0.7614 0.0108
C29 C 1.04061(17) 0.6423(3) 0.07636(19)
H16 H 1.0255 0.6489 0.0906
C30 C 1.01757(18) 0.7738(4) 0.08062(17)
H17 H 1.0255 0.7514 0.0984
C31 C 1.0229(2) 0.7539(3) 0.05606(17)
C32 C 0.97493(18) 0.3020(3) 0.04577(18)
H18 H 0.9628 0.3399 0.0439
C33 C 0.95375(15) 0.0089(3) -0.22304(17)
H19 H 0.9676 -0.0215 -0.2115
C34 C 1.31368(18) 0.5488(3) 0.0704(2)
H20 H 1.3307 0.5663 0.0861
C35 C 1.0895(2) 0.4139(4) 0.06793(19)
H21 H 1.1131 0.4152 0.0796
C36 C 1.15025(19) 0.4739(4) 0.0381(2)
H22 H 1.1357 0.4406 0.0301
C37 C 1.0207(2) 0.4114(4) 0.0366(2)
H23 H 0.9964 0.4132 0.0262
C38 C 0.95520(18) 0.2479(3) 0.04327(17)
H24 H 0.9295 0.2497 0.0397
C39 C 1.15807(17) 0.5689(3) 0.0646(2)
H25 H 1.1483 0.6023 0.0735
C40 C 0.90391(19) 0.0571(5) -0.13376(17)
H26 H 0.8832 0.0648 -0.1251
C41 C 0.96044(16) 0.9204(4) 0.0532(2)
C42 C 1.3673(2) 0.5177(4) 0.0476(3)
C43 C 1.21049(19) 0.5238(4) 0.04835(19)
C44 C 1.08212(17) 0.6233(3) 0.03242(19)
H27 H 1.0954 0.6158 0.0169
C45 C 1.1346(2) 0.5217(4) 0.0531(2)
C46 C 1.18951(18) 0.4761(4) 0.0349(2)
H28 H 1.1996 0.4459 0.0240
C47 C 1.05787(17) 0.5877(3) 0.0761(2)
H29 H 1.0556 0.5570 0.0901
C48 C 1.19393(18) 0.5696(3) 0.06360(19)
H30 H 1.2085 0.6014 0.0733
C49 C 1.3016(2) 0.4932(3) 0.0234(2)
H31 H 1.3094 0.4734 0.0072
C50 C 0.96489(17) 0.0365(3) -0.15680(18)
H32 H 0.9863 0.0289 -0.1645
C51 C 1.24912(18) 0.5253(4) 0.0471(2)
C52 C 1.2640(2) 0.4964(4) 0.0241(2)
H33 H 1.2478 0.4781 0.0082
C53 C 0.91004(18) 0.0907(5) -0.22950(18)
H34 H 0.8955 0.1195 -0.2217
C54 C 0.91354(19) 0.0814(3) -0.06706(18)
H35 H 0.8987 0.1107 -0.0786
C55 C 0.9140(2) 0.0746(4) -0.0371(2)
H36 H 0.8982 0.0997 -0.0284
N1 N 0.92878(15) 0.0504(3) -0.27416(13)
N2 N 1.09620(15) 0.5235(3) 0.05265(17)
N3 N 0.93448(13) 0.0363(2) -0.01910(13)
O1 O 0.96718(12) 0.0810(2) 0.04624(11)
O2 O 0.94852(14) 0.9414(2) 0.02825(11)
O3 O 0.91671(13) 0.13495(19) 0.02918(11)
O4 O 1.38974(13) 0.5207(3) 0.07008(15)
O5 O 0.95625(14) 0.9365(2) 0.07943(12)
O6 O 1.37456(13) 0.5117(2) 0.01961(14)
Zn1 Zn 0.92903(2) 0.02452(4) 0.02626(2)
C56 C 1.3126(2) 0.5694(4) -0.3524(2)
C57 C 1.3030(2) 0.5826(4) -0.3258(2)
H37 H 1.3209 0.5895 -0.3086
C58 C 0.9732(2) 0.8575(4) -0.32227(19)
H38 H 0.9650 0.8733 -0.3053
C59 C 0.96647(16) 0.8909(3) -0.34930(17)
C60 C 0.9913(2) 0.8025(4) -0.3197(2)
H39 H 0.9941 0.7804 -0.3016
C61 C 0.9987(2) 0.8115(4) -0.37180(18)
H40 H 1.0064 0.7961 -0.3891
C62 C 1.2512(2) 0.5620(4) -0.3773(3)
H41 H 1.2346 0.5592 -0.3957
C63 C 0.9792(2) 0.8699(4) -0.37308(17)
H42 H 0.9757 0.8928 -0.3910
C64 C 1.2887(2) 0.5605(4) -0.3763(2)
H43 H 1.2971 0.5523 -0.3943
C65 C 1.2651(2) 0.5859(5) -0.3241(2)
H44 H 1.2577 0.6001 -0.3065
C66 C 1.00576(17) 0.7788(4) -0.34472(19)
C67 C 1.2387(2) 0.5680(5) -0.3491(2)
C68 C 1.02529(18) 0.7213(3) -0.34348(18)
C69 C 1.1395(2) 0.5176(4) -0.3613(2)
H45 H 1.1250 0.4876 -0.3726
C70 C 1.0323(2) 0.3815(4) -0.3402(2)
C71 C 1.0103(2) 0.3203(4) -0.3412(2)
C72 C 1.0737(2) 0.6586(4) -0.35572(19)
H46 H 1.0929 0.6535 -0.3665
C73 C 0.9763(2) 0.2062(4) -0.3446(2)
C74 C 0.9523(3) 0.1447(4) -0.3442(3)
C75 C 1.1989(2) 0.5635(4) -0.3469(2)
C76 C 1.0076(2) 0.2143(4) -0.32563(19)
H47 H 1.0167 0.1829 -0.3122
C77 C 0.97677(19) 0.3103(4) -0.3618(2)
H48 H 0.9661 0.3426 -0.3741
C78 C 1.0280(2) 0.2712(4) -0.3252(2)
H49 H 1.0521 0.2746 -0.3146
C79 C 1.0177(2) 0.6711(4) -0.3243(2)
H50 H 0.9993 0.6755 -0.3126
C80 C 1.0673(2) 0.3896(4) -0.3236(2)
H51 H 1.0786 0.3577 -0.3115
C81 C 0.9593(3) 0.2518(4) -0.3639(2)
H52 H 0.9375 0.2444 -0.3776
C82 C 1.0679(2) 0.4970(4) -0.3387(2)
C83 C 1.0658(2) 0.6107(4) -0.3386(2)
C84 C 1.1243(2) 0.5567(5) -0.3410(3)
C85 C 1.0340(2) 0.4921(3) -0.3553(2)
H53 H 1.0228 0.5249 -0.3668
C86 C 1.0851(2) 0.4438(4) -0.3249(3)
H54 H 1.1100 0.4459 -0.3163
C87 C 1.1861(2) 0.6066(5) -0.3261(3)
H55 H 1.2013 0.6368 -0.3157
C88 C 1.0562(2) 0.7124(4) -0.35829(19)
H56 H 1.0640 0.7441 -0.3697
C89 C 1.0372(2) 0.6173(4) -0.3230(2)
H57 H 1.0310 0.5846 -0.3114
C90 C 1.0153(2) 0.4322(4) -0.3546(2)
H58 H 0.9908 0.4288 -0.3644
C91 C 1.1474(2) 0.5992(5) -0.3228(2)
H59 H 1.1380 0.6228 -0.3086
C92 C 0.94922(19) 0.9568(4) -0.3494(2)
C93 C 1.1743(2) 0.5247(4) -0.3638(2)
H60 H 1.1829 0.5011 -0.3785
C94 C 1.3541(2) 0.5633(4) -0.3549(2)
N4 N 1.08646(17) 0.5544(3) -0.33868(18)
O7 O 0.94164(13) 0.9732(2) -0.32255(11)
O8 O 0.94249(12) 0.9831(2) -0.37342(12)
O9 O 0.96398(14) 0.1145(3) -0.32250(14)
O10 O 1.36388(13) 0.5476(2) -0.37679(13)
O11 O 1.37476(13) 0.5742(3) -0.32894(12)
O12 O 0.87768(18) 0.1175(3) -0.42962(13)
O13 O 0.93154(14) 0.1287(2) -0.37009(13)
Zn2 Zn 0.92656(2) 0.05406(4) -0.31796(2)
Zn3 Zn 0.91041(3) 0.04844(5) -0.39877(3)
O2_2 O 0.94852(14) -0.0586(2) 0.02825(11)
O4G O 0.88974(13) -0.0207(3) -0.42992(15)
O5E O 0.95625(14) 0.0635(2) -0.42057(12)
O6B O 0.87456(13) 0.0117(2) 0.01961(14)
Zn1_2 Zn 0.92903(2) 1.02452(4) 0.02626(2)
Zn1B Zn 1.42903(2) 0.52452(4) 0.02626(2)
O7_2 O 0.94164(13) -0.0268(2) -0.32255(11)
O8_2 O 0.94249(12) -0.0169(2) -0.37342(12)
O10B O 0.86388(13) 0.0476(2) -0.37679(13)
O11B O 0.87476(13) 0.0742(3) -0.32894(12)
Zn2_2 Zn 0.92656(2) 1.05406(4) -0.31796(2)
Zn2B Zn 1.42656(2) 0.55406(4) -0.31796(2)
Zn3_2 Zn 0.91041(3) 1.04844(5) -0.39877(3)
Zn3B Zn 1.41041(3) 0.54844(5) -0.39877(3)
Zn3E Zn 0.91041(3) 0.95156(5) 0.10123(3)
Zn3G Zn 1.41041(3) 0.45156(5) 0.10123(3)
loop_
_geom_bond_atom_site_label_1
_geom_bond_atom_site_label_2
_geom_bond_site_symmetry_1
_geom_bond_site_symmetry_2
C1 H1 1_555 1_555
C2 C4 1_555 1_555
C3 H2 1_555 1_555
C4 C27 1_555 1_555
C5 H3 1_555 1_555
C6 H4 1_555 1_555
C7 C34 1_555 1_555
C8 H5 1_555 1_555
C9 C15 1_555 1_555
C10 C25 1_555 1_555
C11 C5 1_555 1_555
C12 C16 1_555 1_555
C13 C6 1_555 1_555
C14 H6 1_555 1_555
C15 H7 1_555 1_555
C16 O1 1_555 1_555
C17 C12 1_555 1_555
H8 C17 1_555 1_555
C18 C44 1_555 1_555
C19 C13 1_555 1_555
H9 C19 1_555 1_555
C20 C17 1_555 1_555
H10 C20 1_555 1_555
C21 C8 1_555 1_555
C22 C14 1_555 1_555
H11 C22 1_555 1_555
C23 C11 1_555 1_555
C24 C20 1_555 1_555
C25 H12 1_555 1_555
C26 H13 1_555 1_555
C27 H14 1_555 1_555
C28 C6 1_555 1_555
H15 C28 1_555 1_555
C29 C9 1_555 1_555
H16 C29 1_555 1_555
C30 C19 1_555 1_555
H17 C30 1_555 1_555
C31 C9 1_555 1_555
C32 C24 1_555 1_555
H18 C32 1_555 1_555
C33 C1 1_555 1_555
H19 C33 1_555 1_555
C34 C26 1_555 1_555
H20 C34 1_555 1_555
C35 C8 1_555 1_555
H21 C35 1_555 1_555
C36 H22 1_555 1_555
C37 C21 1_555 1_555
H23 C37 1_555 1_555
C38 C12 1_555 1_555
H24 C38 1_555 1_555
C39 H25 1_555 1_555
C40 C11 1_555 1_555
H26 C40 1_555 1_555
C41 C13 1_555 1_555
C42 C7 1_555 1_555
C43 C46 1_555 1_555
C44 C15 1_555 1_555
H27 C44 1_555 1_555
C45 C36 1_555 1_555
C46 C36 1_555 1_555
H28 C46 1_555 1_555
C47 C18 1_555 1_555
H29 C47 1_555 1_555
C48 C39 1_555 1_555
H30 C48 1_555 1_555
C49 C7 1_555 1_555
H31 C49 1_555 1_555
C50 C4 1_555 1_555
H32 C50 1_555 1_555
C51 C26 1_555 1_555
C52 C49 1_555 1_555
H33 C52 1_555 1_555
C53 C2 1_555 1_555
H34 C53 1_555 1_555
C54 C23 1_555 1_555
H35 C54 1_555 1_555
C55 C54 1_555 1_555
H36 C55 1_555 1_555
N1 C1 1_555 1_555
N2 C10 1_555 1_555
N3 C22 1_555 1_555
O1 Zn1 1_555 1_555
O2 C41 1_555 1_555
O3 C16 1_555 1_555
O4 C42 1_555 1_555
O5 C41 1_555 1_555
O6 C42 1_555 1_555
Zn1 N3 1_555 1_555
C56 C57 1_555 1_555
C57 H37 1_555 1_555
C58 H38 1_555 1_555
C59 C58 1_555 1_555
C60 C58 1_555 1_555
H39 C60 1_555 1_555
C61 H40 1_555 1_555
C62 H41 1_555 1_555
C63 C59 1_555 1_555
H42 C63 1_555 1_555
C64 C56 1_555 1_555
H43 C64 1_555 1_555
C65 C57 1_555 1_555
H44 C65 1_555 1_555
C66 C60 1_555 1_555
C67 C62 1_555 1_555
C68 C66 1_555 1_555
C69 H45 1_555 1_555
C70 C71 1_555 1_555
C71 C77 1_555 1_555
C72 H46 1_555 1_555
C73 C74 1_555 1_555
C74 O9 1_555 1_555
C75 C67 1_555 1_555
C76 C73 1_555 1_555
H47 C76 1_555 1_555
C77 H48 1_555 1_555
C78 C71 1_555 1_555
H49 C78 1_555 1_555
C79 C68 1_555 1_555
H50 C79 1_555 1_555
C80 C70 1_555 1_555
H51 C80 1_555 1_555
C81 C73 1_555 1_555
H52 C81 1_555 1_555
C82 C85 1_555 1_555
C83 C72 1_555 1_555
C84 C69 1_555 1_555
C85 H53 1_555 1_555
C86 C80 1_555 1_555
H54 C86 1_555 1_555
C87 C75 1_555 1_555
H55 C87 1_555 1_555
C88 C68 1_555 1_555
H56 C88 1_555 1_555
C89 C79 1_555 1_555
H57 C89 1_555 1_555
C90 C70 1_555 1_555
H58 C90 1_555 1_555
C91 C84 1_555 1_555
H59 C91 1_555 1_555
C92 C59 1_555 1_555
C93 C69 1_555 1_555
H60 C93 1_555 1_555
C94 C56 1_555 1_555
N4 C82 1_555 1_555
O7 C92 1_555 1_555
O8 C92 1_555 1_555
O9 Zn2 1_555 1_555
O10 C94 1_555 1_555
O11 C94 1_555 1_555
O12 Zn3 1_555 1_555
O13 C74 1_555 1_555
Zn2 N1 1_555 1_555
Zn3 O13 1_555 1_555
O2_2 Zn1 1_555 1_555
O4G Zn3 1_555 1_555
O5E Zn3 1_555 1_555
O6B Zn1 1_555 1_555
Zn1_2 O2 1_555 1_555
Zn1B O6 1_555 1_555
O7_2 Zn2 1_555 1_555
O8_2 Zn3 1_555 1_555
O10B Zn3 1_555 1_555
O11B Zn2 1_555 1_555
Zn2_2 O7 1_555 1_555
Zn2B O11 1_555 1_555
Zn3_2 O8 1_555 1_555
Zn3B O10 1_555 1_555
Zn3E O5 1_555 1_555
Zn3G O4 1_555 1_555
C2 C33 1_555 1_555
C3 C53 1_555 1_555
C3 N1 1_555 1_555
C5 C50 1_555 1_555
C10 C35 1_555 1_555
C14 C23 1_555 1_555
C18 N2 1_555 1_555
C21 C24 1_555 1_555
C25 C37 1_555 1_555
C27 C40 1_555 1_555
C28 C31 1_555 1_555
C29 C47 1_555 1_555
C30 C31 1_555 1_555
C32 C38 1_555 1_555
C39 C45 1_555 1_555
C43 C48 1_555 1_555
C43 C51 1_555 1_555
C45 N2 1_555 1_555
C51 C52 1_555 1_555
C55 N3 1_555 1_555
O3 Zn1 1_555 1_555
C61 C63 1_555 1_555
C61 C66 1_555 1_555
C62 C64 1_555 1_555
C65 C67 1_555 1_555
C72 C88 1_555 1_555
C75 C93 1_555 1_555
C76 C78 1_555 1_555
C77 C81 1_555 1_555
C82 C86 1_555 1_555
C83 C89 1_555 1_555
C83 N4 1_555 1_555
C84 N4 1_555 1_555
C85 C90 1_555 1_555
C87 C91 1_555 1_555

#END
