
#######################################################################
#
#                 Cambridge Crystallographic Data Centre
#                                CCDC 
#
#######################################################################
#
# If this CIF has been generated from an entry in the Cambridge 
# Structural Database, then it will include bibliographic, chemical, 
# crystal, experimental, refinement or atomic coordinate data resulting 
# from the CCDC's data processing and validation procedures.
#
#######################################################################

data_YUKBIP
_chemical_formula_moiety         '(C6 H18 Al4 O18 P6)n'
_symmetry_cell_setting           rhombohedral
_symmetry_space_group_name_H-M   'R 3 c'
_symmetry_Int_Tables_number      161
_space_group_name_Hall           'R 3 -2"c'
loop_
_symmetry_equiv_pos_site_id
_symmetry_equiv_pos_as_xyz
1 x,y,z
2 -y,x-y,z
3 -y,-x,1/2+z
4 -x+y,-x,z
5 x,x-y,1/2+z
6 -x+y,y,1/2+z
7 1/3+x,2/3+y,2/3+z
8 1/3-y,2/3+x-y,2/3+z
9 1/3-y,2/3-x,1/6+z
10 1/3-x+y,2/3-x,2/3+z
11 1/3+x,2/3+x-y,1/6+z
12 1/3-x+y,2/3+y,1/6+z
13 2/3+x,1/3+y,1/3+z
14 2/3-y,1/3+x-y,1/3+z
15 2/3-y,1/3-x,5/6+z
16 2/3-x+y,1/3-x,1/3+z
17 2/3+x,1/3+x-y,5/6+z
18 2/3-x+y,1/3+y,5/6+z
_cell_length_a                   24.650(2)
_cell_length_b                   24.650(2)
_cell_length_c                   25.299(5)
_cell_angle_alpha                90
_cell_angle_beta                 90
_cell_angle_gamma                120
_cell_volume                     13312.8
loop_
_atom_site_label
_atom_site_type_symbol
_atom_site_fract_x
_atom_site_fract_y
_atom_site_fract_z
Al1 Al 0.3366(2) 0.3385(2) 0.4705
Al2 Al 0.4774(2) 0.4286(2) 0.3369(3)
Al3 Al 0.2438(2) 0.3722(2) 0.3260(3)
Al4 Al 0.4223(2) 0.4822(2) 0.6044(3)
P1 P 0.4058(2) 0.2983(2) 0.3847(3)
P2 P 0.2049(2) 0.2654(2) 0.4069(3)
P3 P 0.3722(2) 0.4500(2) 0.3875(3)
P4 P 0.2936(2) 0.4066(2) 0.5555(3)
P5 P 0.4712(2) 0.4094(2) 0.5317(3)
P6 P 0.2758(2) 0.2114(2) 0.5381(3)
O1 O 0.3555(5) 0.3097(5) 0.4068(5)
O2 O 0.2536(5) 0.3051(5) 0.4461(5)
O3 O 0.3566(5) 0.4159(5) 0.4389(5)
O4 O 0.3110(5) 0.3615(5) 0.5331(5)
O5 O 0.4207(6) 0.3755(6) 0.4926(5)
O6 O 0.3179(5) 0.2637(5) 0.5029(5)
O7 O 0.4633(5) 0.3600(5) 0.3666(5)
O8 O 0.4313(6) 0.4573(6) 0.3622(5)
O9 O 0.2488(5) 0.3773(6) 0.6026(5)
O10 O 0.2602(6) 0.1495(5) 0.5149(5)
O11 O 0.2102(6) 0.2984(7) 0.3555(5)
O12 O 0.3192(5) 0.4219(6) 0.3486(5)
O13 O 0.5327(5) 0.4592(5) 0.5052(5)
O14 O 0.3064(6) 0.2171(6) 0.5924(5)
O15 O 0.3805(5) 0.2536(5) 0.3369(5)
O16 O 0.1393(5) 0.2439(5) 0.4309(5)
O17 O 0.3515(5) 0.4665(5) 0.5748(5)
O18 O 0.4544(5) 0.4421(5) 0.5751(5)
C1 C 0.4313(10) 0.2614(10) 0.4303(8)
H1 H 0.4609(45) 0.2526(53) 0.4135(16)
H2 H 0.3960(13) 0.2231(29) 0.4423(37)
H3 H 0.4508(51) 0.2887(25) 0.4599(24)
C2 C 0.2067(9) 0.1966(8) 0.3922(8)
H4 H 0.1712(33) 0.1697(27) 0.3706(43)
H5 H 0.2052(60) 0.1754(32) 0.4244(9)
H6 H 0.2445(29) 0.2071(9) 0.3734(44)
C3 C 0.3908(11) 0.5293(10) 0.4015(9)
H7 H 0.4219(50) 0.5465(25) 0.4288(42)
H8 H 0.3537(17) 0.5294(12) 0.4130(55)
H9 H 0.4066(66) 0.5543(19) 0.3701(18)
C4 C 0.2543(9) 0.4275(9) 0.5087(7)
H10 H 0.2484(48) 0.4604(37) 0.5228(19)
H11 H 0.2143(23) 0.3918(16) 0.5008(33)
H12 H 0.2788(26) 0.4419(50) 0.4769(18)
C5 C 0.4893(11) 0.3573(10) 0.5653(8)
H13 H 0.5166(53) 0.3787(21) 0.5945(35)
H14 H 0.5097(60) 0.3430(52) 0.5415(17)
H15 H 0.4514(12) 0.3221(33) 0.5782(47)
C6 C 0.2039(8) 0.2092(8) 0.5505(7)
H16 H 0.2121(9) 0.2476(23) 0.5672(41)
H17 H 0.1784(23) 0.1746(33) 0.5733(37)
H18 H 0.1824(26) 0.2044(54) 0.5177(8)
O15M O 0.4131(5) 0.4602(7) 0.6702(5)
O16J O 0.4726(5) 0.5621(7) 0.5976(5)
O9I O 0.4618(8) 0.4179(5) 0.2693(5)
O10Q O 0.5560(8) 0.4828(5) 0.3482(5)
O13P O 0.1994(5) 0.4068(7) 0.3385(5)
O14I O 0.2440(8) 0.3603(6) 0.2591(5)
Al4P Al 0.0890(2) 0.2734(3) 0.4377(3)
Al3M Al 0.2945(2) 0.2049(3) 0.6593(3)
Al2K Al 0.2845(3) 0.0953(2) 0.5036(3)
Al4I Al 0.3932(3) 0.2444(2) 0.2711(3)
Al3J Al 0.5771(2) 0.5383(3) 0.4927(3)
Al2M Al 0.2381(2) 0.3821(3) 0.6702(3)
loop_
_geom_bond_atom_site_label_1
_geom_bond_atom_site_label_2
_geom_bond_site_symmetry_1
_geom_bond_site_symmetry_2
Al1 O1 1_555 1_555
Al2 O7 1_555 1_555
Al3 O11 1_555 1_555
Al4 O17 1_555 1_555
P1 O1 1_555 1_555
P2 O2 1_555 1_555
P3 O3 1_555 1_555
P4 O4 1_555 1_555
P5 O5 1_555 1_555
P6 O6 1_555 1_555
O2 Al1 1_555 1_555
O3 Al1 1_555 1_555
O4 Al1 1_555 1_555
O5 Al1 1_555 1_555
O6 Al1 1_555 1_555
O7 P1 1_555 1_555
O8 Al2 1_555 1_555
O9 P4 1_555 1_555
O10 P6 1_555 1_555
O11 P2 1_555 1_555
O12 Al3 1_555 1_555
O13 P5 1_555 1_555
O14 P6 1_555 1_555
O15 P1 1_555 1_555
O16 P2 1_555 1_555
O17 P4 1_555 1_555
O18 Al4 1_555 1_555
C1 P1 1_555 1_555
H1 C1 1_555 1_555
H2 C1 1_555 1_555
H3 C1 1_555 1_555
C2 P2 1_555 1_555
H4 C2 1_555 1_555
H5 C2 1_555 1_555
H6 C2 1_555 1_555
C3 P3 1_555 1_555
H7 C3 1_555 1_555
H8 C3 1_555 1_555
H9 C3 1_555 1_555
C4 P4 1_555 1_555
H10 C4 1_555 1_555
H11 C4 1_555 1_555
H12 C4 1_555 1_555
C5 P5 1_555 1_555
H13 C5 1_555 1_555
H14 C5 1_555 1_555
H15 C5 1_555 1_555
C6 P6 1_555 1_555
H16 C6 1_555 1_555
H17 C6 1_555 1_555
H18 C6 1_555 1_555
O15M Al4 1_555 1_555
O16J Al4 1_555 1_555
O9I Al2 1_555 1_555
O10Q Al2 1_555 1_555
O13P Al3 1_555 1_555
O14I Al3 1_555 1_555
Al4P O16 1_555 1_555
Al3M O14 1_555 1_555
Al2K O10 1_555 1_555
Al4I O15 1_555 1_555
Al3J O13 1_555 1_555
Al2M O9 1_555 1_555
P3 O8 1_555 1_555
P3 O12 1_555 1_555
P5 O18 1_555 1_555

#END
