
#######################################################################
#
#                 Cambridge Crystallographic Data Centre
#                                CCDC 
#
#######################################################################
#
# If this CIF has been generated from an entry in the Cambridge 
# Structural Database, then it will include bibliographic, chemical, 
# crystal, experimental, refinement or atomic coordinate data resulting 
# from the CCDC's data processing and validation procedures.
#
#######################################################################

data_BEXVAD01
_chemical_formula_moiety         'C16 H16 Co7 O20'
_symmetry_cell_setting           monoclinic
_symmetry_space_group_name_H-M   'C 2/c'
_symmetry_Int_Tables_number      15
_space_group_name_Hall           '-C 2yc'
loop_
_symmetry_equiv_pos_site_id
_symmetry_equiv_pos_as_xyz
1 x,y,z
2 -x,y,1/2-z
3 1/2+x,1/2+y,z
4 1/2-x,1/2+y,1/2-z
5 -x,-y,-z
6 x,-y,1/2+z
7 1/2-x,1/2-y,-z
8 1/2+x,1/2-y,1/2+z
_cell_length_a                   16.791(3)
_cell_length_b                   14.107(3)
_cell_length_c                   12.228(2)
_cell_angle_alpha                90
_cell_angle_beta                 119.02(3)
_cell_angle_gamma                90
_cell_volume                     2532.81
loop_
_atom_site_label
_atom_site_type_symbol
_atom_site_fract_x
_atom_site_fract_y
_atom_site_fract_z
Co1 Co 0.09662(3) 0.16872(3) 0.89762(4)
C1 C 0.4234(2) -0.2142(2) 0.8221(3)
C2 C 0.3988(2) -0.1402(3) 0.8891(3)
C3 C 0.3160(2) -0.0921(2) 0.8330(3)
H1 H 0.2733 -0.1042 0.7502
C4 C 0.2977(2) -0.0260(2) 0.9017(3)
C5 C 0.3613(2) -0.0070(3) 1.0258(3)
H2 H 0.3487 0.0379 1.0709
C6 C 0.4436(2) -0.0554(4) 1.0818(3)
C7 C 0.4609(2) -0.1218(3) 1.0128(4)
H3 H 0.5157 -0.1549 1.0505
C8 C 0.2064(2) 0.0222(2) 0.8475(3)
O1 O 0.48824(19) -0.2680(2) 0.8922(3)
O2 O 0.38117(19) -0.22119(19) 0.7061(2)
O3 O 0.13965(17) -0.0132(2) 0.7559(3)
O4 O 0.20370(16) 0.09694(19) 0.9019(3)
O5 O 0.50036(14) -0.06654(13) 1.20424(18)
O6 O 0.18457(14) 0.24478(13) 1.05797(18)
H4 H 0.1765 0.2286 1.1265
H5 H 0.1764 0.3083 1.0472
O7 O 0.08882(14) 0.06440(13) 1.01623(18)
H6 H 0.1134 0.0493 1.0989
H7 H 0.0970 0.0135 0.9781
O8 O 0.00000(14) 0.07962(13) 0.75000(18)
H8 H 0.0344 0.0413 0.7362
C1A C 0.5766(2) -0.2142(2) 1.6779(3)
C2A C 0.6012(2) -0.1402(3) 1.6109(3)
C3A C 0.6840(2) -0.0921(2) 1.6670(3)
H1A H 0.7267 -0.1042 1.7498
C4A C 0.7023(2) -0.0260(2) 1.5983(3)
C5A C 0.6387(2) -0.0070(3) 1.4742(3)
H2A H 0.6513 0.0379 1.4291
C6A C 0.5564(2) -0.0554(4) 1.4182(3)
C7A C 0.5391(2) -0.1218(3) 1.4872(4)
H3A H 0.4843 -0.1549 1.4495
C8A C 0.7936(2) 0.0222(2) 1.6525(3)
O1A O 0.51176(19) -0.2680(2) 1.6078(3)
O2A O 0.61883(19) -0.22119(19) 1.7939(2)
O3A O 0.86035(17) -0.0132(2) 1.7441(3)
O4A O 0.79630(16) 0.09694(19) 1.5981(3)
O5A O 0.49964(14) -0.06654(13) 1.29576(18)
H8A H -0.0344 0.0413 0.7638
Co1A Co -0.09662(3) 0.16872(3) 0.60238(4)
O6A O -0.18457(14) 0.24478(13) 0.44203(18)
H4A H -0.1765 0.2286 0.3735
H5A H -0.1764 0.3083 0.4528
O7A O -0.08882(14) 0.06440(13) 0.48377(18)
H6A H -0.1134 0.0493 0.4011
H7A H -0.0970 0.0135 0.5219
Co1A_2 Co 0.90338(3) 0.16872(3) 1.60238(4)
Co1B Co 0.59662(3) -0.33128(3) 0.89762(4)
Co1B_2 Co 0.59662(3) -0.33128(3) 1.89762(4)
Co1C Co 0.40338(3) -0.33128(3) 0.60238(4)
Co1C_2 Co 0.40338(3) -0.33128(3) 1.60238(4)
O1B O -0.01176(19) 0.2320(2) 0.8922(3)
O1C O 0.01176(19) 0.2320(2) 0.6078(3)
O2B O -0.11883(19) 0.27881(19) 0.7061(2)
O2C O 0.11883(19) 0.27881(19) 0.7939(2)
O4A_2 O -0.20370(16) 0.09694(19) 0.5981(3)
loop_
_geom_bond_atom_site_label_1
_geom_bond_atom_site_label_2
_geom_bond_site_symmetry_1
_geom_bond_site_symmetry_2
Co1 O4 1_555 1_555
C1 C2 1_555 1_555
C2 C3 1_555 1_555
C3 H1 1_555 1_555
C4 C3 1_555 1_555
C5 C4 1_555 1_555
H2 C5 1_555 1_555
C6 C5 1_555 1_555
C7 C2 1_555 1_555
H3 C7 1_555 1_555
C8 C4 1_555 1_555
O1 C1 1_555 1_555
O2 C1 1_555 1_555
O3 C8 1_555 1_555
O4 C8 1_555 1_555
O5 C6 1_555 1_555
O6 Co1 1_555 1_555
H4 O6 1_555 1_555
H5 O6 1_555 1_555
O7 Co1 1_555 1_555
H6 O7 1_555 1_555
H7 O7 1_555 1_555
O8 Co1 1_555 1_555
H8 O8 1_555 1_555
C1A C2A 1_555 1_555
C2A C3A 1_555 1_555
C3A H1A 1_555 1_555
C4A C3A 1_555 1_555
C5A C4A 1_555 1_555
H2A C5A 1_555 1_555
C6A C5A 1_555 1_555
C7A C2A 1_555 1_555
H3A C7A 1_555 1_555
C8A C4A 1_555 1_555
O1A C1A 1_555 1_555
O2A C1A 1_555 1_555
O3A C8A 1_555 1_555
O4A C8A 1_555 1_555
O5A O5 1_555 1_555
H8A O8 1_555 1_555
Co1A O8 1_555 1_555
O6A Co1A 1_555 1_555
H4A O6A 1_555 1_555
H5A O6A 1_555 1_555
O7A Co1A 1_555 1_555
H6A O7A 1_555 1_555
H7A O7A 1_555 1_555
Co1A_2 O4A 1_555 1_555
Co1B O1 1_555 1_555
Co1B_2 O2A 1_555 1_555
Co1C O2 1_555 1_555
Co1C_2 O1A 1_555 1_555
O1B Co1 1_555 1_555
O1C Co1A 1_555 1_555
O2B Co1A 1_555 1_555
O2C Co1 1_555 1_555
O4A_2 Co1A 1_555 1_555
C6 C7 1_555 1_555
C6A C7A 1_555 1_555
C6A O5A 1_555 1_555

#END
