
#######################################################################
#
#                 Cambridge Crystallographic Data Centre
#                                CCDC 
#
#######################################################################
#
# If this CIF has been generated from an entry in the Cambridge 
# Structural Database, then it will include bibliographic, chemical, 
# crystal, experimental, refinement or atomic coordinate data resulting 
# from the CCDC's data processing and validation procedures.
#
#######################################################################

data_NIBKOA
_chemical_formula_moiety         'C36 H20 Dy10 O32'
_symmetry_cell_setting           orthorhombic
_symmetry_space_group_name_H-M   'C 2 2 21'
_symmetry_Int_Tables_number      20
_space_group_name_Hall           'C 2c 2'
loop_
_symmetry_equiv_pos_site_id
_symmetry_equiv_pos_as_xyz
1 x,y,z
2 -x,-y,1/2+z
3 x,-y,-z
4 -x,y,1/2-z
5 1/2+x,1/2+y,z
6 1/2-x,1/2-y,1/2+z
7 1/2+x,1/2-y,-z
8 1/2-x,1/2+y,1/2-z
_cell_length_a                   14.7885(10)
_cell_length_b                   16.1587(8)
_cell_length_c                   16.5084(8)
_cell_angle_alpha                90
_cell_angle_beta                 90
_cell_angle_gamma                90
_cell_volume                     3944.9
loop_
_atom_site_label
_atom_site_type_symbol
_atom_site_fract_x
_atom_site_fract_y
_atom_site_fract_z
Dy1 Dy 0.66206(4) 0.0000 1.0000
Dy2 Dy 0.5000 0.16748(4) 0.7500
C1 C 0.6307(9) 0.2936(7) 0.7848(7)
C2 C 0.7009(8) 0.3553(7) 0.8059(6)
C3 C 0.7094(10) 0.3812(8) 0.8857(8)
H1 H 0.6723 0.3585 0.9253
C4 C 0.7702(12) 0.4382(9) 0.9060(7)
C5 C 0.8220(10) 0.4768(7) 0.8463(6)
H2 H 0.8632 0.5177 0.8606
C6 C 0.8121(7) 0.4544(7) 0.7654(5)
C7 C 0.7510(7) 0.3921(6) 0.7459(9)
H3 H 0.7442 0.3753 0.6924
C8 C 0.8643(7) 0.4963(8) 0.7027(5)
C9 C 0.8037(15) 0.4562(17) 0.9946(16)
H4 H 0.7918 0.4097 1.0302
H5 H 0.8678 0.4688 0.9956
C10 C 0.4967(9) 0.1410(6) 0.9562(6)
C11 C 0.4524(7) 0.1949(7) 1.0170(6)
C12 C 0.3917(6) 0.2572(6) 0.9953(9)
H6 H 0.3778 0.2665 0.9411
C13 C 0.3524(8) 0.3050(7) 1.0550(6)
C14 C 0.3785(9) 0.2926(9) 1.1366(7)
H7 H 0.3549 0.3262 1.1771
C15 C 0.4390(10) 0.2306(10) 1.1560(7)
C16 C 0.4747(8) 0.1837(8) 1.0984(6)
H8 H 0.5156 0.1425 1.1126
C17 C 0.2911(8) 0.3749(9) 1.0311(7)
C18 C 0.451(2) 0.202(2) 1.2453(19)
H9 H 0.3998 0.2184 1.2785
H10 H 0.4600 0.1431 1.2493
O1 O 0.5665(7) 0.2781(7) 0.8306(6)
O2 O 0.6384(7) 0.2478(6) 0.7239(5)
O3 O 0.8682(5) 0.4662(4) 0.6344(4)
O4 O 0.9007(6) 0.5664(5) 0.7238(4)
O5 O 0.4595(5) 0.1428(4) 0.8832(4)
O6 O 0.5568(6) 0.0963(5) 0.9772(4)
O7 O 0.2597(9) 0.3802(8) 0.9655(6)
O8 O 0.2707(8) 0.4291(6) 1.0832(6)
O9 O 0.4734(13) 0.2447(13) 1.2341(10)
O10 O 0.7517(10) 0.4744(11) 0.9836(9)
C1B C 0.6307(9) 0.7064(7) 1.2152(7)
C2B C 0.7009(8) 0.6447(7) 1.1941(6)
C3B C 0.7094(10) 0.6188(8) 1.1143(8)
H1B H 0.6723 0.6415 1.0747
C4B C 0.7702(12) 0.5618(9) 1.0940(7)
C5B C 0.8220(10) 0.5232(7) 1.1537(6)
H2B H 0.8632 0.4823 1.1394
C6B C 0.8121(7) 0.5456(7) 1.2346(5)
C7B C 0.7510(7) 0.6079(6) 1.2541(9)
H3B H 0.7442 0.6247 1.3076
C8B C 0.8643(7) 0.5037(8) 1.2973(5)
C9B C 0.8037(15) 0.5438(17) 1.0054(16)
H4B H 0.7918 0.5903 0.9698
H5B H 0.8678 0.5312 1.0044
O1B O 0.5665(7) 0.7219(7) 1.1694(6)
O2B O 0.6384(7) 0.7522(6) 1.2761(5)
O3B O 0.8682(5) 0.5338(4) 1.3656(4)
O4B O 0.9007(6) 0.4336(5) 1.2762(4)
O10B O 0.7517(10) 0.5256(11) 1.0164(9)
C10C C 0.5033(9) 0.1410(6) 1.5438(6)
C11C C 0.5476(7) 0.1949(7) 1.4830(6)
C12C C 0.6083(6) 0.2572(6) 1.5047(9)
H6C H 0.6222 0.2665 1.5589
C13C C 0.6476(8) 0.3050(7) 1.4450(6)
C14C C 0.6215(9) 0.2926(9) 1.3634(7)
H7C H 0.6451 0.3262 1.3229
C15C C 0.5610(10) 0.2306(10) 1.3440(7)
C16C C 0.5253(8) 0.1837(8) 1.4016(6)
H8C H 0.4844 0.1425 1.3874
C17C C 0.7089(8) 0.3749(9) 1.4689(7)
C18C C 0.549(2) 0.202(2) 1.2547(19)
H9C H 0.6002 0.2184 1.2215
H10C H 0.5400 0.1431 1.2507
O5C O 0.5405(5) 0.1428(4) 1.6168(4)
O6C O 0.4432(6) 0.0963(5) 1.5228(4)
O7C O 0.7403(9) 0.3802(8) 1.5345(6)
O8C O 0.7293(8) 0.4291(6) 1.4168(6)
O9C O 0.5266(13) 0.2447(13) 1.2659(10)
Dy1A Dy 0.33794(4) -0.0000 1.5000
Dy1D Dy 0.16206(4) 0.5000 1.0000
Dy1E Dy 0.83794(4) 0.5000 0.5000
Dy1E_2 Dy 0.83794(4) 0.5000 1.5000
Dy2_2 Dy 0.5000 0.16748(4) 1.7500
Dy2A Dy 0.5000 0.83252(4) 1.2500
Dy2D Dy 1.0000 0.66748(4) 0.7500
Dy2E Dy 1.0000 0.33252(4) 1.2500
O1C O 0.4335(7) 0.2781(7) 0.6694(6)
O2C O 0.3616(7) 0.2478(6) 0.7761(5)
O3E O 0.6318(5) 0.0338(4) 1.1344(4)
O3G O 0.6318(5) -0.0338(4) 0.8656(4)
O4D O 0.4007(6) 0.0664(5) 0.7238(4)
O4G O 0.5993(6) 0.0664(5) 0.7762(4)
O5C_2 O 0.5405(5) 0.1428(4) 0.6168(4)
O6B O 0.5568(6) -0.0963(5) 1.0228(4)
O7D O 0.7597(9) -0.1198(8) 0.9655(6)
O7F O 0.7597(9) 0.1198(8) 1.0345(6)
O8D O 0.7707(8) -0.0709(6) 1.0832(6)
O8F O 0.7707(8) 0.0709(6) 0.9168(6)
loop_
_geom_bond_atom_site_label_1
_geom_bond_atom_site_label_2
_geom_bond_site_symmetry_1
_geom_bond_site_symmetry_2
Dy1 O6 1_555 1_555
Dy2 O1 1_555 1_555
C1 C2 1_555 1_555
C2 C3 1_555 1_555
C3 H1 1_555 1_555
C4 C3 1_555 1_555
C5 C4 1_555 1_555
H2 C5 1_555 1_555
C6 C5 1_555 1_555
C7 C2 1_555 1_555
H3 C7 1_555 1_555
C8 C6 1_555 1_555
C9 C4 1_555 1_555
H4 C9 1_555 1_555
H5 C9 1_555 1_555
C10 C11 1_555 1_555
C11 C12 1_555 1_555
C12 H6 1_555 1_555
C13 C12 1_555 1_555
C14 C13 1_555 1_555
H7 C14 1_555 1_555
C15 C14 1_555 1_555
C16 C11 1_555 1_555
H8 C16 1_555 1_555
C17 C13 1_555 1_555
C18 C15 1_555 1_555
H9 C18 1_555 1_555
H10 C18 1_555 1_555
O1 C1 1_555 1_555
O2 Dy2 1_555 1_555
O3 C8 1_555 1_555
O4 C8 1_555 1_555
O5 Dy2 1_555 1_555
O6 C10 1_555 1_555
O7 C17 1_555 1_555
O8 C17 1_555 1_555
O9 C15 1_555 1_555
O10 C4 1_555 1_555
C1B C2B 1_555 1_555
C2B C3B 1_555 1_555
C3B H1B 1_555 1_555
C4B C3B 1_555 1_555
C5B C4B 1_555 1_555
H2B C5B 1_555 1_555
C6B C5B 1_555 1_555
C7B C2B 1_555 1_555
H3B C7B 1_555 1_555
C8B C6B 1_555 1_555
C9B C9 1_555 1_555
H4B C9B 1_555 1_555
H5B C9B 1_555 1_555
O1B C1B 1_555 1_555
O2B C1B 1_555 1_555
O3B C8B 1_555 1_555
O4B C8B 1_555 1_555
O10B C9 1_555 1_555
C10C C11C 1_555 1_555
C11C C12C 1_555 1_555
C12C H6C 1_555 1_555
C13C C12C 1_555 1_555
C14C C13C 1_555 1_555
H7C C14C 1_555 1_555
C15C C14C 1_555 1_555
C16C C11C 1_555 1_555
H8C C16C 1_555 1_555
C17C C13C 1_555 1_555
C18C C18 1_555 1_555
H9C C18C 1_555 1_555
H10C C18C 1_555 1_555
O5C C10C 1_555 1_555
O6C C10C 1_555 1_555
O7C C17C 1_555 1_555
O8C C17C 1_555 1_555
O9C C18 1_555 1_555
Dy1A O6C 1_555 1_555
Dy1D O7 1_555 1_555
Dy1E O3 1_555 1_555
Dy1E_2 O3B 1_555 1_555
Dy2_2 O5C 1_555 1_555
Dy2A O1B 1_555 1_555
Dy2D O4 1_555 1_555
Dy2E O4B 1_555 1_555
O1C Dy2 1_555 1_555
O2C Dy2 1_555 1_555
O3E Dy1 1_555 1_555
O3G Dy1 1_555 1_555
O4D Dy2 1_555 1_555
O4G Dy2 1_555 1_555
O5C_2 Dy2 1_555 1_555
O6B Dy1 1_555 1_555
O7D Dy1 1_555 1_555
O7F Dy1 1_555 1_555
O8D Dy1 1_555 1_555
O8F Dy1 1_555 1_555
C1 O2 1_555 1_555
C6 C7 1_555 1_555
C9 O10 1_555 1_555
C10 O5 1_555 1_555
C15 C16 1_555 1_555
C18 O9 1_555 1_555
O8 Dy1D 1_555 1_555
O9 C18C 1_555 1_555
O9 O9C 1_555 1_555
O10 C9B 1_555 1_555
O10 O10B 1_555 1_555
C4B C9B 1_555 1_555
C4B O10B 1_555 1_555
C6B C7B 1_555 1_555
C9B O10B 1_555 1_555
O2B Dy2A 1_555 1_555
C15C C16C 1_555 1_555
C15C C18C 1_555 1_555
C15C O9C 1_555 1_555
C18C O9C 1_555 1_555
O7C Dy1E_2 1_555 1_555
O8C Dy1E_2 1_555 1_555

#END
