
#######################################################################
#
#                 Cambridge Crystallographic Data Centre
#                                CCDC 
#
#######################################################################
#
# If this CIF has been generated from an entry in the Cambridge 
# Structural Database, then it will include bibliographic, chemical, 
# crystal, experimental, refinement or atomic coordinate data resulting 
# from the CCDC's data processing and validation procedures.
#
#######################################################################

data_NIBKUG
_chemical_formula_moiety         'C36 H20 O32 Tb10'
_symmetry_cell_setting           orthorhombic
_symmetry_space_group_name_H-M   'C 2 2 21'
_symmetry_Int_Tables_number      20
_space_group_name_Hall           'C 2c 2'
loop_
_symmetry_equiv_pos_site_id
_symmetry_equiv_pos_as_xyz
1 x,y,z
2 -x,-y,1/2+z
3 x,-y,-z
4 -x,y,1/2-z
5 1/2+x,1/2+y,z
6 1/2-x,1/2-y,1/2+z
7 1/2+x,1/2-y,-z
8 1/2-x,1/2+y,1/2-z
_cell_length_a                   14.748(3)
_cell_length_b                   16.301(4)
_cell_length_c                   16.572(4)
_cell_angle_alpha                90
_cell_angle_beta                 90
_cell_angle_gamma                90
_cell_volume                     3984.03
loop_
_atom_site_label
_atom_site_type_symbol
_atom_site_fract_x
_atom_site_fract_y
_atom_site_fract_z
Tb1 Tb 0.337865(14) 0.0000 0.5000
Tb2 Tb 0.5000 0.167520(13) 0.2500
C1 C 0.2050(4) 0.1248(3) 0.4680(3)
C2 C 0.14523(6) 0.19235(7) 0.4448(2)
C3 C 0.11995(5) 0.20242(6) 0.36476(19)
H1 H 0.1435 0.1682 0.3251
C4 C 0.05997(7) 0.26325(8) 0.34478(15)
C5 C 0.02397(16) 0.31480(18) 0.4017(2)
H2 H -0.0167 0.3556 0.3866
C6 C 0.04925(17) 0.30539(19) 0.4840(2)
C7 C 0.10988(16) 0.24306(18) 0.5042(3)
H3 H 0.1267 0.2355 0.5578
C8 C 0.0038(4) 0.3581(2) 0.5447(2)
C9 C 0.0439(2) 0.2608(3) 0.2559(2)
H4 H 0.0874 0.2972 0.2305
H5 H 0.0572 0.2056 0.2373
C10 C 0.3646(3) -0.0038(3) 0.29860(18)
C11 C 0.31353(5) -0.04404(5) 0.23376(17)
C12 C 0.25174(4) -0.10678(4) 0.25340(17)
H6 H 0.2460 -0.1235 0.3068
C13 C 0.20005(7) -0.14348(7) 0.1951(2)
C14 C 0.20779(17) -0.11860(16) 0.1119(2)
H7 H 0.1729 -0.1432 0.0719
C15 C 0.26793(18) -0.05779(16) 0.09363(15)
C16 C 0.32001(17) -0.02092(15) 0.1531(2)
H8 H 0.3604 0.0204 0.1387
C17 C 0.1312(3) -0.2072(2) 0.2162(2)
C18 C 0.2642(3) -0.0421(3) 0.0044(2)
H9 H 0.3072 -0.0783 -0.0219
H10 H 0.2042 -0.0568 -0.0148
O1 O 0.2296(3) 0.0718(2) 0.4150(2)
O2 O 0.2328(3) 0.1142(2) 0.5352(2)
O3 O 0.04091(18) 0.35811(16) 0.61626(15)
O4 O -0.0547(2) 0.4036(2) 0.52409(17)
O5 O 0.36854(18) -0.03342(15) 0.36493(15)
O6 O 0.3998(2) 0.06609(18) 0.27715(17)
O7 O 0.1420(3) -0.2544(2) 0.27714(19)
O8 O 0.0655(3) -0.2215(2) 0.1701(2)
O9 O 0.0303(2) 0.2789(2) 0.2683(2)
O10 O 0.2805(3) -0.0296(2) 0.0173(2)
C1C C -0.2050(4) 0.1248(3) 0.0320(3)
C2C C -0.14523(6) 0.19235(7) 0.0552(2)
C3C C -0.11995(5) 0.20242(6) 0.13524(19)
H1C H -0.1435 0.1682 0.1749
C4C C -0.05997(7) 0.26325(8) 0.15522(15)
C5C C -0.02397(16) 0.31480(18) 0.0983(2)
H2C H 0.0167 0.3556 0.1134
C6C C -0.04925(17) 0.30539(19) 0.0160(2)
C7C C -0.10988(16) 0.24306(18) -0.0042(3)
H3C H -0.1267 0.2355 -0.0578
C8C C -0.0038(4) 0.3581(2) -0.0447(2)
C9C C -0.0439(2) 0.2608(3) 0.2441(2)
H4C H -0.0874 0.2972 0.2695
H5C H -0.0572 0.2056 0.2627
O1C O -0.2296(3) 0.0718(2) 0.0850(2)
O2C O -0.2328(3) 0.1142(2) -0.0352(2)
O3C O -0.04091(18) 0.35811(16) -0.11626(15)
O4C O 0.0547(2) 0.4036(2) -0.02409(17)
O9C O -0.0303(2) 0.2789(2) 0.2317(2)
C10B C 0.3646(3) 0.0038(3) -0.29860(18)
C11B C 0.31353(5) 0.04404(5) -0.23376(17)
C12B C 0.25174(4) 0.10678(4) -0.25340(17)
H6B H 0.2460 0.1235 -0.3068
C13B C 0.20005(7) 0.14348(7) -0.1951(2)
C14B C 0.20779(17) 0.11860(16) -0.1119(2)
H7B H 0.1729 0.1432 -0.0719
C15B C 0.26793(18) 0.05779(16) -0.09363(15)
C16B C 0.32001(17) 0.02092(15) -0.1531(2)
H8B H 0.3604 -0.0204 -0.1387
C17B C 0.1312(3) 0.2072(2) -0.2162(2)
C18B C 0.2642(3) 0.0421(3) -0.0044(2)
H9B H 0.3072 0.0783 0.0219
H10B H 0.2042 0.0568 0.0148
O5B O 0.36854(18) 0.03342(15) -0.36493(15)
O6B O 0.3998(2) -0.06609(18) -0.27715(17)
O7B O 0.1420(3) 0.2544(2) -0.27714(19)
O8B O 0.0655(3) 0.2215(2) -0.1701(2)
O10B O 0.2805(3) 0.0296(2) -0.0173(2)
Tb1_2 Tb 0.337865(14) 0.0000 -0.5000
Tb1A Tb -0.337865(14) 0.0000 0.0000
Tb1D Tb -0.162135(14) 0.5000 0.5000
Tb1E Tb 0.162135(14) 0.5000 0.0000
Tb2A Tb 0.5000 -0.167520(13) -0.2500
Tb2D Tb 0.0000 -0.332480(13) 0.2500
Tb2E Tb -0.0000 0.332480(13) -0.2500
Tb2E_2 Tb 0.0000 0.332480(13) 0.7500
O1B O 0.2296(3) -0.0718(2) 0.5850(2)
O2B O 0.2328(3) -0.1142(2) 0.4648(2)
O3E O 0.45909(18) 0.14189(16) 0.11626(15)
O3F O 0.54091(18) 0.14189(16) 0.38374(15)
O4D O 0.4453(2) -0.0964(2) 0.52409(17)
O4F O 0.4453(2) 0.0964(2) 0.47591(17)
O5B_2 O 0.36854(18) 0.03342(15) 0.63507(15)
O6C O 0.6002(2) 0.06609(18) 0.22285(17)
O7D O 0.6420(3) 0.2456(2) 0.27714(19)
O7G O 0.3580(3) 0.2456(2) 0.22286(19)
O8D O 0.5655(3) 0.2785(2) 0.1701(2)
O8G O 0.4345(3) 0.2785(2) 0.3299(2)
loop_
_geom_bond_atom_site_label_1
_geom_bond_atom_site_label_2
_geom_bond_site_symmetry_1
_geom_bond_site_symmetry_2
Tb1 O1 1_555 1_555
Tb2 O6 1_555 1_555
C1 C2 1_555 1_555
C2 C3 1_555 1_555
C3 H1 1_555 1_555
C4 C3 1_555 1_555
C5 C4 1_555 1_555
H2 C5 1_555 1_555
C6 C5 1_555 1_555
C7 C2 1_555 1_555
H3 C7 1_555 1_555
C8 C6 1_555 1_555
C9 C4 1_555 1_555
H4 C9 1_555 1_555
H5 C9 1_555 1_555
C10 C11 1_555 1_555
C11 C12 1_555 1_555
C12 H6 1_555 1_555
C13 C12 1_555 1_555
C14 C13 1_555 1_555
H7 C14 1_555 1_555
C15 C14 1_555 1_555
C16 C11 1_555 1_555
H8 C16 1_555 1_555
C17 C13 1_555 1_555
C18 C15 1_555 1_555
H9 C18 1_555 1_555
H10 C18 1_555 1_555
O1 C1 1_555 1_555
O2 Tb1 1_555 1_555
O3 C8 1_555 1_555
O4 C8 1_555 1_555
O5 Tb1 1_555 1_555
O6 C10 1_555 1_555
O7 C17 1_555 1_555
O8 C17 1_555 1_555
O9 C4 1_555 1_555
O10 C15 1_555 1_555
C1C C2C 1_555 1_555
C2C C3C 1_555 1_555
C3C H1C 1_555 1_555
C4C C3C 1_555 1_555
C5C C4C 1_555 1_555
H2C C5C 1_555 1_555
C6C C5C 1_555 1_555
C7C C2C 1_555 1_555
H3C C7C 1_555 1_555
C8C C6C 1_555 1_555
C9C C9 1_555 1_555
H4C C9C 1_555 1_555
H5C C9C 1_555 1_555
O1C C1C 1_555 1_555
O2C C1C 1_555 1_555
O3C C8C 1_555 1_555
O4C C8C 1_555 1_555
O9C C9 1_555 1_555
C10B C11B 1_555 1_555
C11B C12B 1_555 1_555
C12B H6B 1_555 1_555
C13B C12B 1_555 1_555
C14B C13B 1_555 1_555
H7B C14B 1_555 1_555
C15B C14B 1_555 1_555
C16B C11B 1_555 1_555
H8B C16B 1_555 1_555
C17B C13B 1_555 1_555
C18B C18 1_555 1_555
H9B C18B 1_555 1_555
H10B C18B 1_555 1_555
O5B C10B 1_555 1_555
O6B C10B 1_555 1_555
O7B C17B 1_555 1_555
O8B C17B 1_555 1_555
O10B C18 1_555 1_555
Tb1_2 O5B 1_555 1_555
Tb1A O1C 1_555 1_555
Tb1D O4 1_555 1_555
Tb1E O4C 1_555 1_555
Tb2A O6B 1_555 1_555
Tb2D O7 1_555 1_555
Tb2E O3C 1_555 1_555
Tb2E_2 O3 1_555 1_555
O1B Tb1 1_555 1_555
O2B Tb1 1_555 1_555
O3E Tb2 1_555 1_555
O3F Tb2 1_555 1_555
O4D Tb1 1_555 1_555
O4F Tb1 1_555 1_555
O5B_2 Tb1 1_555 1_555
O6C Tb2 1_555 1_555
O7D Tb2 1_555 1_555
O7G Tb2 1_555 1_555
O8D Tb2 1_555 1_555
O8G Tb2 1_555 1_555
C1 O2 1_555 1_555
C6 C7 1_555 1_555
C9 O9 1_555 1_555
H4 O9 1_555 1_555
H5 O9 1_555 1_555
C10 O5 1_555 1_555
C15 C16 1_555 1_555
C18 O10 1_555 1_555
H9 O10 1_555 1_555
H10 O10 1_555 1_555
O8 Tb2D 1_555 1_555
O9 C9C 1_555 1_555
O9 O9C 1_555 1_555
O10 C18B 1_555 1_555
O10 O10B 1_555 1_555
C4C C9C 1_555 1_555
C4C O9C 1_555 1_555
C6C C7C 1_555 1_555
C9C O9C 1_555 1_555
H4C O9C 1_555 1_555
H5C O9C 1_555 1_555
O2C Tb1A 1_555 1_555
C15B C16B 1_555 1_555
C15B C18B 1_555 1_555
C15B O10B 1_555 1_555
C18B O10B 1_555 1_555
H9B O10B 1_555 1_555
H10B O10B 1_555 1_555
O7B Tb2E 1_555 1_555
O8B Tb2E 1_555 1_555

#END
