
#######################################################################
#
#                 Cambridge Crystallographic Data Centre
#                                CCDC 
#
#######################################################################
#
# If this CIF has been generated from an entry in the Cambridge 
# Structural Database, then it will include bibliographic, chemical, 
# crystal, experimental, refinement or atomic coordinate data resulting 
# from the CCDC's data processing and validation procedures.
#
#######################################################################

data_NIBLER
_chemical_formula_moiety         'C36 H20 Eu10 O32'
_symmetry_cell_setting           orthorhombic
_symmetry_space_group_name_H-M   'C 2 2 21'
_symmetry_Int_Tables_number      20
_space_group_name_Hall           'C 2c 2'
loop_
_symmetry_equiv_pos_site_id
_symmetry_equiv_pos_as_xyz
1 x,y,z
2 -x,-y,1/2+z
3 x,-y,-z
4 -x,y,1/2-z
5 1/2+x,1/2+y,z
6 1/2-x,1/2-y,1/2+z
7 1/2+x,1/2-y,-z
8 1/2-x,1/2+y,1/2-z
_cell_length_a                   14.737(3)
_cell_length_b                   16.423(4)
_cell_length_c                   16.618(4)
_cell_angle_alpha                90
_cell_angle_beta                 90
_cell_angle_gamma                90
_cell_volume                     4021.98
loop_
_atom_site_label
_atom_site_type_symbol
_atom_site_fract_x
_atom_site_fract_y
_atom_site_fract_z
Eu1 Eu 0.340205(14) 0.0000 0.5000
Eu2 Eu 0.5000 0.170603(14) 0.2500
C1 C 0.2061(4) 0.1211(4) 0.4671(3)
C2 C 0.14562(6) 0.19254(7) 0.44420(19)
C3 C 0.11990(5) 0.20214(6) 0.36375(19)
H1 H 0.1441 0.1685 0.3242
C4 C 0.05935(7) 0.26095(8) 0.34380(14)
C5 C 0.02384(17) 0.31105(18) 0.4032(2)
H2 H -0.0173 0.3516 0.3892
C6 C 0.04864(18) 0.30166(19) 0.4827(2)
C7 C 0.10943(16) 0.24251(18) 0.5032(3)
H3 H 0.1265 0.2358 0.5567
C8 C 0.0059(4) 0.3563(3) 0.5447(2)
C9 C 0.0412(2) 0.2602(3) 0.2549(2)
H4 H 0.0824 0.2988 0.2300
H5 H 0.0572 0.2066 0.2348
C10 C 0.3674(3) -0.0015(3) 0.29706(18)
C11 C 0.31595(5) -0.04396(5) 0.23273(18)
C12 C 0.25313(4) -0.10612(4) 0.25173(18)
H6 H 0.2467 -0.1226 0.3050
C13 C 0.20115(7) -0.14297(7) 0.1929(2)
C14 C 0.21137(18) -0.11775(17) 0.1124(2)
H7 H 0.1767 -0.1422 0.0723
C15 C 0.27159(18) -0.05780(17) 0.09246(16)
C16 C 0.32455(18) -0.02045(16) 0.1528(2)
H8 H 0.3656 0.0202 0.1389
C17 C 0.1318(4) -0.2055(3) 0.2145(3)
C18 C 0.2670(3) -0.0443(3) 0.0030(3)
H9 H 0.3101 -0.0800 -0.0235
H10 H 0.2068 -0.0583 -0.0161
O1 O 0.2312(3) 0.0725(2) 0.4140(2)
O2 O 0.2363(3) 0.1158(2) 0.5343(2)
O3 O 0.0422(2) 0.3537(2) 0.61575(16)
O4 O -0.0519(2) 0.4017(2) 0.52396(16)
O5 O 0.37263(19) -0.03402(16) 0.36408(14)
O6 O 0.4016(3) 0.0679(2) 0.2774(2)
O7 O 0.1417(3) -0.2485(2) 0.2773(2)
O8 O 0.0701(3) -0.2235(2) 0.1663(2)
O9 O 0.0302(2) 0.2747(2) 0.2674(2)
O10 O 0.2848(3) -0.0304(2) 0.0160(2)
C1C C -0.2061(4) 0.1211(4) 0.0329(3)
C2C C -0.14562(6) 0.19254(7) 0.05580(19)
C3C C -0.11990(5) 0.20214(6) 0.13625(19)
H1C H -0.1441 0.1685 0.1758
C4C C -0.05935(7) 0.26095(8) 0.15620(14)
C5C C -0.02384(17) 0.31105(18) 0.0968(2)
H2C H 0.0173 0.3516 0.1108
C6C C -0.04864(18) 0.30166(19) 0.0173(2)
C7C C -0.10943(16) 0.24251(18) -0.0032(3)
H3C H -0.1265 0.2358 -0.0567
C8C C -0.0059(4) 0.3563(3) -0.0447(2)
C9C C -0.0412(2) 0.2602(3) 0.2451(2)
H4C H -0.0824 0.2988 0.2700
H5C H -0.0572 0.2066 0.2652
O1C O -0.2312(3) 0.0725(2) 0.0860(2)
O2C O -0.2363(3) 0.1158(2) -0.0343(2)
O3C O -0.0422(2) 0.3537(2) -0.11575(16)
O4C O 0.0519(2) 0.4017(2) -0.02396(16)
O9C O -0.0302(2) 0.2747(2) 0.2326(2)
C10B C 0.3674(3) 0.0015(3) -0.29706(18)
C11B C 0.31595(5) 0.04396(5) -0.23273(18)
C12B C 0.25313(4) 0.10612(4) -0.25173(18)
H6B H 0.2467 0.1226 -0.3050
C13B C 0.20115(7) 0.14297(7) -0.1929(2)
C14B C 0.21137(18) 0.11775(17) -0.1124(2)
H7B H 0.1767 0.1422 -0.0723
C15B C 0.27159(18) 0.05780(17) -0.09246(16)
C16B C 0.32455(18) 0.02045(16) -0.1528(2)
H8B H 0.3656 -0.0202 -0.1389
C17B C 0.1318(4) 0.2055(3) -0.2145(3)
C18B C 0.2670(3) 0.0443(3) -0.0030(3)
H9B H 0.3101 0.0800 0.0235
H10B H 0.2068 0.0583 0.0161
O5B O 0.37263(19) 0.03402(16) -0.36408(14)
O6B O 0.4016(3) -0.0679(2) -0.2774(2)
O7B O 0.1417(3) 0.2485(2) -0.2773(2)
O8B O 0.0701(3) 0.2235(2) -0.1663(2)
O10B O 0.2848(3) 0.0304(2) -0.0160(2)
Eu1_2 Eu 0.340205(14) -0.0000 -0.5000
Eu1A Eu -0.340205(14) 0.0000 0.0000
Eu1D Eu -0.159795(14) 0.5000 0.5000
Eu1E Eu 0.159795(14) 0.5000 0.0000
Eu2A Eu 0.5000 -0.170603(14) -0.2500
Eu2D Eu 0.0000 -0.329397(14) 0.2500
Eu2E Eu 0.0000 0.329397(14) -0.2500
Eu2E_2 Eu 0.0000 0.329397(14) 0.7500
O1B O 0.2312(3) -0.0725(2) 0.5860(2)
O2B O 0.2363(3) -0.1158(2) 0.4657(2)
O3E O 0.4578(2) 0.1463(2) 0.11575(16)
O3F O 0.5422(2) 0.1463(2) 0.38425(16)
O4D O 0.4481(2) -0.0983(2) 0.52396(16)
O4F O 0.4481(2) 0.0983(2) 0.47604(16)
O5B_2 O 0.37263(19) 0.03402(16) 0.63592(14)
O6C O 0.5984(3) 0.0679(2) 0.2226(2)
O7D O 0.6417(3) 0.2515(2) 0.2773(2)
O7G O 0.3583(3) 0.2515(2) 0.2227(2)
O8D O 0.5701(3) 0.2765(2) 0.1663(2)
O8G O 0.4299(3) 0.2765(2) 0.3337(2)
loop_
_geom_bond_atom_site_label_1
_geom_bond_atom_site_label_2
_geom_bond_site_symmetry_1
_geom_bond_site_symmetry_2
Eu1 O1 1_555 1_555
Eu2 O6 1_555 1_555
C1 C2 1_555 1_555
C2 C3 1_555 1_555
C3 H1 1_555 1_555
C4 C3 1_555 1_555
C5 C4 1_555 1_555
H2 C5 1_555 1_555
C6 C5 1_555 1_555
C7 C2 1_555 1_555
H3 C7 1_555 1_555
C8 C6 1_555 1_555
C9 C4 1_555 1_555
H4 C9 1_555 1_555
H5 C9 1_555 1_555
C10 C11 1_555 1_555
C11 C12 1_555 1_555
C12 H6 1_555 1_555
C13 C12 1_555 1_555
C14 C13 1_555 1_555
H7 C14 1_555 1_555
C15 C14 1_555 1_555
C16 C11 1_555 1_555
H8 C16 1_555 1_555
C17 C13 1_555 1_555
C18 C15 1_555 1_555
H9 C18 1_555 1_555
H10 C18 1_555 1_555
O1 C1 1_555 1_555
O2 Eu1 1_555 1_555
O3 C8 1_555 1_555
O4 C8 1_555 1_555
O5 Eu1 1_555 1_555
O6 C10 1_555 1_555
O7 C17 1_555 1_555
O8 C17 1_555 1_555
O9 C4 1_555 1_555
O10 C15 1_555 1_555
C1C C2C 1_555 1_555
C2C C3C 1_555 1_555
C3C H1C 1_555 1_555
C4C C3C 1_555 1_555
C5C C4C 1_555 1_555
H2C C5C 1_555 1_555
C6C C5C 1_555 1_555
C7C C2C 1_555 1_555
H3C C7C 1_555 1_555
C8C C6C 1_555 1_555
C9C C9 1_555 1_555
H4C C9C 1_555 1_555
H5C C9C 1_555 1_555
O1C C1C 1_555 1_555
O2C C1C 1_555 1_555
O3C C8C 1_555 1_555
O4C C8C 1_555 1_555
O9C C9 1_555 1_555
C10B C11B 1_555 1_555
C11B C12B 1_555 1_555
C12B H6B 1_555 1_555
C13B C12B 1_555 1_555
C14B C13B 1_555 1_555
H7B C14B 1_555 1_555
C15B C14B 1_555 1_555
C16B C11B 1_555 1_555
H8B C16B 1_555 1_555
C17B C13B 1_555 1_555
C18B C18 1_555 1_555
H9B C18B 1_555 1_555
H10B C18B 1_555 1_555
O5B C10B 1_555 1_555
O6B C10B 1_555 1_555
O7B C17B 1_555 1_555
O8B C17B 1_555 1_555
O10B C18 1_555 1_555
Eu1_2 O5B 1_555 1_555
Eu1A O1C 1_555 1_555
Eu1D O4 1_555 1_555
Eu1E O4C 1_555 1_555
Eu2A O6B 1_555 1_555
Eu2D O7 1_555 1_555
Eu2E O3C 1_555 1_555
Eu2E_2 O3 1_555 1_555
O1B Eu1 1_555 1_555
O2B Eu1 1_555 1_555
O3E Eu2 1_555 1_555
O3F Eu2 1_555 1_555
O4D Eu1 1_555 1_555
O4F Eu1 1_555 1_555
O5B_2 Eu1 1_555 1_555
O6C Eu2 1_555 1_555
O7D Eu2 1_555 1_555
O7G Eu2 1_555 1_555
O8D Eu2 1_555 1_555
O8G Eu2 1_555 1_555
C1 O2 1_555 1_555
C6 C7 1_555 1_555
C9 O9 1_555 1_555
H4 O9 1_555 1_555
H5 O9 1_555 1_555
C10 O5 1_555 1_555
C15 C16 1_555 1_555
C18 O10 1_555 1_555
H9 O10 1_555 1_555
H10 O10 1_555 1_555
O8 Eu2D 1_555 1_555
O9 C9C 1_555 1_555
O9 O9C 1_555 1_555
O10 C18B 1_555 1_555
O10 O10B 1_555 1_555
C4C C9C 1_555 1_555
C4C O9C 1_555 1_555
C6C C7C 1_555 1_555
C9C O9C 1_555 1_555
H4C O9C 1_555 1_555
H5C O9C 1_555 1_555
O2C Eu1A 1_555 1_555
C15B C16B 1_555 1_555
C15B C18B 1_555 1_555
C15B O10B 1_555 1_555
C18B O10B 1_555 1_555
H9B O10B 1_555 1_555
H10B O10B 1_555 1_555
O7B Eu2E 1_555 1_555
O8B Eu2E 1_555 1_555

#END
