
#######################################################################
#
#                 Cambridge Crystallographic Data Centre
#                                CCDC 
#
#######################################################################
#
# If this CIF has been generated from an entry in the Cambridge 
# Structural Database, then it will include bibliographic, chemical, 
# crystal, experimental, refinement or atomic coordinate data resulting 
# from the CCDC's data processing and validation procedures.
#
#######################################################################

data_NIBLUH
_chemical_formula_moiety         'C36 H20 Ho10 O32'
_symmetry_cell_setting           orthorhombic
_symmetry_space_group_name_H-M   'C 2 2 21'
_symmetry_Int_Tables_number      20
_space_group_name_Hall           'C 2c 2'
loop_
_symmetry_equiv_pos_site_id
_symmetry_equiv_pos_as_xyz
1 x,y,z
2 -x,-y,1/2+z
3 x,-y,-z
4 -x,y,1/2-z
5 1/2+x,1/2+y,z
6 1/2-x,1/2-y,1/2+z
7 1/2+x,1/2-y,-z
8 1/2-x,1/2+y,1/2-z
_cell_length_a                   14.8769(15)
_cell_length_b                   16.0349(13)
_cell_length_c                   16.5271(13)
_cell_angle_alpha                90
_cell_angle_beta                 90
_cell_angle_gamma                90
_cell_volume                     3942.53
loop_
_atom_site_label
_atom_site_type_symbol
_atom_site_fract_x
_atom_site_fract_y
_atom_site_fract_z
Ho1 Ho 0.5000 0.83311(10) 0.7500
Ho2 Ho 0.66220(10) 1.0000 0.5000
C1 C 0.7934(19) 0.878(2) 0.5341(16)
C2 C 0.8497(19) 0.8042(18) 0.5552(15)
C3 C 0.8755(18) 0.7921(18) 0.6369(16)
H1 H 0.8513 0.8256 0.6774
C4 C 0.9381(19) 0.7292(19) 0.6565(15)
C5 C 0.9735(17) 0.6807(19) 0.5965(14)
H2 H 1.0126 0.6374 0.6092
C6 C 0.9508(18) 0.6965(18) 0.5158(15)
C7 C 0.8871(16) 0.7519(17) 0.496(2)
H3 H 0.8675 0.7558 0.4426
C8 C 0.992(2) 0.6423(17) 0.4545(14)
C9 C 0.951(3) 0.700(4) 0.743(3)
H4 H 0.8972 0.7083 0.7752
H5 H 0.9680 0.6413 0.7451
C10 C 0.636(2) 0.993(2) 0.7023(14)
C11 C 0.689(2) 1.0456(18) 0.7664(14)
C12 C 0.751(2) 1.1061(16) 0.749(2)
H6 H 0.7603 1.1204 0.6946
C13 C 0.800(2) 1.1460(18) 0.8058(15)
C14 C 0.794(2) 1.1241(17) 0.8861(16)
H7 H 0.8313 1.1481 0.9251
C15 C 0.729(2) 1.0628(17) 0.9066(12)
C16 C 0.674(2) 1.0236(16) 0.8474(14)
H8 H 0.6294 0.9853 0.8616
C17 C 0.873(2) 1.2082(19) 0.7866(16)
O1 O 0.751(3) 1.024(2) 0.9842(16)
O2 O 0.7692(15) 0.9277(14) 0.5847(12)
O3 O 0.7574(15) 0.8805(14) 0.4667(11)
O4 O 0.9593(14) 0.6411(13) 0.3825(12)
O5 O 1.0587(15) 0.5944(14) 0.4765(11)
O6 O 0.6302(16) 1.0366(13) 0.6335(14)
O7 O 0.5985(16) 0.9292(14) 0.7286(12)
O8 O 0.8624(16) 1.2513(14) 0.7200(12)
O9 O 0.9329(16) 1.2260(14) 0.8299(13)
O10 O 0.976(3) 0.754(3) 0.732(2)
C18 C 0.694(4) 1.047(3) 0.9913(18)
H9 H 0.7030 1.0949 1.0262
H10 H 0.6306 1.0322 0.9910
C1C C 1.2066(19) 0.878(2) 0.9659(16)
C2C C 1.1503(19) 0.8042(18) 0.9448(15)
C3C C 1.1245(18) 0.7921(18) 0.8631(16)
H1C H 1.1487 0.8256 0.8226
C4C C 1.0619(19) 0.7292(19) 0.8435(15)
C5C C 1.0265(17) 0.6807(19) 0.9035(14)
H2C H 0.9874 0.6374 0.8908
C6C C 1.0492(18) 0.6965(18) 0.9842(15)
C7C C 1.1129(16) 0.7519(17) 1.004(2)
H3C H 1.1325 0.7558 1.0574
C8C C 1.008(2) 0.6423(17) 1.0455(14)
C9C C 1.049(3) 0.700(4) 0.757(3)
H4C H 1.1028 0.7083 0.7248
H5C H 1.0320 0.6413 0.7549
O2C O 1.2308(15) 0.9277(14) 0.9153(12)
O3C O 1.2426(15) 0.8805(14) 1.0333(11)
O4C O 1.0407(14) 0.6411(13) 1.1175(12)
O5C O 0.9413(15) 0.5944(14) 1.0235(11)
O10C O 1.024(3) 0.754(3) 0.768(2)
C10B C 0.636(2) 1.007(2) 1.2977(14)
C11B C 0.689(2) 0.9544(18) 1.2336(14)
C12B C 0.751(2) 0.8939(16) 1.251(2)
H6B H 0.7603 0.8796 1.3054
C13B C 0.800(2) 0.8540(18) 1.1942(15)
C14B C 0.794(2) 0.8759(17) 1.1139(16)
H7B H 0.8313 0.8519 1.0749
C15B C 0.729(2) 0.9372(17) 1.0934(12)
C16B C 0.674(2) 0.9764(16) 1.1526(14)
H8B H 0.6294 1.0147 1.1384
C17B C 0.873(2) 0.7918(19) 1.2134(16)
O1B O 0.751(3) 0.976(2) 1.0158(16)
O6B O 0.6302(16) 0.9634(13) 1.3665(14)
O7B O 0.5985(16) 1.0708(14) 1.2714(12)
O8B O 0.8624(16) 0.7487(14) 1.2800(12)
O9B O 0.9329(16) 0.7740(14) 1.1701(13)
C18B C 0.694(4) 0.953(3) 1.0087(18)
H9B H 0.7030 0.9051 0.9738
H10B H 0.6306 0.9678 1.0090
Ho1A Ho 0.5000 1.16689(10) 1.2500
Ho1D Ho 1.0000 1.33311(10) 0.7500
Ho1E Ho 1.0000 0.66689(10) 0.2500
Ho1E_2 Ho 1.0000 0.66689(10) 1.2500
Ho2_2 Ho 0.66220(10) 1.0000 1.5000
Ho2A Ho 1.33780(10) 1.0000 1.0000
Ho2D Ho 1.16220(10) 0.5000 0.5000
Ho2E Ho 0.83780(10) 0.5000 1.0000
O2B O 0.7692(15) 1.0723(14) 0.4153(12)
O3B O 0.7574(15) 1.1195(14) 0.5333(11)
O4E O 0.5407(14) 0.8589(13) 0.8825(12)
O4F O 0.4593(14) 0.8589(13) 0.6175(12)
O5D O 0.5587(15) 1.0944(14) 0.4765(11)
O5F O 0.5587(15) 0.9056(14) 0.5235(11)
O6B_2 O 0.6302(16) 0.9634(13) 0.3665(14)
O7C O 0.4015(16) 0.9292(14) 0.7714(12)
O8D O 0.3624(16) 0.7513(14) 0.7200(12)
O8G O 0.6376(16) 0.7513(14) 0.7800(12)
O9D O 0.4329(16) 0.7260(14) 0.8299(13)
O9G O 0.5671(16) 0.7260(14) 0.6701(13)
loop_
_geom_bond_atom_site_label_1
_geom_bond_atom_site_label_2
_geom_bond_site_symmetry_1
_geom_bond_site_symmetry_2
Ho1 O7 1_555 1_555
Ho2 O2 1_555 1_555
C1 C2 1_555 1_555
C2 C3 1_555 1_555
C3 H1 1_555 1_555
C4 C3 1_555 1_555
C5 C4 1_555 1_555
H2 C5 1_555 1_555
C6 C5 1_555 1_555
C7 C2 1_555 1_555
H3 C7 1_555 1_555
C8 C6 1_555 1_555
C9 C4 1_555 1_555
H4 C9 1_555 1_555
H5 C9 1_555 1_555
C10 C11 1_555 1_555
C11 C12 1_555 1_555
C12 H6 1_555 1_555
C13 C12 1_555 1_555
C14 C13 1_555 1_555
H7 C14 1_555 1_555
C15 C14 1_555 1_555
C16 C11 1_555 1_555
H8 C16 1_555 1_555
C17 C13 1_555 1_555
O1 C15 1_555 1_555
O2 C1 1_555 1_555
O3 Ho2 1_555 1_555
O4 C8 1_555 1_555
O5 C8 1_555 1_555
O6 Ho2 1_555 1_555
O7 C10 1_555 1_555
O8 C17 1_555 1_555
O9 C17 1_555 1_555
O10 C4 1_555 1_555
C18 C15 1_555 1_555
H9 C18 1_555 1_555
H10 C18 1_555 1_555
C1C C2C 1_555 1_555
C2C C3C 1_555 1_555
C3C H1C 1_555 1_555
C4C C3C 1_555 1_555
C5C C4C 1_555 1_555
H2C C5C 1_555 1_555
C6C C5C 1_555 1_555
C7C C2C 1_555 1_555
H3C C7C 1_555 1_555
C8C C6C 1_555 1_555
C9C C9 1_555 1_555
H4C C9C 1_555 1_555
H5C C9C 1_555 1_555
O2C C1C 1_555 1_555
O3C C1C 1_555 1_555
O4C C8C 1_555 1_555
O5C C8C 1_555 1_555
O10C C9 1_555 1_555
C10B C11B 1_555 1_555
C11B C12B 1_555 1_555
C12B H6B 1_555 1_555
C13B C12B 1_555 1_555
C14B C13B 1_555 1_555
H7B C14B 1_555 1_555
C15B C14B 1_555 1_555
C16B C11B 1_555 1_555
H8B C16B 1_555 1_555
C17B C13B 1_555 1_555
O1B O1 1_555 1_555
O6B C10B 1_555 1_555
O7B C10B 1_555 1_555
O8B C17B 1_555 1_555
O9B C17B 1_555 1_555
C18B O1 1_555 1_555
H9B C18B 1_555 1_555
H10B C18B 1_555 1_555
Ho1A O7B 1_555 1_555
Ho1D O8 1_555 1_555
Ho1E O4 1_555 1_555
Ho1E_2 O4C 1_555 1_555
Ho2_2 O6B 1_555 1_555
Ho2A O2C 1_555 1_555
Ho2D O5 1_555 1_555
Ho2E O5C 1_555 1_555
O2B Ho2 1_555 1_555
O3B Ho2 1_555 1_555
O4E Ho1 1_555 1_555
O4F Ho1 1_555 1_555
O5D Ho2 1_555 1_555
O5F Ho2 1_555 1_555
O6B_2 Ho2 1_555 1_555
O7C Ho1 1_555 1_555
O8D Ho1 1_555 1_555
O8G Ho1 1_555 1_555
O9D Ho1 1_555 1_555
O9G Ho1 1_555 1_555
C1 O3 1_555 1_555
C6 C7 1_555 1_555
C9 O10 1_555 1_555
C10 O6 1_555 1_555
C15 C16 1_555 1_555
O1 C18 1_555 1_555
O9 Ho1D 1_555 1_555
O10 C9C 1_555 1_555
O10 O10C 1_555 1_555
C18 O1B 1_555 1_555
C18 C18B 1_555 1_555
C4C C9C 1_555 1_555
C4C O10C 1_555 1_555
C6C C7C 1_555 1_555
C9C O10C 1_555 1_555
O3C Ho2A 1_555 1_555
C15B C16B 1_555 1_555
C15B O1B 1_555 1_555
C15B C18B 1_555 1_555
O1B C18B 1_555 1_555
O8B Ho1E_2 1_555 1_555
O9B Ho1E_2 1_555 1_555

#END
