
#######################################################################
#
#                 Cambridge Crystallographic Data Centre
#                                CCDC 
#
#######################################################################
#
# If this CIF has been generated from an entry in the Cambridge 
# Structural Database, then it will include bibliographic, chemical, 
# crystal, experimental, refinement or atomic coordinate data resulting 
# from the CCDC's data processing and validation procedures.
#
#######################################################################

data_NIBLIV
_chemical_formula_moiety         'C18 H10 O17 Yb6'
_symmetry_cell_setting           tetragonal
_symmetry_space_group_name_H-M   'P 41 2 2'
_symmetry_Int_Tables_number      91
_space_group_name_Hall           'P 4w 2c'
loop_
_symmetry_equiv_pos_site_id
_symmetry_equiv_pos_as_xyz
1 x,y,z
2 -y,x,1/4+z
3 -x,-y,1/2+z
4 y,-x,3/4+z
5 x,-y,1/2-z
6 -x,y,-z
7 y,x,3/4-z
8 -y,-x,1/4-z
_cell_length_a                   10.8801(3)
_cell_length_b                   10.8801(3)
_cell_length_c                   16.4712(6)
_cell_angle_alpha                90
_cell_angle_beta                 90
_cell_angle_gamma                90
_cell_volume                     1949.8
loop_
_atom_site_label
_atom_site_type_symbol
_atom_site_fract_x
_atom_site_fract_y
_atom_site_fract_z
Yb1 Yb 0.16405(4) 0.16405(4) 0.3750
C1 C 0.1347(9) 0.1396(10) 0.1737(6)
C2 C 0.1464(6) 0.2377(10) 0.1088(6)
C3 C 0.1483(7) 0.3597(9) 0.1280(7)
H1 H 0.1424 0.3814 0.1824
C4 C 0.1584(8) 0.4531(10) 0.0713(6)
C5 C 0.1678(8) 0.4178(10) -0.0100(7)
H2 H 0.1752 0.4769 -0.0505
C6 C 0.1659(10) 0.2889(11) -0.0308(6)
C7 C 0.1551(8) 0.2044(11) 0.0294(6)
H3 H 0.1536 0.1213 0.0160
C8 C 0.1615(12) 0.5838(12) 0.0908(8)
C9 C 0.146(2) 0.248(2) -0.1174(9)
H4 H 0.0966 0.1744 -0.1205
H5 H 0.1089 0.3125 -0.1500
O1 O 0.1020(10) 0.1733(8) 0.2439(6)
O2 O 0.1594(10) 0.0328(8) 0.1509(5)
O3 O 0.2018(10) 0.6597(8) 0.0452(5)
O4 O 0.1207(10) 0.6234(8) 0.1555(5)
O5 O 0.2249(17) 0.2739(14) -0.1082(9)
C1F C 0.1396(10) 0.1347(9) -0.4237(6)
C2F C 0.2377(10) 0.1464(6) -0.3588(6)
C3F C 0.3597(9) 0.1483(7) -0.3780(7)
H1F H 0.3814 0.1424 -0.4324
C4F C 0.4531(10) 0.1584(8) -0.3213(6)
C5F C 0.4178(10) 0.1678(8) -0.2400(7)
H2F H 0.4769 0.1752 -0.1995
C6F C 0.2889(11) 0.1659(10) -0.2192(6)
C7F C 0.2044(11) 0.1551(8) -0.2794(6)
H3F H 0.1213 0.1536 -0.2660
C8F C 0.5838(12) 0.1615(12) -0.3408(8)
C9F C 0.248(2) 0.146(2) -0.1326(9)
H4F H 0.1744 0.0966 -0.1295
H5F H 0.3125 0.1089 -0.1000
O1F O 0.1733(8) 0.1020(10) -0.4939(6)
O2F O 0.0328(8) 0.1594(10) -0.4009(5)
O3F O 0.6597(8) 0.2018(10) -0.2952(5)
O4F O 0.6234(8) 0.1207(10) -0.4055(5)
O5F O 0.2739(14) 0.2249(17) -0.1418(9)
Yb1_2 Yb 0.16405(4) 0.16405(4) -0.6250
Yb1A Yb -0.16405(4) 0.16405(4) -0.3750
Yb1A_2 Yb 0.83595(4) 0.16405(4) -0.3750
Yb1C Yb 0.16405(4) -0.16405(4) 0.1250
Yb1C_2 Yb 0.16405(4) 0.83595(4) 0.1250
O1F_2 O 0.1733(8) 0.1020(10) 0.5061(6)
O2A O -0.0328(8) 0.1594(10) 0.4009(5)
O2D O 0.1594(10) -0.0328(8) 0.3491(5)
O3A O 0.3403(8) 0.2018(10) 0.2952(5)
O3D O 0.2018(10) 0.3403(8) 0.4548(5)
O4A O 0.3766(8) 0.1207(10) 0.4055(5)
O4D O 0.1207(10) 0.3766(8) 0.3445(5)
loop_
_geom_bond_atom_site_label_1
_geom_bond_atom_site_label_2
_geom_bond_site_symmetry_1
_geom_bond_site_symmetry_2
Yb1 O1 1_555 1_555
C1 C2 1_555 1_555
C2 C3 1_555 1_555
C3 H1 1_555 1_555
C4 C3 1_555 1_555
C5 C4 1_555 1_555
H2 C5 1_555 1_555
C6 C5 1_555 1_555
C7 C2 1_555 1_555
H3 C7 1_555 1_555
C8 C4 1_555 1_555
C9 C6 1_555 1_555
H4 C9 1_555 1_555
H5 C9 1_555 1_555
O1 C1 1_555 1_555
O2 C1 1_555 1_555
O3 C8 1_555 1_555
O4 C8 1_555 1_555
O5 C6 1_555 1_555
C1F C2F 1_555 1_555
C2F C3F 1_555 1_555
C3F H1F 1_555 1_555
C4F C3F 1_555 1_555
C5F C4F 1_555 1_555
H2F C5F 1_555 1_555
C6F C5F 1_555 1_555
C7F C2F 1_555 1_555
H3F C7F 1_555 1_555
C8F C4F 1_555 1_555
C9F C9 1_555 1_555
H4F C9F 1_555 1_555
H5F C9F 1_555 1_555
O1F C1F 1_555 1_555
O2F C1F 1_555 1_555
O3F C8F 1_555 1_555
O4F C8F 1_555 1_555
O5F C9 1_555 1_555
Yb1_2 O1F 1_555 1_555
Yb1A O2F 1_555 1_555
Yb1A_2 O3F 1_555 1_555
Yb1C O2 1_555 1_555
Yb1C_2 O3 1_555 1_555
O1F_2 Yb1 1_555 1_555
O2A Yb1 1_555 1_555
O2D Yb1 1_555 1_555
O3A Yb1 1_555 1_555
O3D Yb1 1_555 1_555
O4A Yb1 1_555 1_555
O4D Yb1 1_555 1_555
C6 C7 1_555 1_555
C9 O5 1_555 1_555
O4 Yb1C_2 1_555 1_555
O5 C9F 1_555 1_555
O5 O5F 1_555 1_555
C6F C7F 1_555 1_555
C6F C9F 1_555 1_555
C6F O5F 1_555 1_555
C9F O5F 1_555 1_555
O4F Yb1A_2 1_555 1_555

#END
