
#######################################################################
#
#                 Cambridge Crystallographic Data Centre
#                                CCDC 
#
#######################################################################
#
# If this CIF has been generated from an entry in the Cambridge 
# Structural Database, then it will include bibliographic, chemical, 
# crystal, experimental, refinement or atomic coordinate data resulting 
# from the CCDC's data processing and validation procedures.
#
#######################################################################

data_NIBLOB
_chemical_formula_moiety         'C18 H10 O17 Yb6'
_symmetry_cell_setting           tetragonal
_symmetry_space_group_name_H-M   'P 43 2 2'
_symmetry_Int_Tables_number      95
_space_group_name_Hall           'P 4cw 2c'
loop_
_symmetry_equiv_pos_site_id
_symmetry_equiv_pos_as_xyz
1 x,y,z
2 -y,x,3/4+z
3 -x,-y,1/2+z
4 y,-x,1/4+z
5 x,-y,1/2-z
6 -x,y,-z
7 y,x,1/4-z
8 -y,-x,3/4-z
_cell_length_a                   10.8786(7)
_cell_length_b                   10.8786(7)
_cell_length_c                   16.466(2)
_cell_angle_alpha                90
_cell_angle_beta                 90
_cell_angle_gamma                90
_cell_volume                     1948.65
loop_
_atom_site_label
_atom_site_type_symbol
_atom_site_fract_x
_atom_site_fract_y
_atom_site_fract_z
Yb1 Yb 0.16414(6) 0.16414(6) 0.1250
C1 C 0.1403(16) 0.1366(18) 0.3278(8)
C2 C 0.1460(11) 0.2395(13) 0.3920(8)
C3 C 0.1442(10) 0.3623(13) 0.3698(10)
H1 H 0.1361 0.3843 0.3155
C4 C 0.1547(13) 0.4542(15) 0.4301(9)
C5 C 0.1669(16) 0.4136(15) 0.5113(10)
H2 H 0.1743 0.4721 0.5522
C6 C 0.1682(17) 0.2931(15) 0.5319(10)
C7 C 0.1579(15) 0.2039(15) 0.4718(10)
H3 H 0.1591 0.1209 0.4854
C8 C 0.162(3) 0.5861(17) 0.4088(13)
C9 C 0.154(5) 0.247(3) 0.6181(14)
H4 H 0.1171 0.3088 0.6530
H5 H 0.1043 0.1727 0.6202
O1 O 0.1032(9) 0.1743(10) 0.2560(6)
O2 O 0.1607(15) 0.0328(10) 0.3491(6)
O3 O 0.2032(16) 0.6606(13) 0.4563(8)
O4 O 0.1227(17) 0.6210(12) 0.3442(8)
O5 O 0.223(3) 0.276(2) 0.6105(15)
C1F C 0.1366(18) 0.1403(16) 0.9222(8)
C2F C 0.2395(13) 0.1460(11) 0.8580(8)
C3F C 0.3623(13) 0.1442(10) 0.8802(10)
H1F H 0.3843 0.1361 0.9345
C4F C 0.4542(15) 0.1547(13) 0.8199(9)
C5F C 0.4136(15) 0.1669(16) 0.7387(10)
H2F H 0.4721 0.1743 0.6978
C6F C 0.2931(15) 0.1682(17) 0.7181(10)
C7F C 0.2039(15) 0.1579(15) 0.7782(10)
H3F H 0.1209 0.1591 0.7646
C8F C 0.5861(17) 0.162(3) 0.8412(13)
C9F C 0.247(3) 0.154(5) 0.6319(14)
H4F H 0.3088 0.1171 0.5970
H5F H 0.1727 0.1043 0.6298
O1F O 0.1743(10) 0.1032(9) 0.9940(6)
O2F O 0.0328(10) 0.1607(15) 0.9009(6)
O3F O 0.6606(13) 0.2032(16) 0.7937(8)
O4F O 0.6210(12) 0.1227(17) 0.9058(8)
O5F O 0.276(2) 0.223(3) 0.6395(15)
Yb1_2 Yb 0.16414(6) 0.16414(6) 1.1250
Yb1A Yb -0.16414(6) 0.16414(6) 0.8750
Yb1A_2 Yb 0.83586(6) 0.16414(6) 0.8750
Yb1C Yb 0.16414(6) -0.16414(6) 0.3750
Yb1C_2 Yb 0.16414(6) 0.83586(6) 0.3750
O1F_2 O 0.1743(10) 0.1032(9) -0.0060(6)
O2A O -0.0328(10) 0.1607(15) 0.0991(6)
O2D O 0.1607(15) -0.0328(10) 0.1509(6)
O3A O 0.3394(13) 0.2032(16) 0.2063(8)
O3D O 0.2032(16) 0.3394(13) 0.0437(8)
O4A O 0.3790(12) 0.1227(17) 0.0942(8)
O4D O 0.1227(17) 0.3790(12) 0.1558(8)
loop_
_geom_bond_atom_site_label_1
_geom_bond_atom_site_label_2
_geom_bond_site_symmetry_1
_geom_bond_site_symmetry_2
Yb1 O1 1_555 1_555
C1 C2 1_555 1_555
C2 C3 1_555 1_555
C3 H1 1_555 1_555
C4 C3 1_555 1_555
C5 C4 1_555 1_555
H2 C5 1_555 1_555
C6 C5 1_555 1_555
C7 C2 1_555 1_555
H3 C7 1_555 1_555
C8 C4 1_555 1_555
C9 C6 1_555 1_555
H4 C9 1_555 1_555
H5 C9 1_555 1_555
O1 C1 1_555 1_555
O2 C1 1_555 1_555
O3 C8 1_555 1_555
O4 C8 1_555 1_555
O5 C6 1_555 1_555
C1F C2F 1_555 1_555
C2F C3F 1_555 1_555
C3F H1F 1_555 1_555
C4F C3F 1_555 1_555
C5F C4F 1_555 1_555
H2F C5F 1_555 1_555
C6F C5F 1_555 1_555
C7F C2F 1_555 1_555
H3F C7F 1_555 1_555
C8F C4F 1_555 1_555
C9F C9 1_555 1_555
H4F C9F 1_555 1_555
H5F C9F 1_555 1_555
O1F C1F 1_555 1_555
O2F C1F 1_555 1_555
O3F C8F 1_555 1_555
O4F C8F 1_555 1_555
O5F C9 1_555 1_555
Yb1_2 O1F 1_555 1_555
Yb1A O2F 1_555 1_555
Yb1A_2 O3F 1_555 1_555
Yb1C O2 1_555 1_555
Yb1C_2 O3 1_555 1_555
O1F_2 Yb1 1_555 1_555
O2A Yb1 1_555 1_555
O2D Yb1 1_555 1_555
O3A Yb1 1_555 1_555
O3D Yb1 1_555 1_555
O4A Yb1 1_555 1_555
O4D Yb1 1_555 1_555
C6 C7 1_555 1_555
C9 O5 1_555 1_555
O4 Yb1C_2 1_555 1_555
O5 C9F 1_555 1_555
O5 O5F 1_555 1_555
C6F C7F 1_555 1_555
C6F C9F 1_555 1_555
C6F O5F 1_555 1_555
C9F O5F 1_555 1_555
O4F Yb1A_2 1_555 1_555

#END
