
#######################################################################
#
#                 Cambridge Crystallographic Data Centre
#                                CCDC 
#
#######################################################################
#
# If this CIF has been generated from an entry in the Cambridge 
# Structural Database, then it will include bibliographic, chemical, 
# crystal, experimental, refinement or atomic coordinate data resulting 
# from the CCDC's data processing and validation procedures.
#
#######################################################################

data_NIBLAN
_chemical_formula_moiety         'C36 H20 Gd10 O32'
_symmetry_cell_setting           orthorhombic
_symmetry_space_group_name_H-M   'C 2 2 21'
_symmetry_Int_Tables_number      20
_space_group_name_Hall           'C 2c 2'
loop_
_symmetry_equiv_pos_site_id
_symmetry_equiv_pos_as_xyz
1 x,y,z
2 -x,-y,1/2+z
3 x,-y,-z
4 -x,y,1/2-z
5 1/2+x,1/2+y,z
6 1/2-x,1/2-y,1/2+z
7 1/2+x,1/2-y,-z
8 1/2-x,1/2+y,1/2-z
_cell_length_a                   14.6641(10)
_cell_length_b                   16.3979(8)
_cell_length_c                   16.5888(8)
_cell_angle_alpha                90
_cell_angle_beta                 90
_cell_angle_gamma                90
_cell_volume                     3988.95
loop_
_atom_site_label
_atom_site_type_symbol
_atom_site_fract_x
_atom_site_fract_y
_atom_site_fract_z
Gd1 Gd 0.66322(4) 0.0000 1.0000
Gd2 Gd 0.5000 0.16692(4) 0.7500
C1 C 0.6330(9) 0.2903(6) 0.7866(6)
C2 C 0.7021(7) 0.3545(6) 0.8072(6)
C3 C 0.7094(9) 0.3815(7) 0.8874(7)
H1 H 0.6708 0.3602 0.9267
C4 C 0.7731(11) 0.4391(8) 0.9081(7)
C5 C 0.8204(10) 0.4791(7) 0.8477(6)
H2 H 0.8591 0.5220 0.8609
C6 C 0.8106(7) 0.4556(6) 0.7672(5)
C7 C 0.7523(7) 0.3929(5) 0.7470(8)
H3 H 0.7467 0.3764 0.6936
C8 C 0.8641(6) 0.5011(8) 0.7034(5)
C9 C 0.8006(16) 0.4526(16) 0.9941(15)
H4 H 0.7827 0.4068 1.0276
H5 H 0.8660 0.4601 0.9985
C10 C 0.4961(9) 0.1414(6) 0.9550(5)
C11 C 0.4500(6) 0.1944(6) 1.0168(5)
C12 C 0.3912(6) 0.2567(6) 0.9958(9)
H6 H 0.3769 0.2659 0.9419
C13 C 0.3539(7) 0.3049(6) 1.0548(6)
C14 C 0.3794(9) 0.2949(8) 1.1339(8)
H7 H 0.3582 0.3306 1.1732
C15 C 0.4375(9) 0.2307(9) 1.1549(7)
C16 C 0.4747(7) 0.1833(8) 1.0961(7)
H8 H 0.5169 0.1432 1.1095
C17 C 0.2922(8) 0.3768(7) 1.0322(7)
C18 C 0.455(2) 0.2005(15) 1.2437(18)
H9 H 0.4026 0.2108 1.2779
H10 H 0.4693 0.1427 1.2449
O1 O 0.5655(7) 0.2758(5) 0.8320(5)
O2 O 0.6420(6) 0.2463(5) 0.7256(4)
O3 O 0.8680(5) 0.4662(4) 0.6354(4)
O4 O 0.8991(5) 0.5658(4) 0.7244(4)
O5 O 0.4577(5) 0.1417(4) 0.8848(4)
O6 O 0.5555(6) 0.0964(5) 0.9765(4)
O7 O 0.2672(9) 0.3866(7) 0.9648(6)
O8 O 0.2705(8) 0.4268(7) 1.0841(6)
O9 O 0.7531(10) 0.4752(10) 0.9827(9)
O10 O 0.4707(13) 0.2471(10) 1.2330(10)
C1B C 0.6330(9) 0.7097(6) 1.2134(6)
C2B C 0.7021(7) 0.6455(6) 1.1928(6)
C3B C 0.7094(9) 0.6185(7) 1.1126(7)
H1B H 0.6708 0.6398 1.0733
C4B C 0.7731(11) 0.5609(8) 1.0919(7)
C5B C 0.8204(10) 0.5209(7) 1.1523(6)
H2B H 0.8591 0.4780 1.1391
C6B C 0.8106(7) 0.5444(6) 1.2328(5)
C7B C 0.7523(7) 0.6071(5) 1.2530(8)
H3B H 0.7467 0.6236 1.3064
C8B C 0.8641(6) 0.4989(8) 1.2966(5)
C9B C 0.8006(16) 0.5474(16) 1.0059(15)
H4B H 0.7827 0.5932 0.9724
H5B H 0.8660 0.5399 1.0015
O1B O 0.5655(7) 0.7242(5) 1.1680(5)
O2B O 0.6420(6) 0.7537(5) 1.2744(4)
O3B O 0.8680(5) 0.5338(4) 1.3646(4)
O4B O 0.8991(5) 0.4342(4) 1.2756(4)
O9B O 0.7531(10) 0.5248(10) 1.0173(9)
C10C C 0.5039(9) 0.1414(6) 1.5450(5)
C11C C 0.5500(6) 0.1944(6) 1.4832(5)
C12C C 0.6088(6) 0.2567(6) 1.5042(9)
H6C H 0.6231 0.2659 1.5581
C13C C 0.6461(7) 0.3049(6) 1.4452(6)
C14C C 0.6206(9) 0.2949(8) 1.3661(8)
H7C H 0.6418 0.3306 1.3268
C15C C 0.5625(9) 0.2307(9) 1.3451(7)
C16C C 0.5253(7) 0.1833(8) 1.4039(7)
H8C H 0.4831 0.1432 1.3905
C17C C 0.7078(8) 0.3768(7) 1.4678(7)
C18C C 0.545(2) 0.2005(15) 1.2563(18)
H9C H 0.5974 0.2108 1.2221
H10C H 0.5307 0.1427 1.2551
O5C O 0.5423(5) 0.1417(4) 1.6152(4)
O6C O 0.4445(6) 0.0964(5) 1.5235(4)
O7C O 0.7328(9) 0.3866(7) 1.5352(6)
O8C O 0.7295(8) 0.4268(7) 1.4159(6)
O10C O 0.5293(13) 0.2471(10) 1.2670(10)
Gd1A Gd 0.33678(4) 0.0000 1.5000
Gd1D Gd 0.16322(4) 0.5000 1.0000
Gd1E Gd 0.83678(4) 0.5000 0.5000
Gd1E_2 Gd 0.83678(4) 0.5000 1.5000
Gd2_2 Gd 0.5000 0.16692(4) 1.7500
Gd2A Gd 0.5000 0.83308(4) 1.2500
Gd2D Gd 1.0000 0.66692(4) 0.7500
Gd2E Gd 1.0000 0.33308(4) 1.2500
O1C O 0.4345(7) 0.2758(5) 0.6680(5)
O2C O 0.3580(6) 0.2463(5) 0.7744(4)
O3E O 0.6320(5) 0.0338(4) 1.1354(4)
O3G O 0.6320(5) -0.0338(4) 0.8646(4)
O4D O 0.3991(5) 0.0658(4) 0.7244(4)
O4G O 0.6009(5) 0.0658(4) 0.7756(4)
O5C_2 O 0.5423(5) 0.1417(4) 0.6152(4)
O6B O 0.5555(6) -0.0964(5) 1.0235(4)
O7D O 0.7672(9) -0.1134(7) 0.9648(6)
O7F O 0.7672(9) 0.1134(7) 1.0352(6)
O8D O 0.7705(8) -0.0732(7) 1.0841(6)
O8F O 0.7705(8) 0.0732(7) 0.9159(6)
loop_
_geom_bond_atom_site_label_1
_geom_bond_atom_site_label_2
_geom_bond_site_symmetry_1
_geom_bond_site_symmetry_2
Gd1 O6 1_555 1_555
Gd2 O1 1_555 1_555
C1 C2 1_555 1_555
C2 C3 1_555 1_555
C3 H1 1_555 1_555
C4 C3 1_555 1_555
C5 C4 1_555 1_555
H2 C5 1_555 1_555
C6 C5 1_555 1_555
C7 C2 1_555 1_555
H3 C7 1_555 1_555
C8 C6 1_555 1_555
C9 C4 1_555 1_555
H4 C9 1_555 1_555
H5 C9 1_555 1_555
C10 C11 1_555 1_555
C11 C12 1_555 1_555
C12 H6 1_555 1_555
C13 C12 1_555 1_555
C14 C13 1_555 1_555
H7 C14 1_555 1_555
C15 C14 1_555 1_555
C16 C11 1_555 1_555
H8 C16 1_555 1_555
C17 C13 1_555 1_555
C18 C15 1_555 1_555
H9 C18 1_555 1_555
H10 C18 1_555 1_555
O1 C1 1_555 1_555
O2 Gd2 1_555 1_555
O3 C8 1_555 1_555
O4 C8 1_555 1_555
O5 Gd2 1_555 1_555
O6 C10 1_555 1_555
O7 C17 1_555 1_555
O8 C17 1_555 1_555
O9 C4 1_555 1_555
O10 C15 1_555 1_555
C1B C2B 1_555 1_555
C2B C3B 1_555 1_555
C3B H1B 1_555 1_555
C4B C3B 1_555 1_555
C5B C4B 1_555 1_555
H2B C5B 1_555 1_555
C6B C5B 1_555 1_555
C7B C2B 1_555 1_555
H3B C7B 1_555 1_555
C8B C6B 1_555 1_555
C9B C9 1_555 1_555
H4B C9B 1_555 1_555
H5B C9B 1_555 1_555
O1B C1B 1_555 1_555
O2B C1B 1_555 1_555
O3B C8B 1_555 1_555
O4B C8B 1_555 1_555
O9B C9 1_555 1_555
C10C C11C 1_555 1_555
C11C C12C 1_555 1_555
C12C H6C 1_555 1_555
C13C C12C 1_555 1_555
C14C C13C 1_555 1_555
H7C C14C 1_555 1_555
C15C C14C 1_555 1_555
C16C C11C 1_555 1_555
H8C C16C 1_555 1_555
C17C C13C 1_555 1_555
C18C C18 1_555 1_555
H9C C18C 1_555 1_555
H10C C18C 1_555 1_555
O5C C10C 1_555 1_555
O6C C10C 1_555 1_555
O7C C17C 1_555 1_555
O8C C17C 1_555 1_555
O10C C18 1_555 1_555
Gd1A O6C 1_555 1_555
Gd1D O7 1_555 1_555
Gd1E O3 1_555 1_555
Gd1E_2 O3B 1_555 1_555
Gd2_2 O5C 1_555 1_555
Gd2A O1B 1_555 1_555
Gd2D O4 1_555 1_555
Gd2E O4B 1_555 1_555
O1C Gd2 1_555 1_555
O2C Gd2 1_555 1_555
O3E Gd1 1_555 1_555
O3G Gd1 1_555 1_555
O4D Gd2 1_555 1_555
O4G Gd2 1_555 1_555
O5C_2 Gd2 1_555 1_555
O6B Gd1 1_555 1_555
O7D Gd1 1_555 1_555
O7F Gd1 1_555 1_555
O8D Gd1 1_555 1_555
O8F Gd1 1_555 1_555
C1 O2 1_555 1_555
C6 C7 1_555 1_555
C9 O9 1_555 1_555
C10 O5 1_555 1_555
C15 C16 1_555 1_555
C18 O10 1_555 1_555
O8 Gd1D 1_555 1_555
O9 C9B 1_555 1_555
O9 O9B 1_555 1_555
O10 C18C 1_555 1_555
O10 O10C 1_555 1_555
C4B C9B 1_555 1_555
C4B O9B 1_555 1_555
C6B C7B 1_555 1_555
C9B O9B 1_555 1_555
O2B Gd2A 1_555 1_555
C15C C16C 1_555 1_555
C15C C18C 1_555 1_555
C15C O10C 1_555 1_555
C18C O10C 1_555 1_555
O7C Gd1E_2 1_555 1_555
O8C Gd1E_2 1_555 1_555

#END
