
#######################################################################
#
#                 Cambridge Crystallographic Data Centre
#                                CCDC 
#
#######################################################################
#
# If this CIF has been generated from an entry in the Cambridge 
# Structural Database, then it will include bibliographic, chemical, 
# crystal, experimental, refinement or atomic coordinate data resulting 
# from the CCDC's data processing and validation procedures.
#
#######################################################################

data_AMIKOX
_chemical_formula_moiety         '(C24 H22 Cd1 Cl2 N4 O1)n'
_symmetry_cell_setting           orthorhombic
_symmetry_space_group_name_H-M   'P c c a'
_symmetry_Int_Tables_number      54
_space_group_name_Hall           '-P 2a 2ac'
loop_
_symmetry_equiv_pos_site_id
_symmetry_equiv_pos_as_xyz
1 x,y,z
2 1/2-x,-y,z
3 -x,y,1/2-z
4 1/2+x,-y,1/2-z
5 -x,-y,-z
6 1/2+x,y,-z
7 x,-y,1/2+z
8 1/2-x,y,1/2+z
_cell_length_a                   17.419(4)
_cell_length_b                   9.1351(18)
_cell_length_c                   15.583(3)
_cell_angle_alpha                90
_cell_angle_beta                 90
_cell_angle_gamma                90
_cell_volume                     2479.63
loop_
_atom_site_label
_atom_site_type_symbol
_atom_site_fract_x
_atom_site_fract_y
_atom_site_fract_z
_atom_site_U_iso_or_equiv
_atom_site_thermal_displace_type
Cd1 Cd 0.7500 -0.0000 -0.03918(2) 0.0327 Uani
Cl1 Cl 0.64002(5) -0.19519(11) -0.04894(7) 0.0535 Uani
N1 N 0.67893(14) 0.1135(3) 0.07339(17) 0.0329 Uani
C1 C 0.60288(19) 0.1024(4) 0.0754(3) 0.0458 Uani
H1 H 0.5790 0.0393 0.0360 0.0550 Uiso
C2 C 0.55696(18) 0.1787(4) 0.1325(2) 0.0411 Uani
H2 H 0.5033 0.1681 0.1309 0.0490 Uiso
N2 N 0.68374(17) 0.8412(3) 0.36723(18) 0.0387 Uani
C3 C 0.59078(15) 0.2707(3) 0.19187(19) 0.0249 Uani
C4 C 0.67022(18) 0.2773(4) 0.1915(2) 0.0381 Uani
H3 H 0.6959 0.3358 0.2320 0.0460 Uiso
C5 C 0.71171(17) 0.1984(4) 0.1321(2) 0.0367 Uani
H4 H 0.7656 0.2049 0.1332 0.0440 Uiso
C6 C 0.54451(15) 0.3638(3) 0.25219(17) 0.0238 Uani
H5 H 0.5615 0.3467 0.3120 0.0290 Uiso
C7 C 0.54281(16) 0.5309(3) 0.2332(2) 0.0255 Uani
H6 H 0.5438 0.5481 0.1705 0.0310 Uiso
C8 C 0.59640(16) 0.6352(3) 0.27752(19) 0.0271 Uani
C9 C 0.63973(18) 0.5954(3) 0.3480(2) 0.0355 Uani
H7 H 0.6400 0.4978 0.3670 0.0430 Uiso
C10 C 0.6826(2) 0.6998(4) 0.3904(2) 0.0409 Uani
H8 H 0.7124 0.6704 0.4376 0.0490 Uiso
C11 C 0.6435(2) 0.8800(3) 0.2978(2) 0.0390 Uani
H9 H 0.6447 0.9783 0.2800 0.0470 Uiso
C12 C 0.60058(19) 0.7816(3) 0.2512(2) 0.0352 Uani
H10 H 0.5741 0.8125 0.2019 0.0420 Uiso
Cd1B Cd 0.2500 0.0000 0.53918(2) 0.0327 Uani
Cd1D Cd 0.2500 1.0000 0.03918(2) 0.0327 Uani
Cd1F Cd 0.7500 1.0000 0.46082(2) 0.0327 Uani
Cl1A Cl 0.85998(5) 0.19519(11) -0.04894(7) 0.0535 Uani
N1B N 0.32107(14) 0.1135(3) 0.42661(17) 0.0329 Uani
N1A N 0.82107(14) -0.1135(3) 0.07339(17) 0.0329 Uani
C1B C 0.39712(19) 0.1024(4) 0.4246(3) 0.0458 Uani
H1B H 0.4210 0.0393 0.4640 0.0550 Uiso
C2B C 0.44304(18) 0.1787(4) 0.3675(2) 0.0411 Uani
H2B H 0.4967 0.1681 0.3691 0.0490 Uiso
N2B N 0.31626(17) 0.8412(3) 0.13277(18) 0.0387 Uani
N2F N 0.68374(17) 0.1588(3) -0.13277(18) 0.0387 Uani
N2G N 0.81626(17) -0.1588(3) -0.13277(18) 0.0387 Uani
C3B C 0.40922(15) 0.2707(3) 0.30813(19) 0.0249 Uani
C4B C 0.32978(18) 0.2773(4) 0.3085(2) 0.0381 Uani
H3B H 0.3041 0.3358 0.2680 0.0460 Uiso
C5B C 0.28829(17) 0.1984(4) 0.3679(2) 0.0367 Uani
H4B H 0.2344 0.2049 0.3668 0.0440 Uiso
C6B C 0.45549(15) 0.3638(3) 0.24781(17) 0.0238 Uani
H5B H 0.4385 0.3467 0.1880 0.0290 Uiso
C7B C 0.45719(16) 0.5309(3) 0.2668(2) 0.0255 Uani
H6B H 0.4562 0.5481 0.3295 0.0310 Uiso
C8B C 0.40360(16) 0.6352(3) 0.22248(19) 0.0271 Uani
C9B C 0.36027(18) 0.5954(3) 0.1520(2) 0.0355 Uani
H7B H 0.3600 0.4978 0.1330 0.0430 Uiso
C10B C 0.3174(2) 0.6998(4) 0.1096(2) 0.0409 Uani
H8B H 0.2876 0.6704 0.0624 0.0490 Uiso
C11B C 0.3565(2) 0.8800(3) 0.2022(2) 0.0390 Uani
H9B H 0.3553 0.9783 0.2200 0.0470 Uiso
C12B C 0.39942(19) 0.7816(3) 0.2488(2) 0.0352 Uani
H10B H 0.4259 0.8125 0.2981 0.0420 Uiso
O1 O 0.6687(6) 0.4712(9) 0.5563(6) 0.1457 Uani
H11 H 0.628(3) 0.437(9) 0.537(5) 0.1460 Uiso
H12 H 0.676(5) 0.554(4) 0.537(5) 0.1460 Uiso
loop_
_atom_site_aniso_label
_atom_site_aniso_U_11
_atom_site_aniso_U_22
_atom_site_aniso_U_33
_atom_site_aniso_U_23
_atom_site_aniso_U_13
_atom_site_aniso_U_12
Cd1 0.0341(3) 0.0359(3) 0.0280(3) 0.000 0.000 0.01574(12)
Cl1 0.0343(5) 0.0529(5) 0.0733(7) -0.0253(4) -0.0106(4) 0.0048(4)
N1 0.0274(13) 0.0387(14) 0.0325(14) -0.0050(11) -0.0005(11) 0.0076(10)
C1 0.0311(17) 0.0512(19) 0.055(2) -0.0258(18) -0.0036(15) 0.0033(15)
C2 0.0235(14) 0.0439(17) 0.056(2) -0.0174(16) 0.0026(14) 0.0006(13)
N2 0.0430(16) 0.0346(13) 0.0385(15) 0.0019(11) -0.0059(12) -0.0147(11)
C3 0.0215(13) 0.0250(12) 0.0281(13) 0.0026(11) 0.0014(11) 0.0011(10)
C4 0.0262(15) 0.0482(17) 0.0398(17) -0.0132(16) -0.0034(13) -0.0011(13)
C5 0.0231(14) 0.0486(17) 0.0385(17) -0.0047(14) 0.0000(12) 0.0021(13)
C6 0.0220(14) 0.0222(12) 0.0273(13) 0.0002(10) 0.0001(11) 0.0005(10)
C7 0.0222(15) 0.0250(12) 0.0292(14) 0.0002(12) -0.0002(13) -0.0019(11)
C8 0.0252(14) 0.0251(12) 0.0311(14) -0.0019(11) 0.0014(11) -0.0032(11)
C9 0.0398(17) 0.0289(13) 0.0378(16) 0.0033(12) -0.0076(14) -0.0066(12)
C10 0.0429(18) 0.0388(16) 0.0409(18) 0.0061(14) -0.0144(15) -0.0092(14)
C11 0.0475(19) 0.0297(14) 0.0397(18) 0.0019(13) -0.0017(14) -0.0101(14)
C12 0.0357(16) 0.0327(14) 0.0373(17) 0.0044(13) -0.0061(13) -0.0064(13)
Cd1B 0.0341 0.0359 0.028 0 0 -0.01574
Cd1D 0.0341 0.0359 0.028 0 0 0.01574
Cd1F 0.0341 0.0359 0.028 0 0 -0.01574
Cl1A 0.0343 0.0529 0.0733 0.0253 0.0106 0.0048
N1B 0.0274 0.0387 0.0325 0.005 -0.0005 -0.0076
N1A 0.0274 0.0387 0.0325 0.005 0.0005 0.0076
C1B 0.0311 0.0512 0.055 0.0258 -0.0036 -0.0033
C2B 0.0235 0.0439 0.056 0.0174 0.0026 -0.0006
N2B 0.043 0.0346 0.0385 -0.0019 -0.0059 0.0147
N2F 0.043 0.0346 0.0385 -0.0019 -0.0059 0.0147
N2G 0.043 0.0346 0.0385 0.0019 0.0059 0.0147
C3B 0.0215 0.025 0.0281 -0.0026 0.0014 -0.0011
C4B 0.0262 0.0482 0.0398 0.0132 -0.0034 0.0011
C5B 0.0231 0.0486 0.0385 0.0047 0 -0.0021
C6B 0.022 0.0222 0.0273 -0.0002 0.0001 -0.0005
C7B 0.0222 0.025 0.0292 -0.0002 -0.0002 0.0019
C8B 0.0252 0.0251 0.0311 0.0019 0.0014 0.0032
C9B 0.0398 0.0289 0.0378 -0.0033 -0.0076 0.0066
C10B 0.0429 0.0388 0.0409 -0.0061 -0.0144 0.0092
C11B 0.0475 0.0297 0.0397 -0.0019 -0.0017 0.0101
C12B 0.0357 0.0327 0.0373 -0.0044 -0.0061 0.0064
O1 0.157(4) 0.139(4) 0.141(4) -0.003(3) -0.003(3) 0.004(3)
loop_
_geom_bond_atom_site_label_1
_geom_bond_atom_site_label_2
_geom_bond_site_symmetry_1
_geom_bond_site_symmetry_2
Cd1 Cl1 1_555 1_555
N1 Cd1 1_555 1_555
C1 N1 1_555 1_555
H1 C1 1_555 1_555
C2 C1 1_555 1_555
H2 C2 1_555 1_555
N2 C10 1_555 1_555
C3 C2 1_555 1_555
C4 C3 1_555 1_555
H3 C4 1_555 1_555
C5 N1 1_555 1_555
H4 C5 1_555 1_555
C6 C3 1_555 1_555
H5 C6 1_555 1_555
C7 C6 1_555 1_555
H6 C7 1_555 1_555
C8 C7 1_555 1_555
C9 C8 1_555 1_555
H7 C9 1_555 1_555
C10 C9 1_555 1_555
H8 C10 1_555 1_555
C11 N2 1_555 1_555
H9 C11 1_555 1_555
C12 C8 1_555 1_555
H10 C12 1_555 1_555
O1 H11 1_555 1_555
H12 O1 1_555 1_555
Cd1B N1B 1_555 1_555
Cd1D N2B 1_555 1_555
Cd1F N2 1_555 1_555
Cl1A Cd1 1_555 1_555
N1B C1B 1_555 1_555
N1A Cd1 1_555 1_555
C1B H1B 1_555 1_555
C2B C1B 1_555 1_555
H2B C2B 1_555 1_555
N2B C10B 1_555 1_555
N2F Cd1 1_555 1_555
N2G Cd1 1_555 1_555
C3B C2B 1_555 1_555
C4B C3B 1_555 1_555
H3B C4B 1_555 1_555
C5B N1B 1_555 1_555
H4B C5B 1_555 1_555
C6B C6 1_555 1_555
H5B C6B 1_555 1_555
C7B C7 1_555 1_555
H6B C7B 1_555 1_555
C8B C7B 1_555 1_555
C9B C8B 1_555 1_555
H7B C9B 1_555 1_555
C10B C9B 1_555 1_555
H8B C10B 1_555 1_555
C11B N2B 1_555 1_555
H9B C11B 1_555 1_555
C12B C8B 1_555 1_555
H10B C12B 1_555 1_555
C4 C5 1_555 1_555
C11 C12 1_555 1_555
C3B C6B 1_555 1_555
C4B C5B 1_555 1_555
C6B C7B 1_555 1_555
C11B C12B 1_555 1_555

#END
