
#######################################################################
#
#                 Cambridge Crystallographic Data Centre
#                                CCDC 
#
#######################################################################
#
# If this CIF has been generated from an entry in the Cambridge 
# Structural Database, then it will include bibliographic, chemical, 
# crystal, experimental, refinement or atomic coordinate data resulting 
# from the CCDC's data processing and validation procedures.
#
#######################################################################

data_FEBXOB
_chemical_formula_moiety         'C104 Cu16 O40'
_symmetry_cell_setting           tetragonal
_symmetry_space_group_name_H-M   'P 42 2 2'
_symmetry_Int_Tables_number      93
_space_group_name_Hall           'P 4c 2'
loop_
_symmetry_equiv_pos_site_id
_symmetry_equiv_pos_as_xyz
1 x,y,z
2 -x,-y,z
3 -y,x,1/2+z
4 y,-x,1/2+z
5 -x,y,-z
6 x,-y,-z
7 y,x,1/2-z
8 -y,-x,1/2-z
_cell_length_a                   18.7440(8)
_cell_length_b                   18.7440(8)
_cell_length_c                   29.2590(12)
_cell_angle_alpha                90
_cell_angle_beta                 90
_cell_angle_gamma                90
_cell_volume                     10279.8
loop_
_atom_site_label
_atom_site_type_symbol
_atom_site_fract_x
_atom_site_fract_y
_atom_site_fract_z
Cu1 Cu 1.0000 0.5402(8) 0.0000
C1 C 0.5902(15) 0.5173(14) 0.2404(12)
C2 C 0.6420(17) 0.5144(14) 0.2065(10)
C3 C 0.6814(15) 0.4524(18) 0.2001(9)
C4 C 0.6690(19) 0.3933(14) 0.2276(13)
C5 C 0.6172(19) 0.3962(15) 0.2616(11)
C6 C 0.5778(13) 0.4582(18) 0.2680(9)
C7 C 0.8982(19) 0.443(2) 0.0582(13)
C8 C 0.8960(19) 0.535(2) 0.0659(12)
C9 C 0.7376(13) 0.444(2) 0.1612(8)
C10 C 0.7654(19) 0.5072(15) 0.1433(12)
C11 C 0.8151(18) 0.5044(15) 0.1081(12)
C12 C 0.8370(13) 0.439(2) 0.0908(8)
C13 C 0.8092(16) 0.3761(15) 0.1088(10)
C14 C 0.7594(16) 0.3789(16) 0.1440(11)
C15 C 0.539(2) 0.480(2) 0.2006(15)
C16 C 0.594(2) 0.500(2) 0.1702(12)
C17 C 0.657(2) 0.460(2) 0.1762(12)
C18 C 0.660(2) 0.406(2) 0.2085(16)
C19 C 0.729(2) 0.4950(16) 0.1597(9)
C20 C 0.7760(14) 0.442(2) 0.1454(12)
C21 C 0.8322(16) 0.4600(18) 0.1163(12)
C22 C 0.8408(19) 0.5300(15) 0.1017(9)
C23 C 0.7933(13) 0.5824(18) 0.1160(9)
C24 C 0.7374(17) 0.5648(15) 0.1451(10)
C25 C 0.645(4) 0.585(3) 0.1445(15)
C26 C 0.589(4) 0.635(4) 0.124(2)
O1 O 0.917(3) 0.508(2) 0.0442(14)
O2 O 0.9247(16) 0.3872(17) 0.0369(10)
O3 O 0.9290(17) 0.475(2) 0.0549(13)
O4 O 0.9225(14) 0.5910(13) 0.0477(8)
O5 O 0.6570(16) 0.5833(15) 0.1930(13)
O6 O 1.0000 0.340(4) 0.0000
Cu2 Cu 1.0000 0.3878(12) 0.0000
O7 O 1.0000 0.264(3) 0.0000
Cu1A Cu 0.0000 0.4598(8) 0.0000
Cu1A_2 Cu 1.0000 0.4598(8) 0.0000
Cu1_2 Cu -0.0000 0.5402(8) 0.0000
Cu1B Cu 0.4598(8) 1.0000 0.5000
Cu1C Cu 0.5402(8) 1.0000 0.5000
Cu1C_2 Cu 0.5402(8) 0.0000 0.5000
Cu1B_2 Cu 0.4598(8) 0.0000 0.5000
C1G C 0.4827(14) 0.4098(15) 0.2596(12)
C1A C 0.4098(15) 0.4827(14) 0.2404(12)
C1F C 0.5173(14) 0.5902(15) 0.2596(12)
C2G C 0.4856(14) 0.3580(17) 0.2935(10)
C2A C 0.3580(17) 0.4856(14) 0.2065(10)
C2F C 0.5144(14) 0.6420(17) 0.2935(10)
C3G C 0.5476(18) 0.3186(15) 0.2999(9)
C3A C 0.3186(15) 0.5476(18) 0.2001(9)
C3F C 0.4524(18) 0.6814(15) 0.2999(9)
C4G C 0.6067(14) 0.3310(19) 0.2724(13)
C4A C 0.3310(19) 0.6067(14) 0.2276(13)
C4F C 0.3933(14) 0.6690(19) 0.2724(13)
C5G C 0.6038(15) 0.3828(19) 0.2384(11)
C5A C 0.3828(19) 0.6038(15) 0.2616(11)
C5F C 0.3962(15) 0.6172(19) 0.2384(11)
C6G C 0.5418(18) 0.4222(13) 0.2320(9)
C6F C 0.4582(18) 0.5778(13) 0.2320(9)
C6A C 0.4222(13) 0.5418(18) 0.2680(9)
C7G C 0.557(2) 0.1018(19) 0.4418(13)
C7F C 0.443(2) 0.8982(19) 0.4418(13)
C7A C 0.1018(19) 0.557(2) 0.0582(13)
C8G C 0.465(2) 0.1040(19) 0.4341(12)
C8F C 0.535(2) 0.8960(19) 0.4341(12)
C8A C 0.1040(19) 0.465(2) 0.0659(12)
C9G C 0.556(2) 0.2624(13) 0.3388(8)
C9F C 0.444(2) 0.7376(13) 0.3388(8)
C9A C 0.2624(13) 0.556(2) 0.1612(8)
C10G C 0.4928(15) 0.2346(19) 0.3567(12)
C10F C 0.5072(15) 0.7654(19) 0.3567(12)
C10A C 0.2346(19) 0.4928(15) 0.1433(12)
C11G C 0.4956(15) 0.1849(18) 0.3919(12)
C11F C 0.5044(15) 0.8151(18) 0.3919(12)
C11A C 0.1849(18) 0.4956(15) 0.1081(12)
C12G C 0.561(2) 0.1630(13) 0.4092(8)
C12F C 0.439(2) 0.8370(13) 0.4092(8)
C12A C 0.1630(13) 0.561(2) 0.0908(8)
C13G C 0.6239(15) 0.1908(16) 0.3912(10)
C13F C 0.3761(15) 0.8092(16) 0.3912(10)
C13A C 0.1908(16) 0.6239(15) 0.1088(10)
C14G C 0.6211(16) 0.2406(16) 0.3560(11)
C14F C 0.3789(16) 0.7594(16) 0.3560(11)
C14A C 0.2406(16) 0.6211(16) 0.1440(11)
C15G C 0.520(2) 0.461(2) 0.2994(15)
C15A C 0.461(2) 0.520(2) 0.2006(15)
C15F C 0.480(2) 0.539(2) 0.2994(15)
C16G C 0.500(2) 0.406(2) 0.3298(12)
C16F C 0.500(2) 0.594(2) 0.3298(12)
C16A C 0.406(2) 0.500(2) 0.1702(12)
C17G C 0.540(2) 0.343(2) 0.3238(12)
C17F C 0.460(2) 0.657(2) 0.3238(12)
C17A C 0.343(2) 0.540(2) 0.1762(12)
C18G C 0.594(2) 0.340(2) 0.2915(16)
C18F C 0.406(2) 0.660(2) 0.2915(16)
C18A C 0.340(2) 0.594(2) 0.2085(16)
C19G C 0.5050(16) 0.271(2) 0.3403(9)
C19F C 0.4950(16) 0.729(2) 0.3403(9)
C19A C 0.271(2) 0.5050(16) 0.1597(9)
C20G C 0.558(2) 0.2240(14) 0.3546(12)
C20F C 0.442(2) 0.7760(14) 0.3546(12)
C20A C 0.2240(14) 0.558(2) 0.1454(12)
C21G C 0.5400(18) 0.1678(16) 0.3837(12)
C21F C 0.4600(18) 0.8322(16) 0.3837(12)
C21A C 0.1678(16) 0.5400(18) 0.1163(12)
C22G C 0.4700(15) 0.1592(19) 0.3983(9)
C22F C 0.5300(15) 0.8408(19) 0.3983(9)
C22A C 0.1592(19) 0.4700(15) 0.1017(9)
C23G C 0.4176(18) 0.2067(13) 0.3840(9)
C23F C 0.5824(18) 0.7933(13) 0.3840(9)
C23A C 0.2067(13) 0.4176(18) 0.1160(9)
C24G C 0.4352(15) 0.2626(17) 0.3549(10)
C24F C 0.5648(15) 0.7374(17) 0.3549(10)
C24A C 0.2626(17) 0.4352(15) 0.1451(10)
C25F C 0.585(3) 0.645(4) 0.3555(15)
C25A C 0.355(4) 0.415(3) 0.1445(15)
C25G C 0.415(3) 0.355(4) 0.3555(15)
C26F C 0.635(4) 0.589(4) 0.376(2)
C26A C 0.411(4) 0.365(4) 0.124(2)
C26G C 0.365(4) 0.411(4) 0.376(2)
O1A O 0.083(3) 0.492(2) 0.0442(14)
O1F O 0.508(2) 0.917(3) 0.4558(14)
O1G O 0.492(2) 0.083(3) 0.4558(14)
O1A_2 O 1.083(3) 0.492(2) 0.0442(14)
O1D O 1.083(3) 0.508(2) -0.0442(14)
O1E O 0.917(3) 0.492(2) -0.0442(14)
O1_2 O -0.083(3) 0.508(2) 0.0442(14)
O1E_2 O -0.083(3) 0.492(2) -0.0442(14)
O1D_2 O 0.083(3) 0.508(2) -0.0442(14)
O2A O 0.0753(16) 0.6128(17) 0.0369(10)
O2F O 0.3872(17) 0.9247(16) 0.4631(10)
O2G O 0.6128(17) 0.0753(16) 0.4631(10)
O2D O 1.0753(16) 0.3872(17) -0.0369(10)
O2E O -0.0753(16) 0.6128(17) -0.0369(10)
O3A O 0.0710(17) 0.525(2) 0.0549(13)
O3F O 0.475(2) 0.9290(17) 0.4451(13)
O3G O 0.525(2) 0.0710(17) 0.4451(13)
O3E O 0.9290(17) 0.525(2) -0.0549(13)
O3A_2 O 1.0710(17) 0.525(2) 0.0549(13)
O3D O 0.0710(17) 0.475(2) -0.0549(13)
O3_2 O -0.0710(17) 0.475(2) 0.0549(13)
O4A O 0.0775(14) 0.4090(13) 0.0477(8)
O4F O 0.5910(13) 0.9225(14) 0.4523(8)
O4G O 0.4090(13) 0.0775(14) 0.4523(8)
O4E O 0.9225(14) 0.4090(13) -0.0477(8)
O4A_2 O 1.0775(14) 0.4090(13) 0.0477(8)
O4D O 0.0775(14) 0.5910(13) -0.0477(8)
O4_2 O -0.0775(14) 0.5910(13) 0.0477(8)
O5F O 0.5833(15) 0.6570(16) 0.3070(13)
O5A O 0.3430(16) 0.4167(15) 0.1930(13)
O5G O 0.4167(15) 0.3430(16) 0.3070(13)
O6A O 0.0000 0.660(4) 0.0000
Cu2A Cu -0.0000 0.6122(12) 0.0000
Cu2A_2 Cu 1.0000 0.6122(12) 0.0000
Cu2_2 Cu 0.0000 0.3878(12) 0.0000
Cu2C Cu 0.3878(12) 1.0000 0.5000
Cu2B Cu 0.6122(12) 1.0000 0.5000
Cu2B_2 Cu 0.6122(12) 0.0000 0.5000
Cu2C_2 Cu 0.3878(12) 0.0000 0.5000
O7A O -0.0000 0.736(3) 0.0000
loop_
_geom_bond_atom_site_label_1
_geom_bond_atom_site_label_2
_geom_bond_site_symmetry_1
_geom_bond_site_symmetry_2
Cu1 O1 1_555 1_555
C1 C2 1_555 1_555
C2 C3 1_555 1_555
C3 C4 1_555 1_555
C4 C5 1_555 1_555
C5 C6 1_555 1_555
C6 C1 1_555 1_555
C7 C8 1_555 1_555
C8 C22 1_555 1_555
C9 C3 1_555 1_555
C10 C9 1_555 1_555
C11 C10 1_555 1_555
C12 C7 1_555 1_555
C13 C12 1_555 1_555
C14 C9 1_555 1_555
C15 C1 1_555 1_555
C16 C2 1_555 1_555
C17 C2 1_555 1_555
C18 C3 1_555 1_555
C19 C3 1_555 1_555
C20 C9 1_555 1_555
C21 C10 1_555 1_555
C22 C11 1_555 1_555
C23 C10 1_555 1_555
C24 C10 1_555 1_555
C25 C24 1_555 1_555
C26 C25 1_555 1_555
O1 C7 1_555 1_555
O2 C7 1_555 1_555
O3 C7 1_555 1_555
O4 C8 1_555 1_555
O5 C2 1_555 1_555
O6 Cu2 1_555 1_555
Cu2 O2 1_555 1_555
O7 O6 1_555 1_555
Cu1A Cu1_2 1_555 1_555
Cu1A_2 Cu1 1_555 1_555
Cu1_2 O1A 1_555 1_555
Cu1B Cu1C 1_555 1_555
Cu1C O1F 1_555 1_555
Cu1C_2 Cu1B_2 1_555 1_555
Cu1B_2 O1G 1_555 1_555
C1G C2G 1_555 1_555
C1A C2A 1_555 1_555
C1F C2F 1_555 1_555
C2G C3G 1_555 1_555
C2A C3A 1_555 1_555
C2F C3F 1_555 1_555
C3G C4G 1_555 1_555
C3A C4A 1_555 1_555
C3F C4F 1_555 1_555
C4G C5 1_555 1_555
C4A C5A 1_555 1_555
C4F C5A 1_555 1_555
C5G C4 1_555 1_555
C5A C5F 1_555 1_555
C5F C4A 1_555 1_555
C6G C5 1_555 1_555
C6F C1F 1_555 1_555
C6A C1A 1_555 1_555
C7G C8G 1_555 1_555
C7F C8F 1_555 1_555
C7A C8A 1_555 1_555
C8G C22G 1_555 1_555
C8F C22F 1_555 1_555
C8A C22A 1_555 1_555
C9G C3G 1_555 1_555
C9F C3F 1_555 1_555
C9A C3A 1_555 1_555
C10G C9G 1_555 1_555
C10F C9F 1_555 1_555
C10A C9A 1_555 1_555
C11G C10G 1_555 1_555
C11F C10F 1_555 1_555
C11A C10A 1_555 1_555
C12G C7G 1_555 1_555
C12F C7F 1_555 1_555
C12A C7A 1_555 1_555
C13G C12G 1_555 1_555
C13F C12F 1_555 1_555
C13A C12A 1_555 1_555
C14G C9G 1_555 1_555
C14F C9F 1_555 1_555
C14A C9A 1_555 1_555
C15G C6 1_555 1_555
C15A C15 1_555 1_555
C15F C1F 1_555 1_555
C16G C2G 1_555 1_555
C16F C2F 1_555 1_555
C16A C2A 1_555 1_555
C17G C2G 1_555 1_555
C17F C2F 1_555 1_555
C17A C2A 1_555 1_555
C18G C5 1_555 1_555
C18F C3F 1_555 1_555
C18A C3A 1_555 1_555
C19G C3G 1_555 1_555
C19F C3F 1_555 1_555
C19A C3A 1_555 1_555
C20G C9G 1_555 1_555
C20F C9F 1_555 1_555
C20A C9A 1_555 1_555
C21G C10G 1_555 1_555
C21F C10F 1_555 1_555
C21A C10A 1_555 1_555
C22G C11G 1_555 1_555
C22F C11F 1_555 1_555
C22A C11A 1_555 1_555
C23G C10G 1_555 1_555
C23F C10F 1_555 1_555
C23A C10A 1_555 1_555
C24G C10G 1_555 1_555
C24F C10F 1_555 1_555
C24A C10A 1_555 1_555
C25F C24F 1_555 1_555
C25A C24A 1_555 1_555
C25G C24G 1_555 1_555
C26F C25F 1_555 1_555
C26A C25A 1_555 1_555
C26G C25G 1_555 1_555
O1A Cu1A 1_555 1_555
O1F Cu1B 1_555 1_555
O1G Cu1C_2 1_555 1_555
O1A_2 Cu1 1_555 1_555
O1D Cu1 1_555 1_555
O1E Cu1 1_555 1_555
O1_2 Cu1A 1_555 1_555
O1E_2 Cu1A 1_555 1_555
O1D_2 Cu1A 1_555 1_555
O2A C7A 1_555 1_555
O2F C7F 1_555 1_555
O2G C7G 1_555 1_555
O2D Cu2 1_555 1_555
O2E Cu2A 1_555 1_555
O3A Cu1_2 1_555 1_555
O3F Cu1B 1_555 1_555
O3G Cu1C_2 1_555 1_555
O3E Cu1 1_555 1_555
O3A_2 Cu1 1_555 1_555
O3D Cu1A 1_555 1_555
O3_2 Cu1A 1_555 1_555
O4A C8A 1_555 1_555
O4F C8F 1_555 1_555
O4G C8G 1_555 1_555
O4E Cu2 1_555 1_555
O4A_2 Cu2 1_555 1_555
O4D O1D_2 1_555 1_555
O4_2 O1_2 1_555 1_555
O5F C2F 1_555 1_555
O5A C2A 1_555 1_555
O5G C2G 1_555 1_555
O6A Cu2A 1_555 1_555
Cu2A Cu1_2 1_555 1_555
Cu2A_2 Cu1 1_555 1_555
Cu2_2 Cu1A 1_555 1_555
Cu2C Cu1B 1_555 1_555
Cu2B Cu1C 1_555 1_555
Cu2B_2 Cu1C_2 1_555 1_555
Cu2C_2 Cu1B_2 1_555 1_555
O7A O6A 1_555 1_555
C3 C17 1_555 1_555
C4 C18 1_555 1_555
C5 C18 1_555 1_555
C5 C5G 1_555 1_555
C6 C5G 1_555 1_555
C6 C6G 1_555 1_555
C8 O1 1_555 1_555
C8 O3 1_555 1_555
C9 C17 1_555 1_555
C9 C19 1_555 1_555
C10 C19 1_555 1_555
C10 C20 1_555 1_555
C11 C12 1_555 1_555
C11 C20 1_555 1_555
C11 C21 1_555 1_555
C11 C23 1_555 1_555
C12 C21 1_555 1_555
C12 C22 1_555 1_555
C13 C14 1_555 1_555
C13 C20 1_555 1_555
C13 C21 1_555 1_555
C14 C20 1_555 1_555
C15 C16 1_555 1_555
C15 C6G 1_555 1_555
C16 C17 1_555 1_555
C17 C18 1_555 1_555
C17 C19 1_555 1_555
C18 C5G 1_555 1_555
C19 C20 1_555 1_555
C19 C24 1_555 1_555
C20 C21 1_555 1_555
C21 C22 1_555 1_555
C22 C23 1_555 1_555
C23 C24 1_555 1_555
C25 O5 1_555 1_555
O1 O3 1_555 1_555
O1 O4 1_555 1_555
O1 Cu1A_2 1_555 1_555
O2 O3 1_555 1_555
O3 Cu1A_2 1_555 1_555
O4 Cu2A_2 1_555 1_555
Cu2 Cu1A_2 1_555 1_555
Cu1A_2 O1A_2 1_555 1_555
Cu1A_2 O1D 1_555 1_555
Cu1A_2 O1E 1_555 1_555
Cu1_2 O1_2 1_555 1_555
Cu1_2 O1E_2 1_555 1_555
Cu1_2 O1D_2 1_555 1_555
C1G C6G 1_555 1_555
C1G C15G 1_555 1_555
C1A C15A 1_555 1_555
C3G C17G 1_555 1_555
C3G C18G 1_555 1_555
C3A C17A 1_555 1_555
C3F C17F 1_555 1_555
C4G C5G 1_555 1_555
C4G C18G 1_555 1_555
C4A C18A 1_555 1_555
C4F C5F 1_555 1_555
C4F C18F 1_555 1_555
C5G C6G 1_555 1_555
C5G C18G 1_555 1_555
C5A C6F 1_555 1_555
C5A C6A 1_555 1_555
C5A C18F 1_555 1_555
C5A C18A 1_555 1_555
C5F C6F 1_555 1_555
C5F C6A 1_555 1_555
C5F C18F 1_555 1_555
C5F C18A 1_555 1_555
C6F C6A 1_555 1_555
C6F C15A 1_555 1_555
C6A C15F 1_555 1_555
C7G O1G 1_555 1_555
C7G O3G 1_555 1_555
C7F O1F 1_555 1_555
C7F O3F 1_555 1_555
C7A O1A 1_555 1_555
C7A O3A 1_555 1_555
C8G O1G 1_555 1_555
C8G O3G 1_555 1_555
C8F O1F 1_555 1_555
C8F O3F 1_555 1_555
C8A O1A 1_555 1_555
C8A O3A 1_555 1_555
C9G C17G 1_555 1_555
C9G C19G 1_555 1_555
C9F C17F 1_555 1_555
C9F C19F 1_555 1_555
C9A C17A 1_555 1_555
C9A C19A 1_555 1_555
C10G C19G 1_555 1_555
C10G C20G 1_555 1_555
C10F C19F 1_555 1_555
C10F C20F 1_555 1_555
C10A C19A 1_555 1_555
C10A C20A 1_555 1_555
C11G C12G 1_555 1_555
C11G C20G 1_555 1_555
C11G C21G 1_555 1_555
C11G C23G 1_555 1_555
C11F C12F 1_555 1_555
C11F C20F 1_555 1_555
C11F C21F 1_555 1_555
C11F C23F 1_555 1_555
C11A C12A 1_555 1_555
C11A C20A 1_555 1_555
C11A C21A 1_555 1_555
C11A C23A 1_555 1_555
C12G C21G 1_555 1_555
C12G C22G 1_555 1_555
C12F C21F 1_555 1_555
C12F C22F 1_555 1_555
C12A C21A 1_555 1_555
C12A C22A 1_555 1_555
C13G C14G 1_555 1_555
C13G C20G 1_555 1_555
C13G C21G 1_555 1_555
C13F C14F 1_555 1_555
C13F C20F 1_555 1_555
C13F C21F 1_555 1_555
C13A C14A 1_555 1_555
C13A C20A 1_555 1_555
C13A C21A 1_555 1_555
C14G C20G 1_555 1_555
C14F C20F 1_555 1_555
C14A C20A 1_555 1_555
C15G C15F 1_555 1_555
C15G C16G 1_555 1_555
C15A C16A 1_555 1_555
C15F C16F 1_555 1_555
C16G C17G 1_555 1_555
C16F C17F 1_555 1_555
C16A C17A 1_555 1_555
C17G C18G 1_555 1_555
C17G C19G 1_555 1_555
C17F C18F 1_555 1_555
C17F C19F 1_555 1_555
C17A C18A 1_555 1_555
C17A C19A 1_555 1_555
C19G C20G 1_555 1_555
C19G C24G 1_555 1_555
C19F C20F 1_555 1_555
C19F C24F 1_555 1_555
C19A C20A 1_555 1_555
C19A C24A 1_555 1_555
C20G C21G 1_555 1_555
C20F C21F 1_555 1_555
C20A C21A 1_555 1_555
C21G C22G 1_555 1_555
C21F C22F 1_555 1_555
C21A C22A 1_555 1_555
C22G C23G 1_555 1_555
C22F C23F 1_555 1_555
C22A C23A 1_555 1_555
C23G C24G 1_555 1_555
C23F C24F 1_555 1_555
C23A C24A 1_555 1_555
C25F O5F 1_555 1_555
C25A O5A 1_555 1_555
C25G O5G 1_555 1_555
O1A O3A 1_555 1_555
O1A O4A 1_555 1_555
O1F O3F 1_555 1_555
O1F O4F 1_555 1_555
O1G O3G 1_555 1_555
O1G O4G 1_555 1_555
O1A_2 O3A_2 1_555 1_555
O1A_2 O4A_2 1_555 1_555
O1E O3E 1_555 1_555
O1E O4E 1_555 1_555
O1_2 O3_2 1_555 1_555
O1D_2 O3D 1_555 1_555
O2A O3A 1_555 1_555
O2A Cu2A 1_555 1_555
O2F O3F 1_555 1_555
O2F Cu2C 1_555 1_555
O2G O3G 1_555 1_555
O2G Cu2B_2 1_555 1_555
O4A Cu2_2 1_555 1_555
O4F Cu2B 1_555 1_555
O4G Cu2C_2 1_555 1_555
O4D Cu2A 1_555 1_555
O4_2 Cu2A 1_555 1_555

#END
