
#######################################################################
#
#                 Cambridge Crystallographic Data Centre
#                                CCDC 
#
#######################################################################
#
# If this CIF has been generated from an entry in the Cambridge 
# Structural Database, then it will include bibliographic, chemical, 
# crystal, experimental, refinement or atomic coordinate data resulting 
# from the CCDC's data processing and validation procedures.
#
#######################################################################

data_FEBXIV
_chemical_formula_moiety         '(C48 H29 Cu2 O14 P1)n'
_symmetry_cell_setting           tetragonal
_symmetry_space_group_name_H-M   'I 41 2 2'
_symmetry_Int_Tables_number      98
_space_group_name_Hall           'I 4bw 2bw'
loop_
_symmetry_equiv_pos_site_id
_symmetry_equiv_pos_as_xyz
1 x,y,z
2 1/2-x,1/2-y,1/2+z
3 -y,1/2+x,1/4+z
4 1/2+y,-x,3/4+z
5 1/2-x,y,3/4-z
6 x,1/2-y,1/4-z
7 1/2+y,1/2+x,1/2-z
8 -y,-x,-z
9 1/2+x,1/2+y,1/2+z
10 -x,-y,z
11 1/2-y,x,3/4+z
12 y,1/2-x,1/4+z
13 -x,1/2+y,1/4-z
14 1/2+x,-y,3/4-z
15 y,x,-z
16 1/2-y,1/2-x,1/2-z
_cell_length_a                   24.4616(4)
_cell_length_b                   24.4616(4)
_cell_length_c                   71.8721(12)
_cell_angle_alpha                90
_cell_angle_beta                 90
_cell_angle_gamma                90
_cell_volume                     43006.1
loop_
_atom_site_label
_atom_site_type_symbol
_atom_site_fract_x
_atom_site_fract_y
_atom_site_fract_z
Cu1 Cu -0.036240(16) -0.039780(14) -0.136780(4)
O1 O -0.00403(11) 0.43088(8) 0.09292(3)
O2 O -0.07517(10) 0.48867(9) 0.09549(3)
O3 O -0.00312(10) 0.07441(9) 0.11899(3)
O4 O -0.06898(9) 0.01047(10) 0.11630(3)
C1 C -0.05228(17) 0.44980(18) 0.08938(5)
C2 C -0.0836(3) 0.4143(2) 0.07493(5)
C3 C -0.05654(15) 0.3716(3) 0.06594(9)
H1 H -0.0203 0.3634 0.0686
C4 C -0.16712(19) 0.3940(3) 0.05942(10)
H2 H -0.2040 0.4009 0.0574
C5 C -0.2296(2) 0.2571(3) 0.00846(7)
C6 C -0.1383(4) 0.3499(3) 0.05018(7)
C7 C -0.1207(3) 0.06443(17) 0.08776(10)
H3 H -0.1361 0.0321 0.0921
C8 C -0.0745(3) 0.16108(15) 0.07515(10)
H4 H -0.0586 0.1932 0.0708
C9 C -0.04534(16) 0.05524(17) 0.11235(5)
C10 C -0.0739(3) 0.0845(3) 0.09627(6)
C11 C -0.1364(4) 0.42461(18) 0.07132(8)
H5 H -0.1528 0.4541 0.0772
C12 C -0.14696(19) 0.0929(3) 0.07198(9)
H6 H -0.1779 0.0796 0.0660
C13 C -0.17351(19) 0.2591(3) 0.03578(9)
C14 C -0.0862(3) 0.34123(17) 0.05262(8)
H7 H -0.0684 0.3149 0.0455
C15 C -0.05154(15) 0.1328(3) 0.08981(9)
H8 H -0.0203 0.1466 0.0955
C16 C -0.1998(3) 0.3431(2) 0.02430(11)
H9 H -0.1992 0.3811 0.0242
C17 C -0.1720(2) 0.3169(3) 0.03732(9)
C18 C -0.2010(2) 0.2296(3) 0.02143(10)
C19 C -0.1214(3) 0.1410(3) 0.06695(7)
C20 C -0.19789(16) 0.1704(3) 0.02246(7)
H10 H -0.2133 0.1504 0.0128
C21 C -0.17363(18) 0.14142(15) 0.03681(10)
H11 H -0.1740 0.1034 0.0370
C22 C -0.14713(16) 0.1734(4) 0.05174(8)
C23 C -0.14766(15) 0.2303(3) 0.05007(8)
H12 H -0.1295 0.2505 0.0591
C24 C -0.2319(2) 0.3138(4) 0.00996(10)
O5 O -0.09534(7) -0.10519(6) -0.13677(2)
O6 O -0.26600(17) 0.34312(10) -0.00302(3)
P1 P -0.33699(9) 0.33699(9) 0.0000
O7 O -0.36024(14) 0.35202(14) -0.01839(4)
Cu1D Cu -0.463760(16) -0.039780(14) -0.113220(4)
Cu1K Cu -0.039780(14) 0.536240(16) 0.113220(4)
Cu1G Cu 0.039780(14) 0.036240(16) 0.136780(4)
Cu1N Cu -0.039780(14) -0.036240(16) 0.136780(4)
Cu1M Cu -0.536240(16) 0.039780(14) -0.113220(4)
Cu1B Cu 0.039780(14) 0.463760(16) 0.113220(4)
Cu1I Cu 0.036240(16) 0.039780(14) -0.136780(4)
O1G O -0.43088(8) 0.00403(11) -0.09292(3)
O1C O -0.06912(8) 0.00403(11) -0.15708(3)
O1J O 0.06912(8) -0.00403(11) -0.15708(3)
O2G O -0.48867(9) 0.07517(10) -0.09549(3)
O2J O 0.01133(9) -0.07517(10) -0.15451(3)
O2C O -0.01133(9) 0.07517(10) -0.15451(3)
O3G O -0.07441(9) 0.00312(10) -0.11899(3)
O3N O 0.07441(9) -0.00312(10) -0.11899(3)
O4G O -0.01047(10) 0.06898(9) -0.11630(3)
O4N O 0.01047(10) -0.06898(9) -0.11630(3)
C1G C -0.44980(18) 0.05228(17) -0.08938(5)
C2G C -0.4143(2) 0.0836(3) -0.07493(5)
C3G C -0.3716(3) 0.05654(15) -0.06594(9)
H1G H -0.3634 0.0203 -0.0686
C4G C -0.3940(3) 0.16712(19) -0.05942(10)
H2G H -0.4009 0.2040 -0.0574
C5G C -0.2571(3) 0.2296(2) -0.00846(7)
C6G C -0.3499(3) 0.1383(4) -0.05018(7)
C7G C -0.06443(17) 0.1207(3) -0.08776(10)
H3G H -0.0321 0.1361 -0.0921
C8G C -0.16108(15) 0.0745(3) -0.07515(10)
H4G H -0.1932 0.0586 -0.0708
C9G C -0.05524(17) 0.04534(16) -0.11235(5)
C10G C -0.0845(3) 0.0739(3) -0.09627(6)
C11G C -0.42461(18) 0.1364(4) -0.07132(8)
H5G H -0.4541 0.1528 -0.0772
C12G C -0.0929(3) 0.14696(19) -0.07198(9)
H6G H -0.0796 0.1779 -0.0660
C13G C -0.2591(3) 0.17351(19) -0.03578(9)
C14G C -0.34123(17) 0.0862(3) -0.05262(8)
H7G H -0.3149 0.0684 -0.0455
C15G C -0.1328(3) 0.05154(15) -0.08981(9)
H8G H -0.1466 0.0203 -0.0955
C16G C -0.3431(2) 0.1998(3) -0.02430(11)
H9G H -0.3811 0.1992 -0.0242
C17G C -0.3169(3) 0.1720(2) -0.03732(9)
C18G C -0.2296(3) 0.2010(2) -0.02143(10)
C19G C -0.1410(3) 0.1214(3) -0.06695(7)
C20G C -0.1704(3) 0.19789(16) -0.02246(7)
H10G H -0.1504 0.2133 -0.0128
C21G C -0.14142(15) 0.17363(18) -0.03681(10)
H11G H -0.1034 0.1740 -0.0370
C22G C -0.1734(4) 0.14713(16) -0.05174(8)
C23G C -0.2303(3) 0.14766(15) -0.05007(8)
H12G H -0.2505 0.1295 -0.0591
C24G C -0.3138(4) 0.2319(2) -0.00996(10)
O5I O 0.09534(7) 0.10519(6) -0.13677(2)
O6G O -0.34312(10) 0.26600(17) 0.00302(3)
O7G O -0.35202(14) 0.36024(14) 0.01839(4)
loop_
_geom_bond_atom_site_label_1
_geom_bond_atom_site_label_2
_geom_bond_site_symmetry_1
_geom_bond_site_symmetry_2
Cu1 O5 1_555 1_555
O1 C1 1_555 1_555
O2 C1 1_555 1_555
O3 C9 1_555 1_555
O4 C9 1_555 1_555
C1 C2 1_555 1_555
C2 C3 1_555 1_555
C3 H1 1_555 1_555
C4 H2 1_555 1_555
C5 C18 1_555 1_555
C6 C4 1_555 1_555
C7 H3 1_555 1_555
C8 H4 1_555 1_555
C9 C10 1_555 1_555
C10 C7 1_555 1_555
C11 C2 1_555 1_555
H5 C11 1_555 1_555
C12 C7 1_555 1_555
H6 C12 1_555 1_555
C13 C17 1_555 1_555
C14 C3 1_555 1_555
H7 C14 1_555 1_555
C15 C8 1_555 1_555
H8 C15 1_555 1_555
C16 H9 1_555 1_555
C17 C6 1_555 1_555
C18 C13 1_555 1_555
C19 C8 1_555 1_555
C20 C18 1_555 1_555
H10 C20 1_555 1_555
C21 C20 1_555 1_555
H11 C21 1_555 1_555
C22 C19 1_555 1_555
C23 C13 1_555 1_555
H12 C23 1_555 1_555
C24 C5 1_555 1_555
O6 C24 1_555 1_555
P1 O6 1_555 1_555
O7 P1 1_555 1_555
Cu1D O1G 1_555 1_555
Cu1K O2 1_555 1_555
Cu1G O3 1_555 1_555
Cu1N O4 1_555 1_555
Cu1M O2G 1_555 1_555
Cu1B O1 1_555 1_555
Cu1I O1J 1_555 1_555
O1G C1G 1_555 1_555
O1C Cu1 1_555 1_555
O2G C1G 1_555 1_555
O2J Cu1 1_555 1_555
O2C Cu1I 1_555 1_555
O3G Cu1 1_555 1_555
O3N Cu1I 1_555 1_555
O4G Cu1I 1_555 1_555
O4N Cu1 1_555 1_555
C1G C2G 1_555 1_555
C2G C3G 1_555 1_555
C3G H1G 1_555 1_555
C4G H2G 1_555 1_555
C5G C5 1_555 1_555
C6G C4G 1_555 1_555
C7G H3G 1_555 1_555
C8G H4G 1_555 1_555
C9G O3G 1_555 1_555
C10G C7G 1_555 1_555
C11G C2G 1_555 1_555
H5G C11G 1_555 1_555
C12G C7G 1_555 1_555
H6G C12G 1_555 1_555
C13G C17G 1_555 1_555
C14G C3G 1_555 1_555
H7G C14G 1_555 1_555
C15G C8G 1_555 1_555
H8G C15G 1_555 1_555
C16G H9G 1_555 1_555
C17G C6G 1_555 1_555
C18G C5G 1_555 1_555
C19G C8G 1_555 1_555
C20G C18G 1_555 1_555
H10G C20G 1_555 1_555
C21G C20G 1_555 1_555
H11G C21G 1_555 1_555
C22G C19G 1_555 1_555
C23G C13G 1_555 1_555
H12G C23G 1_555 1_555
C24G C5G 1_555 1_555
O5I Cu1I 1_555 1_555
O6G P1 1_555 1_555
O7G P1 1_555 1_555
C4 C11 1_555 1_555
C6 C14 1_555 1_555
C10 C15 1_555 1_555
C12 C19 1_555 1_555
C16 C17 1_555 1_555
C16 C24 1_555 1_555
C21 C22 1_555 1_555
C22 C23 1_555 1_555
O4G C9G 1_555 1_555
C4G C11G 1_555 1_555
C6G C14G 1_555 1_555
C9G C10G 1_555 1_555
C10G C15G 1_555 1_555
C12G C19G 1_555 1_555
C13G C18G 1_555 1_555
C16G C17G 1_555 1_555
C16G C24G 1_555 1_555
C21G C22G 1_555 1_555
C22G C23G 1_555 1_555
C24G O6G 1_555 1_555

#END
