
#######################################################################
#
#                 Cambridge Crystallographic Data Centre
#                                CCDC 
#
#######################################################################
#
# If this CIF has been generated from an entry in the Cambridge 
# Structural Database, then it will include bibliographic, chemical, 
# crystal, experimental, refinement or atomic coordinate data resulting 
# from the CCDC's data processing and validation procedures.
#
#######################################################################

data_DAKVUI
_chemical_formula_moiety         '(C37 H28 Cu4 O24)n'
_symmetry_cell_setting           orthorhombic
_symmetry_space_group_name_H-M   'P b c m'
_symmetry_Int_Tables_number      57
_space_group_name_Hall           '-P 2c 2b'
loop_
_symmetry_equiv_pos_site_id
_symmetry_equiv_pos_as_xyz
1 x,y,z
2 -x,-y,1/2+z
3 x,1/2-y,-z
4 -x,1/2+y,1/2-z
5 -x,-y,-z
6 x,y,1/2-z
7 -x,1/2+y,z
8 x,1/2-y,1/2+z
_cell_length_a                   12.2970(5)
_cell_length_b                   26.0570(12)
_cell_length_c                   26.0840(12)
_cell_angle_alpha                90
_cell_angle_beta                 90
_cell_angle_gamma                90
_cell_volume                     8357.91
loop_
_atom_site_label
_atom_site_type_symbol
_atom_site_fract_x
_atom_site_fract_y
_atom_site_fract_z
Cu1 Cu 0.14653(7) 0.22428(3) 0.2500
Cu2 Cu -0.00400(7) 0.29698(3) 0.2500
Cu3 Cu -0.07413(4) 0.49360(2) 0.03637(2)
C1 C -0.0332(5) 0.2135(2) 0.1818(2)
C2 C -0.0946(5) 0.1883(2) 0.1389(2)
C3 C -0.1858(5) 0.2135(2) 0.1188(2)
H1 H -0.2086 0.2444 0.1330
C4 C -0.2421(5) 0.1925(2) 0.0779(2)
C5 C -0.2084(5) 0.1465(2) 0.0565(2)
H2 H -0.2457 0.1327 0.0287
C6 C -0.1181(4) 0.1209(2) 0.0767(2)
C7 C -0.0602(4) 0.1418(2) 0.1179(2)
H3 H 0.0002 0.1249 0.1311
C8 C -0.0777(4) 0.0730(2) 0.0512(2)
C9 C -0.3848(4) 0.2050(2) 0.0169(2)
H4 H -0.4293 0.1755 0.0254
H5 H -0.3351 0.1955 -0.0103
C10 C -0.4566(6) 0.2500 0.0000
C11 C -0.5267(4) 0.2329(2) -0.0452(2)
H6 H -0.5770 0.2598 -0.0548
H7 H -0.4815 0.2247 -0.0745
C12 C -0.6665(5) 0.1698(2) -0.0582(2)
C13 C -0.6980(5) 0.1908(2) -0.1050(2)
H8 H -0.6603 0.2184 -0.1190
C14 C -0.7868(5) 0.1698(2) -0.1305(2)
C15 C -0.8430(5) 0.1281(2) -0.1106(2)
H9 H -0.9026 0.1146 -0.1280
C16 C -0.8088(5) 0.1068(2) -0.0643(2)
C17 C -0.7210(5) 0.1277(2) -0.0382(2)
H10 H -0.6987 0.1135 -0.0072
C18 C -0.8300(4) 0.1939(2) -0.1791(2)
C19 C -0.8744(4) 0.0642(2) -0.0405(2)
O1 O 0.2658(6) 0.1648(3) 0.2500
O2 O -0.1241(7) 0.3577(3) 0.2500
O3 O 0.0524(3) 0.19224(16) 0.19689(15)
O4 O -0.0713(4) 0.2553(2) 0.1976(2)
O5 O 0.0022(3) 0.05097(16) 0.07124(17)
O6 O -0.1247(3) 0.06045(15) 0.01033(16)
O7 O -0.3255(4) 0.22190(19) 0.0611(2)
O8 O -0.5849(4) 0.18816(19) -0.02822(18)
O9 O -0.7853(3) 0.23359(15) -0.19545(15)
O10 O -0.9136(4) 0.1727(2) -0.1975(2)
O11 O -0.9620(3) 0.05329(17) -0.06211(17)
O12 O -0.8369(3) 0.04433(17) -0.00002(16)
O13 O -0.1877(4) 0.4734(2) 0.0953(2)
Cu1B Cu -0.85347(7) 0.27572(3) -0.2500
Cu1B_2 Cu 0.14653(7) 0.27572(3) -0.2500
Cu1_2 Cu -0.85347(7) 0.22428(3) 0.2500
Cu2B Cu -1.00400(7) 0.20302(3) -0.2500
Cu2B_2 Cu -0.00400(7) 0.20302(3) -0.2500
Cu2_2 Cu -1.00400(7) 0.29698(3) 0.2500
Cu3D Cu 0.07413(4) 0.50640(2) -0.03637(2)
Cu3B Cu -0.07413(4) 0.00640(2) -0.03637(2)
Cu3B_2 Cu -1.07413(4) 0.00640(2) -0.03637(2)
Cu3F Cu -0.92587(4) -0.00640(2) 0.03637(2)
Cu3F_2 Cu 0.07413(4) -0.00640(2) 0.03637(2)
Cu3_2 Cu -1.07413(4) 0.49360(2) 0.03637(2)
Cu3D_2 Cu -0.92587(4) 0.50640(2) -0.03637(2)
C1B C -0.0332(5) 0.2865(2) -0.1818(2)
C2B C -0.0946(5) 0.3117(2) -0.1389(2)
C3B C -0.1858(5) 0.2865(2) -0.1188(2)
H1B H -0.2086 0.2556 -0.1330
C4B C -0.2421(5) 0.3075(2) -0.0779(2)
C5B C -0.2084(5) 0.3535(2) -0.0565(2)
H2B H -0.2457 0.3673 -0.0287
C6B C -0.1181(4) 0.3791(2) -0.0767(2)
C7B C -0.0602(4) 0.3582(2) -0.1179(2)
H3B H 0.0002 0.3751 -0.1311
C8B C -0.0777(4) 0.4270(2) -0.0512(2)
C9B C -0.3848(4) 0.2950(2) -0.0169(2)
H4B H -0.4293 0.3245 -0.0254
H5B H -0.3351 0.3045 0.0103
C11B C -0.5267(4) 0.2671(2) 0.0452(2)
H6B H -0.5770 0.2402 0.0548
H7B H -0.4815 0.2753 0.0745
C12B C -0.6665(5) 0.3302(2) 0.0582(2)
C13B C -0.6980(5) 0.3092(2) 0.1050(2)
H8B H -0.6603 0.2816 0.1190
C14B C -0.7868(5) 0.3302(2) 0.1305(2)
C15B C -0.8430(5) 0.3719(2) 0.1106(2)
H9B H -0.9026 0.3854 0.1280
C16B C -0.8088(5) 0.3932(2) 0.0643(2)
C17B C -0.7210(5) 0.3723(2) 0.0382(2)
H10B H -0.6987 0.3865 0.0072
C18B C -0.8300(4) 0.3061(2) 0.1791(2)
C19B C -0.8744(4) 0.4358(2) 0.0405(2)
O3B O 0.0524(3) 0.30776(16) -0.19689(15)
O3E O 0.0524(3) 0.19224(16) 0.30311(15)
O4B O -0.0713(4) 0.2447(2) -0.1976(2)
O4E O -0.0713(4) 0.2553(2) 0.3024(2)
O5B O 0.0022(3) 0.44903(16) -0.07124(17)
O5F O -0.0022(3) 0.55097(16) 0.07124(17)
O5B_2 O -0.9978(3) 0.44903(16) -0.07124(17)
O6B O -0.1247(3) 0.43955(15) -0.01033(16)
O6F O -0.8753(3) 0.56045(15) 0.01033(16)
O7B O -0.3255(4) 0.27810(19) -0.0611(2)
O8B O -0.5849(4) 0.31184(19) 0.02822(18)
O9B O -0.7853(3) 0.26641(15) 0.19545(15)
O9B_2 O 0.2147(3) 0.26641(15) 0.19545(15)
O9G O 0.2147(3) 0.26641(15) 0.30455(15)
O10B O -0.9136(4) 0.3273(2) 0.1975(2)
O10B_2 O 0.0864(4) 0.3273(2) 0.1975(2)
O10G O 0.0864(4) 0.3273(2) 0.3025(2)
O11B O -0.9620(3) 0.44671(17) 0.06211(17)
O11B_2 O 0.0380(3) 0.44671(17) 0.06211(17)
O11F O -1.0380(3) 0.55329(17) -0.06211(17)
O12B O -0.8369(3) 0.45567(17) 0.00002(16)
O12F O -0.1631(3) 0.54433(17) -0.00002(16)
O13D O -0.8123(4) 0.5266(2) -0.0953(2)
loop_
_geom_bond_atom_site_label_1
_geom_bond_atom_site_label_2
_geom_bond_site_symmetry_1
_geom_bond_site_symmetry_2
Cu1 O1 1_555 1_555
Cu2 O2 1_555 1_555
Cu3 O13 1_555 1_555
C1 C2 1_555 1_555
C2 C3 1_555 1_555
C3 H1 1_555 1_555
C4 C3 1_555 1_555
C5 C4 1_555 1_555
H2 C5 1_555 1_555
C6 C5 1_555 1_555
C7 C2 1_555 1_555
H3 C7 1_555 1_555
C8 C6 1_555 1_555
C9 H4 1_555 1_555
H5 C9 1_555 1_555
C10 C9 1_555 1_555
C11 C10 1_555 1_555
H6 C11 1_555 1_555
H7 C11 1_555 1_555
C12 C13 1_555 1_555
C13 H8 1_555 1_555
C14 C13 1_555 1_555
C15 C14 1_555 1_555
H9 C15 1_555 1_555
C16 C15 1_555 1_555
C17 C12 1_555 1_555
H10 C17 1_555 1_555
C18 C14 1_555 1_555
C19 C16 1_555 1_555
O3 Cu1 1_555 1_555
O4 Cu2 1_555 1_555
O5 C8 1_555 1_555
O6 C8 1_555 1_555
O7 C4 1_555 1_555
O8 C11 1_555 1_555
O9 C18 1_555 1_555
O10 C18 1_555 1_555
O11 C19 1_555 1_555
O12 C19 1_555 1_555
Cu1B O9 1_555 1_555
Cu1B_2 O3B 1_555 1_555
Cu1_2 O9B 1_555 1_555
Cu2B O10 1_555 1_555
Cu2B_2 O4B 1_555 1_555
Cu2_2 O10B 1_555 1_555
Cu3D O5B 1_555 1_555
Cu3B O6 1_555 1_555
Cu3B_2 O11 1_555 1_555
Cu3F O12 1_555 1_555
Cu3F_2 O5 1_555 1_555
Cu3_2 O11B 1_555 1_555
Cu3D_2 O5B_2 1_555 1_555
C1B C2B 1_555 1_555
C2B C3B 1_555 1_555
C3B H1B 1_555 1_555
C4B C3B 1_555 1_555
C5B C4B 1_555 1_555
H2B C5B 1_555 1_555
C6B C5B 1_555 1_555
C7B C2B 1_555 1_555
H3B C7B 1_555 1_555
C8B C6B 1_555 1_555
C9B C10 1_555 1_555
H4B C9B 1_555 1_555
H5B C9B 1_555 1_555
C11B C10 1_555 1_555
H6B C11B 1_555 1_555
H7B C11B 1_555 1_555
C12B C13B 1_555 1_555
C13B H8B 1_555 1_555
C14B C13B 1_555 1_555
C15B C14B 1_555 1_555
H9B C15B 1_555 1_555
C16B C15B 1_555 1_555
C17B C12B 1_555 1_555
H10B C17B 1_555 1_555
C18B C14B 1_555 1_555
C19B C16B 1_555 1_555
O3B C1B 1_555 1_555
O3E Cu1 1_555 1_555
O4B C1B 1_555 1_555
O4E Cu2 1_555 1_555
O5B C8B 1_555 1_555
O5F Cu3 1_555 1_555
O6B Cu3 1_555 1_555
O6F Cu3D_2 1_555 1_555
O7B C4B 1_555 1_555
O8B C11B 1_555 1_555
O9B C18B 1_555 1_555
O9B_2 Cu1 1_555 1_555
O9G Cu1 1_555 1_555
O10B C18B 1_555 1_555
O10B_2 Cu2 1_555 1_555
O10G Cu2 1_555 1_555
O11B C19B 1_555 1_555
O11B_2 Cu3 1_555 1_555
O11F Cu3D_2 1_555 1_555
O12B Cu3D_2 1_555 1_555
O12F Cu3 1_555 1_555
O13D Cu3D_2 1_555 1_555
C1 O3 1_555 1_555
C1 O4 1_555 1_555
C6 C7 1_555 1_555
C9 O7 1_555 1_555
C12 O8 1_555 1_555
C16 C17 1_555 1_555
C6B C7B 1_555 1_555
C8B O6B 1_555 1_555
C9B O7B 1_555 1_555
C12B O8B 1_555 1_555
C16B C17B 1_555 1_555
C19B O12B 1_555 1_555

#END
