
#######################################################################
#
#                 Cambridge Crystallographic Data Centre
#                                CCDC 
#
#######################################################################
#
# If this CIF has been generated from an entry in the Cambridge 
# Structural Database, then it will include bibliographic, chemical, 
# crystal, experimental, refinement or atomic coordinate data resulting 
# from the CCDC's data processing and validation procedures.
#
#######################################################################

data_GANBED
_chemical_formula_moiety         'C49 H56 N27 Ni2'
_symmetry_cell_setting           orthorhombic
_symmetry_space_group_name_H-M   'P n n a'
_symmetry_Int_Tables_number      52
_space_group_name_Hall           '-P 2a 2bc'
loop_
_symmetry_equiv_pos_site_id
_symmetry_equiv_pos_as_xyz
1 x,y,z
2 1/2-x,-y,z
3 1/2-x,1/2+y,1/2-z
4 x,1/2-y,1/2-z
5 -x,-y,-z
6 1/2+x,y,-z
7 1/2+x,1/2-y,1/2+z
8 -x,1/2+y,1/2+z
_cell_length_a                   17.1711(15)
_cell_length_b                   22.9918(18)
_cell_length_c                   22.750(2)
_cell_angle_alpha                90
_cell_angle_beta                 90
_cell_angle_gamma                90
_cell_volume                     8981.57
loop_
_atom_site_label
_atom_site_type_symbol
_atom_site_fract_x
_atom_site_fract_y
_atom_site_fract_z
Ni1 Ni 0.47897(2) 0.255899(16) 0.006799(16)
Ni2 Ni 0.49731(2) 0.505890(16) 0.256840(16)
N1 N 0.46648(18) 0.16935(12) 0.03355(12)
N2 N 0.49485(17) 0.22801(12) -0.07959(12)
N3 N 0.49015(18) 0.34188(12) -0.02195(13)
N4 N 0.46531(17) 0.28409(12) 0.09316(12)
N5 N 0.35884(17) 0.26024(15) -0.00684(15)
N6 N 0.59948(15) 0.25204(14) 0.01975(14)
N7 N 0.49074(18) 0.41941(12) 0.22917(12)
N8 N 0.49676(18) 0.59199(12) 0.28504(13)
N9 N 0.4881(2) 0.47778(13) 0.34405(13)
N10 N 0.50614(19) 0.53276(13) 0.16916(13)
N11 N 0.37722(17) 0.51017(15) 0.24858(16)
N12 N 0.61958(16) 0.50204(15) 0.26111(15)
N13 N 0.2324(5) 0.2530(6) -0.0572(4)
C1 C 0.2973(5) 0.2563(5) -0.0287(5)
C2 C 0.6627(5) 0.2519(5) 0.0349(5)
N14 N 0.7480(4) 0.4569(4) 0.2510(7)
C3 C 0.6812(4) 0.4831(4) 0.2568(4)
N15 N 0.5226(2) 0.19082(13) -0.17823(14)
N16 N 0.4583(2) 0.32187(13) 0.19349(13)
N17 N 0.4570(3) 0.06658(14) 0.06122(15)
N18 N 0.4894(3) 0.43831(15) -0.06630(15)
N19 N 0.2500 0.5000 0.2034(4)
C4 C 0.4639(2) 0.12212(14) 0.04951(14)
C5 C 0.50681(19) 0.20778(13) -0.12471(14)
C6 C 0.4907(2) 0.38561(15) -0.04570(14)
C7 C 0.46340(19) 0.30433(13) 0.13909(14)
C8 C 0.4763(2) 0.37462(14) 0.20946(13)
C9 C 0.51096(19) 0.13725(14) -0.19492(14)
C10 C 0.4747(2) 0.04551(14) 0.11282(14)
C11 C 0.4930(2) 0.45053(14) -0.12189(15)
C12 C 0.3158(2) 0.5058(3) 0.2295(2)
N8G N 0.50324(18) 0.09199(12) -0.21496(13)
N9C N 0.4881(2) 0.02222(13) 0.15595(13)
N10D N 0.49386(19) 0.46724(13) -0.16916(13)
N13E N 0.7324(5) 0.2530(6) 0.0572(4)
C2E C 0.1627(5) 0.2519(5) -0.0349(5)
C9G C 0.48904(19) 0.63725(14) 0.30508(14)
C10C C 0.4747(2) 0.45449(14) 0.38718(14)
C11D C 0.5070(2) 0.54947(14) 0.12189(15)
C12A C 0.1842(2) 0.4942(3) 0.2295(2)
N20 N 0.2372(2) 0.2500 0.2500
C13 C 0.1836(2) 0.2806(2) 0.2068(2)
H1 H 0.1491 0.2518 0.1897
H2 H 0.1516 0.3079 0.2285
C14 C 0.2227(4) 0.3130(3) 0.1577(3)
H3 H 0.2515 0.2861 0.1330
H4 H 0.2590 0.3413 0.1735
C15 C 0.1598(4) 0.3438(3) 0.1213(3)
H5 H 0.1839 0.3653 0.0900
H6 H 0.1313 0.3701 0.1461
H7 H 0.1249 0.3155 0.1051
C16 C 0.2906(3) 0.2071(2) 0.2195(2)
H8 H 0.3216 0.2282 0.1909
H9 H 0.3262 0.1913 0.2485
C17 C 0.2511(4) 0.1571(3) 0.1887(3)
H10 H 0.2109 0.1703 0.1618
H11 H 0.2294 0.1293 0.2162
C18 C 0.3262(9) 0.1313(8) 0.1542(6)
H12 H 0.3108 0.0982 0.1313
H13 H 0.3651 0.1198 0.1823
H14 H 0.3473 0.1607 0.1288
C13C C 0.1836(2) 0.2194(2) 0.2932(2)
C16C C 0.2906(3) 0.2929(2) 0.2805(2)
N21 N 0.7500 0.5000 0.02271(19)
C19 C 0.7923(7) 0.5293(5) 0.0727(5)
H15 H 0.7535 0.5448 0.0995
H16 H 0.8210 0.4996 0.0940
C20 C 0.8459(8) 0.5756(6) 0.0587(6)
H17 H 0.8189 0.6033 0.0338
H18 H 0.8881 0.5593 0.0357
C21 C 0.8807(7) 0.6082(5) 0.1091(5)
H19 H 0.9357 0.6129 0.1027
H20 H 0.8723 0.5869 0.1448
H21 H 0.8567 0.6458 0.1121
C22 C 0.8018(8) 0.4554(6) -0.0069(6)
H22 H 0.8434 0.4446 0.0198
H23 H 0.7714 0.4207 -0.0151
C23 C 0.8364(9) 0.4774(7) -0.0630(6)
H24 H 0.8778 0.5049 -0.0546
H25 H 0.7970 0.4970 -0.0862
C24 C 0.8690(8) 0.4251(7) -0.0970(7)
H26 H 0.8292 0.3961 -0.1011
H27 H 0.9124 0.4090 -0.0760
H28 H 0.8858 0.4375 -0.1352
C19A C 0.7077(7) 0.4707(5) 0.0727(5)
C22A C 0.6982(8) 0.5446(6) -0.0069(6)
N22 N 0.7353(2) 0.2500 0.2500
C25 C 0.6852(3) 0.2296(2) 0.1988(2)
H29 H 0.6549 0.2624 0.1848
H30 H 0.7194 0.2178 0.1670
C26 C 0.6302(3) 0.1802(2) 0.2119(2)
H31 H 0.6595 0.1470 0.2261
H32 H 0.5941 0.1919 0.2424
C27 C 0.5858(3) 0.1634(2) 0.1577(2)
H33 H 0.5510 0.1320 0.1668
H34 H 0.6215 0.1512 0.1277
H35 H 0.5563 0.1961 0.1439
C28 C 0.7859(3) 0.3003(2) 0.2293(2)
H36 H 0.7521 0.3303 0.2136
H37 H 0.8124 0.3165 0.2632
C29 C 0.8463(3) 0.2855(2) 0.1832(2)
H38 H 0.8825 0.2571 0.1989
H39 H 0.8209 0.2686 0.1492
C30 C 0.8896(3) 0.3391(2) 0.1653(2)
H40 H 0.9281 0.3292 0.1364
H41 H 0.9147 0.3557 0.1991
H42 H 0.8538 0.3668 0.1490
C25C C 0.6852(3) 0.2704(2) 0.3012(2)
C28C C 0.7859(3) 0.1997(2) 0.2707(2)
N23 N 0.7500(4) 0.0000(3) 0.02809(16)
C31 C 0.7172(5) 0.0344(4) -0.0208(4)
H43 H 0.7030 0.0079 -0.0522
H44 H 0.7578 0.0597 -0.0358
C32 C 0.6462(6) 0.0718(5) -0.0063(5)
H45 H 0.6622 0.1054 0.0165
H46 H 0.6096 0.0494 0.0170
C33 C 0.6060(7) 0.0923(5) -0.0648(5)
H47 H 0.5535 0.1039 -0.0566
H48 H 0.6058 0.0609 -0.0926
H49 H 0.6343 0.1246 -0.0808
C34 C 0.6933(5) -0.0450(3) 0.0474(4)
H50 H 0.6748 -0.0651 0.0126
H51 H 0.6489 -0.0251 0.0645
C35 C 0.7204(6) -0.0905(5) 0.0910(5)
H52 H 0.7449 -0.0724 0.1247
H53 H 0.7573 -0.1169 0.0728
C36 C 0.6466(7) -0.1231(6) 0.1094(6)
H54 H 0.6498 -0.1628 0.0965
H55 H 0.6020 -0.1049 0.0918
H56 H 0.6416 -0.1220 0.1514
C31A C 0.7828(5) -0.0344(4) -0.0208(4)
C34A C 0.8067(5) 0.0450(3) 0.0474(4)
loop_
_geom_bond_atom_site_label_1
_geom_bond_atom_site_label_2
_geom_bond_site_symmetry_1
_geom_bond_site_symmetry_2
Ni1 N1 1_555 1_555
Ni2 N7 1_555 1_555
N1 C4 1_555 1_555
N2 Ni1 1_555 1_555
N3 Ni1 1_555 1_555
N4 Ni1 1_555 1_555
N5 Ni1 1_555 1_555
N6 Ni1 1_555 1_555
N7 C8 1_555 1_555
N8 Ni2 1_555 1_555
N9 Ni2 1_555 1_555
N10 Ni2 1_555 1_555
N11 Ni2 1_555 1_555
N12 Ni2 1_555 1_555
N13 C1 1_555 1_555
C1 N5 1_555 1_555
C2 N6 1_555 1_555
N14 C3 1_555 1_555
C3 N12 1_555 1_555
N15 C5 1_555 1_555
N16 C7 1_555 1_555
N17 C4 1_555 1_555
N18 C6 1_555 1_555
N19 C12 1_555 1_555
C5 N2 1_555 1_555
C6 N3 1_555 1_555
C7 N4 1_555 1_555
C8 N16 1_555 1_555
C9 N15 1_555 1_555
C10 N17 1_555 1_555
C11 N18 1_555 1_555
C12 N11 1_555 1_555
N20 C13 1_555 1_555
C13 H1 1_555 1_555
H2 C13 1_555 1_555
C14 C13 1_555 1_555
H3 C14 1_555 1_555
H4 C14 1_555 1_555
C15 C14 1_555 1_555
H5 C15 1_555 1_555
H6 C15 1_555 1_555
H7 C15 1_555 1_555
C16 N20 1_555 1_555
H8 C16 1_555 1_555
H9 C16 1_555 1_555
C17 C16 1_555 1_555
H10 C17 1_555 1_555
H11 C17 1_555 1_555
C18 C17 1_555 1_555
H12 C18 1_555 1_555
H13 C18 1_555 1_555
H14 C18 1_555 1_555
N21 C19 1_555 1_555
C19 H15 1_555 1_555
H16 C19 1_555 1_555
C20 C19 1_555 1_555
H17 C20 1_555 1_555
H18 C20 1_555 1_555
C21 C20 1_555 1_555
H19 C21 1_555 1_555
H20 C21 1_555 1_555
H21 C21 1_555 1_555
C22 N21 1_555 1_555
H22 C22 1_555 1_555
H23 C22 1_555 1_555
C23 C22 1_555 1_555
H24 C23 1_555 1_555
H25 C23 1_555 1_555
C24 C23 1_555 1_555
H26 C24 1_555 1_555
H27 C24 1_555 1_555
H28 C24 1_555 1_555
N22 C25 1_555 1_555
C25 H29 1_555 1_555
H30 C25 1_555 1_555
C26 C25 1_555 1_555
H31 C26 1_555 1_555
H32 C26 1_555 1_555
C27 C26 1_555 1_555
H33 C27 1_555 1_555
H34 C27 1_555 1_555
H35 C27 1_555 1_555
C28 N22 1_555 1_555
H36 C28 1_555 1_555
H37 C28 1_555 1_555
C29 C28 1_555 1_555
H38 C29 1_555 1_555
H39 C29 1_555 1_555
C30 C29 1_555 1_555
H40 C30 1_555 1_555
H41 C30 1_555 1_555
H42 C30 1_555 1_555
N23 C31 1_555 1_555
C31 H43 1_555 1_555
H44 C31 1_555 1_555
C32 C31 1_555 1_555
H45 C32 1_555 1_555
H46 C32 1_555 1_555
C33 C32 1_555 1_555
H47 C33 1_555 1_555
H48 C33 1_555 1_555
H49 C33 1_555 1_555
C34 N23 1_555 1_555
H50 C34 1_555 1_555
H51 C34 1_555 1_555
C35 C34 1_555 1_555
H52 C35 1_555 1_555
H53 C35 1_555 1_555
C36 C35 1_555 1_555
H54 C36 1_555 1_555
H55 C36 1_555 1_555
H56 C36 1_555 1_555
N8G C9 1_555 1_555
N9C C10 1_555 1_555
N10D C11 1_555 1_555
N13E C2 1_555 1_555
C2E N13 1_555 1_555
C9G N8 1_555 1_555
C10C N9 1_555 1_555
C11D N10 1_555 1_555
C12A N19 1_555 1_555
C13C N20 1_555 1_555
C16C N20 1_555 1_555
C19A N21 1_555 1_555
C22A N21 1_555 1_555
C25C N22 1_555 1_555
C28C N22 1_555 1_555
C31A N23 1_555 1_555
C34A N23 1_555 1_555

#END
