
#######################################################################
#
#                 Cambridge Crystallographic Data Centre
#                                CCDC 
#
#######################################################################
#
# If this CIF has been generated from an entry in the Cambridge 
# Structural Database, then it will include bibliographic, chemical, 
# crystal, experimental, refinement or atomic coordinate data resulting 
# from the CCDC's data processing and validation procedures.
#
#######################################################################

data_GANBIH
_chemical_formula_moiety         '(C56 H72 Mn4 N38 2-)n'
_symmetry_cell_setting           orthorhombic
_symmetry_space_group_name_H-M   'P 21 21 2'
_symmetry_Int_Tables_number      18
_space_group_name_Hall           'P 2 2ab'
loop_
_symmetry_equiv_pos_site_id
_symmetry_equiv_pos_as_xyz
1 x,y,z
2 -x,-y,z
3 1/2-x,1/2+y,-z
4 1/2+x,1/2-y,-z
_cell_length_a                   16.0107(6)
_cell_length_b                   16.0114(6)
_cell_length_c                   21.5577(8)
_cell_angle_alpha                90
_cell_angle_beta                 90
_cell_angle_gamma                90
_cell_volume                     5526.4
loop_
_atom_site_label
_atom_site_type_symbol
_atom_site_fract_x
_atom_site_fract_y
_atom_site_fract_z
Mn1 Mn -0.0000 -0.0000 0.32744(3)
Mn2 Mn 0.0000 0.5000 0.17792(5)
Mn3 Mn 0.0000 0.0000 0.68315(3)
Mn4 Mn 0.5000 -0.0000 0.17806(5)
N1 N -0.0921(3) 0.0152(4) 0.40500(18)
N2 N 0.1039(3) -0.0130(4) 0.25982(17)
N3 N 0.0121(4) 0.1392(3) 0.3215(2)
N4 N 0.0049(4) 0.3954(3) 0.24736(18)
N5 N -0.0123(4) 0.5911(3) 0.09950(19)
N6 N 0.1370(3) 0.5099(4) 0.1799(2)
N7 N 0.3975(3) 0.5126(4) 0.24904(18)
N8 N -0.0950(3) -0.0010(4) 0.60671(18)
N9 N -0.0129(3) 0.1380(3) 0.6868(2)
N10 N -0.0103(4) 0.3971(3) 0.75440(18)
N11 N 0.3613(3) -0.0136(3) 0.18309(19)
N12 N 0.0001(4) 0.5923(3) -0.10107(18)
N14 N -0.1578(5) 0.0327(6) 0.5073(3)
N15 N 0.2090(3) -0.0330(3) 0.1792(2)
N17 N -0.0018(6) 0.2873(5) 0.3251(3)
N19 N -0.0537(5) 0.6468(4) -0.0019(3)
N20 N 0.2927(4) 0.5176(5) 0.1677(3)
N22 N -0.0271(4) 0.2858(3) 0.6794(2)
C1 C -0.1133(3) 0.0281(3) 0.4546(2)
C2 C 0.1578(3) -0.0182(4) 0.2258(2)
C3 C 0.0123(4) 0.2072(4) 0.3179(2)
C4 C 0.0118(4) 0.3427(4) 0.2791(2)
C5 C -0.0226(3) 0.6167(3) 0.0515(2)
C6 C 0.2083(4) 0.5090(4) 0.1802(2)
C7 C 0.3432(3) 0.5077(4) 0.2150(2)
C8 C -0.1167(3) 0.0199(3) 0.5581(2)
C9 C -0.0205(4) 0.2070(4) 0.6878(3)
C10 C -0.0206(3) 0.3417(3) 0.7226(2)
C11 C 0.2899(3) -0.0222(3) 0.1859(2)
C12 C -0.0179(4) 0.6169(3) -0.05409(19)
Mn2_2 Mn 0.0000 -0.5000 0.17792(5)
Mn3B Mn 0.5000 0.5000 0.31685(3)
Mn3B_2 Mn -0.5000 0.5000 0.31685(3)
Mn4B Mn 0.0000 0.5000 0.82194(5)
Mn4B_2 Mn 0.0000 0.5000 -0.17806(5)
Mn4_2 Mn -0.5000 -0.0000 0.17806(5)
Mn4B_3 Mn 0.0000 -0.5000 0.82194(5)
N1A N 0.0921(3) -0.0152(4) 0.40500(18)
N2A N -0.1039(3) 0.0130(4) 0.25982(17)
N3A N -0.0121(4) -0.1392(3) 0.3215(2)
N4A N -0.0049(4) -0.3954(3) 0.24736(18)
N4A_2 N -0.0049(4) 0.6046(3) 0.24736(18)
N5A N 0.0123(4) 0.4089(3) 0.09950(19)
N6A N -0.1370(3) 0.4901(4) 0.1799(2)
N7A N -0.3975(3) 0.4874(4) 0.24904(18)
N7B N 0.1025(3) 0.0126(4) 0.75096(18)
N7C N -0.1025(3) -0.0126(4) 0.75096(18)
N8A N 0.0950(3) 0.0010(4) 0.60671(18)
N9A N 0.0129(3) -0.1380(3) 0.6868(2)
N10A N 0.0103(4) -0.3971(3) 0.75440(18)
N10B N 0.5103(4) -0.1029(3) 0.24560(18)
N10C N 0.4897(4) 0.1029(3) 0.24560(18)
N11A N -0.3613(3) 0.0136(3) 0.18309(19)
N11A_2 N 0.6387(3) 0.0136(3) 0.18309(19)
N12A N -0.0001(4) 0.4077(3) -0.10107(18)
N12B N 0.4999(4) 0.0923(3) 0.10107(18)
N12C N 0.5001(4) -0.0923(3) 0.10107(18)
N14A N 0.1578(5) -0.0327(6) 0.5073(3)
N15A N -0.2090(3) 0.0330(3) 0.1792(2)
N17A N 0.0018(6) -0.2873(5) 0.3251(3)
N19A N 0.0537(5) 0.3532(4) -0.0019(3)
N20A N -0.2927(4) 0.4824(5) 0.1677(3)
N22A N 0.0271(4) -0.2858(3) 0.6794(2)
C1A C 0.1133(3) -0.0281(3) 0.4546(2)
C2A C -0.1578(3) 0.0182(4) 0.2258(2)
C3A C -0.0123(4) -0.2072(4) 0.3179(2)
C4A C -0.0118(4) -0.3427(4) 0.2791(2)
C5A C 0.0226(3) 0.3833(3) 0.0515(2)
C6A C -0.2083(4) 0.4910(4) 0.1802(2)
C7A C -0.3432(3) 0.4923(4) 0.2150(2)
C8A C 0.1167(3) -0.0199(3) 0.5581(2)
C9A C 0.0205(4) -0.2070(4) 0.6878(3)
C10A C 0.0206(3) -0.3417(3) 0.7226(2)
C11A C -0.2899(3) 0.0222(3) 0.1859(2)
C12A C 0.0179(4) 0.3831(3) -0.05409(19)
N23 N 0.2765(3) 0.7532(2) 0.36976(19)
C13 C 0.2997(3) 0.7325(3) 0.3036(2)
H1 H 0.3499 0.7635 0.2934
H2 H 0.3138 0.6736 0.3019
C14 C 0.2378(4) 0.7489(4) 0.2548(3)
H3 H 0.2127 0.8036 0.2602
H4 H 0.1942 0.7070 0.2552
C15 C 0.2944(6) 0.7446(6) 0.1863(4)
H5 H 0.3298 0.7930 0.1803
H6 H 0.3270 0.6937 0.1825
C16 C 0.2141(8) 0.7450(7) 0.1424(5)
H7 H 0.2315 0.7430 0.0998
H8 H 0.1826 0.7951 0.1495
H9 H 0.1800 0.6973 0.1515
C20 C 0.2597(3) 0.8461(3) 0.3777(3)
H17 H 0.2126 0.8613 0.3517
H18 H 0.2436 0.8562 0.4205
C21 C 0.3323(5) 0.9028(4) 0.3620(5)
H19 H 0.3842 0.8791 0.3772
H20 H 0.3368 0.9097 0.3174
C22 C 0.3157(6) 0.9857(6) 0.3927(5)
H21 H 0.2668 1.0117 0.3744
H22 H 0.3054 0.9777 0.4366
C23 C 0.3887(6) 1.0392(6) 0.3838(5)
H23 H 0.3791 1.0923 0.4031
H24 H 0.3983 1.0472 0.3402
H25 H 0.4368 1.0133 0.4022
C27 C 0.3478(3) 0.7254(3) 0.4109(2)
H33 H 0.3579 0.6666 0.4034
H34 H 0.3977 0.7554 0.3984
C28 C 0.3360(4) 0.7378(5) 0.4798(2)
H35 H 0.2855 0.7100 0.4936
H36 H 0.3312 0.7969 0.4893
C29 C 0.4138(6) 0.6998(6) 0.5132(3)
H37 H 0.4028 0.6985 0.5574
H38 H 0.4206 0.6425 0.4994
C30 C 0.4875(6) 0.7414(8) 0.5035(4)
H39 H 0.5307 0.7164 0.5282
H40 H 0.4811 0.7989 0.5151
H41 H 0.5024 0.7379 0.4604
C31 C 0.1955(3) 0.7075(4) 0.3899(3)
H42 H 0.1835 0.7221 0.4326
H43 H 0.1497 0.7278 0.3647
C32 C 0.1986(4) 0.6142(4) 0.3848(4)
H44 H 0.2014 0.5982 0.3414
H45 H 0.2484 0.5933 0.4053
C33 C 0.1237(5) 0.5769(4) 0.4136(5)
H46 H 0.0743 0.5978 0.3927
H47 H 0.1208 0.5940 0.4567
C34 C 0.1248(6) 0.4834(5) 0.4101(5)
H48 H 0.0750 0.4616 0.4290
H49 H 0.1729 0.4624 0.4316
H50 H 0.1270 0.4663 0.3675
N24 N 0.2454(2) 0.2231(3) 0.12917(18)
C35 C 0.2623(3) 0.2025(3) 0.1953(2)
H51 H 0.3206 0.1871 0.1989
H52 H 0.2295 0.1536 0.2060
C36 C 0.2440(4) 0.2707(5) 0.2442(3)
H53 H 0.2824 0.3170 0.2384
H54 H 0.1877 0.2916 0.2385
C37 C 0.2527(3) 0.2383(5) 0.3057(2)
H55 H 0.3054 0.2091 0.3104
H56 H 0.2075 0.2002 0.3154
C38 C 0.2493(7) 0.3214(7) 0.3509(5)
H57 H 0.2549 0.3044 0.3934
H58 H 0.1969 0.3495 0.3454
H59 H 0.2942 0.3585 0.3403
C41 C 0.2733(4) 0.1458(3) 0.0924(2)
H65 H 0.3311 0.1342 0.1028
H66 H 0.2403 0.0985 0.1062
C42 C 0.2661(5) 0.1515(4) 0.0223(3)
H67 H 0.2955 0.2007 0.0076
H68 H 0.2078 0.1566 0.0105
C43 C 0.3052(6) 0.0701(6) -0.0084(4)
H69 H 0.3140 0.0788 -0.0524
H70 H 0.3585 0.0570 0.0107
C44 C 0.2431(7) -0.0013(6) 0.0022(4)
H71 H 0.2644 -0.0515 -0.0162
H72 H 0.1905 0.0127 -0.0165
H73 H 0.2355 -0.0096 0.0459
C48 C 0.1520(4) 0.2401(4) 0.1204(3)
H81 H 0.1380 0.2911 0.1424
H82 H 0.1416 0.2497 0.0767
C49 C 0.0947(4) 0.1719(5) 0.1424(4)
H83 H 0.1072 0.1619 0.1858
H84 H 0.1096 0.1215 0.1200
C50 C 0.0011(7) 0.1824(8) 0.1369(5)
H85 H -0.0126 0.2338 0.1153
H86 H -0.0249 0.1832 0.1775
C51 C -0.0289(10) 0.1024(10) 0.0978(7)
H87 H -0.0884 0.1046 0.0922
H88 H -0.0143 0.0524 0.1198
H89 H -0.0020 0.1026 0.0580
C55 C 0.2929(4) 0.2983(3) 0.1092(3)
H97 H 0.2704 0.3462 0.1312
H98 H 0.2822 0.3071 0.0654
C56 C 0.3871(4) 0.2975(4) 0.1188(3)
H99 H 0.3989 0.2997 0.1629
H100 H 0.4094 0.2454 0.1029
C57 C 0.4305(4) 0.3689(4) 0.0873(3)
H101 H 0.4214 0.3648 0.0429
H102 H 0.4057 0.4209 0.1013
C58 C 0.5222(5) 0.3713(5) 0.0996(5)
H103 H 0.5460 0.4199 0.0804
H104 H 0.5479 0.3221 0.0829
H105 H 0.5318 0.3736 0.1436
loop_
_geom_bond_atom_site_label_1
_geom_bond_atom_site_label_2
_geom_bond_site_symmetry_1
_geom_bond_site_symmetry_2
Mn1 N1 1_555 1_555
Mn2 N4 1_555 1_555
Mn3 N8 1_555 1_555
Mn4 N11 1_555 1_555
N1 C1 1_555 1_555
N2 Mn1 1_555 1_555
N3 Mn1 1_555 1_555
N4 C4 1_555 1_555
N5 Mn2 1_555 1_555
N6 Mn2 1_555 1_555
N7 C7 1_555 1_555
N8 C8 1_555 1_555
N9 Mn3 1_555 1_555
N10 C10 1_555 1_555
N11 C11 1_555 1_555
N12 C12 1_555 1_555
N14 C1 1_555 1_555
N15 C2 1_555 1_555
N17 C3 1_555 1_555
N19 C5 1_555 1_555
N20 C6 1_555 1_555
N22 C9 1_555 1_555
C2 N2 1_555 1_555
C3 N3 1_555 1_555
C4 N17 1_555 1_555
C5 N5 1_555 1_555
C6 N6 1_555 1_555
C7 N20 1_555 1_555
C8 N14 1_555 1_555
C9 N9 1_555 1_555
C10 N22 1_555 1_555
C11 N15 1_555 1_555
C12 N19 1_555 1_555
N23 C13 1_555 1_555
C13 H1 1_555 1_555
H2 C13 1_555 1_555
C14 C13 1_555 1_555
H3 C14 1_555 1_555
H4 C14 1_555 1_555
C15 C14 1_555 1_555
H5 C15 1_555 1_555
H6 C15 1_555 1_555
C16 C15 1_555 1_555
H7 C16 1_555 1_555
H8 C16 1_555 1_555
H9 C16 1_555 1_555
C20 N23 1_555 1_555
H17 C20 1_555 1_555
H18 C20 1_555 1_555
C21 C20 1_555 1_555
H19 C21 1_555 1_555
H20 C21 1_555 1_555
C22 C21 1_555 1_555
H21 C22 1_555 1_555
H22 C22 1_555 1_555
C23 C22 1_555 1_555
H23 C23 1_555 1_555
H24 C23 1_555 1_555
H25 C23 1_555 1_555
C27 N23 1_555 1_555
H33 C27 1_555 1_555
H34 C27 1_555 1_555
C28 C27 1_555 1_555
H35 C28 1_555 1_555
H36 C28 1_555 1_555
C29 C28 1_555 1_555
H37 C29 1_555 1_555
H38 C29 1_555 1_555
C30 C29 1_555 1_555
H39 C30 1_555 1_555
H40 C30 1_555 1_555
H41 C30 1_555 1_555
C31 N23 1_555 1_555
H42 C31 1_555 1_555
H43 C31 1_555 1_555
C32 C31 1_555 1_555
H44 C32 1_555 1_555
H45 C32 1_555 1_555
C33 C32 1_555 1_555
H46 C33 1_555 1_555
H47 C33 1_555 1_555
C34 C33 1_555 1_555
H48 C34 1_555 1_555
H49 C34 1_555 1_555
H50 C34 1_555 1_555
N24 C35 1_555 1_555
C35 H51 1_555 1_555
H52 C35 1_555 1_555
C36 C35 1_555 1_555
H53 C36 1_555 1_555
H54 C36 1_555 1_555
C37 C36 1_555 1_555
H55 C37 1_555 1_555
H56 C37 1_555 1_555
C38 C37 1_555 1_555
H57 C38 1_555 1_555
H58 C38 1_555 1_555
H59 C38 1_555 1_555
C41 N24 1_555 1_555
H65 C41 1_555 1_555
H66 C41 1_555 1_555
C42 C41 1_555 1_555
H67 C42 1_555 1_555
H68 C42 1_555 1_555
C43 C42 1_555 1_555
H69 C43 1_555 1_555
H70 C43 1_555 1_555
C44 C43 1_555 1_555
H71 C44 1_555 1_555
H72 C44 1_555 1_555
H73 C44 1_555 1_555
C48 N24 1_555 1_555
H81 C48 1_555 1_555
H82 C48 1_555 1_555
C49 C48 1_555 1_555
H83 C49 1_555 1_555
H84 C49 1_555 1_555
C50 C49 1_555 1_555
H85 C50 1_555 1_555
H86 C50 1_555 1_555
C51 C50 1_555 1_555
H87 C51 1_555 1_555
H88 C51 1_555 1_555
H89 C51 1_555 1_555
C55 N24 1_555 1_555
H97 C55 1_555 1_555
H98 C55 1_555 1_555
C56 C55 1_555 1_555
H99 C56 1_555 1_555
H100 C56 1_555 1_555
C57 C56 1_555 1_555
H101 C57 1_555 1_555
H102 C57 1_555 1_555
C58 C57 1_555 1_555
H103 C58 1_555 1_555
H104 C58 1_555 1_555
H105 C58 1_555 1_555
Mn2_2 N4A 1_555 1_555
Mn3B N7 1_555 1_555
Mn3B_2 N7A 1_555 1_555
Mn4B N10 1_555 1_555
Mn4B_2 N12 1_555 1_555
Mn4_2 N11A 1_555 1_555
Mn4B_3 N10A 1_555 1_555
N1A Mn1 1_555 1_555
N2A Mn1 1_555 1_555
N3A Mn1 1_555 1_555
N4A C4A 1_555 1_555
N4A_2 Mn2 1_555 1_555
N5A Mn2 1_555 1_555
N6A Mn2 1_555 1_555
N7A C7A 1_555 1_555
N7B Mn3 1_555 1_555
N7C Mn3 1_555 1_555
N8A Mn3 1_555 1_555
N9A Mn3 1_555 1_555
N10A C10A 1_555 1_555
N10B Mn4 1_555 1_555
N10C Mn4 1_555 1_555
N11A C11A 1_555 1_555
N11A_2 Mn4 1_555 1_555
N12A Mn4B_2 1_555 1_555
N12B Mn4 1_555 1_555
N12C Mn4 1_555 1_555
N14A C1A 1_555 1_555
N15A C2A 1_555 1_555
N17A C3A 1_555 1_555
N19A C5A 1_555 1_555
N20A C6A 1_555 1_555
N22A C9A 1_555 1_555
C1A N1A 1_555 1_555
C2A N2A 1_555 1_555
C3A N3A 1_555 1_555
C4A N17A 1_555 1_555
C5A N5A 1_555 1_555
C6A N6A 1_555 1_555
C7A N20A 1_555 1_555
C8A N8A 1_555 1_555
C9A N9A 1_555 1_555
C10A N22A 1_555 1_555
C11A N15A 1_555 1_555
C12A N12A 1_555 1_555
N14A C8A 1_555 1_555
N19A C12A 1_555 1_555

#END
