
#######################################################################
#
#                 Cambridge Crystallographic Data Centre
#                                CCDC 
#
#######################################################################
#
# If this CIF has been generated from an entry in the Cambridge 
# Structural Database, then it will include bibliographic, chemical, 
# crystal, experimental, refinement or atomic coordinate data resulting 
# from the CCDC's data processing and validation procedures.
#
#######################################################################

data_GANBAZ
_chemical_formula_moiety         '(C60 H84 Mn4 N39 1-)n'
_symmetry_cell_setting           tetragonal
_symmetry_space_group_name_H-M   'P -4 21 c'
_symmetry_Int_Tables_number      114
_space_group_name_Hall           'P -4 2n'
loop_
_symmetry_equiv_pos_site_id
_symmetry_equiv_pos_as_xyz
1 x,y,z
2 -x,-y,z
3 y,-x,-z
4 -y,x,-z
5 1/2-x,1/2+y,1/2-z
6 1/2+x,1/2-y,1/2-z
7 1/2-y,1/2-x,1/2+z
8 1/2+y,1/2+x,1/2+z
_cell_length_a                   16.2945(4)
_cell_length_b                   16.2945(4)
_cell_length_c                   17.4321(8)
_cell_angle_alpha                90
_cell_angle_beta                 90
_cell_angle_gamma                90
_cell_volume                     4628.41
loop_
_atom_site_label
_atom_site_type_symbol
_atom_site_fract_x
_atom_site_fract_y
_atom_site_fract_z
Mn1 Mn 0.23920(2) 0.77370(2) 0.218732(19)
N1 N 0.2251(2) 0.7808(2) 0.34515(13)
N2 N 0.12006(14) 0.70549(16) 0.21184(18)
N3 N 0.17497(16) 0.89328(15) 0.20958(16)
N4 N -0.13928(14) 0.66258(16) 0.27065(19)
N5 N 0.19433(16) 1.15468(15) 0.26681(15)
N6 N 0.2621(2) 0.7543(2) 0.59381(13)
C1 C 0.15368(16) 0.95822(15) 0.22246(18)
C2 C 0.16362(17) 1.09362(17) 0.25158(18)
N7 N 0.1761(5) 0.7755(8) 0.4788(3)
C3 C 0.2037(7) 0.7752(7) 0.4090(4)
C4 C 0.2225(7) 0.7616(6) 0.5375(4)
N8 N -0.0052(3) 0.6221(3) 0.2218(5)
C5 C 0.0591(4) 0.6692(6) 0.2197(6)
C6 C -0.0748(5) 0.6479(9) 0.2485(6)
N9 N 0.12090(18) 1.02915(16) 0.2347(3)
Mn1G Mn 0.27370(2) 0.73920(2) -0.281268(19)
Mn1E Mn 0.73920(2) 0.72630(2) 0.281268(19)
Mn1D Mn 0.26080(2) 0.27370(2) 0.281268(19)
Mn1E_2 Mn -0.26080(2) 0.72630(2) 0.281268(19)
Mn1D_2 Mn 0.26080(2) 1.27370(2) 0.281268(19)
Mn1G_2 Mn 0.27370(2) 0.73920(2) 0.718732(19)
Mn1C Mn 0.22630(2) 0.23920(2) -0.218732(19)
Mn1B Mn 0.77370(2) 0.76080(2) -0.218732(19)
Mn1C_2 Mn 0.22630(2) 1.23920(2) -0.218732(19)
Mn1B_2 Mn -0.22630(2) 0.76080(2) -0.218732(19)
Mn1_2 Mn 0.23920(2) 0.77370(2) -0.781268(19)
N1G N 0.2808(2) 0.7251(2) -0.15485(13)
N1_2 N 0.2251(2) 0.7808(2) -0.65485(13)
N1E N 0.7251(2) 0.7192(2) 0.15485(13)
N1D N 0.2749(2) 0.2808(2) 0.15485(13)
N2E N 0.62006(14) 0.79451(16) 0.28816(18)
N2G N 0.20549(16) 0.62006(14) -0.28816(18)
N2C N 0.29451(16) 1.12006(14) -0.21184(18)
N2D N 0.37994(14) 0.20549(16) 0.28816(18)
N3D N 0.32503(16) 0.39328(15) 0.29042(16)
N3G N 0.39328(15) 0.67497(16) -0.29042(16)
N3B N -0.10672(15) 0.82503(16) -0.20958(16)
N3E N 0.67497(16) 0.60672(15) 0.29042(16)
N4E N 0.36072(14) 0.83742(16) 0.22935(19)
N4G N 0.16258(16) 0.36072(14) -0.22935(19)
N4C N 0.33742(16) 0.86072(14) -0.27065(19)
N4_2 N 0.86072(14) 0.66258(16) 0.27065(19)
N4A N 0.13928(14) 0.33742(16) 0.27065(19)
N5D N 0.30567(16) 0.65468(15) 0.23319(15)
N5G N 0.65468(15) 0.69433(16) -0.23319(15)
N5B N 0.15468(15) 0.80567(16) -0.26681(15)
N5A N 0.80567(16) 0.84532(15) 0.26681(15)
N5_2 N 0.19433(16) 0.15468(15) 0.26681(15)
N6G N 0.2543(2) 0.7621(2) 0.09381(13)
N6_2 N 0.2621(2) 0.7543(2) -0.40619(13)
N6E N 0.7621(2) 0.7457(2) -0.09381(13)
N6B N 0.7543(2) 0.7379(2) 0.40619(13)
N6C N 0.2457(2) 0.2621(2) 0.40619(13)
C1D C 0.34632(16) 0.45822(15) 0.27754(18)
C1G C 0.45822(15) 0.65368(16) -0.27754(18)
C1B C -0.04178(15) 0.84632(16) -0.22246(18)
C2D C 0.33638(17) 0.59362(17) 0.24842(18)
C2G C 0.59362(17) 0.66362(17) -0.24842(18)
C2B C 0.09362(17) 0.83638(17) -0.25158(18)
N7G N 0.2755(8) 0.6761(5) -0.0212(3)
N7_2 N 0.1761(5) 0.7755(8) -0.5212(3)
N7E N 0.6761(5) 0.7245(8) 0.0212(3)
C3G C 0.2752(7) 0.7037(7) -0.0910(4)
C3_2 C 0.2037(7) 0.7752(7) -0.5910(4)
C3E C 0.7037(7) 0.7248(7) 0.0910(4)
C4G C 0.2616(6) 0.7225(7) 0.0375(4)
C4_2 C 0.2225(7) 0.7616(6) -0.4625(4)
C4E C 0.7225(7) 0.7384(6) -0.0375(4)
N8E N 0.4948(3) 0.8779(3) 0.2782(5)
N8G N 0.1221(3) 0.4948(3) -0.2782(5)
N8C N 0.3779(3) 0.9948(3) -0.2218(5)
C5E C 0.5591(4) 0.8308(6) 0.2803(6)
C5G C 0.1692(6) 0.5591(4) -0.2803(6)
C5C C 0.3308(6) 1.0591(4) -0.2197(6)
C6E C 0.4252(5) 0.8521(9) 0.2515(6)
C6G C 0.1479(9) 0.4252(5) -0.2515(6)
C6C C 0.3521(9) 0.9252(5) -0.2485(6)
N9D N 0.37910(18) 0.52915(16) 0.2653(3)
N9G N 0.52915(16) 0.62090(18) -0.2653(3)
N9B N 0.02915(16) 0.87910(18) -0.2347(3)
N10 N 0.0000 0.0000 0.0000
C7 C 0.0235(3) 0.0703(3) 0.0529(2)
H1 H -0.0243 0.0847 0.0833
H2 H 0.0652 0.0506 0.0881
C8 C 0.0553(4) 0.1474(3) 0.0149(3)
H3 H 0.0152 0.1677 -0.0216
H4 H 0.1057 0.1355 -0.0125
C9 C 0.0711(4) 0.2117(3) 0.0759(4)
H5 H 0.0918 0.2608 0.0522
H6 H 0.1108 0.1913 0.1119
H7 H 0.0208 0.2239 0.1023
C7A C -0.0235(3) -0.0703(3) 0.0529(2)
C7B C 0.0703(3) -0.0235(3) -0.0529(2)
C7C C -0.0703(3) 0.0235(3) -0.0529(2)
H1A H 0.0243 -0.0847 0.0833
H1B H 0.0847 0.0243 -0.0833
H1C H -0.0847 -0.0243 -0.0833
H2A H -0.0652 -0.0506 0.0881
H2B H 0.0506 -0.0652 -0.0881
H2C H -0.0506 0.0652 -0.0881
C8A C -0.0553(4) -0.1474(3) 0.0149(3)
C8B C 0.1474(3) -0.0553(4) -0.0149(3)
C8C C -0.1474(3) 0.0553(4) -0.0149(3)
H3A H -0.0152 -0.1677 -0.0216
H3B H 0.1677 -0.0152 0.0216
H3C H -0.1677 0.0152 0.0216
H4A H -0.1057 -0.1355 -0.0125
H4B H 0.1355 -0.1057 0.0125
H4C H -0.1355 0.1057 0.0125
C9A C -0.0711(4) -0.2117(3) 0.0759(4)
C9B C 0.2117(3) -0.0711(4) -0.0759(4)
C9C C -0.2117(3) 0.0711(4) -0.0759(4)
H5A H -0.0918 -0.2608 0.0522
H5B H 0.2608 -0.0918 -0.0522
H5C H -0.2608 0.0918 -0.0522
H6A H -0.1108 -0.1913 0.1119
H6B H 0.1913 -0.1108 -0.1119
H6C H -0.1913 0.1108 -0.1119
H7A H -0.0208 -0.2239 0.1023
H7B H 0.2239 -0.0208 -0.1023
H7C H -0.2239 0.0208 -0.1023
N11 N -0.0000 0.5000 -0.00580(18)
C10 C 0.0807(5) 0.4712(5) 0.0236(4)
H8 H 0.0730 0.4184 0.0482
C11 C -0.0613(6) 0.4019(6) -0.1020(6)
H9 H -0.1159 0.4032 -0.0798
H10 H -0.0578 0.4458 -0.1394
C12 C -0.0489(6) 0.3227(6) -0.1410(5)
H11 H -0.0891 0.3164 -0.1808
H12 H -0.0546 0.2789 -0.1045
H13 H 0.0050 0.3211 -0.1630
C13 C 0.1506(6) 0.4861(7) 0.0410(6)
H14 H 0.1717 0.5211 0.0005
H15 H 0.1557 0.4292 0.0253
C14 C 0.1964(7) 0.5019(8) 0.1177(6)
H16 H 0.2540 0.4922 0.1107
H17 H 0.1755 0.4656 0.1564
H18 H 0.1879 0.5578 0.1334
C15 C -0.0257(5) 0.4387(4) -0.0693(5)
H19 H 0.0180 0.4363 -0.1070
C10A C -0.0807(5) 0.5288(5) 0.0236(4)
H8A H -0.0730 0.5816 0.0482
C11A C 0.0613(6) 0.5981(6) -0.1020(6)
H9A H 0.1159 0.5968 -0.0798
H10A H 0.0578 0.5542 -0.1394
C12A C 0.0489(6) 0.6773(6) -0.1410(5)
H11A H 0.0891 0.6836 -0.1808
H12A H 0.0546 0.7211 -0.1045
H13A H -0.0050 0.6789 -0.1630
C13A C -0.1506(6) 0.5139(7) 0.0410(6)
H14A H -0.1717 0.4789 0.0005
H15A H -0.1557 0.5708 0.0253
C14A C -0.1964(7) 0.4981(8) 0.1177(6)
H16A H -0.2540 0.5078 0.1107
H17A H -0.1755 0.5344 0.1564
H18A H -0.1879 0.4422 0.1334
C15A C 0.0257(5) 0.5613(4) -0.0693(5)
H19A H -0.0180 0.5637 -0.1070
N12 N 0.5000 0.5000 0.0000
C16 C 0.4718(4) 0.5722(4) 0.0475(3)
H20 H 0.4596 0.6173 0.0131
H21 H 0.4210 0.5572 0.0729
C17 C 0.5311(5) 0.6020(5) 0.1071(5)
H22 H 0.5849 0.6086 0.0841
H23 H 0.5355 0.5615 0.1477
C18 C 0.5031(3) 0.6834(3) 0.1407(3)
H24 H 0.5411 0.7004 0.1797
H25 H 0.4495 0.6770 0.1628
H26 H 0.5011 0.7240 0.1009
C16A C 0.5282(4) 0.4278(4) 0.0475(3)
C16B C 0.5722(4) 0.5282(4) -0.0475(3)
C16C C 0.4278(4) 0.4718(4) -0.0475(3)
H20A H 0.5404 0.3827 0.0131
H20B H 0.6173 0.5404 -0.0131
H20C H 0.3827 0.4596 -0.0131
H21A H 0.5790 0.4428 0.0729
H21B H 0.5572 0.5790 -0.0729
H21C H 0.4428 0.4210 -0.0729
C17A C 0.4689(5) 0.3980(5) 0.1071(5)
C17B C 0.6020(5) 0.4689(5) -0.1071(5)
C17C C 0.3980(5) 0.5311(5) -0.1071(5)
H22A H 0.4151 0.3914 0.0841
H22B H 0.6086 0.4151 -0.0841
H22C H 0.3914 0.5849 -0.0841
H23A H 0.4645 0.4385 0.1477
H23B H 0.5615 0.4645 -0.1477
H23C H 0.4385 0.5355 -0.1477
C18A C 0.4969(3) 0.3166(3) 0.1407(3)
C18B C 0.6834(3) 0.4969(3) -0.1407(3)
C18C C 0.3166(3) 0.5031(3) -0.1407(3)
H24A H 0.4589 0.2996 0.1797
H24B H 0.7004 0.4589 -0.1797
H24C H 0.2996 0.5411 -0.1797
H25A H 0.5505 0.3230 0.1628
H25B H 0.6770 0.5505 -0.1628
H25C H 0.3230 0.4495 -0.1628
H26A H 0.4989 0.2760 0.1009
H26B H 0.7240 0.4989 -0.1009
H26C H 0.2760 0.5011 -0.1009
loop_
_geom_bond_atom_site_label_1
_geom_bond_atom_site_label_2
_geom_bond_site_symmetry_1
_geom_bond_site_symmetry_2
Mn1 N1 1_555 1_555
N1 C3 1_555 1_555
N2 Mn1 1_555 1_555
N3 Mn1 1_555 1_555
N4 C6 1_555 1_555
N5 C2 1_555 1_555
N6 C4 1_555 1_555
C1 N3 1_555 1_555
C2 N9 1_555 1_555
N7 C3 1_555 1_555
C4 N7 1_555 1_555
N8 C5 1_555 1_555
C5 N2 1_555 1_555
C6 N8 1_555 1_555
N9 C1 1_555 1_555
N10 C7 1_555 1_555
C7 H1 1_555 1_555
H2 C7 1_555 1_555
C8 C7 1_555 1_555
H3 C8 1_555 1_555
H4 C8 1_555 1_555
C9 C8 1_555 1_555
H5 C9 1_555 1_555
H6 C9 1_555 1_555
H7 C9 1_555 1_555
N11 C10 1_555 1_555
C10 H8 1_555 1_555
C11 H9 1_555 1_555
H10 C11 1_555 1_555
C12 C11 1_555 1_555
H11 C12 1_555 1_555
H12 C12 1_555 1_555
H13 C12 1_555 1_555
C13 C10 1_555 1_555
H14 C13 1_555 1_555
H15 C13 1_555 1_555
C14 C13 1_555 1_555
H16 C14 1_555 1_555
H17 C14 1_555 1_555
H18 C14 1_555 1_555
C15 N11 1_555 1_555
H19 C15 1_555 1_555
N12 C16 1_555 1_555
C16 H20 1_555 1_555
H21 C16 1_555 1_555
C17 C16 1_555 1_555
H22 C17 1_555 1_555
H23 C17 1_555 1_555
C18 C17 1_555 1_555
H24 C18 1_555 1_555
H25 C18 1_555 1_555
H26 C18 1_555 1_555
Mn1G N1G 1_555 1_555
Mn1E N1E 1_555 1_555
Mn1D N1D 1_555 1_555
Mn1E_2 N4 1_555 1_555
Mn1D_2 N5 1_555 1_555
Mn1G_2 N6 1_555 1_555
Mn1C N4G 1_555 1_555
Mn1B N5G 1_555 1_555
Mn1C_2 N2C 1_555 1_555
Mn1B_2 N3B 1_555 1_555
Mn1_2 N1_2 1_555 1_555
N1G C3G 1_555 1_555
N1_2 C3_2 1_555 1_555
N1E C3E 1_555 1_555
N2E Mn1E 1_555 1_555
N2G Mn1G 1_555 1_555
N2C C5C 1_555 1_555
N2D Mn1D 1_555 1_555
N3D Mn1D 1_555 1_555
N3G Mn1G 1_555 1_555
N3B C1B 1_555 1_555
N3E Mn1E 1_555 1_555
N4E Mn1 1_555 1_555
N4G C6G 1_555 1_555
N4C Mn1G 1_555 1_555
N4_2 Mn1E 1_555 1_555
N4A Mn1D 1_555 1_555
N5D Mn1 1_555 1_555
N5G C2G 1_555 1_555
N5B Mn1G 1_555 1_555
N5A Mn1E 1_555 1_555
N5_2 Mn1D 1_555 1_555
N6G Mn1 1_555 1_555
N6_2 Mn1G 1_555 1_555
N6E Mn1B 1_555 1_555
N6B Mn1E 1_555 1_555
N6C Mn1D 1_555 1_555
C1D N3D 1_555 1_555
C1G N3G 1_555 1_555
C1B N9B 1_555 1_555
C2D N5D 1_555 1_555
C2G N9G 1_555 1_555
C2B N5B 1_555 1_555
N7G C3G 1_555 1_555
N7_2 C3_2 1_555 1_555
N7E C3E 1_555 1_555
C4G N6G 1_555 1_555
C4_2 N6_2 1_555 1_555
C4E N6E 1_555 1_555
N8E C5E 1_555 1_555
N8G C5G 1_555 1_555
N8C C5C 1_555 1_555
C5E N2E 1_555 1_555
C5G N2G 1_555 1_555
C6E N4E 1_555 1_555
C6G N8G 1_555 1_555
C6C N4C 1_555 1_555
N9D C1D 1_555 1_555
N9G C1G 1_555 1_555
N9B C2B 1_555 1_555
C7A N10 1_555 1_555
C7B N10 1_555 1_555
C7C N10 1_555 1_555
H1A C7A 1_555 1_555
H1B C7B 1_555 1_555
H1C C7C 1_555 1_555
H2A C7A 1_555 1_555
H2B C7B 1_555 1_555
H2C C7C 1_555 1_555
C8A C7A 1_555 1_555
C8B C7B 1_555 1_555
C8C C7C 1_555 1_555
H3A C8A 1_555 1_555
H3B C8B 1_555 1_555
H3C C8C 1_555 1_555
H4A C8A 1_555 1_555
H4B C8B 1_555 1_555
H4C C8C 1_555 1_555
C9A C8A 1_555 1_555
C9B C8B 1_555 1_555
C9C C8C 1_555 1_555
H5A C9A 1_555 1_555
H5B C9B 1_555 1_555
H5C C9C 1_555 1_555
H6A C9A 1_555 1_555
H6B C9B 1_555 1_555
H6C C9C 1_555 1_555
H7A C9A 1_555 1_555
H7B C9B 1_555 1_555
H7C C9C 1_555 1_555
C10A N11 1_555 1_555
H8A C10A 1_555 1_555
C11A H9A 1_555 1_555
H10A C11A 1_555 1_555
C12A C11A 1_555 1_555
H11A C12A 1_555 1_555
H12A C12A 1_555 1_555
H13A C12A 1_555 1_555
C13A C10A 1_555 1_555
H14A C13A 1_555 1_555
H15A C13A 1_555 1_555
C14A C13A 1_555 1_555
H16A C14A 1_555 1_555
H17A C14A 1_555 1_555
H18A C14A 1_555 1_555
C15A N11 1_555 1_555
H19A C15A 1_555 1_555
C16A N12 1_555 1_555
C16B N12 1_555 1_555
C16C N12 1_555 1_555
H20A C16A 1_555 1_555
H20B C16B 1_555 1_555
H20C C16C 1_555 1_555
H21A C16A 1_555 1_555
H21B C16B 1_555 1_555
H21C C16C 1_555 1_555
C17A C16A 1_555 1_555
C17B C16B 1_555 1_555
C17C C16C 1_555 1_555
H22A C17A 1_555 1_555
H22B C17B 1_555 1_555
H22C C17C 1_555 1_555
H23A C17A 1_555 1_555
H23B C17B 1_555 1_555
H23C C17C 1_555 1_555
C18A C17A 1_555 1_555
C18B C17B 1_555 1_555
C18C C17C 1_555 1_555
H24A C18A 1_555 1_555
H24B C18B 1_555 1_555
H24C C18C 1_555 1_555
H25A C18A 1_555 1_555
H25B C18B 1_555 1_555
H25C C18C 1_555 1_555
H26A C18A 1_555 1_555
H26B C18B 1_555 1_555
H26C C18C 1_555 1_555
C11 C15 1_555 1_555
C2D N9D 1_555 1_555
N7G C4G 1_555 1_555
N7_2 C4_2 1_555 1_555
N7E C4E 1_555 1_555
N8E C6E 1_555 1_555
N8C C6C 1_555 1_555
C11A C15A 1_555 1_555

#END
