
#######################################################################
#
#                 Cambridge Crystallographic Data Centre
#                                CCDC 
#
#######################################################################
#
# If this CIF has been generated from an entry in the Cambridge 
# Structural Database, then it will include bibliographic, chemical, 
# crystal, experimental, refinement or atomic coordinate data resulting 
# from the CCDC's data processing and validation procedures.
#
#######################################################################

data_GANBED02
_chemical_formula_moiety         'C51 H56 N28 Ni2'
_symmetry_cell_setting           orthorhombic
_symmetry_space_group_name_H-M   'P n n a'
_symmetry_Int_Tables_number      52
_space_group_name_Hall           '-P 2a 2bc'
loop_
_symmetry_equiv_pos_site_id
_symmetry_equiv_pos_as_xyz
1 x,y,z
2 1/2-x,-y,z
3 1/2-x,1/2+y,1/2-z
4 x,1/2-y,1/2-z
5 -x,-y,-z
6 1/2+x,y,-z
7 1/2+x,1/2-y,1/2+z
8 -x,1/2+y,1/2+z
_cell_length_a                   17.116(2)
_cell_length_b                   22.800(3)
_cell_length_c                   22.641(3)
_cell_angle_alpha                90
_cell_angle_beta                 90
_cell_angle_gamma                90
_cell_volume                     8835.53
loop_
_atom_site_label
_atom_site_type_symbol
_atom_site_fract_x
_atom_site_fract_y
_atom_site_fract_z
Ni1 Ni 0.474014(15) 0.257897(11) 0.009245(11)
Ni2 Ni 0.496870(14) 0.507900(11) 0.259110(11)
N1 N 0.46120(10) 0.17021(7) 0.03430(8)
N2 N 0.49155(10) 0.23124(7) -0.07761(8)
N3 N 0.48589(11) 0.34500(8) -0.01864(8)
N4 N 0.45850(10) 0.28468(7) 0.09599(8)
N5 N 0.35422(11) 0.26240(8) -0.00690(8)
N6 N 0.59402(10) 0.25377(8) 0.02351(8)
N7 N 0.48904(10) 0.42048(7) 0.23318(7)
N8 N 0.49784(11) 0.59467(7) 0.28561(8)
N9 N 0.48470(11) 0.48161(8) 0.34689(8)
N10 N 0.50864(10) 0.53252(8) 0.17053(8)
N11 N 0.37718(10) 0.51345(9) 0.24793(8)
N12 N 0.61909(11) 0.50218(9) 0.26463(9)
N13 N 0.2281(3) 0.2285(3) -0.0510(3)
C1 C 0.2924(4) 0.2461(3) -0.0248(4)
C2 C 0.6578(4) 0.2424(3) 0.0321(4)
N14 N 0.7488(2) 0.4548(2) 0.2484(3)
C3 C 0.6816(2) 0.4810(2) 0.2575(2)
C4 C 0.6826(2) 0.5215(2) 0.2584(2)
N15 N 0.52162(12) 0.19490(8) -0.17741(8)
N16 N 0.45124(13) 0.32250(8) 0.19749(8)
N17 N 0.45139(13) 0.06499(8) 0.05816(8)
N18 N 0.47993(14) 0.44196(8) -0.06537(8)
N19 N 0.2500 0.5000 0.20190(17)
C5 C 0.45843(12) 0.12154(9) 0.04842(9)
C6 C 0.50465(12) 0.21137(8) -0.12346(9)
C7 C 0.48447(12) 0.38886(9) -0.04342(9)
C8 C 0.45681(12) 0.30498(9) 0.14258(9)
C9 C 0.47214(12) 0.37553(9) 0.21347(9)
C10 C 0.51022(12) 0.14055(9) -0.19425(9)
C11 C 0.47024(13) 0.04261(9) 0.10977(9)
C12 C 0.48744(13) 0.45213(9) -0.12198(9)
C13 C 0.31582(14) 0.50702(14) 0.22915(11)
N8G N 0.50216(11) 0.09467(7) -0.21439(8)
N9C N 0.48470(11) 0.01839(8) 0.15311(8)
N10D N 0.49136(10) 0.46748(8) -0.17053(8)
N13E N 0.7281(3) 0.2285(3) 0.0510(3)
C2E C 0.1578(4) 0.2424(3) -0.0321(4)
N14A N 0.7512(2) 0.5452(2) 0.2484(3)
C4A C 0.8174(2) 0.4785(2) 0.2584(2)
C10G C 0.48978(12) 0.64055(9) 0.30575(9)
C11C C 0.47024(13) 0.45739(9) 0.39023(9)
C12D C 0.51256(13) 0.54787(9) 0.12198(9)
C13A C 0.18418(14) 0.49298(14) 0.22915(11)
N20 N 0.23358(15) 0.2500 0.2500
C14 C 0.17999(13) 0.27998(10) 0.20582(10)
H1 H 0.1464 0.2497 0.1875
H2 H 0.1454 0.3071 0.2277
C15 C 0.21962(16) 0.31421(13) 0.15689(12)
H3 H 0.2505 0.2873 0.1317
H4 H 0.2555 0.3437 0.1740
C16 C 0.15659(18) 0.34483(14) 0.11980(14)
H5 H 0.1814 0.3668 0.0877
H6 H 0.1269 0.3719 0.1449
H7 H 0.1212 0.3154 0.1032
C17 C 0.28674(14) 0.20610(11) 0.21978(11)
H8 H 0.3166 0.2269 0.1888
H9 H 0.3248 0.1915 0.2492
C18 C 0.24694(17) 0.15372(13) 0.19168(13)
H10 H 0.2068 0.1660 0.1628
H11 H 0.2226 0.1281 0.2218
C19 C 0.3193(6) 0.1218(4) 0.1598(3)
H12 H 0.3002 0.0882 0.1370
H13 H 0.3565 0.1082 0.1897
H14 H 0.3453 0.1495 0.1332
C14C C 0.17999(13) 0.22002(10) 0.29418(10)
C17C C 0.28674(14) 0.29390(11) 0.28022(11)
N21 N 0.7500 0.5000 0.02723(12)
C20 C 0.7899(3) 0.5293(2) 0.0765(2)
H15 H 0.8136 0.4990 0.1023
H16 H 0.7505 0.5507 0.1003
C21 C 0.8519(3) 0.5712(2) 0.0581(2)
H17 H 0.8298 0.6000 0.0299
H18 H 0.8943 0.5497 0.0379
C22 C 0.8856(4) 0.6041(3) 0.1124(3)
H19 H 0.9419 0.6096 0.1072
H20 H 0.8760 0.5811 0.1482
H21 H 0.8601 0.6425 0.1160
C23 C 0.7946(8) 0.4555(6) -0.0084(5)
H22 H 0.7579 0.4250 -0.0223
H23 H 0.8335 0.4363 0.0175
C24 C 0.8368(4) 0.4813(3) -0.0616(3)
H24 H 0.8793 0.5078 -0.0486
H25 H 0.8000 0.5039 -0.0865
C25 C 0.8715(6) 0.4272(5) -0.0974(5)
H26 H 0.8311 0.3971 -0.1018
H27 H 0.9160 0.4108 -0.0758
H28 H 0.8886 0.4404 -0.1364
C20A C 0.7101(3) 0.4707(2) 0.0765(2)
C23A C 0.7054(8) 0.5445(6) -0.0084(5)
N22 N 0.73215(14) 0.2500 0.2500
C26 C 0.68160(12) 0.22929(9) 0.19866(9)
H29 H 0.6503 0.2630 0.1845
H30 H 0.7165 0.2172 0.1660
C27 C 0.62687(15) 0.17939(11) 0.21195(11)
H31 H 0.5903 0.1910 0.2437
H32 H 0.6571 0.1450 0.2258
C28 C 0.58122(14) 0.16326(11) 0.15665(10)
H33 H 0.5453 0.1310 0.1656
H34 H 0.6176 0.1510 0.1256
H35 H 0.5513 0.1974 0.1431
C29 C 0.78234(12) 0.30082(9) 0.22887(9)
H36 H 0.8083 0.3186 0.2636
H37 H 0.7476 0.3310 0.2116
C30 C 0.84467(13) 0.28535(10) 0.18356(10)
H38 H 0.8819 0.2568 0.2007
H39 H 0.8201 0.2672 0.1485
C31 C 0.88764(15) 0.34081(11) 0.16563(12)
H40 H 0.9273 0.3312 0.1360
H41 H 0.9129 0.3580 0.2004
H42 H 0.8504 0.3690 0.1490
C26C C 0.68160(12) 0.27071(9) 0.30134(9)
C29C C 0.78234(12) 0.19918(9) 0.27113(9)
N23 N 0.7500 0.0000 0.03061(11)
C32 C 0.7221(2) 0.03596(18) -0.01851(18)
H43 H 0.7072 0.0100 -0.0517
H44 H 0.7651 0.0617 -0.0322
C33 C 0.6525(3) 0.0736(2) -0.0016(2)
H45 H 0.6707 0.1061 0.0240
H46 H 0.6154 0.0496 0.0217
C34 C 0.6062(3) 0.1015(3) -0.0585(3)
H47 H 0.5530 0.1124 -0.0468
H48 H 0.6039 0.0724 -0.0903
H49 H 0.6340 0.1364 -0.0725
C35 C 0.6941(2) -0.04659(18) 0.04872(19)
H50 H 0.6726 -0.0642 0.0122
H51 H 0.6501 -0.0271 0.0692
C36 C 0.7216(3) -0.0963(2) 0.0877(2)
H52 H 0.7501 -0.0806 0.1223
H53 H 0.7572 -0.1225 0.0655
C37 C 0.6494(3) -0.1301(2) 0.1078(2)
H54 H 0.6531 -0.1709 0.0944
H55 H 0.6025 -0.1120 0.0909
H56 H 0.6461 -0.1292 0.1510
C32A C 0.7779(2) -0.03596(18) -0.01851(18)
C35A C 0.8059(2) 0.04659(18) 0.04872(19)
loop_
_geom_bond_atom_site_label_1
_geom_bond_atom_site_label_2
_geom_bond_site_symmetry_1
_geom_bond_site_symmetry_2
Ni1 N1 1_555 1_555
Ni2 N7 1_555 1_555
N1 C5 1_555 1_555
N2 Ni1 1_555 1_555
N3 Ni1 1_555 1_555
N4 Ni1 1_555 1_555
N5 Ni1 1_555 1_555
N6 Ni1 1_555 1_555
N7 C9 1_555 1_555
N8 Ni2 1_555 1_555
N9 Ni2 1_555 1_555
N10 Ni2 1_555 1_555
N11 Ni2 1_555 1_555
N12 Ni2 1_555 1_555
N13 C1 1_555 1_555
C1 N5 1_555 1_555
C2 N6 1_555 1_555
N14 C3 1_555 1_555
C3 N12 1_555 1_555
C4 N12 1_555 1_555
N15 C6 1_555 1_555
N16 C8 1_555 1_555
N17 C5 1_555 1_555
N18 C7 1_555 1_555
N19 C13 1_555 1_555
C6 N2 1_555 1_555
C7 N3 1_555 1_555
C8 N4 1_555 1_555
C9 N16 1_555 1_555
C10 N15 1_555 1_555
C11 N17 1_555 1_555
C12 N18 1_555 1_555
C13 N11 1_555 1_555
N20 C14 1_555 1_555
C14 H1 1_555 1_555
H2 C14 1_555 1_555
C15 C14 1_555 1_555
H3 C15 1_555 1_555
H4 C15 1_555 1_555
C16 C15 1_555 1_555
H5 C16 1_555 1_555
H6 C16 1_555 1_555
H7 C16 1_555 1_555
C17 N20 1_555 1_555
H8 C17 1_555 1_555
H9 C17 1_555 1_555
C18 C17 1_555 1_555
H10 C18 1_555 1_555
H11 C18 1_555 1_555
C19 C18 1_555 1_555
H12 C19 1_555 1_555
H13 C19 1_555 1_555
H14 C19 1_555 1_555
N21 C20 1_555 1_555
C20 H15 1_555 1_555
H16 C20 1_555 1_555
C21 C20 1_555 1_555
H17 C21 1_555 1_555
H18 C21 1_555 1_555
C22 C21 1_555 1_555
H19 C22 1_555 1_555
H20 C22 1_555 1_555
H21 C22 1_555 1_555
C23 N21 1_555 1_555
H22 C23 1_555 1_555
H23 C23 1_555 1_555
C24 C23 1_555 1_555
H24 C24 1_555 1_555
H25 C24 1_555 1_555
C25 C24 1_555 1_555
H26 C25 1_555 1_555
H27 C25 1_555 1_555
H28 C25 1_555 1_555
N22 C26 1_555 1_555
C26 H29 1_555 1_555
H30 C26 1_555 1_555
C27 C26 1_555 1_555
H31 C27 1_555 1_555
H32 C27 1_555 1_555
C28 C27 1_555 1_555
H33 C28 1_555 1_555
H34 C28 1_555 1_555
H35 C28 1_555 1_555
C29 N22 1_555 1_555
H36 C29 1_555 1_555
H37 C29 1_555 1_555
C30 C29 1_555 1_555
H38 C30 1_555 1_555
H39 C30 1_555 1_555
C31 C30 1_555 1_555
H40 C31 1_555 1_555
H41 C31 1_555 1_555
H42 C31 1_555 1_555
N23 C32 1_555 1_555
C32 H43 1_555 1_555
H44 C32 1_555 1_555
C33 C32 1_555 1_555
H45 C33 1_555 1_555
H46 C33 1_555 1_555
C34 C33 1_555 1_555
H47 C34 1_555 1_555
H48 C34 1_555 1_555
H49 C34 1_555 1_555
C35 N23 1_555 1_555
H50 C35 1_555 1_555
H51 C35 1_555 1_555
C36 C35 1_555 1_555
H52 C36 1_555 1_555
H53 C36 1_555 1_555
C37 C36 1_555 1_555
H54 C37 1_555 1_555
H55 C37 1_555 1_555
H56 C37 1_555 1_555
N8G C10 1_555 1_555
N9C C11 1_555 1_555
N10D C12 1_555 1_555
N13E C2 1_555 1_555
C2E N13 1_555 1_555
N14A C4 1_555 1_555
C4A N14 1_555 1_555
C10G N8 1_555 1_555
C11C N9 1_555 1_555
C12D N10 1_555 1_555
C13A N19 1_555 1_555
C14C N20 1_555 1_555
C17C N20 1_555 1_555
C20A N21 1_555 1_555
C23A N21 1_555 1_555
C26C N22 1_555 1_555
C29C N22 1_555 1_555
C32A N23 1_555 1_555
C35A N23 1_555 1_555
C3 C4 1_555 1_555

#END
