
#######################################################################
#
#                 Cambridge Crystallographic Data Centre
#                                CCDC 
#
#######################################################################
#
# If this CIF has been generated from an entry in the Cambridge 
# Structural Database, then it will include bibliographic, chemical, 
# crystal, experimental, refinement or atomic coordinate data resulting 
# from the CCDC's data processing and validation procedures.
#
#######################################################################

data_ROMQER
_chemical_formula_moiety         '(C43 H52 O32 Zn5)n'
_symmetry_cell_setting           monoclinic
_symmetry_space_group_name_H-M   'P 21/c'
_symmetry_Int_Tables_number      14
_space_group_name_Hall           '-P 2ybc'
loop_
_symmetry_equiv_pos_site_id
_symmetry_equiv_pos_as_xyz
1 x,y,z
2 -x,1/2+y,1/2-z
3 -x,-y,-z
4 x,1/2-y,1/2+z
_cell_length_a                   15.519(3)
_cell_length_b                   22.982(5)
_cell_length_c                   16.102(3)
_cell_angle_alpha                90
_cell_angle_beta                 100.20(3)
_cell_angle_gamma                90
_cell_volume                     5652.14
loop_
_atom_site_label
_atom_site_type_symbol
_atom_site_fract_x
_atom_site_fract_y
_atom_site_fract_z
Zn1 Zn 0.33625(3) 0.971927(17) 0.34899(3)
Zn2 Zn 0.35240(3) 0.837168(17) 0.38302(3)
Zn3 Zn 0.15664(3) 0.877496(19) 0.35394(3)
Zn4 Zn 0.16814(3) 0.623485(18) 0.18942(3)
Zn5 Zn 0.17458(3) 0.748977(18) 0.25332(3)
O1 O 0.1356(2) -0.10672(12) 0.2317(2)
O2 O 0.16019(19) -0.18763(11) 0.16397(18)
O3 O 0.1773(2) -0.17868(12) -0.14019(19)
O4 O 0.1894(2) -0.09144(12) -0.19774(19)
O5 O 0.1278(2) 0.05214(12) 0.0117(2)
O6 O 0.19658(17) 0.34131(10) 0.0393(2)
O7 O 0.52682(16) 0.37354(11) 0.06696(17)
O8 O 0.54041(15) 0.46780(10) 0.09719(18)
O9 O 0.27546(17) 0.59292(10) 0.07342(18)
O10 O 0.17156(16) 0.54909(11) 0.12863(18)
O11 O 0.23202(16) 0.69517(11) 0.18531(19)
O12 O 0.21669(15) 0.79840(10) 0.35045(16)
O13 O 0.0666(3) 0.8449(2) 0.4151(3)
O14 O 0.10158(18) 0.95832(12) 0.3788(2)
O15 O 0.27995(15) 0.90668(10) 0.40366(15)
O16 O 0.36433(18) 0.84994(11) 0.26275(16)
O17 O 0.34564(17) 0.94483(11) 0.23467(16)
O18 O 0.34343(17) 0.71377(11) 0.02116(17)
O19 O 0.39470(17) 0.74430(10) -0.09177(17)
O20 O 0.3931(2) 0.95889(11) -0.07081(17)
O21 O 0.26527(16) 1.21417(11) -0.2086(2)
O22 O 0.35088(18) 1.42979(12) -0.1743(2)
O23 O 0.23096(18) 1.47248(11) -0.1609(2)
O24 O -0.04119(16) 1.35694(12) -0.17113(19)
O25 O -0.04534(15) 1.26817(11) -0.2299(2)
C1 C 0.1478(2) -0.13348(17) 0.1668(2)
C2 C 0.1465(2) -0.09890(16) 0.0880(3)
C3 C 0.1365(3) -0.04004(18) 0.0895(3)
H1 H 0.1283 -0.0217 0.1390
C4 C 0.1384(3) -0.00722(18) 0.0172(3)
C5 C 0.1515(3) -0.03474(18) -0.0557(3)
H2 H 0.1534 -0.0130 -0.1041
C6 C 0.1619(3) -0.09454(17) -0.0571(3)
C7 C 0.1610(2) -0.12650(17) 0.0151(2)
H3 H 0.1701 -0.1665 0.0150
C8 C 0.1761(2) -0.12431(17) -0.1369(3)
C9 C 0.1022(3) 0.08206(18) 0.0780(3)
H4 H 0.1469 0.0781 0.1281
H5 H 0.0484 0.0653 0.0902
C10 C 0.0880(3) 0.14480(19) 0.0575(4)
H6 H 0.0586 0.1622 0.0998
H7 H 0.0487 0.1478 0.0037
C11 C 0.1684(3) 0.18005(17) 0.0527(3)
H8 H 0.2112 0.1741 0.1036
H9 H 0.1939 0.1669 0.0052
C12 C 0.1472(3) 0.24434(16) 0.0426(3)
H10 H 0.1174 0.2564 0.0878
H11 H 0.1072 0.2502 -0.0103
C13 C 0.2265(3) 0.28256(15) 0.0435(3)
H12 H 0.2686 0.2763 0.0949
H13 H 0.2543 0.2737 -0.0044
C14 C 0.2556(2) 0.38635(15) 0.0509(3)
C15 C 0.2204(2) 0.43984(16) 0.0637(2)
H14 H 0.1608 0.4430 0.0646
C16 C 0.2728(2) 0.48917(15) 0.0753(2)
C17 C 0.3629(2) 0.48333(15) 0.0751(2)
H15 H 0.3990 0.5159 0.0813
C18 C 0.3975(2) 0.42885(15) 0.0656(2)
C19 C 0.3451(2) 0.37994(15) 0.0523(2)
H16 H 0.3689 0.3437 0.0445
C20 C 0.4957(2) 0.42253(15) 0.0778(2)
C21 C 0.2378(2) 0.54770(16) 0.0930(2)
C22 C 0.3599(2) 0.89298(15) 0.2140(2)
C23 C 0.3715(2) 0.88228(14) 0.1246(2)
C24 C 0.3716(2) 0.82627(15) 0.0956(2)
H17 H 0.3662 0.7957 0.1321
C25 C 0.3794(2) 0.81432(15) 0.0141(2)
C26 C 0.3885(2) 0.86054(15) -0.0399(2)
H18 H 0.3955 0.8531 -0.0951
C27 C 0.3872(2) 0.91697(15) -0.0118(2)
C28 C 0.3776(2) 0.92763(14) 0.0715(2)
H19 H 0.3753 0.9657 0.0907
C29 C 0.3736(2) 0.75314(15) -0.0203(3)
C30 C 0.3801(3) 1.01799(16) -0.0543(3)
H20 H 0.4260 1.0322 -0.0101
H21 H 0.3240 1.0237 -0.0367
C31 C 0.3826(3) 1.04978(17) -0.1373(3)
H22 H 0.3353 1.0358 -0.1803
H23 H 0.4375 1.0416 -0.1557
C32 C 0.3731(3) 1.11622(18) -0.1261(3)
H24 H 0.4179 1.1298 -0.0804
H25 H 0.3164 1.1247 -0.1115
C33 C 0.3819(3) 1.14772(17) -0.2065(3)
H26 H 0.4418 1.1445 -0.2158
H27 H 0.3442 1.1294 -0.2537
C34 C 0.3577(3) 1.21176(18) -0.2032(3)
H28 H 0.3868 1.2291 -0.1508
H29 H 0.3750 1.2327 -0.2499
C35 C 0.2268(2) 1.26681(16) -0.2009(2)
C36 C 0.2707(2) 1.31957(16) -0.1886(3)
H30 H 0.3312 1.3210 -0.1846
C37 C 0.2238(2) 1.37009(15) -0.1823(2)
C38 C 0.1357(2) 1.36775(16) -0.1837(3)
H31 H 0.1049 1.4016 -0.1764
C39 C 0.0920(2) 1.31492(14) -0.1958(2)
C40 C 0.1375(2) 1.26451(16) -0.2027(3)
H32 H 0.1084 1.2290 -0.2086
C41 C 0.2720(2) 1.42712(16) -0.1713(2)
C42 C -0.0056(2) 1.31253(16) -0.1981(3)
Zn1A Zn 0.66375(3) 0.471927(17) 0.15101(3)
Zn1C Zn 0.33625(3) 1.528073(17) -0.15101(3)
Zn2A Zn 0.64760(3) 0.337168(17) 0.11698(3)
Zn2C Zn 0.35240(3) 0.662832(17) -0.11698(3)
Zn3_2 Zn 0.15664(3) -0.122504(19) 0.35394(3)
Zn4B Zn -0.16814(3) 1.376515(18) -0.18942(3)
Zn4C Zn 0.16814(3) -0.123485(18) -0.31058(3)
Zn5_2 Zn 0.17458(3) -0.251023(18) 0.25332(3)
Zn5B Zn -0.17458(3) 1.251023(18) -0.25332(3)
Zn5C Zn 0.17458(3) -0.248977(18) -0.24668(3)
O1_2 O 0.1356(2) 0.89328(12) 0.2317(2)
O2_2 O 0.16019(19) 0.81237(11) 0.16397(18)
O3C O 0.1773(2) 0.67868(12) 0.35981(19)
O4C O 0.1894(2) 0.59144(12) 0.30226(19)
O7A O 0.47318(16) 0.87354(11) 0.43304(17)
O8A O 0.45959(15) 0.96780(10) 0.40281(18)
O18C O 0.34343(17) 0.78623(11) 0.52116(17)
O19C O 0.39470(17) 0.75570(10) 0.40823(17)
O22C O 0.35088(18) 1.07021(12) 0.3257(2)
O23C O 0.23096(18) 1.02752(11) 0.3391(2)
O24B O 0.04119(16) 0.64306(12) 0.17113(19)
O25B O 0.04534(15) 0.73183(11) 0.2299(2)
O26 O 0.3882(4) 0.9149(2) 0.7560(3)
O27 O 0.4543(3) 0.77861(19) 0.7625(3)
O28 O 0.0092(3) 0.4173(3) 0.9865(3)
O29 O 0.4928(2) 0.14268(16) 0.3894(2)
O30 O 0.62400(10) 0.16276(7) 0.34555(11)
O31 O 0.9367(3) 0.9672(2) 0.2912(4)
H33 H 0.8968 0.9891 0.2981
C43 C 0.8948(7) 0.9072(4) 0.2426(9)
H34 H 0.9235 0.8991 0.1957
H35 H 0.8333 0.9126 0.2226
H36 H 0.9034 0.8751 0.2814
O32 O 0.5730(6) 0.9040(5) 0.8361(6)
loop_
_geom_bond_atom_site_label_1
_geom_bond_atom_site_label_2
_geom_bond_site_symmetry_1
_geom_bond_site_symmetry_2
Zn1 O15 1_555 1_555
Zn2 O12 1_555 1_555
Zn3 O12 1_555 1_555
Zn4 O10 1_555 1_555
Zn5 O11 1_555 1_555
O1 C1 1_555 1_555
O2 C1 1_555 1_555
O3 C8 1_555 1_555
O4 C8 1_555 1_555
O5 C4 1_555 1_555
O6 C13 1_555 1_555
O7 C20 1_555 1_555
O8 C20 1_555 1_555
O9 C21 1_555 1_555
O10 C21 1_555 1_555
O11 Zn4 1_555 1_555
O12 Zn5 1_555 1_555
O13 Zn3 1_555 1_555
O14 Zn3 1_555 1_555
O15 Zn2 1_555 1_555
O16 Zn2 1_555 1_555
O17 Zn1 1_555 1_555
O18 C29 1_555 1_555
O19 C29 1_555 1_555
O20 C27 1_555 1_555
O21 C34 1_555 1_555
O22 C41 1_555 1_555
O23 C41 1_555 1_555
O24 C42 1_555 1_555
O25 C42 1_555 1_555
C1 C2 1_555 1_555
C2 C3 1_555 1_555
C3 H1 1_555 1_555
C4 C3 1_555 1_555
C5 C4 1_555 1_555
H2 C5 1_555 1_555
C6 C5 1_555 1_555
C7 C2 1_555 1_555
H3 C7 1_555 1_555
C8 C6 1_555 1_555
C9 O5 1_555 1_555
H4 C9 1_555 1_555
H5 C9 1_555 1_555
C10 C9 1_555 1_555
H6 C10 1_555 1_555
H7 C10 1_555 1_555
C11 C10 1_555 1_555
H8 C11 1_555 1_555
H9 C11 1_555 1_555
C12 C11 1_555 1_555
H10 C12 1_555 1_555
H11 C12 1_555 1_555
C13 C12 1_555 1_555
H12 C13 1_555 1_555
H13 C13 1_555 1_555
C14 O6 1_555 1_555
C15 C14 1_555 1_555
H14 C15 1_555 1_555
C16 C15 1_555 1_555
C17 C16 1_555 1_555
H15 C17 1_555 1_555
C18 C17 1_555 1_555
C19 C14 1_555 1_555
H16 C19 1_555 1_555
C20 C18 1_555 1_555
C21 C16 1_555 1_555
C22 O16 1_555 1_555
C23 C22 1_555 1_555
C24 C23 1_555 1_555
H17 C24 1_555 1_555
C25 C24 1_555 1_555
C26 C25 1_555 1_555
H18 C26 1_555 1_555
C27 C26 1_555 1_555
C28 C23 1_555 1_555
H19 C28 1_555 1_555
C29 C25 1_555 1_555
C30 O20 1_555 1_555
H20 C30 1_555 1_555
H21 C30 1_555 1_555
C31 C30 1_555 1_555
H22 C31 1_555 1_555
H23 C31 1_555 1_555
C32 C31 1_555 1_555
H24 C32 1_555 1_555
H25 C32 1_555 1_555
C33 C32 1_555 1_555
H26 C33 1_555 1_555
H27 C33 1_555 1_555
C34 C33 1_555 1_555
H28 C34 1_555 1_555
H29 C34 1_555 1_555
C35 O21 1_555 1_555
C36 C35 1_555 1_555
H30 C36 1_555 1_555
C37 C36 1_555 1_555
C38 C37 1_555 1_555
H31 C38 1_555 1_555
C39 C38 1_555 1_555
C40 C35 1_555 1_555
H32 C40 1_555 1_555
C41 C37 1_555 1_555
C42 C39 1_555 1_555
O31 H33 1_555 1_555
C43 O31 1_555 1_555
H34 C43 1_555 1_555
H35 C43 1_555 1_555
H36 C43 1_555 1_555
Zn1A O8 1_555 1_555
Zn1C O22 1_555 1_555
Zn2A O7 1_555 1_555
Zn2C O18 1_555 1_555
Zn3_2 O1 1_555 1_555
Zn4B O24 1_555 1_555
Zn4C O4 1_555 1_555
Zn5_2 O2 1_555 1_555
Zn5B O25 1_555 1_555
Zn5C O3 1_555 1_555
O1_2 Zn3 1_555 1_555
O2_2 Zn5 1_555 1_555
O3C Zn5 1_555 1_555
O4C Zn4 1_555 1_555
O7A Zn2 1_555 1_555
O8A Zn1 1_555 1_555
O18C Zn2 1_555 1_555
O19C Zn2 1_555 1_555
O22C Zn1 1_555 1_555
O23C Zn1 1_555 1_555
O24B Zn4 1_555 1_555
O25B Zn5 1_555 1_555
Zn3 O15 1_555 1_555
O17 C22 1_555 1_555
O19 Zn2C 1_555 1_555
O23 Zn1C 1_555 1_555
C6 C7 1_555 1_555
C18 C19 1_555 1_555
C27 C28 1_555 1_555
C39 C40 1_555 1_555

#END
