
#######################################################################
#
#                 Cambridge Crystallographic Data Centre
#                                CCDC 
#
#######################################################################
#
# If this CIF has been generated from an entry in the Cambridge 
# Structural Database, then it will include bibliographic, chemical, 
# crystal, experimental, refinement or atomic coordinate data resulting 
# from the CCDC's data processing and validation procedures.
#
#######################################################################

data_QABKIQ
_chemical_formula_moiety         '(C14 H12 F6 Li2 N10 P2)n'
_symmetry_cell_setting           tetragonal
_symmetry_space_group_name_H-M   'I 41/a'
_symmetry_Int_Tables_number      88
_space_group_name_Hall           '-I 4ad'
loop_
_symmetry_equiv_pos_site_id
_symmetry_equiv_pos_as_xyz
1 x,y,z
2 1/2-x,-y,1/2+z
3 3/4-y,1/4+x,1/4+z
4 3/4+y,3/4-x,3/4+z
5 1/2+x,1/2+y,1/2+z
6 -x,1/2-y,z
7 1/4-y,3/4+x,3/4+z
8 1/4+y,1/4-x,1/4+z
9 -x,-y,-z
10 1/2+x,y,1/2-z
11 1/4+y,3/4-x,3/4-z
12 1/4-y,1/4+x,1/4-z
13 1/2-x,1/2-y,1/2-z
14 x,1/2+y,-z
15 3/4+y,1/4-x,1/4-z
16 3/4-y,3/4+x,3/4-z
_cell_length_a                   10.5014(3)
_cell_length_b                   10.5014(3)
_cell_length_c                   21.4700(6)
_cell_angle_alpha                90
_cell_angle_beta                 90
_cell_angle_gamma                90
_cell_volume                     2367.7
loop_
_atom_site_label
_atom_site_type_symbol
_atom_site_fract_x
_atom_site_fract_y
_atom_site_fract_z
Li1 Li 0.5000 1.2500 0.3750
P1 P 0.5000 0.7500 0.38273(2)
F1 F 0.65117(8) 0.74654(9) 0.38442(5)
F2 F 0.5000 0.7500 0.30924(6)
N1 N 0.5000 0.7500 0.52200(8)
N2 N 0.50520(13) 1.03515(12) 0.38019(5)
C1 C 0.5000 0.7500 0.46856(8)
C2 C 0.50333(13) 0.92594(14) 0.38199(6)
F1E F 0.34883(8) 0.75346(9) 0.38442(5)
N2E N 0.49480(13) 0.46485(12) 0.38019(5)
C2E C 0.49667(13) 0.57406(14) 0.38199(6)
P1H P 0.5000 1.2500 0.61727(2)
F1M F 0.65117(8) 1.24654(9) 0.61558(5)
F2H F 0.5000 1.2500 0.69076(6)
N1H N 0.5000 1.2500 0.47800(8)
N2M N 0.50520(13) 1.53515(12) 0.61981(5)
C1H C 0.5000 1.2500 0.53144(8)
C2M C 0.50333(13) 1.42594(14) 0.61801(6)
F1H F 0.34883(8) 1.25346(9) 0.61558(5)
N2H N 0.49480(13) 0.96485(12) 0.61981(5)
C2H C 0.49667(13) 1.07406(14) 0.61801(6)
Li1_2 Li 0.5000 0.2500 0.3750
Li1B Li 0.5000 0.7500 0.6250
Li1B_2 Li 0.5000 1.7500 0.6250
N1C N 0.5000 1.2500 0.27200(8)
N2E_2 N 0.49480(13) 1.46485(12) 0.38019(5)
N2J N 0.28515(12) 1.24480(13) 0.36981(5)
N2O N 0.71485(12) 1.25520(13) 0.36981(5)
Li2 Li 0.0000 0.7500 0.3750
N3 N 0.10069(12) 0.63348(11) 0.43283(6)
C3 C 0.15415(12) 0.56790(13) 0.46564(6)
C4 C 0.22292(16) 0.48356(16) 0.50734(7)
H1 H 0.2977 0.4492 0.4859
H2 H 0.1671 0.4134 0.5201
H3 H 0.2503 0.5312 0.5442
N3E N -0.10069(12) 0.86652(11) 0.43283(6)
C3E C -0.15415(12) 0.93210(13) 0.46564(6)
C4E C -0.22292(16) 1.01644(16) 0.50734(7)
H1E H -0.2977 1.0508 0.4859
H2E H -0.1671 1.0866 0.5201
H3E H -0.2503 0.9688 0.5442
N3J N -0.11652(11) 0.64931(12) 0.31717(6)
C3J C -0.18210(13) 0.59585(12) 0.28436(6)
C4J C -0.26644(16) 0.52708(16) 0.24266(7)
H1J H -0.3008 0.4523 0.2641
H2J H -0.3366 0.5829 0.2299
H3J H -0.2188 0.4997 0.2058
N3O N 0.11652(11) 0.85069(12) 0.31717(6)
C3O C 0.18210(13) 0.90415(12) 0.28436(6)
C4O C 0.26644(16) 0.97292(16) 0.24266(7)
H1O H 0.3008 1.0477 0.2641
H2O H 0.3366 0.9171 0.2299
H3O H 0.2188 1.0003 0.2058
loop_
_geom_bond_atom_site_label_1
_geom_bond_atom_site_label_2
_geom_bond_site_symmetry_1
_geom_bond_site_symmetry_2
Li1 N2 1_555 1_555
P1 F1 1_555 1_555
F2 P1 1_555 1_555
N1 C1 1_555 1_555
N2 C2 1_555 1_555
C1 P1 1_555 1_555
C2 P1 1_555 1_555
Li2 N3 1_555 1_555
N3 C3 1_555 1_555
C3 C4 1_555 1_555
C4 H1 1_555 1_555
H2 C4 1_555 1_555
H3 C4 1_555 1_555
F1E P1 1_555 1_555
N2E C2E 1_555 1_555
C2E P1 1_555 1_555
P1H F1M 1_555 1_555
F2H P1H 1_555 1_555
N1H Li1 1_555 1_555
N2M C2M 1_555 1_555
C1H P1H 1_555 1_555
C2M P1H 1_555 1_555
F1H P1H 1_555 1_555
N2H C2H 1_555 1_555
C2H P1H 1_555 1_555
Li1_2 N2E 1_555 1_555
Li1B N1 1_555 1_555
Li1B_2 N2M 1_555 1_555
N1C Li1 1_555 1_555
N2E_2 Li1 1_555 1_555
N2J Li1 1_555 1_555
N2O Li1 1_555 1_555
N3E Li2 1_555 1_555
C3E N3E 1_555 1_555
C4E C3E 1_555 1_555
H1E C4E 1_555 1_555
H2E C4E 1_555 1_555
H3E C4E 1_555 1_555
N3J Li2 1_555 1_555
C3J N3J 1_555 1_555
C4J C3J 1_555 1_555
H1J C4J 1_555 1_555
H2J C4J 1_555 1_555
H3J C4J 1_555 1_555
N3O Li2 1_555 1_555
C3O N3O 1_555 1_555
C4O C3O 1_555 1_555
H1O C4O 1_555 1_555
H2O C4O 1_555 1_555
H3O C4O 1_555 1_555
N1H C1H 1_555 1_555
N2H Li1B 1_555 1_555

#END
