
#######################################################################
#
#                 Cambridge Crystallographic Data Centre
#                                CCDC 
#
#######################################################################
#
# If this CIF has been generated from an entry in the Cambridge 
# Structural Database, then it will include bibliographic, chemical, 
# crystal, experimental, refinement or atomic coordinate data resulting 
# from the CCDC's data processing and validation procedures.
#
#######################################################################

data_KUCDOD
_chemical_formula_moiety         '(C32 H28 Cu5 O25)n'
_symmetry_cell_setting           triclinic
_symmetry_space_group_name_H-M   'P -1'
_symmetry_Int_Tables_number      2
_space_group_name_Hall           '-P 1'
loop_
_symmetry_equiv_pos_site_id
_symmetry_equiv_pos_as_xyz
1 x,y,z
2 -x,-y,-z
_cell_length_a                   10.7643(4)
_cell_length_b                   11.1903(5)
_cell_length_c                   11.8805(6)
_cell_angle_alpha                101.006(4)
_cell_angle_beta                 110.549(4)
_cell_angle_gamma                99.779(4)
_cell_volume                     1270.95
loop_
_atom_site_label
_atom_site_type_symbol
_atom_site_fract_x
_atom_site_fract_y
_atom_site_fract_z
Cu1 Cu 0.64404(4) 0.51070(4) 0.01199(4)
O1 O 0.5012(2) 0.4003(2) 0.0421(2)
O2 O 0.2626(3) 0.3386(3) 0.8100(2)
O3 O -0.2228(3) 0.4129(3) 0.0586(3)
O4 O 0.2456(3) 0.4233(3) 0.0726(3)
Cu2 Cu 0.56218(5) 0.38577(5) 0.21048(4)
O5 O 0.3763(3) 0.3326(3) 0.2047(3)
O6 O 0.6215(4) 0.3587(4) 0.3785(3)
O7 O 0.3966(3) 0.4084(3) 0.7164(3)
O8 O -0.2705(3) 0.3433(3) 0.2078(3)
C1 C 0.2663(4) 0.3584(4) 0.1489(4)
C2 C 0.1459(4) 0.3051(4) 0.1772(3)
C3 C 0.0297(4) 0.3496(4) 0.1423(4)
C4 C 0.1517(4) 0.2098(4) 0.2363(3)
C5 C -0.0809(4) 0.3026(4) 0.1707(3)
H1 H 0.0252 0.4113 0.0996
C6 C 0.0394(4) 0.1611(3) 0.2598(3)
H2 H 0.2294 0.1793 0.2597
C7 C -0.0753(4) 0.2060(4) 0.2308(4)
C8 C -0.2017(4) 0.3571(4) 0.1430(4)
O9 O 0.0377(3) 0.0555(2) 0.3085(2)
H3 H -0.1480 0.1732 0.2505
C9 C 0.1258(4) 0.0710(3) 0.4301(3)
C10 C 0.1837(4) 0.1867(3) 0.5168(3)
C11 C 0.1494(4) -0.0386(4) 0.4620(4)
C12 C 0.2675(4) 0.1941(3) 0.6395(3)
H4 H 0.1673 0.2594 0.4939
H5 H 0.1090 -0.1164 0.4028
C13 C 0.2334(4) -0.0305(4) 0.5824(4)
C14 C 0.2952(4) 0.0851(4) 0.6732(4)
C15 C 0.3162(4) 0.3237(4) 0.7319(4)
H6 H 0.2494 -0.1038 0.6039
C16 C 0.3901(4) 0.0893(4) 0.8018(4)
O10 O 0.3837(3) -0.0152(3) 0.8297(3)
O11 O 0.4732(3) 0.1903(3) 0.8747(3)
Cu3 Cu 0.5000 0.0000 1.0000
O12 O 0.3657(5) 0.0624(5) 1.0555(4)
H7 H 0.3948 0.0781 1.1346
H8 H 0.3553 0.1297 1.0343
Cu1A Cu 0.35596(4) -0.51070(4) 1.98801(4)
O1A O 0.4988(2) -0.4003(2) 1.9579(2)
O2A O 0.7374(3) -0.3386(3) 1.1900(2)
O3A O 1.2228(3) -0.4129(3) 1.9414(3)
O4A O 0.7544(3) -0.4233(3) 1.9274(3)
Cu2A Cu 0.43782(5) -0.38577(5) 1.78952(4)
O5A O 0.6237(3) -0.3326(3) 1.7953(3)
O6A O 0.3785(4) -0.3587(4) 1.6215(3)
O7A O 0.6034(3) -0.4084(3) 1.2836(3)
O8A O 1.2705(3) -0.3433(3) 1.7922(3)
C1A C 0.7337(4) -0.3584(4) 1.8511(4)
C2A C 0.8541(4) -0.3051(4) 1.8228(3)
C3A C 0.9703(4) -0.3496(4) 1.8577(4)
C4A C 0.8483(4) -0.2098(4) 1.7637(3)
C5A C 1.0809(4) -0.3026(4) 1.8293(3)
H1A H 0.9748 -0.4113 1.9004
C6A C 0.9606(4) -0.1611(3) 1.7402(3)
H2A H 0.7706 -0.1793 1.7403
C7A C 1.0753(4) -0.2060(4) 1.7692(4)
C8A C 1.2017(4) -0.3571(4) 1.8570(4)
O9A O 0.9623(3) -0.0555(2) 1.6915(2)
H3A H 1.1480 -0.1732 1.7495
C9A C 0.8742(4) -0.0710(3) 1.5699(3)
C10A C 0.8163(4) -0.1867(3) 1.4832(3)
C11A C 0.8506(4) 0.0386(4) 1.5380(4)
C12A C 0.7325(4) -0.1941(3) 1.3605(3)
H4A H 0.8327 -0.2594 1.5061
H5A H 0.8910 0.1164 1.5972
C13A C 0.7666(4) 0.0305(4) 1.4176(4)
C14A C 0.7048(4) -0.0851(4) 1.3268(4)
C15A C 0.6838(4) -0.3237(4) 1.2681(4)
H6A H 0.7506 0.1038 1.3961
C16A C 0.6099(4) -0.0893(4) 1.1982(4)
O10A O 0.6163(3) 0.0152(3) 1.1703(3)
O11A O 0.5268(3) -0.1903(3) 1.1253(3)
O12A O 0.6343(5) -0.0624(5) 0.9445(4)
H7A H 0.6052 -0.0781 0.8654
H8A H 0.6447 -0.1297 0.9657
Cu1_2 Cu -0.35596(4) 0.51070(4) 0.01199(4)
Cu1_3 Cu 0.64404(4) -0.48930(4) 1.01199(4)
Cu1_4 Cu 0.64404(4) -0.48930(4) 2.01199(4)
Cu1A_2 Cu 0.35596(4) 0.48930(4) -0.01199(4)
Cu1A_3 Cu 0.35596(4) 0.48930(4) 0.98801(4)
Cu1A_4 Cu 1.35596(4) -0.51070(4) 1.98801(4)
O1_2 O 0.5012(2) -0.5997(2) 2.0421(2)
O1A_2 O 0.4988(2) 0.5997(2) -0.0421(2)
O2_2 O 0.2626(3) -0.6614(3) 1.8100(2)
O2A_2 O 0.7374(3) 0.6614(3) 0.1900(2)
O3_2 O 0.7772(3) 0.4129(3) 0.0586(3)
O3A_2 O 0.2228(3) -0.4129(3) 1.9414(3)
O4_2 O 0.2456(3) -0.5767(3) 2.0726(3)
O4A_2 O 0.7544(3) 0.5767(3) -0.0726(3)
Cu2_2 Cu -0.43782(5) 0.38577(5) 0.21048(4)
Cu2_3 Cu 0.56218(5) -0.61423(5) 1.21048(4)
Cu2A_2 Cu 0.43782(5) 0.61423(5) 0.78952(4)
Cu2A_3 Cu 1.43782(5) -0.38577(5) 1.78952(4)
O7_2 O 0.3966(3) -0.5916(3) 1.7164(3)
O7A_2 O 0.6034(3) 0.5916(3) 0.2836(3)
O8_2 O 0.7295(3) 0.3433(3) 0.2078(3)
O8A_2 O 0.2705(3) -0.3433(3) 1.7922(3)
O13 O 0.8291(3) 0.8578(3) 0.0947(3)
H9 H 0.8135 0.7855 0.1156
H10 H 0.8956 0.9219 0.1628
loop_
_geom_bond_atom_site_label_1
_geom_bond_atom_site_label_2
_geom_bond_site_symmetry_1
_geom_bond_site_symmetry_2
Cu1 O1 1_555 1_555
O1 Cu2 1_555 1_555
O2 C15 1_555 1_555
O3 C8 1_555 1_555
O4 C1 1_555 1_555
Cu2 O5 1_555 1_555
O5 C1 1_555 1_555
O6 Cu2 1_555 1_555
O7 C15 1_555 1_555
O8 C8 1_555 1_555
C1 C2 1_555 1_555
C2 C3 1_555 1_555
C3 C5 1_555 1_555
C4 C2 1_555 1_555
C5 C7 1_555 1_555
H1 C3 1_555 1_555
C6 C4 1_555 1_555
H2 C4 1_555 1_555
C7 C6 1_555 1_555
C8 C5 1_555 1_555
O9 C6 1_555 1_555
H3 C7 1_555 1_555
C9 O9 1_555 1_555
C10 C9 1_555 1_555
C11 C9 1_555 1_555
C12 C10 1_555 1_555
H4 C10 1_555 1_555
H5 C11 1_555 1_555
C13 C11 1_555 1_555
C14 C12 1_555 1_555
C15 C12 1_555 1_555
H6 C13 1_555 1_555
C16 C14 1_555 1_555
O10 C16 1_555 1_555
O11 C16 1_555 1_555
Cu3 O10 1_555 1_555
O12 Cu3 1_555 1_555
H7 O12 1_555 1_555
H8 O12 1_555 1_555
O13 H9 1_555 1_555
H10 O13 1_555 1_555
Cu1A O1A 1_555 1_555
O1A Cu2A 1_555 1_555
O2A C15A 1_555 1_555
O3A C8A 1_555 1_555
O4A C1A 1_555 1_555
Cu2A O5A 1_555 1_555
O5A C1A 1_555 1_555
O6A Cu2A 1_555 1_555
O7A C15A 1_555 1_555
O8A C8A 1_555 1_555
C1A C2A 1_555 1_555
C2A C3A 1_555 1_555
C3A C5A 1_555 1_555
C4A C2A 1_555 1_555
C5A C7A 1_555 1_555
H1A C3A 1_555 1_555
C6A C4A 1_555 1_555
H2A C4A 1_555 1_555
C7A C6A 1_555 1_555
C8A C5A 1_555 1_555
O9A C6A 1_555 1_555
H3A C7A 1_555 1_555
C9A O9A 1_555 1_555
C10A C9A 1_555 1_555
C11A C9A 1_555 1_555
C12A C10A 1_555 1_555
H4A C10A 1_555 1_555
H5A C11A 1_555 1_555
C13A C11A 1_555 1_555
C14A C12A 1_555 1_555
C15A C12A 1_555 1_555
H6A C13A 1_555 1_555
C16A C14A 1_555 1_555
O10A Cu3 1_555 1_555
O11A C16A 1_555 1_555
O12A Cu3 1_555 1_555
H7A O12A 1_555 1_555
H8A O12A 1_555 1_555
Cu1_2 O3 1_555 1_555
Cu1_3 O2A 1_555 1_555
Cu1_4 O1A 1_555 1_555
Cu1A_2 O1 1_555 1_555
Cu1A_3 O2 1_555 1_555
Cu1A_4 O3A 1_555 1_555
O1_2 Cu1A 1_555 1_555
O1A_2 Cu1 1_555 1_555
O2_2 Cu1A 1_555 1_555
O2A_2 Cu1 1_555 1_555
O3_2 Cu1 1_555 1_555
O3A_2 Cu1A 1_555 1_555
O4_2 Cu1A 1_555 1_555
O4A_2 Cu1 1_555 1_555
Cu2_2 O8 1_555 1_555
Cu2_3 O7A 1_555 1_555
Cu2A_2 O7 1_555 1_555
Cu2A_3 O8A 1_555 1_555
O7_2 Cu2A 1_555 1_555
O7A_2 Cu2 1_555 1_555
O8_2 Cu2 1_555 1_555
O8A_2 Cu2A 1_555 1_555
O4 Cu1A_2 1_555 1_555
C13 C14 1_555 1_555
O4A Cu1_4 1_555 1_555
C13A C14A 1_555 1_555
C16A O10A 1_555 1_555
Cu1_4 O1_2 1_555 1_555
Cu1A_2 O1A_2 1_555 1_555

#END
