
#######################################################################
#
#                 Cambridge Crystallographic Data Centre
#                                CCDC 
#
#######################################################################
#
# If this CIF has been generated from an entry in the Cambridge 
# Structural Database, then it will include bibliographic, chemical, 
# crystal, experimental, refinement or atomic coordinate data resulting 
# from the CCDC's data processing and validation procedures.
#
#######################################################################

data_CAVNOE
_chemical_formula_moiety         'C14 H2 N8 O17 Sc3'
_symmetry_cell_setting           orthorhombic
_symmetry_space_group_name_H-M   'I m m a'
_symmetry_Int_Tables_number      74
_space_group_name_Hall           '-I 2b 2'
loop_
_symmetry_equiv_pos_site_id
_symmetry_equiv_pos_as_xyz
1 x,y,z
2 -x,1/2-y,z
3 x,-y,-z
4 -x,1/2+y,-z
5 1/2+x,1/2+y,1/2+z
6 1/2-x,-y,1/2+z
7 1/2+x,1/2-y,1/2-z
8 1/2-x,y,1/2-z
9 -x,-y,-z
10 x,1/2+y,-z
11 -x,y,z
12 x,1/2-y,z
13 1/2-x,1/2-y,1/2-z
14 1/2+x,y,1/2-z
15 1/2-x,1/2+y,1/2+z
16 1/2+x,-y,1/2+z
_cell_length_a                   18.279(7)
_cell_length_b                   7.330(3)
_cell_length_c                   11.601(4)
_cell_angle_alpha                90
_cell_angle_beta                 90
_cell_angle_gamma                90
_cell_volume                     1554.36
loop_
_atom_site_label
_atom_site_type_symbol
_atom_site_fract_x
_atom_site_fract_y
_atom_site_fract_z
O5 O 0.5000 0.7500 0.825(3)
Sc1 Sc 0.5000 1.5000 0.5000
O1 O 0.5000 1.2500 0.4180(4)
O2 O 0.58196(14) 1.4016(3) 0.6108(3)
C1 C 0.6099(3) 1.2500 0.6338(5)
C2 C 0.6827(3) 1.2500 0.6946(6)
C3 C 0.7160(3) 1.0910(6) 0.7236(7)
N1 N 0.6904(14) 0.922(4) 0.691(2)
O3 O 0.7096(13) 0.847(4) 0.590(2)
O4 O 0.6503(16) 0.859(4) 0.779(2)
Sc1A Sc 0.5000 1.0000 0.5000
Sc1A_2 Sc 0.5000 2.0000 0.5000
O1B O 0.5000 1.7500 0.5820(4)
O2K O 0.58196(14) 1.0984(3) 0.6108(3)
O2B O 0.58196(14) 1.5984(3) 0.3892(3)
O2I O 0.58196(14) 1.9016(3) 0.3892(3)
O2H O 0.41804(14) 1.5984(3) 0.3892(3)
O2J O 0.41804(14) 1.4016(3) 0.6108(3)
C1B C 0.6099(3) 1.7500 0.3662(5)
C2B C 0.6827(3) 1.7500 0.3054(6)
C2G C 0.8173(3) 1.2500 0.8054(6)
C2E C 0.8173(3) 1.7500 0.1946(6)
C3K C 0.7160(3) 1.4090(6) 0.7236(7)
C3G C 0.7840(3) 1.0910(6) 0.7764(7)
C3B C 0.7160(3) 1.9090(6) 0.2764(7)
C3I C 0.7160(3) 1.5910(6) 0.2764(7)
C3E C 0.7840(3) 1.9090(6) 0.2236(7)
C3L C 0.7840(3) 1.4090(6) 0.7764(7)
C3N C 0.7840(3) 1.5910(6) 0.2236(7)
N1B N 0.6904(14) 2.078(4) 0.309(2)
N1K N 0.6904(14) 1.578(4) 0.691(2)
N1G N 0.8096(14) 0.922(4) 0.809(2)
N1K_2 N 0.6904(14) 0.578(4) 0.691(2)
N1I N 0.6904(14) 1.422(4) 0.309(2)
N1E N 0.8096(14) 2.078(4) 0.191(2)
N1I_2 N 0.6904(14) 2.422(4) 0.309(2)
O3K O 0.7096(13) 0.653(4) 0.590(2)
O3B O 0.7096(13) 2.153(4) 0.410(2)
O3I O 0.7096(13) 2.347(4) 0.410(2)
O4K O 0.6503(16) 0.641(4) 0.779(2)
O4B O 0.6503(16) 2.141(4) 0.221(2)
O4I O 0.6503(16) 2.359(4) 0.221(2)
loop_
_geom_bond_atom_site_label_1
_geom_bond_atom_site_label_2
_geom_bond_site_symmetry_1
_geom_bond_site_symmetry_2
Sc1 O1 1_555 1_555
O1 Sc1A 1_555 1_555
O2 Sc1 1_555 1_555
C1 O2 1_555 1_555
C2 C1 1_555 1_555
C3 C2 1_555 1_555
N1 C3 1_555 1_555
O3 N1 1_555 1_555
O4 N1 1_555 1_555
Sc1A O2K 1_555 1_555
Sc1A_2 O1B 1_555 1_555
O1B Sc1 1_555 1_555
O2K C1 1_555 1_555
O2B Sc1 1_555 1_555
O2I Sc1A_2 1_555 1_555
O2H Sc1 1_555 1_555
O2J Sc1 1_555 1_555
C1B O2B 1_555 1_555
C2B C1B 1_555 1_555
C2G C3G 1_555 1_555
C2E C3E 1_555 1_555
C3K C2 1_555 1_555
C3G C3 1_555 1_555
C3B C2B 1_555 1_555
C3I C2B 1_555 1_555
C3E C3B 1_555 1_555
C3L C2G 1_555 1_555
C3N C2E 1_555 1_555
N1B C3B 1_555 1_555
N1K C3K 1_555 1_555
N1G C3G 1_555 1_555
N1K_2 O3K 1_555 1_555
N1I C3I 1_555 1_555
N1E C3E 1_555 1_555
N1I_2 O3I 1_555 1_555
O3K O3 1_555 1_555
O3B N1B 1_555 1_555
O3I O3B 1_555 1_555
O4K O4 1_555 1_555
O4B N1B 1_555 1_555
O4I N1I_2 1_555 1_555
O2I C1B 1_555 1_555
C3K C3L 1_555 1_555
C3I C3N 1_555 1_555
N1K_2 O4K 1_555 1_555
O4B O4I 1_555 1_555

#END
