
#######################################################################
#
#                 Cambridge Crystallographic Data Centre
#                                CCDC 
#
#######################################################################
#
# If this CIF has been generated from an entry in the Cambridge 
# Structural Database, then it will include bibliographic, chemical, 
# crystal, experimental, refinement or atomic coordinate data resulting 
# from the CCDC's data processing and validation procedures.
#
#######################################################################

data_JOWFOQ
_chemical_formula_moiety         'C5 H7 Cu4 Mo7 N11 O23'
_symmetry_cell_setting           monoclinic
_symmetry_space_group_name_H-M   'P 21/n'
_symmetry_Int_Tables_number      14
_space_group_name_Hall           '-P 2yn'
loop_
_symmetry_equiv_pos_site_id
_symmetry_equiv_pos_as_xyz
1 x,y,z
2 1/2-x,1/2+y,1/2-z
3 -x,-y,-z
4 1/2+x,1/2-y,1/2+z
_cell_length_a                   13.6939(3)
_cell_length_b                   7.79670(10)
_cell_length_c                   17.2311(4)
_cell_angle_alpha                90
_cell_angle_beta                 89.8570(9)
_cell_angle_gamma                90
_cell_volume                     1839.71
loop_
_atom_site_label
_atom_site_type_symbol
_atom_site_fract_x
_atom_site_fract_y
_atom_site_fract_z
Cu1 Cu 1.5000 0.5000 0.0000
Cu2 Cu 1.0000 0.0000 0.0000
Cu3 Cu 1.2469(1) 0.2672(1) 0.2480(1)
C1 C 1.3505(4) 0.3824(7) 0.1092(3)
C2 C 1.1505(4) 0.1463(7) 0.1068(3)
C3 C 1.3588(4) 0.6533(7) 0.1142(3)
C4 C 1.1487(4) -0.1255(7) 0.1123(3)
N1 N 1.3954(3) 0.5155(6) 0.0755(3)
N2 N 1.1105(3) 0.0061(6) 0.0718(3)
N3 N 1.2080(3) 0.1013(6) 0.1654(3)
N4 N 1.2916(3) 0.4293(6) 0.1662(3)
N5 N 1.2979(3) 0.6059(6) 0.1696(3)
N6 N 1.2930(3) 0.4245(6) 0.3315(3)
H1 H 1.3517(43) 0.2723(80) 0.1013(34)
H2 H 1.1380(44) 0.2671(83) 0.0866(35)
H3 H 1.3877(69) 0.763(13) 0.0976(55)
H4 H 1.1419(51) -0.2312(98) 0.1039(40)
H5 H 0.880(21) -0.097(38) 0.056(17)
H6 H 0.9289(63) -0.194(12) 0.0986(52)
H7 H 1.5613(67) 0.750(13) 0.0922(55)
Mo1 Mo 1.6415(1) 0.1153(1) 0.1014(1)
Mo2 Mo 1.8697(1) 0.3879(1) 0.1017(1)
Mo3 Mo 1.5028(1) 0.0191(1) 0.2505(1)
Mo4 Mo 1.7628(1) 0.2333(1) 0.2580(1)
O1 O 1.5757(3) 0.2860(5) 0.0701(2)
O2 O 1.7681(3) 0.2153(5) 0.1308(2)
O3 O 1.6746(3) 0.0127(5) 0.0185(2)
O4 O 1.6370(3) 0.1780(5) 0.2276(2)
O5 O 1.5433(3) -0.0325(5) 0.1432(2)
O6 O 1.7958(3) 0.5176(5) 0.0471(2)
O7 O 0.9393(3) 0.2677(5) 0.0398(2)
O8 O 1.9620(3) 0.5528(5) 0.1391(2)
O9 O 1.4350(3) 0.2013(5) 0.2410(2)
O10 O 1.0849(3) 0.3629(5) 0.2427(2)
O11 O 1.8805(3) 0.3394(5) 0.2186(2)
O12 O 1.8004(3) 0.0354(5) 0.2912(2)
O13 O 1.7569(3) 0.3567(5) 0.3419(2)
O14 O 0.9231(3) -0.1210(7) 0.0819(3)
O15 O 1.5857(3) 0.6659(7) 0.0606(3)
N1B N 1.6046(3) 0.4845(6) -0.0755(3)
O1B O 1.4243(3) 0.7140(5) -0.0701(2)
O15B O 1.4143(3) 0.3341(7) -0.0606(3)
N2B N 0.8895(3) -0.0061(6) -0.0718(3)
O7B O 1.0607(3) -0.2677(5) -0.0398(2)
O14B O 1.0769(3) 0.1210(7) -0.0819(3)
N5A N 1.2021(3) 0.1059(6) 0.3304(3)
N6A N 1.2070(3) -0.0755(6) 0.1685(3)
Cu3A Cu 1.2531(1) 0.7672(1) 0.2520(1)
C4A C 1.3513(4) 0.3745(7) 0.3877(3)
N3A N 1.2920(3) 0.6013(6) 0.3346(3)
O7_2 O 1.9393(3) 0.2677(5) 0.0398(2)
O8A O 1.5380(3) 0.0528(5) 0.3609(2)
O10A O 1.4151(3) -0.1371(5) 0.2573(2)
O11A O 1.6195(3) -0.1606(5) 0.2814(2)
Mo2_2 Mo 0.8697(1) 0.3879(1) 0.1017(1)
Mo3A Mo 1.9972(1) 0.5191(1) 0.2495(1)
Mo3A_2 Mo 0.9972(1) 0.5191(1) 0.2495(1)
loop_
_geom_bond_atom_site_label_1
_geom_bond_atom_site_label_2
_geom_bond_site_symmetry_1
_geom_bond_site_symmetry_2
Cu1 N1 1_555 1_555
Cu2 N2 1_555 1_555
Cu3 N3 1_555 1_555
C1 N1 1_555 1_555
C2 N2 1_555 1_555
C3 N1 1_555 1_555
C4 N2 1_555 1_555
N3 C2 1_555 1_555
N4 Cu3 1_555 1_555
N5 C3 1_555 1_555
N6 Cu3 1_555 1_555
H1 C1 1_555 1_555
H2 C2 1_555 1_555
H3 C3 1_555 1_555
H4 C4 1_555 1_555
H5 O14 1_555 1_555
H6 O14 1_555 1_555
H7 O15 1_555 1_555
Mo1 O1 1_555 1_555
Mo2 O2 1_555 1_555
Mo3 O4 1_555 1_555
Mo4 O2 1_555 1_555
O1 Cu1 1_555 1_555
O2 Mo1 1_555 1_555
O3 Mo1 1_555 1_555
O4 Mo1 1_555 1_555
O5 Mo1 1_555 1_555
O6 Mo2 1_555 1_555
O7 Cu2 1_555 1_555
O8 Mo2 1_555 1_555
O9 Mo3 1_555 1_555
O10 Cu3 1_555 1_555
O11 Mo2 1_555 1_555
O12 Mo4 1_555 1_555
O13 Mo4 1_555 1_555
O14 Cu2 1_555 1_555
O15 Cu1 1_555 1_555
N1B Cu1 1_555 1_555
O1B Cu1 1_555 1_555
O15B Cu1 1_555 1_555
N2B Cu2 1_555 1_555
O7B Cu2 1_555 1_555
O14B Cu2 1_555 1_555
N5A Cu3 1_555 1_555
N6A C4 1_555 1_555
Cu3A N5 1_555 1_555
C4A N6 1_555 1_555
N3A N6 1_555 1_555
O7_2 Mo2 1_555 1_555
O8A Mo3 1_555 1_555
O10A Mo3 1_555 1_555
O11A Mo3 1_555 1_555
Mo2_2 O7 1_555 1_555
Mo3A O8 1_555 1_555
Mo3A_2 O10 1_555 1_555
C1 N4 1_555 1_555
N3 N6A 1_555 1_555
N4 N5 1_555 1_555
Mo3 O5 1_555 1_555
Mo4 O4 1_555 1_555
Mo4 O11 1_555 1_555
O11 Mo3A 1_555 1_555
Cu3A N3A 1_555 1_555

#END
