
#######################################################################
#
#                 Cambridge Crystallographic Data Centre
#                                CCDC 
#
#######################################################################
#
# If this CIF has been generated from an entry in the Cambridge 
# Structural Database, then it will include bibliographic, chemical, 
# crystal, experimental, refinement or atomic coordinate data resulting 
# from the CCDC's data processing and validation procedures.
#
#######################################################################

data_FAZQUU
_chemical_formula_moiety         'C138 H48 O69 Zn31'
_symmetry_cell_setting           hexagonal
_symmetry_space_group_name_H-M   'P 63/m'
_symmetry_Int_Tables_number      176
_space_group_name_Hall           '-P 6c'
loop_
_symmetry_equiv_pos_site_id
_symmetry_equiv_pos_as_xyz
1 x,y,z
2 -y,x-y,z
3 -x+y,-x,z
4 -x,-y,1/2+z
5 y,-x+y,1/2+z
6 x-y,x,1/2+z
7 -x,-y,-z
8 y,-x+y,-z
9 x-y,x,-z
10 x,y,1/2-z
11 -y,x-y,1/2-z
12 -x+y,-x,1/2-z
_cell_length_a                   41.283(3)
_cell_length_b                   41.283(3)
_cell_length_c                   17.5145(11)
_cell_angle_alpha                90
_cell_angle_beta                 90
_cell_angle_gamma                120
_cell_volume                     25850.6
loop_
_atom_site_label
_atom_site_type_symbol
_atom_site_fract_x
_atom_site_fract_y
_atom_site_fract_z
O1 O 0.05775(8) 0.42573(8) 0.2500
O2 O 0.10913(8) 0.40208(8) 0.34315(16)
O3 O 0.04813(8) 0.48802(8) 0.33831(16)
O4 O 0.05659(7) 0.38619(7) 0.40698(16)
O5 O 0.12263(11) 0.51184(11) 0.2500
O6 O 0.14649(12) 0.47485(12) 0.2500
O7 O 0.01627(7) 0.43302(8) 0.39771(16)
O8 O 0.35603(7) 0.37297(7) 0.68618(16)
C1 C 0.34112(15) 0.37208(15) 0.7500
C2 C 0.30489(16) 0.37105(16) 0.7500
C3 C 0.14969(15) 0.50679(15) 0.2500
C4 C 0.08936(11) 0.39191(11) 0.4027(2)
C5 C 0.02728(11) 0.46731(11) 0.3886(2)
C6 C 0.01312(11) 0.48435(11) 0.4468(2)
C7 C 0.10508(12) 0.38536(12) 0.4725(3)
C8 C -0.01381(13) 0.46099(13) 0.4993(3)
C9 C 0.13506(19) 0.37440(18) 0.7500
H1 H 0.1127 0.3756 0.7500
C10 C 0.15197(15) 0.37348(14) 0.6807(3)
C11 C 0.09795(15) 0.36349(15) 0.6019(3)
H2 H 0.0820 0.3511 0.6440
C12 C 0.02610(13) 0.52144(13) 0.4456(3)
C13 C 0.13520(14) 0.37656(13) 0.6083(3)
C14 C 0.08244(16) 0.36816(14) 0.5325(3)
H3 H 0.0564 0.3592 0.5287
C15 C 0.18442(13) 0.37117(13) 0.6813(3)
H4 H 0.1953 0.3704 0.6340
C16 C 0.23648(18) 0.36976(18) 0.7500
C17 C 0.2018(2) 0.36993(19) 0.7500
C18 C 0.29721(19) 0.63551(19) 0.2500
C19 C 0.14223(15) 0.39628(14) 0.4764(3)
H5 H 0.1576 0.4062 0.4325
C20 C 0.32902(19) 0.6319(2) 0.2500
H6 H 0.3258 0.6075 0.2500
C21 C 0.15741(16) 0.39289(15) 0.5442(3)
H7 H 0.1835 0.4019 0.5471
C22 C 0.2864(3) 0.3679(3) 0.6866(7)
H8 H 0.2963 0.3656 0.6393
C23 C 0.2532(2) 0.3679(2) 0.6874(6)
H9 H 0.2414 0.3663 0.6399
O9 O -0.0299(4) 0.4236(4) 0.5035(8)
O10 O 0.0534(4) 0.5456(4) 0.3919(7)
C24 C 0.18705(17) 0.53875(18) 0.2500
C25 C 0.2602(2) 0.6018(2) 0.2500
C26 C 0.2302(3) 0.6050(3) 0.2500
C27 C 0.1934(3) 0.5742(3) 0.2500
C28 C 0.2172(3) 0.5371(2) 0.2829(5)
C29 C 0.2526(3) 0.5690(3) 0.2842(5)
Zn1 Zn 0.028507(10) 0.400508(10) 0.33967(2)
Zn2 Zn 0.104219(15) 0.424425(15) 0.2500
Zn3 Zn 0.069387(15) 0.477271(15) 0.2500
O1_2 O 0.05775(8) 0.42573(8) 1.2500
O1_3 O 0.05775(8) 0.42573(8) -0.7500
O1B O 0.36798(11) 0.94225(8) 0.2500
O1A O 0.57427(8) 0.63202(11) 0.2500
O1D O 0.42573(8) 0.36798(11) 0.7500
O2I O 0.10913(8) 0.40208(8) 1.15685(16)
O2I_2 O 0.10913(8) 0.40208(8) 0.15685(16)
O2_2 O 0.10913(8) 0.40208(8) -0.65685(16)
O2H O -0.29295(11) 0.10913(8) 0.65685(16)
O2E O -0.29295(11) 0.10913(8) -0.15685(16)
O2_3 O 0.10913(8) 0.40208(8) 1.34315(16)
O2I_3 O 0.10913(8) 0.40208(8) -0.84315(16)
O3F O -0.04813(8) 0.51198(8) 0.66169(16)
O3I O 0.04813(8) 0.48802(8) 0.16169(16)
O3C O -0.04813(8) 0.51198(8) -0.16169(16)
O3B O 0.43989(11) 0.95187(8) 0.33831(16)
O3H O 0.56011(11) 1.04813(8) 0.66169(16)
O3K O 0.43989(11) 0.95187(8) 0.16169(16)
O3A O 0.51198(8) 0.56011(11) 0.33831(16)
O3J O 0.51198(8) 0.56011(11) 0.16169(16)
O4I O 0.05659(7) 0.38619(7) 1.09302(16)
O4I_2 O 0.05659(7) 0.38619(7) 0.09302(16)
O4_2 O 0.05659(7) 0.38619(7) -0.59302(16)
O4H O -0.32960(10) 0.05659(7) 0.59302(16)
O4E O -0.32960(10) 0.05659(7) -0.09302(16)
O4G O 0.38619(7) 0.32960(10) 0.59302(16)
O4D O 0.38619(7) 0.32960(10) 0.90698(16)
O5B O 0.38921(16) 0.87737(11) 0.2500
O5A O 0.48816(11) 0.61079(16) 0.2500
O6B O 0.32836(17) 0.85351(12) 0.2500
O6A O 0.52515(12) 0.67164(17) 0.2500
O6_2 O 0.14649(12) 0.47485(12) 1.2500
O6_3 O 0.14649(12) 0.47485(12) -0.7500
O7F O -0.01627(7) 0.56698(8) 0.60229(16)
O7I O 0.01627(7) 0.43302(8) 0.10229(16)
O7C O -0.01627(7) 0.56698(8) -0.10229(16)
O7B O 0.41675(11) 0.98373(7) 0.39771(16)
O7H O 0.58325(11) 1.01627(7) 0.60229(16)
O7I_2 O 0.01627(7) 0.43302(8) 1.10229(16)
O7_2 O 0.01627(7) 0.43302(8) -0.60229(16)
O7G O 0.43302(8) 0.41675(11) 0.60229(16)
O7D O 0.43302(8) 0.41675(11) 0.89771(16)
O8I O 0.35603(7) 0.37297(7) 0.81382(16)
O8I_2 O 0.35603(7) 0.37297(7) -0.18618(16)
O8_2 O 0.35603(7) 0.37297(7) -0.31382(16)
O8H O -0.01694(10) 0.35603(7) 0.31382(16)
O8E O -0.01694(10) 0.35603(7) 0.18618(16)
O8E_2 O -0.01694(10) 0.35603(7) 1.18618(16)
O8H_2 O -0.01694(10) 0.35603(7) -0.68618(16)
C1_2 C 0.34112(15) 0.37208(15) -0.2500
C1E C -0.03096(21) 0.34112(15) 0.2500
C2_2 C 0.30489(16) 0.37105(16) -0.2500
C2E C -0.06616(23) 0.30489(16) 0.2500
C3B C 0.35710(21) 0.85031(15) 0.2500
C3A C 0.49321(15) 0.64290(21) 0.2500
C4I C 0.08936(11) 0.39191(11) 1.0973(2)
C4I_2 C 0.08936(11) 0.39191(11) 0.0973(2)
C4_2 C 0.08936(11) 0.39191(11) -0.5973(2)
C4H C -0.30255(16) 0.08936(11) 0.5973(2)
C4E C -0.30255(16) 0.08936(11) -0.0973(2)
C5F C -0.02728(11) 0.53269(11) 0.6114(2)
C5I C 0.02728(11) 0.46731(11) 0.1114(2)
C5C C -0.02728(11) 0.53269(11) -0.1114(2)
C5B C 0.44003(16) 0.97272(11) 0.3886(2)
C5H C 0.55997(16) 1.02728(11) 0.6114(2)
C6F C -0.01312(11) 0.51565(11) 0.5532(2)
C6I C 0.01312(11) 0.48435(11) 0.0532(2)
C6C C -0.01312(11) 0.51565(11) -0.0532(2)
C6B C 0.47123(16) 0.98688(11) 0.4468(2)
C6H C 0.52877(16) 1.01312(11) 0.5532(2)
C7I C 0.10508(12) 0.38536(12) 1.0275(3)
C7I_2 C 0.10508(12) 0.38536(12) 0.0275(3)
C7_2 C 0.10508(12) 0.38536(12) -0.5275(3)
C7H C -0.28028(17) 0.10508(12) 0.5275(3)
C7E C -0.28028(17) 0.10508(12) -0.0275(3)
C8F C 0.01381(13) 0.53901(13) 0.5007(3)
C8I C -0.01381(13) 0.46099(13) 0.0007(3)
C8C C 0.01381(13) 0.53901(13) -0.0007(3)
C8B C 0.47480(18) 1.01381(13) 0.4993(3)
C8H C 0.52520(18) 0.98619(13) 0.5007(3)
C9_2 C 0.13506(19) 0.37440(18) -0.2500
C9E C -0.23934(26) 0.13506(19) 0.2500
H1_2 H 0.1127 0.3756 -0.2500
H1E H -0.2629 0.1127 0.2500
C10I C 0.15197(15) 0.37348(14) 0.8193(3)
C10I_2 C 0.15197(15) 0.37348(14) -0.1807(3)
C10_2 C 0.15197(15) 0.37348(14) -0.3193(3)
C10H C -0.22151(21) 0.15197(15) 0.3193(3)
C10E C -0.22151(21) 0.15197(15) 0.1807(3)
C11I C 0.09795(15) 0.36349(15) 0.8981(3)
C11I_2 C 0.09795(15) 0.36349(15) -0.1019(3)
C11_2 C 0.09795(15) 0.36349(15) -0.3981(3)
C11H C -0.26554(21) 0.09795(15) 0.3981(3)
C11E C -0.26554(21) 0.09795(15) 0.1019(3)
H2I H 0.0820 0.3511 0.8560
H2I_2 H 0.0820 0.3511 -0.1440
H2_2 H 0.0820 0.3511 -0.3560
H2H H -0.2691 0.0820 0.3560
H2E H -0.2691 0.0820 0.1440
C12F C -0.02610(13) 0.47856(13) 0.5544(3)
C12I C 0.02610(13) 0.52144(13) 0.0544(3)
C12C C -0.02610(13) 0.47856(13) -0.0544(3)
C12B C 0.49534(18) 0.97390(13) 0.4456(3)
C12H C 0.50466(18) 1.02610(13) 0.5544(3)
C13I C 0.13520(14) 0.37656(13) 0.8917(3)
C13I_2 C 0.13520(14) 0.37656(13) -0.1083(3)
C13_2 C 0.13520(14) 0.37656(13) -0.3917(3)
C13H C -0.24136(19) 0.13520(14) 0.3917(3)
C13E C -0.24136(19) 0.13520(14) 0.1083(3)
C14I C 0.08244(16) 0.36816(14) 0.9675(3)
C14I_2 C 0.08244(16) 0.36816(14) -0.0325(3)
C14_2 C 0.08244(16) 0.36816(14) -0.4675(3)
C14H C -0.28572(21) 0.08244(16) 0.4675(3)
C14E C -0.28572(21) 0.08244(16) 0.0325(3)
H3I H 0.0564 0.3592 0.9713
H3I_2 H 0.0564 0.3592 -0.0287
H3_2 H 0.0564 0.3592 -0.4713
H3H H -0.3028 0.0564 0.4713
H3E H -0.3028 0.0564 0.0287
C15I C 0.18442(13) 0.37117(13) 0.8187(3)
C15I_2 C 0.18442(13) 0.37117(13) -0.1813(3)
C15_2 C 0.18442(13) 0.37117(13) -0.3187(3)
C15H C -0.18675(18) 0.18442(13) 0.3187(3)
C15E C -0.18675(18) 0.18442(13) 0.1813(3)
H4I H 0.1953 0.3704 0.8660
H4I_2 H 0.1953 0.3704 -0.1340
H4_2 H 0.1953 0.3704 -0.3660
H4H H -0.1751 0.1953 0.3660
H4E H -0.1751 0.1953 0.1340
C16_2 C 0.23648(18) 0.36976(18) -0.2500
C16E C -0.13328(25) 0.23648(18) 0.2500
C17_2 C 0.2018(2) 0.36993(19) -0.2500
C17E C -0.16813(28) 0.2018(2) 0.2500
C18A C 0.36449(19) 0.66170(27) 0.2500
C18B C 0.33830(27) 0.70279(19) 0.2500
C19I C 0.14223(15) 0.39628(14) 1.0236(3)
C19I_2 C 0.14223(15) 0.39628(14) 0.0236(3)
C19_2 C 0.14223(15) 0.39628(14) -0.5236(3)
C19H C -0.25405(21) 0.14223(15) 0.5236(3)
C19E C -0.25405(21) 0.14223(15) -0.0236(3)
H5I H 0.1576 0.4062 1.0675
H5I_2 H 0.1576 0.4062 0.0675
H5_2 H 0.1576 0.4062 -0.5675
H5H H -0.2486 0.1576 0.5675
H5E H -0.2486 0.1576 -0.0675
C20A C 0.3681(2) 0.69712(28) 0.2500
C20B C 0.30288(28) 0.67098(19) 0.2500
H6B H 0.2817 0.6742 0.2500
H6A H 0.3925 0.7183 0.2500
C21I C 0.15741(16) 0.39289(15) 0.9558(3)
C21I_2 C 0.15741(16) 0.39289(15) -0.0442(3)
C21_2 C 0.15741(16) 0.39289(15) -0.4558(3)
C21H C -0.23548(22) 0.15741(16) 0.4558(3)
C21E C -0.23548(22) 0.15741(16) 0.0442(3)
H7I H 0.1835 0.4019 0.9529
H7I_2 H 0.1835 0.4019 -0.0471
H7_2 H 0.1835 0.4019 -0.4529
H7H H -0.2184 0.1835 0.4529
H7E H -0.2184 0.1835 0.0471
C22I C 0.2864(3) 0.3679(3) 0.8134(7)
C22I_2 C 0.2864(3) 0.3679(3) -0.1866(7)
C22_2 C 0.2864(3) 0.3679(3) -0.3134(7)
C22H C -0.0815(4) 0.2864(3) 0.3134(7)
C22E C -0.0815(4) 0.2864(3) 0.1866(7)
H8I H 0.2963 0.3656 0.8607
H8I_2 H 0.2963 0.3656 -0.1393
H8_2 H 0.2963 0.3656 -0.3607
H8H H -0.0693 0.2963 0.3607
H8E H -0.0693 0.2963 0.1393
C23I C 0.2532(2) 0.3679(2) 0.8126(6)
C23I_2 C 0.2532(2) 0.3679(2) -0.1874(6)
C23_2 C 0.2532(2) 0.3679(2) -0.3126(6)
C23H C -0.1147(3) 0.2532(2) 0.3126(6)
C23E C -0.1147(3) 0.2532(2) 0.1874(6)
H9I H 0.2414 0.3663 0.8601
H9I_2 H 0.2414 0.3663 -0.1399
H9_2 H 0.2414 0.3663 -0.3601
H9H H -0.1249 0.2414 0.3601
H9E H -0.1249 0.2414 0.1399
O9F O 0.0299(4) 0.5764(4) 0.4965(8)
O9I O -0.0299(4) 0.4236(4) -0.0035(8)
O9C O 0.0299(4) 0.5764(4) 0.0035(8)
O9B O 0.4535(6) 1.0299(4) 0.5035(8)
O9H O 0.5465(6) 0.9701(4) 0.4965(8)
O10F O -0.0534(4) 0.4544(4) 0.6081(7)
O10I O 0.0534(4) 0.5456(4) 0.1081(7)
O10C O -0.0534(4) 0.4544(4) -0.1081(7)
O10B O 0.4922(6) 0.9466(4) 0.3919(7)
O10H O 0.5078(6) 1.0534(4) 0.6081(7)
C24B C 0.35170(25) 0.81295(17) 0.2500
C24A C 0.46125(18) 0.64830(25) 0.2500
C25B C 0.3416(3) 0.7398(2) 0.2500
C25A C 0.3982(2) 0.6584(3) 0.2500
C26B C 0.3748(4) 0.7698(3) 0.2500
C26A C 0.3950(3) 0.6252(4) 0.2500
C27B C 0.3808(4) 0.8066(3) 0.2500
C27A C 0.4258(3) 0.6192(4) 0.2500
C28B C 0.3199(4) 0.7828(3) 0.2829(5)
C28K C 0.3199(4) 0.7828(3) 0.2171(5)
C28A C 0.4629(2) 0.6801(4) 0.2829(5)
C28J C 0.4629(2) 0.6801(4) 0.2171(5)
C28I C 0.2172(3) 0.5371(2) 0.2171(5)
C29K C 0.3164(4) 0.7474(3) 0.2158(5)
C29B C 0.3164(4) 0.7474(3) 0.2842(5)
C29A C 0.4310(3) 0.6836(4) 0.2842(5)
C29J C 0.4310(3) 0.6836(4) 0.2158(5)
C29I C 0.2526(3) 0.5690(3) 0.2158(5)
Zn1I Zn 0.028507(10) 0.400508(10) 0.16033(2)
Zn1I_2 Zn 0.028507(10) 0.400508(10) 1.16033(2)
Zn1_2 Zn 0.028507(10) 0.400508(10) -0.66033(2)
Zn1G Zn 0.400508(10) 0.372001(14) 0.66033(2)
Zn1D Zn 0.400508(10) 0.372001(14) 0.83967(2)
Zn1F Zn -0.028507(10) 0.599492(10) 0.66033(2)
Zn1D_2 Zn 0.400508(10) 0.372001(14) -0.16033(2)
Zn1G_2 Zn 0.400508(10) 0.372001(14) -0.33967(2)
Zn1H Zn -0.372001(14) 0.028507(10) 0.66033(2)
Zn1E Zn -0.372001(14) 0.028507(10) -0.16033(2)
Zn1C Zn -0.028507(10) 0.599492(10) -0.16033(2)
Zn1_3 Zn 0.028507(10) 0.400508(10) 1.33967(2)
Zn1I_3 Zn 0.028507(10) 0.400508(10) -0.83967(2)
Zn1B Zn 0.372001(14) 0.971493(10) 0.33967(2)
Zn1H_2 Zn 0.627999(14) 1.028507(10) 0.66033(2)
Zn2_2 Zn 0.104219(15) 0.424425(15) 1.2500
Zn2_3 Zn 0.104219(15) 0.424425(15) -0.7500
Zn2B Zn 0.320206(21) 0.895781(15) 0.2500
Zn2A Zn 0.575575(15) 0.679794(21) 0.2500
Zn2E Zn -0.320206(21) 0.104219(15) 0.7500
Zn2E_2 Zn -0.320206(21) 0.104219(15) -0.2500
Zn3B Zn 0.407884(21) 0.930613(15) 0.2500
Zn3A Zn 0.522729(15) 0.592116(21) 0.2500
Zn3C Zn -0.069387(15) 0.522729(15) 0.7500
Zn3C_2 Zn -0.069387(15) 0.522729(15) -0.2500
Zn3_2 Zn 0.069387(15) 0.477271(15) 1.2500
Zn3_3 Zn 0.069387(15) 0.477271(15) -0.7500
Zn3E Zn 0.592116(21) 1.069387(15) 0.7500
loop_
_geom_bond_atom_site_label_1
_geom_bond_atom_site_label_2
_geom_bond_site_symmetry_1
_geom_bond_site_symmetry_2
O1 Zn1 1_555 1_555
O2 C4 1_555 1_555
O3 C5 1_555 1_555
O4 C4 1_555 1_555
O5 C3 1_555 1_555
O6 C3 1_555 1_555
O7 C5 1_555 1_555
O8 C1 1_555 1_555
C1 C2 1_555 1_555
C2 C22 1_555 1_555
C3 C24 1_555 1_555
C4 C7 1_555 1_555
C5 C6 1_555 1_555
C6 C8 1_555 1_555
C7 C14 1_555 1_555
C8 O9 1_555 1_555
C9 H1 1_555 1_555
C10 C9 1_555 1_555
C11 H2 1_555 1_555
C12 C6 1_555 1_555
C13 C10 1_555 1_555
C14 C11 1_555 1_555
H3 C14 1_555 1_555
C15 C10 1_555 1_555
H4 C15 1_555 1_555
C16 C17 1_555 1_555
C17 C15 1_555 1_555
C18 C20 1_555 1_555
C19 C7 1_555 1_555
H5 C19 1_555 1_555
C20 H6 1_555 1_555
C21 C13 1_555 1_555
H7 C21 1_555 1_555
C22 H8 1_555 1_555
C23 C16 1_555 1_555
H9 C23 1_555 1_555
O10 C12 1_555 1_555
C24 C27 1_555 1_555
C25 C18 1_555 1_555
C26 C25 1_555 1_555
C27 C26 1_555 1_555
C28 C24 1_555 1_555
C29 C25 1_555 1_555
Zn1 O4 1_555 1_555
Zn2 O1 1_555 1_555
Zn3 O1 1_555 1_555
O1_2 Zn1I_2 1_555 1_555
O1_3 Zn1_2 1_555 1_555
O1B Zn1B 1_555 1_555
O1A Zn2A 1_555 1_555
O1D Zn1G 1_555 1_555
O2I C4I 1_555 1_555
O2I_2 Zn2 1_555 1_555
O2_2 C4_2 1_555 1_555
O2H C4H 1_555 1_555
O2E C4E 1_555 1_555
O2_3 Zn2_2 1_555 1_555
O2I_3 Zn2_3 1_555 1_555
O3F C5F 1_555 1_555
O3I Zn3 1_555 1_555
O3C C5C 1_555 1_555
O3B C5B 1_555 1_555
O3H C5H 1_555 1_555
O3K Zn3B 1_555 1_555
O3A Zn3A 1_555 1_555
O3J Zn3A 1_555 1_555
O4I C4I 1_555 1_555
O4I_2 C4I_2 1_555 1_555
O4_2 C4_2 1_555 1_555
O4H C4H 1_555 1_555
O4E C4E 1_555 1_555
O4G Zn1G 1_555 1_555
O4D Zn1D 1_555 1_555
O5B C3B 1_555 1_555
O5A C3A 1_555 1_555
O6B C3B 1_555 1_555
O6A C3A 1_555 1_555
O6_2 Zn2_2 1_555 1_555
O6_3 Zn2_3 1_555 1_555
O7F C5F 1_555 1_555
O7I C5I 1_555 1_555
O7C C5C 1_555 1_555
O7B C5B 1_555 1_555
O7H C5H 1_555 1_555
O7I_2 Zn1I_2 1_555 1_555
O7_2 Zn1_2 1_555 1_555
O7G Zn1G 1_555 1_555
O7D Zn1D 1_555 1_555
O8I C1 1_555 1_555
O8I_2 C1_2 1_555 1_555
O8_2 C1_2 1_555 1_555
O8H Zn1 1_555 1_555
O8E C1E 1_555 1_555
O8E_2 Zn1I_2 1_555 1_555
O8H_2 Zn1_2 1_555 1_555
C1_2 C2_2 1_555 1_555
C1E O8H 1_555 1_555
C2_2 C22I_2 1_555 1_555
C2E C1E 1_555 1_555
C3B C24B 1_555 1_555
C3A C24A 1_555 1_555
C4I C7I 1_555 1_555
C4I_2 O2I_2 1_555 1_555
C4_2 C7_2 1_555 1_555
C4H C7H 1_555 1_555
C4E C7E 1_555 1_555
C5F C6F 1_555 1_555
C5I O3I 1_555 1_555
C5C C6C 1_555 1_555
C5B C6B 1_555 1_555
C5H C6H 1_555 1_555
C6F C8F 1_555 1_555
C6I C5I 1_555 1_555
C6C C8C 1_555 1_555
C6B C8B 1_555 1_555
C6H C8H 1_555 1_555
C7I C14I 1_555 1_555
C7I_2 C4I_2 1_555 1_555
C7_2 C14_2 1_555 1_555
C7H C14H 1_555 1_555
C7E C14E 1_555 1_555
C8F C12 1_555 1_555
C8I C6I 1_555 1_555
C8C C12I 1_555 1_555
C8B C12H 1_555 1_555
C8H C12B 1_555 1_555
C9_2 H1_2 1_555 1_555
C9E H1E 1_555 1_555
C10I C9 1_555 1_555
C10I_2 C9_2 1_555 1_555
C10_2 C9_2 1_555 1_555
C10H C9E 1_555 1_555
C10E C9E 1_555 1_555
C11I H2I 1_555 1_555
C11I_2 H2I_2 1_555 1_555
C11_2 H2_2 1_555 1_555
C11H H2H 1_555 1_555
C11E H2E 1_555 1_555
C12F C8 1_555 1_555
C12I C6I 1_555 1_555
C12C C6C 1_555 1_555
C12B C6B 1_555 1_555
C12H C6H 1_555 1_555
C13I C10I 1_555 1_555
C13I_2 C10I_2 1_555 1_555
C13_2 C10_2 1_555 1_555
C13H C10H 1_555 1_555
C13E C10E 1_555 1_555
C14I C11I 1_555 1_555
C14I_2 C7I_2 1_555 1_555
C14_2 C11_2 1_555 1_555
C14H C11H 1_555 1_555
C14E C11E 1_555 1_555
H3I C14I 1_555 1_555
H3I_2 C14I_2 1_555 1_555
H3_2 C14_2 1_555 1_555
H3H C14H 1_555 1_555
H3E C14E 1_555 1_555
C15I C17 1_555 1_555
C15I_2 C10I_2 1_555 1_555
C15_2 C10_2 1_555 1_555
C15H C10H 1_555 1_555
C15E C10E 1_555 1_555
H4I C15I 1_555 1_555
H4I_2 C15I_2 1_555 1_555
H4_2 C15_2 1_555 1_555
H4H C15H 1_555 1_555
H4E C15E 1_555 1_555
C16_2 C17_2 1_555 1_555
C16E C17E 1_555 1_555
C17_2 C15I_2 1_555 1_555
C17E C15H 1_555 1_555
C18A C20 1_555 1_555
C18B C20A 1_555 1_555
C19I C7I 1_555 1_555
C19I_2 C7I_2 1_555 1_555
C19_2 C7_2 1_555 1_555
C19H C7H 1_555 1_555
C19E C7E 1_555 1_555
H5I C19I 1_555 1_555
H5I_2 C19I_2 1_555 1_555
H5_2 C19_2 1_555 1_555
H5H C19H 1_555 1_555
H5E C19E 1_555 1_555
C20A C18A 1_555 1_555
C20B C18 1_555 1_555
H6B C20B 1_555 1_555
H6A C20A 1_555 1_555
C21I C13I 1_555 1_555
C21I_2 C13I_2 1_555 1_555
C21_2 C13_2 1_555 1_555
C21H C13H 1_555 1_555
C21E C13E 1_555 1_555
H7I C21I 1_555 1_555
H7I_2 C21I_2 1_555 1_555
H7_2 C21_2 1_555 1_555
H7H C21H 1_555 1_555
H7E C21E 1_555 1_555
C22I C2 1_555 1_555
C22I_2 H8I_2 1_555 1_555
C22_2 C2_2 1_555 1_555
C22H C2E 1_555 1_555
C22E C2E 1_555 1_555
H8I C22I 1_555 1_555
H8_2 C22_2 1_555 1_555
H8H C22H 1_555 1_555
H8E C22E 1_555 1_555
C23I C16 1_555 1_555
C23I_2 C16_2 1_555 1_555
C23_2 C16_2 1_555 1_555
C23H C16E 1_555 1_555
C23E C16E 1_555 1_555
H9I C23I 1_555 1_555
H9I_2 C23I_2 1_555 1_555
H9_2 C23_2 1_555 1_555
H9H C23H 1_555 1_555
H9E C23E 1_555 1_555
O9F C8F 1_555 1_555
O9I C8I 1_555 1_555
O9C C8C 1_555 1_555
O9B C8B 1_555 1_555
O9H C8H 1_555 1_555
O10F C12F 1_555 1_555
O10I C12I 1_555 1_555
O10C C12C 1_555 1_555
O10B C12B 1_555 1_555
O10H C12H 1_555 1_555
C24B C27B 1_555 1_555
C24A C27A 1_555 1_555
C25B C18B 1_555 1_555
C25A C18A 1_555 1_555
C26B C25B 1_555 1_555
C26A C25A 1_555 1_555
C27B C26B 1_555 1_555
C27A C26A 1_555 1_555
C28B C24B 1_555 1_555
C28K C24B 1_555 1_555
C28A C24A 1_555 1_555
C28J C24A 1_555 1_555
C28I C24 1_555 1_555
C29K C25B 1_555 1_555
C29B C25B 1_555 1_555
C29A C25A 1_555 1_555
C29J C25A 1_555 1_555
C29I C25 1_555 1_555
Zn1I O1 1_555 1_555
Zn1I_2 O4I 1_555 1_555
Zn1_2 O4_2 1_555 1_555
Zn1G O8 1_555 1_555
Zn1D O1D 1_555 1_555
Zn1F O7F 1_555 1_555
Zn1D_2 O8I_2 1_555 1_555
Zn1G_2 O8_2 1_555 1_555
Zn1H O4H 1_555 1_555
Zn1E O4E 1_555 1_555
Zn1C O7C 1_555 1_555
Zn1_3 O1_2 1_555 1_555
Zn1I_3 O1_3 1_555 1_555
Zn1B O7B 1_555 1_555
Zn1H_2 O7H 1_555 1_555
Zn2_2 O1_2 1_555 1_555
Zn2_3 O1_3 1_555 1_555
Zn2B O1B 1_555 1_555
Zn2A O6A 1_555 1_555
Zn2E O2H 1_555 1_555
Zn2E_2 O2E 1_555 1_555
Zn3B O1B 1_555 1_555
Zn3A O1A 1_555 1_555
Zn3C O3F 1_555 1_555
Zn3C_2 O3C 1_555 1_555
Zn3_2 O1_2 1_555 1_555
Zn3_3 O1_3 1_555 1_555
Zn3E O3H 1_555 1_555
O2 Zn2 1_555 1_555
O3 Zn3 1_555 1_555
O5 Zn3 1_555 1_555
O6 Zn2 1_555 1_555
O7 Zn1 1_555 1_555
C11 C13 1_555 1_555
C19 C21 1_555 1_555
C22 C23 1_555 1_555
C28 C29 1_555 1_555
C28 C28I 1_555 1_555
C29 C29I 1_555 1_555
O2I Zn2_2 1_555 1_555
O2_2 Zn2_3 1_555 1_555
O3B Zn3B 1_555 1_555
O4I_2 Zn1I 1_555 1_555
O5B Zn3B 1_555 1_555
O5A Zn3A 1_555 1_555
O6B Zn2B 1_555 1_555
O7I Zn1I 1_555 1_555
O8I Zn1D 1_555 1_555
O8E Zn1I 1_555 1_555
C6F C12F 1_555 1_555
C8I C12C 1_555 1_555
C10I C15I 1_555 1_555
C11I C13I 1_555 1_555
C11I_2 C13I_2 1_555 1_555
C11I_2 C14I_2 1_555 1_555
C11_2 C13_2 1_555 1_555
C11H C13H 1_555 1_555
C11E C13E 1_555 1_555
C15_2 C17_2 1_555 1_555
C15E C17E 1_555 1_555
C18B C20B 1_555 1_555
C19I C21I 1_555 1_555
C19I_2 C21I_2 1_555 1_555
C19_2 C21_2 1_555 1_555
C19H C21H 1_555 1_555
C19E C21E 1_555 1_555
C22I C23I 1_555 1_555
C22I_2 C23I_2 1_555 1_555
C22_2 C23_2 1_555 1_555
C22H C23H 1_555 1_555
C22E C23E 1_555 1_555
C28B C28K 1_555 1_555
C28B C29B 1_555 1_555
C28K C29K 1_555 1_555
C28A C28J 1_555 1_555
C28A C29A 1_555 1_555
C28J C29J 1_555 1_555
C28I C29I 1_555 1_555
C29K C29B 1_555 1_555
C29A C29J 1_555 1_555

#END
