
#######################################################################
#
#                 Cambridge Crystallographic Data Centre
#                                CCDC 
#
#######################################################################
#
# If this CIF has been generated from an entry in the Cambridge 
# Structural Database, then it will include bibliographic, chemical, 
# crystal, experimental, refinement or atomic coordinate data resulting 
# from the CCDC's data processing and validation procedures.
#
#######################################################################

data_FOBNAN
_chemical_formula_moiety         '(C75 H60 Dy2 N2 O22)n'
_symmetry_cell_setting           monoclinic
_symmetry_space_group_name_H-M   'C 2/c'
_symmetry_Int_Tables_number      15
_space_group_name_Hall           '-C 2yc'
loop_
_symmetry_equiv_pos_site_id
_symmetry_equiv_pos_as_xyz
1 x,y,z
2 -x,y,1/2-z
3 1/2+x,1/2+y,z
4 1/2-x,1/2+y,1/2-z
5 -x,-y,-z
6 x,-y,1/2+z
7 1/2-x,1/2-y,-z
8 1/2+x,1/2-y,1/2+z
_cell_length_a                   31.28(3)
_cell_length_b                   14.735(13)
_cell_length_c                   28.51(5)
_cell_angle_alpha                90
_cell_angle_beta                 120.13(5)
_cell_angle_gamma                90
_cell_volume                     11365.1
loop_
_atom_site_label
_atom_site_type_symbol
_atom_site_fract_x
_atom_site_fract_y
_atom_site_fract_z
_atom_site_U_iso_or_equiv
_atom_site_thermal_displace_type
Dy1 Dy 0.231937(14) 0.88217(3) 0.512459(14) 0.0251 Uani
C1 C 0.1912(3) 1.0287(7) 0.1278(4) 0.0308 Uani
C2 C 0.2266(3) 1.0398(7) 0.1844(4) 0.0341 Uani
C3 C 0.1680(4) 0.9816(7) 0.2077(4) 0.0379 Uani
C4 C 0.1456(4) 0.9959(7) 0.1130(4) 0.0391 Uani
H1 H 0.1228 0.9880 0.0763 0.0470 Uiso
C5 C 0.2161(4) 1.0120(7) 0.2238(4) 0.0347 Uani
C6 C 0.1318(4) 0.9739(8) 0.1513(4) 0.0419 Uani
C7 C 0.1522(5) 0.9596(9) 0.2458(5) 0.0523 Uani
H2 H 0.1742 0.9656 0.2828 0.0630 Uiso
C8 C 0.1050(5) 0.9299(11) 0.2279(6) 0.0682 Uani
H3 H 0.0959 0.9143 0.2533 0.0830 Uiso
C9 C 0.0703(5) 0.9223(12) 0.1732(6) 0.0735 Uani
H4 H 0.0384 0.9024 0.1623 0.0880 Uiso
O1 O 0.2709(3) 1.0769(6) 0.1996(3) 0.0447 Uani
H5 H 0.2696 1.1041 0.1738 0.0670 Uiso
C10 C 0.0825(3) 0.7926(6) 0.3297(3) 0.0290 Uani
C11 C -0.0000 0.8283(10) 0.2500 0.0367 Uani
H6 H -0.0001 0.8673 0.2774 0.0440 Uiso
C12 C 0.1647(3) 0.7623(7) 0.4141(3) 0.0294 Uani
C13 C 0.0567(3) 0.7068(8) 0.2481(4) 0.0369 Uani
C14 C 0.0474(3) 0.7736(7) 0.2763(3) 0.0288 Uani
C15 C 0.1264(3) 0.7400(6) 0.3571(3) 0.0279 Uani
C16 C 0.1339(3) 0.6705(8) 0.3316(4) 0.0440 Uani
H7 H 0.1616 0.6338 0.3505 0.0530 Uiso
C17 C 0.0998(4) 0.6523(9) 0.2760(4) 0.0492 Uani
C18 C 0.0254(4) 0.6902(10) 0.1919(4) 0.0535 Uani
H8 H -0.0026 0.7258 0.1723 0.0650 Uiso
C19 C 0.0355(5) 0.6234(13) 0.1661(5) 0.0833 Uani
H9 H 0.0148 0.6148 0.1291 0.1000 Uiso
C20 C 0.0776(5) 0.5660(16) 0.1954(7) 0.1126 Uani
H10 H 0.0834 0.5185 0.1779 0.1370 Uiso
O2 O 0.0733(3) 0.8607(6) 0.3549(3) 0.0506 Uani
H11 H 0.0996 0.8821 0.3786 0.0760 Uiso
C21 C 0.3030(4) 0.8711(7) 0.3019(4) 0.0368 Uani
C22 C 0.3143(5) 0.8864(9) 0.2602(4) 0.0493 Uani
H12 H 0.3040 0.9396 0.2399 0.0590 Uiso
C23 C 0.3562(6) 0.7435(10) 0.2778(6) 0.0673 Uani
H13 H 0.3730 0.7008 0.2690 0.0810 Uiso
C24 C 0.3206(4) 0.7896(8) 0.3316(4) 0.0391 Uani
C25 C 0.3473(5) 0.7270(9) 0.3189(5) 0.0570 Uani
H14 H 0.3589 0.6737 0.3389 0.0690 Uiso
C26 C 0.3409(5) 0.8216(10) 0.2497(5) 0.0647 Uani
H15 H 0.3483 0.8327 0.2224 0.0780 Uiso
C27 C 0.2882(3) 0.8347(7) 0.3893(3) 0.0298 Uani
C28 C 0.2698(4) 0.9155(7) 0.3587(3) 0.0320 Uani
C29 C 0.2753(4) 0.9334(7) 0.3141(4) 0.0332 Uani
C30 C 0.3127(4) 0.7737(7) 0.3754(4) 0.0348 Uani
H16 H 0.3245 0.7204 0.3953 0.0420 Uiso
O3 O 0.1591(2) 0.8350(5) 0.4341(2) 0.0347 Uani
O4 O 0.2453(3) 0.9775(5) 0.3718(3) 0.0398 Uani
H17 H 0.2384 0.9551 0.3935 0.0600 Uiso
C31 C 0.2549(4) 1.0217(7) 0.2826(3) 0.0350 Uani
H18 H 0.2411 1.0571 0.3005 0.0420 Uiso
H19 H 0.2823 1.0561 0.2847 0.0420 Uiso
C32 C 0.2811(3) 0.8140(6) 0.4361(3) 0.0284 Uani
C33 C 0.2053(3) 1.0507(6) 0.0866(3) 0.0302 Uani
O5 O 0.2488(2) 1.0782(6) 0.1017(3) 0.0413 Uani
O6 O 0.1738(3) 1.0464(5) 0.0365(3) 0.0411 Uani
O7 O 0.2594(2) 0.8717(5) 0.4491(2) 0.0321 Uani
O8 O 0.2964(3) 0.9894(6) 0.5462(3) 0.0583 Uani
O9 O 0.2969(2) 0.7393(5) 0.4594(2) 0.0318 Uani
O10 O 0.2008(2) 0.7113(5) 0.4388(2) 0.0371 Uani
C34 C 0.0831(5) 0.9441(10) 0.1361(5) 0.0658 Uani
H20 H 0.0596 0.9397 0.0994 0.0790 Uiso
C35 C 0.1940(9) 1.0859(15) 0.4664(10) 0.1258 Uani
H21 H 0.1956 1.0938 0.4997 0.1490 Uiso
C36 C 0.1800(18) 1.150(3) 0.3833(14) 0.3034 Uani
H22 H 0.1704 1.0889 0.3706 0.4560 Uiso
H23 H 0.2108 1.1637 0.3852 0.4560 Uiso
H24 H 0.1550 1.1912 0.3587 0.4560 Uiso
N1 N 0.1856(13) 1.1592(16) 0.4369(12) 0.2024 Uani
O11 O 0.1997(3) 1.0118(5) 0.4558(3) 0.0533 Uani
C37 C 0.1085(5) 0.5810(13) 0.2479(6) 0.0879 Uani
H25 H 0.1362 0.5443 0.2667 0.1050 Uiso
C38 C 0.1786(19) 1.2515(18) 0.466(2) 0.3550 Uani
H26 H 0.1985 1.2461 0.5045 0.5350 Uiso
H27 H 0.1445 1.2579 0.4556 0.5350 Uiso
H28 H 0.1889 1.3038 0.4540 0.5350 Uiso
C10A C -0.0825(3) 0.7926(6) 0.1703(3) 0.0290 Uani
H6A H 0.0001 0.8673 0.2226 0.0440 Uiso
C12A C -0.1647(3) 0.7623(7) 0.0859(3) 0.0294 Uani
C13A C -0.0567(3) 0.7068(8) 0.2519(4) 0.0369 Uani
C14A C -0.0474(3) 0.7736(7) 0.2237(3) 0.0288 Uani
C15A C -0.1264(3) 0.7400(6) 0.1429(3) 0.0279 Uani
C16A C -0.1339(3) 0.6705(8) 0.1684(4) 0.0440 Uani
H7A H -0.1616 0.6338 0.1495 0.0530 Uiso
C17A C -0.0998(4) 0.6523(9) 0.2240(4) 0.0492 Uani
C18A C -0.0254(4) 0.6902(10) 0.3081(4) 0.0535 Uani
H8A H 0.0026 0.7258 0.3277 0.0650 Uiso
C19A C -0.0355(5) 0.6234(13) 0.3339(5) 0.0833 Uani
H9A H -0.0148 0.6148 0.3709 0.1000 Uiso
C20A C -0.0776(5) 0.5660(16) 0.3046(7) 0.1126 Uani
H10A H -0.0834 0.5185 0.3221 0.1370 Uiso
O2A O -0.0733(3) 0.8607(6) 0.1451(3) 0.0506 Uani
H11A H -0.0996 0.8821 0.1214 0.0760 Uiso
O3A O -0.1591(2) 0.8350(5) 0.0659(2) 0.0347 Uani
O10A O -0.2008(2) 0.7113(5) 0.0612(2) 0.0371 Uani
C37A C -0.1085(5) 0.5810(13) 0.2521(6) 0.0879 Uani
H25A H -0.1362 0.5443 0.2333 0.1050 Uiso
Dy1A Dy -0.231937(14) 0.88217(3) -0.012459(14) 0.0251 Uani
C1A C -0.1912(3) 1.0287(7) 0.3722(4) 0.0308 Uani
C2A C -0.2266(3) 1.0398(7) 0.3156(4) 0.0341 Uani
C3A C -0.1680(4) 0.9816(7) 0.2923(4) 0.0379 Uani
C4A C -0.1456(4) 0.9959(7) 0.3870(4) 0.0391 Uani
H1A H -0.1228 0.9880 0.4237 0.0470 Uiso
C5A C -0.2161(4) 1.0120(7) 0.2762(4) 0.0347 Uani
C6A C -0.1318(4) 0.9739(8) 0.3487(4) 0.0419 Uani
C7A C -0.1522(5) 0.9596(9) 0.2542(5) 0.0523 Uani
H2A H -0.1742 0.9656 0.2172 0.0630 Uiso
C8A C -0.1050(5) 0.9299(11) 0.2721(6) 0.0682 Uani
H3A H -0.0959 0.9143 0.2467 0.0830 Uiso
C9A C -0.0703(5) 0.9223(12) 0.3268(6) 0.0735 Uani
H4A H -0.0384 0.9024 0.3377 0.0880 Uiso
O1A O -0.2709(3) 1.0769(6) 0.3004(3) 0.0447 Uani
H5A H -0.2696 1.1041 0.3262 0.0670 Uiso
C21A C -0.3030(4) 0.8711(7) 0.1981(4) 0.0368 Uani
C22A C -0.3143(5) 0.8864(9) 0.2398(4) 0.0493 Uani
H12A H -0.3040 0.9396 0.2601 0.0590 Uiso
C23A C -0.3562(6) 0.7435(10) 0.2222(6) 0.0673 Uani
H13A H -0.3730 0.7008 0.2310 0.0810 Uiso
C24A C -0.3206(4) 0.7896(8) 0.1684(4) 0.0391 Uani
C25A C -0.3473(5) 0.7270(9) 0.1811(5) 0.0570 Uani
H14A H -0.3589 0.6737 0.1611 0.0690 Uiso
C26A C -0.3409(5) 0.8216(10) 0.2503(5) 0.0647 Uani
H15A H -0.3483 0.8327 0.2776 0.0780 Uiso
C27A C -0.2882(3) 0.8347(7) 0.1107(3) 0.0298 Uani
C28A C -0.2698(4) 0.9155(7) 0.1413(3) 0.0320 Uani
C29A C -0.2753(4) 0.9334(7) 0.1859(4) 0.0332 Uani
C30A C -0.3127(4) 0.7737(7) 0.1246(4) 0.0348 Uani
H16A H -0.3245 0.7204 0.1047 0.0420 Uiso
O4A O -0.2453(3) 0.9775(5) 0.1282(3) 0.0398 Uani
H17A H -0.2384 0.9551 0.1065 0.0600 Uiso
C31A C -0.2549(4) 1.0217(7) 0.2174(3) 0.0350 Uani
H18A H -0.2411 1.0571 0.1995 0.0420 Uiso
H19A H -0.2823 1.0561 0.2153 0.0420 Uiso
C32A C -0.2811(3) 0.8140(6) 0.0639(3) 0.0284 Uani
C33A C -0.2053(3) 1.0507(6) 0.4134(3) 0.0302 Uani
O5A O -0.2488(2) 1.0782(6) 0.3983(3) 0.0413 Uani
O6A O -0.1738(3) 1.0464(5) 0.4635(3) 0.0411 Uani
O7A O -0.2594(2) 0.8717(5) 0.0509(2) 0.0321 Uani
O8A O -0.2964(3) 0.9894(6) -0.0462(3) 0.0583 Uani
O9A O -0.2969(2) 0.7393(5) 0.0406(2) 0.0318 Uani
C34A C -0.0831(5) 0.9441(10) 0.3639(5) 0.0658 Uani
H20A H -0.0596 0.9397 0.4006 0.0790 Uiso
C35A C -0.1940(9) 1.0859(15) 0.0336(10) 0.1258 Uani
H21A H -0.1956 1.0938 0.0003 0.1490 Uiso
C36A C -0.1800(18) 1.150(3) 0.1167(14) 0.3034 Uani
H22A H -0.1704 1.0889 0.1294 0.4560 Uiso
H23A H -0.2108 1.1637 0.1148 0.4560 Uiso
H24A H -0.1550 1.1912 0.1413 0.4560 Uiso
N1A N -0.1856(13) 1.1592(16) 0.0631(12) 0.2024 Uani
O11A O -0.1997(3) 1.0118(5) 0.0442(3) 0.0533 Uani
C38A C -0.1786(19) 1.2515(18) 0.034(2) 0.3550 Uani
H26A H -0.1985 1.2461 -0.0045 0.5350 Uiso
H27A H -0.1445 1.2579 0.0444 0.5350 Uiso
H28A H -0.1889 1.3038 0.0460 0.5350 Uiso
Dy1D Dy -0.231937(14) 1.11783(3) 0.487541(14) 0.0251 Uani
Dy1E Dy 0.231937(14) 1.11783(3) 0.012459(14) 0.0251 Uani
Dy1F Dy 0.268063(14) 0.61783(3) 0.487541(14) 0.0251 Uani
Dy1G Dy -0.268063(14) 0.61783(3) 0.012459(14) 0.0251 Uani
O5D O -0.2488(2) 0.9218(6) -0.1017(3) 0.0413 Uani
O5E O 0.2488(2) 0.9218(6) 0.6017(3) 0.0413 Uani
O6D O -0.1738(3) 0.9536(5) -0.0365(3) 0.0411 Uani
O6E O 0.1738(3) 0.9536(5) 0.5365(3) 0.0411 Uani
O9F O 0.2031(2) 0.7607(5) 0.5406(2) 0.0318 Uani
O9G O -0.2031(2) 0.7607(5) -0.0406(2) 0.0318 Uani
O10F O 0.2992(2) 0.7887(5) 0.5612(2) 0.0371 Uani
O10G O -0.2992(2) 0.7887(5) -0.0612(2) 0.0371 Uani
loop_
_atom_site_aniso_label
_atom_site_aniso_U_11
_atom_site_aniso_U_22
_atom_site_aniso_U_33
_atom_site_aniso_U_23
_atom_site_aniso_U_13
_atom_site_aniso_U_12
Dy1 0.0257(2) 0.0369(2) 0.01240(18) 0.00098(16) 0.00939(15) 0.00339(18)
C1 0.035 0.035 0.026 0.007 0.018 -0.003
C2 0.036 0.045 0.026 0.004 0.019 -0.007
C3 0.046 0.043 0.033 0.011 0.026 -0.002
C4 0.039 0.048 0.026 0.002 0.013 -0.012
C5 0.041 0.044 0.025 0.008 0.021 0
C6 0.04 0.055 0.036 0.006 0.023 -0.012
C7 0.058 0.069 0.045 0.016 0.037 -0.002
C8 0.059 0.102 0.065 0.027 0.047 -0.005
C9 0.051 0.119 0.056 0.014 0.031 -0.029
O1 0.043 0.07 0.022 0.01 0.017 -0.015
C10 0.024(4) 0.035(5) 0.020(4) 0.001(3) 0.005(3) 0.000(4)
C11 0.031(6) 0.042(8) 0.021(6) 0.000 0.001(5) 0.000
C12 0.020(4) 0.044(6) 0.022(4) 0.003(4) 0.009(3) 0.001(4)
C13 0.025(4) 0.060(7) 0.022(4) -0.007(4) 0.009(4) -0.005(4)
C14 0.021(4) 0.037(5) 0.021(4) 0.002(4) 0.005(3) -0.004(4)
C15 0.021(4) 0.037(5) 0.021(4) 0.003(4) 0.007(3) 0.001(3)
C16 0.022(4) 0.056(7) 0.045(6) -0.008(5) 0.010(4) 0.007(4)
C17 0.029(5) 0.070(8) 0.043(6) -0.020(6) 0.014(4) 0.001(5)
C18 0.026(5) 0.095(10) 0.034(5) -0.018(6) 0.011(4) -0.007(6)
C19 0.037(6) 0.155(17) 0.046(7) -0.048(9) 0.012(5) -0.004(8)
C20 0.040(7) 0.18(2) 0.093(12) -0.097(14) 0.015(8) 0.008(10)
O2 0.031(4) 0.061(5) 0.033(4) -0.017(3) -0.004(3) 0.013(4)
C21 0.046(5) 0.049(6) 0.026(4) 0.003(4) 0.026(4) -0.002(5)
C22 0.068(7) 0.060(7) 0.039(6) 0.005(5) 0.041(6) -0.004(6)
C23 0.106(11) 0.062(8) 0.081(9) 0.013(7) 0.082(9) 0.022(8)
C24 0.049(6) 0.048(6) 0.032(5) 0.003(4) 0.029(5) 0.005(5)
C25 0.086(9) 0.051(7) 0.065(8) 0.018(6) 0.061(8) 0.016(7)
C26 0.084(9) 0.086(10) 0.060(8) 0.010(7) 0.063(8) 0.009(8)
C27 0.035(4) 0.040(5) 0.019(4) 0.004(4) 0.017(4) 0.003(4)
C28 0.043(5) 0.036(5) 0.022(4) 0.006(4) 0.020(4) 0.002(4)
C29 0.040(5) 0.041(6) 0.025(4) 0.003(4) 0.021(4) -0.001(4)
C30 0.046(5) 0.035(5) 0.037(5) 0.005(4) 0.031(4) 0.002(4)
O3 0.026(3) 0.056(5) 0.015(3) 0.000(3) 0.005(2) 0.003(3)
O4 0.061(4) 0.042(4) 0.028(3) 0.012(3) 0.031(3) 0.017(3)
C31 0.044(5) 0.041(6) 0.022(4) 0.006(4) 0.018(4) -0.004(4)
C32 0.031(4) 0.037(5) 0.015(3) 0.000(3) 0.010(3) 0.001(4)
C33 0.039 0.032 0.024 0.007 0.019 0.002
O5 0.032 0.072 0.024 0.015 0.017 -0.001
O6 0.05 0.05 0.024 0.001 0.019 -0.011
O7 0.038(3) 0.043(4) 0.023(3) 0.007(3) 0.021(3) 0.008(3)
O8 0.069(5) 0.068(6) 0.040(4) -0.018(4) 0.029(4) -0.028(5)
O9 0.034 0.042 0.026 0.007 0.02 0.007
O10 0.023 0.066 0.017 0.009 0.006 0.01
C34 0.049 0.092 0.052 0.015 0.022 -0.026
C35 0.16(2) 0.077(13) 0.116(17) 0.037(13) 0.051(16) 0.036(14)
C36 0.45(7) 0.39(6) 0.17(3) 0.14(3) 0.23(4) 0.34(5)
N1 0.34(4) 0.100(16) 0.22(3) 0.061(18) 0.18(3) 0.08(2)
O11 0.083(6) 0.033(4) 0.053(5) 0.018(4) 0.041(5) 0.027(4)
C37 0.035(6) 0.122(14) 0.082(10) -0.061(10) 0.011(6) 0.014(7)
C38 0.36(6) 0.050(16) 0.59(10) -0.04(3) 0.19(7) 0.04(3)
C10A 0.024 0.035 0.02 -0.001 0.005 0
C12A 0.02 0.044 0.022 -0.003 0.009 -0.001
C13A 0.025 0.06 0.022 0.007 0.009 0.005
C14A 0.021 0.037 0.021 -0.002 0.005 0.004
C15A 0.021 0.037 0.021 -0.003 0.007 -0.001
C16A 0.022 0.056 0.045 0.008 0.01 -0.007
C17A 0.029 0.07 0.043 0.02 0.014 -0.001
C18A 0.026 0.095 0.034 0.018 0.011 0.007
C19A 0.037 0.155 0.046 0.048 0.012 0.004
C20A 0.04 0.18 0.093 0.097 0.015 -0.008
O2A 0.031 0.061 0.033 0.017 -0.004 -0.013
O3A 0.026 0.056 0.015 0 0.005 -0.003
O10A 0.023 0.066 0.017 -0.009 0.006 -0.01
C37A 0.035 0.122 0.082 0.061 0.011 -0.014
Dy1A 0.0257 0.0369 0.0124 -0.00098 0.00939 -0.00339
C1A 0.035 0.035 0.026 -0.007 0.018 0.003
C2A 0.036 0.045 0.026 -0.004 0.019 0.007
C3A 0.046 0.043 0.033 -0.011 0.026 0.002
C4A 0.039 0.048 0.026 -0.002 0.013 0.012
C5A 0.041 0.044 0.025 -0.008 0.021 0
C6A 0.04 0.055 0.036 -0.006 0.023 0.012
C7A 0.058 0.069 0.045 -0.016 0.037 0.002
C8A 0.059 0.102 0.065 -0.027 0.047 0.005
C9A 0.051 0.119 0.056 -0.014 0.031 0.029
O1A 0.043 0.07 0.022 -0.01 0.017 0.015
C21A 0.046 0.049 0.026 -0.003 0.026 0.002
C22A 0.068 0.06 0.039 -0.005 0.041 0.004
C23A 0.106 0.062 0.081 -0.013 0.082 -0.022
C24A 0.049 0.048 0.032 -0.003 0.029 -0.005
C25A 0.086 0.051 0.065 -0.018 0.061 -0.016
C26A 0.084 0.086 0.06 -0.01 0.063 -0.009
C27A 0.035 0.04 0.019 -0.004 0.017 -0.003
C28A 0.043 0.036 0.022 -0.006 0.02 -0.002
C29A 0.04 0.041 0.025 -0.003 0.021 0.001
C30A 0.046 0.035 0.037 -0.005 0.031 -0.002
O4A 0.061 0.042 0.028 -0.012 0.031 -0.017
C31A 0.044 0.041 0.022 -0.006 0.018 0.004
C32A 0.031 0.037 0.015 0 0.01 -0.001
C33A 0.039 0.032 0.024 -0.007 0.019 -0.002
O5A 0.032 0.072 0.024 -0.015 0.017 0.001
O6A 0.05 0.05 0.024 -0.001 0.019 0.011
O7A 0.038 0.043 0.023 -0.007 0.021 -0.008
O8A 0.069 0.068 0.04 0.018 0.029 0.028
O9A 0.034 0.042 0.026 -0.007 0.02 -0.007
C34A 0.049 0.092 0.052 -0.015 0.022 0.026
C35A 0.16 0.077 0.116 -0.037 0.051 -0.036
C36A 0.45 0.39 0.17 -0.14 0.23 -0.34
N1A 0.34 0.1 0.22 -0.061 0.18 -0.08
O11A 0.083 0.033 0.053 -0.018 0.041 -0.027
C38A 0.36 0.05 0.59 0.04 0.19 -0.04
Dy1D 0.0257 0.0369 0.0124 0.00098 0.00939 0.00339
Dy1E 0.0257 0.0369 0.0124 -0.00098 0.00939 -0.00339
Dy1F 0.0257 0.0369 0.0124 0.00098 0.00939 0.00339
Dy1G 0.0257 0.0369 0.0124 -0.00098 0.00939 -0.00339
O5D 0.032 0.072 0.024 0.015 0.017 -0.001
O5E 0.032 0.072 0.024 -0.015 0.017 0.001
O6D 0.05 0.05 0.024 0.001 0.019 -0.011
O6E 0.05 0.05 0.024 -0.001 0.019 0.011
O9F 0.034 0.042 0.026 0.007 0.02 0.007
O9G 0.034 0.042 0.026 -0.007 0.02 -0.007
O10F 0.023 0.066 0.017 0.009 0.006 0.01
O10G 0.023 0.066 0.017 -0.009 0.006 -0.01
loop_
_geom_bond_atom_site_label_1
_geom_bond_atom_site_label_2
_geom_bond_site_symmetry_1
_geom_bond_site_symmetry_2
Dy1 O3 1_555 1_555
C1 C2 1_555 1_555
C2 C5 1_555 1_555
C3 C5 1_555 1_555
C4 C1 1_555 1_555
H1 C4 1_555 1_555
C5 C31 1_555 1_555
C6 C3 1_555 1_555
C7 C3 1_555 1_555
H2 C7 1_555 1_555
C8 C7 1_555 1_555
H3 C8 1_555 1_555
C9 C8 1_555 1_555
H4 C9 1_555 1_555
O1 C2 1_555 1_555
H5 O1 1_555 1_555
C10 C14 1_555 1_555
C11 H6 1_555 1_555
C12 C15 1_555 1_555
C13 C14 1_555 1_555
C14 C11 1_555 1_555
C15 C10 1_555 1_555
C16 C15 1_555 1_555
H7 C16 1_555 1_555
C17 C13 1_555 1_555
C18 C13 1_555 1_555
H8 C18 1_555 1_555
C19 C18 1_555 1_555
H9 C19 1_555 1_555
C20 C19 1_555 1_555
H10 C20 1_555 1_555
O2 C10 1_555 1_555
H11 O2 1_555 1_555
C21 C22 1_555 1_555
C22 H12 1_555 1_555
C23 H13 1_555 1_555
C24 C21 1_555 1_555
C25 C23 1_555 1_555
H14 C25 1_555 1_555
C26 C22 1_555 1_555
H15 C26 1_555 1_555
C27 C28 1_555 1_555
C28 C29 1_555 1_555
C29 C21 1_555 1_555
C30 C24 1_555 1_555
H16 C30 1_555 1_555
O3 C12 1_555 1_555
O4 C28 1_555 1_555
H17 O4 1_555 1_555
C31 C29 1_555 1_555
H18 C31 1_555 1_555
H19 C31 1_555 1_555
C32 C27 1_555 1_555
C33 C1 1_555 1_555
O5 C33 1_555 1_555
O6 C33 1_555 1_555
O7 Dy1 1_555 1_555
O8 Dy1 1_555 1_555
O9 C32 1_555 1_555
O10 C12 1_555 1_555
C34 C6 1_555 1_555
H20 C34 1_555 1_555
C35 H21 1_555 1_555
C36 H22 1_555 1_555
H23 C36 1_555 1_555
H24 C36 1_555 1_555
N1 C35 1_555 1_555
O11 Dy1 1_555 1_555
C37 C17 1_555 1_555
H25 C37 1_555 1_555
C38 N1 1_555 1_555
H26 C38 1_555 1_555
H27 C38 1_555 1_555
H28 C38 1_555 1_555
C10A C14A 1_555 1_555
H6A C11 1_555 1_555
C12A C15A 1_555 1_555
C13A C14A 1_555 1_555
C14A C11 1_555 1_555
C15A C10A 1_555 1_555
C16A C15A 1_555 1_555
H7A C16A 1_555 1_555
C17A C13A 1_555 1_555
C18A C13A 1_555 1_555
H8A C18A 1_555 1_555
C19A C18A 1_555 1_555
H9A C19A 1_555 1_555
C20A C19A 1_555 1_555
H10A C20A 1_555 1_555
O2A C10A 1_555 1_555
H11A O2A 1_555 1_555
O3A C12A 1_555 1_555
O10A C12A 1_555 1_555
C37A C17A 1_555 1_555
H25A C37A 1_555 1_555
Dy1A O3A 1_555 1_555
C1A C2A 1_555 1_555
C2A C5A 1_555 1_555
C3A C5A 1_555 1_555
C4A C1A 1_555 1_555
H1A C4A 1_555 1_555
C5A C31A 1_555 1_555
C6A C3A 1_555 1_555
C7A C3A 1_555 1_555
H2A C7A 1_555 1_555
C8A C7A 1_555 1_555
H3A C8A 1_555 1_555
C9A C8A 1_555 1_555
H4A C9A 1_555 1_555
O1A C2A 1_555 1_555
H5A O1A 1_555 1_555
C21A C22A 1_555 1_555
C22A H12A 1_555 1_555
C23A H13A 1_555 1_555
C24A C21A 1_555 1_555
C25A C23A 1_555 1_555
H14A C25A 1_555 1_555
C26A C22A 1_555 1_555
H15A C26A 1_555 1_555
C27A C28A 1_555 1_555
C28A C29A 1_555 1_555
C29A C21A 1_555 1_555
C30A C24A 1_555 1_555
H16A C30A 1_555 1_555
O4A C28A 1_555 1_555
H17A O4A 1_555 1_555
C31A C29A 1_555 1_555
H18A C31A 1_555 1_555
H19A C31A 1_555 1_555
C32A C27A 1_555 1_555
C33A C1A 1_555 1_555
O5A C33A 1_555 1_555
O6A C33A 1_555 1_555
O7A Dy1A 1_555 1_555
O8A Dy1A 1_555 1_555
O9A C32A 1_555 1_555
C34A C6A 1_555 1_555
H20A C34A 1_555 1_555
C35A H21A 1_555 1_555
C36A H22A 1_555 1_555
H23A C36A 1_555 1_555
H24A C36A 1_555 1_555
N1A C35A 1_555 1_555
O11A Dy1A 1_555 1_555
C38A N1A 1_555 1_555
H26A C38A 1_555 1_555
H27A C38A 1_555 1_555
H28A C38A 1_555 1_555
Dy1D O5A 1_555 1_555
Dy1E O5 1_555 1_555
Dy1F O9 1_555 1_555
Dy1G O10A 1_555 1_555
O5D Dy1A 1_555 1_555
O5E Dy1 1_555 1_555
O6D Dy1A 1_555 1_555
O6E Dy1 1_555 1_555
O9F Dy1 1_555 1_555
O9G Dy1A 1_555 1_555
O10F Dy1 1_555 1_555
O10G Dy1A 1_555 1_555
C4 C6 1_555 1_555
C9 C34 1_555 1_555
C16 C17 1_555 1_555
C20 C37 1_555 1_555
C23 C26 1_555 1_555
C24 C25 1_555 1_555
C27 C30 1_555 1_555
C32 O7 1_555 1_555
O6 Dy1E 1_555 1_555
O10 Dy1F 1_555 1_555
C35 O11 1_555 1_555
C36 N1 1_555 1_555
C16A C17A 1_555 1_555
C20A C37A 1_555 1_555
C4A C6A 1_555 1_555
C9A C34A 1_555 1_555
C23A C26A 1_555 1_555
C24A C25A 1_555 1_555
C27A C30A 1_555 1_555
C32A O7A 1_555 1_555
O6A Dy1D 1_555 1_555
O9A Dy1G 1_555 1_555
C35A O11A 1_555 1_555
C36A N1A 1_555 1_555

#END
