
#######################################################################
#
#                 Cambridge Crystallographic Data Centre
#                                CCDC 
#
#######################################################################
#
# If this CIF has been generated from an entry in the Cambridge 
# Structural Database, then it will include bibliographic, chemical, 
# crystal, experimental, refinement or atomic coordinate data resulting 
# from the CCDC's data processing and validation procedures.
#
#######################################################################

data_FUZCEJ
_chemical_formula_moiety         '(C14 H16 Cd4 N30 O4)n'
_symmetry_cell_setting           tetragonal
_symmetry_space_group_name_H-M   'I -4 c 2'
_symmetry_Int_Tables_number      120
_space_group_name_Hall           'I -4 -2c'
loop_
_symmetry_equiv_pos_site_id
_symmetry_equiv_pos_as_xyz
1 x,y,z
2 y,-x,-z
3 -x,-y,z
4 -y,x,-z
5 y,x,1/2-z
6 -y,-x,1/2-z
7 -x,y,1/2+z
8 x,-y,1/2+z
9 1/2+x,1/2+y,1/2+z
10 1/2+y,1/2-x,1/2-z
11 1/2-x,1/2-y,1/2+z
12 1/2-y,1/2+x,1/2-z
13 1/2+y,1/2+x,-z
14 1/2-y,1/2-x,-z
15 1/2-x,1/2+y,z
16 1/2+x,1/2-y,z
_cell_length_a                   18.049(3)
_cell_length_b                   18.049(3)
_cell_length_c                   9.6733(19)
_cell_angle_alpha                90
_cell_angle_beta                 90
_cell_angle_gamma                90
_cell_volume                     3151.24
loop_
_atom_site_label
_atom_site_type_symbol
_atom_site_fract_x
_atom_site_fract_y
_atom_site_fract_z
Cd1 Cd 0.213849(10) 0.128732(10) 0.42534(2)
O1 O 0.33854(14) 0.10754(15) 0.4122(4)
N1 N 0.25509(16) 0.24387(17) 0.3151(3)
N2 N 0.30978(14) 0.28854(14) 0.3602(3)
N3 N 0.38228(16) 0.38228(16) 0.2500
N4 N 0.21061(14) 0.07046(14) 0.2104(3)
N5 N 0.20799(14) -0.01673(14) 0.0493(3)
N6 N 0.16237(16) 0.08931(14) 0.1084(2)
N7 N 0.28870(18) -0.03405(18) 0.2436(4)
N8 N 0.16032(16) 0.03819(15) 0.0140(3)
C1 C 0.32903(17) 0.32903(17) 0.2500
C2 C 0.38606(18) 0.11394(18) 0.5000
C3 C 0.44638(17) 0.05362(17) 0.5000
C4 C 0.4724(4) 0.0254(4) 0.3753(7)
C5 C 0.23800(15) 0.0048(2) 0.1706(3)
H1 H 0.393(2) 0.402(2) 0.319(3)
H2 H 0.308(2) -0.012(2) 0.296(4)
H3 H 0.308(3) -0.074(3) 0.216(5)
Cd1M Cd 0.371268(10) 0.286151(10) 0.57466(2)
Cd1B Cd 0.786151(10) -0.128732(10) 0.42534(2)
Cd1L Cd 0.628732(10) -0.286151(10) 0.57466(2)
Cd1G Cd 0.213849(10) -0.128732(10) -0.07466(2)
Cd1D Cd 0.128732(10) 0.213849(10) 0.07466(2)
Cd1J Cd 0.286151(10) 0.371268(10) -0.07466(2)
Cd1D_2 Cd 0.128732(10) 0.213849(10) 1.07466(2)
Cd1J_2 Cd 0.286151(10) 0.371268(10) 0.92534(2)
Cd1I Cd 0.628732(10) 0.286151(10) 1.07466(2)
Cd1E Cd 0.871268(10) -0.213849(10) 0.07466(2)
Cd1H Cd 0.713849(10) -0.371268(10) 0.92534(2)
Cd1K Cd 0.371268(10) -0.286151(10) 1.07466(2)
Cd1F Cd 0.786151(10) 0.128732(10) -0.07466(2)
O1M O 0.39246(15) 0.16146(14) 0.5878(4)
O1B O 0.66146(14) -0.10754(15) 0.4122(4)
O1L O 0.60754(15) -0.16146(14) 0.5878(4)
N1D N 0.24387(17) 0.25509(16) 0.1849(3)
N1M N 0.25613(17) 0.24491(16) 0.6849(3)
N1J N 0.24491(16) 0.25613(17) 0.8151(3)
N1B N 0.74491(16) -0.24387(17) 0.3151(3)
N1L N 0.74387(17) -0.24491(16) 0.6849(3)
N2D N 0.28854(14) 0.30978(14) 0.1398(3)
N2M N 0.21146(14) 0.19022(14) 0.6398(3)
N2J N 0.19022(14) 0.21146(14) 0.8602(3)
N2L N 0.78854(14) -0.19022(14) 0.6398(3)
N2B N 0.69022(14) -0.28854(14) 0.3602(3)
N3J N 0.11772(16) 0.11772(16) 0.7500
N4M N 0.42954(14) 0.28939(14) 0.7896(3)
N4B N 0.78939(14) -0.07046(14) 0.2104(3)
N4L N 0.57046(14) -0.28939(14) 0.7896(3)
N5G N 0.20799(14) 0.01673(14) 0.5493(3)
N5M N 0.51673(14) 0.29201(14) 0.9507(3)
N5I N 0.48327(14) 0.29201(14) 0.4507(3)
N5F N 0.79201(14) -0.01673(14) 0.5493(3)
N5K N 0.51673(14) -0.29201(14) 0.4507(3)
N5B N 0.79201(14) 0.01673(14) 0.0493(3)
N5L N 0.48327(14) -0.29201(14) 0.9507(3)
N6D N 0.08931(14) 0.16237(16) 0.3916(2)
N6M N 0.41069(14) 0.33763(16) 0.8916(2)
N6J N 0.33763(16) 0.41069(14) 0.6084(2)
N6E N 0.91069(14) -0.16237(16) 0.3916(2)
N6H N 0.66237(16) -0.41069(14) 0.6084(2)
N6B N 0.83763(16) -0.08931(14) 0.1084(2)
N6L N 0.58931(14) -0.33763(16) 0.8916(2)
N7M N 0.53405(18) 0.21130(18) 0.7564(4)
N7B N 0.71130(18) 0.03405(18) 0.2436(4)
N7L N 0.46595(18) -0.21130(18) 0.7564(4)
N8M N 0.46181(15) 0.33968(16) 0.9860(3)
N8B N 0.83968(16) -0.03819(15) 0.0140(3)
N8L N 0.53819(15) -0.33968(16) 0.9860(3)
C1J C 0.17097(17) 0.17097(17) 0.7500
C2B C 0.61394(18) -0.11394(18) 0.5000
C3B C 0.55362(17) -0.05362(17) 0.5000
C4B C 0.5276(4) -0.0254(4) 0.3753(7)
C4L C 0.5254(4) -0.0276(4) 0.6247(7)
C4M C 0.4746(4) 0.0276(4) 0.6247(7)
C5M C 0.4952(2) 0.26200(15) 0.8294(3)
C5B C 0.76200(15) -0.0048(2) 0.1706(3)
C5L C 0.5048(2) -0.26200(15) 0.8294(3)
H1D H 0.402(2) 0.393(2) 0.181(3)
H1M H 0.098(2) 0.107(2) 0.681(3)
H1J H 0.107(2) 0.098(2) 0.819(3)
H2M H 0.512(2) 0.192(2) 0.704(4)
H2B H 0.692(2) 0.012(2) 0.296(4)
H2L H 0.488(2) -0.192(2) 0.704(4)
H3M H 0.574(3) 0.192(3) 0.784(5)
H3B H 0.692(3) 0.074(3) 0.216(5)
H3L H 0.426(3) -0.192(3) 0.784(5)
loop_
_geom_bond_atom_site_label_1
_geom_bond_atom_site_label_2
_geom_bond_site_symmetry_1
_geom_bond_site_symmetry_2
Cd1 O1 1_555 1_555
O1 C2 1_555 1_555
N1 Cd1 1_555 1_555
N2 N1 1_555 1_555
N3 C1 1_555 1_555
N4 Cd1 1_555 1_555
N5 N8 1_555 1_555
N6 N4 1_555 1_555
N7 C5 1_555 1_555
N8 N6 1_555 1_555
C1 N2 1_555 1_555
C2 C3 1_555 1_555
C3 C4 1_555 1_555
C4 C4B 1_555 1_555
C5 N4 1_555 1_555
H1 N3 1_555 1_555
H2 N7 1_555 1_555
H3 N7 1_555 1_555
Cd1M N2 1_555 1_555
Cd1B O1B 1_555 1_555
Cd1L O1L 1_555 1_555
Cd1G N5 1_555 1_555
Cd1D N6 1_555 1_555
Cd1J N2D 1_555 1_555
Cd1D_2 N2J 1_555 1_555
Cd1J_2 N1J 1_555 1_555
Cd1I N5M 1_555 1_555
Cd1E N6B 1_555 1_555
Cd1H N6L 1_555 1_555
Cd1K N5L 1_555 1_555
Cd1F N5B 1_555 1_555
O1M C2 1_555 1_555
O1B C2B 1_555 1_555
O1L C2B 1_555 1_555
N1D N1 1_555 1_555
N1M Cd1M 1_555 1_555
N1J N1M 1_555 1_555
N1B Cd1B 1_555 1_555
N1L Cd1L 1_555 1_555
N2D C1 1_555 1_555
N2M Cd1 1_555 1_555
N2J N1J 1_555 1_555
N2L Cd1B 1_555 1_555
N2B Cd1L 1_555 1_555
N3J C1J 1_555 1_555
N4M Cd1M 1_555 1_555
N4B Cd1B 1_555 1_555
N4L Cd1L 1_555 1_555
N5G Cd1 1_555 1_555
N5M N8M 1_555 1_555
N5I Cd1M 1_555 1_555
N5F Cd1B 1_555 1_555
N5K Cd1L 1_555 1_555
N5B N8B 1_555 1_555
N5L N8L 1_555 1_555
N6D Cd1 1_555 1_555
N6M Cd1J_2 1_555 1_555
N6J Cd1M 1_555 1_555
N6E Cd1B 1_555 1_555
N6H Cd1L 1_555 1_555
N6B N4B 1_555 1_555
N6L N4L 1_555 1_555
N7M C5M 1_555 1_555
N7B C5B 1_555 1_555
N7L C5L 1_555 1_555
N8M N6M 1_555 1_555
N8B N6B 1_555 1_555
N8L N6L 1_555 1_555
C1J N2M 1_555 1_555
C2B C3B 1_555 1_555
C3B C4B 1_555 1_555
C4L C3B 1_555 1_555
C4M C3 1_555 1_555
C5M N4M 1_555 1_555
C5B N4B 1_555 1_555
C5L N4L 1_555 1_555
H1D N3 1_555 1_555
H1M N3J 1_555 1_555
H1J N3J 1_555 1_555
H2M N7M 1_555 1_555
H2B N7B 1_555 1_555
H2L N7L 1_555 1_555
H3M N7M 1_555 1_555
H3B N7B 1_555 1_555
H3L N7L 1_555 1_555
N5 C5 1_555 1_555
Cd1M O1M 1_555 1_555
Cd1D N1D 1_555 1_555
N1D N2D 1_555 1_555
N1M N2M 1_555 1_555
N1B N2B 1_555 1_555
N1L N2L 1_555 1_555
N2J C1J 1_555 1_555
N4M N6M 1_555 1_555
N5M C5M 1_555 1_555
N5B C5B 1_555 1_555
N5L C5L 1_555 1_555
C4L C4M 1_555 1_555

#END
