
#######################################################################
#
#                 Cambridge Crystallographic Data Centre
#                                CCDC 
#
#######################################################################
#
# If this CIF has been generated from an entry in the Cambridge 
# Structural Database, then it will include bibliographic, chemical, 
# crystal, experimental, refinement or atomic coordinate data resulting 
# from the CCDC's data processing and validation procedures.
#
#######################################################################

data_NAFVUO
_chemical_formula_moiety         '(C60 H42 La3 N6 O30 3-)n'
_symmetry_cell_setting           cubic
_symmetry_space_group_name_H-M   'I a -3'
_symmetry_Int_Tables_number      206
_space_group_name_Hall           '-I 2b 2c 3'
loop_
_symmetry_equiv_pos_site_id
_symmetry_equiv_pos_as_xyz
1 x,y,z
2 1/2-x,-y,1/2+z
3 -x,1/2+y,1/2-z
4 1/2+x,1/2-y,-z
5 z,x,y
6 1/2+z,1/2-x,-y
7 1/2-z,-x,1/2+y
8 -z,1/2+x,1/2-y
9 y,z,x
10 -y,1/2+z,1/2-x
11 1/2+y,1/2-z,-x
12 1/2-y,-z,1/2+x
13 1/2+x,1/2+y,1/2+z
14 -x,1/2-y,z
15 1/2-x,y,-z
16 x,-y,1/2-z
17 1/2+z,1/2+x,1/2+y
18 z,-x,1/2-y
19 -z,1/2-x,y
20 1/2-z,x,-y
21 1/2+y,1/2+z,1/2+x
22 1/2-y,z,-x
23 y,-z,1/2-x
24 -y,1/2-z,x
25 -x,-y,-z
26 1/2+x,y,1/2-z
27 x,1/2-y,1/2+z
28 1/2-x,1/2+y,z
29 -z,-x,-y
30 1/2-z,1/2+x,y
31 1/2+z,x,1/2-y
32 z,1/2-x,1/2+y
33 -y,-z,-x
34 y,1/2-z,1/2+x
35 1/2-y,1/2+z,x
36 1/2+y,z,1/2-x
37 1/2-x,1/2-y,1/2-z
38 x,1/2+y,-z
39 1/2+x,-y,z
40 -x,y,1/2+z
41 1/2-z,1/2-x,1/2-y
42 -z,x,1/2+y
43 z,1/2+x,-y
44 1/2+z,-x,y
45 1/2-y,1/2-z,1/2-x
46 1/2+y,-z,x
47 -y,z,1/2+x
48 y,1/2+z,-x
_cell_length_a                   27.0059(7)
_cell_length_b                   27.0059(7)
_cell_length_c                   27.0059(7)
_cell_angle_alpha                90
_cell_angle_beta                 90
_cell_angle_gamma                90
_cell_volume                     19695.9
loop_
_atom_site_label
_atom_site_type_symbol
_atom_site_fract_x
_atom_site_fract_y
_atom_site_fract_z
_atom_site_U_iso_or_equiv
_atom_site_thermal_displace_type
La1 La 0.7500 0.2500 0.2500 0.0261 Uani
La2 La 0.83561(2) 0.33561(2) 0.16439(2) 0.0293 Uani
N1 N 0.6848(8) 0.4326(10) 0.2868(9) 0.0707 Uani
H1 H 0.6820 0.4027 0.2744 0.0850 Uiso
O1 O 0.6391(8) 0.4986(8) 0.2909(12) 0.1170 Uani
C1 C 0.6416(9) 0.4556(12) 0.2891(14) 0.0987 Uani
C2 C 0.5951(12) 0.4305(16) 0.2653(17) 0.1367 Uani
H2 H 0.5996 0.3945 0.2650 0.2060 Uiso
H3 H 0.5656 0.4388 0.2848 0.2060 Uiso
H4 H 0.5909 0.4425 0.2313 0.2060 Uiso
O2 O 0.72020(19) 0.34248(19) 0.2712(2) 0.0403 Uani
O3 O 0.79880(19) 0.33576(18) 0.24983(18) 0.0330 Uani
O4 O 0.7762(2) 0.59110(19) 0.3381(2) 0.0410 Uani
O5 O 0.8555(2) 0.5715(2) 0.3325(2) 0.0430 Uani
C3 C 0.7625(3) 0.3602(3) 0.2683(3) 0.0327 Uani
C4 C 0.7733(3) 0.4120(2) 0.2874(3) 0.0330 Uani
C5 C 0.8227(3) 0.4264(3) 0.2918(3) 0.0353 Uani
H5 H 0.8486 0.4039 0.2839 0.0420 Uiso
C6 C 0.8335(3) 0.4745(3) 0.3081(3) 0.0410 Uani
H6 H 0.8670 0.4844 0.3121 0.0490 Uiso
C7 C 0.7965(3) 0.5070(3) 0.3182(3) 0.0380 Uani
C8 C 0.7476(3) 0.4925(3) 0.3144(3) 0.0430 Uani
H7 H 0.7219 0.5155 0.3218 0.0520 Uiso
C9 C 0.7356(3) 0.4443(3) 0.2996(4) 0.0477 Uani
C10 C 0.8099(3) 0.5598(3) 0.3309(2) 0.0350 Uani
N1G N 0.7132(9) 0.1848(8) 0.0674(10) 0.0707 Uani
H1G H 0.7256 0.1820 0.0973 0.0850 Uiso
O1G O 0.7091(12) 0.1391(8) 0.0014(8) 0.1170 Uani
C1G C 0.7109(14) 0.1416(9) 0.0444(12) 0.0987 Uani
C2G C 0.7347(17) 0.0951(12) 0.0695(16) 0.1367 Uani
H2G H 0.7350 0.0996 0.1055 0.2060 Uiso
H3G H 0.7152 0.0656 0.0612 0.2060 Uiso
H4G H 0.7687 0.0909 0.0575 0.2060 Uiso
O2G O 0.7288(2) 0.22020(19) 0.15752(19) 0.0403 Uani
O3G O 0.75017(18) 0.29880(19) 0.16424(18) 0.0330 Uani
O4G O 0.6619(2) 0.2762(2) -0.09110(19) 0.0410 Uani
O5G O 0.6675(2) 0.3555(2) -0.0715(2) 0.0430 Uani
C3G C 0.7317(3) 0.2625(3) 0.1398(3) 0.0327 Uani
C4G C 0.7126(3) 0.2733(3) 0.0880(2) 0.0330 Uani
C5G C 0.7082(3) 0.3227(3) 0.0736(3) 0.0353 Uani
H5G H 0.7161 0.3486 0.0961 0.0420 Uiso
C6G C 0.6919(3) 0.3335(3) 0.0255(3) 0.0410 Uani
H6G H 0.6879 0.3670 0.0156 0.0490 Uiso
C7G C 0.6818(3) 0.2965(3) -0.0070(3) 0.0380 Uani
C8G C 0.6856(3) 0.2476(3) 0.0075(3) 0.0430 Uani
H7G H 0.6782 0.2219 -0.0155 0.0520 Uiso
C9G C 0.7004(4) 0.2356(3) 0.0557(3) 0.0477 Uani
C10G C 0.6691(2) 0.3099(3) -0.0598(3) 0.0350 Uani
N1J N 0.9326(10) 0.2132(9) 0.3152(8) 0.0707 Uani
H1J H 0.9027 0.2256 0.3180 0.0850 Uiso
O1J O 0.9986(8) 0.2091(12) 0.3609(8) 0.1170 Uani
C1J C 0.9556(12) 0.2109(14) 0.3584(9) 0.0987 Uani
C2J C 0.9305(16) 0.2347(17) 0.4049(12) 0.1367 Uani
H2J H 0.8945 0.2350 0.4004 0.2060 Uiso
H3J H 0.9388 0.2152 0.4344 0.2060 Uiso
H4J H 0.9425 0.2687 0.4091 0.2060 Uiso
O2J O 0.84248(19) 0.2288(2) 0.27980(19) 0.0403 Uani
O3J O 0.83576(18) 0.25017(18) 0.20120(19) 0.0330 Uani
O4J O 1.09110(19) 0.1619(2) 0.2238(2) 0.0410 Uani
O5J O 1.0715(2) 0.1675(2) 0.1445(2) 0.0430 Uani
C3J C 0.8602(3) 0.2317(3) 0.2375(3) 0.0327 Uani
C4J C 0.9120(2) 0.2126(3) 0.2267(3) 0.0330 Uani
C5J C 0.9264(3) 0.2082(3) 0.1773(3) 0.0353 Uani
H5J H 0.9039 0.2161 0.1514 0.0420 Uiso
C6J C 0.9745(3) 0.1919(3) 0.1665(3) 0.0410 Uani
H6J H 0.9844 0.1879 0.1330 0.0490 Uiso
C7J C 1.0070(3) 0.1818(3) 0.2035(3) 0.0380 Uani
C8J C 0.9925(3) 0.1856(3) 0.2524(3) 0.0430 Uani
H7J H 1.0155 0.1782 0.2781 0.0520 Uiso
C9J C 0.9443(3) 0.2004(4) 0.2644(3) 0.0477 Uani
C10J C 1.0598(3) 0.1691(2) 0.1901(3) 0.0350 Uani
La2JA La 0.66439(2) 0.16439(2) 0.33561(2) 0.0293 Uani
N1JA N 0.8152(8) 0.0674(10) 0.2132(9) 0.0707 Uani
H1JA H 0.8180 0.0973 0.2256 0.0850 Uiso
O1JA O 0.8609(8) 0.0014(8) 0.2091(12) 0.1170 Uani
C1JA C 0.8584(9) 0.0444(12) 0.2109(14) 0.0987 Uani
C2JA C 0.9049(12) 0.0695(16) 0.2347(17) 0.1367 Uani
H2JA H 0.9004 0.1055 0.2350 0.2060 Uiso
H3JA H 0.9344 0.0612 0.2152 0.2060 Uiso
H4JA H 0.9091 0.0575 0.2687 0.2060 Uiso
O2JA O 0.77980(19) 0.15752(19) 0.2288(2) 0.0403 Uani
O3JA O 0.70120(19) 0.16424(18) 0.25017(18) 0.0330 Uani
O4JA O 0.7238(2) -0.09110(19) 0.1619(2) 0.0410 Uani
O5JA O 0.6445(2) -0.0715(2) 0.1675(2) 0.0430 Uani
C3JA C 0.7375(3) 0.1398(3) 0.2317(3) 0.0327 Uani
C4JA C 0.7267(3) 0.0880(2) 0.2126(3) 0.0330 Uani
C5JA C 0.6773(3) 0.0736(3) 0.2082(3) 0.0353 Uani
H5JA H 0.6514 0.0961 0.2161 0.0420 Uiso
C6JA C 0.6665(3) 0.0255(3) 0.1919(3) 0.0410 Uani
H6JA H 0.6330 0.0156 0.1879 0.0490 Uiso
C7JA C 0.7035(3) -0.0070(3) 0.1818(3) 0.0380 Uani
C8JA C 0.7524(3) 0.0075(3) 0.1856(3) 0.0430 Uani
H7JA H 0.7781 -0.0155 0.1782 0.0520 Uiso
C9JA C 0.7644(3) 0.0557(3) 0.2004(4) 0.0477 Uani
C10JA C 0.6901(3) -0.0598(3) 0.1691(2) 0.0350 Uani
N1QA N 0.7868(9) 0.3152(8) 0.4326(10) 0.0707 Uani
H1QA H 0.7744 0.3180 0.4027 0.0850 Uiso
O1QA O 0.7909(12) 0.3609(8) 0.4986(8) 0.1170 Uani
C1QA C 0.7891(14) 0.3584(9) 0.4556(12) 0.0987 Uani
C2QA C 0.7653(17) 0.4049(12) 0.4305(16) 0.1367 Uani
H2QA H 0.7650 0.4004 0.3945 0.2060 Uiso
H3QA H 0.7848 0.4344 0.4388 0.2060 Uiso
H4QA H 0.7313 0.4091 0.4425 0.2060 Uiso
O2QA O 0.7712(2) 0.27980(19) 0.34248(19) 0.0403 Uani
O3QA O 0.74983(18) 0.20120(19) 0.33576(18) 0.0330 Uani
O4QA O 0.8381(2) 0.2238(2) 0.59110(19) 0.0410 Uani
O5QA O 0.8325(2) 0.1445(2) 0.5715(2) 0.0430 Uani
C3QA C 0.7683(3) 0.2375(3) 0.3602(3) 0.0327 Uani
C4QA C 0.7874(3) 0.2267(3) 0.4120(2) 0.0330 Uani
C5QA C 0.7918(3) 0.1773(3) 0.4264(3) 0.0353 Uani
H5QA H 0.7839 0.1514 0.4039 0.0420 Uiso
C6QA C 0.8081(3) 0.1665(3) 0.4745(3) 0.0410 Uani
H6QA H 0.8121 0.1330 0.4844 0.0490 Uiso
C7QA C 0.8182(3) 0.2035(3) 0.5070(3) 0.0380 Uani
C8QA C 0.8144(3) 0.2524(3) 0.4925(3) 0.0430 Uani
H7QA H 0.8218 0.2781 0.5155 0.0520 Uiso
C9QA C 0.7996(4) 0.2644(3) 0.4443(3) 0.0477 Uani
C10QA C 0.8309(2) 0.1901(3) 0.5598(3) 0.0350 Uani
N1TA N 0.5674(10) 0.2868(9) 0.1848(8) 0.0707 Uani
H1TA H 0.5973 0.2744 0.1820 0.0850 Uiso
O1TA O 0.5014(8) 0.2909(12) 0.1391(8) 0.1170 Uani
C1TA C 0.5444(12) 0.2891(14) 0.1416(9) 0.0987 Uani
C2TA C 0.5695(16) 0.2653(17) 0.0951(12) 0.1367 Uani
H2TA H 0.6055 0.2650 0.0996 0.2060 Uiso
H3TA H 0.5612 0.2848 0.0656 0.2060 Uiso
H4TA H 0.5575 0.2313 0.0909 0.2060 Uiso
O2TA O 0.65752(19) 0.2712(2) 0.22020(19) 0.0403 Uani
O3TA O 0.66424(18) 0.24983(18) 0.29880(19) 0.0330 Uani
O4TA O 0.40890(19) 0.3381(2) 0.2762(2) 0.0410 Uani
O5TA O 0.4285(2) 0.3325(2) 0.3555(2) 0.0430 Uani
C3TA C 0.6398(3) 0.2683(3) 0.2625(3) 0.0327 Uani
C4TA C 0.5880(2) 0.2874(3) 0.2733(3) 0.0330 Uani
C5TA C 0.5736(3) 0.2918(3) 0.3227(3) 0.0353 Uani
H5TA H 0.5961 0.2839 0.3486 0.0420 Uiso
C6TA C 0.5255(3) 0.3081(3) 0.3335(3) 0.0410 Uani
H6TA H 0.5156 0.3121 0.3670 0.0490 Uiso
C7TA C 0.4930(3) 0.3182(3) 0.2965(3) 0.0380 Uani
C8TA C 0.5075(3) 0.3144(3) 0.2476(3) 0.0430 Uani
H7TA H 0.4845 0.3218 0.2219 0.0520 Uiso
C9TA C 0.5557(3) 0.2996(4) 0.2356(3) 0.0477 Uani
C10TA C 0.4402(3) 0.3309(2) 0.3099(3) 0.0350 Uani
La2M La 1.16439(2) 0.16439(2) 0.16439(2) 0.0293 Uani
La2N La 0.66439(2) 0.33561(2) -0.16439(2) 0.0293 Uani
La2O La 0.83561(2) 0.66439(2) 0.33561(2) 0.0293 Uani
La2Y La 0.33561(2) 0.33561(2) 0.33561(2) 0.0293 Uani
La2Z La 0.83561(2) 0.16439(2) 0.66439(2) 0.0293 Uani
La2AA La 0.66439(2) -0.16439(2) 0.16439(2) 0.0293 Uani
O4O O 0.7762(2) 0.40890(19) 0.1619(2) 0.0410 Uani
O4P O 0.8381(2) 0.2762(2) 0.09110(19) 0.0410 Uani
O4U O 0.90890(19) 0.3381(2) 0.2238(2) 0.0410 Uani
O4AA O 0.7238(2) 0.09110(19) 0.3381(2) 0.0410 Uani
O4BA O 0.6619(2) 0.2238(2) 0.40890(19) 0.0410 Uani
O4GA O 0.59110(19) 0.1619(2) 0.2762(2) 0.0410 Uani
O5O O 0.8555(2) 0.4285(2) 0.1675(2) 0.0430 Uani
O5P O 0.8325(2) 0.3555(2) 0.0715(2) 0.0430 Uani
O5U O 0.9285(2) 0.3325(2) 0.1445(2) 0.0430 Uani
O5AA O 0.6445(2) 0.0715(2) 0.3325(2) 0.0430 Uani
O5BA O 0.6675(2) 0.1445(2) 0.4285(2) 0.0430 Uani
O5GA O 0.5715(2) 0.1675(2) 0.3555(2) 0.0430 Uani
loop_
_atom_site_aniso_label
_atom_site_aniso_U_11
_atom_site_aniso_U_22
_atom_site_aniso_U_33
_atom_site_aniso_U_23
_atom_site_aniso_U_13
_atom_site_aniso_U_12
La1 0.0261(3) 0.0261(3) 0.0261(3) -0.0031(2) -0.0031(2) 0.0031(2)
La2 0.0293(3) 0.0293(3) 0.0293(3) -0.00366(16) -0.00366(16) 0.00366(16)
N1 0.066(6) 0.072(8) 0.074(10) -0.015(8) -0.005(8) 0.003(5)
O1 0.080(11) 0.098(10) 0.173(18) -0.006(12) 0.013(12) 0.034(8)
C1 0.077(7) 0.105(10) 0.114(12) 0.002(9) -0.011(9) 0.012(7)
C2 0.075(11) 0.155(19) 0.18(2) 0.010(16) -0.009(14) -0.018(13)
O2 0.037(3) 0.032(3) 0.052(3) -0.005(2) -0.002(2) 0.001(2)
O3 0.038(3) 0.032(3) 0.029(2) -0.0077(19) -0.003(2) 0.003(2)
O4 0.041(3) 0.032(3) 0.050(3) -0.011(2) 0.010(2) -0.006(2)
O5 0.040(3) 0.035(3) 0.054(3) -0.010(2) 0.000(2) -0.002(2)
C3 0.035(4) 0.030(3) 0.033(3) -0.001(3) -0.005(3) 0.001(3)
C4 0.045(4) 0.027(3) 0.027(3) -0.005(3) -0.003(3) 0.000(3)
C5 0.037(3) 0.029(3) 0.040(4) -0.004(3) -0.006(3) 0.001(3)
C6 0.033(4) 0.043(4) 0.047(4) 0.002(3) 0.004(3) -0.005(3)
C7 0.056(4) 0.026(3) 0.032(4) -0.002(3) 0.010(3) -0.004(3)
C8 0.038(4) 0.035(4) 0.056(5) -0.009(3) 0.010(4) 0.008(3)
C9 0.047(4) 0.030(4) 0.066(6) -0.007(4) 0.003(4) -0.003(3)
C10 0.043(4) 0.038(4) 0.024(3) -0.004(3) 0.003(3) -0.005(3)
N1G 0.074 0.066 0.072 -0.003 -0.015 0.005
O1G 0.173 0.08 0.098 -0.034 -0.006 -0.013
C1G 0.114 0.077 0.105 -0.012 0.002 0.011
C2G 0.18 0.075 0.155 0.018 0.01 0.009
O2G 0.052 0.037 0.032 -0.001 -0.005 0.002
O3G 0.029 0.038 0.032 -0.003 -0.0077 0.003
O4G 0.05 0.041 0.032 0.006 -0.011 -0.01
O5G 0.054 0.04 0.035 0.002 -0.01 0
C3G 0.033 0.035 0.03 -0.001 -0.001 0.005
C4G 0.027 0.045 0.027 0 -0.005 0.003
C5G 0.04 0.037 0.029 -0.001 -0.004 0.006
C6G 0.047 0.033 0.043 0.005 0.002 -0.004
C7G 0.032 0.056 0.026 0.004 -0.002 -0.01
C8G 0.056 0.038 0.035 -0.008 -0.009 -0.01
C9G 0.066 0.047 0.03 0.003 -0.007 -0.003
C10G 0.024 0.043 0.038 0.005 -0.004 -0.003
N1J 0.072 0.074 0.066 -0.005 -0.003 0.015
O1J 0.098 0.173 0.08 0.013 -0.034 0.006
C1J 0.105 0.114 0.077 -0.011 -0.012 -0.002
C2J 0.155 0.18 0.075 -0.009 0.018 -0.01
O2J 0.032 0.052 0.037 -0.002 -0.001 0.005
O3J 0.032 0.029 0.038 -0.003 -0.003 0.0077
O4J 0.032 0.05 0.041 0.01 0.006 0.011
O5J 0.035 0.054 0.04 0 0.002 0.01
C3J 0.03 0.033 0.035 -0.005 -0.001 0.001
C4J 0.027 0.027 0.045 -0.003 0 0.005
C5J 0.029 0.04 0.037 -0.006 -0.001 0.004
C6J 0.043 0.047 0.033 0.004 0.005 -0.002
C7J 0.026 0.032 0.056 0.01 0.004 0.002
C8J 0.035 0.056 0.038 0.01 -0.008 0.009
C9J 0.03 0.066 0.047 0.003 0.003 0.007
C10J 0.038 0.024 0.043 0.003 0.005 0.004
La2JA 0.0293 0.0293 0.0293 -0.00366 -0.00366 0.00366
N1JA 0.066 0.072 0.074 -0.015 -0.005 0.003
O1JA 0.08 0.098 0.173 -0.006 0.013 0.034
C1JA 0.077 0.105 0.114 0.002 -0.011 0.012
C2JA 0.075 0.155 0.18 0.01 -0.009 -0.018
O2JA 0.037 0.032 0.052 -0.005 -0.002 0.001
O3JA 0.038 0.032 0.029 -0.0077 -0.003 0.003
O4JA 0.041 0.032 0.05 -0.011 0.01 -0.006
O5JA 0.04 0.035 0.054 -0.01 0 -0.002
C3JA 0.035 0.03 0.033 -0.001 -0.005 0.001
C4JA 0.045 0.027 0.027 -0.005 -0.003 0
C5JA 0.037 0.029 0.04 -0.004 -0.006 0.001
C6JA 0.033 0.043 0.047 0.002 0.004 -0.005
C7JA 0.056 0.026 0.032 -0.002 0.01 -0.004
C8JA 0.038 0.035 0.056 -0.009 0.01 0.008
C9JA 0.047 0.03 0.066 -0.007 0.003 -0.003
C10JA 0.043 0.038 0.024 -0.004 0.003 -0.005
N1QA 0.074 0.066 0.072 -0.003 -0.015 0.005
O1QA 0.173 0.08 0.098 -0.034 -0.006 -0.013
C1QA 0.114 0.077 0.105 -0.012 0.002 0.011
C2QA 0.18 0.075 0.155 0.018 0.01 0.009
O2QA 0.052 0.037 0.032 -0.001 -0.005 0.002
O3QA 0.029 0.038 0.032 -0.003 -0.0077 0.003
O4QA 0.05 0.041 0.032 0.006 -0.011 -0.01
O5QA 0.054 0.04 0.035 0.002 -0.01 0
C3QA 0.033 0.035 0.03 -0.001 -0.001 0.005
C4QA 0.027 0.045 0.027 0 -0.005 0.003
C5QA 0.04 0.037 0.029 -0.001 -0.004 0.006
C6QA 0.047 0.033 0.043 0.005 0.002 -0.004
C7QA 0.032 0.056 0.026 0.004 -0.002 -0.01
C8QA 0.056 0.038 0.035 -0.008 -0.009 -0.01
C9QA 0.066 0.047 0.03 0.003 -0.007 -0.003
C10QA 0.024 0.043 0.038 0.005 -0.004 -0.003
N1TA 0.072 0.074 0.066 -0.005 -0.003 0.015
O1TA 0.098 0.173 0.08 0.013 -0.034 0.006
C1TA 0.105 0.114 0.077 -0.011 -0.012 -0.002
C2TA 0.155 0.18 0.075 -0.009 0.018 -0.01
O2TA 0.032 0.052 0.037 -0.002 -0.001 0.005
O3TA 0.032 0.029 0.038 -0.003 -0.003 0.0077
O4TA 0.032 0.05 0.041 0.01 0.006 0.011
O5TA 0.035 0.054 0.04 0 0.002 0.01
C3TA 0.03 0.033 0.035 -0.005 -0.001 0.001
C4TA 0.027 0.027 0.045 -0.003 0 0.005
C5TA 0.029 0.04 0.037 -0.006 -0.001 0.004
C6TA 0.043 0.047 0.033 0.004 0.005 -0.002
C7TA 0.026 0.032 0.056 0.01 0.004 0.002
C8TA 0.035 0.056 0.038 0.01 -0.008 0.009
C9TA 0.03 0.066 0.047 0.003 0.003 0.007
C10TA 0.038 0.024 0.043 0.003 0.005 0.004
La2M 0.0293 0.0293 0.0293 0.00366 0.00366 0.00366
La2N 0.0293 0.0293 0.0293 0.00366 -0.00366 -0.00366
La2O 0.0293 0.0293 0.0293 -0.00366 0.00366 -0.00366
La2Y 0.0293 0.0293 0.0293 0.00366 0.00366 0.00366
La2Z 0.0293 0.0293 0.0293 0.00366 -0.00366 -0.00366
La2AA 0.0293 0.0293 0.0293 -0.00366 0.00366 -0.00366
O4O 0.041 0.032 0.05 -0.011 -0.01 0.006
O4P 0.05 0.041 0.032 -0.006 -0.011 0.01
O4U 0.032 0.05 0.041 -0.01 -0.006 0.011
O4AA 0.041 0.032 0.05 -0.011 -0.01 0.006
O4BA 0.05 0.041 0.032 -0.006 -0.011 0.01
O4GA 0.032 0.05 0.041 -0.01 -0.006 0.011
O5O 0.04 0.035 0.054 -0.01 0 0.002
O5P 0.054 0.04 0.035 -0.002 -0.01 0
O5U 0.035 0.054 0.04 0 -0.002 0.01
O5AA 0.04 0.035 0.054 -0.01 0 0.002
O5BA 0.054 0.04 0.035 -0.002 -0.01 0
O5GA 0.035 0.054 0.04 0 -0.002 0.01
loop_
_geom_bond_atom_site_label_1
_geom_bond_atom_site_label_2
_geom_bond_site_symmetry_1
_geom_bond_site_symmetry_2
La1 O2 1_555 1_555
La2 O3 1_555 1_555
N1 H1 1_555 1_555
O1 C1 1_555 1_555
C1 N1 1_555 1_555
C2 C1 1_555 1_555
H2 C2 1_555 1_555
H3 C2 1_555 1_555
H4 C2 1_555 1_555
O2 C3 1_555 1_555
O3 La1 1_555 1_555
O4 C10 1_555 1_555
O5 C10 1_555 1_555
C3 O3 1_555 1_555
C4 C3 1_555 1_555
C5 C4 1_555 1_555
H5 C5 1_555 1_555
C6 C5 1_555 1_555
H6 C6 1_555 1_555
C7 C6 1_555 1_555
C8 C7 1_555 1_555
H7 C8 1_555 1_555
C9 N1 1_555 1_555
C10 C7 1_555 1_555
N1G H1G 1_555 1_555
O1G C1G 1_555 1_555
C1G N1G 1_555 1_555
C2G C1G 1_555 1_555
H2G C2G 1_555 1_555
H3G C2G 1_555 1_555
H4G C2G 1_555 1_555
O2G La1 1_555 1_555
O3G La1 1_555 1_555
O4G C10G 1_555 1_555
O5G C10G 1_555 1_555
C3G O2G 1_555 1_555
C4G C3G 1_555 1_555
C5G C4G 1_555 1_555
H5G C5G 1_555 1_555
C6G C5G 1_555 1_555
H6G C6G 1_555 1_555
C7G C6G 1_555 1_555
C8G C7G 1_555 1_555
H7G C8G 1_555 1_555
C9G N1G 1_555 1_555
C10G C7G 1_555 1_555
N1J H1J 1_555 1_555
O1J C1J 1_555 1_555
C1J N1J 1_555 1_555
C2J C1J 1_555 1_555
H2J C2J 1_555 1_555
H3J C2J 1_555 1_555
H4J C2J 1_555 1_555
O2J La1 1_555 1_555
O3J La1 1_555 1_555
O4J C10J 1_555 1_555
O5J C10J 1_555 1_555
C3J O2J 1_555 1_555
C4J C3J 1_555 1_555
C5J C4J 1_555 1_555
H5J C5J 1_555 1_555
C6J C5J 1_555 1_555
H6J C6J 1_555 1_555
C7J C6J 1_555 1_555
C8J C7J 1_555 1_555
H7J C8J 1_555 1_555
C9J N1J 1_555 1_555
C10J C7J 1_555 1_555
La2JA O3JA 1_555 1_555
N1JA H1JA 1_555 1_555
O1JA C1JA 1_555 1_555
C1JA N1JA 1_555 1_555
C2JA C1JA 1_555 1_555
H2JA C2JA 1_555 1_555
H3JA C2JA 1_555 1_555
H4JA C2JA 1_555 1_555
O2JA La1 1_555 1_555
O3JA La1 1_555 1_555
O4JA C10JA 1_555 1_555
O5JA C10JA 1_555 1_555
C3JA O2JA 1_555 1_555
C4JA C3JA 1_555 1_555
C5JA C4JA 1_555 1_555
H5JA C5JA 1_555 1_555
C6JA C5JA 1_555 1_555
H6JA C6JA 1_555 1_555
C7JA C6JA 1_555 1_555
C8JA C7JA 1_555 1_555
H7JA C8JA 1_555 1_555
C9JA N1JA 1_555 1_555
C10JA C7JA 1_555 1_555
N1QA H1QA 1_555 1_555
O1QA C1QA 1_555 1_555
C1QA N1QA 1_555 1_555
C2QA C1QA 1_555 1_555
H2QA C2QA 1_555 1_555
H3QA C2QA 1_555 1_555
H4QA C2QA 1_555 1_555
O2QA La1 1_555 1_555
O3QA La1 1_555 1_555
O4QA C10QA 1_555 1_555
O5QA C10QA 1_555 1_555
C3QA O2QA 1_555 1_555
C4QA C3QA 1_555 1_555
C5QA C4QA 1_555 1_555
H5QA C5QA 1_555 1_555
C6QA C5QA 1_555 1_555
H6QA C6QA 1_555 1_555
C7QA C6QA 1_555 1_555
C8QA C7QA 1_555 1_555
H7QA C8QA 1_555 1_555
C9QA N1QA 1_555 1_555
C10QA C7QA 1_555 1_555
N1TA H1TA 1_555 1_555
O1TA C1TA 1_555 1_555
C1TA N1TA 1_555 1_555
C2TA C1TA 1_555 1_555
H2TA C2TA 1_555 1_555
H3TA C2TA 1_555 1_555
H4TA C2TA 1_555 1_555
O2TA La1 1_555 1_555
O3TA La1 1_555 1_555
O4TA C10TA 1_555 1_555
O5TA C10TA 1_555 1_555
C3TA O2TA 1_555 1_555
C4TA C3TA 1_555 1_555
C5TA C4TA 1_555 1_555
H5TA C5TA 1_555 1_555
C6TA C5TA 1_555 1_555
H6TA C6TA 1_555 1_555
C7TA C6TA 1_555 1_555
C8TA C7TA 1_555 1_555
H7TA C8TA 1_555 1_555
C9TA N1TA 1_555 1_555
C10TA C7TA 1_555 1_555
La2M O4J 1_555 1_555
La2N O4G 1_555 1_555
La2O O4 1_555 1_555
La2Y O4TA 1_555 1_555
La2Z O4QA 1_555 1_555
La2AA O4JA 1_555 1_555
O4O La2 1_555 1_555
O4P La2 1_555 1_555
O4U La2 1_555 1_555
O4AA La2JA 1_555 1_555
O4BA La2JA 1_555 1_555
O4GA La2JA 1_555 1_555
O5O La2 1_555 1_555
O5P La2 1_555 1_555
O5U La2 1_555 1_555
O5AA La2JA 1_555 1_555
O5BA La2JA 1_555 1_555
O5GA La2JA 1_555 1_555
La2 O3G 1_555 1_555
La2 O3J 1_555 1_555
O5 La2O 1_555 1_555
C4 C9 1_555 1_555
C8 C9 1_555 1_555
O3G C3G 1_555 1_555
O5G La2N 1_555 1_555
C4G C9G 1_555 1_555
C8G C9G 1_555 1_555
O3J C3J 1_555 1_555
O5J La2M 1_555 1_555
C4J C9J 1_555 1_555
C8J C9J 1_555 1_555
La2JA O3QA 1_555 1_555
La2JA O3TA 1_555 1_555
O3JA C3JA 1_555 1_555
O5JA La2AA 1_555 1_555
C4JA C9JA 1_555 1_555
C8JA C9JA 1_555 1_555
O3QA C3QA 1_555 1_555
O5QA La2Z 1_555 1_555
C4QA C9QA 1_555 1_555
C8QA C9QA 1_555 1_555
O3TA C3TA 1_555 1_555
O5TA La2Y 1_555 1_555
C4TA C9TA 1_555 1_555
C8TA C9TA 1_555 1_555

#END
