
#######################################################################
#
#                 Cambridge Crystallographic Data Centre
#                                CCDC 
#
#######################################################################
#
# If this CIF has been generated from an entry in the Cambridge 
# Structural Database, then it will include bibliographic, chemical, 
# crystal, experimental, refinement or atomic coordinate data resulting 
# from the CCDC's data processing and validation procedures.
#
#######################################################################

data_NAFWAV
_chemical_formula_moiety         '(C60 H42 Ce3 N6 O30 3-)n'
_symmetry_cell_setting           cubic
_symmetry_space_group_name_H-M   'I a -3'
_symmetry_Int_Tables_number      206
_space_group_name_Hall           '-I 2b 2c 3'
loop_
_symmetry_equiv_pos_site_id
_symmetry_equiv_pos_as_xyz
1 x,y,z
2 1/2-x,-y,1/2+z
3 -x,1/2+y,1/2-z
4 1/2+x,1/2-y,-z
5 z,x,y
6 1/2+z,1/2-x,-y
7 1/2-z,-x,1/2+y
8 -z,1/2+x,1/2-y
9 y,z,x
10 -y,1/2+z,1/2-x
11 1/2+y,1/2-z,-x
12 1/2-y,-z,1/2+x
13 1/2+x,1/2+y,1/2+z
14 -x,1/2-y,z
15 1/2-x,y,-z
16 x,-y,1/2-z
17 1/2+z,1/2+x,1/2+y
18 z,-x,1/2-y
19 -z,1/2-x,y
20 1/2-z,x,-y
21 1/2+y,1/2+z,1/2+x
22 1/2-y,z,-x
23 y,-z,1/2-x
24 -y,1/2-z,x
25 -x,-y,-z
26 1/2+x,y,1/2-z
27 x,1/2-y,1/2+z
28 1/2-x,1/2+y,z
29 -z,-x,-y
30 1/2-z,1/2+x,y
31 1/2+z,x,1/2-y
32 z,1/2-x,1/2+y
33 -y,-z,-x
34 y,1/2-z,1/2+x
35 1/2-y,1/2+z,x
36 1/2+y,z,1/2-x
37 1/2-x,1/2-y,1/2-z
38 x,1/2+y,-z
39 1/2+x,-y,z
40 -x,y,1/2+z
41 1/2-z,1/2-x,1/2-y
42 -z,x,1/2+y
43 z,1/2+x,-y
44 1/2+z,-x,y
45 1/2-y,1/2-z,1/2-x
46 1/2+y,-z,x
47 -y,z,1/2+x
48 y,1/2+z,-x
_cell_length_a                   26.921(2)
_cell_length_b                   26.921(2)
_cell_length_c                   26.921(2)
_cell_angle_alpha                90
_cell_angle_beta                 90
_cell_angle_gamma                90
_cell_volume                     19510.7
loop_
_atom_site_label
_atom_site_type_symbol
_atom_site_fract_x
_atom_site_fract_y
_atom_site_fract_z
_atom_site_U_iso_or_equiv
_atom_site_thermal_displace_type
Ce1 Ce 0.5000 0.5000 0.0000 0.0240 Uani
Ce2 Ce 0.91449(2) 0.41449(2) 0.08551(2) 0.0269 Uani
N1 N 0.6776(5) 0.5625(5) 0.0553(6) 0.0623 Uani
H1 H 0.6459 0.5666 0.0485 0.0750 Uiso
O1 O 0.7368(7) 0.6049(5) 0.0929(9) 0.1243 Uani
C1 C 0.7028(9) 0.6055(7) 0.0703(10) 0.0897 Uani
C2 C 0.6682(10) 0.6525(8) 0.0676(12) 0.1270 Uani
H2 H 0.6453 0.6491 0.0395 0.1910 Uiso
H3 H 0.6886 0.6823 0.0629 0.1910 Uiso
H4 H 0.6493 0.6555 0.0985 0.1910 Uiso
O2 O 0.59216(14) 0.52963(15) 0.02163(17) 0.0403 Uani
O3 O 0.58602(13) 0.45126(14) -0.00026(14) 0.0328 Uani
O4 O 0.82202(16) 0.39526(17) 0.08351(18) 0.0477 Uani
O5 O 0.84171(15) 0.47413(16) 0.08846(17) 0.0440 Uani
C3 C 0.61035(19) 0.4877(2) 0.0185(2) 0.0297 Uani
C4 C 0.66185(19) 0.4766(2) 0.03751(19) 0.0310 Uani
C5 C 0.6768(2) 0.4277(2) 0.0416(2) 0.0357 Uani
H5 H 0.6545 0.4016 0.0332 0.0430 Uiso
C6 C 0.7244(2) 0.4167(2) 0.0582(2) 0.0417 Uani
H6 H 0.7343 0.3830 0.0621 0.0500 Uiso
C7 C 0.7575(2) 0.4540(2) 0.0692(2) 0.0383 Uani
C8 C 0.7427(2) 0.5034(2) 0.0653(3) 0.0423 Uani
H7 H 0.7653 0.5292 0.0734 0.0510 Uiso
C9 C 0.6949(2) 0.5150(2) 0.0496(3) 0.0440 Uani
C10 C 0.8104(2) 0.4406(2) 0.0821(2) 0.0347 Uani
N1F N 0.4447(6) 0.3224(5) 0.0625(5) 0.0623 Uani
H1F H 0.4515 0.3541 0.0666 0.0750 Uiso
O1F O 0.4071(9) 0.2632(7) 0.1049(5) 0.1243 Uani
C1F C 0.4297(10) 0.2972(9) 0.1055(7) 0.0897 Uani
C2F C 0.4324(12) 0.3318(10) 0.1525(8) 0.1270 Uani
H2F H 0.4605 0.3547 0.1491 0.1910 Uiso
H3F H 0.4371 0.3114 0.1823 0.1910 Uiso
H4F H 0.4015 0.3507 0.1555 0.1910 Uiso
O2F O 0.47837(17) 0.40784(14) 0.02963(15) 0.0403 Uani
O3F O 0.50026(14) 0.41398(13) -0.04874(14) 0.0328 Uani
O4F O 0.41649(18) 0.17798(16) -0.10474(17) 0.0477 Uani
O5F O 0.41154(17) 0.15829(15) -0.02587(16) 0.0440 Uani
C3F C 0.4815(2) 0.38965(19) -0.0123(2) 0.0297 Uani
C4F C 0.46249(19) 0.33815(19) -0.0234(2) 0.0310 Uani
C5F C 0.4584(2) 0.3232(2) -0.0723(2) 0.0357 Uani
H5F H 0.4668 0.3455 -0.0984 0.0430 Uiso
C6F C 0.4418(2) 0.2756(2) -0.0833(2) 0.0417 Uani
H6F H 0.4379 0.2657 -0.1170 0.0500 Uiso
C7F C 0.4308(2) 0.2425(2) -0.0460(2) 0.0383 Uani
C8F C 0.4347(3) 0.2573(2) 0.0034(2) 0.0423 Uani
H7F H 0.4266 0.2347 0.0292 0.0510 Uiso
C9F C 0.4504(3) 0.3051(2) 0.0150(2) 0.0440 Uani
C10F C 0.4179(2) 0.1896(2) -0.0594(2) 0.0347 Uani
N1I N 0.4375(5) 0.5553(6) -0.1776(5) 0.0623 Uani
H1I H 0.4334 0.5485 -0.1459 0.0750 Uiso
O1I O 0.3951(5) 0.5929(9) -0.2368(7) 0.1243 Uani
C1I C 0.3945(7) 0.5703(10) -0.2028(9) 0.0897 Uani
C2I C 0.3475(8) 0.5676(12) -0.1682(10) 0.1270 Uani
H2I H 0.3509 0.5395 -0.1453 0.1910 Uiso
H3I H 0.3177 0.5629 -0.1886 0.1910 Uiso
H4I H 0.3445 0.5985 -0.1493 0.1910 Uiso
O2I O 0.47037(15) 0.52163(17) -0.09216(14) 0.0403 Uani
O3I O 0.54874(14) 0.49974(14) -0.08602(13) 0.0328 Uani
O4I O 0.60474(17) 0.58351(18) -0.32202(16) 0.0477 Uani
O5I O 0.52587(16) 0.58846(17) -0.34171(15) 0.0440 Uani
C3I C 0.5123(2) 0.5185(2) -0.11035(19) 0.0297 Uani
C4I C 0.5234(2) 0.53751(19) -0.16185(19) 0.0310 Uani
C5I C 0.5723(2) 0.5416(2) -0.1768(2) 0.0357 Uani
H5I H 0.5984 0.5332 -0.1545 0.0430 Uiso
C6I C 0.5833(2) 0.5582(2) -0.2244(2) 0.0417 Uani
H6I H 0.6170 0.5621 -0.2343 0.0500 Uiso
C7I C 0.5460(2) 0.5692(2) -0.2575(2) 0.0383 Uani
C8I C 0.4966(2) 0.5653(3) -0.2427(2) 0.0423 Uani
H7I H 0.4708 0.5734 -0.2653 0.0510 Uiso
C9I C 0.4850(2) 0.5496(3) -0.1949(2) 0.0440 Uani
C10I C 0.5594(2) 0.5821(2) -0.3104(2) 0.0347 Uani
Ce2X Ce 0.08551(2) 0.58551(2) -0.08551(2) 0.0269 Uani
N1X N 0.3224(5) 0.4375(5) -0.0553(6) 0.0623 Uani
H1X H 0.3541 0.4334 -0.0485 0.0750 Uiso
O1X O 0.2632(7) 0.3951(5) -0.0929(9) 0.1243 Uani
C1X C 0.2972(9) 0.3945(7) -0.0703(10) 0.0897 Uani
C2X C 0.3318(10) 0.3475(8) -0.0676(12) 0.1270 Uani
H2X H 0.3547 0.3509 -0.0395 0.1910 Uiso
H3X H 0.3114 0.3177 -0.0629 0.1910 Uiso
H4X H 0.3507 0.3445 -0.0985 0.1910 Uiso
O2X O 0.40784(14) 0.47037(15) -0.02163(17) 0.0403 Uani
O3X O 0.41398(13) 0.54874(14) 0.00026(14) 0.0328 Uani
O4X O 0.17798(16) 0.60474(17) -0.08351(18) 0.0477 Uani
O5X O 0.15829(15) 0.52587(16) -0.08846(17) 0.0440 Uani
C3X C 0.38965(19) 0.5123(2) -0.0185(2) 0.0297 Uani
C4X C 0.33815(19) 0.5234(2) -0.03751(19) 0.0310 Uani
C5X C 0.3232(2) 0.5723(2) -0.0416(2) 0.0357 Uani
H5X H 0.3455 0.5984 -0.0332 0.0430 Uiso
C6X C 0.2756(2) 0.5833(2) -0.0582(2) 0.0417 Uani
H6X H 0.2657 0.6170 -0.0621 0.0500 Uiso
C7X C 0.2425(2) 0.5460(2) -0.0692(2) 0.0383 Uani
C8X C 0.2573(2) 0.4966(2) -0.0653(3) 0.0423 Uani
H7X H 0.2347 0.4708 -0.0734 0.0510 Uiso
C9X C 0.3051(2) 0.4850(2) -0.0496(3) 0.0440 Uani
C10X C 0.1896(2) 0.5594(2) -0.0821(2) 0.0347 Uani
N1DA N 0.5553(6) 0.6776(5) -0.0625(5) 0.0623 Uani
H1DA H 0.5485 0.6459 -0.0666 0.0750 Uiso
O1DA O 0.5929(9) 0.7368(7) -0.1049(5) 0.1243 Uani
C1DA C 0.5703(10) 0.7028(9) -0.1055(7) 0.0897 Uani
C2DA C 0.5676(12) 0.6682(10) -0.1525(8) 0.1270 Uani
H2DA H 0.5395 0.6453 -0.1491 0.1910 Uiso
H3DA H 0.5629 0.6886 -0.1823 0.1910 Uiso
H4DA H 0.5985 0.6493 -0.1555 0.1910 Uiso
O2DA O 0.52163(17) 0.59216(14) -0.02963(15) 0.0403 Uani
O3DA O 0.49974(14) 0.58602(13) 0.04874(14) 0.0328 Uani
O4DA O 0.58351(18) 0.82202(16) 0.10474(17) 0.0477 Uani
O5DA O 0.58846(17) 0.84171(15) 0.02587(16) 0.0440 Uani
C3DA C 0.5185(2) 0.61035(19) 0.0123(2) 0.0297 Uani
C4DA C 0.53751(19) 0.66185(19) 0.0234(2) 0.0310 Uani
C5DA C 0.5416(2) 0.6768(2) 0.0723(2) 0.0357 Uani
H5DA H 0.5332 0.6545 0.0984 0.0430 Uiso
C6DA C 0.5582(2) 0.7244(2) 0.0833(2) 0.0417 Uani
H6DA H 0.5621 0.7343 0.1170 0.0500 Uiso
C7DA C 0.5692(2) 0.7575(2) 0.0460(2) 0.0383 Uani
C8DA C 0.5653(3) 0.7427(2) -0.0034(2) 0.0423 Uani
H7DA H 0.5734 0.7653 -0.0292 0.0510 Uiso
C9DA C 0.5496(3) 0.6949(2) -0.0150(2) 0.0440 Uani
C10DA C 0.5821(2) 0.8104(2) 0.0594(2) 0.0347 Uani
N1GA N 0.5625(5) 0.4447(6) 0.1776(5) 0.0623 Uani
H1GA H 0.5666 0.4515 0.1459 0.0750 Uiso
O1GA O 0.6049(5) 0.4071(9) 0.2368(7) 0.1243 Uani
C1GA C 0.6055(7) 0.4297(10) 0.2028(9) 0.0897 Uani
C2GA C 0.6525(8) 0.4324(12) 0.1682(10) 0.1270 Uani
H2GA H 0.6491 0.4605 0.1453 0.1910 Uiso
H3GA H 0.6823 0.4371 0.1886 0.1910 Uiso
H4GA H 0.6555 0.4015 0.1493 0.1910 Uiso
O2GA O 0.52963(15) 0.47837(17) 0.09216(14) 0.0403 Uani
O3GA O 0.45126(14) 0.50026(14) 0.08602(13) 0.0328 Uani
O4GA O 0.39526(17) 0.41649(18) 0.32202(16) 0.0477 Uani
O5GA O 0.47413(16) 0.41154(17) 0.34171(15) 0.0440 Uani
C3GA C 0.4877(2) 0.4815(2) 0.11035(19) 0.0297 Uani
C4GA C 0.4766(2) 0.46249(19) 0.16185(19) 0.0310 Uani
C5GA C 0.4277(2) 0.4584(2) 0.1768(2) 0.0357 Uani
H5GA H 0.4016 0.4668 0.1545 0.0430 Uiso
C6GA C 0.4167(2) 0.4418(2) 0.2244(2) 0.0417 Uani
H6GA H 0.3830 0.4379 0.2343 0.0500 Uiso
C7GA C 0.4540(2) 0.4308(2) 0.2575(2) 0.0383 Uani
C8GA C 0.5034(2) 0.4347(3) 0.2427(2) 0.0423 Uani
H7GA H 0.5292 0.4266 0.2653 0.0510 Uiso
C9GA C 0.5150(2) 0.4504(3) 0.1949(2) 0.0440 Uani
C10GA C 0.4406(2) 0.4179(2) 0.3104(2) 0.0347 Uani
Ce2A Ce 0.58551(2) 0.58551(2) -0.41449(2) 0.0269 Uani
Ce2C Ce 0.41449(2) 0.08551(2) -0.08551(2) 0.0269 Uani
Ce2N Ce 0.58551(2) 0.41449(2) -0.08551(2) 0.0269 Uani
Ce2Y Ce 0.41449(2) 0.41449(2) 0.41449(2) 0.0269 Uani
Ce2AA Ce 0.58551(2) 0.91449(2) 0.08551(2) 0.0269 Uani
Ce2LA Ce 0.41449(2) 0.58551(2) 0.08551(2) 0.0269 Uani
O3N O 0.91398(13) 0.45126(14) 0.00026(14) 0.0328 Uani
O3Q O 0.99974(14) 0.41398(13) 0.04874(14) 0.0328 Uani
O3T O 0.95126(14) 0.49974(14) 0.08602(13) 0.0328 Uani
O3LA O 0.08602(13) 0.54874(14) -0.00026(14) 0.0328 Uani
O3OA O 0.00026(14) 0.58602(13) -0.04874(14) 0.0328 Uani
O3RA O 0.04874(14) 0.50026(14) -0.08602(13) 0.0328 Uani
O4G O 0.91649(18) 0.32202(16) 0.10474(17) 0.0477 Uani
O4J O 0.89526(17) 0.41649(18) 0.17798(16) 0.0477 Uani
O4EA O 0.08351(18) 0.67798(16) -0.10474(17) 0.0477 Uani
O4HA O 0.10474(17) 0.58351(18) -0.17798(16) 0.0477 Uani
O5G O 0.91154(17) 0.34171(15) 0.02587(16) 0.0440 Uani
O5J O 0.97413(16) 0.41154(17) 0.15829(15) 0.0440 Uani
O5EA O 0.08846(17) 0.65829(15) -0.02587(16) 0.0440 Uani
O5HA O 0.02587(16) 0.58846(17) -0.15829(15) 0.0440 Uani
loop_
_atom_site_aniso_label
_atom_site_aniso_U_11
_atom_site_aniso_U_22
_atom_site_aniso_U_33
_atom_site_aniso_U_23
_atom_site_aniso_U_13
_atom_site_aniso_U_12
Ce1 0.0240(2) 0.0240(2) 0.0240(2) 0.00259(16) -0.00259(16) -0.00259(16)
Ce2 0.02685(19) 0.02685(19) 0.02685(19) -0.00369(11) -0.00369(11) 0.00369(11)
N1 0.048(6) 0.066(5) 0.073(7) -0.014(6) -0.010(6) 0.004(4)
O1 0.124(11) 0.073(8) 0.176(15) -0.054(9) -0.054(10) -0.020(7)
C1 0.102(9) 0.064(6) 0.103(10) -0.017(7) -0.004(7) -0.007(6)
C2 0.136(14) 0.077(8) 0.168(18) 0.002(12) -0.008(13) 0.007(9)
O2 0.031(2) 0.035(2) 0.055(3) -0.0001(19) -0.0076(18) 0.0015(17)
O3 0.0285(19) 0.038(2) 0.032(2) -0.0002(16) -0.0080(15) -0.0046(16)
O4 0.034(2) 0.043(2) 0.066(3) 0.003(2) -0.009(2) 0.0030(18)
O5 0.030(2) 0.041(2) 0.061(3) -0.009(2) -0.0108(19) 0.0055(17)
C3 0.025(2) 0.036(3) 0.028(3) 0.004(2) 0.000(2) 0.000(2)
C4 0.026(3) 0.040(3) 0.027(3) 0.002(2) -0.003(2) 0.000(2)
C5 0.027(3) 0.036(3) 0.044(3) 0.003(2) -0.008(2) 0.000(2)
C6 0.038(3) 0.035(3) 0.052(4) -0.002(3) -0.003(3) 0.005(2)
C7 0.027(3) 0.054(3) 0.034(3) -0.004(3) -0.005(2) 0.003(2)
C8 0.030(3) 0.040(3) 0.057(4) -0.012(3) -0.009(3) -0.005(2)
C9 0.026(3) 0.047(3) 0.059(4) -0.002(3) -0.005(3) 0.004(2)
C10 0.030(3) 0.041(3) 0.033(3) -0.005(2) 0.000(2) 0.008(2)
N1F 0.073 0.048 0.066 -0.004 0.014 -0.01
O1F 0.176 0.124 0.073 0.02 0.054 -0.054
C1F 0.103 0.102 0.064 0.007 0.017 -0.004
C2F 0.168 0.136 0.077 -0.007 -0.002 -0.008
O2F 0.055 0.031 0.035 -0.0015 0.0001 -0.0076
O3F 0.032 0.0285 0.038 0.0046 0.0002 -0.008
O4F 0.066 0.034 0.043 -0.003 -0.003 -0.009
O5F 0.061 0.03 0.041 -0.0055 0.009 -0.0108
C3F 0.028 0.025 0.036 0 -0.004 0
C4F 0.027 0.026 0.04 0 -0.002 -0.003
C5F 0.044 0.027 0.036 0 -0.003 -0.008
C6F 0.052 0.038 0.035 -0.005 0.002 -0.003
C7F 0.034 0.027 0.054 -0.003 0.004 -0.005
C8F 0.057 0.03 0.04 0.005 0.012 -0.009
C9F 0.059 0.026 0.047 -0.004 0.002 -0.005
C10F 0.033 0.03 0.041 -0.008 0.005 0
N1I 0.066 0.073 0.048 0.01 0.004 0.014
O1I 0.073 0.176 0.124 0.054 -0.02 0.054
C1I 0.064 0.103 0.102 0.004 -0.007 0.017
C2I 0.077 0.168 0.136 0.008 0.007 -0.002
O2I 0.035 0.055 0.031 0.0076 0.0015 0.0001
O3I 0.038 0.032 0.0285 0.008 -0.0046 0.0002
O4I 0.043 0.066 0.034 0.009 0.003 -0.003
O5I 0.041 0.061 0.03 0.0108 0.0055 0.009
C3I 0.036 0.028 0.025 0 0 -0.004
C4I 0.04 0.027 0.026 0.003 0 -0.002
C5I 0.036 0.044 0.027 0.008 0 -0.003
C6I 0.035 0.052 0.038 0.003 0.005 0.002
C7I 0.054 0.034 0.027 0.005 0.003 0.004
C8I 0.04 0.057 0.03 0.009 -0.005 0.012
C9I 0.047 0.059 0.026 0.005 0.004 0.002
C10I 0.041 0.033 0.03 0 0.008 0.005
Ce2X 0.02685 0.02685 0.02685 -0.00369 -0.00369 0.00369
N1X 0.048 0.066 0.073 -0.014 -0.01 0.004
O1X 0.124 0.073 0.176 -0.054 -0.054 -0.02
C1X 0.102 0.064 0.103 -0.017 -0.004 -0.007
C2X 0.136 0.077 0.168 0.002 -0.008 0.007
O2X 0.031 0.035 0.055 -0.0001 -0.0076 0.0015
O3X 0.0285 0.038 0.032 -0.0002 -0.008 -0.0046
O4X 0.034 0.043 0.066 0.003 -0.009 0.003
O5X 0.03 0.041 0.061 -0.009 -0.0108 0.0055
C3X 0.025 0.036 0.028 0.004 0 0
C4X 0.026 0.04 0.027 0.002 -0.003 0
C5X 0.027 0.036 0.044 0.003 -0.008 0
C6X 0.038 0.035 0.052 -0.002 -0.003 0.005
C7X 0.027 0.054 0.034 -0.004 -0.005 0.003
C8X 0.03 0.04 0.057 -0.012 -0.009 -0.005
C9X 0.026 0.047 0.059 -0.002 -0.005 0.004
C10X 0.03 0.041 0.033 -0.005 0 0.008
N1DA 0.073 0.048 0.066 -0.004 0.014 -0.01
O1DA 0.176 0.124 0.073 0.02 0.054 -0.054
C1DA 0.103 0.102 0.064 0.007 0.017 -0.004
C2DA 0.168 0.136 0.077 -0.007 -0.002 -0.008
O2DA 0.055 0.031 0.035 -0.0015 0.0001 -0.0076
O3DA 0.032 0.0285 0.038 0.0046 0.0002 -0.008
O4DA 0.066 0.034 0.043 -0.003 -0.003 -0.009
O5DA 0.061 0.03 0.041 -0.0055 0.009 -0.0108
C3DA 0.028 0.025 0.036 0 -0.004 0
C4DA 0.027 0.026 0.04 0 -0.002 -0.003
C5DA 0.044 0.027 0.036 0 -0.003 -0.008
C6DA 0.052 0.038 0.035 -0.005 0.002 -0.003
C7DA 0.034 0.027 0.054 -0.003 0.004 -0.005
C8DA 0.057 0.03 0.04 0.005 0.012 -0.009
C9DA 0.059 0.026 0.047 -0.004 0.002 -0.005
C10DA 0.033 0.03 0.041 -0.008 0.005 0
N1GA 0.066 0.073 0.048 0.01 0.004 0.014
O1GA 0.073 0.176 0.124 0.054 -0.02 0.054
C1GA 0.064 0.103 0.102 0.004 -0.007 0.017
C2GA 0.077 0.168 0.136 0.008 0.007 -0.002
O2GA 0.035 0.055 0.031 0.0076 0.0015 0.0001
O3GA 0.038 0.032 0.0285 0.008 -0.0046 0.0002
O4GA 0.043 0.066 0.034 0.009 0.003 -0.003
O5GA 0.041 0.061 0.03 0.0108 0.0055 0.009
C3GA 0.036 0.028 0.025 0 0 -0.004
C4GA 0.04 0.027 0.026 0.003 0 -0.002
C5GA 0.036 0.044 0.027 0.008 0 -0.003
C6GA 0.035 0.052 0.038 0.003 0.005 0.002
C7GA 0.054 0.034 0.027 0.005 0.003 0.004
C8GA 0.04 0.057 0.03 0.009 -0.005 0.012
C9GA 0.047 0.059 0.026 0.005 0.004 0.002
C10GA 0.041 0.033 0.03 0 0.008 0.005
Ce2A 0.02685 0.02685 0.02685 0.00369 0.00369 0.00369
Ce2C 0.02685 0.02685 0.02685 -0.00369 0.00369 -0.00369
Ce2N 0.02685 0.02685 0.02685 0.00369 -0.00369 -0.00369
Ce2Y 0.02685 0.02685 0.02685 0.00369 0.00369 0.00369
Ce2AA 0.02685 0.02685 0.02685 -0.00369 0.00369 -0.00369
Ce2LA 0.02685 0.02685 0.02685 0.00369 -0.00369 -0.00369
O3N 0.0285 0.038 0.032 0.0002 -0.008 0.0046
O3Q 0.032 0.0285 0.038 -0.0046 0.0002 0.008
O3T 0.038 0.032 0.0285 -0.008 -0.0046 -0.0002
O3LA 0.0285 0.038 0.032 0.0002 -0.008 0.0046
O3OA 0.032 0.0285 0.038 -0.0046 0.0002 0.008
O3RA 0.038 0.032 0.0285 -0.008 -0.0046 -0.0002
O4G 0.066 0.034 0.043 -0.003 0.003 0.009
O4J 0.043 0.066 0.034 -0.009 -0.003 -0.003
O4EA 0.066 0.034 0.043 -0.003 0.003 0.009
O4HA 0.043 0.066 0.034 -0.009 -0.003 -0.003
O5G 0.061 0.03 0.041 -0.0055 -0.009 0.0108
O5J 0.041 0.061 0.03 -0.0108 -0.0055 0.009
O5EA 0.061 0.03 0.041 -0.0055 -0.009 0.0108
O5HA 0.041 0.061 0.03 -0.0108 -0.0055 0.009
loop_
_geom_bond_atom_site_label_1
_geom_bond_atom_site_label_2
_geom_bond_site_symmetry_1
_geom_bond_site_symmetry_2
Ce1 O2 1_555 1_555
Ce2 O4 1_555 1_555
N1 H1 1_555 1_555
O1 C1 1_555 1_555
C1 N1 1_555 1_555
C2 C1 1_555 1_555
H2 C2 1_555 1_555
H3 C2 1_555 1_555
H4 C2 1_555 1_555
O2 C3 1_555 1_555
O3 Ce1 1_555 1_555
O4 C10 1_555 1_555
O5 Ce2 1_555 1_555
C3 O3 1_555 1_555
C4 C3 1_555 1_555
C5 C4 1_555 1_555
H5 C5 1_555 1_555
C6 C5 1_555 1_555
H6 C6 1_555 1_555
C7 C6 1_555 1_555
C8 C7 1_555 1_555
H7 C8 1_555 1_555
C9 N1 1_555 1_555
C10 O5 1_555 1_555
N1F H1F 1_555 1_555
O1F C1F 1_555 1_555
C1F N1F 1_555 1_555
C2F C1F 1_555 1_555
H2F C2F 1_555 1_555
H3F C2F 1_555 1_555
H4F C2F 1_555 1_555
O2F Ce1 1_555 1_555
O3F Ce1 1_555 1_555
O4F C10F 1_555 1_555
O5F C10F 1_555 1_555
C3F O2F 1_555 1_555
C4F C3F 1_555 1_555
C5F C4F 1_555 1_555
H5F C5F 1_555 1_555
C6F C5F 1_555 1_555
H6F C6F 1_555 1_555
C7F C6F 1_555 1_555
C8F C7F 1_555 1_555
H7F C8F 1_555 1_555
C9F N1F 1_555 1_555
C10F C7F 1_555 1_555
N1I H1I 1_555 1_555
O1I C1I 1_555 1_555
C1I N1I 1_555 1_555
C2I C1I 1_555 1_555
H2I C2I 1_555 1_555
H3I C2I 1_555 1_555
H4I C2I 1_555 1_555
O2I Ce1 1_555 1_555
O3I Ce1 1_555 1_555
O4I C10I 1_555 1_555
O5I C10I 1_555 1_555
C3I O2I 1_555 1_555
C4I C3I 1_555 1_555
C5I C4I 1_555 1_555
H5I C5I 1_555 1_555
C6I C5I 1_555 1_555
H6I C6I 1_555 1_555
C7I C6I 1_555 1_555
C8I C7I 1_555 1_555
H7I C8I 1_555 1_555
C9I N1I 1_555 1_555
C10I C7I 1_555 1_555
Ce2X O4X 1_555 1_555
N1X H1X 1_555 1_555
O1X C1X 1_555 1_555
C1X N1X 1_555 1_555
C2X C1X 1_555 1_555
H2X C2X 1_555 1_555
H3X C2X 1_555 1_555
H4X C2X 1_555 1_555
O2X Ce1 1_555 1_555
O3X Ce1 1_555 1_555
O4X C10X 1_555 1_555
O5X Ce2X 1_555 1_555
C3X O2X 1_555 1_555
C4X C3X 1_555 1_555
C5X C4X 1_555 1_555
H5X C5X 1_555 1_555
C6X C5X 1_555 1_555
H6X C6X 1_555 1_555
C7X C6X 1_555 1_555
C8X C7X 1_555 1_555
H7X C8X 1_555 1_555
C9X N1X 1_555 1_555
C10X O5X 1_555 1_555
N1DA H1DA 1_555 1_555
O1DA C1DA 1_555 1_555
C1DA N1DA 1_555 1_555
C2DA C1DA 1_555 1_555
H2DA C2DA 1_555 1_555
H3DA C2DA 1_555 1_555
H4DA C2DA 1_555 1_555
O2DA Ce1 1_555 1_555
O3DA Ce1 1_555 1_555
O4DA C10DA 1_555 1_555
O5DA C10DA 1_555 1_555
C3DA O2DA 1_555 1_555
C4DA C3DA 1_555 1_555
C5DA C4DA 1_555 1_555
H5DA C5DA 1_555 1_555
C6DA C5DA 1_555 1_555
H6DA C6DA 1_555 1_555
C7DA C6DA 1_555 1_555
C8DA C7DA 1_555 1_555
H7DA C8DA 1_555 1_555
C9DA N1DA 1_555 1_555
C10DA C7DA 1_555 1_555
N1GA H1GA 1_555 1_555
O1GA C1GA 1_555 1_555
C1GA N1GA 1_555 1_555
C2GA C1GA 1_555 1_555
H2GA C2GA 1_555 1_555
H3GA C2GA 1_555 1_555
H4GA C2GA 1_555 1_555
O2GA Ce1 1_555 1_555
O3GA Ce1 1_555 1_555
O4GA C10GA 1_555 1_555
O5GA C10GA 1_555 1_555
C3GA O2GA 1_555 1_555
C4GA C3GA 1_555 1_555
C5GA C4GA 1_555 1_555
H5GA C5GA 1_555 1_555
C6GA C5GA 1_555 1_555
H6GA C6GA 1_555 1_555
C7GA C6GA 1_555 1_555
C8GA C7GA 1_555 1_555
H7GA C8GA 1_555 1_555
C9GA N1GA 1_555 1_555
C10GA C7GA 1_555 1_555
Ce2A O4I 1_555 1_555
Ce2C O4F 1_555 1_555
Ce2N O3 1_555 1_555
Ce2Y O4GA 1_555 1_555
Ce2AA O4DA 1_555 1_555
Ce2LA O3X 1_555 1_555
O3N Ce2 1_555 1_555
O3Q Ce2 1_555 1_555
O3T Ce2 1_555 1_555
O3LA Ce2X 1_555 1_555
O3OA Ce2X 1_555 1_555
O3RA Ce2X 1_555 1_555
O4G Ce2 1_555 1_555
O4J Ce2 1_555 1_555
O4EA Ce2X 1_555 1_555
O4HA Ce2X 1_555 1_555
O5G Ce2 1_555 1_555
O5J Ce2 1_555 1_555
O5EA Ce2X 1_555 1_555
O5HA Ce2X 1_555 1_555
C4 C9 1_555 1_555
C7 C10 1_555 1_555
C8 C9 1_555 1_555
O3F C3F 1_555 1_555
O3F Ce2N 1_555 1_555
O5F Ce2C 1_555 1_555
C4F C9F 1_555 1_555
C8F C9F 1_555 1_555
O3I C3I 1_555 1_555
O3I Ce2N 1_555 1_555
O5I Ce2A 1_555 1_555
C4I C9I 1_555 1_555
C8I C9I 1_555 1_555
O3X C3X 1_555 1_555
C4X C9X 1_555 1_555
C7X C10X 1_555 1_555
C8X C9X 1_555 1_555
O3DA C3DA 1_555 1_555
O3DA Ce2LA 1_555 1_555
O5DA Ce2AA 1_555 1_555
C4DA C9DA 1_555 1_555
C8DA C9DA 1_555 1_555
O3GA C3GA 1_555 1_555
O3GA Ce2LA 1_555 1_555
O5GA Ce2Y 1_555 1_555
C4GA C9GA 1_555 1_555
C8GA C9GA 1_555 1_555

#END
