
#######################################################################
#
#                 Cambridge Crystallographic Data Centre
#                                CCDC 
#
#######################################################################
#
# If this CIF has been generated from an entry in the Cambridge 
# Structural Database, then it will include bibliographic, chemical, 
# crystal, experimental, refinement or atomic coordinate data resulting 
# from the CCDC's data processing and validation procedures.
#
#######################################################################

data_NAFWEZ
_chemical_formula_moiety         '(C60 H42 N6 O30 Sm3 3-)n'
_symmetry_cell_setting           cubic
_symmetry_space_group_name_H-M   'I a -3'
_symmetry_Int_Tables_number      206
_space_group_name_Hall           '-I 2b 2c 3'
loop_
_symmetry_equiv_pos_site_id
_symmetry_equiv_pos_as_xyz
1 x,y,z
2 1/2-x,-y,1/2+z
3 -x,1/2+y,1/2-z
4 1/2+x,1/2-y,-z
5 z,x,y
6 1/2+z,1/2-x,-y
7 1/2-z,-x,1/2+y
8 -z,1/2+x,1/2-y
9 y,z,x
10 -y,1/2+z,1/2-x
11 1/2+y,1/2-z,-x
12 1/2-y,-z,1/2+x
13 1/2+x,1/2+y,1/2+z
14 -x,1/2-y,z
15 1/2-x,y,-z
16 x,-y,1/2-z
17 1/2+z,1/2+x,1/2+y
18 z,-x,1/2-y
19 -z,1/2-x,y
20 1/2-z,x,-y
21 1/2+y,1/2+z,1/2+x
22 1/2-y,z,-x
23 y,-z,1/2-x
24 -y,1/2-z,x
25 -x,-y,-z
26 1/2+x,y,1/2-z
27 x,1/2-y,1/2+z
28 1/2-x,1/2+y,z
29 -z,-x,-y
30 1/2-z,1/2+x,y
31 1/2+z,x,1/2-y
32 z,1/2-x,1/2+y
33 -y,-z,-x
34 y,1/2-z,1/2+x
35 1/2-y,1/2+z,x
36 1/2+y,z,1/2-x
37 1/2-x,1/2-y,1/2-z
38 x,1/2+y,-z
39 1/2+x,-y,z
40 -x,y,1/2+z
41 1/2-z,1/2-x,1/2-y
42 -z,x,1/2+y
43 z,1/2+x,-y
44 1/2+z,-x,y
45 1/2-y,1/2-z,1/2-x
46 1/2+y,-z,x
47 -y,z,1/2+x
48 y,1/2+z,-x
_cell_length_a                   26.681(3)
_cell_length_b                   26.681(3)
_cell_length_c                   26.681(3)
_cell_angle_alpha                90
_cell_angle_beta                 90
_cell_angle_gamma                90
_cell_volume                     18993.6
loop_
_atom_site_label
_atom_site_type_symbol
_atom_site_fract_x
_atom_site_fract_y
_atom_site_fract_z
_atom_site_U_iso_or_equiv
_atom_site_thermal_displace_type
Sm1 Sm 0.7500 0.2500 0.2500 0.0125 Uani
Sm2 Sm 0.83408(2) 0.33408(2) 0.16592(2) 0.0139 Uani
N1 N 0.6868(5) 0.4324(7) 0.2898(8) 0.0813 Uani
H1 H 0.6822 0.4028 0.2759 0.0980 Uiso
O1 O 0.6492(9) 0.5080(8) 0.3034(12) 0.1700 Uani
C1 C 0.6419(7) 0.4602(8) 0.2982(12) 0.1060 Uani
C2 C 0.5932(10) 0.4285(12) 0.2829(14) 0.1507 Uani
H2 H 0.5958 0.3946 0.2969 0.2260 Uiso
H3 H 0.5909 0.4264 0.2463 0.2260 Uiso
H4 H 0.5632 0.4449 0.2961 0.2260 Uiso
O2 O 0.72275(18) 0.34059(16) 0.27411(18) 0.0223 Uani
O3 O 0.80145(17) 0.33351(16) 0.25108(16) 0.0177 Uani
O4 O 0.77647(17) 0.59314(17) 0.33411(18) 0.0210 Uani
O5 O 0.85691(18) 0.57603(18) 0.33047(19) 0.0253 Uani
C3 C 0.7655(3) 0.3591(2) 0.2695(2) 0.0170 Uani
C4 C 0.7764(3) 0.4109(2) 0.2884(2) 0.0203 Uani
C5 C 0.8252(3) 0.4265(3) 0.2926(3) 0.0237 Uani
H5 H 0.8513 0.4037 0.2845 0.0280 Uiso
C6 C 0.8375(3) 0.4737(3) 0.3079(3) 0.0247 Uani
H6 H 0.8716 0.4832 0.3117 0.0300 Uiso
C7 C 0.7990(3) 0.5081(3) 0.3179(2) 0.0233 Uani
C8 C 0.7493(3) 0.4936(3) 0.3143(3) 0.0293 Uani
H7 H 0.7232 0.5168 0.3215 0.0350 Uiso
C9 C 0.7378(3) 0.4444(3) 0.3001(3) 0.0287 Uani
C10 C 0.8116(3) 0.5618(3) 0.3292(3) 0.0223 Uani
N1G N 0.7102(8) 0.1868(5) 0.0676(7) 0.0813 Uani
H1G H 0.7241 0.1822 0.0972 0.0980 Uiso
O1G O 0.6966(12) 0.1492(9) -0.0080(8) 0.1700 Uani
C1G C 0.7018(12) 0.1419(7) 0.0398(8) 0.1060 Uani
C2G C 0.7171(14) 0.0932(10) 0.0715(12) 0.1507 Uani
H2G H 0.7031 0.0958 0.1054 0.2260 Uiso
H3G H 0.7537 0.0909 0.0736 0.2260 Uiso
H4G H 0.7039 0.0632 0.0551 0.2260 Uiso
O2G O 0.72589(18) 0.22275(18) 0.15941(16) 0.0223 Uani
O3G O 0.74892(16) 0.30145(17) 0.16649(16) 0.0177 Uani
O4G O 0.66589(18) 0.27647(17) -0.09314(17) 0.0210 Uani
O5G O 0.66953(19) 0.35691(18) -0.07603(18) 0.0253 Uani
C3G C 0.7305(2) 0.2655(3) 0.1409(2) 0.0170 Uani
C4G C 0.7116(2) 0.2764(3) 0.0891(2) 0.0203 Uani
C5G C 0.7074(3) 0.3252(3) 0.0735(3) 0.0237 Uani
H5G H 0.7155 0.3513 0.0963 0.0280 Uiso
C6G C 0.6921(3) 0.3375(3) 0.0263(3) 0.0247 Uani
H6G H 0.6883 0.3716 0.0168 0.0300 Uiso
C7G C 0.6821(2) 0.2990(3) -0.0081(3) 0.0233 Uani
C8G C 0.6857(3) 0.2493(3) 0.0064(3) 0.0293 Uani
H7G H 0.6785 0.2232 -0.0168 0.0350 Uiso
C9G C 0.6999(3) 0.2378(3) 0.0556(3) 0.0287 Uani
C10G C 0.6708(3) 0.3116(3) -0.0618(3) 0.0223 Uani
N1J N 0.9324(7) 0.2102(8) 0.3132(5) 0.0813 Uani
H1J H 0.9028 0.2241 0.3178 0.0980 Uiso
O1J O 1.0080(8) 0.1966(12) 0.3508(9) 0.1700 Uani
C1J C 0.9602(8) 0.2018(12) 0.3581(7) 0.1060 Uani
C2J C 0.9285(12) 0.2171(14) 0.4068(10) 0.1507 Uani
H2J H 0.8946 0.2031 0.4042 0.2260 Uiso
H3J H 0.9264 0.2537 0.4091 0.2260 Uiso
H4J H 0.9449 0.2039 0.4368 0.2260 Uiso
O2J O 0.84059(16) 0.22589(18) 0.27725(18) 0.0223 Uani
O3J O 0.83351(16) 0.24892(16) 0.19855(17) 0.0177 Uani
O4J O 1.09314(17) 0.16589(18) 0.22353(17) 0.0210 Uani
O5J O 1.07603(18) 0.16953(19) 0.14309(18) 0.0253 Uani
C3J C 0.8591(2) 0.2305(2) 0.2345(3) 0.0170 Uani
C4J C 0.9109(2) 0.2116(2) 0.2236(3) 0.0203 Uani
C5J C 0.9265(3) 0.2074(3) 0.1748(3) 0.0237 Uani
H5J H 0.9037 0.2155 0.1487 0.0280 Uiso
C6J C 0.9737(3) 0.1921(3) 0.1625(3) 0.0247 Uani
H6J H 0.9832 0.1883 0.1284 0.0300 Uiso
C7J C 1.0081(3) 0.1821(2) 0.2010(3) 0.0233 Uani
C8J C 0.9936(3) 0.1857(3) 0.2507(3) 0.0293 Uani
H7J H 1.0168 0.1785 0.2768 0.0350 Uiso
C9J C 0.9444(3) 0.1999(3) 0.2622(3) 0.0287 Uani
C10J C 1.0618(3) 0.1708(3) 0.1884(3) 0.0223 Uani
Sm2JA Sm 0.66592(2) 0.16592(2) 0.33408(2) 0.0139 Uani
N1JA N 0.8132(5) 0.0676(7) 0.2102(8) 0.0813 Uani
H1JA H 0.8178 0.0972 0.2241 0.0980 Uiso
O1JA O 0.8508(9) -0.0080(8) 0.1966(12) 0.1700 Uani
C1JA C 0.8581(7) 0.0398(8) 0.2018(12) 0.1060 Uani
C2JA C 0.9068(10) 0.0715(12) 0.2171(14) 0.1507 Uani
H2JA H 0.9042 0.1054 0.2031 0.2260 Uiso
H3JA H 0.9091 0.0736 0.2537 0.2260 Uiso
H4JA H 0.9368 0.0551 0.2039 0.2260 Uiso
O2JA O 0.77725(18) 0.15941(16) 0.22589(18) 0.0223 Uani
O3JA O 0.69855(17) 0.16649(16) 0.24892(16) 0.0177 Uani
O4JA O 0.72353(17) -0.09314(17) 0.16589(18) 0.0210 Uani
O5JA O 0.64309(18) -0.07603(18) 0.16953(19) 0.0253 Uani
C3JA C 0.7345(3) 0.1409(2) 0.2305(2) 0.0170 Uani
C4JA C 0.7236(3) 0.0891(2) 0.2116(2) 0.0203 Uani
C5JA C 0.6748(3) 0.0735(3) 0.2074(3) 0.0237 Uani
H5JA H 0.6487 0.0963 0.2155 0.0280 Uiso
C6JA C 0.6625(3) 0.0263(3) 0.1921(3) 0.0247 Uani
H6JA H 0.6284 0.0168 0.1883 0.0300 Uiso
C7JA C 0.7010(3) -0.0081(3) 0.1821(2) 0.0233 Uani
C8JA C 0.7507(3) 0.0064(3) 0.1857(3) 0.0293 Uani
H7JA H 0.7768 -0.0168 0.1785 0.0350 Uiso
C9JA C 0.7622(3) 0.0556(3) 0.1999(3) 0.0287 Uani
C10JA C 0.6884(3) -0.0618(3) 0.1708(3) 0.0223 Uani
N1QA N 0.7898(8) 0.3132(5) 0.4324(7) 0.0813 Uani
H1QA H 0.7759 0.3178 0.4028 0.0980 Uiso
O1QA O 0.8034(12) 0.3508(9) 0.5080(8) 0.1700 Uani
C1QA C 0.7982(12) 0.3581(7) 0.4602(8) 0.1060 Uani
C2QA C 0.7829(14) 0.4068(10) 0.4285(12) 0.1507 Uani
H2QA H 0.7969 0.4042 0.3946 0.2260 Uiso
H3QA H 0.7463 0.4091 0.4264 0.2260 Uiso
H4QA H 0.7961 0.4368 0.4449 0.2260 Uiso
O2QA O 0.77411(18) 0.27725(18) 0.34059(16) 0.0223 Uani
O3QA O 0.75108(16) 0.19855(17) 0.33351(16) 0.0177 Uani
O4QA O 0.83411(18) 0.22353(17) 0.59314(17) 0.0210 Uani
O5QA O 0.83047(19) 0.14309(18) 0.57603(18) 0.0253 Uani
C3QA C 0.7695(2) 0.2345(3) 0.3591(2) 0.0170 Uani
C4QA C 0.7884(2) 0.2236(3) 0.4109(2) 0.0203 Uani
C5QA C 0.7926(3) 0.1748(3) 0.4265(3) 0.0237 Uani
H5QA H 0.7845 0.1487 0.4037 0.0280 Uiso
C6QA C 0.8079(3) 0.1625(3) 0.4737(3) 0.0247 Uani
H6QA H 0.8117 0.1284 0.4832 0.0300 Uiso
C7QA C 0.8179(2) 0.2010(3) 0.5081(3) 0.0233 Uani
C8QA C 0.8143(3) 0.2507(3) 0.4936(3) 0.0293 Uani
H7QA H 0.8215 0.2768 0.5168 0.0350 Uiso
C9QA C 0.8001(3) 0.2622(3) 0.4444(3) 0.0287 Uani
C10QA C 0.8292(3) 0.1884(3) 0.5618(3) 0.0223 Uani
N1TA N 0.5676(7) 0.2898(8) 0.1868(5) 0.0813 Uani
H1TA H 0.5972 0.2759 0.1822 0.0980 Uiso
O1TA O 0.4920(8) 0.3034(12) 0.1492(9) 0.1700 Uani
C1TA C 0.5398(8) 0.2982(12) 0.1419(7) 0.1060 Uani
C2TA C 0.5715(12) 0.2829(14) 0.0932(10) 0.1507 Uani
H2TA H 0.6054 0.2969 0.0958 0.2260 Uiso
H3TA H 0.5736 0.2463 0.0909 0.2260 Uiso
H4TA H 0.5551 0.2961 0.0632 0.2260 Uiso
O2TA O 0.65941(16) 0.27411(18) 0.22275(18) 0.0223 Uani
O3TA O 0.66649(16) 0.25108(16) 0.30145(17) 0.0177 Uani
O4TA O 0.40686(17) 0.33411(18) 0.27647(17) 0.0210 Uani
O5TA O 0.42397(18) 0.33047(19) 0.35691(18) 0.0253 Uani
C3TA C 0.6409(2) 0.2695(2) 0.2655(3) 0.0170 Uani
C4TA C 0.5891(2) 0.2884(2) 0.2764(3) 0.0203 Uani
C5TA C 0.5735(3) 0.2926(3) 0.3252(3) 0.0237 Uani
H5TA H 0.5963 0.2845 0.3513 0.0280 Uiso
C6TA C 0.5263(3) 0.3079(3) 0.3375(3) 0.0247 Uani
H6TA H 0.5168 0.3117 0.3716 0.0300 Uiso
C7TA C 0.4919(3) 0.3179(2) 0.2990(3) 0.0233 Uani
C8TA C 0.5064(3) 0.3143(3) 0.2493(3) 0.0293 Uani
H7TA H 0.4832 0.3215 0.2232 0.0350 Uiso
C9TA C 0.5556(3) 0.3001(3) 0.2378(3) 0.0287 Uani
C10TA C 0.4382(3) 0.3292(3) 0.3116(3) 0.0223 Uani
Sm2M Sm 1.16592(2) 0.16592(2) 0.16592(2) 0.0139 Uani
Sm2N Sm 0.66592(2) 0.33408(2) -0.16592(2) 0.0139 Uani
Sm2O Sm 0.83408(2) 0.66592(2) 0.33408(2) 0.0139 Uani
Sm2Y Sm 0.33408(2) 0.33408(2) 0.33408(2) 0.0139 Uani
Sm2Z Sm 0.83408(2) 0.16592(2) 0.66592(2) 0.0139 Uani
Sm2AA Sm 0.66592(2) -0.16592(2) 0.16592(2) 0.0139 Uani
O4O O 0.77647(17) 0.40686(17) 0.16589(18) 0.0210 Uani
O4P O 0.83411(18) 0.27647(17) 0.09314(17) 0.0210 Uani
O4U O 0.90686(17) 0.33411(18) 0.22353(17) 0.0210 Uani
O4AA O 0.72353(17) 0.09314(17) 0.33411(18) 0.0210 Uani
O4BA O 0.66589(18) 0.22353(17) 0.40686(17) 0.0210 Uani
O4GA O 0.59314(17) 0.16589(18) 0.27647(17) 0.0210 Uani
O5O O 0.85691(18) 0.42397(18) 0.16953(19) 0.0253 Uani
O5P O 0.83047(19) 0.35691(18) 0.07603(18) 0.0253 Uani
O5U O 0.92397(18) 0.33047(19) 0.14309(18) 0.0253 Uani
O5AA O 0.64309(18) 0.07603(18) 0.33047(19) 0.0253 Uani
O5BA O 0.66953(19) 0.14309(18) 0.42397(18) 0.0253 Uani
O5GA O 0.57603(18) 0.16953(19) 0.35691(18) 0.0253 Uani
loop_
_atom_site_aniso_label
_atom_site_aniso_U_11
_atom_site_aniso_U_22
_atom_site_aniso_U_33
_atom_site_aniso_U_23
_atom_site_aniso_U_13
_atom_site_aniso_U_12
Sm1 0.0125(2) 0.0125(2) 0.0125(2) -0.0015(2) -0.0015(2) 0.0015(2)
Sm2 0.01389(18) 0.01389(18) 0.01389(18) -0.00192(14) -0.00192(14) 0.00192(14)
N1 0.066(5) 0.076(7) 0.102(10) -0.010(8) -0.014(7) 0.002(5)
O1 0.174(14) 0.119(9) 0.217(19) -0.018(13) 0.004(14) 0.061(9)
C1 0.077(7) 0.124(9) 0.117(12) -0.004(9) 0.004(8) 0.016(7)
C2 0.090(9) 0.188(17) 0.174(19) 0.035(16) -0.016(15) -0.004(12)
O2 0.025(3) 0.013(2) 0.029(3) -0.001(2) 0.003(2) 0.001(2)
O3 0.018(2) 0.020(2) 0.015(2) 0.000(2) -0.0050(18) 0.0016(18)
O4 0.021(2) 0.017(2) 0.025(3) -0.005(2) 0.002(2) -0.0037(19)
O5 0.021(2) 0.020(2) 0.035(3) -0.005(2) 0.000(2) -0.002(2)
C3 0.024(3) 0.014(3) 0.013(3) 0.003(3) -0.003(3) 0.006(3)
C4 0.035(4) 0.014(3) 0.012(3) -0.004(3) -0.002(3) -0.006(3)
C5 0.029(4) 0.019(3) 0.023(4) -0.001(3) -0.002(3) 0.002(3)
C6 0.024(4) 0.026(4) 0.024(4) -0.003(3) 0.000(3) -0.005(3)
C7 0.038(4) 0.018(3) 0.014(3) 0.001(3) -0.001(3) -0.003(3)
C8 0.028(3) 0.022(4) 0.038(4) -0.003(3) 0.007(4) 0.001(3)
C9 0.040(4) 0.018(3) 0.028(4) -0.004(3) 0.007(3) 0.000(3)
C10 0.026(4) 0.018(3) 0.023(4) -0.008(3) -0.003(3) -0.004(3)
N1G 0.102 0.066 0.076 -0.002 -0.01 0.014
O1G 0.217 0.174 0.119 -0.061 -0.018 -0.004
C1G 0.117 0.077 0.124 -0.016 -0.004 -0.004
C2G 0.174 0.09 0.188 0.004 0.035 0.016
O2G 0.029 0.025 0.013 -0.001 -0.001 -0.003
O3G 0.015 0.018 0.02 -0.0016 0 0.005
O4G 0.025 0.021 0.017 0.0037 -0.005 -0.002
O5G 0.035 0.021 0.02 0.002 -0.005 0
C3G 0.013 0.024 0.014 -0.006 0.003 0.003
C4G 0.012 0.035 0.014 0.006 -0.004 0.002
C5G 0.023 0.029 0.019 -0.002 -0.001 0.002
C6G 0.024 0.024 0.026 0.005 -0.003 0
C7G 0.014 0.038 0.018 0.003 0.001 0.001
C8G 0.038 0.028 0.022 -0.001 -0.003 -0.007
C9G 0.028 0.04 0.018 0 -0.004 -0.007
C10G 0.023 0.026 0.018 0.004 -0.008 0.003
N1J 0.076 0.102 0.066 -0.014 -0.002 0.01
O1J 0.119 0.217 0.174 0.004 -0.061 0.018
C1J 0.124 0.117 0.077 0.004 -0.016 0.004
C2J 0.188 0.174 0.09 -0.016 0.004 -0.035
O2J 0.013 0.029 0.025 0.003 -0.001 0.001
O3J 0.02 0.015 0.018 -0.005 -0.0016 0
O4J 0.017 0.025 0.021 0.002 0.0037 0.005
O5J 0.02 0.035 0.021 0 0.002 0.005
C3J 0.014 0.013 0.024 -0.003 -0.006 -0.003
C4J 0.014 0.012 0.035 -0.002 0.006 0.004
C5J 0.019 0.023 0.029 -0.002 -0.002 0.001
C6J 0.026 0.024 0.024 0 0.005 0.003
C7J 0.018 0.014 0.038 -0.001 0.003 -0.001
C8J 0.022 0.038 0.028 0.007 -0.001 0.003
C9J 0.018 0.028 0.04 0.007 0 0.004
C10J 0.018 0.023 0.026 -0.003 0.004 0.008
Sm2JA 0.01389 0.01389 0.01389 -0.00192 -0.00192 0.00192
N1JA 0.066 0.076 0.102 -0.01 -0.014 0.002
O1JA 0.174 0.119 0.217 -0.018 0.004 0.061
C1JA 0.077 0.124 0.117 -0.004 0.004 0.016
C2JA 0.09 0.188 0.174 0.035 -0.016 -0.004
O2JA 0.025 0.013 0.029 -0.001 0.003 0.001
O3JA 0.018 0.02 0.015 0 -0.005 0.0016
O4JA 0.021 0.017 0.025 -0.005 0.002 -0.0037
O5JA 0.021 0.02 0.035 -0.005 0 -0.002
C3JA 0.024 0.014 0.013 0.003 -0.003 0.006
C4JA 0.035 0.014 0.012 -0.004 -0.002 -0.006
C5JA 0.029 0.019 0.023 -0.001 -0.002 0.002
C6JA 0.024 0.026 0.024 -0.003 0 -0.005
C7JA 0.038 0.018 0.014 0.001 -0.001 -0.003
C8JA 0.028 0.022 0.038 -0.003 0.007 0.001
C9JA 0.04 0.018 0.028 -0.004 0.007 0
C10JA 0.026 0.018 0.023 -0.008 -0.003 -0.004
N1QA 0.102 0.066 0.076 -0.002 -0.01 0.014
O1QA 0.217 0.174 0.119 -0.061 -0.018 -0.004
C1QA 0.117 0.077 0.124 -0.016 -0.004 -0.004
C2QA 0.174 0.09 0.188 0.004 0.035 0.016
O2QA 0.029 0.025 0.013 -0.001 -0.001 -0.003
O3QA 0.015 0.018 0.02 -0.0016 0 0.005
O4QA 0.025 0.021 0.017 0.0037 -0.005 -0.002
O5QA 0.035 0.021 0.02 0.002 -0.005 0
C3QA 0.013 0.024 0.014 -0.006 0.003 0.003
C4QA 0.012 0.035 0.014 0.006 -0.004 0.002
C5QA 0.023 0.029 0.019 -0.002 -0.001 0.002
C6QA 0.024 0.024 0.026 0.005 -0.003 0
C7QA 0.014 0.038 0.018 0.003 0.001 0.001
C8QA 0.038 0.028 0.022 -0.001 -0.003 -0.007
C9QA 0.028 0.04 0.018 0 -0.004 -0.007
C10QA 0.023 0.026 0.018 0.004 -0.008 0.003
N1TA 0.076 0.102 0.066 -0.014 -0.002 0.01
O1TA 0.119 0.217 0.174 0.004 -0.061 0.018
C1TA 0.124 0.117 0.077 0.004 -0.016 0.004
C2TA 0.188 0.174 0.09 -0.016 0.004 -0.035
O2TA 0.013 0.029 0.025 0.003 -0.001 0.001
O3TA 0.02 0.015 0.018 -0.005 -0.0016 0
O4TA 0.017 0.025 0.021 0.002 0.0037 0.005
O5TA 0.02 0.035 0.021 0 0.002 0.005
C3TA 0.014 0.013 0.024 -0.003 -0.006 -0.003
C4TA 0.014 0.012 0.035 -0.002 0.006 0.004
C5TA 0.019 0.023 0.029 -0.002 -0.002 0.001
C6TA 0.026 0.024 0.024 0 0.005 0.003
C7TA 0.018 0.014 0.038 -0.001 0.003 -0.001
C8TA 0.022 0.038 0.028 0.007 -0.001 0.003
C9TA 0.018 0.028 0.04 0.007 0 0.004
C10TA 0.018 0.023 0.026 -0.003 0.004 0.008
Sm2M 0.01389 0.01389 0.01389 0.00192 0.00192 0.00192
Sm2N 0.01389 0.01389 0.01389 0.00192 -0.00192 -0.00192
Sm2O 0.01389 0.01389 0.01389 -0.00192 0.00192 -0.00192
Sm2Y 0.01389 0.01389 0.01389 0.00192 0.00192 0.00192
Sm2Z 0.01389 0.01389 0.01389 0.00192 -0.00192 -0.00192
Sm2AA 0.01389 0.01389 0.01389 -0.00192 0.00192 -0.00192
O4O 0.021 0.017 0.025 -0.005 -0.002 0.0037
O4P 0.025 0.021 0.017 -0.0037 -0.005 0.002
O4U 0.017 0.025 0.021 -0.002 -0.0037 0.005
O4AA 0.021 0.017 0.025 -0.005 -0.002 0.0037
O4BA 0.025 0.021 0.017 -0.0037 -0.005 0.002
O4GA 0.017 0.025 0.021 -0.002 -0.0037 0.005
O5O 0.021 0.02 0.035 -0.005 0 0.002
O5P 0.035 0.021 0.02 -0.002 -0.005 0
O5U 0.02 0.035 0.021 0 -0.002 0.005
O5AA 0.021 0.02 0.035 -0.005 0 0.002
O5BA 0.035 0.021 0.02 -0.002 -0.005 0
O5GA 0.02 0.035 0.021 0 -0.002 0.005
loop_
_geom_bond_atom_site_label_1
_geom_bond_atom_site_label_2
_geom_bond_site_symmetry_1
_geom_bond_site_symmetry_2
Sm1 O2 1_555 1_555
Sm2 O3 1_555 1_555
N1 H1 1_555 1_555
O1 C1 1_555 1_555
C1 N1 1_555 1_555
C2 C1 1_555 1_555
H2 C2 1_555 1_555
H3 C2 1_555 1_555
H4 C2 1_555 1_555
O2 C3 1_555 1_555
O3 Sm1 1_555 1_555
O4 C10 1_555 1_555
O5 C10 1_555 1_555
C3 O3 1_555 1_555
C4 C3 1_555 1_555
C5 C4 1_555 1_555
H5 C5 1_555 1_555
C6 C5 1_555 1_555
H6 C6 1_555 1_555
C7 C6 1_555 1_555
C8 C7 1_555 1_555
H7 C8 1_555 1_555
C9 N1 1_555 1_555
C10 C7 1_555 1_555
N1G H1G 1_555 1_555
O1G C1G 1_555 1_555
C1G N1G 1_555 1_555
C2G C1G 1_555 1_555
H2G C2G 1_555 1_555
H3G C2G 1_555 1_555
H4G C2G 1_555 1_555
O2G Sm1 1_555 1_555
O3G Sm1 1_555 1_555
O4G C10G 1_555 1_555
O5G C10G 1_555 1_555
C3G O2G 1_555 1_555
C4G C3G 1_555 1_555
C5G C4G 1_555 1_555
H5G C5G 1_555 1_555
C6G C5G 1_555 1_555
H6G C6G 1_555 1_555
C7G C6G 1_555 1_555
C8G C7G 1_555 1_555
H7G C8G 1_555 1_555
C9G N1G 1_555 1_555
C10G C7G 1_555 1_555
N1J H1J 1_555 1_555
O1J C1J 1_555 1_555
C1J N1J 1_555 1_555
C2J C1J 1_555 1_555
H2J C2J 1_555 1_555
H3J C2J 1_555 1_555
H4J C2J 1_555 1_555
O2J Sm1 1_555 1_555
O3J Sm1 1_555 1_555
O4J C10J 1_555 1_555
O5J C10J 1_555 1_555
C3J O2J 1_555 1_555
C4J C3J 1_555 1_555
C5J C4J 1_555 1_555
H5J C5J 1_555 1_555
C6J C5J 1_555 1_555
H6J C6J 1_555 1_555
C7J C6J 1_555 1_555
C8J C7J 1_555 1_555
H7J C8J 1_555 1_555
C9J N1J 1_555 1_555
C10J C7J 1_555 1_555
Sm2JA O3JA 1_555 1_555
N1JA H1JA 1_555 1_555
O1JA C1JA 1_555 1_555
C1JA N1JA 1_555 1_555
C2JA C1JA 1_555 1_555
H2JA C2JA 1_555 1_555
H3JA C2JA 1_555 1_555
H4JA C2JA 1_555 1_555
O2JA Sm1 1_555 1_555
O3JA Sm1 1_555 1_555
O4JA C10JA 1_555 1_555
O5JA C10JA 1_555 1_555
C3JA O2JA 1_555 1_555
C4JA C3JA 1_555 1_555
C5JA C4JA 1_555 1_555
H5JA C5JA 1_555 1_555
C6JA C5JA 1_555 1_555
H6JA C6JA 1_555 1_555
C7JA C6JA 1_555 1_555
C8JA C7JA 1_555 1_555
H7JA C8JA 1_555 1_555
C9JA N1JA 1_555 1_555
C10JA C7JA 1_555 1_555
N1QA H1QA 1_555 1_555
O1QA C1QA 1_555 1_555
C1QA N1QA 1_555 1_555
C2QA C1QA 1_555 1_555
H2QA C2QA 1_555 1_555
H3QA C2QA 1_555 1_555
H4QA C2QA 1_555 1_555
O2QA Sm1 1_555 1_555
O3QA Sm1 1_555 1_555
O4QA C10QA 1_555 1_555
O5QA C10QA 1_555 1_555
C3QA O2QA 1_555 1_555
C4QA C3QA 1_555 1_555
C5QA C4QA 1_555 1_555
H5QA C5QA 1_555 1_555
C6QA C5QA 1_555 1_555
H6QA C6QA 1_555 1_555
C7QA C6QA 1_555 1_555
C8QA C7QA 1_555 1_555
H7QA C8QA 1_555 1_555
C9QA N1QA 1_555 1_555
C10QA C7QA 1_555 1_555
N1TA H1TA 1_555 1_555
O1TA C1TA 1_555 1_555
C1TA N1TA 1_555 1_555
C2TA C1TA 1_555 1_555
H2TA C2TA 1_555 1_555
H3TA C2TA 1_555 1_555
H4TA C2TA 1_555 1_555
O2TA Sm1 1_555 1_555
O3TA Sm1 1_555 1_555
O4TA C10TA 1_555 1_555
O5TA C10TA 1_555 1_555
C3TA O2TA 1_555 1_555
C4TA C3TA 1_555 1_555
C5TA C4TA 1_555 1_555
H5TA C5TA 1_555 1_555
C6TA C5TA 1_555 1_555
H6TA C6TA 1_555 1_555
C7TA C6TA 1_555 1_555
C8TA C7TA 1_555 1_555
H7TA C8TA 1_555 1_555
C9TA N1TA 1_555 1_555
C10TA C7TA 1_555 1_555
Sm2M O4J 1_555 1_555
Sm2N O4G 1_555 1_555
Sm2O O4 1_555 1_555
Sm2Y O4TA 1_555 1_555
Sm2Z O4QA 1_555 1_555
Sm2AA O4JA 1_555 1_555
O4O Sm2 1_555 1_555
O4P Sm2 1_555 1_555
O4U Sm2 1_555 1_555
O4AA Sm2JA 1_555 1_555
O4BA Sm2JA 1_555 1_555
O4GA Sm2JA 1_555 1_555
O5O Sm2 1_555 1_555
O5P Sm2 1_555 1_555
O5U Sm2 1_555 1_555
O5AA Sm2JA 1_555 1_555
O5BA Sm2JA 1_555 1_555
O5GA Sm2JA 1_555 1_555
Sm2 O3G 1_555 1_555
Sm2 O3J 1_555 1_555
O5 Sm2O 1_555 1_555
C4 C9 1_555 1_555
C8 C9 1_555 1_555
O3G C3G 1_555 1_555
O5G Sm2N 1_555 1_555
C4G C9G 1_555 1_555
C8G C9G 1_555 1_555
O3J C3J 1_555 1_555
O5J Sm2M 1_555 1_555
C4J C9J 1_555 1_555
C8J C9J 1_555 1_555
Sm2JA O3QA 1_555 1_555
Sm2JA O3TA 1_555 1_555
O3JA C3JA 1_555 1_555
O5JA Sm2AA 1_555 1_555
C4JA C9JA 1_555 1_555
C8JA C9JA 1_555 1_555
O3QA C3QA 1_555 1_555
O5QA Sm2Z 1_555 1_555
C4QA C9QA 1_555 1_555
C8QA C9QA 1_555 1_555
O3TA C3TA 1_555 1_555
O5TA Sm2Y 1_555 1_555
C4TA C9TA 1_555 1_555
C8TA C9TA 1_555 1_555

#END
