
#######################################################################
#
#                 Cambridge Crystallographic Data Centre
#                                CCDC 
#
#######################################################################
#
# If this CIF has been generated from an entry in the Cambridge 
# Structural Database, then it will include bibliographic, chemical, 
# crystal, experimental, refinement or atomic coordinate data resulting 
# from the CCDC's data processing and validation procedures.
#
#######################################################################

data_BEVWAB
_chemical_formula_moiety         'C22 H16 Cu2 N3 O13 Zn3'
_symmetry_cell_setting           monoclinic
_symmetry_space_group_name_H-M   'C 2/m'
_symmetry_Int_Tables_number      12
_space_group_name_Hall           '-C 2y'
loop_
_symmetry_equiv_pos_site_id
_symmetry_equiv_pos_as_xyz
1 x,y,z
2 x,-y,z
3 1/2+x,1/2+y,z
4 1/2+x,1/2-y,z
5 -x,-y,-z
6 -x,y,-z
7 1/2-x,1/2-y,-z
8 1/2-x,1/2+y,-z
_cell_length_a                   27.96(2)
_cell_length_b                   26.62(2)
_cell_length_c                   6.101(4)
_cell_angle_alpha                90
_cell_angle_beta                 94.96(1)
_cell_angle_gamma                90
_cell_volume                     4523.94
loop_
_atom_site_label
_atom_site_type_symbol
_atom_site_fract_x
_atom_site_fract_y
_atom_site_fract_z
O5 O 0.1284(8) -0.0000 0.172(3)
N3 N 0.177(1) 0.0000 -0.069(4)
C16 C 0.217(1) 0.0000 0.079(6)
C17 C 0.188(2) 0.0000 -0.307(9)
C18 C 0.134(1) 0.0000 -0.017(5)
H11 H 0.1737 0.0294 -0.3695
H12 H 0.2205 0.0000 -0.3084
H13 H 0.2459 0.0000 0.0311
H14 H 0.2147 0.0291 0.1869
H16 H 0.1079 0.0000 -0.1340
H14A H 0.2147 -0.0291 0.1869
H11A H 0.1737 -0.0294 -0.3695
Zn1 Zn 1.0000 0.0000 0.5000
Zn2 Zn 1.0000 0.0546(1) 0.0000
Cu1 Cu 0.7530(2) -0.2681(2) 0.3612(8)
O1 O 0.7901(10) -0.2234(10) 0.481(4)
O2 O 0.9487(5) -0.0562(5) 0.422(2)
O3 O 1.0271(6) 0.0000 0.198(2)
O4 O 0.9535(6) 0.0984(5) 0.116(2)
N1 N 0.718(1) -0.326(1) 0.206(5)
N2 N 0.795(1) -0.266(1) 0.136(4)
C1 C 0.7492 -0.3377 0.0280
C2 C 0.7372 -0.3766 -0.1196
C3 C 0.7635 -0.3838 -0.3011
C4 C 0.8019 -0.3520 -0.3352
C5 C 0.8139 -0.3130 -0.1876
C6 C 0.7875 -0.3059 -0.0060
C7 C 0.827(2) -0.234(2) 0.105(6)
C8 C 0.685(1) -0.354(1) 0.256(5)
C9 C 0.663(1) -0.346(1) 0.418(3)
C10 C 0.825(1) -0.193(1) 0.440(4)
C11 C 0.849(1) -0.1989(10) 0.258(4)
C12 C 0.8841(9) -0.1636(10) 0.209(3)
C13 C 0.8968(7) -0.1245(7) 0.345(3)
C14 C 0.8748(8) -0.1210(8) 0.537(3)
C15 C 0.9348(8) -0.0903(9) 0.297(3)
H1 H 0.7111 -0.3982 -0.0964
H2 H 0.7553 -0.4103 -0.4016
H3 H 0.8198 -0.3569 -0.4588
H4 H 0.8400 -0.2913 -0.2107
H5 H 0.8379 -0.2356 -0.0378
H6 H 0.8409 -0.2278 0.1736
H8 H 0.6777 -0.3822 0.1616
H9 H 0.8985 -0.1683 0.0771
H10 H 0.8863 -0.0947 0.6391
O2A O 0.9487(5) 0.0562(5) 0.422(2)
O2D O 1.0513(5) 0.0562(5) 0.578(2)
O2E O 1.0513(5) -0.0562(5) 0.578(2)
O3D O 0.9729(6) -0.0000 0.802(2)
O3D_2 O 0.9729(6) 0.0000 -0.198(2)
O4E O 1.0465(6) 0.0984(5) -0.116(2)
Cu1F Cu 0.7470(2) -0.2319(2) 0.6388(8)
O1F O 0.7099(10) -0.2766(10) 0.519(4)
Zn2A Zn 1.0000 -0.0546(1) 0.0000
C15A C 0.9348(8) 0.0903(9) 0.297(3)
C10F C 0.675(1) -0.307(1) 0.560(4)
C14F C 0.6252(8) -0.3790(8) 0.463(3)
C9F C 0.837(1) -0.154(1) 0.582(3)
O4A O 0.9535(6) -0.0984(5) 0.116(2)
loop_
_geom_bond_atom_site_label_1
_geom_bond_atom_site_label_2
_geom_bond_site_symmetry_1
_geom_bond_site_symmetry_2
Zn1 O2 1_555 1_555
Zn2 O3 1_555 1_555
Cu1 O1 1_555 1_555
O1 C10 1_555 1_555
O2 C15 1_555 1_555
O3 Zn1 1_555 1_555
O4 Zn2 1_555 1_555
O5 C18 1_555 1_555
N1 Cu1 1_555 1_555
N2 Cu1 1_555 1_555
N3 C16 1_555 1_555
C1 N1 1_555 1_555
C2 C1 1_555 1_555
C3 C2 1_555 1_555
C4 C3 1_555 1_555
C5 C4 1_555 1_555
C6 N2 1_555 1_555
C7 N2 1_555 1_555
C8 N1 1_555 1_555
C9 C8 1_555 1_555
C10 C11 1_555 1_555
C11 C7 1_555 1_555
C12 C11 1_555 1_555
C13 C12 1_555 1_555
C14 C13 1_555 1_555
C15 C13 1_555 1_555
C16 H13 1_555 1_555
C17 N3 1_555 1_555
C18 N3 1_555 1_555
H1 C2 1_555 1_555
H2 C3 1_555 1_555
H3 C4 1_555 1_555
H4 C5 1_555 1_555
H5 C7 1_555 1_555
H6 C7 1_555 1_555
H8 C8 1_555 1_555
H9 C12 1_555 1_555
H10 C14 1_555 1_555
H11 C17 1_555 1_555
H12 C17 1_555 1_555
H14 C16 1_555 1_555
H16 C18 1_555 1_555
O2A Zn1 1_555 1_555
O2D Zn1 1_555 1_555
O2E Zn1 1_555 1_555
O3D Zn1 1_555 1_555
O3D_2 Zn2 1_555 1_555
O4E Zn2 1_555 1_555
Cu1F Cu1 1_555 1_555
O1F Cu1 1_555 1_555
Zn2A O3 1_555 1_555
C15A O4 1_555 1_555
C10F C9 1_555 1_555
C14F C9 1_555 1_555
C9F C10 1_555 1_555
O4A C15 1_555 1_555
H14A C16 1_555 1_555
H11A C17 1_555 1_555
O1 Cu1F 1_555 1_555
C1 C6 1_555 1_555
C5 C6 1_555 1_555
C11 H6 1_555 1_555
C14 C9F 1_555 1_555
O2A C15A 1_555 1_555
O3D_2 Zn2A 1_555 1_555
Cu1F O1F 1_555 1_555
O1F C10F 1_555 1_555
Zn2A O4A 1_555 1_555

#END
