
#######################################################################
#
#                 Cambridge Crystallographic Data Centre
#                                CCDC 
#
#######################################################################
#
# If this CIF has been generated from an entry in the Cambridge 
# Structural Database, then it will include bibliographic, chemical, 
# crystal, experimental, refinement or atomic coordinate data resulting 
# from the CCDC's data processing and validation procedures.
#
#######################################################################

data_LEGGIO
_chemical_formula_moiety         '(C24 H48 N12 O24 Zn4)n'
_symmetry_cell_setting           monoclinic
_symmetry_space_group_name_H-M   'P 21/n'
_symmetry_Int_Tables_number      14
_space_group_name_Hall           '-P 2yn'
loop_
_symmetry_equiv_pos_site_id
_symmetry_equiv_pos_as_xyz
1 x,y,z
2 1/2-x,1/2+y,1/2-z
3 -x,-y,-z
4 1/2+x,1/2-y,1/2+z
_cell_length_a                   13.475(3)
_cell_length_b                   26.949(5)
_cell_length_c                   13.509(3)
_cell_angle_alpha                90
_cell_angle_beta                 95.18(3)
_cell_angle_gamma                90
_cell_volume                     4885.59
loop_
_atom_site_label
_atom_site_type_symbol
_atom_site_fract_x
_atom_site_fract_y
_atom_site_fract_z
Zn1 Zn 0.77812(5) 1.02402(2) 0.13763(4)
Zn2 Zn 0.36711(4) 1.05428(2) 0.25738(4)
Zn3 Zn 0.74235(4) 0.92425(2) 0.31569(4)
Zn4 Zn 0.81109(5) 1.04392(2) -0.29313(4)
N1 N 0.5006(3) 1.02420(16) 0.2471(3)
N2 N 0.7860(3) 0.99838(17) 0.0009(3)
N3 N 0.2631(3) 1.05094(16) 0.5369(3)
N4 N 0.6340(3) 0.97524(16) 0.2661(3)
N5 N 0.8743(3) 0.96106(17) 0.2979(3)
N6 N 0.3111(3) 1.04055(16) 0.3858(3)
N7 N 0.6473(4) 1.00991(17) 0.1922(3)
N8 N 0.7270(3) 0.97090(16) -0.1466(3)
N9 N 0.7972(3) 1.00712(17) -0.1602(3)
N10 N 1.0373(3) 0.97558(18) 0.2978(3)
N11 N 0.2443(3) 1.00358(15) 0.4026(3)
N12 N 0.8870(3) 0.99965(16) 0.2337(3)
O1 O 0.7429(3) 0.90120(16) 0.1627(3)
O2 O 0.7313(6) 1.0952(2) 0.1096(7)
O3 O 0.3741(4) 1.12655(14) 0.2711(3)
O4 O 0.8448(3) 1.35934(14) 0.1557(3)
O5 O 0.6814(4) 1.35351(16) 0.1289(4)
O6 O 0.6600(3) 1.06760(17) -0.2703(3)
O7 O 0.3325(3) 1.38742(15) 0.1488(4)
O8 O 0.4201(3) 1.12899(15) 0.1182(3)
O9 O 0.3873(4) 1.38411(16) 0.3077(4)
O10 O 0.8947(6) 1.1010(2) 0.0998(5)
C1 C 0.7949(6) 1.1765(2) 0.1011(5)
C2 C 0.9655(4) 0.9478(2) 0.3340(4)
H1 H 0.9788 0.9216 0.3803
C3 C 0.3198(4) 1.0681(2) 0.4678(4)
H2 H 0.3613 1.0966 0.4764
C4 C 0.2185(4) 1.01073(19) 0.4931(4)
H3 H 0.1736 0.9899 0.5241
C5 C 0.5457(4) 0.98604(19) 0.2967(4)
H4 H 0.5173 0.9686 0.3483
C6 C 0.7765(5) 1.2790(2) 0.1163(4)
C7 C 0.7230(4) 0.96727(19) -0.0503(4)
H5 H 0.6802 0.9450 -0.0201
C8 C 0.8305(4) 1.0225(2) -0.0715(4)
H6 H 0.8797 1.0475 -0.0592
C9 C 0.5661(4) 1.0374(2) 0.1834(4)
H7 H 0.5553 1.0638 0.1369
C10 C 0.7659(5) 1.3336(2) 0.1338(4)
C11 C 0.9847(4) 1.0069(2) 0.2357(4)
H8 H 1.0143 1.0316 0.1974
C12 C 0.3958(4) 1.20555(19) 0.2018(4)
C13 C 0.3800(5) 1.3084(2) 0.2165(5)
C14 C 0.3988(4) 1.1504(2) 0.1946(4)
C15 C 0.3667(5) 1.3637(2) 0.2272(5)
C16 C 0.3958(6) 1.2281(2) 0.2946(5)
H9 H 0.4004 1.2084 0.3533
C17 C 0.6916(6) 1.2490(2) 0.1125(6)
H10 H 0.6274 1.2634 0.1148
C18 C 0.3889(6) 1.2799(2) 0.3009(5)
H11 H 0.3904 1.2954 0.3642
C19 C 0.7023(6) 1.1975(3) 0.1053(6)
H12 H 0.6450 1.1768 0.1033
C20 C 0.8686(6) 1.2575(2) 0.1077(6)
H13 H 0.9260 1.2779 0.1074
C21 C 0.3892(7) 1.2353(2) 0.1177(5)
H14 H 0.3928 1.2205 0.0543
C22 C 0.8781(6) 1.2060(2) 0.0996(6)
H15 H 0.9414 1.1915 0.0932
C23 C 0.8069(8) 1.1202(3) 0.1050(6)
C24 C 0.3775(7) 1.2862(2) 0.1247(6)
H16 H 0.3678 1.3058 0.0661
Zn2B Zn 0.63289(4) 0.94572(2) -0.25738(4)
Zn3B Zn 0.25765(4) 1.07575(2) 0.68431(4)
Zn3A Zn 0.75765(4) 1.42425(2) 0.18431(4)
Zn4B Zn 1.18891(5) 0.95608(2) 0.29313(4)
Zn4B_2 Zn 0.18891(5) 0.95608(2) 0.29313(4)
Zn4C Zn 0.31109(5) 1.45608(2) 0.20687(4)
N3B N 0.7369(3) 0.94906(16) 0.4631(3)
N8B N 0.2730(3) 1.02910(16) 0.1466(3)
N10B N 0.9627(3) 1.02442(18) -0.2978(3)
N11B N 0.7557(3) 0.99642(15) -0.4026(3)
O4A O 0.6552(3) 0.85934(14) 0.3443(3)
O5A O 0.8186(4) 0.85351(16) 0.3711(4)
O7C O 0.8325(3) 1.11258(15) -0.3512(4)
O11 O 0.5671(5) 0.8551(2) 0.0804(4)
O12 O 0.9440(5) 0.8374(3) 0.5554(5)
O13 O 0.6028(5) 0.0793(2) 0.9213(5)
O14 O 0.5541(6) 0.1433(4) 0.6377(8)
O15 O 0.9149(5) 0.8630(3) 0.0897(5)
O16 O 0.8330(5) 0.8404(3) 0.7217(5)
O17 O 0.5203(7) 0.7554(3) 0.1373(7)
O18 O 0.0829(7) 0.1086(3) 0.1061(6)
O19 O 0.8850(7) 0.7489(4) 0.8125(9)
O20 O 0.1121(7) 0.9002(3) 0.5474(6)
O21 O 0.8744(8) 0.7620(4) 0.0299(8)
O22 O 0.2826(8) 0.8740(4) 0.6652(8)
O23 O 0.7214(9) 0.7269(4) 0.1308(8)
O24 O 0.5653(10) 0.1581(6) 0.4414(10)
loop_
_geom_bond_atom_site_label_1
_geom_bond_atom_site_label_2
_geom_bond_site_symmetry_1
_geom_bond_site_symmetry_2
Zn1 N2 1_555 1_555
Zn2 N1 1_555 1_555
Zn3 N4 1_555 1_555
Zn4 N9 1_555 1_555
N1 C5 1_555 1_555
N2 C7 1_555 1_555
N3 C3 1_555 1_555
N4 N7 1_555 1_555
N5 Zn3 1_555 1_555
N6 Zn2 1_555 1_555
N7 Zn1 1_555 1_555
N8 N9 1_555 1_555
N9 C8 1_555 1_555
N10 C2 1_555 1_555
N11 N6 1_555 1_555
N12 Zn1 1_555 1_555
O1 Zn3 1_555 1_555
O2 Zn1 1_555 1_555
O3 Zn2 1_555 1_555
O4 C10 1_555 1_555
O5 C10 1_555 1_555
O6 Zn4 1_555 1_555
O7 C15 1_555 1_555
O8 C14 1_555 1_555
O9 C15 1_555 1_555
O10 C23 1_555 1_555
C1 C19 1_555 1_555
C2 N5 1_555 1_555
H1 C2 1_555 1_555
C3 N6 1_555 1_555
H2 C3 1_555 1_555
C4 N3 1_555 1_555
H3 C4 1_555 1_555
C5 N4 1_555 1_555
H4 C5 1_555 1_555
C6 C10 1_555 1_555
C7 N8 1_555 1_555
H5 C7 1_555 1_555
C8 N2 1_555 1_555
H6 C8 1_555 1_555
C9 N1 1_555 1_555
H7 C9 1_555 1_555
C11 N10 1_555 1_555
H8 C11 1_555 1_555
C12 C14 1_555 1_555
C13 C15 1_555 1_555
C14 O3 1_555 1_555
C16 C12 1_555 1_555
H9 C16 1_555 1_555
C17 C6 1_555 1_555
H10 C17 1_555 1_555
C18 C13 1_555 1_555
H11 C18 1_555 1_555
C19 C17 1_555 1_555
H12 C19 1_555 1_555
C20 C6 1_555 1_555
H13 C20 1_555 1_555
C21 C12 1_555 1_555
H14 C21 1_555 1_555
C22 C1 1_555 1_555
H15 C22 1_555 1_555
C23 O2 1_555 1_555
C24 C13 1_555 1_555
H16 C24 1_555 1_555
Zn2B N8 1_555 1_555
Zn3B N3 1_555 1_555
Zn3A O4 1_555 1_555
Zn4B N10 1_555 1_555
Zn4B_2 N11 1_555 1_555
Zn4C O7 1_555 1_555
N3B Zn3 1_555 1_555
N8B Zn2 1_555 1_555
N10B Zn4 1_555 1_555
N11B Zn4 1_555 1_555
O4A Zn3 1_555 1_555
O5A Zn3 1_555 1_555
O7C Zn4 1_555 1_555
N5 N12 1_555 1_555
N7 C9 1_555 1_555
N11 C4 1_555 1_555
N12 C11 1_555 1_555
O5 Zn3A 1_555 1_555
C1 C23 1_555 1_555
C16 C18 1_555 1_555
C20 C22 1_555 1_555
C21 C24 1_555 1_555

#END
