
#######################################################################
#
#                 Cambridge Crystallographic Data Centre
#                                CCDC 
#
#######################################################################
#
# If this CIF has been generated from an entry in the Cambridge 
# Structural Database, then it will include bibliographic, chemical, 
# crystal, experimental, refinement or atomic coordinate data resulting 
# from the CCDC's data processing and validation procedures.
#
#######################################################################

data_LIVWAQ
_chemical_formula_moiety         '(C30 H8 N4 O14 P4 Zn3 2-)n'
_symmetry_cell_setting           monoclinic
_symmetry_space_group_name_H-M   'P 21/n'
_symmetry_Int_Tables_number      14
_space_group_name_Hall           '-P 2yn'
loop_
_symmetry_equiv_pos_site_id
_symmetry_equiv_pos_as_xyz
1 x,y,z
2 1/2-x,1/2+y,1/2-z
3 -x,-y,-z
4 1/2+x,1/2-y,1/2+z
_cell_length_a                   10.0945(4)
_cell_length_b                   14.7356(3)
_cell_length_c                   14.4964(6)
_cell_angle_alpha                90
_cell_angle_beta                 97.497(3)
_cell_angle_gamma                90
_cell_volume                     2137.89
loop_
_atom_site_label
_atom_site_type_symbol
_atom_site_fract_x
_atom_site_fract_y
_atom_site_fract_z
O13 O 0.7040(11) 0.2480(7) 1.0764(7)
O14 O 2.1464(10) -0.2108(7) 1.3824(7)
C1 C 1.9952(13) 0.0769(9) 1.4220(9)
C2 C 2.0629(11) 0.0162(8) 1.4103(8)
C3 C 1.8411(11) -0.0181(8) 1.4987(8)
C4 C 1.9146(13) -0.0837(9) 1.4830(9)
C5 C 1.8822(15) 0.0788(10) 1.4867(10)
C6 C 2.0177(12) -0.0889(9) 1.4229(9)
C7 C 1.8297(6) -0.0085(5) 1.3327(5)
N1 N 1.9227(4) -0.0039(3) 1.4240(3)
C1B C 2.0048(13) -0.0769(9) 1.5780(9)
C2B C 1.9371(11) -0.0162(8) 1.5897(8)
C3B C 2.1589(11) 0.0181(8) 1.5013(8)
C4B C 2.0854(13) 0.0837(9) 1.5170(9)
C5B C 2.1178(15) -0.0788(10) 1.5133(10)
C6B C 1.9823(12) 0.0889(9) 1.5771(9)
C7B C 2.1703(6) 0.0085(5) 1.6673(5)
N1B N 2.0773(4) 0.0039(3) 1.5760(3)
C8 C 1.0934(11) 0.4543(8) 1.4167(8)
C9 C 0.9200(11) 0.6107(8) 1.5009(8)
C10 C 1.0758(12) 0.5932(8) 1.5055(8)
C11 C 1.1146(13) 0.5329(9) 1.4547(9)
C12 C 0.8865(11) 0.4706(8) 1.4103(8)
C13 C 0.8718(12) 0.5052(9) 1.4458(9)
C14 C 1.0026(14) 0.5910(9) 1.3357(9)
C15 C 0.9480(14) 0.6095(9) 1.3377(9)
N2 N 0.9892(6) 0.5452(3) 1.4258(3)
C8B C 0.9066(11) 0.5457(8) 1.5833(8)
C9B C 1.0800(11) 0.3893(8) 1.4991(8)
C10B C 0.9242(12) 0.4068(8) 1.4945(8)
C11B C 0.8854(13) 0.4671(9) 1.5453(9)
C12B C 1.1135(11) 0.5294(8) 1.5897(8)
C13B C 1.1282(12) 0.4948(9) 1.5542(9)
C14B C 0.9974(14) 0.4090(9) 1.6643(9)
C15B C 1.0520(14) 0.3905(9) 1.6623(9)
N2B N 1.0108(6) 0.4548(3) 1.5742(3)
Zn1 Zn 0.95889(5) 0.09878(3) 0.89901(4)
Zn2 Zn 0.96696(5) 0.26045(3) 1.26471(4)
Zn3 Zn 1.51710(5) 0.12896(3) 1.43978(4)
P1 P 1.00150(13) 0.10713(8) 1.11762(9)
H1 H 1.1309 0.1701 1.1058
P2 P 0.68568(11) 0.27605(8) 1.34078(8)
H2 H 0.6452 0.2841 1.2541
P3 P 1.27081(12) 0.23310(9) 1.34178(9)
H3 H 1.2766 0.1882 1.2651
P4 P 1.55703(13) 0.07372(8) 1.64370(8)
H4 H 1.6880 0.0403 1.6984
O1 O 0.6363(3) 0.3538(2) 1.3949(3)
O2 O 1.0581(4) 0.0197(2) 1.1594(3)
O3 O 1.3315(4) 0.3228(3) 1.3235(3)
O4 O 0.9159(3) 0.0935(2) 1.0253(2)
O5 O 0.9236(4) 0.1580(2) 1.1844(3)
O6 O 1.4809(5) 0.1227(3) 1.7102(3)
O7 O 0.8353(3) 0.2781(3) 1.3476(3)
O8 O 1.1243(3) 0.2385(3) 1.3528(3)
O9 O 1.3427(4) 0.1825(3) 1.4237(3)
O10 O 1.4769(4) -0.0072(2) 1.6060(3)
O11 O 0.6359(5) 0.1848(3) 1.3641(3)
O12 O 1.5984(4) 0.1335(2) 1.5683(2)
Zn1B Zn 1.04111(5) -0.09878(3) 1.10099(4)
Zn1C Zn 0.45889(5) 0.40122(3) 1.39901(4)
Zn1C_2 Zn 1.45889(5) 0.40122(3) 1.39901(4)
Zn2C Zn 1.46696(5) 0.23955(3) 1.76471(4)
Zn3_2 Zn 0.51710(5) 0.12896(3) 1.43978(4)
Zn3B Zn 1.48290(5) -0.12896(3) 1.56022(4)
O1C O 1.1363(3) 0.1462(2) 0.8949(3)
O2B O 0.9419(4) -0.0197(2) 0.8406(3)
O3C O 0.8315(4) 0.1772(3) 0.8235(3)
O6C O 0.9809(5) 0.3773(3) 1.2102(3)
O10B O 1.5231(4) 0.0072(2) 1.3940(3)
O11_2 O 1.6359(5) 0.1848(3) 1.3641(3)
loop_
_geom_bond_atom_site_label_1
_geom_bond_atom_site_label_2
_geom_bond_site_symmetry_1
_geom_bond_site_symmetry_2
Zn1 O4 1_555 1_555
Zn2 O5 1_555 1_555
Zn3 O9 1_555 1_555
P1 H1 1_555 1_555
P2 H2 1_555 1_555
P3 H3 1_555 1_555
P4 H4 1_555 1_555
O1 P2 1_555 1_555
O2 P1 1_555 1_555
O3 P3 1_555 1_555
O4 P1 1_555 1_555
O5 P1 1_555 1_555
O6 P4 1_555 1_555
O7 Zn2 1_555 1_555
O8 Zn2 1_555 1_555
O9 P3 1_555 1_555
O10 P4 1_555 1_555
O11 P2 1_555 1_555
O12 Zn3 1_555 1_555
C1 C2 1_555 1_555
C2 C6 1_555 1_555
C3 C4 1_555 1_555
C4 C6 1_555 1_555
C5 C1 1_555 1_555
C6 N1 1_555 1_555
C7 N1 1_555 1_555
N1 C1 1_555 1_555
C8 C11 1_555 1_555
C9 C10 1_555 1_555
C10 C11 1_555 1_555
C11 N2 1_555 1_555
C12 C13 1_555 1_555
C13 C9 1_555 1_555
C14 C15 1_555 1_555
C15 N2 1_555 1_555
N2 C8 1_555 1_555
Zn1B O2 1_555 1_555
Zn1C O1 1_555 1_555
Zn1C_2 O3 1_555 1_555
Zn2C O6 1_555 1_555
Zn3_2 O11 1_555 1_555
Zn3B O10 1_555 1_555
O1C Zn1 1_555 1_555
O2B Zn1 1_555 1_555
O3C Zn1 1_555 1_555
O6C Zn2 1_555 1_555
O10B Zn3 1_555 1_555
O11_2 Zn3 1_555 1_555
C1B C4 1_555 1_555
C2B C3 1_555 1_555
C3B C2 1_555 1_555
C4B C1 1_555 1_555
C5B C6 1_555 1_555
C6B C5 1_555 1_555
C7B N1B 1_555 1_555
N1B C1B 1_555 1_555
C8B C9 1_555 1_555
C9B C8 1_555 1_555
C10B C12 1_555 1_555
C11B C13 1_555 1_555
C12B C10 1_555 1_555
C13B C10 1_555 1_555
C14B C15B 1_555 1_555
C15B N2B 1_555 1_555
N2B C8B 1_555 1_555
P2 O7 1_555 1_555
P3 O8 1_555 1_555
P4 O12 1_555 1_555
C2 N1 1_555 1_555
C3 C5 1_555 1_555
C3 N1 1_555 1_555
C4 N1 1_555 1_555
C5 N1 1_555 1_555
C9 N2 1_555 1_555
C10 N2 1_555 1_555
C11 C13B 1_555 1_555
C12 N2 1_555 1_555
C13 N2 1_555 1_555
C13 C10B 1_555 1_555
C14 N2 1_555 1_555
C1B C2B 1_555 1_555
C1B C5B 1_555 1_555
C2B C6B 1_555 1_555
C2B N1B 1_555 1_555
C3B C4B 1_555 1_555
C3B C5B 1_555 1_555
C3B N1B 1_555 1_555
C4B C6B 1_555 1_555
C4B N1B 1_555 1_555
C5B N1B 1_555 1_555
C6B N1B 1_555 1_555
C8B C11B 1_555 1_555
C9B C10B 1_555 1_555
C9B C13B 1_555 1_555
C9B N2B 1_555 1_555
C10B C11B 1_555 1_555
C10B N2B 1_555 1_555
C11B N2B 1_555 1_555
C12B C13B 1_555 1_555
C12B N2B 1_555 1_555
C13B N2B 1_555 1_555
C14B N2B 1_555 1_555

#END
