
#######################################################################
#
#                 Cambridge Crystallographic Data Centre
#                                CCDC 
#
#######################################################################
#
# If this CIF has been generated from an entry in the Cambridge 
# Structural Database, then it will include bibliographic, chemical, 
# crystal, experimental, refinement or atomic coordinate data resulting 
# from the CCDC's data processing and validation procedures.
#
#######################################################################

data_IYUQID
_chemical_formula_moiety         'C80 N56 Na24 O4 1+'
_symmetry_cell_setting           cubic
_symmetry_space_group_name_H-M   'P m -3 n'
_symmetry_Int_Tables_number      223
_space_group_name_Hall           '-P 4n 2 3'
loop_
_symmetry_equiv_pos_site_id
_symmetry_equiv_pos_as_xyz
1 x,y,z
2 -x,-y,z
3 -x,y,-z
4 x,-y,-z
5 z,x,y
6 z,-x,-y
7 -z,-x,y
8 -z,x,-y
9 y,z,x
10 -y,z,-x
11 y,-z,-x
12 -y,-z,x
13 1/2+y,1/2+x,1/2-z
14 1/2-y,1/2-x,1/2-z
15 1/2+y,1/2-x,1/2+z
16 1/2-y,1/2+x,1/2+z
17 1/2+x,1/2+z,1/2-y
18 1/2-x,1/2+z,1/2+y
19 1/2-x,1/2-z,1/2-y
20 1/2+x,1/2-z,1/2+y
21 1/2+z,1/2+y,1/2-x
22 1/2+z,1/2-y,1/2+x
23 1/2-z,1/2+y,1/2+x
24 1/2-z,1/2-y,1/2-x
25 -x,-y,-z
26 x,y,-z
27 x,-y,z
28 -x,y,z
29 -z,-x,-y
30 -z,x,y
31 z,x,-y
32 z,-x,y
33 -y,-z,-x
34 y,-z,x
35 -y,z,x
36 y,z,-x
37 1/2-y,1/2-x,1/2+z
38 1/2+y,1/2+x,1/2+z
39 1/2-y,1/2+x,1/2-z
40 1/2+y,1/2-x,1/2-z
41 1/2-x,1/2-z,1/2+y
42 1/2+x,1/2-z,1/2-y
43 1/2+x,1/2+z,1/2+y
44 1/2-x,1/2+z,1/2-y
45 1/2-z,1/2-y,1/2+x
46 1/2-z,1/2+y,1/2-x
47 1/2+z,1/2-y,1/2-x
48 1/2+z,1/2+y,1/2+x
_cell_length_a                   31.251(8)
_cell_length_b                   31.251(8)
_cell_length_c                   31.251(8)
_cell_angle_alpha                90
_cell_angle_beta                 90
_cell_angle_gamma                90
_cell_volume                     30520.5
loop_
_atom_site_label
_atom_site_type_symbol
_atom_site_fract_x
_atom_site_fract_y
_atom_site_fract_z
Na2 Na 0.31434(2) -0.31434(2) 0.31434(2)
Na3 Na 0.37966(4) -0.19541(4) 0.5000
Na4 Na 0.23054(16) 0.0000 0.5000
N1 N 0.33462(8) -0.38625(9) 0.29859(8)
N2 N 0.44593(7) -0.42952(8) 0.22146(9)
N3 N 0.26558(11) -0.5000 0.34255(12)
N4 N 0.29777(8) -0.24099(8) 0.32997(8)
N5 N 0.33125(9) -0.16800(8) 0.44621(7)
N6 N 0.2500 -0.05192(9) 0.44808(9)
C1 C 0.34415(9) -0.42065(9) 0.29133(9)
C2 C 0.42140(8) -0.45094(9) 0.23794(9)
C3 C 0.2963 -0.50000(13) 0.32260(13)
C4 C 0.28377(9) -0.20892(9) 0.34019(8)
C5 C 0.30618(10) -0.15816(8) 0.42137(9)
C6 C 0.2500 -0.07761(10) 0.42239(10)
C7 C 0.35595(8) -0.46379(8) 0.28273(9)
C8 C 0.39108(7) -0.47774(8) 0.25901(9)
C9 C 0.3341 -0.50000(11) 0.29788(13)
C10 C 0.26577(8) -0.16944(8) 0.35280(8)
C11 C 0.27563(9) -0.14641(8) 0.38993(8)
C12 C 0.2500 -0.10988(7) 0.39012(7)
O1 O 0.4155(3) -0.1233 0.5000(3)
Na2Z Na 0.31434(2) 0.31434(2) 0.31434(2)
Na2B Na 0.68566(2) -0.31434(2) 0.68566(2)
Na2C Na 0.31434(2) 0.31434(2) 0.68566(2)
Na2L Na 0.18566(2) -0.18566(2) 0.18566(2)
Na2N Na 0.18566(2) 0.18566(2) 0.81434(2)
Na2Z_2 Na 0.31434(2) -0.68566(2) 0.31434(2)
Na2AA Na 0.68566(2) -0.31434(2) 0.31434(2)
Na2Y Na 0.31434(2) -0.31434(2) 0.68566(2)
Na2KA Na 0.18566(2) -0.18566(2) 0.81434(2)
Na2MA Na 0.18566(2) 0.18566(2) 0.18566(2)
Na3C Na 0.37966(4) 0.19541(4) 0.5000
Na3Q Na 0.12034(4) 0.0000 0.30459(4)
Na3R Na 0.12034(4) 0.0000 0.69541(4)
Na3B Na 0.62034(4) -0.19541(4) 0.5000
Na3E Na 0.5000 -0.37966(4) 0.19541(4)
Na3F Na 0.5000 -0.37966(4) 0.80459(4)
Na3G Na 0.5000 -0.62034(4) 0.19541(4)
Na3I Na 0.19541(4) -0.5000 0.62034(4)
Na3K Na 0.19541(4) -0.5000 0.37966(4)
Na4Q Na 0.26946(16) 0.0000 0.5000
N1Z N 0.33462(8) -0.61375(9) 0.29859(8)
N1E N 0.29859(8) -0.33462(8) 0.38625(9)
N1EA N 0.29859(8) -0.33462(8) 0.61375(9)
N1K N 0.38625(9) -0.29859(8) 0.33462(8)
N1GA N 0.61375(9) -0.29859(8) 0.33462(8)
N1FA N 0.38625(9) -0.29859(8) 0.66538(8)
N1J N 0.61375(9) -0.29859(8) 0.66538(8)
N1DA N 0.29859(8) 0.33462(8) 0.38625(9)
N1HA N 0.38625(9) 0.29859(8) 0.33462(8)
N1Z_2 N 0.33462(8) 0.38625(9) 0.29859(8)
N2Z N 0.44593(7) -0.57048(8) 0.22146(9)
N2E N 0.22146(9) -0.44593(7) 0.42952(8)
N2EA N 0.22146(9) -0.44593(7) 0.57048(8)
N2K N 0.42952(8) -0.22146(9) 0.44593(7)
N2GA N 0.57048(8) -0.22146(9) 0.44593(7)
N2FA N 0.42952(8) -0.22146(9) 0.55407(7)
N2J N 0.57048(8) -0.22146(9) 0.55407(7)
N2I N 0.42952(8) 0.22146(9) 0.55407(7)
N2L N 0.07048(8) -0.05407(7) 0.27854(9)
N2N N 0.07048(8) 0.05407(7) 0.72146(9)
N2HA N 0.42952(8) 0.22146(9) 0.44593(7)
N2KA N 0.07048(8) -0.05407(7) 0.72146(9)
N2MA N 0.07048(8) 0.05407(7) 0.27854(9)
N3E N 0.34255(12) -0.26558(11) 0.5000
N3K N 0.5000 -0.34255(12) 0.26558(11)
N3J N 0.5000 -0.34255(12) 0.73442(11)
N3D N 0.34255(12) 0.26558(11) 0.5000
N3V N 0.15745(12) 0.0000 0.76558(11)
N3W N 0.15745(12) 0.0000 0.23442(11)
N4Q N 0.20223(8) -0.17003(8) 0.25901(8)
N4C N 0.29777(8) 0.24099(8) 0.67003(8)
N4R N 0.20223(8) 0.17003(8) 0.74099(8)
N4Y N 0.29777(8) -0.24099(8) 0.67003(8)
N4QA N 0.20223(8) -0.17003(8) 0.74099(8)
N4Z N 0.29777(8) 0.24099(8) 0.32997(8)
N4NA N 0.20223(8) 0.17003(8) 0.25901(8)
N4E N 0.32997(8) -0.29777(8) 0.24099(8)
N4K N 0.24099(8) -0.32997(8) 0.29777(8)
N4DA N 0.32997(8) 0.29777(8) 0.24099(8)
N4HA N 0.24099(8) 0.32997(8) 0.29777(8)
N5Q N 0.16875(9) -0.05379(7) 0.33200(8)
N5C N 0.33125(9) 0.16800(8) 0.55379(7)
N5R N 0.16875(9) 0.05379(7) 0.66800(8)
N5Y N 0.33125(9) -0.16800(8) 0.55379(7)
N5QA N 0.16875(9) -0.05379(7) 0.66800(8)
N5Z N 0.33125(9) 0.16800(8) 0.44621(7)
N5NA N 0.16875(9) 0.05379(7) 0.33200(8)
N6C N 0.2500 0.05192(9) 0.55192(9)
N6Y N 0.2500 -0.05192(9) 0.55192(9)
N6Z N 0.2500 0.05192(9) 0.44808(9)
C1Z C 0.34415(9) -0.57935(9) 0.29133(9)
C1E C 0.29133(9) -0.34415(9) 0.42065(9)
C1EA C 0.29133(9) -0.34415(9) 0.57935(9)
C1K C 0.42065(9) -0.29133(9) 0.34415(9)
C1GA C 0.57935(9) -0.29133(9) 0.34415(9)
C1FA C 0.42065(9) -0.29133(9) 0.65585(9)
C1J C 0.57935(9) -0.29133(9) 0.65585(9)
C2Z C 0.42140(8) -0.54906(9) 0.23794(9)
C2E C 0.23794(9) -0.42140(8) 0.45094(9)
C2EA C 0.23794(9) -0.42140(8) 0.54906(9)
C2K C 0.45094(9) -0.23794(9) 0.42140(8)
C2GA C 0.54906(9) -0.23794(9) 0.42140(8)
C2FA C 0.45094(9) -0.23794(9) 0.57860(8)
C2J C 0.54906(9) -0.23794(9) 0.57860(8)
C3E C 0.32260(13) -0.2963 0.50000(13)
C3K C 0.50000(13) -0.32260(13) 0.2963
C3J C 0.50000(13) -0.32260(13) 0.7037
C4Q C 0.21623(9) -0.15981(8) 0.29108(9)
C4C C 0.28377(9) 0.20892(9) 0.65981(8)
C4R C 0.21623(9) 0.15981(8) 0.70892(9)
C4Y C 0.28377(9) -0.20892(9) 0.65981(8)
C4QA C 0.21623(9) -0.15981(8) 0.70892(9)
C4Z C 0.28377(9) 0.20892(9) 0.34019(8)
C4NA C 0.21623(9) 0.15981(8) 0.29108(9)
C5Q C 0.19382(10) -0.07863(9) 0.34184(8)
C5C C 0.30618(10) 0.15816(8) 0.57863(9)
C5R C 0.19382(10) 0.07863(9) 0.65816(8)
C5Y C 0.30618(10) -0.15816(8) 0.57863(9)
C5QA C 0.19382(10) -0.07863(9) 0.65816(8)
C5Z C 0.30618(10) 0.15816(8) 0.42137(9)
C5NA C 0.19382(10) 0.07863(9) 0.34184(8)
C6C C 0.2500 0.07761(10) 0.57761(10)
C6Y C 0.2500 -0.07761(10) 0.57761(10)
C6Z C 0.2500 0.07761(10) 0.42239(10)
C7Z C 0.35595(8) -0.53621(8) 0.28273(9)
C7E C 0.28273(9) -0.35595(8) 0.46379(8)
C7EA C 0.28273(9) -0.35595(8) 0.53621(8)
C7K C 0.46379(8) -0.28273(9) 0.35595(8)
C7GA C 0.53621(8) -0.28273(9) 0.35595(8)
C7FA C 0.46379(8) -0.28273(9) 0.64405(8)
C7J C 0.53621(8) -0.28273(9) 0.64405(8)
C8Z C 0.39108(7) -0.52226(8) 0.25901(9)
C8E C 0.25901(9) -0.39108(7) 0.47774(8)
C8EA C 0.25901(9) -0.39108(7) 0.52226(8)
C8K C 0.47774(8) -0.25901(9) 0.39108(7)
C8GA C 0.52226(8) -0.25901(9) 0.39108(7)
C8FA C 0.47774(8) -0.25901(9) 0.60892(7)
C8J C 0.52226(8) -0.25901(9) 0.60892(7)
C9E C 0.29788(13) -0.3341 0.50000(11)
C9K C 0.50000(11) -0.29788(13) 0.3341
C9J C 0.50000(11) -0.29788(13) 0.6659
C10Q C 0.23423(8) -0.14720(8) 0.33056(8)
C10C C 0.26577(8) 0.16944(8) 0.64720(8)
C10R C 0.23423(8) 0.14720(8) 0.66944(8)
C10Y C 0.26577(8) -0.16944(8) 0.64720(8)
C10QA C 0.23423(8) -0.14720(8) 0.66944(8)
C10Z C 0.26577(8) 0.16944(8) 0.35280(8)
C10NA C 0.23423(8) 0.14720(8) 0.33056(8)
C11Q C 0.22437(9) -0.11007(8) 0.35359(8)
C11C C 0.27563(9) 0.14641(8) 0.61007(8)
C11R C 0.22437(9) 0.11007(8) 0.64641(8)
C11Y C 0.27563(9) -0.14641(8) 0.61007(8)
C11QA C 0.22437(9) -0.11007(8) 0.64641(8)
C11Z C 0.27563(9) 0.14641(8) 0.38993(8)
C11NA C 0.22437(9) 0.11007(8) 0.35359(8)
C12C C 0.2500 0.10988(7) 0.60988(7)
C12Y C 0.2500 -0.10988(7) 0.60988(7)
C12Z C 0.2500 0.10988(7) 0.39012(7)
O1C O 0.4155(3) 0.1233 0.5000(3)
O1Q O 0.0845(3) 0.0000(3) 0.3767
O1R O 0.0845(3) 0.0000(3) 0.6233
Na1 Na 0.0000 0.0000 0.0000
loop_
_geom_bond_atom_site_label_1
_geom_bond_atom_site_label_2
_geom_bond_site_symmetry_1
_geom_bond_site_symmetry_2
Na2 N1 1_555 1_555
Na3 N5 1_555 1_555
Na4 N6 1_555 1_555
N1 C1 1_555 1_555
N2 C2 1_555 1_555
N3 C3 1_555 1_555
N4 Na2 1_555 1_555
N5 C5 1_555 1_555
N6 C6 1_555 1_555
C1 C7 1_555 1_555
C2 C8 1_555 1_555
C3 C9 1_555 1_555
C4 N4 1_555 1_555
C5 C11 1_555 1_555
C6 C12 1_555 1_555
C7 C8 1_555 1_555
C8 C8Z 1_555 1_555
C9 C7 1_555 1_555
C10 C4 1_555 1_555
C11 C10 1_555 1_555
C12 C11 1_555 1_555
O1 Na3 1_555 1_555
Na2Z N1DA 1_555 1_555
Na2B N1J 1_555 1_555
Na2C N4C 1_555 1_555
Na2L N4Q 1_555 1_555
Na2N N4R 1_555 1_555
Na2Z_2 N1Z 1_555 1_555
Na2AA N1GA 1_555 1_555
Na2Y N1EA 1_555 1_555
Na2KA N4QA 1_555 1_555
Na2MA N4NA 1_555 1_555
Na3C N2I 1_555 1_555
Na3Q N2L 1_555 1_555
Na3R N2N 1_555 1_555
Na3B N2GA 1_555 1_555
Na3E N2 1_555 1_555
Na3F N3J 1_555 1_555
Na3G N2Z 1_555 1_555
Na3I N2EA 1_555 1_555
Na3K N3 1_555 1_555
Na4Q Na4 1_555 1_555
N1Z C1Z 1_555 1_555
N1E Na2 1_555 1_555
N1EA C1EA 1_555 1_555
N1K Na2 1_555 1_555
N1GA C1GA 1_555 1_555
N1FA Na2Y 1_555 1_555
N1J C1J 1_555 1_555
N1HA Na2Z 1_555 1_555
N1Z_2 Na2Z 1_555 1_555
N2Z C2Z 1_555 1_555
N2E Na3K 1_555 1_555
N2EA C2EA 1_555 1_555
N2K Na3 1_555 1_555
N2GA C2GA 1_555 1_555
N2FA Na3 1_555 1_555
N2J Na3B 1_555 1_555
N2HA Na3C 1_555 1_555
N2KA Na3R 1_555 1_555
N2MA Na3Q 1_555 1_555
N3E Na3 1_555 1_555
N3K Na3E 1_555 1_555
N3J C3J 1_555 1_555
N3D Na3C 1_555 1_555
N3V Na3R 1_555 1_555
N3W Na3Q 1_555 1_555
N4Q C4Q 1_555 1_555
N4C C4C 1_555 1_555
N4R C4R 1_555 1_555
N4Y Na2Y 1_555 1_555
N4QA C4QA 1_555 1_555
N4Z Na2Z 1_555 1_555
N4NA C4NA 1_555 1_555
N4E Na2 1_555 1_555
N4K Na2 1_555 1_555
N4DA Na2Z 1_555 1_555
N4HA Na2Z 1_555 1_555
N5Q Na3Q 1_555 1_555
N5C Na3C 1_555 1_555
N5R Na3R 1_555 1_555
N5Y Na3 1_555 1_555
N5QA Na3R 1_555 1_555
N5Z Na3C 1_555 1_555
N5NA Na3Q 1_555 1_555
N6C Na4 1_555 1_555
N6Y Na4 1_555 1_555
N6Z Na4 1_555 1_555
C1Z C7Z 1_555 1_555
C1E N1E 1_555 1_555
C1EA C7EA 1_555 1_555
C1K N1K 1_555 1_555
C1GA C7GA 1_555 1_555
C1FA N1FA 1_555 1_555
C1J C7J 1_555 1_555
C2Z C8Z 1_555 1_555
C2E N2E 1_555 1_555
C2EA C8EA 1_555 1_555
C2K N2K 1_555 1_555
C2GA C8GA 1_555 1_555
C2FA N2FA 1_555 1_555
C2J N2J 1_555 1_555
C3E N3E 1_555 1_555
C3K N3K 1_555 1_555
C3J C9J 1_555 1_555
C4Q C10Q 1_555 1_555
C4C C10C 1_555 1_555
C4R C10R 1_555 1_555
C4Y N4Y 1_555 1_555
C4QA C10QA 1_555 1_555
C4Z N4Z 1_555 1_555
C4NA C10NA 1_555 1_555
C5Q N5Q 1_555 1_555
C5C N5C 1_555 1_555
C5R N5R 1_555 1_555
C5Y N5Y 1_555 1_555
C5QA N5QA 1_555 1_555
C5Z N5Z 1_555 1_555
C5NA N5NA 1_555 1_555
C6C N6C 1_555 1_555
C6Y N6Y 1_555 1_555
C6Z N6Z 1_555 1_555
C7Z C9 1_555 1_555
C7E C1E 1_555 1_555
C7EA C8EA 1_555 1_555
C7K C1K 1_555 1_555
C7GA C8GA 1_555 1_555
C7FA C1FA 1_555 1_555
C7J C8J 1_555 1_555
C8Z C7Z 1_555 1_555
C8E C2E 1_555 1_555
C8EA C8E 1_555 1_555
C8K C2K 1_555 1_555
C8GA C8K 1_555 1_555
C8FA C2FA 1_555 1_555
C8J C2J 1_555 1_555
C9E C3E 1_555 1_555
C9K C3K 1_555 1_555
C9J C7FA 1_555 1_555
C10Q C10 1_555 1_555
C10C C10R 1_555 1_555
C10R C11R 1_555 1_555
C10Y C4Y 1_555 1_555
C10QA C10Y 1_555 1_555
C10Z C4Z 1_555 1_555
C10NA C10Z 1_555 1_555
C11Q C12 1_555 1_555
C11C C5C 1_555 1_555
C11R C5R 1_555 1_555
C11Y C5Y 1_555 1_555
C11QA C5QA 1_555 1_555
C11Z C5Z 1_555 1_555
C11NA C5NA 1_555 1_555
C12C C6C 1_555 1_555
C12Y C6Y 1_555 1_555
C12Z C6Z 1_555 1_555
O1C Na3C 1_555 1_555
O1Q Na3Q 1_555 1_555
O1R Na3R 1_555 1_555
N6 Na4Q 1_555 1_555
Na4Q N6C 1_555 1_555
Na4Q N6Y 1_555 1_555
Na4Q N6Z 1_555 1_555
C5Q C11Q 1_555 1_555
C7E C8E 1_555 1_555
C7E C9E 1_555 1_555
C7EA C9E 1_555 1_555
C7K C8K 1_555 1_555
C7K C9K 1_555 1_555
C7GA C9K 1_555 1_555
C7FA C8FA 1_555 1_555
C7J C9J 1_555 1_555
C8FA C8J 1_555 1_555
C10Q C11Q 1_555 1_555
C10C C11C 1_555 1_555
C10Y C11Y 1_555 1_555
C10QA C11QA 1_555 1_555
C10Z C11Z 1_555 1_555
C10NA C11NA 1_555 1_555
C11C C12C 1_555 1_555
C11R C12C 1_555 1_555
C11Y C12Y 1_555 1_555
C11QA C12Y 1_555 1_555
C11Z C12Z 1_555 1_555
C11NA C12Z 1_555 1_555

#END
