
#######################################################################
#
#                 Cambridge Crystallographic Data Centre
#                                CCDC 
#
#######################################################################
#
# If this CIF has been generated from an entry in the Cambridge 
# Structural Database, then it will include bibliographic, chemical, 
# crystal, experimental, refinement or atomic coordinate data resulting 
# from the CCDC's data processing and validation procedures.
#
#######################################################################

data_BADXUC
_chemical_formula_moiety         '(C48 H30 N12 O12 Tb2)n'
_symmetry_cell_setting           monoclinic
_symmetry_space_group_name_H-M   'P 21/c'
_symmetry_Int_Tables_number      14
_space_group_name_Hall           '-P 2ybc'
loop_
_symmetry_equiv_pos_site_id
_symmetry_equiv_pos_as_xyz
1 x,y,z
2 -x,1/2+y,1/2-z
3 -x,-y,-z
4 x,1/2-y,1/2+z
_cell_length_a                   28.652(6)
_cell_length_b                   22.834(5)
_cell_length_c                   15.156(3)
_cell_angle_alpha                90
_cell_angle_beta                 76.36(3)
_cell_angle_gamma                90
_cell_volume                     9636
loop_
_atom_site_label
_atom_site_type_symbol
_atom_site_fract_x
_atom_site_fract_y
_atom_site_fract_z
C1 C 0.2080(6) 0.8463(7) 0.5323(9)
C2 C 0.1728(6) 0.8953(7) 0.5190(10)
C3 C 0.1422(6) 0.9199(7) 0.5919(12)
H1 H 0.1441 0.9093 0.6502
C4 C 0.1072(8) 0.9617(10) 0.5805(14)
H2 H 0.0839 0.9761 0.6291
C5 C 0.1105(6) 0.9801(7) 0.4879(10)
C6 C 0.1443(6) 0.9554(7) 0.4113(12)
H3 H 0.1442 0.9665 0.3522
C7 C 0.1770(6) 0.9142(7) 0.4286(11)
H4 H 0.2010 0.8995 0.3815
C8 C 0.0624(6) 1.0431(7) 0.4110(10)
C9 C 0.0662(9) 1.0483(10) 0.2595(14)
C10 C 0.0157(6) 1.1088(7) 0.3613(12)
C11 C -0.0492(5) 1.1734(7) 0.4446(9)
C12 C -0.0490(5) 1.1635(6) 0.5397(10)
H5 H -0.0252 1.1400 0.5537
C13 C -0.0830(6) 1.1879(8) 0.6090(11)
H6 H -0.0827 1.1818 0.6695
C14 C -0.1188(5) 1.2231(7) 0.5841(10)
C15 C -0.1167(6) 1.2372(7) 0.4991(10)
H7 H -0.1393 1.2634 0.4871
C16 C -0.0839(5) 1.2157(8) 0.4297(11)
H8 H -0.0832 1.2281 0.3710
C17 C -0.1589(4) 1.2430(5) 0.6645(10)
C18 C 0.2142(6) 0.8506(8) 0.0204(10)
C19 C 0.1208(5) 0.9892(5) 0.1455(9)
C20 C 0.1140(4) 0.9338(6) 0.1845(8)
H9 H 0.0886 0.9271 0.2344
C21 C 0.1451(5) 0.8885(4) 0.1487(8)
H10 H 0.1405 0.8514 0.1747
C22 C 0.1829(4) 0.8985(5) 0.0740(8)
C23 C 0.1897(4) 0.9539(6) 0.0351(8)
H11 H 0.2151 0.9607 -0.0149
C24 C 0.1586(5) 0.9993(4) 0.0709(9)
H12 H 0.1632 1.0364 0.0448
C25 C 0.2782(5) 0.6544(7) 0.7452(11)
C26 C 0.3088(6) 0.6019(7) 0.7600(11)
C27 C 0.3446(6) 0.6076(8) 0.8042(12)
H13 H 0.3492 0.6418 0.8343
C28 C 0.3740(9) 0.5584(10) 0.8013(15)
H14 H 0.4027 0.5622 0.8191
C29 C 0.3615(7) 0.5045(9) 0.7729(13)
C30 C 0.3237(8) 0.4982(10) 0.7269(15)
H15 H 0.3186 0.4633 0.6989
C31 C 0.2947(7) 0.5475(8) 0.7265(13)
H16 H 0.2669 0.5450 0.7050
C32 C 0.4156(7) 0.4388(8) 0.8388(13)
C33 C 0.4756(6) 0.3850(7) 0.8699(11)
C34 C 0.5438(7) 0.3215(8) 0.8919(14)
C35 C 0.5752(6) 0.2794(8) 0.8383(12)
H17 H 0.5710 0.2664 0.7826
C36 C 0.6150(6) 0.2578(7) 0.8768(10)
H18 H 0.6374 0.2311 0.8453
C37 C 0.6177(5) 0.2780(7) 0.9593(9)
C38 C 0.5826(6) 0.3161(8) 1.0123(12)
H19 H 0.5852 0.3291 1.0691
C39 C 0.5441(7) 0.3332(9) 0.9760(13)
H20 H 0.5184 0.3532 1.0124
C40 C 0.6624(5) 0.2617(6) 0.9951(11)
C41 C 0.4333(6) 0.4498(7) 0.9655(12)
C42 C 0.3965(7) 0.5187(8) 1.1023(13)
C43 C 0.4039(8) 0.5358(10) 1.1830(14)
H21 H 0.4277 0.5169 1.2046
C44 C 0.3778(6) 0.5803(8) 1.2361(13)
H22 H 0.3841 0.5928 1.2905
C45 C 0.3402(6) 0.6051(7) 1.1988(11)
C46 C 0.3303(7) 0.5909(9) 1.1202(13)
H23 H 0.3078 0.6110 1.0967
C47 C 0.3589(6) 0.5387(8) 1.0712(13)
H24 H 0.3506 0.5214 1.0215
C48 C 0.3097(7) 0.6553(8) 1.2553(14)
N1 N 0.0768(5) 1.0252(6) 0.4893(9)
H25 H 0.0645 1.0424 0.5399
N2 N 0.0835(5) 1.0256(7) 0.3287(10)
N3 N 0.0333(6) 1.0951(7) 0.2657(10)
N4 N 0.0273(4) 1.0856(6) 0.4286(8)
N5 N -0.0161(5) 1.1556(6) 0.3660(10)
H26 H -0.0153 1.1748 0.3170
N6 N 0.0887(7) 1.0382(8) 0.1682(12)
H27 H 0.0835 1.0610 0.1264
N7 N 0.3928(5) 0.4541(6) 0.7705(10)
H28 H 0.3976 0.4320 0.7232
N8 N 0.4503(5) 0.3965(6) 0.8015(9)
N9 N 0.4686(5) 0.4093(6) 0.9468(9)
N10 N 0.4068(6) 0.4677(7) 0.9119(11)
N11 N 0.4257(6) 0.4706(7) 1.0544(10)
H29 H 0.4412 0.4515 1.0874
N12 N 0.5081(5) 0.3418(6) 0.8420(9)
H30 H 0.5081 0.3249 0.7913
O1 O 0.2358(4) 0.8224(4) 0.4676(8)
O2 O -0.1951(3) 1.2698(5) 0.6574(9)
O3 O 0.2874(3) 0.7037(4) 0.7761(7)
O4 O 0.3218(4) 0.6709(5) 1.3270(8)
O5 O 0.6575(4) 0.2737(5) 1.0790(7)
O6 O 0.2424(5) 0.8623(5) -0.0435(8)
O7 O 0.2094(3) 0.7969(4) 0.0572(6)
O8 O 0.2027(4) 0.8292(5) 0.6133(7)
O9 O 0.6985(4) 0.2400(4) 0.9412(9)
O10 O 0.2469(4) 0.6519(5) 0.7008(7)
O11 O 0.2770(4) 0.6781(6) 1.2237(9)
O12 O -0.1544(4) 1.2376(5) 0.7459(7)
Tb1 Tb 0.23474(3) 0.75129(3) 0.67600(5)
Tb2 Tb 0.26627(2) 0.73587(3) 0.40819(5)
O2A O 0.1951(3) 0.7698(5) 0.8426(9)
O2B O 0.1951(3) 0.7302(5) 0.3426(9)
O3C O 0.2874(3) 0.7963(4) 0.2761(7)
O4_2 O 0.3218(4) 0.6709(5) 0.3270(8)
O5A O 0.3425(4) 0.7737(5) 0.4210(7)
O6C O 0.2424(5) 0.6377(5) 0.4565(8)
O7C O 0.2094(3) 0.7031(4) 0.5572(6)
O9A O 0.3015(4) 0.7400(4) 0.5588(9)
O11C O 0.2770(4) 0.8219(6) 0.7237(9)
O12A O 0.1544(4) 0.7376(5) 0.7541(7)
Tb1A Tb -0.23474(3) 1.25129(3) 0.82400(5)
Tb1A_2 Tb 0.76526(3) 0.25129(3) 0.82400(5)
Tb1C Tb 0.23474(3) 0.74871(3) 0.17600(5)
Tb1C_2 Tb 0.23474(3) 0.74871(3) 1.17600(5)
Tb2_2 Tb 0.26627(2) 0.73587(3) 1.40819(5)
Tb2A Tb 0.73373(2) 0.23587(3) 1.09181(5)
Tb2B Tb -0.26627(2) 1.26413(3) 0.59181(5)
Tb2C Tb 0.26627(2) 0.76413(3) -0.09181(5)
Tb2C_2 Tb 0.26627(2) 0.76413(3) 0.90819(5)
loop_
_geom_bond_atom_site_label_1
_geom_bond_atom_site_label_2
_geom_bond_site_symmetry_1
_geom_bond_site_symmetry_2
C1 C2 1_555 1_555
C2 C3 1_555 1_555
C3 H1 1_555 1_555
C4 C3 1_555 1_555
H2 C4 1_555 1_555
C5 C4 1_555 1_555
C6 C5 1_555 1_555
H3 C6 1_555 1_555
C7 C2 1_555 1_555
H4 C7 1_555 1_555
C8 N1 1_555 1_555
C9 N2 1_555 1_555
C10 N3 1_555 1_555
C11 C12 1_555 1_555
C12 H5 1_555 1_555
C13 C12 1_555 1_555
H6 C13 1_555 1_555
C14 C13 1_555 1_555
C15 C14 1_555 1_555
H7 C15 1_555 1_555
C16 C11 1_555 1_555
H8 C16 1_555 1_555
C17 C14 1_555 1_555
C18 C22 1_555 1_555
C19 C20 1_555 1_555
C20 H9 1_555 1_555
C21 C20 1_555 1_555
H10 C21 1_555 1_555
C22 C21 1_555 1_555
C23 C22 1_555 1_555
H11 C23 1_555 1_555
C24 C19 1_555 1_555
H12 C24 1_555 1_555
C25 C26 1_555 1_555
C26 C27 1_555 1_555
C27 H13 1_555 1_555
C28 C27 1_555 1_555
H14 C28 1_555 1_555
C29 C28 1_555 1_555
C30 C29 1_555 1_555
H15 C30 1_555 1_555
C31 C26 1_555 1_555
H16 C31 1_555 1_555
C32 N7 1_555 1_555
C33 N8 1_555 1_555
C34 C35 1_555 1_555
C35 H17 1_555 1_555
C36 C35 1_555 1_555
H18 C36 1_555 1_555
C37 C36 1_555 1_555
C38 C37 1_555 1_555
H19 C38 1_555 1_555
C39 C34 1_555 1_555
H20 C39 1_555 1_555
C40 C37 1_555 1_555
C41 N9 1_555 1_555
C42 C43 1_555 1_555
C43 H21 1_555 1_555
C44 C43 1_555 1_555
H22 C44 1_555 1_555
C45 C44 1_555 1_555
C46 C45 1_555 1_555
H23 C46 1_555 1_555
C47 C42 1_555 1_555
H24 C47 1_555 1_555
C48 C45 1_555 1_555
N1 C5 1_555 1_555
H25 N1 1_555 1_555
N2 C8 1_555 1_555
N3 C9 1_555 1_555
N4 C8 1_555 1_555
N5 C10 1_555 1_555
H26 N5 1_555 1_555
N6 C9 1_555 1_555
H27 N6 1_555 1_555
N7 C29 1_555 1_555
H28 N7 1_555 1_555
N8 C32 1_555 1_555
N9 C33 1_555 1_555
N10 C32 1_555 1_555
N11 C41 1_555 1_555
H29 N11 1_555 1_555
N12 C33 1_555 1_555
H30 N12 1_555 1_555
O1 C1 1_555 1_555
O2 C17 1_555 1_555
O3 C25 1_555 1_555
O4 C48 1_555 1_555
O5 C40 1_555 1_555
O6 C18 1_555 1_555
O7 C18 1_555 1_555
O8 C1 1_555 1_555
O9 C40 1_555 1_555
O10 C25 1_555 1_555
O11 C48 1_555 1_555
O12 C17 1_555 1_555
Tb1 O3 1_555 1_555
Tb2 O1 1_555 1_555
O2A Tb1 1_555 1_555
O2B Tb2 1_555 1_555
O3C Tb2 1_555 1_555
O4_2 Tb2 1_555 1_555
O5A Tb2 1_555 1_555
O6C Tb2 1_555 1_555
O7C Tb1 1_555 1_555
O9A Tb1 1_555 1_555
O11C Tb1 1_555 1_555
O12A Tb1 1_555 1_555
Tb1A O2 1_555 1_555
Tb1A_2 O9 1_555 1_555
Tb1C O7 1_555 1_555
Tb1C_2 O11 1_555 1_555
Tb2_2 O4 1_555 1_555
Tb2A O5 1_555 1_555
Tb2B O2 1_555 1_555
Tb2C O6 1_555 1_555
Tb2C_2 O3 1_555 1_555
C6 C7 1_555 1_555
C10 N4 1_555 1_555
C11 N5 1_555 1_555
C15 C16 1_555 1_555
C19 N6 1_555 1_555
C23 C24 1_555 1_555
C30 C31 1_555 1_555
C34 N12 1_555 1_555
C38 C39 1_555 1_555
C41 N10 1_555 1_555
C42 N11 1_555 1_555
C46 C47 1_555 1_555
O7 Tb2C 1_555 1_555
O8 Tb1 1_555 1_555
O9 Tb2A 1_555 1_555
O10 Tb1 1_555 1_555
O12 Tb1A 1_555 1_555
Tb2 O7C 1_555 1_555
Tb2 O9A 1_555 1_555
O2A Tb2C_2 1_555 1_555
O2B Tb1C 1_555 1_555
O3C Tb1C 1_555 1_555

#END
