
#######################################################################
#
#                 Cambridge Crystallographic Data Centre
#                                CCDC 
#
#######################################################################
#
# If this CIF has been generated from an entry in the Cambridge 
# Structural Database, then it will include bibliographic, chemical, 
# crystal, experimental, refinement or atomic coordinate data resulting 
# from the CCDC's data processing and validation procedures.
#
#######################################################################

data_BADYAJ
_chemical_formula_moiety         '(C54 H48 N14 O16 Tb2)n'
_symmetry_cell_setting           monoclinic
_symmetry_space_group_name_H-M   'P 21/c'
_symmetry_Int_Tables_number      14
_space_group_name_Hall           '-P 2ybc'
loop_
_symmetry_equiv_pos_site_id
_symmetry_equiv_pos_as_xyz
1 x,y,z
2 -x,1/2+y,1/2-z
3 -x,-y,-z
4 x,1/2-y,1/2+z
_cell_length_a                   30.6210(13)
_cell_length_b                   19.8556(16)
_cell_length_c                   14.5920(6)
_cell_angle_alpha                90
_cell_angle_beta                 102.385(4)
_cell_angle_gamma                90
_cell_volume                     8665.45
loop_
_atom_site_label
_atom_site_type_symbol
_atom_site_fract_x
_atom_site_fract_y
_atom_site_fract_z
C1 C 1.2069(6) -0.1447(10) 0.9497(13)
C2 C 1.1726(7) -0.0941(9) 0.9672(12)
C3 C 1.1381(6) -0.0746(9) 0.8983(12)
H1 H 1.1344 -0.0956 0.8401
C4 C 1.1079(9) -0.0248(15) 0.9098(19)
H2 H 1.0893 -0.0052 0.8580
C5 C 1.1062(6) -0.0041(9) 1.0045(10)
C6 C 1.1407(6) -0.0236(9) 1.0783(10)
H3 H 1.1426 -0.0077 1.1390
C7 C 1.1730(6) -0.0689(9) 1.0567(10)
H4 H 1.1960 -0.0828 1.1055
C8 C 1.0618(6) 0.0656(12) 1.0887(11)
C9 C 1.0712(6) 0.0832(10) 1.2450(9)
C10 C 1.0154(6) 0.1383(11) 1.1428(14)
C11 C 0.9446(6) 0.1881(14) 1.0541(13)
C12 C 0.9446(5) 0.1669(11) 0.9676(11)
H5 H 0.9665 0.1378 0.9556
C13 C 0.9089(5) 0.1911(11) 0.8928(13)
H6 H 0.9099 0.1822 0.8307
C14 C 0.8740(5) 0.2264(8) 0.9120(10)
C15 C 0.8758(8) 0.2496(10) 1.0055(17)
H7 H 0.8530 0.2754 1.0206
C16 C 0.9105(7) 0.2331(11) 1.0672(14)
H8 H 0.9136 0.2523 1.1264
C17 C 0.8347(5) 0.2391(7) 0.8332(10)
C18 C 1.2175(5) -0.1344(8) 1.4833(10)
C19 C 1.1896(5) -0.0792(7) 1.4382(10)
C20 C 1.1553(6) -0.0870(8) 1.3608(9)
H9 H 1.1538 -0.1285 1.3308
C21 C 1.1236(6) -0.0416(9) 1.3229(12)
H10 H 1.1004 -0.0519 1.2723
C22 C 1.1284(7) 0.0242(12) 1.3672(13)
C23 C 1.1633(6) 0.0370(9) 1.4464(11)
H11 H 1.1666 0.0797 1.4732
C24 C 1.1916(7) -0.0127(10) 1.4828(14)
H12 H 1.2130 -0.0048 1.5375
C25 C 0.2758(5) -0.1307(8) 1.2502(9)
C26 C 0.3034(5) -0.0758(8) 1.2406(9)
C27 C 0.3418(5) -0.0823(8) 1.1974(10)
H13 H 0.3461 -0.1228 1.1686
C28 C 0.3707(6) -0.0332(9) 1.1973(15)
H14 H 0.3974 -0.0421 1.1790
C29 C 0.3612(6) 0.0366(9) 1.2260(11)
C30 C 0.3250(6) 0.0408(8) 1.2683(11)
H15 H 0.3201 0.0814 1.2962
C31 C 0.2969(7) -0.0091(10) 1.2716(12)
H16 H 0.2716 -0.0003 1.2953
C32 C 0.4161(5) 0.1000(7) 1.1602(10)
C33 C 0.4746(5) 0.1557(7) 1.1236(9)
C34 C 0.5472(5) 0.2094(9) 1.1110(10)
C35 C 0.5812(6) 0.2578(8) 1.1600(16)
H17 H 0.5770 0.2811 1.2127
C36 C 0.6159(6) 0.2663(8) 1.1278(14)
H18 H 0.6369 0.2975 1.1573
C37 C 0.6243(5) 0.2327(10) 1.0535(13)
C38 C 0.5925(6) 0.1867(9) 1.0012(11)
H19 H 0.5976 0.1642 0.9485
C39 C 0.5543(5) 0.1779(10) 1.0336(9)
H20 H 0.5324 0.1491 1.0013
C40 C 0.6652(5) 0.2439(8) 1.0154(11)
C41 C 0.4376(7) 0.0752(8) 1.0295(15)
C42 C 0.4017(6) -0.0052(10) 0.9004(14)
C43 C 0.4096(7) -0.0328(11) 0.8148(14)
H21 H 0.4335 -0.0172 0.7907
C44 C 0.3830(5) -0.0805(8) 0.7696(10)
H22 H 0.3895 -0.0998 0.7160
C45 C 0.3464(5) -0.1018(8) 0.8005(9)
C46 C 0.3370(5) -0.0734(8) 0.8814(9)
H23 H 0.3118 -0.0866 0.9026
C47 C 0.3652(6) -0.0265(11) 0.9290(12)
H24 H 0.3589 -0.0082 0.9835
C48 C 0.3143(5) -0.1537(7) 0.7438(10)
N1 N 1.0713(5) 0.0375(8) 1.0111(10)
H25 H 1.0530 0.0468 0.9592
N2 N 1.0890(6) 0.0545(9) 1.1720(12)
N3 N 1.0399(6) 0.1245(11) 1.2396(13)
N4 N 1.0243(5) 0.1060(8) 1.0687(10)
N5 N 0.9786(6) 0.1736(10) 1.1395(13)
H26 H 0.9741 0.1894 1.1916
N6 N 1.0949(5) 0.0747(9) 1.3346(11)
H27 H 1.0893 0.1024 1.3759
N7 N 0.3898(5) 0.0882(8) 1.2240(10)
H28 H 0.3919 0.1174 1.2683
N8 N 0.4507(5) 0.1466(7) 1.1902(10)
N9 N 0.4699(5) 0.1228(8) 1.0387(11)
N10 N 0.4078(5) 0.0659(8) 1.0825(9)
N11 N 0.4336(5) 0.0404(9) 0.9427(10)
H29 H 0.4542 0.0490 0.9124
N12 N 0.5073(5) 0.2018(9) 1.1484(10)
H30 H 0.5042 0.2298 1.1915
O1 O 1.2352(4) -0.1630(7) 1.0191(8)
O2 O 0.8005(4) 0.2654(6) 0.8518(6)
O3 O 0.2830(3) -0.1900(5) 1.2203(6)
O4 O 0.3257(4) -0.1736(6) 0.6699(7)
O5 O 0.6679(3) 0.2080(6) 0.9392(7)
O6 O 1.2442(4) -0.1201(6) 1.5606(9)
O7 O 1.2151(3) -0.1932(6) 1.4483(6)
O8 O 1.2038(5) -0.1624(7) 0.8689(9)
O9 O 0.6981(3) 0.2712(5) 1.0563(6)
O10 O 0.2433(4) -0.1245(5) 1.2953(7)
O11 O 0.2801(3) -0.1754(5) 0.7705(8)
O12 O 0.8373(4) 0.2267(6) 0.7530(8)
Tb1 Tb 0.76213(2) 0.24580(4) 0.67979(5)
Tb2 Tb 0.73366(2) 0.26186(3) 0.91297(5)
O1B O 0.7648(4) 0.1630(7) 0.9809(8)
O3B O 0.7170(3) 0.1900(5) 0.7797(6)
O4A O 0.6743(4) 0.3264(6) 0.8301(7)
O6A O 0.7558(4) 0.3799(6) 0.9394(9)
O7A O 0.7849(3) 0.3068(6) 1.0517(6)
O7B O 0.7849(3) 0.1932(6) 0.5517(6)
O8A O 0.7962(5) 0.3376(7) 0.6311(9)
O9C O 0.6981(3) 0.2288(5) 0.5563(6)
O10B O 0.7567(4) 0.1245(5) 0.7047(7)
O11A O 0.7199(3) 0.3246(5) 0.7295(8)
Tb1A Tb 0.23787(2) -0.25420(4) 0.82021(5)
Tb1A_2 Tb 1.23787(2) -0.25420(4) 0.82021(5)
Tb1B Tb 0.23787(2) -0.24580(4) 1.32021(5)
Tb1B_2 Tb 1.23787(2) -0.24580(4) 1.32021(5)
Tb1C Tb 0.76213(2) 0.25420(4) 1.17979(5)
Tb2A Tb 0.26634(2) -0.23814(3) 0.58703(5)
Tb2A_2 Tb 1.26634(2) -0.23814(3) 1.58703(5)
Tb2B Tb 0.26634(2) -0.26186(3) 1.08703(5)
Tb2B_2 Tb 1.26634(2) -0.26186(3) 1.08703(5)
C49 C 0.4854(7) 0.2452(10) 1.3730(12)
H31 H 0.4590 0.2598 1.3884
C50 C 0.5388(10) 0.1553(17) 1.387(2)
H32 H 0.5282 0.1403 1.3239
H33 H 0.5478 0.1170 1.4272
H34 H 0.5638 0.1848 1.3902
C51 C 0.4828(11) 0.1596(18) 1.477(2)
H35 H 0.4805 0.1908 1.5261
H36 H 0.4985 0.1201 1.5040
H37 H 0.4533 0.1472 1.4437
N13 N 0.5053(10) 0.1889(13) 1.417(2)
O13 O 0.5013(4) 0.2812(7) 1.3088(9)
C52 C 0.3987(8) -0.0339(15) 1.456(2)
H38 H 0.3946 -0.0753 1.4260
C53 C 0.3733(10) 0.0461(13) 1.553(2)
H39 H 0.4002 0.0438 1.6013
H40 H 0.3482 0.0535 1.5815
H41 H 0.3756 0.0826 1.5114
C54 C 0.3315(9) -0.0526(16) 1.501(2)
H42 H 0.3155 -0.0571 1.4372
H43 H 0.3122 -0.0328 1.5377
H44 H 0.3410 -0.0962 1.5260
N14 N 0.3678(8) -0.0125(13) 1.5046(18)
O14 O 0.4355(7) 0.0033(12) 1.4512(15)
O15 O 0.9885(6) -0.0654(11) 1.1770(13)
O16 O 0.4940(6) 0.4197(10) 1.3166(11)
loop_
_geom_bond_atom_site_label_1
_geom_bond_atom_site_label_2
_geom_bond_site_symmetry_1
_geom_bond_site_symmetry_2
C1 C2 1_555 1_555
C2 C3 1_555 1_555
C3 H1 1_555 1_555
C4 C3 1_555 1_555
H2 C4 1_555 1_555
C5 C4 1_555 1_555
C6 C5 1_555 1_555
H3 C6 1_555 1_555
C7 C2 1_555 1_555
H4 C7 1_555 1_555
C8 N1 1_555 1_555
C9 N2 1_555 1_555
C10 N3 1_555 1_555
C11 C12 1_555 1_555
C12 H5 1_555 1_555
C13 C12 1_555 1_555
H6 C13 1_555 1_555
C14 C13 1_555 1_555
C15 C14 1_555 1_555
H7 C15 1_555 1_555
C16 C11 1_555 1_555
H8 C16 1_555 1_555
C17 C14 1_555 1_555
C18 C19 1_555 1_555
C19 C20 1_555 1_555
C20 H9 1_555 1_555
C21 C20 1_555 1_555
H10 C21 1_555 1_555
C22 C21 1_555 1_555
C23 C22 1_555 1_555
H11 C23 1_555 1_555
C24 C19 1_555 1_555
H12 C24 1_555 1_555
C25 C26 1_555 1_555
C26 C27 1_555 1_555
C27 H13 1_555 1_555
C28 C27 1_555 1_555
H14 C28 1_555 1_555
C29 C28 1_555 1_555
C30 C29 1_555 1_555
H15 C30 1_555 1_555
C31 C26 1_555 1_555
H16 C31 1_555 1_555
C32 N7 1_555 1_555
C33 N8 1_555 1_555
C34 C35 1_555 1_555
C35 H17 1_555 1_555
C36 C35 1_555 1_555
H18 C36 1_555 1_555
C37 C36 1_555 1_555
C38 C37 1_555 1_555
H19 C38 1_555 1_555
C39 C34 1_555 1_555
H20 C39 1_555 1_555
C40 C37 1_555 1_555
C41 N9 1_555 1_555
C42 C43 1_555 1_555
C43 H21 1_555 1_555
C44 C43 1_555 1_555
H22 C44 1_555 1_555
C45 C44 1_555 1_555
C46 C45 1_555 1_555
H23 C46 1_555 1_555
C47 C42 1_555 1_555
H24 C47 1_555 1_555
C48 C45 1_555 1_555
N1 C5 1_555 1_555
H25 N1 1_555 1_555
N2 C8 1_555 1_555
N3 C9 1_555 1_555
N4 C8 1_555 1_555
N5 C10 1_555 1_555
H26 N5 1_555 1_555
N6 C9 1_555 1_555
H27 N6 1_555 1_555
N7 C29 1_555 1_555
H28 N7 1_555 1_555
N8 C32 1_555 1_555
N9 C33 1_555 1_555
N10 C32 1_555 1_555
N11 C41 1_555 1_555
H29 N11 1_555 1_555
N12 C33 1_555 1_555
H30 N12 1_555 1_555
O1 C1 1_555 1_555
O2 C17 1_555 1_555
O3 C25 1_555 1_555
O4 C48 1_555 1_555
O5 C40 1_555 1_555
O6 C18 1_555 1_555
O7 C18 1_555 1_555
O8 C1 1_555 1_555
O9 C40 1_555 1_555
O10 C25 1_555 1_555
O11 C48 1_555 1_555
O12 C17 1_555 1_555
Tb1 O2 1_555 1_555
Tb2 O2 1_555 1_555
C49 H31 1_555 1_555
C50 H32 1_555 1_555
H33 C50 1_555 1_555
H34 C50 1_555 1_555
C51 H35 1_555 1_555
H36 C51 1_555 1_555
H37 C51 1_555 1_555
N13 C49 1_555 1_555
O13 C49 1_555 1_555
C52 H38 1_555 1_555
C53 H39 1_555 1_555
H40 C53 1_555 1_555
H41 C53 1_555 1_555
C54 H42 1_555 1_555
H43 C54 1_555 1_555
H44 C54 1_555 1_555
N14 C52 1_555 1_555
O14 C52 1_555 1_555
O1B Tb2 1_555 1_555
O3B Tb1 1_555 1_555
O4A Tb2 1_555 1_555
O6A Tb2 1_555 1_555
O7A Tb2 1_555 1_555
O7B Tb1 1_555 1_555
O8A Tb1 1_555 1_555
O9C Tb1 1_555 1_555
O10B Tb1 1_555 1_555
O11A Tb1 1_555 1_555
Tb1A O11 1_555 1_555
Tb1A_2 O8 1_555 1_555
Tb1B O3 1_555 1_555
Tb1B_2 O7 1_555 1_555
Tb1C O9 1_555 1_555
Tb2A O4 1_555 1_555
Tb2A_2 O6 1_555 1_555
Tb2B O3 1_555 1_555
Tb2B_2 O1 1_555 1_555
C6 C7 1_555 1_555
C10 N4 1_555 1_555
C11 N5 1_555 1_555
C15 C16 1_555 1_555
C22 N6 1_555 1_555
C23 C24 1_555 1_555
C30 C31 1_555 1_555
C34 N12 1_555 1_555
C38 C39 1_555 1_555
C41 N10 1_555 1_555
C42 N11 1_555 1_555
C46 C47 1_555 1_555
O5 Tb2 1_555 1_555
O7 Tb2A_2 1_555 1_555
O9 Tb2 1_555 1_555
O10 Tb1B 1_555 1_555
O12 Tb1 1_555 1_555
Tb2 O3B 1_555 1_555
C50 N13 1_555 1_555
C51 N13 1_555 1_555
C53 N14 1_555 1_555
C54 N14 1_555 1_555
O7A Tb1C 1_555 1_555

#END
