
#######################################################################
#
#                 Cambridge Crystallographic Data Centre
#                                CCDC 
#
#######################################################################
#
# If this CIF has been generated from an entry in the Cambridge 
# Structural Database, then it will include bibliographic, chemical, 
# crystal, experimental, refinement or atomic coordinate data resulting 
# from the CCDC's data processing and validation procedures.
#
#######################################################################

data_SETPEO
_chemical_formula_moiety         '(C36 H24 Cl9 In3 N12)n'
_symmetry_cell_setting           cubic
_symmetry_space_group_name_H-M   'I 2 3'
_symmetry_Int_Tables_number      197
_space_group_name_Hall           'I 2 2 3'
loop_
_symmetry_equiv_pos_site_id
_symmetry_equiv_pos_as_xyz
1 x,y,z
2 -x,-y,z
3 -x,y,-z
4 x,-y,-z
5 z,x,y
6 z,-x,-y
7 -z,-x,y
8 -z,x,-y
9 y,z,x
10 -y,z,-x
11 y,-z,-x
12 -y,-z,x
13 1/2+x,1/2+y,1/2+z
14 1/2-x,1/2-y,1/2+z
15 1/2-x,1/2+y,1/2-z
16 1/2+x,1/2-y,1/2-z
17 1/2+z,1/2+x,1/2+y
18 1/2+z,1/2-x,1/2-y
19 1/2-z,1/2-x,1/2+y
20 1/2-z,1/2+x,1/2-y
21 1/2+y,1/2+z,1/2+x
22 1/2-y,1/2+z,1/2-x
23 1/2+y,1/2-z,1/2-x
24 1/2-y,1/2-z,1/2+x
_cell_length_a                   22.086(2)
_cell_length_b                   22.086(2)
_cell_length_c                   22.086(2)
_cell_angle_alpha                90
_cell_angle_beta                 90
_cell_angle_gamma                90
_cell_volume                     10773.4
loop_
_atom_site_label
_atom_site_type_symbol
_atom_site_fract_x
_atom_site_fract_y
_atom_site_fract_z
_atom_site_U_iso_or_equiv
_atom_site_thermal_displace_type
In1 In 1.0000 0.5000 0.76394(7) 0.1404 Uani
Cl1 Cl 1.0841(2) 0.42814(18) 0.7702(4) 0.2540 Uani
Cl2 Cl 1.0000 0.5000 0.8692(3) 0.1950 Uani
N1 N 0.7639(4) 0.2746(4) 0.8151(4) 0.1720 Uani
C1 C 0.8104(5) 0.2762(5) 0.7731(5) 0.1720 Uani
N2 N 0.9391(5) 0.4196(4) 0.7799(6) 0.2893 Uani
C2 C 0.9442(4) 0.3735(6) 0.7373(5) 0.2893 Uani
H1 H 0.9780 0.3723 0.7108 0.3470 Uiso
C3 C 0.8997(6) 0.3291(5) 0.7336(5) 0.2220 Uani
H2 H 0.9032 0.2976 0.7045 0.2660 Uiso
C4 C 0.8502(5) 0.3308(4) 0.7723(5) 0.2220 Uani
C5 C 0.8451(4) 0.3769(5) 0.8149(4) 0.2193 Uani
H3 H 0.8113 0.3781 0.8414 0.2630 Uiso
C6 C 0.8896(6) 0.4213(4) 0.8187(5) 0.2193 Uani
H4 H 0.8861 0.4528 0.8477 0.2630 Uiso
N1E N 0.8151(4) 0.2361(4) 0.7254(4) 0.1720 Uani
C1E C 0.7731(5) 0.1896(5) 0.7238(5) 0.1720 Uani
N2E N 0.7799(6) 0.0609(5) 0.5804(4) 0.2893 Uani
C2E C 0.7373(5) 0.0558(4) 0.6265(6) 0.2893 Uani
H1E H 0.7108 0.0220 0.6277 0.3470 Uiso
C3E C 0.7336(5) 0.1003(6) 0.6709(5) 0.2220 Uani
H2E H 0.7045 0.0968 0.7024 0.2660 Uiso
C4E C 0.7723(5) 0.1498(5) 0.6692(4) 0.2220 Uani
C5E C 0.8149(4) 0.1549(4) 0.6231(5) 0.2193 Uani
H3E H 0.8414 0.1887 0.6219 0.2630 Uiso
C6E C 0.8187(5) 0.1104(6) 0.5787(4) 0.2193 Uani
H4E H 0.8477 0.1139 0.5472 0.2630 Uiso
N1K N 0.7254(4) 0.1849(4) 0.7639(4) 0.1720 Uani
C1K C 0.7238(5) 0.2269(5) 0.8104(5) 0.1720 Uani
N2K N 0.5804(4) 0.2201(6) 0.9391(5) 0.2893 Uani
C2K C 0.6265(6) 0.2627(5) 0.9442(4) 0.2893 Uani
H1K H 0.6277 0.2892 0.9780 0.3470 Uiso
C3K C 0.6709(5) 0.2664(5) 0.8997(6) 0.2220 Uani
H2K H 0.7024 0.2955 0.9032 0.2660 Uiso
C4K C 0.6692(4) 0.2277(5) 0.8502(5) 0.2220 Uani
C5K C 0.6231(5) 0.1851(4) 0.8451(4) 0.2193 Uani
H3K H 0.6219 0.1586 0.8113 0.2630 Uiso
C6K C 0.5787(4) 0.1813(5) 0.8896(6) 0.2193 Uani
H4K H 0.5472 0.1523 0.8861 0.2630 Uiso
Cl1A Cl 0.9159(2) 0.57186(18) 0.7702(4) 0.2540 Uani
N1A N 1.2361(4) 0.7254(4) 0.8151(4) 0.1720 Uani
C1A C 1.1896(5) 0.7238(5) 0.7731(5) 0.1720 Uani
N2A N 1.0609(5) 0.5804(4) 0.7799(6) 0.2893 Uani
C2A C 1.0558(4) 0.6265(6) 0.7373(5) 0.2893 Uani
H1A H 1.0220 0.6277 0.7108 0.3470 Uiso
C3A C 1.1003(6) 0.6709(5) 0.7336(5) 0.2220 Uani
H2A H 1.0968 0.7024 0.7045 0.2660 Uiso
C4A C 1.1498(5) 0.6692(4) 0.7723(5) 0.2220 Uani
C5A C 1.1549(4) 0.6231(5) 0.8149(4) 0.2193 Uani
H3A H 1.1887 0.6219 0.8414 0.2630 Uiso
C6A C 1.1104(6) 0.5787(4) 0.8187(5) 0.2193 Uani
H4A H 1.1139 0.5472 0.8477 0.2630 Uiso
N1G N 1.1849(4) 0.7639(4) 0.7254(4) 0.1720 Uani
C1G C 1.2269(5) 0.8104(5) 0.7238(5) 0.1720 Uani
N2G N 1.2201(6) 0.9391(5) 0.5804(4) 0.2893 Uani
C2G C 1.2627(5) 0.9442(4) 0.6265(6) 0.2893 Uani
H1G H 1.2892 0.9780 0.6277 0.3470 Uiso
C3G C 1.2664(5) 0.8997(6) 0.6709(5) 0.2220 Uani
H2G H 1.2955 0.9032 0.7024 0.2660 Uiso
C4G C 1.2277(5) 0.8502(5) 0.6692(4) 0.2220 Uani
C5G C 1.1851(4) 0.8451(4) 0.6231(5) 0.2193 Uani
H3G H 1.1586 0.8113 0.6219 0.2630 Uiso
C6G C 1.1813(5) 0.8896(6) 0.5787(4) 0.2193 Uani
H4G H 1.1523 0.8861 0.5472 0.2630 Uiso
N1H N 1.2746(4) 0.8151(4) 0.7639(4) 0.1720 Uani
C1H C 1.2762(5) 0.7731(5) 0.8104(5) 0.1720 Uani
N2H N 1.4196(4) 0.7799(6) 0.9391(5) 0.2893 Uani
C2H C 1.3735(6) 0.7373(5) 0.9442(4) 0.2893 Uani
H1H H 1.3723 0.7108 0.9780 0.3470 Uiso
C3H C 1.3291(5) 0.7336(5) 0.8997(6) 0.2220 Uani
H2H H 1.2976 0.7045 0.9032 0.2660 Uiso
C4H C 1.3308(4) 0.7723(5) 0.8502(5) 0.2220 Uani
C5H C 1.3769(5) 0.8149(4) 0.8451(4) 0.2193 Uani
H3H H 1.3781 0.8414 0.8113 0.2630 Uiso
C6H C 1.4213(4) 0.8187(5) 0.8896(6) 0.2193 Uani
H4H H 1.4528 0.8477 0.8861 0.2630 Uiso
In1D In 0.76394(7) 0.0000 0.5000 0.1404 Uani
Cl1E Cl 0.7702(4) -0.0841(2) 0.57186(18) 0.2540 Uani
Cl2D Cl 0.8692(3) 0.0000 0.5000 0.1950 Uani
In1J In 0.5000 0.23606(7) 1.0000 0.1404 Uani
Cl1K Cl 0.57186(18) 0.2298(4) 1.0841(2) 0.2540 Uani
Cl2J Cl 0.5000 0.1308(3) 1.0000 0.1950 Uani
Cl1D Cl 0.7702(4) 0.0841(2) 0.42814(18) 0.2540 Uani
Cl1J Cl 0.42814(18) 0.2298(4) 0.9159(2) 0.2540 Uani
In1F In 1.23606(7) 1.0000 0.5000 0.1404 Uani
In1H In 1.5000 0.76394(7) 1.0000 0.1404 Uani
N2D N 0.7799(6) -0.0609(5) 0.4196(4) 0.2893 Uani
N2J N 0.4196(4) 0.2201(6) 1.0609(5) 0.2893 Uani
loop_
_atom_site_aniso_label
_atom_site_aniso_U_11
_atom_site_aniso_U_22
_atom_site_aniso_U_33
_atom_site_aniso_U_23
_atom_site_aniso_U_13
_atom_site_aniso_U_12
In1 0.1410(11) 0.1231(10) 0.1570(11) 0.000 0.000 -0.0531(8)
Cl1 0.181(3) 0.137(3) 0.444(10) -0.056(4) 0.149(5) -0.009(2)
Cl2 0.266(11) 0.225(9) 0.094(4) 0.000 0.000 -0.177(10)
N1 0.172(3) 0.172(3) 0.172(3) 0.0000(14) 0.0035(13) 0.0002(14)
C1 0.172(3) 0.172(3) 0.172(3) 0.0000(14) 0.0035(13) 0.0002(14)
N2 0.289(6) 0.289(6) 0.290(6) -0.0011(14) 0.0018(14) -0.0016(14)
C2 0.289(6) 0.289(6) 0.290(6) -0.0011(14) 0.0018(14) -0.0016(14)
C3 0.222(5) 0.222(5) 0.222(5) -0.0004(14) 0.0013(14) -0.0011(14)
C4 0.222(5) 0.222(5) 0.222(5) -0.0004(14) 0.0013(14) -0.0011(14)
C5 0.219(5) 0.219(5) 0.220(5) -0.0005(14) 0.0010(14) -0.0012(14)
C6 0.219(5) 0.219(5) 0.220(5) -0.0005(14) 0.0010(14) -0.0012(14)
N1E 0.172 0.172 0.172 0.0002 0 -0.0035
C1E 0.172 0.172 0.172 0.0002 0 -0.0035
N2E 0.29 0.289 0.289 -0.0016 0.0011 -0.0018
C2E 0.29 0.289 0.289 -0.0016 0.0011 -0.0018
C3E 0.222 0.222 0.222 -0.0011 0.0004 -0.0013
C4E 0.222 0.222 0.222 -0.0011 0.0004 -0.0013
C5E 0.22 0.219 0.219 -0.0012 0.0005 -0.001
C6E 0.22 0.219 0.219 -0.0012 0.0005 -0.001
N1K 0.172 0.172 0.172 -0.0035 -0.0002 0
C1K 0.172 0.172 0.172 -0.0035 -0.0002 0
N2K 0.289 0.29 0.289 -0.0018 0.0016 -0.0011
C2K 0.289 0.29 0.289 -0.0018 0.0016 -0.0011
C3K 0.222 0.222 0.222 -0.0013 0.0011 -0.0004
C4K 0.222 0.222 0.222 -0.0013 0.0011 -0.0004
C5K 0.219 0.22 0.219 -0.001 0.0012 -0.0005
C6K 0.219 0.22 0.219 -0.001 0.0012 -0.0005
Cl1A 0.181 0.137 0.444 0.056 -0.149 -0.009
N1A 0.172 0.172 0.172 0 -0.0035 0.0002
C1A 0.172 0.172 0.172 0 -0.0035 0.0002
N2A 0.289 0.289 0.29 0.0011 -0.0018 -0.0016
C2A 0.289 0.289 0.29 0.0011 -0.0018 -0.0016
C3A 0.222 0.222 0.222 0.0004 -0.0013 -0.0011
C4A 0.222 0.222 0.222 0.0004 -0.0013 -0.0011
C5A 0.219 0.219 0.22 0.0005 -0.001 -0.0012
C6A 0.219 0.219 0.22 0.0005 -0.001 -0.0012
N1G 0.172 0.172 0.172 -0.0002 0 -0.0035
C1G 0.172 0.172 0.172 -0.0002 0 -0.0035
N2G 0.29 0.289 0.289 0.0016 -0.0011 -0.0018
C2G 0.29 0.289 0.289 0.0016 -0.0011 -0.0018
C3G 0.222 0.222 0.222 0.0011 -0.0004 -0.0013
C4G 0.222 0.222 0.222 0.0011 -0.0004 -0.0013
C5G 0.22 0.219 0.219 0.0012 -0.0005 -0.001
C6G 0.22 0.219 0.219 0.0012 -0.0005 -0.001
N1H 0.172 0.172 0.172 0.0035 0.0002 0
C1H 0.172 0.172 0.172 0.0035 0.0002 0
N2H 0.289 0.29 0.289 0.0018 -0.0016 -0.0011
C2H 0.289 0.29 0.289 0.0018 -0.0016 -0.0011
C3H 0.222 0.222 0.222 0.0013 -0.0011 -0.0004
C4H 0.222 0.222 0.222 0.0013 -0.0011 -0.0004
C5H 0.219 0.22 0.219 0.001 -0.0012 -0.0005
C6H 0.219 0.22 0.219 0.001 -0.0012 -0.0005
In1D 0.157 0.141 0.1231 -0.0531 0 0
Cl1E 0.444 0.181 0.137 -0.009 0.056 -0.149
Cl2D 0.094 0.266 0.225 -0.177 0 0
In1J 0.1231 0.157 0.141 0 0.0531 0
Cl1K 0.137 0.444 0.181 -0.149 0.009 -0.056
Cl2J 0.225 0.094 0.266 0 0.177 0
Cl1D 0.444 0.181 0.137 -0.009 -0.056 0.149
Cl1J 0.137 0.444 0.181 0.149 0.009 0.056
In1F 0.157 0.141 0.1231 0.0531 0 0
In1H 0.1231 0.157 0.141 0 -0.0531 0
N2D 0.29 0.289 0.289 -0.0016 -0.0011 0.0018
N2J 0.289 0.29 0.289 0.0018 0.0016 0.0011
loop_
_geom_bond_atom_site_label_1
_geom_bond_atom_site_label_2
_geom_bond_site_symmetry_1
_geom_bond_site_symmetry_2
In1 Cl1 1_555 1_555
Cl2 In1 1_555 1_555
N1 C1 1_555 1_555
C1 C4 1_555 1_555
N2 In1 1_555 1_555
C2 N2 1_555 1_555
H1 C2 1_555 1_555
C3 C2 1_555 1_555
H2 C3 1_555 1_555
C4 C3 1_555 1_555
C5 C4 1_555 1_555
H3 C5 1_555 1_555
C6 N2 1_555 1_555
H4 C6 1_555 1_555
N1E C1 1_555 1_555
C1E N1E 1_555 1_555
N2E C2E 1_555 1_555
C2E H1E 1_555 1_555
C3E C2E 1_555 1_555
H2E C3E 1_555 1_555
C4E C1E 1_555 1_555
C5E C4E 1_555 1_555
H3E C5E 1_555 1_555
C6E N2E 1_555 1_555
H4E C6E 1_555 1_555
N1K C1E 1_555 1_555
C1K N1 1_555 1_555
N2K C2K 1_555 1_555
C2K H1K 1_555 1_555
C3K C2K 1_555 1_555
H2K C3K 1_555 1_555
C4K C1K 1_555 1_555
C5K C4K 1_555 1_555
H3K C5K 1_555 1_555
C6K N2K 1_555 1_555
H4K C6K 1_555 1_555
Cl1A In1 1_555 1_555
N1A C1A 1_555 1_555
C1A C4A 1_555 1_555
N2A In1 1_555 1_555
C2A N2A 1_555 1_555
H1A C2A 1_555 1_555
C3A C2A 1_555 1_555
H2A C3A 1_555 1_555
C4A C3A 1_555 1_555
C5A C4A 1_555 1_555
H3A C5A 1_555 1_555
C6A N2A 1_555 1_555
H4A C6A 1_555 1_555
N1G C1A 1_555 1_555
C1G N1G 1_555 1_555
N2G C2G 1_555 1_555
C2G H1G 1_555 1_555
C3G C2G 1_555 1_555
H2G C3G 1_555 1_555
C4G C1G 1_555 1_555
C5G C4G 1_555 1_555
H3G C5G 1_555 1_555
C6G N2G 1_555 1_555
H4G C6G 1_555 1_555
N1H C1G 1_555 1_555
C1H N1A 1_555 1_555
N2H C2H 1_555 1_555
C2H H1H 1_555 1_555
C3H C2H 1_555 1_555
H2H C3H 1_555 1_555
C4H C1H 1_555 1_555
C5H C4H 1_555 1_555
H3H C5H 1_555 1_555
C6H N2H 1_555 1_555
H4H C6H 1_555 1_555
In1D N2E 1_555 1_555
Cl1E In1D 1_555 1_555
Cl2D In1D 1_555 1_555
In1J N2K 1_555 1_555
Cl1K In1J 1_555 1_555
Cl2J In1J 1_555 1_555
Cl1D In1D 1_555 1_555
Cl1J In1J 1_555 1_555
In1F N2G 1_555 1_555
In1H N2H 1_555 1_555
N2D In1D 1_555 1_555
N2J In1J 1_555 1_555
C5 C6 1_555 1_555
C3E C4E 1_555 1_555
C5E C6E 1_555 1_555
N1K C1K 1_555 1_555
C3K C4K 1_555 1_555
C5K C6K 1_555 1_555
C5A C6A 1_555 1_555
C3G C4G 1_555 1_555
C5G C6G 1_555 1_555
N1H C1H 1_555 1_555
C3H C4H 1_555 1_555
C5H C6H 1_555 1_555

#END
