
#######################################################################
#
#                 Cambridge Crystallographic Data Centre
#                                CCDC 
#
#######################################################################
#
# If this CIF has been generated from an entry in the Cambridge 
# Structural Database, then it will include bibliographic, chemical, 
# crystal, experimental, refinement or atomic coordinate data resulting 
# from the CCDC's data processing and validation procedures.
#
#######################################################################

data_KUMBOL
_chemical_formula_moiety         '(C51 H35 Gd2 N5 O13)n'
_symmetry_cell_setting           triclinic
_symmetry_space_group_name_H-M   'P -1'
_symmetry_Int_Tables_number      2
_space_group_name_Hall           '-P 1'
loop_
_symmetry_equiv_pos_site_id
_symmetry_equiv_pos_as_xyz
1 x,y,z
2 -x,-y,-z
_cell_length_a                   12.6176(19)
_cell_length_b                   14.198(2)
_cell_length_c                   14.896(2)
_cell_angle_alpha                69.221(5)
_cell_angle_beta                 67.598(5)
_cell_angle_gamma                78.395(7)
_cell_volume                     2299.95
loop_
_atom_site_label
_atom_site_type_symbol
_atom_site_fract_x
_atom_site_fract_y
_atom_site_fract_z
Gd1 Gd 2.06449(3) 1.51862(2) -0.40404(2)
Gd2 Gd 1.44884(3) 0.94610(2) -0.09336(2)
O1 O 2.0554(5) 1.4913(4) -0.2230(4)
O2 O 1.6956(4) 1.0469(4) -0.0646(4)
O3 O 1.6305(5) 1.0116(4) -0.1680(4)
O4 O 1.9698(4) 1.3955(4) -0.4406(4)
O5 O 1.5704(5) 0.8202(4) -0.1762(4)
O6 O 1.8086(5) 0.5625(4) -0.4808(4)
O7 O 1.8635(4) 0.5817(4) -0.3624(4)
O8 O 1.4917(5) 0.9511(4) -0.2682(4)
O9 O 2.4631(5) 1.1444(4) -0.0253(4)
N1 N 2.2354(6) 1.6388(5) -0.5180(5)
O10 O 1.9937(6) 1.3455(4) -0.2910(4)
O11 O 2.2125(5) 1.4401(5) -0.3297(4)
C1 C 1.8406(6) 1.1816(5) -0.2504(5)
H1 H 1.8088 1.2104 -0.1978
C2 C 1.7008(6) 1.0471(5) -0.1512(5)
C3 C 1.8000(6) 1.0933(5) -0.2414(5)
N2 N 2.0545(5) 1.6850(4) -0.3642(5)
C4 C 1.9657(5) 1.3278(5) -0.3551(5)
O12 O 2.3996(5) 1.1240(4) -0.1355(4)
C5 C 1.9292(6) 1.2269(5) -0.3385(5)
C6 C 2.4023(6) 1.1738(5) -0.0820(5)
C7 C 1.6064(6) 0.8281(6) -0.3477(5)
N3 N 1.2526(6) 0.9750(5) -0.1252(5)
C8 C 2.2825(6) 1.3176(5) -0.1622(5)
H2 H 2.3048 1.2924 -0.2170
C9 C 2.3263(6) 1.2701(5) -0.0830(5)
C10 C 1.9836(6) 1.1799(5) -0.4130(5)
H3 H 2.0438 1.2092 -0.4707
N4 N 1.3313(5) 0.7912(5) -0.0203(5)
C11 C 2.1424(7) 1.7466(5) -0.4133(6)
C12 C 2.2345(7) 1.7240(6) -0.4969(6)
C13 C 1.8522(6) 1.0485(5) -0.3183(6)
H4 H 1.8233 0.9915 -0.3146
C14 C 2.1550(7) 1.4478(5) -0.2428(6)
C15 C 1.6800(7) 0.7426(6) -0.3435(6)
H5 H 1.7004 0.7106 -0.2854
C16 C 1.9480(7) 1.0884(6) -0.4010(6)
H6 H 1.9880 1.0538 -0.4481
C17 C 2.2060(6) 1.4019(5) -0.1596(5)
C18 C 1.8036(6) 0.6073(5) -0.4202(5)
C19 C 1.5522(6) 0.8690(5) -0.2589(5)
C20 C 2.2983(7) 1.3103(6) -0.0037(6)
H7 H 2.3306 1.2803 0.0475
C21 C 1.1816(6) 0.8975(6) -0.0770(5)
C22 C 1.7248(6) 0.7027(6) -0.4249(5)
C23 C 2.1746(7) 1.4405(6) -0.0782(6)
H8 H 2.1218 1.4964 -0.0754
C24 C 1.2223(7) 0.8024(6) -0.0215(5)
C25 C 2.3218(8) 1.7922(6) -0.5548(6)
C26 C 1.5775(8) 0.8768(6) -0.4355(6)
H9 H 1.5276 0.9349 -0.4390
C27 C 1.6941(7) 0.7520(6) -0.5109(6)
H10 H 1.7225 0.7254 -0.5652
C28 C 2.3189(7) 1.6219(7) -0.5971(6)
H11 H 2.3180 1.5647 -0.6134
C29 C 2.2225(8) 1.3950(7) -0.0009(6)
H12 H 2.2033 1.4218 0.0524
C30 C 1.9679(8) 1.7049(6) -0.2856(6)
H13 H 1.9065 1.6642 -0.2529
C31 C 2.1418(9) 1.8324(6) -0.3859(7)
C32 C 1.0688(7) 0.9125(8) -0.0806(7)
C33 C 1.1472(8) 0.7230(7) 0.0307(7)
C34 C 1.3671(8) 0.7009(6) 0.0335(7)
H14 H 1.4417 0.6916 0.0349
C35 C 2.3169(9) 1.8791(7) -0.5255(8)
H15 H 2.3737 1.9243 -0.5642
C36 C 1.2970(9) 0.6209(7) 0.0872(8)
H16 H 1.3255 0.5599 0.1237
C37 C 2.4108(8) 1.7696(7) -0.6386(7)
H17 H 2.4693 1.8127 -0.6793
C38 C 2.4096(8) 1.6842(8) -0.6590(8)
H18 H 2.4679 1.6671 -0.7131
C39 C 2.2345(10) 1.8972(7) -0.4454(8)
H19 H 2.2363 1.9528 -0.4271
C40 C 1.2141(8) 1.0642(7) -0.1776(7)
H20 H 1.2627 1.1165 -0.2115
C41 C 1.6230(9) 0.8386(7) -0.5181(7)
H21 H 1.6052 0.8718 -0.5773
C42 C 1.1907(9) 0.6301(7) 0.0872(7)
H22 H 1.1445 0.5761 0.1240
C43 C 1.0353(9) 0.7404(9) 0.0243(8)
H23 H 0.9869 0.6879 0.0576
C44 C 1.9658(9) 1.7844(7) -0.2505(8)
H24 H 1.9068 1.7934 -0.1926
C45 C 2.0511(10) 1.8486(7) -0.3019(8)
H25 H 2.0488 1.9035 -0.2809
C46 C 1.0303(9) 1.0089(9) -0.1340(9)
H26 H 0.9554 1.0219 -0.1351
C47 C 1.1051(10) 1.0814(8) -0.1834(8)
H27 H 1.0828 1.1442 -0.2221
C48 C 0.9970(8) 0.8292(10) -0.0274(8)
H28 H 0.9228 0.8375 -0.0292
Gd1_2 Gd 2.06449(3) 0.51862(2) -0.40404(2)
Gd1A Gd 1.93551(3) 0.48138(2) -0.59596(2)
Gd1A_2 Gd 1.93551(3) 1.48138(2) -0.59596(2)
Gd2_2 Gd 2.44884(3) 0.94610(2) -0.09336(2)
Gd2A Gd 1.55116(3) 1.05390(2) 0.09336(2)
Gd2A_2 Gd 2.55116(3) 1.05390(2) 0.09336(2)
O2A O 1.3044(4) 0.9531(4) 0.0646(4)
O4A O 2.0302(4) 1.6045(4) -0.5594(4)
O6A O 2.1914(5) 1.4375(4) -0.5192(4)
O7_2 O 1.8635(4) 1.5817(4) -0.3624(4)
O9A O 1.5369(5) 0.8556(4) 0.0253(4)
O12_2 O 1.3996(5) 1.1240(4) -0.1355(4)
N5 N 1.5900(8) 0.3887(8) 0.2586(8)
O13 O 1.4613(11) 0.5154(10) 0.2188(10)
C49 C 1.5327(13) 0.4446(13) 0.2009(11)
H29 H 1.5897 0.4745 0.1368
C50 C 1.5673(13) 0.4040(12) 0.3556(11)
H30 H 1.5085 0.4580 0.3640
H31 H 1.6363 0.4211 0.3572
H32 H 1.5420 0.3431 0.4099
C51 C 1.6764(15) 0.3112(13) 0.2318(15)
H33 H 1.6833 0.3092 0.1661
H34 H 1.6550 0.2471 0.2819
H35 H 1.7487 0.3255 0.2296
loop_
_geom_bond_atom_site_label_1
_geom_bond_atom_site_label_2
_geom_bond_site_symmetry_1
_geom_bond_site_symmetry_2
Gd1 O1 1_555 1_555
Gd2 O3 1_555 1_555
O1 C14 1_555 1_555
O2 C2 1_555 1_555
O3 C2 1_555 1_555
O4 Gd1 1_555 1_555
O5 Gd2 1_555 1_555
O6 C18 1_555 1_555
O7 C18 1_555 1_555
O8 Gd2 1_555 1_555
O9 C6 1_555 1_555
N1 Gd1 1_555 1_555
O10 Gd1 1_555 1_555
O11 Gd1 1_555 1_555
C1 H1 1_555 1_555
C2 C3 1_555 1_555
C3 C1 1_555 1_555
N2 Gd1 1_555 1_555
C4 O4 1_555 1_555
O12 C6 1_555 1_555
C5 C1 1_555 1_555
C6 C9 1_555 1_555
C7 C15 1_555 1_555
N3 Gd2 1_555 1_555
C8 H2 1_555 1_555
C9 C8 1_555 1_555
C10 C5 1_555 1_555
H3 C10 1_555 1_555
N4 Gd2 1_555 1_555
C11 N2 1_555 1_555
C12 N1 1_555 1_555
C13 C3 1_555 1_555
H4 C13 1_555 1_555
C14 O11 1_555 1_555
C15 H5 1_555 1_555
C16 C10 1_555 1_555
H6 C16 1_555 1_555
C17 C8 1_555 1_555
C18 C22 1_555 1_555
C19 O5 1_555 1_555
C20 C9 1_555 1_555
H7 C20 1_555 1_555
C21 N3 1_555 1_555
C22 C15 1_555 1_555
C23 C17 1_555 1_555
H8 C23 1_555 1_555
C24 N4 1_555 1_555
C25 C12 1_555 1_555
C26 C7 1_555 1_555
H9 C26 1_555 1_555
C27 C22 1_555 1_555
H10 C27 1_555 1_555
C28 N1 1_555 1_555
H11 C28 1_555 1_555
C29 C20 1_555 1_555
H12 C29 1_555 1_555
C30 N2 1_555 1_555
H13 C30 1_555 1_555
C31 C11 1_555 1_555
C32 C21 1_555 1_555
C33 C24 1_555 1_555
C34 N4 1_555 1_555
H14 C34 1_555 1_555
C35 C25 1_555 1_555
H15 C35 1_555 1_555
C36 C34 1_555 1_555
H16 C36 1_555 1_555
C37 C25 1_555 1_555
H17 C37 1_555 1_555
C38 C28 1_555 1_555
H18 C38 1_555 1_555
C39 C31 1_555 1_555
H19 C39 1_555 1_555
C40 N3 1_555 1_555
H20 C40 1_555 1_555
C41 C26 1_555 1_555
H21 C41 1_555 1_555
C42 C33 1_555 1_555
H22 C42 1_555 1_555
C43 C33 1_555 1_555
H23 C43 1_555 1_555
C44 C30 1_555 1_555
H24 C44 1_555 1_555
C45 C31 1_555 1_555
H25 C45 1_555 1_555
C46 C32 1_555 1_555
H26 C46 1_555 1_555
C47 C40 1_555 1_555
H27 C47 1_555 1_555
C48 C32 1_555 1_555
H28 C48 1_555 1_555
N5 C49 1_555 1_555
O13 C49 1_555 1_555
C49 H29 1_555 1_555
C50 N5 1_555 1_555
H30 C50 1_555 1_555
H31 C50 1_555 1_555
H32 C50 1_555 1_555
C51 N5 1_555 1_555
H33 C51 1_555 1_555
H34 C51 1_555 1_555
H35 C51 1_555 1_555
Gd1_2 O7 1_555 1_555
Gd1A O6 1_555 1_555
Gd1A_2 O4 1_555 1_555
Gd2_2 O12 1_555 1_555
Gd2A O2 1_555 1_555
Gd2A_2 O9 1_555 1_555
O2A Gd2 1_555 1_555
O4A Gd1 1_555 1_555
O6A Gd1 1_555 1_555
O7_2 Gd1 1_555 1_555
O9A Gd2 1_555 1_555
O12_2 Gd2 1_555 1_555
O8 C19 1_555 1_555
O10 C4 1_555 1_555
C4 C5 1_555 1_555
C7 C19 1_555 1_555
C11 C12 1_555 1_555
C13 C16 1_555 1_555
C14 C17 1_555 1_555
C21 C24 1_555 1_555
C23 C29 1_555 1_555
C27 C41 1_555 1_555
C35 C39 1_555 1_555
C36 C42 1_555 1_555
C37 C38 1_555 1_555
C43 C48 1_555 1_555
C44 C45 1_555 1_555
C46 C47 1_555 1_555
Gd1A_2 O4A 1_555 1_555

#END
