
#######################################################################
#
#                 Cambridge Crystallographic Data Centre
#                                CCDC 
#
#######################################################################
#
# If this CIF has been generated from an entry in the Cambridge 
# Structural Database, then it will include bibliographic, chemical, 
# crystal, experimental, refinement or atomic coordinate data resulting 
# from the CCDC's data processing and validation procedures.
#
#######################################################################

data_SIVKAK
_chemical_formula_moiety         '(C20 H12 Ag4 Mn2 N12 O2)n'
_symmetry_cell_setting           orthorhombic
_symmetry_space_group_name_H-M   'P n m a'
_symmetry_Int_Tables_number      62
_space_group_name_Hall           '-P 2ac 2n'
loop_
_symmetry_equiv_pos_site_id
_symmetry_equiv_pos_as_xyz
1 x,y,z
2 1/2-x,-y,1/2+z
3 -x,1/2+y,-z
4 1/2+x,1/2-y,1/2-z
5 -x,-y,-z
6 1/2+x,y,1/2-z
7 x,1/2-y,z
8 1/2-x,1/2+y,1/2+z
_cell_length_a                   7.5831(4)
_cell_length_b                   31.0864(17)
_cell_length_c                   13.7989(7)
_cell_angle_alpha                90
_cell_angle_beta                 90
_cell_angle_gamma                90
_cell_volume                     3252.83
loop_
_atom_site_label
_atom_site_type_symbol
_atom_site_fract_x
_atom_site_fract_y
_atom_site_fract_z
N1 N 1.2492(3) 0.70016(7) 0.9444(2)
C1 C 1.3428(4) 0.67173(9) 0.9435(2)
Ag1 Ag 1.50415(3) 0.618710(8) 0.943810(18)
C2 C 1.6638(4) 0.56589(8) 0.96077(19)
N2 N 0.6298(3) 0.53429(7) 0.62105(15)
C3 C 0.3605(4) 0.37449(9) 0.6482(2)
H1 H 0.3563 0.3459 0.6287
N3 N 0.2633(5) 0.32651(11) 0.8691(2)
C4 C 0.2917(5) 0.35276(11) 0.8145(2)
C5 C 0.3274(4) 0.38604(9) 0.7433(2)
C6 C 0.3278(4) 0.42865(10) 0.7690(2)
H2 H 0.3037 0.4370 0.8324
Ag2 Ag 0.76296(3) 0.610258(7) 0.757937(16)
Mn1 Mn 1.05400(7) 0.7500 0.91298(4)
Mn2 Mn 0.5000 0.5000 0.5000
O1 O 0.9249(5) 0.7500 1.0554(2)
H3 H 0.8839 0.7739 1.0663
N4 N 0.4032(3) 0.44819(6) 0.60753(14)
N5 N 1.7647(3) 0.53933(7) 0.97231(16)
O2 O 1.1141(6) 0.7500 0.7555(2)
N6 N 0.8791(3) 0.69540(7) 0.86995(17)
C7 C 0.3999(4) 0.40662(8) 0.58370(19)
H5 H 0.4257 0.3990 0.5201
C8 C 0.8372(4) 0.66439(8) 0.83356(19)
C9 C 0.6806(4) 0.55986(8) 0.67260(18)
C10 C 0.3648(4) 0.45866(9) 0.69925(19)
H6 H 0.3632 0.4876 0.7164
N1F N 1.2492(3) 0.79984(7) 0.9444(2)
C1F C 1.3428(4) 0.82827(9) 0.9435(2)
Ag1F Ag 1.50415(3) 0.881290(8) 0.943810(18)
C2F C 1.6638(4) 0.93411(8) 0.96077(19)
N2F N 0.6298(3) 0.96571(7) 0.62105(15)
N2D N 0.3702(3) 0.46571(7) 0.37895(15)
C3D C 0.6395(4) 0.62551(9) 0.3518(2)
H1D H 0.6437 0.6541 0.3713
N3D N 0.7367(5) 0.67349(11) 0.1309(2)
C4D C 0.7083(5) 0.64724(11) 0.1855(2)
C5D C 0.6726(4) 0.61396(9) 0.2567(2)
C6D C 0.6722(4) 0.57135(10) 0.2310(2)
H2D H 0.6963 0.5630 0.1676
Ag2F Ag 0.76296(3) 0.889742(7) 0.757937(16)
Mn2E Mn 2.0000 0.5000 1.0000
Mn2G Mn 2.0000 1.0000 1.0000
Mn2F Mn 0.5000 1.0000 0.5000
H3F H 0.8839 0.7261 1.0663
N4D N 0.5968(3) 0.55181(6) 0.39247(14)
N5F N 1.7647(3) 0.96067(7) 0.97231(16)
N5E N 0.2647(3) 0.53933(7) 0.52769(16)
N5A N 0.7353(3) 0.46067(7) 0.47231(16)
N6F N 0.8791(3) 0.80460(7) 0.86995(17)
C7D C 0.6001(4) 0.59338(8) 0.41630(19)
H5D H 0.5743 0.6010 0.4799
C8F C 0.8372(4) 0.83561(8) 0.83356(19)
C9F C 0.6806(4) 0.94014(8) 0.67260(18)
C10D C 0.6352(4) 0.54134(9) 0.30075(19)
H6D H 0.6368 0.5124 0.2836
loop_
_geom_bond_atom_site_label_1
_geom_bond_atom_site_label_2
_geom_bond_site_symmetry_1
_geom_bond_site_symmetry_2
N1 C1 1_555 1_555
C1 Ag1 1_555 1_555
Ag1 C2 1_555 1_555
C2 N5 1_555 1_555
N2 Mn2 1_555 1_555
C3 H1 1_555 1_555
N3 C4 1_555 1_555
C4 C5 1_555 1_555
C5 C3 1_555 1_555
C6 C5 1_555 1_555
H2 C6 1_555 1_555
Ag2 C8 1_555 1_555
Mn1 N1 1_555 1_555
Mn2 N4 1_555 1_555
O1 Mn1 1_555 1_555
H3 O1 1_555 1_555
N4 C7 1_555 1_555
N5 Mn2E 1_555 1_555
O2 Mn1 1_555 1_555
N6 Mn1 1_555 1_555
C7 C3 1_555 1_555
H5 C7 1_555 1_555
C8 N6 1_555 1_555
C9 N2 1_555 1_555
C10 C6 1_555 1_555
H6 C10 1_555 1_555
N1F Mn1 1_555 1_555
C1F N1F 1_555 1_555
Ag1F C1F 1_555 1_555
C2F Ag1F 1_555 1_555
N2F Mn2F 1_555 1_555
N2D Mn2 1_555 1_555
C3D H1D 1_555 1_555
N3D C4D 1_555 1_555
C4D C5D 1_555 1_555
C5D C3D 1_555 1_555
C6D C5D 1_555 1_555
H2D C6D 1_555 1_555
Ag2F C8F 1_555 1_555
Mn2G N5F 1_555 1_555
H3F O1 1_555 1_555
N4D Mn2 1_555 1_555
N5F C2F 1_555 1_555
N5E Mn2 1_555 1_555
N5A Mn2 1_555 1_555
N6F Mn1 1_555 1_555
C7D C3D 1_555 1_555
H5D C7D 1_555 1_555
C8F N6F 1_555 1_555
C9F N2F 1_555 1_555
C10D C6D 1_555 1_555
H6D C10D 1_555 1_555
Ag2 C9 1_555 1_555
N4 C10 1_555 1_555
Ag2F C9F 1_555 1_555
N4D C7D 1_555 1_555
N4D C10D 1_555 1_555

#END
