
#######################################################################
#
#                 Cambridge Crystallographic Data Centre
#                                CCDC 
#
#######################################################################
#
# If this CIF has been generated from an entry in the Cambridge 
# Structural Database, then it will include bibliographic, chemical, 
# crystal, experimental, refinement or atomic coordinate data resulting 
# from the CCDC's data processing and validation procedures.
#
#######################################################################

data_CUMDOE
_chemical_formula_moiety         'C6 H20 N2 Nd6 O16 P2'
_symmetry_cell_setting           monoclinic
_symmetry_space_group_name_H-M   'P 21/c'
_symmetry_Int_Tables_number      14
_space_group_name_Hall           '-P 2ybc'
loop_
_symmetry_equiv_pos_site_id
_symmetry_equiv_pos_as_xyz
1 x,y,z
2 -x,1/2+y,1/2-z
3 -x,-y,-z
4 x,1/2-y,1/2+z
_cell_length_a                   5.7540(9)
_cell_length_b                   14.1259(18)
_cell_length_c                   21.156(5)
_cell_angle_alpha                90
_cell_angle_beta                 90.140(15)
_cell_angle_gamma                90
_cell_volume                     1719.56
loop_
_atom_site_label
_atom_site_type_symbol
_atom_site_fract_x
_atom_site_fract_y
_atom_site_fract_z
O8 O 0.748(6) -0.190(3) 0.174(2)
O9 O -0.255(5) 0.320(2) 0.0734(12)
O10 O 0.241(7) 0.370(3) -0.0580(17)
O11 O 1.248(7) 0.165(3) 0.207(3)
Nd1 Nd 0.25001(18) 0.10980(10) 0.01681(15)
P1 P 0.2499(9) -0.1566(3) 0.05420(19)
P2 P 0.2496(9) -0.4485(3) 0.38750(18)
O1 O 0.249(3) -0.0571(10) 0.0295(5)
O2 O 0.469(2) -0.2075(9) 0.0344(6)
O3 O 0.033(2) -0.2091(10) 0.0348(6)
O4 O 0.470(2) -0.3949(10) 0.4028(5)
O5 O 0.251(2) -0.5473(9) 0.4123(5)
O6 O 0.031(2) -0.3945(10) 0.4030(5)
O7 O 0.248(3) 0.2712(12) 0.0770(8)
N1 N 0.249(3) -0.2241(10) 0.1762(5)
N2 N 0.248(3) -0.3822(12) 0.2648(6)
C1 C 0.241(12) -0.210(3) 0.2455(7)
H1 H 0.0769 -0.2034 0.2586
H2 H 0.3225 -0.1507 0.2561
C2 C 0.350(6) -0.2907(17) 0.2829(18)
H3 H 0.5197 -0.2919 0.2752
H4 H 0.3252 -0.2798 0.3286
C3 C 0.244(13) -0.400(3) 0.1959(7)
H5 H 0.1465 -0.4564 0.1873
H6 H 0.4032 -0.4139 0.1812
C4 C 0.148(7) -0.3165(16) 0.1588(16)
H7 H 0.1759 -0.3277 0.1132
H8 H -0.0224 -0.3136 0.1651
C5 C 0.247(4) -0.1485(18) 0.1372(10)
H9 H 0.3824 -0.1092 0.1491
H10 H 0.1068 -0.1113 0.1483
C6 C 0.249(4) -0.4577(15) 0.3021(9)
H11 H 0.3865 -0.4958 0.2904
H12 H 0.1106 -0.4957 0.2904
Nd1B Nd 0.74999(18) -0.10980(10) -0.01681(15)
Nd1B_2 Nd -0.25001(18) -0.10980(10) -0.01681(15)
Nd1A Nd 0.74999(18) -0.39020(10) 0.48319(15)
Nd1C Nd 0.25001(18) -0.60980(10) 0.51681(15)
Nd1A_2 Nd -0.25001(18) -0.39020(10) 0.48319(15)
O2B O 0.531(2) 0.2075(9) -0.0344(6)
O3B O -0.033(2) 0.2091(10) -0.0348(6)
O4A O 0.530(2) 0.1051(10) 0.0972(5)
O5C O 0.251(2) 0.0473(9) -0.0877(5)
O6A O -0.031(2) 0.1055(10) 0.0970(5)
loop_
_geom_bond_atom_site_label_1
_geom_bond_atom_site_label_2
_geom_bond_site_symmetry_1
_geom_bond_site_symmetry_2
Nd1 O1 1_555 1_555
P1 O1 1_555 1_555
P2 O4 1_555 1_555
O2 P1 1_555 1_555
O3 P1 1_555 1_555
O4 Nd1A 1_555 1_555
O5 P2 1_555 1_555
O6 P2 1_555 1_555
O7 Nd1 1_555 1_555
N1 C1 1_555 1_555
N2 C2 1_555 1_555
C1 H1 1_555 1_555
H2 C1 1_555 1_555
C2 C1 1_555 1_555
H3 C2 1_555 1_555
H4 C2 1_555 1_555
C3 N2 1_555 1_555
H5 C3 1_555 1_555
H6 C3 1_555 1_555
C4 N1 1_555 1_555
H7 C4 1_555 1_555
H8 C4 1_555 1_555
C5 P1 1_555 1_555
H9 C5 1_555 1_555
H10 C5 1_555 1_555
C6 P2 1_555 1_555
H11 C6 1_555 1_555
H12 C6 1_555 1_555
Nd1B O2 1_555 1_555
Nd1B_2 O3 1_555 1_555
Nd1C O5 1_555 1_555
Nd1A_2 O6 1_555 1_555
O2B Nd1 1_555 1_555
O3B Nd1 1_555 1_555
O4A Nd1 1_555 1_555
O5C Nd1 1_555 1_555
O6A Nd1 1_555 1_555
N1 C5 1_555 1_555
N2 C6 1_555 1_555
C3 C4 1_555 1_555

#END
