
#######################################################################
#
#                 Cambridge Crystallographic Data Centre
#                                CCDC 
#
#######################################################################
#
# If this CIF has been generated from an entry in the Cambridge 
# Structural Database, then it will include bibliographic, chemical, 
# crystal, experimental, refinement or atomic coordinate data resulting 
# from the CCDC's data processing and validation procedures.
#
#######################################################################

data_EBATUZ
_chemical_formula_moiety         '(C28 H16 Cu2 O10)n'
_symmetry_cell_setting           rhombohedral
_symmetry_space_group_name_H-M   'R -3 m'
_symmetry_Int_Tables_number      166
_space_group_name_Hall           '-R 3 2"'
loop_
_symmetry_equiv_pos_site_id
_symmetry_equiv_pos_as_xyz
1 x,y,z
2 -y,x-y,z
3 -x+y,-x,z
4 y,x,-z
5 x-y,-y,-z
6 -x,-x+y,-z
7 2/3+x,1/3+y,1/3+z
8 2/3-y,1/3+x-y,1/3+z
9 2/3-x+y,1/3-x,1/3+z
10 2/3+y,1/3+x,1/3-z
11 2/3+x-y,1/3-y,1/3-z
12 2/3-x,1/3-x+y,1/3-z
13 1/3+x,2/3+y,2/3+z
14 1/3-y,2/3+x-y,2/3+z
15 1/3-x+y,2/3-x,2/3+z
16 1/3+y,2/3+x,2/3-z
17 1/3+x-y,2/3-y,2/3-z
18 1/3-x,2/3-x+y,2/3-z
19 -x,-y,-z
20 y,-x+y,-z
21 x-y,x,-z
22 -y,-x,z
23 -x+y,y,z
24 x,x-y,z
25 1/3-x,2/3-y,2/3-z
26 1/3+y,2/3-x+y,2/3-z
27 1/3+x-y,2/3+x,2/3-z
28 1/3-y,2/3-x,2/3+z
29 1/3-x+y,2/3+y,2/3+z
30 1/3+x,2/3+x-y,2/3+z
31 2/3-x,1/3-y,1/3-z
32 2/3+y,1/3-x+y,1/3-z
33 2/3+x-y,1/3+x,1/3-z
34 2/3-y,1/3-x,1/3+z
35 2/3-x+y,1/3+y,1/3+z
36 2/3+x,1/3+x-y,1/3+z
_cell_length_a                   18.7967(9)
_cell_length_b                   18.7967(9)
_cell_length_c                   49.394(5)
_cell_angle_alpha                90
_cell_angle_beta                 90
_cell_angle_gamma                120
_cell_volume                     15113.6
loop_
_atom_site_label
_atom_site_type_symbol
_atom_site_fract_x
_atom_site_fract_y
_atom_site_fract_z
Cu1 Cu 0.28737(8) 0.14369(4) 0.144325(19)
O1 O 0.2219(8) 0.1110(4) 0.10756(16)
O2 O 0.2986(4) 0.2220(6) 0.20051(9)
O3 O 0.2235(3) 0.1845(3) 0.16273(9)
C1 C 0.2398(6) 0.2133(5) 0.18658(15)
C2 C 0.1804(6) 0.2314(5) 0.19993(14)
C3 C 0.1109(4) 0.2219(8) 0.1873(2)
H1 H 0.1040 0.2081 0.1690
C4 C 0.1925(6) 0.2555(5) 0.22694(15)
H2 H 0.2387 0.2626 0.2362
C5 C 0.1344(4) 0.2687(8) 0.2398(2)
C6 C 0.1477(4) 0.2954(9) 0.2705(3)
C7 C 0.0964(6) 0.2998(7) 0.28332(16)
H3 H 0.0459 0.2903 0.2768
C8 C 0.1250(5) 0.3219(6) 0.30987(15)
C9 C 0.0932(7) 0.3333 0.3333
H4 H 0.0438 0.3333 0.3333
O2P O 0.4099(7) 0.4447(6) 0.46616(9)
O3P O 0.3723(4) 0.4822(3) 0.50394(9)
C1P C 0.3598(8) 0.4534(5) 0.48009(15)
C2P C 0.2823(8) 0.4353(5) 0.46674(14)
C3P C 0.2223(9) 0.4448(8) 0.4794(2)
H1P H 0.2292 0.4586 0.4977
C4P C 0.2703(8) 0.4112(5) 0.43973(15)
H2P H 0.3094 0.4041 0.4305
C5P C 0.1990(9) 0.3980(8) 0.4269(2)
C6P C 0.1856(10) 0.3713(9) 0.3962(3)
C7P C 0.1299(9) 0.3669(7) 0.38335(16)
H3P H 0.0889 0.3764 0.3899
C8P C 0.1364(8) 0.3448(6) 0.35680(15)
O2V O -0.0766(7) 0.2220(6) 0.20051(9)
O3V O -0.0390(4) 0.1845(3) 0.16273(9)
C1V C -0.0265(8) 0.2133(5) 0.18658(15)
C2V C 0.0510(8) 0.2314(5) 0.19993(14)
C4V C 0.0630(8) 0.2555(5) 0.22694(15)
H2V H 0.0239 0.2626 0.2362
C7V C 0.2034(9) 0.2998(7) 0.28332(16)
H3V H 0.2444 0.2903 0.2768
C8V C 0.1969(8) 0.3219(6) 0.30987(15)
C9V C 0.2401(7) 0.3333 0.3333
H4V H 0.2895 0.3333 0.3333
O2X O 0.0347(4) 0.4447(6) 0.46616(9)
O3X O 0.1098(3) 0.4822(3) 0.50394(9)
C1X C 0.0935(6) 0.4534(5) 0.48009(15)
C2X C 0.1529(6) 0.4353(5) 0.46674(14)
C4X C 0.1408(6) 0.4112(5) 0.43973(15)
H2X H 0.0946 0.4041 0.4305
C7X C 0.2369(6) 0.3669(7) 0.38335(16)
H3X H 0.2874 0.3764 0.3899
C8X C 0.2083(5) 0.3448(6) 0.35680(15)
Cu1A Cu -0.14369(4) 0.14368(9) 0.144325(19)
O1A O -0.1110(4) 0.1109(9) 0.10756(16)
Cu1F Cu -0.04596(8) 0.47702(4) 0.477658(19)
Cu1G Cu 0.52298(4) 0.47701(9) 0.477658(19)
Cu1J Cu -0.18965(9) 0.18964(4) 0.189008(19)
Cu1K Cu 0.37930(8) 0.18965(9) 0.189008(19)
Cu1P Cu 0.47701(9) 0.52298(4) 0.522342(19)
Cu1Q Cu 0.04596(8) 0.52299(9) 0.522342(19)
O2J O -0.2567(7) 0.1113(6) 0.13282(9)
O2K O 0.3681(4) 0.2567(7) 0.13282(9)
O2DA O 0.3681(4) 0.1113(6) 0.13282(9)
O2EA O -0.1113(6) 0.2567(7) 0.13282(9)
O3A O -0.1845(3) 0.0390(4) 0.16273(9)
O3W O 0.2235(3) 0.0390(4) 0.16273(9)
loop_
_geom_bond_atom_site_label_1
_geom_bond_atom_site_label_2
_geom_bond_site_symmetry_1
_geom_bond_site_symmetry_2
Cu1 O1 1_555 1_555
O2 C1 1_555 1_555
O3 Cu1 1_555 1_555
C1 O3 1_555 1_555
C2 C1 1_555 1_555
C3 C2 1_555 1_555
H1 C3 1_555 1_555
C4 C2 1_555 1_555
H2 C4 1_555 1_555
C5 C4 1_555 1_555
C6 C5 1_555 1_555
C7 C6 1_555 1_555
H3 C7 1_555 1_555
C8 C7 1_555 1_555
C9 C8 1_555 1_555
H4 C9 1_555 1_555
O2P C1P 1_555 1_555
O3P C1P 1_555 1_555
C1P C2P 1_555 1_555
C2P C3P 1_555 1_555
C3P H1P 1_555 1_555
C4P C2P 1_555 1_555
H2P C4P 1_555 1_555
C5P C4P 1_555 1_555
C6P C5P 1_555 1_555
C7P C6P 1_555 1_555
H3P C7P 1_555 1_555
C8P C9 1_555 1_555
O2V C1V 1_555 1_555
O3V C1V 1_555 1_555
C1V C2V 1_555 1_555
C2V C3 1_555 1_555
C4V C5 1_555 1_555
H2V C4V 1_555 1_555
C7V C6 1_555 1_555
H3V C7V 1_555 1_555
C8V C8 1_555 1_555
C9V C8V 1_555 1_555
H4V C9V 1_555 1_555
O2X C1X 1_555 1_555
O3X C1X 1_555 1_555
C1X C2X 1_555 1_555
C2X C3P 1_555 1_555
C4X C5P 1_555 1_555
H2X C4X 1_555 1_555
C7X C6P 1_555 1_555
H3X C7X 1_555 1_555
C8X C8P 1_555 1_555
Cu1A O3V 1_555 1_555
O1A Cu1A 1_555 1_555
Cu1F O2X 1_555 1_555
Cu1G O2P 1_555 1_555
Cu1J O2V 1_555 1_555
Cu1K Cu1 1_555 1_555
Cu1P O3P 1_555 1_555
Cu1Q O3X 1_555 1_555
O2J Cu1A 1_555 1_555
O2K Cu1 1_555 1_555
O2DA Cu1 1_555 1_555
O2EA Cu1A 1_555 1_555
O3A Cu1A 1_555 1_555
O3W Cu1 1_555 1_555
O2 Cu1K 1_555 1_555
C7P C8P 1_555 1_555
C2V C4V 1_555 1_555
C7V C8V 1_555 1_555
C9V C8X 1_555 1_555
C2X C4X 1_555 1_555
C7X C8X 1_555 1_555
Cu1A Cu1J 1_555 1_555
Cu1F Cu1Q 1_555 1_555
Cu1G Cu1P 1_555 1_555

#END
