
#######################################################################
#
#                 Cambridge Crystallographic Data Centre
#                                CCDC 
#
#######################################################################
#
# If this CIF has been generated from an entry in the Cambridge 
# Structural Database, then it will include bibliographic, chemical, 
# crystal, experimental, refinement or atomic coordinate data resulting 
# from the CCDC's data processing and validation procedures.
#
#######################################################################

data_MUYDUH
_chemical_formula_moiety         '(C18 H12 N2 O5 Zn1)n'
_symmetry_cell_setting           monoclinic
_symmetry_space_group_name_H-M   'P 21/c'
_symmetry_Int_Tables_number      14
_space_group_name_Hall           '-P 2ybc'
loop_
_symmetry_equiv_pos_site_id
_symmetry_equiv_pos_as_xyz
1 x,y,z
2 -x,1/2+y,1/2-z
3 -x,-y,-z
4 x,1/2-y,1/2+z
_cell_length_a                   11.446(5)
_cell_length_b                   19.909(5)
_cell_length_c                   11.820(5)
_cell_angle_alpha                90
_cell_angle_beta                 106.098(5)
_cell_angle_gamma                90
_cell_volume                     2587.91
loop_
_atom_site_label
_atom_site_type_symbol
_atom_site_fract_x
_atom_site_fract_y
_atom_site_fract_z
C1 C 0.0238(11) 0.2144(6) 0.3267(11)
C2 C 0.0310(11) 0.2886(5) 0.3494(10)
C3 C 0.0309(14) 0.3125(6) 0.4572(12)
H1 H 0.0264 0.2826 0.5162
C4 C 0.0373(17) 0.3823(6) 0.4810(12)
C5 C 0.0386(14) 0.4273(6) 0.3921(11)
H2 H 0.0382 0.4733 0.4055
C6 C 0.0404(9) 0.4026(5) 0.2816(10)
C7 C 0.0358(10) 0.3338(5) 0.2605(9)
H3 H 0.0359 0.3178 0.1866
C8 C 0.0415(9) 0.4493(5) 0.1875(9)
C9 C 0.2342(11) 0.0515(8) 0.3326(12)
H4 H 0.1776 0.0312 0.2700
C10 C 0.3506(12) 0.0541(8) 0.3263(13)
H5 H 0.3699 0.0385 0.2596
C11 C 0.4029(12) 0.1045(9) 0.5106(14)
H6 H 0.4583 0.1244 0.5746
C12 C 0.2830(13) 0.0997(8) 0.5083(14)
H7 H 0.2623 0.1148 0.5746
C13 C 0.6590(12) 0.1126(8) 0.5013(13)
H8 H 0.6376 0.1350 0.5617
C14 C 0.4412(9) 0.0803(5) 0.4200(10)
C15 C 0.5749(9) 0.0812(5) 0.4186(10)
C16 C 0.6092(12) 0.0504(9) 0.3310(15)
H9 H 0.5523 0.0271 0.2727
C17 C 0.7280(11) 0.0537(8) 0.3283(13)
H10 H 0.7497 0.0353 0.2647
C18 C 0.7751(12) 0.1121(8) 0.4978(13)
H11 H 0.8330 0.1337 0.5576
N1 N 0.8113(10) 0.0822(5) 0.4131(9)
N2 N 0.1926(8) 0.0755(4) 0.4202(8)
O1 O 0.0048(8) 0.1788(4) 0.4068(7)
O2 O 0.0380(12) 0.1929(5) 0.2366(8)
O3 O 0.0523(8) 0.4279(4) 0.0933(7)
O4 O 0.0297(7) 0.5121(4) 0.2084(7)
O5 O 0.0326(14) 0.4078(5) 0.5870(8)
Zn1 Zn 0.00453(11) 0.08132(6) 0.41723(11)
N1_2 N -0.1887(10) 0.0822(5) 0.4131(9)
O3C O 0.0523(8) 0.0721(4) 0.5933(7)
O4A O -0.0297(7) 0.0121(4) 0.2916(7)
Zn1_2 Zn 1.00453(11) 0.08132(6) 0.41723(11)
Zn1A Zn -0.00453(11) 0.58132(6) 0.08277(11)
Zn1C Zn 0.00453(11) 0.41868(6) -0.08277(11)
loop_
_geom_bond_atom_site_label_1
_geom_bond_atom_site_label_2
_geom_bond_site_symmetry_1
_geom_bond_site_symmetry_2
C1 C2 1_555 1_555
C2 C3 1_555 1_555
C3 H1 1_555 1_555
C4 C3 1_555 1_555
C5 C4 1_555 1_555
H2 C5 1_555 1_555
C6 C5 1_555 1_555
C7 C2 1_555 1_555
H3 C7 1_555 1_555
C8 C6 1_555 1_555
C9 H4 1_555 1_555
C10 C9 1_555 1_555
H5 C10 1_555 1_555
C11 H6 1_555 1_555
C12 C11 1_555 1_555
H7 C12 1_555 1_555
C13 H8 1_555 1_555
C14 C10 1_555 1_555
C15 C13 1_555 1_555
C16 C15 1_555 1_555
H9 C16 1_555 1_555
C17 C16 1_555 1_555
H10 C17 1_555 1_555
C18 C13 1_555 1_555
H11 C18 1_555 1_555
N1 C17 1_555 1_555
N2 C9 1_555 1_555
O1 C1 1_555 1_555
O2 C1 1_555 1_555
O3 C8 1_555 1_555
O4 C8 1_555 1_555
O5 C4 1_555 1_555
Zn1 N2 1_555 1_555
N1_2 Zn1 1_555 1_555
O3C Zn1 1_555 1_555
O4A Zn1 1_555 1_555
Zn1_2 N1 1_555 1_555
Zn1A O4 1_555 1_555
Zn1C O3 1_555 1_555
C6 C7 1_555 1_555
C11 C14 1_555 1_555
C12 N2 1_555 1_555
C14 C15 1_555 1_555
C18 N1 1_555 1_555
O1 Zn1 1_555 1_555

#END
