
#######################################################################
#
#                 Cambridge Crystallographic Data Centre
#                                CCDC 
#
#######################################################################
#
# If this CIF has been generated from an entry in the Cambridge 
# Structural Database, then it will include bibliographic, chemical, 
# crystal, experimental, refinement or atomic coordinate data resulting 
# from the CCDC's data processing and validation procedures.
#
#######################################################################

data_ICALOP
_chemical_formula_moiety         '(C17 H8 In1 O8)n'
_symmetry_cell_setting           orthorhombic
_symmetry_space_group_name_H-M   'P n m a'
_symmetry_Int_Tables_number      62
_space_group_name_Hall           '-P 2ac 2n'
loop_
_symmetry_equiv_pos_site_id
_symmetry_equiv_pos_as_xyz
1 x,y,z
2 1/2-x,-y,1/2+z
3 1/2+x,1/2-y,1/2-z
4 -x,1/2+y,-z
5 -x,-y,-z
6 1/2+x,y,1/2-z
7 1/2-x,1/2+y,1/2+z
8 x,1/2-y,z
_cell_length_a                   17.379(5)
_cell_length_b                   9.906(5)
_cell_length_c                   22.043(5)
_cell_angle_alpha                90
_cell_angle_beta                 90
_cell_angle_gamma                90
_cell_volume                     3794.84
loop_
_atom_site_label
_atom_site_type_symbol
_atom_site_fract_x
_atom_site_fract_y
_atom_site_fract_z
In1 In 0.41531(4) 0.2500 0.67182(2)
O1 O 0.8984(4) 0.2500 0.7260(2)
O2 O 0.5810(2) 0.5123(6) 0.31953(18)
O3 O 0.5177(3) 0.2500 0.6017(2)
O4 O 0.5361(3) 0.2500 0.6997(2)
O5 O 0.7985(3) 0.2500 0.7847(3)
O6 O 0.6394(3) 0.6107(5) 0.39472(19)
C1 C 0.6491(4) 0.3727(7) 0.3872(2)
C2 C 0.6464(5) 0.2500 0.6368(3)
C3 C 0.7561(5) 0.2500 0.5691(4)
C4 C 0.7727(5) 0.2500 0.6786(4)
C5 C 0.6216(4) 0.5029(8) 0.3663(3)
C6 C 0.5618(5) 0.2500 0.6462(4)
C7 C 0.6231(6) 0.2500 0.3652(4)
C8 C 0.6791(5) 0.2500 0.5780(4)
H1 H 0.6460 0.2500 0.5437
C9 C 0.8265(5) 0.2500 0.7325(3)
C10 C 0.8045(6) 0.2500 0.6203(4)
H2 H 0.8588 0.2500 0.6153
C11 C 0.6969(6) 0.2500 0.6868(4)
H3 H 0.6766 0.2500 0.7268
C12 C 0.7058(4) 0.3714(6) 0.4335(2)
H4 H 0.7253 0.4537 0.4494
C13 C 0.7321(5) 0.2500 0.4551(4)
C14 C 0.7924(6) 0.2500 0.5069(4)
H5 H 0.8255 0.1692 0.5028
H6 H 0.582(5) 0.2500 0.329(4)
In1B In 0.91531(4) 0.2500 0.82818(2)
In1C In 0.58469(4) 0.7500 0.32818(2)
In1C_2 In 0.58469(4) -0.2500 0.32818(2)
O1B O 0.3984(4) 0.2500 0.7740(2)
O2G O 0.5810(2) -0.0123(6) 0.31953(18)
O2D O 0.4190(2) 0.4877(6) 0.68047(18)
O2C O 0.4190(2) 0.0123(6) 0.68047(18)
O5B O 0.2985(3) 0.2500 0.7153(3)
O6G O 0.6394(3) -0.1107(5) 0.39472(19)
O6D O 0.3606(3) 0.3893(5) 0.60528(19)
O6C O 0.3606(3) 0.1107(5) 0.60528(19)
C1G C 0.6491(4) 0.1273(7) 0.3872(2)
C5G C 0.6216(4) -0.0029(8) 0.3663(3)
C12G C 0.7058(4) 0.1286(6) 0.4335(2)
H4G H 0.7253 0.0463 0.4494
H5G H 0.8255 0.3308 0.5028
loop_
_geom_bond_atom_site_label_1
_geom_bond_atom_site_label_2
_geom_bond_site_symmetry_1
_geom_bond_site_symmetry_2
In1 O3 1_555 1_555
O1 C9 1_555 1_555
O2 C5 1_555 1_555
O3 C6 1_555 1_555
O4 In1 1_555 1_555
O5 C9 1_555 1_555
O6 C5 1_555 1_555
C1 C5 1_555 1_555
C2 C6 1_555 1_555
C3 C8 1_555 1_555
C4 C9 1_555 1_555
C6 O4 1_555 1_555
C7 C1 1_555 1_555
C8 C2 1_555 1_555
H1 C8 1_555 1_555
C10 C3 1_555 1_555
H2 C10 1_555 1_555
C11 C2 1_555 1_555
H3 C11 1_555 1_555
C12 C1 1_555 1_555
H4 C12 1_555 1_555
C13 C12 1_555 1_555
C14 C3 1_555 1_555
H5 C14 1_555 1_555
H6 C7 1_555 1_555
In1B O1 1_555 1_555
In1C O2 1_555 1_555
In1C_2 O2G 1_555 1_555
O1B In1 1_555 1_555
O2G C5G 1_555 1_555
O2D In1 1_555 1_555
O2C In1 1_555 1_555
O5B In1 1_555 1_555
O6G In1C_2 1_555 1_555
O6D In1 1_555 1_555
O6C In1 1_555 1_555
C1G C7 1_555 1_555
C5G O6G 1_555 1_555
C12G C13 1_555 1_555
H4G C12G 1_555 1_555
H5G C14 1_555 1_555
O5 In1B 1_555 1_555
O6 In1C 1_555 1_555
C4 C10 1_555 1_555
C4 C11 1_555 1_555
C13 C14 1_555 1_555
C1G C5G 1_555 1_555
C1G C12G 1_555 1_555

#END
