
#######################################################################
#
#                 Cambridge Crystallographic Data Centre
#                                CCDC 
#
#######################################################################
#
# If this CIF has been generated from an entry in the Cambridge 
# Structural Database, then it will include bibliographic, chemical, 
# crystal, experimental, refinement or atomic coordinate data resulting 
# from the CCDC's data processing and validation procedures.
#
#######################################################################

data_ICAMEG
_chemical_formula_moiety         '(C69 H51 Co4 N7 O18)n'
_symmetry_cell_setting           trigonal
_symmetry_space_group_name_H-M   'P 32'
_symmetry_Int_Tables_number      145
_space_group_name_Hall           'P 32'
loop_
_symmetry_equiv_pos_site_id
_symmetry_equiv_pos_as_xyz
1 x,y,z
2 -y,x-y,2/3+z
3 -x+y,-x,1/3+z
_cell_length_a                   19.8876(4)
_cell_length_b                   19.8876(4)
_cell_length_c                   19.1704(6)
_cell_angle_alpha                90
_cell_angle_beta                 90
_cell_angle_gamma                120
_cell_volume                     6566.39
loop_
_atom_site_label
_atom_site_type_symbol
_atom_site_fract_x
_atom_site_fract_y
_atom_site_fract_z
Co1 Co 0.43357(6) 0.53459(7) 0.32995(6)
Co2 Co -0.10240(6) 0.46324(6) 0.25528(7)
Co3 Co 0.07897(6) 0.56193(6) 0.15883(6)
Co4 Co 0.51805(6) 0.43846(6) 0.42488(6)
O1 O 0.1010(3) 0.5229(4) 0.2507(4)
O2 O 0.3206(3) 0.5046(4) 0.3564(4)
O3 O 0.0200(3) 0.4558(4) 0.6340(4)
O4 O 0.4166(3) 0.4292(3) 0.3767(3)
O5 O -0.0128(3) 0.5698(3) 0.2116(3)
O6 O -0.2944(4) 0.1157(4) 0.4865(4)
O7 O 0.5922(4) 0.4782(4) 0.8260(4)
O8 O -0.3214(3) 0.1860(3) 0.5599(3)
O9 O 0.9103(4) 0.6144(4) 0.6598(4)
O10 O 0.6133(4) 0.9094(4) 0.5927(4)
O11 O -0.1023(3) 0.4202(3) 0.6678(3)
O12 O 0.8525(4) 0.5311(4) 0.7473(4)
O13 O 0.2942(4) 0.4095(4) 0.4328(4)
C1 C 0.0842(5) 0.4314(5) 0.3363(5)
C2 C 0.7285(5) 0.5612(5) 0.7475(5)
H1 H 0.7240 0.5211 0.7757
C3 C 0.1897(5) 0.4213(5) 0.3884(5)
O14 O 0.4753(4) 0.5910(3) 0.4243(4)
C4 C 0.1629(5) 0.4566(5) 0.3441(5)
H2 H 0.1986 0.4991 0.3182
O15 O 0.5266(4) 0.8483(4) 0.5111(4)
C5 C 0.7997(5) 0.6621(5) 0.6656(5)
H3 H 0.8439 0.6894 0.6383
C6 C -0.1645(6) 0.2955(5) 0.5770(5)
H4 H -0.1989 0.3033 0.6038
C7 C 0.7436(5) 0.6826(5) 0.6631(5)
C8 C -0.0844(5) 0.3459(5) 0.5817(5)
C9 C 0.7933(5) 0.6017(5) 0.7076(6)
C10 C -0.0592(6) 0.2704(5) 0.5000(6)
C11 C 0.6606(6) 0.7986(5) 0.5875(5)
H5 H 0.6883 0.8426 0.6149
C12 C 0.5744(5) 0.6648(5) 0.5088(5)
C13 C 0.0574(5) 0.3288(5) 0.4202(5)
C14 C 0.0319(5) 0.3651(5) 0.3756(5)
H6 H -0.0212 0.3458 0.3709
C15 C -0.1920(5) 0.2312(5) 0.5291(5)
C16 C 0.1390(5) 0.3585(5) 0.4262(5)
H7 H 0.1575 0.3347 0.4561
O16 O -0.0195(3) 0.4352(4) 0.2862(4)
C17 C 0.5988(5) 0.7897(5) 0.5501(5)
O17 O 0.5456(4) 0.5509(4) 0.7864(4)
N1 N 0.1733(5) 0.5635(5) 0.1032(4)
C18 C -0.0333(5) 0.3325(5) 0.5446(5)
H8 H 0.0198 0.3661 0.5497
C19 C 0.6693(5) 0.5783(5) 0.7470(5)
C20 C 0.5536(6) 0.7231(5) 0.5100(6)
H9 H 0.5111 0.7174 0.4849
C21 C 0.7525(6) 0.7526(6) 0.6241(6)
H10 H 0.7668 0.7944 0.6574
H11 H 0.7951 0.7693 0.5915
C22 C 0.6387(5) 0.6758(5) 0.5460(5)
H12 H 0.6524 0.6374 0.5446
C23 C 0.6833(6) 0.7414(6) 0.5851(5)
N2 N -0.1926(5) 0.3494(5) 0.2963(5)
O18 O 0.5474(4) 0.5419(4) 0.4685(4)
C24 C -0.1375(5) 0.2209(5) 0.4892(5)
H13 H -0.1545 0.1814 0.4563
N3 N 0.6056(6) 0.4323(6) 0.4857(5)
C25 C 0.6788(5) 0.6394(5) 0.7052(5)
H14 H 0.6398 0.6522 0.7052
C26 C -0.2763(5) 0.1745(5) 0.5254(5)
C27 C 0.5774(5) 0.8543(5) 0.5516(5)
C28 C -0.0008(5) 0.2549(5) 0.4590(5)
H15 H 0.0267 0.2394 0.4910
H16 H -0.0286 0.2131 0.4258
C29 C 0.5300(5) 0.5954(6) 0.4641(6)
C30 C 0.0532(5) 0.4659(6) 0.2876(5)
C31 C 0.8581(5) 0.5807(6) 0.7044(6)
C32 C 0.2751(5) 0.4468(5) 0.3936(5)
C33 C 0.5948(6) 0.5307(5) 0.7916(5)
C34 C -0.0538(5) 0.4131(5) 0.6324(5)
N4 N 0.3915(5) 0.4800(5) 0.2299(5)
N5 N -0.0992(6) 0.5124(5) 0.3560(5)
C35 C 0.6709(8) 0.3662(9) 0.5141(7)
H17 H 0.6808 0.3261 0.5040
C36 C 0.2289(10) 0.4907(10) 0.0541(7)
H18 H 0.2282 0.4441 0.0469
C37 C 0.4251(7) 0.5125(7) 0.1734(7)
H19 H 0.4721 0.5586 0.1781
C38 C 0.4009(10) 0.4882(10) 0.1048(9)
H20 H 0.4267 0.5174 0.0657
C39 C 0.7096(10) 0.4160(9) 0.5656(9)
H21 H 0.7463 0.4107 0.5914
C40 C -0.1092(8) 0.5733(9) 0.3635(8)
H22 H -0.1145 0.5974 0.3240
C41 C -0.1034(9) 0.5017(9) 0.4781(9)
H23 H -0.0991 0.4773 0.5178
C42 C -0.3029(9) 0.2618(9) 0.3584(8)
H24 H -0.3453 0.2538 0.3851
C43 C -0.1003(8) 0.4755(8) 0.4196(7)
H25 H -0.0986 0.4297 0.4177
C44 C -0.1847(8) 0.2881(7) 0.2842(7)
H26 H -0.1434 0.2956 0.2561
C45 C 0.6188(7) 0.3737(8) 0.4776(7)
H27 H 0.5899 0.3359 0.4445
C46 C -0.2512(8) 0.3361(9) 0.3321(7)
H28 H -0.2604 0.3766 0.3414
C47 C 0.3252(8) 0.4090(9) 0.2263(8)
H29 H 0.3006 0.3849 0.2677
C48 C 0.2935(10) 0.3719(11) 0.1645(9)
H30 H 0.2496 0.3227 0.1632
C49 C 0.1687(10) 0.4924(10) 0.0891(6)
H31 H 0.1254 0.4464 0.1032
C50 C 0.2371(7) 0.6295(8) 0.0857(6)
H32 H 0.2400 0.6765 0.0962
C51 C -0.2316(9) 0.2154(10) 0.3092(8)
H33 H -0.2219 0.1749 0.3010
C52 C 0.6385(8) 0.4767(8) 0.5384(7)
H34 H 0.6232 0.5126 0.5494
C53 C -0.1121(11) 0.6028(12) 0.4317(11)
H35 H -0.1136 0.6484 0.4377
C54 C -0.2915(10) 0.2061(10) 0.3457(8)
H36 H -0.3266 0.1570 0.3627
C55 C 0.6946(9) 0.4756(9) 0.5804(8)
H37 H 0.7202 0.5118 0.6155
C56 C 0.3320(11) 0.4132(11) 0.1015(10)
H38 H 0.3119 0.3910 0.0582
C57 C -0.1123(11) 0.5601(11) 0.4853(11)
H39 H -0.1192 0.5739 0.5300
C58 C 0.0154(7) 0.6874(6) -0.0008(6)
H40 H 0.0074 0.7296 -0.0005
C59 C 0.0395(6) 0.6668(5) 0.0596(5)
H41 H 0.0475 0.6953 0.1003
N6 N 0.0514(5) 0.6037(6) 0.0592(4)
C60 C 0.0394(6) 0.5611(5) -0.0017(6)
H42 H 0.0474 0.5189 -0.0020
C61 C 0.0153(7) 0.5816(7) -0.0621(4)
H43 H 0.0072 0.5531 -0.1028
C62 C 0.0033(7) 0.6448(8) -0.0617(5)
H44 H -0.0128 0.6585 -0.1021
C63 C 0.2999(8) 0.6300(8) 0.0518(7)
H45 H 0.3463 0.6762 0.0450
C64 C 0.2915(10) 0.5617(10) 0.0294(8)
H46 H 0.3268 0.5613 -0.0022
C65 C 0.4073(6) 0.7125(6) 0.2154(5)
H47 H 0.3690 0.7139 0.1886
C66 C 0.4781(7) 0.7800(5) 0.2256(6)
H48 H 0.4872 0.8264 0.2057
C67 C 0.5354(5) 0.7780(4) 0.2656(6)
H49 H 0.5828 0.8231 0.2724
C68 C 0.5219(4) 0.7086(5) 0.2953(4)
H50 H 0.5602 0.7073 0.3221
N7 N 0.4511(4) 0.6411(4) 0.2851(4)
C69 C 0.3938(4) 0.6431(5) 0.2451(4)
H51 H 0.3464 0.5980 0.2383
Co1B Co 0.10102(9) 0.56643(6) 0.66328(6)
Co2A Co 0.53676(6) 0.43436(8) 0.92195(7)
Co2B Co -0.43436(8) 0.10240(6) 0.58861(7)
Co3B Co 0.48296(8) 0.92103(6) 0.49216(6)
Co3A Co 0.43807(6) 0.51704(8) 0.82550(6)
Co4B Co -0.07959(8) 0.48195(6) 0.75821(6)
Co4B_2 Co 0.92041(8) 0.48195(6) 0.75821(6)
O3A O 0.5442(4) 0.5642(5) 0.3007(4)
O7B O -0.1140(6) 0.4078(4) 0.1593(4)
O8A O -0.1860(3) 0.4926(4) 0.2266(3)
O11A O 0.5798(3) 0.4775(4) 0.3345(3)
O12A O 0.4689(4) 0.3214(6) 0.4140(4)
O15A O 0.1517(4) 0.6783(6) 0.1778(4)
O17B O 0.0053(6) 0.4544(4) 0.1197(4)
loop_
_geom_bond_atom_site_label_1
_geom_bond_atom_site_label_2
_geom_bond_site_symmetry_1
_geom_bond_site_symmetry_2
Co1 O2 1_555 1_555
Co2 O5 1_555 1_555
Co3 O1 1_555 1_555
Co4 O4 1_555 1_555
O1 C30 1_555 1_555
O2 C32 1_555 1_555
O3 C34 1_555 1_555
O4 Co1 1_555 1_555
O5 Co3 1_555 1_555
O6 C26 1_555 1_555
O7 C33 1_555 1_555
O8 C26 1_555 1_555
O9 C31 1_555 1_555
O10 C27 1_555 1_555
O11 C34 1_555 1_555
O12 C31 1_555 1_555
O13 C32 1_555 1_555
C1 C4 1_555 1_555
C2 H1 1_555 1_555
C3 C4 1_555 1_555
O14 Co1 1_555 1_555
C4 H2 1_555 1_555
O15 C27 1_555 1_555
C5 H3 1_555 1_555
C6 H4 1_555 1_555
C7 C5 1_555 1_555
C8 C6 1_555 1_555
C9 C2 1_555 1_555
C10 C18 1_555 1_555
C11 H5 1_555 1_555
C12 C20 1_555 1_555
C13 C14 1_555 1_555
C14 C1 1_555 1_555
H6 C14 1_555 1_555
C15 C6 1_555 1_555
C16 C3 1_555 1_555
H7 C16 1_555 1_555
O16 Co2 1_555 1_555
C17 C11 1_555 1_555
O17 C33 1_555 1_555
N1 Co3 1_555 1_555
C18 C8 1_555 1_555
H8 C18 1_555 1_555
C19 C2 1_555 1_555
C20 C17 1_555 1_555
H9 C20 1_555 1_555
C21 C7 1_555 1_555
H10 C21 1_555 1_555
H11 C21 1_555 1_555
C22 C12 1_555 1_555
H12 C22 1_555 1_555
C23 C11 1_555 1_555
N2 Co2 1_555 1_555
O18 Co4 1_555 1_555
C24 C10 1_555 1_555
H13 C24 1_555 1_555
N3 Co4 1_555 1_555
C25 C7 1_555 1_555
H14 C25 1_555 1_555
C26 C15 1_555 1_555
C27 C17 1_555 1_555
C28 C10 1_555 1_555
H15 C28 1_555 1_555
H16 C28 1_555 1_555
C29 O14 1_555 1_555
C30 C1 1_555 1_555
C31 C9 1_555 1_555
C32 C3 1_555 1_555
C33 C19 1_555 1_555
C34 C8 1_555 1_555
N4 Co1 1_555 1_555
N5 Co2 1_555 1_555
C35 H17 1_555 1_555
C36 H18 1_555 1_555
C37 N4 1_555 1_555
H19 C37 1_555 1_555
C38 C37 1_555 1_555
H20 C38 1_555 1_555
C39 C35 1_555 1_555
H21 C39 1_555 1_555
C40 N5 1_555 1_555
H22 C40 1_555 1_555
C41 H23 1_555 1_555
C42 H24 1_555 1_555
C43 N5 1_555 1_555
H25 C43 1_555 1_555
C44 N2 1_555 1_555
H26 C44 1_555 1_555
C45 N3 1_555 1_555
H27 C45 1_555 1_555
C46 N2 1_555 1_555
H28 C46 1_555 1_555
C47 N4 1_555 1_555
H29 C47 1_555 1_555
C48 C47 1_555 1_555
H30 C48 1_555 1_555
C49 N1 1_555 1_555
H31 C49 1_555 1_555
C50 N1 1_555 1_555
H32 C50 1_555 1_555
C51 C44 1_555 1_555
H33 C51 1_555 1_555
C52 N3 1_555 1_555
H34 C52 1_555 1_555
C53 C40 1_555 1_555
H35 C53 1_555 1_555
C54 C42 1_555 1_555
H36 C54 1_555 1_555
C55 C39 1_555 1_555
H37 C55 1_555 1_555
C56 C38 1_555 1_555
H38 C56 1_555 1_555
C57 C41 1_555 1_555
H39 C57 1_555 1_555
C58 H40 1_555 1_555
C59 C58 1_555 1_555
H41 C59 1_555 1_555
N6 Co3 1_555 1_555
C60 N6 1_555 1_555
H42 C60 1_555 1_555
C61 C60 1_555 1_555
H43 C61 1_555 1_555
C62 C58 1_555 1_555
H44 C62 1_555 1_555
C63 C50 1_555 1_555
H45 C63 1_555 1_555
C64 C36 1_555 1_555
H46 C64 1_555 1_555
C65 H47 1_555 1_555
C66 C65 1_555 1_555
H48 C66 1_555 1_555
C67 C66 1_555 1_555
H49 C67 1_555 1_555
C68 C67 1_555 1_555
H50 C68 1_555 1_555
N7 Co1 1_555 1_555
C69 C65 1_555 1_555
H51 C69 1_555 1_555
Co1B O3 1_555 1_555
Co2A O7 1_555 1_555
Co2B O8 1_555 1_555
Co3B O15 1_555 1_555
Co3A O17 1_555 1_555
Co4B O11 1_555 1_555
Co4B_2 O12 1_555 1_555
O3A Co1 1_555 1_555
O7B Co2 1_555 1_555
O8A Co2 1_555 1_555
O11A Co4 1_555 1_555
O12A Co4 1_555 1_555
O15A Co3 1_555 1_555
O17B Co3 1_555 1_555
C5 C9 1_555 1_555
C12 C29 1_555 1_555
C13 C16 1_555 1_555
C13 C28 1_555 1_555
C15 C24 1_555 1_555
O16 C30 1_555 1_555
C19 C25 1_555 1_555
C21 C23 1_555 1_555
C22 C23 1_555 1_555
O18 C29 1_555 1_555
C35 C45 1_555 1_555
C36 C49 1_555 1_555
C41 C43 1_555 1_555
C42 C46 1_555 1_555
C48 C56 1_555 1_555
C51 C54 1_555 1_555
C52 C55 1_555 1_555
C53 C57 1_555 1_555
C59 N6 1_555 1_555
C61 C62 1_555 1_555
C63 C64 1_555 1_555
C68 N7 1_555 1_555
N7 C69 1_555 1_555

#END
