
#######################################################################
#
#                 Cambridge Crystallographic Data Centre
#                                CCDC 
#
#######################################################################
#
# If this CIF has been generated from an entry in the Cambridge 
# Structural Database, then it will include bibliographic, chemical, 
# crystal, experimental, refinement or atomic coordinate data resulting 
# from the CCDC's data processing and validation procedures.
#
#######################################################################

data_GUSPUG
_chemical_formula_moiety         '(C12 H24 Cl6 Cu4 N4 O1)n'
_symmetry_cell_setting           hexagonal
_symmetry_space_group_name_H-M   'P 6/m c c'
_symmetry_Int_Tables_number      192
_space_group_name_Hall           '-P 6 2c'
loop_
_symmetry_equiv_pos_site_id
_symmetry_equiv_pos_as_xyz
1 x,y,z
2 -y,x-y,z
3 -x+y,-x,z
4 -x,-y,z
5 y,-x+y,z
6 x-y,x,z
7 y,x,1/2-z
8 x-y,-y,1/2-z
9 -x,-x+y,1/2-z
10 -y,-x,1/2-z
11 -x+y,y,1/2-z
12 x,x-y,1/2-z
13 -x,-y,-z
14 y,-x+y,-z
15 x-y,x,-z
16 x,y,-z
17 -y,x-y,-z
18 -x+y,-x,-z
19 -y,-x,1/2+z
20 -x+y,y,1/2+z
21 x,x-y,1/2+z
22 y,x,1/2+z
23 x-y,-y,1/2+z
24 -x,-x+y,1/2+z
_cell_length_a                   25.645(9)
_cell_length_b                   25.645(9)
_cell_length_c                   17.105(11)
_cell_angle_alpha                90
_cell_angle_beta                 90
_cell_angle_gamma                120
_cell_volume                     9742.25
loop_
_atom_site_label
_atom_site_type_symbol
_atom_site_fract_x
_atom_site_fract_y
_atom_site_fract_z
_atom_site_U_iso_or_equiv
_atom_site_thermal_displace_type
Cu1 Cu 0.76474(8) 0.57884(8) 0.0000 0.0148 Uani
Cu2 Cu 0.66304(8) 0.61026(8) 0.0000 0.0145 Uani
Cu3 Cu 0.64715(6) 0.49757(6) -0.09080(8) 0.0148 Uani
Cl1 Cl 0.76964(18) 0.67490(18) 0.0000 0.0304 Uani
Cl2 Cl 0.74787(12) 0.52810(13) -0.12703(17) 0.0256 Uani
Cl3 Cl 0.60671(14) 0.56407(14) 0.11501(18) 0.0309 Uani
Cl4 Cl 0.60120(18) 0.41462(17) 0.0000 0.0219 Uani
O1 O 0.6809(4) 0.5460(4) 0.0000 0.0118 Uani
N1 N 0.8531(5) 0.6090(5) 0.0000 0.0141 Uani
N2 N 0.9672(5) 0.6419(5) 0.0000 0.0132 Uani
N3 N 0.6083(4) 0.4498(4) -0.1873(5) 0.0141 Uani
C1 C 0.8838(5) 0.6467(5) 0.0691(7) 0.0221 Uani
C2 C 0.9502(5) 0.6646(5) 0.0694(7) 0.0252 Uani
C3 C 0.8620(7) 0.5572(7) 0.0000 0.0242 Uani
C4 C 0.9264(7) 0.5748(7) 0.0000 0.0277 Uani
C5 C 0.6227(5) 0.4014(5) -0.2082(7) 0.0186 Uani
C6 C 0.5415(4) 0.4200(5) -0.1761(7) 0.0183 Uani
C7 C 0.6261(5) 0.4908(5) -0.2570(7) 0.0191 Uani
H1 H 0.8647 0.6244 0.1164 0.0340 Uiso
H2 H 0.8802 0.6826 0.0682 0.0340 Uiso
H3 H 0.9746 0.7082 0.0709 0.0380 Uiso
H4 H 0.9588 0.6489 0.1162 0.0380 Uiso
H5 H 0.8428 0.5328 -0.0458 0.0370 Uiso
H6 H 0.8428 0.5328 0.0458 0.0370 Uiso
H7 H 0.9348 0.5579 -0.0458 0.0410 Uiso
H8 H 0.6041 0.3687 -0.1707 0.0290 Uiso
H9 H 0.6659 0.4175 -0.2065 0.0290 Uiso
H10 H 0.5291 0.4501 -0.1765 0.0270 Uiso
H11 H 0.5304 0.3995 -0.1260 0.0270 Uiso
H12 H 0.6661 0.5009 -0.2743 0.0280 Uiso
H13 H 0.6267 0.5277 -0.2431 0.0280 Uiso
Cu2E Cu 1.05278(11) 0.66304(8) 0.0000 0.0145 Uani
Cu3O Cu 0.64715(6) 0.49757(6) 0.09080(8) 0.0148 Uani
Cu3I Cu 0.50243(6) 0.35285(6) -0.40920(8) 0.0148 Uani
Cl2O Cl 0.74787(12) 0.52810(13) 0.12703(17) 0.0256 Uani
Cl3O Cl 0.60671(14) 0.56407(14) -0.11501(18) 0.0309 Uani
N2D N 0.6419(5) 0.6747(7) 0.0000 0.0132 Uani
N3I N 0.5502(4) 0.3917(4) -0.3127(5) 0.0141 Uani
N3O N 0.6083(4) 0.4498(4) 0.1873(5) 0.0141 Uani
C1O C 0.8838(5) 0.6467(5) -0.0691(7) 0.0221 Uani
C2O C 0.9502(5) 0.6646(5) -0.0694(7) 0.0252 Uani
C5I C 0.5986(5) 0.3773(5) -0.2918(7) 0.0186 Uani
C6I C 0.5800(5) 0.4585(4) -0.3239(7) 0.0183 Uani
C7I C 0.5092(5) 0.3739(5) -0.2430(7) 0.0191 Uani
H1O H 0.8647 0.6244 -0.1164 0.0340 Uiso
H2O H 0.8802 0.6826 -0.0682 0.0340 Uiso
H3O H 0.9746 0.7082 -0.0709 0.0380 Uiso
H4O H 0.9588 0.6489 -0.1162 0.0380 Uiso
H7O H 0.9348 0.5579 0.0458 0.0410 Uiso
H8I H 0.6313 0.3959 -0.3293 0.0290 Uiso
H9I H 0.5825 0.3341 -0.2935 0.0290 Uiso
H10I H 0.5499 0.4709 -0.3235 0.0270 Uiso
H11I H 0.6005 0.4696 -0.3740 0.0270 Uiso
H12I H 0.4991 0.3339 -0.2257 0.0280 Uiso
H13I H 0.4723 0.3733 -0.2569 0.0280 Uiso
loop_
_atom_site_aniso_label
_atom_site_aniso_U_11
_atom_site_aniso_U_22
_atom_site_aniso_U_33
_atom_site_aniso_U_23
_atom_site_aniso_U_13
_atom_site_aniso_U_12
Cu1 0.0088(11) 0.0128(11) 0.0221(12) 0.000 0.000 0.0048(9)
Cu2 0.0113(11) 0.0125(12) 0.0207(12) 0.000 0.000 0.0066(9)
Cu3 0.0117(8) 0.0138(9) 0.0178(9) -0.0025(6) -0.0013(6) 0.0056(7)
Cl1 0.013(2) 0.011(2) 0.066(3) 0.000 0.000 0.0052(19)
Cl2 0.0144(16) 0.0352(19) 0.0250(17) -0.0121(15) -0.0003(13) 0.0107(15)
Cl3 0.042(2) 0.0326(19) 0.0342(19) 0.0143(16) 0.0192(16) 0.0308(17)
Cl4 0.023(2) 0.014(2) 0.023(2) 0.000 0.000 0.005(2)
O1 0.009(6) 0.006(6) 0.018(6) 0.000 0.000 0.002(5)
N1 0.012(8) 0.004(7) 0.025(8) 0.000 0.000 0.003(6)
N2 0.019(8) 0.009(7) 0.013(7) 0.000 0.000 0.008(6)
N3 0.011(5) 0.013(5) 0.017(5) -0.002(4) -0.002(4) 0.005(4)
C1 0.017(7) 0.026(7) 0.025(7) -0.004(6) -0.002(6) 0.012(6)
C2 0.018(7) 0.027(7) 0.025(7) -0.006(6) 0.004(6) 0.007(6)
C3 0.015(10) 0.021(11) 0.030(11) 0.000 0.000 0.004(8)
C4 0.018(10) 0.009(10) 0.055(13) 0.000 0.000 0.006(8)
C5 0.018(7) 0.018(7) 0.025(6) -0.001(6) -0.006(6) 0.013(6)
C6 0.008(6) 0.024(7) 0.019(7) -0.002(6) -0.002(5) 0.005(6)
C7 0.014(7) 0.005(6) 0.032(7) 0.004(6) 0.004(6) 0.000(5)
Cu2E 0.0106 0.0113 0.0207 0 0 0.0047
Cu3O 0.0117 0.0138 0.0178 0.0025 0.0013 0.0056
Cu3I 0.0138 0.0117 0.0178 -0.0013 -0.0025 0.0056
Cl2O 0.0144 0.0352 0.025 0.0121 0.0003 0.0107
Cl3O 0.042 0.0326 0.0342 -0.0143 -0.0192 0.0308
N2D 0.009 0.012 0.013 0 0 0.001
N3I 0.013 0.011 0.017 -0.002 -0.002 0.005
N3O 0.011 0.013 0.017 0.002 0.002 0.005
C1O 0.017 0.026 0.025 0.004 0.002 0.012
C2O 0.018 0.027 0.025 0.006 -0.004 0.007
C5I 0.018 0.018 0.025 -0.006 -0.001 0.013
C6I 0.024 0.008 0.019 -0.002 -0.002 0.005
C7I 0.005 0.014 0.032 0.004 0.004 0
loop_
_geom_bond_atom_site_label_1
_geom_bond_atom_site_label_2
_geom_bond_site_symmetry_1
_geom_bond_site_symmetry_2
Cu1 Cl1 1_555 1_555
Cu2 Cl1 1_555 1_555
Cu3 Cl2 1_555 1_555
Cl2 Cu1 1_555 1_555
Cl3 Cu2 1_555 1_555
Cl4 Cu3 1_555 1_555
O1 Cu1 1_555 1_555
N1 Cu1 1_555 1_555
N2 C2 1_555 1_555
N3 Cu3 1_555 1_555
C1 N1 1_555 1_555
C2 C1 1_555 1_555
C3 N1 1_555 1_555
C4 N2 1_555 1_555
C5 N3 1_555 1_555
C6 N3 1_555 1_555
C7 N3 1_555 1_555
H1 C1 1_555 1_555
H2 C1 1_555 1_555
H3 C2 1_555 1_555
H4 C2 1_555 1_555
H5 C3 1_555 1_555
H6 C3 1_555 1_555
H7 C4 1_555 1_555
H8 C5 1_555 1_555
H9 C5 1_555 1_555
H10 C6 1_555 1_555
H11 C6 1_555 1_555
H12 C7 1_555 1_555
H13 C7 1_555 1_555
Cu2E N2 1_555 1_555
Cu3O Cl3 1_555 1_555
Cu3I N3I 1_555 1_555
Cl2O Cu1 1_555 1_555
Cl3O Cu2 1_555 1_555
N2D Cu2 1_555 1_555
N3I C5I 1_555 1_555
N3O Cu3O 1_555 1_555
C1O N1 1_555 1_555
C2O N2 1_555 1_555
C5I C5 1_555 1_555
C6I C7 1_555 1_555
C7I C6 1_555 1_555
H1O C1O 1_555 1_555
H2O C1O 1_555 1_555
H3O C2O 1_555 1_555
H4O C2O 1_555 1_555
H7O C4 1_555 1_555
H8I C5I 1_555 1_555
H9I C5I 1_555 1_555
H10I C6I 1_555 1_555
H11I C6I 1_555 1_555
H12I C7I 1_555 1_555
H13I C7I 1_555 1_555
Cu2 O1 1_555 1_555
Cu3 O1 1_555 1_555
Cu3 Cl3O 1_555 1_555
Cl4 Cu3O 1_555 1_555
O1 Cu3O 1_555 1_555
C3 C4 1_555 1_555
Cu3O Cl2O 1_555 1_555
N3I C6I 1_555 1_555
N3I C7I 1_555 1_555
C1O C2O 1_555 1_555

#END
