
#######################################################################
#
#                 Cambridge Crystallographic Data Centre
#                                CCDC 
#
#######################################################################
#
# If this CIF has been generated from an entry in the Cambridge 
# Structural Database, then it will include bibliographic, chemical, 
# crystal, experimental, refinement or atomic coordinate data resulting 
# from the CCDC's data processing and validation procedures.
#
#######################################################################

data_ANIDIL
_chemical_formula_moiety         'C69 H53 Co19 N6 O35'
_symmetry_cell_setting           monoclinic
_symmetry_space_group_name_H-M   'C 2/c'
_symmetry_Int_Tables_number      15
_space_group_name_Hall           '-C 2yc'
loop_
_symmetry_equiv_pos_site_id
_symmetry_equiv_pos_as_xyz
1 x,y,z
2 -x,y,1/2-z
3 1/2+x,1/2+y,z
4 1/2-x,1/2+y,1/2-z
5 -x,-y,-z
6 x,-y,1/2+z
7 1/2-x,1/2-y,-z
8 1/2+x,1/2-y,1/2+z
_cell_length_a                   24.038(5)
_cell_length_b                   23.217(5)
_cell_length_c                   15.263(3)
_cell_angle_alpha                90
_cell_angle_beta                 115.73(3)
_cell_angle_gamma                90
_cell_volume                     7673.56
loop_
_atom_site_label
_atom_site_type_symbol
_atom_site_fract_x
_atom_site_fract_y
_atom_site_fract_z
O13 O 0.1389(4) 0.8906(3) 0.0263(11)
C1 C -0.2613(4) 0.3802(4) -0.7173(5)
C2 C -0.2673(5) 0.4195(5) -0.6398(7)
C3 C -0.2310(4) 0.4676(4) -0.6070(6)
H1 H -0.2030 0.4778 -0.6333
C4 C -0.2354(5) 0.5017(4) -0.5347(6)
C5 C -0.2789(6) 0.4872(5) -0.4984(8)
H2 H -0.2829 0.5111 -0.4508
C6 C -0.3148(6) 0.4396(5) -0.5307(10)
H3 H -0.3431 0.4301 -0.5046
C7 C -0.3107(6) 0.4046(6) -0.6019(10)
H4 H -0.3362 0.3715 -0.6250
C8 C -0.1988(4) 0.5564(4) -0.5018(5)
C9 C -0.1467(3) 0.7392(3) -0.1698(5)
C10 C -0.0938(3) 0.7662(3) -0.0830(5)
C11 C -0.0355(3) 0.7414(3) -0.0475(5)
H5 H -0.0300 0.7061 -0.0743
C12 C 0.0146(3) 0.7677(3) 0.0266(5)
C13 C 0.0048(4) 0.8185(4) 0.0671(6)
H6 H 0.0389 0.8374 0.1168
C14 C -0.0537(4) 0.8417(4) 0.0364(7)
H7 H -0.0599 0.8750 0.0673
C15 C -0.1031(4) 0.8160(3) -0.0398(6)
H8 H -0.1433 0.8322 -0.0626
C16 C 0.0787(3) 0.7432(4) 0.0557(5)
C17 C -0.3869(3) 0.7620(3) -0.6346(5)
C18 C -0.4451(4) 0.7342(4) -0.6967(9)
C19 C -0.5000 0.7631(4) -0.7500
H9 H -0.5000 0.8040 -0.7500
C20 C -0.4438(6) 0.6745(6) -0.7461(9)
H10 H -0.4033 0.6617 -0.7431
C21 C -0.4970(7) 0.6505(5) -0.8185(10)
H11 H -0.4946 0.6133 -0.8426
C22 C -0.4498(6) 0.6775(5) -0.6455(9)
H12 H -0.4152 0.6648 -0.5830
C23 C -0.0478(4) 0.5868(4) -0.1894(5)
H13 H -0.0345 0.6253 -0.1888
C24 C -0.0045(4) 0.5450(4) -0.1359(6)
H14 H 0.0378 0.5550 -0.1010
C25 C -0.0239(4) 0.4883(4) -0.1340(7)
C26 C -0.0843(4) 0.4759(4) -0.1851(6)
H15 H -0.0992 0.4381 -0.1842
C27 C -0.1240(4) 0.5187(3) -0.2386(5)
H16 H -0.1661 0.5086 -0.2763
C28 C 0.0209(5) 0.4457(5) -0.0681(8)
H17 H 0.0524 0.4657 -0.0108
H18 H -0.0009 0.4178 -0.0449
C29 C 0.0525(6) 0.4136(5) -0.1224(8)
H19 H 0.0212 0.3912 -0.1768
H20 H 0.0713 0.4418 -0.1501
C30 C 0.1028(5) 0.3725(4) -0.0534(9)
H21 H 0.0843 0.3444 -0.0248
H22 H 0.1347 0.3947 0.0003
C31 C 0.1312(5) 0.3417(5) -0.1096(8)
C32 C 0.1776(5) 0.3679(4) -0.1320(8)
H23 H 0.1924 0.4053 -0.1079
C33 C 0.2013(5) 0.3392(5) -0.1884(8)
H24 H 0.2333 0.3570 -0.1995
C34 C 0.1357(4) 0.2617(4) -0.2073(6)
H25 H 0.1202 0.2248 -0.2335
C35 C 0.1117(4) 0.2885(5) -0.1485(7)
H26 H 0.0812 0.2692 -0.1356
Co1 Co -0.2500 0.7500 -0.5000
Co2 Co -0.17631(4) 0.63849(4) -0.31452(6)
Co3 Co -0.28104(5) 0.73913(6) -0.31331(7)
Co4 Co -0.14826(4) 0.65537(4) -0.51239(6)
N1 N -0.1077(3) 0.5739(2) -0.2416(4)
N2 N 0.1802(3) 0.2861(4) -0.2287(5)
O1 O -0.2503(2) 0.6896(2) -0.4005(3)
O2 O -0.2255(2) 0.6944(2) -0.5931(3)
O3 O -0.2309(2) 0.4040(2) -0.7601(3)
O4 O -0.2860(3) 0.3333(3) -0.7325(4)
O5 O -0.2090(3) 0.5867(2) -0.4397(4)
O6 O -0.1624(2) 0.5718(3) -0.5381(4)
O7 O -0.1350(2) 0.6908(2) -0.1963(3)
O8 O -0.1955(2) 0.7667(2) -0.2095(3)
O9 O 0.1238(2) 0.7769(2) 0.0897(4)
O10 O 0.0809(2) 0.6896(2) 0.0395(3)
O11 O -0.3420(2) 0.7302(2) -0.5907(3)
O12 O -0.38609(19) 0.81796(19) -0.6278(3)
C1E C -0.2613(4) 0.6198(4) -0.2173(5)
C2E C -0.2673(5) 0.5805(5) -0.1398(7)
C3E C -0.2310(4) 0.5324(4) -0.1070(6)
H1E H -0.2030 0.5222 -0.1333
C4E C -0.2354(5) 0.4983(4) -0.0347(6)
C5E C -0.2789(6) 0.5128(5) 0.0016(8)
H2E H -0.2829 0.4889 0.0492
C6E C -0.3148(6) 0.5604(5) -0.0307(10)
H3E H -0.3431 0.5699 -0.0046
C7E C -0.3107(6) 0.5954(6) -0.1019(10)
H4E H -0.3362 0.6285 -0.1250
C8E C -0.1988(4) 0.4436(4) -0.0018(5)
C9G C -0.6467(3) 0.7608(3) -0.6698(5)
C10G C -0.5938(3) 0.7338(3) -0.5830(5)
C11G C -0.5355(3) 0.7586(3) -0.5475(5)
H5G H -0.5300 0.7939 -0.5743
C12G C -0.4854(3) 0.7323(3) -0.4734(5)
C13G C -0.4952(4) 0.6815(4) -0.4329(6)
H6G H -0.4611 0.6626 -0.3832
C14G C -0.5537(4) 0.6583(4) -0.4636(7)
H7G H -0.5599 0.6250 -0.4327
C15G C -0.6031(4) 0.6840(3) -0.5398(6)
H8G H -0.6433 0.6678 -0.5626
C16G C -0.4213(3) 0.7568(4) -0.4443(5)
C17A C -0.6131(3) 0.7620(3) -0.8654(5)
C18A C -0.5549(4) 0.7342(4) -0.8033(9)
C20A C -0.5562(6) 0.6745(6) -0.7539(9)
H10A H -0.5967 0.6617 -0.7569
C21A C -0.5030(7) 0.6505(5) -0.6815(10)
H11A H -0.5054 0.6133 -0.6574
C22A C -0.5502(6) 0.6775(5) -0.8545(9)
H12A H -0.5848 0.6648 -0.9170
C23B C -0.5478(4) 1.0868(4) -0.1894(5)
H13B H -0.5345 1.1253 -0.1888
C24B C -0.5045(4) 1.0450(4) -0.1359(6)
H14B H -0.4622 1.0550 -0.1010
C25B C -0.5239(4) 0.9883(4) -0.1340(7)
C26B C -0.5843(4) 0.9759(4) -0.1851(6)
H15B H -0.5992 0.9381 -0.1842
C27B C -0.6240(4) 1.0187(3) -0.2386(5)
H16B H -0.6661 1.0086 -0.2763
C28B C -0.4791(5) 0.9457(5) -0.0681(8)
H17B H -0.4476 0.9657 -0.0108
H18B H -0.5009 0.9178 -0.0449
C29B C -0.4475(6) 0.9136(5) -0.1224(8)
H19B H -0.4788 0.8912 -0.1768
H20B H -0.4287 0.9418 -0.1501
C30B C -0.3972(5) 0.8725(4) -0.0534(9)
H21B H -0.4157 0.8444 -0.0248
H22B H -0.3653 0.8947 0.0003
C31B C -0.3688(5) 0.8417(5) -0.1096(8)
C32B C -0.3224(5) 0.8679(4) -0.1320(8)
H23B H -0.3076 0.9053 -0.1079
C33B C -0.2987(5) 0.8392(5) -0.1884(8)
H24B H -0.2667 0.8570 -0.1995
C34B C -0.3643(4) 0.7617(4) -0.2073(6)
H25B H -0.3798 0.7248 -0.2335
C35B C -0.3883(4) 0.7885(5) -0.1485(7)
H26B H -0.4188 0.7692 -0.1356
Co1A Co -0.7500 0.7500 -1.0000
Co2F Co -0.32369(4) 0.86151(4) -0.68548(6)
Co2E Co -0.17631(4) 0.36151(4) -0.81452(6)
Co2G Co -0.67631(4) 0.86151(4) -0.81452(6)
Co2E_2 Co -0.17631(4) 0.36151(4) 0.18548(6)
Co2B Co -0.67631(4) 1.13849(4) -0.31452(6)
Co3F Co -0.21896(5) 0.76087(6) -0.68669(7)
Co3B Co 0.21896(5) 0.23913(6) -0.31331(7)
Co3E Co -0.28104(5) 0.26087(6) -0.81331(7)
Co3G Co 0.21896(5) 0.76087(6) 0.18669(7)
Co3G_2 Co -0.78104(5) 0.76087(6) -0.81331(7)
Co4F Co -0.35174(4) 0.84463(4) -0.48761(6)
Co4A Co 0.14826(4) 0.65537(4) 0.01239(6)
Co4G Co -0.64826(4) 0.84463(4) -1.01239(6)
Co4E Co -0.14826(4) 0.34463(4) -0.01239(6)
N1B N -0.6077(3) 1.0739(2) -0.2416(4)
N1F N -0.3923(3) 0.9261(2) -0.7584(4)
N2B N -0.3198(3) 0.7861(4) -0.2287(5)
N2D N -0.1802(3) 0.7139(4) -0.7713(5)
O1F O -0.2497(2) 0.8104(2) -0.5995(3)
O2F O -0.2745(2) 0.8056(2) -0.4069(3)
O3E O -0.2309(2) 0.5960(2) -0.2601(3)
O3C O -0.2691(2) 0.9040(2) -0.7399(3)
O4E O -0.2860(3) 0.6667(3) -0.2325(4)
O4C O -0.2140(3) 0.8333(3) -0.7675(4)
O5E O -0.2090(3) 0.4133(2) 0.0603(4)
O5F O -0.2910(3) 0.9133(2) -0.5603(4)
O6E O -0.1624(2) 0.4282(3) -0.0381(4)
O6F O -0.3376(2) 0.9282(3) -0.4619(4)
O7G O -0.6350(2) 0.8092(2) -0.6963(3)
O7F O -0.3650(2) 0.8092(2) -0.8037(3)
O8G O -0.6955(2) 0.7333(2) -0.7095(3)
O8F O -0.3045(2) 0.7333(2) -0.7905(3)
O9G O -0.3762(2) 0.7231(2) -0.4103(4)
O9A O -0.1238(2) 0.7769(2) -0.5897(4)
O10G O -0.4191(2) 0.8104(2) -0.4605(3)
O10A O -0.0809(2) 0.6896(2) -0.5395(3)
O11A O -0.6580(2) 0.7302(2) -0.9093(3)
O11F O -0.1580(2) 0.7698(2) -0.4093(3)
O12A O -0.61391(19) 0.81796(19) -0.8722(3)
O12F O -0.11391(19) 0.68204(19) -0.3722(3)
loop_
_geom_bond_atom_site_label_1
_geom_bond_atom_site_label_2
_geom_bond_site_symmetry_1
_geom_bond_site_symmetry_2
C1 C2 1_555 1_555
C2 C3 1_555 1_555
C3 H1 1_555 1_555
C4 C3 1_555 1_555
C5 C4 1_555 1_555
H2 C5 1_555 1_555
C6 C5 1_555 1_555
H3 C6 1_555 1_555
C7 C2 1_555 1_555
H4 C7 1_555 1_555
C8 C4 1_555 1_555
C9 C10 1_555 1_555
C10 C11 1_555 1_555
C11 H5 1_555 1_555
C12 C11 1_555 1_555
C13 C12 1_555 1_555
H6 C13 1_555 1_555
C14 C13 1_555 1_555
H7 C14 1_555 1_555
C15 C10 1_555 1_555
H8 C15 1_555 1_555
C16 C12 1_555 1_555
C17 C18 1_555 1_555
C18 C19 1_555 1_555
C19 H9 1_555 1_555
C20 C18 1_555 1_555
H10 C20 1_555 1_555
C21 C20 1_555 1_555
H11 C21 1_555 1_555
C22 C18 1_555 1_555
H12 C22 1_555 1_555
C23 H13 1_555 1_555
C24 C23 1_555 1_555
H14 C24 1_555 1_555
C25 C24 1_555 1_555
C26 C25 1_555 1_555
H15 C26 1_555 1_555
C27 C26 1_555 1_555
H16 C27 1_555 1_555
C28 C25 1_555 1_555
H17 C28 1_555 1_555
H18 C28 1_555 1_555
C29 C28 1_555 1_555
H19 C29 1_555 1_555
H20 C29 1_555 1_555
C30 C29 1_555 1_555
H21 C30 1_555 1_555
H22 C30 1_555 1_555
C31 C30 1_555 1_555
C32 C31 1_555 1_555
H23 C32 1_555 1_555
C33 C32 1_555 1_555
H24 C33 1_555 1_555
C34 H25 1_555 1_555
C35 C31 1_555 1_555
H26 C35 1_555 1_555
Co1 O1 1_555 1_555
Co2 N1 1_555 1_555
Co3 O1 1_555 1_555
Co4 O2 1_555 1_555
N1 C23 1_555 1_555
N2 C33 1_555 1_555
O1 Co2 1_555 1_555
O2 Co1 1_555 1_555
O3 C1 1_555 1_555
O4 C1 1_555 1_555
O5 C8 1_555 1_555
O6 C8 1_555 1_555
O7 C9 1_555 1_555
O8 C9 1_555 1_555
O9 C16 1_555 1_555
O10 C16 1_555 1_555
O11 C17 1_555 1_555
O12 C17 1_555 1_555
C1E C2E 1_555 1_555
C2E C3E 1_555 1_555
C3E H1E 1_555 1_555
C4E C3E 1_555 1_555
C5E C4E 1_555 1_555
H2E C5E 1_555 1_555
C6E C5E 1_555 1_555
H3E C6E 1_555 1_555
C7E C2E 1_555 1_555
H4E C7E 1_555 1_555
C8E C4E 1_555 1_555
C9G C10G 1_555 1_555
C10G C11G 1_555 1_555
C11G H5G 1_555 1_555
C12G C11G 1_555 1_555
C13G C12G 1_555 1_555
H6G C13G 1_555 1_555
C14G C13G 1_555 1_555
H7G C14G 1_555 1_555
C15G C10G 1_555 1_555
H8G C15G 1_555 1_555
C16G C12G 1_555 1_555
C17A C18A 1_555 1_555
C18A C19 1_555 1_555
C20A C18A 1_555 1_555
H10A C20A 1_555 1_555
C21A C22 1_555 1_555
H11A C21A 1_555 1_555
C22A C21 1_555 1_555
H12A C22A 1_555 1_555
C23B H13B 1_555 1_555
C24B C23B 1_555 1_555
H14B C24B 1_555 1_555
C25B C24B 1_555 1_555
C26B C25B 1_555 1_555
H15B C26B 1_555 1_555
C27B C26B 1_555 1_555
H16B C27B 1_555 1_555
C28B C25B 1_555 1_555
H17B C28B 1_555 1_555
H18B C28B 1_555 1_555
C29B C28B 1_555 1_555
H19B C29B 1_555 1_555
H20B C29B 1_555 1_555
C30B C29B 1_555 1_555
H21B C30B 1_555 1_555
H22B C30B 1_555 1_555
C31B C30B 1_555 1_555
C32B C31B 1_555 1_555
H23B C32B 1_555 1_555
C33B C32B 1_555 1_555
H24B C33B 1_555 1_555
C34B H25B 1_555 1_555
C35B C31B 1_555 1_555
H26B C35B 1_555 1_555
Co1A O11A 1_555 1_555
Co2F O12 1_555 1_555
Co2E O3 1_555 1_555
Co2G O7G 1_555 1_555
Co2E_2 O5E 1_555 1_555
Co2B N1B 1_555 1_555
Co3F O2 1_555 1_555
Co3B N2 1_555 1_555
Co3E O4 1_555 1_555
Co3G O9 1_555 1_555
Co3G_2 O8G 1_555 1_555
Co4F O12 1_555 1_555
Co4A O10 1_555 1_555
Co4G O12A 1_555 1_555
Co4E O6E 1_555 1_555
N1B C23B 1_555 1_555
N1F Co2F 1_555 1_555
N2B Co3 1_555 1_555
N2D Co3F 1_555 1_555
O1F Co1 1_555 1_555
O2F Co1 1_555 1_555
O3E Co2 1_555 1_555
O3C Co2F 1_555 1_555
O4E Co3 1_555 1_555
O4C Co3F 1_555 1_555
O5E C8E 1_555 1_555
O5F Co2F 1_555 1_555
O6E C8E 1_555 1_555
O6F Co4F 1_555 1_555
O7G C9G 1_555 1_555
O7F Co2F 1_555 1_555
O8G C9G 1_555 1_555
O8F Co3F 1_555 1_555
O9G Co3 1_555 1_555
O9A Co3F 1_555 1_555
O10G C16G 1_555 1_555
O10A Co4 1_555 1_555
O11A C17A 1_555 1_555
O11F Co1 1_555 1_555
O12A C17A 1_555 1_555
O12F Co2 1_555 1_555
C6 C7 1_555 1_555
C14 C15 1_555 1_555
C20 C22 1_555 1_555
C27 N1 1_555 1_555
C34 C35 1_555 1_555
C34 N2 1_555 1_555
Co1 O11 1_555 1_555
Co2 O5 1_555 1_555
Co2 O7 1_555 1_555
Co3 O8 1_555 1_555
Co3 O2F 1_555 1_555
Co4 O6 1_555 1_555
Co4 O12F 1_555 1_555
C1E O3E 1_555 1_555
C1E O4E 1_555 1_555
C6E C7E 1_555 1_555
C14G C15G 1_555 1_555
C16G O9G 1_555 1_555
C18A C22A 1_555 1_555
C20A C21A 1_555 1_555
C20A C22A 1_555 1_555
C27B N1B 1_555 1_555
C33B N2B 1_555 1_555
C34B C35B 1_555 1_555
C34B N2B 1_555 1_555
Co2F O1F 1_555 1_555
Co2G O12A 1_555 1_555
Co3F O1F 1_555 1_555
Co4F O2F 1_555 1_555
Co4F O10G 1_555 1_555

#END
