
#######################################################################
#
#                 Cambridge Crystallographic Data Centre
#                                CCDC 
#
#######################################################################
#
# If this CIF has been generated from an entry in the Cambridge 
# Structural Database, then it will include bibliographic, chemical, 
# crystal, experimental, refinement or atomic coordinate data resulting 
# from the CCDC's data processing and validation procedures.
#
#######################################################################

data_IYEHAX
_chemical_formula_moiety         '(C39 H28 Cu3 N6 O13)n'
_symmetry_cell_setting           monoclinic
_symmetry_space_group_name_H-M   'I 2/m'
_symmetry_Int_Tables_number      12
_space_group_name_Hall           '-I 2y'
loop_
_symmetry_equiv_pos_site_id
_symmetry_equiv_pos_as_xyz
1 x,y,z
2 -x,y,-z
3 1/2+x,1/2+y,1/2+z
4 1/2-x,1/2+y,1/2-z
5 -x,-y,-z
6 x,-y,z
7 1/2-x,1/2-y,1/2-z
8 1/2+x,1/2-y,1/2+z
_cell_length_a                   13.657(5)
_cell_length_b                   18.686(5)
_cell_length_c                   31.503(5)
_cell_angle_alpha                90
_cell_angle_beta                 101.532(5)
_cell_angle_gamma                90
_cell_volume                     7877.11
loop_
_atom_site_label
_atom_site_type_symbol
_atom_site_fract_x
_atom_site_fract_y
_atom_site_fract_z
Cu1 Cu 0.90308(5) 0.0000 0.48305(2)
Cu2 Cu 0.80976(4) 0.28179(3) 0.22732(2)
O1 O 0.94660(19) 0.07294(17) 0.44649(8)
O2 O 1.1112(2) 0.07172(17) 0.47368(9)
O3 O 0.9126(2) 0.24880(18) 0.27533(10)
O4 O 0.8129(2) 0.19547(17) 0.31376(10)
O5 O 0.7903(2) 0.36838(14) 0.25983(10)
O6 O 0.6934(3) 0.31378(15) 0.29947(12)
O7 O 0.7554(4) 0.0000 0.4435(2)
N1 N 1.5806(3) 0.1827(2) 0.30805(13)
N2 N 1.2615(4) 0.1914(4) 0.3564(2)
N3 N 0.6426(10) 0.5000 0.4118(4)
N4 N 0.6845(6) 0.0000 0.3704(2)
C1 C 1.5852(5) 0.2054(3) 0.34850(17)
H1 H 1.6457 0.2261 0.3616
C2 C 1.5132(5) 0.2030(4) 0.3742(2)
H2 H 1.5243 0.2183 0.4028
C3 C 1.4222(5) 0.1749(5) 0.3520(3)
C4 C 1.4151(5) 0.1478(5) 0.3099(3)
H3 H 1.3551 0.1278 0.2957
C5 C 1.4966(4) 0.1500(4) 0.2885(2)
H4 H 1.4918 0.1292 0.2614
C6 C 1.3450(5) 0.1719(6) 0.3787(3)
C7 C 1.1639(4) 0.1823(4) 0.36616(19)
C8 C 1.1480(3) 0.1485(3) 0.40326(16)
H5 H 1.2022 0.1352 0.4247
C9 C 1.0516(3) 0.1345(2) 0.40859(14)
C10 C 0.9719(3) 0.1567(2) 0.37820(13)
H6 H 0.9075 0.1476 0.3823
C11 C 0.9853(3) 0.1925(2) 0.34136(15)
C12 C 1.0804(4) 0.2061(3) 0.33518(19)
H7 H 1.0898 0.2308 0.3107
C13 C 1.0350(3) 0.0899(2) 0.44624(13)
C14 C 0.8967(3) 0.2147(2) 0.30833(14)
C15 C 0.6656(9) 0.5000 0.3661(3)
C16 C 0.6853(5) 0.4361(3) 0.34800(19)
H8 H 0.6720 0.3932 0.3607
C17 C 0.7250(4) 0.4353(2) 0.31075(16)
C18 C 0.7447(4) 0.5000 0.2920(2)
H9 H 0.7709 0.5000 0.2669
C19 C 0.7382(3) 0.3677(2) 0.28863(15)
C20 C 0.7583(8) 0.0000 0.4002(3)
C21 C 0.5828(7) 0.0000 0.3826(4)
H10 H 0.5317 0.0000 0.3568
H11 H 0.5761 -0.0419 0.3994
C22 C 0.7032(8) 0.0000 0.3264(3)
H12 H 0.6407 0.0000 0.3060
H13 H 0.7406 0.0419 0.3221
H14 H 1.3723(8) 0.177(3) 0.4075(2)
O5E O 0.7903(2) 0.63162(14) 0.25983(10)
O6E O 0.6934(3) 0.68622(15) 0.29947(12)
C16E C 0.6853(5) 0.5639(3) 0.34800(19)
H8E H 0.6720 0.6068 0.3607
C17E C 0.7250(4) 0.5647(2) 0.31075(16)
C19E C 0.7382(3) 0.6323(2) 0.28863(15)
H11E H 0.5761 0.0419 0.3994
H13E H 0.7406 -0.0419 0.3221
Cu2A Cu 1.19024(4) 0.28179(3) 0.77268(2)
O1A O 1.05340(19) 0.07294(17) 0.55351(8)
O2A O 0.8888(2) 0.07172(17) 0.52632(9)
O3A O 1.0874(2) 0.24880(18) 0.72467(10)
O4A O 1.1871(2) 0.19547(17) 0.68624(10)
N1A N 0.4194(3) 0.1827(2) 0.69195(13)
N2A N 0.7385(4) 0.1914(4) 0.6436(2)
C1A C 0.4148(5) 0.2054(3) 0.65150(17)
H1A H 0.3543 0.2261 0.6384
C2A C 0.4868(5) 0.2030(4) 0.6258(2)
H2A H 0.4757 0.2183 0.5972
C3A C 0.5778(5) 0.1749(5) 0.6480(3)
C4A C 0.5849(5) 0.1478(5) 0.6901(3)
H3A H 0.6449 0.1278 0.7043
C5A C 0.5034(4) 0.1500(4) 0.7115(2)
H4A H 0.5082 0.1292 0.7386
C6A C 0.6550(5) 0.1719(6) 0.6213(3)
C7A C 0.8361(4) 0.1823(4) 0.63384(19)
C8A C 0.8520(3) 0.1485(3) 0.59674(16)
H5A H 0.7978 0.1352 0.5753
C9A C 0.9484(3) 0.1345(2) 0.59141(14)
C10A C 1.0281(3) 0.1567(2) 0.62180(13)
H6A H 1.0925 0.1476 0.6177
C11A C 1.0147(3) 0.1925(2) 0.65864(15)
C12A C 0.9196(4) 0.2061(3) 0.66482(19)
H7A H 0.9102 0.2308 0.6893
C13A C 0.9650(3) 0.0899(2) 0.55376(13)
C14A C 1.1033(3) 0.2147(2) 0.69167(14)
H14A H 0.6277(8) 0.177(3) 0.5925(2)
Cu1A Cu 1.09692(5) 0.0000 0.51695(2)
Cu2C Cu 0.69024(4) 0.78179(3) 0.27268(2)
Cu2E Cu 0.80976(4) 0.71821(3) 0.22732(2)
Cu2F Cu 0.69024(4) 0.21821(3) 0.27268(2)
Cu2F_2 Cu 1.69024(4) 0.21821(3) 0.27268(2)
Cu2G Cu 0.30976(4) 0.21821(3) 0.72732(2)
Cu2G_2 Cu 1.30976(4) 0.21821(3) 0.72732(2)
O1E O 0.94660(19) -0.07294(17) 0.44649(8)
O2D O 0.8888(2) -0.07172(17) 0.52632(9)
O4F O 0.6871(2) 0.30453(17) 0.18624(10)
O4G O 1.3129(2) 0.30453(17) 0.81376(10)
O5A O 1.2097(2) 0.36838(14) 0.74017(10)
O6F O 0.8066(3) 0.18622(15) 0.20053(12)
O6G O 1.1934(3) 0.18622(15) 0.79947(12)
N1F N 0.9194(3) 0.3173(2) 0.19195(13)
N1G N 1.0806(3) 0.3173(2) 0.80805(13)
loop_
_geom_bond_atom_site_label_1
_geom_bond_atom_site_label_2
_geom_bond_site_symmetry_1
_geom_bond_site_symmetry_2
Cu1 O1 1_555 1_555
Cu2 O3 1_555 1_555
O1 C13 1_555 1_555
O2 C13 1_555 1_555
O3 C14 1_555 1_555
O4 C14 1_555 1_555
O5 Cu2 1_555 1_555
O6 C19 1_555 1_555
O7 Cu1 1_555 1_555
N1 C1 1_555 1_555
N2 C6 1_555 1_555
N3 C15 1_555 1_555
N4 C20 1_555 1_555
C1 H1 1_555 1_555
C2 C1 1_555 1_555
H2 C2 1_555 1_555
C3 C2 1_555 1_555
C4 C3 1_555 1_555
H3 C4 1_555 1_555
C5 N1 1_555 1_555
H4 C5 1_555 1_555
C6 C3 1_555 1_555
C7 N2 1_555 1_555
C8 C7 1_555 1_555
H5 C8 1_555 1_555
C9 C8 1_555 1_555
C10 C9 1_555 1_555
H6 C10 1_555 1_555
C11 C10 1_555 1_555
C12 C7 1_555 1_555
H7 C12 1_555 1_555
C13 C9 1_555 1_555
C14 C11 1_555 1_555
C15 C16 1_555 1_555
C16 H8 1_555 1_555
C17 C16 1_555 1_555
C18 C17 1_555 1_555
H9 C18 1_555 1_555
C19 O5 1_555 1_555
C20 O7 1_555 1_555
C21 N4 1_555 1_555
H10 C21 1_555 1_555
H11 C21 1_555 1_555
C22 N4 1_555 1_555
H12 C22 1_555 1_555
H13 C22 1_555 1_555
H14 C6 1_555 1_555
O5E C19E 1_555 1_555
O6E C19E 1_555 1_555
C16E C15 1_555 1_555
H8E C16E 1_555 1_555
C17E C18 1_555 1_555
C19E C17E 1_555 1_555
H11E C21 1_555 1_555
H13E C22 1_555 1_555
Cu2A O3A 1_555 1_555
O1A C13A 1_555 1_555
O2A Cu1 1_555 1_555
O3A C14A 1_555 1_555
O4A C14A 1_555 1_555
N1A C1A 1_555 1_555
N2A C6A 1_555 1_555
C1A H1A 1_555 1_555
C2A C1A 1_555 1_555
H2A C2A 1_555 1_555
C3A C2A 1_555 1_555
C4A C3A 1_555 1_555
H3A C4A 1_555 1_555
C5A N1A 1_555 1_555
H4A C5A 1_555 1_555
C6A C3A 1_555 1_555
C7A N2A 1_555 1_555
C8A C7A 1_555 1_555
H5A C8A 1_555 1_555
C9A C8A 1_555 1_555
C10A C9A 1_555 1_555
H6A C10A 1_555 1_555
C11A C10A 1_555 1_555
C12A C7A 1_555 1_555
H7A C12A 1_555 1_555
C13A O2A 1_555 1_555
C14A C11A 1_555 1_555
H14A C6A 1_555 1_555
Cu1A O2 1_555 1_555
Cu2C O6E 1_555 1_555
Cu2E O5E 1_555 1_555
Cu2F O4 1_555 1_555
Cu2F_2 N1 1_555 1_555
Cu2G N1A 1_555 1_555
Cu2G_2 O4A 1_555 1_555
O1E Cu1 1_555 1_555
O2D Cu1 1_555 1_555
O4F Cu2 1_555 1_555
O4G Cu2A 1_555 1_555
O5A Cu2A 1_555 1_555
O6F Cu2 1_555 1_555
O6G Cu2A 1_555 1_555
N1F Cu2 1_555 1_555
N1G Cu2A 1_555 1_555
O6 Cu2F 1_555 1_555
C4 C5 1_555 1_555
C11 C12 1_555 1_555
C17 C19 1_555 1_555
C16E C17E 1_555 1_555
O1A Cu1A 1_555 1_555
C4A C5A 1_555 1_555
C9A C13A 1_555 1_555
C11A C12A 1_555 1_555

#END
