
#######################################################################
#
#                 Cambridge Crystallographic Data Centre
#                                CCDC 
#
#######################################################################
#
# If this CIF has been generated from an entry in the Cambridge 
# Structural Database, then it will include bibliographic, chemical, 
# crystal, experimental, refinement or atomic coordinate data resulting 
# from the CCDC's data processing and validation procedures.
#
#######################################################################

data_QOKWEU
_chemical_formula_moiety         '(C48 H46 N4 O12 P2 Zn2)n'
_symmetry_cell_setting           orthorhombic
_symmetry_space_group_name_H-M   'F d d d'
_symmetry_Int_Tables_number      70
_space_group_name_Hall           '-F 2uv 2vw'
loop_
_symmetry_equiv_pos_site_id
_symmetry_equiv_pos_as_xyz
1 x,y,z
2 1/4-x,3/4-y,1/2+z
3 x,1/2+y,1/2+z
4 1/4-x,1/4-y,z
5 1/2+x,y,1/2+z
6 3/4-x,3/4-y,z
7 1/2+x,1/2+y,z
8 3/4-x,1/4-y,1/2+z
9 x,3/4-y,3/4-z
10 3/4-x,y,3/4-z
11 x,1/4-y,1/4-z
12 3/4-x,1/2+y,1/4-z
13 1/2+x,3/4-y,1/4-z
14 1/4-x,y,1/4-z
15 1/2+x,1/4-y,3/4-z
16 1/4-x,1/2+y,3/4-z
17 -x,-y,-z
18 3/4+x,1/4+y,1/2-z
19 -x,1/2-y,1/2-z
20 3/4+x,3/4+y,-z
21 1/2-x,-y,1/2-z
22 1/4+x,1/4+y,-z
23 1/2-x,1/2-y,-z
24 1/4+x,3/4+y,1/2-z
25 -x,1/4+y,1/4+z
26 1/4+x,-y,1/4+z
27 -x,3/4+y,3/4+z
28 1/4+x,1/2-y,3/4+z
29 1/2-x,1/4+y,3/4+z
30 3/4+x,-y,3/4+z
31 1/2-x,3/4+y,1/4+z
32 3/4+x,1/2-y,1/4+z
_cell_length_a                   10.358(3)
_cell_length_b                   44.783(12)
_cell_length_c                   69.995(16)
_cell_angle_alpha                90
_cell_angle_beta                 90
_cell_angle_gamma                90
_cell_volume                     32468
loop_
_atom_site_label
_atom_site_type_symbol
_atom_site_fract_x
_atom_site_fract_y
_atom_site_fract_z
_atom_site_U_iso_or_equiv
_atom_site_thermal_displace_type
Zn1 Zn 0.02107(7) 0.34004(2) 0.353762(11) 0.0992 Uani
P1 P 0.03886(18) 0.41167(6) 0.35230(3) 0.0983 Uani
O1 O 0.1321(4) 0.42990(13) 0.33788(7) 0.1040 Uani
O2 O 0.0840(5) 0.38051(14) 0.35105(7) 0.1087 Uani
O3 O -0.0979(4) 0.41631(13) 0.34591(7) 0.1110 Uani
O4 O 0.0654(4) 0.42503(13) 0.37211(6) 0.1030 Uani
O5 O 0.2112(13) 0.3094(3) 0.26821(15) 0.1200 Uiso
O6 O 0.3908(12) 0.2419(2) 0.30679(17) 0.1170 Uiso
N1 N 0.1131(5) 0.31711(15) 0.33357(8) 0.0977 Uani
N2 N 0.3175(6) 0.27797(17) 0.28809(9) 0.1003 Uani
C1 C 0.0864(6) 0.4441(2) 0.32168(9) 0.1117 Uani
C2 C 0.0778(7) 0.43048(17) 0.30388(11) 0.1130 Uani
C3 C 0.0348(7) 0.4467(2) 0.28819(8) 0.1657 Uani
H1 H 0.0289 0.4374 0.2760 0.1990 Uiso
C4 C 0.0005(8) 0.4765(2) 0.29029(14) 0.1857 Uani
H2 H -0.0288 0.4876 0.2796 0.2230 Uiso
C5 C 0.0092(9) 0.49013(17) 0.30810(18) 0.2073 Uani
H3 H -0.0142 0.5105 0.3095 0.2490 Uiso
C6 C 0.0521(7) 0.4739(2) 0.32379(12) 0.1540 Uani
C7 C 0.1204(18) 0.3965(3) 0.3028(3) 0.1150 Uiso
H4 H 0.1671 0.3903 0.3147 0.1370 Uiso
C8 C 0.2217(19) 0.3980(4) 0.2841(3) 0.1660 Uiso
H5 H 0.2299 0.3781 0.2784 0.2490 Uiso
H6 H 0.3067 0.4049 0.2884 0.2490 Uiso
H7 H 0.1877 0.4119 0.2745 0.2490 Uiso
C9 C 0.012(2) 0.3802(4) 0.3004(3) 0.1770 Uiso
H8 H -0.0414 0.3816 0.3120 0.2650 Uiso
H9 H 0.0347 0.3593 0.2981 0.2650 Uiso
H10 H -0.0369 0.3879 0.2895 0.2650 Uiso
C10 C 0.0747(18) 0.4881(4) 0.3450(2) 0.1140 Uiso
H11 H 0.1219 0.4755 0.3545 0.1370 Uiso
C11 C 0.141(2) 0.5200(5) 0.3393(3) 0.1900 Uiso
H12 H 0.1646 0.5307 0.3510 0.2850 Uiso
H13 H 0.0790 0.5319 0.3319 0.2850 Uiso
H14 H 0.2180 0.5164 0.3316 0.2850 Uiso
C12 C -0.054(3) 0.4987(5) 0.3505(4) 0.1960 Uiso
H15 H -0.0780 0.4900 0.3628 0.2940 Uiso
H16 H -0.1170 0.4926 0.3408 0.2940 Uiso
H17 H -0.0534 0.5205 0.3515 0.2940 Uiso
C13 C 0.0491(7) 0.30388(18) 0.31898(11) 0.1007 Uani
H18 H -0.0426 0.3038 0.3189 0.1200 Uiso
C14 C 0.1157(8) 0.2905(2) 0.30427(11) 0.1147 Uani
H19 H 0.0693 0.2811 0.2942 0.1370 Uiso
C15 C 0.2447(7) 0.29046(19) 0.30392(9) 0.0970 Uani
C16 C 0.3136(7) 0.3012(2) 0.31863(11) 0.1357 Uani
H20 H 0.4051 0.3000 0.3189 0.1630 Uiso
C17 C 0.2439(8) 0.3142(3) 0.33331(12) 0.1467 Uani
H21 H 0.2907 0.3216 0.3440 0.1760 Uiso
C18 C 0.3806(10) 0.2519(2) 0.29067(11) 0.1147 Uani
C19 C 0.4583(9) 0.2398(2) 0.27452(12) 0.1173 Uani
C20 C 0.4585(8) 0.2558(2) 0.25800(11) 0.0983 Uani
C21 C 0.3905(10) 0.2809(2) 0.25551(11) 0.1250 Uani
C22 C 0.3093(10) 0.2938(3) 0.27129(12) 0.1370 Uani
C23 C 0.5504(16) 0.2182(3) 0.2786(2) 0.1090 Uiso
H22 H 0.5552 0.2103 0.2912 0.1310 Uiso
C24 C 0.6401(17) 0.2073(3) 0.2642(2) 0.1190 Uiso
H23 H 0.7100 0.1942 0.2668 0.1430 Uiso
O5R O 0.7888(13) 0.1906(3) 0.23179(15) 0.1200 Uiso
O6R O 0.6092(12) 0.2581(2) 0.19321(17) 0.1170 Uiso
N1R N 0.8869(5) 0.18289(15) 0.16643(8) 0.0977 Uani
N2R N 0.6825(6) 0.22203(17) 0.21191(9) 0.1003 Uani
C13R C 0.9509(7) 0.19612(18) 0.18102(11) 0.1007 Uani
H18R H 1.0426 0.1962 0.1811 0.1200 Uiso
C14R C 0.8843(8) 0.2095(2) 0.19573(11) 0.1147 Uani
H19R H 0.9307 0.2189 0.2058 0.1370 Uiso
C15R C 0.7553(7) 0.20954(19) 0.19608(9) 0.0970 Uani
C16R C 0.6864(7) 0.1988(2) 0.18137(11) 0.1357 Uani
H20R H 0.5949 0.2000 0.1811 0.1630 Uiso
C17R C 0.7561(8) 0.1858(3) 0.16669(12) 0.1467 Uani
H21R H 0.7093 0.1784 0.1560 0.1760 Uiso
C18R C 0.6194(10) 0.2481(2) 0.20933(11) 0.1147 Uani
C19R C 0.5417(9) 0.2602(2) 0.22548(12) 0.1173 Uani
C20R C 0.5415(8) 0.2442(2) 0.24200(11) 0.0983 Uani
C21R C 0.6095(10) 0.2191(2) 0.24449(11) 0.1250 Uani
C22R C 0.6907(10) 0.2062(3) 0.22871(12) 0.1370 Uani
C23R C 0.4496(16) 0.2818(3) 0.2214(2) 0.1090 Uiso
H22R H 0.4448 0.2897 0.2088 0.1310 Uiso
C24R C 0.3599(17) 0.2927(3) 0.2358(2) 0.1190 Uiso
H23R H 0.2900 0.3058 0.2332 0.1430 Uiso
Zn1E Zn -0.27107(7) 0.40996(2) 0.353762(11) 0.0992 Uani
P1E P -0.28886(18) 0.33833(6) 0.35230(3) 0.0983 Uani
O1E O -0.3821(4) 0.32010(13) 0.33788(7) 0.1040 Uani
O2E O -0.3340(5) 0.36949(14) 0.35105(7) 0.1087 Uani
O3E O -0.1521(4) 0.33369(13) 0.34591(7) 0.1110 Uani
O4E O -0.3154(4) 0.32497(13) 0.37211(6) 0.1030 Uani
C1E C -0.3364(6) 0.3059(2) 0.32168(9) 0.1117 Uani
C2E C -0.3278(7) 0.31952(17) 0.30388(11) 0.1130 Uani
C3E C -0.2848(7) 0.3033(2) 0.28819(8) 0.1657 Uani
H1E H -0.2789 0.3126 0.2760 0.1990 Uiso
C4E C -0.2505(8) 0.2735(2) 0.29029(14) 0.1857 Uani
H2E H -0.2212 0.2624 0.2796 0.2230 Uiso
C5E C -0.2592(9) 0.25987(17) 0.30810(18) 0.2073 Uani
H3E H -0.2358 0.2395 0.3095 0.2490 Uiso
C6E C -0.3021(7) 0.2761(2) 0.32379(12) 0.1540 Uani
C7E C -0.3704(18) 0.3535(3) 0.3028(3) 0.1150 Uiso
H4E H -0.4171 0.3597 0.3147 0.1370 Uiso
C8E C -0.4717(19) 0.3520(4) 0.2841(3) 0.1660 Uiso
H5E H -0.4799 0.3719 0.2784 0.2490 Uiso
H6E H -0.5567 0.3451 0.2884 0.2490 Uiso
H7E H -0.4377 0.3381 0.2745 0.2490 Uiso
C9E C -0.262(2) 0.3698(4) 0.3004(3) 0.1770 Uiso
H8E H -0.2086 0.3684 0.3120 0.2650 Uiso
H9E H -0.2847 0.3907 0.2981 0.2650 Uiso
H10E H -0.2131 0.3621 0.2895 0.2650 Uiso
C10E C -0.3247(18) 0.2619(4) 0.3450(2) 0.1140 Uiso
H11E H -0.3719 0.2745 0.3545 0.1370 Uiso
C11E C -0.391(2) 0.2300(5) 0.3393(3) 0.1900 Uiso
H12E H -0.4146 0.2193 0.3510 0.2850 Uiso
H13E H -0.3290 0.2181 0.3319 0.2850 Uiso
H14E H -0.4680 0.2336 0.3316 0.2850 Uiso
C12E C -0.196(3) 0.2513(5) 0.3505(4) 0.1960 Uiso
H15E H -0.1720 0.2600 0.3628 0.2940 Uiso
H16E H -0.1330 0.2574 0.3408 0.2940 Uiso
H17E H -0.1966 0.2295 0.3515 0.2940 Uiso
Zn1H Zn 0.02107(7) 0.40996(2) 0.396238(11) 0.0992 Uani
Zn1I Zn -0.27107(7) 0.34004(2) 0.396238(11) 0.0992 Uani
Zn1R Zn 0.97893(7) 0.15996(2) 0.146238(11) 0.0992 Uani
O4H O 0.0654(4) 0.32497(13) 0.37789(6) 0.1030 Uani
O4I O -0.3154(4) 0.42503(13) 0.37789(6) 0.1030 Uani
N1E N -0.3631(5) 0.43289(15) 0.33357(8) 0.0977 Uani
loop_
_atom_site_aniso_label
_atom_site_aniso_U_11
_atom_site_aniso_U_22
_atom_site_aniso_U_33
_atom_site_aniso_U_23
_atom_site_aniso_U_13
_atom_site_aniso_U_12
Zn1 0.0529(6) 0.1694(10) 0.0753(6) -0.0197(5) 0.0072(4) -0.0131(5)
P1 0.0543(12) 0.170(2) 0.0706(13) -0.0025(12) 0.0008(8) -0.0172(12)
O1 0.060(3) 0.170(5) 0.082(3) -0.005(3) 0.005(2) -0.025(3)
O2 0.066(3) 0.158(5) 0.102(4) -0.009(3) 0.008(3) -0.025(3)
O3 0.047 0.19 0.096 0.036 -0.006 -0.017
O4 0.064 0.178 0.067 -0.02 -0.006 0.011
N1 0.054(4) 0.164(6) 0.075(4) -0.023(3) 0.013(3) -0.018(3)
N2 0.087(4) 0.130(6) 0.084(5) -0.008(4) 0.004(3) -0.002(4)
C1 0.076(6) 0.130(7) 0.129(9) 0.005(7) 0.026(5) -0.025(5)
C2 0.118(7) 0.146(8) 0.075(6) -0.017(6) 0.014(5) -0.033(6)
C3 0.145(9) 0.247(16) 0.105(8) 0.032(9) 0.039(7) -0.054(9)
C4 0.259(17) 0.117(9) 0.181(13) 0.020(9) 0.053(11) 0.015(10)
C5 0.266(18) 0.108(9) 0.248(17) -0.014(12) 0.096(15) -0.013(9)
C6 0.113(8) 0.225(15) 0.124(9) 0.029(10) 0.020(6) -0.027(9)
C13 0.066(5) 0.132(6) 0.104(6) -0.025(5) -0.001(4) -0.010(4)
C14 0.090(6) 0.165(8) 0.089(5) -0.031(5) 0.009(4) -0.019(5)
C15 0.071(5) 0.160(7) 0.060(4) -0.023(4) 0.010(4) 0.004(4)
C16 0.057(5) 0.265(11) 0.085(6) -0.061(6) -0.003(4) 0.011(6)
C17 0.069(6) 0.285(13) 0.086(6) -0.070(7) 0.013(4) -0.021(6)
C18 0.146(8) 0.124(7) 0.074(5) 0.001(5) 0.004(5) 0.008(6)
C19 0.142(8) 0.121(7) 0.089(6) 0.009(5) 0.015(5) 0.025(6)
C20 0.083(5) 0.142(7) 0.070(5) -0.018(5) 0.010(4) -0.009(5)
C21 0.167(9) 0.133(7) 0.075(5) 0.015(5) 0.018(5) 0.042(7)
C22 0.141(8) 0.191(11) 0.079(6) 0.015(6) 0.017(5) 0.060(7)
N1R 0.054 0.164 0.075 -0.023 0.013 -0.018
N2R 0.087 0.13 0.084 -0.008 0.004 -0.002
C13R 0.066 0.132 0.104 -0.025 -0.001 -0.01
C14R 0.09 0.165 0.089 -0.031 0.009 -0.019
C15R 0.071 0.16 0.06 -0.023 0.01 0.004
C16R 0.057 0.265 0.085 -0.061 -0.003 0.011
C17R 0.069 0.285 0.086 -0.07 0.013 -0.021
C18R 0.146 0.124 0.074 0.001 0.004 0.008
C19R 0.142 0.121 0.089 0.009 0.015 0.025
C20R 0.083 0.142 0.07 -0.018 0.01 -0.009
C21R 0.167 0.133 0.075 0.015 0.018 0.042
C22R 0.141 0.191 0.079 0.015 0.017 0.06
Zn1E 0.0529 0.1694 0.0753 0.0197 -0.0072 -0.0131
P1E 0.0543 0.17 0.0706 0.0025 -0.0008 -0.0172
O1E 0.06 0.17 0.082 0.005 -0.005 -0.025
O2E 0.066 0.158 0.102 0.009 -0.008 -0.025
O3E 0.047 0.19 0.096 -0.036 0.006 -0.017
O4E 0.064 0.178 0.067 0.02 0.006 0.011
C1E 0.076 0.13 0.129 -0.005 -0.026 -0.025
C2E 0.118 0.146 0.075 0.017 -0.014 -0.033
C3E 0.145 0.247 0.105 -0.032 -0.039 -0.054
C4E 0.259 0.117 0.181 -0.02 -0.053 0.015
C5E 0.266 0.108 0.248 0.014 -0.096 -0.013
C6E 0.113 0.225 0.124 -0.029 -0.02 -0.027
Zn1H 0.0529 0.1694 0.0753 -0.0197 -0.0072 0.0131
Zn1I 0.0529 0.1694 0.0753 0.0197 0.0072 0.0131
Zn1R 0.0529 0.1694 0.0753 -0.0197 0.0072 -0.0131
O4H 0.064 0.178 0.067 -0.02 0.006 -0.011
O4I 0.064 0.178 0.067 0.02 -0.006 -0.011
N1E 0.054 0.164 0.075 0.023 -0.013 -0.018
loop_
_geom_bond_atom_site_label_1
_geom_bond_atom_site_label_2
_geom_bond_site_symmetry_1
_geom_bond_site_symmetry_2
Zn1 O2 1_555 1_555
P1 O1 1_555 1_555
O1 C1 1_555 1_555
O2 P1 1_555 1_555
O3 P1 1_555 1_555
O4 P1 1_555 1_555
O5 C22 1_555 1_555
O6 C18 1_555 1_555
N1 Zn1 1_555 1_555
N2 C15 1_555 1_555
C1 C2 1_555 1_555
C2 C3 1_555 1_555
C3 H1 1_555 1_555
C4 C3 1_555 1_555
H2 C4 1_555 1_555
C5 C4 1_555 1_555
H3 C5 1_555 1_555
C6 C1 1_555 1_555
C7 C2 1_555 1_555
H4 C7 1_555 1_555
C8 C7 1_555 1_555
H5 C8 1_555 1_555
H6 C8 1_555 1_555
H7 C8 1_555 1_555
C9 C7 1_555 1_555
H8 C9 1_555 1_555
H9 C9 1_555 1_555
H10 C9 1_555 1_555
C10 C6 1_555 1_555
H11 C10 1_555 1_555
C11 C10 1_555 1_555
H12 C11 1_555 1_555
H13 C11 1_555 1_555
H14 C11 1_555 1_555
C12 C10 1_555 1_555
H15 C12 1_555 1_555
H16 C12 1_555 1_555
H17 C12 1_555 1_555
C13 N1 1_555 1_555
H18 C13 1_555 1_555
C14 C13 1_555 1_555
H19 C14 1_555 1_555
C15 C14 1_555 1_555
C16 C15 1_555 1_555
H20 C16 1_555 1_555
C17 N1 1_555 1_555
H21 C17 1_555 1_555
C18 N2 1_555 1_555
C19 C18 1_555 1_555
C20 C19 1_555 1_555
C21 C20 1_555 1_555
C22 N2 1_555 1_555
C23 C19 1_555 1_555
H22 C23 1_555 1_555
C24 C23 1_555 1_555
H23 C24 1_555 1_555
O5R C22R 1_555 1_555
O6R C18R 1_555 1_555
N1R C13R 1_555 1_555
N2R C15R 1_555 1_555
C13R H18R 1_555 1_555
C14R C13R 1_555 1_555
H19R C14R 1_555 1_555
C15R C14R 1_555 1_555
C16R C15R 1_555 1_555
H20R C16R 1_555 1_555
C17R N1R 1_555 1_555
H21R C17R 1_555 1_555
C18R N2R 1_555 1_555
C19R C18R 1_555 1_555
C20R C20 1_555 1_555
C21R C24 1_555 1_555
C22R N2R 1_555 1_555
C23R C19R 1_555 1_555
H22R C23R 1_555 1_555
C24R C21 1_555 1_555
H23R C24R 1_555 1_555
Zn1E O3 1_555 1_555
P1E O1E 1_555 1_555
O1E C1E 1_555 1_555
O2E Zn1E 1_555 1_555
O3E Zn1 1_555 1_555
O4E P1E 1_555 1_555
C1E C2E 1_555 1_555
C2E C3E 1_555 1_555
C3E H1E 1_555 1_555
C4E C3E 1_555 1_555
H2E C4E 1_555 1_555
C5E C4E 1_555 1_555
H3E C5E 1_555 1_555
C6E C1E 1_555 1_555
C7E C2E 1_555 1_555
H4E C7E 1_555 1_555
C8E C7E 1_555 1_555
H5E C8E 1_555 1_555
H6E C8E 1_555 1_555
H7E C8E 1_555 1_555
C9E C7E 1_555 1_555
H8E C9E 1_555 1_555
H9E C9E 1_555 1_555
H10E C9E 1_555 1_555
C10E C6E 1_555 1_555
H11E C10E 1_555 1_555
C11E C10E 1_555 1_555
H12E C11E 1_555 1_555
H13E C11E 1_555 1_555
H14E C11E 1_555 1_555
C12E C10E 1_555 1_555
H15E C12E 1_555 1_555
H16E C12E 1_555 1_555
H17E C12E 1_555 1_555
Zn1H O4 1_555 1_555
Zn1I O4E 1_555 1_555
Zn1R N1R 1_555 1_555
O4H Zn1 1_555 1_555
O4I Zn1E 1_555 1_555
N1E Zn1E 1_555 1_555
C5 C6 1_555 1_555
C16 C17 1_555 1_555
C21 C22 1_555 1_555
C16R C17R 1_555 1_555
C19R C20R 1_555 1_555
C20R C21R 1_555 1_555
C21R C22R 1_555 1_555
C23R C24R 1_555 1_555
P1E O2E 1_555 1_555
P1E O3E 1_555 1_555
C5E C6E 1_555 1_555

#END
