
#######################################################################
#
#                 Cambridge Crystallographic Data Centre
#                                CCDC 
#
#######################################################################
#
# If this CIF has been generated from an entry in the Cambridge 
# Structural Database, then it will include bibliographic, chemical, 
# crystal, experimental, refinement or atomic coordinate data resulting 
# from the CCDC's data processing and validation procedures.
#
#######################################################################

data_GULCAS
_chemical_formula_moiety         '(C4 H22 F2 Fe3 N3 O14 P4)n'
_symmetry_cell_setting           monoclinic
_symmetry_space_group_name_H-M   'C 2/c'
_symmetry_Int_Tables_number      15
_space_group_name_Hall           '-C 2yc'
loop_
_symmetry_equiv_pos_site_id
_symmetry_equiv_pos_as_xyz
1 x,y,z
2 -x,y,1/2-z
3 1/2+x,1/2+y,z
4 1/2-x,1/2+y,1/2-z
5 -x,-y,-z
6 x,-y,1/2+z
7 1/2-x,1/2-y,-z
8 1/2+x,1/2-y,1/2+z
_cell_length_a                   12.877(3)
_cell_length_b                   12.170(2)
_cell_length_c                   12.159(2)
_cell_angle_alpha                90
_cell_angle_beta                 93.99(3)
_cell_angle_gamma                90
_cell_volume                     1900.86
loop_
_atom_site_label
_atom_site_type_symbol
_atom_site_fract_x
_atom_site_fract_y
_atom_site_fract_z
_atom_site_U_iso_or_equiv
_atom_site_thermal_displace_type
Fe1 Fe 0.24894(5) 0.04067(6) 0.20273(5) 0.0153 Uani
Fe2 Fe 0.0000 -0.08843(8) 0.2500 0.0153 Uani
P1 P 0.20235(10) -0.22465(10) 0.17633(10) 0.0170 Uani
H1 H 0.202(7) -0.279(7) 0.075(7) 0.0800 Uiso
P2 P -0.17511(9) -0.02111(10) 0.05590(10) 0.0159 Uani
H2 H -0.135(7) 0.074(7) 0.025(7) 0.0800 Uiso
F1 F 0.0938(2) 0.0283(2) 0.2020(2) 0.0189 Uani
O1 O 0.2647(3) -0.1195(3) 0.1660(3) 0.0259 Uani
O2 O -0.2262(3) -0.0819(3) -0.0430(3) 0.0195 Uani
O3 O 0.2530(3) -0.2988(3) 0.2650(3) 0.0246 Uani
O4 O -0.2560(3) 0.0059(3) 0.1373(3) 0.0287 Uani
O5 O 0.3963(2) 0.0448(3) 0.1984(3) 0.0171 Uani
H3 H 0.406(7) 0.099(4) 0.160(5) 0.0800 Uiso
H4 H 0.395(7) -0.015(3) 0.169(6) 0.0800 Uiso
O6 O 0.0877(3) -0.2033(3) 0.1888(3) 0.0251 Uani
O7 O -0.0824(3) -0.0867(3) 0.1056(3) 0.0230 Uani
Fe1A Fe -0.24894(5) 0.04067(6) 0.29727(5) 0.0153 Uani
Fe1D Fe -0.24894(5) -0.04067(6) -0.20273(5) 0.0153 Uani
Fe1C Fe 0.25106(5) -0.45933(6) 0.29727(5) 0.0153 Uani
Fe1B Fe -0.25106(5) -0.45933(6) 0.20273(5) 0.0153 Uani
Fe1E Fe 0.24894(5) -0.04067(6) 0.70273(5) 0.0153 Uani
P1A P -0.20235(10) -0.22465(10) 0.32367(10) 0.0170 Uani
H1A H -0.202(7) -0.279(7) 0.425(7) 0.0800 Uiso
P2A P 0.17511(9) -0.02111(10) 0.44410(10) 0.0159 Uani
H2A H 0.135(7) 0.074(7) 0.475(7) 0.0800 Uiso
F1A F -0.0938(2) 0.0283(2) 0.2980(2) 0.0189 Uani
O1A O -0.2647(3) -0.1195(3) 0.3340(3) 0.0259 Uani
O2A O 0.2262(3) -0.0819(3) 0.5430(3) 0.0195 Uani
O2D O 0.2262(3) 0.0819(3) 0.0430(3) 0.0195 Uani
O2E O -0.2262(3) 0.0819(3) 0.4570(3) 0.0195 Uani
O3A O -0.2530(3) -0.2988(3) 0.2350(3) 0.0246 Uani
O3C O 0.2470(3) 0.2012(3) 0.2350(3) 0.0246 Uani
O3B O -0.2470(3) 0.2012(3) 0.2650(3) 0.0246 Uani
O4A O 0.2560(3) 0.0059(3) 0.3627(3) 0.0287 Uani
O5A O -0.3963(2) 0.0448(3) 0.3016(3) 0.0171 Uani
H3A H -0.406(7) 0.099(4) 0.340(5) 0.0800 Uiso
H4A H -0.395(7) -0.015(3) 0.331(6) 0.0800 Uiso
O6A O -0.0877(3) -0.2033(3) 0.3112(3) 0.0251 Uani
O7A O 0.0824(3) -0.0867(3) 0.3944(3) 0.0230 Uani
N1 N 0.4280(4) 0.1911(4) 0.0407(5) 0.0367 Uani
H5 H 0.362(2) 0.198(6) 0.015(7) 0.0800 Uiso
H6 H 0.458(5) 0.253(4) 0.065(7) 0.0800 Uiso
N2 N 0.5000 0.1485(5) -0.2500 0.0288 Uani
H7 H 0.4443 0.1047 -0.2641 0.0800 Uiso
C1 C 0.4769(5) 0.1378(5) -0.0528(5) 0.0327 Uani
H8 H 0.4366 0.0734 -0.0757 0.0800 Uiso
H9 H 0.5464 0.1135 -0.0280 0.0800 Uiso
C2 C 0.4838(5) 0.2132(5) -0.1500(5) 0.0295 Uani
H10 H 0.4201 0.2555 -0.1610 0.0800 Uiso
H11 H 0.5411 0.2641 -0.1359 0.0800 Uiso
N1A N 0.5720(4) 0.1911(4) -0.5407(5) 0.0367 Uani
H5A H 0.638(2) 0.198(6) -0.515(7) 0.0800 Uiso
H6A H 0.542(5) 0.253(4) -0.565(7) 0.0800 Uiso
H7A H 0.5557 0.1047 -0.2359 0.0800 Uiso
C1A C 0.5231(5) 0.1378(5) -0.4472(5) 0.0327 Uani
H8A H 0.5634 0.0734 -0.4243 0.0800 Uiso
H9A H 0.4536 0.1135 -0.4720 0.0800 Uiso
C2A C 0.5162(5) 0.2132(5) -0.3500(5) 0.0295 Uani
H10A H 0.5799 0.2555 -0.3390 0.0800 Uiso
H11A H 0.4589 0.2641 -0.3641 0.0800 Uiso
loop_
_atom_site_aniso_label
_atom_site_aniso_U_11
_atom_site_aniso_U_22
_atom_site_aniso_U_33
_atom_site_aniso_U_23
_atom_site_aniso_U_13
_atom_site_aniso_U_12
Fe1 0.0139(3) 0.0174(4) 0.0144(4) -0.0003(3) -0.0012(3) -0.0004(3)
Fe2 0.0134(5) 0.0146(5) 0.0175(5) 0.000 -0.0023(4) 0.000
P1 0.0204(6) 0.0138(6) 0.0167(6) 0.0001(5) 0.0008(5) 0.0047(5)
P2 0.0177 0.016 0.0135 -0.0003 -0.0028 0.0008
F1 0.0166(13) 0.0183(14) 0.0216(14) 0.0035(11) -0.0003(11) 0.0017(11)
O1 0.0244(18) 0.0188(18) 0.035(2) 0.0019(16) 0.0051(16) 0.0036(15)
O2 0.0207 0.0219 0.0152 -0.0013 -0.0035 -0.0039
O3 0.026 0.0198 0.0276 0.0079 -0.0016 0.0059
O4 0.024 0.044 0.018 -0.006 0.0011 0.0096
O5 0.0043(13) 0.0239(18) 0.0232(17) -0.0003(14) 0.0010(13) -0.0024(13)
O6 0.0203(18) 0.0194(18) 0.035(2) -0.0036(16) -0.0013(16) 0.0053(14)
O7 0.0188 0.0268 0.0222 -0.005 -0.007 0.0074
Fe1A 0.0139 0.0174 0.0144 0.0003 -0.0012 0.0004
Fe1D 0.0139 0.0174 0.0144 -0.0003 -0.0012 -0.0004
Fe1C 0.0139 0.0174 0.0144 0.0003 -0.0012 0.0004
Fe1B 0.0139 0.0174 0.0144 -0.0003 -0.0012 -0.0004
Fe1E 0.0139 0.0174 0.0144 0.0003 -0.0012 0.0004
P1A 0.0204 0.0138 0.0167 -0.0001 0.0008 -0.0047
P2A 0.0177 0.016 0.0135 0.0003 -0.0028 -0.0008
F1A 0.0166 0.0183 0.0216 -0.0035 -0.0003 -0.0017
O1A 0.0244 0.0188 0.035 -0.0019 0.0051 -0.0036
O2A 0.0207 0.0219 0.0152 0.0013 -0.0035 0.0039
O2D 0.0207(17) 0.0219(18) 0.0152(16) -0.0013(14) -0.0035(14) -0.0039(14)
O2E 0.0207 0.0219 0.0152 0.0013 -0.0035 0.0039
O3A 0.026 0.0198 0.0276 -0.0079 -0.0016 -0.0059
O3C 0.026 0.0198 0.0276 -0.0079 -0.0016 -0.0059
O3B 0.026 0.0198 0.0276 0.0079 -0.0016 0.0059
O4A 0.024 0.044 0.018 0.006 0.0011 -0.0096
O5A 0.0043 0.0239 0.0232 0.0003 0.001 0.0024
O6A 0.0203 0.0194 0.035 0.0036 -0.0013 -0.0053
O7A 0.0188 0.0268 0.0222 0.005 -0.007 -0.0074
N1 0.036(3) 0.035(3) 0.040(3) -0.018(2) 0.009(2) -0.010(2)
N2 0.035(4) 0.025(3) 0.027(3) 0.000 0.007(3) 0.000
C1 0.040(3) 0.023(3) 0.036(3) -0.007(2) 0.009(3) -0.003(2)
C2 0.038(3) 0.022(3) 0.028(3) -0.001(2) -0.002(2) 0.002(2)
N1A 0.036 0.035 0.04 0.018 0.009 0.01
C1A 0.04 0.023 0.036 0.007 0.009 0.003
C2A 0.038 0.022 0.028 0.001 -0.002 -0.002
loop_
_geom_bond_atom_site_label_1
_geom_bond_atom_site_label_2
_geom_bond_site_symmetry_1
_geom_bond_site_symmetry_2
Fe1 F1 1_555 1_555
Fe2 F1 1_555 1_555
P1 H1 1_555 1_555
P2 H2 1_555 1_555
O1 Fe1 1_555 1_555
O2 P2 1_555 1_555
O3 P1 1_555 1_555
O4 P2 1_555 1_555
O5 Fe1 1_555 1_555
H3 O5 1_555 1_555
H4 O5 1_555 1_555
O6 Fe2 1_555 1_555
O7 Fe2 1_555 1_555
N1 H5 1_555 1_555
H6 N1 1_555 1_555
N2 H7 1_555 1_555
C1 N1 1_555 1_555
H8 C1 1_555 1_555
H9 C1 1_555 1_555
C2 N2 1_555 1_555
H10 C2 1_555 1_555
H11 C2 1_555 1_555
Fe1A O4 1_555 1_555
Fe1D O2 1_555 1_555
Fe1C O3 1_555 1_555
Fe1B O3A 1_555 1_555
Fe1E O2A 1_555 1_555
P1A H1A 1_555 1_555
P2A H2A 1_555 1_555
F1A Fe2 1_555 1_555
O1A Fe1A 1_555 1_555
O2A P2A 1_555 1_555
O2D Fe1 1_555 1_555
O2E Fe1A 1_555 1_555
O3A P1A 1_555 1_555
O3C Fe1 1_555 1_555
O3B Fe1A 1_555 1_555
O4A Fe1 1_555 1_555
O5A Fe1A 1_555 1_555
H3A O5A 1_555 1_555
H4A O5A 1_555 1_555
O6A Fe2 1_555 1_555
O7A Fe2 1_555 1_555
N1A H5A 1_555 1_555
H6A N1A 1_555 1_555
H7A N2 1_555 1_555
C1A N1A 1_555 1_555
H8A C1A 1_555 1_555
H9A C1A 1_555 1_555
C2A N2 1_555 1_555
H10A C2A 1_555 1_555
H11A C2A 1_555 1_555
P1 O1 1_555 1_555
P1 O6 1_555 1_555
P2 O7 1_555 1_555
C1 C2 1_555 1_555
Fe1A F1A 1_555 1_555
P1A O1A 1_555 1_555
P1A O6A 1_555 1_555
P2A O4A 1_555 1_555
P2A O7A 1_555 1_555
C1A C2A 1_555 1_555

#END
