
#######################################################################
#
#                 Cambridge Crystallographic Data Centre
#                                CCDC 
#
#######################################################################
#
# If this CIF has been generated from an entry in the Cambridge 
# Structural Database, then it will include bibliographic, chemical, 
# crystal, experimental, refinement or atomic coordinate data resulting 
# from the CCDC's data processing and validation procedures.
#
#######################################################################

data_FOVPEN
_chemical_formula_moiety         '(C64 H70 Ag3 Cl2 F9 N12 O19 S3 1+)n'
_symmetry_cell_setting           monoclinic
_symmetry_space_group_name_H-M   'C 2/c'
_symmetry_Int_Tables_number      15
_space_group_name_Hall           '-C 2yc'
loop_
_symmetry_equiv_pos_site_id
_symmetry_equiv_pos_as_xyz
1 x,y,z
2 -x,y,1/2-z
3 1/2+x,1/2+y,z
4 1/2-x,1/2+y,1/2-z
5 -x,-y,-z
6 x,-y,1/2+z
7 1/2-x,1/2-y,-z
8 1/2+x,1/2-y,1/2+z
_cell_length_a                   30.0954(4)
_cell_length_b                   15.5048(2)
_cell_length_c                   35.4843(5)
_cell_angle_alpha                90
_cell_angle_beta                 107.1850(10)
_cell_angle_gamma                90
_cell_volume                     15818.6
loop_
_atom_site_label
_atom_site_type_symbol
_atom_site_fract_x
_atom_site_fract_y
_atom_site_fract_z
Cl1 Cl 0.53152(18) 0.6211(4) 0.19200(18)
Cl2 Cl 0.43369(16) 0.6328(3) 0.18840(14)
C61 C 0.4737(10) 0.5943(19) 0.1720(11)
H61 H 0.4653 0.6091 0.1437
H62 H 0.4718 0.5307 0.1736
F1 F -0.0273(3) 0.3267(5) 0.1464(2)
F2 F -0.0150(4) 0.4446(6) 0.1181(3)
F3 F 0.0332(3) 0.3392(9) 0.1258(4)
S1 S -0.04599(9) 0.31245(15) 0.06953(8)
O7 O -0.0384(5) 0.2236(6) 0.0750(7)
O8 O -0.0915(3) 0.3447(6) 0.0660(2)
O9 O -0.0227(4) 0.3529(6) 0.0475(3)
C62 C -0.0123(5) 0.3579(10) 0.1200(6)
F4 F 0.4601(3) 0.2150(5) 0.21293(19)
F5 F 0.4484(2) 0.1421(4) 0.1599(2)
F6 F 0.5098(2) 0.2175(4) 0.1811(2)
S2 S 0.43498(8) 0.30802(14) 0.14949(6)
O10 O 0.3874(2) 0.2940(4) 0.1490(2)
O11 O 0.4566(2) 0.3806(4) 0.1714(2)
O12 O 0.4414(3) 0.2962(4) 0.11180(19)
C63 C 0.4650(3) 0.2160(6) 0.1774(3)
F7 F 0.7160(3) 1.8272(5) 0.2224(3)
F8 F 0.7136(3) 1.8454(7) 0.2873(3)
F9 F 0.7388(4) 1.7112(7) 0.2676(3)
S3 S 0.71140(10) 1.78565(17) 0.25590(7)
O13 O 0.6438(3) 1.7129(5) 0.2741(2)
O14 O 0.6494(4) 1.6832(8) 0.2175(3)
O15 O 0.6238(3) 1.8050(9) 0.2301(4)
C64 C 0.6526(6) 1.7506(11) 0.2437(4)
O16 O 0.2856(2) 0.4205(5) 0.3468(2)
H63 H 0.2847 0.3736 0.3584
H64 H 0.3058 0.4174 0.3347
O17 O 0.2359(3) 0.6546(4) 0.1525(2)
H65 H 0.2476 0.6457 0.1341
H66 H 0.2508 0.6939 0.1672
O18 O -0.0439(4) -0.5627(13) 0.2489(3)
H67 H -0.0329 -0.6128 0.2526
H68 H -0.0298 -0.5341 0.2359
O19 O -0.3941(6) 0.0498(12) -0.3714(5)
H69 H -0.3703 0.0464 -0.3517
H70 H -0.4011 0.0005 -0.3811
Ag1 Ag -0.23177(2) -0.53669(4) 0.026717(18)
Ag2 Ag 0.01351(2) 0.21643(4) 0.010187(19)
Ag3 Ag 0.27057(2) 0.48875(5) 0.27237(2)
O1 O -0.1997(2) -0.3597(4) 0.00977(17)
O2 O -0.2290(2) -0.0218(4) -0.09366(18)
O3 O -0.08164(19) 0.0392(3) 0.00496(18)
O4 O 0.0745(2) 0.3471(4) 0.0188(2)
O5 O 0.2096(2) 0.7317(3) 0.06755(18)
O6 O 0.2343(2) 0.3398(3) 0.11451(17)
N1 N -0.1859(2) -0.5816(4) 0.08135(18)
N2 N -0.1441(2) -0.3160(4) 0.06352(19)
H1 H -0.1220 -0.2785 0.0741
N3 N -0.2945(2) -0.0596(5) -0.2414(2)
N4 N -0.2451(2) -0.1601(4) -0.1123(2)
H2 H -0.2379 -0.2143 -0.1061
N5 N 0.0621(2) 0.1626(4) 0.06466(18)
N6 N -0.0506(2) -0.0501(4) 0.05555(19)
H3 H -0.0511 -0.1011 0.0663
N7 N -0.0392(2) 0.2358(4) -0.04765(19)
N8 N 0.0485(2) 0.4619(4) -0.01993(18)
H4 H 0.0543 0.5134 -0.0279
N9 N 0.2167(2) 0.9815(4) -0.02892(18)
N10 N 0.1592(2) 0.7268(4) 0.0064(2)
H5 H 0.1410 0.6934 -0.0118
N11 N 0.3391(2) 0.4452(4) 0.27185(19)
N12 N 0.2557(2) 0.4656(4) 0.14610(19)
H6 H 0.2513 0.5217 0.1460
C1 C -0.2013(3) -0.6471(5) 0.0991(2)
H7 H -0.2297 -0.6744 0.0854
C2 C -0.1776(3) -0.6764(6) 0.1363(3)
H8 H -0.1888 -0.7244 0.1475
C3 C -0.1376(3) -0.6346(6) 0.1569(3)
H9 H -0.1212 -0.6518 0.1830
C4 C -0.1216(3) -0.5678(6) 0.1393(3)
H10 H -0.0941 -0.5381 0.1532
C5 C -0.1459(3) -0.5432(5) 0.1009(2)
C6 C -0.1299(3) -0.4702(5) 0.0802(2)
H11 H -0.1384 -0.4822 0.0515
H12 H -0.0956 -0.4648 0.0902
C7 C -0.1524(3) -0.3871(5) 0.0873(2)
H13 H -0.1863 -0.3962 0.0813
H14 H -0.1401 -0.3715 0.1156
C8 C -0.1693(3) -0.3069(5) 0.0261(2)
C9 C -0.1602(3) -0.2276(4) 0.0049(2)
C10 C -0.1238(3) -0.1726(4) 0.0213(2)
H15 H -0.1013 -0.1881 0.0453
C11 C -0.3286(4) -0.0344(8) -0.2737(3)
H16 H -0.3237 0.0151 -0.2878
C12 C -0.3700(4) -0.0781(9) -0.2869(4)
H17 H -0.3937 -0.0585 -0.3094
C13 C -0.3765(4) -0.1496(10) -0.2671(4)
H18 H -0.4049 -0.1810 -0.2758
C14 C -0.3413(3) -0.1769(7) -0.2338(3)
H19 H -0.3453 -0.2271 -0.2198
C15 C -0.3010(3) -0.1302(6) -0.2216(2)
C16 C -0.2635(3) -0.1542(6) -0.1851(2)
H20 H -0.2358 -0.1177 -0.1825
H21 H -0.2544 -0.2152 -0.1867
C17 C -0.2808(3) -0.1418(6) -0.1492(2)
H22 H -0.2916 -0.0816 -0.1487
H23 H -0.3077 -0.1803 -0.1515
C18 C -0.2225(3) -0.0993(5) -0.0874(2)
C19 C -0.1883(3) -0.1293(4) -0.0495(2)
C20 C -0.1921(3) -0.2067(4) -0.0308(2)
H24 H -0.2169 -0.2453 -0.0426
C21 C 0.0956(3) 0.2156(5) 0.0866(2)
H25 H 0.0966 0.2737 0.0784
C22 C 0.1278(3) 0.1884(6) 0.1196(3)
H26 H 0.1509 0.2273 0.1342
C23 C 0.1275(3) 0.1060(6) 0.1322(3)
H27 H 0.1502 0.0864 0.1553
C24 C 0.0936(3) 0.0516(6) 0.1105(3)
H28 H 0.0926 -0.0066 0.1186
C25 C 0.0609(3) 0.0812(5) 0.0769(2)
C26 C 0.0219(3) 0.0240(5) 0.0542(2)
H29 H 0.0346 -0.0333 0.0507
H30 H 0.0077 0.0490 0.0277
C27 C -0.0153(3) 0.0131(5) 0.0748(2)
H31 H -0.0004 -0.0051 0.1024
H32 H -0.0305 0.0695 0.0754
C28 C -0.0817(3) -0.0303(5) 0.0218(2)
C29 C -0.1196(3) -0.0953(5) 0.0035(2)
C30 C -0.1526(3) -0.0734(5) -0.0318(2)
H33 H -0.1506 -0.0195 -0.0439
C31 C -0.0793(3) 0.1920(5) -0.0544(2)
H34 H -0.0828 0.1536 -0.0346
C32 C -0.1156(3) 0.2000(5) -0.0886(3)
H35 H -0.1429 0.1660 -0.0929
C33 C -0.1113(3) 0.2575(6) -0.1162(3)
H36 H -0.1361 0.2660 -0.1397
C34 C -0.0700(3) 0.3042(6) -0.1095(2)
H37 H -0.0663 0.3440 -0.1287
C35 C -0.0349(3) 0.2928(5) -0.0754(2)
C36 C 0.0092(3) 0.3449(5) -0.0654(2)
H38 H 0.0144 0.3674 -0.0898
H39 H 0.0360 0.3082 -0.0517
C37 C 0.0047(3) 0.4198(5) -0.0387(2)
H40 H -0.0173 0.4627 -0.0546
H41 H -0.0085 0.3978 -0.0181
C38 C 0.0803(3) 0.4224(5) 0.0096(2)
C39 C 0.1235(3) 0.4712(4) 0.0316(2)
C40 C 0.1306(3) 0.5575(5) 0.0250(2)
H42 H 0.1076 0.5886 0.0056
C41 C 0.2109(3) 1.0605(5) -0.0464(2)
H43 H 0.2304 1.1063 -0.0334
C42 C 0.1790(3) 1.0773(5) -0.0811(2)
H44 H 0.1760 1.1336 -0.0921
C43 C 0.1505(3) 1.0109(5) -0.1005(2)
H45 H 0.1277 1.0209 -0.1251
C44 C 0.1558(3) 0.9305(5) -0.0837(3)
H46 H 0.1364 0.8843 -0.0965
C45 C 0.1894(3) 0.9167(5) -0.0479(2)
C46 C 0.1946(3) 0.8279(5) -0.0295(3)
H47 H 0.2273 0.8189 -0.0136
H48 H 0.1867 0.7837 -0.0506
C47 C 0.1630(3) 0.8177(5) -0.0035(3)
H49 H 0.1757 0.8514 0.0211
H50 H 0.1318 0.8407 -0.0174
C48 C 0.1815(3) 0.6915(5) 0.0410(2)
C49 C 0.1713(3) 0.5988(4) 0.0465(2)
C50 C 0.2037(3) 0.5530(4) 0.0750(2)
H51 H 0.2318 0.5805 0.0895
C51 C 0.3678(3) 0.4079(6) 0.3041(2)
H52 H 0.3570 0.3996 0.3264
C52 C 0.4117(3) 0.3814(6) 0.3063(3)
H53 H 0.4314 0.3567 0.3298
C53 C 0.4270(3) 0.3916(6) 0.2729(3)
H54 H 0.4569 0.3719 0.2729
C54 C 0.3983(3) 0.4299(6) 0.2405(3)
H55 H 0.4083 0.4384 0.2178
C55 C 0.3542(3) 0.4570(5) 0.2405(2)
C56 C 0.3212(3) 0.4965(5) 0.2042(2)
H56 H 0.3391 0.5261 0.1886
H57 H 0.3015 0.5399 0.2121
C57 C 0.2906(3) 0.4267(5) 0.1792(2)
H58 H 0.3101 0.3864 0.1693
H59 H 0.2751 0.3935 0.1956
C58 C 0.2302(3) 0.4186(5) 0.1157(2)
C59 C 0.1964(2) 0.4677(5) 0.0830(2)
C60 C 0.1563(3) 0.4268(5) 0.0604(2)
H60 H 0.1516 0.3675 0.0647
Ag1B Ag 0.26823(2) 0.96331(4) 0.026717(18)
Ag3G Ag -0.22943(2) 0.01125(5) -0.22763(2)
N3G N 0.2055(2) 0.5596(5) 0.2586(2)
N9B N -0.2833(2) -0.5185(4) -0.02892(18)
loop_
_geom_bond_atom_site_label_1
_geom_bond_atom_site_label_2
_geom_bond_site_symmetry_1
_geom_bond_site_symmetry_2
Ag1 N1 1_555 1_555
Ag2 O4 1_555 1_555
Ag3 N11 1_555 1_555
O1 C8 1_555 1_555
O2 C18 1_555 1_555
O3 C28 1_555 1_555
O4 C38 1_555 1_555
O5 C48 1_555 1_555
O6 C58 1_555 1_555
N1 C1 1_555 1_555
N2 H1 1_555 1_555
N3 C11 1_555 1_555
N4 H2 1_555 1_555
N5 Ag2 1_555 1_555
N6 H3 1_555 1_555
N7 Ag2 1_555 1_555
N8 H4 1_555 1_555
N9 C41 1_555 1_555
N10 H5 1_555 1_555
N11 C51 1_555 1_555
N12 H6 1_555 1_555
C1 H7 1_555 1_555
C2 C1 1_555 1_555
H8 C2 1_555 1_555
C3 C2 1_555 1_555
H9 C3 1_555 1_555
C4 C3 1_555 1_555
H10 C4 1_555 1_555
C5 N1 1_555 1_555
C6 C5 1_555 1_555
H11 C6 1_555 1_555
H12 C6 1_555 1_555
C7 N2 1_555 1_555
H13 C7 1_555 1_555
H14 C7 1_555 1_555
C8 N2 1_555 1_555
C9 C8 1_555 1_555
C10 C9 1_555 1_555
H15 C10 1_555 1_555
C11 H16 1_555 1_555
C12 C11 1_555 1_555
H17 C12 1_555 1_555
C13 C12 1_555 1_555
H18 C13 1_555 1_555
C14 C13 1_555 1_555
H19 C14 1_555 1_555
C15 N3 1_555 1_555
C16 C15 1_555 1_555
H20 C16 1_555 1_555
H21 C16 1_555 1_555
C17 N4 1_555 1_555
H22 C17 1_555 1_555
H23 C17 1_555 1_555
C18 N4 1_555 1_555
C19 C18 1_555 1_555
C20 C9 1_555 1_555
H24 C20 1_555 1_555
C21 N5 1_555 1_555
H25 C21 1_555 1_555
C22 C21 1_555 1_555
H26 C22 1_555 1_555
C23 C22 1_555 1_555
H27 C23 1_555 1_555
C24 C23 1_555 1_555
H28 C24 1_555 1_555
C25 N5 1_555 1_555
C26 C25 1_555 1_555
H29 C26 1_555 1_555
H30 C26 1_555 1_555
C27 N6 1_555 1_555
H31 C27 1_555 1_555
H32 C27 1_555 1_555
C28 N6 1_555 1_555
C29 C10 1_555 1_555
C30 C19 1_555 1_555
H33 C30 1_555 1_555
C31 N7 1_555 1_555
H34 C31 1_555 1_555
C32 C31 1_555 1_555
H35 C32 1_555 1_555
C33 C32 1_555 1_555
H36 C33 1_555 1_555
C34 C33 1_555 1_555
H37 C34 1_555 1_555
C35 N7 1_555 1_555
C36 C35 1_555 1_555
H38 C36 1_555 1_555
H39 C36 1_555 1_555
C37 N8 1_555 1_555
H40 C37 1_555 1_555
H41 C37 1_555 1_555
C38 N8 1_555 1_555
C39 C38 1_555 1_555
C40 C39 1_555 1_555
H42 C40 1_555 1_555
C41 H43 1_555 1_555
C42 C41 1_555 1_555
H44 C42 1_555 1_555
C43 C42 1_555 1_555
H45 C43 1_555 1_555
C44 C43 1_555 1_555
H46 C44 1_555 1_555
C45 N9 1_555 1_555
C46 C45 1_555 1_555
H47 C46 1_555 1_555
H48 C46 1_555 1_555
C47 N10 1_555 1_555
H49 C47 1_555 1_555
H50 C47 1_555 1_555
C48 N10 1_555 1_555
C49 C40 1_555 1_555
C50 C49 1_555 1_555
H51 C50 1_555 1_555
C51 H52 1_555 1_555
C52 C51 1_555 1_555
H53 C52 1_555 1_555
C53 C52 1_555 1_555
H54 C53 1_555 1_555
C54 C53 1_555 1_555
H55 C54 1_555 1_555
C55 N11 1_555 1_555
C56 C55 1_555 1_555
H56 C56 1_555 1_555
H57 C56 1_555 1_555
C57 N12 1_555 1_555
H58 C57 1_555 1_555
H59 C57 1_555 1_555
C58 N12 1_555 1_555
C59 C50 1_555 1_555
C60 C39 1_555 1_555
H60 C60 1_555 1_555
Cl1 C61 1_555 1_555
Cl2 C61 1_555 1_555
C61 H61 1_555 1_555
H62 C61 1_555 1_555
F1 C62 1_555 1_555
F2 C62 1_555 1_555
F3 C62 1_555 1_555
S1 O7 1_555 1_555
O8 S1 1_555 1_555
O9 S1 1_555 1_555
C62 S1 1_555 1_555
F4 C63 1_555 1_555
F5 C63 1_555 1_555
F6 C63 1_555 1_555
S2 O10 1_555 1_555
O11 S2 1_555 1_555
O12 S2 1_555 1_555
C63 S2 1_555 1_555
F7 S3 1_555 1_555
F8 S3 1_555 1_555
F9 S3 1_555 1_555
S3 C64 1_555 1_555
O13 C64 1_555 1_555
O14 C64 1_555 1_555
O15 C64 1_555 1_555
O16 H63 1_555 1_555
H64 O16 1_555 1_555
O17 H65 1_555 1_555
H66 O17 1_555 1_555
O18 H67 1_555 1_555
H68 O18 1_555 1_555
O19 H69 1_555 1_555
H70 O19 1_555 1_555
Ag1B N9 1_555 1_555
Ag3G N3 1_555 1_555
N3G Ag3 1_555 1_555
N9B Ag1 1_555 1_555
C4 C5 1_555 1_555
C6 C7 1_555 1_555
C14 C15 1_555 1_555
C16 C17 1_555 1_555
C19 C20 1_555 1_555
C24 C25 1_555 1_555
C26 C27 1_555 1_555
C28 C29 1_555 1_555
C29 C30 1_555 1_555
C34 C35 1_555 1_555
C36 C37 1_555 1_555
C44 C45 1_555 1_555
C46 C47 1_555 1_555
C48 C49 1_555 1_555
C54 C55 1_555 1_555
C56 C57 1_555 1_555
C58 C59 1_555 1_555
C59 C60 1_555 1_555

#END
