
#######################################################################
#
#                 Cambridge Crystallographic Data Centre
#                                CCDC 
#
#######################################################################
#
# If this CIF has been generated from an entry in the Cambridge 
# Structural Database, then it will include bibliographic, chemical, 
# crystal, experimental, refinement or atomic coordinate data resulting 
# from the CCDC's data processing and validation procedures.
#
#######################################################################

data_GONSUZ
_chemical_formula_moiety         'C8 H8 Ca5 F4 O13'
_symmetry_cell_setting           tetragonal
_symmetry_space_group_name_H-M   'P 41 21 2'
_symmetry_Int_Tables_number      92
_space_group_name_Hall           'P 4abw 2nw'
loop_
_symmetry_equiv_pos_site_id
_symmetry_equiv_pos_as_xyz
1 x,y,z
2 -x,-y,1/2+z
3 1/2-y,1/2+x,1/4+z
4 1/2+y,1/2-x,3/4+z
5 1/2-x,1/2+y,1/4-z
6 1/2+x,1/2-y,3/4-z
7 y,x,-z
8 -y,-x,1/2-z
_cell_length_a                   14.8357(7)
_cell_length_b                   14.8357(7)
_cell_length_c                   6.7854(6)
_cell_angle_alpha                90
_cell_angle_beta                 90
_cell_angle_gamma                90
_cell_volume                     1493.45
loop_
_atom_site_label
_atom_site_type_symbol
_atom_site_fract_x
_atom_site_fract_y
_atom_site_fract_z
O4 O 0.7182(12) 0.8360(13) -0.007(4)
H3 H 0.6860 0.8442 0.0949
H4 H 0.7388 0.7844 0.0000
O5 O 0.5814(11) 0.0792(11) 0.246(3)
H5 H 0.6292 0.0493 0.2234
H6 H 0.5648 0.0709 0.3641
C1 C 0.3683(4) 0.6317(4) 0.2500
C2 C 0.2966(4) 0.7034(4) 0.2500
C3 C 0.3183(3) 0.7932(3) 0.2490(12)
C4 C 0.0898(4) 0.9102(4) 0.2500
C5 C 0.1612(3) 0.8388(3) 0.2500
C6 C 0.2528(3) 0.8583(4) 0.2541(11)
Ca1 Ca 0.54852(6) 0.54852(6) 0.0000
F1 F 0.4044(2) 0.8201(2) 0.2524(7)
F2 F 0.2783(2) 0.9460(2) 0.2534(6)
O1 O 0.4263(3) 0.6333(3) 0.1140(6)
O2 O 0.0434(3) 0.9197(2) 0.0991(5)
O3 O 0.6149(12) 0.6924(12) -0.013(3)
H1 H 0.6720 0.6872 -0.0114
H2 H 0.5979 0.7215 0.0885
C3G C 0.2068(3) 0.6817(3) 0.2510(12)
C6G C 0.1417(4) 0.7472(3) 0.2459(11)
F1G F 0.1799(2) 0.5956(2) 0.2476(7)
F2G F 0.0540(2) 0.7217(2) 0.2466(6)
O1G O 0.3667(3) 0.5737(3) 0.3860(6)
O2G O 0.0803(2) 0.9566(3) 0.4009(5)
O3F O 0.6924(12) 0.6149(12) 0.013(3)
H1F H 0.6872 0.6720 0.0114
H2F H 0.7215 0.5979 -0.0885
Ca1A Ca 0.45148(6) 0.45148(6) 0.5000
Ca1B Ca -0.04852(6) 1.04852(6) 0.2500
Ca1C Ca 0.04852(6) 0.95148(6) -0.2500
Ca1C_2 Ca 0.04852(6) 0.95148(6) 0.7500
O1F O 0.6333(3) 0.4263(3) -0.1140(6)
O2B O 0.5803(2) 0.5434(3) 0.3491(5)
O2C O 0.4197(2) 0.4566(3) -0.1509(5)
O2D O 0.4566(3) 0.4197(2) 0.1509(5)
O2E O 0.5434(3) 0.5803(2) -0.3491(5)
loop_
_geom_bond_atom_site_label_1
_geom_bond_atom_site_label_2
_geom_bond_site_symmetry_1
_geom_bond_site_symmetry_2
C1 C2 1_555 1_555
C2 C3 1_555 1_555
C3 C6 1_555 1_555
C4 C5 1_555 1_555
C5 C6 1_555 1_555
C6 F2 1_555 1_555
Ca1 O1 1_555 1_555
F1 C3 1_555 1_555
O1 C1 1_555 1_555
O2 C4 1_555 1_555
O3 Ca1 1_555 1_555
H1 O3 1_555 1_555
H2 O3 1_555 1_555
O4 H3 1_555 1_555
H4 O4 1_555 1_555
O5 H5 1_555 1_555
H6 O5 1_555 1_555
C3G C2 1_555 1_555
C6G C5 1_555 1_555
F1G C3G 1_555 1_555
F2G C6G 1_555 1_555
O1G C1 1_555 1_555
O2G C4 1_555 1_555
O3F Ca1 1_555 1_555
H1F O3F 1_555 1_555
H2F O3F 1_555 1_555
Ca1A O1G 1_555 1_555
Ca1B O2 1_555 1_555
Ca1C O2 1_555 1_555
Ca1C_2 O2G 1_555 1_555
O1F Ca1 1_555 1_555
O2B Ca1 1_555 1_555
O2C Ca1 1_555 1_555
O2D Ca1 1_555 1_555
O2E Ca1 1_555 1_555
O3 O3F 1_555 1_555
C3G C6G 1_555 1_555
O2G Ca1B 1_555 1_555
Ca1A O2B 1_555 1_555
Ca1A O2D 1_555 1_555

#END
