
#######################################################################
#
#                 Cambridge Crystallographic Data Centre
#                                CCDC 
#
#######################################################################
#
# If this CIF has been generated from an entry in the Cambridge 
# Structural Database, then it will include bibliographic, chemical, 
# crystal, experimental, refinement or atomic coordinate data resulting 
# from the CCDC's data processing and validation procedures.
#
#######################################################################

data_CIMFOV
_chemical_formula_moiety         '(C8 H8 N6 O4 Zn1)n'
_symmetry_cell_setting           rhombohedral
_symmetry_space_group_name_H-M   'R -3 m'
_symmetry_Int_Tables_number      166
_space_group_name_Hall           '-R 3 2"'
loop_
_symmetry_equiv_pos_site_id
_symmetry_equiv_pos_as_xyz
1 x,y,z
2 -y,x-y,z
3 -x+y,-x,z
4 y,x,-z
5 x-y,-y,-z
6 -x,-x+y,-z
7 2/3+x,1/3+y,1/3+z
8 2/3-y,1/3+x-y,1/3+z
9 2/3-x+y,1/3-x,1/3+z
10 2/3+y,1/3+x,1/3-z
11 2/3+x-y,1/3-y,1/3-z
12 2/3-x,1/3-x+y,1/3-z
13 1/3+x,2/3+y,2/3+z
14 1/3-y,2/3+x-y,2/3+z
15 1/3-x+y,2/3-x,2/3+z
16 1/3+y,2/3+x,2/3-z
17 1/3+x-y,2/3-y,2/3-z
18 1/3-x,2/3-x+y,2/3-z
19 -x,-y,-z
20 y,-x+y,-z
21 x-y,x,-z
22 -y,-x,z
23 -x+y,y,z
24 x,x-y,z
25 1/3-x,2/3-y,2/3-z
26 1/3+y,2/3-x+y,2/3-z
27 1/3+x-y,2/3+x,2/3-z
28 1/3-y,2/3-x,2/3+z
29 1/3-x+y,2/3+y,2/3+z
30 1/3+x,2/3+x-y,2/3+z
31 2/3-x,1/3-y,1/3-z
32 2/3+y,1/3-x+y,1/3-z
33 2/3+x-y,1/3+x,1/3-z
34 2/3-y,1/3-x,1/3+z
35 2/3-x+y,1/3+y,1/3+z
36 2/3+x,1/3+x-y,1/3+z
_cell_length_a                   23.132(3)
_cell_length_b                   23.132(3)
_cell_length_c                   15.528(3)
_cell_angle_alpha                90
_cell_angle_beta                 90
_cell_angle_gamma                120
_cell_volume                     7195.69
loop_
_atom_site_label
_atom_site_type_symbol
_atom_site_fract_x
_atom_site_fract_y
_atom_site_fract_z
_atom_site_U_iso_or_equiv
_atom_site_thermal_displace_type
Zn1 Zn 0.73834(3) 0.73834(3) 0.5000 0.0568 Uani
N1 N 0.68062(18) 0.6931(2) 0.6031(2) 0.0622 Uani
N2 N 0.82872(17) 0.75408(19) 0.5384(2) 0.0549 Uani
C1 C 0.6990(2) 0.6667 0.6667 0.0616 Uani
H1 H 0.7396 0.6667 0.6667 0.0740 Uiso
C2 C 0.6198(2) 0.6828(3) 0.6272(4) 0.0762 Uani
C3 C 0.86650(14) 0.7330(3) 0.5012(3) 0.0488 Uani
H2 H 0.8526 0.7053 0.4523 0.0590 Uiso
C4 C 0.8674(2) 0.7942(2) 0.6035(3) 0.0611 Uani
N3 N 0.8424(17) 0.8319(15) 0.6509(16) 0.1178 Uani
O1 O 0.7933(5) 0.8265(5) 0.6442(6) 0.0956 Uani
O2 O 0.8848(6) 0.8629(6) 0.7137(7) 0.1332 Uani
C5 C 0.5798(13) 0.6978(15) 0.5513(13) 0.0831 Uani
H3 H 0.6114 0.7267 0.5081 0.1250 Uiso
H4 H 0.557 0.7194 0.576 0.1250 Uiso
H5 H 0.5474 0.656 0.5247 0.1250 Uiso
N1J N 0.65419(27) 0.6402(2) 0.7302(2) 0.0622 Uani
C2J C 0.6037(4) 0.6505(3) 0.7061(4) 0.0762 Uani
C5J C 0.5487(20) 0.6355(15) 0.7820(13) 0.0831 Uani
H3J H 0.5514 0.6066 0.8252 0.1250 Uiso
H4J H 0.5043 0.6139 0.757333 0.1250 Uiso
H5J H 0.5581 0.677333 0.8086 0.1250 Uiso
N2V N 0.92536(25) 0.75408(19) 0.5384(2) 0.0549 Uani
C4V C 0.9268(3) 0.7942(2) 0.6035(3) 0.0611 Uani
N3V N 0.9895(23) 0.8319(15) 0.6509(16) 0.1178 Uani
O1V O 1.0332(7) 0.8265(5) 0.6442(6) 0.0956 Uani
O2V O 0.9781(8) 0.8629(6) 0.7137(7) 0.1332 Uani
Zn1H Zn 0.66667(4) 0.59499(3) 0.8333 0.0568 Uani
Zn1T Zn 1.00000(4) 0.73834(3) 0.5000 0.0568 Uani
N1C N 0.6931(2) 0.68062(18) 0.3969(2) 0.0622 Uani
N2C N 0.75408(19) 0.82872(17) 0.4616(2) 0.0549 Uani
loop_
_atom_site_aniso_label
_atom_site_aniso_U_11
_atom_site_aniso_U_22
_atom_site_aniso_U_33
_atom_site_aniso_U_23
_atom_site_aniso_U_13
_atom_site_aniso_U_12
Zn1 0.0613(5) 0.0613(5) 0.0486(5) 0.00764(14) -0.00764(14) 0.0313(4)
N1 0.053(2) 0.073(2) 0.066(2) 0.0129(18) 0.0019(16) 0.0355(18)
N2 0.0564(19) 0.069(2) 0.0445(16) -0.0096(15) -0.0067(14) 0.0353(17)
C1 0.051(2) 0.081(4) 0.062(3) 0.015(3) 0.0075(15) 0.040(2)
C2 0.046(2) 0.074(3) 0.114(4) 0.032(3) 0.016(3) 0.034(2)
C3 0.053(2) 0.054(3) 0.040(2) -0.010(2) -0.0050(11) 0.0272(15)
C4 0.065(3) 0.069(3) 0.050(2) -0.0133(19) -0.0054(19) 0.034(2)
N3 0.154(18) 0.137(18) 0.084(14) -0.047(11) -0.031(11) 0.089(15)
O1 0.089(6) 0.132(8) 0.084(5) -0.031(5) -0.005(5) 0.069(6)
O2 0.155(10) 0.166(10) 0.109(7) -0.085(7) -0.040(7) 0.103(9)
C5 0.068(9) 0.093(12) 0.100(16) 0.010(12) -0.019(11) 0.049(9)
N1J 0.055 0.073 0.066 0.0129 0.011 0.0375
C2J 0.052 0.074 0.114 0.032 0.016 0.04
C5J 0.063 0.093 0.1 0.01 0.029 0.044
N2V 0.0548 0.069 0.0445 -0.0096 -0.0029 0.0337
C4V 0.066 0.069 0.05 -0.0133 -0.0079 0.035
N3V 0.113 0.137 0.084 -0.047 -0.016 0.048
O1V 0.083 0.132 0.084 -0.031 -0.026 0.063
O2V 0.115 0.166 0.109 -0.085 -0.045 0.063
Zn1H 0.06 0.0613 0.0486 0.00764 0.01528 0.03
Zn1T 0.06 0.0613 0.0486 0.00764 0.01528 0.03
N1C 0.073 0.053 0.066 -0.0019 -0.0129 0.0355
N2C 0.069 0.0564 0.0445 0.0067 0.0096 0.0353
loop_
_geom_bond_atom_site_label_1
_geom_bond_atom_site_label_2
_geom_bond_site_symmetry_1
_geom_bond_site_symmetry_2
Zn1 N1 1_555 1_555
N1 C1 1_555 1_555
N2 Zn1 1_555 1_555
C1 H1 1_555 1_555
C2 N1 1_555 1_555
C3 N2 1_555 1_555
H2 C3 1_555 1_555
C4 N2 1_555 1_555
N3 C4 1_555 1_555
O1 N3 1_555 1_555
O2 N3 1_555 1_555
C5 C2 1_555 1_555
H3 C5 1_555 1_555
H4 C5 1_555 1_555
H5 C5 1_555 1_555
N1J C1 1_555 1_555
C2J C2 1_555 1_555
C5J C2J 1_555 1_555
H3J C5J 1_555 1_555
H4J C5J 1_555 1_555
H5J C5J 1_555 1_555
N2V C3 1_555 1_555
C4V C4 1_555 1_555
N3V C4V 1_555 1_555
O1V N3V 1_555 1_555
O2V N3V 1_555 1_555
Zn1H N1J 1_555 1_555
Zn1T N2V 1_555 1_555
N1C Zn1 1_555 1_555
N2C Zn1 1_555 1_555
N1J C2J 1_555 1_555
N2V C4V 1_555 1_555

#END
