
#######################################################################
#
#                 Cambridge Crystallographic Data Centre
#                                CCDC 
#
#######################################################################
#
# If this CIF has been generated from an entry in the Cambridge 
# Structural Database, then it will include bibliographic, chemical, 
# crystal, experimental, refinement or atomic coordinate data resulting 
# from the CCDC's data processing and validation procedures.
#
#######################################################################

data_SETSOB
_chemical_formula_moiety         '(C69 H45 Cr3 N9 O25 Zn3)n'
_symmetry_cell_setting           hexagonal
_symmetry_space_group_name_H-M   'P -6 2 m'
_symmetry_Int_Tables_number      189
_space_group_name_Hall           'P -6 -2'
loop_
_symmetry_equiv_pos_site_id
_symmetry_equiv_pos_as_xyz
1 x,y,z
2 -y,x-y,z
3 -x+y,-x,z
4 x,y,-z
5 -y,x-y,-z
6 -x+y,-x,-z
7 y,x,-z
8 x-y,-y,-z
9 -x,-x+y,-z
10 y,x,z
11 x-y,-y,z
12 -x,-x+y,z
_cell_length_a                   16.7824(2)
_cell_length_b                   16.7824(2)
_cell_length_c                   14.6462(4)
_cell_angle_alpha                90
_cell_angle_beta                 90
_cell_angle_gamma                120
_cell_volume                     3572.43
loop_
_atom_site_label
_atom_site_type_symbol
_atom_site_fract_x
_atom_site_fract_y
_atom_site_fract_z
Zn1 Zn 0.65833(4) 0.65833(4) 1.0000
Cr1 Cr 1.0000 0.88570(6) 0.5000
O1 O 1.0000 1.0000 0.5000
O2 O 0.90730(14) 0.83073(14) 0.59741(14)
C1 C 0.8514(2) 0.8514(2) 0.6298(3)
C2 C 0.8046(3) 0.8046(3) 0.7177(3)
C3 C 0.7303(6) 0.8088(8) 0.7495(7)
H1 H 0.7052 0.8384 0.7155
C4 C 0.7211(9) 0.7973(7) 0.8505(8)
H2 H 0.6903 0.8207 0.8853
N1 N 0.7243(2) 0.7243(2) 0.8822(2)
O3 O 0.58478(18) 0.7839(2) 1.0000
O4 O 0.5320(2) 0.6342(2) 1.0000
C5 C 0.5214(3) 0.7041(3) 1.0000
C6 C 0.4236(3) 0.6831(3) 1.0000
C7 C 0.3509(3) 0.5937(3) 1.0000
H3 H 0.3624 0.5443 1.0000
N2 N 1.0000 0.7614(3) 0.5000
C8 C 0.9190(6) 0.6789(5) 0.5000
H4 H 0.8626 0.6780 0.5000
C9 C 1.0000 0.5936(7) 0.5000
H5 H 1.0000 0.5376 0.5000
C10 C 0.9203(10) 0.5934(7) 0.5000
H6 H 0.8646 0.5372 0.5000
O2I O 0.83073(14) 0.90730(14) 0.59741(14)
C3I C 0.8088(8) 0.7303(6) 0.7495(7)
H1I H 0.8384 0.7052 0.7155
C4I C 0.7973(7) 0.7211(9) 0.8505(8)
H2I H 0.8207 0.6903 0.8853
O3A O 0.2161(2) 0.80088(27) 1.0000
O4A O 0.3658(2) 0.8978(3) 1.0000
C5A C 0.2959(3) 0.8173(4) 1.0000
C6A C 0.3169(3) 0.7405(4) 1.0000
C7A C 0.4063(3) 0.7572(4) 1.0000
H3A H 0.4557 0.8181 1.0000
O3B O 0.19912(27) 0.41522(18) 1.0000
O4B O 0.1022(3) 0.4680(2) 1.0000
C5B C 0.1827(4) 0.4786(3) 1.0000
C6B C 0.2595(4) 0.5764(3) 1.0000
C7B C 0.2428(4) 0.6491(3) 1.0000
H3B H 0.1819 0.6376 1.0000
C8H C 1.0810(6) 0.7599(8) 0.5000
H4H H 1.1374 0.8154 0.5000
C10H C 1.0797(10) 0.6731(12) 0.5000
H6H H 1.1354 0.6726 0.5000
Zn1A Zn 0.34167(4) 1.00000(6) 1.0000
Cr1A Cr 0.11430(6) 1.11430(6) 0.5000
O2A O 0.16927(14) 1.07657(20) 0.59741(14)
C1A C 0.1486(2) 1.0000(3) 0.6298(3)
C2A C 0.1954(3) 1.0000(4) 0.7177(3)
C3A C 0.1912(8) 0.9215(10) 0.7495(7)
H1A H 0.1616 0.8668 0.7155
C4A C 0.2027(7) 0.9238(11) 0.8505(8)
H2A H 0.1793 0.8696 0.8853
N1A N 0.2757(2) 1.0000(3) 0.8822(2)
N2A N 0.2386(3) 1.2386(3) 0.5000
C8A C 0.3211(5) 1.2401(8) 0.5000
H4A H 0.3220 1.1846 0.5000
C9A C 0.4064(7) 1.4064(7) 0.5000
H5A H 0.4624 1.4624 0.5000
C10A C 0.4066(7) 1.3269(12) 0.5000
H6A H 0.4628 1.3274 0.5000
O2K O 0.09270(14) 0.92343(20) 0.59741(14)
C3K C 0.2697(6) 1.0785(10) 0.7495(7)
H1K H 0.2948 1.1332 0.7155
C4K C 0.2789(9) 1.0762(11) 0.8505(8)
H2K H 0.3097 1.1304 0.8853
C8G C 0.2401(8) 1.3211(5) 0.5000
H4G H 0.1846 1.3220 0.5000
C10G C 0.3269(12) 1.4066(7) 0.5000
H6G H 0.3274 1.4628 0.5000
Zn1B Zn 0.00000(6) 0.34167(4) 1.0000
Cr1B Cr -0.11430(6) 0.0000 0.5000
O2B O -0.07657(20) 0.09270(14) 0.59741(14)
C1B C 0.0000(3) 0.1486(2) 0.6298(3)
C2B C 0.0000(4) 0.1954(3) 0.7177(3)
C3B C 0.0785(10) 0.2697(6) 0.7495(7)
H1B H 0.1332 0.2948 0.7155
C4B C 0.0762(11) 0.2789(9) 0.8505(8)
H2B H 0.1304 0.3097 0.8853
N1B N 0.0000(3) 0.2757(2) 0.8822(2)
N2B N -0.2386(3) 0.0000 0.5000
C8B C -0.2401(8) 0.0810(6) 0.5000
H4B H -0.1846 0.1374 0.5000
C9B C -0.4064(7) 0.0000 0.5000
H5B H -0.4624 0.0000 0.5000
C10B C -0.3269(12) 0.0797(10) 0.5000
H6B H -0.3274 0.1354 0.5000
O2J O 0.07657(20) 0.16927(14) 0.59741(14)
C3J C -0.0785(10) 0.1912(8) 0.7495(7)
H1J H -0.1332 0.1616 0.7155
C4J C -0.0762(11) 0.2027(7) 0.8505(8)
H2J H -0.1304 0.1793 0.8853
C8F C -0.3211(5) -0.0810(6) 0.5000
H4F H -0.3220 -0.1374 0.5000
C10F C -0.4066(7) -0.0797(10) 0.5000
H6F H -0.4628 -0.1354 0.5000
O2C O 0.90730(14) 0.83073(14) 0.40259(14)
C1C C 0.8514(2) 0.8514(2) 0.3702(3)
C2C C 0.8046(3) 0.8046(3) 0.2823(3)
C3C C 0.7303(6) 0.8088(8) 0.2505(7)
H1C H 0.7052 0.8384 0.2845
C4C C 0.7211(9) 0.7973(7) 0.1495(8)
H2C H 0.6903 0.8207 0.1147
N1C N 0.7243(2) 0.7243(2) 0.1178(2)
O2F O 0.83073(14) 0.90730(14) 0.40259(14)
C3F C 0.8088(8) 0.7303(6) 0.2505(7)
H1F H 0.8384 0.7052 0.2845
C4F C 0.7973(7) 0.7211(9) 0.1495(8)
H2F H 0.8207 0.6903 0.1147
O2D O 0.16927(14) 1.07657(20) 0.40259(14)
C1D C 0.1486(2) 1.0000(3) 0.3702(3)
C2D C 0.1954(3) 1.0000(4) 0.2823(3)
C3D C 0.1912(8) 0.9215(10) 0.2505(7)
H1D H 0.1616 0.8668 0.2845
C4D C 0.2027(7) 0.9238(11) 0.1495(8)
H2D H 0.1793 0.8696 0.1147
N1D N 0.2757(2) 1.0000(3) 0.1178(2)
O2H O 0.09270(14) 0.92343(20) 0.40259(14)
C3H C 0.2697(6) 1.0785(10) 0.2505(7)
H1H H 0.2948 1.1332 0.2845
C4H C 0.2789(9) 1.0762(11) 0.1495(8)
H2H H 0.3097 1.1304 0.1147
O2E O -0.07657(20) 0.09270(14) 0.40259(14)
C1E C -0.0000(3) 0.1486(2) 0.3702(3)
C2E C -0.0000(4) 0.1954(3) 0.2823(3)
C3E C 0.0785(10) 0.2697(6) 0.2505(7)
H1E H 0.1332 0.2948 0.2845
C4E C 0.0762(11) 0.2789(9) 0.1495(8)
H2E H 0.1304 0.3097 0.1147
N1E N -0.0000(3) 0.2757(2) 0.1178(2)
O2G O 0.07657(20) 0.16927(14) 0.40259(14)
C3G C -0.0785(10) 0.1912(8) 0.2505(7)
H1G H -0.1332 0.1616 0.2845
C4G C -0.0762(11) 0.2027(7) 0.1495(8)
H2G H -0.1304 0.1793 0.1147
O3F O 0.7839(2) 0.58478(18) 1.0000
O4F O 0.6342(2) 0.5320(2) 1.0000
C5F C 0.7041(3) 0.5214(3) 1.0000
C6F C 0.6831(3) 0.4236(3) 1.0000
C7F C 0.5937(3) 0.3509(3) 1.0000
H3F H 0.5443 0.3624 1.0000
O3G O 0.80088(27) 0.2161(2) 1.0000
O4G O 0.8978(3) 0.3658(2) 1.0000
C5G C 0.8173(4) 0.2959(3) 1.0000
C6G C 0.7405(4) 0.3169(3) 1.0000
C7G C 0.7572(4) 0.4063(3) 1.0000
H3G H 0.8181 0.4557 1.0000
O3H O 0.41522(18) 0.19912(27) 1.0000
O4H O 0.4680(2) 0.1022(3) 1.0000
C5H C 0.4786(3) 0.1827(4) 1.0000
C6H C 0.5764(3) 0.2595(4) 1.0000
C7H C 0.6491(3) 0.2428(4) 1.0000
H3H H 0.6376 0.1819 1.0000
Zn1_2 Zn 0.65833(4) 0.65833(4) 0.0000
Zn1A_2 Zn 0.34167(4) 0.00000(6) 1.0000
Zn1A_3 Zn 0.34167(4) 1.00000(6) 0.0000
Zn1B_2 Zn 0.00000(6) 0.34167(4) 0.0000
Zn1B_3 Zn 1.00000(6) 0.34167(4) 1.0000
Cr1_2 Cr 0.0000 0.88570(6) 0.5000
Cr1A_2 Cr 0.11430(6) 0.11430(6) 0.5000
Cr1A_3 Cr 1.11430(6) 1.11430(6) 0.5000
Cr1B_2 Cr 0.88570(6) 1.0000 0.5000
O1_2 O 0.0000 0.0000 0.5000
O1_3 O -0.0000 1.0000 0.5000
O2F_2 O -0.16927(14) -0.09270(14) 0.40259(14)
O2G_2 O 0.07657(20) 1.16927(14) 0.40259(14)
O2H_2 O 1.09270(14) 0.92343(20) 0.40259(14)
O2I_2 O -0.16927(14) -0.09270(14) 0.59741(14)
O2J_2 O 0.07657(20) 1.16927(14) 0.59741(14)
O2K_2 O 1.09270(14) 0.92343(20) 0.59741(14)
N1C_2 N 0.7243(2) 0.7243(2) 1.1178(2)
N1D_2 N 0.2757(2) 1.0000(3) 1.1178(2)
N1E_2 N -0.0000(3) 0.2757(2) 1.1178(2)
O4G_2 O -0.1022(3) 0.3658(2) 1.0000
O4H_2 O 0.4680(2) 1.1022(3) 1.0000
loop_
_geom_bond_atom_site_label_1
_geom_bond_atom_site_label_2
_geom_bond_site_symmetry_1
_geom_bond_site_symmetry_2
Zn1 N1 1_555 1_555
Cr1 O1 1_555 1_555
O1 Cr1A_3 1_555 1_555
O2 Cr1 1_555 1_555
C1 O2 1_555 1_555
C2 C1 1_555 1_555
C3 C2 1_555 1_555
H1 C3 1_555 1_555
C4 C3 1_555 1_555
H2 C4 1_555 1_555
N1 C4 1_555 1_555
O3 C5 1_555 1_555
O4 Zn1 1_555 1_555
C5 O4 1_555 1_555
C6 C5 1_555 1_555
C7 C6 1_555 1_555
H3 C7 1_555 1_555
N2 Cr1 1_555 1_555
C8 N2 1_555 1_555
H4 C8 1_555 1_555
C9 H5 1_555 1_555
C10 C8 1_555 1_555
H6 C10 1_555 1_555
O2I C1 1_555 1_555
C3I C2 1_555 1_555
H1I C3I 1_555 1_555
C4I N1 1_555 1_555
H2I C4I 1_555 1_555
O3A C5A 1_555 1_555
O4A C5A 1_555 1_555
C5A C6A 1_555 1_555
C6A C7A 1_555 1_555
C7A C6 1_555 1_555
H3A C7A 1_555 1_555
O3B C5B 1_555 1_555
O4B C5B 1_555 1_555
C5B C6B 1_555 1_555
C6B C7 1_555 1_555
C7B C6A 1_555 1_555
H3B C7B 1_555 1_555
C8H N2 1_555 1_555
H4H C8H 1_555 1_555
C10H C9 1_555 1_555
H6H C10H 1_555 1_555
Zn1A O4A 1_555 1_555
Cr1A O2A 1_555 1_555
O2A C1A 1_555 1_555
C1A C2A 1_555 1_555
C2A C3A 1_555 1_555
C3A H1A 1_555 1_555
C4A C3A 1_555 1_555
H2A C4A 1_555 1_555
N1A Zn1A 1_555 1_555
N2A Cr1A 1_555 1_555
C8A N2A 1_555 1_555
H4A C8A 1_555 1_555
C9A H5A 1_555 1_555
C10A C8A 1_555 1_555
H6A C10A 1_555 1_555
O2K C1A 1_555 1_555
C3K C2A 1_555 1_555
H1K C3K 1_555 1_555
C4K N1A 1_555 1_555
H2K C4K 1_555 1_555
C8G N2A 1_555 1_555
H4G C8G 1_555 1_555
C10G C9A 1_555 1_555
H6G C10G 1_555 1_555
Zn1B O4B 1_555 1_555
Cr1B O2B 1_555 1_555
O2B C1B 1_555 1_555
C1B C2B 1_555 1_555
C2B C3B 1_555 1_555
C3B H1B 1_555 1_555
C4B C3B 1_555 1_555
H2B C4B 1_555 1_555
N1B Zn1B 1_555 1_555
N2B Cr1B 1_555 1_555
C8B N2B 1_555 1_555
H4B C8B 1_555 1_555
C9B H5B 1_555 1_555
C10B C8B 1_555 1_555
H6B C10B 1_555 1_555
O2J C1B 1_555 1_555
C3J C2B 1_555 1_555
H1J C3J 1_555 1_555
C4J N1B 1_555 1_555
H2J C4J 1_555 1_555
C8F N2B 1_555 1_555
H4F C8F 1_555 1_555
C10F C9B 1_555 1_555
H6F C10F 1_555 1_555
O2C Cr1 1_555 1_555
C1C O2C 1_555 1_555
C2C C1C 1_555 1_555
C3C C2C 1_555 1_555
H1C C3C 1_555 1_555
C4C C3C 1_555 1_555
H2C C4C 1_555 1_555
N1C C4C 1_555 1_555
O2F C1C 1_555 1_555
C3F C2C 1_555 1_555
H1F C3F 1_555 1_555
C4F N1C 1_555 1_555
H2F C4F 1_555 1_555
O2D Cr1A 1_555 1_555
C1D O2D 1_555 1_555
C2D C1D 1_555 1_555
C3D C2D 1_555 1_555
H1D C3D 1_555 1_555
C4D C3D 1_555 1_555
H2D C4D 1_555 1_555
N1D C4D 1_555 1_555
O2H C1D 1_555 1_555
C3H C2D 1_555 1_555
H1H C3H 1_555 1_555
C4H N1D 1_555 1_555
H2H C4H 1_555 1_555
O2E Cr1B 1_555 1_555
C1E O2E 1_555 1_555
C2E C1E 1_555 1_555
C3E C2E 1_555 1_555
H1E C3E 1_555 1_555
C4E C3E 1_555 1_555
H2E C4E 1_555 1_555
N1E C4E 1_555 1_555
O2G C1E 1_555 1_555
C3G C2E 1_555 1_555
H1G C3G 1_555 1_555
C4G N1E 1_555 1_555
H2G C4G 1_555 1_555
O3F C5F 1_555 1_555
O4F Zn1 1_555 1_555
C5F O4F 1_555 1_555
C6F C5F 1_555 1_555
C7F C6F 1_555 1_555
H3F C7F 1_555 1_555
O3G C5G 1_555 1_555
O4G C5G 1_555 1_555
C5G C6G 1_555 1_555
C6G C7G 1_555 1_555
C7G C6F 1_555 1_555
H3G C7G 1_555 1_555
O3H C5H 1_555 1_555
O4H C5H 1_555 1_555
C5H C6H 1_555 1_555
C6H C7F 1_555 1_555
C7H C6G 1_555 1_555
H3H C7H 1_555 1_555
Zn1_2 N1C 1_555 1_555
Zn1A_2 O4H 1_555 1_555
Zn1A_3 N1D 1_555 1_555
Zn1B_2 N1E 1_555 1_555
Zn1B_3 O4G 1_555 1_555
Cr1_2 O2K 1_555 1_555
Cr1A_2 O2J 1_555 1_555
Cr1B_2 O1 1_555 1_555
O1_2 Cr1B 1_555 1_555
O1_3 Cr1A 1_555 1_555
O2F_2 Cr1B 1_555 1_555
O2G_2 Cr1A 1_555 1_555
O2H_2 Cr1 1_555 1_555
O2I_2 Cr1B 1_555 1_555
O2J_2 Cr1A 1_555 1_555
O2K_2 Cr1 1_555 1_555
N1C_2 Zn1 1_555 1_555
N1D_2 Zn1A 1_555 1_555
N1E_2 Zn1B 1_555 1_555
O4G_2 Zn1B 1_555 1_555
O4H_2 Zn1A 1_555 1_555
C9 C10 1_555 1_555
O2I Cr1B_2 1_555 1_555
C3I C4I 1_555 1_555
C6B C7B 1_555 1_555
C8H C10H 1_555 1_555
C4A N1A 1_555 1_555
C9A C10A 1_555 1_555
C3K C4K 1_555 1_555
C8G C10G 1_555 1_555
C4B N1B 1_555 1_555
C9B C10B 1_555 1_555
C3J C4J 1_555 1_555
C8F C10F 1_555 1_555
O2F Cr1B_2 1_555 1_555
C3F C4F 1_555 1_555
O2H Cr1_2 1_555 1_555
C3H C4H 1_555 1_555
O2G Cr1A_2 1_555 1_555
C3G C4G 1_555 1_555
C6H C7H 1_555 1_555
Cr1_2 O1_3 1_555 1_555
Cr1A_2 O1_2 1_555 1_555

#END
