
#######################################################################
#
#                 Cambridge Crystallographic Data Centre
#                                CCDC 
#
#######################################################################
#
# If this CIF has been generated from an entry in the Cambridge 
# Structural Database, then it will include bibliographic, chemical, 
# crystal, experimental, refinement or atomic coordinate data resulting 
# from the CCDC's data processing and validation procedures.
#
#######################################################################

data_SETSIV
_chemical_formula_moiety         '(C54 H35 Cr3 N6 O28 Zn3)n'
_symmetry_cell_setting           hexagonal
_symmetry_space_group_name_H-M   'P -6 2 m'
_symmetry_Int_Tables_number      189
_space_group_name_Hall           'P -6 -2'
loop_
_symmetry_equiv_pos_site_id
_symmetry_equiv_pos_as_xyz
1 x,y,z
2 -y,x-y,z
3 -x+y,-x,z
4 x-y,-y,-z
5 -x,-x+y,-z
6 y,x,-z
7 y,x,z
8 -x,-x+y,z
9 x-y,-y,z
10 x,y,-z
11 -x+y,-x,-z
12 -y,x-y,-z
_cell_length_a                   16.9153(17)
_cell_length_b                   16.9153(17)
_cell_length_c                   14.458(7)
_cell_angle_alpha                90
_cell_angle_beta                 90
_cell_angle_gamma                120
_cell_volume                     3582.6
loop_
_atom_site_label
_atom_site_type_symbol
_atom_site_fract_x
_atom_site_fract_y
_atom_site_fract_z
Zn1 Zn -0.0000 -0.34735(2) -1.0000
Cr1 Cr -0.11341(4) -0.11341(4) -0.5000
O1 O 0.0000 0.0000 -0.5000
O2 O -0.23272(16) -0.23272(16) -0.5000
O3 O -0.19722(13) -0.41710(12) -1.0000
O4 O -0.10266(12) -0.47239(12) -1.0000
C1 C -0.18138(18) -0.48020(18) -1.0000
C2 C -0.25970(18) -0.57745(18) -1.0000
C3 C -0.24455(18) -0.65105(18) -1.0000
H1 H -0.1845 -0.6405 -1.0000
O5 O -0.07640(10) -0.16870(11) -0.59865(12)
C4 C -0.0000 -0.14829(17) -0.6305(2)
C5 C 0.0000 -0.19668(19) -0.7178(2)
N1 N -0.0000 -0.28167(14) -0.88065(19)
C6 C -0.0765(6) -0.2752(6) -0.7478(8)
H2 H -0.1304 -0.3010 -0.7126
C7 C -0.0736(7) -0.3146(6) -0.8272(8)
H3 H -0.1263 -0.3682 -0.8460
O3A O -0.58290(12) -0.78012(18) -1.0000
O4A O -0.52761(12) -0.63027(17) -1.0000
C1A C -0.51980(18) -0.70118(25) -1.0000
C2A C -0.42255(18) -0.68225(25) -1.0000
C3A C -0.34895(18) -0.59350(25) -1.0000
H1A H -0.3595 -0.5440 -1.0000
O3B O -0.21988(18) -0.80278(13) -1.0000
O4B O -0.36973(17) -0.89734(12) -1.0000
C1B C -0.29882(25) -0.81862(18) -1.0000
C2B C -0.31775(25) -0.74030(18) -1.0000
C3B C -0.40650(25) -0.75545(18) -1.0000
H1B H -0.4560 -0.8155 -1.0000
O5G O 0.07640(10) -0.09230(15) -0.59865(12)
C6G C 0.0765(6) -0.1987(8) -0.7478(8)
H2G H 0.1304 -0.1706 -0.7126
C7G C 0.0736(7) -0.2410(9) -0.8272(8)
H3G H 0.1263 -0.2419 -0.8460
Zn1A Zn 0.34735(2) 0.34735(2) -1.0000
Cr1A Cr 0.11341(4) 0.00000(6) -0.5000
O2A O 0.23272(16) 0.00000(23) -0.5000
O3A_2 O 0.41710(12) 0.21988(18) -1.0000
O4A_2 O 0.47239(12) 0.36973(17) -1.0000
C1A_2 C 0.48020(18) 0.29882(25) -1.0000
C2A_2 C 0.57745(18) 0.31775(25) -1.0000
C3A_2 C 0.65105(18) 0.40650(25) -1.0000
H1A_2 H 0.6405 0.4560 -1.0000
O5A O 0.16870(11) 0.09230(15) -0.59865(12)
C4A C 0.14829(17) 0.14829(17) -0.6305(2)
C5A C 0.19668(19) 0.19668(19) -0.7178(2)
N1A N 0.28167(14) 0.28167(14) -0.88065(19)
C6A C 0.2752(6) 0.1987(8) -0.7478(8)
H2A H 0.3010 0.1706 -0.7126
C7A C 0.3146(6) 0.2410(9) -0.8272(8)
H3A H 0.3682 0.2419 -0.8460
O3B_2 O 0.78012(18) 0.19722(13) -1.0000
O4B_2 O 0.63027(17) 0.10266(12) -1.0000
C1B_2 C 0.70118(25) 0.18138(18) -1.0000
C2B_2 C 0.68225(25) 0.25970(18) -1.0000
C3B_2 C 0.59350(25) 0.24455(18) -1.0000
H1B_2 H 0.5440 0.1845 -1.0000
O3_2 O 0.80278(13) 0.58290(12) -1.0000
O4_2 O 0.89734(12) 0.52761(12) -1.0000
C1_2 C 0.81862(18) 0.51980(18) -1.0000
C2_2 C 0.74030(18) 0.42255(18) -1.0000
C3_2 C 0.75545(18) 0.34895(18) -1.0000
H1_2 H 0.8155 0.3595 -1.0000
O5H O 0.09230(15) 0.16870(11) -0.59865(12)
C6H C 0.1987(8) 0.2752(6) -0.7478(8)
H2H H 0.1706 0.3010 -0.7126
C7H C 0.2410(9) 0.3146(6) -0.8272(8)
H3H H 0.2419 0.3682 -0.8460
Zn1B Zn -0.34735(2) 0.0000 -1.0000
Cr1B Cr -0.00000(6) 0.11341(4) -0.5000
O2B O -0.00000(23) 0.23272(16) -0.5000
O5B O -0.09230(15) 0.07640(10) -0.59865(12)
C4B C -0.14829(17) 0.0000 -0.6305(2)
C5B C -0.19668(19) 0.0000 -0.7178(2)
N1B N -0.28167(14) 0.0000 -0.88065(19)
C6B C -0.1987(8) 0.0765(6) -0.7478(8)
H2B H -0.1706 0.1304 -0.7126
C7B C -0.2410(9) 0.0736(7) -0.8272(8)
H3B H -0.2419 0.1263 -0.8460
O5F O -0.16870(11) -0.07640(10) -0.59865(12)
C6F C -0.2752(6) -0.0765(6) -0.7478(8)
H2F H -0.3010 -0.1304 -0.7126
C7F C -0.3146(6) -0.0736(7) -0.8272(8)
H3F H -0.3682 -0.1263 -0.8460
O5I O -0.07640(10) -0.16870(11) -1.40135(12)
C4D C 0.0000 -0.14829(17) -1.3695(2)
C5D C 0.0000 -0.19668(19) -1.2822(2)
N1D N 0.0000 -0.28167(14) -1.11935(19)
C6I C -0.0765(6) -0.2752(6) -1.2522(8)
H2I H -0.1304 -0.3010 -1.2874
C7I C -0.0736(7) -0.3146(6) -1.1728(8)
H3I H -0.1263 -0.3682 -1.1540
O5D O 0.07640(10) -0.09230(15) -1.40135(12)
C6D C 0.0765(6) -0.1987(8) -1.2522(8)
H2D H 0.1304 -0.1706 -1.2874
C7D C 0.0736(7) -0.2410(9) -1.1728(8)
H3D H 0.1263 -0.2419 -1.1540
O5E O -0.16870(11) -0.07640(10) -0.40135(12)
C4E C -0.14829(17) -0.0000 -0.3695(2)
C5E C -0.19668(19) 0.0000 -0.2822(2)
N1E N -0.28167(14) -0.0000 -0.11935(19)
C6E C -0.2752(6) -0.0765(6) -0.2522(8)
H2E H -0.3010 -0.1304 -0.2874
C7E C -0.3146(6) -0.0736(7) -0.1728(8)
H3E H -0.3682 -0.1263 -0.1540
O5J O -0.09230(15) 0.07640(10) -0.40135(12)
C6J C -0.1987(8) 0.0765(6) -0.2522(8)
H2J H -0.1706 0.1304 -0.2874
C7J C -0.2410(9) 0.0736(7) -0.1728(8)
H3J H -0.2419 0.1263 -0.1540
O5I_2 O -0.07640(10) -0.16870(11) -0.40135(12)
C4D_2 C 0.0000 -0.14829(17) -0.3695(2)
C5D_2 C 0.0000 -0.19668(19) -0.2822(2)
N1D_2 N 0.0000 -0.28167(14) -0.11935(19)
C6I_2 C -0.0765(6) -0.2752(6) -0.2522(8)
H2I_2 H -0.1304 -0.3010 -0.2874
C7I_2 C -0.0736(7) -0.3146(6) -0.1728(8)
H3I_2 H -0.1263 -0.3682 -0.1540
O5D_2 O 0.07640(10) -0.09230(15) -0.40135(12)
C6D_2 C 0.0765(6) -0.1987(8) -0.2522(8)
H2D_2 H 0.1304 -0.1706 -0.2874
C7D_2 C 0.0736(7) -0.2410(9) -0.1728(8)
H3D_2 H 0.1263 -0.2419 -0.1540
Zn1_2 Zn 0.0000 -0.34735(2) 0.0000
Zn1_3 Zn 1.0000 0.65265(2) -1.0000
Zn1A_2 Zn -0.65265(2) -0.65265(2) -1.0000
Zn1B_2 Zn -0.34735(2) -1.0000 -1.0000
Zn1B_3 Zn -0.34735(2) 0.0000 0.0000
Zn1B_4 Zn 0.65265(2) 0.0000 -1.0000
Cr1_2 Cr -0.11341(4) -0.11341(4) -1.5000
Cr1A_2 Cr 0.11341(4) 0.00000(6) -1.5000
O4B_3 O -0.36973(17) 0.10266(12) -1.0000
O4C O 0.36973(17) 0.47239(12) -1.0000
O4D O 0.10266(12) -0.36973(17) -1.0000
O4E O -0.47239(12) -0.10266(12) -1.0000
O5C O 0.09230(15) 0.16870(11) -0.40135(12)
O5K O 0.16870(11) 0.09230(15) -0.40135(12)
N1C N 0.28167(14) 0.28167(14) -1.11935(19)
N1E_2 N -0.28167(14) 0.0000 -1.11935(19)
loop_
_geom_bond_atom_site_label_1
_geom_bond_atom_site_label_2
_geom_bond_site_symmetry_1
_geom_bond_site_symmetry_2
Zn1 O4 1_555 1_555
Cr1 O1 1_555 1_555
O1 Cr1A 1_555 1_555
O2 Cr1 1_555 1_555
O3 C1 1_555 1_555
O4 C1 1_555 1_555
C1 C2 1_555 1_555
C2 C3 1_555 1_555
C3 H1 1_555 1_555
O5 Cr1 1_555 1_555
C4 O5 1_555 1_555
C5 C4 1_555 1_555
N1 Zn1 1_555 1_555
C6 C5 1_555 1_555
H2 C6 1_555 1_555
C7 N1 1_555 1_555
H3 C7 1_555 1_555
O3A C1A 1_555 1_555
O4A C1A 1_555 1_555
C1A C2A 1_555 1_555
C2A C3A 1_555 1_555
C3A C2 1_555 1_555
H1A C3A 1_555 1_555
O3B C1B 1_555 1_555
O4B C1B 1_555 1_555
C1B C2B 1_555 1_555
C2B C3 1_555 1_555
C3B C2A 1_555 1_555
H1B C3B 1_555 1_555
O5G C4 1_555 1_555
C6G C5 1_555 1_555
H2G C6G 1_555 1_555
C7G N1 1_555 1_555
H3G C7G 1_555 1_555
Zn1A O4A_2 1_555 1_555
Cr1A O5G 1_555 1_555
O2A Cr1A 1_555 1_555
O3A_2 C1A_2 1_555 1_555
O4A_2 C1A_2 1_555 1_555
C1A_2 C2A_2 1_555 1_555
C2A_2 C3A_2 1_555 1_555
C3A_2 H1A_2 1_555 1_555
O5A Cr1A 1_555 1_555
C4A O5A 1_555 1_555
C5A C4A 1_555 1_555
N1A Zn1A 1_555 1_555
C6A C5A 1_555 1_555
H2A C6A 1_555 1_555
C7A N1A 1_555 1_555
H3A C7A 1_555 1_555
O3B_2 C1B_2 1_555 1_555
O4B_2 C1B_2 1_555 1_555
C1B_2 C2B_2 1_555 1_555
C2B_2 C3B_2 1_555 1_555
C3B_2 C2A_2 1_555 1_555
H1B_2 C3B_2 1_555 1_555
O3_2 C1_2 1_555 1_555
O4_2 C1_2 1_555 1_555
C1_2 C2_2 1_555 1_555
C2_2 C3A_2 1_555 1_555
C3_2 C2B_2 1_555 1_555
H1_2 C3_2 1_555 1_555
O5H C4A 1_555 1_555
C6H C5A 1_555 1_555
H2H C6H 1_555 1_555
C7H N1A 1_555 1_555
H3H C7H 1_555 1_555
Zn1B N1B 1_555 1_555
Cr1B O1 1_555 1_555
O2B Cr1B 1_555 1_555
O5B Cr1B 1_555 1_555
C4B O5B 1_555 1_555
C5B C4B 1_555 1_555
N1B C7B 1_555 1_555
C6B C5B 1_555 1_555
H2B C6B 1_555 1_555
C7B C6B 1_555 1_555
H3B C7B 1_555 1_555
O5F Cr1 1_555 1_555
C6F C5B 1_555 1_555
H2F C6F 1_555 1_555
C7F N1B 1_555 1_555
H3F C7F 1_555 1_555
O5I C4D 1_555 1_555
C4D C5D 1_555 1_555
C5D C6I 1_555 1_555
N1D Zn1 1_555 1_555
C6I H2I 1_555 1_555
C7I N1D 1_555 1_555
H3I C7I 1_555 1_555
O5D C4D 1_555 1_555
C6D C5D 1_555 1_555
H2D C6D 1_555 1_555
C7D N1D 1_555 1_555
H3D C7D 1_555 1_555
O5E Cr1 1_555 1_555
C4E O5E 1_555 1_555
C5E C4E 1_555 1_555
N1E C7E 1_555 1_555
C6E C5E 1_555 1_555
H2E C6E 1_555 1_555
C7E C6E 1_555 1_555
H3E C7E 1_555 1_555
O5J Cr1B 1_555 1_555
C6J C5E 1_555 1_555
H2J C6J 1_555 1_555
C7J N1E 1_555 1_555
H3J C7J 1_555 1_555
O5I_2 Cr1 1_555 1_555
C4D_2 O5I_2 1_555 1_555
C5D_2 C4D_2 1_555 1_555
N1D_2 C7I_2 1_555 1_555
C6I_2 C5D_2 1_555 1_555
H2I_2 C6I_2 1_555 1_555
C7I_2 C6I_2 1_555 1_555
H3I_2 C7I_2 1_555 1_555
O5D_2 Cr1A 1_555 1_555
C6D_2 C5D_2 1_555 1_555
H2D_2 C6D_2 1_555 1_555
C7D_2 N1D_2 1_555 1_555
H3D_2 C7D_2 1_555 1_555
Zn1_2 N1D_2 1_555 1_555
Zn1_3 O4_2 1_555 1_555
Zn1A_2 O4A 1_555 1_555
Zn1B_2 O4B 1_555 1_555
Zn1B_3 N1E 1_555 1_555
Zn1B_4 O4B_2 1_555 1_555
Cr1_2 O5I 1_555 1_555
Cr1A_2 O5D 1_555 1_555
O4B_3 Zn1B 1_555 1_555
O4C Zn1A 1_555 1_555
O4D Zn1 1_555 1_555
O4E Zn1B 1_555 1_555
O5C Cr1B 1_555 1_555
O5K Cr1A 1_555 1_555
N1C Zn1A 1_555 1_555
N1E_2 Zn1B 1_555 1_555
C6 C7 1_555 1_555
C2B C3B 1_555 1_555
C6G C7G 1_555 1_555
C6A C7A 1_555 1_555
C2_2 C3_2 1_555 1_555
O5H Cr1B 1_555 1_555
C6H C7H 1_555 1_555
C4B O5F 1_555 1_555
C6F C7F 1_555 1_555
C6I C7I 1_555 1_555
C6D C7D 1_555 1_555
C4E O5J 1_555 1_555
C6J C7J 1_555 1_555
C4D_2 O5D_2 1_555 1_555
C6D_2 C7D_2 1_555 1_555

#END
