
#######################################################################
#
#                 Cambridge Crystallographic Data Centre
#                                CCDC 
#
#######################################################################
#
# If this CIF has been generated from an entry in the Cambridge 
# Structural Database, then it will include bibliographic, chemical, 
# crystal, experimental, refinement or atomic coordinate data resulting 
# from the CCDC's data processing and validation procedures.
#
#######################################################################

data_AHOMOB
_chemical_formula_moiety         'C29 H25 N7 O15 Zn6'
_symmetry_cell_setting           monoclinic
_symmetry_space_group_name_H-M   'P 21/c'
_symmetry_Int_Tables_number      14
_space_group_name_Hall           '-P 2ybc'
loop_
_symmetry_equiv_pos_site_id
_symmetry_equiv_pos_as_xyz
1 x,y,z
2 -x,1/2+y,1/2-z
3 -x,-y,-z
4 x,1/2-y,1/2+z
_cell_length_a                   14.521(3)
_cell_length_b                   7.7378(15)
_cell_length_c                   15.997(3)
_cell_angle_alpha                90
_cell_angle_beta                 106.40(3)
_cell_angle_gamma                90
_cell_volume                     1724.3
loop_
_atom_site_label
_atom_site_type_symbol
_atom_site_fract_x
_atom_site_fract_y
_atom_site_fract_z
O5 O 0.4476(6) 0.6111(10) 0.2995(5)
N4 N 0.3412(6) 0.7783(11) 0.2002(5)
C14 C 0.3848(7) 0.7484(14) 0.1316(6)
H10 H 0.3498 0.8131 0.0796
H11 H 0.3825 0.6247 0.1180
H12 H 0.4517 0.7870 0.1502
C15 C 0.2592(6) 0.9034(11) 0.1820(6)
H13 H 0.2445 0.9429 0.1215
H14 H 0.2768 1.0027 0.2213
H15 H 0.2027 0.8463 0.1913
C16 C 0.3759(7) 0.7079(12) 0.2789(5)
H16 H 0.3442 0.7329 0.3219
Zn1 Zn 0.14305(3) 0.50231(5) 0.30977(2)
N1 N 0.2634(11) 0.3794(19) 0.3785(11)
O1 O 0.14381(16) 0.4698(3) 0.18959(13)
N2 N 0.02763(19) 0.3854(3) 0.33717(15)
O2 O 0.15426(17) 0.6579(3) 0.45083(13)
O3 O 0.12664(16) 0.7571(3) 0.31651(13)
C1 C 0.3091(4) 0.2725(8) 0.3348(4)
C2 C 0.2915(6) 0.3745(10) 0.4641(5)
C3 C 0.0594(2) 0.2476(4) 0.39971(18)
H1 H -0.0129 0.3414 0.2867
H2 H -0.0059 0.4660 0.3592
H3 H 0.2896 0.2744 0.2729
C4 C 0.3819(5) 0.1626(8) 0.3764(4)
C5 C 0.3645(5) 0.2683(10) 0.5115(5)
H4 H 0.2600 0.4475 0.4951
C6 C 0.0718(2) 0.2748(4) 0.48797(18)
C7 C 0.0822(2) 0.0891(4) 0.37011(18)
H5 H 0.4123 0.0901 0.3443
C8 C 0.4097(10) 0.1611(17) 0.4674(10)
H6 H 0.3830 0.2699 0.5734
C9 C 0.1054(2) 0.1397(4) 0.54640(18)
H7 H 0.0575 0.3841 0.5084
H8 H 0.0758 0.0729 0.3099
C10 C 0.1142(2) -0.0454(4) 0.42808(18)
N3 N 0.4847(6) 0.0529(11) 0.5199(6)
C11 C 0.1261(2) -0.0197(4) 0.51698(18)
C12 C 0.1133(2) 0.1637(4) 0.64228(18)
C13 C 0.1336(2) -0.2211(4) 0.39846(19)
H9 H 0.1483 -0.1114 0.5571
O4 O 0.09187(17) 0.3030(3) 0.66932(13)
N3B N 0.5153(6) -0.0529(11) 0.4801(6)
O1C O 0.14381(16) 0.0302(3) 0.68959(13)
O3_2 O 0.12664(16) -0.2429(3) 0.31651(13)
O2_2 O 0.15426(17) -0.3421(3) 0.45083(13)
C8B C 0.5903(10) -0.1611(17) 0.5326(10)
Zn1C Zn 0.14305(3) -0.00231(5) 0.80977(2)
Zn1_2 Zn 0.14305(3) -0.49769(5) 0.30977(2)
C4B C 0.6181(5) -0.1626(8) 0.6236(4)
C5B C 0.6355(5) -0.2683(10) 0.4885(5)
C1B C 0.6909(4) -0.2725(8) 0.6652(4)
H5B H 0.5877 -0.0901 0.6557
H6B H 0.6170 -0.2699 0.4266
C2B C 0.7085(6) -0.3745(10) 0.5359(5)
H3B H 0.7104 -0.2744 0.7271
N1B N 0.7366(11) -0.3794(19) 0.6215(11)
H4B H 0.7400 -0.4475 0.5049
Zn1B Zn 0.85695(3) -0.50231(5) 0.69023(2)
O1B O 0.85619(16) -0.4698(3) 0.81041(13)
N2B N 0.97237(19) -0.3854(3) 0.66283(15)
O2B O 0.84574(17) -0.6579(3) 0.54917(13)
O3B O 0.87336(16) -0.7571(3) 0.68349(13)
C3B C 0.9406(2) -0.2476(4) 0.60029(18)
H1B H 1.0129 -0.3414 0.7133
H2B H 1.0059 -0.4660 0.6408
C6B C 0.9282(2) -0.2748(4) 0.51203(18)
C7B C 0.9178(2) -0.0891(4) 0.62989(18)
C9B C 0.8946(2) -0.1397(4) 0.45360(18)
H7B H 0.9425 -0.3841 0.4916
H8B H 0.9242 -0.0729 0.6901
C10B C 0.8858(2) 0.0454(4) 0.57192(18)
C11B C 0.8739(2) 0.0197(4) 0.48302(18)
C12B C 0.8867(2) -0.1637(4) 0.35772(18)
C13B C 0.8664(2) 0.2211(4) 0.60154(19)
H9B H 0.8517 0.1114 0.4429
O4B O 0.90813(17) -0.3030(3) 0.33068(13)
O1A O 0.85619(16) -0.0302(3) 0.31041(13)
O3B_2 O 0.87336(16) 0.2429(3) 0.68349(13)
O2B_2 O 0.84574(17) 0.3421(3) 0.54917(13)
Zn1A Zn 0.85695(3) 0.00231(5) 0.19023(2)
Zn1B_2 Zn 0.85695(3) 0.49769(5) 0.69023(2)
loop_
_geom_bond_atom_site_label_1
_geom_bond_atom_site_label_2
_geom_bond_site_symmetry_1
_geom_bond_site_symmetry_2
Zn1 N1 1_555 1_555
N1 C1 1_555 1_555
O1 Zn1 1_555 1_555
N2 Zn1 1_555 1_555
O2 Zn1 1_555 1_555
O3 Zn1 1_555 1_555
C1 H3 1_555 1_555
C2 N1 1_555 1_555
C3 N2 1_555 1_555
H1 N2 1_555 1_555
H2 N2 1_555 1_555
C4 C1 1_555 1_555
C5 C2 1_555 1_555
H4 C2 1_555 1_555
C6 C3 1_555 1_555
C7 C3 1_555 1_555
H5 C4 1_555 1_555
C8 C4 1_555 1_555
H6 C5 1_555 1_555
C9 C6 1_555 1_555
H7 C6 1_555 1_555
H8 C7 1_555 1_555
C10 C7 1_555 1_555
N3 C8 1_555 1_555
C11 C9 1_555 1_555
C12 C9 1_555 1_555
C13 C10 1_555 1_555
H9 C11 1_555 1_555
O4 C12 1_555 1_555
O5 C16 1_555 1_555
N4 C14 1_555 1_555
C14 H10 1_555 1_555
H11 C14 1_555 1_555
H12 C14 1_555 1_555
C15 N4 1_555 1_555
H13 C15 1_555 1_555
H14 C15 1_555 1_555
H15 C15 1_555 1_555
C16 N4 1_555 1_555
H16 C16 1_555 1_555
N3B N3 1_555 1_555
O1C C12 1_555 1_555
O3_2 C13 1_555 1_555
O2_2 C13 1_555 1_555
C8B N3B 1_555 1_555
Zn1C O1C 1_555 1_555
Zn1_2 O3_2 1_555 1_555
C4B C8B 1_555 1_555
C5B C8B 1_555 1_555
C1B C4B 1_555 1_555
H5B C4B 1_555 1_555
H6B C5B 1_555 1_555
C2B C5B 1_555 1_555
H3B C1B 1_555 1_555
N1B C1B 1_555 1_555
H4B C2B 1_555 1_555
Zn1B N1B 1_555 1_555
O1B Zn1B 1_555 1_555
N2B Zn1B 1_555 1_555
O2B Zn1B 1_555 1_555
O3B Zn1B 1_555 1_555
C3B N2B 1_555 1_555
H1B N2B 1_555 1_555
H2B N2B 1_555 1_555
C6B C3B 1_555 1_555
C7B C3B 1_555 1_555
C9B C6B 1_555 1_555
H7B C6B 1_555 1_555
H8B C7B 1_555 1_555
C10B C7B 1_555 1_555
C11B C9B 1_555 1_555
C12B C9B 1_555 1_555
C13B C10B 1_555 1_555
H9B C11B 1_555 1_555
O4B C12B 1_555 1_555
O1A C12B 1_555 1_555
O3B_2 C13B 1_555 1_555
O2B_2 C13B 1_555 1_555
Zn1A O1A 1_555 1_555
Zn1B_2 O3B_2 1_555 1_555
C5 C8 1_555 1_555
C10 C11 1_555 1_555
O2_2 Zn1_2 1_555 1_555
C2B N1B 1_555 1_555
C10B C11B 1_555 1_555
O2B_2 Zn1B_2 1_555 1_555

#END
