
#######################################################################
#
#                 Cambridge Crystallographic Data Centre
#                                CCDC 
#
#######################################################################
#
# If this CIF has been generated from an entry in the Cambridge 
# Structural Database, then it will include bibliographic, chemical, 
# crystal, experimental, refinement or atomic coordinate data resulting 
# from the CCDC's data processing and validation procedures.
#
#######################################################################

data_QIYDIN01
_chemical_formula_moiety         '(C132 H72 Cu6 O30)n'
_symmetry_cell_setting           monoclinic
_symmetry_space_group_name_H-M   'C 2/c'
_symmetry_Int_Tables_number      15
_space_group_name_Hall           '-C 2yc'
loop_
_symmetry_equiv_pos_site_id
_symmetry_equiv_pos_as_xyz
1 x,y,z
2 -x,y,1/2-z
3 1/2+x,1/2+y,z
4 1/2-x,1/2+y,1/2-z
5 -x,-y,-z
6 x,-y,1/2+z
7 1/2-x,1/2-y,-z
8 1/2+x,1/2-y,1/2+z
_cell_length_a                   47.493(2)
_cell_length_b                   51.7515(19)
_cell_length_c                   32.9674(14)
_cell_angle_alpha                90
_cell_angle_beta                 92.690(4)
_cell_angle_gamma                90
_cell_volume                     80939.1
loop_
_atom_site_label
_atom_site_type_symbol
_atom_site_fract_x
_atom_site_fract_y
_atom_site_fract_z
Cu1 Cu 0.14008(2) 0.85379(2) 0.27209(3)
Cu2 Cu 0.18212(2) 0.88685(2) 0.27657(3)
Cu3 Cu 0.38836(2) 0.87637(2) 0.79145(3)
Cu4 Cu 0.43214(2) 0.84531(2) 0.79568(3)
Cu5 Cu 0.78388(2) 1.00307(2) 0.58515(3)
Cu6 Cu 0.77829(2) 1.00119(2) 0.50545(3)
O1 O 0.16667(11) 0.83294(8) 0.30682(14)
O2 O 0.19932(8) 0.86364(9) 0.31654(13)
O3 O 1.12253(9) 1.11922(8) 0.73723(14)
O4 O 1.16082(10) 1.09334(8) 0.73774(14)
O5 O 0.15802(12) 0.83902(8) 1.22613(15)
O6 O 0.19596(10) 0.86364(9) 1.23463(15)
O7 O 1.12741(9) 0.87147(8) 0.31849(14)
O8 O 1.16043(10) 0.90302(7) 0.31894(14)
O9 O 0.10525(9) 0.82727(8) 0.27151(14)
H1 H 0.1054 0.8167 0.2472
H2 H 0.0877 0.8369 0.2717
O10 O 0.21762(9) 0.91450(7) 0.28406(18)
H3 H 0.2309 0.9114 0.2632
H4 H 0.2270 0.9121 0.3106
O11 O 0.37712(10) 0.85568(9) 0.74381(15)
O12 O 0.41366(11) 0.82736(8) 0.74980(14)
O13 O 0.40601(10) 1.10800(8) 0.34016(14)
O14 O 0.44483(9) 1.13204(8) 0.34024(13)
O15 O 0.41184(10) 0.89728(8) 0.75851(15)
O16 O 0.44829(8) 0.87019(9) 0.75814(12)
O17 O 0.37161(12) 0.85096(10) 0.82529(16)
O18 O 0.40854(12) 0.82524(8) 0.83317(14)
O19 O 0.35340(9) 0.90210(8) 0.78782(16)
H5 H 0.3468 0.9040 0.7597
H6 H 0.3591 0.9188 0.7986
O20 O 0.47218(12) 0.82291(8) 0.80121(14)
H7 H 0.4877 0.8345 0.8081
H8 H 0.4754 0.8144 0.7756
O21 O 0.74418(9) 1.00661(8) 0.58384(17)
O22 O 0.73870(9) 1.00802(7) 0.51578(16)
O23 O 0.82380(9) 0.99848(8) 0.57772(17)
O24 O 0.81914(10) 0.99341(7) 0.51112(17)
O25 O 0.28872(8) 0.54075(8) 0.57471(16)
O26 O 0.28615(9) 0.53787(8) 0.50864(17)
O27 O 0.27961(9) 0.53477(8) 1.07987(16)
O28 O 0.27147(9) 0.53537(8) 1.01305(16)
O29 O 0.79411(12) 1.00830(8) 0.65270(14)
H9 H 0.7820 1.0216 0.6633
H10 H 0.8137 1.0134 0.6570
O30 O 0.77491(9) 0.99976(8) 0.43962(13)
H11 H 0.7773 1.0170 0.4288
H12 H 0.7894 0.9885 0.4298
C1 C 0.18929(18) 0.84001(16) 0.3229(2)
C2 C 0.20761(12) 0.82342(11) 0.34658(14)
C3 C 0.20041(10) 0.79749(12) 0.34966(16)
H13 H 0.1844 0.7911 0.3350
C4 C 0.21681(14) 0.78106(7) 0.37434(19)
H14 H 0.2119 0.7635 0.3764
C5 C 0.24042(13) 0.79058(11) 0.39596(15)
C6 C 0.24762(10) 0.81651(12) 0.39289(16)
H15 H 0.2636 0.8229 0.4075
C7 C 0.23122(13) 0.83294(7) 0.36820(17)
H16 H 0.2361 0.8505 0.3661
C8 C 0.2571(2) 0.77383(14) 0.4252(3)
C9 C 0.26973(19) 0.76178(13) 0.4504(3)
C10 C 0.28588(10) 0.74893(10) 0.48051(15)
C11 C 0.30125(12) 0.76359(6) 0.50909(18)
H17 H 0.3008 0.7817 0.5076
C12 C 0.31731(11) 0.75144(10) 0.53984(15)
C13 C 0.31799(10) 0.72462(10) 0.54201(14)
H18 H 0.3289 0.7164 0.5628
C14 C 0.30262(12) 0.70996(6) 0.51343(17)
C15 C 0.28656(10) 0.72211(10) 0.48268(14)
H19 H 0.2762 0.7122 0.4634
C16 C 0.33060(18) 0.76601(15) 0.5719(3)
C17 C 0.3423(2) 0.77870(15) 0.6018(3)
C18 C 0.35556(16) 0.79320(13) 0.63296(17)
C19 C 0.34344(12) 0.81655(15) 0.6435(2)
H20 H 0.3276 0.8228 0.6285
C20 C 0.35481(16) 0.83063(10) 0.6763(2)
H21 H 0.3466 0.8464 0.6834
C21 C 0.37830(15) 0.82136(14) 0.69843(16)
C22 C 0.39042(11) 0.79801(16) 0.6879(2)
H22 H 0.4063 0.7917 0.7028
C23 C 0.37906(16) 0.78393(10) 0.6551(2)
H23 H 0.3873 0.7681 0.6480
C24 C 0.3896(2) 0.83558(18) 0.7335(2)
C25 C 0.30135(15) 0.68231(14) 0.5177(2)
C26 C 0.29999(15) 0.65880(14) 0.5241(2)
C27 C 0.29864(10) 0.63230(7) 0.5283(2)
C28 C 0.29231(10) 0.61717(11) 0.49427(14)
H24 H 0.2902 0.6249 0.4685
C29 C 0.28916(10) 0.59060(10) 0.49832(15)
H25 H 0.2849 0.5804 0.4753
C30 C 0.29234(9) 0.57917(6) 0.53642(19)
C31 C 0.29867(9) 0.59431(10) 0.57046(14)
H26 H 0.3008 0.5866 0.5962
C32 C 0.30182(9) 0.62088(10) 0.56641(15)
H27 H 0.3061 0.6311 0.5894
C33 C 0.28883(15) 0.55161(13) 0.5410(4)
C34 C 0.4330(2) 0.89156(14) 0.74306(19)
C35 C 0.45045(14) 0.90814(11) 0.71858(14)
C36 C 0.43589(9) 0.92989(14) 0.70447(18)
H28 H 0.4174 0.9329 0.7123
C37 C 0.44867(14) 0.94717(10) 0.67881(18)
H29 H 0.4388 0.9619 0.6693
C38 C 0.47602(15) 0.94269(11) 0.66726(14)
C39 C 0.49058(9) 0.92093(14) 0.68137(18)
H30 H 0.5091 0.9179 0.6736
C40 C 0.47779(14) 0.90365(9) 0.70703(17)
H31 H 0.4876 0.8889 0.7166
C41 C 0.48868(16) 0.95980(17) 0.6422(2)
C42 C 0.49917(14) 0.97505(17) 0.6175(2)
C43 C 0.51122(14) 0.99361(9) 0.58978(15)
C44 C 0.54046(13) 0.99437(9) 0.58932(15)
H32 H 0.5514 0.9838 0.6071
C45 C 0.55352(8) 1.01071(11) 0.56253(19)
C46 C 0.53735(14) 1.02631(9) 0.53620(15)
H33 H 0.5462 1.0374 0.5181
C47 C 0.50811(14) 1.02555(9) 0.53666(14)
C48 C 0.49504(8) 1.00921(11) 0.56345(18)
H34 H 0.4753 1.0087 0.5638
C49 C 0.5841(2) 1.01165(13) 0.5609(3)
C50 C 0.6097(2) 1.01176(15) 0.5599(3)
C51 C 0.63956(9) 1.01242(10) 0.5585(3)
C52 C 0.65722(16) 1.01062(10) 0.59326(18)
H35 H 0.6495 1.0101 0.6190
C53 C 0.68626(15) 1.00961(9) 0.5899(2)
H36 H 0.6982 1.0084 0.6134
C54 C 0.69766(9) 1.01041(8) 0.5519(3)
C55 C 0.68000(18) 1.01221(10) 0.51715(18)
H37 H 0.6877 1.0128 0.4914
C56 C 0.65095(16) 1.01322(10) 0.5205(2)
H38 H 0.6390 1.0144 0.4970
C57 C 0.72859(13) 1.00845(11) 0.5519(4)
C58 C 0.49153(15) 1.04013(15) 0.5092(2)
C59 C 0.48009(16) 1.05407(15) 0.4861(3)
C60 C 0.46568(16) 1.07006(10) 0.45337(14)
C61 C 0.43801(15) 1.06589(9) 0.4393(2)
H39 H 0.4271 1.0532 0.4514
C62 C 0.42652(9) 1.08056(12) 0.4073(2)
H40 H 0.4078 1.0777 0.3978
C63 C 0.44270(15) 1.09940(10) 0.38940(14)
C64 C 0.47037(14) 1.10357(9) 0.40347(19)
H41 H 0.4813 1.1163 0.3914
C65 C 0.48186(9) 1.08890(12) 0.4355(2)
H42 H 0.5006 1.0917 0.4450
C66 C 0.43013(18) 1.11365(15) 0.3553(2)
C67 C 0.3824(2) 0.83196(19) 0.8398(3)
C68 C 0.36833(15) 0.81321(12) 0.86660(15)
C69 C 0.38136(11) 0.79140(14) 0.8834(2)
H43 H 0.3998 0.7871 0.8767
C70 C 0.36711(17) 0.77592(10) 0.9101(2)
H44 H 0.3759 0.7612 0.9215
C71 C 0.33983(17) 0.78226(13) 0.92006(17)
C72 C 0.32681(11) 0.80408(15) 0.9032(2)
H45 H 0.3084 0.8084 0.9100
C73 C 0.34106(16) 0.81955(11) 0.8765(2)
H46 H 0.3323 0.8343 0.8651
C74 C 0.32321(19) 0.76751(15) 0.9466(3)
C75 C 0.31105(18) 0.75658(14) 0.9715(3)
C76 C 0.29434(11) 0.74448(11) 1.00241(15)
C77 C 0.29294(10) 0.71775(10) 1.00602(15)
H47 H 0.3025 0.7072 0.9881
C78 C 0.27738(12) 0.70670(7) 1.03619(18)
C79 C 0.26321(11) 0.72237(11) 1.06275(15)
H48 H 0.2527 0.7149 1.0832
C80 C 0.26461(11) 0.74910(10) 1.05914(16)
C81 C 0.28018(12) 0.76015(7) 1.02897(19)
H49 H 0.2811 0.7782 1.0265
C82 C 0.27496(18) 0.68075(14) 1.0394(3)
C83 C 0.27319(17) 0.65564(17) 1.0421(2)
C84 C 0.27193(11) 0.62867(7) 1.0432(2)
C85 C 0.26840(11) 0.61454(12) 1.00745(15)
H50 H 0.2658 0.6231 0.9824
C86 C 0.26871(11) 0.58769(12) 1.00870(16)
H51 H 0.2663 0.5781 0.9845
C87 C 0.27256(10) 0.57498(7) 1.0457(2)
C88 C 0.27609(11) 0.58911(11) 1.08142(16)
H52 H 0.2787 0.5805 1.1064
C89 C 0.27578(12) 0.61596(11) 1.08016(16)
H53 H 0.2782 0.6255 1.1043
C90 C 0.27632(13) 0.54774(11) 1.0467(4)
C91 C 0.24988(18) 0.76592(15) 1.0844(3)
C92 C 0.23849(19) 0.78017(16) 1.1073(3)
C93 C 0.22394(17) 0.79729(13) 1.13389(17)
C94 C 0.19653(17) 0.79183(10) 1.1442(2)
H54 H 0.1871 0.7773 1.1330
C95 C 0.18304(10) 0.80780(15) 1.1711(2)
H55 H 0.1645 0.8041 1.1780
C96 C 0.19696(17) 0.82924(12) 1.18764(15)
C97 C 0.22438(17) 0.83470(10) 1.1773(2)
H56 H 0.2338 0.8492 1.1885
C98 C 0.23787(11) 0.81873(15) 1.1505(2)
H57 H 0.2564 0.8224 1.1435
C99 C 0.1828(2) 0.84552(18) 1.2166(2)
C100 C 0.83462(15) 0.99373(12) 0.5454(4)
C101 C 0.86407(9) 0.98816(8) 0.5432(2)
C102 C 0.87559(14) 0.97947(9) 0.50766(17)
H58 H 0.8639 0.9769 0.4842
C103 C 0.90433(15) 0.97457(8) 0.50689(17)
H59 H 0.9121 0.9687 0.4829
C104 C 0.92156(9) 0.97835(9) 0.5416(2)
C105 C 0.91004(15) 0.98704(9) 0.57715(17)
H60 H 0.9217 0.9896 0.6006
C106 C 0.88130(16) 0.99194(8) 0.57792(17)
H61 H 0.8735 0.9978 0.6019
C107 C 0.95202(17) 0.97649(13) 0.5387(3)
C108 C 0.97606(18) 0.97560(13) 0.5387(2)
C109 C 1.00734(8) 0.97671(11) 0.5400(2)
C110 C 1.02331(13) 0.96275(9) 0.51334(15)
H62 H 1.0144 0.9519 0.4939
C111 C 1.05252(13) 0.96488(9) 0.51547(16)
C112 C 1.06575(8) 0.98096(11) 0.54425(19)
H63 H 1.0855 0.9824 0.5457
C113 C 1.04978(14) 0.99492(9) 0.57091(15)
C114 C 1.02057(14) 0.99280(10) 0.56878(16)
H64 H 1.0098 1.0022 0.5868
C115 C 1.06754(16) 0.95172(14) 0.4861(3)
C116 C 1.08094(16) 0.94164(14) 0.4614(3)
C117 C 1.09687(14) 0.92837(11) 0.42952(13)
C118 C 1.08530(9) 0.90683(12) 0.40983(19)
H65 H 1.0679 0.9002 0.4175
C119 C 1.09946(13) 0.89509(8) 0.37880(17)
H66 H 1.0916 0.8805 0.3655
C120 C 1.12519(13) 0.90489(11) 0.36747(13)
C121 C 1.13675(9) 0.92643(11) 0.38717(19)
H67 H 1.1541 0.9331 0.3795
C122 C 1.12259(14) 0.93817(8) 0.41819(17)
H68 H 1.1304 0.9527 0.4315
C123 C 1.1402(2) 0.89332(18) 0.33346(19)
C124 C 1.06429(15) 1.01275(15) 0.5984(3)
C125 C 1.07575(16) 1.02855(18) 0.6203(2)
C126 C 1.09125(16) 1.04614(12) 0.64598(15)
C127 C 1.11936(16) 1.04207(9) 0.65787(18)
H69 H 1.1290 1.0276 0.6482
C128 C 1.13330(10) 1.05940(14) 0.68402(18)
H70 H 1.1523 1.0566 0.6921
C129 C 1.11911(15) 1.08081(11) 0.69828(14)
C130 C 1.09099(15) 1.08488(10) 0.68639(18)
H71 H 1.0814 1.0994 0.6960
C131 C 1.07706(10) 1.06755(15) 0.66024(19)
H72 H 1.0580 1.0703 0.6522
C132 C 1.1365(2) 1.09782(15) 0.7234(2)
Cu1_2 Cu 0.14008(2) 0.85379(2) 1.27209(3)
Cu1_3 Cu 1.14008(2) 0.85379(2) 0.27209(3)
Cu1E Cu 1.14008(2) 1.14621(2) 0.77209(3)
Cu2_2 Cu 0.18212(2) 0.88685(2) 1.27657(3)
Cu2_3 Cu 1.18212(2) 0.88685(2) 0.27657(3)
Cu2E Cu 1.18212(2) 1.11315(2) 0.77657(3)
Cu3E Cu 0.38836(2) 1.12363(2) 0.29145(3)
Cu4E Cu 0.43214(2) 1.15469(2) 0.29568(3)
Cu5B Cu 0.28388(2) 0.50307(2) 0.58515(3)
Cu5G Cu 0.28388(2) 0.49693(2) 1.08515(3)
Cu6B Cu 0.27829(2) 0.50119(2) 0.50545(3)
Cu6G Cu 0.27829(2) 0.49881(2) 1.00545(3)
O3E O 0.12253(9) 0.88078(8) 0.23723(14)
O4E O 0.16082(10) 0.90666(8) 0.23774(14)
O5_2 O 0.15802(12) 0.83902(8) 0.22613(15)
O6_2 O 0.19596(10) 0.86364(9) 0.23463(15)
O7_2 O 0.12741(9) 0.87147(8) 0.31849(14)
O8_2 O 0.16043(10) 0.90302(7) 0.31894(14)
O13E O 0.40601(10) 0.89200(8) 0.84016(14)
O14E O 0.44483(9) 0.86796(8) 0.84024(13)
O25B O 0.78872(8) 1.04075(8) 0.57471(16)
O26B O 0.78615(9) 1.03787(8) 0.50864(17)
O27G O 0.77961(9) 0.96523(8) 0.57987(16)
O28G O 0.77147(9) 0.96463(8) 0.51305(16)
loop_
_geom_bond_atom_site_label_1
_geom_bond_atom_site_label_2
_geom_bond_site_symmetry_1
_geom_bond_site_symmetry_2
Cu1 O1 1_555 1_555
Cu2 O2 1_555 1_555
Cu3 O11 1_555 1_555
Cu4 O12 1_555 1_555
Cu5 O21 1_555 1_555
Cu6 O22 1_555 1_555
O1 C1 1_555 1_555
O2 C1 1_555 1_555
O3 C132 1_555 1_555
O4 C132 1_555 1_555
O5 C99 1_555 1_555
O6 C99 1_555 1_555
O7 C123 1_555 1_555
O8 C123 1_555 1_555
O9 Cu1 1_555 1_555
H1 O9 1_555 1_555
H2 O9 1_555 1_555
O10 Cu2 1_555 1_555
H3 O10 1_555 1_555
H4 O10 1_555 1_555
O11 C24 1_555 1_555
O12 C24 1_555 1_555
O13 C66 1_555 1_555
O14 C66 1_555 1_555
O15 Cu3 1_555 1_555
O16 Cu4 1_555 1_555
O17 Cu3 1_555 1_555
O18 Cu4 1_555 1_555
O19 Cu3 1_555 1_555
H5 O19 1_555 1_555
H6 O19 1_555 1_555
O20 Cu4 1_555 1_555
H7 O20 1_555 1_555
H8 O20 1_555 1_555
O21 C57 1_555 1_555
O22 C57 1_555 1_555
O23 Cu5 1_555 1_555
O24 Cu6 1_555 1_555
O25 C33 1_555 1_555
O26 C33 1_555 1_555
O27 C90 1_555 1_555
O28 C90 1_555 1_555
O29 Cu5 1_555 1_555
H9 O29 1_555 1_555
H10 O29 1_555 1_555
O30 Cu6 1_555 1_555
H11 O30 1_555 1_555
H12 O30 1_555 1_555
C1 C2 1_555 1_555
C2 C3 1_555 1_555
C3 H13 1_555 1_555
C4 C3 1_555 1_555
H14 C4 1_555 1_555
C5 C4 1_555 1_555
C6 C5 1_555 1_555
H15 C6 1_555 1_555
C7 C2 1_555 1_555
H16 C7 1_555 1_555
C8 C5 1_555 1_555
C9 C8 1_555 1_555
C10 C9 1_555 1_555
C11 C10 1_555 1_555
H17 C11 1_555 1_555
C12 C11 1_555 1_555
C13 C12 1_555 1_555
H18 C13 1_555 1_555
C14 C13 1_555 1_555
C15 C10 1_555 1_555
H19 C15 1_555 1_555
C16 C12 1_555 1_555
C17 C16 1_555 1_555
C18 C17 1_555 1_555
C19 C18 1_555 1_555
H20 C19 1_555 1_555
C20 C19 1_555 1_555
H21 C20 1_555 1_555
C21 C20 1_555 1_555
C22 C21 1_555 1_555
H22 C22 1_555 1_555
C23 C18 1_555 1_555
H23 C23 1_555 1_555
C24 C21 1_555 1_555
C25 C14 1_555 1_555
C26 C25 1_555 1_555
C27 C26 1_555 1_555
C28 C27 1_555 1_555
H24 C28 1_555 1_555
C29 C28 1_555 1_555
H25 C29 1_555 1_555
C30 C29 1_555 1_555
C31 C30 1_555 1_555
H26 C31 1_555 1_555
C32 C27 1_555 1_555
H27 C32 1_555 1_555
C33 C30 1_555 1_555
C34 O15 1_555 1_555
C35 C34 1_555 1_555
C36 C35 1_555 1_555
H28 C36 1_555 1_555
C37 C36 1_555 1_555
H29 C37 1_555 1_555
C38 C37 1_555 1_555
C39 C38 1_555 1_555
H30 C39 1_555 1_555
C40 C35 1_555 1_555
H31 C40 1_555 1_555
C41 C38 1_555 1_555
C42 C41 1_555 1_555
C43 C42 1_555 1_555
C44 C43 1_555 1_555
H32 C44 1_555 1_555
C45 C44 1_555 1_555
C46 C45 1_555 1_555
H33 C46 1_555 1_555
C47 C46 1_555 1_555
C48 C43 1_555 1_555
H34 C48 1_555 1_555
C49 C45 1_555 1_555
C50 C49 1_555 1_555
C51 C50 1_555 1_555
C52 C51 1_555 1_555
H35 C52 1_555 1_555
C53 C52 1_555 1_555
H36 C53 1_555 1_555
C54 C53 1_555 1_555
C55 C54 1_555 1_555
H37 C55 1_555 1_555
C56 C51 1_555 1_555
H38 C56 1_555 1_555
C57 C54 1_555 1_555
C58 C47 1_555 1_555
C59 C58 1_555 1_555
C60 C59 1_555 1_555
C61 C60 1_555 1_555
H39 C61 1_555 1_555
C62 C61 1_555 1_555
H40 C62 1_555 1_555
C63 C62 1_555 1_555
C64 C63 1_555 1_555
H41 C64 1_555 1_555
C65 C60 1_555 1_555
H42 C65 1_555 1_555
C66 C63 1_555 1_555
C67 O17 1_555 1_555
C68 C67 1_555 1_555
C69 C68 1_555 1_555
H43 C69 1_555 1_555
C70 C69 1_555 1_555
H44 C70 1_555 1_555
C71 C70 1_555 1_555
C72 C71 1_555 1_555
H45 C72 1_555 1_555
C73 C68 1_555 1_555
H46 C73 1_555 1_555
C74 C71 1_555 1_555
C75 C74 1_555 1_555
C76 C75 1_555 1_555
C77 C76 1_555 1_555
H47 C77 1_555 1_555
C78 C77 1_555 1_555
C79 C78 1_555 1_555
H48 C79 1_555 1_555
C80 C79 1_555 1_555
C81 C76 1_555 1_555
H49 C81 1_555 1_555
C82 C78 1_555 1_555
C83 C82 1_555 1_555
C84 C83 1_555 1_555
C85 C84 1_555 1_555
H50 C85 1_555 1_555
C86 C85 1_555 1_555
H51 C86 1_555 1_555
C87 C86 1_555 1_555
C88 C87 1_555 1_555
H52 C88 1_555 1_555
C89 C84 1_555 1_555
H53 C89 1_555 1_555
C90 C87 1_555 1_555
C91 C80 1_555 1_555
C92 C91 1_555 1_555
C93 C92 1_555 1_555
C94 C93 1_555 1_555
H54 C94 1_555 1_555
C95 C94 1_555 1_555
H55 C95 1_555 1_555
C96 C95 1_555 1_555
C97 C96 1_555 1_555
H56 C97 1_555 1_555
C98 C93 1_555 1_555
H57 C98 1_555 1_555
C99 C96 1_555 1_555
C100 O23 1_555 1_555
C101 C100 1_555 1_555
C102 C101 1_555 1_555
H58 C102 1_555 1_555
C103 C102 1_555 1_555
H59 C103 1_555 1_555
C104 C103 1_555 1_555
C105 C104 1_555 1_555
H60 C105 1_555 1_555
C106 C101 1_555 1_555
H61 C106 1_555 1_555
C107 C104 1_555 1_555
C108 C107 1_555 1_555
C109 C108 1_555 1_555
C110 C109 1_555 1_555
H62 C110 1_555 1_555
C111 C110 1_555 1_555
C112 C111 1_555 1_555
H63 C112 1_555 1_555
C113 C112 1_555 1_555
C114 C109 1_555 1_555
H64 C114 1_555 1_555
C115 C111 1_555 1_555
C116 C115 1_555 1_555
C117 C116 1_555 1_555
C118 C117 1_555 1_555
H65 C118 1_555 1_555
C119 C118 1_555 1_555
H66 C119 1_555 1_555
C120 C119 1_555 1_555
C121 C120 1_555 1_555
H67 C121 1_555 1_555
C122 C117 1_555 1_555
H68 C122 1_555 1_555
C123 C120 1_555 1_555
C124 C113 1_555 1_555
C125 C124 1_555 1_555
C126 C125 1_555 1_555
C127 C126 1_555 1_555
H69 C127 1_555 1_555
C128 C127 1_555 1_555
H70 C128 1_555 1_555
C129 C128 1_555 1_555
C130 C129 1_555 1_555
H71 C130 1_555 1_555
C131 C126 1_555 1_555
H72 C131 1_555 1_555
C132 C129 1_555 1_555
Cu1_2 O5 1_555 1_555
Cu1_3 O7 1_555 1_555
Cu1E O3 1_555 1_555
Cu2_2 O6 1_555 1_555
Cu2_3 O8 1_555 1_555
Cu2E O4 1_555 1_555
Cu3E O13 1_555 1_555
Cu4E O14 1_555 1_555
Cu5B O25 1_555 1_555
Cu5G O27 1_555 1_555
Cu6B O26 1_555 1_555
Cu6G O28 1_555 1_555
O3E Cu1 1_555 1_555
O4E Cu2 1_555 1_555
O5_2 Cu1 1_555 1_555
O6_2 Cu2 1_555 1_555
O7_2 Cu1 1_555 1_555
O8_2 Cu2 1_555 1_555
O13E Cu3 1_555 1_555
O14E Cu4 1_555 1_555
O25B Cu5 1_555 1_555
O26B Cu6 1_555 1_555
O27G Cu5 1_555 1_555
O28G Cu6 1_555 1_555
O16 C34 1_555 1_555
O18 C67 1_555 1_555
O24 C100 1_555 1_555
C6 C7 1_555 1_555
C14 C15 1_555 1_555
C22 C23 1_555 1_555
C31 C32 1_555 1_555
C39 C40 1_555 1_555
C47 C48 1_555 1_555
C55 C56 1_555 1_555
C64 C65 1_555 1_555
C72 C73 1_555 1_555
C80 C81 1_555 1_555
C88 C89 1_555 1_555
C97 C98 1_555 1_555
C105 C106 1_555 1_555
C113 C114 1_555 1_555
C121 C122 1_555 1_555
C130 C131 1_555 1_555

#END
