
#######################################################################
#
#                 Cambridge Crystallographic Data Centre
#                                CCDC 
#
#######################################################################
#
# If this CIF has been generated from an entry in the Cambridge 
# Structural Database, then it will include bibliographic, chemical, 
# crystal, experimental, refinement or atomic coordinate data resulting 
# from the CCDC's data processing and validation procedures.
#
#######################################################################

data_PILWIS
_chemical_formula_moiety         '(C46 H34 Cd2 N4 O8)n'
_symmetry_cell_setting           monoclinic
_symmetry_space_group_name_H-M   'C 2/c'
_symmetry_Int_Tables_number      15
_space_group_name_Hall           '-C 2yc'
loop_
_symmetry_equiv_pos_site_id
_symmetry_equiv_pos_as_xyz
1 x,y,z
2 -x,y,1/2-z
3 1/2+x,1/2+y,z
4 1/2-x,1/2+y,1/2-z
5 -x,-y,-z
6 x,-y,1/2+z
7 1/2-x,1/2-y,-z
8 1/2+x,1/2-y,1/2+z
_cell_length_a                   17.3010(12)
_cell_length_b                   14.396(2)
_cell_length_c                   20.5570(15)
_cell_angle_alpha                90
_cell_angle_beta                 110.393(3)
_cell_angle_gamma                90
_cell_volume                     4799.13
loop_
_atom_site_label
_atom_site_type_symbol
_atom_site_fract_x
_atom_site_fract_y
_atom_site_fract_z
Cd1 Cd -0.033406(13) 0.224046(16) 0.667668(12)
N1 N -0.1008(2) 0.2277(2) 0.55512(17)
O1 O 0.43329(18) -0.1713(2) 0.80730(17)
O2 O 0.38257(19) -0.1738(3) 0.69152(18)
C1 C 0.3070(2) -0.0951(3) 0.7495(2)
C2 C 0.1745(2) 0.0203(3) 0.7447(2)
C3 C -0.1937(4) 0.1962(6) 0.4525(3)
H1 H -0.2332 0.1658 0.4160
O3 O 0.1068(2) 0.1202(3) 0.7984(2)
C4 C 0.2010(3) -0.0480(3) 0.7975(2)
C5 C 0.3802(2) -0.1517(3) 0.7499(2)
O4 O 0.0609(2) 0.1143(3) 0.6829(2)
C6 C 0.1077(2) 0.0901(3) 0.7417(3)
N2 N -0.1646(2) 0.2820(4) 0.45040(19)
C7 C -0.1229(6) 0.2657(6) 0.3147(5)
H2 H -0.1534 0.2128 0.3158
C8 C 0.2774(3) -0.0302(3) 0.6984(2)
H3 H 0.3015 -0.0243 0.6646
C9 C 0.2685(3) -0.1071(3) 0.8000(2)
C10 C -0.1094(3) 0.2994(4) 0.5132(2)
C11 C 0.2111(3) 0.0278(3) 0.6958(2)
H4 H 0.1920 0.0716 0.6606
C12 C -0.1314(3) 0.3407(5) 0.3501(2)
C13 C -0.0263(3) 0.3400(4) 0.2717(3)
C14 C -0.1901(3) 0.3439(6) 0.3898(3)
H5 H -0.1931 0.4071 0.4052
H6 H -0.2447 0.3262 0.3592
C15 C -0.1555(3) 0.1617(4) 0.5170(3)
H7 H -0.1647 0.1036 0.5327
C16 C -0.0642(5) 0.3889(5) 0.5326(3)
H8 H -0.0346 0.3899 0.5817
H9 H -0.1029 0.4394 0.5202
H10 H -0.0261 0.3951 0.5083
C17 C -0.0847(4) 0.4182(4) 0.3476(3)
H11 H -0.0877 0.4711 0.3725
C18 C 0.1614(4) -0.0644(5) 0.8472(4)
H12 H 0.1160 -0.0285 0.8454
C19 C -0.0328(3) 0.4178(4) 0.3079(3)
H13 H -0.0027 0.4707 0.3063
C20 C 0.2919(5) -0.1786(6) 0.8513(4)
H14 H 0.3344 -0.2189 0.8525
C21 C 0.1877(6) -0.1296(7) 0.8960(5)
H15 H 0.1623 -0.1359 0.9288
C22 C -0.0706(5) 0.2631(6) 0.2763(5)
H16 H -0.0658 0.2087 0.2536
C23 C 0.2536(6) -0.1892(8) 0.8988(6)
H17 H 0.2708 -0.2352 0.9326
N1A N 0.1008(2) 0.2277(2) -0.05512(17)
C3A C 0.1937(4) 0.1962(6) 0.0475(3)
H1A H 0.2332 0.1658 0.0840
N2A N 0.1646(2) 0.2820(4) 0.04960(19)
C7A C 0.1229(6) 0.2657(6) 0.1853(5)
H2A H 0.1534 0.2128 0.1842
C10A C 0.1094(3) 0.2994(4) -0.0132(2)
C12A C 0.1314(3) 0.3407(5) 0.1499(2)
C13A C 0.0263(3) 0.3400(4) 0.2283(3)
C14A C 0.1901(3) 0.3439(6) 0.1102(3)
H5A H 0.1931 0.4071 0.0948
H6A H 0.2447 0.3262 0.1408
C15A C 0.1555(3) 0.1617(4) -0.0170(3)
H7A H 0.1647 0.1036 -0.0327
C16A C 0.0642(5) 0.3889(5) -0.0326(3)
H8A H 0.0346 0.3899 -0.0817
H9A H 0.1029 0.4394 -0.0202
H10A H 0.0261 0.3951 -0.0083
C17A C 0.0847(4) 0.4182(4) 0.1524(3)
H11A H 0.0877 0.4711 0.1275
C19A C 0.0328(3) 0.4178(4) 0.1921(3)
H13A H 0.0027 0.4707 0.1937
C22A C 0.0706(5) 0.2631(6) 0.2237(5)
H16A H 0.0658 0.2087 0.2464
Cd1A Cd 0.033406(13) 0.224046(16) -0.167668(12)
O1A O -0.43329(18) -0.1713(2) -0.30730(17)
O2A O -0.38257(19) -0.1738(3) -0.19152(18)
C1A C -0.3070(2) -0.0951(3) -0.2495(2)
C2A C -0.1745(2) 0.0203(3) -0.2447(2)
O3A O -0.1068(2) 0.1202(3) -0.2984(2)
C4A C -0.2010(3) -0.0480(3) -0.2975(2)
C5A C -0.3802(2) -0.1517(3) -0.2499(2)
O4A O -0.0609(2) 0.1143(3) -0.1829(2)
C6A C -0.1077(2) 0.0901(3) -0.2417(3)
C8A C -0.2774(3) -0.0302(3) -0.1984(2)
H3A H -0.3015 -0.0243 -0.1646
C9A C -0.2685(3) -0.1071(3) -0.3000(2)
C11A C -0.2111(3) 0.0278(3) -0.1958(2)
H4A H -0.1920 0.0716 -0.1606
C18A C -0.1614(4) -0.0644(5) -0.3472(4)
H12A H -0.1160 -0.0285 -0.3454
C20A C -0.2919(5) -0.1786(6) -0.3513(4)
H14A H -0.3344 -0.2189 -0.3525
C21A C -0.1877(6) -0.1296(7) -0.3960(5)
H15A H -0.1623 -0.1359 -0.4288
C23A C -0.2536(6) -0.1892(8) -0.3988(6)
H17A H -0.2708 -0.2352 -0.4326
Cd1_2 Cd -0.033406(13) 0.224046(16) -0.332332(12)
Cd1A_2 Cd 0.033406(13) 0.224046(16) 0.832332(12)
Cd1B Cd -0.533406(13) -0.275954(16) -0.332332(12)
Cd1B_2 Cd 0.466594(13) -0.275954(16) 0.667668(12)
Cd1C Cd -0.466594(13) -0.275954(16) -0.167668(12)
Cd1C_2 Cd 0.533406(13) -0.275954(16) 0.832332(12)
O1B O -0.06671(18) 0.3287(2) -0.19270(17)
O1C O 0.06671(18) 0.3287(2) 0.69270(17)
O2B O -0.11743(19) 0.3262(3) 0.69152(18)
O2C O 0.11743(19) 0.3262(3) -0.19152(18)
O3_2 O 0.1068(2) 0.1202(3) -0.2016(2)
O3A_2 O -0.1068(2) 0.1202(3) 0.7016(2)
loop_
_geom_bond_atom_site_label_1
_geom_bond_atom_site_label_2
_geom_bond_site_symmetry_1
_geom_bond_site_symmetry_2
Cd1 N1 1_555 1_555
N1 C10 1_555 1_555
O1 C5 1_555 1_555
O2 C5 1_555 1_555
C1 C5 1_555 1_555
C2 C4 1_555 1_555
C3 H1 1_555 1_555
O3 C6 1_555 1_555
C4 C9 1_555 1_555
O4 Cd1 1_555 1_555
C6 C2 1_555 1_555
N2 C3 1_555 1_555
C7 H2 1_555 1_555
C8 C1 1_555 1_555
H3 C8 1_555 1_555
C9 C1 1_555 1_555
C10 N2 1_555 1_555
C11 C2 1_555 1_555
H4 C11 1_555 1_555
C12 C7 1_555 1_555
C13 C19 1_555 1_555
C14 N2 1_555 1_555
H5 C14 1_555 1_555
H6 C14 1_555 1_555
C15 N1 1_555 1_555
H7 C15 1_555 1_555
C16 C10 1_555 1_555
H8 C16 1_555 1_555
H9 C16 1_555 1_555
H10 C16 1_555 1_555
C17 C12 1_555 1_555
H11 C17 1_555 1_555
C18 C4 1_555 1_555
H12 C18 1_555 1_555
C19 C17 1_555 1_555
H13 C19 1_555 1_555
C20 C9 1_555 1_555
H14 C20 1_555 1_555
C21 C18 1_555 1_555
H15 C21 1_555 1_555
C22 C7 1_555 1_555
H16 C22 1_555 1_555
C23 C20 1_555 1_555
H17 C23 1_555 1_555
N1A C10A 1_555 1_555
C3A H1A 1_555 1_555
N2A C3A 1_555 1_555
C7A H2A 1_555 1_555
C10A N2A 1_555 1_555
C12A C7A 1_555 1_555
C13A C13 1_555 1_555
C14A N2A 1_555 1_555
H5A C14A 1_555 1_555
H6A C14A 1_555 1_555
C15A N1A 1_555 1_555
H7A C15A 1_555 1_555
C16A C10A 1_555 1_555
H8A C16A 1_555 1_555
H9A C16A 1_555 1_555
H10A C16A 1_555 1_555
C17A C12A 1_555 1_555
H11A C17A 1_555 1_555
C19A C13A 1_555 1_555
H13A C19A 1_555 1_555
C22A C7A 1_555 1_555
H16A C22A 1_555 1_555
Cd1A N1A 1_555 1_555
O1A C5A 1_555 1_555
O2A C5A 1_555 1_555
C1A C5A 1_555 1_555
C2A C4A 1_555 1_555
O3A C6A 1_555 1_555
C4A C9A 1_555 1_555
O4A Cd1A 1_555 1_555
C6A C2A 1_555 1_555
C8A C1A 1_555 1_555
H3A C8A 1_555 1_555
C9A C1A 1_555 1_555
C11A C2A 1_555 1_555
H4A C11A 1_555 1_555
C18A C4A 1_555 1_555
H12A C18A 1_555 1_555
C20A C9A 1_555 1_555
H14A C20A 1_555 1_555
C21A C18A 1_555 1_555
H15A C21A 1_555 1_555
C23A C20A 1_555 1_555
H17A C23A 1_555 1_555
Cd1_2 O3A 1_555 1_555
Cd1A_2 O3 1_555 1_555
Cd1B O1A 1_555 1_555
Cd1B_2 O2 1_555 1_555
Cd1C O2A 1_555 1_555
Cd1C_2 O1 1_555 1_555
O1B Cd1A 1_555 1_555
O1C Cd1 1_555 1_555
O2B Cd1 1_555 1_555
O2C Cd1A 1_555 1_555
O3_2 Cd1A 1_555 1_555
O3A_2 Cd1 1_555 1_555
C3 C15 1_555 1_555
O4 C6 1_555 1_555
C8 C11 1_555 1_555
C12 C14 1_555 1_555
C13 C22 1_555 1_555
C21 C23 1_555 1_555
C3A C15A 1_555 1_555
C12A C14A 1_555 1_555
C13A C22A 1_555 1_555
C17A C19A 1_555 1_555
O4A C6A 1_555 1_555
C8A C11A 1_555 1_555
C21A C23A 1_555 1_555

#END
