
#######################################################################
#
#                 Cambridge Crystallographic Data Centre
#                                CCDC 
#
#######################################################################
#
# If this CIF has been generated from an entry in the Cambridge 
# Structural Database, then it will include bibliographic, chemical, 
# crystal, experimental, refinement or atomic coordinate data resulting 
# from the CCDC's data processing and validation procedures.
#
#######################################################################

data_FEXHOG
_chemical_formula_moiety         '(C16 H8 Cu2 N6 O8)n'
_symmetry_cell_setting           monoclinic
_symmetry_space_group_name_H-M   'P 21/c'
_symmetry_Int_Tables_number      14
_space_group_name_Hall           '-P 2ybc'
loop_
_symmetry_equiv_pos_site_id
_symmetry_equiv_pos_as_xyz
1 x,y,z
2 -x,1/2+y,1/2-z
3 -x,-y,-z
4 x,1/2-y,1/2+z
_cell_length_a                   4.7154(1)
_cell_length_b                   19.8268(2)
_cell_length_c                   10.7124(2)
_cell_angle_alpha                90
_cell_angle_beta                 95.065(2)
_cell_angle_gamma                90
_cell_volume                     997.605
loop_
_atom_site_label
_atom_site_type_symbol
_atom_site_fract_x
_atom_site_fract_y
_atom_site_fract_z
_atom_site_U_iso_or_equiv
_atom_site_thermal_displace_type
Cu1 Cu 0.7066(5) 0.33707(8) 0.538(2) 0.0118 Uiso
O1 O 0.873(2) 0.3636(6) 0.710(4) 0.0114 Uiso
O2 O 1.162(2) 0.3160(6) 0.865(5) 0.0114 Uiso
O3 O 1.521(2) 0.1827(7) 0.866(5) 0.0114 Uiso
O4 O 1.129(2) 0.1585(7) 0.970(4) 0.0114 Uiso
N1 N 0.780(1) 0.2491(5) 0.596(2) 0.0051 Uiso
N2 N 0.999(2) 0.1243(7) 0.701(6) 0.0051 Uiso
N3 N 0.579(2) 0.4393(5) 0.522(2) 0.0051 Uiso
C1 C 0.970(2) 0.2468(8) 0.699(8) 0.0091 Uiso
C2 C 1.060(2) 0.186(1) 0.753(6) 0.0091 Uiso
C3 C 0.831(2) 0.1233(8) 0.595(6) 0.0091 Uiso
C4 C 0.718(3) 0.1876(4) 0.540(4) 0.0091 Uiso
C5 C 0.985(2) 0.309(1) 0.761(6) 0.0091 Uiso
C6 C 1.238(2) 0.1754(7) 0.886(4) 0.0091 Uiso
C7 C 0.414(2) 0.4639(7) 0.600(5) 0.0091 Uiso
C8 C 0.680(2) 0.4678(6) 0.426(3) 0.0091 Uiso
H1 H 0.79440 0.07960 0.56033 0.0091 Uiso
H2 H 0.59785 0.18951 0.46414 0.0091 Uiso
H3 H 0.36818 0.43558 0.66651 0.0091 Uiso
H4 H 0.80636 0.44203 0.38098 0.0091 Uiso
Cu1C Cu -0.2934(5) 0.16293(8) 0.038(2) 0.0118 Uiso
Cu1C_2 Cu 1.7066(5) 0.16293(8) 1.038(2) 0.0118 Uiso
Cu1C_3 Cu 0.7066(5) 0.16293(8) 1.038(2) 0.0118 Uiso
Cu1B Cu 0.2934(5) 0.66293(8) 0.462(2) 0.0118 Uiso
Cu1_2 Cu -0.2934(5) 0.33707(8) 0.538(2) 0.0118 Uiso
O1C O -0.127(2) 0.1364(6) 0.210(4) 0.0114 Uiso
O2C O 0.162(2) 0.1840(6) 0.365(5) 0.0114 Uiso
O3C O 0.521(2) 0.3173(7) 0.366(5) 0.0114 Uiso
O3_2 O -0.479(2) 0.1827(7) -0.134(5) 0.0114 Uiso
O4C O 0.129(2) 0.3415(7) 0.470(4) 0.0114 Uiso
O4C_2 O 1.129(2) 0.3415(7) 0.470(4) 0.0114 Uiso
O4_2 O 0.129(2) 0.1585(7) -0.030(4) 0.0114 Uiso
N1C N -0.220(1) 0.2509(5) 0.096(2) 0.0051 Uiso
N2C N -0.001(2) 0.3757(7) 0.201(6) 0.0051 Uiso
N3B N 0.421(2) 0.5607(5) 0.478(2) 0.0051 Uiso
N3C N -0.421(2) 0.0607(5) 0.022(2) 0.0051 Uiso
C1C C -0.030(2) 0.2532(8) 0.199(8) 0.0091 Uiso
C2C C 0.060(2) 0.314(1) 0.253(6) 0.0091 Uiso
C3C C -0.169(2) 0.3767(8) 0.095(6) 0.0091 Uiso
C4C C -0.282(3) 0.3124(4) 0.040(4) 0.0091 Uiso
C5C C -0.015(2) 0.191(1) 0.261(6) 0.0091 Uiso
C6C C 0.238(2) 0.3246(7) 0.386(4) 0.0091 Uiso
C7B C 0.586(2) 0.5361(7) 0.400(5) 0.0091 Uiso
C8B C 0.320(2) 0.5322(6) 0.574(3) 0.0091 Uiso
H1C H -0.20560 0.42040 0.06033 0.0091 Uiso
H2C H -0.40215 0.31049 -0.03586 0.0091 Uiso
H3B H 0.63182 0.56442 0.33349 0.0091 Uiso
H4B H 0.19364 0.55797 0.61902 0.0091 Uiso
loop_
_geom_bond_atom_site_label_1
_geom_bond_atom_site_label_2
_geom_bond_site_symmetry_1
_geom_bond_site_symmetry_2
Cu1 O1 1_555 1_555
O1 C5 1_555 1_555
O2 C5 1_555 1_555
O3 C6 1_555 1_555
O4 C6 1_555 1_555
N1 Cu1 1_555 1_555
N2 C2 1_555 1_555
N3 Cu1 1_555 1_555
C1 N1 1_555 1_555
C2 C1 1_555 1_555
C3 N2 1_555 1_555
C4 N1 1_555 1_555
C5 C1 1_555 1_555
C6 C2 1_555 1_555
C7 N3 1_555 1_555
C8 N3 1_555 1_555
H1 C3 1_555 1_555
H2 C4 1_555 1_555
H3 C7 1_555 1_555
H4 C8 1_555 1_555
Cu1C O1C 1_555 1_555
Cu1C_2 O3 1_555 1_555
Cu1C_3 O4 1_555 1_555
Cu1B N3B 1_555 1_555
Cu1_2 O4C 1_555 1_555
O1C C5C 1_555 1_555
O2C C5C 1_555 1_555
O3C Cu1 1_555 1_555
O3_2 Cu1C 1_555 1_555
O4C C6C 1_555 1_555
O4C_2 Cu1 1_555 1_555
O4_2 Cu1C 1_555 1_555
N1C Cu1C 1_555 1_555
N2C C2C 1_555 1_555
N3B C7B 1_555 1_555
N3C Cu1C 1_555 1_555
C1C N1C 1_555 1_555
C2C C1C 1_555 1_555
C3C N2C 1_555 1_555
C4C N1C 1_555 1_555
C5C C1C 1_555 1_555
C6C O3C 1_555 1_555
C7B C8 1_555 1_555
C8B C7 1_555 1_555
H1C C3C 1_555 1_555
H2C C4C 1_555 1_555
H3B C7B 1_555 1_555
H4B C8B 1_555 1_555
C3 C4 1_555 1_555
N3B C8B 1_555 1_555
C2C C6C 1_555 1_555
C3C C4C 1_555 1_555

#END
