
#######################################################################
#
#                 Cambridge Crystallographic Data Centre
#                                CCDC 
#
#######################################################################
#
# If this CIF has been generated from an entry in the Cambridge 
# Structural Database, then it will include bibliographic, chemical, 
# crystal, experimental, refinement or atomic coordinate data resulting 
# from the CCDC's data processing and validation procedures.
#
#######################################################################

data_FAYQED
_chemical_formula_moiety         '(C97 H82 N18 O13 Zn5)n'
_symmetry_cell_setting           monoclinic
_symmetry_space_group_name_H-M   'C 2'
_symmetry_Int_Tables_number      5
_space_group_name_Hall           'C 2y'
loop_
_symmetry_equiv_pos_site_id
_symmetry_equiv_pos_as_xyz
1 x,y,z
2 -x,y,-z
3 1/2+x,1/2+y,z
4 1/2-x,1/2+y,-z
_cell_length_a                   34.806(4)
_cell_length_b                   38.685(7)
_cell_length_c                   24.789(3)
_cell_angle_alpha                90
_cell_angle_beta                 131.234(2)
_cell_angle_gamma                90
_cell_volume                     25100.8
loop_
_atom_site_label
_atom_site_type_symbol
_atom_site_fract_x
_atom_site_fract_y
_atom_site_fract_z
Zn1 Zn 0.2404(5) -0.1911(4) 0.3360(7)
Zn2 Zn 0.3492(5) -0.2463(4) 0.4447(7)
Zn3 Zn 0.1289(5) -0.2440(4) 0.2180(7)
Zn5 Zn 0.2522(6) -0.1340(4) 0.2353(9)
Zn7 Zn 0.2320(6) -0.1412(4) 0.4487(8)
C1 C -0.260(5) -0.430(3) -0.164(6)
C3 C -0.452(5) -0.329(3) -0.379(6)
C4 C -0.275(4) -0.452(3) -0.226(6)
H2 H -0.2983 -0.4703 -0.2361
H3 H -0.2912 -0.4386 -0.2685
C5 C -0.215(5) -0.404(3) -0.142(7)
H4 H -0.1851 -0.4174 -0.1234
H5 H -0.2262 -0.3910 -0.1832
C6 C -0.308(5) -0.410(3) -0.192(6)
H6 H -0.3359 -0.4259 -0.2129
H7 H -0.3021 -0.3972 -0.1541
C8 C -0.277(6) -0.575(4) -0.444(8)
C9 C 0.360(5) -0.208(3) 0.564(7)
C10 C 0.048(6) -0.185(4) 0.413(8)
H8 H 0.0696 -0.1683 0.4498
H9 H 0.0471 -0.2057 0.4342
H10 H 0.0145 -0.1763 0.3774
C13 C -0.232(6) -0.559(4) -0.384(8)
H14 H -0.2019 -0.5636 -0.3740
C14 C -0.279(5) -0.501(3) -0.313(7)
H15 H -0.3095 -0.4942 -0.3248
C15 C 0.346(6) -0.170(4) 0.627(8)
H16 H 0.3270 -0.1528 0.6258
C16 C 0.402(5) -0.222(4) 0.623(8)
H17 H 0.4176 -0.2408 0.6201
C17 C 0.334(5) -0.185(3) 0.566(7)
C18 C -0.003(6) -0.242(5) 0.296(9)
H18 H -0.0137 -0.2347 0.3213
H19 H 0.0062 -0.2658 0.3050
H20 H -0.0305 -0.2384 0.2453
C19 C -0.186(7) -0.520(4) -0.271(9)
H21 H -0.1549 -0.5245 -0.2587
C20 C -0.279(6) -0.526(4) -0.357(8)
C21 C -0.326(7) -0.540(4) -0.419(9)
H22 H -0.3567 -0.5348 -0.4312
C22 C -0.323(6) -0.565(4) -0.468(8)
H23 H -0.3524 -0.5734 -0.5115
C24 C -0.235(5) -0.490(3) -0.255(7)
C26 C -0.184(6) -0.499(4) -0.225(8)
H27 H -0.1547 -0.4910 -0.1810
C28 C -0.364(5) -0.369(3) -0.291(7)
C29 C -0.446(5) -0.351(3) -0.327(7)
C31 C -0.401(5) -0.375(3) -0.283(7)
H29 H -0.3967 -0.3919 -0.2530
C33 C -0.162(5) -0.363(3) -0.059(7)
C35 C -0.113(6) -0.323(4) -0.068(8)
H32 H -0.1092 -0.3100 -0.0959
C36 C -0.497(5) -0.309(3) -0.419(6)
H33 H -0.5000 -0.2925 -0.4490
C38 C -0.535(5) -0.312(3) -0.420(6)
C40 C 0.292(6) -0.398(4) 0.389(8)
H35 H 0.2697 -0.4169 0.3639
H36 H 0.3060 -0.3979 0.4381
H37 H 0.3195 -0.3989 0.3891
C41 C -0.235(6) -0.495(4) -0.006(8)
H38 H -0.2077 -0.4810 0.0112
C42 C -0.127(6) -0.365(4) 0.008(9)
H39 H -0.1322 -0.3787 0.0334
C43 C -0.274(6) -0.494(4) -0.073(9)
C45 C -0.156(6) -0.342(4) -0.099(8)
H41 H -0.1828 -0.3414 -0.1490
C46 C -0.229(7) -0.534(4) -0.333(9)
C47 C 0.059(6) -0.283(4) 0.158(10)
C49 C -0.367(5) -0.344(4) -0.331(7)
H42 H -0.3391 -0.3396 -0.3285
C51 C -0.244(5) -0.452(3) -0.102(6)
H43 H -0.2144 -0.4658 -0.0842
H44 H -0.2351 -0.4377 -0.0631
C52 C -0.231(9) -0.594(4) 0.180(12)
C55 C 0.390(8) -0.183(5) 0.688(11)
C58 C -0.486(7) -0.355(4) -0.325(9)
H50 H -0.4816 -0.3697 -0.2923
C59 C -0.410(5) -0.324(3) -0.375(7)
H51 H -0.4117 -0.3074 -0.4032
C60 C -0.535(7) -0.335(4) -0.376(9)
H52 H -0.5622 -0.3375 -0.3778
C61 C 0.183(5) -0.398(3) 0.268(7)
H53 H 0.1470 -0.3939 0.2281
H54 H 0.1869 -0.4101 0.3049
H55 H 0.1965 -0.4114 0.2514
C63 C 0.471(8) -0.225(6) 0.762(11)
H57 H 0.4788 -0.2123 0.8013
H58 H 0.4991 -0.2230 0.7630
H59 H 0.4651 -0.2487 0.7647
C64 C 0.423(7) -0.210(5) 0.691(11)
C69 C -0.315(8) -0.513(5) -0.101(11)
H65 H -0.3429 -0.5107 -0.1496
C70 C 0.413(8) -0.172(5) 0.763(10)
H66 H 0.4439 -0.1851 0.7977
H67 H 0.3892 -0.1762 0.7690
H68 H 0.4214 -0.1479 0.7691
C71 C -0.320(7) -0.539(5) -0.057(10)
H69 H -0.3491 -0.5520 -0.0760
C75 C 0.453(7) -0.161(6) 0.305(12)
H76 H 0.4839 -0.1745 0.3292
H77 H 0.4624 -0.1372 0.3189
H78 H 0.4324 -0.1632 0.2545
C76 C 0.493(5) -0.218(4) 0.396(9)
H79 H 0.5024 -0.2378 0.4249
H80 H 0.5187 -0.2002 0.4240
H81 H 0.4890 -0.2233 0.3552
C77 C 0.246(11) 0.016(5) 0.298(15)
H82 H 0.2446 0.0346 0.3218
H83 H 0.2167 0.0162 0.2479
H84 H 0.2765 0.0180 0.3046
C78 C 0.237(8) 0.012(5) 0.418(11)
H85 H 0.2397 0.0330 0.4017
H86 H 0.2635 0.0101 0.4694
H87 H 0.2042 0.0104 0.4055
C79 C 0.078(9) -0.144(6) -0.080(13)
H88 H 0.0459 -0.1525 -0.1242
H89 H 0.1033 -0.1444 -0.0842
H90 H 0.0729 -0.1207 -0.0723
C80 C 0.012(12) -0.210(9) -0.080(17)
H91 H 0.0005 -0.2014 -0.1252
H92 H -0.0123 -0.2055 -0.0756
H93 H 0.0174 -0.2348 -0.0784
C81 C 0.351(3) -0.175(2) 0.321(5)
C82 C 0.370(3) -0.204(2) 0.364(5)
C83 C 0.415(3) -0.2187(19) 0.389(4)
H94 H 0.4282 -0.2383 0.4174
C84 C 0.442(3) -0.204(2) 0.371(5)
C85 C 0.423(4) -0.174(3) 0.328(5)
C86 C 0.377(4) -0.160(2) 0.303(5)
H95 H 0.3644 -0.1402 0.2744
C87 C 0.240(4) -0.083(4) 0.372(7)
C88 C 0.238(6) -0.053(5) 0.402(7)
H96 H 0.2348 -0.0543 0.4356
C89 C 0.242(7) -0.021(4) 0.381(10)
C90 C 0.248(6) -0.018(3) 0.330(10)
C91 C 0.249(4) -0.048(5) 0.301(6)
H97 H 0.2530 -0.0466 0.2668
C92 C 0.245(4) -0.080(3) 0.321(6)
C93 C 0.122(5) -0.197(3) 0.111(6)
C94 C 0.077(4) -0.207(3) 0.044(8)
H98 H 0.0555 -0.2233 0.0401
C95 C 0.064(4) -0.193(4) -0.018(5)
C96 C 0.096(6) -0.169(4) -0.013(6)
C97 C 0.141(5) -0.159(3) 0.054(9)
H99 H 0.1620 -0.1426 0.0576
C98 C 0.154(3) -0.173(3) 0.116(6)
C117 C -0.583(5) -0.289(3) -0.467(7)
N1 N 0.242(3) -0.135(3) 0.343(5)
N4 N 0.177(3) -0.193(2) 0.334(5)
N5 N 0.136(3) -0.214(2) 0.291(4)
N6 N 0.143(4) -0.210(2) 0.177(5)
N7 N 0.185(4) -0.190(3) 0.217(5)
N8 N 0.243(4) -0.249(2) 0.332(5)
N9 N 0.285(3) -0.269(2) 0.377(4)
N10 N 0.344(3) -0.211(2) 0.379(5)
N11 N 0.301(3) -0.191(2) 0.338(4)
N12 N 0.337(4) -0.215(2) 0.494(5)
N13 N 0.296(4) -0.195(3) 0.456(5)
N14 N 0.177(3) -0.176(2) 0.379(5)
N22 N 0.307(4) -0.168(3) 0.301(5)
N23 N 0.248(4) -0.114(3) 0.304(6)
N24 N 0.234(4) -0.117(3) 0.381(6)
N25 N 0.291(4) -0.174(3) 0.494(6)
N26 N 0.194(4) -0.166(3) 0.184(5)
O2 O -0.206(3) -0.383(2) -0.091(5)
O3 O -0.319(3) -0.387(2) -0.245(4)
O5 O -0.231(3) -0.467(2) -0.206(5)
O7 O -0.232(6) -0.608(3) -0.458(7)
O8 O 0.086(4) -0.286(3) 0.222(6)
O10 O 0.064(3) -0.265(2) 0.124(5)
O11 O -0.264(5) -0.607(3) 0.159(6)
O12 O -0.187(5) -0.587(3) 0.250(7)
O13 O -0.282(4) -0.473(3) -0.123(5)
O16 O -0.314(6) -0.609(3) -0.536(8)
O17 O -0.617(4) -0.293(2) -0.463(5)
O19 O -0.587(3) -0.271(2) -0.514(5)
C119 C 0.108(3) -0.211(2) 0.309(4)
C120 C 0.133(3) -0.187(2) 0.364(4)
C121 C 0.115(3) -0.1790(19) 0.398(4)
H109 H 0.1322 -0.1627 0.4351
C122 C 0.071(4) -0.195(2) 0.377(5)
C123 C 0.046(3) -0.219(2) 0.322(5)
C124 C 0.064(3) -0.2274(18) 0.288(4)
H110 H 0.0466 -0.2436 0.2512
C125 C 0.008(3) -0.304(2) 0.119(6)
C126 C 0.000(4) -0.324(3) 0.157(4)
H111 H 0.0238 -0.3239 0.2073
C127 C -0.044(4) -0.344(2) 0.122(6)
H112 H -0.0492 -0.3575 0.1479
C128 C -0.080(3) -0.345(2) 0.047(6)
C129 C -0.072(3) -0.325(3) 0.008(4)
C130 C -0.028(4) -0.305(2) 0.044(5)
H113 H -0.0232 -0.2916 0.0179
C137 C -0.232(5) -0.566(2) 0.130(7)
C138 C -0.274(4) -0.563(3) 0.057(7)
H117 H -0.3028 -0.5769 0.0362
C139 C -0.274(4) -0.539(3) 0.015(4)
C140 C -0.231(5) -0.519(2) 0.046(7)
C141 C -0.189(4) -0.522(3) 0.119(7)
H118 H -0.1599 -0.5083 0.1399
C142 C -0.189(4) -0.546(3) 0.161(4)
H119 H -0.1607 -0.5481 0.2093
C143 C -0.271(8) -0.604(4) -0.480(9)
C144 C 0.210(3) -0.3017(17) 0.297(4)
C145 C 0.184(2) -0.333(2) 0.268(3)
H120 H 0.1488 -0.3327 0.2292
C146 C 0.210(3) -0.3639(17) 0.296(4)
C147 C 0.262(3) -0.3640(19) 0.353(4)
C148 C 0.289(2) -0.333(3) 0.383(3)
H121 H 0.3238 -0.3330 0.4210
C149 C 0.263(3) -0.3018(19) 0.354(4)
N28 N 0.205(3) -0.265(3) 0.284(5)
Zn2_2 Zn -0.6508(5) -0.2463(4) -0.5553(7)
Zn5B Zn -0.2478(6) -0.6340(4) 0.2353(9)
Zn7B Zn -0.2680(6) -0.6412(4) -0.5513(8)
O7B O 0.268(6) -0.108(3) 0.542(7)
O11B O 0.236(5) -0.107(3) 0.159(6)
O16B O 0.186(6) -0.109(3) 0.464(8)
O19_2 O 0.413(3) -0.271(2) 0.486(5)
O4 O 0.407(10) -0.095(7) 0.454(15)
loop_
_geom_bond_atom_site_label_1
_geom_bond_atom_site_label_2
_geom_bond_site_symmetry_1
_geom_bond_site_symmetry_2
Zn1 N1 1_555 1_555
Zn2 N9 1_555 1_555
Zn3 N5 1_555 1_555
Zn5 N22 1_555 1_555
Zn7 N14 1_555 1_555
C1 C4 1_555 1_555
C3 C29 1_555 1_555
C4 H2 1_555 1_555
H3 C4 1_555 1_555
C5 C1 1_555 1_555
H4 C5 1_555 1_555
H5 C5 1_555 1_555
C6 C1 1_555 1_555
H6 C6 1_555 1_555
H7 C6 1_555 1_555
C8 C13 1_555 1_555
C9 C16 1_555 1_555
C10 H8 1_555 1_555
H9 C10 1_555 1_555
H10 C10 1_555 1_555
C13 H14 1_555 1_555
C14 H15 1_555 1_555
C15 H16 1_555 1_555
C16 H17 1_555 1_555
C17 C9 1_555 1_555
C18 H18 1_555 1_555
H19 C18 1_555 1_555
H20 C18 1_555 1_555
C19 H21 1_555 1_555
C20 C14 1_555 1_555
C21 C20 1_555 1_555
H22 C21 1_555 1_555
C22 C8 1_555 1_555
H23 C22 1_555 1_555
C24 C14 1_555 1_555
C26 C19 1_555 1_555
H27 C26 1_555 1_555
C28 C31 1_555 1_555
C29 C31 1_555 1_555
C31 H29 1_555 1_555
C33 C42 1_555 1_555
C35 H32 1_555 1_555
C36 C3 1_555 1_555
H33 C36 1_555 1_555
C38 C36 1_555 1_555
C40 H35 1_555 1_555
H36 C40 1_555 1_555
H37 C40 1_555 1_555
C41 H38 1_555 1_555
C42 H39 1_555 1_555
C43 C41 1_555 1_555
C45 C33 1_555 1_555
H41 C45 1_555 1_555
C46 C13 1_555 1_555
C47 O8 1_555 1_555
C49 C28 1_555 1_555
H42 C49 1_555 1_555
C51 C1 1_555 1_555
H43 C51 1_555 1_555
H44 C51 1_555 1_555
C52 O11 1_555 1_555
C55 C15 1_555 1_555
C58 C29 1_555 1_555
H50 C58 1_555 1_555
C59 C3 1_555 1_555
H51 C59 1_555 1_555
C60 C38 1_555 1_555
H52 C60 1_555 1_555
C61 H53 1_555 1_555
H54 C61 1_555 1_555
H55 C61 1_555 1_555
C63 H57 1_555 1_555
H58 C63 1_555 1_555
H59 C63 1_555 1_555
C64 C16 1_555 1_555
C69 C43 1_555 1_555
H65 C69 1_555 1_555
C70 C55 1_555 1_555
H66 C70 1_555 1_555
H67 C70 1_555 1_555
H68 C70 1_555 1_555
C71 C69 1_555 1_555
H69 C71 1_555 1_555
C75 H76 1_555 1_555
H77 C75 1_555 1_555
H78 C75 1_555 1_555
C76 H79 1_555 1_555
H80 C76 1_555 1_555
H81 C76 1_555 1_555
C77 H82 1_555 1_555
H83 C77 1_555 1_555
H84 C77 1_555 1_555
C78 H85 1_555 1_555
H86 C78 1_555 1_555
H87 C78 1_555 1_555
C79 H88 1_555 1_555
H89 C79 1_555 1_555
H90 C79 1_555 1_555
C80 H91 1_555 1_555
H92 C80 1_555 1_555
H93 C80 1_555 1_555
C81 C82 1_555 1_555
C82 C83 1_555 1_555
C83 H94 1_555 1_555
C84 C76 1_555 1_555
C85 C75 1_555 1_555
C86 C81 1_555 1_555
H95 C86 1_555 1_555
C87 C88 1_555 1_555
C88 H96 1_555 1_555
C89 C78 1_555 1_555
C90 C77 1_555 1_555
C91 C90 1_555 1_555
H97 C91 1_555 1_555
C92 C87 1_555 1_555
C93 C94 1_555 1_555
C94 H98 1_555 1_555
C95 C80 1_555 1_555
C96 C79 1_555 1_555
C97 C96 1_555 1_555
H99 C97 1_555 1_555
C98 C93 1_555 1_555
C117 C38 1_555 1_555
N1 N23 1_555 1_555
N4 Zn1 1_555 1_555
N5 N4 1_555 1_555
N6 Zn3 1_555 1_555
N7 Zn1 1_555 1_555
N8 Zn1 1_555 1_555
N9 N8 1_555 1_555
N10 Zn2 1_555 1_555
N11 Zn1 1_555 1_555
N12 Zn2 1_555 1_555
N13 Zn1 1_555 1_555
N14 N4 1_555 1_555
N22 C81 1_555 1_555
N23 Zn5 1_555 1_555
N24 Zn7 1_555 1_555
N25 Zn7 1_555 1_555
N26 Zn5 1_555 1_555
O2 C5 1_555 1_555
O3 C6 1_555 1_555
O5 C4 1_555 1_555
O7 C143 1_555 1_555
O8 Zn3 1_555 1_555
O10 Zn3 1_555 1_555
O11 Zn5B 1_555 1_555
O12 C52 1_555 1_555
O13 C43 1_555 1_555
O16 C143 1_555 1_555
O17 C117 1_555 1_555
O19 C117 1_555 1_555
C119 N5 1_555 1_555
C120 N14 1_555 1_555
C121 C120 1_555 1_555
H109 C121 1_555 1_555
C122 C10 1_555 1_555
C123 C18 1_555 1_555
C124 C119 1_555 1_555
H110 C124 1_555 1_555
C125 C47 1_555 1_555
C126 C125 1_555 1_555
H111 C126 1_555 1_555
C127 C126 1_555 1_555
H112 C127 1_555 1_555
C128 C42 1_555 1_555
C129 C35 1_555 1_555
C130 C125 1_555 1_555
H113 C130 1_555 1_555
C137 C52 1_555 1_555
C138 C137 1_555 1_555
H117 C138 1_555 1_555
C139 C71 1_555 1_555
C140 C41 1_555 1_555
C141 C140 1_555 1_555
H118 C141 1_555 1_555
C142 C137 1_555 1_555
H119 C142 1_555 1_555
C143 C8 1_555 1_555
C144 C145 1_555 1_555
C145 H120 1_555 1_555
C146 C61 1_555 1_555
C147 C40 1_555 1_555
C148 C147 1_555 1_555
H121 C148 1_555 1_555
C149 N9 1_555 1_555
N28 Zn3 1_555 1_555
Zn2_2 O19 1_555 1_555
Zn7B O7 1_555 1_555
O7B Zn7 1_555 1_555
O11B Zn5 1_555 1_555
O16B Zn7 1_555 1_555
O19_2 Zn2 1_555 1_555
C9 N12 1_555 1_555
C15 C17 1_555 1_555
C17 N25 1_555 1_555
C19 C46 1_555 1_555
C20 C46 1_555 1_555
C21 C22 1_555 1_555
C24 C26 1_555 1_555
C24 O5 1_555 1_555
C28 O3 1_555 1_555
C33 O2 1_555 1_555
C35 C45 1_555 1_555
C47 O10 1_555 1_555
C49 C59 1_555 1_555
C51 O13 1_555 1_555
C55 C64 1_555 1_555
C58 C60 1_555 1_555
C63 C64 1_555 1_555
C82 N10 1_555 1_555
C83 C84 1_555 1_555
C84 C85 1_555 1_555
C85 C86 1_555 1_555
C87 N24 1_555 1_555
C88 C89 1_555 1_555
C89 C90 1_555 1_555
C91 C92 1_555 1_555
C92 N23 1_555 1_555
C93 N6 1_555 1_555
C94 C95 1_555 1_555
C95 C96 1_555 1_555
C97 C98 1_555 1_555
C98 N26 1_555 1_555
N1 N24 1_555 1_555
N6 N7 1_555 1_555
N7 N26 1_555 1_555
N8 N28 1_555 1_555
N10 N11 1_555 1_555
N11 N22 1_555 1_555
N12 N13 1_555 1_555
N13 N25 1_555 1_555
O16 Zn7B 1_555 1_555
C119 C120 1_555 1_555
C121 C122 1_555 1_555
C122 C123 1_555 1_555
C123 C124 1_555 1_555
C127 C128 1_555 1_555
C128 C129 1_555 1_555
C129 C130 1_555 1_555
C138 C139 1_555 1_555
C139 C140 1_555 1_555
C141 C142 1_555 1_555
C144 C149 1_555 1_555
C144 N28 1_555 1_555
C145 C146 1_555 1_555
C146 C147 1_555 1_555
C148 C149 1_555 1_555

#END
