
#######################################################################
#
#                 Cambridge Crystallographic Data Centre
#                                CCDC 
#
#######################################################################
#
# If this CIF has been generated from an entry in the Cambridge 
# Structural Database, then it will include bibliographic, chemical, 
# crystal, experimental, refinement or atomic coordinate data resulting 
# from the CCDC's data processing and validation procedures.
#
#######################################################################

data_ETEQUQ
_chemical_formula_moiety         '(C6 H44 Mn3 Mo12 N4 O67 P8 4-)n'
_symmetry_cell_setting           triclinic
_symmetry_space_group_name_H-M   'P -1'
_symmetry_Int_Tables_number      2
_space_group_name_Hall           '-P 1'
loop_
_symmetry_equiv_pos_site_id
_symmetry_equiv_pos_as_xyz
1 x,y,z
2 -x,-y,-z
_cell_length_a                   11.9677(11)
_cell_length_b                   12.2012(11)
_cell_length_c                   14.7386(13)
_cell_angle_alpha                67.6130(10)
_cell_angle_beta                 74.5270(10)
_cell_angle_gamma                63.7240(10)
_cell_volume                     1771.76
loop_
_atom_site_label
_atom_site_type_symbol
_atom_site_fract_x
_atom_site_fract_y
_atom_site_fract_z
Mo1 Mo 0.27920(4) 0.29688(4) 0.32419(3)
Mo2 Mo 0.74730(4) -0.19488(4) 0.33591(3)
Mo3 Mo 0.52953(4) -0.18922(4) 0.33217(3)
Mo4 Mo 0.57448(4) 0.29207(4) 0.32656(3)
Mo5 Mo 0.77406(4) 0.08370(4) 0.32996(3)
Mo6 Mo 0.26363(4) 0.09394(4) 0.32171(3)
Mn1 Mn 0.5000 0.0000 0.5000
Mn2 Mn 1.26165(8) -0.16298(8) 0.00873(6)
P1 P 0.55176(12) 0.10838(12) 0.21232(10)
P2 P 0.38521(14) 0.51308(14) 0.15815(11)
P3 P 0.30616(13) -0.09623(14) 0.19454(10)
P4 P 0.93402(13) -0.07162(14) 0.16496(10)
O1 O 0.6140(3) 0.1158(3) 0.4176(3)
O2 O 0.5868(4) -0.1414(4) 0.4203(3)
O3 O 0.3386(3) 0.1189(4) 0.4131(3)
O4 O 0.8140(3) -0.1145(4) 0.4053(3)
O5 O 0.3867(4) 0.3323(4) 0.3956(3)
O6 O 0.6754(3) 0.0218(3) 0.2611(3)
O7 O 0.2480(4) 0.2563(4) 0.2208(3)
O8 O 0.3476(4) -0.1037(4) 0.3964(3)
O9 O 0.4837(3) 0.2246(3) 0.2547(3)
O10 O 0.6755(4) -0.1985(4) 0.2342(3)
O11 O 0.8659(4) 0.0946(4) 0.3931(3)
O12 O 0.7169(4) 0.2475(4) 0.2285(3)
O13 O 0.4685(3) 0.0286(3) 0.2506(3)
O14 O 0.1189(4) 0.1107(4) 0.3827(3)
O15 O 1.0807(3) -0.1337(4) 0.1374(3)
O16 O 0.1372(4) 0.3599(4) 0.3830(3)
O17 O 0.8718(4) -0.0080(4) 0.0726(3)
O18 O 0.5766(4) 0.1550(4) 0.1013(3)
O19 O 0.8983(4) -0.1861(4) 0.2337(3)
O20 O 0.2529(4) 0.0357(4) 0.2124(3)
O21 O 0.6098(4) 0.3634(4) 0.3865(3)
O22 O 0.9131(4) 0.0181(4) 0.2240(3)
O23 O 0.3094(4) -0.0743(4) 0.0856(3)
O24 O 0.4944(4) 0.4605(4) 0.2188(3)
O25 O 0.4417(4) -0.1718(4) 0.2228(3)
O26 O 0.5480(4) -0.3423(4) 0.3963(3)
O27 O 0.2795(4) 0.4696(4) 0.2216(3)
O28 O 0.4335(5) 0.4464(5) 0.0739(3)
O29 O 0.8163(4) -0.3487(4) 0.4003(3)
O30 O 0.2228(4) -0.1714(4) 0.2584(3)
O31 O 0.3473(4) 0.6536(4) 0.1125(3)
O32 O 1.1904(6) -0.2719(5) -0.0371(4)
Mo1A Mo 0.72080(4) -0.29688(4) 0.67581(3)
Mo2A Mo 0.25270(4) 0.19488(4) 0.66409(3)
Mo3A Mo 0.47047(4) 0.18922(4) 0.66783(3)
Mo4A Mo 0.42552(4) -0.29207(4) 0.67344(3)
Mo5A Mo 0.22594(4) -0.08370(4) 0.67004(3)
Mo6A Mo 0.73637(4) -0.09394(4) 0.67829(3)
Mn2A Mn -0.26165(8) 0.16298(8) 0.99127(6)
Mn2A_2 Mn 0.73835(8) 0.16298(8) -0.00873(6)
Mn2_2 Mn 0.26165(8) -0.16298(8) 0.00873(6)
Mn2_3 Mn 0.26165(8) 0.83702(8) 0.00873(6)
Mn2_4 Mn 0.26165(8) -0.16298(8) 1.00873(6)
Mn2A_3 Mn 0.73835(8) -0.83702(8) 0.99127(6)
Mn2A_4 Mn 0.73835(8) 0.16298(8) 0.99127(6)
P1A P 0.44824(12) -0.10838(12) 0.78768(10)
P2A P 0.61479(14) -0.51308(14) 0.84185(11)
P3A P 0.69384(13) 0.09623(14) 0.80546(10)
P4A P 0.06598(13) 0.07162(14) 0.83504(10)
O1A O 0.3860(3) -0.1158(3) 0.5824(3)
O2A O 0.4132(4) 0.1414(4) 0.5797(3)
O3A O 0.6614(3) -0.1189(4) 0.5869(3)
O4A O 0.1860(3) 0.1145(4) 0.5947(3)
O5A O 0.6133(4) -0.3323(4) 0.6044(3)
O6A O 0.3246(3) -0.0218(3) 0.7389(3)
O7A O 0.7520(4) -0.2563(4) 0.7792(3)
O8A O 0.6524(4) 0.1037(4) 0.6036(3)
O9A O 0.5163(3) -0.2246(3) 0.7453(3)
O10A O 0.3245(4) 0.1985(4) 0.7658(3)
O11A O 0.1341(4) -0.0946(4) 0.6069(3)
O12A O 0.2831(4) -0.2475(4) 0.7715(3)
O13A O 0.5315(3) -0.0286(3) 0.7494(3)
O14A O 0.8811(4) -0.1107(4) 0.6173(3)
O15A O -0.0807(3) 0.1337(4) 0.8626(3)
O16A O 0.8628(4) -0.3599(4) 0.6170(3)
O17A O 0.1282(4) 0.0080(4) 0.9274(3)
O17A_2 O 1.1282(4) 0.0080(4) -0.0726(3)
O17_2 O -0.1282(4) -0.0080(4) 1.0726(3)
O18A O 0.4234(4) -0.1550(4) 0.8987(3)
O18A_2 O 1.4234(4) -0.1550(4) -0.1013(3)
O18_2 O -0.4234(4) 0.1550(4) 1.1013(3)
O19A O 0.1017(4) 0.1861(4) 0.7663(3)
O20A O 0.7471(4) -0.0357(4) 0.7876(3)
O21A O 0.3902(4) -0.3634(4) 0.6135(3)
O22A O 0.0869(4) -0.0181(4) 0.7760(3)
O23A O 0.6906(4) 0.0743(4) 0.9144(3)
O23_2 O 1.3094(4) -0.0743(4) 0.0856(3)
O23A_2 O -0.3094(4) 0.0743(4) 0.9144(3)
O24A O 0.5056(4) -0.4605(4) 0.7812(3)
O25A O 0.5583(4) 0.1718(4) 0.7772(3)
O26A O 0.4520(4) 0.3423(4) 0.6037(3)
O27A O 0.7205(4) -0.4696(4) 0.7784(3)
O28A O 0.5665(5) -0.4464(5) 0.9261(3)
O29A O 0.1837(4) 0.3487(4) 0.5997(3)
O30A O 0.7772(4) 0.1714(4) 0.7416(3)
O31A O 0.6527(4) -0.6536(4) 0.8875(3)
O31_2 O 1.3473(4) -0.3464(4) 0.1125(3)
O31A_2 O -0.3473(4) 0.3464(4) 0.8875(3)
O32A O -0.1904(6) 0.2719(5) 1.0371(4)
N1 N 0.3235(6) 0.5971(6) 0.3976(5)
H1 H 0.3815 0.5996 0.4232
H2 H 0.3074 0.6603 0.3409
H3 H 0.3515 0.5221 0.3864
N2 N 0.0807(6) 0.8415(6) 0.4352(5)
H4 H 0.0583 0.9060 0.4592
H5 H 0.0124 0.8371 0.4262
H6 H 0.1288 0.8545 0.3778
C1 C 0.1487(11) 0.7246(11) 0.5030(8)
H13 H 0.2171 0.7350 0.5179
H14 H 0.0935 0.7102 0.5640
C2 C 0.1993(10) 0.6139(10) 0.4724(7)
H15 H 0.2180 0.5391 0.5316
C3 C 0.0960(7) 0.6137(7) 0.4257(5)
H16 H 0.0200 0.6255 0.4705
H17 H 0.1244 0.5332 0.4132
H18 H 0.0805 0.6823 0.3646
N3 N 1.3903(14) 0.1135(13) -0.0360(10)
H7 H 1.3648 0.0512 0.0048
H8 H 1.4719 0.0888 -0.0342
H9 H 1.3767 0.1301 -0.0972
N4 N 1.3435(15) 0.3946(13) -0.1564(11)
H10 H 1.4159 0.3456 -0.1823
H11 H 1.3407 0.4742 -0.1748
H12 H 1.2801 0.3955 -0.1778
C4 C 1.205(2) 0.435(2) -0.0108(17)
H19 H 1.2016 0.5213 -0.0356
H20 H 1.1963 0.4076 0.0601
H21 H 1.1376 0.4320 -0.0324
C5 C 1.3336(13) 0.3440(12) -0.0509(9)
H22 H 1.4024 0.3444 -0.0269
C6 C 1.3286(16) 0.2157(14) -0.0087(8)
O33 O 0.0332(8) 0.5979(8) 0.1578(7)
O34 O 1.0677(17) 0.1759(15) 0.0431(13)
O35 O 1.127(2) 0.550(2) -0.2445(16)
loop_
_geom_bond_atom_site_label_1
_geom_bond_atom_site_label_2
_geom_bond_site_symmetry_1
_geom_bond_site_symmetry_2
Mo1 Mo6 1_555 1_555
Mo2 Mo3 1_555 1_555
Mo3 O2 1_555 1_555
Mo4 Mo5 1_555 1_555
Mo5 O1 1_555 1_555
Mo6 O3 1_555 1_555
Mn1 O1 1_555 1_555
Mn2 O15 1_555 1_555
P1 O6 1_555 1_555
P2 O24 1_555 1_555
P3 O20 1_555 1_555
P4 O15 1_555 1_555
O1 Mo4 1_555 1_555
O2 Mo2 1_555 1_555
O3 Mo1 1_555 1_555
O4 Mo2 1_555 1_555
O5 Mo1 1_555 1_555
O6 Mo2 1_555 1_555
O7 Mo1 1_555 1_555
O8 Mo3 1_555 1_555
O9 Mo1 1_555 1_555
O10 Mo2 1_555 1_555
O11 Mo5 1_555 1_555
O12 Mo4 1_555 1_555
O13 Mo3 1_555 1_555
O14 Mo6 1_555 1_555
O16 Mo1 1_555 1_555
O17 P4 1_555 1_555
O18 P1 1_555 1_555
O19 Mo2 1_555 1_555
O20 Mo6 1_555 1_555
O21 Mo4 1_555 1_555
O22 Mo5 1_555 1_555
O23 P3 1_555 1_555
O24 Mo4 1_555 1_555
O25 Mo3 1_555 1_555
O26 Mo3 1_555 1_555
O27 Mo1 1_555 1_555
O28 P2 1_555 1_555
O29 Mo2 1_555 1_555
O30 P3 1_555 1_555
O31 P2 1_555 1_555
N1 H1 1_555 1_555
H2 N1 1_555 1_555
H3 N1 1_555 1_555
N2 H4 1_555 1_555
H5 N2 1_555 1_555
H6 N2 1_555 1_555
N3 H7 1_555 1_555
H8 N3 1_555 1_555
H9 N3 1_555 1_555
N4 H10 1_555 1_555
H11 N4 1_555 1_555
H12 N4 1_555 1_555
O32 Mn2 1_555 1_555
C1 N2 1_555 1_555
H13 C1 1_555 1_555
H14 C1 1_555 1_555
C2 N1 1_555 1_555
H15 C2 1_555 1_555
C3 C2 1_555 1_555
H16 C3 1_555 1_555
H17 C3 1_555 1_555
H18 C3 1_555 1_555
C4 H19 1_555 1_555
H20 C4 1_555 1_555
H21 C4 1_555 1_555
C5 N4 1_555 1_555
H22 C5 1_555 1_555
C6 N3 1_555 1_555
Mo1A Mo6A 1_555 1_555
Mo2A Mo3A 1_555 1_555
Mo3A O2A 1_555 1_555
Mo4A Mo5A 1_555 1_555
Mo5A O1A 1_555 1_555
Mo6A O3A 1_555 1_555
Mn2A O15A 1_555 1_555
Mn2A_2 O17 1_555 1_555
Mn2_2 O23 1_555 1_555
Mn2_3 O31 1_555 1_555
Mn2_4 O17A 1_555 1_555
Mn2A_3 O31A 1_555 1_555
Mn2A_4 O23A 1_555 1_555
P1A O6A 1_555 1_555
P2A O24A 1_555 1_555
P3A O20A 1_555 1_555
P4A O15A 1_555 1_555
O1A Mn1 1_555 1_555
O2A Mn1 1_555 1_555
O3A Mn1 1_555 1_555
O4A Mo2A 1_555 1_555
O5A Mo1A 1_555 1_555
O6A Mo2A 1_555 1_555
O7A Mo1A 1_555 1_555
O8A Mo3A 1_555 1_555
O9A Mo1A 1_555 1_555
O10A Mo2A 1_555 1_555
O11A Mo5A 1_555 1_555
O12A Mo4A 1_555 1_555
O13A Mo3A 1_555 1_555
O14A Mo6A 1_555 1_555
O16A Mo1A 1_555 1_555
O17A P4A 1_555 1_555
O17A_2 Mn2 1_555 1_555
O17_2 Mn2A 1_555 1_555
O18A Mn2_4 1_555 1_555
O18A_2 Mn2 1_555 1_555
O18_2 Mn2A 1_555 1_555
O19A Mo2A 1_555 1_555
O20A Mo6A 1_555 1_555
O21A Mo4A 1_555 1_555
O22A Mo5A 1_555 1_555
O23A P3A 1_555 1_555
O23_2 Mn2 1_555 1_555
O23A_2 Mn2A 1_555 1_555
O24A Mo4A 1_555 1_555
O25A Mo3A 1_555 1_555
O26A Mo3A 1_555 1_555
O27A Mo1A 1_555 1_555
O28A P2A 1_555 1_555
O29A Mo2A 1_555 1_555
O30A P3A 1_555 1_555
O31A P2A 1_555 1_555
O31_2 Mn2 1_555 1_555
O31A_2 Mn2A 1_555 1_555
O32A Mn2A 1_555 1_555
Mo3 O10 1_555 1_555
Mo4 O5 1_555 1_555
Mo4 O9 1_555 1_555
Mo5 O4 1_555 1_555
Mo5 O6 1_555 1_555
Mo5 O12 1_555 1_555
Mo6 O7 1_555 1_555
Mo6 O8 1_555 1_555
Mo6 O13 1_555 1_555
Mn1 O2 1_555 1_555
Mn1 O3 1_555 1_555
P1 O9 1_555 1_555
P1 O13 1_555 1_555
P2 O27 1_555 1_555
P3 O25 1_555 1_555
P4 O19 1_555 1_555
P4 O22 1_555 1_555
O18 Mn2A_2 1_555 1_555
C1 C2 1_555 1_555
C4 C5 1_555 1_555
C5 C6 1_555 1_555
Mo1A O3A 1_555 1_555
Mo2A O2A 1_555 1_555
Mo3A O10A 1_555 1_555
Mo4A O1A 1_555 1_555
Mo4A O5A 1_555 1_555
Mo4A O9A 1_555 1_555
Mo5A O4A 1_555 1_555
Mo5A O6A 1_555 1_555
Mo5A O12A 1_555 1_555
Mo6A O7A 1_555 1_555
Mo6A O8A 1_555 1_555
Mo6A O13A 1_555 1_555
P1A O9A 1_555 1_555
P1A O13A 1_555 1_555
P1A O18A 1_555 1_555
P2A O27A 1_555 1_555
P3A O25A 1_555 1_555
P4A O19A 1_555 1_555
P4A O22A 1_555 1_555

#END
