
#######################################################################
#
#                 Cambridge Crystallographic Data Centre
#                                CCDC 
#
#######################################################################
#
# If this CIF has been generated from an entry in the Cambridge 
# Structural Database, then it will include bibliographic, chemical, 
# crystal, experimental, refinement or atomic coordinate data resulting 
# from the CCDC's data processing and validation procedures.
#
#######################################################################

data_BOCTOE04
_chemical_formula_moiety         '(C3 H2 Mn1 N11 1-)n'
_symmetry_cell_setting           monoclinic
_symmetry_space_group_name_H-M   'C 2/c'
_symmetry_Int_Tables_number      15
_space_group_name_Hall           '-C 2yc'
loop_
_symmetry_equiv_pos_site_id
_symmetry_equiv_pos_as_xyz
1 x,y,z
2 -x,y,1/2-z
3 1/2+x,1/2+y,z
4 1/2-x,1/2+y,1/2-z
5 -x,-y,-z
6 x,-y,1/2+z
7 1/2-x,1/2-y,-z
8 1/2+x,1/2-y,1/2+z
_cell_length_a                   8.4529(13)
_cell_length_b                   9.3581(14)
_cell_length_c                   12.884(2)
_cell_angle_alpha                90
_cell_angle_beta                 105.265(2)
_cell_angle_gamma                90
_cell_volume                     983.206
loop_
_atom_site_label
_atom_site_type_symbol
_atom_site_fract_x
_atom_site_fract_y
_atom_site_fract_z
N7 N -0.0504(6) 0.0196(4) 0.2246(4)
H1 H -0.1513 0.0196 0.1771
C1 C 0.0000 0.1707(4) 0.2500
C2 C 0.0639(5) -0.0542(5) 0.1743(3)
N7A N 0.0504(6) 0.0196(4) 0.2754(4)
H1A H 0.1513 0.0196 0.3229
C2A C -0.0639(5) -0.0542(5) 0.3257(3)
Mn1 Mn 0.5000 0.0000 0.0000
N1 N 0.5000 0.0455(3) 0.2500
N2 N 0.7186(3) 0.1292(2) -0.0025(2)
N3 N 0.5510(3) 0.0483(4) 0.17521(18)
N4 N 0.3378(3) 0.1906(3) -0.0406(2)
N5 N 0.7500 0.2500 0.0000
N6 N 0.2500 0.2500 0.0000
N3A N 0.4490(3) 0.0483(4) 0.32479(18)
N2F N 0.7814(3) 0.3708(2) 0.0025(2)
N4F N 0.1622(3) 0.3094(3) 0.0406(2)
Mn1A Mn 0.5000 0.0000 0.5000
Mn1B Mn 0.0000 0.5000 0.0000
Mn1B_2 Mn 1.0000 0.5000 0.0000
N2D N 0.2814(3) -0.1292(2) 0.0025(2)
N3D N 0.4490(3) -0.0483(4) -0.17521(18)
N4D N 0.6622(3) -0.1906(3) 0.0406(2)
loop_
_geom_bond_atom_site_label_1
_geom_bond_atom_site_label_2
_geom_bond_site_symmetry_1
_geom_bond_site_symmetry_2
Mn1 N2 1_555 1_555
N1 N3 1_555 1_555
N2 N5 1_555 1_555
N3 Mn1 1_555 1_555
N4 Mn1 1_555 1_555
N5 N2F 1_555 1_555
N6 N4 1_555 1_555
N7 H1 1_555 1_555
C1 N7 1_555 1_555
C2 N7 1_555 1_555
N3A N1 1_555 1_555
N2F Mn1B_2 1_555 1_555
N4F N6 1_555 1_555
Mn1A N3A 1_555 1_555
Mn1B N4F 1_555 1_555
N2D Mn1 1_555 1_555
N3D Mn1 1_555 1_555
N4D Mn1 1_555 1_555
N7A C1 1_555 1_555
H1A N7A 1_555 1_555
C2A N7 1_555 1_555
C2 N7A 1_555 1_555
N7A C2A 1_555 1_555

#END
