
#######################################################################
#
#                 Cambridge Crystallographic Data Centre
#                                CCDC 
#
#######################################################################
#
# If this CIF has been generated from an entry in the Cambridge 
# Structural Database, then it will include bibliographic, chemical, 
# crystal, experimental, refinement or atomic coordinate data resulting 
# from the CCDC's data processing and validation procedures.
#
#######################################################################

data_BOCTOE01
_chemical_formula_moiety         '(C3 H10 Mn2 N19 1-)n'
_symmetry_cell_setting           monoclinic
_symmetry_space_group_name_H-M   'P 21/c'
_symmetry_Int_Tables_number      14
_space_group_name_Hall           '-P 2ybc'
loop_
_symmetry_equiv_pos_site_id
_symmetry_equiv_pos_as_xyz
1 x,y,z
2 -x,1/2+y,1/2-z
3 -x,-y,-z
4 x,1/2-y,1/2+z
_cell_length_a                   8.4258(7)
_cell_length_b                   9.2710(8)
_cell_length_c                   12.8240(11)
_cell_angle_alpha                90
_cell_angle_beta                 105.7600(10)
_cell_angle_gamma                90
_cell_volume                     964.096
loop_
_atom_site_label
_atom_site_type_symbol
_atom_site_fract_x
_atom_site_fract_y
_atom_site_fract_z
Mn1 Mn 0.257020(17) 0.748406(13) 0.010776(14)
N1 N 0.32562(13) 0.79743(14) 0.18860(8)
N2 N 0.26937(10) 0.80010(11) 0.26239(6)
N3 N 0.21348(13) 0.80678(13) 0.33612(8)
N4 N 0.04300(11) 0.61974(11) 0.01824(8)
N5 N 0.0000 0.5000 0.0000
N6 N 0.10732(12) 0.94643(11) -0.02789(8)
N7 N 0.0000 1.0000 0.0000
N8 N 0.48162(11) 0.87531(10) 0.00742(9)
N9 N 0.5000 1.0000 0.0000
N10 N 0.42938(12) 0.55915(11) 0.05486(8)
N11 N 0.5000 0.5000 0.0000
N4B N -0.04300(11) 0.38026(11) -0.01824(8)
N6B N -0.10732(12) 1.05357(11) 0.02789(8)
N8B N 0.51838(11) 1.12469(10) -0.00742(9)
N10B N 0.57062(12) 0.44085(11) -0.05486(8)
Mn1B Mn -0.257020(17) 0.251594(13) -0.010776(14)
N1B N -0.32562(13) 0.20257(14) -0.18860(8)
N2B N -0.26937(10) 0.19990(11) -0.26239(6)
N3B N -0.21348(13) 0.19322(13) -0.33612(8)
Mn1A Mn -0.257020(17) 0.248406(13) -0.510776(14)
Mn1B_2 Mn -0.257020(17) 1.251594(13) -0.010776(14)
Mn1B_3 Mn 0.742980(17) 0.251594(13) -0.010776(14)
Mn1B_4 Mn 0.742980(17) 1.251594(13) -0.010776(14)
Mn1C Mn 0.257020(17) 0.751594(13) 0.510776(14)
N3A N -0.21348(13) 0.30678(13) 0.16388(8)
N3C N 0.21348(13) 0.69322(13) -0.16388(8)
N6B_2 N -0.10732(12) 0.05357(11) 0.02789(8)
N8B_2 N -0.48162(11) 0.12469(10) -0.00742(9)
N10B_2 N -0.42938(12) 0.44085(11) -0.05486(8)
N12 N 0.70546(13) 0.77221(10) 0.22572(8)
H1 H 0.6006 0.7720 0.1796
C1 C 0.81587(17) 0.70025(18) 0.16977(13)
H2 H 0.9269 0.6971 0.2176
H3 H 0.8159 0.7537 0.1048
H4 H 0.7772 0.6028 0.1503
C2 C 0.75608(15) 0.92427(16) 0.24963(9)
H5 H 0.6808 0.9711 0.2843
H6 H 0.7536 0.9740 0.1826
H7 H 0.8670 0.9274 0.2976
C3 C 0.69995(19) 0.69595(18) 0.32634(12)
H8 H 0.8098 0.6931 0.3759
H9 H 0.6603 0.5983 0.3088
H10 H 0.6262 0.7466 0.3602
loop_
_geom_bond_atom_site_label_1
_geom_bond_atom_site_label_2
_geom_bond_site_symmetry_1
_geom_bond_site_symmetry_2
Mn1 N1 1_555 1_555
N1 N2 1_555 1_555
N2 N3 1_555 1_555
N3 Mn1C 1_555 1_555
N4 Mn1 1_555 1_555
N5 N4 1_555 1_555
N6 Mn1 1_555 1_555
N7 N6 1_555 1_555
N8 Mn1 1_555 1_555
N9 N8 1_555 1_555
N10 Mn1 1_555 1_555
N11 N10 1_555 1_555
N12 H1 1_555 1_555
C1 N12 1_555 1_555
H2 C1 1_555 1_555
H3 C1 1_555 1_555
H4 C1 1_555 1_555
C2 N12 1_555 1_555
H5 C2 1_555 1_555
H6 C2 1_555 1_555
H7 C2 1_555 1_555
C3 N12 1_555 1_555
H8 C3 1_555 1_555
H9 C3 1_555 1_555
H10 C3 1_555 1_555
N4B N5 1_555 1_555
N6B N7 1_555 1_555
N8B N9 1_555 1_555
N10B N11 1_555 1_555
Mn1B N4B 1_555 1_555
N1B Mn1B 1_555 1_555
N2B N1B 1_555 1_555
N3B N2B 1_555 1_555
Mn1A N3B 1_555 1_555
Mn1B_2 N6B 1_555 1_555
Mn1B_3 N10B 1_555 1_555
Mn1B_4 N8B 1_555 1_555
N3A Mn1B 1_555 1_555
N3C Mn1 1_555 1_555
N6B_2 Mn1B 1_555 1_555
N8B_2 Mn1B 1_555 1_555
N10B_2 Mn1B 1_555 1_555

#END
