
#######################################################################
#
#                 Cambridge Crystallographic Data Centre
#                                CCDC 
#
#######################################################################
#
# If this CIF has been generated from an entry in the Cambridge 
# Structural Database, then it will include bibliographic, chemical, 
# crystal, experimental, refinement or atomic coordinate data resulting 
# from the CCDC's data processing and validation procedures.
#
#######################################################################

data_BOCTOE
_chemical_formula_moiety         '(C3 H10 Mn2 N19 1-)n'
_symmetry_cell_setting           monoclinic
_symmetry_space_group_name_H-M   'P 21/c'
_symmetry_Int_Tables_number      14
_space_group_name_Hall           '-P 2ybc'
loop_
_symmetry_equiv_pos_site_id
_symmetry_equiv_pos_as_xyz
1 x,y,z
2 -x,1/2+y,1/2-z
3 -x,-y,-z
4 x,1/2-y,1/2+z
_cell_length_a                   8.4136(8)
_cell_length_b                   9.2474(8)
_cell_length_c                   12.8074(12)
_cell_angle_alpha                90
_cell_angle_beta                 105.9690(10)
_cell_angle_gamma                90
_cell_volume                     958.013
loop_
_atom_site_label
_atom_site_type_symbol
_atom_site_fract_x
_atom_site_fract_y
_atom_site_fract_z
Mn1 Mn 0.256961(17) 0.748362(14) 0.010372(13)
N1 N 0.32612(12) 0.79887(12) 0.18829(8)
N2 N 0.26914(10) 0.80173(11) 0.26201(6)
N3 N 0.21230(12) 0.80815(12) 0.33564(8)
N4 N 0.04194(11) 0.62059(10) 0.01788(8)
N5 N 0.0000 0.5000 0.0000
N6 N 0.10713(12) 0.94709(11) -0.02898(8)
N7 N 0.0000 1.0000 0.0000
N8 N 0.48179(11) 0.87458(10) 0.00632(8)
N9 N 0.5000 1.0000 0.0000
N10 N 0.42867(12) 0.55836(11) 0.05509(8)
N11 N 0.5000 0.5000 0.0000
N4B N -0.04194(11) 0.37941(10) -0.01788(8)
N6B N -0.10713(12) 1.05291(11) 0.02898(8)
N8B N 0.51821(11) 1.12542(10) -0.00632(8)
N10B N 0.57133(12) 0.44164(11) -0.05509(8)
Mn1B Mn -0.256961(17) 0.251638(14) -0.010372(13)
N1B N -0.32612(12) 0.20113(12) -0.18829(8)
N2B N -0.26914(10) 0.19827(11) -0.26201(6)
N3B N -0.21230(12) 0.19185(12) -0.33564(8)
Mn1A Mn -0.256961(17) 0.248362(14) -0.510372(13)
Mn1B_2 Mn -0.256961(17) 1.251638(14) -0.010372(13)
Mn1B_3 Mn 0.743039(17) 0.251638(14) -0.010372(13)
Mn1B_4 Mn 0.743039(17) 1.251638(14) -0.010372(13)
Mn1C Mn 0.256961(17) 0.751638(14) 0.510372(13)
N3A N -0.21230(12) 0.30815(12) 0.16436(8)
N3C N 0.21230(12) 0.69185(12) -0.16436(8)
N6B_2 N -0.10713(12) 0.05291(11) 0.02898(8)
N8B_2 N -0.48179(11) 0.12542(10) -0.00632(8)
N10B_2 N -0.42867(12) 0.44164(11) -0.05509(8)
N12 N 0.70553(12) 0.77310(10) 0.22572(8)
H1 H 0.5991 0.7727 0.1790
C1 C 0.81582(16) 0.70051(16) 0.16965(12)
H2 H 0.9291 0.6997 0.2173
H3 H 0.8131 0.7529 0.1027
H4 H 0.7783 0.6009 0.1519
C2 C 0.75606(14) 0.92603(15) 0.24960(9)
H5 H 0.6805 0.9731 0.2852
H6 H 0.7521 0.9765 0.1817
H7 H 0.8689 0.9294 0.2977
C3 C 0.70074(17) 0.69590(16) 0.32660(11)
H8 H 0.8121 0.6933 0.3769
H9 H 0.6611 0.5969 0.3086
H10 H 0.6259 0.7466 0.3608
loop_
_geom_bond_atom_site_label_1
_geom_bond_atom_site_label_2
_geom_bond_site_symmetry_1
_geom_bond_site_symmetry_2
Mn1 N1 1_555 1_555
N1 N2 1_555 1_555
N2 N3 1_555 1_555
N3 Mn1C 1_555 1_555
N4 Mn1 1_555 1_555
N5 N4 1_555 1_555
N6 Mn1 1_555 1_555
N7 N6 1_555 1_555
N8 Mn1 1_555 1_555
N9 N8 1_555 1_555
N10 Mn1 1_555 1_555
N11 N10 1_555 1_555
N12 H1 1_555 1_555
C1 N12 1_555 1_555
H2 C1 1_555 1_555
H3 C1 1_555 1_555
H4 C1 1_555 1_555
C2 N12 1_555 1_555
H5 C2 1_555 1_555
H6 C2 1_555 1_555
H7 C2 1_555 1_555
C3 N12 1_555 1_555
H8 C3 1_555 1_555
H9 C3 1_555 1_555
H10 C3 1_555 1_555
N4B N5 1_555 1_555
N6B N7 1_555 1_555
N8B N9 1_555 1_555
N10B N11 1_555 1_555
Mn1B N4B 1_555 1_555
N1B Mn1B 1_555 1_555
N2B N1B 1_555 1_555
N3B N2B 1_555 1_555
Mn1A N3B 1_555 1_555
Mn1B_2 N6B 1_555 1_555
Mn1B_3 N10B 1_555 1_555
Mn1B_4 N8B 1_555 1_555
N3A Mn1B 1_555 1_555
N3C Mn1 1_555 1_555
N6B_2 Mn1B 1_555 1_555
N8B_2 Mn1B 1_555 1_555
N10B_2 Mn1B 1_555 1_555

#END
