
#######################################################################
#
#                 Cambridge Crystallographic Data Centre
#                                CCDC 
#
#######################################################################
#
# If this CIF has been generated from an entry in the Cambridge 
# Structural Database, then it will include bibliographic, chemical, 
# crystal, experimental, refinement or atomic coordinate data resulting 
# from the CCDC's data processing and validation procedures.
#
#######################################################################

data_BOCTOE02
_chemical_formula_moiety         '(C3 H10 Mn2 N19 1-)n'
_symmetry_cell_setting           monoclinic
_symmetry_space_group_name_H-M   'P 21/c'
_symmetry_Int_Tables_number      14
_space_group_name_Hall           '-P 2ybc'
loop_
_symmetry_equiv_pos_site_id
_symmetry_equiv_pos_as_xyz
1 x,y,z
2 -x,1/2+y,1/2-z
3 -x,-y,-z
4 x,1/2-y,1/2+z
_cell_length_a                   8.4377(8)
_cell_length_b                   9.3015(8)
_cell_length_c                   12.8480(12)
_cell_angle_alpha                90
_cell_angle_beta                 105.5660(10)
_cell_angle_gamma                90
_cell_volume                     971.369
loop_
_atom_site_label
_atom_site_type_symbol
_atom_site_fract_x
_atom_site_fract_y
_atom_site_fract_z
Mn1 Mn 0.25629(2) 0.748637(15) 0.009904(17)
N1 N 0.32199(18) 0.79673(18) 0.18720(10)
N2 N 0.26717(12) 0.79872(14) 0.26128(8)
N3 N 0.21297(17) 0.80513(18) 0.33538(10)
N4 N 0.04234(14) 0.61953(13) 0.01655(11)
N5 N -0.0000 0.5000 0.0000
N6 N 0.10512(15) 0.94532(14) -0.02889(11)
N7 N -0.0000 1.0000 0.0000
N8 N 0.47992(14) 0.87601(13) 0.00714(11)
N9 N 0.5000 1.0000 0.0000
N10 N 0.42770(16) 0.55994(14) 0.05307(10)
N11 N 0.5000 0.5000 0.0000
N4B N -0.04234(14) 0.38047(13) -0.01655(11)
N6B N -0.10512(15) 1.05468(14) 0.02889(11)
N8B N 0.52008(14) 1.12399(13) -0.00714(11)
N10B N 0.57230(16) 0.44006(14) -0.05307(10)
Mn1B Mn -0.25629(2) 0.251363(15) -0.009904(17)
N1B N -0.32199(18) 0.20327(18) -0.18720(10)
N2B N -0.26717(12) 0.20128(14) -0.26128(8)
N3B N -0.21297(17) 0.19487(18) -0.33538(10)
Mn1A Mn -0.25629(2) 0.248637(15) -0.509904(17)
Mn1B_2 Mn -0.25629(2) 1.251363(15) -0.009904(17)
Mn1B_3 Mn 0.74371(2) 0.251363(15) -0.009904(17)
Mn1B_4 Mn 0.74371(2) 1.251363(15) -0.009904(17)
Mn1C Mn 0.25629(2) 0.751363(15) 0.509904(17)
N3A N -0.21297(17) 0.30513(18) 0.16462(10)
N3C N 0.21297(17) 0.69487(18) -0.16462(10)
N6B_2 N -0.10512(15) 0.05468(14) 0.02889(11)
N8B_2 N -0.47992(14) 0.12399(13) -0.00714(11)
N10B_2 N -0.42770(16) 0.44006(14) -0.05307(10)
N12 N 0.70622(17) 0.77105(13) 0.22605(11)
H1 H 0.6033 0.7710 0.1800
C1 C 0.8160(2) 0.6989(2) 0.17105(19)
H2 H 0.9252 0.6948 0.2186
H3 H 0.8177 0.7518 0.1072
H4 H 0.7769 0.6032 0.1514
C2 C 0.75559(19) 0.9224(2) 0.24972(11)
H5 H 0.6806 0.9683 0.2837
H6 H 0.7535 0.9714 0.1836
H7 H 0.8648 0.9259 0.2972
C3 C 0.6972(3) 0.6960(3) 0.32568(17)
H8 H 0.8045 0.6935 0.3757
H9 H 0.6586 0.5995 0.3083
H10 H 0.6227 0.7461 0.3577
loop_
_geom_bond_atom_site_label_1
_geom_bond_atom_site_label_2
_geom_bond_site_symmetry_1
_geom_bond_site_symmetry_2
Mn1 N1 1_555 1_555
N1 N2 1_555 1_555
N2 N3 1_555 1_555
N3 Mn1C 1_555 1_555
N4 Mn1 1_555 1_555
N5 N4 1_555 1_555
N6 Mn1 1_555 1_555
N7 N6 1_555 1_555
N8 Mn1 1_555 1_555
N9 N8 1_555 1_555
N10 Mn1 1_555 1_555
N11 N10 1_555 1_555
N12 H1 1_555 1_555
C1 N12 1_555 1_555
H2 C1 1_555 1_555
H3 C1 1_555 1_555
H4 C1 1_555 1_555
C2 N12 1_555 1_555
H5 C2 1_555 1_555
H6 C2 1_555 1_555
H7 C2 1_555 1_555
C3 N12 1_555 1_555
H8 C3 1_555 1_555
H9 C3 1_555 1_555
H10 C3 1_555 1_555
N4B N5 1_555 1_555
N6B N7 1_555 1_555
N8B N9 1_555 1_555
N10B N11 1_555 1_555
Mn1B N4B 1_555 1_555
N1B Mn1B 1_555 1_555
N2B N1B 1_555 1_555
N3B N2B 1_555 1_555
Mn1A N3B 1_555 1_555
Mn1B_2 N6B 1_555 1_555
Mn1B_3 N10B 1_555 1_555
Mn1B_4 N8B 1_555 1_555
N3A Mn1B 1_555 1_555
N3C Mn1 1_555 1_555
N6B_2 Mn1B 1_555 1_555
N8B_2 Mn1B 1_555 1_555
N10B_2 Mn1B 1_555 1_555

#END
