
#######################################################################
#
#                 Cambridge Crystallographic Data Centre
#                                CCDC 
#
#######################################################################
#
# If this CIF has been generated from an entry in the Cambridge 
# Structural Database, then it will include bibliographic, chemical, 
# crystal, experimental, refinement or atomic coordinate data resulting 
# from the CCDC's data processing and validation procedures.
#
#######################################################################

data_PAFXUS
_chemical_formula_moiety         '(C42 H22 N6 O10 Zn2)n'
_symmetry_cell_setting           orthorhombic
_symmetry_space_group_name_H-M   'P n a a'
_symmetry_Int_Tables_number      56
_space_group_name_Hall           '-P 2ac 2bc'
loop_
_symmetry_equiv_pos_site_id
_symmetry_equiv_pos_as_xyz
1 x,y,z
2 1/2-x,-y,1/2+z
3 x,1/2-y,1/2-z
4 1/2-x,1/2+y,-z
5 -x,-y,-z
6 1/2+x,y,1/2-z
7 -x,1/2+y,1/2+z
8 1/2+x,1/2-y,z
_cell_length_a                   29.5815(12)
_cell_length_b                   19.3673(6)
_cell_length_c                   16.8851(4)
_cell_angle_alpha                90
_cell_angle_beta                 90
_cell_angle_gamma                90
_cell_volume                     9673.71
loop_
_atom_site_label
_atom_site_type_symbol
_atom_site_fract_x
_atom_site_fract_y
_atom_site_fract_z
Zn1 Zn 0.40238(2) 0.08406(3) 0.14374(3)
Zn2 Zn 0.59905(2) 0.43791(3) 0.14089(3)
O1 O 0.17304(16) -0.0385(2) 0.1371(4)
O2 O 0.16482(12) 0.0745(2) 0.1404(2)
O3 O 0.3181(2) 0.4245(3) 0.1478(4)
O4 O 0.5264(2) 0.3939(3) 0.1458(3)
O5 O 0.58528(16) 0.3291(3) 0.1536(3)
N1 N 0.33070(14) 0.0544(2) 0.1372(3)
N2 N 0.36770(13) 0.17689(19) 0.14755(18)
N3 N 0.45492(14) 0.1629(2) 0.1507(2)
C1 C 0.3143(2) -0.0096(3) 0.1308(4)
H1 H 0.3344 -0.0463 0.1273
C2 C 0.2686(2) -0.0232(3) 0.1291(5)
H2 H 0.2580 -0.0683 0.1252
C3 C 0.23864(18) 0.0320(3) 0.1335(3)
C4 C 0.25544(17) 0.0977(3) 0.1398(3)
H3 H 0.2360 0.1352 0.1440
C5 C 0.30234(17) 0.1075(3) 0.1401(3)
C6 C 0.1878(2) 0.0209(3) 0.1360(4)
C7 C 0.32261(16) 0.1771(2) 0.1439(2)
C8 C 0.29827(19) 0.2378(3) 0.1424(3)
H4 H 0.2669 0.2367 0.1394
C9 C 0.3208(2) 0.3006(3) 0.1455(3)
C10 C 0.36798(18) 0.2999(3) 0.1494(3)
H5 H 0.3843 0.3409 0.1517
C11 C 0.38978(17) 0.2371(3) 0.1498(2)
C12 C 0.2960(2) 0.3647(3) 0.1445(4)
C13 C 0.2518(3) 0.3769(4) 0.1407(6)
H6 H 0.2290 0.3439 0.1396
C14 C 0.2459(4) 0.4481(7) 0.1389(8)
H7 H 0.2185 0.4714 0.1351
C15 C 0.2866(5) 0.4768(5) 0.1435(8)
H8 H 0.2928 0.5238 0.1437
C16 C 0.43968(17) 0.2290(3) 0.1522(2)
C17 C 0.46848(19) 0.2843(3) 0.1542(3)
H9 H 0.4569 0.3289 0.1557
C18 C 0.5144(2) 0.2739(3) 0.1539(3)
C19 C 0.5299(2) 0.2067(4) 0.1531(3)
H10 H 0.5608 0.1977 0.1532
C20 C 0.49880(19) 0.1523(4) 0.1523(3)
H11 H 0.5095 0.1072 0.1530
C21 C 0.5448(2) 0.3389(5) 0.1511(3)
O6 O 0.58164(13) 0.53603(19) 0.54565(16)
O7 O 0.5850(2) 0.6367(3) 0.4862(2)
O8 O 0.59427(19) 0.4422(2) -0.2794(2)
O9 O 0.58084(13) 0.55172(19) -0.24994(17)
N4 N 0.59076(15) 0.4469(2) 0.0151(2)
N5 N 0.56633(13) 0.53036(19) 0.12646(17)
N6 N 0.59136(13) 0.4757(2) 0.2592(2)
C22 C 0.6071(2) 0.4028(3) -0.0382(3)
H12 H 0.6212 0.3627 -0.0205
C23 C 0.6041(2) 0.4141(3) -0.1188(3)
H13 H 0.6152 0.3819 -0.1547
C24 C 0.58479(19) 0.4724(3) -0.1437(2)
C25 C 0.56591(17) 0.5182(3) -0.0907(2)
H14 H 0.5507 0.5573 -0.1082
C26 C 0.57030(15) 0.5041(2) -0.0102(2)
C27 C 0.5855(2) 0.4885(3) -0.2325(2)
C28 C 0.55374(15) 0.5513(2) 0.0533(2)
C29 C 0.52830(17) 0.6097(3) 0.0431(2)
H15 H 0.5195 0.6233 -0.0074
C30 C 0.51560(18) 0.6490(3) 0.1095(2)
C31 C 0.52908(19) 0.6262(3) 0.1842(2)
H16 H 0.5212 0.6509 0.2294
C32 C 0.55427(17) 0.5664(3) 0.1900(2)
O10 O 0.4920(4) 0.7631(6) 0.0436(8)
C33 C 0.4739(8) 0.8256(8) 0.0644(12)
H17 H 0.4768 0.8692 0.0420
C34 C 0.4506(4) 0.8029(5) 0.1285(7)
H18 H 0.4320 0.8341 0.1583
C35 C 0.4632(3) 0.7367(5) 0.1585(5)
H19 H 0.4544 0.7157 0.2056
C36 C 0.4915(2) 0.7115(3) 0.0999(3)
C37 C 0.57083(17) 0.5366(3) 0.2664(2)
C38 C 0.5665(2) 0.5690(3) 0.3380(2)
H20 H 0.5523 0.6117 0.3415
C39 C 0.5836(2) 0.5370(3) 0.4061(2)
C40 C 0.60242(18) 0.4735(3) 0.3985(3)
H21 H 0.6121 0.4496 0.4432
C41 C 0.60721(18) 0.4447(3) 0.3246(3)
H22 H 0.6219 0.4024 0.3197
C42 C 0.5823(2) 0.5721(3) 0.4856(3)
Zn1F Zn 0.59762(2) 0.58406(3) -0.35626(3)
Zn1F_2 Zn 0.59762(2) 0.58406(3) 0.64374(3)
Zn2G Zn 0.09905(2) 0.06209(3) 0.14089(3)
O2G O 0.66482(12) 0.4255(2) 0.1404(2)
O6F O 0.41836(13) 0.03603(19) 0.04565(16)
O9F O 0.41916(13) 0.05172(19) 0.25006(17)
loop_
_geom_bond_atom_site_label_1
_geom_bond_atom_site_label_2
_geom_bond_site_symmetry_1
_geom_bond_site_symmetry_2
Zn1 N1 1_555 1_555
Zn2 O4 1_555 1_555
O1 C6 1_555 1_555
O2 C6 1_555 1_555
O3 C12 1_555 1_555
O4 C21 1_555 1_555
O5 Zn2 1_555 1_555
N1 C1 1_555 1_555
N2 Zn1 1_555 1_555
N3 Zn1 1_555 1_555
C1 H1 1_555 1_555
C2 C1 1_555 1_555
H2 C2 1_555 1_555
C3 C2 1_555 1_555
C4 C3 1_555 1_555
H3 C4 1_555 1_555
C5 N1 1_555 1_555
C6 C3 1_555 1_555
C7 N2 1_555 1_555
C8 C7 1_555 1_555
H4 C8 1_555 1_555
C9 C8 1_555 1_555
C10 C9 1_555 1_555
H5 C10 1_555 1_555
C11 N2 1_555 1_555
C12 C9 1_555 1_555
C13 C12 1_555 1_555
H6 C13 1_555 1_555
C14 C13 1_555 1_555
H7 C14 1_555 1_555
C15 O3 1_555 1_555
H8 C15 1_555 1_555
C16 N3 1_555 1_555
C17 C16 1_555 1_555
H9 C17 1_555 1_555
C18 C17 1_555 1_555
C19 C18 1_555 1_555
H10 C19 1_555 1_555
C20 N3 1_555 1_555
H11 C20 1_555 1_555
C21 O5 1_555 1_555
O6 C42 1_555 1_555
O7 C42 1_555 1_555
O8 C27 1_555 1_555
O9 C27 1_555 1_555
N4 Zn2 1_555 1_555
N5 Zn2 1_555 1_555
N6 Zn2 1_555 1_555
C22 N4 1_555 1_555
H12 C22 1_555 1_555
C23 C22 1_555 1_555
H13 C23 1_555 1_555
C24 C23 1_555 1_555
C25 C24 1_555 1_555
H14 C25 1_555 1_555
C26 N4 1_555 1_555
C27 C24 1_555 1_555
C28 N5 1_555 1_555
C29 C28 1_555 1_555
H15 C29 1_555 1_555
C30 C29 1_555 1_555
C31 C30 1_555 1_555
H16 C31 1_555 1_555
C32 N5 1_555 1_555
O10 C33 1_555 1_555
C33 H17 1_555 1_555
C34 C33 1_555 1_555
H18 C34 1_555 1_555
C35 C34 1_555 1_555
H19 C35 1_555 1_555
C36 C30 1_555 1_555
C37 N6 1_555 1_555
C38 C37 1_555 1_555
H20 C38 1_555 1_555
C39 C38 1_555 1_555
C40 C39 1_555 1_555
H21 C40 1_555 1_555
C41 N6 1_555 1_555
H22 C41 1_555 1_555
C42 C39 1_555 1_555
Zn1F O9 1_555 1_555
Zn1F_2 O6 1_555 1_555
Zn2G O2 1_555 1_555
O2G Zn2 1_555 1_555
O6F Zn1 1_555 1_555
O9F Zn1 1_555 1_555
C4 C5 1_555 1_555
C5 C7 1_555 1_555
C10 C11 1_555 1_555
C11 C16 1_555 1_555
C14 C15 1_555 1_555
C18 C21 1_555 1_555
C19 C20 1_555 1_555
C25 C26 1_555 1_555
C26 C28 1_555 1_555
C31 C32 1_555 1_555
C32 C37 1_555 1_555
O10 C36 1_555 1_555
C35 C36 1_555 1_555
C40 C41 1_555 1_555

#END
