
#######################################################################
#
#                 Cambridge Crystallographic Data Centre
#                                CCDC 
#
#######################################################################
#
# If this CIF has been generated from an entry in the Cambridge 
# Structural Database, then it will include bibliographic, chemical, 
# crystal, experimental, refinement or atomic coordinate data resulting 
# from the CCDC's data processing and validation procedures.
#
#######################################################################

data_QAMKOH
_chemical_formula_moiety         '(C57 H33 In3 N3 O13)n'
_symmetry_cell_setting           rhombohedral
_symmetry_space_group_name_H-M   'R -3 c'
_symmetry_Int_Tables_number      167
_space_group_name_Hall           '-R 3 2"c'
loop_
_symmetry_equiv_pos_site_id
_symmetry_equiv_pos_as_xyz
1 x,y,z
2 -y,x-y,z
3 -x+y,-x,z
4 y,x,1/2-z
5 x-y,-y,1/2-z
6 -x,-x+y,1/2-z
7 2/3+x,1/3+y,1/3+z
8 2/3-y,1/3+x-y,1/3+z
9 2/3-x+y,1/3-x,1/3+z
10 2/3+y,1/3+x,5/6-z
11 2/3+x-y,1/3-y,5/6-z
12 2/3-x,1/3-x+y,5/6-z
13 1/3+x,2/3+y,2/3+z
14 1/3-y,2/3+x-y,2/3+z
15 1/3-x+y,2/3-x,2/3+z
16 1/3+y,2/3+x,1/6-z
17 1/3+x-y,2/3-y,1/6-z
18 1/3-x,2/3-x+y,1/6-z
19 -x,-y,-z
20 y,-x+y,-z
21 x-y,x,-z
22 -y,-x,1/2+z
23 -x+y,y,1/2+z
24 x,x-y,1/2+z
25 1/3-x,2/3-y,2/3-z
26 1/3+y,2/3-x+y,2/3-z
27 1/3+x-y,2/3+x,2/3-z
28 1/3-y,2/3-x,1/6+z
29 1/3-x+y,2/3+y,1/6+z
30 1/3+x,2/3+x-y,1/6+z
31 2/3-x,1/3-y,1/3-z
32 2/3+y,1/3-x+y,1/3-z
33 2/3+x-y,1/3+x,1/3-z
34 2/3-y,1/3-x,5/6+z
35 2/3-x+y,1/3+y,5/6+z
36 2/3+x,1/3+x-y,5/6+z
_cell_length_a                   19.6449(3)
_cell_length_b                   19.6449(3)
_cell_length_c                   45.9531(11)
_cell_angle_alpha                90
_cell_angle_beta                 90
_cell_angle_gamma                120
_cell_volume                     15358.4
loop_
_atom_site_label
_atom_site_type_symbol
_atom_site_fract_x
_atom_site_fract_y
_atom_site_fract_z
In1 In 0.563137(7) 0.229804(7) 1.0833
O1 O 0.6667 0.3333 1.0833
O2 O 0.60652(6) 0.18038(6) 1.05130(2)
O3 O 0.73767(6) 0.25105(6) 1.04710(2)
N1 N 0.55020(8) -0.11647(8) 0.9167
C1 C 0.56696(9) -0.06361(9) 0.93783(3)
H1 H 0.5305 -0.0755 0.9527
C2 C 0.63594(10) 0.00772(10) 0.93865(3)
C3 C 0.69084(13) 0.02417(13) 0.9167
H2 H 0.7382 0.0715 0.9167
C4 C 0.64846(10) 0.06248(10) 0.96311(3)
C5 C 0.72022(11) 0.10707(13) 0.97608(4)
H3 H 0.7639 0.1065 0.9686
C6 C 0.72869(11) 0.15304(12) 1.00017(4)
H4 H 0.7779 0.1832 1.0086
C7 C 0.66479(9) 0.15444(10) 1.01166(3)
C8 C 0.59304(10) 0.11364(10) 0.99752(3)
H5 H 0.5500 0.1165 1.0044
C9 C 0.58512(10) 0.06853(11) 0.97314(4)
H6 H 0.5371 0.0423 0.9635
C10 C 0.67066(9) 0.19937(9) 1.03877(3)
O2I O 0.84705(6) -0.06015(6) 0.78203(2)
O3I O 0.91772(6) 0.07100(6) 0.78623(2)
C1I C 0.60306(9) -0.09971(9) 0.89550(3)
H1I H 0.5912 -0.1362 0.8806
C2I C 0.67439(10) -0.03073(10) 0.89468(3)
C4I C 0.72915(10) -0.01821(10) 0.87022(3)
C5I C 0.77374(13) 0.05355(11) 0.85725(4)
H3I H 0.7732 0.0972 0.8647
C6I C 0.81971(12) 0.06202(11) 0.83316(4)
H4I H 0.8499 0.1112 0.8247
C7I C 0.82111(10) -0.00188(9) 0.82167(3)
C8I C 0.78031(10) -0.07363(10) 0.83581(3)
H5I H 0.7832 -0.1167 0.8289
C9I C 0.73520(11) -0.08155(10) 0.86019(4)
H6I H 0.7090 -0.1296 0.8698
C10I C 0.86604(9) 0.00399(9) 0.79456(3)
In1A In 0.770196(7) 0.333333(10) 1.0833
O2A O 0.81962(6) 0.42614(8) 1.05130(2)
O3A O 0.74895(6) 0.48662(8) 1.04710(2)
N1A N 1.11647(8) 0.66667(11) 0.9167
C1A C 1.06361(9) 0.63057(13) 0.93783(3)
H1A H 1.0755 0.6060 0.9527
C2A C 0.99228(10) 0.62822(14) 0.93865(3)
C3A C 0.97583(13) 0.66667(18) 0.9167
H2A H 0.9285 0.6667 0.9167
C4A C 0.93752(10) 0.58598(14) 0.96311(3)
C5A C 0.89293(13) 0.61315(17) 0.97608(4)
H3A H 0.8935 0.6574 0.9686
C6A C 0.84696(12) 0.57565(16) 1.00017(4)
H4A H 0.8168 0.5947 1.0086
C7A C 0.84556(10) 0.51035(13) 1.01166(3)
C8A C 0.88636(10) 0.47940(14) 0.99752(3)
H5A H 0.8835 0.4335 1.0044
C9A C 0.93147(11) 0.51659(15) 0.97314(4)
H6A H 0.9577 0.4948 0.9635
C10A C 0.80063(9) 0.47129(13) 1.03877(3)
O2K O 1.06015(6) 0.90719(8) 0.78203(2)
O3K O 0.92900(6) 0.84671(8) 0.78623(2)
C1K C 1.09971(9) 0.70276(13) 0.89550(3)
H1K H 1.1362 0.7273 0.8806
C2K C 1.03073(10) 0.70511(14) 0.89468(3)
C4K C 1.01821(10) 0.74735(14) 0.87022(3)
C5K C 0.94645(11) 0.72018(17) 0.85725(4)
H3K H 0.9028 0.6759 0.8647
C6K C 0.93798(11) 0.75768(16) 0.83316(4)
H4K H 0.8888 0.7386 0.8247
C7K C 1.00188(9) 0.82298(13) 0.82167(3)
C8K C 1.07363(10) 0.85393(14) 0.83581(3)
H5K H 1.1167 0.8998 0.8289
C9K C 1.08155(10) 0.81674(15) 0.86019(4)
H6K H 1.1296 0.8385 0.8698
C10K C 0.99601(9) 0.86204(13) 0.79456(3)
In1B In 0.666667(10) 0.436863(7) 1.0833
O2B O 0.57386(8) 0.39348(6) 1.05130(2)
O3B O 0.51338(8) 0.26233(6) 1.04710(2)
N1B N 0.33333(11) 0.44980(8) 0.9167
C1B C 0.36943(13) 0.43304(9) 0.93783(3)
H1B H 0.3940 0.4695 0.9527
C2B C 0.37178(14) 0.36406(10) 0.93865(3)
C3B C 0.33333(18) 0.30916(13) 0.9167
H2B H 0.3333 0.2618 0.9167
C4B C 0.41402(14) 0.35154(10) 0.96311(3)
C5B C 0.38685(17) 0.27978(11) 0.97608(4)
H3B H 0.3426 0.2361 0.9686
C6B C 0.42435(16) 0.27131(11) 1.00017(4)
H4B H 0.4053 0.2221 1.0086
C7B C 0.48965(13) 0.33521(9) 1.01166(3)
C8B C 0.52060(14) 0.40696(10) 0.99752(3)
H5B H 0.5665 0.4500 1.0044
C9B C 0.48341(15) 0.41488(10) 0.97314(4)
H6B H 0.5052 0.4629 0.9635
C10B C 0.52871(13) 0.32934(9) 1.03877(3)
O2J O 0.09281(8) 0.15295(6) 0.78203(2)
O3J O 0.15329(8) 0.08228(6) 0.78623(2)
C1J C 0.29724(13) 0.39694(9) 0.89550(3)
H1J H 0.2727 0.4088 0.8806
C2J C 0.29489(14) 0.32561(10) 0.89468(3)
C4J C 0.25265(14) 0.27085(10) 0.87022(3)
C5J C 0.27982(17) 0.22626(13) 0.85725(4)
H3J H 0.3241 0.2268 0.8647
C6J C 0.24232(16) 0.18029(12) 0.83316(4)
H4J H 0.2614 0.1501 0.8247
C7J C 0.17702(13) 0.17889(10) 0.82167(3)
C8J C 0.14607(14) 0.21969(10) 0.83581(3)
H5J H 0.1002 0.2168 0.8289
C9J C 0.18326(15) 0.26480(11) 0.86019(4)
H6J H 0.1615 0.2910 0.8698
C10J C 0.13796(13) 0.13396(9) 0.79456(3)
In1I In 0.896471(7) -0.103530(7) 0.7500
In1I_2 In 0.896471(7) 0.896470(7) 0.7500
In1J In -0.000000(10) 0.103529(7) 0.7500
In1J_2 In 1.000000(10) 0.103529(7) 0.7500
In1K In 0.103530(7) 0.000000(10) 0.7500
In1K_2 In 1.103530(7) 1.000000(10) 0.7500
In1R In 0.436863(7) -0.229804(7) 0.9167
In1S In 1.229804(7) 0.666667(10) 0.9167
In1T In 0.333333(10) 0.563137(7) 0.9167
O2O O 0.51371(6) 0.27319(6) 1.11537(2)
O2P O 0.75947(8) 0.48629(6) 1.11537(2)
O2Q O 0.72681(6) 0.24053(8) 1.11537(2)
O3O O 0.58438(6) 0.40434(6) 1.11957(2)
O3P O 0.81995(8) 0.41562(6) 1.11957(2)
O3Q O 0.59566(6) 0.18005(8) 1.11957(2)
N1R N 0.44980(8) 0.11647(8) 1.0833
N1S N 0.88353(8) 0.33333(11) 1.0833
N1T N 0.66667(11) 0.55020(8) 1.0833
loop_
_geom_bond_atom_site_label_1
_geom_bond_atom_site_label_2
_geom_bond_site_symmetry_1
_geom_bond_site_symmetry_2
In1 O1 1_555 1_555
O1 In1A 1_555 1_555
O2 In1 1_555 1_555
O3 C10 1_555 1_555
N1 C1 1_555 1_555
C1 H1 1_555 1_555
C2 C1 1_555 1_555
C3 C2 1_555 1_555
H2 C3 1_555 1_555
C4 C2 1_555 1_555
C5 C4 1_555 1_555
H3 C5 1_555 1_555
C6 C5 1_555 1_555
H4 C6 1_555 1_555
C7 C6 1_555 1_555
C8 C7 1_555 1_555
H5 C8 1_555 1_555
C9 C4 1_555 1_555
H6 C9 1_555 1_555
C10 O2 1_555 1_555
O2I C10I 1_555 1_555
O3I C10I 1_555 1_555
C1I N1 1_555 1_555
H1I C1I 1_555 1_555
C2I C3 1_555 1_555
C4I C2I 1_555 1_555
C5I C4I 1_555 1_555
H3I C5I 1_555 1_555
C6I C5I 1_555 1_555
H4I C6I 1_555 1_555
C7I C6I 1_555 1_555
C8I C7I 1_555 1_555
H5I C8I 1_555 1_555
C9I C4I 1_555 1_555
H6I C9I 1_555 1_555
C10I C7I 1_555 1_555
In1A O3 1_555 1_555
O2A In1A 1_555 1_555
O3A C10A 1_555 1_555
N1A C1A 1_555 1_555
C1A H1A 1_555 1_555
C2A C1A 1_555 1_555
C3A C2A 1_555 1_555
H2A C3A 1_555 1_555
C4A C2A 1_555 1_555
C5A C4A 1_555 1_555
H3A C5A 1_555 1_555
C6A C5A 1_555 1_555
H4A C6A 1_555 1_555
C7A C6A 1_555 1_555
C8A C7A 1_555 1_555
H5A C8A 1_555 1_555
C9A C4A 1_555 1_555
H6A C9A 1_555 1_555
C10A O2A 1_555 1_555
O2K C10K 1_555 1_555
O3K C10K 1_555 1_555
C1K N1A 1_555 1_555
H1K C1K 1_555 1_555
C2K C3A 1_555 1_555
C4K C2K 1_555 1_555
C5K C4K 1_555 1_555
H3K C5K 1_555 1_555
C6K C5K 1_555 1_555
H4K C6K 1_555 1_555
C7K C6K 1_555 1_555
C8K C7K 1_555 1_555
H5K C8K 1_555 1_555
C9K C4K 1_555 1_555
H6K C9K 1_555 1_555
C10K C7K 1_555 1_555
In1B O1 1_555 1_555
O2B In1B 1_555 1_555
O3B In1 1_555 1_555
N1B C1B 1_555 1_555
C1B H1B 1_555 1_555
C2B C1B 1_555 1_555
C3B C2B 1_555 1_555
H2B C3B 1_555 1_555
C4B C2B 1_555 1_555
C5B C4B 1_555 1_555
H3B C5B 1_555 1_555
C6B C5B 1_555 1_555
H4B C6B 1_555 1_555
C7B C6B 1_555 1_555
C8B C7B 1_555 1_555
H5B C8B 1_555 1_555
C9B C4B 1_555 1_555
H6B C9B 1_555 1_555
C10B O2B 1_555 1_555
O2J C10J 1_555 1_555
O3J C10J 1_555 1_555
C1J N1B 1_555 1_555
H1J C1J 1_555 1_555
C2J C3B 1_555 1_555
C4J C2J 1_555 1_555
C5J C4J 1_555 1_555
H3J C5J 1_555 1_555
C6J C5J 1_555 1_555
H4J C6J 1_555 1_555
C7J C6J 1_555 1_555
C8J C7J 1_555 1_555
H5J C8J 1_555 1_555
C9J C4J 1_555 1_555
H6J C9J 1_555 1_555
C10J C7J 1_555 1_555
In1I O2I 1_555 1_555
In1I_2 O3K 1_555 1_555
In1J O2J 1_555 1_555
In1J_2 O3I 1_555 1_555
In1K O3J 1_555 1_555
In1K_2 O2K 1_555 1_555
In1R N1 1_555 1_555
In1S N1A 1_555 1_555
In1T N1B 1_555 1_555
O2O In1 1_555 1_555
O2P In1B 1_555 1_555
O2Q In1A 1_555 1_555
O3O In1B 1_555 1_555
O3P In1A 1_555 1_555
O3Q In1 1_555 1_555
N1R In1 1_555 1_555
N1S In1A 1_555 1_555
N1T In1B 1_555 1_555
C7 C10 1_555 1_555
C8 C9 1_555 1_555
C1I C2I 1_555 1_555
C8I C9I 1_555 1_555
O3A In1B 1_555 1_555
C7A C10A 1_555 1_555
C8A C9A 1_555 1_555
C1K C2K 1_555 1_555
C8K C9K 1_555 1_555
O3B C10B 1_555 1_555
C7B C10B 1_555 1_555
C8B C9B 1_555 1_555
C1J C2J 1_555 1_555
C8J C9J 1_555 1_555

#END
