
#######################################################################
#
#                 Cambridge Crystallographic Data Centre
#                                CCDC 
#
#######################################################################
#
# If this CIF has been generated from an entry in the Cambridge 
# Structural Database, then it will include bibliographic, chemical, 
# crystal, experimental, refinement or atomic coordinate data resulting 
# from the CCDC's data processing and validation procedures.
#
#######################################################################

data_QAMKUN
_chemical_formula_moiety         '(C42 H24 In3 N6 O13)n'
_symmetry_cell_setting           hexagonal
_symmetry_space_group_name_H-M   'P 63/m m c'
_symmetry_Int_Tables_number      194
_space_group_name_Hall           '-P 6c 2c'
loop_
_symmetry_equiv_pos_site_id
_symmetry_equiv_pos_as_xyz
1 x,y,z
2 -y,x-y,z
3 -x+y,-x,z
4 -x,-y,1/2+z
5 y,-x+y,1/2+z
6 x-y,x,1/2+z
7 y,x,-z
8 x-y,-y,-z
9 -x,-x+y,-z
10 -y,-x,1/2-z
11 -x+y,y,1/2-z
12 x,x-y,1/2-z
13 -x,-y,-z
14 y,-x+y,-z
15 x-y,x,-z
16 x,y,1/2-z
17 -y,x-y,1/2-z
18 -x+y,-x,1/2-z
19 -y,-x,z
20 -x+y,y,z
21 x,x-y,z
22 y,x,1/2+z
23 x-y,-y,1/2+z
24 -x,-x+y,1/2+z
_cell_length_a                   16.9675(2)
_cell_length_b                   16.9675(2)
_cell_length_c                   15.6734(5)
_cell_angle_alpha                90
_cell_angle_beta                 90
_cell_angle_gamma                120
_cell_volume                     3907.78
loop_
_atom_site_label
_atom_site_type_symbol
_atom_site_fract_x
_atom_site_fract_y
_atom_site_fract_z
In1 In 0.471379(17) 0.735690(8) 0.7500
O1 O 0.3333 0.6667 0.7500
O2 O 0.48202(10) 0.65010(10) 0.65385(11)
N1 N 0.6226(2) 0.81132(11) 0.7500
N2 N 0.95376(13) 0.9075(3) 0.7500
C1 C 0.42978(10) 0.57022(10) 0.6283(2)
C2 C 0.46627(10) 0.53373(10) 0.5613(2)
C3 C 0.55230(17) 0.58569(16) 0.5305(2)
H1 H 0.5888 0.6444 0.5512
C4 C 0.6692(2) 0.7676(2) 0.7500
H2 H 0.6372 0.7043 0.7500
C5 C 0.7630(2) 0.8119(2) 0.7500
H3 H 0.7934 0.7790 0.7500
C6 C 0.8108(3) 0.90541(15) 0.7500
C7 C 0.9118(3) 0.95589(16) 0.7500
O2F O 0.65010(10) 0.48202(10) 0.34615(11)
C1F C 0.57022(10) 0.42978(10) 0.3717(2)
C2F C 0.53373(10) 0.46627(10) 0.4387(2)
C3F C 0.58569(16) 0.55230(17) 0.4695(2)
H1F H 0.6444 0.5888 0.4488
O2L O 0.51798(10) 0.34990(10) 0.34615(11)
C3L C 0.44770(17) 0.41431(16) 0.4695(2)
H1L H 0.4112 0.3556 0.4488
O2R O 0.34990(10) 0.51798(10) 0.65385(11)
C3R C 0.41431(16) 0.44770(17) 0.5305(2)
H1R H 0.3556 0.4112 0.5512
N1A N 1.18868(11) 0.81128(23) 0.7500
N2A N 1.0925(3) 1.04626(33) 0.7500
C4A C 1.2324(2) 0.9016(3) 0.7500
H2A H 1.2957 0.9329 0.7500
C5A C 1.1881(2) 0.9511(3) 0.7500
H3A H 1.2210 1.0144 0.7500
C6A C 1.09459(15) 0.90539(34) 0.7500
C7A C 1.04411(16) 0.95591(34) 0.7500
N1B N 1.18872(23) 1.3774(2) 0.7500
N2B N 0.95374(33) 1.04624(13) 0.7500
C4B C 1.0984(3) 1.3308(2) 0.7500
H2B H 1.0671 1.3628 0.7500
C5B C 1.0489(3) 1.2370(2) 0.7500
H3B H 0.9856 1.2066 0.7500
C6B C 1.09461(34) 1.1892(3) 0.7500
C7B C 1.04409(34) 1.0882(3) 0.7500
C4J C 1.0984(3) 0.7676(2) 0.7500
H2J H 1.0671 0.7043 0.7500
C5J C 1.0489(3) 0.8119(2) 0.7500
H3J H 0.9856 0.7790 0.7500
C4K C 0.6692(2) 0.9016(3) 0.7500
H2K H 0.6372 0.9329 0.7500
C5K C 0.7630(2) 0.9511(3) 0.7500
H3K H 0.7934 1.0144 0.7500
C4I C 1.2324(2) 1.3308(2) 0.7500
H2I H 1.2957 1.3628 0.7500
C5I C 1.1881(2) 1.2370(2) 0.7500
H3I H 1.2210 1.2066 0.7500
In1A In 0.264310(8) 0.735689(19) 0.7500
O2A O 0.34990(10) 0.83192(14) 0.65385(11)
C1A C 0.42978(10) 0.85956(14) 0.6283(2)
C2A C 0.46627(10) 0.93254(14) 0.5613(2)
C3A C 0.41431(16) 0.96661(23) 0.5305(2)
H1A H 0.3556 0.9444 0.5512
O2H O 0.51798(10) 1.16808(14) 0.34615(11)
C1H C 0.57022(10) 1.14044(14) 0.3717(2)
C2H C 0.53373(10) 1.06746(14) 0.4387(2)
C3H C 0.44770(17) 1.03339(23) 0.4695(2)
H1H H 0.4112 1.0556 0.4488
O2M O 0.65010(10) 1.16808(14) 0.34615(11)
C3M C 0.58569(16) 1.03339(23) 0.4695(2)
H1M H 0.6444 1.0556 0.4488
O2T O 0.48202(10) 0.83192(14) 0.65385(11)
C3T C 0.55230(17) 0.96661(23) 0.5305(2)
H1T H 0.5888 0.9444 0.5512
In1B In 0.264311(19) 0.528621(17) 0.7500
O2B O 0.16808(14) 0.51798(10) 0.65385(11)
C1B C 0.14044(14) 0.57022(10) 0.6283(2)
C2B C 0.06746(14) 0.53373(10) 0.5613(2)
C3B C 0.03339(23) 0.44770(17) 0.5305(2)
H1B H 0.0556 0.4112 0.5512
O2G O -0.16808(14) 0.34990(10) 0.34615(11)
C1G C -0.14044(14) 0.42978(10) 0.3717(2)
C2G C -0.06746(14) 0.46627(10) 0.4387(2)
C3G C -0.03339(23) 0.41431(16) 0.4695(2)
H1G H -0.0556 0.3556 0.4488
O2N O -0.16808(14) 0.48202(10) 0.34615(11)
C3N C -0.03339(23) 0.55230(17) 0.4695(2)
H1N H -0.0556 0.5888 0.4488
O2S O 0.16808(14) 0.65010(10) 0.65385(11)
C3S C 0.03339(23) 0.58569(16) 0.5305(2)
H1S H 0.0556 0.6444 0.5512
In1A_2 In 1.264310(8) 0.735689(19) 0.7500
In1B_2 In 1.264311(19) 1.528621(17) 0.7500
In1C In 0.528621(17) 0.264310(8) 0.2500
In1C_2 In 0.528621(17) 1.264310(8) 0.2500
In1D In -0.264310(8) 0.264311(19) 0.2500
In1D_2 In 0.735690(8) 1.264311(19) 0.2500
In1E In -0.264311(19) 0.471379(17) 0.2500
In1E_2 In 0.735689(19) 0.471379(17) 0.2500
O2I O 0.34990(10) 0.51798(10) 0.84615(11)
O2J O 0.16808(14) 0.65010(10) 0.84615(11)
O2K O 0.48202(10) 0.83192(14) 0.84615(11)
O2O O 0.48202(10) 0.65010(10) 0.84615(11)
O2P O 0.34990(10) 0.83192(14) 0.84615(11)
O2Q O 0.16808(14) 0.51798(10) 0.84615(11)
N1A_2 N 0.18868(11) 0.81128(23) 0.7500
N1B_2 N 0.18872(23) 0.3774(2) 0.7500
loop_
_geom_bond_atom_site_label_1
_geom_bond_atom_site_label_2
_geom_bond_site_symmetry_1
_geom_bond_site_symmetry_2
In1 O1 1_555 1_555
O1 In1A 1_555 1_555
O2 In1 1_555 1_555
N1 In1 1_555 1_555
N2 C7 1_555 1_555
C1 O2 1_555 1_555
C2 C1 1_555 1_555
C3 C2 1_555 1_555
H1 C3 1_555 1_555
C4 N1 1_555 1_555
H2 C4 1_555 1_555
C5 C4 1_555 1_555
H3 C5 1_555 1_555
C6 C5 1_555 1_555
C7 C6 1_555 1_555
O2F C1F 1_555 1_555
C1F C2F 1_555 1_555
C2F C3F 1_555 1_555
C3F C3 1_555 1_555
H1F C3F 1_555 1_555
O2L C1F 1_555 1_555
C3L C2F 1_555 1_555
H1L C3L 1_555 1_555
O2R C1 1_555 1_555
C3R C2 1_555 1_555
H1R C3R 1_555 1_555
N1A C4A 1_555 1_555
N2A C7A 1_555 1_555
C4A H2A 1_555 1_555
C5A C4A 1_555 1_555
H3A C5A 1_555 1_555
C6A C5A 1_555 1_555
C7A N2 1_555 1_555
N1B C4B 1_555 1_555
N2B C7 1_555 1_555
C4B H2B 1_555 1_555
C5B C4B 1_555 1_555
H3B C5B 1_555 1_555
C6B C5B 1_555 1_555
C7B N2A 1_555 1_555
C4J N1A 1_555 1_555
H2J C4J 1_555 1_555
C5J C6A 1_555 1_555
H3J C5J 1_555 1_555
C4K N1 1_555 1_555
H2K C4K 1_555 1_555
C5K C6 1_555 1_555
H3K C5K 1_555 1_555
C4I N1B 1_555 1_555
H2I C4I 1_555 1_555
C5I C6B 1_555 1_555
H3I C5I 1_555 1_555
In1A O2A 1_555 1_555
O2A C1A 1_555 1_555
C1A C2A 1_555 1_555
C2A C3A 1_555 1_555
C3A H1A 1_555 1_555
O2H C1H 1_555 1_555
C1H C2H 1_555 1_555
C2H C3H 1_555 1_555
C3H C3A 1_555 1_555
H1H C3H 1_555 1_555
O2M C1H 1_555 1_555
C3M C2H 1_555 1_555
H1M C3M 1_555 1_555
O2T In1 1_555 1_555
C3T C2A 1_555 1_555
H1T C3T 1_555 1_555
In1B O1 1_555 1_555
O2B In1B 1_555 1_555
C1B O2B 1_555 1_555
C2B C1B 1_555 1_555
C3B C2B 1_555 1_555
H1B C3B 1_555 1_555
O2G C1G 1_555 1_555
C1G C2G 1_555 1_555
C2G C3G 1_555 1_555
C3G C3B 1_555 1_555
H1G C3G 1_555 1_555
O2N C1G 1_555 1_555
C3N C2G 1_555 1_555
H1N C3N 1_555 1_555
O2S In1A 1_555 1_555
C3S C2B 1_555 1_555
H1S C3S 1_555 1_555
In1A_2 N1A 1_555 1_555
In1B_2 N1B 1_555 1_555
In1C O2L 1_555 1_555
In1C_2 O2H 1_555 1_555
In1D O2G 1_555 1_555
In1D_2 O2M 1_555 1_555
In1E O2N 1_555 1_555
In1E_2 O2F 1_555 1_555
O2I In1B 1_555 1_555
O2J In1A 1_555 1_555
O2K In1 1_555 1_555
O2O In1 1_555 1_555
O2P In1A 1_555 1_555
O2Q In1B 1_555 1_555
N1A_2 In1A 1_555 1_555
N1B_2 In1B 1_555 1_555
C3L C3R 1_555 1_555
O2R In1B 1_555 1_555
C6A C7A 1_555 1_555
N2B C7B 1_555 1_555
C6B C7B 1_555 1_555
C4J C5J 1_555 1_555
C4K C5K 1_555 1_555
C4I C5I 1_555 1_555
C1A O2T 1_555 1_555
C3M C3T 1_555 1_555
C1B O2S 1_555 1_555
C3N C3S 1_555 1_555

#END
