
#######################################################################
#
#                 Cambridge Crystallographic Data Centre
#                                CCDC 
#
#######################################################################
#
# If this CIF has been generated from an entry in the Cambridge 
# Structural Database, then it will include bibliographic, chemical, 
# crystal, experimental, refinement or atomic coordinate data resulting 
# from the CCDC's data processing and validation procedures.
#
#######################################################################

data_QAMLAU
_chemical_formula_moiety         '(C60 H36 In3 N6 O13)n'
_symmetry_cell_setting           hexagonal
_symmetry_space_group_name_H-M   'P 63/m m c'
_symmetry_Int_Tables_number      194
_space_group_name_Hall           '-P 6c 2c'
loop_
_symmetry_equiv_pos_site_id
_symmetry_equiv_pos_as_xyz
1 x,y,z
2 -y,x-y,z
3 -x+y,-x,z
4 -x,-y,1/2+z
5 y,-x+y,1/2+z
6 x-y,x,1/2+z
7 y,x,-z
8 x-y,-y,-z
9 -x,-x+y,-z
10 -y,-x,1/2-z
11 -x+y,y,1/2-z
12 x,x-y,1/2-z
13 -x,-y,-z
14 y,-x+y,-z
15 x-y,x,-z
16 x,y,1/2-z
17 -y,x-y,1/2-z
18 -x+y,-x,1/2-z
19 -y,-x,z
20 -x+y,y,z
21 x,x-y,z
22 y,x,1/2+z
23 x-y,-y,1/2+z
24 -x,-x+y,1/2+z
_cell_length_a                   16.9292(3)
_cell_length_b                   16.9292(3)
_cell_length_c                   26.2529(10)
_cell_angle_alpha                90
_cell_angle_beta                 90
_cell_angle_gamma                120
_cell_volume                     6516
loop_
_atom_site_label
_atom_site_type_symbol
_atom_site_fract_x
_atom_site_fract_y
_atom_site_fract_z
In1 In 0.471767(11) 0.735884(6) 0.7500
O1 O 0.48113(6) 0.82981(7) 0.69104(3)
N1 N 0.62208(15) 0.81104(7) 0.7500
N2 N 0.95343(8) 0.90687(16) 0.7500
C1 C 0.76247(15) 0.81176(16) 0.7500
H1 H 0.7930 0.7788 0.7500
O2 O 0.3333 0.6667 0.7500
C2 C 0.66893(15) 0.76721(15) 0.7500
H2 H 0.6370 0.7038 0.7500
C3 C 0.42408(7) 0.84816(14) 0.67194(7)
C4 C 0.9117(2) 0.95584(10) 0.7500
C5 C 0.8106(2) 0.90528(10) 0.7500
C6 C 0.48923(11) 0.9785(2) 0.52592(9)
C7 C 0.44765(9) 0.89529(17) 0.62171(8)
C8 C 0.5339(6) 0.9342(7) 0.6027(4)
H3 H 0.5790 0.9310 0.6212
C9 C 0.5556(6) 0.9787(8) 0.5559(3)
H4 H 0.6158 1.0089 0.5448
O1G O 0.65132(9) 1.17019(7) 0.30896(3)
C3G C 0.57592(16) 1.15184(14) 0.32806(7)
C6G C 0.51073(23) 1.0215(2) 0.47408(9)
C7G C 0.55236(19) 1.10471(17) 0.37829(8)
C8G C 0.5997(9) 1.0658(7) 0.3973(4)
H3G H 0.6480 1.0690 0.3788
C9G C 0.5769(10) 1.0213(8) 0.4441(3)
H4G H 0.6069 0.9911 0.4552
O1L O 0.51887(6) 1.17019(7) 0.30896(3)
C8L C 0.4661(6) 1.0658(7) 0.3973(4)
H3L H 0.4210 1.0690 0.3788
C9L C 0.4444(6) 1.0213(8) 0.4441(3)
H4L H 0.3842 0.9911 0.4552
O1S O 0.34868(9) 0.82981(7) 0.69104(3)
C8S C 0.4003(9) 0.9342(7) 0.6027(4)
H3S H 0.3520 0.9310 0.6212
C9S C 0.4231(10) 0.9787(8) 0.5559(3)
H4S H 0.3931 1.0089 0.5448
N1A N 1.18896(7) 0.81104(17) 0.7500
N2A N 1.09313(16) 1.04656(18) 0.7500
C1A C 1.18824(16) 0.95071(22) 0.7500
H1A H 1.2212 1.0142 0.7500
C2A C 1.23279(15) 0.90172(21) 0.7500
H2A H 1.2962 0.9332 0.7500
C4A C 1.04416(10) 0.95586(22) 0.7500
C5A C 1.09472(10) 0.90532(22) 0.7500
N1B N 1.18896(17) 1.37792(15) 0.7500
N2B N 0.95344(18) 1.04657(8) 0.7500
C1B C 1.04929(22) 1.23753(15) 0.7500
H1B H 0.9858 1.2070 0.7500
C2B C 1.09828(21) 1.33107(15) 0.7500
H2B H 1.0668 1.3630 0.7500
C4B C 1.04414(22) 1.0883(2) 0.7500
C5B C 1.09468(22) 1.1894(2) 0.7500
C1J C 1.04929(22) 0.81176(16) 0.7500
H1J H 0.9858 0.7788 0.7500
C2J C 1.09828(21) 0.76721(15) 0.7500
H2J H 1.0668 0.7038 0.7500
C1K C 0.76247(15) 0.95071(22) 0.7500
H1K H 0.7930 1.0142 0.7500
C2K C 0.66893(15) 0.90172(21) 0.7500
H2K H 0.6370 0.9332 0.7500
C1I C 1.18824(16) 1.23753(15) 0.7500
H1I H 1.2212 1.2070 0.7500
C2I C 1.23279(15) 1.33107(15) 0.7500
H2I H 1.2962 1.3630 0.7500
In1A In 0.264116(6) 0.735883(13) 0.7500
O1A O 0.17019(7) 0.65132(9) 0.69104(3)
C3A C 0.15184(14) 0.57592(16) 0.67194(7)
C6A C 0.0215(2) 0.51073(23) 0.52592(9)
C7A C 0.10471(17) 0.55236(19) 0.62171(8)
C8A C 0.0658(7) 0.5997(9) 0.6027(4)
H3A H 0.0690 0.6480 0.6212
C9A C 0.0213(8) 0.5769(10) 0.5559(3)
H4A H -0.0089 0.6069 0.5448
O1F O -0.17019(7) 0.48113(6) 0.30896(3)
C3F C -0.15184(14) 0.42408(7) 0.32806(7)
C6F C -0.0215(2) 0.48923(11) 0.47408(9)
C7F C -0.10471(17) 0.44765(9) 0.37829(8)
C8F C -0.0658(7) 0.5339(6) 0.3973(4)
H3F H -0.0690 0.5790 0.3788
C9F C -0.0213(8) 0.5556(6) 0.4441(3)
H4F H 0.0089 0.6158 0.4552
O1M O -0.17019(7) 0.34868(9) 0.30896(3)
C8M C -0.0658(7) 0.4003(9) 0.3973(4)
H3M H -0.0690 0.3520 0.3788
C9M C -0.0213(8) 0.4231(10) 0.4441(3)
H4M H 0.0089 0.3931 0.4552
O1R O 0.17019(7) 0.51887(6) 0.69104(3)
C8R C 0.0658(7) 0.4661(6) 0.6027(4)
H3R H 0.0690 0.4210 0.6212
C9R C 0.0213(8) 0.4444(6) 0.5559(3)
H4R H -0.0089 0.3842 0.5448
In1B In 0.264117(13) 0.528233(11) 0.7500
O1B O 0.34868(9) 0.51887(6) 0.69104(3)
C3B C 0.42408(16) 0.57592(7) 0.67194(7)
C6B C 0.48927(23) 0.51077(11) 0.52592(9)
C7B C 0.44764(19) 0.55235(9) 0.62171(8)
C8B C 0.4003(9) 0.4661(6) 0.6027(4)
H3B H 0.3520 0.4210 0.6212
C9B C 0.4231(10) 0.4444(6) 0.5559(3)
H4B H 0.3931 0.3842 0.5448
O1H O 0.51887(6) 0.34868(9) 0.30896(3)
C3H C 0.57592(7) 0.42408(16) 0.32806(7)
C6H C 0.51077(11) 0.48927(23) 0.47408(9)
C7H C 0.55235(9) 0.44764(19) 0.37829(8)
C8H C 0.4661(6) 0.4003(9) 0.3973(4)
H3H H 0.4210 0.3520 0.3788
C9H C 0.4444(6) 0.4231(10) 0.4441(3)
H4H H 0.3842 0.3931 0.4552
O1N O 0.65132(9) 0.48113(6) 0.30896(3)
C8N C 0.5997(9) 0.5339(6) 0.3973(4)
H3N H 0.6480 0.5790 0.3788
C9N C 0.5769(10) 0.5556(6) 0.4441(3)
H4N H 0.6069 0.6158 0.4552
O1T O 0.48113(6) 0.65132(9) 0.69104(3)
C8T C 0.5339(6) 0.5997(9) 0.6027(4)
H3T H 0.5790 0.6480 0.6212
C9T C 0.5556(6) 0.5769(10) 0.5559(3)
H4T H 0.6158 0.6069 0.5448
In1A_2 In 1.264116(6) 0.735883(13) 0.7500
In1B_2 In 1.264117(13) 1.528233(11) 0.7500
In1C In 0.528233(11) 0.264116(6) 0.2500
In1C_2 In 0.528233(11) 1.264116(6) 0.2500
In1D In -0.264116(6) 0.264117(13) 0.2500
In1D_2 In 0.735884(6) 1.264117(13) 0.2500
In1E In -0.264117(13) 0.471767(11) 0.2500
In1E_2 In 0.735883(13) 0.471767(11) 0.2500
O1I O 0.17019(7) 0.51887(6) 0.80896(3)
O1J O 0.34868(9) 0.82981(7) 0.80896(3)
O1K O 0.48113(6) 0.65132(9) 0.80896(3)
O1O O 0.48113(6) 0.82981(7) 0.80896(3)
O1P O 0.17019(7) 0.65132(9) 0.80896(3)
O1Q O 0.34868(9) 0.51887(6) 0.80896(3)
N1A_2 N 0.18896(7) 0.81104(17) 0.7500
N1B_2 N 0.18896(17) 0.37792(15) 0.7500
loop_
_geom_bond_atom_site_label_1
_geom_bond_atom_site_label_2
_geom_bond_site_symmetry_1
_geom_bond_site_symmetry_2
In1 O1 1_555 1_555
O1 C3 1_555 1_555
N1 In1 1_555 1_555
N2 C4 1_555 1_555
C1 H1 1_555 1_555
O2 In1 1_555 1_555
C2 N1 1_555 1_555
H2 C2 1_555 1_555
C3 C7 1_555 1_555
C4 C5 1_555 1_555
C5 C1 1_555 1_555
C6 C9 1_555 1_555
C7 C8 1_555 1_555
C8 H3 1_555 1_555
C9 C8 1_555 1_555
H4 C9 1_555 1_555
O1G C3G 1_555 1_555
C3G C7G 1_555 1_555
C6G C6 1_555 1_555
C7G C8G 1_555 1_555
C8G H3G 1_555 1_555
C9G C6G 1_555 1_555
H4G C9G 1_555 1_555
O1L C3G 1_555 1_555
C8L C7G 1_555 1_555
H3L C8L 1_555 1_555
C9L C6G 1_555 1_555
H4L C9L 1_555 1_555
O1S C3 1_555 1_555
C8S C7 1_555 1_555
H3S C8S 1_555 1_555
C9S C6 1_555 1_555
H4S C9S 1_555 1_555
N1A C2A 1_555 1_555
N2A C4A 1_555 1_555
C1A H1A 1_555 1_555
C2A C1A 1_555 1_555
H2A C2A 1_555 1_555
C4A N2 1_555 1_555
C5A C1A 1_555 1_555
N1B C2B 1_555 1_555
N2B C4 1_555 1_555
C1B H1B 1_555 1_555
C2B C1B 1_555 1_555
H2B C2B 1_555 1_555
C4B N2A 1_555 1_555
C5B C1B 1_555 1_555
C1J C5A 1_555 1_555
H1J C1J 1_555 1_555
C2J N1A 1_555 1_555
H2J C2J 1_555 1_555
C1K C5 1_555 1_555
H1K C1K 1_555 1_555
C2K N1 1_555 1_555
H2K C2K 1_555 1_555
C1I C5B 1_555 1_555
H1I C1I 1_555 1_555
C2I N1B 1_555 1_555
H2I C2I 1_555 1_555
In1A O2 1_555 1_555
O1A In1A 1_555 1_555
C3A O1A 1_555 1_555
C6A C9A 1_555 1_555
C7A C3A 1_555 1_555
C8A C7A 1_555 1_555
H3A C8A 1_555 1_555
C9A C8A 1_555 1_555
H4A C9A 1_555 1_555
O1F C3F 1_555 1_555
C3F C7F 1_555 1_555
C6F C6A 1_555 1_555
C7F C8F 1_555 1_555
C8F H3F 1_555 1_555
C9F C6F 1_555 1_555
H4F C9F 1_555 1_555
O1M C3F 1_555 1_555
C8M C7F 1_555 1_555
H3M C8M 1_555 1_555
C9M C6F 1_555 1_555
H4M C9M 1_555 1_555
O1R C3A 1_555 1_555
C8R C7A 1_555 1_555
H3R C8R 1_555 1_555
C9R C6A 1_555 1_555
H4R C9R 1_555 1_555
In1B O2 1_555 1_555
O1B In1B 1_555 1_555
C3B O1B 1_555 1_555
C6B C9B 1_555 1_555
C7B C3B 1_555 1_555
C8B C7B 1_555 1_555
H3B C8B 1_555 1_555
C9B C8B 1_555 1_555
H4B C9B 1_555 1_555
O1H C3H 1_555 1_555
C3H C7H 1_555 1_555
C6H C6B 1_555 1_555
C7H C8H 1_555 1_555
C8H H3H 1_555 1_555
C9H C6H 1_555 1_555
H4H C9H 1_555 1_555
O1N C3H 1_555 1_555
C8N C7H 1_555 1_555
H3N C8N 1_555 1_555
C9N C6H 1_555 1_555
H4N C9N 1_555 1_555
O1T In1 1_555 1_555
C8T C7B 1_555 1_555
H3T C8T 1_555 1_555
C9T C6B 1_555 1_555
H4T C9T 1_555 1_555
In1A_2 N1A 1_555 1_555
In1B_2 N1B 1_555 1_555
In1C O1H 1_555 1_555
In1C_2 O1L 1_555 1_555
In1D O1M 1_555 1_555
In1D_2 O1G 1_555 1_555
In1E O1F 1_555 1_555
In1E_2 O1N 1_555 1_555
O1I In1B 1_555 1_555
O1J In1A 1_555 1_555
O1K In1 1_555 1_555
O1O In1 1_555 1_555
O1P In1A 1_555 1_555
O1Q In1B 1_555 1_555
N1A_2 In1A 1_555 1_555
N1B_2 In1B 1_555 1_555
C1 C2 1_555 1_555
C8G C9G 1_555 1_555
C8L C9L 1_555 1_555
O1S In1A 1_555 1_555
C8S C9S 1_555 1_555
C4A C5A 1_555 1_555
N2B C4B 1_555 1_555
C4B C5B 1_555 1_555
C1J C2J 1_555 1_555
C1K C2K 1_555 1_555
C1I C2I 1_555 1_555
C8F C9F 1_555 1_555
C8M C9M 1_555 1_555
O1R In1B 1_555 1_555
C8R C9R 1_555 1_555
C3B O1T 1_555 1_555
C8H C9H 1_555 1_555
C8N C9N 1_555 1_555
C8T C9T 1_555 1_555

#END
