
#######################################################################
#
#                 Cambridge Crystallographic Data Centre
#                                CCDC 
#
#######################################################################
#
# If this CIF has been generated from an entry in the Cambridge 
# Structural Database, then it will include bibliographic, chemical, 
# crystal, experimental, refinement or atomic coordinate data resulting 
# from the CCDC's data processing and validation procedures.
#
#######################################################################

data_QAMLEY
_chemical_formula_moiety         'C60 H36 In13 N18 O24'
_symmetry_cell_setting           hexagonal
_symmetry_space_group_name_H-M   'P 63/m m c'
_symmetry_Int_Tables_number      194
_space_group_name_Hall           '-P 6c 2c'
loop_
_symmetry_equiv_pos_site_id
_symmetry_equiv_pos_as_xyz
1 x,y,z
2 -y,x-y,z
3 -x+y,-x,z
4 -x,-y,1/2+z
5 y,-x+y,1/2+z
6 x-y,x,1/2+z
7 y,x,-z
8 x-y,-y,-z
9 -x,-x+y,-z
10 -y,-x,1/2-z
11 -x+y,y,1/2-z
12 x,x-y,1/2-z
13 -x,-y,-z
14 y,-x+y,-z
15 x-y,x,-z
16 x,y,1/2-z
17 -y,x-y,1/2-z
18 -x+y,-x,1/2-z
19 -y,-x,z
20 -x+y,y,z
21 x,x-y,z
22 y,x,1/2+z
23 x-y,-y,1/2+z
24 -x,-x+y,1/2+z
_cell_length_a                   16.8431(14)
_cell_length_b                   16.8431(14)
_cell_length_c                   30.288(5)
_cell_angle_alpha                90
_cell_angle_beta                 90
_cell_angle_gamma                120
_cell_volume                     7441.24
loop_
_atom_site_label
_atom_site_type_symbol
_atom_site_fract_x
_atom_site_fract_y
_atom_site_fract_z
In1 In 0.26406(3) 0.52813(5) 0.7500
O1 O 0.3333 0.6667 0.7500
O2 O 0.3474(3) 0.5178(3) 0.69980(14)
N1 N 0.1900(3) 0.3800(7) 0.7500
N2 N 0.0943(8) 0.0471(4) 0.7500
N3 N 0.4666(5) 0.4744(7) 0.5116(3)
C1 C 0.0972(6) 0.3314(7) 0.7500
H1 H 0.0654 0.3633 0.7500
C2 C 0.0469(7) 0.2355(6) 0.7500
H2 H -0.0169 0.2039 0.7500
C3 C 0.0952(4) 0.1903(9) 0.7500
C4 C 0.0447(5) 0.0894(9) 0.7500
C5 C 0.4428(5) 0.5572(5) 0.6380(4)
C6 C 0.3817(6) 0.4752(6) 0.6176(3)
H3 H 0.3295 0.4328 0.6327
C7 C 0.3974(7) 0.4548(7) 0.5743(3)
H4 H 0.3573 0.4004 0.5600
C8 C 0.4774(3) 0.5226(3) 0.5548(4)
C9 C 0.4227(3) 0.5773(3) 0.6835(3)
O2F O 0.5178(3) 0.3474(3) 0.30020(14)
N3F N 0.4744(7) 0.4666(5) 0.4884(3)
C5F C 0.5572(5) 0.4428(5) 0.3620(4)
C6F C 0.4752(6) 0.3817(6) 0.3824(3)
H3F H 0.4328 0.3295 0.3673
C7F C 0.4548(7) 0.3974(7) 0.4257(3)
H4F H 0.4004 0.3573 0.4400
C8F C 0.5226(3) 0.4774(3) 0.4452(4)
C9F C 0.5773(3) 0.4227(3) 0.3165(3)
O2L O 0.6526(3) 0.4822(3) 0.30020(14)
N3L N 0.5334(5) 0.5256(7) 0.4884(3)
C6L C 0.6183(6) 0.5248(6) 0.3824(3)
H3L H 0.6705 0.5672 0.3673
C7L C 0.6026(7) 0.5452(7) 0.4257(3)
H4L H 0.6427 0.5996 0.4400
O2R O 0.4822(3) 0.6526(3) 0.69980(14)
N3R N 0.5256(7) 0.5334(5) 0.5116(3)
C6R C 0.5248(6) 0.6183(6) 0.6176(3)
H3R H 0.5672 0.6705 0.6327
C7R C 0.5452(7) 0.6026(7) 0.5743(3)
H4R H 0.5996 0.6427 0.5600
N1A N -0.3800(7) -0.1900(8) 0.7500
N2A N -0.0471(4) 0.0472(9) 0.7500
C1A C -0.3314(7) -0.2342(9) 0.7500
H1A H -0.3633 -0.2979 0.7500
C2A C -0.2355(6) -0.1886(9) 0.7500
H2A H -0.2039 -0.2208 0.7500
C3A C -0.1903(9) -0.0951(10) 0.7500
C4A C -0.0894(9) -0.0447(10) 0.7500
N1B N 0.1900(8) -0.1900(3) 0.7500
N2B N -0.0472(9) -0.0943(8) 0.7500
C1B C 0.2342(9) -0.0972(6) 0.7500
H1B H 0.2979 -0.0654 0.7500
C2B C 0.1886(9) -0.0469(7) 0.7500
H2B H 0.2208 0.0169 0.7500
C3B C 0.0951(10) -0.0952(4) 0.7500
C4B C 0.0447(10) -0.0447(5) 0.7500
C1I C -0.3314(7) -0.0972(6) 0.7500
H1I H -0.3633 -0.0654 0.7500
C2I C -0.2355(6) -0.0469(7) 0.7500
H2I H -0.2039 0.0169 0.7500
C1J C 0.2342(9) 0.3314(7) 0.7500
H1J H 0.2979 0.3633 0.7500
C2J C 0.1886(9) 0.2355(6) 0.7500
H2J H 0.2208 0.2039 0.7500
C1K C 0.0972(6) -0.2342(9) 0.7500
H1K H 0.0654 -0.2979 0.7500
C2K C 0.0469(7) -0.1886(9) 0.7500
H2K H -0.0169 -0.2208 0.7500
In1A In -0.52813(5) -0.26407(6) 0.7500
O2A O -0.5178(3) -0.1704(4) 0.69980(14)
N3A N -0.4744(7) -0.0078(9) 0.5116(3)
C5A C -0.5572(5) -0.1144(7) 0.6380(4)
C6A C -0.4752(6) -0.0935(8) 0.6176(3)
H3A H -0.4328 -0.1033 0.6327
C7A C -0.4548(7) -0.0574(10) 0.5743(3)
H4A H -0.4004 -0.0431 0.5600
C8A C -0.5226(3) -0.0452(4) 0.5548(4)
C9A C -0.5773(3) -0.1546(4) 0.6835(3)
O2H O -0.3474(3) 0.1704(4) 0.30020(14)
N3H N -0.4666(5) 0.0078(9) 0.4884(3)
C5H C -0.4428(5) 0.1144(7) 0.3620(4)
C6H C -0.3817(6) 0.0935(8) 0.3824(3)
H3H H -0.3295 0.1033 0.3673
C7H C -0.3974(7) 0.0574(10) 0.4257(3)
H4H H -0.3573 0.0431 0.4400
C8H C -0.4774(3) 0.0452(4) 0.4452(4)
C9H C -0.4227(3) 0.1546(4) 0.3165(3)
O2M O -0.4822(3) 0.1704(4) 0.30020(14)
N3M N -0.5256(7) 0.0078(9) 0.4884(3)
C6M C -0.5248(6) 0.0935(8) 0.3824(3)
H3M H -0.5672 0.1033 0.3673
C7M C -0.5452(7) 0.0574(10) 0.4257(3)
H4M H -0.5996 0.0431 0.4400
O2T O -0.6526(3) -0.1704(4) 0.69980(14)
N3T N -0.5334(5) -0.0078(9) 0.5116(3)
C6T C -0.6183(6) -0.0935(8) 0.6176(3)
H3T H -0.6705 -0.1033 0.6327
C7T C -0.6026(7) -0.0574(10) 0.5743(3)
H4T H -0.6427 -0.0431 0.5600
In1B In 0.26407(6) -0.26406(3) 0.7500
O2B O 0.1704(4) -0.3474(3) 0.69980(14)
N3B N 0.0078(9) -0.4666(5) 0.5116(3)
C5B C 0.1144(7) -0.4428(5) 0.6380(4)
C6B C 0.0935(8) -0.3817(6) 0.6176(3)
H3B H 0.1033 -0.3295 0.6327
C7B C 0.0574(10) -0.3974(7) 0.5743(3)
H4B H 0.0431 -0.3573 0.5600
C8B C 0.0452(4) -0.4774(3) 0.5548(4)
C9B C 0.1546(4) -0.4227(3) 0.6835(3)
O2G O -0.1704(4) -0.5178(3) 0.30020(14)
N3G N -0.0078(9) -0.4744(7) 0.4884(3)
C5G C -0.1144(7) -0.5572(5) 0.3620(4)
C6G C -0.0935(8) -0.4752(6) 0.3824(3)
H3G H -0.1033 -0.4328 0.3673
C7G C -0.0574(10) -0.4548(7) 0.4257(3)
H4G H -0.0431 -0.4004 0.4400
C8G C -0.0452(4) -0.5226(3) 0.4452(4)
C9G C -0.1546(4) -0.5773(3) 0.3165(3)
O2N O -0.1704(4) -0.6526(3) 0.30020(14)
N3N N -0.0078(9) -0.5334(5) 0.4884(3)
C6N C -0.0935(8) -0.6183(6) 0.3824(3)
H3N H -0.1033 -0.6705 0.3673
C7N C -0.0574(10) -0.6026(7) 0.4257(3)
H4N H -0.0431 -0.6427 0.4400
O2S O 0.1704(4) -0.4822(3) 0.69980(14)
N3S N 0.0078(9) -0.5256(7) 0.5116(3)
C6S C 0.0935(8) -0.5248(6) 0.6176(3)
H3S H 0.1033 -0.5672 0.6327
C7S C 0.0574(10) -0.5452(7) 0.5743(3)
H4S H 0.0431 -0.5996 0.5600
In1_2 In 0.26406(3) -0.47187(5) 0.7500
In1A_2 In 0.47187(5) 0.73593(6) 0.7500
In1B_2 In -0.73593(6) -0.26406(3) 0.7500
In1B_3 In 0.26407(6) 0.73594(3) 0.7500
In1C In -0.26406(3) -0.52813(5) 0.2500
In1C_2 In 0.73594(3) 0.47187(5) 0.2500
In1D In -0.47187(5) 0.26407(6) 0.2500
In1D_2 In 0.52813(5) 0.26407(6) 0.2500
In1E In -0.26407(6) -0.73594(3) 0.2500
In1E_2 In -0.26407(6) 0.26406(3) 0.2500
O1_2 O -0.6667 -0.3333 0.7500
O1_3 O 0.3333 -0.3333 0.7500
O2I O -0.5178(3) -0.3474(3) 0.80020(14)
O2J O 0.1704(4) 0.5178(3) 0.80020(14)
O2K O 0.3474(3) -0.1704(4) 0.80020(14)
O2O O 0.3474(3) 0.5178(3) 0.80020(14)
O2P O -0.5178(3) -0.1704(4) 0.80020(14)
O2Q O 0.1704(4) -0.3474(3) 0.80020(14)
O2R_2 O -0.5178(3) -0.3474(3) 0.69980(14)
O2S_2 O 0.1704(4) 0.5178(3) 0.69980(14)
O2T_2 O 0.3474(3) -0.1704(4) 0.69980(14)
loop_
_geom_bond_atom_site_label_1
_geom_bond_atom_site_label_2
_geom_bond_site_symmetry_1
_geom_bond_site_symmetry_2
In1 O1 1_555 1_555
O1 In1A_2 1_555 1_555
O2 In1 1_555 1_555
N1 In1 1_555 1_555
N2 C4 1_555 1_555
N3 C8 1_555 1_555
C1 N1 1_555 1_555
H1 C1 1_555 1_555
C2 C1 1_555 1_555
H2 C2 1_555 1_555
C3 C2 1_555 1_555
C4 C3 1_555 1_555
C5 C6 1_555 1_555
C6 H3 1_555 1_555
C7 C6 1_555 1_555
H4 C7 1_555 1_555
C8 C7 1_555 1_555
C9 O2 1_555 1_555
O2F C9F 1_555 1_555
N3F C8F 1_555 1_555
C5F C6F 1_555 1_555
C6F H3F 1_555 1_555
C7F C6F 1_555 1_555
H4F C7F 1_555 1_555
C8F C7F 1_555 1_555
C9F C5F 1_555 1_555
O2L C9F 1_555 1_555
N3L N3 1_555 1_555
C6L C5F 1_555 1_555
H3L C6L 1_555 1_555
C7L C8F 1_555 1_555
H4L C7L 1_555 1_555
O2R C9 1_555 1_555
N3R C8 1_555 1_555
C6R C5 1_555 1_555
H3R C6R 1_555 1_555
C7R C8 1_555 1_555
H4R C7R 1_555 1_555
N1A C1A 1_555 1_555
N2A C4 1_555 1_555
C1A H1A 1_555 1_555
C2A C1A 1_555 1_555
H2A C2A 1_555 1_555
C3A C2A 1_555 1_555
C4A N2A 1_555 1_555
N1B C1B 1_555 1_555
N2B C4A 1_555 1_555
C1B H1B 1_555 1_555
C2B C1B 1_555 1_555
H2B C2B 1_555 1_555
C3B C2B 1_555 1_555
C4B N2 1_555 1_555
C1I N1A 1_555 1_555
H1I C1I 1_555 1_555
C2I C3A 1_555 1_555
H2I C2I 1_555 1_555
C1J N1 1_555 1_555
H1J C1J 1_555 1_555
C2J C3 1_555 1_555
H2J C2J 1_555 1_555
C1K N1B 1_555 1_555
H1K C1K 1_555 1_555
C2K C3B 1_555 1_555
H2K C2K 1_555 1_555
In1A N1A 1_555 1_555
O2A In1A 1_555 1_555
N3A C8A 1_555 1_555
C5A C6A 1_555 1_555
C6A H3A 1_555 1_555
C7A C6A 1_555 1_555
H4A C7A 1_555 1_555
C8A C7A 1_555 1_555
C9A O2A 1_555 1_555
O2H C9H 1_555 1_555
N3H C8H 1_555 1_555
C5H C6H 1_555 1_555
C6H H3H 1_555 1_555
C7H C6H 1_555 1_555
H4H C7H 1_555 1_555
C8H C7H 1_555 1_555
C9H C5H 1_555 1_555
O2M C9H 1_555 1_555
N3M N3A 1_555 1_555
C6M C5H 1_555 1_555
H3M C6M 1_555 1_555
C7M C8H 1_555 1_555
H4M C7M 1_555 1_555
O2T C9A 1_555 1_555
N3T C8A 1_555 1_555
C6T C5A 1_555 1_555
H3T C6T 1_555 1_555
C7T C8A 1_555 1_555
H4T C7T 1_555 1_555
In1B N1B 1_555 1_555
O2B In1B 1_555 1_555
N3B C8B 1_555 1_555
C5B C6B 1_555 1_555
C6B H3B 1_555 1_555
C7B C6B 1_555 1_555
H4B C7B 1_555 1_555
C8B C7B 1_555 1_555
C9B O2B 1_555 1_555
O2G C9G 1_555 1_555
N3G C8G 1_555 1_555
C5G C6G 1_555 1_555
C6G H3G 1_555 1_555
C7G C6G 1_555 1_555
H4G C7G 1_555 1_555
C8G C7G 1_555 1_555
C9G C5G 1_555 1_555
O2N C9G 1_555 1_555
N3N N3B 1_555 1_555
C6N C5G 1_555 1_555
H3N C6N 1_555 1_555
C7N C8G 1_555 1_555
H4N C7N 1_555 1_555
O2S C9B 1_555 1_555
N3S C8B 1_555 1_555
C6S C5B 1_555 1_555
H3S C6S 1_555 1_555
C7S C8B 1_555 1_555
H4S C7S 1_555 1_555
In1_2 O2S 1_555 1_555
In1A_2 O2R 1_555 1_555
In1B_2 O2T 1_555 1_555
In1B_3 O1 1_555 1_555
In1C O2G 1_555 1_555
In1C_2 O2L 1_555 1_555
In1D O2M 1_555 1_555
In1D_2 O2F 1_555 1_555
In1E O2N 1_555 1_555
In1E_2 O2H 1_555 1_555
O1_2 In1A 1_555 1_555
O1_3 In1B 1_555 1_555
O2I In1A 1_555 1_555
O2J In1 1_555 1_555
O2K In1B 1_555 1_555
O2O In1 1_555 1_555
O2P In1A 1_555 1_555
O2Q In1B 1_555 1_555
O2R_2 In1A 1_555 1_555
O2S_2 In1 1_555 1_555
O2T_2 In1B 1_555 1_555
C5 C9 1_555 1_555
N3F N3R 1_555 1_555
C8F N3L 1_555 1_555
C6L C7L 1_555 1_555
C6R C7R 1_555 1_555
C3A C4A 1_555 1_555
N2B C4B 1_555 1_555
C3B C4B 1_555 1_555
C1I C2I 1_555 1_555
C1J C2J 1_555 1_555
C1K C2K 1_555 1_555
C5A C9A 1_555 1_555
N3H N3T 1_555 1_555
C8H N3M 1_555 1_555
C6M C7M 1_555 1_555
C6T C7T 1_555 1_555
C5B C9B 1_555 1_555
N3G N3S 1_555 1_555
C8G N3N 1_555 1_555
C6N C7N 1_555 1_555
C6S C7S 1_555 1_555
In1_2 O1_3 1_555 1_555
In1B_2 O1_2 1_555 1_555

#END
