
#######################################################################
#
#                 Cambridge Crystallographic Data Centre
#                                CCDC 
#
#######################################################################
#
# If this CIF has been generated from an entry in the Cambridge 
# Structural Database, then it will include bibliographic, chemical, 
# crystal, experimental, refinement or atomic coordinate data resulting 
# from the CCDC's data processing and validation procedures.
#
#######################################################################

data_GULWAM
_chemical_formula_moiety         '(C78 H60 O18 Yb2)n'
_symmetry_cell_setting           orthorhombic
_symmetry_space_group_name_H-M   'P n n a'
_symmetry_Int_Tables_number      52
_space_group_name_Hall           '-P 2a 2bc'
loop_
_symmetry_equiv_pos_site_id
_symmetry_equiv_pos_as_xyz
1 x,y,z
2 1/2-x,-y,z
3 1/2-x,1/2+y,1/2-z
4 x,1/2-y,1/2-z
5 -x,-y,-z
6 1/2+x,y,-z
7 1/2+x,1/2-y,1/2+z
8 -x,1/2+y,1/2+z
_cell_length_a                   16.0798(14)
_cell_length_b                   22.7096(19)
_cell_length_c                   38.484(3)
_cell_angle_alpha                90
_cell_angle_beta                 90
_cell_angle_gamma                90
_cell_volume                     14053
loop_
_atom_site_label
_atom_site_type_symbol
_atom_site_fract_x
_atom_site_fract_y
_atom_site_fract_z
C1 C -0.3476(5) 0.4244(3) -0.46952(17)
C2 C -0.3224(12) 0.3815(6) -0.4420(3)
C3 C -0.3806(9) 0.3531(6) -0.4212(4)
H1 H -0.4371 0.3593 -0.4249
C4 C -0.3545(11) 0.3153(6) -0.3950(3)
H2 H -0.3935 0.2963 -0.3811
C5 C -0.2701(12) 0.3059(7) -0.3895(4)
C6 C -0.2118(10) 0.3343(8) -0.4103(5)
H3 H -0.1553 0.3280 -0.4066
C7 C -0.2380(11) 0.3721(7) -0.4365(4)
H4 H -0.1990 0.3911 -0.4504
C8 C -0.2494(11) 0.2702(10) -0.3574(5)
H5 H -0.2941 0.2571 -0.3442
C9 C -0.1787(12) 0.2567(9) -0.3470(4)
H6 H -0.1344 0.2683 -0.3610
C10 C -0.1571(11) 0.2240(7) -0.3147(3)
C11 C -0.0729(10) 0.2180(7) -0.3073(3)
C12 C -0.0477(8) 0.1880(8) -0.2776(4)
H7 H 0.0086 0.1840 -0.2727
C13 C -0.1067(9) 0.1638(7) -0.2554(3)
C14 C -0.1909(8) 0.1698(7) -0.2628(3)
C15 C -0.2161(8) 0.1998(7) -0.2925(4)
H8 H -0.2724 0.2038 -0.2974
O1 O -0.0073(14) 0.2450(10) -0.3280(5)
O2 O -0.2529(12) 0.1458(9) -0.2412(5)
C16 C 0.0873(19) 0.2198(16) -0.3245(9)
H9 H 0.1246 0.2446 -0.3374
H10 H 0.1034 0.2195 -0.3005
H11 H 0.0897 0.1805 -0.3336
C17 C -0.3418(18) 0.1648(17) -0.2608(8)
H12 H -0.3880 0.1508 -0.2473
H13 H -0.3447 0.2069 -0.2627
H14 H -0.3436 0.1477 -0.2836
C18 C -0.0845(14) 0.1433(12) -0.2197(5)
H15 H -0.1284 0.1381 -0.2043
C19 C -0.0145(14) 0.1326(12) -0.2086(4)
H16 H 0.0320 0.1420 -0.2218
C20 C -0.0040(8) 0.1041(6) -0.1732(3)
C21 C 0.0768(9) 0.0932(7) -0.1674(3)
H17 H 0.1146 0.0989 -0.1854
C22 C 0.1063(7) 0.0732(5) -0.1345(2)
H18 H 0.1624 0.0651 -0.1311
C23 C 0.0495(5) 0.0662(4) -0.10789(19)
C24 C -0.0305(6) 0.0774(5) -0.1141(2)
H19 H -0.0691 0.0715 -0.0965
C25 C -0.0571(7) 0.0974(6) -0.1458(3)
H20 H -0.1130 0.1067 -0.1488
C26 C 0.0815(5) 0.0465(3) -0.07321(16)
C27 C -0.3638(4) 0.5984(3) -0.52909(19)
C28 C -0.3974(5) 0.65810(19) -0.52474(18)
C29 C -0.4478(5) 0.6716(3) -0.49650(18)
H21 H -0.4633 0.6422 -0.4810
C30 C -0.4751(5) 0.7290(3) -0.4915(2)
H22 H -0.5088 0.7381 -0.4726
C31 C -0.4519(6) 0.7730(2) -0.5146(3)
C32 C -0.4015(6) 0.7595(2) -0.5429(2)
H23 H -0.3859 0.7889 -0.5584
C33 C -0.3742(5) 0.7021(3) -0.54792(18)
H24 H -0.3405 0.6931 -0.5668
C34 C -0.4744(11) 0.8357(5) -0.5055(5)
H25 H -0.5139 0.8393 -0.4880
C35 C -0.4495(12) 0.8826(5) -0.5172(6)
H26 H -0.4077 0.8800 -0.5338
C36 C -0.4775(13) 0.9432(5) -0.5083(5)
C37 C -0.5284(14) 0.9543(6) -0.4805(5)
H27 H -0.5506 0.9232 -0.4677
C38 C -0.4536(16) 0.9888(7) -0.5285(6)
C39 C -0.379(2) 1.0181(13) -0.5813(10)
H28 H -0.3423 0.9999 -0.5980
H29 H -0.3495 1.0493 -0.5697
H30 H -0.4263 1.0339 -0.5931
O3 O -0.4057(15) 0.9737(7) -0.5556(7)
O4 O -0.2965(3) 0.4417(2) -0.49106(12)
O5 O -0.4235(3) 0.4391(3) -0.46973(14)
O6 O 0.1560(3) 0.0328(2) -0.06993(11)
O7 O 0.0284(3) 0.0455(2) -0.04871(12)
O8 O -0.3886(3) 0.5554(2) -0.51021(12)
O9 O -0.3060(3) 0.5901(2) -0.55051(14)
Yb1 Yb -0.2500 0.5000 -0.532580(8)
Yb2 Yb -0.5000 0.5000 -0.5000
C38D C -0.5464(16) 1.0112(7) -0.4715(6)
C36D C -0.5225(13) 1.0568(5) -0.4917(5)
C35D C -0.5505(12) 1.1174(5) -0.4828(6)
C34D C -0.5256(11) 1.1643(5) -0.4945(5)
C31D C -0.5481(6) 1.2270(2) -0.4854(3)
C30D C -0.5249(5) 1.2710(3) -0.5085(2)
C29D C -0.5522(5) 1.3284(3) -0.50350(18)
C28D C -0.6026(5) 1.34190(19) -0.47526(18)
C27D C -0.6362(4) 1.4016(3) -0.47091(19)
O8D O -0.6114(3) 1.4446(2) -0.48979(12)
O9D O -0.6940(3) 1.4099(2) -0.44949(14)
C33D C -0.6258(5) 1.2979(3) -0.45208(18)
C32D C -0.5985(6) 1.2405(2) -0.4571(2)
H23D H -0.6141 1.2111 -0.4416
H24D H -0.6595 1.3069 -0.4332
H21D H -0.5367 1.3578 -0.5190
H22D H -0.4912 1.2619 -0.5274
H25D H -0.4861 1.1607 -0.5120
H26D H -0.5923 1.1200 -0.4662
C37D C -0.4716(14) 1.0457(6) -0.5195(5)
H27D H -0.4494 1.0768 -0.5323
O3D O -0.5943(15) 1.0263(7) -0.4444(7)
C39D C -0.621(2) 0.9819(13) -0.4187(10)
H28D H -0.6577 1.0001 -0.4020
H29D H -0.6505 0.9507 -0.4303
H30D H -0.5737 0.9661 -0.4069
C1F C -0.8476(5) 0.0756(3) -0.96952(17)
C2F C -0.8224(12) 0.1185(6) -0.9420(3)
C3F C -0.8806(9) 0.1469(6) -0.9212(4)
H1F H -0.9371 0.1407 -0.9249
C4F C -0.8545(11) 0.1847(6) -0.8950(3)
H2F H -0.8935 0.2037 -0.8811
C5F C -0.7701(12) 0.1941(7) -0.8895(4)
C6F C -0.7118(10) 0.1657(8) -0.9103(5)
H3F H -0.6553 0.1720 -0.9066
C7F C -0.7380(11) 0.1279(7) -0.9365(4)
H4F H -0.6990 0.1089 -0.9504
C8F C -0.7494(11) 0.2298(10) -0.8574(5)
H5F H -0.7941 0.2429 -0.8442
C9F C -0.6787(12) 0.2433(9) -0.8470(4)
H6F H -0.6344 0.2317 -0.8610
C10F C -0.6571(11) 0.2760(7) -0.8147(3)
C11F C -0.5729(10) 0.2820(7) -0.8073(3)
C12F C -0.5477(8) 0.3120(8) -0.7776(4)
H7F H -0.4914 0.3160 -0.7727
C13F C -0.6067(9) 0.3362(7) -0.7554(3)
C14F C -0.6909(8) 0.3302(7) -0.7628(3)
C15F C -0.7161(8) 0.3002(7) -0.7925(4)
H8F H -0.7724 0.2962 -0.7974
O1F O -0.5073(14) 0.2550(10) -0.8280(5)
O2F O -0.7529(12) 0.3542(9) -0.7412(5)
C16F C -0.4127(19) 0.2802(16) -0.8245(9)
H9F H -0.3754 0.2554 -0.8374
H10F H -0.3966 0.2805 -0.8005
H11F H -0.4103 0.3195 -0.8336
C17F C -0.8418(18) 0.3352(17) -0.7608(8)
H12F H -0.8880 0.3492 -0.7473
H13F H -0.8447 0.2931 -0.7627
H14F H -0.8436 0.3523 -0.7836
C18F C -0.5845(14) 0.3567(12) -0.7197(5)
H15F H -0.6284 0.3619 -0.7043
C19F C -0.5145(14) 0.3674(12) -0.7086(4)
H16F H -0.4680 0.3580 -0.7218
C20F C -0.5040(8) 0.3959(6) -0.6732(3)
C21F C -0.4232(9) 0.4068(7) -0.6674(3)
H17F H -0.3854 0.4011 -0.6854
C22F C -0.3937(7) 0.4268(5) -0.6345(2)
H18F H -0.3376 0.4349 -0.6311
C23F C -0.4505(5) 0.4338(4) -0.60789(19)
C24F C -0.5305(6) 0.4226(5) -0.6141(2)
H19F H -0.5691 0.4285 -0.5965
C25F C -0.5571(7) 0.4026(6) -0.6458(3)
H20F H -0.6130 0.3933 -0.6488
C26F C -0.4185(5) 0.4535(3) -0.57321(16)
O4F O -0.7965(3) 0.0583(2) -0.99106(12)
O5F O -0.9235(3) 0.0609(3) -0.96973(14)
O6F O -0.3440(3) 0.4672(2) -0.56993(11)
O7F O -0.4716(3) 0.4545(2) -0.54871(12)
Yb1F Yb 0.2500 0.0000 -0.032580(8)
Yb2B Yb 0.0000 0.0000 0.0000
O4A O -0.2035(3) 0.5583(2) -0.49106(12)
O6G O -0.1560(3) 0.5328(2) -0.56993(11)
O8A O -0.1114(3) 0.4446(2) -0.51021(12)
O9A O -0.1940(3) 0.4099(2) -0.55051(14)
O7B O -0.5284(3) 0.5455(2) -0.45129(12)
O5D O -0.5765(3) 0.5609(3) -0.53027(14)
O8D_2 O -0.6114(3) 0.4446(2) -0.48979(12)
Yb1D Yb -0.7500 1.5000 -0.467420(8)
Yb2D Yb -0.5000 1.5000 -0.5000
Yb1F_2 Yb -0.7500 0.0000 -1.032580(8)
Yb2F Yb -1.0000 0.0000 -1.0000
loop_
_geom_bond_atom_site_label_1
_geom_bond_atom_site_label_2
_geom_bond_site_symmetry_1
_geom_bond_site_symmetry_2
C1 C2 1_555 1_555
C2 C3 1_555 1_555
C3 H1 1_555 1_555
C4 C3 1_555 1_555
H2 C4 1_555 1_555
C5 C4 1_555 1_555
C6 C5 1_555 1_555
H3 C6 1_555 1_555
C7 C2 1_555 1_555
H4 C7 1_555 1_555
C8 C5 1_555 1_555
H5 C8 1_555 1_555
C9 C8 1_555 1_555
H6 C9 1_555 1_555
C10 C9 1_555 1_555
C11 C10 1_555 1_555
C12 C11 1_555 1_555
H7 C12 1_555 1_555
C13 C12 1_555 1_555
C14 C13 1_555 1_555
C15 C10 1_555 1_555
H8 C15 1_555 1_555
O1 C11 1_555 1_555
O2 C14 1_555 1_555
C16 O1 1_555 1_555
H9 C16 1_555 1_555
H10 C16 1_555 1_555
H11 C16 1_555 1_555
C17 O2 1_555 1_555
H12 C17 1_555 1_555
H13 C17 1_555 1_555
H14 C17 1_555 1_555
C18 C13 1_555 1_555
H15 C18 1_555 1_555
C19 C18 1_555 1_555
H16 C19 1_555 1_555
C20 C19 1_555 1_555
C21 C20 1_555 1_555
H17 C21 1_555 1_555
C22 C21 1_555 1_555
H18 C22 1_555 1_555
C23 C22 1_555 1_555
C24 C23 1_555 1_555
H19 C24 1_555 1_555
C25 C20 1_555 1_555
H20 C25 1_555 1_555
C26 C23 1_555 1_555
C27 C28 1_555 1_555
C28 C29 1_555 1_555
C29 H21 1_555 1_555
C30 C29 1_555 1_555
H22 C30 1_555 1_555
C31 C30 1_555 1_555
C32 C31 1_555 1_555
H23 C32 1_555 1_555
C33 C28 1_555 1_555
H24 C33 1_555 1_555
C34 C31 1_555 1_555
H25 C34 1_555 1_555
C35 C34 1_555 1_555
H26 C35 1_555 1_555
C36 C35 1_555 1_555
C37 C36 1_555 1_555
H27 C37 1_555 1_555
C38 C36 1_555 1_555
C39 H28 1_555 1_555
H29 C39 1_555 1_555
H30 C39 1_555 1_555
O3 C38 1_555 1_555
O4 C1 1_555 1_555
O5 C1 1_555 1_555
O6 C26 1_555 1_555
O7 C26 1_555 1_555
O8 C27 1_555 1_555
O9 C27 1_555 1_555
Yb1 O4 1_555 1_555
Yb2 O5 1_555 1_555
C38D C37 1_555 1_555
C36D C38D 1_555 1_555
C35D C36D 1_555 1_555
C34D C35D 1_555 1_555
C31D C34D 1_555 1_555
C30D C31D 1_555 1_555
C29D C30D 1_555 1_555
C28D C29D 1_555 1_555
C27D C28D 1_555 1_555
O8D C27D 1_555 1_555
O9D C27D 1_555 1_555
C33D C28D 1_555 1_555
C32D C31D 1_555 1_555
H23D C32D 1_555 1_555
H24D C33D 1_555 1_555
H21D C29D 1_555 1_555
H22D C30D 1_555 1_555
H25D C34D 1_555 1_555
H26D C35D 1_555 1_555
C37D C38 1_555 1_555
H27D C37D 1_555 1_555
O3D C38D 1_555 1_555
C39D O3D 1_555 1_555
H28D C39D 1_555 1_555
H29D C39D 1_555 1_555
H30D C39D 1_555 1_555
C1F C2F 1_555 1_555
C2F C3F 1_555 1_555
C3F H1F 1_555 1_555
C4F C3F 1_555 1_555
H2F C4F 1_555 1_555
C5F C4F 1_555 1_555
C6F C5F 1_555 1_555
H3F C6F 1_555 1_555
C7F C2F 1_555 1_555
H4F C7F 1_555 1_555
C8F C5F 1_555 1_555
H5F C8F 1_555 1_555
C9F C8F 1_555 1_555
H6F C9F 1_555 1_555
C10F C9F 1_555 1_555
C11F C10F 1_555 1_555
C12F C11F 1_555 1_555
H7F C12F 1_555 1_555
C13F C12F 1_555 1_555
C14F C13F 1_555 1_555
C15F C10F 1_555 1_555
H8F C15F 1_555 1_555
O1F C11F 1_555 1_555
O2F C14F 1_555 1_555
C16F O1F 1_555 1_555
H9F C16F 1_555 1_555
H10F C16F 1_555 1_555
H11F C16F 1_555 1_555
C17F O2F 1_555 1_555
H12F C17F 1_555 1_555
H13F C17F 1_555 1_555
H14F C17F 1_555 1_555
C18F C13F 1_555 1_555
H15F C18F 1_555 1_555
C19F C18F 1_555 1_555
H16F C19F 1_555 1_555
C20F C19F 1_555 1_555
C21F C20F 1_555 1_555
H17F C21F 1_555 1_555
C22F C21F 1_555 1_555
H18F C22F 1_555 1_555
C23F C22F 1_555 1_555
C24F C23F 1_555 1_555
H19F C24F 1_555 1_555
C25F C20F 1_555 1_555
H20F C25F 1_555 1_555
C26F C23F 1_555 1_555
O4F C1F 1_555 1_555
O5F C1F 1_555 1_555
O6F Yb1 1_555 1_555
O7F Yb2 1_555 1_555
Yb1F O6 1_555 1_555
Yb2B O7 1_555 1_555
O4A Yb1 1_555 1_555
O6G Yb1 1_555 1_555
O8A Yb1 1_555 1_555
O9A Yb1 1_555 1_555
O7B Yb2 1_555 1_555
O5D Yb2 1_555 1_555
O8D_2 Yb2 1_555 1_555
Yb1D O8D 1_555 1_555
Yb2D O8D 1_555 1_555
Yb1F_2 O4F 1_555 1_555
Yb2F O5F 1_555 1_555
C6 C7 1_555 1_555
C14 C15 1_555 1_555
C24 C25 1_555 1_555
C32 C33 1_555 1_555
C39 O3 1_555 1_555
O8 Yb1 1_555 1_555
O8 Yb2 1_555 1_555
O9 Yb1 1_555 1_555
C36D C37D 1_555 1_555
O9D Yb1D 1_555 1_555
C33D C32D 1_555 1_555
C6F C7F 1_555 1_555
C14F C15F 1_555 1_555
C24F C25F 1_555 1_555
C26F O6F 1_555 1_555
C26F O7F 1_555 1_555

#END
