
#######################################################################
#
#                 Cambridge Crystallographic Data Centre
#                                CCDC 
#
#######################################################################
#
# If this CIF has been generated from an entry in the Cambridge 
# Structural Database, then it will include bibliographic, chemical, 
# crystal, experimental, refinement or atomic coordinate data resulting 
# from the CCDC's data processing and validation procedures.
#
#######################################################################

data_JUYJIY
_chemical_formula_moiety         '(C26 H26 Cd1 N2 O8)n'
_symmetry_cell_setting           tetragonal
_symmetry_space_group_name_H-M   'P 43 21 2'
_symmetry_Int_Tables_number      96
_space_group_name_Hall           'P 4nw 2abw'
loop_
_symmetry_equiv_pos_site_id
_symmetry_equiv_pos_as_xyz
1 x,y,z
2 -x,-y,1/2+z
3 1/2-y,1/2+x,3/4+z
4 1/2+y,1/2-x,1/4+z
5 1/2-x,1/2+y,3/4-z
6 1/2+x,1/2-y,1/4-z
7 y,x,-z
8 -y,-x,1/2-z
_cell_length_a                   15.7166(14)
_cell_length_b                   15.7166(14)
_cell_length_c                   32.137(3)
_cell_angle_alpha                90
_cell_angle_beta                 90
_cell_angle_gamma                90
_cell_volume                     7938.21
loop_
_atom_site_label
_atom_site_type_symbol
_atom_site_fract_x
_atom_site_fract_y
_atom_site_fract_z
_atom_site_U_iso_or_equiv
_atom_site_thermal_displace_type
Cd1 Cd 0.27199(4) 0.72829(4) 0.079572(15) 0.0593 Uani
O1 O 0.3094(6) 0.5865(6) 0.1095(3) 0.1183 Uani
O2 O 0.1940(7) 0.6503(6) 0.1289(2) 0.1063 Uani
O3 O 0.2594(6) 0.3404(5) 0.2892(2) 0.1103 Uani
O4 O 0.1313(6) 0.3038(5) 0.2663(2) 0.1130 Uani
O5 O -0.2779(6) 0.6485(5) 0.1336(2) 0.0963 Uani
O6 O -0.1572(6) 0.7015(5) 0.1112(2) 0.0983 Uani
O7 O -0.3046(6) 0.3907(5) -0.0421(2) 0.0980 Uani
O8 O -0.1744(6) 0.3517(5) -0.0302(2) 0.0980 Uani
C1 C 0.2460(10) 0.5967(10) 0.1306(4) 0.0953 Uani
C2 C 0.1969(9) 0.3450(8) 0.2631(3) 0.0883 Uani
C3 C 0.2298(9) 0.5174(7) 0.1624(3) 0.0933 Uani
C4 C 0.1503(8) 0.4840(7) 0.1693(3) 0.0813 Uani
C5 C 0.1391(7) 0.4286(7) 0.2026(2) 0.0820 Uani
H1 H 0.0854 0.4060 0.2077 0.0980 Uiso
C6 C 0.2062(8) 0.4064(8) 0.2284(3) 0.0903 Uani
C7 C 0.2884(9) 0.4381(8) 0.2201(3) 0.1020 Uani
H2 H 0.3347 0.4235 0.2366 0.1220 Uiso
C8 C 0.2978(8) 0.4929(8) 0.1857(3) 0.1040 Uani
H3 H 0.3517 0.5127 0.1787 0.1250 Uiso
C9 C -0.2158(10) 0.6502(8) 0.1102(3) 0.0833 Uani
C10 C -0.2379(11) 0.3972(8) -0.0235(3) 0.0843 Uani
C11 C -0.2187(9) 0.5808(7) 0.0760(3) 0.0877 Uani
C12 C -0.1492(7) 0.5252(7) 0.0684(3) 0.0770 Uani
C13 C -0.1561(7) 0.4708(7) 0.0350(3) 0.0880 Uani
H4 H -0.1098 0.4367 0.0281 0.1050 Uiso
C14 C -0.2331(9) 0.4644(7) 0.0099(3) 0.0873 Uani
C15 C -0.2990(8) 0.5168(7) 0.0192(3) 0.0937 Uani
H5 H -0.3488 0.5152 0.0036 0.1130 Uiso
C16 C -0.2912(8) 0.5728(7) 0.0524(3) 0.0963 Uani
H6 H -0.3376 0.6070 0.0590 0.1160 Uiso
C17 C 0.0753(7) 0.5028(6) 0.1433(3) 0.0767 Uani
C18 C 0.0814(7) 0.5050(6) 0.1002(3) 0.0790 Uani
H7 H 0.1342 0.4999 0.0874 0.0950 Uiso
C19 C 0.0085(7) 0.5148(6) 0.0759(3) 0.0727 Uani
H8 H 0.0142 0.5137 0.0471 0.0870 Uiso
C20 C -0.0708(7) 0.5260(7) 0.0923(3) 0.0717 Uani
C21 C -0.0770(7) 0.5275(6) 0.1374(3) 0.0773 Uani
H9 H -0.1296 0.5354 0.1501 0.0930 Uiso
C22 C -0.0058(7) 0.5173(6) 0.1612(3) 0.0797 Uani
H10 H -0.0106 0.5199 0.1900 0.0960 Uiso
Cd1C Cd 0.22829(4) 0.22801(4) 0.329572(15) 0.0593 Uani
Cd1E Cd -0.22801(4) 0.77171(4) 0.170428(15) 0.0593 Uani
Cd1F Cd -0.27171(4) 0.27199(4) -0.079572(15) 0.0593 Uani
O3B O 0.1596(5) 0.7594(6) 0.0392(2) 0.1103 Uani
O4B O 0.1962(5) 0.6313(6) 0.0163(2) 0.1130 Uani
O5E O 0.2221(6) 0.8515(5) 0.1164(2) 0.0963 Uani
O6E O 0.3428(6) 0.7985(5) 0.1388(2) 0.0983 Uani
O7F O 0.3907(5) 0.6954(6) 0.0421(2) 0.0980 Uani
O8F O 0.3517(5) 0.8256(6) 0.0302(2) 0.0980 Uani
N1 N 0.5165(8) 0.7469(12) 0.1427(5) 0.1820 Uani
H11 H 0.4594 0.7440 0.1413 0.2190 Uiso
H12 H 0.5303 0.7909 0.1593 0.2190 Uiso
C23 C 0.5498(12) 0.6673(10) 0.1611(6) 0.1740 Uani
H13 H 0.5323 0.6198 0.1444 0.2610 Uiso
H14 H 0.5279 0.6608 0.1888 0.2610 Uiso
H15 H 0.6108 0.6696 0.1620 0.2610 Uiso
C24 C 0.5495(12) 0.7614(16) 0.1025(6) 0.2090 Uani
H16 H 0.6069 0.7407 0.1011 0.3160 Uiso
H17 H 0.5488 0.8212 0.0966 0.3160 Uiso
H18 H 0.5152 0.7320 0.0824 0.3160 Uiso
N3 N 0.249(3) 0.009(3) -0.0007(16) 0.3200 Uani
H27 H 0.2078 0.0396 -0.0128 0.3880 Uiso
H28 H 0.2699 -0.0270 -0.0201 0.3880 Uiso
C27 C 0.211(3) -0.042(2) 0.0324(12) 0.2367 Uani
H29 H 0.2318 -0.0221 0.0589 0.3540 Uiso
H30 H 0.2264 -0.1005 0.0288 0.3540 Uiso
H31 H 0.1504 -0.0361 0.0314 0.3540 Uiso
C28 C 0.317(3) 0.067(3) 0.0117(15) 0.2867 Uani
H32 H 0.2988 0.1001 0.0349 0.4340 Uiso
H33 H 0.3312 0.1033 -0.0112 0.4340 Uiso
H34 H 0.3666 0.0342 0.0194 0.4340 Uiso
loop_
_atom_site_aniso_label
_atom_site_aniso_U_11
_atom_site_aniso_U_22
_atom_site_aniso_U_33
_atom_site_aniso_U_23
_atom_site_aniso_U_13
_atom_site_aniso_U_12
Cd1 0.0663(4) 0.0716(4) 0.0399(3) 0.0003(3) 0.0044(3) -0.0031(3)
O1 0.109(7) 0.156(9) 0.090(6) 0.038(6) -0.003(5) -0.006(6)
O2 0.118(8) 0.116(8) 0.085(5) 0.015(5) 0.004(6) -0.027(5)
O3 0.14 0.115 0.076 0.043 -0.03 -0.008
O4 0.146 0.116 0.077 0.04 -0.01 -0.027
O5 0.113 0.109 0.067 -0.026 0.005 0.015
O6 0.104 0.112 0.079 -0.015 -0.004 0.001
O7 0.114 0.108 0.072 -0.04 -0.028 0.012
O8 0.117 0.106 0.071 -0.038 -0.007 0.017
C1 0.084(13) 0.126(13) 0.076(8) 0.010(9) -0.006(8) -0.022(8)
C2 0.113 0.098 0.054 0.015 0.002 -0.007
C3 0.097(9) 0.120(9) 0.063(6) 0.029(6) -0.013(7) -0.025(9)
C4 0.091(9) 0.092(8) 0.061(6) 0.015(6) -0.013(6) -0.023(7)
C5 0.1 0.1 0.046 0.021 -0.014 -0.008
C6 0.109 0.098 0.064 0.028 -0.011 -0.018
C7 0.111 0.119 0.076 0.042 -0.019 -0.016
C8 0.093(11) 0.138(11) 0.081(7) 0.050(8) -0.007(7) -0.027(8)
C9 0.095 0.094 0.061 -0.008 -0.019 0.024
C10 0.104 0.097 0.052 -0.017 0 0.014
C11 0.109 0.099 0.055 -0.019 -0.019 0.016
C12 0.099 0.078 0.054 -0.011 -0.01 0.011
C13 0.091 0.11 0.063 -0.025 -0.015 0.013
C14 0.104 0.095 0.063 -0.037 -0.027 0.002
C15 0.097 0.108 0.076 -0.04 -0.027 0.026
C16 0.101 0.103 0.085 -0.035 -0.021 0.039
C17 0.080(8) 0.093(8) 0.057(6) 0.013(5) -0.011(6) -0.020(6)
C18 0.080(8) 0.103(8) 0.054(5) 0.006(5) -0.007(6) -0.005(6)
C19 0.084(8) 0.089(8) 0.045(5) -0.008(5) -0.005(5) -0.005(6)
C20 0.079(8) 0.086(8) 0.050(5) 0.004(5) -0.013(6) 0.002(6)
C21 0.079(8) 0.099(8) 0.054(5) -0.012(6) -0.007(6) 0.006(6)
C22 0.097(10) 0.095(9) 0.047(6) 0.000(5) -0.015(6) -0.008(7)
Cd1C 0.0716 0.0663 0.0399 -0.0044 0.0003 0.0031
Cd1E 0.0663 0.0716 0.0399 0.0003 -0.0044 0.0031
Cd1F 0.0716 0.0663 0.0399 -0.0044 -0.0003 -0.0031
O3B 0.115 0.14 0.076 -0.03 -0.043 0.008
O4B 0.116 0.146 0.077 -0.01 -0.04 0.027
O5E 0.113 0.109 0.067 -0.026 -0.005 -0.015
O6E 0.104 0.112 0.079 -0.015 0.004 -0.001
O7F 0.108 0.114 0.072 0.028 0.04 0.012
O8F 0.106 0.117 0.071 0.007 0.038 0.017
N1 0.112(10) 0.22(2) 0.214(16) -0.034(17) -0.039(11) 0.031(11)
C23 0.192(18) 0.110(13) 0.220(18) -0.051(12) 0.047(14) 0.045(12)
C24 0.19(2) 0.24(3) 0.197(18) -0.03(2) -0.019(17) 0.053(19)
N3 0.32(6) 0.33(6) 0.31(6) 0.00(5) 0.00(5) -0.01(4)
C27 0.24(4) 0.24(4) 0.23(4) 0.00(3) -0.01(3) 0.00(3)
C28 0.29(6) 0.29(6) 0.28(5) -0.02(4) 0.00(5) 0.00(4)
loop_
_geom_bond_atom_site_label_1
_geom_bond_atom_site_label_2
_geom_bond_site_symmetry_1
_geom_bond_site_symmetry_2
Cd1 O1 1_555 1_555
O1 C1 1_555 1_555
O2 Cd1 1_555 1_555
O3 C2 1_555 1_555
O4 C2 1_555 1_555
O5 C9 1_555 1_555
O6 C9 1_555 1_555
O7 C10 1_555 1_555
O8 C10 1_555 1_555
C1 O2 1_555 1_555
C2 C6 1_555 1_555
C3 C1 1_555 1_555
C4 C3 1_555 1_555
C5 C4 1_555 1_555
H1 C5 1_555 1_555
C6 C5 1_555 1_555
C7 C6 1_555 1_555
H2 C7 1_555 1_555
C8 C3 1_555 1_555
H3 C8 1_555 1_555
C9 C11 1_555 1_555
C10 C14 1_555 1_555
C11 C12 1_555 1_555
C12 C13 1_555 1_555
C13 H4 1_555 1_555
C14 C13 1_555 1_555
C15 C14 1_555 1_555
H5 C15 1_555 1_555
C16 C11 1_555 1_555
H6 C16 1_555 1_555
C17 C4 1_555 1_555
C18 C17 1_555 1_555
H7 C18 1_555 1_555
C19 C18 1_555 1_555
H8 C19 1_555 1_555
C20 C12 1_555 1_555
C21 C20 1_555 1_555
H9 C21 1_555 1_555
C22 C17 1_555 1_555
H10 C22 1_555 1_555
N1 H11 1_555 1_555
H12 N1 1_555 1_555
C23 N1 1_555 1_555
H13 C23 1_555 1_555
H14 C23 1_555 1_555
H15 C23 1_555 1_555
C24 N1 1_555 1_555
H16 C24 1_555 1_555
H17 C24 1_555 1_555
H18 C24 1_555 1_555
N3 H27 1_555 1_555
H28 N3 1_555 1_555
C27 N3 1_555 1_555
H29 C27 1_555 1_555
H30 C27 1_555 1_555
H31 C27 1_555 1_555
C28 N3 1_555 1_555
H32 C28 1_555 1_555
H33 C28 1_555 1_555
H34 C28 1_555 1_555
Cd1C O3 1_555 1_555
Cd1E O5 1_555 1_555
Cd1F O7 1_555 1_555
O3B Cd1 1_555 1_555
O4B Cd1 1_555 1_555
O5E Cd1 1_555 1_555
O6E Cd1 1_555 1_555
O7F Cd1 1_555 1_555
O8F Cd1 1_555 1_555
O4 Cd1C 1_555 1_555
O6 Cd1E 1_555 1_555
O8 Cd1F 1_555 1_555
C7 C8 1_555 1_555
C15 C16 1_555 1_555
C19 C20 1_555 1_555
C21 C22 1_555 1_555

#END
