
#######################################################################
#
#                 Cambridge Crystallographic Data Centre
#                                CCDC 
#
#######################################################################
#
# If this CIF has been generated from an entry in the Cambridge 
# Structural Database, then it will include bibliographic, chemical, 
# crystal, experimental, refinement or atomic coordinate data resulting 
# from the CCDC's data processing and validation procedures.
#
#######################################################################

data_EXECAN
_chemical_formula_moiety         'C32 H14 N4 O14 Zn8'
_symmetry_cell_setting           rhombohedral
_symmetry_space_group_name_H-M   'R -3 m'
_symmetry_Int_Tables_number      166
_space_group_name_Hall           '-R 3 2"'
loop_
_symmetry_equiv_pos_site_id
_symmetry_equiv_pos_as_xyz
1 x,y,z
2 -y,x-y,z
3 y,x,-z
4 -x+y,-x,z
5 x-y,-y,-z
6 -x,-x+y,-z
7 2/3+x,1/3+y,1/3+z
8 2/3-y,1/3+x-y,1/3+z
9 2/3+y,1/3+x,1/3-z
10 2/3-x+y,1/3-x,1/3+z
11 2/3+x-y,1/3-y,1/3-z
12 2/3-x,1/3-x+y,1/3-z
13 1/3+x,2/3+y,2/3+z
14 1/3-y,2/3+x-y,2/3+z
15 1/3+y,2/3+x,2/3-z
16 1/3-x+y,2/3-x,2/3+z
17 1/3+x-y,2/3-y,2/3-z
18 1/3-x,2/3-x+y,2/3-z
19 -x,-y,-z
20 y,-x+y,-z
21 -y,-x,z
22 x-y,x,-z
23 -x+y,y,z
24 x,x-y,z
25 1/3-x,2/3-y,2/3-z
26 1/3+y,2/3-x+y,2/3-z
27 1/3-y,2/3-x,2/3+z
28 1/3+x-y,2/3+x,2/3-z
29 1/3-x+y,2/3+y,2/3+z
30 1/3+x,2/3+x-y,2/3+z
31 2/3-x,1/3-y,1/3-z
32 2/3+y,1/3-x+y,1/3-z
33 2/3-y,1/3-x,1/3+z
34 2/3+x-y,1/3+x,1/3-z
35 2/3-x+y,1/3+y,1/3+z
36 2/3+x,1/3+x-y,1/3+z
_cell_length_a                   18.8317(10)
_cell_length_b                   18.8317(10)
_cell_length_c                   38.5698(13)
_cell_angle_alpha                90
_cell_angle_beta                 90
_cell_angle_gamma                120
_cell_volume                     11845.6
loop_
_atom_site_label
_atom_site_type_symbol
_atom_site_fract_x
_atom_site_fract_y
_atom_site_fract_z
_atom_site_U_iso_or_equiv
_atom_site_thermal_displace_type
Zn1 Zn 0.61407(3) 0.80703(2) 0.30146(2) 0.0371 Uani
O1 O 0.55552(18) 0.70306(18) 0.33002(7) 0.0693 Uani
O2 O 0.63282(17) 0.74215(18) 0.37719(7) 0.0688 Uani
C1 C 0.5715(2) 0.6934(2) 0.36081(9) 0.0494 Uani
C2 C 0.5283(3) 0.5987(3) 0.41126(10) 0.0686 Uani
H1 H 0.5763 0.6364 0.4224 0.0820 Uiso
C3 C 0.5139(2) 0.6136(2) 0.37744(9) 0.0539 Uani
C4 C 0.44344(18) 0.55656(18) 0.36090(13) 0.0537 Uani
H2 H 0.4342 0.5658 0.3381 0.0650 Uiso
C5 C 0.4717(2) 0.5283(2) 0.42862(14) 0.0644 Uani
C6 C 0.4865(3) 0.5135(3) 0.46546(15) 0.0773 Uani
N1 N 0.5486(3) 0.77428(16) 0.25713(11) 0.0732 Uani
C7 C 0.4541(9) 0.4421(8) 0.4794(3) 0.1589 Uani
C8 C 0.5376(7) 0.7109(10) 0.2375(4) 0.1082 Uani
C9 C 0.4976(12) 0.7488(6) 0.1904(3) 0.1401 Uani
C10 C 0.5117(9) 0.6982(10) 0.2038(3) 0.1401 Uani
N2 N 0.4510(13) 0.7255(6) 0.1562(3) 0.0884 Uani
H3 H 0.5485 0.6725 0.2476 0.1300 Uiso
H4 H 0.5051 0.6528 0.1914 0.1660 Uiso
O1B O 0.70306(18) 0.55552(18) 0.66998(7) 0.0693 Uani
O2B O 0.74215(18) 0.63282(17) 0.62281(7) 0.0688 Uani
C1B C 0.6934(2) 0.5715(2) 0.63919(9) 0.0494 Uani
C2B C 0.5987(3) 0.5283(3) 0.58874(10) 0.0686 Uani
H1B H 0.6364 0.5763 0.5776 0.0820 Uiso
C3B C 0.6136(2) 0.5139(2) 0.62256(9) 0.0539 Uani
C4B C 0.55656(18) 0.44344(18) 0.63910(13) 0.0537 Uani
H2B H 0.5658 0.4342 0.6619 0.0650 Uiso
C5B C 0.5283(2) 0.4717(2) 0.57138(14) 0.0644 Uani
C6B C 0.5135(3) 0.4865(3) 0.53454(15) 0.0773 Uani
C7B C 0.4421(8) 0.4541(9) 0.5206(3) 0.1589 Uani
O1R O 0.44448(18) 0.29694(18) 0.66998(7) 0.0693 Uani
O2R O 0.36718(17) 0.25785(18) 0.62281(7) 0.0688 Uani
C1R C 0.4285(2) 0.3066(2) 0.63919(9) 0.0494 Uani
C2R C 0.4717(3) 0.4013(3) 0.58874(10) 0.0686 Uani
H1R H 0.4237 0.3636 0.5776 0.0820 Uiso
C3R C 0.4861(2) 0.3864(2) 0.62256(9) 0.0539 Uani
C7R C 0.5459(9) 0.5579(8) 0.5206(3) 0.1589 Uani
O1T O 0.29694(18) 0.44448(18) 0.33002(7) 0.0693 Uani
O2T O 0.25785(18) 0.36718(17) 0.37719(7) 0.0688 Uani
C1T C 0.3066(2) 0.4285(2) 0.36081(9) 0.0494 Uani
C2T C 0.4013(3) 0.4717(3) 0.41126(10) 0.0686 Uani
H1T H 0.3636 0.4237 0.4224 0.0820 Uiso
C3T C 0.3864(2) 0.4861(2) 0.37744(9) 0.0539 Uani
C7T C 0.5579(8) 0.5459(9) 0.4794(3) 0.1589 Uani
C8W C 0.5376(7) 0.8267(12) 0.2375(4) 0.1082 Uani
C10W C 0.5117(9) 0.8135(13) 0.2038(3) 0.1401 Uani
H3W H 0.5485 0.8760 0.2476 0.1300 Uiso
H4W H 0.5051 0.8523 0.1914 0.1660 Uiso
Zn1Q Zn 0.71926(3) 0.85963(4) 0.36521(2) 0.0371 Uani
N1Q N 0.7847(3) 0.89235(34) 0.40954(11) 0.0732 Uani
C8Q C 0.7957(7) 0.8400(12) 0.4292(4) 0.1082 Uani
C9Q C 0.8357(12) 0.9179(13) 0.4763(3) 0.1401 Uani
C10Q C 0.8216(9) 0.8532(13) 0.4629(3) 0.1401 Uani
N2Q N 0.8823(13) 0.9412(14) 0.5105(3) 0.0884 Uani
H3Q H 0.7848 0.7907 0.4191 0.1300 Uiso
H4Q H 0.8282 0.8144 0.4753 0.1660 Uiso
C8X C 0.7957(7) 0.9558(10) 0.4292(4) 0.1082 Uani
C10X C 0.8216(9) 0.9685(10) 0.4629(3) 0.1401 Uani
H3X H 0.7848 0.9942 0.4191 0.1300 Uiso
H4X H 0.8282 1.0139 0.4753 0.1660 Uiso
Zn1B Zn 0.80703(2) 0.61407(3) 0.69854(2) 0.0371 Uani
Zn1C Zn 0.19296(4) 0.38593(3) 0.30146(2) 0.0371 Uani
Zn1E Zn 0.38593(3) 0.19296(4) 0.69854(2) 0.0371 Uani
Zn1F Zn 0.28074(3) 0.14036(2) 0.63479(2) 0.0371 Uani
Zn1I Zn 0.85963(4) 0.71926(3) 0.63479(2) 0.0371 Uani
Zn1N Zn 0.14036(2) 0.28074(3) 0.36521(2) 0.0371 Uani
O1Q O 0.77781(18) 0.81421(25) 0.33665(7) 0.0693 Uani
O1W O 0.55552(18) 0.85246(25) 0.33002(7) 0.0693 Uani
O1X O 0.77781(18) 0.96361(18) 0.33665(7) 0.0693 Uani
O2Q O 0.70051(17) 0.77600(25) 0.28948(7) 0.0688 Uani
O2W O 0.63282(17) 0.89067(25) 0.37719(7) 0.0688 Uani
O2X O 0.70051(17) 0.92452(18) 0.28948(7) 0.0688 Uani
loop_
_atom_site_aniso_label
_atom_site_aniso_U_11
_atom_site_aniso_U_22
_atom_site_aniso_U_33
_atom_site_aniso_U_23
_atom_site_aniso_U_13
_atom_site_aniso_U_12
Zn1 0.0324(3) 0.0485(3) 0.0251(3) -0.00035(10) -0.00070(19) 0.01622(17)
O1 0.072(2) 0.0605(19) 0.0531(15) 0.0249(14) 0.0051(13) 0.0165(15)
O2 0.0459(15) 0.0563(17) 0.0648(16) 0.0126(13) -0.0079(12) -0.0041(13)
C1 0.0331(17) 0.047(2) 0.0458(19) 0.0122(15) 0.0004(12) 0.0034(14)
C2 0.055(3) 0.066(3) 0.047(2) 0.0091(19) -0.0116(18) 0.002(2)
C3 0.051(2) 0.055(2) 0.0417(18) 0.0120(17) -0.0039(16) 0.0159(19)
C4 0.053(2) 0.053(2) 0.045(3) 0.0046(12) -0.0046(12) 0.019(3)
C5 0.062(3) 0.062(3) 0.036(3) 0.0130(15) -0.0130(15) 0.006(3)
C6 0.073(3) 0.073(3) 0.044(3) 0.0187(18) -0.0187(18) 0.005(4)
N1 0.081(4) 0.094(3) 0.041(3) -0.0097(12) -0.019(2) 0.041(2)
C7 0.153(12) 0.093(8) 0.082(6) 0.042(6) -0.056(7) -0.050(8)
C8 0.132(10) 0.110(8) 0.094(8) -0.038(6) -0.045(7) 0.069(7)
C9 0.28(2) 0.132(17) 0.031(6) -0.031(8) -0.038(8) 0.120(17)
C10 0.28(2) 0.132(17) 0.031(6) -0.031(8) -0.038(8) 0.120(17)
N2 0.151(17) 0.099(9) 0.032(7) -0.027(4) -0.055(9) 0.075(9)
O1B 0.0605 0.072 0.0531 -0.0051 -0.0249 0.0165
O2B 0.0563 0.0459 0.0648 0.0079 -0.0126 -0.0041
C1B 0.047 0.0331 0.0458 -0.0004 -0.0122 0.0034
C2B 0.066 0.055 0.047 0.0116 -0.0091 0.002
C3B 0.055 0.051 0.0417 0.0039 -0.012 0.0159
C4B 0.053 0.053 0.045 0.0046 -0.0046 0.019
C5B 0.062 0.062 0.036 0.013 -0.013 0.006
C6B 0.073 0.073 0.044 0.0187 -0.0187 0.005
C7B 0.093 0.153 0.082 0.056 -0.042 -0.05
O1R 0.072 0.0605 0.0531 0.0249 0.0051 0.0165
O2R 0.0459 0.0563 0.0648 0.0126 -0.0079 -0.0041
C1R 0.0331 0.047 0.0458 0.0122 0.0004 0.0034
C2R 0.055 0.066 0.047 0.0091 -0.0116 0.002
C3R 0.051 0.055 0.0417 0.012 -0.0039 0.0159
C7R 0.153 0.093 0.082 0.042 -0.056 -0.05
O1T 0.0605 0.072 0.0531 -0.0051 -0.0249 0.0165
O2T 0.0563 0.0459 0.0648 0.0079 -0.0126 -0.0041
C1T 0.047 0.0331 0.0458 -0.0004 -0.0122 0.0034
C2T 0.066 0.055 0.047 0.0116 -0.0091 0.002
C3T 0.055 0.051 0.0417 0.0039 -0.012 0.0159
C7T 0.093 0.153 0.082 0.056 -0.042 -0.05
C8W 0.132 0.104 0.094 -0.007 -0.045 0.063
C10W 0.28 0.172 0.031 -0.007 -0.038 0.16
Zn1Q 0.0324 0.04846 0.0251 -0.00035 -0.0007 0.01618
N1Q 0.081 0.093 0.041 -0.0093 -0.019 0.04
C8Q 0.132 0.104 0.094 -0.007 -0.045 0.063
C9Q 0.28 0.172 0.031 -0.007 -0.038 0.16
C10Q 0.28 0.172 0.031 -0.007 -0.038 0.16
N2Q 0.151 0.1 0.032 -0.028 -0.055 0.076
C8X 0.132 0.11 0.094 -0.038 -0.045 0.069
C10X 0.28 0.132 0.031 -0.031 -0.038 0.12
Zn1B 0.0485 0.0324 0.0251 0.0007 0.00035 0.01622
Zn1C 0.04846 0.0324 0.0251 0.0007 0.00035 0.01618
Zn1E 0.0324 0.04846 0.0251 -0.00035 -0.0007 0.01618
Zn1F 0.0324 0.0485 0.0251 -0.00035 -0.0007 0.01622
Zn1I 0.04846 0.0324 0.0251 0.0007 0.00035 0.01618
Zn1N 0.0485 0.0324 0.0251 0.0007 0.00035 0.01622
O1Q 0.072 0.0995 0.0531 -0.0198 0.0051 0.0555
O1W 0.072 0.0995 0.0531 -0.0198 0.0051 0.0555
O1X 0.072 0.0605 0.0531 0.0249 0.0051 0.0165
O2Q 0.0459 0.1104 0.0648 -0.0205 -0.0079 0.05
O2W 0.0459 0.1104 0.0648 -0.0205 -0.0079 0.05
O2X 0.0459 0.0563 0.0648 0.0126 -0.0079 -0.0041
loop_
_geom_bond_atom_site_label_1
_geom_bond_atom_site_label_2
_geom_bond_site_symmetry_1
_geom_bond_site_symmetry_2
Zn1 O1 1_555 1_555
O1 C1 1_555 1_555
O2 C1 1_555 1_555
C1 C3 1_555 1_555
C2 H1 1_555 1_555
C3 C2 1_555 1_555
C4 C3 1_555 1_555
H2 C4 1_555 1_555
C5 C2 1_555 1_555
C6 C5 1_555 1_555
N1 Zn1 1_555 1_555
C7 C6 1_555 1_555
C8 N1 1_555 1_555
C9 C10 1_555 1_555
C10 C8 1_555 1_555
N2 C9 1_555 1_555
H3 C8 1_555 1_555
H4 C10 1_555 1_555
O1B C1B 1_555 1_555
O2B C1B 1_555 1_555
C1B C3B 1_555 1_555
C2B H1B 1_555 1_555
C3B C2B 1_555 1_555
C4B C3B 1_555 1_555
H2B C4B 1_555 1_555
C5B C2B 1_555 1_555
C6B C5B 1_555 1_555
C7B C7 1_555 1_555
O1R C1R 1_555 1_555
O2R C1R 1_555 1_555
C1R C3R 1_555 1_555
C2R C5B 1_555 1_555
H1R C2R 1_555 1_555
C3R C4B 1_555 1_555
C7R C6B 1_555 1_555
O1T C1T 1_555 1_555
O2T C1T 1_555 1_555
C1T C3T 1_555 1_555
C2T C5 1_555 1_555
H1T C2T 1_555 1_555
C3T C4 1_555 1_555
C7T C6 1_555 1_555
C8W N1 1_555 1_555
C10W C9 1_555 1_555
H3W C8W 1_555 1_555
H4W C10W 1_555 1_555
Zn1Q O2 1_555 1_555
N1Q Zn1Q 1_555 1_555
C8Q N1Q 1_555 1_555
C9Q C10Q 1_555 1_555
C10Q C8Q 1_555 1_555
N2Q C9Q 1_555 1_555
H3Q C8Q 1_555 1_555
H4Q C10Q 1_555 1_555
C8X N1Q 1_555 1_555
C10X C9Q 1_555 1_555
H3X C8X 1_555 1_555
H4X C10X 1_555 1_555
Zn1B O1B 1_555 1_555
Zn1C O1T 1_555 1_555
Zn1E O1R 1_555 1_555
Zn1F O2R 1_555 1_555
Zn1I O2B 1_555 1_555
Zn1N O2T 1_555 1_555
O1Q Zn1Q 1_555 1_555
O1W Zn1 1_555 1_555
O1X Zn1Q 1_555 1_555
O2Q Zn1 1_555 1_555
O2W Zn1Q 1_555 1_555
O2X Zn1 1_555 1_555
C6B C7B 1_555 1_555
C2R C3R 1_555 1_555
C7R C7T 1_555 1_555
C2T C3T 1_555 1_555
C8W C10W 1_555 1_555
C8X C10X 1_555 1_555

#END
