
#######################################################################
#
#                 Cambridge Crystallographic Data Centre
#                                CCDC 
#
#######################################################################
#
# If this CIF has been generated from an entry in the Cambridge 
# Structural Database, then it will include bibliographic, chemical, 
# crystal, experimental, refinement or atomic coordinate data resulting 
# from the CCDC's data processing and validation procedures.
#
#######################################################################

data_OBUREL
_chemical_formula_moiety         '(C16 H11 Cu1 N1 O6)n'
_symmetry_cell_setting           rhombohedral
_symmetry_space_group_name_H-M   'R -3'
_symmetry_Int_Tables_number      148
_space_group_name_Hall           '-R 3'
loop_
_symmetry_equiv_pos_site_id
_symmetry_equiv_pos_as_xyz
1 x,y,z
2 -y,x-y,z
3 -x+y,-x,z
4 2/3+x,1/3+y,1/3+z
5 2/3-y,1/3+x-y,1/3+z
6 2/3-x+y,1/3-x,1/3+z
7 1/3+x,2/3+y,2/3+z
8 1/3-y,2/3+x-y,2/3+z
9 1/3-x+y,2/3-x,2/3+z
10 -x,-y,-z
11 y,-x+y,-z
12 x-y,x,-z
13 1/3-x,2/3-y,2/3-z
14 1/3+y,2/3-x+y,2/3-z
15 1/3+x-y,2/3+x,2/3-z
16 2/3-x,1/3-y,1/3-z
17 2/3+y,1/3-x+y,1/3-z
18 2/3+x-y,1/3+x,1/3-z
_cell_length_a                   21.187(10)
_cell_length_b                   21.187(10)
_cell_length_c                   21.90(2)
_cell_angle_alpha                90
_cell_angle_beta                 90
_cell_angle_gamma                120
_cell_volume                     8513.61
loop_
_atom_site_label
_atom_site_type_symbol
_atom_site_fract_x
_atom_site_fract_y
_atom_site_fract_z
Cu1 Cu 0.46954(3) 0.53956(3) 0.00938(2)
C1 C 0.4055(2) 0.4027(2) 0.06821(19)
C2 C 0.3492(2) 0.3429(2) 0.10711(18)
C3 C 0.3132(2) 0.3580(2) 0.15293(18)
H1 H 0.3234 0.4055 0.1597
C4 C 0.2622(2) 0.3015(2) 0.18829(18)
C5 C 0.2451(2) 0.2311(2) 0.1765(2)
H2 H 0.2094 0.1934 0.1996
C6 C 0.2799(2) 0.2151(2) 0.13091(19)
C7 C 0.3330(2) 0.2719(2) 0.09693(19)
H3 H 0.3581 0.2622 0.0669
C8 C 0.2965(3) 0.1194(3) 0.0791(2)
C9 C 0.2555(3) 0.0387(2) 0.0833(2)
C10 C 0.2685(3) -0.0093(3) 0.0522(2)
H4 H 0.3059 0.0065 0.0237
C11 C 0.2241(4) -0.0821(3) 0.0647(3)
H5 H 0.2311 -0.1163 0.0439
C12 C 0.1702(3) -0.1050(3) 0.1069(3)
H6 H 0.1415 -0.1546 0.1150
C13 C 0.1572(3) -0.0559(3) 0.1382(3)
H7 H 0.1201 -0.0716 0.1669
C14 C 0.2014(3) 0.0173(3) 0.1254(2)
C15 C 0.2023(3) 0.0808(2) 0.1520(2)
H8 H 0.1561 0.0788 0.1457
H9 H 0.2121 0.0836 0.1955
C16 C 0.2277(2) 0.3165(3) 0.24147(18)
N1 N 0.26011(19) 0.14207(18) 0.12055(16)
O1 O 0.45055(15) 0.38973(15) 0.04255(13)
O2 O 0.4168(3) 0.6027(2) 0.0193(2)
O3 O 0.24721(16) 0.38122(23) 0.25328(12)
O4 O 0.40133(15) 0.45866(16) 0.06189(14)
O5 O 0.18067(16) 0.26144(23) 0.27088(13)
H10 H 0.412(2) 0.6172(19) -0.0156(9)
H11 H 0.441(2) 0.6396(14) 0.0425(13)
O6 O 0.3497(2) 0.1568(2) 0.05084(19)
Cu1D Cu 0.12711(3) 0.26331(4) 0.34271(2)
Cu1I Cu 0.53046(3) 0.46044(3) -0.00938(2)
Cu1P Cu 0.20623(3) 0.40335(4) 0.32395(2)
O1I O 0.54945(15) 0.61027(15) -0.04255(13)
O3Q O 0.53266(28) 0.58054(16) 0.08005(12)
O5H O 0.41410(28) 0.48600(16) -0.06245(13)
loop_
_geom_bond_atom_site_label_1
_geom_bond_atom_site_label_2
_geom_bond_site_symmetry_1
_geom_bond_site_symmetry_2
Cu1 O2 1_555 1_555
C1 C2 1_555 1_555
C2 C3 1_555 1_555
C3 H1 1_555 1_555
C4 C3 1_555 1_555
C5 C4 1_555 1_555
H2 C5 1_555 1_555
C6 C5 1_555 1_555
C7 C2 1_555 1_555
H3 C7 1_555 1_555
C8 C9 1_555 1_555
C9 C10 1_555 1_555
C10 H4 1_555 1_555
C11 C10 1_555 1_555
H5 C11 1_555 1_555
C12 C11 1_555 1_555
H6 C12 1_555 1_555
C13 C12 1_555 1_555
H7 C13 1_555 1_555
C14 C9 1_555 1_555
C15 C14 1_555 1_555
H8 C15 1_555 1_555
H9 C15 1_555 1_555
C16 C4 1_555 1_555
N1 C6 1_555 1_555
O1 C1 1_555 1_555
O2 H10 1_555 1_555
O3 C16 1_555 1_555
O4 Cu1 1_555 1_555
O5 C16 1_555 1_555
H11 O2 1_555 1_555
O6 C8 1_555 1_555
Cu1D O5 1_555 1_555
Cu1I Cu1 1_555 1_555
Cu1P O3 1_555 1_555
O1I Cu1 1_555 1_555
O3Q Cu1 1_555 1_555
O5H Cu1 1_555 1_555
C1 O4 1_555 1_555
C6 C7 1_555 1_555
C8 N1 1_555 1_555
C13 C14 1_555 1_555
C15 N1 1_555 1_555
O1 Cu1I 1_555 1_555
Cu1D Cu1P 1_555 1_555

#END
