
#######################################################################
#
#                 Cambridge Crystallographic Data Centre
#                                CCDC 
#
#######################################################################
#
# If this CIF has been generated from an entry in the Cambridge 
# Structural Database, then it will include bibliographic, chemical, 
# crystal, experimental, refinement or atomic coordinate data resulting 
# from the CCDC's data processing and validation procedures.
#
#######################################################################

data_NAFSOF
_chemical_formula_moiety         '(C40 H26 Cu2 O10)n'
_symmetry_cell_setting           orthorhombic
_symmetry_space_group_name_H-M   'C c c m'
_symmetry_Int_Tables_number      66
_space_group_name_Hall           '-C 2 2c'
loop_
_symmetry_equiv_pos_site_id
_symmetry_equiv_pos_as_xyz
1 x,y,z
2 -x,-y,z
3 x,-y,1/2-z
4 -x,y,1/2-z
5 1/2+x,1/2+y,z
6 1/2-x,1/2-y,z
7 1/2+x,1/2-y,1/2-z
8 1/2-x,1/2+y,1/2-z
9 -x,-y,-z
10 x,y,-z
11 -x,y,1/2+z
12 x,-y,1/2+z
13 1/2-x,1/2-y,-z
14 1/2+x,1/2+y,-z
15 1/2-x,1/2+y,1/2+z
16 1/2+x,1/2-y,1/2+z
_cell_length_a                   13.113(6)
_cell_length_b                   29.058(14)
_cell_length_c                   30.167(12)
_cell_angle_alpha                90
_cell_angle_beta                 90
_cell_angle_gamma                90
_cell_volume                     11494.8
loop_
_atom_site_label
_atom_site_type_symbol
_atom_site_fract_x
_atom_site_fract_y
_atom_site_fract_z
_atom_site_U_iso_or_equiv
_atom_site_thermal_displace_type
Cu1 Cu 0.33332(5) 0.224690(14) 0.0000 0.0784 Uani
C1 C 0.3228(4) 0.29984(10) 0.06056(9) 0.0812 Uani
O1 O 0.3782(2) 0.26744(7) 0.04636(6) 0.0891 Uani
C2 C 0.5000 0.47440(12) 0.2500 0.0805 Uani
C3 C 0.4324(3) 0.37668(9) 0.17247(8) 0.0868 Uani
C4 C 0.3638(3) 0.32711(9) 0.09879(8) 0.0834 Uani
C5 C 0.3478(3) 0.39162(10) 0.14859(9) 0.0964 Uani
H1 H 0.3144 0.4184 0.1572 0.1160 Uiso
C6 C 0.4681(3) 0.45026(8) 0.21248(7) 0.0782 Uani
H2 H 0.4472 0.4662 0.1874 0.0940 Uiso
C7 C 0.4805(3) 0.33674(10) 0.15907(9) 0.0985 Uani
H3 H 0.5361 0.3257 0.1750 0.1180 Uiso
C8 C 0.3123(3) 0.36700(11) 0.11189(9) 0.0912 Uani
H4 H 0.2551 0.3770 0.0964 0.1090 Uiso
C9 C 0.4675(3) 0.40200(8) 0.21248(8) 0.0764 Uani
C10 C 0.4464(3) 0.31276(10) 0.12187(9) 0.0929 Uani
H5 H 0.4810 0.2865 0.1128 0.1120 Uiso
C11 C 0.5000 0.37886(12) 0.2500 0.0855 Uani
H6 H 0.5000 0.3469 0.2500 0.1030 Uiso
O2 O 0.2369(2) 0.31086(7) 0.04573(6) 0.0941 Uani
O3 O 0.4685(3) 0.18339(13) 0.0000 0.1200 Uani
H7 H 0.4757 0.1659 0.0225 0.1800 Uiso
C1A C 0.6772(4) 0.70016(10) 0.06056(9) 0.0812 Uani
O1A O 0.6218(2) 0.73256(7) 0.04636(6) 0.0891 Uani
C2A C 0.5000 0.52560(12) 0.2500 0.0805 Uani
C3A C 0.5676(3) 0.62332(9) 0.17247(8) 0.0868 Uani
C4A C 0.6362(3) 0.67289(9) 0.09879(8) 0.0834 Uani
C5A C 0.6522(3) 0.60838(10) 0.14859(9) 0.0964 Uani
H1A H 0.6856 0.5816 0.1572 0.1160 Uiso
C6A C 0.5319(3) 0.54974(8) 0.21248(7) 0.0782 Uani
H2A H 0.5528 0.5338 0.1874 0.0940 Uiso
C7A C 0.5195(3) 0.66326(10) 0.15907(9) 0.0985 Uani
H3A H 0.4639 0.6743 0.1750 0.1180 Uiso
C8A C 0.6877(3) 0.63300(11) 0.11189(9) 0.0912 Uani
H4A H 0.7449 0.6230 0.0964 0.1090 Uiso
C9A C 0.5325(3) 0.59800(8) 0.21248(8) 0.0764 Uani
C10A C 0.5536(3) 0.68724(10) 0.12187(9) 0.0929 Uani
H5A H 0.5190 0.7135 0.1128 0.1120 Uiso
C11A C 0.5000 0.62114(12) 0.2500 0.0855 Uani
H6A H 0.5000 0.6531 0.2500 0.1030 Uiso
O2A O 0.7631(2) 0.68914(7) 0.04573(6) 0.0941 Uani
C1B C 0.3228(4) 0.70016(10) 0.43944(9) 0.0812 Uani
O1B O 0.3782(2) 0.73256(7) 0.45364(6) 0.0891 Uani
C3B C 0.4324(3) 0.62332(9) 0.32753(8) 0.0868 Uani
C4B C 0.3638(3) 0.67289(9) 0.40121(8) 0.0834 Uani
C5B C 0.3478(3) 0.60838(10) 0.35141(9) 0.0964 Uani
H1B H 0.3144 0.5816 0.3428 0.1160 Uiso
C6B C 0.4681(3) 0.54974(8) 0.28752(7) 0.0782 Uani
H2B H 0.4472 0.5338 0.3126 0.0940 Uiso
C7B C 0.4805(3) 0.66326(10) 0.34093(9) 0.0985 Uani
H3B H 0.5361 0.6743 0.3250 0.1180 Uiso
C8B C 0.3123(3) 0.63300(11) 0.38811(9) 0.0912 Uani
H4B H 0.2551 0.6230 0.4036 0.1090 Uiso
C9B C 0.4675(3) 0.59800(8) 0.28752(8) 0.0764 Uani
C10B C 0.4464(3) 0.68724(10) 0.37813(9) 0.0929 Uani
H5B H 0.4810 0.7135 0.3872 0.1120 Uiso
O2B O 0.2369(2) 0.68914(7) 0.45427(6) 0.0941 Uani
C1C C 0.6772(4) 0.29984(10) 0.43944(9) 0.0812 Uani
O1C O 0.6218(2) 0.26744(7) 0.45364(6) 0.0891 Uani
C3C C 0.5676(3) 0.37668(9) 0.32753(8) 0.0868 Uani
C4C C 0.6362(3) 0.32711(9) 0.40121(8) 0.0834 Uani
C5C C 0.6522(3) 0.39162(10) 0.35141(9) 0.0964 Uani
H1C H 0.6856 0.4184 0.3428 0.1160 Uiso
C6C C 0.5319(3) 0.45026(8) 0.28752(7) 0.0782 Uani
H2C H 0.5528 0.4662 0.3126 0.0940 Uiso
C7C C 0.5195(3) 0.33674(10) 0.34093(9) 0.0985 Uani
H3C H 0.4639 0.3257 0.3250 0.1180 Uiso
C8C C 0.6877(3) 0.36700(11) 0.38811(9) 0.0912 Uani
H4C H 0.7449 0.3770 0.4036 0.1090 Uiso
C9C C 0.5325(3) 0.40200(8) 0.28752(8) 0.0764 Uani
C10C C 0.5536(3) 0.31276(10) 0.37813(9) 0.0929 Uani
H5C H 0.5190 0.2865 0.3872 0.1120 Uiso
O2C O 0.7631(2) 0.31086(7) 0.45427(6) 0.0941 Uani
H7I H 0.4757 0.1659 -0.0225 0.1800 Uiso
Cu1A Cu 0.66668(5) 0.775310(14) 0.0000 0.0784 Uani
O3A O 0.5315(3) 0.81661(13) 0.0000 0.1200 Uani
H7A H 0.5243 0.8341 0.0225 0.1800 Uiso
H7H H 0.5243 0.8341 -0.0225 0.1800 Uiso
Cu1B Cu 0.33332(5) 0.775310(14) 0.5000 0.0784 Uani
Cu1C Cu 0.66668(5) 0.224690(14) 0.5000 0.0784 Uani
Cu1D Cu 0.83332(5) 0.724690(14) 0.0000 0.0784 Uani
Cu1E Cu 0.16668(5) 0.275310(14) 0.0000 0.0784 Uani
Cu1F Cu 0.83332(5) 0.275310(14) 0.5000 0.0784 Uani
Cu1G Cu 0.16668(5) 0.724690(14) 0.5000 0.0784 Uani
O1H O 0.6218(2) 0.73256(7) -0.04636(6) 0.0891 Uani
O1I O 0.3782(2) 0.26744(7) -0.04636(6) 0.0891 Uani
O2D O 0.7369(2) 0.81086(7) 0.04573(6) 0.0941 Uani
O2E O 0.2631(2) 0.18914(7) 0.04573(6) 0.0941 Uani
O2L O 0.2631(2) 0.18914(7) -0.04573(6) 0.0941 Uani
O2M O 0.7369(2) 0.81086(7) -0.04573(6) 0.0941 Uani
loop_
_atom_site_aniso_label
_atom_site_aniso_U_11
_atom_site_aniso_U_22
_atom_site_aniso_U_33
_atom_site_aniso_U_23
_atom_site_aniso_U_13
_atom_site_aniso_U_12
Cu1 0.1711(7) 0.0347(3) 0.0294(3) 0.000 0.000 -0.0085(3)
C1 0.166(4) 0.0422(16) 0.0353(13) 0.0043(12) -0.0058(18) -0.0156(19)
O1 0.177(2) 0.0466(11) 0.0437(10) -0.0112(8) -0.0085(12) 0.0025(12)
C2 0.178(5) 0.0364(18) 0.0270(16) 0.000 0.003(2) 0.000
C3 0.186(3) 0.0382(13) 0.0362(13) -0.0025(11) -0.0080(17) 0.0019(17)
C4 0.176(3) 0.0408(14) 0.0335(13) -0.0022(11) -0.0071(16) -0.0060(17)
C5 0.201(4) 0.0424(15) 0.0457(15) -0.0081(12) -0.0156(19) 0.0067(19)
C6 0.166(3) 0.0374(13) 0.0311(12) -0.0005(9) -0.0043(15) 0.0037(16)
C7 0.202(4) 0.0479(16) 0.0455(15) -0.0082(12) -0.0213(19) 0.012(2)
C8 0.173(4) 0.0542(17) 0.0465(15) -0.0061(12) -0.0164(17) -0.0014(19)
C9 0.156(3) 0.0390(13) 0.0343(12) -0.0034(10) -0.0073(15) -0.0039(15)
C10 0.190(4) 0.0449(15) 0.0439(15) -0.0085(12) -0.007(2) 0.0034(19)
C11 0.187(5) 0.0350(18) 0.0345(17) 0.000 -0.007(2) 0.000
O2 0.185(3) 0.0472(12) 0.0502(11) -0.0129(9) -0.0116(15) -0.0032(14)
O3 0.193(4) 0.086(2) 0.081(2) 0.000 0.000 0.027(3)
C1A 0.166 0.0422 0.0353 -0.0043 0.0058 -0.0156
O1A 0.177 0.0466 0.0437 0.0112 0.0085 0.0025
C2A 0.178 0.0364 0.027 0 -0.003 0
C3A 0.186 0.0382 0.0362 0.0025 0.008 0.0019
C4A 0.176 0.0408 0.0335 0.0022 0.0071 -0.006
C5A 0.201 0.0424 0.0457 0.0081 0.0156 0.0067
C6A 0.166 0.0374 0.0311 0.0005 0.0043 0.0037
C7A 0.202 0.0479 0.0455 0.0082 0.0213 0.012
C8A 0.173 0.0542 0.0465 0.0061 0.0164 -0.0014
C9A 0.156 0.039 0.0343 0.0034 0.0073 -0.0039
C10A 0.19 0.0449 0.0439 0.0085 0.007 0.0034
C11A 0.187 0.035 0.0345 0 0.007 0
O2A 0.185 0.0472 0.0502 0.0129 0.0116 -0.0032
C1B 0.166 0.0422 0.0353 0.0043 0.0058 0.0156
O1B 0.177 0.0466 0.0437 -0.0112 0.0085 -0.0025
C3B 0.186 0.0382 0.0362 -0.0025 0.008 -0.0019
C4B 0.176 0.0408 0.0335 -0.0022 0.0071 0.006
C5B 0.201 0.0424 0.0457 -0.0081 0.0156 -0.0067
C6B 0.166 0.0374 0.0311 -0.0005 0.0043 -0.0037
C7B 0.202 0.0479 0.0455 -0.0082 0.0213 -0.012
C8B 0.173 0.0542 0.0465 -0.0061 0.0164 0.0014
C9B 0.156 0.039 0.0343 -0.0034 0.0073 0.0039
C10B 0.19 0.0449 0.0439 -0.0085 0.007 -0.0034
O2B 0.185 0.0472 0.0502 -0.0129 0.0116 0.0032
C1C 0.166 0.0422 0.0353 -0.0043 -0.0058 0.0156
O1C 0.177 0.0466 0.0437 0.0112 -0.0085 -0.0025
C3C 0.186 0.0382 0.0362 0.0025 -0.008 -0.0019
C4C 0.176 0.0408 0.0335 0.0022 -0.0071 0.006
C5C 0.201 0.0424 0.0457 0.0081 -0.0156 -0.0067
C6C 0.166 0.0374 0.0311 0.0005 -0.0043 -0.0037
C7C 0.202 0.0479 0.0455 0.0082 -0.0213 -0.012
C8C 0.173 0.0542 0.0465 0.0061 -0.0164 0.0014
C9C 0.156 0.039 0.0343 0.0034 -0.0073 0.0039
C10C 0.19 0.0449 0.0439 0.0085 -0.007 -0.0034
O2C 0.185 0.0472 0.0502 0.0129 -0.0116 0.0032
Cu1A 0.1711 0.0347 0.0294 0 0 -0.0085
O3A 0.193 0.086 0.081 0 0 0.027
Cu1B 0.1711 0.0347 0.0294 0 0 0.0085
Cu1C 0.1711 0.0347 0.0294 0 0 0.0085
Cu1D 0.1711 0.0347 0.0294 0 0 -0.0085
Cu1E 0.1711 0.0347 0.0294 0 0 -0.0085
Cu1F 0.1711 0.0347 0.0294 0 0 0.0085
Cu1G 0.1711 0.0347 0.0294 0 0 0.0085
O1H 0.177 0.0466 0.0437 -0.0112 -0.0085 0.0025
O1I 0.177 0.0466 0.0437 0.0112 0.0085 0.0025
O2D 0.185 0.0472 0.0502 -0.0129 -0.0116 -0.0032
O2E 0.185 0.0472 0.0502 0.0129 0.0116 -0.0032
O2L 0.185 0.0472 0.0502 -0.0129 -0.0116 -0.0032
O2M 0.185 0.0472 0.0502 0.0129 0.0116 -0.0032
loop_
_geom_bond_atom_site_label_1
_geom_bond_atom_site_label_2
_geom_bond_site_symmetry_1
_geom_bond_site_symmetry_2
Cu1 O1 1_555 1_555
C1 O1 1_555 1_555
C2 C6 1_555 1_555
C3 C5 1_555 1_555
C4 C1 1_555 1_555
C5 H1 1_555 1_555
C6 H2 1_555 1_555
C7 C3 1_555 1_555
H3 C7 1_555 1_555
C8 C4 1_555 1_555
H4 C8 1_555 1_555
C9 C3 1_555 1_555
C10 C4 1_555 1_555
H5 C10 1_555 1_555
C11 C9 1_555 1_555
H6 C11 1_555 1_555
O2 C1 1_555 1_555
O3 Cu1 1_555 1_555
H7 O3 1_555 1_555
C1A O1A 1_555 1_555
O1A Cu1A 1_555 1_555
C2A C2 1_555 1_555
C3A C5A 1_555 1_555
C4A C1A 1_555 1_555
C5A H1A 1_555 1_555
C6A C2A 1_555 1_555
H2A C6A 1_555 1_555
C7A C3A 1_555 1_555
H3A C7A 1_555 1_555
C8A C4A 1_555 1_555
H4A C8A 1_555 1_555
C9A C3A 1_555 1_555
C10A C4A 1_555 1_555
H5A C10A 1_555 1_555
C11A C9A 1_555 1_555
H6A C11A 1_555 1_555
O2A C1A 1_555 1_555
C1B O1B 1_555 1_555
O1B Cu1B 1_555 1_555
C3B C5B 1_555 1_555
C4B C1B 1_555 1_555
C5B H1B 1_555 1_555
C6B C2A 1_555 1_555
H2B C6B 1_555 1_555
C7B C3B 1_555 1_555
H3B C7B 1_555 1_555
C8B C4B 1_555 1_555
H4B C8B 1_555 1_555
C9B C11A 1_555 1_555
C10B C4B 1_555 1_555
H5B C10B 1_555 1_555
O2B C1B 1_555 1_555
C1C O1C 1_555 1_555
O1C Cu1C 1_555 1_555
C3C C5C 1_555 1_555
C4C C1C 1_555 1_555
C5C H1C 1_555 1_555
C6C C2 1_555 1_555
H2C C6C 1_555 1_555
C7C C3C 1_555 1_555
H3C C7C 1_555 1_555
C8C C4C 1_555 1_555
H4C C8C 1_555 1_555
C9C C11 1_555 1_555
C10C C4C 1_555 1_555
H5C C10C 1_555 1_555
O2C C1C 1_555 1_555
H7I O3 1_555 1_555
Cu1A O3A 1_555 1_555
O3A H7A 1_555 1_555
H7H O3A 1_555 1_555
Cu1D O2A 1_555 1_555
Cu1E O2 1_555 1_555
Cu1F O2C 1_555 1_555
Cu1G O2B 1_555 1_555
O1H Cu1A 1_555 1_555
O1I Cu1 1_555 1_555
O2D Cu1A 1_555 1_555
O2E Cu1 1_555 1_555
O2L Cu1 1_555 1_555
O2M Cu1A 1_555 1_555
C5 C8 1_555 1_555
C6 C9 1_555 1_555
C7 C10 1_555 1_555
C5A C8A 1_555 1_555
C6A C9A 1_555 1_555
C7A C10A 1_555 1_555
C3B C9B 1_555 1_555
C5B C8B 1_555 1_555
C6B C9B 1_555 1_555
C7B C10B 1_555 1_555
C3C C9C 1_555 1_555
C5C C8C 1_555 1_555
C6C C9C 1_555 1_555
C7C C10C 1_555 1_555

#END
