
#######################################################################
#
#                 Cambridge Crystallographic Data Centre
#                                CCDC 
#
#######################################################################
#
# If this CIF has been generated from an entry in the Cambridge 
# Structural Database, then it will include bibliographic, chemical, 
# crystal, experimental, refinement or atomic coordinate data resulting 
# from the CCDC's data processing and validation procedures.
#
#######################################################################

data_EJUVOU
_chemical_formula_moiety         '(C2 H12 N2 O16 P4 Zn5)n'
_symmetry_cell_setting           orthorhombic
_symmetry_space_group_name_H-M   'P 21 21 21'
_symmetry_Int_Tables_number      19
_space_group_name_Hall           'P 2ac 2ab'
loop_
_symmetry_equiv_pos_site_id
_symmetry_equiv_pos_as_xyz
1 x,y,z
2 1/2-x,-y,1/2+z
3 -x,1/2+y,1/2-z
4 1/2+x,1/2-y,-z
_cell_length_a                   7.2590(19)
_cell_length_b                   13.407(4)
_cell_length_c                   18.031(5)
_cell_angle_alpha                90
_cell_angle_beta                 90
_cell_angle_gamma                90
_cell_volume                     1754.8
loop_
_atom_site_label
_atom_site_type_symbol
_atom_site_fract_x
_atom_site_fract_y
_atom_site_fract_z
Zn1 Zn 0.4865(3) 0.61494(16) 0.20659(13)
Zn2 Zn 0.4992(3) 0.37066(17) 0.22291(12)
Zn3 Zn 0.8572(3) 0.49846(18) 0.41877(12)
Zn4 Zn 1.0536(3) 0.85794(18) 0.30279(13)
Zn5 Zn -0.0576(3) 0.61190(17) 0.18609(13)
P1 P 0.6823(6) 0.4804(4) 0.0934(3)
P2 P 0.7396(8) 0.6908(4) 0.3291(3)
P3 P 0.2404(7) 0.7887(4) 0.1526(3)
P4 P 0.1895(6) 0.4961(4) 0.2930(3)
O1 O 0.406(2) 0.7209(11) 0.1423(8)
O2 O 0.5313(17) 0.4855(11) 0.1569(7)
O3 O 0.303(2) 0.5893(11) 0.2814(9)
O4 O 0.3046(19) 0.4033(11) 0.2904(8)
O5 O 0.573(2) 0.7642(11) 0.3391(8)
O6 O 0.7118(17) 0.6122(10) 0.3865(7)
O7 O 0.5819(19) 0.4767(11) 0.0212(8)
O8 O 0.2384(18) 0.8629(10) 0.0911(8)
O9 O 0.0936(16) 0.5052(11) 0.3666(7)
O10 O 0.929(2) 0.7405(11) 0.3355(8)
O11 O 0.2590(19) 0.8408(11) 0.2287(8)
O12 O 0.7985(18) 0.3872(10) 0.1099(7)
O13 O 0.0434(17) 0.4888(10) 0.2306(7)
O14 O 0.7990(19) 0.5719(11) 0.0987(8)
O15 O 0.7263(19) 0.6479(10) 0.2495(8)
O16 O 0.060(2) 0.7309(10) 0.1525(7)
O5B O 0.427(2) 0.2642(11) 0.1609(8)
O11B O 0.7410(19) 0.3408(11) 0.2713(8)
O7A O 0.9181(19) 0.5233(11) 0.5212(8)
O8B O 0.7616(18) 0.3629(10) 0.4089(8)
O9_2 O 1.0936(16) 0.5052(11) 0.3666(7)
O11_2 O 1.2590(19) 0.8408(11) 0.2287(8)
O12B O 1.2015(18) 0.8872(10) 0.3901(7)
O13B O 0.9566(17) 0.9888(10) 0.2694(7)
O14_2 O -0.2010(19) 0.5719(11) 0.0987(8)
O15_2 O -0.2737(19) 0.6479(10) 0.2495(8)
Zn2B Zn 0.5008(3) 0.87066(17) 0.27709(12)
Zn3A Zn 0.6428(3) 0.50154(18) -0.08123(12)
Zn3B Zn 0.1428(3) 0.99846(18) 0.08123(12)
Zn3_2 Zn -0.1428(3) 0.49846(18) 0.41877(12)
Zn4_2 Zn 0.0536(3) 0.85794(18) 0.30279(13)
Zn4B Zn 0.9464(3) 0.35794(18) 0.19721(13)
Zn4B_2 Zn -0.0536(3) 0.35794(18) 0.19721(13)
Zn5_2 Zn 0.9424(3) 0.61190(17) 0.18609(13)
N1 N 0.721(3) 0.7805(16) 0.0614(13)
H1 H 0.7383 0.7275 0.0326
H2 H 0.6243 0.7698 0.0909
H3 H 0.8206 0.7909 0.0889
C1 C 0.688(4) 0.8629(19) 0.0179(13)
H4 H 0.7579 0.8578 -0.0271
H5 H 0.7235 0.9220 0.0443
H6 H 0.5589 0.8663 0.0061
N2 N 0.713(3) 0.1844(13) 0.0715(10)
H7 H 0.8264 0.1633 0.0812
H8 H 0.6339 0.1556 0.1027
H9 H 0.7074 0.2503 0.0770
C2 C 0.665(5) 0.159(4) -0.0023(16)
H10 H 0.5770 0.2061 -0.0210
H11 H 0.6128 0.0933 -0.0033
H12 H 0.7737 0.1604 -0.0328
loop_
_geom_bond_atom_site_label_1
_geom_bond_atom_site_label_2
_geom_bond_site_symmetry_1
_geom_bond_site_symmetry_2
Zn1 O1 1_555 1_555
Zn2 O2 1_555 1_555
Zn3 O6 1_555 1_555
Zn4 O10 1_555 1_555
Zn5 O13 1_555 1_555
P1 O2 1_555 1_555
P2 O5 1_555 1_555
P3 O1 1_555 1_555
P4 O3 1_555 1_555
O2 Zn1 1_555 1_555
O3 Zn1 1_555 1_555
O4 Zn2 1_555 1_555
O5 Zn2B 1_555 1_555
O6 P2 1_555 1_555
O7 P1 1_555 1_555
O8 P3 1_555 1_555
O9 P4 1_555 1_555
O10 P2 1_555 1_555
O11 P3 1_555 1_555
O12 P1 1_555 1_555
O13 P4 1_555 1_555
O14 P1 1_555 1_555
O15 Zn1 1_555 1_555
O16 Zn5 1_555 1_555
N1 H1 1_555 1_555
H2 N1 1_555 1_555
H3 N1 1_555 1_555
C1 N1 1_555 1_555
H4 C1 1_555 1_555
H5 C1 1_555 1_555
H6 C1 1_555 1_555
N2 H7 1_555 1_555
H8 N2 1_555 1_555
H9 N2 1_555 1_555
C2 N2 1_555 1_555
H10 C2 1_555 1_555
H11 C2 1_555 1_555
H12 C2 1_555 1_555
O5B Zn2 1_555 1_555
O11B Zn2 1_555 1_555
O7A Zn3 1_555 1_555
O8B Zn3 1_555 1_555
O9_2 Zn3 1_555 1_555
O11_2 Zn4 1_555 1_555
O12B Zn4 1_555 1_555
O13B Zn4 1_555 1_555
O14_2 Zn5 1_555 1_555
O15_2 Zn5 1_555 1_555
Zn2B O11 1_555 1_555
Zn3A O7 1_555 1_555
Zn3B O8 1_555 1_555
Zn3_2 O9 1_555 1_555
Zn4_2 O11 1_555 1_555
Zn4B O12 1_555 1_555
Zn4B_2 O13 1_555 1_555
Zn5_2 O14 1_555 1_555
P2 O15 1_555 1_555
P3 O16 1_555 1_555
P4 O4 1_555 1_555
O15 Zn5_2 1_555 1_555
O11B Zn4B 1_555 1_555

#END
