
#######################################################################
#
#                 Cambridge Crystallographic Data Centre
#                                CCDC 
#
#######################################################################
#
# If this CIF has been generated from an entry in the Cambridge 
# Structural Database, then it will include bibliographic, chemical, 
# crystal, experimental, refinement or atomic coordinate data resulting 
# from the CCDC's data processing and validation procedures.
#
#######################################################################

data_AHIKOT
_chemical_formula_moiety         '(C34 H24 Co1 N2 O5)n'
_symmetry_cell_setting           monoclinic
_symmetry_space_group_name_H-M   'P 2/c'
_symmetry_Int_Tables_number      13
_space_group_name_Hall           '-P 2yc'
loop_
_symmetry_equiv_pos_site_id
_symmetry_equiv_pos_as_xyz
1 x,y,z
2 -x,y,1/2-z
3 -x,-y,-z
4 x,-y,1/2+z
_cell_length_a                   17.9388(13)
_cell_length_b                   9.2136(6)
_cell_length_c                   26.536(2)
_cell_angle_alpha                90
_cell_angle_beta                 108.127(4)
_cell_angle_gamma                90
_cell_volume                     4168.22
loop_
_atom_site_label
_atom_site_type_symbol
_atom_site_fract_x
_atom_site_fract_y
_atom_site_fract_z
Co1 Co 0.55189(3) 0.61367(5) 0.45321(2)
N1 N 0.4475(2) 0.7333(3) 0.44694(14)
O1 O 0.59448(17) 0.6450(5) 0.53125(12)
O2 O 0.5417(2) 1.3376(5) 0.87200(13)
O3 O 0.6133(3) 1.2005(4) 0.9341(2)
N2 N -0.3447(17) 1.5051(19) 0.4603(5)
O4 O 0.50705(16) 0.5727(3) 0.56847(14)
C1 C 0.3797(3) 0.7009(5) 0.41121(18)
C2 C 0.4460(3) 0.8374(4) 0.48196(19)
C3 C 0.5656(2) 0.6426(4) 0.56824(15)
H1 H 0.3794 0.6292 0.3854
C4 C 0.3097(3) 0.7651(6) 0.4093(2)
C5 C 0.3786(3) 0.9073(4) 0.4827(2)
H2 H 0.4940 0.8642 0.5076
C6 C 0.6016(4) 0.7480(8) 0.6115(3)
H3 H 0.2630 0.7382 0.3823
C7 C 0.3068(3) 0.8690(5) 0.4464(2)
H4 H 0.3811 0.9818 0.5079
C8 C 0.5595(3) 0.8042(8) 0.6431(3)
C9 C 0.6766(4) 0.7995(8) 0.6170(3)
C10 C 0.2319(3) 0.9335(6) 0.4459(2)
C11 C 0.7094(3) 0.9071(8) 0.6539(3)
H5 H 0.7054 0.7611 0.5954
H6 H 0.5083 0.7690 0.6394
C12 C 0.5923(4) 0.9117(8) 0.6800(3)
H7 H 0.1863 0.8987 0.4196
C13 C 0.2214(3) 1.0326(6) 0.4774(3)
C14 C 0.6673(4) 0.9632(7) 0.6855(3)
H8 H 0.7606 0.9422 0.6576
H9 H 0.5635 0.9501 0.7016
H10 H 0.2656 1.0630 0.5058
C15 C 0.1418(3) 1.1046(7) 0.4719(3)
O5 O 0.7051(5) 1.0667(13) 0.7206(4)
C16 C 0.0693(4) 1.0430(7) 0.4458(3)
C17 C 0.1460(3) 1.2318(7) 0.5008(3)
C18 C 0.6710(5) 1.1043(8) 0.7577(3)
H11 H 0.0665 0.9561 0.4261
C19 C 0.0010(3) 1.1087(9) 0.4486(3)
C20 C 0.0776(4) 1.2974(7) 0.5037(3)
H12 H 0.1955 1.2738 0.5187
C21 C 0.6863(4) 1.0267(7) 0.8048(3)
C22 C 0.6248(5) 1.2285(8) 0.7499(2)
H13 H -0.0486 1.0666 0.4308
C23 C 0.0051(3) 1.2358(9) 0.4775(4)
H14 H 0.0804 1.3843 0.5234
C24 C 0.6554(4) 1.0732(7) 0.8440(2)
H15 H 0.7179 0.9418 0.8101
C25 C 0.5939(4) 1.2750(6) 0.7891(3)
H16 H 0.6143 1.2816 0.7178
C26 C -0.0656(4) 1.2881(11) 0.4859(3)
C27 C 0.6092(4) 1.1973(7) 0.8361(2)
H17 H 0.6659 1.0201 0.8761
H18 H 0.5623 1.3598 0.7838
H19 H -0.0583 1.3379 0.5184
C28 C -0.1304(3) 1.2788(6) 0.4590(3)
C29 C 0.5911(4) 1.2350(7) 0.8882(3)
H20 H -0.1414 1.2147 0.4295
C30 C -0.2017(12) 1.3655(18) 0.4679(7)
C31 C -0.2748(7) 1.3081(13) 0.4392(6)
C32 C -0.2066(6) 1.5020(17) 0.4893(5)
C33 C -0.3429(7) 1.3788(13) 0.4372(5)
H21 H -0.2772 1.2188 0.4208
H22 H -0.1598 1.5535 0.5066
C34 C -0.2771(5) 1.5633(15) 0.4860(4)
H23 H -0.3913 1.3347 0.4181
H24 H -0.2771 1.6535 0.5033
Co1_2 Co -0.44811(3) 1.61367(5) 0.45321(2)
Co1B Co 0.44811(3) 0.38633(5) 0.54679(2)
Co1C Co 0.55189(3) 1.38633(5) 0.95321(2)
O2C O 0.5417(2) 0.6624(5) 0.37200(13)
O3C O 0.6133(3) 0.7995(4) 0.4341(2)
N2_2 N 0.6553(17) 0.5051(19) 0.4603(5)
O4B O 0.49295(16) 0.4273(3) 0.43153(14)
loop_
_geom_bond_atom_site_label_1
_geom_bond_atom_site_label_2
_geom_bond_site_symmetry_1
_geom_bond_site_symmetry_2
Co1 N1 1_555 1_555
N1 C1 1_555 1_555
O1 Co1 1_555 1_555
O2 C29 1_555 1_555
O3 C29 1_555 1_555
N2 C33 1_555 1_555
O4 C3 1_555 1_555
C1 H1 1_555 1_555
C2 N1 1_555 1_555
C3 O1 1_555 1_555
C4 C1 1_555 1_555
C5 C2 1_555 1_555
H2 C2 1_555 1_555
C6 C3 1_555 1_555
H3 C4 1_555 1_555
C7 C4 1_555 1_555
H4 C5 1_555 1_555
C8 C6 1_555 1_555
C9 C6 1_555 1_555
C10 C7 1_555 1_555
C11 C9 1_555 1_555
H5 C9 1_555 1_555
H6 C8 1_555 1_555
C12 C8 1_555 1_555
H7 C10 1_555 1_555
C13 C10 1_555 1_555
C14 C11 1_555 1_555
H8 C11 1_555 1_555
H9 C12 1_555 1_555
H10 C13 1_555 1_555
C15 C13 1_555 1_555
O5 C14 1_555 1_555
C16 C15 1_555 1_555
C17 C15 1_555 1_555
C18 O5 1_555 1_555
H11 C16 1_555 1_555
C19 C16 1_555 1_555
C20 C17 1_555 1_555
H12 C17 1_555 1_555
C21 C18 1_555 1_555
C22 C18 1_555 1_555
H13 C19 1_555 1_555
C23 C19 1_555 1_555
H14 C20 1_555 1_555
C24 C21 1_555 1_555
H15 C21 1_555 1_555
C25 C22 1_555 1_555
H16 C22 1_555 1_555
C26 C23 1_555 1_555
C27 C24 1_555 1_555
H17 C24 1_555 1_555
H18 C25 1_555 1_555
H19 C26 1_555 1_555
C28 C26 1_555 1_555
C29 C27 1_555 1_555
H20 C28 1_555 1_555
C30 C28 1_555 1_555
C31 C30 1_555 1_555
C32 C30 1_555 1_555
C33 C31 1_555 1_555
H21 C31 1_555 1_555
H22 C32 1_555 1_555
C34 N2 1_555 1_555
H23 C33 1_555 1_555
H24 C34 1_555 1_555
Co1_2 N2 1_555 1_555
Co1B O4 1_555 1_555
Co1C O2 1_555 1_555
O2C Co1 1_555 1_555
O3C Co1 1_555 1_555
N2_2 Co1 1_555 1_555
O4B Co1 1_555 1_555
O3 Co1C 1_555 1_555
C5 C7 1_555 1_555
C12 C14 1_555 1_555
C20 C23 1_555 1_555
C25 C27 1_555 1_555
C32 C34 1_555 1_555

#END
