
#######################################################################
#
#                 Cambridge Crystallographic Data Centre
#                                CCDC 
#
#######################################################################
#
# If this CIF has been generated from an entry in the Cambridge 
# Structural Database, then it will include bibliographic, chemical, 
# crystal, experimental, refinement or atomic coordinate data resulting 
# from the CCDC's data processing and validation procedures.
#
#######################################################################

data_MEKDUC
_chemical_formula_moiety         '(C15 H9 Cd1 Cl3 N6 O2 S2)n'
_symmetry_cell_setting           monoclinic
_symmetry_space_group_name_H-M   'P 21/c'
_symmetry_Int_Tables_number      14
_space_group_name_Hall           '-P 2ybc'
loop_
_symmetry_equiv_pos_site_id
_symmetry_equiv_pos_as_xyz
1 x,y,z
2 -x,1/2+y,1/2-z
3 -x,-y,-z
4 x,1/2-y,1/2+z
_cell_length_a                   11.6012(8)
_cell_length_b                   16.8578(11)
_cell_length_c                   10.9825(7)
_cell_angle_alpha                90
_cell_angle_beta                 94.7580(10)
_cell_angle_gamma                90
_cell_volume                     2140.45
loop_
_atom_site_label
_atom_site_type_symbol
_atom_site_fract_x
_atom_site_fract_y
_atom_site_fract_z
Cd1 Cd 0.244861(17) 0.254079(10) 0.162492(18)
S1 S 0.08108(7) 0.29625(4) -0.00862(7)
S2 S 0.41952(6) 0.21166(4) 0.02619(7)
O1 O -0.00787(17) 0.15492(11) -0.07173(18)
O2 O 0.50594(17) 0.34922(11) -0.04341(17)
N1 N -0.1637(2) -0.12331(14) -0.1522(2)
N2 N 0.0849(2) 0.11755(14) -0.2297(2)
N3 N 0.1247(2) 0.19278(14) -0.1917(2)
N4 N 0.6779(2) 0.61436(13) -0.1580(2)
N5 N 0.4139(2) 0.37469(14) -0.2222(2)
N6 N 0.3726(2) 0.30299(13) -0.1787(2)
C1 C -0.0684(3) -0.11280(19) -0.2101(3)
H1 H -0.0378 -0.1563 -0.2484
C2 C -0.0129(3) -0.04094(19) -0.2161(3)
H2 H 0.0515 -0.0357 -0.2605
C3 C -0.0544(3) 0.02323(16) -0.1553(3)
C4 C -0.1513(3) 0.01272(17) -0.0921(3)
H3 H -0.1810 0.0545 -0.0491
C5 C -0.2031(3) -0.06088(18) -0.0940(3)
H4 H -0.2691 -0.0673 -0.0524
C6 C 0.0085(3) 0.09832(16) -0.1567(3)
C7 C 0.0702(2) 0.21349(16) -0.0970(3)
C8 C 0.7056(3) 0.56170(18) -0.0698(3)
H5 H 0.7663 0.5737 -0.0119
C9 C 0.6486(3) 0.49016(18) -0.0600(3)
H6 H 0.6709 0.4550 0.0028
C10 C 0.5585(3) 0.47182(16) -0.1446(3)
C11 C 0.5309(3) 0.5256(2) -0.2372(3)
H7 H 0.4718 0.5147 -0.2973
C12 C 0.5919(3) 0.5954(2) -0.2396(3)
H8 H 0.5716 0.6313 -0.3020
C13 C 0.4912(3) 0.39869(16) -0.1408(3)
C14 C 0.4275(2) 0.28902(15) -0.0718(3)
Cd1B Cd -0.244861(17) -0.254079(10) -0.162492(18)
Cd1C Cd 0.244861(17) 0.245921(10) -0.337508(18)
Cd1B_2 Cd 0.755139(17) 0.745921(10) -0.162492(18)
N1B N 0.1637(2) 0.12331(14) 0.1522(2)
N3C N 0.1247(2) 0.30722(14) 0.3083(2)
N4B N 0.3221(2) 0.38564(13) 0.1580(2)
N6C N 0.3726(2) 0.19701(13) 0.3213(2)
Cl1 Cl 0.81794(15) 0.29840(14) 0.12139(15)
Cl2 Cl 0.73599(19) 0.15223(13) 0.2009(3)
Cl3 Cl 0.67603(17) 0.29207(16) 0.32273(18)
C15 C 0.7051(4) 0.2517(3) 0.1839(5)
H9 H 0.6358 0.2572 0.1271
loop_
_geom_bond_atom_site_label_1
_geom_bond_atom_site_label_2
_geom_bond_site_symmetry_1
_geom_bond_site_symmetry_2
Cd1 S1 1_555 1_555
Cl1 C15 1_555 1_555
Cl2 C15 1_555 1_555
Cl3 C15 1_555 1_555
S1 C7 1_555 1_555
S2 Cd1 1_555 1_555
O1 C6 1_555 1_555
O2 C13 1_555 1_555
N1 C1 1_555 1_555
N2 N3 1_555 1_555
N3 C7 1_555 1_555
N4 C8 1_555 1_555
N5 N6 1_555 1_555
N6 C14 1_555 1_555
C1 H1 1_555 1_555
C2 C1 1_555 1_555
H2 C2 1_555 1_555
C3 C2 1_555 1_555
C4 C3 1_555 1_555
H3 C4 1_555 1_555
C5 N1 1_555 1_555
H4 C5 1_555 1_555
C6 N2 1_555 1_555
C7 O1 1_555 1_555
C8 H5 1_555 1_555
C9 C8 1_555 1_555
H6 C9 1_555 1_555
C10 C9 1_555 1_555
C11 C10 1_555 1_555
H7 C11 1_555 1_555
C12 N4 1_555 1_555
H8 C12 1_555 1_555
C13 N5 1_555 1_555
C14 S2 1_555 1_555
C15 H9 1_555 1_555
Cd1B N1 1_555 1_555
Cd1C N3 1_555 1_555
Cd1B_2 N4 1_555 1_555
N1B Cd1 1_555 1_555
N3C Cd1 1_555 1_555
N4B Cd1 1_555 1_555
N6C Cd1 1_555 1_555
O2 C14 1_555 1_555
N6 Cd1C 1_555 1_555
C3 C6 1_555 1_555
C4 C5 1_555 1_555
C10 C13 1_555 1_555
C11 C12 1_555 1_555

#END
