
#######################################################################
#
#                 Cambridge Crystallographic Data Centre
#                                CCDC 
#
#######################################################################
#
# If this CIF has been generated from an entry in the Cambridge 
# Structural Database, then it will include bibliographic, chemical, 
# crystal, experimental, refinement or atomic coordinate data resulting 
# from the CCDC's data processing and validation procedures.
#
#######################################################################

data_IFUNUU
_chemical_formula_moiety         '(C18 H15 F1 N1 O8 Tb1)n'
_symmetry_cell_setting           monoclinic
_symmetry_space_group_name_H-M   'C 2/c'
_symmetry_Int_Tables_number      15
_space_group_name_Hall           '-C 2yc'
loop_
_symmetry_equiv_pos_site_id
_symmetry_equiv_pos_as_xyz
1 x,y,z
2 -x,y,1/2-z
3 1/2+x,1/2+y,z
4 1/2-x,1/2+y,1/2-z
5 -x,-y,-z
6 x,-y,1/2+z
7 1/2-x,1/2-y,-z
8 1/2+x,1/2-y,1/2+z
_cell_length_a                   24.605(2)
_cell_length_b                   12.9653(12)
_cell_length_c                   14.6200(14)
_cell_angle_alpha                90
_cell_angle_beta                 96.727(2)
_cell_angle_gamma                90
_cell_volume                     4631.84
loop_
_atom_site_label
_atom_site_type_symbol
_atom_site_fract_x
_atom_site_fract_y
_atom_site_fract_z
_atom_site_U_iso_or_equiv
_atom_site_thermal_displace_type
Tb1 Tb 0.327265(18) 0.79475(4) 0.53210(3) 0.0232 Uani
F1 F 0.4121(5) 0.8088(9) 0.1724(12) 0.1342 Uani
O1 O 0.2273(3) 0.6548(6) 0.3519(5) 0.0365 Uani
O2 O 0.3057(3) 0.7427(6) 0.3790(5) 0.0303 Uani
O3 O 0.2024(3) 0.4467(5) 0.0550(5) 0.0352 Uani
O4 O 0.2755(3) 0.3537(5) 0.0394(5) 0.0285 Uani
O5 O 0.5886(3) 0.8228(6) 0.0372(6) 0.0428 Uani
O6 O 0.6043(3) 0.6634(6) 0.0058(6) 0.0440 Uani
O7 O 0.3721(4) 0.7280(9) 0.6715(6) 0.0650 Uani
N1 N 0.3905(4) 0.6615(9) 0.8156(8) 0.0500 Uani
C1 C 0.3716(4) 0.6045(8) 0.1632(7) 0.0286 Uani
C2 C 0.3483(4) 0.6507(8) 0.2353(7) 0.0299 Uani
H1 H 0.3686 0.6992 0.2717 0.0360 Uiso
C3 C 0.2962(4) 0.6270(8) 0.2547(7) 0.0260 Uani
C4 C 0.2643(4) 0.5582(8) 0.2000(7) 0.0312 Uani
H2 H 0.2282 0.5465 0.2099 0.0370 Uiso
C5 C 0.2870(4) 0.5061(8) 0.1291(7) 0.0291 Uani
C6 C 0.3410(4) 0.5277(8) 0.1130(7) 0.0302 Uani
H3 H 0.3567 0.4905 0.0685 0.0360 Uiso
C7 C 0.4261(4) 0.6364(8) 0.1391(7) 0.0279 Uani
C8 C 0.4426(5) 0.7359(9) 0.1392(10) 0.0479 Uani
C9 C 0.4906(5) 0.7671(10) 0.1089(11) 0.0524 Uani
H4 H 0.4994 0.8369 0.1088 0.0630 Uiso
C10 C 0.4626(5) 0.5638(10) 0.1129(10) 0.0542 Uani
H5 H 0.4540 0.4940 0.1153 0.0650 Uiso
C11 C 0.2742(4) 0.6788(8) 0.3355(7) 0.0272 Uani
C12 C 0.5766(4) 0.7285(8) 0.0393(8) 0.0302 Uani
C13 C 0.5254(4) 0.6967(8) 0.0789(8) 0.0327 Uani
C14 C 0.5127(5) 0.5945(10) 0.0824(9) 0.0486 Uani
H6 H 0.5369 0.5452 0.0649 0.0580 Uiso
C15 C 0.2533(4) 0.4309(8) 0.0711(7) 0.0291 Uani
C16 C 0.4468(5) 0.6844(10) 0.8275(9) 0.0500 Uani
H7 H 0.4670 0.6256 0.8102 0.0600 Uiso
H8 H 0.4579 0.7010 0.8909 0.0600 Uiso
H9 H 0.4537 0.7422 0.7895 0.0600 Uiso
C17 C 0.3634(6) 0.5915(10) 0.8841(9) 0.0500 Uani
H10 H 0.3244 0.5995 0.8739 0.0600 Uiso
H11 H 0.3764 0.6110 0.9462 0.0600 Uiso
H12 H 0.3727 0.5208 0.8744 0.0600 Uiso
C18 C 0.3579(6) 0.6938(11) 0.7392(10) 0.0500 Uani
H13 H 0.330(6) 0.656(11) 0.751(9) 0.0500 Uiso
O8 O 0.3732(4) 0.9406(8) 0.6102(7) 0.0642 Uani
H14 H 0.4036 0.9266 0.5908 0.0960 Uiso
H15 H 0.422(5) 0.943(9) 0.651(8) 0.0500 Uiso
Tb1A Tb 0.672735(18) 0.79475(4) -0.03210(3) 0.0232 Uani
Tb1C Tb 0.172735(18) 0.29475(4) -0.03210(3) 0.0232 Uani
Tb1E Tb 0.327265(18) 0.20525(4) 0.03210(3) 0.0232 Uani
Tb1F Tb 0.172735(18) 0.70525(4) 0.46790(3) 0.0232 Uani
O1F O 0.2727(3) 0.8452(6) 0.6481(5) 0.0365 Uani
O3C O 0.2976(3) 0.9467(5) 0.4450(5) 0.0352 Uani
O4C O 0.2245(3) 0.8537(5) 0.4606(5) 0.0285 Uani
O4E O 0.2755(3) 0.6463(5) 0.5394(5) 0.0285 Uani
O5A O 0.4114(3) 0.8228(6) 0.4628(6) 0.0428 Uani
O6A O 0.3957(3) 0.6634(6) 0.4942(6) 0.0440 Uani
loop_
_atom_site_aniso_label
_atom_site_aniso_U_11
_atom_site_aniso_U_22
_atom_site_aniso_U_33
_atom_site_aniso_U_23
_atom_site_aniso_U_13
_atom_site_aniso_U_12
Tb1 0.0153(3) 0.0289(3) 0.0266(3) -0.0003(2) 0.00727(19) 0.00209(19)
F1 0.097(9) 0.089(8) 0.237(16) -0.037(9) 0.106(11) -0.014(7)
O1 0.025(4) 0.052(5) 0.035(4) -0.013(4) 0.014(3) -0.003(4)
O2 0.030(4) 0.034(4) 0.029(4) -0.008(3) 0.012(3) -0.004(3)
O3 0.026 0.025 0.055 -0.009 0.006 -0.007
O4 0.031 0.023 0.034 -0.007 0.014 -0.008
O5 0.024 0.038 0.07 0.011 0.021 0
O6 0.034 0.043 0.06 -0.016 0.026 -0.015
O7 0.060(6) 0.107(9) 0.026(5) 0.007(5) -0.004(4) 0.028(6)
N1 0.050(6) 0.050(6) 0.050(6) 0.000(5) 0.006(5) 0.000(5)
C1 0.021(5) 0.030(5) 0.036(6) -0.009(5) 0.009(4) -0.009(4)
C2 0.018(5) 0.029(6) 0.044(6) -0.013(5) 0.009(5) -0.003(4)
C3 0.025(5) 0.027(5) 0.027(5) -0.005(4) 0.007(4) -0.003(4)
C4 0.017(5) 0.039(6) 0.041(6) -0.001(5) 0.018(5) -0.002(4)
C5 0.018(5) 0.033(6) 0.038(6) -0.002(5) 0.010(4) -0.002(4)
C6 0.025(5) 0.035(6) 0.033(6) -0.009(5) 0.013(5) -0.002(4)
C7 0.020(5) 0.035(6) 0.031(5) -0.009(4) 0.013(4) -0.001(4)
C8 0.038(7) 0.036(7) 0.077(9) -0.017(6) 0.038(7) -0.007(5)
C9 0.038(7) 0.032(6) 0.094(11) -0.007(7) 0.036(7) -0.004(5)
C10 0.046(8) 0.039(7) 0.084(10) 0.003(7) 0.035(7) 0.000(6)
C11 0.018(5) 0.035(6) 0.030(6) -0.003(4) 0.009(4) 0.002(4)
C12 0.022 0.03 0.04 -0.001 0.01 -0.001
C13 0.022 0.038 0.04 -0.009 0.011 -0.004
C14 0.036 0.041 0.075 0.001 0.032 -0.002
C15 0.027 0.03 0.032 0.001 0.011 -0.004
C16 0.050(8) 0.050(7) 0.050(7) 0.000(6) 0.006(6) 0.000(6)
C17 0.050(7) 0.050(7) 0.050(7) 0.000(6) 0.006(6) 0.000(6)
C18 0.050(8) 0.050(8) 0.050(7) 0.000(6) 0.006(6) 0.000(6)
O8 0.048(6) 0.075(7) 0.070(7) -0.026(5) 0.008(5) -0.019(5)
Tb1A 0.0153 0.0289 0.0266 0.0003 0.00727 -0.00209
Tb1C 0.0153 0.0289 0.0266 0.0003 0.00727 -0.00209
Tb1E 0.0153 0.0289 0.0266 0.0003 0.00727 -0.00209
Tb1F 0.0153 0.0289 0.0266 -0.0003 0.00727 0.00209
O1F 0.025 0.052 0.035 -0.013 0.014 -0.003
O3C 0.026 0.025 0.055 0.009 0.006 0.007
O4C 0.031 0.023 0.034 0.007 0.014 0.008
O4E 0.031 0.023 0.034 0.007 0.014 0.008
O5A 0.024 0.038 0.07 -0.011 0.021 0
O6A 0.034 0.043 0.06 0.016 0.026 0.015
loop_
_geom_bond_atom_site_label_1
_geom_bond_atom_site_label_2
_geom_bond_site_symmetry_1
_geom_bond_site_symmetry_2
Tb1 O2 1_555 1_555
F1 C8 1_555 1_555
O1 C11 1_555 1_555
O2 C11 1_555 1_555
O3 C15 1_555 1_555
O4 C15 1_555 1_555
O5 C12 1_555 1_555
O6 C12 1_555 1_555
O7 Tb1 1_555 1_555
N1 C16 1_555 1_555
C1 C2 1_555 1_555
C2 H1 1_555 1_555
C3 C2 1_555 1_555
C4 C3 1_555 1_555
H2 C4 1_555 1_555
C5 C4 1_555 1_555
C6 C1 1_555 1_555
H3 C6 1_555 1_555
C7 C1 1_555 1_555
C8 C7 1_555 1_555
C9 C8 1_555 1_555
H4 C9 1_555 1_555
C10 C7 1_555 1_555
H5 C10 1_555 1_555
C11 C3 1_555 1_555
C12 C13 1_555 1_555
C13 C9 1_555 1_555
C14 C10 1_555 1_555
H6 C14 1_555 1_555
C15 C5 1_555 1_555
C16 H7 1_555 1_555
H8 C16 1_555 1_555
H9 C16 1_555 1_555
C17 N1 1_555 1_555
H10 C17 1_555 1_555
H11 C17 1_555 1_555
H12 C17 1_555 1_555
C18 O7 1_555 1_555
H13 C18 1_555 1_555
O8 Tb1 1_555 1_555
H14 O8 1_555 1_555
H15 O8 1_555 1_555
Tb1A O5 1_555 1_555
Tb1C O3 1_555 1_555
Tb1E O4 1_555 1_555
Tb1F O1 1_555 1_555
O1F Tb1 1_555 1_555
O3C Tb1 1_555 1_555
O4C Tb1 1_555 1_555
O4E Tb1 1_555 1_555
O5A Tb1 1_555 1_555
O6A Tb1 1_555 1_555
O4 Tb1C 1_555 1_555
O6 Tb1A 1_555 1_555
N1 C18 1_555 1_555
C5 C6 1_555 1_555
C13 C14 1_555 1_555
Tb1F O4C 1_555 1_555
Tb1F O4E 1_555 1_555

#END
