
#######################################################################
#
#                 Cambridge Crystallographic Data Centre
#                                CCDC 
#
#######################################################################
#
# If this CIF has been generated from an entry in the Cambridge 
# Structural Database, then it will include bibliographic, chemical, 
# crystal, experimental, refinement or atomic coordinate data resulting 
# from the CCDC's data processing and validation procedures.
#
#######################################################################

data_IFUPAC
_chemical_formula_moiety         '(C18 H15 Eu1 F1 N1 O8)n'
_symmetry_cell_setting           monoclinic
_symmetry_space_group_name_H-M   'C 2/c'
_symmetry_Int_Tables_number      15
_space_group_name_Hall           '-C 2yc'
loop_
_symmetry_equiv_pos_site_id
_symmetry_equiv_pos_as_xyz
1 x,y,z
2 -x,y,1/2-z
3 1/2+x,1/2+y,z
4 1/2-x,1/2+y,1/2-z
5 -x,-y,-z
6 x,-y,1/2+z
7 1/2-x,1/2-y,-z
8 1/2+x,1/2-y,1/2+z
_cell_length_a                   24.6841(13)
_cell_length_b                   12.9554(7)
_cell_length_c                   14.6905(8)
_cell_angle_alpha                90
_cell_angle_beta                 96.6580(10)
_cell_angle_gamma                90
_cell_volume                     4666.23
loop_
_atom_site_label
_atom_site_type_symbol
_atom_site_fract_x
_atom_site_fract_y
_atom_site_fract_z
_atom_site_U_iso_or_equiv
_atom_site_thermal_displace_type
Eu1 Eu 0.327357(15) 0.79449(3) 0.03221(3) 0.0213 Uani
F1 F 0.4127(5) 0.8082(7) -0.3269(11) 0.1359 Uani
O1 O 0.2019(3) 0.4492(5) -0.4442(5) 0.0339 Uani
O2 O 0.3053(3) 0.7431(5) -0.1221(4) 0.0332 Uani
O3 O 0.6039(3) 0.6622(6) -0.4939(5) 0.0438 Uani
O4 O 0.5876(3) 0.8218(5) -0.4634(6) 0.0432 Uani
O5 O 0.2743(2) 0.3559(4) -0.4625(4) 0.0275 Uani
O6 O 0.2271(2) 0.6566(6) -0.1498(4) 0.0360 Uani
O7 O 0.3737(4) 0.9410(9) 0.1112(8) 0.0624 Uani
C1 C 0.4262(4) 0.6349(7) -0.3605(6) 0.0285 Uani
C2 C 0.3708(3) 0.6042(7) -0.3373(6) 0.0281 Uani
C3 C 0.3407(3) 0.5284(7) -0.3878(6) 0.0292 Uani
H1 H 0.3562 0.4915 -0.4325 0.0350 Uiso
C4 C 0.2864(3) 0.5078(7) -0.3710(6) 0.0260 Uani
C5 C 0.2643(3) 0.5583(7) -0.3011(6) 0.0271 Uani
H2 H 0.2283 0.5466 -0.2912 0.0320 Uiso
C6 C 0.2966(3) 0.6270(7) -0.2457(5) 0.0246 Uani
C7 C 0.3486(3) 0.6515(7) -0.2651(6) 0.0272 Uani
H3 H 0.3689 0.7003 -0.2295 0.0330 Uiso
C8 C 0.2520(4) 0.4320(7) -0.4292(6) 0.0284 Uani
C9 C 0.2742(3) 0.6815(7) -0.1662(6) 0.0268 Uani
C10 C 0.4622(4) 0.5643(9) -0.3874(9) 0.0540 Uani
H4 H 0.4536 0.4945 -0.3865 0.0650 Uiso
C11 C 0.5121(4) 0.5949(8) -0.4165(9) 0.0494 Uani
H5 H 0.5363 0.5451 -0.4330 0.0590 Uiso
C12 C 0.5251(4) 0.6955(7) -0.4207(6) 0.0310 Uani
C13 C 0.4911(5) 0.7670(8) -0.3907(9) 0.0525 Uani
H6 H 0.5001 0.8367 -0.3905 0.0630 Uiso
C14 C 0.4428(5) 0.7349(8) -0.3604(9) 0.0498 Uani
C15 C 0.5755(4) 0.7272(8) -0.4616(6) 0.0315 Uani
O8 O 0.3724(3) 0.7233(6) 0.1729(6) 0.0500 Uani
C16 C 0.3563(5) 0.6916(9) 0.2413(8) 0.0500 Uani
H7 H 0.3189 0.6949 0.2438 0.0600 Uiso
N1 N 0.3867(4) 0.6514(8) 0.3157(7) 0.0500 Uani
C17 C 0.3617(5) 0.5983(9) 0.3850(8) 0.0500 Uani
H8 H 0.3789 0.5323 0.3963 0.0750 Uiso
H9 H 0.3236 0.5885 0.3649 0.0750 Uiso
H10 H 0.3657 0.6383 0.4404 0.0750 Uiso
H11 H 0.387(5) 0.879(11) 0.137(9) 0.0500 Uiso
H12 H 0.376(6) 0.908(12) 0.081(9) 0.0500 Uiso
C18 C 0.4414(4) 0.6589(10) 0.3165(8) 0.0500 Uani
H13 H 0.4556 0.5946 0.2970 0.0750 Uiso
H14 H 0.4577 0.6745 0.3775 0.0750 Uiso
H15 H 0.4497 0.7129 0.2756 0.0750 Uiso
Eu1A Eu 0.672643(15) 0.79449(3) -0.53221(3) 0.0213 Uani
Eu1C Eu 0.172643(15) 0.29449(3) -0.53221(3) 0.0213 Uani
Eu1E Eu 0.327357(15) 0.20551(3) -0.46779(3) 0.0213 Uani
Eu1F Eu 0.172643(15) 0.70551(3) -0.03221(3) 0.0213 Uani
O1C O 0.2981(3) 0.9492(5) -0.0558(5) 0.0339 Uani
O3A O 0.3961(3) 0.6622(6) -0.0061(5) 0.0438 Uani
O4A O 0.4124(3) 0.8218(5) -0.0366(6) 0.0432 Uani
O5C O 0.2257(2) 0.8559(4) -0.0375(4) 0.0275 Uani
O5E O 0.2743(2) 0.6441(4) 0.0375(4) 0.0275 Uani
O6F O 0.2729(2) 0.8434(6) 0.1498(4) 0.0360 Uani
loop_
_atom_site_aniso_label
_atom_site_aniso_U_11
_atom_site_aniso_U_22
_atom_site_aniso_U_33
_atom_site_aniso_U_23
_atom_site_aniso_U_13
_atom_site_aniso_U_12
Eu1 0.0144(2) 0.0293(3) 0.0212(3) -0.00062(16) 0.00662(16) 0.00251(16)
F1 0.11 0.08 0.241 -0.035 0.119 -0.02
O1 0.027(3) 0.028(3) 0.047(4) -0.007(3) 0.005(3) -0.001(3)
O2 0.028(3) 0.046(4) 0.028(3) -0.010(3) 0.013(3) -0.002(3)
O3 0.033 0.049 0.054 -0.017 0.024 -0.011
O4 0.022 0.035 0.077 0.008 0.024 -0.002
O5 0.029 0.023 0.034 -0.006 0.018 -0.005
O6 0.02 0.058 0.032 -0.02 0.012 -0.004
O7 0.046(5) 0.079(8) 0.062(6) -0.035(6) 0.005(4) -0.018(5)
C1 0.027(5) 0.031(5) 0.030(4) -0.007(4) 0.014(4) -0.004(4)
C2 0.020(4) 0.029(5) 0.037(5) -0.004(4) 0.010(4) -0.003(3)
C3 0.019(4) 0.033(5) 0.038(5) -0.008(4) 0.014(4) -0.005(4)
C4 0.021(4) 0.026(4) 0.033(5) -0.005(4) 0.012(3) -0.006(3)
C5 0.017(4) 0.035(5) 0.031(4) -0.004(4) 0.010(3) -0.002(3)
C6 0.019(4) 0.032(5) 0.024(4) -0.007(3) 0.008(3) -0.001(3)
C7 0.015(4) 0.035(5) 0.033(5) -0.008(4) 0.009(3) -0.004(3)
C8 0.025(5) 0.029(4) 0.033(5) -0.002(4) 0.011(4) -0.009(4)
C9 0.019(4) 0.040(5) 0.023(4) -0.014(4) 0.009(3) -0.001(4)
C10 0.039 0.04 0.091 -0.005 0.042 -0.004
C11 0.037 0.035 0.082 -0.005 0.032 -0.001
C12 0.025 0.04 0.029 -0.011 0.008 -0.01
C13 0.043 0.03 0.091 -0.016 0.035 -0.012
C14 0.038 0.041 0.078 -0.017 0.039 -0.011
C15 0.02 0.044 0.032 -0.005 0.009 -0.004
O8 0.050(5) 0.050(5) 0.050(5) 0.000(4) 0.006(4) 0.000(4)
C16 0.050(7) 0.050(7) 0.050(7) 0.000(5) 0.006(6) 0.000(5)
N1 0.050(6) 0.050(6) 0.050(5) 0.000(4) 0.006(4) 0.000(5)
C17 0.050(7) 0.050(7) 0.050(6) 0.000(5) 0.006(5) 0.000(5)
C18 0.050(7) 0.050(7) 0.050(7) 0.000(5) 0.006(5) 0.000(5)
Eu1A 0.0144 0.0293 0.0212 0.00062 0.00662 -0.00251
Eu1C 0.0144 0.0293 0.0212 0.00062 0.00662 -0.00251
Eu1E 0.0144 0.0293 0.0212 0.00062 0.00662 -0.00251
Eu1F 0.0144 0.0293 0.0212 -0.00062 0.00662 0.00251
O1C 0.027 0.028 0.047 0.007 0.005 0.001
O3A 0.033 0.049 0.054 0.017 0.024 0.011
O4A 0.022 0.035 0.077 -0.008 0.024 0.002
O5C 0.029 0.023 0.034 0.006 0.018 0.005
O5E 0.029 0.023 0.034 0.006 0.018 0.005
O6F 0.02 0.058 0.032 -0.02 0.012 -0.004
loop_
_geom_bond_atom_site_label_1
_geom_bond_atom_site_label_2
_geom_bond_site_symmetry_1
_geom_bond_site_symmetry_2
Eu1 O2 1_555 1_555
F1 C14 1_555 1_555
O1 C8 1_555 1_555
O2 C9 1_555 1_555
O3 C15 1_555 1_555
O4 C15 1_555 1_555
O5 C8 1_555 1_555
O6 C9 1_555 1_555
O7 Eu1 1_555 1_555
C1 C2 1_555 1_555
C2 C3 1_555 1_555
C3 H1 1_555 1_555
C4 C3 1_555 1_555
C5 C4 1_555 1_555
H2 C5 1_555 1_555
C6 C5 1_555 1_555
C7 C2 1_555 1_555
H3 C7 1_555 1_555
C8 C4 1_555 1_555
C9 C6 1_555 1_555
C10 C1 1_555 1_555
H4 C10 1_555 1_555
C11 C10 1_555 1_555
H5 C11 1_555 1_555
C12 C11 1_555 1_555
C13 C12 1_555 1_555
H6 C13 1_555 1_555
C14 C1 1_555 1_555
C15 C12 1_555 1_555
O8 Eu1 1_555 1_555
C16 O8 1_555 1_555
H7 C16 1_555 1_555
N1 C16 1_555 1_555
C17 N1 1_555 1_555
H8 C17 1_555 1_555
H9 C17 1_555 1_555
H10 C17 1_555 1_555
H11 O7 1_555 1_555
H12 O7 1_555 1_555
C18 N1 1_555 1_555
H13 C18 1_555 1_555
H14 C18 1_555 1_555
H15 C18 1_555 1_555
Eu1A O3 1_555 1_555
Eu1C O1 1_555 1_555
Eu1E O5 1_555 1_555
Eu1F O6 1_555 1_555
O1C Eu1 1_555 1_555
O3A Eu1 1_555 1_555
O4A Eu1 1_555 1_555
O5C Eu1 1_555 1_555
O5E Eu1 1_555 1_555
O6F Eu1 1_555 1_555
O4 Eu1A 1_555 1_555
O5 Eu1C 1_555 1_555
C6 C7 1_555 1_555
C13 C14 1_555 1_555
Eu1F O5C 1_555 1_555
Eu1F O5E 1_555 1_555

#END
