
#######################################################################
#
#                 Cambridge Crystallographic Data Centre
#                                CCDC 
#
#######################################################################
#
# If this CIF has been generated from an entry in the Cambridge 
# Structural Database, then it will include bibliographic, chemical, 
# crystal, experimental, refinement or atomic coordinate data resulting 
# from the CCDC's data processing and validation procedures.
#
#######################################################################

data_IJAPOA
_chemical_formula_moiety         'C26 H18 Cu8 N4 O16'
_symmetry_cell_setting           rhombohedral
_symmetry_space_group_name_H-M   'R -3 m'
_symmetry_Int_Tables_number      166
_space_group_name_Hall           '-R 3 2"'
loop_
_symmetry_equiv_pos_site_id
_symmetry_equiv_pos_as_xyz
1 x,y,z
2 -y,x-y,z
3 -x+y,-x,z
4 x-y,-y,-z
5 -x,-x+y,-z
6 y,x,-z
7 2/3+x,1/3+y,1/3+z
8 2/3-y,1/3+x-y,1/3+z
9 2/3-x+y,1/3-x,1/3+z
10 2/3+x-y,1/3-y,1/3-z
11 2/3-x,1/3-x+y,1/3-z
12 2/3+y,1/3+x,1/3-z
13 1/3+x,2/3+y,2/3+z
14 1/3-y,2/3+x-y,2/3+z
15 1/3-x+y,2/3-x,2/3+z
16 1/3+x-y,2/3-y,2/3-z
17 1/3-x,2/3-x+y,2/3-z
18 1/3+y,2/3+x,2/3-z
19 -x,-y,-z
20 y,-x+y,-z
21 x-y,x,-z
22 -x+y,y,z
23 x,x-y,z
24 -y,-x,z
25 1/3-x,2/3-y,2/3-z
26 1/3+y,2/3-x+y,2/3-z
27 1/3+x-y,2/3+x,2/3-z
28 1/3-x+y,2/3+y,2/3+z
29 1/3+x,2/3+x-y,2/3+z
30 1/3-y,2/3-x,2/3+z
31 2/3-x,1/3-y,1/3-z
32 2/3+y,1/3-x+y,1/3-z
33 2/3+x-y,1/3+x,1/3-z
34 2/3-x+y,1/3+y,1/3+z
35 2/3+x,1/3+x-y,1/3+z
36 2/3-y,1/3-x,1/3+z
_cell_length_a                   18.606(6)
_cell_length_b                   18.606(6)
_cell_length_c                   38.653(11)
_cell_angle_alpha                90
_cell_angle_beta                 90
_cell_angle_gamma                120
_cell_volume                     11588.3
loop_
_atom_site_label
_atom_site_type_symbol
_atom_site_fract_x
_atom_site_fract_y
_atom_site_fract_z
_atom_site_U_iso_or_equiv
_atom_site_thermal_displace_type
C1 C 0.7272(7) -0.1793(5) 0.3223(2) 0.0917 Uani
H1 H 0.7692 -0.1891 0.3151 0.1100 Uiso
C2 C 0.6293(7) -0.2290(6) 0.3094(2) 0.0943 Uani
C3 C 0.7867(2) 0.0272(2) 0.19367(8) 0.0496 Uani
C4 C 0.7357(2) -0.0681(2) 0.24462(9) 0.0643 Uani
H2 H 0.7249 -0.0301 0.2556 0.0780 Uiso
C5 C 0.7209(4) -0.13954(18) 0.26201(13) 0.0717 Uani
C6 C 0.7664(2) -0.0526(2) 0.21088(8) 0.0519 Uani
C7 C 0.7800(3) -0.11002(15) 0.19440(12) 0.0527 Uani
H3 H 0.7987 -0.1006 0.1716 0.0630 Uiso
C8 C 0.6917(4) -0.1541(2) 0.29874(14) 0.0769 Uani
N1 N 0.5748(16) -0.3048(15) 0.2876(5) 0.2651 Uani
H4 H 0.5818 -0.3035 0.2656 0.3160 Uiso
H5 H 0.5368 -0.3493 0.2973 0.3160 Uiso
O1 O 0.81459(14) 0.03764(13) 0.16351(6) 0.0570 Uani
O2 O 0.77538(16) 0.07788(14) 0.21085(6) 0.0607 Uani
O3 O 0.89485(12) 0.10515(12) 0.09206(10) 0.0938 Uani
Cu1 Cu 0.856667(14) 0.143333(14) 0.138833(12) 0.0406 Uani
C1P C 0.6061(7) -0.2398(9) 0.3444(2) 0.0917 Uani
H1P H 0.5641 -0.2916 0.3516 0.1100 Uiso
C2P C 0.7040(7) -0.1916(9) 0.3573(2) 0.0943 Uani
C3P C 0.5466(2) -0.0928(3) 0.47300(8) 0.0496 Uani
C4P C 0.5976(2) -0.1371(3) 0.42205(9) 0.0643 Uani
H2P H 0.6084 -0.0883 0.4111 0.0780 Uiso
C5P C 0.6124(4) -0.19377(44) 0.40466(13) 0.0717 Uani
C6P C 0.5669(2) -0.1523(3) 0.45579(8) 0.0519 Uani
C7P C 0.5533(3) -0.22335(34) 0.47227(12) 0.0527 Uani
H3P H 0.5346 -0.2326 0.4951 0.0630 Uiso
C8P C 0.6416(4) -0.1791(4) 0.36793(14) 0.0769 Uani
N1P N 0.7585(16) -0.2129(22) 0.3791(5) 0.2651 Uani
H4P H 0.7515 -0.2186 0.4011 0.3160 Uiso
H5P H 0.7965 -0.2194 0.3694 0.3160 Uiso
O1P O 0.51874(14) -0.11028(19) 0.50316(6) 0.0570 Uani
O2P O 0.55795(16) -0.03083(21) 0.45582(6) 0.0607 Uani
C1V C 0.7272(7) -0.0935(9) 0.3223(2) 0.0917 Uani
H1V H 0.7692 -0.0417 0.3151 0.1100 Uiso
C2V C 0.6293(7) -0.1417(9) 0.3094(2) 0.0943 Uani
C3V C 0.7867(2) -0.2405(3) 0.19367(8) 0.0496 Uani
C4V C 0.7357(2) -0.1962(3) 0.24462(9) 0.0643 Uani
H2V H 0.7249 -0.2450 0.2556 0.0780 Uiso
C6V C 0.7664(2) -0.1810(3) 0.21088(8) 0.0519 Uani
N1V N 0.5748(16) -0.1204(22) 0.2876(5) 0.2651 Uani
H4V H 0.5818 -0.1147 0.2656 0.3160 Uiso
H5V H 0.5368 -0.1139 0.2973 0.3160 Uiso
O1V O 0.81459(14) -0.22305(19) 0.16351(6) 0.0570 Uani
O2V O 0.77538(16) -0.30250(21) 0.21085(6) 0.0607 Uani
C1X C 0.6061(7) -0.1540(5) 0.3444(2) 0.0917 Uani
H1X H 0.5641 -0.1442 0.3516 0.1100 Uiso
C2X C 0.7040(7) -0.1043(6) 0.3573(2) 0.0943 Uani
C3X C 0.5466(2) -0.3605(2) 0.47300(8) 0.0496 Uani
C4X C 0.5976(2) -0.2652(2) 0.42205(9) 0.0643 Uani
H2X H 0.6084 -0.3032 0.4111 0.0780 Uiso
C6X C 0.5669(2) -0.2807(2) 0.45579(8) 0.0519 Uani
N1X N 0.7585(16) -0.0285(15) 0.3791(5) 0.2651 Uani
H4X H 0.7515 -0.0298 0.4011 0.3160 Uiso
H5X H 0.7965 0.0160 0.3694 0.3160 Uiso
O1X O 0.51874(14) -0.37097(13) 0.50316(6) 0.0570 Uani
O2X O 0.55795(16) -0.41121(14) 0.45582(6) 0.0607 Uani
O3A O 0.89485(12) -0.21030(17) 0.09206(10) 0.0938 Uani
Cu1A Cu 0.856667(14) -0.286666(20) 0.138833(12) 0.0406 Uani
O1A O 0.96236(13) -0.22305(19) 0.16351(6) 0.0570 Uani
O1W O 0.96236(13) 0.18541(14) 0.16351(6) 0.0570 Uani
O2J O 0.89129(16) -0.36417(21) 0.12248(6) 0.0607 Uani
O2K O 0.74455(14) 0.10871(16) 0.12248(6) 0.0607 Uani
O2DA O 0.89129(16) 0.25545(14) 0.12248(6) 0.0607 Uani
O2EA O 0.74455(14) -0.36417(21) 0.12248(6) 0.0607 Uani
Cu1F Cu 0.523334(14) -0.523334(14) 0.472166(12) 0.0406 Uani
Cu1G Cu 0.523334(14) 0.046667(20) 0.472166(12) 0.0406 Uani
Cu1J Cu 0.810000(14) -0.380001(20) 0.194500(12) 0.0406 Uani
Cu1K Cu 0.810000(14) 0.190000(14) 0.194500(12) 0.0406 Uani
Cu1P Cu 0.476666(14) -0.046667(20) 0.527834(12) 0.0406 Uani
Cu1Q Cu 0.476666(14) -0.476666(14) 0.527834(12) 0.0406 Uani
loop_
_atom_site_aniso_label
_atom_site_aniso_U_11
_atom_site_aniso_U_22
_atom_site_aniso_U_33
_atom_site_aniso_U_23
_atom_site_aniso_U_13
_atom_site_aniso_U_12
C1 0.139(9) 0.108(7) 0.063(5) 0.024(5) 0.035(6) 0.088(7)
C2 0.153(9) 0.077(6) 0.047(5) 0.007(4) 0.033(6) 0.053(6)
C3 0.064(2) 0.0537(19) 0.0423(19) 0.0053(15) 0.0009(15) 0.0378(17)
C4 0.099(3) 0.059(2) 0.053(2) 0.0112(17) 0.021(2) 0.053(2)
C5 0.114(5) 0.066(2) 0.051(3) 0.0110(15) 0.022(3) 0.057(2)
C6 0.066(2) 0.0509(19) 0.0445(19) 0.0060(15) 0.0103(16) 0.0336(17)
C7 0.065(3) 0.0530(19) 0.044(3) 0.0023(11) 0.005(2) 0.0325(15)
C8 0.127(5) 0.068(2) 0.056(4) 0.0169(18) 0.034(4) 0.064(3)
N1 0.43(5) 0.42(5) 0.062(12) -0.02(2) 0.02(2) 0.30(4)
O1 0.0809(16) 0.0508(13) 0.0479(14) 0.0090(10) 0.0138(12) 0.0394(12)
O2 0.0919 0.0538 0.053 0.0085 0.0149 0.0488
O3 0.125(3) 0.125(3) 0.060(2) -0.0147(10) 0.0147(10) 0.084(3)
Cu1 0.0493(3) 0.0493(3) 0.0347(3) -0.00071(10) 0.00071(10) 0.0332(3)
C1P 0.139 0.071 0.063 0.011 0.035 0.051
C2P 0.153 0.124 0.047 0.026 0.033 0.1
C3P 0.064 0.0421 0.0423 -0.0044 0.0009 0.0262
C4P 0.099 0.052 0.053 0.0098 0.021 0.046
C5P 0.114 0.066 0.051 0.011 0.022 0.057
C6P 0.066 0.0497 0.0445 0.0043 0.0103 0.0324
C7P 0.065 0.053 0.044 0.0027 0.005 0.0325
C8P 0.127 0.067 0.056 0.0171 0.034 0.063
N1P 0.43 0.25 0.062 0.04 0.02 0.13
O1P 0.0809 0.0529 0.0479 0.0048 0.0138 0.0415
O2P 0.0919 0.0481 0.053 0.0064 0.0149 0.0431
C1V 0.139 0.071 0.063 0.011 0.035 0.051
C2V 0.153 0.124 0.047 0.026 0.033 0.1
C3V 0.064 0.0421 0.0423 -0.0044 0.0009 0.0262
C4V 0.099 0.052 0.053 0.0098 0.021 0.046
C6V 0.066 0.0497 0.0445 0.0043 0.0103 0.0324
N1V 0.43 0.25 0.062 0.04 0.02 0.13
O1V 0.0809 0.0529 0.0479 0.0048 0.0138 0.0415
O2V 0.0919 0.0481 0.053 0.0064 0.0149 0.0431
C1X 0.139 0.108 0.063 0.024 0.035 0.088
C2X 0.153 0.077 0.047 0.007 0.033 0.053
C3X 0.064 0.0537 0.0423 0.0053 0.0009 0.0378
C4X 0.099 0.059 0.053 0.0112 0.021 0.053
C6X 0.066 0.0509 0.0445 0.006 0.0103 0.0336
N1X 0.43 0.42 0.062 -0.02 0.02 0.3
O1X 0.0809 0.0508 0.0479 0.009 0.0138 0.0394
O2X 0.0919 0.0538 0.053 0.0085 0.0149 0.0488
O3A 0.125 0.082 0.06 0.0294 0.0147 0.041
Cu1A 0.0493 0.0322 0.0347 0.00142 0.00071 0.0161
O1A 0.0508 0.0529 0.0479 0.0048 -0.009 0.0114
O1W 0.0508 0.0809 0.0479 -0.0138 -0.009 0.0394
O2J 0.0919 0.0481 0.053 0.0064 0.0149 0.0431
O2K 0.0538 0.0919 0.053 -0.0149 -0.0085 0.0488
O2DA 0.0919 0.0538 0.053 0.0085 0.0149 0.0488
O2EA 0.0538 0.0481 0.053 0.0064 -0.0085 0.005
Cu1F 0.0493 0.0493 0.0347 -0.00071 0.00071 0.0332
Cu1G 0.0493 0.0322 0.0347 0.00142 0.00071 0.0161
Cu1J 0.0493 0.0322 0.0347 0.00142 0.00071 0.0161
Cu1K 0.0493 0.0493 0.0347 -0.00071 0.00071 0.0332
Cu1P 0.0493 0.0322 0.0347 0.00142 0.00071 0.0161
Cu1Q 0.0493 0.0493 0.0347 -0.00071 0.00071 0.0332
loop_
_geom_bond_atom_site_label_1
_geom_bond_atom_site_label_2
_geom_bond_site_symmetry_1
_geom_bond_site_symmetry_2
C1 H1 1_555 1_555
C2 C8 1_555 1_555
C3 C6 1_555 1_555
C4 H2 1_555 1_555
C5 C4 1_555 1_555
C6 C4 1_555 1_555
C7 C6 1_555 1_555
H3 C7 1_555 1_555
C8 C1 1_555 1_555
N1 C2 1_555 1_555
H4 N1 1_555 1_555
H5 N1 1_555 1_555
O1 C3 1_555 1_555
O2 C3 1_555 1_555
O3 Cu1 1_555 1_555
Cu1 O1 1_555 1_555
C1P C2 1_555 1_555
H1P C1P 1_555 1_555
C2P C1 1_555 1_555
C3P C6P 1_555 1_555
C4P H2P 1_555 1_555
C5P C4P 1_555 1_555
C6P C4P 1_555 1_555
C7P C6P 1_555 1_555
H3P C7P 1_555 1_555
C8P C1P 1_555 1_555
N1P C2P 1_555 1_555
H4P N1P 1_555 1_555
H5P N1P 1_555 1_555
O1P C3P 1_555 1_555
O2P C3P 1_555 1_555
C1V C8 1_555 1_555
H1V C1V 1_555 1_555
C2V C8 1_555 1_555
C3V C6V 1_555 1_555
C4V C5 1_555 1_555
H2V C4V 1_555 1_555
C6V C7 1_555 1_555
N1V C2V 1_555 1_555
H4V N1V 1_555 1_555
H5V N1V 1_555 1_555
O1V C3V 1_555 1_555
O2V C3V 1_555 1_555
C1X C8P 1_555 1_555
H1X C1X 1_555 1_555
C2X C8P 1_555 1_555
C3X C6X 1_555 1_555
C4X C5P 1_555 1_555
H2X C4X 1_555 1_555
C6X C7P 1_555 1_555
N1X C2X 1_555 1_555
H4X N1X 1_555 1_555
H5X N1X 1_555 1_555
O1X C3X 1_555 1_555
O2X C3X 1_555 1_555
O3A Cu1A 1_555 1_555
Cu1A O1V 1_555 1_555
O1A Cu1A 1_555 1_555
O1W Cu1 1_555 1_555
O2J Cu1A 1_555 1_555
O2K Cu1 1_555 1_555
O2DA Cu1 1_555 1_555
O2EA Cu1A 1_555 1_555
Cu1F O2X 1_555 1_555
Cu1G O2P 1_555 1_555
Cu1J O2V 1_555 1_555
Cu1K O2 1_555 1_555
Cu1P O1P 1_555 1_555
Cu1Q O1X 1_555 1_555
C5 C8 1_555 1_555
C2P C8P 1_555 1_555
C5P C8P 1_555 1_555
C1V C2X 1_555 1_555
C2V C1X 1_555 1_555
C4V C6V 1_555 1_555
C4X C6X 1_555 1_555

#END
