
#######################################################################
#
#                 Cambridge Crystallographic Data Centre
#                                CCDC 
#
#######################################################################
#
# If this CIF has been generated from an entry in the Cambridge 
# Structural Database, then it will include bibliographic, chemical, 
# crystal, experimental, refinement or atomic coordinate data resulting 
# from the CCDC's data processing and validation procedures.
#
#######################################################################

data_PIZQOG
_chemical_formula_moiety         '(C19 H24 Cu2 N6 O6)n'
_symmetry_cell_setting           tetragonal
_symmetry_space_group_name_H-M   'P 43 21 2'
_symmetry_Int_Tables_number      96
_space_group_name_Hall           'P 4nw 2abw'
loop_
_symmetry_equiv_pos_site_id
_symmetry_equiv_pos_as_xyz
1 x,y,z
2 1/2-y,1/2+x,3/4+z
3 -x,-y,1/2+z
4 1/2+y,1/2-x,1/4+z
5 1/2+x,1/2-y,1/4-z
6 1/2-x,1/2+y,3/4-z
7 y,x,-z
8 -y,-x,1/2-z
_cell_length_a                   13.5401(4)
_cell_length_b                   13.5401(4)
_cell_length_c                   16.1906(10)
_cell_angle_alpha                90
_cell_angle_beta                 90
_cell_angle_gamma                90
_cell_volume                     2968.29
loop_
_atom_site_label
_atom_site_type_symbol
_atom_site_fract_x
_atom_site_fract_y
_atom_site_fract_z
Cu1 Cu 0.30376(6) 0.03531(6) 0.03340(4)
O1 O 0.3584(3) -0.0497(3) -0.0568(3)
N1 N 0.3443(4) -0.0288(4) 0.2005(3)
H1 H 0.3627 0.0320 0.2119
C1 C 0.3053(4) -0.1857(5) 0.2161(4)
O2 O 0.1300(4) 0.2156(4) -0.0964(3)
C2 C 0.3508(5) -0.0144(5) -0.1305(4)
N2 N 0.3173(4) -0.0607(4) 0.1245(3)
N3 N 0.2533(4) 0.1070(4) -0.0598(3)
C3 C 0.1839(5) 0.1688(5) -0.0460(4)
O3 O 0.3865(4) -0.0538(4) -0.1936(3)
C4 C 0.2929(5) -0.1556(5) 0.1329(4)
C5 C 0.2874(5) -0.2874(5) 0.2500
H2 H 0.3000 -0.3360 0.2055
C6 C 0.2966(5) 0.0835(5) -0.1396(4)
H3 H 0.2442 0.0785 -0.1829
C7 C 0.3393(5) -0.1015(5) 0.2557(4)
C8 C 0.3695(6) -0.0822(6) 0.3436(4)
H4 H 0.3891 -0.0129 0.3495
H5 H 0.4253 -0.1250 0.3580
H6 H 0.3138 -0.0962 0.3804
C9 C 0.2570(8) -0.2140(6) 0.0603(5)
H7 H 0.2570 -0.1721 0.0109
H8 H 0.1897 -0.2375 0.0710
H9 H 0.3007 -0.2707 0.0513
C10 C 0.3714(8) 0.1637(6) -0.1622(5)
H10 H 0.3371 0.2270 -0.1687
H11 H 0.4042 0.1462 -0.2141
H12 H 0.4207 0.1694 -0.1181
H2G H 0.3360 -0.3000 0.2945
O1F O -0.0497(3) 0.3584(3) 0.0568(3)
C2F C -0.0144(5) 0.3508(5) 0.1305(4)
N3F N 0.1070(4) 0.2533(4) 0.0598(3)
C6F C 0.0835(5) 0.2966(5) 0.1396(4)
H3F H 0.0785 0.2442 0.1829
C10F C 0.1637(6) 0.3714(8) 0.1622(5)
H10F H 0.2270 0.3371 0.1687
H11F H 0.1462 0.4042 0.2141
H12F H 0.1694 0.4207 0.1181
O2F O 0.2156(4) 0.1300(4) 0.0964(3)
C3F C 0.1688(5) 0.1839(5) 0.0460(4)
O3F O -0.0538(4) 0.3865(4) 0.1936(3)
N1G N 0.0288(4) -0.3443(4) 0.2995(3)
H1G H -0.0320 -0.3627 0.2881
C1G C 0.1857(5) -0.3053(4) 0.2839(4)
N2G N 0.0607(4) -0.3173(4) 0.3755(3)
C4G C 0.1556(5) -0.2929(5) 0.3671(4)
C7G C 0.1015(5) -0.3393(5) 0.2443(4)
C8G C 0.0822(6) -0.3695(6) 0.1564(4)
H4G H 0.0129 -0.3891 0.1505
H5G H 0.1250 -0.4253 0.1420
H6G H 0.0962 -0.3138 0.1196
C9G C 0.2140(6) -0.2570(8) 0.4397(5)
H7G H 0.1721 -0.2570 0.4891
H8G H 0.2375 -0.1897 0.4290
H9G H 0.2707 -0.3007 0.4487
Cu1F Cu 0.03531(6) 0.30376(6) -0.03340(4)
Cu1A Cu 0.46469(6) -0.19624(6) -0.21660(4)
Cu1D Cu -0.19624(6) 0.46469(6) 0.21660(4)
Cu1G Cu -0.03531(6) -0.30376(6) 0.46660(4)
N2F N -0.0607(4) 0.3173(4) -0.1245(3)
O3C O 0.4462(4) 0.1135(4) 0.0564(3)
O3E O 0.1135(4) 0.4462(4) -0.0564(3)
loop_
_geom_bond_atom_site_label_1
_geom_bond_atom_site_label_2
_geom_bond_site_symmetry_1
_geom_bond_site_symmetry_2
Cu1 O1 1_555 1_555
O1 C2 1_555 1_555
N1 H1 1_555 1_555
C1 C4 1_555 1_555
O2 C3 1_555 1_555
C2 O3 1_555 1_555
N2 Cu1 1_555 1_555
N3 Cu1 1_555 1_555
C3 N3 1_555 1_555
O3 Cu1A 1_555 1_555
C4 N2 1_555 1_555
C5 C1 1_555 1_555
H2 C5 1_555 1_555
C6 C2 1_555 1_555
H3 C6 1_555 1_555
C7 N1 1_555 1_555
C8 C7 1_555 1_555
H4 C8 1_555 1_555
H5 C8 1_555 1_555
H6 C8 1_555 1_555
C9 C4 1_555 1_555
H7 C9 1_555 1_555
H8 C9 1_555 1_555
H9 C9 1_555 1_555
C10 C6 1_555 1_555
H10 C10 1_555 1_555
H11 C10 1_555 1_555
H12 C10 1_555 1_555
H2G C5 1_555 1_555
O1F C2F 1_555 1_555
C2F C6F 1_555 1_555
N3F C6F 1_555 1_555
C6F H3F 1_555 1_555
C10F C6F 1_555 1_555
H10F C10F 1_555 1_555
H11F C10F 1_555 1_555
H12F C10F 1_555 1_555
O2F Cu1 1_555 1_555
C3F C3 1_555 1_555
O3F C2F 1_555 1_555
N1G H1G 1_555 1_555
C1G C5 1_555 1_555
N2G N1G 1_555 1_555
C4G C1G 1_555 1_555
C7G N1G 1_555 1_555
C8G C7G 1_555 1_555
H4G C8G 1_555 1_555
H5G C8G 1_555 1_555
H6G C8G 1_555 1_555
C9G C4G 1_555 1_555
H7G C9G 1_555 1_555
H8G C9G 1_555 1_555
H9G C9G 1_555 1_555
Cu1F O2 1_555 1_555
Cu1D O3F 1_555 1_555
Cu1G N2G 1_555 1_555
N2F Cu1F 1_555 1_555
O3C Cu1 1_555 1_555
O3E Cu1F 1_555 1_555
N1 N2 1_555 1_555
C1 C7 1_555 1_555
N3 C6 1_555 1_555
O1F Cu1F 1_555 1_555
N3F C3F 1_555 1_555
N3F Cu1F 1_555 1_555
O2F C3F 1_555 1_555
C1G C7G 1_555 1_555
N2G C4G 1_555 1_555

#END
