
#######################################################################
#
#                 Cambridge Crystallographic Data Centre
#                                CCDC 
#
#######################################################################
#
# If this CIF has been generated from an entry in the Cambridge 
# Structural Database, then it will include bibliographic, chemical, 
# crystal, experimental, refinement or atomic coordinate data resulting 
# from the CCDC's data processing and validation procedures.
#
#######################################################################

data_PIZRUN
_chemical_formula_moiety         '(C27 H34 Cu2 N6 O7)n'
_symmetry_cell_setting           orthorhombic
_symmetry_space_group_name_H-M   'P 21 21 21'
_symmetry_Int_Tables_number      19
_space_group_name_Hall           'P 2ac 2ab'
loop_
_symmetry_equiv_pos_site_id
_symmetry_equiv_pos_as_xyz
1 x,y,z
2 1/2-x,-y,1/2+z
3 1/2+x,1/2-y,-z
4 -x,1/2+y,1/2-z
_cell_length_a                   13.041(3)
_cell_length_b                   14.411(4)
_cell_length_c                   16.307(4)
_cell_angle_alpha                90
_cell_angle_beta                 90
_cell_angle_gamma                90
_cell_volume                     3064.64
loop_
_atom_site_label
_atom_site_type_symbol
_atom_site_fract_x
_atom_site_fract_y
_atom_site_fract_z
_atom_site_U_iso_or_equiv
_atom_site_thermal_displace_type
Cu1 Cu 0.44018(5) 0.03698(4) 0.91402(4) 0.0320 Uani
O1 O 0.7909(3) 0.3573(3) 0.9287(2) 0.0359 Uani
O2 O 0.7877(4) 0.3924(3) 1.0625(2) 0.0453 Uani
O3 O 0.6263(4) 0.1972(3) 0.7802(2) 0.0441 Uani
O4 O 0.5207(3) 0.1373(3) 0.9734(2) 0.0393 Uani
O5 O 0.3792(4) -0.0785(3) 0.6954(2) 0.0461 Uani
O6 O 0.3865(3) -0.0511(3) 0.8293(2) 0.0368 Uani
C1 C 0.7510(5) 0.3545(4) 1.0019(3) 0.0330 Uani
C2 C 0.6473(5) 0.3047(4) 1.0093(3) 0.0373 Uani
H1 H 0.6487 0.2607 1.0552 0.0440 Uiso
C3 C 0.5623(5) 0.3767(5) 1.0220(4) 0.0500 Uani
H2 H 0.4975 0.3456 1.0270 0.0750 Uiso
H3 H 0.5604 0.4180 0.9758 0.0750 Uiso
H4 H 0.5758 0.4115 1.0710 0.0750 Uiso
C4 C 0.5720(4) 0.1841(4) 0.9212(3) 0.0317 Uani
C5 C 0.5671(5) 0.1563(4) 0.8310(3) 0.0347 Uani
C6 C 0.4799(5) 0.0492(5) 0.7400(3) 0.0430 Uani
H5 H 0.5444 0.0278 0.7157 0.0520 Uiso
C7 C 0.4288(9) 0.1167(6) 0.6809(5) 0.0900 Uani
H6 H 0.4733 0.1687 0.6716 0.1350 Uiso
H7 H 0.3653 0.1380 0.7039 0.1350 Uiso
H8 H 0.4155 0.0859 0.6297 0.1350 Uiso
C8 C 0.4113(4) -0.0341(4) 0.7544(3) 0.0337 Uani
C9 C 0.6494(7) -0.3715(6) 1.0383(4) 0.0710 Uani
H9 H 0.7165 -0.3983 1.0330 0.1070 Uiso
H10 H 0.6416 -0.3222 0.9992 0.1070 Uiso
H11 H 0.5985 -0.4182 1.0284 0.1070 Uiso
C10 C 0.6362(5) -0.3329(4) 1.1249(3) 0.0363 Uani
C11 C 0.5569(4) -0.2890(3) 1.1642(3) 0.0317 Uani
C12 C 0.5921(5) -0.2752(4) 1.2445(3) 0.0370 Uani
C13 C 0.5388(7) -0.2342(8) 1.3163(4) 0.0813 Uani
H12 H 0.5836 -0.2356 1.3631 0.1220 Uiso
H13 H 0.4780 -0.2694 1.3280 0.1220 Uiso
H14 H 0.5204 -0.1712 1.3043 0.1220 Uiso
C14 C 0.4975(7) -0.1934(5) 0.9491(4) 0.0680 Uani
H15 H 0.5009 -0.1551 0.9011 0.1020 Uiso
H16 H 0.4536 -0.2455 0.9387 0.1020 Uiso
H17 H 0.5650 -0.2151 0.9627 0.1020 Uiso
C15 C 0.4560(5) -0.1386(4) 1.0184(3) 0.0347 Uani
C16 C 0.4371(4) -0.1672(4) 1.0993(3) 0.0337 Uani
C17 C 0.4508(5) -0.2642(4) 1.1332(4) 0.0400 Uani
H18 H 0.4324 -0.3081 1.0906 0.0480 Uiso
H19 H 0.4026 -0.2724 1.1779 0.0480 Uiso
C18 C 0.3990(6) -0.0900(5) 1.1383(3) 0.0440 Uani
C19 C 0.3648(8) -0.0713(7) 1.2250(4) 0.0803 Uani
H20 H 0.3433 -0.0078 1.2298 0.1210 Uiso
H21 H 0.4208 -0.0826 1.2619 0.1210 Uiso
H22 H 0.3086 -0.1115 1.2386 0.1210 Uiso
N1 N 0.6307(4) 0.2555(3) 0.9322(3) 0.0350 Uani
N2 N 0.5018(4) 0.0918(3) 0.8185(3) 0.0377 Uani
N3 N 0.6887(4) -0.3067(3) 1.2516(3) 0.0353 Uani
N4 N 0.7132(4) -0.3408(3) 1.1779(3) 0.0353 Uani
H23 H 0.7717 -0.3650 1.1662 0.0420 Uiso
N5 N 0.3974(4) -0.0204(3) 1.0830(3) 0.0387 Uani
H24 H 0.3776 0.0352 1.0935 0.0460 Uiso
N6 N 0.4307(4) -0.0490(3) 1.0093(3) 0.0330 Uani
Cu2 Cu 0.70991(5) 0.29449(4) 0.83967(4) 0.0318 Uani
Cu1B Cu 0.94018(5) 0.46302(4) 1.08598(4) 0.0320 Uani
O2B O 0.2877(4) 0.1076(3) 0.9375(2) 0.0453 Uani
O5C O 0.6208(4) 0.4215(3) 0.8046(2) 0.0461 Uani
N3A N 0.8113(4) 0.3067(3) 0.7516(3) 0.0353 Uani
Cu2A Cu 0.79009(5) -0.29449(4) 1.33967(4) 0.0318 Uani
Cu2C Cu 0.29009(5) -0.20551(4) 0.66033(4) 0.0318 Uani
O7 O 0.6906(8) -0.0002(8) 1.0038(6) 0.1493 Uani
H25 H 0.6411 0.0343 1.0092 0.2240 Uiso
C20 C 0.7918(10) 0.1041(9) 1.1268(10) 0.1153 Uani
H26 H 0.8054 0.1190 1.0724 0.1380 Uiso
C21 C 0.8220(12) 0.1632(11) 1.1903(12) 0.1417 Uani
H27 H 0.8563 0.2183 1.1792 0.1700 Uiso
C22 C 0.7995(15) 0.1380(16) 1.2699(12) 0.1453 Uani
H28 H 0.8168 0.1790 1.3117 0.1740 Uiso
C23 C 0.7538(15) 0.0572(15) 1.2908(10) 0.1460 Uani
H29 H 0.7445 0.0401 1.3452 0.1750 Uiso
C24 C 0.7214(12) 0.0007(11) 1.2260(9) 0.1220 Uani
H30 H 0.6852 -0.0534 1.2375 0.1460 Uiso
C25 C 0.7415(8) 0.0230(8) 1.1468(7) 0.0837 Uani
C26 C 0.7119(10) -0.0467(10) 1.0820(8) 0.1100 Uani
H31 H 0.6502 -0.0798 1.0999 0.1320 Uiso
C27 C 0.7960(12) -0.1160(10) 1.0663(10) 0.1490 Uani
H32 H 0.7743 -0.1590 1.0248 0.2230 Uiso
H33 H 0.8110 -0.1490 1.1159 0.2230 Uiso
H34 H 0.8564 -0.0840 1.0480 0.2230 Uiso
loop_
_atom_site_aniso_label
_atom_site_aniso_U_11
_atom_site_aniso_U_22
_atom_site_aniso_U_33
_atom_site_aniso_U_23
_atom_site_aniso_U_13
_atom_site_aniso_U_12
Cu1 0.0382(4) 0.0307(3) 0.0270(3) 0.0004(3) 0.0002(3) -0.0083(3)
O1 0.040(2) 0.0363(19) 0.0313(18) -0.0006(15) 0.0024(18) -0.0122(18)
O2 0.052(3) 0.053(2) 0.0310(18) -0.0061(18) -0.004(2) -0.015(2)
O3 0.057(3) 0.045(2) 0.0304(18) -0.0032(19) 0.0087(19) -0.019(2)
O4 0.047(3) 0.042(2) 0.0288(18) 0.0013(17) 0.0021(18) -0.0176(19)
O5 0.062(3) 0.042(2) 0.0343(19) -0.0115(18) 0.001(2) -0.021(2)
O6 0.045(2) 0.036(2) 0.0293(17) -0.0026(17) -0.0007(17) -0.0110(18)
C1 0.042(3) 0.029(3) 0.028(2) 0.004(2) 0.000(2) -0.007(2)
C2 0.049(4) 0.037(3) 0.026(2) -0.002(2) 0.004(2) -0.013(3)
C3 0.048(4) 0.052(4) 0.050(3) -0.009(3) 0.011(3) -0.005(3)
C4 0.033(3) 0.034(3) 0.028(2) 0.000(2) -0.003(2) -0.006(2)
C5 0.042(3) 0.034(3) 0.028(2) -0.001(2) 0.004(3) -0.006(2)
C6 0.057(4) 0.046(3) 0.026(2) -0.004(2) 0.006(3) -0.022(3)
C7 0.156(10) 0.061(5) 0.053(4) 0.025(4) -0.040(6) -0.046(6)
C8 0.033(3) 0.031(3) 0.037(3) -0.003(2) 0.001(2) -0.002(2)
C9 0.087 0.082 0.044 -0.021 -0.024 0.04
C10 0.045 0.035 0.029 0.001 -0.008 0.007
C11 0.035 0.026 0.034 0.004 -0.003 0.003
C12 0.035 0.041 0.035 0.001 -0.002 0.007
C13 0.078 0.126 0.04 -0.008 0.004 0.053
C14 0.105(7) 0.049(4) 0.050(4) -0.002(3) 0.010(4) 0.027(4)
C15 0.038(3) 0.029(2) 0.037(3) 0.003(2) -0.004(2) 0.003(2)
C16 0.027(3) 0.036(3) 0.038(3) 0.008(2) -0.006(2) 0.001(2)
C17 0.032(3) 0.038(3) 0.050(3) 0.012(2) -0.007(3) 0.000(3)
C18 0.052(4) 0.049(4) 0.031(3) 0.010(3) -0.002(3) 0.017(3)
C19 0.113(8) 0.088(7) 0.040(4) 0.016(4) 0.019(4) 0.054(6)
N1 0.047(3) 0.033(2) 0.025(2) -0.0037(18) 0.002(2) -0.010(2)
N2 0.049(3) 0.037(2) 0.027(2) -0.0035(19) -0.001(2) -0.016(2)
N3 0.038 0.037 0.031 -0.0059 -0.004 0.005
N4 0.034 0.043 0.029 -0.0007 -0.002 0.01
N5 0.050(3) 0.034(2) 0.032(2) 0.004(2) 0.000(2) 0.016(2)
N6 0.040(3) 0.028(2) 0.031(2) 0.0028(18) 0.000(2) 0.005(2)
Cu2 0.0372(4) 0.0297(3) 0.0284(3) -0.0007(3) 0.0046(3) -0.0058(3)
Cu1B 0.0382 0.0307 0.027 0.0004 -0.0002 0.0083
O2B 0.052 0.053 0.031 -0.0061 0.004 0.015
O5C 0.062 0.042 0.0343 0.0115 0.001 0.021
N3A 0.038 0.037 0.031 0.0059 0.004 0.005
Cu2A 0.0372 0.0297 0.0284 0.0007 -0.0046 -0.0058
Cu2C 0.0372 0.0297 0.0284 0.0007 0.0046 0.0058
O7 0.172(10) 0.165(10) 0.111(6) -0.007(7) -0.021(7) 0.028(8)
C20 0.107(10) 0.090(8) 0.149(11) -0.008(9) -0.016(9) -0.005(8)
C21 0.139(13) 0.100(10) 0.186(17) -0.019(12) -0.033(13) -0.011(9)
C22 0.171(17) 0.150(16) 0.115(12) -0.046(12) -0.024(12) 0.066(14)
C23 0.171(17) 0.154(16) 0.113(11) 0.005(12) 0.013(11) 0.073(14)
C24 0.147(12) 0.105(9) 0.114(9) -0.002(8) 0.023(10) 0.029(9)
C25 0.077(7) 0.090(7) 0.084(6) -0.003(6) -0.003(5) 0.001(6)
C26 0.105(9) 0.115(9) 0.110(8) -0.008(9) -0.004(8) -0.019(8)
C27 0.134(12) 0.109(10) 0.204(17) -0.062(11) 0.015(12) -0.011(10)
loop_
_geom_bond_atom_site_label_1
_geom_bond_atom_site_label_2
_geom_bond_site_symmetry_1
_geom_bond_site_symmetry_2
Cu1 O4 1_555 1_555
O1 C1 1_555 1_555
O2 C1 1_555 1_555
O3 C5 1_555 1_555
O4 C4 1_555 1_555
O5 C8 1_555 1_555
O6 Cu1 1_555 1_555
C1 C2 1_555 1_555
C2 H1 1_555 1_555
C3 C2 1_555 1_555
H2 C3 1_555 1_555
H3 C3 1_555 1_555
H4 C3 1_555 1_555
C4 C5 1_555 1_555
C5 N2 1_555 1_555
C6 H5 1_555 1_555
C7 C6 1_555 1_555
H6 C7 1_555 1_555
H7 C7 1_555 1_555
H8 C7 1_555 1_555
C8 O6 1_555 1_555
C9 H9 1_555 1_555
H10 C9 1_555 1_555
H11 C9 1_555 1_555
C10 C9 1_555 1_555
C11 C10 1_555 1_555
C12 C11 1_555 1_555
C13 C12 1_555 1_555
H12 C13 1_555 1_555
H13 C13 1_555 1_555
H14 C13 1_555 1_555
C14 H15 1_555 1_555
H16 C14 1_555 1_555
H17 C14 1_555 1_555
C15 C14 1_555 1_555
C16 C15 1_555 1_555
C17 C11 1_555 1_555
H18 C17 1_555 1_555
H19 C17 1_555 1_555
C18 C16 1_555 1_555
C19 C18 1_555 1_555
H20 C19 1_555 1_555
H21 C19 1_555 1_555
H22 C19 1_555 1_555
N1 C2 1_555 1_555
N2 Cu1 1_555 1_555
N3 C12 1_555 1_555
N4 C10 1_555 1_555
H23 N4 1_555 1_555
N5 C18 1_555 1_555
H24 N5 1_555 1_555
N6 Cu1 1_555 1_555
Cu2 O1 1_555 1_555
O7 H25 1_555 1_555
C20 H26 1_555 1_555
C21 C20 1_555 1_555
H27 C21 1_555 1_555
C22 C21 1_555 1_555
H28 C22 1_555 1_555
C23 C22 1_555 1_555
H29 C23 1_555 1_555
C24 C23 1_555 1_555
H30 C24 1_555 1_555
C25 C20 1_555 1_555
C26 O7 1_555 1_555
H31 C26 1_555 1_555
C27 C26 1_555 1_555
H32 C27 1_555 1_555
H33 C27 1_555 1_555
H34 C27 1_555 1_555
Cu1B O2 1_555 1_555
O2B Cu1 1_555 1_555
O5C Cu2 1_555 1_555
N3A Cu2 1_555 1_555
Cu2A N3 1_555 1_555
Cu2C O5 1_555 1_555
O3 Cu2 1_555 1_555
C4 N1 1_555 1_555
C6 C8 1_555 1_555
C6 N2 1_555 1_555
C15 N6 1_555 1_555
C16 C17 1_555 1_555
N1 Cu2 1_555 1_555
N3 N4 1_555 1_555
N5 N6 1_555 1_555
C24 C25 1_555 1_555
C25 C26 1_555 1_555

#END
