
#######################################################################
#
#                 Cambridge Crystallographic Data Centre
#                                CCDC 
#
#######################################################################
#
# If this CIF has been generated from an entry in the Cambridge 
# Structural Database, then it will include bibliographic, chemical, 
# crystal, experimental, refinement or atomic coordinate data resulting 
# from the CCDC's data processing and validation procedures.
#
#######################################################################

data_PEKCUF
_chemical_formula_moiety         '(C61 H65 Mn3 N3 O24)n'
_symmetry_cell_setting           monoclinic
_symmetry_space_group_name_H-M   'P 21/c'
_symmetry_Int_Tables_number      14
_space_group_name_Hall           '-P 2ybc'
loop_
_symmetry_equiv_pos_site_id
_symmetry_equiv_pos_as_xyz
1 x,y,z
2 -x,1/2+y,1/2-z
3 -x,-y,-z
4 x,1/2-y,1/2+z
_cell_length_a                   24.2334(19)
_cell_length_b                   11.3031(9)
_cell_length_c                   36.079(3)
_cell_angle_alpha                90
_cell_angle_beta                 98.213(2)
_cell_angle_gamma                90
_cell_volume                     9781.13
loop_
_atom_site_label
_atom_site_type_symbol
_atom_site_fract_x
_atom_site_fract_y
_atom_site_fract_z
Mn1 Mn 0.71585(3) 0.87901(7) 0.37895(2)
Mn2 Mn 0.67436(3) 1.15547(7) 0.34142(2)
Mn3 Mn 0.30340(4) 1.39885(7) 0.59711(2)
N1 N 0.5093(2) 1.2899(6) 0.34771(19)
C1 C 0.6925(2) 0.9867(5) 0.63112(14)
C2 C 0.6937(2) 0.9576(5) 0.58936(15)
H1 H 0.7226 0.9001 0.5868
H2 H 0.6581 0.9256 0.5781
C3 C 0.6460(2) 1.0746(5) 0.63488(16)
H3 H 0.6468 1.0965 0.6609
H4 H 0.6510 1.1457 0.6207
C4 C 0.6831(2) 0.8714(5) 0.65019(15)
H5 H 0.6500 0.8324 0.6377
H6 H 0.7147 0.8190 0.6498
C5 C 0.7471(2) 1.0433(5) 0.64834(16)
H7 H 0.7546 1.1138 0.6346
H8 H 0.7449 1.0657 0.6740
C6 C 0.6992(3) 1.0753(5) 0.53387(15)
C7 C 0.7124(4) 1.1836(6) 0.52019(17)
H9 H 0.7247 1.2444 0.5367
C8 C 0.7074(3) 1.2018(6) 0.48290(17)
H10 H 0.7161 1.2757 0.4740
C9 C 0.6897(2) 1.1122(5) 0.45765(15)
C10 C 0.6779(2) 1.0038(5) 0.47157(15)
H11 H 0.6667 0.9420 0.4552
C11 C 0.6825(3) 0.9855(5) 0.50999(16)
H12 H 0.6741 0.9119 0.5193
C12 C 0.6848(2) 1.1346(5) 0.41720(15)
C13 C 0.5476(2) 1.0875(5) 0.62244(17)
C14 C 0.4974(2) 1.0303(6) 0.6109(2)
H13 H 0.4974 0.9513 0.6037
C15 C 0.4484(2) 1.0889(5) 0.61016(19)
H14 H 0.4150 1.0491 0.6030
C16 C 0.4477(2) 1.2061(5) 0.61985(17)
C17 C 0.4977(2) 1.2630(5) 0.63208(18)
H15 H 0.4975 1.3417 0.6396
C18 C 0.5481(2) 1.2031(5) 0.63317(18)
H16 H 0.5817 1.2415 0.6411
C19 C 0.3948(2) 1.2737(5) 0.61633(17)
C20 C 0.6717(2) 0.8115(5) 0.71243(15)
C21 C 0.6786(3) 0.6918(5) 0.70554(16)
H17 H 0.6867 0.6665 0.6824
C22 C 0.6733(3) 0.6115(5) 0.73337(16)
H18 H 0.6774 0.5313 0.7287
C23 C 0.6618(2) 0.6473(5) 0.76847(15)
C24 C 0.6544(2) 0.7659(5) 0.77444(14)
H19 H 0.6458 0.7912 0.7975
C25 C 0.6595(2) 0.8472(5) 0.74722(16)
H20 H 0.6543 0.9271 0.7519
C26 C 0.6599(2) 0.5597(6) 0.79904(16)
C27 C 0.8442(2) 1.0082(6) 0.65640(19)
H21 H 0.8490 1.0692 0.6386
H22 H 0.8481 1.0415 0.6811
C28 C 0.8850(2) 0.9059(5) 0.66268(16)
C29 C 0.8766(2) 0.8194(6) 0.63030(15)
H23 H 0.8397 0.7842 0.6283
H24 H 0.9041 0.7567 0.6338
C30 C 0.9432(2) 0.9575(6) 0.66724(18)
H25 H 0.9477 1.0139 0.6877
H26 H 0.9490 0.9988 0.6445
C31 C 0.8755(2) 0.8372(6) 0.69822(15)
H27 H 0.9024 0.7733 0.7029
H28 H 0.8383 0.8035 0.6949
C32 C 0.8540(3) 0.8515(6) 0.56350(16)
C33 C 0.8335(3) 0.7386(6) 0.55686(18)
H29 H 0.8370 0.6822 0.5758
C34 C 0.8067(3) 0.7104(6) 0.51994(18)
H30 H 0.7946 0.6335 0.5145
C35 C 0.7988(3) 0.7941(6) 0.49279(17)
C36 C 0.8192(3) 0.9077(6) 0.50099(19)
H31 H 0.8144 0.9652 0.4824
C37 C 0.8464(3) 0.9372(7) 0.53601(19)
H32 H 0.8595 1.0138 0.5410
C38 C 0.7684(2) 0.7670(6) 0.45504(17)
C39 C 1.0371(2) 0.8912(6) 0.67129(18)
C40 C 1.0726(2) 0.7933(6) 0.6721(2)
H33 H 1.0593 0.7175 0.6755
C41 C 1.1275(2) 0.8107(6) 0.6677(2)
H34 H 1.1511 0.7456 0.6686
C42 C 1.1484(2) 0.9201(5) 0.66202(17)
C43 C 1.1124(2) 1.0162(5) 0.66159(19)
H35 H 1.1255 1.0919 0.6578
C44 C 1.0579(2) 1.0008(6) 0.6667(2)
H36 H 1.0348 1.0664 0.6670
C45 C 1.2065(2) 0.9361(5) 0.65430(16)
C46 C 0.8497(2) 0.9049(6) 0.75645(16)
C47 C 0.8370(3) 1.0075(6) 0.77449(19)
H37 H 0.8505 1.0798 0.7674
C48 C 0.8048(3) 1.0034(6) 0.80273(18)
H38 H 0.7952 1.0731 0.8139
C49 C 0.7864(2) 0.8947(5) 0.81480(15)
C50 C 0.7999(2) 0.7930(5) 0.79739(16)
H39 H 0.7882 0.7202 0.8055
C51 C 0.8310(3) 0.7976(6) 0.76753(17)
H40 H 0.8390 0.7285 0.7553
C52 C 0.7524(2) 0.8903(5) 0.84544(16)
C53 C 0.5626(3) 1.2650(6) 0.3534(2)
H41 H 0.5858 1.3153 0.3689
C54 C 0.4868(5) 1.3915(10) 0.3651(4)
C55 C 0.4701(3) 1.2192(9) 0.3214(3)
O1 O 0.79004(14) 0.9595(4) 0.64753(12)
O2 O 0.67546(17) 1.3333(3) 0.31979(12)
O3 O 0.7050(2) 1.0678(4) 0.57211(11)
O4 O 0.3321(3) 1.5479(4) 0.57113(14)
O5 O 0.59457(14) 1.0211(3) 0.62130(12)
O6 O 0.67627(19) 0.8999(3) 0.68791(11)
O7 O 0.68049(15) 1.0462(3) 0.39442(10)
O8 O 0.68387(19) 1.2363(3) 0.40417(10)
O9 O 0.39339(18) 1.3770(4) 0.62865(15)
O10 O 0.35027(15) 1.2272(4) 0.59815(11)
O11 O 0.66334(17) 0.4502(4) 0.79198(11)
O12 O 0.65486(16) 0.5989(4) 0.83115(10)
O13 O 0.88174(19) 0.8872(4) 0.59722(12)
O14 O 0.98287(15) 0.8650(4) 0.67472(14)
O15 O 0.88181(19) 0.9181(4) 0.72883(12)
O16 O 0.76476(16) 0.8485(4) 0.43092(12)
O17 O 0.7488(2) 0.6660(4) 0.44918(13)
O18 O 1.23779(15) 0.8466(4) 0.65676(12)
O19 O 1.22143(16) 1.0389(4) 0.64681(13)
O20 O 0.74270(19) 0.7938(4) 0.85982(12)
O21 O 0.73388(17) 0.9846(3) 0.85849(12)
O22 O 0.58461(16) 1.1797(4) 0.33954(12)
Mn1B Mn 0.28415(3) 1.12099(7) 0.62105(2)
Mn1C Mn 0.71585(3) 0.62099(7) 0.87895(2)
Mn1B_2 Mn 1.28415(3) 1.12099(7) 0.62105(2)
Mn2C Mn 0.67436(3) 0.34453(7) 0.84142(2)
Mn2B Mn 1.32564(3) 0.84453(7) 0.65858(2)
Mn3B Mn 0.69660(4) 0.60115(7) 0.40289(2)
Mn3A Mn 0.69660(4) 0.89885(7) 0.90289(2)
O10B O 0.64973(15) 0.7728(4) 0.40185(11)
O11C O 0.66334(17) 1.0498(4) 0.29198(11)
O12C O 0.65486(16) 0.9011(4) 0.33115(10)
O17B O 0.2512(2) 1.3340(4) 0.55082(13)
O18B O 0.76221(15) 1.1534(4) 0.34324(12)
O19B O 0.77857(16) 0.9611(4) 0.35319(13)
O20C O 0.74270(19) 0.7062(4) 0.35982(12)
O20A O 0.25730(19) 1.2938(4) 0.64018(12)
O21A O 0.26612(17) 1.4846(3) 0.64151(12)
N2 N 0.4972(3) -0.9961(6) 0.24300(19)
C56 C 0.4494(3) -1.0151(8) 0.2211(2)
H42 H 0.4406 -0.9658 0.2005
C57 C 0.5125(4) -1.0691(9) 0.2767(3)
H43 H 0.4817 -1.1199 0.2797
H44 H 0.5206 -1.0190 0.2982
H45 H 0.5446 -1.1162 0.2740
C58 C 0.5369(4) -0.9119(8) 0.2343(3)
H46 H 0.5217 -0.8681 0.2124
H47 H 0.5698 -0.9529 0.2296
H48 H 0.5461 -0.8584 0.2549
O23 O 0.4153(2) -1.0943(6) 0.22601(18)
N3 N 0.7202(5) -1.6938(11) 0.7135(4)
C59 C 0.7311(11) -1.6354(19) 0.6849(7)
H49 H 0.7629 -1.5974 0.6792
C60 C 0.6708(9) -1.7473(18) 0.7247(6)
H50 H 0.6423 -1.7533 0.7034
H51 H 0.6571 -1.7020 0.7440
H52 H 0.6809 -1.8251 0.7340
C61 C 0.7588(14) -1.696(3) 0.7480(9)
H53 H 0.7906 -1.6544 0.7412
H54 H 0.7695 -1.7744 0.7559
H55 H 0.7451 -1.6543 0.7681
O24 O 0.6773(7) -1.6506(12) 0.6657(4)
loop_
_geom_bond_atom_site_label_1
_geom_bond_atom_site_label_2
_geom_bond_site_symmetry_1
_geom_bond_site_symmetry_2
Mn1 O7 1_555 1_555
Mn2 O2 1_555 1_555
Mn3 O4 1_555 1_555
N1 C53 1_555 1_555
C1 C2 1_555 1_555
C2 H1 1_555 1_555
H2 C2 1_555 1_555
C3 C1 1_555 1_555
H3 C3 1_555 1_555
H4 C3 1_555 1_555
C4 C1 1_555 1_555
H5 C4 1_555 1_555
H6 C4 1_555 1_555
C5 C1 1_555 1_555
H7 C5 1_555 1_555
H8 C5 1_555 1_555
C6 C7 1_555 1_555
C7 H9 1_555 1_555
C8 C7 1_555 1_555
H10 C8 1_555 1_555
C9 C8 1_555 1_555
C10 C9 1_555 1_555
H11 C10 1_555 1_555
C11 C6 1_555 1_555
H12 C11 1_555 1_555
C12 C9 1_555 1_555
C13 C14 1_555 1_555
C14 H13 1_555 1_555
C15 C14 1_555 1_555
H14 C15 1_555 1_555
C16 C15 1_555 1_555
C17 C16 1_555 1_555
H15 C17 1_555 1_555
C18 C13 1_555 1_555
H16 C18 1_555 1_555
C19 C16 1_555 1_555
C20 C21 1_555 1_555
C21 H17 1_555 1_555
C22 C21 1_555 1_555
H18 C22 1_555 1_555
C23 C22 1_555 1_555
C24 C23 1_555 1_555
H19 C24 1_555 1_555
C25 C20 1_555 1_555
H20 C25 1_555 1_555
C26 C23 1_555 1_555
C27 H21 1_555 1_555
H22 C27 1_555 1_555
C28 C27 1_555 1_555
C29 C28 1_555 1_555
H23 C29 1_555 1_555
H24 C29 1_555 1_555
C30 C28 1_555 1_555
H25 C30 1_555 1_555
H26 C30 1_555 1_555
C31 C28 1_555 1_555
H27 C31 1_555 1_555
H28 C31 1_555 1_555
C32 C33 1_555 1_555
C33 H29 1_555 1_555
C34 C33 1_555 1_555
H30 C34 1_555 1_555
C35 C34 1_555 1_555
C36 C35 1_555 1_555
H31 C36 1_555 1_555
C37 C32 1_555 1_555
H32 C37 1_555 1_555
C38 C35 1_555 1_555
C39 C40 1_555 1_555
C40 H33 1_555 1_555
C41 C40 1_555 1_555
H34 C41 1_555 1_555
C42 C41 1_555 1_555
C43 C42 1_555 1_555
H35 C43 1_555 1_555
C44 C39 1_555 1_555
H36 C44 1_555 1_555
C45 C42 1_555 1_555
C46 C47 1_555 1_555
C47 H37 1_555 1_555
C48 C47 1_555 1_555
H38 C48 1_555 1_555
C49 C48 1_555 1_555
C50 C49 1_555 1_555
H39 C50 1_555 1_555
C51 C46 1_555 1_555
H40 C51 1_555 1_555
C52 C49 1_555 1_555
C53 H41 1_555 1_555
C54 N1 1_555 1_555
C55 N1 1_555 1_555
O1 C5 1_555 1_555
O3 C2 1_555 1_555
O5 C3 1_555 1_555
O6 C4 1_555 1_555
O7 Mn2 1_555 1_555
O8 Mn2 1_555 1_555
O9 Mn3 1_555 1_555
O10 Mn3 1_555 1_555
O11 C26 1_555 1_555
O12 C26 1_555 1_555
O13 C29 1_555 1_555
O14 C30 1_555 1_555
O15 C31 1_555 1_555
O16 Mn1 1_555 1_555
O17 C38 1_555 1_555
O18 C45 1_555 1_555
O19 C45 1_555 1_555
O20 C52 1_555 1_555
O21 C52 1_555 1_555
O22 Mn2 1_555 1_555
N2 C56 1_555 1_555
C56 H42 1_555 1_555
C57 N2 1_555 1_555
H43 C57 1_555 1_555
H44 C57 1_555 1_555
H45 C57 1_555 1_555
C58 N2 1_555 1_555
H46 C58 1_555 1_555
H47 C58 1_555 1_555
H48 C58 1_555 1_555
O23 C56 1_555 1_555
N3 C59 1_555 1_555
C59 H49 1_555 1_555
C60 N3 1_555 1_555
H50 C60 1_555 1_555
H51 C60 1_555 1_555
H52 C60 1_555 1_555
C61 N3 1_555 1_555
H53 C61 1_555 1_555
H54 C61 1_555 1_555
H55 C61 1_555 1_555
O24 C59 1_555 1_555
Mn1B O10 1_555 1_555
Mn1C O12 1_555 1_555
Mn1B_2 O19 1_555 1_555
Mn2C O11 1_555 1_555
Mn2B O18 1_555 1_555
Mn3B O17 1_555 1_555
Mn3A O20 1_555 1_555
O10B Mn1 1_555 1_555
O11C Mn2 1_555 1_555
O12C Mn1 1_555 1_555
O17B Mn3 1_555 1_555
O18B Mn2 1_555 1_555
O19B Mn1 1_555 1_555
O20C Mn1 1_555 1_555
O20A Mn3 1_555 1_555
O21A Mn3 1_555 1_555
C6 O3 1_555 1_555
C10 C11 1_555 1_555
C12 O7 1_555 1_555
C12 O8 1_555 1_555
C13 O5 1_555 1_555
C17 C18 1_555 1_555
C19 O9 1_555 1_555
C19 O10 1_555 1_555
C20 O6 1_555 1_555
C24 C25 1_555 1_555
C27 O1 1_555 1_555
C32 O13 1_555 1_555
C36 C37 1_555 1_555
C38 O16 1_555 1_555
C39 O14 1_555 1_555
C43 C44 1_555 1_555
C46 O15 1_555 1_555
C50 C51 1_555 1_555
C53 O22 1_555 1_555
O20 Mn1C 1_555 1_555
O21 Mn3A 1_555 1_555
Mn1B O20A 1_555 1_555
Mn3B O10B 1_555 1_555
Mn3B O20C 1_555 1_555

#END
