
#######################################################################
#
#                 Cambridge Crystallographic Data Centre
#                                CCDC 
#
#######################################################################
#
# If this CIF has been generated from an entry in the Cambridge 
# Structural Database, then it will include bibliographic, chemical, 
# crystal, experimental, refinement or atomic coordinate data resulting 
# from the CCDC's data processing and validation procedures.
#
#######################################################################

data_PEKDEQ
_chemical_formula_moiety         'C72 H73 Mn14 N5 O36'
_symmetry_cell_setting           monoclinic
_symmetry_space_group_name_H-M   'C 2/c'
_symmetry_Int_Tables_number      15
_space_group_name_Hall           '-C 2yc'
loop_
_symmetry_equiv_pos_site_id
_symmetry_equiv_pos_as_xyz
1 x,y,z
2 -x,y,1/2-z
3 1/2+x,1/2+y,z
4 1/2-x,1/2+y,1/2-z
5 -x,-y,-z
6 x,-y,1/2+z
7 1/2-x,1/2-y,-z
8 1/2+x,1/2-y,1/2+z
_cell_length_a                   24.000(3)
_cell_length_b                   11.0768(14)
_cell_length_c                   34.991(5)
_cell_angle_alpha                90
_cell_angle_beta                 99.660(2)
_cell_angle_gamma                90
_cell_volume                     9170.22
loop_
_atom_site_label
_atom_site_type_symbol
_atom_site_fract_x
_atom_site_fract_y
_atom_site_fract_z
_atom_site_U_iso_or_equiv
_atom_site_thermal_displace_type
N4 N 0.5998(7) 0.564(2) 0.3373(5) 0.2440 Uani
C34 C 0.6490(6) 0.4770(13) 0.3547(5) 0.2190 Uani
C35 C 0.6115(9) 0.6755(18) 0.3672(7) 0.3287 Uani
H33 H 0.5843 0.7390 0.3609 0.4980 Uiso
H34 H 0.6097 0.6452 0.3927 0.4980 Uiso
H35 H 0.6487 0.7063 0.3665 0.4980 Uiso
C36 C 0.5738(11) 0.4388(17) 0.2961(5) 0.2820 Uani
O14 O 0.5383(9) 0.660(2) 0.3111(7) 0.4793 Uani
C41 C 0.562(3) 0.527(3) 0.3069(16) 0.4921 Uani
Mn1 Mn 0.67387(3) 0.53518(6) 0.505186(18) 0.0543 Uani
Mn2 Mn 0.7458(16) 0.256(4) 0.4987(13) 0.0361 Uani
N1 N 0.59650(18) 0.8785(4) 0.51968(14) 0.0764 Uani
C1 C 0.77511(17) 0.4360(4) 0.61449(11) 0.0486 Uani
C2 C 0.79659(19) 0.3389(4) 0.63604(12) 0.0591 Uani
H1 H 0.7933 0.2628 0.6247 0.0710 Uiso
C3 C 0.8230(2) 0.3494(4) 0.67405(12) 0.0617 Uani
H2 H 0.8366 0.2813 0.6882 0.0740 Uiso
C4 C 0.8288(2) 0.4617(4) 0.69068(11) 0.0588 Uani
C5 C 0.8069(3) 0.5604(5) 0.66949(15) 0.0973 Uani
H3 H 0.8096 0.6365 0.6809 0.1170 Uiso
C6 C 0.7814(3) 0.5476(5) 0.63223(14) 0.0881 Uani
H4 H 0.7678 0.6158 0.6182 0.1060 Uiso
C7 C 0.88705(18) 0.3906(4) 0.74925(11) 0.0530 Uani
H5 H 0.8623 0.3313 0.7581 0.0640 Uiso
H6 H 0.9106 0.3504 0.7332 0.0640 Uiso
C8 C 0.92372(17) 0.4523(4) 0.78396(11) 0.0474 Uani
C9 C 0.96422(19) 0.5406(4) 0.76973(12) 0.0562 Uani
H7 H 0.9862 0.5830 0.7914 0.0670 Uiso
H8 H 0.9434 0.5996 0.7524 0.0670 Uiso
C10 C 0.8874(2) 0.5196(4) 0.80835(12) 0.0600 Uani
H9 H 0.8664 0.5834 0.7933 0.0720 Uiso
H10 H 0.9108 0.5555 0.8308 0.0720 Uiso
C11 C 0.95557(18) 0.3513(4) 0.80827(11) 0.0548 Uani
H11 H 0.9763 0.3023 0.7925 0.0660 Uiso
H12 H 0.9293 0.2998 0.8190 0.0660 Uiso
C12 C 1.02292(17) 0.3386(4) 0.86686(11) 0.0516 Uani
C13 C 1.0667(2) 0.3930(4) 0.89057(14) 0.0690 Uani
H13 H 1.0751 0.4733 0.8864 0.0830 Uiso
C14 C 1.09846(19) 0.3313(5) 0.92043(13) 0.0667 Uani
H14 H 1.1284 0.3700 0.9360 0.0800 Uiso
C15 C 1.08681(17) 0.2138(5) 0.92763(12) 0.0578 Uani
C16 C 1.1224(2) 0.1404(7) 0.95926(14) 0.0743 Uani
C17 C 1.0425(2) 0.1583(5) 0.90371(16) 0.0825 Uani
H15 H 1.0337 0.0782 0.9080 0.0990 Uiso
C18 C 1.0109(2) 0.2214(5) 0.87329(16) 0.0806 Uani
H16 H 0.9814 0.1832 0.8572 0.0960 Uiso
C19 C 0.74810(17) 0.4238(4) 0.57305(11) 0.0469 Uani
C20 C 0.62771(19) 0.8034(5) 0.50276(14) 0.0661 Uani
C21 C 0.6514(2) 0.8467(5) 0.46826(15) 0.0796 Uani
H17 H 0.6730 0.7831 0.4591 0.1190 Uiso
H18 H 0.6211 0.8697 0.4481 0.1190 Uiso
H19 H 0.6755 0.9151 0.4755 0.1190 Uiso
C22 C 0.5853(3) 1.0033(5) 0.5076(2) 0.1045 Uani
H20 H 0.6039 1.0210 0.4860 0.1570 Uiso
H21 H 0.5453 1.0149 0.5001 0.1570 Uiso
H22 H 0.5992 1.0563 0.5288 0.1570 Uiso
C23 C 0.5720(2) 0.8362(6) 0.55234(18) 0.0965 Uani
H23 H 0.5817 0.7529 0.5573 0.1450 Uiso
H24 H 0.5863 0.8834 0.5748 0.1450 Uiso
H25 H 0.5316 0.8442 0.5466 0.1450 Uiso
C24 C 0.7583(2) 0.4936(5) 0.95696(13) 0.0597 Uani
C25 C 0.78237(18) 0.4789(4) 0.92048(12) 0.0521 Uani
C26 C 0.7820(2) 0.3691(4) 0.90201(14) 0.0650 Uani
H26 H 0.7666 0.3023 0.9125 0.0780 Uiso
C27 C 0.8275(2) 0.4548(4) 0.85315(12) 0.0595 Uani
C28 C 0.8282(2) 0.5666(4) 0.87074(13) 0.0682 Uani
H27 H 0.8433 0.6335 0.8601 0.0820 Uiso
C29 C 0.8038(2) 0.3562(4) 0.86848(14) 0.0691 Uani
H28 H 0.8027 0.2816 0.8561 0.0830 Uiso
C30 C 0.8056(2) 0.5765(4) 0.90481(13) 0.0638 Uani
H29 H 0.8064 0.6509 0.9172 0.0770 Uiso
O1 O 0.85449(15) 0.4852(3) 0.72782(8) 0.0738 Uani
O2 O 0.84937(14) 0.4334(3) 0.82037(9) 0.0757 Uani
O3 O 0.99356(14) 0.4086(3) 0.83865(9) 0.0695 Uani
O4 O 1.0000 0.4721(4) 0.7500 0.0646 Uani
O5 O 0.75050(13) 0.3242(3) 0.55702(7) 0.0574 Uani
O6 O 0.72506(14) 0.5173(3) 0.55694(8) 0.0644 Uani
O7 O 0.63678(14) 0.6986(3) 0.51510(10) 0.0744 Uani
O8 O 0.72513(15) 0.4130(3) 0.96501(10) 0.0760 Uani
O9 O 1.11142(18) 0.0323(4) 0.96194(13) 0.0995 Uani
O10 O 1.16083(14) 0.1942(4) 0.98152(10) 0.0949 Uani
O11 O 0.77270(17) 0.5834(3) 0.97762(9) 0.0765 Uani
O12 O 0.6052(3) 0.4626(7) 0.5422(2) 0.1876 Uani
N2 N 0.5487(4) 0.3475(9) 0.5698(4) 0.2080 Uani
C31 C 0.5876(14) 0.430(2) 0.5706(12) 0.5706 Uani
C32 C 0.5095(9) 0.323(3) 0.5371(13) 0.8997 Uani
H30 H 0.5183 0.3687 0.5156 1.3540 Uiso
H31 H 0.5107 0.2380 0.5312 1.3540 Uiso
H32 H 0.4724 0.3435 0.5417 1.3540 Uiso
C33 C 0.5397(8) 0.2938(18) 0.6069(8) 0.3764 Uani
C42 C 0.600(2) 0.430(4) 0.6027(13) 0.5000 Uiso
Mn1A Mn 1.32613(3) 0.53518(6) 0.994814(18) 0.0543 Uani
Mn1E Mn 0.67387(3) 0.46482(6) 1.005186(18) 0.0543 Uani
Mn1G Mn 1.17387(3) -0.03518(6) 1.005186(18) 0.0543 Uani
Mn1D Mn 1.32613(3) 0.46482(6) 0.494814(18) 0.0543 Uani
Mn1F Mn 0.82613(3) -0.03518(6) 0.494814(18) 0.0543 Uani
Mn2A Mn 1.2542(16) 0.256(4) 1.0013(13) 0.0361 Uani
Mn2F Mn 0.7542(16) 0.244(4) 0.5013(13) 0.0361 Uani
Mn2G Mn 1.2458(16) 0.244(4) 0.9987(13) 0.0361 Uani
Mn2C Mn 0.7542(16) 0.756(4) 1.0013(13) 0.0361 Uani
Mn2E Mn 0.7458(16) 0.744(4) 0.9987(13) 0.0361 Uani
Mn2B Mn 1.2458(16) 0.756(4) 0.4987(13) 0.0361 Uani
Mn2D Mn 1.2542(16) 0.744(4) 0.5013(13) 0.0361 Uani
N1A N 1.40350(18) 0.8785(4) 0.98032(14) 0.0764 Uani
C1A C 1.22489(17) 0.4360(4) 0.88551(11) 0.0486 Uani
C2A C 1.20341(19) 0.3389(4) 0.86396(12) 0.0591 Uani
H1A H 1.2067 0.2628 0.8753 0.0710 Uiso
C3A C 1.1770(2) 0.3494(4) 0.82595(12) 0.0617 Uani
H2A H 1.1634 0.2813 0.8118 0.0740 Uiso
C4A C 1.1712(2) 0.4617(4) 0.80932(11) 0.0588 Uani
C5A C 1.1931(3) 0.5604(5) 0.83051(15) 0.0973 Uani
H3A H 1.1904 0.6365 0.8191 0.1170 Uiso
C6A C 1.2186(3) 0.5476(5) 0.86777(14) 0.0881 Uani
H4A H 1.2322 0.6158 0.8818 0.1060 Uiso
C7A C 1.11295(18) 0.3906(4) 0.75075(11) 0.0530 Uani
H5A H 1.1377 0.3313 0.7419 0.0640 Uiso
H6A H 1.0894 0.3504 0.7668 0.0640 Uiso
C8A C 1.07628(17) 0.4523(4) 0.71604(11) 0.0474 Uani
C9A C 1.03578(19) 0.5406(4) 0.73027(12) 0.0562 Uani
H7A H 1.0138 0.5830 0.7086 0.0670 Uiso
H8A H 1.0566 0.5996 0.7476 0.0670 Uiso
C10A C 1.1126(2) 0.5196(4) 0.69165(12) 0.0600 Uani
H9A H 1.1336 0.5834 0.7067 0.0720 Uiso
H10A H 1.0892 0.5555 0.6692 0.0720 Uiso
C11A C 1.04443(18) 0.3513(4) 0.69173(11) 0.0548 Uani
H11A H 1.0237 0.3023 0.7075 0.0660 Uiso
H12A H 1.0707 0.2998 0.6810 0.0660 Uiso
C12A C 0.97708(17) 0.3386(4) 0.63314(11) 0.0516 Uani
C13A C 0.9333(2) 0.3930(4) 0.60943(14) 0.0690 Uani
H13A H 0.9249 0.4733 0.6136 0.0830 Uiso
C14A C 0.90154(19) 0.3313(5) 0.57957(13) 0.0667 Uani
H14A H 0.8716 0.3700 0.5640 0.0800 Uiso
C15A C 0.91319(17) 0.2138(5) 0.57237(12) 0.0578 Uani
C16A C 0.8776(2) 0.1404(7) 0.54074(14) 0.0743 Uani
C17A C 0.9575(2) 0.1583(5) 0.59629(16) 0.0825 Uani
H15A H 0.9663 0.0782 0.5920 0.0990 Uiso
C18A C 0.9891(2) 0.2214(5) 0.62671(16) 0.0806 Uani
H16A H 1.0186 0.1832 0.6428 0.0960 Uiso
C19A C 1.25190(17) 0.4238(4) 0.92695(11) 0.0469 Uani
C20A C 1.37229(19) 0.8034(5) 0.99724(14) 0.0661 Uani
C21A C 1.3486(2) 0.8467(5) 1.03174(15) 0.0796 Uani
H17A H 1.3270 0.7831 1.0409 0.1190 Uiso
H18A H 1.3789 0.8697 1.0519 0.1190 Uiso
H19A H 1.3245 0.9151 1.0245 0.1190 Uiso
C22A C 1.4147(3) 1.0033(5) 0.9924(2) 0.1045 Uani
H20A H 1.3961 1.0210 1.0140 0.1570 Uiso
H21A H 1.4547 1.0149 0.9999 0.1570 Uiso
H22A H 1.4008 1.0563 0.9712 0.1570 Uiso
C23A C 1.4280(2) 0.8362(6) 0.94766(18) 0.0965 Uani
H23A H 1.4183 0.7529 0.9427 0.1450 Uiso
H24A H 1.4137 0.8834 0.9252 0.1450 Uiso
H25A H 1.4684 0.8442 0.9534 0.1450 Uiso
C24A C 1.2417(2) 0.4936(5) 0.54304(13) 0.0597 Uani
C25A C 1.21763(18) 0.4789(4) 0.57952(12) 0.0521 Uani
C26A C 1.2180(2) 0.3691(4) 0.59799(14) 0.0650 Uani
H26A H 1.2334 0.3023 0.5875 0.0780 Uiso
C27A C 1.1725(2) 0.4548(4) 0.64685(12) 0.0595 Uani
C28A C 1.1718(2) 0.5666(4) 0.62926(13) 0.0682 Uani
H27A H 1.1567 0.6335 0.6399 0.0820 Uiso
C29A C 1.1962(2) 0.3562(4) 0.63152(14) 0.0691 Uani
H28A H 1.1973 0.2816 0.6439 0.0830 Uiso
C30A C 1.1944(2) 0.5765(4) 0.59519(13) 0.0638 Uani
H29A H 1.1936 0.6509 0.5828 0.0770 Uiso
O1A O 1.14551(15) 0.4852(3) 0.77218(8) 0.0738 Uani
O2A O 1.15063(14) 0.4334(3) 0.67963(9) 0.0757 Uani
O3A O 1.00644(14) 0.4086(3) 0.66135(9) 0.0695 Uani
O5A O 1.24950(13) 0.3242(3) 0.94298(7) 0.0574 Uani
O5F O 0.74950(13) 0.1758(3) 0.44298(7) 0.0574 Uani
O5G O 1.25050(13) 0.1758(3) 1.05702(7) 0.0574 Uani
O6A O 1.27494(14) 0.5173(3) 0.94306(8) 0.0644 Uani
O7A O 1.36322(14) 0.6986(3) 0.98490(10) 0.0744 Uani
O8A O 1.27487(15) 0.4130(3) 0.53499(10) 0.0760 Uani
O8E O 0.72513(15) 0.5870(3) 0.46501(10) 0.0760 Uani
O8D O 1.27487(15) 0.5870(3) 1.03499(10) 0.0760 Uani
O9A O 0.88858(18) 0.0323(4) 0.53806(13) 0.0995 Uani
O9G O 0.61142(18) 0.4677(4) 0.46194(13) 0.0995 Uani
O9F O 1.38858(18) 0.4677(4) 1.03806(13) 0.0995 Uani
O10A O 0.83917(14) 0.1942(4) 0.51848(10) 0.0949 Uani
O10G O 0.66083(14) 0.3058(4) 0.48152(10) 0.0949 Uani
O10F O 1.33917(14) 0.3058(4) 1.01848(10) 0.0949 Uani
O11A O 1.22730(17) 0.5834(3) 0.52238(9) 0.0765 Uani
O11C O 0.72730(17) 0.0834(3) 0.52238(9) 0.0765 Uani
O11E O 0.77270(17) 0.4166(3) 0.47762(9) 0.0765 Uani
O11B O 1.27270(17) 0.0834(3) 0.97762(9) 0.0765 Uani
O11D O 1.22730(17) 0.4166(3) 1.02238(9) 0.0765 Uani
O12A O 1.3948(3) 0.4626(7) 0.9578(2) 0.1876 Uani
N2A N 1.4513(4) 0.3475(9) 0.9302(4) 0.2080 Uani
C31A C 1.4124(14) 0.430(2) 0.9294(12) 0.5706 Uani
C32A C 1.4905(9) 0.323(3) 0.9629(13) 0.8997 Uani
H30A H 1.4817 0.3687 0.9844 1.3540 Uiso
H31A H 1.4893 0.2380 0.9688 1.3540 Uiso
H32A H 1.5276 0.3435 0.9583 1.3540 Uiso
C33A C 1.4603(8) 0.2938(18) 0.8931(8) 0.3764 Uani
C42A C 1.400(2) 0.430(4) 0.8973(13) 0.5000 Uiso
loop_
_atom_site_aniso_label
_atom_site_aniso_U_11
_atom_site_aniso_U_22
_atom_site_aniso_U_33
_atom_site_aniso_U_23
_atom_site_aniso_U_13
_atom_site_aniso_U_12
N4 0.223(14) 0.32(3) 0.205(13) 0.022(13) 0.082(11) -0.084(16)
C34 0.168(11) 0.231(14) 0.243(15) 0.036(11) -0.009(11) 0.056(10)
C35 0.29(2) 0.29(2) 0.43(3) -0.09(2) 0.13(2) -0.066(18)
C36 0.45(3) 0.185(15) 0.186(14) 0.014(12) -0.019(17) -0.012(18)
O14 0.42(2) 0.44(3) 0.57(3) 0.15(3) 0.06(3) 0.14(2)
C41 0.73(8) 0.17(2) 0.61(7) 0.11(3) 0.21(6) 0.10(4)
Mn1 0.0677 0.0556 0.0341 -0.0038 -0.0073 0.0092
Mn2 0.043 0.04 0.022 0.004 -0.004 0.006
N1 0.069 0.076 0.085 -0.01 0.015 0.009
C1 0.054 0.062 0.028 -0.0046 0.002 0.006
C2 0.078 0.056 0.038 -0.004 -0.006 0.001
C3 0.088 0.057 0.034 0.006 -0.007 0.01
C4 0.075 0.071 0.026 -0.007 -0.004 0.022
C5 0.15 0.075 0.049 -0.024 -0.035 0.046
C6 0.141 0.065 0.044 -0.007 -0.026 0.04
C7 0.059 0.07 0.028 -0.0041 0.0014 0.012
C8 0.054 0.064 0.024 -0.0022 0.0057 0.008
C9 0.071 0.062 0.036 -0.0004 0.01 0.005
C10 0.075 0.074 0.031 -0.007 0.009 0.003
C11 0.064 0.065 0.031 -0.0007 -0.005 -0.002
C12 0.05 0.066 0.034 0.002 -0.0072 -0.004
C13 0.074 0.07 0.056 0.005 -0.009 -0.019
C14 0.055 0.09 0.049 -0.004 -0.009 -0.014
C15 0.043 0.087 0.04 0.007 -0.003 0
C16 0.047 0.133 0.042 0.017 0.005 0.009
C17 0.075 0.076 0.082 0.015 -0.029 -0.008
C18 0.069 0.085 0.072 0.007 -0.034 -0.018
C19 0.048 0.063 0.029 -0.002 0.0044 -0.003
C20 0.052 0.078 0.066 -0.013 0.003 -0.004
C21 0.083 0.087 0.069 -0.001 0.013 -0.005
C22 0.097 0.07 0.146 0.002 0.019 0.031
C23 0.083 0.12 0.092 -0.005 0.031 0.016
C24 0.073 0.067 0.042 0.004 0.018 0.017
C25 0.06 0.057 0.041 -0.001 0.013 0.006
C26 0.076 0.064 0.06 -0.009 0.026 -0.005
C27 0.069 0.074 0.037 -0.013 0.013 0.008
C28 0.098 0.063 0.05 0.001 0.031 0.007
C29 0.084 0.064 0.065 -0.022 0.029 -0.012
C30 0.095 0.05 0.051 -0.005 0.026 0.009
O1 0.098 0.082 0.031 -0.0128 -0.0191 0.0343
O2 0.082 0.098 0.055 -0.0306 0.0346 -0.0188
O3 0.079 0.069 0.0501 0.006 -0.0189 -0.0073
O4 0.076 0.065 0.061 0 0.035 0
O5 0.079 0.0609 0.0289 -0.0056 -0.0008 0.001
O6 0.083 0.071 0.0337 -0.0006 -0.0065 0.0135
O7 0.09 0.062 0.074 -0.0009 0.0223 0.0168
O8 0.085 0.089 0.059 0.0011 0.0266 -0.009
O9 0.094 0.101 0.094 0.034 -0.012 0.015
O10 0.0501 0.18 0.048 0.021 -0.011 -0.011
O11 0.13 0.0594 0.0475 -0.0043 0.0367 0.016
O12 0.167 0.215 0.186 -0.029 0.045 -0.027
N2 0.162 0.179 0.328 0.054 0.171 0.015
C31 0.55 0.41 0.94 0.47 0.67 0.31
C32 0.172 1.16 1.26 -1.04 -0.19 0.14
C33 0.31 0.3 0.6 0.15 0.31 0.008
Mn1A 0.0677 0.0556 0.0341 0.0038 -0.0073 -0.0092
Mn1E 0.0677 0.0556 0.0341 0.0038 -0.0073 -0.0092
Mn1G 0.0677 0.0556 0.0341 0.0038 -0.0073 -0.0092
Mn1D 0.0677 0.0556 0.0341 -0.0038 -0.0073 0.0092
Mn1F 0.0677 0.0556 0.0341 -0.0038 -0.0073 0.0092
Mn2A 0.043 0.04 0.022 -0.004 -0.004 -0.006
Mn2F 0.043 0.04 0.022 0.004 -0.004 0.006
Mn2G 0.043 0.04 0.022 -0.004 -0.004 -0.006
Mn2C 0.043 0.04 0.022 -0.004 -0.004 -0.006
Mn2E 0.043 0.04 0.022 -0.004 -0.004 -0.006
Mn2B 0.043 0.04 0.022 0.004 -0.004 0.006
Mn2D 0.043 0.04 0.022 0.004 -0.004 0.006
N1A 0.069 0.076 0.085 0.01 0.015 -0.009
C1A 0.054 0.062 0.028 0.0046 0.002 -0.006
C2A 0.078 0.056 0.038 0.004 -0.006 -0.001
C3A 0.088 0.057 0.034 -0.006 -0.007 -0.01
C4A 0.075 0.071 0.026 0.007 -0.004 -0.022
C5A 0.15 0.075 0.049 0.024 -0.035 -0.046
C6A 0.141 0.065 0.044 0.007 -0.026 -0.04
C7A 0.059 0.07 0.028 0.0041 0.0014 -0.012
C8A 0.054 0.064 0.024 0.0022 0.0057 -0.008
C9A 0.071 0.062 0.036 0.0004 0.01 -0.005
C10A 0.075 0.074 0.031 0.007 0.009 -0.003
C11A 0.064 0.065 0.031 0.0007 -0.005 0.002
C12A 0.05 0.066 0.034 -0.002 -0.0072 0.004
C13A 0.074 0.07 0.056 -0.005 -0.009 0.019
C14A 0.055 0.09 0.049 0.004 -0.009 0.014
C15A 0.043 0.087 0.04 -0.007 -0.003 0
C16A 0.047 0.133 0.042 -0.017 0.005 -0.009
C17A 0.075 0.076 0.082 -0.015 -0.029 0.008
C18A 0.069 0.085 0.072 -0.007 -0.034 0.018
C19A 0.048 0.063 0.029 0.002 0.0044 0.003
C20A 0.052 0.078 0.066 0.013 0.003 0.004
C21A 0.083 0.087 0.069 0.001 0.013 0.005
C22A 0.097 0.07 0.146 -0.002 0.019 -0.031
C23A 0.083 0.12 0.092 0.005 0.031 -0.016
C24A 0.073 0.067 0.042 -0.004 0.018 -0.017
C25A 0.06 0.057 0.041 0.001 0.013 -0.006
C26A 0.076 0.064 0.06 0.009 0.026 0.005
C27A 0.069 0.074 0.037 0.013 0.013 -0.008
C28A 0.098 0.063 0.05 -0.001 0.031 -0.007
C29A 0.084 0.064 0.065 0.022 0.029 0.012
C30A 0.095 0.05 0.051 0.005 0.026 -0.009
O1A 0.098 0.082 0.031 0.0128 -0.0191 -0.0343
O2A 0.082 0.098 0.055 0.0306 0.0346 0.0188
O3A 0.079 0.069 0.0501 -0.006 -0.0189 0.0073
O5A 0.079 0.0609 0.0289 0.0056 -0.0008 -0.001
O5F 0.079 0.0609 0.0289 -0.0056 -0.0008 0.001
O5G 0.079 0.0609 0.0289 0.0056 -0.0008 -0.001
O6A 0.083 0.071 0.0337 0.0006 -0.0065 -0.0135
O7A 0.09 0.062 0.074 0.0009 0.0223 -0.0168
O8A 0.085 0.089 0.059 -0.0011 0.0266 0.009
O8E 0.085 0.089 0.059 -0.0011 0.0266 0.009
O8D 0.085 0.089 0.059 0.0011 0.0266 -0.009
O9A 0.094 0.101 0.094 -0.034 -0.012 -0.015
O9G 0.094(3) 0.101(3) 0.094(3) -0.034(2) -0.012(2) -0.015(2)
O9F 0.094 0.101 0.094 0.034 -0.012 0.015
O10A 0.0501 0.18 0.048 -0.021 -0.011 0.011
O10G 0.0501(19) 0.180(4) 0.048(2) -0.021(2) -0.0110(17) 0.011(2)
O10F 0.0501 0.18 0.048 0.021 -0.011 -0.011
O11A 0.13 0.0594 0.0475 0.0043 0.0367 -0.016
O11C 0.13 0.0594 0.0475 0.0043 0.0367 -0.016
O11E 0.13 0.0594 0.0475 0.0043 0.0367 -0.016
O11B 0.13 0.0594 0.0475 -0.0043 0.0367 0.016
O11D 0.13 0.0594 0.0475 -0.0043 0.0367 0.016
O12A 0.167 0.215 0.186 0.029 0.045 0.027
N2A 0.162 0.179 0.328 -0.054 0.171 -0.015
C31A 0.55 0.41 0.94 -0.47 0.67 -0.31
C32A 0.172 1.16 1.26 1.04 -0.19 -0.14
C33A 0.31 0.3 0.6 -0.15 0.31 -0.008
loop_
_geom_bond_atom_site_label_1
_geom_bond_atom_site_label_2
_geom_bond_site_symmetry_1
_geom_bond_site_symmetry_2
Mn1 O6 1_555 1_555
Mn2 O5 1_555 1_555
N1 C20 1_555 1_555
C1 C2 1_555 1_555
C2 H1 1_555 1_555
C3 C2 1_555 1_555
H2 C3 1_555 1_555
C4 C3 1_555 1_555
C5 C4 1_555 1_555
H3 C5 1_555 1_555
C6 C1 1_555 1_555
H4 C6 1_555 1_555
C7 H5 1_555 1_555
H6 C7 1_555 1_555
C8 C7 1_555 1_555
C9 C8 1_555 1_555
H7 C9 1_555 1_555
H8 C9 1_555 1_555
C10 C8 1_555 1_555
H9 C10 1_555 1_555
H10 C10 1_555 1_555
C11 C8 1_555 1_555
H11 C11 1_555 1_555
H12 C11 1_555 1_555
C12 C13 1_555 1_555
C13 H13 1_555 1_555
C14 C13 1_555 1_555
H14 C14 1_555 1_555
C15 C14 1_555 1_555
C16 C15 1_555 1_555
C17 C15 1_555 1_555
H15 C17 1_555 1_555
C18 C12 1_555 1_555
H16 C18 1_555 1_555
C19 C1 1_555 1_555
C20 C21 1_555 1_555
C21 H17 1_555 1_555
H18 C21 1_555 1_555
H19 C21 1_555 1_555
C22 N1 1_555 1_555
H20 C22 1_555 1_555
H21 C22 1_555 1_555
H22 C22 1_555 1_555
C23 N1 1_555 1_555
H23 C23 1_555 1_555
H24 C23 1_555 1_555
H25 C23 1_555 1_555
C24 C25 1_555 1_555
C25 C26 1_555 1_555
C26 H26 1_555 1_555
C27 C28 1_555 1_555
C28 H27 1_555 1_555
C29 C26 1_555 1_555
H28 C29 1_555 1_555
C30 C25 1_555 1_555
H29 C30 1_555 1_555
O1 C4 1_555 1_555
O2 C10 1_555 1_555
O3 C11 1_555 1_555
O4 C9 1_555 1_555
O5 C19 1_555 1_555
O6 C19 1_555 1_555
O7 Mn1 1_555 1_555
O8 C24 1_555 1_555
O9 C16 1_555 1_555
O10 C16 1_555 1_555
O11 C24 1_555 1_555
O12 Mn1 1_555 1_555
N2 C31 1_555 1_555
C31 O12 1_555 1_555
C32 N2 1_555 1_555
H30 C32 1_555 1_555
H31 C32 1_555 1_555
H32 C32 1_555 1_555
C33 N2 1_555 1_555
N4 C34 1_555 1_555
C35 N4 1_555 1_555
H33 C35 1_555 1_555
H34 C35 1_555 1_555
H35 C35 1_555 1_555
C36 C41 1_555 1_555
O14 C41 1_555 1_555
C41 N4 1_555 1_555
C42 C31 1_555 1_555
Mn1A O6A 1_555 1_555
Mn1E O8 1_555 1_555
Mn1G O9 1_555 1_555
Mn1D O8A 1_555 1_555
Mn1F O9A 1_555 1_555
Mn2A O10 1_555 1_555
Mn2F Mn2 1_555 1_555
Mn2G O10 1_555 1_555
Mn2C O11 1_555 1_555
Mn2E O11 1_555 1_555
Mn2B Mn2D 1_555 1_555
Mn2D O11A 1_555 1_555
N1A C20A 1_555 1_555
C1A C2A 1_555 1_555
C2A H1A 1_555 1_555
C3A C2A 1_555 1_555
H2A C3A 1_555 1_555
C4A C3A 1_555 1_555
C5A C4A 1_555 1_555
H3A C5A 1_555 1_555
C6A C1A 1_555 1_555
H4A C6A 1_555 1_555
C7A H5A 1_555 1_555
H6A C7A 1_555 1_555
C8A C7A 1_555 1_555
C9A O4 1_555 1_555
H7A C9A 1_555 1_555
H8A C9A 1_555 1_555
C10A C8A 1_555 1_555
H9A C10A 1_555 1_555
H10A C10A 1_555 1_555
C11A C8A 1_555 1_555
H11A C11A 1_555 1_555
H12A C11A 1_555 1_555
C12A C13A 1_555 1_555
C13A H13A 1_555 1_555
C14A C13A 1_555 1_555
H14A C14A 1_555 1_555
C15A C14A 1_555 1_555
C16A C15A 1_555 1_555
C17A C15A 1_555 1_555
H15A C17A 1_555 1_555
C18A C12A 1_555 1_555
H16A C18A 1_555 1_555
C19A C1A 1_555 1_555
C20A C21A 1_555 1_555
C21A H17A 1_555 1_555
H18A C21A 1_555 1_555
H19A C21A 1_555 1_555
C22A N1A 1_555 1_555
H20A C22A 1_555 1_555
H21A C22A 1_555 1_555
H22A C22A 1_555 1_555
C23A N1A 1_555 1_555
H23A C23A 1_555 1_555
H24A C23A 1_555 1_555
H25A C23A 1_555 1_555
C24A C25A 1_555 1_555
C25A C26A 1_555 1_555
C26A H26A 1_555 1_555
C27A C28A 1_555 1_555
C28A H27A 1_555 1_555
C29A C26A 1_555 1_555
H28A C29A 1_555 1_555
C30A C25A 1_555 1_555
H29A C30A 1_555 1_555
O1A C4A 1_555 1_555
O2A C10A 1_555 1_555
O3A C11A 1_555 1_555
O5A Mn2A 1_555 1_555
O5F Mn2 1_555 1_555
O5G Mn2A 1_555 1_555
O6A C19A 1_555 1_555
O7A Mn1A 1_555 1_555
O8A C24A 1_555 1_555
O8E Mn1 1_555 1_555
O8D Mn1A 1_555 1_555
O9A C16A 1_555 1_555
O9G Mn1 1_555 1_555
O9F Mn1A 1_555 1_555
O10A Mn2 1_555 1_555
O10G Mn2 1_555 1_555
O10F Mn2A 1_555 1_555
O11A Mn2B 1_555 1_555
O11C Mn2 1_555 1_555
O11E Mn2 1_555 1_555
O11B Mn2A 1_555 1_555
O11D Mn2A 1_555 1_555
O12A Mn1A 1_555 1_555
N2A C31A 1_555 1_555
C31A O12A 1_555 1_555
C32A N2A 1_555 1_555
H30A C32A 1_555 1_555
H31A C32A 1_555 1_555
H32A C32A 1_555 1_555
C33A N2A 1_555 1_555
C42A C31A 1_555 1_555
C5 C6 1_555 1_555
C7 O1 1_555 1_555
C12 O3 1_555 1_555
C17 C18 1_555 1_555
C20 O7 1_555 1_555
C27 C29 1_555 1_555
C27 O2 1_555 1_555
C28 C30 1_555 1_555
O5 Mn2F 1_555 1_555
Mn2A Mn2G 1_555 1_555
Mn2F O5F 1_555 1_555
Mn2F O10A 1_555 1_555
Mn2F O10G 1_555 1_555
Mn2F O11C 1_555 1_555
Mn2F O11E 1_555 1_555
Mn2G O5A 1_555 1_555
Mn2G O5G 1_555 1_555
Mn2G O10F 1_555 1_555
Mn2G O11B 1_555 1_555
Mn2G O11D 1_555 1_555
Mn2C Mn2E 1_555 1_555
C5A C6A 1_555 1_555
C7A O1A 1_555 1_555
C8A C9A 1_555 1_555
C12A O3A 1_555 1_555
C16A O10A 1_555 1_555
C17A C18A 1_555 1_555
C19A O5A 1_555 1_555
C20A O7A 1_555 1_555
C24A O11A 1_555 1_555
C27A C29A 1_555 1_555
C27A O2A 1_555 1_555
C28A C30A 1_555 1_555

#END
