
#######################################################################
#
#                 Cambridge Crystallographic Data Centre
#                                CCDC 
#
#######################################################################
#
# If this CIF has been generated from an entry in the Cambridge 
# Structural Database, then it will include bibliographic, chemical, 
# crystal, experimental, refinement or atomic coordinate data resulting 
# from the CCDC's data processing and validation procedures.
#
#######################################################################

data_VEQBID
_chemical_formula_moiety         '(C16 H36 N4 Ni5 O25)n'
_symmetry_cell_setting           tetragonal
_symmetry_space_group_name_H-M   'P 41 21 2'
_symmetry_Int_Tables_number      92
_space_group_name_Hall           'P 4abw 2nw'
loop_
_symmetry_equiv_pos_site_id
_symmetry_equiv_pos_as_xyz
1 x,y,z
2 -x,-y,1/2+z
3 1/2-y,1/2+x,1/4+z
4 1/2+y,1/2-x,3/4+z
5 1/2-x,1/2+y,1/4-z
6 1/2+x,1/2-y,3/4-z
7 y,x,-z
8 -y,-x,1/2-z
_cell_length_a                   18.186(7)
_cell_length_b                   18.186(7)
_cell_length_c                   11.706(6)
_cell_angle_alpha                90
_cell_angle_beta                 90
_cell_angle_gamma                90
_cell_volume                     3871.53
loop_
_atom_site_label
_atom_site_type_symbol
_atom_site_fract_x
_atom_site_fract_y
_atom_site_fract_z
Ni1 Ni 0.45711(19) 0.06060(19) -0.1609(3)
Ni2 Ni 0.4069(2) 0.12424(19) 0.0640(3)
Ni3 Ni 0.2556(2) 0.2556(2) 0.0000
O1 O 0.4861(10) 0.1486(9) -0.0546(13)
O2 O 0.6088(11) 0.1645(13) -0.0583(16)
O3 O 0.5813(9) 0.0279(8) 0.2517(13)
O4 O 0.4850(10) 0.0568(11) 0.1469(14)
O5 O 0.3283(9) 0.1755(9) -0.0439(14)
O6 O 0.3689(9) 0.1209(10) -0.2094(13)
O7 O 0.3041(13) 0.3199(13) -0.1186(16)
O8 O 0.345(2) 0.3660(19) -0.282(3)
O9 O 0.5293(9) 0.1023(8) -0.2732(13)
N1 N 0.4622(14) 0.2114(11) 0.1359(17)
H1 H 0.4441 0.2541 0.1089
H2 H 0.4565 0.2109 0.2122
N2 N 0.2000(14) 0.2079(15) -0.131(2)
H3 H 0.1767 0.1667 -0.1090
H4 H 0.1673 0.2391 -0.1628
C1 C 0.5520(15) 0.173(2) -0.009(3)
C2 C 0.5413(14) 0.2049(18) 0.106(3)
H5 H 0.5650 0.2532 0.1108
C3 C 0.5753(16) 0.1523(14) 0.196(2)
H6 H 0.6278 0.1490 0.1829
H7 H 0.5682 0.1734 0.2717
C4 C 0.5432(16) 0.0757(14) 0.195(2)
C5 C 0.3263(16) 0.1594(16) -0.150(3)
C6 C 0.2633(18) 0.191(2) -0.214(3)
H8 H 0.2454 0.1512 -0.2640
C7 C 0.2802(19) 0.2548(19) -0.292(2)
H9 H 0.2353 0.2633 -0.3339
H10 H 0.3166 0.2354 -0.3466
C8 C 0.305(2) 0.315(2) -0.229(4)
H11 H 0.5219 0.1554 -0.2849
Ni1F Ni 0.06060(19) 0.45711(19) 0.1609(3)
Ni1A Ni 0.54289(19) -0.06060(19) 0.3391(3)
Ni1B Ni 0.43940(19) -0.04289(19) 0.0891(3)
Ni1C Ni 0.56060(19) 0.04289(19) -0.4109(3)
Ni1A_2 Ni 0.54289(19) -0.06060(19) -0.6609(3)
Ni2F Ni 0.12424(19) 0.4069(2) -0.0640(3)
Ni2C Ni 0.62424(19) 0.0931(2) -0.1860(3)
Ni2A Ni 0.5931(2) -0.12424(19) -0.4360(3)
Ni2B Ni 0.37576(19) -0.0931(2) -0.6860(3)
O1A O 0.5139(10) -0.1486(9) -0.5546(13)
O1F O 0.1486(9) 0.4861(10) 0.0546(13)
O2A O 0.3912(11) -0.1645(13) -0.5583(16)
O2B O 0.3355(13) 0.1088(11) 0.1917(16)
O2E O 0.1088(11) 0.3355(13) -0.1917(16)
O3A O 0.4187(9) -0.0279(8) -0.2483(13)
O3G O -0.0279(8) 0.4187(9) 0.2483(13)
O4A O 0.5150(10) -0.0568(11) -0.3531(14)
O4C O 0.5568(11) 0.0150(10) -0.1031(14)
O4D O 0.0150(10) 0.5568(11) 0.1031(14)
O4F O 0.0568(11) 0.4850(10) -0.1469(14)
O5F O 0.1755(9) 0.3283(9) 0.0439(14)
O6F O 0.1209(10) 0.3689(9) 0.2094(13)
O7F O 0.3199(13) 0.3041(13) 0.1186(16)
O8F O 0.3660(19) 0.345(2) 0.282(3)
O9B O 0.3977(8) 0.0293(9) -0.0232(13)
O9E O 0.0293(9) 0.3977(8) 0.0232(13)
O9F O 0.1023(8) 0.5293(9) 0.2732(13)
N1A N 0.5378(14) -0.2114(11) -0.3641(17)
N1F N 0.2114(11) 0.4622(14) -0.1359(17)
H1A H 0.5559 -0.2541 -0.3911
H1F H 0.2541 0.4441 -0.1089
H2A H 0.5435 -0.2109 -0.2878
H2F H 0.2109 0.4565 -0.2122
N2F N 0.2079(15) 0.2000(14) 0.131(2)
H3F H 0.1667 0.1767 0.1090
H4F H 0.2391 0.1673 0.1628
C1A C 0.4480(15) -0.173(2) -0.509(3)
C2A C 0.4587(14) -0.2049(18) -0.394(3)
H5A H 0.4350 -0.2532 -0.3892
C3A C 0.4247(16) -0.1523(14) -0.304(2)
H6A H 0.3722 -0.1490 -0.3171
H7A H 0.4318 -0.1734 -0.2283
C4A C 0.4568(16) -0.0757(14) -0.305(2)
C5F C 0.1594(16) 0.3263(16) 0.150(3)
C6F C 0.191(2) 0.2633(18) 0.214(3)
H8F H 0.1512 0.2454 0.2640
C7F C 0.2548(19) 0.2802(19) 0.292(2)
H9F H 0.2633 0.2353 0.3339
H10F H 0.2354 0.3166 0.3466
C8F C 0.315(2) 0.305(2) 0.229(4)
H11B H 0.3446 0.0219 -0.0349
H11E H 0.0219 0.3446 0.0349
H11F H 0.1554 0.5219 0.2849
O10 O 0.525(2) -0.236(2) -0.084(3)
O11 O 0.240(3) 0.005(3) -0.062(4)
O12 O 0.4641(19) 0.3344(18) -0.055(3)
O13 O 0.483(4) 0.414(4) 0.189(6)
O14 O 0.446(3) 0.446(3) 0.0000
O15 O 0.640(3) 0.360(3) 0.2500
O16 O 0.595(6) 0.453(6) -0.008(10)
loop_
_geom_bond_atom_site_label_1
_geom_bond_atom_site_label_2
_geom_bond_site_symmetry_1
_geom_bond_site_symmetry_2
Ni1 O1 1_555 1_555
Ni2 O1 1_555 1_555
Ni3 O5 1_555 1_555
O1 C1 1_555 1_555
O2 C1 1_555 1_555
O3 C4 1_555 1_555
O4 Ni2 1_555 1_555
O5 Ni2 1_555 1_555
O6 Ni1 1_555 1_555
O7 Ni3 1_555 1_555
O8 C8 1_555 1_555
O9 Ni1 1_555 1_555
N1 Ni2 1_555 1_555
H1 N1 1_555 1_555
H2 N1 1_555 1_555
N2 Ni3 1_555 1_555
H3 N2 1_555 1_555
H4 N2 1_555 1_555
C1 C2 1_555 1_555
C2 N1 1_555 1_555
H5 C2 1_555 1_555
C3 C2 1_555 1_555
H6 C3 1_555 1_555
H7 C3 1_555 1_555
C4 O4 1_555 1_555
C5 O5 1_555 1_555
C6 N2 1_555 1_555
H8 C6 1_555 1_555
C7 C6 1_555 1_555
H9 C7 1_555 1_555
H10 C7 1_555 1_555
C8 O7 1_555 1_555
H11 O9 1_555 1_555
Ni1F O1F 1_555 1_555
Ni1A O3 1_555 1_555
Ni1B O4 1_555 1_555
Ni1C O9 1_555 1_555
Ni1A_2 O1A 1_555 1_555
Ni2F O1F 1_555 1_555
Ni2C O2 1_555 1_555
Ni2A O1A 1_555 1_555
Ni2B O2A 1_555 1_555
O1A C1A 1_555 1_555
O2A C1A 1_555 1_555
O2B Ni2 1_555 1_555
O2E Ni2F 1_555 1_555
O3A Ni1 1_555 1_555
O3G Ni1F 1_555 1_555
O4A Ni1C 1_555 1_555
O4C Ni1 1_555 1_555
O4D Ni1F 1_555 1_555
O4F Ni2F 1_555 1_555
O5F Ni3 1_555 1_555
O6F Ni1F 1_555 1_555
O7F Ni3 1_555 1_555
O8F C8F 1_555 1_555
O9B Ni1 1_555 1_555
O9E Ni1F 1_555 1_555
O9F Ni1F 1_555 1_555
N1A Ni2A 1_555 1_555
N1F Ni2F 1_555 1_555
H1A N1A 1_555 1_555
H1F N1F 1_555 1_555
H2A N1A 1_555 1_555
H2F N1F 1_555 1_555
N2F Ni3 1_555 1_555
H3F N2F 1_555 1_555
H4F N2F 1_555 1_555
C1A C2A 1_555 1_555
C2A N1A 1_555 1_555
H5A C2A 1_555 1_555
C3A C2A 1_555 1_555
H6A C3A 1_555 1_555
H7A C3A 1_555 1_555
C4A O3A 1_555 1_555
C5F O5F 1_555 1_555
C6F N2F 1_555 1_555
H8F C6F 1_555 1_555
C7F C6F 1_555 1_555
H9F C7F 1_555 1_555
H10F C7F 1_555 1_555
C8F O7F 1_555 1_555
H11B O9B 1_555 1_555
H11E O9E 1_555 1_555
H11F O9F 1_555 1_555
Ni2 O9B 1_555 1_555
O6 C5 1_555 1_555
O9 Ni2C 1_555 1_555
C3 C4 1_555 1_555
C5 C6 1_555 1_555
C7 C8 1_555 1_555
Ni1B O9B 1_555 1_555
Ni2F O5F 1_555 1_555
Ni2F O9E 1_555 1_555
Ni2C O4C 1_555 1_555
Ni2A O4A 1_555 1_555
O4A C4A 1_555 1_555
O6F C5F 1_555 1_555
C3A C4A 1_555 1_555
C5F C6F 1_555 1_555
C7F C8F 1_555 1_555

#END
