
#######################################################################
#
#                 Cambridge Crystallographic Data Centre
#                                CCDC 
#
#######################################################################
#
# If this CIF has been generated from an entry in the Cambridge 
# Structural Database, then it will include bibliographic, chemical, 
# crystal, experimental, refinement or atomic coordinate data resulting 
# from the CCDC's data processing and validation procedures.
#
#######################################################################

data_WERKUZ
_chemical_formula_moiety         '(C9 H15 Br1 N3 Na1 O10 P1)n'
_symmetry_cell_setting           orthorhombic
_symmetry_space_group_name_H-M   'P 21 21 21'
_symmetry_Int_Tables_number      19
_space_group_name_Hall           'P 2ac 2ab'
loop_
_symmetry_equiv_pos_site_id
_symmetry_equiv_pos_as_xyz
1 x,y,z
2 1/2+x,1/2-y,-z
3 -x,1/2+y,1/2-z
4 1/2-x,-y,1/2+z
_cell_length_a                   4.733(1)
_cell_length_b                   17.305(1)
_cell_length_c                   19.243(1)
_cell_angle_alpha                90
_cell_angle_beta                 90
_cell_angle_gamma                90
_cell_volume                     1576.09
loop_
_atom_site_label
_atom_site_type_symbol
_atom_site_fract_x
_atom_site_fract_y
_atom_site_fract_z
N1 N -0.0775(8) 0.3679(2) 0.6690(2)
C1 C -0.1927(10) 0.3170(3) 0.6210(2)
O1 O -0.1138(9) 0.3192(3) 0.5598(2)
N2 N -0.3956(9) 0.2669(3) 0.6421(2)
C2 C -0.4775(10) 0.2652(3) 0.7083(2)
N3 N -0.6882(10) 0.2159(3) 0.7250(3)
C3 C -0.3536(10) 0.3146(3) 0.7584(2)
Br1 Br -0.4765(2) 0.31336(4) 0.85130(3)
C4 C -0.1530(10) 0.3654(3) 0.7372(2)
C5 C 0.1302(9) 0.4254(3) 0.6416(3)
C6 C -0.0177(10) 0.4944(3) 0.6076(2)
O2 O 0.1701(9) 0.5309(2) 0.5604(2)
C7 C -0.0485(9) 0.5481(3) 0.6699(2)
O3 O -0.1103(8) 0.6262(2) 0.6555(2)
C8 C 0.2370(9) 0.5375(3) 0.7045(2)
O4 O 0.2923(7) 0.4551(2) 0.6969(2)
C9 C 0.2613(10) 0.5600(3) 0.7801(3)
O5 O 0.0508(7) 0.5211(2) 0.8209(2)
P1 P 0.0073(2) 0.55243(6) 0.89838(5)
O6 O 0.2838(7) 0.5469(3) 0.9369(2)
O7 O -0.1180(8) 0.6312(2) 0.8958(2)
O8 O -0.2045(7) 0.4909(2) 0.9281(2)
Na1 Na 0.0309(5) 0.3239(1) 0.4502(1)
H1 H -0.77(2) 0.210(6) 0.767(5)
H2 H -0.77(2) 0.190(6) 0.689(5)
H3 H -0.08(2) 0.394(5) 0.772(5)
H4 H 0.24(2) 0.408(6) 0.605(5)
H5 H -0.22(2) 0.486(6) 0.587(5)
H6 H 0.23(2) 0.493(5) 0.514(5)
H7 H -0.21(2) 0.522(6) 0.703(5)
H8 H -0.01(2) 0.648(6) 0.610(5)
H9 H 0.37(2) 0.566(5) 0.681(5)
H10 H 0.44(2) 0.539(5) 0.797(4)
H11 H 0.21(2) 0.624(6) 0.780(5)
Na1A Na -0.4691(5) 0.1761(1) 0.5498(1)
Na1C Na 0.4691(5) 0.6761(1) 0.9502(1)
Na1C_2 Na -0.5309(5) 0.6761(1) 0.9502(1)
N2A N 0.1044(9) 0.2331(3) 0.3579(2)
O6C O 0.2162(7) 0.4531(3) 0.4369(2)
O7C O -0.3820(8) 0.3688(2) 0.3958(2)
O9 O 0.016(4) 0.6959(7) 0.5348(7)
O10 O 0.506(5) 0.1500(9) 0.0129(8)
loop_
_geom_bond_atom_site_label_1
_geom_bond_atom_site_label_2
_geom_bond_site_symmetry_1
_geom_bond_site_symmetry_2
N1 C1 1_555 1_555
C1 O1 1_555 1_555
O1 Na1 1_555 1_555
N2 C1 1_555 1_555
C2 N2 1_555 1_555
N3 C2 1_555 1_555
C3 C2 1_555 1_555
Br1 C3 1_555 1_555
C4 N1 1_555 1_555
C5 N1 1_555 1_555
C6 C5 1_555 1_555
O2 C6 1_555 1_555
C7 C6 1_555 1_555
O3 C7 1_555 1_555
C8 C7 1_555 1_555
O4 C5 1_555 1_555
C9 C8 1_555 1_555
O5 C9 1_555 1_555
P1 O5 1_555 1_555
O6 P1 1_555 1_555
O7 P1 1_555 1_555
O8 P1 1_555 1_555
Na1 N2A 1_555 1_555
H1 N3 1_555 1_555
H2 N3 1_555 1_555
H3 C4 1_555 1_555
H4 C5 1_555 1_555
H5 C6 1_555 1_555
H6 O2 1_555 1_555
H7 C7 1_555 1_555
H8 O3 1_555 1_555
H9 C8 1_555 1_555
H10 C9 1_555 1_555
H11 C9 1_555 1_555
Na1A N2 1_555 1_555
Na1C O6 1_555 1_555
Na1C_2 O7 1_555 1_555
O6C Na1 1_555 1_555
O7C Na1 1_555 1_555
C3 C4 1_555 1_555
C8 O4 1_555 1_555

#END
