
#######################################################################
#
#                 Cambridge Crystallographic Data Centre
#                                CCDC 
#
#######################################################################
#
# If this CIF has been generated from an entry in the Cambridge 
# Structural Database, then it will include bibliographic, chemical, 
# crystal, experimental, refinement or atomic coordinate data resulting 
# from the CCDC's data processing and validation procedures.
#
#######################################################################

data_QUXQUX
_chemical_formula_moiety         '(C14 H8 Ca1 O6 S1)n'
_symmetry_cell_setting           monoclinic
_symmetry_space_group_name_H-M   'P 21/n'
_symmetry_Int_Tables_number      14
_space_group_name_Hall           '-P 2yn'
loop_
_symmetry_equiv_pos_site_id
_symmetry_equiv_pos_as_xyz
1 x,y,z
2 1/2-x,1/2+y,1/2-z
3 -x,-y,-z
4 1/2+x,1/2-y,1/2+z
_cell_length_a                   11.8013(12)
_cell_length_b                   5.5827(6)
_cell_length_c                   22.723(2)
_cell_angle_alpha                90
_cell_angle_beta                 100.092(2)
_cell_angle_gamma                90
_cell_volume                     1473.9
loop_
_atom_site_label
_atom_site_type_symbol
_atom_site_fract_x
_atom_site_fract_y
_atom_site_fract_z
Ca1 Ca 0.63783(3) 0.24423(7) 0.222873(17)
S1 S 0.40115(4) 0.03640(9) 0.10805(2)
O1 O 0.26576(13) 0.4753(3) -0.17171(7)
O2 O 0.26177(13) 0.0841(3) -0.19080(6)
O3 O 0.41854(14) -0.2184(3) 0.11215(7)
O4 O 0.49592(13) 0.1958(3) 0.13092(7)
O5 O -0.01431(13) 0.4762(3) 0.24494(7)
O6 O -0.04358(14) 0.0815(3) 0.25390(7)
C1 C 0.27611(17) 0.2609(4) -0.15515(9)
C2 C 0.30225(18) 0.2075(4) -0.08910(9)
C3 C 0.35575(19) 0.3805(4) -0.04976(9)
H1 H 0.3731 0.5328 -0.0646
C4 C 0.38409(19) 0.3329(4) 0.01096(9)
H2 H 0.4211 0.4507 0.0378
C5 C 0.35719(17) 0.1088(4) 0.03165(9)
C6 C 0.2998(2) -0.0633(4) -0.00671(9)
H3 H 0.2794 -0.2127 0.0085
C7 C 0.27283(19) -0.0140(4) -0.06754(9)
H4 H 0.2345 -0.1306 -0.0943
C8 C 0.28380(18) 0.1089(4) 0.14322(9)
C9 C 0.28144(18) 0.3287(4) 0.17217(9)
H5 H 0.3413 0.4426 0.1723
C10 C 0.18884(18) 0.3764(4) 0.20083(9)
H6 H 0.1847 0.5260 0.2203
C11 C 0.10213(17) 0.2075(4) 0.20137(9)
C12 C 0.00597(17) 0.2597(4) 0.23614(9)
C13 C 0.10561(18) -0.0106(4) 0.17190(9)
H7 H 0.0463 -0.1254 0.1723
C14 C 0.19604(19) -0.0599(4) 0.14189(9)
H8 H 0.1981 -0.2062 0.1208
Ca1A Ca -0.13783(3) -0.25577(7) 0.277127(17)
Ca1A_2 Ca -0.13783(3) 0.74423(7) 0.277127(17)
Ca1B Ca 0.36217(3) -0.24423(7) -0.222873(17)
Ca1B_2 Ca 0.36217(3) 0.75577(7) -0.222873(17)
Ca1C Ca 0.13783(3) 0.25577(7) -0.277127(17)
O1B O 0.73424(13) 0.5247(3) 0.17171(7)
O2B O 0.73823(13) -0.0841(3) 0.19080(6)
O2C O 0.76177(13) 0.4159(3) 0.30920(6)
O5A O 0.51431(13) -0.0238(3) 0.25506(7)
O6A O 0.54358(14) 0.5815(3) 0.24610(7)
loop_
_geom_bond_atom_site_label_1
_geom_bond_atom_site_label_2
_geom_bond_site_symmetry_1
_geom_bond_site_symmetry_2
Ca1 O4 1_555 1_555
S1 O3 1_555 1_555
O1 C1 1_555 1_555
O2 C1 1_555 1_555
O4 S1 1_555 1_555
O5 C12 1_555 1_555
O6 C12 1_555 1_555
C1 C2 1_555 1_555
C2 C3 1_555 1_555
C3 H1 1_555 1_555
C4 C3 1_555 1_555
H2 C4 1_555 1_555
C5 S1 1_555 1_555
C6 C5 1_555 1_555
H3 C6 1_555 1_555
C7 C2 1_555 1_555
H4 C7 1_555 1_555
C8 S1 1_555 1_555
C9 C8 1_555 1_555
H5 C9 1_555 1_555
C10 C9 1_555 1_555
H6 C10 1_555 1_555
C11 C10 1_555 1_555
C12 C11 1_555 1_555
C13 C11 1_555 1_555
H7 C13 1_555 1_555
C14 C8 1_555 1_555
H8 C14 1_555 1_555
Ca1A O6 1_555 1_555
Ca1A_2 O5 1_555 1_555
Ca1B O2 1_555 1_555
Ca1B_2 O1 1_555 1_555
Ca1C O2 1_555 1_555
O1B Ca1 1_555 1_555
O2B Ca1 1_555 1_555
O2C Ca1 1_555 1_555
O5A Ca1 1_555 1_555
O6A Ca1 1_555 1_555
C4 C5 1_555 1_555
C6 C7 1_555 1_555
C13 C14 1_555 1_555

#END
