
#######################################################################
#
#                 Cambridge Crystallographic Data Centre
#                                CCDC 
#
#######################################################################
#
# If this CIF has been generated from an entry in the Cambridge 
# Structural Database, then it will include bibliographic, chemical, 
# crystal, experimental, refinement or atomic coordinate data resulting 
# from the CCDC's data processing and validation procedures.
#
#######################################################################

data_QUXREI
_chemical_formula_moiety         '(C14 H8 Ca1 O6 S1)n'
_symmetry_cell_setting           monoclinic
_symmetry_space_group_name_H-M   'P 21/n'
_symmetry_Int_Tables_number      14
_space_group_name_Hall           '-P 2yn'
loop_
_symmetry_equiv_pos_site_id
_symmetry_equiv_pos_as_xyz
1 x,y,z
2 1/2-x,1/2+y,1/2-z
3 -x,-y,-z
4 1/2+x,1/2-y,1/2+z
_cell_length_a                   11.7150(6)
_cell_length_b                   5.5679(3)
_cell_length_c                   22.8208(11)
_cell_angle_alpha                90
_cell_angle_beta                 100.5320(10)
_cell_angle_gamma                90
_cell_volume                     1463.48
loop_
_atom_site_label
_atom_site_type_symbol
_atom_site_fract_x
_atom_site_fract_y
_atom_site_fract_z
Ca1 Ca -0.13745(4) 0.24358(8) 0.277932(18)
S1 S 0.10095(4) 0.03536(9) 0.39303(2)
O1 O 0.08355(15) -0.2205(3) 0.38907(7)
O2 O 0.00490(14) 0.1945(3) 0.37009(7)
O3 O 0.23571(15) 0.4767(3) 0.67200(7)
O4 O 0.23927(14) 0.0851(3) 0.69086(7)
O5 O 0.51327(15) 0.4766(3) 0.25391(8)
O6 O 0.54238(15) 0.0808(3) 0.24482(8)
C1 C 0.20110(19) 0.2085(4) 0.58947(9)
C2 C 0.1465(2) 0.3807(4) 0.55011(10)
H1 H 0.1286 0.5331 0.5648
C3 C 0.1179(2) 0.3325(4) 0.48936(10)
H2 H 0.0801 0.4500 0.4624
C4 C 0.14579(19) 0.1087(4) 0.46905(9)
C5 C 0.2053(2) -0.0621(4) 0.50746(10)
H3 H 0.2274 -0.2109 0.4925
C6 C 0.2321(2) -0.0117(4) 0.56816(10)
H4 H 0.2716 -0.1276 0.5950
C7 C 0.22560(18) 0.2619(4) 0.65520(9)
C8 C 0.39936(18) 0.2080(4) 0.29898(9)
C9 C 0.31160(19) 0.3767(4) 0.29973(10)
H5 H 0.3146 0.5266 0.2802
C10 C 0.21960(19) 0.3278(4) 0.32884(10)
H6 H 0.1590 0.4412 0.3288
C11 C 0.21875(19) 0.1087(4) 0.35791(9)
C12 C 0.3071(2) -0.0600(4) 0.35928(10)
H7 H 0.3057 -0.2065 0.3805
C13 C 0.39738(19) -0.0103(4) 0.32908(10)
H8 H 0.4576 -0.1245 0.3289
C14 C 0.49374(18) 0.2587(4) 0.26326(10)
Ca1A Ca 0.63745(4) -0.25642(8) 0.222068(18)
Ca1A_2 Ca 0.63745(4) 0.74358(8) 0.222068(18)
Ca1B Ca 0.13745(4) -0.24358(8) 0.722068(18)
Ca1B_2 Ca 0.13745(4) 0.75642(8) 0.722068(18)
Ca1C Ca 0.36255(4) 0.25642(8) 0.777932(18)
O3B O -0.23571(15) 0.5233(3) 0.32800(7)
O4B O -0.23927(14) -0.0851(3) 0.30914(7)
O4C O -0.26073(14) 0.4149(3) 0.19086(7)
O5A O -0.01327(15) -0.0234(3) 0.24609(8)
O6A O -0.04238(15) 0.5808(3) 0.25518(8)
loop_
_geom_bond_atom_site_label_1
_geom_bond_atom_site_label_2
_geom_bond_site_symmetry_1
_geom_bond_site_symmetry_2
Ca1 O2 1_555 1_555
S1 O1 1_555 1_555
O2 S1 1_555 1_555
O3 C7 1_555 1_555
O4 C7 1_555 1_555
O5 C14 1_555 1_555
O6 C14 1_555 1_555
C1 C2 1_555 1_555
C2 H1 1_555 1_555
C3 C2 1_555 1_555
H2 C3 1_555 1_555
C4 S1 1_555 1_555
C5 C4 1_555 1_555
H3 C5 1_555 1_555
C6 C1 1_555 1_555
H4 C6 1_555 1_555
C7 C1 1_555 1_555
C8 C9 1_555 1_555
C9 H5 1_555 1_555
C10 C9 1_555 1_555
H6 C10 1_555 1_555
C11 S1 1_555 1_555
C12 C11 1_555 1_555
H7 C12 1_555 1_555
C13 C8 1_555 1_555
H8 C13 1_555 1_555
C14 C8 1_555 1_555
Ca1A O6 1_555 1_555
Ca1A_2 O5 1_555 1_555
Ca1B O4 1_555 1_555
Ca1B_2 O3 1_555 1_555
Ca1C O4 1_555 1_555
O3B Ca1 1_555 1_555
O4B Ca1 1_555 1_555
O4C Ca1 1_555 1_555
O5A Ca1 1_555 1_555
O6A Ca1 1_555 1_555
C3 C4 1_555 1_555
C5 C6 1_555 1_555
C10 C11 1_555 1_555
C12 C13 1_555 1_555

#END
