
#######################################################################
#
#                 Cambridge Crystallographic Data Centre
#                                CCDC 
#
#######################################################################
#
# If this CIF has been generated from an entry in the Cambridge 
# Structural Database, then it will include bibliographic, chemical, 
# crystal, experimental, refinement or atomic coordinate data resulting 
# from the CCDC's data processing and validation procedures.
#
#######################################################################

data_QUXRIM
_chemical_formula_moiety         '(C14 H8 Ca1 O6 S1)n'
_symmetry_cell_setting           monoclinic
_symmetry_space_group_name_H-M   'P 21/n'
_symmetry_Int_Tables_number      14
_space_group_name_Hall           '-P 2yn'
loop_
_symmetry_equiv_pos_site_id
_symmetry_equiv_pos_as_xyz
1 x,y,z
2 1/2-x,1/2+y,1/2-z
3 -x,-y,-z
4 1/2+x,1/2-y,1/2+z
_cell_length_a                   11.8767(11)
_cell_length_b                   5.5769(5)
_cell_length_c                   22.486(2)
_cell_angle_alpha                90
_cell_angle_beta                 99.8930(10)
_cell_angle_gamma                90
_cell_volume                     1467.22
loop_
_atom_site_label
_atom_site_type_symbol
_atom_site_fract_x
_atom_site_fract_y
_atom_site_fract_z
Ca1 Ca 0.59630(3) 0.74417(6) 0.041608(16)
S1 S 0.88397(4) 0.53388(8) 0.10242(2)
O1 O 1.40465(12) 0.5814(3) 0.02671(6)
O2 O 1.37065(13) 0.9718(3) 0.03024(6)
O3 O 0.80386(12) 0.6954(3) 0.06651(6)
O4 O 0.86886(12) 0.2793(3) 0.09538(6)
O5 O 0.88713(13) 0.9723(3) 0.38011(6)
O6 O 0.89872(13) 0.5794(3) 0.40022(6)
C1 C 1.34236(16) 0.7577(3) 0.03549(8)
C2 C 1.23040(16) 0.7048(3) 0.05528(8)
C3 C 1.14507(17) 0.8775(4) 0.04795(9)
H1 H 1.1593 1.0302 0.0321
C4 C 1.03923(16) 0.8299(4) 0.06353(9)
H2 H 0.9809 0.9484 0.0586
C5 C 1.02066(16) 0.6056(3) 0.08647(8)
C6 C 1.10623(17) 0.4332(4) 0.09629(10)
H3 H 1.0928 0.2830 0.1137
C7 C 1.21150(17) 0.4832(4) 0.08029(10)
H4 H 1.2706 0.3663 0.0864
C8 C 0.88968(16) 0.6058(3) 0.17910(8)
C9 C 0.84930(16) 0.8260(4) 0.19511(8)
H5 H 0.8194 0.9404 0.1652
C10 C 0.85395(16) 0.8742(3) 0.25632(8)
H6 H 0.8278 1.0244 0.2685
C11 C 0.89645(16) 0.7050(3) 0.29980(8)
C12 C 0.89453(16) 0.7564(3) 0.36581(8)
C13 C 0.93669(17) 0.4855(4) 0.28267(9)
H7 H 0.9657 0.3701 0.3125
C14 C 0.93438(17) 0.4355(4) 0.22195(9)
H8 H 0.9629 0.2874 0.2099
Ca1_2 Ca 1.59630(3) 0.74417(6) 0.041608(16)
Ca1A Ca 0.90370(3) 0.24417(6) 0.458392(16)
Ca1A_2 Ca 0.90370(3) 1.24417(6) 0.458392(16)
Ca1B Ca 1.40370(3) 0.25583(6) -0.041608(16)
Ca1B_2 Ca 1.40370(3) 1.25583(6) -0.041608(16)
O1_2 O 0.40465(12) 0.5814(3) 0.02671(6)
O1B O 0.59535(12) 0.4186(3) -0.02671(6)
O2B O 0.62935(13) 1.0282(3) -0.03024(6)
O5A O 0.61287(13) 0.4723(3) 0.11989(6)
O6A O 0.60128(13) 1.0794(3) 0.09978(6)
loop_
_geom_bond_atom_site_label_1
_geom_bond_atom_site_label_2
_geom_bond_site_symmetry_1
_geom_bond_site_symmetry_2
Ca1 O3 1_555 1_555
S1 O3 1_555 1_555
O1 C1 1_555 1_555
O2 C1 1_555 1_555
O4 S1 1_555 1_555
O5 C12 1_555 1_555
O6 C12 1_555 1_555
C1 C2 1_555 1_555
C2 C3 1_555 1_555
C3 H1 1_555 1_555
C4 C3 1_555 1_555
H2 C4 1_555 1_555
C5 S1 1_555 1_555
C6 C5 1_555 1_555
H3 C6 1_555 1_555
C7 C2 1_555 1_555
H4 C7 1_555 1_555
C8 S1 1_555 1_555
C9 C8 1_555 1_555
H5 C9 1_555 1_555
C10 C9 1_555 1_555
H6 C10 1_555 1_555
C11 C10 1_555 1_555
C12 C11 1_555 1_555
C13 C11 1_555 1_555
H7 C13 1_555 1_555
C14 C8 1_555 1_555
H8 C14 1_555 1_555
Ca1_2 O1 1_555 1_555
Ca1A O6 1_555 1_555
Ca1A_2 O5 1_555 1_555
Ca1B O1 1_555 1_555
Ca1B_2 O2 1_555 1_555
O1_2 Ca1 1_555 1_555
O1B Ca1 1_555 1_555
O2B Ca1 1_555 1_555
O5A Ca1 1_555 1_555
O6A Ca1 1_555 1_555
C4 C5 1_555 1_555
C6 C7 1_555 1_555
C13 C14 1_555 1_555

#END
