
#######################################################################
#
#                 Cambridge Crystallographic Data Centre
#                                CCDC 
#
#######################################################################
#
# If this CIF has been generated from an entry in the Cambridge 
# Structural Database, then it will include bibliographic, chemical, 
# crystal, experimental, refinement or atomic coordinate data resulting 
# from the CCDC's data processing and validation procedures.
#
#######################################################################

data_QUXROS
_chemical_formula_moiety         '(C14 H8 Ca1 O6 S1)n'
_symmetry_cell_setting           monoclinic
_symmetry_space_group_name_H-M   'P 21/n'
_symmetry_Int_Tables_number      14
_space_group_name_Hall           '-P 2yn'
loop_
_symmetry_equiv_pos_site_id
_symmetry_equiv_pos_as_xyz
1 x,y,z
2 1/2-x,1/2+y,1/2-z
3 -x,-y,-z
4 1/2+x,1/2-y,1/2+z
_cell_length_a                   11.7073(10)
_cell_length_b                   5.5647(5)
_cell_length_c                   22.830(2)
_cell_angle_alpha                90
_cell_angle_beta                 100.5860(10)
_cell_angle_gamma                90
_cell_volume                     1462.01
loop_
_atom_site_label
_atom_site_type_symbol
_atom_site_fract_x
_atom_site_fract_y
_atom_site_fract_z
Ca1 Ca 0.63729(3) 0.25666(5) 0.221920(13)
S1 S 0.39846(3) 0.46493(7) 0.106737(16)
O1 O 0.26426(10) 0.0231(2) -0.17208(5)
O2 O 0.26053(10) 0.4149(2) -0.19089(5)
O3 O 0.41539(10) 0.7209(2) 0.11051(5)
O4 O 0.49480(10) 0.3061(2) 0.12965(5)
O5 O -0.01289(10) 0.0241(2) 0.24639(5)
O6 O -0.04196(10) 0.4196(2) 0.25535(5)
C1 C 0.10083(13) 0.2925(3) 0.20110(7)
C2 C 0.29868(13) 0.2915(3) -0.08959(7)
C3 C 0.19234(14) 0.5596(3) 0.14051(7)
H1 H 0.1932 0.7055 0.1190
C4 C 0.26760(14) 0.5120(3) -0.06835(7)
H2 H 0.2283 0.6281 -0.0953
C5 C 0.10262(14) 0.5103(3) 0.17100(7)
H3 H 0.0426 0.6248 0.1714
C6 C 0.29424(14) 0.5621(3) -0.00763(7)
H4 H 0.2722 0.7109 0.0074
C7 C 0.38210(14) 0.1674(3) 0.01042(7)
H5 H 0.4201 0.0502 0.0374
C8 C 0.18857(14) 0.1242(3) 0.20044(7)
H6 H 0.1856 -0.0255 0.2201
C9 C 0.28046(13) 0.1722(3) 0.17132(7)
H7 H 0.3411 0.0586 0.1714
C10 C 0.27420(13) 0.2382(3) -0.15538(7)
C11 C 0.35396(14) 0.1191(3) -0.05017(7)
H8 H 0.3726 -0.0329 -0.0648
C12 C 0.00659(13) 0.2410(3) 0.23699(7)
C13 C 0.35353(13) 0.3908(3) 0.03067(7)
C14 C 0.28117(13) 0.3913(3) 0.14203(7)
Ca1A Ca -0.13729(3) -0.24334(5) 0.278080(13)
Ca1A_2 Ca -0.13729(3) 0.75666(5) 0.278080(13)
Ca1B Ca 0.36271(3) -0.25666(5) -0.221920(13)
Ca1B_2 Ca 0.36271(3) 0.74334(5) -0.221920(13)
Ca1C Ca 0.13729(3) 0.24334(5) -0.278080(13)
O1B O 0.73574(10) -0.0231(2) 0.17208(5)
O2B O 0.73947(10) 0.5851(2) 0.19089(5)
O2C O 0.76053(10) 0.0851(2) 0.30911(5)
O5A O 0.51289(10) 0.5241(2) 0.25361(5)
O6A O 0.54196(10) -0.0804(2) 0.24465(5)
loop_
_geom_bond_atom_site_label_1
_geom_bond_atom_site_label_2
_geom_bond_site_symmetry_1
_geom_bond_site_symmetry_2
Ca1 O4 1_555 1_555
S1 O3 1_555 1_555
O1 C10 1_555 1_555
O2 C10 1_555 1_555
O4 S1 1_555 1_555
O5 C12 1_555 1_555
O6 C12 1_555 1_555
C1 C5 1_555 1_555
C2 C4 1_555 1_555
C3 H1 1_555 1_555
C4 H2 1_555 1_555
C5 C3 1_555 1_555
H3 C5 1_555 1_555
C6 C4 1_555 1_555
H4 C6 1_555 1_555
C7 H5 1_555 1_555
C8 C1 1_555 1_555
H6 C8 1_555 1_555
C9 C8 1_555 1_555
H7 C9 1_555 1_555
C10 C2 1_555 1_555
C11 C2 1_555 1_555
H8 C11 1_555 1_555
C12 C1 1_555 1_555
C13 S1 1_555 1_555
C14 S1 1_555 1_555
Ca1A O5 1_555 1_555
Ca1A_2 O6 1_555 1_555
Ca1B O1 1_555 1_555
Ca1B_2 O2 1_555 1_555
Ca1C O2 1_555 1_555
O1B Ca1 1_555 1_555
O2B Ca1 1_555 1_555
O2C Ca1 1_555 1_555
O5A Ca1 1_555 1_555
O6A Ca1 1_555 1_555
C3 C14 1_555 1_555
C6 C13 1_555 1_555
C7 C11 1_555 1_555
C7 C13 1_555 1_555
C9 C14 1_555 1_555

#END
