
#######################################################################
#
#                 Cambridge Crystallographic Data Centre
#                                CCDC 
#
#######################################################################
#
# If this CIF has been generated from an entry in the Cambridge 
# Structural Database, then it will include bibliographic, chemical, 
# crystal, experimental, refinement or atomic coordinate data resulting 
# from the CCDC's data processing and validation procedures.
#
#######################################################################

data_QUXRUY
_chemical_formula_moiety         '(C14 H8 Ca1 O6 S1)n'
_symmetry_cell_setting           monoclinic
_symmetry_space_group_name_H-M   'P 21/n'
_symmetry_Int_Tables_number      14
_space_group_name_Hall           '-P 2yn'
loop_
_symmetry_equiv_pos_site_id
_symmetry_equiv_pos_as_xyz
1 x,y,z
2 1/2-x,1/2+y,1/2-z
3 -x,-y,-z
4 1/2+x,1/2-y,1/2+z
_cell_length_a                   11.6426(8)
_cell_length_b                   5.5574(4)
_cell_length_c                   22.8446(16)
_cell_angle_alpha                90
_cell_angle_beta                 100.6810(10)
_cell_angle_gamma                90
_cell_volume                     1452.5
loop_
_atom_site_label
_atom_site_type_symbol
_atom_site_fract_x
_atom_site_fract_y
_atom_site_fract_z
Ca1 Ca 0.63725(2) -0.25855(4) 0.221255(11)
S1 S 0.39739(3) -0.46701(6) 0.106089(13)
O1 O 0.25956(8) -0.41227(18) -0.19108(4)
O2 O 0.26333(9) -0.02079(18) -0.17183(4)
O3 O -0.01274(9) -0.02565(18) 0.24690(5)
O4 O -0.04161(9) -0.42109(19) 0.25634(5)
O5 O 0.41423(9) -0.72328(18) 0.10967(4)
O6 O 0.49453(8) -0.30891(19) 0.12907(4)
C1 C 0.27313(11) -0.2357(2) -0.15536(6)
C2 C 0.29730(11) -0.2903(2) -0.08989(6)
C3 C 0.26526(12) -0.5109(2) -0.06885(6)
H1 H 0.2253 -0.6263 -0.0959
C4 C 0.29170(12) -0.5620(2) -0.00832(6)
H2 H 0.2690 -0.7110 0.0065
C5 C 0.35195(11) -0.3917(2) 0.03031(6)
C6 C 0.38114(12) -0.1679(3) 0.01029(6)
H3 H 0.4196 -0.0512 0.0374
C7 C 0.35291(12) -0.1183(2) -0.05027(6)
H4 H 0.3717 0.0342 -0.0647
C8 C 0.28003(11) -0.3932(2) 0.14147(6)
C9 C 0.19084(12) -0.5614(2) 0.14017(6)
H5 H 0.1912 -0.7073 0.1185
C10 C 0.10135(12) -0.5121(2) 0.17107(6)
H6 H 0.0410 -0.6267 0.1715
C11 C 0.10016(11) -0.2948(2) 0.20137(6)
C12 C 0.00677(11) -0.2433(2) 0.23766(6)
C13 C 0.18832(11) -0.1257(2) 0.20036(6)
H7 H 0.1857 0.0243 0.2200
C14 C 0.28006(11) -0.1745(2) 0.17088(6)
H8 H 0.3411 -0.0612 0.1709
Ca1A Ca -0.13725(2) -0.75855(4) 0.278745(11)
Ca1A_2 Ca -0.13725(2) 0.24145(4) 0.278745(11)
Ca1B Ca 0.36275(2) -0.74145(4) -0.221255(11)
Ca1B_2 Ca 0.36275(2) 0.25855(4) -0.221255(11)
Ca1C Ca 0.13725(2) -0.24145(4) -0.278745(11)
O1B O 0.74044(8) -0.58773(18) 0.19108(4)
O1C O 0.75956(8) -0.08773(18) 0.30892(4)
O2B O 0.73667(9) 0.02079(18) 0.17183(4)
O3A O 0.51274(9) -0.52565(18) 0.25310(5)
O4A O 0.54161(9) 0.07891(19) 0.24366(5)
loop_
_geom_bond_atom_site_label_1
_geom_bond_atom_site_label_2
_geom_bond_site_symmetry_1
_geom_bond_site_symmetry_2
Ca1 O6 1_555 1_555
S1 O5 1_555 1_555
O1 C1 1_555 1_555
O2 C1 1_555 1_555
O3 C12 1_555 1_555
O4 C12 1_555 1_555
O6 S1 1_555 1_555
C1 C2 1_555 1_555
C2 C3 1_555 1_555
C3 H1 1_555 1_555
C4 C3 1_555 1_555
H2 C4 1_555 1_555
C5 S1 1_555 1_555
C6 C5 1_555 1_555
H3 C6 1_555 1_555
C7 C2 1_555 1_555
H4 C7 1_555 1_555
C8 S1 1_555 1_555
C9 C8 1_555 1_555
H5 C9 1_555 1_555
C10 C9 1_555 1_555
H6 C10 1_555 1_555
C11 C10 1_555 1_555
C12 C11 1_555 1_555
C13 C11 1_555 1_555
H7 C13 1_555 1_555
C14 C8 1_555 1_555
H8 C14 1_555 1_555
Ca1A O4 1_555 1_555
Ca1A_2 O3 1_555 1_555
Ca1B O1 1_555 1_555
Ca1B_2 O2 1_555 1_555
Ca1C O1 1_555 1_555
O1B Ca1 1_555 1_555
O1C Ca1 1_555 1_555
O2B Ca1 1_555 1_555
O3A Ca1 1_555 1_555
O4A Ca1 1_555 1_555
C4 C5 1_555 1_555
C6 C7 1_555 1_555
C13 C14 1_555 1_555

#END
