
#######################################################################
#
#                 Cambridge Crystallographic Data Centre
#                                CCDC 
#
#######################################################################
#
# If this CIF has been generated from an entry in the Cambridge 
# Structural Database, then it will include bibliographic, chemical, 
# crystal, experimental, refinement or atomic coordinate data resulting 
# from the CCDC's data processing and validation procedures.
#
#######################################################################

data_IFEHUY
_chemical_formula_moiety         '(C14 H16 Mn2 N2 O6 S2)n'
_symmetry_cell_setting           rhombohedral
_symmetry_space_group_name_H-M   'R -3 c'
_symmetry_Int_Tables_number      167
_space_group_name_Hall           '-R 3 2"c'
loop_
_symmetry_equiv_pos_site_id
_symmetry_equiv_pos_as_xyz
1 x,y,z
2 -y,x-y,z
3 -x+y,-x,z
4 y,x,1/2-z
5 x-y,-y,1/2-z
6 -x,-x+y,1/2-z
7 2/3+x,1/3+y,1/3+z
8 2/3-y,1/3+x-y,1/3+z
9 2/3-x+y,1/3-x,1/3+z
10 2/3+y,1/3+x,5/6-z
11 2/3+x-y,1/3-y,5/6-z
12 2/3-x,1/3-x+y,5/6-z
13 1/3+x,2/3+y,2/3+z
14 1/3-y,2/3+x-y,2/3+z
15 1/3-x+y,2/3-x,2/3+z
16 1/3+y,2/3+x,1/6-z
17 1/3+x-y,2/3-y,1/6-z
18 1/3-x,2/3-x+y,1/6-z
19 -x,-y,-z
20 y,-x+y,-z
21 x-y,x,-z
22 -y,-x,1/2+z
23 -x+y,y,1/2+z
24 x,x-y,1/2+z
25 1/3-x,2/3-y,2/3-z
26 1/3+y,2/3-x+y,2/3-z
27 1/3+x-y,2/3+x,2/3-z
28 1/3-y,2/3-x,1/6+z
29 1/3-x+y,2/3+y,1/6+z
30 1/3+x,2/3+x-y,1/6+z
31 2/3-x,1/3-y,1/3-z
32 2/3+y,1/3-x+y,1/3-z
33 2/3+x-y,1/3+x,1/3-z
34 2/3-y,1/3-x,5/6+z
35 2/3-x+y,1/3+y,5/6+z
36 2/3+x,1/3+x-y,5/6+z
_cell_length_a                   26.8784(9)
_cell_length_b                   26.8784(9)
_cell_length_c                   15.4839(5)
_cell_angle_alpha                90
_cell_angle_beta                 90
_cell_angle_gamma                120
_cell_volume                     9687.64
loop_
_atom_site_label
_atom_site_type_symbol
_atom_site_fract_x
_atom_site_fract_y
_atom_site_fract_z
_atom_site_U_iso_or_equiv
_atom_site_thermal_displace_type
Mn1 Mn 0.6667 -0.008859(15) 0.0833 0.0092 Uani
Mn2 Mn 0.740489(15) 0.073822(15) -0.0833 0.0114 Uani
S1 S 0.560565(19) -0.057720(27) 0.10400(3) 0.0113 Uani
O1 O 0.65282(6) 0.03971(6) -0.02605(9) 0.0112 Uani
O2 O 0.60497(6) 0.00516(6) -0.15027(9) 0.0143 Uani
O3 O 0.76326(7) 0.15758(7) -0.03863(10) 0.0215 Uani
C1 C 0.55170(8) 0.00686(8) -0.03183(12) 0.0111 Uani
C2 C 0.60697(8) 0.01719(8) -0.07226(12) 0.0104 Uani
C3 C 0.52218(8) 0.02928(8) -0.07605(12) 0.0122 Uani
H1 H 0.5377 0.0492 -0.1287 0.0150 Uiso
C4 C 0.52946(8) -0.02356(11) 0.04576(12) 0.0114 Uani
C5 C 0.74622(10) 0.17058(10) 0.02595(16) 0.0220 Uani
H2 H 0.7169 0.1406 0.0594 0.0260 Uiso
N1 N 0.76655(10) 0.22450(9) 0.05184(16) 0.0300 Uani
C6 C 0.81397(15) 0.27157(12) 0.0067(3) 0.0480 Uani
H3 H 0.8275 0.2563 -0.0393 0.0720 Uiso
H4 H 0.8454 0.2936 0.0474 0.0720 Uiso
H5 H 0.8011 0.2967 -0.0184 0.0720 Uiso
C7 C 0.74525(13) 0.23732(14) 0.1293(2) 0.0405 Uani
H6 H 0.7145 0.2016 0.1542 0.0610 Uiso
H7 H 0.7302 0.2629 0.1152 0.0610 Uiso
H8 H 0.7766 0.2562 0.1712 0.0610 Uiso
S1R S 0.439435(19) 0.057720(27) -0.10400(3) 0.0113 Uani
O1R O 0.34718(6) -0.03971(6) 0.02605(9) 0.0112 Uani
O2R O 0.39503(6) -0.00516(6) 0.15027(9) 0.0143 Uani
C1R C 0.44830(8) -0.00686(8) 0.03183(12) 0.0111 Uani
C2R C 0.39303(8) -0.01719(8) 0.07226(12) 0.0104 Uani
C3R C 0.47782(8) -0.02928(8) 0.07605(12) 0.0122 Uani
H1R H 0.4623 -0.0492 0.1287 0.0150 Uiso
C4R C 0.47054(8) 0.02356(11) -0.04576(12) 0.0114 Uani
O3I O 0.82425(7) 0.09659(7) -0.12804(10) 0.0215 Uani
C5I C 0.83725(10) 0.07955(10) -0.19262(16) 0.0220 Uani
H2I H 0.8073 0.0502 -0.2261 0.0260 Uiso
N1I N 0.89117(9) 0.09988(10) -0.21851(16) 0.0300 Uani
C6I C 0.93824(12) 0.14730(15) -0.1734(3) 0.0480 Uani
H3I H 0.9230 0.1608 -0.1274 0.0720 Uiso
H4I H 0.9603 0.1787 -0.2141 0.0720 Uiso
H5I H 0.9634 0.1344 -0.1483 0.0720 Uiso
C7I C 0.90399(14) 0.07858(13) -0.2960(2) 0.0405 Uani
H6I H 0.8683 0.0478 -0.3209 0.0610 Uiso
H7I H 0.9296 0.0635 -0.2819 0.0610 Uiso
H8I H 0.9229 0.1099 -0.3379 0.0610 Uiso
Mn1I Mn 0.657808(15) 0.0000 -0.2500 0.0092 Uani
Mn1R Mn 0.3333 0.008859(15) -0.0833 0.0092 Uani
Mn1FA Mn 0.342226(15) 0.0000 0.2500 0.0092 Uani
Mn2G Mn 0.592845(15) 0.000000(21) 0.2500 0.0114 Uani
Mn2R Mn 0.259511(15) -0.073822(15) 0.0833 0.0114 Uani
Mn2IA Mn 0.407156(15) 0.000000(21) -0.2500 0.0114 Uani
S1N S 0.715048(33) 0.106102(19) -0.22933(3) 0.0113 Uani
S1Q S 0.772768(19) 0.048382(33) 0.06267(3) 0.0113 Uani
O1I O 0.70638(6) -0.01385(6) -0.14062(9) 0.0112 Uani
O1Q O 0.68051(6) 0.05356(8) 0.19272(9) 0.0112 Uani
O2G O 0.66151(6) -0.06686(8) 0.18306(9) 0.0143 Uani
O2I O 0.67183(6) -0.06170(6) -0.01640(9) 0.0143 Uani
loop_
_atom_site_aniso_label
_atom_site_aniso_U_11
_atom_site_aniso_U_22
_atom_site_aniso_U_33
_atom_site_aniso_U_23
_atom_site_aniso_U_13
_atom_site_aniso_U_12
Mn1 0.01031(19) 0.01025(15) 0.00696(19) 0.00000(6) 0.00001(13) 0.00515(9)
Mn2 0.01120(15) 0.01120(15) 0.0094(2) 0.00030(7) -0.00030(7) 0.00372(15)
S1 0.0112 0.01346 0.0098 0.0011 2e-05 0.00658
O1 0.0103(6) 0.0128(6) 0.0104(6) 0.0001(5) -0.0003(5) 0.0056(5)
O2 0.0129 0.0211 0.0097 -0.0014 0.001 0.0092
O3 0.0281(8) 0.0148(7) 0.0186(7) -0.0026(6) -0.0066(6) 0.0085(6)
C1 0.0102(8) 0.0148(8) 0.0087(7) -0.0010(6) 0.0003(6) 0.0065(7)
C2 0.0116(8) 0.0121(8) 0.0092(8) 0.0024(6) 0.0023(6) 0.0071(7)
C3 0.0125(8) 0.0165(8) 0.0083(7) 0.0009(6) 0.0015(6) 0.0078(7)
C4 0.0122 0.015 0.0086 -0.0003 -0.001 0.0079
C5 0.0217(10) 0.0180(10) 0.0256(11) -0.0023(8) -0.0060(8) 0.0095(8)
N1 0.0296(11) 0.0229(10) 0.0390(12) -0.0087(9) -0.0023(9) 0.0143(9)
C6 0.0430(17) 0.0177(12) 0.076(2) -0.0049(13) 0.0094(16) 0.0098(12)
C7 0.0348(14) 0.0408(15) 0.0515(18) -0.0207(13) -0.0073(12) 0.0231(13)
S1R 0.0112 0.01346 0.0098 0.0011 2e-05 0.00658
O1R 0.0103 0.0128 0.0104 0.0001 -0.0003 0.0056
O2R 0.0129 0.0211 0.0097 -0.0014 0.001 0.0092
C1R 0.0102 0.0148 0.0087 -0.001 0.0003 0.0065
C2R 0.0116 0.0121 0.0092 0.0024 0.0023 0.0071
C3R 0.0125 0.0165 0.0083 0.0009 0.0015 0.0078
C4R 0.0122 0.015 0.0086 -0.0003 -0.001 0.0079
O3I 0.0148 0.0281 0.0186 0.0066 0.0026 0.0085
C5I 0.018 0.0217 0.0256 0.006 0.0023 0.0095
N1I 0.0229 0.0296 0.039 0.0023 0.0087 0.0143
C6I 0.0177 0.043 0.076 -0.0094 0.0049 0.0098
C7I 0.0408 0.0348 0.0515 0.0073 0.0207 0.0231
Mn1I 0.01025 0.01031 0.00696 -1e-05 0 0.00515
Mn1R 0.01031 0.01025 0.00696 0 1e-05 0.00515
Mn1FA 0.01026 0.01031 0.00696 -1e-05 -1e-05 0.00516
Mn2G 0.0112 0.01496 0.0094 -0.0006 -0.0003 0.00748
Mn2R 0.0112 0.0112 0.0094 0.0003 -0.0003 0.00372
Mn2IA 0.0112 0.01496 0.0094 -0.0006 -0.0003 0.00748
S1N 0.0115 0.0112 0.0098 -2e-05 0.00108 0.00462
S1Q 0.0112 0.0115 0.0098 -0.00108 2e-05 0.00462
O1I 0.0128 0.0103 0.0104 0.0003 -0.0001 0.0056
O1Q 0.0103 0.0119 0.0104 -0.0004 -0.0003 0.0047
O2G 0.0211 0.0156 0.0097 0.0024 0.0014 0.0119
O2I 0.0211 0.0129 0.0097 -0.001 0.0014 0.0092
loop_
_geom_bond_atom_site_label_1
_geom_bond_atom_site_label_2
_geom_bond_site_symmetry_1
_geom_bond_site_symmetry_2
Mn1 S1 1_555 1_555
Mn2 O1 1_555 1_555
S1 C4 1_555 1_555
O1 Mn1 1_555 1_555
O2 C2 1_555 1_555
O3 Mn2 1_555 1_555
C1 C2 1_555 1_555
C2 O1 1_555 1_555
C3 C1 1_555 1_555
H1 C3 1_555 1_555
C4 C1 1_555 1_555
C5 O3 1_555 1_555
H2 C5 1_555 1_555
N1 C5 1_555 1_555
C6 N1 1_555 1_555
H3 C6 1_555 1_555
H4 C6 1_555 1_555
H5 C6 1_555 1_555
C7 N1 1_555 1_555
H6 C7 1_555 1_555
H7 C7 1_555 1_555
H8 C7 1_555 1_555
S1R C4R 1_555 1_555
O1R C2R 1_555 1_555
O2R C2R 1_555 1_555
C1R C2R 1_555 1_555
C3R C4 1_555 1_555
H1R C3R 1_555 1_555
C4R C3 1_555 1_555
O3I Mn2 1_555 1_555
C5I O3I 1_555 1_555
H2I C5I 1_555 1_555
N1I C5I 1_555 1_555
C6I N1I 1_555 1_555
H3I C6I 1_555 1_555
H4I C6I 1_555 1_555
H5I C6I 1_555 1_555
C7I N1I 1_555 1_555
H6I C7I 1_555 1_555
H7I C7I 1_555 1_555
H8I C7I 1_555 1_555
Mn1I O2 1_555 1_555
Mn1R S1R 1_555 1_555
Mn1FA O2R 1_555 1_555
Mn2G S1 1_555 1_555
Mn2R O1R 1_555 1_555
Mn2IA S1R 1_555 1_555
S1N Mn2 1_555 1_555
S1Q Mn1 1_555 1_555
O1I Mn2 1_555 1_555
O1Q Mn1 1_555 1_555
O2G Mn1 1_555 1_555
O2I Mn1 1_555 1_555
Mn2 S1Q 1_555 1_555
O1R Mn1R 1_555 1_555
C1R C3R 1_555 1_555
C1R C4R 1_555 1_555
Mn1I S1N 1_555 1_555
Mn1I O1I 1_555 1_555
Mn2G O1Q 1_555 1_555

#END
