
#######################################################################
#
#                 Cambridge Crystallographic Data Centre
#                                CCDC 
#
#######################################################################
#
# If this CIF has been generated from an entry in the Cambridge 
# Structural Database, then it will include bibliographic, chemical, 
# crystal, experimental, refinement or atomic coordinate data resulting 
# from the CCDC's data processing and validation procedures.
#
#######################################################################

data_DEYJOI
_chemical_formula_moiety         '(C36 H38 Co2 N6 O16 V4)n'
_symmetry_cell_setting           triclinic
_symmetry_space_group_name_H-M   'P -1'
_symmetry_Int_Tables_number      2
_space_group_name_Hall           '-P 1'
loop_
_symmetry_equiv_pos_site_id
_symmetry_equiv_pos_as_xyz
1 x,y,z
2 -x,-y,-z
_cell_length_a                   7.7745(2)
_cell_length_b                   11.46350(10)
_cell_length_c                   13.5377(2)
_cell_angle_alpha                96.8030(10)
_cell_angle_beta                 105.710(2)
_cell_angle_gamma                99.225(2)
_cell_volume                     1129.67
loop_
_atom_site_label
_atom_site_type_symbol
_atom_site_fract_x
_atom_site_fract_y
_atom_site_fract_z
N1 N 0.0244(2) -0.00610(12) 0.15741(10)
C1 C -0.0361(3) 0.07378(17) 0.21265(14)
H1 H -0.0781 0.1361 0.1816
C2 C -0.0393(3) 0.06843(19) 0.31310(14)
H2 H -0.082 0.1264 0.3487
C3 C 0.0219(3) -0.02451(18) 0.36118(13)
C4 C 0.0853(3) -0.10696(17) 0.30377(13)
H3 H 0.1271 -0.1707 0.3324
C5 C 0.0858(2) -0.09375(15) 0.20336(12)
H4 H 0.1313 -0.1488 0.1665
C6 C 0.0202(3) -0.0382(2) 0.46695(14)
H5 H 0.0508 -0.1077 0.4895
N2 N 0.3239(2) 0.50235(15) -0.14954(12)
C7 C 0.2909(2) 0.41293(15) -0.23002(12)
H6 H 0.3367 0.3443 -0.2173
C8 C 0.1926(4) 0.4193(3) -0.3322(2)
H7 H 0.1805 0.358 -0.3866
C9 C 0.1132(4) 0.5184(3) -0.35140(19)
C10 C 0.1409(4) 0.6063(3) -0.2655(2)
H8 H 0.0864 0.6725 -0.2734
C11 C 0.2485(5) 0.5964(3) -0.1685(2)
H9 H 0.2692 0.659 -0.1136
C12 C 0.0063(3) 0.5330(2) -0.45466(17)
H10 H -0.0591 0.5943 -0.4573
Co1 Co 0.500 0.500 0.000
Co2 Co 0.000 0.000 0.000
O1 O 0.34591(16) 0.59634(10) 0.06739(9)
O2 O 0.34944(15) 0.33652(10) 0.01021(9)
O3 O -0.00154(16) 0.36742(11) -0.08305(9)
O4 O 0.06195(17) 0.18436(10) 0.03318(9)
O5 O 0.15265(17) 0.42152(10) 0.14120(8)
O6 O 0.30457(18) 0.65558(11) 0.25644(9)
O7 O 0.27553(19) 0.00080(15) 0.02469(12)
V1 V 0.14243(3) 0.32339(2) 0.025226(19)
V2 V 0.20555(3) 0.58047(2) 0.139561(18)
H11 H 0.309(4) -0.058(3) 0.024(2)
H12 H 0.330(4) 0.045(3) -0.006(2)
N1A N -0.0244(2) 0.00610(12) 0.84259(10)
C1A C 0.0361(3) -0.07378(17) 0.78735(14)
H1A H 0.0781 -0.1361 0.8184
C2A C 0.0393(3) -0.06843(19) 0.68690(14)
H2A H 0.082 -0.1264 0.6513
C3A C -0.0219(3) 0.02451(18) 0.63882(13)
C4A C -0.0853(3) 0.10696(17) 0.69623(13)
H3A H -0.1271 0.1707 0.6676
C5A C -0.0858(2) 0.09375(15) 0.79664(12)
H4A H -0.1313 0.1488 0.8335
C6A C -0.0202(3) 0.0382(2) 0.53305(14)
H5A H -0.0508 0.1077 0.5105
N2A N -0.3239(2) 0.49765(15) -0.85046(12)
C7A C -0.2909(2) 0.58707(15) -0.76998(12)
H6A H -0.3367 0.6557 -0.7827
C8A C -0.1926(4) 0.5807(3) -0.6678(2)
H7A H -0.1805 0.642 -0.6134
C9A C -0.1132(4) 0.4816(3) -0.64860(19)
C10A C -0.1409(4) 0.3937(3) -0.7345(2)
H8A H -0.0864 0.3275 -0.7266
C11A C -0.2485(5) 0.4036(3) -0.8315(2)
H9A H -0.2692 0.341 -0.8864
C12A C -0.0063(3) 0.4670(2) -0.54534(17)
H10A H 0.0591 0.4057 -0.5427
O1A O -0.34591(16) -0.59634(10) -0.06739(9)
O2A O -0.34944(15) -0.33652(10) -0.01021(9)
O3A O 0.00154(16) -0.36742(11) 0.08305(9)
O4A O -0.06195(17) -0.18436(10) -0.03318(9)
O5A O -0.15265(17) -0.42152(10) -0.14120(8)
O6A O -0.30457(18) -0.65558(11) -0.25644(9)
O7A O -0.27553(19) -0.00080(15) -0.02469(12)
V1A V -0.14243(3) -0.32339(2) -0.025226(19)
V2A V -0.20555(3) -0.58047(2) -0.139561(18)
H11A H -0.309(4) 0.058(3) -0.024(2)
H12A H -0.330(4) -0.045(3) 0.006(2)
N1A_2 N -0.0244(2) 0.00610(12) -0.15741(10)
N2A_2 N 0.6761(2) 0.49765(15) 0.14954(12)
Co1_2 Co -0.500 -0.500 0.000
Co1_3 Co -0.500 0.500 -1.000
Co2_2 Co 0.000 0.000 1.000
O1A_2 O 0.65409(16) 0.40366(10) -0.06739(9)
O2A_2 O 0.65056(15) 0.66348(10) -0.01021(9)
O3_2 O -0.00154(16) -0.63258(11) -0.08305(9)
O3A_2 O 0.00154(16) 0.63258(11) 0.08305(9)
V2_2 V 0.20555(3) -0.41953(2) 0.139561(18)
V2A_2 V -0.20555(3) 0.41953(2) -0.139561(18)
N4 N 0.5014(3) 0.10679(17) 0.35411(16)
C19 C 0.5455(4) 0.1544(2) 0.4541(2)
H18 H 0.5852 0.1063 0.5028
C20 C 0.5367(4) 0.2697(2) 0.49073(16)
H19 H 0.5687 0.2971 0.562
C21 C 0.4796(3) 0.34500(17) 0.42058(14)
C22 C 0.4330(3) 0.2952(2) 0.31605(15)
H20 H 0.3934 0.3411 0.2654
C23 C 0.4450(3) 0.1782(2) 0.28670(17)
H21 H 0.4118 0.1475 0.216
C24 C 0.4708(2) 0.46924(15) 0.45099(12)
H22 H 0.4205 0.5098 0.3982
N4A N 0.4986(3) 0.89321(17) 0.64589(16)
C19A C 0.4545(4) 0.8456(2) 0.5459(2)
H18A H 0.4148 0.8937 0.4972
C20A C 0.4633(4) 0.7303(2) 0.50927(16)
H19A H 0.4313 0.7029 0.438
C21A C 0.5204(3) 0.65500(17) 0.57942(14)
C22A C 0.5670(3) 0.7048(2) 0.68395(15)
H20A H 0.6066 0.6589 0.7346
C23A C 0.5550(3) 0.8218(2) 0.71330(17)
H21A H 0.5882 0.8525 0.784
C24A C 0.5292(2) 0.53076(15) 0.54901(12)
H22A H 0.5795 0.4902 0.6018
O8 O 0.5301(2) 0.86097(14) 0.07546(15)
H23 H 0.544(5) 0.798(2) 0.054(3)
H24 H 0.551(5) 0.870(3) 0.1371(15)
O9 O 0.5626(3) 0.87488(17) 0.28218(16)
H25 H 0.553(4) 0.9383(19) 0.310(2)
H26 H 0.492(4) 0.820(2) 0.288(3)
loop_
_geom_bond_atom_site_label_1
_geom_bond_atom_site_label_2
_geom_bond_site_symmetry_1
_geom_bond_site_symmetry_2
N1 C1 1_555 1_555
C1 H1 1_555 1_555
C2 C1 1_555 1_555
H2 C2 1_555 1_555
C3 C2 1_555 1_555
C4 C3 1_555 1_555
H3 C4 1_555 1_555
C5 N1 1_555 1_555
H4 C5 1_555 1_555
C6 C3 1_555 1_555
H5 C6 1_555 1_555
N2 C7 1_555 1_555
C7 H6 1_555 1_555
C8 C7 1_555 1_555
H7 C8 1_555 1_555
C9 C8 1_555 1_555
C10 C9 1_555 1_555
H8 C10 1_555 1_555
C11 N2 1_555 1_555
H9 C11 1_555 1_555
C12 C9 1_555 1_555
H10 C12 1_555 1_555
Co1 N2 1_555 1_555
Co2 N1 1_555 1_555
O1 Co1 1_555 1_555
O2 Co1 1_555 1_555
O3 V1 1_555 1_555
O4 Co2 1_555 1_555
O5 V1 1_555 1_555
O6 V2 1_555 1_555
O7 Co2 1_555 1_555
V1 O2 1_555 1_555
V2 O1 1_555 1_555
H11 O7 1_555 1_555
H12 O7 1_555 1_555
N4 C19 1_555 1_555
C19 H18 1_555 1_555
C20 C19 1_555 1_555
H19 C20 1_555 1_555
C21 C20 1_555 1_555
C22 C21 1_555 1_555
H20 C22 1_555 1_555
C23 N4 1_555 1_555
H21 C23 1_555 1_555
C24 C21 1_555 1_555
H22 C24 1_555 1_555
O8 H23 1_555 1_555
H24 O8 1_555 1_555
O9 H25 1_555 1_555
H26 O9 1_555 1_555
N1A C1A 1_555 1_555
C1A H1A 1_555 1_555
C2A C1A 1_555 1_555
H2A C2A 1_555 1_555
C3A C2A 1_555 1_555
C4A C3A 1_555 1_555
H3A C4A 1_555 1_555
C5A N1A 1_555 1_555
H4A C5A 1_555 1_555
C6A C6 1_555 1_555
H5A C6A 1_555 1_555
N2A C7A 1_555 1_555
C7A H6A 1_555 1_555
C8A C7A 1_555 1_555
H7A C8A 1_555 1_555
C9A C8A 1_555 1_555
C10A C9A 1_555 1_555
H8A C10A 1_555 1_555
C11A N2A 1_555 1_555
H9A C11A 1_555 1_555
C12A C12 1_555 1_555
H10A C12A 1_555 1_555
O1A V2A 1_555 1_555
O2A V1A 1_555 1_555
O3A V1A 1_555 1_555
O4A Co2 1_555 1_555
O5A V1A 1_555 1_555
O6A V2A 1_555 1_555
O7A Co2 1_555 1_555
V1A O4A 1_555 1_555
V2A O5A 1_555 1_555
H11A O7A 1_555 1_555
H12A O7A 1_555 1_555
N1A_2 Co2 1_555 1_555
N2A_2 Co1 1_555 1_555
Co1_2 O1A 1_555 1_555
Co1_3 N2A 1_555 1_555
Co2_2 N1A 1_555 1_555
O1A_2 Co1 1_555 1_555
O2A_2 Co1 1_555 1_555
O3_2 V2A 1_555 1_555
O3A_2 V2 1_555 1_555
V2_2 O3A 1_555 1_555
V2A_2 O3 1_555 1_555
N4A C19A 1_555 1_555
C19A H18A 1_555 1_555
C20A C19A 1_555 1_555
H19A C20A 1_555 1_555
C21A C20A 1_555 1_555
C22A C21A 1_555 1_555
H20A C22A 1_555 1_555
C23A N4A 1_555 1_555
H21A C23A 1_555 1_555
C24A C24 1_555 1_555
H22A C24A 1_555 1_555
C4 C5 1_555 1_555
C10 C11 1_555 1_555
O4 V1 1_555 1_555
O5 V2 1_555 1_555
C22 C23 1_555 1_555
C3A C6A 1_555 1_555
C4A C5A 1_555 1_555
C9A C12A 1_555 1_555
C10A C11A 1_555 1_555
O2A Co1_2 1_555 1_555
C21A C24A 1_555 1_555
C22A C23A 1_555 1_555

#END
