
#######################################################################
#
#                 Cambridge Crystallographic Data Centre
#                                CCDC 
#
#######################################################################
#
# If this CIF has been generated from an entry in the Cambridge 
# Structural Database, then it will include bibliographic, chemical, 
# crystal, experimental, refinement or atomic coordinate data resulting 
# from the CCDC's data processing and validation procedures.
#
#######################################################################

data_DEYJIC
_chemical_formula_moiety         '(C36 H38 N6 Ni2 O16 V4)n'
_symmetry_cell_setting           triclinic
_symmetry_space_group_name_H-M   'P -1'
_symmetry_Int_Tables_number      2
_space_group_name_Hall           '-P 1'
loop_
_symmetry_equiv_pos_site_id
_symmetry_equiv_pos_as_xyz
1 x,y,z
2 -x,-y,-z
_cell_length_a                   7.7086(3)
_cell_length_b                   11.4007(4)
_cell_length_c                   13.4990(3)
_cell_angle_alpha                96.395(2)
_cell_angle_beta                 105.619(3)
_cell_angle_gamma                99.339(3)
_cell_volume                     1112.28
loop_
_atom_site_label
_atom_site_type_symbol
_atom_site_fract_x
_atom_site_fract_y
_atom_site_fract_z
N1 N 0.0206(2) -0.00687(13) 0.15505(11)
C1 C -0.0457(3) 0.07144(16) 0.20918(13)
H1 H -0.0914 0.1328 0.1771
C2 C -0.0494(3) 0.06552(16) 0.31037(14)
H2 H -0.0956 0.1222 0.3453
C3 C 0.0172(3) -0.02681(16) 0.35957(13)
C4 C 0.0856(3) -0.10815(16) 0.30295(13)
H3 H 0.1298 -0.1714 0.3324
C5 C 0.0872(2) -0.09417(15) 0.20227(13)
H4 H 0.1367 -0.1477 0.1662
C6 C 0.0170(3) -0.04053(17) 0.46642(14)
H5 H 0.0427 -0.1117 0.4889
N2 N 0.32764(19) 0.50207(13) -0.14906(11)
C7 C 0.2977(2) 0.41307(16) -0.22992(13)
H6 H 0.3485 0.3455 -0.2178
C8 C 0.1947(2) 0.41758(16) -0.33037(13)
H7 H 0.1795 0.3547 -0.3841
C9 C 0.1136(2) 0.51703(16) -0.35076(13)
C10 C 0.1393(2) 0.60633(16) -0.26571(14)
H8 H 0.0841 0.6726 -0.2747
C11 C 0.2472(2) 0.59645(16) -0.16766(13)
H9 H 0.2645 0.658 -0.1125
C12 C 0.0054(2) 0.53273(17) -0.45471(14)
H10 H -0.0614 0.5939 -0.4574
Ni1 Ni 0.500 0.500 0.000
Ni2 Ni 0.000 0.000 0.000
O1 O 0.34701(16) 0.59564(11) 0.06755(9)
O2 O 0.35308(16) 0.33542(10) 0.01090(9)
O3 O 0.00041(16) 0.36830(11) -0.08418(9)
O4 O 0.05915(17) 0.18331(11) 0.03300(9)
O5 O 0.15249(17) 0.41966(11) 0.14222(9)
O6 O 0.30706(17) 0.65468(11) 0.25838(9)
O7 O 0.27842(17) 0.00349(12) 0.02852(10)
V1 V 0.14293(4) 0.32289(2) 0.02534(2)
V2 V 0.20598(4) 0.57960(2) 0.14078(2)
H11 H 0.331(4) -0.050(3) 0.036(2)
H12 H 0.337(4) 0.046(3) -0.007(2)
N1A N -0.0206(2) 0.00687(13) 0.84495(11)
C1A C 0.0457(3) -0.07144(16) 0.79082(13)
H1A H 0.0914 -0.1328 0.8229
C2A C 0.0494(3) -0.06552(16) 0.68963(14)
H2A H 0.0956 -0.1222 0.6547
C3A C -0.0172(3) 0.02681(16) 0.64043(13)
C4A C -0.0856(3) 0.10815(16) 0.69705(13)
H3A H -0.1298 0.1714 0.6676
C5A C -0.0872(2) 0.09417(15) 0.79773(13)
H4A H -0.1367 0.1477 0.8338
C6A C -0.0170(3) 0.04053(17) 0.53358(14)
H5A H -0.0427 0.1117 0.5111
N2A N -0.32764(19) 0.49793(13) -0.85094(11)
C7A C -0.2977(2) 0.58693(16) -0.77008(13)
H6A H -0.3485 0.6545 -0.7822
C8A C -0.1947(2) 0.58242(16) -0.66963(13)
H7A H -0.1795 0.6453 -0.6159
C9A C -0.1136(2) 0.48297(16) -0.64924(13)
C10A C -0.1393(2) 0.39367(16) -0.73429(14)
H8A H -0.0841 0.3274 -0.7253
C11A C -0.2472(2) 0.40355(16) -0.83234(13)
H9A H -0.2645 0.342 -0.8875
C12A C -0.0054(2) 0.46727(17) -0.54529(14)
H10A H 0.0614 0.4061 -0.5426
O1A O -0.34701(16) -0.59564(11) -0.06755(9)
O2A O -0.35308(16) -0.33542(10) -0.01090(9)
O3A O -0.00041(16) -0.36830(11) 0.08418(9)
O4A O -0.05915(17) -0.18331(11) -0.03300(9)
O5A O -0.15249(17) -0.41966(11) -0.14222(9)
O6A O -0.30706(17) -0.65468(11) -0.25838(9)
O7A O -0.27842(17) -0.00349(12) -0.02852(10)
V1A V -0.14293(4) -0.32289(2) -0.02534(2)
V2A V -0.20598(4) -0.57960(2) -0.14078(2)
H11A H -0.331(4) 0.050(3) -0.036(2)
H12A H -0.337(4) -0.046(3) 0.007(2)
N1A_2 N -0.0206(2) 0.00687(13) -0.15505(11)
N2A_2 N 0.67236(19) 0.49793(13) 0.14906(11)
Ni1_2 Ni -0.500 -0.500 0.000
Ni1_3 Ni -0.500 0.500 -1.000
Ni2_2 Ni 0.000 0.000 1.000
O1A_2 O 0.65299(16) 0.40436(11) -0.06755(9)
O2A_2 O 0.64692(16) 0.66458(10) -0.01090(9)
O3_2 O 0.00041(16) -0.63170(11) -0.08418(9)
O3A_2 O -0.00041(16) 0.63170(11) 0.08418(9)
V2_2 V 0.20598(4) -0.42040(2) 0.14078(2)
V2A_2 V -0.20598(4) 0.42040(2) -0.14078(2)
N3 N 0.5016(2) 0.10442(14) 0.35342(13)
C13 C 0.5507(3) 0.15234(18) 0.45449(16)
H13 H 0.5921 0.1038 0.5031
C14 C 0.5440(3) 0.26916(18) 0.49149(15)
H14 H 0.5806 0.2974 0.5628
C15 C 0.4813(2) 0.34440(16) 0.42001(14)
C16 C 0.4287(3) 0.29440(17) 0.31473(14)
H15 H 0.385 0.3403 0.2642
C17 C 0.4413(3) 0.17643(17) 0.28521(14)
H16 H 0.4062 0.1456 0.2144
C18 C 0.4706(3) 0.47001(16) 0.45113(14)
H17 H 0.4186 0.5112 0.3986
N3A N 0.4984(2) 0.89558(14) 0.64658(13)
C13A C 0.4493(3) 0.84766(18) 0.54551(16)
H13A H 0.4079 0.8962 0.4969
C14A C 0.4560(3) 0.73084(18) 0.50851(15)
H14A H 0.4194 0.7026 0.4372
C15A C 0.5187(2) 0.65560(16) 0.57999(14)
C16A C 0.5713(3) 0.70560(17) 0.68527(14)
H15A H 0.615 0.6597 0.7358
C17A C 0.5587(3) 0.82357(17) 0.71479(14)
H16A H 0.5938 0.8544 0.7856
C18A C 0.5294(3) 0.52999(16) 0.54887(14)
H17A H 0.5814 0.4888 0.6014
O8 O 0.53022(19) 0.86064(12) 0.07533(11)
H18 H 0.538(4) 0.800(3) 0.054(2)
H19 H 0.548(4) 0.864(3) 0.139(3)
O9 O 0.5645(2) 0.87299(13) 0.28160(11)
H20 H 0.542(4) 0.937(3) 0.309(2)
H21 H 0.488(4) 0.820(3) 0.294(2)
loop_
_geom_bond_atom_site_label_1
_geom_bond_atom_site_label_2
_geom_bond_site_symmetry_1
_geom_bond_site_symmetry_2
N1 C1 1_555 1_555
C1 H1 1_555 1_555
C2 C1 1_555 1_555
H2 C2 1_555 1_555
C3 C2 1_555 1_555
C4 C3 1_555 1_555
H3 C4 1_555 1_555
C5 N1 1_555 1_555
H4 C5 1_555 1_555
C6 C3 1_555 1_555
H5 C6 1_555 1_555
N2 C7 1_555 1_555
C7 H6 1_555 1_555
C8 C7 1_555 1_555
H7 C8 1_555 1_555
C9 C8 1_555 1_555
C10 C9 1_555 1_555
H8 C10 1_555 1_555
C11 N2 1_555 1_555
H9 C11 1_555 1_555
C12 C9 1_555 1_555
H10 C12 1_555 1_555
Ni1 N2 1_555 1_555
Ni2 N1 1_555 1_555
O1 Ni1 1_555 1_555
O2 Ni1 1_555 1_555
O3 V1 1_555 1_555
O4 Ni2 1_555 1_555
O5 V1 1_555 1_555
O6 V2 1_555 1_555
O7 Ni2 1_555 1_555
V1 O2 1_555 1_555
V2 O1 1_555 1_555
H11 O7 1_555 1_555
H12 O7 1_555 1_555
N3 C13 1_555 1_555
C13 H13 1_555 1_555
C14 C13 1_555 1_555
H14 C14 1_555 1_555
C15 C14 1_555 1_555
C16 C15 1_555 1_555
H15 C16 1_555 1_555
C17 N3 1_555 1_555
H16 C17 1_555 1_555
C18 C15 1_555 1_555
H17 C18 1_555 1_555
O8 H18 1_555 1_555
H19 O8 1_555 1_555
O9 H20 1_555 1_555
H21 O9 1_555 1_555
N1A C1A 1_555 1_555
C1A H1A 1_555 1_555
C2A C1A 1_555 1_555
H2A C2A 1_555 1_555
C3A C2A 1_555 1_555
C4A C3A 1_555 1_555
H3A C4A 1_555 1_555
C5A N1A 1_555 1_555
H4A C5A 1_555 1_555
C6A C6 1_555 1_555
H5A C6A 1_555 1_555
N2A C7A 1_555 1_555
C7A H6A 1_555 1_555
C8A C7A 1_555 1_555
H7A C8A 1_555 1_555
C9A C8A 1_555 1_555
C10A C9A 1_555 1_555
H8A C10A 1_555 1_555
C11A N2A 1_555 1_555
H9A C11A 1_555 1_555
C12A C12 1_555 1_555
H10A C12A 1_555 1_555
O1A V2A 1_555 1_555
O2A V1A 1_555 1_555
O3A V1A 1_555 1_555
O4A Ni2 1_555 1_555
O5A V1A 1_555 1_555
O6A V2A 1_555 1_555
O7A Ni2 1_555 1_555
V1A O4A 1_555 1_555
V2A O5A 1_555 1_555
H11A O7A 1_555 1_555
H12A O7A 1_555 1_555
N1A_2 Ni2 1_555 1_555
N2A_2 Ni1 1_555 1_555
Ni1_2 O1A 1_555 1_555
Ni1_3 N2A 1_555 1_555
Ni2_2 N1A 1_555 1_555
O1A_2 Ni1 1_555 1_555
O2A_2 Ni1 1_555 1_555
O3_2 V2A 1_555 1_555
O3A_2 V2 1_555 1_555
V2_2 O3A 1_555 1_555
V2A_2 O3 1_555 1_555
N3A C13A 1_555 1_555
C13A H13A 1_555 1_555
C14A C13A 1_555 1_555
H14A C14A 1_555 1_555
C15A C14A 1_555 1_555
C16A C15A 1_555 1_555
H15A C16A 1_555 1_555
C17A N3A 1_555 1_555
H16A C17A 1_555 1_555
C18A C18 1_555 1_555
H17A C18A 1_555 1_555
C4 C5 1_555 1_555
C10 C11 1_555 1_555
O4 V1 1_555 1_555
O5 V2 1_555 1_555
C16 C17 1_555 1_555
C3A C6A 1_555 1_555
C4A C5A 1_555 1_555
C9A C12A 1_555 1_555
C10A C11A 1_555 1_555
O2A Ni1_2 1_555 1_555
C15A C18A 1_555 1_555
C16A C17A 1_555 1_555

#END
