
#######################################################################
#
#                 Cambridge Crystallographic Data Centre
#                                CCDC 
#
#######################################################################
#
# If this CIF has been generated from an entry in the Cambridge 
# Structural Database, then it will include bibliographic, chemical, 
# crystal, experimental, refinement or atomic coordinate data resulting 
# from the CCDC's data processing and validation procedures.
#
#######################################################################

data_SARMII
_chemical_formula_moiety         '(C36 H26 Gd2 O16)n'
_symmetry_cell_setting           tetragonal
_symmetry_space_group_name_H-M   'I 41 c d'
_symmetry_Int_Tables_number      110
_space_group_name_Hall           'I 4bw -2c'
loop_
_symmetry_equiv_pos_site_id
_symmetry_equiv_pos_as_xyz
1 x,y,z
2 1/2-x,1/2-y,1/2+z
3 -y,1/2+x,1/4+z
4 1/2+y,-x,3/4+z
5 x,-y,1/2+z
6 1/2-x,1/2+y,z
7 -y,1/2-x,3/4+z
8 1/2+y,x,1/4+z
9 1/2+x,1/2+y,1/2+z
10 -x,-y,z
11 1/2-y,x,3/4+z
12 y,1/2-x,1/4+z
13 1/2+x,1/2-y,z
14 -x,y,1/2+z
15 1/2-y,-x,1/4+z
16 y,1/2+x,3/4+z
_cell_length_a                   30.408(5)
_cell_length_b                   30.408(5)
_cell_length_c                   15.747(5)
_cell_angle_alpha                90
_cell_angle_beta                 90
_cell_angle_gamma                90
_cell_volume                     14560.4
loop_
_atom_site_label
_atom_site_type_symbol
_atom_site_fract_x
_atom_site_fract_y
_atom_site_fract_z
_atom_site_U_iso_or_equiv
_atom_site_thermal_displace_type
Gd1 Gd 0.476761(11) 0.269985(11) 0.681706(18) 0.0225 Uani
Gd2 Gd 0.471341(11) 0.277588(10) 0.936843(19) 0.0205 Uani
O1 O 0.45316(15) 0.31794(15) 0.8111(3) 0.0243 Uani
O2 O 0.41399(15) 0.31634(16) 0.6954(3) 0.0343 Uani
O3 O 0.25979(17) 0.46626(17) 0.8227(3) 0.0287 Uani
O4 O 0.30394(16) 0.49583(19) 0.9174(4) 0.0447 Uani
O5 O 0.71001(16) 0.10887(16) 0.7017(4) 0.0367 Uani
O6 O 0.66636(17) 0.06399(17) 0.7695(3) 0.0323 Uani
O7 O 0.52311(16) 0.25523(17) 0.8036(4) 0.0327 Uani
O8 O 0.53832(16) 0.23255(16) 0.9318(4) 0.0373 Uani
O9 O 0.4299(2) 0.22930(18) 0.7657(4) 0.0490 Uani
O10 O 0.4471(2) 0.2085(2) 0.8940(4) 0.0533 Uani
O11 O 0.33354(17) 0.02964(15) 0.6695(4) 0.0347 Uani
O12 O 0.30804(17) 0.02519(16) 0.7969(3) 0.0263 Uani
C1 C 0.3912(2) 0.3678(2) 0.7984(5) 0.0233 Uani
C2 C 0.3482(3) 0.3639(3) 0.7762(5) 0.0287 Uani
H1 H 0.3385 0.3393 0.7464 0.0340 Uiso
C3 C 0.3181(3) 0.3975(3) 0.7989(5) 0.0297 Uani
H2 H 0.2887 0.3944 0.7838 0.0360 Uiso
C4 C 0.3309(2) 0.4338(2) 0.8419(5) 0.0227 Uani
C5 C 0.3757(3) 0.4387(2) 0.8677(5) 0.0317 Uani
C6 C 0.3920(3) 0.4746(3) 0.9170(6) 0.0480 Uani
H3 H 0.3726 0.4965 0.9342 0.0580 Uiso
C7 C 0.4354(2) 0.4777(3) 0.9397(7) 0.0590 Uani
H4 H 0.4450 0.5011 0.9728 0.0710 Uiso
C8 C 0.4650(3) 0.4457(3) 0.9128(7) 0.0627 Uani
H5 H 0.4946 0.4485 0.9268 0.0750 Uiso
C9 C 0.4516(3) 0.4107(3) 0.8668(6) 0.0477 Uani
H6 H 0.4722 0.3899 0.8497 0.0570 Uiso
C10 C 0.4066(3) 0.4049(2) 0.8437(5) 0.0267 Uani
C11 C 0.4208(2) 0.3320(2) 0.7663(4) 0.0227 Uani
C12 C 0.2966(2) 0.4669(2) 0.8624(5) 0.0283 Uani
C13 C 0.6458(2) 0.1403(3) 0.7716(5) 0.0270 Uani
C14 C 0.6097(3) 0.1278(3) 0.8197(6) 0.0433 Uani
H7 H 0.6061 0.0984 0.8344 0.0520 Uiso
C15 C 0.5788(3) 0.1586(3) 0.8462(6) 0.0463 Uani
H8 H 0.5557 0.1497 0.8808 0.0550 Uiso
C16 C 0.5818(3) 0.2022(3) 0.8222(5) 0.0337 Uani
C17 C 0.6179(3) 0.2164(3) 0.7750(5) 0.0360 Uani
C18 C 0.6227(3) 0.2602(3) 0.7515(7) 0.0543 Uani
H9 H 0.6016 0.2807 0.7677 0.0650 Uiso
C19 C 0.6578(3) 0.2733(3) 0.7056(8) 0.0810 Uani
H10 H 0.6597 0.3026 0.6894 0.0970 Uiso
C20 C 0.6912(3) 0.2448(4) 0.6813(11) 0.0883 Uani
H11 H 0.7156 0.2550 0.6515 0.1060 Uiso
C21 C 0.6874(3) 0.2010(3) 0.7027(7) 0.0553 Uani
H12 H 0.7092 0.1815 0.6856 0.0660 Uiso
C22 C 0.6513(3) 0.1850(3) 0.7496(5) 0.0330 Uani
C23 C 0.6761(3) 0.1032(3) 0.7467(5) 0.0290 Uani
C24 C 0.5459(2) 0.2321(2) 0.8541(5) 0.0297 Uani
C25 C 0.4070(3) 0.1589(2) 0.8066(6) 0.0337 Uani
C26 C 0.3709(3) 0.1601(3) 0.7561(6) 0.0533 Uani
H13 H 0.3623 0.1870 0.7336 0.0640 Uiso
C27 C 0.3461(3) 0.1232(3) 0.7365(6) 0.0480 Uani
H14 H 0.3209 0.1257 0.7036 0.0580 Uiso
C28 C 0.3594(3) 0.0825(3) 0.7665(5) 0.0313 Uani
C29 C 0.3979(3) 0.0793(3) 0.8176(5) 0.0297 Uani
C30 C 0.4116(3) 0.0383(3) 0.8488(6) 0.0517 Uani
H15 H 0.3956 0.0133 0.8348 0.0620 Uiso
C31 C 0.4477(3) 0.0342(3) 0.8988(7) 0.0637 Uani
H16 H 0.4567 0.0068 0.9181 0.0760 Uiso
C32 C 0.4715(3) 0.0724(3) 0.9211(7) 0.0660 Uani
H17 H 0.4959 0.0702 0.9564 0.0790 Uiso
C33 C 0.4586(3) 0.1131(3) 0.8905(6) 0.0503 Uani
H18 H 0.4751 0.1379 0.9044 0.0610 Uiso
C34 C 0.4211(3) 0.1178(3) 0.8389(5) 0.0330 Uani
C35 C 0.4299(3) 0.2015(3) 0.8248(6) 0.0400 Uani
C36 C 0.3333(2) 0.0435(2) 0.7436(5) 0.0243 Uani
O13 O 0.53057(15) 0.32738(15) 0.6794(4) 0.0380 Uani
O14 O 0.4234(2) 0.2325(2) 0.5853(4) 0.0520 Uani
Gd1N Gd 0.230015(11) 0.523239(11) 0.931706(18) 0.0225 Uani
Gd1K Gd 0.269985(11) 0.023239(11) 0.931706(18) 0.0225 Uani
Gd2J Gd 0.222412(10) 0.471341(11) 0.686843(19) 0.0205 Uani
Gd2F Gd 0.722412(10) 0.028659(11) 0.686843(19) 0.0205 Uani
Gd2O Gd 0.277588(10) -0.028659(11) 0.686843(19) 0.0205 Uani
O3F O 0.53374(17) 0.24021(17) 0.5727(3) 0.0287 Uani
O3K O 0.46626(17) 0.24021(17) 1.0727(3) 0.0287 Uani
O4F O 0.50417(19) 0.19606(16) 0.6674(4) 0.0447 Uani
O5N O 0.39113(16) 0.28999(16) 0.9517(4) 0.0367 Uani
O6N O 0.43601(17) 0.33364(17) 1.0195(3) 0.0323 Uani
O11G O 0.52964(15) 0.33354(17) 0.9195(4) 0.0347 Uani
O12J O 0.47481(16) 0.30804(17) 0.5469(3) 0.0263 Uani
O12G O 0.52519(16) 0.30804(17) 1.0469(3) 0.0263 Uani
O15 O 0.3825(4) 0.9321(3) 0.0411(5) 0.1327 Uani
O16 O 0.1322(8) 0.0644(8) 0.8071(16) 0.1520 Uani
loop_
_atom_site_aniso_label
_atom_site_aniso_U_11
_atom_site_aniso_U_22
_atom_site_aniso_U_33
_atom_site_aniso_U_23
_atom_site_aniso_U_13
_atom_site_aniso_U_12
Gd1 0.02248(18) 0.02198(18) 0.0229(2) -0.00300(19) 0.00290(19) 0.00380(14)
Gd2 0.02044(17) 0.01975(16) 0.0213(2) -0.00293(18) -0.00143(19) 0.00037(13)
O1 0.026(3) 0.022(3) 0.025(3) -0.008(2) -0.005(3) 0.009(2)
O2 0.036(3) 0.046(3) 0.021(3) -0.011(3) 0.002(3) 0.019(2)
O3 0.026(3) 0.030(3) 0.030(3) -0.002(2) -0.003(2) 0.007(2)
O4 0.025(3) 0.056(3) 0.053(5) -0.032(3) -0.001(3) -0.001(3)
O5 0.034 0.031 0.045 -0.002 0.005 0.002
O6 0.033 0.027 0.037 0.002 0.009 0.007
O7 0.034 0.035 0.029 0 -0.005 0.013
O8 0.04 0.045 0.027 -0.008 -0.003 0.028
O9 0.047(4) 0.027(4) 0.073(5) 0.007(3) 0.029(3) 0.002(3)
O10 0.062(4) 0.049(4) 0.049(4) -0.023(3) 0.016(3) -0.025(3)
O11 0.044(3) 0.027(3) 0.033(4) -0.009(3) 0.004(3) -0.017(2)
O12 0.024(3) 0.024(3) 0.031(3) -0.001(3) -0.005(2) -0.007(2)
C1 0.026(4) 0.024(4) 0.020(4) 0.000(3) 0.006(3) 0.012(3)
C2 0.031(5) 0.030(4) 0.025(4) -0.008(4) 0.001(3) 0.002(4)
C3 0.022(4) 0.039(5) 0.028(5) -0.004(4) 0.001(4) 0.000(4)
C4 0.016(4) 0.026(4) 0.026(4) 0.003(3) 0.004(3) 0.009(3)
C5 0.035(5) 0.026(4) 0.034(5) -0.002(4) 0.000(4) 0.000(4)
C6 0.041(5) 0.037(5) 0.066(7) -0.016(5) 0.000(5) -0.001(4)
C7 0.033(4) 0.058(5) 0.086(8) -0.034(7) -0.011(6) 0.003(4)
C8 0.032(5) 0.051(6) 0.105(10) -0.023(6) -0.016(6) 0.001(4)
C9 0.035(5) 0.028(5) 0.080(7) -0.009(5) -0.003(5) 0.010(4)
C10 0.025(4) 0.027(4) 0.028(4) -0.003(3) 0.001(3) -0.003(4)
C11 0.020(4) 0.021(4) 0.027(4) 0.001(3) 0.006(3) 0.006(3)
C12 0.027(4) 0.029(4) 0.029(4) 0.007(4) 0.011(3) 0.006(4)
C13 0.031 0.023 0.027 0.002 -0.005 0.01
C14 0.045 0.034 0.051 0 0.017 0.012
C15 0.035 0.052 0.052 0.001 0.02 0.009
C16 0.036 0.036 0.029 0.002 -0.009 0.009
C17 0.041 0.022 0.045 -0.001 -0.002 0.008
C18 0.051 0.031 0.081 0.006 0.019 0.014
C19 0.067 0.04 0.136 0.027 0.039 0.01
C20 0.077 0.044 0.144 0.022 0.023 -0.001
C21 0.046 0.042 0.078 0.01 0.026 0.016
C22 0.036 0.029 0.034 0.004 0.001 0.001
C23 0.026 0.037 0.024 -0.002 -0.009 0.001
C24 0.024 0.023 0.042 -0.006 0.005 0.004
C25 0.051(5) 0.019(4) 0.031(4) -0.007(4) 0.015(5) -0.020(4)
C26 0.076(7) 0.030(5) 0.054(6) 0.011(4) -0.016(6) -0.020(5)
C27 0.066(6) 0.025(5) 0.053(6) 0.008(4) -0.017(5) -0.010(4)
C28 0.033(5) 0.036(5) 0.025(4) -0.004(4) -0.001(4) -0.003(4)
C29 0.030(4) 0.031(5) 0.028(5) 0.005(4) 0.008(4) -0.004(4)
C30 0.049(6) 0.045(6) 0.061(6) -0.004(5) -0.002(5) -0.013(5)
C31 0.044(6) 0.056(7) 0.091(8) 0.000(6) -0.013(6) 0.003(5)
C32 0.037(5) 0.080(7) 0.081(8) -0.019(7) -0.018(6) 0.004(5)
C33 0.049(6) 0.044(6) 0.058(6) -0.012(5) 0.009(5) -0.009(5)
C34 0.035(5) 0.034(5) 0.030(5) -0.007(4) 0.007(4) -0.008(4)
C35 0.038(5) 0.035(5) 0.047(6) -0.005(4) 0.022(4) -0.012(4)
C36 0.020(4) 0.019(4) 0.034(5) -0.009(3) -0.002(3) -0.004(3)
O13 0.039(3) 0.035(3) 0.040(3) -0.004(3) -0.009(3) -0.007(2)
O14 0.050(4) 0.067(5) 0.039(4) -0.013(3) -0.002(3) -0.026(4)
Gd1N 0.02198 0.02248 0.0229 -0.0029 0.003 0.0038
Gd1K 0.02198 0.02248 0.0229 -0.0029 -0.003 -0.0038
Gd2J 0.01975 0.02044 0.0213 -0.00143 0.00293 -0.00037
Gd2F 0.01975 0.02044 0.0213 0.00143 0.00293 0.00037
Gd2O 0.01975 0.02044 0.0213 -0.00143 -0.00293 0.00037
O3F 0.03 0.026 0.03 0.003 0.002 0.007
O3K 0.03 0.026 0.03 0.003 -0.002 -0.007
O4F 0.056 0.025 0.053 0.001 0.032 -0.001
O5N 0.031(3) 0.034(3) 0.045(4) -0.005(3) 0.002(3) 0.002(2)
O6N 0.027(3) 0.033(3) 0.037(3) -0.009(3) -0.002(3) 0.007(3)
O11G 0.027 0.044 0.033 0.004 -0.009 -0.017
O12J 0.024 0.024 0.031 -0.005 0.001 0.007
O12G 0.024 0.024 0.031 -0.005 -0.001 -0.007
O15 0.217(12) 0.127(8) 0.054(6) -0.006(5) -0.024(7) 0.085(9)
O16 0.19(2) 0.14(2) 0.126(18) 0.020(16) 0.033(19) 0.022(17)
loop_
_geom_bond_atom_site_label_1
_geom_bond_atom_site_label_2
_geom_bond_site_symmetry_1
_geom_bond_site_symmetry_2
Gd1 O1 1_555 1_555
Gd2 O1 1_555 1_555
O1 C11 1_555 1_555
O2 Gd1 1_555 1_555
O3 C12 1_555 1_555
O4 C12 1_555 1_555
O5 C23 1_555 1_555
O6 C23 1_555 1_555
O7 Gd1 1_555 1_555
O8 Gd2 1_555 1_555
O9 Gd1 1_555 1_555
O10 Gd2 1_555 1_555
O11 C36 1_555 1_555
O12 C36 1_555 1_555
C1 C2 1_555 1_555
C2 H1 1_555 1_555
C3 C2 1_555 1_555
H2 C3 1_555 1_555
C4 C3 1_555 1_555
C5 C4 1_555 1_555
C6 C5 1_555 1_555
H3 C6 1_555 1_555
C7 C6 1_555 1_555
H4 C7 1_555 1_555
C8 C7 1_555 1_555
H5 C8 1_555 1_555
C9 C8 1_555 1_555
H6 C9 1_555 1_555
C10 C1 1_555 1_555
C11 O2 1_555 1_555
C12 C4 1_555 1_555
C13 C14 1_555 1_555
C14 H7 1_555 1_555
C15 C14 1_555 1_555
H8 C15 1_555 1_555
C16 C15 1_555 1_555
C17 C16 1_555 1_555
C18 C17 1_555 1_555
H9 C18 1_555 1_555
C19 C18 1_555 1_555
H10 C19 1_555 1_555
C20 C19 1_555 1_555
H11 C20 1_555 1_555
C21 C20 1_555 1_555
H12 C21 1_555 1_555
C22 C13 1_555 1_555
C23 C13 1_555 1_555
C24 O7 1_555 1_555
C25 C26 1_555 1_555
C26 H13 1_555 1_555
C27 C26 1_555 1_555
H14 C27 1_555 1_555
C28 C27 1_555 1_555
C29 C28 1_555 1_555
C30 C29 1_555 1_555
H15 C30 1_555 1_555
C31 C30 1_555 1_555
H16 C31 1_555 1_555
C32 C31 1_555 1_555
H17 C32 1_555 1_555
C33 C32 1_555 1_555
H18 C33 1_555 1_555
C34 C25 1_555 1_555
C35 O9 1_555 1_555
C36 C28 1_555 1_555
O13 Gd1 1_555 1_555
O14 Gd1 1_555 1_555
Gd1N O3 1_555 1_555
Gd1K O12 1_555 1_555
Gd2J O3 1_555 1_555
Gd2F O5 1_555 1_555
Gd2O O11 1_555 1_555
O3F Gd1 1_555 1_555
O3K Gd2 1_555 1_555
O4F Gd1 1_555 1_555
O5N Gd2 1_555 1_555
O6N Gd2 1_555 1_555
O11G Gd2 1_555 1_555
O12J Gd1 1_555 1_555
O12G Gd2 1_555 1_555
Gd2 O7 1_555 1_555
O4 Gd1N 1_555 1_555
O6 Gd2F 1_555 1_555
O8 C24 1_555 1_555
O10 C35 1_555 1_555
O12 Gd2O 1_555 1_555
C1 C11 1_555 1_555
C5 C10 1_555 1_555
C9 C10 1_555 1_555
C16 C24 1_555 1_555
C17 C22 1_555 1_555
C21 C22 1_555 1_555
C25 C35 1_555 1_555
C29 C34 1_555 1_555
C33 C34 1_555 1_555

#END
