
#######################################################################
#
#                 Cambridge Crystallographic Data Centre
#                                CCDC 
#
#######################################################################
#
# If this CIF has been generated from an entry in the Cambridge 
# Structural Database, then it will include bibliographic, chemical, 
# crystal, experimental, refinement or atomic coordinate data resulting 
# from the CCDC's data processing and validation procedures.
#
#######################################################################

data_SARMEE
_chemical_formula_moiety         '(C36 H28 Eu2 O17)n'
_symmetry_cell_setting           tetragonal
_symmetry_space_group_name_H-M   'I 41 c d'
_symmetry_Int_Tables_number      110
_space_group_name_Hall           'I 4bw -2c'
loop_
_symmetry_equiv_pos_site_id
_symmetry_equiv_pos_as_xyz
1 x,y,z
2 1/2-x,1/2-y,1/2+z
3 -y,1/2+x,1/4+z
4 1/2+y,-x,3/4+z
5 x,-y,1/2+z
6 1/2-x,1/2+y,z
7 -y,1/2-x,3/4+z
8 1/2+y,x,1/4+z
9 1/2+x,1/2+y,1/2+z
10 -x,-y,z
11 1/2-y,x,3/4+z
12 y,1/2-x,1/4+z
13 1/2+x,1/2-y,z
14 -x,y,1/2+z
15 1/2-y,-x,1/4+z
16 y,1/2+x,3/4+z
_cell_length_a                   30.392(4)
_cell_length_b                   30.392(4)
_cell_length_c                   15.737(4)
_cell_angle_alpha                90
_cell_angle_beta                 90
_cell_angle_gamma                90
_cell_volume                     14535.9
loop_
_atom_site_label
_atom_site_type_symbol
_atom_site_fract_x
_atom_site_fract_y
_atom_site_fract_z
Eu1 Eu 0.476399(12) 0.271040(12) 0.68268(2)
Eu2 Eu 0.472406(12) 0.277864(12) 0.93564(2)
O1 O 0.45406(17) 0.32001(17) 0.8099(4)
O2 O 0.41190(17) 0.31614(18) 0.6972(4)
O3 O 0.25904(18) 0.46743(18) 0.8237(4)
O4 O 0.30308(18) 0.4975(2) 0.9179(5)
O5 O 0.71083(18) 0.10866(18) 0.6998(4)
O6 O 0.6668(2) 0.06440(19) 0.7685(4)
O7 O 0.52454(18) 0.25560(19) 0.8046(4)
O8 O 0.54101(18) 0.23460(18) 0.9325(4)
O9 O 0.4319(2) 0.2314(2) 0.7760(5)
O10 O 0.4520(3) 0.2057(2) 0.8991(4)
O11 O 0.33498(17) 0.03020(17) 0.6692(4)
O12 O 0.30931(19) 0.02626(18) 0.7966(3)
C1 C 0.3911(3) 0.3690(3) 0.7987(5)
C2 C 0.3477(3) 0.3649(3) 0.7784(5)
H1 H 0.3380 0.3401 0.7491
C3 C 0.3176(3) 0.3979(3) 0.8014(5)
H2 H 0.2881 0.3947 0.7867
C4 C 0.3306(3) 0.4346(3) 0.8448(5)
C5 C 0.3758(3) 0.4393(3) 0.8708(6)
C6 C 0.3923(3) 0.4752(3) 0.9195(7)
H3 H 0.3728 0.4970 0.9370
C7 C 0.4348(3) 0.4787(3) 0.9413(9)
H4 H 0.4443 0.5023 0.9743
C8 C 0.4646(3) 0.4471(3) 0.9144(8)
H5 H 0.4942 0.4499 0.9289
C9 C 0.4513(3) 0.4124(3) 0.8675(6)
H6 H 0.4721 0.3920 0.8496
C10 C 0.4068(3) 0.4061(3) 0.8447(6)
C11 C 0.4208(3) 0.3335(3) 0.7667(5)
C12 C 0.2965(3) 0.4686(3) 0.8628(5)
C13 C 0.6473(3) 0.1405(3) 0.7729(6)
C14 C 0.6109(3) 0.1289(3) 0.8202(7)
H7 H 0.6070 0.0996 0.8353
C15 C 0.5799(3) 0.1598(3) 0.8462(6)
H8 H 0.5562 0.1509 0.8794
C16 C 0.5840(3) 0.2029(3) 0.8233(5)
C17 C 0.6196(3) 0.2169(3) 0.7741(6)
C18 C 0.6248(3) 0.2612(3) 0.7480(8)
H9 H 0.6037 0.2820 0.7629
C19 C 0.6601(4) 0.2736(4) 0.7017(9)
H10 H 0.6621 0.3027 0.6836
C20 C 0.6929(3) 0.2449(4) 0.6806(12)
H11 H 0.7178 0.2551 0.6521
C21 C 0.6894(3) 0.2003(3) 0.7017(7)
H12 H 0.7110 0.1806 0.6844
C22 C 0.6529(3) 0.1854(3) 0.7491(6)
C23 C 0.6770(3) 0.1035(3) 0.7459(6)
C24 C 0.5477(3) 0.2335(3) 0.8545(5)
C25 C 0.4111(3) 0.1590(3) 0.8084(6)
C26 C 0.3760(4) 0.1596(3) 0.7554(7)
H13 H 0.3686 0.1864 0.7311
C27 C 0.3500(3) 0.1232(3) 0.7342(7)
H14 H 0.3254 0.1264 0.6997
C28 C 0.3617(3) 0.0829(3) 0.7657(6)
C29 C 0.3998(3) 0.0789(3) 0.8208(6)
C30 C 0.4126(3) 0.0369(4) 0.8521(6)
H15 H 0.3967 0.0120 0.8368
C31 C 0.4477(3) 0.0330(4) 0.9041(8)
H16 H 0.4557 0.0054 0.9245
C32 C 0.4721(3) 0.0701(4) 0.9274(9)
H17 H 0.4957 0.0675 0.9648
C33 C 0.4607(4) 0.1109(3) 0.8937(7)
H18 H 0.4783 0.1350 0.9072
C34 C 0.4240(3) 0.1179(3) 0.8404(6)
C35 C 0.4340(3) 0.2006(3) 0.8292(7)
C36 C 0.3345(3) 0.0440(3) 0.7432(6)
O13 O 0.53125(17) 0.32824(17) 0.6791(4)
O14 O 0.4214(2) 0.2328(2) 0.5896(4)
Eu1N Eu 0.228960(12) 0.523601(12) 0.93268(2)
Eu1K Eu 0.271040(12) 0.023601(12) 0.93268(2)
Eu2J Eu 0.222136(12) 0.472406(12) 0.68564(2)
Eu2F Eu 0.722136(12) 0.027594(12) 0.68564(2)
Eu2O Eu 0.277864(12) -0.027594(12) 0.68564(2)
O3F O 0.53257(18) 0.24096(18) 0.5737(4)
O3K O 0.46743(18) 0.24096(18) 1.0737(4)
O4F O 0.5025(2) 0.19692(18) 0.6679(5)
O5N O 0.39134(18) 0.28917(18) 0.9498(4)
O6N O 0.43560(19) 0.3332(2) 1.0185(4)
O11G O 0.53020(17) 0.33498(17) 0.9192(4)
O12J O 0.47374(18) 0.30931(19) 0.5466(3)
O12G O 0.52626(18) 0.30931(19) 1.0466(3)
O15 O 0.3852(4) 0.9338(3) 0.0381(5)
O16 O 0.1361(5) 0.0605(6) 0.8046(14)
O17 O 0.3360(6) 0.2681(7) 0.6200(13)
loop_
_geom_bond_atom_site_label_1
_geom_bond_atom_site_label_2
_geom_bond_site_symmetry_1
_geom_bond_site_symmetry_2
Eu1 O1 1_555 1_555
Eu2 O1 1_555 1_555
O1 C11 1_555 1_555
O2 Eu1 1_555 1_555
O3 C12 1_555 1_555
O4 C12 1_555 1_555
O5 C23 1_555 1_555
O6 C23 1_555 1_555
O7 Eu1 1_555 1_555
O8 Eu2 1_555 1_555
O9 Eu1 1_555 1_555
O10 Eu2 1_555 1_555
O11 C36 1_555 1_555
O12 C36 1_555 1_555
C1 C2 1_555 1_555
C2 H1 1_555 1_555
C3 C2 1_555 1_555
H2 C3 1_555 1_555
C4 C3 1_555 1_555
C5 C4 1_555 1_555
C6 C5 1_555 1_555
H3 C6 1_555 1_555
C7 C6 1_555 1_555
H4 C7 1_555 1_555
C8 C7 1_555 1_555
H5 C8 1_555 1_555
C9 C8 1_555 1_555
H6 C9 1_555 1_555
C10 C1 1_555 1_555
C11 O2 1_555 1_555
C12 C4 1_555 1_555
C13 C14 1_555 1_555
C14 H7 1_555 1_555
C15 C14 1_555 1_555
H8 C15 1_555 1_555
C16 C15 1_555 1_555
C17 C16 1_555 1_555
C18 C17 1_555 1_555
H9 C18 1_555 1_555
C19 C18 1_555 1_555
H10 C19 1_555 1_555
C20 C19 1_555 1_555
H11 C20 1_555 1_555
C21 C20 1_555 1_555
H12 C21 1_555 1_555
C22 C13 1_555 1_555
C23 C13 1_555 1_555
C24 O7 1_555 1_555
C25 C26 1_555 1_555
C26 H13 1_555 1_555
C27 C26 1_555 1_555
H14 C27 1_555 1_555
C28 C27 1_555 1_555
C29 C28 1_555 1_555
C30 C29 1_555 1_555
H15 C30 1_555 1_555
C31 C30 1_555 1_555
H16 C31 1_555 1_555
C32 C31 1_555 1_555
H17 C32 1_555 1_555
C33 C32 1_555 1_555
H18 C33 1_555 1_555
C34 C25 1_555 1_555
C35 O9 1_555 1_555
C36 C28 1_555 1_555
O13 Eu1 1_555 1_555
O14 Eu1 1_555 1_555
Eu1N O3 1_555 1_555
Eu1K O12 1_555 1_555
Eu2J O3 1_555 1_555
Eu2F O5 1_555 1_555
Eu2O O11 1_555 1_555
O3F Eu1 1_555 1_555
O3K Eu2 1_555 1_555
O4F Eu1 1_555 1_555
O5N Eu2 1_555 1_555
O6N Eu2 1_555 1_555
O11G Eu2 1_555 1_555
O12J Eu1 1_555 1_555
O12G Eu2 1_555 1_555
Eu2 O7 1_555 1_555
O4 Eu1N 1_555 1_555
O6 Eu2F 1_555 1_555
O8 C24 1_555 1_555
O10 C35 1_555 1_555
O12 Eu2O 1_555 1_555
C1 C11 1_555 1_555
C5 C10 1_555 1_555
C9 C10 1_555 1_555
C16 C24 1_555 1_555
C17 C22 1_555 1_555
C21 C22 1_555 1_555
C25 C35 1_555 1_555
C29 C34 1_555 1_555
C33 C34 1_555 1_555

#END
