
#######################################################################
#
#                 Cambridge Crystallographic Data Centre
#                                CCDC 
#
#######################################################################
#
# If this CIF has been generated from an entry in the Cambridge 
# Structural Database, then it will include bibliographic, chemical, 
# crystal, experimental, refinement or atomic coordinate data resulting 
# from the CCDC's data processing and validation procedures.
#
#######################################################################

data_UVUFUN
_chemical_formula_moiety         '(C60 H64 N6 O14 Zn4 1+)n'
_symmetry_cell_setting           cubic
_symmetry_space_group_name_H-M   'I -4 3 d'
_symmetry_Int_Tables_number      220
_space_group_name_Hall           'I -4bd 2c 3'
loop_
_symmetry_equiv_pos_site_id
_symmetry_equiv_pos_as_xyz
1 x,y,z
2 -x,1/2-y,z
3 x,-y,1/2-z
4 1/2-x,y,-z
5 z,x,y
6 y,z,x
7 -z,1/2-x,y
8 1/2-y,z,-x
9 z,-x,1/2-y
10 -y,1/2-z,x
11 1/2-z,x,-y
12 y,-z,1/2-x
13 1/4+y,1/4+x,1/4+z
14 3/4-y,1/4-x,1/4+z
15 1/4-y,1/4+x,3/4-z
16 1/4+y,3/4-x,1/4-z
17 1/4+x,1/4+z,1/4+y
18 1/4+z,1/4+y,1/4+x
19 3/4-x,1/4-z,1/4+y
20 1/4+z,3/4-y,1/4-x
21 1/4-x,1/4+z,3/4-y
22 3/4-z,1/4-y,1/4+x
23 1/4+x,3/4-z,1/4-y
24 1/4-z,1/4+y,3/4-x
25 1/2+x,1/2+y,1/2+z
26 1/2-x,-y,1/2+z
27 1/2+x,1/2-y,-z
28 -x,1/2+y,1/2-z
29 1/2+z,1/2+x,1/2+y
30 1/2+y,1/2+z,1/2+x
31 1/2-z,-x,1/2+y
32 -y,1/2+z,1/2-x
33 1/2+z,1/2-x,-y
34 1/2-y,-z,1/2+x
35 -z,1/2+x,1/2-y
36 1/2+y,1/2-z,-x
37 3/4+y,3/4+x,3/4+z
38 1/4-y,3/4-x,3/4+z
39 3/4-y,3/4+x,1/4-z
40 3/4+y,1/4-x,3/4-z
41 3/4+x,3/4+z,3/4+y
42 3/4+z,3/4+y,3/4+x
43 1/4-x,3/4-z,3/4+y
44 3/4+z,1/4-y,3/4-x
45 3/4-x,3/4+z,1/4-y
46 1/4-z,3/4-y,3/4+x
47 3/4+x,1/4-z,3/4-y
48 3/4-z,3/4+y,1/4-x
_cell_length_a                   25.8644(10)
_cell_length_b                   25.8644(10)
_cell_length_c                   25.8644(10)
_cell_angle_alpha                90
_cell_angle_beta                 90
_cell_angle_gamma                90
_cell_volume                     17302.4
loop_
_atom_site_label
_atom_site_type_symbol
_atom_site_fract_x
_atom_site_fract_y
_atom_site_fract_z
_atom_site_U_iso_or_equiv
_atom_site_thermal_displace_type
C1 C 0.4070(3) 0.8949(3) 0.4890(3) 0.0607 Uani
C2 C 0.3920(3) 0.8661(3) 0.4407(3) 0.0630 Uani
C3 C 0.3862(3) 0.8925(3) 0.3950(3) 0.0667 Uani
H1 H 0.3923 0.9287 0.3944 0.0800 Uiso
C4 C 0.3719(3) 0.8680(3) 0.3504(3) 0.0647 Uani
H2 H 0.3676 0.8873 0.3194 0.0780 Uiso
C5 C 0.3637(3) 0.8141(3) 0.3504(3) 0.0653 Uani
C6 C 0.3725(3) 0.7879(3) 0.3963(3) 0.0763 Uani
H3 H 0.3693 0.7513 0.3970 0.0920 Uiso
C7 C 0.3855(3) 0.8134(3) 0.4400(3) 0.0787 Uani
H4 H 0.3903 0.7944 0.4711 0.0940 Uiso
C8 C 0.3462(3) 0.7874(3) 0.3011(3) 0.0690 Uani
H5 H 0.3585 0.8076 0.2710 0.0830 Uiso
H6 H 0.3624 0.7528 0.2993 0.0830 Uiso
C9 C 0.2670(3) 0.7521(3) 0.3405(3) 0.0657 Uani
H7 H 0.2687 0.7736 0.3721 0.0790 Uiso
H8 H 0.2884 0.7209 0.3463 0.0790 Uiso
C10 C 0.2643(3) 0.8319(3) 0.2878(3) 0.0687 Uani
H9 H 0.2890 0.8594 0.2977 0.0830 Uiso
H10 H 0.2336 0.8352 0.3105 0.0830 Uiso
N1 N 0.2885(2) 0.7813(2) 0.2973(2) 0.0547 Uani
O1 O 0.42132(18) 0.93869(17) 0.48666(19) 0.0583 Uani
O2 O 0.4021(2) 0.86865(18) 0.5311(2) 0.0733 Uani
O3 O 0.3541(2) 0.8541(2) 0.6459(2) 0.0710 Uani
Zn1 Zn 0.48131(3) 0.98131(3) 0.51869(3) 0.0460 Uani
Zn2 Zn 0.40281(4) 0.90281(4) 0.59719(4) 0.0696 Uani
C1DA C 0.0110(3) 0.5930(3) 0.3949(3) 0.0607 Uani
C1EA C 0.1051(3) 0.9890(3) 0.0930(3) 0.0607 Uani
C1R C 0.3430(3) 0.7610(3) 0.1449(3) 0.0607 Uani
C1S C 0.7390(3) 0.8551(3) -0.1570(3) 0.0607 Uani
C1JA C 0.6449(3) 1.1570(3) 0.2390(3) 0.0607 Uani
C2DA C 0.0593(3) 0.6080(3) 0.3661(3) 0.0630 Uani
C2EA C 0.1339(3) 0.9407(3) 0.1080(3) 0.0630 Uani
C2R C 0.3580(3) 0.8093(3) 0.1161(3) 0.0630 Uani
C2S C 0.6907(3) 0.8839(3) -0.1420(3) 0.0630 Uani
C2JA C 0.6161(3) 1.1420(3) 0.1907(3) 0.0630 Uani
C3DA C 0.1050(3) 0.6138(3) 0.3925(3) 0.0667 Uani
C3EA C 0.1075(3) 0.8950(3) 0.1138(3) 0.0667 Uani
C3R C 0.3638(3) 0.8550(3) 0.1425(3) 0.0667 Uani
C3S C 0.6450(3) 0.8575(3) -0.1362(3) 0.0667 Uani
C3JA C 0.6425(3) 1.1362(3) 0.1450(3) 0.0667 Uani
H1DA H 0.1056 0.6077 0.4287 0.0800 Uiso
H1EA H 0.0713 0.8944 0.1077 0.0800 Uiso
H1R H 0.3577 0.8556 0.1787 0.0800 Uiso
H1S H 0.6444 0.8213 -0.1423 0.0800 Uiso
H1JA H 0.6787 1.1423 0.1444 0.0800 Uiso
C4DA C 0.1496(3) 0.6281(3) 0.3680(3) 0.0647 Uani
C4EA C 0.1320(3) 0.8504(3) 0.1281(3) 0.0647 Uani
C4R C 0.3781(3) 0.8996(3) 0.1180(3) 0.0647 Uani
C4S C 0.6004(3) 0.8820(3) -0.1219(3) 0.0647 Uani
C4JA C 0.6180(3) 1.1219(3) 0.1004(3) 0.0647 Uani
H2DA H 0.1806 0.6324 0.3873 0.0780 Uiso
H2EA H 0.1127 0.8194 0.1324 0.0780 Uiso
H2R H 0.3824 0.9306 0.1373 0.0780 Uiso
H2S H 0.5694 0.8627 -0.1176 0.0780 Uiso
H2JA H 0.6373 1.1176 0.0694 0.0780 Uiso
C5DA C 0.1496(3) 0.6363(3) 0.3141(3) 0.0653 Uani
C5EA C 0.1859(3) 0.8504(3) 0.1363(3) 0.0653 Uani
C5R C 0.3863(3) 0.8996(3) 0.0641(3) 0.0653 Uani
C5S C 0.6004(3) 0.9359(3) -0.1137(3) 0.0653 Uani
C5JA C 0.5641(3) 1.1137(3) 0.1004(3) 0.0653 Uani
C6DA C 0.1037(3) 0.6275(3) 0.2879(3) 0.0763 Uani
C6EA C 0.2121(3) 0.8963(3) 0.1275(3) 0.0763 Uani
C6R C 0.3775(3) 0.8537(3) 0.0379(3) 0.0763 Uani
C6S C 0.6463(3) 0.9621(3) -0.1225(3) 0.0763 Uani
C6JA C 0.5379(3) 1.1225(3) 0.1463(3) 0.0763 Uani
H3DA H 0.1030 0.6307 0.2513 0.0920 Uiso
H3EA H 0.2487 0.8970 0.1307 0.0920 Uiso
H3R H 0.3807 0.8530 0.0013 0.0920 Uiso
H3S H 0.6470 0.9987 -0.1193 0.0920 Uiso
H3JA H 0.5013 1.1193 0.1470 0.0920 Uiso
C7DA C 0.0600(3) 0.6145(3) 0.3134(3) 0.0787 Uani
C7EA C 0.1866(3) 0.9400(3) 0.1145(3) 0.0787 Uani
C7R C 0.3645(3) 0.8100(3) 0.0634(3) 0.0787 Uani
C7S C 0.6900(3) 0.9366(3) -0.1355(3) 0.0787 Uani
C7JA C 0.5634(3) 1.1355(3) 0.1900(3) 0.0787 Uani
H4DA H 0.0289 0.6097 0.2944 0.0940 Uiso
H4EA H 0.2056 0.9711 0.1097 0.0940 Uiso
H4R H 0.3597 0.7789 0.0444 0.0940 Uiso
H4S H 0.7211 0.9556 -0.1403 0.0940 Uiso
H4JA H 0.5444 1.1403 0.2211 0.0940 Uiso
C8DA C 0.1989(3) 0.6538(3) 0.2874(3) 0.0690 Uani
C8EA C 0.2126(3) 0.8011(3) 0.1538(3) 0.0690 Uani
C8R C 0.4038(3) 0.9489(3) 0.0374(3) 0.0690 Uani
C8S C 0.5511(3) 0.9626(3) -0.0962(3) 0.0690 Uani
C8JA C 0.5374(3) 1.0962(3) 0.0511(3) 0.0690 Uani
H5DA H 0.2290 0.6415 0.3076 0.0830 Uiso
H5EA H 0.1924 0.7710 0.1415 0.0830 Uiso
H5R H 0.3915 0.9790 0.0576 0.0830 Uiso
H5S H 0.5210 0.9424 -0.1085 0.0830 Uiso
H5JA H 0.5576 1.1085 0.0210 0.0830 Uiso
H6DA H 0.2007 0.6376 0.2528 0.0830 Uiso
H6EA H 0.2472 0.7993 0.1376 0.0830 Uiso
H6R H 0.3876 0.9507 0.0028 0.0830 Uiso
H6S H 0.5493 0.9972 -0.1124 0.0830 Uiso
H6JA H 0.5028 1.1124 0.0493 0.0830 Uiso
C9DA C 0.1595(3) 0.7330(3) 0.2521(3) 0.0657 Uani
C9EA C 0.2479(3) 0.8405(3) 0.2330(3) 0.0657 Uani
C9R C 0.4830(3) 0.9095(3) 0.0021(3) 0.0657 Uani
C9S C 0.5905(3) 0.9979(3) -0.0170(3) 0.0657 Uani
C9JA C 0.5021(3) 1.0170(3) 0.0905(3) 0.0657 Uani
H7DA H 0.1279 0.7313 0.2736 0.0790 Uiso
H7EA H 0.2264 0.8721 0.2313 0.0790 Uiso
H7R H 0.4813 0.8779 0.0236 0.0790 Uiso
H7S H 0.6221 0.9764 -0.0187 0.0790 Uiso
H7JA H 0.5236 1.0187 0.1221 0.0790 Uiso
H8DA H 0.1537 0.7116 0.2209 0.0790 Uiso
H8EA H 0.2791 0.8463 0.2116 0.0790 Uiso
H8R H 0.4616 0.9037 -0.0291 0.0790 Uiso
H8S H 0.5963 1.0291 -0.0384 0.0790 Uiso
H8JA H 0.4709 1.0384 0.0963 0.0790 Uiso
C10DA C 0.2122(3) 0.7357(3) 0.3319(3) 0.0687 Uani
C10EA C 0.1681(3) 0.7878(3) 0.2357(3) 0.0687 Uani
C10R C 0.4857(3) 0.9622(3) 0.0819(3) 0.0687 Uani
C10S C 0.5378(3) 0.9181(3) -0.0143(3) 0.0687 Uani
C10JA C 0.5819(3) 1.0143(3) 0.0378(3) 0.0687 Uani
H9DA H 0.2023 0.7110 0.3594 0.0830 Uiso
H9EA H 0.1406 0.7977 0.2110 0.0830 Uiso
H9R H 0.4610 0.9523 0.1094 0.0830 Uiso
H9S H 0.5477 0.8906 -0.0390 0.0830 Uiso
H9JA H 0.6094 1.0390 0.0477 0.0830 Uiso
H10DA H 0.1895 0.7664 0.3352 0.0830 Uiso
H10EA H 0.1648 0.8105 0.2664 0.0830 Uiso
H10R H 0.5164 0.9395 0.0852 0.0830 Uiso
H10S H 0.5605 0.9148 0.0164 0.0830 Uiso
H10JA H 0.5852 0.9836 0.0605 0.0830 Uiso
N1DA N 0.2027(2) 0.7115(2) 0.2813(2) 0.0547 Uani
N1EA N 0.2187(2) 0.7973(2) 0.2115(2) 0.0547 Uani
N1R N 0.4615(2) 0.9527(2) 0.0313(2) 0.0547 Uani
N1S N 0.5473(2) 0.9687(2) -0.0385(2) 0.0547 Uani
N1JA N 0.5313(2) 1.0385(2) 0.0473(2) 0.0547 Uani
N1Q N 0.5473(2) 1.0313(2) 0.5385(2) 0.0547 Uani
N1MA N 0.5313(2) 0.9615(2) 0.4527(2) 0.0547 Uani
N1RA N 0.4615(2) 1.0473(2) 0.4687(2) 0.0547 Uani
O1DA O 0.01334(19) 0.57868(18) 0.43869(17) 0.0583 Uani
O1EA O 0.06131(17) 0.98666(19) 0.07868(18) 0.0583 Uani
O1R O 0.32868(18) 0.76334(19) 0.18869(17) 0.0583 Uani
O1S O 0.73666(19) 0.81131(17) -0.17132(18) 0.0583 Uani
O1JA O 0.68869(17) 1.17132(18) 0.23666(19) 0.0583 Uani
O1HA O 0.51334(19) 0.92132(18) 0.56131(17) 0.0583 Uani
O1IA O 0.43869(17) 1.01334(19) 0.57868(18) 0.0583 Uani
O1OA O 0.23666(19) 0.68869(17) 0.17132(18) 0.0583 Uani
O1N O 0.31131(17) 0.67132(18) 0.26334(19) 0.0583 Uani
O2DA O -0.0311(2) 0.5979(2) 0.36865(18) 0.0733 Uani
O2EA O 0.13135(18) 1.0311(2) 0.0979(2) 0.0733 Uani
O2R O 0.3479(2) 0.7189(2) 0.11865(18) 0.0733 Uani
O2S O 0.7811(2) 0.88135(18) -0.1521(2) 0.0733 Uani
O2JA O 0.61865(18) 1.1521(2) 0.2811(2) 0.0733 Uani
O2HA O 0.4689(2) 0.9021(2) 0.63135(18) 0.0733 Uani
O2IA O 0.36865(18) 0.9689(2) 0.5979(2) 0.0733 Uani
O2OA O 0.2811(2) 0.61865(18) 0.1521(2) 0.0733 Uani
O2N O 0.38135(18) 0.6521(2) 0.2189(2) 0.0733 Uani
O3N O 0.3959(2) 0.6041(2) 0.1041(2) 0.0710 Uani
Zn1N Zn 0.26869(3) 0.73131(3) 0.23131(3) 0.0460 Uani
Zn1B Zn 0.48131(3) 1.01869(3) -0.01869(3) 0.0460 Uani
Zn1E Zn -0.01869(3) 0.51869(3) 0.48131(3) 0.0460 Uani
Zn1M Zn 0.76869(3) 0.76869(3) -0.23131(3) 0.0460 Uani
Zn1V Zn 0.73131(3) 1.23131(3) 0.26869(3) 0.0460 Uani
Zn1Y Zn 0.01869(3) 1.01869(3) 0.01869(3) 0.0460 Uani
Zn2N Zn 0.34719(4) 0.65281(4) 0.15281(4) 0.0696 Uani
Zn2E Zn -0.09719(4) 0.59719(4) 0.40281(4) 0.0696 Uani
Zn2M Zn 0.84719(4) 0.84719(4) -0.15281(4) 0.0696 Uani
Zn2V Zn 0.65281(4) 1.15281(4) 0.34719(4) 0.0696 Uani
Zn2Y Zn 0.09719(4) 1.09719(4) 0.09719(4) 0.0696 Uani
loop_
_atom_site_aniso_label
_atom_site_aniso_U_11
_atom_site_aniso_U_22
_atom_site_aniso_U_33
_atom_site_aniso_U_23
_atom_site_aniso_U_13
_atom_site_aniso_U_12
C1 0.058(4) 0.062(4) 0.062(4) 0.002(3) -0.009(4) 0.006(3)
C2 0.061(4) 0.066(4) 0.062(4) -0.001(4) -0.009(4) 0.000(3)
C3 0.077(5) 0.060(4) 0.063(4) 0.002(4) -0.012(4) 0.004(4)
C4 0.069(4) 0.066(4) 0.059(4) 0.000(4) -0.017(3) -0.010(4)
C5 0.051(4) 0.072(4) 0.073(5) -0.005(4) -0.019(4) -0.004(3)
C6 0.093(6) 0.054(4) 0.082(5) -0.006(4) -0.032(5) 0.008(4)
C7 0.093(6) 0.064(4) 0.079(5) 0.000(4) -0.028(5) 0.008(4)
C8 0.062(4) 0.076(5) 0.069(4) -0.017(4) -0.021(4) -0.008(4)
C9 0.069(4) 0.070(4) 0.058(4) 0.003(3) -0.007(4) -0.012(4)
C10 0.071(4) 0.061(4) 0.074(4) -0.006(3) -0.006(4) -0.005(4)
N1 0.050(3) 0.064(4) 0.050(3) -0.005(3) -0.003(2) -0.010(3)
O1 0.059(3) 0.050(3) 0.066(3) -0.012(2) -0.020(2) -0.002(2)
O2 0.086(3) 0.059(3) 0.075(3) -0.005(3) -0.013(3) -0.006(3)
O3 0.071(2) 0.071(2) 0.071(2) 0.0011(11) 0.0011(11) -0.0011(11)
Zn1 0.0460(3) 0.0460(3) 0.0460(3) -0.0070(3) -0.0070(3) 0.0070(3)
Zn2 0.0696(5) 0.0696(5) 0.0696(5) -0.0004(4) -0.0004(4) 0.0004(4)
C1DA 0.062 0.058 0.062 -0.006 -0.002 -0.009
C1EA 0.062 0.062 0.058 0.009 0.006 -0.002
C1R 0.058 0.062 0.062 -0.002 -0.006 -0.009
C1S 0.062 0.062 0.058 0.006 0.009 -0.002
C1JA 0.062 0.058 0.062 -0.009 0.002 0.006
C2DA 0.062 0.061 0.066 0 0.001 -0.009
C2EA 0.066 0.062 0.061 0.009 0 0.001
C2R 0.061 0.062 0.066 0.001 0 -0.009
C2S 0.062 0.066 0.061 0 0.009 0.001
C2JA 0.066 0.061 0.062 -0.009 -0.001 0
C3DA 0.063 0.077 0.06 -0.004 -0.002 -0.012
C3EA 0.06 0.063 0.077 0.012 0.004 -0.002
C3R 0.077 0.063 0.06 -0.002 -0.004 -0.012
C3S 0.063 0.06 0.077 0.004 0.012 -0.002
C3JA 0.06 0.077 0.063 -0.012 0.002 0.004
C4DA 0.059 0.069 0.066 0.01 0 -0.017
C4EA 0.066 0.059 0.069 0.017 -0.01 0
C4R 0.069 0.059 0.066 0 0.01 -0.017
C4S 0.059 0.066 0.069 -0.01 0.017 0
C4JA 0.066 0.069 0.059 -0.017 0 -0.01
C5DA 0.073 0.051 0.072 0.004 0.005 -0.019
C5EA 0.072 0.073 0.051 0.019 -0.004 0.005
C5R 0.051 0.073 0.072 0.005 0.004 -0.019
C5S 0.073 0.072 0.051 -0.004 0.019 0.005
C5JA 0.072 0.051 0.073 -0.019 -0.005 -0.004
C6DA 0.082 0.093 0.054 -0.008 0.006 -0.032
C6EA 0.054 0.082 0.093 0.032 0.008 0.006
C6R 0.093 0.082 0.054 0.006 -0.008 -0.032
C6S 0.082 0.054 0.093 0.008 0.032 0.006
C6JA 0.054 0.093 0.082 -0.032 -0.006 0.008
C7DA 0.079 0.093 0.064 -0.008 0 -0.028
C7EA 0.064 0.079 0.093 0.028 0.008 0
C7R 0.093 0.079 0.064 0 -0.008 -0.028
C7S 0.079 0.064 0.093 0.008 0.028 0
C7JA 0.064 0.093 0.079 -0.028 0 0.008
C8DA 0.069 0.062 0.076 0.008 0.017 -0.021
C8EA 0.076 0.069 0.062 0.021 -0.008 0.017
C8R 0.062 0.069 0.076 0.017 0.008 -0.021
C8S 0.069 0.076 0.062 -0.008 0.021 0.017
C8JA 0.076 0.062 0.069 -0.021 -0.017 -0.008
C9DA 0.058 0.069 0.07 0.012 -0.003 -0.007
C9EA 0.07 0.058 0.069 0.007 -0.012 -0.003
C9R 0.069 0.058 0.07 -0.003 0.012 -0.007
C9S 0.058 0.07 0.069 -0.012 0.007 -0.003
C9JA 0.07 0.069 0.058 -0.007 0.003 -0.012
C10DA 0.074 0.071 0.061 0.005 0.006 -0.006
C10EA 0.061 0.074 0.071 0.006 -0.005 0.006
C10R 0.071 0.074 0.061 0.006 0.005 -0.006
C10S 0.074 0.061 0.071 -0.005 0.006 0.006
C10JA 0.061 0.071 0.074 -0.006 -0.006 -0.005
N1DA 0.05 0.05 0.064 0.01 0.005 -0.003
N1EA 0.064 0.05 0.05 0.003 -0.01 0.005
N1R 0.05 0.05 0.064 0.005 0.01 -0.003
N1S 0.05 0.064 0.05 -0.01 0.003 0.005
N1JA 0.064 0.05 0.05 -0.003 -0.005 -0.01
N1Q 0.05 0.064 0.05 -0.01 -0.003 -0.005
N1MA 0.064 0.05 0.05 -0.003 0.005 0.01
N1RA 0.05 0.05 0.064 0.005 -0.01 0.003
O1DA 0.066 0.059 0.05 0.002 0.012 -0.02
O1EA 0.05 0.066 0.059 0.02 -0.002 0.012
O1R 0.059 0.066 0.05 0.012 0.002 -0.02
O1S 0.066 0.05 0.059 -0.002 0.02 0.012
O1JA 0.05 0.059 0.066 -0.02 -0.012 -0.002
O1HA 0.066 0.059 0.05 0.002 -0.012 0.02
O1IA 0.05 0.066 0.059 -0.02 0.002 0.012
O1OA 0.066 0.05 0.059 -0.002 -0.02 -0.012
O1N 0.05 0.059 0.066 0.02 -0.012 0.002
O2DA 0.075 0.086 0.059 0.006 0.005 -0.013
O2EA 0.059 0.075 0.086 0.013 -0.006 0.005
O2R 0.086 0.075 0.059 0.005 0.006 -0.013
O2S 0.075 0.059 0.086 -0.006 0.013 0.005
O2JA 0.059 0.086 0.075 -0.013 -0.005 -0.006
O2HA 0.075 0.086 0.059 0.006 -0.005 0.013
O2IA 0.059 0.075 0.086 -0.013 0.006 0.005
O2OA 0.075 0.059 0.086 -0.006 -0.013 -0.005
O2N 0.059 0.086 0.075 0.013 -0.005 0.006
O3N 0.071 0.071 0.071 -0.0011 0.0011 0.0011
Zn1N 0.046 0.046 0.046 0.007 -0.007 -0.007
Zn1B 0.046 0.046 0.046 -0.007 0.007 -0.007
Zn1E 0.046 0.046 0.046 -0.007 0.007 -0.007
Zn1M 0.046 0.046 0.046 0.007 0.007 0.007
Zn1V 0.046 0.046 0.046 -0.007 -0.007 0.007
Zn1Y 0.046 0.046 0.046 0.007 0.007 0.007
Zn2N 0.0696 0.0696 0.0696 0.0004 -0.0004 -0.0004
Zn2E 0.0696 0.0696 0.0696 -0.0004 0.0004 -0.0004
Zn2M 0.0696 0.0696 0.0696 0.0004 0.0004 0.0004
Zn2V 0.0696 0.0696 0.0696 -0.0004 -0.0004 0.0004
Zn2Y 0.0696 0.0696 0.0696 0.0004 0.0004 0.0004
loop_
_geom_bond_atom_site_label_1
_geom_bond_atom_site_label_2
_geom_bond_site_symmetry_1
_geom_bond_site_symmetry_2
C1 C2 1_555 1_555
C2 C3 1_555 1_555
C3 H1 1_555 1_555
C4 C3 1_555 1_555
H2 C4 1_555 1_555
C5 C4 1_555 1_555
C6 C5 1_555 1_555
H3 C6 1_555 1_555
C7 C2 1_555 1_555
H4 C7 1_555 1_555
C8 C5 1_555 1_555
H5 C8 1_555 1_555
H6 C8 1_555 1_555
C9 H7 1_555 1_555
H8 C9 1_555 1_555
C10 H9 1_555 1_555
H10 C10 1_555 1_555
N1 C8 1_555 1_555
O1 C1 1_555 1_555
O2 C1 1_555 1_555
O3 Zn2 1_555 1_555
Zn1 O1 1_555 1_555
Zn2 O2 1_555 1_555
C1DA C2DA 1_555 1_555
C1EA C2EA 1_555 1_555
C1R C2R 1_555 1_555
C1S C2S 1_555 1_555
C1JA C2JA 1_555 1_555
C2DA C3DA 1_555 1_555
C2EA C3EA 1_555 1_555
C2R C3R 1_555 1_555
C2S C3S 1_555 1_555
C2JA C3JA 1_555 1_555
C3DA H1DA 1_555 1_555
C3EA H1EA 1_555 1_555
C3R H1R 1_555 1_555
C3S H1S 1_555 1_555
C3JA H1JA 1_555 1_555
C4DA C3DA 1_555 1_555
C4EA C3EA 1_555 1_555
C4R C3R 1_555 1_555
C4S C3S 1_555 1_555
C4JA C3JA 1_555 1_555
H2DA C4DA 1_555 1_555
H2EA C4EA 1_555 1_555
H2R C4R 1_555 1_555
H2S C4S 1_555 1_555
H2JA C4JA 1_555 1_555
C5DA C4DA 1_555 1_555
C5EA C4EA 1_555 1_555
C5R C4R 1_555 1_555
C5S C4S 1_555 1_555
C5JA C4JA 1_555 1_555
C6DA C5DA 1_555 1_555
C6EA C5EA 1_555 1_555
C6R C5R 1_555 1_555
C6S C5S 1_555 1_555
C6JA C5JA 1_555 1_555
H3DA C6DA 1_555 1_555
H3EA C6EA 1_555 1_555
H3R C6R 1_555 1_555
H3S C6S 1_555 1_555
H3JA C6JA 1_555 1_555
C7DA C2DA 1_555 1_555
C7EA C2EA 1_555 1_555
C7R C2R 1_555 1_555
C7S C2S 1_555 1_555
C7JA C2JA 1_555 1_555
H4DA C7DA 1_555 1_555
H4EA C7EA 1_555 1_555
H4R C7R 1_555 1_555
H4S C7S 1_555 1_555
H4JA C7JA 1_555 1_555
C8DA C5DA 1_555 1_555
C8EA C5EA 1_555 1_555
C8R C5R 1_555 1_555
C8S C5S 1_555 1_555
C8JA C5JA 1_555 1_555
H5DA C8DA 1_555 1_555
H5EA C8EA 1_555 1_555
H5R C8R 1_555 1_555
H5S C8S 1_555 1_555
H5JA C8JA 1_555 1_555
H6DA C8DA 1_555 1_555
H6EA C8EA 1_555 1_555
H6R C8R 1_555 1_555
H6S C8S 1_555 1_555
H6JA C8JA 1_555 1_555
C9DA H7DA 1_555 1_555
C9EA C10 1_555 1_555
C9R H7R 1_555 1_555
C9S H7S 1_555 1_555
C9JA H7JA 1_555 1_555
H7EA C9EA 1_555 1_555
H8DA C9DA 1_555 1_555
H8EA C9EA 1_555 1_555
H8R C9R 1_555 1_555
H8S C9S 1_555 1_555
H8JA C9JA 1_555 1_555
C10DA C9 1_555 1_555
C10EA C9DA 1_555 1_555
C10R C9JA 1_555 1_555
C10S C9R 1_555 1_555
C10JA C9S 1_555 1_555
H9DA C10DA 1_555 1_555
H9EA C10EA 1_555 1_555
H9R C10R 1_555 1_555
H9S C10S 1_555 1_555
H9JA C10JA 1_555 1_555
H10DA C10DA 1_555 1_555
H10EA C10EA 1_555 1_555
H10R C10R 1_555 1_555
H10S C10S 1_555 1_555
H10JA C10JA 1_555 1_555
N1DA C8DA 1_555 1_555
N1EA C8EA 1_555 1_555
N1R C8R 1_555 1_555
N1S C8S 1_555 1_555
N1JA C8JA 1_555 1_555
N1Q Zn1 1_555 1_555
N1MA Zn1 1_555 1_555
N1RA Zn1 1_555 1_555
O1DA C1DA 1_555 1_555
O1EA C1EA 1_555 1_555
O1R C1R 1_555 1_555
O1S C1S 1_555 1_555
O1JA C1JA 1_555 1_555
O1HA Zn1 1_555 1_555
O1IA Zn1 1_555 1_555
O1OA Zn1N 1_555 1_555
O1N Zn1N 1_555 1_555
O2DA C1DA 1_555 1_555
O2EA C1EA 1_555 1_555
O2R C1R 1_555 1_555
O2S C1S 1_555 1_555
O2JA C1JA 1_555 1_555
O2HA Zn2 1_555 1_555
O2IA Zn2 1_555 1_555
O2OA Zn2N 1_555 1_555
O2N Zn2N 1_555 1_555
O3N Zn2N 1_555 1_555
Zn1N N1 1_555 1_555
Zn1B N1R 1_555 1_555
Zn1E O1DA 1_555 1_555
Zn1M O1S 1_555 1_555
Zn1V O1JA 1_555 1_555
Zn1Y O1EA 1_555 1_555
Zn2N O2R 1_555 1_555
Zn2E O2DA 1_555 1_555
Zn2M O2S 1_555 1_555
Zn2V O2JA 1_555 1_555
Zn2Y O2EA 1_555 1_555
C6 C7 1_555 1_555
C9 N1 1_555 1_555
C10 N1 1_555 1_555
C6DA C7DA 1_555 1_555
C6EA C7EA 1_555 1_555
C6R C7R 1_555 1_555
C6S C7S 1_555 1_555
C6JA C7JA 1_555 1_555
C9DA N1DA 1_555 1_555
C9EA N1EA 1_555 1_555
C9R N1R 1_555 1_555
C9S N1S 1_555 1_555
C9JA N1JA 1_555 1_555
C10DA N1DA 1_555 1_555
C10EA N1EA 1_555 1_555
C10R N1R 1_555 1_555
C10S N1S 1_555 1_555
C10JA N1JA 1_555 1_555
N1DA Zn1N 1_555 1_555
N1EA Zn1N 1_555 1_555
N1S Zn1B 1_555 1_555
N1JA Zn1B 1_555 1_555
O1R Zn1N 1_555 1_555

#END
