
#######################################################################
#
#                 Cambridge Crystallographic Data Centre
#                                CCDC 
#
#######################################################################
#
# If this CIF has been generated from an entry in the Cambridge 
# Structural Database, then it will include bibliographic, chemical, 
# crystal, experimental, refinement or atomic coordinate data resulting 
# from the CCDC's data processing and validation procedures.
#
#######################################################################

data_GIWMOP
_chemical_formula_moiety         '(C16 H12 Cd2 N10 S4)n'
_symmetry_cell_setting           monoclinic
_symmetry_space_group_name_H-M   'C 2/c'
_symmetry_Int_Tables_number      15
_space_group_name_Hall           '-C 2yc'
loop_
_symmetry_equiv_pos_site_id
_symmetry_equiv_pos_as_xyz
1 x,y,z
2 1/2+x,1/2+y,z
3 -x,y,1/2-z
4 1/2-x,1/2+y,1/2-z
5 -x,-y,-z
6 1/2-x,1/2-y,-z
7 x,-y,1/2+z
8 1/2+x,1/2-y,1/2+z
_cell_length_a                   14.7746(3)
_cell_length_b                   13.3995(3)
_cell_length_c                   12.3716(2)
_cell_angle_alpha                90
_cell_angle_beta                 99.1901(12)
_cell_angle_gamma                90
_cell_volume                     2417.79
loop_
_atom_site_label
_atom_site_type_symbol
_atom_site_fract_x
_atom_site_fract_y
_atom_site_fract_z
_atom_site_U_iso_or_equiv
_atom_site_thermal_displace_type
Cd1 Cd 0.438991(12) 0.197981(15) 0.051389(15) 0.0360 Uani
C1 C 0.5908(3) 0.2771(3) -0.0981(3) 0.0643 Uani
H1 H 0.5556 0.2383 -0.1513 0.0770 Uiso
C2 C 0.6648(3) 0.3287(4) -0.1252(4) 0.0817 Uani
H2 H 0.6789 0.3253 -0.1958 0.0980 Uiso
C3 C 0.7171(3) 0.3849(4) -0.0469(4) 0.0816 Uani
H3 H 0.7676 0.4198 -0.0630 0.0980 Uiso
C4 C 0.6938(3) 0.3891(3) 0.0563(3) 0.0662 Uani
H4 H 0.7285 0.4270 0.1108 0.0790 Uiso
C5 C 0.61880(19) 0.3367(2) 0.0783(2) 0.0417 Uani
C6 C 0.58929(19) 0.3398(2) 0.1868(2) 0.0391 Uani
C7 C 0.56742(18) -0.0102(2) 0.1281(2) 0.0382 Uani
C8 C 0.27667(19) 0.3501(2) -0.0757(2) 0.0383 Uani
N1 N 0.56789(17) 0.2811(2) 0.0019(2) 0.0445 Uani
N2 N 0.51025(16) 0.30296(16) 0.19645(19) 0.0350 Uani
N3 N 0.6456(3) 0.3870(3) 0.2646(3) 0.0971 Uani
H5 H 0.6304 0.3953 0.3283 0.1160 Uiso
H6 H 0.6973 0.4094 0.2513 0.1160 Uiso
N4 N 0.53335(18) 0.0667(2) 0.1160(2) 0.0519 Uani
N5 N 0.34274(18) 0.3320(2) -0.0157(2) 0.0504 Uani
S1 S 0.61880(6) -0.11975(6) 0.14614(6) 0.0485 Uani
S2 S 0.18430(5) 0.37814(6) -0.16328(6) 0.0472 Uani
Cd1B Cd 0.561009(12) 0.197981(15) 0.448611(15) 0.0360 Uani
Cd1D Cd 0.561009(12) -0.197981(15) -0.051389(15) 0.0360 Uani
Cd1E Cd 0.061009(12) 0.302019(15) -0.051389(15) 0.0360 Uani
C1B C 0.4092(3) 0.2771(3) 0.5981(3) 0.0643 Uani
H1B H 0.4444 0.2383 0.6513 0.0770 Uiso
C2B C 0.3352(3) 0.3287(4) 0.6252(4) 0.0817 Uani
H2B H 0.3211 0.3253 0.6958 0.0980 Uiso
C3B C 0.2829(3) 0.3849(4) 0.5469(4) 0.0816 Uani
H3B H 0.2324 0.4198 0.5630 0.0980 Uiso
C4B C 0.3062(3) 0.3891(3) 0.4437(3) 0.0662 Uani
H4B H 0.2715 0.4270 0.3892 0.0790 Uiso
C5B C 0.38120(19) 0.3367(2) 0.4217(2) 0.0417 Uani
C6B C 0.41071(19) 0.3398(2) 0.3132(2) 0.0391 Uani
C7D C 0.43258(18) 0.0102(2) -0.1281(2) 0.0382 Uani
C8E C 0.22333(19) 0.1499(2) 0.0757(2) 0.0383 Uani
N1B N 0.43211(17) 0.2811(2) 0.4981(2) 0.0445 Uani
N2B N 0.48975(16) 0.30296(16) 0.30355(19) 0.0350 Uani
N3B N 0.3544(3) 0.3870(3) 0.2354(3) 0.0971 Uani
H5B H 0.3696 0.3953 0.1717 0.1160 Uiso
H6B H 0.3027 0.4094 0.2487 0.1160 Uiso
N4D N 0.46665(18) -0.0667(2) -0.1160(2) 0.0519 Uani
N4B N 0.46665(18) 0.0667(2) 0.3840(2) 0.0519 Uani
N5E N 0.15726(18) 0.1680(2) 0.0157(2) 0.0504 Uani
N5B N 0.65726(18) 0.3320(2) 0.5157(2) 0.0504 Uani
S1D S 0.38120(6) 0.11975(6) -0.14614(6) 0.0485 Uani
S1F S 0.61880(6) 0.11975(6) 0.64614(6) 0.0485 Uani
S2E S 0.31570(5) 0.12186(6) 0.16328(6) 0.0472 Uani
S2G S 0.68430(5) 0.12186(6) 0.33672(6) 0.0472 Uani
loop_
_atom_site_aniso_label
_atom_site_aniso_U_11
_atom_site_aniso_U_22
_atom_site_aniso_U_33
_atom_site_aniso_U_23
_atom_site_aniso_U_13
_atom_site_aniso_U_12
Cd1 0.02913(13) 0.04081(15) 0.03619(14) -0.00259(8) -0.00011(8) -0.00030(8)
C1 0.061(2) 0.090(3) 0.0453(19) -0.0068(18) 0.0193(17) -0.013(2)
C2 0.084(3) 0.104(3) 0.067(3) 0.004(2) 0.042(2) -0.019(3)
C3 0.073(3) 0.084(3) 0.097(3) 0.010(2) 0.042(2) -0.025(2)
C4 0.055(2) 0.065(2) 0.083(3) -0.0091(19) 0.0240(19) -0.0207(18)
C5 0.0325(14) 0.0428(16) 0.0494(16) 0.0008(13) 0.0052(12) -0.0060(12)
C6 0.0354(14) 0.0383(15) 0.0408(15) -0.0041(12) -0.0021(11) -0.0028(12)
C7 0.0325 0.0508 0.0286 -0.0033 -0.0036 -0.0015
C8 0.0388 0.0356 0.0411 0.0015 0.0085 0.0011
N1 0.0390(13) 0.0570(16) 0.0385(13) 0.0001(11) 0.0089(10) -0.0072(12)
N2 0.0312(11) 0.0390(13) 0.0332(12) 0.0003(9) 0.0006(9) -0.0004(9)
N3 0.095(3) 0.116(4) 0.080(2) -0.006(2) 0.013(2) -0.029(2)
N4 0.0504 0.054 0.0459 -0.0069 -0.0089 0.0145
N5 0.0383 0.0507 0.0586 0.0078 -0.0036 0.0046
S1 0.0527 0.0468 0.0403 -0.0043 -0.0097 0.0096
S2 0.0365 0.0593 0.043 0.0138 -0.0022 -0.0018
Cd1B 0.02913 0.04081 0.03619 0.00259 -0.00011 0.0003
Cd1D 0.02913 0.04081 0.03619 -0.00259 -0.00011 -0.0003
Cd1E 0.02913 0.04081 0.03619 -0.00259 -0.00011 -0.0003
C1B 0.061 0.09 0.0453 0.0068 0.0193 0.013
C2B 0.084 0.104 0.067 -0.004 0.042 0.019
C3B 0.073 0.084 0.097 -0.01 0.042 0.025
C4B 0.055 0.065 0.083 0.0091 0.024 0.0207
C5B 0.0325 0.0428 0.0494 -0.0008 0.0052 0.006
C6B 0.0354 0.0383 0.0408 0.0041 -0.0021 0.0028
C7D 0.0325(13) 0.0508(18) 0.0286(13) -0.0033(11) -0.0036(10) -0.0015(13)
C8E 0.0388(15) 0.0356(15) 0.0411(14) 0.0015(12) 0.0085(12) 0.0011(12)
N1B 0.039 0.057 0.0385 -0.0001 0.0089 0.0072
N2B 0.0312 0.039 0.0332 -0.0003 0.0006 0.0004
N3B 0.095 0.116 0.08 0.006 0.013 0.029
N4D 0.0504(15) 0.0540(17) 0.0459(15) -0.0069(12) -0.0089(11) 0.0145(13)
N4B 0.0504 0.054 0.0459 0.0069 -0.0089 -0.0145
N5E 0.0383(14) 0.0507(16) 0.0586(16) 0.0078(13) -0.0036(13) 0.0046(12)
N5B 0.0383 0.0507 0.0586 -0.0078 -0.0036 -0.0046
S1D 0.0527(4) 0.0468(5) 0.0403(4) -0.0043(3) -0.0097(3) 0.0096(3)
S1F 0.0527 0.0468 0.0403 0.0043 -0.0097 -0.0096
S2E 0.0365(4) 0.0593(5) 0.0430(4) 0.0138(3) -0.0022(3) -0.0018(3)
S2G 0.0365 0.0593 0.043 -0.0138 -0.0022 0.0018
loop_
_geom_bond_atom_site_label_1
_geom_bond_atom_site_label_2
_geom_bond_site_symmetry_1
_geom_bond_site_symmetry_2
Cd1 N1 1_555 1_555
C1 H1 1_555 1_555
C2 C1 1_555 1_555
H2 C2 1_555 1_555
C3 C2 1_555 1_555
H3 C3 1_555 1_555
C4 C3 1_555 1_555
H4 C4 1_555 1_555
C5 C4 1_555 1_555
C6 C5 1_555 1_555
C7 N4 1_555 1_555
C8 N5 1_555 1_555
N1 C1 1_555 1_555
N2 Cd1 1_555 1_555
N3 C6 1_555 1_555
H5 N3 1_555 1_555
H6 N3 1_555 1_555
N4 Cd1 1_555 1_555
N5 Cd1 1_555 1_555
S1 C7 1_555 1_555
S2 C8 1_555 1_555
Cd1B N1B 1_555 1_555
Cd1D S1 1_555 1_555
Cd1E S2 1_555 1_555
C1B H1B 1_555 1_555
C2B C1B 1_555 1_555
H2B C2B 1_555 1_555
C3B C2B 1_555 1_555
H3B C3B 1_555 1_555
C4B C3B 1_555 1_555
H4B C4B 1_555 1_555
C5B C4B 1_555 1_555
C6B C5B 1_555 1_555
C7D N4D 1_555 1_555
C8E N5E 1_555 1_555
N1B C1B 1_555 1_555
N2B N2 1_555 1_555
N3B C6B 1_555 1_555
H5B N3B 1_555 1_555
H6B N3B 1_555 1_555
N4D Cd1D 1_555 1_555
N4B Cd1B 1_555 1_555
N5E Cd1E 1_555 1_555
N5B Cd1B 1_555 1_555
S1D Cd1 1_555 1_555
S1F Cd1B 1_555 1_555
S2E Cd1 1_555 1_555
S2G Cd1B 1_555 1_555
C5 N1 1_555 1_555
C6 N2 1_555 1_555
Cd1B N2B 1_555 1_555
C5B N1B 1_555 1_555
C6B N2B 1_555 1_555
C7D S1D 1_555 1_555
C8E S2E 1_555 1_555

#END
