
#######################################################################
#
#                 Cambridge Crystallographic Data Centre
#                                CCDC 
#
#######################################################################
#
# If this CIF has been generated from an entry in the Cambridge 
# Structural Database, then it will include bibliographic, chemical, 
# crystal, experimental, refinement or atomic coordinate data resulting 
# from the CCDC's data processing and validation procedures.
#
#######################################################################

data_GIWMUV
_chemical_formula_moiety         'C10 H4 Cd1 N6 S4'
_symmetry_cell_setting           monoclinic
_symmetry_space_group_name_H-M   'C 2/c'
_symmetry_Int_Tables_number      15
_space_group_name_Hall           '-C 2yc'
loop_
_symmetry_equiv_pos_site_id
_symmetry_equiv_pos_as_xyz
1 x,y,z
2 1/2+x,1/2+y,z
3 -x,y,1/2-z
4 1/2-x,1/2+y,1/2-z
5 -x,-y,-z
6 1/2-x,1/2-y,-z
7 x,-y,1/2+z
8 1/2+x,1/2-y,1/2+z
_cell_length_a                   14.7762(3)
_cell_length_b                   13.3264(4)
_cell_length_c                   12.3879(3)
_cell_angle_alpha                90
_cell_angle_beta                 99.1826(16)
_cell_angle_gamma                90
_cell_volume                     2408.08
loop_
_atom_site_label
_atom_site_type_symbol
_atom_site_fract_x
_atom_site_fract_y
_atom_site_fract_z
_atom_site_U_iso_or_equiv
_atom_site_thermal_displace_type
Cd1 Cd 0.061510(11) 0.198293(14) 0.450363(13) 0.0371 Uani
C1 C -0.0923(2) 0.2792(3) 0.5970(2) 0.0649 Uani
H1 H -0.0573 0.2408 0.6508 0.0780 Uiso
C2 C -0.1659(3) 0.3297(3) 0.6242(3) 0.0818 Uani
H2 H -0.1798 0.3265 0.6947 0.0980 Uiso
C3 C -0.2181(3) 0.3845(3) 0.5458(3) 0.0837 Uani
H3 H -0.2686 0.4198 0.5618 0.1010 Uiso
C4 C -0.1955(2) 0.3878(2) 0.4414(3) 0.0680 Uani
H4 H -0.2310 0.4243 0.3862 0.0810 Uiso
C5 C -0.11932(17) 0.3359(2) 0.4211(2) 0.0423 Uani
C6 C -0.08982(17) 0.3385(2) 0.3121(2) 0.0409 Uani
C7 C -0.06731(16) -0.0102(2) 0.37202(17) 0.0382 Uani
C8 C 0.22371(17) 0.35034(19) 0.57519(19) 0.0388 Uani
N1 N -0.06778(15) 0.28158(17) 0.49846(17) 0.0457 Uani
N2 N -0.01040(14) 0.30286(14) 0.30318(16) 0.0356 Uani
N3 N -0.1466(3) 0.3868(3) 0.2359(3) 0.0484 Uani
N4 N -0.03342(15) 0.06713(19) 0.38539(17) 0.0517 Uani
N5 N 0.15740(16) 0.33307(19) 0.5153(2) 0.0547 Uani
S1 S 0.11873(5) 0.11953(5) 0.64702(5) 0.0502 Uani
S2 S 0.18408(4) 0.12200(6) 0.33758(5) 0.0495 Uani
C7D C 0.06731(16) 0.0102(2) 0.62798(17) 0.0382 Uani
C8E C 0.27629(17) 0.14966(19) 0.42481(19) 0.0388 Uani
N2B N 0.01040(14) 0.30286(14) 0.19682(16) 0.0356 Uani
S1D S -0.11873(5) -0.11953(5) 0.35298(5) 0.0502 Uani
S2E S 0.31592(4) 0.37800(6) 0.66242(5) 0.0495 Uani
loop_
_atom_site_aniso_label
_atom_site_aniso_U_11
_atom_site_aniso_U_22
_atom_site_aniso_U_33
_atom_site_aniso_U_23
_atom_site_aniso_U_13
_atom_site_aniso_U_12
Cd1 0.03041(12) 0.04258(14) 0.03637(12) 0.00242(7) -0.00026(7) 0.00008(8)
C1 0.0589(19) 0.090(3) 0.0484(16) 0.0052(15) 0.0161(15) 0.0098(17)
C2 0.082(3) 0.103(3) 0.070(2) -0.004(2) 0.041(2) 0.018(2)
C3 0.068(2) 0.088(3) 0.106(3) -0.013(2) 0.047(2) 0.021(2)
C4 0.0531(18) 0.061(2) 0.093(2) 0.0112(17) 0.0209(16) 0.0213(16)
C5 0.0339(13) 0.0426(15) 0.0504(14) -0.0010(12) 0.0063(11) 0.0006(11)
C6 0.0366(14) 0.0401(14) 0.0443(14) 0.0012(11) 0.0014(11) 0.0003(11)
C7 0.0317 0.0491 0.0316 0.0042 -0.0018 0.0007
C8 0.0392 0.0353 0.0426 -0.003 0.0087 -0.0012
N1 0.0407(12) 0.0576(15) 0.0394(12) 0.0004(10) 0.0085(9) 0.0060(10)
N2 0.0326(10) 0.0398(12) 0.0327(10) -0.0005(8) 0.0003(8) -0.0007(9)
N3 0.045(2) 0.055(3) 0.043(2) 0.008(2) 0.0003(18) 0.015(2)
N4 0.0469 0.0579 0.0456 0.0053 -0.0066 -0.0123
N5 0.0411 0.0569 0.0622 -0.008 -0.0039 -0.0076
S1 0.0563(4) 0.0486(4) 0.0400(3) 0.0043(3) -0.0100(3) -0.0102(3)
S2 0.0384(4) 0.0612(5) 0.0460(4) -0.0137(3) -0.0019(3) 0.0026(3)
C7D 0.0317(12) 0.0491(17) 0.0316(12) 0.0042(10) -0.0018(9) 0.0007(12)
C8E 0.0392(14) 0.0353(14) 0.0426(13) -0.0030(11) 0.0087(11) -0.0012(11)
N2B 0.0326 0.0398 0.0327 0.0005 0.0003 0.0007
S1D 0.0563 0.0486 0.04 0.0043 -0.01 -0.0102
S2E 0.0384 0.0612 0.046 -0.0137 -0.0019 0.0026
loop_
_geom_bond_atom_site_label_1
_geom_bond_atom_site_label_2
_geom_bond_site_symmetry_1
_geom_bond_site_symmetry_2
Cd1 N1 1_555 1_555
C1 H1 1_555 1_555
C2 C1 1_555 1_555
H2 C2 1_555 1_555
C3 C2 1_555 1_555
H3 C3 1_555 1_555
C4 C3 1_555 1_555
H4 C4 1_555 1_555
C5 C4 1_555 1_555
C6 C5 1_555 1_555
C7 N4 1_555 1_555
C8 N5 1_555 1_555
N1 C1 1_555 1_555
N2 Cd1 1_555 1_555
N3 C6 1_555 1_555
N4 Cd1 1_555 1_555
N5 Cd1 1_555 1_555
S1 Cd1 1_555 1_555
S2 Cd1 1_555 1_555
C7D S1 1_555 1_555
C8E S2 1_555 1_555
N2B N2 1_555 1_555
S1D C7 1_555 1_555
S2E C8 1_555 1_555
C5 N1 1_555 1_555
C6 N2 1_555 1_555

#END
