
#######################################################################
#
#                 Cambridge Crystallographic Data Centre
#                                CCDC 
#
#######################################################################
#
# If this CIF has been generated from an entry in the Cambridge 
# Structural Database, then it will include bibliographic, chemical, 
# crystal, experimental, refinement or atomic coordinate data resulting 
# from the CCDC's data processing and validation procedures.
#
#######################################################################

data_UGEPEB
_chemical_formula_moiety         '(C6 H7 Cu1 N1 O4)n'
_symmetry_cell_setting           monoclinic
_symmetry_space_group_name_H-M   'P 21/n'
_symmetry_Int_Tables_number      14
_space_group_name_Hall           '-P 2yn'
loop_
_symmetry_equiv_pos_site_id
_symmetry_equiv_pos_as_xyz
1 x,y,z
2 1/2-x,1/2+y,1/2-z
3 -x,-y,-z
4 1/2+x,1/2-y,1/2+z
_cell_length_a                   3.53400(10)
_cell_length_b                   15.7680(5)
_cell_length_c                   13.0052(4)
_cell_angle_alpha                90
_cell_angle_beta                 96.8850(13)
_cell_angle_gamma                90
_cell_volume                     719.477
loop_
_atom_site_label
_atom_site_type_symbol
_atom_site_fract_x
_atom_site_fract_y
_atom_site_fract_z
Cu1 Cu 0.26242(9) 0.07802(2) 0.49492(2)
O1 O 0.3131(5) -0.02838(12) 0.57051(14)
H1 H 0.3502(5) -0.02395(12) 0.63608(14)
N1 N 0.2571(6) 0.17961(14) 0.4035(2)
C1 C 0.2548(7) 0.1654(2) 0.3011(2)
H2 H 0.1928(7) 0.1115(2) 0.2753(2)
C2 C 0.3414(7) 0.2281(2) 0.2332(2)
H3 H 0.3370(7) 0.2164(2) 0.1630(2)
C3 C 0.4350(7) 0.3086(2) 0.2712(2)
C4 C 0.4260(8) 0.3238(2) 0.3763(2)
H4 H 0.4800(8) 0.3776(2) 0.4037(2)
C5 C 0.3355(7) 0.2580(2) 0.4397(2)
H5 H 0.3290(7) 0.2686(2) 0.5098(2)
C6 C 0.5602(7) 0.3774(2) 0.2010(2)
O2 O 0.5370(6) 0.35786(13) 0.10595(14)
O3 O 0.6811(7) 0.44504(14) 0.2416(2)
O1B O -0.3131(5) 0.02838(12) 0.42949(14)
O1B_2 O 0.6869(5) 0.02838(12) 0.42949(14)
O2C O 0.0370(6) 0.14214(13) 0.60595(14)
Cu1B Cu -0.26242(9) -0.07802(2) 0.50508(2)
Cu1B_2 Cu 0.73758(9) -0.07802(2) 0.50508(2)
Cu1C Cu 0.76242(9) 0.42198(2) -0.00508(2)
H1B H -0.3502(5) 0.02395(12) 0.36392(14)
H1B_2 H 0.6498(5) 0.02395(12) 0.36392(14)
O4 O 0.9245(19) 0.5464(2) 0.4130(3)
H6 H 0.9069(19) 0.5130(2) 0.4635(3)
H7 H 1.1505(19) 0.5656(2) 0.4169(3)
loop_
_geom_bond_atom_site_label_1
_geom_bond_atom_site_label_2
_geom_bond_site_symmetry_1
_geom_bond_site_symmetry_2
Cu1 O1 1_555 1_555
O1 H1 1_555 1_555
N1 Cu1 1_555 1_555
C1 N1 1_555 1_555
H2 C1 1_555 1_555
C2 C1 1_555 1_555
H3 C2 1_555 1_555
C3 C2 1_555 1_555
C4 C3 1_555 1_555
H4 C4 1_555 1_555
C5 N1 1_555 1_555
H5 C5 1_555 1_555
C6 C3 1_555 1_555
O2 C6 1_555 1_555
O3 C6 1_555 1_555
O4 H6 1_555 1_555
H7 O4 1_555 1_555
O1B Cu1 1_555 1_555
O1B_2 Cu1 1_555 1_555
O2C Cu1 1_555 1_555
Cu1B O1 1_555 1_555
Cu1B_2 O1 1_555 1_555
Cu1C O2 1_555 1_555
H1B O1B 1_555 1_555
H1B_2 O1B_2 1_555 1_555
C4 C5 1_555 1_555
O1B Cu1B 1_555 1_555
O1B_2 Cu1B_2 1_555 1_555

#END
