
#######################################################################
#
#                 Cambridge Crystallographic Data Centre
#                                CCDC 
#
#######################################################################
#
# If this CIF has been generated from an entry in the Cambridge 
# Structural Database, then it will include bibliographic, chemical, 
# crystal, experimental, refinement or atomic coordinate data resulting 
# from the CCDC's data processing and validation procedures.
#
#######################################################################

data_QURNOI
_chemical_formula_moiety         '(C38 H23 Cl6 Co3 N7 O16 Zr3)n'
_symmetry_cell_setting           cubic
_symmetry_space_group_name_H-M   'P a -3'
_symmetry_Int_Tables_number      205
_space_group_name_Hall           '-P 2ac 2ab 3'
loop_
_symmetry_equiv_pos_site_id
_symmetry_equiv_pos_as_xyz
1 x,y,z
2 z,x,y
3 y,z,x
4 1/2-y,-z,1/2+x
5 1/2+z,1/2-x,-y
6 -y,1/2+z,1/2-x
7 1/2-z,-x,1/2+y
8 -z,1/2+x,1/2-y
9 1/2+y,1/2-z,-x
10 1/2-x,-y,1/2+z
11 1/2+x,1/2-y,-z
12 -x,1/2+y,1/2-z
13 -x,-y,-z
14 -z,-x,-y
15 -y,-z,-x
16 1/2+y,z,1/2-x
17 1/2-z,1/2+x,y
18 y,1/2-z,1/2+x
19 1/2+z,x,1/2-y
20 z,1/2-x,1/2+y
21 1/2-y,1/2+z,x
22 1/2+x,y,1/2-z
23 1/2-x,1/2+y,z
24 x,1/2-y,1/2+z
_cell_length_a                   26.0729(6)
_cell_length_b                   26.0729(6)
_cell_length_c                   26.0729(6)
_cell_angle_alpha                90
_cell_angle_beta                 90
_cell_angle_gamma                90
_cell_volume                     17724.3
loop_
_atom_site_label
_atom_site_type_symbol
_atom_site_fract_x
_atom_site_fract_y
_atom_site_fract_z
Zr1 Zr 0.98470(2) 0.40759(2) -0.01313(2)
O1 O 0.9474(3) 0.4474(3) 0.0526(3)
O2 O 0.9317(2) 0.4644(2) -0.0505(2)
C1 C 0.9860(3) 0.31957(19) 0.13527(19)
C2 C 0.99375(19) 0.36352(16) 0.10039(16)
O3 O 1.00641(14) 0.40551(12) 0.12166(12)
O4 O 0.98735(13) 0.35497(11) 0.05292(11)
C3 C 0.9635(3) 0.1338(2) 0.3218(2)
C4 C 0.9672(2) 0.09846(17) 0.36590(16)
O5 O 0.96810(13) 0.12041(12) 0.40977(12)
O6 O 0.96915(13) 0.05116(12) 0.35666(12)
C5 C 0.9731(5) 0.2416(3) 0.2033(2)
C6 C 0.9675(4) 0.2015(2) 0.2427(2)
C7 C 0.9876(12) 0.2281(7) 0.1505(8)
H1 H 0.9969 0.1951 0.1407
C8 C 0.9859(10) 0.2699(10) 0.1164(10)
H2 H 0.9848 0.2642 0.0812
C9 C 0.9850(9) 0.3285(9) 0.1895(9)
H3 H 0.9921 0.3610 0.2025
C10 C 0.9673(11) 0.1474(9) 0.2316(9)
H4 H 0.9674 0.1357 0.1979
C11 C 0.9671(12) 0.1164(9) 0.2682(9)
H5 H 0.9693 0.0815 0.2615
C12 C 0.9646(12) 0.1858(12) 0.3286(14)
H6 H 0.9633 0.1989 0.3617
N1 N 0.9737(7) 0.2896(7) 0.2214(7)
N2 N 0.9675(8) 0.2175(5) 0.2901(7)
Co1 Co 0.96813(19) 0.29983(13) 0.30084(13)
Cl1 Cl 1.0162(5) 0.2949(3) 0.3868(3)
Cl2 Cl 1.0302(11) 0.3781(7) 0.2922(7)
Zr1A Zr 0.98687(2) -0.01530(2) 0.40759(2)
O2A O 0.9495(2) -0.0683(2) 0.4644(2)
C1A C 1.13527(19) -0.0140(3) 0.31957(19)
C2A C 1.10039(16) -0.00625(19) 0.36352(16)
O3A O 1.12166(12) 0.00641(14) 0.40551(12)
O4A O 1.05292(11) -0.01265(13) 0.35497(11)
C3A C 1.3218(2) -0.0365(3) 0.1338(2)
C4A C 1.36590(16) -0.0328(2) 0.09846(17)
O5A O 1.40977(12) -0.03190(13) 0.12041(12)
O6A O 1.35666(12) -0.03085(13) 0.05116(12)
C5A C 1.2033(2) -0.0269(5) 0.2416(3)
C6A C 1.2427(2) -0.0325(4) 0.2015(2)
C7A C 1.1505(8) -0.0124(12) 0.2281(7)
H1A H 1.1407 -0.0031 0.1951
C8A C 1.1164(10) -0.0141(10) 0.2699(10)
H2A H 1.0812 -0.0152 0.2642
C9A C 1.1895(9) -0.0150(9) 0.3285(9)
H3A H 1.2025 -0.0079 0.3610
C10A C 1.2316(9) -0.0327(11) 0.1474(9)
H4A H 1.1979 -0.0326 0.1357
C11A C 1.2682(9) -0.0329(12) 0.1164(9)
H5A H 1.2615 -0.0307 0.0815
C12A C 1.3286(14) -0.0354(12) 0.1858(12)
H6A H 1.3617 -0.0367 0.1989
N1A N 1.2214(7) -0.0263(7) 0.2896(7)
N2A N 1.2901(7) -0.0325(8) 0.2175(5)
Co1A Co 1.30084(13) -0.03187(19) 0.29983(13)
Cl1A Cl 1.3868(3) 0.0162(5) 0.2949(3)
Cl2A Cl 1.2922(7) 0.0302(11) 0.3781(7)
Zr1B Zr 1.40759(2) -0.01313(2) -0.01530(2)
O2B O 1.4644(2) -0.0505(2) -0.0683(2)
C1B C 1.31957(19) 0.13527(19) -0.0140(3)
C2B C 1.36352(16) 0.10039(16) -0.00625(19)
O3B O 1.40551(12) 0.12166(12) 0.00641(14)
O4B O 1.35497(11) 0.05292(11) -0.01265(13)
C3B C 1.1338(2) 0.3218(2) -0.0365(3)
C4B C 1.09846(17) 0.36590(16) -0.0328(2)
O5B O 1.12041(12) 0.40977(12) -0.03190(13)
O6B O 1.05116(12) 0.35666(12) -0.03085(13)
C5B C 1.2416(3) 0.2033(2) -0.0269(5)
C6B C 1.2015(2) 0.2427(2) -0.0325(4)
C7B C 1.2281(7) 0.1505(8) -0.0124(12)
H1B H 1.1951 0.1407 -0.0031
C8B C 1.2699(10) 0.1164(10) -0.0141(10)
H2B H 1.2642 0.0812 -0.0152
C9B C 1.3285(9) 0.1895(9) -0.0150(9)
H3B H 1.3610 0.2025 -0.0079
C10B C 1.1474(9) 0.2316(9) -0.0327(11)
H4B H 1.1357 0.1979 -0.0326
C11B C 1.1164(9) 0.2682(9) -0.0329(12)
H5B H 1.0815 0.2615 -0.0307
C12B C 1.1858(12) 0.3286(14) -0.0354(12)
H6B H 1.1989 0.3617 -0.0367
N1B N 1.2896(7) 0.2214(7) -0.0263(7)
N2B N 1.2175(5) 0.2901(7) -0.0325(8)
Co1B Co 1.29983(13) 0.30084(13) -0.03187(19)
Cl1B Cl 1.2949(3) 0.3868(3) 0.0162(5)
Cl2B Cl 1.3781(7) 0.2922(7) 0.0302(11)
Zr1C Zr 1.09241(2) 0.01313(2) 0.48470(2)
Zr1F Zr 1.51313(2) 0.01530(2) -0.09241(2)
Zr1G Zr 1.01313(2) 0.48470(2) 0.09241(2)
Zr1H Zr 0.90759(2) 0.51313(2) 0.01530(2)
Zr1J Zr 1.48470(2) 0.09241(2) 0.01313(2)
Zr1K Zr 1.01530(2) -0.09241(2) 0.51313(2)
Zr1O Zr 0.90759(2) -0.01313(2) 0.51530(2)
Zr1R Zr 1.48687(2) -0.01530(2) 0.09241(2)
Zr1S Zr 0.98687(2) 0.51530(2) -0.09241(2)
Zr1T Zr 1.09241(2) 0.48687(2) -0.01530(2)
Zr1V Zr 1.51530(2) -0.09241(2) -0.01313(2)
Zr1W Zr 0.98470(2) 0.09241(2) 0.48687(2)
O1A O 1.0526(3) -0.0526(3) 0.4474(3)
O1B O 1.4474(3) 0.0526(3) -0.0526(3)
O2C O 1.0356(2) 0.0505(2) 0.4317(2)
O2G O 1.0505(2) 0.4317(2) 0.0356(2)
O2J O 1.4317(2) 0.0356(2) 0.0505(2)
O2R O 1.4495(2) -0.0683(2) 0.0356(2)
O2T O 1.0356(2) 0.4495(2) -0.0683(2)
O2W O 0.9317(2) 0.0356(2) 0.4495(2)
O3F O 1.37834(12) -0.00641(14) -0.09449(12)
O3H O 0.90551(12) 0.37834(12) -0.00641(14)
O3K O 0.99359(14) -0.09449(12) 0.37834(12)
O5R O 0.90977(12) -0.03190(13) 0.37959(12)
O5T O 1.37959(12) -0.09023(12) -0.03190(13)
O5W O 0.96810(13) 0.37959(12) -0.09023(12)
C13 C 0.8566(4) 0.3566(4) 0.1434(4)
C14 C 0.8249(5) 0.3249(5) 0.1751(5)
N3 N 0.8824(4) 0.3824(4) 0.1176(4)
loop_
_geom_bond_atom_site_label_1
_geom_bond_atom_site_label_2
_geom_bond_site_symmetry_1
_geom_bond_site_symmetry_2
Zr1 O1 1_555 1_555
O1 Zr1G 1_555 1_555
O2 Zr1 1_555 1_555
C1 C2 1_555 1_555
C2 O3 1_555 1_555
O3 Zr1G 1_555 1_555
O4 Zr1 1_555 1_555
C3 C4 1_555 1_555
C4 O5 1_555 1_555
O5 Zr1W 1_555 1_555
O6 C4 1_555 1_555
C5 C6 1_555 1_555
C6 C10 1_555 1_555
C7 C5 1_555 1_555
H1 C7 1_555 1_555
C8 C1 1_555 1_555
H2 C8 1_555 1_555
C9 C1 1_555 1_555
H3 C9 1_555 1_555
C10 H4 1_555 1_555
C11 C3 1_555 1_555
H5 C11 1_555 1_555
C12 C3 1_555 1_555
H6 C12 1_555 1_555
N1 C5 1_555 1_555
N2 C6 1_555 1_555
Co1 N1 1_555 1_555
Cl1 Co1 1_555 1_555
Cl2 Co1 1_555 1_555
C13 C14 1_555 1_555
N3 C13 1_555 1_555
Zr1A O6 1_555 1_555
O2A Zr1A 1_555 1_555
C1A C2A 1_555 1_555
C2A O3A 1_555 1_555
O3A Zr1C 1_555 1_555
O4A Zr1A 1_555 1_555
C3A C4A 1_555 1_555
C4A O5A 1_555 1_555
O5A Zr1R 1_555 1_555
O6A C4A 1_555 1_555
C5A C6A 1_555 1_555
C6A C10A 1_555 1_555
C7A C5A 1_555 1_555
H1A C7A 1_555 1_555
C8A C1A 1_555 1_555
H2A C8A 1_555 1_555
C9A C1A 1_555 1_555
H3A C9A 1_555 1_555
C10A H4A 1_555 1_555
C11A C3A 1_555 1_555
H5A C11A 1_555 1_555
C12A C3A 1_555 1_555
H6A C12A 1_555 1_555
N1A C5A 1_555 1_555
N2A C6A 1_555 1_555
Co1A N1A 1_555 1_555
Cl1A Co1A 1_555 1_555
Cl2A Co1A 1_555 1_555
Zr1B O6A 1_555 1_555
O2B Zr1B 1_555 1_555
C1B C2B 1_555 1_555
C2B O3B 1_555 1_555
O3B Zr1J 1_555 1_555
O4B Zr1B 1_555 1_555
C3B C4B 1_555 1_555
C4B O5B 1_555 1_555
O5B Zr1T 1_555 1_555
O6B Zr1 1_555 1_555
C5B C6B 1_555 1_555
C6B C10B 1_555 1_555
C7B C5B 1_555 1_555
H1B C7B 1_555 1_555
C8B C1B 1_555 1_555
H2B C8B 1_555 1_555
C9B C1B 1_555 1_555
H3B C9B 1_555 1_555
C10B H4B 1_555 1_555
C11B C3B 1_555 1_555
H5B C11B 1_555 1_555
C12B C3B 1_555 1_555
H6B C12B 1_555 1_555
N1B C5B 1_555 1_555
N2B C6B 1_555 1_555
Co1B N1B 1_555 1_555
Cl1B Co1B 1_555 1_555
Cl2B Co1B 1_555 1_555
Zr1C O1A 1_555 1_555
Zr1F O2B 1_555 1_555
Zr1G O2G 1_555 1_555
Zr1H O1 1_555 1_555
Zr1J O1B 1_555 1_555
Zr1K O2A 1_555 1_555
Zr1O O2A 1_555 1_555
Zr1R O2J 1_555 1_555
Zr1S O2 1_555 1_555
Zr1T O2G 1_555 1_555
Zr1V O2B 1_555 1_555
Zr1W O2C 1_555 1_555
O1A Zr1A 1_555 1_555
O1B Zr1B 1_555 1_555
O2C Zr1A 1_555 1_555
O2G Zr1 1_555 1_555
O2J Zr1B 1_555 1_555
O2R Zr1B 1_555 1_555
O2T Zr1 1_555 1_555
O2W Zr1A 1_555 1_555
O3F Zr1B 1_555 1_555
O3H Zr1 1_555 1_555
O3K Zr1A 1_555 1_555
O5R Zr1A 1_555 1_555
O5T Zr1B 1_555 1_555
O5W Zr1 1_555 1_555
O2 Zr1H 1_555 1_555
C2 O4 1_555 1_555
C7 C8 1_555 1_555
C9 N1 1_555 1_555
C10 C11 1_555 1_555
C12 N2 1_555 1_555
N2 Co1 1_555 1_555
C2A O4A 1_555 1_555
C7A C8A 1_555 1_555
C9A N1A 1_555 1_555
C10A C11A 1_555 1_555
C12A N2A 1_555 1_555
N2A Co1A 1_555 1_555
C2B O4B 1_555 1_555
C4B O6B 1_555 1_555
C7B C8B 1_555 1_555
C9B N1B 1_555 1_555
C10B C11B 1_555 1_555
C12B N2B 1_555 1_555
N2B Co1B 1_555 1_555
Zr1C O2C 1_555 1_555
Zr1F O1B 1_555 1_555
Zr1J O2J 1_555 1_555
Zr1K O1A 1_555 1_555
Zr1O O2W 1_555 1_555
Zr1R O2R 1_555 1_555
Zr1S O2T 1_555 1_555
Zr1T O2T 1_555 1_555
Zr1V O2R 1_555 1_555
Zr1W O2W 1_555 1_555

#END
