
#######################################################################
#
#                 Cambridge Crystallographic Data Centre
#                                CCDC 
#
#######################################################################
#
# If this CIF has been generated from an entry in the Cambridge 
# Structural Database, then it will include bibliographic, chemical, 
# crystal, experimental, refinement or atomic coordinate data resulting 
# from the CCDC's data processing and validation procedures.
#
#######################################################################

data_QURPOK
_chemical_formula_moiety         '(C38 H23 Br6 Fe3 N7 O16 Zr3)n'
_symmetry_cell_setting           cubic
_symmetry_space_group_name_H-M   'P a -3'
_symmetry_Int_Tables_number      205
_space_group_name_Hall           '-P 2ac 2ab 3'
loop_
_symmetry_equiv_pos_site_id
_symmetry_equiv_pos_as_xyz
1 x,y,z
2 z,x,y
3 y,z,x
4 1/2-y,-z,1/2+x
5 1/2+z,1/2-x,-y
6 -y,1/2+z,1/2-x
7 1/2-z,-x,1/2+y
8 -z,1/2+x,1/2-y
9 1/2+y,1/2-z,-x
10 1/2-x,-y,1/2+z
11 1/2+x,1/2-y,-z
12 -x,1/2+y,1/2-z
13 -x,-y,-z
14 -z,-x,-y
15 -y,-z,-x
16 1/2+y,z,1/2-x
17 1/2-z,1/2+x,y
18 y,1/2-z,1/2+x
19 1/2+z,x,1/2-y
20 z,1/2-x,1/2+y
21 1/2-y,1/2+z,x
22 1/2+x,y,1/2-z
23 1/2-x,1/2+y,z
24 x,1/2-y,1/2+z
_cell_length_a                   26.255(4)
_cell_length_b                   26.255(4)
_cell_length_c                   26.255(4)
_cell_angle_alpha                90
_cell_angle_beta                 90
_cell_angle_gamma                90
_cell_volume                     18098.2
loop_
_atom_site_label
_atom_site_type_symbol
_atom_site_fract_x
_atom_site_fract_y
_atom_site_fract_z
_atom_site_U_iso_or_equiv
_atom_site_thermal_displace_type
Zr1 Zr 0.51192(2) 0.51385(2) 0.09265(2) 0.0169 Uani
O1 O 0.5511(4) 0.5677(4) 0.0376(4) 0.0160 Uani
O2 O 0.4469(4) 0.5531(4) 0.0531(4) 0.0200 Uani
O3 O 0.5888(2) 0.5293(2) 0.12109(19) 0.0270 Uani
O4 O 0.64260(18) 0.5282(2) 0.05353(19) 0.0257 Uani
O5 O 0.8768(2) 0.4946(2) 0.40761(18) 0.0253 Uani
O6 O 0.94481(18) 0.5106(2) 0.35570(17) 0.0240 Uani
C1 C 0.7554(4) 0.5366(6) 0.2045(4) 0.0627 Uani
C2 C 0.7643(4) 0.5483(7) 0.1555(5) 0.0787 Uani
H1 H 0.7970 0.5576 0.1455 0.0940 Uiso
C3 C 0.7255(4) 0.5466(6) 0.1193(4) 0.0673 Uani
H2 H 0.7324 0.5513 0.0848 0.0810 Uiso
C4 C 0.6764(3) 0.5378(4) 0.1364(3) 0.0403 Uani
C5 C 0.6681(4) 0.5316(6) 0.1887(4) 0.0653 Uani
H3 H 0.6348 0.5295 0.2007 0.0780 Uiso
C6 C 0.7943(4) 0.5324(6) 0.2453(4) 0.0607 Uani
C7 C 0.8457(4) 0.5382(7) 0.2352(4) 0.0807 Uani
H4 H 0.8568 0.5468 0.2027 0.0970 Uiso
C8 C 0.8800(4) 0.5310(6) 0.2738(4) 0.0693 Uani
H5 H 0.9146 0.5362 0.2684 0.0830 Uiso
C9 C 0.8621(3) 0.5157(4) 0.3216(3) 0.0400 Uani
C10 C 0.8100(4) 0.5099(5) 0.3290(4) 0.0553 Uani
H6 H 0.7972 0.4998 0.3605 0.0670 Uiso
C11 C 0.6332(3) 0.5312(3) 0.1002(3) 0.0293 Uani
C12 C 0.8978(3) 0.5063(3) 0.3652(3) 0.0260 Uani
N1 N 0.7071(3) 0.5285(6) 0.2222(3) 0.0750 Uani
N2 N 0.7786(3) 0.5191(5) 0.2903(4) 0.0687 Uani
Fe1 Fe 0.69656(7) 0.51619(16) 0.30068(7) 0.1015 Uani
Br1 Br 0.6601(2) 0.4342(3) 0.3027(3) 0.2247 Uani
Br2 Br 0.6843(3) 0.5936(4) 0.3461(3) 0.2567 Uani
Zr1E Zr 0.48615(2) 0.59265(2) -0.01192(2) 0.0169 Uani
O1E O 0.4323(4) 0.5376(4) -0.0511(4) 0.0160 Uani
O3E O 0.4707(2) 0.62109(19) -0.0888(2) 0.0270 Uani
O4E O 0.4718(2) 0.55353(19) -0.14260(18) 0.0257 Uani
O5E O 0.5054(2) 0.90761(18) -0.3768(2) 0.0253 Uani
O6E O 0.4894(2) 0.85570(17) -0.44481(18) 0.0240 Uani
C1E C 0.4634(6) 0.7045(4) -0.2554(4) 0.0627 Uani
C2E C 0.4517(7) 0.6555(5) -0.2643(4) 0.0787 Uani
H1E H 0.4424 0.6455 -0.2970 0.0940 Uiso
C3E C 0.4534(6) 0.6193(4) -0.2255(4) 0.0673 Uani
H2E H 0.4487 0.5848 -0.2324 0.0810 Uiso
C4E C 0.4622(4) 0.6364(3) -0.1764(3) 0.0403 Uani
C5E C 0.4684(6) 0.6887(4) -0.1681(4) 0.0653 Uani
H3E H 0.4705 0.7007 -0.1348 0.0780 Uiso
C6E C 0.4676(6) 0.7453(4) -0.2943(4) 0.0607 Uani
C7E C 0.4618(7) 0.7352(4) -0.3457(4) 0.0807 Uani
H4E H 0.4532 0.7027 -0.3568 0.0970 Uiso
C8E C 0.4690(6) 0.7738(4) -0.3800(4) 0.0693 Uani
H5E H 0.4638 0.7684 -0.4146 0.0830 Uiso
C9E C 0.4843(4) 0.8216(3) -0.3621(3) 0.0400 Uani
C10E C 0.4901(5) 0.8290(4) -0.3100(4) 0.0553 Uani
H6E H 0.5002 0.8605 -0.2972 0.0670 Uiso
C11E C 0.4688(3) 0.6002(3) -0.1332(3) 0.0293 Uani
C12E C 0.4937(3) 0.8652(3) -0.3978(3) 0.0260 Uani
N1E N 0.4715(6) 0.7222(3) -0.2071(3) 0.0750 Uani
N2E N 0.4809(5) 0.7903(4) -0.2786(3) 0.0687 Uani
Fe1E Fe 0.48381(16) 0.80068(7) -0.19656(7) 0.1015 Uani
Br1E Br 0.5658(3) 0.8027(3) -0.1601(2) 0.2247 Uani
Br2E Br 0.4064(4) 0.8461(3) -0.1843(3) 0.2567 Uani
Zr1F Zr 0.40735(2) 0.48808(2) 0.01385(2) 0.0169 Uani
O1F O 0.4624(4) 0.4489(4) 0.0677(4) 0.0160 Uani
O3F O 0.37891(19) 0.4112(2) 0.0293(2) 0.0270 Uani
O4F O 0.44647(19) 0.35740(18) 0.0282(2) 0.0257 Uani
O5F O 0.09239(18) 0.1232(2) -0.0054(2) 0.0253 Uani
O6F O 0.14430(17) 0.05519(18) 0.0106(2) 0.0240 Uani
C1F C 0.2955(4) 0.2446(4) 0.0366(6) 0.0627 Uani
C2F C 0.3445(5) 0.2357(4) 0.0483(7) 0.0787 Uani
H1F H 0.3545 0.2030 0.0576 0.0940 Uiso
C3F C 0.3807(4) 0.2745(4) 0.0466(6) 0.0673 Uani
H2F H 0.4152 0.2676 0.0513 0.0810 Uiso
C4F C 0.3636(3) 0.3236(3) 0.0378(4) 0.0403 Uani
C5F C 0.3113(4) 0.3319(4) 0.0316(6) 0.0653 Uani
H3F H 0.2993 0.3652 0.0295 0.0780 Uiso
C6F C 0.2547(4) 0.2057(4) 0.0324(6) 0.0607 Uani
C7F C 0.2648(4) 0.1543(4) 0.0382(7) 0.0807 Uani
H4F H 0.2973 0.1432 0.0468 0.0970 Uiso
C8F C 0.2262(4) 0.1200(4) 0.0310(6) 0.0693 Uani
H5F H 0.2316 0.0854 0.0362 0.0830 Uiso
C9F C 0.1784(3) 0.1379(3) 0.0157(4) 0.0400 Uani
C10F C 0.1710(4) 0.1900(4) 0.0099(5) 0.0553 Uani
H6F H 0.1395 0.2028 -0.0002 0.0670 Uiso
C11F C 0.3998(3) 0.3668(3) 0.0312(3) 0.0293 Uani
C12F C 0.1348(3) 0.1022(3) 0.0063(3) 0.0260 Uani
N1F N 0.2778(3) 0.2929(3) 0.0285(6) 0.0750 Uani
N2F N 0.2097(4) 0.2214(3) 0.0191(5) 0.0687 Uani
Fe1F Fe 0.19932(7) 0.30344(7) 0.01619(16) 0.1015 Uani
Br1F Br 0.1973(3) 0.3399(2) -0.0658(3) 0.2247 Uani
Br2F Br 0.1539(3) 0.3157(3) 0.0936(4) 0.2567 Uani
Zr1L Zr 0.48808(2) 0.48615(2) -0.09265(2) 0.0169 Uani
Zr1M Zr 0.90735(2) 0.48808(2) 0.48615(2) 0.0169 Uani
Zr1N Zr 0.48615(2) 0.90735(2) -0.51192(2) 0.0169 Uani
Zr1O Zr 0.01385(2) 0.09265(2) -0.01192(2) 0.0169 Uani
Zr1Q Zr 0.51385(2) 0.40735(2) 0.01192(2) 0.0169 Uani
Zr1R Zr 0.59265(2) 0.51192(2) -0.01385(2) 0.0169 Uani
Zr1S Zr 0.09265(2) -0.01192(2) 0.01385(2) 0.0169 Uani
Zr1U Zr 1.01192(2) 0.51385(2) 0.40735(2) 0.0169 Uani
Zr1W Zr 0.51192(2) 0.98615(2) -0.40735(2) 0.0169 Uani
O1L O 0.4489(4) 0.4323(4) -0.0376(4) 0.0160 Uani
O1Q O 0.5677(4) 0.4624(4) 0.0511(4) 0.0160 Uani
O1R O 0.5376(4) 0.5511(4) -0.0677(4) 0.0160 Uani
O4L O 0.35740(18) 0.4718(2) -0.05353(19) 0.0257 Uani
O4Q O 0.5282(2) 0.44647(19) 0.14260(18) 0.0257 Uani
O4R O 0.55353(19) 0.64260(18) -0.0282(2) 0.0257 Uani
O5N O 0.5054(2) 0.59239(18) 0.1232(2) 0.0253 Uani
O5S O 0.40761(18) 0.6232(2) -0.0054(2) 0.0253 Uani
O5U O 0.3768(2) 0.4946(2) 0.09239(18) 0.0253 Uani
O6N O 0.4894(2) 0.64430(17) 0.05519(18) 0.0240 Uani
O6S O 0.35570(17) 0.55519(18) 0.0106(2) 0.0240 Uani
O6U O 0.44481(18) 0.5106(2) 0.14430(17) 0.0240 Uani
C13 C 0.3599(9) 0.6401(9) 0.1401(9) 0.1700 Uani
C14 C 0.3249(11) 0.6751(11) 0.1751(11) 0.1800 Uani
N3 N 0.3827(6) 0.6173(6) 0.1173(6) 0.1190 Uani
loop_
_atom_site_aniso_label
_atom_site_aniso_U_11
_atom_site_aniso_U_22
_atom_site_aniso_U_33
_atom_site_aniso_U_23
_atom_site_aniso_U_13
_atom_site_aniso_U_12
Zr1 0.0190(3) 0.0183(3) 0.0135(2) -0.00091(17) -0.00034(18) 0.00093(18)
O1 0.017(4) 0.012(5) 0.019(5) -0.003(4) -0.001(4) -0.003(3)
O2 0.020(3) 0.020(3) 0.020(3) 0.005(4) -0.005(4) -0.005(4)
O3 0.024(3) 0.034(3) 0.023(2) -0.006(2) -0.013(2) -0.004(2)
O4 0.020(2) 0.033(3) 0.024(2) 0.0014(19) -0.0081(19) 0.000(2)
O5 0.028(2) 0.031(3) 0.017(2) -0.0002(19) -0.0084(19) -0.002(2)
O6 0.023(2) 0.035(3) 0.014(2) 0.0040(19) -0.0095(18) -0.001(2)
C1 0.029(5) 0.122(11) 0.037(5) 0.012(6) -0.025(4) -0.010(6)
C2 0.028(5) 0.154(14) 0.054(7) 0.027(8) -0.015(5) -0.023(7)
C3 0.027(5) 0.131(12) 0.044(6) 0.026(7) -0.013(4) -0.014(6)
C4 0.021(4) 0.068(6) 0.032(4) 0.004(4) -0.019(3) 0.000(4)
C5 0.033(5) 0.131(12) 0.032(5) 0.014(6) -0.020(4) -0.007(6)
C6 0.030(5) 0.113(10) 0.039(5) 0.017(6) -0.020(4) -0.021(5)
C7 0.040(6) 0.163(15) 0.039(6) 0.045(7) -0.018(5) -0.028(7)
C8 0.033(5) 0.135(12) 0.040(5) 0.021(6) -0.022(4) -0.022(6)
C9 0.018(3) 0.074(6) 0.028(4) 0.010(4) -0.015(3) -0.001(4)
C10 0.030(5) 0.101(9) 0.035(5) 0.012(5) -0.019(4) -0.010(5)
C11 0.019(3) 0.043(4) 0.026(3) 0.004(3) -0.013(3) -0.006(3)
C12 0.020(3) 0.043(4) 0.015(3) 0.003(3) -0.009(2) 0.000(3)
N1 0.026(4) 0.168(12) 0.031(4) 0.009(6) -0.016(3) -0.012(5)
N2 0.027(4) 0.130(10) 0.049(5) 0.021(6) -0.020(4) -0.019(5)
Fe1 0.0281(10) 0.249(4) 0.0273(9) 0.0183(15) -0.0154(7) -0.0209(16)
Br1 0.176(5) 0.301(7) 0.197(6) 0.133(5) -0.047(4) -0.153(5)
Br2 0.188(6) 0.432(10) 0.150(5) -0.173(7) -0.014(4) 0.075(7)
Zr1E 0.0183 0.0135 0.019 0.00034 0.00093 0.00091
O1E 0.012 0.019 0.017 0.001 -0.003 0.003
O3E 0.034 0.023 0.024 0.013 -0.004 0.006
O4E 0.033 0.024 0.02 0.0081 0 -0.0014
O5E 0.031 0.017 0.028 0.0084 -0.002 0.0002
O6E 0.035 0.014 0.023 0.0095 -0.001 -0.004
C1E 0.122 0.037 0.029 0.025 -0.01 -0.012
C2E 0.154 0.054 0.028 0.015 -0.023 -0.027
C3E 0.131 0.044 0.027 0.013 -0.014 -0.026
C4E 0.068 0.032 0.021 0.019 0 -0.004
C5E 0.131 0.032 0.033 0.02 -0.007 -0.014
C6E 0.113 0.039 0.03 0.02 -0.021 -0.017
C7E 0.163 0.039 0.04 0.018 -0.028 -0.045
C8E 0.135 0.04 0.033 0.022 -0.022 -0.021
C9E 0.074 0.028 0.018 0.015 -0.001 -0.01
C10E 0.101 0.035 0.03 0.019 -0.01 -0.012
C11E 0.043 0.026 0.019 0.013 -0.006 -0.004
C12E 0.043 0.015 0.02 0.009 0 -0.003
N1E 0.168 0.031 0.026 0.016 -0.012 -0.009
N2E 0.13 0.049 0.027 0.02 -0.019 -0.021
Fe1E 0.249 0.0273 0.0281 0.0154 -0.0209 -0.0183
Br1E 0.301 0.197 0.176 0.047 -0.153 -0.133
Br2E 0.432 0.15 0.188 0.014 0.075 0.173
Zr1F 0.0135 0.019 0.0183 -0.00093 0.00091 -0.00034
O1F 0.019 0.017 0.012 0.003 0.003 -0.001
O3F 0.023 0.024 0.034 0.004 0.006 -0.013
O4F 0.024 0.02 0.033 0 -0.0014 -0.0081
O5F 0.017 0.028 0.031 0.002 0.0002 -0.0084
O6F 0.014 0.023 0.035 0.001 -0.004 -0.0095
C1F 0.037 0.029 0.122 0.01 -0.012 -0.025
C2F 0.054 0.028 0.154 0.023 -0.027 -0.015
C3F 0.044 0.027 0.131 0.014 -0.026 -0.013
C4F 0.032 0.021 0.068 0 -0.004 -0.019
C5F 0.032 0.033 0.131 0.007 -0.014 -0.02
C6F 0.039 0.03 0.113 0.021 -0.017 -0.02
C7F 0.039 0.04 0.163 0.028 -0.045 -0.018
C8F 0.04 0.033 0.135 0.022 -0.021 -0.022
C9F 0.028 0.018 0.074 0.001 -0.01 -0.015
C10F 0.035 0.03 0.101 0.01 -0.012 -0.019
C11F 0.026 0.019 0.043 0.006 -0.004 -0.013
C12F 0.015 0.02 0.043 0 -0.003 -0.009
N1F 0.031 0.026 0.168 0.012 -0.009 -0.016
N2F 0.049 0.027 0.13 0.019 -0.021 -0.02
Fe1F 0.0273 0.0281 0.249 0.0209 -0.0183 -0.0154
Br1F 0.197 0.176 0.301 0.153 -0.133 -0.047
Br2F 0.15 0.188 0.432 -0.075 0.173 -0.014
Zr1L 0.019 0.0183 0.0135 -0.00091 -0.00034 0.00093
Zr1M 0.0135 0.019 0.0183 0.00093 -0.00091 -0.00034
Zr1N 0.0183 0.0135 0.019 -0.00034 0.00093 -0.00091
Zr1O 0.0183 0.0135 0.019 0.00034 -0.00093 -0.00091
Zr1Q 0.0183 0.0135 0.019 0.00034 0.00093 0.00091
Zr1R 0.0135 0.019 0.0183 -0.00093 0.00091 -0.00034
Zr1S 0.0135 0.019 0.0183 -0.00093 -0.00091 0.00034
Zr1U 0.019 0.0183 0.0135 0.00091 0.00034 0.00093
Zr1W 0.019 0.0183 0.0135 0.00091 -0.00034 -0.00093
O1L 0.017 0.012 0.019 -0.003 -0.001 -0.003
O1Q 0.012 0.019 0.017 0.001 -0.003 0.003
O1R 0.019 0.017 0.012 0.003 0.003 -0.001
O4L 0.02 0.033 0.024 0.0014 -0.0081 0
O4Q 0.033 0.024 0.02 0.0081 0 -0.0014
O4R 0.024 0.02 0.033 0 -0.0014 -0.0081
O5N 0.031 0.017 0.028 -0.0084 -0.002 -0.0002
O5S 0.017 0.028 0.031 0.002 -0.0002 0.0084
O5U 0.028 0.031 0.017 0.0002 0.0084 -0.002
O6N 0.035 0.014 0.023 -0.0095 -0.001 0.004
O6S 0.014 0.023 0.035 0.001 0.004 0.0095
O6U 0.023 0.035 0.014 -0.004 0.0095 -0.001
C13 0.17(2) 0.17(2) 0.17(2) -0.059(18) 0.059(18) 0.059(18)
C14 0.18(3) 0.18(3) 0.18(3) -0.04(2) 0.04(2) 0.04(2)
N3 0.119(11) 0.119(11) 0.119(11) -0.029(11) 0.029(11) 0.029(11)
loop_
_geom_bond_atom_site_label_1
_geom_bond_atom_site_label_2
_geom_bond_site_symmetry_1
_geom_bond_site_symmetry_2
Zr1 O1 1_555 1_555
O1 Zr1E 1_555 1_555
O2 Zr1 1_555 1_555
O3 Zr1 1_555 1_555
O4 C11 1_555 1_555
O5 C12 1_555 1_555
O6 C12 1_555 1_555
C1 C2 1_555 1_555
C2 H1 1_555 1_555
C3 C2 1_555 1_555
H2 C3 1_555 1_555
C4 C3 1_555 1_555
C5 C4 1_555 1_555
H3 C5 1_555 1_555
C6 C1 1_555 1_555
C7 C6 1_555 1_555
H4 C7 1_555 1_555
C8 C7 1_555 1_555
H5 C8 1_555 1_555
C9 C8 1_555 1_555
C10 C9 1_555 1_555
H6 C10 1_555 1_555
C11 O3 1_555 1_555
C12 C9 1_555 1_555
N1 C1 1_555 1_555
N2 C6 1_555 1_555
Fe1 N1 1_555 1_555
Br1 Fe1 1_555 1_555
Br2 Fe1 1_555 1_555
C13 C14 1_555 1_555
N3 C13 1_555 1_555
Zr1E O2 1_555 1_555
O1E Zr1E 1_555 1_555
O3E Zr1E 1_555 1_555
O4E C11E 1_555 1_555
O5E C12E 1_555 1_555
O6E C12E 1_555 1_555
C1E C2E 1_555 1_555
C2E H1E 1_555 1_555
C3E C2E 1_555 1_555
H2E C3E 1_555 1_555
C4E C3E 1_555 1_555
C5E C4E 1_555 1_555
H3E C5E 1_555 1_555
C6E C1E 1_555 1_555
C7E C6E 1_555 1_555
H4E C7E 1_555 1_555
C8E C7E 1_555 1_555
H5E C8E 1_555 1_555
C9E C8E 1_555 1_555
C10E C9E 1_555 1_555
H6E C10E 1_555 1_555
C11E O3E 1_555 1_555
C12E C9E 1_555 1_555
N1E C1E 1_555 1_555
N2E C6E 1_555 1_555
Fe1E N1E 1_555 1_555
Br1E Fe1E 1_555 1_555
Br2E Fe1E 1_555 1_555
Zr1F O2 1_555 1_555
O1F Zr1 1_555 1_555
O3F Zr1F 1_555 1_555
O4F C11F 1_555 1_555
O5F C12F 1_555 1_555
O6F C12F 1_555 1_555
C1F C2F 1_555 1_555
C2F H1F 1_555 1_555
C3F C2F 1_555 1_555
H2F C3F 1_555 1_555
C4F C3F 1_555 1_555
C5F C4F 1_555 1_555
H3F C5F 1_555 1_555
C6F C1F 1_555 1_555
C7F C6F 1_555 1_555
H4F C7F 1_555 1_555
C8F C7F 1_555 1_555
H5F C8F 1_555 1_555
C9F C8F 1_555 1_555
C10F C9F 1_555 1_555
H6F C10F 1_555 1_555
C11F O3F 1_555 1_555
C12F C9F 1_555 1_555
N1F C1F 1_555 1_555
N2F C6F 1_555 1_555
Fe1F N1F 1_555 1_555
Br1F Fe1F 1_555 1_555
Br2F Fe1F 1_555 1_555
Zr1L O1E 1_555 1_555
Zr1M O5 1_555 1_555
Zr1N O6E 1_555 1_555
Zr1O O5F 1_555 1_555
Zr1Q O1F 1_555 1_555
Zr1R O1 1_555 1_555
Zr1S O6F 1_555 1_555
Zr1U O6 1_555 1_555
Zr1W O5E 1_555 1_555
O1L Zr1F 1_555 1_555
O1Q Zr1 1_555 1_555
O1R Zr1E 1_555 1_555
O4L Zr1F 1_555 1_555
O4Q Zr1 1_555 1_555
O4R Zr1E 1_555 1_555
O5N Zr1 1_555 1_555
O5S Zr1E 1_555 1_555
O5U Zr1F 1_555 1_555
O6N Zr1E 1_555 1_555
O6S Zr1F 1_555 1_555
O6U Zr1 1_555 1_555
O4 Zr1R 1_555 1_555
C4 C11 1_555 1_555
C5 N1 1_555 1_555
C10 N2 1_555 1_555
N2 Fe1 1_555 1_555
O1E Zr1F 1_555 1_555
O4E Zr1L 1_555 1_555
C4E C11E 1_555 1_555
C5E N1E 1_555 1_555
C10E N2E 1_555 1_555
N2E Fe1E 1_555 1_555
Zr1F O1F 1_555 1_555
O4F Zr1Q 1_555 1_555
C4F C11F 1_555 1_555
C5F N1F 1_555 1_555
C10F N2F 1_555 1_555
N2F Fe1F 1_555 1_555
Zr1L O1L 1_555 1_555
Zr1L O1R 1_555 1_555
Zr1Q O1L 1_555 1_555
Zr1Q O1Q 1_555 1_555
Zr1R O1Q 1_555 1_555
Zr1R O1R 1_555 1_555

#END
