
#######################################################################
#
#                 Cambridge Crystallographic Data Centre
#                                CCDC 
#
#######################################################################
#
# If this CIF has been generated from an entry in the Cambridge 
# Structural Database, then it will include bibliographic, chemical, 
# crystal, experimental, refinement or atomic coordinate data resulting 
# from the CCDC's data processing and validation procedures.
#
#######################################################################

data_QURPIE
_chemical_formula_moiety         '(C42 H29 Cl6 Cu3 N9 O16 Zr3)n'
_symmetry_cell_setting           cubic
_symmetry_space_group_name_H-M   'P a -3'
_symmetry_Int_Tables_number      205
_space_group_name_Hall           '-P 2ac 2ab 3'
loop_
_symmetry_equiv_pos_site_id
_symmetry_equiv_pos_as_xyz
1 x,y,z
2 z,x,y
3 y,z,x
4 1/2-y,-z,1/2+x
5 1/2+z,1/2-x,-y
6 -y,1/2+z,1/2-x
7 1/2-z,-x,1/2+y
8 -z,1/2+x,1/2-y
9 1/2+y,1/2-z,-x
10 1/2-x,-y,1/2+z
11 1/2+x,1/2-y,-z
12 -x,1/2+y,1/2-z
13 -x,-y,-z
14 -z,-x,-y
15 -y,-z,-x
16 1/2+y,z,1/2-x
17 1/2-z,1/2+x,y
18 y,1/2-z,1/2+x
19 1/2+z,x,1/2-y
20 z,1/2-x,1/2+y
21 1/2-y,1/2+z,x
22 1/2+x,y,1/2-z
23 1/2-x,1/2+y,z
24 x,1/2-y,1/2+z
_cell_length_a                   26.0483(7)
_cell_length_b                   26.0483(7)
_cell_length_c                   26.0483(7)
_cell_angle_alpha                90
_cell_angle_beta                 90
_cell_angle_gamma                90
_cell_volume                     17674.1
loop_
_atom_site_label
_atom_site_type_symbol
_atom_site_fract_x
_atom_site_fract_y
_atom_site_fract_z
_atom_site_U_iso_or_equiv
_atom_site_thermal_displace_type
Zr1 Zr 0.51432(2) 0.48322(2) 0.40776(2) 0.0093 Uani
Cu1 Cu 0.20629(2) 0.48587(2) 0.29169(2) 0.0296 Uani
Cl1 Cl 0.13111(5) 0.52495(7) 0.28931(4) 0.0520 Uani
Cl2 Cl 0.20369(5) 0.46074(7) 0.37270(5) 0.0524 Uani
O1 O 0.38072(11) 0.50620(12) 0.40283(11) 0.0139 Uani
O2 O 0.44884(18) 0.4856(2) 0.35446(19) 0.0146 Uani
O3 O 0.09213(12) 0.46600(12) 0.11784(12) 0.0147 Uani
O4 O 0.14289(12) 0.46699(12) 0.04957(12) 0.0139 Uani
N1 N 0.28219(12) 0.48054(15) 0.28557(12) 0.0281 Uani
N2 N 0.21265(12) 0.47610(15) 0.21564(12) 0.0268 Uani
C1 C 0.30057(13) 0.47142(19) 0.23836(13) 0.0281 Uani
C2 C 0.35234(15) 0.4664(2) 0.22833(15) 0.0409 Uani
H1 H 0.3642 0.4578 0.1949 0.0490 Uiso
C3 C 0.38672(14) 0.4741(2) 0.26865(14) 0.0350 Uani
H2 H 0.4227 0.4716 0.2631 0.0420 Uiso
C4 C 0.36765(12) 0.48555(15) 0.31693(12) 0.0193 Uani
C5 C 0.31475(12) 0.48792(17) 0.32384(13) 0.0256 Uani
H3 H 0.3016 0.4951 0.3571 0.0310 Uiso
C6 C 0.26077(13) 0.46700(19) 0.19800(13) 0.0279 Uani
C7 C 0.27034(14) 0.4567(2) 0.14722(14) 0.0358 Uani
H4 H 0.3044 0.4507 0.1357 0.0430 Uiso
C8 C 0.22955(14) 0.4552(2) 0.11284(14) 0.0319 Uani
H5 H 0.2353 0.4484 0.0775 0.0380 Uiso
C9 C 0.18034(12) 0.46367(14) 0.13117(12) 0.0182 Uani
C10 C 0.17322(13) 0.47388(16) 0.18279(13) 0.0240 Uani
H6 H 0.1394 0.4795 0.1953 0.0290 Uiso
C11 C 0.40197(11) 0.49347(11) 0.36174(11) 0.0127 Uani
C12 C 0.13504(11) 0.46551(12) 0.09665(11) 0.0129 Uani
O5 O 0.45998(19) 0.45998(19) 0.45998(19) 0.0115 Uani
O6 O 0.53778(16) 0.44789(17) 0.47422(15) 0.0109 Uani
Zr1A Zr 0.40776(2) 0.51432(2) 0.48322(2) 0.0093 Uani
Cu1A Cu 0.29169(2) 0.20629(2) 0.48587(2) 0.0296 Uani
Cl1A Cl 0.28931(4) 0.13111(5) 0.52495(7) 0.0520 Uani
Cl2A Cl 0.37270(5) 0.20369(5) 0.46074(7) 0.0524 Uani
O1A O 0.40283(11) 0.38072(11) 0.50620(12) 0.0139 Uani
O2A O 0.35446(19) 0.44884(18) 0.4856(2) 0.0146 Uani
O3A O 0.11784(12) 0.09213(12) 0.46600(12) 0.0147 Uani
O4A O 0.04957(12) 0.14289(12) 0.46699(12) 0.0139 Uani
N1A N 0.28557(12) 0.28219(12) 0.48054(15) 0.0281 Uani
N2A N 0.21564(12) 0.21265(12) 0.47610(15) 0.0268 Uani
C1A C 0.23836(13) 0.30057(13) 0.47142(19) 0.0281 Uani
C2A C 0.22833(15) 0.35234(15) 0.4664(2) 0.0409 Uani
H1A H 0.1949 0.3642 0.4578 0.0490 Uiso
C3A C 0.26865(14) 0.38672(14) 0.4741(2) 0.0350 Uani
H2A H 0.2631 0.4227 0.4716 0.0420 Uiso
C4A C 0.31693(12) 0.36765(12) 0.48555(15) 0.0193 Uani
C5A C 0.32384(13) 0.31475(12) 0.48792(17) 0.0256 Uani
H3A H 0.3571 0.3016 0.4951 0.0310 Uiso
C6A C 0.19800(13) 0.26077(13) 0.46700(19) 0.0279 Uani
C7A C 0.14722(14) 0.27034(14) 0.4567(2) 0.0358 Uani
H4A H 0.1357 0.3044 0.4507 0.0430 Uiso
C8A C 0.11284(14) 0.22955(14) 0.4552(2) 0.0319 Uani
H5A H 0.0775 0.2353 0.4484 0.0380 Uiso
C9A C 0.13117(12) 0.18034(12) 0.46367(14) 0.0182 Uani
C10A C 0.18279(13) 0.17322(13) 0.47388(16) 0.0240 Uani
H6A H 0.1953 0.1394 0.4795 0.0290 Uiso
C11A C 0.36174(11) 0.40197(11) 0.49347(11) 0.0127 Uani
C12A C 0.09665(11) 0.13504(11) 0.46551(12) 0.0129 Uani
O6A O 0.47422(15) 0.53778(16) 0.44789(17) 0.0109 Uani
Zr1B Zr 0.48322(2) 0.40776(2) 0.51432(2) 0.0093 Uani
Cu1B Cu 0.48587(2) 0.29169(2) 0.20629(2) 0.0296 Uani
Cl1B Cl 0.52495(7) 0.28931(4) 0.13111(5) 0.0520 Uani
Cl2B Cl 0.46074(7) 0.37270(5) 0.20369(5) 0.0524 Uani
O1B O 0.50620(12) 0.40283(11) 0.38072(11) 0.0139 Uani
O2B O 0.4856(2) 0.35446(19) 0.44884(18) 0.0146 Uani
O3B O 0.46600(12) 0.11784(12) 0.09213(12) 0.0147 Uani
O4B O 0.46699(12) 0.04957(12) 0.14289(12) 0.0139 Uani
N1B N 0.48054(15) 0.28557(12) 0.28219(12) 0.0281 Uani
N2B N 0.47610(15) 0.21564(12) 0.21265(12) 0.0268 Uani
C1B C 0.47142(19) 0.23836(13) 0.30057(13) 0.0281 Uani
C2B C 0.4664(2) 0.22833(15) 0.35234(15) 0.0409 Uani
H1B H 0.4578 0.1949 0.3642 0.0490 Uiso
C3B C 0.4741(2) 0.26865(14) 0.38672(14) 0.0350 Uani
H2B H 0.4716 0.2631 0.4227 0.0420 Uiso
C4B C 0.48555(15) 0.31693(12) 0.36765(12) 0.0193 Uani
C5B C 0.48792(17) 0.32384(13) 0.31475(12) 0.0256 Uani
H3B H 0.4951 0.3571 0.3016 0.0310 Uiso
C6B C 0.46700(19) 0.19800(13) 0.26077(13) 0.0279 Uani
C7B C 0.4567(2) 0.14722(14) 0.27034(14) 0.0358 Uani
H4B H 0.4507 0.1357 0.3044 0.0430 Uiso
C8B C 0.4552(2) 0.11284(14) 0.22955(14) 0.0319 Uani
H5B H 0.4484 0.0775 0.2353 0.0380 Uiso
C9B C 0.46367(14) 0.13117(12) 0.18034(12) 0.0182 Uani
C10B C 0.47388(16) 0.18279(13) 0.17322(13) 0.0240 Uani
H6B H 0.4795 0.1953 0.1394 0.0290 Uiso
C11B C 0.49347(11) 0.36174(11) 0.40197(11) 0.0127 Uani
C12B C 0.46551(12) 0.09665(11) 0.13504(11) 0.0129 Uani
O6B O 0.44789(17) 0.47422(15) 0.53778(16) 0.0109 Uani
Zr1F Zr 0.09224(2) 0.48568(2) -0.01678(2) 0.0093 Uani
Zr1H Zr -0.01678(2) 0.09224(2) 0.48568(2) 0.0093 Uani
Zr1K Zr 0.48568(2) -0.01678(2) 0.09224(2) 0.0093 Uani
Zr1L Zr 0.48568(2) 0.51678(2) 0.59224(2) 0.0093 Uani
Zr1M Zr 0.59224(2) 0.48568(2) 0.51678(2) 0.0093 Uani
Zr1N Zr 0.51678(2) 0.59224(2) 0.48568(2) 0.0093 Uani
Zr1P Zr 0.09224(2) 0.01432(2) 0.48322(2) 0.0093 Uani
Zr1Q Zr 0.48322(2) 0.09224(2) 0.01432(2) 0.0093 Uani
Zr1U Zr 0.01432(2) 0.48322(2) 0.09224(2) 0.0093 Uani
O3P O 0.38216(12) 0.59213(12) 0.46600(12) 0.0147 Uani
O3Q O 0.46600(12) 0.38216(12) 0.59213(12) 0.0147 Uani
O3U O 0.59213(12) 0.46600(12) 0.38216(12) 0.0147 Uani
O4D O 0.54957(12) 0.35711(12) 0.53301(12) 0.0139 Uani
O4E O 0.53301(12) 0.54957(12) 0.35711(12) 0.0139 Uani
O4I O 0.35711(12) 0.53301(12) 0.54957(12) 0.0139 Uani
O6L O 0.46222(16) 0.55211(17) 0.52578(15) 0.0109 Uani
O6M O 0.52578(15) 0.46222(16) 0.55211(17) 0.0109 Uani
O6N O 0.55211(17) 0.52578(15) 0.46222(16) 0.0109 Uani
N3 N 0.1475(3) 0.5822(3) 0.1112(3) 0.0360 Uani
C13 C 0.1680(5) 0.6041(5) 0.1433(5) 0.0677 Uani
C14 C 0.1916(8) 0.6275(8) 0.1871(6) 0.1047 Uani
H7 H 0.1912 0.6649 0.1832 0.1570 Uiso
H8 H 0.2272 0.6156 0.1901 0.1570 Uiso
H9 H 0.1726 0.6180 0.2182 0.1570 Uiso
N4 N 0.2197(8) 0.3597(5) 0.2507(6) 0.1130 Uani
C15 C 0.1965(9) 0.3485(7) 0.2847(7) 0.1130 Uani
C16 C 0.1683(9) 0.3300(6) 0.3257(7) 0.1130 Uani
H10 H 0.1692 0.3550 0.3538 0.1690 Uiso
H11 H 0.1831 0.2975 0.3375 0.1690 Uiso
H12 H 0.1327 0.3245 0.3150 0.1690 Uiso
N5 N 0.3945(3) 0.4561(4) 0.1017(3) 0.0567 Uani
C17 C 0.4143(3) 0.4231(3) 0.0817(3) 0.0453 Uani
C18 C 0.4409(4) 0.3812(4) 0.0564(4) 0.0700 Uani
H13 H 0.4660 0.3951 0.0321 0.1050 Uiso
H14 H 0.4160 0.3599 0.0380 0.1050 Uiso
H15 H 0.4586 0.3603 0.0822 0.1050 Uiso
loop_
_atom_site_aniso_label
_atom_site_aniso_U_11
_atom_site_aniso_U_22
_atom_site_aniso_U_33
_atom_site_aniso_U_23
_atom_site_aniso_U_13
_atom_site_aniso_U_12
Zr1 0.00919(9) 0.00946(10) 0.00917(9) 0.00006(7) -0.00021(6) -0.00006(6)
Cu1 0.01523(19) 0.0580(3) 0.01544(19) -0.00424(19) -0.00459(13) 0.0038(2)
Cl1 0.0370(6) 0.0925(11) 0.0265(5) -0.0107(6) -0.0039(4) 0.0329(6)
Cl2 0.0269(5) 0.1009(12) 0.0293(5) 0.0204(6) -0.0025(4) -0.0027(6)
O1 0.0087(11) 0.0220(12) 0.0111(11) -0.0035(8) -0.0014(9) 0.0034(9)
O2 0.0124(12) 0.0176(18) 0.0139(12) 0.0008(13) -0.0033(8) -0.0011(12)
O3 0.0123(11) 0.0233(13) 0.0085(12) 0.0001(10) -0.0006(10) 0.0012(8)
O4 0.0085(12) 0.0216(12) 0.0115(12) -0.0009(8) 0.0006(9) 0.0008(9)
N1 0.0127(12) 0.058(2) 0.0136(12) -0.0084(13) -0.0058(9) 0.0027(13)
N2 0.0134(12) 0.053(2) 0.0139(12) -0.0069(12) -0.0040(9) 0.0047(12)
C1 0.0132(14) 0.059(3) 0.0121(13) -0.0113(14) -0.0069(11) 0.0071(14)
C2 0.0147(16) 0.093(4) 0.0150(15) -0.0189(19) -0.0065(12) 0.0128(19)
C3 0.0114(14) 0.077(3) 0.0165(15) -0.0149(18) -0.0072(11) 0.0077(16)
C4 0.0116(12) 0.0352(17) 0.0111(12) -0.0069(11) -0.0053(9) 0.0037(11)
C5 0.0125(13) 0.052(2) 0.0124(13) -0.0057(13) -0.0050(10) 0.0058(14)
C6 0.0143(14) 0.056(2) 0.0133(14) -0.0119(14) -0.0041(11) 0.0063(14)
C7 0.0119(14) 0.080(3) 0.0156(15) -0.0167(18) -0.0062(11) 0.0120(17)
C8 0.0146(14) 0.066(3) 0.0152(14) -0.0143(16) -0.0069(11) 0.0110(16)
C9 0.0115(12) 0.0306(16) 0.0125(12) -0.0044(11) -0.0059(9) 0.0033(11)
C10 0.0108(13) 0.046(2) 0.0151(14) -0.0051(13) -0.0059(10) 0.0037(12)
C11 0.0124(12) 0.0171(12) 0.0087(11) -0.0023(9) -0.0029(9) 0.0027(9)
C12 0.0100(11) 0.0181(12) 0.0105(11) -0.0013(9) -0.0051(9) 0.0016(9)
O5 0.0115(11) 0.0115(11) 0.0115(11) 0.0000(14) 0.0000(14) 0.0000(14)
O6 0.0093(16) 0.0133(18) 0.0102(16) 0.0005(13) 0.0015(12) -0.0024(14)
Zr1A 0.00917 0.00919 0.00946 -6e-05 6e-05 -0.00021
Cu1A 0.01544 0.01523 0.058 0.0038 -0.00424 -0.00459
Cl1A 0.0265 0.037 0.0925 0.0329 -0.0107 -0.0039
Cl2A 0.0293 0.0269 0.1009 -0.0027 0.0204 -0.0025
O1A 0.0111 0.0087 0.022 0.0034 -0.0035 -0.0014
O2A 0.0139 0.0124 0.0176 -0.0011 0.0008 -0.0033
O3A 0.0085 0.0123 0.0233 0.0012 0.0001 -0.0006
O4A 0.0115 0.0085 0.0216 0.0008 -0.0009 0.0006
N1A 0.0136 0.0127 0.058 0.0027 -0.0084 -0.0058
N2A 0.0139 0.0134 0.053 0.0047 -0.0069 -0.004
C1A 0.0121 0.0132 0.059 0.0071 -0.0113 -0.0069
C2A 0.015 0.0147 0.093 0.0128 -0.0189 -0.0065
C3A 0.0165 0.0114 0.077 0.0077 -0.0149 -0.0072
C4A 0.0111 0.0116 0.0352 0.0037 -0.0069 -0.0053
C5A 0.0124 0.0125 0.052 0.0058 -0.0057 -0.005
C6A 0.0133 0.0143 0.056 0.0063 -0.0119 -0.0041
C7A 0.0156 0.0119 0.08 0.012 -0.0167 -0.0062
C8A 0.0152 0.0146 0.066 0.011 -0.0143 -0.0069
C9A 0.0125 0.0115 0.0306 0.0033 -0.0044 -0.0059
C10A 0.0151 0.0108 0.046 0.0037 -0.0051 -0.0059
C11A 0.0087 0.0124 0.0171 0.0027 -0.0023 -0.0029
C12A 0.0105 0.01 0.0181 0.0016 -0.0013 -0.0051
O6A 0.0102 0.0093 0.0133 -0.0024 0.0005 0.0015
Zr1B 0.00946 0.00917 0.00919 -0.00021 -6e-05 6e-05
Cu1B 0.058 0.01544 0.01523 -0.00459 0.0038 -0.00424
Cl1B 0.0925 0.0265 0.037 -0.0039 0.0329 -0.0107
Cl2B 0.1009 0.0293 0.0269 -0.0025 -0.0027 0.0204
O1B 0.022 0.0111 0.0087 -0.0014 0.0034 -0.0035
O2B 0.0176 0.0139 0.0124 -0.0033 -0.0011 0.0008
O3B 0.0233 0.0085 0.0123 -0.0006 0.0012 0.0001
O4B 0.0216 0.0115 0.0085 0.0006 0.0008 -0.0009
N1B 0.058 0.0136 0.0127 -0.0058 0.0027 -0.0084
N2B 0.053 0.0139 0.0134 -0.004 0.0047 -0.0069
C1B 0.059 0.0121 0.0132 -0.0069 0.0071 -0.0113
C2B 0.093 0.015 0.0147 -0.0065 0.0128 -0.0189
C3B 0.077 0.0165 0.0114 -0.0072 0.0077 -0.0149
C4B 0.0352 0.0111 0.0116 -0.0053 0.0037 -0.0069
C5B 0.052 0.0124 0.0125 -0.005 0.0058 -0.0057
C6B 0.056 0.0133 0.0143 -0.0041 0.0063 -0.0119
C7B 0.08 0.0156 0.0119 -0.0062 0.012 -0.0167
C8B 0.066 0.0152 0.0146 -0.0069 0.011 -0.0143
C9B 0.0306 0.0125 0.0115 -0.0059 0.0033 -0.0044
C10B 0.046 0.0151 0.0108 -0.0059 0.0037 -0.0051
C11B 0.0171 0.0087 0.0124 -0.0029 0.0027 -0.0023
C12B 0.0181 0.0105 0.01 -0.0051 0.0016 -0.0013
O6B 0.0133 0.0102 0.0093 0.0015 -0.0024 0.0005
Zr1F 0.00917 0.00919 0.00946 6e-05 -6e-05 -0.00021
Zr1H 0.00946 0.00917 0.00919 -0.00021 6e-05 -6e-05
Zr1K 0.00919 0.00946 0.00917 -6e-05 -0.00021 6e-05
Zr1L 0.00919 0.00946 0.00917 6e-05 -0.00021 -6e-05
Zr1M 0.00917 0.00919 0.00946 -6e-05 6e-05 -0.00021
Zr1N 0.00946 0.00917 0.00919 -0.00021 -6e-05 6e-05
Zr1P 0.00917 0.00919 0.00946 -6e-05 -6e-05 0.00021
Zr1Q 0.00946 0.00917 0.00919 0.00021 -6e-05 -6e-05
Zr1U 0.00919 0.00946 0.00917 -6e-05 0.00021 -6e-05
O3P 0.0085 0.0123 0.0233 0.0012 -0.0001 0.0006
O3Q 0.0233 0.0085 0.0123 0.0006 0.0012 -0.0001
O3U 0.0123 0.0233 0.0085 -0.0001 0.0006 0.0012
O4D 0.0115 0.0085 0.0216 0.0008 0.0009 -0.0006
O4E 0.0216 0.0115 0.0085 -0.0006 0.0008 0.0009
O4I 0.0085 0.0216 0.0115 0.0009 -0.0006 0.0008
O6L 0.0093 0.0133 0.0102 0.0005 0.0015 -0.0024
O6M 0.0102 0.0093 0.0133 -0.0024 0.0005 0.0015
O6N 0.0133 0.0102 0.0093 0.0015 -0.0024 0.0005
N3 0.034(3) 0.033(3) 0.041(4) -0.001(3) -0.006(3) -0.004(2)
C13 0.054(6) 0.077(7) 0.072(7) -0.017(6) -0.013(5) -0.003(5)
C14 0.117(12) 0.103(11) 0.094(11) -0.033(9) -0.007(9) -0.027(10)
N4 0.179(12) 0.063(5) 0.097(8) -0.001(5) 0.033(7) -0.026(6)
C15 0.179(12) 0.063(5) 0.097(8) -0.001(5) 0.033(7) -0.026(6)
C16 0.179(12) 0.063(5) 0.097(8) -0.001(5) 0.033(7) -0.026(6)
N5 0.038(4) 0.096(6) 0.036(3) -0.002(4) 0.002(3) 0.009(4)
C17 0.028(3) 0.079(5) 0.029(3) 0.009(3) -0.002(2) -0.007(3)
C18 0.067(7) 0.088(8) 0.055(6) -0.004(5) -0.024(5) 0.004(6)
loop_
_geom_bond_atom_site_label_1
_geom_bond_atom_site_label_2
_geom_bond_site_symmetry_1
_geom_bond_site_symmetry_2
Zr1 O2 1_555 1_555
Cu1 Cl1 1_555 1_555
Cl2 Cu1 1_555 1_555
O1 C11 1_555 1_555
O2 C11 1_555 1_555
O3 C12 1_555 1_555
O4 C12 1_555 1_555
N1 Cu1 1_555 1_555
N2 Cu1 1_555 1_555
C1 N1 1_555 1_555
C2 C1 1_555 1_555
H1 C2 1_555 1_555
C3 C2 1_555 1_555
H2 C3 1_555 1_555
C4 C3 1_555 1_555
C5 N1 1_555 1_555
H3 C5 1_555 1_555
C6 N2 1_555 1_555
C7 C6 1_555 1_555
H4 C7 1_555 1_555
C8 C7 1_555 1_555
H5 C8 1_555 1_555
C9 C8 1_555 1_555
C10 N2 1_555 1_555
H6 C10 1_555 1_555
C11 C4 1_555 1_555
C12 C9 1_555 1_555
O5 Zr1 1_555 1_555
O6 Zr1 1_555 1_555
N3 C13 1_555 1_555
C13 C14 1_555 1_555
C14 H7 1_555 1_555
H8 C14 1_555 1_555
H9 C14 1_555 1_555
N4 C15 1_555 1_555
C15 C16 1_555 1_555
C16 H10 1_555 1_555
H11 C16 1_555 1_555
H12 C16 1_555 1_555
N5 C17 1_555 1_555
C17 C18 1_555 1_555
C18 H13 1_555 1_555
H14 C18 1_555 1_555
H15 C18 1_555 1_555
Zr1A O1 1_555 1_555
Cu1A Cl1A 1_555 1_555
Cl2A Cu1A 1_555 1_555
O1A C11A 1_555 1_555
O2A Zr1A 1_555 1_555
O3A C12A 1_555 1_555
O4A C12A 1_555 1_555
N1A Cu1A 1_555 1_555
N2A Cu1A 1_555 1_555
C1A N1A 1_555 1_555
C2A C1A 1_555 1_555
H1A C2A 1_555 1_555
C3A C2A 1_555 1_555
H2A C3A 1_555 1_555
C4A C3A 1_555 1_555
C5A N1A 1_555 1_555
H3A C5A 1_555 1_555
C6A N2A 1_555 1_555
C7A C6A 1_555 1_555
H4A C7A 1_555 1_555
C8A C7A 1_555 1_555
H5A C8A 1_555 1_555
C9A C8A 1_555 1_555
C10A N2A 1_555 1_555
H6A C10A 1_555 1_555
C11A O2A 1_555 1_555
C12A C9A 1_555 1_555
O6A Zr1 1_555 1_555
Zr1B O5 1_555 1_555
Cu1B Cl1B 1_555 1_555
Cl2B Cu1B 1_555 1_555
O1B Zr1 1_555 1_555
O2B Zr1B 1_555 1_555
O3B C12B 1_555 1_555
O4B C12B 1_555 1_555
N1B Cu1B 1_555 1_555
N2B Cu1B 1_555 1_555
C1B N1B 1_555 1_555
C2B C1B 1_555 1_555
H1B C2B 1_555 1_555
C3B C2B 1_555 1_555
H2B C3B 1_555 1_555
C4B C3B 1_555 1_555
C5B N1B 1_555 1_555
H3B C5B 1_555 1_555
C6B N2B 1_555 1_555
C7B C6B 1_555 1_555
H4B C7B 1_555 1_555
C8B C7B 1_555 1_555
H5B C8B 1_555 1_555
C9B C8B 1_555 1_555
C10B N2B 1_555 1_555
H6B C10B 1_555 1_555
C11B O1B 1_555 1_555
C12B C9B 1_555 1_555
O6B Zr1A 1_555 1_555
Zr1F O4 1_555 1_555
Zr1H O4A 1_555 1_555
Zr1K O4B 1_555 1_555
Zr1L O6B 1_555 1_555
Zr1M O6 1_555 1_555
Zr1N O6A 1_555 1_555
Zr1P O3A 1_555 1_555
Zr1Q O3B 1_555 1_555
Zr1U O3 1_555 1_555
O3P Zr1A 1_555 1_555
O3Q Zr1B 1_555 1_555
O3U Zr1 1_555 1_555
O4D Zr1B 1_555 1_555
O4E Zr1 1_555 1_555
O4I Zr1A 1_555 1_555
O6L Zr1A 1_555 1_555
O6M Zr1B 1_555 1_555
O6N Zr1 1_555 1_555
C1 C6 1_555 1_555
C4 C5 1_555 1_555
C9 C10 1_555 1_555
O5 Zr1A 1_555 1_555
O6 Zr1B 1_555 1_555
Zr1A O6A 1_555 1_555
O1A Zr1B 1_555 1_555
C1A C6A 1_555 1_555
C4A C5A 1_555 1_555
C4A C11A 1_555 1_555
C9A C10A 1_555 1_555
Zr1B O6B 1_555 1_555
O2B C11B 1_555 1_555
C1B C6B 1_555 1_555
C4B C5B 1_555 1_555
C4B C11B 1_555 1_555
C9B C10B 1_555 1_555
Zr1L O6L 1_555 1_555
Zr1L O6M 1_555 1_555
Zr1M O6M 1_555 1_555
Zr1M O6N 1_555 1_555
Zr1N O6L 1_555 1_555
Zr1N O6N 1_555 1_555

#END
