
#######################################################################
#
#                 Cambridge Crystallographic Data Centre
#                                CCDC 
#
#######################################################################
#
# If this CIF has been generated from an entry in the Cambridge 
# Structural Database, then it will include bibliographic, chemical, 
# crystal, experimental, refinement or atomic coordinate data resulting 
# from the CCDC's data processing and validation procedures.
#
#######################################################################

data_QUPHUF
_chemical_formula_moiety         '(C41 H40 N4 O16 Zn2)n'
_symmetry_cell_setting           monoclinic
_symmetry_space_group_name_H-M   'C 2/c'
_symmetry_Int_Tables_number      15
_space_group_name_Hall           '-C 2yc'
loop_
_symmetry_equiv_pos_site_id
_symmetry_equiv_pos_as_xyz
1 x,y,z
2 -x,y,1/2-z
3 1/2+x,1/2+y,z
4 1/2-x,1/2+y,1/2-z
5 -x,-y,-z
6 x,-y,1/2+z
7 1/2-x,1/2-y,-z
8 1/2+x,1/2-y,1/2+z
_cell_length_a                   9.3046(11)
_cell_length_b                   25.778(3)
_cell_length_c                   20.4387(18)
_cell_angle_alpha                90
_cell_angle_beta                 106.475(4)
_cell_angle_gamma                90
_cell_volume                     4701.03
loop_
_atom_site_label
_atom_site_type_symbol
_atom_site_fract_x
_atom_site_fract_y
_atom_site_fract_z
C1 C 0.6493(7) 0.7934(2) 0.9200(4)
H1 H 0.7302 0.8160 0.9333
C2 C 0.6645(7) 0.7498(2) 0.8842(4)
H2 H 0.7541 0.7431 0.8741
C3 C 0.5470(6) 0.71670(19) 0.8636(3)
C4 C 0.4175(6) 0.7278(2) 0.8813(3)
H3 H 0.3353 0.7057 0.8687
C5 C 0.4131(7) 0.7715(2) 0.9173(3)
H4 H 0.3257 0.7786 0.9291
C6 C 0.4489(7) 0.63953(19) 0.7998(3)
H5 H 0.3567 0.6574 0.7768
H6 H 0.4320 0.6188 0.8366
C7 C 0.5000 0.6055(3) 0.7500
C8 C 0.6322(6) 0.57266(19) 0.7886(3)
H7 H 0.6837 0.5587 0.7573
H8 H 0.7025 0.5936 0.8224
C9 C 0.6760(7) 0.4968(2) 0.8562(3)
C10 C 0.6224(8) 0.4497(2) 0.8703(4)
H9 H 0.5204 0.4426 0.8546
C11 C 0.7185(8) 0.4132(3) 0.9073(4)
H10 H 0.6793 0.3820 0.9170
C12 C 0.9155(9) 0.4675(3) 0.9151(4)
H11 H 1.0181 0.4738 0.9296
C13 C 0.8255(8) 0.5053(2) 0.8807(4)
H12 H 0.8658 0.5371 0.8737
C14 C 0.4739(7) 0.8337(2) 1.1051(3)
C15 C 0.4860(6) 0.8347(2) 1.1805(3)
C16 C 0.4947(7) 0.8811(2) 1.2160(3)
H13 H 0.4934 0.9125 1.1933
C17 C 0.4920(7) 0.7886(2) 1.2164(3)
H14 H 0.4849 0.7572 1.1933
C18 C 0.8303(8) 0.9075(2) 1.0066(3)
C19 C 0.9178(8) 0.9554(2) 1.0025(3)
C20 C 1.0664(9) 0.9562(3) 1.0348(4)
H15 H 1.1123 0.9272 1.0590
C21 C 0.8480(9) 0.9990(2) 0.9681(4)
N1 N 0.5263(5) 0.80504(16) 0.9369(2)
N2 N 0.8653(6) 0.42066(18) 0.9299(3)
O1 O 0.5679(4) 0.67599(14) 0.8258(2)
O2 O 0.5771(5) 0.53154(14) 0.8211(2)
O3 O 0.5100(6) 0.87505(15) 1.0806(2)
O4 O 0.4295(6) 0.7945(2) 1.0719(2)
O5 O 0.6921(6) 0.91329(16) 0.9830(3)
O6 O 0.8925(6) 0.86702(17) 1.0285(3)
H16 H 0.7465 0.9959 0.9458
Zn1 Zn 0.52058(8) 0.87083(2) 0.98807(3)
C1A C 0.3507(7) 0.7934(2) 0.5800(4)
H1A H 0.2698 0.8160 0.5667
C2A C 0.3355(7) 0.7498(2) 0.6158(4)
H2A H 0.2459 0.7431 0.6259
C3A C 0.4530(6) 0.71670(19) 0.6364(3)
C4A C 0.5825(6) 0.7278(2) 0.6187(3)
H3A H 0.6647 0.7057 0.6313
C5A C 0.5869(7) 0.7715(2) 0.5827(3)
H4A H 0.6743 0.7786 0.5709
C6A C 0.5511(7) 0.63953(19) 0.7002(3)
H5A H 0.6433 0.6574 0.7232
H6A H 0.5680 0.6188 0.6634
C8A C 0.3678(6) 0.57266(19) 0.7114(3)
H7A H 0.3163 0.5587 0.7427
H8A H 0.2975 0.5936 0.6776
C9A C 0.3240(7) 0.4968(2) 0.6438(3)
C10A C 0.3776(8) 0.4497(2) 0.6297(4)
H9A H 0.4796 0.4426 0.6454
C11A C 0.2815(8) 0.4132(3) 0.5927(4)
H10A H 0.3207 0.3820 0.5830
C12A C 0.0845(9) 0.4675(3) 0.5849(4)
H11A H -0.0181 0.4738 0.5704
C13A C 0.1745(8) 0.5053(2) 0.6193(4)
H12A H 0.1342 0.5371 0.6263
C14A C 0.5261(7) 0.8337(2) 1.3949(3)
C15A C 0.5140(6) 0.8347(2) 1.3195(3)
C16A C 0.5053(7) 0.8811(2) 1.2840(3)
H13A H 0.5066 0.9125 1.3067
C17A C 0.5080(7) 0.7886(2) 1.2836(3)
H14A H 0.5151 0.7572 1.3067
C18D C 1.1697(8) 1.0925(2) 0.9934(3)
C19D C 1.0822(8) 1.0446(2) 0.9975(3)
C20D C 0.9336(9) 1.0438(3) 0.9652(4)
H15D H 0.8877 1.0728 0.9410
C21D C 1.1520(9) 1.0010(2) 1.0319(4)
N1A N 0.4737(5) 0.80504(16) 0.5631(2)
N2A N 0.1347(6) 0.42066(18) 0.5701(3)
N2B N 0.3653(6) 0.92066(18) 0.9299(3)
N2C N 0.6347(6) 0.92066(18) 0.5701(3)
O1A O 0.4321(4) 0.67599(14) 0.6742(2)
O2A O 0.4229(5) 0.53154(14) 0.6789(2)
O3A O 0.4900(6) 0.87505(15) 1.4194(2)
O3A_2 O 0.4900(6) 0.87505(15) 0.4194(2)
O4A O 0.5705(6) 0.7945(2) 1.4281(2)
O5D O 1.3079(6) 1.08671(16) 1.0170(3)
O5A O 0.3079(6) 0.91329(16) 0.5170(3)
O6D O 1.1075(6) 1.13298(17) 0.9715(3)
H16D H 1.2535 1.0041 1.0542
Zn1A Zn 0.47942(8) 0.87083(2) 0.51193(3)
Zn1B Zn 1.02058(8) 0.37083(2) 0.98807(3)
Zn1C Zn -0.02058(8) 0.37083(2) 0.51193(3)
Zn1A_2 Zn 0.47942(8) 0.87083(2) 1.51193(3)
Zn1D Zn 1.47942(8) 1.12917(2) 1.01193(3)
O7 O 1.0000 0.458(3) 0.7500
H17 H 0.9542 0.4727 0.7759
H17A H 1.0458 0.4727 0.7241
O8 O 1.0000 0.397(2) 0.7500
H18 H 0.9114 0.3859 0.7323
H18A H 1.0886 0.3859 0.7677
O9 O 0.609(3) 0.6530(7) 0.2048(13)
H19 H 0.5756 0.6389 0.2351
H20 H 0.5414 0.6717 0.1789
O10 O 0.5386(7) 0.3129(2) 0.9360(4)
H21 H 0.5124 0.3041 0.9710
H22 H 0.4730 0.3026 0.9003
loop_
_geom_bond_atom_site_label_1
_geom_bond_atom_site_label_2
_geom_bond_site_symmetry_1
_geom_bond_site_symmetry_2
C1 H1 1_555 1_555
C2 C1 1_555 1_555
H2 C2 1_555 1_555
C3 C2 1_555 1_555
C4 C3 1_555 1_555
H3 C4 1_555 1_555
C5 C4 1_555 1_555
H4 C5 1_555 1_555
C6 H5 1_555 1_555
H6 C6 1_555 1_555
C7 C6 1_555 1_555
C8 C7 1_555 1_555
H7 C8 1_555 1_555
H8 C8 1_555 1_555
C9 C10 1_555 1_555
C10 H9 1_555 1_555
C11 C10 1_555 1_555
H10 C11 1_555 1_555
C12 H11 1_555 1_555
C13 C9 1_555 1_555
H12 C13 1_555 1_555
C14 C15 1_555 1_555
C15 C16 1_555 1_555
C16 H13 1_555 1_555
C17 C15 1_555 1_555
H14 C17 1_555 1_555
C18 C19 1_555 1_555
C19 C20 1_555 1_555
C20 H15 1_555 1_555
C21 C19 1_555 1_555
N1 C1 1_555 1_555
N2 C11 1_555 1_555
O1 C3 1_555 1_555
O2 C8 1_555 1_555
O3 C14 1_555 1_555
O4 C14 1_555 1_555
O5 C18 1_555 1_555
O6 C18 1_555 1_555
H16 C21 1_555 1_555
O7 H17 1_555 1_555
O8 H18 1_555 1_555
O9 H19 1_555 1_555
H20 O9 1_555 1_555
O10 H21 1_555 1_555
H22 O10 1_555 1_555
Zn1 N1 1_555 1_555
C1A H1A 1_555 1_555
C2A C1A 1_555 1_555
H2A C2A 1_555 1_555
C3A C2A 1_555 1_555
C4A C3A 1_555 1_555
H3A C4A 1_555 1_555
C5A C4A 1_555 1_555
H4A C5A 1_555 1_555
C6A C7 1_555 1_555
H5A C6A 1_555 1_555
H6A C6A 1_555 1_555
C8A C7 1_555 1_555
H7A C8A 1_555 1_555
H8A C8A 1_555 1_555
C9A C10A 1_555 1_555
C10A H9A 1_555 1_555
C11A C10A 1_555 1_555
H10A C11A 1_555 1_555
C12A H11A 1_555 1_555
C13A C9A 1_555 1_555
H12A C13A 1_555 1_555
C14A C15A 1_555 1_555
C15A C16A 1_555 1_555
C16A C16 1_555 1_555
H13A C16A 1_555 1_555
C17A C17 1_555 1_555
H14A C17A 1_555 1_555
C18D C19D 1_555 1_555
C19D C20D 1_555 1_555
C20D C21 1_555 1_555
H15D C20D 1_555 1_555
C21D C20 1_555 1_555
N1A C1A 1_555 1_555
N2A C11A 1_555 1_555
N2B Zn1 1_555 1_555
N2C Zn1A 1_555 1_555
O1A C3A 1_555 1_555
O2A C8A 1_555 1_555
O3A C14A 1_555 1_555
O3A_2 Zn1A 1_555 1_555
O4A C14A 1_555 1_555
O5D C18D 1_555 1_555
O5A Zn1A 1_555 1_555
O6D C18D 1_555 1_555
H16D C21D 1_555 1_555
H17A O7 1_555 1_555
H18A O8 1_555 1_555
Zn1A N1A 1_555 1_555
Zn1B N2 1_555 1_555
Zn1C N2A 1_555 1_555
Zn1A_2 O3A 1_555 1_555
Zn1D O5D 1_555 1_555
C5 N1 1_555 1_555
C6 O1 1_555 1_555
C9 O2 1_555 1_555
C12 C13 1_555 1_555
C12 N2 1_555 1_555
O3 Zn1 1_555 1_555
O5 Zn1 1_555 1_555
C5A N1A 1_555 1_555
C6A O1A 1_555 1_555
C9A O2A 1_555 1_555
C12A C13A 1_555 1_555
C12A N2A 1_555 1_555
C15A C17A 1_555 1_555
C19D C21D 1_555 1_555

#END
