
#######################################################################
#
#                 Cambridge Crystallographic Data Centre
#                                CCDC 
#
#######################################################################
#
# If this CIF has been generated from an entry in the Cambridge 
# Structural Database, then it will include bibliographic, chemical, 
# crystal, experimental, refinement or atomic coordinate data resulting 
# from the CCDC's data processing and validation procedures.
#
#######################################################################

data_QUPHIT
_chemical_formula_moiety         '(C41 H36 Co2 N4 O16)n'
_symmetry_cell_setting           monoclinic
_symmetry_space_group_name_H-M   'P 2/c'
_symmetry_Int_Tables_number      13
_space_group_name_Hall           '-P 2yc'
loop_
_symmetry_equiv_pos_site_id
_symmetry_equiv_pos_as_xyz
1 x,y,z
2 -x,y,1/2-z
3 -x,-y,-z
4 x,-y,1/2+z
_cell_length_a                   10.3376(11)
_cell_length_b                   9.4092(10)
_cell_length_c                   24.353(3)
_cell_angle_alpha                90
_cell_angle_beta                 93.978(2)
_cell_angle_gamma                90
_cell_volume                     2363.07
loop_
_atom_site_label
_atom_site_type_symbol
_atom_site_fract_x
_atom_site_fract_y
_atom_site_fract_z
C1 C 0.6879(3) 0.3190(4) 0.56931(15)
C2 C 0.8284(3) 0.2901(4) 0.58766(14)
C3 C 0.9217(4) 0.3834(4) 0.57164(17)
H1 H 0.8980 0.4603 0.5491
C4 C 1.0505(4) 0.3625(5) 0.5891(2)
C5 C 1.0852(4) 0.2474(5) 0.62139(18)
H2 H 1.1718 0.2337 0.6332
C6 C 0.9927(3) 0.1514(4) 0.63658(15)
C7 C 0.8629(3) 0.1751(4) 0.62026(15)
H3 H 0.7996 0.1132 0.6314
C8 C 1.0327(4) 0.0270(4) 0.67248(18)
C9 C 0.6270(4) 0.6816(6) 0.5934(2)
H4 H 0.6976 0.6247 0.5865
C10 C 0.6449(4) 0.7861(5) 0.6321(2)
H5 H 0.7265 0.8020 0.6495
C11 C 0.5414(3) 0.8670(4) 0.64510(15)
C12 C 0.4252(3) 0.8466(4) 0.61499(15)
H6 H 0.3536 0.9033 0.6206
C13 C 0.4182(3) 0.7397(4) 0.57625(15)
H7 H 0.3390 0.7256 0.5565
C14 C 0.4560(3) 1.0453(4) 0.70052(14)
H8 H 0.3858 0.9830 0.7097
H9 H 0.4249 1.1057 0.6701
C15 C 0.5000 1.1355(5) 0.7500
C16 C 0.3856(4) 1.2274(4) 0.76477(14)
H10 H 0.3079 1.1701 0.7659
H11 H 0.4037 1.2712 0.8005
C17 C 0.2944(4) 1.4466(4) 0.73280(15)
C18 C 0.2166(4) 1.4558(4) 0.77670(17)
H12 H 0.2145 1.3831 0.8025
C19 C 0.1430(5) 1.5754(5) 0.78077(17)
H13 H 0.0905 1.5815 0.8102
C20 C 0.2188(4) 1.6741(4) 0.70451(18)
H14 H 0.2219 1.7498 0.6801
C21 C 0.2943(5) 1.5580(5) 0.69659(19)
H15 H 0.3455 1.5544 0.6667
Co1 Co 0.5000 0.5000 0.5000
Co2 Co 0.0000 1.83649(7) 0.7500
N1 N 0.5144(3) 0.6562(3) 0.56497(13)
N2 N 0.1410(3) 1.6840(3) 0.74554(13)
O1 O 0.6034(3) 0.2572(5) 0.59419(17)
O2 O 0.6673(2) 0.4071(3) 0.53198(9)
O3 O 0.9460(3) -0.0607(3) 0.68249(13)
O4 O 1.1431(4) 0.0152(4) 0.6915(2)
O5 O 1.1343(2) 0.4573(4) 0.57080(19)
H16 H 1.1719 0.4244 0.5382
O6 O 0.3915(2) 0.3558(3) 0.54841(12)
H17 H 0.4444 0.2766 0.5607
H18 H 0.3618 0.4051 0.5797
O7 O 0.5634(2) 0.9638(3) 0.68547(11)
O8 O 0.3685(3) 1.3349(3) 0.72252(11)
C1B C 0.3121(3) 0.6810(4) 0.43069(15)
C2B C 0.1716(3) 0.7099(4) 0.41234(14)
C3B C 0.0783(4) 0.6166(4) 0.42836(17)
H1B H 0.1020 0.5397 0.4509
C4B C -0.0505(4) 0.6375(5) 0.4109(2)
C5B C -0.0852(4) 0.7526(5) 0.37861(18)
H2B H -0.1718 0.7663 0.3668
C6B C 0.0073(3) 0.8486(4) 0.36342(15)
C7B C 0.1371(3) 0.8249(4) 0.37974(15)
H3B H 0.2004 0.8868 0.3686
C8B C -0.0327(4) 0.9730(4) 0.32752(18)
C9A C 0.3730(4) 0.6816(6) 0.9066(2)
H4A H 0.3024 0.6247 0.9135
C10A C 0.3551(4) 0.7861(5) 0.8679(2)
H5A H 0.2735 0.8020 0.8505
C11A C 0.4586(3) 0.8670(4) 0.85490(15)
C12A C 0.5748(3) 0.8466(4) 0.88501(15)
H6A H 0.6464 0.9033 0.8794
C13A C 0.5818(3) 0.7397(4) 0.92375(15)
H7A H 0.6610 0.7256 0.9435
C14A C 0.5440(3) 1.0453(4) 0.79948(14)
H8A H 0.6142 0.9830 0.7903
H9A H 0.5751 1.1057 0.8299
C16A C 0.6144(4) 1.2274(4) 0.73523(14)
H10A H 0.6921 1.1701 0.7341
H11A H 0.5963 1.2712 0.6995
C17A C 0.7056(4) 1.4466(4) 0.76720(15)
C18A C 0.7834(4) 1.4558(4) 0.72330(17)
H12A H 0.7855 1.3831 0.6975
C19A C 0.8570(5) 1.5754(5) 0.71923(17)
H13A H 0.9095 1.5815 0.6898
C20A C 0.7812(4) 1.6741(4) 0.79549(18)
H14A H 0.7781 1.7498 0.8199
C21A C 0.7057(5) 1.5580(5) 0.80341(19)
H15A H 0.6545 1.5544 0.8333
Co1A Co 0.5000 0.5000 1.0000
Co2_2 Co 1.0000 -0.16351(7) 0.7500
Co2_3 Co 1.0000 1.83649(7) 0.7500
Co2B Co 0.0000 1.16351(7) 0.2500
N1A N 0.4856(3) 0.6562(3) 0.93503(13)
N1B N 0.4856(3) 0.3438(3) 0.43503(13)
N2A N 0.8590(3) 1.6840(3) 0.75446(13)
N2A_2 N -0.1410(3) 1.6840(3) 0.75446(13)
O1B O 0.3966(3) 0.7428(5) 0.40581(17)
O2B O 0.3327(2) 0.5929(3) 0.46802(9)
O3B O 0.0540(3) 1.0607(3) 0.31751(13)
O3_2 O -0.0540(3) 1.9393(3) 0.68249(13)
O3A O 0.0540(3) 1.9393(3) 0.81751(13)
O4B O -0.1431(4) 0.9848(4) 0.3085(2)
O5B O -0.1343(2) 0.5427(4) 0.42920(19)
H16B H -0.1719 0.5756 0.4618
O6B O 0.6085(2) 0.6442(3) 0.45159(12)
H17B H 0.5556 0.7234 0.4393
H18B H 0.6382 0.5949 0.4203
O7A O 0.4366(2) 0.9638(3) 0.81453(11)
O8A O 0.6315(3) 1.3349(3) 0.77748(11)
loop_
_geom_bond_atom_site_label_1
_geom_bond_atom_site_label_2
_geom_bond_site_symmetry_1
_geom_bond_site_symmetry_2
C1 C2 1_555 1_555
C2 C3 1_555 1_555
C3 H1 1_555 1_555
C4 C3 1_555 1_555
C5 C4 1_555 1_555
H2 C5 1_555 1_555
C6 C5 1_555 1_555
C7 C2 1_555 1_555
H3 C7 1_555 1_555
C8 C6 1_555 1_555
C9 H4 1_555 1_555
C10 C9 1_555 1_555
H5 C10 1_555 1_555
C11 C10 1_555 1_555
C12 C11 1_555 1_555
H6 C12 1_555 1_555
C13 C12 1_555 1_555
H7 C13 1_555 1_555
C14 H8 1_555 1_555
H9 C14 1_555 1_555
C15 C14 1_555 1_555
C16 C15 1_555 1_555
H10 C16 1_555 1_555
H11 C16 1_555 1_555
C17 C18 1_555 1_555
C18 H12 1_555 1_555
C19 C18 1_555 1_555
H13 C19 1_555 1_555
C20 H14 1_555 1_555
C21 C17 1_555 1_555
H15 C21 1_555 1_555
Co1 N1 1_555 1_555
Co2 N2 1_555 1_555
N1 C9 1_555 1_555
N2 C19 1_555 1_555
O1 C1 1_555 1_555
O2 C1 1_555 1_555
O3 C8 1_555 1_555
O4 C8 1_555 1_555
O5 C4 1_555 1_555
H16 O5 1_555 1_555
O6 Co1 1_555 1_555
H17 O6 1_555 1_555
H18 O6 1_555 1_555
O7 C11 1_555 1_555
O8 C16 1_555 1_555
C1B C2B 1_555 1_555
C2B C3B 1_555 1_555
C3B H1B 1_555 1_555
C4B C3B 1_555 1_555
C5B C4B 1_555 1_555
H2B C5B 1_555 1_555
C6B C5B 1_555 1_555
C7B C2B 1_555 1_555
H3B C7B 1_555 1_555
C8B C6B 1_555 1_555
C9A H4A 1_555 1_555
C10A C9A 1_555 1_555
H5A C10A 1_555 1_555
C11A C10A 1_555 1_555
C12A C11A 1_555 1_555
H6A C12A 1_555 1_555
C13A C12A 1_555 1_555
H7A C13A 1_555 1_555
C14A C15 1_555 1_555
H8A C14A 1_555 1_555
H9A C14A 1_555 1_555
C16A C15 1_555 1_555
H10A C16A 1_555 1_555
H11A C16A 1_555 1_555
C17A C18A 1_555 1_555
C18A H12A 1_555 1_555
C19A C18A 1_555 1_555
H13A C19A 1_555 1_555
C20A H14A 1_555 1_555
C21A C17A 1_555 1_555
H15A C21A 1_555 1_555
Co1A N1A 1_555 1_555
Co2_2 O3 1_555 1_555
Co2_3 N2A 1_555 1_555
Co2B O3B 1_555 1_555
N1A C9A 1_555 1_555
N1B Co1 1_555 1_555
N2A C19A 1_555 1_555
N2A_2 Co2 1_555 1_555
O1B C1B 1_555 1_555
O2B Co1 1_555 1_555
O3B C8B 1_555 1_555
O3_2 Co2 1_555 1_555
O3A Co2 1_555 1_555
O4B C8B 1_555 1_555
O5B C4B 1_555 1_555
H16B O5B 1_555 1_555
O6B Co1 1_555 1_555
H17B O6B 1_555 1_555
H18B O6B 1_555 1_555
O7A C11A 1_555 1_555
O8A C16A 1_555 1_555
C6 C7 1_555 1_555
C13 N1 1_555 1_555
C14 O7 1_555 1_555
C17 O8 1_555 1_555
C20 C21 1_555 1_555
C20 N2 1_555 1_555
Co1 O2 1_555 1_555
C1B O2B 1_555 1_555
C6B C7B 1_555 1_555
C13A N1A 1_555 1_555
C14A O7A 1_555 1_555
C17A O8A 1_555 1_555
C20A C21A 1_555 1_555
C20A N2A 1_555 1_555

#END
