
#######################################################################
#
#                 Cambridge Crystallographic Data Centre
#                                CCDC 
#
#######################################################################
#
# If this CIF has been generated from an entry in the Cambridge 
# Structural Database, then it will include bibliographic, chemical, 
# crystal, experimental, refinement or atomic coordinate data resulting 
# from the CCDC's data processing and validation procedures.
#
#######################################################################

data_GADMAA01
_chemical_formula_moiety         '(C24 H36 Gd2 O36 Zn3)n'
_symmetry_cell_setting           hexagonal
_symmetry_space_group_name_H-M   'P 6/m c c'
_symmetry_Int_Tables_number      192
_space_group_name_Hall           '-P 6 2c'
loop_
_symmetry_equiv_pos_site_id
_symmetry_equiv_pos_as_xyz
1 x,y,z
2 -y,x-y,z
3 -x+y,-x,z
4 -x,-y,z
5 y,-x+y,z
6 x-y,x,z
7 y,x,1/2-z
8 x-y,-y,1/2-z
9 -x,-x+y,1/2-z
10 -y,-x,1/2-z
11 -x+y,y,1/2-z
12 x,x-y,1/2-z
13 -x,-y,-z
14 y,-x+y,-z
15 x-y,x,-z
16 x,y,-z
17 -y,x-y,-z
18 -x+y,-x,-z
19 -y,-x,1/2+z
20 -x+y,y,1/2+z
21 x,x-y,1/2+z
22 y,x,1/2+z
23 x-y,-y,1/2+z
24 -x,-x+y,1/2+z
_cell_length_a                   14.5102(12)
_cell_length_b                   14.5102(12)
_cell_length_c                   15.8320(16)
_cell_angle_alpha                90
_cell_angle_beta                 90
_cell_angle_gamma                120
_cell_volume                     2886.78
loop_
_atom_site_label
_atom_site_type_symbol
_atom_site_fract_x
_atom_site_fract_y
_atom_site_fract_z
Gd1 Gd 0.6667 0.3333 0.2500
Zn1 Zn 1.0000 0.5000 0.0000
O1 O 0.8549(4) 0.5058(5) 0.0000
H1 H 0.8207 0.4706 0.0436
O2 O 0.9442(4) 0.3830(4) 0.0907(3)
C1 C 0.8680(5) 0.3502(6) 0.1390(4)
O3 O 0.8045(3) 0.3853(3) 0.1458(3)
O4 O 0.7653(2) 0.2347(2) 0.2500
C2 C 0.8503(6) 0.2595(7) 0.1944(5)
H2 H 0.8337 0.1966 0.1592
H3 H 0.9157 0.2790 0.2270
H1O H 0.8207 0.4706 -0.0436
O2I O 0.6170(4) 0.0558(4) 0.4093(3)
C1I C 0.6498(6) 0.1320(5) 0.3610(4)
O3I O 0.6147(3) 0.1955(3) 0.3542(3)
C2I C 0.7405(7) 0.1497(6) 0.3056(5)
H2I H 0.8034 0.1663 0.3408
H3I H 0.7210 0.0843 0.2730
Zn1A Zn 0.5000 0.5000 0.0000
O1A O 0.4942(5) 0.3491(6) 0.0000
H1A H 0.5294 0.3501 0.0436
O2A O 0.6170(4) 0.5612(6) 0.0907(3)
C1A C 0.6498(6) 0.5178(8) 0.1390(4)
O3A O 0.6147(3) 0.4192(4) 0.1458(3)
O4A O 0.7653(2) 0.5306(3) 0.2500
C2A C 0.7405(7) 0.5908(9) 0.1944(5)
H2A H 0.8034 0.6371 0.1592
H3A H 0.7210 0.6367 0.2270
H1P H 0.5294 0.3501 -0.0436
O2K O 0.9442(4) 0.5612(6) 0.4093(3)
C1K C 0.8680(5) 0.5178(8) 0.3610(4)
O3K O 0.8045(3) 0.4192(4) 0.3542(3)
C2K C 0.8503(6) 0.5908(9) 0.3056(5)
H2K H 0.8337 0.6371 0.3408
H3K H 0.9157 0.6367 0.2730
Zn1B Zn 0.5000 0.0000 0.0000
O1B O 0.6509(6) 0.1451(4) 0.0000
H1B H 0.6499 0.1793 0.0436
O2B O 0.4388(6) 0.0558(4) 0.0907(3)
C1B C 0.4822(8) 0.1320(5) 0.1390(4)
O3B O 0.5808(4) 0.1955(3) 0.1458(3)
O4B O 0.4694(3) 0.2347(2) 0.2500
C2B C 0.4092(9) 0.1497(6) 0.1944(5)
H2B H 0.3629 0.1663 0.1592
H3B H 0.3633 0.0843 0.2270
H1Q H 0.6499 0.1793 -0.0436
O2J O 0.4388(6) 0.3830(4) 0.4093(3)
C1J C 0.4822(8) 0.3502(6) 0.3610(4)
O3J O 0.5808(4) 0.3853(3) 0.3542(3)
C2J C 0.4092(9) 0.2595(7) 0.3056(5)
H2J H 0.3629 0.1966 0.3408
H3J H 0.3633 0.2790 0.2730
Gd1C Gd 1.3333 0.6667 0.2500
O1C O 1.1451(4) 0.4942(5) 0.0000
H1C H 1.1793 0.5294 0.0436
O2C O 1.0558(4) 0.6170(4) 0.0907(3)
C1C C 1.1320(5) 0.6498(6) 0.1390(4)
O3C O 1.1955(3) 0.6147(3) 0.1458(3)
O4C O 1.2347(2) 0.7653(2) 0.2500
C2C C 1.1497(6) 0.7405(7) 0.1944(5)
H2C H 1.1663 0.8034 0.1592
H3C H 1.0843 0.7210 0.2270
H1L H 1.1793 0.5294 -0.0436
O2F O 1.3830(4) 0.9442(4) 0.4093(3)
C1F C 1.3502(6) 0.8680(5) 0.3610(4)
O3F O 1.3853(3) 0.8045(3) 0.3542(3)
C2F C 1.2595(7) 0.8503(6) 0.3056(5)
H2F H 1.1966 0.8337 0.3408
H3F H 1.2790 0.9157 0.2730
O1D O 0.5058(5) 0.6509(6) 0.0000
H1D H 0.4706 0.6499 0.0436
O2D O 0.3830(4) 0.4388(6) 0.0907(3)
C1D C 0.3502(6) 0.4822(8) 0.1390(4)
O3D O 0.3853(3) 0.5808(4) 0.1458(3)
O4D O 0.2347(2) 0.4694(3) 0.2500
C2D C 0.2595(7) 0.4092(9) 0.1944(5)
H2D H 0.1966 0.3629 0.1592
H3D H 0.2790 0.3633 0.2270
H1M H 0.4706 0.6499 -0.0436
O2H O 0.0558(4) 0.4388(6) 0.4093(3)
C1H C 0.1320(5) 0.4822(8) 0.3610(4)
O3H O 0.1955(3) 0.5808(4) 0.3542(3)
C2H C 0.1497(6) 0.4092(9) 0.3056(5)
H2H H 0.1663 0.3629 0.3408
H3H H 0.0843 0.3633 0.2730
O1E O 0.3491(6) -0.1451(4) 0.0000
H1E H 0.3501 -0.1793 0.0436
O2E O 0.5612(6) -0.0558(4) 0.0907(3)
C1E C 0.5178(8) -0.1320(5) 0.1390(4)
O3E O 0.4192(4) -0.1955(3) 0.1458(3)
O4E O 0.5306(3) -0.2347(2) 0.2500
C2E C 0.5908(9) -0.1497(6) 0.1944(5)
H2E H 0.6371 -0.1663 0.1592
H3E H 0.6367 -0.0843 0.2270
H1N H 0.3501 -0.1793 -0.0436
O2G O 0.5612(6) -0.3830(4) 0.4093(3)
C1G C 0.5178(8) -0.3502(6) 0.3610(4)
O3G O 0.4192(4) -0.3853(3) 0.3542(3)
C2G C 0.5908(9) -0.2595(7) 0.3056(5)
H2G H 0.6371 -0.1966 0.3408
H3G H 0.6367 -0.2790 0.2730
Gd1C_2 Gd 0.3333 -0.3333 0.2500
Gd1C_3 Gd 0.3333 0.6667 0.2500
Zn1F Zn 0.5000 -0.0000 0.5000
Zn1F_2 Zn 1.5000 1.0000 0.5000
Zn1G Zn 0.5000 -0.5000 0.5000
Zn1G_2 Zn 0.5000 0.5000 0.5000
Zn1H Zn 0.0000 0.5000 0.5000
Zn1H_2 Zn 1.0000 0.5000 0.5000
O2L O 1.0558(4) 0.6170(4) -0.0907(3)
O2M O 0.3830(4) 0.4388(6) -0.0907(3)
O2N O 0.5612(6) -0.0558(4) -0.0907(3)
O2O O 0.9442(4) 0.3830(4) -0.0907(3)
O2P O 0.6170(4) 0.5612(6) -0.0907(3)
O2Q O 0.4388(6) 0.0558(4) -0.0907(3)
O3D_2 O 1.3853(3) 0.5808(4) 0.1458(3)
O3E_2 O 1.4192(4) 0.8045(3) 0.1458(3)
O3G_2 O 1.4192(4) 0.6147(3) 0.3542(3)
O3H_2 O 1.1955(3) 0.5808(4) 0.3542(3)
O4D_2 O 1.2347(2) 0.4694(3) 0.2500
O4E_2 O 1.5306(3) 0.7653(2) 0.2500
loop_
_geom_bond_atom_site_label_1
_geom_bond_atom_site_label_2
_geom_bond_site_symmetry_1
_geom_bond_site_symmetry_2
Gd1 O3 1_555 1_555
Zn1 O1 1_555 1_555
O1 H1 1_555 1_555
O2 Zn1 1_555 1_555
C1 O2 1_555 1_555
O3 C1 1_555 1_555
O4 Gd1 1_555 1_555
C2 C1 1_555 1_555
H2 C2 1_555 1_555
H3 C2 1_555 1_555
H1O O1 1_555 1_555
O2I C1I 1_555 1_555
C1I O3I 1_555 1_555
O3I Gd1 1_555 1_555
C2I O4 1_555 1_555
H2I C2I 1_555 1_555
H3I C2I 1_555 1_555
Zn1A O1A 1_555 1_555
O1A H1A 1_555 1_555
O2A Zn1A 1_555 1_555
C1A O2A 1_555 1_555
O3A Gd1 1_555 1_555
O4A Gd1 1_555 1_555
C2A C1A 1_555 1_555
H2A C2A 1_555 1_555
H3A C2A 1_555 1_555
H1P O1A 1_555 1_555
O2K C1K 1_555 1_555
C1K O3K 1_555 1_555
O3K Gd1 1_555 1_555
C2K O4A 1_555 1_555
H2K C2K 1_555 1_555
H3K C2K 1_555 1_555
Zn1B O1B 1_555 1_555
O1B H1B 1_555 1_555
O2B Zn1B 1_555 1_555
C1B O2B 1_555 1_555
O3B Gd1 1_555 1_555
O4B Gd1 1_555 1_555
C2B C1B 1_555 1_555
H2B C2B 1_555 1_555
H3B C2B 1_555 1_555
H1Q O1B 1_555 1_555
O2J C1J 1_555 1_555
C1J O3J 1_555 1_555
O3J Gd1 1_555 1_555
C2J O4B 1_555 1_555
H2J C2J 1_555 1_555
H3J C2J 1_555 1_555
Gd1C O3C 1_555 1_555
O1C Zn1 1_555 1_555
H1C O1C 1_555 1_555
O2C Zn1 1_555 1_555
C1C O2C 1_555 1_555
O3C C1C 1_555 1_555
O4C Gd1C 1_555 1_555
C2C C1C 1_555 1_555
H2C C2C 1_555 1_555
H3C C2C 1_555 1_555
H1L O1C 1_555 1_555
O2F C1F 1_555 1_555
C1F O3F 1_555 1_555
O3F Gd1C 1_555 1_555
C2F O4C 1_555 1_555
H2F C2F 1_555 1_555
H3F C2F 1_555 1_555
O1D Zn1A 1_555 1_555
H1D O1D 1_555 1_555
O2D Zn1A 1_555 1_555
C1D O2D 1_555 1_555
O3D C1D 1_555 1_555
O4D C2D 1_555 1_555
C2D C1D 1_555 1_555
H2D C2D 1_555 1_555
H3D C2D 1_555 1_555
H1M O1D 1_555 1_555
O2H C1H 1_555 1_555
C1H O3H 1_555 1_555
O3H Gd1C_3 1_555 1_555
C2H O4D 1_555 1_555
H2H C2H 1_555 1_555
H3H C2H 1_555 1_555
O1E Zn1B 1_555 1_555
H1E O1E 1_555 1_555
O2E Zn1B 1_555 1_555
C1E O2E 1_555 1_555
O3E C1E 1_555 1_555
O4E C2E 1_555 1_555
C2E C1E 1_555 1_555
H2E C2E 1_555 1_555
H3E C2E 1_555 1_555
H1N O1E 1_555 1_555
O2G C1G 1_555 1_555
C1G O3G 1_555 1_555
O3G Gd1C_2 1_555 1_555
C2G O4E 1_555 1_555
H2G C2G 1_555 1_555
H3G C2G 1_555 1_555
Gd1C_2 O3E 1_555 1_555
Gd1C_3 O3D 1_555 1_555
Zn1F O2I 1_555 1_555
Zn1F_2 O2F 1_555 1_555
Zn1G O2G 1_555 1_555
Zn1G_2 O2J 1_555 1_555
Zn1H O2H 1_555 1_555
Zn1H_2 O2K 1_555 1_555
O2L Zn1 1_555 1_555
O2M Zn1A 1_555 1_555
O2N Zn1B 1_555 1_555
O2O Zn1 1_555 1_555
O2P Zn1A 1_555 1_555
O2Q Zn1B 1_555 1_555
O3D_2 Gd1C 1_555 1_555
O3E_2 Gd1C 1_555 1_555
O3G_2 Gd1C 1_555 1_555
O3H_2 Gd1C 1_555 1_555
O4D_2 Gd1C 1_555 1_555
O4E_2 Gd1C 1_555 1_555
O4 C2 1_555 1_555
C1I C2I 1_555 1_555
C1A O3A 1_555 1_555
O4A C2A 1_555 1_555
C1K C2K 1_555 1_555
C1B O3B 1_555 1_555
O4B C2B 1_555 1_555
C1J C2J 1_555 1_555
O4C C2C 1_555 1_555
C1F C2F 1_555 1_555
O4D Gd1C_3 1_555 1_555
C1H C2H 1_555 1_555
O4E Gd1C_2 1_555 1_555
C1G C2G 1_555 1_555

#END
