
#######################################################################
#
#                 Cambridge Crystallographic Data Centre
#                                CCDC 
#
#######################################################################
#
# If this CIF has been generated from an entry in the Cambridge 
# Structural Database, then it will include bibliographic, chemical, 
# crystal, experimental, refinement or atomic coordinate data resulting 
# from the CCDC's data processing and validation procedures.
#
#######################################################################

data_AZIHOI
_chemical_formula_moiety         '(C17 H11 Cl1 Co1 N2 O2)n'
_symmetry_cell_setting           tetragonal
_symmetry_space_group_name_H-M   'P 42/n m c'
_symmetry_Int_Tables_number      137
_space_group_name_Hall           '-P 4ac 2a'
loop_
_symmetry_equiv_pos_site_id
_symmetry_equiv_pos_as_xyz
1 x,y,z
2 1/2-y,x,1/2+z
3 1/2-x,1/2-y,z
4 y,1/2-x,1/2+z
5 1/2+x,-y,-z
6 1/2+y,1/2+x,1/2-z
7 -x,1/2+y,-z
8 -y,-x,1/2-z
9 -x,-y,-z
10 1/2+y,-x,1/2-z
11 1/2+x,1/2+y,-z
12 -y,1/2+x,1/2-z
13 1/2-x,y,z
14 1/2-y,1/2-x,1/2+z
15 x,1/2-y,z
16 y,x,1/2+z
_cell_length_a                   17.5317(12)
_cell_length_b                   17.5317(12)
_cell_length_c                   15.757(2)
_cell_angle_alpha                90
_cell_angle_beta                 90
_cell_angle_gamma                90
_cell_volume                     4843.08
loop_
_atom_site_label
_atom_site_type_symbol
_atom_site_fract_x
_atom_site_fract_y
_atom_site_fract_z
_atom_site_U_iso_or_equiv
_atom_site_thermal_displace_type
C1 C 0.2500 0.5585(2) 1.1244(2) 0.0214 Uani
C2 C 0.2500 0.5076(3) 1.0465(3) 0.0277 Uani
C3 C 0.18179(16) 0.48428(18) 1.01027(19) 0.0309 Uani
H1 H 0.1359 0.4994 1.0346 0.0370 Uiso
C4 C 0.18097(16) 0.4384(2) 0.9381(2) 0.0343 Uani
C5 C 0.2500 0.4145(3) 0.9034(3) 0.0420 Uani
H2 H 0.2500 0.3822 0.8566 0.0500 Uiso
C6 C 0.10728(17) 0.4165(2) 0.8971(2) 0.0346 Uani
C7 C 0.0919(4) 0.3457(4) 0.8635(5) 0.0420 Uani
H3 H 0.1296 0.3061 0.8673 0.0500 Uiso
C8 C 0.0248(4) 0.3313(4) 0.8252(4) 0.0393 Uani
H4 H 0.0165 0.2810 0.8031 0.0470 Uiso
N1 N -0.03017(14) 0.38090(15) 0.81622(16) 0.0289 Uani
C9 C -0.0173(4) 0.4531(4) 0.8496(4) 0.0407 Uani
H5 H -0.0558 0.4916 0.8432 0.0490 Uiso
C10 C 0.0486(4) 0.4702(4) 0.8910(4) 0.0430 Uani
H6 H 0.0550 0.5195 0.9167 0.0520 Uiso
Cl1 Cl 0.15948(9) 0.7500 1.16880(10) 0.0560 Uani
Co1 Co 0.13675(2) 0.63675(2) 1.2500 0.0190 Uani
O1 O 0.18681(12) 0.57634(14) 1.15348(13) 0.0348 Uani
C3L C 0.31821(16) 0.48428(18) 1.01027(19) 0.0309 Uani
H1L H 0.3641 0.4994 1.0346 0.0370 Uiso
C4L C 0.31903(16) 0.4384(2) 0.9381(2) 0.0343 Uani
C6L C 0.39272(17) 0.4165(2) 0.8971(2) 0.0346 Uani
C7L C 0.4081(4) 0.3457(4) 0.8635(5) 0.0420 Uani
H3L H 0.3704 0.3061 0.8673 0.0500 Uiso
C8L C 0.4752(4) 0.3313(4) 0.8252(4) 0.0393 Uani
H4L H 0.4835 0.2810 0.8031 0.0470 Uiso
N1L N 0.53017(14) 0.38090(15) 0.81622(16) 0.0289 Uani
C9L C 0.5173(4) 0.4531(4) 0.8496(4) 0.0407 Uani
H5L H 0.5558 0.4916 0.8432 0.0490 Uiso
C10L C 0.4514(4) 0.4702(4) 0.8910(4) 0.0430 Uani
H6L H 0.4450 0.5195 0.9167 0.0520 Uiso
O1L O 0.31319(12) 0.57634(14) 1.15348(13) 0.0348 Uani
N1H N 0.03017(14) 0.61910(15) 1.18378(16) 0.0289 Uani
N1M N 0.11910(15) 0.53017(14) 1.31622(16) 0.0289 Uani
Cl1E Cl 0.2500 0.65948(9) 1.33120(10) 0.0560 Uani
Co1C Co 0.63675(2) 0.36325(2) 0.7500 0.0190 Uani
Co1H Co -0.13675(2) 0.36325(2) 0.7500 0.0190 Uani
Co1I Co 0.13675(2) 0.86325(2) 1.2500 0.0190 Uani
Co1K Co 0.36325(2) 0.63675(2) 1.2500 0.0190 Uani
O1E O 0.07634(14) 0.68681(12) 1.34652(13) 0.0348 Uani
loop_
_atom_site_aniso_label
_atom_site_aniso_U_11
_atom_site_aniso_U_22
_atom_site_aniso_U_33
_atom_site_aniso_U_23
_atom_site_aniso_U_13
_atom_site_aniso_U_12
C1 0.021(2) 0.0206(19) 0.0226(19) -0.0014(16) 0.000 0.000
C2 0.024(2) 0.036(2) 0.023(2) -0.0107(17) 0.000 0.000
C3 0.0178(14) 0.0392(18) 0.0358(16) -0.0153(14) 0.0024(12) -0.0001(12)
C4 0.0180(15) 0.0467(19) 0.0381(17) -0.0189(14) -0.0009(12) -0.0003(13)
C5 0.023(2) 0.062(3) 0.041(3) -0.028(2) 0.000 0.000
C6 0.0200(15) 0.0451(19) 0.0388(17) -0.0195(15) -0.0009(13) 0.0002(13)
C7 0.028(3) 0.043(4) 0.055(4) -0.023(3) -0.006(3) 0.002(3)
C8 0.032(4) 0.036(4) 0.050(4) -0.017(3) -0.008(3) 0.001(3)
N1 0.0197(12) 0.0344(13) 0.0325(14) -0.0097(11) -0.0006(10) -0.0028(11)
C9 0.022(3) 0.049(4) 0.051(4) -0.020(3) 0.002(3) 0.000(3)
C10 0.029(3) 0.049(4) 0.051(4) -0.023(3) 0.001(3) -0.008(3)
Cl1 0.0540(8) 0.0422(8) 0.0718(10) 0.000 0.0027(7) 0.000
Co1 0.0181(3) 0.0181(3) 0.0208(4) -0.00337(13) 0.00337(13) -0.00199(18)
O1 0.0199(10) 0.0501(14) 0.0345(12) -0.0227(10) 0.0054(9) -0.0009(10)
C3L 0.0178 0.0392 0.0358 -0.0153 -0.0024 0.0001
C4L 0.018 0.0467 0.0381 -0.0189 0.0009 0.0003
C6L 0.02 0.0451 0.0388 -0.0195 0.0009 -0.0002
C7L 0.028 0.043 0.055 -0.023 0.006 -0.002
C8L 0.032 0.036 0.05 -0.017 0.008 -0.001
N1L 0.0197 0.0344 0.0325 -0.0097 0.0006 0.0028
C9L 0.022 0.049 0.051 -0.02 -0.002 0
C10L 0.029 0.049 0.051 -0.023 -0.001 0.008
O1L 0.0199 0.0501 0.0345 -0.0227 -0.0054 0.0009
N1H 0.0197 0.0344 0.0325 -0.0097 -0.0006 -0.0028
N1M 0.0344 0.0197 0.0325 0.0006 0.0097 -0.0028
Cl1E 0.0422 0.054 0.0718 -0.0027 0 0
Co1C 0.0181 0.0181 0.0208 -0.00337 -0.00337 0.00199
Co1H 0.0181 0.0181 0.0208 -0.00337 0.00337 -0.00199
Co1I 0.0181 0.0181 0.0208 0.00337 0.00337 0.00199
Co1K 0.0181 0.0181 0.0208 -0.00337 -0.00337 0.00199
O1E 0.0501 0.0199 0.0345 -0.0054 0.0227 -0.0009
loop_
_geom_bond_atom_site_label_1
_geom_bond_atom_site_label_2
_geom_bond_site_symmetry_1
_geom_bond_site_symmetry_2
C1 C2 1_555 1_555
C2 C3 1_555 1_555
C3 H1 1_555 1_555
C4 C3 1_555 1_555
C5 C4 1_555 1_555
H2 C5 1_555 1_555
C6 C4 1_555 1_555
C7 C6 1_555 1_555
H3 C7 1_555 1_555
C8 C7 1_555 1_555
H4 C8 1_555 1_555
N1 C8 1_555 1_555
C9 N1 1_555 1_555
H5 C9 1_555 1_555
C10 C6 1_555 1_555
H6 C10 1_555 1_555
Cl1 Co1 1_555 1_555
Co1 O1 1_555 1_555
O1 C1 1_555 1_555
C3L C2 1_555 1_555
H1L C3L 1_555 1_555
C4L C5 1_555 1_555
C6L C4L 1_555 1_555
C7L C6L 1_555 1_555
H3L C7L 1_555 1_555
C8L C7L 1_555 1_555
H4L C8L 1_555 1_555
N1L C8L 1_555 1_555
C9L N1L 1_555 1_555
H5L C9L 1_555 1_555
C10L C6L 1_555 1_555
H6L C10L 1_555 1_555
O1L C1 1_555 1_555
N1H Co1 1_555 1_555
N1M Co1 1_555 1_555
Cl1E Co1 1_555 1_555
Co1C N1L 1_555 1_555
Co1H N1 1_555 1_555
Co1I Cl1 1_555 1_555
Co1K O1L 1_555 1_555
O1E Co1 1_555 1_555
C9 C10 1_555 1_555
C3L C4L 1_555 1_555
C9L C10L 1_555 1_555
Cl1E Co1K 1_555 1_555

#END
