
#######################################################################
#
#                 Cambridge Crystallographic Data Centre
#                                CCDC 
#
#######################################################################
#
# If this CIF has been generated from an entry in the Cambridge 
# Structural Database, then it will include bibliographic, chemical, 
# crystal, experimental, refinement or atomic coordinate data resulting 
# from the CCDC's data processing and validation procedures.
#
#######################################################################

data_NERVAJ
_chemical_formula_moiety         '(C70 H65 N1 O20 Zn3)n'
_symmetry_cell_setting           rhombohedral
_symmetry_space_group_name_H-M   'R -3 c'
_symmetry_Int_Tables_number      167
_space_group_name_Hall           '-R 3 2"c'
loop_
_symmetry_equiv_pos_site_id
_symmetry_equiv_pos_as_xyz
1 x,y,z
2 -y,x-y,z
3 -x+y,-x,z
4 x-y,-y,1/2-z
5 -x,-x+y,1/2-z
6 y,x,1/2-z
7 2/3+x,1/3+y,1/3+z
8 2/3-y,1/3+x-y,1/3+z
9 2/3-x+y,1/3-x,1/3+z
10 2/3+x-y,1/3-y,5/6-z
11 2/3-x,1/3-x+y,5/6-z
12 2/3+y,1/3+x,5/6-z
13 1/3+x,2/3+y,2/3+z
14 1/3-y,2/3+x-y,2/3+z
15 1/3-x+y,2/3-x,2/3+z
16 1/3+x-y,2/3-y,1/6-z
17 1/3-x,2/3-x+y,1/6-z
18 1/3+y,2/3+x,1/6-z
19 -x,-y,-z
20 y,-x+y,-z
21 x-y,x,-z
22 -x+y,y,1/2+z
23 x,x-y,1/2+z
24 -y,-x,1/2+z
25 1/3-x,2/3-y,2/3-z
26 1/3+y,2/3-x+y,2/3-z
27 1/3+x-y,2/3+x,2/3-z
28 1/3-x+y,2/3+y,1/6+z
29 1/3+x,2/3+x-y,1/6+z
30 1/3-y,2/3-x,1/6+z
31 2/3-x,1/3-y,1/3-z
32 2/3+y,1/3-x+y,1/3-z
33 2/3+x-y,1/3+x,1/3-z
34 2/3-x+y,1/3+y,5/6+z
35 2/3+x,1/3+x-y,5/6+z
36 2/3-y,1/3-x,5/6+z
_cell_length_a                   38.799(3)
_cell_length_b                   38.799(3)
_cell_length_c                   60.277(6)
_cell_angle_alpha                90
_cell_angle_beta                 90
_cell_angle_gamma                120
_cell_volume                     78582
loop_
_atom_site_label
_atom_site_type_symbol
_atom_site_fract_x
_atom_site_fract_y
_atom_site_fract_z
Zn1 Zn 0.168834(12) 0.840528(12) 0.025806(7)
O1 O 0.14754(13) 0.72641(13) -0.01921(8)
Zn2 Zn 0.197923(13) 0.782290(12) -0.003615(7)
O2 O 0.14625(17) 0.71083(16) -0.05431(9)
C1 C 0.13691(11) 0.83119(10) -0.04196(6)
O3 O 0.03018(12) 0.75025(10) -0.01179(6)
C2 C 0.11081(12) 0.84534(14) -0.04202(7)
H1 H 0.1045 0.8532 -0.0288
O4 O -0.07780(17) 0.63672(15) 0.05464(12)
C3 C 0.09387(13) 0.84787(17) -0.06161(8)
H2 H 0.0768 0.8581 -0.0617
O5 O -0.22153(11) 0.55190(9) 0.03211(5)
C4 C 0.10236(12) 0.83514(15) -0.08119(8)
H3 H 0.0906 0.8364 -0.0944
C5 C 0.12822(11) 0.82054(10) -0.08125(6)
C6 C 0.14570(10) 0.81827(9) -0.06172(6)
H4 H 0.1631 0.8083 -0.0618
C7 C 0.15577(11) 0.82804(10) -0.02078(6)
O6 O 0.17923(8) 0.81499(8) -0.02203(4)
C8 C 0.14694(9) 0.75295(9) -0.13686(6)
O7 O 0.14643(8) 0.83923(9) -0.00329(5)
C9 C 0.15487(10) 0.74725(9) -0.15899(6)
O8 O -0.00605(11) 0.82224(13) 0.08029(6)
C10 C 0.18459(10) 0.77940(10) -0.17114(6)
O9 O 0.07588(10) 0.87430(9) 0.15249(5)
C11 C 0.20417(10) 0.81686(10) -0.16159(6)
O10 O 0.02780(12) 0.86919(10) 0.17451(6)
C12 C 0.16320(10) 0.79581(11) -0.10300(6)
H5 H 0.1532 0.7708 -0.0951
H6 H 0.1882 0.8151 -0.0963
C13 C 0.21959(14) 0.86400(11) -0.12948(8)
H7 H 0.2127 0.8812 -0.1374
H8 H 0.2477 0.8740 -0.1307
H9 H 0.2125 0.8629 -0.1142
O11 O 0.13503(7) 0.80946(8) -0.10166(4)
C14 C 0.11359(13) 0.71904(11) -0.12385(7)
H10 H 0.1227 0.7017 -0.1183
H11 H 0.0911 0.7042 -0.1334
H12 H 0.1060 0.7297 -0.1117
O12 O 0.10375(8) 0.71047(8) -0.18447(5)
C15 C 0.19427(14) 0.77297(14) -0.19450(7)
H13 H 0.1796 0.7794 -0.2049
H14 H 0.1872 0.7456 -0.1964
H15 H 0.2223 0.7897 -0.1972
O13 O 0.27230(8) 0.86059(8) -0.17179(5)
C16 C 0.13129(11) 0.70720(10) -0.16968(6)
H16 H 0.1486 0.7004 -0.1779
H17 H 0.1171 0.6868 -0.1586
O14 O 0.44111(8) 0.97348(9) -0.19420(5)
O15 O 0.41949(7) 0.91703(7) -0.17484(5)
C17 C 0.19719(10) 0.82256(9) -0.13939(6)
O16 O 0.05091(10) 0.56091(9) -0.18737(6)
C18 C 0.04332(12) 0.60915(11) -0.20669(6)
O17 O 0.00468(10) 0.53901(8) -0.21173(5)
C19 C 0.07179(11) 0.64009(10) -0.19384(6)
H18 H 0.0869 0.6352 -0.1837
O18 O 0.16179(10) 0.88283(10) 0.03966(6)
C20 C 0.05444(17) 0.68511(14) -0.21098(9)
H19 H 0.0579 0.7105 -0.2123
C21 C 0.03347(11) 0.56782(11) -0.20196(6)
C22 C 0.23209(11) 0.85263(11) -0.17528(7)
H20 H 0.2252 0.8474 -0.1909
H21 H 0.2300 0.8755 -0.1709
C23 C 0.30203(11) 0.89342(10) -0.18230(6)
C24 C 0.34052(10) 0.90114(10) -0.17887(6)
H22 H 0.3452 0.8847 -0.1696
C25 C 0.37210(10) 0.93320(10) -0.18925(6)
C26 C 0.36508(12) 0.95829(12) -0.20263(6)
H23 H 0.3862 0.9799 -0.2096
C27 C 0.32727(12) 0.95110(12) -0.20552(7)
H24 H 0.3229 0.9684 -0.2142
C28 C 0.29509(12) 0.91840(12) -0.19587(7)
H25 H 0.2693 0.9132 -0.1984
C29 C 0.41399(11) 0.94134(11) -0.18560(6)
C30 C 0.04242(14) 0.87039(13) 0.15585(9)
C31 C 0.01699(14) 0.86613(14) 0.13615(8)
C32 C 0.01994(13) 0.84747(13) 0.11713(8)
H26 H 0.0387 0.8393 0.1162
C33 C -0.00562(15) 0.84125(16) 0.09964(9)
C34 C -0.03245(16) 0.85457(19) 0.10086(11)
H27 H -0.0488 0.8512 0.0888
C35 C -0.03520(17) 0.8728(2) 0.11954(12)
H28 H -0.0535 0.8816 0.1203
C36 C -0.01060(16) 0.87798(18) 0.13738(11)
H29 H -0.0129 0.8897 0.1503
C37 C 0.07766(13) 0.67801(11) -0.19626(7)
C38 C 0.01177(14) 0.79879(14) 0.08103(8)
H30 H 0.0405 0.8157 0.0806
H31 H 0.0048 0.7839 0.0948
C39 C -0.00192(13) 0.76980(12) 0.06138(8)
C40 C 0.02303(15) 0.77770(12) 0.04271(9)
C41 C 0.0604(2) 0.81823(16) 0.04031(12)
H32 H 0.0641 0.8261 0.0250
H33 H 0.0577 0.8375 0.0490
H34 H 0.0831 0.8168 0.0454
C42 C 0.01437(15) 0.74787(12) 0.02695(8)
C43 C -0.02052(15) 0.71079(13) 0.02868(8)
C44 C -0.0291(2) 0.6775(2) 0.01312(13)
H35 H -0.0050 0.6831 0.0056
H36 H -0.0391 0.6531 0.0213
H37 H -0.0486 0.6749 0.0024
C45 C -0.03877(13) 0.73446(12) 0.06227(8)
C46 C -0.0671(2) 0.72806(15) 0.08095(11)
H38 H -0.0785 0.7013 0.0863
H39 H -0.0530 0.7464 0.0928
H40 H -0.0879 0.7325 0.0757
C47 C -0.10590(18) 0.59774(16) 0.05185(10)
C48 C -0.0923(2) 0.5706(2) 0.05529(16)
H41 H -0.0657 0.5798 0.0586
C49 C -0.1178(3) 0.5317(3) 0.0538(2)
H42 H -0.1089 0.5140 0.0569
C50 C -0.1571(3) 0.5171(3) 0.04771(18)
H43 H -0.1740 0.4899 0.0458
C51 C -0.1706(2) 0.54332(18) 0.04450(11)
C52 C -0.1449(2) 0.58391(16) 0.04585(11)
H44 H -0.1538 0.6017 0.0427
C53 C 0.04482(18) 0.75105(14) 0.00999(8)
H45 H 0.0497 0.7290 0.0118
H46 H 0.0697 0.7756 0.0122
C54 C 0.04637(18) 0.73844(15) -0.02775(8)
C55 C 0.08013(16) 0.73441(14) -0.02530(7)
H47 H 0.0929 0.7402 -0.0116
C56 C 0.0764(3) 0.7125(3) -0.06219(11)
H48 H 0.0856 0.7031 -0.0736
C57 C 0.0433(4) 0.7165(3) -0.06539(10)
H49 H 0.0311 0.7105 -0.0792
C58 C 0.09529(19) 0.72208(17) -0.04261(7)
C59 C 0.0274(3) 0.7295(2) -0.04831(10)
H50 H 0.0050 0.7319 -0.0507
C60 C -0.04805(13) 0.70554(11) 0.04606(8)
C61 C 0.1322(2) 0.7192(2) -0.03825(11)
C62 C -0.08645(14) 0.66623(12) 0.04707(9)
H51 H -0.0986 0.6592 0.0325
H52 H -0.1049 0.6682 0.0571
C63 C 0.16950(10) 0.79019(10) -0.12697(6)
C64 C 0.02153(18) 0.61684(14) -0.22202(8)
H53 H 0.0036 0.5966 -0.2313
C65 C 0.0263(2) 0.65449(17) -0.22357(11)
H54 H 0.0105 0.6591 -0.2333
Zn3 Zn -0.28760(3) 0.517860(19) 0.036570(12)
O19 O -0.3398(3) 0.4811(4) 0.0541(2)
N1 N -0.3895(3) 0.4235(3) 0.06550(18)
C66 C -0.3549(4) 0.4438(3) 0.05796(18)
C67 C -0.4098(3) 0.4474(5) 0.0697(2)
H55 H -0.4294 0.4416 0.0583
H56 H -0.4226 0.4405 0.0839
H57 H -0.3905 0.4752 0.0694
C68 C -0.4081(4) 0.3824(3) 0.0724(2)
H58 H -0.3895 0.3783 0.0809
H59 H -0.4311 0.3759 0.0813
H60 H -0.4160 0.3656 0.0595
C69 C -0.3300(6) 0.4240(4) 0.0561(4)
H61 H -0.3193 0.4236 0.0704
H62 H -0.3462 0.3973 0.0508
H63 H -0.3085 0.4387 0.0458
C70 C -0.2132(4) 0.5286(3) 0.0401(3)
O20 O -0.2391(3) 0.49408(17) 0.04323(15)
Zn1J Zn 0.497833(12) 1.005027(17) -0.192473(7)
Zn1I Zn -0.005027(17) 0.492805(12) -0.192473(7)
O1S O -0.27359(13) 0.57887(18) 0.01921(8)
Zn2S Zn -0.217710(12) 0.584367(18) 0.003615(7)
Zn2Q Zn 0.115623(12) 0.864590(13) 0.170282(7)
Zn2J Zn 0.468744(13) 0.917700(18) -0.163052(7)
Zn2I Zn 0.082300(18) 0.551043(12) -0.163052(7)
O2S O -0.28917(16) 0.56458(23) 0.05431(9)
O5T O 0.22657(14) 0.77847(11) -0.03211(5)
O9Q O 0.20763(9) 0.74255(10) 0.01418(5)
O10HA O -0.30553(12) 0.49194(16) 0.00784(6)
O14J O 0.22556(8) 0.86570(12) 0.02753(5)
O15J O 0.24718(7) 0.83087(10) 0.00817(5)
O16I O 0.15667(13) 0.77242(9) 0.02070(6)
O17I O 0.13234(13) 0.79432(8) 0.04506(5)
Zn3T Zn 0.194540(36) 0.71240(3) -0.036570(12)
Zn3BA Zn 0.04573(3) 0.861207(36) 0.203237(12)
loop_
_geom_bond_atom_site_label_1
_geom_bond_atom_site_label_2
_geom_bond_site_symmetry_1
_geom_bond_site_symmetry_2
Zn1 O7 1_555 1_555
O1 Zn2 1_555 1_555
Zn2 O6 1_555 1_555
O2 C61 1_555 1_555
C1 C2 1_555 1_555
O3 C53 1_555 1_555
C2 H1 1_555 1_555
O4 C47 1_555 1_555
C3 C2 1_555 1_555
H2 C3 1_555 1_555
O5 Zn3 1_555 1_555
C4 C3 1_555 1_555
H3 C4 1_555 1_555
C5 C4 1_555 1_555
C6 C1 1_555 1_555
H4 C6 1_555 1_555
C7 C1 1_555 1_555
O6 C7 1_555 1_555
C8 C9 1_555 1_555
O7 C7 1_555 1_555
C9 C10 1_555 1_555
O8 C33 1_555 1_555
C10 C11 1_555 1_555
O9 C30 1_555 1_555
C11 C17 1_555 1_555
O10 C30 1_555 1_555
C12 H5 1_555 1_555
H6 C12 1_555 1_555
C13 H7 1_555 1_555
H8 C13 1_555 1_555
H9 C13 1_555 1_555
O11 C5 1_555 1_555
C14 C8 1_555 1_555
H10 C14 1_555 1_555
H11 C14 1_555 1_555
H12 C14 1_555 1_555
O12 C16 1_555 1_555
C15 C10 1_555 1_555
H13 C15 1_555 1_555
H14 C15 1_555 1_555
H15 C15 1_555 1_555
O13 C22 1_555 1_555
C16 C9 1_555 1_555
H16 C16 1_555 1_555
H17 C16 1_555 1_555
O14 C29 1_555 1_555
O15 C29 1_555 1_555
C17 C13 1_555 1_555
O16 C21 1_555 1_555
C18 C19 1_555 1_555
O17 C21 1_555 1_555
C19 H18 1_555 1_555
O18 Zn1 1_555 1_555
C20 H19 1_555 1_555
C21 C18 1_555 1_555
C22 C11 1_555 1_555
H20 C22 1_555 1_555
H21 C22 1_555 1_555
C23 O13 1_555 1_555
C24 C23 1_555 1_555
H22 C24 1_555 1_555
C25 C24 1_555 1_555
C26 C25 1_555 1_555
H23 C26 1_555 1_555
C27 C26 1_555 1_555
H24 C27 1_555 1_555
C28 C23 1_555 1_555
H25 C28 1_555 1_555
C29 C25 1_555 1_555
C30 C31 1_555 1_555
C31 C32 1_555 1_555
C32 H26 1_555 1_555
C33 C32 1_555 1_555
C34 C33 1_555 1_555
H27 C34 1_555 1_555
C35 C34 1_555 1_555
H28 C35 1_555 1_555
C36 C31 1_555 1_555
H29 C36 1_555 1_555
C37 O12 1_555 1_555
C38 O8 1_555 1_555
H30 C38 1_555 1_555
H31 C38 1_555 1_555
C39 C38 1_555 1_555
C40 C39 1_555 1_555
C41 C40 1_555 1_555
H32 C41 1_555 1_555
H33 C41 1_555 1_555
H34 C41 1_555 1_555
C42 C40 1_555 1_555
C43 C42 1_555 1_555
C44 C43 1_555 1_555
H35 C44 1_555 1_555
H36 C44 1_555 1_555
H37 C44 1_555 1_555
C45 C39 1_555 1_555
C46 C45 1_555 1_555
H38 C46 1_555 1_555
H39 C46 1_555 1_555
H40 C46 1_555 1_555
C47 C48 1_555 1_555
C48 H41 1_555 1_555
C49 C48 1_555 1_555
H42 C49 1_555 1_555
C50 C49 1_555 1_555
H43 C50 1_555 1_555
C51 C50 1_555 1_555
C52 C47 1_555 1_555
H44 C52 1_555 1_555
C53 C42 1_555 1_555
H45 C53 1_555 1_555
H46 C53 1_555 1_555
C54 O3 1_555 1_555
C55 C54 1_555 1_555
H47 C55 1_555 1_555
C56 H48 1_555 1_555
C57 C56 1_555 1_555
H49 C57 1_555 1_555
C58 C55 1_555 1_555
C59 C54 1_555 1_555
H50 C59 1_555 1_555
C60 C43 1_555 1_555
C61 O1 1_555 1_555
C62 O4 1_555 1_555
H51 C62 1_555 1_555
H52 C62 1_555 1_555
C63 C8 1_555 1_555
C64 C18 1_555 1_555
H53 C64 1_555 1_555
C65 C20 1_555 1_555
H54 C65 1_555 1_555
Zn3 O19 1_555 1_555
O19 C66 1_555 1_555
N1 C66 1_555 1_555
C66 C69 1_555 1_555
C67 N1 1_555 1_555
H55 C67 1_555 1_555
H56 C67 1_555 1_555
H57 C67 1_555 1_555
C68 N1 1_555 1_555
H58 C68 1_555 1_555
H59 C68 1_555 1_555
H60 C68 1_555 1_555
C69 H61 1_555 1_555
H62 C69 1_555 1_555
H63 C69 1_555 1_555
C70 O5 1_555 1_555
O20 C70 1_555 1_555
Zn1J O14 1_555 1_555
Zn1I O16 1_555 1_555
O1S Zn3 1_555 1_555
Zn2S O5 1_555 1_555
Zn2Q O9 1_555 1_555
Zn2J O15 1_555 1_555
Zn2I O16 1_555 1_555
O2S Zn3 1_555 1_555
O5T Zn2 1_555 1_555
O9Q Zn2 1_555 1_555
O10HA Zn3 1_555 1_555
O14J Zn1 1_555 1_555
O15J Zn2 1_555 1_555
O16I Zn1 1_555 1_555
O17I Zn1 1_555 1_555
Zn3T O1 1_555 1_555
Zn3BA O10 1_555 1_555
Zn2 O16I 1_555 1_555
O2 Zn3T 1_555 1_555
C5 C6 1_555 1_555
C12 O11 1_555 1_555
C12 C63 1_555 1_555
C17 C63 1_555 1_555
O17 Zn1I 1_555 1_555
C19 C37 1_555 1_555
C20 C37 1_555 1_555
C27 C28 1_555 1_555
C35 C36 1_555 1_555
C45 C60 1_555 1_555
C51 C52 1_555 1_555
C51 C70 1_555 1_555
C56 C58 1_555 1_555
C57 C59 1_555 1_555
C58 C61 1_555 1_555
C60 C62 1_555 1_555
C64 C65 1_555 1_555
O1S Zn2S 1_555 1_555
O5T Zn3T 1_555 1_555

#END
