
#######################################################################
#
#                 Cambridge Crystallographic Data Centre
#                                CCDC 
#
#######################################################################
#
# If this CIF has been generated from an entry in the Cambridge 
# Structural Database, then it will include bibliographic, chemical, 
# crystal, experimental, refinement or atomic coordinate data resulting 
# from the CCDC's data processing and validation procedures.
#
#######################################################################

data_KUVMEV
_chemical_formula_moiety         '(C104 H64 Ag4 N8 Si2 4+)n'
_symmetry_cell_setting           tetragonal
_symmetry_space_group_name_H-M   'I 41/a'
_symmetry_Int_Tables_number      88
_space_group_name_Hall           '-I 4ad'
loop_
_symmetry_equiv_pos_site_id
_symmetry_equiv_pos_as_xyz
1 x,y,z
2 1/2-x,-y,1/2+z
3 3/4-y,1/4+x,1/4+z
4 3/4+y,3/4-x,3/4+z
5 1/2+x,1/2+y,1/2+z
6 -x,1/2-y,z
7 1/4-y,3/4+x,3/4+z
8 1/4+y,1/4-x,1/4+z
9 -x,-y,-z
10 1/2+x,y,1/2-z
11 1/4+y,3/4-x,3/4-z
12 1/4-y,1/4+x,1/4-z
13 1/2-x,1/2-y,1/2-z
14 x,1/2+y,-z
15 3/4+y,1/4-x,1/4-z
16 3/4-y,3/4+x,3/4-z
_cell_length_a                   17.0103(19)
_cell_length_b                   17.0103(19)
_cell_length_c                   77.059(8)
_cell_angle_alpha                90
_cell_angle_beta                 90
_cell_angle_gamma                90
_cell_volume                     22297
loop_
_atom_site_label
_atom_site_type_symbol
_atom_site_fract_x
_atom_site_fract_y
_atom_site_fract_z
_atom_site_U_iso_or_equiv
_atom_site_thermal_displace_type
Si2 Si 0.0000 0.7500 0.25756(12) 0.0370 Uiso
Ag2 Ag 0.2186(2) 0.20729(17) 0.13686(4) 0.1250 Uani
C27 C 0.0446(15) 0.6635(11) 0.2431(3) 0.0710 Uiso
C28 C -0.0061(13) 0.6428(14) 0.2297(3) 0.1540 Uiso
H17 H -0.0541 0.6704 0.2282 0.1850 Uiso
C29 C 0.0136(12) 0.5817(15) 0.2185(3) 0.1480 Uiso
H18 H -0.0210 0.5675 0.2094 0.1780 Uiso
C30 C 0.0839(12) 0.5413(11) 0.2208(3) 0.0730 Uiso
C31 C 0.1345(12) 0.5620(15) 0.2342(3) 0.1510 Uiso
H19 H 0.1826 0.5343 0.2357 0.1810 Uiso
C32 C 0.1149(15) 0.6231(15) 0.2454(3) 0.1940 Uiso
H20 H 0.1495 0.6372 0.2545 0.2330 Uiso
C33 C 0.1051(14) 0.4813(13) 0.2089(3) 0.0580 Uiso
N3 N 0.1843(12) 0.2828(7) 0.15720(18) 0.1210 Uiso
C34 C 0.2407(10) 0.3141(12) 0.1683(3) 0.1270 Uiso
H21 H 0.2949 0.3046 0.1661 0.1520 Uiso
C35 C 0.2179(12) 0.3594(13) 0.1824(3) 0.1460 Uiso
H22 H 0.2565 0.3808 0.1900 0.1750 Uiso
C36 C 0.1386(13) 0.3733(9) 0.1855(2) 0.1020 Uiso
C37 C 0.0821(10) 0.3420(12) 0.1744(3) 0.1250 Uiso
H23 H 0.0280 0.3515 0.1766 0.1510 Uiso
C38 C 0.1050(11) 0.2968(12) 0.1603(2) 0.1220 Uiso
H24 H 0.0664 0.2754 0.1527 0.1460 Uiso
C39 C 0.1164(15) 0.4261(13) 0.1995(3) 0.0660 Uiso
C40 C -0.0784(10) 0.7098(11) 0.2721(2) 0.0490 Uiso
C41 C -0.0521(7) 0.6588(12) 0.2849(2) 0.1060 Uiso
H25 H 0.0015 0.6432 0.2852 0.1280 Uiso
C42 C -0.1042(9) 0.6307(10) 0.2974(2) 0.0710 Uiso
H26 H -0.0862 0.5958 0.3061 0.0850 Uiso
C43 C -0.1826(8) 0.6536(10) 0.29695(19) 0.0450 Uiso
C44 C -0.2089(8) 0.7046(11) 0.2841(2) 0.0790 Uiso
H27 H -0.2625 0.7202 0.2838 0.0950 Uiso
C45 C -0.1569(11) 0.7327(10) 0.2717(2) 0.0940 Uiso
H28 H -0.1749 0.7676 0.2629 0.1130 Uiso
C46 C -0.2347(13) 0.6176(14) 0.3090(3) 0.0590 Uiso
N4 N -0.3977(14) 0.5120(15) 0.3647(3) 0.1630 Uiso
C47 C -0.3581(17) 0.4604(12) 0.3538(3) 0.2400 Uiso
H29 H -0.3612 0.4054 0.3557 0.2820 Uiso
C48 C -0.3140(16) 0.4895(14) 0.3400(3) 0.2100 Uiso
H30 H -0.2870 0.4543 0.3326 0.2540 Uiso
C49 C -0.3095(14) 0.5701(15) 0.3372(3) 0.1220 Uiso
C50 C -0.3490(17) 0.6216(12) 0.3482(3) 0.2100 Uiso
H31 H -0.3459 0.6767 0.3462 0.2460 Uiso
C51 C -0.3932(16) 0.5925(14) 0.3619(3) 0.2200 Uiso
H32 H -0.4202 0.6278 0.3694 0.2610 Uiso
C52 C -0.2635(16) 0.6008(16) 0.3228(3) 0.0780 Uiso
C27E C -0.0446(15) 0.8365(11) 0.2431(3) 0.0710 Uiso
C28E C 0.0061(13) 0.8572(14) 0.2297(3) 0.1540 Uiso
H17E H 0.0541 0.8296 0.2282 0.1850 Uiso
C29E C -0.0136(12) 0.9183(15) 0.2185(3) 0.1480 Uiso
H18E H 0.0210 0.9325 0.2094 0.1780 Uiso
C30E C -0.0839(12) 0.9587(11) 0.2208(3) 0.0730 Uiso
C31E C -0.1345(12) 0.9380(15) 0.2342(3) 0.1510 Uiso
H19E H -0.1826 0.9657 0.2357 0.1810 Uiso
C32E C -0.1149(15) 0.8769(15) 0.2454(3) 0.1940 Uiso
H20E H -0.1495 0.8628 0.2545 0.2330 Uiso
C33E C -0.1051(14) 1.0187(13) 0.2089(3) 0.0580 Uiso
N3E N -0.1843(12) 1.2172(7) 0.15720(18) 0.1210 Uiso
C34E C -0.2407(10) 1.1859(12) 0.1683(3) 0.1270 Uiso
H21E H -0.2949 1.1954 0.1661 0.1520 Uiso
C35E C -0.2179(12) 1.1406(13) 0.1824(3) 0.1460 Uiso
H22E H -0.2565 1.1192 0.1900 0.1750 Uiso
C36E C -0.1386(13) 1.1267(9) 0.1855(2) 0.1020 Uiso
C37E C -0.0821(10) 1.1580(12) 0.1744(3) 0.1250 Uiso
H23E H -0.0280 1.1485 0.1766 0.1510 Uiso
C38E C -0.1050(11) 1.2032(12) 0.1603(2) 0.1220 Uiso
H24E H -0.0664 1.2246 0.1527 0.1460 Uiso
C39E C -0.1164(15) 1.0739(13) 0.1995(3) 0.0660 Uiso
C40E C 0.0784(10) 0.7902(11) 0.2721(2) 0.0490 Uiso
C41E C 0.0521(7) 0.8412(12) 0.2849(2) 0.1060 Uiso
H25E H -0.0015 0.8568 0.2852 0.1280 Uiso
C42E C 0.1042(9) 0.8693(10) 0.2974(2) 0.0710 Uiso
H26E H 0.0862 0.9042 0.3061 0.0850 Uiso
C43E C 0.1826(8) 0.8464(10) 0.29695(19) 0.0450 Uiso
C44E C 0.2089(8) 0.7954(11) 0.2841(2) 0.0790 Uiso
H27E H 0.2625 0.7798 0.2838 0.0950 Uiso
C45E C 0.1569(11) 0.7673(10) 0.2717(2) 0.0940 Uiso
H28E H 0.1749 0.7324 0.2629 0.1130 Uiso
C46E C 0.2347(13) 0.8824(14) 0.3090(3) 0.0590 Uiso
N4E N 0.3977(14) 0.9880(15) 0.3647(3) 0.1630 Uiso
C47E C 0.3581(17) 1.0396(12) 0.3538(3) 0.2400 Uiso
H29E H 0.3612 1.0946 0.3557 0.2820 Uiso
C48E C 0.3140(16) 1.0105(14) 0.3400(3) 0.2100 Uiso
H30E H 0.2870 1.0457 0.3326 0.2540 Uiso
C49E C 0.3095(14) 0.9299(15) 0.3372(3) 0.1220 Uiso
C50E C 0.3490(17) 0.8784(12) 0.3482(3) 0.2100 Uiso
H31E H 0.3459 0.8233 0.3462 0.2460 Uiso
C51E C 0.3932(16) 0.9075(14) 0.3619(3) 0.2200 Uiso
H32E H 0.4202 0.8722 0.3694 0.2610 Uiso
C52E C 0.2635(16) 0.8992(16) 0.3228(3) 0.0780 Uiso
Ag2E Ag -0.2186(2) 1.29271(17) 0.13686(4) 0.1250 Uani
Ag2B Ag -0.45729(17) 0.4686(2) 0.38686(4) 0.1250 Uani
Ag2G Ag 0.45729(17) 1.0314(2) 0.38686(4) 0.1250 Uani
N4C N 0.2620(15) 0.1477(14) 0.1147(3) 0.1630 Uiso
N4F N -0.2620(15) 1.3523(14) 0.1147(3) 0.1630 Uiso
Si1 Si -0.0000 0.2500 0.00744(13) 0.0440 Uiso
Ag1 Ag 0.2808(2) 0.70743(17) 0.13737(4) 0.1190 Uani
C1 C 0.0364(11) 0.3346(10) 0.0214(2) 0.0480 Uiso
C2 C 0.0982(11) 0.3101(8) 0.0318(2) 0.0930 Uiso
H1 H 0.1197 0.2590 0.0305 0.1110 Uiso
C3 C 0.1287(10) 0.3606(10) 0.0444(2) 0.0630 Uiso
H2 H 0.1709 0.3438 0.0515 0.0760 Uiso
C4 C 0.0973(12) 0.4354(10) 0.0464(2) 0.1030 Uiso
C5 C 0.0354(12) 0.4599(9) 0.0359(3) 0.0940 Uiso
H3 H 0.0140 0.5111 0.0373 0.1120 Uiso
C6 C 0.0050(10) 0.4095(11) 0.0234(2) 0.1180 Uiso
H4 H -0.0373 0.4262 0.0162 0.1420 Uiso
C7 C 0.1287(17) 0.4889(15) 0.0588(3) 0.0840 Uiso
N1 N 0.2402(8) 0.6420(7) 0.11544(14) 0.0670 Uiso
C8 C 0.1715(9) 0.6656(8) 0.1072(2) 0.0620 Uiso
H5 H 0.1441 0.7109 0.1111 0.0740 Uiso
C9 C 0.1428(8) 0.6230(10) 0.0932(2) 0.1000 Uiso
H6 H 0.0959 0.6391 0.0875 0.1200 Uiso
C10 C 0.1829(9) 0.5567(9) 0.08739(16) 0.0740 Uiso
C11 C 0.2516(9) 0.5331(8) 0.0957(2) 0.0690 Uiso
H7 H 0.2789 0.4878 0.0917 0.0830 Uiso
C12 C 0.2802(8) 0.5757(9) 0.10968(19) 0.0640 Uiso
H8 H 0.3271 0.5596 0.1153 0.0770 Uiso
C13 C 0.1551(16) 0.5128(15) 0.0726(3) 0.0830 Uiso
C14 C -0.0772(10) 0.2854(11) -0.0085(2) 0.0550 Uiso
C15 C -0.1377(12) 0.2325(9) -0.0118(3) 0.1110 Uiso
H9 H -0.1371 0.1819 -0.0066 0.1340 Uiso
C16 C -0.1991(11) 0.2538(10) -0.0228(3) 0.1220 Uiso
H10 H -0.2404 0.2177 -0.0250 0.1470 Uiso
C17 C -0.2000(10) 0.3279(11) -0.0303(3) 0.0700 Uiso
C18 C -0.1395(11) 0.3808(9) -0.0270(3) 0.1110 Uiso
H11 H -0.1402 0.4314 -0.0322 0.1330 Uiso
C19 C -0.0782(10) 0.3595(10) -0.0161(3) 0.0770 Uiso
H12 H -0.0368 0.3956 -0.0138 0.0920 Uiso
C20 C -0.2619(12) 0.3499(13) -0.0419(3) 0.0440 Uiso
N2 N -0.4727(10) 0.4342(12) -0.0912(2) 0.0800 Uiso
C21 C -0.4852(12) 0.3633(12) -0.0827(3) 0.1620 Uiso
H13 H -0.5281 0.3307 -0.0859 0.1950 Uiso
C22 C -0.4348(14) 0.3400(13) -0.0695(3) 0.2000 Uiso
H14 H -0.4433 0.2915 -0.0636 0.2410 Uiso
C23 C -0.3720(13) 0.3877(15) -0.0647(3) 0.1470 Uiso
C24 C -0.3595(13) 0.4586(15) -0.0733(3) 0.2200 Uiso
H15 H -0.3166 0.4912 -0.0700 0.2700 Uiso
C25 C -0.4099(13) 0.4819(12) -0.0865(3) 0.1690 Uiso
H16 H -0.4014 0.5304 -0.0923 0.2020 Uiso
C26 C -0.3189(14) 0.3648(16) -0.0507(3) 0.0760 Uiso
C1E C -0.0364(11) 0.1654(10) 0.0214(2) 0.0480 Uiso
C2E C -0.0982(11) 0.1899(8) 0.0318(2) 0.0930 Uiso
H1E H -0.1197 0.2410 0.0305 0.1110 Uiso
C3E C -0.1287(10) 0.1394(10) 0.0444(2) 0.0630 Uiso
H2E H -0.1709 0.1562 0.0515 0.0760 Uiso
C4E C -0.0973(12) 0.0646(10) 0.0464(2) 0.1030 Uiso
C5E C -0.0354(12) 0.0401(9) 0.0359(3) 0.0940 Uiso
H3E H -0.0140 -0.0111 0.0373 0.1120 Uiso
C6E C -0.0050(10) 0.0905(11) 0.0234(2) 0.1180 Uiso
H4E H 0.0373 0.0738 0.0162 0.1420 Uiso
C7E C -0.1287(17) 0.0111(15) 0.0588(3) 0.0840 Uiso
N1E N -0.2402(8) -0.1420(7) 0.11544(14) 0.0670 Uiso
C8E C -0.1715(9) -0.1656(8) 0.1072(2) 0.0620 Uiso
H5E H -0.1441 -0.2109 0.1111 0.0740 Uiso
C9E C -0.1428(8) -0.1230(10) 0.0932(2) 0.1000 Uiso
H6E H -0.0959 -0.1391 0.0875 0.1200 Uiso
C10E C -0.1829(9) -0.0567(9) 0.08739(16) 0.0740 Uiso
C11E C -0.2516(9) -0.0331(8) 0.0957(2) 0.0690 Uiso
H7E H -0.2789 0.0122 0.0917 0.0830 Uiso
C12E C -0.2802(8) -0.0757(9) 0.10968(19) 0.0640 Uiso
H8E H -0.3271 -0.0596 0.1153 0.0770 Uiso
C13E C -0.1551(16) -0.0128(15) 0.0726(3) 0.0830 Uiso
C14E C 0.0772(10) 0.2146(11) -0.0085(2) 0.0550 Uiso
C15E C 0.1377(12) 0.2675(9) -0.0118(3) 0.1110 Uiso
H9E H 0.1371 0.3181 -0.0066 0.1340 Uiso
C16E C 0.1991(11) 0.2462(10) -0.0228(3) 0.1220 Uiso
H10E H 0.2404 0.2823 -0.0250 0.1470 Uiso
C17E C 0.2000(10) 0.1721(11) -0.0303(3) 0.0700 Uiso
C18E C 0.1395(11) 0.1192(9) -0.0270(3) 0.1110 Uiso
H11E H 0.1402 0.0686 -0.0322 0.1330 Uiso
C19E C 0.0782(10) 0.1405(10) -0.0161(3) 0.0770 Uiso
H12E H 0.0368 0.1044 -0.0138 0.0920 Uiso
C20E C 0.2619(12) 0.1501(13) -0.0419(3) 0.0440 Uiso
N2E N 0.4727(10) 0.0658(12) -0.0912(2) 0.0800 Uiso
C21E C 0.4852(12) 0.1367(12) -0.0827(3) 0.1620 Uiso
H13E H 0.5281 0.1693 -0.0859 0.1950 Uiso
C22E C 0.4348(14) 0.1600(13) -0.0695(3) 0.2000 Uiso
H14E H 0.4433 0.2085 -0.0636 0.2410 Uiso
C23E C 0.3720(13) 0.1123(15) -0.0647(3) 0.1470 Uiso
C24E C 0.3595(13) 0.0414(15) -0.0733(3) 0.2200 Uiso
H15E H 0.3166 0.0088 -0.0700 0.2700 Uiso
C25E C 0.4099(13) 0.0181(12) -0.0865(3) 0.1690 Uiso
H16E H 0.4014 -0.0304 -0.0923 0.2020 Uiso
C26E C 0.3189(14) 0.1352(16) -0.0507(3) 0.0760 Uiso
Ag1E Ag -0.2808(2) -0.20743(17) 0.13737(4) 0.1190 Uani
Ag1C Ag -0.54257(17) 0.4692(2) -0.11263(4) 0.1190 Uani
Ag1F Ag 0.54257(17) 0.0308(2) -0.11263(4) 0.1190 Uani
N2B N 0.3158(12) 0.7773(10) 0.1588(2) 0.0800 Uiso
N2G N -0.3158(12) -0.2773(10) 0.1588(2) 0.0800 Uiso
loop_
_atom_site_aniso_label
_atom_site_aniso_U_11
_atom_site_aniso_U_22
_atom_site_aniso_U_33
_atom_site_aniso_U_23
_atom_site_aniso_U_13
_atom_site_aniso_U_12
Ag2 0.198(4) 0.082(2) 0.095(2) -0.0267(16) 0.060(2) 0.054(2)
Ag2E 0.198 0.082 0.095 0.0267 -0.06 0.054
Ag2B 0.082 0.198 0.095 0.06 0.0267 -0.054
Ag2G 0.082 0.198 0.095 -0.06 -0.0267 -0.054
Ag1 0.193(4) 0.091(2) 0.073(2) -0.0356(16) -0.042(2) -0.052(2)
Ag1E 0.193 0.091 0.073 0.0356 0.042 -0.052
Ag1C 0.091 0.193 0.073 0.042 -0.0356 0.052
Ag1F 0.091 0.193 0.073 -0.042 0.0356 0.052
loop_
_geom_bond_atom_site_label_1
_geom_bond_atom_site_label_2
_geom_bond_site_symmetry_1
_geom_bond_site_symmetry_2
Si1 C1 1_555 1_555
Ag1 N1 1_555 1_555
C1 C2 1_555 1_555
C2 H1 1_555 1_555
C3 C2 1_555 1_555
H2 C3 1_555 1_555
C4 C3 1_555 1_555
C5 C4 1_555 1_555
H3 C5 1_555 1_555
C6 C1 1_555 1_555
H4 C6 1_555 1_555
C7 C4 1_555 1_555
N1 C8 1_555 1_555
C8 H5 1_555 1_555
C9 C8 1_555 1_555
H6 C9 1_555 1_555
C10 C9 1_555 1_555
C11 C10 1_555 1_555
H7 C11 1_555 1_555
C12 N1 1_555 1_555
H8 C12 1_555 1_555
C13 C7 1_555 1_555
C14 Si1 1_555 1_555
C15 C14 1_555 1_555
H9 C15 1_555 1_555
C16 C15 1_555 1_555
H10 C16 1_555 1_555
C17 C16 1_555 1_555
C18 C17 1_555 1_555
H11 C18 1_555 1_555
C19 C14 1_555 1_555
H12 C19 1_555 1_555
C20 C17 1_555 1_555
N2 C21 1_555 1_555
C21 H13 1_555 1_555
C22 C21 1_555 1_555
H14 C22 1_555 1_555
C23 C22 1_555 1_555
C24 C23 1_555 1_555
H15 C24 1_555 1_555
C25 N2 1_555 1_555
H16 C25 1_555 1_555
C26 C20 1_555 1_555
Si2 C27 1_555 1_555
Ag2 N3 1_555 1_555
C27 C28 1_555 1_555
C28 H17 1_555 1_555
C29 C28 1_555 1_555
H18 C29 1_555 1_555
C30 C29 1_555 1_555
C31 C30 1_555 1_555
H19 C31 1_555 1_555
C32 C27 1_555 1_555
H20 C32 1_555 1_555
C33 C30 1_555 1_555
N3 C34 1_555 1_555
C34 H21 1_555 1_555
C35 C34 1_555 1_555
H22 C35 1_555 1_555
C36 C35 1_555 1_555
C37 C36 1_555 1_555
H23 C37 1_555 1_555
C38 N3 1_555 1_555
H24 C38 1_555 1_555
C39 C33 1_555 1_555
C40 Si2 1_555 1_555
C41 C40 1_555 1_555
H25 C41 1_555 1_555
C42 C41 1_555 1_555
H26 C42 1_555 1_555
C43 C42 1_555 1_555
C44 C43 1_555 1_555
H27 C44 1_555 1_555
C45 C40 1_555 1_555
H28 C45 1_555 1_555
C46 C43 1_555 1_555
N4 C47 1_555 1_555
C47 H29 1_555 1_555
C48 C47 1_555 1_555
H30 C48 1_555 1_555
C49 C48 1_555 1_555
C50 C49 1_555 1_555
H31 C50 1_555 1_555
C51 N4 1_555 1_555
H32 C51 1_555 1_555
C52 C46 1_555 1_555
C1E Si1 1_555 1_555
C2E C1E 1_555 1_555
H1E C2E 1_555 1_555
C3E C2E 1_555 1_555
H2E C3E 1_555 1_555
C4E C3E 1_555 1_555
C5E C4E 1_555 1_555
H3E C5E 1_555 1_555
C6E C1E 1_555 1_555
H4E C6E 1_555 1_555
C7E C4E 1_555 1_555
N1E C8E 1_555 1_555
C8E H5E 1_555 1_555
C9E C8E 1_555 1_555
H6E C9E 1_555 1_555
C10E C9E 1_555 1_555
C11E C10E 1_555 1_555
H7E C11E 1_555 1_555
C12E N1E 1_555 1_555
H8E C12E 1_555 1_555
C13E C7E 1_555 1_555
C14E Si1 1_555 1_555
C15E C14E 1_555 1_555
H9E C15E 1_555 1_555
C16E C15E 1_555 1_555
H10E C16E 1_555 1_555
C17E C16E 1_555 1_555
C18E C17E 1_555 1_555
H11E C18E 1_555 1_555
C19E C14E 1_555 1_555
H12E C19E 1_555 1_555
C20E C17E 1_555 1_555
N2E C21E 1_555 1_555
C21E H13E 1_555 1_555
C22E C21E 1_555 1_555
H14E C22E 1_555 1_555
C23E C22E 1_555 1_555
C24E C23E 1_555 1_555
H15E C24E 1_555 1_555
C25E N2E 1_555 1_555
H16E C25E 1_555 1_555
C26E C20E 1_555 1_555
Ag1E N1E 1_555 1_555
Ag1C N2 1_555 1_555
Ag1F N2E 1_555 1_555
N2B Ag1 1_555 1_555
N2G Ag1E 1_555 1_555
C27E Si2 1_555 1_555
C28E C27E 1_555 1_555
H17E C28E 1_555 1_555
C29E C28E 1_555 1_555
H18E C29E 1_555 1_555
C30E C29E 1_555 1_555
C31E C30E 1_555 1_555
H19E C31E 1_555 1_555
C32E C27E 1_555 1_555
H20E C32E 1_555 1_555
C33E C30E 1_555 1_555
N3E C34E 1_555 1_555
C34E H21E 1_555 1_555
C35E C34E 1_555 1_555
H22E C35E 1_555 1_555
C36E C35E 1_555 1_555
C37E C36E 1_555 1_555
H23E C37E 1_555 1_555
C38E N3E 1_555 1_555
H24E C38E 1_555 1_555
C39E C33E 1_555 1_555
C40E Si2 1_555 1_555
C41E C40E 1_555 1_555
H25E C41E 1_555 1_555
C42E C41E 1_555 1_555
H26E C42E 1_555 1_555
C43E C42E 1_555 1_555
C44E C43E 1_555 1_555
H27E C44E 1_555 1_555
C45E C40E 1_555 1_555
H28E C45E 1_555 1_555
C46E C43E 1_555 1_555
N4E C47E 1_555 1_555
C47E H29E 1_555 1_555
C48E C47E 1_555 1_555
H30E C48E 1_555 1_555
C49E C48E 1_555 1_555
C50E C49E 1_555 1_555
H31E C50E 1_555 1_555
C51E N4E 1_555 1_555
H32E C51E 1_555 1_555
C52E C46E 1_555 1_555
Ag2E N3E 1_555 1_555
Ag2B N4 1_555 1_555
Ag2G N4E 1_555 1_555
N4C Ag2 1_555 1_555
N4F Ag2E 1_555 1_555
C5 C6 1_555 1_555
C10 C13 1_555 1_555
C11 C12 1_555 1_555
C18 C19 1_555 1_555
C23 C26 1_555 1_555
C24 C25 1_555 1_555
C31 C32 1_555 1_555
C36 C39 1_555 1_555
C37 C38 1_555 1_555
C44 C45 1_555 1_555
C49 C52 1_555 1_555
C50 C51 1_555 1_555
C5E C6E 1_555 1_555
C10E C13E 1_555 1_555
C11E C12E 1_555 1_555
C18E C19E 1_555 1_555
C23E C26E 1_555 1_555
C24E C25E 1_555 1_555
C31E C32E 1_555 1_555
C36E C39E 1_555 1_555
C37E C38E 1_555 1_555
C44E C45E 1_555 1_555
C49E C52E 1_555 1_555
C50E C51E 1_555 1_555

#END
