
#######################################################################
#
#                 Cambridge Crystallographic Data Centre
#                                CCDC 
#
#######################################################################
#
# If this CIF has been generated from an entry in the Cambridge 
# Structural Database, then it will include bibliographic, chemical, 
# crystal, experimental, refinement or atomic coordinate data resulting 
# from the CCDC's data processing and validation procedures.
#
#######################################################################

data_EKEXUP
_chemical_formula_moiety         'C42 H24 N6 O14 Zn7'
_symmetry_cell_setting           orthorhombic
_symmetry_space_group_name_H-M   'C m c m'
_symmetry_Int_Tables_number      63
_space_group_name_Hall           '-C 2c 2'
loop_
_symmetry_equiv_pos_site_id
_symmetry_equiv_pos_as_xyz
1 x,y,z
2 -x,-y,1/2+z
3 -x,y,1/2-z
4 x,-y,-z
5 1/2+x,1/2+y,z
6 1/2-x,1/2-y,1/2+z
7 1/2-x,1/2+y,1/2-z
8 1/2+x,1/2-y,-z
9 -x,-y,-z
10 x,y,1/2-z
11 x,-y,1/2+z
12 -x,y,z
13 1/2-x,1/2-y,-z
14 1/2+x,1/2+y,1/2-z
15 1/2+x,1/2-y,1/2+z
16 1/2-x,1/2+y,z
_cell_length_a                   17.0192(12)
_cell_length_b                   27.7960(17)
_cell_length_c                   9.3238(4)
_cell_angle_alpha                90
_cell_angle_beta                 90
_cell_angle_gamma                90
_cell_volume                     4410.77
loop_
_atom_site_label
_atom_site_type_symbol
_atom_site_fract_x
_atom_site_fract_y
_atom_site_fract_z
Zn1 Zn 1.0000 -0.20193(3) 1.07156(7)
C1 C 1.0000 -0.1992(3) 0.7500
C2 C 0.5000 -0.0968(3) 1.2500
C3 C 0.5000 0.0025(3) 1.2500
C4 C 0.5000 0.0813(3) 1.1232(7)
H1 H 0.5000 0.0649 1.0363
C5 C 0.5707(4) -0.0725(2) 1.2500
C6 C 0.5000 0.0558(3) 1.2500
C7 C 0.5000 0.2096(3) 1.2500
C8 C 0.5716(3) -0.0231(2) 1.2500
O1 O 0.5124(13) 0.23010(18) 1.1344(5)
C9 C 0.5000 0.1564(3) 1.2500
C10 C 0.6466(4) -0.0981(2) 1.2500
C11 C 0.7927(4) -0.1444(2) 1.2500
C12 C 0.8712(5) -0.1678(3) 1.2500
C13 C 0.5000 0.1304(2) 1.1235(7)
H2 H 0.5000 0.1468 1.0365
O2 O 0.9031(3) -0.1754(2) 1.1318(5)
N1 N 1.0000 -0.2109(4) 0.8701(8)
C14 C 0.6997(6) -0.0921(4) 1.1296(11)
H3 H 0.6860 -0.0717 1.0546
C15 C 0.7698(7) -0.1162(5) 1.1255(11)
H4 H 0.8020 -0.1146 1.0451
C16 C 0.7395(7) -0.1538(4) 1.1595(12)
N2 N 0.6415(9) 0.0046(5) 1.2500
N3 N 0.5000 -0.1371(14) 1.2500
C17 C 0.9419(12) -0.1484(6) 0.7500
C18 C 0.9321(11) -0.2533(6) 0.8218(16)
H5 H 0.9016 -0.2722 0.8824
C19 C 0.6722(7) -0.1300(4) 1.1547(13)
H6 H 0.6395 -0.1362 1.0768
H7 H 0.723(5) -0.169(3) 1.050(5)
N1B N 1.0000 -0.2109(4) 0.6299(8)
C17B C 1.0581(12) -0.1484(6) 0.7500
C18B C 1.0679(11) -0.2533(6) 0.6782(16)
H5B H 1.0984 -0.2722 0.6176
C18I C 0.9321(11) -0.2533(6) 0.6782(16)
H5I H 0.9016 -0.2722 0.6176
C18K C 1.0679(11) -0.2533(6) 0.8218(16)
H5K H 1.0984 -0.2722 0.8824
C4B C 0.5000 0.0813(3) 1.3768(7)
H1B H 0.5000 0.0649 1.4637
C5B C 0.4293(4) -0.0725(2) 1.2500
C8B C 0.4284(3) -0.0231(2) 1.2500
O1B O 0.4876(13) 0.23010(18) 1.3656(5)
C10B C 0.3534(4) -0.0981(2) 1.2500
C11B C 0.2073(4) -0.1444(2) 1.2500
C12B C 0.1288(5) -0.1678(3) 1.2500
C13B C 0.5000 0.1304(2) 1.3765(7)
H2B H 0.5000 0.1468 1.4635
O2B O 0.0969(3) -0.1754(2) 1.3682(5)
C14B C 0.3003(6) -0.0921(4) 1.3704(11)
H3B H 0.3140 -0.0717 1.4454
C15B C 0.2302(7) -0.1162(5) 1.3745(11)
H4B H 0.1980 -0.1146 1.4549
C16B C 0.2605(7) -0.1538(4) 1.3405(12)
N2B N 0.3585(9) 0.0046(5) 1.2500
C19B C 0.3278(7) -0.1300(4) 1.3453(13)
H6B H 0.3605 -0.1362 1.4232
H7B H 0.277(5) -0.169(3) 1.450(5)
O1I O 0.5124(13) 0.23010(18) 1.3656(5)
O2I O 0.9031(3) -0.1754(2) 1.3682(5)
C14I C 0.6997(6) -0.0921(4) 1.3704(11)
H3I H 0.6860 -0.0717 1.4454
C15I C 0.7698(7) -0.1162(5) 1.3745(11)
H4I H 0.8020 -0.1146 1.4549
C16I C 0.7395(7) -0.1538(4) 1.3405(12)
C19I C 0.6722(7) -0.1300(4) 1.3453(13)
H6I H 0.6395 -0.1362 1.4232
H7I H 0.723(5) -0.169(3) 1.450(5)
O1K O 0.4876(13) 0.23010(18) 1.1344(5)
O2K O 0.0969(3) -0.1754(2) 1.1318(5)
C14K C 0.3003(6) -0.0921(4) 1.1296(11)
H3K H 0.3140 -0.0717 1.0546
C15K C 0.2302(7) -0.1162(5) 1.1255(11)
H4K H 0.1980 -0.1146 1.0451
C16K C 0.2605(7) -0.1538(4) 1.1595(12)
C19K C 0.3278(7) -0.1300(4) 1.1547(13)
H6K H 0.3605 -0.1362 1.0768
H7K H 0.277(5) -0.169(3) 1.050(5)
Zn1B Zn 1.0000 -0.20193(3) 1.42844(7)
Zn1_2 Zn 0.0000 -0.20193(3) 1.07156(7)
Zn1B_2 Zn -0.0000 -0.20193(3) 1.42844(7)
Zn1B_3 Zn 1.0000 -0.20193(3) 0.42844(7)
Zn1D Zn 0.5000 0.29807(3) 1.07156(7)
Zn1F Zn 0.5000 0.29807(3) 1.42844(7)
O1D O 1.0124(13) -0.26990(18) 1.1344(5)
O1F O 0.9876(13) -0.26990(18) 1.3656(5)
O1M O 1.0124(13) -0.26990(18) 1.3656(5)
O1O O 0.9876(13) -0.26990(18) 1.1344(5)
O2B_2 O 1.0969(3) -0.1754(2) 1.3682(5)
O2K_2 O 1.0969(3) -0.1754(2) 1.1318(5)
N1B_2 N 1.0000 -0.2109(4) 1.6299(8)
loop_
_geom_bond_atom_site_label_1
_geom_bond_atom_site_label_2
_geom_bond_site_symmetry_1
_geom_bond_site_symmetry_2
Zn1 O2 1_555 1_555
C1 N1 1_555 1_555
C2 C5 1_555 1_555
C3 C6 1_555 1_555
C4 H1 1_555 1_555
C5 C8 1_555 1_555
C6 C4 1_555 1_555
C7 O1 1_555 1_555
C8 C3 1_555 1_555
O1 Zn1D 1_555 1_555
C9 C7 1_555 1_555
C10 C5 1_555 1_555
C11 C12 1_555 1_555
C12 O2 1_555 1_555
C13 C4 1_555 1_555
H2 C13 1_555 1_555
N1 Zn1 1_555 1_555
C14 C10 1_555 1_555
H3 C14 1_555 1_555
C15 C11 1_555 1_555
H4 C15 1_555 1_555
C16 C11 1_555 1_555
N2 C8 1_555 1_555
N3 C2 1_555 1_555
C17 C1 1_555 1_555
C18 N1 1_555 1_555
H5 C18 1_555 1_555
C19 C10 1_555 1_555
H6 C19 1_555 1_555
H7 C16 1_555 1_555
N1B C1 1_555 1_555
C17B C1 1_555 1_555
C18B N1B 1_555 1_555
H5B C18B 1_555 1_555
C18I C18 1_555 1_555
H5I C18I 1_555 1_555
C18K N1 1_555 1_555
H5K C18K 1_555 1_555
C4B C6 1_555 1_555
H1B C4B 1_555 1_555
C5B C2 1_555 1_555
C8B C3 1_555 1_555
O1B C7 1_555 1_555
C10B C5B 1_555 1_555
C11B C12B 1_555 1_555
C12B O2B 1_555 1_555
C13B C9 1_555 1_555
H2B C13B 1_555 1_555
O2B Zn1B_2 1_555 1_555
C14B C10B 1_555 1_555
H3B C14B 1_555 1_555
C15B C11B 1_555 1_555
H4B C15B 1_555 1_555
C16B C11B 1_555 1_555
N2B C8B 1_555 1_555
C19B C10B 1_555 1_555
H6B C19B 1_555 1_555
H7B C16B 1_555 1_555
O1I C7 1_555 1_555
O2I C12 1_555 1_555
C14I C10 1_555 1_555
H3I C14I 1_555 1_555
C15I C11 1_555 1_555
H4I C15I 1_555 1_555
C16I C11 1_555 1_555
C19I C10 1_555 1_555
H6I C19I 1_555 1_555
H7I C16I 1_555 1_555
O1K C7 1_555 1_555
O2K C12B 1_555 1_555
C14K C10B 1_555 1_555
H3K C14K 1_555 1_555
C15K C11B 1_555 1_555
H4K C15K 1_555 1_555
C16K C11B 1_555 1_555
C19K C10B 1_555 1_555
H6K C19K 1_555 1_555
H7K C16K 1_555 1_555
Zn1B O2I 1_555 1_555
Zn1_2 O2K 1_555 1_555
Zn1B_3 N1B 1_555 1_555
Zn1D O1K 1_555 1_555
Zn1F O1B 1_555 1_555
O1D Zn1 1_555 1_555
O1F Zn1B 1_555 1_555
O1M Zn1B 1_555 1_555
O1O Zn1 1_555 1_555
O2B_2 Zn1B 1_555 1_555
O2K_2 Zn1 1_555 1_555
N1B_2 Zn1B 1_555 1_555
C9 C13 1_555 1_555
C14 C15 1_555 1_555
C14 C19 1_555 1_555
C15 C16 1_555 1_555
C16 C19 1_555 1_555
C16 C16I 1_555 1_555
C19 C19I 1_555 1_555
N1B C18I 1_555 1_555
C18B C18K 1_555 1_555
C4B C13B 1_555 1_555
C5B C8B 1_555 1_555
C14B C15B 1_555 1_555
C14B C19B 1_555 1_555
C15B C16B 1_555 1_555
C16B C19B 1_555 1_555
C16B C16K 1_555 1_555
C19B C19K 1_555 1_555
O1I Zn1F 1_555 1_555
C14I C15I 1_555 1_555
C14I C19I 1_555 1_555
C15I C16I 1_555 1_555
C16I C19I 1_555 1_555
C14K C15K 1_555 1_555
C14K C19K 1_555 1_555
C15K C16K 1_555 1_555
C16K C19K 1_555 1_555

#END
