
#######################################################################
#
#                 Cambridge Crystallographic Data Centre
#                                CCDC 
#
#######################################################################
#
# If this CIF has been generated from an entry in the Cambridge 
# Structural Database, then it will include bibliographic, chemical, 
# crystal, experimental, refinement or atomic coordinate data resulting 
# from the CCDC's data processing and validation procedures.
#
#######################################################################

data_EKEYAW
_chemical_formula_moiety         'C38 H18 N9 O10 Zn7'
_symmetry_cell_setting           monoclinic
_symmetry_space_group_name_H-M   'C 2/c'
_symmetry_Int_Tables_number      15
_space_group_name_Hall           '-C 2yc'
loop_
_symmetry_equiv_pos_site_id
_symmetry_equiv_pos_as_xyz
1 x,y,z
2 -x,y,1/2-z
3 1/2+x,1/2+y,z
4 1/2-x,1/2+y,1/2-z
5 -x,-y,-z
6 x,-y,1/2+z
7 1/2-x,1/2-y,-z
8 1/2+x,1/2-y,1/2+z
_cell_length_a                   16.6016(8)
_cell_length_b                   28.6210(12)
_cell_length_c                   9.2204(4)
_cell_angle_alpha                90
_cell_angle_beta                 98.180(4)
_cell_angle_gamma                90
_cell_volume                     4336.54
loop_
_atom_site_label
_atom_site_type_symbol
_atom_site_fract_x
_atom_site_fract_y
_atom_site_fract_z
Zn1 Zn 0.00992(3) 0.228899(16) 0.42893(5)
O1 O 0.11713(18) 0.21072(12) 0.3854(4)
O2 O 0.07556(17) 0.18679(11) 0.1568(3)
O3 O 0.51186(17) -0.20659(9) 0.1334(3)
N1 N 0.5000 0.1558(5) 0.2500
H1 H 0.5444 0.1708 0.2455
N2 N 0.3533(6) 0.0159(4) 0.2624(13)
H2 H 0.3519 -0.0142 0.2608
H3 H 0.3095 0.0315 0.2670
N3 N 0.0371(4) 0.2273(2) 0.6390(6)
N4 N -0.0284(4) 0.2273(2) 0.6248(7)
C1 C -0.0000 0.2285(2) 0.7500
C2 C 0.1532(18) 0.2134(9) 0.802(3)
C3 C 0.5301(2) -0.10985(12) 0.1385(4)
H4 H 0.5498 -0.1259 0.0632
C4 C 0.156(2) 0.2492(11) 0.895(3)
C5 C 0.5000 0.11267(17) 0.2500
C6 C 0.4280(2) 0.03965(13) 0.2575(4)
C7 C 0.5000 -0.18665(17) 0.2500
C8 C 0.5000 -0.03679(16) 0.2500
C9 C 0.4277(2) 0.08884(12) 0.2574(4)
C10 C 0.5307(2) -0.06197(13) 0.1398(4)
H5 H 0.5519 -0.0459 0.0661
C11 C 0.1276(2) 0.18922(13) 0.2722(5)
C12 C 0.5000 -0.13460(16) 0.2500
C13 C 0.3510(2) 0.11452(13) 0.2636(5)
C14 C 0.5000 0.01510(16) 0.2500
C15 C 0.3432(3) 0.1469(2) 0.3717(6)
H6 H 0.3871 0.1526 0.4440
C16 C 0.2835(3) 0.10623(17) 0.1580(5)
H7 H 0.2866 0.0839 0.0856
C17 C 0.2055(2) 0.16348(13) 0.2700(5)
C18 C 0.2707(3) 0.17101(19) 0.3741(7)
H8 H 0.2669 0.1926 0.4481
C19 C 0.2124(3) 0.13095(17) 0.1605(5)
H9 H 0.1685 0.1258 0.0878
C20 C 0.0976(10) 0.2467(9) 0.793(5)
C21 C 0.1146(9) 0.2152(11) 0.7162(16)
C22 C -0.1058(9) 0.2145(8) 0.663(2)
O1A O 0.88287(18) 0.21072(12) 0.1146(4)
O2A O 0.92444(17) 0.18679(11) 0.3432(3)
O3A O 0.48814(17) -0.20659(9) 0.3666(3)
H1A H 0.4556 0.1708 0.2545
N2A N 0.6467(6) 0.0159(4) 0.2376(13)
H2A H 0.6481 -0.0142 0.2392
H3A H 0.6905 0.0315 0.2330
C3A C 0.4699(2) -0.10985(12) 0.3615(4)
H4A H 0.4502 -0.1259 0.4368
C6A C 0.5720(2) 0.03965(13) 0.2425(4)
C9A C 0.5723(2) 0.08884(12) 0.2426(4)
C10A C 0.4693(2) -0.06197(13) 0.3602(4)
H5A H 0.4481 -0.0459 0.4339
C11A C 0.8724(2) 0.18922(13) 0.2278(5)
C13A C 0.6490(2) 0.11452(13) 0.2364(5)
C15A C 0.6568(3) 0.1469(2) 0.1283(6)
H6A H 0.6129 0.1526 0.0560
C16A C 0.7165(3) 0.10623(17) 0.3420(5)
H7A H 0.7134 0.0839 0.4144
C17A C 0.7945(2) 0.16348(13) 0.2300(5)
C18A C 0.7293(3) 0.17101(19) 0.1259(7)
H8A H 0.7331 0.1926 0.0519
C19A C 0.7876(3) 0.13095(17) 0.3395(5)
H9A H 0.8315 0.1258 0.4122
N3A N -0.0371(4) 0.2273(2) 0.8610(6)
N4A N 0.0284(4) 0.2273(2) 0.8752(7)
C2A C -0.1532(18) 0.2134(9) 0.698(3)
C4A C -0.156(2) 0.2492(11) 0.605(3)
C20A C -0.0976(10) 0.2467(9) 0.707(5)
C21A C -0.1146(9) 0.2152(11) 0.7838(16)
C22A C 0.1058(9) 0.2145(8) 0.837(2)
Zn1A Zn -0.00992(3) 0.228899(16) 0.07107(5)
Zn1_2 Zn 1.00992(3) 0.228899(16) 0.42893(5)
Zn1A_2 Zn -0.00992(3) 0.228899(16) 1.07107(5)
Zn1A_3 Zn 0.99008(3) 0.228899(16) 0.07107(5)
Zn1B Zn 0.50992(3) -0.271101(16) 0.42893(5)
Zn1C Zn 0.49008(3) -0.271101(16) 0.07107(5)
O1A_2 O -0.11713(18) 0.21072(12) 0.1146(4)
O2A_2 O -0.07556(17) 0.18679(11) 0.3432(3)
O3B O 0.01186(17) 0.29341(9) 0.1334(3)
O3C O -0.01186(17) 0.29341(9) 0.3666(3)
N3A_2 N -0.0371(4) 0.2273(2) -0.1390(6)
N4A_2 N 0.0284(4) 0.2273(2) -0.1248(7)
loop_
_geom_bond_atom_site_label_1
_geom_bond_atom_site_label_2
_geom_bond_site_symmetry_1
_geom_bond_site_symmetry_2
Zn1 O1 1_555 1_555
O1 C11 1_555 1_555
O2 C11 1_555 1_555
O3 C7 1_555 1_555
N1 H1 1_555 1_555
N2 H2 1_555 1_555
H3 N2 1_555 1_555
N3 Zn1 1_555 1_555
N4 Zn1 1_555 1_555
C1 N3 1_555 1_555
C2 C4 1_555 1_555
C3 H4 1_555 1_555
C4 C20 1_555 1_555
C5 N1 1_555 1_555
C6 N2 1_555 1_555
C7 C12 1_555 1_555
C8 C10 1_555 1_555
C9 C5 1_555 1_555
C10 C3 1_555 1_555
H5 C10 1_555 1_555
C11 C17 1_555 1_555
C12 C3 1_555 1_555
C13 C9 1_555 1_555
C14 C6 1_555 1_555
C15 C13 1_555 1_555
H6 C15 1_555 1_555
C16 C13 1_555 1_555
H7 C16 1_555 1_555
C17 C18 1_555 1_555
C18 C15 1_555 1_555
H8 C18 1_555 1_555
C19 C16 1_555 1_555
H9 C19 1_555 1_555
C20 N3 1_555 1_555
C21 N3 1_555 1_555
C22 N4 1_555 1_555
O1A C11A 1_555 1_555
O2A C11A 1_555 1_555
O3A C7 1_555 1_555
H1A N1 1_555 1_555
N2A H2A 1_555 1_555
H3A N2A 1_555 1_555
C3A C12 1_555 1_555
H4A C3A 1_555 1_555
C6A C14 1_555 1_555
C9A C5 1_555 1_555
C10A C8 1_555 1_555
H5A C10A 1_555 1_555
C11A C17A 1_555 1_555
C13A C9A 1_555 1_555
C15A C13A 1_555 1_555
H6A C15A 1_555 1_555
C16A C13A 1_555 1_555
H7A C16A 1_555 1_555
C17A C18A 1_555 1_555
C18A C15A 1_555 1_555
H8A C18A 1_555 1_555
C19A C16A 1_555 1_555
H9A C19A 1_555 1_555
N3A C1 1_555 1_555
N4A C1 1_555 1_555
C2A C22 1_555 1_555
C4A C22 1_555 1_555
C20A N4 1_555 1_555
C21A C22 1_555 1_555
C22A C2 1_555 1_555
Zn1A O2 1_555 1_555
Zn1_2 O2A 1_555 1_555
Zn1A_2 N3A 1_555 1_555
Zn1A_3 O1A 1_555 1_555
Zn1B O3A 1_555 1_555
Zn1C O3 1_555 1_555
O1A_2 Zn1A 1_555 1_555
O2A_2 Zn1 1_555 1_555
O3B Zn1A 1_555 1_555
O3C Zn1 1_555 1_555
N3A_2 Zn1A 1_555 1_555
N4A_2 Zn1A 1_555 1_555
N3 N4 1_555 1_555
N4 C1 1_555 1_555
C1 C20 1_555 1_555
C1 C20A 1_555 1_555
C2 C20 1_555 1_555
C2 C21 1_555 1_555
C4 C22A 1_555 1_555
C6 C9 1_555 1_555
C8 C14 1_555 1_555
C17 C19 1_555 1_555
C20 C21 1_555 1_555
C20 N4A 1_555 1_555
C20 C22A 1_555 1_555
C21 C22A 1_555 1_555
C22 C20A 1_555 1_555
N2A C6A 1_555 1_555
C3A C10A 1_555 1_555
C6A C9A 1_555 1_555
C17A C19A 1_555 1_555
N3A N4A 1_555 1_555
N3A C20A 1_555 1_555
N3A C21A 1_555 1_555
N4A C22A 1_555 1_555
N4A Zn1A_2 1_555 1_555
C2A C4A 1_555 1_555
C2A C20A 1_555 1_555
C2A C21A 1_555 1_555
C4A C20A 1_555 1_555
C20A C21A 1_555 1_555
N3A_2 N4A_2 1_555 1_555

#END
