
#######################################################################
#
#                 Cambridge Crystallographic Data Centre
#                                CCDC 
#
#######################################################################
#
# If this CIF has been generated from an entry in the Cambridge 
# Structural Database, then it will include bibliographic, chemical, 
# crystal, experimental, refinement or atomic coordinate data resulting 
# from the CCDC's data processing and validation procedures.
#
#######################################################################

data_MIFLIY
_chemical_formula_moiety         '(C36 H28 Mg1 O10)n'
_symmetry_cell_setting           monoclinic
_symmetry_space_group_name_H-M   'C 2/c'
_symmetry_Int_Tables_number      15
_space_group_name_Hall           '-C 2yc'
loop_
_symmetry_equiv_pos_site_id
_symmetry_equiv_pos_as_xyz
1 x,y,z
2 -x,y,1/2-z
3 1/2+x,1/2+y,z
4 1/2-x,1/2+y,1/2-z
5 -x,-y,-z
6 x,-y,1/2+z
7 1/2-x,1/2-y,-z
8 1/2+x,1/2-y,1/2+z
_cell_length_a                   17.823(3)
_cell_length_b                   30.112(4)
_cell_length_c                   10.7574(12)
_cell_angle_alpha                90
_cell_angle_beta                 118.559(11)
_cell_angle_gamma                90
_cell_volume                     5070.88
loop_
_atom_site_label
_atom_site_type_symbol
_atom_site_fract_x
_atom_site_fract_y
_atom_site_fract_z
Mg1 Mg 0.2500 -0.2500 0.5000
O1 O 0.2189(2) -0.18364(8) 0.5127(3)
O2 O 0.2370(2) -0.15829(8) 0.7206(3)
O3 O 0.1600(2) 0.24823(8) 0.7857(3)
O4 O 0.2091(2) 0.27394(9) 0.6433(3)
O5 O 0.1612(3) -0.27168(13) 0.5496(4)
C1 C 0.0825(2) -0.03248(9) 0.3915(4)
C2 C 0.1103(2) -0.04054(10) 0.5345(4)
H1 H 0.0992 -0.0191 0.5885
C3 C 0.1537(3) -0.07886(10) 0.5993(4)
H2 H 0.1715 -0.0835 0.6968
C4 C 0.1719(3) -0.11097(10) 0.5236(4)
C5 C 0.1494(3) -0.10204(11) 0.3838(4)
H3 H 0.1648 -0.1225 0.3326
C6 C 0.1051(3) -0.06399(10) 0.3173(4)
H4 H 0.0896 -0.0589 0.2208
C7 C 0.0358(2) 0.00874(9) 0.3191(3)
C8 C 0.0647(2) 0.04963(9) 0.3865(4)
H5 H 0.1092 0.0497 0.4818
C9 C 0.0315(2) 0.09059(9) 0.3208(3)
C10 C 0.0647(2) 0.13225(9) 0.4062(4)
C11 C 0.0446(3) 0.14018(11) 0.5149(4)
H6 H 0.0082 0.1204 0.5298
C12 C 0.0784(3) 0.17735(11) 0.6013(4)
H7 H 0.0652 0.1825 0.6758
C13 C 0.1307(3) 0.20677(11) 0.5806(4)
C14 C 0.1485(3) 0.19937(12) 0.4700(4)
H8 H 0.1834 0.2197 0.4532
C15 C 0.1153(3) 0.16214(12) 0.3833(5)
H9 H 0.1278 0.1574 0.3079
C16 C 0.2125(3) -0.15458(11) 0.5888(5)
C17 C 0.1674(3) 0.24528(12) 0.6777(5)
C18 C 0.1027(5) -0.2877(3) 0.4959(9)
H10 H 0.0578 -0.2686 0.4946
H11 H 0.1046 -0.3157 0.5438
H12 H 0.0905 -0.2938 0.3986
O1A O -0.2189(2) -0.18364(8) -0.0127(3)
O2A O -0.2370(2) -0.15829(8) -0.2206(3)
O3A O -0.1600(2) 0.24823(8) -0.2857(3)
O4A O -0.2091(2) 0.27394(9) -0.1433(3)
C1A C -0.0825(2) -0.03248(9) 0.1085(4)
C2A C -0.1103(2) -0.04054(10) -0.0345(4)
H1A H -0.0992 -0.0191 -0.0885
C3A C -0.1537(3) -0.07886(10) -0.0993(4)
H2A H -0.1715 -0.0835 -0.1968
C4A C -0.1719(3) -0.11097(10) -0.0236(4)
C5A C -0.1494(3) -0.10204(11) 0.1162(4)
H3A H -0.1648 -0.1225 0.1674
C6A C -0.1051(3) -0.06399(10) 0.1827(4)
H4A H -0.0896 -0.0589 0.2792
C7A C -0.0358(2) 0.00874(9) 0.1809(3)
C8A C -0.0647(2) 0.04963(9) 0.1135(4)
H5A H -0.1092 0.0497 0.0182
C9A C -0.0315(2) 0.09059(9) 0.1792(3)
C10A C -0.0647(2) 0.13225(9) 0.0938(4)
C11A C -0.0446(3) 0.14018(11) -0.0149(4)
H6A H -0.0082 0.1204 -0.0298
C12A C -0.0784(3) 0.17735(11) -0.1013(4)
H7A H -0.0652 0.1825 -0.1758
C13A C -0.1307(3) 0.20677(11) -0.0806(4)
C14A C -0.1485(3) 0.19937(12) 0.0300(4)
H8A H -0.1834 0.2197 0.0468
C15A C -0.1153(3) 0.16214(12) 0.1167(5)
H9A H -0.1278 0.1574 0.1921
C16A C -0.2125(3) -0.15458(11) -0.0888(5)
C17A C -0.1674(3) 0.24528(12) -0.1777(5)
O5F O 0.3388(3) -0.22832(13) 0.4504(4)
C18F C 0.3973(5) -0.2123(3) 0.5041(9)
H10F H 0.4422 -0.2314 0.5054
H11F H 0.3954 -0.1843 0.4562
H12F H 0.4095 -0.2062 0.6014
Mg1A Mg -0.2500 -0.2500 0.0000
Mg1B Mg -0.2500 0.2500 -0.5000
Mg1C Mg 0.2500 0.2500 1.0000
O1F O 0.2811(2) -0.31636(8) 0.4873(3)
O3C O 0.3400(2) -0.25177(8) 0.7143(3)
O3E O 0.1600(2) -0.24823(8) 0.2857(3)
loop_
_geom_bond_atom_site_label_1
_geom_bond_atom_site_label_2
_geom_bond_site_symmetry_1
_geom_bond_site_symmetry_2
Mg1 O1 1_555 1_555
O1 C16 1_555 1_555
O2 C16 1_555 1_555
O3 C17 1_555 1_555
O4 C17 1_555 1_555
O5 Mg1 1_555 1_555
C1 C2 1_555 1_555
C2 H1 1_555 1_555
C3 C2 1_555 1_555
H2 C3 1_555 1_555
C4 C3 1_555 1_555
C5 C4 1_555 1_555
H3 C5 1_555 1_555
C6 C1 1_555 1_555
H4 C6 1_555 1_555
C7 C1 1_555 1_555
C8 C7 1_555 1_555
H5 C8 1_555 1_555
C9 C8 1_555 1_555
C10 C9 1_555 1_555
C11 C10 1_555 1_555
H6 C11 1_555 1_555
C12 C11 1_555 1_555
H7 C12 1_555 1_555
C13 C12 1_555 1_555
C14 C13 1_555 1_555
H8 C14 1_555 1_555
C15 C10 1_555 1_555
H9 C15 1_555 1_555
C16 C4 1_555 1_555
C17 C13 1_555 1_555
C18 O5 1_555 1_555
H10 C18 1_555 1_555
H11 C18 1_555 1_555
H12 C18 1_555 1_555
O1A C16A 1_555 1_555
O2A C16A 1_555 1_555
O3A C17A 1_555 1_555
O4A C17A 1_555 1_555
C1A C2A 1_555 1_555
C2A H1A 1_555 1_555
C3A C2A 1_555 1_555
H2A C3A 1_555 1_555
C4A C3A 1_555 1_555
C5A C4A 1_555 1_555
H3A C5A 1_555 1_555
C6A C1A 1_555 1_555
H4A C6A 1_555 1_555
C7A C7 1_555 1_555
C8A C7A 1_555 1_555
H5A C8A 1_555 1_555
C9A C9 1_555 1_555
C10A C9A 1_555 1_555
C11A C10A 1_555 1_555
H6A C11A 1_555 1_555
C12A C11A 1_555 1_555
H7A C12A 1_555 1_555
C13A C12A 1_555 1_555
C14A C13A 1_555 1_555
H8A C14A 1_555 1_555
C15A C10A 1_555 1_555
H9A C15A 1_555 1_555
C16A C4A 1_555 1_555
C17A C13A 1_555 1_555
O5F Mg1 1_555 1_555
C18F O5F 1_555 1_555
H10F C18F 1_555 1_555
H11F C18F 1_555 1_555
H12F C18F 1_555 1_555
Mg1A O1A 1_555 1_555
Mg1B O3A 1_555 1_555
Mg1C O3 1_555 1_555
O1F Mg1 1_555 1_555
O3C Mg1 1_555 1_555
O3E Mg1 1_555 1_555
C5 C6 1_555 1_555
C14 C15 1_555 1_555
C1A C7A 1_555 1_555
C5A C6A 1_555 1_555
C8A C9A 1_555 1_555
C14A C15A 1_555 1_555

#END
