
#######################################################################
#
#                 Cambridge Crystallographic Data Centre
#                                CCDC 
#
#######################################################################
#
# If this CIF has been generated from an entry in the Cambridge 
# Structural Database, then it will include bibliographic, chemical, 
# crystal, experimental, refinement or atomic coordinate data resulting 
# from the CCDC's data processing and validation procedures.
#
#######################################################################

data_WEGGAS
_chemical_formula_moiety         '(C27 H23 N7 O19 Tb2)n'
_symmetry_cell_setting           monoclinic
_symmetry_space_group_name_H-M   'P 21/c'
_symmetry_Int_Tables_number      14
_space_group_name_Hall           '-P 2ybc'
loop_
_symmetry_equiv_pos_site_id
_symmetry_equiv_pos_as_xyz
1 x,y,z
2 -x,1/2+y,1/2-z
3 -x,-y,-z
4 x,1/2-y,1/2+z
_cell_length_a                   10.1792(10)
_cell_length_b                   17.5193(11)
_cell_length_c                   11.4268(11)
_cell_angle_alpha                90
_cell_angle_beta                 110.035(5)
_cell_angle_gamma                90
_cell_volume                     1914.45
loop_
_atom_site_label
_atom_site_type_symbol
_atom_site_fract_x
_atom_site_fract_y
_atom_site_fract_z
Tb1 Tb 0.98962(3) 0.492751(18) 0.81829(3)
O1 O 1.0843(6) 0.4303(3) 0.6814(5)
O2 O 0.9745(5) 0.0848(3) 0.5259(5)
O3 O 0.9380(5) 0.1390(3) 0.3444(4)
O4 O 0.7727(6) 0.5139(3) 0.8467(5)
O5 O 0.7916(4) 0.5480(3) 1.0424(4)
O6 O 0.1455(4) 0.5810(3) 0.7750(4)
O7 O 0.7942(7) 0.4624(4) 0.6198(6)
O8 O 0.8544(6) 0.5818(3) 0.6573(5)
O9 O 0.6666(11) 0.5481(8) 0.5050(8)
N1 N 1.0510(6) 0.3624(3) 0.6304(5)
N2 N 0.2844(5) 0.5738(3) 0.8107(5)
N3 N 0.7681(8) 0.5325(5) 0.5917(6)
C1 C 0.9611(6) 0.1433(4) 0.4582(6)
C2 C 0.9890(7) 0.2207(4) 0.5204(6)
C3 C 1.0620(9) 0.2274(4) 0.6473(6)
H1 H 1.0896 0.1839 0.6962
C4 C 0.9470(7) 0.2868(4) 0.4501(6)
H2 H 0.8990 0.2836 0.3648
C5 C 1.0932(8) 0.2982(5) 0.7002(6)
H3 H 1.1439 0.3025 0.7848
C6 C 0.9767(8) 0.3568(4) 0.5071(6)
H4 H 0.9455 0.4010 0.4606
C7 C 0.7249(6) 0.5381(4) 0.9279(6)
C8 C 0.5699(6) 0.5546(4) 0.8840(6)
C9 C 0.5097(7) 0.5904(4) 0.9612(6)
H5 H 0.5658 0.6078 1.0392
C10 C 0.4826(7) 0.5309(5) 0.7676(7)
H6 H 0.5207 0.5089 0.7124
C11 C 0.3647(7) 0.6005(4) 0.9222(6)
H7 H 0.3243 0.6255 0.9732
C12 C 0.3384(7) 0.5397(5) 0.7325(6)
H8 H 0.2800 0.5222 0.6554
Tb1B Tb 1.01038(3) 0.507249(18) 1.18171(3)
Tb1_2 Tb -0.01038(3) 0.492751(18) 0.81829(3)
Tb1A Tb 1.01038(3) -0.007249(18) 0.68171(3)
Tb1A_2 Tb 1.01038(3) 0.992751(18) 1.68171(3)
Tb1B_2 Tb 2.01038(3) 0.507249(18) 1.18171(3)
Tb1C Tb 0.98962(3) 0.007249(18) 0.31829(3)
Tb1C_2 Tb 0.98962(3) 1.007249(18) 1.31829(3)
O1B O 0.9157(6) 0.5697(3) 1.3186(5)
O2B O 1.0255(5) 0.9152(3) 1.4741(5)
O2A O 1.0255(5) 0.5848(3) 0.9741(5)
O2C O 0.9745(5) 0.4152(3) 1.0259(5)
O3B O 1.0620(5) 0.8610(3) 1.6556(4)
O3A O 1.0620(5) 0.6390(3) 1.1556(4)
O3C O 0.9380(5) 0.3610(3) 0.8444(4)
O4B O 1.2273(6) 0.4861(3) 1.1533(5)
O5B O 1.2084(4) 0.4520(3) 0.9576(4)
O6B O 1.8545(4) 0.4190(3) 1.2250(4)
O6_2 O 1.1455(4) 0.5810(3) 0.7750(4)
O6B_2 O 0.8545(4) 0.4190(3) 1.2250(4)
O7B O 1.2058(7) 0.5376(4) 1.3802(6)
O8B O 1.1456(6) 0.4182(3) 1.3427(5)
O9B O 1.3334(11) 0.4519(8) 1.4950(8)
N1B N 0.9490(6) 0.6376(3) 1.3696(5)
N2B N 1.7156(5) 0.4262(3) 1.1893(5)
N3B N 1.2319(8) 0.4675(5) 1.4083(6)
C1B C 1.0389(6) 0.8567(4) 1.5418(6)
C2B C 1.0110(7) 0.7793(4) 1.4796(6)
C3B C 0.9380(9) 0.7726(4) 1.3527(6)
H1B H 0.9104 0.8161 1.3038
C4B C 1.0530(7) 0.7132(4) 1.5499(6)
H2B H 1.1010 0.7164 1.6352
C5B C 0.9068(8) 0.7018(5) 1.2998(6)
H3B H 0.8561 0.6975 1.2152
C6B C 1.0233(8) 0.6432(4) 1.4929(6)
H4B H 1.0545 0.5990 1.5394
C7B C 1.2751(6) 0.4619(4) 1.0721(6)
C8B C 1.4301(6) 0.4454(4) 1.1160(6)
C9B C 1.4903(7) 0.4096(4) 1.0388(6)
H5B H 1.4342 0.3922 0.9608
C10B C 1.5174(7) 0.4691(5) 1.2324(7)
H6B H 1.4793 0.4911 1.2876
C11B C 1.6353(7) 0.3995(4) 1.0778(6)
H7B H 1.6757 0.3745 1.0268
C12B C 1.6616(7) 0.4603(5) 1.2675(6)
H8B H 1.7200 0.4778 1.3446
O10 O 0.564(3) 0.3228(11) 0.8128(15)
N4 N 0.5141(10) 0.3032(6) 0.6108(11)
C13 C 0.599(2) 0.3259(13) 0.7169(16)
H9 H 0.6863 0.3447 0.7231
C14 C 0.3792(16) 0.2773(11) 0.598(2)
H10 H 0.3364 0.3121 0.6388
H11 H 0.3853 0.2276 0.6345
H12 H 0.3238 0.2745 0.5109
C15 C 0.545(2) 0.3152(11) 0.4985(16)
H13 H 0.4981 0.3603 0.4571
H14 H 0.5141 0.2720 0.4445
H15 H 0.6443 0.3214 0.5189
loop_
_geom_bond_atom_site_label_1
_geom_bond_atom_site_label_2
_geom_bond_site_symmetry_1
_geom_bond_site_symmetry_2
Tb1 O1 1_555 1_555
O1 N1 1_555 1_555
O2 C1 1_555 1_555
O3 C1 1_555 1_555
O4 Tb1 1_555 1_555
O5 C7 1_555 1_555
O6 N2 1_555 1_555
O7 Tb1 1_555 1_555
O8 Tb1 1_555 1_555
O9 N3 1_555 1_555
O10 C13 1_555 1_555
N1 C5 1_555 1_555
N2 C11 1_555 1_555
N3 O7 1_555 1_555
N4 C13 1_555 1_555
C1 C2 1_555 1_555
C2 C3 1_555 1_555
C3 H1 1_555 1_555
C4 C2 1_555 1_555
H2 C4 1_555 1_555
C5 C3 1_555 1_555
H3 C5 1_555 1_555
C6 N1 1_555 1_555
H4 C6 1_555 1_555
C7 O4 1_555 1_555
C8 C7 1_555 1_555
C9 C8 1_555 1_555
H5 C9 1_555 1_555
C10 C8 1_555 1_555
H6 C10 1_555 1_555
C11 C9 1_555 1_555
H7 C11 1_555 1_555
C12 N2 1_555 1_555
H8 C12 1_555 1_555
C13 H9 1_555 1_555
C14 N4 1_555 1_555
H10 C14 1_555 1_555
H11 C14 1_555 1_555
H12 C14 1_555 1_555
C15 N4 1_555 1_555
H13 C15 1_555 1_555
H14 C15 1_555 1_555
H15 C15 1_555 1_555
Tb1B O5 1_555 1_555
Tb1_2 O6 1_555 1_555
Tb1A O2 1_555 1_555
Tb1A_2 O2B 1_555 1_555
Tb1B_2 O6B 1_555 1_555
Tb1C O2 1_555 1_555
Tb1C_2 O2B 1_555 1_555
O1B Tb1B 1_555 1_555
O2B C1B 1_555 1_555
O2A Tb1 1_555 1_555
O2C Tb1 1_555 1_555
O3B Tb1A_2 1_555 1_555
O3A Tb1B 1_555 1_555
O3C Tb1 1_555 1_555
O4B Tb1B 1_555 1_555
O5B Tb1 1_555 1_555
O6B N2B 1_555 1_555
O6_2 Tb1 1_555 1_555
O6B_2 Tb1B 1_555 1_555
O7B Tb1B 1_555 1_555
O8B Tb1B 1_555 1_555
O9B N3B 1_555 1_555
N1B O1B 1_555 1_555
N2B C11B 1_555 1_555
N3B O7B 1_555 1_555
C1B O3B 1_555 1_555
C2B C1B 1_555 1_555
C3B C2B 1_555 1_555
H1B C3B 1_555 1_555
C4B C2B 1_555 1_555
H2B C4B 1_555 1_555
C5B N1B 1_555 1_555
H3B C5B 1_555 1_555
C6B N1B 1_555 1_555
H4B C6B 1_555 1_555
C7B O4B 1_555 1_555
C8B C7B 1_555 1_555
C9B C8B 1_555 1_555
H5B C9B 1_555 1_555
C10B C8B 1_555 1_555
H6B C10B 1_555 1_555
C11B C9B 1_555 1_555
H7B C11B 1_555 1_555
C12B N2B 1_555 1_555
H8B C12B 1_555 1_555
O3 Tb1C 1_555 1_555
O8 N3 1_555 1_555
C4 C6 1_555 1_555
C10 C12 1_555 1_555
Tb1B O2A 1_555 1_555
Tb1B O2C 1_555 1_555
O5B C7B 1_555 1_555
O8B N3B 1_555 1_555
C3B C5B 1_555 1_555
C4B C6B 1_555 1_555
C10B C12B 1_555 1_555

#END
