
#######################################################################
#
#                 Cambridge Crystallographic Data Centre
#                                CCDC 
#
#######################################################################
#
# If this CIF has been generated from an entry in the Cambridge 
# Structural Database, then it will include bibliographic, chemical, 
# crystal, experimental, refinement or atomic coordinate data resulting 
# from the CCDC's data processing and validation procedures.
#
#######################################################################

data_ABAYIO
_chemical_formula_moiety         '(C18 H10 Cl3 Mn3 O14 3-)n'
_symmetry_cell_setting           cubic
_symmetry_space_group_name_H-M   'F m -3 m'
_symmetry_Int_Tables_number      225
_space_group_name_Hall           '-F 4 2 3'
loop_
_symmetry_equiv_pos_site_id
_symmetry_equiv_pos_as_xyz
1 x,y,z
2 -x,-y,z
3 -x,y,-z
4 x,-y,-z
5 z,x,y
6 z,-x,-y
7 -z,-x,y
8 -z,x,-y
9 y,z,x
10 -y,z,-x
11 y,-z,-x
12 -y,-z,x
13 y,x,-z
14 -y,-x,-z
15 y,-x,z
16 -y,x,z
17 x,z,-y
18 -x,z,y
19 -x,-z,-y
20 x,-z,y
21 z,y,-x
22 z,-y,x
23 -z,y,x
24 -z,-y,-x
25 x,1/2+y,1/2+z
26 -x,1/2-y,1/2+z
27 -x,1/2+y,1/2-z
28 x,1/2-y,1/2-z
29 z,1/2+x,1/2+y
30 z,1/2-x,1/2-y
31 -z,1/2-x,1/2+y
32 -z,1/2+x,1/2-y
33 y,1/2+z,1/2+x
34 -y,1/2+z,1/2-x
35 y,1/2-z,1/2-x
36 -y,1/2-z,1/2+x
37 y,1/2+x,1/2-z
38 -y,1/2-x,1/2-z
39 y,1/2-x,1/2+z
40 -y,1/2+x,1/2+z
41 x,1/2+z,1/2-y
42 -x,1/2+z,1/2+y
43 -x,1/2-z,1/2-y
44 x,1/2-z,1/2+y
45 z,1/2+y,1/2-x
46 z,1/2-y,1/2+x
47 -z,1/2+y,1/2+x
48 -z,1/2-y,1/2-x
49 1/2+x,y,1/2+z
50 1/2-x,-y,1/2+z
51 1/2-x,y,1/2-z
52 1/2+x,-y,1/2-z
53 1/2+z,x,1/2+y
54 1/2+z,-x,1/2-y
55 1/2-z,-x,1/2+y
56 1/2-z,x,1/2-y
57 1/2+y,z,1/2+x
58 1/2-y,z,1/2-x
59 1/2+y,-z,1/2-x
60 1/2-y,-z,1/2+x
61 1/2+y,x,1/2-z
62 1/2-y,-x,1/2-z
63 1/2+y,-x,1/2+z
64 1/2-y,x,1/2+z
65 1/2+x,z,1/2-y
66 1/2-x,z,1/2+y
67 1/2-x,-z,1/2-y
68 1/2+x,-z,1/2+y
69 1/2+z,y,1/2-x
70 1/2+z,-y,1/2+x
71 1/2-z,y,1/2+x
72 1/2-z,-y,1/2-x
73 1/2+x,1/2+y,z
74 1/2-x,1/2-y,z
75 1/2-x,1/2+y,-z
76 1/2+x,1/2-y,-z
77 1/2+z,1/2+x,y
78 1/2+z,1/2-x,-y
79 1/2-z,1/2-x,y
80 1/2-z,1/2+x,-y
81 1/2+y,1/2+z,x
82 1/2-y,1/2+z,-x
83 1/2+y,1/2-z,-x
84 1/2-y,1/2-z,x
85 1/2+y,1/2+x,-z
86 1/2-y,1/2-x,-z
87 1/2+y,1/2-x,z
88 1/2-y,1/2+x,z
89 1/2+x,1/2+z,-y
90 1/2-x,1/2+z,y
91 1/2-x,1/2-z,-y
92 1/2+x,1/2-z,y
93 1/2+z,1/2+y,-x
94 1/2+z,1/2-y,x
95 1/2-z,1/2+y,x
96 1/2-z,1/2-y,-x
97 -x,-y,-z
98 x,y,-z
99 x,-y,z
100 -x,y,z
101 -z,-x,-y
102 -z,x,y
103 z,x,-y
104 z,-x,y
105 -y,-z,-x
106 y,-z,x
107 -y,z,x
108 y,z,-x
109 -y,-x,z
110 y,x,z
111 -y,x,-z
112 y,-x,-z
113 -x,-z,y
114 x,-z,-y
115 x,z,y
116 -x,z,-y
117 -z,-y,x
118 -z,y,-x
119 z,-y,-x
120 z,y,x
121 -x,1/2-y,1/2-z
122 x,1/2+y,1/2-z
123 x,1/2-y,1/2+z
124 -x,1/2+y,1/2+z
125 -z,1/2-x,1/2-y
126 -z,1/2+x,1/2+y
127 z,1/2+x,1/2-y
128 z,1/2-x,1/2+y
129 -y,1/2-z,1/2-x
130 y,1/2-z,1/2+x
131 -y,1/2+z,1/2+x
132 y,1/2+z,1/2-x
133 -y,1/2-x,1/2+z
134 y,1/2+x,1/2+z
135 -y,1/2+x,1/2-z
136 y,1/2-x,1/2-z
137 -x,1/2-z,1/2+y
138 x,1/2-z,1/2-y
139 x,1/2+z,1/2+y
140 -x,1/2+z,1/2-y
141 -z,1/2-y,1/2+x
142 -z,1/2+y,1/2-x
143 z,1/2-y,1/2-x
144 z,1/2+y,1/2+x
145 1/2-x,-y,1/2-z
146 1/2+x,y,1/2-z
147 1/2+x,-y,1/2+z
148 1/2-x,y,1/2+z
149 1/2-z,-x,1/2-y
150 1/2-z,x,1/2+y
151 1/2+z,x,1/2-y
152 1/2+z,-x,1/2+y
153 1/2-y,-z,1/2-x
154 1/2+y,-z,1/2+x
155 1/2-y,z,1/2+x
156 1/2+y,z,1/2-x
157 1/2-y,-x,1/2+z
158 1/2+y,x,1/2+z
159 1/2-y,x,1/2-z
160 1/2+y,-x,1/2-z
161 1/2-x,-z,1/2+y
162 1/2+x,-z,1/2-y
163 1/2+x,z,1/2+y
164 1/2-x,z,1/2-y
165 1/2-z,-y,1/2+x
166 1/2-z,y,1/2-x
167 1/2+z,-y,1/2-x
168 1/2+z,y,1/2+x
169 1/2-x,1/2-y,-z
170 1/2+x,1/2+y,-z
171 1/2+x,1/2-y,z
172 1/2-x,1/2+y,z
173 1/2-z,1/2-x,-y
174 1/2-z,1/2+x,y
175 1/2+z,1/2+x,-y
176 1/2+z,1/2-x,y
177 1/2-y,1/2-z,-x
178 1/2+y,1/2-z,x
179 1/2-y,1/2+z,x
180 1/2+y,1/2+z,-x
181 1/2-y,1/2-x,z
182 1/2+y,1/2+x,z
183 1/2-y,1/2+x,-z
184 1/2+y,1/2-x,-z
185 1/2-x,1/2-z,y
186 1/2+x,1/2-z,-y
187 1/2+x,1/2+z,y
188 1/2-x,1/2+z,-y
189 1/2-z,1/2-y,x
190 1/2-z,1/2+y,-x
191 1/2+z,1/2-y,-x
192 1/2+z,1/2+y,x
_cell_length_a                   26.771(3)
_cell_length_b                   26.771(3)
_cell_length_c                   26.771(3)
_cell_angle_alpha                90
_cell_angle_beta                 90
_cell_angle_gamma                90
_cell_volume                     19186.4
loop_
_atom_site_label
_atom_site_type_symbol
_atom_site_fract_x
_atom_site_fract_y
_atom_site_fract_z
O2 O 0.1460(13) 0.1460(13) 0.1460(13)
O3 O 0.1870(19) 0.1870(19) 0.1870(19)
Mn1 Mn 0.20777(4) 0.20777(4) 1.0000
Cl1 Cl 0.14539(13) 0.14539(13) 1.0000
O1 O 0.2587(2) 0.1832(2) 0.9454(2)
C1 C 0.3221(3) 0.1779(3) 0.8850(4)
C2 C 0.3012(4) 0.1363(3) 0.8637(3)
H1 H 0.2718 0.1217 0.8783
C3 C 0.2975(3) 0.2025(3) 0.9298(4)
O1GB O 0.3168(2) 0.0546(2) 0.7587(2)
C1GB C 0.3221(3) 0.1150(4) 0.8221(3)
C2GB C 0.3637(3) 0.1363(3) 0.8012(4)
H1GB H 0.3783 0.1217 0.7718
C3GB C 0.2975(3) 0.0702(4) 0.7975(3)
O1YB O 0.4454(2) 0.2413(2) 0.8168(2)
C1YB C 0.3850(4) 0.1779(3) 0.8221(3)
C2YB C 0.3637(3) 0.1988(4) 0.8637(3)
H1YB H 0.3783 0.2282 0.8783
C3YB C 0.4298(4) 0.2025(3) 0.7975(3)
O1ID O 0.2587(2) 0.0546(2) 0.8168(2)
O1KF O 0.4454(2) 0.1832(2) 0.7587(2)
O1XF O 0.3168(2) 0.2413(2) 0.9454(2)
Mn1G Mn -0.0000 0.20777(4) 0.79223(4)
Cl1G Cl -0.0000 0.14539(13) 0.85461(13)
O1G O 0.0546(2) 0.2587(2) 0.8168(2)
C1G C 0.1150(4) 0.3221(3) 0.8221(3)
C2G C 0.1363(3) 0.3012(4) 0.8637(3)
H1G H 0.1217 0.2718 0.8783
C3G C 0.0702(4) 0.2975(3) 0.7975(3)
O1UB O 0.2413(2) 0.3168(2) 0.9454(2)
C1UB C 0.1779(3) 0.3221(3) 0.8850(4)
C2UB C 0.1988(4) 0.3637(3) 0.8637(3)
H1UB H 0.2282 0.3783 0.8783
C3UB C 0.2025(3) 0.2975(3) 0.9298(4)
O1FA O 0.1832(2) 0.4454(2) 0.7587(2)
C1FA C 0.1779(3) 0.3850(4) 0.8221(3)
C2FA C 0.1363(3) 0.3637(3) 0.8012(4)
H1FA H 0.1217 0.3783 0.7718
C3FA C 0.2025(3) 0.4298(4) 0.7975(3)
O1ED O 0.1832(2) 0.2587(2) 0.9454(2)
O1EG O 0.2413(2) 0.4454(2) 0.8168(2)
O1JE O 0.0546(2) 0.3168(2) 0.7587(2)
Mn1J Mn 0.20777(4) -0.0000 0.79223(4)
Cl1J Cl 0.14539(13) -0.0000 0.85461(13)
Mn1DA Mn 0.0000 0.29223(4) 0.70777(4)
Mn1FA Mn 0.20777(4) 0.5000 0.70777(4)
Mn1ZA Mn 0.5000 0.20777(4) 0.70777(4)
Mn1GB Mn 0.29223(4) 0.0000 0.70777(4)
Mn1UB Mn 0.29223(4) 0.29223(4) 1.0000
Mn1YB Mn 0.5000 0.29223(4) 0.79223(4)
Mn1CC Mn 0.29223(4) 0.5000 0.79223(4)
O1J O 0.1832(2) 0.0546(2) 0.7413(2)
O1L O 0.1832(2) 0.2587(2) 1.0546(2)
O1P O 0.2587(2) -0.0546(2) 0.8168(2)
O1T O -0.0546(2) 0.1832(2) 0.7413(2)
O1SC O 0.2587(2) 0.1832(2) 1.0546(2)
O1XC O -0.0546(2) 0.2587(2) 0.8168(2)
O1CD O 0.1832(2) -0.0546(2) 0.7413(2)
O1MD O 0.0546(2) 0.1832(2) 0.7413(2)
loop_
_geom_bond_atom_site_label_1
_geom_bond_atom_site_label_2
_geom_bond_site_symmetry_1
_geom_bond_site_symmetry_2
Mn1 Cl1 1_555 1_555
O1 Mn1 1_555 1_555
C1 C2 1_555 1_555
C2 H1 1_555 1_555
C3 O1 1_555 1_555
O1GB C3GB 1_555 1_555
C1GB C2 1_555 1_555
C2GB C1GB 1_555 1_555
H1GB C2GB 1_555 1_555
C3GB C1GB 1_555 1_555
O1YB C3YB 1_555 1_555
C1YB C2GB 1_555 1_555
C2YB C1 1_555 1_555
H1YB C2YB 1_555 1_555
C3YB C1YB 1_555 1_555
O1ID C3GB 1_555 1_555
O1KF C3YB 1_555 1_555
O1XF C3 1_555 1_555
Mn1G Cl1G 1_555 1_555
O1G Mn1G 1_555 1_555
C1G C2G 1_555 1_555
C2G H1G 1_555 1_555
C3G O1G 1_555 1_555
O1UB C3UB 1_555 1_555
C1UB C2G 1_555 1_555
C2UB C1UB 1_555 1_555
H1UB C2UB 1_555 1_555
C3UB C1UB 1_555 1_555
O1FA C3FA 1_555 1_555
C1FA C2UB 1_555 1_555
C2FA C1G 1_555 1_555
H1FA C2FA 1_555 1_555
C3FA C1FA 1_555 1_555
O1ED Mn1 1_555 1_555
O1EG C3FA 1_555 1_555
O1JE C3G 1_555 1_555
Mn1J O1ID 1_555 1_555
Cl1J Mn1J 1_555 1_555
Mn1DA O1JE 1_555 1_555
Mn1FA O1FA 1_555 1_555
Mn1ZA O1KF 1_555 1_555
Mn1GB O1GB 1_555 1_555
Mn1UB O1XF 1_555 1_555
Mn1YB O1YB 1_555 1_555
Mn1CC O1EG 1_555 1_555
O1J Mn1J 1_555 1_555
O1L Mn1 1_555 1_555
O1P Mn1J 1_555 1_555
O1T Mn1G 1_555 1_555
O1SC Mn1 1_555 1_555
O1XC Mn1G 1_555 1_555
O1CD Mn1J 1_555 1_555
O1MD Mn1G 1_555 1_555
C1 C3 1_555 1_555
C1YB C2YB 1_555 1_555
C1G C3G 1_555 1_555
O1UB Mn1UB 1_555 1_555
C3UB O1ED 1_555 1_555
C1FA C2FA 1_555 1_555

#END
