
#######################################################################
#
#                 Cambridge Crystallographic Data Centre
#                                CCDC 
#
#######################################################################
#
# If this CIF has been generated from an entry in the Cambridge 
# Structural Database, then it will include bibliographic, chemical, 
# crystal, experimental, refinement or atomic coordinate data resulting 
# from the CCDC's data processing and validation procedures.
#
#######################################################################

data_DUNPEJ
_chemical_formula_moiety         'C110 H66 N13 O22 Zn9'
_symmetry_cell_setting           orthorhombic
_symmetry_space_group_name_H-M   'P m m m'
_symmetry_Int_Tables_number      47
_space_group_name_Hall           '-P 2 2'
loop_
_symmetry_equiv_pos_site_id
_symmetry_equiv_pos_as_xyz
1 x,y,z
2 -x,-y,z
3 -x,y,-z
4 x,-y,-z
5 -x,-y,-z
6 x,y,-z
7 x,-y,z
8 -x,y,z
_cell_length_a                   11.6270
_cell_length_b                   15.5550
_cell_length_c                   22.2220
_cell_angle_alpha                90
_cell_angle_beta                 90
_cell_angle_gamma                90
_cell_volume                     4019.03
loop_
_atom_site_label
_atom_site_type_symbol
_atom_site_fract_x
_atom_site_fract_y
_atom_site_fract_z
O1 O 0.63190 0.41500 0.55040
C1 C 0.76380 0.26420 0.44810
H1 H 0.73790 0.28660 0.41070
C2 C 0.82510 0.19200 0.44820
H2 H 0.84190 0.16490 0.41140
O2 O 0.39040 0.61670 0.84270
C3 C 0.40094 0.53090 0.68680
H3 H 0.32974 0.55640 0.66660
C4 C 0.39870 0.53140 0.74850
H4 H 0.32310 0.55350 0.76760
C5 C 0.44283 0.56296 0.87100
C6 C 0.44340 0.56260 0.93880
C7 C 0.38900 0.62770 0.96860
C8 C 0.38504 0.77551 0.92407
C9 C 0.18271 0.77970 0.89674
C10 C 0.29422 0.82677 0.90112
C11 C 0.20830 0.70063 0.91673
H5 H 0.48234 0.78644 0.93361
H6 H 0.09343 0.80140 0.88061
H7 H 0.30740 0.89103 0.88824
H8 H 0.15106 0.64560 0.92034
N1 N 0.33253 0.69813 0.93289
Zn1 Zn 0.50000 0.50000 0.56549
N2 N 0.50000 0.50000 0.65120
N3 N 0.50000 0.50000 0.84340
C12 C 0.50000 0.50000 0.78250
C13 C 0.50000 0.50000 0.96510
C14 C 0.86840 -0.00000 0.50000
H9 H 0.77000 -0.00000 0.50000
C15 C 0.66310 0.38560 0.50000
C16 C 0.73590 0.30820 0.50000
C17 C 0.86280 0.15810 0.50000
C18 C 0.93700 0.08000 0.50000
O1B O 1.36810 0.41500 0.44960
C1B C 1.23620 0.26420 0.55190
H1B H 1.26210 0.28660 0.58930
C2B C 1.17490 0.19200 0.55180
H2B H 1.15810 0.16490 0.58860
C14A C 1.13160 -0.00000 0.50000
H9A H 1.23000 -0.00000 0.50000
C15B C 1.33690 0.38560 0.50000
C16B C 1.26410 0.30820 0.50000
C17B C 1.13720 0.15810 0.50000
C18B C 1.06300 0.08000 0.50000
O1C O 0.63190 -0.41500 0.44960
C1C C 0.76380 -0.26420 0.55190
H1C H 0.73790 -0.28660 0.58930
C2C C 0.82510 -0.19200 0.55180
H2C H 0.84190 -0.16490 0.58860
C15C C 0.66310 -0.38560 0.50000
C16C C 0.73590 -0.30820 0.50000
C17C C 0.86280 -0.15810 0.50000
C18C C 0.93700 -0.08000 0.50000
O1D O 1.36810 -0.41500 0.44960
C1D C 1.23620 -0.26420 0.55190
H1D H 1.26210 -0.28660 0.58930
C2D C 1.17490 -0.19200 0.55180
H2D H 1.15810 -0.16490 0.58860
C15A C 1.33690 -0.38560 0.50000
C16A C 1.26410 -0.30820 0.50000
C17A C 1.13720 -0.15810 0.50000
C18A C 1.06300 -0.08000 0.50000
O1E O 0.63190 0.41500 0.44960
C1E C 0.76380 0.26420 0.55190
H1E H 0.73790 0.28660 0.58930
C2E C 0.82510 0.19200 0.55180
H2E H 0.84190 0.16490 0.58860
O1F O 0.63190 -0.41500 0.55040
C1F C 0.76380 -0.26420 0.44810
H1F H 0.73790 -0.28660 0.41070
C2F C 0.82510 -0.19200 0.44820
H2F H 0.84190 -0.16490 0.41140
O1G O 1.36810 0.41500 0.55040
C1G C 1.23620 0.26420 0.44810
H1G H 1.26210 0.28660 0.41070
C2G C 1.17490 0.19200 0.44820
H2G H 1.15810 0.16490 0.41140
O1A O 1.36810 -0.41500 0.55040
C1A C 1.23620 -0.26420 0.44810
H1A H 1.26210 -0.28660 0.41070
C2A C 1.17490 -0.19200 0.44820
H2A H 1.15810 -0.16490 0.41140
O2A O 0.60960 0.38330 0.84270
C3A C 0.59906 0.46910 0.68680
H3A H 0.67026 0.44360 0.66660
C4A C 0.60130 0.46860 0.74850
H4A H 0.67690 0.44650 0.76760
C5A C 0.55717 0.43704 0.87100
C6A C 0.55660 0.43740 0.93880
C7A C 0.61100 0.37230 0.96860
C8A C 0.61496 0.22449 0.92407
C9A C 0.81729 0.22030 0.89674
C10A C 0.70578 0.17323 0.90112
C11A C 0.79170 0.29937 0.91673
H5A H 0.51766 0.21356 0.93361
H6A H 0.90657 0.19860 0.88061
H7A H 0.69260 0.10897 0.88824
H8A H 0.84894 0.35440 0.92034
N1A N 0.66747 0.30187 0.93289
O2B O 0.60960 0.61670 1.15730
C3B C 0.59906 0.53090 1.31320
H3B H 0.67026 0.55640 1.33340
C4B C 0.60130 0.53140 1.25150
H4B H 0.67690 0.55350 1.23240
C5B C 0.55717 0.56296 1.12900
C6B C 0.55660 0.56260 1.06120
C7B C 0.61100 0.62770 1.03140
C8B C 0.61496 0.77551 1.07593
C9B C 0.81729 0.77970 1.10326
C10B C 0.70578 0.82677 1.09888
C11B C 0.79170 0.70063 1.08327
H5B H 0.51766 0.78644 1.06639
H6B H 0.90657 0.80140 1.11939
H7B H 0.69260 0.89103 1.11176
H8B H 0.84894 0.64560 1.07966
N1B N 0.66747 0.69813 1.06711
N2B N 0.50000 0.50000 1.34880
N3B N 0.50000 0.50000 1.15660
C12B C 0.50000 0.50000 1.21750
C13B C 0.50000 0.50000 1.03490
O2C O 0.39040 0.38330 1.15730
C3C C 0.40094 0.46910 1.31320
H3C H 0.32974 0.44360 1.33340
C4C C 0.39870 0.46860 1.25150
H4C H 0.32310 0.44650 1.23240
C5C C 0.44283 0.43704 1.12900
C6C C 0.44340 0.43740 1.06120
C7C C 0.38900 0.37230 1.03140
C8C C 0.38504 0.22449 1.07593
C9C C 0.18271 0.22030 1.10326
C10C C 0.29422 0.17323 1.09888
C11C C 0.20830 0.29937 1.08327
H5C H 0.48234 0.21356 1.06639
H6C H 0.09343 0.19860 1.11939
H7C H 0.30740 0.10897 1.11176
H8C H 0.15106 0.35440 1.07966
N1C N 0.33253 0.30187 1.06711
O2D O 0.60960 0.38330 1.15730
C3D C 0.59906 0.46910 1.31320
H3D H 0.67026 0.44360 1.33340
C4D C 0.60130 0.46860 1.25150
H4D H 0.67690 0.44650 1.23240
C5D C 0.55717 0.43704 1.12900
C6D C 0.55660 0.43740 1.06120
C7D C 0.61100 0.37230 1.03140
C8D C 0.61496 0.22449 1.07593
C9D C 0.81729 0.22030 1.10326
C10D C 0.70578 0.17323 1.09888
C11D C 0.79170 0.29937 1.08327
H5D H 0.51766 0.21356 1.06639
H6D H 0.90657 0.19860 1.11939
H7D H 0.69260 0.10897 1.11176
H8D H 0.84894 0.35440 1.07966
N1D N 0.66747 0.30187 1.06711
O2E O 0.39040 0.61670 1.15730
C3E C 0.40094 0.53090 1.31320
H3E H 0.32974 0.55640 1.33340
C4E C 0.39870 0.53140 1.25150
H4E H 0.32310 0.55350 1.23240
C5E C 0.44283 0.56296 1.12900
C6E C 0.44340 0.56260 1.06120
C7E C 0.38900 0.62770 1.03140
C8E C 0.38504 0.77551 1.07593
C9E C 0.18271 0.77970 1.10326
C10E C 0.29422 0.82677 1.09888
C11E C 0.20830 0.70063 1.08327
H5E H 0.48234 0.78644 1.06639
H6E H 0.09343 0.80140 1.11939
H7E H 0.30740 0.89103 1.11176
H8E H 0.15106 0.64560 1.07966
N1E N 0.33253 0.69813 1.06711
O2F O 0.39040 0.38330 0.84270
C3F C 0.40094 0.46910 0.68680
H3F H 0.32974 0.44360 0.66660
C4F C 0.39870 0.46860 0.74850
H4F H 0.32310 0.44650 0.76760
C5F C 0.44283 0.43704 0.87100
C6F C 0.44340 0.43740 0.93880
C7F C 0.38900 0.37230 0.96860
C8F C 0.38504 0.22449 0.92407
C9F C 0.18271 0.22030 0.89674
C10F C 0.29422 0.17323 0.90112
C11F C 0.20830 0.29937 0.91673
H5F H 0.48234 0.21356 0.93361
H6F H 0.09343 0.19860 0.88061
H7F H 0.30740 0.10897 0.88824
H8F H 0.15106 0.35440 0.92034
N1F N 0.33253 0.30187 0.93289
O2G O 0.60960 0.61670 0.84270
C3G C 0.59906 0.53090 0.68680
H3G H 0.67026 0.55640 0.66660
C4G C 0.60130 0.53140 0.74850
H4G H 0.67690 0.55350 0.76760
C5G C 0.55717 0.56296 0.87100
C6G C 0.55660 0.56260 0.93880
C7G C 0.61100 0.62770 0.96860
C8G C 0.61496 0.77551 0.92407
C9G C 0.81729 0.77970 0.89674
C10G C 0.70578 0.82677 0.90112
C11G C 0.79170 0.70063 0.91673
H5G H 0.51766 0.78644 0.93361
H6G H 0.90657 0.80140 0.88061
H7G H 0.69260 0.89103 0.88824
H8G H 0.84894 0.64560 0.92034
N1G N 0.66747 0.69813 0.93289
Zn1B Zn 0.50000 0.50000 0.43451
O1A_2 O 0.36810 0.58500 0.55040
O1B_2 O 0.36810 0.41500 0.44960
O1C_2 O 0.63190 0.58500 0.44960
O1D_2 O 0.36810 0.58500 0.44960
O1F_2 O 0.63190 0.58500 0.55040
O1G_2 O 0.36810 0.41500 0.55040
Zn1_2 Zn 0.50000 -0.50000 0.56549
Zn1_3 Zn 1.50000 -0.50000 0.56549
Zn1_4 Zn 1.50000 0.50000 0.56549
Zn1B_2 Zn 0.50000 -0.50000 0.43451
Zn1B_3 Zn 0.50000 0.50000 1.43451
Zn1B_4 Zn 1.50000 -0.50000 0.43451
Zn1B_5 Zn 1.50000 0.50000 0.43451
N2B_2 N 0.50000 0.50000 0.34880
loop_
_geom_bond_atom_site_label_1
_geom_bond_atom_site_label_2
_geom_bond_site_symmetry_1
_geom_bond_site_symmetry_2
O1 Zn1 1_555 1_555
C1 H1 1_555 1_555
C2 C1 1_555 1_555
H2 C2 1_555 1_555
O2 C5 1_555 1_555
C3 H3 1_555 1_555
C4 C3 1_555 1_555
H4 C4 1_555 1_555
C5 C6 1_555 1_555
C6 C7 1_555 1_555
C7 N1 1_555 1_555
C8 C10 1_555 1_555
C9 C10 1_555 1_555
C10 H7 1_555 1_555
C11 C9 1_555 1_555
H5 C8 1_555 1_555
H6 C9 1_555 1_555
H8 C11 1_555 1_555
N1 C8 1_555 1_555
Zn1 N2 1_555 1_555
N2 C3 1_555 1_555
N3 C5 1_555 1_555
C12 C4 1_555 1_555
C13 C6 1_555 1_555
C14 H9 1_555 1_555
C15 O1 1_555 1_555
C16 C1 1_555 1_555
C17 C2 1_555 1_555
C18 C14 1_555 1_555
O1B C15B 1_555 1_555
C1B H1B 1_555 1_555
C2B C1B 1_555 1_555
H2B C2B 1_555 1_555
C14A H9A 1_555 1_555
C15B C16B 1_555 1_555
C16B C1B 1_555 1_555
C17B C2B 1_555 1_555
C18B C18 1_555 1_555
O1C C15C 1_555 1_555
C1C H1C 1_555 1_555
C2C C1C 1_555 1_555
H2C C2C 1_555 1_555
C15C C16C 1_555 1_555
C16C C1C 1_555 1_555
C17C C2C 1_555 1_555
C18C C14 1_555 1_555
O1D C15A 1_555 1_555
C1D H1D 1_555 1_555
C2D C1D 1_555 1_555
H2D C2D 1_555 1_555
C15A C16A 1_555 1_555
C16A C1D 1_555 1_555
C17A C2D 1_555 1_555
C18A C14A 1_555 1_555
O1E C15 1_555 1_555
C1E C16 1_555 1_555
H1E C1E 1_555 1_555
C2E C17 1_555 1_555
H2E C2E 1_555 1_555
O1F C15C 1_555 1_555
C1F C16C 1_555 1_555
H1F C1F 1_555 1_555
C2F C17C 1_555 1_555
H2F C2F 1_555 1_555
O1G C15B 1_555 1_555
C1G C16B 1_555 1_555
H1G C1G 1_555 1_555
C2G C17B 1_555 1_555
H2G C2G 1_555 1_555
O1A C15A 1_555 1_555
C1A C16A 1_555 1_555
H1A C1A 1_555 1_555
C2A C17A 1_555 1_555
H2A C2A 1_555 1_555
O2A C5A 1_555 1_555
C3A N2 1_555 1_555
H3A C3A 1_555 1_555
C4A C12 1_555 1_555
H4A C4A 1_555 1_555
C5A N3 1_555 1_555
C6A C13 1_555 1_555
C7A C6A 1_555 1_555
C8A C10A 1_555 1_555
C9A C10A 1_555 1_555
C10A H7A 1_555 1_555
C11A C9A 1_555 1_555
H5A C8A 1_555 1_555
H6A C9A 1_555 1_555
H8A C11A 1_555 1_555
N1A C7A 1_555 1_555
O2B C5B 1_555 1_555
C3B H3B 1_555 1_555
C4B C3B 1_555 1_555
H4B C4B 1_555 1_555
C5B C6B 1_555 1_555
C6B C7B 1_555 1_555
C7B N1B 1_555 1_555
C8B C10B 1_555 1_555
C9B C10B 1_555 1_555
C10B H7B 1_555 1_555
C11B C9B 1_555 1_555
H5B C8B 1_555 1_555
H6B C9B 1_555 1_555
H8B C11B 1_555 1_555
N1B C8B 1_555 1_555
N2B C3B 1_555 1_555
N3B C5B 1_555 1_555
C12B C4B 1_555 1_555
C13B C13 1_555 1_555
O2C C5C 1_555 1_555
C3C N2B 1_555 1_555
H3C C3C 1_555 1_555
C4C C12B 1_555 1_555
H4C C4C 1_555 1_555
C5C N3B 1_555 1_555
C6C C13B 1_555 1_555
C7C C6C 1_555 1_555
C8C C10C 1_555 1_555
C9C C10C 1_555 1_555
C10C H7C 1_555 1_555
C11C C9C 1_555 1_555
H5C C8C 1_555 1_555
H6C C9C 1_555 1_555
H8C C11C 1_555 1_555
N1C C7C 1_555 1_555
O2D C5D 1_555 1_555
C3D C3B 1_555 1_555
H3D C3D 1_555 1_555
C4D C4B 1_555 1_555
H4D C4D 1_555 1_555
C5D N3B 1_555 1_555
C6D C13B 1_555 1_555
C7D C7A 1_555 1_555
C8D C10D 1_555 1_555
C9D C10D 1_555 1_555
C10D H7D 1_555 1_555
C11D C9D 1_555 1_555
H5D C8D 1_555 1_555
H6D C9D 1_555 1_555
H8D C11D 1_555 1_555
N1D C7D 1_555 1_555
O2E C5E 1_555 1_555
C3E N2B 1_555 1_555
H3E C3E 1_555 1_555
C4E C12B 1_555 1_555
H4E C4E 1_555 1_555
C5E C5B 1_555 1_555
C6E C6B 1_555 1_555
C7E C7 1_555 1_555
C8E C10E 1_555 1_555
C9E C10E 1_555 1_555
C10E H7E 1_555 1_555
C11E C9E 1_555 1_555
H5E C8E 1_555 1_555
H6E C9E 1_555 1_555
H8E C11E 1_555 1_555
N1E C7E 1_555 1_555
O2F C5F 1_555 1_555
C3F C3 1_555 1_555
H3F C3F 1_555 1_555
C4F C4 1_555 1_555
H4F C4F 1_555 1_555
C5F N3 1_555 1_555
C6F C13 1_555 1_555
C7F C7C 1_555 1_555
C8F C10F 1_555 1_555
C9F C10F 1_555 1_555
C10F H7F 1_555 1_555
C11F C9F 1_555 1_555
H5F C8F 1_555 1_555
H6F C9F 1_555 1_555
H8F C11F 1_555 1_555
N1F C7F 1_555 1_555
O2G C5G 1_555 1_555
C3G N2 1_555 1_555
H3G C3G 1_555 1_555
C4G C12 1_555 1_555
H4G C4G 1_555 1_555
C5G C5 1_555 1_555
C6G C6 1_555 1_555
C7G C7B 1_555 1_555
C8G C10G 1_555 1_555
C9G C10G 1_555 1_555
C10G H7G 1_555 1_555
C11G C9G 1_555 1_555
H5G C8G 1_555 1_555
H6G C9G 1_555 1_555
H8G C11G 1_555 1_555
N1G C7G 1_555 1_555
Zn1B O1E 1_555 1_555
O1A_2 Zn1 1_555 1_555
O1B_2 Zn1B 1_555 1_555
O1C_2 Zn1B 1_555 1_555
O1D_2 Zn1B 1_555 1_555
O1F_2 Zn1 1_555 1_555
O1G_2 Zn1 1_555 1_555
Zn1_2 O1F 1_555 1_555
Zn1_3 O1A 1_555 1_555
Zn1_4 O1G 1_555 1_555
Zn1B_2 O1C 1_555 1_555
Zn1B_3 N2B 1_555 1_555
Zn1B_4 O1D 1_555 1_555
Zn1B_5 O1B 1_555 1_555
N2B_2 Zn1B 1_555 1_555
C11 N1 1_555 1_555
N2 C3F 1_555 1_555
N3 C12 1_555 1_555
N3 C5G 1_555 1_555
C12 C4F 1_555 1_555
C13 C6G 1_555 1_555
C15 C16 1_555 1_555
C17 C18 1_555 1_555
C14A C18B 1_555 1_555
C17B C18B 1_555 1_555
C17C C18C 1_555 1_555
C18C C18A 1_555 1_555
C17A C18A 1_555 1_555
C1E C2E 1_555 1_555
C1F C2F 1_555 1_555
C1G C2G 1_555 1_555
C1A C2A 1_555 1_555
C3A C4A 1_555 1_555
C3A C3G 1_555 1_555
C4A C4G 1_555 1_555
C5A C6A 1_555 1_555
C5A C5F 1_555 1_555
C6A C6F 1_555 1_555
C8A N1A 1_555 1_555
C11A N1A 1_555 1_555
C6B C13B 1_555 1_555
C11B N1B 1_555 1_555
N2B C3D 1_555 1_555
N3B C12B 1_555 1_555
N3B C5E 1_555 1_555
C12B C4D 1_555 1_555
C13B C6E 1_555 1_555
C3C C4C 1_555 1_555
C3C C3E 1_555 1_555
C4C C4E 1_555 1_555
C5C C6C 1_555 1_555
C5C C5D 1_555 1_555
C6C C6D 1_555 1_555
C8C N1C 1_555 1_555
C11C N1C 1_555 1_555
C3D C4D 1_555 1_555
C5D C6D 1_555 1_555
C6D C7D 1_555 1_555
C8D N1D 1_555 1_555
C11D N1D 1_555 1_555
C3E C4E 1_555 1_555
C5E C6E 1_555 1_555
C6E C7E 1_555 1_555
C8E N1E 1_555 1_555
C11E N1E 1_555 1_555
C3F C4F 1_555 1_555
C5F C6F 1_555 1_555
C6F C7F 1_555 1_555
C8F N1F 1_555 1_555
C11F N1F 1_555 1_555
C3G C4G 1_555 1_555
C5G C6G 1_555 1_555
C6G C7G 1_555 1_555
C8G N1G 1_555 1_555
C11G N1G 1_555 1_555

#END
