
#######################################################################
#
#                 Cambridge Crystallographic Data Centre
#                                CCDC 
#
#######################################################################
#
# If this CIF has been generated from an entry in the Cambridge 
# Structural Database, then it will include bibliographic, chemical, 
# crystal, experimental, refinement or atomic coordinate data resulting 
# from the CCDC's data processing and validation procedures.
#
#######################################################################

data_LORROB
_chemical_formula_moiety         '(C85 H77 Eu3 N10 O22)n'
_symmetry_cell_setting           monoclinic
_symmetry_space_group_name_H-M   'P 21/n'
_symmetry_Int_Tables_number      14
_space_group_name_Hall           '-P 2yn'
loop_
_symmetry_equiv_pos_site_id
_symmetry_equiv_pos_as_xyz
1 x,y,z
2 1/2-x,1/2+y,1/2-z
3 -x,-y,-z
4 1/2+x,1/2-y,1/2+z
_cell_length_a                   14.6534(5)
_cell_length_b                   17.7687(6)
_cell_length_c                   31.9462(10)
_cell_angle_alpha                90
_cell_angle_beta                 90.2920(10)
_cell_angle_gamma                90
_cell_volume                     8317.78
loop_
_atom_site_label
_atom_site_type_symbol
_atom_site_fract_x
_atom_site_fract_y
_atom_site_fract_z
C1 C 0.5480(4) 0.5808(3) -0.04749(19)
C2 C 0.4589(4) 0.5942(3) -0.06065(18)
H1 H 0.4354 0.6440 -0.0602
C3 C 0.4044(4) 0.5357(3) -0.07432(18)
C4 C 0.4417(4) 0.4634(3) -0.07346(18)
H2 H 0.4073 0.4216 -0.0832
C5 C 0.5306(4) 0.4533(3) -0.05800(18)
C6 C 0.5733(3) 0.3782(3) -0.05416(17)
C7 C 0.5235(4) 0.3117(3) -0.05538(19)
H3 H 0.4595 0.3136 -0.0601
C8 C 0.5660(3) 0.2422(3) -0.04984(18)
H4 H 0.5309 0.1972 -0.0508
C9 C 0.6589(3) 0.2386(3) -0.04292(17)
C10 C 0.7091(4) 0.3041(3) -0.0413(3)
H5 H 0.7730 0.3020 -0.0362
C11 C 0.6664(4) 0.3732(3) -0.0470(3)
H6 H 0.7019 0.4180 -0.0459
C12 C 0.7046(3) 0.1643(3) -0.03574(15)
C13 C 0.3098(4) 0.5488(3) -0.0899(2)
C14 C 0.2436(4) 0.4925(3) -0.0897(2)
H7 H 0.2576 0.4440 -0.0789
C15 C 0.1579(5) 0.5075(4) -0.1054(3)
H8 H 0.1143 0.4680 -0.1049
C16 C 0.1959(5) 0.6282(5) -0.1208(3)
H9 H 0.1799 0.6762 -0.1316
C17 C 0.2830(5) 0.6182(4) -0.1055(3)
H10 H 0.3250 0.6589 -0.1057
C18 C 1.0009(3) 0.8657(3) 0.11367(15)
C19 C 1.0768(3) 0.8252(3) 0.13611(16)
C20 C 1.1663(4) 0.8403(3) 0.12515(17)
H11 H 1.1792 0.8763 0.1040
C21 C 1.2370(4) 0.8026(3) 0.14516(17)
H12 H 1.2982 0.8137 0.1378
C22 C 1.2199(4) 0.7491(3) 0.17570(16)
C23 C 1.1291(4) 0.7358(3) 0.18690(18)
H13 H 1.1158 0.7006 0.2084
C24 C 1.0584(4) 0.7733(3) 0.16694(17)
H14 H 0.9970 0.7633 0.1746
C25 C 1.2962(4) 0.7079(3) 0.19663(17)
C26 C 1.3812(4) 0.7030(3) 0.17833(17)
H15 H 1.3913 0.7244 0.1515
C27 C 1.4520(4) 0.6668(3) 0.19939(17)
C28 C 1.4324(4) 0.6337(3) 0.23748(16)
H16 H 1.4785 0.6074 0.2525
C29 C 1.3445(4) 0.6391(3) 0.25365(16)
C30 C 1.3201(4) 0.6074(3) 0.29550(16)
C31 C 1.3801(4) 0.5607(3) 0.31734(16)
H17 H 1.4362 0.5462 0.3050
C32 C 1.3580(3) 0.5352(3) 0.35731(15)
H18 H 1.3992 0.5029 0.3717
C33 C 1.2777(3) 0.5560(3) 0.37620(15)
C34 C 1.2166(4) 0.6017(3) 0.35391(17)
H19 H 1.1598 0.6150 0.3660
C35 C 1.2384(4) 0.6275(3) 0.31469(17)
H20 H 1.1969 0.6596 0.3003
C36 C 1.2551(3) 0.5316(3) 0.41936(15)
C37 C 1.5457(4) 0.6665(3) 0.18207(17)
C38 C 1.6089(4) 0.6119(4) 0.1934(2)
H21 H 1.5921 0.5725 0.2119
C39 C 1.6966(5) 0.6151(4) 0.1775(3)
H22 H 1.7390 0.5775 0.1859
C40 C 1.6650(4) 0.7188(4) 0.1400(2)
H23 H 1.6832 0.7566 0.1207
C41 C 1.5759(4) 0.7203(4) 0.15499(19)
H24 H 1.5357 0.7593 0.1463
C42 C 0.6310(4) 0.9338(3) 0.09884(18)
C43 C 0.5712(4) 0.9263(3) 0.13679(17)
C44 C 0.4776(4) 0.9365(3) 0.13390(18)
H25 H 0.4506 0.9506 0.1080
C45 C 0.4235(4) 0.9260(3) 0.16888(18)
H26 H 0.3595 0.9338 0.1669
C46 C 0.4621(4) 0.9041(3) 0.20698(17)
C47 C 0.5561(4) 0.8956(4) 0.20948(19)
H27 H 0.5838 0.8815 0.2352
C48 C 0.6092(4) 0.9076(4) 0.17473(18)
H28 H 0.6737 0.9029 0.1770
C49 C 0.4050(4) 0.8838(3) 0.24380(17)
C50 C 0.3153(4) 0.9052(3) 0.24825(17)
H29 H 0.2870 0.9369 0.2280
C51 C 0.2664(4) 0.8799(3) 0.28271(17)
C52 C 0.3098(4) 0.8339(3) 0.31120(18)
H30 H 0.2777 0.8154 0.3348
C53 C 0.4011(4) 0.8146(3) 0.30515(17)
C54 C 0.4514(4) 0.7625(3) 0.33351(17)
C55 C 0.4206(4) 0.7444(3) 0.37316(18)
H31 H 0.3703 0.7709 0.3847
C56 C 0.4626(4) 0.6880(3) 0.39607(16)
H32 H 0.4411 0.6762 0.4233
C57 C 0.5357(3) 0.6486(3) 0.37969(16)
C58 C 0.5697(4) 0.6689(3) 0.34049(17)
H33 H 0.6210 0.6433 0.3293
C59 C 0.5295(4) 0.7256(3) 0.31812(18)
H34 H 0.5543 0.7403 0.2920
C60 C 0.5730(3) 0.5810(3) 0.40067(16)
C61 C 0.1687(4) 0.8985(4) 0.2870(2)
C62 C 0.1120(4) 0.9050(4) 0.2525(2)
H35 H 0.1360 0.8982 0.2252
C63 C 0.0210(5) 0.9212(4) 0.2575(3)
H36 H -0.0163 0.9234 0.2331
C64 C 0.0363(7) 0.9285(6) 0.3264(3)
H37 H 0.0101 0.9371 0.3531
C65 C 0.1299(6) 0.9111(5) 0.3257(3)
H38 H 0.1650 0.9081 0.3507
C66 C 0.5312(4) 1.1042(3) 0.04912(19)
H39 H 0.4937 1.1326 0.0675
O1 O 1.0340(3) 0.8020(2) -0.00111(12)
C67 C 1.0276(10) 0.6083(8) 0.0350(5)
C68 C 1.0613(13) 0.6603(11) -0.0352(6)
C69 C 1.0292(5) 0.7446(5) 0.0206(3)
N1 N 0.1317(4) 0.5733(4) -0.1211(3)
N2 N 0.5826(3) 0.5116(2) -0.04575(15)
N3 N 1.7244(4) 0.6683(3) 0.15110(18)
N4 N 1.2768(3) 0.6758(2) 0.23374(13)
N5 N -0.0181(5) 0.9339(5) 0.2942(3)
N6 N 0.4476(3) 0.8395(3) 0.27186(14)
N7 N 1.0296(5) 0.6754(4) 0.0050(2)
O2 O 0.6558(2) 0.10669(18) -0.03762(12)
O3 O 0.7888(2) 0.16432(18) -0.02813(12)
O4 O 1.0180(2) 0.89907(19) 0.07915(10)
O5 O 0.9218(2) 0.8665(2) 0.12837(12)
O6 O 1.1769(2) 0.54672(19) 0.43344(10)
O7 O 1.3158(2) 0.49743(18) 0.44055(10)
O8 O 0.5918(3) 0.9444(2) 0.06423(12)
O9 O 0.7154(2) 0.9272(2) 0.10423(12)
O10 O 0.6250(3) 0.5377(2) 0.38100(11)
O11 O 0.5484(2) 0.56562(19) 0.43810(11)
O12 O 0.4937(2) 1.06646(18) 0.02047(11)
O13 O 0.6143(3) 1.1058(2) 0.05431(15)
O14 O 0.7797(2) 1.03735(17) 0.03220(10)
O15 O 0.9318(2) 0.94659(17) 0.00600(10)
H40 H 0.779(14) 1.0610(16) 0.0564(9)
H41 H 0.915(14) 0.918(10) -0.014(4)
C70 C 0.7623(3) 0.8210(3) 0.02239(16)
C71 C 0.7132(4) 0.7584(3) 0.00142(18)
C72 C 0.6486(4) 0.7732(3) -0.0289(2)
H42 H 0.6398 0.8234 -0.0383
C73 C 0.5961(4) 0.7157(3) -0.0459(2)
H43 H 0.5517 0.7269 -0.0667
C74 C 0.6078(4) 0.6422(3) -0.03275(18)
C75 C 0.6786(4) 0.6267(3) -0.0049(2)
H44 H 0.6922 0.5759 0.0021
C76 C 0.7296(4) 0.6845(3) 0.0130(2)
H45 H 0.7755 0.6733 0.0332
O16 O 0.7427(2) 0.88857(17) 0.01343(11)
O17 O 0.8238(3) 0.8073(2) 0.04957(12)
Eu1 Eu 0.853165(15) 0.938129(13) 0.069392(7)
Eu2 Eu 1.094230(15) 0.924572(12) 0.012380(7)
Eu3 Eu 0.641874(15) 0.997419(12) 0.001418(7)
O2_2 O 0.6558(2) 1.10669(18) -0.03762(12)
O3B O 1.2112(2) 0.83568(18) 0.02813(12)
O6C O 0.6769(2) 0.95328(19) -0.06656(10)
O7A O 1.1842(2) 0.99743(18) 0.05945(10)
O10A O 0.8750(3) 1.0377(2) 0.11900(11)
O11A O 0.9516(2) 1.06562(19) 0.06190(11)
O11C O 1.0484(2) 0.93438(19) -0.06190(11)
O12B O 0.5063(2) 0.93354(18) -0.02047(11)
O14B O 1.2203(2) 0.96265(17) -0.03220(10)
O15B O 1.0682(2) 1.05341(17) -0.00600(10)
Eu1A Eu 0.646835(15) 0.438129(13) 0.430608(7)
Eu2A Eu 1.405770(15) 0.424572(12) 0.487620(7)
Eu2B Eu 0.905770(15) 0.075428(12) -0.012380(7)
Eu2B_2 Eu 0.905770(15) 1.075428(12) -0.012380(7)
Eu2C Eu 0.594230(15) 0.575428(12) 0.512380(7)
Eu3_2 Eu 0.641874(15) -0.002581(12) 0.001418(7)
Eu3B Eu 0.358126(15) 1.002581(12) -0.001418(7)
Eu3C Eu 1.141874(15) 0.502581(12) 0.501418(7)
O18 O 1.8889(3) 0.6815(3) 0.10390(16)
N8 N -0.2102(6) 0.8995(5) 0.2410(3)
O19 O -0.2071(7) 1.0252(7) 0.2300(4)
C77 C -0.1875(7) 0.8239(6) 0.2205(4)
C78 C -0.1917(9) 0.9616(8) 0.2176(4)
C79 C -0.2421(9) 0.9033(7) 0.2832(4)
N9 N 0.3853(7) 1.0135(5) 0.3622(3)
C80 C 0.4490(8) 1.0292(7) 0.3301(4)
C81 C 0.4023(11) 0.9540(9) 0.3878(5)
O20 O 0.3446(9) 0.9358(7) 0.4142(4)
C82 C 0.2953(11) 1.0540(9) 0.3653(5)
O21 O 0.7723(6) 1.1880(5) 0.0722(3)
N10 N -0.4197(9) 1.1662(7) 0.1837(4)
O22 O -0.4490(11) 1.2394(9) 0.1285(5)
C83 C -0.4485(15) 1.1183(13) 0.2211(7)
C84 C -0.4835(16) 1.2258(14) 0.1695(7)
C85 C -0.331(2) 1.1431(16) 0.1693(9)
loop_
_geom_bond_atom_site_label_1
_geom_bond_atom_site_label_2
_geom_bond_site_symmetry_1
_geom_bond_site_symmetry_2
C1 C2 1_555 1_555
C2 H1 1_555 1_555
C3 C2 1_555 1_555
C4 C3 1_555 1_555
H2 C4 1_555 1_555
C5 C4 1_555 1_555
C6 C5 1_555 1_555
C7 C6 1_555 1_555
H3 C7 1_555 1_555
C8 C7 1_555 1_555
H4 C8 1_555 1_555
C9 C8 1_555 1_555
C10 C9 1_555 1_555
H5 C10 1_555 1_555
C11 C6 1_555 1_555
H6 C11 1_555 1_555
C12 C9 1_555 1_555
C13 C3 1_555 1_555
C14 C13 1_555 1_555
H7 C14 1_555 1_555
C15 C14 1_555 1_555
H8 C15 1_555 1_555
C16 H9 1_555 1_555
C17 C13 1_555 1_555
H10 C17 1_555 1_555
C18 C19 1_555 1_555
C19 C20 1_555 1_555
C20 H11 1_555 1_555
C21 C20 1_555 1_555
H12 C21 1_555 1_555
C22 C21 1_555 1_555
C23 C22 1_555 1_555
H13 C23 1_555 1_555
C24 C19 1_555 1_555
H14 C24 1_555 1_555
C25 C22 1_555 1_555
C26 C25 1_555 1_555
H15 C26 1_555 1_555
C27 C26 1_555 1_555
C28 C27 1_555 1_555
H16 C28 1_555 1_555
C29 C28 1_555 1_555
C30 C29 1_555 1_555
C31 C30 1_555 1_555
H17 C31 1_555 1_555
C32 C31 1_555 1_555
H18 C32 1_555 1_555
C33 C32 1_555 1_555
C34 C33 1_555 1_555
H19 C34 1_555 1_555
C35 C30 1_555 1_555
H20 C35 1_555 1_555
C36 C33 1_555 1_555
C37 C27 1_555 1_555
C38 C37 1_555 1_555
H21 C38 1_555 1_555
C39 C38 1_555 1_555
H22 C39 1_555 1_555
C40 H23 1_555 1_555
C41 C37 1_555 1_555
H24 C41 1_555 1_555
C42 C43 1_555 1_555
C43 C44 1_555 1_555
C44 H25 1_555 1_555
C45 C44 1_555 1_555
H26 C45 1_555 1_555
C46 C45 1_555 1_555
C47 C46 1_555 1_555
H27 C47 1_555 1_555
C48 C43 1_555 1_555
H28 C48 1_555 1_555
C49 C46 1_555 1_555
C50 C49 1_555 1_555
H29 C50 1_555 1_555
C51 C50 1_555 1_555
C52 C51 1_555 1_555
H30 C52 1_555 1_555
C53 C52 1_555 1_555
C54 C53 1_555 1_555
C55 C54 1_555 1_555
H31 C55 1_555 1_555
C56 C55 1_555 1_555
H32 C56 1_555 1_555
C57 C56 1_555 1_555
C58 C57 1_555 1_555
H33 C58 1_555 1_555
C59 C54 1_555 1_555
H34 C59 1_555 1_555
C60 C57 1_555 1_555
C61 C51 1_555 1_555
C62 C61 1_555 1_555
H35 C62 1_555 1_555
C63 C62 1_555 1_555
H36 C63 1_555 1_555
C64 H37 1_555 1_555
C65 C61 1_555 1_555
H38 C65 1_555 1_555
C66 H39 1_555 1_555
O1 C69 1_555 1_555
C67 N7 1_555 1_555
C68 N7 1_555 1_555
C69 N7 1_555 1_555
N1 C15 1_555 1_555
N2 C1 1_555 1_555
N3 C39 1_555 1_555
N4 C25 1_555 1_555
N5 C63 1_555 1_555
N6 C49 1_555 1_555
O2 C12 1_555 1_555
O3 C12 1_555 1_555
O4 C18 1_555 1_555
O5 C18 1_555 1_555
O6 C36 1_555 1_555
O7 C36 1_555 1_555
O8 C42 1_555 1_555
O9 C42 1_555 1_555
O10 C60 1_555 1_555
O11 C60 1_555 1_555
O12 C66 1_555 1_555
O13 C66 1_555 1_555
O14 H40 1_555 1_555
O15 H41 1_555 1_555
C70 C71 1_555 1_555
C71 C72 1_555 1_555
C72 H42 1_555 1_555
C73 C72 1_555 1_555
H43 C73 1_555 1_555
C74 C1 1_555 1_555
C75 C74 1_555 1_555
H44 C75 1_555 1_555
C76 C71 1_555 1_555
H45 C76 1_555 1_555
O16 C70 1_555 1_555
O17 C70 1_555 1_555
Eu1 O4 1_555 1_555
Eu2 O1 1_555 1_555
Eu3 O8 1_555 1_555
N8 C77 1_555 1_555
O19 C78 1_555 1_555
C78 N8 1_555 1_555
C79 N8 1_555 1_555
N9 C80 1_555 1_555
C81 N9 1_555 1_555
O20 C81 1_555 1_555
C82 N9 1_555 1_555
N10 C83 1_555 1_555
O22 C84 1_555 1_555
C84 N10 1_555 1_555
C85 N10 1_555 1_555
O2_2 Eu3 1_555 1_555
O3B Eu2 1_555 1_555
O6C Eu3 1_555 1_555
O7A Eu2 1_555 1_555
O10A Eu1 1_555 1_555
O11A Eu1 1_555 1_555
O11C Eu2 1_555 1_555
O12B Eu3 1_555 1_555
O14B Eu2 1_555 1_555
O15B Eu2 1_555 1_555
Eu1A O10 1_555 1_555
Eu2A O7 1_555 1_555
Eu2B O3 1_555 1_555
Eu2B_2 O14 1_555 1_555
Eu2C O11 1_555 1_555
Eu3_2 O2 1_555 1_555
Eu3B O12 1_555 1_555
Eu3C O6 1_555 1_555
C5 N2 1_555 1_555
C10 C11 1_555 1_555
C16 C17 1_555 1_555
C16 N1 1_555 1_555
C23 C24 1_555 1_555
C29 N4 1_555 1_555
C34 C35 1_555 1_555
C40 C41 1_555 1_555
C40 N3 1_555 1_555
C47 C48 1_555 1_555
C53 N6 1_555 1_555
C58 C59 1_555 1_555
C64 C65 1_555 1_555
C64 N5 1_555 1_555
O4 Eu2 1_555 1_555
O5 Eu1 1_555 1_555
O9 Eu1 1_555 1_555
O11 Eu1A 1_555 1_555
O12 Eu3 1_555 1_555
O13 Eu3 1_555 1_555
O14 Eu1 1_555 1_555
O14 Eu3 1_555 1_555
O15 Eu1 1_555 1_555
O15 Eu2 1_555 1_555
O15 Eu2B_2 1_555 1_555
C73 C74 1_555 1_555
C75 C76 1_555 1_555
O16 Eu1 1_555 1_555
O16 Eu3 1_555 1_555
O17 Eu1 1_555 1_555
O11A Eu2B_2 1_555 1_555
O12B Eu3B 1_555 1_555
O15B Eu2B_2 1_555 1_555

#END
