
#######################################################################
#
#                 Cambridge Crystallographic Data Centre
#                                CCDC 
#
#######################################################################
#
# If this CIF has been generated from an entry in the Cambridge 
# Structural Database, then it will include bibliographic, chemical, 
# crystal, experimental, refinement or atomic coordinate data resulting 
# from the CCDC's data processing and validation procedures.
#
#######################################################################

data_LORRUH
_chemical_formula_moiety         '(C73 H47 Eu3 N6 O17)n'
_symmetry_cell_setting           monoclinic
_symmetry_space_group_name_H-M   'P 21/n'
_symmetry_Int_Tables_number      14
_space_group_name_Hall           '-P 2yn'
loop_
_symmetry_equiv_pos_site_id
_symmetry_equiv_pos_as_xyz
1 x,y,z
2 1/2-x,1/2+y,1/2-z
3 -x,-y,-z
4 1/2+x,1/2-y,1/2+z
_cell_length_a                   14.5551(5)
_cell_length_b                   17.8237(7)
_cell_length_c                   31.7548(11)
_cell_angle_alpha                90
_cell_angle_beta                 90.9390(10)
_cell_angle_gamma                90
_cell_volume                     8236.91
loop_
_atom_site_label
_atom_site_type_symbol
_atom_site_fract_x
_atom_site_fract_y
_atom_site_fract_z
C1 C 0.0045(4) 0.3571(4) 0.11131(19)
C2 C 0.0797(4) 0.3152(4) 0.13292(18)
C3 C 0.0625(5) 0.2632(6) 0.1632(2)
H1 H 0.0023 0.2542 0.1712
C4 C 0.1338(6) 0.2235(6) 0.1823(2)
H2 H 0.1203 0.1871 0.2023
C5 C 0.2230(5) 0.2367(4) 0.1725(2)
C6 C 0.2412(5) 0.2930(4) 0.1428(2)
H3 H 0.3014 0.3051 0.1362
C7 C 0.1689(5) 0.3301(4) 0.1235(2)
H4 H 0.1814 0.3665 0.1035
C8 C 0.3007(5) 0.1969(4) 0.1935(2)
C9 C 0.3865(5) 0.1933(4) 0.1769(2)
H5 H 0.3967 0.2143 0.1506
C10 C 0.4591(5) 0.1587(4) 0.1984(2)
C11 C 0.4374(5) 0.1248(5) 0.2365(2)
H6 H 0.4825 0.0990 0.2516
C12 C 0.3488(5) 0.1292(4) 0.25199(19)
C13 C 0.3232(5) 0.0976(4) 0.2933(2)
C14 C 0.3819(5) 0.0520(4) 0.31632(19)
H7 H 0.4377 0.0376 0.3049
C15 C 0.3595(4) 0.0274(4) 0.35584(19)
H8 H 0.3994 -0.0044 0.3704
C16 C 0.2785(4) 0.0495(4) 0.37418(18)
C17 C 0.2163(5) 0.0927(4) 0.3507(2)
H9 H 0.1592 0.1050 0.3614
C18 C 0.2412(5) 0.1168(5) 0.3114(2)
H10 H 0.2008 0.1475 0.2964
C19 C 0.2556(4) 0.0265(4) 0.41853(17)
C20 C 0.5523(5) 0.1587(4) 0.1823(2)
C21 C 0.6135(6) 0.1012(5) 0.1912(3)
H11 H 0.5961 0.0605 0.2076
C22 C 0.7007(7) 0.1057(6) 0.1753(3)
H12 H 0.7415 0.0672 0.1822
C23 C 0.6720(6) 0.2133(6) 0.1430(3)
H13 H 0.6899 0.2532 0.1261
C24 C 0.5845(5) 0.2144(5) 0.1577(2)
H14 H 0.5461 0.2544 0.1507
C25 C 0.2971(4) 0.3349(3) 0.03370(18)
C26 C 0.3425(4) 0.2611(3) 0.0414(2)
C27 C 0.2938(5) 0.1951(4) 0.0394(3)
H15 H 0.2311 0.1967 0.0333
C28 C 0.3353(5) 0.1264(4) 0.0460(3)
H16 H 0.3002 0.0828 0.0446
C29 C 0.4274(5) 0.1219(3) 0.0546(2)
C30 C 0.4757(5) 0.1877(4) 0.0571(3)
H17 H 0.5385 0.1863 0.0628
C31 C 0.4329(5) 0.2559(4) 0.0515(2)
H18 H 0.4672 0.2996 0.0548
C32 C 0.4724(5) 0.0468(4) 0.0593(2)
C33 C 0.5622(5) 0.0389(4) 0.0730(2)
H19 H 0.5972 0.0807 0.0802
C34 C 0.5994(5) -0.0323(4) 0.0759(3)
C35 C 0.5447(5) -0.0919(4) 0.0650(3)
H20 H 0.5684 -0.1403 0.0664
C36 C 0.4549(5) -0.0812(4) 0.0518(2)
C37 C 0.3948(6) -0.1422(4) 0.0380(3)
C38 C 0.4141(6) -0.2140(4) 0.0434(3)
H21 H 0.4663 -0.2267 0.0591
C39 C 0.3595(6) -0.2726(4) 0.0265(3)
H22 H 0.3759 -0.3221 0.0318
C40 C 0.2879(6) -0.2587(4) 0.0040(3)
C41 C 0.2636(6) -0.1853(4) -0.0042(3)
H23 H 0.2152 -0.1737 -0.0225
C42 C 0.3149(6) -0.1281(4) 0.0163(3)
H24 H 0.2933 -0.0791 0.0149
C43 C 0.2382(4) -0.3196(4) -0.0182(2)
C44 C 0.6994(9) -0.0425(8) 0.0883(6)
C45 C 0.7669(8) 0.0062(7) 0.0783(6)
H25 H 0.7534 0.0480 0.0619
C46 C 0.8554(9) -0.0060(7) 0.0924(6)
H26 H 0.9010 0.0253 0.0822
C47 C 0.8130(8) -0.1025(7) 0.1365(6)
H27 H 0.8250 -0.1325 0.1598
C48 C 0.7222(8) -0.0999(7) 0.1168(6)
H28 H 0.6791 -0.1365 0.1231
C49 C 0.0701(5) 0.4237(4) -0.1002(2)
C50 C 0.0338(5) 0.3545(4) -0.1211(2)
C51 C -0.0428(5) 0.3189(4) -0.1057(2)
H29 H -0.0667 0.3335 -0.0800
C52 C -0.0844(6) 0.2612(5) -0.1286(2)
H30 H -0.1356 0.2370 -0.1180
C53 C -0.0496(5) 0.2396(4) -0.1675(2)
C54 C 0.0309(5) 0.2730(4) -0.1814(2)
H31 H 0.0571 0.2565 -0.2062
C55 C 0.0721(5) 0.3301(5) -0.1590(2)
H32 H 0.1253 0.3524 -0.1689
C56 C -0.0993(6) 0.1849(4) -0.1952(2)
C57 C -0.1914(5) 0.1669(5) -0.1906(2)
H33 H -0.2234 0.1848 -0.1675
C58 C -0.2356(5) 0.1224(5) -0.2203(2)
C59 C -0.1865(5) 0.0986(5) -0.2539(2)
H34 H -0.2146 0.0693 -0.2747
C60 C -0.0946(5) 0.1179(4) -0.2573(2)
C61 C -0.0364(5) 0.0983(4) -0.2943(2)
C62 C -0.0750(5) 0.0796(4) -0.3330(2)
H35 H -0.1383 0.0734 -0.3359
C63 C -0.0201(4) 0.0701(4) -0.3670(2)
H36 H -0.0467 0.0587 -0.3931
C64 C 0.0747(5) 0.0772(4) -0.3635(2)
C65 C 0.1123(5) 0.0930(5) -0.3247(2)
H37 H 0.1759 0.0958 -0.3216
C66 C 0.0582(5) 0.1046(5) -0.2905(2)
H38 H 0.0850 0.1167 -0.2646
C67 C 0.1337(5) 0.0705(4) -0.40162(19)
C68 C -0.3347(6) 0.1056(6) -0.2170(3)
C69 C -0.3915(7) 0.1085(6) -0.2513(4)
H39 H -0.3679 0.1192 -0.2777
C70 C -0.4853(8) 0.0953(8) -0.2468(5)
H40 H -0.5234 0.0978 -0.2705
C71 C -0.4684(9) 0.0740(10) -0.1784(5)
H41 H -0.4937 0.0598 -0.1529
C72 C -0.3742(8) 0.0880(8) -0.1794(4)
H42 H -0.3386 0.0854 -0.1549
C73 C 0.4637(5) 0.3995(4) -0.0535(2)
H43 H 0.4982 0.3749 -0.0736
N1 N 0.7320(5) 0.1613(5) 0.1505(3)
N2 N 0.2808(4) 0.1646(4) 0.23062(16)
N3 N 0.8804(7) -0.0588(6) 0.1193(5)
N4 N 0.4197(4) -0.0123(3) 0.04938(19)
N5 N -0.5216(7) 0.0795(7) -0.2105(4)
N6 N -0.0523(4) 0.1615(4) -0.22788(17)
O1 O 0.0308(4) 0.2979(3) -0.00284(16)
O2 O 0.1777(3) 0.0424(2) 0.43157(12)
O3 O 0.3163(3) -0.0067(2) 0.44003(12)
O4 O 0.2130(3) 0.3354(2) 0.02465(14)
O5 O 0.3463(3) 0.3912(2) 0.03626(13)
O6 O 0.1708(4) -0.3056(3) -0.04416(17)
O7 O 0.2599(3) -0.3871(2) -0.01116(12)
O8 O 0.0456(3) 0.4387(3) -0.06321(13)
O9 O 0.1219(4) 0.4669(3) -0.11985(14)
O10 O 0.0958(3) 0.0583(3) -0.43588(13)
O11 O 0.2187(3) 0.0789(3) -0.39576(13)
O12 O 0.3803(3) 0.3968(3) -0.05560(16)
O13 O 0.5051(3) 0.4359(2) -0.02363(13)
O14 O 0.2196(2) 0.4653(2) -0.03312(11)
O15 O -0.0685(2) 0.4471(2) 0.00507(11)
O16 O -0.0744(3) 0.3581(3) 0.12646(14)
O17 O 0.0200(3) 0.3929(2) 0.07771(12)
Eu1 Eu 0.094793(19) 0.423296(16) 0.011305(8)
Eu2 Eu 0.358308(18) 0.503240(16) -0.000416(8)
Eu3 Eu -0.14471(2) 0.433523(17) 0.068905(9)
O2A O 0.3223(3) 0.5424(2) 0.06843(12)
O3A O 0.1837(3) 0.4933(2) 0.05997(12)
O6B O -0.1708(4) 0.3056(3) 0.04416(17)
O7_2 O 0.2599(3) 0.6129(2) -0.01116(12)
O7B O -0.2599(3) 0.3871(2) 0.01116(12)
O8B O -0.0456(3) 0.5613(3) 0.06321(13)
O9B O -0.1219(4) 0.5331(3) 0.11985(14)
O10A O 0.4042(3) 0.5583(3) -0.06412(13)
O11C O -0.2813(3) 0.4211(3) 0.10424(13)
O13B O 0.4949(3) 0.5641(2) 0.02363(13)
O14B O -0.2196(2) 0.5347(2) 0.03312(11)
O15B O 0.0685(2) 0.5529(2) -0.00507(11)
Eu1A Eu 0.405207(19) -0.076704(16) 0.488695(8)
Eu1B Eu -0.094793(19) 0.576704(16) -0.011305(8)
Eu2_2 Eu 0.358308(18) -0.496760(16) -0.000416(8)
Eu2A Eu 0.141692(18) 0.003240(16) -0.499584(8)
Eu2A_2 Eu 0.141692(18) 0.003240(16) 0.500416(8)
Eu2B Eu 0.641692(18) 0.496760(16) 0.000416(8)
Eu3B Eu 0.14471(2) -0.433523(17) -0.068905(9)
Eu3B_2 Eu 0.14471(2) 0.566477(17) -0.068905(9)
Eu3C Eu 0.35529(2) 0.066477(17) -0.431095(9)
loop_
_geom_bond_atom_site_label_1
_geom_bond_atom_site_label_2
_geom_bond_site_symmetry_1
_geom_bond_site_symmetry_2
C1 C2 1_555 1_555
C2 C3 1_555 1_555
C3 H1 1_555 1_555
C4 C3 1_555 1_555
H2 C4 1_555 1_555
C5 C4 1_555 1_555
C6 C5 1_555 1_555
H3 C6 1_555 1_555
C7 C2 1_555 1_555
H4 C7 1_555 1_555
C8 C5 1_555 1_555
C9 C8 1_555 1_555
H5 C9 1_555 1_555
C10 C9 1_555 1_555
C11 C10 1_555 1_555
H6 C11 1_555 1_555
C12 C11 1_555 1_555
C13 C12 1_555 1_555
C14 C13 1_555 1_555
H7 C14 1_555 1_555
C15 C14 1_555 1_555
H8 C15 1_555 1_555
C16 C15 1_555 1_555
C17 C16 1_555 1_555
H9 C17 1_555 1_555
C18 C13 1_555 1_555
H10 C18 1_555 1_555
C19 C16 1_555 1_555
C20 C10 1_555 1_555
C21 C20 1_555 1_555
H11 C21 1_555 1_555
C22 C21 1_555 1_555
H12 C22 1_555 1_555
C23 H13 1_555 1_555
C24 C20 1_555 1_555
H14 C24 1_555 1_555
C25 C26 1_555 1_555
C26 C27 1_555 1_555
C27 H15 1_555 1_555
C28 C27 1_555 1_555
H16 C28 1_555 1_555
C29 C28 1_555 1_555
C30 C29 1_555 1_555
H17 C30 1_555 1_555
C31 C26 1_555 1_555
H18 C31 1_555 1_555
C32 C29 1_555 1_555
C33 C32 1_555 1_555
H19 C33 1_555 1_555
C34 C33 1_555 1_555
C35 C34 1_555 1_555
H20 C35 1_555 1_555
C36 C35 1_555 1_555
C37 C36 1_555 1_555
C38 C37 1_555 1_555
H21 C38 1_555 1_555
C39 C38 1_555 1_555
H22 C39 1_555 1_555
C40 C39 1_555 1_555
C41 C40 1_555 1_555
H23 C41 1_555 1_555
C42 C37 1_555 1_555
H24 C42 1_555 1_555
C43 C40 1_555 1_555
C44 C34 1_555 1_555
C45 C44 1_555 1_555
H25 C45 1_555 1_555
C46 C45 1_555 1_555
H26 C46 1_555 1_555
C47 H27 1_555 1_555
C48 C44 1_555 1_555
H28 C48 1_555 1_555
C49 C50 1_555 1_555
C50 C51 1_555 1_555
C51 H29 1_555 1_555
C52 C51 1_555 1_555
H30 C52 1_555 1_555
C53 C52 1_555 1_555
C54 C53 1_555 1_555
H31 C54 1_555 1_555
C55 C50 1_555 1_555
H32 C55 1_555 1_555
C56 C53 1_555 1_555
C57 C56 1_555 1_555
H33 C57 1_555 1_555
C58 C57 1_555 1_555
C59 C58 1_555 1_555
H34 C59 1_555 1_555
C60 C59 1_555 1_555
C61 C60 1_555 1_555
C62 C61 1_555 1_555
H35 C62 1_555 1_555
C63 C62 1_555 1_555
H36 C63 1_555 1_555
C64 C63 1_555 1_555
C65 C64 1_555 1_555
H37 C65 1_555 1_555
C66 C61 1_555 1_555
H38 C66 1_555 1_555
C67 C64 1_555 1_555
C68 C58 1_555 1_555
C69 C68 1_555 1_555
H39 C69 1_555 1_555
C70 C69 1_555 1_555
H40 C70 1_555 1_555
C71 H41 1_555 1_555
C72 C68 1_555 1_555
H42 C72 1_555 1_555
C73 H43 1_555 1_555
N1 C22 1_555 1_555
N2 C8 1_555 1_555
N3 C46 1_555 1_555
N4 C32 1_555 1_555
N5 C70 1_555 1_555
N6 C56 1_555 1_555
O1 Eu1 1_555 1_555
O2 C19 1_555 1_555
O3 C19 1_555 1_555
O4 C25 1_555 1_555
O5 C25 1_555 1_555
O6 C43 1_555 1_555
O7 C43 1_555 1_555
O8 C49 1_555 1_555
O9 C49 1_555 1_555
O10 C67 1_555 1_555
O11 C67 1_555 1_555
O12 C73 1_555 1_555
O13 C73 1_555 1_555
O14 Eu1 1_555 1_555
O15 Eu1 1_555 1_555
O16 C1 1_555 1_555
O17 C1 1_555 1_555
Eu1 O4 1_555 1_555
Eu2 O5 1_555 1_555
Eu3 O15 1_555 1_555
O2A Eu2 1_555 1_555
O3A Eu1 1_555 1_555
O6B Eu3 1_555 1_555
O7_2 Eu2 1_555 1_555
O7B Eu3 1_555 1_555
O8B Eu3 1_555 1_555
O9B Eu3 1_555 1_555
O10A Eu2 1_555 1_555
O11C Eu3 1_555 1_555
O13B Eu2 1_555 1_555
O14B Eu3 1_555 1_555
O15B Eu1 1_555 1_555
Eu1A O3 1_555 1_555
Eu1B O15 1_555 1_555
Eu2_2 O7 1_555 1_555
Eu2A O10 1_555 1_555
Eu2A_2 O2 1_555 1_555
Eu2B O13 1_555 1_555
Eu3B O6 1_555 1_555
Eu3B_2 O8 1_555 1_555
Eu3C O11 1_555 1_555
C6 C7 1_555 1_555
C12 N2 1_555 1_555
C17 C18 1_555 1_555
C23 C24 1_555 1_555
C23 N1 1_555 1_555
C30 C31 1_555 1_555
C36 N4 1_555 1_555
C41 C42 1_555 1_555
C47 C48 1_555 1_555
C47 N3 1_555 1_555
C54 C55 1_555 1_555
C60 N6 1_555 1_555
C65 C66 1_555 1_555
C71 C72 1_555 1_555
C71 N5 1_555 1_555
O7 Eu3B 1_555 1_555
O8 Eu1 1_555 1_555
O9 Eu3B_2 1_555 1_555
O12 Eu2 1_555 1_555
O13 Eu2 1_555 1_555
O14 Eu2 1_555 1_555
O14 Eu3B_2 1_555 1_555
O16 Eu3 1_555 1_555
O17 Eu1 1_555 1_555
O17 Eu3 1_555 1_555
O7_2 Eu3B_2 1_555 1_555
O8B Eu1B 1_555 1_555
O13B Eu2B 1_555 1_555
O14B Eu1B 1_555 1_555
O15B Eu1B 1_555 1_555
O15B Eu3B_2 1_555 1_555

#END
