
#######################################################################
#
#                 Cambridge Crystallographic Data Centre
#                                CCDC 
#
#######################################################################
#
# If this CIF has been generated from an entry in the Cambridge 
# Structural Database, then it will include bibliographic, chemical, 
# crystal, experimental, refinement or atomic coordinate data resulting 
# from the CCDC's data processing and validation procedures.
#
#######################################################################

data_VITFEK
_chemical_formula_moiety         'C43 H36 Mn12 Mo7 N43 O6 2+'
_symmetry_cell_setting           monoclinic
_symmetry_space_group_name_H-M   'C 2'
_symmetry_Int_Tables_number      5
_space_group_name_Hall           'C 2y'
loop_
_symmetry_equiv_pos_site_id
_symmetry_equiv_pos_as_xyz
1 x,y,z
2 -x,y,-z
3 1/2+x,1/2+y,z
4 1/2-x,1/2+y,-z
_cell_length_a                   26.085(5)
_cell_length_b                   13.160(2)
_cell_length_c                   12.889(2)
_cell_angle_alpha                90
_cell_angle_beta                 116.32(1)
_cell_angle_gamma                90
_cell_volume                     3965.84
loop_
_atom_site_label
_atom_site_type_symbol
_atom_site_fract_x
_atom_site_fract_y
_atom_site_fract_z
C6 C 0.6324(6) 0.1617(10) -0.2611(8)
H15 H 0.6078 0.1662 -0.3435
H16 H 0.6673 0.1983 -0.2456
O2 O 0.6464(3) 0.0574(5) -0.2318(5)
C7 C 0.6037(3) 0.2132(5) -0.1992(5)
C8 C 0.5914(7) 0.3225(9) -0.2308(8)
H17 H 0.5698 0.3502 -0.1936
H18 H 0.5697 0.3286 -0.3132
H19 H 0.6267 0.3591 -0.2060
N2 N 0.6360(3) 0.1989(7) -0.0737(5)
H20 H 0.6413 0.1307 -0.0620
C9 C 0.6905(4) 0.2432(12) -0.0191(14)
H21 H 0.7075 0.2275 0.0620
H22 H 0.6871 0.3155 -0.0294
H23 H 0.7140 0.2168 -0.0526
C10 C 0.6028(6) 0.2321(9) -0.0093(9)
H24 H 0.5655 0.2020 -0.0443
H25 H 0.5993 0.3048 -0.0125
H26 H 0.6226 0.2107 0.0700
H27 H 0.621(2) 0.027(5) -0.297(4)
H28 H 0.5603 0.1811 -0.2341
O3 O 0.6291(4) -0.0038(8) 0.0260(7)
H29 H 0.6382 -0.0234 -0.0299
H30 H 0.5896 0.0049 -0.0333
O4 O 0.5469(3) 0.9465(5) 0.6508(6)
H31 H 0.5521 0.9074 0.7131
H32 H 0.5648 1.0001 0.7005
O5 O 0.9555(4) 0.4736(8) 0.8400(10)
H33 H 0.9826 0.4162 0.8545
H34 H 0.9610 0.5176 0.7737
O6 O 0.6232(2) -0.0837(5) -0.4650(5)
H35 H 0.6266 -0.0206 -0.4896
H36 H 0.5958 -0.1219 -0.5203
Mo1 Mo 0.85890(2) 0.15238(3) 0.10188(4)
Mo2 Mo 0.64094(2) 0.25386(3) -0.59995(4)
Mn1 Mn 0.78814(4) 0.44422(9) -0.21791(8)
Mn2 Mn 1.0000 -0.01908(13) 0.5000
Mn3 Mn 1.0000 -0.07118(14) 0.0000
Mn4 Mn 0.71345(5) -0.03837(9) -0.28278(8)
N3 N 0.8247(3) 0.5704(6) -0.2658(5)
N4 N 0.7667(3) -0.1318(6) -0.3306(5)
C11 C 0.6847(3) 0.1485(8) -0.4625(6)
C12 C 0.8348(3) 0.2719(7) 0.1866(5)
C13 C 0.9153(3) 0.0654(8) 0.0586(6)
C14 C 0.9163(3) 0.0982(6) 0.2703(6)
C15 C 0.8060(3) 0.0648(8) -0.0431(7)
N5 N 0.5383(3) 0.0866(8) -0.6339(7)
N6 N 0.9485(3) 0.0696(6) 0.3621(5)
C16 C 0.8009(3) 0.0740(8) 0.1487(6)
C17 C 0.5728(3) 0.1491(8) -0.6215(6)
N7 N 0.9608(3) 0.3212(8) 0.1515(8)
N8 N 0.7997(3) 0.3172(6) -0.1087(6)
C18 C 0.9273(3) 0.2635(7) 0.1363(7)
N9 N 0.7261(3) 0.3891(7) -0.3768(6)
N10 N 0.7770(3) 0.0204(7) -0.1226(6)
N11 N 0.9469(3) 0.0162(6) 0.0391(5)
N12 N 0.9506(3) -0.1580(6) -0.1448(5)
N13 N 0.9450(3) -0.1058(7) 0.5392(5)
N14 N 0.7047(3) 0.0869(6) -0.3935(6)
N15 N 0.8217(3) 0.3396(6) 0.2262(5)
C19 C 0.9186(3) -0.1898(6) -0.2306(5)
C20 C 0.8192(3) 0.2565(9) -0.0379(6)
C21 C 0.9138(3) -0.1551(8) 0.5562(6)
C22 C 0.6952(3) 0.3425(8) -0.4571(7)
N16 N 0.7690(3) 0.0319(7) 0.1748(6)
C23 C 0.6630(3) 0.1338(6) -0.6890(5)
C24 C 0.7984(3) -0.1719(8) -0.3540(6)
C19C C 0.5814(3) 0.3102(6) -0.7694(5)
C21C C 0.5862(3) 0.3449(8) -0.5562(6)
C24C C 0.7016(3) 0.3281(8) -0.6460(6)
N16C N 0.7310(3) 0.5319(7) -0.1748(6)
N6A N 1.0515(3) 0.0696(6) 0.6379(5)
N13A N 1.0550(3) -0.1058(7) 0.4608(5)
N11A N 1.0531(3) 0.0162(6) -0.0391(5)
N12A N 1.0494(3) -0.1580(6) 0.1448(5)
N15C N 0.6783(3) -0.1604(6) -0.2262(5)
C23C C 0.8370(3) 0.6338(6) -0.3110(5)
Mn4C Mn 0.78655(5) 0.46163(9) 0.28278(8)
Mo2C Mo 0.85906(2) -0.24614(3) -0.40005(4)
Mo2C_2 Mo 0.85906(2) -0.24614(3) 0.59995(4)
Mn1C Mn 0.71186(4) -0.05578(9) 0.21791(8)
N3C N 0.6753(3) 0.0704(6) -0.7342(5)
Mo1C Mo 0.64110(2) -0.34762(3) -1.10188(4)
C12C C 0.6652(3) -0.2281(7) -1.1866(5)
C11C C 0.8153(3) -0.3515(8) -0.5375(6)
Mn1C_2 Mn 0.71186(4) -0.05578(9) -0.78209(8)
Mn2B Mn 0.5000 -0.51908(13) -1.5000
N6C N 0.5515(3) -0.4304(6) -1.3621(5)
Mn3B Mn 0.5000 -0.57118(14) -1.0000
N11C N 0.5531(3) -0.4838(6) -1.0391(5)
Mn4C_2 Mn 0.78655(5) -0.53837(9) -0.71722(8)
N4C N 0.7333(3) -0.6318(6) -0.6694(5)
C24C_2 C 0.7016(3) -0.6719(8) -0.6460(6)
N14C N 0.7953(3) -0.4131(6) -0.6065(6)
N15C_2 N 0.6783(3) -0.1604(6) -1.2262(5)
C13C C 0.5847(3) -0.4346(8) -1.0586(6)
C14C C 0.5837(3) -0.4018(6) -1.2703(6)
C15C C 0.6940(3) -0.4352(8) -0.9569(7)
N5C N 0.9617(3) -0.4134(8) -0.3661(7)
C17C C 0.9272(3) -0.3509(8) -0.3785(6)
C16C C 0.6991(3) -0.4260(8) -1.1487(6)
N7C N 0.5392(3) -0.1788(8) -1.1515(8)
C18C C 0.5727(3) -0.2365(7) -1.1363(7)
N8C N 0.7003(3) -0.1828(6) -0.8913(6)
N9C N 0.7739(3) -0.1109(7) -0.6232(6)
N10C N 0.7230(3) -0.4796(7) -0.8774(6)
N12C N 0.5494(3) -0.6580(6) -0.8552(5)
N13C N 0.5550(3) -0.6058(7) -1.5392(5)
Mn4_2 Mn 0.71345(5) -0.03837(9) -1.28278(8)
C19C_2 C 0.5814(3) -0.6898(6) -0.7694(5)
C20C C 0.6808(3) -0.2435(9) -0.9621(6)
C21C_2 C 0.5862(3) -0.6551(8) -1.5562(6)
C22C C 0.8048(3) -0.1575(8) -0.5429(7)
N16C_2 N 0.7310(3) -0.4681(7) -1.1748(6)
C23C_2 C 0.8370(3) -0.3662(6) -0.3110(5)
Mo2_2 Mo 0.64094(2) -0.74614(3) -0.59995(4)
C21_2 C 0.9138(3) -0.1551(8) -0.4438(6)
N16_2 N 0.7690(3) 0.0319(7) -0.8252(6)
N6B N 0.4485(3) -0.4304(6) -1.6379(5)
N13B N 0.4450(3) -0.6058(7) -1.4608(5)
N11B N 0.4469(3) -0.4838(6) -0.9609(5)
N12B N 0.4506(3) -0.6580(6) -1.1448(5)
N15_2 N 0.8217(3) -0.6604(6) -0.7738(5)
Mo2_3 Mo 0.64094(2) -0.74614(3) -1.59995(4)
Mn1_2 Mn 0.78814(4) -0.55578(9) -1.21791(8)
N3_2 N 0.8247(3) -0.4296(6) -0.2658(5)
O1 O 0.6390(3) -0.1423(5) 0.2618(5)
C1 C 0.6165(4) -0.2439(10) 0.2265(7)
H1 H 0.6220 -0.2646 0.1599
H2 H 0.5758 -0.2445 0.2046
N1 N 0.6367(3) -0.2891(6) 0.4293(6)
H3 H 0.6439 -0.2214 0.4418
C2 C 0.6305(4) -0.4258(6) 0.2865(8)
H4 H 0.6507 -0.4714 0.3497
H5 H 0.6399 -0.4407 0.2241
H6 H 0.5901 -0.4340 0.2603
C3 C 0.6472(3) -0.3178(4) 0.3262(6)
C4 C 0.6759(4) -0.3419(8) 0.5356(7)
H7 H 0.7144 -0.3352 0.5452
H8 H 0.6659 -0.4125 0.5300
H9 H 0.6731 -0.3123 0.6009
C5 C 0.5773(3) -0.3058(7) 0.4117(7)
H10 H 0.5513 -0.2722 0.3420
H11 H 0.5729 -0.2787 0.4763
H12 H 0.5693 -0.3773 0.4051
H13 H 0.6386 -0.1495 0.3304
H14 H 0.6841 -0.3064 0.3210
loop_
_geom_bond_atom_site_label_1
_geom_bond_atom_site_label_2
_geom_bond_site_symmetry_1
_geom_bond_site_symmetry_2
O1 C1 1_555 1_555
C1 H1 1_555 1_555
H2 C1 1_555 1_555
N1 H3 1_555 1_555
C2 H4 1_555 1_555
H5 C2 1_555 1_555
H6 C2 1_555 1_555
C3 C1 1_555 1_555
C4 N1 1_555 1_555
H7 C4 1_555 1_555
H8 C4 1_555 1_555
H9 C4 1_555 1_555
C5 N1 1_555 1_555
H10 C5 1_555 1_555
H11 C5 1_555 1_555
H12 C5 1_555 1_555
H13 O1 1_555 1_555
H14 C3 1_555 1_555
C6 H15 1_555 1_555
H16 C6 1_555 1_555
O2 C6 1_555 1_555
C7 C6 1_555 1_555
C8 C7 1_555 1_555
H17 C8 1_555 1_555
H18 C8 1_555 1_555
H19 C8 1_555 1_555
N2 C7 1_555 1_555
H20 N2 1_555 1_555
C9 N2 1_555 1_555
H21 C9 1_555 1_555
H22 C9 1_555 1_555
H23 C9 1_555 1_555
C10 N2 1_555 1_555
H24 C10 1_555 1_555
H25 C10 1_555 1_555
H26 C10 1_555 1_555
H27 O2 1_555 1_555
H28 C7 1_555 1_555
O3 H29 1_555 1_555
H30 O3 1_555 1_555
O4 H31 1_555 1_555
H32 O4 1_555 1_555
O5 H33 1_555 1_555
H34 O5 1_555 1_555
O6 H35 1_555 1_555
H36 O6 1_555 1_555
Mo1 C12 1_555 1_555
Mo2 C11 1_555 1_555
Mn1 N3 1_555 1_555
Mn2 N6 1_555 1_555
Mn3 N11 1_555 1_555
Mn4 N4 1_555 1_555
N3 C23C 1_555 1_555
N4 C24 1_555 1_555
C11 N14 1_555 1_555
C12 N15 1_555 1_555
C13 Mo1 1_555 1_555
C14 Mo1 1_555 1_555
C15 Mo1 1_555 1_555
N5 C17 1_555 1_555
N6 C14 1_555 1_555
C16 Mo1 1_555 1_555
C17 Mo2 1_555 1_555
N7 C18 1_555 1_555
N8 Mn1 1_555 1_555
C18 Mo1 1_555 1_555
N9 Mn1 1_555 1_555
N10 Mn4 1_555 1_555
N11 C13 1_555 1_555
N12 Mn3 1_555 1_555
N13 Mn2 1_555 1_555
N14 Mn4 1_555 1_555
N15 Mn4C 1_555 1_555
C19 N12 1_555 1_555
C20 Mo1 1_555 1_555
C21 N13 1_555 1_555
C22 Mo2 1_555 1_555
N16 C16 1_555 1_555
C23 Mo2 1_555 1_555
C24 Mo2C 1_555 1_555
C19C Mo2 1_555 1_555
C21C Mo2 1_555 1_555
C24C Mo2 1_555 1_555
N16C Mn1 1_555 1_555
N6A Mn2 1_555 1_555
N13A Mn2 1_555 1_555
N11A Mn3 1_555 1_555
N12A Mn3 1_555 1_555
N15C Mn4 1_555 1_555
Mo2C C19 1_555 1_555
Mo2C_2 C21 1_555 1_555
Mn1C N16 1_555 1_555
N3C C23 1_555 1_555
Mo1C C12C 1_555 1_555
C12C N15C_2 1_555 1_555
C11C Mo2C 1_555 1_555
Mn1C_2 N3C 1_555 1_555
Mn2B N6C 1_555 1_555
N6C C14C 1_555 1_555
Mn3B N11C 1_555 1_555
N11C C13C 1_555 1_555
Mn4C_2 N4C 1_555 1_555
N4C C24C_2 1_555 1_555
C24C_2 Mo2_2 1_555 1_555
N14C C11C 1_555 1_555
N15C_2 Mn4_2 1_555 1_555
C13C Mo1C 1_555 1_555
C14C Mo1C 1_555 1_555
C15C Mo1C 1_555 1_555
N5C C17C 1_555 1_555
C17C Mo2C 1_555 1_555
C16C Mo1C 1_555 1_555
N7C C18C 1_555 1_555
C18C Mo1C 1_555 1_555
N8C Mn1C_2 1_555 1_555
N9C Mn1C_2 1_555 1_555
N10C Mn4C_2 1_555 1_555
N12C Mn3B 1_555 1_555
N13C Mn2B 1_555 1_555
C19C_2 N12C 1_555 1_555
C20C Mo1C 1_555 1_555
C21C_2 N13C 1_555 1_555
C22C Mo2C 1_555 1_555
N16C_2 C16C 1_555 1_555
C23C_2 Mo2C 1_555 1_555
Mo2_2 C19C_2 1_555 1_555
C21_2 Mo2C 1_555 1_555
N16_2 Mn1C_2 1_555 1_555
N6B Mn2B 1_555 1_555
N13B Mn2B 1_555 1_555
N11B Mn3B 1_555 1_555
N12B Mn3B 1_555 1_555
N15_2 Mn4C_2 1_555 1_555
Mo2_3 C21C_2 1_555 1_555
Mn1_2 N16C_2 1_555 1_555
N3_2 C23C_2 1_555 1_555
N1 C3 1_555 1_555
C2 C3 1_555 1_555
C15 N10 1_555 1_555
N8 C20 1_555 1_555
N9 C22 1_555 1_555
Mn4C_2 N14C 1_555 1_555
C15C N10C 1_555 1_555
N8C C20C 1_555 1_555
N9C C22C 1_555 1_555

#END
