
#######################################################################
#
#                 Cambridge Crystallographic Data Centre
#                                CCDC 
#
#######################################################################
#
# If this CIF has been generated from an entry in the Cambridge 
# Structural Database, then it will include bibliographic, chemical, 
# crystal, experimental, refinement or atomic coordinate data resulting 
# from the CCDC's data processing and validation procedures.
#
#######################################################################

data_VIWRID
_chemical_formula_moiety         '(C19 H18 Mn3 Mo2 N15 O3 1-)n'
_symmetry_cell_setting           monoclinic
_symmetry_space_group_name_H-M   'C 2/c'
_symmetry_Int_Tables_number      15
_space_group_name_Hall           '-C 2yc'
loop_
_symmetry_equiv_pos_site_id
_symmetry_equiv_pos_as_xyz
1 x,y,z
2 1/2+x,1/2+y,z
3 -x,y,1/2-z
4 1/2-x,1/2+y,1/2-z
5 -x,-y,-z
6 1/2-x,1/2-y,-z
7 x,-y,1/2+z
8 1/2+x,1/2-y,1/2+z
_cell_length_a                   26.035(5)
_cell_length_b                   13.180(5)
_cell_length_c                   12.910(5)
_cell_angle_alpha                90
_cell_angle_beta                 116.60(1)
_cell_angle_gamma                90
_cell_volume                     3961.06
loop_
_atom_site_label
_atom_site_type_symbol
_atom_site_fract_x
_atom_site_fract_y
_atom_site_fract_z
_atom_site_U_iso_or_equiv
_atom_site_thermal_displace_type
Mo1 Mo 0.14158(7) -0.19816(13) 0.65034(14) 0.0205 Uani
Mn1 Mn -0.0000 -0.0263(4) 0.2500 0.0241 Uani
Mn2 Mn 0.28866(14) 0.0077(2) 0.5349(3) 0.0252 Uani
C1 C 0.1642(10) -0.3185(16) 0.5636(19) 0.0283 Uani
N1 N 0.2350(11) -0.0850(18) 0.583(2) 0.0491 Uani
C2 C 0.0733(11) -0.3070(19) 0.622(3) 0.0412 Uani
N3 N 0.0514(9) -0.1139(17) 0.3908(18) 0.0412 Uani
N4 N 0.1766(9) -0.3840(15) 0.5214(18) 0.0369 Uani
N5 N 0.2039(11) -0.3645(17) 0.8585(19) 0.0462 Uani
N6 N 0.2243(10) -0.0639(18) 0.8750(18) 0.0460 Uani
C4 C 0.1841(11) -0.3030(18) 0.789(2) 0.0340 Uani
C5 C 0.2027(11) -0.1253(19) 0.607(2) 0.0355 Uani
N7 N 0.0398(11) -0.368(2) 0.609(3) 0.0694 Uani
N8 N 0.0534(10) 0.061(2) 0.210(2) 0.0504 Uani
C9 C 0.0832(10) -0.1435(18) 0.4806(19) 0.0305 Uani
C11 C 0.0851(10) 0.1106(19) 0.192(2) 0.0359 Uani
C12 C 0.1948(10) -0.1090(18) 0.795(2) 0.0328 Uani
Mo1B Mo -0.14158(7) -0.19816(13) -0.15034(14) 0.0205 Uani
Mo1F Mo 0.14158(7) 0.19816(13) 0.15034(14) 0.0205 Uani
Mo1D Mo -0.14158(7) 0.19816(13) 0.34966(14) 0.0205 Uani
Mn2B Mn -0.28866(14) 0.0077(2) -0.0349(3) 0.0252 Uani
Mn2E Mn 0.21134(14) -0.5077(2) 0.4651(3) 0.0252 Uani
Mn2C Mn 0.21134(14) -0.4923(2) 0.9651(3) 0.0252 Uani
Mn2F Mn 0.28866(14) -0.0077(2) 1.0349(3) 0.0252 Uani
Mn2G Mn -0.21134(14) -0.5077(2) 0.0349(3) 0.0252 Uani
Mn2A Mn -0.21134(14) -0.4923(2) -0.4651(3) 0.0252 Uani
Mn2D Mn -0.28866(14) -0.0077(2) -0.5349(3) 0.0252 Uani
C1B C -0.1642(10) -0.3185(16) -0.0636(19) 0.0283 Uani
N1B N -0.2350(11) -0.0850(18) -0.083(2) 0.0491 Uani
C2B C -0.0733(11) -0.3070(19) -0.122(3) 0.0412 Uani
N3B N -0.0514(9) -0.1139(17) 0.1092(18) 0.0412 Uani
N4B N -0.1766(9) -0.3840(15) -0.0214(18) 0.0369 Uani
N4E N 0.3234(9) -0.1160(15) 0.4786(18) 0.0369 Uani
N4G N -0.3234(9) -0.1160(15) 0.0214(18) 0.0369 Uani
N5B N -0.2039(11) -0.3645(17) -0.3585(19) 0.0462 Uani
N5C N 0.2961(11) 0.1355(17) 0.6415(19) 0.0462 Uani
N5A N -0.2961(11) 0.1355(17) -0.1415(19) 0.0462 Uani
N6B N -0.2243(10) -0.0639(18) -0.3750(18) 0.0460 Uani
N6F N 0.2243(10) 0.0639(18) 0.3750(18) 0.0460 Uani
N6D N -0.2243(10) 0.0639(18) 0.1250(18) 0.0460 Uani
C4B C -0.1841(11) -0.3030(18) -0.289(2) 0.0340 Uani
C5B C -0.2027(11) -0.1253(19) -0.107(2) 0.0355 Uani
N7B N -0.0398(11) -0.368(2) -0.109(3) 0.0694 Uani
N8B N -0.0534(10) 0.061(2) 0.290(2) 0.0504 Uani
C9B C -0.0832(10) -0.1435(18) 0.0194(19) 0.0305 Uani
C11B C -0.0851(10) 0.1106(19) 0.308(2) 0.0359 Uani
C11F C 0.0851(10) -0.1106(19) 0.692(2) 0.0359 Uani
C11D C -0.0851(10) -0.1106(19) -0.192(2) 0.0359 Uani
C12B C -0.1948(10) -0.1090(18) -0.295(2) 0.0328 Uani
N2 N 0.1361(11) 0.2572(19) -0.321(2) 0.0555 Uani
H1 H 0.1433 0.3248 -0.3085 0.0660 Uiso
C3 C 0.122(2) 0.298(3) -0.519(4) 0.0823 Uani
H2 H 0.0808 0.2990 -0.5602 0.1000 Uiso
H3 H 0.1367 0.2731 -0.5721 0.1000 Uiso
O1 O 0.1430(11) 0.4000(16) -0.485(2) 0.0614 Uani
C6 C 0.177(2) 0.205(4) -0.218(5) 0.1458 Uani
H4 H 0.1716 0.2252 -0.1524 0.2230 Uiso
H5 H 0.2155 0.2215 -0.2047 0.2230 Uiso
H6 H 0.1714 0.1328 -0.2290 0.2230 Uiso
C7 C 0.139(4) 0.232(3) -0.427(5) 0.1862 Uani
H7 H 0.1806 0.2298 -0.4003 0.2210 Uiso
C8 C 0.078(3) 0.239(5) -0.331(7) 0.1670 Uani
H8 H 0.0775 0.2574 -0.2601 0.2480 Uiso
H9 H 0.0690 0.1684 -0.3470 0.2480 Uiso
H10 H 0.0510 0.2792 -0.3935 0.2480 Uiso
C10 C 0.123(4) 0.120(4) -0.465(5) 0.1825 Uani
H11 H 0.1371 0.0771 -0.3979 0.2760 Uiso
H12 H 0.1392 0.0999 -0.5151 0.2760 Uiso
H13 H 0.0817 0.1138 -0.5057 0.2760 Uiso
H14 H 0.112(13) 0.44(2) -0.50(3) 0.0500 Uiso
O2 O 0.0447(11) 0.486(2) -0.095(3) 0.0941 Uani
H17 H 0.0086 0.5270 -0.1149 0.0500 Uiso
H18 H 0.050(14) 0.47(2) -0.018(13) 0.0500 Uiso
O3 O 0.1216(12) 0.535(2) 0.282(2) 0.0879 Uani
H15 H 0.1504 0.5389 0.2424 0.0500 Uiso
H16 H 0.0991 0.5610 0.2018 0.0500 Uiso
loop_
_atom_site_aniso_label
_atom_site_aniso_U_11
_atom_site_aniso_U_22
_atom_site_aniso_U_33
_atom_site_aniso_U_23
_atom_site_aniso_U_13
_atom_site_aniso_U_12
Mo1 0.0225 0.0195 0.0205 0.0019 0.0105 0.0028
Mn1 0.021 0.029 0.022 0 0.0094 0
Mn2 0.0313 0.0205 0.0266 -0.0037 0.0155 -0.0002
C1 0.031 0.024 0.033 0.001 0.017 0.002
N1 0.058 0.048 0.058 -0.008 0.041 -0.016
C2 0.034 0.031 0.058 0.003 0.02 0.001
N3 0.039 0.046 0.032 0.008 0.01 0.004
N4 0.044 0.03 0.043 -0.006 0.025 0.002
N5 0.063 0.036 0.037 0.013 0.02 0.008
N6 0.049 0.049 0.032 -0.006 0.011 -0.008
C4 0.042 0.03 0.03 0.004 0.016 0.003
C5 0.043 0.031 0.037 -0.006 0.022 -0.006
N7 0.051 0.046 0.11 -0.001 0.035 -0.017
N8 0.043 0.059 0.053 0.011 0.025 -0.011
C9 0.032 0.032 0.03 0.004 0.016 0.006
C11 0.032 0.041 0.033 0.005 0.013 -0.003
C12 0.036 0.033 0.028 0 0.013 -0.001
Mo1B 0.0225 0.0195 0.0205 -0.0019 0.0105 -0.0028
Mo1F 0.0225 0.0195 0.0205 -0.0019 0.0105 -0.0028
Mo1D 0.0225 0.0195 0.0205 0.0019 0.0105 0.0028
Mn2B 0.0313 0.0205 0.0266 0.0037 0.0155 0.0002
Mn2E 0.0313 0.0205 0.0266 -0.0037 0.0155 -0.0002
Mn2C 0.0313 0.0205 0.0266 0.0037 0.0155 0.0002
Mn2F 0.0313 0.0205 0.0266 0.0037 0.0155 0.0002
Mn2G 0.0313 0.0205 0.0266 0.0037 0.0155 0.0002
Mn2A 0.0313 0.0205 0.0266 -0.0037 0.0155 -0.0002
Mn2D 0.0313 0.0205 0.0266 -0.0037 0.0155 -0.0002
C1B 0.031 0.024 0.033 -0.001 0.017 -0.002
N1B 0.058 0.048 0.058 0.008 0.041 0.016
C2B 0.034 0.031 0.058 -0.003 0.02 -0.001
N3B 0.039 0.046 0.032 -0.008 0.01 -0.004
N4B 0.044 0.03 0.043 0.006 0.025 -0.002
N4E 0.044 0.03 0.043 -0.006 0.025 0.002
N4G 0.044 0.03 0.043 0.006 0.025 -0.002
N5B 0.063 0.036 0.037 -0.013 0.02 -0.008
N5C 0.063 0.036 0.037 -0.013 0.02 -0.008
N5A 0.063 0.036 0.037 0.013 0.02 0.008
N6B 0.049 0.049 0.032 0.006 0.011 0.008
N6F 0.049 0.049 0.032 0.006 0.011 0.008
N6D 0.049 0.049 0.032 -0.006 0.011 -0.008
C4B 0.042 0.03 0.03 -0.004 0.016 -0.003
C5B 0.043 0.031 0.037 0.006 0.022 0.006
N7B 0.051 0.046 0.11 0.001 0.035 0.017
N8B 0.043 0.059 0.053 -0.011 0.025 0.011
C9B 0.032 0.032 0.03 -0.004 0.016 -0.006
C11B 0.032 0.041 0.033 -0.005 0.013 0.003
C11F 0.032 0.041 0.033 -0.005 0.013 0.003
C11D 0.032 0.041 0.033 0.005 0.013 -0.003
C12B 0.036 0.033 0.028 0 0.013 0.001
N2 0.067(16) 0.037(13) 0.058(15) 0.000(11) 0.024(13) -0.011(12)
C3 0.14 0.05 0.08 -0.01 0.07 -0.03
O1 0.068 0.037 0.09 -0.002 0.045 -0.009
C6 0.11(4) 0.08(3) 0.14(5) 0.00(3) -0.04(4) 0.00(3)
C7 0.44 0.05 0.11 -0.01 0.16 -0.05
C8 0.13(5) 0.13(5) 0.31(10) -0.04(6) 0.16(6) -0.03(4)
C10 0.42 0.05 0.13 -0.03 0.17 -0.05
O2 0.056(15) 0.09(2) 0.13(3) 0.03(2) 0.036(18) 0.027(15)
O3 0.088(19) 0.073(18) 0.076(18) -0.015(14) 0.013(15) 0.004(14)
loop_
_geom_bond_atom_site_label_1
_geom_bond_atom_site_label_2
_geom_bond_site_symmetry_1
_geom_bond_site_symmetry_2
Mo1 C1 1_555 1_555
Mn1 N3 1_555 1_555
Mn2 N1 1_555 1_555
C1 N4 1_555 1_555
N1 C5 1_555 1_555
N2 H1 1_555 1_555
C2 Mo1 1_555 1_555
C3 H2 1_555 1_555
H3 C3 1_555 1_555
O1 C3 1_555 1_555
N3 C9 1_555 1_555
N4 Mn2E 1_555 1_555
N5 C4 1_555 1_555
N6 C12 1_555 1_555
O2 H17 1_555 1_555
C4 Mo1 1_555 1_555
C5 Mo1 1_555 1_555
N7 C2 1_555 1_555
C6 N2 1_555 1_555
H4 C6 1_555 1_555
H5 C6 1_555 1_555
H6 C6 1_555 1_555
O3 H15 1_555 1_555
N8 Mn1 1_555 1_555
C7 N2 1_555 1_555
H7 C7 1_555 1_555
C8 N2 1_555 1_555
H8 C8 1_555 1_555
H9 C8 1_555 1_555
H10 C8 1_555 1_555
C9 Mo1 1_555 1_555
C10 C7 1_555 1_555
H11 C10 1_555 1_555
H12 C10 1_555 1_555
H13 C10 1_555 1_555
C11 N8 1_555 1_555
C12 Mo1 1_555 1_555
H14 O1 1_555 1_555
H16 O3 1_555 1_555
H18 O2 1_555 1_555
Mo1B C1B 1_555 1_555
Mo1F C11 1_555 1_555
Mo1D C11B 1_555 1_555
Mn2B N1B 1_555 1_555
Mn2C N5 1_555 1_555
Mn2F N6 1_555 1_555
Mn2G N4B 1_555 1_555
Mn2A N5B 1_555 1_555
Mn2D N6B 1_555 1_555
C1B N4B 1_555 1_555
N1B C5B 1_555 1_555
C2B Mo1B 1_555 1_555
N3B Mn1 1_555 1_555
N4E Mn2 1_555 1_555
N4G Mn2B 1_555 1_555
N5B C4B 1_555 1_555
N5C Mn2 1_555 1_555
N5A Mn2B 1_555 1_555
N6B C12B 1_555 1_555
N6F Mn2 1_555 1_555
N6D Mn2B 1_555 1_555
C4B Mo1B 1_555 1_555
C5B Mo1B 1_555 1_555
N7B C2B 1_555 1_555
N8B Mn1 1_555 1_555
C9B Mo1B 1_555 1_555
C11B N8B 1_555 1_555
C11F Mo1 1_555 1_555
C11D Mo1B 1_555 1_555
C12B Mo1B 1_555 1_555
C3 C7 1_555 1_555
N3B C9B 1_555 1_555

#END
