
#######################################################################
#
#                 Cambridge Crystallographic Data Centre
#                                CCDC 
#
#######################################################################
#
# If this CIF has been generated from an entry in the Cambridge 
# Structural Database, then it will include bibliographic, chemical, 
# crystal, experimental, refinement or atomic coordinate data resulting 
# from the CCDC's data processing and validation procedures.
#
#######################################################################

data_OLUROC
_chemical_formula_moiety         '(C36 H30 Cr1 In3 N12 O33)n'
_symmetry_cell_setting           rhombohedral
_symmetry_space_group_name_H-M   'R -3 c'
_symmetry_Int_Tables_number      167
_space_group_name_Hall           '-R 3 2"c'
loop_
_symmetry_equiv_pos_site_id
_symmetry_equiv_pos_as_xyz
1 x,y,z
2 -y,x-y,z
3 -x+y,-x,z
4 y,x,1/2-z
5 2/3+x,1/3+y,1/3+z
6 2/3-y,1/3+x-y,1/3+z
7 2/3-x+y,1/3-x,1/3+z
8 2/3+y,1/3+x,5/6-z
9 1/3+x,2/3+y,2/3+z
10 1/3+y,2/3+x,1/6-z
11 -x+y,y,1/2+z
12 x,x-y,1/2+z
13 2/3+y,1/3-x+y,1/3-z
14 2/3+x-y,1/3+x,1/3-z
15 2/3-x+y,1/3+y,5/6+z
16 2/3+x,1/3+x-y,5/6+z
17 1/3-x+y,2/3+y,1/6+z
18 1/3+x,2/3+x-y,1/6+z
19 -x,-y,-z
20 y,-x+y,-z
21 x-y,x,-z
22 -y,-x,1/2+z
23 1/3-x,2/3-y,2/3-z
24 1/3+y,2/3-x+y,2/3-z
25 1/3+x-y,2/3+x,2/3-z
26 1/3-y,2/3-x,1/6+z
27 2/3-x,1/3-y,1/3-z
28 2/3-y,1/3-x,5/6+z
29 x-y,-y,1/2-z
30 -x,-x+y,1/2-z
31 1/3-y,2/3+x-y,2/3+z
32 1/3-x+y,2/3-x,2/3+z
33 1/3+x-y,2/3-y,1/6-z
34 1/3-x,2/3-x+y,1/6-z
35 2/3+x-y,1/3-y,5/6-z
36 2/3-x,1/3-x+y,5/6-z
_cell_length_a                   17.7099(14)
_cell_length_b                   17.7099(14)
_cell_length_c                   32.977(3)
_cell_angle_alpha                90
_cell_angle_beta                 90
_cell_angle_gamma                120.00
_cell_volume                     8957.24
loop_
_atom_site_label
_atom_site_type_symbol
_atom_site_fract_x
_atom_site_fract_y
_atom_site_fract_z
_atom_site_U_iso_or_equiv
_atom_site_thermal_displace_type
In1 In 0.00534(2) -0.32799(2) 0.0833 0.0263 Uani
C1 C 0.1286(3) -0.2474(3) 0.00858(11) 0.0282 Uani
C2 C 0.1823(3) -0.2333(3) -0.02461(14) 0.0378 Uani
C3 C 0.1554(4) -0.3723(3) -0.01995(16) 0.0584 Uani
H1 H 0.1618 -0.4180 -0.0299 0.0900 Uiso
C4 C 0.1030(3) -0.3874(3) 0.01361(14) 0.0407 Uani
H2 H 0.0767 -0.4417 0.0262 0.0540 Uiso
C5 C 0.2307(4) -0.1481(3) -0.04690(15) 0.0461 Uani
C6 C 0.1105(3) -0.1785(3) 0.02477(13) 0.0327 Uani
N1 N 0.0899(2) -0.3245(2) 0.02796(10) 0.0295 Uani
N2 N 0.1973(3) -0.2956(3) -0.03879(12) 0.0590 Uani
O1 O 0.05791(19) -0.20037(19) 0.05449(9) 0.0334 Uani
O2 O 0.3071(3) -0.0960(2) -0.03601(12) 0.0580 Uani
O3 O 0.3308(3) 0.1973(3) 0.07638(10) 0.0661 Uani
O4 O 0.1471(2) -0.1072(2) 0.00841(11) 0.0482 Uani
O2P O -0.0698(4) -0.4293(2) 0.13066(12) 0.0580 Uani
In1N In 0.33334(3) 0.00534(2) -0.0834 0.0263 Uani
N1N N 0.2523(3) 0.0088(2) -0.13871(10) 0.0295 Uani
C1N C 0.2907(4) 0.0859(3) -0.15809(11) 0.0282 Uani
C2N C 0.2511(4) 0.1000(3) -0.19128(14) 0.0378 Uani
C5N C 0.2879(5) 0.1852(3) -0.21357(15) 0.0461 Uani
O2N O 0.2636(4) 0.2373(2) -0.20268(12) 0.0580 Uani
In1G In 0.33868(2) 0.33867(2) -0.2500 0.0263 Uani
N1H N 0.4232(2) 0.3422(2) -0.30537(10) 0.0295 Uani
N1G N 0.3422(2) 0.4232(2) -0.19463(10) 0.0295 Uani
C1G C 0.4193(3) 0.4619(3) -0.17525(11) 0.0282 Uani
C2G C 0.4334(3) 0.5156(3) -0.14206(14) 0.0378 Uani
C5G C 0.5186(3) 0.5640(4) -0.11977(15) 0.0461 Uani
O2G O 0.5707(2) 0.6404(3) -0.13066(12) 0.0580 Uani
In1O In 0.67201(2) 0.66666(3) -0.0834 0.0263 Uani
In1DA In 0.66132(2) -0.00000(3) -0.2500 0.0263 Uani
N1IA N 0.5768(2) -0.0811(3) -0.19463(10) 0.0295 Uani
C1IA C 0.5381(3) -0.0427(4) -0.17525(11) 0.0282 Uani
C2IA C 0.4844(3) -0.0823(4) -0.14206(14) 0.0378 Uani
C5IA C 0.4360(4) -0.0455(5) -0.11977(15) 0.0461 Uani
O2IA O 0.3596(3) -0.0698(4) -0.13066(12) 0.0580 Uani
N1T N 0.4144(3) 0.0899(2) -0.02796(10) 0.0295 Uani
C1T C 0.3760(4) 0.1286(3) -0.00858(11) 0.0282 Uani
C2T C 0.4156(4) 0.1823(3) 0.02461(14) 0.0378 Uani
C5T C 0.3788(5) 0.2307(4) 0.04690(15) 0.0461 Uani
O2T O 0.4031(4) 0.3071(3) 0.03601(12) 0.0580 Uani
In1A In 0.32799(2) 0.33333(3) 0.0833 0.0263 Uani
O3GA O 0.0025(3) -0.4668(4) 0.09029(10) 0.0661 Uani
N2T N 0.4929(4) 0.1973(3) 0.03879(12) 0.0590 Uani
C3T C 0.5277(5) 0.1554(4) 0.01995(16) 0.0584 Uani
H1T H 0.5798 0.1618 0.0299 0.0900 Uiso
C4T C 0.4904(4) 0.1030(3) -0.01361(14) 0.0407 Uani
H2T H 0.5184 0.0767 -0.0262 0.0540 Uiso
C6T C 0.2890(4) 0.1105(3) -0.02477(13) 0.0327 Uani
O1T O 0.25828(27) 0.05791(19) -0.05449(9) 0.0334 Uani
O1N O 0.40839(27) 0.13296(19) -0.11218(9) 0.0334 Uani
C6N C 0.3777(4) 0.1548(3) -0.14190(13) 0.0327 Uani
O4N O 0.4124(3) 0.2261(2) -0.15826(11) 0.0482 Uani
O3S O 0.1973(3) -0.1335(4) -0.07638(10) 0.0661 Uani
O3AA O 0.4694(3) 0.0025(3) -0.09029(10) 0.0661 Uani
O4T O 0.2543(3) 0.1471(2) -0.00841(11) 0.0482 Uani
N2IA N 0.4694(3) -0.1596(4) -0.12788(12) 0.0590 Uani
C3IA C 0.5113(4) -0.1944(5) -0.14672(16) 0.0584 Uani
H1IA H 0.5049 -0.2465 -0.1368 0.0900 Uiso
C4IA C 0.5637(3) -0.1571(4) -0.18028(14) 0.0407 Uani
H2IA H 0.5900 -0.1851 -0.1929 0.0540 Uiso
C6IA C 0.5562(3) 0.0443(4) -0.19144(13) 0.0327 Uani
O1IA O 0.60876(19) 0.07505(27) -0.22116(9) 0.0334 Uani
O3N O 0.5332(4) 0.5306(3) -0.09029(10) 0.0661 Uani
N2G N 0.3711(3) 0.5306(3) -0.12788(12) 0.0590 Uani
C3G C 0.2944(3) 0.4887(4) -0.14672(16) 0.0584 Uani
H1G H 0.2487 0.4951 -0.1368 0.0900 Uiso
C4G C 0.2793(3) 0.4363(3) -0.18028(14) 0.0407 Uani
H2G H 0.2250 0.4100 -0.1929 0.0540 Uiso
C6G C 0.4882(3) 0.4438(3) -0.19144(13) 0.0327 Uani
O1H O 0.39124(19) 0.46630(19) -0.27884(9) 0.0334 Uani
O1G O 0.46630(19) 0.39124(19) -0.22116(9) 0.0334 Uani
O2W O 0.2373(2) 0.2636(4) -0.29732(12) 0.0580 Uani
O3IA O 0.3359(3) 0.1998(4) -0.24305(10) 0.0661 Uani
O3EA O 0.1998(4) 0.3359(3) -0.25695(10) 0.0661 Uani
N2N N 0.1738(4) 0.0377(3) -0.20546(12) 0.0590 Uani
C3N C 0.1390(5) -0.0390(3) -0.18662(16) 0.0584 Uani
H1N H 0.0869 -0.0847 -0.1966 0.0900 Uiso
C4N C 0.1763(4) -0.0541(3) -0.15306(14) 0.0407 Uani
H2N H 0.1483 -0.1084 -0.1405 0.0540 Uiso
N1I N 0.0088(2) -0.2434(2) 0.13871(10) 0.0295 Uani
O1I O 0.13296(19) -0.27542(19) 0.11218(9) 0.0334 Uani
O2S O -0.0960(2) -0.4031(4) 0.03601(12) 0.0580 Uani
O3B O -0.1335(4) -0.3308(3) 0.07638(10) 0.0661 Uani
O4IA O 0.5196(2) 0.0790(3) -0.17508(11) 0.0482 Uani
O4G O 0.5595(2) 0.4804(2) -0.17508(11) 0.0482 Uani
C1H C 0.4619(3) 0.4193(3) -0.32475(11) 0.0282 Uani
C4H C 0.4363(3) 0.2793(3) -0.31972(14) 0.0407 Uani
C6H C 0.4438(3) 0.4882(3) -0.30856(13) 0.0327 Uani
C2H C 0.5156(3) 0.4334(3) -0.35794(14) 0.0378 Uani
C3H C 0.4887(4) 0.2944(3) -0.35328(16) 0.0584 Uani
H2H H 0.4100 0.2250 -0.3071 0.0540 Uiso
O4H O 0.4804(2) 0.5595(2) -0.32492(11) 0.0482 Uani
C5H C 0.5640(4) 0.5186(3) -0.38023(15) 0.0461 Uani
N2H N 0.5306(3) 0.3711(3) -0.37212(12) 0.0590 Uani
H1H H 0.4951 0.2487 -0.3632 0.0900 Uiso
O2H O 0.6404(3) 0.5707(2) -0.36934(12) 0.0580 Uani
O3W O 0.5306(3) 0.5332(4) -0.40971(10) 0.0661 Uani
In1J In 0.66667(3) 0.67201(2) -0.4167 0.0263 Uani
Cr1 Cr 0.0000 -1.0000 -1.0000 0.0357 Uani
O5 O 0.10660(19) -0.94270(19) -0.96433(9) 0.0391 Uani
O5A O -0.05730(19) -0.95070(27) -0.96433(9) 0.0391 Uani
O5B O -0.04930(27) -1.10660(19) -0.96433(9) 0.0391 Uani
O5R O -0.10660(19) -1.05730(19) -1.03567(9) 0.0391 Uani
O5S O 0.05730(19) -1.04930(27) -1.03567(9) 0.0391 Uani
O5T O 0.04930(27) -0.89340(19) -1.03567(9) 0.0391 Uani
O6 O 0.1112(2) -0.0368(2) -0.90454(11) 0.0573 Uani
O7 O 0.3333 -0.3333 -0.9772(4) 0.1070 Uani
O9 O 0.2832(4) -0.9873(4) -0.8870(2) 0.1324 Uani
loop_
_atom_site_aniso_label
_atom_site_aniso_U_11
_atom_site_aniso_U_22
_atom_site_aniso_U_33
_atom_site_aniso_U_23
_atom_site_aniso_U_13
_atom_site_aniso_U_12
In1 0.025 0.025 0.0242 0.00219 -0.00219 0.00899
C1 0.04 0.025 0.022 0.0036 0.0005 0.018
C2 0.056 0.031 0.028 0.0072 0.008 0.023
C3 0.093 0.037 0.054 0.002 0.022 0.039
C4 0.059 0.025 0.038 0.002 0.002 0.021
C5 0.074 0.039 0.037 0.01 0.026 0.037
C6 0.039 0.028 0.034 0.0061 0 0.019
N1 0.037 0.0263 0.0221 0.0006 -0.0026 0.0135
N2 0.099 0.043 0.045 0.013 0.032 0.043
O1 0.0378 0.03 0.0348 0.0075 0.0095 0.0187
O2 0.065 0.04 0.066 0.018 0.029 0.024
O3 0.065 0.106 0.041 -0.021 0.0071 0.053
O4 0.061 0.0328 0.057 0.0167 0.0207 0.0282
O2P 0.057 0.04 0.066 0.018 -0.011 0.016
In1N 0.03202 0.025 0.0242 0.00219 0.00438 0.01601
N1N 0.0363 0.0263 0.0221 0.0006 0.0032 0.0128
C1N 0.029 0.025 0.022 0.0036 0.0031 0.007
C2N 0.041 0.031 0.028 0.0072 -0.0008 0.008
C5N 0.039 0.039 0.037 0.01 -0.016 0.002
O2N 0.057 0.04 0.066 0.018 -0.011 0.016
In1G 0.025 0.025 0.0242 0.00219 -0.00219 0.00899
N1H 0.037 0.0263 0.0221 0.0006 -0.0026 0.0135
N1G 0.0263 0.037 0.0221 0.0026 -0.0006 0.0135
C1G 0.025 0.04 0.022 -0.0005 -0.0036 0.018
C2G 0.031 0.056 0.028 -0.008 -0.0072 0.023
C5G 0.039 0.074 0.037 -0.026 -0.01 0.037
O2G 0.04 0.065 0.066 -0.029 -0.018 0.024
In1O 0.025 0.03202 0.0242 -0.00438 -0.00219 0.01601
In1DA 0.025 0.03202 0.0242 -0.00438 -0.00219 0.01601
N1IA 0.037 0.0363 0.0221 -0.0032 -0.0026 0.0235
C1IA 0.04 0.029 0.022 -0.0031 0.0005 0.022
C2IA 0.056 0.041 0.028 0.0008 0.008 0.033
C5IA 0.074 0.039 0.037 0.016 0.026 0.037
O2IA 0.065 0.057 0.066 0.011 0.029 0.041
N1T 0.0363 0.037 0.0221 0.0026 0.0032 0.0235
C1T 0.029 0.04 0.022 -0.0005 0.0031 0.022
C2T 0.041 0.056 0.028 -0.008 -0.0008 0.033
C5T 0.039 0.074 0.037 -0.026 -0.016 0.037
O2T 0.057 0.065 0.066 -0.029 -0.011 0.041
In1A 0.025 0.03202 0.0242 -0.00438 -0.00219 0.01601
O3GA 0.065 0.065 0.041 0.0281 0.0071 0.012
N2T 0.056 0.099 0.045 -0.032 -0.019 0.056
C3T 0.052 0.093 0.054 -0.022 -0.02 0.054
C4T 0.042 0.059 0.038 -0.002 -4.28409e-19 0.038
C6T 0.029 0.039 0.034 0 0.0061 0.02
O1T 0.0304 0.0378 0.0348 -0.0095 -0.002 0.0191
O1N 0.0304 0.03 0.0348 0.0075 -0.002 0.0113
C6N 0.029 0.028 0.034 0.0061 0.0061 0.009
O4N 0.0374 0.0328 0.057 0.0167 -0.004 0.0046
O3S 0.106 0.065 0.041 0.0281 0.021 0.053
O3AA 0.106 0.065 0.041 -0.0071 0.021 0.053
O4T 0.0374 0.061 0.057 -0.0207 -0.004 0.0328
N2IA 0.099 0.056 0.045 0.019 0.032 0.056
C3IA 0.093 0.052 0.054 0.02 0.022 0.054
C4IA 0.059 0.042 0.038 4.28409e-19 0.002 0.038
C6IA 0.039 0.029 0.034 -0.0061 0 0.02
O1IA 0.0378 0.0304 0.0348 0.002 0.0095 0.0191
O3N 0.065 0.106 0.041 -0.021 -0.0281 0.053
N2G 0.043 0.099 0.045 -0.032 -0.013 0.043
C3G 0.037 0.093 0.054 -0.022 -0.002 0.039
C4G 0.025 0.059 0.038 -0.002 -0.002 0.021
C6G 0.028 0.039 0.034 0 -0.0061 0.019
O1H 0.0378 0.03 0.0348 0.0075 0.0095 0.0187
O1G 0.03 0.0378 0.0348 -0.0095 -0.0075 0.0187
O2W 0.04 0.057 0.066 0.011 -0.018 0.016
O3IA 0.065 0.065 0.041 0.0281 0.0071 0.012
O3EA 0.065 0.065 0.041 -0.0071 -0.0281 0.012
N2N 0.056 0.043 0.045 0.013 -0.019 -6.37593e-18
C3N 0.052 0.037 0.054 0.002 -0.02 -0.002
C4N 0.042 0.025 0.038 0.002 -4.28409e-19 0.004
N1I 0.0263 0.037 0.0221 0.0026 -0.0006 0.0135
O1I 0.03 0.0378 0.0348 -0.0095 -0.0075 0.0187
O2S 0.04 0.057 0.066 0.011 -0.018 0.016
O3B 0.065 0.065 0.041 -0.0071 -0.0281 0.012
O4IA 0.061 0.0374 0.057 0.004 0.0207 0.0328
O4G 0.0328 0.061 0.057 -0.0207 -0.0167 0.0282
C1H 0.04 0.025 0.022 0.0036 0.0005 0.018
C4H 0.059 0.025 0.038 0.002 0.002 0.021
C6H 0.039 0.028 0.034 0.0061 0 0.019
C2H 0.056 0.031 0.028 0.0072 0.008 0.023
C3H 0.093 0.037 0.054 0.002 0.022 0.039
O4H 0.061 0.0328 0.057 0.0167 0.0207 0.0282
C5H 0.074 0.039 0.037 0.01 0.026 0.037
N2H 0.099 0.043 0.045 0.013 0.032 0.043
O2H 0.065 0.04 0.066 0.018 0.029 0.024
O3W 0.106 0.065 0.041 0.0281 0.021 0.053
In1J 0.03202 0.025 0.0242 0.00219 0.00438 0.01601
Cr1 0.0333 0.0333 0.0405 0 0 0.0167
O5 0.0327 0.0358 0.0472 -0.0017 -0.0032 0.0159
O5A 0.0358 0.0367 0.0472 -0.0015 0.0017 0.0199
O5B 0.0367 0.0327 0.0472 0.0032 0.0015 0.0168
O5R 0.0327 0.0358 0.0472 -0.0017 -0.0032 0.0159
O5S 0.0358 0.0367 0.0472 -0.0015 0.0017 0.0199
O5T 0.0367 0.0327 0.0472 0.0032 0.0015 0.0168
O6 0.065 0.054 0.056 0.0009 -0.0053 0.032
O7 0.067 0.067 0.187 0 0 0.0334
O9 0.152 0.097 0.148 -0.028 -0.078 0.062
loop_
_geom_bond_atom_site_label_1
_geom_bond_atom_site_label_2
_geom_bond_site_symmetry_1
_geom_bond_site_symmetry_2
In1 N1 1_555 1_555
C1 C2 1_555 1_555
C2 C5 1_555 1_555
C3 H1 1_555 1_555
C4 C3 1_555 1_555
H2 C4 1_555 1_555
C5 O2 1_555 1_555
C6 C1 1_555 1_555
N1 C1 1_555 1_555
N2 C2 1_555 1_555
O1 In1 1_555 1_555
O2 In1N 1_555 1_555
O3 C5T 1_555 1_555
O4 C6 1_555 1_555
Cr1 O5 1_555 1_555
O2P In1 1_555 1_555
In1N N1N 1_555 1_555
N1N C1N 1_555 1_555
C1N C2N 1_555 1_555
C2N C5N 1_555 1_555
C5N O2N 1_555 1_555
O2N In1G 1_555 1_555
In1G N1H 1_555 1_555
N1H C1H 1_555 1_555
N1G In1G 1_555 1_555
C1G N1G 1_555 1_555
C2G C1G 1_555 1_555
C5G C2G 1_555 1_555
O2G C5G 1_555 1_555
In1O O2G 1_555 1_555
In1DA N1IA 1_555 1_555
N1IA C1IA 1_555 1_555
C1IA C2IA 1_555 1_555
C2IA C5IA 1_555 1_555
C5IA O2IA 1_555 1_555
O2IA In1N 1_555 1_555
N1T In1N 1_555 1_555
C1T N1T 1_555 1_555
C2T C1T 1_555 1_555
C5T C2T 1_555 1_555
O2T C5T 1_555 1_555
In1A O3 1_555 1_555
O3GA In1 1_555 1_555
N2T C2T 1_555 1_555
C3T N2T 1_555 1_555
H1T C3T 1_555 1_555
C4T N1T 1_555 1_555
H2T C4T 1_555 1_555
C6T C1T 1_555 1_555
O1T In1N 1_555 1_555
O1N In1N 1_555 1_555
C6N C1N 1_555 1_555
O4N C6N 1_555 1_555
O3S C5 1_555 1_555
O3AA In1N 1_555 1_555
O4T C6T 1_555 1_555
N2IA C2IA 1_555 1_555
C3IA N2IA 1_555 1_555
H1IA C3IA 1_555 1_555
C4IA N1IA 1_555 1_555
H2IA C4IA 1_555 1_555
C6IA C1IA 1_555 1_555
O1IA In1DA 1_555 1_555
O3N C5G 1_555 1_555
N2G C2G 1_555 1_555
C3G N2G 1_555 1_555
H1G C3G 1_555 1_555
C4G N1G 1_555 1_555
H2G C4G 1_555 1_555
C6G C1G 1_555 1_555
O1H In1G 1_555 1_555
O1G In1G 1_555 1_555
O2W In1G 1_555 1_555
O3IA C5N 1_555 1_555
O3EA In1G 1_555 1_555
N2N C2N 1_555 1_555
C3N N2N 1_555 1_555
H1N C3N 1_555 1_555
C4N N1N 1_555 1_555
H2N C4N 1_555 1_555
N1I In1 1_555 1_555
O1I In1 1_555 1_555
O2S In1 1_555 1_555
O3B In1 1_555 1_555
O5A Cr1 1_555 1_555
O5B Cr1 1_555 1_555
O5R Cr1 1_555 1_555
O5S Cr1 1_555 1_555
O5T Cr1 1_555 1_555
O4IA C6IA 1_555 1_555
O4G C6G 1_555 1_555
C1H C6H 1_555 1_555
C4H N1H 1_555 1_555
C6H O1H 1_555 1_555
C2H C1H 1_555 1_555
C3H C4H 1_555 1_555
H2H C4H 1_555 1_555
O4H C6H 1_555 1_555
C5H C2H 1_555 1_555
N2H C2H 1_555 1_555
H1H C3H 1_555 1_555
O2H C5H 1_555 1_555
O3W C5H 1_555 1_555
In1J O2H 1_555 1_555
C3 N2 1_555 1_555
C4 N1 1_555 1_555
C6 O1 1_555 1_555
In1N O3S 1_555 1_555
In1G O3IA 1_555 1_555
In1O O3N 1_555 1_555
C5IA O3AA 1_555 1_555
O2T In1A 1_555 1_555
C3T C4T 1_555 1_555
C6T O1T 1_555 1_555
O1N C6N 1_555 1_555
C3IA C4IA 1_555 1_555
C6IA O1IA 1_555 1_555
C3G C4G 1_555 1_555
C6G O1G 1_555 1_555
C3N C4N 1_555 1_555
C3H N2H 1_555 1_555
O3W In1J 1_555 1_555

#END
