
#######################################################################
#
#                 Cambridge Crystallographic Data Centre
#                                CCDC 
#
#######################################################################
#
# If this CIF has been generated from an entry in the Cambridge 
# Structural Database, then it will include bibliographic, chemical, 
# crystal, experimental, refinement or atomic coordinate data resulting 
# from the CCDC's data processing and validation procedures.
#
#######################################################################

data_NERVIP01
_chemical_formula_moiety         '(C24 H18 Co2 N4 O9)n'
_symmetry_cell_setting           monoclinic
_symmetry_space_group_name_H-M   'P 21/c'
_symmetry_Int_Tables_number      14
_space_group_name_Hall           '-P 2ybc'
loop_
_symmetry_equiv_pos_site_id
_symmetry_equiv_pos_as_xyz
1 x,y,z
2 -x,1/2+y,1/2-z
3 -x,-y,-z
4 x,1/2-y,1/2+z
_cell_length_a                   10.743(2)
_cell_length_b                   19.374(4)
_cell_length_c                   13.978(3)
_cell_angle_alpha                90
_cell_angle_beta                 104.42(3)
_cell_angle_gamma                90
_cell_volume                     2817.66
loop_
_atom_site_label
_atom_site_type_symbol
_atom_site_fract_x
_atom_site_fract_y
_atom_site_fract_z
Co1 Co 0.09080(4) 0.11763(2) 0.35889(3)
Co2 Co 0.25450(4) 0.02405(2) 0.20390(3)
O1 O 0.2608(2) 0.11052(13) 0.30203(18)
N1 N 0.5399(3) -0.00861(16) 0.7420(2)
N2 N -0.0697(3) 0.12402(14) 0.4223(2)
N3 N -0.2452(3) 0.05868(15) -0.1003(2)
C1 C -0.1356(3) 0.10068(18) 0.0602(3)
C2 C 0.3655(3) 0.04366(17) 0.6227(2)
C3 C 0.4924(3) 0.02515(18) 0.6571(2)
H1 H 0.5489 0.0369 0.6190
N4 N 0.1219(3) 0.22727(15) 0.3756(2)
C4 C -0.0655(3) 0.08651(16) 0.5027(2)
H2 H 0.0083 0.0608 0.5286
C5 C 0.1977(4) 0.32268(18) 0.4820(3)
C6 C 0.4572(4) -0.0272(2) 0.7943(3)
H3 H 0.4880 -0.0508 0.8534
C7 C -0.1637(3) 0.08316(17) 0.5505(3)
C8 C -0.2747(4) 0.1203(2) 0.5113(4)
H4 H -0.3422 0.1205 0.5420
C9 C -0.1529(3) 0.05526(18) -0.0169(2)
H5 H -0.0950 0.0188 -0.0106
C10 C 0.1707(3) 0.25367(17) 0.4650(2)
H6 H 0.1875 0.2239 0.5189
C11 C 0.2802(4) 0.0237(2) 0.6773(3)
H7 H 0.1934 0.0345 0.6560
C12 C 0.3267(4) -0.0125(3) 0.7638(3)
H8 H 0.2712 -0.0269 0.8014
C13 C -0.2827(5) 0.1571(3) 0.4252(4)
H9 H -0.3578 0.1806 0.3952
C14 C -0.2241(6) 0.1532(3) 0.0526(4)
H10 H -0.2174 0.1852 0.1032
C15 C -0.1785(4) 0.1588(2) 0.3840(3)
H11 H -0.1840 0.1852 0.3275
C16 C -0.3219(7) 0.1570(3) -0.0312(5)
H12 H -0.3831 0.1917 -0.0375
C17 C -0.3307(6) 0.1098(2) -0.1064(4)
H13 H -0.3978 0.1135 -0.1629
C18 C 0.0955(6) 0.2708(2) 0.3003(3)
H14 H 0.0625 0.2530 0.2373
C19 C 0.1680(7) 0.3672(2) 0.4021(4)
H15 H 0.1841 0.4143 0.4105
C20 C 0.1140(8) 0.3403(3) 0.3101(4)
H16 H 0.0906 0.3691 0.2553
C21 C -0.1503(3) 0.03540(16) 0.6370(2)
O2 O -0.2290(2) 0.04223(13) 0.68879(19)
O3 O -0.0621(2) -0.00907(12) 0.64921(19)
C22 C -0.0246(3) 0.09203(17) 0.1490(2)
O4 O 0.0564(2) 0.04755(14) 0.14277(19)
O5 O -0.0242(2) 0.13101(13) 0.22057(17)
C23 C 0.2532(4) 0.3490(2) 0.5850(3)
O6 O 0.2833(3) 0.41166(14) 0.59327(19)
O7 O 0.2620(4) 0.30699(15) 0.6547(2)
C24 C 0.3239(3) 0.08148(18) 0.5269(2)
O8 O 0.2052(2) 0.09604(14) 0.49871(18)
O9 O 0.4056(3) 0.0951(2) 0.4806(2)
H17 H 0.276(7) 0.131(3) 0.257(3)
H18 H 0.301(7) 0.114(4) 0.358(2)
Co1B Co -0.09080(4) -0.11763(2) 0.64111(3)
Co2B Co 0.74550(4) -0.02405(2) 0.79610(3)
Co2B_2 Co -0.25450(4) -0.02405(2) -0.20390(3)
Co2B_3 Co -0.25450(4) -0.02405(2) 0.79610(3)
Co2C Co 0.25450(4) 0.47595(2) 0.70390(3)
N1B N 0.4601(3) 0.00861(16) 0.2580(2)
N3B N 0.2452(3) -0.05868(15) 0.1003(2)
O2B O 0.2290(2) -0.04223(13) 0.31121(19)
O3B O 0.0621(2) 0.00907(12) 0.35079(19)
O6C O 0.2833(3) 0.08834(14) 0.09327(19)
loop_
_geom_bond_atom_site_label_1
_geom_bond_atom_site_label_2
_geom_bond_site_symmetry_1
_geom_bond_site_symmetry_2
Co1 O1 1_555 1_555
Co2 O1 1_555 1_555
O1 H17 1_555 1_555
N1 C3 1_555 1_555
N2 Co1 1_555 1_555
N3 C9 1_555 1_555
C1 C9 1_555 1_555
C2 C3 1_555 1_555
C3 H1 1_555 1_555
N4 Co1 1_555 1_555
C4 N2 1_555 1_555
H2 C4 1_555 1_555
C5 C10 1_555 1_555
C6 N1 1_555 1_555
H3 C6 1_555 1_555
C7 C4 1_555 1_555
C8 C7 1_555 1_555
H4 C8 1_555 1_555
C9 H5 1_555 1_555
C10 N4 1_555 1_555
H6 C10 1_555 1_555
C11 C2 1_555 1_555
H7 C11 1_555 1_555
C12 C6 1_555 1_555
H8 C12 1_555 1_555
C13 C8 1_555 1_555
H9 C13 1_555 1_555
C14 C1 1_555 1_555
H10 C14 1_555 1_555
C15 N2 1_555 1_555
H11 C15 1_555 1_555
C16 C14 1_555 1_555
H12 C16 1_555 1_555
C17 N3 1_555 1_555
H13 C17 1_555 1_555
C18 N4 1_555 1_555
H14 C18 1_555 1_555
C19 C5 1_555 1_555
H15 C19 1_555 1_555
C20 C18 1_555 1_555
H16 C20 1_555 1_555
C21 C7 1_555 1_555
O2 C21 1_555 1_555
O3 C21 1_555 1_555
C22 C1 1_555 1_555
O4 Co2 1_555 1_555
O5 Co1 1_555 1_555
C23 C5 1_555 1_555
O6 C23 1_555 1_555
O7 C23 1_555 1_555
C24 C2 1_555 1_555
O8 Co1 1_555 1_555
O9 C24 1_555 1_555
H18 O1 1_555 1_555
Co1B O3 1_555 1_555
Co2B N1 1_555 1_555
Co2B_2 N3 1_555 1_555
Co2B_3 O2 1_555 1_555
Co2C O6 1_555 1_555
N1B Co2 1_555 1_555
N3B Co2 1_555 1_555
O2B Co2 1_555 1_555
O3B Co1 1_555 1_555
O6C Co2 1_555 1_555
C11 C12 1_555 1_555
C13 C15 1_555 1_555
C16 C17 1_555 1_555
C19 C20 1_555 1_555
C22 O4 1_555 1_555
C22 O5 1_555 1_555
C24 O8 1_555 1_555

#END
