
#######################################################################
#
#                 Cambridge Crystallographic Data Centre
#                                CCDC 
#
#######################################################################
#
# If this CIF has been generated from an entry in the Cambridge 
# Structural Database, then it will include bibliographic, chemical, 
# crystal, experimental, refinement or atomic coordinate data resulting 
# from the CCDC's data processing and validation procedures.
#
#######################################################################

data_GUKCIA
_chemical_formula_moiety         'C31 H18 Cu8 O16'
_symmetry_cell_setting           rhombohedral
_symmetry_space_group_name_H-M   'R -3 m'
_symmetry_Int_Tables_number      166
_space_group_name_Hall           '-R 3 2"'
loop_
_symmetry_equiv_pos_site_id
_symmetry_equiv_pos_as_xyz
1 x,y,z
2 -y,x-y,z
3 -x+y,-x,z
4 y,x,-z
5 -x,-x+y,-z
6 x-y,-y,-z
7 2/3+x,1/3+y,1/3+z
8 2/3-y,1/3+x-y,1/3+z
9 2/3-x+y,1/3-x,1/3+z
10 2/3+y,1/3+x,1/3-z
11 2/3-x,1/3-x+y,1/3-z
12 2/3+x-y,1/3-y,1/3-z
13 1/3+x,2/3+y,2/3+z
14 1/3-y,2/3+x-y,2/3+z
15 1/3-x+y,2/3-x,2/3+z
16 1/3+y,2/3+x,2/3-z
17 1/3-x,2/3-x+y,2/3-z
18 1/3+x-y,2/3-y,2/3-z
19 -x,-y,-z
20 y,-x+y,-z
21 x-y,x,-z
22 -y,-x,z
23 x,x-y,z
24 -x+y,y,z
25 1/3-x,2/3-y,2/3-z
26 1/3+y,2/3-x+y,2/3-z
27 1/3+x-y,2/3+x,2/3-z
28 1/3-y,2/3-x,2/3+z
29 1/3+x,2/3+x-y,2/3+z
30 1/3-x+y,2/3+y,2/3+z
31 2/3-x,1/3-y,1/3-z
32 2/3+y,1/3-x+y,1/3-z
33 2/3+x-y,1/3+x,1/3-z
34 2/3-y,1/3-x,1/3+z
35 2/3+x,1/3+x-y,1/3+z
36 2/3-x+y,1/3+y,1/3+z
_cell_length_a                   18.4830(17)
_cell_length_b                   18.4830(17)
_cell_length_c                   46.758(11)
_cell_angle_alpha                90
_cell_angle_beta                 90
_cell_angle_gamma                120
_cell_volume                     13833.5
loop_
_atom_site_label
_atom_site_type_symbol
_atom_site_fract_x
_atom_site_fract_y
_atom_site_fract_z
_atom_site_U_iso_or_equiv
_atom_site_thermal_displace_type
Cu1 Cu 0.38183(5) 0.19092(3) 0.189753(18) 0.0592 Uani
O1 O 0.2961(3) 0.4438(2) -0.16876(9) 0.0769 Uani
O2 O 0.2546(3) 0.3624(3) -0.13003(9) 0.0817 Uani
O3 O 0.4509(6) 0.2254(3) 0.22882(18) 0.1417 Uani
C1 C 0.3068(5) 0.4259(4) -0.14339(13) 0.0791 Uani
C2 C 0.3850(5) 0.4839(4) -0.12959(13) 0.0753 Uani
C3 C 0.4446(3) 0.5554(3) -0.14344(18) 0.0706 Uani
H1 H 0.4363 0.5637 -0.1625 0.0850 Uiso
C4 C 0.3986(5) 0.4711(5) -0.10124(15) 0.0919 Uani
H2 H 0.3592 0.4233 -0.0918 0.1100 Uiso
C5 C 0.4706(4) 0.5294(4) -0.0868(2) 0.0957 Uani
C6 C 0.5000 0.5000 0.0000 0.1833 Uani
C7 C 0.4634(15) 0.4303(11) -0.0176(4) 0.1600 Uani
H3 H 0.4431 0.3755 -0.0097 0.1920 Uiso
C8 C 0.4545(19) 0.4420(13) -0.0466(4) 0.1077 Uani
H4 H 0.4297 0.3950 -0.0593 0.1290 Uiso
C9 C 0.4792(12) 0.5208(12) -0.0563(4) 0.0951 Uani
C10 C 0.533(2) 0.5799(10) -0.0104(5) 0.1552 Uani
H5 H 0.5635 0.6278 0.0017 0.1860 Uiso
O1C O 0.4438(2) 0.2961(3) 0.16876(9) 0.0769 Uani
O2C O 0.3624(3) 0.2546(3) 0.13003(9) 0.0817 Uani
C1C C 0.4259(4) 0.3068(5) 0.14339(13) 0.0791 Uani
C2C C 0.4839(4) 0.3850(5) 0.12959(13) 0.0753 Uani
C3C C 0.5554(3) 0.4446(3) 0.14344(18) 0.0706 Uani
H1C H 0.5637 0.4363 0.1625 0.0850 Uiso
C4C C 0.4711(5) 0.3986(5) 0.10124(15) 0.0919 Uani
H2C H 0.4233 0.3592 0.0918 0.1100 Uiso
C5C C 0.5294(4) 0.4706(4) 0.0868(2) 0.0957 Uani
C7C C 0.4303(11) 0.4634(15) 0.0176(4) 0.1600 Uani
H3C H 0.3755 0.4431 0.0097 0.1920 Uiso
C8C C 0.4420(13) 0.4545(19) 0.0466(4) 0.1077 Uani
H4C H 0.3950 0.4297 0.0593 0.1290 Uiso
C9C C 0.5208(12) 0.4792(12) 0.0563(4) 0.0951 Uani
C10C C 0.5799(10) 0.533(2) 0.0104(5) 0.1552 Uani
H5C H 0.6278 0.5635 -0.0017 0.1860 Uiso
O1R O 0.7039(3) 0.5562(2) 0.16876(9) 0.0769 Uani
O2R O 0.7454(3) 0.6376(3) 0.13003(9) 0.0817 Uani
C1R C 0.6932(5) 0.5741(4) 0.14339(13) 0.0791 Uani
C2R C 0.6150(5) 0.5161(4) 0.12959(13) 0.0753 Uani
C4R C 0.6014(5) 0.5289(5) 0.10124(15) 0.0919 Uani
H2R H 0.6408 0.5767 0.0918 0.1100 Uiso
C7R C 0.5366(15) 0.5697(11) 0.0176(4) 0.1600 Uani
H3R H 0.5569 0.6245 0.0097 0.1920 Uiso
C8R C 0.5455(19) 0.5580(13) 0.0466(4) 0.1077 Uani
H4R H 0.5703 0.6050 0.0593 0.1290 Uiso
C10R C 0.467(2) 0.4201(10) 0.0104(5) 0.1552 Uani
H5R H 0.4365 0.3722 -0.0017 0.1860 Uiso
O1U O 0.5562(2) 0.7039(3) -0.16876(9) 0.0769 Uani
O2U O 0.6376(3) 0.7454(3) -0.13003(9) 0.0817 Uani
C1U C 0.5741(4) 0.6932(5) -0.14339(13) 0.0791 Uani
C2U C 0.5161(4) 0.6150(5) -0.12959(13) 0.0753 Uani
C4U C 0.5289(5) 0.6014(5) -0.10124(15) 0.0919 Uani
H2U H 0.5767 0.6408 -0.0918 0.1100 Uiso
C7U C 0.5697(11) 0.5366(15) -0.0176(4) 0.1600 Uani
H3U H 0.6245 0.5569 -0.0097 0.1920 Uiso
C8U C 0.5580(13) 0.5455(19) -0.0466(4) 0.1077 Uani
H4U H 0.6050 0.5703 -0.0593 0.1290 Uiso
C10U C 0.4201(10) 0.467(2) -0.0104(5) 0.1552 Uani
H5U H 0.3722 0.4365 0.0017 0.1860 Uiso
Cu1C Cu 0.19092(3) 0.38183(5) -0.189753(18) 0.0592 Uani
O3C O 0.2254(3) 0.4509(6) -0.22882(18) 0.1417 Uani
Cu1B Cu 0.80909(6) 0.61817(5) 0.189753(18) 0.0592 Uani
Cu1D Cu 0.61817(5) 0.80909(6) -0.189753(18) 0.0592 Uani
Cu1I Cu 0.85759(3) 0.71516(5) 0.143580(18) 0.0592 Uani
Cu1J Cu 0.28484(5) 0.14242(6) 0.143580(18) 0.0592 Uani
Cu1L Cu 0.71516(5) 0.85759(3) -0.143580(18) 0.0592 Uani
Cu1N Cu 0.14242(6) 0.28484(5) -0.143580(18) 0.0592 Uani
O1S O 0.4438(2) 0.1477(4) 0.16876(9) 0.0769 Uani
O1W O 0.1477(4) 0.4438(2) -0.16876(9) 0.0769 Uani
O2G O 0.3043(3) 0.2255(4) 0.20330(9) 0.0817 Uani
O2Q O 0.2255(4) 0.3043(3) -0.20330(9) 0.0817 Uani
O2GA O 0.3043(3) 0.0787(3) 0.20330(9) 0.0817 Uani
O2X O 0.0787(3) 0.3043(3) -0.20330(9) 0.0817 Uani
loop_
_atom_site_aniso_label
_atom_site_aniso_U_11
_atom_site_aniso_U_22
_atom_site_aniso_U_33
_atom_site_aniso_U_23
_atom_site_aniso_U_13
_atom_site_aniso_U_12
Cu1 0.0285(6) 0.1008(9) 0.0242(5) -0.00247(18) -0.0049(4) 0.0143(3)
O1 0.088 0.049 0.056 -0.002 -0.011 0.006
O2 0.108 0.053 0.045 0.007 -0.014 0.011
O3 0.124(7) 0.181(7) 0.101(6) -0.046(3) -0.091(6) 0.062(3)
C1 0.127 0.054 0.044 -0.006 -0.012 0.036
C2 0.094 0.061 0.046 -0.003 -0.013 0.02
C3 0.073 0.073 0.045 -0.004 0.004 0.021
C4 0.094 0.075 0.057 0.008 0 0.005
C5 0.097 0.097 0.055 0.013 -0.013 0.02
C6 0.185(15) 0.185(15) 0.110(19) 0.044(11) -0.044(11) 0.04(2)
C7 0.160(19) 0.160(19) 0.160(19) 0.0000(10) -0.0001(10) 0.080(9)
C8 0.107(14) 0.107(14) 0.091(13) 0.002(9) -0.011(9) 0.040(9)
C9 0.090(14) 0.090(14) 0.052(18) 0.018(9) -0.018(9) 0.005(16)
C10 0.155(12) 0.155(12) 0.155(12) 0.0002(10) -0.0001(10) 0.077(6)
O1C 0.049 0.088 0.056 0.011 0.002 0.006
O2C 0.053 0.108 0.045 0.014 -0.007 0.011
C1C 0.054 0.127 0.044 0.012 0.006 0.036
C2C 0.061 0.094 0.046 0.013 0.003 0.02
C3C 0.073 0.073 0.045 -0.004 0.004 0.021
C4C 0.075 0.094 0.057 0 -0.008 0.005
C5C 0.097 0.097 0.055 0.013 -0.013 0.02
C7C 0.16 0.16 0.16 0.0001 0 0.08
C8C 0.107 0.107 0.091 0.011 -0.002 0.04
C9C 0.09 0.09 0.052 0.018 -0.018 0.005
C10C 0.155 0.155 0.155 0.0001 -0.0002 0.077
O1R 0.088 0.049 0.056 -0.002 -0.011 0.006
O2R 0.108 0.053 0.045 0.007 -0.014 0.011
C1R 0.127 0.054 0.044 -0.006 -0.012 0.036
C2R 0.094 0.061 0.046 -0.003 -0.013 0.02
C4R 0.094 0.075 0.057 0.008 0 0.005
C7R 0.16 0.16 0.16 0 -0.0001 0.08
C8R 0.107 0.107 0.091 0.002 -0.011 0.04
C10R 0.155 0.155 0.155 0.0002 -0.0001 0.077
O1U 0.049 0.088 0.056 0.011 0.002 0.006
O2U 0.053 0.108 0.045 0.014 -0.007 0.011
C1U 0.054 0.127 0.044 0.012 0.006 0.036
C2U 0.061 0.094 0.046 0.013 0.003 0.02
C4U 0.075 0.094 0.057 0 -0.008 0.005
C7U 0.16 0.16 0.16 0.0001 0 0.08
C8U 0.107 0.107 0.091 0.011 -0.002 0.04
C10U 0.155 0.155 0.155 0.0001 -0.0002 0.077
Cu1C 0.1008 0.0285 0.0242 0.0049 0.00247 0.0143
O3C 0.181 0.124 0.101 0.091 0.046 0.062
Cu1B 0.1007 0.0285 0.0242 0.0049 0.00243 0.0142
Cu1D 0.0285 0.1007 0.0242 -0.00243 -0.0049 0.0142
Cu1I 0.1008 0.0285 0.0242 0.0049 0.00247 0.0143
Cu1J 0.0285 0.1007 0.0242 -0.00243 -0.0049 0.0142
Cu1L 0.0285 0.1008 0.0242 -0.00247 -0.0049 0.0143
Cu1N 0.1007 0.0285 0.0242 0.0049 0.00243 0.0142
O1S 0.049 0.125 0.056 -0.009 0.002 0.043
O1W 0.125 0.049 0.056 -0.002 0.009 0.043
O2G 0.053 0.139 0.045 -0.021 -0.007 0.042
O2Q 0.139 0.053 0.045 0.007 0.021 0.042
O2GA 0.053 0.108 0.045 0.014 -0.007 0.011
O2X 0.108 0.053 0.045 0.007 -0.014 0.011
loop_
_geom_bond_atom_site_label_1
_geom_bond_atom_site_label_2
_geom_bond_site_symmetry_1
_geom_bond_site_symmetry_2
Cu1 O3 1_555 1_555
O1 C1 1_555 1_555
O2 C1 1_555 1_555
C1 C2 1_555 1_555
C2 C3 1_555 1_555
C3 H1 1_555 1_555
C4 C2 1_555 1_555
H2 C4 1_555 1_555
C5 C4 1_555 1_555
C6 C7 1_555 1_555
C7 H3 1_555 1_555
H3 C10R 1_555 1_555
C8 C7 1_555 1_555
H4 C8 1_555 1_555
C9 C5 1_555 1_555
C10 C6 1_555 1_555
H5 C10 1_555 1_555
O1C Cu1 1_555 1_555
O2C C1C 1_555 1_555
C1C O1C 1_555 1_555
C2C C1C 1_555 1_555
C3C C2C 1_555 1_555
H1C C3C 1_555 1_555
C4C C2C 1_555 1_555
H2C C4C 1_555 1_555
C5C C4C 1_555 1_555
C7C C6 1_555 1_555
H3C C7C 1_555 1_555
C8C C7C 1_555 1_555
H4C C8C 1_555 1_555
C9C C5C 1_555 1_555
C10C C6 1_555 1_555
H5C C10C 1_555 1_555
O1R C1R 1_555 1_555
O2R C1R 1_555 1_555
C1R C2R 1_555 1_555
C2R C3C 1_555 1_555
C4R C5C 1_555 1_555
H2R C4R 1_555 1_555
C7R C6 1_555 1_555
H3R C10 1_555 1_555
C8R C9C 1_555 1_555
H4R C8R 1_555 1_555
C10R C6 1_555 1_555
H5R C7 1_555 1_555
O1U C1U 1_555 1_555
O2U C1U 1_555 1_555
C1U C2U 1_555 1_555
C2U C3 1_555 1_555
C4U C5 1_555 1_555
H2U C4U 1_555 1_555
C7U C6 1_555 1_555
H3U C10C 1_555 1_555
C8U C9 1_555 1_555
H4U C8U 1_555 1_555
C10U C6 1_555 1_555
H5U C7C 1_555 1_555
Cu1C O1 1_555 1_555
O3C Cu1C 1_555 1_555
Cu1B O1R 1_555 1_555
Cu1D O1U 1_555 1_555
Cu1I O2R 1_555 1_555
Cu1J O2C 1_555 1_555
Cu1L O2U 1_555 1_555
Cu1N O2 1_555 1_555
O1S Cu1 1_555 1_555
O1W Cu1C 1_555 1_555
O2G Cu1 1_555 1_555
O2Q Cu1C 1_555 1_555
O2GA Cu1 1_555 1_555
O2X Cu1C 1_555 1_555
C7 C10R 1_555 1_555
C7 C10U 1_555 1_555
C8 C9 1_555 1_555
C10 C7R 1_555 1_555
C10 C7U 1_555 1_555
H5 C7R 1_555 1_555
C7C C10R 1_555 1_555
C7C C10U 1_555 1_555
H3C C10U 1_555 1_555
C8C C9C 1_555 1_555
C10C C7R 1_555 1_555
C10C C7U 1_555 1_555
H5C C7U 1_555 1_555
C2R C4R 1_555 1_555
C7R H3R 1_555 1_555
C7R C8R 1_555 1_555
C10R H5R 1_555 1_555
C2U C4U 1_555 1_555
C7U H3U 1_555 1_555
C7U C8U 1_555 1_555
C10U H5U 1_555 1_555

#END
