
#######################################################################
#
#                 Cambridge Crystallographic Data Centre
#                                CCDC 
#
#######################################################################
#
# If this CIF has been generated from an entry in the Cambridge 
# Structural Database, then it will include bibliographic, chemical, 
# crystal, experimental, refinement or atomic coordinate data resulting 
# from the CCDC's data processing and validation procedures.
#
#######################################################################

data_ZIYQAB
_chemical_formula_moiety         '(C22 H34 Cd2 N12 O16)n'
_symmetry_cell_setting           monoclinic
_symmetry_space_group_name_H-M   'P 21/n'
_symmetry_Int_Tables_number      14
_space_group_name_Hall           '-P 2yn'
loop_
_symmetry_equiv_pos_site_id
_symmetry_equiv_pos_as_xyz
1 x,y,z
2 1/2-x,1/2+y,1/2-z
3 -x,-y,-z
4 1/2+x,1/2-y,1/2+z
_cell_length_a                   11.014(2)
_cell_length_b                   10.8512(18)
_cell_length_c                   17.237(4)
_cell_angle_alpha                90
_cell_angle_beta                 106.171(5)
_cell_angle_gamma                90
_cell_volume                     1978.57
loop_
_atom_site_label
_atom_site_type_symbol
_atom_site_fract_x
_atom_site_fract_y
_atom_site_fract_z
Cd1 Cd 0.37870(3) 0.18550(3) 0.184434(18)
O1 O 0.5105(3) 0.0557(4) 0.2916(2)
O2 O 0.3203(3) 0.1055(3) 0.29859(19)
O3 O 0.3126(4) -0.1805(3) 0.3273(2)
O4 O 0.2116(3) -0.1802(3) 0.4212(2)
O5 O 0.4963(5) 0.3321(4) 0.2691(3)
H1 H 0.486(7) 0.397(4) 0.239(4)
H2 H 0.558(4) 0.324(6) 0.311(3)
N1 N 0.1376(4) -0.0653(4) 0.0026(2)
N2 N 0.1311(4) -0.1331(4) 0.0687(3)
N3 N 0.2538(4) 0.0349(4) 0.1059(2)
N4 N 0.2813(4) -0.2037(4) -0.0911(3)
N5 N 0.3688(4) -0.1943(5) -0.0190(3)
N6 N 0.4590(4) -0.1745(4) -0.1206(3)
C1 C 0.0827(5) -0.1119(5) -0.0791(3)
H3 H 0.0891 -0.0482 -0.1181
H4 H -0.0071 -0.1293 -0.0867
C2 C 0.1477(5) -0.2277(5) -0.0957(3)
H5 H 0.1431 -0.2911 -0.0561
H6 H 0.1039 -0.2589 -0.1495
C3 C 0.2018(5) -0.0676(5) 0.1287(3)
H7 H 0.2153 -0.0901 0.1831
C4 C 0.2119(4) 0.0325(5) 0.0259(3)
H8 H 0.2316 0.0910 -0.0090
C5 C 0.4731(5) -0.1766(6) -0.0399(3)
H9 H 0.5520 -0.1662 -0.0018
C6 C 0.3354(5) -0.1923(5) -0.1503(3)
H10 H 0.2924 -0.1963 -0.2056
C7 C 0.4650(4) 0.0253(4) 0.4171(2)
C8 C 0.4019(4) -0.0673(4) 0.4481(3)
C9 C 0.4375(4) -0.0911(4) 0.5303(3)
H11 H 0.3952 -0.1528 0.5510
C10 C 0.4276(4) 0.0618(4) 0.3296(3)
C11 C 0.3021(4) -0.1473(5) 0.3938(3)
O1B O 0.4895(3) -0.0557(4) 0.7084(2)
O2B O 0.6797(3) -0.1055(3) 0.70141(19)
O3B O 0.6874(4) 0.1805(3) 0.6727(2)
O4B O 0.7884(3) 0.1802(3) 0.5788(2)
C7B C 0.5350(4) -0.0253(4) 0.5829(2)
C8B C 0.5981(4) 0.0673(4) 0.5519(3)
C9B C 0.5625(4) 0.0911(4) 0.4697(3)
H11B H 0.6048 0.1528 0.4490
C10B C 0.5724(4) -0.0618(4) 0.6704(3)
C11B C 0.6979(4) 0.1473(5) 0.6062(3)
Cd1B Cd 0.62130(3) -0.18550(3) -0.184434(18)
O5B O 0.5037(5) -0.3321(4) -0.2691(3)
H1B H 0.514(7) -0.397(4) -0.239(4)
H2B H 0.442(4) -0.324(6) -0.311(3)
N1B N 0.8624(4) 0.0653(4) -0.0026(2)
N2B N 0.8689(4) 0.1331(4) -0.0687(3)
N3B N 0.7462(4) -0.0349(4) -0.1059(2)
N4B N 0.7187(4) 0.2037(4) 0.0911(3)
N5B N 0.6312(4) 0.1943(5) 0.0190(3)
N6B N 0.5410(4) 0.1745(4) 0.1206(3)
C1B C 0.9173(5) 0.1119(5) 0.0791(3)
H3B H 0.9109 0.0482 0.1181
H4B H 1.0071 0.1293 0.0867
C2B C 0.8523(5) 0.2277(5) 0.0957(3)
H5B H 0.8569 0.2911 0.0561
H6B H 0.8961 0.2589 0.1495
C3B C 0.7982(5) 0.0676(5) -0.1287(3)
H7B H 0.7847 0.0901 -0.1831
C4B C 0.7881(4) -0.0325(5) -0.0259(3)
H8B H 0.7684 -0.0910 0.0090
C5B C 0.5269(5) 0.1766(6) 0.0399(3)
H9B H 0.4480 0.1662 0.0018
C6B C 0.6646(5) 0.1923(5) 0.1503(3)
H10B H 0.7076 0.1963 0.2056
Cd1A Cd 0.12130(3) -0.31450(3) 0.315566(18)
Cd1B_2 Cd 0.62130(3) -0.18550(3) 0.815566(18)
Cd1C Cd 0.87870(3) 0.31450(3) 0.684434(18)
O1B_2 O 0.4895(3) -0.0557(4) -0.2916(2)
O2B_2 O 0.6797(3) -0.1055(3) -0.29859(19)
O3A O 0.1874(4) 0.3195(3) 0.1727(2)
O3C O 0.8126(4) -0.3195(3) -0.1727(2)
O4A O 0.2884(3) 0.3198(3) 0.0788(2)
O4C O 0.7116(3) -0.3198(3) -0.0788(2)
O6 O 0.5673(6) 0.5488(6) 0.2331(3)
H12 H 0.633(6) 0.543(9) 0.212(5)
O7 O 0.7506(5) 0.2979(6) 0.3700(3)
H13 H 0.780(7) 0.229(3) 0.357(5)
H14 H 0.761(5) 0.360(4) 0.341(4)
O8 O 0.4350(6) 0.1501(7) -0.2046(5)
H15 H 0.500(6) 0.185(7) -0.170(5)
H16 H 0.458(7) 0.083(5) -0.224(5)
O9 O 0.6277(5) 0.3196(5) -0.1370(4)
H17 H 0.587(6) 0.377(6) -0.172(4)
H18 H 0.703(4) 0.307(7) -0.144(5)
O10 O 0.7346(5) 0.5414(8) 0.1445(4)
O11 O 0.3781(5) 0.5074(6) 0.0087(4)
loop_
_geom_bond_atom_site_label_1
_geom_bond_atom_site_label_2
_geom_bond_site_symmetry_1
_geom_bond_site_symmetry_2
Cd1 O1 1_555 1_555
O1 C10 1_555 1_555
O2 Cd1 1_555 1_555
O3 C11 1_555 1_555
O4 C11 1_555 1_555
O5 Cd1 1_555 1_555
H1 O5 1_555 1_555
H2 O5 1_555 1_555
N1 N2 1_555 1_555
N2 C3 1_555 1_555
N3 Cd1 1_555 1_555
N4 N5 1_555 1_555
N5 C5 1_555 1_555
N6 C5 1_555 1_555
C1 N1 1_555 1_555
H3 C1 1_555 1_555
H4 C1 1_555 1_555
C2 N4 1_555 1_555
H5 C2 1_555 1_555
H6 C2 1_555 1_555
C3 N3 1_555 1_555
H7 C3 1_555 1_555
C4 N1 1_555 1_555
H8 C4 1_555 1_555
C5 H9 1_555 1_555
C6 N4 1_555 1_555
H10 C6 1_555 1_555
C7 C8 1_555 1_555
C8 C9 1_555 1_555
C9 H11 1_555 1_555
C10 O2 1_555 1_555
C11 C8 1_555 1_555
O6 H12 1_555 1_555
O7 H13 1_555 1_555
H14 O7 1_555 1_555
O8 H15 1_555 1_555
H16 O8 1_555 1_555
O9 H17 1_555 1_555
H18 O9 1_555 1_555
O1B C10B 1_555 1_555
O2B C10B 1_555 1_555
O3B C11B 1_555 1_555
O4B C11B 1_555 1_555
C7B C9 1_555 1_555
C8B C7B 1_555 1_555
C9B C7 1_555 1_555
H11B C9B 1_555 1_555
C10B C7B 1_555 1_555
C11B C8B 1_555 1_555
Cd1B N6 1_555 1_555
O5B Cd1B 1_555 1_555
H1B O5B 1_555 1_555
H2B O5B 1_555 1_555
N1B N2B 1_555 1_555
N2B C3B 1_555 1_555
N3B Cd1B 1_555 1_555
N4B N5B 1_555 1_555
N5B C5B 1_555 1_555
N6B Cd1 1_555 1_555
C1B N1B 1_555 1_555
H3B C1B 1_555 1_555
H4B C1B 1_555 1_555
C2B N4B 1_555 1_555
H5B C2B 1_555 1_555
H6B C2B 1_555 1_555
C3B N3B 1_555 1_555
H7B C3B 1_555 1_555
C4B N1B 1_555 1_555
H8B C4B 1_555 1_555
C5B N6B 1_555 1_555
H9B C5B 1_555 1_555
C6B N4B 1_555 1_555
H10B C6B 1_555 1_555
Cd1A O3 1_555 1_555
Cd1B_2 O1B 1_555 1_555
Cd1C O3B 1_555 1_555
O1B_2 Cd1B 1_555 1_555
O2B_2 Cd1B 1_555 1_555
O3A Cd1 1_555 1_555
O3C Cd1B 1_555 1_555
O4A Cd1 1_555 1_555
O4C Cd1B 1_555 1_555
O4 Cd1A 1_555 1_555
N3 C4 1_555 1_555
N6 C6 1_555 1_555
C1 C2 1_555 1_555
C7 C10 1_555 1_555
O2B Cd1B_2 1_555 1_555
O4B Cd1C 1_555 1_555
C8B C9B 1_555 1_555
N3B C4B 1_555 1_555
N6B C6B 1_555 1_555
C1B C2B 1_555 1_555

#END
