
#######################################################################
#
#                 Cambridge Crystallographic Data Centre
#                                CCDC 
#
#######################################################################
#
# If this CIF has been generated from an entry in the Cambridge 
# Structural Database, then it will include bibliographic, chemical, 
# crystal, experimental, refinement or atomic coordinate data resulting 
# from the CCDC's data processing and validation procedures.
#
#######################################################################

data_NASHAS
_chemical_formula_moiety         '(C10 H28 Bi1 N4 O22 Sm1)n'
_symmetry_cell_setting           monoclinic
_symmetry_space_group_name_H-M   'P 21/n'
_symmetry_Int_Tables_number      14
_space_group_name_Hall           '-P 2yn'
loop_
_symmetry_equiv_pos_site_id
_symmetry_equiv_pos_as_xyz
1 x,y,z
2 1/2-x,1/2+y,1/2-z
3 -x,-y,-z
4 1/2+x,1/2-y,1/2+z
_cell_length_a                   12.622(2)
_cell_length_b                   8.1157(15)
_cell_length_c                   23.634(5)
_cell_angle_alpha                90
_cell_angle_beta                 105.340(2)
_cell_angle_gamma                90
_cell_volume                     2334.73
loop_
_atom_site_label
_atom_site_type_symbol
_atom_site_fract_x
_atom_site_fract_y
_atom_site_fract_z
Bi1 Bi 0.406457(12) 0.172906(18) 0.131631(6)
Sm1 Sm 0.094130(16) -0.00102(3) -0.114570(9)
O1 O 0.3305(2) 0.0924(4) 0.02658(12)
O2 O 0.2108(2) -0.0952(4) -0.02119(13)
O3 O 0.5936(2) 0.1009(4) 0.16033(13)
O4 O 0.7234(2) -0.0125(4) 0.12525(14)
O5 O 0.4892(2) 0.2991(3) 0.22986(13)
O6 O 0.5487(2) 0.2592(4) 0.32678(12)
O7 O 0.2212(2) 0.0704(5) 0.12060(13)
O8 O 0.0956(2) 0.0457(4) 0.17155(13)
O9 O 0.2905(3) 0.4133(5) 0.16211(15)
O10 O 0.2382(3) 0.4157(5) 0.06771(15)
O11 O 0.1592(3) 0.5746(5) 0.11923(18)
O12 O -0.0270(3) 0.1411(6) -0.06246(18)
O13 O 0.0797(2) -0.0881(4) -0.21581(13)
O14 O 0.1903(3) 0.2508(4) -0.06262(14)
N1 N 0.4400(3) -0.1195(4) 0.10891(15)
N2 N 0.3873(3) -0.0007(4) 0.21460(14)
N3 N 0.2283(3) 0.4670(5) 0.11588(18)
C1 C 0.3465(3) -0.1851(5) 0.06240(17)
H1 H 0.2916 -0.2333 0.0807
H2 H 0.3732 -0.2740 0.0410
C2 C 0.2922(4) -0.0525(5) 0.01937(18)
C3 C 0.5411(3) -0.1113(5) 0.08854(18)
H3 H 0.5227 -0.0687 0.0479
H4 H 0.5716 -0.2237 0.0883
C4 C 0.6272(3) -0.0011(6) 0.12751(18)
C5 C 0.4606(3) -0.2216(5) 0.16322(17)
H5 H 0.5367 -0.2032 0.1873
H6 H 0.4528 -0.3397 0.1524
C6 C 0.3804(3) -0.1780(5) 0.19889(18)
H7 H 0.3047 -0.2044 0.1759
H8 H 0.3970 -0.2452 0.2351
C7 C 0.4780(3) 0.0289(5) 0.26754(17)
H9 H 0.5435 -0.0340 0.2645
H10 H 0.4564 -0.0114 0.3024
C8 C 0.5069(3) 0.2104(5) 0.27532(18)
C9 C 0.2824(3) 0.0539(5) 0.22539(17)
H11 H 0.2915 0.1656 0.2429
H12 H 0.2616 -0.0220 0.2534
C10 C 0.1920(3) 0.0564(6) 0.16790(19)
H13 H 0.132(3) -0.124(5) -0.227(2)
H14 H 0.053(4) -0.008(4) -0.2358(19)
H15 H 0.235(4) 0.221(8) -0.0324(13)
H16 H 0.144(4) 0.309(7) -0.054(2)
N4 N 0.5487(7) 0.4013(10) 0.0641(3)
O15 O 0.5403(6) 0.4403(8) 0.1130(3)
O16 O 0.5151(5) 0.2643(7) 0.0433(3)
O17 O 0.5914(7) 0.4981(10) 0.0347(3)
O23 O 0.1378(12) -0.299(2) -0.1171(5)
O24 O -0.0120(6) -0.1718(10) -0.0550(3)
Sm1B Sm 0.905870(16) 0.00102(3) 0.114570(9)
Sm1C Sm 0.594130(16) 0.50102(3) 0.385430(9)
Sm1B_2 Sm -0.094130(16) 0.00102(3) 0.114570(9)
O4B O 0.2766(2) 0.0125(4) -0.12525(14)
O6C O 0.0487(2) 0.2408(4) -0.17322(12)
O8B O -0.0956(2) -0.0457(4) -0.17155(13)
O21 O 0.748(2) 1.066(3) 0.3433(19)
O25 O 0.5484(9) 1.0010(12) 0.4611(5)
O26 O 0.7415(3) 0.7395(7) 0.2486(2)
loop_
_geom_bond_atom_site_label_1
_geom_bond_atom_site_label_2
_geom_bond_site_symmetry_1
_geom_bond_site_symmetry_2
Bi1 O1 1_555 1_555
Sm1 O2 1_555 1_555
O1 C2 1_555 1_555
O2 C2 1_555 1_555
O3 Bi1 1_555 1_555
O4 C4 1_555 1_555
O5 Bi1 1_555 1_555
O6 C8 1_555 1_555
O7 Bi1 1_555 1_555
O8 C10 1_555 1_555
O9 Bi1 1_555 1_555
O10 N3 1_555 1_555
O11 N3 1_555 1_555
O12 Sm1 1_555 1_555
O13 Sm1 1_555 1_555
O14 Sm1 1_555 1_555
N1 Bi1 1_555 1_555
N2 Bi1 1_555 1_555
N3 O9 1_555 1_555
C1 N1 1_555 1_555
H1 C1 1_555 1_555
H2 C1 1_555 1_555
C2 C1 1_555 1_555
C3 N1 1_555 1_555
H3 C3 1_555 1_555
H4 C3 1_555 1_555
C4 O3 1_555 1_555
C5 N1 1_555 1_555
H5 C5 1_555 1_555
H6 C5 1_555 1_555
C6 N2 1_555 1_555
H7 C6 1_555 1_555
H8 C6 1_555 1_555
C7 N2 1_555 1_555
H9 C7 1_555 1_555
H10 C7 1_555 1_555
C8 O5 1_555 1_555
C9 N2 1_555 1_555
H11 C9 1_555 1_555
H12 C9 1_555 1_555
C10 O7 1_555 1_555
H13 O13 1_555 1_555
H14 O13 1_555 1_555
H15 O14 1_555 1_555
H16 O14 1_555 1_555
N4 O15 1_555 1_555
O15 Bi1 1_555 1_555
O16 Bi1 1_555 1_555
O17 N4 1_555 1_555
O23 Sm1 1_555 1_555
O24 Sm1 1_555 1_555
Sm1B O4 1_555 1_555
Sm1C O6 1_555 1_555
Sm1B_2 O8 1_555 1_555
O4B Sm1 1_555 1_555
O6C Sm1 1_555 1_555
O8B Sm1 1_555 1_555
C3 C4 1_555 1_555
C5 C6 1_555 1_555
C7 C8 1_555 1_555
C9 C10 1_555 1_555
N4 O16 1_555 1_555

#END
