
#######################################################################
#
#                 Cambridge Crystallographic Data Centre
#                                CCDC 
#
#######################################################################
#
# If this CIF has been generated from an entry in the Cambridge 
# Structural Database, then it will include bibliographic, chemical, 
# crystal, experimental, refinement or atomic coordinate data resulting 
# from the CCDC's data processing and validation procedures.
#
#######################################################################

data_BONMEX
_chemical_formula_moiety         '(C40 H30 N8 Ni2 O9)n'
_symmetry_cell_setting           monoclinic
_symmetry_space_group_name_H-M   'C 2/c'
_symmetry_Int_Tables_number      15
_space_group_name_Hall           '-C 2yc'
loop_
_symmetry_equiv_pos_site_id
_symmetry_equiv_pos_as_xyz
1 x,y,z
2 -x,y,1/2-z
3 1/2+x,1/2+y,z
4 1/2-x,1/2+y,1/2-z
5 -x,-y,-z
6 x,-y,1/2+z
7 1/2-x,1/2-y,-z
8 1/2+x,1/2-y,1/2+z
_cell_length_a                   14.248(4)
_cell_length_b                   26.912(9)
_cell_length_c                   18.125(3)
_cell_angle_alpha                90
_cell_angle_beta                 100.584(6)
_cell_angle_gamma                90
_cell_volume                     6831.65
loop_
_atom_site_label
_atom_site_type_symbol
_atom_site_fract_x
_atom_site_fract_y
_atom_site_fract_z
Ni1 Ni 0.37506(3) 0.393544(15) 0.22649(2)
O1 O 0.43684(14) 0.44513(7) 0.16794(11)
O2 O 0.45643(15) 0.30323(9) 0.12632(13)
O3 O 0.59141(13) 0.42819(7) 0.17003(10)
N1 N 0.13396(18) 0.47490(10) 0.12781(16)
O4 O 0.33157(13) 0.35427(8) 0.12549(11)
O5 O 0.5000 0.35102(9) 0.2500
C1 C 0.5066(2) 0.47510(11) 0.06890(16)
N2 N 0.25437(17) 0.43670(10) 0.19946(15)
N3 N 0.2573(2) 0.29085(11) 0.35931(18)
C2 C 0.4212(2) 0.49452(12) 0.03303(18)
H1 H 0.3670 0.4908 0.0544
C3 C 0.3078(2) 0.28259(12) 0.04903(18)
C4 C 0.0660(2) 0.48794(13) 0.0630(2)
C5 C 0.2537(3) 0.26951(13) 0.4303(2)
C6 C 0.3700(2) 0.31633(13) 0.10398(18)
N4 N 0.30202(17) 0.34029(10) 0.27460(15)
C7 C 0.5124(2) 0.44697(11) 0.14164(17)
C8 C 0.1556(2) 0.26100(13) -0.02361(19)
H2 H 0.0914 0.2686 -0.0395
C9 C 0.4147(2) 0.51978(13) -0.03520(18)
H3 H 0.3566 0.5333 -0.0581
C10 C 0.2019(2) 0.43927(13) 0.13244(19)
H4 H 0.2102 0.4190 0.0926
C11 C -0.0112(2) 0.51586(13) 0.0699(2)
H5 H -0.0197 0.5267 0.1170
C12 C 0.2125(2) 0.29307(12) 0.02466(19)
H6 H 0.1864 0.3219 0.0408
C13 C 0.3191(2) 0.32565(12) 0.34571(19)
H7 H 0.3682 0.3381 0.3819
C14 C 0.1682(3) 0.25643(14) 0.4483(2)
H8 H 0.1122 0.2608 0.4135
C15 C 0.1643(3) 0.23648(14) 0.5188(2)
H9 H 0.1060 0.2273 0.5308
C16 C -0.0774(2) 0.52808(14) 0.0064(2)
H10 H -0.1301 0.5474 0.0110
C17 C 0.1444(3) 0.49616(14) 0.1980(2)
H11 H 0.1078 0.5215 0.2131
C18 C 0.2241(3) 0.31217(14) 0.2425(2)
H12 H 0.1949 0.3140 0.1923
C19 C 0.2197(3) 0.47210(14) 0.2407(2)
H13 H 0.2438 0.4790 0.2909
C20 C 0.1958(3) 0.28166(16) 0.2936(2)
H14 H 0.1453 0.2592 0.2857
Ni1A Ni 0.62494(3) 0.393544(15) 0.27351(2)
Ni1D Ni -0.37506(3) 0.606456(15) -0.22649(2)
Ni1D_2 Ni 0.62494(3) 0.606456(15) -0.22649(2)
Ni1E Ni 0.37506(3) 0.606456(15) -0.27351(2)
Ni1F Ni 0.12494(3) 0.106456(15) -0.22649(2)
Ni1F_2 Ni 0.12494(3) 0.106456(15) 0.77351(2)
O1D O 0.56316(14) 0.55487(7) -0.16794(11)
O1A O 0.56316(14) 0.44513(7) 0.33206(11)
O2F O 0.04357(15) 0.19677(9) -0.12632(13)
O3D O 0.40859(13) 0.57181(7) -0.17003(10)
O3A O 0.40859(13) 0.42819(7) 0.32997(10)
N1D N -0.13396(18) 0.52510(10) -0.12781(16)
O4F O 0.16843(13) 0.14573(8) -0.12549(11)
O4A O 0.66843(13) 0.35427(8) 0.37451(11)
C1D C 0.4934(2) 0.52490(11) -0.06890(16)
N2D N -0.25437(17) 0.56330(10) -0.19946(15)
N2A N 0.74563(17) 0.43670(10) 0.30054(15)
N3F N 0.2427(2) 0.20915(11) 0.64069(18)
C2D C 0.5788(2) 0.50548(12) -0.03303(18)
H1D H 0.6330 0.5092 -0.0544
C3F C 0.1922(2) 0.21741(12) -0.04903(18)
C4D C -0.0660(2) 0.51206(13) -0.0630(2)
C5F C 0.2463(3) 0.23049(13) 0.5697(2)
C6F C 0.1300(2) 0.18367(13) -0.10398(18)
N4F N 0.19798(17) 0.15971(10) 0.72540(15)
N4A N 0.69798(17) 0.34029(10) 0.22540(15)
C7D C 0.4876(2) 0.55303(11) -0.14164(17)
C8F C 0.3444(2) 0.23900(13) 0.02361(19)
H2F H 0.4086 0.2314 0.0395
C9D C 0.5853(2) 0.48022(13) 0.03520(18)
H3D H 0.6434 0.4667 0.0581
C10D C -0.2019(2) 0.56073(13) -0.13244(19)
H4D H -0.2102 0.5810 -0.0926
C11D C 0.0112(2) 0.48414(13) -0.0699(2)
H5D H 0.0197 0.4733 -0.1170
C12F C 0.2875(2) 0.20693(12) -0.02466(19)
H6F H 0.3136 0.1781 -0.0408
C13F C 0.1809(2) 0.17435(12) 0.65429(19)
H7F H 0.1318 0.1619 0.6181
C14F C 0.3318(3) 0.24357(14) 0.5517(2)
H8F H 0.3878 0.2392 0.5865
C15F C 0.3357(3) 0.26352(14) 0.4812(2)
H9F H 0.3940 0.2727 0.4692
C16D C 0.0774(2) 0.47192(14) -0.0064(2)
H10D H 0.1301 0.4526 -0.0110
C17D C -0.1444(3) 0.50384(14) -0.1980(2)
H11D H -0.1078 0.4785 -0.2131
C18F C 0.2759(3) 0.18783(14) 0.7575(2)
H12F H 0.3051 0.1860 0.8077
C19D C -0.2197(3) 0.52790(14) -0.2407(2)
H13D H -0.2438 0.5210 -0.2909
C20F C 0.3042(3) 0.21834(16) 0.7064(2)
H14F H 0.3547 0.2408 0.7143
loop_
_geom_bond_atom_site_label_1
_geom_bond_atom_site_label_2
_geom_bond_site_symmetry_1
_geom_bond_site_symmetry_2
Ni1 O1 1_555 1_555
O1 C7 1_555 1_555
O2 C6 1_555 1_555
O3 C7 1_555 1_555
N1 C4 1_555 1_555
O4 Ni1 1_555 1_555
O5 Ni1 1_555 1_555
C1 C2 1_555 1_555
N2 Ni1 1_555 1_555
N3 C5 1_555 1_555
C2 H1 1_555 1_555
C3 C6 1_555 1_555
C4 C11 1_555 1_555
C5 C14 1_555 1_555
C6 O4 1_555 1_555
N4 Ni1 1_555 1_555
C7 C1 1_555 1_555
C8 H2 1_555 1_555
C9 C2 1_555 1_555
H3 C9 1_555 1_555
C10 N1 1_555 1_555
H4 C10 1_555 1_555
C11 H5 1_555 1_555
C12 C3 1_555 1_555
H6 C12 1_555 1_555
C13 N3 1_555 1_555
H7 C13 1_555 1_555
C14 H8 1_555 1_555
C15 C14 1_555 1_555
H9 C15 1_555 1_555
C16 C11 1_555 1_555
H10 C16 1_555 1_555
C17 N1 1_555 1_555
H11 C17 1_555 1_555
C18 N4 1_555 1_555
H12 C18 1_555 1_555
C19 N2 1_555 1_555
H13 C19 1_555 1_555
C20 N3 1_555 1_555
H14 C20 1_555 1_555
Ni1A O3 1_555 1_555
Ni1D N2D 1_555 1_555
Ni1D_2 O1D 1_555 1_555
Ni1E O3D 1_555 1_555
Ni1F O4F 1_555 1_555
Ni1F_2 N4F 1_555 1_555
O1D C7D 1_555 1_555
O1A Ni1A 1_555 1_555
O2F C6F 1_555 1_555
O3D C7D 1_555 1_555
O3A Ni1 1_555 1_555
N1D C4D 1_555 1_555
O4F C6F 1_555 1_555
O4A Ni1A 1_555 1_555
C1D C9 1_555 1_555
N2D C10D 1_555 1_555
N2A Ni1A 1_555 1_555
N3F C5F 1_555 1_555
C2D C1D 1_555 1_555
H1D C2D 1_555 1_555
C3F C8 1_555 1_555
C4D C16 1_555 1_555
C5F C15 1_555 1_555
C6F C3F 1_555 1_555
N4F C13F 1_555 1_555
N4A Ni1A 1_555 1_555
C7D C1D 1_555 1_555
C8F C3 1_555 1_555
H2F C8F 1_555 1_555
C9D C1 1_555 1_555
H3D C9D 1_555 1_555
C10D N1D 1_555 1_555
H4D C10D 1_555 1_555
C11D C4D 1_555 1_555
H5D C11D 1_555 1_555
C12F C3F 1_555 1_555
H6F C12F 1_555 1_555
C13F N3F 1_555 1_555
H7F C13F 1_555 1_555
C14F C5F 1_555 1_555
H8F C14F 1_555 1_555
C15F C5 1_555 1_555
H9F C15F 1_555 1_555
C16D C4 1_555 1_555
H10D C16D 1_555 1_555
C17D N1D 1_555 1_555
H11D C17D 1_555 1_555
C18F N4F 1_555 1_555
H12F C18F 1_555 1_555
C19D N2D 1_555 1_555
H13D C19D 1_555 1_555
C20F N3F 1_555 1_555
H14F C20F 1_555 1_555
O5 Ni1A 1_555 1_555
N2 C10 1_555 1_555
N4 C13 1_555 1_555
C8 C12 1_555 1_555
C17 C19 1_555 1_555
C18 C20 1_555 1_555
C2D C9D 1_555 1_555
C8F C12F 1_555 1_555
C11D C16D 1_555 1_555
C14F C15F 1_555 1_555
C17D C19D 1_555 1_555
C18F C20F 1_555 1_555

#END
