
#######################################################################
#
#                 Cambridge Crystallographic Data Centre
#                                CCDC 
#
#######################################################################
#
# If this CIF has been generated from an entry in the Cambridge 
# Structural Database, then it will include bibliographic, chemical, 
# crystal, experimental, refinement or atomic coordinate data resulting 
# from the CCDC's data processing and validation procedures.
#
#######################################################################

data_BONMAT
_chemical_formula_moiety         '(C40 H30 N8 Ni2 O9)n'
_symmetry_cell_setting           orthorhombic
_symmetry_space_group_name_H-M   'F d d 2'
_symmetry_Int_Tables_number      43
_space_group_name_Hall           'F 2 -2d'
loop_
_symmetry_equiv_pos_site_id
_symmetry_equiv_pos_as_xyz
1 x,y,z
2 -x,-y,z
3 1/4-x,1/4+y,1/4+z
4 1/4+x,1/4-y,1/4+z
5 x,1/2+y,1/2+z
6 -x,1/2-y,1/2+z
7 1/4-x,3/4+y,3/4+z
8 1/4+x,3/4-y,3/4+z
9 1/2+x,y,1/2+z
10 1/2-x,-y,1/2+z
11 3/4-x,1/4+y,3/4+z
12 3/4+x,1/4-y,3/4+z
13 1/2+x,1/2+y,z
14 1/2-x,1/2-y,z
15 3/4-x,3/4+y,1/4+z
16 3/4+x,3/4-y,1/4+z
_cell_length_a                   37.129(7)
_cell_length_b                   14.135(4)
_cell_length_c                   26.074(3)
_cell_angle_alpha                90
_cell_angle_beta                 90
_cell_angle_gamma                90
_cell_volume                     13684.1
loop_
_atom_site_label
_atom_site_type_symbol
_atom_site_fract_x
_atom_site_fract_y
_atom_site_fract_z
_atom_site_U_iso_or_equiv
_atom_site_thermal_displace_type
Ni1 Ni 0.269528(16) 0.13562(4) 0.25024(2) 0.0209 Uani
O1 O 0.2500 0.2500 0.29271(18) 0.0210 Uani
O2 O 0.29389(10) 0.2251(3) 0.19709(14) 0.0295 Uani
O3 O 0.27927(10) 0.3757(2) 0.21409(15) 0.0302 Uani
O4 O 0.43306(10) 0.3840(3) 0.04025(15) 0.0317 Uani
C1 C 0.32979(14) 0.3451(4) 0.1623(2) 0.0317 Uani
N1 N 0.46131(13) -0.2095(4) 0.0998(2) 0.0443 Uani
O5 O 0.43668(12) 0.5126(3) 0.08885(19) 0.0553 Uani
N2 N 0.32826(15) -0.0614(4) 0.1639(2) 0.0503 Uani
N3 N 0.28904(12) 0.0286(3) 0.20500(19) 0.0337 Uani
N4 N 0.50021(13) -0.2913(4) 0.05474(19) 0.0380 Uani
C2 C 0.37735(16) 0.3128(4) 0.1017(2) 0.0387 Uani
H1 H 0.3893 0.2703 0.0805 0.0470 Uiso
C3 C 0.38894(14) 0.4057(4) 0.1041(2) 0.0323 Uani
C4 C 0.34080(16) 0.4386(4) 0.1638(2) 0.0393 Uani
H2 H 0.3275 0.4816 0.1832 0.0470 Uiso
C5 C 0.34801(16) 0.2818(4) 0.1306(2) 0.0410 Uani
H3 H 0.3406 0.2190 0.1288 0.0490 Uiso
C6 C 0.36283(18) -0.0992(5) 0.1478(3) 0.0523 Uani
C7 C 0.29813(13) 0.3110(4) 0.19387(19) 0.0287 Uani
C8 C 0.32298(17) 0.0069(5) 0.2002(3) 0.0460 Uani
H4 H 0.3414 0.0346 0.2192 0.0550 Uiso
C9 C 0.37064(16) 0.4700(4) 0.1378(3) 0.0487 Uani
H5 H 0.3789 0.5316 0.1420 0.0580 Uiso
C10 C 0.46568(14) -0.2740(4) 0.0634(2) 0.0380 Uani
H6 H 0.4469 -0.3035 0.0461 0.0450 Uiso
C11 C 0.42255(14) 0.4411(4) 0.0757(2) 0.0357 Uani
C12 C 0.4249(2) -0.0824(6) 0.1382(3) 0.0633 Uani
H7 H 0.4456 -0.0472 0.1441 0.0760 Uiso
C13 C 0.3920(2) -0.0454(6) 0.1512(3) 0.0613 Uani
H8 H 0.3902 0.0169 0.1623 0.0740 Uiso
C14 C 0.42772(16) -0.1701(5) 0.1166(3) 0.0423 Uani
C15 C 0.39598(19) -0.2264(5) 0.1131(4) 0.0693 Uani
H9 H 0.3970 -0.2879 0.1005 0.0830 Uiso
C16 C 0.3638(2) -0.1876(6) 0.1290(3) 0.0630 Uani
H10 H 0.3426 -0.2227 0.1266 0.0750 Uiso
C17 C 0.51783(19) -0.2378(6) 0.0888(3) 0.0573 Uani
H11 H 0.5428 -0.2337 0.0914 0.0690 Uiso
C18 C 0.2945(2) -0.0843(6) 0.1451(3) 0.0637 Uani
H12 H 0.2889 -0.1292 0.1202 0.0760 Uiso
C19 C 0.2717(2) -0.0283(6) 0.1703(3) 0.0623 Uani
H13 H 0.2470 -0.0279 0.1649 0.0750 Uiso
C20 C 0.4942(2) -0.1903(6) 0.1190(3) 0.0673 Uani
H14 H 0.4996 -0.1523 0.1471 0.0810 Uiso
Ni1M Ni 0.230472(16) 0.36438(4) 0.25024(2) 0.0209 Uani
Ni1J Ni 0.480472(16) 0.38562(4) 0.00024(2) 0.0209 Uani
Ni1G Ni 0.519528(16) -0.38562(4) 0.00024(2) 0.0209 Uani
Ni1K Ni 0.019528(16) 0.11438(4) 0.00024(2) 0.0209 Uani
Ni1O Ni 0.019528(16) -0.38562(4) 0.50024(2) 0.0209 Uani
O2M O 0.20611(10) 0.2749(3) 0.19709(14) 0.0295 Uani
O3M O 0.22073(10) 0.1243(2) 0.21409(15) 0.0302 Uani
O4M O 0.06694(10) 0.1160(3) 0.04025(15) 0.0317 Uani
O4N O 0.31694(10) 0.1340(3) 0.29025(15) 0.0317 Uani
O4O O 0.18306(10) 0.3660(3) 0.29025(15) 0.0317 Uani
C1M C 0.17021(14) 0.1549(4) 0.1623(2) 0.0317 Uani
N1O N 0.21131(13) -0.0405(4) 0.3498(2) 0.0443 Uani
O5M O 0.06332(12) -0.0126(3) 0.08885(19) 0.0553 Uani
N2O N 0.07826(15) -0.1886(4) 0.4139(2) 0.0503 Uani
N3O N 0.03904(12) -0.2786(3) 0.45500(19) 0.0337 Uani
N3M N 0.21096(12) 0.4714(3) 0.20500(19) 0.0337 Uani
N4O N 0.25021(13) 0.0413(4) 0.30474(19) 0.0380 Uani
N4N N 0.24979(13) 0.4587(4) 0.30474(19) 0.0380 Uani
C2M C 0.12265(16) 0.1872(4) 0.1017(2) 0.0387 Uani
H1M H 0.1107 0.2297 0.0805 0.0470 Uiso
C3M C 0.11106(14) 0.0943(4) 0.1041(2) 0.0323 Uani
C4M C 0.15920(16) 0.0614(4) 0.1638(2) 0.0393 Uani
H2M H 0.1725 0.0184 0.1832 0.0470 Uiso
C5M C 0.15199(16) 0.2182(4) 0.1306(2) 0.0410 Uani
H3M H 0.1594 0.2810 0.1288 0.0490 Uiso
C6O C 0.11283(18) -0.1508(5) 0.3978(3) 0.0523 Uani
C7M C 0.20187(13) 0.1890(4) 0.19387(19) 0.0287 Uani
C8O C 0.07298(17) -0.2569(5) 0.4502(3) 0.0460 Uani
H4O H 0.0914 -0.2846 0.4692 0.0550 Uiso
C9M C 0.12936(16) 0.0300(4) 0.1378(3) 0.0487 Uani
H5M H 0.1211 -0.0316 0.1420 0.0580 Uiso
C10O C 0.21568(14) 0.0240(4) 0.3134(2) 0.0380 Uani
H6O H 0.1969 0.0535 0.2961 0.0450 Uiso
C11M C 0.07745(14) 0.0589(4) 0.0757(2) 0.0357 Uani
C12O C 0.1749(2) -0.1676(6) 0.3882(3) 0.0633 Uani
H7O H 0.1956 -0.2028 0.3941 0.0760 Uiso
C13O C 0.1420(2) -0.2046(6) 0.4012(3) 0.0613 Uani
H8O H 0.1402 -0.2669 0.4123 0.0740 Uiso
C14O C 0.17772(16) -0.0799(5) 0.3666(3) 0.0423 Uani
C15O C 0.14598(19) -0.0236(5) 0.3631(4) 0.0693 Uani
H9O H 0.1470 0.0379 0.3505 0.0830 Uiso
C16O C 0.1138(2) -0.0624(6) 0.3790(3) 0.0630 Uani
H10O H 0.0926 -0.0273 0.3766 0.0750 Uiso
C17O C 0.26783(19) -0.0122(6) 0.3388(3) 0.0573 Uani
H11O H 0.2928 -0.0163 0.3414 0.0690 Uiso
C18O C 0.0445(2) -0.1657(6) 0.3951(3) 0.0637 Uani
H12O H 0.0389 -0.1208 0.3702 0.0760 Uiso
C19O C 0.0217(2) -0.2217(6) 0.4203(3) 0.0623 Uani
H13O H -0.0030 -0.2221 0.4149 0.0750 Uiso
C20O C 0.2442(2) -0.0597(6) 0.3690(3) 0.0673 Uani
H14O H 0.2496 -0.0977 0.3971 0.0810 Uiso
loop_
_atom_site_aniso_label
_atom_site_aniso_U_11
_atom_site_aniso_U_22
_atom_site_aniso_U_33
_atom_site_aniso_U_23
_atom_site_aniso_U_13
_atom_site_aniso_U_12
Ni1 0.0127(3) 0.0274(3) 0.0226(3) 0.0007(3) -0.0001(2) 0.0006(3)
O1 0.014(2) 0.024(2) 0.025(3) 0.000 0.000 0.0015(19)
O2 0.0246 0.027 0.037 0.004 0.0129 -0.0029
O3 0.0185 0.032 0.04 0.0012 0.0146 0.0041
O4 0.023 0.041 0.031 -0.0062 0.0061 -0.0056
C1 0.02 0.044 0.031 -0.001 0.009 -0.003
N1 0.031(3) 0.058(3) 0.044(3) -0.021(3) 0.007(2) -0.015(2)
O5 0.048 0.05 0.068 -0.013 0.026 -0.015
N2 0.043(3) 0.042(3) 0.066(4) -0.023(3) 0.013(3) 0.016(2)
N3 0.028(3) 0.031(2) 0.042(3) -0.005(2) 0.004(2) 0.004(2)
N4 0.031(3) 0.038(3) 0.045(3) -0.008(2) -0.001(2) 0.003(2)
C2 0.027 0.04 0.049 -0.012 0.013 -0.002
C3 0.019 0.044 0.034 -0.003 0.014 0
C4 0.042 0.038 0.038 -0.007 0.022 -0.002
C5 0.035 0.034 0.054 -0.002 0.017 0
C6 0.041(4) 0.056(4) 0.060(4) -0.025(4) 0.012(3) 0.013(3)
C7 0.013 0.056 0.017 -0.001 0.0017 -0.004
C8 0.033(3) 0.049(4) 0.056(4) -0.019(3) 0.002(3) -0.003(3)
C9 0.038 0.029 0.079 -0.008 0.03 -0.01
C10 0.019(3) 0.049(4) 0.046(3) -0.024(3) 0.006(2) 0.007(3)
C11 0.022 0.041 0.044 0.005 0.012 -0.012
C12 0.057(4) 0.058(3) 0.075(4) -0.016(3) 0.007(3) 0.001(3)
C13 0.057(4) 0.057(4) 0.070(4) -0.017(3) 0.016(3) -0.002(3)
C14 0.030(3) 0.042(3) 0.055(4) -0.018(3) 0.001(3) 0.008(3)
C15 0.045(4) 0.043(4) 0.120(7) -0.030(4) 0.037(4) -0.001(3)
C16 0.055(4) 0.062(4) 0.072(4) -0.015(3) 0.008(3) 0.004(3)
C17 0.048(3) 0.059(4) 0.065(4) -0.026(3) 0.002(3) -0.004(3)
C18 0.053(3) 0.069(4) 0.069(4) -0.025(3) -0.007(3) 0.005(3)
C19 0.050(4) 0.069(4) 0.068(4) -0.019(3) -0.007(3) 0.003(3)
C20 0.051(3) 0.078(4) 0.073(4) -0.027(3) 0.000(3) 0.005(3)
Ni1M 0.0127 0.0274 0.0226 -0.0007 0.0001 0.0006
Ni1J 0.0127 0.0274 0.0226 0.0007 0.0001 -0.0006
Ni1G 0.0127 0.0274 0.0226 -0.0007 -0.0001 -0.0006
Ni1K 0.0127 0.0274 0.0226 -0.0007 -0.0001 -0.0006
Ni1O 0.0127 0.0274 0.0226 -0.0007 -0.0001 -0.0006
O2M 0.0246 0.027 0.037 -0.004 -0.0129 -0.0029
O3M 0.0185 0.032 0.04 -0.0012 -0.0146 0.0041
O4M 0.023 0.041 0.031 0.0062 -0.0061 -0.0056
O4N 0.023(2) 0.041(2) 0.031(2) -0.0062(17) -0.0061(16) 0.0056(16)
O4O 0.023 0.041 0.031 0.0062 0.0061 0.0056
C1M 0.02 0.044 0.031 0.001 -0.009 -0.003
N1O 0.031 0.058 0.044 0.021 0.007 0.015
O5M 0.048 0.05 0.068 0.013 -0.026 -0.015
N2O 0.043 0.042 0.066 0.023 0.013 -0.016
N3O 0.028 0.031 0.042 0.005 0.004 -0.004
N3M 0.028 0.031 0.042 0.005 -0.004 0.004
N4O 0.031 0.038 0.045 0.008 -0.001 -0.003
N4N 0.031 0.038 0.045 -0.008 0.001 -0.003
C2M 0.027 0.04 0.049 0.012 -0.013 -0.002
C3M 0.019 0.044 0.034 0.003 -0.014 0
C4M 0.042 0.038 0.038 0.007 -0.022 -0.002
C5M 0.035 0.034 0.054 0.002 -0.017 0
C6O 0.041 0.056 0.06 0.025 0.012 -0.013
C7M 0.013 0.056 0.017 0.001 -0.0017 -0.004
C8O 0.033 0.049 0.056 0.019 0.002 0.003
C9M 0.038 0.029 0.079 0.008 -0.03 -0.01
C10O 0.019 0.049 0.046 0.024 0.006 -0.007
C11M 0.022 0.041 0.044 -0.005 -0.012 -0.012
C12O 0.057 0.058 0.075 0.016 0.007 -0.001
C13O 0.057 0.057 0.07 0.017 0.016 0.002
C14O 0.03 0.042 0.055 0.018 0.001 -0.008
C15O 0.045 0.043 0.12 0.03 0.037 0.001
C16O 0.055 0.062 0.072 0.015 0.008 -0.004
C17O 0.048 0.059 0.065 0.026 0.002 0.004
C18O 0.053 0.069 0.069 0.025 -0.007 -0.005
C19O 0.05 0.069 0.068 0.019 -0.007 -0.003
C20O 0.051 0.078 0.073 0.027 0 -0.005
loop_
_geom_bond_atom_site_label_1
_geom_bond_atom_site_label_2
_geom_bond_site_symmetry_1
_geom_bond_site_symmetry_2
Ni1 O1 1_555 1_555
O1 Ni1M 1_555 1_555
O2 Ni1 1_555 1_555
O3 C7 1_555 1_555
O4 C11 1_555 1_555
C1 C4 1_555 1_555
N1 C10 1_555 1_555
O5 C11 1_555 1_555
N2 C6 1_555 1_555
N3 Ni1 1_555 1_555
N4 C10 1_555 1_555
C2 H1 1_555 1_555
C3 C2 1_555 1_555
C4 H2 1_555 1_555
C5 C1 1_555 1_555
H3 C5 1_555 1_555
C6 C13 1_555 1_555
C7 O2 1_555 1_555
C8 N2 1_555 1_555
H4 C8 1_555 1_555
C9 C3 1_555 1_555
H5 C9 1_555 1_555
C10 H6 1_555 1_555
C11 C3 1_555 1_555
C12 H7 1_555 1_555
C13 C12 1_555 1_555
H8 C13 1_555 1_555
C14 N1 1_555 1_555
C15 C14 1_555 1_555
H9 C15 1_555 1_555
C16 C6 1_555 1_555
H10 C16 1_555 1_555
C17 N4 1_555 1_555
H11 C17 1_555 1_555
C18 N2 1_555 1_555
H12 C18 1_555 1_555
C19 N3 1_555 1_555
H13 C19 1_555 1_555
C20 N1 1_555 1_555
H14 C20 1_555 1_555
Ni1M O3 1_555 1_555
Ni1J O4 1_555 1_555
Ni1G N4 1_555 1_555
Ni1K O4M 1_555 1_555
Ni1O N3O 1_555 1_555
O2M Ni1M 1_555 1_555
O3M Ni1 1_555 1_555
O4M C11M 1_555 1_555
O4N Ni1 1_555 1_555
O4O Ni1M 1_555 1_555
C1M C4M 1_555 1_555
N1O C10O 1_555 1_555
O5M C11M 1_555 1_555
N2O C6O 1_555 1_555
N3O C8O 1_555 1_555
N3M Ni1M 1_555 1_555
N4O Ni1 1_555 1_555
N4N Ni1M 1_555 1_555
C2M H1M 1_555 1_555
C3M C2M 1_555 1_555
C4M H2M 1_555 1_555
C5M C1M 1_555 1_555
H3M C5M 1_555 1_555
C6O C13O 1_555 1_555
C7M O2M 1_555 1_555
C8O N2O 1_555 1_555
H4O C8O 1_555 1_555
C9M C3M 1_555 1_555
H5M C9M 1_555 1_555
C10O N4O 1_555 1_555
H6O C10O 1_555 1_555
C11M C3M 1_555 1_555
C12O H7O 1_555 1_555
C13O C12O 1_555 1_555
H8O C13O 1_555 1_555
C14O N1O 1_555 1_555
C15O C14O 1_555 1_555
H9O C15O 1_555 1_555
C16O C6O 1_555 1_555
H10O C16O 1_555 1_555
C17O N4O 1_555 1_555
H11O C17O 1_555 1_555
C18O N2O 1_555 1_555
H12O C18O 1_555 1_555
C19O N3O 1_555 1_555
H13O C19O 1_555 1_555
C20O N1O 1_555 1_555
H14O C20O 1_555 1_555
C1 C7 1_555 1_555
N3 C8 1_555 1_555
C2 C5 1_555 1_555
C4 C9 1_555 1_555
C12 C14 1_555 1_555
C15 C16 1_555 1_555
C17 C20 1_555 1_555
C18 C19 1_555 1_555
O3M C7M 1_555 1_555
C1M C7M 1_555 1_555
C2M C5M 1_555 1_555
C4M C9M 1_555 1_555
C12O C14O 1_555 1_555
C15O C16O 1_555 1_555
C17O C20O 1_555 1_555
C18O C19O 1_555 1_555

#END
