
#######################################################################
#
#                 Cambridge Crystallographic Data Centre
#                                CCDC 
#
#######################################################################
#
# If this CIF has been generated from an entry in the Cambridge 
# Structural Database, then it will include bibliographic, chemical, 
# crystal, experimental, refinement or atomic coordinate data resulting 
# from the CCDC's data processing and validation procedures.
#
#######################################################################

data_ICISAP
_chemical_formula_moiety         'C24 H18 O34 Sc9'
_symmetry_cell_setting           hexagonal
_symmetry_space_group_name_H-M   'P 63/m m c'
_symmetry_Int_Tables_number      194
_space_group_name_Hall           '-P 6c 2c'
loop_
_symmetry_equiv_pos_site_id
_symmetry_equiv_pos_as_xyz
1 x,y,z
2 x-y,x,1/2+z
3 -y,x-y,z
4 -x+y,-x,z
5 y,-x+y,1/2+z
6 x,x-y,1/2-z
7 y,x,-z
8 -x+y,y,1/2-z
9 -x,-y,1/2+z
10 -y,-x,1/2-z
11 x-y,-y,-z
12 -x,-x+y,-z
13 -x,-y,-z
14 -x+y,-x,1/2-z
15 y,-x+y,-z
16 x-y,x,-z
17 -y,x-y,1/2-z
18 -x,-x+y,1/2+z
19 -y,-x,z
20 x-y,-y,1/2+z
21 x,y,1/2-z
22 y,x,1/2+z
23 -x+y,y,z
24 x,x-y,z
_cell_length_a                   14.5490(18)
_cell_length_b                   14.5490(18)
_cell_length_c                   17.767(4)
_cell_angle_alpha                90
_cell_angle_beta                 90
_cell_angle_gamma                120
_cell_volume                     3256.95
loop_
_atom_site_label
_atom_site_type_symbol
_atom_site_fract_x
_atom_site_fract_y
_atom_site_fract_z
C1 C 0.56113(11) 0.43887(11) 0.86292(14)
C2 C 0.52964(12) 0.47036(12) 0.93334(16)
C3 C 0.43237(18) 0.40312(18) 0.96662(12)
O1 O 0.6667 0.3333 0.7500
O2 O 0.83004(12) 0.6601(2) 0.7500
O3 O 0.65002(11) 0.50236(10) 0.83489(7)
O4 O 0.3571(3) 0.3069(3) 0.9430(2)
H1 H 0.3776 0.2909 0.9035
Sc1 Sc 0.74683(3) 0.49365(5) 0.7500
H2 H 0.8645(9) 0.7291(19) 0.7188(11)
C1F C 0.43887(11) 0.56113(11) 1.13708(14)
C1G C 0.87774(16) 0.43887(11) 0.63708(14)
C1A C 1.12226(16) 0.56113(11) 0.36292(14)
C1T C 0.56113(11) 0.43887(11) 0.63708(14)
C1U C 0.43887(11) 0.56113(11) 0.36292(14)
C2F C 0.47036(12) 0.52964(12) 1.06666(16)
C2G C 0.94072(17) 0.47036(12) 0.56666(16)
C2A C 1.05928(17) 0.52964(12) 0.43334(16)
C2T C 0.52964(12) 0.47036(12) 0.56666(16)
C2U C 0.47036(12) 0.52964(12) 0.43334(16)
C3F C 0.40312(18) 0.43237(18) 1.03338(12)
C3L C 0.56763(18) 0.59688(18) 1.03338(12)
C3R C 0.59688(18) 0.56763(18) 0.96662(12)
C3G C 0.97075(25) 0.40312(18) 0.53338(12)
C3A C 1.02925(25) 0.43237(18) 0.46662(12)
C3S C 1.02925(25) 0.59688(18) 0.46662(12)
C3M C 0.97075(25) 0.56763(18) 0.53338(12)
C3T C 0.43237(18) 0.40312(18) 0.53338(12)
C3U C 0.40312(18) 0.43237(18) 0.46662(12)
C3H C 0.56763(18) 0.59688(18) 0.46662(12)
C3I C 0.59688(18) 0.56763(18) 0.53338(12)
O2C O 0.83006(23) 0.16996(12) 0.7500
O2B O 0.3399(2) 0.16994(23) 0.7500
O3F O 0.50236(10) 0.65002(11) 1.16511(7)
O3L O 0.34998(11) 0.49764(10) 1.16511(7)
O3R O 0.49764(10) 0.34998(11) 0.83489(7)
O3G O 0.85234(15) 0.50236(10) 0.66511(7)
O3A O 1.14766(15) 0.65002(11) 0.33489(7)
O3S O 1.14766(15) 0.49764(10) 0.33489(7)
O3M O 0.85234(15) 0.34998(11) 0.66511(7)
O3T O 0.65002(11) 0.50236(10) 0.66511(7)
O3U O 0.50236(10) 0.65002(11) 0.33489(7)
O3H O 0.34998(11) 0.49764(10) 0.33489(7)
O3I O 0.49764(10) 0.34998(11) 0.66511(7)
O3V O 0.85234(15) 0.50236(10) 0.83489(7)
O3C O 0.85234(15) 0.34998(11) 0.83489(7)
O3E O 0.65002(11) 0.14766(15) 0.66511(7)
O3W O 0.65002(11) 0.14766(15) 0.83489(7)
O3B O 0.49764(10) 0.14766(15) 0.83489(7)
O3P O 0.49764(10) 0.14766(15) 0.66511(7)
O4R O 0.6931(3) 0.6429(3) 0.9430(2)
O4L O 0.6429(3) 0.6931(3) 1.0570(2)
O4F O 0.3069(3) 0.3571(3) 1.0570(2)
O4G O 0.9498(4) 0.3069(3) 0.5570(2)
O4M O 0.9498(4) 0.6429(3) 0.5570(2)
O4S O 1.0502(4) 0.6931(3) 0.4430(2)
O4A O 1.0502(4) 0.3571(3) 0.4430(2)
O4T O 0.3571(3) 0.3069(3) 0.5570(2)
O4I O 0.6931(3) 0.6429(3) 0.5570(2)
O4H O 0.6429(3) 0.6931(3) 0.4430(2)
O4U O 0.3069(3) 0.3571(3) 0.4430(2)
H1R H 0.7091 0.6224 0.9035
H1L H 0.6224 0.7091 1.0965
H1F H 0.2909 0.3776 1.0965
H1G H 0.9133 0.2909 0.5965
H1M H 0.9133 0.6224 0.5965
H1S H 1.0867 0.7091 0.4035
H1A H 1.0867 0.3776 0.4035
H1T H 0.3776 0.2909 0.5965
H1I H 0.7091 0.6224 0.5965
H1H H 0.6224 0.7091 0.4035
H1U H 0.2909 0.3776 0.4035
Sc1C Sc 0.74682(6) 0.25317(3) 0.7500
Sc1B Sc 0.50635(5) 0.25318(6) 0.7500
Sc1D Sc 0.49365(5) 0.74682(6) 1.2500
Sc1L Sc 0.25317(3) 0.50635(5) 1.2500
Sc1A Sc 1.25318(6) 0.74683(3) 0.2500
Sc1L_2 Sc 1.25317(3) 0.50635(5) 0.2500
Sc1D_2 Sc 0.49365(5) 0.74682(6) 0.2500
Sc1L_3 Sc 0.25317(3) 0.50635(5) 0.2500
H2G H 0.8646(21) 0.7291(19) 0.7812(11)
H2C H 0.8646(21) 0.1355(9) 0.7188(11)
H2E H 0.8645(9) 0.1354(21) 0.7812(11)
H2B H 0.2709(19) 0.1354(21) 0.7188(11)
H2I H 0.2709(19) 0.1355(9) 0.7812(11)
loop_
_geom_bond_atom_site_label_1
_geom_bond_atom_site_label_2
_geom_bond_site_symmetry_1
_geom_bond_site_symmetry_2
C1 C2 1_555 1_555
C2 C3 1_555 1_555
C3 O4 1_555 1_555
O1 Sc1 1_555 1_555
O2 Sc1 1_555 1_555
O3 C1 1_555 1_555
O4 H1 1_555 1_555
Sc1 O3 1_555 1_555
H2 O2 1_555 1_555
C1F C2F 1_555 1_555
C1G C2G 1_555 1_555
C1A C2A 1_555 1_555
C1T C2T 1_555 1_555
C1U C2U 1_555 1_555
C2F C3F 1_555 1_555
C2G C3G 1_555 1_555
C2A C3A 1_555 1_555
C2T C3T 1_555 1_555
C2U C3U 1_555 1_555
C3F C3 1_555 1_555
C3L C2F 1_555 1_555
C3R C2 1_555 1_555
C3G C3A 1_555 1_555
C3A O4A 1_555 1_555
C3S C2A 1_555 1_555
C3M C2G 1_555 1_555
C3T C3U 1_555 1_555
C3U O4U 1_555 1_555
C3H C2U 1_555 1_555
C3I C2T 1_555 1_555
O2C Sc1C 1_555 1_555
O2B Sc1B 1_555 1_555
O3F C1F 1_555 1_555
O3L C1F 1_555 1_555
O3R C1 1_555 1_555
O3G Sc1 1_555 1_555
O3A C1A 1_555 1_555
O3S C1A 1_555 1_555
O3M C1G 1_555 1_555
O3T Sc1 1_555 1_555
O3U C1U 1_555 1_555
O3H C1U 1_555 1_555
O3I C1T 1_555 1_555
O3V Sc1 1_555 1_555
O3C Sc1C 1_555 1_555
O3E Sc1C 1_555 1_555
O3W Sc1C 1_555 1_555
O3B Sc1B 1_555 1_555
O3P Sc1B 1_555 1_555
O4R C3R 1_555 1_555
O4L C3L 1_555 1_555
O4F C3F 1_555 1_555
O4G C3G 1_555 1_555
O4M C3M 1_555 1_555
O4S C3S 1_555 1_555
O4A H1A 1_555 1_555
O4T C3T 1_555 1_555
O4I C3I 1_555 1_555
O4H C3H 1_555 1_555
O4U H1U 1_555 1_555
H1R O4R 1_555 1_555
H1L O4L 1_555 1_555
H1F O4F 1_555 1_555
H1G O4G 1_555 1_555
H1M O4M 1_555 1_555
H1S O4S 1_555 1_555
H1T O4T 1_555 1_555
H1I O4I 1_555 1_555
H1H O4H 1_555 1_555
Sc1C O1 1_555 1_555
Sc1B O1 1_555 1_555
Sc1D O3F 1_555 1_555
Sc1L O3L 1_555 1_555
Sc1A O3A 1_555 1_555
Sc1L_2 O3S 1_555 1_555
Sc1D_2 O3U 1_555 1_555
Sc1L_3 O3H 1_555 1_555
H2G O2 1_555 1_555
H2C O2C 1_555 1_555
H2E O2C 1_555 1_555
H2B O2B 1_555 1_555
H2I O2B 1_555 1_555
C1G O3G 1_555 1_555
C1T O3T 1_555 1_555
C3L C3R 1_555 1_555
C3S C3M 1_555 1_555
C3H C3I 1_555 1_555
O3R Sc1B 1_555 1_555
O3M Sc1C 1_555 1_555
O3I Sc1B 1_555 1_555

#END
