
#######################################################################
#
#                 Cambridge Crystallographic Data Centre
#                                CCDC 
#
#######################################################################
#
# If this CIF has been generated from an entry in the Cambridge 
# Structural Database, then it will include bibliographic, chemical, 
# crystal, experimental, refinement or atomic coordinate data resulting 
# from the CCDC's data processing and validation procedures.
#
#######################################################################

data_PAQFIY
_chemical_formula_moiety         '(C24 H20 Cd2 N4 O6 S4)n'
_symmetry_cell_setting           orthorhombic
_symmetry_space_group_name_H-M   'P b a n'
_symmetry_Int_Tables_number      50
_space_group_name_Hall           '-P 2ab 2b'
loop_
_symmetry_equiv_pos_site_id
_symmetry_equiv_pos_as_xyz
1 x,y,z
2 1/2-x,1/2-y,z
3 1/2-x,y,-z
4 x,1/2-y,-z
5 -x,-y,-z
6 1/2+x,1/2+y,-z
7 1/2+x,-y,z
8 -x,1/2+y,z
_cell_length_a                   14.9328(10)
_cell_length_b                   21.2840(14)
_cell_length_c                   10.4079(7)
_cell_angle_alpha                90
_cell_angle_beta                 90
_cell_angle_gamma                90
_cell_volume                     3307.94
loop_
_atom_site_label
_atom_site_type_symbol
_atom_site_fract_x
_atom_site_fract_y
_atom_site_fract_z
_atom_site_U_iso_or_equiv
_atom_site_thermal_displace_type
Cd1 Cd 0.2500 0.63323(3) 0.5000 0.0321 Uani
Cd2 Cd 0.02973(5) 0.7500 0.5000 0.0393 Uani
S1 S 0.15849(10) 0.70271(6) 0.35287(14) 0.0321 Uani
S2 S 0.07003(10) 0.63295(7) 0.29284(14) 0.0355 Uani
O1 O 0.0828(4) 0.6243(3) 0.1587(5) 0.0717 Uani
O2 O 0.0915(3) 0.57777(19) 0.3678(5) 0.0563 Uani
O3 O -0.0175(3) 0.6595(2) 0.3267(5) 0.0540 Uani
N1 N 0.1878(3) 0.5720(2) 0.6532(5) 0.0377 Uani
N2 N 0.0189(3) 0.3203(2) 1.3527(5) 0.0390 Uani
C1 C 0.1626(4) 0.5125(3) 0.6266(6) 0.0457 Uani
H1 H 0.1626 0.4989 0.5416 0.0550 Uiso
C2 C 0.1370(5) 0.4712(3) 0.7218(7) 0.0487 Uani
H2 H 0.1207 0.4304 0.7001 0.0580 Uiso
C3 C 0.1351(4) 0.4896(3) 0.8482(6) 0.0430 Uani
C4 C 0.1591(5) 0.5513(3) 0.8744(6) 0.0463 Uani
H3 H 0.1575 0.5664 0.9582 0.0560 Uiso
C5 C 0.1855(4) 0.5904(3) 0.7740(6) 0.0447 Uani
H4 H 0.2022 0.6315 0.7931 0.0540 Uiso
C6 C 0.0454(5) 0.3788(3) 1.3839(6) 0.0487 Uani
H5 H 0.0468 0.3903 1.4701 0.0580 Uiso
C7 C 0.0707(5) 0.4225(3) 1.2918(7) 0.0523 Uani
H6 H 0.0879 0.4626 1.3174 0.0620 Uiso
C8 C 0.0708(4) 0.4078(3) 1.1664(6) 0.0433 Uani
C9 C 0.0412(5) 0.3478(3) 1.1325(7) 0.0573 Uani
H7 H 0.0381 0.3360 1.0466 0.0690 Uiso
C10 C 0.0166(5) 0.3060(3) 1.2290(6) 0.0557 Uani
H8 H -0.0024 0.2660 1.2054 0.0670 Uiso
C11 C 0.1073(4) 0.4437(3) 0.9467(7) 0.0487 Uani
H9 H 0.0934 0.4034 0.9184 0.0580 Uiso
C12 C 0.1005(5) 0.4545(3) 1.0701(7) 0.0493 Uani
H10 H 0.1154 0.4944 1.0995 0.0590 Uiso
Cd2D Cd -0.02973(5) 0.2500 1.5000 0.0393 Uani
Cd2A Cd 0.47027(5) 0.7500 0.5000 0.0393 Uani
Cd2E Cd 0.52973(5) 0.2500 -0.5000 0.0393 Uani
S1B S 0.34151(10) 0.70271(6) 0.64713(14) 0.0321 Uani
S1C S 0.15849(10) 0.79729(6) 0.64713(14) 0.0321 Uani
S2B S 0.42997(10) 0.63295(7) 0.70716(14) 0.0355 Uani
O1B O 0.4172(4) 0.6243(3) 0.8413(5) 0.0717 Uani
O2B O 0.4085(3) 0.57777(19) 0.6322(5) 0.0563 Uani
O3B O 0.5175(3) 0.6595(2) 0.6733(5) 0.0540 Uani
N1B N 0.3122(3) 0.5720(2) 0.3468(5) 0.0377 Uani
N2B N 0.4811(3) 0.3203(2) -0.3527(5) 0.0390 Uani
N2D N -0.0189(3) 0.6797(2) 0.6473(5) 0.0390 Uani
N2G N -0.0189(3) 0.8203(2) 0.3527(5) 0.0390 Uani
C1B C 0.3374(4) 0.5125(3) 0.3734(6) 0.0457 Uani
H1B H 0.3374 0.4989 0.4584 0.0550 Uiso
C2B C 0.3630(5) 0.4712(3) 0.2782(7) 0.0487 Uani
H2B H 0.3793 0.4304 0.2999 0.0580 Uiso
C3B C 0.3649(4) 0.4896(3) 0.1518(6) 0.0430 Uani
C4B C 0.3409(5) 0.5513(3) 0.1256(6) 0.0463 Uani
H3B H 0.3425 0.5664 0.0418 0.0560 Uiso
C5B C 0.3145(4) 0.5904(3) 0.2260(6) 0.0447 Uani
H4B H 0.2978 0.6315 0.2069 0.0540 Uiso
C6B C 0.4546(5) 0.3788(3) -0.3839(6) 0.0487 Uani
H5B H 0.4532 0.3903 -0.4701 0.0580 Uiso
C7B C 0.4293(5) 0.4225(3) -0.2918(7) 0.0523 Uani
H6B H 0.4121 0.4626 -0.3174 0.0620 Uiso
C8B C 0.4292(4) 0.4078(3) -0.1664(6) 0.0433 Uani
C9B C 0.4588(5) 0.3478(3) -0.1325(7) 0.0573 Uani
H7B H 0.4619 0.3360 -0.0466 0.0690 Uiso
C10B C 0.4834(5) 0.3060(3) -0.2290(6) 0.0557 Uani
H8B H 0.5024 0.2660 -0.2054 0.0670 Uiso
C11B C 0.3927(4) 0.4437(3) 0.0533(7) 0.0487 Uani
H9B H 0.4066 0.4034 0.0816 0.0580 Uiso
C12B C 0.3995(5) 0.4545(3) -0.0701(7) 0.0493 Uani
H10B H 0.3846 0.4944 -0.0995 0.0590 Uiso
loop_
_atom_site_aniso_label
_atom_site_aniso_U_11
_atom_site_aniso_U_22
_atom_site_aniso_U_33
_atom_site_aniso_U_23
_atom_site_aniso_U_13
_atom_site_aniso_U_12
Cd1 0.0445(3) 0.0293(3) 0.0225(3) 0.000 0.0023(2) 0.000
Cd2 0.0606(4) 0.0296(3) 0.0276(3) 0.0088(3) 0.000 0.000
S1 0.0409(7) 0.0259(6) 0.0296(7) -0.0017(6) -0.0065(6) -0.0036(6)
S2 0.0442(8) 0.0332(7) 0.0292(7) -0.0016(6) -0.0052(6) -0.0084(6)
O1 0.092(4) 0.085(4) 0.038(3) -0.020(3) -0.004(3) -0.033(3)
O2 0.070(3) 0.028(2) 0.071(3) 0.007(2) -0.004(3) -0.005(2)
O3 0.041(2) 0.046(3) 0.075(3) 0.013(2) -0.006(2) -0.009(2)
N1 0.046(3) 0.036(3) 0.031(3) 0.007(2) 0.002(2) -0.010(2)
N2 0.053 0.034 0.03 0.007 0.005 -0.005
C1 0.059(4) 0.044(4) 0.034(3) -0.004(3) -0.002(3) -0.018(3)
C2 0.061(4) 0.038(3) 0.047(4) 0.006(3) -0.004(3) -0.020(3)
C3 0.047(4) 0.046(4) 0.036(3) 0.007(3) 0.002(3) -0.012(3)
C4 0.061(4) 0.053(4) 0.025(3) 0.002(3) 0.006(3) -0.013(3)
C5 0.059(4) 0.043(3) 0.032(3) -0.003(3) 0.005(3) -0.021(3)
C6 0.076 0.036 0.034 -0.001 0.01 -0.018
C7 0.068 0.043 0.046 0.003 0.003 -0.023
C8 0.047 0.041 0.042 0.008 0.009 -0.009
C9 0.081 0.056 0.035 0.002 0.011 -0.017
C10 0.086 0.042 0.039 -0.001 0.014 -0.023
C11 0.058(4) 0.043(4) 0.045(4) -0.002(3) 0.001(3) -0.018(3)
C12 0.060(4) 0.040(4) 0.048(4) 0.008(3) 0.006(3) -0.014(3)
Cd2D 0.0606 0.0296 0.0276 0.0088 0 0
Cd2A 0.0606 0.0296 0.0276 -0.0088 0 0
Cd2E 0.0606 0.0296 0.0276 -0.0088 0 0
S1B 0.0409 0.0259 0.0296 0.0017 -0.0065 0.0036
S1C 0.0409 0.0259 0.0296 -0.0017 0.0065 0.0036
S2B 0.0442 0.0332 0.0292 0.0016 -0.0052 0.0084
O1B 0.092 0.085 0.038 0.02 -0.004 0.033
O2B 0.07 0.028 0.071 -0.007 -0.004 0.005
O3B 0.041 0.046 0.075 -0.013 -0.006 0.009
N1B 0.046 0.036 0.031 -0.007 0.002 0.01
N2B 0.053 0.034 0.03 -0.007 0.005 0.005
N2D 0.053 0.034 0.03 0.007 0.005 -0.005
N2G 0.053 0.034 0.03 0.007 -0.005 0.005
C1B 0.059 0.044 0.034 0.004 -0.002 0.018
C2B 0.061 0.038 0.047 -0.006 -0.004 0.02
C3B 0.047 0.046 0.036 -0.007 0.002 0.012
C4B 0.061 0.053 0.025 -0.002 0.006 0.013
C5B 0.059 0.043 0.032 0.003 0.005 0.021
C6B 0.076 0.036 0.034 0.001 0.01 0.018
C7B 0.068 0.043 0.046 -0.003 0.003 0.023
C8B 0.047 0.041 0.042 -0.008 0.009 0.009
C9B 0.081 0.056 0.035 -0.002 0.011 0.017
C10B 0.086 0.042 0.039 0.001 0.014 0.023
C11B 0.058 0.043 0.045 0.002 0.001 0.018
C12B 0.06 0.04 0.048 -0.008 0.006 0.014
loop_
_geom_bond_atom_site_label_1
_geom_bond_atom_site_label_2
_geom_bond_site_symmetry_1
_geom_bond_site_symmetry_2
Cd1 S1 1_555 1_555
Cd2 S1 1_555 1_555
S1 S2 1_555 1_555
S2 O1 1_555 1_555
O2 S2 1_555 1_555
O3 S2 1_555 1_555
N1 Cd1 1_555 1_555
N2 C6 1_555 1_555
C1 N1 1_555 1_555
H1 C1 1_555 1_555
C2 C1 1_555 1_555
H2 C2 1_555 1_555
C3 C2 1_555 1_555
C4 C3 1_555 1_555
H3 C4 1_555 1_555
C5 N1 1_555 1_555
H4 C5 1_555 1_555
C6 H5 1_555 1_555
C7 C6 1_555 1_555
H6 C7 1_555 1_555
C8 C7 1_555 1_555
C9 C8 1_555 1_555
H7 C9 1_555 1_555
C10 N2 1_555 1_555
H8 C10 1_555 1_555
C11 C3 1_555 1_555
H9 C11 1_555 1_555
C12 C8 1_555 1_555
H10 C12 1_555 1_555
Cd2D N2 1_555 1_555
Cd2A S1B 1_555 1_555
Cd2E N2B 1_555 1_555
S1B Cd1 1_555 1_555
S1C Cd2 1_555 1_555
S2B S1B 1_555 1_555
O1B S2B 1_555 1_555
O2B S2B 1_555 1_555
O3B S2B 1_555 1_555
N1B Cd1 1_555 1_555
N2B C6B 1_555 1_555
N2D Cd2 1_555 1_555
N2G Cd2 1_555 1_555
C1B N1B 1_555 1_555
H1B C1B 1_555 1_555
C2B C1B 1_555 1_555
H2B C2B 1_555 1_555
C3B C2B 1_555 1_555
C4B C3B 1_555 1_555
H3B C4B 1_555 1_555
C5B N1B 1_555 1_555
H4B C5B 1_555 1_555
C6B H5B 1_555 1_555
C7B C6B 1_555 1_555
H6B C7B 1_555 1_555
C8B C7B 1_555 1_555
C9B C8B 1_555 1_555
H7B C9B 1_555 1_555
C10B N2B 1_555 1_555
H8B C10B 1_555 1_555
C11B C3B 1_555 1_555
H9B C11B 1_555 1_555
C12B C8B 1_555 1_555
H10B C12B 1_555 1_555
C4 C5 1_555 1_555
C9 C10 1_555 1_555
C11 C12 1_555 1_555
C4B C5B 1_555 1_555
C9B C10B 1_555 1_555
C11B C12B 1_555 1_555

#END
