
#######################################################################
#
#                 Cambridge Crystallographic Data Centre
#                                CCDC 
#
#######################################################################
#
# If this CIF has been generated from an entry in the Cambridge 
# Structural Database, then it will include bibliographic, chemical, 
# crystal, experimental, refinement or atomic coordinate data resulting 
# from the CCDC's data processing and validation procedures.
#
#######################################################################

data_LAWHEZ
_chemical_formula_moiety         '(C62 H63 Eu3 N18 O41 Zn6)n'
_symmetry_cell_setting           orthorhombic
_symmetry_space_group_name_H-M   'P n m a'
_symmetry_Int_Tables_number      62
_space_group_name_Hall           '-P 2ac 2n'
loop_
_symmetry_equiv_pos_site_id
_symmetry_equiv_pos_as_xyz
1 x,y,z
2 1/2-x,-y,1/2+z
3 -x,1/2+y,-z
4 1/2+x,1/2-y,1/2-z
5 -x,-y,-z
6 1/2+x,y,1/2-z
7 x,1/2-y,z
8 1/2-x,1/2+y,1/2+z
_cell_length_a                   16.2825(8)
_cell_length_b                   33.8405(17)
_cell_length_c                   16.9649(8)
_cell_angle_alpha                90
_cell_angle_beta                 90
_cell_angle_gamma                90
_cell_volume                     9347.79
loop_
_atom_site_label
_atom_site_type_symbol
_atom_site_fract_x
_atom_site_fract_y
_atom_site_fract_z
Eu1 Eu 0.48219(2) 0.553739(9) 0.445086(18)
Eu2 Eu 0.59507(3) 0.7500 -0.15004(3)
Zn1 Zn 0.73878(6) 0.49086(3) 0.71149(6)
Zn2 Zn 0.56346(6) 0.66557(3) 0.17236(6)
Zn3 Zn 0.26818(5) 0.65983(2) -0.06876(5)
O1 O 0.5659(3) 0.51502(15) 0.5324(3)
O2 O 0.4067(5) 0.5512(2) 0.5614(4)
O3 O 0.6398(3) 0.47992(15) 0.6137(3)
O4 O 0.4296(6) 0.6158(2) 0.4787(5)
O5 O 0.5983(4) 0.58773(18) 0.4532(4)
O6 O 0.7410(6) 0.7500 -0.1379(6)
O7 O 0.6780(3) 0.63899(16) 0.4838(3)
O8 O 0.6024(6) 0.7074(2) 0.2461(5)
O9 O 0.4631(3) 0.58714(16) 0.3314(3)
O10 O 0.4848(4) 0.64140(18) 0.2620(4)
O11 O 0.5595(3) 0.51717(16) 0.3577(3)
O12 O 0.6714(4) 0.49498(16) 0.2989(4)
O13 O 0.6194(4) 0.7086(2) -0.0470(4)
O14 O 0.6320(4) 0.6882(2) 0.0775(4)
O15 O 0.4848(4) 0.7089(2) -0.1552(3)
O16 O 0.3662(3) 0.67648(17) -0.1518(3)
O17 O 0.6309(5) 0.70730(16) -0.2436(4)
O18 O 0.6860(4) 0.66354(15) -0.3262(3)
N1 N 0.7476(4) 0.5393(2) 0.6442(4)
N2 N 0.7630(4) 0.59885(17) 0.5902(4)
N3 N 0.6223(4) 0.61401(19) 0.1954(4)
N4 N 0.6933(4) 0.55866(18) 0.2090(4)
N5 N 0.4721(4) 0.6726(2) 0.0940(4)
N6 N 0.3697(4) 0.66730(19) 0.0059(4)
N7 N 0.7265(4) 0.71667(18) -0.4336(3)
N8 N 0.6491(5) 0.4819(2) 0.7952(4)
N9 N 0.3462(8) 0.4241(4) 1.0760(7)
C1 C 0.6276(5) 0.5121(2) 0.5767(4)
C2 C 0.6873(4) 0.5438(2) 0.5867(4)
C3 C 0.6989(5) 0.5810(2) 0.5539(4)
C4 C 0.6542(4) 0.6042(2) 0.4936(4)
C5 C 0.7905(5) 0.5730(2) 0.6435(4)
C6 C 0.8631(6) 0.5812(3) 0.6954(6)
H1 H 0.9128 0.5779 0.6656
H2 H 0.8630 0.5631 0.7391
H3 H 0.8601 0.6078 0.7148
C7 C 0.5050(5) 0.6069(2) 0.2837(4)
C8 C 0.5829(4) 0.5910(2) 0.2502(4)
C9 C 0.6263(5) 0.5572(2) 0.2602(4)
C10 C 0.6167(5) 0.5210(2) 0.3091(4)
C11 C 0.6890(5) 0.5930(2) 0.1726(5)
C12 C 0.7513(6) 0.6090(3) 0.1164(6)
H4 H 0.7809 0.6302 0.1411
H5 H 0.7242 0.6187 0.0701
H6 H 0.7890 0.5884 0.1020
C13 C 0.5892(5) 0.6954(3) 0.0156(5)
C14 C 0.5010(5) 0.6852(2) 0.0204(5)
C15 C 0.4380(4) 0.6819(2) -0.0328(4)
C16 C 0.4303(5) 0.6897(2) -0.1182(4)
C17 C 0.3920(5) 0.6632(2) 0.0814(5)
C18 C 0.3340(6) 0.6511(3) 0.1459(5)
H7 H 0.3155 0.6742 0.1736
H8 H 0.3617 0.6338 0.1819
H9 H 0.2876 0.6377 0.1234
C19 C 0.6682(5) 0.6985(2) -0.3073(4)
C20 C 0.6922(5) 0.7293(2) -0.3641(4)
C21 C 0.7454(7) 0.7500 -0.4737(7)
C22 C 0.7835(11) 0.7500 -0.5556(7)
C23 C 0.5729(6) 0.4990(3) 0.7965(5)
H10 H 0.5611 0.5183 0.7592
C24 C 0.5133(6) 0.4891(3) 0.8500(5)
H11 H 0.4621 0.5013 0.8481
C25 C 0.5297(6) 0.4609(3) 0.9068(5)
C26 C 0.6091(8) 0.4459(3) 0.9086(7)
H12 H 0.6248 0.4289 0.9490
C27 C 0.6639(7) 0.4559(3) 0.8515(6)
H13 H 0.7150 0.4436 0.8522
C28 C 0.3360(7) 0.4552(4) 1.0290(8)
H14 H 0.2869 0.4690 1.0335
C29 C 0.3918(7) 0.4686(4) 0.9746(7)
H15 H 0.3800 0.4908 0.9441
C30 C 0.4670(6) 0.4485(3) 0.9652(6)
C31 C 0.4789(8) 0.4165(3) 1.0151(7)
H16 H 0.5282 0.4028 1.0125
C32 C 0.4197(9) 0.4043(4) 1.0686(8)
H17 H 0.4298 0.3823 1.1001
O17F O 0.6309(5) 0.79270(16) -0.2436(4)
O18F O 0.6860(4) 0.83646(15) -0.3262(3)
N7F N 0.7265(4) 0.78333(18) -0.4336(3)
C19F C 0.6682(5) 0.8015(2) -0.3073(4)
C20F C 0.6922(5) 0.7707(2) -0.3641(4)
Eu1D Eu 0.51781(2) 0.446261(9) 0.554914(18)
Zn1D Zn 0.26122(6) 0.50914(3) 0.28851(6)
Zn2D Zn 0.43654(6) 0.33443(3) 0.82764(6)
Zn3D Zn 0.73182(5) 0.34017(2) 1.06876(5)
O1D O 0.4341(3) 0.48498(15) 0.4676(3)
O2D O 0.5933(5) 0.4488(2) 0.4386(4)
O3D O 0.3602(3) 0.52008(15) 0.3863(3)
O4D O 0.5704(6) 0.3842(2) 0.5213(5)
O5D O 0.4017(4) 0.41227(18) 0.5468(4)
O7D O 0.3220(3) 0.36101(16) 0.5162(3)
O8D O 0.3976(6) 0.2926(2) 0.7539(5)
O9D O 0.5369(3) 0.41286(16) 0.6686(3)
O10D O 0.5152(4) 0.35860(18) 0.7380(4)
O11D O 0.4405(3) 0.48283(16) 0.6423(3)
O12D O 0.3286(4) 0.50502(16) 0.7011(4)
O13D O 0.3806(4) 0.2914(2) 1.0470(4)
O14D O 0.3680(4) 0.3118(2) 0.9225(4)
O15D O 0.5152(4) 0.2911(2) 1.1552(3)
O16D O 0.6338(3) 0.32352(17) 1.1518(3)
N1D N 0.2524(4) 0.4607(2) 0.3558(4)
N2D N 0.2370(4) 0.40115(17) 0.4098(4)
N3D N 0.3777(4) 0.38599(19) 0.8046(4)
N4D N 0.3067(4) 0.44134(18) 0.7910(4)
N5D N 0.5279(4) 0.3274(2) 0.9060(4)
N6D N 0.6303(4) 0.33270(19) 0.9941(4)
N8D N 0.3509(5) 0.5181(2) 0.2048(4)
N9D N 0.6538(8) 0.5759(4) -0.0760(7)
C1D C 0.3724(5) 0.4879(2) 0.4233(4)
C2D C 0.3127(4) 0.4562(2) 0.4133(4)
C3D C 0.3011(5) 0.4190(2) 0.4461(4)
C4D C 0.3458(4) 0.3958(2) 0.5064(4)
C5D C 0.2095(5) 0.4270(2) 0.3565(4)
C6D C 0.1369(6) 0.4188(3) 0.3046(6)
H1D H 0.0872 0.4221 0.3344
H2D H 0.1370 0.4369 0.2609
H3D H 0.1399 0.3922 0.2852
C7D C 0.4950(5) 0.3931(2) 0.7163(4)
C8D C 0.4171(4) 0.4090(2) 0.7498(4)
C9D C 0.3737(5) 0.4428(2) 0.7398(4)
C10D C 0.3833(5) 0.4790(2) 0.6909(4)
C11D C 0.3110(5) 0.4070(2) 0.8274(5)
C12D C 0.2487(6) 0.3910(3) 0.8836(6)
H4D H 0.2191 0.3698 0.8589
H5D H 0.2758 0.3813 0.9299
H6D H 0.2110 0.4116 0.8980
C13D C 0.4108(5) 0.3046(3) 0.9844(5)
C14D C 0.4990(5) 0.3148(2) 0.9796(5)
C15D C 0.5620(4) 0.3181(2) 1.0328(4)
C16D C 0.5697(5) 0.3103(2) 1.1182(4)
C17D C 0.6080(5) 0.3368(2) 0.9186(5)
C18D C 0.6660(6) 0.3489(3) 0.8541(5)
H7D H 0.6845 0.3258 0.8264
H8D H 0.6383 0.3662 0.8181
H9D H 0.7124 0.3623 0.8766
C23D C 0.4271(6) 0.5010(3) 0.2035(5)
H10D H 0.4389 0.4817 0.2408
C24D C 0.4867(6) 0.5109(3) 0.1500(5)
H11D H 0.5379 0.4987 0.1519
C25D C 0.4703(6) 0.5391(3) 0.0932(5)
C26D C 0.3909(8) 0.5541(3) 0.0914(7)
H12D H 0.3752 0.5711 0.0510
C27D C 0.3361(7) 0.5441(3) 0.1485(6)
H13D H 0.2850 0.5564 0.1478
C28D C 0.6640(7) 0.5448(4) -0.0290(8)
H14D H 0.7131 0.5310 -0.0335
C29D C 0.6082(7) 0.5314(4) 0.0254(7)
H15D H 0.6200 0.5092 0.0559
C30D C 0.5330(6) 0.5515(3) 0.0348(6)
C31D C 0.5211(8) 0.5835(3) -0.0151(7)
H16D H 0.4718 0.5972 -0.0125
C32D C 0.5803(9) 0.5957(4) -0.0686(8)
H17D H 0.5702 0.6177 -0.1001
Eu2B Eu 0.40493(3) 0.2500 1.15004(3)
Zn1A Zn 0.76122(6) 0.50914(3) 0.21149(6)
Zn1E Zn 0.23878(6) 0.49086(3) 0.78851(6)
Zn3A Zn 0.23182(5) 0.34017(2) 0.43124(5)
Zn3C Zn 0.76818(5) 0.84017(2) -0.43124(5)
Zn3E Zn 0.76818(5) 0.65983(2) -0.43124(5)
Zn3E_2 Zn 0.76818(5) 0.65983(2) 0.56876(5)
O7A O 0.8220(3) 0.36101(16) 0.9838(3)
O7E O 0.1780(3) 0.63899(16) 0.0162(3)
O12A O 0.8286(4) 0.50502(16) 0.7989(4)
O12E O 0.1714(4) 0.49498(16) 0.2011(4)
O13F O 0.6194(4) 0.7914(2) -0.0470(4)
O15F O 0.4848(4) 0.7911(2) -0.1552(3)
O18A O 0.8140(4) 0.33646(15) 1.1738(3)
O18E O 0.1860(4) 0.66354(15) -0.1738(3)
N2A N 0.7370(4) 0.40115(17) 1.0902(4)
N2E N 0.2630(4) 0.59885(17) -0.0902(4)
N4A N 0.8067(4) 0.44134(18) 0.7090(4)
N4E N 0.1933(4) 0.55866(18) 0.2910(4)
N7A N 0.7735(4) 0.28333(18) 1.0664(3)
N7E N 0.2265(4) 0.71667(18) -0.0664(3)
O19 O 0.5920(7) 0.6967(4) 0.3994(7)
O20 O 0.4178(7) 0.6823(4) 0.3856(7)
O21 O 0.3426(9) 0.6849(4) -0.3110(9)
O22 O 0.3100(9) 0.6134(5) 0.6106(10)
O23 O 0.438(2) 0.3796(11) 1.265(2)
O24 O 0.790(2) 0.7110(9) 0.0265(19)
loop_
_geom_bond_atom_site_label_1
_geom_bond_atom_site_label_2
_geom_bond_site_symmetry_1
_geom_bond_site_symmetry_2
Eu1 O1 1_555 1_555
Eu2 O6 1_555 1_555
Zn1 O3 1_555 1_555
Zn2 O8 1_555 1_555
Zn3 O16 1_555 1_555
O1 C1 1_555 1_555
O2 Eu1 1_555 1_555
O3 C1 1_555 1_555
O4 Eu1 1_555 1_555
O5 Eu1 1_555 1_555
O7 C4 1_555 1_555
O9 Eu1 1_555 1_555
O10 Zn2 1_555 1_555
O11 Eu1 1_555 1_555
O12 C10 1_555 1_555
O13 Eu2 1_555 1_555
O14 Zn2 1_555 1_555
O15 Eu2 1_555 1_555
O16 C16 1_555 1_555
O17 Eu2 1_555 1_555
O18 C19 1_555 1_555
N1 Zn1 1_555 1_555
N2 C3 1_555 1_555
N3 Zn2 1_555 1_555
N4 C9 1_555 1_555
N5 Zn2 1_555 1_555
N6 Zn3 1_555 1_555
N7 C20 1_555 1_555
N8 Zn1 1_555 1_555
N9 C28 1_555 1_555
C1 C2 1_555 1_555
C2 N1 1_555 1_555
C3 C2 1_555 1_555
C4 O5 1_555 1_555
C5 N1 1_555 1_555
C6 C5 1_555 1_555
H1 C6 1_555 1_555
H2 C6 1_555 1_555
H3 C6 1_555 1_555
C7 O9 1_555 1_555
C8 N3 1_555 1_555
C9 C8 1_555 1_555
C10 O11 1_555 1_555
C11 N3 1_555 1_555
C12 C11 1_555 1_555
H4 C12 1_555 1_555
H5 C12 1_555 1_555
H6 C12 1_555 1_555
C13 O13 1_555 1_555
C14 N5 1_555 1_555
C15 N6 1_555 1_555
C16 O15 1_555 1_555
C17 N5 1_555 1_555
C18 C17 1_555 1_555
H7 C18 1_555 1_555
H8 C18 1_555 1_555
H9 C18 1_555 1_555
C19 O17 1_555 1_555
C20 C19 1_555 1_555
C21 N7 1_555 1_555
C22 C21 1_555 1_555
C23 N8 1_555 1_555
H10 C23 1_555 1_555
C24 C23 1_555 1_555
H11 C24 1_555 1_555
C25 C24 1_555 1_555
C26 C25 1_555 1_555
H12 C26 1_555 1_555
C27 N8 1_555 1_555
H13 C27 1_555 1_555
C28 H14 1_555 1_555
C29 C28 1_555 1_555
H15 C29 1_555 1_555
C30 C25 1_555 1_555
C31 C30 1_555 1_555
H16 C31 1_555 1_555
C32 N9 1_555 1_555
H17 C32 1_555 1_555
O17F Eu2 1_555 1_555
O18F C19F 1_555 1_555
N7F C21 1_555 1_555
C19F O17F 1_555 1_555
C20F C20 1_555 1_555
Eu1D O1 1_555 1_555
Zn1D O3D 1_555 1_555
Zn2D O8D 1_555 1_555
Zn3D O16D 1_555 1_555
O1D Eu1 1_555 1_555
O2D Eu1D 1_555 1_555
O3D Eu1 1_555 1_555
O4D Eu1D 1_555 1_555
O5D Eu1D 1_555 1_555
O7D C4D 1_555 1_555
O9D Eu1D 1_555 1_555
O10D Zn2D 1_555 1_555
O11D Eu1D 1_555 1_555
O12D C10D 1_555 1_555
O13D C13D 1_555 1_555
O14D Zn2D 1_555 1_555
O15D C16D 1_555 1_555
O16D C16D 1_555 1_555
N1D Zn1D 1_555 1_555
N2D C3D 1_555 1_555
N3D Zn2D 1_555 1_555
N4D C9D 1_555 1_555
N5D Zn2D 1_555 1_555
N6D Zn3D 1_555 1_555
N8D Zn1D 1_555 1_555
N9D C28D 1_555 1_555
C1D O1D 1_555 1_555
C2D N1D 1_555 1_555
C3D C2D 1_555 1_555
C4D O5D 1_555 1_555
C5D N1D 1_555 1_555
C6D C5D 1_555 1_555
H1D C6D 1_555 1_555
H2D C6D 1_555 1_555
H3D C6D 1_555 1_555
C7D O9D 1_555 1_555
C8D N3D 1_555 1_555
C9D C8D 1_555 1_555
C10D O11D 1_555 1_555
C11D N3D 1_555 1_555
C12D C11D 1_555 1_555
H4D C12D 1_555 1_555
H5D C12D 1_555 1_555
H6D C12D 1_555 1_555
C13D O14D 1_555 1_555
C14D N5D 1_555 1_555
C15D N6D 1_555 1_555
C16D C15D 1_555 1_555
C17D N5D 1_555 1_555
C18D C17D 1_555 1_555
H7D C18D 1_555 1_555
H8D C18D 1_555 1_555
H9D C18D 1_555 1_555
C23D N8D 1_555 1_555
H10D C23D 1_555 1_555
C24D C23D 1_555 1_555
H11D C24D 1_555 1_555
C25D C24D 1_555 1_555
C26D C25D 1_555 1_555
H12D C26D 1_555 1_555
C27D N8D 1_555 1_555
H13D C27D 1_555 1_555
C28D H14D 1_555 1_555
C29D C28D 1_555 1_555
H15D C29D 1_555 1_555
C30D C25D 1_555 1_555
C31D C30D 1_555 1_555
H16D C31D 1_555 1_555
C32D N9D 1_555 1_555
H17D C32D 1_555 1_555
Eu2B O13D 1_555 1_555
Zn1A O12 1_555 1_555
Zn1E O12D 1_555 1_555
Zn3A O7D 1_555 1_555
Zn3C O18F 1_555 1_555
Zn3E O18 1_555 1_555
Zn3E_2 O7 1_555 1_555
O7A Zn3D 1_555 1_555
O7E Zn3 1_555 1_555
O12A Zn1 1_555 1_555
O12E Zn1D 1_555 1_555
O13F Eu2 1_555 1_555
O15F Eu2 1_555 1_555
O18A Zn3D 1_555 1_555
O18E Zn3 1_555 1_555
N2A Zn3D 1_555 1_555
N2E Zn3 1_555 1_555
N4A Zn1 1_555 1_555
N4E Zn1D 1_555 1_555
N7A Zn3D 1_555 1_555
N7E Zn3 1_555 1_555
O3 Eu1D 1_555 1_555
O10 C7 1_555 1_555
O14 C13 1_555 1_555
N2 C5 1_555 1_555
N2 Zn3E_2 1_555 1_555
N4 C11 1_555 1_555
N4 Zn1A 1_555 1_555
N6 C17 1_555 1_555
N7 Zn3E 1_555 1_555
C3 C4 1_555 1_555
C7 C8 1_555 1_555
C9 C10 1_555 1_555
C13 C14 1_555 1_555
C14 C15 1_555 1_555
C15 C16 1_555 1_555
C26 C27 1_555 1_555
C29 C30 1_555 1_555
C31 C32 1_555 1_555
N7F C20F 1_555 1_555
N7F Zn3C 1_555 1_555
C19F C20F 1_555 1_555
Eu1D O1D 1_555 1_555
O3D C1D 1_555 1_555
O10D C7D 1_555 1_555
O15D Eu2B 1_555 1_555
N2D C5D 1_555 1_555
N2D Zn3A 1_555 1_555
N4D C11D 1_555 1_555
N4D Zn1E 1_555 1_555
N6D C17D 1_555 1_555
C1D C2D 1_555 1_555
C3D C4D 1_555 1_555
C7D C8D 1_555 1_555
C9D C10D 1_555 1_555
C13D C14D 1_555 1_555
C14D C15D 1_555 1_555
C26D C27D 1_555 1_555
C29D C30D 1_555 1_555
C31D C32D 1_555 1_555

#END
