
#######################################################################
#
#                 Cambridge Crystallographic Data Centre
#                                CCDC 
#
#######################################################################
#
# If this CIF has been generated from an entry in the Cambridge 
# Structural Database, then it will include bibliographic, chemical, 
# crystal, experimental, refinement or atomic coordinate data resulting 
# from the CCDC's data processing and validation procedures.
#
#######################################################################

data_CUVHIL01
_chemical_formula_moiety         '(C15 H17 I3 N3 Nd1 O8)n'
_symmetry_cell_setting           rhombohedral
_symmetry_space_group_name_H-M   'R -3'
_symmetry_Int_Tables_number      148
_space_group_name_Hall           '-R 3'
loop_
_symmetry_equiv_pos_site_id
_symmetry_equiv_pos_as_xyz
1 x,y,z
2 -y,x-y,z
3 -x+y,-x,z
4 2/3+x,1/3+y,1/3+z
5 2/3-y,1/3+x-y,1/3+z
6 2/3-x+y,1/3-x,1/3+z
7 1/3+x,2/3+y,2/3+z
8 1/3-y,2/3+x-y,2/3+z
9 1/3-x+y,2/3-x,2/3+z
10 -x,-y,-z
11 y,-x+y,-z
12 x-y,x,-z
13 1/3-x,2/3-y,2/3-z
14 1/3+y,2/3-x+y,2/3-z
15 1/3+x-y,2/3+x,2/3-z
16 2/3-x,1/3-y,1/3-z
17 2/3+y,1/3-x+y,1/3-z
18 2/3+x-y,1/3+x,1/3-z
_cell_length_a                   36.415(2)
_cell_length_b                   36.415(2)
_cell_length_c                   11.6634(13)
_cell_angle_alpha                90
_cell_angle_beta                 90
_cell_angle_gamma                120
_cell_volume                     13394.2
loop_
_atom_site_label
_atom_site_type_symbol
_atom_site_fract_x
_atom_site_fract_y
_atom_site_fract_z
Nd1 Nd 0.150037(13) 0.379752(14) 0.32555(4)
O1 O 0.22554(17) 0.41083(18) 0.3725(5)
O2 O 0.24219(17) 0.35876(19) 0.3616(6)
O3 O 0.4142(2) 0.5119(2) 0.1858(6)
O4 O 0.4049(2) 0.4483(2) 0.1921(5)
O5 O 0.17428(17) 0.34118(18) 0.2101(5)
O6 O 0.1901(3) 0.2982(2) 0.1224(6)
O7 O 0.1738(3) 0.4504(2) 0.4000(8)
O8 O 0.0861(2) 0.3817(2) 0.3930(6)
C1 C 0.2501(3) 0.3960(3) 0.3775(8)
C2 C 0.2969(2) 0.4266(3) 0.4026(7)
C3 C 0.3255(3) 0.4419(3) 0.3116(7)
C4 C 0.3689(3) 0.4647(3) 0.3334(8)
C5 C 0.3987(3) 0.4761(3) 0.2283(8)
C6 C 0.3831(2) 0.4725(3) 0.4437(8)
C7 C 0.3553(3) 0.4589(3) 0.5398(7)
C8 C 0.3122(2) 0.4360(3) 0.5123(7)
C9 C 0.1833(4) 0.3287(4) 0.1221(9)
C10 C 0.1976(10) 0.4688(8) 0.469(2)
C11 C 0.2456(6) 0.5381(7) 0.6263(17)
H1 H 0.2473 0.5652 0.6311
H2 H 0.2734 0.5421 0.6126
H3 H 0.2347 0.5230 0.6970
C12 C 0.1863(12) 0.5295(9) 0.456(3)
H4 H 0.1962 0.5572 0.4879
H5 H 0.1565 0.5120 0.4713
H6 H 0.1909 0.5318 0.3746
C13 C 0.0514(3) 0.3527(4) 0.4201(9)
C14 C 0.0204(4) 0.3974(4) 0.4307(13)
H7 H -0.0068 0.3945 0.4467
H8 H 0.0292 0.4085 0.3547
H9 H 0.0408 0.4165 0.4852
C15 C -0.0232(4) 0.3208(4) 0.4622(14)
H10 H -0.0435 0.3300 0.4734
H11 H -0.0217 0.3068 0.5302
H12 H -0.0318 0.3016 0.3986
I1 I 0.30168(2) 0.43346(3) 0.14374(6)
I2 I 0.448635(19) 0.50550(3) 0.47491(6)
I3 I 0.26789(2) 0.41500(3) 0.64720(6)
N1 N 0.2116(9) 0.5087(7) 0.513(2)
N2 N 0.3700(2) 0.4671(3) 0.6490(7)
N3 N 0.0175(2) 0.3568(3) 0.4391(7)
H13 H 0.174(2) 0.336(2) 0.048(6)
Nd1L Nd 0.183296(13) 0.286915(14) 0.34112(4)
Nd1Q Nd 0.436952(19) 0.483370(13) 0.00778(4)
O2L O 0.09114(17) 0.30791(19) 0.3051(6)
O3P O 0.1786(2) 0.4310(3) 0.1475(6)
O4P O 0.1150(2) 0.3767(3) 0.1412(5)
O5L O 0.15905(17) 0.32549(18) 0.4566(5)
O6L O 0.1432(3) 0.3685(2) 0.5443(6)
loop_
_geom_bond_atom_site_label_1
_geom_bond_atom_site_label_2
_geom_bond_site_symmetry_1
_geom_bond_site_symmetry_2
Nd1 O1 1_555 1_555
O1 C1 1_555 1_555
O2 C1 1_555 1_555
O3 C5 1_555 1_555
O4 C5 1_555 1_555
O5 Nd1 1_555 1_555
O6 C9 1_555 1_555
O7 Nd1 1_555 1_555
O8 Nd1 1_555 1_555
C1 C2 1_555 1_555
C2 C3 1_555 1_555
C3 C4 1_555 1_555
C4 C5 1_555 1_555
C6 C4 1_555 1_555
C7 C6 1_555 1_555
C8 C2 1_555 1_555
C9 O5 1_555 1_555
C10 O7 1_555 1_555
C11 H1 1_555 1_555
H2 C11 1_555 1_555
H3 C11 1_555 1_555
C12 H4 1_555 1_555
H5 C12 1_555 1_555
H6 C12 1_555 1_555
C13 O8 1_555 1_555
C14 H7 1_555 1_555
H8 C14 1_555 1_555
H9 C14 1_555 1_555
C15 H10 1_555 1_555
H11 C15 1_555 1_555
H12 C15 1_555 1_555
I1 C3 1_555 1_555
I2 C6 1_555 1_555
I3 C8 1_555 1_555
N1 C10 1_555 1_555
N2 C7 1_555 1_555
N3 C13 1_555 1_555
H13 C9 1_555 1_555
Nd1L O2 1_555 1_555
Nd1Q O3 1_555 1_555
O2L Nd1 1_555 1_555
O3P Nd1 1_555 1_555
O4P Nd1 1_555 1_555
O5L Nd1 1_555 1_555
O6L Nd1 1_555 1_555
O4 Nd1Q 1_555 1_555
O5 Nd1L 1_555 1_555
O6 Nd1L 1_555 1_555
C7 C8 1_555 1_555
C11 N1 1_555 1_555
C12 N1 1_555 1_555
C14 N3 1_555 1_555
C15 N3 1_555 1_555
Nd1L O5L 1_555 1_555

#END
