
#######################################################################
#
#                 Cambridge Crystallographic Data Centre
#                                CCDC 
#
#######################################################################
#
# If this CIF has been generated from an entry in the Cambridge 
# Structural Database, then it will include bibliographic, chemical, 
# crystal, experimental, refinement or atomic coordinate data resulting 
# from the CCDC's data processing and validation procedures.
#
#######################################################################

data_JADJOQ
_chemical_formula_moiety         '(C24 H27 N1 O10 Zn2)n'
_symmetry_cell_setting           orthorhombic
_symmetry_space_group_name_H-M   'P 21 21 21'
_symmetry_Int_Tables_number      19
_space_group_name_Hall           'P 2ac 2ab'
loop_
_symmetry_equiv_pos_site_id
_symmetry_equiv_pos_as_xyz
1 x,y,z
2 1/2-x,-y,1/2+z
3 1/2+x,1/2-y,-z
4 -x,1/2+y,1/2-z
_cell_length_a                   10.32871(18)
_cell_length_b                   11.7366(2)
_cell_length_c                   20.3354(3)
_cell_angle_alpha                90
_cell_angle_beta                 90
_cell_angle_gamma                90
_cell_volume                     2465.14
loop_
_atom_site_label
_atom_site_type_symbol
_atom_site_fract_x
_atom_site_fract_y
_atom_site_fract_z
_atom_site_U_iso_or_equiv
_atom_site_thermal_displace_type
Zn1 Zn 0.96092(3) 0.42088(3) 0.50681(2) 0.0113 Uani
Zn2 Zn 0.64691(3) 0.32501(3) 0.51018(2) 0.0115 Uani
O1 O 0.8448(2) 0.2708(2) 0.50718(14) 0.0159 Uani
O2 O 0.9627(3) 0.1231(2) 0.47352(16) 0.0232 Uani
O3 O 0.6247(2) 0.1607(2) 0.49312(14) 0.0160 Uani
C1 C 0.8581(3) 0.1712(3) 0.48392(18) 0.0147 Uani
C2 C 0.7346(4) 0.1072(3) 0.4652(2) 0.0189 Uani
H1 H 0.7404 0.0277 0.4826 0.0230 Uiso
C3 C 0.7249(4) 0.1019(5) 0.3900(2) 0.0353 Uani
H2 H 0.6464 0.0603 0.3775 0.0530 Uiso
H3 H 0.8010 0.0625 0.3723 0.0530 Uiso
H4 H 0.7212 0.1794 0.3722 0.0530 Uiso
O4 O 0.8765(3) 0.4578(3) 0.42154(14) 0.0238 Uani
O5 O 0.6649(3) 0.4154(3) 0.42778(13) 0.0227 Uani
C4 C 0.7653(4) 0.4472(3) 0.39811(19) 0.0188 Uani
C5 C 0.7499(4) 0.4761(4) 0.3263(2) 0.0246 Uani
C6 C 0.8568(5) 0.5109(6) 0.2900(2) 0.0393 Uani
H5 H 0.9388 0.5183 0.3107 0.0470 Uiso
C7 C 0.8437(5) 0.5352(6) 0.2232(3) 0.0437 Uani
H6 H 0.9174 0.5571 0.1983 0.0530 Uiso
C8 C 0.7250(4) 0.5276(5) 0.1931(2) 0.0294 Uani
C9 C 0.6173(5) 0.4925(5) 0.2290(2) 0.0340 Uani
H7 H 0.5350 0.4868 0.2083 0.0410 Uiso
C10 C 0.6308(4) 0.4657(5) 0.2954(2) 0.0330 Uani
H8 H 0.5578 0.4401 0.3196 0.0390 Uiso
C11 C 0.7119(4) 0.5555(4) 0.1211(2) 0.0234 Uani
O6 O 0.6053(3) 0.5357(3) 0.09471(14) 0.0229 Uani
O7 O 0.8110(3) 0.5962(4) 0.09416(16) 0.0335 Uani
O8 O 1.0465(3) 0.5844(2) 0.50214(18) 0.0315 Uani
C12 C 1.0198(6) 0.6619(4) 0.4655(3) 0.0440 Uani
H9 H 0.9498 0.6490 0.4361 0.0530 Uiso
N1 N 1.0774(6) 0.7640(4) 0.4615(3) 0.0590 Uani
C13 C 1.1831(8) 0.7894(7) 0.5091(5) 0.0757 Uani
H10 H 1.2169 0.8661 0.5008 0.1130 Uiso
H11 H 1.2529 0.7335 0.5037 0.1130 Uiso
H12 H 1.1492 0.7851 0.5540 0.1130 Uiso
C14 C 1.0444(12) 0.8465(7) 0.4114(5) 0.0950 Uani
H13 H 1.0977 0.9149 0.4170 0.1420 Uiso
H14 H 0.9527 0.8669 0.4153 0.1420 Uiso
H15 H 1.0605 0.8136 0.3678 0.1420 Uiso
Zn1A Zn 0.53908(3) 0.57912(3) 0.00681(2) 0.0113 Uani
Zn1B Zn 0.46092(3) 0.07912(3) 0.49319(2) 0.0113 Uani
Zn2A Zn 0.85309(3) 0.67499(3) 0.01018(2) 0.0115 Uani
Zn2B Zn 1.14691(3) 0.17499(3) 0.48982(2) 0.0115 Uani
O2B O 0.4627(3) 0.3769(2) 0.52648(16) 0.0232 Uani
O3B O 1.1247(2) 0.3393(2) 0.50688(14) 0.0160 Uani
O6A O 0.8947(3) 0.4643(3) 0.59471(14) 0.0229 Uani
O7A O 0.6890(3) 0.4038(4) 0.59416(16) 0.0335 Uani
O9 O 0.2617(10) 0.7200(8) 0.6611(5) 0.0567 Uani
C15 C 0.2789(13) 0.7003(9) 0.7186(5) 0.0433 Uani
C16 C 0.1752(12) 0.6990(11) 0.7691(6) 0.0460 Uani
H16 H 0.0857 0.7120 0.7613 0.0550 Uiso
C17 C 0.2287(14) 0.6768(15) 0.8270(6) 0.0623 Uani
H17 H 0.1808 0.6638 0.8662 0.0750 Uiso
C18 C 0.3747(13) 0.6745(13) 0.8233(6) 0.0510 Uani
H18 H 0.4094 0.6023 0.8412 0.0610 Uiso
H19 H 0.4128 0.7391 0.8479 0.0610 Uiso
C19 C 0.4029(12) 0.6847(12) 0.7504(6) 0.0473 Uani
H20 H 0.4602 0.7506 0.7417 0.0570 Uiso
H21 H 0.4458 0.6148 0.7340 0.0570 Uiso
O10 O 0.1498(8) 0.5942(10) 0.2802(5) 0.0613 Uani
C20 C 0.2437(10) 0.6145(11) 0.3151(5) 0.0387 Uani
C21 C 0.2825(10) 0.5563(13) 0.3773(6) 0.0483 Uani
H22 H 0.2400 0.4929 0.3968 0.0580 Uiso
C22 C 0.3889(11) 0.6095(12) 0.4013(6) 0.0463 Uani
H23 H 0.4295 0.5890 0.4415 0.0560 Uiso
C23 C 0.4341(13) 0.7005(11) 0.3596(6) 0.0497 Uani
H24 H 0.5247 0.6867 0.3457 0.0600 Uiso
H25 H 0.4299 0.7744 0.3829 0.0600 Uiso
C24 C 0.3442(12) 0.7003(12) 0.3006(6) 0.0483 Uani
H26 H 0.3047 0.7764 0.2944 0.0580 Uiso
H27 H 0.3921 0.6797 0.2601 0.0580 Uiso
loop_
_atom_site_aniso_label
_atom_site_aniso_U_11
_atom_site_aniso_U_22
_atom_site_aniso_U_33
_atom_site_aniso_U_23
_atom_site_aniso_U_13
_atom_site_aniso_U_12
Zn1 0.00759(18) 0.01597(19) 0.01025(18) -0.00065(16) -0.00011(14) 0.00067(13)
Zn2 0.00742(18) 0.01605(18) 0.01105(19) -0.00076(16) 0.00033(14) -0.00009(13)
O1 0.0089(11) 0.0160(11) 0.0228(13) -0.0022(11) -0.0004(11) -0.0012(9)
O2 0.0081(12) 0.0235(13) 0.0379(17) -0.0116(12) -0.0009(12) 0.0003(10)
O3 0.0070(10) 0.0172(11) 0.0238(13) -0.0051(11) 0.0015(10) -0.0005(8)
C1 0.0089(15) 0.0190(16) 0.0161(16) -0.0024(14) 0.0005(13) -0.0017(13)
C2 0.0085(16) 0.0214(18) 0.0269(19) -0.0080(15) 0.0004(14) -0.0007(13)
C3 0.014(2) 0.064(4) 0.028(2) -0.024(2) 0.0036(17) -0.006(2)
O4 0.0222(15) 0.0344(17) 0.0149(13) 0.0087(11) -0.0082(11) -0.0088(13)
O5 0.0183(14) 0.0354(16) 0.0145(12) 0.0094(12) 0.0020(10) 0.0030(13)
C4 0.0206(19) 0.024(2) 0.0117(17) 0.0044(14) -0.0011(14) -0.0012(15)
C5 0.020(2) 0.040(2) 0.0137(18) 0.0093(17) -0.0022(16) -0.0030(18)
C6 0.017(2) 0.080(4) 0.021(2) 0.019(2) -0.0071(18) -0.011(2)
C7 0.018(2) 0.088(4) 0.025(2) 0.025(3) -0.0002(19) -0.013(3)
C8 0.018(2) 0.057(3) 0.0133(19) 0.0133(19) -0.0021(16) -0.004(2)
C9 0.016(2) 0.067(4) 0.019(2) 0.015(2) -0.0054(17) -0.010(2)
C10 0.020(2) 0.061(3) 0.018(2) 0.014(2) 0.0014(17) -0.009(2)
C11 0.018(2) 0.038(3) 0.0142(18) 0.0087(17) 0.0002(14) 0.0059(17)
O6 0.0216(14) 0.0351(17) 0.0120(13) 0.0084(11) -0.0032(11) -0.0007(13)
O7 0.0141(14) 0.068(3) 0.0185(14) 0.0217(16) 0.0043(11) 0.0037(15)
O8 0.0262(15) 0.0213(13) 0.0470(19) 0.0043(15) -0.0097(15) -0.0062(11)
C12 0.039(3) 0.031(3) 0.062(4) -0.001(3) 0.008(3) -0.005(2)
N1 0.060(3) 0.033(2) 0.084(4) 0.001(3) -0.008(3) -0.010(2)
C13 0.065(4) 0.068(4) 0.094(6) -0.033(5) 0.000(5) -0.017(4)
C14 0.159(10) 0.048(4) 0.078(6) 0.012(4) 0.014(7) -0.006(5)
Zn1A 0.00759 0.01597 0.01025 0.00065 0.00011 0.00067
Zn1B 0.00759 0.01597 0.01025 -0.00065 0.00011 -0.00067
Zn2A 0.00742 0.01605 0.01105 0.00076 -0.00033 -9e-05
Zn2B 0.00742 0.01605 0.01105 -0.00076 -0.00033 9e-05
O2B 0.0081 0.0235 0.0379 -0.0116 0.0009 -0.0003
O3B 0.007 0.0172 0.0238 -0.0051 -0.0015 0.0005
O6A 0.0216 0.0351 0.012 -0.0084 0.0032 -0.0007
O7A 0.0141 0.068 0.0185 -0.0217 -0.0043 0.0037
O9 0.066(6) 0.061(6) 0.043(5) -0.003(4) 0.017(5) 0.007(5)
C15 0.072(8) 0.031(6) 0.027(5) -0.012(4) 0.003(5) 0.002(5)
C16 0.042(6) 0.055(7) 0.041(6) -0.005(5) -0.009(5) -0.010(5)
C17 0.053(7) 0.102(12) 0.032(6) -0.026(7) 0.010(5) -0.006(8)
C18 0.051(7) 0.066(8) 0.036(6) -0.014(6) -0.008(5) 0.016(6)
C19 0.042(6) 0.052(7) 0.048(7) -0.005(6) 0.008(5) 0.011(5)
O10 0.024(4) 0.103(7) 0.057(5) 0.035(5) -0.015(4) -0.025(4)
C20 0.020(4) 0.063(6) 0.033(5) 0.005(4) 0.006(4) 0.001(4)
C21 0.024(4) 0.083(7) 0.038(5) 0.015(5) 0.009(4) 0.004(5)
C22 0.035(5) 0.074(7) 0.030(5) -0.006(5) 0.000(4) 0.010(5)
C23 0.057(6) 0.057(6) 0.035(5) -0.012(5) -0.009(5) 0.001(5)
C24 0.045(6) 0.055(6) 0.045(5) 0.007(5) -0.006(5) -0.003(5)
loop_
_geom_bond_atom_site_label_1
_geom_bond_atom_site_label_2
_geom_bond_site_symmetry_1
_geom_bond_site_symmetry_2
Zn1 O1 1_555 1_555
Zn2 O1 1_555 1_555
O1 C1 1_555 1_555
O2 C1 1_555 1_555
O3 Zn2 1_555 1_555
C1 C2 1_555 1_555
C2 O3 1_555 1_555
H1 C2 1_555 1_555
C3 C2 1_555 1_555
H2 C3 1_555 1_555
H3 C3 1_555 1_555
H4 C3 1_555 1_555
O4 Zn1 1_555 1_555
O5 Zn2 1_555 1_555
C4 O4 1_555 1_555
C5 C4 1_555 1_555
C6 C5 1_555 1_555
H5 C6 1_555 1_555
C7 C6 1_555 1_555
H6 C7 1_555 1_555
C8 C7 1_555 1_555
C9 C8 1_555 1_555
H7 C9 1_555 1_555
C10 C5 1_555 1_555
H8 C10 1_555 1_555
C11 C8 1_555 1_555
O6 C11 1_555 1_555
O7 C11 1_555 1_555
O8 Zn1 1_555 1_555
C12 O8 1_555 1_555
H9 C12 1_555 1_555
N1 C12 1_555 1_555
C13 N1 1_555 1_555
H10 C13 1_555 1_555
H11 C13 1_555 1_555
H12 C13 1_555 1_555
C14 N1 1_555 1_555
H13 C14 1_555 1_555
H14 C14 1_555 1_555
H15 C14 1_555 1_555
O9 C15 1_555 1_555
C15 C16 1_555 1_555
C16 H16 1_555 1_555
C17 C16 1_555 1_555
H17 C17 1_555 1_555
C18 C17 1_555 1_555
H18 C18 1_555 1_555
H19 C18 1_555 1_555
C19 C15 1_555 1_555
H20 C19 1_555 1_555
H21 C19 1_555 1_555
O10 C20 1_555 1_555
C20 C21 1_555 1_555
C21 H22 1_555 1_555
C22 C21 1_555 1_555
H23 C22 1_555 1_555
C23 C22 1_555 1_555
H24 C23 1_555 1_555
H25 C23 1_555 1_555
C24 C20 1_555 1_555
H26 C24 1_555 1_555
H27 C24 1_555 1_555
Zn1A O6 1_555 1_555
Zn1B O3 1_555 1_555
Zn2A O7 1_555 1_555
Zn2B O2 1_555 1_555
O2B Zn2 1_555 1_555
O3B Zn1 1_555 1_555
O6A Zn1 1_555 1_555
O7A Zn2 1_555 1_555
O5 C4 1_555 1_555
C9 C10 1_555 1_555
C18 C19 1_555 1_555
C23 C24 1_555 1_555
Zn2B O3B 1_555 1_555

#END
