
#######################################################################
#
#                 Cambridge Crystallographic Data Centre
#                                CCDC 
#
#######################################################################
#
# If this CIF has been generated from an entry in the Cambridge 
# Structural Database, then it will include bibliographic, chemical, 
# crystal, experimental, refinement or atomic coordinate data resulting 
# from the CCDC's data processing and validation procedures.
#
#######################################################################

data_RIFGAQ
_chemical_formula_moiety         '(C22 H16 Cu3 Mo12 N1 O61 P1)n'
_symmetry_cell_setting           cubic
_symmetry_space_group_name_H-M   'F m -3 m'
_symmetry_Int_Tables_number      225
_space_group_name_Hall           '-F 4 2 3'
loop_
_symmetry_equiv_pos_site_id
_symmetry_equiv_pos_as_xyz
1 x,y,z
2 -x,-y,z
3 -x,y,-z
4 x,-y,-z
5 z,x,y
6 z,-x,-y
7 -z,-x,y
8 -z,x,-y
9 y,z,x
10 -y,z,-x
11 y,-z,-x
12 -y,-z,x
13 y,x,-z
14 -y,-x,-z
15 y,-x,z
16 -y,x,z
17 x,z,-y
18 -x,z,y
19 -x,-z,-y
20 x,-z,y
21 z,y,-x
22 z,-y,x
23 -z,y,x
24 -z,-y,-x
25 x,1/2+y,1/2+z
26 -x,1/2-y,1/2+z
27 -x,1/2+y,1/2-z
28 x,1/2-y,1/2-z
29 z,1/2+x,1/2+y
30 z,1/2-x,1/2-y
31 -z,1/2-x,1/2+y
32 -z,1/2+x,1/2-y
33 y,1/2+z,1/2+x
34 -y,1/2+z,1/2-x
35 y,1/2-z,1/2-x
36 -y,1/2-z,1/2+x
37 y,1/2+x,1/2-z
38 -y,1/2-x,1/2-z
39 y,1/2-x,1/2+z
40 -y,1/2+x,1/2+z
41 x,1/2+z,1/2-y
42 -x,1/2+z,1/2+y
43 -x,1/2-z,1/2-y
44 x,1/2-z,1/2+y
45 z,1/2+y,1/2-x
46 z,1/2-y,1/2+x
47 -z,1/2+y,1/2+x
48 -z,1/2-y,1/2-x
49 1/2+x,y,1/2+z
50 1/2-x,-y,1/2+z
51 1/2-x,y,1/2-z
52 1/2+x,-y,1/2-z
53 1/2+z,x,1/2+y
54 1/2+z,-x,1/2-y
55 1/2-z,-x,1/2+y
56 1/2-z,x,1/2-y
57 1/2+y,z,1/2+x
58 1/2-y,z,1/2-x
59 1/2+y,-z,1/2-x
60 1/2-y,-z,1/2+x
61 1/2+y,x,1/2-z
62 1/2-y,-x,1/2-z
63 1/2+y,-x,1/2+z
64 1/2-y,x,1/2+z
65 1/2+x,z,1/2-y
66 1/2-x,z,1/2+y
67 1/2-x,-z,1/2-y
68 1/2+x,-z,1/2+y
69 1/2+z,y,1/2-x
70 1/2+z,-y,1/2+x
71 1/2-z,y,1/2+x
72 1/2-z,-y,1/2-x
73 1/2+x,1/2+y,z
74 1/2-x,1/2-y,z
75 1/2-x,1/2+y,-z
76 1/2+x,1/2-y,-z
77 1/2+z,1/2+x,y
78 1/2+z,1/2-x,-y
79 1/2-z,1/2-x,y
80 1/2-z,1/2+x,-y
81 1/2+y,1/2+z,x
82 1/2-y,1/2+z,-x
83 1/2+y,1/2-z,-x
84 1/2-y,1/2-z,x
85 1/2+y,1/2+x,-z
86 1/2-y,1/2-x,-z
87 1/2+y,1/2-x,z
88 1/2-y,1/2+x,z
89 1/2+x,1/2+z,-y
90 1/2-x,1/2+z,y
91 1/2-x,1/2-z,-y
92 1/2+x,1/2-z,y
93 1/2+z,1/2+y,-x
94 1/2+z,1/2-y,x
95 1/2-z,1/2+y,x
96 1/2-z,1/2-y,-x
97 -x,-y,-z
98 x,y,-z
99 x,-y,z
100 -x,y,z
101 -z,-x,-y
102 -z,x,y
103 z,x,-y
104 z,-x,y
105 -y,-z,-x
106 y,-z,x
107 -y,z,x
108 y,z,-x
109 -y,-x,z
110 y,x,z
111 -y,x,-z
112 y,-x,-z
113 -x,-z,y
114 x,-z,-y
115 x,z,y
116 -x,z,-y
117 -z,-y,x
118 -z,y,-x
119 z,-y,-x
120 z,y,x
121 -x,1/2-y,1/2-z
122 x,1/2+y,1/2-z
123 x,1/2-y,1/2+z
124 -x,1/2+y,1/2+z
125 -z,1/2-x,1/2-y
126 -z,1/2+x,1/2+y
127 z,1/2+x,1/2-y
128 z,1/2-x,1/2+y
129 -y,1/2-z,1/2-x
130 y,1/2-z,1/2+x
131 -y,1/2+z,1/2+x
132 y,1/2+z,1/2-x
133 -y,1/2-x,1/2+z
134 y,1/2+x,1/2+z
135 -y,1/2+x,1/2-z
136 y,1/2-x,1/2-z
137 -x,1/2-z,1/2+y
138 x,1/2-z,1/2-y
139 x,1/2+z,1/2+y
140 -x,1/2+z,1/2-y
141 -z,1/2-y,1/2+x
142 -z,1/2+y,1/2-x
143 z,1/2-y,1/2-x
144 z,1/2+y,1/2+x
145 1/2-x,-y,1/2-z
146 1/2+x,y,1/2-z
147 1/2+x,-y,1/2+z
148 1/2-x,y,1/2+z
149 1/2-z,-x,1/2-y
150 1/2-z,x,1/2+y
151 1/2+z,x,1/2-y
152 1/2+z,-x,1/2+y
153 1/2-y,-z,1/2-x
154 1/2+y,-z,1/2+x
155 1/2-y,z,1/2+x
156 1/2+y,z,1/2-x
157 1/2-y,-x,1/2+z
158 1/2+y,x,1/2+z
159 1/2-y,x,1/2-z
160 1/2+y,-x,1/2-z
161 1/2-x,-z,1/2+y
162 1/2+x,-z,1/2-y
163 1/2+x,z,1/2+y
164 1/2-x,z,1/2-y
165 1/2-z,-y,1/2+x
166 1/2-z,y,1/2-x
167 1/2+z,-y,1/2-x
168 1/2+z,y,1/2+x
169 1/2-x,1/2-y,-z
170 1/2+x,1/2+y,-z
171 1/2+x,1/2-y,z
172 1/2-x,1/2+y,z
173 1/2-z,1/2-x,-y
174 1/2-z,1/2+x,y
175 1/2+z,1/2+x,-y
176 1/2+z,1/2-x,y
177 1/2-y,1/2-z,-x
178 1/2+y,1/2-z,x
179 1/2-y,1/2+z,x
180 1/2+y,1/2+z,-x
181 1/2-y,1/2-x,z
182 1/2+y,1/2+x,z
183 1/2-y,1/2+x,-z
184 1/2+y,1/2-x,-z
185 1/2-x,1/2-z,y
186 1/2+x,1/2-z,-y
187 1/2+x,1/2+z,y
188 1/2-x,1/2+z,-y
189 1/2-z,1/2-y,x
190 1/2-z,1/2+y,-x
191 1/2+z,1/2-y,-x
192 1/2+z,1/2+y,x
_cell_length_a                   26.3368(14)
_cell_length_b                   26.3368(14)
_cell_length_c                   26.3368(14)
_cell_angle_alpha                90
_cell_angle_beta                 90
_cell_angle_gamma                90
_cell_volume                     18267.9
loop_
_atom_site_label
_atom_site_type_symbol
_atom_site_fract_x
_atom_site_fract_y
_atom_site_fract_z
C4 C 0.2173(11) 0.7827(11) 0.2173(11)
N1 N 0.2500 0.7500 0.2500
C4AA C 0.2173(11) 0.7173(11) 0.2827(11)
C4XA C 0.2827(11) 0.7827(11) 0.2827(11)
C4UB C 0.2827(11) 0.7173(11) 0.2173(11)
Mo1 Mo 0.40495(3) 0.0000 0.09505(3)
O3 O 0.4502(3) 0.0498(3) 0.1202(4)
O4 O 0.3612(2) 0.0000 0.1388(2)
P1 P 0.5000 0.0000 0.0000
O5 O 0.4663(4) 0.0337(4) 0.0337(4)
O5A O 0.5337(4) -0.0337(4) 0.0337(4)
O5B O 0.5337(4) 0.0337(4) -0.0337(4)
O5C O 0.4663(4) -0.0337(4) -0.0337(4)
O5P O 0.4663(4) 0.0337(4) -0.0337(4)
O5Q O 0.5337(4) 0.0337(4) 0.0337(4)
O5R O 0.5337(4) -0.0337(4) -0.0337(4)
O5S O 0.4663(4) -0.0337(4) 0.0337(4)
Mo1A Mo 0.59505(3) 0.0000 0.09505(3)
O3A O 0.5498(3) -0.0498(3) 0.1202(4)
O4A O 0.6388(2) 0.0000 0.1388(2)
Mo1B Mo 0.59505(3) -0.0000 -0.09505(3)
O3B O 0.5498(3) 0.0498(3) -0.1202(4)
O4B O 0.6388(2) -0.0000 -0.1388(2)
Mo1C Mo 0.40495(3) -0.0000 -0.09505(3)
O3C O 0.4502(3) -0.0498(3) -0.1202(4)
O4C O 0.3612(2) -0.0000 -0.1388(2)
Mo1P Mo 0.40495(3) 0.09505(3) 0.0000
O3P O 0.4502(3) 0.1202(4) -0.0498(3)
O4P O 0.3612(2) 0.1388(2) 0.0000
Mo1Q Mo 0.59505(3) 0.09505(3) 0.0000
O3Q O 0.5498(3) 0.1202(4) 0.0498(3)
O4Q O 0.6388(2) 0.1388(2) 0.0000
Mo1R Mo 0.59505(3) -0.09505(3) 0.0000
O3R O 0.5498(3) -0.1202(4) -0.0498(3)
O4R O 0.6388(2) -0.1388(2) 0.0000
Mo1S Mo 0.40495(3) -0.09505(3) 0.0000
O3S O 0.4502(3) -0.1202(4) 0.0498(3)
O4S O 0.3612(2) -0.1388(2) 0.0000
Mo1DB Mo 0.5000 0.09505(3) -0.09505(3)
O3DB O 0.5498(3) 0.1202(4) -0.0498(3)
O4DB O 0.5000 0.1388(2) -0.1388(2)
Mo1EB Mo 0.5000 0.09505(3) 0.09505(3)
O3EB O 0.4502(3) 0.1202(4) 0.0498(3)
O4EB O 0.5000 0.1388(2) 0.1388(2)
Mo1FB Mo 0.5000 -0.09505(3) 0.09505(3)
O3FB O 0.5498(3) -0.1202(4) 0.0498(3)
O4FB O 0.5000 -0.1388(2) 0.1388(2)
Mo1GB Mo 0.5000 -0.09505(3) -0.09505(3)
O3GB O 0.4502(3) -0.1202(4) -0.0498(3)
O4GB O 0.5000 -0.1388(2) -0.1388(2)
O3PB O 0.6202(4) 0.0498(3) 0.0498(3)
O3QB O 0.6202(4) -0.0498(3) -0.0498(3)
O3RB O 0.3798(4) 0.0498(3) -0.0498(3)
O3SB O 0.3798(4) -0.0498(3) 0.0498(3)
O3XB O 0.6202(4) -0.0498(3) 0.0498(3)
O3YB O 0.6202(4) 0.0498(3) -0.0498(3)
O3ZB O 0.3798(4) 0.0498(3) 0.0498(3)
O3AC O 0.3798(4) -0.0498(3) -0.0498(3)
O3FC O 0.5498(3) -0.0498(3) -0.1202(4)
O3GC O 0.4502(3) 0.0498(3) -0.1202(4)
O3HC O 0.5498(3) 0.0498(3) 0.1202(4)
O3IC O 0.4502(3) -0.0498(3) 0.1202(4)
O6 O 0.4254(9) 0.0000 0.2420(10)
O7 O 0.5000 0.0000 0.2689(16)
C1 C 0.8234(2) 0.8889(3) 0.3234(2)
C2 C 0.8024(3) 0.8672(2) 0.3672(2)
H1 H 0.7741 0.8821 0.3821
C3 C 0.7977(2) 0.9314(3) 0.2977(2)
Cu1 Cu 0.71460(3) 1.0000 0.28540(3)
O1 O 0.75697(16) 0.94765(16) 0.31679(17)
O2 O 0.6526(3) 1.0000 0.3474(3)
C1FA C 0.8889(3) 0.8234(2) 0.3234(2)
C2FA C 0.8672(2) 0.8672(2) 0.3024(3)
H1FA H 0.8821 0.8821 0.2741
C3FA C 0.9314(3) 0.7977(2) 0.2977(2)
O1FA O 0.94765(16) 0.81679(17) 0.25697(16)
C1ZA C 0.8234(2) 0.8234(2) 0.3889(3)
C2ZA C 0.8672(2) 0.8024(3) 0.3672(2)
H1ZA H 0.8821 0.7741 0.3821
C3ZA C 0.7977(2) 0.7977(2) 0.4314(3)
O1ZA O 0.81679(17) 0.75697(16) 0.44765(16)
O1ED O 0.94765(16) 0.75697(16) 0.31679(17)
O1HE O 0.75697(16) 0.81679(17) 0.44765(16)
O1KF O 0.81679(17) 0.94765(16) 0.25697(16)
C1G C 0.6766(2) 0.8234(2) 0.1111(3)
C2G C 0.6328(2) 0.8024(3) 0.1328(2)
H1G H 0.6179 0.7741 0.1179
C3G C 0.7023(2) 0.7977(2) 0.0686(3)
Cu1G Cu 0.71460(3) 0.71460(3) 0.0000
O1G O 0.68321(17) 0.75697(16) 0.05235(16)
O2G O 0.6526(3) 0.6526(3) 0.0000
C1XA C 0.6766(2) 0.8889(3) 0.1766(2)
C2XA C 0.6976(3) 0.8672(2) 0.1328(2)
H1XA H 0.7259 0.8821 0.1179
C3XA C 0.7023(2) 0.9314(3) 0.2023(2)
O1XA O 0.74303(16) 0.94765(16) 0.18321(17)
C1CC C 0.6111(3) 0.8234(2) 0.1766(2)
C2CC C 0.6328(2) 0.8672(2) 0.1976(3)
H1CC H 0.6179 0.8821 0.2259
C3CC C 0.5686(3) 0.7977(2) 0.2023(2)
O1CC O 0.55235(16) 0.81679(17) 0.24303(16)
O1MD O 0.68321(17) 0.94765(16) 0.24303(16)
O1BF O 0.55235(16) 0.75697(16) 0.18321(17)
O1EG O 0.74303(16) 0.81679(17) 0.05235(16)
Cu1J Cu 1.0000 0.71460(3) 0.28540(3)
O2J O 1.0000 0.6526(3) 0.3474(3)
Cu1DA Cu 0.71460(3) 0.78540(3) 0.5000
Cu1FA Cu 1.0000 0.78540(3) 0.21460(3)
Cu1XA Cu 0.78540(3) 1.0000 0.21460(3)
Cu1ZA Cu 0.78540(3) 0.71460(3) 0.5000
Cu1GB Cu 0.5000 0.71460(3) 0.21460(3)
Cu1YB Cu 0.78540(3) 0.78540(3) 0.0000
Cu1CC Cu 0.5000 0.78540(3) 0.28540(3)
O1J O 0.94765(16) 0.68321(17) 0.24303(16)
O1O O 1.05235(16) 0.75697(16) 0.31679(17)
O1S O 0.75697(16) 0.68321(17) -0.05235(16)
O1W O 0.68321(17) 1.05235(16) 0.24303(16)
O1TC O 0.75697(16) 1.05235(16) 0.31679(17)
O1WC O 0.68321(17) 0.75697(16) -0.05235(16)
O1ZC O 1.05235(16) 0.68321(17) 0.24303(16)
O1ID O 0.75697(16) 0.68321(17) 0.05235(16)
loop_
_geom_bond_atom_site_label_1
_geom_bond_atom_site_label_2
_geom_bond_site_symmetry_1
_geom_bond_site_symmetry_2
C1 C2 1_555 1_555
C2 H1 1_555 1_555
C3 C1 1_555 1_555
Cu1 O1 1_555 1_555
O1 C3 1_555 1_555
O2 Cu1 1_555 1_555
C4 N1 1_555 1_555
N1 C4AA 1_555 1_555
Mo1 O3 1_555 1_555
O3 Mo1EB 1_555 1_555
O4 Mo1 1_555 1_555
P1 O5 1_555 1_555
O5 Mo1 1_555 1_555
C1FA C2FA 1_555 1_555
C2FA C1 1_555 1_555
H1FA C2FA 1_555 1_555
C3FA C1FA 1_555 1_555
O1FA C3FA 1_555 1_555
C1ZA C2 1_555 1_555
C2ZA C1FA 1_555 1_555
H1ZA C2ZA 1_555 1_555
C3ZA C1ZA 1_555 1_555
O1ZA C3ZA 1_555 1_555
O1ED C3FA 1_555 1_555
O1HE C3ZA 1_555 1_555
O1KF C3 1_555 1_555
C1G C2G 1_555 1_555
C2G H1G 1_555 1_555
C3G C1G 1_555 1_555
Cu1G O1G 1_555 1_555
O1G C3G 1_555 1_555
O2G Cu1G 1_555 1_555
C1XA C2XA 1_555 1_555
C2XA C1G 1_555 1_555
H1XA C2XA 1_555 1_555
C3XA C1XA 1_555 1_555
O1XA C3XA 1_555 1_555
C1CC C2G 1_555 1_555
C2CC C1XA 1_555 1_555
H1CC C2CC 1_555 1_555
C3CC C1CC 1_555 1_555
O1CC C3CC 1_555 1_555
O1MD Cu1 1_555 1_555
O1BF C3CC 1_555 1_555
O1EG C3G 1_555 1_555
Cu1J O1ED 1_555 1_555
O2J Cu1J 1_555 1_555
Cu1DA O1HE 1_555 1_555
Cu1FA O1FA 1_555 1_555
Cu1XA O1KF 1_555 1_555
Cu1ZA O1ZA 1_555 1_555
Cu1GB O1BF 1_555 1_555
Cu1YB O1EG 1_555 1_555
Cu1CC O1CC 1_555 1_555
O1J Cu1J 1_555 1_555
O1O Cu1J 1_555 1_555
O1S Cu1G 1_555 1_555
O1W Cu1 1_555 1_555
O1TC Cu1 1_555 1_555
O1WC Cu1G 1_555 1_555
O1ZC Cu1J 1_555 1_555
O1ID Cu1G 1_555 1_555
C4XA N1 1_555 1_555
C4UB N1 1_555 1_555
O5A P1 1_555 1_555
O5B P1 1_555 1_555
O5C P1 1_555 1_555
O5P P1 1_555 1_555
O5Q P1 1_555 1_555
O5R P1 1_555 1_555
O5S Mo1 1_555 1_555
Mo1A O5A 1_555 1_555
O3A Mo1A 1_555 1_555
O4A Mo1A 1_555 1_555
Mo1B O5B 1_555 1_555
O3B Mo1B 1_555 1_555
O4B Mo1B 1_555 1_555
Mo1C O5C 1_555 1_555
O3C Mo1C 1_555 1_555
O4C Mo1C 1_555 1_555
Mo1P O5 1_555 1_555
O3P Mo1P 1_555 1_555
O4P Mo1P 1_555 1_555
Mo1Q O5B 1_555 1_555
O3Q Mo1Q 1_555 1_555
O4Q Mo1Q 1_555 1_555
Mo1R O5A 1_555 1_555
O3R Mo1R 1_555 1_555
O4R Mo1R 1_555 1_555
Mo1S O5C 1_555 1_555
O3S Mo1S 1_555 1_555
O4S Mo1S 1_555 1_555
Mo1DB O5B 1_555 1_555
O3DB Mo1Q 1_555 1_555
O4DB Mo1DB 1_555 1_555
Mo1EB O5 1_555 1_555
O3EB Mo1P 1_555 1_555
O4EB Mo1EB 1_555 1_555
Mo1FB O5A 1_555 1_555
O3FB Mo1R 1_555 1_555
O4FB Mo1FB 1_555 1_555
Mo1GB O5C 1_555 1_555
O3GB Mo1S 1_555 1_555
O4GB Mo1GB 1_555 1_555
O3PB Mo1A 1_555 1_555
O3QB Mo1B 1_555 1_555
O3RB Mo1C 1_555 1_555
O3SB Mo1 1_555 1_555
O3XB Mo1A 1_555 1_555
O3YB Mo1B 1_555 1_555
O3ZB Mo1 1_555 1_555
O3AC Mo1C 1_555 1_555
O3FC Mo1B 1_555 1_555
O3GC Mo1C 1_555 1_555
O3HC Mo1A 1_555 1_555
O3IC Mo1 1_555 1_555
P1 O5S 1_555 1_555
O5 O5P 1_555 1_555
O5 O5Q 1_555 1_555
O5 O5S 1_555 1_555
C1ZA C2ZA 1_555 1_555
C3XA O1MD 1_555 1_555
O1XA Cu1XA 1_555 1_555
C1CC C2CC 1_555 1_555
O5A O5Q 1_555 1_555
O5A O5R 1_555 1_555
O5A O5S 1_555 1_555
O5B O5P 1_555 1_555
O5B O5Q 1_555 1_555
O5B O5R 1_555 1_555
O5C O5P 1_555 1_555
O5C O5R 1_555 1_555
O5C O5S 1_555 1_555
O5P Mo1C 1_555 1_555
O5P Mo1P 1_555 1_555
O5P Mo1DB 1_555 1_555
O5Q Mo1A 1_555 1_555
O5Q Mo1Q 1_555 1_555
O5Q Mo1EB 1_555 1_555
O5R Mo1B 1_555 1_555
O5R Mo1R 1_555 1_555
O5R Mo1GB 1_555 1_555
O5S Mo1S 1_555 1_555
O5S Mo1FB 1_555 1_555
O3A Mo1FB 1_555 1_555
O3B Mo1DB 1_555 1_555
O3C Mo1GB 1_555 1_555
Mo1P O3RB 1_555 1_555
Mo1P O3ZB 1_555 1_555
O3P Mo1DB 1_555 1_555
Mo1Q O3PB 1_555 1_555
Mo1Q O3YB 1_555 1_555
O3Q Mo1EB 1_555 1_555
Mo1R O3QB 1_555 1_555
Mo1R O3XB 1_555 1_555
O3R Mo1GB 1_555 1_555
Mo1S O3SB 1_555 1_555
Mo1S O3AC 1_555 1_555
O3S Mo1FB 1_555 1_555
Mo1DB O3DB 1_555 1_555
Mo1DB O3GC 1_555 1_555
Mo1EB O3EB 1_555 1_555
Mo1EB O3HC 1_555 1_555
Mo1FB O3FB 1_555 1_555
Mo1FB O3IC 1_555 1_555
Mo1GB O3GB 1_555 1_555
Mo1GB O3FC 1_555 1_555

#END
