
#######################################################################
#
#                 Cambridge Crystallographic Data Centre
#                                CCDC 
#
#######################################################################
#
# If this CIF has been generated from an entry in the Cambridge 
# Structural Database, then it will include bibliographic, chemical, 
# crystal, experimental, refinement or atomic coordinate data resulting 
# from the CCDC's data processing and validation procedures.
#
#######################################################################

data_INAMUG
_chemical_formula_moiety         '(C98 H110 Co4 N12 O27)n'
_symmetry_cell_setting           triclinic
_symmetry_space_group_name_H-M   'P -1'
_symmetry_Int_Tables_number      2
_space_group_name_Hall           '-P 1'
loop_
_symmetry_equiv_pos_site_id
_symmetry_equiv_pos_as_xyz
1 x,y,z
2 -x,-y,-z
_cell_length_a                   11.166(2)
_cell_length_b                   11.638(2)
_cell_length_c                   20.950(4)
_cell_angle_alpha                96.25(3)
_cell_angle_beta                 90.68(3)
_cell_angle_gamma                108.49(3)
_cell_volume                     2563.46
loop_
_atom_site_label
_atom_site_type_symbol
_atom_site_fract_x
_atom_site_fract_y
_atom_site_fract_z
Co1 Co 0.13448(2) 0.47922(2) 1.240627(12)
Co2 Co -0.0000 0.0000 1.5000
Co3 Co 0.5000 0.5000 1.0000
O1 O 0.22031(16) 0.34754(15) 1.25857(7)
H1 H 0.2158 0.2807 1.2337
H2 H 0.2150 0.3336 1.2984
O2 O 0.14969(14) 0.44774(14) 1.14142(7)
O3 O 0.08567(19) 0.26695(16) 1.08108(9)
O4 O 0.32107(14) 0.50042(15) 1.02725(7)
O5 O 0.33168(17) 0.69544(17) 1.03367(12)
C1 C 0.27258(19) 0.5841(2) 1.02714(10)
C2 C 0.13008(19) 0.54277(19) 1.01616(9)
C3 C 0.05281(19) 0.43842(19) 1.04027(9)
C4 C 0.10151(19) 0.37890(19) 1.09117(10)
C5 C -0.07615(19) 0.3961(2) 1.02315(10)
H3 H -0.1272 0.3256 1.0384
O6 O 0.11882(15) 0.50554(13) 1.33949(7)
O7 O 0.14838(15) 0.04550(14) 1.57210(8)
H4 H 0.2164 0.0726 1.5633
H5 H 0.1442 -0.0202 1.5765
O8 O 0.15829(17) 0.35085(15) 1.38030(7)
O9 O 0.02772(14) 0.19001(12) 1.49849(7)
O10 O -0.11139(17) 0.19003(14) 1.42072(8)
C6 C 0.11568(19) 0.43790(17) 1.38357(9)
C7 C 0.05399(19) 0.46731(17) 1.44378(9)
C8 C -0.0296(2) 0.24173(17) 1.46479(9)
C9 C -0.00602(19) 0.37744(17) 1.48285(9)
C10 C 0.0581(2) 0.58766(18) 1.46136(9)
H6 H 0.0969 0.6465 1.4349
O11 O 0.43282(17) 0.30680(16) 0.98948(10)
H7 H 0.3654 0.2605 0.9753
H8 H 0.4915 0.2818 0.9778
C11 C 0.2793(2) -0.0793(2) 1.37086(12)
H9 H 0.3274 -0.1315 1.3704
C12 C 0.2052(2) -0.0690(2) 1.42190(11)
H10 H 0.2061 -0.1141 1.4558
C13 C 0.1362(2) 0.0700(2) 1.37682(11)
H11 H 0.0879 0.1222 1.3786
C14 C -0.2190(2) 0.8834(2) 1.20420(13)
H12 H -0.2495 0.9461 1.1899
H13 H -0.2386 0.8161 1.1700
C15 C -0.2864(2) 0.8393(2) 1.26373(12)
H14 H -0.2435 0.8572 1.3037
C16 C -0.4245(2) 0.76571(19) 1.25622(11)
C17 C -0.4852(2) 0.7182(2) 1.30975(11)
H15 H -0.4418 0.7370 1.3497
N1 N 0.94396(17) 0.34542(17) 1.23216(9)
N2 N 0.13190(17) 0.00287(15) 1.42518(8)
C18 C 0.8633(2) 0.3408(2) 1.18348(11)
H16 H 0.8902 0.3955 1.1534
C19 C 0.7800(2) 0.1842(2) 1.27148(12)
H17 H 0.7540 0.1332 1.3033
C20 C 0.9008(2) 0.2664(2) 1.27526(12)
H18 H 0.9551 0.2671 1.3094
C21 C -0.0741(2) 0.9355(2) 1.21722(15)
H19 H -0.0361 0.9806 1.1823
H20 H -0.0550 0.9914 1.2566
C22 C 0.6968(2) 0.1775(2) 1.22017(11)
C23 C 0.5647(2) 0.0861(2) 1.21242(12)
H21 H 0.5175 0.1091 1.1796
H22 H 0.5709 0.0067 1.1969
C24 C 0.4908(3) 0.0745(3) 1.27216(15)
H23 H 0.4830 0.1534 1.2875
H24 H 0.5376 0.0518 1.3052
C25 C 0.3605(2) -0.0181(2) 1.26251(12)
H25 H 0.3679 -0.0993 1.2548
H26 H 0.3182 -0.0041 1.2248
C26 C 0.2816(2) -0.01143(19) 1.32008(11)
C27 C 0.2090(2) 0.0653(2) 1.32438(11)
H27 H 0.2092 0.1138 1.2919
N3 N 0.44220(17) 0.50567(17) 0.90215(9)
N4 N 0.6211(2) 0.8122(2) 0.47812(12)
C28 C 0.2825(2) 0.4488(2) 0.81719(11)
H28 H 0.1986 0.4078 0.8039
C29 C 0.3226(2) 0.4489(2) 0.87944(11)
H29 H 0.2642 0.4076 0.9072
C30 C 0.5230(2) 0.5638(2) 0.86050(11)
H30 H 0.6065 0.6034 0.8750
C31 C 0.4899(2) 0.5684(2) 0.79754(11)
H31 H 0.5503 0.6107 0.7709
C32 C 0.3664(2) 0.50977(19) 0.77380(10)
C33 C 0.3183(2) 0.5087(2) 0.70603(11)
H32 H 0.2347 0.4674 0.6921
C34 C 0.4141(3) 0.5792(2) 0.66190(12)
H33 H 0.4801 0.5418 0.6560
H34 H 0.4529 0.6621 0.6822
C35 C 0.3555(3) 0.5825(3) 0.59658(13)
H35 H 0.3235 0.5001 0.5746
H36 H 0.2844 0.6128 0.6027
C36 C 0.4484(2) 0.6622(3) 0.55467(12)
C37 C 0.4196(3) 0.7505(3) 0.52493(15)
H37 H 0.3413 0.7619 0.5299
C38 C 0.5072(3) 0.8223(3) 0.48767(17)
H38 H 0.4852 0.8812 0.4681
C39 C 0.6500(3) 0.7284(3) 0.50740(14)
H39 H 0.7297 0.7203 0.5023
C40 C 0.5677(3) 0.6525(3) 0.54513(15)
H40 H 0.5923 0.5946 0.5643
C41 C -0.0146(2) 0.7863(2) 1.28110(12)
H41 H -0.0382 0.8222 1.3186
N5 N 0.06327(16) 0.63080(16) 1.23058(9)
N6 N -0.67780(16) 0.61317(16) 1.24785(9)
C42 C 0.0632(2) 0.6799(2) 1.17565(12)
H42 H 0.0917 0.6452 1.1393
C43 C -0.0191(2) 0.83436(19) 1.22316(13)
C44 C 0.7417(2) 0.2587(2) 1.17557(11)
H43 H 0.6902 0.2581 1.1403
C45 C 0.0248(2) 0.6857(2) 1.28265(11)
H44 H 0.0248 0.6542 1.3216
C46 C 0.0230(2) 0.7793(2) 1.17010(13)
H45 H 0.0242 0.8093 1.1306
C47 C -0.6088(2) 0.6437(2) 1.30395(11)
H46 H -0.6467 0.6129 1.3405
C48 C -0.6207(2) 0.6608(2) 1.19679(10)
H47 H -0.6668 0.6421 1.1577
C49 C -0.4961(2) 0.7369(2) 1.19885(11)
H48 H -0.4610 0.7682 1.1619
Co1A Co -0.13448(2) 0.52078(2) 1.759373(12)
Co1_2 Co 1.13448(2) 0.47922(2) 1.240627(12)
Co1_3 Co -0.86552(2) 0.47922(2) 1.240627(12)
Co1A_2 Co -0.13448(2) 0.52078(2) 0.759373(12)
Co1A_3 Co -1.13448(2) -0.47922(2) 1.759373(12)
Co2_2 Co -0.0000 1.0000 1.5000
Co3_2 Co -0.5000 0.5000 1.0000
O1A O -0.22031(16) 0.65246(15) 1.74143(7)
H1A H -0.2158 0.7193 1.7663
H2A H -0.2150 0.6664 1.7016
O2A O -0.14969(14) 0.55226(14) 0.85858(7)
O2A_2 O -0.14969(14) 0.55226(14) 1.85858(7)
O3A O -0.08567(19) 0.73305(16) 0.91892(9)
O4A O -0.32107(14) 0.49958(15) 0.97275(7)
O4A_2 O 0.67893(14) 0.49958(15) 0.97275(7)
O5A O -0.33168(17) 0.30456(17) 0.96633(12)
C1A C -0.27258(19) 0.4159(2) 0.97286(10)
C2A C -0.13008(19) 0.45723(19) 0.98384(9)
C3A C -0.05281(19) 0.56158(19) 0.95973(9)
C4A C -0.10151(19) 0.62110(19) 0.90883(10)
C5A C 0.07615(19) 0.6039(2) 0.97685(10)
H3A H 0.1272 0.6744 0.9616
O6A O -0.11882(15) 0.49446(13) 1.66051(7)
O7A O -0.14838(15) -0.04550(14) 1.42790(8)
H4A H -0.2164 -0.0726 1.4367
H5A H -0.1442 0.0202 1.4235
O8A O -0.15829(17) 0.64915(15) 1.61970(7)
O9A O -0.02772(14) 0.80999(12) 1.50151(7)
O9A_2 O -0.02772(14) -0.19001(12) 1.50151(7)
O10A O 0.11139(17) 0.80997(14) 1.57928(8)
C6A C -0.11568(19) 0.56210(17) 1.61643(9)
C7A C -0.05399(19) 0.53269(17) 1.55622(9)
C8A C 0.0296(2) 0.75827(17) 1.53521(9)
C9A C 0.00602(19) 0.62256(17) 1.51715(9)
C10A C -0.0581(2) 0.41234(18) 1.53864(9)
H6A H -0.0969 0.3535 1.5651
O11A O 0.56718(17) 0.69320(16) 1.01052(10)
H7A H 0.6346 0.7395 1.0247
H8A H 0.5085 0.7182 1.0222
C11A C -0.2793(2) 0.0793(2) 1.62914(12)
H9A H -0.3274 0.1315 1.6296
C12A C -0.2052(2) 0.0690(2) 1.57810(11)
H10A H -0.2061 0.1141 1.5442
C13A C -0.1362(2) -0.0700(2) 1.62318(11)
H11A H -0.0879 -0.1222 1.6214
C14_2 C 0.7810(2) 0.8834(2) 1.20420(13)
H12_2 H 0.7505 0.9461 1.1899
H13_2 H 0.7614 0.8161 1.1700
C15_2 C 0.7136(2) 0.8393(2) 1.26373(12)
H14_2 H 0.7565 0.8572 1.3037
C16_2 C 0.5755(2) 0.76571(19) 1.25622(11)
C17_2 C 0.5148(2) 0.7182(2) 1.30975(11)
H15_2 H 0.5582 0.7370 1.3497
N1A N -0.94396(17) -0.34542(17) 1.76784(9)
N1_2 N -0.05604(17) 0.34542(17) 1.23216(9)
N1A_2 N 0.05604(17) 0.65458(17) 1.76784(9)
N2A N -0.13190(17) -0.00287(15) 1.57482(8)
C18A C -0.8633(2) -0.3408(2) 1.81652(11)
H16A H -0.8902 -0.3955 1.8466
C19A C -0.7800(2) -0.1842(2) 1.72852(12)
H17A H -0.7540 -0.1332 1.6967
C20A C -0.9008(2) -0.2664(2) 1.72474(12)
H18A H -0.9551 -0.2671 1.6906
C21_2 C 0.9259(2) 0.9355(2) 1.21722(15)
H19_2 H 0.9639 0.9806 1.1823
H20_2 H 0.9450 0.9914 1.2566
C22A C -0.6968(2) -0.1775(2) 1.77983(11)
C23A C -0.5647(2) -0.0861(2) 1.78758(12)
H21A H -0.5175 -0.1091 1.8204
H22A H -0.5709 -0.0067 1.8031
C24A C -0.4908(3) -0.0745(3) 1.72784(15)
H23A H -0.4830 -0.1534 1.7125
H24A H -0.5376 -0.0518 1.6948
C25A C -0.3605(2) 0.0181(2) 1.73749(12)
H25A H -0.3679 0.0993 1.7452
H26A H -0.3182 0.0041 1.7752
C26A C -0.2816(2) 0.01143(19) 1.67992(11)
C27A C -0.2090(2) -0.0653(2) 1.67562(11)
H27A H -0.2092 -0.1138 1.7081
N3A N 0.55780(17) 0.49433(17) 1.09785(9)
N4A N 0.3789(2) 0.1878(2) 1.52188(12)
C28A C 0.7175(2) 0.5512(2) 1.18281(11)
H28A H 0.8014 0.5922 1.1961
C29A C 0.6774(2) 0.5511(2) 1.12056(11)
H29A H 0.7358 0.5924 1.0928
C30A C 0.4770(2) 0.4362(2) 1.13950(11)
H30A H 0.3935 0.3966 1.1250
C31A C 0.5101(2) 0.4316(2) 1.20246(11)
H31A H 0.4497 0.3893 1.2291
C32A C 0.6336(2) 0.49023(19) 1.22620(10)
C33A C 0.6817(2) 0.4913(2) 1.29397(11)
H32A H 0.7653 0.5326 1.3079
C34A C 0.5859(3) 0.4208(2) 1.33810(12)
H33A H 0.5199 0.4582 1.3440
H34A H 0.5471 0.3379 1.3178
C35A C 0.6445(3) 0.4175(3) 1.40342(13)
H35A H 0.6765 0.4999 1.4254
H36A H 0.7156 0.3872 1.3973
C36A C 0.5516(2) 0.3378(3) 1.44533(12)
C37A C 0.5804(3) 0.2495(3) 1.47507(15)
H37A H 0.6587 0.2381 1.4701
C38A C 0.4928(3) 0.1777(3) 1.51233(17)
H38A H 0.5148 0.1188 1.5319
C39A C 0.3500(3) 0.2716(3) 1.49260(14)
H39A H 0.2703 0.2797 1.4977
C40A C 0.4323(3) 0.3475(3) 1.45487(15)
H40A H 0.4077 0.4054 1.4357
C41_2 C 0.9854(2) 0.7863(2) 1.28110(12)
H41_2 H 0.9618 0.8222 1.3186
N5_2 N 1.06327(16) 0.63080(16) 1.23058(9)
N5A N -0.06327(16) 0.36920(16) 1.76942(9)
N6_2 N 0.32220(16) 0.61317(16) 1.24785(9)
N6A N -0.32220(16) 0.38683(16) 1.75215(9)
C42_2 C 1.0632(2) 0.6799(2) 1.17565(12)
H42_2 H 1.0917 0.6452 1.1393
C43_2 C 0.9809(2) 0.83436(19) 1.22316(13)
C44A C -0.7417(2) -0.2587(2) 1.82443(11)
H43A H -0.6902 -0.2581 1.8597
C45_2 C 1.0248(2) 0.6857(2) 1.28265(11)
H44_2 H 1.0248 0.6542 1.3216
C46_2 C 1.0230(2) 0.7793(2) 1.17010(13)
H45_2 H 1.0242 0.8093 1.1306
C47_2 C 0.3912(2) 0.6437(2) 1.30395(11)
H46_2 H 0.3533 0.6129 1.3405
C48_2 C 0.3793(2) 0.6608(2) 1.19679(10)
H47_2 H 0.3332 0.6421 1.1577
C49_2 C 0.5039(2) 0.7369(2) 1.19885(11)
H48_2 H 0.5390 0.7682 1.1619
O12 O 0.5977(6) 0.8715(5) 0.9149(3)
H49 H 0.5894 0.8151 0.9418
H50 H 0.6605 0.8572 0.8885
O13 O 0.8053(3) 0.8422(2) 0.83538(11)
H51 H 0.8455 0.8119 0.8618
H52 H 0.7873 0.9041 0.8569
O14 O 0.1816(2) 0.1914(2) 0.96063(13)
H53 H 0.1617 0.1124 0.9583
H54 H 0.2593 0.2257 0.9691
O15 O 0.1225(5) -0.0560(4) 0.9539(4)
H55 H 0.1485 -0.0711 0.9223
H56 H 0.0647 -0.1109 0.9422
O16 O 0.6498(8) 1.0818(8) 1.0003(4)
loop_
_geom_bond_atom_site_label_1
_geom_bond_atom_site_label_2
_geom_bond_site_symmetry_1
_geom_bond_site_symmetry_2
Co1 O1 1_555 1_555
Co2 O7 1_555 1_555
Co3 O4 1_555 1_555
O1 H1 1_555 1_555
H2 O1 1_555 1_555
O2 Co1 1_555 1_555
O3 C4 1_555 1_555
O4 C1 1_555 1_555
O5 C1 1_555 1_555
C1 C2 1_555 1_555
C2 C3 1_555 1_555
C3 C4 1_555 1_555
C4 O2 1_555 1_555
C5 C3 1_555 1_555
H3 C5 1_555 1_555
O6 Co1 1_555 1_555
O7 H4 1_555 1_555
H5 O7 1_555 1_555
O8 C6 1_555 1_555
O9 Co2 1_555 1_555
O10 C8 1_555 1_555
C6 O6 1_555 1_555
C7 C6 1_555 1_555
C8 O9 1_555 1_555
C9 C7 1_555 1_555
C10 C7 1_555 1_555
H6 C10 1_555 1_555
O11 Co3 1_555 1_555
H7 O11 1_555 1_555
H8 O11 1_555 1_555
C11 H9 1_555 1_555
C12 C11 1_555 1_555
H10 C12 1_555 1_555
C13 H11 1_555 1_555
C14 H12 1_555 1_555
H13 C14 1_555 1_555
C15 C14 1_555 1_555
H14 C15 1_555 1_555
C16 C15 1_555 1_555
C17 C16 1_555 1_555
H15 C17 1_555 1_555
N1 C18 1_555 1_555
N2 Co2 1_555 1_555
C18 H16 1_555 1_555
C19 H17 1_555 1_555
C20 N1 1_555 1_555
H18 C20 1_555 1_555
C21 C14 1_555 1_555
H19 C21 1_555 1_555
H20 C21 1_555 1_555
C22 C19 1_555 1_555
C23 C22 1_555 1_555
H21 C23 1_555 1_555
H22 C23 1_555 1_555
C24 C23 1_555 1_555
H23 C24 1_555 1_555
H24 C24 1_555 1_555
C25 C24 1_555 1_555
H25 C25 1_555 1_555
H26 C25 1_555 1_555
C26 C11 1_555 1_555
C27 C13 1_555 1_555
H27 C27 1_555 1_555
N3 Co3 1_555 1_555
N4 C38 1_555 1_555
C28 H28 1_555 1_555
C29 N3 1_555 1_555
H29 C29 1_555 1_555
C30 N3 1_555 1_555
H30 C30 1_555 1_555
C31 C30 1_555 1_555
H31 C31 1_555 1_555
C32 C28 1_555 1_555
C33 C32 1_555 1_555
H32 C33 1_555 1_555
C34 C33 1_555 1_555
H33 C34 1_555 1_555
H34 C34 1_555 1_555
C35 C34 1_555 1_555
H35 C35 1_555 1_555
H36 C35 1_555 1_555
C36 C35 1_555 1_555
C37 C36 1_555 1_555
H37 C37 1_555 1_555
C38 C37 1_555 1_555
H38 C38 1_555 1_555
C39 N4 1_555 1_555
H39 C39 1_555 1_555
C40 C36 1_555 1_555
H40 C40 1_555 1_555
C41 H41 1_555 1_555
N5 Co1 1_555 1_555
N6 C47 1_555 1_555
C42 N5 1_555 1_555
H42 C42 1_555 1_555
C43 C21 1_555 1_555
C44 C18 1_555 1_555
H43 C44 1_555 1_555
C45 C41 1_555 1_555
H44 C45 1_555 1_555
C46 C42 1_555 1_555
H45 C46 1_555 1_555
C47 C17 1_555 1_555
H46 C47 1_555 1_555
C48 N6 1_555 1_555
H47 C48 1_555 1_555
C49 C16 1_555 1_555
H48 C49 1_555 1_555
O12 H49 1_555 1_555
H50 O12 1_555 1_555
O13 H51 1_555 1_555
H52 O13 1_555 1_555
O14 H53 1_555 1_555
H54 O14 1_555 1_555
O15 H55 1_555 1_555
H56 O15 1_555 1_555
Co1A O1A 1_555 1_555
Co1_2 N1 1_555 1_555
Co1_3 N6 1_555 1_555
Co1A_2 O2A 1_555 1_555
Co1A_3 N1A 1_555 1_555
Co2_2 O9A 1_555 1_555
Co3_2 O4A 1_555 1_555
O1A H1A 1_555 1_555
H2A O1A 1_555 1_555
O2A C4A 1_555 1_555
O2A_2 Co1A 1_555 1_555
O3A C4A 1_555 1_555
O4A C1A 1_555 1_555
O4A_2 Co3 1_555 1_555
O5A C1A 1_555 1_555
C1A C2A 1_555 1_555
C2A C5 1_555 1_555
C3A C2A 1_555 1_555
C4A C3A 1_555 1_555
C5A C2 1_555 1_555
H3A C5A 1_555 1_555
O6A Co1A 1_555 1_555
O7A Co2 1_555 1_555
H4A O7A 1_555 1_555
H5A O7A 1_555 1_555
O8A C6A 1_555 1_555
O9A C8A 1_555 1_555
O9A_2 Co2 1_555 1_555
O10A C8A 1_555 1_555
C6A O6A 1_555 1_555
C7A C6A 1_555 1_555
C8A C9A 1_555 1_555
C9A C10 1_555 1_555
C10A C9 1_555 1_555
H6A C10A 1_555 1_555
O11A Co3 1_555 1_555
H7A O11A 1_555 1_555
H8A O11A 1_555 1_555
C11A H9A 1_555 1_555
C12A C11A 1_555 1_555
H10A C12A 1_555 1_555
C13A H11A 1_555 1_555
C14_2 H12_2 1_555 1_555
H13_2 C14_2 1_555 1_555
C15_2 C14_2 1_555 1_555
H14_2 C15_2 1_555 1_555
C16_2 C15_2 1_555 1_555
C17_2 C16_2 1_555 1_555
H15_2 C17_2 1_555 1_555
N1A C18A 1_555 1_555
N1_2 Co1 1_555 1_555
N1A_2 Co1A 1_555 1_555
N2A Co2 1_555 1_555
C18A H16A 1_555 1_555
C19A H17A 1_555 1_555
C20A N1A 1_555 1_555
H18A C20A 1_555 1_555
C21_2 C14_2 1_555 1_555
H19_2 C21_2 1_555 1_555
H20_2 C21_2 1_555 1_555
C22A C19A 1_555 1_555
C23A C22A 1_555 1_555
H21A C23A 1_555 1_555
H22A C23A 1_555 1_555
C24A C23A 1_555 1_555
H23A C24A 1_555 1_555
H24A C24A 1_555 1_555
C25A C24A 1_555 1_555
H25A C25A 1_555 1_555
H26A C25A 1_555 1_555
C26A C11A 1_555 1_555
C27A C13A 1_555 1_555
H27A C27A 1_555 1_555
N3A Co3 1_555 1_555
N4A C38A 1_555 1_555
C28A H28A 1_555 1_555
C29A N3A 1_555 1_555
H29A C29A 1_555 1_555
C30A N3A 1_555 1_555
H30A C30A 1_555 1_555
C31A C30A 1_555 1_555
H31A C31A 1_555 1_555
C32A C28A 1_555 1_555
C33A C32A 1_555 1_555
H32A C33A 1_555 1_555
C34A C33A 1_555 1_555
H33A C34A 1_555 1_555
H34A C34A 1_555 1_555
C35A C34A 1_555 1_555
H35A C35A 1_555 1_555
H36A C35A 1_555 1_555
C36A C35A 1_555 1_555
C37A C36A 1_555 1_555
H37A C37A 1_555 1_555
C38A C37A 1_555 1_555
H38A C38A 1_555 1_555
C39A N4A 1_555 1_555
H39A C39A 1_555 1_555
C40A C36A 1_555 1_555
H40A C40A 1_555 1_555
C41_2 H41_2 1_555 1_555
N5_2 Co1_2 1_555 1_555
N5A Co1A 1_555 1_555
N6_2 Co1 1_555 1_555
N6A Co1A 1_555 1_555
C42_2 N5_2 1_555 1_555
H42_2 C42_2 1_555 1_555
C43_2 C21_2 1_555 1_555
C44A C18A 1_555 1_555
H43A C44A 1_555 1_555
C45_2 C41_2 1_555 1_555
H44_2 C45_2 1_555 1_555
C46_2 C42_2 1_555 1_555
H45_2 C46_2 1_555 1_555
C47_2 C17_2 1_555 1_555
H46_2 C47_2 1_555 1_555
C48_2 N6_2 1_555 1_555
H47_2 C48_2 1_555 1_555
C49_2 C16_2 1_555 1_555
H48_2 C49_2 1_555 1_555
C8 C9 1_555 1_555
C12 N2 1_555 1_555
C13 N2 1_555 1_555
C19 C20 1_555 1_555
C22 C44 1_555 1_555
C25 C26 1_555 1_555
C26 C27 1_555 1_555
C28 C29 1_555 1_555
C31 C32 1_555 1_555
C39 C40 1_555 1_555
C41 C43 1_555 1_555
N5 C45 1_555 1_555
C43 C46 1_555 1_555
C48 C49 1_555 1_555
C3A C5A 1_555 1_555
C7A C9A 1_555 1_555
C7A C10A 1_555 1_555
C12A N2A 1_555 1_555
C13A N2A 1_555 1_555
C19A C20A 1_555 1_555
C22A C44A 1_555 1_555
C25A C26A 1_555 1_555
C26A C27A 1_555 1_555
C28A C29A 1_555 1_555
C31A C32A 1_555 1_555
C39A C40A 1_555 1_555
C41_2 C43_2 1_555 1_555
N5_2 C45_2 1_555 1_555
N6_2 C47_2 1_555 1_555
C43_2 C46_2 1_555 1_555
C48_2 C49_2 1_555 1_555

#END
