
#######################################################################
#
#                 Cambridge Crystallographic Data Centre
#                                CCDC 
#
#######################################################################
#
# If this CIF has been generated from an entry in the Cambridge 
# Structural Database, then it will include bibliographic, chemical, 
# crystal, experimental, refinement or atomic coordinate data resulting 
# from the CCDC's data processing and validation procedures.
#
#######################################################################

data_HUYKUH
_chemical_formula_moiety         'C61 H42 N6 Ni5 O27'
_symmetry_cell_setting           cubic
_symmetry_space_group_name_H-M   'I 41 3 2'
_symmetry_Int_Tables_number      214
_space_group_name_Hall           'I 4bd 2c 3'
loop_
_symmetry_equiv_pos_site_id
_symmetry_equiv_pos_as_xyz
1 x,y,z
2 y,z,x
3 z,x,y
4 1/4-y,3/4+x,1/4+z
5 1/4-z,3/4+y,1/4+x
6 1/4-x,3/4+z,1/4+y
7 1/2-x,-y,1/2+z
8 -z,1/2+x,1/2-y
9 -x,1/2+y,1/2-z
10 1/2-y,-z,1/2+x
11 1/2-z,-x,1/2+y
12 1/4+y,1/4-x,3/4+z
13 1/4+z,1/4-y,3/4+x
14 1/4+x,1/4-z,3/4+y
15 -y,1/2+z,1/2-x
16 3/4-z,3/4-y,3/4-x
17 3/4-x,3/4-z,3/4-y
18 3/4-y,3/4-x,3/4-z
19 1/2+y,1/2-z,-x
20 3/4+y,1/4+x,1/4-z
21 3/4+z,1/4+y,1/4-x
22 3/4+x,1/4+z,1/4-y
23 1/2+x,1/2-y,-z
24 1/2+z,1/2-x,-y
25 1/2+x,1/2+y,1/2+z
26 1/2+y,1/2+z,1/2+x
27 1/2+z,1/2+x,1/2+y
28 3/4-y,1/4+x,3/4+z
29 3/4-z,1/4+y,3/4+x
30 3/4-x,1/4+z,3/4+y
31 -x,1/2-y,z
32 1/2-z,x,-y
33 1/2-x,y,-z
34 -y,1/2-z,x
35 -z,1/2-x,y
36 3/4+y,3/4-x,1/4+z
37 3/4+z,3/4-y,1/4+x
38 3/4+x,3/4-z,1/4+y
39 1/2-y,z,-x
40 1/4-z,1/4-y,1/4-x
41 1/4-x,1/4-z,1/4-y
42 1/4-y,1/4-x,1/4-z
43 y,-z,1/2-x
44 1/4+y,3/4+x,3/4-z
45 1/4+z,3/4+y,3/4-x
46 1/4+x,3/4+z,3/4-y
47 x,-y,1/2-z
48 z,-x,1/2-y
_cell_length_a                   28.6020(15)
_cell_length_b                   28.6020(15)
_cell_length_c                   28.6020(15)
_cell_angle_alpha                90
_cell_angle_beta                 90
_cell_angle_gamma                90
_cell_volume                     23398.6
loop_
_atom_site_label
_atom_site_type_symbol
_atom_site_fract_x
_atom_site_fract_y
_atom_site_fract_z
_atom_site_U_iso_or_equiv
_atom_site_thermal_displace_type
C1 C 0.46317(14) 0.92791(15) 0.09839(15) 0.0490 Uani
C2 C 0.50480(13) 0.94296(14) 0.06957(13) 0.0437 Uani
C3 C 0.51811(13) 0.91713(13) 0.03083(14) 0.0436 Uani
H1 H 0.5007 0.8903 0.0220 0.0520 Uiso
C4 C 0.3361(4) 0.9162(5) 0.1518(3) 0.0960 Uiso
C5 C 0.3212(11) 0.9574(9) 0.1820(11) 0.1190 Uiso
C6 C 0.4241(2) 0.7505(2) 0.0894(4) 0.1033 Uani
H2 H 0.4197 0.7410 0.1209 0.1240 Uiso
C7 C 0.4357(3) 0.7169(3) 0.0546(6) 0.1453 Uani
H3 H 0.4408 0.6855 0.0641 0.1750 Uiso
C8 C 0.4395(3) 0.7271(4) 0.0101(5) 0.1327 Uani
H4 H 0.4449 0.7032 -0.0124 0.1590 Uiso
C9 C 0.4355(3) 0.7730(4) -0.0033(4) 0.1410 Uani
H5 H 0.4394 0.7825 -0.0349 0.1690 Uiso
C10 C 0.4253(2) 0.8058(2) 0.0331(3) 0.0923 Uani
H6 H 0.4223 0.8378 0.0246 0.1110 Uiso
N1 N 0.41955(15) 0.79486(16) 0.0777(2) 0.0743 Uani
O1 O 0.44710(13) 0.88867(12) 0.08871(14) 0.0728 Uani
O2 O 0.44827(11) 0.95471(11) 0.12918(12) 0.0594 Uani
O3 O 0.38334(14) 0.90291(13) 0.16755(15) 0.0767 Uani
H7 H 0.398(2) 0.9269(15) 0.161(3) 0.1150 Uiso
O4 O 0.3509(11) 0.9950(7) 0.1715(11) 0.1550 Uiso
Ni1 Ni 0.40303(2) 0.84697(2) 0.1250 0.0587 Uani
C2I C 0.55704(14) 0.93043(13) 0.00480(13) 0.0437 Uani
C1I C 0.57209(15) 0.90161(15) -0.03683(14) 0.0490 Uani
O1I O 0.61133(12) 0.91129(14) -0.05290(13) 0.0728 Uani
O2I O 0.54529(11) 0.87082(12) -0.05173(11) 0.0594 Uani
C3I C 0.58287(13) 0.96917(14) 0.01811(13) 0.0436 Uani
C2W C 0.56957(13) 0.99520(13) 0.05704(14) 0.0437 Uani
C1W C 0.59839(15) 1.03683(14) 0.07209(15) 0.0490 Uani
O1W O 0.58871(14) 1.05290(13) 0.11133(12) 0.0728 Uani
O2W O 0.62918(12) 1.05173(11) 0.04529(11) 0.0594 Uani
C3W C 0.53083(14) 0.98189(13) 0.08287(13) 0.0436 Uani
H1W H 0.5220 0.9993 0.1097 0.0520 Uiso
H1I H 0.6097 0.9780 0.0007 0.0520 Uiso
C4OA C 0.3338(5) 0.9139(4) 0.0982(3) 0.0960 Uiso
C5OA C 0.2926(9) 0.9288(11) 0.0680(11) 0.1190 Uiso
O4OA O 0.2550(7) 0.8991(11) 0.0785(11) 0.1550 Uiso
O3OA O 0.34709(13) 0.86666(14) 0.08245(15) 0.0767 Uani
H7OA H 0.3231(15) 0.852(2) 0.089(3) 0.1150 Uiso
C6OA C 0.4995(2) 0.8259(2) 0.1606(4) 0.1033 Uani
H2OA H 0.5090 0.8303 0.1291 0.1240 Uiso
C7OA C 0.5331(3) 0.8143(3) 0.1954(6) 0.1453 Uani
H3OA H 0.5645 0.8092 0.1859 0.1750 Uiso
C8OA C 0.5229(4) 0.8105(3) 0.2399(5) 0.1327 Uani
H4OA H 0.5468 0.8051 0.2624 0.1590 Uiso
C9OA C 0.4770(4) 0.8145(3) 0.2533(4) 0.1410 Uani
H5OA H 0.4675 0.8106 0.2849 0.1690 Uiso
C10OA C 0.4442(2) 0.8247(2) 0.2169(3) 0.0923 Uani
H6OA H 0.4122 0.8277 0.2254 0.1110 Uiso
N1OA N 0.45514(16) 0.83045(15) 0.1723(2) 0.0743 Uani
C1OA C 0.32209(15) 0.78683(14) 0.15161(15) 0.0490 Uani
C2OA C 0.30704(14) 0.74520(13) 0.18043(13) 0.0437 Uani
C3OA C 0.33287(13) 0.73189(13) 0.21917(14) 0.0436 Uani
H1OA H 0.3597 0.7493 0.2280 0.0520 Uiso
O1OA O 0.36133(12) 0.80290(13) 0.16129(14) 0.0728 Uani
O2OA O 0.29529(11) 0.80173(11) 0.12082(12) 0.0594 Uani
C2RA C 0.31957(13) 0.69296(14) 0.24520(13) 0.0437 Uani
C1RA C 0.34839(15) 0.67791(15) 0.28683(14) 0.0490 Uani
O1RA O 0.33871(14) 0.63867(12) 0.30290(13) 0.0728 Uani
O2RA O 0.37918(12) 0.70471(11) 0.30173(11) 0.0594 Uani
C3RA C 0.28083(14) 0.66713(13) 0.23189(13) 0.0436 Uani
C2KA C 0.25480(13) 0.68043(13) 0.19296(14) 0.0437 Uani
C1KA C 0.21317(14) 0.65161(15) 0.17791(15) 0.0490 Uani
O1KA O 0.19710(13) 0.66129(14) 0.13867(12) 0.0728 Uani
O2KA O 0.19827(11) 0.62082(12) 0.20471(11) 0.0594 Uani
C3KA C 0.26811(13) 0.71917(14) 0.16713(13) 0.0436 Uani
H1KA H 0.2507 0.7280 0.1403 0.0520 Uiso
H1RA H 0.2720 0.6403 0.2493 0.0520 Uiso
Ni1I Ni 0.65303(2) 0.8750 -0.09697(2) 0.0587 Uani
Ni1W Ni 0.6250 1.09697(2) 0.15303(2) 0.0587 Uani
C6I C 0.7495(2) 0.9106(4) -0.0759(2) 0.1033 Uani
H2I H 0.7590 0.8791 -0.0803 0.1240 Uiso
C7I C 0.7831(3) 0.9454(6) -0.0643(3) 0.1453 Uani
H3I H 0.8145 0.9359 -0.0592 0.1750 Uiso
C8I C 0.7729(4) 0.9899(5) -0.0605(3) 0.1327 Uani
H4I H 0.7968 1.0124 -0.0551 0.1590 Uiso
C9I C 0.7270(4) 1.0033(4) -0.0645(3) 0.1410 Uani
H5I H 0.7175 1.0349 -0.0606 0.1690 Uiso
C10I C 0.6942(2) 0.9669(3) -0.0747(2) 0.0923 Uani
H6I H 0.6622 0.9754 -0.0777 0.1110 Uiso
N1I N 0.70514(16) 0.9223(2) -0.08045(15) 0.0743 Uani
C6SA C 0.6741(2) 0.8394(4) -0.0005(2) 0.1033 Uani
H2SA H 0.6697 0.8709 0.0090 0.1240 Uiso
C7SA C 0.6857(3) 0.8046(6) 0.0331(3) 0.1453 Uani
H3SA H 0.6908 0.8141 0.0645 0.1750 Uiso
C8SA C 0.6895(3) 0.7601(5) 0.0229(4) 0.1327 Uani
H4SA H 0.6949 0.7376 0.0468 0.1590 Uiso
C9SA C 0.6855(3) 0.7467(4) -0.0230(4) 0.1410 Uani
H5SA H 0.6894 0.7151 -0.0325 0.1690 Uiso
C10SA C 0.6753(2) 0.7831(3) -0.0558(2) 0.0923 Uani
H6SA H 0.6723 0.7746 -0.0878 0.1110 Uiso
N1SA N 0.66955(15) 0.8277(2) -0.04486(16) 0.0743 Uani
C4I C 0.5838(5) 0.8482(3) -0.1639(4) 0.0960 Uiso
C5I C 0.5426(9) 0.8180(11) -0.1788(11) 0.1190 Uiso
O3I O 0.59709(13) 0.83245(15) -0.11666(14) 0.0767 Uani
H7I H 0.5731(15) 0.839(3) -0.102(2) 0.1150 Uiso
O4I O 0.5050(7) 0.8285(11) -0.1491(11) 0.1550 Uiso
C4SA C 0.5861(4) 0.9018(3) -0.1662(5) 0.0960 Uiso
C5SA C 0.5712(11) 0.9320(11) -0.2074(9) 0.1190 Uiso
O4SA O 0.6009(11) 0.9215(11) -0.2450(7) 0.1550 Uiso
O3SA O 0.63334(14) 0.91755(15) -0.15291(13) 0.0767 Uani
H7SA H 0.648(2) 0.911(3) -0.1769(15) 0.1150 Uiso
C6W C 0.5894(4) 1.0759(2) 0.2495(2) 0.1033 Uani
H2W H 0.6209 1.0803 0.2590 0.1240 Uiso
C7W C 0.5546(6) 1.0643(3) 0.2831(3) 0.1453 Uani
H3W H 0.5641 1.0592 0.3145 0.1750 Uiso
C8W C 0.5101(5) 1.0605(3) 0.2729(4) 0.1327 Uani
H4W H 0.4876 1.0551 0.2968 0.1590 Uiso
C9W C 0.4967(4) 1.0645(3) 0.2270(4) 0.1410 Uani
H5W H 0.4651 1.0606 0.2175 0.1690 Uiso
C10W C 0.5331(3) 1.0747(2) 0.1942(2) 0.0923 Uani
H6W H 0.5246 1.0777 0.1622 0.1110 Uiso
N1W N 0.5777(2) 1.08045(15) 0.20514(16) 0.0743 Uani
C6BA C 0.6606(4) 1.0005(2) 0.1741(2) 0.1033 Uani
H2BA H 0.6291 0.9910 0.1697 0.1240 Uiso
C7BA C 0.6954(6) 0.9669(3) 0.1857(3) 0.1453 Uani
H3BA H 0.6859 0.9355 0.1908 0.1750 Uiso
C8BA C 0.7399(5) 0.9771(4) 0.1895(3) 0.1327 Uani
H4BA H 0.7624 0.9532 0.1949 0.1590 Uiso
C9BA C 0.7533(4) 1.0230(4) 0.1855(3) 0.1410 Uani
H5BA H 0.7849 1.0325 0.1894 0.1690 Uiso
C10BA C 0.7169(3) 1.0558(2) 0.1753(2) 0.0923 Uani
H6BA H 0.7254 1.0878 0.1723 0.1110 Uiso
N1BA N 0.6723(2) 1.04486(16) 0.16955(15) 0.0743 Uani
C4W C 0.6518(3) 1.1639(4) 0.0838(5) 0.0960 Uiso
C5W C 0.6820(11) 1.1788(11) 0.0426(9) 0.1190 Uiso
O3W O 0.66755(15) 1.11666(14) 0.09709(13) 0.0767 Uani
H7W H 0.661(3) 1.102(2) 0.0731(15) 0.1150 Uiso
O4W O 0.6715(11) 1.1491(11) 0.0050(7) 0.1550 Uiso
C4BA C 0.5982(3) 1.1662(5) 0.0861(4) 0.0960 Uiso
C5BA C 0.5680(11) 1.2074(9) 0.0712(11) 0.1190 Uiso
O4BA O 0.5785(11) 1.2450(7) 0.1009(11) 0.1550 Uiso
O3BA O 0.58245(15) 1.15291(13) 0.13334(14) 0.0767 Uani
H7BA H 0.589(3) 1.1769(15) 0.148(2) 0.1150 Uiso
Ni1J Ni 0.3750 0.59697(2) 0.34697(2) 0.0587 Uani
Ni1N Ni 0.15303(2) 0.6250 0.09697(2) 0.0587 Uani
O1SA O 0.69710(13) 0.83871(14) -0.13867(12) 0.0728 Uani
O1BA O 0.66129(14) 1.13867(12) 0.19710(13) 0.0728 Uani
C11 C 0.4132(18) 1.047(2) 0.0796(11) 0.5800 Uiso
O5 O 0.4322(5) 1.0489(6) 0.1257(6) 0.2420 Uiso
loop_
_atom_site_aniso_label
_atom_site_aniso_U_11
_atom_site_aniso_U_22
_atom_site_aniso_U_33
_atom_site_aniso_U_23
_atom_site_aniso_U_13
_atom_site_aniso_U_12
C1 0.047(2) 0.047(2) 0.053(2) -0.0037(17) 0.0078(18) -0.0044(16)
C2 0.041(2) 0.042(2) 0.048(2) 0.0026(16) 0.0052(15) -0.0033(14)
C3 0.0408(19) 0.043(2) 0.047(2) -0.0004(14) 0.0006(15) -0.0044(15)
C6 0.084(4) 0.048(3) 0.178(8) -0.013(4) -0.039(5) 0.009(3)
C7 0.079(5) 0.074(5) 0.283(16) -0.065(8) -0.063(8) 0.032(4)
C8 0.077(5) 0.105(7) 0.216(12) -0.091(8) -0.036(7) 0.016(4)
C9 0.068(4) 0.160(9) 0.195(10) -0.117(8) 0.004(5) -0.013(5)
C10 0.065(3) 0.067(3) 0.145(7) -0.035(4) 0.006(4) -0.011(3)
N1 0.050(2) 0.060(3) 0.113(4) -0.017(2) -0.002(2) -0.0052(18)
O1 0.072(2) 0.0553(19) 0.091(3) -0.0166(17) 0.0349(19) -0.0165(16)
O2 0.0573(18) 0.0535(17) 0.0674(19) -0.0091(14) 0.0225(15) -0.0063(13)
O3 0.071(2) 0.069(2) 0.090(3) 0.007(2) 0.0361(19) -0.0002(17)
Ni1 0.0439(3) 0.0439(3) 0.0882(7) 0.0096(3) 0.0096(3) -0.0026(3)
C2I 0.042 0.048 0.041 -0.0052 0.0033 0.0026
C1I 0.047 0.053 0.047 -0.0078 0.0044 -0.0037
O1I 0.0553 0.091 0.072 -0.0349 0.0165 -0.0166
O2I 0.0535 0.0674 0.0573 -0.0225 0.0063 -0.0091
C3I 0.043 0.047 0.0408 -0.0006 0.0044 -0.0004
C2W 0.048 0.041 0.042 -0.0033 -0.0026 -0.0052
C1W 0.053 0.047 0.047 -0.0044 0.0037 -0.0078
O1W 0.091 0.072 0.0553 -0.0165 0.0166 -0.0349
O2W 0.0674 0.0573 0.0535 -0.0063 0.0091 -0.0225
C3W 0.047 0.0408 0.043 -0.0044 0.0004 -0.0006
O3OA 0.069 0.071 0.09 0.0361 0.007 -0.0002
C6OA 0.048 0.084 0.178 -0.039 -0.013 0.009
C7OA 0.074 0.079 0.283 -0.063 -0.065 0.032
C8OA 0.105 0.077 0.216 -0.036 -0.091 0.016
C9OA 0.16 0.068 0.195 0.004 -0.117 -0.013
C10OA 0.067 0.065 0.145 0.006 -0.035 -0.011
N1OA 0.06 0.05 0.113 -0.002 -0.017 -0.0052
C1OA 0.047 0.047 0.053 0.0078 -0.0037 -0.0044
C2OA 0.042 0.041 0.048 0.0052 0.0026 -0.0033
C3OA 0.043 0.0408 0.047 0.0006 -0.0004 -0.0044
O1OA 0.0553 0.072 0.091 0.0349 -0.0166 -0.0165
O2OA 0.0535 0.0573 0.0674 0.0225 -0.0091 -0.0063
C2RA 0.048 0.042 0.041 0.0033 -0.0052 0.0026
C1RA 0.053 0.047 0.047 0.0044 -0.0078 -0.0037
O1RA 0.091 0.0553 0.072 0.0165 -0.0349 -0.0166
O2RA 0.0674 0.0535 0.0573 0.0063 -0.0225 -0.0091
C3RA 0.047 0.043 0.0408 0.0044 -0.0006 -0.0004
C2KA 0.041 0.048 0.042 -0.0026 -0.0033 -0.0052
C1KA 0.047 0.053 0.047 0.0037 -0.0044 -0.0078
O1KA 0.072 0.091 0.0553 0.0166 -0.0165 -0.0349
O2KA 0.0573 0.0674 0.0535 0.0091 -0.0063 -0.0225
C3KA 0.0408 0.047 0.043 0.0004 -0.0044 -0.0006
Ni1I 0.0439 0.0882 0.0439 -0.0096 0.0026 0.0096
Ni1W 0.0882 0.0439 0.0439 -0.0026 -0.0096 -0.0096
C6I 0.048 0.178 0.084 0.039 -0.009 -0.013
C7I 0.074 0.283 0.079 0.063 -0.032 -0.065
C8I 0.105 0.216 0.077 0.036 -0.016 -0.091
C9I 0.16 0.195 0.068 -0.004 0.013 -0.117
C10I 0.067 0.145 0.065 -0.006 0.011 -0.035
N1I 0.06 0.113 0.05 0.002 0.0052 -0.017
C6SA 0.084 0.178 0.048 0.013 -0.009 -0.039
C7SA 0.079 0.283 0.074 0.065 -0.032 -0.063
C8SA 0.077 0.216 0.105 0.091 -0.016 -0.036
C9SA 0.068 0.195 0.16 0.117 0.013 0.004
C10SA 0.065 0.145 0.067 0.035 0.011 0.006
N1SA 0.05 0.113 0.06 0.017 0.0052 -0.002
O3I 0.069 0.09 0.071 -0.0361 0.0002 0.007
O3SA 0.071 0.09 0.069 -0.007 0.0002 0.0361
C6W 0.178 0.084 0.048 0.009 0.013 0.039
C7W 0.283 0.079 0.074 0.032 0.065 0.063
C8W 0.216 0.077 0.105 0.016 0.091 0.036
C9W 0.195 0.068 0.16 -0.013 0.117 -0.004
C10W 0.145 0.065 0.067 -0.011 0.035 -0.006
N1W 0.113 0.05 0.06 -0.0052 0.017 0.002
C6BA 0.178 0.048 0.084 0.009 0.039 0.013
C7BA 0.283 0.074 0.079 0.032 0.063 0.065
C8BA 0.216 0.105 0.077 0.016 0.036 0.091
C9BA 0.195 0.16 0.068 -0.013 -0.004 0.117
C10BA 0.145 0.067 0.065 -0.011 -0.006 0.035
N1BA 0.113 0.06 0.05 -0.0052 0.002 0.017
O3W 0.09 0.071 0.069 -0.0002 -0.007 -0.0361
O3BA 0.09 0.069 0.071 -0.0002 -0.0361 -0.007
Ni1J 0.0882 0.0439 0.0439 0.0026 -0.0096 0.0096
Ni1N 0.0439 0.0882 0.0439 -0.0096 -0.0026 -0.0096
O1SA 0.072 0.091 0.0553 0.0166 0.0165 0.0349
O1BA 0.091 0.0553 0.072 -0.0165 -0.0349 0.0166
loop_
_geom_bond_atom_site_label_1
_geom_bond_atom_site_label_2
_geom_bond_site_symmetry_1
_geom_bond_site_symmetry_2
C1 C2 1_555 1_555
C2 C3 1_555 1_555
C3 H1 1_555 1_555
C4 C5 1_555 1_555
C5 O4 1_555 1_555
C6 H2 1_555 1_555
C7 C6 1_555 1_555
H3 C7 1_555 1_555
C8 C7 1_555 1_555
H4 C8 1_555 1_555
C9 C8 1_555 1_555
H5 C9 1_555 1_555
C10 C9 1_555 1_555
H6 C10 1_555 1_555
N1 C6 1_555 1_555
O1 C1 1_555 1_555
O2 C1 1_555 1_555
O3 C4 1_555 1_555
H7 O3 1_555 1_555
Ni1 N1 1_555 1_555
C11 O5 1_555 1_555
C2I C3 1_555 1_555
C1I C2I 1_555 1_555
O1I C1I 1_555 1_555
O2I C1I 1_555 1_555
C3I C2I 1_555 1_555
C2W C3I 1_555 1_555
C1W C2W 1_555 1_555
O1W C1W 1_555 1_555
O2W C1W 1_555 1_555
C3W C2 1_555 1_555
H1W C3W 1_555 1_555
H1I C3I 1_555 1_555
C4OA C4 1_555 1_555
C5OA C4OA 1_555 1_555
O4OA C5OA 1_555 1_555
O3OA Ni1 1_555 1_555
H7OA O3OA 1_555 1_555
C6OA H2OA 1_555 1_555
C7OA C6OA 1_555 1_555
H3OA C7OA 1_555 1_555
C8OA C7OA 1_555 1_555
H4OA C8OA 1_555 1_555
C9OA C8OA 1_555 1_555
H5OA C9OA 1_555 1_555
C10OA C9OA 1_555 1_555
H6OA C10OA 1_555 1_555
N1OA Ni1 1_555 1_555
C1OA C2OA 1_555 1_555
C2OA C3OA 1_555 1_555
C3OA H1OA 1_555 1_555
O1OA Ni1 1_555 1_555
O2OA C1OA 1_555 1_555
C2RA C3OA 1_555 1_555
C1RA C2RA 1_555 1_555
O1RA C1RA 1_555 1_555
O2RA C1RA 1_555 1_555
C3RA C2RA 1_555 1_555
C2KA C3RA 1_555 1_555
C1KA C2KA 1_555 1_555
O1KA C1KA 1_555 1_555
O2KA C1KA 1_555 1_555
C3KA C2OA 1_555 1_555
H1KA C3KA 1_555 1_555
H1RA C3RA 1_555 1_555
Ni1I O1I 1_555 1_555
Ni1W O1W 1_555 1_555
C6I H2I 1_555 1_555
C7I C6I 1_555 1_555
H3I C7I 1_555 1_555
C8I C7I 1_555 1_555
H4I C8I 1_555 1_555
C9I C8I 1_555 1_555
H5I C9I 1_555 1_555
C10I C9I 1_555 1_555
H6I C10I 1_555 1_555
N1I Ni1I 1_555 1_555
C6SA H2SA 1_555 1_555
C7SA C6SA 1_555 1_555
H3SA C7SA 1_555 1_555
C8SA C7SA 1_555 1_555
H4SA C8SA 1_555 1_555
C9SA C8SA 1_555 1_555
H5SA C9SA 1_555 1_555
C10SA C9SA 1_555 1_555
H6SA C10SA 1_555 1_555
N1SA Ni1I 1_555 1_555
C4I C5I 1_555 1_555
C5I O4I 1_555 1_555
O3I Ni1I 1_555 1_555
H7I O3I 1_555 1_555
C4SA C4I 1_555 1_555
C5SA C4SA 1_555 1_555
O4SA C5SA 1_555 1_555
O3SA Ni1I 1_555 1_555
H7SA O3SA 1_555 1_555
C6W H2W 1_555 1_555
C7W C6W 1_555 1_555
H3W C7W 1_555 1_555
C8W C7W 1_555 1_555
H4W C8W 1_555 1_555
C9W C8W 1_555 1_555
H5W C9W 1_555 1_555
C10W C9W 1_555 1_555
H6W C10W 1_555 1_555
N1W Ni1W 1_555 1_555
C6BA H2BA 1_555 1_555
C7BA C6BA 1_555 1_555
H3BA C7BA 1_555 1_555
C8BA C7BA 1_555 1_555
H4BA C8BA 1_555 1_555
C9BA C8BA 1_555 1_555
H5BA C9BA 1_555 1_555
C10BA C9BA 1_555 1_555
H6BA C10BA 1_555 1_555
N1BA Ni1W 1_555 1_555
C4W C5W 1_555 1_555
C5W O4W 1_555 1_555
O3W Ni1W 1_555 1_555
H7W O3W 1_555 1_555
C4BA C4W 1_555 1_555
C5BA C4BA 1_555 1_555
O4BA C5BA 1_555 1_555
O3BA Ni1W 1_555 1_555
H7BA O3BA 1_555 1_555
Ni1J O1RA 1_555 1_555
Ni1N O1KA 1_555 1_555
O1SA Ni1I 1_555 1_555
O1BA Ni1W 1_555 1_555
C10 N1 1_555 1_555
O1 Ni1 1_555 1_555
O3 Ni1 1_555 1_555
C2W C3W 1_555 1_555
C4OA O3OA 1_555 1_555
C6OA N1OA 1_555 1_555
C10OA N1OA 1_555 1_555
C1OA O1OA 1_555 1_555
C2KA C3KA 1_555 1_555
C6I N1I 1_555 1_555
C10I N1I 1_555 1_555
C6SA N1SA 1_555 1_555
C10SA N1SA 1_555 1_555
C4I O3I 1_555 1_555
C4SA O3SA 1_555 1_555
C6W N1W 1_555 1_555
C10W N1W 1_555 1_555
C6BA N1BA 1_555 1_555
C10BA N1BA 1_555 1_555
C4W O3W 1_555 1_555
C4BA O3BA 1_555 1_555

#END
