
#######################################################################
#
#                 Cambridge Crystallographic Data Centre
#                                CCDC 
#
#######################################################################
#
# If this CIF has been generated from an entry in the Cambridge 
# Structural Database, then it will include bibliographic, chemical, 
# crystal, experimental, refinement or atomic coordinate data resulting 
# from the CCDC's data processing and validation procedures.
#
#######################################################################

data_HUYKER
_chemical_formula_moiety         '(C61 H66 N6 Ni3 O19)n'
_symmetry_cell_setting           cubic
_symmetry_space_group_name_H-M   'I 41 3 2'
_symmetry_Int_Tables_number      214
_space_group_name_Hall           'I 4bd 2c 3'
loop_
_symmetry_equiv_pos_site_id
_symmetry_equiv_pos_as_xyz
1 x,y,z
2 y,z,x
3 z,x,y
4 1/4-y,3/4+x,1/4+z
5 1/4-z,3/4+y,1/4+x
6 1/4-x,3/4+z,1/4+y
7 1/2-x,-y,1/2+z
8 -z,1/2+x,1/2-y
9 -x,1/2+y,1/2-z
10 1/2-y,-z,1/2+x
11 1/2-z,-x,1/2+y
12 1/4+y,1/4-x,3/4+z
13 1/4+z,1/4-y,3/4+x
14 1/4+x,1/4-z,3/4+y
15 -y,1/2+z,1/2-x
16 3/4-z,3/4-y,3/4-x
17 3/4-x,3/4-z,3/4-y
18 3/4-y,3/4-x,3/4-z
19 1/2+y,1/2-z,-x
20 3/4+y,1/4+x,1/4-z
21 3/4+z,1/4+y,1/4-x
22 3/4+x,1/4+z,1/4-y
23 1/2+x,1/2-y,-z
24 1/2+z,1/2-x,-y
25 1/2+x,1/2+y,1/2+z
26 1/2+y,1/2+z,1/2+x
27 1/2+z,1/2+x,1/2+y
28 3/4-y,1/4+x,3/4+z
29 3/4-z,1/4+y,3/4+x
30 3/4-x,1/4+z,3/4+y
31 -x,1/2-y,z
32 1/2-z,x,-y
33 1/2-x,y,-z
34 -y,1/2-z,x
35 -z,1/2-x,y
36 3/4+y,3/4-x,1/4+z
37 3/4+z,3/4-y,1/4+x
38 3/4+x,3/4-z,1/4+y
39 1/2-y,z,-x
40 1/4-z,1/4-y,1/4-x
41 1/4-x,1/4-z,1/4-y
42 1/4-y,1/4-x,1/4-z
43 y,-z,1/2-x
44 1/4+y,3/4+x,3/4-z
45 1/4+z,3/4+y,3/4-x
46 1/4+x,3/4+z,3/4-y
47 x,-y,1/2-z
48 z,-x,1/2-y
_cell_length_a                   28.400(4)
_cell_length_b                   28.400(4)
_cell_length_c                   28.400(4)
_cell_angle_alpha                90
_cell_angle_beta                 90
_cell_angle_gamma                90
_cell_volume                     22906.3
loop_
_atom_site_label
_atom_site_type_symbol
_atom_site_fract_x
_atom_site_fract_y
_atom_site_fract_z
_atom_site_U_iso_or_equiv
_atom_site_thermal_displace_type
C12 C 0.427(2) 1.0609(19) 0.0694(10) 0.5500 Uiso
O4 O 0.4305(7) 1.0574(7) 0.1196(7) 0.2820 Uiso
C1 C 0.4625(2) 0.9306(2) 0.0989(2) 0.0633 Uani
C2 C 0.5043(2) 0.9445(2) 0.06950(19) 0.0543 Uani
C3 C 0.51678(19) 0.91789(19) 0.03078(19) 0.0527 Uani
H1 H 0.4988 0.8910 0.0224 0.0630 Uiso
C4 C 0.3335(4) 0.9245(4) 0.1522(5) 0.1497 Uani
C5 C 0.2966(10) 0.9060(11) 0.1804(11) 0.1780 Uiso
H2 H 0.2909 0.8731 0.1717 0.2670 Uiso
H3 H 0.2679 0.9244 0.1753 0.2670 Uiso
H4 H 0.3056 0.9077 0.2136 0.2670 Uiso
C7 C 0.4220(3) 0.7531(3) 0.0894(4) 0.1150 Uani
H8 H 0.4178 0.7445 0.1215 0.1380 Uiso
C8 C 0.4338(3) 0.7198(4) 0.0578(6) 0.1197 Uani
H9 H 0.4385 0.6886 0.0689 0.1440 Uiso
C9 C 0.4391(3) 0.7275(5) 0.0148(7) 0.1400 Uani
H10 H 0.4465 0.7029 -0.0067 0.1680 Uiso
C10 C 0.4336(3) 0.7735(5) 0.0001(4) 0.1223 Uani
H11 H 0.4378 0.7811 -0.0323 0.1470 Uiso
C11 C 0.4221(3) 0.8087(3) 0.0315(3) 0.0920 Uani
H12 H 0.4186 0.8403 0.0209 0.1100 Uiso
N1 N 0.41613(18) 0.79813(19) 0.0765(3) 0.0783 Uani
O1 O 0.44338(15) 0.89196(15) 0.08802(16) 0.0777 Uani
O2 O 0.44844(16) 0.95751(14) 0.13087(16) 0.0710 Uani
O3 O 0.37847(17) 0.90876(16) 0.16664(19) 0.0903 Uani
H13 H 0.3992 0.9206 0.1491 0.1360 Uiso
Ni1 Ni 0.39900(3) 0.85100(3) 0.1250 0.0668 Uani
C2I C 0.5555(2) 0.93050(19) 0.0043(2) 0.0543 Uani
C1I C 0.5694(2) 0.9011(2) -0.0375(2) 0.0633 Uani
O1I O 0.60804(15) 0.91198(16) -0.05662(15) 0.0777 Uani
O2I O 0.54249(14) 0.86913(16) -0.05156(16) 0.0710 Uani
C3I C 0.58211(19) 0.96922(19) 0.01678(19) 0.0527 Uani
C2W C 0.56950(19) 0.9957(2) 0.0555(2) 0.0543 Uani
C1W C 0.5989(2) 1.0375(2) 0.0694(2) 0.0633 Uani
O1W O 0.58802(16) 1.05662(15) 0.10804(15) 0.0777 Uani
O2W O 0.63087(16) 1.05156(16) 0.04249(14) 0.0710 Uani
C3W C 0.53078(19) 0.98322(19) 0.08211(19) 0.0527 Uani
H1W H 0.5224 1.0012 0.1090 0.0630 Uiso
H1I H 0.6090 0.9776 -0.0012 0.0630 Uiso
C4OA C 0.3255(4) 0.9165(4) 0.0978(5) 0.1497 Uani
C5OA C 0.3440(11) 0.9534(10) 0.0696(11) 0.1780 Uiso
H2OA H 0.3769 0.9591 0.0783 0.2670 Uiso
H3OA H 0.3256 0.9821 0.0747 0.2670 Uiso
H4OA H 0.3423 0.9444 0.0364 0.2670 Uiso
O3OA O 0.34124(16) 0.87153(17) 0.08336(19) 0.0903 Uani
H13OA H 0.3294 0.8508 0.1009 0.1360 Uiso
C7OA C 0.4969(3) 0.8280(3) 0.1606(4) 0.1150 Uani
H8OA H 0.5055 0.8322 0.1285 0.1380 Uiso
C8OA C 0.5302(4) 0.8162(3) 0.1922(6) 0.1197 Uani
H9OA H 0.5614 0.8115 0.1811 0.1440 Uiso
C9OA C 0.5225(5) 0.8109(3) 0.2352(7) 0.1400 Uani
H10OA H 0.5471 0.8035 0.2567 0.1680 Uiso
C10OA C 0.4765(5) 0.8164(3) 0.2499(4) 0.1223 Uani
H11OA H 0.4689 0.8122 0.2823 0.1470 Uiso
C11OA C 0.4413(3) 0.8279(3) 0.2185(3) 0.0920 Uani
H12OA H 0.4097 0.8314 0.2291 0.1100 Uiso
N1OA N 0.45187(19) 0.83387(18) 0.1735(3) 0.0783 Uani
C1OA C 0.3194(2) 0.7875(2) 0.1511(2) 0.0633 Uani
C2OA C 0.3055(2) 0.7457(2) 0.18050(19) 0.0543 Uani
C3OA C 0.33211(19) 0.73322(19) 0.21922(19) 0.0527 Uani
H1OA H 0.3590 0.7512 0.2276 0.0630 Uiso
O1OA O 0.35804(15) 0.80662(15) 0.16198(16) 0.0777 Uani
O2OA O 0.29249(14) 0.80156(16) 0.11913(16) 0.0710 Uani
C2RA C 0.31950(19) 0.6945(2) 0.2457(2) 0.0543 Uani
C1RA C 0.3489(2) 0.6806(2) 0.2875(2) 0.0633 Uani
O1RA O 0.33802(16) 0.64196(15) 0.30662(15) 0.0777 Uani
O2RA O 0.38087(16) 0.70751(14) 0.30156(16) 0.0710 Uani
C3RA C 0.28078(19) 0.66789(19) 0.23322(19) 0.0527 Uani
C2KA C 0.2543(2) 0.68050(19) 0.1945(2) 0.0543 Uani
C1KA C 0.2125(2) 0.6511(2) 0.1806(2) 0.0633 Uani
O1KA O 0.19338(15) 0.66198(16) 0.14196(15) 0.0777 Uani
O2KA O 0.19844(16) 0.61913(16) 0.20751(14) 0.0710 Uani
C3KA C 0.26678(19) 0.71922(19) 0.16789(19) 0.0527 Uani
H1KA H 0.2488 0.7276 0.1410 0.0630 Uiso
H1RA H 0.2724 0.6410 0.2512 0.0630 Uiso
Ni1I Ni 0.64900(3) 0.8750 -0.10100(3) 0.0668 Uani
Ni1W Ni 0.6250 1.10100(3) 0.14900(3) 0.0668 Uani
C7I C 0.7469(3) 0.9106(4) -0.0780(3) 0.1150 Uani
H8I H 0.7555 0.8785 -0.0822 0.1380 Uiso
C8I C 0.7802(4) 0.9422(6) -0.0662(3) 0.1197 Uani
H9I H 0.8114 0.9311 -0.0615 0.1440 Uiso
C9I C 0.7725(5) 0.9852(7) -0.0609(3) 0.1400 Uani
H10I H 0.7971 1.0067 -0.0535 0.1680 Uiso
C10I C 0.7265(5) 0.9999(4) -0.0664(3) 0.1223 Uani
H11I H 0.7189 1.0323 -0.0622 0.1470 Uiso
C11I C 0.6913(3) 0.9685(3) -0.0779(3) 0.0920 Uani
H12I H 0.6597 0.9791 -0.0814 0.1100 Uiso
N1I N 0.70187(19) 0.9235(3) -0.08387(18) 0.0783 Uani
C7SA C 0.6720(3) 0.8394(4) -0.0031(3) 0.1150 Uani
H8SA H 0.6678 0.8715 0.0055 0.1380 Uiso
C8SA C 0.6838(3) 0.8078(6) 0.0302(4) 0.1197 Uani
H9SA H 0.6885 0.8189 0.0614 0.1440 Uiso
C9SA C 0.6891(3) 0.7648(7) 0.0225(5) 0.1400 Uani
H10SA H 0.6965 0.7433 0.0471 0.1680 Uiso
C10SA C 0.6836(3) 0.7501(4) -0.0235(5) 0.1223 Uani
H11SA H 0.6878 0.7177 -0.0311 0.1470 Uiso
C11SA C 0.6721(3) 0.7815(3) -0.0587(3) 0.0920 Uani
H12SA H 0.6686 0.7709 -0.0903 0.1100 Uiso
N1SA N 0.66613(18) 0.8265(3) -0.04813(19) 0.0783 Uani
C4I C 0.5755(4) 0.8478(5) -0.1665(4) 0.1497 Uani
C5I C 0.5940(11) 0.8196(11) -0.2034(10) 0.1780 Uiso
H2I H 0.6269 0.8283 -0.2091 0.2670 Uiso
H3I H 0.5756 0.8247 -0.2321 0.2670 Uiso
H4I H 0.5923 0.7864 -0.1944 0.2670 Uiso
O3I O 0.59124(16) 0.83336(19) -0.12153(17) 0.0903 Uani
H13I H 0.5794 0.8509 -0.1008 0.1360 Uiso
C4SA C 0.5835(4) 0.9022(5) -0.1745(4) 0.1497 Uani
C5SA C 0.5466(10) 0.9304(11) -0.1560(11) 0.1780 Uiso
H2SA H 0.5409 0.9217 -0.1231 0.2670 Uiso
H3SA H 0.5179 0.9253 -0.1744 0.2670 Uiso
H4SA H 0.5556 0.9636 -0.1577 0.2670 Uiso
O3SA O 0.62847(17) 0.91664(19) -0.15876(16) 0.0903 Uani
H13SA H 0.6492 0.8991 -0.1706 0.1360 Uiso
C7W C 0.5894(4) 1.0780(3) 0.2469(3) 0.1150 Uani
H8W H 0.6215 1.0822 0.2555 0.1380 Uiso
C8W C 0.5578(6) 1.0662(3) 0.2802(4) 0.1197 Uani
H9W H 0.5689 1.0615 0.3114 0.1440 Uiso
C9W C 0.5148(7) 1.0609(3) 0.2725(5) 0.1400 Uani
H10W H 0.4933 1.0535 0.2971 0.1680 Uiso
C10W C 0.5001(4) 1.0664(3) 0.2265(5) 0.1223 Uani
H11W H 0.4677 1.0622 0.2189 0.1470 Uiso
C11W C 0.5315(3) 1.0779(3) 0.1913(3) 0.0920 Uani
H12W H 0.5209 1.0814 0.1597 0.1100 Uiso
N1W N 0.5765(3) 1.08387(18) 0.20187(19) 0.0783 Uani
C7BA C 0.6606(4) 1.0031(3) 0.1720(3) 0.1150 Uani
H8BA H 0.6285 0.9945 0.1678 0.1380 Uiso
C8BA C 0.6922(6) 0.9698(4) 0.1838(3) 0.1197 Uani
H9BA H 0.6811 0.9386 0.1885 0.1440 Uiso
C9BA C 0.7352(7) 0.9775(5) 0.1891(3) 0.1400 Uani
H10BA H 0.7567 0.9529 0.1965 0.1680 Uiso
C10BA C 0.7499(4) 1.0235(5) 0.1836(3) 0.1223 Uani
H11BA H 0.7823 1.0311 0.1878 0.1470 Uiso
C11BA C 0.7185(3) 1.0587(3) 0.1721(3) 0.0920 Uani
H12BA H 0.7291 1.0903 0.1686 0.1100 Uiso
N1BA N 0.6735(3) 1.04813(19) 0.16613(18) 0.0783 Uani
C4W C 0.6522(5) 1.1665(4) 0.0755(4) 0.1497 Uani
C5W C 0.6804(11) 1.2034(10) 0.0940(11) 0.1780 Uiso
H2W H 0.6717 1.2091 0.1269 0.2670 Uiso
H3W H 0.6753 1.2321 0.0756 0.2670 Uiso
H4W H 0.7136 1.1944 0.0923 0.2670 Uiso
O3W O 0.66664(19) 1.12153(17) 0.09124(16) 0.0903 Uani
H13W H 0.6491 1.1008 0.0794 0.1360 Uiso
C4BA C 0.5978(5) 1.1745(4) 0.0835(4) 0.1497 Uani
C5BA C 0.5696(11) 1.1560(11) 0.0466(10) 0.1780 Uiso
H2BA H 0.5783 1.1231 0.0409 0.2670 Uiso
H3BA H 0.5747 1.1744 0.0179 0.2670 Uiso
H4BA H 0.5364 1.1577 0.0556 0.2670 Uiso
O3BA O 0.58336(19) 1.15876(16) 0.12847(17) 0.0903 Uani
H13BA H 0.6009 1.1706 0.1492 0.1360 Uiso
Ni1J Ni 0.3750 0.60100(3) 0.35100(3) 0.0668 Uani
Ni1N Ni 0.14900(3) 0.6250 0.10100(3) 0.0668 Uani
O1SA O 0.69338(15) 0.83802(16) -0.14196(15) 0.0777 Uani
O1BA O 0.66198(16) 1.14196(15) 0.19338(15) 0.0777 Uani
loop_
_atom_site_aniso_label
_atom_site_aniso_U_11
_atom_site_aniso_U_22
_atom_site_aniso_U_33
_atom_site_aniso_U_23
_atom_site_aniso_U_13
_atom_site_aniso_U_12
C1 0.072(4) 0.055(4) 0.063(4) 0.000(3) 0.010(3) -0.001(3)
C2 0.052(3) 0.055(3) 0.056(3) 0.007(3) 0.001(2) 0.001(3)
C3 0.054(3) 0.046(3) 0.058(3) -0.004(2) 0.003(3) 0.001(2)
C4 0.112(8) 0.112(8) 0.225(13) -0.034(9) 0.053(8) 0.004(6)
C7 0.076(5) 0.063(5) 0.206(10) -0.025(6) -0.050(6) 0.014(4)
C8 0.080(6) 0.088(6) 0.191(12) -0.050(8) -0.035(7) 0.018(4)
C9 0.053(5) 0.123(10) 0.244(17) -0.096(12) -0.025(7) 0.010(5)
C10 0.066(5) 0.161(10) 0.140(8) -0.067(8) 0.014(5) -0.022(6)
C11 0.084(5) 0.081(5) 0.111(6) -0.023(5) 0.011(5) -0.018(4)
N1 0.054(3) 0.058(3) 0.123(6) -0.005(3) -0.007(3) -0.006(2)
O1 0.083(3) 0.059(3) 0.091(3) -0.015(2) 0.031(2) -0.020(2)
O2 0.077(3) 0.065(3) 0.071(3) -0.007(2) 0.024(2) -0.011(2)
O3 0.080(3) 0.079(3) 0.112(4) 0.007(3) 0.046(3) 0.008(2)
Ni1 0.0554(5) 0.0554(5) 0.0895(9) 0.0103(4) 0.0103(4) -0.0027(5)
C2I 0.055 0.056 0.052 -0.001 -0.001 0.007
C1I 0.055 0.063 0.072 -0.01 0.001 0
O1I 0.059 0.091 0.083 -0.031 0.02 -0.015
O2I 0.065 0.071 0.077 -0.024 0.011 -0.007
C3I 0.046 0.058 0.054 -0.003 -0.001 -0.004
C2W 0.056 0.052 0.055 0.001 -0.007 -0.001
C1W 0.063 0.072 0.055 -0.001 0 -0.01
O1W 0.091 0.083 0.059 -0.02 0.015 -0.031
O2W 0.071 0.077 0.065 -0.011 0.007 -0.024
C3W 0.058 0.054 0.046 0.001 0.004 -0.003
C4OA 0.112 0.112 0.225 0.053 -0.034 0.004
O3OA 0.079 0.08 0.112 0.046 0.007 0.008
C7OA 0.063 0.076 0.206 -0.05 -0.025 0.014
C8OA 0.088 0.08 0.191 -0.035 -0.05 0.018
C9OA 0.123 0.053 0.244 -0.025 -0.096 0.01
C10OA 0.161 0.066 0.14 0.014 -0.067 -0.022
C11OA 0.081 0.084 0.111 0.011 -0.023 -0.018
N1OA 0.058 0.054 0.123 -0.007 -0.005 -0.006
C1OA 0.055 0.072 0.063 0.01 0 -0.001
C2OA 0.055 0.052 0.056 0.001 0.007 0.001
C3OA 0.046 0.054 0.058 0.003 -0.004 0.001
O1OA 0.059 0.083 0.091 0.031 -0.015 -0.02
O2OA 0.065 0.077 0.071 0.024 -0.007 -0.011
C2RA 0.056 0.055 0.052 -0.001 -0.001 0.007
C1RA 0.063 0.055 0.072 0.001 -0.01 0
O1RA 0.091 0.059 0.083 0.02 -0.031 -0.015
O2RA 0.071 0.065 0.077 0.011 -0.024 -0.007
C3RA 0.058 0.046 0.054 -0.001 -0.003 -0.004
C2KA 0.052 0.056 0.055 -0.007 0.001 -0.001
C1KA 0.072 0.063 0.055 0 -0.001 -0.01
O1KA 0.083 0.091 0.059 0.015 -0.02 -0.031
O2KA 0.077 0.071 0.065 0.007 -0.011 -0.024
C3KA 0.054 0.058 0.046 0.004 0.001 -0.003
Ni1I 0.0554 0.0895 0.0554 -0.0103 0.0027 0.0103
Ni1W 0.0895 0.0554 0.0554 -0.0027 -0.0103 -0.0103
C7I 0.063 0.206 0.076 0.05 -0.014 -0.025
C8I 0.088 0.191 0.08 0.035 -0.018 -0.05
C9I 0.123 0.244 0.053 0.025 -0.01 -0.096
C10I 0.161 0.14 0.066 -0.014 0.022 -0.067
C11I 0.081 0.111 0.084 -0.011 0.018 -0.023
N1I 0.058 0.123 0.054 0.007 0.006 -0.005
C7SA 0.076 0.206 0.063 0.025 -0.014 -0.05
C8SA 0.08 0.191 0.088 0.05 -0.018 -0.035
C9SA 0.053 0.244 0.123 0.096 -0.01 -0.025
C10SA 0.066 0.14 0.161 0.067 0.022 0.014
C11SA 0.084 0.111 0.081 0.023 0.018 0.011
N1SA 0.054 0.123 0.058 0.005 0.006 -0.007
C4I 0.112 0.225 0.112 -0.053 -0.004 -0.034
O3I 0.079 0.112 0.08 -0.046 -0.008 0.007
C4SA 0.112 0.225 0.112 0.034 -0.004 0.053
O3SA 0.08 0.112 0.079 -0.007 -0.008 0.046
C7W 0.206 0.076 0.063 0.014 0.025 0.05
C8W 0.191 0.08 0.088 0.018 0.05 0.035
C9W 0.244 0.053 0.123 0.01 0.096 0.025
C10W 0.14 0.066 0.161 -0.022 0.067 -0.014
C11W 0.111 0.084 0.081 -0.018 0.023 -0.011
N1W 0.123 0.054 0.058 -0.006 0.005 0.007
C7BA 0.206 0.063 0.076 0.014 0.05 0.025
C8BA 0.191 0.088 0.08 0.018 0.035 0.05
C9BA 0.244 0.123 0.053 0.01 0.025 0.096
C10BA 0.14 0.161 0.066 -0.022 -0.014 0.067
C11BA 0.111 0.081 0.084 -0.018 -0.011 0.023
N1BA 0.123 0.058 0.054 -0.006 0.007 0.005
C4W 0.225 0.112 0.112 0.004 0.034 -0.053
O3W 0.112 0.08 0.079 0.008 -0.007 -0.046
C4BA 0.225 0.112 0.112 0.004 -0.053 0.034
O3BA 0.112 0.079 0.08 0.008 -0.046 -0.007
Ni1J 0.0895 0.0554 0.0554 0.0027 -0.0103 0.0103
Ni1N 0.0554 0.0895 0.0554 -0.0103 -0.0027 -0.0103
O1SA 0.083 0.091 0.059 0.015 0.02 0.031
O1BA 0.091 0.059 0.083 -0.02 -0.031 0.015
loop_
_geom_bond_atom_site_label_1
_geom_bond_atom_site_label_2
_geom_bond_site_symmetry_1
_geom_bond_site_symmetry_2
C1 C2 1_555 1_555
C2 C3 1_555 1_555
C3 H1 1_555 1_555
C4 C5 1_555 1_555
C5 H2 1_555 1_555
H3 C5 1_555 1_555
H4 C5 1_555 1_555
C7 H8 1_555 1_555
C8 C7 1_555 1_555
H9 C8 1_555 1_555
C9 C8 1_555 1_555
H10 C9 1_555 1_555
C10 C9 1_555 1_555
H11 C10 1_555 1_555
C11 C10 1_555 1_555
H12 C11 1_555 1_555
C12 O4 1_555 1_555
N1 C7 1_555 1_555
O1 C1 1_555 1_555
O2 C1 1_555 1_555
O3 C4 1_555 1_555
H13 O3 1_555 1_555
Ni1 N1 1_555 1_555
C2I C3 1_555 1_555
C1I C2I 1_555 1_555
O1I C1I 1_555 1_555
O2I C1I 1_555 1_555
C3I C2I 1_555 1_555
C2W C3I 1_555 1_555
C1W C2W 1_555 1_555
O1W C1W 1_555 1_555
O2W C1W 1_555 1_555
C3W C2 1_555 1_555
H1W C3W 1_555 1_555
H1I C3I 1_555 1_555
C4OA C4 1_555 1_555
C5OA C4OA 1_555 1_555
H2OA C5OA 1_555 1_555
H3OA C5OA 1_555 1_555
H4OA C5OA 1_555 1_555
O3OA Ni1 1_555 1_555
H13OA O3OA 1_555 1_555
C7OA H8OA 1_555 1_555
C8OA C7OA 1_555 1_555
H9OA C8OA 1_555 1_555
C9OA C8OA 1_555 1_555
H10OA C9OA 1_555 1_555
C10OA C9OA 1_555 1_555
H11OA C10OA 1_555 1_555
C11OA C10OA 1_555 1_555
H12OA C11OA 1_555 1_555
N1OA Ni1 1_555 1_555
C1OA C2OA 1_555 1_555
C2OA C3OA 1_555 1_555
C3OA H1OA 1_555 1_555
O1OA Ni1 1_555 1_555
O2OA C1OA 1_555 1_555
C2RA C3OA 1_555 1_555
C1RA C2RA 1_555 1_555
O1RA C1RA 1_555 1_555
O2RA C1RA 1_555 1_555
C3RA C2RA 1_555 1_555
C2KA C3RA 1_555 1_555
C1KA C2KA 1_555 1_555
O1KA C1KA 1_555 1_555
O2KA C1KA 1_555 1_555
C3KA C2OA 1_555 1_555
H1KA C3KA 1_555 1_555
H1RA C3RA 1_555 1_555
Ni1I O1I 1_555 1_555
Ni1W O1W 1_555 1_555
C7I H8I 1_555 1_555
C8I C7I 1_555 1_555
H9I C8I 1_555 1_555
C9I C8I 1_555 1_555
H10I C9I 1_555 1_555
C10I C9I 1_555 1_555
H11I C10I 1_555 1_555
C11I C10I 1_555 1_555
H12I C11I 1_555 1_555
N1I Ni1I 1_555 1_555
C7SA H8SA 1_555 1_555
C8SA C7SA 1_555 1_555
H9SA C8SA 1_555 1_555
C9SA C8SA 1_555 1_555
H10SA C9SA 1_555 1_555
C10SA C9SA 1_555 1_555
H11SA C10SA 1_555 1_555
C11SA C10SA 1_555 1_555
H12SA C11SA 1_555 1_555
N1SA Ni1I 1_555 1_555
C4I C5I 1_555 1_555
C5I H2I 1_555 1_555
H3I C5I 1_555 1_555
H4I C5I 1_555 1_555
O3I Ni1I 1_555 1_555
H13I O3I 1_555 1_555
C4SA C4I 1_555 1_555
C5SA C4SA 1_555 1_555
H2SA C5SA 1_555 1_555
H3SA C5SA 1_555 1_555
H4SA C5SA 1_555 1_555
O3SA Ni1I 1_555 1_555
H13SA O3SA 1_555 1_555
C7W H8W 1_555 1_555
C8W C7W 1_555 1_555
H9W C8W 1_555 1_555
C9W C8W 1_555 1_555
H10W C9W 1_555 1_555
C10W C9W 1_555 1_555
H11W C10W 1_555 1_555
C11W C10W 1_555 1_555
H12W C11W 1_555 1_555
N1W Ni1W 1_555 1_555
C7BA H8BA 1_555 1_555
C8BA C7BA 1_555 1_555
H9BA C8BA 1_555 1_555
C9BA C8BA 1_555 1_555
H10BA C9BA 1_555 1_555
C10BA C9BA 1_555 1_555
H11BA C10BA 1_555 1_555
C11BA C10BA 1_555 1_555
H12BA C11BA 1_555 1_555
N1BA Ni1W 1_555 1_555
C4W C5W 1_555 1_555
C5W H2W 1_555 1_555
H3W C5W 1_555 1_555
H4W C5W 1_555 1_555
O3W Ni1W 1_555 1_555
H13W O3W 1_555 1_555
C4BA C4W 1_555 1_555
C5BA C4BA 1_555 1_555
H2BA C5BA 1_555 1_555
H3BA C5BA 1_555 1_555
H4BA C5BA 1_555 1_555
O3BA Ni1W 1_555 1_555
H13BA O3BA 1_555 1_555
Ni1J O1RA 1_555 1_555
Ni1N O1KA 1_555 1_555
O1SA Ni1I 1_555 1_555
O1BA Ni1W 1_555 1_555
C11 N1 1_555 1_555
O1 Ni1 1_555 1_555
O3 Ni1 1_555 1_555
C2W C3W 1_555 1_555
C4OA O3OA 1_555 1_555
C7OA N1OA 1_555 1_555
C11OA N1OA 1_555 1_555
C1OA O1OA 1_555 1_555
C2KA C3KA 1_555 1_555
C7I N1I 1_555 1_555
C11I N1I 1_555 1_555
C7SA N1SA 1_555 1_555
C11SA N1SA 1_555 1_555
C4I O3I 1_555 1_555
C4SA O3SA 1_555 1_555
C7W N1W 1_555 1_555
C11W N1W 1_555 1_555
C7BA N1BA 1_555 1_555
C11BA N1BA 1_555 1_555
C4W O3W 1_555 1_555
C4BA O3BA 1_555 1_555

#END
