
#######################################################################
#
#                 Cambridge Crystallographic Data Centre
#                                CCDC 
#
#######################################################################
#
# If this CIF has been generated from an entry in the Cambridge 
# Structural Database, then it will include bibliographic, chemical, 
# crystal, experimental, refinement or atomic coordinate data resulting 
# from the CCDC's data processing and validation procedures.
#
#######################################################################

data_CEGFAW
_chemical_formula_moiety         '(C24 H30 Ag4 N8)n'
_symmetry_cell_setting           monoclinic
_symmetry_space_group_name_H-M   'P 21/c'
_symmetry_Int_Tables_number      14
_space_group_name_Hall           '-P 2ybc'
loop_
_symmetry_equiv_pos_site_id
_symmetry_equiv_pos_as_xyz
1 x,y,z
2 -x,1/2+y,1/2-z
3 -x,-y,-z
4 x,1/2-y,1/2+z
_cell_length_a                   12.6836(16)
_cell_length_b                   19.726(2)
_cell_length_c                   11.1137(13)
_cell_angle_alpha                90
_cell_angle_beta                 101.835(3)
_cell_angle_gamma                90
_cell_volume                     2721.5
loop_
_atom_site_label
_atom_site_type_symbol
_atom_site_fract_x
_atom_site_fract_y
_atom_site_fract_z
_atom_site_U_iso_or_equiv
_atom_site_thermal_displace_type
Ag1 Ag -0.65442(3) -0.047602(19) 1.35770(3) 0.0275 Uani
Ag2 Ag -0.24512(3) -0.167053(19) 1.23485(3) 0.0287 Uani
Ag3 Ag 0.15996(3) -0.029882(19) 1.14110(3) 0.0268 Uani
Ag4 Ag -0.76418(4) 0.23489(2) 1.51413(4) 0.0377 Uani
N1 N -0.5529(3) -0.1189(2) 1.3053(4) 0.0274 Uani
N2 N -0.4043(3) -0.1637(2) 1.2597(4) 0.0263 Uani
N3 N -0.0854(3) -0.1587(2) 1.2150(4) 0.0294 Uani
N4 N 0.0625(3) -0.1082(2) 1.1768(4) 0.0288 Uani
N5 N -0.7591(3) 0.4446(2) 1.5956(4) 0.0280 Uani
N6 N -0.7311(4) 0.3360(2) 1.5609(4) 0.0356 Uani
N7 N -0.7891(4) 0.1330(2) 1.4642(4) 0.0317 Uani
N8 N -0.7445(3) 0.0292(2) 1.4153(4) 0.0289 Uani
C1 C -0.4562(4) -0.1065(2) 1.2794(4) 0.0263 Uani
C2 C -0.5635(4) -0.1887(3) 1.3020(5) 0.0329 Uani
H1 H -0.6241 -0.2135 1.3163 0.0390 Uiso
C3 C -0.4730(4) -0.2159(3) 1.2751(5) 0.0326 Uani
H2 H -0.4591 -0.2629 1.2680 0.0390 Uiso
C4 C -0.4088(5) -0.0374(3) 1.2736(5) 0.0347 Uani
H3 H -0.4598 -0.0032 1.2905 0.0520 Uiso
H4 H -0.3941 -0.0299 1.1914 0.0520 Uiso
H5 H -0.3415 -0.0340 1.3350 0.0520 Uiso
C5 C -0.0367(4) -0.0998(3) 1.2015(5) 0.0311 Uani
C6 C -0.0132(4) -0.2082(3) 1.1963(5) 0.0365 Uani
H6 H -0.0245 -0.2557 1.1995 0.0440 Uiso
C7 C 0.0763(4) -0.1778(3) 1.1725(5) 0.0341 Uani
H7 H 0.1379 -0.2004 1.1557 0.0410 Uiso
C8 C -0.0860(4) -0.0319(3) 1.2112(5) 0.0341 Uani
H8 H -0.1577 -0.0376 1.2299 0.0510 Uiso
H9 H -0.0923 -0.0076 1.1332 0.0510 Uiso
H10 H -0.0405 -0.0058 1.2771 0.0510 Uiso
C9 C -0.7973(4) 0.3819(3) 1.5948(4) 0.0289 Uani
C10 C -0.6622(5) 0.4394(3) 1.5594(5) 0.0387 Uani
H11 H -0.6155 0.4759 1.5507 0.0470 Uiso
C11 C -0.6447(5) 0.3727(3) 1.5381(5) 0.0364 Uani
H12 H -0.5836 0.3546 1.5121 0.0440 Uiso
C12 C -0.9022(4) 0.3644(3) 1.6287(5) 0.0355 Uani
H13 H -0.9365 0.4058 1.6508 0.0530 Uiso
H14 H -0.9496 0.3426 1.5587 0.0530 Uiso
H15 H -0.8893 0.3332 1.6990 0.0530 Uiso
C13 C -0.7174(4) 0.0954(2) 1.4219(4) 0.0265 Uani
C14 C -0.8398(4) 0.0254(3) 1.4556(5) 0.0357 Uani
H16 H -0.8801 -0.0146 1.4615 0.0420 Uiso
C15 C -0.8663(4) 0.0895(3) 1.4855(5) 0.0359 Uani
H17 H -0.9284 0.1016 1.5162 0.0430 Uiso
C16 C -0.6172(4) 0.1222(3) 1.3882(5) 0.0367 Uani
H18 H -0.6139 0.1715 1.3998 0.0550 Uiso
H19 H -0.5542 0.1012 1.4407 0.0550 Uiso
H20 H -0.6178 0.1115 1.3020 0.0550 Uiso
Ag3C Ag -0.84004(3) 0.529882(19) 1.64110(3) 0.0268 Uani
N5C N 0.2409(3) 0.0554(2) 1.0956(4) 0.0280 Uani
C17 C -0.7864(7) -0.3450(4) 1.1084(7) 0.0366 Uani
C18 C -0.8541(8) -0.3495(5) 1.1935(10) 0.1142 Uani
H21 H -0.9299 -0.3452 1.1664 0.1340 Uiso
C19 C -0.8107(6) -0.3600(5) 1.3167(8) 0.0318 Uani
H22 H -0.8569 -0.3626 1.3739 0.0380 Uiso
C20 C -0.6994(7) -0.3670(5) 1.3579(7) 0.0391 Uani
C21 C -0.6329(7) -0.3622(7) 1.2749(9) 0.0505 Uani
H23 H -0.5571 -0.3659 1.3023 0.0610 Uiso
C22 C -0.6766(8) -0.3518(9) 1.1509(10) 0.0528 Uani
H24 H -0.6299 -0.3493 1.0941 0.0630 Uiso
C23 C -0.8348(11) -0.3321(7) 0.9744(10) 0.0535 Uani
H25 H -0.7773 -0.3302 0.9276 0.0800 Uiso
H26 H -0.8738 -0.2890 0.9661 0.0800 Uiso
H27 H -0.8847 -0.3689 0.9426 0.0800 Uiso
C24 C -0.6419(14) -0.3769(7) 1.4889(11) 0.0519 Uani
H28 H -0.5641 -0.3793 1.4928 0.0780 Uiso
H29 H -0.6663 -0.4191 1.5207 0.0780 Uiso
H30 H -0.6577 -0.3387 1.5388 0.0780 Uiso
loop_
_atom_site_aniso_label
_atom_site_aniso_U_11
_atom_site_aniso_U_22
_atom_site_aniso_U_33
_atom_site_aniso_U_23
_atom_site_aniso_U_13
_atom_site_aniso_U_12
Ag1 0.0318(2) 0.02419(19) 0.0262(2) -0.00314(14) 0.00545(15) 0.00489(15)
Ag2 0.0278(2) 0.0270(2) 0.0319(2) -0.00089(15) 0.00755(16) -0.00129(15)
Ag3 0.0302(2) 0.02404(19) 0.0264(2) 0.00066(14) 0.00671(15) -0.00338(15)
Ag4 0.052 0.0283 0.0303 -0.00737 0.00245 0.01257
N1 0.032(2) 0.024(2) 0.026(2) -0.0017(16) 0.0052(17) 0.0037(17)
N2 0.029(2) 0.0214(19) 0.028(2) 0.0019(16) 0.0044(17) 0.0009(16)
N3 0.031(2) 0.024(2) 0.033(2) -0.0015(17) 0.0059(18) -0.0022(17)
N4 0.031(2) 0.023(2) 0.032(2) -0.0019(17) 0.0055(18) -0.0002(17)
N5 0.032 0.029 0.023 -0.0018 0.0057 0.0013
N6 0.048 0.03 0.028 -0.0069 0.006 0.012
N7 0.038 0.024 0.031 -0.0042 0.0023 0.0081
N8 0.034 0.026 0.027 -0.0041 0.0067 0.0028
C1 0.031(3) 0.023(2) 0.023(2) 0.0004(18) 0.001(2) 0.003(2)
C2 0.036(3) 0.025(2) 0.039(3) -0.003(2) 0.011(2) -0.003(2)
C3 0.034(3) 0.026(2) 0.039(3) 0.001(2) 0.010(2) 0.002(2)
C4 0.043(3) 0.027(3) 0.035(3) -0.001(2) 0.010(2) -0.001(2)
C5 0.034(3) 0.032(3) 0.026(3) 0.003(2) 0.003(2) -0.001(2)
C6 0.040(3) 0.027(3) 0.043(3) -0.001(2) 0.010(2) 0.002(2)
C7 0.035(3) 0.029(3) 0.040(3) -0.003(2) 0.012(2) 0.000(2)
C8 0.033(3) 0.033(3) 0.037(3) 0.000(2) 0.009(2) 0.002(2)
C9 0.038 0.028 0.02 0.0003 0.004 0.007
C10 0.039 0.049 0.031 0.002 0.014 0.006
C11 0.041 0.043 0.027 -0.004 0.011 0.013
C12 0.042 0.028 0.037 -0.003 0.009 -0.003
C13 0.031 0.03 0.018 -0.0013 0.0037 0.005
C14 0.029 0.038 0.04 -0.003 0.007 -0.003
C15 0.028 0.046 0.032 -0.011 0.002 0.005
C16 0.04 0.031 0.04 -0.001 0.01 -0.005
Ag3C 0.0302 0.02404 0.0264 -0.00066 0.00671 0.00338
N5C 0.032(2) 0.029(2) 0.023(2) 0.0018(17) 0.0057(17) -0.0013(18)
C17 0.042(7) 0.027(5) 0.044(7) -0.005(5) 0.016(5) -0.003(5)
C18 0.17(3) 0.060(16) 0.15(2) 0.001(16) 0.12(2) 0.028(16)
C19 0.027(5) 0.033(5) 0.036(6) -0.002(5) 0.008(5) -0.002(4)
C20 0.046(7) 0.033(6) 0.036(6) -0.006(5) 0.003(5) -0.005(5)
C21 0.047(8) 0.021(6) 0.089(12) -0.012(8) 0.027(8) -0.011(6)
C22 0.038(9) 0.046(11) 0.084(12) 0.000(9) 0.035(8) 0.006(8)
C23 0.023(7) 0.071(10) 0.062(9) 0.001(8) -0.002(6) -0.011(7)
C24 0.053(10) 0.037(8) 0.059(10) -0.001(7) -0.004(7) -0.004(8)
loop_
_geom_bond_atom_site_label_1
_geom_bond_atom_site_label_2
_geom_bond_site_symmetry_1
_geom_bond_site_symmetry_2
Ag1 N1 1_555 1_555
Ag2 N2 1_555 1_555
Ag3 N4 1_555 1_555
Ag4 N6 1_555 1_555
N1 C1 1_555 1_555
N2 C1 1_555 1_555
N3 Ag2 1_555 1_555
N4 C5 1_555 1_555
N5 C9 1_555 1_555
N6 C9 1_555 1_555
N7 Ag4 1_555 1_555
N8 Ag1 1_555 1_555
C1 C4 1_555 1_555
C2 N1 1_555 1_555
H1 C2 1_555 1_555
C3 N2 1_555 1_555
H2 C3 1_555 1_555
C4 H3 1_555 1_555
H4 C4 1_555 1_555
H5 C4 1_555 1_555
C5 N3 1_555 1_555
C6 N3 1_555 1_555
H6 C6 1_555 1_555
C7 N4 1_555 1_555
H7 C7 1_555 1_555
C8 C5 1_555 1_555
H8 C8 1_555 1_555
H9 C8 1_555 1_555
H10 C8 1_555 1_555
C9 C12 1_555 1_555
C10 N5 1_555 1_555
H11 C10 1_555 1_555
C11 N6 1_555 1_555
H12 C11 1_555 1_555
C12 H13 1_555 1_555
H14 C12 1_555 1_555
H15 C12 1_555 1_555
C13 N7 1_555 1_555
C14 N8 1_555 1_555
H16 C14 1_555 1_555
C15 N7 1_555 1_555
H17 C15 1_555 1_555
C16 C13 1_555 1_555
H18 C16 1_555 1_555
H19 C16 1_555 1_555
H20 C16 1_555 1_555
C17 C18 1_555 1_555
C18 H21 1_555 1_555
C19 C18 1_555 1_555
H22 C19 1_555 1_555
C20 C19 1_555 1_555
C21 C20 1_555 1_555
H23 C21 1_555 1_555
C22 C17 1_555 1_555
H24 C22 1_555 1_555
C23 C17 1_555 1_555
H25 C23 1_555 1_555
H26 C23 1_555 1_555
H27 C23 1_555 1_555
C24 C20 1_555 1_555
H28 C24 1_555 1_555
H29 C24 1_555 1_555
H30 C24 1_555 1_555
Ag3C N5 1_555 1_555
N5C Ag3 1_555 1_555
N8 C13 1_555 1_555
C2 C3 1_555 1_555
C6 C7 1_555 1_555
C10 C11 1_555 1_555
C14 C15 1_555 1_555
C21 C22 1_555 1_555

#END
