
#######################################################################
#
#                 Cambridge Crystallographic Data Centre
#                                CCDC 
#
#######################################################################
#
# If this CIF has been generated from an entry in the Cambridge 
# Structural Database, then it will include bibliographic, chemical, 
# crystal, experimental, refinement or atomic coordinate data resulting 
# from the CCDC's data processing and validation procedures.
#
#######################################################################

data_QUTHAP
_chemical_formula_moiety         'C60 H36 N3 O12 Zn7'
_symmetry_cell_setting           orthorhombic
_symmetry_space_group_name_H-M   'F d d d'
_symmetry_Int_Tables_number      70
_space_group_name_Hall           '-F 2uv 2vw'
loop_
_symmetry_equiv_pos_site_id
_symmetry_equiv_pos_as_xyz
1 x,y,z
2 3/4-x,3/4-y,z
3 3/4-x,y,3/4-z
4 x,3/4-y,3/4-z
5 x,1/2+y,1/2+z
6 3/4-x,1/4-y,1/2+z
7 3/4-x,1/2+y,1/4-z
8 x,1/4-y,1/4-z
9 1/2+x,y,1/2+z
10 1/4-x,3/4-y,1/2+z
11 1/4-x,y,1/4-z
12 1/2+x,3/4-y,1/4-z
13 1/2+x,1/2+y,z
14 1/4-x,1/4-y,z
15 1/4-x,1/2+y,3/4-z
16 1/2+x,1/4-y,3/4-z
17 -x,-y,-z
18 1/4+x,1/4+y,-z
19 1/4+x,-y,1/4+z
20 -x,1/4+y,1/4+z
21 -x,1/2-y,1/2-z
22 1/4+x,3/4+y,1/2-z
23 1/4+x,1/2-y,3/4+z
24 -x,3/4+y,3/4+z
25 1/2-x,-y,1/2-z
26 3/4+x,1/4+y,1/2-z
27 3/4+x,-y,3/4+z
28 1/2-x,1/4+y,3/4+z
29 1/2-x,1/2-y,-z
30 3/4+x,3/4+y,-z
31 3/4+x,1/2-y,1/4+z
32 1/2-x,3/4+y,1/4+z
_cell_length_a                   10.7448(17)
_cell_length_b                   36.868(6)
_cell_length_c                   60.435(10)
_cell_angle_alpha                90
_cell_angle_beta                 90
_cell_angle_gamma                90
_cell_volume                     23940.7
loop_
_atom_site_label
_atom_site_type_symbol
_atom_site_fract_x
_atom_site_fract_y
_atom_site_fract_z
_atom_site_U_iso_or_equiv
_atom_site_thermal_displace_type
Zn1 Zn 0.96735(5) -0.037909(12) 0.993663(9) 0.0341 Uani
O1 O 0.8125(3) -0.01664(9) 1.00771(7) 0.0495 Uani
O2 O 0.8557(3) 0.03979(9) 1.01778(6) 0.0477 Uani
O3 O 0.0452(4) 0.28931(9) 1.22508(7) 0.0567 Uani
O4 O 0.0887(3) 0.23330(8) 1.21418(6) 0.0446 Uani
C1 C 0.7858(5) 0.01290(12) 1.01648(9) 0.0410 Uani
C2 C 0.6576(5) 0.01696(13) 1.02548(10) 0.0460 Uani
C3 C 0.6197(5) 0.04884(14) 1.03577(9) 0.0470 Uani
H1 H 0.6776 0.0681 1.0374 0.0560 Uiso
C4 C 0.4991(6) 0.05314(15) 1.04369(11) 0.0543 Uani
C5 C 0.4133(6) 0.02487(19) 1.04108(12) 0.0710 Uani
H2 H 0.3297 0.0279 1.0458 0.0850 Uiso
C6 C 0.4503(6) -0.0068(2) 1.03175(15) 0.0860 Uani
H3 H 0.3928 -0.0264 1.0307 0.1030 Uiso
C7 C 0.5702(6) -0.01135(17) 1.02372(14) 0.0743 Uani
H4 H 0.5934 -0.0336 1.0170 0.0890 Uiso
C8 C 0.4613(6) 0.08558(18) 1.05517(11) 0.0653 Uani
C9 C 0.4324(7) 0.11123(18) 1.06553(11) 0.0713 Uani
C10 C 0.3979(8) 0.1408(2) 1.07977(11) 0.0833 Uani
C11 C 0.4916(16) 0.1630(4) 1.0889(3) 0.0810 Uani
H5 H 0.5769 0.1595 1.0853 0.0970 Uiso
C12 C 0.4545(14) 0.1887(4) 1.1025(3) 0.0747 Uani
H6 H 0.5185 0.2033 1.1087 0.0890 Uiso
C13 C 0.3342(11) 0.1973(2) 1.10896(13) 0.1127 Uani
C14 C 0.247(3) 0.1752(5) 1.1001(3) 0.1387 Uani
H7 H 0.1624 0.1795 1.1042 0.1650 Uiso
C15 C 0.2706(18) 0.1455(4) 1.0850(3) 0.0957 Uani
H8 H 0.2067 0.1305 1.0791 0.1150 Uiso
C16 C 0.3024(10) 0.2245(2) 1.12438(13) 0.1013 Uani
C17 C 0.2684(10) 0.2463(2) 1.13763(14) 0.1087 Uani
C18 C 0.2256(10) 0.2721(2) 1.15365(13) 0.1093 Uani
C19 C 0.1748(6) 0.25876(16) 1.17350(10) 0.0640 Uani
H9 H 0.1684 0.2333 1.1756 0.0770 Uiso
C20 C 0.1343(6) 0.28156(15) 1.18988(10) 0.0600 Uani
C21 C 0.1472(11) 0.31888(19) 1.18676(14) 0.1197 Uani
H10 H 0.1219 0.3351 1.1981 0.1430 Uiso
C22 C 0.1958(15) 0.3322(2) 1.16755(18) 0.1980 Uani
H11 H 0.2063 0.3576 1.1656 0.2380 Uiso
C23 C 0.2292(16) 0.3087(3) 1.15106(18) 0.1983 Uani
H12 H 0.2560 0.3183 1.1373 0.2370 Uiso
C24 C 0.0834(5) 0.26642(13) 1.21124(9) 0.0463 Uani
N1 N 0.9112(4) -0.09149(9) 0.99223(6) 0.0314 Uani
C25 C 0.8360(17) -0.0996(3) 0.9726(3) 0.0920 Uani
H14 H 0.8896 -0.1008 0.9593 0.1100 Uiso
C26 C 0.9805(14) -0.1125(3) 0.9766(3) 0.0677 Uani
H15 H 0.9866 -0.0992 0.9624 0.0810 Uiso
C27 C 1.0155(16) -0.1147(3) 0.9934(3) 0.0920 Uani
H18 H 1.0518 -0.1138 1.0085 0.1100 Uiso
C28 C 0.7770(13) -0.0944(3) 0.9877(3) 0.0677 Uani
H19 H 0.7302 -0.0769 0.9969 0.0810 Uiso
C29 C 0.8299(17) -0.0975(3) 1.0100(3) 0.0920 Uani
C30 C 0.9175(15) -0.1078(3) 1.0147(2) 0.0677 Uani
H23 H 0.9937 -0.0999 1.0226 0.0810 Uiso
H24 H 0.8439 -0.1009 1.0236 0.0810 Uiso
Zn1P Zn 1.03265(5) 0.037909(12) 1.006337(9) 0.0341 Uani
Zn1G Zn -0.03265(5) 0.287909(12) 1.256337(9) 0.0341 Uani
Zn1S Zn 0.03265(5) 0.212091(12) 1.243663(9) 0.0341 Uani
Zn1A Zn 0.78265(5) -0.212091(12) 0.993663(9) 0.0341 Uani
Zn1W Zn 2.03265(5) -0.287909(12) 0.743663(9) 0.0341 Uani
Zn1C Zn 1.96735(5) -0.212091(12) 0.756337(9) 0.0341 Uani
O1P O 1.1875(3) 0.01664(9) 0.99229(7) 0.0495 Uani
O2P O 1.1443(3) -0.03979(9) 0.98222(6) 0.0477 Uani
O3P O 1.9548(4) -0.28931(9) 0.77492(7) 0.0567 Uani
O3G O 1.0452(4) -0.03931(9) 1.02492(7) 0.0567 Uani
O3W O 0.9548(4) 0.03931(9) 0.97508(7) 0.0567 Uani
O4P O 1.9113(3) -0.23330(8) 0.78582(6) 0.0446 Uani
O4W O 0.9113(3) -0.01670(8) 0.96418(6) 0.0446 Uani
O4G O 1.0887(3) 0.01670(8) 1.03582(6) 0.0446 Uani
C1P C 1.2142(5) -0.01290(12) 0.98352(9) 0.0410 Uani
C2P C 1.3424(5) -0.01696(13) 0.97452(10) 0.0460 Uani
C3P C 1.3803(5) -0.04884(14) 0.96423(9) 0.0470 Uani
H1P H 1.3224 -0.0681 0.9626 0.0560 Uiso
C4P C 1.5009(6) -0.05314(15) 0.95631(11) 0.0543 Uani
C5P C 1.5867(6) -0.02487(19) 0.95892(12) 0.0710 Uani
H2P H 1.6703 -0.0279 0.9542 0.0850 Uiso
C6P C 1.5497(6) 0.0068(2) 0.96825(15) 0.0860 Uani
H3P H 1.6072 0.0264 0.9693 0.1030 Uiso
C7P C 1.4298(6) 0.01135(17) 0.97628(14) 0.0743 Uani
H4P H 1.4066 0.0336 0.9830 0.0890 Uiso
C8P C 1.5387(6) -0.08558(18) 0.94483(11) 0.0653 Uani
C9P C 1.5676(7) -0.11123(18) 0.93447(11) 0.0713 Uani
C10P C 1.6021(8) -0.1408(2) 0.92023(11) 0.0833 Uani
C11P C 1.5084(16) -0.1630(4) 0.9111(3) 0.0810 Uani
H5P H 1.4231 -0.1595 0.9147 0.0970 Uiso
C12P C 1.5455(14) -0.1887(4) 0.8975(3) 0.0747 Uani
H6P H 1.4815 -0.2033 0.8913 0.0890 Uiso
C13P C 1.6658(11) -0.1973(2) 0.89104(13) 0.1127 Uani
C14P C 1.753(3) -0.1752(5) 0.8999(3) 0.1387 Uani
H7P H 1.8376 -0.1795 0.8958 0.1650 Uiso
C15P C 1.7294(18) -0.1455(4) 0.9150(3) 0.0957 Uani
H8P H 1.7933 -0.1305 0.9209 0.1150 Uiso
C16P C 1.6976(10) -0.2245(2) 0.87562(13) 0.1013 Uani
C17P C 1.7316(10) -0.2463(2) 0.86237(14) 0.1087 Uani
C18P C 1.7744(10) -0.2721(2) 0.84635(13) 0.1093 Uani
C19P C 1.8252(6) -0.25876(16) 0.82650(10) 0.0640 Uani
H9P H 1.8316 -0.2333 0.8244 0.0770 Uiso
C20P C 1.8657(6) -0.28156(15) 0.81012(10) 0.0600 Uani
C21P C 1.8528(11) -0.31888(19) 0.81324(14) 0.1197 Uani
H10P H 1.8781 -0.3351 0.8019 0.1430 Uiso
C22P C 1.8042(15) -0.3322(2) 0.83245(18) 0.1980 Uani
H11P H 1.7937 -0.3576 0.8344 0.2380 Uiso
C23P C 1.7708(16) -0.3087(3) 0.84894(18) 0.1983 Uani
H12P H 1.7440 -0.3183 0.8627 0.2370 Uiso
C24P C 1.9166(5) -0.26642(13) 0.78876(9) 0.0463 Uani
N1A N 0.8388(4) -0.15851(9) 0.99223(6) 0.0314 Uani
N1P N 1.0888(4) 0.09149(9) 1.00777(6) 0.0314 Uani
C25A C 0.9140(17) -0.1504(3) 0.9726(3) 0.0920 Uani
H14A H 0.8604 -0.1492 0.9593 0.1100 Uiso
C26A C 0.7695(14) -0.1375(3) 0.9766(3) 0.0677 Uani
H15A H 0.7634 -0.1508 0.9624 0.0810 Uiso
C27A C 0.7345(16) -0.1353(3) 0.9934(3) 0.0920 Uani
H18A H 0.6982 -0.1362 1.0085 0.1100 Uiso
C28A C 0.9730(13) -0.1556(3) 0.9877(3) 0.0677 Uani
H19A H 1.0198 -0.1731 0.9969 0.0810 Uiso
C29A C 0.9201(17) -0.1525(3) 1.0100(3) 0.0920 Uani
C30A C 0.8325(15) -0.1422(3) 1.0147(2) 0.0677 Uani
H23A H 0.7563 -0.1501 1.0226 0.0810 Uiso
H24A H 0.9061 -0.1491 1.0236 0.0810 Uiso
loop_
_atom_site_aniso_label
_atom_site_aniso_U_11
_atom_site_aniso_U_22
_atom_site_aniso_U_33
_atom_site_aniso_U_23
_atom_site_aniso_U_13
_atom_site_aniso_U_12
Zn1 0.0364 0.0182 0.0478 -0.0058 0.0046 -0.00938
O1 0.047 0.0306 0.071 -0.0089 0.0185 -0.01
O2 0.042 0.0351 0.066 -0.0153 0.0023 -0.0049
O3 0.075 0.037 0.058 -0.0035 0.013 0.0219
O4 0.044 0.0308 0.059 -0.007 0.0003 0.004
C1 0.04 0.031 0.052 0 0.005 -0.005
C2 0.035 0.04 0.063 -0.009 0.012 -0.006
C3 0.035 0.046 0.06 -0.01 0.008 0.003
C4 0.048 0.047 0.068 -0.003 0.011 0.009
C5 0.047 0.073 0.093 0.003 0.024 0.003
C6 0.034 0.07 0.154 -0.004 0.028 -0.01
C7 0.048 0.049 0.126 -0.016 0.018 -0.007
C8 0.059 0.064 0.073 0.001 0.025 0.018
C9 0.083 0.065 0.066 0.01 0.013 0.025
C10 0.122 0.081 0.047 0.011 0.034 0.058
C11 0.071 0.067 0.105 -0.024 0.03 0.009
C12 0.069 0.079 0.076 0.002 0.016 -0.008
C13 0.201 0.068 0.069 0.016 0.066 0.071
C14 0.25 0.089 0.077 0.03 0.083 0.082
C15 0.122 0.081 0.084 0.015 0.029 0.049
C16 0.169 0.073 0.062 0.002 0.036 0.048
C17 0.159 0.087 0.08 0.01 0.055 0.044
C18 0.188 0.073 0.067 0.017 0.061 0.043
C19 0.09 0.047 0.055 0.009 0.011 0.024
C20 0.082 0.045 0.053 0.006 0.014 0.026
C21 0.231 0.049 0.079 0.012 0.068 0.035
C22 0.41 0.058 0.126 0.035 0.161 0.055
C23 0.39 0.101 0.104 0.046 0.135 0.102
C24 0.05 0.039 0.05 -0.007 0.002 0.014
N1 0.036 0.0203 0.038 -0.0053 0.0025 -0.0054
C25 0.11 0.035 0.131 0.019 -0.008 -0.035
C26 0.087 0.022 0.094 0 -0.005 -0.023
C27 0.11 0.035 0.131 0.019 -0.008 -0.035
C28 0.087 0.022 0.094 0 -0.005 -0.023
C29 0.11 0.035 0.131 0.019 -0.008 -0.035
C30 0.087 0.022 0.094 0 -0.005 -0.023
Zn1P 0.0364 0.0182 0.0478 -0.0058 0.0046 -0.00938
Zn1G 0.0364 0.0182 0.0478 -0.0058 -0.0046 0.00938
Zn1S 0.0364 0.0182 0.0478 -0.0058 -0.0046 0.00938
Zn1A 0.0364 0.0182 0.0478 0.0058 -0.0046 -0.00938
Zn1W 0.0364 0.0182 0.0478 -0.0058 -0.0046 0.00938
Zn1C 0.0364 0.0182 0.0478 -0.0058 -0.0046 0.00938
O1P 0.047 0.0306 0.071 -0.0089 0.0185 -0.01
O2P 0.042 0.0351 0.066 -0.0153 0.0023 -0.0049
O3P 0.075 0.037 0.058 -0.0035 0.013 0.0219
O3G 0.075 0.037 0.058 -0.0035 -0.013 -0.0219
O3W 0.075 0.037 0.058 -0.0035 -0.013 -0.0219
O4P 0.044 0.0308 0.059 -0.007 0.0003 0.004
O4W 0.044 0.0308 0.059 -0.007 -0.0003 -0.004
O4G 0.044 0.0308 0.059 -0.007 -0.0003 -0.004
C1P 0.04 0.031 0.052 0 0.005 -0.005
C2P 0.035 0.04 0.063 -0.009 0.012 -0.006
C3P 0.035 0.046 0.06 -0.01 0.008 0.003
C4P 0.048 0.047 0.068 -0.003 0.011 0.009
C5P 0.047 0.073 0.093 0.003 0.024 0.003
C6P 0.034 0.07 0.154 -0.004 0.028 -0.01
C7P 0.048 0.049 0.126 -0.016 0.018 -0.007
C8P 0.059 0.064 0.073 0.001 0.025 0.018
C9P 0.083 0.065 0.066 0.01 0.013 0.025
C10P 0.122 0.081 0.047 0.011 0.034 0.058
C11P 0.071 0.067 0.105 -0.024 0.03 0.009
C12P 0.069 0.079 0.076 0.002 0.016 -0.008
C13P 0.201 0.068 0.069 0.016 0.066 0.071
C14P 0.25 0.089 0.077 0.03 0.083 0.082
C15P 0.122 0.081 0.084 0.015 0.029 0.049
C16P 0.169 0.073 0.062 0.002 0.036 0.048
C17P 0.159 0.087 0.08 0.01 0.055 0.044
C18P 0.188 0.073 0.067 0.017 0.061 0.043
C19P 0.09 0.047 0.055 0.009 0.011 0.024
C20P 0.082 0.045 0.053 0.006 0.014 0.026
C21P 0.231 0.049 0.079 0.012 0.068 0.035
C22P 0.41 0.058 0.126 0.035 0.161 0.055
C23P 0.39 0.101 0.104 0.046 0.135 0.102
C24P 0.05 0.039 0.05 -0.007 0.002 0.014
N1A 0.036 0.0203 0.038 0.0053 -0.0025 -0.0054
N1P 0.036 0.0203 0.038 -0.0053 0.0025 -0.0054
C25A 0.11 0.035 0.131 -0.019 0.008 -0.035
C26A 0.087 0.022 0.094 0 0.005 -0.023
C27A 0.11 0.035 0.131 -0.019 0.008 -0.035
C28A 0.087 0.022 0.094 0 0.005 -0.023
C29A 0.11 0.035 0.131 -0.019 0.008 -0.035
C30A 0.087 0.022 0.094 0 0.005 -0.023
loop_
_geom_bond_atom_site_label_1
_geom_bond_atom_site_label_2
_geom_bond_site_symmetry_1
_geom_bond_site_symmetry_2
Zn1 O1 1_555 1_555
O1 C1 1_555 1_555
O2 C1 1_555 1_555
O3 C24 1_555 1_555
O4 C24 1_555 1_555
C1 C2 1_555 1_555
C2 C3 1_555 1_555
C3 H1 1_555 1_555
C4 C3 1_555 1_555
C5 C4 1_555 1_555
H2 C5 1_555 1_555
C6 C5 1_555 1_555
H3 C6 1_555 1_555
C7 C2 1_555 1_555
H4 C7 1_555 1_555
C8 C4 1_555 1_555
C9 C8 1_555 1_555
C10 C9 1_555 1_555
C11 C10 1_555 1_555
H5 C11 1_555 1_555
C12 C11 1_555 1_555
H6 C12 1_555 1_555
C13 C12 1_555 1_555
C14 C13 1_555 1_555
H7 C14 1_555 1_555
C15 C10 1_555 1_555
H8 C15 1_555 1_555
C16 C13 1_555 1_555
C17 C16 1_555 1_555
C18 C17 1_555 1_555
C19 C18 1_555 1_555
H9 C19 1_555 1_555
C20 C19 1_555 1_555
C21 C20 1_555 1_555
H10 C21 1_555 1_555
C22 C21 1_555 1_555
H11 C22 1_555 1_555
C23 C18 1_555 1_555
H12 C23 1_555 1_555
C24 C20 1_555 1_555
N1 Zn1 1_555 1_555
C25 N1 1_555 1_555
H14 C25 1_555 1_555
C26 N1 1_555 1_555
H15 C26 1_555 1_555
C27 N1 1_555 1_555
H18 C27 1_555 1_555
C28 N1 1_555 1_555
H19 C28 1_555 1_555
C29 N1 1_555 1_555
C30 N1 1_555 1_555
H23 C30 1_555 1_555
H24 C29 1_555 1_555
Zn1P O2 1_555 1_555
Zn1G O3 1_555 1_555
Zn1S O4 1_555 1_555
Zn1A N1A 1_555 1_555
Zn1W O3P 1_555 1_555
Zn1C O4P 1_555 1_555
O1P Zn1P 1_555 1_555
O2P Zn1 1_555 1_555
O3P C24P 1_555 1_555
O3G Zn1 1_555 1_555
O3W Zn1P 1_555 1_555
O4P C24P 1_555 1_555
O4W Zn1 1_555 1_555
O4G Zn1P 1_555 1_555
C1P O1P 1_555 1_555
C2P C1P 1_555 1_555
C3P C2P 1_555 1_555
H1P C3P 1_555 1_555
C4P C3P 1_555 1_555
C5P C4P 1_555 1_555
H2P C5P 1_555 1_555
C6P C5P 1_555 1_555
H3P C6P 1_555 1_555
C7P C2P 1_555 1_555
H4P C7P 1_555 1_555
C8P C4P 1_555 1_555
C9P C8P 1_555 1_555
C10P C9P 1_555 1_555
C11P C10P 1_555 1_555
H5P C11P 1_555 1_555
C12P C11P 1_555 1_555
H6P C12P 1_555 1_555
C13P C12P 1_555 1_555
C14P C13P 1_555 1_555
H7P C14P 1_555 1_555
C15P C10P 1_555 1_555
H8P C15P 1_555 1_555
C16P C13P 1_555 1_555
C17P C16P 1_555 1_555
C18P C17P 1_555 1_555
C19P C18P 1_555 1_555
H9P C19P 1_555 1_555
C20P C19P 1_555 1_555
C21P C20P 1_555 1_555
H10P C21P 1_555 1_555
C22P C21P 1_555 1_555
H11P C22P 1_555 1_555
C23P C18P 1_555 1_555
H12P C23P 1_555 1_555
C24P C20P 1_555 1_555
N1A C25A 1_555 1_555
N1P Zn1P 1_555 1_555
C25A C26 1_555 1_555
H14A C25A 1_555 1_555
C26A C25 1_555 1_555
H15A C26A 1_555 1_555
C27A C28 1_555 1_555
H18A C27A 1_555 1_555
C28A C26 1_555 1_555
H19A C28A 1_555 1_555
C29A C30 1_555 1_555
C30A C29 1_555 1_555
H23A C30A 1_555 1_555
H24A C29A 1_555 1_555
C6 C7 1_555 1_555
C14 C15 1_555 1_555
C22 C23 1_555 1_555
C25 C26 1_555 1_555
C25 C28 1_555 1_555
C26 C27 1_555 1_555
C27 C30 1_555 1_555
C27 C28A 1_555 1_555
C28 C29 1_555 1_555
C28 C26A 1_555 1_555
C29 C30 1_555 1_555
C30 H24 1_555 1_555
C30 C30A 1_555 1_555
O2P C1P 1_555 1_555
C6P C7P 1_555 1_555
C14P C15P 1_555 1_555
C22P C23P 1_555 1_555
N1A C26A 1_555 1_555
N1A C27A 1_555 1_555
N1A C28A 1_555 1_555
N1A C29A 1_555 1_555
N1A C30A 1_555 1_555
C25A C26A 1_555 1_555
C25A C28A 1_555 1_555
C26A C27A 1_555 1_555
C27A C30A 1_555 1_555
C28A C29A 1_555 1_555
C29A C30A 1_555 1_555
C30A H24A 1_555 1_555

#END
