
#######################################################################
#
#                 Cambridge Crystallographic Data Centre
#                                CCDC 
#
#######################################################################
#
# If this CIF has been generated from an entry in the Cambridge 
# Structural Database, then it will include bibliographic, chemical, 
# crystal, experimental, refinement or atomic coordinate data resulting 
# from the CCDC's data processing and validation procedures.
#
#######################################################################

data_UKAQAZ
_chemical_formula_moiety         '(C48 H38 N2 O16 P2 Sm2)n'
_symmetry_cell_setting           triclinic
_symmetry_space_group_name_H-M   'P -1'
_symmetry_Int_Tables_number      2
_space_group_name_Hall           '-P 1'
loop_
_symmetry_equiv_pos_site_id
_symmetry_equiv_pos_as_xyz
1 x,y,z
2 -x,-y,-z
_cell_length_a                   10.7459(5)
_cell_length_b                   11.8655(5)
_cell_length_c                   14.6752(6)
_cell_angle_alpha                73.2670(10)
_cell_angle_beta                 71.8240(10)
_cell_angle_gamma                66.7990(10)
_cell_volume                     1604.59
loop_
_atom_site_label
_atom_site_type_symbol
_atom_site_fract_x
_atom_site_fract_y
_atom_site_fract_z
Sm1 Sm -0.012981(15) 0.550314(14) 0.627910(11)
P1 P 0.14337(8) 0.71804(7) 0.72571(6)
O1 O -0.0506(2) 0.5771(2) 1.21580(16)
O2 O 0.7638(2) 0.5637(2) 0.40789(16)
O3 O -0.0694(2) 1.3198(2) 0.51873(15)
O4 O 0.1706(2) 0.4585(2) 1.20203(16)
O5 O -0.0367(3) 1.3496(2) 0.65304(16)
C1 C 0.1305(3) 0.6659(3) 0.8545(2)
C2 C 0.4870(3) 0.6399(3) 0.5097(2)
H1 H 0.5062 0.6343 0.4431
C3 C 0.0782(3) 0.8863(3) 0.7014(2)
C4 C 0.3238(3) 0.6761(3) 0.6620(2)
C5 C -0.0121(4) 0.9451(3) 0.6390(2)
H2 H -0.0461 0.8973 0.6169
C6 C 0.3521(3) 0.6663(3) 0.5643(2)
H3 H 0.2788 0.6778 0.5357
C7 C 0.5952(3) 0.6214(3) 0.5513(2)
C8 C 0.0285(4) 0.7390(3) 0.9182(2)
H4 H -0.0278 0.8201 0.8932
C9 C 0.5678(3) 0.6303(3) 0.6483(2)
H5 H 0.6416 0.6169 0.6770
C10 C 0.4305(3) 0.6591(3) 0.7039(2)
H6 H 0.4108 0.6668 0.7700
C11 C 0.1255(4) 0.9574(3) 0.7358(3)
H7 H 0.1875 0.9173 0.7785
C12 C 0.0917(3) 0.5794(3) 1.0550(2)
C13 C 0.0698(4) 0.5351(3) 1.1641(2)
C14 C 0.1931(4) 0.5034(3) 0.9917(2)
H8 H 0.2501 0.4227 1.0167
C15 C 0.0076(4) 0.6954(3) 1.0182(2)
H9 H -0.0646 0.7454 1.0614
O6 O 0.8401(2) 0.5757(2) 0.52674(17)
C16 C -0.0051(3) 1.1446(3) 0.6416(2)
C17 C -0.0528(4) 1.0736(3) 0.6089(2)
H10 H -0.1138 1.1134 0.5654
C18 C 0.0815(4) 1.0862(3) 0.7073(3)
H11 H 0.1104 1.1348 0.7325
C19 C -0.0408(3) 1.2827(3) 0.6022(2)
C20 C 0.7417(3) 0.5865(3) 0.4912(2)
O7 O 0.0649(2) 0.6699(2) 0.68724(15)
C21 C 0.2098(4) 0.5470(3) 0.8919(2)
H12 H 0.2768 0.4945 0.8484
O8 O -0.1960(3) 0.7579(2) 0.6299(2)
C22 C -0.2907(6) 0.8241(5) 0.6724(5)
H13 H -0.3176 0.7971 0.7409
N1 N -0.3692(6) 0.9412(5) 0.6314(5)
C23 C -0.3319(8) 0.9889(8) 0.5294(6)
H14 H -0.2823 1.0469 0.5192
H15 H -0.4161 1.0329 0.5037
H16 H -0.2717 0.9197 0.4952
C24 C -0.4935(13) 1.0188(12) 0.6858(11)
H17 H -0.5741 1.0246 0.6646
H18 H -0.4880 1.1024 0.6744
H19 H -0.5033 0.9824 0.7556
Sm1A Sm 0.012981(15) 0.449686(14) 1.372090(11)
Sm1_2 Sm -1.012981(15) 0.550314(14) 1.627910(11)
Sm1_3 Sm -0.012981(15) -0.449686(14) 1.627910(11)
Sm1_4 Sm -0.012981(15) 1.550314(14) 0.627910(11)
Sm1_5 Sm 0.987019(15) 0.550314(14) 0.627910(11)
Sm1A_2 Sm -0.987019(15) 0.449686(14) 1.372090(11)
Sm1A_3 Sm 0.012981(15) -0.550314(14) 1.372090(11)
Sm1A_4 Sm 0.012981(15) 1.449686(14) 0.372090(11)
Sm1A_5 Sm 1.012981(15) 0.449686(14) 0.372090(11)
P1A P -0.14337(8) 0.28196(7) 1.27429(6)
O1A O 0.0506(2) 0.4229(2) 0.78420(16)
O2A O -0.7638(2) 0.4363(2) 1.59211(16)
O2_2 O -0.2362(2) 0.5637(2) 1.40789(16)
O2A_2 O 0.2362(2) 0.4363(2) 0.59211(16)
O3A O 0.0694(2) -0.3198(2) 1.48127(15)
O3_2 O -0.0694(2) 0.3198(2) 1.51873(15)
O3A_2 O 0.0694(2) 0.6802(2) 0.48127(15)
O4A O -0.1706(2) 0.5415(2) 0.79797(16)
O5A O 0.0367(3) -0.3496(2) 1.34696(16)
O5_2 O -0.0367(3) 0.3496(2) 0.65304(16)
O5A_2 O 0.0367(3) 0.6504(2) 1.34696(16)
C1A C -0.1305(3) 0.3341(3) 1.1455(2)
C2A C -0.4870(3) 0.3601(3) 1.4903(2)
H1A H -0.5062 0.3657 1.5569
C3A C -0.0782(3) 0.1137(3) 1.2986(2)
C4A C -0.3238(3) 0.3239(3) 1.3380(2)
C5A C 0.0121(4) 0.0549(3) 1.3610(2)
H2A H 0.0461 0.1027 1.3831
C6A C -0.3521(3) 0.3337(3) 1.4357(2)
H3A H -0.2788 0.3222 1.4643
C7A C -0.5952(3) 0.3786(3) 1.4487(2)
C8A C -0.0285(4) 0.2610(3) 1.0818(2)
H4A H 0.0278 0.1799 1.1068
C9A C -0.5678(3) 0.3697(3) 1.3517(2)
H5A H -0.6416 0.3831 1.3230
C10A C -0.4305(3) 0.3409(3) 1.2961(2)
H6A H -0.4108 0.3332 1.2300
C11A C -0.1255(4) 0.0426(3) 1.2642(3)
H7A H -0.1875 0.0827 1.2215
C12A C -0.0917(3) 0.4206(3) 0.9450(2)
C13A C -0.0698(4) 0.4649(3) 0.8359(2)
C14A C -0.1931(4) 0.4966(3) 1.0083(2)
H8A H -0.2501 0.5773 0.9833
C15A C -0.0076(4) 0.3046(3) 0.9818(2)
H9A H 0.0646 0.2546 0.9386
O6A O -0.8401(2) 0.4243(2) 1.47326(17)
O6_2 O -0.1599(2) 0.5757(2) 0.52674(17)
O6_3 O -0.1599(2) 0.5757(2) 1.52674(17)
O6A_2 O 0.1599(2) 0.4243(2) 0.47326(17)
O6A_3 O 0.1599(2) 0.4243(2) 1.47326(17)
C16A C 0.0051(3) -0.1446(3) 1.3584(2)
C17A C 0.0528(4) -0.0736(3) 1.3911(2)
H10A H 0.1138 -0.1134 1.4346
C18A C -0.0815(4) -0.0862(3) 1.2927(3)
H11A H -0.1104 -0.1348 1.2675
C19A C 0.0408(3) -0.2827(3) 1.3978(2)
C20A C -0.7417(3) 0.4135(3) 1.5088(2)
O7A O -0.0649(2) 0.3301(2) 1.31276(15)
C21A C -0.2098(4) 0.4530(3) 1.1081(2)
H12A H -0.2768 0.5055 1.1516
O8A O 0.1960(3) 0.2421(2) 1.3701(2)
C22A C 0.2907(6) 0.1759(5) 1.3276(5)
H13A H 0.3176 0.2029 1.2591
N1A N 0.3692(6) 0.0588(5) 1.3686(5)
C23A C 0.3319(8) 0.0111(8) 1.4706(6)
H14A H 0.2823 -0.0469 1.4808
H15A H 0.4161 -0.0329 1.4963
H16A H 0.2717 0.0803 1.5048
C24A C 0.4935(13) -0.0188(12) 1.3142(11)
H17A H 0.5741 -0.0246 1.3354
H18A H 0.4880 -0.1024 1.3256
H19A H 0.5033 0.0176 1.2444
loop_
_geom_bond_atom_site_label_1
_geom_bond_atom_site_label_2
_geom_bond_site_symmetry_1
_geom_bond_site_symmetry_2
Sm1 O7 1_555 1_555
P1 C1 1_555 1_555
O1 C13 1_555 1_555
O2 C20 1_555 1_555
O3 C19 1_555 1_555
O4 C13 1_555 1_555
O5 C19 1_555 1_555
C1 C8 1_555 1_555
C2 H1 1_555 1_555
C3 P1 1_555 1_555
C4 P1 1_555 1_555
C5 C3 1_555 1_555
H2 C5 1_555 1_555
C6 C2 1_555 1_555
H3 C6 1_555 1_555
C7 C2 1_555 1_555
C8 H4 1_555 1_555
C9 C7 1_555 1_555
H5 C9 1_555 1_555
C10 C4 1_555 1_555
H6 C10 1_555 1_555
C11 C3 1_555 1_555
H7 C11 1_555 1_555
C12 C13 1_555 1_555
C14 C12 1_555 1_555
H8 C14 1_555 1_555
C15 C8 1_555 1_555
H9 C15 1_555 1_555
O6 C20 1_555 1_555
C16 C17 1_555 1_555
C17 C5 1_555 1_555
H10 C17 1_555 1_555
C18 C11 1_555 1_555
H11 C18 1_555 1_555
C19 C16 1_555 1_555
C20 C7 1_555 1_555
O7 P1 1_555 1_555
C21 C1 1_555 1_555
H12 C21 1_555 1_555
O8 Sm1 1_555 1_555
C22 O8 1_555 1_555
H13 C22 1_555 1_555
N1 C22 1_555 1_555
C23 N1 1_555 1_555
H14 C23 1_555 1_555
H15 C23 1_555 1_555
H16 C23 1_555 1_555
C24 N1 1_555 1_555
H17 C24 1_555 1_555
H18 C24 1_555 1_555
H19 C24 1_555 1_555
Sm1A O1 1_555 1_555
Sm1_2 O2A 1_555 1_555
Sm1_3 O3A 1_555 1_555
Sm1_4 O5 1_555 1_555
Sm1_5 O6 1_555 1_555
Sm1A_2 O6A 1_555 1_555
Sm1A_3 O5A 1_555 1_555
Sm1A_4 O3 1_555 1_555
Sm1A_5 O2 1_555 1_555
P1A C1A 1_555 1_555
O1A Sm1 1_555 1_555
O2A C20A 1_555 1_555
O2_2 Sm1A 1_555 1_555
O2A_2 Sm1 1_555 1_555
O3A C19A 1_555 1_555
O3_2 Sm1A 1_555 1_555
O3A_2 Sm1 1_555 1_555
O4A Sm1 1_555 1_555
O5A C19A 1_555 1_555
O5_2 Sm1 1_555 1_555
O5A_2 Sm1A 1_555 1_555
C1A C8A 1_555 1_555
C2A H1A 1_555 1_555
C3A P1A 1_555 1_555
C4A P1A 1_555 1_555
C5A C3A 1_555 1_555
H2A C5A 1_555 1_555
C6A C2A 1_555 1_555
H3A C6A 1_555 1_555
C7A C2A 1_555 1_555
C8A H4A 1_555 1_555
C9A C7A 1_555 1_555
H5A C9A 1_555 1_555
C10A C4A 1_555 1_555
H6A C10A 1_555 1_555
C11A C3A 1_555 1_555
H7A C11A 1_555 1_555
C12A C13A 1_555 1_555
C13A O1A 1_555 1_555
C14A C12A 1_555 1_555
H8A C14A 1_555 1_555
C15A C8A 1_555 1_555
H9A C15A 1_555 1_555
O6A Sm1_2 1_555 1_555
O6_2 Sm1 1_555 1_555
O6_3 Sm1A 1_555 1_555
O6A_2 Sm1 1_555 1_555
O6A_3 Sm1A 1_555 1_555
C16A C17A 1_555 1_555
C17A C5A 1_555 1_555
H10A C17A 1_555 1_555
C18A C11A 1_555 1_555
H11A C18A 1_555 1_555
C19A C16A 1_555 1_555
C20A C7A 1_555 1_555
O7A Sm1A 1_555 1_555
C21A C1A 1_555 1_555
H12A C21A 1_555 1_555
O8A Sm1A 1_555 1_555
C22A O8A 1_555 1_555
H13A C22A 1_555 1_555
N1A C22A 1_555 1_555
C23A N1A 1_555 1_555
H14A C23A 1_555 1_555
H15A C23A 1_555 1_555
H16A C23A 1_555 1_555
C24A N1A 1_555 1_555
H17A C24A 1_555 1_555
H18A C24A 1_555 1_555
H19A C24A 1_555 1_555
O4 Sm1A 1_555 1_555
C4 C6 1_555 1_555
C9 C10 1_555 1_555
C12 C15 1_555 1_555
C14 C21 1_555 1_555
O6 Sm1A_5 1_555 1_555
C16 C18 1_555 1_555
P1A O7A 1_555 1_555
O4A C13A 1_555 1_555
C4A C6A 1_555 1_555
C9A C10A 1_555 1_555
C12A C15A 1_555 1_555
C14A C21A 1_555 1_555
O6A C20A 1_555 1_555
C16A C18A 1_555 1_555

#END
