
#######################################################################
#
#                 Cambridge Crystallographic Data Centre
#                                CCDC 
#
#######################################################################
#
# If this CIF has been generated from an entry in the Cambridge 
# Structural Database, then it will include bibliographic, chemical, 
# crystal, experimental, refinement or atomic coordinate data resulting 
# from the CCDC's data processing and validation procedures.
#
#######################################################################

data_DEXZIR
_chemical_formula_moiety         '(C22 H28 Eu1 I4 O16)n'
_symmetry_cell_setting           monoclinic
_symmetry_space_group_name_H-M   'P 21/n'
_symmetry_Int_Tables_number      14
_space_group_name_Hall           '-P 2yn'
loop_
_symmetry_equiv_pos_site_id
_symmetry_equiv_pos_as_xyz
1 x,y,z
2 1/2-x,1/2+y,1/2-z
3 -x,-y,-z
4 1/2+x,1/2-y,1/2+z
_cell_length_a                   12.6453(14)
_cell_length_b                   9.6931(10)
_cell_length_c                   26.411(3)
_cell_angle_alpha                90
_cell_angle_beta                 91.391(2)
_cell_angle_gamma                90
_cell_volume                     3236.3
loop_
_atom_site_label
_atom_site_type_symbol
_atom_site_fract_x
_atom_site_fract_y
_atom_site_fract_z
C1 C 0.4050(4) 0.6124(5) 0.44163(18)
C2 C 0.4867(4) 0.7082(6) 0.44566(19)
C3 C 0.5195(4) 0.7606(5) 0.49223(19)
H1 H 0.5743 0.8276 0.4939
C4 C 0.4734(4) 0.7163(6) 0.53637(19)
C5 C 0.3936(4) 0.6180(6) 0.53297(19)
H2 H 0.3625 0.5845 0.5630
C6 C 0.3589(4) 0.5683(5) 0.48614(19)
C7 C 0.2850(4) 0.6353(6) 0.37369(19)
H3 H 0.3080 0.7297 0.3648
H4 H 0.2283 0.6428 0.3988
C8 C 0.2430(4) 0.5631(5) 0.32700(18)
C9 C 0.5116(4) 0.7692(6) 0.5871(2)
H5 H 0.5658 0.8412 0.5818
H6 H 0.5457 0.6927 0.6062
C10 C 0.4235(4) 0.8295(6) 0.6186(2)
H7 H 0.3949 0.9123 0.6011
H8 H 0.3655 0.7611 0.6202
C11 C 0.4562(4) 0.8691(6) 0.6717(2)
C12 C 0.0758(4) 1.1294(5) 0.44799(18)
C13 C 0.1379(4) 1.0749(5) 0.48747(19)
C14 C 0.1201(4) 1.1107(6) 0.53763(19)
H9 H 0.1625 1.0712 0.5640
C15 C 0.0402(4) 1.2043(6) 0.5495(2)
C16 C -0.0192(4) 1.2616(6) 0.5100(2)
H10 H -0.0723 1.3277 0.5170
C17 C -0.0018(4) 1.2231(6) 0.46046(19)
C18 C 0.1590(4) 1.1623(6) 0.36943(18)
H11 H 0.2276 1.1708 0.3880
H12 H 0.1306 1.2563 0.3634
C19 C 0.1751(4) 1.0907(5) 0.31925(18)
C20 C 0.0139(5) 1.2420(8) 0.6031(2)
H13 H -0.0411 1.3147 0.6020
H14 H -0.0169 1.1600 0.6196
C21 C 0.1041(5) 1.2917(8) 0.6352(2)
H15 H 0.1318 1.3779 0.6204
H16 H 0.1613 1.2221 0.6347
C22 C 0.0752(4) 1.3186(6) 0.6893(2)
Eu1 Eu 0.141728(19) 0.80292(3) 0.246719(9)
I1 I 0.23657(3) 0.42339(4) 0.482844(15)
I2 I 0.56591(3) 0.76417(5) 0.380096(15)
I3 I 0.26006(3) 0.93759(4) 0.471689(16)
I4 I -0.10227(4) 1.30373(5) 0.403364(16)
O1 O 0.3730(3) 0.5594(4) 0.39537(13)
O2 O 0.1653(3) 0.6232(4) 0.30512(12)
O3 O 0.2850(3) 0.4536(4) 0.31313(13)
O4 O 0.5452(3) 0.8479(4) 0.68916(13)
O5 O 0.3810(3) 0.9235(5) 0.69705(15)
O6 O 0.0863(3) 1.0840(4) 0.39905(13)
O7 O 0.1289(3) 0.9809(4) 0.30920(13)
O8 O 0.2393(3) 1.1501(4) 0.29120(14)
O9 O 0.0259(3) 1.2297(4) 0.71329(13)
O10 O 0.1039(4) 1.4330(4) 0.70874(14)
O11 O 0.3205(3) 0.8578(5) 0.28169(14)
H17 H 0.336(6) 0.940(4) 0.285(3)
H18 H 0.375(5) 0.826(9) 0.269(3)
O12 O 0.0065(3) 0.9515(5) 0.20456(17)
H19 H 0.029(6) 0.996(8) 0.180(2)
H20 H -0.058(3) 0.942(8) 0.199(3)
Eu1A Eu 0.358272(19) 0.30292(3) 0.253281(9)
Eu1A_2 Eu 0.358272(19) 1.30292(3) 0.253281(9)
Eu1B Eu -0.141728(19) 1.19708(3) 0.753281(9)
Eu1C Eu 0.641728(19) 0.69708(3) 0.746719(9)
O3A O 0.2150(3) 0.9536(4) 0.18687(13)
O4C O 0.0452(3) 0.6521(4) 0.18916(13)
O8A O 0.2607(3) 0.6501(4) 0.20880(14)
O9B O -0.0259(3) 0.7703(4) 0.28671(13)
O13 O 0.7924(4) 0.9090(7) 0.1919(3)
O14 O 0.5030(5) 0.7933(8) 0.2337(2)
O15 O 0.7057(10) 0.782(2) 0.2749(6)
O16 O 0.6101(7) 0.5445(10) 0.1912(5)
loop_
_geom_bond_atom_site_label_1
_geom_bond_atom_site_label_2
_geom_bond_site_symmetry_1
_geom_bond_site_symmetry_2
C1 C2 1_555 1_555
C2 C3 1_555 1_555
C3 H1 1_555 1_555
C4 C3 1_555 1_555
C5 C4 1_555 1_555
H2 C5 1_555 1_555
C6 C1 1_555 1_555
C7 H3 1_555 1_555
H4 C7 1_555 1_555
C8 C7 1_555 1_555
C9 C4 1_555 1_555
H5 C9 1_555 1_555
H6 C9 1_555 1_555
C10 C9 1_555 1_555
H7 C10 1_555 1_555
H8 C10 1_555 1_555
C11 C10 1_555 1_555
C12 C13 1_555 1_555
C13 C14 1_555 1_555
C14 H9 1_555 1_555
C15 C14 1_555 1_555
C16 C15 1_555 1_555
H10 C16 1_555 1_555
C17 C12 1_555 1_555
C18 H11 1_555 1_555
H12 C18 1_555 1_555
C19 C18 1_555 1_555
C20 C15 1_555 1_555
H13 C20 1_555 1_555
H14 C20 1_555 1_555
C21 C20 1_555 1_555
H15 C21 1_555 1_555
H16 C21 1_555 1_555
C22 C21 1_555 1_555
Eu1 O2 1_555 1_555
I1 C6 1_555 1_555
I2 C2 1_555 1_555
I3 C13 1_555 1_555
I4 C17 1_555 1_555
O1 C1 1_555 1_555
O2 C8 1_555 1_555
O3 C8 1_555 1_555
O4 C11 1_555 1_555
O5 C11 1_555 1_555
O6 C12 1_555 1_555
O7 C19 1_555 1_555
O8 C19 1_555 1_555
O9 C22 1_555 1_555
O10 C22 1_555 1_555
O11 Eu1 1_555 1_555
H17 O11 1_555 1_555
H18 O11 1_555 1_555
O12 Eu1 1_555 1_555
H19 O12 1_555 1_555
H20 O12 1_555 1_555
Eu1A O3 1_555 1_555
Eu1A_2 O8 1_555 1_555
Eu1B O9 1_555 1_555
Eu1C O4 1_555 1_555
O3A Eu1 1_555 1_555
O4C Eu1 1_555 1_555
O8A Eu1 1_555 1_555
O9B Eu1 1_555 1_555
C5 C6 1_555 1_555
C7 O1 1_555 1_555
C16 C17 1_555 1_555
C18 O6 1_555 1_555
Eu1 O7 1_555 1_555

#END
