
#######################################################################
#
#                 Cambridge Crystallographic Data Centre
#                                CCDC 
#
#######################################################################
#
# If this CIF has been generated from an entry in the Cambridge 
# Structural Database, then it will include bibliographic, chemical, 
# crystal, experimental, refinement or atomic coordinate data resulting 
# from the CCDC's data processing and validation procedures.
#
#######################################################################

data_IQOHUT
_chemical_formula_moiety         '(C69 H73 Co2 N9 O17)n'
_symmetry_cell_setting           triclinic
_symmetry_space_group_name_H-M   'P -1'
_symmetry_Int_Tables_number      2
_space_group_name_Hall           '-P 1'
loop_
_symmetry_equiv_pos_site_id
_symmetry_equiv_pos_as_xyz
1 x,y,z
2 -x,-y,-z
_cell_length_a                   11.2867(11)
_cell_length_b                   13.8357(13)
_cell_length_c                   14.8608(14)
_cell_angle_alpha                85.2090(10)
_cell_angle_beta                 69.7420(10)
_cell_angle_gamma                73.9090(10)
_cell_volume                     2091.61
loop_
_atom_site_label
_atom_site_type_symbol
_atom_site_fract_x
_atom_site_fract_y
_atom_site_fract_z
O1 O 0.3462(3) 0.37821(18) 0.83165(17)
H1 H 0.3650 0.3150 0.8399
H2 H 0.3378 0.3907 0.7769
C1 C 0.4790(3) 0.3353(2) 0.15015(19)
C2 C 0.5351(3) 0.2737(2) 0.22208(19)
C3 C 0.4743(3) 0.2044(2) 0.2794(2)
H3 H 0.3966 0.1976 0.2755
C4 C 0.5299(3) 0.1454(2) 0.3424(2)
H4 H 0.4886 0.0998 0.3812
C5 C 0.6464(3) 0.1543(2) 0.34740(19)
C6 C 0.7063(3) 0.2241(2) 0.2919(2)
H5 H 0.7840 0.2308 0.2961
C7 C 0.6500(3) 0.2843(2) 0.2298(2)
H6 H 0.6895 0.3320 0.1932
C8 C 0.4968(3) 0.1050(2) 0.81511(19)
C9 C 0.5482(3) 0.1013(2) 0.70819(19)
C10 C 0.4925(3) 0.1737(2) 0.6534(2)
H7 H 0.4195 0.2254 0.6839
C11 C 0.5438(3) 0.1701(2) 0.5542(2)
H8 H 0.5050 0.2191 0.5187
C12 C 0.6542(3) 0.0926(2) 0.5068(2)
C13 C 0.7094(3) 0.0191(2) 0.5621(2)
H9 H 0.7817 -0.0333 0.5320
C14 C 0.6571(3) 0.0241(2) 0.6607(2)
H10 H 0.6953 -0.0250 0.6964
C15 C 1.2317(3) -0.4083(2) 0.1564(2)
H11 H 1.2223 -0.4729 0.1553
C16 C 1.1254(3) -0.3351(2) 0.2119(2)
H12 H 1.0469 -0.3504 0.2463
C17 C 1.1382(3) -0.2384(2) 0.2155(2)
C18 C 1.2596(3) -0.2221(2) 0.1656(2)
H13 H 1.2740 -0.1596 0.1688
C19 C 1.3589(3) -0.2989(2) 0.1110(2)
H14 H 1.4389 -0.2857 0.0768
C20 C 1.0261(3) -0.1550(2) 0.2689(2)
C21 C 0.8997(3) -0.1497(2) 0.2733(2)
H15 H 0.8843 -0.2007 0.2456
C22 C 0.7958(3) -0.0687(2) 0.3188(2)
H16 H 0.7113 -0.0658 0.3216
C23 C 0.8182(3) 0.0072(2) 0.35990(19)
C24 C 0.9434(3) 0.0027(2) 0.3573(2)
H17 H 0.9583 0.0536 0.3857
C25 C 1.0466(3) -0.0783(2) 0.3120(2)
H18 H 1.1307 -0.0815 0.3104
C26 C 0.2090(3) 0.0230(2) 1.0778(2)
H19 H 0.2190 0.0448 1.1316
C27 C 0.0851(3) 0.0285(2) 1.0797(2)
H20 H 0.0134 0.0538 1.1339
C28 C 0.0664(3) -0.0036(2) 1.0010(2)
C29 C 0.1782(3) -0.0417(3) 0.9234(2)
H21 H 0.1714 -0.0647 0.8689
C30 C 0.2991(3) -0.0452(3) 0.9274(2)
H22 H 0.3728 -0.0719 0.8749
Co1 Co 0.5000 -0.0000 1.0000
Co2 Co 0.5000 0.5000 0.0000
N1 N 0.7101(3) 0.08977(19) 0.40751(17)
N2 N 1.3471(2) -0.39110(18) 0.10415(17)
N3 N 0.3161(2) -0.01234(18) 1.00245(16)
O2 O 0.3874(2) 0.31170(15) 0.13453(14)
O3 O 0.5288(2) 0.40474(15) 0.11071(14)
O4 O 0.4047(2) 0.17878(16) 0.85768(14)
O5 O 0.55050(18) 0.03242(15) 0.85725(13)
O6 O 0.6037(2) -0.15168(15) 0.96174(14)
H23 H 0.6831 -0.1606 0.9574
H24 H 0.5692 -0.1900 1.0044
O7 O 0.64671(19) 0.56065(14) 0.00610(14)
H25 H 0.6569 0.6063 -0.0357
H26 H 0.6248 0.5859 0.0616
C26A C -0.2090(3) -0.0230(2) 0.9222(2)
H19A H -0.2190 -0.0448 0.8684
C27A C -0.0851(3) -0.0285(2) 0.9203(2)
H20A H -0.0134 -0.0538 0.8661
C28A C -0.0664(3) 0.0036(2) 0.9990(2)
C29A C -0.1782(3) 0.0417(3) 1.0766(2)
H21A H -0.1714 0.0647 1.1311
C30A C -0.2991(3) 0.0452(3) 1.0726(2)
H22A H -0.3728 0.0719 1.1251
N3A N -0.3161(2) 0.01234(18) 0.99755(16)
C1A C 0.5210(3) -0.3353(2) 1.84985(19)
C2A C 0.4649(3) -0.2737(2) 1.77792(19)
C3A C 0.5257(3) -0.2044(2) 1.7206(2)
H3A H 0.6034 -0.1976 1.7245
C4A C 0.4701(3) -0.1454(2) 1.6576(2)
H4A H 0.5114 -0.0998 1.6188
C5A C 0.3536(3) -0.1543(2) 1.65260(19)
C6A C 0.2937(3) -0.2241(2) 1.7081(2)
H5A H 0.2160 -0.2308 1.7039
C7A C 0.3500(3) -0.2843(2) 1.7702(2)
H6A H 0.3105 -0.3320 1.8068
C8A C 0.5032(3) -0.1050(2) 1.18489(19)
C9A C 0.4518(3) -0.1013(2) 1.29181(19)
C10A C 0.5075(3) -0.1737(2) 1.3466(2)
H7A H 0.5805 -0.2254 1.3161
C11A C 0.4562(3) -0.1701(2) 1.4458(2)
H8A H 0.4950 -0.2191 1.4813
C12A C 0.3458(3) -0.0926(2) 1.4932(2)
C13A C 0.2906(3) -0.0191(2) 1.4379(2)
H9A H 0.2183 0.0333 1.4680
C14A C 0.3429(3) -0.0241(2) 1.3393(2)
H10A H 0.3047 0.0250 1.3036
C15A C -0.2317(3) 0.4083(2) 1.8436(2)
H11A H -0.2223 0.4729 1.8447
C16A C -0.1254(3) 0.3351(2) 1.7881(2)
H12A H -0.0469 0.3504 1.7537
C17A C -0.1382(3) 0.2384(2) 1.7845(2)
C18A C -0.2596(3) 0.2221(2) 1.8344(2)
H13A H -0.2740 0.1596 1.8312
C19A C -0.3589(3) 0.2989(2) 1.8890(2)
H14A H -0.4389 0.2857 1.9232
C20A C -0.0261(3) 0.1550(2) 1.7311(2)
C21A C 0.1003(3) 0.1497(2) 1.7267(2)
H15A H 0.1157 0.2007 1.7544
C22A C 0.2042(3) 0.0687(2) 1.6812(2)
H16A H 0.2887 0.0658 1.6784
C23A C 0.1818(3) -0.0072(2) 1.64010(19)
C24A C 0.0566(3) -0.0027(2) 1.6427(2)
H17A H 0.0417 -0.0536 1.6143
C25A C -0.0466(3) 0.0783(2) 1.6880(2)
H18A H -0.1307 0.0815 1.6896
N1A N 0.2899(3) -0.08977(19) 1.59249(17)
N2A N -0.3471(2) 0.39110(18) 1.89585(17)
O2A O 0.6126(2) -0.31170(15) 1.86547(14)
O3A O 0.4712(2) -0.40474(15) 1.88929(14)
O4A O 0.5953(2) -0.17878(16) 1.14232(14)
O5A O 0.44950(18) -0.03242(15) 1.14275(13)
O6A O 0.3963(2) 0.15168(15) 1.03826(14)
H23A H 0.3169 0.1606 1.0426
H24A H 0.4308 0.1900 0.9956
O7A O 0.35329(19) 0.43935(14) -0.00610(14)
H25A H 0.3431 0.3937 0.0357
H26A H 0.3752 0.4141 -0.0616
Co1_2 Co -0.5000 -0.0000 1.0000
Co2_2 Co -0.5000 0.5000 2.0000
Co2_3 Co 0.5000 -0.5000 2.0000
Co2_4 Co 1.5000 -0.5000 0.0000
N2_2 N 0.3471(2) 0.60890(18) 0.10415(17)
N2A_2 N 0.6529(2) 0.39110(18) -0.10415(17)
N3A_2 N 0.6839(2) 0.01234(18) 0.99755(16)
O3A_2 O 0.4712(2) 0.59526(15) -0.11071(14)
C31 C 0.0645(4) 0.3349(4) 0.1043(3)
H27 H 0.1409 0.2848 0.1000
C32 C -0.1045(4) 0.4122(3) 0.0343(3)
H28 H -0.1396 0.4530 0.0915
H29 H -0.1682 0.3799 0.0314
H30 H -0.0835 0.4538 -0.0208
C33 C 0.0756(4) 0.2660(3) -0.0437(3)
H31 H 0.1533 0.2208 -0.0366
H32 H 0.0985 0.3021 -0.1025
H33 H 0.0164 0.2284 -0.0450
N4 N 0.0136(3) 0.3361(2) 0.0356(2)
O8 O 0.0203(4) 0.3936(3) 0.1727(3)
C34 C 0.3874(8) 0.4479(6) 0.4727(5)
H34 H 0.4567 0.3984 0.4344
C35 C 0.2530(9) 0.6158(12) 0.4921(11)
H35 H 0.2786 0.6376 0.5405
H36 H 0.1799 0.5878 0.5221
H37 H 0.2283 0.6721 0.4539
C36 C 0.4246(8) 0.5632(6) 0.3499(5)
H38 H 0.3721 0.5868 0.3097
H39 H 0.4866 0.5002 0.3250
H40 H 0.4706 0.6117 0.3512
N5 N 0.3469(5) 0.5503(5) 0.4396(3)
O9 O 0.3235(6) 0.4329(6) 0.5539(3)
C37 C 0.0935(5) 0.2592(3) 0.3593(4)
H41 H 0.0882 0.2804 0.2994
C38 C 0.1516(6) 0.4112(4) 0.3661(4)
H42 H 0.1378 0.4207 0.3054
H43 H 0.2410 0.4080 0.3570
H44 H 0.0946 0.4664 0.4085
C39 C 0.1402(6) 0.2906(4) 0.4995(4)
H45 H 0.1055 0.2340 0.5239
H46 H 0.0946 0.3462 0.5438
H47 H 0.2318 0.2729 0.4916
N6 N 0.1234(3) 0.3186(2) 0.4075(2)
O10 O 0.0720(5) 0.1783(3) 0.3872(4)
O11 O 0.1537(3) 0.4299(2) 0.74081(19)
H48 H 0.1896 0.4275 0.6801
H49 H 0.1620 0.4814 0.7630
loop_
_geom_bond_atom_site_label_1
_geom_bond_atom_site_label_2
_geom_bond_site_symmetry_1
_geom_bond_site_symmetry_2
O1 H1 1_555 1_555
H2 O1 1_555 1_555
C1 C2 1_555 1_555
C2 C3 1_555 1_555
C3 H3 1_555 1_555
C4 C3 1_555 1_555
H4 C4 1_555 1_555
C5 C4 1_555 1_555
C6 C5 1_555 1_555
H5 C6 1_555 1_555
C7 C2 1_555 1_555
H6 C7 1_555 1_555
C8 C9 1_555 1_555
C9 C10 1_555 1_555
C10 H7 1_555 1_555
C11 C10 1_555 1_555
H8 C11 1_555 1_555
C12 C11 1_555 1_555
C13 C12 1_555 1_555
H9 C13 1_555 1_555
C14 C9 1_555 1_555
H10 C14 1_555 1_555
C15 H11 1_555 1_555
C16 C15 1_555 1_555
H12 C16 1_555 1_555
C17 C16 1_555 1_555
C18 C17 1_555 1_555
H13 C18 1_555 1_555
C19 C18 1_555 1_555
H14 C19 1_555 1_555
C20 C17 1_555 1_555
C21 C20 1_555 1_555
H15 C21 1_555 1_555
C22 C21 1_555 1_555
H16 C22 1_555 1_555
C23 C22 1_555 1_555
C24 C23 1_555 1_555
H17 C24 1_555 1_555
C25 C20 1_555 1_555
H18 C25 1_555 1_555
C26 H19 1_555 1_555
C27 C26 1_555 1_555
H20 C27 1_555 1_555
C28 C27 1_555 1_555
C29 C28 1_555 1_555
H21 C29 1_555 1_555
C30 C29 1_555 1_555
H22 C30 1_555 1_555
Co1 N3 1_555 1_555
Co2 O3 1_555 1_555
N1 C5 1_555 1_555
N2 C15 1_555 1_555
N3 C26 1_555 1_555
O2 C1 1_555 1_555
O3 C1 1_555 1_555
O4 C8 1_555 1_555
O5 C8 1_555 1_555
O6 Co1 1_555 1_555
H23 O6 1_555 1_555
H24 O6 1_555 1_555
O7 Co2 1_555 1_555
H25 O7 1_555 1_555
H26 O7 1_555 1_555
C31 H27 1_555 1_555
C32 H28 1_555 1_555
H29 C32 1_555 1_555
H30 C32 1_555 1_555
C33 H31 1_555 1_555
H32 C33 1_555 1_555
H33 C33 1_555 1_555
N4 C31 1_555 1_555
O8 C31 1_555 1_555
C34 H34 1_555 1_555
C35 H35 1_555 1_555
H36 C35 1_555 1_555
H37 C35 1_555 1_555
C36 H38 1_555 1_555
H39 C36 1_555 1_555
H40 C36 1_555 1_555
N5 C34 1_555 1_555
O9 C34 1_555 1_555
C37 H41 1_555 1_555
C38 H42 1_555 1_555
H43 C38 1_555 1_555
H44 C38 1_555 1_555
C39 H45 1_555 1_555
H46 C39 1_555 1_555
H47 C39 1_555 1_555
N6 C37 1_555 1_555
O10 C37 1_555 1_555
O11 H48 1_555 1_555
H49 O11 1_555 1_555
C26A H19A 1_555 1_555
C27A C26A 1_555 1_555
H20A C27A 1_555 1_555
C28A C28 1_555 1_555
C29A C28A 1_555 1_555
H21A C29A 1_555 1_555
C30A C29A 1_555 1_555
H22A C30A 1_555 1_555
N3A C26A 1_555 1_555
C1A C2A 1_555 1_555
C2A C3A 1_555 1_555
C3A H3A 1_555 1_555
C4A C3A 1_555 1_555
H4A C4A 1_555 1_555
C5A C4A 1_555 1_555
C6A C5A 1_555 1_555
H5A C6A 1_555 1_555
C7A C2A 1_555 1_555
H6A C7A 1_555 1_555
C8A C9A 1_555 1_555
C9A C10A 1_555 1_555
C10A H7A 1_555 1_555
C11A C10A 1_555 1_555
H8A C11A 1_555 1_555
C12A C11A 1_555 1_555
C13A C12A 1_555 1_555
H9A C13A 1_555 1_555
C14A C9A 1_555 1_555
H10A C14A 1_555 1_555
C15A H11A 1_555 1_555
C16A C15A 1_555 1_555
H12A C16A 1_555 1_555
C17A C16A 1_555 1_555
C18A C17A 1_555 1_555
H13A C18A 1_555 1_555
C19A C18A 1_555 1_555
H14A C19A 1_555 1_555
C20A C17A 1_555 1_555
C21A C20A 1_555 1_555
H15A C21A 1_555 1_555
C22A C21A 1_555 1_555
H16A C22A 1_555 1_555
C23A C22A 1_555 1_555
C24A C23A 1_555 1_555
H17A C24A 1_555 1_555
C25A C20A 1_555 1_555
H18A C25A 1_555 1_555
N1A C5A 1_555 1_555
N2A C15A 1_555 1_555
O2A C1A 1_555 1_555
O3A C1A 1_555 1_555
O4A C8A 1_555 1_555
O5A Co1 1_555 1_555
O6A Co1 1_555 1_555
H23A O6A 1_555 1_555
H24A O6A 1_555 1_555
O7A Co2 1_555 1_555
H25A O7A 1_555 1_555
H26A O7A 1_555 1_555
Co1_2 N3A 1_555 1_555
Co2_2 N2A 1_555 1_555
Co2_3 O3A 1_555 1_555
Co2_4 N2 1_555 1_555
N2_2 Co2 1_555 1_555
N2A_2 Co2 1_555 1_555
N3A_2 Co1 1_555 1_555
O3A_2 Co2 1_555 1_555
C6 C7 1_555 1_555
C12 N1 1_555 1_555
C13 C14 1_555 1_555
C19 N2 1_555 1_555
C23 N1 1_555 1_555
C24 C25 1_555 1_555
C30 N3 1_555 1_555
Co1 O5 1_555 1_555
C32 N4 1_555 1_555
C33 N4 1_555 1_555
C35 N5 1_555 1_555
C36 N5 1_555 1_555
C38 N6 1_555 1_555
C39 N6 1_555 1_555
C27A C28A 1_555 1_555
C30A N3A 1_555 1_555
C6A C7A 1_555 1_555
C8A O5A 1_555 1_555
C12A N1A 1_555 1_555
C13A C14A 1_555 1_555
C19A N2A 1_555 1_555
C23A N1A 1_555 1_555
C24A C25A 1_555 1_555

#END
