
#######################################################################
#
#                 Cambridge Crystallographic Data Centre
#                                CCDC 
#
#######################################################################
#
# If this CIF has been generated from an entry in the Cambridge 
# Structural Database, then it will include bibliographic, chemical, 
# crystal, experimental, refinement or atomic coordinate data resulting 
# from the CCDC's data processing and validation procedures.
#
#######################################################################

data_IQOHON
_chemical_formula_moiety         '(C70 H54 Co2 N8 O10)n'
_symmetry_cell_setting           monoclinic
_symmetry_space_group_name_H-M   'C 2/c'
_symmetry_Int_Tables_number      15
_space_group_name_Hall           '-C 2yc'
loop_
_symmetry_equiv_pos_site_id
_symmetry_equiv_pos_as_xyz
1 x,y,z
2 -x,y,1/2-z
3 1/2+x,1/2+y,z
4 1/2-x,1/2+y,1/2-z
5 -x,-y,-z
6 x,-y,1/2+z
7 1/2-x,1/2-y,-z
8 1/2+x,1/2-y,1/2+z
_cell_length_a                   28.520(4)
_cell_length_b                   9.9297(12)
_cell_length_c                   30.044(5)
_cell_angle_alpha                90
_cell_angle_beta                 116.466(2)
_cell_angle_gamma                90
_cell_volume                     7616.63
loop_
_atom_site_label
_atom_site_type_symbol
_atom_site_fract_x
_atom_site_fract_y
_atom_site_fract_z
_atom_site_U_iso_or_equiv
_atom_site_thermal_displace_type
C1 C 0.28334(15) 0.4628(3) 0.40617(12) 0.0471 Uani
C2 C 0.25889(13) 0.4819(3) 0.35141(11) 0.0418 Uani
C3 C 0.28932(13) 0.5103(3) 0.32739(12) 0.0521 Uani
H1 H 0.3256 0.5125 0.3456 0.0630 Uiso
C4 C 0.26711(13) 0.5353(4) 0.27714(12) 0.0540 Uani
H2 H 0.2884 0.5545 0.2618 0.0650 Uiso
C5 C 0.21359(13) 0.5321(3) 0.24944(12) 0.0455 Uani
C6 C 0.18297(13) 0.5001(4) 0.27299(13) 0.0619 Uani
H3 H 0.1468 0.4952 0.2547 0.0740 Uiso
C7 C 0.20576(14) 0.4758(4) 0.32310(12) 0.0586 Uani
H4 H 0.1846 0.4546 0.3383 0.0700 Uiso
C8 C 0.28665(13) 0.4363(4) 0.07315(12) 0.0479 Uani
C9 C 0.26388(12) 0.4711(3) 0.10787(11) 0.0413 Uani
C10 C 0.24531(14) 0.5978(4) 0.10900(13) 0.0567 Uani
H5 H 0.2485 0.6648 0.0889 0.0680 Uiso
C11 C 0.22222(14) 0.6276(3) 0.13892(13) 0.0570 Uani
H6 H 0.2099 0.7143 0.1389 0.0680 Uiso
C12 C 0.21702(12) 0.5308(4) 0.16900(11) 0.0471 Uani
C13 C 0.23678(14) 0.4031(4) 0.16928(13) 0.0561 Uani
H7 H 0.2345 0.3371 0.1902 0.0670 Uiso
C14 C 0.25956(14) 0.3739(4) 0.13913(13) 0.0544 Uani
H8 H 0.2724 0.2876 0.1394 0.0650 Uiso
C15 C -0.07859(15) 0.9506(5) 0.09156(15) 0.0795 Uani
H9 H -0.0964 0.9861 0.1084 0.0950 Uiso
C16 C -0.03146(15) 0.8894(5) 0.11945(15) 0.0827 Uani
H10 H -0.0190 0.8820 0.1537 0.0990 Uiso
C17 C -0.00293(15) 0.8395(4) 0.09704(14) 0.0712 Uani
C18 C -0.02488(19) 0.8544(7) 0.04650(17) 0.1468 Uani
H11 H -0.0075 0.8221 0.0289 0.1770 Uiso
C19 C -0.0728(2) 0.9174(6) 0.02155(18) 0.1409 Uani
H12 H -0.0862 0.9279 -0.0127 0.1690 Uiso
C20 C 0.04752(15) 0.7686(4) 0.12490(14) 0.0657 Uani
C21 C 0.06122(16) 0.6650(5) 0.10218(15) 0.0863 Uani
H13 H 0.0386 0.6418 0.0696 0.1030 Uiso
C22 C 0.10787(16) 0.5951(5) 0.12690(15) 0.0811 Uani
H14 H 0.1159 0.5242 0.1112 0.0980 Uiso
C23 C 0.14249(14) 0.6310(4) 0.17495(13) 0.0553 Uani
C24 C 0.12938(14) 0.7335(4) 0.19777(13) 0.0634 Uani
H15 H 0.1521 0.7581 0.2302 0.0760 Uiso
C25 C 0.08236(15) 0.8001(4) 0.17252(14) 0.0684 Uani
H16 H 0.0741 0.8694 0.1886 0.0820 Uiso
C26 C 0.33487(14) 0.1782(4) 0.53840(13) 0.0566 Uani
H17 H 0.3136 0.1946 0.5540 0.0680 Uiso
C27 C 0.37631(16) 0.2012(5) 0.49519(15) 0.0720 Uani
H18 H 0.3895 0.2383 0.4746 0.0860 Uiso
C28 C 0.38649(18) 0.0766(5) 0.51421(16) 0.0840 Uani
H19 H 0.4076 0.0126 0.5094 0.1000 Uiso
C29 C 0.36255(16) -0.0504(4) 0.57323(14) 0.0792 Uani
H20 H 0.3667 -0.1313 0.5572 0.0950 Uiso
H21 H 0.3288 -0.0569 0.5737 0.0950 Uiso
C30 C 0.40295(16) -0.0528(4) 0.62487(15) 0.0666 Uani
C31 C 0.40070(19) -0.1317(5) 0.65807(18) 0.0982 Uani
H22 H 0.3723 -0.1897 0.6486 0.1180 Uiso
C32 C 0.4387(2) -0.1338(5) 0.70712(18) 0.1110 Uani
H23 H 0.4344 -0.1924 0.7292 0.1330 Uiso
C33 C 0.48024(17) -0.0573(5) 0.72364(15) 0.0746 Uani
C34 C 0.4917(4) -0.0118(17) 0.6866(4) 0.0843 Uani
H24 H 0.5257 0.0143 0.6941 0.1020 Uiso
C35 C 0.4534(4) -0.0045(18) 0.6386(4) 0.0924 Uani
H25 H 0.4613 0.0338 0.6145 0.1110 Uiso
Co1 Co 0.322320(18) 0.46816(5) 0.497980(16) 0.0481 Uani
N1 N 0.34360(11) 0.2661(3) 0.51052(10) 0.0513 Uani
N2 N 0.35999(12) 0.0620(3) 0.54189(11) 0.0597 Uani
N3 N -0.10060(11) 0.9631(3) 0.04316(11) 0.0638 Uani
N4 N 0.19058(11) 0.5618(3) 0.19829(10) 0.0573 Uani
O1 O 0.33198(9) 0.4684(3) 0.43055(8) 0.0590 Uani
O2 O 0.25431(9) 0.4450(2) 0.42734(8) 0.0541 Uani
O3 O 0.29513(10) 0.3150(2) 0.06827(9) 0.0657 Uani
O4 O 0.29621(9) 0.5335(2) 0.05103(8) 0.0558 Uani
O5 O 0.30417(10) 0.6810(2) 0.48468(9) 0.0682 Uani
H26 H 0.3141 0.7201 0.5126 0.1020 Uiso
H27 H 0.2714 0.6926 0.4674 0.1020 Uiso
C26A C 0.66513(14) 0.1782(4) 0.96160(13) 0.0566 Uani
H17A H 0.6864 0.1946 0.9460 0.0680 Uiso
C27A C 0.62369(16) 0.2012(5) 1.00481(15) 0.0720 Uani
H18A H 0.6105 0.2383 1.0254 0.0860 Uiso
C28A C 0.61351(18) 0.0766(5) 0.98579(16) 0.0840 Uani
H19A H 0.5924 0.0126 0.9906 0.1000 Uiso
C29A C 0.63745(16) -0.0504(4) 0.92677(14) 0.0792 Uani
H20A H 0.6333 -0.1313 0.9428 0.0950 Uiso
H21A H 0.6712 -0.0569 0.9263 0.0950 Uiso
C30A C 0.59705(16) -0.0528(4) 0.87513(15) 0.0666 Uani
C31A C 0.59930(19) -0.1317(5) 0.84193(18) 0.0982 Uani
H22A H 0.6277 -0.1897 0.8514 0.1180 Uiso
C32A C 0.5613(2) -0.1338(5) 0.79288(18) 0.1110 Uani
H23A H 0.5656 -0.1924 0.7708 0.1330 Uiso
C33A C 0.51976(17) -0.0573(5) 0.77636(15) 0.0746 Uani
C34A C 0.5083(4) -0.0118(17) 0.8134(4) 0.0843 Uani
H24A H 0.4743 0.0143 0.8059 0.1020 Uiso
C35A C 0.5466(4) -0.0045(18) 0.8614(4) 0.0924 Uani
H25A H 0.5387 0.0338 0.8855 0.1110 Uiso
N1A N 0.65640(11) 0.2661(3) 0.98948(10) 0.0513 Uani
N2A N 0.64001(12) 0.0620(3) 0.95811(11) 0.0597 Uani
C1A C 0.71666(15) 0.4628(3) 1.09383(12) 0.0471 Uani
C2A C 0.74111(13) 0.4819(3) 1.14859(11) 0.0418 Uani
C3A C 0.71068(13) 0.5103(3) 1.17261(12) 0.0521 Uani
H1A H 0.6744 0.5125 1.1544 0.0630 Uiso
C4A C 0.73289(13) 0.5353(4) 1.22286(12) 0.0540 Uani
H2A H 0.7116 0.5545 1.2382 0.0650 Uiso
C5A C 0.78641(13) 0.5321(3) 1.25056(12) 0.0455 Uani
C6A C 0.81703(13) 0.5001(4) 1.22701(13) 0.0619 Uani
H3A H 0.8532 0.4952 1.2453 0.0740 Uiso
C7A C 0.79424(14) 0.4758(4) 1.17690(12) 0.0586 Uani
H4A H 0.8154 0.4546 1.1617 0.0700 Uiso
C8A C 0.71335(13) 0.4363(4) 1.42685(12) 0.0479 Uani
C9A C 0.73612(12) 0.4711(3) 1.39213(11) 0.0413 Uani
C10A C 0.75469(14) 0.5978(4) 1.39100(13) 0.0567 Uani
H5A H 0.7515 0.6648 1.4111 0.0680 Uiso
C11A C 0.77778(14) 0.6276(3) 1.36108(13) 0.0570 Uani
H6A H 0.7901 0.7143 1.3611 0.0680 Uiso
C12A C 0.78298(12) 0.5308(4) 1.33100(11) 0.0471 Uani
C13A C 0.76322(14) 0.4031(4) 1.33072(13) 0.0561 Uani
H7A H 0.7655 0.3371 1.3098 0.0670 Uiso
C14A C 0.74044(14) 0.3739(4) 1.36087(13) 0.0544 Uani
H8A H 0.7276 0.2876 1.3606 0.0650 Uiso
C15A C 1.07859(15) 0.9506(5) 1.40844(15) 0.0795 Uani
H9A H 1.0964 0.9861 1.3916 0.0950 Uiso
C16A C 1.03146(15) 0.8894(5) 1.38055(15) 0.0827 Uani
H10A H 1.0190 0.8820 1.3463 0.0990 Uiso
C17A C 1.00293(15) 0.8395(4) 1.40296(14) 0.0712 Uani
C18A C 1.02488(19) 0.8544(7) 1.45350(17) 0.1468 Uani
H11A H 1.0075 0.8221 1.4711 0.1770 Uiso
C19A C 1.0728(2) 0.9174(6) 1.47845(18) 0.1409 Uani
H12A H 1.0862 0.9279 1.5127 0.1690 Uiso
C20A C 0.95248(15) 0.7686(4) 1.37510(14) 0.0657 Uani
C21A C 0.93878(16) 0.6650(5) 1.39782(15) 0.0863 Uani
H13A H 0.9614 0.6418 1.4304 0.1030 Uiso
C22A C 0.89213(16) 0.5951(5) 1.37310(15) 0.0811 Uani
H14A H 0.8841 0.5242 1.3888 0.0980 Uiso
C23A C 0.85751(14) 0.6310(4) 1.32505(13) 0.0553 Uani
C24A C 0.87062(14) 0.7335(4) 1.30223(13) 0.0634 Uani
H15A H 0.8479 0.7581 1.2698 0.0760 Uiso
C25A C 0.91764(15) 0.8001(4) 1.32748(14) 0.0684 Uani
H16A H 0.9259 0.8694 1.3114 0.0820 Uiso
Co1A Co 0.677680(18) 0.46816(5) 1.002020(16) 0.0481 Uani
N3A N 1.10060(11) 0.9631(3) 1.45684(11) 0.0638 Uani
N4A N 0.80942(11) 0.5618(3) 1.30171(10) 0.0573 Uani
O1A O 0.66802(9) 0.4684(3) 1.06945(8) 0.0590 Uani
O2A O 0.74569(9) 0.4450(2) 1.07266(8) 0.0541 Uani
O3A O 0.70487(10) 0.3150(2) 1.43173(9) 0.0657 Uani
O4A O 0.70379(9) 0.5335(2) 1.44897(8) 0.0558 Uani
O5A O 0.69583(10) 0.6810(2) 1.01532(9) 0.0682 Uani
H26A H 0.6859 0.7201 0.9874 0.1020 Uiso
H27A H 0.7286 0.6926 1.0326 0.1020 Uiso
Co1D Co 0.677680(18) 0.53184(5) 1.502020(16) 0.0481 Uani
Co1E Co 0.322320(18) 0.53184(5) -0.002020(16) 0.0481 Uani
Co1F Co 1.177680(18) 1.03184(5) 1.502020(16) 0.0481 Uani
Co1G Co -0.177680(18) 1.03184(5) -0.002020(16) 0.0481 Uani
N3F N 0.60060(11) 0.5369(3) 0.95684(11) 0.0638 Uani
N3G N 0.39940(11) 0.5369(3) 0.54316(11) 0.0638 Uani
O4D O 0.70379(9) 0.4665(2) 0.94897(8) 0.0558 Uani
O4E O 0.29621(9) 0.4665(2) 0.55103(8) 0.0558 Uani
loop_
_atom_site_aniso_label
_atom_site_aniso_U_11
_atom_site_aniso_U_22
_atom_site_aniso_U_33
_atom_site_aniso_U_23
_atom_site_aniso_U_13
_atom_site_aniso_U_12
C1 0.059(2) 0.045(2) 0.0358(19) -0.0030(17) 0.0199(19) -0.003(2)
C2 0.050(2) 0.0410(19) 0.0336(17) 0.0013(15) 0.0178(17) 0.0010(17)
C3 0.042(2) 0.072(3) 0.040(2) 0.0018(18) 0.0162(17) 0.0015(18)
C4 0.053(2) 0.077(3) 0.039(2) 0.008(2) 0.0268(18) 0.001(2)
C5 0.048(2) 0.054(2) 0.0346(18) 0.0099(17) 0.0184(17) 0.0127(18)
C6 0.040(2) 0.099(3) 0.046(2) 0.018(2) 0.0184(18) 0.003(2)
C7 0.050(2) 0.087(3) 0.045(2) 0.021(2) 0.0268(19) 0.008(2)
C8 0.056(2) 0.052(3) 0.036(2) 0.0016(17) 0.0209(18) 0.0104(19)
C9 0.050(2) 0.0414(19) 0.0316(17) 0.0015(17) 0.0174(16) 0.0101(18)
C10 0.082(3) 0.048(2) 0.055(2) 0.0149(19) 0.044(2) 0.015(2)
C11 0.084(3) 0.044(2) 0.058(2) 0.0116(19) 0.045(2) 0.019(2)
C12 0.048(2) 0.061(2) 0.0320(18) 0.0091(18) 0.0176(16) 0.011(2)
C13 0.070(3) 0.057(2) 0.046(2) 0.0182(19) 0.030(2) 0.014(2)
C14 0.075(3) 0.045(2) 0.050(2) 0.0079(18) 0.034(2) 0.0140(19)
C15 0.061(3) 0.120(4) 0.051(3) -0.005(3) 0.019(2) 0.030(3)
C16 0.058(3) 0.139(4) 0.041(2) 0.006(2) 0.013(2) 0.039(3)
C17 0.061(3) 0.104(3) 0.049(2) 0.017(2) 0.025(2) 0.028(2)
C18 0.109(4) 0.286(8) 0.054(3) 0.049(4) 0.044(3) 0.127(5)
C19 0.113(4) 0.253(7) 0.056(3) 0.051(4) 0.037(3) 0.119(5)
C20 0.059(3) 0.089(3) 0.050(2) 0.013(2) 0.025(2) 0.028(2)
C21 0.063(3) 0.133(4) 0.045(2) 0.001(3) 0.008(2) 0.033(3)
C22 0.069(3) 0.111(4) 0.054(3) 0.000(3) 0.019(2) 0.037(3)
C23 0.052(2) 0.078(3) 0.036(2) 0.019(2) 0.0197(19) 0.019(2)
C24 0.058(3) 0.088(3) 0.040(2) 0.005(2) 0.018(2) 0.024(2)
C25 0.062(3) 0.091(3) 0.051(3) 0.000(2) 0.024(2) 0.021(2)
C26 0.063(3) 0.061(3) 0.042(2) -0.005(2) 0.020(2) -0.009(2)
C27 0.080(3) 0.088(3) 0.061(3) 0.010(2) 0.043(2) 0.012(3)
C28 0.096(3) 0.094(4) 0.068(3) 0.002(3) 0.042(3) 0.025(3)
C29 0.089(3) 0.064(3) 0.067(3) 0.004(2) 0.019(3) -0.010(2)
C30 0.074(3) 0.057(3) 0.052(3) 0.002(2) 0.013(2) -0.011(2)
C31 0.105(4) 0.095(4) 0.070(3) 0.009(3) 0.017(3) -0.042(3)
C32 0.134(5) 0.100(4) 0.067(3) 0.022(3) 0.016(3) -0.033(4)
C33 0.068(3) 0.082(3) 0.059(3) -0.003(2) 0.015(2) -0.008(3)
C34 0.059(5) 0.118(11) 0.067(6) 0.016(6) 0.020(5) -0.021(6)
C35 0.070(7) 0.137(13) 0.061(6) 0.030(7) 0.021(5) -0.033(7)
Co1 0.0523(3) 0.0596(3) 0.0332(3) -0.0046(2) 0.0199(2) -0.0140(3)
N1 0.0550(19) 0.062(2) 0.0381(17) -0.0024(15) 0.0219(15) -0.0067(16)
N2 0.071(2) 0.058(2) 0.0418(18) -0.0002(16) 0.0176(17) -0.0044(18)
N3 0.0603(19) 0.086(2) 0.0458(19) 0.0127(18) 0.0242(17) 0.0333(18)
N4 0.0551(19) 0.086(2) 0.0362(16) 0.0206(16) 0.0252(15) 0.0273(17)
O1 0.0533(16) 0.0859(18) 0.0325(13) -0.0004(13) 0.0144(12) -0.0110(15)
O2 0.0631(15) 0.0641(17) 0.0395(13) 0.0021(12) 0.0268(13) -0.0043(13)
O3 0.103(2) 0.0483(16) 0.0586(16) 0.0009(13) 0.0474(16) 0.0204(15)
O4 0.0779(17) 0.0524(15) 0.0498(15) 0.0045(13) 0.0399(14) 0.0101(14)
O5 0.0894(19) 0.0624(16) 0.0554(16) -0.0069(13) 0.0347(15) -0.0167(14)
C26A 0.063 0.061 0.042 0.005 0.02 0.009
C27A 0.08 0.088 0.061 -0.01 0.043 -0.012
C28A 0.096 0.094 0.068 -0.002 0.042 -0.025
C29A 0.089 0.064 0.067 -0.004 0.019 0.01
C30A 0.074 0.057 0.052 -0.002 0.013 0.011
C31A 0.105 0.095 0.07 -0.009 0.017 0.042
C32A 0.134 0.1 0.067 -0.022 0.016 0.033
C33A 0.068 0.082 0.059 0.003 0.015 0.008
C34A 0.059 0.118 0.067 -0.016 0.02 0.021
C35A 0.07 0.137 0.061 -0.03 0.021 0.033
N1A 0.055 0.062 0.0381 0.0024 0.0219 0.0067
N2A 0.071 0.058 0.0418 0.0002 0.0176 0.0044
C1A 0.059 0.045 0.0358 0.003 0.0199 0.003
C2A 0.05 0.041 0.0336 -0.0013 0.0178 -0.001
C3A 0.042 0.072 0.04 -0.0018 0.0162 -0.0015
C4A 0.053 0.077 0.039 -0.008 0.0268 -0.001
C5A 0.048 0.054 0.0346 -0.0099 0.0184 -0.0127
C6A 0.04 0.099 0.046 -0.018 0.0184 -0.003
C7A 0.05 0.087 0.045 -0.021 0.0268 -0.008
C8A 0.056 0.052 0.036 -0.0016 0.0209 -0.0104
C9A 0.05 0.0414 0.0316 -0.0015 0.0174 -0.0101
C10A 0.082 0.048 0.055 -0.0149 0.044 -0.015
C11A 0.084 0.044 0.058 -0.0116 0.045 -0.019
C12A 0.048 0.061 0.032 -0.0091 0.0176 -0.011
C13A 0.07 0.057 0.046 -0.0182 0.03 -0.014
C14A 0.075 0.045 0.05 -0.0079 0.034 -0.014
C15A 0.061 0.12 0.051 0.005 0.019 -0.03
C16A 0.058 0.139 0.041 -0.006 0.013 -0.039
C17A 0.061 0.104 0.049 -0.017 0.025 -0.028
C18A 0.109 0.286 0.054 -0.049 0.044 -0.127
C19A 0.113 0.253 0.056 -0.051 0.037 -0.119
C20A 0.059 0.089 0.05 -0.013 0.025 -0.028
C21A 0.063 0.133 0.045 -0.001 0.008 -0.033
C22A 0.069 0.111 0.054 0 0.019 -0.037
C23A 0.052 0.078 0.036 -0.019 0.0197 -0.019
C24A 0.058 0.088 0.04 -0.005 0.018 -0.024
C25A 0.062 0.091 0.051 0 0.024 -0.021
Co1A 0.0523 0.0596 0.0332 0.0046 0.0199 0.014
N3A 0.0603 0.086 0.0458 -0.0127 0.0242 -0.0333
N4A 0.0551 0.086 0.0362 -0.0206 0.0252 -0.0273
O1A 0.0533 0.0859 0.0325 0.0004 0.0144 0.011
O2A 0.0631 0.0641 0.0395 -0.0021 0.0268 0.0043
O3A 0.103 0.0483 0.0586 -0.0009 0.0474 -0.0204
O4A 0.0779 0.0524 0.0498 -0.0045 0.0399 -0.0101
O5A 0.0894 0.0624 0.0554 0.0069 0.0347 0.0167
Co1D 0.0523 0.0596 0.0332 -0.0046 0.0199 -0.014
Co1E 0.0523 0.0596 0.0332 0.0046 0.0199 0.014
Co1F 0.0523 0.0596 0.0332 -0.0046 0.0199 -0.014
Co1G 0.0523 0.0596 0.0332 0.0046 0.0199 0.014
N3F 0.0603 0.086 0.0458 0.0127 0.0242 0.0333
N3G 0.0603 0.086 0.0458 -0.0127 0.0242 -0.0333
O4D 0.0779 0.0524 0.0498 0.0045 0.0399 0.0101
O4E 0.0779 0.0524 0.0498 -0.0045 0.0399 -0.0101
loop_
_geom_bond_atom_site_label_1
_geom_bond_atom_site_label_2
_geom_bond_site_symmetry_1
_geom_bond_site_symmetry_2
C1 C2 1_555 1_555
C2 C3 1_555 1_555
C3 H1 1_555 1_555
C4 C3 1_555 1_555
H2 C4 1_555 1_555
C5 C4 1_555 1_555
C6 C5 1_555 1_555
H3 C6 1_555 1_555
C7 C2 1_555 1_555
H4 C7 1_555 1_555
C8 C9 1_555 1_555
C9 C10 1_555 1_555
C10 H5 1_555 1_555
C11 C10 1_555 1_555
H6 C11 1_555 1_555
C12 C11 1_555 1_555
C13 C12 1_555 1_555
H7 C13 1_555 1_555
C14 C9 1_555 1_555
H8 C14 1_555 1_555
C15 H9 1_555 1_555
C16 C15 1_555 1_555
H10 C16 1_555 1_555
C17 C16 1_555 1_555
C18 C17 1_555 1_555
H11 C18 1_555 1_555
C19 C18 1_555 1_555
H12 C19 1_555 1_555
C20 C17 1_555 1_555
C21 C20 1_555 1_555
H13 C21 1_555 1_555
C22 C21 1_555 1_555
H14 C22 1_555 1_555
C23 C22 1_555 1_555
C24 C23 1_555 1_555
H15 C24 1_555 1_555
C25 C20 1_555 1_555
H16 C25 1_555 1_555
C26 H17 1_555 1_555
C27 H18 1_555 1_555
C28 C27 1_555 1_555
H19 C28 1_555 1_555
C29 H20 1_555 1_555
H21 C29 1_555 1_555
C30 C29 1_555 1_555
C31 C30 1_555 1_555
H22 C31 1_555 1_555
C32 C31 1_555 1_555
H23 C32 1_555 1_555
C33 C32 1_555 1_555
C34 C33 1_555 1_555
H24 C34 1_555 1_555
C35 C30 1_555 1_555
H25 C35 1_555 1_555
Co1 N1 1_555 1_555
N1 C26 1_555 1_555
N2 C26 1_555 1_555
N3 C15 1_555 1_555
N4 C5 1_555 1_555
O1 C1 1_555 1_555
O2 C1 1_555 1_555
O3 C8 1_555 1_555
O4 C8 1_555 1_555
O5 Co1 1_555 1_555
H26 O5 1_555 1_555
H27 O5 1_555 1_555
C26A H17A 1_555 1_555
C27A H18A 1_555 1_555
C28A C27A 1_555 1_555
H19A C28A 1_555 1_555
C29A H20A 1_555 1_555
H21A C29A 1_555 1_555
C30A C29A 1_555 1_555
C31A C30A 1_555 1_555
H22A C31A 1_555 1_555
C32A C31A 1_555 1_555
H23A C32A 1_555 1_555
C33A C33 1_555 1_555
C34A C33A 1_555 1_555
H24A C34A 1_555 1_555
C35A C30A 1_555 1_555
H25A C35A 1_555 1_555
N1A C26A 1_555 1_555
N2A C26A 1_555 1_555
C1A C2A 1_555 1_555
C2A C3A 1_555 1_555
C3A H1A 1_555 1_555
C4A C3A 1_555 1_555
H2A C4A 1_555 1_555
C5A C4A 1_555 1_555
C6A C5A 1_555 1_555
H3A C6A 1_555 1_555
C7A C2A 1_555 1_555
H4A C7A 1_555 1_555
C8A C9A 1_555 1_555
C9A C10A 1_555 1_555
C10A H5A 1_555 1_555
C11A C10A 1_555 1_555
H6A C11A 1_555 1_555
C12A C11A 1_555 1_555
C13A C12A 1_555 1_555
H7A C13A 1_555 1_555
C14A C9A 1_555 1_555
H8A C14A 1_555 1_555
C15A H9A 1_555 1_555
C16A C15A 1_555 1_555
H10A C16A 1_555 1_555
C17A C16A 1_555 1_555
C18A C17A 1_555 1_555
H11A C18A 1_555 1_555
C19A C18A 1_555 1_555
H12A C19A 1_555 1_555
C20A C17A 1_555 1_555
C21A C20A 1_555 1_555
H13A C21A 1_555 1_555
C22A C21A 1_555 1_555
H14A C22A 1_555 1_555
C23A C22A 1_555 1_555
C24A C23A 1_555 1_555
H15A C24A 1_555 1_555
C25A C20A 1_555 1_555
H16A C25A 1_555 1_555
Co1A N1A 1_555 1_555
N3A C15A 1_555 1_555
N4A C5A 1_555 1_555
O1A C1A 1_555 1_555
O2A C1A 1_555 1_555
O3A C8A 1_555 1_555
O4A C8A 1_555 1_555
O5A Co1A 1_555 1_555
H26A O5A 1_555 1_555
H27A O5A 1_555 1_555
Co1D O4A 1_555 1_555
Co1E O4 1_555 1_555
Co1F N3A 1_555 1_555
Co1G N3 1_555 1_555
N3F Co1A 1_555 1_555
N3G Co1 1_555 1_555
O4D Co1A 1_555 1_555
O4E Co1 1_555 1_555
C6 C7 1_555 1_555
C12 N4 1_555 1_555
C13 C14 1_555 1_555
C19 N3 1_555 1_555
C23 N4 1_555 1_555
C24 C25 1_555 1_555
C27 N1 1_555 1_555
C28 N2 1_555 1_555
C29 N2 1_555 1_555
C34 C35 1_555 1_555
Co1 O1 1_555 1_555
Co1 O2 1_555 1_555
C27A N1A 1_555 1_555
C28A N2A 1_555 1_555
C29A N2A 1_555 1_555
C32A C33A 1_555 1_555
C34A C35A 1_555 1_555
C6A C7A 1_555 1_555
C12A N4A 1_555 1_555
C13A C14A 1_555 1_555
C19A N3A 1_555 1_555
C23A N4A 1_555 1_555
C24A C25A 1_555 1_555
Co1A O1A 1_555 1_555
Co1A O2A 1_555 1_555

#END
