
#######################################################################
#
#                 Cambridge Crystallographic Data Centre
#                                CCDC 
#
#######################################################################
#
# If this CIF has been generated from an entry in the Cambridge 
# Structural Database, then it will include bibliographic, chemical, 
# crystal, experimental, refinement or atomic coordinate data resulting 
# from the CCDC's data processing and validation procedures.
#
#######################################################################

data_IQOJEF
_chemical_formula_moiety         '(C124 H88 N16 O18 Zn4)n'
_symmetry_cell_setting           monoclinic
_symmetry_space_group_name_H-M   'P 21/c'
_symmetry_Int_Tables_number      14
_space_group_name_Hall           '-P 2ybc'
loop_
_symmetry_equiv_pos_site_id
_symmetry_equiv_pos_as_xyz
1 x,y,z
2 -x,1/2+y,1/2-z
3 -x,-y,-z
4 x,1/2-y,1/2+z
_cell_length_a                   14.2232(7)
_cell_length_b                   26.5395(14)
_cell_length_c                   19.4670(10)
_cell_angle_alpha                90
_cell_angle_beta                 107.7010(10)
_cell_angle_gamma                90
_cell_volume                     7000.44
loop_
_atom_site_label
_atom_site_type_symbol
_atom_site_fract_x
_atom_site_fract_y
_atom_site_fract_z
O9 O 0.3306(3) 0.54530(18) 0.5497(2)
H43 H 0.3541 0.5449 0.5145
H44 H 0.3563 0.5216 0.5788
O10 O 0.7323(4) 0.5268(3) 0.2377(3)
H45 H 0.6810 0.5100 0.2159
H46 H 0.7501 0.5444 0.2074
C1 C 0.8087(2) 0.42480(13) 1.12443(19)
C2 C 0.7165(2) 0.39537(12) 1.10770(17)
C3 C 0.6908(2) 0.36024(13) 1.0530(2)
H1 H 0.7334 0.3546 1.0257
C4 C 0.6050(2) 0.33357(13) 1.0375(2)
H2 H 0.5899 0.3104 0.9998
C5 C 0.5400(2) 0.34058(12) 1.07737(19)
C6 C 0.5654(2) 0.37527(14) 1.1333(2)
H3 H 0.5235 0.3805 1.1612
C7 C 0.6519(2) 0.40189(14) 1.14772(19)
H4 H 0.6677 0.4250 1.1854
C8 C 0.1315(2) 0.39362(12) 1.14823(17)
C9 C 0.21580(19) 0.37300(11) 1.12551(16)
C10 C 0.2534(2) 0.32598(12) 1.1487(2)
H5 H 0.2266 0.3071 1.1784
C11 C 0.3318(2) 0.30652(12) 1.1276(2)
H6 H 0.3578 0.2750 1.1439
C12 C 0.3703(2) 0.33393(12) 1.0829(2)
C13 C 0.3335(3) 0.38083(13) 1.0610(2)
H7 H 0.3603 0.3998 1.0313
C14 C 0.2568(2) 0.40033(13) 1.0824(2)
H8 H 0.2328 0.4324 1.0673
C15 C 0.4166(2) 0.03448(12) 0.92369(17)
H9 H 0.4286 0.0051 0.9510
C16 C 0.4252(2) 0.07954(11) 0.95929(16)
H10 H 0.4436 0.0803 1.0094
C17 C 0.4063(2) 0.12404(11) 0.92016(16)
C18 C 0.3791(3) 0.11966(12) 0.84634(18)
H11 H 0.3643 0.1483 0.8176
C19 C 0.3738(2) 0.07275(13) 0.81490(16)
H12 H 0.3563 0.0710 0.7649
C20 C 0.4164(2) 0.17321(11) 0.95726(17)
C21 C 0.4947(2) 0.18196(12) 1.01912(18)
H13 H 0.5398 0.1563 1.0377
C22 C 0.5069(2) 0.22797(12) 1.0535(2)
H14 H 0.5607 0.2333 1.0943
C23 C 0.4393(2) 0.26628(12) 1.0275(2)
C24 C 0.3598(2) 0.25712(13) 0.9683(2)
H15 H 0.3130 0.2823 0.9513
C25 C 0.3480(3) 0.21165(13) 0.9334(2)
H16 H 0.2933 0.2064 0.8932
C26 C 0.9169(3) 0.56593(13) 1.1260(2)
H17 H 0.8767 0.5575 1.1540
C27 C 0.9135(3) 0.61445(13) 1.1013(2)
H18 H 0.8716 0.6377 1.1126
C28 C 0.97242(19) 0.62907(11) 1.05926(15)
C29 C 1.0329(2) 0.59147(11) 1.04571(16)
H19 H 1.0742 0.5988 1.0180
C30 C 1.0321(2) 0.54438(11) 1.07251(17)
H20 H 1.0739 0.5204 1.0627
C31 C 0.9692(2) 0.68041(11) 1.02876(16)
C32 C 0.9195(2) 0.72004(13) 1.05035(19)
H21 H 0.8904 0.7145 1.0864
C33 C 0.9129(3) 0.76673(13) 1.0195(2)
H22 H 0.8797 0.7923 1.0352
C34 C 0.9546(2) 0.77643(12) 0.96581(18)
C35 C 1.0039(2) 0.73811(12) 0.94352(19)
H23 H 1.0322 0.7439 0.9071
C36 C 1.0113(2) 0.69093(12) 0.97513(17)
H24 H 1.0456 0.6657 0.9598
C37 C 0.5630(3) 0.9144(2) 0.8480(2)
C38 C 0.6649(2) 0.89265(18) 0.87072(19)
C39 C 0.6761(3) 0.84295(18) 0.8643(3)
H25 H 0.6202 0.8231 0.8456
C40 C 0.7665(2) 0.82033(15) 0.8840(3)
H26 H 0.7711 0.7857 0.8786
C41 C 0.8503(2) 0.84806(11) 0.91158(17)
C42 C 0.8418(2) 0.89869(14) 0.91958(19)
H27 H 0.8976 0.9186 0.9384
C43 C 0.7479(3) 0.92004(16) 0.8989(2)
H28 H 0.7421 0.9546 0.9048
C44 C 1.2717(2) 0.91306(11) 0.8657(2)
C45 C 1.18535(19) 0.88828(11) 0.88156(16)
C46 C 1.0912(2) 0.89200(13) 0.83362(17)
H29 H 1.0814 0.9087 0.7900
C47 C 1.0114(2) 0.87112(13) 0.84986(17)
H30 H 0.9484 0.8740 0.8173
C48 C 1.02479(19) 0.84600(11) 0.91434(17)
C49 C 1.1194(2) 0.84193(12) 0.96182(17)
H31 H 1.1296 0.8245 1.0049
C50 C 1.1987(2) 0.86346(11) 0.94579(17)
H32 H 1.2615 0.8611 0.9787
C51 C 0.9910(2) 0.47727(12) 1.30834(16)
H33 H 0.9231 0.4819 1.2960
C52 C 1.1455(2) 0.47173(17) 1.3713(2)
H34 H 1.2039 0.4711 1.4093
C53 C 1.1354(2) 0.46489(16) 1.3016(2)
H35 H 1.1873 0.4592 1.2828
C54 C 1.0852(2) 0.52090(13) 1.49138(16)
H36 H 1.1421 0.5348 1.4852
C55 C 1.0254(2) 0.49005(12) 1.43921(15)
C56 C 0.9403(2) 0.46914(12) 1.44730(17)
H37 H 0.9006 0.4485 1.4115
C57 C 1.2905(2) 0.95247(13) 0.64988(16)
H38 H 1.2332 0.9396 0.6568
C58 C 1.3067(2) 0.95758(13) 0.58603(17)
H39 H 1.2631 0.9495 0.5411
C59 C 1.4349(2) 0.98342(12) 0.67114(15)
H40 H 1.4971 0.9965 0.6947
C60 C 1.3992(2) 1.00618(13) 0.48131(16)
H41 H 1.3311 1.0103 0.4688
C61 C 1.4507(2) 0.98815(11) 0.54877(15)
C62 C 1.5516(2) 0.98196(13) 0.56733(16)
H42 H 1.5864 0.9698 0.6127
N1 N 0.39214(16) 0.03012(9) 0.85194(12)
N2 N 0.45054(19) 0.31405(10) 1.06189(19)
N3 N 0.97417(17) 0.53037(9) 1.11248(13)
N4 N 0.94460(17) 0.82431(9) 0.93259(16)
N5 N 1.03844(17) 0.46744(10) 1.26165(13)
N6 N 1.05183(17) 0.47986(10) 1.37550(13)
N7 N 1.37178(17) 0.96928(9) 0.70375(12)
N8 N 1.39952(18) 0.97684(10) 0.59948(12)
O1 O 0.87097(16) 0.41555(9) 1.09295(15)
O2 O 0.8236(2) 0.46004(12) 1.17101(15)
O3 O 0.09969(14) 0.43694(9) 1.12433(12)
O4 O 0.09607(19) 0.36861(10) 1.18796(15)
O5 O 1.26378(15) 0.92456(9) 0.80080(13)
O6 O 1.34826(15) 0.92226(8) 0.91596(13)
O7 O 0.5503(3) 0.95740(16) 0.85936(18)
O8 O 0.4908(2) 0.89054(17) 0.8170(2)
Zn1 Zn 1.39333(2) 0.958180(12) 0.810695(16)
Zn2 Zn 0.98604(2) 0.458556(12) 1.154388(18)
C51B C 1.0090(2) 0.52273(12) 1.69166(16)
H33B H 1.0769 0.5181 1.7040
C52B C 0.8545(2) 0.52827(17) 1.6287(2)
H34B H 0.7961 0.5289 1.5907
C53B C 0.8646(2) 0.53511(16) 1.6984(2)
H35B H 0.8127 0.5408 1.7172
C54B C 0.9148(2) 0.47910(13) 1.50862(16)
H36B H 0.8579 0.4652 1.5148
C55B C 0.9746(2) 0.50995(12) 1.56079(15)
C56B C 1.0597(2) 0.53086(12) 1.55270(17)
H37B H 1.0994 0.5515 1.5885
N5B N 0.96156(17) 0.53256(10) 1.73835(13)
N6B N 0.94817(17) 0.52014(10) 1.62450(13)
C57B C 1.7095(2) 1.04753(13) 0.35012(16)
H38B H 1.7668 1.0604 0.3432
C58B C 1.6933(2) 1.04242(13) 0.41397(17)
H39B H 1.7369 1.0505 0.4589
C59B C 1.5651(2) 1.01658(12) 0.32886(15)
H40B H 1.5029 1.0035 0.3053
C60B C 1.6008(2) 0.99382(13) 0.51869(16)
H41B H 1.6689 0.9897 0.5312
C61B C 1.5493(2) 1.01185(11) 0.45123(15)
C62B C 1.4484(2) 1.01804(13) 0.43267(16)
H42B H 1.4136 1.0302 0.3873
N7B N 1.62822(17) 1.03072(9) 0.29625(12)
N8B N 1.60048(18) 1.02316(10) 0.40052(12)
C1B C 1.1913(2) 0.57520(13) 1.87557(19)
C2B C 1.2835(2) 0.60463(12) 1.89230(17)
C3B C 1.3092(2) 0.63976(13) 1.9470(2)
H1B H 1.2666 0.6454 1.9743
C4B C 1.3950(2) 0.66643(13) 1.9625(2)
H2B H 1.4101 0.6896 2.0002
C5B C 1.4600(2) 0.65942(12) 1.92263(19)
C6B C 1.4346(2) 0.62473(14) 1.8667(2)
H3B H 1.4765 0.6195 1.8388
C7B C 1.3481(2) 0.59811(14) 1.85228(19)
H4B H 1.3323 0.5750 1.8146
C8B C 1.8685(2) 0.60638(12) 1.85177(17)
C9B C 1.78420(19) 0.62700(11) 1.87449(16)
C10B C 1.7466(2) 0.67402(12) 1.8513(2)
H5B H 1.7734 0.6929 1.8216
C11B C 1.6682(2) 0.69348(12) 1.8724(2)
H6B H 1.6422 0.7250 1.8561
C12B C 1.6297(2) 0.66607(12) 1.9171(2)
C13B C 1.6665(3) 0.61917(13) 1.9390(2)
H7B H 1.6397 0.6002 1.9687
C14B C 1.7432(2) 0.59967(13) 1.9176(2)
H8B H 1.7672 0.5676 1.9327
C15B C 1.5834(2) 0.96552(12) 2.07631(17)
H9B H 1.5714 0.9949 2.0490
C16B C 1.5748(2) 0.92046(11) 2.04071(16)
H10B H 1.5564 0.9197 1.9906
C17B C 1.5937(2) 0.87596(11) 2.07984(16)
C18B C 1.6209(3) 0.88034(12) 2.15366(18)
H11B H 1.6357 0.8517 2.1824
C19B C 1.6262(2) 0.92725(13) 2.18510(16)
H12B H 1.6437 0.9290 2.2351
C20B C 1.5836(2) 0.82679(11) 2.04274(17)
C21B C 1.5053(2) 0.81804(12) 1.98088(18)
H13B H 1.4602 0.8437 1.9623
C22B C 1.4931(2) 0.77203(12) 1.9465(2)
H14B H 1.4393 0.7667 1.9057
C23B C 1.5607(2) 0.73372(12) 1.9725(2)
C24B C 1.6402(2) 0.74288(13) 2.0317(2)
H15B H 1.6870 0.7177 2.0487
C25B C 1.6520(3) 0.78835(13) 2.0666(2)
H16B H 1.7067 0.7936 2.1068
C26B C 1.0831(3) 0.43407(13) 1.8740(2)
H17B H 1.1233 0.4425 1.8460
C27B C 1.0865(3) 0.38555(13) 1.8987(2)
H18B H 1.1284 0.3623 1.8874
C28B C 1.02758(19) 0.37093(11) 1.94074(15)
C29B C 0.9671(2) 0.40853(11) 1.95429(16)
H19B H 0.9258 0.4012 1.9820
C30B C 0.9679(2) 0.45562(11) 1.92749(17)
H20B H 0.9261 0.4796 1.9373
C31B C 1.0308(2) 0.31959(11) 1.97124(16)
C32B C 1.0805(2) 0.27996(13) 1.94965(19)
H21B H 1.1096 0.2855 1.9136
C33B C 1.0871(3) 0.23327(13) 1.9805(2)
H22B H 1.1203 0.2077 1.9648
C34B C 1.0454(2) 0.22357(12) 2.03419(18)
C35B C 0.9961(2) 0.26189(12) 2.05648(19)
H23B H 0.9678 0.2561 2.0929
C36B C 0.9887(2) 0.30907(12) 2.02487(17)
H24B H 0.9544 0.3343 2.0402
C37B C 1.4370(3) 0.0856(2) 2.1520(2)
C38B C 1.3351(2) 0.10735(18) 2.12928(19)
C39B C 1.3239(3) 0.15705(18) 2.1357(3)
H25B H 1.3798 0.1769 2.1544
C40B C 1.2335(2) 0.17967(15) 2.1160(3)
H26B H 1.2289 0.2143 2.1214
C41B C 1.1497(2) 0.15194(11) 2.08842(17)
C42B C 1.1582(2) 0.10131(14) 2.08042(19)
H27B H 1.1024 0.0814 2.0616
C43B C 1.2521(3) 0.07996(16) 2.1011(2)
H28B H 1.2579 0.0454 2.0952
C44B C 0.7283(2) 0.08694(11) 2.1343(2)
C45B C 0.81465(19) 0.11172(11) 2.11844(16)
C46B C 0.9088(2) 0.10800(13) 2.16638(17)
H29B H 0.9186 0.0913 2.2100
C47B C 0.9886(2) 0.12888(13) 2.15014(17)
H30B H 1.0516 0.1260 2.1827
C48B C 0.97521(19) 0.15400(11) 2.08566(17)
C49B C 0.8806(2) 0.15807(12) 2.03818(17)
H31B H 0.8704 0.1755 1.9951
C50B C 0.8013(2) 0.13654(11) 2.05421(17)
H32B H 0.7385 0.1389 2.0213
N1B N 1.60786(16) 0.96988(9) 2.14806(12)
N2B N 1.54946(19) 0.68595(10) 1.93811(19)
N3B N 1.02583(17) 0.46963(9) 1.88752(13)
N4B N 1.05540(17) 0.17569(9) 2.06741(16)
O1B O 1.12903(16) 0.58445(9) 1.90705(15)
O2B O 1.1764(2) 0.53996(12) 1.82899(15)
O3B O 1.90031(14) 0.56306(9) 1.87567(12)
O4B O 1.90393(19) 0.63139(10) 1.81204(15)
O5B O 0.73622(15) 0.07544(9) 2.19920(13)
O6B O 0.65174(15) 0.07774(8) 2.08404(13)
O7B O 1.4497(3) 0.04260(16) 2.14064(18)
O8B O 1.5092(2) 0.10946(17) 2.1830(2)
Zn1B Zn 0.60667(2) 0.041820(12) 2.189305(16)
Zn2B Zn 1.01396(2) 0.541444(12) 1.845612(18)
N1_2 N 1.39214(16) 1.03012(9) 0.85194(12)
N1B_2 N 0.60786(16) -0.03012(9) 2.14806(12)
N7B_2 N 0.62822(17) 0.03072(9) 2.29625(12)
O3_2 O 1.09969(14) 0.43694(9) 1.12433(12)
O3B_2 O 0.90031(14) 0.56306(9) 1.87567(12)
O7_2 O 1.5503(3) 0.95740(16) 0.85936(18)
O7B_2 O 0.4497(3) 0.04260(16) 2.14064(18)
O8_2 O 1.4908(2) 0.89054(17) 0.8170(2)
O8B_2 O 0.5092(2) 0.10946(17) 2.1830(2)
Zn1_2 Zn 0.39333(2) -0.041820(12) 0.810695(16)
Zn1_3 Zn 0.39333(2) 0.958180(12) 0.810695(16)
Zn1B_2 Zn 1.60667(2) 0.041820(12) 2.189305(16)
Zn1B_3 Zn 1.60667(2) 1.041820(12) 0.189305(16)
Zn1B_4 Zn 1.60667(2) 1.041820(12) 2.189305(16)
Zn2_2 Zn -0.01396(2) 0.458556(12) 1.154388(18)
Zn2B_2 Zn 2.01396(2) 0.541444(12) 1.845612(18)
loop_
_geom_bond_atom_site_label_1
_geom_bond_atom_site_label_2
_geom_bond_site_symmetry_1
_geom_bond_site_symmetry_2
C1 C2 1_555 1_555
C2 C3 1_555 1_555
C3 H1 1_555 1_555
C4 C3 1_555 1_555
H2 C4 1_555 1_555
C5 C4 1_555 1_555
C6 C5 1_555 1_555
H3 C6 1_555 1_555
C7 C2 1_555 1_555
H4 C7 1_555 1_555
C8 C9 1_555 1_555
C9 C10 1_555 1_555
C10 H5 1_555 1_555
C11 C10 1_555 1_555
H6 C11 1_555 1_555
C12 C11 1_555 1_555
C13 C12 1_555 1_555
H7 C13 1_555 1_555
C14 C9 1_555 1_555
H8 C14 1_555 1_555
C15 H9 1_555 1_555
C16 C15 1_555 1_555
H10 C16 1_555 1_555
C17 C16 1_555 1_555
C18 C17 1_555 1_555
H11 C18 1_555 1_555
C19 C18 1_555 1_555
H12 C19 1_555 1_555
C20 C17 1_555 1_555
C21 C20 1_555 1_555
H13 C21 1_555 1_555
C22 C21 1_555 1_555
H14 C22 1_555 1_555
C23 C22 1_555 1_555
C24 C23 1_555 1_555
H15 C24 1_555 1_555
C25 C20 1_555 1_555
H16 C25 1_555 1_555
C26 H17 1_555 1_555
C27 C26 1_555 1_555
H18 C27 1_555 1_555
C28 C27 1_555 1_555
C29 C28 1_555 1_555
H19 C29 1_555 1_555
C30 C29 1_555 1_555
H20 C30 1_555 1_555
C31 C28 1_555 1_555
C32 C31 1_555 1_555
H21 C32 1_555 1_555
C33 C32 1_555 1_555
H22 C33 1_555 1_555
C34 C33 1_555 1_555
C35 C34 1_555 1_555
H23 C35 1_555 1_555
C36 C31 1_555 1_555
H24 C36 1_555 1_555
C37 C38 1_555 1_555
C38 C39 1_555 1_555
C39 H25 1_555 1_555
C40 C39 1_555 1_555
H26 C40 1_555 1_555
C41 C40 1_555 1_555
C42 C41 1_555 1_555
H27 C42 1_555 1_555
C43 C38 1_555 1_555
H28 C43 1_555 1_555
C44 C45 1_555 1_555
C45 C46 1_555 1_555
C46 H29 1_555 1_555
C47 C46 1_555 1_555
H30 C47 1_555 1_555
C48 C47 1_555 1_555
C49 C48 1_555 1_555
H31 C49 1_555 1_555
C50 C45 1_555 1_555
H32 C50 1_555 1_555
C51 H33 1_555 1_555
C52 H34 1_555 1_555
C53 C52 1_555 1_555
H35 C53 1_555 1_555
C54 H36 1_555 1_555
C55 C54 1_555 1_555
C56 C55 1_555 1_555
H37 C56 1_555 1_555
C57 H38 1_555 1_555
C58 C57 1_555 1_555
H39 C58 1_555 1_555
C59 H40 1_555 1_555
C60 H41 1_555 1_555
C61 C60 1_555 1_555
C62 C61 1_555 1_555
H42 C62 1_555 1_555
N1 C15 1_555 1_555
N2 C5 1_555 1_555
N3 C26 1_555 1_555
N4 C34 1_555 1_555
N5 C51 1_555 1_555
N6 C51 1_555 1_555
N7 C57 1_555 1_555
N8 C58 1_555 1_555
O1 C1 1_555 1_555
O2 C1 1_555 1_555
O3 C8 1_555 1_555
O4 C8 1_555 1_555
O5 C44 1_555 1_555
O6 C44 1_555 1_555
O7 C37 1_555 1_555
O8 C37 1_555 1_555
Zn1 N7 1_555 1_555
Zn2 N3 1_555 1_555
O9 H43 1_555 1_555
H44 O9 1_555 1_555
O10 H45 1_555 1_555
H46 O10 1_555 1_555
C51B H33B 1_555 1_555
C52B H34B 1_555 1_555
C53B C52B 1_555 1_555
H35B C53B 1_555 1_555
C54B C56 1_555 1_555
H36B C54B 1_555 1_555
C55B C54B 1_555 1_555
C56B C54 1_555 1_555
H37B C56B 1_555 1_555
N5B C51B 1_555 1_555
N6B C51B 1_555 1_555
C57B H38B 1_555 1_555
C58B C57B 1_555 1_555
H39B C58B 1_555 1_555
C59B H40B 1_555 1_555
C60B C62 1_555 1_555
H41B C60B 1_555 1_555
C61B C60B 1_555 1_555
C62B C60 1_555 1_555
H42B C62B 1_555 1_555
N7B C57B 1_555 1_555
N8B C58B 1_555 1_555
C1B C2B 1_555 1_555
C2B C3B 1_555 1_555
C3B H1B 1_555 1_555
C4B C3B 1_555 1_555
H2B C4B 1_555 1_555
C5B C4B 1_555 1_555
C6B C5B 1_555 1_555
H3B C6B 1_555 1_555
C7B C2B 1_555 1_555
H4B C7B 1_555 1_555
C8B C9B 1_555 1_555
C9B C10B 1_555 1_555
C10B H5B 1_555 1_555
C11B C10B 1_555 1_555
H6B C11B 1_555 1_555
C12B C11B 1_555 1_555
C13B C12B 1_555 1_555
H7B C13B 1_555 1_555
C14B C9B 1_555 1_555
H8B C14B 1_555 1_555
C15B H9B 1_555 1_555
C16B C15B 1_555 1_555
H10B C16B 1_555 1_555
C17B C16B 1_555 1_555
C18B C17B 1_555 1_555
H11B C18B 1_555 1_555
C19B C18B 1_555 1_555
H12B C19B 1_555 1_555
C20B C17B 1_555 1_555
C21B C20B 1_555 1_555
H13B C21B 1_555 1_555
C22B C21B 1_555 1_555
H14B C22B 1_555 1_555
C23B C22B 1_555 1_555
C24B C23B 1_555 1_555
H15B C24B 1_555 1_555
C25B C20B 1_555 1_555
H16B C25B 1_555 1_555
C26B H17B 1_555 1_555
C27B C26B 1_555 1_555
H18B C27B 1_555 1_555
C28B C27B 1_555 1_555
C29B C28B 1_555 1_555
H19B C29B 1_555 1_555
C30B C29B 1_555 1_555
H20B C30B 1_555 1_555
C31B C28B 1_555 1_555
C32B C31B 1_555 1_555
H21B C32B 1_555 1_555
C33B C32B 1_555 1_555
H22B C33B 1_555 1_555
C34B C33B 1_555 1_555
C35B C34B 1_555 1_555
H23B C35B 1_555 1_555
C36B C31B 1_555 1_555
H24B C36B 1_555 1_555
C37B C38B 1_555 1_555
C38B C39B 1_555 1_555
C39B H25B 1_555 1_555
C40B C39B 1_555 1_555
H26B C40B 1_555 1_555
C41B C40B 1_555 1_555
C42B C41B 1_555 1_555
H27B C42B 1_555 1_555
C43B C38B 1_555 1_555
H28B C43B 1_555 1_555
C44B C45B 1_555 1_555
C45B C46B 1_555 1_555
C46B H29B 1_555 1_555
C47B C46B 1_555 1_555
H30B C47B 1_555 1_555
C48B C47B 1_555 1_555
C49B C48B 1_555 1_555
H31B C49B 1_555 1_555
C50B C45B 1_555 1_555
H32B C50B 1_555 1_555
N1B C15B 1_555 1_555
N2B C5B 1_555 1_555
N3B C26B 1_555 1_555
N4B C34B 1_555 1_555
O1B C1B 1_555 1_555
O2B C1B 1_555 1_555
O3B C8B 1_555 1_555
O4B C8B 1_555 1_555
O5B C44B 1_555 1_555
O6B C44B 1_555 1_555
O7B C37B 1_555 1_555
O8B C37B 1_555 1_555
Zn1B O5B 1_555 1_555
Zn2B N5B 1_555 1_555
N1_2 Zn1 1_555 1_555
N1B_2 Zn1B 1_555 1_555
N7B_2 Zn1B 1_555 1_555
O3_2 Zn2 1_555 1_555
O3B_2 Zn2B 1_555 1_555
O7_2 Zn1 1_555 1_555
O7B_2 Zn1B 1_555 1_555
O8_2 Zn1 1_555 1_555
O8B_2 Zn1B 1_555 1_555
Zn1_2 N1 1_555 1_555
Zn1_3 O7 1_555 1_555
Zn1B_2 O7B 1_555 1_555
Zn1B_3 N7B 1_555 1_555
Zn1B_4 N1B 1_555 1_555
Zn2_2 O3 1_555 1_555
Zn2B_2 O3B 1_555 1_555
C6 C7 1_555 1_555
C12 N2 1_555 1_555
C13 C14 1_555 1_555
C19 N1 1_555 1_555
C23 N2 1_555 1_555
C24 C25 1_555 1_555
C30 N3 1_555 1_555
C35 C36 1_555 1_555
C41 N4 1_555 1_555
C42 C43 1_555 1_555
C48 N4 1_555 1_555
C49 C50 1_555 1_555
C52 N6 1_555 1_555
C53 N5 1_555 1_555
C55 N6 1_555 1_555
C59 N7 1_555 1_555
C59 N8 1_555 1_555
C61 N8 1_555 1_555
N5 Zn2 1_555 1_555
O1 Zn2 1_555 1_555
O2 Zn2 1_555 1_555
O5 Zn1 1_555 1_555
O6 Zn1 1_555 1_555
O8 Zn1_3 1_555 1_555
C52B N6B 1_555 1_555
C53B N5B 1_555 1_555
C55B C56B 1_555 1_555
C55B N6B 1_555 1_555
C59B N7B 1_555 1_555
C59B N8B 1_555 1_555
C61B C62B 1_555 1_555
C61B N8B 1_555 1_555
C6B C7B 1_555 1_555
C12B N2B 1_555 1_555
C13B C14B 1_555 1_555
C19B N1B 1_555 1_555
C23B N2B 1_555 1_555
C24B C25B 1_555 1_555
C30B N3B 1_555 1_555
C35B C36B 1_555 1_555
C41B N4B 1_555 1_555
C42B C43B 1_555 1_555
C48B N4B 1_555 1_555
C49B C50B 1_555 1_555
N3B Zn2B 1_555 1_555
O1B Zn2B 1_555 1_555
O2B Zn2B 1_555 1_555
O6B Zn1B 1_555 1_555
O8B Zn1B_2 1_555 1_555

#END
