
#######################################################################
#
#                 Cambridge Crystallographic Data Centre
#                                CCDC 
#
#######################################################################
#
# If this CIF has been generated from an entry in the Cambridge 
# Structural Database, then it will include bibliographic, chemical, 
# crystal, experimental, refinement or atomic coordinate data resulting 
# from the CCDC's data processing and validation procedures.
#
#######################################################################

data_IQOJAB
_chemical_formula_moiety         '(C62 H66 N8 O15 Zn2)n'
_symmetry_cell_setting           monoclinic
_symmetry_space_group_name_H-M   'P 21/c'
_symmetry_Int_Tables_number      14
_space_group_name_Hall           '-P 2ybc'
loop_
_symmetry_equiv_pos_site_id
_symmetry_equiv_pos_as_xyz
1 x,y,z
2 -x,1/2+y,1/2-z
3 -x,-y,-z
4 x,1/2-y,1/2+z
_cell_length_a                   16.3583(10)
_cell_length_b                   18.1336(11)
_cell_length_c                   22.5915(11)
_cell_angle_alpha                90
_cell_angle_beta                 114.105(3)
_cell_angle_gamma                90
_cell_volume                     6117.05
loop_
_atom_site_label
_atom_site_type_symbol
_atom_site_fract_x
_atom_site_fract_y
_atom_site_fract_z
Zn1 Zn -0.72155(2) 0.447967(18) 0.720210(16)
Zn2 Zn -0.88043(2) 0.542628(18) 0.659472(16)
C1 C -0.8738(2) 0.38705(16) 0.61382(14)
C2 C -0.9198(2) 0.32714(17) 0.56632(14)
C3 C -1.0018(2) 0.34104(17) 0.51499(15)
H1 H -1.0309 0.3856 0.5132
C4 C -1.0406(2) 0.28919(17) 0.46669(15)
H2 H -1.0948 0.2992 0.4321
C5 C -0.9979(2) 0.22213(17) 0.47025(14)
C6 C -0.9180(2) 0.20615(18) 0.52284(15)
H3 H -0.8910 0.1603 0.5261
C7 C -0.8792(2) 0.25903(17) 0.57020(14)
H4 H -0.8252 0.2488 0.6050
C8 C -0.8428(2) 0.06250(18) 0.27721(15)
C9 C -0.8889(2) 0.08846(18) 0.31818(14)
C10 C -0.8576(2) 0.14872(18) 0.35916(15)
H5 H -0.8040 0.1710 0.3641
C11 C -0.9051(2) 0.17587(18) 0.39256(15)
H6 H -0.8836 0.2167 0.4194
C12 C -0.9853(2) 0.14279(18) 0.38662(14)
C13 C -1.0147(2) 0.08001(19) 0.34768(16)
H7 H -1.0660 0.0555 0.3451
C14 C -0.9681(2) 0.05427(18) 0.31306(16)
H8 H -0.9896 0.0137 0.2860
C15 C -1.5575(2) 0.1253(2) 0.31452(17)
H9 H -1.5916 0.1316 0.3385
C16 C -1.4683(2) 0.1449(2) 0.34218(18)
H10 H -1.4436 0.1639 0.3841
C17 C -1.4152(2) 0.13653(19) 0.30790(16)
C18 C -1.4585(2) 0.1126(2) 0.24397(18)
H11 H -1.4271 0.1093 0.2178
C19 C -1.5481(2) 0.0938(2) 0.21943(18)
H12 H -1.5756 0.0777 0.1767
C20 C -1.3175(2) 0.14968(19) 0.33683(16)
C21 C -1.2728(2) 0.1701(2) 0.29868(17)
H13 H -1.3053 0.1788 0.2546
C22 C -1.1809(2) 0.1779(2) 0.32515(16)
H14 H -1.1521 0.1918 0.2989
C23 C -1.1311(2) 0.16509(17) 0.39053(15)
C24 C -1.1751(2) 0.1474(2) 0.42933(16)
H15 H -1.1426 0.1406 0.4736
C25 C -1.2674(2) 0.1397(2) 0.40277(16)
H16 H -1.2961 0.1276 0.4295
C26 C -0.7443(2) 0.55377(16) 0.60991(15)
C27 C -0.6970(2) 0.59180(18) 0.57422(14)
C28 C -0.7160(2) 0.66488(18) 0.55498(15)
H17 H -0.7600 0.6898 0.5632
C29 C -0.6707(2) 0.70103(19) 0.52384(16)
H18 H -0.6842 0.7500 0.5114
C30 C -0.6053(2) 0.6650(2) 0.51103(16)
C31 C -0.5853(2) 0.5919(2) 0.53065(19)
H19 H -0.5413 0.5671 0.5224
C32 C -0.6301(3) 0.5562(2) 0.56208(19)
H20 H -0.6155 0.5076 0.5754
C33 C -0.7380(2) 0.89567(18) 0.26728(16)
C34 C -0.6901(2) 0.84356(18) 0.32191(15)
C35 C -0.6021(2) 0.8569(2) 0.36469(19)
H21 H -0.5724 0.8979 0.3585
C36 C -0.5579(2) 0.8100(2) 0.41646(19)
H22 H -0.4989 0.8197 0.4446
C37 C -0.6016(2) 0.74864(19) 0.42633(16)
C38 C -0.6892(2) 0.73526(19) 0.38380(16)
H23 H -0.7190 0.6943 0.3899
C39 C -0.7332(2) 0.78247(18) 0.33201(15)
H24 H -0.7922 0.7728 0.3039
C40 C -0.0695(2) 0.55647(17) 0.56433(16)
H25 H -0.0509 0.5252 0.5397
C41 C -0.1576(2) 0.57890(18) 0.53927(16)
H26 H -0.1968 0.5631 0.4983
C42 C -0.1879(2) 0.62500(18) 0.57509(15)
C43 C -0.1252(2) 0.64570(19) 0.63658(16)
H27 H -0.1423 0.6759 0.6628
C44 C -0.0383(2) 0.62133(19) 0.65807(16)
H28 H 0.0024 0.6357 0.6990
C45 C -0.2820(2) 0.65012(18) 0.55000(16)
C46 C -0.3347(2) 0.65363(19) 0.48352(16)
H29 H -0.3091 0.6435 0.4545
C47 C -0.4247(2) 0.67190(19) 0.45999(16)
H30 H -0.4589 0.6736 0.4155
C48 C -0.4636(2) 0.6877(2) 0.50252(17)
C49 C -0.4102(2) 0.6899(2) 0.56901(18)
H31 H -0.4350 0.7043 0.5976
C50 C -0.3208(2) 0.6708(2) 0.59252(18)
H32 H -0.2860 0.6716 0.6369
N1 N -1.03624(17) 0.17104(15) 0.41848(12)
N2 N -1.59706(17) 0.09757(15) 0.25444(13)
N3 N -0.55690(18) 0.70208(18) 0.48015(15)
N4 N -0.00948(16) 0.57779(14) 0.62268(12)
O1 O -0.90874(15) 0.45020(11) 0.60125(11)
O2 O -0.80305(14) 0.37024(11) 0.66212(10)
O3 O -0.76298(15) 0.08259(13) 0.29105(11)
O4 O -0.88859(15) 0.02288(14) 0.22944(11)
O5 O -0.71130(14) 0.49389(12) 0.63851(10)
O6 O -0.81292(14) 0.58475(12) 0.61018(10)
O7 O -0.69377(16) 0.94952(12) 0.26087(12)
O8 O -0.81856(15) 0.88213(13) 0.23143(11)
Zn1C Zn -1.72155(2) 0.052033(18) 0.220210(16)
Zn1C_2 Zn -0.72155(2) 0.052033(18) 0.220210(16)
Zn1C_3 Zn -0.72155(2) 1.052033(18) 0.220210(16)
Zn2_2 Zn 0.11957(2) 0.542628(18) 0.659472(16)
Zn2C Zn -0.88043(2) -0.042628(18) 0.159472(16)
Zn2C_2 Zn -0.88043(2) 0.957372(18) 0.159472(16)
N2C N -0.59706(17) 0.40243(15) 0.75444(13)
N4_2 N -1.00948(16) 0.57779(14) 0.62268(12)
O3C O -0.76298(15) 0.41741(13) 0.79105(11)
O4C O -0.88859(15) 0.47712(14) 0.72944(11)
O7C O -0.69377(16) 0.55048(12) 0.76087(12)
O8C O -0.81856(15) 0.61787(13) 0.73143(11)
C51 C 0.6508(11) 0.5422(5) 0.7140(6)
H33 H 0.5871 0.5370 0.6914
H34 H 0.6665 0.5935 0.7167
H35 H 0.6700 0.5222 0.7568
C52 C 0.7885(6) 0.5018(6) 0.7015(5)
H36 H 0.8065 0.4733 0.6730
H37 H 0.8135 0.4806 0.7441
H38 H 0.8096 0.5515 0.7034
C53 C 0.6425(4) 0.4687(3) 0.6253(3)
H39 H 0.6676 0.4475 0.5991
N5 N 0.6956(4) 0.5019(3) 0.6781(2)
O9 O 0.5608(3) 0.4636(3) 0.6081(3)
C54 C 0.0975(4) 0.8675(4) 0.8699(3)
H40 H 0.1364 0.8721 0.9150
H41 H 0.0451 0.8971 0.8603
H42 H 0.1284 0.8838 0.8441
C55 C 0.0153(4) 0.7736(4) 0.7921(3)
H43 H 0.0037 0.7216 0.7899
H44 H 0.0432 0.7860 0.7634
H45 H -0.0401 0.8001 0.7795
C56 C 0.0989(3) 0.7411(3) 0.9040(2)
H46 H 0.1368 0.7569 0.9453
N6 N 0.0722(3) 0.7928(3) 0.8556(2)
O10 O 0.0776(3) 0.6764(3) 0.89785(19)
C57 C 0.6150(6) 0.6940(4) 0.8149(5)
H47 H 0.6630 0.6727 0.8517
H48 H 0.5902 0.7350 0.8288
H49 H 0.6376 0.7105 0.7841
C58 C 0.4692(5) 0.6558(5) 0.7306(4)
H50 H 0.4318 0.6127 0.7181
H51 H 0.4847 0.6705 0.6957
H52 H 0.4375 0.6951 0.7405
C59 C 0.5540(9) 0.5732(6) 0.8109(6)
H53 H 0.5062 0.5409 0.7913
N7 N 0.5471(4) 0.6398(3) 0.7854(3)
O11 O 0.6200(9) 0.5501(5) 0.8593(6)
C60 C -0.3024(16) 0.5532(9) 0.9920(9)
H54 H -0.3587 0.5556 0.9957
H55 H -0.3125 0.5411 0.9482
H56 H -0.2728 0.6001 1.0033
C61 C -0.2672(13) 0.4553(6) 1.0718(6)
H57 H -0.2169 0.4239 1.0949
H58 H -0.3181 0.4255 1.0464
H59 H -0.2810 0.4840 1.1022
C62 C -0.1715(15) 0.4986(7) 1.0266(6)
H60 H -0.1363 0.4650 1.0576
N8 N -0.2481(13) 0.4984(7) 1.0343(6)
O12 O -0.1189(10) 0.5203(5) 0.9992(4)
O13 O -0.1789(4) 0.5374(3) 0.8677(4)
H61 H -0.1861 0.5270 0.9020
H62 H -0.2246 0.5637 0.8618
O14 O -0.2223(3) 0.7325(2) 0.74697(19)
H63 H -0.1822 0.7004 0.7659
H64 H -0.2113 0.7746 0.7650
O15 O -0.0956(3) 0.6255(2) 0.8163(2)
H65 H -0.0456 0.6423 0.8430
H66 H -0.0914 0.5970 0.8473
loop_
_geom_bond_atom_site_label_1
_geom_bond_atom_site_label_2
_geom_bond_site_symmetry_1
_geom_bond_site_symmetry_2
Zn1 O2 1_555 1_555
Zn2 O1 1_555 1_555
C1 C2 1_555 1_555
C2 C3 1_555 1_555
C3 H1 1_555 1_555
C4 C3 1_555 1_555
H2 C4 1_555 1_555
C5 C4 1_555 1_555
C6 C5 1_555 1_555
H3 C6 1_555 1_555
C7 C2 1_555 1_555
H4 C7 1_555 1_555
C8 C9 1_555 1_555
C9 C10 1_555 1_555
C10 H5 1_555 1_555
C11 C10 1_555 1_555
H6 C11 1_555 1_555
C12 C11 1_555 1_555
C13 C12 1_555 1_555
H7 C13 1_555 1_555
C14 C9 1_555 1_555
H8 C14 1_555 1_555
C15 H9 1_555 1_555
C16 C15 1_555 1_555
H10 C16 1_555 1_555
C17 C16 1_555 1_555
C18 C17 1_555 1_555
H11 C18 1_555 1_555
C19 C18 1_555 1_555
H12 C19 1_555 1_555
C20 C17 1_555 1_555
C21 C20 1_555 1_555
H13 C21 1_555 1_555
C22 C21 1_555 1_555
H14 C22 1_555 1_555
C23 C22 1_555 1_555
C24 C23 1_555 1_555
H15 C24 1_555 1_555
C25 C20 1_555 1_555
H16 C25 1_555 1_555
C26 C27 1_555 1_555
C27 C28 1_555 1_555
C28 H17 1_555 1_555
C29 C28 1_555 1_555
H18 C29 1_555 1_555
C30 C29 1_555 1_555
C31 C30 1_555 1_555
H19 C31 1_555 1_555
C32 C27 1_555 1_555
H20 C32 1_555 1_555
C33 C34 1_555 1_555
C34 C35 1_555 1_555
C35 H21 1_555 1_555
C36 C35 1_555 1_555
H22 C36 1_555 1_555
C37 C36 1_555 1_555
C38 C37 1_555 1_555
H23 C38 1_555 1_555
C39 C34 1_555 1_555
H24 C39 1_555 1_555
C40 H25 1_555 1_555
C41 C40 1_555 1_555
H26 C41 1_555 1_555
C42 C41 1_555 1_555
C43 C42 1_555 1_555
H27 C43 1_555 1_555
C44 C43 1_555 1_555
H28 C44 1_555 1_555
C45 C42 1_555 1_555
C46 C45 1_555 1_555
H29 C46 1_555 1_555
C47 C46 1_555 1_555
H30 C47 1_555 1_555
C48 C47 1_555 1_555
C49 C48 1_555 1_555
H31 C49 1_555 1_555
C50 C45 1_555 1_555
H32 C50 1_555 1_555
N1 C5 1_555 1_555
N2 C15 1_555 1_555
N3 C30 1_555 1_555
N4 C40 1_555 1_555
O1 C1 1_555 1_555
O2 C1 1_555 1_555
O3 C8 1_555 1_555
O4 C8 1_555 1_555
O5 Zn1 1_555 1_555
O6 Zn2 1_555 1_555
O7 C33 1_555 1_555
O8 C33 1_555 1_555
C51 H33 1_555 1_555
H34 C51 1_555 1_555
H35 C51 1_555 1_555
C52 H36 1_555 1_555
H37 C52 1_555 1_555
H38 C52 1_555 1_555
C53 H39 1_555 1_555
N5 C51 1_555 1_555
O9 C53 1_555 1_555
C54 H40 1_555 1_555
H41 C54 1_555 1_555
H42 C54 1_555 1_555
C55 H43 1_555 1_555
H44 C55 1_555 1_555
H45 C55 1_555 1_555
C56 H46 1_555 1_555
N6 C54 1_555 1_555
O10 C56 1_555 1_555
C57 H47 1_555 1_555
H48 C57 1_555 1_555
H49 C57 1_555 1_555
C58 H50 1_555 1_555
H51 C58 1_555 1_555
H52 C58 1_555 1_555
C59 H53 1_555 1_555
N7 C57 1_555 1_555
O11 C59 1_555 1_555
C60 H54 1_555 1_555
H55 C60 1_555 1_555
H56 C60 1_555 1_555
C61 H57 1_555 1_555
H58 C61 1_555 1_555
H59 C61 1_555 1_555
C62 H60 1_555 1_555
N8 C60 1_555 1_555
O12 C62 1_555 1_555
O13 H61 1_555 1_555
H62 O13 1_555 1_555
O14 H63 1_555 1_555
H64 O14 1_555 1_555
O15 H65 1_555 1_555
H66 O15 1_555 1_555
Zn1C N2 1_555 1_555
Zn1C_2 O3 1_555 1_555
Zn1C_3 O7 1_555 1_555
Zn2_2 N4 1_555 1_555
Zn2C O4 1_555 1_555
Zn2C_2 O8 1_555 1_555
N2C Zn1 1_555 1_555
N4_2 Zn2 1_555 1_555
O3C Zn1 1_555 1_555
O4C Zn2 1_555 1_555
O7C Zn1 1_555 1_555
O8C Zn2 1_555 1_555
C6 C7 1_555 1_555
C12 N1 1_555 1_555
C13 C14 1_555 1_555
C19 N2 1_555 1_555
C23 N1 1_555 1_555
C24 C25 1_555 1_555
C26 O5 1_555 1_555
C26 O6 1_555 1_555
C31 C32 1_555 1_555
C37 N3 1_555 1_555
C38 C39 1_555 1_555
C44 N4 1_555 1_555
C48 N3 1_555 1_555
C49 C50 1_555 1_555
C52 N5 1_555 1_555
C53 N5 1_555 1_555
C55 N6 1_555 1_555
C56 N6 1_555 1_555
C58 N7 1_555 1_555
C59 N7 1_555 1_555
C61 N8 1_555 1_555
C62 N8 1_555 1_555

#END
