
#######################################################################
#
#                 Cambridge Crystallographic Data Centre
#                                CCDC 
#
#######################################################################
#
# If this CIF has been generated from an entry in the Cambridge 
# Structural Database, then it will include bibliographic, chemical, 
# crystal, experimental, refinement or atomic coordinate data resulting 
# from the CCDC's data processing and validation procedures.
#
#######################################################################

data_JIYXUL
_chemical_formula_moiety         'C8 H16 Fe4 Na23 O149 Sb2 W18'
_symmetry_cell_setting           triclinic
_symmetry_space_group_name_H-M   'P -1'
_symmetry_Int_Tables_number      2
_space_group_name_Hall           '-P 1'
loop_
_symmetry_equiv_pos_site_id
_symmetry_equiv_pos_as_xyz
1 x,y,z
2 -x,-y,-z
_cell_length_a                   12.5898(15)
_cell_length_b                   14.9339(17)
_cell_length_c                   19.739(2)
_cell_angle_alpha                111.350(5)
_cell_angle_beta                 101.661(6)
_cell_angle_gamma                93.977(6)
_cell_volume                     3343.37
loop_
_atom_site_label
_atom_site_type_symbol
_atom_site_fract_x
_atom_site_fract_y
_atom_site_fract_z
O2 O 0.5097(9) 0.7410(7) 0.9515(5)
O3 O 0.4418(13) 0.1996(9) 0.7986(7)
O4 O 0.474(3) 0.9301(17) 1.0358(18)
O5 O 0.581(4) 1.094(2) 0.825(2)
O6 O 0.297(3) 0.8392(17) 0.876(3)
O7 O 0.700(4) 0.110(3) 0.909(3)
O8 O -0.216(5) -0.015(3) 0.799(5)
W1 W 0.39471(2) 0.62529(2) 0.580541(17)
W2 W 0.54255(3) 0.77175(2) 0.753649(18)
W3 W 0.35382(3) 0.58929(2) 0.732171(18)
W4 W 0.40365(3) 0.33528(2) 0.658430(17)
W5 W 0.54965(3) 0.47730(2) 0.829350(17)
W6 W 0.66714(3) 0.31907(2) 0.707390(18)
W7 W 0.87980(3) 0.52207(3) 0.734331(18)
W8 W 0.76078(3) 0.68116(2) 0.854035(18)
W9 W 0.80584(3) 0.71757(2) 0.706453(18)
Fe1 Fe 0.65337(9) 0.64665(8) 0.51834(6)
Fe2 Fe 0.20503(10) 0.68359(9) 0.43647(6)
Sb1 Sb 0.59949(4) 0.50842(4) 0.64407(3)
O9 O 0.2999(5) 0.6670(5) 0.5233(3)
O10 O 0.5191(5) 0.6409(5) 0.5526(3)
O11 O 0.3611(5) 0.4958(4) 0.5337(3)
O12 O 0.2956(5) 0.6160(5) 0.6478(3)
O13 O 0.4474(5) 0.7602(5) 0.6646(4)
O14 O 0.4977(5) 0.6036(4) 0.6779(3)
O15 O 0.5539(6) 0.8934(5) 0.8067(4)
O16 O 0.6710(5) 0.7705(5) 0.7164(3)
O17 O 0.4228(5) 0.7242(4) 0.7850(3)
O18 O 0.6311(5) 0.7272(5) 0.8273(3)
O19 O 0.2433(5) 0.5979(5) 0.7716(4)
O20 O 0.3361(5) 0.4538(5) 0.6771(3)
O21 O 0.4629(5) 0.5658(5) 0.8066(3)
O22 O 0.2893(5) 0.2465(5) 0.6275(4)
O23 O 0.5718(5) 0.6569(5) 0.4264(3)
O24 O 0.5159(5) 0.2546(5) 0.6692(4)
O25 O 0.4253(5) 0.3778(4) 0.7679(3)
O26 O 0.5665(5) 0.4383(4) 0.7083(3)
O27 O 0.5330(5) 0.4868(5) 0.9166(4)
O28 O 0.6772(5) 0.5708(5) 0.8586(3)
O29 O 0.6362(5) 0.3737(5) 0.8081(3)
O30 O 0.7285(5) 0.2251(5) 0.7223(3)
O31 O 0.3233(5) 0.6964(5) 0.3879(3)
O32 O 0.7917(5) 0.4207(4) 0.7473(3)
O33 O 1.0105(5) 0.4953(5) 0.7563(3)
O34 O 0.1669(5) 0.5480(5) 0.3679(3)
O35 O 0.8772(5) 0.6037(5) 0.8371(3)
O36 O 0.9188(5) 0.6391(5) 0.7177(3)
O37 O 0.7259(5) 0.5923(5) 0.7274(3)
O38 O 0.8085(5) 0.7503(5) 0.9491(3)
O39 O 0.8314(5) 0.7635(5) 0.8164(3)
O40 O 0.8833(5) 0.8112(5) 0.6990(3)
O41 O 0.7405(5) 0.6403(5) 0.6106(3)
O42 O 0.6816(5) 0.7959(5) 0.5630(3)
O43 O 0.8032(5) 0.6754(4) 0.4958(3)
O44 O 0.0982(6) 0.7309(5) 0.3689(4)
O45 O 0.2189(6) 0.8277(5) 0.5034(4)
O46 O 0.0708(5) 0.6622(5) 0.4818(4)
O47 O 0.1314(6) 0.9563(5) 0.5148(4)
O48 O 0.7993(7) 0.9246(5) 0.5786(5)
O49 O 0.9384(6) 0.7975(5) 0.5218(5)
O50 O 0.0221(7) 0.8612(6) 0.3667(5)
C1 C 0.8463(7) 0.7657(6) 0.5225(5)
C2 C 0.7695(8) 0.8362(7) 0.5576(5)
C3 C 0.0822(8) 0.8186(7) 0.3974(5)
C4 C 0.1478(8) 0.8743(6) 0.4793(5)
Na1 Na 0.1057(4) 0.5897(4) 0.5786(3)
Na2 Na 0.9781(4) 0.9732(3) 0.5736(3)
Na3 Na 0.3787(5) 0.8916(4) 0.6128(3)
Na4 Na 0.5000 1.0000 0.5000
Na5 Na 0.1695(4) 0.5745(4) 0.8636(3)
Na6 Na 0.6431(4) 0.5382(4) 1.0472(3)
Na7 Na -0.0571(5) 0.8547(5) 0.2418(3)
Na8 Na 0.1020(8) 0.7216(7) 1.0757(6)
O51 O 0.0882(6) 0.4581(5) 0.4598(4)
O52 O 0.3758(9) 1.0444(6) 0.5834(6)
O53 O 0.3333(8) 0.6229(7) 0.9617(5)
O54 O 0.2411(7) 0.4209(6) 0.8306(5)
O55 O 0.2784(10) 0.7136(9) 1.0959(6)
O56 O 0.8011(9) 0.5607(10) 1.0008(7)
O57 O 0.6334(11) 0.7057(8) 1.0699(6)
O58 O 0.3522(9) 0.9566(7) 0.3934(7)
O59 O 0.0995(10) 0.5960(11) 1.1202(7)
O60 O 0.1072(10) 0.7363(14) 0.6766(10)
O61 O 0.1001(14) 0.7307(13) 0.8711(12)
O62 O 0.260(2) 0.927(2) 0.6916(12)
O63 O 0.0640(12) 0.5677(12) 0.9486(8)
O64 O -0.1784(16) 0.8420(19) 0.1255(10)
O65 O 0.0975(6) 0.4561(6) 0.6246(4)
O66 O 0.4741(6) 0.8477(5) 0.5141(5)
O67 O -0.0345(8) 0.6891(7) 0.2143(6)
O68 O 1.0349(11) 0.9718(9) 0.6965(7)
O69 O 0.1129(9) 0.8571(10) 0.2008(8)
O70 O -0.2179(9) 0.8544(11) 0.2844(7)
O71 O 0.5129(18) 1.0113(14) 0.7136(11)
W1A W 0.60529(2) 0.37471(2) 0.419459(17)
W2A W 0.45745(3) 0.22825(2) 0.246351(18)
W3A W 0.64618(3) 0.41071(2) 0.267829(18)
W4A W 0.59635(3) 0.66472(2) 0.341570(17)
W5A W 0.45035(3) 0.52270(2) 0.170650(17)
W6A W 0.33286(3) 0.68093(2) 0.292610(18)
W7A W 0.12020(3) 0.47793(3) 0.265669(18)
W8A W 0.23922(3) 0.31884(2) 0.145965(18)
W9A W 0.19416(3) 0.28243(2) 0.293547(18)
Fe1A Fe 0.34663(9) 0.35335(8) 0.48166(6)
Fe2A Fe 0.79497(10) 0.31641(9) 0.56353(6)
Sb1A Sb 0.40051(4) 0.49158(4) 0.35593(3)
O9A O 0.7001(5) 0.3330(5) 0.4767(3)
O10A O 0.4809(5) 0.3591(5) 0.4474(3)
O11A O 0.6389(5) 0.5042(4) 0.4663(3)
O12A O 0.7044(5) 0.3840(5) 0.3522(3)
O13A O 0.5526(5) 0.2398(5) 0.3354(4)
O14A O 0.5023(5) 0.3964(4) 0.3221(3)
O15A O 0.4461(6) 0.1066(5) 0.1933(4)
O16A O 0.3290(5) 0.2295(5) 0.2836(3)
O17A O 0.5772(5) 0.2758(4) 0.2150(3)
O18A O 0.3689(5) 0.2728(5) 0.1727(3)
O19A O 0.7567(5) 0.4021(5) 0.2284(4)
O20A O 0.6639(5) 0.5462(5) 0.3229(3)
O21A O 0.5371(5) 0.4342(5) 0.1934(3)
O22A O 0.7107(5) 0.7535(5) 0.3725(4)
O23A O 0.4282(5) 0.3431(5) 0.5736(3)
O24A O 0.4841(5) 0.7454(5) 0.3308(4)
O25A O 0.5747(5) 0.6222(4) 0.2321(3)
O26A O 0.4335(5) 0.5617(4) 0.2917(3)
O27A O 0.4670(5) 0.5132(5) 1.0834(4)
O27A_2 O 0.4670(5) 0.5132(5) 0.0834(4)
O27_2 O 0.5330(5) 0.4868(5) -0.0834(4)
O28A O 0.3228(5) 0.4292(5) 0.1414(3)
O29A O 0.3638(5) 0.6263(5) 0.1919(3)
O30A O 0.2715(5) 0.7749(5) 0.2777(3)
O31A O 0.6767(5) 0.3036(5) 0.6121(3)
O32A O 0.2083(5) 0.5793(4) 0.2527(3)
O33_2 O 0.0105(5) 0.4953(5) 0.7563(3)
O33A O -0.0105(5) 0.5047(5) 0.2437(3)
O34A O 0.8331(5) 0.4520(5) 0.6321(3)
O35A O 0.1228(5) 0.3963(5) 0.1629(3)
O36A O 0.0812(5) 0.3609(5) 0.2823(3)
O37A O 0.2741(5) 0.4077(5) 0.2726(3)
O38A O 0.1915(5) 0.2497(5) 0.0509(3)
O39A O 0.1686(5) 0.2365(5) 0.1836(3)
O40A O 0.1167(5) 0.1888(5) 0.3010(3)
O41A O 0.2595(5) 0.3597(5) 0.3894(3)
O42A O 0.3184(5) 0.2041(5) 0.4370(3)
O43A O 0.1968(5) 0.3246(4) 0.5042(3)
O44A O 0.9018(6) 0.2691(5) 0.6311(4)
O45A O 0.7811(6) 0.1723(5) 0.4966(4)
O46A O 0.9292(5) 0.3378(5) 0.5182(4)
O47A O 0.8686(6) 1.0437(5) 0.4852(4)
O47_2 O 1.1314(6) 0.9563(5) 0.5148(4)
O47A_2 O 0.8686(6) 0.0437(5) 0.4852(4)
O47_3 O 1.1314(6) -0.0437(5) 0.5148(4)
O48A O 0.2007(7) 0.0754(5) 0.4214(5)
O48_2 O 0.7993(7) -0.0754(5) 0.5786(5)
O48A_2 O 1.2007(7) 0.0754(5) 0.4214(5)
O49A O 0.0616(6) 0.2025(5) 0.4782(5)
O49_2 O 0.9384(6) -0.2025(5) 0.5218(5)
O49A_2 O 1.0616(6) 0.2025(5) 0.4782(5)
O50A O 0.9779(7) 1.1388(6) 0.6333(5)
O50A_2 O 0.9779(7) 0.1388(6) 0.6333(5)
O50_2 O 1.0221(7) -0.1388(6) 0.3667(5)
C1A C 0.1537(7) 0.2343(6) 0.4775(5)
C2A C 0.2305(8) 0.1638(7) 0.4424(5)
C3A C 0.9178(8) 0.1814(7) 0.6026(5)
C4A C 0.8522(8) 0.1257(6) 0.5207(5)
Na1A Na -0.1057(4) 0.4103(4) 0.4214(3)
Na1A_2 Na 0.8943(4) 0.4103(4) 0.4214(3)
Na2A Na 0.0219(4) 1.0268(3) 0.4264(3)
Na2_2 Na -0.0219(4) 0.9732(3) 0.5736(3)
Na2_3 Na 0.9781(4) -0.0268(3) 0.5736(3)
Na2A_2 Na 1.0219(4) 0.0268(3) 0.4264(3)
Na2A_3 Na 0.0219(4) 0.0268(3) 0.4264(3)
Na5_2 Na 1.1695(4) 0.5745(4) 0.8636(3)
Na5A Na -0.1695(4) 0.4255(4) 0.1364(3)
Na6A Na 0.3569(4) 0.4618(4) 0.9528(3)
Na6_2 Na 0.6431(4) 0.5382(4) 0.0472(3)
Na6A_2 Na 0.3569(4) 0.4618(4) -0.0472(3)
Na7A Na 1.0571(5) 1.1453(5) 0.7582(3)
Na7A_2 Na 1.0571(5) 0.1453(5) 0.7582(3)
Na8_2 Na 0.1020(8) 0.7216(7) 0.0757(6)
O51A O -0.0882(6) 0.5419(5) 0.5402(4)
O52A O 0.6242(9) 0.9556(6) 0.4166(6)
O53A O 0.6667(8) 0.3771(7) 1.0383(5)
O53A_2 O 0.6667(8) 0.3771(7) 0.0383(5)
O53_2 O 0.3333(8) 0.6229(7) -0.0383(5)
O54A O 0.7589(7) 0.5791(6) 1.1694(5)
O54A_2 O 0.7589(7) 0.5791(6) 0.1694(5)
O54_2 O 0.2411(7) 0.4209(6) -0.1694(5)
O56_2 O 0.8011(9) 0.5607(10) 0.0008(7)
O56A O 0.1989(9) 0.4393(10) -0.0008(7)
O56A_2 O 0.1989(9) 0.4393(10) 0.9992(7)
O57_2 O 0.6334(11) 0.7057(8) 0.0699(6)
O57A O 0.3666(11) 0.2943(8) -0.0699(6)
O57A_2 O 0.3666(11) 0.2943(8) 0.9301(6)
O58A O 0.6478(9) 1.0434(7) 0.6066(7)
O64A O 1.1784(16) 0.1580(19) 0.8745(10)
O66A O 0.5259(6) 1.1523(5) 0.4859(5)
O67A O 1.0345(8) 0.3109(7) 0.7857(6)
O68A O -0.0349(11) 1.0282(9) 0.3035(7)
O68_2 O 1.0349(11) -0.0282(9) 0.6965(7)
O68A_2 O 0.9651(11) 0.0282(9) 0.3035(7)
O69_2 O 0.1129(9) 0.8571(10) 1.2008(8)
O69A O 0.8871(9) 0.1429(10) 0.7992(8)
O70A O 1.2179(9) 0.1456(11) 0.7156(7)
O1 O 0.336(2) 1.0104(13) 0.8487(12)
loop_
_geom_bond_atom_site_label_1
_geom_bond_atom_site_label_2
_geom_bond_site_symmetry_1
_geom_bond_site_symmetry_2
W1 O9 1_555 1_555
W2 O13 1_555 1_555
W3 O12 1_555 1_555
W4 O20 1_555 1_555
W5 O21 1_555 1_555
W6 O24 1_555 1_555
W7 O32 1_555 1_555
W8 O18 1_555 1_555
W9 O16 1_555 1_555
Fe1 O10 1_555 1_555
Fe2 O9 1_555 1_555
Sb1 O14 1_555 1_555
O10 W1 1_555 1_555
O11 W1 1_555 1_555
O12 W1 1_555 1_555
O13 W1 1_555 1_555
O14 W1 1_555 1_555
O15 W2 1_555 1_555
O16 W2 1_555 1_555
O17 W2 1_555 1_555
O18 W2 1_555 1_555
O19 W3 1_555 1_555
O20 W3 1_555 1_555
O21 W3 1_555 1_555
O22 W4 1_555 1_555
O23 Fe1 1_555 1_555
O24 W4 1_555 1_555
O25 W4 1_555 1_555
O26 W4 1_555 1_555
O27 W5 1_555 1_555
O28 W5 1_555 1_555
O29 W5 1_555 1_555
O30 W6 1_555 1_555
O31 Fe2 1_555 1_555
O32 W6 1_555 1_555
O33 W7 1_555 1_555
O34 Fe2 1_555 1_555
O35 W7 1_555 1_555
O36 W7 1_555 1_555
O37 W7 1_555 1_555
O38 W8 1_555 1_555
O39 W8 1_555 1_555
O40 W9 1_555 1_555
O41 W9 1_555 1_555
O42 Fe1 1_555 1_555
O43 Fe1 1_555 1_555
O44 Fe2 1_555 1_555
O45 Fe2 1_555 1_555
O46 Fe2 1_555 1_555
O47 C4 1_555 1_555
O48 C2 1_555 1_555
O49 C1 1_555 1_555
O50 C3 1_555 1_555
C1 O43 1_555 1_555
C2 O42 1_555 1_555
C3 O44 1_555 1_555
C4 O45 1_555 1_555
Na1 O12 1_555 1_555
Na2 O48 1_555 1_555
Na3 O13 1_555 1_555
Na4 O52 1_555 1_555
Na5 O19 1_555 1_555
Na6 O27 1_555 1_555
Na7 O50 1_555 1_555
Na8 O55 1_555 1_555
O51 Na1 1_555 1_555
O52 Na3 1_555 1_555
O53 Na5 1_555 1_555
O54 Na5 1_555 1_555
O56 Na6 1_555 1_555
O57 Na6 1_555 1_555
O58 Na4 1_555 1_555
O59 Na8 1_555 1_555
O60 Na1 1_555 1_555
O61 Na5 1_555 1_555
O62 Na3 1_555 1_555
O63 Na5 1_555 1_555
O64 Na7 1_555 1_555
O65 Na1 1_555 1_555
O66 Na3 1_555 1_555
O67 Na7 1_555 1_555
O68 Na2 1_555 1_555
O69 Na7 1_555 1_555
O70 Na7 1_555 1_555
O71 Na3 1_555 1_555
W1A O9A 1_555 1_555
W2A O13A 1_555 1_555
W3A O12A 1_555 1_555
W4A O23 1_555 1_555
W5A O21A 1_555 1_555
W6A O31 1_555 1_555
W7A O34 1_555 1_555
W8A O18A 1_555 1_555
W9A O16A 1_555 1_555
Fe1A O11 1_555 1_555
Fe2A O9A 1_555 1_555
Sb1A O14A 1_555 1_555
O10A W1A 1_555 1_555
O11A Fe1 1_555 1_555
O12A W1A 1_555 1_555
O13A W1A 1_555 1_555
O14A W1A 1_555 1_555
O15A W2A 1_555 1_555
O16A W2A 1_555 1_555
O17A W2A 1_555 1_555
O18A W2A 1_555 1_555
O19A W3A 1_555 1_555
O20A W3A 1_555 1_555
O21A W3A 1_555 1_555
O22A W4A 1_555 1_555
O23A W4 1_555 1_555
O24A W4A 1_555 1_555
O25A W4A 1_555 1_555
O26A W4A 1_555 1_555
O27A Na6 1_555 1_555
O27A_2 W5A 1_555 1_555
O27_2 Na6_2 1_555 1_555
O28A W5A 1_555 1_555
O29A W5A 1_555 1_555
O30A W6A 1_555 1_555
O31A W6 1_555 1_555
O32A W6A 1_555 1_555
O33_2 Na5 1_555 1_555
O33A W7A 1_555 1_555
O34A W7 1_555 1_555
O35A W7A 1_555 1_555
O36A W7A 1_555 1_555
O37A W7A 1_555 1_555
O38A W8A 1_555 1_555
O39A W8A 1_555 1_555
O40A W9A 1_555 1_555
O41A W9A 1_555 1_555
O42A Fe1A 1_555 1_555
O43A Fe1A 1_555 1_555
O44A Fe2A 1_555 1_555
O45A Fe2A 1_555 1_555
O46A Fe2A 1_555 1_555
O47A Na2 1_555 1_555
O47_2 Na2 1_555 1_555
O47A_2 C4A 1_555 1_555
O47_3 Na2_3 1_555 1_555
O48A C2A 1_555 1_555
O48_2 Na2_3 1_555 1_555
O48A_2 Na2A_2 1_555 1_555
O49A C1A 1_555 1_555
O49_2 Na2_3 1_555 1_555
O49A_2 Na2A_2 1_555 1_555
O50A Na2 1_555 1_555
O50A_2 C3A 1_555 1_555
O50_2 Na2A_2 1_555 1_555
C1A O43A 1_555 1_555
C2A O42A 1_555 1_555
C3A O44A 1_555 1_555
C4A O45A 1_555 1_555
Na1A O51 1_555 1_555
Na1A_2 O46A 1_555 1_555
Na2A O47 1_555 1_555
Na2_2 O47 1_555 1_555
Na2_3 O47A_2 1_555 1_555
Na2A_2 O47A_2 1_555 1_555
Na2A_3 O48A 1_555 1_555
Na5_2 O33 1_555 1_555
Na5A O33A 1_555 1_555
Na6A O27 1_555 1_555
Na6_2 O27A_2 1_555 1_555
Na6A_2 O27A_2 1_555 1_555
Na7A O68 1_555 1_555
Na7A_2 O50A_2 1_555 1_555
Na8_2 O69 1_555 1_555
O51A Na1 1_555 1_555
O52A Na4 1_555 1_555
O53A Na6 1_555 1_555
O53A_2 Na6_2 1_555 1_555
O53_2 Na6A_2 1_555 1_555
O54A Na6 1_555 1_555
O54A_2 Na6_2 1_555 1_555
O54_2 Na6A_2 1_555 1_555
O56_2 Na6_2 1_555 1_555
O56A Na6A_2 1_555 1_555
O56A_2 Na6A 1_555 1_555
O57_2 Na6_2 1_555 1_555
O57A Na6A_2 1_555 1_555
O57A_2 Na6A 1_555 1_555
O58A Na4 1_555 1_555
O64A Na7A_2 1_555 1_555
O66A Na4 1_555 1_555
O67A Na7A_2 1_555 1_555
O68A Na7 1_555 1_555
O68_2 Na2_3 1_555 1_555
O68A_2 Na2A_2 1_555 1_555
O69_2 Na8 1_555 1_555
O69A Na7A_2 1_555 1_555
O70A Na7A_2 1_555 1_555
W2 O14 1_555 1_555
W3 O14 1_555 1_555
W3 O17 1_555 1_555
W5 O25 1_555 1_555
W5 O26 1_555 1_555
W6 O26 1_555 1_555
W6 O29 1_555 1_555
W8 O28 1_555 1_555
W8 O35 1_555 1_555
W8 O37 1_555 1_555
W9 O36 1_555 1_555
W9 O37 1_555 1_555
W9 O39 1_555 1_555
Fe1 O41 1_555 1_555
Sb1 O26 1_555 1_555
Sb1 O37 1_555 1_555
O45 Na3 1_555 1_555
O46 Na1 1_555 1_555
O49 Na2 1_555 1_555
O50 Na2A 1_555 1_555
C1 C2 1_555 1_555
C3 C4 1_555 1_555
Na4 O66 1_555 1_555
Na8 O63 1_555 1_555
O53 Na6A 1_555 1_555
O54 Na6A 1_555 1_555
W1A O11A 1_555 1_555
W2A O14A 1_555 1_555
W3A O14A 1_555 1_555
W3A O17A 1_555 1_555
W4A O20A 1_555 1_555
W5A O25A 1_555 1_555
W5A O26A 1_555 1_555
W6A O24A 1_555 1_555
W6A O26A 1_555 1_555
W6A O29A 1_555 1_555
W7A O32A 1_555 1_555
W8A O28A 1_555 1_555
W8A O35A 1_555 1_555
W8A O37A 1_555 1_555
W9A O36A 1_555 1_555
W9A O37A 1_555 1_555
W9A O39A 1_555 1_555
Fe1A O10A 1_555 1_555
Fe1A O23A 1_555 1_555
Fe1A O41A 1_555 1_555
Fe2A O31A 1_555 1_555
Fe2A O34A 1_555 1_555
Sb1A O26A 1_555 1_555
Sb1A O37A 1_555 1_555
O27A Na6A 1_555 1_555
O27_2 Na6A_2 1_555 1_555
O47_3 Na2A_2 1_555 1_555
O49A Na2A_3 1_555 1_555
O50A Na7A 1_555 1_555
O50A_2 Na2_3 1_555 1_555
C1A C2A 1_555 1_555
C3A C4A 1_555 1_555
Na1A O51A 1_555 1_555
Na2A O68A 1_555 1_555
Na7A_2 O68_2 1_555 1_555

#END
