
#######################################################################
#
#                 Cambridge Crystallographic Data Centre
#                                CCDC 
#
#######################################################################
#
# If this CIF has been generated from an entry in the Cambridge 
# Structural Database, then it will include bibliographic, chemical, 
# crystal, experimental, refinement or atomic coordinate data resulting 
# from the CCDC's data processing and validation procedures.
#
#######################################################################

data_TONLOY
_chemical_formula_moiety         '(C12 H18 Cd1 N4 O7)n'
_symmetry_cell_setting           rhombohedral
_symmetry_space_group_name_H-M   'R -3 c'
_symmetry_Int_Tables_number      167
_space_group_name_Hall           '-R 3 2"c'
loop_
_symmetry_equiv_pos_site_id
_symmetry_equiv_pos_as_xyz
1 x,y,z
2 -y,x-y,z
3 -x+y,-x,z
4 y,x,1/2-z
5 -x,-x+y,1/2-z
6 x-y,-y,1/2-z
7 2/3+x,1/3+y,1/3+z
8 2/3-y,1/3+x-y,1/3+z
9 2/3-x+y,1/3-x,1/3+z
10 2/3+y,1/3+x,5/6-z
11 2/3-x,1/3-x+y,5/6-z
12 2/3+x-y,1/3-y,5/6-z
13 1/3+x,2/3+y,2/3+z
14 1/3-y,2/3+x-y,2/3+z
15 1/3-x+y,2/3-x,2/3+z
16 1/3+y,2/3+x,1/6-z
17 1/3-x,2/3-x+y,1/6-z
18 1/3+x-y,2/3-y,1/6-z
19 -x,-y,-z
20 y,-x+y,-z
21 x-y,x,-z
22 -y,-x,1/2+z
23 x,x-y,1/2+z
24 -x+y,y,1/2+z
25 1/3-x,2/3-y,2/3-z
26 1/3+y,2/3-x+y,2/3-z
27 1/3+x-y,2/3+x,2/3-z
28 1/3-y,2/3-x,1/6+z
29 1/3+x,2/3+x-y,1/6+z
30 1/3-x+y,2/3+y,1/6+z
31 2/3-x,1/3-y,1/3-z
32 2/3+y,1/3-x+y,1/3-z
33 2/3+x-y,1/3+x,1/3-z
34 2/3-y,1/3-x,5/6+z
35 2/3+x,1/3+x-y,5/6+z
36 2/3-x+y,1/3+y,5/6+z
_cell_length_a                   27.1286(11)
_cell_length_b                   27.1286(11)
_cell_length_c                   12.0736(6)
_cell_angle_alpha                90
_cell_angle_beta                 90
_cell_angle_gamma                120
_cell_volume                     7695.24
loop_
_atom_site_label
_atom_site_type_symbol
_atom_site_fract_x
_atom_site_fract_y
_atom_site_fract_z
Cd1 Cd 0.6667 0.07635(2) 0.5833
O1 O 0.6899(4) 0.1614(6) 0.7062(9)
O2 O 0.6900(3) 0.0917(4) 0.7774(5)
O4 O 0.6667 -0.008(2) 0.5833
H1 H 0.6529 -0.0363 0.6384
N1 N 0.9027(2) 0.2270(3) 0.7729(4)
N2 N 0.8238(2) 0.2214(2) 0.8379(4)
C1 C 0.8697(2) 0.2156(2) 0.8618(4)
C2 C 0.8768(3) 0.2402(2) 0.6907(5)
H2 H 0.8904 0.2501 0.6187
C3 C 0.8289(3) 0.2370(3) 0.7290(5)
H3 H 0.8038 0.2440 0.6889
C4 C 0.7284(5) 0.1563(5) 0.9079(9)
H4 H 0.7384 0.1281 0.9303
H5 H 0.7003 0.1547 0.9599
C6 C 0.7003(4) 0.1404(3) 0.7861(7)
C7 C 0.7774(4) 0.2108(3) 0.9136(5)
H8 H 0.7661 0.2390 0.8993
H9 H 0.7920 0.2167 0.9887
Cd1BA Cd 1.0000 0.25702(2) 0.7500
Cd1Z Cd 0.92368(2) 0.3334 1.0834
Cd1I Cd 0.74302(2) 0.0000 1.2500
O1I O 0.8281(6) 0.0232(4) 1.1271(9)
O1P O 0.6434(4) 0.1382(7) 0.4605(9)
O2I O 0.7584(4) 0.0233(3) 1.0559(5)
O2P O 0.6433(3) 0.0684(5) 0.3893(5)
H1P H 0.6804 -0.0225 0.5283
N1I N 0.8937(3) 0.2360(2) 1.0604(4)
N1HA N 0.5694(2) 0.0090(4) 0.6062(4)
N1DA N 0.7640(2) 0.1063(3) 0.5604(4)
N2I N 0.8881(2) 0.1571(2) 0.9954(4)
C1I C 0.8823(2) 0.2030(2) 0.9715(4)
C2I C 0.9069(2) 0.2101(3) 1.1426(5)
H2I H 0.9168 0.2237 1.2146
C3I C 0.9037(3) 0.1622(3) 1.1043(5)
H3I H 0.9107 0.1371 1.1444
C4I C 0.8230(5) 0.0617(5) 0.9254(9)
H4I H 0.7948 0.0717 0.9030
H5I H 0.8214 0.0336 0.8734
C6I C 0.8071(3) 0.0336(4) 1.0472(7)
C7I C 0.8775(3) 0.1107(4) 0.9197(5)
H8I H 0.9057 0.0994 0.9340
H9I H 0.8834 0.1253 0.8446
O5 O -0.0000 0.1085(10) 0.2500
H10 H -0.0299 0.0687 0.2500
H10D H 0.0299 0.0986 0.2500
O6 O 1.0000 0.0905(7) 0.7500
H11 H 0.9707 0.0922 0.7399
H11D H 1.0293 0.1215 0.7601
loop_
_geom_bond_atom_site_label_1
_geom_bond_atom_site_label_2
_geom_bond_site_symmetry_1
_geom_bond_site_symmetry_2
Cd1 O1 1_555 1_555
O1 C6 1_555 1_555
O2 Cd1 1_555 1_555
O4 Cd1 1_555 1_555
H1 O4 1_555 1_555
N1 C1 1_555 1_555
N2 C1 1_555 1_555
C1 C1I 1_555 1_555
C2 N1 1_555 1_555
H2 C2 1_555 1_555
C3 N2 1_555 1_555
H3 C3 1_555 1_555
C4 H4 1_555 1_555
H5 C4 1_555 1_555
C6 O2 1_555 1_555
C7 N2 1_555 1_555
H8 C7 1_555 1_555
H9 C7 1_555 1_555
O5 H10 1_555 1_555
O6 H11 1_555 1_555
Cd1BA N1 1_555 1_555
Cd1Z N1I 1_555 1_555
Cd1I O1I 1_555 1_555
O1I C6I 1_555 1_555
O1P Cd1 1_555 1_555
O2I Cd1I 1_555 1_555
O2P Cd1 1_555 1_555
H1P O4 1_555 1_555
N1I C1I 1_555 1_555
N1HA Cd1 1_555 1_555
N1DA Cd1 1_555 1_555
N2I C1I 1_555 1_555
C2I N1I 1_555 1_555
H2I C2I 1_555 1_555
C3I N2I 1_555 1_555
H3I C3I 1_555 1_555
C4I H4I 1_555 1_555
H5I C4I 1_555 1_555
C6I O2I 1_555 1_555
C7I N2I 1_555 1_555
H8I C7I 1_555 1_555
H9I C7I 1_555 1_555
H10D O5 1_555 1_555
H11D O6 1_555 1_555
C2 C3 1_555 1_555
C4 C6 1_555 1_555
C4 C7 1_555 1_555
C2I C3I 1_555 1_555
C4I C6I 1_555 1_555
C4I C7I 1_555 1_555

#END
