
#######################################################################
#
#                 Cambridge Crystallographic Data Centre
#                                CCDC 
#
#######################################################################
#
# If this CIF has been generated from an entry in the Cambridge 
# Structural Database, then it will include bibliographic, chemical, 
# crystal, experimental, refinement or atomic coordinate data resulting 
# from the CCDC's data processing and validation procedures.
#
#######################################################################

data_LIQTUC
_chemical_formula_moiety         '(C64 H68 Ag2 F6 N4 S8 Sb1 1+)n'
_symmetry_cell_setting           trigonal
_symmetry_space_group_name_H-M   'P 32 2 1'
_symmetry_Int_Tables_number      154
_space_group_name_Hall           'P 32 2"'
loop_
_symmetry_equiv_pos_site_id
_symmetry_equiv_pos_as_xyz
1 x,y,z
2 -y,x-y,2/3+z
3 -x+y,-x,1/3+z
4 y,x,-z
5 x-y,-y,1/3-z
6 -x,-x+y,2/3-z
_cell_length_a                   23.1415(11)
_cell_length_b                   23.1415(11)
_cell_length_c                   15.1463(6)
_cell_angle_alpha                90
_cell_angle_beta                 90
_cell_angle_gamma                120
_cell_volume                     7024.58
loop_
_atom_site_label
_atom_site_type_symbol
_atom_site_fract_x
_atom_site_fract_y
_atom_site_fract_z
Ag1 Ag 0.04915(9) 0.54333(6) 0.16442(8)
S1 S 0.17439(19) 0.5207(2) -0.2899(3)
C1 C 0.1463(7) 0.5433(8) -0.1958(9)
C2 C 0.1313(7) 0.5028(8) -0.1165(11)
C3 C 0.1107(7) 0.5260(8) -0.0393(9)
C4 C 0.1125(7) 0.5874(9) -0.0466(14)
H1 H 0.0982 0.6026 0.0025
C5 C 0.1328(8) 0.6249(8) -0.1180(9)
C6 C 0.1473(7) 0.6021(7) -0.1925(11)
H2 H 0.1586 0.6286 -0.2444
S2 S 0.1357(2) 0.4299(2) -0.1151(3)
C7 C 0.2112(8) 0.4628(9) -0.0471(11)
H3 H 0.2404 0.5114 -0.0562
H4 H 0.1999 0.4542 0.0164
C8 C 0.2459(5) 0.4224(6) -0.0818(8)
C9 C 0.3115(5) 0.4622(4) -0.1099(8)
H5 H 0.3309 0.5093 -0.1111
N1 N 0.3485(4) 0.4329(5) -0.1363(7)
C10 C 0.3201(6) 0.3639(5) -0.1345(9)
H6 H 0.3454 0.3440 -0.1525
C11 C 0.2545(6) 0.3242(4) -0.1064(10)
H7 H 0.2351 0.2770 -0.1052
C12 C 0.2175(4) 0.3534(6) -0.0801(9)
H8 H 0.1727 0.3262 -0.0609
C13 C 0.1342(10) 0.6958(7) -0.1187(10)
C14 C 0.0881(13) 0.6935(12) -0.1963(15)
H9 H 0.1065 0.6892 -0.2526
H10 H 0.0859 0.7346 -0.1965
H11 H 0.0432 0.6551 -0.1884
C15 C 0.2102(13) 0.7523(12) -0.1403(15)
H12 H 0.2389 0.7567 -0.0903
H13 H 0.2123 0.7951 -0.1507
H14 H 0.2256 0.7395 -0.1932
C16 C 0.0971(13) 0.7032(12) -0.0363(15)
H15 H 0.0807 0.7338 -0.0506
H16 H 0.1281 0.7210 0.0136
H17 H 0.0594 0.6594 -0.0206
S3 S 0.09397(18) 0.4838(2) 0.0612(2)
C17 C 0.0159(8) 0.4103(8) 0.0411(8)
C18 C -0.0406(8) 0.4129(8) 0.0273(9)
C19 C -0.0984(6) 0.3511(8) -0.0044(9)
C20 C -0.0964(7) 0.2933(7) -0.0017(10)
H18 H -0.1365 0.2532 -0.0153
C21 C -0.0402(8) 0.2879(8) 0.0196(11)
C22 C 0.0173(7) 0.3522(8) 0.0427(12)
H19 H 0.0575 0.3536 0.0597
S4 S -0.0508(2) 0.4819(2) 0.0520(2)
C23 C -0.1164(8) 0.4471(9) 0.1363(10)
H20 H -0.1273 0.4822 0.1513
H21 H -0.1566 0.4102 0.1083
C24 C -0.1063(9) 0.4222(11) 0.2174(11)
C25 C -0.0833(8) 0.4601(9) 0.2926(11)
H22 H -0.0745 0.5048 0.2909
N2 N -0.0726(10) 0.4368(10) 0.3691(9)
C26 C -0.0754(11) 0.3734(10) 0.3714(12)
H23 H -0.0649 0.3579 0.4237
C27 C -0.0939(13) 0.3354(10) 0.2944(12)
H24 H -0.0958 0.2935 0.2951
C28 C -0.1097(9) 0.3559(9) 0.2175(10)
H25 H -0.1223 0.3288 0.1661
C29 C -0.0382(8) 0.2233(8) 0.0211(12)
C30 C 0.0323(10) 0.2356(14) -0.005(2)
H26 H 0.0294 0.1930 -0.0192
H27 H 0.0630 0.2563 0.0451
H28 H 0.0489 0.2653 -0.0560
C31 C -0.0889(15) 0.1729(14) -0.045(2)
H29 H -0.0678 0.1523 -0.0790
H30 H -0.1036 0.1960 -0.0856
H31 H -0.1275 0.1382 -0.0131
C32 C -0.0574(17) 0.1962(15) 0.1160(14)
H32 H -0.1003 0.1923 0.1315
H33 H -0.0229 0.2268 0.1571
H34 H -0.0611 0.1521 0.1196
S1E S -0.17439(19) 0.34631(28) -0.0434(3)
C1E C -0.1463(7) 0.3970(11) -0.1375(9)
C2E C -0.1313(7) 0.3715(11) -0.2168(11)
C3E C -0.1107(7) 0.4153(11) -0.2940(9)
C4E C -0.1125(7) 0.4749(11) -0.2867(14)
H1E H -0.0982 0.5044 -0.3358
C5E C -0.1328(8) 0.4921(11) -0.2153(9)
C6E C -0.1473(7) 0.4548(10) -0.1408(11)
H2E H -0.1586 0.4700 -0.0889
S2E S -0.1357(2) 0.2942(3) -0.2182(3)
C7E C -0.2112(8) 0.2516(12) -0.2862(11)
H3E H -0.2404 0.2710 -0.2771
H4E H -0.1999 0.2543 -0.3497
C8E C -0.2459(5) 0.1765(8) -0.2515(8)
C9E C -0.3115(5) 0.1507(6) -0.2234(8)
H5E H -0.3309 0.1784 -0.2222
N1E N -0.3485(4) 0.0844(6) -0.1970(7)
C10E C -0.3201(6) 0.0438(8) -0.1988(9)
H6E H -0.3454 -0.0014 -0.1808
C11E C -0.2545(6) 0.0697(7) -0.2269(10)
H7E H -0.2351 0.0419 -0.2281
C12E C -0.2175(4) 0.1359(7) -0.2532(9)
H8E H -0.1727 0.1535 -0.2724
C13E C -0.1342(10) 0.5616(12) -0.2146(10)
C14E C -0.0881(13) 0.6054(18) -0.1370(15)
H9E H -0.1065 0.5827 -0.0807
H10E H -0.0859 0.6487 -0.1368
H11E H -0.0432 0.6119 -0.1449
C15E C -0.2102(13) 0.5421(18) -0.1930(15)
H12E H -0.2389 0.5178 -0.2430
H13E H -0.2123 0.5828 -0.1826
H14E H -0.2256 0.5139 -0.1401
C16E C -0.0971(13) 0.6061(18) -0.2970(15)
H15E H -0.0807 0.6531 -0.2827
H16E H -0.1281 0.5929 -0.3469
H17E H -0.0594 0.6000 -0.3127
S3E S -0.09397(18) 0.38983(27) -0.3945(2)
C17E C -0.0159(8) 0.3944(11) -0.3744(8)
C18E C 0.0406(8) 0.4535(11) -0.3606(9)
C19E C 0.0984(6) 0.4495(10) -0.3289(9)
C20E C 0.0964(7) 0.3897(10) -0.3316(10)
H18E H 0.1365 0.3897 -0.3180
C21E C 0.0402(8) 0.3281(11) -0.3529(11)
C22E C -0.0173(7) 0.3349(11) -0.3760(12)
H19E H -0.0575 0.2961 -0.3930
S4E S 0.0508(2) 0.5327(3) -0.3853(2)
C23E C 0.1164(8) 0.5635(12) -0.4696(10)
H20E H 0.1273 0.6095 -0.4846
H21E H 0.1566 0.5668 -0.4416
C24E C 0.1063(9) 0.5285(14) -0.5507(11)
C25E C 0.0833(8) 0.5434(12) -0.6259(11)
H22E H 0.0745 0.5793 -0.6242
N2E N 0.0726(10) 0.5094(14) -0.7024(9)
C26E C 0.0754(11) 0.4488(15) -0.7047(12)
H23E H 0.0649 0.4228 -0.7570
C27E C 0.0939(13) 0.4293(16) -0.6277(12)
H24E H 0.0958 0.3893 -0.6284
C28E C 0.1097(9) 0.4656(13) -0.5508(10)
H25E H 0.1223 0.4511 -0.4994
C29E C 0.0382(8) 0.2615(11) -0.3544(12)
C30E C -0.0323(10) 0.2033(17) -0.328(2)
H26E H -0.0294 0.1636 -0.3141
H27E H -0.0630 0.1933 -0.3784
H28E H -0.0489 0.2164 -0.2773
C31E C 0.0889(15) 0.2618(21) -0.288(2)
H29E H 0.0678 0.2201 -0.2543
H30E H 0.1036 0.2996 -0.2477
H31E H 0.1275 0.2657 -0.3202
C32E C 0.0574(17) 0.2536(23) -0.4493(14)
H32E H 0.1003 0.2926 -0.4648
H33E H 0.0229 0.2497 -0.4904
H34E H 0.0611 0.2132 -0.4529
Ag1E Ag -0.04915(9) 0.49418(11) -0.49775(8)
Ag1_2 Ag 0.04915(9) 0.54333(6) -0.83558(8)
Ag1A Ag 0.45667(6) 0.50582(11) -0.16891(8)
Ag1C Ag -0.45667(6) 0.04915(9) -0.16442(8)
Ag1E_2 Ag -0.04915(9) 0.49418(11) 0.50225(8)
N1B N 0.0844(6) 0.6515(4) 0.1970(7)
N1D N -0.0844(6) 0.5671(5) -0.5304(7)
N2_2 N -0.0726(10) 0.4368(10) -0.6309(9)
N2E_2 N 0.0726(10) 0.5094(14) 0.2976(9)
Sb1 Sb 0.83875(9) 0.60898(11) 0.12287(10)
F1 F 0.8264(13) 0.5446(11) 0.2163(13)
F2 F 0.8491(12) 0.6677(10) 0.0301(12)
F3 F 0.7845(11) 0.5320(9) 0.0481(14)
F4 F 0.8899(10) 0.6806(9) 0.2024(13)
F5 F 0.7596(8) 0.6072(12) 0.1636(14)
F6 F 0.9177(7) 0.6079(11) 0.0865(13)
loop_
_geom_bond_atom_site_label_1
_geom_bond_atom_site_label_2
_geom_bond_site_symmetry_1
_geom_bond_site_symmetry_2
Ag1 S3 1_555 1_555
S1 C1 1_555 1_555
C1 C2 1_555 1_555
C2 C3 1_555 1_555
C3 C4 1_555 1_555
C4 H1 1_555 1_555
C5 C4 1_555 1_555
C6 C1 1_555 1_555
H2 C6 1_555 1_555
S2 C2 1_555 1_555
C7 S2 1_555 1_555
H3 C7 1_555 1_555
H4 C7 1_555 1_555
C8 C7 1_555 1_555
C9 C8 1_555 1_555
H5 C9 1_555 1_555
N1 C9 1_555 1_555
C10 N1 1_555 1_555
H6 C10 1_555 1_555
C11 C10 1_555 1_555
H7 C11 1_555 1_555
C12 C8 1_555 1_555
H8 C12 1_555 1_555
C13 C5 1_555 1_555
C14 C13 1_555 1_555
H9 C14 1_555 1_555
H10 C14 1_555 1_555
H11 C14 1_555 1_555
C15 C13 1_555 1_555
H12 C15 1_555 1_555
H13 C15 1_555 1_555
H14 C15 1_555 1_555
C16 C13 1_555 1_555
H15 C16 1_555 1_555
H16 C16 1_555 1_555
H17 C16 1_555 1_555
S3 C3 1_555 1_555
C17 S3 1_555 1_555
C18 C17 1_555 1_555
C19 C18 1_555 1_555
C20 C19 1_555 1_555
H18 C20 1_555 1_555
C21 C20 1_555 1_555
C22 C17 1_555 1_555
H19 C22 1_555 1_555
S4 Ag1 1_555 1_555
C23 S4 1_555 1_555
H20 C23 1_555 1_555
H21 C23 1_555 1_555
C24 C23 1_555 1_555
C25 C24 1_555 1_555
H22 C25 1_555 1_555
N2 C25 1_555 1_555
C26 N2 1_555 1_555
H23 C26 1_555 1_555
C27 C26 1_555 1_555
H24 C27 1_555 1_555
C28 C24 1_555 1_555
H25 C28 1_555 1_555
C29 C21 1_555 1_555
C30 C29 1_555 1_555
H26 C30 1_555 1_555
H27 C30 1_555 1_555
H28 C30 1_555 1_555
C31 C29 1_555 1_555
H29 C31 1_555 1_555
H30 C31 1_555 1_555
H31 C31 1_555 1_555
C32 C29 1_555 1_555
H32 C32 1_555 1_555
H33 C32 1_555 1_555
H34 C32 1_555 1_555
Sb1 F1 1_555 1_555
F2 Sb1 1_555 1_555
F3 Sb1 1_555 1_555
F4 Sb1 1_555 1_555
F5 Sb1 1_555 1_555
F6 Sb1 1_555 1_555
S1E C19 1_555 1_555
C1E S1E 1_555 1_555
C2E C1E 1_555 1_555
C3E C2E 1_555 1_555
C4E C3E 1_555 1_555
H1E C4E 1_555 1_555
C5E C4E 1_555 1_555
C6E C1E 1_555 1_555
H2E C6E 1_555 1_555
S2E C2E 1_555 1_555
C7E S2E 1_555 1_555
H3E C7E 1_555 1_555
H4E C7E 1_555 1_555
C8E C7E 1_555 1_555
C9E C8E 1_555 1_555
H5E C9E 1_555 1_555
N1E C9E 1_555 1_555
C10E N1E 1_555 1_555
H6E C10E 1_555 1_555
C11E C10E 1_555 1_555
H7E C11E 1_555 1_555
C12E C8E 1_555 1_555
H8E C12E 1_555 1_555
C13E C5E 1_555 1_555
C14E C13E 1_555 1_555
H9E C14E 1_555 1_555
H10E C14E 1_555 1_555
H11E C14E 1_555 1_555
C15E C13E 1_555 1_555
H12E C15E 1_555 1_555
H13E C15E 1_555 1_555
H14E C15E 1_555 1_555
C16E C13E 1_555 1_555
H15E C16E 1_555 1_555
H16E C16E 1_555 1_555
H17E C16E 1_555 1_555
S3E C3E 1_555 1_555
C17E S3E 1_555 1_555
C18E C17E 1_555 1_555
C19E S1 1_555 1_555
C20E C19E 1_555 1_555
H18E C20E 1_555 1_555
C21E C20E 1_555 1_555
C22E C17E 1_555 1_555
H19E C22E 1_555 1_555
S4E C18E 1_555 1_555
C23E S4E 1_555 1_555
H20E C23E 1_555 1_555
H21E C23E 1_555 1_555
C24E C23E 1_555 1_555
C25E C24E 1_555 1_555
H22E C25E 1_555 1_555
N2E C25E 1_555 1_555
C26E N2E 1_555 1_555
H23E C26E 1_555 1_555
C27E C26E 1_555 1_555
H24E C27E 1_555 1_555
C28E C24E 1_555 1_555
H25E C28E 1_555 1_555
C29E C21E 1_555 1_555
C30E C29E 1_555 1_555
H26E C30E 1_555 1_555
H27E C30E 1_555 1_555
H28E C30E 1_555 1_555
C31E C29E 1_555 1_555
H29E C31E 1_555 1_555
H30E C31E 1_555 1_555
H31E C31E 1_555 1_555
C32E C29E 1_555 1_555
H32E C32E 1_555 1_555
H33E C32E 1_555 1_555
H34E C32E 1_555 1_555
Ag1E S3E 1_555 1_555
Ag1_2 N2E 1_555 1_555
Ag1A N1 1_555 1_555
Ag1C N1E 1_555 1_555
Ag1E_2 N2 1_555 1_555
N1B Ag1 1_555 1_555
N1D Ag1E 1_555 1_555
N2_2 Ag1E 1_555 1_555
N2E_2 Ag1 1_555 1_555
C5 C6 1_555 1_555
C11 C12 1_555 1_555
C18 S4 1_555 1_555
C21 C22 1_555 1_555
C27 C28 1_555 1_555
C5E C6E 1_555 1_555
C11E C12E 1_555 1_555
C18E C19E 1_555 1_555
C21E C22E 1_555 1_555
S4E Ag1E 1_555 1_555
C27E C28E 1_555 1_555

#END
