
#######################################################################
#
#                 Cambridge Crystallographic Data Centre
#                                CCDC 
#
#######################################################################
#
# If this CIF has been generated from an entry in the Cambridge 
# Structural Database, then it will include bibliographic, chemical, 
# crystal, experimental, refinement or atomic coordinate data resulting 
# from the CCDC's data processing and validation procedures.
#
#######################################################################

data_OBAHOR
_chemical_formula_moiety         '(C78 H83 N3 O4 Zn1)n'
_symmetry_cell_setting           rhombohedral
_symmetry_space_group_name_H-M   'R -3'
_symmetry_Int_Tables_number      148
_space_group_name_Hall           '-R 3'
loop_
_symmetry_equiv_pos_site_id
_symmetry_equiv_pos_as_xyz
1 x,y,z
2 -y,x-y,z
3 -x+y,-x,z
4 2/3+x,1/3+y,1/3+z
5 2/3-y,1/3+x-y,1/3+z
6 2/3-x+y,1/3-x,1/3+z
7 1/3+x,2/3+y,2/3+z
8 1/3-y,2/3+x-y,2/3+z
9 1/3-x+y,2/3-x,2/3+z
10 -x,-y,-z
11 y,-x+y,-z
12 x-y,x,-z
13 1/3-x,2/3-y,2/3-z
14 1/3+y,2/3-x+y,2/3-z
15 1/3+x-y,2/3+x,2/3-z
16 2/3-x,1/3-y,1/3-z
17 2/3+y,1/3-x+y,1/3-z
18 2/3+x-y,1/3+x,1/3-z
_cell_length_a                   29.670(6)
_cell_length_b                   29.670(6)
_cell_length_c                   17.915(3)
_cell_angle_alpha                90
_cell_angle_beta                 90
_cell_angle_gamma                120
_cell_volume                     13657.9
loop_
_atom_site_label
_atom_site_type_symbol
_atom_site_fract_x
_atom_site_fract_y
_atom_site_fract_z
_atom_site_U_iso_or_equiv
_atom_site_thermal_displace_type
C23 C 0.49528(15) 0.52234(13) 0.56408(18) 0.0526 Uani
H14 H 0.4916 0.5377 0.6084 0.0630 Uiso
C24 C 0.45144(15) 0.48719(14) 0.52593(19) 0.0532 Uani
H15 H 0.4180 0.4785 0.5444 0.0640 Uiso
C25 C 0.54437(15) 0.53576(14) 0.53959(19) 0.0564 Uani
C26 C 0.59202(19) 0.5742(2) 0.5805(3) 0.0839 Uani
H16 H 0.5882 0.5653 0.6337 0.1260 Uiso
H17 H 0.5968 0.6092 0.5742 0.1260 Uiso
H18 H 0.6224 0.5735 0.5605 0.1260 Uiso
C23I C 0.50472(15) 0.47766(13) 0.43592(18) 0.0526 Uani
H14I H 0.5084 0.4623 0.3916 0.0630 Uiso
C24I C 0.54856(15) 0.51281(14) 0.47407(19) 0.0532 Uani
H15I H 0.5820 0.5215 0.4556 0.0640 Uiso
C25I C 0.45563(15) 0.46424(14) 0.46041(19) 0.0564 Uani
C26I C 0.40798(19) 0.4258(2) 0.4195(3) 0.0839 Uani
H16I H 0.4118 0.4347 0.3663 0.1260 Uiso
H17I H 0.4032 0.3908 0.4258 0.1260 Uiso
H18I H 0.3776 0.4265 0.4395 0.1260 Uiso
C35 C 0.4964(5) 0.8295(4) 0.4194(6) 0.1280 Uiso
H29 H 0.5148 0.8540 0.4578 0.1530 Uiso
C36 C 0.4943(5) 0.8466(3) 0.3480(6) 0.1070 Uiso
H30 H 0.5112 0.8829 0.3376 0.1290 Uiso
C37 C 0.4675(5) 0.8108(4) 0.2918(5) 0.0920 Uiso
H31 H 0.4660 0.8225 0.2430 0.1100 Uiso
C38 C 0.4427(4) 0.7578(3) 0.3071(5) 0.1010 Uiso
C39 C 0.4448(4) 0.7407(3) 0.3786(5) 0.0930 Uiso
C40 C 0.4717(5) 0.7765(4) 0.4347(4) 0.1130 Uiso
H32 H 0.4731 0.7648 0.4835 0.1360 Uiso
C41 C 0.4121(8) 0.7193(6) 0.2497(10) 0.1370 Uiso
H33 H 0.4145 0.7372 0.2027 0.2060 Uiso
H34 H 0.3756 0.6995 0.2656 0.2060 Uiso
H35 H 0.4256 0.6955 0.2427 0.2060 Uiso
C42 C 0.4163(8) 0.6816(6) 0.3984(9) 0.1220 Uiso
H36 H 0.4221 0.6774 0.4511 0.1830 Uiso
H37 H 0.4300 0.6640 0.3673 0.1830 Uiso
H38 H 0.3789 0.6664 0.3892 0.1830 Uiso
C35P C 0.4962(4) 0.6664(6) -0.0861(6) 0.1280 Uiso
H29P H 0.5207 0.6725 -0.1245 0.1530 Uiso
C36P C 0.5133(3) 0.6856(6) -0.0147(6) 0.1070 Uiso
H30P H 0.5496 0.7050 -0.0043 0.1290 Uiso
C37P C 0.4775(4) 0.6766(6) 0.0415(5) 0.0920 Uiso
H31P H 0.4892 0.6898 0.0903 0.1100 Uiso
C38P C 0.4245(3) 0.6484(5) 0.0262(5) 0.1010 Uiso
C39P C 0.4074(3) 0.6292(5) -0.0453(5) 0.0930 Uiso
C40P C 0.4432(4) 0.6381(6) -0.1014(4) 0.1130 Uiso
H32P H 0.4315 0.6250 -0.1502 0.1360 Uiso
C41P C 0.3860(6) 0.6405(10) 0.0836(10) 0.1370 Uiso
H33P H 0.4039 0.6560 0.1306 0.2060 Uiso
H34P H 0.3662 0.6572 0.0677 0.2060 Uiso
H35P H 0.3622 0.6032 0.0906 0.2060 Uiso
C42P C 0.3483(6) 0.5986(10) -0.0651(9) 0.1220 Uiso
H36P H 0.3441 0.5886 -0.1178 0.1830 Uiso
H37P H 0.3307 0.5673 -0.0340 0.1830 Uiso
H38P H 0.3331 0.6208 -0.0559 0.1830 Uiso
C35Q C 0.3336(6) 0.8297(5) -0.0861(6) 0.1280 Uiso
H29Q H 0.3275 0.8481 -0.1245 0.1530 Uiso
C36Q C 0.3144(6) 0.8276(5) -0.0147(6) 0.1070 Uiso
H30Q H 0.2950 0.8445 -0.0043 0.1290 Uiso
C37Q C 0.3234(6) 0.8008(5) 0.0415(5) 0.0920 Uiso
H31Q H 0.3102 0.7993 0.0903 0.1100 Uiso
C38Q C 0.3516(5) 0.7760(4) 0.0262(5) 0.1010 Uiso
C39Q C 0.3708(5) 0.7781(4) -0.0453(5) 0.0930 Uiso
C40Q C 0.3619(6) 0.8050(5) -0.1014(4) 0.1130 Uiso
H32Q H 0.3750 0.8064 -0.1502 0.1360 Uiso
C41Q C 0.3595(10) 0.7454(8) 0.0836(10) 0.1370 Uiso
H33Q H 0.3440 0.7478 0.1306 0.2060 Uiso
H34Q H 0.3428 0.7089 0.0677 0.2060 Uiso
H35Q H 0.3968 0.7589 0.0906 0.2060 Uiso
C42Q C 0.4014(10) 0.7496(8) -0.0651(9) 0.1220 Uiso
H36Q H 0.4114 0.7554 -0.1178 0.1830 Uiso
H37Q H 0.4327 0.7633 -0.0340 0.1830 Uiso
H38Q H 0.3792 0.7122 -0.0559 0.1830 Uiso
C35A C 0.1705(4) 0.6669(6) 0.4194(6) 0.1280 Uiso
H29A H 0.1460 0.6608 0.4578 0.1530 Uiso
C36A C 0.1534(3) 0.6477(6) 0.3480(6) 0.1070 Uiso
H30A H 0.1171 0.6283 0.3376 0.1290 Uiso
C37A C 0.1892(4) 0.6567(6) 0.2918(5) 0.0920 Uiso
H31A H 0.1775 0.6435 0.2430 0.1100 Uiso
C38A C 0.2422(3) 0.6849(5) 0.3071(5) 0.1010 Uiso
C39A C 0.2593(3) 0.7041(5) 0.3786(5) 0.0930 Uiso
C40A C 0.2235(4) 0.6952(6) 0.4347(4) 0.1130 Uiso
H32A H 0.2352 0.7083 0.4835 0.1360 Uiso
C41A C 0.2807(6) 0.6928(10) 0.2497(10) 0.1370 Uiso
H33A H 0.2628 0.6773 0.2027 0.2060 Uiso
H34A H 0.3005 0.6761 0.2656 0.2060 Uiso
H35A H 0.3045 0.7301 0.2427 0.2060 Uiso
C42A C 0.3184(6) 0.7347(10) 0.3984(9) 0.1220 Uiso
H36A H 0.3226 0.7447 0.4511 0.1830 Uiso
H37A H 0.3360 0.7660 0.3673 0.1830 Uiso
H38A H 0.3336 0.7125 0.3892 0.1830 Uiso
C35B C 0.3331(6) 0.5036(5) 0.4194(6) 0.1280 Uiso
H29B H 0.3392 0.4852 0.4578 0.1530 Uiso
C36B C 0.3523(6) 0.5057(5) 0.3480(6) 0.1070 Uiso
H30B H 0.3717 0.4888 0.3376 0.1290 Uiso
C37B C 0.3433(6) 0.5325(5) 0.2918(5) 0.0920 Uiso
H31B H 0.3565 0.5340 0.2430 0.1100 Uiso
C38B C 0.3151(5) 0.5573(4) 0.3071(5) 0.1010 Uiso
C39B C 0.2959(5) 0.5552(4) 0.3786(5) 0.0930 Uiso
C40B C 0.3048(6) 0.5283(5) 0.4347(4) 0.1130 Uiso
H32B H 0.2917 0.5269 0.4835 0.1360 Uiso
C41B C 0.3072(10) 0.5879(8) 0.2497(10) 0.1370 Uiso
H33B H 0.3227 0.5855 0.2027 0.2060 Uiso
H34B H 0.3239 0.6244 0.2656 0.2060 Uiso
H35B H 0.2699 0.5744 0.2427 0.2060 Uiso
C42B C 0.2653(10) 0.5837(8) 0.3984(9) 0.1220 Uiso
H36B H 0.2553 0.5779 0.4511 0.1830 Uiso
H37B H 0.2340 0.5700 0.3673 0.1830 Uiso
H38B H 0.2875 0.6211 0.3892 0.1830 Uiso
C35O C 0.1703(5) 0.5038(4) -0.0861(6) 0.1280 Uiso
H29O H 0.1519 0.4793 -0.1245 0.1530 Uiso
C36O C 0.1724(5) 0.4867(3) -0.0147(6) 0.1070 Uiso
H30O H 0.1555 0.4504 -0.0043 0.1290 Uiso
C37O C 0.1992(5) 0.5225(4) 0.0415(5) 0.0920 Uiso
H31O H 0.2007 0.5108 0.0903 0.1100 Uiso
C38O C 0.2240(4) 0.5755(3) 0.0262(5) 0.1010 Uiso
C39O C 0.2219(4) 0.5926(3) -0.0453(5) 0.0930 Uiso
C40O C 0.1950(5) 0.5568(4) -0.1014(4) 0.1130 Uiso
H32O H 0.1936 0.5685 -0.1502 0.1360 Uiso
C41O C 0.2546(8) 0.6140(6) 0.0836(10) 0.1370 Uiso
H33O H 0.2522 0.5961 0.1306 0.2060 Uiso
H34O H 0.2911 0.6338 0.0677 0.2060 Uiso
H35O H 0.2411 0.6378 0.0906 0.2060 Uiso
C42O C 0.2504(8) 0.6517(6) -0.0651(9) 0.1220 Uiso
H36O H 0.2446 0.6559 -0.1178 0.1830 Uiso
H37O H 0.2367 0.6693 -0.0340 0.1830 Uiso
H38O H 0.2878 0.6669 -0.0559 0.1830 Uiso
Zn1 Zn 0.62915(2) 0.85669(2) 0.51957(2) 0.0337 Uani
N1 N 0.64362(10) 0.89648(9) 0.41833(12) 0.0369 Uani
N2 N 0.59849(10) 0.79467(9) 0.44617(12) 0.0365 Uani
N3 N 0.57802(10) 0.76940(9) 0.33003(12) 0.0377 Uani
H1 H 0.5755 0.7709 0.2813 0.0450 Uiso
O1 O 0.47318(8) 0.49280(8) 0.24401(10) 0.0418 Uani
O2 O 0.44638(9) 0.52518(8) 0.15374(11) 0.0478 Uani
O3 O 0.58190(11) 0.63725(9) 0.75656(11) 0.0547 Uani
O4 O 0.49801(11) 0.59166(10) 0.73467(12) 0.0571 Uani
C1 C 0.66602(14) 0.94786(12) 0.40815(18) 0.0467 Uani
H2 H 0.6791 0.9700 0.4505 0.0560 Uiso
C2 C 0.67098(16) 0.97005(13) 0.33928(19) 0.0541 Uani
H3 H 0.6869 1.0067 0.3342 0.0650 Uiso
C3 C 0.65259(16) 0.93827(13) 0.27796(18) 0.0546 Uani
H4 H 0.6560 0.9528 0.2296 0.0650 Uiso
C4 C 0.62896(14) 0.88482(12) 0.28673(16) 0.0467 Uani
H5 H 0.6157 0.8622 0.2449 0.0560 Uiso
C5 C 0.62515(12) 0.86529(11) 0.35790(15) 0.0371 Uani
C6 C 0.60096(12) 0.81020(11) 0.37592(14) 0.0372 Uani
C7 C 0.57202(12) 0.74112(11) 0.44512(14) 0.0368 Uani
C8 C 0.55879(12) 0.72434(11) 0.37169(14) 0.0386 Uani
C9 C 0.53303(12) 0.67347(11) 0.33517(14) 0.0371 Uani
C10 C 0.51004(13) 0.66796(12) 0.26518(16) 0.0419 Uani
H6 H 0.5096 0.6968 0.2430 0.0500 Uiso
C11 C 0.48801(12) 0.62089(12) 0.22794(15) 0.0409 Uani
H7 H 0.4726 0.6178 0.1803 0.0490 Uiso
C12 C 0.48796(10) 0.57800(11) 0.25899(14) 0.0351 Uani
C13 C 0.51022(12) 0.58292(11) 0.32926(15) 0.0379 Uani
H8 H 0.5101 0.5538 0.3515 0.0450 Uiso
C14 C 0.53237(12) 0.62997(11) 0.36660(14) 0.0392 Uani
H9 H 0.5474 0.6328 0.4144 0.0470 Uiso
C15 C 0.46696(11) 0.52834(11) 0.21524(14) 0.0364 Uani
C16 C 0.56267(13) 0.71221(11) 0.51562(14) 0.0388 Uani
C17 C 0.60259(13) 0.73089(11) 0.56849(15) 0.0403 Uani
H10 H 0.6347 0.7617 0.5585 0.0480 Uiso
C18 C 0.59572(14) 0.70481(12) 0.63535(15) 0.0422 Uani
H11 H 0.6232 0.7175 0.6708 0.0510 Uiso
C19 C 0.54885(14) 0.66031(12) 0.65053(15) 0.0454 Uani
C20 C 0.50810(14) 0.64260(13) 0.59946(16) 0.0493 Uani
H12 H 0.4754 0.6129 0.6106 0.0590 Uiso
C21 C 0.51545(13) 0.66866(12) 0.53191(16) 0.0457 Uani
H13 H 0.4878 0.6564 0.4968 0.0550 Uiso
C22 C 0.54303(16) 0.62851(13) 0.71889(16) 0.0498 Uani
Zn1G Zn 0.47664(2) 0.43913(3) 0.18624(2) 0.0337 Uani
Zn1P Zn 0.52336(2) 0.56087(3) 0.81376(2) 0.0337 Uani
O1E O 0.68629(11) 0.86015(8) 0.57734(10) 0.0418 Uani
O3Q O 0.61132(14) 0.91523(11) 0.57677(11) 0.0547 Uani
O4Q O 0.57302(15) 0.83134(11) 0.59866(12) 0.0571 Uani
loop_
_atom_site_aniso_label
_atom_site_aniso_U_11
_atom_site_aniso_U_22
_atom_site_aniso_U_33
_atom_site_aniso_U_23
_atom_site_aniso_U_13
_atom_site_aniso_U_12
C23 0.071(2) 0.0489(17) 0.0338(15) 0.0015(13) 0.0036(14) 0.0270(16)
C24 0.063(2) 0.0544(18) 0.0387(17) 0.0063(14) 0.0063(14) 0.0267(16)
C25 0.066(2) 0.0548(19) 0.0433(18) -0.0004(14) 0.0024(15) 0.0263(17)
C26 0.072(3) 0.093(3) 0.073(3) -0.029(2) -0.004(2) 0.031(2)
C23I 0.071 0.0489 0.0338 0.0015 0.0036 0.027
C24I 0.063 0.0544 0.0387 0.0063 0.0063 0.0267
C25I 0.066 0.0548 0.0433 -0.0004 0.0024 0.0263
C26I 0.072 0.093 0.073 -0.029 -0.004 0.031
Zn1 0.0515(3) 0.0395(2) 0.0186(2) 0.00141(12) 0.00490(13) 0.02923(18)
N1 0.0558(14) 0.0401(12) 0.0253(11) 0.0018(9) 0.0052(9) 0.0319(11)
N2 0.0614(14) 0.0388(12) 0.0177(10) 0.0029(8) 0.0046(9) 0.0313(11)
N3 0.0639(15) 0.0402(12) 0.0170(10) 0.0039(8) 0.0044(10) 0.0321(11)
O1 0.0551(12) 0.0395(10) 0.0242(9) -0.0031(8) -0.0058(8) 0.0188(9)
O2 0.0596(13) 0.0496(12) 0.0228(10) -0.0016(8) -0.0101(9) 0.0187(10)
O3 0.0933(18) 0.0539(13) 0.0254(10) 0.0091(9) -0.0003(11) 0.0431(13)
O4 0.0791(17) 0.0679(15) 0.0325(11) 0.0232(10) 0.0176(11) 0.0428(14)
C1 0.069(2) 0.0412(15) 0.0375(16) 0.0027(12) 0.0065(14) 0.0332(15)
C2 0.081(2) 0.0411(16) 0.0466(18) 0.0085(13) 0.0112(16) 0.0353(16)
C3 0.088(2) 0.0492(17) 0.0350(16) 0.0149(13) 0.0111(15) 0.0405(18)
C4 0.078(2) 0.0455(16) 0.0251(13) 0.0060(11) 0.0048(13) 0.0373(16)
C5 0.0569(17) 0.0412(14) 0.0245(13) 0.0033(10) 0.0062(11) 0.0329(13)
C6 0.0597(17) 0.0401(14) 0.0214(12) 0.0040(10) 0.0066(11) 0.0321(13)
C7 0.0591(17) 0.0366(13) 0.0212(12) 0.0021(10) 0.0038(11) 0.0289(13)
C8 0.0606(17) 0.0408(14) 0.0214(12) 0.0051(10) 0.0041(11) 0.0306(13)
C9 0.0524(16) 0.0404(14) 0.0209(12) 0.0025(10) 0.0026(11) 0.0249(12)
C10 0.0595(17) 0.0437(15) 0.0274(13) 0.0044(11) -0.0012(12) 0.0295(14)
C11 0.0524(16) 0.0483(16) 0.0221(12) 0.0030(11) -0.0046(11) 0.0252(13)
C12 0.0397(14) 0.0404(14) 0.0213(12) 0.0022(10) 0.0003(10) 0.0171(11)
C13 0.0529(16) 0.0382(13) 0.0231(12) 0.0017(10) -0.0025(11) 0.0232(12)
C14 0.0564(17) 0.0406(14) 0.0207(12) 0.0017(10) -0.0046(11) 0.0243(13)
C15 0.0384(13) 0.0409(14) 0.0194(12) 0.0026(10) 0.0020(10) 0.0120(11)
C16 0.0635(18) 0.0427(14) 0.0192(12) 0.0046(10) 0.0062(11) 0.0332(13)
C17 0.0646(18) 0.0387(14) 0.0245(13) 0.0025(10) 0.0023(12) 0.0311(13)
C18 0.0692(19) 0.0465(15) 0.0231(13) 0.0014(11) 0.0003(12) 0.0380(15)
C19 0.076(2) 0.0492(16) 0.0234(13) 0.0091(12) 0.0094(13) 0.0406(16)
C20 0.066(2) 0.0513(17) 0.0319(15) 0.0130(13) 0.0105(14) 0.0302(15)
C21 0.0624(19) 0.0501(16) 0.0278(14) 0.0062(12) 0.0015(12) 0.0305(15)
C22 0.087(2) 0.0553(18) 0.0228(13) 0.0079(12) 0.0114(15) 0.0473(19)
Zn1G 0.0395 0.03254 0.0186 0.00349 -0.00141 0.01027
Zn1P 0.0395 0.03254 0.0186 0.00349 -0.00141 0.01027
O1E 0.057 0.0551 0.0242 0.0058 0.0027 0.0363
O3Q 0.061 0.0933 0.0254 0.0003 0.0094 0.0502
O4Q 0.0614 0.0791 0.0325 -0.0176 0.0056 0.0363
loop_
_geom_bond_atom_site_label_1
_geom_bond_atom_site_label_2
_geom_bond_site_symmetry_1
_geom_bond_site_symmetry_2
Zn1 N1 1_555 1_555
N1 C1 1_555 1_555
N2 Zn1 1_555 1_555
N3 H1 1_555 1_555
O1 C15 1_555 1_555
O2 C15 1_555 1_555
O3 C22 1_555 1_555
O4 C22 1_555 1_555
C1 H2 1_555 1_555
C2 C1 1_555 1_555
H3 C2 1_555 1_555
C3 C2 1_555 1_555
H4 C3 1_555 1_555
C4 C3 1_555 1_555
H5 C4 1_555 1_555
C5 N1 1_555 1_555
C6 N2 1_555 1_555
C7 N2 1_555 1_555
C8 N3 1_555 1_555
C9 C8 1_555 1_555
C10 C9 1_555 1_555
H6 C10 1_555 1_555
C11 C10 1_555 1_555
H7 C11 1_555 1_555
C12 C11 1_555 1_555
C13 C12 1_555 1_555
H8 C13 1_555 1_555
C14 C9 1_555 1_555
H9 C14 1_555 1_555
C15 C12 1_555 1_555
C16 C7 1_555 1_555
C17 C16 1_555 1_555
H10 C17 1_555 1_555
C18 C17 1_555 1_555
H11 C18 1_555 1_555
C19 C18 1_555 1_555
C20 C19 1_555 1_555
H12 C20 1_555 1_555
C21 C16 1_555 1_555
H13 C21 1_555 1_555
C22 C19 1_555 1_555
C23 H14 1_555 1_555
C24 C23 1_555 1_555
H15 C24 1_555 1_555
C25 C23 1_555 1_555
C26 C25 1_555 1_555
H16 C26 1_555 1_555
H17 C26 1_555 1_555
H18 C26 1_555 1_555
C35 H29 1_555 1_555
C36 C35 1_555 1_555
H30 C36 1_555 1_555
C37 C36 1_555 1_555
H31 C37 1_555 1_555
C38 C37 1_555 1_555
C39 C38 1_555 1_555
C40 C35 1_555 1_555
H32 C40 1_555 1_555
C41 C38 1_555 1_555
H33 C41 1_555 1_555
H34 C41 1_555 1_555
H35 C41 1_555 1_555
C42 C39 1_555 1_555
H36 C42 1_555 1_555
H37 C42 1_555 1_555
H38 C42 1_555 1_555
Zn1G O1 1_555 1_555
Zn1P O3 1_555 1_555
O1E Zn1 1_555 1_555
O3Q Zn1 1_555 1_555
O4Q Zn1 1_555 1_555
C23I H14I 1_555 1_555
C24I C25 1_555 1_555
H15I C24I 1_555 1_555
C25I C24 1_555 1_555
C26I C25I 1_555 1_555
H16I C26I 1_555 1_555
H17I C26I 1_555 1_555
H18I C26I 1_555 1_555
C35P H29P 1_555 1_555
C36P C35P 1_555 1_555
H30P C36P 1_555 1_555
C37P C36P 1_555 1_555
H31P C37P 1_555 1_555
C38P C37P 1_555 1_555
C39P C38P 1_555 1_555
C40P C35P 1_555 1_555
H32P C40P 1_555 1_555
C41P C38P 1_555 1_555
H33P C41P 1_555 1_555
H34P C41P 1_555 1_555
H35P C41P 1_555 1_555
C42P C39P 1_555 1_555
H36P C42P 1_555 1_555
H37P C42P 1_555 1_555
H38P C42P 1_555 1_555
C35Q H29Q 1_555 1_555
C36Q C35Q 1_555 1_555
H30Q C36Q 1_555 1_555
C37Q C36Q 1_555 1_555
H31Q C37Q 1_555 1_555
C38Q C37Q 1_555 1_555
C39Q C38Q 1_555 1_555
C40Q C35Q 1_555 1_555
H32Q C40Q 1_555 1_555
C41Q C38Q 1_555 1_555
H33Q C41Q 1_555 1_555
H34Q C41Q 1_555 1_555
H35Q C41Q 1_555 1_555
C42Q C39Q 1_555 1_555
H36Q C42Q 1_555 1_555
H37Q C42Q 1_555 1_555
H38Q C42Q 1_555 1_555
C35A H29A 1_555 1_555
C36A C35A 1_555 1_555
H30A C36A 1_555 1_555
C37A C36A 1_555 1_555
H31A C37A 1_555 1_555
C38A C37A 1_555 1_555
C39A C38A 1_555 1_555
C40A C35A 1_555 1_555
H32A C40A 1_555 1_555
C41A C38A 1_555 1_555
H33A C41A 1_555 1_555
H34A C41A 1_555 1_555
H35A C41A 1_555 1_555
C42A C39A 1_555 1_555
H36A C42A 1_555 1_555
H37A C42A 1_555 1_555
H38A C42A 1_555 1_555
C35B H29B 1_555 1_555
C36B C35B 1_555 1_555
H30B C36B 1_555 1_555
C37B C36B 1_555 1_555
H31B C37B 1_555 1_555
C38B C37B 1_555 1_555
C39B C38B 1_555 1_555
C40B C35B 1_555 1_555
H32B C40B 1_555 1_555
C41B C38B 1_555 1_555
H33B C41B 1_555 1_555
H34B C41B 1_555 1_555
H35B C41B 1_555 1_555
C42B C39B 1_555 1_555
H36B C42B 1_555 1_555
H37B C42B 1_555 1_555
H38B C42B 1_555 1_555
C35O H29O 1_555 1_555
C36O C35O 1_555 1_555
H30O C36O 1_555 1_555
C37O C36O 1_555 1_555
H31O C37O 1_555 1_555
C38O C37O 1_555 1_555
C39O C38O 1_555 1_555
C40O C35O 1_555 1_555
H32O C40O 1_555 1_555
C41O C38O 1_555 1_555
H33O C41O 1_555 1_555
H34O C41O 1_555 1_555
H35O C41O 1_555 1_555
C42O C39O 1_555 1_555
H36O C42O 1_555 1_555
H37O C42O 1_555 1_555
H38O C42O 1_555 1_555
N3 C6 1_555 1_555
O4 Zn1P 1_555 1_555
C4 C5 1_555 1_555
C5 C6 1_555 1_555
C7 C8 1_555 1_555
C13 C14 1_555 1_555
C20 C21 1_555 1_555
C39 C40 1_555 1_555
C23I C24I 1_555 1_555
C23I C25I 1_555 1_555
C39P C40P 1_555 1_555
C39Q C40Q 1_555 1_555
C39A C40A 1_555 1_555
C39B C40B 1_555 1_555
C39O C40O 1_555 1_555

#END
