
#######################################################################
#
#                 Cambridge Crystallographic Data Centre
#                                CCDC 
#
#######################################################################
#
# If this CIF has been generated from an entry in the Cambridge 
# Structural Database, then it will include bibliographic, chemical, 
# crystal, experimental, refinement or atomic coordinate data resulting 
# from the CCDC's data processing and validation procedures.
#
#######################################################################

data_OBAHAD
_chemical_formula_moiety         '(C22 H13 N3 O4 Zn1)n'
_symmetry_cell_setting           rhombohedral
_symmetry_space_group_name_H-M   'R -3'
_symmetry_Int_Tables_number      148
_space_group_name_Hall           '-R 3'
loop_
_symmetry_equiv_pos_site_id
_symmetry_equiv_pos_as_xyz
1 x,y,z
2 -y,x-y,z
3 -x+y,-x,z
4 2/3+x,1/3+y,1/3+z
5 2/3-y,1/3+x-y,1/3+z
6 2/3-x+y,1/3-x,1/3+z
7 1/3+x,2/3+y,2/3+z
8 1/3-y,2/3+x-y,2/3+z
9 1/3-x+y,2/3-x,2/3+z
10 -x,-y,-z
11 y,-x+y,-z
12 x-y,x,-z
13 1/3-x,2/3-y,2/3-z
14 1/3+y,2/3-x+y,2/3-z
15 1/3+x-y,2/3+x,2/3-z
16 2/3-x,1/3-y,1/3-z
17 2/3+y,1/3-x+y,1/3-z
18 2/3+x-y,1/3+x,1/3-z
_cell_length_a                   30.298(3)
_cell_length_b                   30.298(3)
_cell_length_c                   17.8810(17)
_cell_angle_alpha                90
_cell_angle_beta                 90
_cell_angle_gamma                120
_cell_volume                     14215.1
loop_
_atom_site_label
_atom_site_type_symbol
_atom_site_fract_x
_atom_site_fract_y
_atom_site_fract_z
_atom_site_U_iso_or_equiv
_atom_site_thermal_displace_type
Zn1 Zn 0.63078(2) 0.85373(2) 0.52431(2) 0.0205 Uani
N1 N 0.63828(7) 0.89330(7) 0.42583(9) 0.0235 Uani
N2 N 0.60325(7) 0.79373(6) 0.44808(9) 0.0212 Uani
N3 N 0.58592(7) 0.77179(6) 0.33002(10) 0.0228 Uani
O1 O 0.47817(6) 0.49902(6) 0.24339(8) 0.0287 Uani
O2 O 0.45258(6) 0.53149(6) 0.15242(8) 0.0324 Uani
O3 O 0.58528(6) 0.62855(6) 0.74608(8) 0.0321 Uani
O4 O 0.50214(7) 0.58957(7) 0.72938(9) 0.0347 Uani
C1 C 0.65195(9) 0.94253(8) 0.41969(13) 0.0308 Uani
H1 H 0.6622 0.9631 0.4634 0.0370 Uiso
C2 C 0.65181(11) 0.96456(9) 0.35229(15) 0.0404 Uani
H2 H 0.6613 0.9995 0.3497 0.0480 Uiso
C3 C 0.63755(12) 0.93467(9) 0.28839(14) 0.0423 Uani
H3 H 0.6374 0.9490 0.2412 0.0510 Uiso
C4 C 0.62359(10) 0.88386(9) 0.29375(12) 0.0333 Uani
H4 H 0.6141 0.8628 0.2506 0.0400 Uiso
C5 C 0.62384(8) 0.86436(8) 0.36373(11) 0.0228 Uani
C6 C 0.60574(8) 0.81048(8) 0.37882(11) 0.0216 Uani
C7 C 0.58010(8) 0.74152(8) 0.44372(11) 0.0223 Uani
C8 C 0.56919(8) 0.72710(8) 0.36946(11) 0.0225 Uani
C9 C 0.54463(8) 0.67757(8) 0.33086(11) 0.0237 Uani
C10 C 0.51879(9) 0.67186(8) 0.26379(12) 0.0302 Uani
H5 H 0.5174 0.7000 0.2432 0.0360 Uiso
C11 C 0.49523(9) 0.62549(8) 0.22695(11) 0.0292 Uani
H6 H 0.4777 0.6221 0.1814 0.0350 Uiso
C12 C 0.49689(8) 0.58386(8) 0.25577(11) 0.0233 Uani
C13 C 0.52278(8) 0.58932(8) 0.32298(11) 0.0245 Uani
H7 H 0.5239 0.5610 0.3436 0.0290 Uiso
C14 C 0.54678(8) 0.63584(8) 0.35972(11) 0.0250 Uani
H8 H 0.5648 0.6394 0.4048 0.0300 Uiso
C15 C 0.47339(8) 0.53437(8) 0.21341(11) 0.0231 Uani
C16 C 0.56999(8) 0.71097(8) 0.51228(11) 0.0229 Uani
C17 C 0.60766(8) 0.72784(8) 0.56711(11) 0.0252 Uani
H9 H 0.6390 0.7586 0.5600 0.0300 Uiso
C18 C 0.59946(9) 0.69971(8) 0.63220(11) 0.0257 Uani
H10 H 0.6252 0.7114 0.6694 0.0310 Uiso
C19 C 0.55412(9) 0.65487(8) 0.64315(11) 0.0255 Uani
C20 C 0.51576(9) 0.63893(9) 0.58956(12) 0.0307 Uani
H11 H 0.4839 0.6089 0.5978 0.0370 Uiso
C21 C 0.52381(9) 0.66648(8) 0.52452(12) 0.0286 Uani
H12 H 0.4977 0.6550 0.4879 0.0340 Uiso
C22 C 0.54706(9) 0.62278(8) 0.71110(11) 0.0284 Uani
H13 H 0.5893(12) 0.7761(12) 0.2859(19) 0.0430 Uiso
Zn1G Zn 0.47960(2) 0.44372(3) 0.19098(2) 0.0205 Uani
Zn1P Zn 0.52040(2) 0.55628(3) 0.80902(2) 0.0205 Uani
O1E O 0.68752(8) 0.85516(6) 0.57672(8) 0.0287 Uani
O3Q O 0.62340(8) 0.91861(6) 0.58725(8) 0.0321 Uani
O4Q O 0.57924(10) 0.83547(7) 0.60395(9) 0.0347 Uani
loop_
_atom_site_aniso_label
_atom_site_aniso_U_11
_atom_site_aniso_U_22
_atom_site_aniso_U_33
_atom_site_aniso_U_23
_atom_site_aniso_U_13
_atom_site_aniso_U_12
Zn1 0.02688(18) 0.02234(17) 0.01665(19) -0.00003(9) 0.00130(9) 0.01554(12)
N1 0.0315(9) 0.0221(8) 0.0206(8) 0.0016(6) 0.0015(7) 0.0162(7)
N2 0.0285(9) 0.0206(8) 0.0180(8) 0.0022(6) 0.0023(6) 0.0149(7)
N3 0.0335(10) 0.0211(8) 0.0156(8) 0.0021(6) 0.0017(7) 0.0150(7)
O1 0.0354(8) 0.0241(7) 0.0241(7) -0.0049(6) -0.0020(6) 0.0131(6)
O2 0.0396(9) 0.0313(8) 0.0186(7) -0.0041(6) -0.0066(6) 0.0119(7)
O3 0.0407(9) 0.0364(9) 0.0246(8) 0.0088(6) 0.0034(6) 0.0233(7)
O4 0.0386(9) 0.0373(9) 0.0295(8) 0.0146(7) 0.0078(7) 0.0199(8)
C1 0.0438(13) 0.0218(10) 0.0285(11) -0.0015(8) -0.0009(9) 0.0176(10)
C2 0.0607(17) 0.0237(11) 0.0384(13) 0.0043(9) -0.0005(11) 0.0223(11)
C3 0.0684(18) 0.0306(12) 0.0284(12) 0.0076(9) -0.0022(11) 0.0251(12)
C4 0.0524(14) 0.0283(11) 0.0223(11) 0.0028(8) -0.0011(9) 0.0224(11)
C5 0.0294(10) 0.0206(10) 0.0209(10) 0.0015(7) 0.0031(8) 0.0143(9)
C6 0.0299(10) 0.0224(10) 0.0160(9) 0.0020(7) 0.0021(7) 0.0156(8)
C7 0.0273(10) 0.0211(9) 0.0204(9) 0.0003(7) 0.0013(8) 0.0135(8)
C8 0.0297(10) 0.0212(9) 0.0196(9) 0.0016(7) 0.0008(8) 0.0150(8)
C9 0.0296(10) 0.0210(10) 0.0202(9) 0.0003(7) 0.0010(8) 0.0124(8)
C10 0.0424(13) 0.0234(10) 0.0259(10) 0.0016(8) -0.0057(9) 0.0173(10)
C11 0.0396(12) 0.0295(11) 0.0176(9) -0.0007(8) -0.0070(8) 0.0165(10)
C12 0.0234(10) 0.0236(10) 0.0194(9) -0.0004(7) 0.0005(7) 0.0091(8)
C13 0.0329(11) 0.0204(9) 0.0210(9) -0.0006(7) -0.0018(8) 0.0140(8)
C14 0.0319(11) 0.0224(10) 0.0206(10) -0.0008(7) -0.0040(8) 0.0134(8)
C15 0.0235(10) 0.0235(10) 0.0179(9) 0.0004(7) 0.0033(7) 0.0084(8)
C16 0.0333(11) 0.0219(9) 0.0179(9) 0.0018(7) 0.0031(8) 0.0172(9)
C17 0.0287(10) 0.0223(10) 0.0229(10) 0.0050(8) 0.0015(8) 0.0115(8)
C18 0.0331(11) 0.0272(10) 0.0213(10) 0.0027(8) -0.0010(8) 0.0184(9)
C19 0.0353(11) 0.0266(10) 0.0205(10) 0.0061(8) 0.0064(8) 0.0199(9)
C20 0.0314(11) 0.0277(11) 0.0267(11) 0.0060(8) 0.0036(9) 0.0100(9)
C21 0.0314(11) 0.0275(11) 0.0229(10) 0.0023(8) -0.0010(8) 0.0117(9)
C22 0.0430(13) 0.0286(11) 0.0211(10) 0.0055(8) 0.0085(9) 0.0235(10)
Zn1G 0.02234 0.01814 0.01665 0.00133 3e-05 0.0068
Zn1P 0.02234 0.01814 0.01665 0.00133 3e-05 0.0068
O1E 0.0333 0.0354 0.0241 0.002 -0.0029 0.0223
O3Q 0.0305 0.0407 0.0246 -0.0034 0.0054 0.0174
O4Q 0.0361 0.0386 0.0295 -0.0078 0.0068 0.0187
loop_
_geom_bond_atom_site_label_1
_geom_bond_atom_site_label_2
_geom_bond_site_symmetry_1
_geom_bond_site_symmetry_2
Zn1 N1 1_555 1_555
N1 C1 1_555 1_555
N2 Zn1 1_555 1_555
N3 C6 1_555 1_555
O1 C15 1_555 1_555
O2 C15 1_555 1_555
O3 C22 1_555 1_555
O4 C22 1_555 1_555
C1 H1 1_555 1_555
C2 C1 1_555 1_555
H2 C2 1_555 1_555
C3 C2 1_555 1_555
H3 C3 1_555 1_555
C4 C3 1_555 1_555
H4 C4 1_555 1_555
C5 N1 1_555 1_555
C6 N2 1_555 1_555
C7 N2 1_555 1_555
C8 N3 1_555 1_555
C9 C8 1_555 1_555
C10 C9 1_555 1_555
H5 C10 1_555 1_555
C11 C10 1_555 1_555
H6 C11 1_555 1_555
C12 C11 1_555 1_555
C13 C12 1_555 1_555
H7 C13 1_555 1_555
C14 C9 1_555 1_555
H8 C14 1_555 1_555
C15 C12 1_555 1_555
C16 C7 1_555 1_555
C17 C16 1_555 1_555
H9 C17 1_555 1_555
C18 C17 1_555 1_555
H10 C18 1_555 1_555
C19 C18 1_555 1_555
C20 C19 1_555 1_555
H11 C20 1_555 1_555
C21 C16 1_555 1_555
H12 C21 1_555 1_555
C22 C19 1_555 1_555
H13 N3 1_555 1_555
Zn1G O1 1_555 1_555
Zn1P O3 1_555 1_555
O1E Zn1 1_555 1_555
O3Q Zn1 1_555 1_555
O4Q Zn1 1_555 1_555
O4 Zn1P 1_555 1_555
C4 C5 1_555 1_555
C5 C6 1_555 1_555
C7 C8 1_555 1_555
C13 C14 1_555 1_555
C20 C21 1_555 1_555

#END
