
#######################################################################
#
#                 Cambridge Crystallographic Data Centre
#                                CCDC 
#
#######################################################################
#
# If this CIF has been generated from an entry in the Cambridge 
# Structural Database, then it will include bibliographic, chemical, 
# crystal, experimental, refinement or atomic coordinate data resulting 
# from the CCDC's data processing and validation procedures.
#
#######################################################################

data_OBAHUX
_chemical_formula_moiety         '(C30 H23 N3 O4 Zn1)n'
_symmetry_cell_setting           rhombohedral
_symmetry_space_group_name_H-M   'R -3'
_symmetry_Int_Tables_number      148
_space_group_name_Hall           '-R 3'
loop_
_symmetry_equiv_pos_site_id
_symmetry_equiv_pos_as_xyz
1 x,y,z
2 -y,x-y,z
3 -x+y,-x,z
4 2/3+x,1/3+y,1/3+z
5 2/3-y,1/3+x-y,1/3+z
6 2/3-x+y,1/3-x,1/3+z
7 1/3+x,2/3+y,2/3+z
8 1/3-y,2/3+x-y,2/3+z
9 1/3-x+y,2/3-x,2/3+z
10 -x,-y,-z
11 y,-x+y,-z
12 x-y,x,-z
13 1/3-x,2/3-y,2/3-z
14 1/3+y,2/3-x+y,2/3-z
15 1/3+x-y,2/3+x,2/3-z
16 2/3-x,1/3-y,1/3-z
17 2/3+y,1/3-x+y,1/3-z
18 2/3+x-y,1/3+x,1/3-z
_cell_length_a                   29.875(4)
_cell_length_b                   29.875(4)
_cell_length_c                   18.072(4)
_cell_angle_alpha                90
_cell_angle_beta                 90
_cell_angle_gamma                120
_cell_volume                     13968.6
loop_
_atom_site_label
_atom_site_type_symbol
_atom_site_fract_x
_atom_site_fract_y
_atom_site_fract_z
_atom_site_U_iso_or_equiv
_atom_site_thermal_displace_type
Zn1 Zn 0.62518(2) 0.85376(2) 0.51930(2) 0.0355 Uani
N1 N 0.63542(14) 0.89378(12) 0.42017(15) 0.0401 Uani
N2 N 0.59882(14) 0.79276(12) 0.44470(14) 0.0388 Uani
N3 N 0.58157(14) 0.76896(12) 0.32818(17) 0.0405 Uani
O1 O 0.47706(11) 0.49205(10) 0.24302(13) 0.0453 Uani
O2 O 0.44807(12) 0.52351(11) 0.15478(14) 0.0521 Uani
O3 O 0.58201(11) 0.63467(10) 0.75180(13) 0.0449 Uani
O4 O 0.49762(12) 0.59452(13) 0.73537(14) 0.0521 Uani
C1 C 0.65053(19) 0.94400(15) 0.4120(2) 0.0473 Uani
H1 H 0.6604 0.9654 0.4547 0.0570 Uiso
C2 C 0.6523(2) 0.96584(17) 0.3434(2) 0.0587 Uani
H2 H 0.6624 1.0014 0.3395 0.0710 Uiso
C3 C 0.6391(2) 0.93527(18) 0.2811(2) 0.0624 Uani
H3 H 0.6407 0.9496 0.2336 0.0750 Uiso
C4 C 0.6235(2) 0.88319(16) 0.2885(2) 0.0536 Uani
H4 H 0.6146 0.8615 0.2463 0.0640 Uiso
C5 C 0.62130(16) 0.86357(14) 0.35866(19) 0.0413 Uani
C6 C 0.60216(17) 0.80939(14) 0.37534(17) 0.0407 Uani
C7 C 0.57513(16) 0.73984(14) 0.44186(18) 0.0389 Uani
C8 C 0.56385(16) 0.72382(14) 0.36859(18) 0.0380 Uani
C9 C 0.53920(15) 0.67328(14) 0.33108(17) 0.0382 Uani
C10 C 0.51499(17) 0.66711(16) 0.2624(2) 0.0469 Uani
H5 H 0.5144 0.6957 0.2404 0.0560 Uiso
C11 C 0.49214(16) 0.62034(15) 0.22643(19) 0.0436 Uani
H6 H 0.4758 0.6170 0.1800 0.0530 Uiso
C12 C 0.49246(13) 0.57750(14) 0.25701(17) 0.0371 Uani
C13 C 0.51682(14) 0.58335(13) 0.32566(18) 0.0370 Uani
H7 H 0.5178 0.5548 0.3472 0.0440 Uiso
C14 C 0.53953(15) 0.63048(14) 0.36239(18) 0.0395 Uani
H8 H 0.5554 0.6338 0.4091 0.0470 Uiso
C15 C 0.46987(14) 0.52726(14) 0.21442(18) 0.0391 Uani
C16 C 0.56554(16) 0.71040(14) 0.51134(16) 0.0377 Uani
C17 C 0.60560(16) 0.72747(14) 0.56327(19) 0.0412 Uani
H9 H 0.6382 0.7569 0.5527 0.0490 Uiso
C18 C 0.59788(16) 0.70157(14) 0.63019(19) 0.0401 Uani
H10 H 0.6252 0.7133 0.6651 0.0480 Uiso
C19 C 0.55002(16) 0.65839(14) 0.64607(18) 0.0394 Uani
C20 C 0.50966(17) 0.64214(16) 0.5955(2) 0.0484 Uani
H11 H 0.4766 0.6136 0.6070 0.0580 Uiso
C21 C 0.51776(17) 0.66776(16) 0.5279(2) 0.0477 Uani
H12 H 0.4904 0.6559 0.4930 0.0580 Uiso
C22 C 0.54334(16) 0.62818(15) 0.71640(19) 0.0426 Uani
H13 H 0.5809(16) 0.7704(16) 0.287(3) 0.0310 Uiso
Zn1G Zn 0.47957(2) 0.43809(3) 0.18597(2) 0.0355 Uani
Zn1P Zn 0.52043(2) 0.56191(3) 0.81403(2) 0.0355 Uani
O1E O 0.68166(15) 0.85627(11) 0.57635(13) 0.0453 Uani
O3Q O 0.61401(15) 0.91534(11) 0.58153(13) 0.0449 Uani
O4Q O 0.56977(18) 0.83095(12) 0.59796(14) 0.0521 Uani
C23 C 0.6628(4) 0.4637(4) 0.7183(4) 0.0960 Uiso
H14 H 0.6498 0.4616 0.7669 0.1150 Uiso
C24 C 0.6917(4) 0.4401(4) 0.7020(4) 0.1140 Uiso
C25 C 0.7108(4) 0.4432(4) 0.6309(5) 0.0920 Uiso
C26 C 0.7011(4) 0.4700(4) 0.5762(4) 0.1110 Uiso
H15 H 0.7142 0.4721 0.5276 0.1330 Uiso
C27 C 0.6723(5) 0.4936(4) 0.5925(5) 0.1240 Uiso
H16 H 0.6657 0.5119 0.5551 0.1480 Uiso
C28 C 0.6532(4) 0.4905(4) 0.6636(6) 0.1280 Uiso
H17 H 0.6335 0.5066 0.6747 0.1530 Uiso
C29 C 0.7418(10) 0.4188(10) 0.6129(10) 0.1560 Uiso
H18 H 0.7519 0.4249 0.5607 0.2340 Uiso
H19 H 0.7728 0.4337 0.6440 0.2340 Uiso
H20 H 0.7212 0.3815 0.6220 0.2340 Uiso
C30 C 0.7021(10) 0.4132(10) 0.7600(10) 0.1960 Uiso
H21 H 0.6857 0.4149 0.8061 0.2940 Uiso
H22 H 0.6882 0.3770 0.7458 0.2940 Uiso
H23 H 0.7396 0.4295 0.7675 0.2940 Uiso
loop_
_atom_site_aniso_label
_atom_site_aniso_U_11
_atom_site_aniso_U_22
_atom_site_aniso_U_33
_atom_site_aniso_U_23
_atom_site_aniso_U_13
_atom_site_aniso_U_12
Zn1 0.0621(4) 0.0420(3) 0.0147(3) 0.00184(15) 0.00594(17) 0.0352(2)
N1 0.073(2) 0.0447(16) 0.0195(13) 0.0034(11) 0.0071(13) 0.0422(15)
N2 0.076(2) 0.0421(15) 0.0124(12) 0.0023(10) 0.0053(12) 0.0400(15)
N3 0.077(2) 0.0440(16) 0.0130(13) 0.0040(11) 0.0038(13) 0.0397(16)
O1 0.0611(16) 0.0379(12) 0.0224(11) -0.0039(10) -0.0059(11) 0.0138(12)
O2 0.0594(16) 0.0554(16) 0.0181(12) 0.0018(10) -0.0067(11) 0.0112(13)
O3 0.0649(17) 0.0495(14) 0.0222(11) 0.0093(10) 0.0013(11) 0.0300(13)
O4 0.0612(17) 0.0696(18) 0.0271(13) 0.0197(12) 0.0099(12) 0.0338(15)
C1 0.082(3) 0.0418(19) 0.0302(18) 0.0024(15) 0.0072(18) 0.040(2)
C2 0.104(4) 0.044(2) 0.040(2) 0.0089(17) 0.011(2) 0.046(2)
C3 0.118(4) 0.052(2) 0.0300(19) 0.0133(17) 0.009(2) 0.052(3)
C4 0.103(3) 0.049(2) 0.0196(16) 0.0056(15) 0.0071(18) 0.046(2)
C5 0.072(2) 0.0428(18) 0.0225(16) 0.0019(13) 0.0060(15) 0.0387(18)
C6 0.077(2) 0.0441(18) 0.0149(14) 0.0053(13) 0.0074(15) 0.0406(18)
C7 0.069(2) 0.0381(17) 0.0180(15) 0.0047(13) 0.0040(14) 0.0331(17)
C8 0.065(2) 0.0388(17) 0.0178(14) 0.0044(12) 0.0042(14) 0.0317(16)
C9 0.061(2) 0.0424(18) 0.0160(14) 0.0037(12) 0.0034(14) 0.0294(16)
C10 0.069(2) 0.052(2) 0.0256(17) 0.0078(15) -0.0027(16) 0.0346(19)
C11 0.059(2) 0.050(2) 0.0200(16) 0.0031(14) -0.0084(14) 0.0260(18)
C12 0.0415(17) 0.0441(18) 0.0165(14) 0.0011(13) -0.0016(12) 0.0146(14)
C13 0.0523(19) 0.0393(17) 0.0188(15) 0.0021(12) -0.0034(13) 0.0225(15)
C14 0.059(2) 0.0426(18) 0.0176(14) -0.0004(13) -0.0064(14) 0.0260(16)
C15 0.0413(17) 0.0437(18) 0.0170(15) 0.0032(13) -0.0002(12) 0.0097(14)
C16 0.067(2) 0.0439(17) 0.0131(14) 0.0041(12) 0.0042(14) 0.0358(17)
C17 0.062(2) 0.0414(18) 0.0254(17) 0.0093(14) 0.0046(15) 0.0298(17)
C18 0.059(2) 0.0440(18) 0.0232(16) 0.0073(13) 0.0003(14) 0.0302(17)
C19 0.062(2) 0.0456(18) 0.0172(15) 0.0051(13) 0.0057(14) 0.0318(17)
C20 0.060(2) 0.048(2) 0.0297(18) 0.0122(16) 0.0045(17) 0.0213(18)
C21 0.065(2) 0.053(2) 0.0245(17) 0.0067(15) -0.0015(16) 0.0290(19)
C22 0.064(2) 0.0473(19) 0.0199(16) 0.0070(14) 0.0091(15) 0.0304(18)
Zn1G 0.042 0.0337 0.0147 0.0041 -0.00184 0.0068
Zn1P 0.042 0.0337 0.0147 0.0041 -0.00184 0.0068
O1E 0.0714 0.0611 0.0224 0.0059 0.002 0.0473
O3Q 0.0544 0.0649 0.0222 -0.0013 0.008 0.0349
O4Q 0.0632 0.0612 0.0271 -0.0099 0.0098 0.0274
loop_
_geom_bond_atom_site_label_1
_geom_bond_atom_site_label_2
_geom_bond_site_symmetry_1
_geom_bond_site_symmetry_2
Zn1 N1 1_555 1_555
N1 C1 1_555 1_555
N2 Zn1 1_555 1_555
N3 C6 1_555 1_555
O1 C15 1_555 1_555
O2 C15 1_555 1_555
O3 C22 1_555 1_555
O4 C22 1_555 1_555
C1 H1 1_555 1_555
C2 C1 1_555 1_555
H2 C2 1_555 1_555
C3 C2 1_555 1_555
H3 C3 1_555 1_555
C4 C3 1_555 1_555
H4 C4 1_555 1_555
C5 N1 1_555 1_555
C6 N2 1_555 1_555
C7 N2 1_555 1_555
C8 N3 1_555 1_555
C9 C8 1_555 1_555
C10 C9 1_555 1_555
H5 C10 1_555 1_555
C11 C10 1_555 1_555
H6 C11 1_555 1_555
C12 C11 1_555 1_555
C13 C12 1_555 1_555
H7 C13 1_555 1_555
C14 C9 1_555 1_555
H8 C14 1_555 1_555
C15 C12 1_555 1_555
C16 C7 1_555 1_555
C17 C16 1_555 1_555
H9 C17 1_555 1_555
C18 C17 1_555 1_555
H10 C18 1_555 1_555
C19 C18 1_555 1_555
C20 C19 1_555 1_555
H11 C20 1_555 1_555
C21 C16 1_555 1_555
H12 C21 1_555 1_555
C22 C19 1_555 1_555
H13 N3 1_555 1_555
C23 H14 1_555 1_555
C24 C23 1_555 1_555
C25 C24 1_555 1_555
C26 C25 1_555 1_555
H15 C26 1_555 1_555
C27 C26 1_555 1_555
H16 C27 1_555 1_555
C28 C23 1_555 1_555
H17 C28 1_555 1_555
C29 C25 1_555 1_555
H18 C29 1_555 1_555
H19 C29 1_555 1_555
H20 C29 1_555 1_555
C30 C24 1_555 1_555
H21 C30 1_555 1_555
H22 C30 1_555 1_555
H23 C30 1_555 1_555
Zn1G O1 1_555 1_555
Zn1P O3 1_555 1_555
O1E Zn1 1_555 1_555
O3Q Zn1 1_555 1_555
O4Q Zn1 1_555 1_555
O4 Zn1P 1_555 1_555
C4 C5 1_555 1_555
C5 C6 1_555 1_555
C7 C8 1_555 1_555
C13 C14 1_555 1_555
C20 C21 1_555 1_555
C27 C28 1_555 1_555

#END
