
#######################################################################
#
#                 Cambridge Crystallographic Data Centre
#                                CCDC 
#
#######################################################################
#
# If this CIF has been generated from an entry in the Cambridge 
# Structural Database, then it will include bibliographic, chemical, 
# crystal, experimental, refinement or atomic coordinate data resulting 
# from the CCDC's data processing and validation procedures.
#
#######################################################################

data_OBAHEH
_chemical_formula_moiety         '(C22 H13 N3 O4 Zn1)n'
_symmetry_cell_setting           rhombohedral
_symmetry_space_group_name_H-M   'R -3'
_symmetry_Int_Tables_number      148
_space_group_name_Hall           '-R 3'
loop_
_symmetry_equiv_pos_site_id
_symmetry_equiv_pos_as_xyz
1 x,y,z
2 -y,x-y,z
3 -x+y,-x,z
4 2/3+x,1/3+y,1/3+z
5 2/3-y,1/3+x-y,1/3+z
6 2/3-x+y,1/3-x,1/3+z
7 1/3+x,2/3+y,2/3+z
8 1/3-y,2/3+x-y,2/3+z
9 1/3-x+y,2/3-x,2/3+z
10 -x,-y,-z
11 y,-x+y,-z
12 x-y,x,-z
13 1/3-x,2/3-y,2/3-z
14 1/3+y,2/3-x+y,2/3-z
15 1/3+x-y,2/3+x,2/3-z
16 2/3-x,1/3-y,1/3-z
17 2/3+y,1/3-x+y,1/3-z
18 2/3+x-y,1/3+x,1/3-z
_cell_length_a                   29.822(6)
_cell_length_b                   29.822(6)
_cell_length_c                   17.824(4)
_cell_angle_alpha                90
_cell_angle_beta                 90
_cell_angle_gamma                120
_cell_volume                     13728.1
loop_
_atom_site_label
_atom_site_type_symbol
_atom_site_fract_x
_atom_site_fract_y
_atom_site_fract_z
_atom_site_U_iso_or_equiv
_atom_site_thermal_displace_type
Zn1 Zn 0.62919(2) 0.85556(2) 0.52081(2) 0.0442 Uani
N1 N 0.64086(10) 0.89582(9) 0.42016(12) 0.0451 Uani
N2 N 0.59909(9) 0.79449(9) 0.44586(11) 0.0419 Uani
N3 N 0.58002(9) 0.77060(9) 0.32865(13) 0.0433 Uani
O1 O 0.47733(10) 0.49490(8) 0.24590(11) 0.0572 Uani
O2 O 0.44797(10) 0.52420(9) 0.15480(11) 0.0638 Uani
O3 O 0.57942(11) 0.62987(10) 0.74936(13) 0.0721 Uani
O4 O 0.49565(11) 0.59092(12) 0.73242(14) 0.0765 Uani
C1 C 0.66070(15) 0.94682(12) 0.41185(19) 0.0601 Uani
H1 H 0.6716 0.9682 0.4552 0.0720 Uiso
C2 C 0.66582(19) 0.96935(14) 0.3430(2) 0.0776 Uani
H2 H 0.6795 1.0057 0.3388 0.0930 Uiso
C3 C 0.6510(2) 0.93886(15) 0.2811(2) 0.0829 Uani
H3 H 0.6554 0.9540 0.2328 0.0990 Uiso
C4 C 0.62940(15) 0.88566(13) 0.28787(17) 0.0593 Uani
H4 H 0.6181 0.8638 0.2451 0.0710 Uiso
C5 C 0.62497(11) 0.86584(11) 0.35879(15) 0.0433 Uani
C6 C 0.60219(11) 0.81066(10) 0.37563(13) 0.0405 Uani
C7 C 0.57374(12) 0.74153(11) 0.44326(14) 0.0454 Uani
C8 C 0.56117(12) 0.72554(11) 0.36910(14) 0.0460 Uani
C9 C 0.53598(12) 0.67495(11) 0.33222(14) 0.0463 Uani
C10 C 0.50964(13) 0.66764(12) 0.26440(16) 0.0553 Uani
H5 H 0.5070 0.6954 0.2432 0.0660 Uiso
C11 C 0.48759(13) 0.62077(13) 0.22815(16) 0.0551 Uani
H6 H 0.4697 0.6165 0.1822 0.0660 Uiso
C12 C 0.49103(11) 0.57941(11) 0.25778(14) 0.0461 Uani
C13 C 0.51731(11) 0.58648(11) 0.32592(15) 0.0472 Uani
H7 H 0.5201 0.5587 0.3470 0.0570 Uiso
C14 C 0.53914(12) 0.63349(11) 0.36249(15) 0.0490 Uani
H8 H 0.5565 0.6377 0.4088 0.0590 Uiso
C15 C 0.47024(11) 0.52920(12) 0.21583(14) 0.0495 Uani
C16 C 0.56373(13) 0.71152(11) 0.51299(14) 0.0486 Uani
C17 C 0.60236(13) 0.72888(12) 0.56755(16) 0.0530 Uani
H9 H 0.6343 0.7599 0.5597 0.0640 Uiso
C18 C 0.59425(14) 0.70101(13) 0.63304(17) 0.0572 Uani
H10 H 0.6208 0.7130 0.6698 0.0680 Uiso
C19 C 0.54882(15) 0.65676(14) 0.64532(16) 0.0585 Uani
C20 C 0.50881(16) 0.63965(14) 0.59231(19) 0.0683 Uani
H11 H 0.4765 0.6093 0.6016 0.0820 Uiso
C21 C 0.51646(15) 0.66725(14) 0.52607(17) 0.0631 Uani
H12 H 0.4895 0.6558 0.4900 0.0760 Uiso
C22 C 0.54138(17) 0.62436(14) 0.71380(18) 0.0655 Uani
H13 H 0.5797(13) 0.7723(13) 0.285(2) 0.0510 Uiso
Zn1G Zn 0.47777(2) 0.44030(3) 0.18748(2) 0.0442 Uani
Zn1P Zn 0.52223(2) 0.55970(3) 0.81252(2) 0.0442 Uani
O1E O 0.68424(13) 0.85600(10) 0.57923(11) 0.0572 Uani
O3Q O 0.61622(15) 0.91275(11) 0.58397(13) 0.0721 Uani
O4Q O 0.57140(16) 0.82898(11) 0.60091(14) 0.0765 Uani
loop_
_atom_site_aniso_label
_atom_site_aniso_U_11
_atom_site_aniso_U_22
_atom_site_aniso_U_33
_atom_site_aniso_U_23
_atom_site_aniso_U_13
_atom_site_aniso_U_12
Zn1 0.0620(3) 0.0563(3) 0.0265(3) -0.00183(13) 0.00276(13) 0.0387(2)
N1 0.0626(14) 0.0494(12) 0.0353(11) 0.0010(9) 0.0044(9) 0.0371(11)
N2 0.0633(13) 0.0481(12) 0.0239(10) 0.0028(8) 0.0040(9) 0.0351(11)
N3 0.0657(14) 0.0492(12) 0.0227(10) 0.0041(9) 0.0025(9) 0.0345(11)
O1 0.0825(15) 0.0576(12) 0.0350(10) -0.0076(9) -0.0085(9) 0.0377(11)
O2 0.0789(15) 0.0660(13) 0.0299(10) -0.0030(9) -0.0111(9) 0.0237(11)
O3 0.0974(19) 0.0794(16) 0.0462(12) 0.0248(11) 0.0077(12) 0.0493(15)
O4 0.0926(18) 0.0975(19) 0.0555(14) 0.0377(13) 0.0262(13) 0.0595(16)
C1 0.085(2) 0.0502(16) 0.0537(18) -0.0026(13) 0.0001(15) 0.0402(16)
C2 0.120(3) 0.0499(17) 0.065(2) 0.0090(16) 0.002(2) 0.044(2)
C3 0.139(4) 0.063(2) 0.0499(19) 0.0156(16) 0.001(2) 0.053(2)
C4 0.097(2) 0.0554(16) 0.0348(14) 0.0074(12) 0.0016(14) 0.0450(17)
C5 0.0595(16) 0.0504(14) 0.0327(13) 0.0036(10) 0.0045(10) 0.0369(13)
C6 0.0586(15) 0.0489(14) 0.0252(11) 0.0045(10) 0.0043(10) 0.0352(12)
C7 0.0648(16) 0.0484(14) 0.0280(12) 0.0056(10) 0.0039(11) 0.0320(13)
C8 0.0658(16) 0.0482(14) 0.0281(12) 0.0056(10) 0.0021(11) 0.0315(13)
C9 0.0615(16) 0.0491(14) 0.0277(12) 0.0033(10) 0.0007(11) 0.0272(13)
C10 0.0719(19) 0.0573(16) 0.0378(14) 0.0073(12) -0.0061(13) 0.0332(15)
C11 0.0680(18) 0.0631(17) 0.0317(14) 0.0020(12) -0.0106(12) 0.0308(15)
C12 0.0514(14) 0.0535(15) 0.0267(12) 0.0017(10) -0.0012(10) 0.0211(12)
C13 0.0627(16) 0.0487(14) 0.0307(12) -0.0001(10) -0.0062(11) 0.0282(13)
C14 0.0661(17) 0.0503(14) 0.0294(12) -0.0016(10) -0.0098(11) 0.0282(13)
C15 0.0536(15) 0.0564(16) 0.0232(12) 0.0002(10) 0.0021(10) 0.0161(13)
C16 0.0738(18) 0.0495(14) 0.0271(12) 0.0071(10) 0.0064(12) 0.0342(14)
C17 0.0724(19) 0.0571(16) 0.0370(14) 0.0096(12) 0.0035(13) 0.0379(15)
C18 0.079(2) 0.0698(19) 0.0362(14) 0.0132(13) 0.0044(14) 0.0473(17)
C19 0.086(2) 0.0709(19) 0.0338(14) 0.0140(13) 0.0122(14) 0.0507(18)
C20 0.086(2) 0.0616(19) 0.0489(17) 0.0183(15) 0.0165(17) 0.0306(17)
C21 0.083(2) 0.0640(19) 0.0364(15) 0.0090(13) 0.0032(14) 0.0323(17)
C22 0.098(3) 0.071(2) 0.0446(17) 0.0207(15) 0.0242(18) 0.055(2)
Zn1G 0.0563 0.0409 0.0265 0.00459 0.00183 0.0176
Zn1P 0.0563 0.0409 0.0265 0.00459 0.00183 0.0176
O1E 0.0647 0.0825 0.035 0.0085 0.0009 0.0448
O3Q 0.0782 0.0974 0.0462 -0.0077 0.0171 0.0481
O4Q 0.0711 0.0926 0.0555 -0.0262 0.0115 0.0331
loop_
_geom_bond_atom_site_label_1
_geom_bond_atom_site_label_2
_geom_bond_site_symmetry_1
_geom_bond_site_symmetry_2
Zn1 N1 1_555 1_555
N1 C1 1_555 1_555
N2 Zn1 1_555 1_555
N3 C6 1_555 1_555
O1 C15 1_555 1_555
O2 C15 1_555 1_555
O3 C22 1_555 1_555
O4 C22 1_555 1_555
C1 H1 1_555 1_555
C2 C1 1_555 1_555
H2 C2 1_555 1_555
C3 C2 1_555 1_555
H3 C3 1_555 1_555
C4 C3 1_555 1_555
H4 C4 1_555 1_555
C5 N1 1_555 1_555
C6 N2 1_555 1_555
C7 N2 1_555 1_555
C8 N3 1_555 1_555
C9 C8 1_555 1_555
C10 C9 1_555 1_555
H5 C10 1_555 1_555
C11 C10 1_555 1_555
H6 C11 1_555 1_555
C12 C11 1_555 1_555
C13 C12 1_555 1_555
H7 C13 1_555 1_555
C14 C9 1_555 1_555
H8 C14 1_555 1_555
C15 C12 1_555 1_555
C16 C7 1_555 1_555
C17 C16 1_555 1_555
H9 C17 1_555 1_555
C18 C17 1_555 1_555
H10 C18 1_555 1_555
C19 C18 1_555 1_555
C20 C19 1_555 1_555
H11 C20 1_555 1_555
C21 C16 1_555 1_555
H12 C21 1_555 1_555
C22 C19 1_555 1_555
H13 N3 1_555 1_555
Zn1G O1 1_555 1_555
Zn1P O3 1_555 1_555
O1E Zn1 1_555 1_555
O3Q Zn1 1_555 1_555
O4Q Zn1 1_555 1_555
O4 Zn1P 1_555 1_555
C4 C5 1_555 1_555
C5 C6 1_555 1_555
C7 C8 1_555 1_555
C13 C14 1_555 1_555
C20 C21 1_555 1_555

#END
