
#######################################################################
#
#                 Cambridge Crystallographic Data Centre
#                                CCDC 
#
#######################################################################
#
# If this CIF has been generated from an entry in the Cambridge 
# Structural Database, then it will include bibliographic, chemical, 
# crystal, experimental, refinement or atomic coordinate data resulting 
# from the CCDC's data processing and validation procedures.
#
#######################################################################

data_OBAHIL
_chemical_formula_moiety         '(C30 H23 N3 O4 Zn1)n'
_symmetry_cell_setting           rhombohedral
_symmetry_space_group_name_H-M   'R -3'
_symmetry_Int_Tables_number      148
_space_group_name_Hall           '-R 3'
loop_
_symmetry_equiv_pos_site_id
_symmetry_equiv_pos_as_xyz
1 x,y,z
2 -y,x-y,z
3 -x+y,-x,z
4 2/3+x,1/3+y,1/3+z
5 2/3-y,1/3+x-y,1/3+z
6 2/3-x+y,1/3-x,1/3+z
7 1/3+x,2/3+y,2/3+z
8 1/3-y,2/3+x-y,2/3+z
9 1/3-x+y,2/3-x,2/3+z
10 -x,-y,-z
11 y,-x+y,-z
12 x-y,x,-z
13 1/3-x,2/3-y,2/3-z
14 1/3+y,2/3-x+y,2/3-z
15 1/3+x-y,2/3+x,2/3-z
16 2/3-x,1/3-y,1/3-z
17 2/3+y,1/3-x+y,1/3-z
18 2/3+x-y,1/3+x,1/3-z
_cell_length_a                   29.608(5)
_cell_length_b                   29.608(5)
_cell_length_c                   18.158(3)
_cell_angle_alpha                90
_cell_angle_beta                 90
_cell_angle_gamma                120
_cell_volume                     13785.3
loop_
_atom_site_label
_atom_site_type_symbol
_atom_site_fract_x
_atom_site_fract_y
_atom_site_fract_z
_atom_site_U_iso_or_equiv
_atom_site_thermal_displace_type
Zn1 Zn 0.62572(2) 0.85443(2) 0.52170(2) 0.0467 Uani
N1 N 0.63578(16) 0.89499(13) 0.42459(17) 0.0503 Uani
N2 N 0.59880(16) 0.79368(13) 0.44659(16) 0.0496 Uani
N3 N 0.58255(15) 0.77135(13) 0.33025(16) 0.0470 Uani
O1 O 0.47532(12) 0.49313(11) 0.24123(14) 0.0532 Uani
O2 O 0.45216(13) 0.52788(12) 0.14993(14) 0.0618 Uani
O3 O 0.58095(12) 0.63218(11) 0.74761(14) 0.0517 Uani
O4 O 0.49635(13) 0.59070(14) 0.72999(16) 0.0634 Uani
C1 C 0.6522(2) 0.94585(18) 0.4177(2) 0.0607 Uani
H1 H 0.6609 0.9666 0.4609 0.0730 Uiso
C2 C 0.6572(2) 0.96944(19) 0.3504(3) 0.0686 Uani
H2 H 0.6691 1.0057 0.3475 0.0820 Uiso
C3 C 0.6446(2) 0.93965(19) 0.2878(2) 0.0668 Uani
H3 H 0.6477 0.9552 0.2409 0.0800 Uiso
C4 C 0.6273(2) 0.88676(18) 0.2933(2) 0.0584 Uani
H4 H 0.6186 0.8654 0.2507 0.0700 Uiso
C5 C 0.62316(18) 0.86609(16) 0.3629(2) 0.0495 Uani
C6 C 0.60265(19) 0.81091(16) 0.37852(19) 0.0491 Uani
C7 C 0.57537(18) 0.74056(15) 0.44260(19) 0.0484 Uani
C8 C 0.56454(17) 0.72549(16) 0.36948(19) 0.0476 Uani
C9 C 0.54021(17) 0.67518(16) 0.33110(19) 0.0470 Uani
C10 C 0.51611(18) 0.66986(18) 0.2625(2) 0.0524 Uani
H5 H 0.5153 0.6988 0.2416 0.0630 Uiso
C11 C 0.49384(17) 0.62339(17) 0.2253(2) 0.0531 Uani
H6 H 0.4781 0.6208 0.1787 0.0640 Uiso
C12 C 0.49382(15) 0.57999(15) 0.25438(19) 0.0449 Uani
C13 C 0.51711(17) 0.58478(15) 0.3233(2) 0.0480 Uani
H7 H 0.5167 0.5553 0.3448 0.0580 Uiso
C14 C 0.54060(18) 0.63165(16) 0.3603(2) 0.0502 Uani
H8 H 0.5573 0.6345 0.4061 0.0600 Uiso
C15 C 0.47143(15) 0.53028(16) 0.21151(19) 0.0478 Uani
C16 C 0.56469(19) 0.70977(16) 0.51073(19) 0.0499 Uani
C17 C 0.60254(18) 0.72890(16) 0.5656(2) 0.0496 Uani
H9 H 0.6342 0.7608 0.5584 0.0590 Uiso
C18 C 0.59420(18) 0.70152(16) 0.6308(2) 0.0492 Uani
H10 H 0.6202 0.7149 0.6680 0.0590 Uiso
C19 C 0.54873(18) 0.65530(17) 0.6422(2) 0.0518 Uani
C20 C 0.5098(2) 0.6363(2) 0.5885(2) 0.0624 Uani
H11 H 0.4778 0.6049 0.5969 0.0740 Uiso
C21 C 0.5178(2) 0.66323(19) 0.5228(2) 0.0601 Uani
H12 H 0.4914 0.6501 0.4861 0.0720 Uiso
C22 C 0.54192(18) 0.62470(17) 0.7112(2) 0.0520 Uani
H13 H 0.5853(18) 0.7753(18) 0.277(3) 0.0520 Uiso
Zn1G Zn 0.47890(2) 0.43796(3) 0.18837(2) 0.0467 Uani
Zn1P Zn 0.52110(2) 0.56204(3) 0.81163(2) 0.0467 Uani
O1E O 0.68448(16) 0.85801(12) 0.57456(14) 0.0532 Uani
O3Q O 0.61544(16) 0.91428(12) 0.58572(14) 0.0517 Uani
O4Q O 0.57232(19) 0.82968(13) 0.60334(16) 0.0634 Uani
C23 C 0.3922(3) 0.4789(3) 0.3820(3) 0.1202 Uani
H14 H 0.3983 0.4616 0.3426 0.1440 Uiso
C24 C 0.4088(3) 0.4765(2) 0.4528(4) 0.1164 Uani
C25 C 0.3998(4) 0.5019(3) 0.5104(3) 0.1697 Uani
H15 H 0.4111 0.5002 0.5588 0.2030 Uiso
C26 C 0.3743(5) 0.5298(4) 0.4973(5) 0.2459 Uani
H16 H 0.3682 0.5471 0.5367 0.2920 Uiso
C27 C 0.3577(4) 0.5322(4) 0.4266(6) 0.3181 Uani
H17 H 0.3403 0.5512 0.4176 0.3820 Uiso
C28 C 0.3667(3) 0.5068(3) 0.3689(4) 0.1330 Uani
C29 C 0.4321(8) 0.4458(7) 0.4717(11) 0.2633 Uani
H18 H 0.4407 0.4499 0.5243 0.3960 Uiso
H19 H 0.4076 0.4090 0.4610 0.3960 Uiso
H20 H 0.4640 0.4575 0.4428 0.3960 Uiso
C30 C 0.3493(5) 0.5142(6) 0.3007(7) 0.1913 Uani
H21 H 0.3567 0.4954 0.2625 0.2870 Uiso
H22 H 0.3117 0.5009 0.3030 0.2870 Uiso
H23 H 0.3674 0.5515 0.2889 0.2870 Uiso
loop_
_atom_site_aniso_label
_atom_site_aniso_U_11
_atom_site_aniso_U_22
_atom_site_aniso_U_33
_atom_site_aniso_U_23
_atom_site_aniso_U_13
_atom_site_aniso_U_12
Zn1 0.0823(4) 0.0533(4) 0.0198(4) -0.00004(17) 0.0046(2) 0.0453(3)
N1 0.087(2) 0.0519(17) 0.0264(15) 0.0000(12) 0.0031(14) 0.0456(18)
N2 0.088(2) 0.0543(18) 0.0183(14) 0.0020(12) 0.0054(14) 0.0445(18)
N3 0.081(2) 0.0500(17) 0.0189(14) 0.0018(12) 0.0020(13) 0.0394(17)
O1 0.0646(17) 0.0514(15) 0.0238(12) -0.0013(11) -0.0011(11) 0.0141(13)
O2 0.0691(18) 0.0658(18) 0.0231(13) 0.0019(12) -0.0077(12) 0.0132(14)
O3 0.0695(18) 0.0562(15) 0.0290(13) 0.0103(11) 0.0044(12) 0.0312(14)
O4 0.0667(18) 0.088(2) 0.0307(14) 0.0215(14) 0.0101(13) 0.0350(17)
C1 0.107(4) 0.054(2) 0.038(2) -0.0012(17) 0.000(2) 0.053(3)
C2 0.113(4) 0.058(2) 0.047(2) 0.0062(19) 0.001(2) 0.052(3)
C3 0.113(4) 0.058(2) 0.035(2) 0.0112(18) 0.000(2) 0.047(3)
C4 0.101(3) 0.059(2) 0.0271(18) 0.0024(16) 0.0006(19) 0.049(2)
C5 0.083(3) 0.053(2) 0.0271(18) 0.0005(15) 0.0039(16) 0.045(2)
C6 0.088(3) 0.056(2) 0.0206(16) 0.0032(14) 0.0047(16) 0.049(2)
C7 0.081(3) 0.0478(19) 0.0231(16) 0.0023(14) 0.0034(16) 0.0372(19)
C8 0.074(2) 0.053(2) 0.0214(16) 0.0031(14) 0.0032(15) 0.0359(19)
C9 0.069(2) 0.052(2) 0.0229(16) 0.0022(14) 0.0029(15) 0.0324(18)
C10 0.069(2) 0.063(2) 0.0293(18) 0.0046(16) -0.0038(17) 0.036(2)
C11 0.062(2) 0.065(2) 0.0247(18) 0.0018(16) -0.0083(16) 0.026(2)
C12 0.0503(19) 0.0510(19) 0.0219(16) 0.0036(14) 0.0004(13) 0.0166(16)
C13 0.068(2) 0.0449(19) 0.0251(16) 0.0005(14) -0.0049(15) 0.0238(17)
C14 0.073(2) 0.051(2) 0.0230(16) 0.0021(14) -0.0067(16) 0.0283(19)
C15 0.0466(19) 0.054(2) 0.0200(16) 0.0046(14) 0.0032(13) 0.0080(16)
C16 0.082(3) 0.053(2) 0.0218(17) 0.0049(14) 0.0051(16) 0.039(2)
C17 0.074(3) 0.050(2) 0.0288(18) 0.0028(15) 0.0034(16) 0.0341(19)
C18 0.073(3) 0.056(2) 0.0264(17) 0.0052(15) 0.0040(16) 0.038(2)
C19 0.073(3) 0.064(2) 0.0246(17) 0.0087(16) 0.0092(16) 0.039(2)
C20 0.075(3) 0.070(3) 0.034(2) 0.0120(19) 0.0057(19) 0.030(2)
C21 0.077(3) 0.072(3) 0.0296(19) 0.0079(18) -0.0001(18) 0.036(2)
C22 0.073(3) 0.060(2) 0.0266(17) 0.0099(16) 0.0108(17) 0.036(2)
Zn1G 0.0533 0.045 0.0198 0.00464 4e-05 0.008
Zn1P 0.0533 0.045 0.0198 0.00464 4e-05 0.008
O1E 0.0878 0.0646 0.0238 0.0011 -0.0002 0.0505
O3Q 0.0633 0.0695 0.029 -0.0044 0.0059 0.0383
O4Q 0.0847 0.0667 0.0307 -0.0101 0.0114 0.0317
C23 0.113(6) 0.138(7) 0.086(5) -0.003(5) 0.026(4) 0.045(5)
C24 0.130(7) 0.096(5) 0.096(6) 0.006(4) 0.003(5) 0.036(5)
C25 0.248(15) 0.122(8) 0.077(6) 0.009(5) 0.029(7) 0.046(9)
C26 0.43(3) 0.31(2) 0.151(13) 0.051(14) 0.114(17) 0.30(2)
C27 0.67(6) 0.28(2) 0.141(13) -0.026(14) 0.01(2) 0.34(3)
C28 0.140(8) 0.151(9) 0.115(7) 0.040(6) 0.021(6) 0.078(7)
C29 0.30(2) 0.231(18) 0.33(2) -0.085(17) -0.19(2) 0.186(19)
C30 0.158(11) 0.185(12) 0.138(10) 0.020(9) -0.045(8) 0.016(9)
loop_
_geom_bond_atom_site_label_1
_geom_bond_atom_site_label_2
_geom_bond_site_symmetry_1
_geom_bond_site_symmetry_2
Zn1 N1 1_555 1_555
N1 C1 1_555 1_555
N2 Zn1 1_555 1_555
N3 C6 1_555 1_555
O1 C15 1_555 1_555
O2 C15 1_555 1_555
O3 C22 1_555 1_555
O4 C22 1_555 1_555
C1 H1 1_555 1_555
C2 C1 1_555 1_555
H2 C2 1_555 1_555
C3 C2 1_555 1_555
H3 C3 1_555 1_555
C4 C3 1_555 1_555
H4 C4 1_555 1_555
C5 N1 1_555 1_555
C6 N2 1_555 1_555
C7 N2 1_555 1_555
C8 N3 1_555 1_555
C9 C8 1_555 1_555
C10 C9 1_555 1_555
H5 C10 1_555 1_555
C11 C10 1_555 1_555
H6 C11 1_555 1_555
C12 C11 1_555 1_555
C13 C12 1_555 1_555
H7 C13 1_555 1_555
C14 C9 1_555 1_555
H8 C14 1_555 1_555
C15 C12 1_555 1_555
C16 C7 1_555 1_555
C17 C16 1_555 1_555
H9 C17 1_555 1_555
C18 C17 1_555 1_555
H10 C18 1_555 1_555
C19 C18 1_555 1_555
C20 C19 1_555 1_555
H11 C20 1_555 1_555
C21 C16 1_555 1_555
H12 C21 1_555 1_555
C22 C19 1_555 1_555
H13 N3 1_555 1_555
C23 H14 1_555 1_555
C24 C23 1_555 1_555
C25 C24 1_555 1_555
H15 C25 1_555 1_555
C26 C25 1_555 1_555
H16 C26 1_555 1_555
C27 C26 1_555 1_555
H17 C27 1_555 1_555
C28 C23 1_555 1_555
C29 C24 1_555 1_555
H18 C29 1_555 1_555
H19 C29 1_555 1_555
H20 C29 1_555 1_555
C30 C28 1_555 1_555
H21 C30 1_555 1_555
H22 C30 1_555 1_555
H23 C30 1_555 1_555
Zn1G O1 1_555 1_555
Zn1P O3 1_555 1_555
O1E Zn1 1_555 1_555
O3Q Zn1 1_555 1_555
O4Q Zn1 1_555 1_555
O4 Zn1P 1_555 1_555
C4 C5 1_555 1_555
C5 C6 1_555 1_555
C7 C8 1_555 1_555
C13 C14 1_555 1_555
C20 C21 1_555 1_555
C27 C28 1_555 1_555

#END
