
#######################################################################
#
#                 Cambridge Crystallographic Data Centre
#                                CCDC 
#
#######################################################################
#
# If this CIF has been generated from an entry in the Cambridge 
# Structural Database, then it will include bibliographic, chemical, 
# crystal, experimental, refinement or atomic coordinate data resulting 
# from the CCDC's data processing and validation procedures.
#
#######################################################################

data_OBAJAF
_chemical_formula_moiety         '(C38 H33 N3 O4 Zn1)n'
_symmetry_cell_setting           rhombohedral
_symmetry_space_group_name_H-M   'R -3'
_symmetry_Int_Tables_number      148
_space_group_name_Hall           '-R 3'
loop_
_symmetry_equiv_pos_site_id
_symmetry_equiv_pos_as_xyz
1 x,y,z
2 -y,x-y,z
3 -x+y,-x,z
4 2/3+x,1/3+y,1/3+z
5 2/3-y,1/3+x-y,1/3+z
6 2/3-x+y,1/3-x,1/3+z
7 1/3+x,2/3+y,2/3+z
8 1/3-y,2/3+x-y,2/3+z
9 1/3-x+y,2/3-x,2/3+z
10 -x,-y,-z
11 y,-x+y,-z
12 x-y,x,-z
13 1/3-x,2/3-y,2/3-z
14 1/3+y,2/3-x+y,2/3-z
15 1/3+x-y,2/3+x,2/3-z
16 2/3-x,1/3-y,1/3-z
17 2/3+y,1/3-x+y,1/3-z
18 2/3+x-y,1/3+x,1/3-z
_cell_length_a                   30.516(6)
_cell_length_b                   30.516(6)
_cell_length_c                   17.704(4)
_cell_angle_alpha                90
_cell_angle_beta                 90
_cell_angle_gamma                120
_cell_volume                     14277.7
loop_
_atom_site_label
_atom_site_type_symbol
_atom_site_fract_x
_atom_site_fract_y
_atom_site_fract_z
_atom_site_U_iso_or_equiv
_atom_site_thermal_displace_type
Zn1 Zn 0.63184(2) 0.85363(2) 0.52340(2) 0.0148 Uani
N1 N 0.63886(6) 0.89247(6) 0.42369(9) 0.0179 Uani
N2 N 0.60453(6) 0.79395(6) 0.44729(8) 0.0148 Uani
N3 N 0.58550(6) 0.77118(6) 0.32836(8) 0.0159 Uani
H1 H 0.5829 0.7735 0.2792 0.0190 Uiso
O1 O 0.47940(5) 0.49953(5) 0.24583(7) 0.0202 Uani
O2 O 0.45028(5) 0.52959(5) 0.15604(8) 0.0242 Uani
O3 O 0.58592(6) 0.62749(6) 0.74709(8) 0.0281 Uani
O4 O 0.50335(6) 0.59083(5) 0.73154(8) 0.0259 Uani
C1 C 0.65316(9) 0.94156(8) 0.41679(12) 0.0260 Uani
H2 H 0.6632 0.9622 0.4607 0.0310 Uiso
C2 C 0.65373(10) 0.96320(8) 0.34796(13) 0.0328 Uani
H3 H 0.6635 0.9980 0.3447 0.0390 Uiso
C3 C 0.63998(10) 0.93350(8) 0.28417(13) 0.0318 Uani
H4 H 0.6406 0.9478 0.2362 0.0380 Uiso
C4 C 0.62518(8) 0.88272(8) 0.29001(11) 0.0235 Uani
H5 H 0.6158 0.8617 0.2465 0.0280 Uiso
C5 C 0.62446(7) 0.86342(7) 0.36113(10) 0.0161 Uani
C6 C 0.60596(7) 0.80996(7) 0.37723(10) 0.0149 Uani
C7 C 0.58134(7) 0.74194(7) 0.44346(10) 0.0157 Uani
C8 C 0.56930(7) 0.72705(7) 0.36867(10) 0.0168 Uani
C9 C 0.54469(7) 0.67782(7) 0.33096(10) 0.0172 Uani
C10 C 0.51704(8) 0.67074(7) 0.26424(11) 0.0208 Uani
H6 H 0.5145 0.6981 0.2436 0.0250 Uiso
C11 C 0.49346(8) 0.62419(8) 0.22837(11) 0.0209 Uani
H7 H 0.4748 0.6199 0.1834 0.0250 Uiso
C12 C 0.49687(7) 0.58366(7) 0.25752(10) 0.0164 Uani
C13 C 0.52456(7) 0.59066(7) 0.32370(11) 0.0180 Uani
H8 H 0.5271 0.5633 0.3442 0.0220 Uiso
C14 C 0.54827(7) 0.63708(7) 0.35962(11) 0.0187 Uani
H9 H 0.5672 0.6413 0.4043 0.0220 Uiso
C15 C 0.47302(7) 0.53395(7) 0.21620(10) 0.0167 Uani
C16 C 0.57191(7) 0.71190(7) 0.51286(10) 0.0166 Uani
C17 C 0.60916(7) 0.72848(7) 0.56862(11) 0.0193 Uani
H10 H 0.6402 0.7592 0.5618 0.0230 Uiso
C18 C 0.60108(8) 0.70036(7) 0.63387(11) 0.0199 Uani
H11 H 0.6267 0.7118 0.6714 0.0240 Uiso
C19 C 0.55573(8) 0.65562(7) 0.64459(10) 0.0196 Uani
C20 C 0.51779(8) 0.64004(7) 0.59047(11) 0.0228 Uani
H12 H 0.4861 0.6103 0.5986 0.0270 Uiso
C21 C 0.52605(8) 0.66777(7) 0.52452(11) 0.0214 Uani
H13 H 0.5002 0.6565 0.4873 0.0260 Uiso
C22 C 0.54862(8) 0.62344(7) 0.71247(11) 0.0220 Uani
Zn1G Zn 0.47970(2) 0.44488(3) 0.19007(2) 0.0148 Uani
Zn1P Zn 0.52030(2) 0.55512(3) 0.80993(2) 0.0148 Uani
O1E O 0.68680(7) 0.85393(5) 0.57916(7) 0.0202 Uani
O3Q O 0.62510(8) 0.91925(6) 0.58624(8) 0.0281 Uani
O4Q O 0.57919(8) 0.83668(6) 0.60179(8) 0.0259 Uani
C23 C 0.45365(11) 0.49877(11) 0.50715(16) 0.0470 Uani
C24 C 0.46659(12) 0.48294(11) 0.44112(16) 0.0483 Uani
H14 H 0.4434 0.4710 0.4001 0.0580 Uiso
C25 C 0.51180(12) 0.48421(10) 0.43418(14) 0.0433 Uani
H15 H 0.5196 0.4733 0.3885 0.0520 Uiso
C26 C 0.40505(16) 0.49952(19) 0.5140(2) 0.0809 Uani
H16 H 0.3853 0.4862 0.4675 0.1210 Uiso
H17 H 0.3856 0.4785 0.5569 0.1210 Uiso
H18 H 0.4125 0.5344 0.5220 0.1210 Uiso
C23I C 0.54635(11) 0.50123(11) 0.49285(16) 0.0470 Uani
C24I C 0.53341(12) 0.51706(11) 0.55888(16) 0.0483 Uani
H14I H 0.5566 0.5290 0.5999 0.0580 Uiso
C25I C 0.48820(12) 0.51579(10) 0.56582(14) 0.0433 Uani
H15I H 0.4804 0.5267 0.6115 0.0520 Uiso
C26I C 0.59495(16) 0.50048(19) 0.4860(2) 0.0809 Uani
H16I H 0.6147 0.5138 0.5325 0.1210 Uiso
H17I H 0.6144 0.5215 0.4431 0.1210 Uiso
H18I H 0.5875 0.4656 0.4780 0.1210 Uiso
C27 C 0.43683(6) 0.70132(5) 0.37831(10) 0.0428 Uani
C28 C 0.46745(6) 0.74117(6) 0.42611(8) 0.0389 Uani
H19 H 0.4745 0.7345 0.4757 0.0470 Uiso
C29 C 0.48772(6) 0.79081(5) 0.40138(9) 0.0406 Uani
H20 H 0.5086 0.8181 0.4341 0.0490 Uiso
C30 C 0.47736(7) 0.80060(6) 0.32886(10) 0.0479 Uani
C31 C 0.44674(7) 0.76074(8) 0.28106(8) 0.0554 Uani
H21 H 0.4397 0.7674 0.2315 0.0670 Uiso
C32 C 0.42647(6) 0.71110(7) 0.30578(9) 0.0526 Uani
H22 H 0.4055 0.6839 0.2731 0.0630 Uiso
C33 C 0.41322(11) 0.64677(11) 0.4062(2) 0.0580 Uani
H23 H 0.3929 0.6236 0.3657 0.0870 Uiso
H24 H 0.4401 0.6398 0.4209 0.0870 Uiso
H25 H 0.3915 0.6420 0.4499 0.0870 Uiso
C34 C 0.49629(14) 0.85514(14) 0.3043(2) 0.0685 Uani
H26 H 0.5172 0.8783 0.3444 0.1030 Uiso
H27 H 0.5165 0.8623 0.2581 0.1030 Uiso
H28 H 0.4673 0.8599 0.2945 0.1030 Uiso
loop_
_atom_site_aniso_label
_atom_site_aniso_U_11
_atom_site_aniso_U_22
_atom_site_aniso_U_33
_atom_site_aniso_U_23
_atom_site_aniso_U_13
_atom_site_aniso_U_12
Zn1 0.01959(15) 0.01699(14) 0.01146(15) 0.00006(8) 0.00081(9) 0.01184(10)
N1 0.0241(8) 0.0159(8) 0.0153(8) 0.0007(6) 0.0012(6) 0.0111(7)
N2 0.0200(8) 0.0141(7) 0.0127(7) 0.0007(6) 0.0005(6) 0.0103(6)
N3 0.0237(8) 0.0146(7) 0.0106(7) 0.0010(6) 0.0007(6) 0.0105(6)
O1 0.0250(7) 0.0165(6) 0.0173(6) -0.0029(5) -0.0013(5) 0.0090(6)
O2 0.0288(7) 0.0250(7) 0.0140(7) -0.0030(5) -0.0046(6) 0.0098(6)
O3 0.0348(8) 0.0314(8) 0.0210(7) 0.0108(6) 0.0018(6) 0.0188(7)
O4 0.0298(8) 0.0264(7) 0.0209(7) 0.0115(6) 0.0063(6) 0.0137(6)
C1 0.0378(12) 0.0162(9) 0.0237(10) -0.0012(8) -0.0010(9) 0.0132(9)
C2 0.0493(14) 0.0161(10) 0.0304(12) 0.0044(8) -0.0013(10) 0.0144(10)
C3 0.0475(14) 0.0229(11) 0.0235(11) 0.0074(8) -0.0020(9) 0.0164(10)
C4 0.0340(11) 0.0193(9) 0.0170(9) 0.0021(7) 0.0000(8) 0.0132(9)
C5 0.0185(9) 0.0152(9) 0.0167(9) 0.0009(7) 0.0013(7) 0.0101(7)
C6 0.0192(9) 0.0157(9) 0.0123(8) 0.0013(7) 0.0018(7) 0.0106(7)
C7 0.0193(9) 0.0144(8) 0.0151(9) 0.0005(7) 0.0007(7) 0.0097(7)
C8 0.0211(9) 0.0161(9) 0.0150(9) 0.0022(7) 0.0015(7) 0.0106(7)
C9 0.0208(9) 0.0162(9) 0.0146(9) 0.0005(7) 0.0019(7) 0.0093(7)
C10 0.0273(10) 0.0183(9) 0.0181(9) 0.0026(7) -0.0028(8) 0.0123(8)
C11 0.0258(10) 0.0232(10) 0.0140(9) 0.0004(7) -0.0035(7) 0.0124(8)
C12 0.0163(8) 0.0168(9) 0.0140(8) 0.0007(7) 0.0022(7) 0.0066(7)
C13 0.0216(9) 0.0157(9) 0.0171(9) 0.0009(7) -0.0005(7) 0.0096(7)
C14 0.0234(9) 0.0188(9) 0.0151(9) 0.0000(7) -0.0024(7) 0.0114(8)
C15 0.0150(8) 0.0182(9) 0.0129(9) 0.0008(7) 0.0039(7) 0.0053(7)
C16 0.0241(9) 0.0157(8) 0.0134(9) 0.0014(7) 0.0021(7) 0.0124(8)
C17 0.0227(9) 0.0160(9) 0.0191(9) 0.0030(7) 0.0004(7) 0.0095(8)
C18 0.0251(10) 0.0219(9) 0.0165(9) 0.0012(7) -0.0013(7) 0.0145(8)
C19 0.0287(10) 0.0197(9) 0.0146(9) 0.0050(7) 0.0052(7) 0.0153(8)
C20 0.0237(10) 0.0194(9) 0.0208(10) 0.0044(8) 0.0032(8) 0.0074(8)
C21 0.0240(10) 0.0211(9) 0.0176(9) 0.0027(7) -0.0008(8) 0.0101(8)
C22 0.0342(11) 0.0196(9) 0.0164(9) 0.0027(7) 0.0046(8) 0.0165(9)
Zn1G 0.01699 0.0129 0.01146 0.00075 -6e-05 0.00515
Zn1P 0.01699 0.0129 0.01146 0.00075 -6e-05 0.00515
O1E 0.0235 0.025 0.0173 0.0013 -0.0016 0.016
O3Q 0.0286 0.0348 0.021 -0.0018 0.009 0.016
O4Q 0.0288 0.0298 0.0209 -0.0063 0.0052 0.0161
C23 0.0510(16) 0.0442(15) 0.0441(15) 0.0198(12) 0.0099(12) 0.0225(13)
C24 0.0556(17) 0.0422(15) 0.0325(13) 0.0063(11) -0.0060(12) 0.0135(13)
C25 0.0720(19) 0.0327(13) 0.0275(12) 0.0072(10) 0.0073(12) 0.0278(13)
C26 0.074(2) 0.112(3) 0.072(2) 0.043(2) 0.019(2) 0.058(2)
C23I 0.051 0.0442 0.0441 0.0198 0.0099 0.0225
C24I 0.0556 0.0422 0.0325 0.0063 -0.006 0.0135
C25I 0.072 0.0327 0.0275 0.0072 0.0073 0.0278
C26I 0.074 0.112 0.072 0.043 0.019 0.058
C27 0.0265(12) 0.0427(14) 0.0622(18) -0.0069(12) -0.0016(11) 0.0196(11)
C28 0.0285(12) 0.0408(13) 0.0522(15) -0.0009(11) -0.0013(11) 0.0209(11)
C29 0.0291(12) 0.0396(13) 0.0587(17) -0.0009(12) 0.0032(11) 0.0213(11)
C30 0.0377(14) 0.0600(18) 0.0589(18) 0.0145(14) 0.0186(13) 0.0340(14)
C31 0.0480(16) 0.089(2) 0.0434(16) 0.0053(16) 0.0085(13) 0.0450(17)
C32 0.0397(15) 0.068(2) 0.0552(18) -0.0139(15) -0.0041(13) 0.0308(14)
C33 0.0322(14) 0.0395(15) 0.095(3) -0.0067(16) -0.0082(15) 0.0124(12)
C34 0.065(2) 0.073(2) 0.088(3) 0.035(2) 0.0331(19) 0.0498(19)
loop_
_geom_bond_atom_site_label_1
_geom_bond_atom_site_label_2
_geom_bond_site_symmetry_1
_geom_bond_site_symmetry_2
Zn1 N1 1_555 1_555
N1 C1 1_555 1_555
N2 Zn1 1_555 1_555
N3 H1 1_555 1_555
O1 C15 1_555 1_555
O2 C15 1_555 1_555
O3 C22 1_555 1_555
O4 C22 1_555 1_555
C1 H2 1_555 1_555
C2 C1 1_555 1_555
H3 C2 1_555 1_555
C3 C2 1_555 1_555
H4 C3 1_555 1_555
C4 C3 1_555 1_555
H5 C4 1_555 1_555
C5 N1 1_555 1_555
C6 N2 1_555 1_555
C7 N2 1_555 1_555
C8 N3 1_555 1_555
C9 C8 1_555 1_555
C10 C9 1_555 1_555
H6 C10 1_555 1_555
C11 C10 1_555 1_555
H7 C11 1_555 1_555
C12 C11 1_555 1_555
C13 C12 1_555 1_555
H8 C13 1_555 1_555
C14 C9 1_555 1_555
H9 C14 1_555 1_555
C15 C12 1_555 1_555
C16 C7 1_555 1_555
C17 C16 1_555 1_555
H10 C17 1_555 1_555
C18 C17 1_555 1_555
H11 C18 1_555 1_555
C19 C18 1_555 1_555
C20 C19 1_555 1_555
H12 C20 1_555 1_555
C21 C16 1_555 1_555
H13 C21 1_555 1_555
C22 C19 1_555 1_555
C23 C24 1_555 1_555
C24 H14 1_555 1_555
C25 C24 1_555 1_555
H15 C25 1_555 1_555
C26 C23 1_555 1_555
H16 C26 1_555 1_555
H17 C26 1_555 1_555
H18 C26 1_555 1_555
C27 C28 1_555 1_555
C28 H19 1_555 1_555
C29 C28 1_555 1_555
H20 C29 1_555 1_555
C30 C29 1_555 1_555
C31 C30 1_555 1_555
H21 C31 1_555 1_555
C32 C27 1_555 1_555
H22 C32 1_555 1_555
C33 C27 1_555 1_555
H23 C33 1_555 1_555
H24 C33 1_555 1_555
H25 C33 1_555 1_555
C34 C30 1_555 1_555
H26 C34 1_555 1_555
H27 C34 1_555 1_555
H28 C34 1_555 1_555
Zn1G O1 1_555 1_555
Zn1P O3 1_555 1_555
O1E Zn1 1_555 1_555
O3Q Zn1 1_555 1_555
O4Q Zn1 1_555 1_555
C23I C25 1_555 1_555
C24I C23I 1_555 1_555
H14I C24I 1_555 1_555
C25I C23 1_555 1_555
H15I C25I 1_555 1_555
C26I C23I 1_555 1_555
H16I C26I 1_555 1_555
H17I C26I 1_555 1_555
H18I C26I 1_555 1_555
N3 C6 1_555 1_555
O4 Zn1P 1_555 1_555
C4 C5 1_555 1_555
C5 C6 1_555 1_555
C7 C8 1_555 1_555
C13 C14 1_555 1_555
C20 C21 1_555 1_555
C31 C32 1_555 1_555
C24I C25I 1_555 1_555

#END
