
#######################################################################
#
#                 Cambridge Crystallographic Data Centre
#                                CCDC 
#
#######################################################################
#
# If this CIF has been generated from an entry in the Cambridge 
# Structural Database, then it will include bibliographic, chemical, 
# crystal, experimental, refinement or atomic coordinate data resulting 
# from the CCDC's data processing and validation procedures.
#
#######################################################################

data_JISVAJ
_chemical_formula_moiety         '(C44 H48 Eu2 N6 O19 S4)n'
_symmetry_cell_setting           triclinic
_symmetry_space_group_name_H-M   'P -1'
_symmetry_Int_Tables_number      2
_space_group_name_Hall           '-P 1'
loop_
_symmetry_equiv_pos_site_id
_symmetry_equiv_pos_as_xyz
1 x,y,z
2 -x,-y,-z
_cell_length_a                   12.390(3)
_cell_length_b                   13.795(4)
_cell_length_c                   13.830(4)
_cell_angle_alpha                115.769(4)
_cell_angle_beta                 93.914(5)
_cell_angle_gamma                106.918(4)
_cell_volume                     1983.9
loop_
_atom_site_label
_atom_site_type_symbol
_atom_site_fract_x
_atom_site_fract_y
_atom_site_fract_z
Eu1 Eu 0.32607(3) 0.47464(2) 0.46788(2)
O1 O 0.4475(5) 0.6684(4) 0.5239(5)
O2 O 0.6326(5) 0.7023(4) 0.5906(5)
O3 O 0.4737(5) 0.5051(4) 0.6089(4)
O4 O 0.6405(5) 0.5494(5) 0.7137(4)
O5 O 0.1407(5) 0.2999(5) 0.3398(5)
O6 O 0.1824(5) 0.3515(5) 0.5154(5)
O7 O 0.1979(6) 0.5527(6) 0.4185(7)
O8 O 0.2822(7) 0.5942(6) 0.6379(6)
N1 N 0.6525(7) 1.0583(7) 0.5667(9)
N2 N 0.3559(9) 0.4218(14) 0.9139(9)
N3 N -0.0778(10) -0.0582(8) 0.3606(8)
C1 C 0.5541(6) 0.7294(6) 0.5609(6)
C2 C 0.5885(7) 0.8463(6) 0.5653(7)
C3 C 0.5076(6) 0.8767(6) 0.5231(7)
H1 H 0.4308 0.8270 0.4945
C4 C 0.5420(7) 0.9825(6) 0.5238(8)
C5 C 0.7275(8) 1.0275(9) 0.6080(12)
H2 H 0.8036 1.0788 0.6380
C6 C 0.7000(8) 0.9226(8) 0.6097(9)
H3 H 0.7561 0.9052 0.6402
C7 C 0.5336(7) 0.5170(7) 0.6937(6)
C8 C 0.4702(7) 0.4866(8) 0.7715(6)
C9 C 0.3512(10) 0.4252(15) 0.7401(10)
H4 H 0.3085 0.4054 0.6720
C10 C 0.2974(11) 0.3941(19) 0.8142(12)
H5 H 0.2182 0.3527 0.7934
C11 C 0.4704(7) 0.4852(10) 0.9443(7)
C12 C 0.5317(7) 0.5178(8) 0.8757(6)
H6 H 0.6109 0.5591 0.8985
C13 C 0.1280(7) 0.2787(7) 0.4178(7)
C14 C 0.0508(7) 0.1628(7) 0.3982(7)
C15 C -0.0240(9) 0.0818(10) 0.2972(9)
H7 H -0.0330 0.0999 0.2404
C16 C -0.0844(12) -0.0256(11) 0.2833(10)
H8 H -0.1335 -0.0797 0.2150
C17 C -0.0051(8) 0.0195(7) 0.4575(7)
C18 C 0.0589(7) 0.1313(7) 0.4799(7)
H9 H 0.1065 0.1843 0.5493
S1 S 0.1289(4) 0.5433(5) 0.3273(5)
S2 S 0.3466(5) 0.7115(5) 0.7265(4)
C19 C 0.2999 0.8101 0.7113
C20 C 0.3040 0.7069 0.8531
C21 C -0.0241 0.4983 0.3534
C22 C 0.2241 0.6302 0.2777
Eu1A Eu 0.67393(3) 1.52536(2) 0.53212(2)
Eu1A_2 Eu 0.67393(3) 0.52536(2) 0.53212(2)
Eu1_2 Eu 0.32607(3) 1.47464(2) 0.46788(2)
Eu1_3 Eu 0.32607(3) 0.47464(2) 1.46788(2)
Eu1A_3 Eu 0.67393(3) 0.52536(2) 1.53212(2)
Eu1A_4 Eu -0.32607(3) -0.47464(2) 0.53212(2)
O1A O 0.5525(5) 1.3316(4) 0.4761(5)
O2A O 0.3674(5) 1.2977(4) 0.4094(5)
O2A_2 O 0.3674(5) 0.2977(4) 0.4094(5)
O2_2 O 0.6326(5) 1.7023(4) 0.5906(5)
O3A O 0.5263(5) 0.4949(4) 1.3911(4)
O3A_2 O 0.5263(5) 0.4949(4) 0.3911(4)
O3_2 O 0.4737(5) 1.5051(4) 0.6089(4)
O3A_3 O 0.5263(5) 1.4949(4) 0.3911(4)
O4A O 0.3595(5) 0.4506(5) 1.2863(4)
O4A_2 O 0.3595(5) 0.4506(5) 0.2863(4)
O4_2 O 0.6405(5) 1.5494(5) 0.7137(4)
O5A O -0.1407(5) -0.2999(5) 0.6602(5)
O5A_2 O 0.8593(5) 1.7001(5) 0.6602(5)
O6A O -0.1824(5) -0.3515(5) 0.4846(5)
O6A_2 O 0.8176(5) 1.6485(5) 0.4846(5)
O7A O 0.8021(6) 1.4473(6) 0.5815(7)
O8A O 0.7178(7) 1.4058(6) 0.3621(6)
N1A N 0.3475(7) 0.9417(7) 0.4333(9)
N2A N 0.6441(9) 0.5782(14) 1.0861(9)
N3A N 0.0778(10) 0.0582(8) 0.6394(8)
C1A C 0.4459(6) 1.2706(6) 0.4391(6)
C2A C 0.4115(7) 1.1537(6) 0.4347(7)
C3A C 0.4924(6) 1.1233(6) 0.4769(7)
H1A H 0.5692 1.1730 0.5055
C4A C 0.4580(7) 1.0175(6) 0.4762(8)
C5A C 0.2725(8) 0.9725(9) 0.3920(12)
H2A H 0.1964 0.9212 0.3620
C6A C 0.3000(8) 1.0774(8) 0.3903(9)
H3A H 0.2439 1.0948 0.3598
C7A C 0.4664(7) 0.4830(7) 1.3063(6)
C8A C 0.5298(7) 0.5134(8) 1.2285(6)
C9A C 0.6488(10) 0.5748(15) 1.2599(10)
H4A H 0.6915 0.5946 1.3280
C10A C 0.7026(11) 0.6059(19) 1.1858(12)
H5A H 0.7818 0.6473 1.2066
C11A C 0.5296(7) 0.5148(10) 1.0557(7)
C12A C 0.4683(7) 0.4822(8) 1.1243(6)
H6A H 0.3891 0.4409 1.1015
C13A C -0.1280(7) -0.2787(7) 0.5822(7)
C14A C -0.0508(7) -0.1628(7) 0.6018(7)
C15A C 0.0240(9) -0.0818(10) 0.7028(9)
H7A H 0.0330 -0.0999 0.7596
C16A C 0.0844(12) 0.0256(11) 0.7167(10)
H8A H 0.1335 0.0797 0.7850
C17A C 0.0051(8) -0.0195(7) 0.5425(7)
C18A C -0.0589(7) -0.1313(7) 0.5201(7)
H9A H -0.1065 -0.1843 0.4507
S1A S 0.8711(4) 1.4567(5) 0.6727(5)
S2A S 0.6534(5) 1.2885(5) 0.2735(4)
C19A C 0.7001 1.1899 0.2887
C20A C 0.6960 1.2931 0.1469
C21A C 1.0241 1.5017 0.6466
C22A C 0.7759 1.3698 0.7223
O9 O -0.2171(15) -0.0632(12) -0.0411(10)
H10 H -0.1914 -0.0317 -0.0987
H11 H -0.2040 -0.0020 0.0344
O10 O 0.021(3) -0.302(3) 0.074(3)
H12 H -0.0628 -0.3408 0.0300
H13 H 0.0017 -0.3252 0.1423
O11 O 0.477(2) 0.841(3) 1.163(2)
H14 H 0.5761 0.8673 1.2082
H15 H 0.5094 0.8578 1.0964
loop_
_geom_bond_atom_site_label_1
_geom_bond_atom_site_label_2
_geom_bond_site_symmetry_1
_geom_bond_site_symmetry_2
Eu1 O1 1_555 1_555
O1 C1 1_555 1_555
O2 C1 1_555 1_555
O3 Eu1 1_555 1_555
O4 C7 1_555 1_555
O5 Eu1 1_555 1_555
O6 Eu1 1_555 1_555
O7 Eu1 1_555 1_555
O8 Eu1 1_555 1_555
N1 C4 1_555 1_555
N2 C10 1_555 1_555
N3 C16 1_555 1_555
C1 C2 1_555 1_555
C2 C3 1_555 1_555
C3 H1 1_555 1_555
C4 C3 1_555 1_555
C5 N1 1_555 1_555
H2 C5 1_555 1_555
C6 C2 1_555 1_555
H3 C6 1_555 1_555
C7 O3 1_555 1_555
C8 C7 1_555 1_555
C9 C8 1_555 1_555
H4 C9 1_555 1_555
C10 C9 1_555 1_555
H5 C10 1_555 1_555
C11 N2 1_555 1_555
C12 C8 1_555 1_555
H6 C12 1_555 1_555
C13 O5 1_555 1_555
C14 C13 1_555 1_555
C15 C14 1_555 1_555
H7 C15 1_555 1_555
C16 C15 1_555 1_555
H8 C16 1_555 1_555
C17 N3 1_555 1_555
C18 C14 1_555 1_555
H9 C18 1_555 1_555
S1 O7 1_555 1_555
S2 O8 1_555 1_555
C19 S2 1_555 1_555
C20 S2 1_555 1_555
C21 S1 1_555 1_555
C22 S1 1_555 1_555
O9 H10 1_555 1_555
H11 O9 1_555 1_555
O10 H12 1_555 1_555
H13 O10 1_555 1_555
O11 H14 1_555 1_555
H15 O11 1_555 1_555
Eu1A O1A 1_555 1_555
Eu1A_2 O2 1_555 1_555
Eu1_2 O2A 1_555 1_555
Eu1_3 O3A 1_555 1_555
Eu1A_3 O3A 1_555 1_555
Eu1A_4 O5A 1_555 1_555
O1A C1A 1_555 1_555
O2A C1A 1_555 1_555
O2A_2 Eu1 1_555 1_555
O2_2 Eu1A 1_555 1_555
O3A C7A 1_555 1_555
O3A_2 Eu1 1_555 1_555
O3_2 Eu1A 1_555 1_555
O3A_3 Eu1A 1_555 1_555
O4A Eu1_3 1_555 1_555
O4A_2 Eu1 1_555 1_555
O4_2 Eu1A 1_555 1_555
O5A C13A 1_555 1_555
O5A_2 Eu1A 1_555 1_555
O6A Eu1A_4 1_555 1_555
O6A_2 Eu1A 1_555 1_555
O7A Eu1A 1_555 1_555
O8A Eu1A 1_555 1_555
N1A C4A 1_555 1_555
N2A C10A 1_555 1_555
N3A C16A 1_555 1_555
C1A C2A 1_555 1_555
C2A C3A 1_555 1_555
C3A H1A 1_555 1_555
C4A C4 1_555 1_555
C5A N1A 1_555 1_555
H2A C5A 1_555 1_555
C6A C2A 1_555 1_555
H3A C6A 1_555 1_555
C7A O4A 1_555 1_555
C8A C7A 1_555 1_555
C9A C8A 1_555 1_555
H4A C9A 1_555 1_555
C10A C9A 1_555 1_555
H5A C10A 1_555 1_555
C11A C11 1_555 1_555
C12A C8A 1_555 1_555
H6A C12A 1_555 1_555
C13A O6A 1_555 1_555
C14A C13A 1_555 1_555
C15A C14A 1_555 1_555
H7A C15A 1_555 1_555
C16A C15A 1_555 1_555
H8A C16A 1_555 1_555
C17A C17 1_555 1_555
C18A C14A 1_555 1_555
H9A C18A 1_555 1_555
S1A O7A 1_555 1_555
S2A O8A 1_555 1_555
C19A S2A 1_555 1_555
C20A S2A 1_555 1_555
C21A S1A 1_555 1_555
C22A S1A 1_555 1_555
O3 Eu1A_2 1_555 1_555
O4 Eu1A_2 1_555 1_555
O6 C13 1_555 1_555
C5 C6 1_555 1_555
C11 C12 1_555 1_555
C17 C18 1_555 1_555
Eu1A_2 O3A_2 1_555 1_555
Eu1_2 O3_2 1_555 1_555
Eu1_2 O3A_3 1_555 1_555
N2A C11A 1_555 1_555
N3A C17A 1_555 1_555
C3A C4A 1_555 1_555
C5A C6A 1_555 1_555
C11A C12A 1_555 1_555
C17A C18A 1_555 1_555

#END
