
#######################################################################
#
#                 Cambridge Crystallographic Data Centre
#                                CCDC 
#
#######################################################################
#
# If this CIF has been generated from an entry in the Cambridge 
# Structural Database, then it will include bibliographic, chemical, 
# crystal, experimental, refinement or atomic coordinate data resulting 
# from the CCDC's data processing and validation procedures.
#
#######################################################################

data_KASLUO
_chemical_formula_moiety         '(C51 H31 N3 O10 S2 Zn2)n'
_symmetry_cell_setting           monoclinic
_symmetry_space_group_name_H-M   'P 21/c'
_symmetry_Int_Tables_number      14
_space_group_name_Hall           '-P 2ybc'
loop_
_symmetry_equiv_pos_site_id
_symmetry_equiv_pos_as_xyz
1 x,y,z
2 -x,1/2+y,1/2-z
3 -x,-y,-z
4 x,1/2-y,1/2+z
_cell_length_a                   17.164
_cell_length_b                   18.512
_cell_length_c                   24.463
_cell_angle_alpha                90
_cell_angle_beta                 120.35
_cell_angle_gamma                90
_cell_volume                     6707.64
loop_
_atom_site_label
_atom_site_type_symbol
_atom_site_fract_x
_atom_site_fract_y
_atom_site_fract_z
Zn1 Zn 0.79659(3) 0.56046(2) 0.48813(2)
Zn2 Zn 1.68812(3) 1.45479(2) 0.51184(2)
S1 S 1.14613(9) 0.80968(6) 0.52036(7)
S2 S 1.46927(9) 1.11915(5) 0.52591(7)
N1 N 0.8732(2) 0.64534(13) 0.49183(13)
N2 N 1.6069(2) 1.37172(13) 0.50584(13)
N3 N 1.4092(3) 0.8970(2) 0.5595(3)
O1 O 0.8123(2) 0.75157(18) 0.80127(15)
O2 O 0.7185(2) 0.24108(18) 0.22587(16)
O3 O 1.18773(18) 0.91174(12) 0.93397(12)
O4 O 0.41021(16) 0.02363(11) 0.04813(11)
O5 O 0.70555(19) 0.51364(12) 0.58826(11)
O6 O 0.78093(19) 0.59218(13) 0.56353(11)
O7 O 0.7859(2) 0.50096(13) 0.41412(12)
O8 O 0.7041(2) 0.42624(13) 0.43603(12)
O9 O 1.10578(17) 0.99095(11) 0.95162(11)
O10 O 0.32863(18) 0.10216(12) 0.06804(11)
C1 C 0.9630(3) 0.63961(19) 0.52011(18)
H1 H 0.9897 0.5960 0.5392
C2 C 1.3231(5) 0.8773(3) 0.5430(4)
H2 H 1.3134 0.8291 0.5484
C3 C 1.0833(4) 0.9312(2) 0.4783(3)
H3 H 1.0779 0.9798 0.4674
C4 C 1.0345(3) 0.82110(19) 0.49265(19)
C5 C 0.8863(3) 0.7962(2) 0.8297(2)
C6 C 1.1609(4) 0.8958(2) 0.5044(2)
C7 C 1.4349(3) 1.20482(19) 0.50301(19)
C8 C 1.2479(4) 0.9240(2) 0.5183(2)
C9 C 0.7632(3) 0.6406(2) 0.7467(2)
H4 H 0.7477 0.6257 0.7763
C10 C 1.4185(4) 0.9666(2) 0.5487(3)
H5 H 1.4755 0.9822 0.5583
C11 C 1.3488(4) 1.0173(2) 0.5242(3)
C12 C 0.7563(4) 0.3579(3) 0.2708(2)
H6 H 0.7729 0.3707 0.2413
C13 C 0.6380(3) 0.2015(2) 0.1914(2)
C14 C 1.3658(3) 1.0920(2) 0.5118(2)
C15 C 0.6474(3) 0.1351(2) 0.16933(18)
H7 H 0.7039 0.1177 0.1795
C16 C 1.5878(3) 1.25111(17) 0.5310(2)
H8 H 1.6136 1.2068 0.5491
C17 C 0.6975(3) 0.2707(2) 0.3131(2)
H9 H 0.6767 0.2243 0.3131
C18 C 0.7040(3) 0.32191(18) 0.35648(17)
H10 H 0.6856 0.3100 0.3851
C19 C 0.7228(3) 0.2907(2) 0.2701(2)
C20 C 1.0179(3) 0.69535(19) 0.52234(19)
H11 H 1.0801 0.6893 0.5427
C21 C 0.7649(3) 0.4064(2) 0.3163(2)
H12 H 0.7904 0.4515 0.3185
C22 C 0.8079(3) 0.68501(19) 0.65927(17)
H13 H 0.8240 0.7002 0.6301
C23 C 0.9697(3) 0.7721(2) 0.8443(2)
H14 H 0.9767 0.7253 0.8335
C24 C 0.8744(3) 0.8635(2) 0.84764(19)
H15 H 0.8176 0.8791 0.8386
C25 C 1.6413(3) 1.30692(17) 0.53183(18)
H16 H 1.7033 1.2996 0.5509
C26 C 0.8859(3) 0.76680(18) 0.4653(2)
H17 H 0.8577 0.8102 0.4467
C27 C 0.4798(3) 0.18842(19) 0.13892(18)
H18 H 0.4235 0.2066 0.1287
C28 C 0.8021(3) 0.7070(2) 0.75291(19)
C29 C 1.4611(3) 1.32796(17) 0.47633(17)
H19 H 1.3994 1.3368 0.4566
C30 C 0.5554(3) 0.2282(2) 0.1760(2)
H20 H 0.5506 0.2733 0.1907
C31 C 0.9788(3) 0.76071(18) 0.49366(18)
C32 C 0.4858(3) 0.12127(17) 0.11628(15)
C33 C 0.7371(3) 0.38989(18) 0.35819(16)
C34 C 0.5696(3) 0.09528(19) 0.13147(17)
H21 H 0.5742 0.0504 0.1162
C35 C 1.5185(3) 1.38049(17) 0.47890(17)
H22 H 1.4942 1.4250 0.4607
C36 C 0.7502(3) 0.57006(18) 0.59735(16)
C37 C 1.4958(3) 1.26081(18) 0.50350(18)
C38 C 0.8230(3) 0.7293(2) 0.7086(2)
H23 H 0.8478 0.7749 0.7119
C39 C 0.7468(3) 0.5958(2) 0.69689(18)
H24 H 0.7210 0.5507 0.6933
C40 C 0.7685(2) 0.61748(17) 0.65268(15)
C41 C 1.0446(3) 0.81747(19) 0.87538(18)
H25 H 1.1010 0.8016 0.8838
C42 C 1.0120(3) 0.88952(17) 0.4690(2)
H26 H 0.9529 0.9064 0.4482
C43 C 0.4022(3) 0.07895(17) 0.07491(15)
C44 C 0.7427(3) 0.44315(18) 0.40677(17)
C45 C 0.9498(3) 0.90807(19) 0.87985(17)
H27 H 0.9426 0.9538 0.8924
C46 C 1.0348(2) 0.88624(17) 0.89370(15)
C47 C 0.8360(3) 0.70957(16) 0.46467(18)
H28 H 0.7737 0.7147 0.4447
C48 C 1.1156(3) 0.93328(17) 0.92864(15)
C49 C 1.3442(3) 1.20999(19) 0.4851(2)
H29 H 1.3112 1.2523 0.4690
C50 C 1.2605(3) 0.99538(18) 0.50695(18)
H30 H 1.2124 1.0276 0.4886
C51 C 1.3069(3) 1.1481(2) 0.4930(2)
H31 H 1.2486 1.1451 0.4863
Zn1A Zn 0.20341(3) 0.06046(2) 0.01187(2)
Zn1A_2 Zn 1.20341(3) 1.06046(2) 1.01187(2)
Zn2_2 Zn 0.68812(3) 0.45479(2) 0.51184(2)
Zn2A Zn 0.31188(3) -0.04521(2) -0.01184(2)
Zn2A_2 Zn 1.31188(3) 0.95479(2) 0.98816(2)
O3A O 1.81227(18) 1.41174(12) 0.56603(12)
O4A O 1.58979(16) 1.52363(11) 0.45187(11)
O5_2 O 1.70555(19) 1.51364(12) 0.58826(11)
O8_2 O 1.7041(2) 1.42624(13) 0.43603(12)
O9A O 0.89422(17) 0.49095(11) 0.54838(11)
O10A O 0.67137(18) 0.60216(12) 0.43196(11)
loop_
_geom_bond_atom_site_label_1
_geom_bond_atom_site_label_2
_geom_bond_site_symmetry_1
_geom_bond_site_symmetry_2
Zn1 N1 1_555 1_555
Zn2 N2 1_555 1_555
S1 C4 1_555 1_555
S2 C7 1_555 1_555
N1 C1 1_555 1_555
N2 C25 1_555 1_555
N3 C2 1_555 1_555
O1 C5 1_555 1_555
O2 C13 1_555 1_555
O3 C48 1_555 1_555
O4 C43 1_555 1_555
O5 C36 1_555 1_555
O6 Zn1 1_555 1_555
O7 Zn1 1_555 1_555
O8 C44 1_555 1_555
O9 C48 1_555 1_555
O10 C43 1_555 1_555
C1 H1 1_555 1_555
C2 H2 1_555 1_555
C3 H3 1_555 1_555
C4 C31 1_555 1_555
C5 C23 1_555 1_555
C6 S1 1_555 1_555
C7 C37 1_555 1_555
C8 C2 1_555 1_555
C9 H4 1_555 1_555
C10 N3 1_555 1_555
H5 C10 1_555 1_555
C11 C10 1_555 1_555
C12 H6 1_555 1_555
C13 C15 1_555 1_555
C14 S2 1_555 1_555
C15 H7 1_555 1_555
C16 H8 1_555 1_555
C17 H9 1_555 1_555
C18 C17 1_555 1_555
H10 C18 1_555 1_555
C19 O2 1_555 1_555
C20 C1 1_555 1_555
H11 C20 1_555 1_555
C21 C12 1_555 1_555
H12 C21 1_555 1_555
C22 H13 1_555 1_555
C23 H14 1_555 1_555
C24 C5 1_555 1_555
H15 C24 1_555 1_555
C25 C16 1_555 1_555
H16 C25 1_555 1_555
C26 H17 1_555 1_555
C27 H18 1_555 1_555
C28 O1 1_555 1_555
C29 H19 1_555 1_555
C30 C13 1_555 1_555
H20 C30 1_555 1_555
C31 C20 1_555 1_555
C32 C27 1_555 1_555
C33 C18 1_555 1_555
C34 C15 1_555 1_555
H21 C34 1_555 1_555
C35 N2 1_555 1_555
H22 C35 1_555 1_555
C36 O6 1_555 1_555
C37 C16 1_555 1_555
C38 C22 1_555 1_555
H23 C38 1_555 1_555
C39 C9 1_555 1_555
H24 C39 1_555 1_555
C40 C22 1_555 1_555
C41 C23 1_555 1_555
H25 C41 1_555 1_555
C42 C3 1_555 1_555
H26 C42 1_555 1_555
C43 C32 1_555 1_555
C44 O7 1_555 1_555
C45 C24 1_555 1_555
H27 C45 1_555 1_555
C46 C41 1_555 1_555
C47 N1 1_555 1_555
H28 C47 1_555 1_555
C48 C46 1_555 1_555
C49 C7 1_555 1_555
H29 C49 1_555 1_555
C50 C8 1_555 1_555
H30 C50 1_555 1_555
C51 C14 1_555 1_555
H31 C51 1_555 1_555
Zn1A O10 1_555 1_555
Zn1A_2 O9 1_555 1_555
Zn2_2 O5 1_555 1_555
Zn2A O4 1_555 1_555
Zn2A_2 O3 1_555 1_555
O3A Zn2 1_555 1_555
O4A Zn2 1_555 1_555
O5_2 Zn2 1_555 1_555
O8_2 Zn2 1_555 1_555
O9A Zn1 1_555 1_555
O10A Zn1 1_555 1_555
O8 Zn2_2 1_555 1_555
C3 C6 1_555 1_555
C4 C42 1_555 1_555
C6 C8 1_555 1_555
C9 C28 1_555 1_555
C11 C14 1_555 1_555
C11 C50 1_555 1_555
C12 C19 1_555 1_555
C17 C19 1_555 1_555
C21 C33 1_555 1_555
C26 C31 1_555 1_555
C26 C47 1_555 1_555
C27 C30 1_555 1_555
C28 C38 1_555 1_555
C29 C35 1_555 1_555
C29 C37 1_555 1_555
C32 C34 1_555 1_555
C33 C44 1_555 1_555
C36 C40 1_555 1_555
C39 C40 1_555 1_555
C45 C46 1_555 1_555
C49 C51 1_555 1_555

#END
