
#######################################################################
#
#                 Cambridge Crystallographic Data Centre
#                                CCDC 
#
#######################################################################
#
# If this CIF has been generated from an entry in the Cambridge 
# Structural Database, then it will include bibliographic, chemical, 
# crystal, experimental, refinement or atomic coordinate data resulting 
# from the CCDC's data processing and validation procedures.
#
#######################################################################

data_ROJCIE
_chemical_formula_moiety         '(C20 H20 Ag2 Fe1 N8)n'
_symmetry_cell_setting           monoclinic
_symmetry_space_group_name_H-M   'C 2/c'
_symmetry_Int_Tables_number      15
_space_group_name_Hall           '-C 2yc'
loop_
_symmetry_equiv_pos_site_id
_symmetry_equiv_pos_as_xyz
1 x,y,z
2 -x,y,1/2-z
3 1/2+x,1/2+y,z
4 1/2-x,1/2+y,1/2-z
5 -x,-y,-z
6 x,-y,1/2+z
7 1/2-x,1/2-y,-z
8 1/2+x,1/2-y,1/2+z
_cell_length_a                   16.2400(7)
_cell_length_b                   13.6625(5)
_cell_length_c                   14.8867(7)
_cell_angle_alpha                90
_cell_angle_beta                 111.728(5)
_cell_angle_gamma                90
_cell_volume                     3068.37
loop_
_atom_site_label
_atom_site_type_symbol
_atom_site_fract_x
_atom_site_fract_y
_atom_site_fract_z
Ag1 Ag 0.77183(3) 0.53318(4) 0.28586(3)
Fe1 Fe 0.7500 0.2500 0.5000
N1 N 0.7597(3) 0.3642(3) 0.4282(3)
N2 N 0.7725(3) 0.6718(3) 0.1144(3)
N3 N 0.6198(3) 0.2746(3) 0.4624(3)
N4 N 0.3058(3) 0.2840(5) 0.4523(5)
C1 C 0.7658(4) 0.4280(5) 0.3820(4)
C2 C 0.7793(4) 0.6242(5) 0.1805(4)
C3 C 0.5855(7) 0.2661(9) 0.5302(8)
H1 H 0.6229 0.2487 0.5941
C4 C 0.4962(8) 0.2820(10) 0.5097(9)
H2 H 0.4731 0.2746 0.5593
C5 C 0.5677(7) 0.2870(9) 0.3700(9)
H3 H 0.5928 0.2848 0.3216
C6 C 0.4771(7) 0.3032(10) 0.3433(8)
H4 H 0.4410 0.3100 0.2768
C7 C 0.4380(4) 0.3097(5) 0.4138(4)
C8 C 0.3411(4) 0.3311(6) 0.3885(5)
H5 H 0.3328 0.4027 0.3909
H6 H 0.3077 0.3090 0.3215
C9 C 0.2970(7) 0.1851(9) 0.4609(9)
H7 H 0.3544 0.1534 0.4705
H8 H 0.2528 0.1600 0.3996
C10 C 0.2313(8) 0.3440(10) 0.4573(10)
H9 H 0.1800 0.3376 0.3955
H10 H 0.2493 0.4137 0.4651
N3F N -0.1198(3) 0.2254(3) 0.5376(3)
N4F N 0.1942(3) 0.2160(5) 0.5477(5)
C3F C -0.0855(7) 0.2339(9) 0.4698(8)
H1F H -0.1229 0.2513 0.4059
C4F C 0.0038(8) 0.2180(10) 0.4903(9)
H2F H 0.0269 0.2254 0.4407
C5F C -0.0677(7) 0.2130(9) 0.6300(9)
H3F H -0.0928 0.2152 0.6784
C6F C 0.0229(7) 0.1968(10) 0.6567(8)
H4F H 0.0590 0.1900 0.7232
C7F C 0.0620(4) 0.1903(5) 0.5862(4)
C8F C 0.1589(4) 0.1689(6) 0.6115(5)
H5F H 0.1672 0.0973 0.6091
H6F H 0.1923 0.1910 0.6785
C9F C 0.2030(7) 0.3149(9) 0.5391(9)
H7F H 0.1456 0.3466 0.5295
H8F H 0.2472 0.3400 0.6004
C10F C 0.2687(8) 0.1560(10) 0.5427(10)
H9F H 0.3200 0.1624 0.6045
H10F H 0.2507 0.0863 0.5349
Ag1F Ag 0.72817(3) -0.03318(4) 0.71414(3)
N1F N 0.7403(3) 0.1358(3) 0.5718(3)
N2F N 0.7275(3) -0.1718(3) 0.8856(3)
C1F C 0.7342(4) 0.0720(5) 0.6180(4)
C2F C 0.7207(4) -0.1242(5) 0.8195(4)
Fe1_2 Fe -0.2500 0.2500 0.5000
Fe1C Fe 0.7500 -0.2500 1.0000
Fe1C_2 Fe 0.7500 0.7500 0.0000
N2C N 0.7275(3) 0.1718(3) 0.3856(3)
N2E N 0.7725(3) 0.3282(3) 0.6144(3)
N3F_2 N 0.8802(3) 0.2254(3) 0.5376(3)
loop_
_geom_bond_atom_site_label_1
_geom_bond_atom_site_label_2
_geom_bond_site_symmetry_1
_geom_bond_site_symmetry_2
Ag1 C1 1_555 1_555
Fe1 N1 1_555 1_555
N1 C1 1_555 1_555
N2 C2 1_555 1_555
N3 Fe1 1_555 1_555
N4 C8 1_555 1_555
C2 Ag1 1_555 1_555
C3 N3 1_555 1_555
H1 C3 1_555 1_555
C4 C3 1_555 1_555
H2 C4 1_555 1_555
C5 N3 1_555 1_555
H3 C5 1_555 1_555
C6 C5 1_555 1_555
H4 C6 1_555 1_555
C7 C4 1_555 1_555
C8 C7 1_555 1_555
H5 C8 1_555 1_555
H6 C8 1_555 1_555
C9 N4 1_555 1_555
H7 C9 1_555 1_555
H8 C9 1_555 1_555
C10 N4 1_555 1_555
H9 C10 1_555 1_555
H10 C10 1_555 1_555
N3F C3F 1_555 1_555
N4F C8F 1_555 1_555
C3F H1F 1_555 1_555
C4F C3F 1_555 1_555
H2F C4F 1_555 1_555
C5F N3F 1_555 1_555
H3F C5F 1_555 1_555
C6F C5F 1_555 1_555
H4F C6F 1_555 1_555
C7F C4F 1_555 1_555
C8F C7F 1_555 1_555
H5F C8F 1_555 1_555
H6F C8F 1_555 1_555
C9F C10 1_555 1_555
H7F C9F 1_555 1_555
H8F C9F 1_555 1_555
C10F C9 1_555 1_555
H9F C10F 1_555 1_555
H10F C10F 1_555 1_555
Ag1F C1F 1_555 1_555
N1F Fe1 1_555 1_555
N2F C2F 1_555 1_555
C1F N1F 1_555 1_555
C2F Ag1F 1_555 1_555
Fe1_2 N3F 1_555 1_555
Fe1C N2F 1_555 1_555
Fe1C_2 N2 1_555 1_555
N2C Fe1 1_555 1_555
N2E Fe1 1_555 1_555
N3F_2 Fe1 1_555 1_555
C6 C7 1_555 1_555
N4F C9F 1_555 1_555
N4F C10F 1_555 1_555
C6F C7F 1_555 1_555

#END
