
#######################################################################
#
#                 Cambridge Crystallographic Data Centre
#                                CCDC 
#
#######################################################################
#
# If this CIF has been generated from an entry in the Cambridge 
# Structural Database, then it will include bibliographic, chemical, 
# crystal, experimental, refinement or atomic coordinate data resulting 
# from the CCDC's data processing and validation procedures.
#
#######################################################################

data_ROJCIE01
_chemical_formula_moiety         '(C20 H20 Ag2 Fe1 N8)n'
_symmetry_cell_setting           monoclinic
_symmetry_space_group_name_H-M   'C 2/c'
_symmetry_Int_Tables_number      15
_space_group_name_Hall           '-C 2yc'
loop_
_symmetry_equiv_pos_site_id
_symmetry_equiv_pos_as_xyz
1 x,y,z
2 -x,y,1/2-z
3 1/2+x,1/2+y,z
4 1/2-x,1/2+y,1/2-z
5 -x,-y,-z
6 x,-y,1/2+z
7 1/2-x,1/2-y,-z
8 1/2+x,1/2-y,1/2+z
_cell_length_a                   16.3171(9)
_cell_length_b                   13.8577(5)
_cell_length_c                   14.8466(9)
_cell_angle_alpha                90
_cell_angle_beta                 111.744(6)
_cell_angle_gamma                90
_cell_volume                     3118.21
loop_
_atom_site_label
_atom_site_type_symbol
_atom_site_fract_x
_atom_site_fract_y
_atom_site_fract_z
Ag1 Ag 0.76993(4) 0.52997(4) 0.28356(4)
Fe1 Fe 0.7500 0.2500 0.5000
N1 N 0.7589(4) 0.3627(4) 0.4260(4)
N2 N 0.7706(4) 0.6708(4) 0.1140(4)
N3 N 0.6187(3) 0.2731(4) 0.4604(3)
N4 N 0.3054(4) 0.2827(6) 0.4522(6)
C1 C 0.7651(5) 0.4246(5) 0.3799(5)
C2 C 0.7751(5) 0.6218(5) 0.1775(5)
C3 C 0.5832(9) 0.2637(11) 0.5273(9)
H1 H 0.6199 0.2451 0.5903
C4 C 0.4975(10) 0.2795(13) 0.5091(10)
H2 H 0.4760 0.2736 0.5594
C5 C 0.5660(9) 0.2816(10) 0.3696(10)
H3 H 0.5897 0.2772 0.3209
C6 C 0.4763(9) 0.2969(12) 0.3437(10)
H4 H 0.4407 0.3013 0.2776
C7 C 0.4372(5) 0.3058(6) 0.4116(5)
C8 C 0.3409(5) 0.3253(8) 0.3874(6)
H5 H 0.3320 0.3953 0.3868
H6 H 0.3079 0.3013 0.3218
C9 C 0.2977(8) 0.1851(10) 0.4621(11)
H7 H 0.3553 0.1548 0.4752
H8 H 0.2564 0.1589 0.4008
C10 C 0.2335(9) 0.3408(12) 0.4589(13)
H9 H 0.1833 0.3362 0.3971
H10 H 0.2524 0.4084 0.4675
N3F N -0.1187(3) 0.2269(4) 0.5396(3)
N4F N 0.1946(4) 0.2173(6) 0.5478(6)
C3F C -0.0832(9) 0.2363(11) 0.4727(9)
H1F H -0.1199 0.2549 0.4097
C4F C 0.0025(10) 0.2205(13) 0.4909(10)
H2F H 0.0240 0.2264 0.4406
C5F C -0.0660(9) 0.2184(10) 0.6304(10)
H3F H -0.0897 0.2228 0.6791
C6F C 0.0237(9) 0.2031(12) 0.6563(10)
H4F H 0.0593 0.1987 0.7224
C7F C 0.0628(5) 0.1942(6) 0.5884(5)
C8F C 0.1591(5) 0.1747(8) 0.6126(6)
H5F H 0.1680 0.1047 0.6132
H6F H 0.1921 0.1987 0.6782
C9F C 0.2023(8) 0.3149(10) 0.5379(11)
H7F H 0.1447 0.3452 0.5248
H8F H 0.2436 0.3411 0.5992
C10F C 0.2665(9) 0.1592(12) 0.5411(13)
H9F H 0.3167 0.1638 0.6029
H10F H 0.2476 0.0916 0.5325
Ag1F Ag 0.73007(4) -0.02997(4) 0.71644(4)
N1F N 0.7411(4) 0.1373(4) 0.5740(4)
N2F N 0.7294(4) -0.1708(4) 0.8860(4)
C1F C 0.7349(5) 0.0754(5) 0.6201(5)
C2F C 0.7249(5) -0.1218(5) 0.8225(5)
Fe1_2 Fe -0.2500 0.2500 0.5000
Fe1C Fe 0.7500 -0.2500 1.0000
Fe1C_2 Fe 0.7500 0.7500 0.0000
N2C N 0.7294(4) 0.1708(4) 0.3860(4)
N2E N 0.7706(4) 0.3292(4) 0.6140(4)
N3F_2 N 0.8813(3) 0.2269(4) 0.5396(3)
loop_
_geom_bond_atom_site_label_1
_geom_bond_atom_site_label_2
_geom_bond_site_symmetry_1
_geom_bond_site_symmetry_2
Ag1 C1 1_555 1_555
Fe1 N1 1_555 1_555
N1 C1 1_555 1_555
N2 C2 1_555 1_555
N3 Fe1 1_555 1_555
N4 C8 1_555 1_555
C2 Ag1 1_555 1_555
C3 N3 1_555 1_555
H1 C3 1_555 1_555
C4 C3 1_555 1_555
H2 C4 1_555 1_555
C5 N3 1_555 1_555
H3 C5 1_555 1_555
C6 C5 1_555 1_555
H4 C6 1_555 1_555
C7 C4 1_555 1_555
C8 C7 1_555 1_555
H5 C8 1_555 1_555
H6 C8 1_555 1_555
C9 N4 1_555 1_555
H7 C9 1_555 1_555
H8 C9 1_555 1_555
C10 N4 1_555 1_555
H9 C10 1_555 1_555
H10 C10 1_555 1_555
N3F C3F 1_555 1_555
N4F C8F 1_555 1_555
C3F H1F 1_555 1_555
C4F C3F 1_555 1_555
H2F C4F 1_555 1_555
C5F N3F 1_555 1_555
H3F C5F 1_555 1_555
C6F C5F 1_555 1_555
H4F C6F 1_555 1_555
C7F C4F 1_555 1_555
C8F C7F 1_555 1_555
H5F C8F 1_555 1_555
H6F C8F 1_555 1_555
C9F C10 1_555 1_555
H7F C9F 1_555 1_555
H8F C9F 1_555 1_555
C10F C9 1_555 1_555
H9F C10F 1_555 1_555
H10F C10F 1_555 1_555
Ag1F C1F 1_555 1_555
N1F Fe1 1_555 1_555
N2F C2F 1_555 1_555
C1F N1F 1_555 1_555
C2F Ag1F 1_555 1_555
Fe1_2 N3F 1_555 1_555
Fe1C N2F 1_555 1_555
Fe1C_2 N2 1_555 1_555
N2C Fe1 1_555 1_555
N2E Fe1 1_555 1_555
N3F_2 Fe1 1_555 1_555
C6 C7 1_555 1_555
N4F C9F 1_555 1_555
N4F C10F 1_555 1_555
C6F C7F 1_555 1_555

#END
