
#######################################################################
#
#                 Cambridge Crystallographic Data Centre
#                                CCDC 
#
#######################################################################
#
# If this CIF has been generated from an entry in the Cambridge 
# Structural Database, then it will include bibliographic, chemical, 
# crystal, experimental, refinement or atomic coordinate data resulting 
# from the CCDC's data processing and validation procedures.
#
#######################################################################

data_ROJCIE02
_chemical_formula_moiety         '(C20 H20 Ag2 Fe1 N8)n'
_symmetry_cell_setting           monoclinic
_symmetry_space_group_name_H-M   'C 2/c'
_symmetry_Int_Tables_number      15
_space_group_name_Hall           '-C 2yc'
loop_
_symmetry_equiv_pos_site_id
_symmetry_equiv_pos_as_xyz
1 x,y,z
2 -x,y,1/2-z
3 1/2+x,1/2+y,z
4 1/2-x,1/2+y,1/2-z
5 -x,-y,-z
6 x,-y,1/2+z
7 1/2-x,1/2-y,-z
8 1/2+x,1/2-y,1/2+z
_cell_length_a                   16.622(2)
_cell_length_b                   13.9014(10)
_cell_length_c                   15.434(3)
_cell_angle_alpha                90
_cell_angle_beta                 112.586(17)
_cell_angle_gamma                90
_cell_volume                     3292.8
loop_
_atom_site_label
_atom_site_type_symbol
_atom_site_fract_x
_atom_site_fract_y
_atom_site_fract_z
Ag1 Ag 0.77045(6) 0.53595(7) 0.28739(6)
Fe1 Fe 0.7500 0.2500 0.5000
N1 N 0.7597(5) 0.3760(5) 0.4278(6)
N2 N 0.7769(5) 0.6711(6) 0.1262(6)
N3 N 0.6101(5) 0.2771(5) 0.4608(5)
N4 N 0.3034(6) 0.2847(8) 0.4542(7)
C1 C 0.7646(7) 0.4345(8) 0.3811(7)
C2 C 0.7778(7) 0.6259(8) 0.1847(8)
C3 C 0.5789(12) 0.2662(16) 0.5248(13)
H1 H 0.6157 0.2463 0.5844
C4 C 0.4923(14) 0.283(2) 0.5069(14)
H2 H 0.4727 0.2771 0.5555
C5 C 0.5550(12) 0.2835(15) 0.3715(12)
H3 H 0.5759 0.2756 0.3240
C6 C 0.4680(11) 0.3017(17) 0.3484(13)
H4 H 0.4319 0.3084 0.2855
C7 C 0.4319(6) 0.3106(9) 0.4161(7)
C8 C 0.3380(7) 0.3337(10) 0.3945(8)
H5 H 0.3322 0.4025 0.4008
H6 H 0.3038 0.3166 0.3298
C9 C 0.2952(13) 0.1847(12) 0.4635(17)
H7 H 0.3509 0.1544 0.4743
H8 H 0.2531 0.1596 0.4050
C10 C 0.2320(16) 0.341(2) 0.461(2)
H9 H 0.2494 0.4086 0.4681
H10 H 0.1821 0.3356 0.4018
N3F N -0.1101(5) 0.2229(5) 0.5392(5)
N4F N 0.1966(6) 0.2153(8) 0.5458(7)
C3F C -0.0789(12) 0.2338(16) 0.4752(13)
H1F H -0.1157 0.2537 0.4156
C4F C 0.0077(14) 0.217(2) 0.4931(14)
H2F H 0.0273 0.2229 0.4445
C5F C -0.0550(12) 0.2165(15) 0.6285(12)
H3F H -0.0759 0.2244 0.6760
C6F C 0.0320(11) 0.1983(17) 0.6516(13)
H4F H 0.0681 0.1916 0.7145
C7F C 0.0681(6) 0.1894(9) 0.5839(7)
C8F C 0.1620(7) 0.1663(10) 0.6055(8)
H5F H 0.1678 0.0975 0.5992
H6F H 0.1962 0.1834 0.6702
C9F C 0.2048(13) 0.3153(12) 0.5365(17)
H7F H 0.1491 0.3456 0.5257
H8F H 0.2469 0.3404 0.5950
C10F C 0.2680(16) 0.159(2) 0.539(2)
H9F H 0.2506 0.0914 0.5319
H10F H 0.3179 0.1644 0.5982
Ag1F Ag 0.72955(6) -0.03595(7) 0.71261(6)
N1F N 0.7403(5) 0.1240(5) 0.5722(6)
N2F N 0.7231(5) -0.1711(6) 0.8738(6)
C1F C 0.7354(7) 0.0655(8) 0.6189(7)
C2F C 0.7222(7) -0.1259(8) 0.8153(8)
Fe1_2 Fe -0.2500 0.2500 0.5000
Fe1C Fe 0.7500 -0.2500 1.0000
Fe1C_2 Fe 0.7500 0.7500 0.0000
N2C N 0.7231(5) 0.1711(6) 0.3738(6)
N2E N 0.7769(5) 0.3289(6) 0.6262(6)
N3F_2 N 0.8899(5) 0.2229(5) 0.5392(5)
loop_
_geom_bond_atom_site_label_1
_geom_bond_atom_site_label_2
_geom_bond_site_symmetry_1
_geom_bond_site_symmetry_2
Ag1 C1 1_555 1_555
Fe1 N1 1_555 1_555
N1 C1 1_555 1_555
N2 C2 1_555 1_555
N3 Fe1 1_555 1_555
N4 C8 1_555 1_555
C2 Ag1 1_555 1_555
C3 N3 1_555 1_555
H1 C3 1_555 1_555
C4 C3 1_555 1_555
H2 C4 1_555 1_555
C5 N3 1_555 1_555
H3 C5 1_555 1_555
C6 C5 1_555 1_555
H4 C6 1_555 1_555
C7 C4 1_555 1_555
C8 C7 1_555 1_555
H5 C8 1_555 1_555
H6 C8 1_555 1_555
C9 N4 1_555 1_555
H7 C9 1_555 1_555
H8 C9 1_555 1_555
C10 N4 1_555 1_555
H9 C10 1_555 1_555
H10 C10 1_555 1_555
N3F C3F 1_555 1_555
N4F C8F 1_555 1_555
C3F H1F 1_555 1_555
C4F C3F 1_555 1_555
H2F C4F 1_555 1_555
C5F N3F 1_555 1_555
H3F C5F 1_555 1_555
C6F C5F 1_555 1_555
H4F C6F 1_555 1_555
C7F C4F 1_555 1_555
C8F C7F 1_555 1_555
H5F C8F 1_555 1_555
H6F C8F 1_555 1_555
C9F C10 1_555 1_555
H7F C9F 1_555 1_555
H8F C9F 1_555 1_555
C10F C9 1_555 1_555
H9F C10F 1_555 1_555
H10F C10F 1_555 1_555
Ag1F C1F 1_555 1_555
N1F Fe1 1_555 1_555
N2F C2F 1_555 1_555
C1F N1F 1_555 1_555
C2F Ag1F 1_555 1_555
Fe1_2 N3F 1_555 1_555
Fe1C N2F 1_555 1_555
Fe1C_2 N2 1_555 1_555
N2C Fe1 1_555 1_555
N2E Fe1 1_555 1_555
N3F_2 Fe1 1_555 1_555
C6 C7 1_555 1_555
N4F C9F 1_555 1_555
N4F C10F 1_555 1_555
C6F C7F 1_555 1_555

#END
