
#######################################################################
#
#                 Cambridge Crystallographic Data Centre
#                                CCDC 
#
#######################################################################
#
# If this CIF has been generated from an entry in the Cambridge 
# Structural Database, then it will include bibliographic, chemical, 
# crystal, experimental, refinement or atomic coordinate data resulting 
# from the CCDC's data processing and validation procedures.
#
#######################################################################

data_ROJDAX01
_chemical_formula_moiety         '(C20 H20 Au2 Fe1 N8)n'
_symmetry_cell_setting           monoclinic
_symmetry_space_group_name_H-M   'C 2/c'
_symmetry_Int_Tables_number      15
_space_group_name_Hall           '-C 2yc'
loop_
_symmetry_equiv_pos_site_id
_symmetry_equiv_pos_as_xyz
1 x,y,z
2 -x,y,1/2-z
3 1/2+x,1/2+y,z
4 1/2-x,1/2+y,1/2-z
5 -x,-y,-z
6 x,-y,1/2+z
7 1/2-x,1/2-y,-z
8 1/2+x,1/2-y,1/2+z
_cell_length_a                   16.7493(16)
_cell_length_b                   14.8047(14)
_cell_length_c                   14.5137(12)
_cell_angle_alpha                90
_cell_angle_beta                 113.493(3)
_cell_angle_gamma                90
_cell_volume                     3300.62
loop_
_atom_site_label
_atom_site_type_symbol
_atom_site_fract_x
_atom_site_fract_y
_atom_site_fract_z
Au1 Au 0.73193(4) 0.47635(4) 0.71878(4)
Fe1 Fe 0.7500 0.7500 0.5000
N1 N 0.7465(7) 0.6336(7) 0.5823(7)
N2 N 0.7249(7) 0.3310(7) 0.8708(8)
N3 N 0.6109(7) 0.7690(7) 0.4577(7)
N4 N 0.3068(7) 0.7782(9) 0.4538(9)
C1 C 0.7419(9) 0.5736(9) 0.6323(10)
C2 C 0.7254(10) 0.3823(9) 0.8131(10)
C3 C 0.5821(17) 0.7502(19) 0.5279(18)
H1 H 0.6202 0.7293 0.5905
C4 C 0.4914(15) 0.762(2) 0.5071(19)
H2 H 0.4699 0.7459 0.5547
C5 C 0.5575(16) 0.7757(16) 0.3643(16)
H3 H 0.5782 0.7706 0.3139
C6 C 0.4684(15) 0.7904(17) 0.3390(17)
H4 H 0.4314 0.7935 0.2713
C7 C 0.4327(8) 0.8007(11) 0.4103(9)
C8 C 0.3394(9) 0.8199(11) 0.3857(10)
H5 H 0.3315 0.8847 0.3866
H6 H 0.3052 0.7988 0.3181
C9 C 0.206(2) 0.774(3) 0.398(3)
H7 H 0.1903 0.7549 0.3286
H8 H 0.1810 0.8333 0.3966
C10 C 0.3332(18) 0.7945(19) 0.549(2)
H9 H 0.3164 0.8554 0.5581
H10 H 0.3963 0.7911 0.5794
N3F N -0.1109(7) 0.7310(7) 0.5423(7)
N4F N 0.1932(7) 0.7218(9) 0.5462(9)
C3F C -0.0821(17) 0.7498(19) 0.4721(18)
H1F H -0.1202 0.7707 0.4095
C4F C 0.0086(15) 0.738(2) 0.4929(19)
H2F H 0.0301 0.7541 0.4453
C5F C -0.0575(16) 0.7243(16) 0.6357(16)
H3F H -0.0782 0.7294 0.6861
C6F C 0.0316(15) 0.7096(17) 0.6610(17)
H4F H 0.0686 0.7065 0.7287
C7F C 0.0673(8) 0.6993(11) 0.5897(9)
C8F C 0.1606(9) 0.6801(11) 0.6143(10)
H5F H 0.1685 0.6153 0.6134
H6F H 0.1948 0.7012 0.6819
C9F C 0.294(2) 0.726(3) 0.602(3)
H7F H 0.3097 0.7451 0.6714
H8F H 0.3190 0.6667 0.6034
C10F C 0.1668(18) 0.7055(19) 0.451(2)
H9F H 0.1836 0.6446 0.4419
H10F H 0.1037 0.7089 0.4206
Au1F Au 0.76807(4) 1.02365(4) 0.28122(4)
N1F N 0.7535(7) 0.8664(7) 0.4177(7)
N2F N 0.7751(7) 1.1690(7) 0.1292(8)
C1F C 0.7581(9) 0.9264(9) 0.3677(10)
C2F C 0.7746(10) 1.1177(9) 0.1869(10)
Fe1_2 Fe -0.2500 0.7500 0.5000
Fe1C Fe 0.7500 0.2500 1.0000
Fe1C_2 Fe 0.7500 1.2500 0.0000
N2C N 0.7751(7) 0.8310(7) 0.6292(8)
N2E N 0.7249(7) 0.6690(7) 0.3708(8)
N3F_2 N 0.8891(7) 0.7310(7) 0.5423(7)
loop_
_geom_bond_atom_site_label_1
_geom_bond_atom_site_label_2
_geom_bond_site_symmetry_1
_geom_bond_site_symmetry_2
Au1 C1 1_555 1_555
Fe1 N1 1_555 1_555
N1 C1 1_555 1_555
N2 C2 1_555 1_555
N3 Fe1 1_555 1_555
N4 C8 1_555 1_555
C2 Au1 1_555 1_555
C3 N3 1_555 1_555
H1 C3 1_555 1_555
C4 C3 1_555 1_555
H2 C4 1_555 1_555
C5 N3 1_555 1_555
H3 C5 1_555 1_555
C6 C5 1_555 1_555
H4 C6 1_555 1_555
C7 C4 1_555 1_555
C8 C7 1_555 1_555
H5 C8 1_555 1_555
H6 C8 1_555 1_555
C9 N4 1_555 1_555
H7 C9 1_555 1_555
H8 C9 1_555 1_555
C10 N4 1_555 1_555
H9 C10 1_555 1_555
H10 C10 1_555 1_555
N3F C3F 1_555 1_555
N4F C8F 1_555 1_555
C3F H1F 1_555 1_555
C4F C3F 1_555 1_555
H2F C4F 1_555 1_555
C5F N3F 1_555 1_555
H3F C5F 1_555 1_555
C6F C5F 1_555 1_555
H4F C6F 1_555 1_555
C7F C4F 1_555 1_555
C8F C7F 1_555 1_555
H5F C8F 1_555 1_555
H6F C8F 1_555 1_555
C9F C10 1_555 1_555
H7F C9F 1_555 1_555
H8F C9F 1_555 1_555
C10F C9 1_555 1_555
H9F C10F 1_555 1_555
H10F C10F 1_555 1_555
Au1F C1F 1_555 1_555
N1F Fe1 1_555 1_555
N2F C2F 1_555 1_555
C1F N1F 1_555 1_555
C2F Au1F 1_555 1_555
Fe1_2 N3F 1_555 1_555
Fe1C N2 1_555 1_555
Fe1C_2 N2F 1_555 1_555
N2C Fe1 1_555 1_555
N2E Fe1 1_555 1_555
N3F_2 Fe1 1_555 1_555
C6 C7 1_555 1_555
N4F C9F 1_555 1_555
N4F C10F 1_555 1_555
C6F C7F 1_555 1_555

#END
