
#######################################################################
#
#                 Cambridge Crystallographic Data Centre
#                                CCDC 
#
#######################################################################
#
# If this CIF has been generated from an entry in the Cambridge 
# Structural Database, then it will include bibliographic, chemical, 
# crystal, experimental, refinement or atomic coordinate data resulting 
# from the CCDC's data processing and validation procedures.
#
#######################################################################

data_ROJDAX
_chemical_formula_moiety         '(C20 H20 Au2 Fe1 N8)n'
_symmetry_cell_setting           monoclinic
_symmetry_space_group_name_H-M   'C 2/c'
_symmetry_Int_Tables_number      15
_space_group_name_Hall           '-C 2yc'
loop_
_symmetry_equiv_pos_site_id
_symmetry_equiv_pos_as_xyz
1 x,y,z
2 -x,y,1/2-z
3 1/2+x,1/2+y,z
4 1/2-x,1/2+y,1/2-z
5 -x,-y,-z
6 x,-y,1/2+z
7 1/2-x,1/2-y,-z
8 1/2+x,1/2-y,1/2+z
_cell_length_a                   16.4515(8)
_cell_length_b                   14.2025(7)
_cell_length_c                   14.2637(7)
_cell_angle_alpha                90
_cell_angle_beta                 112.0840(10)
_cell_angle_gamma                90
_cell_volume                     3088.24
loop_
_atom_site_label
_atom_site_type_symbol
_atom_site_fract_x
_atom_site_fract_y
_atom_site_fract_z
Au1 Au 0.73146(2) 0.48067(2) 0.723633(19)
Fe1 Fe 0.7500 0.7500 0.5000
N1 N 0.7456(4) 0.6430(4) 0.5825(4)
N2 N 0.7315(4) 0.3332(4) 0.8868(4)
N3 N 0.6201(4) 0.7659(4) 0.4588(4)
N4 N 0.3081(5) 0.7742(6) 0.4521(6)
C1 C 0.7407(5) 0.5800(5) 0.6315(5)
C2 C 0.7272(5) 0.3866(5) 0.8233(5)
C3 C 0.5597(9) 0.6994(9) 0.4361(10)
H1 H 0.5797 0.6364 0.4379
C4 C 0.4710(9) 0.7114(10) 0.4101(10)
H2 H 0.4335 0.6579 0.3938
C5 C 0.5830(10) 0.8590(8) 0.4490(10)
H3 H 0.6214 0.9114 0.4604
C6 C 0.4940(10) 0.8764(10) 0.4237(10)
H4 H 0.4707 0.9383 0.4173
C7 C 0.4385(5) 0.7922(6) 0.4075(5)
C8 C 0.3418(5) 0.8103(6) 0.3791(6)
H5 H 0.3311 0.8790 0.3719
H6 H 0.3091 0.7810 0.3126
C9 C 0.3040(10) 0.6856(11) 0.4760(11)
H7 H 0.3633 0.6580 0.4953
H8 H 0.2650 0.6521 0.4148
C10 C 0.2284(10) 0.8336(11) 0.4394(10)
H9 H 0.1812 0.8193 0.3735
H10 H 0.2435 0.9011 0.4398
N3F N -0.1201(4) 0.7341(4) 0.5412(4)
N4F N 0.1919(5) 0.7258(6) 0.5479(6)
C3F C -0.0597(9) 0.8006(9) 0.5639(10)
H1F H -0.0797 0.8636 0.5621
C4F C 0.0290(9) 0.7886(10) 0.5899(10)
H2F H 0.0665 0.8421 0.6062
C5F C -0.0830(10) 0.6410(8) 0.5510(10)
H3F H -0.1214 0.5886 0.5396
C6F C 0.0060(10) 0.6236(10) 0.5763(10)
H4F H 0.0293 0.5617 0.5827
C7F C 0.0615(5) 0.7078(6) 0.5925(5)
C8F C 0.1582(5) 0.6897(6) 0.6209(6)
H5F H 0.1689 0.6210 0.6281
H6F H 0.1909 0.7190 0.6874
C9F C 0.1960(10) 0.8144(11) 0.5240(11)
H7F H 0.1367 0.8420 0.5047
H8F H 0.2350 0.8479 0.5852
C10F C 0.2716(10) 0.6664(11) 0.5606(10)
H9F H 0.3188 0.6807 0.6265
H10F H 0.2565 0.5989 0.5602
Au1F Au 0.76854(2) 1.01933(2) 0.276367(19)
N1F N 0.7544(4) 0.8570(4) 0.4175(4)
N2F N 0.7685(4) 1.1668(4) 0.1132(4)
C1F C 0.7593(5) 0.9200(5) 0.3685(5)
C2F C 0.7728(5) 1.1134(5) 0.1767(5)
Fe1_2 Fe -0.2500 0.7500 0.5000
Fe1C Fe 0.7500 0.2500 1.0000
Fe1C_2 Fe 0.7500 1.2500 0.0000
N2C N 0.7685(4) 0.8332(4) 0.6132(4)
N2E N 0.7315(4) 0.6668(4) 0.3868(4)
N3F_2 N 0.8799(4) 0.7341(4) 0.5412(4)
loop_
_geom_bond_atom_site_label_1
_geom_bond_atom_site_label_2
_geom_bond_site_symmetry_1
_geom_bond_site_symmetry_2
Au1 C1 1_555 1_555
Fe1 N1 1_555 1_555
N1 C1 1_555 1_555
N2 C2 1_555 1_555
N3 Fe1 1_555 1_555
N4 C8 1_555 1_555
C2 Au1 1_555 1_555
C3 N3 1_555 1_555
H1 C3 1_555 1_555
C4 C3 1_555 1_555
H2 C4 1_555 1_555
C5 N3 1_555 1_555
H3 C5 1_555 1_555
C6 C5 1_555 1_555
H4 C6 1_555 1_555
C7 C4 1_555 1_555
C8 C7 1_555 1_555
H5 C8 1_555 1_555
H6 C8 1_555 1_555
C9 N4 1_555 1_555
H7 C9 1_555 1_555
H8 C9 1_555 1_555
C10 N4 1_555 1_555
H9 C10 1_555 1_555
H10 C10 1_555 1_555
N3F C3F 1_555 1_555
N4F C8F 1_555 1_555
C3F H1F 1_555 1_555
C4F C3F 1_555 1_555
H2F C4F 1_555 1_555
C5F N3F 1_555 1_555
H3F C5F 1_555 1_555
C6F C5F 1_555 1_555
H4F C6F 1_555 1_555
C7F C4F 1_555 1_555
C8F C7F 1_555 1_555
H5F C8F 1_555 1_555
H6F C8F 1_555 1_555
C9F C10 1_555 1_555
H7F C9F 1_555 1_555
H8F C9F 1_555 1_555
C10F C9 1_555 1_555
H9F C10F 1_555 1_555
H10F C10F 1_555 1_555
Au1F C1F 1_555 1_555
N1F Fe1 1_555 1_555
N2F C2F 1_555 1_555
C1F N1F 1_555 1_555
C2F Au1F 1_555 1_555
Fe1_2 N3F 1_555 1_555
Fe1C N2 1_555 1_555
Fe1C_2 N2F 1_555 1_555
N2C Fe1 1_555 1_555
N2E Fe1 1_555 1_555
N3F_2 Fe1 1_555 1_555
C6 C7 1_555 1_555
N4F C9F 1_555 1_555
N4F C10F 1_555 1_555
C6F C7F 1_555 1_555

#END
