
#######################################################################
#
#                 Cambridge Crystallographic Data Centre
#                                CCDC 
#
#######################################################################
#
# If this CIF has been generated from an entry in the Cambridge 
# Structural Database, then it will include bibliographic, chemical, 
# crystal, experimental, refinement or atomic coordinate data resulting 
# from the CCDC's data processing and validation procedures.
#
#######################################################################

data_IRAYOQ
_chemical_formula_moiety         '(C6 H36 N6 O44 P8 V7 2-)n'
_symmetry_cell_setting           monoclinic
_symmetry_space_group_name_H-M   'C 2/c'
_symmetry_Int_Tables_number      15
_space_group_name_Hall           '-C 2yc'
loop_
_symmetry_equiv_pos_site_id
_symmetry_equiv_pos_as_xyz
1 x,y,z
2 -x,y,1/2-z
3 1/2+x,1/2+y,z
4 1/2-x,1/2+y,1/2-z
5 -x,-y,-z
6 x,-y,1/2+z
7 1/2-x,1/2-y,-z
8 1/2+x,1/2-y,1/2+z
_cell_length_a                   20.695(2)
_cell_length_b                   9.9595(10)
_cell_length_c                   23.715(2)
_cell_angle_alpha                90
_cell_angle_beta                 101.0000(10)
_cell_angle_gamma                90
_cell_volume                     4798.14
loop_
_atom_site_label
_atom_site_type_symbol
_atom_site_fract_x
_atom_site_fract_y
_atom_site_fract_z
V1 V 0.43990(2) 0.57763(4) 0.564181(19)
V2 V 0.27876(2) 0.40827(4) 0.722340(18)
V3 V 0.32622(2) 0.90373(4) 0.672835(19)
V4 V 0.2500 0.7500 0.5000
P1 P 0.44188(3) 0.31474(7) 0.49544(3)
P2 P 0.39394(3) 0.87118(7) 0.56065(3)
P3 P 0.28552(3) 0.62312(7) 0.82518(3)
P4 P 0.31030(3) 0.61583(7) 0.62369(3)
O1 O 0.40511(9) 0.44540(19) 0.50299(8)
O2 O 0.40745(10) 0.25270(19) 0.43585(8)
O3 O 0.43284(11) 0.2147(2) 0.54137(9)
O4 O 0.51436(9) 0.34133(19) 0.49547(8)
O5 O 0.34485(11) 0.8131(3) 0.50956(9)
O6 O 0.43638(10) 0.76030(19) 0.59200(8)
O7 O 0.43961(12) 0.9664(2) 0.53367(10)
O8 O 0.35963(10) 0.95015(19) 0.60139(9)
O9 O 0.27590(10) 0.58231(18) 0.76128(8)
O10 O 0.35518(10) 0.58834(19) 0.85614(8)
O11 O 0.23541(10) 0.5504(2) 0.85511(8)
O12 O 0.27420(10) 0.77508(18) 0.82874(8)
O13 O 0.26888(9) 0.51281(19) 0.64969(8)
O14 O 0.34869(9) 0.70825(18) 0.67040(8)
O15 O 0.26134(10) 0.7029(2) 0.58276(9)
O16 O 0.35719(9) 0.53824(19) 0.59298(8)
O17 O 0.49618(10) 0.5053(2) 0.60841(9)
O18 O 0.35286(10) 0.3600(2) 0.73402(9)
O19 O 0.24201(10) 0.33338(19) 0.78664(8)
O20 O 0.38144(11) 0.9635(2) 0.72246(10)
O21 O 0.22280(12) 0.9342(3) 0.52463(11)
H1 H 0.1837 0.9466 0.5115
V1F V 0.06010(2) 0.92237(4) 0.435819(19)
V1D V 0.56010(2) 0.42237(4) 0.435819(19)
V2F V 0.22124(2) 1.09173(4) 0.277660(18)
V2C V 0.22124(2) 0.90827(4) 0.777660(18)
V2C_2 V 0.22124(2) -0.09173(4) 0.777660(18)
V3F V 0.17378(2) 0.59627(4) 0.327165(19)
V3C V 0.17378(2) 0.40373(4) 0.827165(19)
V3_2 V 0.32622(2) -0.09627(4) 0.672835(19)
P1D P 0.55812(3) 0.68526(7) 0.50456(3)
P2F P 0.10606(3) 0.62882(7) 0.43935(3)
P3C P 0.21448(3) 0.12312(7) 0.67482(3)
P4F P 0.18970(3) 0.88417(7) 0.37631(3)
O1D O 0.59489(9) 0.55460(19) 0.49701(8)
O1F O 0.09489(9) 1.05460(19) 0.49701(8)
O2D O 0.59255(10) 0.74730(19) 0.56415(8)
O3D O 0.56716(11) 0.7853(2) 0.45863(9)
O4D O 0.48564(9) 0.65867(19) 0.50453(8)
O4B O 0.01436(9) 0.84133(19) 0.49547(8)
O5F O 0.15515(11) 0.6869(3) 0.49044(9)
O6F O 0.06362(10) 0.73970(19) 0.40800(8)
O7F O 0.06039(12) 0.5336(2) 0.46633(10)
O8F O 0.14037(10) 0.54985(19) 0.39861(9)
O9C O 0.22410(10) 0.08231(18) 0.73872(8)
O9F O 0.22410(10) 0.91769(18) 0.23872(8)
O10C O 0.14482(10) 0.08834(19) 0.64386(8)
O11C O 0.26459(10) 0.0504(2) 0.64489(8)
O11C_2 O 0.26459(10) 1.0504(2) 0.64489(8)
O11E O 0.23541(10) 0.4496(2) 0.35511(8)
O12C O 0.22580(10) 0.27508(18) 0.67126(8)
O12E O 0.27420(10) 1.22492(18) 0.32874(8)
O13F O 0.23112(9) 0.98719(19) 0.35031(8)
O14F O 0.15131(9) 0.79175(18) 0.32960(8)
O15F O 0.23866(10) 0.7971(2) 0.41724(9)
O16F O 0.14281(9) 0.96176(19) 0.40702(8)
O17F O 0.00382(10) 0.9947(2) 0.39159(9)
O18F O 0.14714(10) 1.1400(2) 0.26598(9)
O19C O 0.25799(10) 0.83338(19) 0.71336(8)
O19F O 0.25799(10) 1.16662(19) 0.21336(8)
O19E O 0.24201(10) 0.66662(19) 0.28664(8)
O20F O 0.11856(11) 0.5365(2) 0.27754(10)
O21F O 0.27720(12) 0.5658(3) 0.47537(11)
H1F H 0.3163 0.5534 0.4885
O22 O 1.0000 0.1264(3) 0.2500
H2 H 0.9734 0.1148 0.2728
H2A H 1.0266 0.1148 0.2272
O23 O 0.04824(19) 0.3082(4) 0.33502(14)
H3 H 0.0190 0.2764 0.3083
H4 H 0.0403 0.3787 0.3528
N1 N -0.06648(12) 0.8894(3) 0.27123(11)
H5 H -0.0473 0.9678 0.2670
H6 H -0.0834 0.8912 0.3030
H7 H -0.0984 0.8746 0.2410
C1 C -0.01666(16) 0.7797(3) 0.27568(13)
H8 H 0.0138(17) 0.790(3) 0.3113(15)
H9 H -0.0379(16) 0.694(4) 0.2750(14)
N1A N 0.06648(12) 0.8894(3) 0.22877(11)
H5A H 0.0473 0.9678 0.2330
H6A H 0.0834 0.8912 0.1970
H7A H 0.0984 0.8746 0.2590
C1A C 0.01666(16) 0.7797(3) 0.22432(13)
H8A H -0.0138(17) 0.790(3) 0.1887(15)
H9A H 0.0379(16) 0.694(4) 0.2250(14)
N2 N 0.80671(14) 0.7615(3) 0.57329(11)
H10 H 0.8413 0.7498 0.5566
H11 H 0.8130 0.8341 0.5956
H12 H 0.8019 0.6899 0.5945
C2 C 0.74601(19) 0.7798(4) 0.52812(16)
H13 H 0.704(2) 0.735(4) 0.5378(17)
H14 H 0.733(2) 0.873(5) 0.525(2)
N2F N 0.69329(14) 0.7385(3) 0.42671(11)
H10F H 0.6587 0.7502 0.4434
H11F H 0.6870 0.6659 0.4044
H12F H 0.6981 0.8101 0.4055
C2F C 0.75399(19) 0.7202(4) 0.47188(16)
H13F H 0.796(2) 0.765(4) 0.4622(17)
H14F H 0.767(2) 0.627(5) 0.475(2)
N3 N 0.38112(14) 0.6736(3) 0.40332(12)
H15 H 0.4176 0.6699 0.4302
H16 H 0.3734 0.5934 0.3869
H17 H 0.3473 0.6971 0.4194
N4 N 0.36337(13) 0.9798(3) 0.41113(11)
H18 H 0.3249 0.9829 0.3868
H19 H 0.3772 1.0629 0.4204
H20 H 0.3585 0.9358 0.4427
C3 C 0.38962(17) 0.7739(3) 0.35935(14)
H21 H 0.3480 0.7851 0.3330
H22 H 0.4213 0.7397 0.3376
C4 C 0.41258(17) 0.9090(3) 0.38357(16)
H23 H 0.4528 0.8973 0.4117
H24 H 0.4228 0.9647 0.3529
loop_
_geom_bond_atom_site_label_1
_geom_bond_atom_site_label_2
_geom_bond_site_symmetry_1
_geom_bond_site_symmetry_2
V1 O1 1_555 1_555
V2 O9 1_555 1_555
V3 O8 1_555 1_555
V4 O5 1_555 1_555
P1 O1 1_555 1_555
P2 O5 1_555 1_555
P3 O9 1_555 1_555
P4 O13 1_555 1_555
O2 P1 1_555 1_555
O3 P1 1_555 1_555
O4 P1 1_555 1_555
O6 V1 1_555 1_555
O7 P2 1_555 1_555
O8 P2 1_555 1_555
O10 P3 1_555 1_555
O11 P3 1_555 1_555
O12 P3 1_555 1_555
O13 V2 1_555 1_555
O14 V3 1_555 1_555
O15 V4 1_555 1_555
O16 V1 1_555 1_555
O17 V1 1_555 1_555
O18 V2 1_555 1_555
O19 V2 1_555 1_555
O20 V3 1_555 1_555
O21 V4 1_555 1_555
H1 O21 1_555 1_555
O22 H2 1_555 1_555
O23 H3 1_555 1_555
H4 O23 1_555 1_555
N1 H5 1_555 1_555
H6 N1 1_555 1_555
H7 N1 1_555 1_555
C1 N1 1_555 1_555
H8 C1 1_555 1_555
H9 C1 1_555 1_555
N2 H10 1_555 1_555
H11 N2 1_555 1_555
H12 N2 1_555 1_555
C2 N2 1_555 1_555
H13 C2 1_555 1_555
H14 C2 1_555 1_555
N3 H15 1_555 1_555
H16 N3 1_555 1_555
H17 N3 1_555 1_555
N4 H18 1_555 1_555
H19 N4 1_555 1_555
H20 N4 1_555 1_555
C3 N3 1_555 1_555
H21 C3 1_555 1_555
H22 C3 1_555 1_555
C4 N4 1_555 1_555
H23 C4 1_555 1_555
H24 C4 1_555 1_555
V1F O1F 1_555 1_555
V1D O4 1_555 1_555
V2F O9F 1_555 1_555
V2C O12 1_555 1_555
V2C_2 O9C 1_555 1_555
V3F O8F 1_555 1_555
V3C O11 1_555 1_555
V3_2 O11C 1_555 1_555
P1D O1D 1_555 1_555
P2F O5F 1_555 1_555
P3C O9C 1_555 1_555
P4F O13F 1_555 1_555
O1D V1D 1_555 1_555
O2D P1D 1_555 1_555
O3D P1D 1_555 1_555
O4D V1 1_555 1_555
O4B V1F 1_555 1_555
O5F V4 1_555 1_555
O6F V1F 1_555 1_555
O7F P2F 1_555 1_555
O8F P2F 1_555 1_555
O10C P3C 1_555 1_555
O11C P3C 1_555 1_555
O11C_2 V3 1_555 1_555
O11E V3F 1_555 1_555
O12C V2 1_555 1_555
O12E V2F 1_555 1_555
O13F V2F 1_555 1_555
O14F V3F 1_555 1_555
O15F V4 1_555 1_555
O16F V1F 1_555 1_555
O17F V1F 1_555 1_555
O18F V2F 1_555 1_555
O19C V3 1_555 1_555
O19F V2F 1_555 1_555
O19E V3F 1_555 1_555
O20F V3F 1_555 1_555
O21F V4 1_555 1_555
H1F O21F 1_555 1_555
H2A O22 1_555 1_555
N1A H5A 1_555 1_555
H6A N1A 1_555 1_555
H7A N1A 1_555 1_555
C1A C1 1_555 1_555
H8A C1A 1_555 1_555
H9A C1A 1_555 1_555
N2F H10F 1_555 1_555
H11F N2F 1_555 1_555
H12F N2F 1_555 1_555
C2F C2 1_555 1_555
H13F C2F 1_555 1_555
H14F C2F 1_555 1_555
P2 O6 1_555 1_555
P4 O14 1_555 1_555
P4 O15 1_555 1_555
P4 O16 1_555 1_555
O19 V3C 1_555 1_555
C3 C4 1_555 1_555
V2C O19C 1_555 1_555
P1D O4D 1_555 1_555
P2F O6F 1_555 1_555
P3C O12C 1_555 1_555
P4F O14F 1_555 1_555
P4F O15F 1_555 1_555
P4F O16F 1_555 1_555
N1A C1A 1_555 1_555
N2F C2F 1_555 1_555

#END
