
#######################################################################
#
#                 Cambridge Crystallographic Data Centre
#                                CCDC 
#
#######################################################################
#
# If this CIF has been generated from an entry in the Cambridge 
# Structural Database, then it will include bibliographic, chemical, 
# crystal, experimental, refinement or atomic coordinate data resulting 
# from the CCDC's data processing and validation procedures.
#
#######################################################################

data_ZOFDUV
_chemical_formula_moiety         'C18 H6 Cu10 O23'
_symmetry_cell_setting           cubic
_symmetry_space_group_name_H-M   'F m -3 m'
_symmetry_Int_Tables_number      225
_space_group_name_Hall           '-F 4 2 3'
loop_
_symmetry_equiv_pos_site_id
_symmetry_equiv_pos_as_xyz
1 x,y,z
2 -x,-y,z
3 -x,y,-z
4 x,-y,-z
5 z,x,y
6 z,-x,-y
7 -z,-x,y
8 -z,x,-y
9 y,z,x
10 -y,z,-x
11 y,-z,-x
12 -y,-z,x
13 y,x,-z
14 -y,-x,-z
15 y,-x,z
16 -y,x,z
17 x,z,-y
18 -x,z,y
19 -x,-z,-y
20 x,-z,y
21 z,y,-x
22 z,-y,x
23 -z,y,x
24 -z,-y,-x
25 x,1/2+y,1/2+z
26 -x,1/2-y,1/2+z
27 -x,1/2+y,1/2-z
28 x,1/2-y,1/2-z
29 z,1/2+x,1/2+y
30 z,1/2-x,1/2-y
31 -z,1/2-x,1/2+y
32 -z,1/2+x,1/2-y
33 y,1/2+z,1/2+x
34 -y,1/2+z,1/2-x
35 y,1/2-z,1/2-x
36 -y,1/2-z,1/2+x
37 y,1/2+x,1/2-z
38 -y,1/2-x,1/2-z
39 y,1/2-x,1/2+z
40 -y,1/2+x,1/2+z
41 x,1/2+z,1/2-y
42 -x,1/2+z,1/2+y
43 -x,1/2-z,1/2-y
44 x,1/2-z,1/2+y
45 z,1/2+y,1/2-x
46 z,1/2-y,1/2+x
47 -z,1/2+y,1/2+x
48 -z,1/2-y,1/2-x
49 1/2+x,y,1/2+z
50 1/2-x,-y,1/2+z
51 1/2-x,y,1/2-z
52 1/2+x,-y,1/2-z
53 1/2+z,x,1/2+y
54 1/2+z,-x,1/2-y
55 1/2-z,-x,1/2+y
56 1/2-z,x,1/2-y
57 1/2+y,z,1/2+x
58 1/2-y,z,1/2-x
59 1/2+y,-z,1/2-x
60 1/2-y,-z,1/2+x
61 1/2+y,x,1/2-z
62 1/2-y,-x,1/2-z
63 1/2+y,-x,1/2+z
64 1/2-y,x,1/2+z
65 1/2+x,z,1/2-y
66 1/2-x,z,1/2+y
67 1/2-x,-z,1/2-y
68 1/2+x,-z,1/2+y
69 1/2+z,y,1/2-x
70 1/2+z,-y,1/2+x
71 1/2-z,y,1/2+x
72 1/2-z,-y,1/2-x
73 1/2+x,1/2+y,z
74 1/2-x,1/2-y,z
75 1/2-x,1/2+y,-z
76 1/2+x,1/2-y,-z
77 1/2+z,1/2+x,y
78 1/2+z,1/2-x,-y
79 1/2-z,1/2-x,y
80 1/2-z,1/2+x,-y
81 1/2+y,1/2+z,x
82 1/2-y,1/2+z,-x
83 1/2+y,1/2-z,-x
84 1/2-y,1/2-z,x
85 1/2+y,1/2+x,-z
86 1/2-y,1/2-x,-z
87 1/2+y,1/2-x,z
88 1/2-y,1/2+x,z
89 1/2+x,1/2+z,-y
90 1/2-x,1/2+z,y
91 1/2-x,1/2-z,-y
92 1/2+x,1/2-z,y
93 1/2+z,1/2+y,-x
94 1/2+z,1/2-y,x
95 1/2-z,1/2+y,x
96 1/2-z,1/2-y,-x
97 -x,-y,-z
98 x,y,-z
99 x,-y,z
100 -x,y,z
101 -z,-x,-y
102 -z,x,y
103 z,x,-y
104 z,-x,y
105 -y,-z,-x
106 y,-z,x
107 -y,z,x
108 y,z,-x
109 -y,-x,z
110 y,x,z
111 -y,x,-z
112 y,-x,-z
113 -x,-z,y
114 x,-z,-y
115 x,z,y
116 -x,z,-y
117 -z,-y,x
118 -z,y,-x
119 z,-y,-x
120 z,y,x
121 -x,1/2-y,1/2-z
122 x,1/2+y,1/2-z
123 x,1/2-y,1/2+z
124 -x,1/2+y,1/2+z
125 -z,1/2-x,1/2-y
126 -z,1/2+x,1/2+y
127 z,1/2+x,1/2-y
128 z,1/2-x,1/2+y
129 -y,1/2-z,1/2-x
130 y,1/2-z,1/2+x
131 -y,1/2+z,1/2+x
132 y,1/2+z,1/2-x
133 -y,1/2-x,1/2+z
134 y,1/2+x,1/2+z
135 -y,1/2+x,1/2-z
136 y,1/2-x,1/2-z
137 -x,1/2-z,1/2+y
138 x,1/2-z,1/2-y
139 x,1/2+z,1/2+y
140 -x,1/2+z,1/2-y
141 -z,1/2-y,1/2+x
142 -z,1/2+y,1/2-x
143 z,1/2-y,1/2-x
144 z,1/2+y,1/2+x
145 1/2-x,-y,1/2-z
146 1/2+x,y,1/2-z
147 1/2+x,-y,1/2+z
148 1/2-x,y,1/2+z
149 1/2-z,-x,1/2-y
150 1/2-z,x,1/2+y
151 1/2+z,x,1/2-y
152 1/2+z,-x,1/2+y
153 1/2-y,-z,1/2-x
154 1/2+y,-z,1/2+x
155 1/2-y,z,1/2+x
156 1/2+y,z,1/2-x
157 1/2-y,-x,1/2+z
158 1/2+y,x,1/2+z
159 1/2-y,x,1/2-z
160 1/2+y,-x,1/2-z
161 1/2-x,-z,1/2+y
162 1/2+x,-z,1/2-y
163 1/2+x,z,1/2+y
164 1/2-x,z,1/2-y
165 1/2-z,-y,1/2+x
166 1/2-z,y,1/2-x
167 1/2+z,-y,1/2-x
168 1/2+z,y,1/2+x
169 1/2-x,1/2-y,-z
170 1/2+x,1/2+y,-z
171 1/2+x,1/2-y,z
172 1/2-x,1/2+y,z
173 1/2-z,1/2-x,-y
174 1/2-z,1/2+x,y
175 1/2+z,1/2+x,-y
176 1/2+z,1/2-x,y
177 1/2-y,1/2-z,-x
178 1/2+y,1/2-z,x
179 1/2-y,1/2+z,x
180 1/2+y,1/2+z,-x
181 1/2-y,1/2-x,z
182 1/2+y,1/2+x,z
183 1/2-y,1/2+x,-z
184 1/2+y,1/2-x,-z
185 1/2-x,1/2-z,y
186 1/2+x,1/2-z,-y
187 1/2+x,1/2+z,y
188 1/2-x,1/2+z,-y
189 1/2-z,1/2-y,x
190 1/2-z,1/2+y,-x
191 1/2+z,1/2-y,-x
192 1/2+z,1/2+y,x
_cell_length_a                   26.31360(10)
_cell_length_b                   26.31360(10)
_cell_length_c                   26.31360(10)
_cell_angle_alpha                90
_cell_angle_beta                 90
_cell_angle_gamma                90
_cell_volume                     18219.7
loop_
_atom_site_label
_atom_site_type_symbol
_atom_site_fract_x
_atom_site_fract_y
_atom_site_fract_z
Cu1 Cu 0.0000 0.21448(2) 0.21448(2)
O1 O 0.05191(13) 0.18253(13) 0.25688(12)
O2 O 0.0000 0.15792(18) 0.15792(18)
C1 C 0.0680(3) 0.2030(2) 0.2970(2)
C2 C 0.1116(3) 0.1778(2) 0.3222(2)
C3 C 0.13415(18) 0.1995(3) 0.36585(18)
H1 H 0.1197 0.2292 0.3803
O1HA O 0.18253(13) 0.24312(12) 0.44809(13)
C1HA C 0.2030(2) 0.2030(2) 0.4320(3)
C2HA C 0.1778(2) 0.1778(2) 0.3884(3)
C3HA C 0.1995(3) 0.13415(18) 0.36585(18)
H1HA H 0.2292 0.1197 0.3803
O1CB O 0.24312(12) 0.05191(13) 0.31747(13)
C1CB C 0.2030(2) 0.0680(3) 0.2970(2)
C2CB C 0.1778(2) 0.1116(3) 0.3222(2)
C3CB C 0.13415(18) 0.13415(18) 0.3005(3)
H1CB H 0.1197 0.1197 0.2708
O1ED O 0.18253(13) 0.05191(13) 0.25688(12)
O1GE O 0.05191(13) 0.24312(12) 0.31747(13)
O1IF O 0.24312(12) 0.18253(13) 0.44809(13)
Cu1D Cu 0.21448(2) 0.0000 0.21448(2)
O1D O 0.25688(12) 0.05191(13) 0.18253(13)
O2D O 0.15792(18) 0.0000 0.15792(18)
C1D C 0.2970(2) 0.0680(3) 0.2030(2)
C2D C 0.3222(2) 0.1116(3) 0.1778(2)
C3D C 0.36585(18) 0.13415(18) 0.1995(3)
H1D H 0.3803 0.1197 0.2292
O1XA O 0.44809(13) 0.18253(13) 0.24312(12)
C1XA C 0.4320(3) 0.2030(2) 0.2030(2)
C2XA C 0.3884(3) 0.1778(2) 0.1778(2)
C3XA C 0.36585(18) 0.1995(3) 0.13415(18)
H1XA H 0.3803 0.2292 0.1197
O1EC O 0.31747(13) 0.24312(12) 0.05191(13)
C1EC C 0.2970(2) 0.2030(2) 0.0680(3)
C2EC C 0.3222(2) 0.1778(2) 0.1116(3)
C3EC C 0.3005(3) 0.13415(18) 0.13415(18)
H1EC H 0.2708 0.1197 0.1197
O1OD O 0.25688(12) 0.18253(13) 0.05191(13)
O1BF O 0.31747(13) 0.05191(13) 0.24312(12)
O1BG O 0.44809(13) 0.24312(12) 0.18253(13)
Cu1H Cu 0.21448(2) 0.21448(2) 0.0000
O2H O 0.15792(18) 0.15792(18) 0.0000
Cu1AA Cu 0.0000 0.28552(2) 0.28552(2)
Cu1HA Cu 0.21448(2) 0.28552(2) 0.5000
Cu1XA Cu 0.5000 0.21448(2) 0.28552(2)
Cu1CB Cu 0.28552(2) 0.0000 0.28552(2)
Cu1EB Cu 0.28552(2) 0.21448(2) 0.5000
Cu1UB Cu 0.5000 0.28552(2) 0.21448(2)
Cu1EC Cu 0.28552(2) 0.28552(2) 0.0000
O1H O 0.18253(13) 0.25688(12) 0.05191(13)
O1N O 0.18253(13) -0.05191(13) 0.25688(12)
O1Q O -0.05191(13) 0.25688(12) 0.18253(13)
O1T O 0.25688(12) 0.18253(13) -0.05191(13)
O1UC O -0.05191(13) 0.18253(13) 0.25688(12)
O1YC O 0.25688(12) -0.05191(13) 0.18253(13)
O1CD O 0.18253(13) 0.25688(12) -0.05191(13)
O1JD O 0.05191(13) 0.25688(12) 0.18253(13)
loop_
_geom_bond_atom_site_label_1
_geom_bond_atom_site_label_2
_geom_bond_site_symmetry_1
_geom_bond_site_symmetry_2
Cu1 O1 1_555 1_555
O1 C1 1_555 1_555
O2 Cu1 1_555 1_555
C1 C2 1_555 1_555
C2 C3 1_555 1_555
C3 H1 1_555 1_555
O1HA C1HA 1_555 1_555
C1HA C2HA 1_555 1_555
C2HA C3 1_555 1_555
C3HA C2HA 1_555 1_555
H1HA C3HA 1_555 1_555
O1CB C1CB 1_555 1_555
C1CB C2CB 1_555 1_555
C2CB C3HA 1_555 1_555
C3CB C2 1_555 1_555
H1CB C3CB 1_555 1_555
O1ED C1CB 1_555 1_555
O1GE C1 1_555 1_555
O1IF C1HA 1_555 1_555
Cu1D O1ED 1_555 1_555
O1D Cu1D 1_555 1_555
O2D Cu1D 1_555 1_555
C1D O1D 1_555 1_555
C2D C1D 1_555 1_555
C3D C2D 1_555 1_555
H1D C3D 1_555 1_555
O1XA C1XA 1_555 1_555
C1XA C2XA 1_555 1_555
C2XA C3D 1_555 1_555
C3XA C2XA 1_555 1_555
H1XA C3XA 1_555 1_555
O1EC C1EC 1_555 1_555
C1EC C2EC 1_555 1_555
C2EC C3XA 1_555 1_555
C3EC C2D 1_555 1_555
H1EC C3EC 1_555 1_555
O1OD C1EC 1_555 1_555
O1BF C1D 1_555 1_555
O1BG C1XA 1_555 1_555
Cu1H O1OD 1_555 1_555
O2H Cu1H 1_555 1_555
Cu1AA Cu1 1_555 1_555
Cu1HA O1HA 1_555 1_555
Cu1XA O1XA 1_555 1_555
Cu1CB O1CB 1_555 1_555
Cu1EB O1IF 1_555 1_555
Cu1UB O1BG 1_555 1_555
Cu1EC O1EC 1_555 1_555
O1H Cu1H 1_555 1_555
O1N Cu1D 1_555 1_555
O1Q Cu1 1_555 1_555
O1T Cu1H 1_555 1_555
O1UC Cu1 1_555 1_555
O1YC Cu1D 1_555 1_555
O1CD Cu1H 1_555 1_555
O1JD Cu1 1_555 1_555
C2CB C3CB 1_555 1_555
O1GE Cu1AA 1_555 1_555
Cu1D Cu1CB 1_555 1_555
C2EC C3EC 1_555 1_555
O1BF Cu1CB 1_555 1_555
Cu1H Cu1EC 1_555 1_555
Cu1HA Cu1EB 1_555 1_555
Cu1XA Cu1UB 1_555 1_555

#END
