
#######################################################################
#
#                 Cambridge Crystallographic Data Centre
#                                CCDC 
#
#######################################################################
#
# If this CIF has been generated from an entry in the Cambridge 
# Structural Database, then it will include bibliographic, chemical, 
# crystal, experimental, refinement or atomic coordinate data resulting 
# from the CCDC's data processing and validation procedures.
#
#######################################################################

data_EXIDEV
_chemical_formula_moiety         '(C41 H40 Co2 N4 O18)n'
_symmetry_cell_setting           monoclinic
_symmetry_space_group_name_H-M   'P c'
_symmetry_Int_Tables_number      7
_space_group_name_Hall           'P -2yc'
loop_
_symmetry_equiv_pos_site_id
_symmetry_equiv_pos_as_xyz
1 x,y,z
2 x,-y,1/2+z
_cell_length_a                   10.1977(8)
_cell_length_b                   9.3925(7)
_cell_length_c                   24.4616(17)
_cell_angle_alpha                90
_cell_angle_beta                 91.926(7)
_cell_angle_gamma                90
_cell_volume                     2341.65
loop_
_atom_site_label
_atom_site_type_symbol
_atom_site_fract_x
_atom_site_fract_y
_atom_site_fract_z
C1 C 0.901(3) 0.091(3) 0.9076(11)
H1 H 0.8485 0.1012 0.9376
C2 C 0.976(2) -0.039(3) 0.9022(10)
H2 H 0.9815 -0.1077 0.9297
C3 C 1.038(2) -0.054(2) 0.8551(9)
C4 C 1.0609(18) 0.0711(19) 0.8258(8)
H3 H 1.1299 0.0766 0.8020
C5 C 0.980(2) 0.184(2) 0.8330(9)
H4 H 0.9810 0.2584 0.8078
C6 C 1.126(2) -0.275(2) 0.8887(9)
H5 H 1.0497 -0.3365 0.8867
H6 H 1.1346 -0.2337 0.9250
C7 C 1.263(2) -0.3617(10) 0.8716(10)
C8 C 1.3571(19) -0.272(2) 0.8579(8)
H7 H 1.3312 -0.2252 0.8240
H8 H 1.4365 -0.3259 0.8517
C9 C 1.451(3) -0.055(3) 0.8845(11)
C10 C 1.463(2) 0.047(2) 0.9295(9)
H9 H 1.4222 0.0349 0.9627
C11 C 1.539(2) 0.164(3) 0.9184(10)
H10 H 1.5353 0.2374 0.9437
C12 C 1.615(2) 0.072(2) 0.8418(8)
H11 H 1.6698 0.0762 0.8122
C13 C 1.546(3) -0.043(3) 0.8448(11)
H12 H 1.5587 -0.1179 0.8206
C14 C 1.206(2) -0.446(2) 0.8249(8)
H13 H 1.1322 -0.5032 0.8363
H14 H 1.1768 -0.3847 0.7951
C15 C 1.293(2) -0.631(3) 0.7669(9)
C16 C 1.177(3) -0.649(3) 0.7420(10)
H15 H 1.1021 -0.6000 0.7522
C17 C 1.177(2) -0.761(3) 0.6931(8)
H16 H 1.1020 -0.7652 0.6704
C18 C 1.3731(19) -0.830(2) 0.7206(7)
H17 H 1.4340 -0.9036 0.7210
C19 C 1.397(2) -0.726(2) 0.7562(8)
H18 H 1.4785 -0.7159 0.7736
C20 C 1.293(2) -0.465(2) 0.9227(8)
H19 H 1.3600 -0.5322 0.9129
H20 H 1.3281 -0.4080 0.9529
C21 C 1.205(2) -0.637(3) 0.9789(10)
C22 C 1.100(2) -0.703(2) 0.9966(8)
H21 H 1.0174 -0.6802 0.9817
C23 C 1.1119(18) -0.8059(19) 1.0376(7)
H22 H 1.0387 -0.8511 1.0512
C24 C 1.3331(18) -0.754(2) 1.0423(7)
H23 H 1.4160 -0.7723 1.0577
C25 C 1.325(2) -0.654(2) 1.0104(7)
H24 H 1.3939 -0.5906 1.0068
C26 C 0.759(2) 0.506(3) 0.7980(9)
C27 C 0.7330(16) 0.6526(16) 0.7645(5)
C28 C 0.6077(14) 0.6655(14) 0.7409(6)
H25 H 0.5441 0.5976 0.7479
C29 C 0.5773(11) 0.7800(16) 0.7067(6)
C30 C 0.6723(14) 0.8816(13) 0.6962(6)
H26 H 0.6520 0.9582 0.6733
C31 C 0.7977(13) 0.8687(16) 0.7197(7)
C32 C 0.8281(12) 0.7542(19) 0.7539(6)
H27 H 0.9119 0.7455 0.7697
C33 C 0.433(2) 0.823(3) 0.6871(11)
C34 C 1.060(2) 0.800(2) 1.0571(9)
C35 C 0.9291(12) 0.7864(18) 1.0352(6)
C36 C 0.8376(16) 0.8919(14) 1.0456(7)
H28 H 0.8631 0.9731 1.0649
C37 C 0.7080(14) 0.8759(14) 1.0272(7)
C38 C 0.6699(11) 0.7544(17) 0.9983(6)
H29 H 0.5832 0.7437 0.9860
C39 C 0.7614(15) 0.6489(14) 0.9879(5)
C40 C 0.8909(13) 0.6649(15) 1.0064(6)
H30 H 0.9521 0.5943 0.9994
C41 C 0.7223(18) 0.5357(17) 0.9517(7)
N1 N 0.9053(17) 0.1929(19) 0.8719(7)
N2 N 1.6188(13) 0.1869(16) 0.8757(6)
N3 N 1.2695(19) -0.843(2) 0.6829(8)
N4 N 1.2385(18) -0.838(2) 1.0571(7)
O1 O 1.1195(15) -0.1626(17) 0.8453(6)
O2 O 1.3830(17) -0.1718(17) 0.8971(6)
O3 O 1.1146(17) -1.131(2) 0.6713(7)
O4 O 1.3152(14) -0.5365(18) 0.8090(6)
O5 O 1.3601(15) -0.8637(18) 0.5734(6)
O6 O 1.1857(15) -0.5397(18) 0.9405(6)
O8 O 0.693(2) 0.420(2) 0.7978(8)
O10 O 0.8655(12) 0.5319(13) 0.8315(5)
O11 O 0.8896(18) 0.974(2) 0.7112(11)
H31 H 0.8569 1.0359 0.6916
O12 O 0.4174(15) 0.9072(18) 0.6533(6)
O13 O 0.3579(14) 0.6991(16) 0.6948(6)
O14 O 1.0855(15) 0.9018(19) 1.0914(7)
O15 O 1.1563(9) 0.7565(11) 1.0284(4)
O16 O 0.6153(19) 0.975(2) 1.0364(8)
O17 O 0.605(2) 0.523(2) 0.9322(9)
O18 O 0.781(2) 0.405(3) 0.9520(10)
Co1 Co 0.7486(5) 0.34259(14) 0.8732(2)
Co2 Co 1.2507(5) -1.0013(5) 0.6225(2)
N2_2 N 0.6188(13) 0.1869(16) 0.8757(6)
N4A N 1.2385(18) -1.162(2) 0.5571(7)
O12_2 O 1.4174(15) -1.0928(18) 0.6533(6)
O14A O 1.0855(15) -0.9018(19) 0.5914(7)
Co1_2 Co 1.7486(5) 0.34259(14) 0.8732(2)
Co2A Co 1.2507(5) -0.9987(5) 1.1225(2)
Co2_2 Co 0.2507(5) 0.9987(5) 0.6225(2)
Co2A_2 Co 1.2507(5) 1.0013(5) 1.1225(2)
O7 O 0.782(3) 1.240(4) 0.6949(13)
O9 O -0.273(3) 0.763(2) 0.5361(11)
loop_
_geom_bond_atom_site_label_1
_geom_bond_atom_site_label_2
_geom_bond_site_symmetry_1
_geom_bond_site_symmetry_2
C1 H1 1_555 1_555
C2 C1 1_555 1_555
H2 C2 1_555 1_555
C3 C2 1_555 1_555
C4 C3 1_555 1_555
H3 C4 1_555 1_555
C5 C4 1_555 1_555
H4 C5 1_555 1_555
C6 H5 1_555 1_555
H6 C6 1_555 1_555
C7 C6 1_555 1_555
C8 C7 1_555 1_555
H7 C8 1_555 1_555
H8 C8 1_555 1_555
C9 C10 1_555 1_555
C10 H9 1_555 1_555
C11 C10 1_555 1_555
H10 C11 1_555 1_555
C12 H11 1_555 1_555
C13 C9 1_555 1_555
H12 C13 1_555 1_555
C14 C7 1_555 1_555
H13 C14 1_555 1_555
H14 C14 1_555 1_555
C15 C16 1_555 1_555
C16 H15 1_555 1_555
C17 C16 1_555 1_555
H16 C17 1_555 1_555
C18 H17 1_555 1_555
C19 C15 1_555 1_555
H18 C19 1_555 1_555
C20 C7 1_555 1_555
H19 C20 1_555 1_555
H20 C20 1_555 1_555
C21 C22 1_555 1_555
C22 H21 1_555 1_555
C23 C22 1_555 1_555
H22 C23 1_555 1_555
C24 H23 1_555 1_555
C25 C21 1_555 1_555
H24 C25 1_555 1_555
C26 C27 1_555 1_555
C27 C28 1_555 1_555
C28 H25 1_555 1_555
C29 C28 1_555 1_555
C30 C29 1_555 1_555
H26 C30 1_555 1_555
C31 C30 1_555 1_555
C32 C27 1_555 1_555
H27 C32 1_555 1_555
C33 C29 1_555 1_555
C34 C35 1_555 1_555
C35 C36 1_555 1_555
C36 H28 1_555 1_555
C37 C36 1_555 1_555
C38 C37 1_555 1_555
H29 C38 1_555 1_555
C39 C38 1_555 1_555
C40 C35 1_555 1_555
H30 C40 1_555 1_555
C41 C39 1_555 1_555
N1 C1 1_555 1_555
N2 C11 1_555 1_555
N3 C17 1_555 1_555
N4 C23 1_555 1_555
O1 C3 1_555 1_555
O2 C8 1_555 1_555
O3 Co2 1_555 1_555
O4 C14 1_555 1_555
O5 Co2 1_555 1_555
O6 C20 1_555 1_555
O8 C26 1_555 1_555
O10 C26 1_555 1_555
O11 C31 1_555 1_555
H31 O11 1_555 1_555
O12 C33 1_555 1_555
O13 C33 1_555 1_555
O14 C34 1_555 1_555
O15 C34 1_555 1_555
O16 C37 1_555 1_555
O17 C41 1_555 1_555
O18 C41 1_555 1_555
Co1 N1 1_555 1_555
Co2 N3 1_555 1_555
N2_2 Co1 1_555 1_555
N4A Co2 1_555 1_555
O12_2 Co2 1_555 1_555
O14A Co2 1_555 1_555
Co1_2 N2 1_555 1_555
Co2A N4 1_555 1_555
Co2_2 O12 1_555 1_555
Co2A_2 O14 1_555 1_555
C5 N1 1_555 1_555
C6 O1 1_555 1_555
C9 O2 1_555 1_555
C12 C13 1_555 1_555
C12 N2 1_555 1_555
C15 O4 1_555 1_555
C18 C19 1_555 1_555
C18 N3 1_555 1_555
C21 O6 1_555 1_555
C24 C25 1_555 1_555
C24 N4 1_555 1_555
C31 C32 1_555 1_555
C39 C40 1_555 1_555
O8 Co1 1_555 1_555
O10 Co1 1_555 1_555
O18 Co1 1_555 1_555

#END
