
#######################################################################
#
#                 Cambridge Crystallographic Data Centre
#                                CCDC 
#
#######################################################################
#
# If this CIF has been generated from an entry in the Cambridge 
# Structural Database, then it will include bibliographic, chemical, 
# crystal, experimental, refinement or atomic coordinate data resulting 
# from the CCDC's data processing and validation procedures.
#
#######################################################################

data_KARTAA
_chemical_formula_moiety         '(C10 H40 N5 O48 S12 Sm5 4-)n'
_symmetry_cell_setting           monoclinic
_symmetry_space_group_name_H-M   'C 2/c'
_symmetry_Int_Tables_number      15
_space_group_name_Hall           '-C 2yc'
loop_
_symmetry_equiv_pos_site_id
_symmetry_equiv_pos_as_xyz
1 x,y,z
2 -x,y,1/2-z
3 1/2+x,1/2+y,z
4 1/2-x,1/2+y,1/2-z
5 -x,-y,-z
6 x,-y,1/2+z
7 1/2-x,1/2-y,-z
8 1/2+x,1/2-y,1/2+z
_cell_length_a                   20.6494(13)
_cell_length_b                   35.261(2)
_cell_length_c                   10.1318(6)
_cell_angle_alpha                90
_cell_angle_beta                 115.0040(10)
_cell_angle_gamma                90
_cell_volume                     6685.75
loop_
_atom_site_label
_atom_site_type_symbol
_atom_site_fract_x
_atom_site_fract_y
_atom_site_fract_z
Sm1 Sm 0.0000 0.280955(10) 0.2500
Sm2 Sm -0.363021(13) 0.470083(7) -0.02204(3)
Sm3 Sm -0.243014(13) 0.308035(7) 0.01054(3)
S1 S -0.15522(6) 0.24701(3) 0.32068(13)
S2 S -0.29279(7) 0.39034(3) 0.01999(14)
S3 S -0.44211(6) 0.53542(3) 0.13942(13)
S4 S -0.13267(6) 0.23292(3) -0.05671(13)
S5 S -0.24602(8) 0.52691(4) -0.12656(15)
S6 S -0.09642(7) 0.34439(3) 0.04318(14)
O1 O -0.20031(17) 0.28064(9) 0.2517(4)
O2 O -0.18457(18) 0.25314(9) -0.0131(4)
O3 O -0.41496(19) 0.52804(10) 0.0285(4)
O4 O -0.14990(18) 0.19246(9) -0.0552(4)
O5 O -0.26046(19) 0.42673(10) 0.0045(4)
O6 O -0.08288(18) 0.25366(10) 0.3299(4)
O7 O -0.3998(2) 0.56533(10) 0.2416(4)
O8 O -0.10670(18) 0.32447(10) 0.1649(4)
O9 O -0.06004(18) 0.24000(11) 0.0546(4)
O10 O -0.43490(18) 0.50130(9) 0.2291(4)
O11 O -0.24181(19) 0.36847(9) 0.1452(4)
O12 O -0.1520(2) 0.24236(10) 0.4660(4)
O13 O -0.16344(19) 0.33821(11) -0.0880(4)
O14 O -0.35805(19) 0.40127(10) 0.0369(4)
O15 O -0.51705(18) 0.54808(10) 0.0633(4)
O16 O -0.18550(19) 0.21259(9) 0.2336(4)
O17 O -0.31015(19) 0.36559(9) -0.1077(4)
O18 O -0.03451(19) 0.32524(11) 0.0369(4)
O19 O -0.1397(2) 0.24494(11) -0.1981(4)
O20 O -0.0836(2) 0.38465(10) 0.0737(5)
O21 O -0.2860(2) 0.51495(11) -0.0426(4)
O22 O -0.2900(3) 0.51897(13) -0.2801(4)
O23 O -0.2285(3) 0.56645(12) -0.1051(5)
O24 O -0.1810(3) 0.50420(17) -0.0781(6)
Sm2A Sm 0.363021(13) 0.470083(7) 0.52204(3)
Sm2E Sm -0.363021(13) 0.529917(7) 0.47796(3)
Sm2D Sm -0.636979(13) 0.529917(7) 0.02204(3)
Sm2E_2 Sm -0.363021(13) 0.529917(7) -0.52204(3)
Sm2A_2 Sm -0.636979(13) 0.470083(7) -0.47796(3)
Sm3A Sm 0.243014(13) 0.308035(7) 0.48946(3)
Sm3F Sm -0.256986(13) 0.191965(7) -0.01054(3)
Sm3G Sm 0.256986(13) 0.191965(7) 0.51054(3)
S1A S 0.15522(6) 0.24701(3) 0.17932(13)
S2A S 0.29279(7) 0.39034(3) 0.48001(14)
S3E S -0.44211(6) 0.46458(3) -0.36058(13)
S4A S 0.13267(6) 0.23292(3) 0.55671(13)
S5E S -0.24602(8) 0.47309(4) 0.37344(15)
S6A S 0.09642(7) 0.34439(3) 0.45682(14)
O1A O 0.20031(17) 0.28064(9) 0.2483(4)
O2A O 0.18457(18) 0.25314(9) 0.5131(4)
O2F O -0.31543(18) 0.24686(9) 0.0131(4)
O2G O 0.31543(18) 0.24686(9) 0.4869(4)
O3E O -0.41496(19) 0.47196(10) -0.4715(4)
O3A O 0.41496(19) 0.52804(10) 0.4715(4)
O4A O 0.14990(18) 0.19246(9) 0.5552(4)
O4F O -0.35010(18) 0.30754(9) 0.0552(4)
O4G O 0.35010(18) 0.30754(9) 0.4448(4)
O5A O 0.26046(19) 0.42673(10) 0.4955(4)
O6A O 0.08288(18) 0.25366(10) 0.1701(4)
O7E O -0.3998(2) 0.43467(10) -0.2584(4)
O7D O 0.3998(2) 0.43467(10) 0.7584(4)
O8A O 0.10670(18) 0.32447(10) 0.3351(4)
O9A O 0.06004(18) 0.24000(11) 0.4454(4)
O10E O -0.43490(18) 0.49870(9) -0.2709(4)
O10D O 0.43490(18) 0.49870(9) 0.7709(4)
O11A O 0.24181(19) 0.36847(9) 0.3548(4)
O12A O 0.1520(2) 0.24236(10) 0.0340(4)
O13A O 0.16344(19) 0.33821(11) 0.5880(4)
O14A O 0.35805(19) 0.40127(10) 0.4631(4)
O15E O -0.51705(18) 0.45192(10) -0.4367(4)
O15D O -0.48295(18) 0.45192(10) -0.0633(4)
O15E_2 O 0.48295(18) 0.45192(10) 0.5633(4)
O16A O 0.18550(19) 0.21259(9) 0.2664(4)
O16F O -0.31450(19) 0.28741(9) -0.2336(4)
O16G O 0.31450(19) 0.28741(9) 0.7336(4)
O17A O 0.31015(19) 0.36559(9) 0.6077(4)
O18A O 0.03451(19) 0.32524(11) 0.4631(4)
O19A O 0.1397(2) 0.24494(11) 0.6981(4)
O20A O 0.0836(2) 0.38465(10) 0.4263(5)
O21E O -0.2860(2) 0.48505(11) 0.4574(4)
O21A O 0.2860(2) 0.51495(11) 0.5426(4)
O22E O -0.2900(3) 0.48103(13) 0.2199(4)
O22D O 0.2900(3) 0.48103(13) 0.2801(4)
O23E O -0.2285(3) 0.43355(12) 0.3949(5)
O24E O -0.1810(3) 0.49580(17) 0.4219(6)
N1 N 0.2312(3) 0.19288(12) -0.0640(5)
H1 H 0.2476 0.2005 -0.1292
H2 H 0.2064 0.2122 -0.0499
C1 C 0.2925(4) 0.1839(2) 0.0751(7)
H11 H 0.3222 0.2059 0.1100
H12 H 0.3198 0.1636 0.0602
H13 H 0.2754 0.1762 0.1456
C2 C 0.1829(4) 0.16000(19) -0.1241(7)
H14 H 0.1437 0.1672 -0.2137
H15 H 0.1648 0.1520 -0.0555
H16 H 0.2087 0.1395 -0.1420
N2 N 0.3810(3) -0.0847(2) 0.3020(7)
H3 H 0.3750 -0.0988 0.2236
H4 H 0.3373 -0.0787 0.2952
C3 C 0.4164(6) -0.0506(3) 0.2965(14)
H17 H 0.3888 -0.0376 0.2070
H18 H 0.4628 -0.0565 0.3016
H19 H 0.4214 -0.0347 0.3772
C4 C 0.4168(6) -0.1075(3) 0.4302(13)
H20 H 0.3893 -0.1300 0.4232
H21 H 0.4217 -0.0933 0.5147
H22 H 0.4633 -0.1145 0.4383
N3 N -0.0000 -0.06587(17) 0.2500
H5 H -0.0076 -0.0512 0.1721
C5 C -0.0651(4) -0.08826(19) 0.2215(8)
H23 H -0.1044 -0.0714 0.2044
H24 H -0.0572 -0.1040 0.3043
H25 H -0.0760 -0.1039 0.1373
H5A H 0.0076 -0.0512 0.3279
C5A C 0.0651(4) -0.08826(19) 0.2785(8)
H23A H 0.1044 -0.0714 0.2956
H24A H 0.0572 -0.1040 0.1957
H25A H 0.0760 -0.1039 0.3627
N4 N 0.0000 0.1298(3) 0.2500
H6 H 0.0380 0.1152 0.3020
C6 C -0.0198(5) 0.1510(2) 0.3497(11)
H26 H -0.0320 0.1338 0.4089
H27 H -0.0602 0.1669 0.2953
H28 H 0.0197 0.1666 0.4109
H6A H -0.0380 0.1152 0.1980
C6A C 0.0198(5) 0.1510(2) 0.1503(11)
H26A H 0.0320 0.1338 0.0911
H27A H 0.0602 0.1669 0.2047
H28A H -0.0197 0.1666 0.0891
N6 N 0.2782(9) 0.0618(4) 0.2530(16)
H9 H 0.2585 0.0398 0.2095
H10 H 0.2778 0.0622 0.3414
C9 C 0.3653(6) 0.0642(3) 0.2727(10)
C10 C 0.2413(4) 0.0893(2) 0.1774(9)
loop_
_geom_bond_atom_site_label_1
_geom_bond_atom_site_label_2
_geom_bond_site_symmetry_1
_geom_bond_site_symmetry_2
Sm1 O6 1_555 1_555
Sm2 O3 1_555 1_555
Sm3 O1 1_555 1_555
S1 O1 1_555 1_555
S2 O5 1_555 1_555
S3 O3 1_555 1_555
S4 O2 1_555 1_555
S5 O21 1_555 1_555
S6 O8 1_555 1_555
O2 Sm3 1_555 1_555
O4 S4 1_555 1_555
O5 Sm2 1_555 1_555
O6 S1 1_555 1_555
O7 S3 1_555 1_555
O8 Sm1 1_555 1_555
O9 Sm1 1_555 1_555
O10 S3 1_555 1_555
O11 Sm3 1_555 1_555
O12 S1 1_555 1_555
O13 Sm3 1_555 1_555
O14 Sm2 1_555 1_555
O15 S3 1_555 1_555
O16 S1 1_555 1_555
O17 Sm3 1_555 1_555
O18 Sm1 1_555 1_555
O19 S4 1_555 1_555
O20 S6 1_555 1_555
O21 Sm2 1_555 1_555
O22 S5 1_555 1_555
O23 S5 1_555 1_555
O24 S5 1_555 1_555
N1 H1 1_555 1_555
H2 N1 1_555 1_555
N2 H3 1_555 1_555
H4 N2 1_555 1_555
N3 H5 1_555 1_555
N4 H6 1_555 1_555
N6 H9 1_555 1_555
H10 N6 1_555 1_555
C1 N1 1_555 1_555
H11 C1 1_555 1_555
H12 C1 1_555 1_555
H13 C1 1_555 1_555
C2 N1 1_555 1_555
H14 C2 1_555 1_555
H15 C2 1_555 1_555
H16 C2 1_555 1_555
C3 N2 1_555 1_555
H17 C3 1_555 1_555
H18 C3 1_555 1_555
H19 C3 1_555 1_555
C4 N2 1_555 1_555
H20 C4 1_555 1_555
H21 C4 1_555 1_555
H22 C4 1_555 1_555
C5 N3 1_555 1_555
H23 C5 1_555 1_555
H24 C5 1_555 1_555
H25 C5 1_555 1_555
C6 N4 1_555 1_555
H26 C6 1_555 1_555
H27 C6 1_555 1_555
H28 C6 1_555 1_555
C9 N6 1_555 1_555
C10 N6 1_555 1_555
Sm2A O3A 1_555 1_555
Sm2E O7 1_555 1_555
Sm2D O15 1_555 1_555
Sm2E_2 O22 1_555 1_555
Sm2A_2 O15E 1_555 1_555
Sm3A O1A 1_555 1_555
Sm3F O2 1_555 1_555
Sm3G O2A 1_555 1_555
S1A O1A 1_555 1_555
S2A O5A 1_555 1_555
S3E O3E 1_555 1_555
S4A O2A 1_555 1_555
S5E O21E 1_555 1_555
S6A O8A 1_555 1_555
O2A Sm3A 1_555 1_555
O2F Sm3 1_555 1_555
O2G Sm3A 1_555 1_555
O3E Sm2E_2 1_555 1_555
O4A Sm3G 1_555 1_555
O4F Sm3 1_555 1_555
O4G Sm3A 1_555 1_555
O5A Sm2A 1_555 1_555
O6A Sm1 1_555 1_555
O7E Sm2 1_555 1_555
O7D Sm2A 1_555 1_555
O8A Sm1 1_555 1_555
O9A Sm1 1_555 1_555
O10E Sm2 1_555 1_555
O10D Sm2A 1_555 1_555
O11A Sm3A 1_555 1_555
O12A S1A 1_555 1_555
O13A Sm3A 1_555 1_555
O14A Sm2A 1_555 1_555
O15E S3E 1_555 1_555
O15D Sm2 1_555 1_555
O15E_2 Sm2A 1_555 1_555
O16A Sm3G 1_555 1_555
O16F Sm3 1_555 1_555
O16G Sm3A 1_555 1_555
O17A Sm3A 1_555 1_555
O18A Sm1 1_555 1_555
O19A S4A 1_555 1_555
O20A S6A 1_555 1_555
O21E Sm2E 1_555 1_555
O21A Sm2A 1_555 1_555
O22E Sm2 1_555 1_555
O22D Sm2A 1_555 1_555
O23E S5E 1_555 1_555
O24E S5E 1_555 1_555
H5A N3 1_555 1_555
H6A N4 1_555 1_555
C5A N3 1_555 1_555
H23A C5A 1_555 1_555
H24A C5A 1_555 1_555
H25A C5A 1_555 1_555
C6A N4 1_555 1_555
H26A C6A 1_555 1_555
H27A C6A 1_555 1_555
H28A C6A 1_555 1_555
Sm3 O8 1_555 1_555
S2 O11 1_555 1_555
S2 O14 1_555 1_555
S2 O17 1_555 1_555
S4 O9 1_555 1_555
S6 O13 1_555 1_555
S6 O18 1_555 1_555
O4 Sm3F 1_555 1_555
O10 Sm2E 1_555 1_555
O16 Sm3F 1_555 1_555
Sm3A O8A 1_555 1_555
Sm3F O2F 1_555 1_555
Sm3G O2G 1_555 1_555
S1A O6A 1_555 1_555
S1A O16A 1_555 1_555
S2A O11A 1_555 1_555
S2A O14A 1_555 1_555
S2A O17A 1_555 1_555
S3E O7E 1_555 1_555
S3E O10E 1_555 1_555
S4A O4A 1_555 1_555
S4A O9A 1_555 1_555
S5E O22E 1_555 1_555
S6A O13A 1_555 1_555
S6A O18A 1_555 1_555

#END
