
#######################################################################
#
#                 Cambridge Crystallographic Data Centre
#                                CCDC 
#
#######################################################################
#
# If this CIF has been generated from an entry in the Cambridge 
# Structural Database, then it will include bibliographic, chemical, 
# crystal, experimental, refinement or atomic coordinate data resulting 
# from the CCDC's data processing and validation procedures.
#
#######################################################################

data_QUVLAW
_chemical_formula_moiety         '(C21 H10 N1 O6 Tb1)n'
_symmetry_cell_setting           hexagonal
_symmetry_space_group_name_H-M   'P 65'
_symmetry_Int_Tables_number      170
_space_group_name_Hall           'P 65'
loop_
_symmetry_equiv_pos_site_id
_symmetry_equiv_pos_as_xyz
1 x,y,z
2 x-y,x,5/6+z
3 -y,x-y,2/3+z
4 -x,-y,1/2+z
5 -x+y,-x,1/3+z
6 y,-x+y,1/6+z
_cell_length_a                   15.4248(5)
_cell_length_b                   15.4248(5)
_cell_length_c                   19.3027(9)
_cell_angle_alpha                90
_cell_angle_beta                 90
_cell_angle_gamma                120
_cell_volume                     3977.29
loop_
_atom_site_label
_atom_site_type_symbol
_atom_site_fract_x
_atom_site_fract_y
_atom_site_fract_z
Tb1 Tb -0.05467(5) 0.08101(5) 0.68708(6)
C1 C 0.1422(12) 0.2203(13) 0.4472(9)
H1 H 0.0952 0.1566 0.4320
C2 C 0.1426(10) 0.2479(11) 0.5180(9)
C3 C 0.2140(18) 0.3401(16) 0.5387(10)
H2 H 0.2130 0.3587 0.5844
C4 C 0.2904(18) 0.4099(16) 0.4944(12)
H3 H 0.3414 0.4708 0.5111
C5 C 0.2861(16) 0.3844(16) 0.4270(10)
C6 C 0.2111(13) 0.2878(13) 0.4020(9)
C7 C 0.2320(13) 0.2881(13) 0.3294(9)
C8 C 0.1838(12) 0.2169(12) 0.2762(9)
H4 H 0.1292 0.1544 0.2862
C9 C 0.2190(13) 0.2414(12) 0.2091(9)
C10 C 0.3093(14) 0.3364(13) 0.1970(10)
H5 H 0.3348 0.3511 0.1522
C11 C 0.3571(17) 0.4027(15) 0.2458(10)
H6 H 0.4166 0.4615 0.2365
C12 C 0.3143(15) 0.3812(13) 0.3138(10)
C13 C 0.4344(15) 0.5355(16) 0.3824(9)
C14 C 0.5279(15) 0.5436(13) 0.3653(11)
H7 H 0.5305 0.4912 0.3435
C15 C 0.6160(16) 0.6326(13) 0.3821(9)
H8 H 0.6781 0.6412 0.3697
C16 C 0.6096(12) 0.7054(11) 0.4165(9)
C17 C 0.5148(13) 0.6924(15) 0.4302(10)
H9 H 0.5097 0.7426 0.4534
C18 C 0.4330(14) 0.6114(15) 0.4111(11)
H10 H 0.3717 0.6078 0.4183
C19 C 0.0721(11) 0.1818(13) 0.5710(8)
C20 C 0.1799(13) 0.1718(13) 0.1498(10)
C21 C 0.7040(12) 0.7984(12) 0.4455(9)
N1 N 0.3448(11) 0.4367(11) 0.3722(7)
O1 O 0.0735(9) 0.2180(8) 0.6281(6)
O2 O 0.0088(8) 0.0877(8) 0.5591(6)
O3 O 0.1023(8) 0.0811(8) 0.1613(6)
O4 O 0.2151(9) 0.1964(8) 0.0897(6)
O5 O 0.7884(7) 0.8026(8) 0.4356(7)
O6 O 0.6959(8) 0.8627(8) 0.4762(7)
Tb1A Tb -0.13568(7) -0.05467(5) 0.52041(6)
Tb1A_2 Tb 0.86432(7) 0.94533(5) 0.52041(6)
Tb1B Tb 0.91899(5) 0.86432(7) 0.35375(6)
Tb1C Tb 0.05467(5) -0.08101(5) 0.18708(6)
Tb1D Tb 0.13568(7) 0.05467(5) 0.02041(6)
O2E O 0.0877(8) 0.0789(11) 0.7258(6)
O3B O -0.0811(8) 0.0212(11) 0.8280(6)
O3C O -0.1023(8) -0.0811(8) 0.6613(6)
O4B O -0.1964(8) 0.0187(12) 0.7564(6)
O5D O 0.0142(11) 0.2116(7) 0.7689(7)
O5E O -0.1974(8) 0.0142(11) 0.6023(7)
O6E O -0.1373(8) 0.1668(11) 0.6429(7)
loop_
_geom_bond_atom_site_label_1
_geom_bond_atom_site_label_2
_geom_bond_site_symmetry_1
_geom_bond_site_symmetry_2
Tb1 O1 1_555 1_555
C1 H1 1_555 1_555
C2 C1 1_555 1_555
C3 C2 1_555 1_555
H2 C3 1_555 1_555
C4 C3 1_555 1_555
H3 C4 1_555 1_555
C5 C4 1_555 1_555
C6 C1 1_555 1_555
C7 C6 1_555 1_555
C8 C7 1_555 1_555
H4 C8 1_555 1_555
C9 C8 1_555 1_555
C10 C9 1_555 1_555
H5 C10 1_555 1_555
C11 C10 1_555 1_555
H6 C11 1_555 1_555
C12 C7 1_555 1_555
C13 C14 1_555 1_555
C14 H7 1_555 1_555
C15 C14 1_555 1_555
H8 C15 1_555 1_555
C16 C15 1_555 1_555
C17 C16 1_555 1_555
H9 C17 1_555 1_555
C18 C13 1_555 1_555
H10 C18 1_555 1_555
C19 C2 1_555 1_555
C20 C9 1_555 1_555
C21 C16 1_555 1_555
N1 C5 1_555 1_555
O1 C19 1_555 1_555
O2 Tb1 1_555 1_555
O3 C20 1_555 1_555
O4 C20 1_555 1_555
O5 C21 1_555 1_555
O6 C21 1_555 1_555
Tb1A O2 1_555 1_555
Tb1A_2 O5 1_555 1_555
Tb1B O5 1_555 1_555
Tb1C O3 1_555 1_555
Tb1D O3 1_555 1_555
O2E Tb1 1_555 1_555
O3B Tb1 1_555 1_555
O3C Tb1 1_555 1_555
O4B Tb1 1_555 1_555
O5D Tb1 1_555 1_555
O5E Tb1 1_555 1_555
O6E Tb1 1_555 1_555
C5 C6 1_555 1_555
C11 C12 1_555 1_555
C12 N1 1_555 1_555
C13 N1 1_555 1_555
C17 C18 1_555 1_555
C19 O2 1_555 1_555
O4 Tb1D 1_555 1_555
O6 Tb1A_2 1_555 1_555
Tb1A O3C 1_555 1_555
Tb1A O5E 1_555 1_555

#END
