
#######################################################################
#
#                 Cambridge Crystallographic Data Centre
#                                CCDC 
#
#######################################################################
#
# If this CIF has been generated from an entry in the Cambridge 
# Structural Database, then it will include bibliographic, chemical, 
# crystal, experimental, refinement or atomic coordinate data resulting 
# from the CCDC's data processing and validation procedures.
#
#######################################################################

data_IXETEM
_chemical_formula_moiety         'C96 H48 O42 Zr16'
_symmetry_cell_setting           cubic
_symmetry_space_group_name_H-M   'F d -3 m'
_symmetry_Int_Tables_number      227
_space_group_name_Hall           '-F 4vw 2vw 3'
loop_
_symmetry_equiv_pos_site_id
_symmetry_equiv_pos_as_xyz
1 x,y,z
2 3/4-x,1/4-y,1/2+z
3 1/4-x,1/2+y,3/4-z
4 1/2+x,3/4-y,1/4-z
5 z,x,y
6 1/2+z,3/4-x,1/4-y
7 3/4-z,1/4-x,1/2+y
8 1/4-z,1/2+x,3/4-y
9 y,z,x
10 1/4-y,1/2+z,3/4-x
11 1/2+y,3/4-z,1/4-x
12 3/4-y,1/4-z,1/2+x
13 3/4+y,1/4+x,1/2-z
14 -y,-x,-z
15 1/4+y,1/2-x,3/4+z
16 1/2-y,3/4+x,1/4+z
17 3/4+x,1/4+z,1/2-y
18 1/2-x,3/4+z,1/4+y
19 -x,-z,-y
20 1/4+x,1/2-z,3/4+y
21 3/4+z,1/4+y,1/2-x
22 1/4+z,1/2-y,3/4+x
23 1/2-z,3/4+y,1/4+x
24 -z,-y,-x
25 x,1/2+y,1/2+z
26 3/4-x,3/4-y,z
27 1/4-x,y,1/4-z
28 1/2+x,1/4-y,3/4-z
29 z,1/2+x,1/2+y
30 1/2+z,1/4-x,3/4-y
31 3/4-z,3/4-x,y
32 1/4-z,x,1/4-y
33 y,1/2+z,1/2+x
34 1/4-y,z,1/4-x
35 1/2+y,1/4-z,3/4-x
36 3/4-y,3/4-z,x
37 3/4+y,3/4+x,-z
38 -y,1/2-x,1/2-z
39 1/4+y,-x,1/4+z
40 1/2-y,1/4+x,3/4+z
41 3/4+x,3/4+z,-y
42 1/2-x,1/4+z,3/4+y
43 -x,1/2-z,1/2-y
44 1/4+x,-z,1/4+y
45 3/4+z,3/4+y,-x
46 1/4+z,-y,1/4+x
47 1/2-z,1/4+y,3/4+x
48 -z,1/2-y,1/2-x
49 1/2+x,y,1/2+z
50 1/4-x,1/4-y,z
51 3/4-x,1/2+y,1/4-z
52 x,3/4-y,3/4-z
53 1/2+z,x,1/2+y
54 z,3/4-x,3/4-y
55 1/4-z,1/4-x,y
56 3/4-z,1/2+x,1/4-y
57 1/2+y,z,1/2+x
58 3/4-y,1/2+z,1/4-x
59 y,3/4-z,3/4-x
60 1/4-y,1/4-z,x
61 1/4+y,1/4+x,-z
62 1/2-y,-x,1/2-z
63 3/4+y,1/2-x,1/4+z
64 -y,3/4+x,3/4+z
65 1/4+x,1/4+z,-y
66 -x,3/4+z,3/4+y
67 1/2-x,-z,1/2-y
68 3/4+x,1/2-z,1/4+y
69 1/4+z,1/4+y,-x
70 3/4+z,1/2-y,1/4+x
71 -z,3/4+y,3/4+x
72 1/2-z,-y,1/2-x
73 1/2+x,1/2+y,z
74 1/4-x,3/4-y,1/2+z
75 3/4-x,y,3/4-z
76 x,1/4-y,1/4-z
77 1/2+z,1/2+x,y
78 z,1/4-x,1/4-y
79 1/4-z,3/4-x,1/2+y
80 3/4-z,x,3/4-y
81 1/2+y,1/2+z,x
82 3/4-y,z,3/4-x
83 y,1/4-z,1/4-x
84 1/4-y,3/4-z,1/2+x
85 1/4+y,3/4+x,1/2-z
86 1/2-y,1/2-x,-z
87 3/4+y,-x,3/4+z
88 -y,1/4+x,1/4+z
89 1/4+x,3/4+z,1/2-y
90 -x,1/4+z,1/4+y
91 1/2-x,1/2-z,-y
92 3/4+x,-z,3/4+y
93 1/4+z,3/4+y,1/2-x
94 3/4+z,-y,3/4+x
95 -z,1/4+y,1/4+x
96 1/2-z,1/2-y,-x
97 -x,-y,-z
98 1/4+x,3/4+y,1/2-z
99 3/4+x,1/2-y,1/4+z
100 1/2-x,1/4+y,3/4+z
101 -z,-x,-y
102 1/2-z,1/4+x,3/4+y
103 1/4+z,3/4+x,1/2-y
104 3/4+z,1/2-x,1/4+y
105 -y,-z,-x
106 3/4+y,1/2-z,1/4+x
107 1/2-y,1/4+z,3/4+x
108 1/4+y,3/4+z,1/2-x
109 1/4-y,3/4-x,1/2+z
110 y,x,z
111 3/4-y,1/2+x,1/4-z
112 1/2+y,1/4-x,3/4-z
113 1/4-x,3/4-z,1/2+y
114 1/2+x,1/4-z,3/4-y
115 x,z,y
116 3/4-x,1/2+z,1/4-y
117 1/4-z,3/4-y,1/2+x
118 3/4-z,1/2+y,1/4-x
119 1/2+z,1/4-y,3/4-x
120 z,y,x
121 -x,1/2-y,1/2-z
122 1/4+x,1/4+y,-z
123 3/4+x,-y,3/4+z
124 1/2-x,3/4+y,1/4+z
125 -z,1/2-x,1/2-y
126 1/2-z,3/4+x,1/4+y
127 1/4+z,1/4+x,-y
128 3/4+z,-x,3/4+y
129 -y,1/2-z,1/2-x
130 3/4+y,-z,3/4+x
131 1/2-y,3/4+z,1/4+x
132 1/4+y,1/4+z,-x
133 1/4-y,1/4-x,z
134 y,1/2+x,1/2+z
135 3/4-y,x,3/4-z
136 1/2+y,3/4-x,1/4-z
137 1/4-x,1/4-z,y
138 1/2+x,3/4-z,1/4-y
139 x,1/2+z,1/2+y
140 3/4-x,z,3/4-y
141 1/4-z,1/4-y,x
142 3/4-z,y,3/4-x
143 1/2+z,3/4-y,1/4-x
144 z,1/2+y,1/2+x
145 1/2-x,-y,1/2-z
146 3/4+x,3/4+y,-z
147 1/4+x,1/2-y,3/4+z
148 -x,1/4+y,1/4+z
149 1/2-z,-x,1/2-y
150 -z,1/4+x,1/4+y
151 3/4+z,3/4+x,-y
152 1/4+z,1/2-x,3/4+y
153 1/2-y,-z,1/2-x
154 1/4+y,1/2-z,3/4+x
155 -y,1/4+z,1/4+x
156 3/4+y,3/4+z,-x
157 3/4-y,3/4-x,z
158 1/2+y,x,1/2+z
159 1/4-y,1/2+x,3/4-z
160 y,1/4-x,1/4-z
161 3/4-x,3/4-z,y
162 x,1/4-z,1/4-y
163 1/2+x,z,1/2+y
164 1/4-x,1/2+z,3/4-y
165 3/4-z,3/4-y,x
166 1/4-z,1/2+y,3/4-x
167 z,1/4-y,1/4-x
168 1/2+z,y,1/2+x
169 1/2-x,1/2-y,-z
170 3/4+x,1/4+y,1/2-z
171 1/4+x,-y,1/4+z
172 -x,3/4+y,3/4+z
173 1/2-z,1/2-x,-y
174 -z,3/4+x,3/4+y
175 3/4+z,1/4+x,1/2-y
176 1/4+z,-x,1/4+y
177 1/2-y,1/2-z,-x
178 1/4+y,-z,1/4+x
179 -y,3/4+z,3/4+x
180 3/4+y,1/4+z,1/2-x
181 3/4-y,1/4-x,1/2+z
182 1/2+y,1/2+x,z
183 1/4-y,x,1/4-z
184 y,3/4-x,3/4-z
185 3/4-x,1/4-z,1/2+y
186 x,3/4-z,3/4-y
187 1/2+x,1/2+z,y
188 1/4-x,z,1/4-y
189 3/4-z,1/4-y,1/2+x
190 1/4-z,y,1/4-x
191 z,3/4-y,3/4-x
192 1/2+z,1/2+y,x
_cell_length_a                   44.856(2)
_cell_length_b                   44.856(2)
_cell_length_c                   44.856(2)
_cell_angle_alpha                90
_cell_angle_beta                 90
_cell_angle_gamma                90
_cell_volume                     90253
loop_
_atom_site_label
_atom_site_type_symbol
_atom_site_fract_x
_atom_site_fract_y
_atom_site_fract_z
Zr1 Zr 0.50002(2) 0.50002(2) 0.44481(2)
O1 O 0.50096(11) 0.54349(13) 0.42119(11)
O2 O 0.47084(16) 0.47084(16) 0.47084(16)
O3 O 0.47282(8) 0.52715(8) 0.47282(8)
O4 O 0.45933(17) 0.50041(15) 0.41689(15)
C1 C 0.5000 0.57008(14) 0.42992(14)
C2 C 0.5000 0.59310(14) 0.40690(14)
C3 C 0.50247(9) 0.58549(15) 0.37698(10)
H1 H 0.5042 0.5651 0.3714
C4 C 0.50246(9) 0.60745(11) 0.35512(16)
H2 H 0.5042 0.6019 0.3348
C5 C 0.5000 0.63743(17) 0.36257(17)
C6 C 0.5000 0.66023(15) 0.33977(15)
C7 C 0.51624(11) 0.65668(12) 0.31361(11)
H3 H 0.5275 0.6390 0.3107
C8 C 0.51637(11) 0.67847(11) 0.29158(12)
H4 H 0.5276 0.6756 0.2739
C9 C 0.5000 0.70447(16) 0.29553(16)
C10 C 0.5000 0.72816(13) 0.27184(13)
C11 C 0.4288(3) 0.5017(5) 0.4288(3)
C12 C 0.4052(3) 0.4983(5) 0.4052(3)
O1R O 0.49904(11) 0.57881(11) 0.45651(13)
C3R C 0.49753(9) 0.62302(10) 0.41451(15)
H1R H 0.4958 0.6286 0.4349
C4R C 0.49754(9) 0.64488(16) 0.39255(11)
H2R H 0.4958 0.6652 0.3981
C7R C 0.48376(11) 0.68639(11) 0.34332(12)
H3R H 0.4725 0.6893 0.3610
C8R C 0.48363(11) 0.70842(12) 0.32153(11)
H4R H 0.4724 0.7261 0.3244
O1VD O 0.67119(11) 0.75096(11) 0.45651(13)
C1VD C 0.67992(14) 0.7500 0.42992(14)
C2VD C 0.65690(14) 0.7500 0.40690(14)
C3VD C 0.62698(10) 0.75247(9) 0.41451(15)
H1VD H 0.6214 0.7542 0.4349
C4VD C 0.60512(16) 0.75246(9) 0.39255(11)
H2VD H 0.5848 0.7542 0.3981
C5VD C 0.61257(17) 0.7500 0.36257(17)
C6VD C 0.58977(15) 0.7500 0.33977(15)
C7VD C 0.56361(11) 0.76624(11) 0.34332(12)
H3VD H 0.5607 0.7775 0.3610
C8VD C 0.54158(12) 0.76637(11) 0.32153(11)
H4VD H 0.5239 0.7776 0.3244
C9VD C 0.54553(16) 0.7500 0.29553(16)
C10VD C 0.52184(13) 0.7500 0.27184(13)
O1YD O 0.29349(13) 0.57881(11) 0.25096(11)
C1YD C 0.32008(14) 0.57008(14) 0.2500
C2YD C 0.34310(14) 0.59310(14) 0.2500
C3YD C 0.33549(15) 0.62302(10) 0.25247(9)
H1YD H 0.3151 0.6286 0.2542
C4YD C 0.35745(11) 0.64488(16) 0.25246(9)
H2YD H 0.3519 0.6652 0.2542
C5YD C 0.38743(17) 0.63743(17) 0.2500
C6YD C 0.41023(15) 0.66023(15) 0.2500
C7YD C 0.40668(12) 0.68639(11) 0.26624(11)
H3YD H 0.3890 0.6893 0.2775
C8YD C 0.42847(11) 0.70842(12) 0.26637(11)
H4YD H 0.4256 0.7261 0.2776
C9YD C 0.45447(16) 0.70447(16) 0.2500
C10YD C 0.47816(13) 0.72816(13) 0.2500
O1BE O 0.70651(13) 0.74904(11) 0.42119(11)
C3BE C 0.66451(15) 0.74753(9) 0.37698(10)
H1BE H 0.6849 0.7458 0.3714
C4BE C 0.64255(11) 0.74754(9) 0.35512(16)
H2BE H 0.6481 0.7458 0.3348
C7BE C 0.59332(12) 0.73376(11) 0.31361(11)
H3BE H 0.6110 0.7225 0.3107
C8BE C 0.57153(11) 0.73363(11) 0.29158(12)
H4BE H 0.5744 0.7224 0.2739
O1KE O 0.32881(11) 0.54349(13) 0.24904(11)
C3KE C 0.37302(10) 0.58549(15) 0.24753(9)
H1KE H 0.3786 0.5651 0.2458
C4KE C 0.39488(16) 0.60745(11) 0.24754(9)
H2KE H 0.4152 0.6019 0.2458
C7KE C 0.43639(11) 0.65668(12) 0.23376(11)
H3KE H 0.4393 0.6390 0.2225
C8KE C 0.45842(12) 0.67847(11) 0.23363(11)
H4KE H 0.4761 0.6756 0.2224
O1F O 0.32881(11) 0.74904(11) 0.04349(13)
C1F C 0.32008(14) 0.7500 0.07008(14)
C2F C 0.34310(14) 0.7500 0.09310(14)
C3F C 0.37302(10) 0.74753(9) 0.08549(15)
H1F H 0.3786 0.7458 0.0651
C4F C 0.39488(16) 0.74754(9) 0.10745(11)
H2F H 0.4152 0.7458 0.1019
C5F C 0.38743(17) 0.7500 0.13743(17)
C6F C 0.41023(15) 0.7500 0.16023(15)
C7F C 0.43639(11) 0.73376(11) 0.15668(12)
H3F H 0.4393 0.7225 0.1390
C8F C 0.45842(12) 0.73363(11) 0.17847(11)
H4F H 0.4761 0.7224 0.1756
C9F C 0.45447(16) 0.7500 0.20447(16)
C10F C 0.47816(13) 0.7500 0.22816(13)
O1I O 0.70651(13) 0.92119(11) 0.24904(11)
C1I C 0.67992(14) 0.92992(14) 0.2500
C2I C 0.65690(14) 0.90690(14) 0.2500
C3I C 0.66451(15) 0.87698(10) 0.24753(9)
H1I H 0.6849 0.8714 0.2458
C4I C 0.64255(11) 0.85512(16) 0.24754(9)
H2I H 0.6481 0.8348 0.2458
C5I C 0.61257(17) 0.86257(17) 0.2500
C6I C 0.58977(15) 0.83977(15) 0.2500
C7I C 0.59332(12) 0.81361(11) 0.23376(11)
H3I H 0.6110 0.8107 0.2225
C8I C 0.57153(11) 0.79158(12) 0.23363(11)
H4I H 0.5744 0.7739 0.2224
C9I C 0.54553(16) 0.79553(16) 0.2500
C10I C 0.52184(13) 0.77184(13) 0.2500
O1L O 0.29349(13) 0.75096(11) 0.07881(11)
C3L C 0.33549(15) 0.75247(9) 0.12302(10)
H1L H 0.3151 0.7542 0.1286
C4L C 0.35745(11) 0.75246(9) 0.14488(16)
H2L H 0.3519 0.7542 0.1652
C7L C 0.40668(12) 0.76624(11) 0.18639(11)
H3L H 0.3890 0.7775 0.1893
C8L C 0.42847(11) 0.76637(11) 0.20842(12)
H4L H 0.4256 0.7776 0.2261
O1U O 0.67119(11) 0.95651(13) 0.25096(11)
C3U C 0.62698(10) 0.91451(15) 0.25247(9)
H1U H 0.6214 0.9349 0.2542
C4U C 0.60512(16) 0.89255(11) 0.25246(9)
H2U H 0.5848 0.8981 0.2542
C7U C 0.56361(11) 0.84332(12) 0.26624(11)
H3U H 0.5607 0.8610 0.2775
C8U C 0.54158(12) 0.82153(11) 0.26637(11)
H4U H 0.5239 0.8244 0.2776
O1PD O 0.49904(11) 0.95651(13) 0.07881(11)
C1PD C 0.5000 0.92992(14) 0.07008(14)
C2PD C 0.5000 0.90690(14) 0.09310(14)
C3PD C 0.49753(9) 0.91451(15) 0.12302(10)
H1PD H 0.4958 0.9349 0.1286
C4PD C 0.49754(9) 0.89255(11) 0.14488(16)
H2PD H 0.4958 0.8981 0.1652
C5PD C 0.5000 0.86257(17) 0.13743(17)
C6PD C 0.5000 0.83977(15) 0.16023(15)
C7PD C 0.48376(11) 0.84332(12) 0.18639(11)
H3PD H 0.4725 0.8610 0.1893
C8PD C 0.48363(11) 0.82153(11) 0.20842(12)
H4PD H 0.4724 0.8244 0.2261
C9PD C 0.5000 0.79553(16) 0.20447(16)
C10PD C 0.5000 0.77184(13) 0.22816(13)
O1HE O 0.50096(11) 0.92119(11) 0.04349(13)
C3HE C 0.50247(9) 0.87698(10) 0.08549(15)
H1HE H 0.5042 0.8714 0.0651
C4HE C 0.50246(9) 0.85512(16) 0.10745(11)
H2HE H 0.5042 0.8348 0.1019
C7HE C 0.51624(11) 0.81361(11) 0.15668(12)
H3HE H 0.5275 0.8107 0.1390
C8HE C 0.51637(11) 0.79158(12) 0.17847(11)
H4HE H 0.5276 0.7739 0.1756
O4OD O 0.41689(15) 0.50041(15) 0.45933(17)
Zr1D Zr 0.44481(2) 0.50002(2) 0.50002(2)
O3D O 0.47282(8) 0.47282(8) 0.52715(8)
O4D O 0.41689(15) 0.45933(17) 0.50041(15)
C11D C 0.4288(3) 0.4288(3) 0.5017(5)
C12D C 0.4052(3) 0.4052(3) 0.4983(5)
O4JD O 0.45933(17) 0.41689(15) 0.50041(15)
Zr1H Zr 0.50002(2) 0.44481(2) 0.50002(2)
O3H O 0.52715(8) 0.47282(8) 0.47282(8)
O4H O 0.50041(15) 0.41689(15) 0.45933(17)
C11H C 0.5017(5) 0.4288(3) 0.4288(3)
C12H C 0.4983(5) 0.4052(3) 0.4052(3)
O4ED O 0.50041(15) 0.45933(17) 0.41689(15)
Zr1M Zr 0.49998(2) 0.49998(2) 0.55519(2)
O2M O 0.52916(16) 0.52916(16) 0.52916(16)
O3M O 0.47285(8) 0.52718(8) 0.52718(8)
O4M O 0.49959(15) 0.54067(17) 0.58311(15)
C11M C 0.4983(5) 0.5712(3) 0.5712(3)
C12M C 0.5017(5) 0.5948(3) 0.5948(3)
O4ZC O 0.49959(15) 0.58311(15) 0.54067(17)
Zr1R Zr 0.49998(2) 0.55519(2) 0.49998(2)
O3R O 0.52718(8) 0.52718(8) 0.47285(8)
O4R O 0.54067(17) 0.58311(15) 0.49959(15)
C11R C 0.5712(3) 0.5712(3) 0.4983(5)
C12R C 0.5948(3) 0.5948(3) 0.5017(5)
O4VC O 0.58311(15) 0.54067(17) 0.49959(15)
Zr1W Zr 0.55519(2) 0.49998(2) 0.49998(2)
O3W O 0.52718(8) 0.47285(8) 0.52718(8)
O4W O 0.58311(15) 0.49959(15) 0.54067(17)
C11W C 0.5712(3) 0.4983(5) 0.5712(3)
C12W C 0.5948(3) 0.5017(5) 0.5948(3)
O4RC O 0.54067(17) 0.49959(15) 0.58311(15)
Zr1F Zr 0.30519(2) 0.74998(2) 0.00002(2)
Zr1I Zr 0.74998(2) 0.94481(2) 0.24998(2)
Zr1L Zr 0.25002(2) 0.75002(2) 0.05519(2)
Zr1U Zr 0.69481(2) 0.99998(2) 0.25002(2)
Zr1FA Zr 0.50002(2) 0.94481(2) 0.00002(2)
Zr1KA Zr 0.49998(2) 0.99998(2) 0.05519(2)
Zr1WA Zr 0.74998(2) 0.74998(2) 0.44481(2)
Zr1PB Zr 0.69481(2) 0.75002(2) 0.49998(2)
Zr1AC Zr 0.30519(2) 0.50002(2) 0.24998(2)
Zr1MC Zr 0.25002(2) 0.55519(2) 0.25002(2)
O1D O 0.42119(11) 0.50096(11) 0.54349(13)
O1H O 0.54349(13) 0.42119(11) 0.50096(11)
O1M O 0.45651(13) 0.49904(11) 0.57881(11)
O1W O 0.57881(11) 0.45651(13) 0.49904(11)
O1RC O 0.49904(11) 0.45651(13) 0.57881(11)
O1VC O 0.57881(11) 0.49904(11) 0.45651(13)
O1ZC O 0.45651(13) 0.57881(11) 0.49904(11)
O1ED O 0.54349(13) 0.50096(11) 0.42119(11)
O1JD O 0.50096(11) 0.42119(11) 0.54349(13)
O1OD O 0.42119(11) 0.54349(13) 0.50096(11)
loop_
_geom_bond_atom_site_label_1
_geom_bond_atom_site_label_2
_geom_bond_site_symmetry_1
_geom_bond_site_symmetry_2
Zr1 O1 1_555 1_555
O1 C1 1_555 1_555
O2 Zr1 1_555 1_555
O3 Zr1 1_555 1_555
O4 Zr1 1_555 1_555
C1 C2 1_555 1_555
C2 C3 1_555 1_555
C3 H1 1_555 1_555
C4 C3 1_555 1_555
H2 C4 1_555 1_555
C5 C4 1_555 1_555
C6 C5 1_555 1_555
C7 C6 1_555 1_555
H3 C7 1_555 1_555
C8 C7 1_555 1_555
H4 C8 1_555 1_555
C9 C8 1_555 1_555
C10 C9 1_555 1_555
C11 O4 1_555 1_555
C12 C11 1_555 1_555
O1R C1 1_555 1_555
C3R C2 1_555 1_555
H1R C3R 1_555 1_555
C4R C5 1_555 1_555
H2R C4R 1_555 1_555
C7R C6 1_555 1_555
H3R C7R 1_555 1_555
C8R C9 1_555 1_555
H4R C8R 1_555 1_555
O1VD C1VD 1_555 1_555
C1VD C2VD 1_555 1_555
C2VD C3VD 1_555 1_555
C3VD H1VD 1_555 1_555
C4VD C3VD 1_555 1_555
H2VD C4VD 1_555 1_555
C5VD C4VD 1_555 1_555
C6VD C5VD 1_555 1_555
C7VD C6VD 1_555 1_555
H3VD C7VD 1_555 1_555
C8VD C7VD 1_555 1_555
H4VD C8VD 1_555 1_555
C9VD C8VD 1_555 1_555
C10VD C10 1_555 1_555
O1YD C1YD 1_555 1_555
C1YD C2YD 1_555 1_555
C2YD C3YD 1_555 1_555
C3YD H1YD 1_555 1_555
C4YD C3YD 1_555 1_555
H2YD C4YD 1_555 1_555
C5YD C4YD 1_555 1_555
C6YD C5YD 1_555 1_555
C7YD C6YD 1_555 1_555
H3YD C7YD 1_555 1_555
C8YD C7YD 1_555 1_555
H4YD C8YD 1_555 1_555
C9YD C8YD 1_555 1_555
C10YD C10 1_555 1_555
O1BE C1VD 1_555 1_555
C3BE C2VD 1_555 1_555
H1BE C3BE 1_555 1_555
C4BE C5VD 1_555 1_555
H2BE C4BE 1_555 1_555
C7BE C6VD 1_555 1_555
H3BE C7BE 1_555 1_555
C8BE C9VD 1_555 1_555
H4BE C8BE 1_555 1_555
O1KE C1YD 1_555 1_555
C3KE C2YD 1_555 1_555
H1KE C3KE 1_555 1_555
C4KE C5YD 1_555 1_555
H2KE C4KE 1_555 1_555
C7KE C6YD 1_555 1_555
H3KE C7KE 1_555 1_555
C8KE C9YD 1_555 1_555
H4KE C8KE 1_555 1_555
O1F C1F 1_555 1_555
C1F C2F 1_555 1_555
C2F C3F 1_555 1_555
C3F H1F 1_555 1_555
C4F C3F 1_555 1_555
H2F C4F 1_555 1_555
C5F C4F 1_555 1_555
C6F C5F 1_555 1_555
C7F C6F 1_555 1_555
H3F C7F 1_555 1_555
C8F C7F 1_555 1_555
H4F C8F 1_555 1_555
C9F C8F 1_555 1_555
C10F C10YD 1_555 1_555
O1I C1I 1_555 1_555
C1I C2I 1_555 1_555
C2I C3I 1_555 1_555
C3I H1I 1_555 1_555
C4I C3I 1_555 1_555
H2I C4I 1_555 1_555
C5I C4I 1_555 1_555
C6I C5I 1_555 1_555
C7I C6I 1_555 1_555
H3I C7I 1_555 1_555
C8I C7I 1_555 1_555
H4I C8I 1_555 1_555
C9I C8I 1_555 1_555
C10I C10VD 1_555 1_555
O1L C1F 1_555 1_555
C3L C2F 1_555 1_555
H1L C3L 1_555 1_555
C4L C5F 1_555 1_555
H2L C4L 1_555 1_555
C7L C6F 1_555 1_555
H3L C7L 1_555 1_555
C8L C9F 1_555 1_555
H4L C8L 1_555 1_555
O1U C1I 1_555 1_555
C3U C2I 1_555 1_555
H1U C3U 1_555 1_555
C4U C5I 1_555 1_555
H2U C4U 1_555 1_555
C7U C6I 1_555 1_555
H3U C7U 1_555 1_555
C8U C9I 1_555 1_555
H4U C8U 1_555 1_555
O1PD C1PD 1_555 1_555
C1PD C2PD 1_555 1_555
C2PD C3PD 1_555 1_555
C3PD H1PD 1_555 1_555
C4PD C3PD 1_555 1_555
H2PD C4PD 1_555 1_555
C5PD C4PD 1_555 1_555
C6PD C5PD 1_555 1_555
C7PD C6PD 1_555 1_555
H3PD C7PD 1_555 1_555
C8PD C7PD 1_555 1_555
H4PD C8PD 1_555 1_555
C9PD C8PD 1_555 1_555
C10PD C10F 1_555 1_555
O1HE C1PD 1_555 1_555
C3HE C2PD 1_555 1_555
H1HE C3HE 1_555 1_555
C4HE C5PD 1_555 1_555
H2HE C4HE 1_555 1_555
C7HE C6PD 1_555 1_555
H3HE C7HE 1_555 1_555
C8HE C9PD 1_555 1_555
H4HE C8HE 1_555 1_555
O4OD C11 1_555 1_555
Zr1D O2 1_555 1_555
O3D Zr1D 1_555 1_555
O4D Zr1D 1_555 1_555
C11D O4D 1_555 1_555
C12D C11D 1_555 1_555
O4JD C11D 1_555 1_555
Zr1H O2 1_555 1_555
O3H Zr1 1_555 1_555
O4H Zr1H 1_555 1_555
C11H O4H 1_555 1_555
C12H C11H 1_555 1_555
O4ED Zr1 1_555 1_555
Zr1M O3D 1_555 1_555
O2M Zr1M 1_555 1_555
O3M Zr1D 1_555 1_555
O4M Zr1M 1_555 1_555
C11M O4M 1_555 1_555
C12M C11M 1_555 1_555
O4ZC C11M 1_555 1_555
Zr1R O3 1_555 1_555
O3R Zr1 1_555 1_555
O4R Zr1R 1_555 1_555
C11R O4R 1_555 1_555
C12R C11R 1_555 1_555
O4VC C11R 1_555 1_555
Zr1W O3H 1_555 1_555
O3W Zr1H 1_555 1_555
O4W Zr1W 1_555 1_555
C11W O4W 1_555 1_555
C12W C11W 1_555 1_555
O4RC Zr1M 1_555 1_555
Zr1F O1F 1_555 1_555
Zr1I O1I 1_555 1_555
Zr1L O1L 1_555 1_555
Zr1U O1U 1_555 1_555
Zr1FA O1HE 1_555 1_555
Zr1KA O1PD 1_555 1_555
Zr1WA O1BE 1_555 1_555
Zr1PB O1VD 1_555 1_555
Zr1AC O1KE 1_555 1_555
Zr1MC O1YD 1_555 1_555
O1D Zr1D 1_555 1_555
O1H Zr1H 1_555 1_555
O1M Zr1M 1_555 1_555
O1W Zr1W 1_555 1_555
O1RC Zr1M 1_555 1_555
O1VC Zr1W 1_555 1_555
O1ZC Zr1R 1_555 1_555
O1ED Zr1 1_555 1_555
O1JD Zr1H 1_555 1_555
O1OD Zr1D 1_555 1_555
O3 Zr1D 1_555 1_555
O1R Zr1R 1_555 1_555
C3R C4R 1_555 1_555
C7R C8R 1_555 1_555
C9VD C10VD 1_555 1_555
C9YD C10YD 1_555 1_555
C3BE C4BE 1_555 1_555
C7BE C8BE 1_555 1_555
C3KE C4KE 1_555 1_555
C7KE C8KE 1_555 1_555
C9F C10F 1_555 1_555
C9I C10I 1_555 1_555
C10I C10PD 1_555 1_555
C3L C4L 1_555 1_555
C7L C8L 1_555 1_555
C3U C4U 1_555 1_555
C7U C8U 1_555 1_555
C9PD C10PD 1_555 1_555
C3HE C4HE 1_555 1_555
C7HE C8HE 1_555 1_555
O4OD Zr1D 1_555 1_555
O3D Zr1H 1_555 1_555
O4JD Zr1H 1_555 1_555
Zr1H O3H 1_555 1_555
C11H O4ED 1_555 1_555
Zr1M O3M 1_555 1_555
Zr1M O3W 1_555 1_555
O2M Zr1R 1_555 1_555
O2M Zr1W 1_555 1_555
O3M Zr1R 1_555 1_555
O4ZC Zr1R 1_555 1_555
Zr1R O3R 1_555 1_555
O3R Zr1W 1_555 1_555
O4VC Zr1W 1_555 1_555
Zr1W O3W 1_555 1_555
C11W O4RC 1_555 1_555

#END
