
#######################################################################
#
#                 Cambridge Crystallographic Data Centre
#                                CCDC 
#
#######################################################################
#
# If this CIF has been generated from an entry in the Cambridge 
# Structural Database, then it will include bibliographic, chemical, 
# crystal, experimental, refinement or atomic coordinate data resulting 
# from the CCDC's data processing and validation procedures.
#
#######################################################################

data_MEXDEY
_chemical_formula_moiety         '(C4 H18 N2 O18 P4 Zn5)n'
_symmetry_cell_setting           monoclinic
_symmetry_space_group_name_H-M   'P 21/n'
_symmetry_Int_Tables_number      14
_space_group_name_Hall           '-P 2yn'
loop_
_symmetry_equiv_pos_site_id
_symmetry_equiv_pos_as_xyz
1 x,y,z
2 1/2+x,1/2-y,1/2+z
3 -x,-y,-z
4 1/2-x,1/2+y,1/2-z
_cell_length_a                   5.1601(6)
_cell_length_b                   25.075(3)
_cell_length_c                   14.9860(19)
_cell_angle_alpha                90.00
_cell_angle_beta                 92.610(2)
_cell_angle_gamma                90.00
_cell_volume                     1937.02
loop_
_atom_site_label
_atom_site_type_symbol
_atom_site_fract_x
_atom_site_fract_y
_atom_site_fract_z
C1 C -1.243(5) 0.4548(9) 0.5449(16)
C3 C -1.214(3) 0.4223(6) 0.4780(10)
C4 C -1.207(2) 0.4010(5) 0.3950(9)
C5 C -1.123(3) 0.4378(6) 0.3075(10)
N1 N -1.019(3) 0.4910(7) 0.5715(12)
N3 N -0.917(4) 0.4671(7) 0.3368(13)
Zn1 Zn 0.35124(11) 0.21944(2) 0.69890(4)
Zn2 Zn 0.75148(11) 0.20978(2) 0.87726(4)
Zn3 Zn -0.15655(11) 0.25596(2) 0.57310(4)
Zn4 Zn -0.19090(11) 0.04202(2) 0.58568(4)
Zn5 Zn 0.15862(14) 0.38402(3) 0.75142(5)
P1 P 0.3242(2) 0.32527(5) 0.57902(8)
P2 P -0.1474(2) 0.15391(5) 0.69447(8)
P3 P 0.2684(2) 0.27980(5) 0.87534(8)
P4 P -0.6900(2) -0.02475(5) 0.61578(8)
O1 O 0.1317(7) 0.16014(14) 0.6660(2)
O2 O -0.2994(7) 0.20523(14) 0.6603(2)
O3 O 0.3980(7) 0.23136(15) 0.8274(2)
O4 O 0.1931(7) 0.27648(15) 0.6243(2)
O5 O -0.0211(7) 0.27056(16) 0.8804(3)
O6 O 0.1982(7) 0.33018(15) 0.4857(2)
O7 O -0.1607(8) 0.15308(15) 0.7960(3)
O8 O 0.4060(7) 0.28296(15) 0.9671(2)
O9 O 0.6143(7) 0.31531(15) 0.5773(3)
O10 O -0.3940(7) -0.01735(15) 0.6252(3)
O11 O -0.8224(7) 0.02901(14) 0.5969(3)
O12 O -0.2758(7) 0.10522(15) 0.6540(3)
O13 O -0.7492(8) -0.06438(15) 0.5393(2)
O14 O 0.3270(8) 0.32947(17) 0.8228(3)
O15 O 0.2702(7) 0.37565(14) 0.6312(2)
O16 O -0.7844(7) -0.04823(14) 0.7034(2)
O17 O -0.2226(10) 0.3865(3) 0.7591(5)
O2_2 O 0.7006(7) 0.20523(14) 0.6603(2)
O5_2 O 0.9789(7) 0.27056(16) 0.8804(3)
O6A O 0.6982(7) 0.16982(15) 0.9857(2)
O7_2 O 0.8393(8) 0.15308(15) 0.7960(3)
O8A O -0.0940(7) 0.21704(15) 0.4671(2)
O9_2 O -0.3857(7) 0.31531(15) 0.5773(3)
O11_2 O 0.1776(7) 0.02901(14) 0.5969(3)
O13B O -0.2508(8) 0.06438(15) 0.4607(2)
O16C O 0.2844(7) 0.45177(14) 0.7966(2)
Zn1_2 Zn -0.64876(11) 0.21944(2) 0.69890(4)
Zn2_2 Zn -0.24852(11) 0.20978(2) 0.87726(4)
Zn2A Zn 0.25148(11) 0.29022(2) 0.37726(4)
Zn3A Zn 0.34345(11) 0.24404(2) 1.07310(4)
Zn3_2 Zn 0.84345(11) 0.25596(2) 0.57310(4)
Zn4_2 Zn -1.19090(11) 0.04202(2) 0.58568(4)
Zn4B Zn -0.80910(11) -0.04202(2) 0.41432(4)
Zn5C Zn -0.65862(14) -0.11598(3) 0.74858(5)
O18 O 0.671(2) 0.4575(4) 0.7616(7)
O19 O -0.2359(9) 0.3754(2) 0.9868(3)
loop_
_geom_bond_atom_site_label_1
_geom_bond_atom_site_label_2
_geom_bond_site_symmetry_1
_geom_bond_site_symmetry_2
C1 C3 1_555 1_555
C3 C4 1_555 1_555
C4 C5 1_555 1_555
C5 N3 1_555 1_555
N1 C1 1_555 1_555
Zn1 O1 1_555 1_555
Zn2 O3 1_555 1_555
Zn3 O2 1_555 1_555
Zn4 O10 1_555 1_555
Zn5 O14 1_555 1_555
P1 O4 1_555 1_555
P2 O1 1_555 1_555
P3 O3 1_555 1_555
P4 O10 1_555 1_555
O2 P2 1_555 1_555
O3 Zn1 1_555 1_555
O4 Zn1 1_555 1_555
O5 P3 1_555 1_555
O6 P1 1_555 1_555
O7 P2 1_555 1_555
O8 P3 1_555 1_555
O9 P1 1_555 1_555
O11 P4 1_555 1_555
O12 Zn4 1_555 1_555
O13 P4 1_555 1_555
O14 P3 1_555 1_555
O15 Zn5 1_555 1_555
O16 P4 1_555 1_555
O17 Zn5 1_555 1_555
O2_2 Zn1 1_555 1_555
O5_2 Zn2 1_555 1_555
O6A Zn2 1_555 1_555
O7_2 Zn2 1_555 1_555
O8A Zn3 1_555 1_555
O9_2 Zn3 1_555 1_555
O11_2 Zn4 1_555 1_555
O13B Zn4 1_555 1_555
O16C Zn5 1_555 1_555
Zn1_2 O2 1_555 1_555
Zn2_2 O5 1_555 1_555
Zn2A O6 1_555 1_555
Zn3A O8 1_555 1_555
Zn3_2 O9 1_555 1_555
Zn4_2 O11 1_555 1_555
Zn4B O13 1_555 1_555
Zn5C O16 1_555 1_555
Zn3 O4 1_555 1_555
P1 O15 1_555 1_555
P2 O12 1_555 1_555
O7 Zn2_2 1_555 1_555
O2_2 Zn3_2 1_555 1_555

#END
