
#######################################################################
#
#                 Cambridge Crystallographic Data Centre
#                                CCDC 
#
#######################################################################
#
# If this CIF has been generated from an entry in the Cambridge 
# Structural Database, then it will include bibliographic, chemical, 
# crystal, experimental, refinement or atomic coordinate data resulting 
# from the CCDC's data processing and validation procedures.
#
#######################################################################

data_MEXDAU
_chemical_formula_moiety         '(C5 H21 N3 O16 P4 Zn3)n'
_symmetry_cell_setting           triclinic
_symmetry_space_group_name_H-M   'P -1'
_symmetry_Int_Tables_number      2
_space_group_name_Hall           '-P 1'
loop_
_symmetry_equiv_pos_site_id
_symmetry_equiv_pos_as_xyz
1 x,y,z
2 -x,-y,-z
_cell_length_a                   8.4408(13)
_cell_length_b                   9.2630(16)
_cell_length_c                   13.843(2)
_cell_angle_alpha                81.119(15)
_cell_angle_beta                 83.643(12)
_cell_angle_gamma                72.647(11)
_cell_volume                     1018.29
loop_
_atom_site_label
_atom_site_type_symbol
_atom_site_fract_x
_atom_site_fract_y
_atom_site_fract_z
Zn1 Zn 0.74556(5) 0.49370(4) 0.47314(3)
Zn2 Zn 0.70629(5) 0.08149(4) -0.01945(3)
Zn3 Zn 0.36247(5) 0.11199(4) 0.37406(3)
P1 P 0.90455(10) 0.56646(9) 0.64875(6)
P2 P 0.41496(11) 0.13549(10) 0.13603(6)
P3 P 0.98318(11) -0.20815(10) 0.07714(7)
P4 P 0.58102(10) 0.21723(9) 0.52006(6)
O1 O 0.8134(4) 0.4767(3) 0.6032(2)
O2 O 1.0921(3) 0.4979(3) 0.6354(2)
O3 O 0.7103(3) 0.2965(3) 0.47005(19)
O4 O 0.4348(3) 0.3300(3) 0.5697(2)
O5 O 0.5278(3) 0.2016(3) 0.06043(19)
O6 O 0.8330(3) -0.0698(3) 0.0765(2)
O7 O 0.4027(3) -0.0182(3) 0.11617(19)
O8 O 1.1399(3) -0.1789(3) 0.10273(19)
O9 O 0.5306(3) 0.1438(3) 0.44218(19)
O10 O 0.8493(3) 0.7362(3) 0.6129(2)
O11 O 0.6651(3) 0.0915(3) 0.60147(18)
O12 O 0.4699(3) 0.1242(3) 0.23929(18)
O13 O 0.8570(3) 0.5436(3) 0.76211(17)
H1 H 0.9281 0.4717 0.7885
O14 O 0.2317(3) 0.2469(3) 0.1301(2)
H2 H 0.2171 0.3106 0.1677
O15 O 0.9413(3) -0.3331(3) 0.1512(2)
O16 O 1.0233(4) -0.2604(4) -0.0280(2)
H3 H 0.9361 -0.2513 -0.0525
O2A O 0.9079(3) 0.5021(3) 0.3646(2)
O4A O 0.5652(3) 0.6700(3) 0.4303(2)
O7A O 0.5973(3) 0.0182(3) -0.11617(19)
O8A O 0.8601(3) 0.1789(3) -0.10273(19)
O10A O 0.1507(3) 0.2638(3) 0.3871(2)
O11A O 0.3349(3) -0.0915(3) 0.39853(18)
Zn1A Zn 1.25444(5) 0.50630(4) 0.52686(3)
Zn1A_2 Zn 0.25444(5) 0.50630(4) 0.52686(3)
Zn2A Zn 0.29371(5) -0.08149(4) 0.01945(3)
Zn2A_2 Zn 1.29371(5) -0.08149(4) 0.01945(3)
Zn3A Zn 0.63753(5) 0.88801(4) 0.62594(3)
Zn3A_2 Zn 0.63753(5) -0.11199(4) 0.62594(3)
N1 N 0.7334(5) -0.6430(4) 1.2153(3)
H4 H 0.7501 -0.6562 1.1515
H5 H 0.8090 -0.5997 1.2292
N2 N 1.0957(4) -1.1637(3) 1.3139(2)
H6 H 1.1007 -1.2518 1.3515
H7 H 1.1724 -1.1249 1.3300
H8 H 1.1145 -1.1792 1.2513
N3 N 0.6093(4) -0.2848(4) 1.2226(2)
H9 H 0.5884 -0.1930 1.1875
H10 H 0.7187 -0.3284 1.2213
H11 H 0.5691 -0.2753 1.2842
C1 C 0.9277(5) -1.0549(5) 1.3289(3)
H12 H 0.9059 -1.0393 1.3974
H13 H 0.8438 -1.0968 1.3116
C2 C 0.9189(5) -0.9042(4) 1.2659(3)
H14 H 1.0025 -0.8626 1.2841
H15 H 0.9437 -0.9212 1.1978
C3 C 0.7538(4) -0.7931(4) 1.2768(2)
H16 H 0.7312 -0.7760 1.3450
H17 H 0.6710 -0.8376 1.2610
C4 C 0.5608(5) -0.5405(4) 1.2349(3)
H18 H 0.5421 -0.5332 1.3047
H19 H 0.4810 -0.5872 1.2175
C5 C 0.5282(5) -0.3816(5) 1.1802(3)
H20 H 0.5692 -0.3882 1.1122
H21 H 0.4091 -0.3334 1.1815
loop_
_geom_bond_atom_site_label_1
_geom_bond_atom_site_label_2
_geom_bond_site_symmetry_1
_geom_bond_site_symmetry_2
Zn1 O1 1_555 1_555
Zn2 O5 1_555 1_555
Zn3 O9 1_555 1_555
P1 O1 1_555 1_555
P2 O5 1_555 1_555
P3 O6 1_555 1_555
P4 O3 1_555 1_555
O2 P1 1_555 1_555
O3 Zn1 1_555 1_555
O4 P4 1_555 1_555
O6 Zn2 1_555 1_555
O7 P2 1_555 1_555
O8 P3 1_555 1_555
O9 P4 1_555 1_555
O10 P1 1_555 1_555
O11 P4 1_555 1_555
O12 Zn3 1_555 1_555
O13 P1 1_555 1_555
H1 O13 1_555 1_555
O14 P2 1_555 1_555
H2 O14 1_555 1_555
O15 P3 1_555 1_555
O16 P3 1_555 1_555
H3 O16 1_555 1_555
N1 H4 1_555 1_555
H5 N1 1_555 1_555
N2 H6 1_555 1_555
H7 N2 1_555 1_555
H8 N2 1_555 1_555
N3 H9 1_555 1_555
H10 N3 1_555 1_555
H11 N3 1_555 1_555
C1 N2 1_555 1_555
H12 C1 1_555 1_555
H13 C1 1_555 1_555
C2 C1 1_555 1_555
H14 C2 1_555 1_555
H15 C2 1_555 1_555
C3 N1 1_555 1_555
H16 C3 1_555 1_555
H17 C3 1_555 1_555
C4 N1 1_555 1_555
H18 C4 1_555 1_555
H19 C4 1_555 1_555
C5 N3 1_555 1_555
H20 C5 1_555 1_555
H21 C5 1_555 1_555
O2A Zn1 1_555 1_555
O4A Zn1 1_555 1_555
O7A Zn2 1_555 1_555
O8A Zn2 1_555 1_555
O10A Zn3 1_555 1_555
O11A Zn3 1_555 1_555
Zn1A O2 1_555 1_555
Zn1A_2 O4 1_555 1_555
Zn2A O7 1_555 1_555
Zn2A_2 O8 1_555 1_555
Zn3A O10 1_555 1_555
Zn3A_2 O11 1_555 1_555
P2 O12 1_555 1_555
C2 C3 1_555 1_555
C4 C5 1_555 1_555

#END
