
#######################################################################
#
#                 Cambridge Crystallographic Data Centre
#                                CCDC 
#
#######################################################################
#
# If this CIF has been generated from an entry in the Cambridge 
# Structural Database, then it will include bibliographic, chemical, 
# crystal, experimental, refinement or atomic coordinate data resulting 
# from the CCDC's data processing and validation procedures.
#
#######################################################################

data_DUFKAS
_chemical_formula_moiety         '(C93 H92 Ce4 N6 O38)n'
_symmetry_cell_setting           orthorhombic
_symmetry_space_group_name_H-M   'C m c a'
_symmetry_Int_Tables_number      64
_space_group_name_Hall           '-C 2ac 2'
loop_
_symmetry_equiv_pos_site_id
_symmetry_equiv_pos_as_xyz
1 x,y,z
2 -x,1/2-y,1/2+z
3 -x,1/2+y,1/2-z
4 x,-y,-z
5 1/2+x,1/2+y,z
6 1/2-x,-y,1/2+z
7 1/2-x,y,1/2-z
8 1/2+x,1/2-y,-z
9 -x,-y,-z
10 x,1/2+y,1/2-z
11 x,1/2-y,1/2+z
12 -x,y,z
13 1/2-x,1/2-y,-z
14 1/2+x,y,1/2-z
15 1/2+x,-y,1/2+z
16 1/2-x,1/2+y,z
_cell_length_a                   46.072(14)
_cell_length_b                   35.831(11)
_cell_length_c                   28.608(9)
_cell_angle_alpha                90
_cell_angle_beta                 90
_cell_angle_gamma                90
_cell_volume                     47226.3
loop_
_atom_site_label
_atom_site_type_symbol
_atom_site_fract_x
_atom_site_fract_y
_atom_site_fract_z
Ce1 Ce 0.16935(2) 0.11522(3) 0.23585(3)
Ce2 Ce 0.2500 0.15403(4) 0.2500
Ce3 Ce 0.5000 -0.05510(14) 0.5294(2)
C1 C 0.1928(4) 0.1400(4) -0.0417(5)
C2 C 0.1923(4) 0.1720(5) -0.0678(6)
H1 H 0.1968 0.1946 -0.0536
C3 C 0.1849(4) 0.1715(5) -0.1155(5)
C4 C 0.1776(5) 0.1376(5) -0.1363(6)
H2 H 0.1725 0.1368 -0.1677
C5 C 0.1780(4) 0.1050(4) -0.1099(6)
C6 C 0.1859(4) 0.1065(4) -0.0640(6)
H3 H 0.1867 0.0844 -0.0470
C7 C 0.2011(5) 0.1408(4) 0.0077(6)
C8 C 0.2241(5) 0.1628(6) 0.0231(6)
H4 H 0.2345 0.1771 0.0017
C9 C 0.2319(5) 0.1637(5) 0.0707(6)
H5 H 0.2475 0.1782 0.0803
C10 C 0.2167(5) 0.1436(5) 0.1028(5)
C11 C 0.1949(5) 0.1211(5) 0.0888(6)
H6 H 0.1856 0.1060 0.1106
C12 C 0.1860(4) 0.1200(4) 0.0420(6)
H7 H 0.1701 0.1056 0.0335
C13 C 0.1832(5) 0.2079(5) -0.1427(5)
C14 C 0.2048(5) 0.2331(5) -0.1391(5)
H8 H 0.2209 0.2285 -0.1205
C15 C 0.2022(5) 0.2667(5) -0.1642(6)
H9 H 0.2168 0.2844 -0.1612
C16 C 0.1791(5) 0.2744(5) -0.1930(6)
C17 C 0.1578(5) 0.2487(6) -0.1954(6)
H10 H 0.1413 0.2535 -0.2132
C18 C 0.1603(5) 0.2149(5) -0.1716(7)
H11 H 0.1460 0.1968 -0.1755
C19 C 0.1727(4) 0.0677(5) -0.1330(6)
C20 C 0.1843(5) 0.0615(4) -0.1768(7)
H12 H 0.1939 0.0808 -0.1920
C21 C 0.1819(5) 0.0264(5) -0.1996(6)
H13 H 0.1895 0.0228 -0.2294
C22 C 0.1682(4) -0.0023(5) -0.1763(6)
C23 C 0.1558(4) 0.0052(5) -0.1325(6)
H14 H 0.1455 -0.0134 -0.1171
C24 C 0.1587(4) 0.0397(5) -0.1120(5)
H15 H 0.1507 0.0437 -0.0826
C25 C 0.2248(5) 0.1462(5) 0.1527(6)
C26 C 0.1786(7) 0.3108(5) -0.2186(7)
C27 C 0.1685(4) -0.0404(5) -0.1964(7)
C28 C 0.2236(5) 0.0737(5) 0.3539(6)
C29 C 0.2502(5) 0.0585(5) 0.3461(5)
H16 H 0.2584 0.0604 0.3165
C30 C 0.2658(4) 0.0399(4) 0.3816(6)
H17 H 0.2838 0.0292 0.3756
C31 C 0.2535(5) 0.0381(5) 0.4253(6)
C32 C 0.2266(5) 0.0538(6) 0.4333(6)
H18 H 0.2184 0.0520 0.4629
C33 C 0.2117(4) 0.0718(5) 0.3988(7)
H19 H 0.1938 0.0827 0.4050
C34 C 0.2704(5) 0.0184(4) 0.4641(5)
C35 C 0.2552(6) 0.0000 0.5000
H20 H 0.2350 0.0000 0.5000
C36 C 0.2995(5) 0.0180(4) 0.4655(5)
H21 H 0.3098 0.0305 0.4423
C37 C 0.3147(7) 0.0000 0.5000
C38 C 0.3466(8) 0.0000 0.5000
C39 C 0.3623(5) 0.0293(6) 0.4820(6)
H22 H 0.3524 0.0495 0.4693
C40 C 0.3909(7) 0.0297(6) 0.4821(7)
H23 H 0.4004 0.0504 0.4699
C41 C 0.4075(8) 0.0000 0.5000
C42 C 0.4406(10) 0.0000 0.5000
C43 C 0.2065(6) 0.0927(4) 0.3163(7)
C44 C 0.1234(10) 0.1443(16) 0.1524(19)
C45 C 0.0902(13) 0.0887(12) 0.1366(18)
C46 C 0.0983(14) 0.1377(15) 0.0736(14)
C47 C 0.0994(14) 0.1246(17) 0.2539(19)
C48 C 0.0520(13) 0.1369(15) 0.297(3)
C49 C 0.0748(11) 0.1881(9) 0.2473(18)
N1 N 0.1041(13) 0.1234(12) 0.1207(14)
N2 N 0.0751(10) 0.1499(10) 0.265(2)
N3 N 0.2500 0.2555(6) 0.2500
O1 O 0.2113(3) 0.1290(3) 0.1850(4)
O2 O 0.2468(3) 0.1654(4) 0.1630(4)
O3 O 0.1579(3) -0.0668(3) -0.1728(4)
O4 O 0.1781(3) -0.0458(3) -0.2372(4)
O5 O 0.1522(4) 0.3243(4) -0.2232(5)
O6 O 0.1994(3) 0.3272(3) -0.2320(4)
O7 O 0.2209(3) 0.1003(3) 0.2773(4)
O8 O 0.1806(3) 0.0989(4) 0.3202(4)
O9 O 0.4533(4) -0.0280(7) 0.5169(9)
O10 O 0.2500 0.2222(5) 0.2500
O11 O 0.5000 0.0173(13) 0.5600(14)
O12 O 0.1449(3) 0.1582(4) 0.1735(4)
O13 O 0.1161(3) 0.0979(3) 0.2623(4)
O14 O 0.2310(5) 0.2755(6) 0.2368(13)
O15 O 0.4652(9) -0.0808(11) 0.5975(15)
O16 O 0.4625(15) -0.1110(17) 0.5156(16)
C28C C 0.2236(5) -0.0737(5) 0.6461(6)
C29C C 0.2502(5) -0.0585(5) 0.6539(5)
H16C H 0.2584 -0.0604 0.6835
C30C C 0.2658(4) -0.0399(4) 0.6184(6)
H17C H 0.2838 -0.0292 0.6244
C31C C 0.2535(5) -0.0381(5) 0.5747(6)
C32C C 0.2266(5) -0.0538(6) 0.5667(6)
H18C H 0.2184 -0.0520 0.5371
C33C C 0.2117(4) -0.0718(5) 0.6012(7)
H19C H 0.1938 -0.0827 0.5950
C34C C 0.2704(5) -0.0184(4) 0.5359(5)
C36C C 0.2995(5) -0.0180(4) 0.5345(5)
H21C H 0.3098 -0.0305 0.5577
C39C C 0.3623(5) -0.0293(6) 0.5180(6)
H22C H 0.3524 -0.0495 0.5307
C40C C 0.3909(7) -0.0297(6) 0.5179(7)
H23C H 0.4004 -0.0504 0.5301
C43C C 0.2065(6) -0.0927(4) 0.6837(7)
O7C O 0.2209(3) -0.1003(3) 0.7227(4)
O8C O 0.1806(3) -0.0989(4) 0.6798(4)
O9C O 0.4533(4) 0.0280(7) 0.4831(9)
O14F O 0.2690(5) 0.2755(6) 0.2632(13)
Ce1C Ce 0.16935(2) -0.11522(3) -0.23585(3)
C1C C 0.1928(4) -0.1400(4) 0.0417(5)
C2C C 0.1923(4) -0.1720(5) 0.0678(6)
H1C H 0.1968 -0.1946 0.0536
C3C C 0.1849(4) -0.1715(5) 0.1155(5)
C4C C 0.1776(5) -0.1376(5) 0.1363(6)
H2C H 0.1725 -0.1368 0.1677
C5C C 0.1780(4) -0.1050(4) 0.1099(6)
C6C C 0.1859(4) -0.1065(4) 0.0640(6)
H3C H 0.1867 -0.0844 0.0470
C7C C 0.2011(5) -0.1408(4) -0.0077(6)
C8C C 0.2241(5) -0.1628(6) -0.0231(6)
H4C H 0.2345 -0.1771 -0.0017
C9C C 0.2319(5) -0.1637(5) -0.0707(6)
H5C H 0.2475 -0.1782 -0.0803
C10C C 0.2167(5) -0.1436(5) -0.1028(5)
C11C C 0.1949(5) -0.1211(5) -0.0888(6)
H6C H 0.1856 -0.1060 -0.1106
C12C C 0.1860(4) -0.1200(4) -0.0420(6)
H7C H 0.1701 -0.1056 -0.0335
C13C C 0.1832(5) -0.2079(5) 0.1427(5)
C14C C 0.2048(5) -0.2331(5) 0.1391(5)
H8C H 0.2209 -0.2285 0.1205
C15C C 0.2022(5) -0.2667(5) 0.1642(6)
H9C H 0.2168 -0.2844 0.1612
C16C C 0.1791(5) -0.2744(5) 0.1930(6)
C17C C 0.1578(5) -0.2487(6) 0.1954(6)
H10C H 0.1413 -0.2535 0.2132
C18C C 0.1603(5) -0.2149(5) 0.1716(7)
H11C H 0.1460 -0.1968 0.1755
C19C C 0.1727(4) -0.0677(5) 0.1330(6)
C20C C 0.1843(5) -0.0615(4) 0.1768(7)
H12C H 0.1939 -0.0808 0.1920
C21C C 0.1819(5) -0.0264(5) 0.1996(6)
H13C H 0.1895 -0.0228 0.2294
C22C C 0.1682(4) 0.0023(5) 0.1763(6)
C23C C 0.1558(4) -0.0052(5) 0.1325(6)
H14C H 0.1455 0.0134 0.1171
C24C C 0.1587(4) -0.0397(5) 0.1120(5)
H15C H 0.1507 -0.0437 0.0826
C25C C 0.2248(5) -0.1462(5) -0.1527(6)
C26C C 0.1786(7) -0.3108(5) 0.2186(7)
C27C C 0.1685(4) 0.0404(5) 0.1964(7)
C44C C 0.1234(10) -0.1443(16) -0.1524(19)
C45C C 0.0902(13) -0.0887(12) -0.1366(18)
C46C C 0.0983(14) -0.1377(15) -0.0736(14)
C47C C 0.0994(14) -0.1246(17) -0.2539(19)
C48C C 0.0520(13) -0.1369(15) -0.297(3)
C49C C 0.0748(11) -0.1881(9) -0.2473(18)
N1C N 0.1041(13) -0.1234(12) -0.1207(14)
N2C N 0.0751(10) -0.1499(10) -0.265(2)
O1C O 0.2113(3) -0.1290(3) -0.1850(4)
O2C O 0.2468(3) -0.1654(4) -0.1630(4)
O3C O 0.1579(3) 0.0668(3) 0.1728(4)
O4C O 0.1781(3) 0.0458(3) 0.2372(4)
O5C O 0.1522(4) -0.3243(4) 0.2232(5)
O6C O 0.1994(3) -0.3272(3) 0.2320(4)
O12C O 0.1449(3) -0.1582(4) -0.1735(4)
O13C O 0.1161(3) -0.0979(3) -0.2623(4)
O15K O 0.5348(9) -0.0808(11) 0.5975(15)
O16K O 0.5375(15) -0.1110(17) 0.5156(16)
Ce1C_2 Ce 0.16935(2) -0.11522(3) 0.76415(3)
Ce1I Ce 0.16935(2) -0.38478(3) 0.26415(3)
Ce1J Ce 0.16935(2) 0.38478(3) -0.26415(3)
Ce2C Ce 0.2500 -0.15403(4) -0.2500
Ce2C_2 Ce 0.2500 -0.15403(4) 0.7500
Ce2I Ce 0.2500 -0.34597(4) 0.2500
Ce2J Ce 0.2500 0.34597(4) -0.2500
Ce3C Ce 0.5000 0.05510(14) 0.4706(2)
O1F O 0.2887(3) 0.1290(3) 0.3150(4)
O2F O 0.2532(3) 0.1654(4) 0.3370(4)
O5I O 0.1522(4) -0.1757(4) -0.2768(5)
O5J O 0.1522(4) 0.1757(4) 0.2768(5)
O6I O 0.1994(3) -0.1728(3) -0.2680(4)
O6J O 0.1994(3) 0.1728(3) 0.2680(4)
O6L O 0.3006(3) 0.1728(3) 0.2320(4)
O7C_2 O 0.2209(3) -0.1003(3) -0.2773(4)
O7F O 0.2791(3) 0.1003(3) 0.2227(4)
O8C_2 O 0.1806(3) -0.0989(4) -0.3202(4)
O9K O 0.5467(4) -0.0280(7) 0.5169(9)
O11C O 0.5000 -0.0173(13) 0.4400(14)
N4 N 0.2500 0.0687(13) 0.7500
O17 O 0.2500 0.0350(12) 0.7500
O18 O 0.2328(9) 0.0856(11) 0.7257(16)
O18F O 0.2672(9) 0.0856(11) 0.7743(16)
O19 O 0.2452(15) 0.143(2) 0.643(3)
O20 O 0.2632(12) 0.0852(16) 0.913(2)
O21 O 0.2931(14) 0.2369(18) 0.941(2)
O22 O 0.202(2) 0.175(3) 0.491(3)
O23 O 0.1684(15) 0.1689(18) 0.425(2)
loop_
_geom_bond_atom_site_label_1
_geom_bond_atom_site_label_2
_geom_bond_site_symmetry_1
_geom_bond_site_symmetry_2
Ce1 O1 1_555 1_555
Ce2 O1 1_555 1_555
Ce3 O9 1_555 1_555
C1 C2 1_555 1_555
C2 H1 1_555 1_555
C3 C2 1_555 1_555
C4 C3 1_555 1_555
H2 C4 1_555 1_555
C5 C4 1_555 1_555
C6 C1 1_555 1_555
H3 C6 1_555 1_555
C7 C1 1_555 1_555
C8 C7 1_555 1_555
H4 C8 1_555 1_555
C9 C8 1_555 1_555
H5 C9 1_555 1_555
C10 C9 1_555 1_555
C11 C10 1_555 1_555
H6 C11 1_555 1_555
C12 C7 1_555 1_555
H7 C12 1_555 1_555
C13 C3 1_555 1_555
C14 C13 1_555 1_555
H8 C14 1_555 1_555
C15 C14 1_555 1_555
H9 C15 1_555 1_555
C16 C15 1_555 1_555
C17 C16 1_555 1_555
H10 C17 1_555 1_555
C18 C13 1_555 1_555
H11 C18 1_555 1_555
C19 C5 1_555 1_555
C20 C19 1_555 1_555
H12 C20 1_555 1_555
C21 C20 1_555 1_555
H13 C21 1_555 1_555
C22 C21 1_555 1_555
C23 C22 1_555 1_555
H14 C23 1_555 1_555
C24 C19 1_555 1_555
H15 C24 1_555 1_555
C25 C10 1_555 1_555
C26 C16 1_555 1_555
C27 C22 1_555 1_555
C28 C29 1_555 1_555
C29 H16 1_555 1_555
C30 C29 1_555 1_555
H17 C30 1_555 1_555
C31 C30 1_555 1_555
C32 C31 1_555 1_555
H18 C32 1_555 1_555
C33 C28 1_555 1_555
H19 C33 1_555 1_555
C34 C31 1_555 1_555
C35 C34 1_555 1_555
H20 C35 1_555 1_555
C36 C34 1_555 1_555
H21 C36 1_555 1_555
C37 C36 1_555 1_555
C38 C37 1_555 1_555
C39 C38 1_555 1_555
H22 C39 1_555 1_555
C40 C39 1_555 1_555
H23 C40 1_555 1_555
C41 C40 1_555 1_555
C42 C41 1_555 1_555
C43 C28 1_555 1_555
C44 N1 1_555 1_555
C45 N1 1_555 1_555
C46 N1 1_555 1_555
C47 N2 1_555 1_555
C48 N2 1_555 1_555
C49 N2 1_555 1_555
N3 O10 1_555 1_555
O1 C25 1_555 1_555
O2 Ce2 1_555 1_555
O3 C27 1_555 1_555
O4 C27 1_555 1_555
O5 C26 1_555 1_555
O6 C26 1_555 1_555
O7 Ce1 1_555 1_555
O8 Ce1 1_555 1_555
O9 C42 1_555 1_555
O10 Ce2 1_555 1_555
O11 Ce3 1_555 1_555
O12 Ce1 1_555 1_555
O13 Ce1 1_555 1_555
O14 N3 1_555 1_555
O15 Ce3 1_555 1_555
O16 Ce3 1_555 1_555
N4 O17 1_555 1_555
O18 N4 1_555 1_555
C28C C29C 1_555 1_555
C29C H16C 1_555 1_555
C30C C29C 1_555 1_555
H17C C30C 1_555 1_555
C31C C30C 1_555 1_555
C32C C31C 1_555 1_555
H18C C32C 1_555 1_555
C33C C28C 1_555 1_555
H19C C33C 1_555 1_555
C34C C35 1_555 1_555
C36C C37 1_555 1_555
H21C C36C 1_555 1_555
C39C C38 1_555 1_555
H22C C39C 1_555 1_555
C40C C41 1_555 1_555
H23C C40C 1_555 1_555
C43C C28C 1_555 1_555
O7C C43C 1_555 1_555
O8C C43C 1_555 1_555
O9C C42 1_555 1_555
O14F N3 1_555 1_555
Ce1C O3 1_555 1_555
C1C C2C 1_555 1_555
C2C H1C 1_555 1_555
C3C C2C 1_555 1_555
C4C C3C 1_555 1_555
H2C C4C 1_555 1_555
C5C C4C 1_555 1_555
C6C C1C 1_555 1_555
H3C C6C 1_555 1_555
C7C C1C 1_555 1_555
C8C C7C 1_555 1_555
H4C C8C 1_555 1_555
C9C C8C 1_555 1_555
H5C C9C 1_555 1_555
C10C C9C 1_555 1_555
C11C C10C 1_555 1_555
H6C C11C 1_555 1_555
C12C C7C 1_555 1_555
H7C C12C 1_555 1_555
C13C C3C 1_555 1_555
C14C C13C 1_555 1_555
H8C C14C 1_555 1_555
C15C C14C 1_555 1_555
H9C C15C 1_555 1_555
C16C C15C 1_555 1_555
C17C C16C 1_555 1_555
H10C C17C 1_555 1_555
C18C C13C 1_555 1_555
H11C C18C 1_555 1_555
C19C C5C 1_555 1_555
C20C C19C 1_555 1_555
H12C C20C 1_555 1_555
C21C C20C 1_555 1_555
H13C C21C 1_555 1_555
C22C C21C 1_555 1_555
C23C C22C 1_555 1_555
H14C C23C 1_555 1_555
C24C C19C 1_555 1_555
H15C C24C 1_555 1_555
C25C C10C 1_555 1_555
C26C C16C 1_555 1_555
C27C C22C 1_555 1_555
C44C N1C 1_555 1_555
C45C N1C 1_555 1_555
C46C N1C 1_555 1_555
C47C N2C 1_555 1_555
C48C N2C 1_555 1_555
C49C N2C 1_555 1_555
O1C Ce1C 1_555 1_555
O2C C25C 1_555 1_555
O3C Ce1 1_555 1_555
O4C Ce1 1_555 1_555
O5C C26C 1_555 1_555
O6C C26C 1_555 1_555
O12C Ce1C 1_555 1_555
O13C Ce1C 1_555 1_555
O15K Ce3 1_555 1_555
O16K Ce3 1_555 1_555
Ce1C_2 O7C 1_555 1_555
Ce1I O5C 1_555 1_555
Ce1J O5 1_555 1_555
Ce2C O1C 1_555 1_555
Ce2C_2 O7C 1_555 1_555
Ce2I O6C 1_555 1_555
Ce2J O6 1_555 1_555
Ce3C O11 1_555 1_555
O1F Ce2 1_555 1_555
O2F Ce2 1_555 1_555
O5I Ce1C 1_555 1_555
O5J Ce1 1_555 1_555
O6I Ce1C 1_555 1_555
O6J Ce1 1_555 1_555
O6L Ce2 1_555 1_555
O7C_2 Ce1C 1_555 1_555
O7F Ce2 1_555 1_555
O8C_2 Ce1C 1_555 1_555
O9K Ce3 1_555 1_555
O11C Ce3 1_555 1_555
O18F N4 1_555 1_555
Ce2 O7 1_555 1_555
Ce2 O6J 1_555 1_555
C5 C6 1_555 1_555
C11 C12 1_555 1_555
C17 C18 1_555 1_555
C23 C24 1_555 1_555
C25 O2 1_555 1_555
C32 C33 1_555 1_555
C43 O7 1_555 1_555
C43 O8 1_555 1_555
C44 O12 1_555 1_555
C47 O13 1_555 1_555
O4 Ce1C 1_555 1_555
O6 Ce1J 1_555 1_555
C31C C34C 1_555 1_555
C32C C33C 1_555 1_555
C34C C36C 1_555 1_555
C39C C40C 1_555 1_555
O8C Ce1C_2 1_555 1_555
O9C Ce3C 1_555 1_555
C5C C6C 1_555 1_555
C11C C12C 1_555 1_555
C17C C18C 1_555 1_555
C23C C24C 1_555 1_555
C25C O1C 1_555 1_555
C27C O3C 1_555 1_555
C27C O4C 1_555 1_555
C44C O12C 1_555 1_555
C47C O13C 1_555 1_555
O2C Ce2C 1_555 1_555
O6C Ce1I 1_555 1_555
Ce2C O6I 1_555 1_555
Ce2C O7C_2 1_555 1_555
Ce3C O11C 1_555 1_555

#END
