
#######################################################################
#
#                 Cambridge Crystallographic Data Centre
#                                CCDC 
#
#######################################################################
#
# If this CIF has been generated from an entry in the Cambridge 
# Structural Database, then it will include bibliographic, chemical, 
# crystal, experimental, refinement or atomic coordinate data resulting 
# from the CCDC's data processing and validation procedures.
#
#######################################################################

data_KOQGAA
_chemical_formula_moiety         'C55 H47 N4 O17 Zn7'
_symmetry_cell_setting           tetragonal
_symmetry_space_group_name_H-M   'P 4 21 2'
_symmetry_Int_Tables_number      90
_space_group_name_Hall           'P 4ab 2ab'
loop_
_symmetry_equiv_pos_site_id
_symmetry_equiv_pos_as_xyz
1 x,y,z
2 -x,-y,z
3 1/2+x,1/2-y,-z
4 1/2-x,1/2+y,-z
5 -y,-x,-z
6 y,x,-z
7 1/2+y,1/2-x,z
8 1/2-y,1/2+x,z
_cell_length_a                   21.441(5)
_cell_length_b                   21.441(5)
_cell_length_c                   9.655(2)
_cell_angle_alpha                90
_cell_angle_beta                 90
_cell_angle_gamma                90
_cell_volume                     4438.56
loop_
_atom_site_label
_atom_site_type_symbol
_atom_site_fract_x
_atom_site_fract_y
_atom_site_fract_z
N3 N 0.0278(7) 0.2269(6) 0.4030(17)
O4 O 0.0636(6) 0.1541(6) 0.2664(14)
C14 C 0.0607(12) 0.1932(10) 0.345(4)
H11 H 0.1011 0.2018 0.3737
C15 C -0.0132(18) 0.238(2) 0.327(4)
H12 H -0.0423 0.2658 0.3715
H13 H -0.0341 0.2005 0.3010
H14 H 0.0031 0.2582 0.2453
C16 C 0.0346(14) 0.2809(9) 0.5156(17)
H15 H -0.0060 0.2963 0.5398
H16 H 0.0593 0.3143 0.4780
H17 H 0.0547 0.2646 0.5968
Zn1 Zn -0.0000 0.5000 0.35545(7)
Zn2 Zn 0.0000 0.5000 0.05132(7)
N1 N -0.0000 0.5000 0.5668(5)
N2 N -0.0000 0.5000 0.8387(5)
O1 O 0.0631(2) 0.4310(2) 0.0894(3)
C1 C 0.0728(2) 0.4048(2) 0.2039(5)
C2 C 0.1575(2) 0.2526(3) 0.1039(5)
C3 C 0.1118(2) 0.3017(2) 0.1011(5)
C4 C 0.1163(2) 0.3494(2) 0.2050(5)
C5 C 0.1616(3) 0.3468(3) 0.3053(4)
H1 H 0.1639 0.3774 0.3734
C6 C 0.2046(3) 0.2972(3) 0.3041(5)
H2 H 0.2344 0.2950 0.3738
C7 C 0.0640(2) 0.2987(3) 0.0044(6)
H3 H 0.0335 0.3296 0.0027
C8 C 0.2040(3) 0.2533(3) 0.2063(7)
H4 H 0.2349 0.2228 0.2059
C9 C 0.1553(3) 0.2045(3) 0.0031(7)
C10 C 0.0614(3) 0.2497(4) -0.0902(7)
H5 H 0.0284 0.2480 -0.1525
O2 O 0.1003(3) 0.1596(3) -0.1888(7)
H6 H 0.1288 0.1344 -0.1802
C11 C 0.1060(3) 0.2039(3) -0.0942(8)
O3 O 0.05168(18) 0.42231(17) 0.3180(3)
C12 C 0.0640(4) 0.4867(4) 0.7806(10)
H7 H 0.0779 0.4459 0.8109
H8 H 0.0934 0.5175 0.8147
C13 C 0.0621(5) 0.4889(5) 0.6216(11)
H9 H 0.0898 0.5217 0.5895
H10 H 0.0776 0.4496 0.5855
C12A C -0.0640(4) 0.5133(4) 0.7806(10)
H7A H -0.0779 0.5541 0.8109
H8A H -0.0934 0.4825 0.8147
C13A C -0.0621(5) 0.5111(5) 0.6216(11)
H9A H -0.0898 0.4783 0.5895
H10A H -0.0776 0.5504 0.5855
C12F C -0.0133(4) 0.4360(4) 0.7806(10)
H7F H -0.0541 0.4221 0.8109
H8F H 0.0175 0.4066 0.8147
C13F C -0.0111(5) 0.4379(5) 0.6216(11)
H9F H 0.0217 0.4102 0.5895
H10F H -0.0504 0.4224 0.5855
C12G C 0.0133(4) 0.5640(4) 0.7806(10)
H7G H 0.0541 0.5779 0.8109
H8G H -0.0175 0.5934 0.8147
C13G C 0.0111(5) 0.5621(5) 0.6216(11)
H9G H -0.0217 0.5898 0.5895
H10G H 0.0504 0.5776 0.5855
O1E O 0.4310(2) 0.0631(2) -0.0894(3)
C1E C 0.4048(2) 0.0728(2) -0.2039(5)
C2E C 0.2526(3) 0.1575(2) -0.1039(5)
C3E C 0.3017(2) 0.1118(2) -0.1011(5)
C4E C 0.3494(2) 0.1163(2) -0.2050(5)
C5E C 0.3468(3) 0.1616(3) -0.3053(4)
H1E H 0.3774 0.1639 -0.3734
C6E C 0.2972(3) 0.2046(3) -0.3041(5)
H2E H 0.2950 0.2344 -0.3738
C7E C 0.2987(3) 0.0640(2) -0.0044(6)
H3E H 0.3296 0.0335 -0.0027
C8E C 0.2533(3) 0.2040(3) -0.2063(7)
H4E H 0.2228 0.2349 -0.2059
C9E C 0.2045(3) 0.1553(3) -0.0031(7)
C10E C 0.2497(4) 0.0614(3) 0.0902(7)
H5E H 0.2480 0.0284 0.1525
O2E O 0.1596(3) 0.1003(3) 0.1888(7)
H6E H 0.1344 0.1288 0.1802
C11E C 0.2039(3) 0.1060(3) 0.0942(8)
O3E O 0.42231(17) 0.05168(18) -0.3180(3)
O1A O -0.0631(2) 0.5690(2) 0.0894(3)
C1A C -0.0728(2) 0.5952(2) 0.2039(5)
C2A C -0.1575(2) 0.7474(3) 0.1039(5)
C3A C -0.1118(2) 0.6983(2) 0.1011(5)
C4A C -0.1163(2) 0.6506(2) 0.2050(5)
C5A C -0.1616(3) 0.6532(3) 0.3053(4)
H1A H -0.1639 0.6226 0.3734
C6A C -0.2046(3) 0.7028(3) 0.3041(5)
H2A H -0.2344 0.7050 0.3738
C7A C -0.0640(2) 0.7013(3) 0.0044(6)
H3A H -0.0335 0.6704 0.0027
C8A C -0.2040(3) 0.7467(3) 0.2063(7)
H4A H -0.2349 0.7772 0.2059
C9A C -0.1553(3) 0.7955(3) 0.0031(7)
C10A C -0.0614(3) 0.7503(4) -0.0902(7)
H5A H -0.0284 0.7520 -0.1525
O2A O -0.1003(3) 0.8404(3) -0.1888(7)
H6A H -0.1288 0.8656 -0.1802
C11A C -0.1060(3) 0.7961(3) -0.0942(8)
O3A O -0.05168(18) 0.57769(17) 0.3180(3)
O1D O -0.4310(2) 0.9369(2) -0.0894(3)
C1D C -0.4048(2) 0.9272(2) -0.2039(5)
C2D C -0.2526(3) 0.8425(2) -0.1039(5)
C3D C -0.3017(2) 0.8882(2) -0.1011(5)
C4D C -0.3494(2) 0.8837(2) -0.2050(5)
C5D C -0.3468(3) 0.8384(3) -0.3053(4)
H1D H -0.3774 0.8361 -0.3734
C6D C -0.2972(3) 0.7954(3) -0.3041(5)
H2D H -0.2950 0.7656 -0.3738
C7D C -0.2987(3) 0.9360(2) -0.0044(6)
H3D H -0.3296 0.9665 -0.0027
C8D C -0.2533(3) 0.7960(3) -0.2063(7)
H4D H -0.2228 0.7651 -0.2059
C9D C -0.2045(3) 0.8447(3) -0.0031(7)
C10D C -0.2497(4) 0.9386(3) 0.0902(7)
H5D H -0.2480 0.9716 0.1525
O2D O -0.1596(3) 0.8997(3) 0.1888(7)
H6D H -0.1344 0.8712 0.1802
C11D C -0.2039(3) 0.8940(3) 0.0942(8)
O3D O -0.42231(17) 0.94832(18) -0.3180(3)
Zn1B Zn -0.5000 1.0000 -0.35545(7)
Zn1B_2 Zn 0.5000 0.0000 -0.35545(7)
Zn2_2 Zn 0.0000 0.5000 1.05132(7)
Zn2B Zn -0.5000 1.0000 -0.05132(7)
Zn2B_2 Zn 0.5000 0.0000 -0.05132(7)
N2_2 N -0.0000 0.5000 -0.1613(5)
O1F O -0.0690(2) 0.4369(2) 0.0894(3)
O1G O 0.0690(2) 0.5631(2) 0.0894(3)
O3F O -0.07769(17) 0.44832(18) 0.3180(3)
O3G O 0.07769(17) 0.55168(18) 0.3180(3)
loop_
_geom_bond_atom_site_label_1
_geom_bond_atom_site_label_2
_geom_bond_site_symmetry_1
_geom_bond_site_symmetry_2
Zn1 N1 1_555 1_555
Zn2 O1 1_555 1_555
N1 C13 1_555 1_555
N2 C12 1_555 1_555
O1 C1 1_555 1_555
C1 C4 1_555 1_555
C2 C3 1_555 1_555
C3 C4 1_555 1_555
C4 C5 1_555 1_555
C5 H1 1_555 1_555
C6 C5 1_555 1_555
H2 C6 1_555 1_555
C7 C3 1_555 1_555
H3 C7 1_555 1_555
C8 C2 1_555 1_555
H4 C8 1_555 1_555
C9 C2 1_555 1_555
C10 C7 1_555 1_555
H5 C10 1_555 1_555
O2 H6 1_555 1_555
C11 C9 1_555 1_555
O3 Zn1 1_555 1_555
C12 H7 1_555 1_555
H8 C12 1_555 1_555
C13 C12 1_555 1_555
H9 C13 1_555 1_555
H10 C13 1_555 1_555
N3 C14 1_555 1_555
O4 C14 1_555 1_555
C14 H11 1_555 1_555
C15 N3 1_555 1_555
H12 C15 1_555 1_555
H13 C15 1_555 1_555
H14 C15 1_555 1_555
C16 N3 1_555 1_555
H15 C16 1_555 1_555
H16 C16 1_555 1_555
H17 C16 1_555 1_555
C12A N2 1_555 1_555
H7A C12A 1_555 1_555
H8A C12A 1_555 1_555
C13A N1 1_555 1_555
H9A C13A 1_555 1_555
H10A C13A 1_555 1_555
C12F N2 1_555 1_555
H7F C12F 1_555 1_555
H8F C12F 1_555 1_555
C13F N1 1_555 1_555
H9F C13F 1_555 1_555
H10F C13F 1_555 1_555
C12G N2 1_555 1_555
H7G C12G 1_555 1_555
H8G C12G 1_555 1_555
C13G N1 1_555 1_555
H9G C13G 1_555 1_555
H10G C13G 1_555 1_555
O1E C1E 1_555 1_555
C1E C4E 1_555 1_555
C2E C3E 1_555 1_555
C3E C4E 1_555 1_555
C4E C5E 1_555 1_555
C5E H1E 1_555 1_555
C6E C5E 1_555 1_555
H2E C6E 1_555 1_555
C7E C3E 1_555 1_555
H3E C7E 1_555 1_555
C8E C2E 1_555 1_555
H4E C8E 1_555 1_555
C9E C9 1_555 1_555
C10E C7E 1_555 1_555
H5E C10E 1_555 1_555
O2E H6E 1_555 1_555
C11E C9E 1_555 1_555
O3E C1E 1_555 1_555
O1A Zn2 1_555 1_555
C1A O1A 1_555 1_555
C2A C3A 1_555 1_555
C3A C4A 1_555 1_555
C4A C1A 1_555 1_555
C5A C4A 1_555 1_555
H1A C5A 1_555 1_555
C6A C5A 1_555 1_555
H2A C6A 1_555 1_555
C7A C3A 1_555 1_555
H3A C7A 1_555 1_555
C8A C2A 1_555 1_555
H4A C8A 1_555 1_555
C9A C2A 1_555 1_555
C10A C7A 1_555 1_555
H5A C10A 1_555 1_555
O2A H6A 1_555 1_555
C11A C9A 1_555 1_555
O3A Zn1 1_555 1_555
O1D C1D 1_555 1_555
C1D C4D 1_555 1_555
C2D C3D 1_555 1_555
C3D C4D 1_555 1_555
C4D C5D 1_555 1_555
C5D H1D 1_555 1_555
C6D C5D 1_555 1_555
H2D C6D 1_555 1_555
C7D C3D 1_555 1_555
H3D C7D 1_555 1_555
C8D C2D 1_555 1_555
H4D C8D 1_555 1_555
C9D C9A 1_555 1_555
C10D C7D 1_555 1_555
H5D C10D 1_555 1_555
O2D H6D 1_555 1_555
C11D C9D 1_555 1_555
O3D C1D 1_555 1_555
Zn1B O3D 1_555 1_555
Zn1B_2 O3E 1_555 1_555
Zn2_2 N2 1_555 1_555
Zn2B O1D 1_555 1_555
Zn2B_2 O1E 1_555 1_555
N2_2 Zn2 1_555 1_555
O1F Zn2 1_555 1_555
O1G Zn2 1_555 1_555
O3F Zn1 1_555 1_555
O3G Zn1 1_555 1_555
C1 O3 1_555 1_555
C6 C8 1_555 1_555
C10 C11 1_555 1_555
O2 C11 1_555 1_555
C12A C13A 1_555 1_555
C12F C13F 1_555 1_555
C12G C13G 1_555 1_555
C2E C9E 1_555 1_555
C6E C8E 1_555 1_555
C10E C11E 1_555 1_555
O2E C11E 1_555 1_555
C1A O3A 1_555 1_555
C6A C8A 1_555 1_555
C10A C11A 1_555 1_555
O2A C11A 1_555 1_555
C2D C9D 1_555 1_555
C6D C8D 1_555 1_555
C10D C11D 1_555 1_555
O2D C11D 1_555 1_555

#END
