
#######################################################################
#
#                 Cambridge Crystallographic Data Centre
#                                CCDC 
#
#######################################################################
#
# If this CIF has been generated from an entry in the Cambridge 
# Structural Database, then it will include bibliographic, chemical, 
# crystal, experimental, refinement or atomic coordinate data resulting 
# from the CCDC's data processing and validation procedures.
#
#######################################################################

data_UGAQEY
_chemical_formula_moiety         '(C40 H46 Mo2 N8 Ni2 O15)n'
_symmetry_cell_setting           tetragonal
_symmetry_space_group_name_H-M   'P 41 21 2'
_symmetry_Int_Tables_number      92
_space_group_name_Hall           'P 4abw 2nw'
loop_
_symmetry_equiv_pos_site_id
_symmetry_equiv_pos_as_xyz
1 x,y,z
2 -x,-y,1/2+z
3 1/2-y,1/2+x,1/4+z
4 1/2+y,1/2-x,3/4+z
5 1/2-x,1/2+y,1/4-z
6 1/2+x,1/2-y,3/4-z
7 y,x,-z
8 -y,-x,1/2-z
_cell_length_a                   13.1866(5)
_cell_length_b                   13.1866(5)
_cell_length_c                   29.4577(15)
_cell_angle_alpha                90
_cell_angle_beta                 90
_cell_angle_gamma                90
_cell_volume                     5122.29
loop_
_atom_site_label
_atom_site_type_symbol
_atom_site_fract_x
_atom_site_fract_y
_atom_site_fract_z
Mo1 Mo 0.38097(7) 0.53629(7) 0.61997(3)
Ni1 Ni 0.26149(10) 0.28031(10) 0.63292(5)
O1 O 0.4167(6) 0.5293(6) 0.5635(2)
O2 O 0.3186(5) 0.4223(5) 0.6369(2)
O3 O 0.4872(6) 0.5546(7) 0.6553(3)
O4 O 0.2940(5) 0.6375(5) 0.6247(2)
N1 N 0.1698(7) 0.3321(7) 0.5801(3)
N2 N 0.3832(7) 0.2396(6) 0.5913(3)
N3 N 0.7395(7) 0.1592(7) 0.4430(3)
N4 N -0.1789(6) 0.3584(7) 0.4269(3)
C1 C 0.1216(8) 0.4195(8) 0.5834(3)
H1 H 0.1423 0.4639 0.6062
C2 C 0.0416(9) 0.4504(8) 0.5553(3)
H2 H 0.0085 0.5116 0.5605
C3 C 0.0125(8) 0.3878(8) 0.5194(3)
C4 C 0.0675(9) 0.2944(9) 0.5148(4)
H3 H 0.0529 0.2501 0.4911
C5 C 0.1416(8) 0.2715(9) 0.5456(3)
H4 H 0.1748 0.2097 0.5425
C6 C 0.7972(9) 0.0836(10) 0.4568(4)
H5 H 0.8489 0.0609 0.4379
C7 C 0.7832(10) 0.0357(10) 0.4994(4)
H6 H 0.8245 -0.0182 0.5080
C8 C 0.7073(11) 0.0701(10) 0.5283(4)
H7 H 0.6994 0.0422 0.5571
C9 C 0.6428(8) 0.1478(8) 0.5133(3)
C10 C 0.6647(8) 0.1909(8) 0.4704(3)
H8 H 0.6247 0.2446 0.4605
C11 C 0.4119(9) 0.2874(9) 0.5536(3)
H9 H 0.3729 0.3422 0.5441
C12 C 0.4932(9) 0.2624(9) 0.5279(4)
H10 H 0.5083 0.3000 0.5021
C13 C 0.5543(9) 0.1807(9) 0.5401(3)
C14 C 0.5243(9) 0.1289(9) 0.5789(4)
H11 H 0.5613 0.0729 0.5886
C15 C 0.4423(9) 0.1586(9) 0.6026(4)
H12 H 0.4248 0.1216 0.6283
C16 C -0.2113(9) 0.4541(9) 0.4225(3)
H13 H -0.2577 0.4692 0.3997
C17 C -0.1780(9) 0.5325(9) 0.4510(4)
H14 H -0.2046 0.5974 0.4478
C18 C -0.1075(8) 0.5139(9) 0.4830(4)
H15 H -0.0851 0.5656 0.5020
C19 C -0.0679(9) 0.4141(8) 0.4873(4)
C20 C -0.1127(8) 0.3411(9) 0.4584(3)
H16 H -0.0926 0.2741 0.4624
Ni1D Ni 0.23851(10) 0.78031(10) 0.61708(5)
O4D O 0.2060(5) 0.1375(5) 0.6253(2)
N2B N 0.2604(6) -0.1168(7) 0.8413(3)
N3B N 0.3408(7) 0.2395(7) 0.6930(3)
C6B C 0.4164(10) 0.2972(9) 0.7068(4)
H5B H 0.4391 0.3489 0.6879
C7B C 0.4643(10) 0.2832(10) 0.7494(4)
H6B H 0.5182 0.3245 0.7580
C8B C 0.4299(10) 0.2073(11) 0.7783(4)
H7B H 0.4578 0.1994 0.8071
C9B C 0.3522(8) 0.1428(8) 0.7633(3)
C10B C 0.3091(8) 0.1647(8) 0.7204(3)
H8B H 0.2554 0.1247 0.7105
C11B C 0.2126(9) -0.0881(9) 0.8036(3)
H9B H 0.1578 -0.1271 0.7941
C12B C 0.2376(9) -0.0068(9) 0.7779(4)
H10B H 0.2000 0.0083 0.7521
C13B C 0.3193(9) 0.0543(9) 0.7901(3)
C14B C 0.3711(9) 0.0243(9) 0.8289(4)
H11B H 0.4271 0.0613 0.8386
C15B C 0.3414(9) -0.0577(9) 0.8526(4)
H12B H 0.3784 -0.0752 0.8783
N1B N 0.1679(7) 0.6698(7) 0.8301(3)
N4B N 0.1416(7) 0.3211(6) 0.6769(3)
C1B C 0.0805(8) 0.6216(8) 0.8334(3)
H1B H 0.0361 0.6423 0.8562
C2B C 0.0496(8) 0.5416(9) 0.8053(3)
H2B H -0.0116 0.5085 0.8105
C3B C 0.1122(8) 0.5125(8) 0.7694(3)
C4B C 0.2056(9) 0.5675(9) 0.7648(4)
H3B H 0.2499 0.5529 0.7411
C5B C 0.2285(9) 0.6416(8) 0.7956(3)
H4B H 0.2903 0.6748 0.7925
C16B C 0.0459(9) 0.2887(9) 0.6725(3)
H13B H 0.0308 0.2423 0.6497
C17B C -0.0325(9) 0.3220(9) 0.7010(4)
H14B H -0.0974 0.2954 0.6978
C18B C -0.0139(9) 0.3925(8) 0.7330(4)
H15B H -0.0656 0.4149 0.7520
C19B C 0.0859(8) 0.4321(9) 0.7373(4)
C20B C 0.1589(9) 0.3873(8) 0.7084(3)
H16B H 0.2259 0.4074 0.7124
O2D O 0.1814(5) 0.9223(5) 0.6131(2)
Mo1D Mo 0.11903(7) 1.03629(7) 0.63003(3)
O1D O 0.0833(6) 1.0293(6) 0.6865(2)
O3D O 0.0128(6) 1.0546(7) 0.5947(3)
Ni1C Ni 0.78031(10) 0.23851(10) 0.38292(5)
Ni1C_2 Ni -0.21969(10) 0.23851(10) 0.38292(5)
N1D N 0.3302(7) 0.8321(7) 0.6699(3)
N2D N 0.1168(7) 0.7396(6) 0.6587(3)
N3F N 0.1592(7) 0.7395(7) 0.5570(3)
N4F N 0.3584(7) 0.8211(6) 0.5731(3)
Mo1D_2 Mo 0.11903(7) 0.03629(7) 0.63003(3)
Ni1B Ni 0.21969(10) -0.23851(10) 0.88292(5)
Ni1B_2 Ni 0.21969(10) 0.76149(10) 0.88292(5)
O4D_2 O 0.2060(5) 1.1375(5) 0.6253(2)
O5 O 0.4351(7) 0.5649(7) 0.7500
O6 O 0.6426(9) 0.3971(10) 0.6577(5)
O7 O 0.6514(9) 0.6976(12) 0.6433(4)
O8 O 0.5628(10) 0.5628(10) 0.5000
O9 O 0.6879(13) 0.9320(16) 0.6345(6)
O10 O 0.5823(15) 0.7275(16) 0.4342(7)
O11 O 0.736(2) 0.823(2) 0.4666(9)
loop_
_geom_bond_atom_site_label_1
_geom_bond_atom_site_label_2
_geom_bond_site_symmetry_1
_geom_bond_site_symmetry_2
Mo1 O1 1_555 1_555
Ni1 O2 1_555 1_555
O2 Mo1 1_555 1_555
O3 Mo1 1_555 1_555
O4 Mo1 1_555 1_555
N1 Ni1 1_555 1_555
N2 Ni1 1_555 1_555
N3 C6 1_555 1_555
N4 C16 1_555 1_555
C1 N1 1_555 1_555
H1 C1 1_555 1_555
C2 C1 1_555 1_555
H2 C2 1_555 1_555
C3 C2 1_555 1_555
C4 C3 1_555 1_555
H3 C4 1_555 1_555
C5 N1 1_555 1_555
H4 C5 1_555 1_555
C6 H5 1_555 1_555
C7 C6 1_555 1_555
H6 C7 1_555 1_555
C8 C7 1_555 1_555
H7 C8 1_555 1_555
C9 C8 1_555 1_555
C10 N3 1_555 1_555
H8 C10 1_555 1_555
C11 N2 1_555 1_555
H9 C11 1_555 1_555
C12 C11 1_555 1_555
H10 C12 1_555 1_555
C13 C9 1_555 1_555
C14 C13 1_555 1_555
H11 C14 1_555 1_555
C15 N2 1_555 1_555
H12 C15 1_555 1_555
C16 H13 1_555 1_555
C17 C16 1_555 1_555
H14 C17 1_555 1_555
C18 C17 1_555 1_555
H15 C18 1_555 1_555
C19 C3 1_555 1_555
C20 N4 1_555 1_555
H16 C20 1_555 1_555
Ni1D O4 1_555 1_555
O4D Ni1 1_555 1_555
N2B C11B 1_555 1_555
N3B Ni1 1_555 1_555
C6B N3B 1_555 1_555
H5B C6B 1_555 1_555
C7B C6B 1_555 1_555
H6B C7B 1_555 1_555
C8B C7B 1_555 1_555
H7B C8B 1_555 1_555
C9B C8B 1_555 1_555
C10B N3B 1_555 1_555
H8B C10B 1_555 1_555
C11B H9B 1_555 1_555
C12B C11B 1_555 1_555
H10B C12B 1_555 1_555
C13B C9B 1_555 1_555
C14B C13B 1_555 1_555
H11B C14B 1_555 1_555
C15B N2B 1_555 1_555
H12B C15B 1_555 1_555
N1B C1B 1_555 1_555
N4B Ni1 1_555 1_555
C1B H1B 1_555 1_555
C2B C1B 1_555 1_555
H2B C2B 1_555 1_555
C3B C2B 1_555 1_555
C4B C3B 1_555 1_555
H3B C4B 1_555 1_555
C5B N1B 1_555 1_555
H4B C5B 1_555 1_555
C16B N4B 1_555 1_555
H13B C16B 1_555 1_555
C17B C16B 1_555 1_555
H14B C17B 1_555 1_555
C18B C17B 1_555 1_555
H15B C18B 1_555 1_555
C19B C3B 1_555 1_555
C20B N4B 1_555 1_555
H16B C20B 1_555 1_555
O2D Ni1D 1_555 1_555
Mo1D O2D 1_555 1_555
O1D Mo1D 1_555 1_555
O3D Mo1D 1_555 1_555
Ni1C N3 1_555 1_555
Ni1C_2 N4 1_555 1_555
N1D Ni1D 1_555 1_555
N2D Ni1D 1_555 1_555
N3F Ni1D 1_555 1_555
N4F Ni1D 1_555 1_555
Mo1D_2 O4D 1_555 1_555
Ni1B N2B 1_555 1_555
Ni1B_2 N1B 1_555 1_555
O4D_2 Mo1D 1_555 1_555
C4 C5 1_555 1_555
C9 C10 1_555 1_555
C12 C13 1_555 1_555
C14 C15 1_555 1_555
C18 C19 1_555 1_555
C19 C20 1_555 1_555
C9B C10B 1_555 1_555
C12B C13B 1_555 1_555
C14B C15B 1_555 1_555
C4B C5B 1_555 1_555
C18B C19B 1_555 1_555
C19B C20B 1_555 1_555

#END
