
#######################################################################
#
#                 Cambridge Crystallographic Data Centre
#                                CCDC 
#
#######################################################################
#
# If this CIF has been generated from an entry in the Cambridge 
# Structural Database, then it will include bibliographic, chemical, 
# crystal, experimental, refinement or atomic coordinate data resulting 
# from the CCDC's data processing and validation procedures.
#
#######################################################################

data_JOGSAA
_chemical_formula_moiety         '(C42 H44 N8 Ni2 O71 P2 W18 2-)n'
_symmetry_cell_setting           monoclinic
_symmetry_space_group_name_H-M   'P 21/m'
_symmetry_Int_Tables_number      11
_space_group_name_Hall           '-P 2yb'
loop_
_symmetry_equiv_pos_site_id
_symmetry_equiv_pos_as_xyz
1 x,y,z
2 -x,1/2+y,-z
3 -x,-y,-z
4 x,1/2-y,z
_cell_length_a                   15.0721(9)
_cell_length_b                   24.7694(14)
_cell_length_c                   15.1707(9)
_cell_angle_alpha                90
_cell_angle_beta                 110.5410(10)
_cell_angle_gamma                90
_cell_volume                     5303.54
loop_
_atom_site_label
_atom_site_type_symbol
_atom_site_fract_x
_atom_site_fract_y
_atom_site_fract_z
Ni1 Ni 0.39621(10) 0.52227(6) 0.10812(11)
C1 C 0.2095(9) 0.4959(6) 0.1301(11)
H1 H 0.2483 0.4843 0.1894
C2 C 0.1107(9) 0.4904(6) 0.1040(11)
H2 H 0.0848 0.4778 0.1474
C3 C 0.0527(8) 0.5035(5) 0.0144(9)
C4 C 0.0945(8) 0.5225(6) -0.0440(10)
H3 H 0.0571 0.5317 -0.1052
C5 C 0.1927(8) 0.5289(5) -0.0158(10)
H4 H 0.2196 0.5413 -0.0586
C6 C 0.3227(11) 0.6363(6) 0.0807(15)
C7 C 0.3223(10) 0.6918(6) 0.0819(14)
H5 H 0.2652 0.7101 0.0562
C8 C 0.4040(8) 0.7202(4) 0.1198(9)
C9 C 0.4797(10) 0.6917(7) 0.1505(15)
H6 H 0.5381 0.7091 0.1728
C10 C 0.4768(11) 0.6332(5) 0.1515(14)
H7 H 0.5323 0.6141 0.1821
C11 C 0.5465(8) 0.4983(5) 0.0440(9)
C12 C 0.4953(10) 0.4796(5) 0.2983(10)
H8 H 0.5172 0.4556 0.2634
C13 C 0.5207(9) 0.4728(5) 0.3942(10)
H9 H 0.5616 0.4447 0.4226
C14 C 0.4890(8) 0.5054(4) 0.4499(8)
C15 C 0.4334(10) 0.5487(5) 0.4019(10)
H10 H 0.4105 0.5735 0.4348
C16 C 0.4123(9) 0.5550(5) 0.3070(10)
H11 H 0.3774 0.5852 0.2782
N1 N 0.4380(7) 0.5213(4) 0.2547(7)
N2 N 0.2485(6) 0.5172(4) 0.0730(8)
N3 N 0.3985(7) 0.6066(4) 0.1107(7)
O37 O 0.6204(6) 0.4827(4) 0.0348(6)
O38 O 0.5366(5) 0.5126(3) 0.1201(6)
O40 O 0.3889(6) 0.4370(4) 0.1052(8)
H20 H 0.3693 0.4206 0.1439
H21 H 0.4257 0.4126 0.0985
Ni1B Ni 0.60379(10) 0.47773(6) -0.10812(11)
Ni1B_2 Ni -0.39621(10) 0.47773(6) -0.10812(11)
Ni1C Ni 0.39621(10) 0.97773(6) 0.10812(11)
Ni1B_3 Ni 0.60379(10) 0.47773(6) 0.89188(11)
C1B C -0.2095(9) 0.5041(6) -0.1301(11)
H1B H -0.2483 0.5157 -0.1894
C2B C -0.1107(9) 0.5096(6) -0.1040(11)
H2B H -0.0848 0.5222 -0.1474
C3B C -0.0527(8) 0.4965(5) -0.0144(9)
C4B C -0.0945(8) 0.4775(6) 0.0440(10)
H3B H -0.0571 0.4683 0.1052
C5B C -0.1927(8) 0.4711(5) 0.0158(10)
H4B H -0.2196 0.4587 0.0586
C6C C 0.3227(11) 0.8637(6) 0.0807(15)
C7C C 0.3223(10) 0.8082(6) 0.0819(14)
H5C H 0.2652 0.7899 0.0562
C8C C 0.4040(8) 0.7798(4) 0.1198(9)
C9C C 0.4797(10) 0.8083(7) 0.1505(15)
H6C H 0.5381 0.7909 0.1728
C10C C 0.4768(11) 0.8668(5) 0.1515(14)
H7C H 0.5323 0.8859 0.1821
C11B C 0.4535(8) 0.5017(5) -0.0440(9)
C12B C 0.5047(10) 0.5204(5) 0.7017(10)
H8B H 0.4828 0.5444 0.7366
C13B C 0.4793(9) 0.5272(5) 0.6058(10)
H9B H 0.4384 0.5553 0.5774
C14B C 0.5110(8) 0.4946(4) 0.5501(8)
C15B C 0.5666(10) 0.4513(5) 0.5981(10)
H10B H 0.5895 0.4265 0.5652
C16B C 0.5877(9) 0.4450(5) 0.6930(10)
H11B H 0.6226 0.4148 0.7218
N1B N 0.5620(7) 0.4787(4) 0.7453(7)
N1B_2 N 0.5620(7) 0.4787(4) -0.2547(7)
N2B N -0.2485(6) 0.4828(4) -0.0730(8)
N2B_2 N 0.7515(6) 0.4828(4) -0.0730(8)
N3C N 0.3985(7) 0.8934(4) 0.1107(7)
N3B N 0.6015(7) 0.3934(4) -0.1107(7)
O37B O 0.3796(6) 0.5173(4) -0.0348(6)
O38B O 0.4634(5) 0.4874(3) -0.1201(6)
O40B O 0.6111(6) 0.5630(4) -0.1052(8)
H20B H 0.6307 0.5794 -0.1439
H21B H 0.5743 0.5874 -0.0985
P1 P -0.0063(3) 0.2500 0.3050(4)
P2 P 0.2726(3) 0.2500 0.3658(3)
W1 W 0.00316(3) 0.39247(2) 0.31425(4)
W2 W 0.26698(3) 0.39229(2) 0.37189(4)
W3 W 0.23487(4) 0.31799(2) 0.15398(4)
W4 W -0.02839(4) 0.31780(2) 0.09569(4)
W5 W 0.03013(4) 0.32422(2) 0.51272(5)
W6 W 0.46971(3) 0.31818(2) 0.34490(5)
W7 W 0.29438(4) 0.32442(2) 0.57069(4)
W8 W -0.22024(4) 0.31830(2) 0.19557(5)
W9 W 0.49788(5) 0.2500 0.54668(6)
W10 W -0.19387(5) 0.2500 0.39535(8)
O1 O 0.0021(6) 0.3888(3) 0.4384(7)
O2 O 0.1008(5) 0.3106(3) 0.1101(6)
O3 O 0.1371(5) 0.3963(3) 0.3608(7)
O4 O 0.3886(5) 0.3664(3) 0.3795(6)
O5 O 0.2260(7) 0.2500 0.2613(8)
O6 O 0.0111(7) 0.2500 0.2121(9)
O7 O 0.1613(6) 0.3352(3) 0.5371(6)
O8 O 0.0327(5) 0.3009(3) 0.3625(6)
O9 O -0.0226(6) 0.4595(3) 0.2900(7)
O10 O 0.2426(8) 0.2500 0.0967(9)
O11 O 0.3025(6) 0.3887(3) 0.5032(7)
O12 O 0.0082(5) 0.3666(3) 0.1978(6)
O13 O 0.2739(8) 0.2500 0.5874(9)
O14 O 0.4165(6) 0.3016(4) 0.5697(6)
O15 O 0.3668(5) 0.3139(3) 0.2270(7)
O16 O 0.0598(8) 0.2500 0.5419(10)
O17 O -0.1161(7) 0.2500 0.2826(10)
O18 O 0.2831(6) 0.4592(3) 0.3567(7)
O19 O -0.1262(6) 0.3658(3) 0.2699(7)
O20 O -0.0995(6) 0.3019(3) 0.4555(8)
O21 O 0.0239(7) 0.3481(4) 0.6150(8)
O22 O 0.5351(5) 0.3048(3) 0.4739(7)
O23 O 0.2427(6) 0.3612(4) 0.0699(6)
O24 O -0.1478(6) 0.3134(3) 0.1161(7)
O25 O 0.3288(7) 0.3493(4) 0.6821(7)
O26 O -0.3069(6) 0.3626(4) 0.1375(9)
O27 O 0.5927(9) 0.2500 0.6487(12)
O28 O 0.5122(7) 0.2500 0.3150(9)
O29 O -0.0647(7) 0.3595(4) -0.0005(7)
O30 O -0.2778(8) 0.2500 0.1475(10)
O31 O -0.2548(6) 0.3041(3) 0.3039(8)
O32 O -0.2607(10) 0.2500 0.4646(12)
O33 O 0.2250(5) 0.3656(3) 0.2469(6)
O34 O 0.3832(7) 0.2500 0.3920(8)
O35 O -0.0565(8) 0.2500 0.0312(9)
O36 O 0.2481(5) 0.3013(3) 0.4094(6)
O39 O 0.5476(6) 0.3592(4) 0.3208(7)
W1C W 0.00316(3) 0.10753(2) 0.31425(4)
W2C W 0.26698(3) 0.10771(2) 0.37189(4)
W3C W 0.23487(4) 0.18201(2) 0.15398(4)
W4C W -0.02839(4) 0.18220(2) 0.09569(4)
W5C W 0.03013(4) 0.17578(2) 0.51272(5)
W6C W 0.46971(3) 0.18182(2) 0.34490(5)
W7C W 0.29438(4) 0.17558(2) 0.57069(4)
W8C W -0.22024(4) 0.18170(2) 0.19557(5)
O1C O 0.0021(6) 0.1112(3) 0.4384(7)
O2C O 0.1008(5) 0.1894(3) 0.1101(6)
O3C O 0.1371(5) 0.1037(3) 0.3608(7)
O4C O 0.3886(5) 0.1336(3) 0.3795(6)
O7C O 0.1613(6) 0.1648(3) 0.5371(6)
O8C O 0.0327(5) 0.1991(3) 0.3625(6)
O9C O -0.0226(6) 0.0405(3) 0.2900(7)
O11C O 0.3025(6) 0.1113(3) 0.5032(7)
O12C O 0.0082(5) 0.1334(3) 0.1978(6)
O14C O 0.4165(6) 0.1984(4) 0.5697(6)
O15C O 0.3668(5) 0.1861(3) 0.2270(7)
O18C O 0.2831(6) 0.0408(3) 0.3567(7)
O19C O -0.1262(6) 0.1342(3) 0.2699(7)
O20C O -0.0995(6) 0.1981(3) 0.4555(8)
O21C O 0.0239(7) 0.1519(4) 0.6150(8)
O22C O 0.5351(5) 0.1952(3) 0.4739(7)
O23C O 0.2427(6) 0.1388(4) 0.0699(6)
O24C O -0.1478(6) 0.1866(3) 0.1161(7)
O25C O 0.3288(7) 0.1507(4) 0.6821(7)
O26C O -0.3069(6) 0.1374(4) 0.1375(9)
O29C O -0.0647(7) 0.1405(4) -0.0005(7)
O31C O -0.2548(6) 0.1959(3) 0.3039(8)
O33C O 0.2250(5) 0.1344(3) 0.2469(6)
O36C O 0.2481(5) 0.1987(3) 0.4094(6)
O39C O 0.5476(6) 0.1408(4) 0.3208(7)
C17 C 0.7471(11) 0.4424(6) 0.3411(10)
H12 H 0.7225 0.4076 0.3348
C18 C 0.7363(13) 0.4722(7) 0.2606(11)
H13 H 0.7046 0.4575 0.2016
C19 C 0.8182(17) 0.5457(7) 0.3578(13)
H14 H 0.8430 0.5805 0.3640
C20 C 0.8273(13) 0.5165(7) 0.4376(11)
H15 H 0.8560 0.5322 0.4965
C21 C 0.8659(14) 0.4461(8) 0.5972(13)
H16 H 0.9008 0.4777 0.6035
C22 C 0.8774(13) 0.4148(8) 0.6721(12)
H17 H 0.9234 0.4245 0.7291
C23 C 0.7620(12) 0.3552(6) 0.5836(12)
H18 H 0.7240 0.3249 0.5783
C24 C 0.7542(12) 0.3847(7) 0.5065(11)
H19 H 0.7142 0.3725 0.4481
C25 C 0.7935(13) 0.4629(6) 0.4308(11)
C26 C 0.8022(11) 0.4314(6) 0.5107(11)
N4 N 0.8256(14) 0.3697(8) 0.6695(12)
N5 N 0.7733(11) 0.5248(6) 0.2686(11)
O41 O 0.4961(11) 0.3644(6) 0.0611(12)
O42 O 0.5194(16) 0.2500 0.1302(18)
O43 O 0.763(3) 0.5777(19) 0.153(4)
loop_
_geom_bond_atom_site_label_1
_geom_bond_atom_site_label_2
_geom_bond_site_symmetry_1
_geom_bond_site_symmetry_2
Ni1 N1 1_555 1_555
P1 O6 1_555 1_555
P2 O5 1_555 1_555
W1 O1 1_555 1_555
W2 O3 1_555 1_555
W3 O2 1_555 1_555
W4 O2 1_555 1_555
W5 O1 1_555 1_555
W6 O4 1_555 1_555
W7 O7 1_555 1_555
W8 O17 1_555 1_555
W9 O14 1_555 1_555
W10 O17 1_555 1_555
C1 H1 1_555 1_555
C2 C1 1_555 1_555
H2 C2 1_555 1_555
C3 C2 1_555 1_555
C4 C3 1_555 1_555
H3 C4 1_555 1_555
C5 C4 1_555 1_555
H4 C5 1_555 1_555
C6 C7 1_555 1_555
C7 H5 1_555 1_555
C8 C7 1_555 1_555
C9 C8 1_555 1_555
H6 C9 1_555 1_555
C10 C9 1_555 1_555
H7 C10 1_555 1_555
C11 O37 1_555 1_555
C12 H8 1_555 1_555
C13 C12 1_555 1_555
H9 C13 1_555 1_555
C14 C13 1_555 1_555
C15 C14 1_555 1_555
H10 C15 1_555 1_555
C16 C15 1_555 1_555
H11 C16 1_555 1_555
C17 H12 1_555 1_555
C18 C17 1_555 1_555
H13 C18 1_555 1_555
C19 H14 1_555 1_555
C20 C19 1_555 1_555
H15 C20 1_555 1_555
C21 H16 1_555 1_555
C22 C21 1_555 1_555
H17 C22 1_555 1_555
C23 H18 1_555 1_555
C24 C23 1_555 1_555
H19 C24 1_555 1_555
C25 C17 1_555 1_555
C26 C21 1_555 1_555
N1 C12 1_555 1_555
N2 Ni1 1_555 1_555
N3 Ni1 1_555 1_555
N4 C22 1_555 1_555
N5 C18 1_555 1_555
O3 W1 1_555 1_555
O4 W2 1_555 1_555
O5 W3 1_555 1_555
O6 W4 1_555 1_555
O7 W5 1_555 1_555
O8 P1 1_555 1_555
O9 W1 1_555 1_555
O10 W3 1_555 1_555
O11 W2 1_555 1_555
O12 W1 1_555 1_555
O13 W7 1_555 1_555
O14 W7 1_555 1_555
O15 W3 1_555 1_555
O16 W5 1_555 1_555
O17 P1 1_555 1_555
O18 W2 1_555 1_555
O19 W1 1_555 1_555
O20 W5 1_555 1_555
O21 W5 1_555 1_555
O22 W6 1_555 1_555
O23 W3 1_555 1_555
O24 W4 1_555 1_555
O25 W7 1_555 1_555
O26 W8 1_555 1_555
O27 W9 1_555 1_555
O28 W6 1_555 1_555
O29 W4 1_555 1_555
O30 W8 1_555 1_555
O31 W8 1_555 1_555
O32 W10 1_555 1_555
O33 W2 1_555 1_555
O34 P2 1_555 1_555
O35 W4 1_555 1_555
O36 P2 1_555 1_555
O37 Ni1B 1_555 1_555
O38 Ni1 1_555 1_555
O39 W6 1_555 1_555
O40 Ni1 1_555 1_555
H20 O40 1_555 1_555
H21 O40 1_555 1_555
Ni1B N1B_2 1_555 1_555
Ni1B_2 N2B 1_555 1_555
Ni1C N3C 1_555 1_555
Ni1B_3 N1B 1_555 1_555
W1C O1C 1_555 1_555
W2C O3C 1_555 1_555
W3C O5 1_555 1_555
W4C O6 1_555 1_555
W5C O16 1_555 1_555
W6C O28 1_555 1_555
W7C O13 1_555 1_555
W8C O17 1_555 1_555
C1B H1B 1_555 1_555
C2B C1B 1_555 1_555
H2B C2B 1_555 1_555
C3B C3 1_555 1_555
C4B C3B 1_555 1_555
H3B C4B 1_555 1_555
C5B C4B 1_555 1_555
H4B C5B 1_555 1_555
C6C C7C 1_555 1_555
C7C H5C 1_555 1_555
C8C C8 1_555 1_555
C9C C8C 1_555 1_555
H6C C9C 1_555 1_555
C10C C9C 1_555 1_555
H7C C10C 1_555 1_555
C11B C11 1_555 1_555
C12B H8B 1_555 1_555
C13B C12B 1_555 1_555
H9B C13B 1_555 1_555
C14B C14 1_555 1_555
C15B C14B 1_555 1_555
H10B C15B 1_555 1_555
C16B C15B 1_555 1_555
H11B C16B 1_555 1_555
N1B C12B 1_555 1_555
N2B C1B 1_555 1_555
N2B_2 Ni1B 1_555 1_555
N3C C6C 1_555 1_555
N3B Ni1B 1_555 1_555
O1C W5C 1_555 1_555
O2C W3C 1_555 1_555
O3C W1C 1_555 1_555
O4C W2C 1_555 1_555
O7C W5C 1_555 1_555
O8C P1 1_555 1_555
O9C W1C 1_555 1_555
O11C W2C 1_555 1_555
O12C W1C 1_555 1_555
O14C W9 1_555 1_555
O15C W3C 1_555 1_555
O18C W2C 1_555 1_555
O19C W1C 1_555 1_555
O20C W10 1_555 1_555
O21C W5C 1_555 1_555
O22C W9 1_555 1_555
O23C W3C 1_555 1_555
O24C W4C 1_555 1_555
O25C W7C 1_555 1_555
O26C W8C 1_555 1_555
O29C W4C 1_555 1_555
O31C W10 1_555 1_555
O33C W2C 1_555 1_555
O36C P2 1_555 1_555
O37B Ni1 1_555 1_555
O38B Ni1B 1_555 1_555
O39C W6C 1_555 1_555
O40B Ni1B 1_555 1_555
H20B O40B 1_555 1_555
H21B O40B 1_555 1_555
W1 O8 1_555 1_555
W2 O36 1_555 1_555
W3 O33 1_555 1_555
W4 O12 1_555 1_555
W5 O8 1_555 1_555
W6 O15 1_555 1_555
W6 O34 1_555 1_555
W7 O11 1_555 1_555
W7 O36 1_555 1_555
W8 O19 1_555 1_555
W8 O24 1_555 1_555
W9 O22 1_555 1_555
W9 O34 1_555 1_555
W10 O20 1_555 1_555
W10 O31 1_555 1_555
C1 N2 1_555 1_555
C5 N2 1_555 1_555
C6 N3 1_555 1_555
C10 N3 1_555 1_555
C11 O38 1_555 1_555
C16 N1 1_555 1_555
C19 N5 1_555 1_555
C20 C25 1_555 1_555
C23 N4 1_555 1_555
C24 C26 1_555 1_555
C25 C26 1_555 1_555
O10 W3C 1_555 1_555
O30 W8C 1_555 1_555
O34 W6C 1_555 1_555
O35 W4C 1_555 1_555
W1C O8C 1_555 1_555
W2C O36C 1_555 1_555
W3C O33C 1_555 1_555
W4C O2C 1_555 1_555
W4C O12C 1_555 1_555
W5C O8C 1_555 1_555
W5C O20C 1_555 1_555
W6C O4C 1_555 1_555
W6C O15C 1_555 1_555
W6C O22C 1_555 1_555
W7C O7C 1_555 1_555
W7C O11C 1_555 1_555
W7C O14C 1_555 1_555
W7C O36C 1_555 1_555
W8C O19C 1_555 1_555
W8C O24C 1_555 1_555
W8C O31C 1_555 1_555
C2B C3B 1_555 1_555
C5B N2B 1_555 1_555
C7C C8C 1_555 1_555
C10C N3C 1_555 1_555
C11B O37B 1_555 1_555
C11B O38B 1_555 1_555
C13B C14B 1_555 1_555
C16B N1B 1_555 1_555

#END
