
#######################################################################
#
#                 Cambridge Crystallographic Data Centre
#                                CCDC 
#
#######################################################################
#
# If this CIF has been generated from an entry in the Cambridge 
# Structural Database, then it will include bibliographic, chemical, 
# crystal, experimental, refinement or atomic coordinate data resulting 
# from the CCDC's data processing and validation procedures.
#
#######################################################################

data_FAYLEY
_chemical_formula_moiety         'C30 Fe4 N14 Pt1'
_symmetry_cell_setting           tetragonal
_symmetry_space_group_name_H-M   'P 4/m m m'
_symmetry_Int_Tables_number      123
_space_group_name_Hall           '-P 4 2'
loop_
_symmetry_equiv_pos_site_id
_symmetry_equiv_pos_as_xyz
1 x,y,z
2 -x,-y,z
3 x,-y,-z
4 -x,y,-z
5 -y,-x,-z
6 y,x,-z
7 y,-x,z
8 -y,x,z
9 -x,-y,-z
10 x,y,-z
11 -x,y,z
12 x,-y,z
13 y,x,z
14 -y,-x,z
15 -y,x,-z
16 y,-x,-z
_cell_length_a                   7.1490(2)
_cell_length_b                   7.1490(2)
_cell_length_c                   13.3920(6)
_cell_angle_alpha                90
_cell_angle_beta                 90
_cell_angle_gamma                90
_cell_volume                     684.441
loop_
_atom_site_label
_atom_site_type_symbol
_atom_site_fract_x
_atom_site_fract_y
_atom_site_fract_z
Pt1 Pt 1.0000 1.0000 0.5000
Fe1 Fe 0.5000 0.5000 0.5000
N1 N 0.5000 0.5000 0.3503(10)
N2 N 0.6904(9) 0.6904(9) 0.5000
C1 C 0.657(5) 0.5000 0.2990(15)
C2 C 0.657(8) 0.5000 0.1965(15)
C3 C 0.5000 0.5000 0.1460(17)
C4 C 0.5000 0.430(5) 0.032(2)
C5 C 0.8048(11) 0.8048(11) 0.5000
Fe1_2 Fe 1.5000 1.5000 0.5000
Fe1_3 Fe 0.5000 1.5000 0.5000
Fe1_4 Fe 1.5000 0.5000 0.5000
N1B N 0.5000 0.5000 0.6497(10)
N2A N 1.3096(9) 1.3096(9) 0.5000
N2B N 0.6904(9) 1.3096(9) 0.5000
N2C N 1.3096(9) 0.6904(9) 0.5000
N2A_2 N 0.3096(9) 0.3096(9) 0.5000
N2B_2 N 0.6904(9) 0.3096(9) 0.5000
N2C_2 N 0.3096(9) 0.6904(9) 0.5000
C1A C 0.343(5) 0.5000 0.2990(15)
C1F C 0.5000 0.343(5) 0.2990(15)
C1G C 0.5000 0.657(5) 0.2990(15)
C2F C 0.5000 0.343(8) 0.1965(15)
C2G C 0.5000 0.657(8) 0.1965(15)
C2A C 0.343(8) 0.5000 0.1965(15)
C3B C 0.5000 0.5000 -0.1460(17)
C4A C 0.5000 0.570(5) 0.032(2)
C4F C 0.430(5) 0.5000 0.032(2)
C4G C 0.570(5) 0.5000 0.032(2)
C4B C 0.5000 0.570(5) -0.032(2)
C4C C 0.5000 0.430(5) -0.032(2)
C4D C 0.570(5) 0.5000 -0.032(2)
C4E C 0.430(5) 0.5000 -0.032(2)
C5A C 1.1952(11) 1.1952(11) 0.5000
C5B C 0.8048(11) 1.1952(11) 0.5000
C5C C 1.1952(11) 0.8048(11) 0.5000
N3 N 0.0000 0.2574 0.1775
C7 C 0.0000 0.420(14) 0.125(7)
C8 C 0.0000 0.398(8) 0.246(5)
C9 C 0.0000 0.055(2) 0.169(9)
N3A N 0.0000 0.7426 0.1775
N3A_2 N 0.0000 -0.2574 0.1775
N3F N 0.2574 0.0000 0.1775
N3G N -0.2574 0.0000 0.1775
C7A C 0.0000 0.580(14) 0.125(7)
C8A C 0.0000 0.602(8) 0.246(5)
C9A C 0.0000 -0.055(2) 0.169(9)
C9F C 0.055(2) 0.0000 0.169(9)
C9G C -0.055(2) 0.0000 0.169(9)
loop_
_geom_bond_atom_site_label_1
_geom_bond_atom_site_label_2
_geom_bond_site_symmetry_1
_geom_bond_site_symmetry_2
Pt1 C5 1_555 1_555
Fe1 N1 1_555 1_555
N1 C1 1_555 1_555
N2 Fe1 1_555 1_555
C1 C2 1_555 1_555
C2 C3 1_555 1_555
C3 C4 1_555 1_555
C4 C4A 1_555 1_555
C5 N2 1_555 1_555
N3 C7 1_555 1_555
C7 C7A 1_555 1_555
C8 N3 1_555 1_555
C9 N3 1_555 1_555
Fe1_2 N2A 1_555 1_555
Fe1_3 N2B 1_555 1_555
Fe1_4 N2C 1_555 1_555
N1B Fe1 1_555 1_555
N2A C5A 1_555 1_555
N2B C5B 1_555 1_555
N2C C5C 1_555 1_555
N2A_2 Fe1 1_555 1_555
N2B_2 Fe1 1_555 1_555
N2C_2 Fe1 1_555 1_555
C1A N1 1_555 1_555
C1F N1 1_555 1_555
C1G N1 1_555 1_555
C2F C2 1_555 1_555
C2G C2 1_555 1_555
C2A C3 1_555 1_555
C3B C4B 1_555 1_555
C4A C3 1_555 1_555
C4F C3 1_555 1_555
C4G C3 1_555 1_555
C4B C4 1_555 1_555
C4C C4 1_555 1_555
C4D C4 1_555 1_555
C4E C4 1_555 1_555
C5A Pt1 1_555 1_555
C5B Pt1 1_555 1_555
C5C Pt1 1_555 1_555
N3A C7A 1_555 1_555
N3A_2 C9A 1_555 1_555
N3F C9F 1_555 1_555
N3G C9G 1_555 1_555
C8A C8 1_555 1_555
C9A C9 1_555 1_555
C9F C9 1_555 1_555
C9G C9 1_555 1_555
C1 C1F 1_555 1_555
C1 C1G 1_555 1_555
C3 C2F 1_555 1_555
C3 C2G 1_555 1_555
C4 C4F 1_555 1_555
C4 C4G 1_555 1_555
C1A C1F 1_555 1_555
C1A C1G 1_555 1_555
C1A C2A 1_555 1_555
C1F C2F 1_555 1_555
C1G C2G 1_555 1_555
C2F C2A 1_555 1_555
C2G C2A 1_555 1_555
C3B C4C 1_555 1_555
C3B C4D 1_555 1_555
C3B C4E 1_555 1_555
C4A C4F 1_555 1_555
C4A C4G 1_555 1_555
C4A C4B 1_555 1_555
C4A C4C 1_555 1_555
C4A C4D 1_555 1_555
C4A C4E 1_555 1_555
C4F C4G 1_555 1_555
C4F C4B 1_555 1_555
C4F C4C 1_555 1_555
C4F C4D 1_555 1_555
C4F C4E 1_555 1_555
C4G C4B 1_555 1_555
C4G C4C 1_555 1_555
C4G C4D 1_555 1_555
C4G C4E 1_555 1_555
C4B C4C 1_555 1_555
C4B C4D 1_555 1_555
C4B C4E 1_555 1_555
C4C C4D 1_555 1_555
C4C C4E 1_555 1_555
C4D C4E 1_555 1_555
N3A C8A 1_555 1_555
C9A C9F 1_555 1_555
C9A C9G 1_555 1_555
C9F C9G 1_555 1_555

#END
