
#######################################################################
#
#                 Cambridge Crystallographic Data Centre
#                                CCDC 
#
#######################################################################
#
# If this CIF has been generated from an entry in the Cambridge 
# Structural Database, then it will include bibliographic, chemical, 
# crystal, experimental, refinement or atomic coordinate data resulting 
# from the CCDC's data processing and validation procedures.
#
#######################################################################

data_FAYLIC
_chemical_formula_moiety         'C36 H8 Fe5 N12 Pt1'
_symmetry_cell_setting           tetragonal
_symmetry_space_group_name_H-M   'P 4/m m m'
_symmetry_Int_Tables_number      123
_space_group_name_Hall           '-P 4 2'
loop_
_symmetry_equiv_pos_site_id
_symmetry_equiv_pos_as_xyz
1 x,y,z
2 -x,-y,z
3 x,-y,-z
4 -x,y,-z
5 -y,-x,-z
6 y,x,-z
7 y,-x,z
8 -y,x,z
9 -x,-y,-z
10 x,y,-z
11 -x,y,z
12 x,-y,z
13 y,x,z
14 -y,-x,z
15 -y,x,-z
16 y,-x,-z
_cell_length_a                   7.1450(2)
_cell_length_b                   7.1450(2)
_cell_length_c                   13.3690(6)
_cell_angle_alpha                90
_cell_angle_beta                 90
_cell_angle_gamma                90
_cell_volume                     682.501
loop_
_atom_site_label
_atom_site_type_symbol
_atom_site_fract_x
_atom_site_fract_y
_atom_site_fract_z
Pt1 Pt 0.0000 1.0000 -0.5000
Fe1 Fe 0.5000 0.5000 -0.5000
N2 N 0.5000 0.5000 -0.3510(8)
N3 N 0.3096(7) 0.6904(7) -0.5000
C4 C 0.5000 0.656(4) -0.2984(11)
C5 C 0.5000 0.648(5) -0.1944(13)
C6 C 0.5000 0.5000 -0.1421(13)
C7 C 0.5000 0.5000 -0.0325(18)
C8 C 0.1960(8) 0.8040(8) -0.5000
Fe1_2 Fe 0.5000 0.5000 0.5000
Fe1_3 Fe -0.5000 1.5000 -0.5000
Fe1_4 Fe 0.5000 1.5000 -0.5000
Fe1_5 Fe -0.5000 0.5000 -0.5000
N2B N 0.5000 0.5000 0.3510(8)
N2B_2 N 0.5000 0.5000 -0.6490(8)
N3A N -0.3096(7) 1.3096(7) -0.5000
N3B N 0.3096(7) 1.3096(7) -0.5000
N3C N -0.3096(7) 0.6904(7) -0.5000
N3A_2 N 0.6904(7) 0.3096(7) -0.5000
N3B_2 N 0.3096(7) 0.3096(7) -0.5000
N3C_2 N 0.6904(7) 0.6904(7) -0.5000
C4G C 0.344(4) 0.5000 -0.2984(11)
C4A C 0.5000 0.344(4) -0.2984(11)
C4F C 0.656(4) 0.5000 -0.2984(11)
C4B C 0.5000 0.344(4) 0.2984(11)
C4C C 0.5000 0.656(4) 0.2984(11)
C4E C 0.656(4) 0.5000 0.2984(11)
C4D C 0.344(4) 0.5000 0.2984(11)
C5G C 0.352(5) 0.5000 -0.1944(13)
C5A C 0.5000 0.352(5) -0.1944(13)
C5F C 0.648(5) 0.5000 -0.1944(13)
C5B C 0.5000 0.352(5) 0.1944(13)
C5C C 0.5000 0.648(5) 0.1944(13)
C5E C 0.648(5) 0.5000 0.1944(13)
C5D C 0.352(5) 0.5000 0.1944(13)
C6B C 0.5000 0.5000 0.1421(13)
C7B C 0.5000 0.5000 0.0325(18)
C8A C -0.1960(8) 1.1960(8) -0.5000
C8B C 0.1960(8) 1.1960(8) -0.5000
C8C C -0.1960(8) 0.8040(8) -0.5000
N1 N 0.277(9) 1.0000 0.0000
C1 C 0.274(9) 1.0000 -0.180(4)
C2 C 0.397(3) 1.0000 -0.094(3)
C3 C 0.390(8) 1.0000 -0.258(3)
N1A N 0.723(9) 1.0000 0.0000
C1A C 0.726(9) 1.0000 -0.180(4)
C1C C 0.726(9) 1.0000 0.180(4)
C1B C 0.274(9) 1.0000 0.180(4)
C2A C 0.603(3) 1.0000 -0.094(3)
C2C C 0.603(3) 1.0000 0.094(3)
C2B C 0.397(3) 1.0000 0.094(3)
C3A C 0.610(8) 1.0000 -0.258(3)
C3C C 0.610(8) 1.0000 0.258(3)
C3B C 0.390(8) 1.0000 0.258(3)
loop_
_geom_bond_atom_site_label_1
_geom_bond_atom_site_label_2
_geom_bond_site_symmetry_1
_geom_bond_site_symmetry_2
N1 C2 1_555 1_555
C1 C2 1_555 1_555
C2 C2A 1_555 1_555
C3 C1 1_555 1_555
Pt1 C8 1_555 1_555
Fe1 N2 1_555 1_555
N2 C4 1_555 1_555
N3 Fe1 1_555 1_555
C4 C5 1_555 1_555
C5 C6 1_555 1_555
C6 C7 1_555 1_555
C7 C7B 1_555 1_555
C8 N3 1_555 1_555
N1A C2A 1_555 1_555
C1A C2A 1_555 1_555
C1C C2C 1_555 1_555
C1B C2B 1_555 1_555
C2C N1A 1_555 1_555
C2B N1 1_555 1_555
C3A C3 1_555 1_555
C3C C1C 1_555 1_555
C3B C1B 1_555 1_555
Fe1_2 N2B 1_555 1_555
Fe1_3 N3A 1_555 1_555
Fe1_4 N3B 1_555 1_555
Fe1_5 N3C 1_555 1_555
N2B C4B 1_555 1_555
N2B_2 Fe1 1_555 1_555
N3A C8A 1_555 1_555
N3B C8B 1_555 1_555
N3C C8C 1_555 1_555
N3A_2 Fe1 1_555 1_555
N3B_2 Fe1 1_555 1_555
N3C_2 Fe1 1_555 1_555
C4G N2 1_555 1_555
C4A N2 1_555 1_555
C4F N2 1_555 1_555
C4B C4E 1_555 1_555
C4C N2B 1_555 1_555
C4E N2B 1_555 1_555
C4D N2B 1_555 1_555
C5G C5 1_555 1_555
C5A C6 1_555 1_555
C5F C5 1_555 1_555
C5B C4B 1_555 1_555
C5C C4C 1_555 1_555
C5E C4E 1_555 1_555
C5D C4D 1_555 1_555
C6B C5B 1_555 1_555
C7B C6B 1_555 1_555
C8A Pt1 1_555 1_555
C8B Pt1 1_555 1_555
C8C Pt1 1_555 1_555
C4 C4G 1_555 1_555
C4 C4F 1_555 1_555
C6 C5G 1_555 1_555
C6 C5F 1_555 1_555
C1A C3A 1_555 1_555
C2C C2B 1_555 1_555
C3C C3B 1_555 1_555
C4G C4A 1_555 1_555
C4G C5G 1_555 1_555
C4A C4F 1_555 1_555
C4A C5A 1_555 1_555
C4F C5F 1_555 1_555
C4B C4D 1_555 1_555
C4C C4E 1_555 1_555
C4C C4D 1_555 1_555
C5G C5A 1_555 1_555
C5A C5F 1_555 1_555
C5B C5E 1_555 1_555
C5B C5D 1_555 1_555
C5C C5E 1_555 1_555
C5C C5D 1_555 1_555
C5C C6B 1_555 1_555
C5E C6B 1_555 1_555
C5D C6B 1_555 1_555

#END
