
#######################################################################
#
#                 Cambridge Crystallographic Data Centre
#                                CCDC 
#
#######################################################################
#
# If this CIF has been generated from an entry in the Cambridge 
# Structural Database, then it will include bibliographic, chemical, 
# crystal, experimental, refinement or atomic coordinate data resulting 
# from the CCDC's data processing and validation procedures.
#
#######################################################################

data_KAMPOG
_chemical_formula_moiety         '(C88 H64 Br2 Cd4 Cl2 N8 O16)n'
_symmetry_cell_setting           triclinic
_symmetry_space_group_name_H-M   'P -1'
_symmetry_Int_Tables_number      2
_space_group_name_Hall           '-P 1'
loop_
_symmetry_equiv_pos_site_id
_symmetry_equiv_pos_as_xyz
1 x,y,z
2 -x,-y,-z
_cell_length_a                   9.0410(8)
_cell_length_b                   17.9143(15)
_cell_length_c                   18.8513(7)
_cell_angle_alpha                102.091(5)
_cell_angle_beta                 102.348(6)
_cell_angle_gamma                102.269(7)
_cell_volume                     2808.63
loop_
_atom_site_label
_atom_site_type_symbol
_atom_site_fract_x
_atom_site_fract_y
_atom_site_fract_z
Cd1 Cd 0.80063(6) 0.76433(3) 0.45486(3)
Cd2 Cd 0.63671(6) 1.18769(3) 0.93578(3)
Br1 Br 0.9215(4) 0.8242(2) 0.36094(17)
Cl1 Cl 0.353(2) 1.1754(8) 0.8973(12)
O1 O 0.7799(8) 0.6321(4) 0.4340(4)
O2 O 1.0014(8) 0.7065(3) 0.5074(4)
O3 O 0.7079(7) 0.7840(3) 0.5684(3)
O4 O 0.8635(6) 0.8833(3) 0.5438(3)
O5 O 0.6251(9) 1.0536(4) 0.8740(4)
O6 O 0.7681(11) 1.1510(4) 0.8469(4)
O7 O 0.7095(7) 1.3100(3) 0.9054(3)
O8 O 0.8116(11) 1.3071(4) 1.0180(4)
N1 N -0.2565(8) 0.6379(4) 0.1860(3)
N2 N 0.5364(7) 0.7367(4) 0.3875(3)
N3 N 0.6799(9) 1.1486(4) 1.0467(4)
N4 N 0.7834(6) 1.0397(3) 1.3873(3)
C1 C -0.4755(12) 0.5794(6) 0.0034(5)
H1 H -0.4595 0.6338 0.0045
C2 C -0.4637(9) 0.5575(5) 0.0680(4)
C3 C -0.4892(12) 0.4772(6) 0.0644(5)
H2 H -0.4823 0.4610 0.1096
C4 C -0.4256(10) 0.6178(6) 0.1432(5)
H3 H -0.4516 0.6668 0.1348
H4 H -0.4920 0.5967 0.1739
C5 C -0.2113(11) 0.6027(6) 0.2390(5)
H5 H -0.2866 0.5637 0.2493
C6 C -0.1458(10) 0.6874(5) 0.1650(4)
H6 H -0.1772 0.7090 0.1241
C7 C -0.0576(10) 0.6222(5) 0.2785(4)
H7 H -0.0279 0.5996 0.3189
C8 C 0.0071(9) 0.7055(5) 0.2023(4)
H8 H 0.0826 0.7405 0.1879
C9 C 0.0557(9) 0.6744(4) 0.2608(4)
C10 C 0.2230(8) 0.6967(4) 0.3053(4)
C11 C 0.3441(10) 0.7167(5) 0.2721(4)
H9 H 0.3212 0.7165 0.2205
C12 C 0.2667(10) 0.6982(6) 0.3798(4)
H10 H 0.1874 0.6841 0.4042
C13 C 0.4992(9) 0.7370(5) 0.3156(4)
H11 H 0.5814 0.7515 0.2929
C14 C 0.4218(10) 0.7195(6) 0.4205(4)
H12 H 0.4475 0.7220 0.4726
C15 C 0.8607(11) 0.4937(5) 0.4502(6)
H13 H 0.7624 0.4880 0.4162
C16 C 0.9563(10) 0.5675(4) 0.4870(5)
C17 C 1.0952(12) 0.5736(5) 0.5384(6)
H14 H 1.1617 0.6246 0.5664
C18 C 0.9082(10) 0.6402(4) 0.4758(4)
C19 C 0.7809(8) 0.8563(4) 0.5836(4)
C20 C 0.7687(8) 0.9135(4) 0.6519(4)
C21 C 0.6760(12) 0.8871(5) 0.6954(6)
H15 H 0.6233 0.8324 0.6839
C22 C 0.8411(10) 0.9927(5) 0.6680(4)
H16 H 0.9040 1.0112 0.6375
C23 C 0.6598(12) 0.9394(5) 0.7549(4)
H17 H 0.5961 0.9207 0.7850
C24 C 0.8233(11) 1.0468(5) 0.7290(5)
H18 H 0.8728 1.1018 0.7395
C25 C 0.7355(9) 1.0204(5) 0.7728(4)
C26 C 0.7066(10) 1.0773(5) 0.8358(4)
C27 C 0.8009(9) 1.3420(5) 0.9690(5)
C28 C 0.9015(9) 1.4240(4) 0.9851(4)
C29 C 1.0055(12) 1.4619(5) 1.0549(5)
H19 H 1.0081 1.4361 1.0942
C30 C 1.1066(12) 1.5369(5) 1.0693(5)
H20 H 1.1811 1.5606 1.1171
C31 C 0.6850(15) 1.0754(5) 1.0484(5)
H21 H 0.6694 1.0366 1.0026
C32 C 0.694(2) 1.1976(7) 1.1116(6)
H22 H 0.6894 1.2501 1.1119
C33 C 0.7133(15) 1.0542(5) 1.1172(4)
H23 H 0.7206 1.0020 1.1167
C34 C 0.716(2) 1.1784(7) 1.1789(6)
H24 H 0.7209 1.2165 1.2235
C35 C 0.7298(10) 1.1051(4) 1.1824(4)
C36 C 0.7519(9) 1.0831(4) 1.2547(4)
C37 C 0.7366(10) 1.0050(4) 1.2555(4)
H25 H 0.7152 0.9653 1.2096
C38 C 0.7519(9) 0.9844(4) 1.3218(4)
H26 H 0.7402 0.9304 1.3217
C39 C 0.7877(10) 1.1389(4) 1.3231(4)
H27 H 0.8031 1.1934 1.3246
C40 C 0.8012(10) 1.1161(5) 1.3886(4)
H28 H 0.8232 1.1548 1.4352
C41 C 0.7946(8) 1.0166(5) 1.4592(4)
H29 H 0.8790 1.0573 1.4998
H30 H 0.8229 0.9657 1.4538
C42 C 0.6422(8) 1.0082(4) 1.4803(3)
C43 C 0.5147(10) 0.9414(5) 1.4457(5)
H31 H 0.5242 0.9000 1.4077
C44 C 0.6221(10) 1.0653(5) 1.5347(5)
H32 H 0.7068 1.1113 1.5598
O1A O 1.2201(8) 0.3679(4) 0.5660(4)
O2A O 0.9986(8) 0.2935(3) 0.4926(4)
C15A C 1.1393(11) 0.5063(5) 0.5498(6)
H13A H 1.2376 0.5120 0.5838
C16A C 1.0437(10) 0.4325(4) 0.5130(5)
C17A C 0.9048(12) 0.4264(5) 0.4616(6)
H14A H 0.8383 0.3754 0.4336
C18A C 1.0918(10) 0.3598(4) 0.5242(4)
O7A O 1.2905(7) 1.6900(3) 1.0946(3)
O8A O 1.1884(11) 1.6929(4) 0.9820(4)
C27A C 1.1991(9) 1.6580(5) 1.0310(5)
C28A C 1.0985(9) 1.5760(4) 1.0149(4)
C29A C 0.9945(12) 1.5381(5) 0.9451(5)
H19A H 0.9919 1.5639 0.9058
C30A C 0.8934(12) 1.4631(5) 0.9307(5)
H20A H 0.8189 1.4394 0.8829
N1A N -0.7435(8) 0.3621(4) -0.1860(3)
N2A N -1.5364(7) 0.2633(4) -0.3875(3)
C1A C -0.5245(12) 0.4206(6) -0.0034(5)
H1A H -0.5405 0.3662 -0.0045
C2A C -0.5363(9) 0.4425(5) -0.0680(4)
C3A C -0.5108(12) 0.5228(6) -0.0644(5)
H2A H -0.5177 0.5390 -0.1096
C4A C -0.5744(10) 0.3822(6) -0.1432(5)
H3A H -0.5484 0.3332 -0.1348
H4A H -0.5080 0.4033 -0.1739
C5A C -0.7887(11) 0.3973(6) -0.2390(5)
H5A H -0.7134 0.4363 -0.2493
C6A C -0.8542(10) 0.3126(5) -0.1650(4)
H6A H -0.8228 0.2910 -0.1241
C7A C -0.9424(10) 0.3778(5) -0.2785(4)
H7A H -0.9721 0.4004 -0.3189
C8A C -1.0071(9) 0.2945(5) -0.2023(4)
H8A H -1.0826 0.2595 -0.1879
C9A C -1.0557(9) 0.3256(4) -0.2608(4)
C10A C -1.2230(8) 0.3033(4) -0.3053(4)
C11A C -1.3441(10) 0.2833(5) -0.2721(4)
H9A H -1.3212 0.2835 -0.2205
C12A C -1.2667(10) 0.3018(6) -0.3798(4)
H10A H -1.1874 0.3159 -0.4042
C13A C -1.4992(9) 0.2630(5) -0.3156(4)
H11A H -1.5814 0.2485 -0.2929
C14A C -1.4218(10) 0.2805(6) -0.4205(4)
H12A H -1.4475 0.2780 -0.4726
N3A N 0.3201(9) 0.8514(4) 1.9533(4)
N4A N 0.2166(6) 0.9603(3) 1.6127(3)
C31A C 0.3150(15) 0.9246(5) 1.9516(5)
H21A H 0.3306 0.9634 1.9974
C32A C 0.306(2) 0.8024(7) 1.8884(6)
H22A H 0.3106 0.7499 1.8881
C33A C 0.2867(15) 0.9458(5) 1.8828(4)
H23A H 0.2794 0.9980 1.8833
C34A C 0.284(2) 0.8216(7) 1.8211(6)
H24A H 0.2791 0.7835 1.7765
C35A C 0.2702(10) 0.8949(4) 1.8176(4)
C36A C 0.2481(9) 0.9169(4) 1.7453(4)
C37A C 0.2634(10) 0.9950(4) 1.7445(4)
H25A H 0.2848 1.0347 1.7904
C38A C 0.2481(9) 1.0156(4) 1.6782(4)
H26A H 0.2598 1.0696 1.6783
C39A C 0.2123(10) 0.8611(4) 1.6769(4)
H27A H 0.1969 0.8066 1.6754
C40A C 0.1988(10) 0.8839(5) 1.6114(4)
H28A H 0.1768 0.8452 1.5648
C41A C 0.2054(8) 0.9834(5) 1.5408(4)
H29A H 0.1210 0.9427 1.5002
H30A H 0.1771 1.0343 1.5462
C42A C 0.3578(8) 0.9918(4) 1.5197(3)
C43A C 0.4853(10) 1.0586(5) 1.5543(5)
H31A H 0.4758 1.1000 1.5923
C44A C 0.3779(10) 0.9347(5) 1.4653(5)
H32A H 0.2932 0.8887 1.4402
Cd1A Cd -1.80063(6) 0.23567(3) -0.45486(3)
Cd2A Cd -1.63671(6) -0.18769(3) -0.93578(3)
Br1A Br -1.9215(4) 0.1758(2) -0.36094(17)
Cl1A Cl -1.353(2) -0.1754(8) -0.8973(12)
O3A O -1.7079(7) 0.2160(3) -0.5684(3)
O4A O -1.8635(6) 0.1167(3) -0.5438(3)
O5A O -1.6251(9) -0.0536(4) -0.8740(4)
O6A O -1.7681(11) -0.1510(4) -0.8469(4)
C19A C -1.7809(8) 0.1437(4) -0.5836(4)
C20A C -1.7687(8) 0.0865(4) -0.6519(4)
C21A C -1.6760(12) 0.1129(5) -0.6954(6)
H15A H -1.6233 0.1676 -0.6839
C22A C -1.8411(10) 0.0073(5) -0.6680(4)
H16A H -1.9040 -0.0112 -0.6375
C23A C -1.6598(12) 0.0606(5) -0.7549(4)
H17A H -1.5961 0.0793 -0.7850
C24A C -1.8233(11) -0.0468(5) -0.7290(5)
H18A H -1.8728 -0.1018 -0.7395
C25A C -1.7355(9) -0.0204(5) -0.7728(4)
C26A C -1.7066(10) -0.0773(5) -0.8358(4)
Cd1A_2 Cd 1.19937(6) 0.23567(3) 0.54514(3)
Cd2A_2 Cd 0.36329(6) 0.81231(3) 2.06422(3)
Cd2A_3 Cd 1.36329(6) 1.81231(3) 1.06422(3)
O1A_2 O -1.7799(8) 0.3679(4) -0.4340(4)
O2A_2 O -2.0014(8) 0.2935(3) -0.5074(4)
O7A_2 O -1.7095(7) -0.3100(3) -0.9054(3)
O8A_2 O -1.8116(11) -0.3071(4) -1.0180(4)
N3A_2 N -1.6799(9) -0.1486(4) -1.0467(4)
loop_
_geom_bond_atom_site_label_1
_geom_bond_atom_site_label_2
_geom_bond_site_symmetry_1
_geom_bond_site_symmetry_2
Cd1 Br1 1_555 1_555
Cd2 Cl1 1_555 1_555
O1 Cd1 1_555 1_555
O2 Cd1 1_555 1_555
O3 Cd1 1_555 1_555
O4 Cd1 1_555 1_555
O5 Cd2 1_555 1_555
O6 Cd2 1_555 1_555
O7 Cd2 1_555 1_555
O8 Cd2 1_555 1_555
N1 C4 1_555 1_555
N2 Cd1 1_555 1_555
N3 Cd2 1_555 1_555
N4 C38 1_555 1_555
C1 H1 1_555 1_555
C2 C1 1_555 1_555
C3 C2 1_555 1_555
H2 C3 1_555 1_555
C4 C2 1_555 1_555
H3 C4 1_555 1_555
H4 C4 1_555 1_555
C5 N1 1_555 1_555
H5 C5 1_555 1_555
C6 N1 1_555 1_555
H6 C6 1_555 1_555
C7 C5 1_555 1_555
H7 C7 1_555 1_555
C8 C6 1_555 1_555
H8 C8 1_555 1_555
C9 C7 1_555 1_555
C10 C9 1_555 1_555
C11 C10 1_555 1_555
H9 C11 1_555 1_555
C12 C10 1_555 1_555
H10 C12 1_555 1_555
C13 N2 1_555 1_555
H11 C13 1_555 1_555
C14 N2 1_555 1_555
H12 C14 1_555 1_555
C15 H13 1_555 1_555
C16 C15 1_555 1_555
C17 C16 1_555 1_555
H14 C17 1_555 1_555
C18 O1 1_555 1_555
C19 O3 1_555 1_555
C20 C19 1_555 1_555
C21 C20 1_555 1_555
H15 C21 1_555 1_555
C22 C20 1_555 1_555
H16 C22 1_555 1_555
C23 C21 1_555 1_555
H17 C23 1_555 1_555
C24 C22 1_555 1_555
H18 C24 1_555 1_555
C25 C23 1_555 1_555
C26 O5 1_555 1_555
C27 O7 1_555 1_555
C28 C27 1_555 1_555
C29 C28 1_555 1_555
H19 C29 1_555 1_555
C30 C29 1_555 1_555
H20 C30 1_555 1_555
C31 N3 1_555 1_555
H21 C31 1_555 1_555
C32 N3 1_555 1_555
H22 C32 1_555 1_555
C33 C31 1_555 1_555
H23 C33 1_555 1_555
C34 C32 1_555 1_555
H24 C34 1_555 1_555
C35 C33 1_555 1_555
C36 C35 1_555 1_555
C37 C36 1_555 1_555
H25 C37 1_555 1_555
C38 C37 1_555 1_555
H26 C38 1_555 1_555
C39 C36 1_555 1_555
H27 C39 1_555 1_555
C40 N4 1_555 1_555
H28 C40 1_555 1_555
C41 N4 1_555 1_555
H29 C41 1_555 1_555
H30 C41 1_555 1_555
C42 C41 1_555 1_555
C43 C42 1_555 1_555
H31 C43 1_555 1_555
C44 C42 1_555 1_555
H32 C44 1_555 1_555
O1A C18A 1_555 1_555
O2A C18A 1_555 1_555
C15A C17 1_555 1_555
H13A C15A 1_555 1_555
C16A C15A 1_555 1_555
C17A C15 1_555 1_555
H14A C17A 1_555 1_555
C18A C16A 1_555 1_555
O7A C27A 1_555 1_555
O8A C27A 1_555 1_555
C27A C28A 1_555 1_555
C28A C30 1_555 1_555
C29A C28A 1_555 1_555
H19A C29A 1_555 1_555
C30A C28 1_555 1_555
H20A C30A 1_555 1_555
N1A C4A 1_555 1_555
N2A C13A 1_555 1_555
C1A C3 1_555 1_555
H1A C1A 1_555 1_555
C2A C1A 1_555 1_555
C3A C1 1_555 1_555
H2A C3A 1_555 1_555
C4A C2A 1_555 1_555
H3A C4A 1_555 1_555
H4A C4A 1_555 1_555
C5A N1A 1_555 1_555
H5A C5A 1_555 1_555
C6A N1A 1_555 1_555
H6A C6A 1_555 1_555
C7A C5A 1_555 1_555
H7A C7A 1_555 1_555
C8A C6A 1_555 1_555
H8A C8A 1_555 1_555
C9A C7A 1_555 1_555
C10A C9A 1_555 1_555
C11A C10A 1_555 1_555
H9A C11A 1_555 1_555
C12A C10A 1_555 1_555
H10A C12A 1_555 1_555
C13A C11A 1_555 1_555
H11A C13A 1_555 1_555
C14A N2A 1_555 1_555
H12A C14A 1_555 1_555
N3A C31A 1_555 1_555
N4A C38A 1_555 1_555
C31A H21A 1_555 1_555
C32A N3A 1_555 1_555
H22A C32A 1_555 1_555
C33A C31A 1_555 1_555
H23A C33A 1_555 1_555
C34A C32A 1_555 1_555
H24A C34A 1_555 1_555
C35A C33A 1_555 1_555
C36A C35A 1_555 1_555
C37A C36A 1_555 1_555
H25A C37A 1_555 1_555
C38A C37A 1_555 1_555
H26A C38A 1_555 1_555
C39A C36A 1_555 1_555
H27A C39A 1_555 1_555
C40A N4A 1_555 1_555
H28A C40A 1_555 1_555
C41A N4A 1_555 1_555
H29A C41A 1_555 1_555
H30A C41A 1_555 1_555
C42A C41A 1_555 1_555
C43A C44 1_555 1_555
H31A C43A 1_555 1_555
C44A C43 1_555 1_555
H32A C44A 1_555 1_555
Cd1A N2A 1_555 1_555
Cd2A Cl1A 1_555 1_555
Br1A Cd1A 1_555 1_555
O3A Cd1A 1_555 1_555
O4A Cd1A 1_555 1_555
O5A Cd2A 1_555 1_555
O6A Cd2A 1_555 1_555
C19A O3A 1_555 1_555
C20A C19A 1_555 1_555
C21A C20A 1_555 1_555
H15A C21A 1_555 1_555
C22A C20A 1_555 1_555
H16A C22A 1_555 1_555
C23A C21A 1_555 1_555
H17A C23A 1_555 1_555
C24A C22A 1_555 1_555
H18A C24A 1_555 1_555
C25A C23A 1_555 1_555
C26A O5A 1_555 1_555
Cd1A_2 O1A 1_555 1_555
Cd2A_2 N3A 1_555 1_555
Cd2A_3 O7A 1_555 1_555
O1A_2 Cd1A 1_555 1_555
O2A_2 Cd1A 1_555 1_555
O7A_2 Cd2A 1_555 1_555
O8A_2 Cd2A 1_555 1_555
N3A_2 Cd2A 1_555 1_555
O2 C18 1_555 1_555
O4 C19 1_555 1_555
O6 C26 1_555 1_555
O8 C27 1_555 1_555
C8 C9 1_555 1_555
C11 C13 1_555 1_555
C12 C14 1_555 1_555
C16 C18 1_555 1_555
C24 C25 1_555 1_555
C25 C26 1_555 1_555
C34 C35 1_555 1_555
C39 C40 1_555 1_555
O2A Cd1A_2 1_555 1_555
C16A C17A 1_555 1_555
O8A Cd2A_3 1_555 1_555
C29A C30A 1_555 1_555
C2A C3A 1_555 1_555
C8A C9A 1_555 1_555
C12A C14A 1_555 1_555
C34A C35A 1_555 1_555
C39A C40A 1_555 1_555
C42A C43A 1_555 1_555
C42A C44A 1_555 1_555
O4A C19A 1_555 1_555
O6A C26A 1_555 1_555
C24A C25A 1_555 1_555
C25A C26A 1_555 1_555

#END
