
#######################################################################
#
#                 Cambridge Crystallographic Data Centre
#                                CCDC 
#
#######################################################################
#
# If this CIF has been generated from an entry in the Cambridge 
# Structural Database, then it will include bibliographic, chemical, 
# crystal, experimental, refinement or atomic coordinate data resulting 
# from the CCDC's data processing and validation procedures.
#
#######################################################################

data_IWEWOY
_chemical_formula_moiety         '(C56 H35 In3 O16)n'
_symmetry_cell_setting           hexagonal
_symmetry_space_group_name_H-M   'P -6 2 c'
_symmetry_Int_Tables_number      190
_space_group_name_Hall           'P -6c -2c'
loop_
_symmetry_equiv_pos_site_id
_symmetry_equiv_pos_as_xyz
1 x,y,z
2 -x+y,-x,1/2-z
3 -y,x-y,z
4 x,y,1/2-z
5 -x+y,-x,z
6 -y,x-y,1/2-z
7 y,x,1/2+z
8 x-y,-y,-z
9 -x,-x+y,1/2+z
10 y,x,-z
11 x-y,-y,1/2+z
12 -x,-x+y,-z
_cell_length_a                   31.8903(7)
_cell_length_b                   31.8903(7)
_cell_length_c                   17.1915(5)
_cell_angle_alpha                90
_cell_angle_beta                 90
_cell_angle_gamma                120
_cell_volume                     15141.2
loop_
_atom_site_label
_atom_site_type_symbol
_atom_site_fract_x
_atom_site_fract_y
_atom_site_fract_z
In1 In 0.56038(7) 0.49244(7) 0.14792(6)
In2 In 0.63708(9) 0.46141(9) 0.2500
O1 O 0.5892(7) 0.4847(7) 0.2500
O2 O 0.1652(11) 0.4892(8) 0.6543(8)
O3 O 0.5593(7) 0.4325(7) 0.0953(8)
O4 O 0.6036(7) 0.4065(7) 0.1584(7)
O5 O 0.4472(8) -0.0025(11) -0.3162(10)
O6 O 0.0942(10) 0.4636(7) 0.5922(9)
O7 O 0.5247(9) 0.4958(8) 0.0439(9)
O8 O 0.4874(7) 0.4510(9) 0.1853(10)
O9 O 0.6942(9) 0.4526(13) 0.2500
C1 C 0.2555(9) 0.4276(8) 0.3206(14)
H1 H 0.2713 0.4282 0.3671
C2 C 0.5714(8) 0.3027(8) -0.1789(11)
C3 C 0.4943(11) 0.0999(10) -0.3179(14)
H2 H 0.4875 0.0823 -0.3646
C4 C 0.2107(9) 0.4271(9) 0.3213(12)
C5 C 0.2745(12) 0.4272(13) 0.2500
C6 C 0.5576(11) 0.3606(9) -0.1044(11)
H3 H 0.5444 0.3656 -0.1500
C7 C 0.3253(15) 0.4304(15) 0.2500
C8 C 0.5767(11) 0.3250(8) -0.2500
H4 H 0.5845 0.3576 -0.2500
C9 C 0.5336(15) 0.5336(15) 0.0000
H5 H 0.5630 0.5630 0.0000
C10 C 0.1912(9) 0.4335(9) 0.3954(11)
C11 C 0.1389(9) 0.4151(9) 0.4056(12)
H6 H 0.1170 0.3962 0.3664
C12 C 0.1884(13) 0.4271(12) 0.2500
H7 H 0.1589 0.4270 0.2500
C13 C 0.2195(9) 0.4590(9) 0.4527(12)
H8 H 0.2529 0.4707 0.4473
C14 C 0.1219(10) 0.4257(11) 0.4738(14)
H9 H 0.0886 0.4141 0.4798
C15 C 0.5793(11) 0.4071(9) 0.1009(11)
C16 C 0.1362(13) 0.4691(9) 0.5974(10)
C17 C 0.5514(12) 0.2302(11) -0.2500
C18 C 0.5763(10) 0.3780(9) 0.0284(12)
C19 C 0.4692(17) 0.4483(16) 0.2500
C20 C 0.5921(8) 0.3214(8) -0.0381(11)
H10 H 0.6030 0.2990 -0.0372
C21 C 0.1525(13) 0.4519(9) 0.5302(12)
C22 C 0.2036(9) 0.4701(8) 0.5219(12)
H11 H 0.2255 0.4888 0.5612
C23 C 0.5308(11) 0.1754(10) -0.2500
C24 C 0.5577(7) 0.2541(7) -0.1776(10)
H12 H 0.5526 0.2375 -0.1303
C25 C 0.5746(9) 0.3290(7) -0.1067(10)
C26 C 0.5591(10) 0.3856(10) -0.0385(14)
H13 H 0.5481 0.4080 -0.0400
C27 C 0.5163(10) 0.1496(8) -0.3215(12)
H14 H 0.5215 0.1658 -0.3692
C28 C 0.5941(8) 0.3457(8) 0.0294(11)
H15 H 0.6072 0.3407 0.0752
C29 C 0.4821(12) 0.0753(9) -0.2500
C30 C 0.4523(14) 0.0173(19) -0.2500
C31 C 0.4145(14) 0.4369(15) 0.2500
C32 C 0.355(3) 0.449(3) 0.315(3)
H16 H 0.3435 0.4589 0.3575
C33 C 0.402(3) 0.455(3) 0.322(3)
H17 H 0.4221 0.4682 0.3658
C34 C 0.703(2) 0.425(2) 0.2500
O2C O 0.1652(11) 0.4892(8) -0.1543(8)
O6C O 0.0942(10) 0.4636(7) -0.0922(9)
O8C O 0.4874(7) 0.4510(9) 0.3147(10)
C1C C 0.2555(9) 0.4276(8) 0.1794(14)
H1C H 0.2713 0.4282 0.1329
C4C C 0.2107(9) 0.4271(9) 0.1787(12)
C10C C 0.1912(9) 0.4335(9) 0.1046(11)
C11C C 0.1389(9) 0.4151(9) 0.0944(12)
H6C H 0.1170 0.3962 0.1336
C13C C 0.2195(9) 0.4590(9) 0.0473(12)
H8C H 0.2529 0.4707 0.0527
C14C C 0.1219(10) 0.4257(11) 0.0262(14)
H9C H 0.0886 0.4141 0.0202
C16C C 0.1362(13) 0.4691(9) -0.0974(10)
C21C C 0.1525(13) 0.4519(9) -0.0302(12)
C22C C 0.2036(9) 0.4701(8) -0.0219(12)
H11C H 0.2255 0.4888 -0.0612
C32C C 0.355(3) 0.449(3) 0.185(3)
H16C H 0.3435 0.4589 0.1425
C33C C 0.402(3) 0.455(3) 0.178(3)
H17C H 0.4221 0.4682 0.1342
O3C O 0.5593(7) 0.4325(7) -0.5953(8)
O4C O 0.6036(7) 0.4065(7) -0.6584(7)
O5C O 0.4472(8) -0.0025(11) -0.1838(10)
C2C C 0.5714(8) 0.3027(8) -0.3211(11)
C3C C 0.4943(11) 0.0999(10) -0.1821(14)
H2C H 0.4875 0.0823 -0.1354
C6C C 0.5576(11) 0.3606(9) -0.3956(11)
H3C H 0.5444 0.3656 -0.3500
C15C C 0.5793(11) 0.4071(9) -0.6009(11)
C18C C 0.5763(10) 0.3780(9) -0.5284(12)
C20C C 0.5921(8) 0.3214(8) -0.4619(11)
H10C H 0.6030 0.2990 -0.4628
C24C C 0.5577(7) 0.2541(7) -0.3224(10)
H12C H 0.5526 0.2375 -0.3697
C25C C 0.5746(9) 0.3290(7) -0.3933(10)
C26C C 0.5591(10) 0.3856(10) -0.4615(14)
H13C H 0.5481 0.4080 -0.4600
C27C C 0.5163(10) 0.1496(8) -0.1785(12)
H14C H 0.5215 0.1658 -0.1308
C28C C 0.5941(8) 0.3457(8) -0.5294(11)
H15C H 0.6072 0.3407 -0.5752
O7I O 0.4958(8) 0.5247(9) -0.0439(9)
In1C In 0.56038(7) 0.49244(7) -0.64792(6)
In1C_2 In 0.56038(7) 0.49244(7) 0.35208(6)
In1G In 0.06794(10) 0.50756(7) -0.14792(6)
In1H In 0.43962(7) -0.06794(10) -0.35208(6)
In1I In 0.49244(7) 0.56038(7) -0.14792(6)
In1J In 0.06794(10) 0.50756(7) 0.64792(6)
In1K In 0.43962(7) -0.06794(10) -0.14792(6)
In2_2 In 0.63708(9) 0.46141(9) -0.7500
In2G In 0.17567(13) 0.53859(9) -0.2500
In2G_2 In 0.17567(13) 0.53859(9) 0.7500
O1_2 O 0.5892(7) 0.4847(7) -0.7500
O2G O 0.6760(14) 0.5108(8) 0.3457(8)
O2J O 0.6760(14) 0.5108(8) 0.1543(8)
O4C_2 O 0.6036(7) 0.4065(7) 0.3416(7)
O5H O 0.5528(8) 0.5503(14) 0.1838(10)
O5K O 0.5528(8) 0.5503(14) -0.6838(10)
O6G O 0.6306(12) 0.5364(7) -0.5922(9)
O6J O 0.6306(12) 0.5364(7) 0.0922(9)
O7C O 0.5247(9) 0.4958(8) -0.5439(9)
O8C_2 O 0.4874(7) 0.4510(9) -0.6853(10)
loop_
_geom_bond_atom_site_label_1
_geom_bond_atom_site_label_2
_geom_bond_site_symmetry_1
_geom_bond_site_symmetry_2
In1 O1 1_555 1_555
In2 O1 1_555 1_555
O1 In1C_2 1_555 1_555
O2 C16 1_555 1_555
O3 In1 1_555 1_555
O4 In2 1_555 1_555
O5 C30 1_555 1_555
O6 C16 1_555 1_555
O7 In1 1_555 1_555
O8 In1 1_555 1_555
O9 In2 1_555 1_555
C1 H1 1_555 1_555
C2 C8 1_555 1_555
C3 H2 1_555 1_555
C4 C1 1_555 1_555
C5 C1 1_555 1_555
C6 H3 1_555 1_555
C7 C5 1_555 1_555
C8 H4 1_555 1_555
C9 O7 1_555 1_555
H5 C9 1_555 1_555
C10 C4 1_555 1_555
C11 C10 1_555 1_555
H6 C11 1_555 1_555
C12 C4 1_555 1_555
H7 C12 1_555 1_555
C13 C10 1_555 1_555
H8 C13 1_555 1_555
C14 C11 1_555 1_555
H9 C14 1_555 1_555
C15 O3 1_555 1_555
C16 C21 1_555 1_555
C17 C23 1_555 1_555
C18 C15 1_555 1_555
C19 O8 1_555 1_555
C20 H10 1_555 1_555
C21 C14 1_555 1_555
C22 C13 1_555 1_555
H11 C22 1_555 1_555
C23 C27 1_555 1_555
C24 C2 1_555 1_555
H12 C24 1_555 1_555
C25 C2 1_555 1_555
C26 C6 1_555 1_555
H13 C26 1_555 1_555
C27 C3 1_555 1_555
H14 C27 1_555 1_555
C28 C18 1_555 1_555
H15 C28 1_555 1_555
C29 C3 1_555 1_555
C30 C29 1_555 1_555
C31 C19 1_555 1_555
C32 C7 1_555 1_555
H16 C32 1_555 1_555
C33 C31 1_555 1_555
H17 C33 1_555 1_555
C34 O9 1_555 1_555
O2C C16C 1_555 1_555
O6C C16C 1_555 1_555
O8C C19 1_555 1_555
C1C C5 1_555 1_555
H1C C1C 1_555 1_555
C4C C12 1_555 1_555
C10C C4C 1_555 1_555
C11C C10C 1_555 1_555
H6C C11C 1_555 1_555
C13C C10C 1_555 1_555
H8C C13C 1_555 1_555
C14C C11C 1_555 1_555
H9C C14C 1_555 1_555
C16C C21C 1_555 1_555
C21C C14C 1_555 1_555
C22C C13C 1_555 1_555
H11C C22C 1_555 1_555
C32C C7 1_555 1_555
H16C C32C 1_555 1_555
C33C C31 1_555 1_555
H17C C33C 1_555 1_555
O3C C15C 1_555 1_555
O4C C15C 1_555 1_555
O5C C30 1_555 1_555
C2C C8 1_555 1_555
C3C C29 1_555 1_555
H2C C3C 1_555 1_555
C6C H3C 1_555 1_555
C15C C18C 1_555 1_555
C18C C26C 1_555 1_555
C20C H10C 1_555 1_555
C24C C17 1_555 1_555
H12C C24C 1_555 1_555
C25C C2C 1_555 1_555
C26C C6C 1_555 1_555
H13C C26C 1_555 1_555
C27C C23 1_555 1_555
H14C C27C 1_555 1_555
C28C C18C 1_555 1_555
H15C C28C 1_555 1_555
O7I C9 1_555 1_555
In1C O3C 1_555 1_555
In1C_2 O8C 1_555 1_555
In1G O6C 1_555 1_555
In1H O5 1_555 1_555
In1I O7I 1_555 1_555
In1J O6 1_555 1_555
In1K O5C 1_555 1_555
In2_2 O4C 1_555 1_555
In2G O2C 1_555 1_555
In2G_2 O2 1_555 1_555
O1_2 In1C 1_555 1_555
O2G In2 1_555 1_555
O2J In2 1_555 1_555
O4C_2 In2 1_555 1_555
O5H In1 1_555 1_555
O5K In1C 1_555 1_555
O6G In1C 1_555 1_555
O6J In1 1_555 1_555
O7C In1C 1_555 1_555
O8C_2 In1C 1_555 1_555
O4 C15 1_555 1_555
C6 C25 1_555 1_555
C17 C24 1_555 1_555
C18 C26 1_555 1_555
C20 C25 1_555 1_555
C20 C28 1_555 1_555
C21 C22 1_555 1_555
C32 C33 1_555 1_555
C1C C4C 1_555 1_555
C21C C22C 1_555 1_555
C32C C33C 1_555 1_555
C2C C24C 1_555 1_555
C3C C27C 1_555 1_555
C6C C25C 1_555 1_555
C20C C25C 1_555 1_555
C20C C28C 1_555 1_555
In2_2 O1_2 1_555 1_555

#END
