
#######################################################################
#
#                 Cambridge Crystallographic Data Centre
#                                CCDC 
#
#######################################################################
#
# If this CIF has been generated from an entry in the Cambridge 
# Structural Database, then it will include bibliographic, chemical, 
# crystal, experimental, refinement or atomic coordinate data resulting 
# from the CCDC's data processing and validation procedures.
#
#######################################################################

data_YOPMAS
_chemical_formula_moiety         '(C38 H28 Co3 N4 O15)n'
_symmetry_cell_setting           monoclinic
_symmetry_space_group_name_H-M   'C 2/c'
_symmetry_Int_Tables_number      15
_space_group_name_Hall           '-C 2yc'
loop_
_symmetry_equiv_pos_site_id
_symmetry_equiv_pos_as_xyz
1 x,y,z
2 -x,y,1/2-z
3 1/2+x,1/2+y,z
4 1/2-x,1/2+y,1/2-z
5 -x,-y,-z
6 x,-y,1/2+z
7 1/2-x,1/2-y,-z
8 1/2+x,1/2-y,1/2+z
_cell_length_a                   30.386(5)
_cell_length_b                   11.0580(19)
_cell_length_c                   12.034(2)
_cell_angle_alpha                90
_cell_angle_beta                 100.592(3)
_cell_angle_gamma                90
_cell_volume                     3974.63
loop_
_atom_site_label
_atom_site_type_symbol
_atom_site_fract_x
_atom_site_fract_y
_atom_site_fract_z
Co1 Co 0.38714(3) 0.59189(9) -0.52844(8)
Co2 Co 0.5000 0.55244(13) -0.7500
O1 O 0.46156(18) 0.4272(5) -0.6992(5)
O2 O 0.39912(18) 0.5251(5) -0.6812(4)
O3 O 0.38087(19) 0.3512(5) -0.8689(4)
O4 O 0.3457(2) 0.1756(6) -0.8962(5)
O5 O 0.43929(19) 0.4815(5) -0.4501(5)
O6 O 0.4702(2) 0.3236(5) -0.3560(5)
O7 O 0.3355(2) 0.7215(6) -0.6011(5)
H1 H 0.3223 0.7708 -0.5540
H2 H 0.3268 0.7273 -0.6791
N1 N 0.4341(2) 0.7324(6) -0.5284(6)
N2 N 0.3356(2) 0.4617(6) -0.5190(6)
C1 C 0.4059(2) 0.3136(7) -0.6367(6)
C2 C 0.4174(3) 0.2838(7) -0.5215(7)
C3 C 0.4030(3) 0.1769(8) -0.4818(7)
H3 H 0.4109 0.1588 -0.4053
C4 C 0.3772(3) 0.0965(8) -0.5521(8)
H4 H 0.3672 0.0254 -0.5238
C5 C 0.3664(3) 0.1233(8) -0.6666(7)
H5 H 0.3491 0.0689 -0.7151
C6 C 0.3806(3) 0.2287(7) -0.7099(7)
C7 C 0.4225(3) 0.4325(7) -0.6782(6)
C8 C 0.4439(2) 0.3694(7) -0.4387(6)
C9 C 0.3677(2) 0.2525(7) -0.8349(7)
C10 C 0.4341(3) 0.8087(9) -0.6148(8)
H6 H 0.4157 0.7906 -0.6835
C11 C 0.4593(3) 0.9117(8) -0.6084(8)
H7 H 0.4582 0.9608 -0.6717
C12 C 0.4871(3) 0.9431(7) -0.5056(7)
C13 C 0.4893(3) 0.8612(8) -0.4199(7)
H8 H 0.5089 0.8744 -0.3520
C14 C 0.4627(3) 0.7584(8) -0.4331(8)
H9 H 0.4647 0.7051 -0.3725
C15 C 0.3301(3) 0.4173(9) -0.4203(8)
H10 H 0.3490 0.4435 -0.3551
C16 C 0.2975(3) 0.3343(9) -0.4102(8)
H11 H 0.2954 0.3039 -0.3392
C17 C 0.2677(3) 0.2953(8) -0.5040(7)
C18 C 0.2746(3) 0.3384(10) -0.6066(8)
H12 H 0.2564 0.3128 -0.6732
C19 C 0.3088(3) 0.4201(9) -0.6104(8)
H13 H 0.3132 0.4473 -0.6807
C12D C 0.5129(3) 1.0569(7) -0.4944(7)
C11D C 0.5407(3) 1.0883(8) -0.3916(8)
C10D C 0.5659(3) 1.1913(9) -0.3852(8)
N1D N 0.5659(2) 1.2676(6) -0.4716(6)
C14D C 0.5373(3) 1.2416(8) -0.5669(8)
C13D C 0.5107(3) 1.1388(8) -0.5801(7)
H8D H 0.4911 1.1256 -0.6480
H9D H 0.5353 1.2949 -0.6275
H6D H 0.5843 1.2094 -0.3165
H7D H 0.5418 1.0392 -0.3283
C17F C 0.2323(3) 0.2047(8) -0.4960(7)
C16F C 0.2025(3) 0.1657(9) -0.5898(8)
C15F C 0.1699(3) 0.0827(9) -0.5797(8)
N2F N 0.1644(2) 0.0383(6) -0.4810(6)
C19F C 0.1912(3) 0.0799(9) -0.3896(8)
C18F C 0.2254(3) 0.1616(10) -0.3934(8)
H12F H 0.2436 0.1872 -0.3268
H13F H 0.1868 0.0527 -0.3193
H10F H 0.1510 0.0565 -0.6449
H11F H 0.2046 0.1961 -0.6608
O1A O 0.53844(18) 0.4272(5) -0.8008(5)
O2A O 0.60088(18) 0.5251(5) -0.8188(4)
O3A O 0.61913(19) 0.3512(5) -0.6311(4)
O4A O 0.6543(2) 0.1756(6) -0.6038(5)
O5A O 0.56071(19) 0.4815(5) -1.0499(5)
O6A O 0.5298(2) 0.3236(5) -1.1440(5)
C1A C 0.5941(2) 0.3136(7) -0.8633(6)
C2A C 0.5826(3) 0.2838(7) -0.9785(7)
C3A C 0.5970(3) 0.1769(8) -1.0182(7)
H3A H 0.5891 0.1588 -1.0947
C4A C 0.6228(3) 0.0965(8) -0.9479(8)
H4A H 0.6328 0.0254 -0.9762
C5A C 0.6336(3) 0.1233(8) -0.8334(7)
H5A H 0.6509 0.0689 -0.7849
C6A C 0.6194(3) 0.2287(7) -0.7901(7)
C7A C 0.5775(3) 0.4325(7) -0.8218(6)
C8A C 0.5561(2) 0.3694(7) -1.0613(6)
C9A C 0.6323(2) 0.2525(7) -0.6651(7)
Co1A Co 0.61286(3) 0.59189(9) -0.97156(8)
O7A O 0.6645(2) 0.7215(6) -0.8989(5)
H1A H 0.6777 0.7708 -0.9460
H2A H 0.6732 0.7273 -0.8209
O3E O 0.38087(19) 0.6488(5) -0.3689(4)
O6D O 0.5298(2) 0.6764(5) -0.6440(5)
O6E O 0.4702(2) 0.6764(5) -0.8560(5)
Co1E Co 0.38714(3) 0.40811(9) -1.02844(8)
Co2D Co 0.5000 0.44756(13) -0.2500
Co1D Co 0.61286(3) 1.40811(9) -0.47156(8)
Co1F Co 0.11286(3) -0.09189(9) -0.47156(8)
Co1D_2 Co 0.61286(3) 0.40811(9) -0.47156(8)
Co2E Co 0.5000 0.44756(13) -1.2500
O3D O 0.61913(19) 0.6488(5) -1.1311(4)
N1A N 0.5659(2) 0.7324(6) -0.9716(6)
N2A N 0.6644(2) 0.4617(6) -0.9810(6)
O8 O 0.2555(5) 0.836(2) -0.390(2)
H14 H 0.2592 0.8109 -0.3225
H15 H 0.2348 0.8866 -0.4143
loop_
_geom_bond_atom_site_label_1
_geom_bond_atom_site_label_2
_geom_bond_site_symmetry_1
_geom_bond_site_symmetry_2
Co1 O2 1_555 1_555
Co2 O1 1_555 1_555
O1 C7 1_555 1_555
O2 C7 1_555 1_555
O3 C9 1_555 1_555
O4 C9 1_555 1_555
O5 Co1 1_555 1_555
O6 C8 1_555 1_555
O7 Co1 1_555 1_555
H1 O7 1_555 1_555
H2 O7 1_555 1_555
N1 Co1 1_555 1_555
N2 Co1 1_555 1_555
C1 C2 1_555 1_555
C2 C3 1_555 1_555
C3 H3 1_555 1_555
C4 C3 1_555 1_555
H4 C4 1_555 1_555
C5 C4 1_555 1_555
H5 C5 1_555 1_555
C6 C1 1_555 1_555
C7 C1 1_555 1_555
C8 O5 1_555 1_555
C9 C6 1_555 1_555
C10 N1 1_555 1_555
H6 C10 1_555 1_555
C11 C10 1_555 1_555
H7 C11 1_555 1_555
C12 C11 1_555 1_555
C13 C12 1_555 1_555
H8 C13 1_555 1_555
C14 N1 1_555 1_555
H9 C14 1_555 1_555
C15 N2 1_555 1_555
H10 C15 1_555 1_555
C16 C15 1_555 1_555
H11 C16 1_555 1_555
C17 C16 1_555 1_555
C18 C17 1_555 1_555
H12 C18 1_555 1_555
C19 N2 1_555 1_555
H13 C19 1_555 1_555
O8 H14 1_555 1_555
H15 O8 1_555 1_555
C12D C12 1_555 1_555
C11D C12D 1_555 1_555
C10D C11D 1_555 1_555
N1D C10D 1_555 1_555
C14D N1D 1_555 1_555
C13D C12D 1_555 1_555
H8D C13D 1_555 1_555
H9D C14D 1_555 1_555
H6D C10D 1_555 1_555
H7D C11D 1_555 1_555
C17F C17 1_555 1_555
C16F C17F 1_555 1_555
C15F C16F 1_555 1_555
N2F C15F 1_555 1_555
C19F N2F 1_555 1_555
C18F C17F 1_555 1_555
H12F C18F 1_555 1_555
H13F C19F 1_555 1_555
H10F C15F 1_555 1_555
H11F C16F 1_555 1_555
O1A Co2 1_555 1_555
O2A C7A 1_555 1_555
O3A C9A 1_555 1_555
O4A C9A 1_555 1_555
O5A C8A 1_555 1_555
O6A C8A 1_555 1_555
C1A C2A 1_555 1_555
C2A C3A 1_555 1_555
C3A H3A 1_555 1_555
C4A C3A 1_555 1_555
H4A C4A 1_555 1_555
C5A C4A 1_555 1_555
H5A C5A 1_555 1_555
C6A C1A 1_555 1_555
C7A O1A 1_555 1_555
C8A C2A 1_555 1_555
C9A C6A 1_555 1_555
Co1A O2A 1_555 1_555
O7A Co1A 1_555 1_555
H1A O7A 1_555 1_555
H2A O7A 1_555 1_555
O3E Co1 1_555 1_555
O6D Co2 1_555 1_555
O6E Co2 1_555 1_555
Co1E O3 1_555 1_555
Co2D O6 1_555 1_555
Co1D N1D 1_555 1_555
Co1F N2F 1_555 1_555
Co1D_2 O3A 1_555 1_555
Co2E O6A 1_555 1_555
O3D Co1A 1_555 1_555
N1A Co1A 1_555 1_555
N2A Co1A 1_555 1_555
C2 C8 1_555 1_555
C5 C6 1_555 1_555
C13 C14 1_555 1_555
C18 C19 1_555 1_555
C14D C13D 1_555 1_555
C19F C18F 1_555 1_555
O5A Co1A 1_555 1_555
C1A C7A 1_555 1_555
C5A C6A 1_555 1_555

#END
