
#######################################################################
#
#                 Cambridge Crystallographic Data Centre
#                                CCDC 
#
#######################################################################
#
# If this CIF has been generated from an entry in the Cambridge 
# Structural Database, then it will include bibliographic, chemical, 
# crystal, experimental, refinement or atomic coordinate data resulting 
# from the CCDC's data processing and validation procedures.
#
#######################################################################

data_ECOKAJ
_chemical_formula_moiety         '(C54 H28 N14 O14 Zn3)n'
_symmetry_cell_setting           cubic
_symmetry_space_group_name_H-M   'P 43 3 2'
_symmetry_Int_Tables_number      212
_space_group_name_Hall           'P 4acd 2ab 3'
loop_
_symmetry_equiv_pos_site_id
_symmetry_equiv_pos_as_xyz
1 x,y,z
2 1/2-x,-y,1/2+z
3 -x,1/2+y,1/2-z
4 1/2+x,1/2-y,-z
5 z,x,y
6 1/2+z,1/2-x,-y
7 1/2-z,-x,1/2+y
8 -z,1/2+x,1/2-y
9 y,z,x
10 -y,1/2+z,1/2-x
11 1/2+y,1/2-z,-x
12 1/2-y,-z,1/2+x
13 1/4+y,3/4+x,3/4-z
14 1/4-y,1/4-x,1/4-z
15 3/4+y,3/4-x,1/4+z
16 3/4-y,1/4+x,3/4+z
17 1/4+x,3/4+z,3/4-y
18 3/4-x,1/4+z,3/4+y
19 1/4-x,1/4-z,1/4-y
20 3/4+x,3/4-z,1/4+y
21 1/4+z,3/4+y,3/4-x
22 3/4+z,3/4-y,1/4+x
23 3/4-z,1/4+y,3/4+x
24 1/4-z,1/4-y,1/4-x
_cell_length_a                   29.497(2)
_cell_length_b                   29.497(2)
_cell_length_c                   29.497(2)
_cell_angle_alpha                90
_cell_angle_beta                 90
_cell_angle_gamma                90
_cell_volume                     25664.5
loop_
_atom_site_label
_atom_site_type_symbol
_atom_site_fract_x
_atom_site_fract_y
_atom_site_fract_z
C1 C 0.5123(3) 0.8372(2) 0.6132(4)
C2 C 0.5478(4) 0.8258(3) 0.5826(3)
H1 H 0.5507 0.8410 0.5551
C3 C 0.5781(3) 0.7915(4) 0.5943(4)
H2 H 0.6028 0.7849 0.5759
C4 C 0.5702(4) 0.7654(2) 0.6374(5)
C5 C 0.5363(4) 0.7781(4) 0.6651(3)
H3 H 0.5320 0.7634 0.6926
C6 C 0.5091(3) 0.8120(4) 0.6531(3)
H4 H 0.4859 0.8195 0.6730
C7 C 0.4769(3) 0.8723(3) 0.6035(3)
C8 C 0.6042(3) 0.7236(4) 0.6445(5)
C9 C 0.6649(5) 0.6839(3) 0.6249(3)
N1 N 0.6385(3) 0.7205(3) 0.6143(2)
N2 N 0.59461(17) 0.6998(4) 0.6796(3)
N3 N 0.65757(14) 0.65757(14) 0.65757(14)
O1 O 0.48427(12) 0.89606(13) 0.56887(13)
O2 O 0.43765(13) 0.87382(19) 0.62913(16)
O3 O 0.48549(10) 0.98549(10) 0.51451(10)
Zn1 Zn 0.3750 0.8750 0.6250
Zn2 Zn 0.444937(18) 0.944937(18) 0.555063(18)
C1H C 0.8372(2) 0.6132(4) 0.5123(3)
C1D C 0.6132(4) 0.5123(3) 0.8372(2)
C1G C 0.3868(4) 1.0123(3) 0.6628(2)
C1B C 0.4877(3) 1.3372(2) 0.8868(4)
C1I C 0.1628(2) 1.1132(4) 0.9877(3)
C2H C 0.8258(3) 0.5826(3) 0.5478(4)
C2D C 0.5826(3) 0.5478(4) 0.8258(3)
C2G C 0.4174(3) 1.0478(4) 0.6742(3)
C2B C 0.4522(4) 1.3258(3) 0.9174(3)
C2I C 0.1742(3) 1.0826(3) 0.9522(4)
H1H H 0.8410 0.5551 0.5507
H1D H 0.5551 0.5507 0.8410
H1G H 0.4449 1.0507 0.6590
H1B H 0.4493 1.3410 0.9449
H1I H 0.1590 1.0551 0.9493
C3H C 0.7915(4) 0.5943(4) 0.5781(3)
C3D C 0.5943(4) 0.5781(3) 0.7915(4)
C3G C 0.4057(4) 1.0781(3) 0.7085(4)
C3B C 0.4219(3) 1.2915(4) 0.9057(4)
C3I C 0.2085(4) 1.0943(4) 0.9219(3)
H2H H 0.7849 0.5759 0.6028
H2D H 0.5759 0.6028 0.7849
H2G H 0.4241 1.1028 0.7151
H2B H 0.3972 1.2849 0.9241
H2I H 0.2151 1.0759 0.8972
C4H C 0.7654(2) 0.6374(5) 0.5702(4)
C4D C 0.6374(5) 0.5702(4) 0.7654(2)
C4G C 0.3626(5) 1.0702(4) 0.7346(2)
C4B C 0.4298(4) 1.2654(2) 0.8626(5)
C4I C 0.2346(2) 1.1374(5) 0.9298(4)
C5H C 0.7781(4) 0.6651(3) 0.5363(4)
C5D C 0.6651(3) 0.5363(4) 0.7781(4)
C5G C 0.3349(3) 1.0363(4) 0.7219(4)
C5B C 0.4637(4) 1.2781(4) 0.8349(3)
C5I C 0.2219(4) 1.1651(3) 0.9637(4)
H3H H 0.7634 0.6926 0.5320
H3D H 0.6926 0.5320 0.7634
H3G H 0.3074 1.0320 0.7366
H3B H 0.4680 1.2634 0.8074
H3I H 0.2366 1.1926 0.9680
C6H C 0.8120(4) 0.6531(3) 0.5091(3)
C6D C 0.6531(3) 0.5091(3) 0.8120(4)
C6G C 0.3469(3) 1.0091(3) 0.6880(4)
C6B C 0.4909(3) 1.3120(4) 0.8469(3)
C6I C 0.1880(4) 1.1531(3) 0.9909(3)
H4H H 0.8195 0.6730 0.4859
H4D H 0.6730 0.4859 0.8195
H4G H 0.3270 0.9859 0.6805
H4B H 0.5141 1.3195 0.8270
H4I H 0.1805 1.1730 1.0141
C7H C 0.8723(3) 0.6035(3) 0.4769(3)
C7D C 0.6035(3) 0.4769(3) 0.8723(3)
C7G C 0.3965(3) 0.9769(3) 0.6277(3)
C7B C 0.5231(3) 1.3723(3) 0.8965(3)
C7I C 0.1277(3) 1.1035(3) 1.0231(3)
C8H C 0.7236(4) 0.6445(5) 0.6042(3)
C8D C 0.6445(5) 0.6042(3) 0.7236(4)
C8G C 0.3555(5) 1.1042(3) 0.7764(4)
C8B C 0.3958(3) 1.2236(4) 0.8555(5)
C8I C 0.2764(4) 1.1445(5) 0.8958(3)
C9H C 0.6839(3) 0.6249(3) 0.6649(5)
C9D C 0.6249(3) 0.6649(5) 0.6839(3)
C9G C 0.3751(3) 1.1649(5) 0.8161(3)
C9B C 0.3351(5) 1.1839(3) 0.8751(3)
C9I C 0.3161(3) 1.1249(3) 0.8351(5)
N1H N 0.7205(3) 0.6143(2) 0.6385(3)
N1D N 0.6143(2) 0.6385(3) 0.7205(3)
N1G N 0.3857(2) 1.1385(3) 0.7795(3)
N1B N 0.3615(3) 1.2205(3) 0.8857(2)
N1I N 0.2795(3) 1.1143(2) 0.8615(3)
N2H N 0.6998(4) 0.6796(3) 0.59461(17)
N2D N 0.6796(3) 0.59461(17) 0.6998(4)
N2G N 0.3204(3) 1.09461(17) 0.8002(4)
N2B N 0.40539(17) 1.1998(4) 0.8204(3)
N2I N 0.3002(4) 1.1796(3) 0.90539(17)
N3B N 0.34243(14) 1.15757(14) 0.84243(14)
O1H O 0.89606(13) 0.56887(13) 0.48427(12)
O1D O 0.56887(13) 0.48427(12) 0.89606(13)
O1G O 0.43113(13) 0.98427(12) 0.60394(13)
O1B O 0.51573(12) 1.39606(13) 0.93113(13)
O1I O 0.10394(13) 1.06887(13) 1.01573(12)
O1J O 0.39606(13) 0.93113(13) 0.51573(12)
O1C O 0.98427(12) 0.60394(13) 0.43113(13)
O1F O 0.93113(13) 0.51573(12) 0.39606(13)
O2H O 0.87382(19) 0.62913(16) 0.43765(13)
O2D O 0.62913(16) 0.43765(13) 0.87382(19)
O2G O 0.37087(16) 0.93765(13) 0.62618(19)
O2B O 0.56235(13) 1.37382(19) 0.87087(16)
O2I O 0.12618(19) 1.12913(16) 1.06235(13)
O2J O 0.37382(19) 0.87087(16) 0.56235(13)
O2M O 0.37618(19) 0.81235(13) 0.62087(16)
O2Q O 0.31235(13) 0.87913(16) 0.62382(19)
O2U O 0.37913(16) 0.87618(19) 0.68765(13)
O3C O 0.98549(10) 0.51451(10) 0.48549(10)
Zn1C Zn 0.8750 0.6250 0.3750
Zn1B Zn 0.6250 0.3750 0.8750
Zn1B_2 Zn 0.6250 1.3750 0.8750
Zn1A Zn 0.1250 1.1250 1.1250
Zn2C Zn 0.944937(18) 0.555063(18) 0.444937(18)
Zn2B Zn 0.555063(18) 0.444937(18) 0.944937(18)
Zn2B_2 Zn 0.555063(18) 1.444937(18) 0.944937(18)
Zn2A Zn 0.055063(18) 1.055063(18) 1.055063(18)
loop_
_geom_bond_atom_site_label_1
_geom_bond_atom_site_label_2
_geom_bond_site_symmetry_1
_geom_bond_site_symmetry_2
C1 C2 1_555 1_555
C2 H1 1_555 1_555
C3 C2 1_555 1_555
H2 C3 1_555 1_555
C4 C3 1_555 1_555
C5 C4 1_555 1_555
H3 C5 1_555 1_555
C6 C1 1_555 1_555
H4 C6 1_555 1_555
C7 C1 1_555 1_555
C8 C4 1_555 1_555
C9 N1 1_555 1_555
N1 C8 1_555 1_555
N2 C8 1_555 1_555
N3 C9 1_555 1_555
O1 C7 1_555 1_555
O2 C7 1_555 1_555
O3 Zn2 1_555 1_555
Zn1 O2 1_555 1_555
Zn2 O1 1_555 1_555
C1H C2H 1_555 1_555
C1D C2D 1_555 1_555
C1G C2G 1_555 1_555
C1B C2B 1_555 1_555
C1I C2I 1_555 1_555
C2H H1H 1_555 1_555
C2D H1D 1_555 1_555
C2G H1G 1_555 1_555
C2B H1B 1_555 1_555
C2I H1I 1_555 1_555
C3H C2H 1_555 1_555
C3D C2D 1_555 1_555
C3G C2G 1_555 1_555
C3B C2B 1_555 1_555
C3I C2I 1_555 1_555
H2H C3H 1_555 1_555
H2D C3D 1_555 1_555
H2G C3G 1_555 1_555
H2B C3B 1_555 1_555
H2I C3I 1_555 1_555
C4H C3H 1_555 1_555
C4D C3D 1_555 1_555
C4G C3G 1_555 1_555
C4B C3B 1_555 1_555
C4I C3I 1_555 1_555
C5H C4H 1_555 1_555
C5D C4D 1_555 1_555
C5G C4G 1_555 1_555
C5B C4B 1_555 1_555
C5I C4I 1_555 1_555
H3H C5H 1_555 1_555
H3D C5D 1_555 1_555
H3G C5G 1_555 1_555
H3B C5B 1_555 1_555
H3I C5I 1_555 1_555
C6H C1H 1_555 1_555
C6D C1D 1_555 1_555
C6G C1G 1_555 1_555
C6B C1B 1_555 1_555
C6I C1I 1_555 1_555
H4H C6H 1_555 1_555
H4D C6D 1_555 1_555
H4G C6G 1_555 1_555
H4B C6B 1_555 1_555
H4I C6I 1_555 1_555
C7H C1H 1_555 1_555
C7D C1D 1_555 1_555
C7G C1G 1_555 1_555
C7B C1B 1_555 1_555
C7I C1I 1_555 1_555
C8H C4H 1_555 1_555
C8D C4D 1_555 1_555
C8G C4G 1_555 1_555
C8B C4B 1_555 1_555
C8I C4I 1_555 1_555
C9H N3 1_555 1_555
C9D N2 1_555 1_555
C9G N1G 1_555 1_555
C9B N1B 1_555 1_555
C9I N1I 1_555 1_555
N1H C8H 1_555 1_555
N1D C8D 1_555 1_555
N1G C8G 1_555 1_555
N1B C8B 1_555 1_555
N1I C8I 1_555 1_555
N2H C9 1_555 1_555
N2D C8D 1_555 1_555
N2G C8G 1_555 1_555
N2B C8B 1_555 1_555
N2I C8I 1_555 1_555
N3B C9G 1_555 1_555
O1H C7H 1_555 1_555
O1D C7D 1_555 1_555
O1G Zn2 1_555 1_555
O1B C7B 1_555 1_555
O1I C7I 1_555 1_555
O1J Zn2 1_555 1_555
O1C Zn2C 1_555 1_555
O1F Zn2C 1_555 1_555
O2H C7H 1_555 1_555
O2D C7D 1_555 1_555
O2G Zn1 1_555 1_555
O2B C7B 1_555 1_555
O2I C7I 1_555 1_555
O2J Zn1 1_555 1_555
O2M Zn1 1_555 1_555
O2Q Zn1 1_555 1_555
O2U Zn1 1_555 1_555
O3C Zn2C 1_555 1_555
Zn1C O2H 1_555 1_555
Zn1B O2D 1_555 1_555
Zn1B_2 O2B 1_555 1_555
Zn1A O2I 1_555 1_555
Zn2C O1H 1_555 1_555
Zn2B O1D 1_555 1_555
Zn2B_2 O1B 1_555 1_555
Zn2A O1I 1_555 1_555
C5 C6 1_555 1_555
N3 C9D 1_555 1_555
C5H C6H 1_555 1_555
C5D C6D 1_555 1_555
C5G C6G 1_555 1_555
C5B C6B 1_555 1_555
C5I C6I 1_555 1_555
C7G O1G 1_555 1_555
C7G O2G 1_555 1_555
C8H N2H 1_555 1_555
C9H N1H 1_555 1_555
C9H N2D 1_555 1_555
C9D N1D 1_555 1_555
C9G N2B 1_555 1_555
C9B N2I 1_555 1_555
C9B N3B 1_555 1_555
C9I N2G 1_555 1_555
C9I N3B 1_555 1_555

#END
