
#######################################################################
#
#                 Cambridge Crystallographic Data Centre
#                                CCDC 
#
#######################################################################
#
# If this CIF has been generated from an entry in the Cambridge 
# Structural Database, then it will include bibliographic, chemical, 
# crystal, experimental, refinement or atomic coordinate data resulting 
# from the CCDC's data processing and validation procedures.
#
#######################################################################

data_FIHLUF
_chemical_formula_moiety         '(C26 H18 Mn2 N4 O13)n'
_symmetry_cell_setting           triclinic
_symmetry_space_group_name_H-M   'P -1'
_symmetry_Int_Tables_number      2
_space_group_name_Hall           '-P 1'
loop_
_symmetry_equiv_pos_site_id
_symmetry_equiv_pos_as_xyz
1 x,y,z
2 -x,-y,-z
_cell_length_a                   10.5259(5)
_cell_length_b                   11.6385(6)
_cell_length_c                   14.3080(6)
_cell_angle_alpha                105.079(2)
_cell_angle_beta                 103.924(2)
_cell_angle_gamma                100.717(2)
_cell_volume                     1583.9
loop_
_atom_site_label
_atom_site_type_symbol
_atom_site_fract_x
_atom_site_fract_y
_atom_site_fract_z
Mn1 Mn 0.00963(7) -0.21722(7) 0.78695(5)
Mn2 Mn 0.71022(7) 0.52412(7) 0.72483(5)
O1 O 0.0535(4) 0.2155(3) 0.7173(3)
O2 O 0.2002(4) 0.4107(3) 0.7657(3)
O3 O 0.2556(4) 0.3626(3) 1.1189(3)
O4 O 0.1453(4) 0.1901(3) 1.1385(3)
O5 O 0.5503(4) -0.0978(3) 0.7801(3)
O6 O 0.2972(4) -0.3914(3) 0.4197(3)
O7 O 0.0865(3) -0.4534(3) 0.4285(3)
O8 O 0.3070(3) 0.3506(3) 0.3646(3)
O9 O 0.1109(3) 0.2407(3) 0.3689(3)
O10 O 0.9311(3) 0.5827(3) 0.7492(2)
H1 H 0.9532 0.5337 0.6998
H2 H 0.9806 0.5639 0.8003
O11 O 0.9204(4) 0.4278(3) 1.0879(3)
O12 O 0.8684(4) 0.2268(3) 1.0716(3)
O13 O 0.6347(4) 0.0250(3) 0.6921(3)
N1 N 0.0771(4) -0.0115(4) 0.8411(3)
N2 N 0.4827(4) 0.4577(4) 0.6703(3)
N3 N 0.1885(4) -0.2260(4) 0.7213(3)
N4 N 0.7255(4) 0.3579(4) 0.7845(3)
C1 C 0.0591(6) 0.0464(5) 0.7726(4)
H3 H 0.0287 -0.0013 0.7027
C2 C 0.0823(5) 0.1724(5) 0.7980(4)
C3 C 0.1321(5) 0.2446(5) 0.9016(4)
H4 H 0.1546 0.3322 0.9218
C4 C 0.1471(5) 0.1829(5) 0.9729(4)
C5 C 0.1187(5) 0.0557(5) 0.9407(4)
H5 H 0.1287 0.0142 0.9900
C6 C 0.1876(5) 0.2510(5) 1.0859(4)
C7 C 0.0632(5) 0.3423(5) 0.7366(4)
H6 H 0.0233 0.3714 0.7914
H7 H 0.0111 0.3558 0.6747
C8 C 0.2631(6) 0.4019(5) 0.6918(4)
C9 C 0.2027(5) 0.3502(5) 0.5878(4)
H8 H 0.1082 0.3109 0.5599
C10 C 0.2849(5) 0.3576(4) 0.5255(4)
C11 C 0.2285(5) 0.3123(5) 0.4099(4)
C12 C 0.4234(5) 0.4122(5) 0.5688(4)
H9 H 0.4783 0.4176 0.5254
C13 C 0.6789(5) 0.2394(5) 0.7251(4)
H10 H 0.6404 0.2225 0.6541
C14 C 0.6835(5) 0.1412(5) 0.7609(4)
C15 C 0.6479(5) -0.0741(5) 0.7302(4)
H11 H 0.7400 -0.0540 0.7783
H12 H 0.6363 -0.1490 0.6733
C16 C 0.4201(5) -0.1659(5) 0.7218(4)
C17 C 0.3187(5) -0.1597(5) 0.7684(4)
H13 H 0.3421 -0.1066 0.8363
C18 C 0.1575(5) -0.3006(5) 0.6258(4)
H14 H 0.0668 -0.3498 0.5922
C19 C 0.2522(5) -0.3087(4) 0.5744(4)
C20 C 0.3853(5) -0.2406(5) 0.6225(4)
H15 H 0.4516 -0.2452 0.5878
C21 C 0.2088(5) -0.3912(5) 0.4659(4)
C22 C 0.7424(5) 0.1652(5) 0.8652(4)
H16 H 0.7460 0.0997 0.8931
C23 C 0.7952(5) 0.2869(4) 0.9263(4)
C24 C 0.8665(5) 0.3161(5) 1.0376(4)
C25 C 0.7864(5) 0.3811(5) 0.8842(4)
H17 H 0.8244 0.4643 0.9270
C26 C 0.4042(5) 0.4531(5) 0.7298(4)
H18 H 0.4453 0.4860 0.8013
Mn1_2 Mn 1.00963(7) 0.78278(7) 0.78695(5)
Mn1A Mn -0.00963(7) 0.21722(7) 0.21305(5)
Mn1A_2 Mn -0.00963(7) 0.21722(7) 1.21305(5)
Mn1A_3 Mn 0.99037(7) 0.21722(7) 1.21305(5)
Mn2A Mn 0.28978(7) -0.52412(7) 0.27517(5)
Mn2A_2 Mn 0.28978(7) 0.47588(7) 0.27517(5)
Mn2A_3 Mn 0.28978(7) 0.47588(7) 1.27517(5)
O3A O 0.7444(4) 0.6374(3) 0.8811(3)
O4A O -0.1453(4) -0.1901(3) 0.8615(3)
O6A O 0.7028(4) 0.3914(3) 0.5803(3)
O8A O 0.6930(3) 0.6494(3) 0.6354(3)
O9A O -0.1109(3) -0.2407(3) 0.6311(3)
O10_2 O -0.0689(3) -0.4173(3) 0.7492(2)
O12A O 0.1316(4) -0.2268(3) 0.9284(3)
loop_
_geom_bond_atom_site_label_1
_geom_bond_atom_site_label_2
_geom_bond_site_symmetry_1
_geom_bond_site_symmetry_2
Mn1 N1 1_555 1_555
Mn2 O10 1_555 1_555
O1 C2 1_555 1_555
O2 C7 1_555 1_555
O3 C6 1_555 1_555
O4 C6 1_555 1_555
O5 C15 1_555 1_555
O6 C21 1_555 1_555
O7 C21 1_555 1_555
O8 C11 1_555 1_555
O9 C11 1_555 1_555
O10 H1 1_555 1_555
H2 O10 1_555 1_555
O11 C24 1_555 1_555
O12 C24 1_555 1_555
O13 C14 1_555 1_555
N1 C1 1_555 1_555
N2 Mn2 1_555 1_555
N3 Mn1 1_555 1_555
N4 Mn2 1_555 1_555
C1 H3 1_555 1_555
C2 C1 1_555 1_555
C3 C2 1_555 1_555
H4 C3 1_555 1_555
C4 C3 1_555 1_555
C5 N1 1_555 1_555
H5 C5 1_555 1_555
C6 C4 1_555 1_555
C7 O1 1_555 1_555
H6 C7 1_555 1_555
H7 C7 1_555 1_555
C8 O2 1_555 1_555
C9 C8 1_555 1_555
H8 C9 1_555 1_555
C10 C9 1_555 1_555
C11 C10 1_555 1_555
C12 N2 1_555 1_555
H9 C12 1_555 1_555
C13 N4 1_555 1_555
H10 C13 1_555 1_555
C14 C13 1_555 1_555
C15 O13 1_555 1_555
H11 C15 1_555 1_555
H12 C15 1_555 1_555
C16 O5 1_555 1_555
C17 N3 1_555 1_555
H13 C17 1_555 1_555
C18 N3 1_555 1_555
H14 C18 1_555 1_555
C19 C18 1_555 1_555
C20 C16 1_555 1_555
H15 C20 1_555 1_555
C21 C19 1_555 1_555
C22 C14 1_555 1_555
H16 C22 1_555 1_555
C23 C22 1_555 1_555
C24 C23 1_555 1_555
C25 N4 1_555 1_555
H17 C25 1_555 1_555
C26 N2 1_555 1_555
H18 C26 1_555 1_555
Mn1_2 O10 1_555 1_555
Mn1A O9 1_555 1_555
Mn1A_2 O4 1_555 1_555
Mn1A_3 O12 1_555 1_555
Mn2A O6 1_555 1_555
Mn2A_2 O8 1_555 1_555
Mn2A_3 O3 1_555 1_555
O3A Mn2 1_555 1_555
O4A Mn1 1_555 1_555
O6A Mn2 1_555 1_555
O8A Mn2 1_555 1_555
O9A Mn1 1_555 1_555
O10_2 Mn1 1_555 1_555
O12A Mn1 1_555 1_555
C4 C5 1_555 1_555
C8 C26 1_555 1_555
C10 C12 1_555 1_555
C16 C17 1_555 1_555
C19 C20 1_555 1_555
C23 C25 1_555 1_555

#END
