
#######################################################################
#
#                 Cambridge Crystallographic Data Centre
#                                CCDC 
#
#######################################################################
#
# If this CIF has been generated from an entry in the Cambridge 
# Structural Database, then it will include bibliographic, chemical, 
# crystal, experimental, refinement or atomic coordinate data resulting 
# from the CCDC's data processing and validation procedures.
#
#######################################################################

data_MITGIF
_chemical_formula_moiety         '(C30 H26 O34 Yb4)n'
_symmetry_cell_setting           monoclinic
_symmetry_space_group_name_H-M   'C 2/m'
_symmetry_Int_Tables_number      12
_space_group_name_Hall           '-C 2y'
loop_
_symmetry_equiv_pos_site_id
_symmetry_equiv_pos_as_xyz
1 x,y,z
2 1/2+x,1/2+y,z
3 x,-y,z
4 1/2+x,1/2-y,z
5 -x,-y,-z
6 1/2-x,1/2-y,-z
7 -x,y,-z
8 1/2-x,1/2+y,-z
_cell_length_a                   20.8119(5)
_cell_length_b                   17.61740(10)
_cell_length_c                   5.7252(2)
_cell_angle_alpha                90
_cell_angle_beta                 92.3240(10)
_cell_angle_gamma                90
_cell_volume                     2097.43
loop_
_atom_site_label
_atom_site_type_symbol
_atom_site_fract_x
_atom_site_fract_y
_atom_site_fract_z
Yb1 Yb 0.13781(2) 0.23814(2) 0.41566(7)
O1 O 0.1033(4) 0.3564(4) 0.2487(13)
O3 O 0.1898(4) 0.3028(4) 0.1133(12)
O5 O 0.2041(4) 0.3178(4) -0.3952(13)
O6 O 0.3003(4) 0.3519(4) -0.2522(13)
O7 O 0.0671(4) 0.1968(4) 0.0948(13)
O8 O 0.0707(4) 0.1328(4) 0.4214(12)
O9 O 0.0625(5) 0.2776(5) 0.6772(16)
O10 O 0.1740(4) 0.1687(4) 0.7433(13)
C1 C 0.1503(8) 0.5000 0.095(2)
H1 H 0.1220 0.5000 0.2169
C2 C 0.1711(5) 0.4315(5) 0.0058(17)
C3 C 0.2133(5) 0.4313(5) -0.1717(17)
C4 C 0.2361(8) 0.5000 -0.264(2)
H2 H 0.2653 0.5000 -0.3829
C5 C 0.1526(6) 0.3593(5) 0.1277(18)
C6 C 0.2419(5) 0.3608(5) -0.2796(16)
C7 C 0.0529(5) 0.1374(5) 0.2111(18)
C8 C 0.0211(5) 0.0692(6) 0.0994(17)
C9 C 0.0416(8) 0.0000 0.193(3)
C2B C 0.1711(5) 0.5685(5) 0.0058(17)
C3B C 0.2133(5) 0.5687(5) -0.1717(17)
C6B C 0.2419(5) 0.6392(5) -0.2796(16)
O5B O 0.2041(4) 0.6822(4) -0.3952(13)
O6B O 0.3003(4) 0.6481(4) -0.2522(13)
C5B C 0.1526(6) 0.6407(5) 0.1277(18)
O1B O 0.1033(4) 0.6436(4) 0.2487(13)
O3B O 0.1898(4) 0.6972(4) 0.1133(12)
C8F C -0.0211(5) 0.0692(6) -0.0994(17)
C7F C -0.0529(5) 0.1374(5) -0.2111(18)
O7F O -0.0671(4) 0.1968(4) -0.0948(13)
O8F O -0.0707(4) 0.1328(4) -0.4214(12)
C9F C -0.0416(8) 0.0000 -0.193(3)
C8D C -0.0211(5) -0.0692(6) -0.0994(17)
C7D C -0.0529(5) -0.1374(5) -0.2111(18)
O7D O -0.0671(4) -0.1968(4) -0.0948(13)
O8D O -0.0707(4) -0.1328(4) -0.4214(12)
C8B C 0.0211(5) -0.0692(6) 0.0994(17)
C7B C 0.0529(5) -0.1374(5) 0.2111(18)
O7B O 0.0671(4) -0.1968(4) 0.0948(13)
O8B O 0.0707(4) -0.1328(4) 0.4214(12)
O1_2 O 0.1033(4) 0.3564(4) 1.2487(13)
O3_2 O 0.1898(4) 0.3028(4) 1.1133(12)
O5_2 O 0.2041(4) 0.3178(4) 0.6048(13)
O6_2 O 0.3003(4) 0.3519(4) 0.7478(13)
C1_2 C 0.1503(8) 0.5000 1.095(2)
H1_2 H 0.1220 0.5000 1.2169
C2_2 C 0.1711(5) 0.4315(5) 1.0058(17)
C3_2 C 0.2133(5) 0.4313(5) 0.8283(17)
C4_2 C 0.2361(8) 0.5000 0.736(2)
H2_2 H 0.2653 0.5000 0.6171
C5_2 C 0.1526(6) 0.3593(5) 1.1277(18)
C6_2 C 0.2419(5) 0.3608(5) 0.7204(16)
C2B_2 C 0.1711(5) 0.5685(5) 1.0058(17)
C3B_2 C 0.2133(5) 0.5687(5) 0.8283(17)
C6B_2 C 0.2419(5) 0.6392(5) 0.7204(16)
O5B_2 O 0.2041(4) 0.6822(4) 0.6048(13)
O6B_2 O 0.3003(4) 0.6481(4) 0.7478(13)
C5B_2 C 0.1526(6) 0.6407(5) 1.1277(18)
O1B_2 O 0.1033(4) 0.6436(4) 1.2487(13)
O3B_2 O 0.1898(4) 0.6972(4) 1.1133(12)
Yb1B Yb 0.13781(2) 0.76186(2) 0.41566(7)
Yb1_2 Yb 0.13781(2) 0.23814(2) 1.41566(7)
Yb1B_2 Yb 0.13781(2) 0.76186(2) 1.41566(7)
O9B O 0.0625(5) 0.7224(5) 0.6772(16)
O10B O 0.1740(4) 0.8313(4) 0.7433(13)
O9_2 O 0.0625(5) 0.2776(5) 1.6772(16)
O10_2 O 0.1740(4) 0.1687(4) 1.7433(13)
O9B_2 O 0.0625(5) 0.7224(5) 1.6772(16)
O10B_2 O 0.1740(4) 0.8313(4) 1.7433(13)
O6E O 0.1997(4) 0.1481(4) 0.2522(13)
Yb1_3 Yb 0.13781(2) 0.23814(2) -0.58434(7)
Yb1E Yb 0.36219(2) 0.26186(2) -0.41566(7)
Yb1B_3 Yb 0.13781(2) 0.76186(2) -0.58434(7)
Yb1G Yb 0.36219(2) 0.73814(2) -0.41566(7)
Yb1F Yb -0.13781(2) 0.23814(2) -0.41566(7)
Yb1D Yb -0.13781(2) -0.23814(2) -0.41566(7)
Yb1B_4 Yb 0.13781(2) -0.23814(2) 0.41566(7)
Yb1E_2 Yb 0.36219(2) 0.26186(2) 0.58434(7)
Yb1G_2 Yb 0.36219(2) 0.73814(2) 0.58434(7)
O6G O 0.1997(4) 0.8519(4) 0.2522(13)
O7B_2 O 0.0671(4) 0.8032(4) 0.0948(13)
O8B_2 O 0.0707(4) 0.8672(4) 0.4214(12)
O5_3 O 0.2041(4) 0.3178(4) 1.6048(13)
O6E_2 O 0.1997(4) 0.1481(4) 1.2522(13)
O7_2 O 0.0671(4) 0.1968(4) 1.0948(13)
O8_2 O 0.0707(4) 0.1328(4) 1.4214(12)
O5B_3 O 0.2041(4) 0.6822(4) 1.6048(13)
O6G_2 O 0.1997(4) 0.8519(4) 1.2522(13)
O7B_3 O 0.0671(4) 0.8032(4) 1.0948(13)
O8B_3 O 0.0707(4) 0.8672(4) 1.4214(12)
O2 O 0.0166(6) 0.4208(6) 0.751(2)
O4 O 0.3476(11) 0.5000 -0.737(3)
loop_
_geom_bond_atom_site_label_1
_geom_bond_atom_site_label_2
_geom_bond_site_symmetry_1
_geom_bond_site_symmetry_2
Yb1 O1 1_555 1_555
O1 C5 1_555 1_555
O3 Yb1 1_555 1_555
O5 C6 1_555 1_555
O6 C6 1_555 1_555
O7 Yb1 1_555 1_555
O8 Yb1 1_555 1_555
O9 Yb1 1_555 1_555
O10 Yb1 1_555 1_555
C1 H1 1_555 1_555
C2 C1 1_555 1_555
C3 C2 1_555 1_555
C4 C3 1_555 1_555
H2 C4 1_555 1_555
C5 O3 1_555 1_555
C6 C3 1_555 1_555
C7 O7 1_555 1_555
C8 C7 1_555 1_555
C9 C8 1_555 1_555
C2B C1 1_555 1_555
C3B C4 1_555 1_555
C6B C3B 1_555 1_555
O5B C6B 1_555 1_555
O6B C6B 1_555 1_555
C5B C2B 1_555 1_555
O1B C5B 1_555 1_555
O3B C5B 1_555 1_555
C8F C8 1_555 1_555
C7F C8F 1_555 1_555
O7F C7F 1_555 1_555
O8F C7F 1_555 1_555
C9F C8F 1_555 1_555
C8D C9F 1_555 1_555
C7D C8D 1_555 1_555
O7D C7D 1_555 1_555
O8D C7D 1_555 1_555
C8B C9 1_555 1_555
C7B C8B 1_555 1_555
O7B C7B 1_555 1_555
O8B C7B 1_555 1_555
O1_2 C5_2 1_555 1_555
O3_2 C5_2 1_555 1_555
O5_2 Yb1 1_555 1_555
O6_2 C6_2 1_555 1_555
C1_2 H1_2 1_555 1_555
C2_2 C1_2 1_555 1_555
C3_2 C2_2 1_555 1_555
C4_2 C3_2 1_555 1_555
H2_2 C4_2 1_555 1_555
C5_2 C2_2 1_555 1_555
C6_2 O5_2 1_555 1_555
C2B_2 C1_2 1_555 1_555
C3B_2 C4_2 1_555 1_555
C6B_2 C3B_2 1_555 1_555
O5B_2 C6B_2 1_555 1_555
O6B_2 C6B_2 1_555 1_555
C5B_2 C2B_2 1_555 1_555
O1B_2 C5B_2 1_555 1_555
O3B_2 C5B_2 1_555 1_555
Yb1B O1B 1_555 1_555
Yb1_2 O1_2 1_555 1_555
Yb1B_2 O1B_2 1_555 1_555
O9B Yb1B 1_555 1_555
O10B Yb1B 1_555 1_555
O9_2 Yb1_2 1_555 1_555
O10_2 Yb1_2 1_555 1_555
O9B_2 Yb1B_2 1_555 1_555
O10B_2 Yb1B_2 1_555 1_555
O6E Yb1 1_555 1_555
Yb1_3 O5 1_555 1_555
Yb1E O6 1_555 1_555
Yb1B_3 O5B 1_555 1_555
Yb1G O6B 1_555 1_555
Yb1F O7F 1_555 1_555
Yb1D O7D 1_555 1_555
Yb1B_4 O7B 1_555 1_555
Yb1E_2 O6_2 1_555 1_555
Yb1G_2 O6B_2 1_555 1_555
O6G Yb1B 1_555 1_555
O7B_2 Yb1B 1_555 1_555
O8B_2 Yb1B 1_555 1_555
O5_3 Yb1_2 1_555 1_555
O6E_2 Yb1_2 1_555 1_555
O7_2 Yb1_2 1_555 1_555
O8_2 Yb1_2 1_555 1_555
O5B_3 Yb1B_2 1_555 1_555
O6G_2 Yb1B_2 1_555 1_555
O7B_3 Yb1B_2 1_555 1_555
O8B_3 Yb1B_2 1_555 1_555
O8 C7 1_555 1_555
C2 C5 1_555 1_555
C2B C3B 1_555 1_555
O3B Yb1B 1_555 1_555
O8F Yb1F 1_555 1_555
C8D C8B 1_555 1_555
O8D Yb1D 1_555 1_555
O8B Yb1B_4 1_555 1_555
O3_2 Yb1_2 1_555 1_555
C3_2 C6_2 1_555 1_555
C2B_2 C3B_2 1_555 1_555
O5B_2 Yb1B 1_555 1_555
O3B_2 Yb1B_2 1_555 1_555

#END
