
#######################################################################
#
#                 Cambridge Crystallographic Data Centre
#                                CCDC 
#
#######################################################################
#
# If this CIF has been generated from an entry in the Cambridge 
# Structural Database, then it will include bibliographic, chemical, 
# crystal, experimental, refinement or atomic coordinate data resulting 
# from the CCDC's data processing and validation procedures.
#
#######################################################################

data_OLOYOF
_chemical_formula_moiety         'C52 H22 Cu20 N2 O48'
_symmetry_cell_setting           monoclinic
_symmetry_space_group_name_H-M   'C 2/c'
_symmetry_Int_Tables_number      15
_space_group_name_Hall           '-C 2yc'
loop_
_symmetry_equiv_pos_site_id
_symmetry_equiv_pos_as_xyz
1 x,y,z
2 -x,y,1/2-z
3 1/2+x,1/2+y,z
4 1/2-x,1/2+y,1/2-z
5 -x,-y,-z
6 x,-y,1/2+z
7 1/2-x,1/2-y,-z
8 1/2+x,1/2-y,1/2+z
_cell_length_a                   32.270
_cell_length_b                   18.631(4)
_cell_length_c                   23.512(3)
_cell_angle_alpha                90
_cell_angle_beta                 117.225(7)
_cell_angle_gamma                90
_cell_volume                     12569.9
loop_
_atom_site_label
_atom_site_type_symbol
_atom_site_fract_x
_atom_site_fract_y
_atom_site_fract_z
Cu1 Cu 0.25121(4) 0.44778(5) 0.29787(5)
Cu2 Cu 0.23987(4) 0.51803(5) 0.19395(4)
Cu3 Cu 0.04077(4) 0.23112(9) 0.30217(6)
O1 O 0.2575(3) 0.3623(3) 0.2527(3)
O2 O 0.2452(3) 0.4225(3) 0.1640(3)
O3 O 0.2672(3) 0.1002(3) 0.2618(3)
O4 O 0.2588(2) 0.0419(3) 0.1752(3)
O5 O 0.31751(19) 0.4719(4) 0.3242(4)
O6 O 0.3072(2) 0.5308(4) 0.2381(3)
O7 O 0.5073(2) 0.6593(5) 0.3304(3)
O8 O 0.4409(3) 0.6570(4) 0.2393(3)
O9 O 0.1845(2) 0.4382(4) 0.2532(3)
O10 O 0.1723(2) 0.4979(3) 0.1658(3)
O11 O 0.05414(18) 0.3034(4) 0.2570(4)
O12 O -0.01719(19) 0.2945(4) 0.1750(4)
O13 O 0.2273(3) 0.5712(4) 0.1052(4)
O14 O 0.2608(3) 0.3892(5) 0.3801(4)
O15 O 0.1075(3) 0.2321(6) 0.3853(5)
C1 C 0.2525(3) 0.3680(4) 0.1991(4)
C2 C 0.2567(3) 0.2969(2) 0.1701(3)
C3 C 0.2527(3) 0.2963(2) 0.1087(3)
H1 H 0.2498 0.3392 0.0870
C4 C 0.2532(3) 0.2314(3) 0.0798(2)
C5 C 0.2576(3) 0.1673(2) 0.1122(3)
H2 H 0.2580 0.1239 0.0928
C6 C 0.2616(3) 0.1679(2) 0.1736(3)
C7 C 0.2611(3) 0.2327(3) 0.2026(2)
H3 H 0.2637 0.2331 0.2436
C8 C 0.2626(5) 0.0989(5) 0.2028(6)
C9 C 0.3310(4) 0.5058(4) 0.2949(4)
C10 C 0.37987(15) 0.5240(4) 0.3259(3)
C11 C 0.39759(18) 0.5688(4) 0.2950(2)
H4 H 0.3783 0.5850 0.2538
C12 C 0.4442(2) 0.5893(4) 0.3256(3)
C13 C 0.47299(16) 0.5650(4) 0.3871(3)
H5 H 0.5041 0.5787 0.4076
C14 C 0.4553(2) 0.5202(4) 0.4180(3)
C15 C 0.4087(2) 0.4997(4) 0.3874(3)
H6 H 0.3968 0.4698 0.4081
C16 C 0.4638(2) 0.6424(7) 0.2962(4)
H7 H 0.4524 0.6841 0.3104
C17 C 0.1573(4) 0.4575(5) 0.1970(5)
C18 C 0.10679(16) 0.4448(4) 0.1693(3)
C19 C 0.08936(17) 0.3972(4) 0.1986(2)
H8 H 0.1091 0.3777 0.2383
C20 C 0.04242(18) 0.3788(3) 0.1686(3)
C21 C 0.01290(15) 0.4080(4) 0.1093(3)
H9 H -0.0185 0.3957 0.0892
C22 C 0.0303(2) 0.4556(4) 0.0800(3)
C23 C 0.0773(2) 0.4740(4) 0.1100(3)
H10 H 0.0889 0.5059 0.0904
C24 C 0.0205(3) 0.3257(5) 0.1992(4)
C25 C 0.2528(7) 0.2266(6) 0.0174(7)
O16 O 0.2760(19) 0.181(3) 0.0071(18)
C26 C -0.0032(5) 0.4785(9) 0.0170(6)
O17 O -0.0346(13) 0.439(2) -0.0182(18)
N1 N 0.4825(5) 0.4912(11) 0.4834(7)
H11 H 0.4698 0.4583 0.4960
O1F O 0.2425(3) 0.1377(3) -0.2527(3)
O2F O 0.2548(3) 0.0775(3) -0.1640(3)
O3F O 0.2328(3) 0.3998(3) -0.2618(3)
O4F O 0.2412(2) 0.4581(3) -0.1752(3)
C1F C 0.2475(3) 0.1320(4) -0.1991(4)
C2F C 0.2433(3) 0.2031(2) -0.1701(3)
C3F C 0.2473(3) 0.2037(2) -0.1087(3)
H1F H 0.2502 0.1608 -0.0870
C4F C 0.2468(3) 0.2686(3) -0.0798(2)
C5F C 0.2424(3) 0.3327(2) -0.1122(3)
H2F H 0.2420 0.3761 -0.0928
C6F C 0.2384(3) 0.3321(2) -0.1736(3)
C7F C 0.2389(3) 0.2673(3) -0.2026(2)
H3F H 0.2363 0.2669 -0.2436
C8F C 0.2374(5) 0.4011(5) -0.2028(6)
C25F C 0.2472(7) 0.2734(6) -0.0174(7)
O16F O 0.2240(19) 0.319(3) -0.0071(18)
O5D O 0.68249(19) 0.5281(4) 0.6758(4)
O6D O 0.6928(2) 0.4692(4) 0.7619(3)
O7D O 0.4927(2) 0.3407(5) 0.6696(3)
O8D O 0.5591(3) 0.3430(4) 0.7607(3)
C9D C 0.6690(4) 0.4942(4) 0.7051(4)
C10D C 0.62013(15) 0.4760(4) 0.6741(3)
C11D C 0.60241(18) 0.4312(4) 0.7050(2)
H4D H 0.6217 0.4150 0.7462
C12D C 0.5558(2) 0.4107(4) 0.6744(3)
C13D C 0.52701(16) 0.4350(4) 0.6129(3)
H5D H 0.4959 0.4213 0.5924
C14D C 0.5447(2) 0.4798(4) 0.5820(3)
C15D C 0.5913(2) 0.5003(4) 0.6126(3)
H6D H 0.6032 0.5302 0.5919
C16D C 0.5362(2) 0.3576(7) 0.7038(4)
H7D H 0.5476 0.3159 0.6896
N1D N 0.5175(5) 0.5088(11) 0.5166(7)
H11D H 0.5302 0.5417 0.5040
O9D O -0.1845(2) 0.5618(4) -0.2532(3)
O10D O -0.1723(2) 0.5021(3) -0.1658(3)
O11D O -0.05414(18) 0.6966(4) -0.2570(4)
O12D O 0.01719(19) 0.7055(4) -0.1750(4)
C17D C -0.1573(4) 0.5425(5) -0.1970(5)
C18D C -0.10679(16) 0.5552(4) -0.1693(3)
C19D C -0.08936(17) 0.6028(4) -0.1986(2)
H8D H -0.1091 0.6223 -0.2383
C20D C -0.04242(18) 0.6212(3) -0.1686(3)
C21D C -0.01290(15) 0.5920(4) -0.1093(3)
H9D H 0.0185 0.6043 -0.0892
C22D C -0.0303(2) 0.5444(4) -0.0800(3)
C23D C -0.0773(2) 0.5260(4) -0.1100(3)
H10D H -0.0889 0.4941 -0.0904
C24D C -0.0205(3) 0.6743(5) -0.1992(4)
C26D C 0.0032(5) 0.5215(9) -0.0170(6)
O17D O 0.0346(13) 0.561(2) 0.0182(18)
Cu3A Cu -0.04077(4) 0.23112(9) 0.19783(6)
O15A O -0.1075(3) 0.2321(6) 0.1147(5)
Cu1C Cu 0.24879(4) -0.05222(5) 0.20213(5)
Cu2C Cu 0.26013(4) 0.01803(5) 0.30605(4)
O13C O 0.2727(3) 0.0712(4) 0.3948(4)
O14C O 0.2392(3) -0.1108(5) 0.1199(4)
Cu1D Cu -0.25121(4) 0.55222(5) -0.29787(5)
Cu1D_2 Cu 0.74879(4) 0.55222(5) 0.70213(5)
Cu1E Cu 0.25121(4) 0.55222(5) -0.20213(5)
Cu1F Cu 0.24879(4) 0.05222(5) -0.29787(5)
Cu2D Cu -0.23987(4) 0.48197(5) -0.19395(4)
Cu2D_2 Cu 0.76013(4) 0.48197(5) 0.80605(4)
Cu2E Cu 0.23987(4) 0.48197(5) -0.30605(4)
Cu2F Cu 0.26013(4) -0.01803(5) -0.19395(4)
Cu3B Cu 0.54077(4) 0.73112(9) 0.30217(6)
Cu3C Cu 0.45923(4) 0.73112(9) 0.19783(6)
Cu3D Cu -0.04077(4) 0.76888(9) -0.30217(6)
Cu3E Cu 0.04077(4) 0.76888(9) -0.19783(6)
Cu3F Cu 0.45923(4) 0.26888(9) 0.69783(6)
Cu3G Cu 0.54077(4) 0.26888(9) 0.80217(6)
O1C O 0.2425(3) -0.1377(3) 0.2473(3)
O2C O 0.2548(3) -0.0775(3) 0.3360(3)
O3C O 0.2328(3) 0.6002(3) 0.2382(3)
O4C O 0.2412(2) 0.5419(3) 0.3248(3)
O5C O 0.18249(19) -0.0281(4) 0.1758(4)
O6C O 0.1928(2) 0.0308(4) 0.2619(3)
O7B O 0.0073(2) 0.1593(5) 0.3304(3)
O7C O -0.0073(2) 0.1593(5) 0.1696(3)
O8B O -0.0591(3) 0.1570(4) 0.2393(3)
O8C O 0.0591(3) 0.1570(4) 0.2607(3)
O9C O 0.3155(2) -0.0618(4) 0.2468(3)
O10C O 0.3277(2) -0.0021(3) 0.3342(3)
O11A O -0.05414(18) 0.3034(4) 0.2430(4)
O12A O 0.01719(19) 0.2945(4) 0.3250(4)
loop_
_geom_bond_atom_site_label_1
_geom_bond_atom_site_label_2
_geom_bond_site_symmetry_1
_geom_bond_site_symmetry_2
Cu1 Cu2 1_555 1_555
Cu2 O2 1_555 1_555
Cu3 O11 1_555 1_555
O1 Cu1 1_555 1_555
O2 C1 1_555 1_555
O3 C8 1_555 1_555
O4 C8 1_555 1_555
O5 Cu1 1_555 1_555
O6 Cu2 1_555 1_555
O7 C16 1_555 1_555
O8 C16 1_555 1_555
O9 Cu1 1_555 1_555
O10 Cu2 1_555 1_555
O11 C24 1_555 1_555
O12 C24 1_555 1_555
O13 Cu2 1_555 1_555
O14 Cu1 1_555 1_555
O15 Cu3 1_555 1_555
C1 O1 1_555 1_555
C2 C1 1_555 1_555
C3 C2 1_555 1_555
H1 C3 1_555 1_555
C4 C3 1_555 1_555
C5 C4 1_555 1_555
H2 C5 1_555 1_555
C6 C5 1_555 1_555
C7 C2 1_555 1_555
H3 C7 1_555 1_555
C8 C6 1_555 1_555
C9 O5 1_555 1_555
C10 C9 1_555 1_555
C11 C10 1_555 1_555
H4 C11 1_555 1_555
C12 C11 1_555 1_555
C13 C12 1_555 1_555
H5 C13 1_555 1_555
C14 C13 1_555 1_555
C15 C10 1_555 1_555
H6 C15 1_555 1_555
C16 C12 1_555 1_555
H7 C16 1_555 1_555
C17 O9 1_555 1_555
C18 C17 1_555 1_555
C19 C18 1_555 1_555
H8 C19 1_555 1_555
C20 C19 1_555 1_555
C21 C20 1_555 1_555
H9 C21 1_555 1_555
C22 C21 1_555 1_555
C23 C18 1_555 1_555
H10 C23 1_555 1_555
C24 C20 1_555 1_555
C25 C4 1_555 1_555
O16 C25 1_555 1_555
C26 C22 1_555 1_555
O17 C26 1_555 1_555
N1 C14 1_555 1_555
H11 N1 1_555 1_555
O1F C1F 1_555 1_555
O2F C1F 1_555 1_555
O3F C8F 1_555 1_555
O4F C8F 1_555 1_555
C1F C2F 1_555 1_555
C2F C3F 1_555 1_555
C3F H1F 1_555 1_555
C4F C3F 1_555 1_555
C5F C4F 1_555 1_555
H2F C5F 1_555 1_555
C6F C5F 1_555 1_555
C7F C2F 1_555 1_555
H3F C7F 1_555 1_555
C8F C6F 1_555 1_555
C25F C25 1_555 1_555
O16F C25F 1_555 1_555
O5D C9D 1_555 1_555
O6D C9D 1_555 1_555
O7D C16D 1_555 1_555
O8D C16D 1_555 1_555
C9D C10D 1_555 1_555
C10D C11D 1_555 1_555
C11D H4D 1_555 1_555
C12D C11D 1_555 1_555
C13D C12D 1_555 1_555
H5D C13D 1_555 1_555
C14D C13D 1_555 1_555
C15D C10D 1_555 1_555
H6D C15D 1_555 1_555
C16D C12D 1_555 1_555
H7D C16D 1_555 1_555
N1D N1 1_555 1_555
H11D N1D 1_555 1_555
O9D C17D 1_555 1_555
O10D C17D 1_555 1_555
O11D C24D 1_555 1_555
O12D C24D 1_555 1_555
C17D C18D 1_555 1_555
C18D C19D 1_555 1_555
C19D H8D 1_555 1_555
C20D C19D 1_555 1_555
C21D C20D 1_555 1_555
H9D C21D 1_555 1_555
C22D C21D 1_555 1_555
C23D C18D 1_555 1_555
H10D C23D 1_555 1_555
C24D C20D 1_555 1_555
C26D C26 1_555 1_555
O17D C26D 1_555 1_555
Cu3A Cu3 1_555 1_555
O15A Cu3A 1_555 1_555
Cu1C O4 1_555 1_555
Cu2C O3 1_555 1_555
O13C Cu2C 1_555 1_555
O14C Cu1C 1_555 1_555
Cu1D O9D 1_555 1_555
Cu1D_2 O5D 1_555 1_555
Cu1E O4F 1_555 1_555
Cu1F O1F 1_555 1_555
Cu2D O10D 1_555 1_555
Cu2D_2 O6D 1_555 1_555
Cu2E O3F 1_555 1_555
Cu2F O2F 1_555 1_555
Cu3B O7 1_555 1_555
Cu3C O8 1_555 1_555
Cu3D O11D 1_555 1_555
Cu3E O12D 1_555 1_555
Cu3F O7D 1_555 1_555
Cu3G O8D 1_555 1_555
O1C Cu1C 1_555 1_555
O2C Cu2C 1_555 1_555
O3C Cu2 1_555 1_555
O4C Cu1 1_555 1_555
O5C Cu1C 1_555 1_555
O6C Cu2C 1_555 1_555
O7B Cu3 1_555 1_555
O7C Cu3A 1_555 1_555
O8B Cu3A 1_555 1_555
O8C Cu3 1_555 1_555
O9C Cu1C 1_555 1_555
O10C Cu2C 1_555 1_555
O11A Cu3A 1_555 1_555
O12A Cu3 1_555 1_555
O6 C9 1_555 1_555
O10 C17 1_555 1_555
O12 Cu3A 1_555 1_555
C6 C7 1_555 1_555
C14 C15 1_555 1_555
C22 C23 1_555 1_555
C4F C25F 1_555 1_555
C6F C7F 1_555 1_555
C14D C15D 1_555 1_555
C14D N1D 1_555 1_555
C22D C23D 1_555 1_555
C22D C26D 1_555 1_555
Cu1C Cu2C 1_555 1_555
Cu1D Cu2D 1_555 1_555
Cu1D_2 Cu2D_2 1_555 1_555
Cu1E Cu2E 1_555 1_555
Cu1F Cu2F 1_555 1_555
Cu3B Cu3C 1_555 1_555
Cu3D Cu3E 1_555 1_555
Cu3F Cu3G 1_555 1_555

#END
