
#######################################################################
#
#                 Cambridge Crystallographic Data Centre
#                                CCDC 
#
#######################################################################
#
# If this CIF has been generated from an entry in the Cambridge 
# Structural Database, then it will include bibliographic, chemical, 
# crystal, experimental, refinement or atomic coordinate data resulting 
# from the CCDC's data processing and validation procedures.
#
#######################################################################

data_MOXBOS
_chemical_formula_moiety         '(C21 H22 Cu3 N3 O14 P3)n'
_symmetry_cell_setting           monoclinic
_symmetry_space_group_name_H-M   'C m'
_symmetry_Int_Tables_number      8
_space_group_name_Hall           'C -2y'
loop_
_symmetry_equiv_pos_site_id
_symmetry_equiv_pos_as_xyz
1 x,y,z
2 x,-y,z
3 1/2+x,1/2+y,z
4 1/2+x,1/2-y,z
_cell_length_a                   25.618(5)
_cell_length_b                   17.040(3)
_cell_length_c                   4.4322(9)
_cell_angle_alpha                90
_cell_angle_beta                 99.96(3)
_cell_angle_gamma                90
_cell_volume                     1905.63
loop_
_atom_site_label
_atom_site_type_symbol
_atom_site_fract_x
_atom_site_fract_y
_atom_site_fract_z
Cu1 Cu 0.36046(7) 0.5000 0.1695(3)
O1 O 0.2790(5) 0.5000 0.331(3)
Cu2 Cu 0.46865(5) 0.39272(6) 0.29599(17)
O2 O 0.5062(15) 0.2852(12) 0.349(9)
P1 P 0.37850(10) 0.37176(13) 0.7159(5)
O3 O 0.4270(3) 0.3441(3) 0.9387(13)
O4 O 0.3958(3) 0.4192(4) 0.4520(13)
O5 O 0.3388(3) 0.4184(4) 0.8631(17)
C1 C 0.3480(4) 0.2819(5) 0.5566(19)
C2 C 0.3669(5) 0.2108(6) 0.668(3)
H1 H 0.3960 0.2091 0.8260
C3 C 0.3436(5) 0.1399(5) 0.549(3)
H2 H 0.3561 0.0921 0.6340
C4 C 0.3015(4) 0.1422(5) 0.304(2)
C5 C 0.2805(4) 0.2125(6) 0.193(3)
H3 H 0.2514 0.2138 0.0356
C6 C 0.3034(6) 0.2830(6) 0.321(3)
H4 H 0.2888 0.3309 0.2492
C7 C 0.2784(4) 0.0658(5) 0.164(2)
N1 N 0.3008(4) 0.0000 0.285(2)
N2 N 0.2382(3) 0.0699(4) -0.0712(18)
C8 C 0.2185(5) 0.0000 -0.184(3)
P2 P 0.01862(13) 0.0000 -1.1518(7)
O6 O -0.0215(4) -0.0000 -0.931(2)
O7 O 0.0146(3) 0.0750(4) -1.3373(14)
C9 C 0.1734(5) 0.0000 -0.446(3)
C10 C 0.1530(4) 0.0694(5) -0.566(2)
H5 H 0.1688 0.1166 -0.4952
C11 C 0.1084(5) 0.0696(5) -0.794(2)
H6 H 0.0952 0.1170 -0.8798
C12 C 0.0835(5) -0.0000 -0.897(3)
P1A P 0.37850(10) -0.37176(13) 0.7159(5)
O3A O 0.4270(3) -0.3441(3) 0.9387(13)
O4A O 0.3958(3) -0.4192(4) 0.4520(13)
O5A O 0.3388(3) -0.4184(4) 0.8631(17)
C1A C 0.3480(4) -0.2819(5) 0.5566(19)
C2A C 0.3669(5) -0.2108(6) 0.668(3)
H1A H 0.3960 -0.2091 0.8260
C3A C 0.3436(5) -0.1399(5) 0.549(3)
H2A H 0.3561 -0.0921 0.6340
C4A C 0.3015(4) -0.1422(5) 0.304(2)
C5A C 0.2805(4) -0.2125(6) 0.193(3)
H3A H 0.2514 -0.2138 0.0356
C6A C 0.3034(6) -0.2830(6) 0.321(3)
H4A H 0.2888 -0.3309 0.2492
C7A C 0.2784(4) -0.0658(5) 0.164(2)
N2A N 0.2382(3) -0.0699(4) -0.0712(18)
O7A O 0.0146(3) -0.0750(4) -1.3373(14)
C10A C 0.1530(4) -0.0694(5) -0.566(2)
H5A H 0.1688 -0.1166 -0.4952
C11A C 0.1084(5) -0.0696(5) -0.794(2)
H6A H 0.0952 -0.1170 -0.8798
Cu2A Cu 0.46865(5) -0.39272(6) 0.29599(17)
O2A O 0.5062(15) -0.2852(12) 0.349(9)
Cu1_2 Cu 0.36046(7) -0.5000 0.1695(3)
Cu1_3 Cu 0.36046(7) -0.5000 1.1695(3)
Cu1_4 Cu 0.36046(7) 0.5000 1.1695(3)
Cu2_2 Cu 0.46865(5) 0.39272(6) 1.29599(17)
Cu2A_2 Cu 0.46865(5) -0.39272(6) 1.29599(17)
Cu2B Cu -0.03135(5) -0.10728(6) -1.70401(17)
Cu2B_2 Cu -0.03135(5) -0.10728(6) -0.70401(17)
Cu2C Cu -0.03135(5) 0.10728(6) -1.70401(17)
Cu2C_2 Cu -0.03135(5) 0.10728(6) -0.70401(17)
O3_2 O 0.4270(3) 0.3441(3) -0.0613(13)
O3A_2 O 0.4270(3) -0.3441(3) -0.0613(13)
O4A_2 O 0.3958(3) 0.5808(4) 0.4520(13)
O5_2 O 0.3388(3) 0.4184(4) -0.1369(17)
O5A_2 O 0.3388(3) 0.5816(4) -0.1369(17)
O6B O 0.4785(4) -0.5000 0.069(2)
O6B_2 O 0.4785(4) 0.5000 0.069(2)
O7B O 0.5146(3) -0.4250(4) 0.6627(14)
O7C O 0.5146(3) 0.4250(4) 0.6627(14)
O9 O 0.4780(10) 0.1292(10) 0.280(9)
O10 O 0.4124(13) 0.0000 0.189(8)
loop_
_geom_bond_atom_site_label_1
_geom_bond_atom_site_label_2
_geom_bond_site_symmetry_1
_geom_bond_site_symmetry_2
Cu1 O1 1_555 1_555
Cu2 O2 1_555 1_555
P1 O3 1_555 1_555
O3 Cu2_2 1_555 1_555
O4 Cu1 1_555 1_555
O5 P1 1_555 1_555
C1 P1 1_555 1_555
C2 C1 1_555 1_555
H1 C2 1_555 1_555
C3 C2 1_555 1_555
H2 C3 1_555 1_555
C4 C3 1_555 1_555
C5 C4 1_555 1_555
H3 C5 1_555 1_555
C6 C1 1_555 1_555
H4 C6 1_555 1_555
C7 C4 1_555 1_555
N1 C7 1_555 1_555
N2 C7 1_555 1_555
C8 N2 1_555 1_555
P2 O6 1_555 1_555
O6 Cu2B_2 1_555 1_555
O7 P2 1_555 1_555
C9 C8 1_555 1_555
C10 C9 1_555 1_555
H5 C10 1_555 1_555
C11 C10 1_555 1_555
H6 C11 1_555 1_555
C12 P2 1_555 1_555
P1A O3A 1_555 1_555
O3A Cu2A_2 1_555 1_555
O4A P1A 1_555 1_555
O5A P1A 1_555 1_555
C1A P1A 1_555 1_555
C2A C1A 1_555 1_555
H1A C2A 1_555 1_555
C3A C2A 1_555 1_555
H2A C3A 1_555 1_555
C4A C3A 1_555 1_555
C5A C4A 1_555 1_555
H3A C5A 1_555 1_555
C6A C1A 1_555 1_555
H4A C6A 1_555 1_555
C7A N1 1_555 1_555
N2A C8 1_555 1_555
O7A P2 1_555 1_555
C10A C9 1_555 1_555
H5A C10A 1_555 1_555
C11A C12 1_555 1_555
H6A C11A 1_555 1_555
Cu2A O4A 1_555 1_555
O2A Cu2A 1_555 1_555
Cu1_2 O4A 1_555 1_555
Cu1_3 O5A 1_555 1_555
Cu1_4 O5 1_555 1_555
Cu2B O7A 1_555 1_555
Cu2C O7 1_555 1_555
Cu2C_2 O6 1_555 1_555
O3_2 Cu2 1_555 1_555
O3A_2 Cu2A 1_555 1_555
O4A_2 Cu1 1_555 1_555
O5_2 Cu1 1_555 1_555
O5A_2 Cu1 1_555 1_555
O6B Cu2A 1_555 1_555
O6B_2 Cu2 1_555 1_555
O7B Cu2A 1_555 1_555
O7C Cu2 1_555 1_555
Cu2 O4 1_555 1_555
P1 O4 1_555 1_555
C5 C6 1_555 1_555
C11 C12 1_555 1_555
C4A C7A 1_555 1_555
C5A C6A 1_555 1_555
C7A N2A 1_555 1_555
C10A C11A 1_555 1_555

#END
