
#######################################################################
#
#                 Cambridge Crystallographic Data Centre
#                                CCDC 
#
#######################################################################
#
# If this CIF has been generated from an entry in the Cambridge 
# Structural Database, then it will include bibliographic, chemical, 
# crystal, experimental, refinement or atomic coordinate data resulting 
# from the CCDC's data processing and validation procedures.
#
#######################################################################

data_HOGJOD
_chemical_formula_moiety         'C77 H37 Cl5 F10 N9 O20 Ru7 S2'
_symmetry_cell_setting           monoclinic
_symmetry_space_group_name_H-M   'C 2/c'
_symmetry_Int_Tables_number      15
_space_group_name_Hall           '-C 2yc'
loop_
_symmetry_equiv_pos_site_id
_symmetry_equiv_pos_as_xyz
1 x,y,z
2 1/2+x,1/2+y,z
3 -x,y,1/2-z
4 1/2-x,1/2+y,1/2-z
5 -x,-y,-z
6 1/2-x,1/2-y,-z
7 x,-y,1/2+z
8 1/2+x,1/2-y,1/2+z
_cell_length_a                   17.481(3)
_cell_length_b                   24.505(3)
_cell_length_c                   21.049(3)
_cell_angle_alpha                90
_cell_angle_beta                 92.995(2)
_cell_angle_gamma                90
_cell_volume                     9004.48
loop_
_atom_site_label
_atom_site_type_symbol
_atom_site_fract_x
_atom_site_fract_y
_atom_site_fract_z
_atom_site_U_iso_or_equiv
_atom_site_thermal_displace_type
Cl1 Cl 0.7105(2) 0.50655(15) 0.4295(2) 0.1391 Uani
Cl2 Cl 0.5990(3) 0.5392(3) 0.5154(2) 0.2537 Uani
C38 C 0.6078(7) 0.5157(5) 0.4390(6) 0.1200 Uani
H15 H 0.5873 0.5415 0.4091 0.1450 Uiso
H16 H 0.5817 0.4819 0.4332 0.1450 Uiso
Cl3 Cl 0.6269(6) 0.6390(4) 0.5830(5) 0.1110 Uiso
C39 C 0.6525(8) 0.6967(5) 0.6319(6) 0.1140 Uiso
C40 C 0.7247(19) 0.7068(13) 0.6556(16) 0.0750 Uiso
C41 C 0.7322(17) 0.7484(12) 0.6887(15) 0.0670 Uiso
C42 C 0.6851(17) 0.7789(12) 0.7160(14) 0.0640 Uiso
C43 C 0.6981(19) 0.8187(14) 0.7624(16) 0.0810 Uiso
C44 C 0.6085(10) 0.7809(7) 0.6750(9) 0.1000 Uiso
C45 C 0.600(2) 0.7318(19) 0.651(2) 0.1120 Uiso
Cl6 Cl 0.3992(5) 0.7646(3) 0.5597(5) 0.0660 Uiso
Cl7 Cl 0.4128(7) 0.8180(5) 0.6752(6) 0.0980 Uiso
C50 C 0.4593(8) 0.8232(6) 0.6121(7) 0.1370 Uiso
Ru1 Ru 0.96438(3) 0.53267(2) 0.47402(2) 0.0313 Uani
Ru2 Ru 0.55706(3) 0.61762(2) 0.27879(2) 0.0282 Uani
S1 S 0.56192(12) 0.75916(14) 0.44241(14) 0.1035 Uani
F1 F 1.1726(5) 0.5693(5) 0.2093(4) 0.0966 Uani
F3 F 1.1514(7) 0.7579(4) 0.6097(8) 0.1683 Uani
F5 F 0.1913(2) 0.6077(2) 0.4683(2) 0.0690 Uani
F6 F 0.6058(5) 0.3337(3) 0.3132(4) 0.0582 Uani
F7 F 0.5899(9) 0.9033(4) 0.3050(6) 0.1199 Uani
O1 O 1.0410(2) 0.53618(17) 0.4061(2) 0.0350 Uani
O2 O 1.1121(2) 0.47204(18) 0.4566(2) 0.0351 Uani
O3 O 1.0242(2) 0.59115(18) 0.5249(2) 0.0381 Uani
O4 O 1.0936(2) 0.52644(18) 0.5765(2) 0.0355 Uani
O5 O 0.3860(2) 0.61626(16) 0.3042(2) 0.0321 Uani
O6 O 0.4980(2) 0.61912(17) 0.3606(2) 0.0339 Uani
O7 O 0.5554(2) 0.53312(17) 0.27998(18) 0.0287 Uani
O8 O 0.5568(2) 0.70162(18) 0.2772(2) 0.0434 Uani
N1 N 0.8885(3) 0.5941(2) 0.4259(2) 0.0413 Uani
N2 N 0.6687(3) 0.6201(2) 0.3382(2) 0.0374 Uani
N3 N 0.6256(3) 0.7145(3) 0.4280(3) 0.0627 Uani
N4 N 0.6100(3) 0.7993(3) 0.4910(3) 0.0712 Uani
C1 C 1.0998(3) 0.5054(2) 0.4110(3) 0.0343 Uani
C2 C 1.1563(3) 0.5091(2) 0.3612(3) 0.0358 Uani
C3 C 1.1364(4) 0.5376(3) 0.3049(3) 0.0488 Uani
C4 C 1.1899(4) 0.5414(3) 0.2589(3) 0.0576 Uani
C5 C 1.2611(4) 0.5167(3) 0.2659(3) 0.0529 Uani
C6 C 1.2782(4) 0.4873(3) 0.3211(3) 0.0491 Uani
C7 C 1.2265(3) 0.4834(2) 0.3679(3) 0.0439 Uani
C8 C 1.0760(3) 0.5758(2) 0.5657(3) 0.0373 Uani
C9 C 1.1193(3) 0.6177(3) 0.6027(3) 0.0466 Uani
C10 C 1.1138(4) 0.6705(3) 0.5863(5) 0.0838 Uani
C11 C 1.1577(6) 0.7104(4) 0.6175(8) 0.1178 Uani
C12 C 1.2066(5) 0.6954(6) 0.6706(6) 0.1092 Uani
C13 C 1.2115(6) 0.6397(5) 0.6881(5) 0.0894 Uani
C14 C 1.1659(5) 0.6023(4) 0.6549(4) 0.0705 Uani
C15 C 0.4258(3) 0.6183(2) 0.3560(3) 0.0331 Uani
C16 C 0.3841(3) 0.6199(2) 0.4171(3) 0.0352 Uani
C17 C 0.3046(3) 0.6136(2) 0.4139(3) 0.0389 Uani
C18 C 0.2688(4) 0.6155(3) 0.4692(4) 0.0503 Uani
C19 C 0.3054(4) 0.6251(3) 0.5278(3) 0.0592 Uani
C20 C 0.3856(4) 0.6315(3) 0.5300(3) 0.0607 Uani
C21 C 0.4237(4) 0.6282(3) 0.4748(3) 0.0458 Uani
C22 C 0.5000 0.5088(3) 0.2500 0.0258 Uani
C23 C 0.5000 0.4476(3) 0.2500 0.0329 Uani
C24 C 0.5587(3) 0.4200(2) 0.2827(3) 0.0411 Uani
C25 C 0.5587(5) 0.3630(3) 0.2818(3) 0.0560 Uani
C26 C 0.500000(10) 0.3334(4) 0.250000(10) 0.0618 Uani
C27 C 0.5000 0.7247(3) 0.2500 0.0451 Uani
C28 C 0.5000 0.7869(4) 0.2500 0.0620 Uani
C29 C 0.5560(5) 0.8154(3) 0.2832(5) 0.0889 Uani
C30 C 0.5566(8) 0.8720(4) 0.2849(8) 0.1259 Uani
C31 C 0.500000(10) 0.9005(7) 0.250000(10) 0.1591 Uani
C32 C 0.8361(3) 0.6218(2) 0.4251(2) 0.0352 Uani
C33 C 0.7683(3) 0.6534(2) 0.4222(3) 0.0335 Uani
C34 C 0.7114(3) 0.6350(2) 0.3768(3) 0.0350 Uani
C35 C 0.7596(3) 0.6997(2) 0.4607(2) 0.0329 Uani
C36 C 0.6894(3) 0.7292(2) 0.4607(3) 0.0363 Uani
C37 C 0.6800(3) 0.7775(2) 0.4981(3) 0.0387 Uani
H1 H 1.0873 0.5538 0.2985 0.0590 Uiso
H2 H 1.2971 0.5197 0.2338 0.0650 Uiso
H3 H 1.2392 0.4628 0.4052 0.0530 Uiso
H4 H 1.0788 0.6809 0.5524 0.1000 Uiso
H5 H 1.2355 0.7223 0.6939 0.1310 Uiso
H6 H 1.1665 0.5652 0.6681 0.0850 Uiso
H7 H 0.2769 0.6082 0.3744 0.0470 Uiso
H8 H 0.2776 0.6274 0.5653 0.0710 Uiso
H9 H 0.4130 0.6380 0.5694 0.0730 Uiso
H10 H 0.4779 0.6317 0.4762 0.0550 Uiso
H11 H 0.5984 0.4395 0.3054 0.0490 Uiso
H12 H 0.5000 0.2947 0.2500 0.0740 Uiso
H13 H 0.5957 0.7960 0.3059 0.1100 Uiso
H14 H 0.5000 0.9392 0.2500 0.1980 Uiso
Ru1D Ru 1.03562(3) 0.46733(2) 0.52598(2) 0.0313 Uani
Ru1E Ru 0.53562(3) 0.96733(2) 0.52598(2) 0.0313 Uani
Ru2E Ru 0.94294(3) 0.88238(2) 0.72121(2) 0.0282 Uani
Ru2B Ru 0.44294(3) 0.61762(2) 0.22121(2) 0.0282 Uani
Ru2G Ru 1.05706(3) 0.88238(2) 0.77879(2) 0.0282 Uani
S1E S 0.93808(12) 0.74084(14) 0.55759(14) 0.1035 Uani
F1D F 0.8274(5) 0.4307(5) 0.7907(4) 0.0966 Uani
F3D F 0.8486(7) 0.2421(4) 0.3903(8) 0.1683 Uani
F5B F 0.8087(2) 0.6077(2) 0.0317(2) 0.0690 Uani
F6B F 0.3942(5) 0.3337(3) 0.1868(4) 0.0582 Uani
F7B F 0.4101(9) 0.9033(4) 0.1950(6) 0.1199 Uani
O1D O 0.9590(2) 0.46382(17) 0.5939(2) 0.0350 Uani
O2D O 0.8879(2) 0.52796(18) 0.5434(2) 0.0351 Uani
O3D O 0.9758(2) 0.40885(18) 0.4751(2) 0.0381 Uani
O4D O 0.9064(2) 0.47356(18) 0.4235(2) 0.0355 Uani
O5B O 0.6140(2) 0.61626(16) 0.1958(2) 0.0321 Uani
O5G O 0.8860(2) 0.88374(16) 0.8042(2) 0.0321 Uani
O6B O 0.5020(2) 0.61912(17) 0.1394(2) 0.0339 Uani
O6E O 1.0020(2) 0.88088(17) 0.6394(2) 0.0339 Uani
O7B O 0.4446(2) 0.53312(17) 0.22002(18) 0.0287 Uani
O7E O 0.9446(2) 0.96688(17) 0.72002(18) 0.0287 Uani
O8B O 0.4432(2) 0.70162(18) 0.2228(2) 0.0434 Uani
O8E O 0.9432(2) 0.79838(18) 0.7228(2) 0.0434 Uani
N1E N 0.6115(3) 0.9059(2) 0.5741(2) 0.0413 Uani
N1D N 1.1115(3) 0.4059(2) 0.5741(2) 0.0413 Uani
N2E N 0.8313(3) 0.8799(2) 0.6618(2) 0.0374 Uani
N3E N 0.8744(3) 0.7855(3) 0.5720(3) 0.0627 Uani
N4E N 0.8900(3) 0.7007(3) 0.5090(3) 0.0712 Uani
C1D C 0.9002(3) 0.4946(2) 0.5890(3) 0.0343 Uani
C2D C 0.8437(3) 0.4909(2) 0.6388(3) 0.0358 Uani
C3D C 0.8636(4) 0.4624(3) 0.6951(3) 0.0488 Uani
C4D C 0.8101(4) 0.4586(3) 0.7411(3) 0.0576 Uani
C5D C 0.7389(4) 0.4833(3) 0.7341(3) 0.0529 Uani
C6D C 0.7218(4) 0.5127(3) 0.6789(3) 0.0491 Uani
C7D C 0.7735(3) 0.5166(2) 0.6321(3) 0.0439 Uani
C8D C 0.9240(3) 0.4242(2) 0.4343(3) 0.0373 Uani
C9D C 0.8807(3) 0.3823(3) 0.3973(3) 0.0466 Uani
C10D C 0.8862(4) 0.3295(3) 0.4137(5) 0.0838 Uani
C11D C 0.8423(6) 0.2896(4) 0.3825(8) 0.1178 Uani
C12D C 0.7934(5) 0.3046(6) 0.3294(6) 0.1092 Uani
C13D C 0.7885(6) 0.3603(5) 0.3119(5) 0.0894 Uani
C14D C 0.8341(5) 0.3977(4) 0.3451(4) 0.0705 Uani
C15B C 0.5742(3) 0.6183(2) 0.1440(3) 0.0331 Uani
C16B C 0.6159(3) 0.6199(2) 0.0829(3) 0.0352 Uani
C17B C 0.6954(3) 0.6136(2) 0.0861(3) 0.0389 Uani
C18B C 0.7312(4) 0.6155(3) 0.0308(4) 0.0503 Uani
C19B C 0.6946(4) 0.6251(3) -0.0278(3) 0.0592 Uani
C20B C 0.6144(4) 0.6315(3) -0.0300(3) 0.0607 Uani
C21B C 0.5763(4) 0.6282(3) 0.0252(3) 0.0458 Uani
C24B C 0.4413(3) 0.4200(2) 0.2173(3) 0.0411 Uani
C25B C 0.4413(5) 0.3630(3) 0.2182(3) 0.0560 Uani
C29B C 0.4440(5) 0.8154(3) 0.2168(5) 0.0889 Uani
C30B C 0.4434(8) 0.8720(4) 0.2151(8) 0.1259 Uani
C32E C 0.6639(3) 0.8782(2) 0.5749(2) 0.0352 Uani
C33E C 0.7317(3) 0.8466(2) 0.5778(3) 0.0335 Uani
C34E C 0.7886(3) 0.8650(2) 0.6232(3) 0.0350 Uani
C35E C 0.7404(3) 0.8003(2) 0.5393(2) 0.0329 Uani
C36E C 0.8106(3) 0.7708(2) 0.5393(3) 0.0363 Uani
C37E C 0.8200(3) 0.7225(2) 0.5019(3) 0.0387 Uani
H1D H 0.9127 0.4462 0.7015 0.0590 Uiso
H2D H 0.7029 0.4803 0.7662 0.0650 Uiso
H3D H 0.7608 0.5372 0.5948 0.0530 Uiso
H4D H 0.9212 0.3191 0.4476 0.1000 Uiso
H5D H 0.7645 0.2777 0.3061 0.1310 Uiso
H6D H 0.8335 0.4348 0.3319 0.0850 Uiso
H7B H 0.7231 0.6082 0.1256 0.0470 Uiso
H8B H 0.7224 0.6274 -0.0653 0.0710 Uiso
H9B H 0.5870 0.6380 -0.0694 0.0730 Uiso
H10B H 0.5221 0.6317 0.0238 0.0550 Uiso
H11B H 0.4016 0.4395 0.1946 0.0490 Uiso
H13B H 0.4043 0.7960 0.1941 0.1100 Uiso
loop_
_atom_site_aniso_label
_atom_site_aniso_U_11
_atom_site_aniso_U_22
_atom_site_aniso_U_33
_atom_site_aniso_U_23
_atom_site_aniso_U_13
_atom_site_aniso_U_12
Cl1 0.102(2) 0.111(2) 0.205(4) 0.067(2) 0.014(2) 0.007(2)
Cl2 0.238(5) 0.394(9) 0.119(3) -0.071(4) -0.088(3) 0.181(5)
C38 0.145(11) 0.109(10) 0.109(10) 0.020(7) 0.036(9) 0.059(8)
Ru1 0.0262(2) 0.0366(3) 0.0317(3) 0.0002(2) 0.0067(2) 0.0052(2)
Ru2 0.0252(2) 0.0327(3) 0.0268(2) -0.0046(2) 0.0034(2) -0.0021(2)
S1 0.0372(11) 0.171(2) 0.098(2) -0.098(2) -0.0380(12) 0.0454(14)
F1 0.072(7) 0.173(12) 0.047(6) 0.045(7) 0.023(5) 0.027(7)
F3 0.138(11) 0.036(6) 0.32(2) -0.014(8) -0.091(12) -0.009(6)
F5 0.048 0.104 0.057 -0.014 0.021 -0.01
F6 0.083(6) 0.036(4) 0.054(5) 0.003(3) -0.012(4) 0.018(4)
F7 0.194(15) 0.029(5) 0.132(11) -0.025(6) -0.036(10) -0.033(7)
O1 0.030(2) 0.036(2) 0.040(2) 0.0026(19) 0.012(2) 0.0064(18)
O2 0.031(2) 0.042(2) 0.033(2) -0.003(2) 0.0090(19) 0.0073(19)
O3 0.036(2) 0.036(2) 0.043(2) -0.005(2) 0.010(2) -0.004(2)
O4 0.031(2) 0.047(2) 0.029(2) -0.002(2) 0.0059(19) -0.001(2)
O5 0.028 0.033 0.036 0.0013 0.0076 0.0019
O6 0.028 0.045 0.029 -0.0077 0.0046 -0.0065
O7 0.029(2) 0.034(2) 0.023(2) 0.0000(17) 0.0014(18) 0.0027(17)
O8 0.046(2) 0.034(2) 0.052(3) -0.007(2) 0.020(2) -0.003(2)
N1 0.039(3) 0.042(3) 0.043(3) -0.004(2) 0.003(2) 0.015(2)
N2 0.034(3) 0.046(3) 0.032(3) -0.018(2) -0.001(2) -0.001(2)
N3 0.026(3) 0.093(5) 0.067(4) -0.052(4) -0.018(2) 0.018(3)
N4 0.048(3) 0.102(5) 0.060(4) -0.053(4) -0.031(3) 0.037(3)
C1 0.030(3) 0.034(3) 0.039(3) -0.003(2) 0.003(2) -0.004(2)
C2 0.038(3) 0.036(3) 0.034(3) -0.008(2) 0.008(2) -0.003(2)
C3 0.041(4) 0.062(4) 0.044(4) 0.012(3) 0.008(3) 0.001(3)
C4 0.056(5) 0.074(5) 0.044(4) 0.004(4) 0.014(4) -0.001(4)
C5 0.055(4) 0.065(5) 0.041(4) -0.009(3) 0.024(3) -0.006(4)
C6 0.047(4) 0.052(4) 0.050(4) -0.003(3) 0.018(3) 0.001(3)
C7 0.043(4) 0.045(4) 0.045(4) 0.000(3) 0.016(3) -0.003(3)
C8 0.029(3) 0.048(4) 0.036(3) -0.004(3) 0.011(2) -0.001(3)
C9 0.028(3) 0.053(4) 0.060(5) -0.029(3) 0.015(3) -0.006(3)
C10 0.041(4) 0.059(5) 0.150(10) -0.038(6) -0.008(5) 0.007(4)
C11 0.066(7) 0.070(7) 0.216(16) -0.070(9) -0.007(8) 0.003(5)
C12 0.049(6) 0.153(12) 0.125(11) -0.072(9) -0.001(6) -0.009(7)
C13 0.072(7) 0.120(10) 0.077(7) -0.040(7) 0.012(6) -0.034(7)
C14 0.061(5) 0.097(7) 0.054(5) -0.025(5) 0.008(4) -0.026(5)
C15 0.035 0.031 0.034 -0.002 0.008 -0.002
C16 0.038 0.035 0.033 -0.005 0.007 -0.003
C17 0.039 0.047 0.031 -0.002 0.005 -0.003
C18 0.033 0.058 0.061 -0.006 0.012 -0.005
C19 0.055 0.087 0.037 -0.018 0.015 -0.006
C20 0.06 0.087 0.036 -0.012 0.012 -0.015
C21 0.039 0.065 0.034 -0.009 0.007 -0.006
C22 0.027(4) 0.029(4) 0.022(3) 0.0000 0.007(3) 0.0000
C23 0.045(5) 0.032(4) 0.022(4) 0.0000 0.006(3) 0.0000
C24 0.048(4) 0.043(4) 0.032(3) -0.003(2) -0.001(3) 0.002(3)
C25 0.095(7) 0.031(3) 0.042(4) 0.004(3) 0.005(4) 0.006(3)
C26 0.105(10) 0.038(5) 0.042(6) 0.0000 0.001(6) 0.0000
C27 0.046(6) 0.030(5) 0.063(7) 0.0000 0.037(5) 0.0000
C28 0.060(7) 0.037(5) 0.094(9) 0.0000 0.052(7) 0.0000
C29 0.104(8) 0.040(4) 0.129(10) -0.020(5) 0.065(7) -0.012(5)
C30 0.145(12) 0.033(5) 0.211(16) -0.027(7) 0.117(12) -0.017(6)
C31 0.19(2) 0.037(8) 0.27(3) 0.0000 0.20(2) 0.0000
C32 0.045(3) 0.039(3) 0.021(3) -0.003(2) -0.004(2) 0.004(3)
C33 0.030(3) 0.041(3) 0.029(3) -0.005(2) -0.003(2) 0.005(2)
C34 0.030(3) 0.042(3) 0.033(3) -0.010(2) 0.002(2) 0.002(2)
C35 0.028(3) 0.042(3) 0.028(3) -0.006(2) -0.006(2) 0.007(2)
C36 0.025(3) 0.053(4) 0.030(3) -0.011(3) -0.008(2) 0.003(2)
C37 0.030(3) 0.053(4) 0.032(3) -0.013(3) -0.008(2) 0.014(3)
Ru1D 0.0262 0.0366 0.0317 0.0002 0.0067 0.0052
Ru1E 0.0262 0.0366 0.0317 0.0002 0.0067 0.0052
Ru2E 0.0252 0.0327 0.0268 -0.0046 0.0034 -0.0021
Ru2B 0.0252 0.0327 0.0268 0.0046 0.0034 0.0021
Ru2G 0.0252 0.0327 0.0268 0.0046 0.0034 0.0021
S1E 0.0372 0.171 0.098 -0.098 -0.038 0.0454
F1D 0.072 0.173 0.047 0.045 0.023 0.027
F3D 0.138 0.036 0.32 -0.014 -0.091 -0.009
F5B 0.048(2) 0.104(4) 0.057(3) 0.014(2) 0.021(2) 0.010(2)
F6B 0.083 0.036 0.054 -0.003 -0.012 -0.018
F7B 0.194 0.029 0.132 0.025 -0.036 0.033
O1D 0.03 0.036 0.04 0.0026 0.012 0.0064
O2D 0.031 0.042 0.033 -0.003 0.009 0.0073
O3D 0.036 0.036 0.043 -0.005 0.01 -0.004
O4D 0.031 0.047 0.029 -0.002 0.0059 -0.001
O5B 0.028(2) 0.033(2) 0.036(2) -0.0013(18) 0.0076(19) -0.0019(18)
O5G 0.028 0.033 0.036 -0.0013 0.0076 -0.0019
O6B 0.028(2) 0.045(2) 0.029(2) 0.0077(19) 0.0046(18) 0.0065(19)
O6E 0.028 0.045 0.029 -0.0077 0.0046 -0.0065
O7B 0.029 0.034 0.023 0 0.0014 -0.0027
O7E 0.029 0.034 0.023 0 0.0014 0.0027
O8B 0.046 0.034 0.052 0.007 0.02 0.003
O8E 0.046 0.034 0.052 -0.007 0.02 -0.003
N1E 0.039 0.042 0.043 -0.004 0.003 0.015
N1D 0.039 0.042 0.043 -0.004 0.003 0.015
N2E 0.034 0.046 0.032 -0.018 -0.001 -0.001
N3E 0.026 0.093 0.067 -0.052 -0.018 0.018
N4E 0.048 0.102 0.06 -0.053 -0.031 0.037
C1D 0.03 0.034 0.039 -0.003 0.003 -0.004
C2D 0.038 0.036 0.034 -0.008 0.008 -0.003
C3D 0.041 0.062 0.044 0.012 0.008 0.001
C4D 0.056 0.074 0.044 0.004 0.014 -0.001
C5D 0.055 0.065 0.041 -0.009 0.024 -0.006
C6D 0.047 0.052 0.05 -0.003 0.018 0.001
C7D 0.043 0.045 0.045 0 0.016 -0.003
C8D 0.029 0.048 0.036 -0.004 0.011 -0.001
C9D 0.028 0.053 0.06 -0.029 0.015 -0.006
C10D 0.041 0.059 0.15 -0.038 -0.008 0.007
C11D 0.066 0.07 0.216 -0.07 -0.007 0.003
C12D 0.049 0.153 0.125 -0.072 -0.001 -0.009
C13D 0.072 0.12 0.077 -0.04 0.012 -0.034
C14D 0.061 0.097 0.054 -0.025 0.008 -0.026
C15B 0.035(3) 0.031(3) 0.034(3) 0.002(2) 0.008(2) 0.002(2)
C16B 0.038(3) 0.035(3) 0.033(3) 0.005(2) 0.007(2) 0.003(2)
C17B 0.039(3) 0.047(3) 0.031(3) 0.002(2) 0.005(2) 0.003(3)
C18B 0.033(3) 0.058(4) 0.061(5) 0.006(3) 0.012(3) 0.005(3)
C19B 0.055(4) 0.087(6) 0.037(4) 0.018(4) 0.015(3) 0.006(4)
C20B 0.060(5) 0.087(6) 0.036(4) 0.012(4) 0.012(3) 0.015(4)
C21B 0.039(3) 0.065(4) 0.034(3) 0.009(3) 0.007(3) 0.006(3)
C24B 0.048 0.043 0.032 0.003 -0.001 -0.002
C25B 0.095 0.031 0.042 -0.004 0.005 -0.006
C29B 0.104 0.04 0.129 0.02 0.065 0.012
C30B 0.145 0.033 0.211 0.027 0.117 0.017
C32E 0.045 0.039 0.021 -0.003 -0.004 0.004
C33E 0.03 0.041 0.029 -0.005 -0.003 0.005
C34E 0.03 0.042 0.033 -0.01 0.002 0.002
C35E 0.028 0.042 0.028 -0.006 -0.006 0.007
C36E 0.025 0.053 0.03 -0.011 -0.008 0.003
C37E 0.03 0.053 0.032 -0.013 -0.008 0.014
loop_
_geom_bond_atom_site_label_1
_geom_bond_atom_site_label_2
_geom_bond_site_symmetry_1
_geom_bond_site_symmetry_2
Ru1 O1 1_555 1_555
Ru2 O6 1_555 1_555
Cl1 C38 1_555 1_555
Cl2 C38 1_555 1_555
Cl3 C39 1_555 1_555
Cl6 C50 1_555 1_555
Cl7 C50 1_555 1_555
S1 N3 1_555 1_555
F1 C4 1_555 1_555
F3 C11 1_555 1_555
F5 C18 1_555 1_555
F6 C25 1_555 1_555
F7 C30 1_555 1_555
O1 C1 1_555 1_555
O2 C1 1_555 1_555
O3 Ru1 1_555 1_555
O4 C8 1_555 1_555
O5 C15 1_555 1_555
O6 C15 1_555 1_555
O7 Ru2 1_555 1_555
O8 Ru2 1_555 1_555
N1 Ru1 1_555 1_555
N2 Ru2 1_555 1_555
N3 C36 1_555 1_555
N4 S1 1_555 1_555
C1 C2 1_555 1_555
C2 C3 1_555 1_555
C3 C4 1_555 1_555
C4 C5 1_555 1_555
C5 C6 1_555 1_555
C6 C7 1_555 1_555
C7 C2 1_555 1_555
C8 O3 1_555 1_555
C9 C8 1_555 1_555
C10 C9 1_555 1_555
C11 C10 1_555 1_555
C12 C11 1_555 1_555
C13 C12 1_555 1_555
C14 C9 1_555 1_555
C15 C16 1_555 1_555
C16 C17 1_555 1_555
C17 C18 1_555 1_555
C18 C19 1_555 1_555
C19 C20 1_555 1_555
C20 C21 1_555 1_555
C21 C16 1_555 1_555
C22 O7 1_555 1_555
C23 C22 1_555 1_555
C24 C23 1_555 1_555
C25 C24 1_555 1_555
C26 C25 1_555 1_555
C27 O8 1_555 1_555
C28 C27 1_555 1_555
C29 C28 1_555 1_555
C30 C29 1_555 1_555
C31 C30 1_555 1_555
C32 N1 1_555 1_555
C33 C32 1_555 1_555
C34 N2 1_555 1_555
C35 C33 1_555 1_555
C36 C35 1_555 1_555
C37 N4 1_555 1_555
C38 H15 1_555 1_555
C39 C40 1_555 1_555
C40 C41 1_555 1_555
C41 C42 1_555 1_555
C42 C43 1_555 1_555
C44 C42 1_555 1_555
C45 C39 1_555 1_555
H1 C3 1_555 1_555
H2 C5 1_555 1_555
H3 C7 1_555 1_555
H4 C10 1_555 1_555
H5 C12 1_555 1_555
H6 C14 1_555 1_555
H7 C17 1_555 1_555
H8 C19 1_555 1_555
H9 C20 1_555 1_555
H10 C21 1_555 1_555
H11 C24 1_555 1_555
H12 C26 1_555 1_555
H13 C29 1_555 1_555
H14 C31 1_555 1_555
H16 C38 1_555 1_555
Ru1D Ru1 1_555 1_555
Ru1E N1E 1_555 1_555
Ru2E Ru2G 1_555 1_555
Ru2B Ru2 1_555 1_555
S1E N3E 1_555 1_555
F1D C4D 1_555 1_555
F3D C11D 1_555 1_555
F5B C18B 1_555 1_555
F6B C25B 1_555 1_555
F7B C30B 1_555 1_555
O1D Ru1D 1_555 1_555
O2D Ru1 1_555 1_555
O3D Ru1D 1_555 1_555
O4D Ru1 1_555 1_555
O5B Ru2 1_555 1_555
O5G Ru2E 1_555 1_555
O6B Ru2B 1_555 1_555
O6E Ru2E 1_555 1_555
O7B C22 1_555 1_555
O7E Ru2E 1_555 1_555
O8B C27 1_555 1_555
O8E Ru2E 1_555 1_555
N1E C32E 1_555 1_555
N1D Ru1D 1_555 1_555
N2E Ru2E 1_555 1_555
N3E C36E 1_555 1_555
N4E S1E 1_555 1_555
C1D O1D 1_555 1_555
C2D C1D 1_555 1_555
C3D C2D 1_555 1_555
C4D C3D 1_555 1_555
C5D C4D 1_555 1_555
C6D C5D 1_555 1_555
C7D C2D 1_555 1_555
C8D O3D 1_555 1_555
C9D C8D 1_555 1_555
C10D C9D 1_555 1_555
C11D C10D 1_555 1_555
C12D C11D 1_555 1_555
C13D C12D 1_555 1_555
C14D C9D 1_555 1_555
C15B O5B 1_555 1_555
C16B C15B 1_555 1_555
C17B C16B 1_555 1_555
C18B C17B 1_555 1_555
C19B C18B 1_555 1_555
C20B C19B 1_555 1_555
C21B C16B 1_555 1_555
C24B C23 1_555 1_555
C25B C26 1_555 1_555
C29B C28 1_555 1_555
C30B C31 1_555 1_555
C32E C33E 1_555 1_555
C33E C34E 1_555 1_555
C34E N2E 1_555 1_555
C35E C37 1_555 1_555
C36E C35E 1_555 1_555
C37E C35 1_555 1_555
H1D C3D 1_555 1_555
H2D C5D 1_555 1_555
H3D C7D 1_555 1_555
H4D C10D 1_555 1_555
H5D C12D 1_555 1_555
H6D C14D 1_555 1_555
H7B C17B 1_555 1_555
H8B C19B 1_555 1_555
H9B C20B 1_555 1_555
H10B C21B 1_555 1_555
H11B C24B 1_555 1_555
H13B C29B 1_555 1_555
O2 Ru1D 1_555 1_555
O4 Ru1D 1_555 1_555
O5 Ru2B 1_555 1_555
C13 C14 1_555 1_555
C33 C34 1_555 1_555
C36 C37 1_555 1_555
C44 C45 1_555 1_555
Ru2B O7B 1_555 1_555
Ru2B O8B 1_555 1_555
O2D C1D 1_555 1_555
O4D C8D 1_555 1_555
O6B C15B 1_555 1_555
N4E C37E 1_555 1_555
C6D C7D 1_555 1_555
C13D C14D 1_555 1_555
C20B C21B 1_555 1_555
C24B C25B 1_555 1_555
C29B C30B 1_555 1_555
C33E C35E 1_555 1_555
C36E C37E 1_555 1_555

#END
