
#######################################################################
#
#                 Cambridge Crystallographic Data Centre
#                                CCDC 
#
#######################################################################
#
# If this CIF has been generated from an entry in the Cambridge 
# Structural Database, then it will include bibliographic, chemical, 
# crystal, experimental, refinement or atomic coordinate data resulting 
# from the CCDC's data processing and validation procedures.
#
#######################################################################

data_QAKQEB
_chemical_formula_moiety         '(C80 H60 O16 Zn1 2-)n'
_symmetry_cell_setting           monoclinic
_symmetry_space_group_name_H-M   'C 2/c'
_symmetry_Int_Tables_number      15
_space_group_name_Hall           '-C 2yc'
loop_
_symmetry_equiv_pos_site_id
_symmetry_equiv_pos_as_xyz
1 x,y,z
2 -x,y,1/2-z
3 1/2+x,1/2+y,z
4 1/2-x,1/2+y,1/2-z
5 -x,-y,-z
6 x,-y,1/2+z
7 1/2-x,1/2-y,-z
8 1/2+x,1/2-y,1/2+z
_cell_length_a                   27.694(2)
_cell_length_b                   15.8734(11)
_cell_length_c                   18.5692(15)
_cell_angle_alpha                90
_cell_angle_beta                 110.079(9)
_cell_angle_gamma                90
_cell_volume                     7666.84
loop_
_atom_site_label
_atom_site_type_symbol
_atom_site_fract_x
_atom_site_fract_y
_atom_site_fract_z
_atom_site_U_iso_or_equiv
_atom_site_thermal_displace_type
Zn1 Zn 0.5000 0.5000 0.5000 0.1150 Uani
C1 C 0.5909(4) 0.5357(6) 0.6076(7) 0.1368 Uani
C2 C 0.6373(3) 0.5740(5) 0.6295(4) 0.1420 Uani
H1 H 0.6591 0.5406 0.6092 0.1710 Uiso
H2 H 0.6324 0.6279 0.6035 0.1710 Uiso
C3 C 0.65576(16) 0.6557(2) 0.7439(2) 0.0462 Uani
C4 C 0.61369(16) 0.7085(3) 0.7165(2) 0.0512 Uani
H3 H 0.5893 0.6988 0.6683 0.0610 Uiso
C5 C 0.60775(14) 0.7743(3) 0.7593(2) 0.0454 Uani
C6 C 0.64331(14) 0.7896(2) 0.8324(2) 0.0373 Uani
C7 C 0.68482(14) 0.7369(2) 0.8576(2) 0.0356 Uani
H4 H 0.7091 0.7464 0.9059 0.0430 Uiso
C8 C 0.69252(13) 0.6702(2) 0.8149(2) 0.0396 Uani
C9 C 0.5258(2) 0.8088(4) 0.6695(4) 0.1091 Uani
H5 H 0.5004 0.8528 0.6577 0.1640 Uiso
H6 H 0.5109 0.7573 0.6791 0.1640 Uiso
H7 H 0.5375 0.8011 0.6269 0.1640 Uiso
C10 C 0.63593(14) 0.8619(2) 0.8815(2) 0.0380 Uani
H8 H 0.5988 0.8718 0.8658 0.0450 Uiso
C11 C 0.65968(17) 0.9438(2) 0.8672(2) 0.0455 Uani
C12 C 0.6992(2) 0.9434(3) 0.8398(3) 0.0606 Uani
H9 H 0.7115 0.8918 0.8299 0.0730 Uiso
C13 C 0.7223(2) 1.0170(4) 0.8259(3) 0.0745 Uani
H10 H 0.7500 1.0142 0.8086 0.0890 Uiso
C14 C 0.7040(3) 1.0903(4) 0.8376(3) 0.0870 Uani
H11 H 0.7187 1.1392 0.8267 0.1040 Uiso
C15 C 0.6439(4) 1.1749(4) 0.8788(5) 0.1087 Uani
H12 H 0.6564 1.2243 0.8647 0.1300 Uiso
C16 C 0.6084(4) 1.1792(4) 0.9103(5) 0.1149 Uani
H13 H 0.5967 1.2318 0.9192 0.1380 Uiso
C17 C 0.5877(3) 1.1074(5) 0.9309(4) 0.1091 Uani
H14 H 0.5631 1.1126 0.9545 0.1310 Uiso
C18 C 0.6033(2) 1.0280(3) 0.9166(3) 0.0741 Uani
H15 H 0.5886 0.9799 0.9289 0.0890 Uiso
C19 C 0.6415(2) 1.0213(3) 0.8833(3) 0.0594 Uani
C20 C 0.6632(3) 1.0976(3) 0.8661(3) 0.0775 Uani
C21 C 0.73835(15) 0.6114(2) 0.8460(2) 0.0377 Uani
H16 H 0.7487 0.5952 0.8025 0.0460 Uiso
C22 C 0.72356(16) 0.5301(2) 0.8780(2) 0.0438 Uani
C23 C 0.68353(19) 0.5300(3) 0.9049(3) 0.0606 Uani
H17 H 0.6646 0.5792 0.9012 0.0730 Uiso
C24 C 0.6700(2) 0.4596(3) 0.9376(3) 0.0715 Uani
H18 H 0.6425 0.4617 0.9555 0.0860 Uiso
C25 C 0.6964(2) 0.3897(4) 0.9431(3) 0.0745 Uani
H19 H 0.6873 0.3429 0.9657 0.0900 Uiso
C26 C 0.7657(3) 0.3085(3) 0.9188(3) 0.0843 Uani
H20 H 0.7567 0.2601 0.9395 0.1010 Uiso
C27 C 0.8049(3) 0.3054(4) 0.8921(4) 0.0966 Uani
H21 H 0.8227 0.2551 0.8949 0.1160 Uiso
C28 C 0.8193(3) 0.3750(4) 0.8607(4) 0.0916 Uani
H22 H 0.8462 0.3715 0.8417 0.1100 Uiso
C29 C 0.7934(2) 0.4513(3) 0.8574(3) 0.0622 Uani
H23 H 0.8040 0.4990 0.8380 0.0740 Uiso
C30 C 0.75185(18) 0.4561(3) 0.8831(2) 0.0483 Uani
C31 C 0.7378(2) 0.3831(3) 0.9162(3) 0.0594 Uani
C32 C 0.78471(13) 0.6523(2) 0.9048(2) 0.0331 Uani
C33 C 0.80333(13) 0.6284(2) 0.9803(2) 0.0331 Uani
H24 H 0.7860 0.5859 0.9959 0.0400 Uiso
C34 C 0.84649(13) 0.6636(2) 1.0352(2) 0.0336 Uani
C35 C 0.87144(13) 0.7259(2) 1.0100(2) 0.0411 Uani
C36 C 0.85413(15) 0.7533(3) 0.9354(2) 0.0455 Uani
H25 H 0.8715 0.7960 0.9202 0.0540 Uiso
C37 C 0.81105(14) 0.7177(2) 0.8833(2) 0.0381 Uani
C38 C 0.8114(2) 0.8140(4) 0.7872(3) 0.0809 Uani
H26 H 0.7953 0.8236 0.7332 0.1210 Uiso
H27 H 0.8478 0.8085 0.7993 0.1210 Uiso
H28 H 0.8044 0.8606 0.8150 0.1210 Uiso
C39 C 0.9447(5) 0.8227(9) 1.0414(7) 0.0902 Uani
H29 H 0.9200 0.8643 1.0124 0.1090 Uiso
H30 H 0.9659 0.8502 1.0882 0.1090 Uiso
C40 C 0.9751(4) 0.8064(9) 1.0013(7) 0.0719 Uani
O1 O 1.0017(4) 0.8610(5) 0.9795(6) 0.1129 Uani
O2 O 0.9801(3) 0.7251(6) 0.9776(6) 0.1208 Uani
O3 O 0.66433(13) 0.58859(19) 0.70384(17) 0.0673 Uani
O4 O 0.5707(3) 0.5160(5) 0.6543(5) 0.1148 Uani
O5 O 0.5706(2) 0.5235(5) 0.5311(4) 0.1668 Uani
O6 O 0.56775(11) 0.8313(2) 0.73514(17) 0.0687 Uani
O7 O 0.91535(10) 0.75779(18) 1.06417(16) 0.0559 Uani
O8 O 0.79202(12) 0.74079(18) 0.80736(15) 0.0554 Uani
C1F C 0.9091(4) 0.9643(6) 1.3924(7) 0.1368 Uani
C2F C 0.8627(3) 0.9260(5) 1.3705(4) 0.1420 Uani
H1F H 0.8409 0.9594 1.3908 0.1710 Uiso
H2F H 0.8676 0.8721 1.3965 0.1710 Uiso
C3F C 0.84424(16) 0.8443(2) 1.2561(2) 0.0462 Uani
C4F C 0.88631(16) 0.7915(3) 1.2835(2) 0.0512 Uani
H3F H 0.9107 0.8012 1.3317 0.0610 Uiso
C5F C 0.89225(14) 0.7257(3) 1.2407(2) 0.0454 Uani
C6F C 0.85669(14) 0.7104(2) 1.1676(2) 0.0373 Uani
C7F C 0.81518(14) 0.7631(2) 1.1424(2) 0.0356 Uani
H4F H 0.7909 0.7536 1.0941 0.0430 Uiso
C8F C 0.80748(13) 0.8298(2) 1.1851(2) 0.0396 Uani
C9F C 0.9742(2) 0.6912(4) 1.3305(4) 0.1091 Uani
H5F H 0.9996 0.6472 1.3423 0.1640 Uiso
H6F H 0.9891 0.7427 1.3209 0.1640 Uiso
H7F H 0.9625 0.6989 1.3731 0.1640 Uiso
C10F C 0.86407(14) 0.6381(2) 1.1185(2) 0.0380 Uani
H8F H 0.9012 0.6282 1.1342 0.0450 Uiso
C11F C 0.84032(17) 0.5562(2) 1.1328(2) 0.0455 Uani
C12F C 0.8008(2) 0.5566(3) 1.1602(3) 0.0606 Uani
H9F H 0.7885 0.6082 1.1701 0.0730 Uiso
C13F C 0.7777(2) 0.4830(4) 1.1741(3) 0.0745 Uani
H10F H 0.7500 0.4858 1.1914 0.0890 Uiso
C14F C 0.7960(3) 0.4097(4) 1.1624(3) 0.0870 Uani
H11F H 0.7813 0.3608 1.1733 0.1040 Uiso
C15F C 0.8561(4) 0.3251(4) 1.1212(5) 0.1087 Uani
H12F H 0.8436 0.2757 1.1353 0.1300 Uiso
C16F C 0.8916(4) 0.3208(4) 1.0897(5) 0.1149 Uani
H13F H 0.9033 0.2682 1.0808 0.1380 Uiso
C17F C 0.9123(3) 0.3926(5) 1.0691(4) 0.1091 Uani
H14F H 0.9369 0.3874 1.0455 0.1310 Uiso
C18F C 0.8967(2) 0.4720(3) 1.0834(3) 0.0741 Uani
H15F H 0.9114 0.5201 1.0711 0.0890 Uiso
C19F C 0.8585(2) 0.4787(3) 1.1167(3) 0.0594 Uani
C20F C 0.8368(3) 0.4024(3) 1.1339(3) 0.0775 Uani
C21F C 0.76165(15) 0.8886(2) 1.1540(2) 0.0377 Uani
H16F H 0.7513 0.9048 1.1975 0.0460 Uiso
C22F C 0.77644(16) 0.9699(2) 1.1220(2) 0.0438 Uani
C23F C 0.81647(19) 0.9700(3) 1.0951(3) 0.0606 Uani
H17F H 0.8354 0.9208 1.0988 0.0730 Uiso
C24F C 0.8300(2) 1.0404(3) 1.0624(3) 0.0715 Uani
H18F H 0.8575 1.0383 1.0445 0.0860 Uiso
C25F C 0.8036(2) 1.1103(4) 1.0569(3) 0.0745 Uani
H19F H 0.8127 1.1571 1.0343 0.0900 Uiso
C26F C 0.7343(3) 1.1915(3) 1.0812(3) 0.0843 Uani
H20F H 0.7433 1.2399 1.0605 0.1010 Uiso
C27F C 0.6951(3) 1.1946(4) 1.1079(4) 0.0966 Uani
H21F H 0.6773 1.2449 1.1051 0.1160 Uiso
C28F C 0.6807(3) 1.1250(4) 1.1393(4) 0.0916 Uani
H22F H 0.6538 1.1285 1.1583 0.1100 Uiso
C29F C 0.7066(2) 1.0487(3) 1.1426(3) 0.0622 Uani
H23F H 0.6960 1.0010 1.1620 0.0740 Uiso
C30F C 0.74815(18) 1.0439(3) 1.1169(2) 0.0483 Uani
C31F C 0.7622(2) 1.1169(3) 1.0838(3) 0.0594 Uani
C32F C 0.71529(13) 0.8477(2) 1.0952(2) 0.0331 Uani
C33F C 0.69667(13) 0.8716(2) 1.0197(2) 0.0331 Uani
H24F H 0.7140 0.9141 1.0041 0.0400 Uiso
C34F C 0.65351(13) 0.8364(2) 0.9648(2) 0.0336 Uani
C35F C 0.62856(13) 0.7741(2) 0.9900(2) 0.0411 Uani
C36F C 0.64587(15) 0.7467(3) 1.0646(2) 0.0455 Uani
H25F H 0.6285 0.7040 1.0798 0.0540 Uiso
C37F C 0.68895(14) 0.7823(2) 1.1167(2) 0.0381 Uani
C38F C 0.6886(2) 0.6860(4) 1.2128(3) 0.0809 Uani
H26F H 0.7047 0.6764 1.2668 0.1210 Uiso
H27F H 0.6522 0.6915 1.2007 0.1210 Uiso
H28F H 0.6956 0.6394 1.1850 0.1210 Uiso
C39F C 0.5553(5) 0.6773(9) 0.9586(7) 0.0902 Uani
H29F H 0.5800 0.6357 0.9876 0.1090 Uiso
H30F H 0.5341 0.6498 0.9118 0.1090 Uiso
C40F C 0.5249(4) 0.6936(9) 0.9987(7) 0.0719 Uani
O1F O 0.4983(4) 0.6390(5) 1.0205(6) 0.1129 Uani
O2F O 0.5199(3) 0.7749(6) 1.0224(6) 0.1208 Uani
O3F O 0.83567(13) 0.91141(19) 1.29616(17) 0.0673 Uani
O4F O 0.9293(3) 0.9840(5) 1.3457(5) 0.1148 Uani
O5F O 0.9294(2) 0.9765(5) 1.4689(4) 0.1668 Uani
O6F O 0.93225(11) 0.6687(2) 1.26486(17) 0.0687 Uani
O7F O 0.58465(10) 0.74221(18) 0.93583(16) 0.0559 Uani
O8F O 0.70798(12) 0.75921(18) 1.19264(15) 0.0554 Uani
Zn1A Zn 0.5000 0.5000 1.0000 0.1150 Uani
Zn1B Zn 1.0000 1.0000 1.5000 0.1150 Uani
Zn1C Zn 1.0000 1.0000 1.0000 0.1150 Uani
O1C O 0.4983(4) 0.3610(5) 0.5205(6) 0.1129 Uani
O1G O 0.5017(4) 0.6390(5) 0.4795(6) 0.1129 Uani
O5C O 0.9294(2) 1.0235(5) 0.9689(4) 0.1668 Uani
O5D O 0.4294(2) 0.4765(5) 0.4689(4) 0.1668 Uani
O5E O 0.5706(2) 0.4765(5) 1.0311(4) 0.1668 Uani
loop_
_atom_site_aniso_label
_atom_site_aniso_U_11
_atom_site_aniso_U_22
_atom_site_aniso_U_33
_atom_site_aniso_U_23
_atom_site_aniso_U_13
_atom_site_aniso_U_12
Zn1 0.0497(6) 0.1994(14) 0.0811(8) -0.0324(7) 0.0035(5) 0.0096(6)
C1 0.123(6) 0.136(6) 0.143(7) -0.015(6) 0.035(6) 0.000(5)
C2 0.163(8) 0.097(5) 0.093(5) -0.047(4) -0.050(5) 0.023(5)
C3 0.052(3) 0.044(2) 0.039(2) -0.0090(19) 0.011(2) -0.013(2)
C4 0.041(2) 0.065(3) 0.032(2) -0.007(2) -0.0075(18) -0.008(2)
C5 0.032(2) 0.054(3) 0.040(2) 0.001(2) -0.0008(18) 0.0002(19)
C6 0.032(2) 0.043(2) 0.032(2) 0.0019(17) 0.0045(16) -0.0104(18)
C7 0.035(2) 0.037(2) 0.0279(19) -0.0027(17) 0.0020(16) -0.0018(17)
C8 0.0262(19) 0.049(2) 0.038(2) 0.0012(18) 0.0040(16) -0.0065(17)
C9 0.069(4) 0.132(6) 0.080(4) -0.012(4) -0.034(3) 0.032(4)
C10 0.030(2) 0.036(2) 0.042(2) -0.0009(17) 0.0045(17) 0.0004(16)
C11 0.049(3) 0.042(2) 0.035(2) 0.0063(18) 0.0009(19) -0.001(2)
C12 0.071(3) 0.067(3) 0.046(3) 0.005(2) 0.023(2) -0.014(3)
C13 0.090(4) 0.073(4) 0.062(3) -0.004(3) 0.028(3) -0.035(3)
C14 0.122(6) 0.070(4) 0.063(4) 0.015(3) 0.024(4) -0.035(4)
C15 0.141(7) 0.050(4) 0.119(6) -0.001(3) 0.024(5) -0.001(4)
C16 0.120(6) 0.053(4) 0.145(7) -0.015(4) 0.011(5) 0.021(4)
C17 0.092(5) 0.090(5) 0.136(6) -0.018(4) 0.027(4) 0.025(4)
C18 0.076(4) 0.050(3) 0.087(4) -0.001(3) 0.016(3) 0.011(3)
C19 0.064(3) 0.058(3) 0.044(3) 0.006(2) 0.003(2) 0.000(2)
C20 0.108(5) 0.038(3) 0.063(3) 0.007(2) -0.001(3) -0.007(3)
C21 0.046(2) 0.041(2) 0.027(2) -0.0056(16) 0.0137(17) -0.0070(18)
C22 0.043(2) 0.042(2) 0.040(2) -0.0100(18) 0.0060(18) -0.0079(19)
C23 0.054(3) 0.046(3) 0.083(4) 0.011(2) 0.025(3) -0.006(2)
C24 0.067(3) 0.066(3) 0.088(4) 0.013(3) 0.035(3) -0.002(3)
C25 0.089(4) 0.065(4) 0.068(4) 0.003(3) 0.025(3) -0.023(3)
C26 0.125(5) 0.058(4) 0.060(4) 0.006(3) 0.019(4) 0.001(3)
C27 0.143(6) 0.054(4) 0.085(4) 0.009(3) 0.029(4) 0.043(4)
C28 0.105(5) 0.095(5) 0.077(4) 0.002(3) 0.034(3) 0.035(4)
C29 0.072(3) 0.051(3) 0.062(3) -0.004(2) 0.021(3) 0.021(2)
C30 0.060(3) 0.042(2) 0.035(2) -0.0102(19) 0.006(2) -0.003(2)
C31 0.079(4) 0.038(3) 0.044(3) -0.004(2) -0.001(2) 0.002(2)
C32 0.0289(19) 0.038(2) 0.031(2) -0.0025(16) 0.0085(16) 0.0004(16)
C33 0.0273(19) 0.036(2) 0.037(2) 0.0006(16) 0.0124(16) -0.0018(16)
C34 0.0275(19) 0.034(2) 0.039(2) 0.0006(16) 0.0110(16) -0.0018(16)
C35 0.0240(19) 0.046(2) 0.045(2) 0.0013(18) 0.0013(17) -0.0038(17)
C36 0.033(2) 0.053(2) 0.049(3) 0.011(2) 0.0123(19) -0.0068(18)
C37 0.037(2) 0.039(2) 0.037(2) 0.0014(17) 0.0109(18) 0.0006(18)
C38 0.085(4) 0.091(4) 0.055(3) 0.022(3) 0.009(3) -0.017(3)
C39 0.094(10) 0.085(10) 0.078(9) 0.007(7) 0.012(8) -0.012(8)
C40 0.054(5) 0.097(8) 0.068(6) 0.036(6) 0.025(5) -0.008(6)
O1 0.099(6) 0.102(6) 0.140(7) 0.025(5) 0.044(5) -0.009(5)
O2 0.088(6) 0.121(8) 0.164(9) 0.004(6) 0.057(6) 0.012(5)
O3 0.075(2) 0.069(2) 0.0425(18) -0.0269(15) 0.0005(15) 0.0013(16)
O4 0.086(4) 0.136(5) 0.113(5) 0.021(4) 0.022(4) -0.033(4)
O5 0.118(4) 0.246(8) 0.116(5) -0.037(5) 0.014(4) 0.001(4)
O6 0.0436(18) 0.082(2) 0.0544(19) -0.0065(16) -0.0166(15) 0.0092(16)
O7 0.0439(17) 0.0559(18) 0.0547(18) 0.0178(14) 0.0000(14) -0.0230(14)
O8 0.0642(19) 0.0590(19) 0.0395(17) 0.0131(14) 0.0132(14) -0.0106(15)
C1F 0.123 0.136 0.143 -0.015 0.035 0
C2F 0.163 0.097 0.093 -0.047 -0.05 0.023
C3F 0.052 0.044 0.039 -0.009 0.011 -0.013
C4F 0.041 0.065 0.032 -0.007 -0.0075 -0.008
C5F 0.032 0.054 0.04 0.001 -0.0008 0.0002
C6F 0.032 0.043 0.032 0.0019 0.0045 -0.0104
C7F 0.035 0.037 0.0279 -0.0027 0.002 -0.0018
C8F 0.0262 0.049 0.038 0.0012 0.004 -0.0065
C9F 0.069 0.132 0.08 -0.012 -0.034 0.032
C10F 0.03 0.036 0.042 -0.0009 0.0045 0.0004
C11F 0.049 0.042 0.035 0.0063 0.0009 -0.001
C12F 0.071 0.067 0.046 0.005 0.023 -0.014
C13F 0.09 0.073 0.062 -0.004 0.028 -0.035
C14F 0.122 0.07 0.063 0.015 0.024 -0.035
C15F 0.141 0.05 0.119 -0.001 0.024 -0.001
C16F 0.12 0.053 0.145 -0.015 0.011 0.021
C17F 0.092 0.09 0.136 -0.018 0.027 0.025
C18F 0.076 0.05 0.087 -0.001 0.016 0.011
C19F 0.064 0.058 0.044 0.006 0.003 0
C20F 0.108 0.038 0.063 0.007 -0.001 -0.007
C21F 0.046 0.041 0.027 -0.0056 0.0137 -0.007
C22F 0.043 0.042 0.04 -0.01 0.006 -0.0079
C23F 0.054 0.046 0.083 0.011 0.025 -0.006
C24F 0.067 0.066 0.088 0.013 0.035 -0.002
C25F 0.089 0.065 0.068 0.003 0.025 -0.023
C26F 0.125 0.058 0.06 0.006 0.019 0.001
C27F 0.143 0.054 0.085 0.009 0.029 0.043
C28F 0.105 0.095 0.077 0.002 0.034 0.035
C29F 0.072 0.051 0.062 -0.004 0.021 0.021
C30F 0.06 0.042 0.035 -0.0102 0.006 -0.003
C31F 0.079 0.038 0.044 -0.004 -0.001 0.002
C32F 0.0289 0.038 0.031 -0.0025 0.0085 0.0004
C33F 0.0273 0.036 0.037 0.0006 0.0124 -0.0018
C34F 0.0275 0.034 0.039 0.0006 0.011 -0.0018
C35F 0.024 0.046 0.045 0.0013 0.0013 -0.0038
C36F 0.033 0.053 0.049 0.011 0.0123 -0.0068
C37F 0.037 0.039 0.037 0.0014 0.0109 0.0006
C38F 0.085 0.091 0.055 0.022 0.009 -0.017
C39F 0.094 0.085 0.078 0.007 0.012 -0.012
C40F 0.054 0.097 0.068 0.036 0.025 -0.008
O1F 0.099 0.102 0.14 0.025 0.044 -0.009
O2F 0.088 0.121 0.164 0.004 0.057 0.012
O3F 0.075 0.069 0.0425 -0.0269 0.0005 0.0013
O4F 0.086 0.136 0.113 0.021 0.022 -0.033
O5F 0.118 0.246 0.116 -0.037 0.014 0.001
O6F 0.0436 0.082 0.0544 -0.0065 -0.0166 0.0092
O7F 0.0439 0.0559 0.0547 0.0178 0 -0.023
O8F 0.0642 0.059 0.0395 0.0131 0.0132 -0.0106
Zn1A 0.0497 0.1994 0.0811 0.0324 0.0035 -0.0096
Zn1B 0.0497 0.1994 0.0811 -0.0324 0.0035 0.0096
Zn1C 0.0497 0.1994 0.0811 0.0324 0.0035 -0.0096
O1C 0.099 0.102 0.14 -0.025 0.044 0.009
O1G 0.099 0.102 0.14 -0.025 0.044 0.009
O5C 0.118 0.246 0.116 0.037 0.014 -0.001
O5D 0.118 0.246 0.116 -0.037 0.014 0.001
O5E 0.118 0.246 0.116 0.037 0.014 -0.001
loop_
_geom_bond_atom_site_label_1
_geom_bond_atom_site_label_2
_geom_bond_site_symmetry_1
_geom_bond_site_symmetry_2
Zn1 O5 1_555 1_555
C1 C2 1_555 1_555
C2 H1 1_555 1_555
H2 C2 1_555 1_555
C3 C4 1_555 1_555
C4 H3 1_555 1_555
C5 C4 1_555 1_555
C6 C5 1_555 1_555
C7 C6 1_555 1_555
H4 C7 1_555 1_555
C8 C3 1_555 1_555
C9 H5 1_555 1_555
H6 C9 1_555 1_555
H7 C9 1_555 1_555
C10 C6 1_555 1_555
H8 C10 1_555 1_555
C11 C10 1_555 1_555
C12 C11 1_555 1_555
H9 C12 1_555 1_555
C13 C12 1_555 1_555
H10 C13 1_555 1_555
C14 C13 1_555 1_555
H11 C14 1_555 1_555
C15 H12 1_555 1_555
C16 C15 1_555 1_555
H13 C16 1_555 1_555
C17 C16 1_555 1_555
H14 C17 1_555 1_555
C18 C17 1_555 1_555
H15 C18 1_555 1_555
C19 C11 1_555 1_555
C20 C14 1_555 1_555
C21 C8 1_555 1_555
H16 C21 1_555 1_555
C22 C21 1_555 1_555
C23 C22 1_555 1_555
H17 C23 1_555 1_555
C24 C23 1_555 1_555
H18 C24 1_555 1_555
C25 C24 1_555 1_555
H19 C25 1_555 1_555
C26 H20 1_555 1_555
C27 C26 1_555 1_555
H21 C27 1_555 1_555
C28 C27 1_555 1_555
H22 C28 1_555 1_555
C29 C28 1_555 1_555
H23 C29 1_555 1_555
C30 C22 1_555 1_555
C31 C25 1_555 1_555
C32 C21 1_555 1_555
C33 C32 1_555 1_555
H24 C33 1_555 1_555
C34 C33 1_555 1_555
C35 C34 1_555 1_555
C36 C35 1_555 1_555
H25 C36 1_555 1_555
C37 C32 1_555 1_555
C38 H26 1_555 1_555
H27 C38 1_555 1_555
H28 C38 1_555 1_555
C39 H29 1_555 1_555
H30 C39 1_555 1_555
C40 C39 1_555 1_555
O1 C40 1_555 1_555
O2 C40 1_555 1_555
O3 C2 1_555 1_555
O4 C1 1_555 1_555
O5 C1 1_555 1_555
O6 C5 1_555 1_555
O7 C35 1_555 1_555
O8 C37 1_555 1_555
C1F C2F 1_555 1_555
C2F H1F 1_555 1_555
H2F C2F 1_555 1_555
C3F C4F 1_555 1_555
C4F H3F 1_555 1_555
C5F C4F 1_555 1_555
C6F C5F 1_555 1_555
C7F C6F 1_555 1_555
H4F C7F 1_555 1_555
C8F C3F 1_555 1_555
C9F H5F 1_555 1_555
H6F C9F 1_555 1_555
H7F C9F 1_555 1_555
C10F C34 1_555 1_555
H8F C10F 1_555 1_555
C11F C10F 1_555 1_555
C12F C11F 1_555 1_555
H9F C12F 1_555 1_555
C13F C12F 1_555 1_555
H10F C13F 1_555 1_555
C14F C13F 1_555 1_555
H11F C14F 1_555 1_555
C15F H12F 1_555 1_555
C16F C15F 1_555 1_555
H13F C16F 1_555 1_555
C17F C16F 1_555 1_555
H14F C17F 1_555 1_555
C18F C17F 1_555 1_555
H15F C18F 1_555 1_555
C19F C11F 1_555 1_555
C20F C14F 1_555 1_555
C21F C8F 1_555 1_555
H16F C21F 1_555 1_555
C22F C21F 1_555 1_555
C23F C22F 1_555 1_555
H17F C23F 1_555 1_555
C24F C23F 1_555 1_555
H18F C24F 1_555 1_555
C25F C24F 1_555 1_555
H19F C25F 1_555 1_555
C26F H20F 1_555 1_555
C27F C26F 1_555 1_555
H21F C27F 1_555 1_555
C28F C27F 1_555 1_555
H22F C28F 1_555 1_555
C29F C28F 1_555 1_555
H23F C29F 1_555 1_555
C30F C22F 1_555 1_555
C31F C25F 1_555 1_555
C32F C21F 1_555 1_555
C33F C32F 1_555 1_555
H24F C33F 1_555 1_555
C34F C10 1_555 1_555
C35F C34F 1_555 1_555
C36F C35F 1_555 1_555
H25F C36F 1_555 1_555
C37F C32F 1_555 1_555
C38F H26F 1_555 1_555
H27F C38F 1_555 1_555
H28F C38F 1_555 1_555
C39F H29F 1_555 1_555
H30F C39F 1_555 1_555
C40F C39F 1_555 1_555
O1F C40F 1_555 1_555
O2F C40F 1_555 1_555
O3F C2F 1_555 1_555
O4F C1F 1_555 1_555
O5F C1F 1_555 1_555
O6F C5F 1_555 1_555
O7F C35F 1_555 1_555
O8F C37F 1_555 1_555
Zn1A O1F 1_555 1_555
Zn1B O5F 1_555 1_555
Zn1C O1 1_555 1_555
O1C Zn1 1_555 1_555
O1G Zn1 1_555 1_555
O5C Zn1C 1_555 1_555
O5D Zn1 1_555 1_555
O5E Zn1A 1_555 1_555
C3 O3 1_555 1_555
C7 C8 1_555 1_555
C9 O6 1_555 1_555
C15 C20 1_555 1_555
C18 C19 1_555 1_555
C19 C20 1_555 1_555
C26 C31 1_555 1_555
C29 C30 1_555 1_555
C30 C31 1_555 1_555
C36 C37 1_555 1_555
C38 O8 1_555 1_555
C39 O7 1_555 1_555
C3F O3F 1_555 1_555
C6F C10F 1_555 1_555
C7F C8F 1_555 1_555
C9F O6F 1_555 1_555
C15F C20F 1_555 1_555
C18F C19F 1_555 1_555
C19F C20F 1_555 1_555
C26F C31F 1_555 1_555
C29F C30F 1_555 1_555
C30F C31F 1_555 1_555
C33F C34F 1_555 1_555
C36F C37F 1_555 1_555
C38F O8F 1_555 1_555
C39F O7F 1_555 1_555

#END
