
#######################################################################
#
#                 Cambridge Crystallographic Data Centre
#                                CCDC 
#
#######################################################################
#
# If this CIF has been generated from an entry in the Cambridge 
# Structural Database, then it will include bibliographic, chemical, 
# crystal, experimental, refinement or atomic coordinate data resulting 
# from the CCDC's data processing and validation procedures.
#
#######################################################################

data_QATHOK
_chemical_formula_moiety         '(C17 H13 Cd1 N3 O5)n'
_symmetry_cell_setting           rhombohedral
_symmetry_space_group_name_H-M   'R -3'
_symmetry_Int_Tables_number      148
_space_group_name_Hall           '-R 3'
loop_
_symmetry_equiv_pos_site_id
_symmetry_equiv_pos_as_xyz
1 x,y,z
2 -y,x-y,z
3 -x+y,-x,z
4 2/3+x,1/3+y,1/3+z
5 2/3-y,1/3+x-y,1/3+z
6 2/3-x+y,1/3-x,1/3+z
7 1/3+x,2/3+y,2/3+z
8 1/3-y,2/3+x-y,2/3+z
9 1/3-x+y,2/3-x,2/3+z
10 -x,-y,-z
11 y,-x+y,-z
12 x-y,x,-z
13 1/3-x,2/3-y,2/3-z
14 1/3+y,2/3-x+y,2/3-z
15 1/3+x-y,2/3+x,2/3-z
16 2/3-x,1/3-y,1/3-z
17 2/3+y,1/3-x+y,1/3-z
18 2/3+x-y,1/3+x,1/3-z
_cell_length_a                   29.9118(16)
_cell_length_b                   29.9118(16)
_cell_length_c                   13.7506(15)
_cell_angle_alpha                90
_cell_angle_beta                 90
_cell_angle_gamma                120
_cell_volume                     10654.6
loop_
_atom_site_label
_atom_site_type_symbol
_atom_site_fract_x
_atom_site_fract_y
_atom_site_fract_z
_atom_site_U_iso_or_equiv
_atom_site_thermal_displace_type
Cd1 Cd 0.39268(2) 0.01307(2) 0.45919(4) 0.0582 Uani
O1 O 0.3574(2) 0.0353(2) 0.3260(4) 0.0680 Uani
O2 O 0.3269(2) 0.0851(2) 0.2719(4) 0.0709 Uani
O3 O 0.4492(2) 0.3969(2) 0.6200(4) 0.0706 Uani
O4 O 0.4824(3) 0.3518(3) 0.6814(6) 0.1273 Uani
N1 N 0.3794(2) 0.0823(2) 0.5020(4) 0.0593 Uani
N2 N 0.3695(2) 0.3114(2) 0.5465(4) 0.0601 Uani
N3 N 0.4769(3) 0.0707(2) 0.4128(5) 0.0651 Uani
C1 C 0.3612(3) 0.0999(3) 0.4321(5) 0.0537 Uani
C2 C 0.3565(3) 0.1424(3) 0.4440(5) 0.0592 Uani
H1 H 0.3423 0.1528 0.3948 0.0710 Uiso
C3 C 0.3729(3) 0.1705(3) 0.5310(5) 0.0592 Uani
C4 C 0.3909(3) 0.1520(3) 0.6011(6) 0.0691 Uani
H2 H 0.4016 0.1690 0.6605 0.0830 Uiso
C5 C 0.3935(3) 0.1075(3) 0.5843(5) 0.0661 Uani
H3 H 0.4058 0.0952 0.6335 0.0790 Uiso
C6 C 0.3473(3) 0.0711(3) 0.3364(5) 0.0551 Uani
C7 C 0.4086(3) 0.3073(3) 0.5898(5) 0.0603 Uani
C8 C 0.4093(3) 0.2621(3) 0.5888(5) 0.0646 Uani
H4 H 0.4357 0.2601 0.6204 0.0770 Uiso
C9 C 0.3707(3) 0.2187(3) 0.5414(5) 0.0598 Uani
C10 C 0.3306(3) 0.2227(3) 0.4997(5) 0.0647 Uani
H5 H 0.3034 0.1941 0.4700 0.0780 Uiso
C11 C 0.3312(3) 0.2698(3) 0.5023(6) 0.0668 Uani
H6 H 0.3046 0.2723 0.4729 0.0800 Uiso
C12 C 0.4488(4) 0.3554(4) 0.6345(6) 0.0738 Uani
C13 C 0.4867(4) 0.1020(3) 0.3376(7) 0.0792 Uani
H7 H 0.4590 0.0988 0.3012 0.0950 Uiso
C14 C 0.5363(4) 0.1395(4) 0.3105(8) 0.0928 Uani
H8 H 0.5414 0.1617 0.2589 0.1110 Uiso
C15 C 0.5770(4) 0.1431(5) 0.3604(9) 0.1146 Uani
H9 H 0.6105 0.1673 0.3422 0.1370 Uiso
C16 C 0.5689(5) 0.1119(5) 0.4353(10) 0.1236 Uani
H10 H 0.5967 0.1138 0.4694 0.1480 Uiso
C17 C 0.5168(4) 0.0753(4) 0.4631(7) 0.0892 Uani
H11 H 0.5110 0.0544 0.5173 0.1060 Uiso
Cd1G Cd 0.32026(2) 0.04628(3) 0.12586(4) 0.0582 Uani
Cd1K Cd 0.37961(3) 0.39268(2) 0.54081(4) 0.0582 Uani
O2E O 0.4249(3) 0.0064(2) 0.6052(4) 0.0709 Uani
O3J O 0.3969(2) -0.0523(3) 0.3800(4) 0.0706 Uani
N2J N 0.3114(2) -0.0581(3) 0.4535(4) 0.0601 Uani
O5 O 0.4341(10) -0.1231(7) 0.196(2) 0.3536 Uani
H12 H 0.4650 -0.1084 0.2131 0.5330 Uiso
H13 H 0.4157 -0.1220 0.2410 0.5330 Uiso
loop_
_atom_site_aniso_label
_atom_site_aniso_U_11
_atom_site_aniso_U_22
_atom_site_aniso_U_33
_atom_site_aniso_U_23
_atom_site_aniso_U_13
_atom_site_aniso_U_12
Cd1 0.0653(4) 0.0539(4) 0.0510(4) 0.0038(2) 0.0011(2) 0.0266(3)
O1 0.088(4) 0.069(3) 0.048(3) -0.006(2) -0.007(3) 0.040(3)
O2 0.093(4) 0.081(4) 0.050(3) -0.008(3) -0.016(3) 0.052(3)
O3 0.074 0.071 0.073 -0.021 -0.021 0.041
O4 0.146 0.091 0.162 -0.04 -0.082 0.072
N1 0.074(4) 0.056(4) 0.046(3) -0.001(3) -0.005(3) 0.031(3)
N2 0.067 0.065 0.051 0.004 0.001 0.035
N3 0.069(4) 0.062(4) 0.062(4) 0.004(3) 0.007(3) 0.031(3)
C1 0.059(4) 0.054(4) 0.045(4) 0.000(3) -0.008(3) 0.026(4)
C2 0.068(5) 0.061(5) 0.047(4) 0.003(3) -0.001(4) 0.031(4)
C3 0.077(5) 0.066(5) 0.043(4) 0.001(3) -0.005(4) 0.042(4)
C4 0.091(6) 0.067(5) 0.046(4) -0.001(4) -0.011(4) 0.037(5)
C5 0.097(6) 0.062(5) 0.045(4) 0.000(4) -0.009(4) 0.044(5)
C6 0.054(4) 0.051(4) 0.048(4) -0.001(3) 0.003(3) 0.017(4)
C7 0.078 0.065 0.045 0.003 -0.004 0.041
C8 0.08 0.074 0.055 -0.001 -0.006 0.05
C9 0.081 0.062 0.042 0 -0.001 0.04
C10 0.073 0.066 0.058 -0.004 -0.001 0.037
C11 0.065 0.073 0.055 -0.004 -0.008 0.029
C12 0.083 0.08 0.068 -0.013 -0.026 0.048
C13 0.086(6) 0.078(6) 0.071(6) 0.007(5) 0.006(5) 0.039(5)
C14 0.075(6) 0.088(7) 0.097(7) 0.025(6) 0.017(5) 0.027(6)
C15 0.061(6) 0.102(8) 0.141(11) 0.027(8) 0.009(7) 0.011(6)
C16 0.087(8) 0.121(10) 0.152(12) 0.018(9) -0.020(8) 0.044(8)
C17 0.089(7) 0.090(7) 0.089(7) 0.019(5) -0.001(6) 0.045(6)
Cd1G 0.0539 0.066 0.051 -0.0027 -0.0038 0.0273
Cd1K 0.066 0.0653 0.051 -0.0011 0.0027 0.0387
O2E 0.07 0.093 0.05 0.016 0.008 0.041
O3J 0.071 0.063 0.073 0 0.021 0.03
N2J 0.065 0.062 0.051 -0.003 -0.004 0.03
O5 0.33(3) 0.145(15) 0.53(4) 0.045(19) 0.30(3) 0.077(16)
loop_
_geom_bond_atom_site_label_1
_geom_bond_atom_site_label_2
_geom_bond_site_symmetry_1
_geom_bond_site_symmetry_2
Cd1 O1 1_555 1_555
O1 C6 1_555 1_555
O2 C6 1_555 1_555
O3 C12 1_555 1_555
O4 C12 1_555 1_555
N1 Cd1 1_555 1_555
N2 C7 1_555 1_555
N3 Cd1 1_555 1_555
C1 N1 1_555 1_555
C2 C1 1_555 1_555
H1 C2 1_555 1_555
C3 C2 1_555 1_555
C4 C3 1_555 1_555
H2 C4 1_555 1_555
C5 N1 1_555 1_555
H3 C5 1_555 1_555
C6 C1 1_555 1_555
C7 C8 1_555 1_555
C8 H4 1_555 1_555
C9 C3 1_555 1_555
C10 C9 1_555 1_555
H5 C10 1_555 1_555
C11 N2 1_555 1_555
H6 C11 1_555 1_555
C12 C7 1_555 1_555
C13 N3 1_555 1_555
H7 C13 1_555 1_555
C14 C13 1_555 1_555
H8 C14 1_555 1_555
C15 C14 1_555 1_555
H9 C15 1_555 1_555
C16 C15 1_555 1_555
H10 C16 1_555 1_555
C17 N3 1_555 1_555
H11 C17 1_555 1_555
O5 H12 1_555 1_555
H13 O5 1_555 1_555
Cd1G O2 1_555 1_555
Cd1K O3 1_555 1_555
O2E Cd1 1_555 1_555
O3J Cd1 1_555 1_555
N2J Cd1 1_555 1_555
N2 Cd1K 1_555 1_555
C4 C5 1_555 1_555
C8 C9 1_555 1_555
C10 C11 1_555 1_555
C16 C17 1_555 1_555

#END
