
#######################################################################
#
#                 Cambridge Crystallographic Data Centre
#                                CCDC 
#
#######################################################################
#
# If this CIF has been generated from an entry in the Cambridge 
# Structural Database, then it will include bibliographic, chemical, 
# crystal, experimental, refinement or atomic coordinate data resulting 
# from the CCDC's data processing and validation procedures.
#
#######################################################################

data_UYICIQ
_chemical_formula_moiety         'C19 H13 Cu5 N4 O7'
_symmetry_cell_setting           rhombohedral
_symmetry_space_group_name_H-M   'R -3 m'
_symmetry_Int_Tables_number      166
_space_group_name_Hall           '-R 3 2"'
loop_
_symmetry_equiv_pos_site_id
_symmetry_equiv_pos_as_xyz
1 x,y,z
2 -y,x-y,z
3 -x+y,-x,z
4 y,x,-z
5 -x,-x+y,-z
6 x-y,-y,-z
7 2/3+x,1/3+y,1/3+z
8 2/3-y,1/3+x-y,1/3+z
9 2/3-x+y,1/3-x,1/3+z
10 2/3+y,1/3+x,1/3-z
11 2/3-x,1/3-x+y,1/3-z
12 2/3+x-y,1/3-y,1/3-z
13 1/3+x,2/3+y,2/3+z
14 1/3-y,2/3+x-y,2/3+z
15 1/3-x+y,2/3-x,2/3+z
16 1/3+y,2/3+x,2/3-z
17 1/3-x,2/3-x+y,2/3-z
18 1/3+x-y,2/3-y,2/3-z
19 -x,-y,-z
20 y,-x+y,-z
21 x-y,x,-z
22 -y,-x,z
23 x,x-y,z
24 -x+y,y,z
25 1/3-x,2/3-y,2/3-z
26 1/3+y,2/3-x+y,2/3-z
27 1/3+x-y,2/3+x,2/3-z
28 1/3-y,2/3-x,2/3+z
29 1/3+x,2/3+x-y,2/3+z
30 1/3-x+y,2/3+y,2/3+z
31 2/3-x,1/3-y,1/3-z
32 2/3+y,1/3-x+y,1/3-z
33 2/3+x-y,1/3+x,1/3-z
34 2/3-y,1/3-x,1/3+z
35 2/3+x,1/3+x-y,1/3+z
36 2/3-x+y,1/3+y,1/3+z
_cell_length_a                   18.975(2)
_cell_length_b                   18.975(2)
_cell_length_c                   44.763(11)
_cell_angle_alpha                90
_cell_angle_beta                 90
_cell_angle_gamma                120
_cell_volume                     13957.7
loop_
_atom_site_label
_atom_site_type_symbol
_atom_site_fract_x
_atom_site_fract_y
_atom_site_fract_z
_atom_site_U_iso_or_equiv
_atom_site_thermal_displace_type
Cu1 Cu 0.04428(5) 0.52214(2) -0.025135(15) 0.0312 Uani
N1 N 0.12519(19) 0.2504(4) 0.26134(13) 0.0474 Uani
C1 C 0.1868(4) 0.2551(4) 0.24578(11) 0.0627 Uani
H1 H 0.2280 0.2508 0.2563 0.0750 Uiso
C2 C 0.1946(5) 0.2658(5) 0.21516(13) 0.0768 Uani
H2 H 0.2413 0.2713 0.2052 0.0920 Uiso
C3 C 0.1343(5) 0.2686(11) 0.1994(3) 0.1163 Uani
C4 C 0.1483(5) 0.2966(10) 0.1665(3) 0.1163 Uani
C5 C 0.1851(6) 0.2694(8) 0.1479(2) 0.1163 Uani
N2 N 0.2053(10) 0.2078(9) 0.1541(3) 0.1126 Uani
H3 H 0.2241 0.1889 0.1395 0.1350 Uiso
H4 H 0.1998 0.1884 0.1728 0.1350 Uiso
C6 C 0.1963(7) 0.3010(8) 0.1182(2) 0.1163 Uani
H5 H 0.2208 0.2815 0.1041 0.1400 Uiso
C7 C 0.1742(4) 0.3483(8) 0.10737(19) 0.0768 Uani
C8 C 0.1898(3) 0.3796(6) 0.07636(18) 0.0607 Uani
C9 C 0.1358(4) 0.3968(4) 0.06150(12) 0.0577 Uani
H6 H 0.0859 0.3841 0.0709 0.0690 Uiso
C10 C 0.1528(3) 0.4320(3) 0.03334(11) 0.0436 Uani
C11 C 0.2246(2) 0.4492(5) 0.01892(15) 0.0433 Uani
H7 H 0.2362 0.4724 -0.0005 0.0520 Uiso
C12 C 0.0960(3) 0.4551(4) 0.01905(11) 0.0424 Uani
O1 O 0.0368(2) 0.4448(3) 0.03442(8) 0.0520 Uani
O2 O 0.1121(2) 0.4837(3) -0.00695(8) 0.0478 Uani
C1W C 0.0683(6) 0.2551(4) 0.24578(11) 0.0627 Uani
H1W H 0.0228 0.2508 0.2563 0.0750 Uiso
C2W C 0.0712(7) 0.2658(5) 0.21516(13) 0.0768 Uani
H2W H 0.0300 0.2713 0.2052 0.0920 Uiso
C5W C 0.0843(10) 0.2694(8) 0.1479(2) 0.1163 Uani
N2W N 0.0025(13) 0.2078(9) 0.1541(3) 0.1126 Uani
H3W H -0.0352 0.1889 0.1395 0.1350 Uiso
H4W H -0.0114 0.1884 0.1728 0.1350 Uiso
C6W C 0.1047(11) 0.3010(8) 0.1182(2) 0.1163 Uani
H5W H 0.0607 0.2815 0.1041 0.1400 Uiso
C9W C 0.2610(6) 0.3968(4) 0.06150(12) 0.0577 Uani
H6W H 0.2982 0.3841 0.0709 0.0690 Uiso
C10W C 0.2792(4) 0.4320(3) 0.03334(11) 0.0436 Uani
C12W C 0.3591(5) 0.4551(4) 0.01905(11) 0.0424 Uani
O1W O 0.4080(4) 0.4448(3) 0.03442(8) 0.0520 Uani
O2W O 0.3716(4) 0.4837(3) -0.00695(8) 0.0478 Uani
Cu1A Cu 0.47786(2) 0.52214(5) -0.025135(15) 0.0312 Uani
Cu1D Cu -0.04428(5) 0.47786(5) 0.025135(15) 0.0312 Uani
Cu1E Cu 0.52214(5) 0.47786(2) 0.025135(15) 0.0312 Uani
Cu1H Cu 0.14453(5) 0.28905(5) 0.308198(15) 0.0312 Uani
N1M N 0.0829(4) 0.54146(44) -0.07199(13) 0.0474 Uani
O1D O -0.0368(2) 0.4080(4) -0.03442(8) 0.0520 Uani
O1R O -0.0368(2) 0.5552(3) -0.03442(8) 0.0520 Uani
O2V O 0.1121(2) 0.6284(4) -0.00695(8) 0.0478 Uani
loop_
_atom_site_aniso_label
_atom_site_aniso_U_11
_atom_site_aniso_U_22
_atom_site_aniso_U_33
_atom_site_aniso_U_23
_atom_site_aniso_U_13
_atom_site_aniso_U_12
Cu1 0.0247(5) 0.0433(5) 0.0195(4) 0.00037(14) 0.0007(3) 0.0124(2)
N1 0.069(4) 0.033(3) 0.028(3) -0.007(2) -0.0033(12) 0.0164(16)
C1 0.100(5) 0.096(5) 0.024(2) -0.009(3) -0.004(3) 0.073(5)
C2 0.112(6) 0.127(7) 0.033(3) 0.002(3) 0.006(3) 0.091(6)
C3 0.121(3) 0.191(6) 0.061(3) 0.031(3) 0.0157(17) 0.096(3)
C4 0.121(3) 0.191(6) 0.061(3) 0.031(3) 0.0157(17) 0.096(3)
C5 0.121(3) 0.191(6) 0.061(3) 0.031(3) 0.0157(17) 0.096(3)
N2 0.144(9) 0.125(9) 0.087(8) 0.022(7) 0.001(7) 0.081(7)
C6 0.121(3) 0.191(6) 0.061(3) 0.031(3) 0.0157(17) 0.096(3)
C7 0.075(4) 0.147(10) 0.033(4) 0.028(5) 0.014(3) 0.074(5)
C8 0.065(4) 0.097(7) 0.030(4) 0.011(4) 0.006(2) 0.048(4)
C9 0.043(3) 0.099(5) 0.037(3) 0.008(3) 0.011(2) 0.040(3)
C10 0.041(3) 0.064(3) 0.032(2) 0.002(2) -0.001(2) 0.031(3)
C11 0.044(3) 0.061(5) 0.030(3) 0.006(3) 0.0029(16) 0.030(2)
C12 0.034(3) 0.063(3) 0.030(2) 0.002(2) -0.0013(19) 0.024(3)
O1 0.041(2) 0.086(3) 0.0399(19) 0.0100(19) 0.0040(16) 0.040(2)
O2 0.043(2) 0.075(3) 0.0328(18) 0.0127(17) 0.0038(15) 0.035(2)
C1W 0.05 0.096 0.024 -0.009 -0.005 0.023
C2W 0.057 0.127 0.033 0.002 -0.004 0.036
C5W 0.12 0.191 0.061 0.031 0.0153 0.095
N2W 0.107 0.125 0.087 0.022 0.021 0.044
C6W 0.12 0.191 0.061 0.031 0.0153 0.095
C9W 0.062 0.099 0.037 0.008 -0.003 0.059
C10W 0.043 0.064 0.032 0.002 0.003 0.033
C12W 0.049 0.063 0.03 0.002 0.0033 0.039
O1W 0.047 0.086 0.0399 0.01 0.006 0.046
O2W 0.048 0.075 0.0328 0.0127 0.0089 0.04
Cu1A 0.0433 0.0432 0.0195 0.00033 -0.00037 0.0309
Cu1D 0.0247 0.0432 0.0195 0.00033 0.0007 0.0123
Cu1E 0.0432 0.0433 0.0195 0.00037 -0.00033 0.0309
Cu1H 0.0432 0.0247 0.0195 -0.0007 -0.00033 0.0123
N1M 0.033 0.0692 0.028 0.0037 0.007 0.0166
O1D 0.041 0.047 0.0399 -0.006 0.004 0.001
O1R 0.041 0.086 0.0399 0.01 0.004 0.04
O2V 0.043 0.048 0.0328 -0.0089 0.0038 0.008
loop_
_geom_bond_atom_site_label_1
_geom_bond_atom_site_label_2
_geom_bond_site_symmetry_1
_geom_bond_site_symmetry_2
Cu1 O2 1_555 1_555
N1 C1 1_555 1_555
C1 H1 1_555 1_555
C2 C1 1_555 1_555
H2 C2 1_555 1_555
C3 C2 1_555 1_555
C4 C3 1_555 1_555
C5 C4 1_555 1_555
N2 C5 1_555 1_555
H3 N2 1_555 1_555
H4 N2 1_555 1_555
C6 C5 1_555 1_555
H5 C6 1_555 1_555
C7 C6 1_555 1_555
C8 C7 1_555 1_555
C9 C8 1_555 1_555
H6 C9 1_555 1_555
C10 C9 1_555 1_555
C11 C10 1_555 1_555
H7 C11 1_555 1_555
C12 C10 1_555 1_555
O1 C12 1_555 1_555
O2 C12 1_555 1_555
C1W N1 1_555 1_555
H1W C1W 1_555 1_555
C2W C3 1_555 1_555
H2W C2W 1_555 1_555
C5W C4 1_555 1_555
N2W C5W 1_555 1_555
H3W N2W 1_555 1_555
H4W N2W 1_555 1_555
C6W C7 1_555 1_555
H5W C6W 1_555 1_555
C9W C8 1_555 1_555
H6W C9W 1_555 1_555
C10W C11 1_555 1_555
C12W C10W 1_555 1_555
O1W C12W 1_555 1_555
O2W C12W 1_555 1_555
Cu1A O2W 1_555 1_555
Cu1D Cu1 1_555 1_555
Cu1E O1W 1_555 1_555
Cu1H N1 1_555 1_555
N1M Cu1 1_555 1_555
O1D Cu1 1_555 1_555
O1R Cu1 1_555 1_555
O2V Cu1 1_555 1_555
O1 Cu1D 1_555 1_555
C1W C2W 1_555 1_555
C5W C6W 1_555 1_555
C9W C10W 1_555 1_555
Cu1A Cu1E 1_555 1_555

#END
