
#######################################################################
#
#                 Cambridge Crystallographic Data Centre
#                                CCDC 
#
#######################################################################
#
# If this CIF has been generated from an entry in the Cambridge 
# Structural Database, then it will include bibliographic, chemical, 
# crystal, experimental, refinement or atomic coordinate data resulting 
# from the CCDC's data processing and validation procedures.
#
#######################################################################

data_MAVLIH
_chemical_formula_moiety         '(C40 H24 Cd3 N2 O14)n'
_symmetry_cell_setting           monoclinic
_symmetry_space_group_name_H-M   'C 2/c'
_symmetry_Int_Tables_number      15
_space_group_name_Hall           '-C 2yc'
loop_
_symmetry_equiv_pos_site_id
_symmetry_equiv_pos_as_xyz
1 x,y,z
2 -x,y,1/2-z
3 1/2+x,1/2+y,z
4 1/2-x,1/2+y,1/2-z
5 -x,-y,-z
6 x,-y,1/2+z
7 1/2-x,1/2-y,-z
8 1/2+x,1/2-y,1/2+z
_cell_length_a                   14.9155(11)
_cell_length_b                   20.1133(9)
_cell_length_c                   14.3821(7)
_cell_angle_alpha                90
_cell_angle_beta                 105.870(6)
_cell_angle_gamma                90
_cell_volume                     4150.18
loop_
_atom_site_label
_atom_site_type_symbol
_atom_site_fract_x
_atom_site_fract_y
_atom_site_fract_z
Cd1 Cd 0.77529(2) 0.21558(2) 0.62518(2)
Cd2 Cd 1.0000 0.14345(2) 0.7500
O1 O 0.84550(17) 0.26657(14) 0.50769(17)
O2 O 0.94663(17) 0.22831(13) 0.63607(17)
O3 O 1.04661(17) 0.13800(12) 0.54326(17)
O4 O 1.14100(17) 0.17142(13) 0.72599(17)
O5 O 1.28873(19) 0.14253(14) 0.77091(18)
O6 O 1.07453(18) -0.06499(13) 0.35085(17)
O7 O 1.1974(2) -0.11933(14) 0.44450(18)
N1 N 0.7556(3) 0.30971(18) 0.7072(2)
C1 C 0.9266(3) 0.24676(19) 0.5496(3)
C2 C 0.9990(2) 0.2478(2) 0.4951(3)
C3 C 1.0041(3) 0.3033(2) 0.4391(3)
H1 H 0.9608 0.3374 0.4333
C4 C 1.0733(4) 0.3082(3) 0.3919(4)
H2 H 1.0768 0.3457 0.3552
C5 C 1.1359(3) 0.2582(3) 0.3995(4)
H3 H 1.1831 0.2623 0.3689
C6 C 1.1311(3) 0.2017(2) 0.4513(3)
H4 H 1.1739 0.1675 0.4549
C7 C 1.0619(2) 0.19616(19) 0.4983(2)
C8 C 1.1129(2) 0.08764(18) 0.5549(2)
C9 C 1.1916(3) 0.08653(19) 0.6348(2)
C10 C 1.2089(3) 0.1369(2) 0.7150(3)
C11 C 1.2540(3) 0.0343(2) 0.6420(3)
H5 H 1.3079 0.0336 0.6932
C12 C 1.2381(3) -0.0164(2) 0.5752(3)
H6 H 1.2802 -0.0514 0.5823
C13 C 1.1591(3) -0.01512(19) 0.4971(2)
C14 C 1.1418(3) -0.0716(2) 0.4239(3)
C15 C 1.0976(2) 0.03764(18) 0.4873(2)
H7 H 1.0453 0.0393 0.4344
C16 C 0.6777(3) 0.3450(2) 0.6904(4)
H8 H 0.6275 0.3328 0.6389
C17 C 0.6679(4) 0.3985(3) 0.7450(4)
H9 H 0.6118 0.4216 0.7311
C18 C 0.7398(5) 0.4176(3) 0.8194(4)
H10 H 0.7349 0.4547 0.8563
C19 C 0.8182(5) 0.3821(3) 0.8387(4)
H11 H 0.8681 0.3936 0.8909
C20 C 0.8257(4) 0.3285(3) 0.7818(4)
H12 H 0.8813 0.3047 0.7958
Cd1A Cd 1.22471(2) 0.21558(2) 0.87482(2)
O1A O 1.15450(17) 0.26657(14) 0.99231(17)
O2A O 1.05337(17) 0.22831(13) 0.86393(17)
O3A O 0.95339(17) 0.13800(12) 0.95674(17)
O4A O 0.85900(17) 0.17142(13) 0.77401(17)
O5A O 0.71127(19) 0.14253(14) 0.72909(18)
O6A O 0.92547(18) -0.06499(13) 1.14915(17)
O7A O 0.8026(2) -0.11933(14) 1.05550(18)
N1A N 1.2444(3) 0.30971(18) 0.7928(2)
C1A C 1.0734(3) 0.24676(19) 0.9504(3)
C2A C 1.0010(2) 0.2478(2) 1.0049(3)
C3A C 0.9959(3) 0.3033(2) 1.0609(3)
H1A H 1.0392 0.3374 1.0667
C4A C 0.9267(4) 0.3082(3) 1.1081(4)
H2A H 0.9232 0.3457 1.1448
C5A C 0.8641(3) 0.2582(3) 1.1005(4)
H3A H 0.8169 0.2623 1.1311
C6A C 0.8689(3) 0.2017(2) 1.0487(3)
H4A H 0.8261 0.1675 1.0451
C7A C 0.9381(2) 0.19616(19) 1.0017(2)
C8A C 0.8871(2) 0.08764(18) 0.9451(2)
C9A C 0.8084(3) 0.08653(19) 0.8652(2)
C10A C 0.7911(3) 0.1369(2) 0.7850(3)
C11A C 0.7460(3) 0.0343(2) 0.8580(3)
H5A H 0.6921 0.0336 0.8068
C12A C 0.7619(3) -0.0164(2) 0.9248(3)
H6A H 0.7198 -0.0514 0.9177
C13A C 0.8409(3) -0.01512(19) 1.0029(2)
C14A C 0.8582(3) -0.0716(2) 1.0761(3)
C15A C 0.9024(2) 0.03764(18) 1.0127(2)
H7A H 0.9547 0.0393 1.0656
C16A C 1.3223(3) 0.3450(2) 0.8096(4)
H8A H 1.3725 0.3328 0.8611
C17A C 1.3321(4) 0.3985(3) 0.7550(4)
H9A H 1.3882 0.4216 0.7689
C18A C 1.2602(5) 0.4176(3) 0.6806(4)
H10A H 1.2651 0.4547 0.6437
C19A C 1.1818(5) 0.3821(3) 0.6613(4)
H11A H 1.1319 0.3936 0.6091
C20A C 1.1743(4) 0.3285(3) 0.7182(4)
H12A H 1.1187 0.3047 0.7042
Cd1D Cd 1.22471(2) -0.21558(2) 0.37482(2)
Cd1E Cd 0.77529(2) -0.21558(2) 1.12518(2)
Cd1F Cd 0.72471(2) 0.28442(2) 0.37482(2)
Cd1G Cd 1.27529(2) 0.28442(2) 1.12518(2)
Cd2D Cd 1.0000 -0.14345(2) 0.2500
Cd2D_2 Cd 1.0000 -0.14345(2) 1.2500
O1F O 0.65450(17) 0.23343(14) 0.49231(17)
O1G O 1.34550(17) 0.23343(14) 1.00769(17)
O6D O 0.92547(18) 0.06499(13) 0.64915(17)
O6E O 1.07453(18) 0.06499(13) 0.85085(17)
O7D O 0.8026(2) 0.11933(14) 0.55550(18)
O7E O 1.1974(2) 0.11933(14) 0.94450(18)
loop_
_geom_bond_atom_site_label_1
_geom_bond_atom_site_label_2
_geom_bond_site_symmetry_1
_geom_bond_site_symmetry_2
Cd1 O1 1_555 1_555
Cd2 O2 1_555 1_555
O1 C1 1_555 1_555
O2 Cd1 1_555 1_555
O3 C7 1_555 1_555
O4 Cd2 1_555 1_555
O5 C10 1_555 1_555
O6 C14 1_555 1_555
O7 C14 1_555 1_555
N1 Cd1 1_555 1_555
C1 O2 1_555 1_555
C2 C1 1_555 1_555
C3 C2 1_555 1_555
H1 C3 1_555 1_555
C4 C3 1_555 1_555
H2 C4 1_555 1_555
C5 C4 1_555 1_555
H3 C5 1_555 1_555
C6 C5 1_555 1_555
H4 C6 1_555 1_555
C7 C2 1_555 1_555
C8 O3 1_555 1_555
C9 C8 1_555 1_555
C10 O4 1_555 1_555
C11 C9 1_555 1_555
H5 C11 1_555 1_555
C12 C11 1_555 1_555
H6 C12 1_555 1_555
C13 C12 1_555 1_555
C14 C13 1_555 1_555
C15 C8 1_555 1_555
H7 C15 1_555 1_555
C16 N1 1_555 1_555
H8 C16 1_555 1_555
C17 C16 1_555 1_555
H9 C17 1_555 1_555
C18 C17 1_555 1_555
H10 C18 1_555 1_555
C19 C18 1_555 1_555
H11 C19 1_555 1_555
C20 N1 1_555 1_555
H12 C20 1_555 1_555
Cd1A O4 1_555 1_555
O1A Cd1A 1_555 1_555
O2A Cd2 1_555 1_555
O3A C7A 1_555 1_555
O4A Cd1 1_555 1_555
O5A Cd1 1_555 1_555
O6A C14A 1_555 1_555
O7A C14A 1_555 1_555
N1A Cd1A 1_555 1_555
C1A O1A 1_555 1_555
C2A C1A 1_555 1_555
C3A C2A 1_555 1_555
H1A C3A 1_555 1_555
C4A C3A 1_555 1_555
H2A C4A 1_555 1_555
C5A C4A 1_555 1_555
H3A C5A 1_555 1_555
C6A C5A 1_555 1_555
H4A C6A 1_555 1_555
C7A C2A 1_555 1_555
C8A O3A 1_555 1_555
C9A C8A 1_555 1_555
C10A O4A 1_555 1_555
C11A C9A 1_555 1_555
H5A C11A 1_555 1_555
C12A C11A 1_555 1_555
H6A C12A 1_555 1_555
C13A C12A 1_555 1_555
C14A C13A 1_555 1_555
C15A C8A 1_555 1_555
H7A C15A 1_555 1_555
C16A N1A 1_555 1_555
H8A C16A 1_555 1_555
C17A C16A 1_555 1_555
H9A C17A 1_555 1_555
C18A C17A 1_555 1_555
H10A C18A 1_555 1_555
C19A C18A 1_555 1_555
H11A C19A 1_555 1_555
C20A N1A 1_555 1_555
H12A C20A 1_555 1_555
Cd1D O7 1_555 1_555
Cd1E O7A 1_555 1_555
Cd1F O1 1_555 1_555
Cd1G O1A 1_555 1_555
Cd2D O6 1_555 1_555
Cd2D_2 O6A 1_555 1_555
O1F Cd1 1_555 1_555
O1G Cd1A 1_555 1_555
O6D Cd2 1_555 1_555
O6E Cd2 1_555 1_555
O7D Cd1 1_555 1_555
O7E Cd1A 1_555 1_555
Cd2 O4A 1_555 1_555
O5 Cd1A 1_555 1_555
C6 C7 1_555 1_555
C9 C10 1_555 1_555
C13 C15 1_555 1_555
C19 C20 1_555 1_555
Cd1A O2A 1_555 1_555
O2A C1A 1_555 1_555
O5A C10A 1_555 1_555
C6A C7A 1_555 1_555
C9A C10A 1_555 1_555
C13A C15A 1_555 1_555
C19A C20A 1_555 1_555
Cd1F O1F 1_555 1_555
Cd1G O1G 1_555 1_555

#END
