
#######################################################################
#
#                 Cambridge Crystallographic Data Centre
#                                CCDC 
#
#######################################################################
#
# If this CIF has been generated from an entry in the Cambridge 
# Structural Database, then it will include bibliographic, chemical, 
# crystal, experimental, refinement or atomic coordinate data resulting 
# from the CCDC's data processing and validation procedures.
#
#######################################################################

data_EHUSUX
_chemical_formula_moiety         '(C32 H26 Cu2 O10)n'
_symmetry_cell_setting           rhombohedral
_symmetry_space_group_name_H-M   'R -3'
_symmetry_Int_Tables_number      148
_space_group_name_Hall           '-R 3'
loop_
_symmetry_equiv_pos_site_id
_symmetry_equiv_pos_as_xyz
1 x,y,z
2 -y,x-y,z
3 -x+y,-x,z
4 2/3+x,1/3+y,1/3+z
5 2/3-y,1/3+x-y,1/3+z
6 2/3-x+y,1/3-x,1/3+z
7 1/3+x,2/3+y,2/3+z
8 1/3-y,2/3+x-y,2/3+z
9 1/3-x+y,2/3-x,2/3+z
10 -x,-y,-z
11 y,-x+y,-z
12 x-y,x,-z
13 1/3-x,2/3-y,2/3-z
14 1/3+y,2/3-x+y,2/3-z
15 1/3+x-y,2/3+x,2/3-z
16 2/3-x,1/3-y,1/3-z
17 2/3+y,1/3-x+y,1/3-z
18 2/3+x-y,1/3+x,1/3-z
_cell_length_a                   18.473(3)
_cell_length_b                   18.473(3)
_cell_length_c                   52.110(10)
_cell_angle_alpha                90
_cell_angle_beta                 90
_cell_angle_gamma                120
_cell_volume                     15400.2
loop_
_atom_site_label
_atom_site_type_symbol
_atom_site_fract_x
_atom_site_fract_y
_atom_site_fract_z
Cu1 Cu 0.47545(5) 0.95077(4) 0.020736(13)
O1 O 0.1108(3) 0.6272(3) 0.00202(8)
O2 O 0.0270(3) 0.5870(3) -0.03285(8)
O3 O 0.3721(3) 0.8890(3) 0.00189(8)
O4 O 0.4139(3) 0.9726(3) -0.03308(8)
O5 O 0.4393(4) 0.8782(4) 0.05506(11)
C1 C 0.3581(5) 0.9076(4) -0.02073(14)
C2 C 0.2806(4) 0.8497(4) -0.03329(12)
C3 C 0.2171(4) 0.7832(4) -0.02065(11)
H1 H 0.2197 0.7811 -0.0029
C4 C 0.2666(5) 0.8622(4) -0.05898(13)
H2 H 0.3076 0.9079 -0.0679
C5 C 0.1922(5) 0.8072(5) -0.07122(16)
C6 C 0.1824(5) 0.8162(5) -0.09884(15)
C7 C 0.1069(8) 0.8064(8) -0.1094(2)
C8 C 0.1021(10) 0.8144(12) -0.1361(2)
H3 H 0.0536 0.8094 -0.1432
C9 C 0.1693(6) 0.8300(6) -0.15203(17)
C10 C 0.2445(8) 0.8430(12) -0.1415(2)
C11 C 0.2475(8) 0.8279(11) -0.1156(2)
H4 H 0.2931 0.8254 -0.1091
C12 C 0.0327(12) 0.7944(14) -0.0917(3)
H5 H 0.0459 0.7905 -0.0741
H6 H -0.0173 0.7441 -0.0965
H7 H 0.0243 0.8414 -0.0937
C13 C 0.3201(10) 0.8681(13) -0.1586(3)
H8 H 0.3060 0.8724 -0.1760
H9 H 0.3369 0.8267 -0.1574
H10 H 0.3653 0.9212 -0.1530
C14 C 0.0918(4) 0.6414(4) -0.02054(13)
C15 C 0.1489(4) 0.7189(4) -0.03329(12)
C16 C 0.1366(5) 0.7340(5) -0.05918(14)
H11 H 0.0903 0.6939 -0.0681
O1L O 0.2225(3) 1.0395(3) -0.33535(8)
O2L O 0.3063(3) 1.0797(3) -0.30048(8)
O3L O -0.0388(3) 0.7777(3) -0.33522(8)
O4L O -0.0806(3) 0.6941(3) -0.30025(8)
C1L C -0.0248(5) 0.7591(4) -0.31260(14)
C2L C 0.0527(4) 0.8170(4) -0.30004(12)
C3L C 0.1162(4) 0.8835(4) -0.31268(11)
H1L H 0.1136 0.8856 -0.3304
C4L C 0.0667(5) 0.8045(4) -0.27435(13)
H2L H 0.0257 0.7588 -0.2654
C5L C 0.1411(5) 0.8595(5) -0.26211(16)
C6L C 0.1509(5) 0.8505(5) -0.23449(15)
C7L C 0.2264(8) 0.8603(8) -0.2239(2)
C8L C 0.2312(10) 0.8523(12) -0.1972(2)
H3L H 0.2797 0.8573 -0.1901
C9L C 0.1640(6) 0.8367(6) -0.18130(17)
C10L C 0.0888(8) 0.8237(12) -0.1918(2)
C11L C 0.0858(8) 0.8388(11) -0.2177(2)
H4L H 0.0402 0.8413 -0.2242
C12L C 0.3006(12) 0.8723(14) -0.2416(3)
H5L H 0.2874 0.8762 -0.2592
H6L H 0.3506 0.9226 -0.2368
H7L H 0.3090 0.8253 -0.2396
C13L C 0.0132(10) 0.7986(13) -0.1747(3)
H8L H 0.0273 0.7943 -0.1573
H9L H -0.0036 0.8400 -0.1759
H10L H -0.0320 0.7455 -0.1803
C14L C 0.2415(4) 1.0253(4) -0.31279(13)
C15L C 0.1844(4) 0.9478(4) -0.30004(12)
C16L C 0.1967(5) 0.9327(5) -0.27415(14)
H11L H 0.2430 0.9728 -0.2652
Cu1A Cu 0.04923(4) 0.52468(6) 0.020736(13)
O5A O 0.1218(4) 0.5611(6) 0.05506(11)
Cu1F Cu -0.19122(5) 0.61744(4) -0.312597(13)
Cu1G Cu 0.38256(4) 1.19135(6) -0.312597(13)
Cu1I Cu 0.52455(5) 1.04923(4) -0.020736(13)
Cu1J Cu -0.04923(4) 0.47532(6) -0.020736(13)
Cu1L Cu -0.14212(5) 0.71590(4) -0.354069(13)
Cu1M Cu 0.28410(4) 1.14199(6) -0.354069(13)
O1B O 0.5164(4) 0.8892(3) 0.00202(8)
O2I O -0.0270(3) 0.4130(3) 0.03285(8)
O2K O 0.4400(4) 1.0270(3) 0.03285(8)
O3A O 0.1110(3) 0.4831(4) 0.00189(8)
O4I O 0.5861(3) 1.0274(3) 0.03308(8)
O4J O -0.0274(3) 0.5587(4) 0.03308(8)
loop_
_geom_bond_atom_site_label_1
_geom_bond_atom_site_label_2
_geom_bond_site_symmetry_1
_geom_bond_site_symmetry_2
Cu1 O3 1_555 1_555
O1 C14 1_555 1_555
O2 C14 1_555 1_555
O3 C1 1_555 1_555
O4 C1 1_555 1_555
O5 Cu1 1_555 1_555
C1 C2 1_555 1_555
C2 C3 1_555 1_555
C3 H1 1_555 1_555
C4 C2 1_555 1_555
H2 C4 1_555 1_555
C5 C4 1_555 1_555
C6 C5 1_555 1_555
C7 C6 1_555 1_555
C8 C7 1_555 1_555
H3 C8 1_555 1_555
C9 C8 1_555 1_555
C10 C9 1_555 1_555
C11 C6 1_555 1_555
H4 C11 1_555 1_555
C12 C7 1_555 1_555
H5 C12 1_555 1_555
H6 C12 1_555 1_555
H7 C12 1_555 1_555
C13 C10 1_555 1_555
H8 C13 1_555 1_555
H9 C13 1_555 1_555
H10 C13 1_555 1_555
C14 C15 1_555 1_555
C15 C3 1_555 1_555
C16 C5 1_555 1_555
H11 C16 1_555 1_555
O1L C14L 1_555 1_555
O2L C14L 1_555 1_555
O3L C1L 1_555 1_555
O4L C1L 1_555 1_555
C1L C2L 1_555 1_555
C2L C3L 1_555 1_555
C3L H1L 1_555 1_555
C4L C2L 1_555 1_555
H2L C4L 1_555 1_555
C5L C4L 1_555 1_555
C6L C5L 1_555 1_555
C7L C6L 1_555 1_555
C8L C7L 1_555 1_555
H3L C8L 1_555 1_555
C9L C9 1_555 1_555
C10L C9L 1_555 1_555
C11L C6L 1_555 1_555
H4L C11L 1_555 1_555
C12L C7L 1_555 1_555
H5L C12L 1_555 1_555
H6L C12L 1_555 1_555
H7L C12L 1_555 1_555
C13L C10L 1_555 1_555
H8L C13L 1_555 1_555
H9L C13L 1_555 1_555
H10L C13L 1_555 1_555
C14L C15L 1_555 1_555
C15L C3L 1_555 1_555
C16L C5L 1_555 1_555
H11L C16L 1_555 1_555
Cu1A O1 1_555 1_555
O5A Cu1A 1_555 1_555
Cu1F O4L 1_555 1_555
Cu1G O2L 1_555 1_555
Cu1I Cu1 1_555 1_555
Cu1J O2 1_555 1_555
Cu1L O3L 1_555 1_555
Cu1M O1L 1_555 1_555
O1B Cu1 1_555 1_555
O2I Cu1A 1_555 1_555
O2K Cu1 1_555 1_555
O3A Cu1A 1_555 1_555
O4I Cu1 1_555 1_555
O4J Cu1A 1_555 1_555
O4 Cu1I 1_555 1_555
C10 C11 1_555 1_555
C15 C16 1_555 1_555
C8L C9L 1_555 1_555
C10L C11L 1_555 1_555
C15L C16L 1_555 1_555
Cu1A Cu1J 1_555 1_555
Cu1F Cu1L 1_555 1_555
Cu1G Cu1M 1_555 1_555

#END
