
#######################################################################
#
#                 Cambridge Crystallographic Data Centre
#                                CCDC 
#
#######################################################################
#
# If this CIF has been generated from an entry in the Cambridge 
# Structural Database, then it will include bibliographic, chemical, 
# crystal, experimental, refinement or atomic coordinate data resulting 
# from the CCDC's data processing and validation procedures.
#
#######################################################################

data_EHUTAE
_chemical_formula_moiety         '(C40 H34 Cu2 O10)n'
_symmetry_cell_setting           rhombohedral
_symmetry_space_group_name_H-M   'R -3'
_symmetry_Int_Tables_number      148
_space_group_name_Hall           '-R 3'
loop_
_symmetry_equiv_pos_site_id
_symmetry_equiv_pos_as_xyz
1 x,y,z
2 -y,x-y,z
3 -x+y,-x,z
4 2/3+x,1/3+y,1/3+z
5 2/3-y,1/3+x-y,1/3+z
6 2/3-x+y,1/3-x,1/3+z
7 1/3+x,2/3+y,2/3+z
8 1/3-y,2/3+x-y,2/3+z
9 1/3-x+y,2/3-x,2/3+z
10 -x,-y,-z
11 y,-x+y,-z
12 x-y,x,-z
13 1/3-x,2/3-y,2/3-z
14 1/3+y,2/3-x+y,2/3-z
15 1/3+x-y,2/3+x,2/3-z
16 2/3-x,1/3-y,1/3-z
17 2/3+y,1/3-x+y,1/3-z
18 2/3+x-y,1/3+x,1/3-z
_cell_length_a                   18.3194(5)
_cell_length_b                   18.3194(5)
_cell_length_c                   65.6209(19)
_cell_angle_alpha                90
_cell_angle_beta                 90
_cell_angle_gamma                120
_cell_volume                     19072
loop_
_atom_site_label
_atom_site_type_symbol
_atom_site_fract_x
_atom_site_fract_y
_atom_site_fract_z
Cu1 Cu 0.94951(8) 0.47484(9) 0.48369(2)
O1 O 0.8699(7) 0.4352(7) 0.4580(2)
O2 O 1.0249(7) 0.5880(7) 0.47313(13)
O3 O 0.8886(5) 0.5186(7) 0.49959(16)
O4 O 1.0263(7) 0.4384(11) 0.47315(13)
O5 O 0.8882(5) 0.3693(5) 0.49962(16)
C1 C 1.0903(10) 0.4490(9) 0.4823(3)
C2 C 1.1478(9) 0.4294(9) 0.4727(2)
C3 C 1.2116(10) 0.4255(9) 0.4823(2)
C4 C 1.1373(12) 0.4028(10) 0.4529(4)
C5 C 1.2829(8) 0.4278(9) 0.4724(3)
H1 H 1.2091 0.4212 0.4965
H2 H 1.0924 0.3992 0.4455
C6 C 1.1912(15) 0.3812(16) 0.4436(4)
C7 C 1.2680(10) 0.4037(12) 0.4518(3)
C8 C 1.3597(10) 0.4487(11) 0.4822(3)
C9 C 1.1828(10) 0.3594(10) 0.4208(3)
H3 H 1.3099 0.4032 0.4439
C10 C 1.1850(11) 0.2910(13) 0.4125(3)
C11 C 1.1753(10) 0.4169(12) 0.4082(3)
C12 C 1.1930(16) 0.229(2) 0.4259(5)
C13 C 1.1796(14) 0.2792(16) 0.3913(4)
C14 C 1.1701(12) 0.4052(12) 0.3871(3)
H4 H 1.1737 0.4626 0.4139
H5 H 1.2420 0.2261 0.4220
H6 H 1.1438 0.1747 0.4246
H7 H 1.1992 0.2477 0.4398
C15 C 1.1731(13) 0.3369(13) 0.3787(3)
H8 H 1.1805 0.2331 0.3857
C16 C 1.1620(17) 0.467(2) 0.3736(5)
C17 C 1.177(3) 0.3440(19) 0.3551(2)
H9 H 1.1109 0.4668 0.3769
H10 H 1.1599 0.4501 0.3596
H11 H 1.2093 0.5220 0.3756
C18 C 1.1418(15) 0.3857(18) 0.3442(5)
C19 C 1.2032(15) 0.2897(8) 0.3446(5)
H12 H 1.1259 0.4196 0.3512
C20 C 1.2404(14) 0.2461(14) 0.3565(4)
H13 H 1.2979 0.2675 0.3525
H14 H 1.2383 0.2562 0.3708
H15 H 1.2086 0.1865 0.3539
Cu1I Cu 1.05049(8) 0.52516(9) 0.51631(2)
O3I O 1.1114(5) 0.4814(7) 0.50041(16)
O5J O 1.3693(5) 0.4811(7) 0.50038(16)
O2A O 1.4120(7) 0.4369(10) 0.47313(13)
Cu1J Cu 1.47484(9) 0.52533(12) 0.51631(2)
Cu1A Cu 1.52516(9) 0.47467(12) 0.48369(2)
O4J O 1.4384(11) 0.4121(13) 0.52685(13)
O1J O 1.4352(7) 0.5653(10) 0.5420(2)
O3J O 1.5186(7) 0.6300(9) 0.50041(16)
O2J O 1.5880(7) 0.5631(10) 0.52687(13)
C19L C 1.1301(15) 0.3770(8) 0.3221(5)
C18L C 1.1915(15) 0.2810(18) 0.3225(5)
C20L C 1.0929(14) 0.4206(14) 0.3102(4)
C17L C 1.156(3) 0.3227(19) 0.3116(2)
H12L H 1.2074 0.2471 0.3155
H14L H 1.0950 0.4105 0.2959
H15L H 1.1247 0.4802 0.3128
H13L H 1.0354 0.3992 0.3142
C15L C 1.1602(13) 0.3298(13) 0.2880(3)
C13L C 1.1537(14) 0.3875(16) 0.2754(4)
C14L C 1.1632(12) 0.2615(12) 0.2796(3)
H8L H 1.1528 0.4336 0.2810
C10L C 1.1483(11) 0.3757(13) 0.2542(3)
C16L C 1.1713(17) 0.200(2) 0.2931(5)
C11L C 1.1580(10) 0.2498(12) 0.2585(3)
C12L C 1.1403(16) 0.438(2) 0.2408(5)
C9L C 1.1505(10) 0.3073(10) 0.2459(3)
H11L H 1.1240 0.1447 0.2911
H9L H 1.2224 0.1999 0.2898
H10L H 1.1734 0.2166 0.3071
H4L H 1.1596 0.2041 0.2528
H7L H 1.1341 0.4190 0.2269
H6L H 1.1895 0.4920 0.2421
H5L H 1.0913 0.4406 0.2447
C6L C 1.1421(15) 0.2855(16) 0.2231(4)
C4L C 1.1960(12) 0.2639(10) 0.2138(4)
C7L C 1.0653(10) 0.2630(12) 0.2149(3)
C2L C 1.1855(9) 0.2373(9) 0.1940(2)
H2L H 1.2409 0.2675 0.2212
C5L C 1.0504(8) 0.2389(9) 0.1943(3)
H3L H 1.0234 0.2635 0.2228
C1L C 1.2430(10) 0.2177(9) 0.1844(3)
C3L C 1.1217(10) 0.2412(9) 0.1844(2)
C8L C 0.9736(10) 0.2180(11) 0.1845(3)
O4L O 1.3070(7) 0.2283(11) 0.19352(13)
O3F O 1.2219(5) 0.1853(7) 0.16626(16)
H1L H 1.1242 0.2455 0.1702
O5G O 0.9640(5) 0.1856(7) 0.16629(16)
O2M O 0.9213(7) 0.2298(10) 0.19354(13)
Cu1L Cu 1.38382(8) 0.19183(9) 0.18298(2)
Cu1F Cu 1.28284(8) 0.14151(9) 0.15036(2)
Cu1G Cu 0.85849(9) 0.14134(12) 0.15036(2)
Cu1M Cu 0.80817(9) 0.19200(12) 0.18298(2)
loop_
_geom_bond_atom_site_label_1
_geom_bond_atom_site_label_2
_geom_bond_site_symmetry_1
_geom_bond_site_symmetry_2
Cu1 O1 1_555 1_555
O2 Cu1 1_555 1_555
O3 Cu1 1_555 1_555
O4 Cu1 1_555 1_555
O5 Cu1 1_555 1_555
C1 O4 1_555 1_555
C2 C1 1_555 1_555
C3 C2 1_555 1_555
C4 C2 1_555 1_555
C5 C3 1_555 1_555
H1 C3 1_555 1_555
H2 C4 1_555 1_555
C6 C4 1_555 1_555
C7 C5 1_555 1_555
C8 C5 1_555 1_555
C9 C6 1_555 1_555
H3 C7 1_555 1_555
C10 C9 1_555 1_555
C11 C9 1_555 1_555
C12 C10 1_555 1_555
C13 C10 1_555 1_555
C14 C11 1_555 1_555
H4 C11 1_555 1_555
H5 C12 1_555 1_555
H6 C12 1_555 1_555
H7 C12 1_555 1_555
C15 C13 1_555 1_555
H8 C13 1_555 1_555
C16 C14 1_555 1_555
C17 C15 1_555 1_555
H9 C16 1_555 1_555
H10 C16 1_555 1_555
H11 C16 1_555 1_555
C18 C17 1_555 1_555
C19 C17 1_555 1_555
H12 C18 1_555 1_555
C20 C19 1_555 1_555
H13 C20 1_555 1_555
H14 C20 1_555 1_555
H15 C20 1_555 1_555
Cu1I Cu1 1_555 1_555
O3I C1 1_555 1_555
O5J C8 1_555 1_555
O2A C8 1_555 1_555
Cu1J O5J 1_555 1_555
Cu1A O2A 1_555 1_555
O4J Cu1J 1_555 1_555
O1J Cu1J 1_555 1_555
O3J Cu1J 1_555 1_555
O2J Cu1J 1_555 1_555
C19L C18 1_555 1_555
C18L C19 1_555 1_555
C20L C19L 1_555 1_555
C17L C19L 1_555 1_555
H12L C18L 1_555 1_555
H14L C20L 1_555 1_555
H15L C20L 1_555 1_555
H13L C20L 1_555 1_555
C15L C17L 1_555 1_555
C13L C15L 1_555 1_555
C14L C15L 1_555 1_555
H8L C13L 1_555 1_555
C10L C13L 1_555 1_555
C16L C14L 1_555 1_555
C11L C14L 1_555 1_555
C12L C10L 1_555 1_555
C9L C10L 1_555 1_555
H11L C16L 1_555 1_555
H9L C16L 1_555 1_555
H10L C16L 1_555 1_555
H4L C11L 1_555 1_555
H7L C12L 1_555 1_555
H6L C12L 1_555 1_555
H5L C12L 1_555 1_555
C6L C9L 1_555 1_555
C4L C6L 1_555 1_555
C7L C6L 1_555 1_555
C2L C4L 1_555 1_555
H2L C4L 1_555 1_555
C5L C7L 1_555 1_555
H3L C7L 1_555 1_555
C1L C2L 1_555 1_555
C3L C2L 1_555 1_555
C8L C5L 1_555 1_555
O4L C1L 1_555 1_555
O3F C1L 1_555 1_555
H1L C3L 1_555 1_555
O5G C8L 1_555 1_555
O2M C8L 1_555 1_555
Cu1L O4L 1_555 1_555
Cu1F O3F 1_555 1_555
Cu1G O5G 1_555 1_555
Cu1M O2M 1_555 1_555
C6 C7 1_555 1_555
C14 C15 1_555 1_555
Cu1I O3I 1_555 1_555
Cu1J Cu1A 1_555 1_555
C18L C17L 1_555 1_555
C11L C9L 1_555 1_555
C5L C3L 1_555 1_555
Cu1L Cu1F 1_555 1_555
Cu1G Cu1M 1_555 1_555

#END
