
#######################################################################
#
#                 Cambridge Crystallographic Data Centre
#                                CCDC 
#
#######################################################################
#
# If this CIF has been generated from an entry in the Cambridge 
# Structural Database, then it will include bibliographic, chemical, 
# crystal, experimental, refinement or atomic coordinate data resulting 
# from the CCDC's data processing and validation procedures.
#
#######################################################################

data_RASGAT
_chemical_formula_moiety         '(C39 H86 Cu8 I8 N8 O1 S4)n'
_symmetry_cell_setting           monoclinic
_symmetry_space_group_name_H-M   'P 21'
_symmetry_Int_Tables_number      4
_space_group_name_Hall           'P 2yb'
loop_
_symmetry_equiv_pos_site_id
_symmetry_equiv_pos_as_xyz
1 x,y,z
2 -x,1/2+y,-z
_cell_length_a                   12.057(1)
_cell_length_b                   24.891(3)
_cell_length_c                   12.380(1)
_cell_angle_alpha                90
_cell_angle_beta                 93.040(9)
_cell_angle_gamma                90
_cell_volume                     3710.14
loop_
_atom_site_label
_atom_site_type_symbol
_atom_site_fract_x
_atom_site_fract_y
_atom_site_fract_z
Cu1 Cu 0.6773(3) 0.6730(3) -0.2412(3)
Cu2 Cu 0.6785(3) 0.7618(3) -0.1070(3)
Cu3 Cu 0.8511(3) 0.7523(3) -0.2570(3)
Cu4 Cu 0.8564(3) 0.6788(3) -0.0770(3)
Cu5 Cu 0.8255(3) 0.4191(3) -0.6116(3)
Cu6 Cu 0.6488(3) 0.4312(3) -0.7567(3)
Cu7 Cu 0.6655(3) 0.5025(3) -0.5781(3)
Cu8 Cu 0.8166(3) 0.5114(3) -0.7396(3)
I1 I 0.8791(1) 0.6438(3) -0.2828(1)
I2 I 0.8968(1) 0.7845(3) -0.0531(1)
I3 I 0.6340(1) 0.7736(3) -0.3159(1)
I4 I 0.6529(1) 0.6635(3) -0.0183(1)
I5 I 0.6111(1) 0.3997(3) -0.5541(1)
I6 I 0.8610(1) 0.4128(3) -0.8199(1)
I7 I 0.8854(1) 0.5151(3) -0.5284(1)
I8 I 0.5983(1) 0.5365(3) -0.7765(1)
S1 S 0.5310(6) 0.6216(4) -0.3162(8)
S2 S 0.5701(7) 0.8178(4) -0.0052(6)
S3 S 1.0740(6) 0.8535(4) -0.4879(6)
S4 S 0.9919(5) 0.6285(4) 0.0206(6)
N1 N 0.891(2) 0.5625(8) 0.171(2)
N2 N 0.446(2) 0.8844(9) -0.152(2)
N3 N 0.946(2) 0.793(1) -0.347(2)
N4 N 0.602(2) 0.551(1) -0.470(2)
C1 C 0.934(2) 0.587(1) 0.108(2)
C2 C 0.498(2) 0.856(1) -0.094(2)
C3 C 1.001(2) 0.8208(9) -0.403(2)
C4 C 0.575(2) 0.579(1) -0.407(2)
S3A S 0.9260(6) 0.3535(4) -0.5121(6)
N2A N 0.554(2) 0.3844(9) -0.848(2)
N1_2 N 0.891(2) 0.5625(8) -0.829(2)
Cu5A Cu 1.1745(3) 0.9191(3) -0.3884(3)
Cu8_2 Cu 0.8166(3) 0.5114(3) 0.2604(3)
Cu6A Cu 0.3512(3) 0.9312(3) -0.2433(3)
N5 N 0.624(2) 0.4585(9) -0.162(1)
C5 C 0.686(3) 0.406(1) -0.134(2)
C6 C 0.703(2) 0.506(1) -0.178(3)
C7 C 0.550(3) 0.454(2) -0.268(2)
C8 C 0.549(3) 0.468(2) -0.070(2)
C9 C 0.761(3) 0.389(1) -0.227(4)
C10 C 0.778(3) 0.516(1) -0.078(3)
C11 C 0.468(3) 0.411(1) -0.269(3)
C12 C 0.470(3) 0.513(2) -0.079(3)
N6 N 0.875(2) 0.718(1) 0.336(2)
C13 C 0.823(3) 0.771(1) 0.364(2)
C14 C 0.798(3) 0.673(1) 0.320(2)
C15 C 0.945(3) 0.725(2) 0.233(2)
C16 C 0.958(3) 0.708(2) 0.435(3)
C17 C 0.740(4) 0.792(2) 0.269(6)
C18 C 0.724(2) 0.661(1) 0.416(3)
C19 C 1.027(3) 0.768(2) 0.237(3)
C20 C 1.033(3) 0.658(2) 0.426(3)
N7 N 1.244(1) 0.4747(9) 0.344(2)
C21 C 1.312(3) 0.441(1) 0.265(2)
C22 C 1.334(2) 0.504(1) 0.417(3)
C23 C 1.157(2) 0.514(1) 0.287(3)
C24 C 1.172(2) 0.439(1) 0.411(2)
C25 C 1.226(4) 0.406(2) 0.184(3)
C26 C 1.276(3) 0.542(2) 0.503(3)
C27 C 1.218(3) 0.551(2) 0.204(3)
C28 C 1.239(3) 0.397(1) 0.481(3)
N8 N 0.264(2) 0.7062(9) -0.146(2)
C29 C 0.334(2) 0.737(1) -0.227(2)
C30 C 0.182(2) 0.667(1) -0.199(3)
C31 C 0.353(3) 0.673(1) -0.083(3)
C32 C 0.194(3) 0.738(2) -0.081(3)
C33 C 0.261(3) 0.769(1) -0.309(3)
C34 C 0.228(3) 0.630(1) -0.281(3)
C35 C 0.303(3) 0.637(2) 0.010(3)
C36 C 0.259(3) 0.783(1) -0.010(3)
O1 O 1.223(5) 0.472(2) -0.243(5)
C37 C 1.136(8) 0.460(4) -0.205(8)
C38 C 1.11(1) 0.423(6) -0.12(1)
C39 C 1.12(1) 0.511(7) -0.15(1)
loop_
_geom_bond_atom_site_label_1
_geom_bond_atom_site_label_2
_geom_bond_site_symmetry_1
_geom_bond_site_symmetry_2
Cu1 I1 1_555 1_555
Cu2 I2 1_555 1_555
Cu3 I1 1_555 1_555
Cu4 I1 1_555 1_555
Cu5 I5 1_555 1_555
Cu6 I5 1_555 1_555
Cu7 I5 1_555 1_555
Cu8 I6 1_555 1_555
I2 Cu3 1_555 1_555
I3 Cu1 1_555 1_555
I4 Cu1 1_555 1_555
I6 Cu5 1_555 1_555
I7 Cu5 1_555 1_555
I8 Cu6 1_555 1_555
S1 Cu1 1_555 1_555
S2 Cu2 1_555 1_555
S3 C3 1_555 1_555
S4 Cu4 1_555 1_555
N1 C1 1_555 1_555
N2 C2 1_555 1_555
N3 Cu3 1_555 1_555
N4 Cu7 1_555 1_555
C1 S4 1_555 1_555
C2 S2 1_555 1_555
C3 N3 1_555 1_555
C4 S1 1_555 1_555
N5 C5 1_555 1_555
C5 C9 1_555 1_555
C6 N5 1_555 1_555
C7 N5 1_555 1_555
C8 N5 1_555 1_555
C10 C6 1_555 1_555
C11 C7 1_555 1_555
C12 C8 1_555 1_555
N6 C13 1_555 1_555
C13 C17 1_555 1_555
C14 N6 1_555 1_555
C15 N6 1_555 1_555
C16 N6 1_555 1_555
C18 C14 1_555 1_555
C19 C15 1_555 1_555
C20 C16 1_555 1_555
N7 C21 1_555 1_555
C21 C25 1_555 1_555
C22 N7 1_555 1_555
C23 N7 1_555 1_555
C24 N7 1_555 1_555
C26 C22 1_555 1_555
C27 C23 1_555 1_555
C28 C24 1_555 1_555
N8 C29 1_555 1_555
C29 C33 1_555 1_555
C30 N8 1_555 1_555
C31 N8 1_555 1_555
C32 N8 1_555 1_555
C34 C30 1_555 1_555
C35 C31 1_555 1_555
C36 C32 1_555 1_555
O1 C37 1_555 1_555
C37 C38 1_555 1_555
C39 C37 1_555 1_555
S3A Cu5 1_555 1_555
N2A Cu6 1_555 1_555
N1_2 Cu8 1_555 1_555
Cu5A S3 1_555 1_555
Cu8_2 N1 1_555 1_555
Cu6A N2 1_555 1_555
Cu2 I3 1_555 1_555
Cu2 I4 1_555 1_555
Cu3 I3 1_555 1_555
Cu4 I2 1_555 1_555
Cu4 I4 1_555 1_555
Cu6 I6 1_555 1_555
Cu7 I7 1_555 1_555
Cu7 I8 1_555 1_555
Cu8 I7 1_555 1_555
Cu8 I8 1_555 1_555
N4 C4 1_555 1_555

#END
