
#######################################################################
#
#                 Cambridge Crystallographic Data Centre
#                                CCDC 
#
#######################################################################
#
# If this CIF has been generated from an entry in the Cambridge 
# Structural Database, then it will include bibliographic, chemical, 
# crystal, experimental, refinement or atomic coordinate data resulting 
# from the CCDC's data processing and validation procedures.
#
#######################################################################

data_DIPMAS
_chemical_formula_moiety         '(C8 H35 Ce3 O36 P4)n'
_symmetry_cell_setting           orthorhombic
_symmetry_space_group_name_H-M   'I b a 2'
_symmetry_Int_Tables_number      45
_space_group_name_Hall           'I 2 -2c'
loop_
_symmetry_equiv_pos_site_id
_symmetry_equiv_pos_as_xyz
1 x,y,z
2 1/2-x,1/2+y,z
3 1/2+x,1/2-y,z
4 -x,-y,z
5 1/2+x,1/2+y,1/2+z
6 -x,y,1/2+z
7 x,-y,1/2+z
8 1/2-x,1/2-y,1/2+z
_cell_length_a                   13.4016(6)
_cell_length_b                   26.6928(10)
_cell_length_c                   11.0969(5)
_cell_angle_alpha                90
_cell_angle_beta                 90
_cell_angle_gamma                90
_cell_volume                     3969.65
loop_
_atom_site_label
_atom_site_type_symbol
_atom_site_fract_x
_atom_site_fract_y
_atom_site_fract_z
Ce1 Ce 0.500 0.500 0.5018(10)
O1 O 0.6489(15) 0.4589(6) 0.6063(23)
O2 O 0.5991(13) 0.4355(6) 0.3683(15)
O3 O 0.5510(18) 0.5717(8) 0.6206(14)
O4 O 0.6058(12) 0.5788(7) 0.3830(16)
P1 P 0.7057(10) 0.4115(4) 0.5682(11)
C1 C 0.5720(14) 0.3908(6) 0.3947(16)
O5 O 0.7574(18) 0.3876(8) 0.6770(18)
O6 O 0.7816(15) 0.4235(9) 0.4681(18)
C2 C 0.6153(13) 0.3680(7) 0.5083(13)
O7 O 0.5651(24) 0.3604(6) 0.3061(15)
O8 O 0.6592(21) 0.3216(5) 0.4811(17)
Ce2 Ce 0.65060(26) 0.27800(12) 0.2504(10)
O9 O 0.6683(15) 0.3153(8) 0.0513(11)
O10 O 0.6761(21) 0.2006(9) 0.1348(26)
O11 O 0.7992(21) 0.3414(9) 0.248(6)
O12 O 0.7805(14) 0.2620(6) -0.0754(17)
O13 O 0.5083(13) 0.2737(12) -0.0834(16)
O14 O 0.6640(17) 0.2487(7) -0.3371(16)
O15 O 0.5133(18) 0.2751(13) -0.3558(18)
P2 P 0.6974(9) 0.3021(4) -0.0795(9)
O16 O 0.7420(13) 0.3470(5) -0.1483(18)
C3 C 0.5899(12) 0.2796(10) -0.1592(14)
C4 C 0.5807(15) 0.2586(9) -0.2841(13)
O1C O 0.3511(15) 0.5411(6) 0.6063(23)
O2C O 0.4009(13) 0.5645(6) 0.3683(15)
O3C O 0.4490(18) 0.4283(8) 0.6206(14)
O4C O 0.3942(12) 0.4212(7) 0.3830(16)
P1C P 0.2943(10) 0.5885(4) 0.5682(11)
C1C C 0.4280(14) 0.6092(6) 0.3947(16)
O5C O 0.2426(18) 0.6124(8) 0.6770(18)
O6C O 0.2184(15) 0.5765(9) 0.4681(18)
C2C C 0.3847(13) 0.6320(7) 0.5083(13)
O7C O 0.4349(24) 0.6396(6) 0.3061(15)
O8C O 0.3408(21) 0.6784(5) 0.4811(17)
Ce2C Ce 0.34940(26) 0.72200(12) 0.2504(10)
O9C O 0.3317(15) 0.6847(8) 0.0513(11)
O10C O 0.3239(21) 0.7994(9) 0.1348(26)
O11C O 0.2008(21) 0.6586(9) 0.248(6)
O12C O 0.2195(14) 0.7380(6) -0.0754(17)
O13C O 0.4917(13) 0.7263(12) -0.0834(16)
O14C O 0.3360(17) 0.7513(7) -0.3371(16)
O15C O 0.4867(18) 0.7249(13) -0.3558(18)
P2C P 0.3026(9) 0.6979(4) -0.0795(9)
O16C O 0.2580(13) 0.6530(5) -0.1483(18)
C3C C 0.4101(12) 0.7204(10) -0.1592(14)
C4C C 0.4193(15) 0.7414(9) -0.2841(13)
Ce2D Ce 0.15060(26) 0.77800(12) -0.2496(10)
Ce2E Ce 0.34940(26) 0.27800(12) -0.2496(10)
Ce2F Ce 0.65060(26) 0.72200(12) -0.2496(10)
Ce2G Ce 0.84940(26) 0.22200(12) -0.2496(10)
O12D O 0.2805(14) 0.7620(6) 0.4246(17)
O12G O 0.7195(14) 0.2380(6) 0.4246(17)
O13E O 0.4917(13) 0.2737(12) 0.4166(16)
O13F O 0.5083(13) 0.7263(12) 0.4166(16)
O14D O 0.1640(17) 0.7487(7) 0.1629(16)
O14G O 0.8360(17) 0.2513(7) 0.1629(16)
O15E O 0.4867(18) 0.2751(13) 0.1442(18)
O15F O 0.5133(18) 0.7249(13) 0.1442(18)
O17 O 0.5611(19) 0.1742(10) 0.5024(34)
O18 O 0.5129(30) 0.0737(12) 0.4394(27)
O19 O 0.7141(19) 0.0249(11) 0.3787(22)
O20 O 0.8041(30) 0.5696(12) 0.6070(24)
loop_
_geom_bond_atom_site_label_1
_geom_bond_atom_site_label_2
_geom_bond_site_symmetry_1
_geom_bond_site_symmetry_2
Ce1 O1 1_555 1_555
O1 P1 1_555 1_555
O2 Ce1 1_555 1_555
O3 Ce1 1_555 1_555
O4 Ce1 1_555 1_555
P1 O5 1_555 1_555
C1 O2 1_555 1_555
O6 P1 1_555 1_555
C2 P1 1_555 1_555
O7 C1 1_555 1_555
O8 C2 1_555 1_555
Ce2 O7 1_555 1_555
O9 Ce2 1_555 1_555
O10 Ce2 1_555 1_555
O11 Ce2 1_555 1_555
O12 P2 1_555 1_555
O13 C3 1_555 1_555
O14 C4 1_555 1_555
O15 C4 1_555 1_555
P2 O9 1_555 1_555
O16 P2 1_555 1_555
C3 P2 1_555 1_555
C4 C3 1_555 1_555
O1C Ce1 1_555 1_555
O2C Ce1 1_555 1_555
O3C Ce1 1_555 1_555
O4C Ce1 1_555 1_555
P1C O1C 1_555 1_555
C1C O2C 1_555 1_555
O5C P1C 1_555 1_555
O6C P1C 1_555 1_555
C2C P1C 1_555 1_555
O7C C1C 1_555 1_555
O8C C2C 1_555 1_555
Ce2C O7C 1_555 1_555
O9C Ce2C 1_555 1_555
O10C Ce2C 1_555 1_555
O11C Ce2C 1_555 1_555
O12C P2C 1_555 1_555
O13C C3C 1_555 1_555
O14C C4C 1_555 1_555
O15C C4C 1_555 1_555
P2C O9C 1_555 1_555
O16C P2C 1_555 1_555
C3C P2C 1_555 1_555
C4C C3C 1_555 1_555
Ce2D O12C 1_555 1_555
Ce2E O13 1_555 1_555
Ce2F O13C 1_555 1_555
Ce2G O12 1_555 1_555
O12D Ce2C 1_555 1_555
O12G Ce2 1_555 1_555
O13E Ce2 1_555 1_555
O13F Ce2C 1_555 1_555
O14D Ce2C 1_555 1_555
O14G Ce2 1_555 1_555
O15E Ce2 1_555 1_555
O15F Ce2C 1_555 1_555
C1 C2 1_555 1_555
O8 Ce2 1_555 1_555
O14 Ce2G 1_555 1_555
O15 Ce2E 1_555 1_555
C1C C2C 1_555 1_555
O8C Ce2C 1_555 1_555
O14C Ce2D 1_555 1_555
O15C Ce2F 1_555 1_555

#END
