
#######################################################################
#
#                 Cambridge Crystallographic Data Centre
#                                CCDC 
#
#######################################################################
#
# If this CIF has been generated from an entry in the Cambridge 
# Structural Database, then it will include bibliographic, chemical, 
# crystal, experimental, refinement or atomic coordinate data resulting 
# from the CCDC's data processing and validation procedures.
#
#######################################################################

data_NEZWOG01
_chemical_formula_moiety         '(C8 H35 La3 O36 P4)n'
_symmetry_cell_setting           orthorhombic
_symmetry_space_group_name_H-M   'I b a 2'
_symmetry_Int_Tables_number      45
_space_group_name_Hall           'I 2 -2c'
loop_
_symmetry_equiv_pos_site_id
_symmetry_equiv_pos_as_xyz
1 x,y,z
2 1/2-x,1/2+y,z
3 1/2+x,1/2-y,z
4 -x,-y,z
5 1/2+x,1/2+y,1/2+z
6 -x,y,1/2+z
7 x,-y,1/2+z
8 1/2-x,1/2-y,1/2+z
_cell_length_a                   13.4679(4)
_cell_length_b                   26.8554(5)
_cell_length_c                   11.1155(5)
_cell_angle_alpha                90
_cell_angle_beta                 90
_cell_angle_gamma                90
_cell_volume                     4020.32
loop_
_atom_site_label
_atom_site_type_symbol
_atom_site_fract_x
_atom_site_fract_y
_atom_site_fract_z
La1 La 0.500 0.500 0.5464(13)
La2 La 0.6500(4) 0.27931(9) 0.2620(11)
P1 P 0.6958(14) 0.3016(5) -0.0790(17)
P2 P 0.7104(14) 0.4064(4) 0.5751(19)
O1 O 0.6596(22) 0.2960(9) 0.0513(17)
O2 O 0.7989(15) 0.2767(8) -0.0899(30)
O3 O 0.7151(23) 0.3551(6) -0.1229(31)
C1 C 0.6036(18) 0.2719(14) -0.1728(20)
O4 O 0.5153(20) 0.2726(13) -0.1080(30)
C2 C 0.5975(20) 0.2676(21) -0.3062(20)
O5 O 0.6805(22) 0.2574(10) -0.3556(26)
O6 O 0.5255(24) 0.2704(13) -0.3777(30)
O7 O 0.7521(26) 0.3798(8) 0.6860(24)
O8 O 0.7843(22) 0.4171(8) 0.4709(30)
O9 O 0.6538(18) 0.4537(6) 0.6120(31)
C3 C 0.6218(20) 0.3631(8) 0.5120(20)
O10 O 0.6789(29) 0.3238(7) 0.4635(25)
C4 C 0.5830(23) 0.3937(7) 0.4093(25)
O11 O 0.5531(28) 0.3663(6) 0.3243(23)
O12 O 0.6124(21) 0.4368(7) 0.3803(23)
O13 O 0.620(4) 0.1945(8) 0.142(5)
O14 O 0.8135(27) 0.3409(8) 0.297(6)
O15 O 0.5496(24) 0.5765(8) 0.6348(22)
O16 O 0.5842(19) 0.5733(9) 0.3941(25)
La2C La 0.3500(4) 0.72069(9) 0.2620(11)
P1C P 0.3042(14) 0.6984(5) -0.0790(17)
P2C P 0.2896(14) 0.5936(4) 0.5751(19)
O1C O 0.3404(22) 0.7040(9) 0.0513(17)
O2C O 0.2011(15) 0.7233(8) -0.0899(30)
O3C O 0.2849(23) 0.6449(6) -0.1229(31)
C1C C 0.3964(18) 0.7281(14) -0.1728(20)
O4C O 0.4847(20) 0.7274(13) -0.1080(30)
C2C C 0.4025(20) 0.7324(21) -0.3062(20)
O5C O 0.3195(22) 0.7426(10) -0.3556(26)
O6C O 0.4745(24) 0.7296(13) -0.3777(30)
O7C O 0.2479(26) 0.6202(8) 0.6860(24)
O8C O 0.2157(22) 0.5829(8) 0.4709(30)
O9C O 0.3462(18) 0.5463(6) 0.6120(31)
C3C C 0.3782(20) 0.6369(8) 0.5120(20)
O10C O 0.3211(29) 0.6762(7) 0.4635(25)
C4C C 0.4170(23) 0.6063(7) 0.4093(25)
O11C O 0.4469(28) 0.6337(6) 0.3243(23)
O12C O 0.3876(21) 0.5632(7) 0.3803(23)
O13C O 0.380(4) 0.8055(8) 0.142(5)
O14C O 0.1865(27) 0.6591(8) 0.297(6)
O15C O 0.4504(24) 0.4235(8) 0.6348(22)
O16C O 0.4158(19) 0.4267(9) 0.3941(25)
La2D La 0.1500(4) 0.77931(9) -0.2380(11)
La2E La 0.3500(4) 0.27931(9) -0.2380(11)
La2F La 0.6500(4) 0.72069(9) -0.2380(11)
La2G La 0.8500(4) 0.22069(9) -0.2380(11)
O2D O 0.2989(15) 0.7767(8) 0.4101(30)
O2G O 0.7011(15) 0.2233(8) 0.4101(30)
O4E O 0.4847(20) 0.2726(13) 0.3920(30)
O4F O 0.5153(20) 0.7274(13) 0.3920(30)
O5D O 0.1805(22) 0.7574(10) 0.1444(26)
O5G O 0.8195(22) 0.2426(10) 0.1444(26)
O6E O 0.4745(24) 0.2704(13) 0.1223(30)
O6F O 0.5255(24) 0.7296(13) 0.1223(30)
O17 O 0.5274(27) 0.1723(8) 0.472(5)
O18 O 0.513(4) 0.0786(7) 0.304(7)
O19 O 0.7170(24) 0.0661(10) 0.442(4)
O20 O 0.8072(35) 0.4969(8) 0.625(4)
loop_
_geom_bond_atom_site_label_1
_geom_bond_atom_site_label_2
_geom_bond_site_symmetry_1
_geom_bond_site_symmetry_2
La1 O9 1_555 1_555
La2 O1 1_555 1_555
P1 O1 1_555 1_555
P2 O7 1_555 1_555
O2 P1 1_555 1_555
O3 P1 1_555 1_555
C1 P1 1_555 1_555
O4 C1 1_555 1_555
C2 C1 1_555 1_555
O5 C2 1_555 1_555
O6 C2 1_555 1_555
O8 P2 1_555 1_555
O9 P2 1_555 1_555
C3 P2 1_555 1_555
O10 La2 1_555 1_555
C4 C3 1_555 1_555
O11 La2 1_555 1_555
O12 La1 1_555 1_555
O13 La2 1_555 1_555
O14 La2 1_555 1_555
O15 La1 1_555 1_555
O16 La1 1_555 1_555
La2C O1C 1_555 1_555
P1C O1C 1_555 1_555
P2C O7C 1_555 1_555
O2C P1C 1_555 1_555
O3C P1C 1_555 1_555
C1C P1C 1_555 1_555
O4C C1C 1_555 1_555
C2C C1C 1_555 1_555
O5C C2C 1_555 1_555
O6C C2C 1_555 1_555
O8C P2C 1_555 1_555
O9C La1 1_555 1_555
C3C P2C 1_555 1_555
O10C La2C 1_555 1_555
C4C C3C 1_555 1_555
O11C La2C 1_555 1_555
O12C La1 1_555 1_555
O13C La2C 1_555 1_555
O14C La2C 1_555 1_555
O15C La1 1_555 1_555
O16C La1 1_555 1_555
La2D O2C 1_555 1_555
La2E O4 1_555 1_555
La2F O4C 1_555 1_555
La2G O2 1_555 1_555
O2D La2C 1_555 1_555
O2G La2 1_555 1_555
O4E La2 1_555 1_555
O4F La2C 1_555 1_555
O5D La2C 1_555 1_555
O5G La2 1_555 1_555
O6E La2 1_555 1_555
O6F La2C 1_555 1_555
O5 La2G 1_555 1_555
O6 La2E 1_555 1_555
C3 O10 1_555 1_555
C4 O11 1_555 1_555
C4 O12 1_555 1_555
P2C O9C 1_555 1_555
O5C La2D 1_555 1_555
O6C La2F 1_555 1_555
C3C O10C 1_555 1_555
C4C O11C 1_555 1_555
C4C O12C 1_555 1_555

#END
