
#######################################################################
#
#                 Cambridge Crystallographic Data Centre
#                                CCDC 
#
#######################################################################
#
# If this CIF has been generated from an entry in the Cambridge 
# Structural Database, then it will include bibliographic, chemical, 
# crystal, experimental, refinement or atomic coordinate data resulting 
# from the CCDC's data processing and validation procedures.
#
#######################################################################

data_TIDMEA
_chemical_formula_moiety         '(C8 H35 O36 P4 Pr3)n'
_symmetry_cell_setting           orthorhombic
_symmetry_space_group_name_H-M   'I b a 2'
_symmetry_Int_Tables_number      45
_space_group_name_Hall           'I 2 -2c'
loop_
_symmetry_equiv_pos_site_id
_symmetry_equiv_pos_as_xyz
1 x,y,z
2 1/2-x,1/2+y,z
3 1/2+x,1/2-y,z
4 -x,-y,z
5 1/2+x,1/2+y,1/2+z
6 -x,y,1/2+z
7 x,-y,1/2+z
8 1/2-x,1/2-y,1/2+z
_cell_length_a                   13.3554(4)
_cell_length_b                   26.5397(7)
_cell_length_c                   11.01297(30)
_cell_angle_alpha                90
_cell_angle_beta                 90
_cell_angle_gamma                90
_cell_volume                     3903.53
loop_
_atom_site_label
_atom_site_type_symbol
_atom_site_fract_x
_atom_site_fract_y
_atom_site_fract_z
Pr1 Pr 0.500 0.500 0.5179(8)
Pr2 Pr 0.65259(29) 0.27880(14) 0.2359(7)
P1 P 0.6841(11) 0.3055(5) -0.0909(12)
P2 P 0.7034(10) 0.4107(5) 0.5635(13)
O1 O 0.6373(19) 0.3092(9) 0.0356(13)
O2 O 0.7868(13) 0.2792(9) -0.0887(24)
O3 O 0.6992(22) 0.3567(6) -0.1539(22)
C1 C 0.5941(14) 0.2714(11) -0.1844(17)
O4 O 0.5061(16) 0.2710(14) -0.1157(24)
C2 C 0.5854(17) 0.2618(13) -0.3186(16)
O5 O 0.6699(19) 0.2529(9) -0.3725(19)
O6 O 0.5206(19) 0.2810(15) -0.3902(23)
O7 O 0.7572(19) 0.3774(8) 0.6565(20)
O8 O 0.7742(17) 0.4248(9) 0.4577(21)
O9 O 0.6615(14) 0.4587(6) 0.6227(20)
C3 C 0.6027(14) 0.3733(7) 0.4991(14)
O10 O 0.6467(23) 0.3277(6) 0.4569(21)
C4 C 0.5478(14) 0.3928(7) 0.3847(18)
O11 O 0.5565(25) 0.3576(7) 0.3033(16)
O12 O 0.5884(14) 0.4338(7) 0.3487(17)
O13 O 0.6195(26) 0.1980(12) 0.1256(29)
O14 O 0.8004(24) 0.3470(11) 0.253(5)
O15 O 0.5287(17) 0.5851(10) 0.6057(16)
O16 O 0.6134(12) 0.5525(8) 0.3935(18)
Pr2C Pr 0.34741(29) 0.72120(14) 0.2359(7)
P1C P 0.3159(11) 0.6945(5) -0.0909(12)
P2C P 0.2966(10) 0.5893(5) 0.5635(13)
O1C O 0.3627(19) 0.6908(9) 0.0356(13)
O2C O 0.2132(13) 0.7208(9) -0.0887(24)
O3C O 0.3008(22) 0.6433(6) -0.1539(22)
C1C C 0.4059(14) 0.7286(11) -0.1844(17)
O4C O 0.4939(16) 0.7290(14) -0.1157(24)
C2C C 0.4146(17) 0.7382(13) -0.3186(16)
O5C O 0.3301(19) 0.7471(9) -0.3725(19)
O6C O 0.4794(19) 0.7190(15) -0.3902(23)
O7C O 0.2428(19) 0.6226(8) 0.6565(20)
O8C O 0.2258(17) 0.5752(9) 0.4577(21)
O9C O 0.3385(14) 0.5413(6) 0.6227(20)
C3C C 0.3973(14) 0.6267(7) 0.4991(14)
O10C O 0.3533(23) 0.6723(6) 0.4569(21)
C4C C 0.4522(14) 0.6072(7) 0.3847(18)
O11C O 0.4435(25) 0.6424(7) 0.3033(16)
O12C O 0.4116(14) 0.5662(7) 0.3487(17)
O13C O 0.3805(26) 0.8020(12) 0.1256(29)
O14C O 0.1996(24) 0.6530(11) 0.253(5)
O15C O 0.4713(17) 0.4149(10) 0.6057(16)
O16C O 0.3866(12) 0.4475(8) 0.3935(18)
Pr2D Pr 0.15259(29) 0.77880(14) -0.2641(7)
Pr2E Pr 0.34741(29) 0.27880(14) -0.2641(7)
Pr2F Pr 0.65259(29) 0.72120(14) -0.2641(7)
Pr2G Pr 0.84741(29) 0.22120(14) -0.2641(7)
O2D O 0.2868(13) 0.7792(9) 0.4113(24)
O2G O 0.7132(13) 0.2208(9) 0.4113(24)
O4E O 0.4939(16) 0.2710(14) 0.3843(24)
O4F O 0.5061(16) 0.7290(14) 0.3843(24)
O5D O 0.1699(19) 0.7529(9) 0.1275(19)
O5G O 0.8301(19) 0.2471(9) 0.1275(19)
O6E O 0.4794(19) 0.2810(15) 0.1098(23)
O6F O 0.5206(19) 0.7190(15) 0.1098(23)
O17 O 0.5594(20) 0.1616(10) 0.5143(34)
O18 O 0.5603(28) 0.0538(12) 0.4690(34)
O19 O 0.7369(24) 0.0501(11) 0.5732(28)
O20 O 0.8563(28) 0.4733(10) 0.6998(28)
loop_
_geom_bond_atom_site_label_1
_geom_bond_atom_site_label_2
_geom_bond_site_symmetry_1
_geom_bond_site_symmetry_2
Pr1 O9 1_555 1_555
Pr2 O1 1_555 1_555
P1 O1 1_555 1_555
P2 O7 1_555 1_555
O2 P1 1_555 1_555
O3 P1 1_555 1_555
C1 P1 1_555 1_555
O4 C1 1_555 1_555
C2 C1 1_555 1_555
O5 C2 1_555 1_555
O6 C2 1_555 1_555
O8 P2 1_555 1_555
O9 P2 1_555 1_555
C3 P2 1_555 1_555
O10 Pr2 1_555 1_555
C4 C3 1_555 1_555
O11 Pr2 1_555 1_555
O12 Pr1 1_555 1_555
O13 Pr2 1_555 1_555
O14 Pr2 1_555 1_555
O15 Pr1 1_555 1_555
O16 Pr1 1_555 1_555
Pr2C O1C 1_555 1_555
P1C O1C 1_555 1_555
P2C O7C 1_555 1_555
O2C P1C 1_555 1_555
O3C P1C 1_555 1_555
C1C P1C 1_555 1_555
O4C C1C 1_555 1_555
C2C C1C 1_555 1_555
O5C C2C 1_555 1_555
O6C C2C 1_555 1_555
O8C P2C 1_555 1_555
O9C Pr1 1_555 1_555
C3C P2C 1_555 1_555
O10C Pr2C 1_555 1_555
C4C C3C 1_555 1_555
O11C Pr2C 1_555 1_555
O12C Pr1 1_555 1_555
O13C Pr2C 1_555 1_555
O14C Pr2C 1_555 1_555
O15C Pr1 1_555 1_555
O16C Pr1 1_555 1_555
Pr2D O2C 1_555 1_555
Pr2E O4 1_555 1_555
Pr2F O4C 1_555 1_555
Pr2G O2 1_555 1_555
O2D Pr2C 1_555 1_555
O2G Pr2 1_555 1_555
O4E Pr2 1_555 1_555
O4F Pr2C 1_555 1_555
O5D Pr2C 1_555 1_555
O5G Pr2 1_555 1_555
O6E Pr2 1_555 1_555
O6F Pr2C 1_555 1_555
O5 Pr2G 1_555 1_555
O6 Pr2E 1_555 1_555
C3 O10 1_555 1_555
C4 O11 1_555 1_555
C4 O12 1_555 1_555
P2C O9C 1_555 1_555
O5C Pr2D 1_555 1_555
O6C Pr2F 1_555 1_555
C3C O10C 1_555 1_555
C4C O11C 1_555 1_555
C4C O12C 1_555 1_555

#END
