
#######################################################################
#
#                 Cambridge Crystallographic Data Centre
#                                CCDC 
#
#######################################################################
#
# If this CIF has been generated from an entry in the Cambridge 
# Structural Database, then it will include bibliographic, chemical, 
# crystal, experimental, refinement or atomic coordinate data resulting 
# from the CCDC's data processing and validation procedures.
#
#######################################################################

data_XULCIR
_chemical_formula_moiety         '(C52 H44 Fe2 Mn3 N20 O6)n'
_symmetry_cell_setting           orthorhombic
_symmetry_space_group_name_H-M   'P b a m'
_symmetry_Int_Tables_number      55
_space_group_name_Hall           '-P 2 2ab'
loop_
_symmetry_equiv_pos_site_id
_symmetry_equiv_pos_as_xyz
1 x,y,z
2 -x,-y,z
3 1/2+x,1/2-y,-z
4 1/2-x,1/2+y,-z
5 -x,-y,-z
6 x,y,-z
7 1/2-x,1/2+y,z
8 1/2+x,1/2-y,z
_cell_length_a                   16.3148(8)
_cell_length_b                   17.8861(11)
_cell_length_c                   11.6284(6)
_cell_angle_alpha                90
_cell_angle_beta                 90
_cell_angle_gamma                90
_cell_volume                     3393.26
loop_
_atom_site_label
_atom_site_type_symbol
_atom_site_fract_x
_atom_site_fract_y
_atom_site_fract_z
C1 C 0.8027(2) 0.0984(2) 0.3310(4)
C2 C 0.8356(3) -0.0038(3) 0.5000
C3 C 0.6897(3) 0.0663(3) 0.5000
C4 C 0.7616(3) 0.2019(3) 0.5000
C5 C 0.9144(3) 0.1326(3) 0.5000
C6 C 0.8561(2) -0.2391(2) 0.7558(3)
H1 H 0.8279 -0.2761 0.7160
C7 C 0.8582(3) -0.2433(2) 0.8735(3)
H2 H 0.8321 -0.2824 0.9114
C8 C 0.9325(3) -0.1334(3) 0.7545(3)
H3 H 0.9588 -0.0955 0.7141
C9 C 0.9375(3) -0.1331(3) 0.8729(3)
H4 H 0.9664 -0.0955 0.9103
C10 C 0.8994(2) -0.1888(2) 0.9359(3)
C11 C 0.5431(3) 0.0477(3) 0.2449(4)
H5 H 0.5747 0.0824 0.2845
C12 C 0.5446(3) 0.0497(3) 0.1265(4)
H6 H 0.5764 0.0853 0.0890
C13 C 0.5000 -0.0000 0.0641(4)
N1 N 0.8022(2) 0.0977(2) 0.2318(3)
N2 N 0.8515(3) -0.0662(3) 0.5000
N3 N 0.6217(3) 0.0500(2) 0.5000
N4 N 0.7294(3) 0.2594(3) 0.5000
N5 N 0.89208(19) -0.18530(18) 0.6950(3)
N6 N 0.5000 -0.0000 0.3052(4)
N8 N 0.9809(3) 0.1514(3) 0.5000
O1 O 0.9378(2) -0.2966(2) 0.5000
H11 H 0.9894 -0.3136 0.5000
H12 H 0.8982 -0.3308 0.5000
O2 O 0.4324(2) 0.11049(19) 0.5000
H13 H 0.4013 0.1232 0.4335
Mn1 Mn 0.88958(5) -0.18173(4) 0.5000
Mn2 Mn 0.5000 -0.0000 0.5000
Fe1 Fe 0.80206(5) 0.09956(4) 0.5000
C1E C 0.8027(2) 0.0984(2) 0.6690(4)
C1A C 0.1973(2) -0.0984(2) 0.3310(4)
C1D C 0.1973(2) -0.0984(2) 0.6690(4)
C2A C 0.1644(3) 0.0038(3) 0.5000
C3A C 0.3103(3) -0.0663(3) 0.5000
C4A C 0.2384(3) -0.2019(3) 0.5000
C5A C 0.0856(3) -0.1326(3) 0.5000
C6E C 0.8561(2) -0.2391(2) 1.2442(3)
C6E_2 C 0.8561(2) -0.2391(2) 0.2442(3)
C6_2 C 0.8561(2) -0.2391(2) -0.2442(3)
H1E H 0.8279 -0.2761 1.2840
H1E_2 H 0.8279 -0.2761 0.2840
H1_2 H 0.8279 -0.2761 -0.2840
C7E C 0.8582(3) -0.2433(2) 1.1265(3)
C7E_2 C 0.8582(3) -0.2433(2) 0.1265(3)
C7_2 C 0.8582(3) -0.2433(2) -0.1265(3)
H2E H 0.8321 -0.2824 1.0886
H2E_2 H 0.8321 -0.2824 0.0886
H2_2 H 0.8321 -0.2824 -0.0886
C8E C 0.9325(3) -0.1334(3) 1.2455(3)
C8E_2 C 0.9325(3) -0.1334(3) 0.2455(3)
C8_2 C 0.9325(3) -0.1334(3) -0.2455(3)
H3E H 0.9588 -0.0955 1.2859
H3E_2 H 0.9588 -0.0955 0.2859
H3_2 H 0.9588 -0.0955 -0.2859
C9E C 0.9375(3) -0.1331(3) 1.1271(3)
C9E_2 C 0.9375(3) -0.1331(3) 0.1271(3)
C9_2 C 0.9375(3) -0.1331(3) -0.1271(3)
H4E H 0.9664 -0.0955 1.0897
H4E_2 H 0.9664 -0.0955 0.0897
H4_2 H 0.9664 -0.0955 -0.0897
C10E C 0.8994(2) -0.1888(2) 1.0641(3)
C10E_2 C 0.8994(2) -0.1888(2) 0.0641(3)
C10_2 C 0.8994(2) -0.1888(2) -0.0641(3)
C11A C 0.4569(3) -0.0477(3) 0.2449(4)
C11D C 0.4569(3) -0.0477(3) -0.2449(4)
C11E C 0.5431(3) 0.0477(3) -0.2449(4)
H5A H 0.4253 -0.0824 0.2845
H5D H 0.4253 -0.0824 -0.2845
H5E H 0.5747 0.0824 -0.2845
C12A C 0.4554(3) -0.0497(3) 0.1265(4)
C12D C 0.4554(3) -0.0497(3) -0.1265(4)
C12E C 0.5446(3) 0.0497(3) -0.1265(4)
H6A H 0.4236 -0.0853 0.0890
H6E H 0.5764 0.0853 -0.0890
H6D H 0.4236 -0.0853 -0.0890
C13D C 0.5000 0.0000 -0.0641(4)
N1E N 0.8022(2) 0.0977(2) 0.7682(3)
N1A N 0.1978(2) -0.0977(2) 0.2318(3)
N1D N 0.1978(2) -0.0977(2) 0.7682(3)
N2A N 0.1485(3) 0.0662(3) 0.5000
N3A N 0.3783(3) -0.0500(2) 0.5000
N4A N 0.2706(3) -0.2594(3) 0.5000
N4C N 0.7706(3) -0.2406(3) 0.5000
N4B N 0.2294(3) 0.2406(3) 0.5000
N5E N 0.89208(19) -0.18530(18) 1.3050(3)
N5E_2 N 0.89208(19) -0.18530(18) 0.3050(3)
N5_2 N 0.89208(19) -0.18530(18) -0.3050(3)
N5A N 0.10792(19) 0.18530(18) 0.6950(3)
N5D N 0.10792(19) 0.18530(18) 0.3050(3)
N6D N 0.5000 0.0000 -0.3052(4)
N6D_2 N 0.5000 -0.0000 0.6948(4)
N8A N 0.0191(3) -0.1514(3) 0.5000
N8A_2 N 1.0191(3) -0.1514(3) 0.5000
N8_2 N -0.0191(3) 0.1514(3) 0.5000
O1A O 0.0622(2) 0.2966(2) 0.5000
H11A H 0.0106 0.3136 0.5000
H12A H 0.1018 0.3308 0.5000
O2A O 0.5676(2) -0.11049(19) 0.5000
H13E H 0.4013 0.1232 0.5665
H13A H 0.5987 -0.1232 0.4335
H13D H 0.5987 -0.1232 0.5665
Mn1A Mn 0.11042(5) 0.18173(4) 0.5000
Mn1C Mn 0.61042(5) 0.31827(4) 0.5000
Mn1A_2 Mn 1.11042(5) 0.18173(4) 0.5000
Mn1_2 Mn 0.88958(5) -0.18173(4) 1.5000
Mn1B Mn 0.38958(5) -0.31827(4) 0.5000
Mn1_3 Mn -0.11042(5) -0.18173(4) 0.5000
Mn1_4 Mn 0.88958(5) -0.18173(4) -0.5000
Mn2_2 Mn 0.5000 0.0000 -0.5000
Fe1A Fe 0.19794(5) -0.09956(4) 0.5000
C14 C 0.3796(3) 0.1984(3) 0.2442(4)
H7 H 0.4057 0.2366 0.2843
C15 C 0.3743(3) 0.2049(3) 0.1270(4)
H8 H 0.3972 0.2461 0.0903
C16 C 0.3091(3) 0.0920(3) 0.2449(4)
H9 H 0.2845 0.0531 0.2852
C17 C 0.2999(3) 0.0939(3) 0.1269(4)
H10 H 0.2700 0.0567 0.0898
C18 C 0.3353(2) 0.1510(2) 0.0638(3)
N7 N 0.3505(2) 0.1421(2) 0.3037(3)
C14E C 0.3796(3) 0.1984(3) -0.2442(4)
H7E H 0.4057 0.2366 -0.2843
C15E C 0.3743(3) 0.2049(3) -0.1270(4)
H8E H 0.3972 0.2461 -0.0903
C16E C 0.3091(3) 0.0920(3) -0.2449(4)
H9E H 0.2845 0.0531 -0.2852
C17E C 0.2999(3) 0.0939(3) -0.1269(4)
H10E H 0.2700 0.0567 -0.0898
C18E C 0.3353(2) 0.1510(2) -0.0638(3)
N7E N 0.3505(2) 0.1421(2) -0.3037(3)
O3 O 0.7297(3) 0.1012(2) 0.0000
O4 O 0.9042(7) 0.0437(6) 0.0000
loop_
_geom_bond_atom_site_label_1
_geom_bond_atom_site_label_2
_geom_bond_site_symmetry_1
_geom_bond_site_symmetry_2
C1 N1 1_555 1_555
C2 N2 1_555 1_555
C3 N3 1_555 1_555
C4 N4 1_555 1_555
C5 N8 1_555 1_555
C6 H1 1_555 1_555
C7 C6 1_555 1_555
H2 C7 1_555 1_555
C8 H3 1_555 1_555
C9 C8 1_555 1_555
H4 C9 1_555 1_555
C10 C7 1_555 1_555
C11 H5 1_555 1_555
C12 C11 1_555 1_555
H6 C12 1_555 1_555
C13 C12 1_555 1_555
C14 H7 1_555 1_555
C15 C14 1_555 1_555
H8 C15 1_555 1_555
C16 H9 1_555 1_555
C17 C16 1_555 1_555
H10 C17 1_555 1_555
C18 C15 1_555 1_555
N2 Mn1 1_555 1_555
N3 Mn2 1_555 1_555
N4 Mn1C 1_555 1_555
N5 C6 1_555 1_555
N6 C11 1_555 1_555
N7 C14 1_555 1_555
N8 Mn1A_2 1_555 1_555
O1 H11 1_555 1_555
H12 O1 1_555 1_555
O2 H13 1_555 1_555
Mn1 N5 1_555 1_555
Mn2 N6 1_555 1_555
Fe1 C1 1_555 1_555
C1E Fe1 1_555 1_555
C1A N1A 1_555 1_555
C1D N1D 1_555 1_555
C2A N2A 1_555 1_555
C3A N3A 1_555 1_555
C4A N4A 1_555 1_555
C5A N8A 1_555 1_555
C6E H1E 1_555 1_555
C6E_2 H1E_2 1_555 1_555
C6_2 H1_2 1_555 1_555
C7E C6E 1_555 1_555
C7E_2 C6E_2 1_555 1_555
C7_2 C6_2 1_555 1_555
H2E C7E 1_555 1_555
H2E_2 C7E_2 1_555 1_555
H2_2 C7_2 1_555 1_555
C8E H3E 1_555 1_555
C8E_2 H3E_2 1_555 1_555
C8_2 H3_2 1_555 1_555
C9E C8E 1_555 1_555
C9E_2 C8E_2 1_555 1_555
C9_2 C8_2 1_555 1_555
H4E C9E 1_555 1_555
H4E_2 C9E_2 1_555 1_555
H4_2 C9_2 1_555 1_555
C10E C10 1_555 1_555
C10E_2 C7E_2 1_555 1_555
C10_2 C7_2 1_555 1_555
C11A N6 1_555 1_555
C11D H5D 1_555 1_555
C11E H5E 1_555 1_555
H5A C11A 1_555 1_555
C12A C13 1_555 1_555
C12D C11D 1_555 1_555
C12E C11E 1_555 1_555
H6A C12A 1_555 1_555
H6E C12E 1_555 1_555
H6D C12D 1_555 1_555
C13D C13 1_555 1_555
C14E H7E 1_555 1_555
C15E C14E 1_555 1_555
H8E C15E 1_555 1_555
C16E H9E 1_555 1_555
C17E C16E 1_555 1_555
H10E C17E 1_555 1_555
C18E C18 1_555 1_555
N1E C1E 1_555 1_555
N2A Mn1A 1_555 1_555
N3A Mn2 1_555 1_555
N4A Mn1B 1_555 1_555
N4C Mn1 1_555 1_555
N4B Mn1A 1_555 1_555
N5E C6E 1_555 1_555
N5E_2 Mn1 1_555 1_555
N5_2 C6_2 1_555 1_555
N5A Mn1A 1_555 1_555
N5D Mn1A 1_555 1_555
N6D C11D 1_555 1_555
N6D_2 Mn2 1_555 1_555
N7E C14E 1_555 1_555
N8A Mn1_3 1_555 1_555
N8A_2 Mn1 1_555 1_555
N8_2 Mn1A 1_555 1_555
O1A H11A 1_555 1_555
H12A O1A 1_555 1_555
O2A Mn2 1_555 1_555
H13E O2 1_555 1_555
H13A O2A 1_555 1_555
H13D O2A 1_555 1_555
Mn1A O1A 1_555 1_555
Mn1_2 N5E 1_555 1_555
Mn1_4 N5_2 1_555 1_555
Mn2_2 N6D 1_555 1_555
Fe1A C1A 1_555 1_555
C2 Fe1 1_555 1_555
C3 Fe1 1_555 1_555
C4 Fe1 1_555 1_555
C5 Fe1 1_555 1_555
C8 N5 1_555 1_555
C9 C10 1_555 1_555
C16 N7 1_555 1_555
C17 C18 1_555 1_555
O1 Mn1 1_555 1_555
O2 Mn2 1_555 1_555
C1D Fe1A 1_555 1_555
C2A Fe1A 1_555 1_555
C3A Fe1A 1_555 1_555
C4A Fe1A 1_555 1_555
C5A Fe1A 1_555 1_555
C6E_2 N5E_2 1_555 1_555
C7E C10E 1_555 1_555
C8E N5E 1_555 1_555
C8E_2 N5E_2 1_555 1_555
C8_2 N5_2 1_555 1_555
C9E C10E 1_555 1_555
C9E_2 C10E_2 1_555 1_555
C9_2 C10_2 1_555 1_555
C10E_2 C10_2 1_555 1_555
C11A C12A 1_555 1_555
C11E N6D 1_555 1_555
C12D C13D 1_555 1_555
C12E C13D 1_555 1_555
C15E C18E 1_555 1_555
C16E N7E 1_555 1_555
C17E C18E 1_555 1_555

#END
