
#######################################################################
#
#                 Cambridge Crystallographic Data Centre
#                                CCDC 
#
#######################################################################
#
# If this CIF has been generated from an entry in the Cambridge 
# Structural Database, then it will include bibliographic, chemical, 
# crystal, experimental, refinement or atomic coordinate data resulting 
# from the CCDC's data processing and validation procedures.
#
#######################################################################

data_COMFAM01
_chemical_formula_moiety         '(C26 H20 Cd1 N4 S2)n'
_symmetry_cell_setting           rhombohedral
_symmetry_space_group_name_H-M   'R -3 m'
_symmetry_Int_Tables_number      166
_space_group_name_Hall           '-R 3 2"'
loop_
_symmetry_equiv_pos_site_id
_symmetry_equiv_pos_as_xyz
1 x,y,z
2 -y,x-y,z
3 -x+y,-x,z
4 y,x,-z
5 2/3+x,1/3+y,1/3+z
6 2/3-y,1/3+x-y,1/3+z
7 2/3-x+y,1/3-x,1/3+z
8 2/3+y,1/3+x,1/3-z
9 1/3+x,2/3+y,2/3+z
10 1/3+y,2/3+x,2/3-z
11 x-y,-y,-z
12 -x,-x+y,-z
13 1/3-y,2/3+x-y,2/3+z
14 1/3-x+y,2/3-x,2/3+z
15 1/3+x-y,2/3-y,2/3-z
16 1/3-x,2/3-x+y,2/3-z
17 2/3+x-y,1/3-y,1/3-z
18 2/3-x,1/3-x+y,1/3-z
19 -x,-y,-z
20 y,-x+y,-z
21 x-y,x,-z
22 -y,-x,z
23 1/3-x,2/3-y,2/3-z
24 1/3+y,2/3-x+y,2/3-z
25 1/3+x-y,2/3+x,2/3-z
26 1/3-y,2/3-x,2/3+z
27 2/3-x,1/3-y,1/3-z
28 2/3-y,1/3-x,1/3+z
29 -x+y,y,z
30 x,x-y,z
31 2/3+y,1/3-x+y,1/3-z
32 2/3+x-y,1/3+x,1/3-z
33 2/3-x+y,1/3+y,1/3+z
34 2/3+x,1/3+x-y,1/3+z
35 1/3-x+y,2/3+y,2/3+z
36 1/3+x,2/3+x-y,2/3+z
_cell_length_a                   27.012(2)
_cell_length_b                   27.012(2)
_cell_length_c                   13.3298(17)
_cell_angle_alpha                90
_cell_angle_beta                 90
_cell_angle_gamma                120.00
_cell_volume                     8423.02
loop_
_atom_site_label
_atom_site_type_symbol
_atom_site_fract_x
_atom_site_fract_y
_atom_site_fract_z
_atom_site_U_iso_or_equiv
_atom_site_thermal_displace_type
Cd1 Cd 0.3333 0.1667 0.6667 0.0247 Uani
S1 S 0.38947(5) 0.19473(2) 0.83123(7) 0.0324 Uani
N1 N 0.38974(11) 0.26421(11) 0.6049(2) 0.0362 Uani
C1 C 0.52513(9) 0.47487(9) 0.5511(3) 0.0368 Uani
H1 H 0.5422 0.4578 0.5867 0.0440 Uiso
C2 C 0.46760(12) 0.44187(13) 0.5256(2) 0.0351 Uani
C3 C 0.43847(12) 0.37990(13) 0.5522(2) 0.0347 Uani
C4 C 0.40647(17) 0.33664(15) 0.4849(3) 0.0511 Uani
H2 H 0.4001 0.3456 0.4206 0.0610 Uiso
C5 C 0.38379(16) 0.27990(15) 0.5127(3) 0.0483 Uani
H3 H 0.3636 0.2516 0.4652 0.0580 Uiso
C6 C 0.42017(16) 0.30592(13) 0.6703(2) 0.0443 Uani
H4 H 0.4248 0.2957 0.7347 0.0530 Uiso
C7 C 0.44527(15) 0.36360(13) 0.6479(2) 0.0433 Uani
H5 H 0.4664 0.3910 0.6961 0.0520 Uiso
Cd1C Cd 0.1667 0.3333 0.3333 0.0247 Uani
Cd1H Cd 0.6666 0.8334 0.3334 0.0247 Uani
Cd1B Cd 0.8334 0.6667 0.6667 0.0247 Uani
S1Z S 0.27720(5) 0.13860(2) 0.50210(7) 0.0324 Uani
N1CA N 0.38974(11) 0.12553(16) 0.6049(2) 0.0362 Uani
N1Z N 0.27693(11) 0.06912(11) 0.7284(2) 0.0362 Uani
N1Q N 0.27693(11) 0.20780(16) 0.7284(2) 0.0362 Uani
N1C N 0.26421(11) 0.38974(11) 0.3951(2) 0.0362 Uani
N1R N 0.61026(11) 0.73579(11) 0.3951(2) 0.0362 Uani
N1U N 0.73579(11) 0.61026(11) 0.6049(2) 0.0362 Uani
C1C C 0.47487(9) 0.52513(9) 0.4489(3) 0.0368 Uani
H1C H 0.4578 0.5422 0.4133 0.0440 Uiso
C2U C 0.55813(13) 0.53240(12) 0.5256(2) 0.0351 Uani
C2C C 0.44187(13) 0.46760(12) 0.4744(2) 0.0351 Uani
C2R C 0.53240(12) 0.55813(13) 0.4744(2) 0.0351 Uani
C3U C 0.62010(13) 0.56153(12) 0.5522(2) 0.0347 Uani
C3C C 0.37990(13) 0.43847(12) 0.4478(2) 0.0347 Uani
C3R C 0.56153(12) 0.62010(13) 0.4478(2) 0.0347 Uani
C4U C 0.66336(15) 0.59353(17) 0.4849(3) 0.0511 Uani
C4C C 0.33664(15) 0.40647(17) 0.5151(3) 0.0511 Uani
C4R C 0.59353(17) 0.66336(15) 0.5151(3) 0.0511 Uani
H2C H 0.3456 0.4001 0.5794 0.0610 Uiso
H2U H 0.6544 0.5999 0.4206 0.0610 Uiso
H2R H 0.5999 0.6544 0.5794 0.0610 Uiso
C5C C 0.27990(15) 0.38379(16) 0.4873(3) 0.0483 Uani
C5U C 0.72010(15) 0.61621(16) 0.5127(3) 0.0483 Uani
C5R C 0.61621(16) 0.72010(15) 0.4873(3) 0.0483 Uani
H3C H 0.2516 0.3636 0.5348 0.0580 Uiso
H3R H 0.6364 0.7484 0.5348 0.0580 Uiso
H3U H 0.7484 0.6364 0.4652 0.0580 Uiso
C6C C 0.30592(13) 0.42017(16) 0.3297(2) 0.0443 Uani
C6U C 0.69408(13) 0.57983(16) 0.6703(2) 0.0443 Uani
C6R C 0.57983(16) 0.69408(13) 0.3297(2) 0.0443 Uani
H4C H 0.2957 0.4248 0.2653 0.0530 Uiso
H4R H 0.5752 0.7043 0.2653 0.0530 Uiso
H4U H 0.7043 0.5752 0.7347 0.0530 Uiso
C7U C 0.63640(13) 0.55473(15) 0.6479(2) 0.0433 Uani
C7C C 0.36360(13) 0.44527(15) 0.3521(2) 0.0433 Uani
C7R C 0.55473(15) 0.63640(13) 0.3521(2) 0.0433 Uani
H5C H 0.3910 0.4664 0.3039 0.0520 Uiso
H5U H 0.6090 0.5336 0.6961 0.0520 Uiso
H5R H 0.5336 0.6090 0.3039 0.0520 Uiso
loop_
_atom_site_aniso_label
_atom_site_aniso_U_11
_atom_site_aniso_U_22
_atom_site_aniso_U_33
_atom_site_aniso_U_23
_atom_site_aniso_U_13
_atom_site_aniso_U_12
Cd1 0.0286(2) 0.0187(2) 0.0300(3) -0.00172(6) -0.00345(12) 0.01428(12)
S1 0.0433(6) 0.0267(3) 0.0326(5) -0.00659(19) -0.0132(4) 0.0216(3)
N1 0.0386(13) 0.0219(11) 0.0388(13) 0.0034(10) -0.0045(10) 0.0082(10)
C1 0.0264(13) 0.0264(13) 0.048(2) 0.0089(9) -0.0089(9) 0.0060(16)
C2 0.0259(13) 0.0231(13) 0.0440(16) 0.0060(12) -0.0039(11) 0.0031(10)
C3 0.0275(13) 0.0222(13) 0.0425(16) 0.0064(12) -0.0044(10) 0.0034(10)
C4 0.060(2) 0.0294(16) 0.0385(16) 0.0073(13) -0.0164(15) 0.0034(15)
C5 0.057(2) 0.0248(15) 0.0418(17) 0.0000(13) -0.0135(14) 0.0044(14)
C6 0.0552(19) 0.0244(14) 0.0375(15) 0.0048(11) -0.0092(14) 0.0081(14)
C7 0.0503(18) 0.0251(14) 0.0383(15) 0.0009(11) -0.0112(14) 0.0066(13)
Cd1C 0.0187 0.0286 0.03 0.00345 0.00172 0.01428
Cd1H 0.0286 0.01874 0.03 -0.00173 -0.00345 0.01432
Cd1B 0.01874 0.0286 0.03 0.00345 0.00173 0.01432
S1Z 0.0433 0.0268 0.0326 -0.00661 -0.0132 0.0217
N1CA 0.0386 0.0441 0.0388 -0.0079 -0.0045 0.0304
N1Z 0.0386 0.0219 0.0388 0.0034 -0.0045 0.0082
N1Q 0.0386 0.0441 0.0388 -0.0079 -0.0045 0.0304
N1C 0.0219 0.0386 0.0388 0.0045 -0.0034 0.0082
N1R 0.0386 0.0219 0.0388 0.0034 -0.0045 0.0082
N1U 0.0219 0.0386 0.0388 0.0045 -0.0034 0.0082
C1C 0.0264 0.0264 0.048 0.0089 -0.0089 0.006
C2U 0.0231 0.0259 0.044 0.0039 -0.006 0.0031
C2C 0.0231 0.0259 0.044 0.0039 -0.006 0.0031
C2R 0.0259 0.0231 0.044 0.006 -0.0039 0.0031
C3U 0.0222 0.0275 0.0425 0.0044 -0.0064 0.0034
C3C 0.0222 0.0275 0.0425 0.0044 -0.0064 0.0034
C3R 0.0275 0.0222 0.0425 0.0064 -0.0044 0.0034
C4U 0.0294 0.06 0.0385 0.0164 -0.0073 0.0034
C4C 0.0294 0.06 0.0385 0.0164 -0.0073 0.0034
C4R 0.06 0.0294 0.0385 0.0073 -0.0164 0.0034
C5C 0.0248 0.057 0.0418 0.0135 0 0.0044
C5U 0.0248 0.057 0.0418 0.0135 0 0.0044
C5R 0.057 0.0248 0.0418 0 -0.0135 0.0044
C6C 0.0244 0.0552 0.0375 0.0092 -0.0048 0.0081
C6U 0.0244 0.0552 0.0375 0.0092 -0.0048 0.0081
C6R 0.0552 0.0244 0.0375 0.0048 -0.0092 0.0081
C7U 0.0251 0.0503 0.0383 0.0112 -0.0009 0.0066
C7C 0.0251 0.0503 0.0383 0.0112 -0.0009 0.0066
C7R 0.0503 0.0251 0.0383 0.0009 -0.0112 0.0066
loop_
_geom_bond_atom_site_label_1
_geom_bond_atom_site_label_2
_geom_bond_site_symmetry_1
_geom_bond_site_symmetry_2
Cd1 S1 1_555 1_555
N1 Cd1 1_555 1_555
C1 H1 1_555 1_555
C2 C1 1_555 1_555
C3 C2 1_555 1_555
C4 C3 1_555 1_555
H2 C4 1_555 1_555
C5 N1 1_555 1_555
H3 C5 1_555 1_555
C6 N1 1_555 1_555
H4 C6 1_555 1_555
C7 C3 1_555 1_555
H5 C7 1_555 1_555
Cd1C N1C 1_555 1_555
Cd1H N1R 1_555 1_555
Cd1B N1U 1_555 1_555
S1Z Cd1 1_555 1_555
N1CA Cd1 1_555 1_555
N1Z Cd1 1_555 1_555
N1Q Cd1 1_555 1_555
N1C C5C 1_555 1_555
N1R C5R 1_555 1_555
N1U C5U 1_555 1_555
C1C H1C 1_555 1_555
C2U C1 1_555 1_555
C2C C2 1_555 1_555
C2R C1C 1_555 1_555
C3U C2U 1_555 1_555
C3C C2C 1_555 1_555
C3R C2R 1_555 1_555
C4U C3U 1_555 1_555
C4C C3C 1_555 1_555
C4R C3R 1_555 1_555
H2C C4C 1_555 1_555
H2U C4U 1_555 1_555
H2R C4R 1_555 1_555
C5C C4C 1_555 1_555
C5U C4U 1_555 1_555
C5R C4R 1_555 1_555
H3C C5C 1_555 1_555
H3R C5R 1_555 1_555
H3U C5U 1_555 1_555
C6C N1C 1_555 1_555
C6U N1U 1_555 1_555
C6R N1R 1_555 1_555
H4C C6C 1_555 1_555
H4R C6R 1_555 1_555
H4U C6U 1_555 1_555
C7U C3U 1_555 1_555
C7C C3C 1_555 1_555
C7R C3R 1_555 1_555
H5C C7C 1_555 1_555
H5U C7U 1_555 1_555
H5R C7R 1_555 1_555
C4 C5 1_555 1_555
C6 C7 1_555 1_555
C1C C2C 1_555 1_555
C2U C2R 1_555 1_555
C6C C7C 1_555 1_555
C6U C7U 1_555 1_555
C6R C7R 1_555 1_555

#END
