
#######################################################################
#
#                 Cambridge Crystallographic Data Centre
#                                CCDC 
#
#######################################################################
#
# If this CIF has been generated from an entry in the Cambridge 
# Structural Database, then it will include bibliographic, chemical, 
# crystal, experimental, refinement or atomic coordinate data resulting 
# from the CCDC's data processing and validation procedures.
#
#######################################################################

data_KOZNEU
_chemical_formula_moiety         '(C68 H72 N4 O30 Zn6)n'
_symmetry_cell_setting           monoclinic
_symmetry_space_group_name_H-M   'P 21/c'
_symmetry_Int_Tables_number      14
_space_group_name_Hall           '-P 2ybc'
loop_
_symmetry_equiv_pos_site_id
_symmetry_equiv_pos_as_xyz
1 x,y,z
2 -x,1/2+y,1/2-z
3 -x,-y,-z
4 x,1/2-y,1/2+z
_cell_length_a                   12.4391(3)
_cell_length_b                   20.6318(5)
_cell_length_c                   17.7916(4)
_cell_angle_alpha                90
_cell_angle_beta                 91.0980(10)
_cell_angle_gamma                90
_cell_volume                     4565.22
loop_
_atom_site_label
_atom_site_type_symbol
_atom_site_fract_x
_atom_site_fract_y
_atom_site_fract_z
Zn1 Zn 1.33340(5) 0.60902(3) 0.22000(3)
Zn2 Zn 1.05212(5) 0.62768(3) 0.22160(3)
Zn3 Zn 0.80041(5) 0.59572(3) 0.24602(4)
O1 O 0.4822(3) 0.5855(3) 0.1947(3)
O2 O 1.3511(4) 0.6611(3) 0.3116(3)
O3 O 1.1786(4) 0.6645(3) 0.2881(3)
O4 O 1.2925(3) 0.8465(2) 0.6294(2)
O5 O 0.7172(4) 1.0227(2) 0.2649(4)
O6 O 0.8900(3) 1.03692(19) 0.2953(3)
O7 O 1.1138(3) 0.8313(2) 0.6269(2)
O8 O 0.9669(4) 0.7093(2) 0.2400(3)
O9 O 0.9042(3) 0.5901(2) 0.1632(2)
O10 O 0.9956(5) 0.5887(3) 0.3240(3)
O11 O 0.8308(4) 0.5520(2) 0.3409(3)
O12 O 0.7927(4) 0.6900(2) 0.2626(3)
O13 O 0.6555(3) 0.5748(2) 0.2092(3)
O14 O 0.8439(3) 0.4900(2) 0.1722(2)
C1 C 1.2562(5) 0.6783(3) 0.3278(3)
C2 C 1.2424(5) 0.7178(3) 0.3974(3)
C3 C 1.3319(5) 0.7388(4) 0.4392(4)
H1 H 1.4021 0.7284 0.4229
C4 C 1.1408(5) 0.7327(3) 0.4213(4)
H2 H 1.0794 0.7194 0.3927
C5 C 0.8123(5) 1.0030(3) 0.2783(4)
C6 C 1.2045(5) 0.8256(3) 0.6011(3)
C7 C 1.2176(4) 0.7889(3) 0.5287(3)
C8 C 1.3194(5) 0.7746(4) 0.5037(4)
H3 H 1.3809 0.7894 0.5311
C9 C 1.1284(5) 0.7674(4) 0.4879(4)
H4 H 1.0583 0.7765 0.5054
C10 C 0.8733(5) 0.7267(3) 0.2547(4)
C11 C 0.8592(7) 0.7971(3) 0.2724(6)
C12 C 0.9452(6) 0.8394(5) 0.2643(7)
H5 H 1.0151 0.8228 0.2556
C13 C 0.9290(7) 0.9059(4) 0.2691(7)
H6 H 0.9878 0.9348 0.2636
C14 C 0.8267(8) 0.9301(3) 0.2819(6)
C15 C 0.7407(6) 0.8879(3) 0.2900(7)
H7 H 0.6708 0.9044 0.2987
C16 C 0.7569(6) 0.8214(3) 0.2852(7)
H8 H 0.6981 0.7925 0.2907
C17 C 0.9281(6) 0.5583(3) 0.3603(4)
C18 C 0.9648(6) 0.5275(4) 0.4327(4)
C19 C 0.8927(7) 0.4953(4) 0.4771(4)
H9 H 0.8193 0.4919 0.4620
C20 C 1.0707(7) 0.5323(4) 0.4551(4)
H10 H 1.1199 0.5546 0.4242
C21 C 0.8959(4) 0.5307(3) 0.1392(3)
C22 C 0.9502(4) 0.5154(3) 0.0665(3)
C23 C 0.9925(5) 0.5640(3) 0.0233(3)
H11 H 0.9876 0.6078 0.0394
C24 C 0.9575(5) 0.4506(3) 0.0440(3)
H12 H 0.9287 0.4170 0.0741
C25 C 0.5692(5) 0.5993(3) 0.2240(4)
H13 H 0.5694 0.6320 0.2617
O9B O 1.0958(3) 0.4099(2) -0.1632(2)
O14B O 1.1561(3) 0.5100(2) -0.1722(2)
C21B C 1.1041(4) 0.4693(3) -0.1392(3)
C22B C 1.0498(4) 0.4846(3) -0.0665(3)
C23B C 1.0075(5) 0.4360(3) -0.0233(3)
H11B H 1.0124 0.3922 -0.0394
C24B C 1.0425(5) 0.5494(3) -0.0440(3)
H12B H 1.0713 0.5830 -0.0741
O10B O 1.0044(5) 0.4113(3) 0.6760(3)
O11B O 1.1692(4) 0.4480(2) 0.6591(3)
C17B C 1.0719(6) 0.4417(3) 0.6397(4)
C18B C 1.0352(6) 0.4725(4) 0.5673(4)
C19B C 1.1073(7) 0.5047(4) 0.5229(4)
H9B H 1.1807 0.5081 0.5380
C20B C 0.9293(7) 0.4677(4) 0.5449(4)
H10B H 0.8801 0.4454 0.5758
Zn1B Zn 0.66660(5) 0.39098(3) -0.22000(3)
Zn2B Zn 0.94788(5) 0.37232(3) -0.22160(3)
Zn3B Zn 1.19959(5) 0.40428(3) -0.24602(4)
O1B O 1.5178(3) 0.4145(3) -0.1947(3)
O2B O 0.6489(4) 0.3389(3) -0.3116(3)
O3B O 0.8214(4) 0.3355(3) -0.2881(3)
O4B O 0.7075(3) 0.1535(2) -0.6294(2)
O5B O 1.2828(4) -0.0227(2) -0.2649(4)
O6B O 1.1100(3) -0.03692(19) -0.2953(3)
O7B O 0.8862(3) 0.1687(2) -0.6269(2)
O8B O 1.0331(4) 0.2907(2) -0.2400(3)
O12B O 1.2073(4) 0.3100(2) -0.2626(3)
O13B O 1.3445(3) 0.4252(2) -0.2092(3)
C1B C 0.7438(5) 0.3217(3) -0.3278(3)
C2B C 0.7576(5) 0.2822(3) -0.3974(3)
C3B C 0.6681(5) 0.2612(4) -0.4392(4)
H1B H 0.5979 0.2716 -0.4229
C4B C 0.8592(5) 0.2673(3) -0.4213(4)
H2B H 0.9206 0.2806 -0.3927
C5B C 1.1877(5) -0.0030(3) -0.2783(4)
C6B C 0.7955(5) 0.1744(3) -0.6011(3)
C7B C 0.7824(4) 0.2111(3) -0.5287(3)
C8B C 0.6806(5) 0.2254(4) -0.5037(4)
H3B H 0.6191 0.2106 -0.5311
C9B C 0.8716(5) 0.2326(4) -0.4879(4)
H4B H 0.9417 0.2235 -0.5054
C10B C 1.1267(5) 0.2733(3) -0.2547(4)
C11B C 1.1408(7) 0.2029(3) -0.2724(6)
C12B C 1.0548(6) 0.1606(5) -0.2643(7)
H5B H 0.9849 0.1772 -0.2556
C13B C 1.0710(7) 0.0941(4) -0.2691(7)
H6B H 1.0122 0.0652 -0.2636
C14B C 1.1733(8) 0.0699(3) -0.2819(6)
C15B C 1.2593(6) 0.1121(3) -0.2900(7)
H7B H 1.3292 0.0956 -0.2987
C16B C 1.2431(6) 0.1786(3) -0.2852(7)
H8B H 1.3019 0.2075 -0.2907
C25B C 1.4308(5) 0.4007(3) -0.2240(4)
H13B H 1.4306 0.3680 -0.2617
Zn1_2 Zn 0.33340(5) 0.60902(3) 0.22000(3)
Zn1A Zn 0.66660(5) 0.10902(3) -0.72000(3)
Zn1A_2 Zn 0.66660(5) 1.10902(3) 0.28000(3)
Zn1B_2 Zn 1.66660(5) 0.39098(3) -0.22000(3)
Zn1C Zn 1.33340(5) -0.10902(3) -0.28000(3)
Zn1C_2 Zn 1.33340(5) 0.89098(3) 0.72000(3)
Zn2A Zn 0.94788(5) 0.12768(3) -0.72160(3)
Zn2A_2 Zn 0.94788(5) 1.12768(3) 0.27840(3)
Zn2B_2 Zn 0.94788(5) 0.37232(3) 0.77840(3)
Zn2C Zn 1.05212(5) -0.12768(3) -0.27840(3)
Zn2C_2 Zn 1.05212(5) 0.87232(3) 0.72160(3)
Zn3B_2 Zn 1.19959(5) 0.40428(3) 0.75398(4)
O1_2 O 1.4822(3) 0.5855(3) 0.1947(3)
O1B_2 O 0.5178(3) 0.4145(3) -0.1947(3)
O4A O 0.7075(3) 0.3465(2) -0.1294(2)
O4C O 1.2925(3) 0.6535(2) 0.1294(2)
O5A O 1.2828(4) 0.5227(2) 0.2351(4)
O5C O 0.7172(4) 0.4773(2) -0.2351(4)
O6A O 1.1100(3) 0.53692(19) 0.2047(3)
O6C O 0.8900(3) 0.46308(19) -0.2047(3)
O7A O 0.8862(3) 0.3313(2) -0.1269(2)
O7C O 1.1138(3) 0.6687(2) 0.1269(2)
O10B_2 O 1.0044(5) 0.4113(3) -0.3240(3)
O11B_2 O 1.1692(4) 0.4480(2) -0.3409(3)
O15 O 0.5406(12) 0.4192(8) 0.1648(11)
C26 C 0.628(3) 0.403(2) 0.184(2)
H14 H 0.6896 0.4161 0.1576
N1 N 0.6360(16) 0.3635(11) 0.2491(15)
C27 C 0.749(3) 0.3371(16) 0.274(2)
H15 H 0.7454 0.2900 0.2838
H16 H 0.8018 0.3446 0.2337
C28 C 0.782(2) 0.3719(17) 0.342(2)
H17 H 0.7481 0.4147 0.3426
H18 H 0.8604 0.3769 0.3436
H19 H 0.7597 0.3473 0.3864
C29 C 0.558(2) 0.3046(14) 0.2534(19)
H20 H 0.5022 0.3110 0.2137
H21 H 0.5996 0.2657 0.2392
C30 C 0.509(2) 0.2905(15) 0.3145(18)
H22 H 0.5401 0.3153 0.3564
H23 H 0.5160 0.2441 0.3248
H24 H 0.4323 0.3015 0.3086
O16 O 0.406(3) 0.1465(13) 0.4749(18)
C31 C 0.314(5) 0.179(3) 0.440(4)
H25 H 0.2931 0.1683 0.3899
N2 N 0.265(3) 0.218(2) 0.475(2)
C32 C 0.272(3) 0.230(3) 0.558(2)
H26 H 0.2056 0.2538 0.5717
H27 H 0.2690 0.1876 0.5832
C33 C 0.362(4) 0.265(3) 0.592(3)
H28 H 0.4281 0.2531 0.5667
H29 H 0.3676 0.2548 0.6453
H30 H 0.3498 0.3121 0.5857
C34 C 0.168(3) 0.255(2) 0.449(3)
H31 H 0.1489 0.2373 0.3986
H32 H 0.1093 0.2417 0.4825
C35 C 0.158(5) 0.325(2) 0.442(3)
H33 H 0.2221 0.3453 0.4640
H34 H 0.0940 0.3393 0.4676
H35 H 0.1523 0.3361 0.3883
N3 N 0.5573(14) 0.5109(13) 0.0502(11)
H36 H 0.5499 0.4971 0.0990
H37 H 0.5603 0.5555 0.0504
C36 C 0.461(2) 0.4883(19) 0.0023(17)
H38 H 0.4704 0.5027 -0.0502
H39 H 0.4586 0.4403 0.0024
C37 C 0.365(3) 0.512(2) 0.0279(18)
H40 H 0.3727 0.5232 0.0812
H41 H 0.3092 0.4784 0.0218
H42 H 0.3441 0.5503 -0.0011
C38 C 0.695(2) 0.5103(15) -0.0490(13)
H43 H 0.6328 0.5185 -0.0820
H44 H 0.7443 0.4802 -0.0736
H45 H 0.7327 0.5513 -0.0386
C39 C 0.661(2) 0.4834(15) 0.0182(13)
H46 H 0.7195 0.4891 0.0563
H47 H 0.6515 0.4363 0.0105
N3B N 0.4427(14) 0.4891(13) -0.0502(11)
H36B H 0.4501 0.5029 -0.0990
H37B H 0.4397 0.4445 -0.0504
C36B C 0.539(2) 0.5117(19) -0.0023(17)
H38B H 0.5296 0.4973 0.0502
H39B H 0.5414 0.5597 -0.0024
C37B C 0.635(3) 0.488(2) -0.0279(18)
H40B H 0.6273 0.4768 -0.0812
H41B H 0.6908 0.5216 -0.0218
H42B H 0.6559 0.4497 0.0011
C38B C 0.305(2) 0.4897(15) 0.0490(13)
H43B H 0.3672 0.4815 0.0820
H44B H 0.2557 0.5198 0.0736
H45B H 0.2673 0.4487 0.0386
C39B C 0.339(2) 0.5166(15) -0.0182(13)
H46B H 0.2805 0.5109 -0.0563
H47B H 0.3485 0.5637 -0.0105
loop_
_geom_bond_atom_site_label_1
_geom_bond_atom_site_label_2
_geom_bond_site_symmetry_1
_geom_bond_site_symmetry_2
Zn1 O2 1_555 1_555
Zn2 O3 1_555 1_555
Zn3 O9 1_555 1_555
O1 C25 1_555 1_555
O2 C1 1_555 1_555
O3 Zn1 1_555 1_555
O4 C6 1_555 1_555
O5 C5 1_555 1_555
O6 C5 1_555 1_555
O7 C6 1_555 1_555
O8 Zn2 1_555 1_555
O9 Zn2 1_555 1_555
O10 Zn2 1_555 1_555
O11 Zn3 1_555 1_555
O12 Zn3 1_555 1_555
O13 Zn3 1_555 1_555
O14 C21 1_555 1_555
C1 O3 1_555 1_555
C2 C1 1_555 1_555
C3 C2 1_555 1_555
H1 C3 1_555 1_555
C4 C2 1_555 1_555
H2 C4 1_555 1_555
C5 C14 1_555 1_555
C6 C7 1_555 1_555
C7 C8 1_555 1_555
C8 C3 1_555 1_555
H3 C8 1_555 1_555
C9 C4 1_555 1_555
H4 C9 1_555 1_555
C10 O8 1_555 1_555
C11 C10 1_555 1_555
C12 C11 1_555 1_555
H5 C12 1_555 1_555
C13 C12 1_555 1_555
H6 C13 1_555 1_555
C14 C13 1_555 1_555
C15 C14 1_555 1_555
H7 C15 1_555 1_555
C16 C11 1_555 1_555
H8 C16 1_555 1_555
C17 O10 1_555 1_555
C18 C17 1_555 1_555
C19 C18 1_555 1_555
H9 C19 1_555 1_555
C20 C18 1_555 1_555
H10 C20 1_555 1_555
C21 O9 1_555 1_555
C22 C21 1_555 1_555
C23 C22 1_555 1_555
H11 C23 1_555 1_555
C24 C22 1_555 1_555
H12 C24 1_555 1_555
C25 O13 1_555 1_555
H13 C25 1_555 1_555
O15 C26 1_555 1_555
C26 H14 1_555 1_555
N1 C26 1_555 1_555
C27 N1 1_555 1_555
H15 C27 1_555 1_555
H16 C27 1_555 1_555
C28 C27 1_555 1_555
H17 C28 1_555 1_555
H18 C28 1_555 1_555
H19 C28 1_555 1_555
C29 N1 1_555 1_555
H20 C29 1_555 1_555
H21 C29 1_555 1_555
C30 C29 1_555 1_555
H22 C30 1_555 1_555
H23 C30 1_555 1_555
H24 C30 1_555 1_555
O16 C31 1_555 1_555
C31 H25 1_555 1_555
N2 C31 1_555 1_555
C32 N2 1_555 1_555
H26 C32 1_555 1_555
H27 C32 1_555 1_555
C33 C32 1_555 1_555
H28 C33 1_555 1_555
H29 C33 1_555 1_555
H30 C33 1_555 1_555
C34 N2 1_555 1_555
H31 C34 1_555 1_555
H32 C34 1_555 1_555
C35 C34 1_555 1_555
H33 C35 1_555 1_555
H34 C35 1_555 1_555
H35 C35 1_555 1_555
N3 H36 1_555 1_555
H37 N3 1_555 1_555
C36 N3 1_555 1_555
H38 C36 1_555 1_555
H39 C36 1_555 1_555
C37 C36 1_555 1_555
H40 C37 1_555 1_555
H41 C37 1_555 1_555
H42 C37 1_555 1_555
C38 H43 1_555 1_555
H44 C38 1_555 1_555
H45 C38 1_555 1_555
C39 N3 1_555 1_555
H46 C39 1_555 1_555
H47 C39 1_555 1_555
O9B C21B 1_555 1_555
O14B C21B 1_555 1_555
C21B C22B 1_555 1_555
C22B C23B 1_555 1_555
C23B C24 1_555 1_555
H11B C23B 1_555 1_555
C24B C23 1_555 1_555
H12B C24B 1_555 1_555
O10B C17B 1_555 1_555
O11B C17B 1_555 1_555
C17B C18B 1_555 1_555
C18B C19B 1_555 1_555
C19B C20 1_555 1_555
H9B C19B 1_555 1_555
C20B C19 1_555 1_555
H10B C20B 1_555 1_555
Zn1B O2B 1_555 1_555
Zn2B O9B 1_555 1_555
Zn3B O9B 1_555 1_555
O1B C25B 1_555 1_555
O2B C1B 1_555 1_555
O3B Zn1B 1_555 1_555
O4B C6B 1_555 1_555
O5B C5B 1_555 1_555
O6B C5B 1_555 1_555
O7B C6B 1_555 1_555
O8B Zn2B 1_555 1_555
O12B Zn3B 1_555 1_555
O13B Zn3B 1_555 1_555
C1B O3B 1_555 1_555
C2B C1B 1_555 1_555
C3B C2B 1_555 1_555
H1B C3B 1_555 1_555
C4B C2B 1_555 1_555
H2B C4B 1_555 1_555
C5B C14B 1_555 1_555
C6B C7B 1_555 1_555
C7B C8B 1_555 1_555
C8B C3B 1_555 1_555
H3B C8B 1_555 1_555
C9B C4B 1_555 1_555
H4B C9B 1_555 1_555
C10B O8B 1_555 1_555
C11B C10B 1_555 1_555
C12B C11B 1_555 1_555
H5B C12B 1_555 1_555
C13B C12B 1_555 1_555
H6B C13B 1_555 1_555
C14B C13B 1_555 1_555
C15B C14B 1_555 1_555
H7B C15B 1_555 1_555
C16B C11B 1_555 1_555
H8B C16B 1_555 1_555
C25B O13B 1_555 1_555
H13B C25B 1_555 1_555
Zn1_2 O1 1_555 1_555
Zn1A O4B 1_555 1_555
Zn1A_2 O5 1_555 1_555
Zn1B_2 O1B 1_555 1_555
Zn1C O5B 1_555 1_555
Zn1C_2 O4 1_555 1_555
Zn2A O7B 1_555 1_555
Zn2A_2 O6 1_555 1_555
Zn2B_2 O10B 1_555 1_555
Zn2C O6B 1_555 1_555
Zn2C_2 O7 1_555 1_555
Zn3B_2 O11B 1_555 1_555
O1_2 Zn1 1_555 1_555
O1B_2 Zn1B 1_555 1_555
O4A Zn1B 1_555 1_555
O4C Zn1 1_555 1_555
O5A Zn1 1_555 1_555
O5C Zn1B 1_555 1_555
O6A Zn2 1_555 1_555
O6C Zn2B 1_555 1_555
O7A Zn2B 1_555 1_555
O7C Zn2 1_555 1_555
O10B_2 Zn2B 1_555 1_555
O11B_2 Zn3B 1_555 1_555
N3B H36B 1_555 1_555
H37B N3B 1_555 1_555
C36B N3B 1_555 1_555
H38B C36B 1_555 1_555
H39B C36B 1_555 1_555
C37B C36B 1_555 1_555
H40B C37B 1_555 1_555
H41B C37B 1_555 1_555
H42B C37B 1_555 1_555
C38B H43B 1_555 1_555
H44B C38B 1_555 1_555
H45B C38B 1_555 1_555
C39B N3B 1_555 1_555
H46B C39B 1_555 1_555
H47B C39B 1_555 1_555
O11 C17 1_555 1_555
O12 C10 1_555 1_555
C7 C9 1_555 1_555
C15 C16 1_555 1_555
C38 C39 1_555 1_555
C22B C24B 1_555 1_555
C18B C20B 1_555 1_555
Zn2B O3B 1_555 1_555
O12B C10B 1_555 1_555
C7B C9B 1_555 1_555
C15B C16B 1_555 1_555
C38B C39B 1_555 1_555

#END
