
#######################################################################
#
#                 Cambridge Crystallographic Data Centre
#                                CCDC 
#
#######################################################################
#
# If this CIF has been generated from an entry in the Cambridge 
# Structural Database, then it will include bibliographic, chemical, 
# crystal, experimental, refinement or atomic coordinate data resulting 
# from the CCDC's data processing and validation procedures.
#
#######################################################################

data_ITIBIY
_chemical_formula_moiety         '(C52 H32 Co2 N10 O9)n'
_symmetry_cell_setting           monoclinic
_symmetry_space_group_name_H-M   'I 2/c'
_symmetry_Int_Tables_number      15
_space_group_name_Hall           '-I 2yc'
loop_
_symmetry_equiv_pos_site_id
_symmetry_equiv_pos_as_xyz
1 x,y,z
2 -x,y,1/2-z
3 1/2+x,1/2+y,1/2+z
4 1/2-x,1/2+y,-z
5 -x,-y,-z
6 x,-y,1/2+z
7 1/2-x,1/2-y,1/2-z
8 1/2+x,1/2-y,z
_cell_length_a                   24.2852(6)
_cell_length_b                   11.6075(4)
_cell_length_c                   18.6159(6)
_cell_angle_alpha                90
_cell_angle_beta                 97.381(3)
_cell_angle_gamma                90
_cell_volume                     5204.16
loop_
_atom_site_label
_atom_site_type_symbol
_atom_site_fract_x
_atom_site_fract_y
_atom_site_fract_z
C1 C 0.34389(16) 0.2721(4) 0.3798(2)
H1 H 0.3425 0.3483 0.3641
C2 C 0.38240(17) 0.2432(4) 0.4370(2)
H2 H 0.4066 0.2990 0.4586
C3 C 0.38560(12) 0.1312(3) 0.46308(17)
C4 C 0.34690(15) 0.0547(3) 0.43069(19)
H3 H 0.3456 -0.0204 0.4479
C5 C 0.30981(15) 0.0905(3) 0.3722(2)
H4 H 0.2845 0.0370 0.3503
C6 C 0.42667(12) 0.0993(3) 0.52446(18)
C7 C 0.50633(12) 0.1065(3) 0.59613(18)
C8 C 0.42584(13) 0.0257(3) 0.58280(19)
C9 C 0.38144(14) -0.0437(3) 0.60913(19)
C10 C 0.39654(15) -0.1364(4) 0.6551(3)
H5 H 0.4335 -0.1591 0.6637
C11 C 0.35736(16) -0.1938(4) 0.6874(3)
H6 H 0.3686 -0.2568 0.7166
C12 C 0.28897(13) -0.0766(3) 0.63443(18)
H7 H 0.2517 -0.0557 0.6268
C13 C 0.32560(14) -0.0149(3) 0.59855(19)
H8 H 0.3130 0.0453 0.5677
C14 C 0.56175(12) 0.1439(3) 0.62918(17)
C15 C 0.59442(15) 0.2211(3) 0.5974(2)
H9 H 0.5817 0.2529 0.5525
C16 C 0.64593(15) 0.2512(3) 0.6324(2)
H10 H 0.6671 0.3037 0.6099
C17 C 0.63552(14) 0.1345(3) 0.72725(19)
H11 H 0.6497 0.1035 0.7719
C18 C 0.58302(14) 0.1001(3) 0.69685(19)
H12 H 0.5624 0.0489 0.7211
C19 C 0.80464(17) 0.1889(4) 0.6199(2)
C20 C 0.85461(16) 0.1347(3) 0.6625(2)
C21 C 0.9060(2) 0.1675(4) 0.6436(3)
H13 H 0.9072 0.2241 0.6084
C22 C 0.9555(2) 0.1194(5) 0.6750(4)
H14 H 0.9893 0.1457 0.6631
C23 C 0.95353(16) 0.0327(4) 0.7237(4)
C24 C 0.90302(15) -0.0025(4) 0.7441(3)
H15 H 0.9022 -0.0612 0.7780
C25 C 0.85366(13) 0.0495(3) 0.7142(2)
C26 C 0.80079(12) 0.0034(3) 0.73823(18)
Co1 Co 0.2500 0.2500 0.2500
Co2 Co 0.7500 0.2500 0.7500
N1 N 0.30834(11) 0.1974(3) 0.34535(15)
N2 N 0.47876(10) 0.1506(3) 0.53401(14)
H16 H 0.4912 0.2007 0.5060
N3 N 0.47615(11) 0.0308(3) 0.62678(16)
N4 N 0.30342(11) -0.1645(3) 0.67948(16)
N5 N 0.66682(11) 0.2091(3) 0.69639(16)
O1 O 0.77502(10) 0.2575(2) 0.64976(14)
O2 O 0.7972(2) 0.1688(4) 0.55433(19)
O3 O 0.79843(9) -0.1041(2) 0.74349(14)
O4 O 0.76347(9) 0.0711(2) 0.75100(13)
O5 O 1.0000 -0.0284(5) 0.7500
C19A C 1.19536(17) 0.1889(4) 0.8801(2)
C20A C 1.14539(16) 0.1347(3) 0.8375(2)
C21A C 1.0940(2) 0.1675(4) 0.8564(3)
H13A H 1.0928 0.2241 0.8916
C22A C 1.0445(2) 0.1194(5) 0.8250(4)
H14A H 1.0107 0.1457 0.8369
C23A C 1.04647(16) 0.0327(4) 0.7763(4)
C24A C 1.09698(15) -0.0025(4) 0.7559(3)
H15A H 1.0978 -0.0612 0.7220
C25A C 1.14634(13) 0.0495(3) 0.7858(2)
C26A C 1.19921(12) 0.0034(3) 0.76177(18)
O1A O 1.22498(10) 0.2575(2) 0.85024(14)
O2A O 1.2028(2) 0.1688(4) 0.94567(19)
O3A O 1.20157(9) -0.1041(2) 0.75651(14)
O4A O 1.23653(9) 0.0711(2) 0.74900(13)
C1F C 0.15611(16) 0.2279(4) 0.1202(2)
H1F H 0.1575 0.1517 0.1359
C2F C 0.11760(17) 0.2568(4) 0.0630(2)
H2F H 0.0934 0.2010 0.0414
C3F C 0.11440(12) 0.3688(3) 0.03692(17)
C4F C 0.15310(15) 0.4453(3) 0.06931(19)
H3F H 0.1544 0.5204 0.0521
C5F C 0.19019(15) 0.4095(3) 0.1278(2)
H4F H 0.2155 0.4630 0.1497
C6F C 0.07333(12) 0.4007(3) -0.02446(18)
C7F C -0.00633(12) 0.3935(3) -0.09613(18)
C8F C 0.07416(13) 0.4743(3) -0.08280(19)
C9F C 0.11856(14) 0.5437(3) -0.10913(19)
C10F C 0.10346(15) 0.6364(4) -0.1551(3)
H5F H 0.0665 0.6591 -0.1637
C11F C 0.14264(16) 0.6938(4) -0.1874(3)
H6F H 0.1314 0.7568 -0.2166
C12F C 0.21103(13) 0.5766(3) -0.13443(18)
H7F H 0.2483 0.5557 -0.1268
C13F C 0.17440(14) 0.5149(3) -0.09855(19)
H8F H 0.1870 0.4547 -0.0677
C14F C -0.06175(12) 0.3561(3) -0.12918(17)
C15F C -0.09442(15) 0.2789(3) -0.0974(2)
H9F H -0.0817 0.2471 -0.0525
C16F C -0.14593(15) 0.2488(3) -0.1324(2)
H10F H -0.1671 0.1963 -0.1099
C17F C -0.13552(14) 0.3655(3) -0.22725(19)
H11F H -0.1497 0.3965 -0.2719
C18F C -0.08302(14) 0.3999(3) -0.19685(19)
H12F H -0.0624 0.4511 -0.2211
N1F N 0.19166(11) 0.3026(3) 0.15465(15)
N2F N 0.02124(10) 0.3494(3) -0.03401(14)
H16F H 0.0088 0.2993 -0.0060
N3F N 0.02385(11) 0.4692(3) -0.12678(16)
N4F N 0.19658(11) 0.6645(3) -0.17948(16)
N5F N -0.16682(11) 0.2909(3) -0.19639(16)
Co1B Co 0.7500 -0.2500 0.7500
Co1C Co 0.2500 -0.2500 0.7500
Co1C_2 Co 0.2500 0.7500 -0.2500
Co1C_3 Co 1.2500 -0.2500 0.7500
Co2_2 Co -0.2500 0.2500 -0.2500
Co2A Co 1.2500 0.2500 0.7500
N4C N 0.19658(11) 0.3355(3) 0.32052(16)
N4E N 0.30342(11) 0.1645(3) 0.17948(16)
N5F_2 N 0.83318(11) 0.2909(3) 0.80361(16)
O1F O 0.72498(10) 0.2425(2) 0.85024(14)
O3B O 0.29843(9) 0.3959(2) 0.24349(14)
O3D O 0.20157(9) 0.1041(2) 0.25651(14)
O4F O 0.73653(9) 0.4289(2) 0.74900(13)
loop_
_geom_bond_atom_site_label_1
_geom_bond_atom_site_label_2
_geom_bond_site_symmetry_1
_geom_bond_site_symmetry_2
C1 H1 1_555 1_555
C2 C1 1_555 1_555
H2 C2 1_555 1_555
C3 C2 1_555 1_555
C4 C3 1_555 1_555
H3 C4 1_555 1_555
C5 C4 1_555 1_555
H4 C5 1_555 1_555
C6 C3 1_555 1_555
C7 C14 1_555 1_555
C8 C6 1_555 1_555
C9 C8 1_555 1_555
C10 C9 1_555 1_555
H5 C10 1_555 1_555
C11 C10 1_555 1_555
H6 C11 1_555 1_555
C12 H7 1_555 1_555
C13 C9 1_555 1_555
H8 C13 1_555 1_555
C14 C15 1_555 1_555
C15 H9 1_555 1_555
C16 C15 1_555 1_555
H10 C16 1_555 1_555
C17 H11 1_555 1_555
C18 C14 1_555 1_555
H12 C18 1_555 1_555
C19 C20 1_555 1_555
C20 C21 1_555 1_555
C21 H13 1_555 1_555
C22 C21 1_555 1_555
H14 C22 1_555 1_555
C23 C22 1_555 1_555
C24 C23 1_555 1_555
H15 C24 1_555 1_555
C25 C20 1_555 1_555
C26 C25 1_555 1_555
Co1 N1 1_555 1_555
Co2 N5 1_555 1_555
N1 C1 1_555 1_555
N2 C6 1_555 1_555
H16 N2 1_555 1_555
N3 C7 1_555 1_555
N4 C11 1_555 1_555
N5 C16 1_555 1_555
O1 C19 1_555 1_555
O2 C19 1_555 1_555
O3 C26 1_555 1_555
O4 C26 1_555 1_555
O5 C23 1_555 1_555
C19A C20A 1_555 1_555
C20A C21A 1_555 1_555
C21A H13A 1_555 1_555
C22A C21A 1_555 1_555
H14A C22A 1_555 1_555
C23A O5 1_555 1_555
C24A C23A 1_555 1_555
H15A C24A 1_555 1_555
C25A C20A 1_555 1_555
C26A C25A 1_555 1_555
O1A C19A 1_555 1_555
O2A C19A 1_555 1_555
O3A C26A 1_555 1_555
O4A C26A 1_555 1_555
C1F H1F 1_555 1_555
C2F C1F 1_555 1_555
H2F C2F 1_555 1_555
C3F C2F 1_555 1_555
C4F C3F 1_555 1_555
H3F C4F 1_555 1_555
C5F C4F 1_555 1_555
H4F C5F 1_555 1_555
C6F C3F 1_555 1_555
C7F C14F 1_555 1_555
C8F C6F 1_555 1_555
C9F C8F 1_555 1_555
C10F C9F 1_555 1_555
H5F C10F 1_555 1_555
C11F C10F 1_555 1_555
H6F C11F 1_555 1_555
C12F H7F 1_555 1_555
C13F C9F 1_555 1_555
H8F C13F 1_555 1_555
C14F C15F 1_555 1_555
C15F H9F 1_555 1_555
C16F C15F 1_555 1_555
H10F C16F 1_555 1_555
C17F H11F 1_555 1_555
C18F C14F 1_555 1_555
H12F C18F 1_555 1_555
N1F Co1 1_555 1_555
N2F C6F 1_555 1_555
H16F N2F 1_555 1_555
N3F C7F 1_555 1_555
N4F C11F 1_555 1_555
N5F C16F 1_555 1_555
Co1B O3 1_555 1_555
Co1C N4 1_555 1_555
Co1C_2 N4F 1_555 1_555
Co1C_3 O3A 1_555 1_555
Co2_2 N5F 1_555 1_555
Co2A O1A 1_555 1_555
N4C Co1 1_555 1_555
N4E Co1 1_555 1_555
N5F_2 Co2 1_555 1_555
O1F Co2 1_555 1_555
O3B Co1 1_555 1_555
O3D Co1 1_555 1_555
O4F Co2 1_555 1_555
C5 N1 1_555 1_555
C7 N2 1_555 1_555
C8 N3 1_555 1_555
C12 C13 1_555 1_555
C12 N4 1_555 1_555
C17 C18 1_555 1_555
C17 N5 1_555 1_555
C24 C25 1_555 1_555
Co2 O1 1_555 1_555
Co2 O4 1_555 1_555
C22A C23A 1_555 1_555
C24A C25A 1_555 1_555
O4A Co2A 1_555 1_555
C1F N1F 1_555 1_555
C5F N1F 1_555 1_555
C7F N2F 1_555 1_555
C8F N3F 1_555 1_555
C12F C13F 1_555 1_555
C12F N4F 1_555 1_555
C17F C18F 1_555 1_555
C17F N5F 1_555 1_555

#END
