
#######################################################################
#
#                 Cambridge Crystallographic Data Centre
#                                CCDC 
#
#######################################################################
#
# If this CIF has been generated from an entry in the Cambridge 
# Structural Database, then it will include bibliographic, chemical, 
# crystal, experimental, refinement or atomic coordinate data resulting 
# from the CCDC's data processing and validation procedures.
#
#######################################################################

data_OKIMAY
_chemical_formula_moiety         '(C18 H11 N3 O9 Zn1)n'
_symmetry_cell_setting           monoclinic
_symmetry_space_group_name_H-M   'P 21/c'
_symmetry_Int_Tables_number      14
_space_group_name_Hall           '-P 2ybc'
loop_
_symmetry_equiv_pos_site_id
_symmetry_equiv_pos_as_xyz
1 x,y,z
2 -x,1/2+y,1/2-z
3 -x,-y,-z
4 x,1/2-y,1/2+z
_cell_length_a                   8.0098(16)
_cell_length_b                   13.813(3)
_cell_length_c                   22.126(4)
_cell_angle_alpha                90
_cell_angle_beta                 98.25(3)
_cell_angle_gamma                90
_cell_volume                     2422.67
loop_
_atom_site_label
_atom_site_type_symbol
_atom_site_fract_x
_atom_site_fract_y
_atom_site_fract_z
O1 O 0.8759(14) 0.5959(10) 0.7506(5)
Zn1 Zn 1.19051(9) 1.02099(5) 0.15018(3)
O2 O 1.1635(6) 0.9386(3) 0.07769(19)
O3 O 1.0066(8) 0.8486(4) 0.1287(2)
H1 H 1.0704 0.8131 0.1509
O4 O 1.0290(5) 0.9077(3) -0.15241(19)
O5 O 1.0599(9) 0.7571(3) -0.1836(2)
O6 O 0.7676(6) 0.4839(3) 0.26290(18)
O7 O 0.5691(8) 0.3911(4) 0.2914(2)
O8 O 0.3497(6) 0.1285(3) 0.15062(19)
O9 O 0.3857(7) 0.1312(4) 0.0528(2)
H2 H 0.4770 0.1121 0.0449
N1 N 0.7810(5) 0.5371(3) 0.04158(17)
N2 N 0.6894(6) 0.4276(3) -0.0269(2)
H3 H 0.6425 0.3764 -0.0437
N3 N 0.7666(7) 0.5001(3) -0.0559(2)
C1 C 1.0687(8) 0.8673(5) 0.0827(3)
C2 C 1.0219(7) 0.8045(4) 0.0262(2)
C3 C 1.0502(7) 0.8364(4) -0.0306(3)
H4 H 1.0987 0.8968 -0.0346
C4 C 1.0065(7) 0.7786(4) -0.0820(2)
C5 C 0.9370(7) 0.6884(4) -0.0765(2)
H5 H 0.9125 0.6488 -0.1106
C6 C 0.9033(7) 0.6565(4) -0.0195(2)
C7 C 0.9461(7) 0.7143(4) 0.0315(2)
H6 H 0.9244 0.6929 0.0695
C8 C 1.0323(8) 0.8161(4) -0.1446(3)
C9 C 0.8174(7) 0.5630(4) -0.0143(2)
C10 C 0.7007(7) 0.4511(4) 0.0308(3)
C11 C 0.6413(7) 0.3998(4) 0.0807(2)
C12 C 0.5563(7) 0.3097(4) 0.0699(2)
H7 H 0.5427 0.2831 0.0309
C13 C 0.4937(7) 0.2611(4) 0.1165(3)
C14 C 0.5180(7) 0.3013(4) 0.1751(3)
H8 H 0.4723 0.2704 0.2063
C15 C 0.6090(7) 0.3865(4) 0.1879(3)
C16 C 0.6699(7) 0.4355(4) 0.1402(2)
H9 H 0.7304 0.4927 0.1483
C17 C 0.6486(9) 0.4221(4) 0.2520(3)
C18 C 0.4046(8) 0.1672(4) 0.1051(3)
Zn1_2 Zn 0.19051(9) 0.02099(5) 0.15018(3)
Zn1A Zn 0.80949(9) 0.52099(5) 0.34982(3)
Zn1B Zn 0.80949(9) 0.97901(5) -0.15018(3)
O4B O 0.9710(5) 1.0923(3) 0.15241(19)
O6A O 1.2324(6) 0.9839(3) 0.23710(18)
O8_2 O 1.3497(6) 1.1285(3) 0.15062(19)
loop_
_geom_bond_atom_site_label_1
_geom_bond_atom_site_label_2
_geom_bond_site_symmetry_1
_geom_bond_site_symmetry_2
Zn1 O2 1_555 1_555
O2 C1 1_555 1_555
O3 H1 1_555 1_555
O4 C8 1_555 1_555
O5 C8 1_555 1_555
O6 C17 1_555 1_555
O7 C17 1_555 1_555
O8 C18 1_555 1_555
O9 H2 1_555 1_555
N1 C9 1_555 1_555
N2 H3 1_555 1_555
N3 N2 1_555 1_555
C1 O3 1_555 1_555
C2 C1 1_555 1_555
C3 C2 1_555 1_555
H4 C3 1_555 1_555
C4 C3 1_555 1_555
C5 C4 1_555 1_555
H5 C5 1_555 1_555
C6 C5 1_555 1_555
C7 C2 1_555 1_555
H6 C7 1_555 1_555
C8 C4 1_555 1_555
C9 N3 1_555 1_555
C10 N1 1_555 1_555
C11 C10 1_555 1_555
C12 C11 1_555 1_555
H7 C12 1_555 1_555
C13 C12 1_555 1_555
C14 C13 1_555 1_555
H8 C14 1_555 1_555
C15 C14 1_555 1_555
C16 C11 1_555 1_555
H9 C16 1_555 1_555
C17 C15 1_555 1_555
C18 O9 1_555 1_555
Zn1_2 O8 1_555 1_555
Zn1A O6 1_555 1_555
Zn1B O4 1_555 1_555
O4B Zn1 1_555 1_555
O6A Zn1 1_555 1_555
O8_2 Zn1 1_555 1_555
N2 C10 1_555 1_555
C6 C7 1_555 1_555
C6 C9 1_555 1_555
C13 C18 1_555 1_555
C15 C16 1_555 1_555

#END
