
#######################################################################
#
#                 Cambridge Crystallographic Data Centre
#                                CCDC 
#
#######################################################################
#
# If this CIF has been generated from an entry in the Cambridge 
# Structural Database, then it will include bibliographic, chemical, 
# crystal, experimental, refinement or atomic coordinate data resulting 
# from the CCDC's data processing and validation procedures.
#
#######################################################################

data_ARUYUH
_chemical_formula_moiety         '(C3 H14 N1 O12 P4 Zn3 1-)n'
_symmetry_cell_setting           orthorhombic
_symmetry_space_group_name_H-M   'P c c n'
_symmetry_Int_Tables_number      56
_space_group_name_Hall           '-P 2ab 2ac'
loop_
_symmetry_equiv_pos_site_id
_symmetry_equiv_pos_as_xyz
1 x,y,z
2 1/2+x,1/2+y,-z
3 x,1/2-y,1/2+z
4 1/2-x,y,1/2+z
5 -x,-y,-z
6 1/2-x,1/2-y,z
7 -x,1/2+y,1/2-z
8 1/2+x,-y,1/2-z
_cell_length_a                   9.8162(15)
_cell_length_b                   23.284(4)
_cell_length_c                   8.9306(12)
_cell_angle_alpha                90
_cell_angle_beta                 90
_cell_angle_gamma                90
_cell_volume                     2041.18
loop_
_atom_site_label
_atom_site_type_symbol
_atom_site_fract_x
_atom_site_fract_y
_atom_site_fract_z
Zn1 Zn 0.44051(5) 0.54696(2) 0.21892(6)
Zn2 Zn 0.2500 0.7500 0.01889(8)
P1 P 0.28715(11) 0.49715(5) -0.06265(14)
H1 H 0.293(4) 0.4549(18) 0.019(5)
P2 P 0.42532(12) 0.68444(5) 0.26368(13)
H2 H 0.536(5) 0.7089(19) 0.207(5)
O1 O 0.3258(3) 0.54516(13) 0.0430(4)
O2 O 0.1418(3) 0.50339(14) -0.1185(4)
O3 O 0.3864(3) 0.49118(16) -0.1906(4)
O4 O 0.4652(4) 0.62308(14) 0.2973(4)
O5 O 0.3138(4) 0.68794(13) 0.1471(4)
O6 O 0.3969(4) 0.71573(15) 0.4069(4)
P2E P 0.07468(12) 0.81556(5) 0.26368(13)
H2E H -0.036(5) 0.7911(19) 0.207(5)
O4E O 0.0348(4) 0.87692(14) 0.2973(4)
O5E O 0.1862(4) 0.81206(13) 0.1471(4)
O6E O 0.1031(4) 0.78427(15) 0.4069(4)
Zn1E Zn 0.05949(5) 0.95304(2) 0.21892(6)
P1C P 0.21285(11) 0.49715(5) 0.43735(14)
H1C H 0.207(4) 0.4549(18) 0.519(5)
O1C O 0.1742(3) 0.54516(13) 0.5430(4)
O2C O 0.3582(3) 0.50339(14) 0.3815(4)
O3C O 0.1136(3) 0.49118(16) 0.3094(4)
O3D O 0.6136(3) 0.50882(16) 0.1906(4)
O6B O 0.3969(4) 0.78427(15) -0.0931(4)
O6C O 0.1031(4) 0.71573(15) -0.0931(4)
Zn1C Zn 0.05949(5) 0.54696(2) -0.28108(6)
Zn1D Zn 0.55949(5) 0.45304(2) -0.21892(6)
Zn2B Zn 0.2500 0.7500 0.51889(8)
O1E O 0.1742(3) 0.95484(13) 0.0430(4)
O2B O 0.1418(3) 0.99661(14) 0.3815(4)
O3A O -0.1136(3) 0.99118(16) 0.1906(4)
Zn1C_2 Zn 0.05949(5) 0.54696(2) 0.71892(6)
Zn1G Zn -0.05949(5) 0.45304(2) 0.28108(6)
C1 C 0.542(2) 0.6348(6) 0.681(2)
C3 C 0.5392(17) 0.6449(7) 0.8365(17)
C5 C 0.6662(6) 0.6763(3) 0.8961(7)
N1 N 0.4285(5) 0.60043(18) 0.6171(5)
loop_
_geom_bond_atom_site_label_1
_geom_bond_atom_site_label_2
_geom_bond_site_symmetry_1
_geom_bond_site_symmetry_2
Zn1 O1 1_555 1_555
Zn2 O5 1_555 1_555
P1 H1 1_555 1_555
P2 H2 1_555 1_555
O1 P1 1_555 1_555
O2 P1 1_555 1_555
O3 P1 1_555 1_555
O4 Zn1 1_555 1_555
O5 P2 1_555 1_555
O6 P2 1_555 1_555
C1 C3 1_555 1_555
C3 C5 1_555 1_555
N1 C1 1_555 1_555
P2E H2E 1_555 1_555
O4E P2E 1_555 1_555
O5E Zn2 1_555 1_555
O6E P2E 1_555 1_555
Zn1E O4E 1_555 1_555
P1C H1C 1_555 1_555
O1C P1C 1_555 1_555
O2C Zn1 1_555 1_555
O3C P1C 1_555 1_555
O3D Zn1 1_555 1_555
O6B Zn2 1_555 1_555
O6C Zn2 1_555 1_555
Zn1C O2 1_555 1_555
Zn1D O3 1_555 1_555
Zn2B O6 1_555 1_555
O1E Zn1E 1_555 1_555
O2B Zn1E 1_555 1_555
O3A Zn1E 1_555 1_555
Zn1C_2 O1C 1_555 1_555
Zn1G O3C 1_555 1_555
P2 O4 1_555 1_555
P2E O5E 1_555 1_555
O6E Zn2B 1_555 1_555
P1C O2C 1_555 1_555

#END
