
#######################################################################
#
#                 Cambridge Crystallographic Data Centre
#                                CCDC 
#
#######################################################################
#
# If this CIF has been generated from an entry in the Cambridge 
# Structural Database, then it will include bibliographic, chemical, 
# crystal, experimental, refinement or atomic coordinate data resulting 
# from the CCDC's data processing and validation procedures.
#
#######################################################################

data_GUGXOX
_chemical_formula_moiety         '(C6 H14 Be3 N2 O16 P4)n'
_symmetry_cell_setting           monoclinic
_symmetry_space_group_name_H-M   'P 21/n'
_symmetry_Int_Tables_number      14
_space_group_name_Hall           '-P 2yn'
loop_
_symmetry_equiv_pos_site_id
_symmetry_equiv_pos_as_xyz
1 x,y,z
2 1/2-x,1/2+y,1/2-z
3 -x,-y,-z
4 1/2+x,1/2-y,1/2+z
_cell_length_a                   7.5292(5)
_cell_length_b                   14.0999(8)
_cell_length_c                   16.5910(3)
_cell_angle_alpha                90
_cell_angle_beta                 95.740(3)
_cell_angle_gamma                90
_cell_volume                     1752.49
loop_
_atom_site_label
_atom_site_type_symbol
_atom_site_fract_x
_atom_site_fract_y
_atom_site_fract_z
Be1 Be 0.3904(5) 0.8911(2) 0.4275(2)
Be2 Be 0.3757(5) 0.6180(2) 0.4468(2)
Be3 Be 0.3863(5) 0.7506(2) 0.1351(2)
P1 P 0.29514(9) 1.08948(5) 0.44558(4)
P2 P 0.21684(9) 0.76350(5) 0.53619(4)
P3 P 0.47216(9) 0.74249(5) 0.31664(4)
P4 P 0.72750(9) 0.58995(5) 0.54088(4)
O1 O 0.2776(3) 1.17456(13) 0.38842(12)
O2 O 0.1078(3) 1.07067(15) 0.47762(13)
H1 H 0.0410 1.1154 0.4653
O3 O 0.4230(3) 1.10822(16) 0.51863(13)
O4 O 0.3390(3) 1.00051(14) 0.39900(12)
O5 O 0.2351(3) 0.84527(15) 0.47783(13)
O6 O 0.4037(3) 0.83821(14) 0.34243(12)
O7 O 0.0423(3) 0.77533(14) 0.57441(12)
O8 O 0.3666(3) 0.77046(15) 0.60948(13)
H2 H 0.4601 0.7884 0.5930
O9 O 0.2211(3) 0.66646(14) 0.49614(13)
O10 O 0.4628(3) 0.73548(14) 0.22614(12)
O11 O 0.6782(3) 0.73342(16) 0.34743(13)
H3 H 0.6893 0.7078 0.3920
O12 O 0.3750(3) 0.66023(14) 0.35394(12)
O13 O 0.5711(3) 0.64180(14) 0.49567(13)
O14 O 0.8082(2) 0.64219(13) 0.61662(11)
O15 O 0.6779(3) 0.49122(14) 0.56478(13)
O16 O 0.8737(3) 0.5847(2) 0.47867(14)
H4 H 0.9631 0.6138 0.4970
Be1B Be 0.6096(5) 1.1089(2) 0.5725(2)
Be2B Be 0.6243(5) 0.3820(2) 0.5532(2)
Be3A Be 0.1137(5) 1.2506(2) 0.3649(2)
Be3C Be -0.1137(5) 0.7494(2) 0.6351(2)
Be3C_2 Be 0.8863(5) 0.7494(2) 0.6351(2)
O1A O 0.2224(3) 0.67456(13) 0.11158(12)
O3B O 0.5770(3) 0.89178(16) 0.48137(13)
O7C O 0.5423(3) 0.72467(14) 0.07441(12)
O14C O 0.3082(2) 0.85781(13) 0.11662(11)
O15B O 0.3221(3) 0.50878(14) 0.43522(13)
N1 N 0.0745(5) 1.0906(3) 0.7789(2)
H5 H 0.0150 1.1201 0.8128
C1 C 0.2189(5) 1.0343(3) 0.8066(2)
H6 H 0.2527 1.0290 0.8619
C2 C 0.1184(4) 1.0510(2) 0.64598(17)
H7 H 0.0838 1.0565 0.5908
C3 C 0.2567(4) 0.9955(2) 0.67004(19)
H8 H 0.3157 0.9632 0.6318
C4 C 0.3132(4) 0.9856(2) 0.75135(19)
C5 C 0.4730(4) 0.9240(2) 0.7780(2)
H9 H 0.4691 0.9061 0.8343
H10 H 0.4676 0.8665 0.7458
C6 C 0.0272(5) 1.0991(3) 0.6975(2)
H11 H -0.0675 1.1380 0.6782
N2 N 0.6437(3) 0.97435(19) 0.76892(15)
H12 H 0.7351 0.9366 0.7851
H13 H 0.6496 1.0267 0.7990
H14 H 0.6485 0.9898 0.7172
loop_
_geom_bond_atom_site_label_1
_geom_bond_atom_site_label_2
_geom_bond_site_symmetry_1
_geom_bond_site_symmetry_2
Be1 O4 1_555 1_555
Be2 O9 1_555 1_555
Be3 O10 1_555 1_555
P1 O1 1_555 1_555
P2 O5 1_555 1_555
P3 O6 1_555 1_555
P4 O13 1_555 1_555
O1 Be3A 1_555 1_555
O2 P1 1_555 1_555
H1 O2 1_555 1_555
O3 P1 1_555 1_555
O4 P1 1_555 1_555
O5 Be1 1_555 1_555
O6 Be1 1_555 1_555
O7 P2 1_555 1_555
O8 P2 1_555 1_555
H2 O8 1_555 1_555
O9 P2 1_555 1_555
O10 P3 1_555 1_555
O11 P3 1_555 1_555
H3 O11 1_555 1_555
O12 Be2 1_555 1_555
O13 Be2 1_555 1_555
O14 P4 1_555 1_555
O15 P4 1_555 1_555
O16 P4 1_555 1_555
H4 O16 1_555 1_555
N1 H5 1_555 1_555
C1 N1 1_555 1_555
H6 C1 1_555 1_555
C2 H7 1_555 1_555
C3 C2 1_555 1_555
H8 C3 1_555 1_555
C4 C1 1_555 1_555
C5 C4 1_555 1_555
H9 C5 1_555 1_555
H10 C5 1_555 1_555
C6 N1 1_555 1_555
H11 C6 1_555 1_555
N2 C5 1_555 1_555
H12 N2 1_555 1_555
H13 N2 1_555 1_555
H14 N2 1_555 1_555
Be1B O3 1_555 1_555
Be2B O15 1_555 1_555
Be3C O7 1_555 1_555
Be3C_2 O14 1_555 1_555
O1A Be3 1_555 1_555
O3B Be1 1_555 1_555
O7C Be3 1_555 1_555
O14C Be3 1_555 1_555
O15B Be2 1_555 1_555
P3 O12 1_555 1_555
C2 C6 1_555 1_555
C3 C4 1_555 1_555

#END
