
#######################################################################
#
#                 Cambridge Crystallographic Data Centre
#                                CCDC 
#
#######################################################################
#
# If this CIF has been generated from an entry in the Cambridge 
# Structural Database, then it will include bibliographic, chemical, 
# crystal, experimental, refinement or atomic coordinate data resulting 
# from the CCDC's data processing and validation procedures.
#
#######################################################################

data_CODSOF
_chemical_formula_moiety         '(C56 H58 N8 O18 Zn3)n'
_symmetry_cell_setting           triclinic
_symmetry_space_group_name_H-M   'P -1'
_symmetry_Int_Tables_number      2
_space_group_name_Hall           '-P 1'
loop_
_symmetry_equiv_pos_site_id
_symmetry_equiv_pos_as_xyz
1 x,y,z
2 -x,-y,-z
_cell_length_a                   9.4806(19)
_cell_length_b                   18.127(4)
_cell_length_c                   18.693(4)
_cell_angle_alpha                61.88(3)
_cell_angle_beta                 83.98(3)
_cell_angle_gamma                86.35(3)
_cell_volume                     2817.29
loop_
_atom_site_label
_atom_site_type_symbol
_atom_site_fract_x
_atom_site_fract_y
_atom_site_fract_z
Zn1 Zn 0.35643(6) 0.92813(3) -0.12946(3)
Zn2 Zn 0.65832(6) 0.91931(3) 0.35752(3)
Zn3 Zn 0.48901(6) 0.49966(3) 0.25516(3)
O1 O 0.3575(4) 0.5455(2) 0.3104(2)
O2 O 0.2797(7) 0.6102(3) 0.3800(3)
O3 O 0.3384(5) 0.7794(3) 0.0037(2)
O4 O 0.4279(4) 0.9007(2) -0.0268(2)
O5 O 0.6286(4) 0.9481(2) 0.1783(2)
O6 O 0.5819(4) 0.8584(2) 0.3092(2)
O7 O 0.6405(4) 0.5493(2) -0.2162(2)
O8 O 0.6633(5) 0.5955(2) -0.1274(2)
O9 O 0.5701(4) 0.8997(2) -0.5351(2)
O10 O 0.6695(5) 0.7789(3) -0.5092(2)
O11 O 0.4139(5) 0.9629(2) -0.3086(2)
O12 O 0.4861(4) 0.8804(2) -0.1867(2)
N1 N -0.3890(5) 0.5881(3) 0.1664(2)
N2 N -0.3075(5) 0.6928(3) 0.0497(3)
N3 N -0.0373(5) 0.8625(3) -0.1584(3)
N4 N 0.1547(4) 0.9113(3) -0.1393(3)
N5 N 0.8682(4) 0.9282(3) 0.3510(3)
N6 N 1.0964(5) 0.8961(3) 0.3580(3)
N7 N 1.2490(5) 0.6635(3) 0.5670(3)
N8 N 1.3743(5) 0.5842(3) 0.6713(3)
C1 C 0.1850(7) 0.7848(4) -0.1604(4)
H1 H 0.1910 0.7951 -0.2159
H2 H 0.1389 0.7326 -0.1259
H3 H 0.2788 0.7824 -0.1443
C2 C 0.1023(5) 0.8532(3) -0.1527(3)
C3 C 0.0403(5) 0.9595(3) -0.1327(3)
C4 C 0.0328(7) 1.0243(4) -0.1130(4)
H4 H 0.1142 1.0446 -0.1050
C5 C -0.0972(8) 1.0573(4) -0.1056(6)
H5 H -0.1055 1.0998 -0.0908
C6 C -0.2208(8) 1.0277(5) -0.1204(6)
H6 H -0.3080 1.0528 -0.1165
C7 C -0.2165(7) 0.9637(4) -0.1401(4)
H7 H -0.2974 0.9443 -0.1496
C8 C -0.0811(6) 0.9298(3) -0.1450(3)
C9 C -0.1318(6) 0.8061(4) -0.1671(3)
H8 H -0.0835 0.7860 -0.2031
H9 H -0.2160 0.8371 -0.1917
C10 C -0.1760(6) 0.7309(4) -0.0846(3)
H10 H -0.2092 0.6867 -0.0936
H11 H -0.0941 0.7095 -0.0531
C11 C -0.2903(6) 0.7544(4) -0.0375(3)
H12 H -0.2689 0.8083 -0.0424
H13 H -0.3793 0.7603 -0.0611
C12 C -0.0842(9) 0.7342(5) 0.1773(5)
H14 H -0.0142 0.7685 0.1763
C13 C -0.1329(8) 0.7477(4) 0.1057(4)
H15 H -0.0980 0.7910 0.0562
C14 C -0.2346(6) 0.6955(4) 0.1089(3)
C15 C -0.2367(7) 0.6158(4) 0.2551(4)
H16 H -0.2689 0.5710 0.3042
C16 C -0.1386(8) 0.6687(5) 0.2534(4)
H17 H -0.1074 0.6620 0.3017
C17 C -0.2883(6) 0.6295(3) 0.1824(3)
C18 C -0.3968(6) 0.6273(3) 0.0855(3)
C19 C -0.4923(7) 0.6051(4) 0.0414(3)
H18 H -0.5603 0.6496 0.0173
H19 H -0.5409 0.5546 0.0787
H20 H -0.4378 0.5967 -0.0005
C20 C 0.3957(6) 0.8255(3) 0.0233(3)
C21 C 0.4267(5) 0.7948(3) 0.1103(3)
C22 C 0.5014(5) 0.8447(3) 0.1306(3)
H21 H 0.5395 0.8946 0.0898
C23 C 0.5197(5) 0.8204(3) 0.2123(3)
C24 C 0.5833(5) 0.8800(3) 0.2339(3)
C25 C 0.4674(5) 0.7447(3) 0.2724(3)
H22 H 0.4787 0.7285 0.3267
C26 C 0.3976(5) 0.6920(3) 0.2523(3)
C27 C 0.3767(5) 0.7179(3) 0.1714(3)
H23 H 0.3289 0.6836 0.1579
C28 C 0.3409(6) 0.6103(3) 0.3192(3)
C29 C 0.6347(6) 0.6058(3) -0.1930(3)
C30 C 0.6114(5) 0.7179(3) -0.3393(3)
H24 H 0.6429 0.6788 -0.3565
C31 C 0.5955(5) 0.6946(3) -0.2566(3)
C32 C 0.5514(5) 0.7531(3) -0.2307(3)
H25 H 0.5430 0.7375 -0.1754
C33 C 0.5197(5) 0.8348(3) -0.2867(3)
C34 C 0.5325(5) 0.8577(3) -0.3704(3)
H26 H 0.5087 0.9119 -0.4081
C35 C 0.5804(5) 0.7999(3) -0.3966(3)
C36 C 0.6096(6) 0.8261(3) -0.4858(3)
C37 C 0.4709(5) 0.8977(3) -0.2592(3)
C38 C 1.4784(6) 0.6059(4) 0.5342(3)
H27 H 1.5312 0.6564 0.5032
H28 H 1.4329 0.5931 0.4980
H29 H 1.5417 0.5608 0.5645
C39 C 1.3686(5) 0.6176(3) 0.5917(3)
C40 C 1.2501(6) 0.6095(3) 0.7015(3)
C41 C 1.1993(7) 0.5914(4) 0.7809(4)
H30 H 1.2509 0.5578 0.8250
C42 C 1.0714(7) 0.6251(4) 0.7906(4)
H31 H 1.0372 0.6161 0.8425
C43 C 0.9900(7) 0.6724(4) 0.7262(4)
H32 H 0.9012 0.6921 0.7363
C44 C 1.0374(6) 0.6907(4) 0.6480(4)
H33 H 0.9832 0.7230 0.6047
C45 C 1.1716(6) 0.6585(3) 0.6362(3)
C46 C 1.2090(6) 0.7138(3) 0.4837(3)
H34 H 1.1070 0.7225 0.4846
H35 H 1.2356 0.6840 0.4526
C47 C 1.2345(6) 0.8549(4) 0.3575(3)
H36 H 1.3054 0.8974 0.3272
H37 H 1.2297 0.8220 0.3293
C48 C 1.2815(6) 0.7979(3) 0.4428(3)
H38 H 1.3834 0.7889 0.4390
H39 H 1.2603 0.8256 0.4763
C49 C 0.9466(7) 0.8100(4) 0.3246(4)
H40 H 0.8604 0.7817 0.3534
H41 H 1.0248 0.7708 0.3399
H42 H 0.9395 0.8337 0.2671
C50 C 0.9694(6) 0.8763(3) 0.3450(3)
C51 C 0.9325(5) 0.9839(3) 0.3689(3)
C52 C 0.8759(7) 1.0486(4) 0.3822(4)
H43 H 0.7792 1.0609 0.3815
C53 C 0.9700(8) 1.0946(4) 0.3968(5)
H44 H 0.9360 1.1398 0.4046
C54 C 1.1151(8) 1.0744(5) 0.4000(5)
H45 H 1.1748 1.1065 0.4103
C55 C 1.1713(7) 1.0096(4) 0.3887(4)
H46 H 1.2677 0.9964 0.3911
C56 C 1.0768(6) 0.9639(4) 0.3730(3)
Zn1A Zn 0.64357(6) 1.07187(3) 0.12946(3)
Zn2_2 Zn 0.65832(6) 0.91931(3) -0.64248(3)
Zn2A Zn 0.34168(6) 1.08069(3) -0.35752(3)
Zn3_2 Zn -0.51099(6) 0.49966(3) 0.25516(3)
Zn3A Zn 0.51099(6) 0.50034(3) -0.25516(3)
Zn3A_2 Zn 1.51099(6) 0.50034(3) 0.74484(3)
O5A O 0.3714(4) 1.0519(2) -0.1783(2)
O7A O 0.3595(4) 0.4507(2) 0.2162(2)
O9_2 O 0.5701(4) 0.8997(2) 0.4649(2)
O11A O 0.5861(5) 1.0371(2) 0.3086(2)
N1_2 N 0.6110(5) 0.5881(3) 0.1664(2)
N8A N 0.6257(5) 0.4158(3) 0.3287(3)
O13 O 0.2035(7) 0.4739(4) 0.5368(4)
O14 O 0.1369(7) 0.3491(4) 0.4959(4)
O15 O 0.8209(15) 0.4774(7) 0.0068(5)
O16 O 0.1077(8) 0.5537(5) 0.1915(6)
O17 O 0.1184(10) 0.6619(7) 0.0306(6)
O18 O 0.0257(9) 0.4894(5) 0.3748(5)
loop_
_geom_bond_atom_site_label_1
_geom_bond_atom_site_label_2
_geom_bond_site_symmetry_1
_geom_bond_site_symmetry_2
Zn1 O4 1_555 1_555
Zn2 O6 1_555 1_555
Zn3 O1 1_555 1_555
O1 C28 1_555 1_555
O2 C28 1_555 1_555
O3 C20 1_555 1_555
O4 C20 1_555 1_555
O5 C24 1_555 1_555
O6 C24 1_555 1_555
O7 C29 1_555 1_555
O8 C29 1_555 1_555
O9 C36 1_555 1_555
O10 C36 1_555 1_555
O11 C37 1_555 1_555
O12 Zn1 1_555 1_555
N1 C17 1_555 1_555
N2 C11 1_555 1_555
N3 C2 1_555 1_555
N4 Zn1 1_555 1_555
N5 Zn2 1_555 1_555
N6 C47 1_555 1_555
N7 C39 1_555 1_555
N8 C39 1_555 1_555
C1 H1 1_555 1_555
H2 C1 1_555 1_555
H3 C1 1_555 1_555
C2 N4 1_555 1_555
C3 N4 1_555 1_555
C4 C3 1_555 1_555
H4 C4 1_555 1_555
C5 C4 1_555 1_555
H5 C5 1_555 1_555
C6 C5 1_555 1_555
H6 C6 1_555 1_555
C7 C6 1_555 1_555
H7 C7 1_555 1_555
C8 N3 1_555 1_555
C9 N3 1_555 1_555
H8 C9 1_555 1_555
H9 C9 1_555 1_555
C10 C9 1_555 1_555
H10 C10 1_555 1_555
H11 C10 1_555 1_555
C11 C10 1_555 1_555
H12 C11 1_555 1_555
H13 C11 1_555 1_555
C12 H14 1_555 1_555
C13 C12 1_555 1_555
H15 C13 1_555 1_555
C14 N2 1_555 1_555
C15 H16 1_555 1_555
C16 C12 1_555 1_555
H17 C16 1_555 1_555
C17 C14 1_555 1_555
C18 N1 1_555 1_555
C19 C18 1_555 1_555
H18 C19 1_555 1_555
H19 C19 1_555 1_555
H20 C19 1_555 1_555
C20 C21 1_555 1_555
C21 C22 1_555 1_555
C22 H21 1_555 1_555
C23 C22 1_555 1_555
C24 C23 1_555 1_555
C25 C23 1_555 1_555
H22 C25 1_555 1_555
C26 C25 1_555 1_555
C27 C21 1_555 1_555
H23 C27 1_555 1_555
C28 C26 1_555 1_555
C29 C31 1_555 1_555
C30 H24 1_555 1_555
C31 C30 1_555 1_555
C32 C31 1_555 1_555
H25 C32 1_555 1_555
C33 C32 1_555 1_555
C34 C33 1_555 1_555
H26 C34 1_555 1_555
C35 C30 1_555 1_555
C36 C35 1_555 1_555
C37 O12 1_555 1_555
C38 H27 1_555 1_555
H28 C38 1_555 1_555
H29 C38 1_555 1_555
C39 C38 1_555 1_555
C40 N8 1_555 1_555
C41 C40 1_555 1_555
H30 C41 1_555 1_555
C42 C41 1_555 1_555
H31 C42 1_555 1_555
C43 C42 1_555 1_555
H32 C43 1_555 1_555
C44 C43 1_555 1_555
H33 C44 1_555 1_555
C45 N7 1_555 1_555
C46 N7 1_555 1_555
H34 C46 1_555 1_555
H35 C46 1_555 1_555
C47 H36 1_555 1_555
H37 C47 1_555 1_555
C48 C46 1_555 1_555
H38 C48 1_555 1_555
H39 C48 1_555 1_555
C49 H40 1_555 1_555
H41 C49 1_555 1_555
H42 C49 1_555 1_555
C50 N5 1_555 1_555
C51 N5 1_555 1_555
C52 C51 1_555 1_555
H43 C52 1_555 1_555
C53 C52 1_555 1_555
H44 C53 1_555 1_555
C54 C53 1_555 1_555
H45 C54 1_555 1_555
C55 C54 1_555 1_555
H46 C55 1_555 1_555
C56 N6 1_555 1_555
Zn1A O5 1_555 1_555
Zn2_2 O9 1_555 1_555
Zn2A O11 1_555 1_555
Zn3_2 N1 1_555 1_555
Zn3A O7 1_555 1_555
Zn3A_2 N8 1_555 1_555
O5A Zn1 1_555 1_555
O7A Zn3 1_555 1_555
O9_2 Zn2 1_555 1_555
O11A Zn2 1_555 1_555
N1_2 Zn3 1_555 1_555
N8A Zn3 1_555 1_555
N2 C18 1_555 1_555
N6 C50 1_555 1_555
C1 C2 1_555 1_555
C3 C8 1_555 1_555
C7 C8 1_555 1_555
C13 C14 1_555 1_555
C15 C16 1_555 1_555
C15 C17 1_555 1_555
C26 C27 1_555 1_555
C33 C37 1_555 1_555
C34 C35 1_555 1_555
C40 C45 1_555 1_555
C44 C45 1_555 1_555
C47 C48 1_555 1_555
C49 C50 1_555 1_555
C51 C56 1_555 1_555
C55 C56 1_555 1_555

#END
