
#######################################################################
#
#                 Cambridge Crystallographic Data Centre
#                                CCDC 
#
#######################################################################
#
# If this CIF has been generated from an entry in the Cambridge 
# Structural Database, then it will include bibliographic, chemical, 
# crystal, experimental, refinement or atomic coordinate data resulting 
# from the CCDC's data processing and validation procedures.
#
#######################################################################

data_ZUQBOE
_chemical_formula_moiety         'C30 H20 Fe5 N10'
_symmetry_cell_setting           tetragonal
_symmetry_space_group_name_H-M   'I 4/m c m'
_symmetry_Int_Tables_number      140
_space_group_name_Hall           '-I 4 2c'
loop_
_symmetry_equiv_pos_site_id
_symmetry_equiv_pos_as_xyz
1 x,y,z
2 -x,-y,z
3 -y,x,z
4 y,-x,z
5 -x,y,1/2-z
6 x,-y,1/2-z
7 y,x,1/2-z
8 -y,-x,1/2-z
9 1/2+x,1/2+y,1/2+z
10 1/2-x,1/2-y,1/2+z
11 1/2-y,1/2+x,1/2+z
12 1/2+y,1/2-x,1/2+z
13 1/2-x,1/2+y,-z
14 1/2+x,1/2-y,-z
15 1/2+y,1/2+x,-z
16 1/2-y,1/2-x,-z
17 -x,-y,-z
18 x,y,-z
19 y,-x,-z
20 -y,x,-z
21 x,-y,1/2+z
22 -x,y,1/2+z
23 -y,-x,1/2+z
24 y,x,1/2+z
25 1/2-x,1/2-y,1/2-z
26 1/2+x,1/2+y,1/2-z
27 1/2+y,1/2-x,1/2-z
28 1/2-y,1/2+x,1/2-z
29 1/2+x,1/2-y,z
30 1/2-x,1/2+y,z
31 1/2-y,1/2-x,z
32 1/2+y,1/2+x,z
_cell_length_a                   12.340(2)
_cell_length_b                   12.340(2)
_cell_length_c                   22.852(4)
_cell_angle_alpha                90
_cell_angle_beta                 90
_cell_angle_gamma                90
_cell_volume                     3479.8
loop_
_atom_site_label
_atom_site_type_symbol
_atom_site_fract_x
_atom_site_fract_y
_atom_site_fract_z
Fe1 Fe 0.5000 0.5000 0.5000
N1 N 0.6388(4) 0.6023(4) 0.5000
C1 C 0.7259(4) 0.6356(4) 0.5000
C2 C 0.8345(5) 0.6655(5) 0.5000
C3 C 0.9187(5) 0.5813(5) 0.5000
C4 C 1.0291(5) 0.6078(5) 0.5000
H1 H 1.0500 0.6819 0.5000
N2 N 0.5000 0.5000 0.4041(4)
C5 C 0.4767(10) 0.4112(9) 0.3742(4)
H2 H 0.4610 0.3469 0.3953
C6 C 0.4741(10) 0.4073(9) 0.3143(5)
H3 H 0.4549 0.3422 0.2948
C7 C 0.5000 0.5000 0.2824(5)
N1N N 1.1023(4) 0.1388(4) 0.5000
C1N C 1.1356(4) 0.2259(4) 0.5000
C2A C 1.1655(5) 0.3345(5) 0.5000
C3A C 1.0813(5) 0.4187(5) 0.5000
C4N C 1.1078(5) 0.5291(5) 0.5000
H1N H 1.1819 0.5500 0.5000
N1O N 0.8977(4) 0.8612(4) 0.5000
C1O C 0.8644(4) 0.7741(4) 0.5000
C4O C 0.8922(5) 0.4709(5) 0.5000
H1O H 0.8181 0.4500 0.5000
N1A N 1.3612(4) 0.3977(4) 0.5000
C1A C 1.2741(4) 0.3644(4) 0.5000
C4A C 0.9709(5) 0.3922(5) 0.5000
H1A H 0.9500 0.3181 0.5000
C5A C 0.5233(10) 0.5888(9) 0.3742(4)
H2A H 0.5390 0.6531 0.3953
C6A C 0.5259(10) 0.5927(9) 0.3143(5)
H3A H 0.5451 0.6578 0.2948
C5B C 0.5888(9) 0.4767(10) 0.3742(4)
H2B H 0.6531 0.4610 0.3953
C6B C 0.5927(9) 0.4741(10) 0.3143(5)
H3B H 0.6578 0.4549 0.2948
C5C C 0.4112(9) 0.5233(10) 0.3742(4)
H2C H 0.3469 0.5390 0.3953
C6C C 0.4073(9) 0.5259(10) 0.3143(5)
H3C H 0.3422 0.5451 0.2948
N2D N 0.5000 0.5000 0.0959(4)
C5D C 0.5233(10) 0.4112(9) 0.1258(4)
H2D H 0.5390 0.3469 0.1047
C6D C 0.5259(10) 0.4073(9) 0.1857(5)
H3D H 0.5451 0.3422 0.2052
C7D C 0.5000 0.5000 0.2176(5)
C5E C 0.4767(10) 0.5888(9) 0.1258(4)
H2E H 0.4610 0.6531 0.1047
C6E C 0.4741(10) 0.5927(9) 0.1857(5)
H3E H 0.4549 0.6578 0.2052
C5F C 0.4112(9) 0.4767(10) 0.1258(4)
H2F H 0.3469 0.4610 0.1047
C6F C 0.4073(9) 0.4741(10) 0.1857(5)
H3F H 0.3422 0.4549 0.2052
C5G C 0.5888(9) 0.5233(10) 0.1258(4)
H2G H 0.6531 0.5390 0.1047
C6G C 0.5927(9) 0.5259(10) 0.1857(5)
H3G H 0.6578 0.5451 0.2052
Fe1_2 Fe 1.5000 0.5000 0.5000
Fe1D Fe 0.5000 0.5000 0.0000
Fe1L Fe 1.0000 0.0000 0.5000
Fe1L_2 Fe 1.0000 1.0000 0.5000
N1A_2 N 0.3612(4) 0.3977(4) 0.5000
N1B N 0.3977(4) 0.6388(4) 0.5000
N1C N 0.6023(4) 0.3612(4) 0.5000
N2P N 0.5000 0.5000 0.5959(4)
loop_
_geom_bond_atom_site_label_1
_geom_bond_atom_site_label_2
_geom_bond_site_symmetry_1
_geom_bond_site_symmetry_2
Fe1 N1 1_555 1_555
N1 C1 1_555 1_555
C1 C2 1_555 1_555
C2 C3 1_555 1_555
C3 C4 1_555 1_555
C4 H1 1_555 1_555
N2 Fe1 1_555 1_555
C5 N2 1_555 1_555
H2 C5 1_555 1_555
C6 C5 1_555 1_555
H3 C6 1_555 1_555
C7 C6 1_555 1_555
N1N C1N 1_555 1_555
C1N C2A 1_555 1_555
C2A C3A 1_555 1_555
C3A C4N 1_555 1_555
C4N C4 1_555 1_555
H1N C4N 1_555 1_555
N1O C1O 1_555 1_555
C1O C2 1_555 1_555
C4O C3 1_555 1_555
H1O C4O 1_555 1_555
N1A C1A 1_555 1_555
C1A C2A 1_555 1_555
C4A C3A 1_555 1_555
H1A C4A 1_555 1_555
C5A N2 1_555 1_555
H2A C5A 1_555 1_555
C6A C7 1_555 1_555
H3A C6A 1_555 1_555
C5B N2 1_555 1_555
H2B C5B 1_555 1_555
C6B C6 1_555 1_555
H3B C6B 1_555 1_555
C5C N2 1_555 1_555
H2C C5C 1_555 1_555
C6C C6 1_555 1_555
H3C C6C 1_555 1_555
N2D C5D 1_555 1_555
C5D H2D 1_555 1_555
C6D C5D 1_555 1_555
H3D C6D 1_555 1_555
C7D C7 1_555 1_555
C5E N2D 1_555 1_555
H2E C5E 1_555 1_555
C6E C7D 1_555 1_555
H3E C6E 1_555 1_555
C5F N2D 1_555 1_555
H2F C5F 1_555 1_555
C6F C6D 1_555 1_555
H3F C6F 1_555 1_555
C5G N2D 1_555 1_555
H2G C5G 1_555 1_555
C6G C6D 1_555 1_555
H3G C6G 1_555 1_555
Fe1_2 N1A 1_555 1_555
Fe1D N2D 1_555 1_555
Fe1L N1N 1_555 1_555
Fe1L_2 N1O 1_555 1_555
N1A_2 Fe1 1_555 1_555
N1B Fe1 1_555 1_555
N1C Fe1 1_555 1_555
N2P Fe1 1_555 1_555
C5 C5B 1_555 1_555
C5 C5C 1_555 1_555
C7 C6B 1_555 1_555
C7 C6C 1_555 1_555
C4O C4A 1_555 1_555
C5A C6A 1_555 1_555
C5A C5B 1_555 1_555
C5A C5C 1_555 1_555
C6A C6B 1_555 1_555
C6A C6C 1_555 1_555
C5B C6B 1_555 1_555
C5C C6C 1_555 1_555
C5D C5F 1_555 1_555
C5D C5G 1_555 1_555
C6D C7D 1_555 1_555
C7D C6F 1_555 1_555
C7D C6G 1_555 1_555
C5E C6E 1_555 1_555
C5E C5F 1_555 1_555
C5E C5G 1_555 1_555
C6E C6F 1_555 1_555
C6E C6G 1_555 1_555
C5F C6F 1_555 1_555
C5G C6G 1_555 1_555

#END
