
#######################################################################
#
#                 Cambridge Crystallographic Data Centre
#                                CCDC 
#
#######################################################################
#
# If this CIF has been generated from an entry in the Cambridge 
# Structural Database, then it will include bibliographic, chemical, 
# crystal, experimental, refinement or atomic coordinate data resulting 
# from the CCDC's data processing and validation procedures.
#
#######################################################################

data_PEDMOB
_chemical_formula_moiety         '(C22 H31 Cu2 N2 O13 P3)n'
_symmetry_cell_setting           orthorhombic
_symmetry_space_group_name_H-M   'P b a m'
_symmetry_Int_Tables_number      55
_space_group_name_Hall           '-P 2 2ab'
loop_
_symmetry_equiv_pos_site_id
_symmetry_equiv_pos_as_xyz
1 x,y,z
2 -x,-y,z
3 1/2-x,1/2+y,-z
4 1/2+x,1/2-y,-z
5 -x,-y,-z
6 x,y,-z
7 1/2+x,1/2-y,z
8 1/2-x,1/2+y,z
_cell_length_a                   20.3854(16)
_cell_length_b                   7.9172(6)
_cell_length_c                   17.7768(14)
_cell_angle_alpha                90
_cell_angle_beta                 90
_cell_angle_gamma                90
_cell_volume                     2869.09
loop_
_atom_site_label
_atom_site_type_symbol
_atom_site_fract_x
_atom_site_fract_y
_atom_site_fract_z
N1 N 0.0170(2) 0.7104(7) 0.2125(2)
Cu1 Cu 0.04861(2) 0.66969(7) 0.10622(3)
P1 P 0.19935(5) 0.72888(14) 0.15514(6)
P2 P 0.42845(7) 0.8803(2) 0.0000
O1 O 0.13714(13) 0.6308(4) 0.13903(16)
O2 O 0.17710(14) 0.9116(4) 0.17835(17)
H1 H 0.2103 0.9709 0.1876
O3 O 0.24365(14) 0.6505(4) 0.21340(17)
O4 O 0.45871(14) 0.8170(4) -0.0723(2)
O5 O 0.42993(19) 1.0756(5) 0.0000
O6 O 0.07016(17) 0.9397(4) 0.0760(2)
H2 H 0.0364 1.0009 0.0826
H3 H 0.101(3) 0.970(7) 0.102(3)
C1 C 0.2441(2) 0.7516(5) 0.0681(2)
C2 C 0.2115(3) 0.7320(8) 0.0000
C3 C 0.3110(2) 0.7917(5) 0.0677(3)
H4 H 0.3342 0.8039 0.1144
C4 C 0.3439(3) 0.8133(7) 0.0000
C5 C 0.0391(5) 0.765(2) 0.3454(5)
H5 H 0.0667 0.7383 0.3875
C6 C -0.0203(5) 0.8434(16) 0.3559(5)
C7 C -0.0602(5) 0.8600(17) 0.2933(6)
H6 H -0.1001 0.9241 0.2962
C8 C -0.0457(7) 0.914(2) 0.4298(5)
H7 H -0.0920 0.8921 0.4327
H8 H -0.0397 1.0339 0.4303
C9 C 0.0573(8) 0.717(2) 0.2774(10)
H9 H 0.1030 0.6955 0.2690
C16 C -0.0121(8) 0.839(3) 0.5000
C17 C -0.0426(3) 0.7795(11) 0.2240(3)
H17 H -0.068(3) 0.799(6) 0.182(3)
H18 H 0.174(3) 0.691(8) 0.0000
N1E N 0.0170(2) 0.7104(7) 0.7875(2)
Cu1E Cu 0.04861(2) 0.66969(7) 0.89378(3)
Cu1C Cu 0.54861(2) 0.83031(7) -0.10622(3)
Cu1G Cu 0.45139(2) 1.16969(7) 0.10622(3)
Cu1B Cu 0.45139(2) 1.16969(7) -0.10622(3)
Cu1E_2 Cu 0.04861(2) 0.66969(7) -0.10622(3)
Cu1F Cu 0.54861(2) 0.83031(7) 0.10622(3)
P1E P 0.19935(5) 0.72888(14) -0.15514(6)
O1E O 0.13714(13) 0.6308(4) -0.13903(16)
O1E_2 O 0.13714(13) 0.6308(4) 0.86097(16)
O2E O 0.17710(14) 0.9116(4) -0.17835(17)
H1E H 0.2103 0.9709 -0.1876
O3E O 0.24365(14) 0.6505(4) -0.21340(17)
O4E O 0.45871(14) 0.8170(4) 0.0723(2)
O4C O -0.04129(14) 0.6830(4) 0.0723(2)
O4F O -0.04129(14) 0.6830(4) 0.9277(2)
O5G O 0.07007(19) 0.5756(5) 0.0000
O5G_2 O 0.07007(19) 0.5756(5) 1.0000
O6E O 0.07016(17) 0.9397(4) 0.9240(2)
H2E H 0.0364 1.0009 0.9174
H3E H 0.101(3) 0.970(7) 0.898(3)
C1E C 0.2441(2) 0.7516(5) -0.0681(2)
C3E C 0.3110(2) 0.7917(5) -0.0677(3)
H4E H 0.3342 0.8039 -0.1144
C5E C 0.0391(5) 0.765(2) 0.6546(5)
H5E H 0.0667 0.7383 0.6125
C6E C -0.0203(5) 0.8434(16) 0.6441(5)
C7E C -0.0602(5) 0.8600(17) 0.7067(6)
H6E H -0.1001 0.9241 0.7038
C8E C -0.0457(7) 0.914(2) 0.5702(5)
H7E H -0.0920 0.8921 0.5673
H8E H -0.0397 1.0339 0.5697
C9E C 0.0573(8) 0.717(2) 0.7226(10)
H9E H 0.1030 0.6955 0.7310
C17E C -0.0426(3) 0.7795(11) 0.7760(3)
H17E H -0.068(3) 0.799(6) 0.818(3)
C18 C 0.2010(14) 0.862(4) 0.5000
C19 C 0.198(2) 0.931(6) 0.430(2)
H14 H 0.2242 1.0349 0.4292
H15 H 0.1524 0.9574 0.4180
H16 H 0.2155 0.8507 0.3935
O7 O 0.1639(18) 0.715(5) 0.5000
C19E C 0.198(2) 0.931(6) 0.570(2)
H14E H 0.2242 1.0349 0.5708
H15E H 0.1524 0.9574 0.5820
H16E H 0.2155 0.8507 0.6065
O8 O 0.2201(13) 0.583(4) 0.3603(14)
H20 H 0.2709 0.6485 0.3690
loop_
_geom_bond_atom_site_label_1
_geom_bond_atom_site_label_2
_geom_bond_site_symmetry_1
_geom_bond_site_symmetry_2
N1 Cu1 1_555 1_555
Cu1 O1 1_555 1_555
P1 O1 1_555 1_555
P2 O4 1_555 1_555
O2 P1 1_555 1_555
H1 O2 1_555 1_555
O3 P1 1_555 1_555
O4 Cu1C 1_555 1_555
O5 P2 1_555 1_555
O6 Cu1 1_555 1_555
H2 O6 1_555 1_555
H3 O6 1_555 1_555
C1 P1 1_555 1_555
C2 C1 1_555 1_555
C3 C1 1_555 1_555
H4 C3 1_555 1_555
C4 P2 1_555 1_555
C5 H5 1_555 1_555
C6 C5 1_555 1_555
C7 C6 1_555 1_555
H6 C7 1_555 1_555
C8 C6 1_555 1_555
H7 C8 1_555 1_555
H8 C8 1_555 1_555
C9 N1 1_555 1_555
H9 C9 1_555 1_555
C16 C8 1_555 1_555
C17 N1 1_555 1_555
C18 C19 1_555 1_555
C19 H14 1_555 1_555
H15 C19 1_555 1_555
H16 C19 1_555 1_555
O7 C18 1_555 1_555
H17 C17 1_555 1_555
H18 C2 1_555 1_555
O8 H20 1_555 1_555
N1E Cu1E 1_555 1_555
Cu1E O1E_2 1_555 1_555
Cu1G O5 1_555 1_555
Cu1B O5 1_555 1_555
Cu1E_2 O1E 1_555 1_555
Cu1F O4E 1_555 1_555
P1E O1E 1_555 1_555
O2E P1E 1_555 1_555
H1E O2E 1_555 1_555
O3E P1E 1_555 1_555
O4E P2 1_555 1_555
O4C Cu1 1_555 1_555
O4F Cu1E 1_555 1_555
O5G Cu1 1_555 1_555
O5G_2 Cu1E 1_555 1_555
O6E Cu1E 1_555 1_555
H2E O6E 1_555 1_555
H3E O6E 1_555 1_555
C1E C2 1_555 1_555
C3E C4 1_555 1_555
H4E C3E 1_555 1_555
C5E H5E 1_555 1_555
C6E C5E 1_555 1_555
C7E C6E 1_555 1_555
H6E C7E 1_555 1_555
C8E C16 1_555 1_555
H7E C8E 1_555 1_555
H8E C8E 1_555 1_555
C9E N1E 1_555 1_555
H9E C9E 1_555 1_555
C17E N1E 1_555 1_555
C19E C18 1_555 1_555
H14E C19E 1_555 1_555
H15E C19E 1_555 1_555
H16E C19E 1_555 1_555
H17E C17E 1_555 1_555
C3 C4 1_555 1_555
C5 C9 1_555 1_555
C7 C17 1_555 1_555
Cu1E_2 O5G 1_555 1_555
P1E C1E 1_555 1_555
C1E C3E 1_555 1_555
C5E C9E 1_555 1_555
C6E C8E 1_555 1_555
C7E C17E 1_555 1_555

#END
