
#######################################################################
#
#                 Cambridge Crystallographic Data Centre
#                                CCDC 
#
#######################################################################
#
# If this CIF has been generated from an entry in the Cambridge 
# Structural Database, then it will include bibliographic, chemical, 
# crystal, experimental, refinement or atomic coordinate data resulting 
# from the CCDC's data processing and validation procedures.
#
#######################################################################

data_AHOZAA
_chemical_formula_moiety         '(C29 H30 Cd2 N2 O13)n'
_symmetry_cell_setting           orthorhombic
_symmetry_space_group_name_H-M   'P b c n'
_symmetry_Int_Tables_number      60
_space_group_name_Hall           '-P 2n 2ab'
loop_
_symmetry_equiv_pos_site_id
_symmetry_equiv_pos_as_xyz
1 x,y,z
2 1/2-x,1/2-y,1/2+z
3 -x,y,1/2-z
4 1/2+x,1/2-y,-z
5 -x,-y,-z
6 1/2+x,1/2+y,1/2-z
7 x,-y,1/2+z
8 1/2-x,1/2+y,z
_cell_length_a                   21.9718(9)
_cell_length_b                   17.3189(7)
_cell_length_c                   17.7104(10)
_cell_angle_alpha                90
_cell_angle_beta                 90
_cell_angle_gamma                90
_cell_volume                     6739.29
loop_
_atom_site_label
_atom_site_type_symbol
_atom_site_fract_x
_atom_site_fract_y
_atom_site_fract_z
_atom_site_U_iso_or_equiv
_atom_site_thermal_displace_type
Cd1 Cd 0.37679(4) 0.53771(4) 0.06949(5) 0.0536 Uani
Cd2 Cd 0.24217(3) 0.59084(4) -0.03235(4) 0.0402 Uani
O1 O 0.2675(3) 0.5166(4) 0.0860(4) 0.0503 Uani
O2 O 0.2099(4) 0.4633(4) -0.0019(4) 0.0630 Uani
O3 O 0.1971(4) 0.4240(5) 0.3470(4) 0.0703 Uani
O4 O 0.2507(3) 0.3172(5) 0.3649(4) 0.0617 Uani
O5 O 0.1375(3) 0.1461(3) 0.1313(4) 0.0477 Uani
O6 O 0.1936(4) 0.1732(4) 0.0312(4) 0.0590 Uani
O7 O 0.1083(6) 0.0590(5) 0.4861(6) 0.1250 Uani
O8 O 0.1676(4) -0.0272(4) 0.4357(5) 0.0647 Uani
N1 N 0.3956(5) 0.4584(6) 0.1688(6) 0.0697 Uani
N2 N 0.6573(5) 0.1401(5) 0.4718(5) 0.0697 Uani
C1 C 0.2224(5) 0.3954(5) 0.1132(5) 0.0403 Uani
C2 C 0.2079(4) 0.3237(5) 0.0853(5) 0.0353 Uani
H1 H 0.2066 0.3164 0.0333 0.0420 Uiso
C3 C 0.1952(4) 0.2617(5) 0.1326(5) 0.0347 Uani
C4 C 0.1980(4) 0.2716(5) 0.2116(5) 0.0350 Uani
C5 C 0.2143(5) 0.3456(6) 0.2400(5) 0.0430 Uani
C6 C 0.2260(5) 0.4051(6) 0.1905(5) 0.0477 Uani
H2 H 0.2366 0.4533 0.2096 0.0570 Uiso
C7 C 0.2348(5) 0.4623(6) 0.0613(5) 0.0437 Uani
C8 C 0.2215(5) 0.3615(7) 0.3235(6) 0.0540 Uani
C9 C 0.1749(5) 0.1880(5) 0.0954(5) 0.0393 Uani
C10 C 0.1436(7) 0.0380(6) 0.4351(7) 0.0657 Uani
C11 C 0.1576(6) 0.0954(5) 0.3727(6) 0.0527 Uani
C12 C 0.2059(6) 0.0860(6) 0.3241(7) 0.0613 Uani
H3 H 0.2295 0.0416 0.3273 0.0740 Uiso
C13 C 0.2198(5) 0.1416(6) 0.2705(6) 0.0550 Uani
H4 H 0.2528 0.1346 0.2382 0.0660 Uiso
C14 C 0.1844(5) 0.2076(5) 0.2652(5) 0.0383 Uani
C15 C 0.1349(5) 0.2157(5) 0.3134(6) 0.0433 Uani
H5 H 0.1101 0.2590 0.3095 0.0520 Uiso
C16 C 0.1222(5) 0.1605(5) 0.3666(6) 0.0493 Uani
H6 H 0.0892 0.1671 0.3989 0.0590 Uiso
C17 C 0.3764(7) 0.3838(8) 0.1651(10) 0.0910 Uani
H7 H 0.3611 0.3651 0.1197 0.1090 Uiso
C18 C 0.3790(7) 0.3341(10) 0.2279(12) 0.1103 Uani
H8 H 0.3650 0.2835 0.2243 0.1330 Uiso
C19 C 0.4034(6) 0.3625(8) 0.2967(7) 0.0927 Uani
C20 C 0.4242(7) 0.4360(11) 0.2970(9) 0.0987 Uani
H9 H 0.4421 0.4557 0.3406 0.1180 Uiso
C21 C 0.4192(6) 0.4825(10) 0.2336(8) 0.0840 Uani
H10 H 0.4332 0.5331 0.2367 0.1010 Uiso
C22 C 0.4078(7) 0.3234(14) 0.3734(9) 0.0890 Uani
H11 H 0.3890 0.3578 0.4098 0.1070 Uiso
H12 H 0.3826 0.2774 0.3712 0.1070 Uiso
C23 C 0.4687(7) 0.2992(11) 0.4058(13) 0.0947 Uani
H13 H 0.4634 0.2836 0.4579 0.1140 Uiso
H14 H 0.4963 0.3429 0.4048 0.1140 Uiso
C24 C 0.4964(7) 0.2330(12) 0.3614(12) 0.0950 Uani
H15 H 0.5057 0.2500 0.3106 0.1140 Uiso
H16 H 0.4673 0.1910 0.3581 0.1140 Uiso
C25 C 0.6404(7) 0.1254(14) 0.4006(8) 0.0873 Uani
H17 H 0.6657 0.0929 0.3730 0.1050 Uiso
C26 C 0.5904(7) 0.1528(12) 0.3642(12) 0.0917 Uani
H18 H 0.5813 0.1362 0.3156 0.1100 Uiso
C27 C 0.5542(8) 0.2047(11) 0.3996(10) 0.0887 Uani
C28 C 0.6350(7) 0.2078(10) 0.4934(13) 0.0877 Uani
H19 H 0.6553 0.2377 0.5290 0.1050 Uiso
C29 C 0.5820(8) 0.2327(14) 0.4624(11) 0.0910 Uani
H20 H 0.5625 0.2733 0.4868 0.1090 Uiso
O9 O 0.4813(4) 0.5838(6) 0.0490(5) 0.0840 Uani
H21 H 0.4892 0.6186 0.0813 0.1260 Uiso
H22 H 0.4735 0.6009 0.0073 0.1260 Uiso
Cd1A Cd 0.12321(4) -0.03771(4) 0.56949(5) 0.0536 Uani
Cd1G Cd 0.12321(4) 0.03771(4) 0.06949(5) 0.0536 Uani
Cd2A Cd 0.25783(3) -0.09084(4) 0.46765(4) 0.0402 Uani
Cd2E Cd 0.74217(3) 0.09084(4) 0.53235(4) 0.0402 Uani
Cd2F Cd 0.24217(3) 0.40916(4) 0.46765(4) 0.0402 Uani
Cd2G Cd 0.25783(3) 0.09084(4) -0.03235(4) 0.0402 Uani
O3F O 0.1971(4) 0.5760(5) -0.1530(4) 0.0703 Uani
O4F O 0.2507(3) 0.6828(5) -0.1351(4) 0.0617 Uani
O5G O 0.3625(3) 0.6461(3) 0.1313(4) 0.0477 Uani
O6G O 0.3064(4) 0.6732(4) 0.0312(4) 0.0590 Uani
O7A O 0.3917(6) 0.4410(5) -0.0139(6) 0.1250 Uani
O8A O 0.3324(4) 0.5272(4) -0.0643(5) 0.0647 Uani
N2E N 0.1573(5) 0.6401(5) 0.0282(5) 0.0697 Uani
O10 O 0.1347(10) 0.5479(17) 0.2803(13) 0.1450 Uani
H33 H 0.1046 0.5783 0.2970 0.2170 Uiso
H34 H 0.1046 0.5254 0.2755 0.2170 Uiso
O11 O 0.0252(4) 0.2008(7) 0.1749(7) 0.1197 Uani
H35 H 0.0214 0.1630 0.1991 0.1790 Uiso
H36 H -0.0050 0.2217 0.1568 0.1790 Uiso
O12 O 0.0000 0.458(3) 0.2500 0.2500 Uani
H37 H 0.0071 0.3922 0.2760 0.3780 Uiso
H37B H -0.0071 0.3922 0.2240 0.3780 Uiso
O13 O 0.4563(16) 0.021(2) 0.490(2) 0.2040 Uani
H38 H 0.4431 0.0341 0.5419 0.3060 Uiso
H39 H 0.4228 0.0460 0.4694 0.3060 Uiso
loop_
_atom_site_aniso_label
_atom_site_aniso_U_11
_atom_site_aniso_U_22
_atom_site_aniso_U_33
_atom_site_aniso_U_23
_atom_site_aniso_U_13
_atom_site_aniso_U_12
Cd1 0.0687(5) 0.0487(4) 0.0433(4) -0.0199(4) -0.0143(4) 0.0201(4)
Cd2 0.0541(4) 0.0451(4) 0.0215(3) 0.0046(3) -0.0008(3) 0.0032(3)
O1 0.071(4) 0.044(4) 0.036(4) -0.003(3) 0.006(4) -0.021(3)
O2 0.109(6) 0.055(4) 0.025(4) 0.011(4) -0.010(4) -0.023(4)
O3 0.105(6) 0.073(5) 0.033(4) -0.014(4) -0.007(4) 0.004(5)
O4 0.071(5) 0.088(5) 0.026(4) -0.003(4) -0.013(4) -0.011(4)
O5 0.068(4) 0.031(3) 0.044(4) -0.006(3) 0.005(4) -0.004(3)
O6 0.117(6) 0.032(3) 0.028(4) -0.002(3) 0.002(4) 0.010(4)
O7 0.256(13) 0.059(5) 0.060(6) 0.033(5) 0.061(7) 0.049(7)
O8 0.093(6) 0.040(4) 0.061(5) 0.012(4) -0.027(5) 0.004(4)
N1 0.070(6) 0.075(6) 0.064(7) -0.005(6) -0.011(6) 0.025(5)
N2 0.074(6) 0.081(6) 0.054(6) -0.020(6) -0.020(5) 0.023(5)
C1 0.058(6) 0.038(5) 0.025(5) -0.001(4) 0.007(4) -0.013(4)
C2 0.049(5) 0.042(5) 0.015(4) 0.001(4) 0.004(4) -0.004(4)
C3 0.048(5) 0.035(5) 0.021(4) 0.002(4) 0.007(4) -0.008(4)
C4 0.042(5) 0.046(5) 0.017(4) -0.003(4) 0.002(4) -0.006(4)
C5 0.059(6) 0.048(5) 0.022(5) -0.004(4) 0.004(5) -0.015(5)
C6 0.074(7) 0.043(5) 0.026(5) -0.005(5) 0.004(5) -0.021(5)
C7 0.057(6) 0.050(5) 0.024(5) -0.001(5) 0.009(5) -0.016(5)
C8 0.059(7) 0.081(8) 0.022(5) 0.000(5) -0.005(5) -0.024(6)
C9 0.060(6) 0.036(5) 0.022(4) -0.003(4) -0.005(5) 0.013(4)
C10 0.111(10) 0.041(5) 0.045(7) 0.016(6) 0.001(7) 0.003(6)
C11 0.092(8) 0.031(5) 0.035(5) 0.007(5) -0.004(6) 0.000(5)
C12 0.094(8) 0.044(6) 0.046(7) 0.011(5) -0.012(7) 0.023(6)
C13 0.071(7) 0.061(6) 0.033(6) 0.005(5) 0.004(6) 0.019(6)
C14 0.055(6) 0.036(5) 0.024(5) 0.002(4) -0.004(5) -0.001(4)
C15 0.061(6) 0.029(4) 0.040(6) 0.008(4) 0.001(5) 0.001(4)
C16 0.078(7) 0.033(5) 0.037(6) 0.007(5) 0.006(6) 0.001(5)
C17 0.090(10) 0.070(8) 0.113(13) 0.015(9) -0.020(10) 0.021(8)
C18 0.098(11) 0.092(10) 0.141(17) 0.033(11) 0.001(12) 0.030(9)
C19 0.065(8) 0.136(12) 0.077(10) 0.040(10) 0.007(8) 0.044(8)
C20 0.078(9) 0.145(14) 0.073(10) 0.007(11) 0.007(9) 0.035(10)
C21 0.091(10) 0.112(11) 0.049(8) 0.003(8) -0.002(8) 0.016(9)
C22 0.103(11) 0.104(11) 0.060(11) 0.006(10) -0.007(10) 0.040(10)
C23 0.108(8) 0.106(8) 0.070(8) -0.001(8) -0.019(8) 0.046(8)
C24 0.107(8) 0.110(8) 0.068(8) -0.003(8) -0.022(8) 0.039(8)
C25 0.099(9) 0.104(9) 0.059(8) -0.003(8) -0.021(8) 0.033(8)
C26 0.107(8) 0.106(8) 0.062(8) -0.001(8) -0.022(7) 0.034(8)
C27 0.101(8) 0.100(8) 0.065(8) -0.007(7) -0.028(7) 0.038(7)
C28 0.106(9) 0.091(9) 0.066(9) -0.014(8) -0.025(8) 0.031(8)
C29 0.109(8) 0.099(8) 0.065(8) -0.011(8) -0.026(8) 0.045(7)
O9 0.061(5) 0.117(7) 0.074(6) -0.040(6) -0.015(5) 0.006(5)
Cd1A 0.0687 0.0487 0.0433 0.0199 0.0143 0.0201
Cd1G 0.0687 0.0487 0.0433 -0.0199 0.0143 -0.0201
Cd2A 0.0541 0.0451 0.0215 -0.0046 0.0008 0.0032
Cd2E 0.0541 0.0451 0.0215 -0.0046 0.0008 0.0032
Cd2F 0.0541 0.0451 0.0215 -0.0046 -0.0008 -0.0032
Cd2G 0.0541 0.0451 0.0215 0.0046 0.0008 -0.0032
O3F 0.105 0.073 0.033 0.014 -0.007 -0.004
O4F 0.071 0.088 0.026 0.003 -0.013 0.011
O5G 0.068 0.031 0.044 -0.006 -0.005 0.004
O6G 0.117 0.032 0.028 -0.002 -0.002 -0.01
O7A 0.256 0.059 0.06 -0.033 -0.061 0.049
O8A 0.093 0.04 0.061 -0.012 0.027 0.004
N2E 0.074 0.081 0.054 0.02 0.02 0.023
O10 0.110(15) 0.24(3) 0.085(17) -0.023(18) -0.032(14) 0.073(17)
O11 0.084(7) 0.156(10) 0.119(10) -0.042(9) 0.001(7) 0.015(7)
O12 0.32(7) 0.17(4) 0.26(7) 0.000 -0.06(6) 0.000
O13 0.191(16) 0.197(17) 0.224(18) 0.037(14) 0.013(13) -0.010(13)
loop_
_geom_bond_atom_site_label_1
_geom_bond_atom_site_label_2
_geom_bond_site_symmetry_1
_geom_bond_site_symmetry_2
Cd1 O1 1_555 1_555
Cd2 O1 1_555 1_555
O1 C7 1_555 1_555
O2 Cd2 1_555 1_555
O3 C8 1_555 1_555
O4 C8 1_555 1_555
O5 C9 1_555 1_555
O6 C9 1_555 1_555
O7 C10 1_555 1_555
O8 C10 1_555 1_555
N1 Cd1 1_555 1_555
N2 C25 1_555 1_555
C1 C2 1_555 1_555
C2 H1 1_555 1_555
C3 C2 1_555 1_555
C4 C3 1_555 1_555
C5 C4 1_555 1_555
C6 C1 1_555 1_555
H2 C6 1_555 1_555
C7 O2 1_555 1_555
C8 C5 1_555 1_555
C9 C3 1_555 1_555
C10 C11 1_555 1_555
C11 C12 1_555 1_555
C12 H3 1_555 1_555
C13 C12 1_555 1_555
H4 C13 1_555 1_555
C14 C4 1_555 1_555
C15 C14 1_555 1_555
H5 C15 1_555 1_555
C16 C11 1_555 1_555
H6 C16 1_555 1_555
C17 N1 1_555 1_555
H7 C17 1_555 1_555
C18 C17 1_555 1_555
H8 C18 1_555 1_555
C19 C18 1_555 1_555
C20 C19 1_555 1_555
H9 C20 1_555 1_555
C21 N1 1_555 1_555
H10 C21 1_555 1_555
C22 C19 1_555 1_555
H11 C22 1_555 1_555
H12 C22 1_555 1_555
C23 C22 1_555 1_555
H13 C23 1_555 1_555
H14 C23 1_555 1_555
C24 C23 1_555 1_555
H15 C24 1_555 1_555
H16 C24 1_555 1_555
C25 H17 1_555 1_555
C26 C25 1_555 1_555
H18 C26 1_555 1_555
C27 C24 1_555 1_555
C28 N2 1_555 1_555
H19 C28 1_555 1_555
C29 C27 1_555 1_555
H20 C29 1_555 1_555
O9 Cd1 1_555 1_555
H21 O9 1_555 1_555
H22 O9 1_555 1_555
O10 H33 1_555 1_555
H34 O10 1_555 1_555
O11 H35 1_555 1_555
H36 O11 1_555 1_555
O12 H37 1_555 1_555
O13 H38 1_555 1_555
H39 O13 1_555 1_555
Cd1A O7 1_555 1_555
Cd1G O5 1_555 1_555
Cd2A O8 1_555 1_555
Cd2E N2 1_555 1_555
Cd2F O3 1_555 1_555
Cd2G O6 1_555 1_555
O3F Cd2 1_555 1_555
O4F Cd2 1_555 1_555
O5G Cd1 1_555 1_555
O6G Cd2 1_555 1_555
O7A Cd1 1_555 1_555
O8A Cd1 1_555 1_555
N2E Cd2 1_555 1_555
H37B O12 1_555 1_555
Cd2 O8A 1_555 1_555
O4 Cd2F 1_555 1_555
O8 Cd1A 1_555 1_555
C1 C7 1_555 1_555
C5 C6 1_555 1_555
C13 C14 1_555 1_555
C15 C16 1_555 1_555
C20 C21 1_555 1_555
C26 C27 1_555 1_555
C28 C29 1_555 1_555

#END
