
#######################################################################
#
#                 Cambridge Crystallographic Data Centre
#                                CCDC 
#
#######################################################################
#
# If this CIF has been generated from an entry in the Cambridge 
# Structural Database, then it will include bibliographic, chemical, 
# crystal, experimental, refinement or atomic coordinate data resulting 
# from the CCDC's data processing and validation procedures.
#
#######################################################################

data_AHUTIH
_chemical_formula_moiety         '(C10 H16 La2 O20)n'
_symmetry_cell_setting           monoclinic
_symmetry_space_group_name_H-M   'P 21/c'
_symmetry_Int_Tables_number      14
_space_group_name_Hall           '-P 2ybc'
loop_
_symmetry_equiv_pos_site_id
_symmetry_equiv_pos_as_xyz
1 x,y,z
2 -x,1/2+y,1/2-z
3 -x,-y,-z
4 x,1/2-y,1/2+z
_cell_length_a                   6.1071(10)
_cell_length_b                   7.6962(12)
_cell_length_c                   22.702(3)
_cell_angle_alpha                90
_cell_angle_beta                 91.645(2)
_cell_angle_gamma                90
_cell_volume                     1066.59
loop_
_atom_site_label
_atom_site_type_symbol
_atom_site_fract_x
_atom_site_fract_y
_atom_site_fract_z
C1 C 0.3601(12) -0.1031(9) 0.7114(3)
C2 C 0.1825(12) 0.0370(9) 0.7137(3)
H1 H 0.0404 -0.0207 0.7173
C3 C 0.1781(12) 0.1401(10) 0.6570(3)
H2 H 0.1138 0.0673 0.6256
C4 C 0.0467(11) 0.3058(10) 0.6603(3)
C5 C 0.4162(12) -0.0751(10) 1.0008(3)
La1 La 0.45486(7) 0.00176(6) 0.853946(17)
O1 O 0.5106(8) -0.1032(6) 0.7508(2)
O2 O 0.3500(9) -0.2128(6) 0.6701(2)
O3 O 0.2202(7) 0.1435(6) 0.7653(2)
O4 O 0.3998(8) 0.1854(6) 0.6414(2)
O5 O 0.1436(8) 0.4476(6) 0.6546(2)
O6 O -0.1534(8) 0.2905(7) 0.6666(2)
O7 O 0.3764(8) -0.1323(7) 1.0520(2)
O8 O 0.3406(8) -0.1306(6) 0.9536(2)
O9 O 0.1488(8) 0.2066(7) 0.8889(2)
H3 H 0.0619 0.1428 0.9079
H4 H 0.1684 0.2976 0.9096
C1A C 0.6399(12) 0.3969(9) 0.7886(3)
C2A C 0.8175(12) 0.5370(9) 0.7863(3)
H1A H 0.9596 0.4793 0.7827
C3A C 0.8219(12) 0.6401(10) 0.8430(3)
H2A H 0.8862 0.5673 0.8744
C4A C 0.9533(11) 0.8058(10) 0.8397(3)
C5B C 0.5838(12) 0.0751(10) 0.9992(3)
La1A La 0.54514(7) 0.50176(6) 0.646054(17)
La1A_2 La 0.54514(7) -0.49824(6) 0.646054(17)
La1A_3 La -0.45486(7) 0.50176(6) 0.646054(17)
La1B La 0.54514(7) -0.00176(6) 1.146054(17)
La1_2 La 0.45486(7) 1.00176(6) 0.853946(17)
La1_3 La 1.45486(7) 1.00176(6) 0.853946(17)
O1A O 0.4894(8) 0.3968(6) 0.7492(2)
O2A O 0.6500(9) 0.2872(6) 0.8299(2)
O2_2 O 0.3500(9) 0.7872(6) 0.6701(2)
O3A O 0.7798(7) 0.6435(6) 0.7347(2)
O4A O 0.6002(8) 0.6854(6) 0.8586(2)
O4A_2 O 0.6002(8) -0.3146(6) 0.8586(2)
O5A O 0.8564(8) 0.9476(6) 0.8454(2)
O5A_2 O 0.8564(8) -0.0524(6) 0.8454(2)
O6A O 1.1534(8) 0.7905(7) 0.8334(2)
O6A_2 O 0.1534(8) -0.2095(7) 0.8334(2)
O6_2 O 0.8466(8) 0.2905(7) 0.6666(2)
O7B O 0.6236(8) 0.1323(7) 0.9480(2)
O7C O 0.3764(8) 0.6323(7) 0.5520(2)
O8B O 0.6594(8) 0.1306(6) 1.0464(2)
O8A O 0.6594(8) 0.3694(6) 0.5464(2)
O9A O 0.8512(8) 0.7066(7) 0.6111(2)
H3A H 0.9381 0.6428 0.5921
H4A H 0.8316 0.7976 0.5904
O10 O 0.9265(9) 0.7413(7) 0.9909(2)
H5 H 0.8106 0.7004 0.9746
H6 H 0.9580 0.8382 0.9753
O11 O 0.6186(10) 0.4837(7) 0.9565(2)
H7 H 0.6946 0.3975 0.9457
H8 H 0.5190 0.4968 0.9299
loop_
_geom_bond_atom_site_label_1
_geom_bond_atom_site_label_2
_geom_bond_site_symmetry_1
_geom_bond_site_symmetry_2
C1 C2 1_555 1_555
C2 H1 1_555 1_555
C3 C2 1_555 1_555
H2 C3 1_555 1_555
C4 C3 1_555 1_555
C5 O7 1_555 1_555
La1 O1 1_555 1_555
O1 C1 1_555 1_555
O2 C1 1_555 1_555
O3 C2 1_555 1_555
O4 C3 1_555 1_555
O5 C4 1_555 1_555
O6 C4 1_555 1_555
O7 La1B 1_555 1_555
O8 C5 1_555 1_555
O9 La1 1_555 1_555
H3 O9 1_555 1_555
H4 O9 1_555 1_555
O10 H5 1_555 1_555
H6 O10 1_555 1_555
O11 H7 1_555 1_555
H8 O11 1_555 1_555
C1A C2A 1_555 1_555
C2A H1A 1_555 1_555
C3A C2A 1_555 1_555
H2A C3A 1_555 1_555
C4A C3A 1_555 1_555
C5B C5 1_555 1_555
La1A O4 1_555 1_555
La1A_2 O2 1_555 1_555
La1A_3 O6 1_555 1_555
La1B O8B 1_555 1_555
La1_2 O4A 1_555 1_555
La1_3 O6A 1_555 1_555
O1A C1A 1_555 1_555
O2A La1 1_555 1_555
O2_2 La1A 1_555 1_555
O3A C2A 1_555 1_555
O4A C3A 1_555 1_555
O4A_2 La1 1_555 1_555
O5A C4A 1_555 1_555
O5A_2 La1 1_555 1_555
O6A C4A 1_555 1_555
O6A_2 La1 1_555 1_555
O6_2 La1A 1_555 1_555
O7B La1 1_555 1_555
O7C La1A 1_555 1_555
O8B C5B 1_555 1_555
O8A La1A 1_555 1_555
O9A La1A 1_555 1_555
H3A O9A 1_555 1_555
H4A O9A 1_555 1_555
La1 O3 1_555 1_555
La1 O8 1_555 1_555
O5 La1A 1_555 1_555
C1A O2A 1_555 1_555
C5B O7B 1_555 1_555
La1A O1A 1_555 1_555
La1A O3A 1_555 1_555
La1_2 O5A 1_555 1_555

#END
