
#######################################################################
#
#                 Cambridge Crystallographic Data Centre
#                                CCDC 
#
#######################################################################
#
# If this CIF has been generated from an entry in the Cambridge 
# Structural Database, then it will include bibliographic, chemical, 
# crystal, experimental, refinement or atomic coordinate data resulting 
# from the CCDC's data processing and validation procedures.
#
#######################################################################

data_APARAM
_chemical_formula_moiety         '(C31 H22 F6 Mn1 N2 O5)n'
_symmetry_cell_setting           trigonal
_symmetry_space_group_name_H-M   'P -3'
_symmetry_Int_Tables_number      147
_space_group_name_Hall           '-P 3'
loop_
_symmetry_equiv_pos_site_id
_symmetry_equiv_pos_as_xyz
1 x,y,z
2 -y,x-y,z
3 -x+y,-x,z
4 -x,-y,-z
5 y,-x+y,-z
6 x-y,x,-z
_cell_length_a                   22.2003(11)
_cell_length_b                   22.2003(11)
_cell_length_c                   7.7298(4)
_cell_angle_alpha                90
_cell_angle_beta                 90
_cell_angle_gamma                120
_cell_volume                     3299.26
loop_
_atom_site_label
_atom_site_type_symbol
_atom_site_fract_x
_atom_site_fract_y
_atom_site_fract_z
C1 C 0.4818(7) 0.8125(4) 0.8545(10)
H1 H 0.4566 0.8352 0.8686
Mn1 Mn 0.5000 1.0000 0.5000
O1 O 0.5048(3) 0.9191(2) 0.6364(6)
O2 O 0.5775(3) 1.0009(2) 0.3326(6)
N1 N 0.5018(4) 0.5806(3) 1.3214(7)
C2 C 0.5281(5) 0.8305(4) 0.7125(8)
C3 C 0.5354(5) 0.8859(4) 0.5920(9)
C4 C 0.5104(4) 0.6200(3) 1.0315(8)
H2 H 0.5150 0.6123 0.9153
F1 F 0.5997(5) 0.9563(3) 0.0198(6)
C5 C 0.5059(5) 0.5733(4) 1.1538(8)
H3 H 0.5058 0.5335 1.1155
C6 C 0.6335(8) 0.9564(7) 0.1673(13)
C7 C 0.5927(5) 0.9538(4) 0.3238(9)
C8 C 0.5140(5) 0.7303(4) 0.9539(9)
C9 C 0.5746(5) 0.8984(4) 0.4358(9)
H4 H 0.5890 0.8669 0.4071
F2 F 0.6486(4) 0.9062(4) 0.1511(7)
C10 C 0.4732(6) 0.7625(4) 0.9712(10)
H5 H 0.4410 0.7499 1.0604
C11 C 0.5631(5) 0.7968(5) 0.6953(10)
H6 H 0.5946 0.8085 0.6047
C12 C 0.5539(5) 0.7441(4) 0.8095(10)
H7 H 0.5752 0.7180 0.7865
F3 F 0.6925(4) 1.0150(4) 0.1625(10)
C13 C 0.4955(7) 0.6817(5) 1.2564(10)
H8 H 0.4882 0.7170 1.2965
C14 C 0.4944(8) 0.6342(6) 1.3656(10)
H9 H 0.4878 0.6393 1.4824
C15 C 0.5079(6) 0.6769(4) 1.0797(9)
C1C C 0.5182(7) 1.1875(4) 0.1455(10)
H1C H 0.5434 1.1648 0.1314
O1C O 0.4952(3) 1.0809(2) 0.3636(6)
O2C O 0.4225(3) 0.9991(2) 0.6674(6)
N1C N 0.4982(4) 1.4194(3) -0.3214(7)
C2C C 0.4719(5) 1.1695(4) 0.2875(8)
C3C C 0.4646(5) 1.1141(4) 0.4080(9)
C4C C 0.4896(4) 1.3800(3) -0.0315(8)
H2C H 0.4850 1.3877 0.0847
F1C F 0.4003(5) 1.0437(3) 0.9802(6)
C5C C 0.4941(5) 1.4267(4) -0.1538(8)
H3C H 0.4942 1.4665 -0.1155
C6C C 0.3665(8) 1.0436(7) 0.8327(13)
C7C C 0.4073(5) 1.0462(4) 0.6762(9)
C8C C 0.4860(5) 1.2697(4) 0.0461(9)
C9C C 0.4254(5) 1.1016(4) 0.5642(9)
H4C H 0.4110 1.1331 0.5929
F2C F 0.3514(4) 1.0938(4) 0.8489(7)
C10C C 0.5268(6) 1.2375(4) 0.0288(10)
H5C H 0.5590 1.2501 -0.0604
C11C C 0.4369(5) 1.2032(5) 0.3047(10)
H6C H 0.4054 1.1915 0.3953
C12C C 0.4461(5) 1.2559(4) 0.1905(10)
H7C H 0.4248 1.2820 0.2135
F3C F 0.3075(4) 0.9850(4) 0.8375(10)
C13C C 0.5045(7) 1.3183(5) -0.2564(10)
H8C H 0.5118 1.2830 -0.2965
C14C C 0.5056(8) 1.3658(6) -0.3656(10)
H9C H 0.5122 1.3607 -0.4824
C15C C 0.4921(6) 1.3231(4) -0.0797(9)
Mn1B Mn 0.5000 0.5000 1.5000
Mn1B_2 Mn 0.5000 1.5000 -0.5000
N1A N 0.4194(3) 0.9212(5) 0.3214(7)
N1D N 0.5806(3) 1.0788(5) 0.6786(7)
C16 C 0.6934(10) 0.8133(10) 0.404(2)
H10 H 0.7079 0.8329 0.5172
H11 H 0.6441 0.7940 0.3923
H12 H 0.7170 0.8490 0.3184
O3 O 0.714(2) 0.7472(15) 0.373(4)
loop_
_geom_bond_atom_site_label_1
_geom_bond_atom_site_label_2
_geom_bond_site_symmetry_1
_geom_bond_site_symmetry_2
C1 H1 1_555 1_555
Mn1 O1 1_555 1_555
O1 C3 1_555 1_555
O2 Mn1 1_555 1_555
N1 C5 1_555 1_555
C2 C1 1_555 1_555
C3 C2 1_555 1_555
C4 H2 1_555 1_555
F1 C6 1_555 1_555
C5 C4 1_555 1_555
H3 C5 1_555 1_555
C6 C7 1_555 1_555
C7 O2 1_555 1_555
C8 C10 1_555 1_555
C9 C3 1_555 1_555
H4 C9 1_555 1_555
F2 C6 1_555 1_555
C10 C1 1_555 1_555
H5 C10 1_555 1_555
C11 C2 1_555 1_555
H6 C11 1_555 1_555
C12 C8 1_555 1_555
H7 C12 1_555 1_555
F3 C6 1_555 1_555
C13 H8 1_555 1_555
C14 N1 1_555 1_555
H9 C14 1_555 1_555
C15 C4 1_555 1_555
C16 H10 1_555 1_555
H11 C16 1_555 1_555
H12 C16 1_555 1_555
O3 C16 1_555 1_555
C1C H1C 1_555 1_555
O1C Mn1 1_555 1_555
O2C Mn1 1_555 1_555
N1C C5C 1_555 1_555
C2C C1C 1_555 1_555
C3C O1C 1_555 1_555
C4C H2C 1_555 1_555
F1C C6C 1_555 1_555
C5C C4C 1_555 1_555
H3C C5C 1_555 1_555
C6C C7C 1_555 1_555
C7C O2C 1_555 1_555
C8C C10C 1_555 1_555
C9C C3C 1_555 1_555
H4C C9C 1_555 1_555
F2C C6C 1_555 1_555
C10C C1C 1_555 1_555
H5C C10C 1_555 1_555
C11C C2C 1_555 1_555
H6C C11C 1_555 1_555
C12C C8C 1_555 1_555
H7C C12C 1_555 1_555
F3C C6C 1_555 1_555
C13C H8C 1_555 1_555
C14C N1C 1_555 1_555
H9C C14C 1_555 1_555
C15C C4C 1_555 1_555
Mn1B N1 1_555 1_555
Mn1B_2 N1C 1_555 1_555
N1A Mn1 1_555 1_555
N1D Mn1 1_555 1_555
C7 C9 1_555 1_555
C8 C15 1_555 1_555
C11 C12 1_555 1_555
C13 C14 1_555 1_555
C13 C15 1_555 1_555
C2C C3C 1_555 1_555
C7C C9C 1_555 1_555
C8C C15C 1_555 1_555
C11C C12C 1_555 1_555
C13C C14C 1_555 1_555
C13C C15C 1_555 1_555

#END
