
#######################################################################
#
#                 Cambridge Crystallographic Data Centre
#                                CCDC 
#
#######################################################################
#
# If this CIF has been generated from an entry in the Cambridge 
# Structural Database, then it will include bibliographic, chemical, 
# crystal, experimental, refinement or atomic coordinate data resulting 
# from the CCDC's data processing and validation procedures.
#
#######################################################################

data_AYOXUJ
_chemical_formula_moiety         '(C36 H40 Co2 N4 O12)n'
_symmetry_cell_setting           monoclinic
_symmetry_space_group_name_H-M   'C 2/c'
_symmetry_Int_Tables_number      15
_space_group_name_Hall           '-C 2yc'
loop_
_symmetry_equiv_pos_site_id
_symmetry_equiv_pos_as_xyz
1 x,y,z
2 -x,y,1/2-z
3 1/2+x,1/2+y,z
4 1/2-x,1/2+y,1/2-z
5 -x,-y,-z
6 x,-y,1/2+z
7 1/2-x,1/2-y,-z
8 1/2+x,1/2-y,1/2+z
_cell_length_a                   35.522(5)
_cell_length_b                   13.846(5)
_cell_length_c                   9.548(5)
_cell_angle_alpha                90
_cell_angle_beta                 103.200(5)
_cell_angle_gamma                90
_cell_volume                     4571.99
loop_
_atom_site_label
_atom_site_type_symbol
_atom_site_fract_x
_atom_site_fract_y
_atom_site_fract_z
_atom_site_U_iso_or_equiv
_atom_site_thermal_displace_type
Co1 Co 0.36450(2) 0.20681(3) 0.17226(4) 0.0350 Uani
O1 O 0.39965(7) 0.19920(18) 0.3875(3) 0.0517 Uani
H1 H 0.3964 0.2444 0.4558 0.0620 Uiso
H2 H 0.4181 0.1507 0.4123 0.0620 Uiso
O2 O 0.14611(8) 0.55841(19) 0.0667(3) 0.0584 Uani
N1 N 0.33228(7) 0.21600(18) -0.0449(3) 0.0372 Uani
O3 O 0.39081(7) 0.07669(17) 0.1209(3) 0.0537 Uani
H3 H 0.3795 0.0173 0.1311 0.0640 Uiso
H4 H 0.4135 0.0795 0.0884 0.0640 Uiso
O4 O 0.33546(6) 0.32691(18) 0.2192(2) 0.0469 Uani
O5 O 0.17877(7) 0.62203(18) 0.2740(2) 0.0494 Uani
O6 O 0.36667(9) 0.3632(2) 0.4424(3) 0.0714 Uani
N2 N 0.40821(8) 0.2960(2) 0.1158(3) 0.0476 Uani
C1 C 0.27383(9) 0.2557(2) -0.2120(3) 0.0408 Uani
H5 H 0.2482 0.2754 -0.2277 0.0490 Uiso
C2 C 0.27655(9) 0.4523(2) 0.2441(4) 0.0456 Uani
H6 H 0.2755 0.4191 0.1586 0.0550 Uiso
C3 C 0.21047(10) 0.5110(2) 0.1545(4) 0.0488 Uani
H7 H 0.2091 0.4745 0.0717 0.0590 Uiso
C4 C 0.24287(10) 0.5091(2) 0.2533(4) 0.0453 Uani
H8 H 0.2444 0.5468 0.3351 0.0540 Uiso
C5 C 0.29576(8) 0.2442(2) -0.0745(3) 0.0379 Uani
H9 H 0.2843 0.2569 0.0019 0.0450 Uiso
C6 C 0.29070(10) 0.2373(3) -0.3273(3) 0.0550 Uani
C7 C 0.17605(9) 0.5672(2) 0.1662(3) 0.0433 Uani
C8 C 0.33943(9) 0.3734(2) 0.3348(4) 0.0473 Uani
C9 C 0.32857(11) 0.2077(3) -0.2963(4) 0.0628 Uani
H10 H 0.3408 0.1939 -0.3704 0.0750 Uiso
C10 C 0.34834(10) 0.1986(3) -0.1560(4) 0.0523 Uani
H11 H 0.3741 0.1794 -0.1371 0.0630 Uiso
C11 C 0.30841(11) 0.4434(3) 0.3453(4) 0.0525 Uani
H12 H 0.3117 0.4824 0.4266 0.0630 Uiso
C12 C 0.26873(13) 0.2458(7) -0.4804(4) 0.1217 Uani
H13 H 0.2794 0.3013 -0.5201 0.1460 Uiso
H14 H 0.2755 0.1896 -0.5300 0.1460 Uiso
C13 C 0.44330(11) 0.2644(4) 0.1160(6) 0.0759 Uani
H15 H 0.4501 0.2021 0.1488 0.0910 Uiso
C14 C 0.39998(12) 0.3860(3) 0.0720(5) 0.0697 Uani
H16 H 0.3759 0.4110 0.0745 0.0840 Uiso
C15 C 0.42585(16) 0.4439(4) 0.0228(8) 0.1045 Uani
H17 H 0.4193 0.5074 -0.0039 0.1260 Uiso
C16 C 0.47032(15) 0.3197(5) 0.0698(9) 0.1156 Uani
H18 H 0.4952 0.2960 0.0776 0.1390 Uiso
C17 C 0.46092(16) 0.4086(5) 0.0132(8) 0.1096 Uani
C18 C 0.4898(2) 0.4676(6) -0.0574(8) 0.1158 Uani
H19 H 0.5079 0.4248 -0.0886 0.1390 Uiso
H20 H 0.4759 0.5044 -0.1395 0.1390 Uiso
N1F N 0.16772(7) 0.28400(18) -0.9551(3) 0.0372 Uani
C1F C 0.22617(9) 0.2443(2) -0.7880(3) 0.0408 Uani
H5F H 0.2518 0.2246 -0.7723 0.0490 Uiso
C5F C 0.20424(8) 0.2558(2) -0.9255(3) 0.0379 Uani
H9F H 0.2157 0.2431 -1.0019 0.0450 Uiso
C6F C 0.20930(10) 0.2627(3) -0.6727(3) 0.0550 Uani
C9F C 0.17143(11) 0.2923(3) -0.7037(4) 0.0628 Uani
H10F H 0.1592 0.3061 -0.6296 0.0750 Uiso
C10F C 0.15166(10) 0.3014(3) -0.8440(4) 0.0523 Uani
H11F H 0.1259 0.3206 -0.8629 0.0630 Uiso
C12F C 0.23127(13) 0.2542(7) -0.5196(4) 0.1217 Uani
H13F H 0.2206 0.1987 -0.4799 0.1460 Uiso
H14F H 0.2245 0.3104 -0.4700 0.1460 Uiso
N2D N 0.59179(8) 0.7040(2) -0.1158(3) 0.0476 Uani
C13D C 0.55670(11) 0.7356(4) -0.1160(6) 0.0759 Uani
H15D H 0.5499 0.7979 -0.1488 0.0910 Uiso
C14D C 0.60002(12) 0.6140(3) -0.0720(5) 0.0697 Uani
H16D H 0.6241 0.5890 -0.0745 0.0840 Uiso
C15D C 0.57415(16) 0.5561(4) -0.0228(8) 0.1045 Uani
H17D H 0.5807 0.4926 0.0039 0.1260 Uiso
C16D C 0.52968(15) 0.6803(5) -0.0698(9) 0.1156 Uani
H18D H 0.5048 0.7040 -0.0776 0.1390 Uiso
C17D C 0.53908(16) 0.5914(5) -0.0132(8) 0.1096 Uani
C18D C 0.5102(2) 0.5324(6) 0.0574(8) 0.1158 Uani
H19D H 0.4921 0.5752 0.0886 0.1390 Uiso
H20D H 0.5241 0.4956 0.1395 0.1390 Uiso
Co1D Co 0.63550(2) 0.79319(3) -0.17226(4) 0.0350 Uani
O1D O 0.60035(7) 0.80080(18) -0.3875(3) 0.0517 Uani
H1D H 0.6036 0.7556 -0.4558 0.0620 Uiso
H2D H 0.5819 0.8493 -0.4123 0.0620 Uiso
O2D O 0.85389(8) 0.44159(19) -0.0667(3) 0.0584 Uani
O3D O 0.60919(7) 0.92331(17) -0.1209(3) 0.0537 Uani
H3D H 0.6205 0.9827 -0.1311 0.0640 Uiso
H4D H 0.5865 0.9205 -0.0884 0.0640 Uiso
O4D O 0.66454(6) 0.67309(18) -0.2192(2) 0.0469 Uani
O5D O 0.82123(7) 0.37797(18) -0.2740(2) 0.0494 Uani
O6D O 0.63333(9) 0.6368(2) -0.4424(3) 0.0714 Uani
C2D C 0.72345(9) 0.5477(2) -0.2441(4) 0.0456 Uani
H6D H 0.7245 0.5809 -0.1586 0.0550 Uiso
C3D C 0.78953(10) 0.4890(2) -0.1545(4) 0.0488 Uani
H7D H 0.7909 0.5255 -0.0717 0.0590 Uiso
C4D C 0.75713(10) 0.4909(2) -0.2533(4) 0.0453 Uani
H8D H 0.7556 0.4532 -0.3351 0.0540 Uiso
C7D C 0.82395(9) 0.4328(2) -0.1662(3) 0.0433 Uani
C8D C 0.66057(9) 0.6266(2) -0.3348(4) 0.0473 Uani
C11D C 0.69159(11) 0.5566(3) -0.3453(4) 0.0525 Uani
H12D H 0.6883 0.5176 -0.4266 0.0630 Uiso
Co1C Co 0.13550(2) 0.70681(3) 0.32774(4) 0.0350 Uani
Co1F Co 0.13550(2) 0.29319(3) -1.17226(4) 0.0350 Uani
Co1G Co 0.86450(2) 0.29319(3) -0.32774(4) 0.0350 Uani
N1D N 0.66772(7) 0.78400(18) 0.0449(3) 0.0372 Uani
O5C O 0.32123(7) 0.12203(18) 0.2260(2) 0.0494 Uani
O5G O 0.67877(7) 0.87797(18) -0.2260(2) 0.0494 Uani
loop_
_atom_site_aniso_label
_atom_site_aniso_U_11
_atom_site_aniso_U_22
_atom_site_aniso_U_33
_atom_site_aniso_U_23
_atom_site_aniso_U_13
_atom_site_aniso_U_12
Co1 0.0334(2) 0.0370(2) 0.0342(2) 0.00239(14) 0.00702(15) -0.00276(14)
O1 0.0485(13) 0.0563(14) 0.0452(12) 0.0040(10) 0.0004(10) 0.0000(10)
O2 0.0618 0.0559 0.0538 -0.0219 0.0055 0.0084
N1 0.0388(12) 0.0434(13) 0.0298(11) 0.0020(9) 0.0086(9) -0.0022(10)
O3 0.0466(12) 0.0431(12) 0.0687(15) -0.0061(11) 0.0077(11) 0.0027(10)
O4 0.0459(12) 0.0489(12) 0.0449(11) -0.0078(10) 0.0086(9) 0.0071(10)
O5 0.0478 0.0532 0.0471 -0.016 0.0104 0.011
O6 0.0716(18) 0.0726(19) 0.0599(16) -0.0219(14) -0.0060(13) 0.0096(14)
N2 0.0387(13) 0.0495(16) 0.0541(16) 0.0069(12) 0.0098(12) -0.0069(11)
C1 0.0411(14) 0.0432(16) 0.0368(14) 0.0028(12) 0.0065(11) 0.0009(12)
C2 0.0499(17) 0.0326(14) 0.0597(19) -0.0065(13) 0.0240(15) -0.0028(12)
C3 0.0573 0.0365 0.0591 -0.0114 0.0268 -0.0019
C4 0.0566(18) 0.0328(14) 0.0519(17) -0.0058(12) 0.0233(15) -0.0009(13)
C5 0.0411(14) 0.0412(15) 0.0321(13) 0.0007(11) 0.0098(11) 0.0000(12)
C6 0.0506(18) 0.083(3) 0.0305(14) 0.0070(15) 0.0076(13) -0.0061(17)
C7 0.0488 0.0368 0.0463 -0.0053 0.0152 0.0014
C8 0.0462(16) 0.0434(16) 0.0515(17) -0.0079(13) 0.0093(14) -0.0043(13)
C9 0.0497(19) 0.108(4) 0.0339(16) 0.0006(17) 0.0162(14) -0.0020(19)
C10 0.0402(16) 0.079(3) 0.0391(16) -0.0011(15) 0.0119(13) 0.0022(15)
C11 0.0586(19) 0.0449(18) 0.0554(19) -0.0170(15) 0.0160(15) -0.0032(15)
C12 0.058(2) 0.274(9) 0.0325(19) 0.026(3) 0.0093(17) 0.005(4)
C13 0.0423(19) 0.078(3) 0.110(4) 0.033(3) 0.023(2) -0.0006(18)
C14 0.054(2) 0.055(2) 0.104(3) 0.022(2) 0.026(2) -0.0040(17)
C15 0.081(3) 0.072(3) 0.168(6) 0.054(4) 0.044(4) -0.009(3)
C16 0.056(3) 0.111(4) 0.193(7) 0.057(5) 0.056(4) 0.001(3)
C17 0.076(3) 0.101(4) 0.164(6) 0.037(4) 0.053(4) -0.020(3)
C18 0.119(5) 0.130(6) 0.105(5) -0.003(4) 0.039(4) -0.023(4)
N1F 0.0388 0.0434 0.0298 0.002 0.0086 -0.0022
C1F 0.0411 0.0432 0.0368 0.0028 0.0065 0.0009
C5F 0.0411 0.0412 0.0321 0.0007 0.0098 0
C6F 0.0506 0.083 0.0305 0.007 0.0076 -0.0061
C9F 0.0497 0.108 0.0339 0.0006 0.0162 -0.002
C10F 0.0402 0.079 0.0391 -0.0011 0.0119 0.0022
C12F 0.058 0.274 0.0325 0.026 0.0093 0.005
N2D 0.0387 0.0495 0.0541 0.0069 0.0098 -0.0069
C13D 0.0423 0.078 0.11 0.033 0.023 -0.0006
C14D 0.054 0.055 0.104 0.022 0.026 -0.004
C15D 0.081 0.072 0.168 0.054 0.044 -0.009
C16D 0.056 0.111 0.193 0.057 0.056 0.001
C17D 0.076 0.101 0.164 0.037 0.053 -0.02
C18D 0.119 0.13 0.105 -0.003 0.039 -0.023
Co1D 0.0334 0.037 0.0342 0.00239 0.00702 -0.00276
O1D 0.0485 0.0563 0.0452 0.004 0.0004 0
O2D 0.0618 0.0559 0.0538 -0.0219 0.0055 0.0084
O3D 0.0466 0.0431 0.0687 -0.0061 0.0077 0.0027
O4D 0.0459 0.0489 0.0449 -0.0078 0.0086 0.0071
O5D 0.0478 0.0532 0.0471 -0.016 0.0104 0.011
O6D 0.0716 0.0726 0.0599 -0.0219 -0.006 0.0096
C2D 0.0499 0.0326 0.0597 -0.0065 0.024 -0.0028
C3D 0.0573 0.0365 0.0591 -0.0114 0.0268 -0.0019
C4D 0.0566 0.0328 0.0519 -0.0058 0.0233 -0.0009
C7D 0.0488 0.0368 0.0463 -0.0053 0.0152 0.0014
C8D 0.0462 0.0434 0.0515 -0.0079 0.0093 -0.0043
C11D 0.0586 0.0449 0.0554 -0.017 0.016 -0.0032
Co1C 0.0334 0.037 0.0342 -0.00239 0.00702 0.00276
Co1F 0.0334 0.037 0.0342 0.00239 0.00702 -0.00276
Co1G 0.0334 0.037 0.0342 -0.00239 0.00702 0.00276
N1D 0.0388 0.0434 0.0298 0.002 0.0086 -0.0022
O5C 0.0478 0.0532 0.0471 0.016 0.0104 -0.011
O5G 0.0478 0.0532 0.0471 0.016 0.0104 -0.011
loop_
_geom_bond_atom_site_label_1
_geom_bond_atom_site_label_2
_geom_bond_site_symmetry_1
_geom_bond_site_symmetry_2
Co1 O1 1_555 1_555
O1 H1 1_555 1_555
H2 O1 1_555 1_555
O2 C7 1_555 1_555
N1 Co1 1_555 1_555
O3 Co1 1_555 1_555
H3 O3 1_555 1_555
H4 O3 1_555 1_555
O4 Co1 1_555 1_555
O5 C7 1_555 1_555
O6 C8 1_555 1_555
N2 Co1 1_555 1_555
C1 H5 1_555 1_555
C2 H6 1_555 1_555
C3 H7 1_555 1_555
C4 C2 1_555 1_555
H8 C4 1_555 1_555
C5 N1 1_555 1_555
H9 C5 1_555 1_555
C6 C1 1_555 1_555
C7 C3 1_555 1_555
C8 O4 1_555 1_555
C9 C6 1_555 1_555
H10 C9 1_555 1_555
C10 N1 1_555 1_555
H11 C10 1_555 1_555
C11 C2 1_555 1_555
H12 C11 1_555 1_555
C12 C6 1_555 1_555
H13 C12 1_555 1_555
H14 C12 1_555 1_555
C13 N2 1_555 1_555
H15 C13 1_555 1_555
C14 N2 1_555 1_555
H16 C14 1_555 1_555
C15 C14 1_555 1_555
H17 C15 1_555 1_555
C16 C13 1_555 1_555
H18 C16 1_555 1_555
C17 C15 1_555 1_555
C18 C17 1_555 1_555
H19 C18 1_555 1_555
H20 C18 1_555 1_555
N1F C5F 1_555 1_555
C1F H5F 1_555 1_555
C5F C1F 1_555 1_555
H9F C5F 1_555 1_555
C6F C1F 1_555 1_555
C9F C6F 1_555 1_555
H10F C9F 1_555 1_555
C10F N1F 1_555 1_555
H11F C10F 1_555 1_555
C12F C12 1_555 1_555
H13F C12F 1_555 1_555
H14F C12F 1_555 1_555
N2D C13D 1_555 1_555
C13D H15D 1_555 1_555
C14D N2D 1_555 1_555
H16D C14D 1_555 1_555
C15D C14D 1_555 1_555
H17D C15D 1_555 1_555
C16D C13D 1_555 1_555
H18D C16D 1_555 1_555
C17D C15D 1_555 1_555
C18D C18 1_555 1_555
H19D C18D 1_555 1_555
H20D C18D 1_555 1_555
Co1D N2D 1_555 1_555
O1D Co1D 1_555 1_555
H1D O1D 1_555 1_555
H2D O1D 1_555 1_555
O2D C7D 1_555 1_555
O3D Co1D 1_555 1_555
H3D O3D 1_555 1_555
H4D O3D 1_555 1_555
O4D Co1D 1_555 1_555
O5D C7D 1_555 1_555
O6D C8D 1_555 1_555
C2D H6D 1_555 1_555
C3D H7D 1_555 1_555
C4D C2D 1_555 1_555
H8D C4D 1_555 1_555
C7D C3D 1_555 1_555
C8D O4D 1_555 1_555
C11D C2D 1_555 1_555
H12D C11D 1_555 1_555
Co1C O5 1_555 1_555
Co1F N1F 1_555 1_555
Co1G O5D 1_555 1_555
N1D Co1D 1_555 1_555
O5C Co1 1_555 1_555
O5G Co1D 1_555 1_555
C1 C5 1_555 1_555
C3 C4 1_555 1_555
C8 C11 1_555 1_555
C9 C10 1_555 1_555
C16 C17 1_555 1_555
C6F C12F 1_555 1_555
C9F C10F 1_555 1_555
C16D C17D 1_555 1_555
C17D C18D 1_555 1_555
C3D C4D 1_555 1_555
C8D C11D 1_555 1_555

#END
