
#######################################################################
#
#                 Cambridge Crystallographic Data Centre
#                                CCDC 
#
#######################################################################
#
# If this CIF has been generated from an entry in the Cambridge 
# Structural Database, then it will include bibliographic, chemical, 
# crystal, experimental, refinement or atomic coordinate data resulting 
# from the CCDC's data processing and validation procedures.
#
#######################################################################

data_AZILEC
_chemical_formula_moiety         '(C32 H26 Co2 N8 O9)n'
_symmetry_cell_setting           orthorhombic
_symmetry_space_group_name_H-M   'P c a 21'
_symmetry_Int_Tables_number      29
_space_group_name_Hall           'P 2c -2ac'
loop_
_symmetry_equiv_pos_site_id
_symmetry_equiv_pos_as_xyz
1 x,y,z
2 -x,-y,1/2+z
3 1/2-x,y,1/2+z
4 1/2+x,-y,z
_cell_length_a                   14.595(5)
_cell_length_b                   13.344(5)
_cell_length_c                   21.324(5)
_cell_angle_alpha                90
_cell_angle_beta                 90
_cell_angle_gamma                90
_cell_volume                     4152.97
loop_
_atom_site_label
_atom_site_type_symbol
_atom_site_fract_x
_atom_site_fract_y
_atom_site_fract_z
Co1 Co 1.09905(10) 0.40427(11) 0.90874(6)
Co2 Co 0.90380(11) 0.34814(11) 1.04035(6)
O1 O 1.1339(8) 0.4042(6) 0.9995(4)
O2 O 0.8709(8) 0.3501(7) 1.1435(5)
O3 O 1.2590(7) 0.3921(7) 1.3788(4)
O4 O 1.0346(6) 0.3380(6) 1.0659(4)
O5 O 1.3637(9) 0.4058(7) 1.3088(5)
O6 O 0.6311(8) 0.3401(6) 1.4499(4)
O7 O 0.5336(6) 0.4071(6) 1.3815(4)
N1 N 1.0958(6) 0.5632(7) 0.9107(7)
C1 C 0.6763(9) 0.3557(9) 1.3452(6)
H1 H 0.7350 0.3363 1.3570
C2 C 1.0917(11) 0.7723(11) 0.9184(9)
O8 O 0.7649(7) 0.3570(7) 1.0706(5)
N2 N 0.9130(7) 0.5102(7) 1.0373(6)
C3 C 0.9178(11) 0.7174(10) 1.0415(12)
N3 N 1.0953(8) 1.2390(8) 0.9091(9)
C4 C 0.7304(10) 0.3567(9) 1.2369(6)
H2 H 0.7897 0.3405 1.2492
C5 C 0.6610(10) 0.3690(10) 1.2854(6)
H3 H 0.6023 0.3875 1.2731
C6 C 0.7852(10) 0.3553(8) 1.1277(6)
N4 N 0.9036(8) 1.1830(8) 1.0387(9)
C7 C 1.1622(9) 0.3745(10) 1.1637(6)
H4 H 1.1019 0.3605 1.1746
C8 C 1.1362(12) 0.7193(9) 0.9600(8)
H5 H 1.1691 0.7519 0.9913
C9 C 1.1106(8) 0.3755(9) 1.0528(5)
C10 C 1.1354(10) 0.6173(10) 0.9585(7)
H6 H 1.1629 0.5826 0.9912
C11 C 1.2284(10) 0.3827(10) 1.2135(6)
H7 H 1.2894 0.3891 1.2016
C12 C 0.9572(13) 0.6614(12) 1.0861(10)
H8 H 0.9854 0.6926 1.1200
C13 C 0.7133(10) 0.3675(11) 1.1753(7)
H9 H 0.6542 0.3831 1.1625
C14 C 1.2120(9) 0.3821(10) 1.2720(6)
H10 H 1.1514 0.3742 1.2844
C15 C 1.2833(11) 0.3933(11) 1.3234(7)
C16 C 0.6076(8) 0.3689(9) 1.3958(6)
C17 C 0.8724(11) 0.6651(10) 0.9930(9)
H11 H 0.8432 0.7008 0.9613
C18 C 0.8708(10) 0.5643(10) 0.9918(6)
H12 H 0.8405 0.5314 0.9595
C19 C 1.0485(12) 0.6155(11) 0.8677(8)
H13 H 1.0141 0.5812 0.8379
C20 C 1.1814(9) 0.3854(10) 1.1032(6)
H14 H 1.2414 0.3999 1.0917
C21 C 0.9566(11) 0.5595(11) 1.0825(7)
H15 H 0.9879 0.5230 1.1129
C22 C 1.0499(13) 0.7211(11) 0.8666(9)
H16 H 1.0245 0.7565 0.8333
C23 C 0.8683(15) 1.1335(12) 0.9959(11)
H17 H 0.8313 1.1676 0.9675
C24 C 1.125(2) 1.0773(13) 0.9540(14)
H18 H 1.1470 1.0416 0.9882
C25 C 0.9396(17) 1.1330(13) 1.0833(12)
H19 H 0.9625 1.1654 1.1186
C26 C 1.1339(13) 1.1865(11) 0.9531(9)
H20 H 1.1676 1.2185 0.9842
C27 C 1.0476(14) 1.1908(11) 0.8637(10)
H21 H 1.0178 1.2280 0.8330
C28 C 1.042(2) 1.0850(13) 0.8621(16)
H22 H 1.0100 1.0522 0.8306
C29 C 1.0876(19) 1.0306(14) 0.9098(19)
N5 N 0.9309(9) 0.8400(9) 1.0599(6)
C30 C 0.879(2) 1.0324(16) 0.9872(15)
H23 H 0.8676 1.0037 0.9483
C31 C 0.944(2) 1.0262(16) 1.0782(16)
H24 H 0.9769 0.9917 1.1088
C32 C 0.9071(19) 0.9756(13) 1.0354(19)
N6 N 0.8913(16) 0.8611(18) 1.0176(11)
N7 N 1.1009(14) 0.8943(16) 0.9292(10)
N8 N 1.064(2) 0.917(2) 0.8873(15)
Co1_2 Co 1.09905(10) 1.40427(11) 0.90874(6)
Co1B Co 0.40095(10) 0.40427(11) 1.40874(6)
Co1B_2 Co 1.40095(10) 0.40427(11) 1.40874(6)
Co2_2 Co 0.90380(11) 1.34814(11) 1.04035(6)
Co2B Co 0.59620(11) 0.34814(11) 1.54035(6)
O3B O 1.2410(7) 0.3921(7) 0.8788(4)
O5B O 1.1363(9) 0.4058(7) 0.8088(5)
O6B O 0.8689(8) 0.3401(6) 0.9499(4)
O7B O 0.9664(6) 0.4071(6) 0.8815(4)
N3_2 N 1.0953(8) 0.2390(8) 0.9091(9)
N4_2 N 0.9036(8) 0.1830(8) 1.0387(9)
O9 O 1.4711(8) 0.5228(11) 1.2266(6)
loop_
_geom_bond_atom_site_label_1
_geom_bond_atom_site_label_2
_geom_bond_site_symmetry_1
_geom_bond_site_symmetry_2
Co1 O1 1_555 1_555
Co2 O2 1_555 1_555
O1 C9 1_555 1_555
O2 C6 1_555 1_555
O3 C15 1_555 1_555
O4 Co2 1_555 1_555
O5 C15 1_555 1_555
O6 C16 1_555 1_555
O7 C16 1_555 1_555
N1 Co1 1_555 1_555
C1 H1 1_555 1_555
C2 C8 1_555 1_555
O8 Co2 1_555 1_555
N2 Co2 1_555 1_555
C3 C12 1_555 1_555
N3 C26 1_555 1_555
C4 H2 1_555 1_555
C5 C1 1_555 1_555
H3 C5 1_555 1_555
C6 O8 1_555 1_555
N4 C23 1_555 1_555
C7 H4 1_555 1_555
C8 H5 1_555 1_555
C9 O4 1_555 1_555
C10 N1 1_555 1_555
H6 C10 1_555 1_555
C11 C7 1_555 1_555
H7 C11 1_555 1_555
C12 H8 1_555 1_555
C13 C4 1_555 1_555
H9 C13 1_555 1_555
C14 C11 1_555 1_555
H10 C14 1_555 1_555
C15 C14 1_555 1_555
C16 C1 1_555 1_555
C17 C3 1_555 1_555
H11 C17 1_555 1_555
C18 N2 1_555 1_555
H12 C18 1_555 1_555
C19 N1 1_555 1_555
H13 C19 1_555 1_555
C20 C7 1_555 1_555
H14 C20 1_555 1_555
C21 N2 1_555 1_555
H15 C21 1_555 1_555
C22 C2 1_555 1_555
H16 C22 1_555 1_555
C23 H17 1_555 1_555
C24 H18 1_555 1_555
C25 N4 1_555 1_555
H19 C25 1_555 1_555
C26 C24 1_555 1_555
H20 C26 1_555 1_555
C27 N3 1_555 1_555
H21 C27 1_555 1_555
C28 C27 1_555 1_555
H22 C28 1_555 1_555
C29 C24 1_555 1_555
N5 C3 1_555 1_555
C30 C23 1_555 1_555
H23 C30 1_555 1_555
C31 C25 1_555 1_555
H24 C31 1_555 1_555
C32 C30 1_555 1_555
N6 N5 1_555 1_555
N7 C2 1_555 1_555
N8 C29 1_555 1_555
Co1_2 N3 1_555 1_555
Co1B O7 1_555 1_555
Co1B_2 O3 1_555 1_555
Co2_2 N4 1_555 1_555
Co2B O6 1_555 1_555
O3B Co1 1_555 1_555
O5B Co1 1_555 1_555
O6B Co2 1_555 1_555
O7B Co1 1_555 1_555
N3_2 Co1 1_555 1_555
N4_2 Co2 1_555 1_555
O5 Co1B_2 1_555 1_555
C4 C5 1_555 1_555
C6 C13 1_555 1_555
C8 C10 1_555 1_555
C9 C20 1_555 1_555
C12 C21 1_555 1_555
C17 C18 1_555 1_555
C19 C22 1_555 1_555
C28 C29 1_555 1_555
C31 C32 1_555 1_555
C32 N6 1_555 1_555
N7 N8 1_555 1_555

#END
