
#######################################################################
#
#                 Cambridge Crystallographic Data Centre
#                                CCDC 
#
#######################################################################
#
# If this CIF has been generated from an entry in the Cambridge 
# Structural Database, then it will include bibliographic, chemical, 
# crystal, experimental, refinement or atomic coordinate data resulting 
# from the CCDC's data processing and validation procedures.
#
#######################################################################

data_BOYTEQ
_chemical_formula_moiety         '(C24 H20 Mn1 N2 O6)n'
_symmetry_cell_setting           monoclinic
_symmetry_space_group_name_H-M   'C 2/c'
_symmetry_Int_Tables_number      15
_space_group_name_Hall           '-C 2yc'
loop_
_symmetry_equiv_pos_site_id
_symmetry_equiv_pos_as_xyz
1 x,y,z
2 -x,y,1/2-z
3 1/2+x,1/2+y,z
4 1/2-x,1/2+y,1/2-z
5 -x,-y,-z
6 x,-y,1/2+z
7 1/2-x,1/2-y,-z
8 1/2+x,1/2-y,1/2+z
_cell_length_a                   19.6510(13)
_cell_length_b                   14.8963(10)
_cell_length_c                   8.5229(6)
_cell_angle_alpha                90
_cell_angle_beta                 108.9020(10)
_cell_angle_gamma                90
_cell_volume                     2360.35
loop_
_atom_site_label
_atom_site_type_symbol
_atom_site_fract_x
_atom_site_fract_y
_atom_site_fract_z
Mn1 Mn -0.0000 0.580355(17) 0.7500
C1 C 0.10286(7) 0.56515(8) 0.52605(16)
C2 C 0.18022(7) 0.58101(9) 0.53497(17)
C3 C 0.20569(8) 0.54511(13) 0.4147(2)
H1 H 0.1760 0.5092 0.3311
C4 C 0.27568(10) 0.56283(17) 0.4191(3)
H2 H 0.2928 0.5385 0.3387
C5 C 0.32000(9) 0.61657(15) 0.5427(2)
H3 H 0.3663 0.6295 0.5428
C6 C 0.29596(7) 0.65161(10) 0.66714(18)
C7 C 0.22561(7) 0.63326(9) 0.66121(16)
H4 H 0.2087 0.6563 0.7430
C8 C 0.34387(7) 0.70721(10) 0.80240(17)
C9 C 0.39348(8) 0.76633(11) 0.77408(18)
H5 H 0.3978 0.7706 0.6688
C10 C 0.43637(8) 0.81878(11) 0.90186(18)
H6 H 0.4684 0.8585 0.8789
C11 C 0.38714(8) 0.75727(11) 1.08574(18)
H7 H 0.3851 0.7530 1.1930
C12 C 0.34140(8) 0.70348(11) 0.96413(19)
H8 H 0.3093 0.6651 0.9901
N1 N 0.43403(6) 0.81510(8) 1.05754(15)
O1 O 0.08362(5) 0.59940(7) 0.63945(12)
O2 O 0.06334(5) 0.52241(7) 0.40557(13)
C1A C -0.10286(7) 0.56515(8) 0.97395(16)
C2A C -0.18022(7) 0.58101(9) 0.96503(17)
C3A C -0.20569(8) 0.54511(13) 1.0853(2)
H1A H -0.1760 0.5092 1.1689
C4A C -0.27568(10) 0.56283(17) 1.0809(3)
H2A H -0.2928 0.5385 1.1613
C5A C -0.32000(9) 0.61657(15) 0.9573(2)
H3A H -0.3663 0.6295 0.9572
C6A C -0.29596(7) 0.65161(10) 0.83286(18)
C7A C -0.22561(7) 0.63326(9) 0.83879(16)
H4A H -0.2087 0.6563 0.7570
C8A C -0.34387(7) 0.70721(10) 0.69760(17)
C9A C -0.39348(8) 0.76633(11) 0.72592(18)
H5A H -0.3978 0.7706 0.8312
C10A C -0.43637(8) 0.81878(11) 0.59814(18)
H6A H -0.4684 0.8585 0.6211
C11A C -0.38714(8) 0.75727(11) 0.41426(18)
H7A H -0.3851 0.7530 0.3070
C12A C -0.34140(8) 0.70348(11) 0.53587(19)
H8A H -0.3093 0.6651 0.5099
N1A N -0.43403(6) 0.81510(8) 0.44246(15)
O1A O -0.08362(5) 0.59940(7) 0.86055(12)
O2A O -0.06334(5) 0.52241(7) 1.09443(13)
Mn1D Mn -0.0000 0.419645(17) 0.2500
Mn1D_2 Mn 0.0000 0.419645(17) 1.2500
Mn1F Mn -0.5000 0.919645(17) 0.2500
Mn1F_2 Mn 0.5000 0.919645(17) 1.2500
N1F N 0.06597(6) 0.68490(8) 0.94246(15)
N1G N -0.06597(6) 0.68490(8) 0.55754(15)
O2D O -0.06334(5) 0.47759(7) 0.59443(13)
O2E O 0.06334(5) 0.47759(7) 0.90557(13)
O3 O 0.5000 0.5768(8) 0.7500
O4 O 0.5000 0.5000 0.5000
loop_
_geom_bond_atom_site_label_1
_geom_bond_atom_site_label_2
_geom_bond_site_symmetry_1
_geom_bond_site_symmetry_2
Mn1 O1 1_555 1_555
C1 C2 1_555 1_555
C2 C3 1_555 1_555
C3 H1 1_555 1_555
C4 C3 1_555 1_555
H2 C4 1_555 1_555
C5 C4 1_555 1_555
H3 C5 1_555 1_555
C6 C5 1_555 1_555
C7 C2 1_555 1_555
H4 C7 1_555 1_555
C8 C6 1_555 1_555
C9 C8 1_555 1_555
H5 C9 1_555 1_555
C10 C9 1_555 1_555
H6 C10 1_555 1_555
C11 H7 1_555 1_555
C12 C8 1_555 1_555
H8 C12 1_555 1_555
N1 C10 1_555 1_555
O1 C1 1_555 1_555
O2 C1 1_555 1_555
C1A C2A 1_555 1_555
C2A C3A 1_555 1_555
C3A H1A 1_555 1_555
C4A C3A 1_555 1_555
H2A C4A 1_555 1_555
C5A C4A 1_555 1_555
H3A C5A 1_555 1_555
C6A C5A 1_555 1_555
C7A C2A 1_555 1_555
H4A C7A 1_555 1_555
C8A C6A 1_555 1_555
C9A C8A 1_555 1_555
H5A C9A 1_555 1_555
C10A C9A 1_555 1_555
H6A C10A 1_555 1_555
C11A H7A 1_555 1_555
C12A C8A 1_555 1_555
H8A C12A 1_555 1_555
N1A C10A 1_555 1_555
O1A Mn1 1_555 1_555
O2A C1A 1_555 1_555
Mn1D O2 1_555 1_555
Mn1D_2 O2A 1_555 1_555
Mn1F N1A 1_555 1_555
Mn1F_2 N1 1_555 1_555
N1F Mn1 1_555 1_555
N1G Mn1 1_555 1_555
O2D Mn1 1_555 1_555
O2E Mn1 1_555 1_555
C6 C7 1_555 1_555
C11 C12 1_555 1_555
C11 N1 1_555 1_555
C1A O1A 1_555 1_555
C6A C7A 1_555 1_555
C11A C12A 1_555 1_555
C11A N1A 1_555 1_555

#END
