
#######################################################################
#
#                 Cambridge Crystallographic Data Centre
#                                CCDC 
#
#######################################################################
#
# If this CIF has been generated from an entry in the Cambridge 
# Structural Database, then it will include bibliographic, chemical, 
# crystal, experimental, refinement or atomic coordinate data resulting 
# from the CCDC's data processing and validation procedures.
#
#######################################################################

data_BOZFON
_chemical_formula_moiety         '(C81 H52 Cd3 N8 O13)n'
_symmetry_cell_setting           orthorhombic
_symmetry_space_group_name_H-M   'P n n 2'
_symmetry_Int_Tables_number      34
_space_group_name_Hall           'P 2 -2n'
loop_
_symmetry_equiv_pos_site_id
_symmetry_equiv_pos_as_xyz
1 x,y,z
2 -x,-y,z
3 1/2-x,1/2+y,1/2+z
4 1/2+x,1/2-y,1/2+z
_cell_length_a                   24.6602(17)
_cell_length_b                   28.6911(18)
_cell_length_c                   12.5602(7)
_cell_angle_alpha                90
_cell_angle_beta                 90
_cell_angle_gamma                90
_cell_volume                     8886.7
loop_
_atom_site_label
_atom_site_type_symbol
_atom_site_fract_x
_atom_site_fract_y
_atom_site_fract_z
Cd1 Cd 0.99389(7) 0.31217(6) 0.06286(13)
Cd2 Cd 0.89786(8) 0.24038(6) 0.19015(17)
Cd3 Cd 0.79826(8) 0.17338(7) 0.31844(15)
N1 N 0.6130(8) 0.0429(7) 0.6508(15)
N2 N 0.5229(9) -0.1143(8) 0.6319(17)
N3 N 0.7356(9) 0.1445(8) 0.4332(16)
N4 N 0.5866(9) 0.1597(8) 1.2755(17)
N5 N 0.5582(8) 0.1743(7) 1.4324(16)
N6 N 0.8487(10) 0.2264(10) 0.6463(18)
N7 N 0.6256(9) 0.4019(8) 0.191(2)
N8 N 0.5992(9) 0.3427(8) 0.671(2)
O1 O 0.9769(6) 0.2809(6) 0.2300(13)
O2 O 1.0669(6) 0.2857(6) 0.2186(13)
O3 O 0.8193(7) 0.2027(7) 1.1520(14)
O4 O 0.7318(7) 0.2030(6) 1.1729(14)
O5 O 0.8943(6) 0.3040(6) 0.0827(14)
O6 O 0.9247(6) 0.3382(6) -0.0704(14)
O7 O 0.5011(7) 0.2614(6) 0.5007(14)
O8 O 0.4413(6) 0.3087(6) 0.5695(15)
O9 O 0.8535(6) 0.2832(6) 0.3082(14)
O10 O 0.7867(7) 0.2425(6) 0.3936(14)
O11 O 0.4001(7) 0.3196(6) 0.8043(15)
O12 O 0.3662(7) 0.3690(6) 0.9155(15)
O13 O 0.7886(6) 0.1001(5) 0.2191(15)
C1 C 0.6349(10) 0.0816(9) 0.677(2)
C2 C 0.6338(10) 0.1024(9) 0.7789(18)
H1 H 0.6509 0.1307 0.7916
C3 C 0.6046(11) 0.0778(9) 0.865(2)
C4 C 0.5852(10) 0.0377(8) 0.832(2)
H2 H 0.5657 0.0204 0.8818
C5 C 0.5908(10) 0.0191(9) 0.7346(19)
C6 C 0.5997(12) 0.1006(10) 0.970(2)
C7 C 0.5965(10) 0.1486(9) 0.984(2)
H3 H 0.5985 0.1682 0.9248
C8 C 0.5904(11) 0.1674(10) 1.085(2)
H4 H 0.5883 0.1995 1.0939
C9 C 0.5874(11) 0.1382(10) 1.173(2)
C10 C 0.5905(11) 0.0902(9) 1.160(2)
H5 H 0.5885 0.0706 1.2187
C11 C 0.5967(11) 0.0714(9) 1.059(2)
H6 H 0.5989 0.0392 1.0497
C12 C 0.5376(11) -0.1054(9) 0.728(2)
H7 H 0.5345 -0.1293 0.7779
C13 C 0.5574(10) -0.0630(8) 0.7639(19)
H8 H 0.5668 -0.0596 0.8351
C14 C 0.5633(11) -0.0272(9) 0.698(2)
C15 C 0.5550(10) -0.0340(9) 0.5980(19)
H9 H 0.5639 -0.0113 0.5482
C16 C 0.5324(9) -0.0763(8) 0.566(2)
H10 H 0.5228 -0.0792 0.4951
C17 C 0.7378(11) 0.1597(10) 0.532(2)
H11 H 0.7654 0.1803 0.5500
C18 C 0.7009(9) 0.1467(9) 0.614(2)
H12 H 0.6978 0.1640 0.6759
C19 C 0.6675(11) 0.1046(10) 0.596(2)
C20 C 0.6642(11) 0.0916(9) 0.487(2)
H13 H 0.6369 0.0716 0.4635
C21 C 0.7005(10) 0.1084(9) 0.418(2)
H14 H 0.7020 0.0938 0.3519
C22 C 0.5525(10) 0.1461(9) 1.350(2)
H15 H 0.5286 0.1211 1.3452
C23 C 0.5990(10) 0.2066(9) 1.417(2)
H16 H 0.6097 0.2308 1.4617
C24 C 0.6199(10) 0.1943(9) 1.320(2)
H17 H 0.6509 0.2068 1.2884
C25 C 0.8924(11) 0.2341(11) 0.586(2)
H18 H 0.8869 0.2415 0.5149
C26 C 0.9444(12) 0.2321(12) 0.622(2)
C27 C 0.9520(12) 0.2348(10) 0.716(2)
H19 H 0.9871 0.2392 0.7413
C28 C 0.9070(11) 0.2313(10) 0.793(2)
H20 H 0.9138 0.2283 0.8657
C29 C 0.8529(14) 0.2327(12) 0.754(2)
C30 C 1.0232(10) 0.2743(10) 0.267(2)
C31 C 1.0268(11) 0.2509(10) 0.376(2)
C32 C 0.9835(11) 0.2541(9) 0.446(2)
H21 H 0.9522 0.2701 0.4264
C33 C 0.9869(11) 0.2333(10) 0.546(2)
C34 C 1.0335(10) 0.2093(9) 0.575(2)
H22 H 1.0358 0.1954 0.6417
C35 C 1.0768(11) 0.2061(10) 0.504(2)
H23 H 1.1080 0.1901 0.5239
C36 C 1.0734(11) 0.2269(10) 0.405(2)
H24 H 1.1024 0.2248 0.3576
C37 C 0.7746(11) 0.2083(11) 1.119(2)
C38 C 0.7645(13) 0.2184(13) 0.998(3)
C39 C 0.8101(12) 0.2206(10) 0.934(2)
H25 H 0.8444 0.2160 0.9627
C40 C 0.8046(12) 0.2298(11) 0.826(3)
C41 C 0.7533(11) 0.2367(11) 0.782(2)
H26 H 0.7496 0.2428 0.7099
C42 C 0.7077(12) 0.2345(11) 0.847(2)
H27 H 0.6734 0.2392 0.8179
C43 C 0.7133(13) 0.2254(11) 0.955(2)
H28 H 0.6828 0.2239 0.9983
C44 C 0.6625(11) 0.3955(10) 0.111(2)
H29 H 0.6634 0.4174 0.0568
C45 C 0.6971(11) 0.3604(11) 0.107(2)
C46 C 0.6895(11) 0.3263(9) 0.189(2)
H30 H 0.7122 0.3005 0.1909
C47 C 0.6492(10) 0.3305(10) 0.268(2)
H31 H 0.6465 0.3084 0.3215
C48 C 0.6121(12) 0.3691(11) 0.264(3)
C49 C 0.8872(12) 0.3266(10) -0.014(2)
C50 C 0.8283(12) 0.3378(10) -0.033(2)
C51 C 0.7891(11) 0.3388(9) 0.047(2)
H32 H 0.7978 0.3293 0.1155
C52 C 0.7368(13) 0.3539(11) 0.024(2)
C53 C 0.7238(12) 0.3680(10) -0.079(2)
H33 H 0.6889 0.3781 -0.0949
C54 C 0.7631(11) 0.3671(10) -0.159(2)
H34 H 0.7544 0.3765 -0.2274
C55 C 0.8153(12) 0.3519(10) -0.135(2)
H35 H 0.8415 0.3513 -0.1886
C56 C 0.4821(9) 0.3021(10) 0.518(2)
C57 C 0.5057(12) 0.3425(10) 0.464(2)
C58 C 0.5465(11) 0.3360(10) 0.389(2)
H36 H 0.5573 0.3060 0.3702
C59 C 0.5711(12) 0.3743(11) 0.341(3)
C60 C 0.5549(11) 0.4191(10) 0.369(2)
H37 H 0.5714 0.4447 0.3368
C61 C 0.5142(12) 0.4256(10) 0.444(3)
H38 H 0.5034 0.4556 0.4620
C62 C 0.4896(12) 0.3873(10) 0.491(2)
H39 H 0.4622 0.3916 0.5410
C63 C 0.6469(10) 0.3370(10) 0.601(2)
H40 H 0.6546 0.3087 0.5679
C64 C 0.6784(12) 0.3747(11) 0.587(2)
C65 C 0.6712(11) 0.4101(10) 0.643(2)
H41 H 0.6961 0.4341 0.6340
C66 C 0.6330(11) 0.4178(10) 0.714(2)
H42 H 0.6300 0.4464 0.7483
C67 C 0.5978(13) 0.3823(11) 0.736(2)
C68 C 0.8090(12) 0.2805(11) 0.361(2)
C69 C 0.7878(12) 0.3264(11) 0.399(2)
C70 C 0.7484(10) 0.3271(10) 0.478(2)
H43 H 0.7396 0.2999 0.5146
C71 C 0.7222(12) 0.3686(11) 0.504(2)
C72 C 0.7353(11) 0.4093(10) 0.449(2)
H44 H 0.7178 0.4371 0.4663
C73 C 0.7747(11) 0.4086(10) 0.370(2)
H45 H 0.7834 0.4359 0.3339
C74 C 0.8009(11) 0.3672(10) 0.345(2)
H46 H 0.8272 0.3667 0.2920
C75 C 0.4062(14) 0.3508(12) 0.868(3)
C76 C 0.4602(15) 0.3754(13) 0.878(3)
C77 C 0.5003(12) 0.3653(11) 0.803(3)
H47 H 0.4926 0.3447 0.7480
C78 C 0.5512(14) 0.3852(12) 0.809(3)
C79 C 0.5624(14) 0.4176(12) 0.888(3)
H48 H 0.5961 0.4320 0.8912
C80 C 0.5229(14) 0.4284(12) 0.963(3)
H49 H 0.5315 0.4468 1.0220
C81 C 0.4702(13) 0.4113(11) 0.950(3)
H50 H 0.4419 0.4238 0.9900
Cd1B Cd 0.50611(7) -0.18783(6) 0.56286(13)
Cd1C Cd 0.49389(7) 0.18783(6) 0.56286(13)
Cd1C_2 Cd 0.49389(7) 0.18783(6) 1.56286(13)
Cd2_2 Cd 0.89786(8) 0.24038(6) 1.19015(17)
Cd2C Cd 0.39786(8) 0.25962(6) 0.69015(17)
Cd3_2 Cd 0.79826(8) 0.17338(7) 1.31844(15)
Cd3C Cd 0.29826(8) 0.32662(7) 0.81844(15)
N2B N 0.9771(9) 0.3857(8) 0.1319(17)
N5C N 1.0582(8) 0.3257(7) -0.0676(16)
O3_2 O 0.8193(7) 0.2027(7) 0.1520(14)
O4_2 O 0.7318(7) 0.2030(6) 0.1729(14)
O7C O 1.0011(7) 0.2386(6) 0.0007(14)
O8C O 0.9413(6) 0.1913(6) 0.0695(15)
O11C O 0.9001(7) 0.1804(6) 0.3043(15)
O12C O 0.8662(7) 0.1310(6) 0.4155(15)
loop_
_geom_bond_atom_site_label_1
_geom_bond_atom_site_label_2
_geom_bond_site_symmetry_1
_geom_bond_site_symmetry_2
Cd1 O1 1_555 1_555
Cd2 O1 1_555 1_555
Cd3 N3 1_555 1_555
N1 C1 1_555 1_555
N2 C12 1_555 1_555
N3 C17 1_555 1_555
N4 C9 1_555 1_555
N5 C22 1_555 1_555
N6 C25 1_555 1_555
N7 C44 1_555 1_555
N8 C63 1_555 1_555
O1 C30 1_555 1_555
O2 Cd1 1_555 1_555
O3 C37 1_555 1_555
O4 C37 1_555 1_555
O5 Cd1 1_555 1_555
O6 Cd1 1_555 1_555
O7 C56 1_555 1_555
O8 C56 1_555 1_555
O9 Cd2 1_555 1_555
O10 Cd3 1_555 1_555
O11 C75 1_555 1_555
O12 C75 1_555 1_555
O13 Cd3 1_555 1_555
C1 C2 1_555 1_555
C2 H1 1_555 1_555
C3 C2 1_555 1_555
C4 C3 1_555 1_555
H2 C4 1_555 1_555
C5 N1 1_555 1_555
C6 C3 1_555 1_555
C7 C6 1_555 1_555
H3 C7 1_555 1_555
C8 C7 1_555 1_555
H4 C8 1_555 1_555
C9 C8 1_555 1_555
C10 C9 1_555 1_555
H5 C10 1_555 1_555
C11 C6 1_555 1_555
H6 C11 1_555 1_555
C12 H7 1_555 1_555
C13 C12 1_555 1_555
H8 C13 1_555 1_555
C14 C5 1_555 1_555
C15 C14 1_555 1_555
H9 C15 1_555 1_555
C16 N2 1_555 1_555
H10 C16 1_555 1_555
C17 H11 1_555 1_555
C18 C17 1_555 1_555
H12 C18 1_555 1_555
C19 C1 1_555 1_555
C20 C19 1_555 1_555
H13 C20 1_555 1_555
C21 N3 1_555 1_555
H14 C21 1_555 1_555
C22 N4 1_555 1_555
H15 C22 1_555 1_555
C23 N5 1_555 1_555
H16 C23 1_555 1_555
C24 N4 1_555 1_555
H17 C24 1_555 1_555
C25 H18 1_555 1_555
C26 C25 1_555 1_555
C27 C26 1_555 1_555
H19 C27 1_555 1_555
C28 C27 1_555 1_555
H20 C28 1_555 1_555
C29 N6 1_555 1_555
C30 O2 1_555 1_555
C31 C30 1_555 1_555
C32 C31 1_555 1_555
H21 C32 1_555 1_555
C33 C26 1_555 1_555
C34 C33 1_555 1_555
H22 C34 1_555 1_555
C35 C34 1_555 1_555
H23 C35 1_555 1_555
C36 C31 1_555 1_555
H24 C36 1_555 1_555
C37 C38 1_555 1_555
C38 C39 1_555 1_555
C39 H25 1_555 1_555
C40 C29 1_555 1_555
C41 C40 1_555 1_555
H26 C41 1_555 1_555
C42 C41 1_555 1_555
H27 C42 1_555 1_555
C43 C38 1_555 1_555
H28 C43 1_555 1_555
C44 H29 1_555 1_555
C45 C44 1_555 1_555
C46 C45 1_555 1_555
H30 C46 1_555 1_555
C47 C46 1_555 1_555
H31 C47 1_555 1_555
C48 N7 1_555 1_555
C49 O5 1_555 1_555
C50 C49 1_555 1_555
C51 C50 1_555 1_555
H32 C51 1_555 1_555
C52 C45 1_555 1_555
C53 C52 1_555 1_555
H33 C53 1_555 1_555
C54 C53 1_555 1_555
H34 C54 1_555 1_555
C55 C50 1_555 1_555
H35 C55 1_555 1_555
C56 C57 1_555 1_555
C57 C58 1_555 1_555
C58 H36 1_555 1_555
C59 C48 1_555 1_555
C60 C59 1_555 1_555
H37 C60 1_555 1_555
C61 C60 1_555 1_555
H38 C61 1_555 1_555
C62 C57 1_555 1_555
H39 C62 1_555 1_555
C63 H40 1_555 1_555
C64 C63 1_555 1_555
C65 C64 1_555 1_555
H41 C65 1_555 1_555
C66 C65 1_555 1_555
H42 C66 1_555 1_555
C67 N8 1_555 1_555
C68 O9 1_555 1_555
C69 C68 1_555 1_555
C70 C69 1_555 1_555
H43 C70 1_555 1_555
C71 C64 1_555 1_555
C72 C71 1_555 1_555
H44 C72 1_555 1_555
C73 C72 1_555 1_555
H45 C73 1_555 1_555
C74 C69 1_555 1_555
H46 C74 1_555 1_555
C75 C76 1_555 1_555
C76 C77 1_555 1_555
C77 H47 1_555 1_555
C78 C67 1_555 1_555
C79 C78 1_555 1_555
H48 C79 1_555 1_555
C80 C79 1_555 1_555
H49 C80 1_555 1_555
C81 C76 1_555 1_555
H50 C81 1_555 1_555
Cd1B N2 1_555 1_555
Cd1C O7 1_555 1_555
Cd1C_2 N5 1_555 1_555
Cd2_2 O3 1_555 1_555
Cd2C O8 1_555 1_555
Cd3_2 O3 1_555 1_555
Cd3C O11 1_555 1_555
N2B Cd1 1_555 1_555
N5C Cd1 1_555 1_555
O3_2 Cd2 1_555 1_555
O4_2 Cd3 1_555 1_555
O7C Cd1 1_555 1_555
O8C Cd2 1_555 1_555
O11C Cd2 1_555 1_555
O12C Cd3 1_555 1_555
Cd2 O5 1_555 1_555
Cd3 O3_2 1_555 1_555
Cd3 O11C 1_555 1_555
O4 Cd3_2 1_555 1_555
O6 C49 1_555 1_555
O10 C68 1_555 1_555
O11 Cd2C 1_555 1_555
O12 Cd3C 1_555 1_555
C4 C5 1_555 1_555
C10 C11 1_555 1_555
C13 C14 1_555 1_555
C15 C16 1_555 1_555
C18 C19 1_555 1_555
C20 C21 1_555 1_555
C23 C24 1_555 1_555
C28 C29 1_555 1_555
C32 C33 1_555 1_555
C35 C36 1_555 1_555
C39 C40 1_555 1_555
C42 C43 1_555 1_555
C47 C48 1_555 1_555
C51 C52 1_555 1_555
C54 C55 1_555 1_555
C58 C59 1_555 1_555
C61 C62 1_555 1_555
C66 C67 1_555 1_555
C70 C71 1_555 1_555
C73 C74 1_555 1_555
C77 C78 1_555 1_555
C80 C81 1_555 1_555

#END
