
#######################################################################
#
#                 Cambridge Crystallographic Data Centre
#                                CCDC 
#
#######################################################################
#
# If this CIF has been generated from an entry in the Cambridge 
# Structural Database, then it will include bibliographic, chemical, 
# crystal, experimental, refinement or atomic coordinate data resulting 
# from the CCDC's data processing and validation procedures.
#
#######################################################################

data_BUCYAA
_chemical_formula_moiety         '(C22 H38 N32 O10 Zn7)n'
_symmetry_cell_setting           monoclinic
_symmetry_space_group_name_H-M   'C 2/c'
_symmetry_Int_Tables_number      15
_space_group_name_Hall           '-C 2yc'
loop_
_symmetry_equiv_pos_site_id
_symmetry_equiv_pos_as_xyz
1 x,y,z
2 1/2+x,1/2+y,z
3 -x,y,1/2-z
4 1/2-x,1/2+y,1/2-z
5 -x,-y,-z
6 1/2-x,1/2-y,-z
7 x,-y,1/2+z
8 1/2+x,1/2-y,1/2+z
_cell_length_a                   26.352(3)
_cell_length_b                   22.909(2)
_cell_length_c                   16.5408(15)
_cell_angle_alpha                90
_cell_angle_beta                 97.259(4)
_cell_angle_gamma                90
_cell_volume                     9905.61
loop_
_atom_site_label
_atom_site_type_symbol
_atom_site_fract_x
_atom_site_fract_y
_atom_site_fract_z
_atom_site_U_iso_or_equiv
_atom_site_thermal_displace_type
Zn1 Zn 0.11632(2) 0.36289(3) 0.95709(4) 0.0226 Uani
Zn2 Zn 0.32399(2) 0.61222(3) 1.13717(4) 0.0230 Uani
Zn3 Zn 0.24838(2) 0.50668(3) 1.22571(4) 0.0216 Uani
Zn4 Zn 0.17293(3) 0.40455(3) 1.32050(4) 0.0229 Uani
Zn5 Zn -0.10496(3) 0.31156(3) 0.96095(4) 0.0276 Uani
Zn6 Zn 0.11182(2) 0.12597(3) 0.99198(4) 0.0229 Uani
Zn7 Zn -0.11686(2) 0.16001(3) 0.97158(4) 0.0271 Uani
O1 O 0.3573(2) 0.6672(2) 1.0761(3) 0.0406 Uani
H1 H 0.3621 0.7037 1.1003 0.0490 Uiso
O2 O -0.1200(2) 0.23445(19) 0.9157(3) 0.0382 Uani
H2 H -0.1300 0.2330 0.8597 0.0460 Uiso
O3 O 0.10093(18) 0.2491(2) 1.0200(3) 0.0364 Uani
O4 O 0.13641(19) 0.28791(19) 0.9164(3) 0.0387 Uani
O5 O 0.1324(2) 0.19228(19) 0.9300(3) 0.0392 Uani
O6 O 0.12949(19) 0.3643(2) 1.3861(3) 0.0398 Uani
O7 O 0.0961(3) 0.2830(2) 1.4282(3) 0.0636 Uani
O9 O 0.1275(4) 0.2791(4) 1.3147(6) 0.0590 Uiso
C1 C 0.1229(2) 0.2434(3) 0.9575(4) 0.0284 Uani
C2 C 0.1214(4) 0.3095(3) 1.3767(5) 0.0607 Uani
N1 N 0.35718(19) 0.4399(2) 1.0692(3) 0.0255 Uani
N2 N 0.30738(19) 0.4860(2) 1.1491(3) 0.0258 Uani
N3 N 0.33391(18) 0.5278(2) 1.1080(3) 0.0245 Uani
N4 N 0.3054(3) 0.3831(2) 1.1472(4) 0.0507 Uani
H3 H 0.2833 0.3819 1.1812 0.0610 Uiso
H4 H 0.3165 0.3511 1.1284 0.0610 Uiso
C3 C 0.3225(2) 0.4344(3) 1.1234(4) 0.0256 Uani
C4 C 0.3624(2) 0.4987(3) 1.0627(4) 0.0269 Uani
H5 H 0.3839 0.5164 1.0295 0.0320 Uiso
N5 N 0.15004(19) 0.3890(2) 1.0670(3) 0.0281 Uani
N6 N 0.16854(19) 0.4015(2) 1.2003(3) 0.0259 Uani
N7 N 0.19528(18) 0.4430(2) 1.1619(3) 0.0251 Uani
N8 N 0.1098(3) 0.3259(3) 1.1551(4) 0.0489 Uani
H6 H 0.1058 0.3161 1.2040 0.0590 Uiso
H7 H 0.0936 0.3075 1.1144 0.0590 Uiso
C5 C 0.1419(2) 0.3706(3) 1.1419(4) 0.0286 Uani
C6 C 0.1831(2) 0.4335(3) 1.0836(4) 0.0281 Uani
H8 H 0.1961 0.4553 1.0435 0.0340 Uiso
N9 N 0.32855(19) 0.3893(2) 1.4085(3) 0.0303 Uani
N10 N 0.28035(18) 0.4409(2) 1.3144(3) 0.0285 Uani
N11 N 0.24915(19) 0.4038(2) 1.3534(3) 0.0280 Uani
N12 N 0.3689(2) 0.4557(3) 1.3250(4) 0.0534 Uani
H9 H 0.3654 0.4804 1.2855 0.0640 Uiso
H10 H 0.3988 0.4474 1.3491 0.0640 Uiso
C7 C 0.3276(2) 0.4302(3) 1.3489(4) 0.0285 Uani
C8 C 0.2793(2) 0.3747(3) 1.4077(4) 0.0309 Uani
H11 H 0.2678 0.3469 1.4422 0.0370 Uiso
N13 N 0.1422(2) 0.4231(2) 0.8833(3) 0.0272 Uani
N14 N 0.16152(19) 0.5106(2) 0.8400(3) 0.0255 Uani
N15 N 0.19162(19) 0.4697(2) 0.8051(3) 0.0274 Uani
N16 N 0.1000(3) 0.5062(3) 0.9324(4) 0.0511 Uani
H12 H 0.0973 0.5436 0.9334 0.0620 Uiso
H13 H 0.0822 0.4850 0.9610 0.0620 Uiso
C9 C 0.1329(2) 0.4806(3) 0.8854(4) 0.0273 Uani
C10 C 0.1786(2) 0.4187(3) 0.8325(4) 0.0280 Uani
H14 H 0.1928 0.3835 0.8187 0.0340 Uiso
N17 N 0.16571(19) 0.6411(2) 1.0832(3) 0.0294 Uani
N18 N 0.24740(18) 0.6188(2) 1.1190(3) 0.0265 Uani
N19 N 0.21810(18) 0.5718(2) 1.1395(3) 0.0258 Uani
N20 N 0.2281(2) 0.7114(3) 1.0577(4) 0.0503 Uani
H15 H 0.2600 0.7204 1.0597 0.0600 Uiso
H16 H 0.2050 0.7356 1.0374 0.0600 Uiso
C11 C 0.2144(2) 0.6588(3) 1.0866(4) 0.0282 Uani
C12 C 0.1704(2) 0.5872(3) 1.1170(4) 0.0307 Uani
H17 H 0.1426 0.5634 1.1235 0.0370 Uiso
N21 N 0.35333(19) 0.6147(2) 1.3937(3) 0.0281 Uani
N22 N 0.3349(2) 0.6088(2) 1.2585(3) 0.0297 Uani
N23 N 0.30118(19) 0.5723(2) 1.2929(3) 0.0280 Uani
N24 N 0.4020(3) 0.6718(3) 1.3111(4) 0.0576 Uani
H18 H 0.4076 0.6819 1.2630 0.0690 Uiso
H19 H 0.4201 0.6863 1.3532 0.0690 Uiso
C13 C 0.3647(2) 0.6332(3) 1.3207(4) 0.0317 Uani
C14 C 0.3132(2) 0.5772(3) 1.3722(4) 0.0295 Uani
H20 H 0.2963 0.5573 1.4099 0.0350 Uiso
N25 N -0.0480(2) 0.1257(2) 0.9798(4) 0.0391 Uani
N26 N 0.03591(19) 0.1156(2) 0.9846(3) 0.0312 Uani
N27 N 0.0112(3) 0.0673(4) 0.9529(7) 0.0841 Uani
N28 N 0.0037(3) 0.2026(3) 1.0396(6) 0.0764 Uani
H21 H -0.0221 0.2207 1.0546 0.0910 Uiso
H22 H 0.0339 0.2171 1.0504 0.0910 Uiso
C15 C -0.0033(2) 0.1499(3) 0.9979(5) 0.0421 Uani
C16 C -0.0385(2) 0.0705(3) 0.9549(5) 0.0512 Uani
H23 H -0.0623 0.0410 0.9419 0.0610 Uiso
N29 N -0.0411(2) 0.3477(3) 0.9348(4) 0.0381 Uani
N30 N 0.0183(2) 0.3803(4) 0.8607(4) 0.0546 Uani
N31 N 0.0404(2) 0.3703(3) 0.9408(3) 0.0358 Uani
C17 C -0.0299(3) 0.3654(4) 0.8606(5) 0.0476 Uiso
N33 N -0.0680(4) 0.3708(5) 0.7941(6) 0.0580 Uiso
H26 H -0.0606 0.3848 0.7487 0.0700 Uiso
H27 H -0.0988 0.3601 0.7985 0.0700 Uiso
C19 C 0.0039(2) 0.3523(3) 0.9801(4) 0.0362 Uani
H28 H 0.0088 0.3435 1.0354 0.0440 Uiso
Zn3F Zn 0.24838(2) 0.49332(3) 0.72571(4) 0.0216 Uani
Zn4F Zn 0.17293(3) 0.59545(3) 0.82050(4) 0.0229 Uani
Zn5B Zn 0.10496(3) 0.31156(3) 1.53905(4) 0.0276 Uani
Zn5D Zn 0.10496(3) 0.68844(3) 1.03905(4) 0.0276 Uani
Zn6E Zn 0.38818(2) 0.37403(3) 1.00802(4) 0.0229 Uani
Zn6C Zn 0.38818(2) 0.62597(3) 1.50802(4) 0.0229 Uani
Zn7A Zn 0.38314(2) 0.66001(3) 0.97158(4) 0.0271 Uani
Zn7G Zn 0.38314(2) 0.33999(3) 1.47158(4) 0.0271 Uani
O1A O -0.1427(2) 0.1672(2) 1.0761(3) 0.0406 Uani
H1A H -0.1379 0.2037 1.1003 0.0490 Uiso
O7B O -0.0961(3) 0.2830(2) 1.0718(3) 0.0636 Uani
N1E N 0.14282(19) 0.0601(2) 0.9308(3) 0.0255 Uani
N9G N -0.17145(19) 0.1107(2) 0.9085(3) 0.0303 Uani
N14F N 0.16152(19) 0.4894(2) 1.3400(3) 0.0255 Uani
N15F N 0.19162(19) 0.5303(2) 1.3051(3) 0.0274 Uani
N17D N -0.16571(19) 0.3589(2) 0.9168(3) 0.0294 Uani
N21C N 0.14667(19) 0.1147(2) 1.1063(3) 0.0281 Uani
O10 O 0.2508(5) 0.2245(5) 0.7574(6) 0.1500 Uiso
H29 H 0.2710 0.2300 0.7243 0.2250 Uiso
C20 C 0.2528(5) 0.2737(4) 0.8136(7) 0.1500 Uiso
H30 H 0.2206 0.2947 0.8045 0.1800 Uiso
H31 H 0.2796 0.3002 0.8020 0.1800 Uiso
C21 C 0.2624(7) 0.2559(7) 0.9011(6) 0.1500 Uiso
H32 H 0.2632 0.2899 0.9351 0.2250 Uiso
H33 H 0.2945 0.2359 0.9110 0.2250 Uiso
H34 H 0.2355 0.2304 0.9135 0.2250 Uiso
O11 O 0.3502(4) 0.7583(5) 0.7463(7) 0.1500 Uiso
H35 H 0.3377 0.7257 0.7489 0.2250 Uiso
C22 C 0.4055(4) 0.7532(4) 0.7482(7) 0.1500 Uiso
H36 H 0.4221 0.7752 0.7944 0.1800 Uiso
H37 H 0.4155 0.7706 0.6991 0.1800 Uiso
C23 C 0.4241(5) 0.6916(5) 0.7546(9) 0.1500 Uiso
H38 H 0.4606 0.6910 0.7557 0.2250 Uiso
H39 H 0.4085 0.6697 0.7085 0.2250 Uiso
H40 H 0.4151 0.6744 0.8038 0.2250 Uiso
loop_
_atom_site_aniso_label
_atom_site_aniso_U_11
_atom_site_aniso_U_22
_atom_site_aniso_U_33
_atom_site_aniso_U_23
_atom_site_aniso_U_13
_atom_site_aniso_U_12
Zn1 0.0251(3) 0.0210(3) 0.0214(3) 0.0010(3) 0.0013(2) -0.0052(3)
Zn2 0.0263(3) 0.0188(3) 0.0240(3) 0.0004(2) 0.0030(3) -0.0023(3)
Zn3 0.0221(3) 0.0189(3) 0.0233(3) 0.0004(2) 0.0009(2) 0.0013(2)
Zn4 0.0260(3) 0.0208(3) 0.0217(3) -0.0016(3) 0.0027(2) 0.0008(3)
Zn5 0.0248 0.0249 0.0324 0.0048 0.0013 0.0047
Zn6 0.0224(3) 0.0225(3) 0.0233(3) -0.0006(3) 0.0006(2) 0.0036(2)
Zn7 0.0217 0.0263 0.032 0.0033 -0.0017 -0.005
O1 0.061(3) 0.028(2) 0.034(2) 0.000(2) 0.011(2) -0.022(2)
O2 0.062 0.023 0.028 0.0026 -0.001 0
O3 0.038(3) 0.037(3) 0.036(2) -0.009(2) 0.012(2) -0.009(2)
O4 0.051(3) 0.019(2) 0.049(3) 0.003(2) 0.018(2) -0.001(2)
O5 0.056(3) 0.021(2) 0.045(3) 0.002(2) 0.023(2) 0.005(2)
O6 0.047(3) 0.034(3) 0.041(3) 0.004(2) 0.016(2) -0.005(2)
O7 0.132(6) 0.030(3) 0.028(3) 0.001(2) 0.007(3) -0.023(3)
C1 0.028(3) 0.019(3) 0.037(3) -0.001(2) -0.001(3) 0.001(2)
C2 0.122(8) 0.030(4) 0.033(4) 0.009(3) 0.021(5) 0.015(4)
N1 0.029 0.022 0.026 -0.002 0.006 0.002
N2 0.027 0.018 0.034 0 0.01 0.0011
N3 0.026 0.019 0.029 0.0011 0.0056 0.0026
N4 0.066 0.02 0.076 0.001 0.048 0.004
C3 0.027 0.021 0.03 -0.001 0.008 0
C4 0.03 0.025 0.027 0.002 0.009 0.001
N5 0.034(3) 0.028(3) 0.022(2) 0.000(2) 0.002(2) -0.008(2)
N6 0.031(3) 0.024(3) 0.023(2) -0.002(2) 0.004(2) -0.007(2)
N7 0.027(2) 0.022(2) 0.025(2) 0.000(2) -0.0013(19) -0.0035(19)
N8 0.069(4) 0.049(4) 0.031(3) -0.008(3) 0.015(3) -0.039(3)
C5 0.037(3) 0.028(3) 0.021(3) 0.001(2) 0.004(2) -0.008(3)
C6 0.032(3) 0.027(3) 0.025(3) 0.003(2) 0.002(2) -0.007(2)
N9 0.025(2) 0.027(3) 0.037(3) 0.006(2) -0.003(2) 0.003(2)
N10 0.025(2) 0.030(3) 0.030(3) 0.009(2) 0.001(2) 0.000(2)
N11 0.023(2) 0.029(3) 0.031(3) 0.005(2) 0.000(2) 0.003(2)
N12 0.025(3) 0.062(4) 0.072(5) 0.035(4) 0.001(3) 0.005(3)
C7 0.024(3) 0.030(3) 0.031(3) 0.002(2) 0.001(2) 0.004(2)
C8 0.026(3) 0.035(3) 0.031(3) 0.005(3) 0.001(2) 0.006(3)
N13 0.034(3) 0.020(2) 0.028(3) 0.005(2) 0.005(2) -0.002(2)
N14 0.029(3) 0.021(2) 0.028(3) 0.003(2) 0.009(2) 0.0021(19)
N15 0.029(3) 0.023(3) 0.031(3) 0.001(2) 0.007(2) -0.002(2)
N16 0.060(4) 0.036(3) 0.065(4) 0.009(3) 0.038(4) 0.009(3)
C9 0.030(3) 0.025(3) 0.027(3) 0.005(2) 0.004(2) -0.001(2)
C10 0.033(3) 0.024(3) 0.028(3) 0.004(2) 0.008(2) -0.002(2)
N17 0.026(3) 0.026(3) 0.036(3) 0.005(2) 0.003(2) 0.005(2)
N18 0.024(2) 0.023(3) 0.033(3) 0.005(2) 0.006(2) 0.0046(19)
N19 0.025(2) 0.021(2) 0.031(3) 0.006(2) 0.002(2) -0.0004(19)
N20 0.039(3) 0.036(3) 0.078(5) 0.026(3) 0.016(3) 0.009(3)
C11 0.028(3) 0.025(3) 0.033(3) 0.004(2) 0.009(2) 0.005(2)
C12 0.026(3) 0.030(3) 0.035(3) 0.010(3) 0.000(2) 0.003(2)
N21 0.032(3) 0.027(3) 0.024(3) 0.002(2) -0.001(2) -0.004(2)
N22 0.034(3) 0.030(3) 0.025(3) -0.003(2) 0.003(2) -0.012(2)
N23 0.030(3) 0.030(3) 0.023(2) -0.001(2) -0.001(2) -0.008(2)
N24 0.071(5) 0.068(5) 0.032(3) 0.000(3) 0.000(3) -0.045(4)
C13 0.034(3) 0.031(3) 0.029(3) -0.002(3) 0.000(3) -0.006(3)
C14 0.027(3) 0.032(3) 0.028(3) 0.000(2) -0.002(2) -0.004(2)
N25 0.024 0.03 0.061 0.003 -0.004 -0.002
N26 0.024 0.028 0.04 -0.002 -0.002 0.001
N27 0.058 0.057 0.135 -0.021 0.003 -0.007
N28 0.036 0.066 0.126 -0.026 0.006 0.002
C15 0.026 0.029 0.069 0 -0.003 0.001
C16 0.019 0.032 0.102 -0.019 0.005 -0.005
N29 0.023 0.045 0.046 0.007 0.003 -0.003
N30 0.031 0.097 0.034 0.015 -0.003 -0.001
N31 0.029 0.039 0.038 0.003 -0.001 -0.002
C19 0.027 0.04 0.041 0.006 0.002 -0.003
Zn3F 0.0221 0.0189 0.0233 -0.0004 0.0009 -0.0013
Zn4F 0.026 0.0208 0.0217 0.0016 0.0027 -0.0008
Zn5B 0.0248 0.0249 0.0324 -0.0048 0.0013 -0.0047
Zn5D 0.0248 0.0249 0.0324 0.0048 0.0013 0.0047
Zn6E 0.0224 0.0225 0.0233 -0.0006 0.0006 0.0036
Zn6C 0.0224 0.0225 0.0233 0.0006 0.0006 -0.0036
Zn7A 0.0217(3) 0.0263(4) 0.0320(4) 0.0033(3) -0.0017(3) -0.0050(3)
Zn7G 0.0217 0.0263 0.032 -0.0033 -0.0017 0.005
O1A 0.061 0.028 0.034 0 0.011 -0.022
O7B 0.132 0.03 0.028 -0.001 0.007 0.023
N1E 0.029(3) 0.022(2) 0.026(2) -0.002(2) 0.006(2) 0.002(2)
N9G 0.025 0.027 0.037 -0.006 -0.003 -0.003
N14F 0.029 0.021 0.028 -0.003 0.009 -0.0021
N15F 0.029 0.023 0.031 -0.001 0.007 0.002
N17D 0.026 0.026 0.036 0.005 0.003 0.005
N21C 0.032 0.027 0.024 -0.002 -0.001 0.004
loop_
_geom_bond_atom_site_label_1
_geom_bond_atom_site_label_2
_geom_bond_site_symmetry_1
_geom_bond_site_symmetry_2
Zn1 O4 1_555 1_555
Zn2 O1 1_555 1_555
Zn3 N2 1_555 1_555
Zn4 O6 1_555 1_555
Zn5 O2 1_555 1_555
Zn6 O5 1_555 1_555
Zn7 O2 1_555 1_555
O1 H1 1_555 1_555
O2 H2 1_555 1_555
O3 C1 1_555 1_555
O4 C1 1_555 1_555
O5 C1 1_555 1_555
O6 C2 1_555 1_555
O7 C2 1_555 1_555
O9 C2 1_555 1_555
N1 C3 1_555 1_555
N2 N3 1_555 1_555
N3 Zn2 1_555 1_555
N4 H3 1_555 1_555
H4 N4 1_555 1_555
C3 N2 1_555 1_555
C4 N1 1_555 1_555
H5 C4 1_555 1_555
N5 Zn1 1_555 1_555
N6 Zn4 1_555 1_555
N7 Zn3 1_555 1_555
N8 H6 1_555 1_555
H7 N8 1_555 1_555
C5 N5 1_555 1_555
C6 N5 1_555 1_555
H8 C6 1_555 1_555
N9 C7 1_555 1_555
N10 Zn3 1_555 1_555
N11 Zn4 1_555 1_555
N12 H9 1_555 1_555
H10 N12 1_555 1_555
C7 N10 1_555 1_555
C8 N9 1_555 1_555
H11 C8 1_555 1_555
N13 Zn1 1_555 1_555
N14 N15 1_555 1_555
N15 C10 1_555 1_555
N16 H12 1_555 1_555
H13 N16 1_555 1_555
C9 N13 1_555 1_555
C10 N13 1_555 1_555
H14 C10 1_555 1_555
N17 C11 1_555 1_555
N18 Zn2 1_555 1_555
N19 Zn3 1_555 1_555
N20 H15 1_555 1_555
H16 N20 1_555 1_555
C11 N18 1_555 1_555
C12 N17 1_555 1_555
H17 C12 1_555 1_555
N21 C13 1_555 1_555
N22 Zn2 1_555 1_555
N23 Zn3 1_555 1_555
N24 H18 1_555 1_555
H19 N24 1_555 1_555
C13 N22 1_555 1_555
C14 N21 1_555 1_555
H20 C14 1_555 1_555
N25 Zn7 1_555 1_555
N26 Zn6 1_555 1_555
N27 N26 1_555 1_555
N28 H21 1_555 1_555
H22 N28 1_555 1_555
C15 N25 1_555 1_555
C16 N25 1_555 1_555
H23 C16 1_555 1_555
N29 Zn5 1_555 1_555
N30 N31 1_555 1_555
N31 Zn1 1_555 1_555
C17 N29 1_555 1_555
N33 C17 1_555 1_555
H26 N33 1_555 1_555
H27 N33 1_555 1_555
C19 N29 1_555 1_555
H28 C19 1_555 1_555
O10 H29 1_555 1_555
C20 O10 1_555 1_555
H30 C20 1_555 1_555
H31 C20 1_555 1_555
C21 C20 1_555 1_555
H32 C21 1_555 1_555
H33 C21 1_555 1_555
H34 C21 1_555 1_555
O11 H35 1_555 1_555
C22 O11 1_555 1_555
H36 C22 1_555 1_555
H37 C22 1_555 1_555
C23 C22 1_555 1_555
H38 C23 1_555 1_555
H39 C23 1_555 1_555
H40 C23 1_555 1_555
Zn3F N15 1_555 1_555
Zn4F N14 1_555 1_555
Zn5B O7 1_555 1_555
Zn5D N17 1_555 1_555
Zn6E N1 1_555 1_555
Zn6C N21 1_555 1_555
Zn7A O1 1_555 1_555
Zn7G N9 1_555 1_555
O1A Zn7 1_555 1_555
H1A O1A 1_555 1_555
O7B Zn5 1_555 1_555
N1E Zn6 1_555 1_555
N9G Zn7 1_555 1_555
N14F Zn4 1_555 1_555
N15F Zn3 1_555 1_555
N17D Zn5 1_555 1_555
N21C Zn6 1_555 1_555
N3 C4 1_555 1_555
N4 C3 1_555 1_555
N6 N7 1_555 1_555
N6 C5 1_555 1_555
N7 C6 1_555 1_555
N8 C5 1_555 1_555
N10 N11 1_555 1_555
N11 C8 1_555 1_555
N12 C7 1_555 1_555
N14 C9 1_555 1_555
N16 C9 1_555 1_555
N18 N19 1_555 1_555
N19 C12 1_555 1_555
N20 C11 1_555 1_555
N22 N23 1_555 1_555
N23 C14 1_555 1_555
N24 C13 1_555 1_555
N26 C15 1_555 1_555
N27 C16 1_555 1_555
N28 C15 1_555 1_555
N30 C17 1_555 1_555
N31 C19 1_555 1_555
N14F N15F 1_555 1_555

#END
