
#######################################################################
#
#                 Cambridge Crystallographic Data Centre
#                                CCDC 
#
#######################################################################
#
# If this CIF has been generated from an entry in the Cambridge 
# Structural Database, then it will include bibliographic, chemical, 
# crystal, experimental, refinement or atomic coordinate data resulting 
# from the CCDC's data processing and validation procedures.
#
#######################################################################

data_CECYOY
_chemical_formula_moiety         '(C6 H12 Cl2 Cu2 N6 S6)n'
_symmetry_cell_setting           orthorhombic
_symmetry_space_group_name_H-M   'C c c a'
_symmetry_Int_Tables_number      68
_space_group_name_Hall           '-C 2a 2ac'
loop_
_symmetry_equiv_pos_site_id
_symmetry_equiv_pos_as_xyz
1 x,y,z
2 1/2+x,1/2+y,z
3 1/2-x,-y,z
4 -x,1/2-y,z
5 1/2+x,-y,1/2-z
6 x,1/2-y,1/2-z
7 -x,y,1/2-z
8 1/2-x,1/2+y,1/2-z
9 -x,-y,-z
10 1/2-x,1/2-y,-z
11 1/2+x,y,-z
12 x,1/2+y,-z
13 1/2-x,y,1/2+z
14 -x,1/2+y,1/2+z
15 x,-y,1/2+z
16 1/2+x,1/2-y,1/2+z
_cell_length_a                   14.528(3)
_cell_length_b                   22.686(4)
_cell_length_c                   13.503(3)
_cell_angle_alpha                90
_cell_angle_beta                 90
_cell_angle_gamma                90
_cell_volume                     4450.35
loop_
_atom_site_label
_atom_site_type_symbol
_atom_site_fract_x
_atom_site_fract_y
_atom_site_fract_z
Cu1 Cu 0.63260 0.15749 0.49440
Cl1 Cl 0.49680 0.10920 0.42930
S1 S 0.62010 0.17080 0.65940
S2 S 0.65610 0.24140 0.40690
S3 S 0.75140 0.09330 0.47010
N1 N 0.44200 0.16900 0.63600
N2 N 0.62000 0.17430 0.25500
N3 N 0.63100 0.01020 0.51300
C1 C 0.51100 0.16900 0.69500
C2 C 0.63600 0.22570 0.28800
C3 C 0.71500 0.02650 0.49000
H1 H 0.37900 0.16700 0.66300
H2 H 0.44800 0.16900 0.56600
H3 H 0.61800 0.14000 0.29800
H4 H 0.60900 0.16700 0.18500
H5 H 0.61700 -0.03200 0.53000
H6 H 0.58100 0.04000 0.51700
S1F S 0.37990 0.17080 0.84060
N1F N 0.55800 0.16900 0.86400
C1F C 0.48900 0.16900 0.80500
H1F H 0.62100 0.16700 0.83700
H2F H 0.55200 0.16900 0.93400
S2E S 0.65610 0.25860 0.09310
N2E N 0.62000 0.32570 0.24500
C2E C 0.63600 0.27430 0.21200
H3E H 0.61800 0.36000 0.20200
H4E H 0.60900 0.33300 0.31500
S3B S 0.74860 -0.09330 0.47010
N3B N 0.86900 -0.01020 0.51300
C3B C 0.78500 -0.02650 0.49000
H5B H 0.88300 0.03200 0.53000
H6B H 0.91900 -0.04000 0.51700
Cu1B Cu 0.86740 -0.15749 0.49440
Cl1B Cl 1.00320 -0.10920 0.42930
Cu1E Cu 0.63260 0.34251 0.00560
Cu1F Cu 0.36740 0.15749 1.00560
S1B S 0.87990 -0.17080 0.65940
S2B S 0.84390 -0.24140 0.40690
loop_
_geom_bond_atom_site_label_1
_geom_bond_atom_site_label_2
_geom_bond_site_symmetry_1
_geom_bond_site_symmetry_2
Cu1 Cl1 1_555 1_555
S1 Cu1 1_555 1_555
S2 Cu1 1_555 1_555
S3 Cu1 1_555 1_555
N1 C1 1_555 1_555
N2 C2 1_555 1_555
N3 C3 1_555 1_555
C1 S1 1_555 1_555
C2 S2 1_555 1_555
C3 S3 1_555 1_555
H1 N1 1_555 1_555
H2 N1 1_555 1_555
H3 N2 1_555 1_555
H4 N2 1_555 1_555
H5 N3 1_555 1_555
H6 N3 1_555 1_555
S1F C1F 1_555 1_555
N1F C1F 1_555 1_555
C1F C1 1_555 1_555
H1F N1F 1_555 1_555
H2F N1F 1_555 1_555
S2E C2E 1_555 1_555
N2E C2E 1_555 1_555
C2E C2 1_555 1_555
H3E N2E 1_555 1_555
H4E N2E 1_555 1_555
S3B C3B 1_555 1_555
N3B C3B 1_555 1_555
C3B C3 1_555 1_555
H5B N3B 1_555 1_555
H6B N3B 1_555 1_555
Cu1B S3B 1_555 1_555
Cl1B Cu1B 1_555 1_555
Cu1E S2E 1_555 1_555
Cu1F S1F 1_555 1_555
S1B Cu1B 1_555 1_555
S2B Cu1B 1_555 1_555

#END
