
#######################################################################
#
#                 Cambridge Crystallographic Data Centre
#                                CCDC 
#
#######################################################################
#
# If this CIF has been generated from an entry in the Cambridge 
# Structural Database, then it will include bibliographic, chemical, 
# crystal, experimental, refinement or atomic coordinate data resulting 
# from the CCDC's data processing and validation procedures.
#
#######################################################################

data_COSWEO
_chemical_formula_moiety         '(C18 H24 Ba3 O21)n'
_symmetry_cell_setting           orthorhombic
_symmetry_space_group_name_H-M   'P b c n'
_symmetry_Int_Tables_number      60
_space_group_name_Hall           '-P 2n 2ab'
loop_
_symmetry_equiv_pos_site_id
_symmetry_equiv_pos_as_xyz
1 x,y,z
2 1/2-x,1/2-y,1/2+z
3 -x,y,1/2-z
4 1/2+x,1/2-y,-z
5 -x,-y,-z
6 1/2+x,1/2+y,1/2-z
7 x,-y,1/2+z
8 1/2-x,1/2+y,z
_cell_length_a                   20.812(4)
_cell_length_b                   6.6495(13)
_cell_length_c                   20.865(4)
_cell_angle_alpha                90
_cell_angle_beta                 90
_cell_angle_gamma                90
_cell_volume                     2887.49
loop_
_atom_site_label
_atom_site_type_symbol
_atom_site_fract_x
_atom_site_fract_y
_atom_site_fract_z
Ba1 Ba 0.0000 0.13785(6) 0.2500
Ba2 Ba 0.139957(16) 0.39394(4) 0.114947(13)
O1 O 0.09872(18) 0.2435(6) 0.33854(16)
O2 O 0.1409(3) 0.7228(7) 0.0358(2)
H1 H 0.1178 0.7004 0.0012
H2 H 0.1804 0.7504 0.0238
O3 O 0.13074(18) 0.2627(6) 0.23789(16)
O4 O 0.3661(2) 0.2566(7) 0.48943(18)
O5 O 0.2665(2) 0.1680(6) 0.51095(17)
O6 O 0.35963(17) 0.2518(5) 0.18230(16)
O7 O 0.43290(18) 0.2879(6) 0.25900(16)
O8 O 0.0553(2) 0.0492(6) 0.12580(18)
O9 O 0.22157(19) 0.0343(6) 0.12414(16)
O10 O 0.0166(2) 0.4948(6) 0.1675(2)
C1 C 0.1431(2) 0.2522(7) 0.2971(2)
C2 C 0.2115(2) 0.2500(7) 0.3182(2)
C3 C 0.2282(3) 0.2393(7) 0.3831(2)
H3 H 0.1960 0.2336 0.4140
C4 C 0.2924(3) 0.2370(7) 0.4022(2)
C5 C 0.3401(3) 0.2480(7) 0.3563(2)
H4 H 0.3830 0.2510 0.3687
C6 C 0.3243(2) 0.2546(7) 0.2909(2)
C7 C 0.2606(2) 0.2540(7) 0.2727(2)
H5 H 0.2502 0.2562 0.2294
C8 C 0.3087(3) 0.2204(7) 0.4720(2)
C9 C 0.3759(2) 0.2654(7) 0.2405(2)
Ba2B Ba -0.139957(16) 0.39394(4) 0.385053(13)
O1B O -0.09872(18) 0.2435(6) 0.16146(16)
O2B O -0.1409(3) 0.7228(7) 0.4642(2)
H1B H -0.1178 0.7004 0.4988
H2B H -0.1804 0.7504 0.4762
O3B O -0.13074(18) 0.2627(6) 0.26211(16)
O4B O -0.3661(2) 0.2566(7) 0.01057(18)
O5B O -0.2665(2) 0.1680(6) -0.01095(17)
O6B O -0.35963(17) 0.2518(5) 0.31770(16)
O7B O -0.43290(18) 0.2879(6) 0.24100(16)
O8B O -0.0553(2) 0.0492(6) 0.37420(18)
O9B O -0.22157(19) 0.0343(6) 0.37586(16)
O10B O -0.0166(2) 0.4948(6) 0.3325(2)
C1B C -0.1431(2) 0.2522(7) 0.2029(2)
C2B C -0.2115(2) 0.2500(7) 0.1818(2)
C3B C -0.2282(3) 0.2393(7) 0.1169(2)
H3B H -0.1960 0.2336 0.0860
C4B C -0.2924(3) 0.2370(7) 0.0978(2)
C5B C -0.3401(3) 0.2480(7) 0.1437(2)
H4B H -0.3830 0.2510 0.1313
C6B C -0.3243(2) 0.2546(7) 0.2091(2)
C7B C -0.2606(2) 0.2540(7) 0.2273(2)
H5B H -0.2502 0.2562 0.2706
C8B C -0.3087(3) 0.2204(7) 0.0280(2)
C9B C -0.3759(2) 0.2654(7) 0.2595(2)
Ba1E Ba -0.5000 0.63785(6) 0.2500
Ba1E_2 Ba 0.5000 0.63785(6) 0.2500
Ba2A Ba 0.360043(16) 0.10606(4) 0.614947(13)
Ba2C Ba -0.360043(16) 0.10606(4) -0.114947(13)
Ba2E Ba -0.360043(16) -0.10606(4) 0.385053(13)
Ba2G Ba 0.360043(16) -0.10606(4) 0.114947(13)
O4A O 0.1339(2) 0.2434(7) -0.01057(18)
O4C O -0.1339(2) 0.2434(7) 0.51057(18)
O5A O 0.2335(2) 0.3320(6) 0.01095(17)
O5C O -0.2335(2) 0.3320(6) 0.48905(17)
O6E O -0.14037(17) 0.7518(5) 0.31770(16)
O6G O 0.14037(17) 0.7518(5) 0.18230(16)
O7E O -0.06710(18) -0.2121(6) 0.24100(16)
O7G O 0.06710(18) -0.2121(6) 0.25900(16)
O9E O -0.27843(19) 0.5343(6) 0.37586(16)
O9G O 0.27843(19) 0.5343(6) 0.12414(16)
O11 O -0.0585(2) 0.0682(7) 0.0522(2)
H6 H -0.0281 -0.0146 0.0457
H7 H -0.0943 0.0086 0.0473
loop_
_geom_bond_atom_site_label_1
_geom_bond_atom_site_label_2
_geom_bond_site_symmetry_1
_geom_bond_site_symmetry_2
Ba1 O1 1_555 1_555
Ba2 O2 1_555 1_555
O1 C1 1_555 1_555
O2 H1 1_555 1_555
H2 O2 1_555 1_555
O3 Ba1 1_555 1_555
O4 C8 1_555 1_555
O5 C8 1_555 1_555
O6 C9 1_555 1_555
O7 C9 1_555 1_555
O8 Ba1 1_555 1_555
O9 Ba2 1_555 1_555
O10 Ba1 1_555 1_555
C1 O3 1_555 1_555
C2 C1 1_555 1_555
C3 C2 1_555 1_555
H3 C3 1_555 1_555
C4 C3 1_555 1_555
C5 C4 1_555 1_555
H4 C5 1_555 1_555
C6 C5 1_555 1_555
C7 C2 1_555 1_555
H5 C7 1_555 1_555
C8 C4 1_555 1_555
C9 C6 1_555 1_555
O11 H6 1_555 1_555
H7 O11 1_555 1_555
Ba2B O2B 1_555 1_555
O1B Ba1 1_555 1_555
O2B H1B 1_555 1_555
H2B O2B 1_555 1_555
O3B Ba1 1_555 1_555
O4B C8B 1_555 1_555
O5B C8B 1_555 1_555
O6B C9B 1_555 1_555
O7B C9B 1_555 1_555
O8B Ba1 1_555 1_555
O9B Ba2B 1_555 1_555
O10B Ba1 1_555 1_555
C1B O1B 1_555 1_555
C2B C1B 1_555 1_555
C3B C2B 1_555 1_555
H3B C3B 1_555 1_555
C4B C3B 1_555 1_555
C5B C4B 1_555 1_555
H4B C5B 1_555 1_555
C6B C5B 1_555 1_555
C7B C2B 1_555 1_555
H5B C7B 1_555 1_555
C8B C4B 1_555 1_555
C9B C6B 1_555 1_555
Ba1E O7B 1_555 1_555
Ba1E_2 O7 1_555 1_555
Ba2A O4 1_555 1_555
Ba2C O4B 1_555 1_555
Ba2E O6B 1_555 1_555
Ba2G O6 1_555 1_555
O4A Ba2 1_555 1_555
O4C Ba2B 1_555 1_555
O5A Ba2 1_555 1_555
O5C Ba2B 1_555 1_555
O6E Ba2B 1_555 1_555
O6G Ba2 1_555 1_555
O7E Ba1 1_555 1_555
O7G Ba1 1_555 1_555
O9E Ba2B 1_555 1_555
O9G Ba2 1_555 1_555
Ba2 O3 1_555 1_555
Ba2 O8 1_555 1_555
Ba2 O10 1_555 1_555
O5 Ba2A 1_555 1_555
O9 Ba2G 1_555 1_555
C6 C7 1_555 1_555
Ba2B O3B 1_555 1_555
Ba2B O8B 1_555 1_555
Ba2B O10B 1_555 1_555
O3B C1B 1_555 1_555
O5B Ba2C 1_555 1_555
O9B Ba2E 1_555 1_555
C6B C7B 1_555 1_555

#END
