
#######################################################################
#
#                 Cambridge Crystallographic Data Centre
#                                CCDC 
#
#######################################################################
#
# If this CIF has been generated from an entry in the Cambridge 
# Structural Database, then it will include bibliographic, chemical, 
# crystal, experimental, refinement or atomic coordinate data resulting 
# from the CCDC's data processing and validation procedures.
#
#######################################################################

data_CUFGIV
_chemical_formula_moiety         '(C102 H106 N16 O40 Tb4)n'
_symmetry_cell_setting           monoclinic
_symmetry_space_group_name_H-M   'C 2/c'
_symmetry_Int_Tables_number      15
_space_group_name_Hall           '-C 2yc'
loop_
_symmetry_equiv_pos_site_id
_symmetry_equiv_pos_as_xyz
1 x,y,z
2 -x,y,1/2-z
3 1/2+x,1/2+y,z
4 1/2-x,1/2+y,1/2-z
5 -x,-y,-z
6 x,-y,1/2+z
7 1/2-x,1/2-y,-z
8 1/2+x,1/2-y,1/2+z
_cell_length_a                   36.768(14)
_cell_length_b                   21.228(8)
_cell_length_c                   19.238(7)
_cell_angle_alpha                90
_cell_angle_beta                 90.00
_cell_angle_gamma                90
_cell_volume                     15015.5
loop_
_atom_site_label
_atom_site_type_symbol
_atom_site_fract_x
_atom_site_fract_y
_atom_site_fract_z
C1 C -0.02717(10) 0.1477(2) 0.3300(2)
C2 C 0.00176(12) 0.1849(2) 0.3487(3)
H1 H -0.0009 0.2285 0.3498
C3 C 0.03490(11) 0.1581(2) 0.3657(3)
H2 H 0.0541 0.1838 0.3791
C4 C 0.03966(9) 0.09494(19) 0.3631(2)
C5 C 0.01115(10) 0.0575(2) 0.3433(3)
H3 H 0.0143 0.0141 0.3404
C6 C -0.02251(10) 0.0839(2) 0.3274(3)
H4 H -0.0419 0.0581 0.3151
C7 C 0.07615(9) 0.06444(19) 0.3749(2)
C8 C -0.06180(12) 0.1811(2) 0.3090(3)
C9 C 0.13456(8) 0.08122(15) 0.43647(18)
C10 C 0.15635(8) 0.13029(14) 0.46105(18)
H5 H 0.1470 0.1709 0.4634
C11 C 0.19158(8) 0.11914(14) 0.48183(16)
C12 C 0.20571(8) 0.05839(13) 0.47934(16)
H6 H 0.2294 0.0505 0.4939
C13 C 0.18413(8) 0.00976(14) 0.45503(16)
C14 C 0.14860(8) 0.02057(15) 0.43289(17)
H7 H 0.1345 -0.0124 0.4159
C15 C 0.21466(9) 0.17326(13) 0.50710(17)
C16 C 0.19846(8) -0.05638(14) 0.45318(17)
C17 C -0.12596(9) 0.17762(19) 0.2930(2)
C18 C -0.15082(9) 0.17841(17) 0.34685(19)
H8 H -0.1457 0.1581 0.3885
C19 C -0.18341(8) 0.20984(15) 0.33799(16)
C20 C -0.19064(8) 0.24050(15) 0.27565(17)
H9 H -0.2123 0.2626 0.2703
C21 C -0.16631(8) 0.23859(16) 0.22226(17)
C22 C -0.13339(9) 0.2072(2) 0.23101(19)
H10 H -0.1165 0.2061 0.1951
C23 C -0.17440(8) 0.27150(15) 0.15460(17)
C24 C -0.20943(8) 0.21372(15) 0.39700(16)
C25 C 0.46545(12) -0.1476(2) 0.7213(3)
C26 C 0.48261(17) -0.2006(3) 0.7358(5)
H11 H 0.4712 -0.2388 0.7269
C27 C 0.48204(18) -0.0948(3) 0.7363(6)
H12 H 0.4702 -0.0567 0.7289
C28 C 0.42739(13) -0.1520(2) 0.6915(3)
C29 C 0.37969(10) -0.09235(16) 0.6304(2)
C30 C 0.35896(9) -0.14286(15) 0.6083(2)
H13 H 0.3664 -0.1838 0.6178
C31 C 0.32686(8) -0.13215(14) 0.57192(17)
C32 C 0.31531(8) -0.07171(14) 0.55722(17)
H14 H 0.2939 -0.0652 0.5326
C33 C 0.33598(9) -0.02060(14) 0.57954(19)
C34 C 0.36811(10) -0.03119(16) 0.6167(2)
H15 H 0.3818 0.0028 0.6323
C35 C 0.30490(7) -0.18874(14) 0.54944(17)
C36 C 0.32500(9) 0.04575(15) 0.56363(19)
C37 C 0.0428(2) 0.3317(7) 0.5284(9)
H16 H 0.0429 0.3182 0.4795
H17 H 0.0270 0.3585 0.5481
H18 H 0.0367 0.2924 0.5414
C38 C 0.0862(5) 0.3998(12) 0.5925(16)
H19 H 0.0928 0.4357 0.5649
H20 H 0.1056 0.3904 0.6244
H21 H 0.0644 0.4090 0.6181
C39 C 0.1076(2) 0.3191(3) 0.5198(4)
H22 H 0.1027 0.2879 0.4872
C40 C 0.2130(3) 0.3405(4) 0.7691(3)
H23 H 0.1875 0.3316 0.7735
H24 H 0.2190 0.3766 0.7970
H25 H 0.2269 0.3048 0.7846
C41 C 0.2594(3) 0.3822(9) 0.6939(6)
H26 H 0.2728 0.3611 0.6579
H27 H 0.2720 0.3775 0.7373
H28 H 0.2573 0.4261 0.6828
C42 C 0.2065(2) 0.3392(3) 0.6432(3)
H29 H 0.1858 0.3155 0.6525
C43 C 0.3313(3) 0.0059(5) 0.3413(7)
H30 H 0.3295 0.0131 0.3904
H31 H 0.3237 0.0430 0.3167
H32 H 0.3561 -0.0035 0.3296
C44 C 0.3126(3) -0.0730(6) 0.2543(5)
H33 H 0.2955 -0.1063 0.2463
H34 H 0.3369 -0.0893 0.2502
H35 H 0.3090 -0.0404 0.2205
C45 C 0.2874(2) -0.0743(5) 0.3666(5)
H36 H 0.2875 -0.0522 0.4084
C46 C 0.2048(3) -0.1684(4) 0.1777(4)
H37 H 0.2271 -0.1729 0.2031
H38 H 0.2035 -0.1268 0.1583
H39 H 0.2040 -0.1990 0.1409
C47 C 0.1393(3) -0.1823(6) 0.1934(7)
H40 H 0.1217 -0.1908 0.2292
H41 H 0.1388 -0.2157 0.1598
H42 H 0.1334 -0.1432 0.1710
C48 C 0.18038(18) -0.1811(3) 0.2906(3)
H43 H 0.1602 -0.1874 0.3189
N1 N -0.09178(8) 0.14741(19) 0.30486(18)
H44 H -0.0907 0.1052 0.3093
N2 N 0.09845(7) 0.09652(14) 0.41728(18)
H45 H 0.0893 0.1320 0.4359
N3 N 0.41341(9) -0.09981(15) 0.6655(2)
H46 H 0.4269 -0.0647 0.6706
N4 N 0.2212(2) 0.3530(3) 0.7000(2)
N5 N 0.30753(16) -0.0483(2) 0.3212(3)
N6 N 0.17465(16) -0.1781(3) 0.2235(2)
N7 N 0.08007(19) 0.3464(5) 0.5479(6)
O1 O 0.20185(7) 0.22720(10) 0.50300(14)
O2 O 0.24508(7) 0.16067(11) 0.53117(16)
O3 O 0.22876(6) -0.06707(11) 0.47955(15)
O4 O 0.17981(6) -0.09923(10) 0.42546(14)
O5 O -0.15110(6) 0.27338(11) 0.10844(12)
O6 O -0.20527(6) 0.29573(14) 0.14629(13)
O7 O -0.23717(6) 0.24686(11) 0.38653(12)
O8 O -0.20190(6) 0.18412(11) 0.45114(12)
O9 O -0.06086(10) 0.2375(2) 0.2967(3)
O10 O 0.08360(8) 0.01519(17) 0.3466(2)
O11 O 0.30060(8) 0.05573(12) 0.52049(19)
O12 O 0.34076(9) 0.08984(12) 0.59267(18)
O13 O 0.27927(6) -0.17957(11) 0.50788(14)
O14 O 0.31369(6) -0.24100(10) 0.57361(13)
O15 O 0.41175(12) -0.20179(19) 0.6925(3)
O16 O 0.13892(10) 0.33001(19) 0.5316(2)
O17 O 0.20890(13) 0.34469(19) 0.58672(18)
O18 O 0.26987(11) -0.11646(17) 0.3690(2)
O19 O 0.20918(9) -0.17637(15) 0.31866(15)
Tb1 Tb 0.228531(3) -0.175694(6) 0.438861(7)
Tb2 Tb 0.193202(4) 0.329681(6) 0.469654(8)
C25A C 0.53455(12) -0.1476(2) 0.7787(3)
C26A C 0.51739(17) -0.2006(3) 0.7642(5)
H11A H 0.5288 -0.2388 0.7731
C27A C 0.51796(18) -0.0948(3) 0.7637(6)
H12A H 0.5298 -0.0567 0.7711
C28A C 0.57261(13) -0.1520(2) 0.8085(3)
C29A C 0.62031(10) -0.09235(16) 0.8696(2)
C30A C 0.64104(9) -0.14286(15) 0.8917(2)
H13A H 0.6336 -0.1838 0.8822
C31A C 0.67314(8) -0.13215(14) 0.92808(17)
C32A C 0.68469(8) -0.07171(14) 0.94278(17)
H14A H 0.7061 -0.0652 0.9674
C33A C 0.66402(9) -0.02060(14) 0.92046(19)
C34A C 0.63189(10) -0.03119(16) 0.8833(2)
H15A H 0.6182 0.0028 0.8677
C35A C 0.69510(7) -0.18874(14) 0.95056(17)
C36A C 0.67500(9) 0.04575(15) 0.93637(19)
N3A N 0.58659(9) -0.09981(15) 0.8345(2)
H46A H 0.5731 -0.0647 0.8294
O11A O 0.69940(8) 0.05573(12) 0.97951(19)
O12A O 0.65924(9) 0.08984(12) 0.90733(18)
O13A O 0.72073(6) -0.17957(11) 0.99212(14)
O14A O 0.68631(6) -0.24100(10) 0.92639(13)
O15A O 0.58825(12) -0.20179(19) 0.8075(3)
C1A C 0.02717(10) 0.1477(2) 0.1700(2)
C2A C -0.00176(12) 0.1849(2) 0.1513(3)
H1A H 0.0009 0.2285 0.1502
C3A C -0.03490(11) 0.1581(2) 0.1343(3)
H2A H -0.0541 0.1838 0.1209
C4A C -0.03966(9) 0.09494(19) 0.1369(2)
C5A C -0.01115(10) 0.0575(2) 0.1567(3)
H3A H -0.0143 0.0141 0.1596
C6A C 0.02251(10) 0.0839(2) 0.1726(3)
H4A H 0.0419 0.0581 0.1849
C7A C -0.07615(9) 0.06444(19) 0.1251(2)
C8A C 0.06180(12) 0.1811(2) 0.1910(3)
C9A C -0.13456(8) 0.08122(15) 0.06353(18)
C10A C -0.15635(8) 0.13029(14) 0.03895(18)
H5A H -0.1470 0.1709 0.0366
C11A C -0.19158(8) 0.11914(14) 0.01817(16)
C12A C -0.20571(8) 0.05839(13) 0.02066(16)
H6A H -0.2294 0.0505 0.0061
C13A C -0.18413(8) 0.00976(14) 0.04497(16)
C14A C -0.14860(8) 0.02057(15) 0.06711(17)
H7A H -0.1345 -0.0124 0.0841
C15A C -0.21466(9) 0.17326(13) -0.00710(17)
C16A C -0.19846(8) -0.05638(14) 0.04682(17)
C17A C 0.12596(9) 0.17762(19) 0.2070(2)
C18A C 0.15082(9) 0.17841(17) 0.15315(19)
H8A H 0.1457 0.1581 0.1115
C19A C 0.18341(8) 0.20984(15) 0.16201(16)
C20A C 0.19064(8) 0.24050(15) 0.22435(17)
H9A H 0.2123 0.2626 0.2297
C21A C 0.16631(8) 0.23859(16) 0.27774(17)
C22A C 0.13339(9) 0.2072(2) 0.26899(19)
H10A H 0.1165 0.2061 0.3049
C23A C 0.17440(8) 0.27150(15) 0.34540(17)
C24A C 0.20943(8) 0.21372(15) 0.10300(16)
C37A C -0.0428(2) 0.3317(7) -0.0284(9)
H16A H -0.0429 0.3182 0.0205
H17A H -0.0270 0.3585 -0.0481
H18A H -0.0367 0.2924 -0.0414
C38A C -0.0862(5) 0.3998(12) -0.0925(16)
H19A H -0.0928 0.4357 -0.0649
H20A H -0.1056 0.3904 -0.1244
H21A H -0.0644 0.4090 -0.1181
C39A C -0.1076(2) 0.3191(3) -0.0198(4)
H22A H -0.1027 0.2879 0.0128
C40A C -0.2130(3) 0.3405(4) -0.2691(3)
H23A H -0.1875 0.3316 -0.2735
H24A H -0.2190 0.3766 -0.2970
H25A H -0.2269 0.3048 -0.2846
C41A C -0.2594(3) 0.3822(9) -0.1939(6)
H26A H -0.2728 0.3611 -0.1579
H27A H -0.2720 0.3775 -0.2373
H28A H -0.2573 0.4261 -0.1828
C42A C -0.2065(2) 0.3392(3) -0.1432(3)
H29A H -0.1858 0.3155 -0.1525
C43A C -0.3313(3) 0.0059(5) 0.1587(7)
H30A H -0.3295 0.0131 0.1096
H31A H -0.3237 0.0430 0.1833
H32A H -0.3561 -0.0035 0.1704
C44A C -0.3126(3) -0.0730(6) 0.2457(5)
H33A H -0.2955 -0.1063 0.2537
H34A H -0.3369 -0.0893 0.2498
H35A H -0.3090 -0.0404 0.2795
C45A C -0.2874(2) -0.0743(5) 0.1334(5)
H36A H -0.2875 -0.0522 0.0916
C46A C -0.2048(3) -0.1684(4) 0.3223(4)
H37A H -0.2271 -0.1729 0.2969
H38A H -0.2035 -0.1268 0.3417
H39A H -0.2040 -0.1990 0.3591
C47A C -0.1393(3) -0.1823(6) 0.3066(7)
H40A H -0.1217 -0.1908 0.2708
H41A H -0.1388 -0.2157 0.3402
H42A H -0.1334 -0.1432 0.3290
C48A C -0.18038(18) -0.1811(3) 0.2094(3)
H43A H -0.1602 -0.1874 0.1811
N1A N 0.09178(8) 0.14741(19) 0.19514(18)
H44A H 0.0907 0.1052 0.1907
N2A N -0.09845(7) 0.09652(14) 0.08272(18)
H45A H -0.0893 0.1320 0.0641
N4A N -0.2212(2) 0.3530(3) -0.2000(2)
N5A N -0.30753(16) -0.0483(2) 0.1788(3)
N6A N -0.17465(16) -0.1781(3) 0.2765(2)
N7A N -0.08007(19) 0.3464(5) -0.0479(6)
O1A O -0.20185(7) 0.22720(10) -0.00300(14)
O2A O -0.24508(7) 0.16067(11) -0.03117(16)
O3A O -0.22876(6) -0.06707(11) 0.02045(15)
O4A O -0.17981(6) -0.09923(10) 0.07454(14)
O5A O 0.15110(6) 0.27338(11) 0.39156(12)
O6A O 0.20527(6) 0.29573(14) 0.35371(13)
O7A O 0.23717(6) 0.24686(11) 0.11347(12)
O8A O 0.20190(6) 0.18412(11) 0.04886(12)
O9A O 0.06086(10) 0.2375(2) 0.2033(3)
O10A O -0.08360(8) 0.01519(17) 0.1534(2)
O16A O -0.13892(10) 0.33001(19) -0.0316(2)
O17A O -0.20890(13) 0.34469(19) -0.08672(18)
O18A O -0.26987(11) -0.11646(17) 0.1310(2)
O19A O -0.20918(9) -0.17637(15) 0.18134(15)
Tb1A Tb -0.228531(3) -0.175694(6) 0.061139(7)
Tb2A Tb -0.193202(4) 0.329681(6) 0.030346(8)
O2F O 0.25492(7) 0.33933(11) 0.46883(16)
O2G O -0.25492(7) 0.33933(11) 0.03117(16)
O7B O 0.26283(6) -0.25314(11) 0.38653(12)
O7C O -0.26283(6) -0.25314(11) 0.11347(12)
O8D O 0.20190(6) -0.18412(11) 0.54886(12)
O8E O -0.20190(6) -0.18412(11) -0.04886(12)
O11F O 0.19940(8) 0.44427(12) 0.47951(19)
O11G O -0.19940(8) 0.44427(12) 0.02049(19)
O12F O 0.15924(9) 0.41016(12) 0.40733(18)
O12G O -0.15924(9) 0.41016(12) 0.09267(18)
O13A_2 O -0.27927(6) -0.17957(11) -0.00788(14)
O14F O 0.18631(6) -0.25900(10) 0.42639(13)
O14G O -0.18631(6) -0.25900(10) 0.07361(13)
Tb1A_2 Tb 0.771469(3) -0.175694(6) 1.061139(7)
Tb1B Tb -0.271469(3) 0.324306(6) 0.438861(7)
Tb1C Tb 0.271469(3) 0.324306(6) 0.061139(7)
Tb1D Tb -0.228531(3) 0.175694(6) 0.561139(7)
Tb1E Tb 0.228531(3) 0.175694(6) -0.061139(7)
Tb1F Tb 0.271469(3) -0.324306(6) 0.561139(7)
Tb1G Tb 0.728531(3) -0.324306(6) 0.938861(7)
Tb2F Tb 0.306798(4) 0.170319(6) 0.530346(8)
Tb2G Tb -0.306798(4) 0.170319(6) -0.030346(8)
Tb2G_2 Tb 0.693202(4) 0.170319(6) 0.969654(8)
C49 C 0.1464(4) 0.0196(5) 0.1322(6)
H47 H 0.1534 0.0217 0.0858
C50 C 0.1650(4) 0.0105(6) 0.2497(5)
H48 H 0.1840 -0.0120 0.2733
H49 H 0.1423 -0.0110 0.2565
H50 H 0.1633 0.0524 0.2680
C51 C 0.2081(3) 0.0205(6) 0.1539(5)
H51 H 0.2161 0.0630 0.1613
H52 H 0.2080 0.0115 0.1050
H53 H 0.2242 -0.0080 0.1772
N8 N 0.1726(3) 0.0132(4) 0.1805(5)
O20 O 0.1142(2) 0.0228(4) 0.1458(5)
C52 C 0.0550(8) 0.1783(15) 0.609(3)
H54 H 0.0458 0.2105 0.6370
C53 C 0.0567(6) 0.0699(13) 0.5784(12)
H55 H 0.0431 0.0769 0.5366
H56 H 0.0451 0.0377 0.6055
H57 H 0.0809 0.0567 0.5668
C54 C 0.0479(4) 0.0987(10) 0.6893(7)
H58 H 0.0226 0.0878 0.6896
H59 H 0.0526 0.1295 0.7247
H60 H 0.0622 0.0616 0.6982
N9 N 0.0583(3) 0.1262(6) 0.6172(10)
O21 O 0.0723(2) 0.1766(4) 0.5320(5)
loop_
_geom_bond_atom_site_label_1
_geom_bond_atom_site_label_2
_geom_bond_site_symmetry_1
_geom_bond_site_symmetry_2
C1 C2 1_555 1_555
C2 H1 1_555 1_555
C3 C2 1_555 1_555
H2 C3 1_555 1_555
C4 C3 1_555 1_555
C5 C4 1_555 1_555
H3 C5 1_555 1_555
C6 C1 1_555 1_555
H4 C6 1_555 1_555
C7 C4 1_555 1_555
C8 C1 1_555 1_555
C9 C10 1_555 1_555
C10 H5 1_555 1_555
C11 C10 1_555 1_555
C12 C11 1_555 1_555
H6 C12 1_555 1_555
C13 C12 1_555 1_555
C14 C9 1_555 1_555
H7 C14 1_555 1_555
C15 C11 1_555 1_555
C16 C13 1_555 1_555
C17 C18 1_555 1_555
C18 H8 1_555 1_555
C19 C18 1_555 1_555
C20 C19 1_555 1_555
H9 C20 1_555 1_555
C21 C20 1_555 1_555
C22 C17 1_555 1_555
H10 C22 1_555 1_555
C23 C21 1_555 1_555
C24 C19 1_555 1_555
C25 C26 1_555 1_555
C26 H11 1_555 1_555
C27 C25 1_555 1_555
H12 C27 1_555 1_555
C28 C25 1_555 1_555
C29 C30 1_555 1_555
C30 H13 1_555 1_555
C31 C30 1_555 1_555
C32 C31 1_555 1_555
H14 C32 1_555 1_555
C33 C32 1_555 1_555
C34 C29 1_555 1_555
H15 C34 1_555 1_555
C35 C31 1_555 1_555
C36 C33 1_555 1_555
C37 H16 1_555 1_555
H17 C37 1_555 1_555
H18 C37 1_555 1_555
C38 H19 1_555 1_555
H20 C38 1_555 1_555
H21 C38 1_555 1_555
C39 H22 1_555 1_555
C40 H23 1_555 1_555
H24 C40 1_555 1_555
H25 C40 1_555 1_555
C41 H26 1_555 1_555
H27 C41 1_555 1_555
H28 C41 1_555 1_555
C42 H29 1_555 1_555
C43 H30 1_555 1_555
H31 C43 1_555 1_555
H32 C43 1_555 1_555
C44 H33 1_555 1_555
H34 C44 1_555 1_555
H35 C44 1_555 1_555
C45 H36 1_555 1_555
C46 H37 1_555 1_555
H38 C46 1_555 1_555
H39 C46 1_555 1_555
C47 H40 1_555 1_555
H41 C47 1_555 1_555
H42 C47 1_555 1_555
C48 H43 1_555 1_555
N1 C8 1_555 1_555
H44 N1 1_555 1_555
N2 C7 1_555 1_555
H45 N2 1_555 1_555
N3 C28 1_555 1_555
H46 N3 1_555 1_555
N4 C40 1_555 1_555
N5 C43 1_555 1_555
N6 C46 1_555 1_555
N7 C37 1_555 1_555
O1 C15 1_555 1_555
O2 C15 1_555 1_555
O3 C16 1_555 1_555
O4 C16 1_555 1_555
O5 C23 1_555 1_555
O6 C23 1_555 1_555
O7 C24 1_555 1_555
O8 C24 1_555 1_555
O9 C8 1_555 1_555
O10 C7 1_555 1_555
O11 C36 1_555 1_555
O12 C36 1_555 1_555
O13 C35 1_555 1_555
O14 C35 1_555 1_555
O15 C28 1_555 1_555
O16 C39 1_555 1_555
O17 C42 1_555 1_555
O18 C45 1_555 1_555
O19 C48 1_555 1_555
Tb1 O3 1_555 1_555
Tb2 O1 1_555 1_555
C49 H47 1_555 1_555
C50 H48 1_555 1_555
H49 C50 1_555 1_555
H50 C50 1_555 1_555
C51 H51 1_555 1_555
H52 C51 1_555 1_555
H53 C51 1_555 1_555
N8 C49 1_555 1_555
O20 C49 1_555 1_555
C52 H54 1_555 1_555
C53 H55 1_555 1_555
H56 C53 1_555 1_555
H57 C53 1_555 1_555
C54 H58 1_555 1_555
H59 C54 1_555 1_555
H60 C54 1_555 1_555
N9 C52 1_555 1_555
O21 C52 1_555 1_555
C25A C26A 1_555 1_555
C26A C26 1_555 1_555
H11A C26A 1_555 1_555
C27A C27 1_555 1_555
H12A C27A 1_555 1_555
C28A C25A 1_555 1_555
C29A C30A 1_555 1_555
C30A H13A 1_555 1_555
C31A C30A 1_555 1_555
C32A C31A 1_555 1_555
H14A C32A 1_555 1_555
C33A C32A 1_555 1_555
C34A C29A 1_555 1_555
H15A C34A 1_555 1_555
C35A C31A 1_555 1_555
C36A C33A 1_555 1_555
N3A C28A 1_555 1_555
H46A N3A 1_555 1_555
O11A C36A 1_555 1_555
O12A C36A 1_555 1_555
O13A C35A 1_555 1_555
O14A C35A 1_555 1_555
O15A C28A 1_555 1_555
C1A C2A 1_555 1_555
C2A H1A 1_555 1_555
C3A C2A 1_555 1_555
H2A C3A 1_555 1_555
C4A C3A 1_555 1_555
C5A C4A 1_555 1_555
H3A C5A 1_555 1_555
C6A C1A 1_555 1_555
H4A C6A 1_555 1_555
C7A C4A 1_555 1_555
C8A C1A 1_555 1_555
C9A C10A 1_555 1_555
C10A H5A 1_555 1_555
C11A C10A 1_555 1_555
C12A C11A 1_555 1_555
H6A C12A 1_555 1_555
C13A C12A 1_555 1_555
C14A C9A 1_555 1_555
H7A C14A 1_555 1_555
C15A C11A 1_555 1_555
C16A C13A 1_555 1_555
C17A C18A 1_555 1_555
C18A H8A 1_555 1_555
C19A C18A 1_555 1_555
C20A C19A 1_555 1_555
H9A C20A 1_555 1_555
C21A C20A 1_555 1_555
C22A C17A 1_555 1_555
H10A C22A 1_555 1_555
C23A C21A 1_555 1_555
C24A C19A 1_555 1_555
C37A H16A 1_555 1_555
H17A C37A 1_555 1_555
H18A C37A 1_555 1_555
C38A H19A 1_555 1_555
H20A C38A 1_555 1_555
H21A C38A 1_555 1_555
C39A H22A 1_555 1_555
C40A H23A 1_555 1_555
H24A C40A 1_555 1_555
H25A C40A 1_555 1_555
C41A H26A 1_555 1_555
H27A C41A 1_555 1_555
H28A C41A 1_555 1_555
C42A H29A 1_555 1_555
C43A H30A 1_555 1_555
H31A C43A 1_555 1_555
H32A C43A 1_555 1_555
C44A H33A 1_555 1_555
H34A C44A 1_555 1_555
H35A C44A 1_555 1_555
C45A H36A 1_555 1_555
C46A H37A 1_555 1_555
H38A C46A 1_555 1_555
H39A C46A 1_555 1_555
C47A H40A 1_555 1_555
H41A C47A 1_555 1_555
H42A C47A 1_555 1_555
C48A H43A 1_555 1_555
N1A C8A 1_555 1_555
H44A N1A 1_555 1_555
N2A C7A 1_555 1_555
H45A N2A 1_555 1_555
N4A C40A 1_555 1_555
N5A C43A 1_555 1_555
N6A C46A 1_555 1_555
N7A C37A 1_555 1_555
O1A C15A 1_555 1_555
O2A C15A 1_555 1_555
O3A C16A 1_555 1_555
O4A C16A 1_555 1_555
O5A Tb2 1_555 1_555
O6A Tb2 1_555 1_555
O7A C24A 1_555 1_555
O8A C24A 1_555 1_555
O9A C8A 1_555 1_555
O10A C7A 1_555 1_555
O16A C39A 1_555 1_555
O17A C42A 1_555 1_555
O18A C45A 1_555 1_555
O19A C48A 1_555 1_555
Tb1A O3A 1_555 1_555
Tb2A O5 1_555 1_555
O2F Tb2 1_555 1_555
O2G Tb2A 1_555 1_555
O7B Tb1 1_555 1_555
O7C Tb1A 1_555 1_555
O8D Tb1 1_555 1_555
O8E Tb1A 1_555 1_555
O11F Tb2 1_555 1_555
O11G Tb2A 1_555 1_555
O12F Tb2 1_555 1_555
O12G Tb2A 1_555 1_555
O13A_2 Tb1A 1_555 1_555
O14F Tb1 1_555 1_555
O14G Tb1A 1_555 1_555
Tb1A_2 O13A 1_555 1_555
Tb1B O7 1_555 1_555
Tb1C O7A 1_555 1_555
Tb1D O8 1_555 1_555
Tb1E O8A 1_555 1_555
Tb1F O14 1_555 1_555
Tb1G O14A 1_555 1_555
Tb2F O2 1_555 1_555
Tb2G O2A 1_555 1_555
Tb2G_2 O11A 1_555 1_555
C5 C6 1_555 1_555
C9 N2 1_555 1_555
C13 C14 1_555 1_555
C17 N1 1_555 1_555
C21 C22 1_555 1_555
C29 N3 1_555 1_555
C33 C34 1_555 1_555
C38 N7 1_555 1_555
C39 N7 1_555 1_555
C41 N4 1_555 1_555
C42 N4 1_555 1_555
C44 N5 1_555 1_555
C45 N5 1_555 1_555
C47 N6 1_555 1_555
C48 N6 1_555 1_555
O4 Tb1 1_555 1_555
O6 Tb2A 1_555 1_555
O11 Tb2F 1_555 1_555
O12 Tb2F 1_555 1_555
O13 Tb1 1_555 1_555
O16 Tb2 1_555 1_555
O17 Tb2 1_555 1_555
O18 Tb1 1_555 1_555
O19 Tb1 1_555 1_555
C50 N8 1_555 1_555
C51 N8 1_555 1_555
C53 N9 1_555 1_555
C54 N9 1_555 1_555
C25A C27A 1_555 1_555
C29A N3A 1_555 1_555
C33A C34A 1_555 1_555
O12A Tb2G_2 1_555 1_555
C5A C6A 1_555 1_555
C9A N2A 1_555 1_555
C13A C14A 1_555 1_555
C17A N1A 1_555 1_555
C21A C22A 1_555 1_555
C23A O5A 1_555 1_555
C23A O6A 1_555 1_555
C38A N7A 1_555 1_555
C39A N7A 1_555 1_555
C41A N4A 1_555 1_555
C42A N4A 1_555 1_555
C44A N5A 1_555 1_555
C45A N5A 1_555 1_555
C47A N6A 1_555 1_555
C48A N6A 1_555 1_555
O1A Tb2A 1_555 1_555
O4A Tb1A 1_555 1_555
O16A Tb2A 1_555 1_555
O17A Tb2A 1_555 1_555
O18A Tb1A 1_555 1_555
O19A Tb1A 1_555 1_555

#END
