
#######################################################################
#
#                 Cambridge Crystallographic Data Centre
#                                CCDC 
#
#######################################################################
#
# If this CIF has been generated from an entry in the Cambridge 
# Structural Database, then it will include bibliographic, chemical, 
# crystal, experimental, refinement or atomic coordinate data resulting 
# from the CCDC's data processing and validation procedures.
#
#######################################################################

data_CUSYIA
_chemical_formula_moiety         '(C72 H72 Cu4 N18 2-)n'
_symmetry_cell_setting           monoclinic
_symmetry_space_group_name_H-M   'P 21/n'
_symmetry_Int_Tables_number      14
_space_group_name_Hall           '-P 2yn'
loop_
_symmetry_equiv_pos_site_id
_symmetry_equiv_pos_as_xyz
1 x,y,z
2 1/2-x,1/2+y,1/2-z
3 -x,-y,-z
4 1/2+x,1/2-y,1/2+z
_cell_length_a                   12.7392(12)
_cell_length_b                   21.7140(14)
_cell_length_c                   17.8196(11)
_cell_angle_alpha                90
_cell_angle_beta                 101.864(7)
_cell_angle_gamma                90
_cell_volume                     4823.94
loop_
_atom_site_label
_atom_site_type_symbol
_atom_site_fract_x
_atom_site_fract_y
_atom_site_fract_z
C1 C 0.3468(12) 0.1631(12) 0.8739(11)
H1 H 0.3046 0.1948 0.8407
H2 H 0.3064 0.1506 0.9133
C2 C 0.4543(9) 0.1886(6) 0.9115(7)
H3 H 0.4443 0.2247 0.9423
H4 H 0.4938 0.2007 0.8721
H5 H 0.4950 0.1571 0.9447
C3 C 0.2431(5) 0.1277(3) 0.7027(4)
H6 H 0.2352 0.1697 0.7222
H7 H 0.3072 0.1278 0.6793
C4 C 0.1477(6) 0.1144(3) 0.6411(4)
H8 H 0.0816 0.1180 0.6618
H9 H 0.1520 0.0718 0.6221
C5 C 0.1440(7) 0.1595(4) 0.5763(4)
H10 H 0.0812 0.1509 0.5358
H11 H 0.2093 0.1553 0.5557
H12 H 0.1393 0.2015 0.5954
C6 C 0.2809(6) 0.0187(3) 0.7462(4)
H13 H 0.3012 -0.0073 0.7926
H14 H 0.2111 0.0033 0.7172
C7 C 0.3626(7) 0.0092(3) 0.6978(6)
H15 H 0.4328 0.0254 0.7249
H16 H 0.3410 0.0321 0.6490
C8 C 0.3731(8) -0.0584(4) 0.6810(6)
H17 H 0.4267 -0.0639 0.6492
H18 H 0.3037 -0.0743 0.6536
H19 H 0.3956 -0.0809 0.7293
C9 C 0.3666(6) 0.1052(3) 0.8239(5)
H20 H 0.4196 0.1163 0.7925
H21 H 0.3972 0.0711 0.8585
C10 C 0.1725(5) 0.0844(3) 0.8113(3)
H22 H 0.1072 0.0716 0.7741
H23 H 0.1614 0.1274 0.8264
C11 C 0.1831(5) 0.0443(3) 0.8811(4)
H24 H 0.2566 0.0480 0.9124
H25 H 0.1711 0.0008 0.8652
C12 C 0.1031(6) 0.0628(3) 0.9285(4)
H26 H 0.1117 0.0363 0.9739
H27 H 0.0303 0.0583 0.8978
H28 H 0.1153 0.1058 0.9446
N1 N 0.2646(4) 0.0834(2) 0.7717(3)
C13 C 0.9381(4) 0.0846(3) 0.3089(3)
C14 C 1.0032(4) 0.0366(2) 0.3449(3)
C15 C 1.0630(4) 0.0038(2) 0.3009(3)
C16 C 1.0030(4) 0.0190(2) 0.4240(3)
C17 C 0.9339(4) 0.0463(2) 0.4653(3)
H29 H 0.8872 0.0782 0.4421
C18 C 1.0684(4) -0.0282(2) 0.4608(3)
H30 H 1.1160 -0.0484 0.4342
C19 C 0.7199(4) 0.1180(2) 0.0610(3)
C20 C 0.6863(4) 0.0766(2) 0.0010(3)
C21 C 0.7431(4) 0.0734(2) -0.0583(3)
C22 C 0.5923(4) 0.0377(2) 0.0003(3)
C23 C 0.5602(4) -0.0077(2) -0.0551(3)
H31 H 0.6006 -0.0138 -0.0937
C24 C 0.5283(4) 0.0440(2) 0.0551(3)
H32 H 0.5468 0.0746 0.0938
C25 C 0.6209(4) 0.2366(2) 0.2977(3)
C26 C 0.5507(4) 0.2604(2) 0.3414(3)
C27 C 0.4750(5) 0.3053(2) 0.3082(3)
C28 C 0.5522(4) 0.2414(2) 0.4200(3)
C29 C 0.6196(4) 0.1946(2) 0.4566(3)
H33 H 0.6684 0.1751 0.4304
C30 C 0.6156(4) 0.1762(2) 0.5306(3)
H34 H 0.6633 0.1450 0.5544
C31 C 0.5441(4) 0.2021(2) 0.5710(3)
C32 C 0.4768(4) 0.2482(2) 0.5345(3)
H35 H 0.4264 0.2666 0.5603
C33 C 0.4818(4) 0.2680(2) 0.4611(3)
H36 H 0.4360 0.3004 0.4383
C34 C 0.5387(4) 0.1843(3) 0.6500(3)
C35 C 0.6085(4) 0.1406(3) 0.6903(3)
C36 C 0.4665(4) 0.2157(2) 0.6854(3)
Cu1 Cu 0.79701(6) 0.18803(3) 0.21561(4)
Cu2 Cu 1.18629(6) -0.08392(3) 0.21222(4)
N2 N 0.8838(4) 0.1237(2) 0.2796(2)
N3 N 1.1139(4) -0.02373(19) 0.2660(2)
N4 N 0.7451(3) 0.1512(2) 0.1124(2)
N5 N 0.7858(3) 0.06994(19) -0.1088(2)
N6 N 0.6812(3) 0.21664(19) 0.2636(2)
N7 N 0.4088(4) 0.3415(2) 0.2878(3)
N8 N 0.6681(4) 0.1047(2) 0.7220(3)
N9 N 0.4049(3) 0.24569(19) 0.7077(2)
C13B C 1.0619(4) -0.0846(3) 0.6911(3)
C14B C 0.9968(4) -0.0366(2) 0.6551(3)
C15B C 0.9370(4) -0.0038(2) 0.6991(3)
C16B C 0.9970(4) -0.0190(2) 0.5760(3)
C17B C 1.0661(4) -0.0463(2) 0.5347(3)
H29B H 1.1128 -0.0782 0.5579
C18B C 0.9316(4) 0.0282(2) 0.5392(3)
H30B H 0.8840 0.0484 0.5658
N2B N 1.1162(4) -0.1237(2) 0.7204(2)
N3B N 0.8861(4) 0.02373(19) 0.7340(2)
C19B C 0.2801(4) -0.1180(2) -0.0610(3)
C20B C 0.3137(4) -0.0766(2) -0.0010(3)
C21B C 0.2569(4) -0.0734(2) 0.0583(3)
C22B C 0.4077(4) -0.0377(2) -0.0003(3)
C23B C 0.4398(4) 0.0077(2) 0.0551(3)
H31B H 0.3994 0.0138 0.0937
C24B C 0.4717(4) -0.0440(2) -0.0551(3)
H32B H 0.4532 -0.0746 -0.0938
N4B N 0.2549(3) -0.1512(2) -0.1124(2)
N5B N 0.2142(3) -0.06994(19) 0.1088(2)
C25B C 0.3791(4) -0.2366(2) -0.2977(3)
C26B C 0.4493(4) -0.2604(2) -0.3414(3)
C27B C 0.5250(5) -0.3053(2) -0.3082(3)
C28B C 0.4478(4) -0.2414(2) -0.4200(3)
C29B C 0.3804(4) -0.1946(2) -0.4566(3)
H33B H 0.3316 -0.1751 -0.4304
C30B C 0.3844(4) -0.1762(2) -0.5306(3)
H34B H 0.3367 -0.1450 -0.5544
C31B C 0.4559(4) -0.2021(2) -0.5710(3)
C32B C 0.5232(4) -0.2482(2) -0.5345(3)
H35B H 0.5736 -0.2666 -0.5603
C33B C 0.5182(4) -0.2680(2) -0.4611(3)
H36B H 0.5640 -0.3004 -0.4383
C34B C 0.4613(4) -0.1843(3) -0.6500(3)
C35B C 0.3915(4) -0.1406(3) -0.6903(3)
C36B C 0.5335(4) -0.2157(2) -0.6854(3)
Cu1B Cu 0.20299(6) -0.18803(3) -0.21561(4)
N6B N 0.3188(3) -0.21664(19) -0.2636(2)
N7B N 0.5912(4) -0.3415(2) -0.2878(3)
N8B N 0.3319(4) -0.1047(2) -0.7220(3)
N9B N 0.5951(3) -0.24569(19) -0.7077(2)
Cu2B Cu 0.81371(6) 0.08392(3) -0.21222(4)
Cu1A Cu 0.70299(6) -0.31197(3) -0.71561(4)
Cu1B_2 Cu 1.20299(6) -0.18803(3) 0.78439(4)
Cu1C Cu 0.29701(6) 0.31197(3) 0.71561(4)
Cu2_2 Cu 0.18629(6) -0.08392(3) -0.78778(4)
Cu2_3 Cu 0.18629(6) -0.08392(3) 0.21222(4)
Cu2A Cu 0.31371(6) 0.41608(3) 0.28778(4)
Cu2B_2 Cu 0.81371(6) 0.08392(3) 0.78778(4)
Cu2C Cu 0.68629(6) -0.41608(3) -0.28778(4)
N2B_2 N 0.1162(4) -0.1237(2) -0.2796(2)
N3B_2 N 0.8861(4) 0.02373(19) -0.2660(2)
N5B_2 N 1.2142(3) -0.06994(19) 0.1088(2)
N7A N 1.0912(4) -0.1585(2) 0.2122(3)
N7C N 0.9088(4) 0.1585(2) -0.2122(3)
N8_2 N 0.6681(4) 0.1047(2) -0.2780(3)
N8B_2 N 1.3319(4) -0.1047(2) 0.2780(3)
N9A N 0.0951(3) -0.25431(19) -0.2077(2)
N9C N 0.9049(3) 0.25431(19) 0.2077(2)
C37 C 0.2728(5) 0.1026(3) 0.3084(3)
H37 H 0.2085 0.0906 0.3281
H38 H 0.2891 0.0683 0.2759
C38 C 0.3655(5) 0.1091(3) 0.3758(4)
H39 H 0.3501 0.1421 0.4103
H40 H 0.4313 0.1204 0.3576
C39 C 0.3820(6) 0.0478(3) 0.4190(4)
H41 H 0.4419 0.0516 0.4631
H42 H 0.3979 0.0154 0.3847
H43 H 0.3166 0.0370 0.4370
C40 C 0.2380(5) 0.2157(3) 0.3072(3)
H44 H 0.3104 0.2240 0.3383
H45 H 0.2175 0.2515 0.2730
C41 C 0.1601(5) 0.2111(3) 0.3607(3)
H46 H 0.1688 0.1710 0.3878
H47 H 0.0854 0.2141 0.3312
C42 C 0.1837(6) 0.2641(3) 0.4188(4)
H48 H 0.1342 0.2619 0.4542
H49 H 0.1742 0.3036 0.3915
H50 H 0.2576 0.2608 0.4478
C43 C 0.1367(4) 0.1498(3) 0.2054(3)
H51 H 0.1143 0.1891 0.1787
H52 H 0.0840 0.1400 0.2375
C44 C 0.1312(5) 0.0995(3) 0.1454(3)
H53 H 0.1622 0.0609 0.1700
H54 H 0.1732 0.1119 0.1068
C45 C 0.0131(5) 0.0891(3) 0.1061(3)
H55 H 0.0089 0.0569 0.0672
H56 H -0.0169 0.1275 0.0817
H57 H -0.0277 0.0764 0.1445
C46 C 0.3312(5) 0.1703(3) 0.2129(3)
H58 H 0.3430 0.1315 0.1867
H59 H 0.3987 0.1801 0.2496
C47 C 0.3097(5) 0.2209(3) 0.1536(3)
H60 H 0.2984 0.2604 0.1786
H61 H 0.2439 0.2113 0.1151
C48 C 0.4044(6) 0.2268(4) 0.1144(4)
H62 H 0.3902 0.2596 0.0759
H63 H 0.4148 0.1877 0.0892
H64 H 0.4692 0.2367 0.1526
N10 N 0.2447(4) 0.1594(2) 0.2577(3)
loop_
_geom_bond_atom_site_label_1
_geom_bond_atom_site_label_2
_geom_bond_site_symmetry_1
_geom_bond_site_symmetry_2
C1 H1 1_555 1_555
H2 C1 1_555 1_555
C2 C1 1_555 1_555
H3 C2 1_555 1_555
H4 C2 1_555 1_555
H5 C2 1_555 1_555
C3 H6 1_555 1_555
H7 C3 1_555 1_555
C4 C3 1_555 1_555
H8 C4 1_555 1_555
H9 C4 1_555 1_555
C5 C4 1_555 1_555
H10 C5 1_555 1_555
H11 C5 1_555 1_555
H12 C5 1_555 1_555
C6 H13 1_555 1_555
H14 C6 1_555 1_555
C7 C6 1_555 1_555
H15 C7 1_555 1_555
H16 C7 1_555 1_555
C8 C7 1_555 1_555
H17 C8 1_555 1_555
H18 C8 1_555 1_555
H19 C8 1_555 1_555
C9 C1 1_555 1_555
H20 C9 1_555 1_555
H21 C9 1_555 1_555
C10 H22 1_555 1_555
H23 C10 1_555 1_555
C11 C10 1_555 1_555
H24 C11 1_555 1_555
H25 C11 1_555 1_555
C12 C11 1_555 1_555
H26 C12 1_555 1_555
H27 C12 1_555 1_555
H28 C12 1_555 1_555
N1 C3 1_555 1_555
C13 C14 1_555 1_555
C14 C15 1_555 1_555
C15 N3 1_555 1_555
C16 C14 1_555 1_555
C17 C16 1_555 1_555
H29 C17 1_555 1_555
C18 C16 1_555 1_555
H30 C18 1_555 1_555
C19 C20 1_555 1_555
C20 C21 1_555 1_555
C21 N5 1_555 1_555
C22 C20 1_555 1_555
C23 C22 1_555 1_555
H31 C23 1_555 1_555
C24 C22 1_555 1_555
H32 C24 1_555 1_555
C25 C26 1_555 1_555
C26 C27 1_555 1_555
C27 N7 1_555 1_555
C28 C26 1_555 1_555
C29 C28 1_555 1_555
H33 C29 1_555 1_555
C30 C29 1_555 1_555
H34 C30 1_555 1_555
C31 C30 1_555 1_555
C32 C31 1_555 1_555
H35 C32 1_555 1_555
C33 C28 1_555 1_555
H36 C33 1_555 1_555
C34 C31 1_555 1_555
C35 C34 1_555 1_555
C36 C34 1_555 1_555
Cu1 N2 1_555 1_555
Cu2 N3 1_555 1_555
N2 C13 1_555 1_555
N4 C19 1_555 1_555
N5 Cu2B 1_555 1_555
N6 C25 1_555 1_555
N7 Cu2A 1_555 1_555
N8 C35 1_555 1_555
N9 C36 1_555 1_555
C37 H37 1_555 1_555
H38 C37 1_555 1_555
C38 C37 1_555 1_555
H39 C38 1_555 1_555
H40 C38 1_555 1_555
C39 C38 1_555 1_555
H41 C39 1_555 1_555
H42 C39 1_555 1_555
H43 C39 1_555 1_555
C40 H44 1_555 1_555
H45 C40 1_555 1_555
C41 C40 1_555 1_555
H46 C41 1_555 1_555
H47 C41 1_555 1_555
C42 C41 1_555 1_555
H48 C42 1_555 1_555
H49 C42 1_555 1_555
H50 C42 1_555 1_555
C43 H51 1_555 1_555
H52 C43 1_555 1_555
C44 C43 1_555 1_555
H53 C44 1_555 1_555
H54 C44 1_555 1_555
C45 C44 1_555 1_555
H55 C45 1_555 1_555
H56 C45 1_555 1_555
H57 C45 1_555 1_555
C46 H58 1_555 1_555
H59 C46 1_555 1_555
C47 C46 1_555 1_555
H60 C47 1_555 1_555
H61 C47 1_555 1_555
C48 C47 1_555 1_555
H62 C48 1_555 1_555
H63 C48 1_555 1_555
H64 C48 1_555 1_555
N10 C37 1_555 1_555
C13B C14B 1_555 1_555
C14B C15B 1_555 1_555
C15B N3B 1_555 1_555
C16B C14B 1_555 1_555
C17B C18 1_555 1_555
H29B C17B 1_555 1_555
C18B C17 1_555 1_555
H30B C18B 1_555 1_555
N2B C13B 1_555 1_555
N3B Cu2B_2 1_555 1_555
C19B C20B 1_555 1_555
C20B C21B 1_555 1_555
C21B N5B 1_555 1_555
C22B C20B 1_555 1_555
C23B C24 1_555 1_555
H31B C23B 1_555 1_555
C24B C23 1_555 1_555
H32B C24B 1_555 1_555
N4B C19B 1_555 1_555
N5B Cu2_3 1_555 1_555
C25B C26B 1_555 1_555
C26B C27B 1_555 1_555
C27B N7B 1_555 1_555
C28B C26B 1_555 1_555
C29B C28B 1_555 1_555
H33B C29B 1_555 1_555
C30B C29B 1_555 1_555
H34B C30B 1_555 1_555
C31B C30B 1_555 1_555
C32B C31B 1_555 1_555
H35B C32B 1_555 1_555
C33B C28B 1_555 1_555
H36B C33B 1_555 1_555
C34B C31B 1_555 1_555
C35B C34B 1_555 1_555
C36B C34B 1_555 1_555
Cu1B N4B 1_555 1_555
N6B C25B 1_555 1_555
N7B Cu2C 1_555 1_555
N8B C35B 1_555 1_555
N9B C36B 1_555 1_555
Cu2B N3B_2 1_555 1_555
Cu1A N9B 1_555 1_555
Cu1B_2 N2B 1_555 1_555
Cu1C N9 1_555 1_555
Cu2_2 N8B 1_555 1_555
Cu2B_2 N8 1_555 1_555
N2B_2 Cu1B 1_555 1_555
N5B_2 Cu2 1_555 1_555
N7A Cu2 1_555 1_555
N7C Cu2B 1_555 1_555
N8_2 Cu2B 1_555 1_555
N8B_2 Cu2 1_555 1_555
N9A Cu1B 1_555 1_555
N9C Cu1 1_555 1_555
C6 N1 1_555 1_555
C9 N1 1_555 1_555
C10 N1 1_555 1_555
C32 C33 1_555 1_555
Cu1 N4 1_555 1_555
Cu1 N6 1_555 1_555
C40 N10 1_555 1_555
C43 N10 1_555 1_555
C46 N10 1_555 1_555
C16B C17B 1_555 1_555
C16B C18B 1_555 1_555
C22B C23B 1_555 1_555
C22B C24B 1_555 1_555
C32B C33B 1_555 1_555
Cu1B N6B 1_555 1_555

#END
