
#######################################################################
#
#                 Cambridge Crystallographic Data Centre
#                                CCDC 
#
#######################################################################
#
# If this CIF has been generated from an entry in the Cambridge 
# Structural Database, then it will include bibliographic, chemical, 
# crystal, experimental, refinement or atomic coordinate data resulting 
# from the CCDC's data processing and validation procedures.
#
#######################################################################

data_CUTGEF
_chemical_formula_moiety         'C22 H12 Cd8 N9 O11'
_symmetry_cell_setting           orthorhombic
_symmetry_space_group_name_H-M   'P n m a'
_symmetry_Int_Tables_number      62
_space_group_name_Hall           '-P 2ac 2n'
loop_
_symmetry_equiv_pos_site_id
_symmetry_equiv_pos_as_xyz
1 x,y,z
2 1/2-x,-y,1/2+z
3 -x,1/2+y,-z
4 1/2+x,1/2-y,1/2-z
5 -x,-y,-z
6 1/2+x,y,1/2-z
7 x,1/2-y,z
8 1/2-x,1/2+y,1/2+z
_cell_length_a                   19.758(4)
_cell_length_b                   7.2280(14)
_cell_length_c                   17.530(4)
_cell_angle_alpha                90
_cell_angle_beta                 90
_cell_angle_gamma                90
_cell_volume                     2503.47
loop_
_atom_site_label
_atom_site_type_symbol
_atom_site_fract_x
_atom_site_fract_y
_atom_site_fract_z
O7 O 0.381(4) 0.2500 0.511(4)
C16 C 0.361(2) 0.2500 0.374(4)
N3 N 0.3334(17) 0.2500 0.292(3)
C17 C 0.266(3) 0.2500 0.316(3)
O8 O 0.343(3) 0.2500 0.170(4)
C18 C 0.393(3) 0.2500 0.237(4)
Cd1 Cd 0.44007(3) 0.2500 0.81937(3)
O1 O 0.3475(3) 0.2500 0.9047(4)
O2 O 0.3258(3) 0.2500 0.7823(3)
O3 O 0.0037(3) 0.2500 0.7826(4)
O4 O 0.0855(4) 0.2500 0.6980(4)
N1 N 0.0560(2) 0.0971(7) 1.3219(2)
N2 N 0.0394(3) 0.1611(7) 1.3910(2)
C1 C 0.0658(4) 0.2500 1.2805(6)
C2 C 0.3057(4) 0.2500 0.8501(5)
C3 C 0.2314(4) 0.2500 0.8691(4)
C4 C 0.2105(5) 0.2500 0.9444(5)
H1 H 0.2426 0.2500 0.9832
C5 C 0.1422(4) 0.2500 0.9628(5)
C6 C 0.1207(4) 0.2500 1.0441(5)
C7 C 0.0651(5) 0.2500 0.7637(5)
C8 C 0.1169(4) 0.2500 0.8292(4)
C9 C 0.0965(4) 0.2500 0.9035(4)
H2 H 0.0504 0.2500 0.9145
C10 C 0.1837(4) 0.2500 0.8107(4)
H3 H 0.1973 0.2500 0.7600
C11 C 0.0848(4) 0.2500 1.1987(4)
C12 C 0.1267(7) 0.101(2) 1.1719(6)
C13 C 0.0618(7) 0.121(2) 1.1503(7)
C14 C 0.0780(7) 0.129(2) 1.0720(7)
C15 C 0.1443(8) 0.101(2) 1.0934(7)
Cd2 Cd 0.5000 0.5000 1.0000
O5 O 0.6137(3) 0.5439(12) 0.9635(4)
O6 O 0.5009(3) 0.2500 0.9280(3)
N1F N 0.0560(2) 0.4029(7) 1.3219(2)
N2F N 0.0394(3) 0.3389(7) 1.3910(2)
C12F C 0.1267(7) 0.399(2) 1.1719(6)
C13F C 0.0618(7) 0.379(2) 1.1503(7)
C14F C 0.0780(7) 0.371(2) 1.0720(7)
C15F C 0.1443(8) 0.399(2) 1.0934(7)
O5D O 0.3863(3) 0.4561(12) 1.0365(4)
Cd1A Cd 0.05993(3) -0.2500 1.31937(3)
Cd1A_2 Cd 0.05993(3) 0.7500 1.31937(3)
Cd1C Cd -0.05993(3) 0.2500 0.68063(3)
O3C O 0.5037(3) 0.2500 0.7174(4)
N1A N 0.4440(2) -0.0971(7) 0.8219(2)
N1G N 0.4440(2) 0.5971(7) 0.8219(2)
N2C N 0.5394(3) 0.3389(7) 1.1090(2)
N2G N 0.4606(3) 0.6611(7) 0.8910(2)
Cd2A Cd -0.0000 0.5000 1.5000
Cd2B Cd 0.5000 0.0000 1.0000
Cd2C Cd 0.0000 0.0000 1.5000
O6B O 0.4991(3) 0.7500 1.0720(3)
loop_
_geom_bond_atom_site_label_1
_geom_bond_atom_site_label_2
_geom_bond_site_symmetry_1
_geom_bond_site_symmetry_2
Cd1 O1 1_555 1_555
O1 C2 1_555 1_555
O2 Cd1 1_555 1_555
O3 C7 1_555 1_555
O4 C7 1_555 1_555
N1 N2 1_555 1_555
N2 N2F 1_555 1_555
C1 N1 1_555 1_555
C2 O2 1_555 1_555
C3 C2 1_555 1_555
C4 C3 1_555 1_555
H1 C4 1_555 1_555
C5 C4 1_555 1_555
C6 C5 1_555 1_555
C7 C8 1_555 1_555
C8 C9 1_555 1_555
C9 C5 1_555 1_555
H2 C9 1_555 1_555
C10 C3 1_555 1_555
H3 C10 1_555 1_555
C11 C1 1_555 1_555
C12 C11 1_555 1_555
C13 C11 1_555 1_555
C14 C6 1_555 1_555
C15 C6 1_555 1_555
Cd2 O5 1_555 1_555
O6 Cd1 1_555 1_555
C16 N3 1_555 1_555
N3 C17 1_555 1_555
O8 C18 1_555 1_555
C18 N3 1_555 1_555
N1F C1 1_555 1_555
N2F N1F 1_555 1_555
C12F C11 1_555 1_555
C13F C11 1_555 1_555
C14F C6 1_555 1_555
C15F C6 1_555 1_555
O5D Cd2 1_555 1_555
Cd1A N1 1_555 1_555
Cd1A_2 N1F 1_555 1_555
Cd1C O3 1_555 1_555
O3C Cd1 1_555 1_555
N1A Cd1 1_555 1_555
N1G Cd1 1_555 1_555
N2C Cd2 1_555 1_555
N2G Cd2 1_555 1_555
Cd2A N2F 1_555 1_555
Cd2B O6 1_555 1_555
Cd2C N2 1_555 1_555
O6B Cd2 1_555 1_555
C8 C10 1_555 1_555
C12 C13 1_555 1_555
C12 C15 1_555 1_555
C13 C14 1_555 1_555
C14 C15 1_555 1_555
C14 C14F 1_555 1_555
Cd2 O6 1_555 1_555
C12F C13F 1_555 1_555
C12F C15F 1_555 1_555
C13F C14F 1_555 1_555
C14F C15F 1_555 1_555
N1G N2G 1_555 1_555

#END
