
#######################################################################
#
#                 Cambridge Crystallographic Data Centre
#                                CCDC 
#
#######################################################################
#
# If this CIF has been generated from an entry in the Cambridge 
# Structural Database, then it will include bibliographic, chemical, 
# crystal, experimental, refinement or atomic coordinate data resulting 
# from the CCDC's data processing and validation procedures.
#
#######################################################################

data_CUXDUU
_chemical_formula_moiety         'C3 H15 Ga11 N1 O30 P6 1+'
_symmetry_cell_setting           triclinic
_symmetry_space_group_name_H-M   'P -1'
_symmetry_Int_Tables_number      2
_space_group_name_Hall           '-P 1'
loop_
_symmetry_equiv_pos_site_id
_symmetry_equiv_pos_as_xyz
1 x,y,z
2 -x,-y,-z
_cell_length_a                   9.601(2)
_cell_length_b                   9.757(2)
_cell_length_c                   10.701(2)
_cell_angle_alpha                74.20(1)
_cell_angle_beta                 75.01(1)
_cell_angle_gamma                88.48(1)
_cell_volume                     930.7
loop_
_atom_site_label
_atom_site_type_symbol
_atom_site_fract_x
_atom_site_fract_y
_atom_site_fract_z
O1 O 0.1683(4) 0.1680(3) 0.9986(4)
H11 H 0.1427(71) 0.1648(62) 0.9186(37)
H12 H 0.1745(99) 0.0757(34) 1.0579(61)
O2 O 0.1813(50) 0.1695(53) 0.7554(49)
Ga1 Ga 0.2234(1) 0.7893(1) 0.8332(1)
Ga2 Ga 0.4779(1) 1.2171(1) 0.9360(1)
Ga3 Ga 0.1812(1) 1.9520(1) 0.3426(1)
Ga4 Ga -0.0232(1) 1.4939(1) 0.8658(1)
P1 P 0.4982(1) 0.9743(1) 0.7873(1)
P2 P 0.2837(1) 1.4815(1) 0.9024(1)
P3 P 0.0235(1) 1.7926(1) 0.6421(1)
P4 P 0.1816(1) 0.7834(1) 1.1324(1)
O3 O 0.1774(2) 1.4460(3) 0.8311(2)
O4 O 0.4177(2) 1.3934(2) 0.8775(2)
O5 O 0.1860(3) 0.8558(3) 0.9855(2)
O6 O 0.4345(3) 1.0835(3) 0.8623(3)
O7 O 0.3839(2) 0.9223(3) 0.7364(2)
O8 O 0.3429(2) 0.6372(2) 0.8348(3)
O9 O -0.0126(3) 1.6347(2) 0.6997(2)
O10 O 0.0919(3) 1.8176(3) 0.4919(3)
O11 O 0.0428(2) 0.6440(2) 0.9432(2)
O12 O 0.2200(2) 1.4596(3) 1.0534(2)
O13 O 0.1240(3) 0.8544(3) 0.7044(3)
O14 O 0.3304(3) 0.7321(3) 1.1456(3)
O15 O 0.1401(3) 0.9021(3) 1.2033(2)
O16 O 0.6269(2) 1.0409(3) 0.6687(2)
O17 O 0.5560(3) 0.8504(3) 0.8822(3)
O18 O 0.0741(3) 0.6587(3) 1.1968(2)
O19 O -0.1200(3) 1.8706(3) 0.6598(3)
H13 H -0.0341(50) 0.7043(60) 0.9708(66)
O14A O 0.6696(3) 1.2679(3) 0.8544(3)
O17A O 0.4440(3) 1.1496(3) 1.1178(3)
O15_2 O 0.1401(3) 1.9021(3) 0.2033(2)
O16A O 0.3731(2) 1.9591(3) 0.3313(2)
O19A O 0.1200(3) 2.1294(3) 0.3402(3)
O11_2 O 0.0428(2) 1.6440(2) 0.9432(2)
O11A O -0.0428(2) 1.3560(2) 1.0568(2)
O12A O -0.2200(2) 1.5404(3) 0.9466(2)
O18A O -0.0741(3) 1.3413(3) 0.8032(2)
O8_2 O 0.3429(2) 1.6372(2) 0.8348(3)
O13_2 O 0.1240(3) 1.8544(3) 0.7044(3)
P2_2 P 0.2837(1) 0.4815(1) 0.9024(1)
Ga4_2 Ga -0.0232(1) 0.4939(1) 0.8658(1)
Ga4A Ga 0.0232(1) 0.5061(1) 1.1342(1)
Ga4A_2 Ga 0.0232(1) 1.5061(1) 1.1342(1)
P3_2 P 0.0235(1) 0.7926(1) 0.6421(1)
Ga2A Ga 0.5221(1) 0.7829(1) 1.0640(1)
Ga3_2 Ga 0.1812(1) 0.9520(1) 1.3426(1)
Ga3A Ga 0.8188(1) 1.0480(1) 0.6574(1)
Ga3A_2 Ga -0.1812(1) 2.0480(1) 0.6574(1)
N1 N -0.3443(4) 0.6164(5) 0.7110(4)
C1 C -0.3487(8) 0.6078(8) 0.5764(6)
C2 C -0.3822(13) 0.7410(11) 0.4936(9)
C3 C -0.2288(10) 0.5325(11) 0.5164(8)
H1 H -0.3071(57) 0.5310(40) 0.7686(53)
H2 H -0.4451(26) 0.6285(61) 0.7644(54)
H3 H -0.2849(53) 0.7020(38) 0.7075(65)
H4 H -0.4404(8) 0.5395(8) 0.5878(6)
H5 H -0.3840(13) 0.7285(11) 0.3968(9)
H6 H -0.3011(13) 0.8222(1) 0.4800(9)
H7 H -0.4866(13) 0.7722(11) 0.5419(9)
H8 H -0.2371(10) 0.5293(11) 0.4185(8)
H9 H -0.2318(10) 0.4251(11) 0.5800(8)
H10 H -0.1284(10) 0.5873(11) 0.5059(8)
loop_
_geom_bond_atom_site_label_1
_geom_bond_atom_site_label_2
_geom_bond_site_symmetry_1
_geom_bond_site_symmetry_2
N1 C1 1_555 1_555
C1 C2 1_555 1_555
C2 H5 1_555 1_555
C3 C1 1_555 1_555
H1 N1 1_555 1_555
H2 N1 1_555 1_555
H3 N1 1_555 1_555
H4 C1 1_555 1_555
H6 C2 1_555 1_555
H7 C2 1_555 1_555
H8 C3 1_555 1_555
H9 C3 1_555 1_555
H10 C3 1_555 1_555
O1 H11 1_555 1_555
H12 O1 1_555 1_555
Ga1 O5 1_555 1_555
Ga2 O4 1_555 1_555
Ga3 O10 1_555 1_555
Ga4 O3 1_555 1_555
P1 O6 1_555 1_555
P2 O3 1_555 1_555
P3 O9 1_555 1_555
P4 O5 1_555 1_555
O4 P2 1_555 1_555
O6 Ga2 1_555 1_555
O7 Ga1 1_555 1_555
O8 Ga1 1_555 1_555
O9 Ga4 1_555 1_555
O10 P3 1_555 1_555
O11 Ga1 1_555 1_555
O12 P2 1_555 1_555
O13 Ga1 1_555 1_555
O14 P4 1_555 1_555
O15 P4 1_555 1_555
O16 P1 1_555 1_555
O17 P1 1_555 1_555
O18 P4 1_555 1_555
O19 P3 1_555 1_555
H13 O11 1_555 1_555
O14A Ga2 1_555 1_555
O17A Ga2 1_555 1_555
O15_2 Ga3 1_555 1_555
O16A Ga3 1_555 1_555
O19A Ga3 1_555 1_555
O11_2 Ga4 1_555 1_555
O11A Ga4 1_555 1_555
O12A Ga4 1_555 1_555
O18A Ga4 1_555 1_555
O8_2 P2 1_555 1_555
O13_2 P3 1_555 1_555
P2_2 O8 1_555 1_555
Ga4_2 O11 1_555 1_555
Ga4A O11 1_555 1_555
Ga4A_2 O12 1_555 1_555
P3_2 O13 1_555 1_555
Ga2A O14 1_555 1_555
Ga3_2 O15 1_555 1_555
Ga3A O16 1_555 1_555
Ga3A_2 O19 1_555 1_555
P1 O7 1_555 1_555
O17 Ga2A 1_555 1_555
O18 Ga4A 1_555 1_555
O11_2 Ga4A_2 1_555 1_555
O11A Ga4A_2 1_555 1_555

#END
