
#######################################################################
#
#                 Cambridge Crystallographic Data Centre
#                                CCDC 
#
#######################################################################
#
# If this CIF has been generated from an entry in the Cambridge 
# Structural Database, then it will include bibliographic, chemical, 
# crystal, experimental, refinement or atomic coordinate data resulting 
# from the CCDC's data processing and validation procedures.
#
#######################################################################

data_DOLWAE
_chemical_formula_moiety         '(C12 H6 Mn1 N2 O4)n'
_symmetry_cell_setting           orthorhombic
_symmetry_space_group_name_H-M   'F d d d'
_symmetry_Int_Tables_number      70
_space_group_name_Hall           '-F 2uv 2vw'
loop_
_symmetry_equiv_pos_site_id
_symmetry_equiv_pos_as_xyz
1 x,y,z
2 3/4-x,3/4-y,z
3 3/4-x,y,3/4-z
4 x,3/4-y,3/4-z
5 x,1/2+y,1/2+z
6 3/4-x,1/4-y,1/2+z
7 3/4-x,1/2+y,1/4-z
8 x,1/4-y,1/4-z
9 1/2+x,y,1/2+z
10 1/4-x,3/4-y,1/2+z
11 1/4-x,y,1/4-z
12 1/2+x,3/4-y,1/4-z
13 1/2+x,1/2+y,z
14 1/4-x,1/4-y,z
15 1/4-x,1/2+y,3/4-z
16 1/2+x,1/4-y,3/4-z
17 -x,-y,-z
18 1/4+x,1/4+y,-z
19 1/4+x,-y,1/4+z
20 -x,1/4+y,1/4+z
21 -x,1/2-y,1/2-z
22 1/4+x,3/4+y,1/2-z
23 1/4+x,1/2-y,3/4+z
24 -x,3/4+y,3/4+z
25 1/2-x,-y,1/2-z
26 3/4+x,1/4+y,1/2-z
27 3/4+x,-y,3/4+z
28 1/2-x,1/4+y,3/4+z
29 1/2-x,1/2-y,-z
30 3/4+x,3/4+y,-z
31 3/4+x,1/2-y,1/4+z
32 1/2-x,3/4+y,1/4+z
_cell_length_a                   17.0010(19)
_cell_length_b                   19.633(2)
_cell_length_c                   23.109(4)
_cell_angle_alpha                90
_cell_angle_beta                 90
_cell_angle_gamma                90
_cell_volume                     7713.34
loop_
_atom_site_label
_atom_site_type_symbol
_atom_site_fract_x
_atom_site_fract_y
_atom_site_fract_z
_atom_site_U_iso_or_equiv
_atom_site_thermal_displace_type
Mn1 Mn 0.01960(5) 0.1250 0.1250 0.0249 Uani
O1 O -0.0839(2) 0.3038(2) 0.30852(16) 0.0560 Uani
O2 O -0.2148(2) 0.2996(2) 0.31532(17) 0.0573 Uani
N1 N -0.0945(18) 0.1619(12) 0.1751(9) 0.0323 Uani
C1 C -0.0863(16) 0.2018(8) 0.2181(12) 0.0343 Uani
H1 H -0.0364 0.2112 0.2325 0.0800 Uiso
C2 C -0.1554(3) 0.2330(3) 0.2447(3) 0.0693 Uani
C3 C -0.2317(11) 0.2240(11) 0.2155(10) 0.0803 Uani
H2 H -0.2773 0.2444 0.2292 0.0800 Uiso
C4 C -0.2319(9) 0.1822(8) 0.1649(7) 0.0590 Uani
H3 H -0.2766 0.1780 0.1421 0.0800 Uiso
C5 C -0.1629(3) 0.1483(4) 0.1512(3) 0.0693 Uani
C6 C -0.1494(3) 0.2823(3) 0.2937(3) 0.0550 Uani
O1G O -0.0839(2) -0.0538(2) -0.05852(16) 0.0560 Uani
O2G O -0.2148(2) -0.0496(2) -0.06532(17) 0.0573 Uani
N1G N -0.0945(18) 0.0881(12) 0.0749(9) 0.0323 Uani
C1G C -0.0863(16) 0.0482(8) 0.0319(12) 0.0343 Uani
H1G H -0.0364 0.0388 0.0175 0.0800 Uiso
C2G C -0.1554(3) 0.0170(3) 0.0053(3) 0.0693 Uani
C3G C -0.2317(11) 0.0260(11) 0.0345(10) 0.0803 Uani
H2G H -0.2773 0.0056 0.0208 0.0800 Uiso
C4G C -0.2319(9) 0.0678(8) 0.0851(7) 0.0590 Uani
H3G H -0.2766 0.0720 0.1079 0.0800 Uiso
C5G C -0.1629(3) 0.1017(4) 0.0988(3) 0.0693 Uani
C6G C -0.1494(3) -0.0323(3) -0.0437(3) 0.0550 Uani
Mn1P Mn -0.01960(5) -0.1250 -0.1250 0.0249 Uani
Mn1S Mn -0.01960(5) 0.3750 0.3750 0.0249 Uani
Mn1Y Mn -0.23040(5) 0.3750 0.3750 0.0249 Uani
Mn1Z Mn -0.23040(5) -0.1250 -0.1250 0.0249 Uani
O1T O 0.0839(2) 0.1962(2) 0.19148(16) 0.0560 Uani
O1W O 0.0839(2) 0.0538(2) 0.05852(16) 0.0560 Uani
O2U O 0.0352(2) 0.0496(2) 0.18468(17) 0.0573 Uani
O2V O 0.0352(2) 0.2004(2) 0.06532(17) 0.0573 Uani
loop_
_atom_site_aniso_label
_atom_site_aniso_U_11
_atom_site_aniso_U_22
_atom_site_aniso_U_33
_atom_site_aniso_U_23
_atom_site_aniso_U_13
_atom_site_aniso_U_12
Mn1 0.0260(4) 0.0271(4) 0.0215(4) 0.0021(3) 0.000 0.000
O1 0.042(2) 0.071(2) 0.055(2) -0.0393(19) 0.0072(16) -0.0151(17)
O2 0.046(2) 0.061(2) 0.065(2) -0.0368(19) 0.0186(17) -0.0131(17)
N1 0.033(3) 0.041(8) 0.023(7) -0.009(5) 0.010(5) -0.010(5)
C1 0.032(5) 0.027(8) 0.044(7) -0.018(7) -0.004(4) 0.007(6)
C2 0.036(3) 0.092(4) 0.080(4) -0.063(4) 0.011(3) -0.015(3)
C3 0.030(6) 0.105(15) 0.106(16) -0.091(13) -0.024(8) 0.030(8)
C4 0.046(7) 0.071(10) 0.060(9) -0.048(7) -0.016(7) 0.024(7)
C5 0.030(3) 0.098(4) 0.080(4) -0.068(4) 0.003(2) -0.007(3)
C6 0.045(3) 0.059(3) 0.061(3) -0.036(3) 0.018(2) -0.009(2)
O1G 0.042 0.071 0.055 -0.0393 -0.0072 0.0151
O2G 0.046 0.061 0.065 -0.0368 -0.0186 0.0131
N1G 0.033 0.041 0.023 -0.009 -0.01 0.01
C1G 0.032 0.027 0.044 -0.018 0.004 -0.007
C2G 0.036 0.092 0.08 -0.063 -0.011 0.015
C3G 0.03 0.105 0.106 -0.091 0.024 -0.03
C4G 0.046 0.071 0.06 -0.048 0.016 -0.024
C5G 0.03 0.098 0.08 -0.068 -0.003 0.007
C6G 0.045 0.059 0.061 -0.036 -0.018 0.009
Mn1P 0.026 0.0271 0.0215 0.0021 0 0
Mn1S 0.026 0.0271 0.0215 0.0021 0 0
Mn1Y 0.026 0.0271 0.0215 -0.0021 0 0
Mn1Z 0.026 0.0271 0.0215 -0.0021 0 0
O1T 0.042 0.071 0.055 -0.0393 0.0072 -0.0151
O1W 0.042 0.071 0.055 -0.0393 -0.0072 0.0151
O2U 0.046 0.061 0.065 0.0368 -0.0186 -0.0131
O2V 0.046 0.061 0.065 0.0368 0.0186 0.0131
loop_
_geom_bond_atom_site_label_1
_geom_bond_atom_site_label_2
_geom_bond_site_symmetry_1
_geom_bond_site_symmetry_2
Mn1 N1 1_555 1_555
O1 C6 1_555 1_555
O2 C6 1_555 1_555
N1 C1 1_555 1_555
C1 H1 1_555 1_555
C2 C1 1_555 1_555
C3 C2 1_555 1_555
H2 C3 1_555 1_555
C4 C3 1_555 1_555
H3 C4 1_555 1_555
C5 N1 1_555 1_555
C6 C2 1_555 1_555
O1G C6G 1_555 1_555
O2G C6G 1_555 1_555
N1G Mn1 1_555 1_555
C1G N1G 1_555 1_555
H1G C1G 1_555 1_555
C2G C1G 1_555 1_555
C3G C2G 1_555 1_555
H2G C3G 1_555 1_555
C4G C3G 1_555 1_555
H3G C4G 1_555 1_555
C5G C5 1_555 1_555
C6G C2G 1_555 1_555
Mn1P O1G 1_555 1_555
Mn1S O1 1_555 1_555
Mn1Y O2 1_555 1_555
Mn1Z O2G 1_555 1_555
O1T Mn1 1_555 1_555
O1W Mn1 1_555 1_555
O2U Mn1 1_555 1_555
O2V Mn1 1_555 1_555
C4 C5 1_555 1_555
N1G C5G 1_555 1_555
C4G C5G 1_555 1_555

#END
