
#######################################################################
#
#                 Cambridge Crystallographic Data Centre
#                                CCDC 
#
#######################################################################
#
# If this CIF has been generated from an entry in the Cambridge 
# Structural Database, then it will include bibliographic, chemical, 
# crystal, experimental, refinement or atomic coordinate data resulting 
# from the CCDC's data processing and validation procedures.
#
#######################################################################

data_DOLWEI
_chemical_formula_moiety         '(C14 H12 Co1 N2 O5 S1)n'
_symmetry_cell_setting           cubic
_symmetry_space_group_name_H-M   'P a -3'
_symmetry_Int_Tables_number      205
_space_group_name_Hall           '-P 2ac 2ab 3'
loop_
_symmetry_equiv_pos_site_id
_symmetry_equiv_pos_as_xyz
1 x,y,z
2 1/2-x,-y,1/2+z
3 -x,1/2+y,1/2-z
4 1/2+x,1/2-y,-z
5 z,x,y
6 1/2+z,1/2-x,-y
7 1/2-z,-x,1/2+y
8 -z,1/2+x,1/2-y
9 y,z,x
10 -y,1/2+z,1/2-x
11 1/2+y,1/2-z,-x
12 1/2-y,-z,1/2+x
13 -x,-y,-z
14 1/2+x,y,1/2-z
15 x,1/2-y,1/2+z
16 1/2-x,1/2+y,z
17 -z,-x,-y
18 1/2-z,1/2+x,y
19 1/2+z,x,1/2-y
20 z,1/2-x,1/2+y
21 -y,-z,-x
22 y,1/2-z,1/2+x
23 1/2-y,1/2+z,x
24 1/2+y,z,1/2-x
_cell_length_a                   24.755(3)
_cell_length_b                   24.755(3)
_cell_length_c                   24.755(3)
_cell_angle_alpha                90
_cell_angle_beta                 90
_cell_angle_gamma                90
_cell_volume                     15170.1
loop_
_atom_site_label
_atom_site_type_symbol
_atom_site_fract_x
_atom_site_fract_y
_atom_site_fract_z
_atom_site_U_iso_or_equiv
_atom_site_thermal_displace_type
Co1 Co 0.41481(3) 0.21026(3) 0.20530(3) 0.0389 Uani
S1 S 0.39915(11) 0.22666(14) 0.07214(10) 0.1052 Uani
O1 O 0.2865(5) 0.1990(4) 0.3924(4) 0.0419 Uani
O2 O 0.3314(5) 0.2385(5) 0.4581(4) 0.0773 Uani
O3 O 0.6191(2) 0.2076(2) 0.1051(2) 0.0727 Uani
O4 O 0.68154(19) 0.2001(2) 0.1667(2) 0.0650 Uani
O5 O 0.4273(2) 0.2074(2) 0.1226(2) 0.0750 Uani
N1 N 0.41756(18) 0.20810(19) 0.29055(19) 0.0420 Uani
N2 N 0.49784(18) 0.20651(19) 0.2217(2) 0.0413 Uani
C1 C 0.3746(2) 0.2096(3) 0.3235(2) 0.0450 Uani
H1 H 0.3404 0.2104 0.3079 0.0540 Uiso
C2 C 0.3779(2) 0.2100(3) 0.3786(3) 0.0570 Uani
C3 C 0.4293(4) 0.2066(3) 0.4013(4) 0.0850 Uani
H2 H 0.4336 0.2058 0.4386 0.1020 Uiso
C4 C 0.4743(4) 0.2045(3) 0.3674(4) 0.0840 Uani
H3 H 0.5088 0.2023 0.3821 0.1010 Uiso
C5 C 0.4676(3) 0.2059(3) 0.3122(3) 0.0553 Uani
C6 C 0.5128(2) 0.2038(3) 0.2733(3) 0.0487 Uani
C7 C 0.5659(3) 0.2000(4) 0.2884(3) 0.0757 Uani
H4 H 0.5752 0.1976 0.3247 0.0910 Uiso
C8 C 0.6047(3) 0.1996(3) 0.2497(3) 0.0700 Uani
H5 H 0.6409 0.1970 0.2595 0.0840 Uiso
C9 C 0.5909(3) 0.2030(3) 0.1964(3) 0.0513 Uani
C10 C 0.5360(2) 0.2067(2) 0.1840(3) 0.0467 Uani
H6 H 0.5258 0.2093 0.1479 0.0560 Uiso
C11 C 0.3287(3) 0.2119(4) 0.4132(3) 0.0717 Uani
C12 C 0.6334(3) 0.2031(3) 0.1527(3) 0.0563 Uani
C13 C 0.3410(11) 0.1788(12) 0.0689(12) 0.1420 Uani
H7 H 0.3540 0.1432 0.0611 0.2130 Uiso
H8 H 0.3166 0.1901 0.0409 0.2130 Uiso
H9 H 0.3225 0.1787 0.1030 0.2130 Uiso
C14 C 0.3583(13) 0.2813(11) 0.0857(13) 0.1420 Uani
H10 H 0.3800 0.3132 0.0891 0.2130 Uiso
H11 H 0.3392 0.2752 0.1189 0.2130 Uiso
H12 H 0.3328 0.2859 0.0568 0.2130 Uiso
Co1H Co 0.21026(3) 0.20530(3) 0.41481(3) 0.0389 Uani
Co1W Co 0.71026(3) 0.20530(3) 0.08519(3) 0.0389 Uani
O1D O 0.3924(4) 0.2865(5) 0.1990(4) 0.0419 Uani
O3Q O 0.3949(2) 0.1191(2) 0.2076(2) 0.0727 Uani
O4Q O 0.3333(2) 0.18154(19) 0.2001(2) 0.0650 Uani
loop_
_atom_site_aniso_label
_atom_site_aniso_U_11
_atom_site_aniso_U_22
_atom_site_aniso_U_33
_atom_site_aniso_U_23
_atom_site_aniso_U_13
_atom_site_aniso_U_12
Co1 0.0332(5) 0.0360(5) 0.0475(5) -0.0010(4) 0.0005(4) 0.0064(3)
S1 0.0901(18) 0.154(3) 0.0715(15) 0.0061(16) -0.0089(13) 0.0216(18)
O1 0.0414(16) 0.0420(17) 0.0423(16) 0.0003(7) 0.0006(7) 0.0001(7)
O2 0.077(3) 0.078(3) 0.077(3) -0.0005(10) 0.0004(10) -0.0004(10)
O3 0.054(3) 0.094(4) 0.070(4) 0.017(3) 0.016(3) 0.001(3)
O4 0.042(3) 0.082(4) 0.071(3) -0.005(3) 0.021(2) -0.003(2)
O5 0.060(3) 0.113(4) 0.052(3) -0.006(3) 0.000(2) 0.028(3)
N1 0.029(2) 0.050(3) 0.047(3) 0.001(2) 0.004(2) 0.007(2)
N2 0.030(2) 0.044(3) 0.050(3) 0.002(2) 0.004(2) 0.007(2)
C1 0.027(3) 0.060(4) 0.048(4) -0.016(3) 0.003(3) 0.002(3)
C2 0.032(3) 0.096(6) 0.043(4) -0.011(4) -0.001(3) 0.001(3)
C3 0.084(3) 0.087(3) 0.084(3) 0.0000(10) -0.0001(10) 0.0002(10)
C4 0.083(3) 0.086(3) 0.083(3) -0.0002(10) 0.0001(10) -0.0005(10)
C5 0.039(4) 0.081(5) 0.046(4) 0.002(4) -0.004(3) -0.002(3)
C6 0.030(3) 0.064(4) 0.052(4) 0.000(3) -0.001(3) -0.004(3)
C7 0.037(4) 0.134(8) 0.056(4) -0.003(5) 0.004(3) -0.003(4)
C8 0.033(3) 0.107(6) 0.070(5) 0.017(5) 0.003(3) 0.005(4)
C9 0.037(3) 0.053(4) 0.064(4) 0.008(3) 0.007(3) 0.004(3)
C10 0.044(4) 0.044(4) 0.052(4) 0.001(3) 0.006(3) 0.009(3)
C11 0.056(5) 0.122(7) 0.037(4) -0.018(4) 0.000(3) -0.011(4)
C12 0.047(4) 0.051(4) 0.071(5) 0.010(4) 0.005(4) 0.000(3)
C13 0.142(5) 0.142(5) 0.142(5) 0.0000(5) 0.0000(5) 0.0001(5)
C14 0.142(5) 0.142(5) 0.142(5) 0.0000(5) 0.0000(5) 0.0001(5)
Co1H 0.036 0.0475 0.0332 0.0005 0.0064 -0.001
Co1W 0.036 0.0475 0.0332 -0.0005 -0.0064 -0.001
O1D 0.0423 0.0414 0.042 0.0001 0.0003 0.0006
O3Q 0.07 0.054 0.094 0.001 -0.017 -0.016
O4Q 0.071 0.042 0.082 -0.003 0.005 -0.021
loop_
_geom_bond_atom_site_label_1
_geom_bond_atom_site_label_2
_geom_bond_site_symmetry_1
_geom_bond_site_symmetry_2
Co1 O5 1_555 1_555
S1 O5 1_555 1_555
O1 C11 1_555 1_555
O2 C11 1_555 1_555
O3 C12 1_555 1_555
O4 C12 1_555 1_555
N1 Co1 1_555 1_555
N2 Co1 1_555 1_555
C1 N1 1_555 1_555
H1 C1 1_555 1_555
C2 C1 1_555 1_555
C3 C2 1_555 1_555
H2 C3 1_555 1_555
C4 C3 1_555 1_555
H3 C4 1_555 1_555
C5 N1 1_555 1_555
C6 N2 1_555 1_555
C7 C6 1_555 1_555
H4 C7 1_555 1_555
C8 C7 1_555 1_555
H5 C8 1_555 1_555
C9 C8 1_555 1_555
C10 N2 1_555 1_555
H6 C10 1_555 1_555
C11 C2 1_555 1_555
C12 C9 1_555 1_555
C13 S1 1_555 1_555
H7 C13 1_555 1_555
H8 C13 1_555 1_555
H9 C13 1_555 1_555
C14 S1 1_555 1_555
H10 C14 1_555 1_555
H11 C14 1_555 1_555
H12 C14 1_555 1_555
Co1H O1 1_555 1_555
Co1W O3 1_555 1_555
O1D Co1 1_555 1_555
O3Q Co1 1_555 1_555
O4Q Co1 1_555 1_555
O4 Co1W 1_555 1_555
C4 C5 1_555 1_555
C5 C6 1_555 1_555
C9 C10 1_555 1_555

#END
