
#######################################################################
#
#                 Cambridge Crystallographic Data Centre
#                                CCDC 
#
#######################################################################
#
# If this CIF has been generated from an entry in the Cambridge 
# Structural Database, then it will include bibliographic, chemical, 
# crystal, experimental, refinement or atomic coordinate data resulting 
# from the CCDC's data processing and validation procedures.
#
#######################################################################

data_DORNAB
_chemical_formula_moiety         '(C144 H84 Cu12 N4 O60)n'
_symmetry_cell_setting           orthorhombic
_symmetry_space_group_name_H-M   'C m c 21'
_symmetry_Int_Tables_number      36
_space_group_name_Hall           'C 2c -2'
loop_
_symmetry_equiv_pos_site_id
_symmetry_equiv_pos_as_xyz
1 x,y,z
2 -x,-y,1/2+z
3 x,-y,1/2+z
4 -x,y,z
5 1/2+x,1/2+y,z
6 1/2-x,1/2-y,1/2+z
7 1/2+x,1/2-y,1/2+z
8 1/2-x,1/2+y,z
_cell_length_a                   14.4693(8)
_cell_length_b                   65.138(3)
_cell_length_c                   28.8888(13)
_cell_angle_alpha                90
_cell_angle_beta                 90
_cell_angle_gamma                90
_cell_volume                     27227.7
loop_
_atom_site_label
_atom_site_type_symbol
_atom_site_fract_x
_atom_site_fract_y
_atom_site_fract_z
Cu1 Cu 0.5000 0.37000(3) -0.82993(6)
Cu2 Cu 0.5000 0.37889(3) -0.92110(6)
Cu3 Cu 0.5000 0.22443(3) -1.28930(7)
Cu4 Cu 0.5000 0.18548(3) -1.26012(7)
Cu5 Cu 0.0000 0.17697(3) -1.03758(8)
Cu6 Cu 0.0000 0.15786(3) -1.11867(7)
Cu7 Cu 0.5000 0.59289(3) -0.63270(7)
Cu8 Cu 0.5000 0.57334(3) -0.71316(7)
Cu9 Cu 0.0000 0.35597(4) -0.38520(7)
Cu10 Cu 0.0000 0.39529(4) -0.36702(8)
Cu11 Cu 0.0000 0.43433(2) -0.99024(6)
Cu12 Cu 0.0000 0.47313(3) -0.96172(7)
O1 O 0.4056(7) 0.38992(15) -1.1602(3)
O2 O 0.0909(6) 0.19496(15) -1.0663(4)
O3 O 0.4039(5) 0.35726(11) -0.9223(3)
O4 O 0.3994(7) 0.40628(14) -1.2266(4)
O5 O 0.0948(6) 0.17874(13) -1.1311(3)
O6 O 0.1004(7) 0.38856(13) -1.3189(3)
O7 O 0.0947(6) 0.35498(14) -1.3343(3)
O8 O 0.4043(5) 0.19384(12) -1.2151(3)
O9 O 0.0944(5) 0.28378(11) -0.8308(3)
O10 O 0.4041(5) 0.22661(12) -1.2398(3)
O11 O 0.0938(6) 0.31640(12) -0.8058(3)
O12 O 0.4059(5) 0.35051(11) -0.8473(2)
O13 O 0.4026(6) 0.35956(12) -0.5876(3)
O14 O 0.4068(6) 0.55507(12) -0.6822(3)
O15 O 0.3993(6) 0.57212(11) -0.6148(3)
O16 O 0.0965(7) 0.36335(14) -0.4290(3)
O17 O 0.4012(7) 0.34314(12) -0.5192(3)
O18 O 0.4067(5) 0.39155(11) -0.8237(2)
O19 O 0.0921(6) 0.46483(11) -0.9124(3)
O20 O 0.0904(7) 0.39803(14) -0.4153(3)
O21 O 0.0946(5) 0.55702(10) -0.5326(3)
O22 O 0.0957(5) 0.43207(10) -0.9423(3)
O23 O 0.4014(5) 0.39811(11) -0.9011(2)
O24 O 0.0932(6) 0.52442(10) -0.5071(3)
O25 O 0.5000 0.5581(2) -0.7793(5)
O26 O 0.5000 0.2572(2) -1.2983(6)
O27 O 0.5000 0.15218(18) -1.2380(5)
O28 O 0.0000 0.40061(19) -1.0107(5)
O29 O 0.0000 0.1428(2) -1.1900(5)
O30 O 0.0000 0.50710(19) -0.9492(6)
O31 O 0.5000 0.36556(19) -0.7546(4)
O32 O 0.5000 0.38384(18) -0.9939(4)
O33 O 0.5000 0.60979(16) -0.5708(4)
O34 O -0.0000 0.4273(2) -0.3463(6)
O35 O -0.0000 0.3247(2) -0.3926(7)
O36 O 0.0000 0.1925(2) -0.9708(5)
N1 N 0.2350(9) 0.26592(15) -1.1249(4)
N2 N 0.2586(7) 0.48505(15) -0.6331(4)
C1 C 0.2329(12) 0.2859(2) -1.2000(6)
H1 H 0.2229 0.2747 -1.2191
C2 C 0.2409(7) 0.30343(18) -1.2193(5)
H2 H 0.2457 0.3045 -1.2513
C3 C 0.1906(9) 0.34624(18) -1.2529(4)
H3 H 0.1529 0.3363 -1.2664
C4 C 0.1864(9) 0.20916(16) -1.1272(4)
C5 C 0.2271(12) 0.2451(2) -1.1396(7)
C6 C 0.2483(6) 0.30361(18) -0.9479(4)
C7 C 0.3755(8) 0.39279(18) -1.1993(4)
C8 C 0.2409(7) 0.26170(18) -1.0339(4)
H4 H 0.2385 0.2474 -1.0329
C9 C 0.2423(7) 0.3208(2) -1.1921(5)
C10 C 0.1167(8) 0.19192(16) -1.1064(4)
C11 C 0.1777(9) 0.22922(18) -1.1133(4)
H5 H 0.1415 0.2327 -1.0879
C12 C 0.2973(8) 0.23772(19) -1.1639(5)
H6 H 0.3453 0.2468 -1.1704
C13 C 0.1919(9) 0.2976(2) -0.9140(5)
H7 H 0.1534 0.2863 -0.9180
C14 C 0.3830(7) 0.34731(16) -0.8888(4)
C15 C 0.3049(10) 0.35685(17) -1.1988(4)
H8 H 0.3468 0.3543 -1.1750
C16 C 0.2440(8) 0.27361(19) -1.0777(5)
C17 C 0.1914(7) 0.30901(19) -0.8703(4)
C18 C 0.3042(9) 0.32111(19) -0.9403(4)
H9 H 0.3372 0.3265 -0.9651
C19 C 0.2417(8) 0.2728(2) -0.9982(5)
H10 H 0.2367 0.2656 -0.9705
C20 C 0.2495(6) 0.3242(2) -0.8626(5)
H11 H 0.2493 0.3306 -0.8339
C21 C 0.3121(9) 0.33078(16) -0.8968(4)
C22 C 0.1918(9) 0.3659(2) -1.2743(4)
C23 C 0.3061(8) 0.21897(15) -1.1797(4)
C24 C 0.3091(9) 0.37604(17) -1.2178(4)
C25 C 0.2445(11) 0.3054(3) -1.0339(8)
H12 H 0.2448 0.3196 -1.0322
C26 C 0.3798(7) 0.21245(16) -1.2107(4)
C27 C 0.1209(7) 0.30231(17) -0.8326(4)
C28 C 0.2497(7) 0.37862(19) -1.2615(4)
H13 H 0.2579 0.3904 -1.2793
C29 C 0.2508(8) 0.3199(2) -1.1424(6)
H14 H 0.2600 0.3321 -1.1262
C30 C 0.1188(7) 0.36896(19) -1.3122(3)
C31 C 0.2406(10) 0.2936(2) -1.0762(5)
C32 C 0.2440(10) 0.3399(3) -1.2106(6)
C33 C 0.2386(11) 0.2819(3) -1.1472(7)
C34 C 0.2479(6) 0.2913(2) -0.9936(4)
C35 C 0.2458(10) 0.3013(3) -1.1170(9)
C36 C 0.2500(8) 0.2029(2) -1.1606(5)
H15 H 0.2557 0.1892 -1.1699
C37 C 0.1985(10) 0.4048(2) -0.4948(4)
H16 H 0.1677 0.4157 -0.4808
C38 C 0.3075(9) 0.3921(2) -0.5507(5)
H17 H 0.3447 0.3944 -0.5764
C39 C 0.2536(10) 0.4913(3) -0.7167(6)
H18 H 0.2501 0.5055 -0.7174
C40 C 0.3069(7) 0.41820(18) -0.8498(5)
C41 C 0.2572(9) 0.4671(2) -0.5489(5)
H19 H 0.2542 0.4787 -0.5301
C42 C 0.2574(6) 0.50700(15) -0.6170(4)
C43 C 0.3779(9) 0.35638(19) -0.5468(5)
C44 C 0.2529(8) 0.4453(2) -0.8047(5)
C45 C 0.3786(7) 0.40060(17) -0.8591(4)
C46 C 0.1990(10) 0.51222(16) -0.5787(4)
H20 H 0.1678 0.5024 -0.5613
C47 C 0.2518(9) 0.4287(2) -0.5596(5)
C48 C 0.1951(9) 0.45137(16) -0.8376(4)
H21 H 0.1568 0.4626 -0.8327
C49 C 0.3759(9) 0.5582(2) -0.6415(5)
C50 C 0.2612(9) 0.4798(2) -0.6747(5)
C51 C 0.1239(9) 0.3820(3) -0.4334(5)
C52 C 0.3130(8) 0.54195(16) -0.6210(4)
C53 C 0.3027(10) 0.37181(18) -0.5275(5)
C54 C 0.1899(9) 0.38520(17) -0.4783(4)
C55 C 0.3190(9) 0.5199(2) -0.6336(5)
H22 H 0.3659 0.5153 -0.6529
C56 C 0.2518(8) 0.36773(18) -0.4970(4)
H23 H 0.2489 0.3545 -0.4848
C57 C 0.2519(6) 0.47934(18) -0.7565(4)
H24 H 0.2503 0.4861 -0.7849
C58 C 0.2553(8) 0.46809(17) -0.5968(4)
C59 C 0.2525(8) 0.4550(2) -0.7571(5)
C60 C 0.3069(7) 0.42860(18) -0.8108(4)
H25 H 0.3450 0.4243 -0.7867
C61 C 0.2495(7) 0.4239(2) -0.8862(5)
H26 H 0.2495 0.4167 -0.9139
C62 C 0.2523(5) 0.44588(17) -0.7160(4)
H27 H 0.2515 0.4316 -0.7151
C63 C 0.1191(7) 0.5363(2) -0.5298(4)
C64 C 0.1926(8) 0.53308(16) -0.5696(4)
C65 C 0.1919(8) 0.44080(18) -0.8797(4)
C66 C 0.1189(8) 0.44638(17) -0.9131(4)
C67 C 0.2636(16) 0.4481(3) -0.5323(7)
H28 H 0.2765 0.4467 -0.5009
C68 C 0.2516(7) 0.40776(17) -0.5311(4)
C69 C 0.2531(5) 0.45631(19) -0.6752(4)
C70 C 0.2521(7) 0.4301(2) -0.6052(5)
H29 H 0.2520 0.4184 -0.6238
C71 C 0.2496(6) 0.5470(2) -0.5911(5)
H30 H 0.2425 0.5608 -0.5838
C72 C 0.2527(6) 0.45044(17) -0.6250(4)
O1C O -0.4056(7) 0.38992(15) -1.1602(3)
O2C O -0.0909(6) 0.19496(15) -1.0663(4)
O3C O -0.4039(5) 0.35726(11) -0.9223(3)
O4C O -0.3994(7) 0.40628(14) -1.2266(4)
O5C O -0.0948(6) 0.17874(13) -1.1311(3)
O6C O -0.1004(7) 0.38856(13) -1.3189(3)
O7C O -0.0947(6) 0.35498(14) -1.3343(3)
O8C O -0.4043(5) 0.19384(12) -1.2151(3)
O9C O -0.0944(5) 0.28378(11) -0.8308(3)
O10C O -0.4041(5) 0.22661(12) -1.2398(3)
O11C O -0.0938(6) 0.31640(12) -0.8058(3)
O12C O -0.4059(5) 0.35051(11) -0.8473(2)
O13C O -0.4026(6) 0.35956(12) -0.5876(3)
O14C O -0.4068(6) 0.55507(12) -0.6822(3)
O15C O -0.3993(6) 0.57212(11) -0.6148(3)
O16C O -0.0965(7) 0.36335(14) -0.4290(3)
O17C O -0.4012(7) 0.34314(12) -0.5192(3)
O18C O -0.4067(5) 0.39155(11) -0.8237(2)
O19C O -0.0921(6) 0.46483(11) -0.9124(3)
O20C O -0.0904(7) 0.39803(14) -0.4153(3)
O21C O -0.0946(5) 0.55702(10) -0.5326(3)
O22C O -0.0957(5) 0.43207(10) -0.9423(3)
O23C O -0.4014(5) 0.39811(11) -0.9011(2)
O24C O -0.0932(6) 0.52442(10) -0.5071(3)
N1C N -0.2350(9) 0.26592(15) -1.1249(4)
N2C N -0.2586(7) 0.48505(15) -0.6331(4)
C1C C -0.2329(12) 0.2859(2) -1.2000(6)
H1C H -0.2229 0.2747 -1.2191
C2C C -0.2409(7) 0.30343(18) -1.2193(5)
H2C H -0.2457 0.3045 -1.2513
C3C C -0.1906(9) 0.34624(18) -1.2529(4)
H3C H -0.1529 0.3363 -1.2664
C4C C -0.1864(9) 0.20916(16) -1.1272(4)
C5C C -0.2271(12) 0.2451(2) -1.1396(7)
C6C C -0.2483(6) 0.30361(18) -0.9479(4)
C7C C -0.3755(8) 0.39279(18) -1.1993(4)
C8C C -0.2409(7) 0.26170(18) -1.0339(4)
H4C H -0.2385 0.2474 -1.0329
C9C C -0.2423(7) 0.3208(2) -1.1921(5)
C10C C -0.1167(8) 0.19192(16) -1.1064(4)
C11C C -0.1777(9) 0.22922(18) -1.1133(4)
H5C H -0.1415 0.2327 -1.0879
C12C C -0.2973(8) 0.23772(19) -1.1639(5)
H6C H -0.3453 0.2468 -1.1704
C13C C -0.1919(9) 0.2976(2) -0.9140(5)
H7C H -0.1534 0.2863 -0.9180
C14C C -0.3830(7) 0.34731(16) -0.8888(4)
C15C C -0.3049(10) 0.35685(17) -1.1988(4)
H8C H -0.3468 0.3543 -1.1750
C16C C -0.2440(8) 0.27361(19) -1.0777(5)
C17C C -0.1914(7) 0.30901(19) -0.8703(4)
C18C C -0.3042(9) 0.32111(19) -0.9403(4)
H9C H -0.3372 0.3265 -0.9651
C19C C -0.2417(8) 0.2728(2) -0.9982(5)
H10C H -0.2367 0.2656 -0.9705
C20C C -0.2495(6) 0.3242(2) -0.8626(5)
H11C H -0.2493 0.3306 -0.8339
C21C C -0.3121(9) 0.33078(16) -0.8968(4)
C22C C -0.1918(9) 0.3659(2) -1.2743(4)
C23C C -0.3061(8) 0.21897(15) -1.1797(4)
C24C C -0.3091(9) 0.37604(17) -1.2178(4)
C25C C -0.2445(11) 0.3054(3) -1.0339(8)
H12C H -0.2448 0.3196 -1.0322
C26C C -0.3798(7) 0.21245(16) -1.2107(4)
C27C C -0.1209(7) 0.30231(17) -0.8326(4)
C28C C -0.2497(7) 0.37862(19) -1.2615(4)
H13C H -0.2579 0.3904 -1.2793
C29C C -0.2508(8) 0.3199(2) -1.1424(6)
H14C H -0.2600 0.3321 -1.1262
C30C C -0.1188(7) 0.36896(19) -1.3122(3)
C31C C -0.2406(10) 0.2936(2) -1.0762(5)
C32C C -0.2440(10) 0.3399(3) -1.2106(6)
C33C C -0.2386(11) 0.2819(3) -1.1472(7)
C34C C -0.2479(6) 0.2913(2) -0.9936(4)
C35C C -0.2458(10) 0.3013(3) -1.1170(9)
C36C C -0.2500(8) 0.2029(2) -1.1606(5)
H15C H -0.2557 0.1892 -1.1699
C37C C -0.1985(10) 0.4048(2) -0.4948(4)
H16C H -0.1677 0.4157 -0.4808
C38C C -0.3075(9) 0.3921(2) -0.5507(5)
H17C H -0.3447 0.3944 -0.5764
C39C C -0.2536(10) 0.4913(3) -0.7167(6)
H18C H -0.2501 0.5055 -0.7174
C40C C -0.3069(7) 0.41820(18) -0.8498(5)
C41C C -0.2572(9) 0.4671(2) -0.5489(5)
H19C H -0.2542 0.4787 -0.5301
C42C C -0.2574(6) 0.50700(15) -0.6170(4)
C43C C -0.3779(9) 0.35638(19) -0.5468(5)
C44C C -0.2529(8) 0.4453(2) -0.8047(5)
C45C C -0.3786(7) 0.40060(17) -0.8591(4)
C46C C -0.1990(10) 0.51222(16) -0.5787(4)
H20C H -0.1678 0.5024 -0.5613
C47C C -0.2518(9) 0.4287(2) -0.5596(5)
C48C C -0.1951(9) 0.45137(16) -0.8376(4)
H21C H -0.1568 0.4626 -0.8327
C49C C -0.3759(9) 0.5582(2) -0.6415(5)
C50C C -0.2612(9) 0.4798(2) -0.6747(5)
C51C C -0.1239(9) 0.3820(3) -0.4334(5)
C52C C -0.3130(8) 0.54195(16) -0.6210(4)
C53C C -0.3027(10) 0.37181(18) -0.5275(5)
C54C C -0.1899(9) 0.38520(17) -0.4783(4)
C55C C -0.3190(9) 0.5199(2) -0.6336(5)
H22C H -0.3659 0.5153 -0.6529
C56C C -0.2518(8) 0.36773(18) -0.4970(4)
H23C H -0.2489 0.3545 -0.4848
C57C C -0.2519(6) 0.47934(18) -0.7565(4)
H24C H -0.2503 0.4861 -0.7849
C58C C -0.2553(8) 0.46809(17) -0.5968(4)
C59C C -0.2525(8) 0.4550(2) -0.7571(5)
C60C C -0.3069(7) 0.42860(18) -0.8108(4)
H25C H -0.3450 0.4243 -0.7867
C61C C -0.2495(7) 0.4239(2) -0.8862(5)
H26C H -0.2495 0.4167 -0.9139
C62C C -0.2523(5) 0.44588(17) -0.7160(4)
H27C H -0.2515 0.4316 -0.7151
C63C C -0.1191(7) 0.5363(2) -0.5298(4)
C64C C -0.1926(8) 0.53308(16) -0.5696(4)
C65C C -0.1919(8) 0.44080(18) -0.8797(4)
C66C C -0.1189(8) 0.44638(17) -0.9131(4)
C67C C -0.2636(16) 0.4481(3) -0.5323(7)
H28C H -0.2765 0.4467 -0.5009
C68C C -0.2516(7) 0.40776(17) -0.5311(4)
C69C C -0.2531(5) 0.45631(19) -0.6752(4)
C70C C -0.2521(7) 0.4301(2) -0.6052(5)
H29C H -0.2520 0.4184 -0.6238
C71C C -0.2496(6) 0.5470(2) -0.5911(5)
H30C H -0.2425 0.5608 -0.5838
C72C C -0.2527(6) 0.45044(17) -0.6250(4)
Cu1_2 Cu -0.5000 0.37000(3) -0.82993(6)
Cu2_2 Cu -0.5000 0.37889(3) -0.92110(6)
Cu3_2 Cu -0.5000 0.22443(3) -1.28930(7)
Cu3E Cu 0.0000 0.27557(3) -0.78930(7)
Cu4_2 Cu -0.5000 0.18548(3) -1.26012(7)
Cu4E Cu 0.0000 0.31452(3) -0.76012(7)
Cu5E Cu -0.5000 0.32303(3) -0.53758(8)
Cu5E_2 Cu 0.5000 0.32303(3) -0.53758(8)
Cu6E Cu -0.5000 0.34214(3) -0.61867(7)
Cu6E_2 Cu 0.5000 0.34214(3) -0.61867(7)
Cu7_2 Cu -0.5000 0.59289(3) -0.63270(7)
Cu7A Cu -0.5000 0.40711(3) -1.13270(7)
Cu7A_2 Cu 0.5000 0.40711(3) -1.13270(7)
Cu8_2 Cu -0.5000 0.57334(3) -0.71316(7)
Cu8A Cu -0.5000 0.42666(3) -1.21316(7)
Cu8A_2 Cu 0.5000 0.42666(3) -1.21316(7)
Cu9_2 Cu 0.0000 0.35597(4) -1.38520(7)
Cu10_2 Cu 0.0000 0.39529(4) -1.36702(8)
Cu11A Cu 0.0000 0.56567(2) -0.49024(6)
Cu12A Cu -0.0000 0.52687(3) -0.46172(7)
O1A O 0.5944(7) 0.61008(15) -0.6602(3)
O1B O 0.4056(7) 0.61008(15) -0.6602(3)
O3C_2 O 0.5961(5) 0.35726(11) -0.9223(3)
O4A O 0.6006(7) 0.59372(14) -0.7266(4)
O4B O 0.3994(7) 0.59372(14) -0.7266(4)
O6_2 O 0.1004(7) 0.38856(13) -0.3189(3)
O6C_2 O -0.1004(7) 0.38856(13) -0.3189(3)
O7_2 O 0.0947(6) 0.35498(14) -0.3343(3)
O7C_2 O -0.0947(6) 0.35498(14) -0.3343(3)
O8C_2 O 0.5957(5) 0.19384(12) -1.2151(3)
O9E O 0.4056(5) 0.21622(11) -1.3308(3)
O9F O 0.5944(5) 0.21622(11) -1.3308(3)
O10C_2 O 0.5959(5) 0.22661(12) -1.2398(3)
O11E O 0.4062(6) 0.18360(12) -1.3058(3)
O11F O 0.5938(6) 0.18360(12) -1.3058(3)
O12C_2 O 0.5941(5) 0.35051(11) -0.8473(2)
O13E O 0.0974(6) 0.14044(12) -1.0876(3)
O13F O -0.0974(6) 0.14044(12) -1.0876(3)
O14C_2 O 0.5932(6) 0.55507(12) -0.6822(3)
O15C_2 O 0.6007(6) 0.57212(11) -0.6148(3)
O17E O 0.0988(7) 0.15686(12) -1.0192(3)
O17F O -0.0988(7) 0.15686(12) -1.0192(3)
O18C_2 O 0.5933(5) 0.39155(11) -0.8237(2)
O21A O -0.0946(5) 0.44298(10) -1.0326(3)
O21B O 0.0946(5) 0.44298(10) -1.0326(3)
O23C_2 O 0.5986(5) 0.39811(11) -0.9011(2)
O24A O -0.0932(6) 0.47558(10) -1.0071(3)
O24B O 0.0932(6) 0.47558(10) -1.0071(3)
loop_
_geom_bond_atom_site_label_1
_geom_bond_atom_site_label_2
_geom_bond_site_symmetry_1
_geom_bond_site_symmetry_2
Cu1 O12 1_555 1_555
Cu2 O3 1_555 1_555
Cu3 O10 1_555 1_555
Cu4 O8 1_555 1_555
Cu5 O2 1_555 1_555
Cu6 O5 1_555 1_555
Cu7 O15 1_555 1_555
Cu8 O14 1_555 1_555
Cu9 O16 1_555 1_555
Cu10 O20 1_555 1_555
Cu11 O22 1_555 1_555
Cu12 O19 1_555 1_555
O1 C7 1_555 1_555
O2 C10 1_555 1_555
O3 C14 1_555 1_555
O4 C7 1_555 1_555
O5 C10 1_555 1_555
O6 C30 1_555 1_555
O7 C30 1_555 1_555
O8 C26 1_555 1_555
O9 C27 1_555 1_555
O10 C26 1_555 1_555
O11 C27 1_555 1_555
O12 C14 1_555 1_555
O13 C43 1_555 1_555
O14 C49 1_555 1_555
O15 C49 1_555 1_555
O16 C51 1_555 1_555
O17 C43 1_555 1_555
O18 Cu1 1_555 1_555
O19 C66 1_555 1_555
O20 C51 1_555 1_555
O21 C63 1_555 1_555
O22 C66 1_555 1_555
O23 Cu2 1_555 1_555
O24 C63 1_555 1_555
O25 Cu8 1_555 1_555
O26 Cu3 1_555 1_555
O27 Cu4 1_555 1_555
O28 Cu11 1_555 1_555
O29 Cu6 1_555 1_555
O30 Cu12 1_555 1_555
O31 Cu1 1_555 1_555
O32 Cu2 1_555 1_555
O33 Cu7 1_555 1_555
O34 Cu10 1_555 1_555
O35 Cu9 1_555 1_555
O36 Cu5 1_555 1_555
N1 C5 1_555 1_555
N2 C42 1_555 1_555
C1 H1 1_555 1_555
C2 C1 1_555 1_555
H2 C2 1_555 1_555
C3 H3 1_555 1_555
C4 C10 1_555 1_555
C5 C11 1_555 1_555
C6 C13 1_555 1_555
C7 C24 1_555 1_555
C8 H4 1_555 1_555
C9 C2 1_555 1_555
C11 C4 1_555 1_555
H5 C11 1_555 1_555
C12 C5 1_555 1_555
H6 C12 1_555 1_555
C13 H7 1_555 1_555
C14 C21 1_555 1_555
C15 H8 1_555 1_555
C16 N1 1_555 1_555
C17 C13 1_555 1_555
C18 C6 1_555 1_555
H9 C18 1_555 1_555
C19 C8 1_555 1_555
H10 C19 1_555 1_555
C20 C17 1_555 1_555
H11 C20 1_555 1_555
C21 C18 1_555 1_555
C22 C3 1_555 1_555
C23 C12 1_555 1_555
C24 C15 1_555 1_555
C25 H12 1_555 1_555
C26 C23 1_555 1_555
C27 C17 1_555 1_555
C28 C22 1_555 1_555
H13 C28 1_555 1_555
C29 C9 1_555 1_555
H14 C29 1_555 1_555
C30 C22 1_555 1_555
C31 C16 1_555 1_555
C32 C3 1_555 1_555
C33 N1 1_555 1_555
C34 C6 1_555 1_555
C35 C29 1_555 1_555
C36 C4 1_555 1_555
H15 C36 1_555 1_555
C37 H16 1_555 1_555
C38 H17 1_555 1_555
C39 H18 1_555 1_555
C40 C45 1_555 1_555
C41 H19 1_555 1_555
C42 C46 1_555 1_555
C43 C53 1_555 1_555
C44 C48 1_555 1_555
C45 O18 1_555 1_555
C46 H20 1_555 1_555
C47 C67 1_555 1_555
C48 H21 1_555 1_555
C49 C52 1_555 1_555
C50 N2 1_555 1_555
C51 C54 1_555 1_555
C52 C55 1_555 1_555
C53 C38 1_555 1_555
C54 C37 1_555 1_555
C55 C42 1_555 1_555
H22 C55 1_555 1_555
C56 C53 1_555 1_555
H23 C56 1_555 1_555
C57 C39 1_555 1_555
H24 C57 1_555 1_555
C58 N2 1_555 1_555
C59 C44 1_555 1_555
C60 C40 1_555 1_555
H25 C60 1_555 1_555
C61 C40 1_555 1_555
H26 C61 1_555 1_555
C62 C59 1_555 1_555
H27 C62 1_555 1_555
C63 C64 1_555 1_555
C64 C46 1_555 1_555
C65 C48 1_555 1_555
C66 C65 1_555 1_555
C67 C41 1_555 1_555
H28 C67 1_555 1_555
C68 C37 1_555 1_555
C69 C50 1_555 1_555
C70 C47 1_555 1_555
H29 C70 1_555 1_555
C71 C52 1_555 1_555
H30 C71 1_555 1_555
C72 C58 1_555 1_555
O1C C7C 1_555 1_555
O2C Cu5 1_555 1_555
O3C C14C 1_555 1_555
O4C C7C 1_555 1_555
O5C Cu6 1_555 1_555
O6C C30C 1_555 1_555
O7C C30C 1_555 1_555
O8C C26C 1_555 1_555
O9C C27C 1_555 1_555
O10C C26C 1_555 1_555
O11C C27C 1_555 1_555
O12C C14C 1_555 1_555
O13C C43C 1_555 1_555
O14C C49C 1_555 1_555
O15C C49C 1_555 1_555
O16C Cu9 1_555 1_555
O17C C43C 1_555 1_555
O18C C45C 1_555 1_555
O19C Cu12 1_555 1_555
O20C Cu10 1_555 1_555
O21C C63C 1_555 1_555
O22C Cu11 1_555 1_555
O23C C45C 1_555 1_555
O24C C63C 1_555 1_555
N1C C5C 1_555 1_555
N2C C42C 1_555 1_555
C1C H1C 1_555 1_555
C2C C1C 1_555 1_555
H2C C2C 1_555 1_555
C3C H3C 1_555 1_555
C4C C10C 1_555 1_555
C5C C11C 1_555 1_555
C6C C13C 1_555 1_555
C7C C24C 1_555 1_555
C8C H4C 1_555 1_555
C9C C2C 1_555 1_555
C10C O2C 1_555 1_555
C11C C4C 1_555 1_555
H5C C11C 1_555 1_555
C12C C5C 1_555 1_555
H6C C12C 1_555 1_555
C13C H7C 1_555 1_555
C14C C21C 1_555 1_555
C15C H8C 1_555 1_555
C16C N1C 1_555 1_555
C17C C13C 1_555 1_555
C18C C6C 1_555 1_555
H9C C18C 1_555 1_555
C19C C8C 1_555 1_555
H10C C19C 1_555 1_555
C20C C17C 1_555 1_555
H11C C20C 1_555 1_555
C21C C18C 1_555 1_555
C22C C3C 1_555 1_555
C23C C12C 1_555 1_555
C24C C15C 1_555 1_555
C25C H12C 1_555 1_555
C26C C23C 1_555 1_555
C27C C17C 1_555 1_555
C28C C22C 1_555 1_555
H13C C28C 1_555 1_555
C29C C9C 1_555 1_555
H14C C29C 1_555 1_555
C30C C22C 1_555 1_555
C31C C16C 1_555 1_555
C32C C3C 1_555 1_555
C33C N1C 1_555 1_555
C34C C6C 1_555 1_555
C35C C29C 1_555 1_555
C36C C4C 1_555 1_555
H15C C36C 1_555 1_555
C37C H16C 1_555 1_555
C38C H17C 1_555 1_555
C39C H18C 1_555 1_555
C40C C45C 1_555 1_555
C41C H19C 1_555 1_555
C42C C46C 1_555 1_555
C43C C53C 1_555 1_555
C44C C48C 1_555 1_555
C46C H20C 1_555 1_555
C47C C67C 1_555 1_555
C48C H21C 1_555 1_555
C49C C52C 1_555 1_555
C50C N2C 1_555 1_555
C51C O16C 1_555 1_555
C52C C55C 1_555 1_555
C53C C38C 1_555 1_555
C54C C37C 1_555 1_555
C55C C42C 1_555 1_555
H22C C55C 1_555 1_555
C56C C53C 1_555 1_555
H23C C56C 1_555 1_555
C57C C39C 1_555 1_555
H24C C57C 1_555 1_555
C58C N2C 1_555 1_555
C59C C44C 1_555 1_555
C60C C40C 1_555 1_555
H25C C60C 1_555 1_555
C61C C40C 1_555 1_555
H26C C61C 1_555 1_555
C62C C59C 1_555 1_555
H27C C62C 1_555 1_555
C63C C64C 1_555 1_555
C64C C46C 1_555 1_555
C65C C48C 1_555 1_555
C66C O19C 1_555 1_555
C67C C41C 1_555 1_555
H28C C67C 1_555 1_555
C68C C37C 1_555 1_555
C69C C50C 1_555 1_555
C70C C47C 1_555 1_555
H29C C70C 1_555 1_555
C71C C52C 1_555 1_555
H30C C71C 1_555 1_555
C72C C58C 1_555 1_555
Cu1_2 O12C 1_555 1_555
Cu2_2 O3C 1_555 1_555
Cu3_2 O10C 1_555 1_555
Cu3E O9 1_555 1_555
Cu4_2 O8C 1_555 1_555
Cu4E O11 1_555 1_555
Cu5E O17C 1_555 1_555
Cu5E_2 O17 1_555 1_555
Cu6E O13C 1_555 1_555
Cu6E_2 O13 1_555 1_555
Cu7_2 O15C 1_555 1_555
Cu7A O1C 1_555 1_555
Cu7A_2 O1 1_555 1_555
Cu8_2 O14C 1_555 1_555
Cu8A O4C 1_555 1_555
Cu8A_2 O4 1_555 1_555
Cu9_2 O7 1_555 1_555
Cu10_2 O6 1_555 1_555
Cu11A O21 1_555 1_555
Cu12A O24 1_555 1_555
O1A Cu7 1_555 1_555
O1B Cu7 1_555 1_555
O3C_2 Cu2 1_555 1_555
O4A Cu8 1_555 1_555
O4B Cu8 1_555 1_555
O6_2 Cu10 1_555 1_555
O6C_2 Cu10 1_555 1_555
O7_2 Cu9 1_555 1_555
O7C_2 Cu9 1_555 1_555
O8C_2 Cu4 1_555 1_555
O9E Cu3 1_555 1_555
O9F Cu3 1_555 1_555
O10C_2 Cu3 1_555 1_555
O11E Cu4 1_555 1_555
O11F Cu4 1_555 1_555
O12C_2 Cu1 1_555 1_555
O13E Cu6 1_555 1_555
O13F Cu6 1_555 1_555
O14C_2 Cu8 1_555 1_555
O15C_2 Cu7 1_555 1_555
O17E Cu5 1_555 1_555
O17F Cu5 1_555 1_555
O18C_2 Cu1 1_555 1_555
O21A Cu11 1_555 1_555
O21B Cu11 1_555 1_555
O23C_2 Cu2 1_555 1_555
O24A Cu12 1_555 1_555
O24B Cu12 1_555 1_555
O23 C45 1_555 1_555
C1 C33 1_555 1_555
C8 C16 1_555 1_555
C9 C32 1_555 1_555
C15 C32 1_555 1_555
C19 C34 1_555 1_555
C20 C21 1_555 1_555
C23 C36 1_555 1_555
C24 C28 1_555 1_555
C25 C31 1_555 1_555
C25 C34 1_555 1_555
C31 C35 1_555 1_555
C33 C35 1_555 1_555
C38 C68 1_555 1_555
C39 C50 1_555 1_555
C41 C58 1_555 1_555
C44 C60 1_555 1_555
C47 C68 1_555 1_555
C54 C56 1_555 1_555
C57 C59 1_555 1_555
C61 C65 1_555 1_555
C62 C69 1_555 1_555
C64 C71 1_555 1_555
C69 C72 1_555 1_555
C70 C72 1_555 1_555
O5C C10C 1_555 1_555
O6C Cu10_2 1_555 1_555
O7C Cu9_2 1_555 1_555
O9C Cu3E 1_555 1_555
O11C Cu4E 1_555 1_555
O18C Cu1_2 1_555 1_555
O20C C51C 1_555 1_555
O21C Cu11A 1_555 1_555
O22C C66C 1_555 1_555
O23C Cu2_2 1_555 1_555
O24C Cu12A 1_555 1_555
C1C C33C 1_555 1_555
C8C C16C 1_555 1_555
C9C C32C 1_555 1_555
C15C C32C 1_555 1_555
C19C C34C 1_555 1_555
C20C C21C 1_555 1_555
C23C C36C 1_555 1_555
C24C C28C 1_555 1_555
C25C C31C 1_555 1_555
C25C C34C 1_555 1_555
C31C C35C 1_555 1_555
C33C C35C 1_555 1_555
C38C C68C 1_555 1_555
C39C C50C 1_555 1_555
C41C C58C 1_555 1_555
C44C C60C 1_555 1_555
C47C C68C 1_555 1_555
C51C C54C 1_555 1_555
C54C C56C 1_555 1_555
C57C C59C 1_555 1_555
C61C C65C 1_555 1_555
C62C C69C 1_555 1_555
C64C C71C 1_555 1_555
C65C C66C 1_555 1_555
C69C C72C 1_555 1_555
C70C C72C 1_555 1_555

#END
