
#######################################################################
#
#                 Cambridge Crystallographic Data Centre
#                                CCDC 
#
#######################################################################
#
# If this CIF has been generated from an entry in the Cambridge 
# Structural Database, then it will include bibliographic, chemical, 
# crystal, experimental, refinement or atomic coordinate data resulting 
# from the CCDC's data processing and validation procedures.
#
#######################################################################

data_DUNXUH
_chemical_formula_moiety         '(C14 H14 N2 O7 S1 Zn1)n'
_symmetry_cell_setting           monoclinic
_symmetry_space_group_name_H-M   'P 21/c'
_symmetry_Int_Tables_number      14
_space_group_name_Hall           '-P 2ybc'
loop_
_symmetry_equiv_pos_site_id
_symmetry_equiv_pos_as_xyz
1 x,y,z
2 -x,1/2+y,1/2-z
3 -x,-y,-z
4 x,1/2-y,1/2+z
_cell_length_a                   11.2574(9)
_cell_length_b                   12.0034(11)
_cell_length_c                   16.1430(10)
_cell_angle_alpha                90
_cell_angle_beta                 129.603(4)
_cell_angle_gamma                90
_cell_volume                     1680.69
loop_
_atom_site_label
_atom_site_type_symbol
_atom_site_fract_x
_atom_site_fract_y
_atom_site_fract_z
_atom_site_U_iso_or_equiv
_atom_site_thermal_displace_type
C1 C 0.1420(2) 0.89041(17) 0.76816(16) 0.0247 Uani
C2 C 0.0838(2) 0.80260(17) 0.69689(16) 0.0250 Uani
H1 H -0.0191 0.7820 0.6565 0.0300 Uiso
C3 C 0.1800(2) 0.74518(16) 0.68588(15) 0.0225 Uani
C4 C 0.1181(2) 0.64849(16) 0.61027(15) 0.0227 Uani
C5 C 0.3335(2) 0.77748(17) 0.74547(15) 0.0237 Uani
H2 H 0.3975 0.7394 0.7374 0.0280 Uiso
C6 C 0.3912(2) 0.86603(17) 0.81660(15) 0.0242 Uani
C7 C 0.2955(2) 0.92231(17) 0.82860(16) 0.0267 Uani
H3 H 0.3338 0.9812 0.8769 0.0320 Uiso
C8 C 0.5556(2) 0.90125(19) 0.87888(16) 0.0302 Uani
O1 O 0.07007(17) 0.92702(13) 0.88853(12) 0.0347 Uani
O2 O -0.13332(19) 0.9337(2) 0.69765(15) 0.0634 Uani
O3 O 0.0576(3) 1.08097(15) 0.78813(19) 0.0639 Uani
O4 O 0.21474(16) 0.57865(12) 0.62666(11) 0.0327 Uani
O5 O -0.02462(15) 0.64410(12) 0.53598(11) 0.0286 Uani
O6 O 0.63941(16) 0.85323(15) 0.86534(14) 0.0456 Uani
O7 O 0.6064(2) 0.98057(16) 0.94384(15) 0.0520 Uani
S1 S 0.02264(6) 0.96556(5) 0.78470(4) 0.0333 Uani
Zn1 Zn 0.17802(2) 1.02579(2) 1.01875(2) 0.0221 Uani
O4C O 0.21474(16) 0.92135(12) 1.12666(11) 0.0327 Uani
O5A O 0.02462(15) 1.14410(12) 0.96402(11) 0.0286 Uani
O6B O 0.36059(16) 1.14677(15) 1.13466(14) 0.0456 Uani
O7B O 0.3936(2) 1.01943(16) 1.05616(15) 0.0520 Uani
Zn1A Zn -0.17802(2) 0.52579(2) 0.48125(2) 0.0221 Uani
Zn1B Zn 0.82198(2) 0.97421(2) 0.98125(2) 0.0221 Uani
Zn1C Zn 0.17802(2) 0.47421(2) 0.51875(2) 0.0221 Uani
C9 C 0.3097(6) 0.2315(4) 0.7930(4) 0.1177 Uani
H4 H 0.2641 0.2127 0.8251 0.1760 Uiso
H5 H 0.3403 0.1646 0.7785 0.1760 Uiso
H6 H 0.2358 0.2709 0.7269 0.1760 Uiso
C10 C 0.6744(5) 0.3591(4) 1.0014(3) 0.0961 Uani
H7 H 0.7760 0.3615 1.0648 0.1150 Uiso
C11 C 0.5825(6) 0.2699(3) 0.9584(4) 0.0953 Uani
H8 H 0.6091 0.1984 0.9870 0.1150 Uiso
C12 C 0.7731(8) 0.5628(5) 0.9384(5) 0.1391 Uani
H9 H 0.8568 0.5179 0.9956 0.2090 Uiso
H10 H 0.8078 0.6380 0.9462 0.2090 Uiso
H11 H 0.7370 0.5335 0.8706 0.2090 Uiso
C13 C 0.6430(5) 0.5611(3) 0.9430(3) 0.0900 Uani
H12 H 0.6784 0.5928 1.0107 0.1080 Uiso
H13 H 0.5582 0.6063 0.8852 0.1080 Uiso
C14 C 0.4508(4) 0.4088(3) 0.8526(3) 0.0597 Uani
H14 H 0.3708 0.4512 0.7952 0.0720 Uiso
N1 N 0.4438(4) 0.3015(2) 0.8661(3) 0.0729 Uani
N2 N 0.5889(4) 0.4464(2) 0.9332(2) 0.0668 Uani
loop_
_atom_site_aniso_label
_atom_site_aniso_U_11
_atom_site_aniso_U_22
_atom_site_aniso_U_33
_atom_site_aniso_U_23
_atom_site_aniso_U_13
_atom_site_aniso_U_12
C1 0.0217(9) 0.0285(11) 0.0246(10) -0.0005(8) 0.0151(8) 0.0017(8)
C2 0.0168(8) 0.0291(11) 0.0253(10) -0.0009(8) 0.0117(8) -0.0012(7)
C3 0.0189(8) 0.0232(10) 0.0220(10) -0.0017(8) 0.0114(8) -0.0026(7)
C4 0.0207(9) 0.0230(10) 0.0220(10) -0.0010(7) 0.0125(8) -0.0039(7)
C5 0.0179(8) 0.0267(10) 0.0252(10) -0.0019(8) 0.0132(8) -0.0012(7)
C6 0.0178(9) 0.0299(10) 0.0212(10) -0.0022(8) 0.0107(8) -0.0052(8)
C7 0.0254(9) 0.0271(10) 0.0249(10) -0.0065(8) 0.0148(9) -0.0050(8)
C8 0.0202(9) 0.0396(12) 0.0230(10) 0.0008(9) 0.0101(9) -0.0085(9)
O1 0.0356(8) 0.0403(9) 0.0330(8) -0.0076(7) 0.0241(7) -0.0059(7)
O2 0.0245(8) 0.1134(17) 0.0397(10) -0.0176(11) 0.0146(8) 0.0139(10)
O3 0.1028(17) 0.0341(10) 0.0991(16) 0.0103(10) 0.0850(15) 0.0186(11)
O4 0.0254(7) 0.0301(8) 0.0300(8) -0.0092(6) 0.0118(6) 0.0011(6)
O5 0.0195(6) 0.0279(8) 0.0261(7) -0.0037(6) 0.0088(6) -0.0073(6)
O6 0.0201(7) 0.0463(10) 0.0620(11) -0.0098(8) 0.0222(8) -0.0055(7)
O7 0.0361(9) 0.0738(13) 0.0482(11) -0.0376(10) 0.0278(9) -0.0335(9)
S1 0.0291(3) 0.0406(3) 0.0321(3) -0.0013(2) 0.0204(3) 0.0079(2)
Zn1 0.01454(12) 0.02307(14) 0.02409(14) 0.00241(9) 0.01011(10) 0.00073(8)
O4C 0.0254 0.0301 0.03 0.0092 0.0118 -0.0011
O5A 0.0195 0.0279 0.0261 0.0037 0.0088 0.0073
O6B 0.0201 0.0463 0.062 -0.0098 0.0222 -0.0055
O7B 0.0361 0.0738 0.0482 -0.0376 0.0278 -0.0335
Zn1A 0.01454 0.02307 0.02409 -0.00241 0.01011 -0.00073
Zn1B 0.01454 0.02307 0.02409 0.00241 0.01011 0.00073
Zn1C 0.01454 0.02307 0.02409 -0.00241 0.01011 -0.00073
C9 0.158(5) 0.081(3) 0.168(5) -0.034(3) 0.129(4) -0.047(3)
C10 0.117(4) 0.069(3) 0.059(2) 0.0259(19) 0.036(2) 0.021(2)
C11 0.160(4) 0.055(2) 0.088(3) 0.026(2) 0.087(3) 0.022(3)
C12 0.226(7) 0.103(4) 0.125(4) -0.031(3) 0.129(5) -0.066(4)
C13 0.105(3) 0.054(2) 0.050(2) -0.0012(16) 0.021(2) -0.009(2)
C14 0.083(2) 0.0461(17) 0.0572(19) 0.0023(14) 0.0480(19) 0.0053(15)
N1 0.117(2) 0.0529(16) 0.091(2) -0.0054(15) 0.086(2) -0.0103(17)
N2 0.0829(19) 0.0502(15) 0.0397(14) 0.0097(11) 0.0262(14) 0.0050(14)
loop_
_geom_bond_atom_site_label_1
_geom_bond_atom_site_label_2
_geom_bond_site_symmetry_1
_geom_bond_site_symmetry_2
C1 C2 1_555 1_555
C2 H1 1_555 1_555
C3 C2 1_555 1_555
C4 C3 1_555 1_555
C5 C3 1_555 1_555
H2 C5 1_555 1_555
C6 C5 1_555 1_555
C7 C1 1_555 1_555
H3 C7 1_555 1_555
C8 C6 1_555 1_555
O1 S1 1_555 1_555
O2 S1 1_555 1_555
O3 S1 1_555 1_555
O4 C4 1_555 1_555
O5 C4 1_555 1_555
O6 C8 1_555 1_555
O7 C8 1_555 1_555
S1 C1 1_555 1_555
Zn1 O1 1_555 1_555
C9 H4 1_555 1_555
H5 C9 1_555 1_555
H6 C9 1_555 1_555
C10 H7 1_555 1_555
C11 C10 1_555 1_555
H8 C11 1_555 1_555
C12 H9 1_555 1_555
H10 C12 1_555 1_555
H11 C12 1_555 1_555
C13 C12 1_555 1_555
H12 C13 1_555 1_555
H13 C13 1_555 1_555
C14 H14 1_555 1_555
N1 C9 1_555 1_555
N2 C10 1_555 1_555
O4C Zn1 1_555 1_555
O5A Zn1 1_555 1_555
O6B Zn1 1_555 1_555
O7B Zn1 1_555 1_555
Zn1A O5 1_555 1_555
Zn1B O6 1_555 1_555
Zn1C O4 1_555 1_555
C6 C7 1_555 1_555
O7 Zn1B 1_555 1_555
C11 N1 1_555 1_555
C13 N2 1_555 1_555
C14 N1 1_555 1_555
C14 N2 1_555 1_555

#END
