
#######################################################################
#
#                 Cambridge Crystallographic Data Centre
#                                CCDC 
#
#######################################################################
#
# If this CIF has been generated from an entry in the Cambridge 
# Structural Database, then it will include bibliographic, chemical, 
# crystal, experimental, refinement or atomic coordinate data resulting 
# from the CCDC's data processing and validation procedures.
#
#######################################################################

data_DUNYIW
_chemical_formula_moiety         '(C104 H68 N16 O20 Zn4)n'
_symmetry_cell_setting           monoclinic
_symmetry_space_group_name_H-M   'C 2/c'
_symmetry_Int_Tables_number      15
_space_group_name_Hall           '-C 2yc'
loop_
_symmetry_equiv_pos_site_id
_symmetry_equiv_pos_as_xyz
1 x,y,z
2 -x,y,1/2-z
3 1/2+x,1/2+y,z
4 1/2-x,1/2+y,1/2-z
5 -x,-y,-z
6 x,-y,1/2+z
7 1/2-x,1/2-y,-z
8 1/2+x,1/2-y,1/2+z
_cell_length_a                   23.2393(18)
_cell_length_b                   25.042(2)
_cell_length_c                   53.544(4)
_cell_angle_alpha                90
_cell_angle_beta                 94.148(4)
_cell_angle_gamma                90
_cell_volume                     31078.8
loop_
_atom_site_label
_atom_site_type_symbol
_atom_site_fract_x
_atom_site_fract_y
_atom_site_fract_z
C53 C 0.0735(5) 0.4880(5) 0.0020(2)
H35 H 0.0432 0.4685 -0.0057
C54 C 0.0737(5) 0.4860(4) 0.0270(2)
H36 H 0.0432 0.4723 0.0353
C55 C 0.1229(5) 0.5060(4) 0.0392(2)
C56 C 0.1646(4) 0.5285(4) 0.0271(2)
H37 H 0.1971 0.5430 0.0357
C57 C 0.1574(5) 0.5296(6) 0.0010(2)
H38 H 0.1868 0.5434 -0.0079
C58 C 0.1661(4) 0.5165(5) 0.0834(2)
C59 C 0.1535(3) 0.5037(4) 0.11107(15)
C60 C 0.0980(3) 0.4976(4) 0.11856(16)
H39 H 0.0665 0.5008 0.1069
C61 C 0.0895(3) 0.4868(4) 0.14340(17)
H40 H 0.0523 0.4827 0.1484
C62 C 0.1364(4) 0.4821(4) 0.16075(16)
C63 C 0.1919(3) 0.4881(4) 0.15325(15)
H41 H 0.2234 0.4849 0.1649
C64 C 0.2004(3) 0.4989(4) 0.12841(14)
H42 H 0.2376 0.5030 0.1234
C65 C 0.1273(6) 0.4726(6) 0.1876(2)
C66 C 0.0824(6) 0.4389(6) 0.1931(2)
H43 H 0.0604 0.4220 0.1802
C67 C 0.0703(6) 0.4306(6) 0.2178(3)
H44 H 0.0402 0.4081 0.2215
C68 C 0.1032(7) 0.4558(7) 0.23705(19)
C69 C 0.1482(7) 0.4895(6) 0.2315(2)
H45 H 0.1702 0.5063 0.2444
C70 C 0.1602(6) 0.4978(6) 0.2068(3)
H46 H 0.1903 0.5203 0.2031
C71 C 0.0880(10) 0.4467(10) 0.2642(4)
C72 C 0.0831(4) 0.4477(2) 0.34527(14)
H47 H 0.0739 0.4176 0.3544
C73 C 0.0830(4) 0.4450(3) 0.31934(15)
H48 H 0.0739 0.4132 0.3111
C74 C 0.0967(5) 0.4900(4) 0.30576(11)
C75 C 0.1104(5) 0.5377(4) 0.31810(16)
H49 H 0.1196 0.5678 0.3090
C76 C 0.1105(4) 0.5404(2) 0.34404(16)
H50 H 0.1196 0.5722 0.3523
N9 N 0.0968(3) 0.4954(3) 0.35762(11)
C77 C 0.1790(5) 0.5780(5) -0.0765(3)
C78 C 0.2215(3) 0.6219(3) -0.07691(18)
C79 C 0.2472(4) 0.6336(4) -0.09891(16)
H51 H 0.2372 0.6142 -0.1134
C80 C 0.2878(4) 0.6743(4) -0.09929(17)
H52 H 0.3050 0.6821 -0.1140
C81 C 0.3027(4) 0.7034(4) -0.0777(2)
C82 C 0.2770(4) 0.6917(4) -0.05565(18)
H53 H 0.2869 0.7111 -0.0412
C83 C 0.2364(4) 0.6510(4) -0.05528(15)
H54 H 0.2192 0.6432 -0.0406
C84 C 0.4021(6) 0.8021(6) -0.0755(4)
C85 C 0.4181(6) 0.8243(7) -0.0970(3)
H55 H 0.4026 0.8097 -0.1120
C86 C 0.4564(6) 0.8677(6) -0.0986(3)
H56 H 0.4654 0.8804 -0.1142
C87 C 0.4808(5) 0.8916(5) -0.0768(3)
C88 C 0.4618(6) 0.8683(6) -0.0536(3)
H57 H 0.4778 0.8806 -0.0383
C89 C 0.4223(5) 0.8300(7) -0.0542(3)
H58 H 0.4069 0.8211 -0.0392
C90 C 0.5208(5) 0.9336(5) -0.0760(3)
C91 C 0.1721(4) 0.4300(5) -0.0768(2)
C92 C 0.2123(4) 0.3829(5) -0.0749(2)
C93 C 0.2380(6) 0.3676(6) -0.0515(3)
H59 H 0.2287 0.3850 -0.0370
C94 C 0.2775(6) 0.3262(6) -0.0505(3)
H60 H 0.2964 0.3173 -0.0352
C95 C 0.2898(5) 0.2971(5) -0.0720(2)
C96 C 0.2611(5) 0.3115(5) -0.0947(2)
H61 H 0.2672 0.2921 -0.1091
C97 C 0.2244(5) 0.3537(5) -0.0960(2)
H62 H 0.2067 0.3634 -0.1115
C98 C 0.3911(5) 0.1985(5) -0.0844(2)
C99 C 0.4167(5) 0.1848(6) -0.1067(3)
H63 H 0.4063 0.2017 -0.1219
C100 C 0.4578(5) 0.1452(5) -0.1048(2)
H64 H 0.4741 0.1342 -0.1194
C101 C 0.4762(5) 0.1209(5) -0.0825(2)
C102 C 0.4513(6) 0.1380(6) -0.0609(3)
H65 H 0.4647 0.1238 -0.0455
C103 C 0.4078(5) 0.1748(6) -0.0616(3)
H66 H 0.3899 0.1838 -0.0472
C104 C 0.5217(4) 0.0791(5) -0.0809(2)
N10 N 0.1034(3) 0.5090(3) -0.01325(17)
N11 N 0.1228(4) 0.5018(4) 0.06571(19)
H67 H 0.0922 0.4887 0.0714
N12 N 0.1042(7) 0.4861(7) 0.2795(3)
H68 H 0.1213 0.5125 0.2729
N13 N 0.3430(6) 0.7454(6) -0.0825(4)
N14 N 0.3609(7) 0.7632(7) -0.0675(3)
N15 N 0.3301(4) 0.2562(4) -0.0689(2)
N16 N 0.3469(4) 0.2393(5) -0.0873(2)
O11 O 0.2100(4) 0.5368(4) 0.07874(17)
O12 O 0.0756(6) 0.4014(6) 0.2703(2)
O13 O 0.1653(3) 0.5539(4) -0.09636(17)
O14 O 0.1555(3) 0.5673(3) -0.05617(16)
O15 O 0.5312(3) 0.9557(4) -0.09649(16)
O16 O 0.5455(3) 0.9480(4) -0.05538(16)
O17 O 0.1504(4) 0.4402(4) -0.09774(17)
O18 O 0.1638(3) 0.4546(3) -0.05690(16)
O19 O 0.5448(3) 0.0670(3) -0.10031(15)
O20 O 0.5347(3) 0.0579(4) -0.05970(16)
Zn3 Zn 0.10238(5) 0.50833(5) -0.04957(3)
Zn4 Zn 0.09754(5) 0.50407(5) -0.10563(3)
N9E N 0.0968(3) 0.5046(3) -0.14238(11)
O15B O 0.0312(3) 0.4557(4) -0.09649(16)
O16B O 0.0455(3) 0.4480(4) -0.05538(16)
O19B O 0.0448(3) 0.5670(3) -0.10031(15)
O20B O 0.0347(3) 0.5579(4) -0.05970(16)
Zn3B Zn 0.60238(5) 0.00833(5) -0.04957(3)
Zn3B_2 Zn 0.60238(5) 1.00833(5) -0.04957(3)
Zn4B Zn 0.59754(5) 0.00407(5) -0.10563(3)
Zn4B_2 Zn 0.59754(5) 1.00407(5) -0.10563(3)
Zn4E Zn 0.09754(5) 0.49593(5) 0.39437(3)
Zn1 Zn 0.59693(5) 0.51547(5) 0.86700(2)
N1 N 0.6007(3) 0.5163(3) 0.90284(14)
O1 O 0.5350(3) 0.5709(3) 0.85740(16)
O2 O 0.6563(3) 0.5711(3) 0.85878(15)
O3 O 0.6557(3) 0.4573(4) 0.86180(16)
O4 O 0.5362(3) 0.4573(4) 0.86022(17)
C1 C 0.6443(5) 0.4900(5) 0.9180(2)
C2 C 0.5685(5) 0.5439(5) 0.9193(2)
C3 C 0.5175(4) 0.5871(5) 0.8361(2)
C4 C 0.6699(4) 0.5826(5) 0.8382(3)
H1 H 0.6730 0.4745 0.9092
C5 C 0.6516(5) 0.4833(5) 0.9438(2)
C6 C 0.5710(4) 0.5431(5) 0.9450(2)
H2 H 0.5407 0.5666 0.9118
C7 C 0.4770(5) 0.6318(5) 0.8340(2)
O5 O 0.5346(4) 0.5684(4) 0.81553(17)
C8 C 0.7151(5) 0.6255(6) 0.8355(2)
O6 O 0.6548(4) 0.5576(5) 0.81782(19)
O7 O 0.6352(5) 0.4457(5) 0.8207(2)
O8 O 0.5226(5) 0.4606(5) 0.8195(2)
H3 H 0.6795 0.4603 0.9510
C9 C 0.6184(7) 0.5101(6) 0.9574(3)
H4 H 0.5450 0.5618 0.9540
C10 C 0.4550(5) 0.6531(5) 0.8561(2)
C11 C 0.4584(6) 0.6548(6) 0.8112(3)
Zn2 Zn 0.58779(5) 0.50766(5) 0.81143(3)
C12 C 0.7307(6) 0.6436(7) 0.8125(3)
C13 C 0.7408(5) 0.6509(5) 0.8560(3)
N2 N 0.6180(5) 0.5072(4) 0.9826(2)
C14 C 0.4148(6) 0.6941(6) 0.8545(3)
H5 H 0.4677 0.6393 0.8717
H6 H 0.4743 0.6424 0.7969
C15 C 0.4193(6) 0.6932(6) 0.8087(3)
N3 N 0.5944(3) 0.5045(3) 0.77432(14)
C16 C 0.7672(7) 0.6802(7) 0.8114(3)
H7 H 0.7140 0.6286 0.7978
H8 H 0.7313 0.6395 0.8717
C17 C 0.7789(5) 0.6912(6) 0.8549(3)
C18 C 0.6582(5) 0.4851(5) 0.9983(2)
H9 H 0.5888 0.5211 0.9891
C19 C 0.3978(6) 0.7161(6) 0.8313(3)
H10 H 0.3993 0.7068 0.8689
H11 H 0.4058 0.7054 0.7929
C20 C 0.7931(6) 0.7061(6) 0.8312(3)
H12 H 0.7773 0.6903 0.7956
H13 H 0.7948 0.7080 0.8693
C21 C 0.6522(4) 0.4883(5) 1.0264(2)
O9 O 0.7005(3) 0.4608(4) 0.99051(17)
N4 N 0.3542(6) 0.7568(6) 0.8291(3)
N5 N 0.8355(5) 0.7467(5) 0.8274(2)
C22 C 0.7033(5) 0.4940(5) 1.0418(2)
C23 C 0.5937(5) 0.4929(5) 1.0359(3)
N6 N 0.3323(6) 0.7688(6) 0.8465(3)
N7 N 0.8500(4) 0.7710(5) 0.8455(2)
H14 H 0.7387 0.4945 1.0347
C24 C 0.7013(5) 0.4988(5) 1.0678(2)
C25 C 0.5917(5) 0.4951(5) 1.0614(3)
H15 H 0.5605 0.4942 1.0251
C26 C 0.2897(6) 0.8073(6) 0.8441(3)
C27 C 0.8922(5) 0.8138(6) 0.8427(3)
H16 H 0.7351 0.5009 1.0782
C28 C 0.6486(5) 0.5006(5) 1.0775(3)
H17 H 0.5567 0.4933 1.0687
C29 C 0.2683(6) 0.8299(6) 0.8647(3)
C30 C 0.2660(7) 0.8267(7) 0.8206(3)
C31 C 0.9128(6) 0.8271(6) 0.8208(3)
C32 C 0.9119(5) 0.8386(5) 0.8651(3)
C33 C 0.6474(5) 0.5075(5) 1.1050(3)
H18 H 0.2814 0.8157 0.8801
C34 C 0.2312(5) 0.8694(6) 0.8652(3)
C35 C 0.2195(7) 0.8672(7) 0.8195(3)
H19 H 0.2798 0.8139 0.8059
H20 H 0.9004 0.8079 0.8066
C36 C 0.9514(5) 0.8680(6) 0.8187(3)
C37 C 0.9489(5) 0.8813(6) 0.8649(3)
H21 H 0.9000 0.8260 0.8802
C38 C 0.6879(6) 0.5374(7) 1.1181(3)
C39 C 0.6057(5) 0.4816(5) 1.1196(2)
H22 H 0.2201 0.8824 0.8804
C40 C 0.2088(5) 0.8918(6) 0.8428(2)
H23 H 0.1987 0.8762 0.8046
H24 H 0.9652 0.8767 0.8033
C41 C 0.9699(5) 0.8968(5) 0.8411(3)
H25 H 0.9601 0.8997 0.8795
H26 H 0.7146 0.5570 1.1099
C42 C 0.6889(7) 0.5382(7) 1.1442(3)
C43 C 0.6074(6) 0.4842(5) 1.1465(3)
H27 H 0.5762 0.4622 1.1111
C44 C 0.1672(5) 0.9361(5) 0.8416(3)
C45 C 1.0117(5) 0.9400(5) 0.8396(3)
H28 H 0.7189 0.5565 1.1530
C46 C 0.6501(6) 0.5146(7) 1.1573(3)
H29 H 0.5810 0.4663 1.1557
C47 C 0.6534(7) 0.5227(8) 1.1847(3)
N8 N 0.6099(6) 0.4979(6) 1.1959(3)
O10 O 0.7006(7) 0.5248(8) 1.1961(3)
C48 C 0.6077(5) 0.4963(5) 1.22314(14)
H30 H 0.5828 0.4826 1.1867
C49 C 0.5990(6) 0.4483(4) 1.23533(19)
C50 C 0.6098(6) 0.5439(4) 1.23653(19)
H31 H 0.5976 0.4165 1.2264
C51 C 0.5924(5) 0.4479(3) 1.26092(19)
C52 C 0.6031(5) 0.5435(3) 1.26212(18)
H32 H 0.6156 0.5760 1.2284
H33 H 0.5865 0.4158 1.2691
H34 H 0.6045 0.5753 1.2711
O7B O 0.1352(5) 0.9457(5) 0.8207(2)
O3B O 0.1557(3) 0.9573(4) 0.86180(16)
O8B O 1.0226(5) 0.9606(5) 0.8195(2)
O4B O 1.0362(3) 0.9573(4) 0.86022(17)
Zn2B Zn 0.08779(5) 1.00766(5) 0.81143(3)
Zn1B Zn 0.09693(5) 1.01547(5) 0.86700(2)
Zn2B_2 Zn 1.08779(5) 1.00766(5) 0.81143(3)
Zn1B_2 Zn 1.09693(5) 1.01547(5) 0.86700(2)
N3E N 0.5944(3) 0.4955(3) 1.27432(14)
Zn2E Zn 0.58779(5) 0.49234(5) 1.31143(3)
loop_
_geom_bond_atom_site_label_1
_geom_bond_atom_site_label_2
_geom_bond_site_symmetry_1
_geom_bond_site_symmetry_2
Zn1 N1 1_555 1_555
N1 C1 1_555 1_555
O1 Zn1 1_555 1_555
O2 Zn1 1_555 1_555
O3 Zn1 1_555 1_555
O4 Zn1 1_555 1_555
C1 H1 1_555 1_555
C2 N1 1_555 1_555
C3 O1 1_555 1_555
C4 O2 1_555 1_555
C5 C1 1_555 1_555
C6 C2 1_555 1_555
H2 C2 1_555 1_555
C7 C3 1_555 1_555
O5 C3 1_555 1_555
C8 C4 1_555 1_555
O6 C4 1_555 1_555
O7 Zn2 1_555 1_555
O8 Zn2 1_555 1_555
H3 C5 1_555 1_555
C9 C5 1_555 1_555
H4 C6 1_555 1_555
C10 C7 1_555 1_555
C11 C7 1_555 1_555
Zn2 O5 1_555 1_555
C12 C8 1_555 1_555
C13 C8 1_555 1_555
N2 C9 1_555 1_555
C14 C10 1_555 1_555
H5 C10 1_555 1_555
H6 C11 1_555 1_555
C15 C11 1_555 1_555
N3 Zn2 1_555 1_555
C16 C12 1_555 1_555
H7 C12 1_555 1_555
H8 C13 1_555 1_555
C17 C13 1_555 1_555
C18 N2 1_555 1_555
H9 N2 1_555 1_555
C19 C14 1_555 1_555
H10 C14 1_555 1_555
H11 C15 1_555 1_555
C20 C16 1_555 1_555
H12 C16 1_555 1_555
H13 C17 1_555 1_555
C21 C18 1_555 1_555
O9 C18 1_555 1_555
N4 C19 1_555 1_555
N5 C20 1_555 1_555
C22 C21 1_555 1_555
C23 C21 1_555 1_555
N6 N4 1_555 1_555
N7 N5 1_555 1_555
H14 C22 1_555 1_555
C24 C22 1_555 1_555
C25 C23 1_555 1_555
H15 C23 1_555 1_555
C26 N6 1_555 1_555
C27 N7 1_555 1_555
H16 C24 1_555 1_555
C28 C24 1_555 1_555
H17 C25 1_555 1_555
C29 C26 1_555 1_555
C30 C26 1_555 1_555
C31 C27 1_555 1_555
C32 C27 1_555 1_555
C33 C28 1_555 1_555
H18 C29 1_555 1_555
C34 C29 1_555 1_555
C35 C30 1_555 1_555
H19 C30 1_555 1_555
H20 C31 1_555 1_555
C36 C31 1_555 1_555
C37 C32 1_555 1_555
H21 C32 1_555 1_555
C38 C33 1_555 1_555
C39 C33 1_555 1_555
H22 C34 1_555 1_555
C40 C34 1_555 1_555
H23 C35 1_555 1_555
H24 C36 1_555 1_555
C41 C36 1_555 1_555
H25 C37 1_555 1_555
H26 C38 1_555 1_555
C42 C38 1_555 1_555
C43 C39 1_555 1_555
H27 C39 1_555 1_555
C44 C40 1_555 1_555
C45 C41 1_555 1_555
H28 C42 1_555 1_555
C46 C42 1_555 1_555
H29 C43 1_555 1_555
C47 C46 1_555 1_555
N8 C47 1_555 1_555
O10 C47 1_555 1_555
C48 N8 1_555 1_555
H30 N8 1_555 1_555
C49 C48 1_555 1_555
C50 C48 1_555 1_555
H31 C49 1_555 1_555
C51 C49 1_555 1_555
C52 C50 1_555 1_555
H32 C50 1_555 1_555
H33 C51 1_555 1_555
H34 C52 1_555 1_555
C53 H35 1_555 1_555
C54 C53 1_555 1_555
H36 C54 1_555 1_555
C55 C54 1_555 1_555
C56 C55 1_555 1_555
H37 C56 1_555 1_555
C57 C56 1_555 1_555
H38 C57 1_555 1_555
C58 C59 1_555 1_555
C59 C60 1_555 1_555
C60 H39 1_555 1_555
C61 C60 1_555 1_555
H40 C61 1_555 1_555
C62 C61 1_555 1_555
C63 C62 1_555 1_555
H41 C63 1_555 1_555
C64 C59 1_555 1_555
H42 C64 1_555 1_555
C65 C62 1_555 1_555
C66 C65 1_555 1_555
H43 C66 1_555 1_555
C67 C66 1_555 1_555
H44 C67 1_555 1_555
C68 C67 1_555 1_555
C69 C68 1_555 1_555
H45 C69 1_555 1_555
C70 C65 1_555 1_555
H46 C70 1_555 1_555
C71 C68 1_555 1_555
C72 H47 1_555 1_555
C73 C72 1_555 1_555
H48 C73 1_555 1_555
C74 C73 1_555 1_555
C75 C74 1_555 1_555
H49 C75 1_555 1_555
C76 C75 1_555 1_555
H50 C76 1_555 1_555
N9 C72 1_555 1_555
C77 C78 1_555 1_555
C78 C79 1_555 1_555
C79 H51 1_555 1_555
C80 C79 1_555 1_555
H52 C80 1_555 1_555
C81 C80 1_555 1_555
C82 C81 1_555 1_555
H53 C82 1_555 1_555
C83 C78 1_555 1_555
H54 C83 1_555 1_555
C84 C85 1_555 1_555
C85 H55 1_555 1_555
C86 C85 1_555 1_555
H56 C86 1_555 1_555
C87 C86 1_555 1_555
C88 C87 1_555 1_555
H57 C88 1_555 1_555
C89 C84 1_555 1_555
H58 C89 1_555 1_555
C90 C87 1_555 1_555
C91 C92 1_555 1_555
C92 C93 1_555 1_555
C93 H59 1_555 1_555
C94 C93 1_555 1_555
H60 C94 1_555 1_555
C95 C94 1_555 1_555
C96 C95 1_555 1_555
H61 C96 1_555 1_555
C97 C92 1_555 1_555
H62 C97 1_555 1_555
C98 C99 1_555 1_555
C99 H63 1_555 1_555
C100 C99 1_555 1_555
H64 C100 1_555 1_555
C101 C100 1_555 1_555
C102 C101 1_555 1_555
H65 C102 1_555 1_555
C103 C98 1_555 1_555
H66 C103 1_555 1_555
C104 C101 1_555 1_555
N10 C53 1_555 1_555
N11 C55 1_555 1_555
H67 N11 1_555 1_555
N12 C71 1_555 1_555
H68 N12 1_555 1_555
N13 C81 1_555 1_555
N14 C84 1_555 1_555
N15 C95 1_555 1_555
N16 C98 1_555 1_555
O11 C58 1_555 1_555
O12 C71 1_555 1_555
O13 C77 1_555 1_555
O14 C77 1_555 1_555
O15 C90 1_555 1_555
O16 C90 1_555 1_555
O17 C91 1_555 1_555
O18 C91 1_555 1_555
O19 C104 1_555 1_555
O20 C104 1_555 1_555
Zn3 N10 1_555 1_555
Zn4 O13 1_555 1_555
O7B C44 1_555 1_555
O3B C44 1_555 1_555
O8B C45 1_555 1_555
O4B C45 1_555 1_555
Zn2B O7B 1_555 1_555
Zn1B O3B 1_555 1_555
Zn2B_2 O8B 1_555 1_555
Zn1B_2 O4B 1_555 1_555
N3E C51 1_555 1_555
Zn2E N3E 1_555 1_555
N9E Zn4 1_555 1_555
O15B Zn4 1_555 1_555
O16B Zn3 1_555 1_555
O19B Zn4 1_555 1_555
O20B Zn3 1_555 1_555
Zn3B O20 1_555 1_555
Zn3B_2 O16 1_555 1_555
Zn4B O19 1_555 1_555
Zn4B_2 O15 1_555 1_555
Zn4E N9 1_555 1_555
C6 C9 1_555 1_555
O6 Zn2 1_555 1_555
C15 C19 1_555 1_555
C17 C20 1_555 1_555
C25 C28 1_555 1_555
C35 C40 1_555 1_555
C37 C41 1_555 1_555
C43 C46 1_555 1_555
C52 N3E 1_555 1_555
C57 N10 1_555 1_555
C58 N11 1_555 1_555
C63 C64 1_555 1_555
C69 C70 1_555 1_555
C74 N12 1_555 1_555
C76 N9 1_555 1_555
C82 C83 1_555 1_555
C88 C89 1_555 1_555
C96 C97 1_555 1_555
C102 C103 1_555 1_555
N13 N14 1_555 1_555
N15 N16 1_555 1_555
O14 Zn3 1_555 1_555
O17 Zn4 1_555 1_555
O18 Zn3 1_555 1_555

#END
