
#######################################################################
#
#                 Cambridge Crystallographic Data Centre
#                                CCDC 
#
#######################################################################
#
# If this CIF has been generated from an entry in the Cambridge 
# Structural Database, then it will include bibliographic, chemical, 
# crystal, experimental, refinement or atomic coordinate data resulting 
# from the CCDC's data processing and validation procedures.
#
#######################################################################

data_DUNYOC
_chemical_formula_moiety         'C152 H104 N25 O28 Zn9'
_symmetry_cell_setting           monoclinic
_symmetry_space_group_name_H-M   'C 2/c'
_symmetry_Int_Tables_number      15
_space_group_name_Hall           '-C 2yc'
loop_
_symmetry_equiv_pos_site_id
_symmetry_equiv_pos_as_xyz
1 x,y,z
2 -x,y,1/2-z
3 1/2+x,1/2+y,z
4 1/2-x,1/2+y,1/2-z
5 -x,-y,-z
6 x,-y,1/2+z
7 1/2-x,1/2-y,-z
8 1/2+x,1/2-y,1/2+z
_cell_length_a                   16.8330(14)
_cell_length_b                   29.227(2)
_cell_length_c                   53.531(4)
_cell_angle_alpha                90
_cell_angle_beta                 96.338(4)
_cell_angle_gamma                90
_cell_volume                     26175.1
loop_
_atom_site_label
_atom_site_type_symbol
_atom_site_fract_x
_atom_site_fract_y
_atom_site_fract_z
C1 C -0.3342(19) 0.0921(6) 0.1539(4)
C2 C -0.3757(15) 0.0919(5) 0.1807(3)
C3 C -0.4586(10) 0.1014(3) 0.17636(17)
H1 H -0.4826 0.1089 0.1604
C4 C -0.5027(10) 0.0989(3) 0.19680(17)
H2 H -0.5571 0.1054 0.1947
C5 C -0.4654(10) 0.0868(3) 0.22034(17)
C6 C -0.3841(10) 0.0771(3) 0.22344(17)
H3 H -0.3592 0.0690 0.2392
C7 C -0.3400(10) 0.0795(3) 0.20299(17)
H4 H -0.2856 0.0730 0.2051
C8 C -0.2786(14) 0.0186(5) 0.0963(3)
C9 C -0.3251(16) 0.0091(7) 0.0713(3)
C10 C -0.3547(7) 0.0455(3) 0.05570(13)
H5 H -0.3389 0.0753 0.0598
C11 C -0.4074(7) 0.0373(3) 0.03431(13)
H6 H -0.4258 0.0614 0.0239
C12 C -0.4326(7) -0.0071(3) 0.02841(13)
C13 C -0.4051(7) -0.0432(3) 0.04390(13)
H7 H -0.4220 -0.0729 0.0400
C14 C -0.3524(7) -0.0350(3) 0.06529(13)
H8 H -0.3340 -0.0592 0.0757
C15 C 1.1327(15) -0.0699(5) 0.1012(2)
C16 C 1.1050(14) -0.0534(5) 0.0750(3)
C17 C 1.1244(7) -0.0074(3) 0.07126(13)
H9 H 1.1546 0.0090 0.0838
C18 C 1.0977(7) 0.0132(3) 0.04846(13)
H10 H 1.1091 0.0438 0.0458
C19 C 1.0539(7) -0.0120(3) 0.02968(13)
C20 C 1.0368(7) -0.0578(3) 0.03370(13)
H11 H 1.0075 -0.0747 0.0211
C21 C 1.0635(7) -0.0784(3) 0.05650(13)
H12 H 1.0521 -0.1090 0.0592
C22 C 1.2475(17) -0.1495(6) 0.1616(4)
C23 C 1.3115(15) -0.1492(5) 0.1850(3)
C24 C 1.2884(9) -0.1367(3) 0.20723(17)
H13 H 1.2359 -0.1284 0.2089
C25 C 1.3471(9) -0.1369(3) 0.22765(17)
H14 H 1.3342 -0.1288 0.2435
C26 C 1.4251(9) -0.1490(3) 0.22436(17)
C27 C 1.4444(9) -0.1610(3) 0.20064(17)
H15 H 1.4966 -0.1692 0.1984
C28 C 1.3857(9) -0.1609(3) 0.18022(17)
H16 H 1.3986 -0.1689 0.1643
C29 C 0.7593(14) -0.0481(5) 0.1888(2)
C30 C 0.9510(7) -0.0922(2) 0.12937(12)
H17 H 0.9591 -0.0935 0.1125
C31 C 0.8790(7) -0.0756(2) 0.13620(12)
H18 H 0.8395 -0.0656 0.1239
C32 C 0.8663(7) -0.0739(2) 0.16140(12)
C33 C 0.9254(7) -0.0888(2) 0.17977(12)
H19 H 0.9169 -0.0877 0.1966
C34 C 0.9973(7) -0.1054(2) 0.17294(12)
H20 H 1.0369 -0.1154 0.1852
C35 C 0.1754(14) -0.0065(5) 0.1889(2)
C36 C -0.0491(3) 0.03914(11) 0.12634(5)
H21 H -0.0645 0.0451 0.1094
C37 C 0.0266(3) 0.02164(11) 0.13385(5)
H22 H 0.0616 0.0157 0.1220
C38 C 0.0500(3) 0.01305(11) 0.15914(5)
C39 C -0.0023(3) 0.02194(11) 0.17691(5)
H23 H 0.0133 0.0162 0.1938
C40 C -0.0780(3) 0.03943(11) 0.16940(5)
H24 H -0.1130 0.0454 0.1813
C41 C 0.2558(3) -0.01780(11) 0.18860(5)
C42 C 0.2912(3) -0.03212(11) 0.16768(5)
H25 H 0.2597 -0.0384 0.1527
C43 C 0.3737(3) -0.03701(11) 0.16915(5)
H26 H 0.3974 -0.0466 0.1552
C44 C 0.4209(3) -0.02757(11) 0.19155(5)
C45 C 0.3854(3) -0.01325(11) 0.21247(5)
H27 H 0.4170 -0.0069 0.2275
C46 C 0.3029(3) -0.00836(11) 0.21099(5)
H28 H 0.2792 0.0012 0.2250
C47 C 0.5144(3) -0.03001(11) 0.19121(5)
C48 C 0.5460(3) -0.02135(11) 0.16878(5)
H29 H 0.5129 -0.0114 0.1548
C49 C 0.6272(3) -0.02760(11) 0.16726(5)
H30 H 0.6484 -0.0218 0.1523
C50 C 0.6767(3) -0.04251(11) 0.18818(5)
C51 C 0.6451(3) -0.05116(11) 0.21062(5)
H31 H 0.6782 -0.0611 0.2246
C52 C 0.5639(3) -0.04491(11) 0.21213(5)
H32 H 0.5427 -0.0507 0.2271
C53 C -0.2032(3) 0.17528(11) 0.14200(5)
H33 H -0.2327 0.1656 0.1547
C54 C -0.1910(3) 0.22172(11) 0.13830(5)
H34 H -0.2123 0.2431 0.1486
C55 C -0.1470(3) 0.23618(11) 0.11927(5)
C56 C -0.1152(3) 0.20421(11) 0.10393(5)
H35 H -0.0857 0.2139 0.0912
C57 C -0.1273(3) 0.15777(11) 0.10763(5)
H36 H -0.1060 0.1364 0.0974
C58 C -0.1593(3) 0.37810(11) 0.10091(5)
H37 H -0.2076 0.3624 0.0995
C59 C -0.0876(3) 0.35406(11) 0.10384(5)
C60 C -0.0154(3) 0.37755(11) 0.10597(5)
H38 H 0.0326 0.3615 0.1079
C61 C -0.0148(3) 0.42508(11) 0.10516(5)
H39 H 0.0335 0.4408 0.1066
C62 C -0.0865(3) 0.44912(11) 0.10223(5)
C63 C -0.1587(3) 0.42563(11) 0.10010(5)
H40 H -0.2067 0.4417 0.0981
C64 C -0.0712(15) 0.3017(11) 0.1049(7)
C65 C -0.1424(8) 0.5732(3) 0.11113(13)
H41 H -0.1854 0.5895 0.1161
C66 C -0.1458(8) 0.5258(3) 0.10946(13)
H42 H -0.1912 0.5103 0.1133
C67 C -0.0814(8) 0.5015(3) 0.10207(13)
C68 C -0.0135(8) 0.5246(3) 0.09635(13)
H43 H 0.0296 0.5083 0.0914
C69 C -0.0101(8) 0.5720(3) 0.09803(13)
H44 H 0.0353 0.5875 0.0942
C70 C -0.0745(8) 0.5963(3) 0.10542(13)
C71 C -0.0738(10) 0.6463(7) 0.1013(4)
N1 N -0.1732(11) 0.1424(4) 0.1262(2)
N2 N -0.1358(12) 0.2830(5) 0.1175(2)
H45 H -0.1678 0.3013 0.1240
N3 N -0.5178(16) 0.0867(6) 0.2408(3)
N4 N -0.4747(15) -0.0182(5) 0.0036(3)
N5 N -0.1012(11) 0.0477(4) 0.1439(2)
N6 N 0.1288(12) -0.0060(4) 0.1652(2)
H46 H 0.1499 -0.0186 0.1529
N7 N 0.7997(9) -0.0581(3) 0.16574(17)
H47 H 0.7700 -0.0513 0.1521
N8 N 1.0098(9) -0.1065(3) 0.14733(17)
N9 N 1.5000 -0.1478(6) 0.2500
N10 N 1.0203(13) 0.0094(4) 0.0060(2)
N11 N 0.0028(5) 0.66111(19) 0.11362(10)
H48 H 0.0377 0.6403 0.1180
C72 C 0.1152(5) 0.76216(19) 0.14244(10)
H49 H 0.1582 0.7677 0.1545
C73 C 0.0898(5) 0.71756(19) 0.13732(10)
H50 H 0.1157 0.6933 0.1460
C74 C 0.0256(5) 0.70926(19) 0.11924(10)
C75 C -0.0132(5) 0.74557(19) 0.10629(10)
H51 H -0.0561 0.7400 0.0942
C76 C 0.0123(5) 0.79017(19) 0.11142(10)
H52 H -0.0137 0.8145 0.1028
N12 N 0.0764(5) 0.79846(19) 0.12949(10)
O1 O 0.8233(11) -0.0537(5) 0.2086(2)
O2 O 0.1461(11) 0.0024(4) 0.20749(19)
O3 O -0.2721(11) -0.0090(4) 0.1146(3)
O4 O -0.2421(10) 0.0597(4) 0.09821(18)
O5 O -0.3569(8) 0.1088(3) 0.13710(16)
O6 O -0.2692(11) 0.0777(4) 0.15966(18)
O7 O 1.2525(8) -0.1657(3) 0.14249(17)
O8 O 1.1820(11) -0.1339(3) 0.16824(17)
O9 O 1.1114(8) -0.1125(3) 0.10238(14)
O10 O 1.1604(9) -0.0475(3) 0.11884(15)
O11 O -0.0127(14) 0.2856(6) 0.0956(3)
O12 O -0.1553(11) 0.6675(4) 0.1049(2)
Zn1 Zn 1.10967(15) -0.13605(5) 0.13635(3)
Zn2 Zn -0.20483(15) 0.07760(5) 0.13160(3)
C1A C -0.6658(19) 0.0921(6) 0.3461(4)
C2A C -0.6243(15) 0.0919(5) 0.3193(3)
C3A C -0.5414(10) 0.1014(3) 0.32364(17)
H1A H -0.5174 0.1089 0.3396
C4A C -0.4973(10) 0.0989(3) 0.30320(17)
H2A H -0.4429 0.1054 0.3053
C5A C -0.5346(10) 0.0868(3) 0.27966(17)
C6A C -0.6159(10) 0.0771(3) 0.27656(17)
H3A H -0.6408 0.0690 0.2608
C7A C -0.6600(10) 0.0795(3) 0.29701(17)
H4A H -0.7144 0.0730 0.2949
N3A N -0.4822(16) 0.0867(6) 0.2592(3)
O5A O -0.6431(8) 0.1088(3) 0.36290(16)
O6A O -0.7308(11) 0.0777(4) 0.34034(18)
C8D C -0.7214(14) -0.0186(5) -0.0963(3)
C9D C -0.6749(16) -0.0091(7) -0.0713(3)
C10D C -0.6453(7) -0.0455(3) -0.05570(13)
H5D H -0.6611 -0.0753 -0.0598
C11D C -0.5926(7) -0.0373(3) -0.03431(13)
H6D H -0.5742 -0.0614 -0.0239
C12D C -0.5674(7) 0.0071(3) -0.02841(13)
C13D C -0.5949(7) 0.0432(3) -0.04390(13)
H7D H -0.5780 0.0729 -0.0400
C14D C -0.6476(7) 0.0350(3) -0.06529(13)
H8D H -0.6660 0.0592 -0.0757
N4D N -0.5253(15) 0.0182(5) -0.0036(3)
O3D O -0.7279(11) 0.0090(4) -0.1146(3)
O4D O -0.7579(10) -0.0597(4) -0.09821(18)
C15D C 0.8673(15) 0.0699(5) -0.1012(2)
C16D C 0.8950(14) 0.0534(5) -0.0750(3)
C17D C 0.8756(7) 0.0074(3) -0.07126(13)
H9D H 0.8454 -0.0090 -0.0838
C18D C 0.9023(7) -0.0132(3) -0.04846(13)
H10D H 0.8909 -0.0438 -0.0458
C19D C 0.9461(7) 0.0120(3) -0.02968(13)
C20D C 0.9632(7) 0.0578(3) -0.03370(13)
H11D H 0.9925 0.0747 -0.0211
C21D C 0.9365(7) 0.0784(3) -0.05650(13)
H12D H 0.9479 0.1090 -0.0592
N10D N 0.9797(13) -0.0094(4) -0.0060(2)
O9D O 0.8886(8) 0.1125(3) -0.10238(14)
O10D O 0.8396(9) 0.0475(3) -0.11884(15)
C22A C 1.7525(17) -0.1495(6) 0.3384(4)
C23A C 1.6885(15) -0.1492(5) 0.3150(3)
C24A C 1.7116(9) -0.1367(3) 0.29277(17)
H13A H 1.7641 -0.1284 0.2911
C25A C 1.6529(9) -0.1369(3) 0.27235(17)
H14A H 1.6658 -0.1288 0.2565
C26A C 1.5749(9) -0.1490(3) 0.27564(17)
C27A C 1.5556(9) -0.1610(3) 0.29936(17)
H15A H 1.5034 -0.1692 0.3016
C28A C 1.6143(9) -0.1609(3) 0.31978(17)
H16A H 1.6014 -0.1689 0.3357
O7A O 1.7475(8) -0.1657(3) 0.35751(17)
O8A O 1.8180(11) -0.1339(3) 0.33176(17)
C29A C -1.7593(14) -0.0481(5) 0.3112(2)
C30A C -1.9510(7) -0.0922(2) 0.37063(12)
H17A H -1.9591 -0.0935 0.3875
C31A C -1.8790(7) -0.0756(2) 0.36380(12)
H18A H -1.8395 -0.0656 0.3761
C32A C -1.8663(7) -0.0739(2) 0.33860(12)
C33A C -1.9254(7) -0.0888(2) 0.32023(12)
H19A H -1.9169 -0.0877 0.3034
C34A C -1.9973(7) -0.1054(2) 0.32706(12)
H20A H -2.0369 -0.1154 0.3148
C35A C -1.1754(14) -0.0065(5) 0.3111(2)
C36A C -0.9509(3) 0.03914(11) 0.37366(5)
H21A H -0.9355 0.0451 0.3906
C37A C -1.0266(3) 0.02164(11) 0.36615(5)
H22A H -1.0616 0.0157 0.3780
C38A C -1.0500(3) 0.01305(11) 0.34086(5)
C39A C -0.9977(3) 0.02194(11) 0.32309(5)
H23A H -1.0133 0.0162 0.3062
C40A C -0.9220(3) 0.03943(11) 0.33060(5)
H24A H -0.8870 0.0454 0.3187
C41A C -1.2558(3) -0.01780(11) 0.31140(5)
C42A C -1.2912(3) -0.03212(11) 0.33232(5)
H25A H -1.2597 -0.0384 0.3473
C43A C -1.3737(3) -0.03701(11) 0.33085(5)
H26A H -1.3974 -0.0466 0.3448
C44A C -1.4209(3) -0.02757(11) 0.30845(5)
C45A C -1.3854(3) -0.01325(11) 0.28753(5)
H27A H -1.4170 -0.0069 0.2725
C46A C -1.3029(3) -0.00836(11) 0.28901(5)
H28A H -1.2792 0.0012 0.2750
C47A C -1.5144(3) -0.03001(11) 0.30879(5)
C48A C -1.5460(3) -0.02135(11) 0.33122(5)
H29A H -1.5129 -0.0114 0.3452
C49A C -1.6272(3) -0.02760(11) 0.33274(5)
H30A H -1.6484 -0.0218 0.3477
C50A C -1.6767(3) -0.04251(11) 0.31182(5)
C51A C -1.6451(3) -0.05116(11) 0.28938(5)
H31A H -1.6782 -0.0611 0.2754
C52A C -1.5639(3) -0.04491(11) 0.28787(5)
H32A H -1.5427 -0.0507 0.2729
C53A C -0.7968(3) 0.17528(11) 0.35800(5)
H33A H -0.7673 0.1656 0.3453
C54A C -0.8090(3) 0.22172(11) 0.36170(5)
H34A H -0.7877 0.2431 0.3514
C55A C -0.8530(3) 0.23618(11) 0.38073(5)
C56A C -0.8848(3) 0.20421(11) 0.39607(5)
H35A H -0.9143 0.2139 0.4088
C57A C -0.8727(3) 0.15777(11) 0.39237(5)
H36A H -0.8940 0.1364 0.4026
C58A C -0.8407(3) 0.37810(11) 0.39909(5)
H37A H -0.7924 0.3624 0.4005
C59A C -0.9124(3) 0.35406(11) 0.39616(5)
C60A C -0.9846(3) 0.37755(11) 0.39403(5)
H38A H -1.0326 0.3615 0.3921
C61A C -0.9852(3) 0.42508(11) 0.39484(5)
H39A H -1.0335 0.4408 0.3934
C62A C -0.9135(3) 0.44912(11) 0.39777(5)
C63A C -0.8413(3) 0.42563(11) 0.39990(5)
H40A H -0.7933 0.4417 0.4019
C64A C -0.9288(15) 0.3017(11) 0.3951(7)
C65A C -0.8576(8) 0.5732(3) 0.38887(13)
H41A H -0.8146 0.5895 0.3839
C66A C -0.8542(8) 0.5258(3) 0.39054(13)
H42A H -0.8088 0.5103 0.3867
C67A C -0.9186(8) 0.5015(3) 0.39793(13)
C68A C -0.9865(8) 0.5246(3) 0.40365(13)
H43A H -1.0296 0.5083 0.4086
C69A C -0.9899(8) 0.5720(3) 0.40197(13)
H44A H -1.0353 0.5875 0.4058
C70A C -0.9255(8) 0.5963(3) 0.39458(13)
C71A C -0.9262(10) 0.6463(7) 0.3987(4)
N1A N -0.8268(11) 0.1424(4) 0.3738(2)
N2A N -0.8642(12) 0.2830(5) 0.3825(2)
H45A H -0.8322 0.3013 0.3760
N5A N -0.8988(11) 0.0477(4) 0.3561(2)
N6A N -1.1288(12) -0.0060(4) 0.3348(2)
H46A H -1.1499 -0.0186 0.3471
N7A N -1.7997(9) -0.0581(3) 0.33426(17)
H47A H -1.7700 -0.0513 0.3479
N8A N -2.0098(9) -0.1065(3) 0.35267(17)
N11A N -1.0028(5) 0.66111(19) 0.38638(10)
H48A H -1.0377 0.6403 0.3820
C72A C -1.1152(5) 0.76216(19) 0.35756(10)
H49A H -1.1582 0.7677 0.3455
C73A C -1.0898(5) 0.71756(19) 0.36268(10)
H50A H -1.1157 0.6933 0.3540
C74A C -1.0256(5) 0.70926(19) 0.38076(10)
C75A C -0.9868(5) 0.74557(19) 0.39371(10)
H51A H -0.9439 0.7400 0.4058
C76A C -1.0123(5) 0.79017(19) 0.38858(10)
H52A H -0.9863 0.8145 0.3972
N12A N -1.0764(5) 0.79846(19) 0.37051(10)
O1A O -1.8233(11) -0.0537(5) 0.2914(2)
O2A O -1.1461(11) 0.0024(4) 0.29251(19)
O11A O -0.9873(14) 0.2856(6) 0.4044(3)
O12A O -0.8447(11) 0.6675(4) 0.3951(2)
Zn1A Zn -2.10967(15) -0.13605(5) 0.36365(3)
Zn2A Zn -0.79517(15) 0.07760(5) 0.36840(3)
N12_2 N 1.0764(5) -0.20154(19) 0.12949(10)
N12A_2 N -2.0764(5) -0.20154(19) 0.37051(10)
O4A O -0.7579(10) 0.0597(4) 0.40179(18)
O7A_2 O -2.2525(8) -0.1657(3) 0.35751(17)
O8A_2 O -2.1820(11) -0.1339(3) 0.33176(17)
O9A O -2.1114(8) -0.1125(3) 0.39762(14)
Zn1_2 Zn 0.10967(15) 0.86395(5) 0.13635(3)
Zn1A_2 Zn -1.10967(15) 0.86395(5) 0.36365(3)
Zn1A_3 Zn 1.89033(15) -0.13605(5) 0.36365(3)
Zn1D Zn 0.89033(15) 0.13605(5) -0.13635(3)
Zn2D Zn -0.79517(15) -0.07760(5) -0.13160(3)
loop_
_geom_bond_atom_site_label_1
_geom_bond_atom_site_label_2
_geom_bond_site_symmetry_1
_geom_bond_site_symmetry_2
C1 C2 1_555 1_555
C2 C3 1_555 1_555
C3 H1 1_555 1_555
C4 C3 1_555 1_555
H2 C4 1_555 1_555
C5 C4 1_555 1_555
C6 C5 1_555 1_555
H3 C6 1_555 1_555
C7 C2 1_555 1_555
H4 C7 1_555 1_555
C8 C9 1_555 1_555
C9 C10 1_555 1_555
C10 H5 1_555 1_555
C11 C10 1_555 1_555
H6 C11 1_555 1_555
C12 C11 1_555 1_555
C13 C12 1_555 1_555
H7 C13 1_555 1_555
C14 C9 1_555 1_555
H8 C14 1_555 1_555
C15 C16 1_555 1_555
C16 C17 1_555 1_555
C17 H9 1_555 1_555
C18 C17 1_555 1_555
H10 C18 1_555 1_555
C19 C18 1_555 1_555
C20 C19 1_555 1_555
H11 C20 1_555 1_555
C21 C16 1_555 1_555
H12 C21 1_555 1_555
C22 C23 1_555 1_555
C23 C24 1_555 1_555
C24 H13 1_555 1_555
C25 C24 1_555 1_555
H14 C25 1_555 1_555
C26 C25 1_555 1_555
C27 C26 1_555 1_555
H15 C27 1_555 1_555
C28 C23 1_555 1_555
H16 C28 1_555 1_555
C29 C50 1_555 1_555
C30 H17 1_555 1_555
C31 C30 1_555 1_555
H18 C31 1_555 1_555
C32 C31 1_555 1_555
C33 C32 1_555 1_555
H19 C33 1_555 1_555
C34 C33 1_555 1_555
H20 C34 1_555 1_555
C35 C41 1_555 1_555
C36 H21 1_555 1_555
C37 C36 1_555 1_555
H22 C37 1_555 1_555
C38 C37 1_555 1_555
C39 C38 1_555 1_555
H23 C39 1_555 1_555
C40 C39 1_555 1_555
H24 C40 1_555 1_555
C41 C42 1_555 1_555
C42 H25 1_555 1_555
C43 C42 1_555 1_555
H26 C43 1_555 1_555
C44 C43 1_555 1_555
C45 C44 1_555 1_555
H27 C45 1_555 1_555
C46 C41 1_555 1_555
H28 C46 1_555 1_555
C47 C44 1_555 1_555
C48 C47 1_555 1_555
H29 C48 1_555 1_555
C49 C48 1_555 1_555
H30 C49 1_555 1_555
C50 C49 1_555 1_555
C51 C50 1_555 1_555
H31 C51 1_555 1_555
C52 C47 1_555 1_555
H32 C52 1_555 1_555
C53 H33 1_555 1_555
C54 C53 1_555 1_555
H34 C54 1_555 1_555
C55 C54 1_555 1_555
C56 C55 1_555 1_555
H35 C56 1_555 1_555
C57 C56 1_555 1_555
H36 C57 1_555 1_555
C58 H37 1_555 1_555
C59 C58 1_555 1_555
C60 C59 1_555 1_555
H38 C60 1_555 1_555
C61 C60 1_555 1_555
H39 C61 1_555 1_555
C62 C61 1_555 1_555
C63 C58 1_555 1_555
H40 C63 1_555 1_555
C64 C59 1_555 1_555
C65 H41 1_555 1_555
C66 C65 1_555 1_555
H42 C66 1_555 1_555
C67 C62 1_555 1_555
C68 C67 1_555 1_555
H43 C68 1_555 1_555
C69 C68 1_555 1_555
H44 C69 1_555 1_555
C70 C65 1_555 1_555
C71 C70 1_555 1_555
N1 C53 1_555 1_555
N2 C55 1_555 1_555
H45 N2 1_555 1_555
N3 C5 1_555 1_555
N4 C12 1_555 1_555
N5 C36 1_555 1_555
N6 C35 1_555 1_555
H46 N6 1_555 1_555
N7 C29 1_555 1_555
H47 N7 1_555 1_555
N8 C30 1_555 1_555
N9 C26 1_555 1_555
N10 C19 1_555 1_555
N11 C71 1_555 1_555
H48 N11 1_555 1_555
C72 H49 1_555 1_555
C73 C72 1_555 1_555
H50 C73 1_555 1_555
C74 N11 1_555 1_555
C75 C74 1_555 1_555
H51 C75 1_555 1_555
C76 C75 1_555 1_555
H52 C76 1_555 1_555
N12 C72 1_555 1_555
O1 C29 1_555 1_555
O2 C35 1_555 1_555
O3 C8 1_555 1_555
O4 C8 1_555 1_555
O5 C1 1_555 1_555
O6 C1 1_555 1_555
O7 C22 1_555 1_555
O8 C22 1_555 1_555
O9 C15 1_555 1_555
O10 C15 1_555 1_555
O11 C64 1_555 1_555
O12 C71 1_555 1_555
Zn1 N8 1_555 1_555
Zn2 N1 1_555 1_555
C1A C2A 1_555 1_555
C2A C3A 1_555 1_555
C3A H1A 1_555 1_555
C4A C3A 1_555 1_555
H2A C4A 1_555 1_555
C5A C4A 1_555 1_555
C6A C5A 1_555 1_555
H3A C6A 1_555 1_555
C7A C2A 1_555 1_555
H4A C7A 1_555 1_555
N3A N3 1_555 1_555
O5A C1A 1_555 1_555
O6A C1A 1_555 1_555
C8D C9D 1_555 1_555
C9D C10D 1_555 1_555
C10D H5D 1_555 1_555
C11D C10D 1_555 1_555
H6D C11D 1_555 1_555
C12D C11D 1_555 1_555
C13D C12D 1_555 1_555
H7D C13D 1_555 1_555
C14D C9D 1_555 1_555
H8D C14D 1_555 1_555
N4D N4 1_555 1_555
O3D C8D 1_555 1_555
O4D C8D 1_555 1_555
C15D C16D 1_555 1_555
C16D C17D 1_555 1_555
C17D H9D 1_555 1_555
C18D C17D 1_555 1_555
H10D C18D 1_555 1_555
C19D C18D 1_555 1_555
C20D C19D 1_555 1_555
H11D C20D 1_555 1_555
C21D C16D 1_555 1_555
H12D C21D 1_555 1_555
N10D N10 1_555 1_555
O9D C15D 1_555 1_555
O10D C15D 1_555 1_555
C22A C23A 1_555 1_555
C23A C24A 1_555 1_555
C24A H13A 1_555 1_555
C25A C24A 1_555 1_555
H14A C25A 1_555 1_555
C26A N9 1_555 1_555
C27A C26A 1_555 1_555
H15A C27A 1_555 1_555
C28A C23A 1_555 1_555
H16A C28A 1_555 1_555
O7A C22A 1_555 1_555
O8A C22A 1_555 1_555
C29A C50A 1_555 1_555
C30A H17A 1_555 1_555
C31A C30A 1_555 1_555
H18A C31A 1_555 1_555
C32A C31A 1_555 1_555
C33A C32A 1_555 1_555
H19A C33A 1_555 1_555
C34A C33A 1_555 1_555
H20A C34A 1_555 1_555
C35A C41A 1_555 1_555
C36A H21A 1_555 1_555
C37A C36A 1_555 1_555
H22A C37A 1_555 1_555
C38A C37A 1_555 1_555
C39A C38A 1_555 1_555
H23A C39A 1_555 1_555
C40A C39A 1_555 1_555
H24A C40A 1_555 1_555
C41A C42A 1_555 1_555
C42A H25A 1_555 1_555
C43A C42A 1_555 1_555
H26A C43A 1_555 1_555
C44A C43A 1_555 1_555
C45A C44A 1_555 1_555
H27A C45A 1_555 1_555
C46A C41A 1_555 1_555
H28A C46A 1_555 1_555
C47A C44A 1_555 1_555
C48A C47A 1_555 1_555
H29A C48A 1_555 1_555
C49A C48A 1_555 1_555
H30A C49A 1_555 1_555
C50A C49A 1_555 1_555
C51A C50A 1_555 1_555
H31A C51A 1_555 1_555
C52A C47A 1_555 1_555
H32A C52A 1_555 1_555
C53A H33A 1_555 1_555
C54A C53A 1_555 1_555
H34A C54A 1_555 1_555
C55A C54A 1_555 1_555
C56A C55A 1_555 1_555
H35A C56A 1_555 1_555
C57A C56A 1_555 1_555
H36A C57A 1_555 1_555
C58A H37A 1_555 1_555
C59A C58A 1_555 1_555
C60A C59A 1_555 1_555
H38A C60A 1_555 1_555
C61A C60A 1_555 1_555
H39A C61A 1_555 1_555
C62A C61A 1_555 1_555
C63A C58A 1_555 1_555
H40A C63A 1_555 1_555
C64A C59A 1_555 1_555
C65A H41A 1_555 1_555
C66A C65A 1_555 1_555
H42A C66A 1_555 1_555
C67A C62A 1_555 1_555
C68A C67A 1_555 1_555
H43A C68A 1_555 1_555
C69A C68A 1_555 1_555
H44A C69A 1_555 1_555
C70A C65A 1_555 1_555
C71A C70A 1_555 1_555
N1A C53A 1_555 1_555
N2A C55A 1_555 1_555
H45A N2A 1_555 1_555
N5A C36A 1_555 1_555
N6A C35A 1_555 1_555
H46A N6A 1_555 1_555
N7A C29A 1_555 1_555
H47A N7A 1_555 1_555
N8A C30A 1_555 1_555
N11A C71A 1_555 1_555
H48A N11A 1_555 1_555
C72A H49A 1_555 1_555
C73A C72A 1_555 1_555
H50A C73A 1_555 1_555
C74A N11A 1_555 1_555
C75A C74A 1_555 1_555
H51A C75A 1_555 1_555
C76A C75A 1_555 1_555
H52A C76A 1_555 1_555
N12A C72A 1_555 1_555
O1A C29A 1_555 1_555
O2A C35A 1_555 1_555
O11A C64A 1_555 1_555
O12A C71A 1_555 1_555
Zn1A N8A 1_555 1_555
Zn2A O6A 1_555 1_555
N12_2 Zn1 1_555 1_555
N12A_2 Zn1A 1_555 1_555
O4A Zn2A 1_555 1_555
O7A_2 Zn1A 1_555 1_555
O8A_2 Zn1A 1_555 1_555
O9A Zn1A 1_555 1_555
Zn1_2 N12 1_555 1_555
Zn1A_2 N12A 1_555 1_555
Zn1A_3 O7A 1_555 1_555
Zn1D O9D 1_555 1_555
Zn2D O4D 1_555 1_555
C6 C7 1_555 1_555
C13 C14 1_555 1_555
C20 C21 1_555 1_555
C27 C28 1_555 1_555
C32 N7 1_555 1_555
C34 N8 1_555 1_555
C38 N6 1_555 1_555
C40 N5 1_555 1_555
C45 C46 1_555 1_555
C51 C52 1_555 1_555
C57 N1 1_555 1_555
C62 C63 1_555 1_555
C64 N2 1_555 1_555
C66 C67 1_555 1_555
C69 C70 1_555 1_555
N5 Zn2 1_555 1_555
C73 C74 1_555 1_555
C76 N12 1_555 1_555
O4 Zn2 1_555 1_555
O6 Zn2 1_555 1_555
O7 Zn1 1_555 1_555
O8 Zn1 1_555 1_555
O9 Zn1 1_555 1_555
C5A N3A 1_555 1_555
C6A C7A 1_555 1_555
C12D N4D 1_555 1_555
C13D C14D 1_555 1_555
C19D N10D 1_555 1_555
C20D C21D 1_555 1_555
C25A C26A 1_555 1_555
C27A C28A 1_555 1_555
O8A Zn1A_3 1_555 1_555
C32A N7A 1_555 1_555
C34A N8A 1_555 1_555
C38A N6A 1_555 1_555
C40A N5A 1_555 1_555
C45A C46A 1_555 1_555
C51A C52A 1_555 1_555
C57A N1A 1_555 1_555
C62A C63A 1_555 1_555
C64A N2A 1_555 1_555
C66A C67A 1_555 1_555
C69A C70A 1_555 1_555
N1A Zn2A 1_555 1_555
N5A Zn2A 1_555 1_555
C73A C74A 1_555 1_555
C76A N12A 1_555 1_555

#END
