
#######################################################################
#
#                 Cambridge Crystallographic Data Centre
#                                CCDC 
#
#######################################################################
#
# If this CIF has been generated from an entry in the Cambridge 
# Structural Database, then it will include bibliographic, chemical, 
# crystal, experimental, refinement or atomic coordinate data resulting 
# from the CCDC's data processing and validation procedures.
#
#######################################################################

data_DUSTOA11
_chemical_formula_moiety         'C4 Hg1 Li1 N4'
_symmetry_cell_setting           cubic
_symmetry_space_group_name_H-M   'F -4 3 m'
_symmetry_Int_Tables_number      216
_space_group_name_Hall           'F -4 2 3'
loop_
_symmetry_equiv_pos_site_id
_symmetry_equiv_pos_as_xyz
1 x,y,z
2 x,1/2+y,1/2+z
3 1/2+x,y,1/2+z
4 1/2+x,1/2+y,z
5 z,x,y
6 y,z,x
7 1/2+z,x,1/2+y
8 1/2+y,1/2+z,x
9 1/2+z,1/2+x,y
10 y,1/2+z,1/2+x
11 z,1/2+x,1/2+y
12 1/2+y,z,1/2+x
13 -y,x,-z
14 1/2-y,x,1/2-z
15 -y,1/2+x,1/2-z
16 1/2-y,1/2+x,-z
17 -x,z,-y
18 -z,y,-x
19 -x,1/2+z,1/2-y
20 1/2-z,1/2+y,-x
21 1/2-x,1/2+z,-y
22 1/2-z,y,1/2-x
23 1/2-x,z,1/2-y
24 -z,1/2+y,1/2-x
25 x,-y,-z
26 x,1/2-y,1/2-z
27 1/2+x,-y,1/2-z
28 1/2+x,1/2-y,-z
29 z,-x,-y
30 y,-z,-x
31 1/2+z,-x,1/2-y
32 1/2+y,1/2-z,-x
33 1/2+z,1/2-x,-y
34 y,1/2-z,1/2-x
35 z,1/2-x,1/2-y
36 1/2+y,-z,1/2-x
37 -y,-x,z
38 1/2-y,-x,1/2+z
39 -y,1/2-x,1/2+z
40 1/2-y,1/2-x,z
41 -x,-z,y
42 -z,-y,x
43 -x,1/2-z,1/2+y
44 1/2-z,1/2-y,x
45 1/2-x,1/2-z,y
46 1/2-z,-y,1/2+x
47 1/2-x,-z,1/2+y
48 -z,1/2-y,1/2+x
49 -x,y,-z
50 -x,1/2+y,1/2-z
51 1/2-x,y,1/2-z
52 1/2-x,1/2+y,-z
53 -z,x,-y
54 -y,z,-x
55 1/2-z,x,1/2-y
56 1/2-y,1/2+z,-x
57 1/2-z,1/2+x,-y
58 -y,1/2+z,1/2-x
59 -z,1/2+x,1/2-y
60 1/2-y,z,1/2-x
61 y,x,z
62 1/2+y,x,1/2+z
63 y,1/2+x,1/2+z
64 1/2+y,1/2+x,z
65 x,z,y
66 z,y,x
67 x,1/2+z,1/2+y
68 1/2+z,1/2+y,x
69 1/2+x,1/2+z,y
70 1/2+z,y,1/2+x
71 1/2+x,z,1/2+y
72 z,1/2+y,1/2+x
73 -x,-y,z
74 -x,1/2-y,1/2+z
75 1/2-x,-y,1/2+z
76 1/2-x,1/2-y,z
77 -z,-x,y
78 -y,-z,x
79 1/2-z,-x,1/2+y
80 1/2-y,1/2-z,x
81 1/2-z,1/2-x,y
82 -y,1/2-z,1/2+x
83 -z,1/2-x,1/2+y
84 1/2-y,-z,1/2+x
85 y,-x,-z
86 1/2+y,-x,1/2-z
87 y,1/2-x,1/2-z
88 1/2+y,1/2-x,-z
89 x,-z,-y
90 z,-y,-x
91 x,1/2-z,1/2-y
92 1/2+z,1/2-y,-x
93 1/2+x,1/2-z,-y
94 1/2+z,-y,1/2-x
95 1/2+x,-z,1/2-y
96 z,1/2-y,1/2-x
_cell_length_a                   12.112(2)
_cell_length_b                   12.112(2)
_cell_length_c                   12.112(2)
_cell_angle_alpha                90
_cell_angle_beta                 90
_cell_angle_gamma                90
_cell_volume                     1776.84
loop_
_atom_site_label
_atom_site_type_symbol
_atom_site_fract_x
_atom_site_fract_y
_atom_site_fract_z
Hg1 Hg 0.0000 0.0000 0.0000
Li1 Li -0.25 -0.25 -0.25
C1 C -0.1034(6) -0.1034(6) -0.1034(6)
N1 N -0.1548(7) -0.1548(7) -0.1548(7)
C1L C 0.1034(6) -0.1034(6) 0.1034(6)
C1X C -0.1034(6) 0.1034(6) 0.1034(6)
C1JA C 0.1034(6) 0.1034(6) -0.1034(6)
N1M N -0.3452(7) -0.1548(7) -0.3452(7)
N1Y N -0.1548(7) -0.3452(7) -0.3452(7)
N1MA N -0.3452(7) -0.3452(7) -0.1548(7)
loop_
_geom_bond_atom_site_label_1
_geom_bond_atom_site_label_2
_geom_bond_site_symmetry_1
_geom_bond_site_symmetry_2
Hg1 C1 1_555 1_555
Li1 N1 1_555 1_555
C1 N1 1_555 1_555
C1L Hg1 1_555 1_555
C1X Hg1 1_555 1_555
C1JA Hg1 1_555 1_555
N1M Li1 1_555 1_555
N1Y Li1 1_555 1_555
N1MA Li1 1_555 1_555

#END
