
#######################################################################
#
#                 Cambridge Crystallographic Data Centre
#                                CCDC 
#
#######################################################################
#
# If this CIF has been generated from an entry in the Cambridge 
# Structural Database, then it will include bibliographic, chemical, 
# crystal, experimental, refinement or atomic coordinate data resulting 
# from the CCDC's data processing and validation procedures.
#
#######################################################################

data_EMAMOW
_chemical_formula_moiety         '(C36 H42 N4 Ni2 O15)n'
_symmetry_cell_setting           monoclinic
_symmetry_space_group_name_H-M   'C 2/c'
_symmetry_Int_Tables_number      15
_space_group_name_Hall           '-C 2yc'
loop_
_symmetry_equiv_pos_site_id
_symmetry_equiv_pos_as_xyz
1 x,y,z
2 -x,y,1/2-z
3 1/2+x,1/2+y,z
4 1/2-x,1/2+y,1/2-z
5 -x,-y,-z
6 x,-y,1/2+z
7 1/2-x,1/2-y,-z
8 1/2+x,1/2-y,1/2+z
_cell_length_a                   37.060(5)
_cell_length_b                   13.328(5)
_cell_length_c                   9.373(5)
_cell_angle_alpha                90
_cell_angle_beta                 102.153(5)
_cell_angle_gamma                90
_cell_volume                     4525.9
loop_
_atom_site_label
_atom_site_type_symbol
_atom_site_fract_x
_atom_site_fract_y
_atom_site_fract_z
_atom_site_U_iso_or_equiv
_atom_site_thermal_displace_type
Ni1 Ni 0.86212(2) 0.21647(5) 0.16563(7) 0.0285 Uani
O1 O 0.89384(10) 0.2058(3) 0.3771(4) 0.0400 Uani
H1 H 0.8902 0.2510 0.4483 0.0480 Uiso
H2 H 0.9116 0.1557 0.4002 0.0480 Uiso
O2 O 0.82072(10) 0.1286(3) 0.2199(4) 0.0419 Uani
O3 O 0.88734(10) 0.0836(3) 0.1112(5) 0.0425 Uani
H3 H 0.8809 0.0578 0.0170 0.0510 Uiso
H4 H 0.9049 0.0509 0.1813 0.0510 Uiso
O4 O 0.66651(10) -0.1624(3) 0.2842(4) 0.0395 Uani
O5 O 0.85203(11) 0.0563(3) 0.4249(5) 0.0504 Uani
N1 N 0.83158(12) 0.2243(3) -0.0451(5) 0.0323 Uani
O6 O 0.64046(12) -0.1367(4) 0.0509(5) 0.0595 Uani
N2 N 0.90326(12) 0.3086(4) 0.1119(6) 0.0414 Uani
C1 C 0.77385(15) 0.2545(4) -0.2083(6) 0.0301 Uani
H5 H 0.7490 0.2706 -0.2204 0.0360 Uiso
C2 C 0.79562(14) 0.2471(4) -0.0716(6) 0.0323 Uani
H6 H 0.7848 0.2587 0.0078 0.0380 Uiso
C3 C 0.72616(15) -0.0429(4) 0.2536(7) 0.0372 Uani
H7 H 0.7258 -0.0725 0.3432 0.0450 Uiso
C4 C 0.69654(16) -0.0547(4) 0.1486(7) 0.0423 Uani
H8 H 0.6952 -0.0197 0.0619 0.0510 Uiso
C5 C 0.82650(16) 0.2150(5) -0.3022(7) 0.0449 Uani
H9 H 0.8382 0.2045 -0.3797 0.0530 Uiso
C6 C 0.75888(15) 0.0118(4) 0.2417(7) 0.0386 Uani
H10 H 0.7584 0.0474 0.1561 0.0460 Uiso
C7 C 0.78928(16) 0.0150(4) 0.3426(7) 0.0391 Uani
H11 H 0.7897 -0.0194 0.4292 0.0470 Uiso
C8 C 0.76786(15) 0.2433(4) -0.4812(6) 0.0376 Uani
H12 H 0.7808 0.2367 -0.5557 0.0450 Uiso
C9 C 0.78930(15) 0.2378(4) -0.3295(6) 0.0342 Uani
C10 C 0.66524(15) -0.1215(4) 0.1623(6) 0.0361 Uani
C11 C 0.82317(15) 0.0704(4) 0.3272(6) 0.0340 Uani
C12 C 0.84620(15) 0.2079(5) -0.1622(6) 0.0414 Uani
H13 H 0.8710 0.1908 -0.1473 0.0500 Uiso
C13 C 0.96460(18) 0.3387(7) 0.0850(9) 0.0696 Uani
H14 H 0.9883 0.3137 0.0905 0.0830 Uiso
C14 C 0.93739(17) 0.2777(5) 0.1203(8) 0.0537 Uani
H15 H 0.9435 0.2124 0.1510 0.0640 Uiso
C15 C 0.9563(2) 0.4379(6) 0.0412(10) 0.0716 Uani
C16 C 0.9831(2) 0.5087(7) -0.0012(12) 0.0910 Uani
H16 H 0.9743 0.5720 -0.0325 0.1090 Uiso
C17 C 0.9214(2) 0.4672(6) 0.0339(13) 0.0978 Uani
H17 H 0.9143 0.5320 0.0038 0.1180 Uiso
C18 C 0.89603(19) 0.4026(6) 0.0703(10) 0.0781 Uani
H18 H 0.8722 0.4263 0.0655 0.0940 Uiso
N1F N 0.66842(12) 0.2757(3) -0.9549(5) 0.0323 Uani
C1F C 0.72615(15) 0.2455(4) -0.7917(6) 0.0301 Uani
H5F H 0.7510 0.2294 -0.7796 0.0360 Uiso
C2F C 0.70438(14) 0.2529(4) -0.9284(6) 0.0323 Uani
H6F H 0.7152 0.2413 -1.0078 0.0380 Uiso
C5F C 0.67350(16) 0.2850(5) -0.6978(7) 0.0449 Uani
H9F H 0.6618 0.2955 -0.6203 0.0530 Uiso
C8F C 0.73214(15) 0.2567(4) -0.5188(6) 0.0376 Uani
H12F H 0.7192 0.2633 -0.4443 0.0450 Uiso
C9F C 0.71070(15) 0.2622(4) -0.6705(6) 0.0342 Uani
C12F C 0.65380(15) 0.2921(5) -0.8378(6) 0.0414 Uani
H13F H 0.6290 0.3092 -0.8527 0.0500 Uiso
N2D N 1.09674(12) 0.6914(4) -0.1119(6) 0.0414 Uani
C13D C 1.03540(18) 0.6613(7) -0.0850(9) 0.0696 Uani
H14D H 1.0117 0.6863 -0.0905 0.0830 Uiso
C14D C 1.06261(17) 0.7223(5) -0.1203(8) 0.0537 Uani
H15D H 1.0565 0.7876 -0.1510 0.0640 Uiso
C15D C 1.0437(2) 0.5621(6) -0.0412(10) 0.0716 Uani
C16D C 1.0169(2) 0.4913(7) 0.0012(12) 0.0910 Uani
H16D H 1.0257 0.4280 0.0325 0.1090 Uiso
C17D C 1.0786(2) 0.5328(6) -0.0339(13) 0.0978 Uani
H17D H 1.0857 0.4680 -0.0038 0.1180 Uiso
C18D C 1.10397(19) 0.5974(6) -0.0703(10) 0.0781 Uani
H18D H 1.1278 0.5737 -0.0655 0.0940 Uiso
Ni1D Ni 1.13788(2) 0.78353(5) -0.16563(7) 0.0285 Uani
O1D O 1.10616(10) 0.7942(3) -0.3771(4) 0.0400 Uani
H1D H 1.1098 0.7490 -0.4483 0.0480 Uiso
H2D H 1.0884 0.8443 -0.4002 0.0480 Uiso
O2D O 1.17928(10) 0.8714(3) -0.2199(4) 0.0419 Uani
O3D O 1.11266(10) 0.9164(3) -0.1112(5) 0.0425 Uani
H3D H 1.1191 0.9422 -0.0170 0.0510 Uiso
H4D H 1.0951 0.9491 -0.1813 0.0510 Uiso
O4D O 1.33349(10) 1.1624(3) -0.2842(4) 0.0395 Uani
O5D O 1.14797(11) 0.9437(3) -0.4249(5) 0.0504 Uani
O6D O 1.35954(12) 1.1367(4) -0.0509(5) 0.0595 Uani
C3D C 1.27384(15) 1.0429(4) -0.2536(7) 0.0372 Uani
H7D H 1.2742 1.0725 -0.3432 0.0450 Uiso
C4D C 1.30346(16) 1.0547(4) -0.1486(7) 0.0423 Uani
H8D H 1.3048 1.0197 -0.0619 0.0510 Uiso
C6D C 1.24112(15) 0.9882(4) -0.2417(7) 0.0386 Uani
H10D H 1.2416 0.9526 -0.1561 0.0460 Uiso
C7D C 1.21072(16) 0.9850(4) -0.3426(7) 0.0391 Uani
H11D H 1.2103 1.0194 -0.4292 0.0470 Uiso
C10D C 1.33476(15) 1.1215(4) -0.1623(6) 0.0361 Uani
C11D C 1.17683(15) 0.9296(4) -0.3272(6) 0.0340 Uani
Ni1C Ni 0.63788(2) -0.28353(5) 0.33437(7) 0.0285 Uani
Ni1F Ni 0.63788(2) 0.28353(5) -1.16563(7) 0.0285 Uani
Ni1G Ni 1.36212(2) 1.28353(5) -0.33437(7) 0.0285 Uani
O4C O 0.83349(10) 0.3376(3) 0.2158(4) 0.0395 Uani
O4G O 1.16651(10) 0.6624(3) -0.2158(4) 0.0395 Uani
N1D N 1.16842(12) 0.7757(3) 0.0451(5) 0.0323 Uani
O7 O 0.9276(2) 0.0422(7) 0.8380(11) 0.1545 Uani
O8 O 1.0312(3) 0.1716(11) 1.0157(14) 0.2130 Uiso
O9 O 1.0000 0.059(4) 1.2500 0.5500 Uiso
loop_
_atom_site_aniso_label
_atom_site_aniso_U_11
_atom_site_aniso_U_22
_atom_site_aniso_U_33
_atom_site_aniso_U_23
_atom_site_aniso_U_13
_atom_site_aniso_U_12
Ni1 0.0229(4) 0.0315(4) 0.0305(4) 0.0028(3) 0.0045(3) -0.0020(3)
O1 0.035(2) 0.045(2) 0.037(2) 0.0023(18) 0.0010(18) 0.0011(17)
O2 0.035(2) 0.050(2) 0.040(2) 0.015(2) 0.0063(18) -0.0102(18)
O3 0.037(2) 0.041(2) 0.046(3) -0.0062(19) 0.0007(18) 0.0042(18)
O4 0.036 0.045 0.037 0.0037 0.0065 -0.0092
O5 0.049(3) 0.047(3) 0.051(3) 0.018(2) 0.001(2) -0.009(2)
N1 0.030(2) 0.036(3) 0.031(3) 0.004(2) 0.0067(19) -0.0010(19)
O6 0.054 0.065 0.052 0.017 -0.006 -0.01
N2 0.030(3) 0.047(3) 0.048(3) 0.009(2) 0.010(2) -0.008(2)
C1 0.031(3) 0.031(3) 0.027(3) 0.002(2) 0.003(2) 0.001(2)
C2 0.031(3) 0.037(3) 0.031(3) -0.001(2) 0.011(2) -0.002(2)
C3 0.037 0.032 0.047 0.002 0.019 0
C4 0.046 0.037 0.045 0.013 0.012 -0.002
C5 0.036(3) 0.070(4) 0.030(3) 0.000(3) 0.010(3) 0.005(3)
C6 0.040(3) 0.029(3) 0.051(4) 0.004(3) 0.019(3) 0.002(2)
C7 0.045(3) 0.032(3) 0.045(4) 0.008(3) 0.020(3) -0.001(3)
C8 0.046(3) 0.040(3) 0.027(3) 0.003(2) 0.008(3) 0.000(3)
C9 0.038(3) 0.032(3) 0.032(3) 0.002(2) 0.006(2) -0.002(2)
C10 0.034 0.035 0.037 0.006 0.002 0.002
C11 0.035(3) 0.034(3) 0.033(3) 0.003(2) 0.007(3) -0.004(2)
C12 0.026(3) 0.067(4) 0.032(3) 0.003(3) 0.008(2) 0.003(3)
C13 0.029(3) 0.093(6) 0.087(6) 0.010(5) 0.013(4) -0.008(4)
C14 0.034(3) 0.056(4) 0.072(5) 0.015(3) 0.013(3) -0.005(3)
C15 0.054(5) 0.061(5) 0.101(7) 0.022(4) 0.019(4) -0.017(4)
C16 0.052(4) 0.089(6) 0.134(9) 0.038(6) 0.024(6) -0.004(4)
C17 0.048(5) 0.065(5) 0.185(11) 0.053(6) 0.035(6) 0.004(4)
C18 0.039(4) 0.058(5) 0.142(8) 0.045(5) 0.030(4) -0.001(3)
N1F 0.03 0.036 0.031 0.004 0.0067 -0.001
C1F 0.031 0.031 0.027 0.002 0.003 0.001
C2F 0.031 0.037 0.031 -0.001 0.011 -0.002
C5F 0.036 0.07 0.03 0 0.01 0.005
C8F 0.046 0.04 0.027 0.003 0.008 0
C9F 0.038 0.032 0.032 0.002 0.006 -0.002
C12F 0.026 0.067 0.032 0.003 0.008 0.003
N2D 0.03 0.047 0.048 0.009 0.01 -0.008
C13D 0.029 0.093 0.087 0.01 0.013 -0.008
C14D 0.034 0.056 0.072 0.015 0.013 -0.005
C15D 0.054 0.061 0.101 0.022 0.019 -0.017
C16D 0.052 0.089 0.134 0.038 0.024 -0.004
C17D 0.048 0.065 0.185 0.053 0.035 0.004
C18D 0.039 0.058 0.142 0.045 0.03 -0.001
Ni1D 0.0229 0.0315 0.0305 0.0028 0.0045 -0.002
O1D 0.035 0.045 0.037 0.0023 0.001 0.0011
O2D 0.035 0.05 0.04 0.015 0.0063 -0.0102
O3D 0.037 0.041 0.046 -0.0062 0.0007 0.0042
O4D 0.036 0.045 0.037 0.0037 0.0065 -0.0092
O5D 0.049 0.047 0.051 0.018 0.001 -0.009
O6D 0.054 0.065 0.052 0.017 -0.006 -0.01
C3D 0.037 0.032 0.047 0.002 0.019 0
C4D 0.046 0.037 0.045 0.013 0.012 -0.002
C6D 0.04 0.029 0.051 0.004 0.019 0.002
C7D 0.045 0.032 0.045 0.008 0.02 -0.001
C10D 0.034 0.035 0.037 0.006 0.002 0.002
C11D 0.035 0.034 0.033 0.003 0.007 -0.004
Ni1C 0.0229 0.0315 0.0305 -0.0028 0.0045 0.002
Ni1F 0.0229 0.0315 0.0305 0.0028 0.0045 -0.002
Ni1G 0.0229 0.0315 0.0305 -0.0028 0.0045 0.002
O4C 0.036 0.045 0.037 -0.0037 0.0065 0.0092
O4G 0.036 0.045 0.037 -0.0037 0.0065 0.0092
N1D 0.03 0.036 0.031 0.004 0.0067 -0.001
O7 0.135(7) 0.150(8) 0.166(9) -0.031(6) 0.003(6) -0.013(6)
loop_
_geom_bond_atom_site_label_1
_geom_bond_atom_site_label_2
_geom_bond_site_symmetry_1
_geom_bond_site_symmetry_2
Ni1 O1 1_555 1_555
O1 H1 1_555 1_555
H2 O1 1_555 1_555
O2 Ni1 1_555 1_555
O3 Ni1 1_555 1_555
H3 O3 1_555 1_555
H4 O3 1_555 1_555
O4 C10 1_555 1_555
O5 C11 1_555 1_555
N1 Ni1 1_555 1_555
O6 C10 1_555 1_555
N2 Ni1 1_555 1_555
C1 H5 1_555 1_555
C2 N1 1_555 1_555
H6 C2 1_555 1_555
C3 H7 1_555 1_555
C4 C3 1_555 1_555
H8 C4 1_555 1_555
C5 H9 1_555 1_555
C6 C3 1_555 1_555
H10 C6 1_555 1_555
C7 C6 1_555 1_555
H11 C7 1_555 1_555
C8 H12 1_555 1_555
C9 C1 1_555 1_555
C10 C4 1_555 1_555
C11 O2 1_555 1_555
C12 N1 1_555 1_555
H13 C12 1_555 1_555
C13 H14 1_555 1_555
C14 N2 1_555 1_555
H15 C14 1_555 1_555
C15 C13 1_555 1_555
C16 C15 1_555 1_555
H16 C16 1_555 1_555
C17 C15 1_555 1_555
H17 C17 1_555 1_555
C18 N2 1_555 1_555
H18 C18 1_555 1_555
N1F C2F 1_555 1_555
C1F H5F 1_555 1_555
C2F C1F 1_555 1_555
H6F C2F 1_555 1_555
C5F H9F 1_555 1_555
C8F C8 1_555 1_555
H12F C8F 1_555 1_555
C9F C1F 1_555 1_555
C12F N1F 1_555 1_555
H13F C12F 1_555 1_555
N2D C14D 1_555 1_555
C13D H14D 1_555 1_555
C14D C13D 1_555 1_555
H15D C14D 1_555 1_555
C15D C13D 1_555 1_555
C16D C16 1_555 1_555
H16D C16D 1_555 1_555
C17D C15D 1_555 1_555
H17D C17D 1_555 1_555
C18D N2D 1_555 1_555
H18D C18D 1_555 1_555
Ni1D N2D 1_555 1_555
O1D Ni1D 1_555 1_555
H1D O1D 1_555 1_555
H2D O1D 1_555 1_555
O2D Ni1D 1_555 1_555
O3D Ni1D 1_555 1_555
H3D O3D 1_555 1_555
H4D O3D 1_555 1_555
O4D C10D 1_555 1_555
O5D C11D 1_555 1_555
O6D C10D 1_555 1_555
C3D H7D 1_555 1_555
C4D C3D 1_555 1_555
H8D C4D 1_555 1_555
C6D C3D 1_555 1_555
H10D C6D 1_555 1_555
C7D C6D 1_555 1_555
H11D C7D 1_555 1_555
C10D C4D 1_555 1_555
C11D O2D 1_555 1_555
Ni1C O4 1_555 1_555
Ni1F N1F 1_555 1_555
Ni1G O4D 1_555 1_555
O4C Ni1 1_555 1_555
O4G Ni1D 1_555 1_555
N1D Ni1D 1_555 1_555
C1 C2 1_555 1_555
C5 C9 1_555 1_555
C5 C12 1_555 1_555
C7 C11 1_555 1_555
C8 C9 1_555 1_555
C13 C14 1_555 1_555
C17 C18 1_555 1_555
C5F C9F 1_555 1_555
C5F C12F 1_555 1_555
C8F C9F 1_555 1_555
C15D C16D 1_555 1_555
C17D C18D 1_555 1_555
C7D C11D 1_555 1_555

#END
