
#######################################################################
#
#                 Cambridge Crystallographic Data Centre
#                                CCDC 
#
#######################################################################
#
# If this CIF has been generated from an entry in the Cambridge 
# Structural Database, then it will include bibliographic, chemical, 
# crystal, experimental, refinement or atomic coordinate data resulting 
# from the CCDC's data processing and validation procedures.
#
#######################################################################

data_EMAMIQ
_chemical_formula_moiety         '(C36 H44 N4 Ni2 O14)n'
_symmetry_cell_setting           monoclinic
_symmetry_space_group_name_H-M   'C 2/c'
_symmetry_Int_Tables_number      15
_space_group_name_Hall           '-C 2yc'
loop_
_symmetry_equiv_pos_site_id
_symmetry_equiv_pos_as_xyz
1 x,y,z
2 -x,y,1/2-z
3 1/2+x,1/2+y,z
4 1/2-x,1/2+y,1/2-z
5 -x,-y,-z
6 x,-y,1/2+z
7 1/2-x,1/2-y,-z
8 1/2+x,1/2-y,1/2+z
_cell_length_a                   35.4247(12)
_cell_length_b                   13.9402(4)
_cell_length_c                   9.4516(3)
_cell_angle_alpha                90
_cell_angle_beta                 101.6930(10)
_cell_angle_gamma                90
_cell_volume                     4570.6
loop_
_atom_site_label
_atom_site_type_symbol
_atom_site_fract_x
_atom_site_fract_y
_atom_site_fract_z
_atom_site_U_iso_or_equiv
_atom_site_thermal_displace_type
Ni1 Ni 0.86393(2) 0.29426(3) 0.16183(5) 0.0298 Uani
O1 O 0.89808(9) 0.3056(2) 0.3700(3) 0.0446 Uani
H1 H 0.8949 0.2622 0.4414 0.0540 Uiso
H2 H 0.9164 0.3541 0.3910 0.0540 Uiso
O2 O 0.83504(8) 0.1771(2) 0.2158(3) 0.0427 Uani
O3 O 0.67963(8) -0.1219(2) 0.2854(3) 0.0434 Uani
O4 O 0.64795(10) -0.0569(2) 0.0799(4) 0.0539 Uani
O5 O 0.88972(9) 0.4219(2) 0.1054(4) 0.0478 Uani
H3 H 0.8832 0.4454 0.0115 0.0570 Uiso
H4 H 0.9076 0.4544 0.1744 0.0570 Uiso
O6 O 0.86808(11) 0.1406(3) 0.4347(4) 0.0680 Uani
N1 N 0.83260(9) 0.2834(2) -0.0482(3) 0.0326 Uani
N2 N 0.90699(10) 0.2071(3) 0.1066(4) 0.0430 Uani
C1 C 0.77402(11) 0.2457(3) -0.2124(4) 0.0364 Uani
H5 H 0.7486 0.2250 -0.2264 0.0440 Uiso
C2 C 0.71203(13) -0.0098(3) 0.1653(5) 0.0424 Uani
H6 H 0.7107 0.0276 0.0830 0.0510 Uiso
C3 C 0.79089(13) 0.2672(4) -0.3301(4) 0.0477 Uani
C4 C 0.77759(12) 0.0487(3) 0.2479(5) 0.0424 Uani
H7 H 0.7763 0.0810 0.1609 0.0510 Uiso
C5 C 0.79597(11) 0.2558(3) -0.0748(4) 0.0344 Uani
H8 H 0.7845 0.2426 0.0033 0.0410 Uiso
C6 C 0.80978(14) 0.0599(3) 0.3473(5) 0.0504 Uani
H9 H 0.8135 0.0219 0.4299 0.0610 Uiso
C7 C 0.74437(12) -0.0088(3) 0.2618(5) 0.0420 Uani
H10 H 0.7461 -0.0469 0.3436 0.0500 Uiso
C8 C 0.84003(12) 0.1306(3) 0.3313(5) 0.0422 Uani
C9 C 0.84847(13) 0.3029(4) -0.1617(5) 0.0477 Uani
H11 H 0.8741 0.3221 -0.1445 0.0570 Uiso
C10 C 0.67708(12) -0.0671(3) 0.1781(4) 0.0385 Uani
C11 C 0.82892(14) 0.2962(4) -0.3018(5) 0.0565 Uani
H12 H 0.8411 0.3111 -0.3773 0.0680 Uiso
C12 C 0.94263(13) 0.2373(4) 0.1120(7) 0.0612 Uani
H13 H 0.9491 0.2989 0.1460 0.0730 Uiso
C13 C 0.89883(16) 0.1180(4) 0.0595(7) 0.0672 Uani
H14 H 0.8742 0.0946 0.0580 0.0810 Uiso
C14 C 0.9245(2) 0.0591(5) 0.0135(10) 0.0974 Uani
H15 H 0.9173 -0.0029 -0.0171 0.1170 Uiso
C15 C 0.76836(17) 0.2651(8) -0.4849(6) 0.0991 Uani
H16 H 0.7686 0.3297 -0.5229 0.1190 Uiso
H17 H 0.7827 0.2252 -0.5397 0.1190 Uiso
C16 C 0.97063(18) 0.1819(6) 0.0698(10) 0.0926 Uani
H18 H 0.9957 0.2049 0.0797 0.1110 Uiso
C17 C 0.9609(2) 0.0912(6) 0.0123(11) 0.1011 Uani
C18 C 0.9904(3) 0.0315(8) -0.0561(11) 0.1166 Uani
H19 H 0.9771 -0.0052 -0.1384 0.1400 Uiso
H20 H 1.0089 0.0736 -0.0878 0.1400 Uiso
N1F N 0.66740(9) 0.2166(2) -0.9518(3) 0.0326 Uani
C1F C 0.72598(11) 0.2543(3) -0.7876(4) 0.0364 Uani
H5F H 0.7514 0.2750 -0.7736 0.0440 Uiso
C3F C 0.70911(13) 0.2328(4) -0.6699(4) 0.0477 Uani
C5F C 0.70403(11) 0.2442(3) -0.9252(4) 0.0344 Uani
H8F H 0.7155 0.2574 -1.0033 0.0410 Uiso
C9F C 0.65153(13) 0.1971(4) -0.8383(5) 0.0477 Uani
H11F H 0.6259 0.1779 -0.8555 0.0570 Uiso
C11F C 0.67108(14) 0.2038(4) -0.6982(5) 0.0565 Uani
H12F H 0.6589 0.1889 -0.6227 0.0680 Uiso
C15F C 0.73164(17) 0.2349(8) -0.5151(6) 0.0991 Uani
H16F H 0.7314 0.1703 -0.4771 0.1190 Uiso
H17F H 0.7173 0.2748 -0.4603 0.1190 Uiso
N2D N 1.09301(10) -0.2071(3) -0.1066(4) 0.0430 Uani
C12D C 1.05737(13) -0.2373(4) -0.1120(7) 0.0612 Uani
H13D H 1.0509 -0.2989 -0.1460 0.0730 Uiso
C13D C 1.10117(16) -0.1180(4) -0.0595(7) 0.0672 Uani
H14D H 1.1258 -0.0946 -0.0580 0.0810 Uiso
C14D C 1.0755(2) -0.0591(5) -0.0135(10) 0.0974 Uani
H15D H 1.0827 0.0029 0.0171 0.1170 Uiso
C16D C 1.02937(18) -0.1819(6) -0.0698(10) 0.0926 Uani
H18D H 1.0043 -0.2049 -0.0797 0.1110 Uiso
C17D C 1.0391(2) -0.0912(6) -0.0123(11) 0.1011 Uani
C18D C 1.0096(3) -0.0315(8) 0.0561(11) 0.1166 Uani
H19D H 1.0229 0.0052 0.1384 0.1400 Uiso
H20D H 0.9911 -0.0736 0.0878 0.1400 Uiso
Ni1D Ni 1.13607(2) -0.29426(3) -0.16183(5) 0.0298 Uani
O1D O 1.10192(9) -0.3056(2) -0.3700(3) 0.0446 Uani
H1D H 1.1051 -0.2622 -0.4414 0.0540 Uiso
H2D H 1.0836 -0.3541 -0.3910 0.0540 Uiso
O2D O 1.16496(8) -0.1771(2) -0.2158(3) 0.0427 Uani
O3D O 1.32037(8) 0.1219(2) -0.2854(3) 0.0434 Uani
O4D O 1.35205(10) 0.0569(2) -0.0799(4) 0.0539 Uani
O5D O 1.11028(9) -0.4219(2) -0.1054(4) 0.0478 Uani
H3D H 1.1168 -0.4454 -0.0115 0.0570 Uiso
H4D H 1.0924 -0.4544 -0.1744 0.0570 Uiso
O6D O 1.13192(11) -0.1406(3) -0.4347(4) 0.0680 Uani
C2D C 1.28797(13) 0.0098(3) -0.1653(5) 0.0424 Uani
H6D H 1.2893 -0.0276 -0.0830 0.0510 Uiso
C4D C 1.22241(12) -0.0487(3) -0.2479(5) 0.0424 Uani
H7D H 1.2237 -0.0810 -0.1609 0.0510 Uiso
C6D C 1.19022(14) -0.0599(3) -0.3473(5) 0.0504 Uani
H9D H 1.1865 -0.0219 -0.4299 0.0610 Uiso
C7D C 1.25563(12) 0.0088(3) -0.2618(5) 0.0420 Uani
H10D H 1.2539 0.0469 -0.3436 0.0500 Uiso
C8D C 1.15997(12) -0.1306(3) -0.3313(5) 0.0422 Uani
C10D C 1.32292(12) 0.0671(3) -0.1781(4) 0.0385 Uani
Ni1C Ni 0.63607(2) -0.20574(3) 0.33817(5) 0.0298 Uani
Ni1F Ni 0.63607(2) 0.20574(3) -1.16183(5) 0.0298 Uani
Ni1G Ni 1.36393(2) 0.20574(3) -0.33817(5) 0.0298 Uani
O3C O 0.82037(8) 0.3781(2) 0.2146(3) 0.0434 Uani
O3G O 1.17963(8) -0.3781(2) -0.2146(3) 0.0434 Uani
N1D N 1.16740(9) -0.2834(2) 0.0482(3) 0.0326 Uani
O7 O 0.9303(3) 0.5421(7) 0.3238(11) 0.1667 Uani
O8 O 0.9157(4) 0.1519(17) 0.6997(14) 0.3181 Uani
loop_
_atom_site_aniso_label
_atom_site_aniso_U_11
_atom_site_aniso_U_22
_atom_site_aniso_U_33
_atom_site_aniso_U_23
_atom_site_aniso_U_13
_atom_site_aniso_U_12
Ni1 0.0255(3) 0.0328(3) 0.0302(3) -0.00267(16) 0.00374(18) 0.00216(16)
O1 0.0389(15) 0.0525(17) 0.0379(15) -0.0029(12) -0.0032(12) 0.0008(12)
O2 0.0373(14) 0.0469(16) 0.0422(15) 0.0081(13) 0.0043(12) -0.0086(12)
O3 0.0376 0.0486 0.0433 0.0151 0.0065 -0.008
O4 0.0526 0.0526 0.052 0.02 -0.0003 -0.008
O5 0.0427(16) 0.0422(16) 0.0546(17) 0.0084(13) 0.0003(13) -0.0043(12)
O6 0.061(2) 0.070(2) 0.062(2) 0.0239(19) -0.0133(17) -0.0128(18)
N1 0.0294(14) 0.0394(16) 0.0285(14) -0.0029(11) 0.0050(11) 0.0025(12)
N2 0.0328(17) 0.0464(19) 0.049(2) -0.0069(14) 0.0062(15) 0.0066(13)
C1 0.0348(18) 0.043(2) 0.0302(17) -0.0033(15) 0.0038(14) -0.0015(15)
C2 0.049 0.0337 0.049 0.0089 0.0205 0.0009
C3 0.039(2) 0.076(3) 0.0273(18) -0.0038(19) 0.0046(15) 0.005(2)
C4 0.044(2) 0.0337(19) 0.053(2) 0.0061(17) 0.0182(18) -0.0006(16)
C5 0.0351(18) 0.0395(19) 0.0289(16) 0.0006(14) 0.0074(14) -0.0013(15)
C6 0.050(2) 0.046(2) 0.055(3) 0.0183(19) 0.010(2) -0.0011(19)
C7 0.046 0.0314 0.052 0.0065 0.0179 -0.0017
C8 0.038(2) 0.041(2) 0.046(2) 0.0079(17) 0.0044(16) 0.0030(16)
C9 0.0321(19) 0.075(3) 0.037(2) 0.0005(19) 0.0096(16) -0.0011(18)
C10 0.042 0.0337 0.041 0.005 0.0115 -0.0008
C11 0.043(2) 0.098(4) 0.031(2) 0.004(2) 0.0135(18) -0.003(2)
C12 0.035(2) 0.068(3) 0.081(4) -0.016(3) 0.013(2) 0.006(2)
C13 0.052(3) 0.049(3) 0.105(5) -0.025(3) 0.026(3) 0.002(2)
C14 0.076(4) 0.065(4) 0.160(8) -0.039(4) 0.045(5) 0.013(3)
C15 0.050(3) 0.218(9) 0.029(2) -0.014(4) 0.007(2) -0.016(4)
C16 0.041(3) 0.104(5) 0.137(7) -0.027(5) 0.028(4) 0.009(3)
C17 0.073(4) 0.088(5) 0.150(8) -0.026(5) 0.041(5) 0.029(4)
C18 0.111(7) 0.132(8) 0.115(7) 0.020(6) 0.042(5) 0.044(6)
N1F 0.0294 0.0394 0.0285 -0.0029 0.005 0.0025
C1F 0.0348 0.043 0.0302 -0.0033 0.0038 -0.0015
C3F 0.039 0.076 0.0273 -0.0038 0.0046 0.005
C5F 0.0351 0.0395 0.0289 0.0006 0.0074 -0.0013
C9F 0.0321 0.075 0.037 0.0005 0.0096 -0.0011
C11F 0.043 0.098 0.031 0.004 0.0135 -0.003
C15F 0.05 0.218 0.029 -0.014 0.007 -0.016
N2D 0.0328 0.0464 0.049 -0.0069 0.0062 0.0066
C12D 0.035 0.068 0.081 -0.016 0.013 0.006
C13D 0.052 0.049 0.105 -0.025 0.026 0.002
C14D 0.076 0.065 0.16 -0.039 0.045 0.013
C16D 0.041 0.104 0.137 -0.027 0.028 0.009
C17D 0.073 0.088 0.15 -0.026 0.041 0.029
C18D 0.111 0.132 0.115 0.02 0.042 0.044
Ni1D 0.0255 0.0328 0.0302 -0.00267 0.00374 0.00216
O1D 0.0389 0.0525 0.0379 -0.0029 -0.0032 0.0008
O2D 0.0373 0.0469 0.0422 0.0081 0.0043 -0.0086
O3D 0.0376 0.0486 0.0433 0.0151 0.0065 -0.008
O4D 0.0526 0.0526 0.052 0.02 -0.0003 -0.008
O5D 0.0427 0.0422 0.0546 0.0084 0.0003 -0.0043
O6D 0.061 0.07 0.062 0.0239 -0.0133 -0.0128
C2D 0.049 0.0337 0.049 0.0089 0.0205 0.0009
C4D 0.044 0.0337 0.053 0.0061 0.0182 -0.0006
C6D 0.05 0.046 0.055 0.0183 0.01 -0.0011
C7D 0.046 0.0314 0.052 0.0065 0.0179 -0.0017
C8D 0.038 0.041 0.046 0.0079 0.0044 0.003
C10D 0.042 0.0337 0.041 0.005 0.0115 -0.0008
Ni1C 0.0255 0.0328 0.0302 0.00267 0.00374 -0.00216
Ni1F 0.0255 0.0328 0.0302 -0.00267 0.00374 0.00216
Ni1G 0.0255 0.0328 0.0302 0.00267 0.00374 -0.00216
O3C 0.0376 0.0486 0.0433 -0.0151 0.0065 0.008
O3G 0.0376 0.0486 0.0433 -0.0151 0.0065 0.008
N1D 0.0294 0.0394 0.0285 -0.0029 0.005 0.0025
O7 0.147(7) 0.147(7) 0.196(9) -0.035(6) 0.011(6) -0.029(6)
O8 0.234(13) 0.52(3) 0.156(10) -0.055(14) -0.065(9) 0.137(17)
loop_
_geom_bond_atom_site_label_1
_geom_bond_atom_site_label_2
_geom_bond_site_symmetry_1
_geom_bond_site_symmetry_2
Ni1 O1 1_555 1_555
O1 H1 1_555 1_555
H2 O1 1_555 1_555
O2 Ni1 1_555 1_555
O3 C10 1_555 1_555
O4 C10 1_555 1_555
O5 Ni1 1_555 1_555
H3 O5 1_555 1_555
H4 O5 1_555 1_555
O6 C8 1_555 1_555
N1 Ni1 1_555 1_555
N2 Ni1 1_555 1_555
C1 H5 1_555 1_555
C2 H6 1_555 1_555
C3 C1 1_555 1_555
C4 H7 1_555 1_555
C5 N1 1_555 1_555
H8 C5 1_555 1_555
C6 C4 1_555 1_555
H9 C6 1_555 1_555
C7 C2 1_555 1_555
H10 C7 1_555 1_555
C8 O2 1_555 1_555
C9 N1 1_555 1_555
H11 C9 1_555 1_555
C10 C2 1_555 1_555
C11 C3 1_555 1_555
H12 C11 1_555 1_555
C12 N2 1_555 1_555
H13 C12 1_555 1_555
C13 N2 1_555 1_555
H14 C13 1_555 1_555
C14 C13 1_555 1_555
H15 C14 1_555 1_555
C15 C3 1_555 1_555
H16 C15 1_555 1_555
H17 C15 1_555 1_555
C16 C12 1_555 1_555
H18 C16 1_555 1_555
C17 C14 1_555 1_555
C18 C17 1_555 1_555
H19 C18 1_555 1_555
H20 C18 1_555 1_555
N1F C5F 1_555 1_555
C1F H5F 1_555 1_555
C3F C1F 1_555 1_555
C5F C1F 1_555 1_555
H8F C5F 1_555 1_555
C9F N1F 1_555 1_555
H11F C9F 1_555 1_555
C11F C3F 1_555 1_555
H12F C11F 1_555 1_555
C15F C15 1_555 1_555
H16F C15F 1_555 1_555
H17F C15F 1_555 1_555
N2D C12D 1_555 1_555
C12D H13D 1_555 1_555
C13D N2D 1_555 1_555
H14D C13D 1_555 1_555
C14D C13D 1_555 1_555
H15D C14D 1_555 1_555
C16D C12D 1_555 1_555
H18D C16D 1_555 1_555
C17D C14D 1_555 1_555
C18D C18 1_555 1_555
H19D C18D 1_555 1_555
H20D C18D 1_555 1_555
Ni1D N2D 1_555 1_555
O1D Ni1D 1_555 1_555
H1D O1D 1_555 1_555
H2D O1D 1_555 1_555
O2D Ni1D 1_555 1_555
O3D C10D 1_555 1_555
O4D C10D 1_555 1_555
O5D Ni1D 1_555 1_555
H3D O5D 1_555 1_555
H4D O5D 1_555 1_555
O6D C8D 1_555 1_555
C2D H6D 1_555 1_555
C4D H7D 1_555 1_555
C6D C4D 1_555 1_555
H9D C6D 1_555 1_555
C7D C2D 1_555 1_555
H10D C7D 1_555 1_555
C8D O2D 1_555 1_555
C10D C2D 1_555 1_555
Ni1C O3 1_555 1_555
Ni1F N1F 1_555 1_555
Ni1G O3D 1_555 1_555
O3C Ni1 1_555 1_555
O3G Ni1D 1_555 1_555
N1D Ni1D 1_555 1_555
C1 C5 1_555 1_555
C4 C7 1_555 1_555
C6 C8 1_555 1_555
C9 C11 1_555 1_555
C16 C17 1_555 1_555
C3F C15F 1_555 1_555
C9F C11F 1_555 1_555
C16D C17D 1_555 1_555
C17D C18D 1_555 1_555
C4D C7D 1_555 1_555
C6D C8D 1_555 1_555

#END
