
#######################################################################
#
#                 Cambridge Crystallographic Data Centre
#                                CCDC 
#
#######################################################################
#
# If this CIF has been generated from an entry in the Cambridge 
# Structural Database, then it will include bibliographic, chemical, 
# crystal, experimental, refinement or atomic coordinate data resulting 
# from the CCDC's data processing and validation procedures.
#
#######################################################################

data_EMOSOO
_chemical_formula_moiety         '(C4 H14 N2 O16 P4 Zn5)n'
_symmetry_cell_setting           orthorhombic
_symmetry_space_group_name_H-M   'P n m a'
_symmetry_Int_Tables_number      62
_space_group_name_Hall           '-P 2ac 2n'
loop_
_symmetry_equiv_pos_site_id
_symmetry_equiv_pos_as_xyz
1 x,y,z
2 1/2-x,-y,1/2+z
3 1/2+x,1/2-y,1/2-z
4 -x,1/2+y,-z
5 -x,-y,-z
6 1/2+x,y,1/2-z
7 1/2-x,1/2+y,1/2+z
8 x,1/2-y,z
_cell_length_a                   18.3440(6)
_cell_length_b                   13.3034(4)
_cell_length_c                   7.4497(2)
_cell_angle_alpha                90
_cell_angle_beta                 90
_cell_angle_gamma                90
_cell_volume                     1818.01
loop_
_atom_site_label
_atom_site_type_symbol
_atom_site_fract_x
_atom_site_fract_y
_atom_site_fract_z
Zn1 Zn 0.0565(1) -0.1217(1) 1.0608(1)
Zn2 Zn 0.1669(1) 0.2500 0.8599(1)
Zn3 Zn -0.0339(1) 0.1284(1) 0.4911(1)
P1 P 0.0854(1) 0.0481(1) 0.7516(2)
P2 P 0.0426(1) 0.2500 1.1880(3)
P3 P 0.3454(1) 0.2500 0.8152(3)
O1 O 0.0847(2) -0.0043(3) 0.9331(5)
O2 O 0.0092(2) 0.1001(3) 0.7294(5)
O3 O 0.1461(2) 0.1249(3) 0.7421(5)
O4 O 0.0958(2) -0.0232(3) 0.5929(5)
O5 O -0.0232(3) 0.2500 1.0521(7)
O6 O 0.0364(2) 0.3449(3) 1.3023(5)
O7 O 0.1139(3) 0.2500 1.0883(7)
O8 O 0.4066(3) 0.2500 0.9653(7)
O9 O 0.3567(2) 0.1546(3) 0.7035(5)
O10 O 0.2712(3) 0.2500 0.9040(7)
O6G O 0.0364(2) 0.1551(3) 1.3023(5)
O9G O 0.3567(2) 0.3454(3) 0.7035(5)
P1G P 0.0854(1) 0.4519(1) 0.7516(2)
O1G O 0.0847(2) 0.5043(3) 0.9331(5)
O2G O 0.0092(2) 0.3999(3) 0.7294(5)
O3G O 0.1461(2) 0.3751(3) 0.7421(5)
O4G O 0.0958(2) 0.5232(3) 0.5929(5)
Zn1G Zn 0.0565(1) 0.6217(1) 1.0608(1)
Zn3G Zn -0.0339(1) 0.3716(1) 0.4911(1)
O2D O -0.0092(2) -0.1001(3) 1.2706(5)
O5C O 0.0232(3) -0.2500 0.9479(7)
O9A O 0.1433(2) -0.1546(3) 1.2035(5)
O4D O -0.0958(2) 0.0232(3) 0.4071(5)
O6G_2 O 0.0364(2) 0.1551(3) 0.3023(5)
O8B O -0.0934(3) 0.2500 0.5347(7)
Zn1D Zn -0.0565(1) 0.1217(1) 0.9392(1)
Zn3D Zn 0.0339(1) -0.1284(1) 0.5089(1)
Zn1C Zn -0.0565(1) 0.3783(1) 0.9392(1)
Zn3G_2 Zn -0.0339(1) 0.3716(1) 1.4911(1)
Zn3B Zn 0.4661(1) 0.3716(1) 1.0089(1)
Zn3E Zn 0.4661(1) 0.1284(1) 1.0089(1)
Zn1A Zn 0.4435(1) 0.1217(1) 0.5608(1)
Zn3_2 Zn -0.0339(1) 0.1284(1) 1.4911(1)
Zn1F Zn 0.4435(1) 0.3783(1) 0.5608(1)
Zn3C Zn 0.0339(1) 0.6284(1) 0.5089(1)
O2C O -0.0092(2) 0.6001(3) 1.2706(5)
O5C_2 O 0.0232(3) 0.7500 0.9479(7)
O9F O 0.1433(2) 0.6546(3) 1.2035(5)
O4C O -0.0958(2) 0.4768(3) 0.4071(5)
O6_2 O 0.0364(2) 0.3449(3) 0.3023(5)
N1 N 0.3218(3) -0.0561(4) 0.7998(9)
C1 C 0.2549(6) -0.1041(9) 0.8462(17)
C2 C 0.2281(7) -0.1877(9) 0.8183(17)
C2G C 0.2281(7) -0.3123(9) 0.8183(17)
C1G C 0.2549(6) -0.3959(9) 0.8462(17)
N1G N 0.3218(3) -0.4439(4) 0.7998(9)
loop_
_geom_bond_atom_site_label_1
_geom_bond_atom_site_label_2
_geom_bond_site_symmetry_1
_geom_bond_site_symmetry_2
Zn1 O1 1_555 1_555
Zn2 O3 1_555 1_555
Zn3 O2 1_555 1_555
P1 O1 1_555 1_555
P2 O5 1_555 1_555
P3 O8 1_555 1_555
O2 P1 1_555 1_555
O3 P1 1_555 1_555
O4 P1 1_555 1_555
O5 Zn1D 1_555 1_555
O6 P2 1_555 1_555
O7 Zn2 1_555 1_555
O8 Zn3B 1_555 1_555
O9 P3 1_555 1_555
O10 Zn2 1_555 1_555
N1 C1 1_555 1_555
C1 C2 1_555 1_555
C2 C2G 1_555 1_555
O6G P2 1_555 1_555
O9G P3 1_555 1_555
P1G O1G 1_555 1_555
O1G Zn1G 1_555 1_555
O2G P1G 1_555 1_555
O3G Zn2 1_555 1_555
O4G P1G 1_555 1_555
Zn1G O2C 1_555 1_555
Zn3G O2G 1_555 1_555
O2D Zn1 1_555 1_555
O5C Zn1 1_555 1_555
O9A Zn1 1_555 1_555
O4D Zn3 1_555 1_555
O6G_2 Zn3 1_555 1_555
O8B Zn3 1_555 1_555
Zn1D O2 1_555 1_555
Zn3D O4 1_555 1_555
Zn1C O5 1_555 1_555
Zn3G_2 O6 1_555 1_555
Zn3E O8 1_555 1_555
Zn1A O9 1_555 1_555
Zn3_2 O6G 1_555 1_555
Zn1F O9G 1_555 1_555
Zn3C O4G 1_555 1_555
O5C_2 Zn1G 1_555 1_555
O9F Zn1G 1_555 1_555
O4C Zn3G 1_555 1_555
O6_2 Zn3G 1_555 1_555
C2G C1G 1_555 1_555
C1G N1G 1_555 1_555
P2 O7 1_555 1_555
P3 O10 1_555 1_555
P1G O3G 1_555 1_555
O2G Zn1C 1_555 1_555
Zn3G O8B 1_555 1_555

#END
