
#######################################################################
#
#                 Cambridge Crystallographic Data Centre
#                                CCDC 
#
#######################################################################
#
# If this CIF has been generated from an entry in the Cambridge 
# Structural Database, then it will include bibliographic, chemical, 
# crystal, experimental, refinement or atomic coordinate data resulting 
# from the CCDC's data processing and validation procedures.
#
#######################################################################

data_EPOPEG
_chemical_formula_moiety         '(C14 H12 Cu1 N23 O4 1+)n'
_symmetry_cell_setting           monoclinic
_symmetry_space_group_name_H-M   'C 2/c'
_symmetry_Int_Tables_number      15
_space_group_name_Hall           '-C 2yc'
loop_
_symmetry_equiv_pos_site_id
_symmetry_equiv_pos_as_xyz
1 x,y,z
2 -x,y,1/2-z
3 1/2+x,1/2+y,z
4 1/2-x,1/2+y,1/2-z
5 -x,-y,-z
6 x,-y,1/2+z
7 1/2-x,1/2-y,-z
8 1/2+x,1/2-y,1/2+z
_cell_length_a                   21.234(15)
_cell_length_b                   12.980(15)
_cell_length_c                   13.002(12)
_cell_angle_alpha                90
_cell_angle_beta                 113.79(3)
_cell_angle_gamma                90
_cell_volume                     3279.08
loop_
_atom_site_label
_atom_site_type_symbol
_atom_site_fract_x
_atom_site_fract_y
_atom_site_fract_z
N3 N 0.1008(6) 0.2414(6) 0.2836(9)
N4 N 0.0416(6) 0.2781(6) 0.2022(10)
C1 C 0.1035(3) 0.1434(4) 0.2502(5)
C2 C 0.0178(4) 0.1957(5) 0.1304(6)
N5 N 0.1579(3) 0.0798(5) 0.3244(5)
N6 N 0.0478(3) 0.1066(4) 0.1709(4)
N7 N -0.0487(5) 0.1969(9) 0.0339(8)
O1 O 0.2026(3) 0.1161(5) 0.4078(5)
O2 O 0.1553(4) -0.0094(5) 0.2933(8)
O3 O -0.0774(4) 0.1178(7) -0.0022(6)
O4 O -0.0734(6) 0.2822(9) 0.0085(13)
C3 C 0.2415(3) 0.0476(4) 0.1097(4)
H1 H 0.2002 0.0637 0.1149
C4 C 0.3359(3) -0.0310(4) 0.1265(7)
H2 H 0.3711 -0.0794 0.1464
C5 C 0.4120(5) 0.2701(4) 0.1826(5)
H3 H 0.4064 0.2243 0.2332
C6 C 0.4555(5) 0.3839(5) 0.1088(8)
H4 H 0.4854 0.4308 0.0982
C7 C 0.2238(3) -0.2023(5) 0.1657(6)
H5 H 0.2035 -0.2188 0.0897
C8 C 0.2829(3) -0.1228(4) 0.3221(5)
H6 H 0.3104 -0.0753 0.3746
Cu1 Cu 0.2500 0.2500 0.0000
N8 N 0.2796(3) -0.0386(3) 0.1499(4)
N9 N 0.2733(2) 0.1040(3) 0.0623(3)
N10 N 0.3337(3) 0.0538(3) 0.0723(5)
N11 N 0.3658(3) 0.2906(4) 0.0819(4)
N12 N 0.3937(4) 0.3639(5) 0.0369(6)
N13 N 0.4696(3) 0.3262(3) 0.2016(4)
N14 N 0.2575(3) -0.2064(4) 0.3444(4)
N15 N 0.2193(3) -0.2568(4) 0.2438(5)
N16 N 0.2624(3) -0.1165(3) 0.2086(4)
C5A C 0.5880(5) 0.2701(4) 0.3174(5)
H3A H 0.5936 0.2243 0.2668
C6A C 0.5445(5) 0.3839(5) 0.3912(8)
H4A H 0.5146 0.4308 0.4018
N11A N 0.6342(3) 0.2906(4) 0.4181(4)
N12A N 0.6063(4) 0.3639(5) 0.4631(6)
N13A N 0.5304(3) 0.3262(3) 0.2984(4)
C3F C 0.2585(3) 0.4524(4) -0.1097(4)
H1F H 0.2998 0.4363 -0.1149
C4F C 0.1641(3) 0.5310(4) -0.1265(7)
H2F H 0.1289 0.5794 -0.1464
C7F C 0.2762(3) 0.7023(5) -0.1657(6)
H5F H 0.2965 0.7188 -0.0897
C8F C 0.2171(3) 0.6228(4) -0.3221(5)
H6F H 0.1896 0.5753 -0.3746
N8F N 0.2204(3) 0.5386(3) -0.1499(4)
N9F N 0.2267(2) 0.3960(3) -0.0623(3)
N10F N 0.1663(3) 0.4462(3) -0.0723(5)
N14F N 0.2425(3) 0.7064(4) -0.3444(4)
N15F N 0.2807(3) 0.7568(4) -0.2438(5)
N16F N 0.2376(3) 0.6165(3) -0.2086(4)
Cu1A Cu 0.7500 0.2500 0.5000
Cu1C Cu 0.2500 -0.2500 0.5000
Cu1C_2 Cu 0.2500 0.7500 -0.5000
N11F N 0.1342(3) 0.2094(4) -0.0819(4)
N14C N 0.2425(3) 0.2936(4) 0.1556(4)
N14E N 0.2575(3) 0.2064(4) -0.1556(4)
loop_
_geom_bond_atom_site_label_1
_geom_bond_atom_site_label_2
_geom_bond_site_symmetry_1
_geom_bond_site_symmetry_2
N3 N4 1_555 1_555
N4 C2 1_555 1_555
C1 N3 1_555 1_555
C2 N6 1_555 1_555
N5 C1 1_555 1_555
N6 C1 1_555 1_555
N7 C2 1_555 1_555
O1 N5 1_555 1_555
O2 N5 1_555 1_555
O3 N7 1_555 1_555
O4 N7 1_555 1_555
C3 H1 1_555 1_555
C4 H2 1_555 1_555
C5 H3 1_555 1_555
C6 H4 1_555 1_555
C7 H5 1_555 1_555
C8 H6 1_555 1_555
Cu1 N9 1_555 1_555
N8 C3 1_555 1_555
N9 C3 1_555 1_555
N10 C4 1_555 1_555
N11 C5 1_555 1_555
N12 C6 1_555 1_555
N13 C5 1_555 1_555
N14 C8 1_555 1_555
N15 C7 1_555 1_555
N16 C7 1_555 1_555
C5A H3A 1_555 1_555
C6A H4A 1_555 1_555
N11A C5A 1_555 1_555
N12A C6A 1_555 1_555
N13A N13 1_555 1_555
C3F H1F 1_555 1_555
C4F H2F 1_555 1_555
C7F H5F 1_555 1_555
C8F H6F 1_555 1_555
N8F C3F 1_555 1_555
N9F Cu1 1_555 1_555
N10F C4F 1_555 1_555
N14F C8F 1_555 1_555
N15F C7F 1_555 1_555
N16F C7F 1_555 1_555
Cu1A N11A 1_555 1_555
Cu1C N14 1_555 1_555
Cu1C_2 N14F 1_555 1_555
N11F Cu1 1_555 1_555
N14C Cu1 1_555 1_555
N14E Cu1 1_555 1_555
C4 N8 1_555 1_555
C6 N13 1_555 1_555
C8 N16 1_555 1_555
Cu1 N11 1_555 1_555
N8 N16 1_555 1_555
N9 N10 1_555 1_555
N11 N12 1_555 1_555
N14 N15 1_555 1_555
C5A N13A 1_555 1_555
C6A N13A 1_555 1_555
N11A N12A 1_555 1_555
C3F N9F 1_555 1_555
C4F N8F 1_555 1_555
C8F N16F 1_555 1_555
N8F N16F 1_555 1_555
N9F N10F 1_555 1_555
N14F N15F 1_555 1_555

#END
