
#######################################################################
#
#                 Cambridge Crystallographic Data Centre
#                                CCDC 
#
#######################################################################
#
# If this CIF has been generated from an entry in the Cambridge 
# Structural Database, then it will include bibliographic, chemical, 
# crystal, experimental, refinement or atomic coordinate data resulting 
# from the CCDC's data processing and validation procedures.
#
#######################################################################

data_EZOBUR01
_chemical_formula_moiety         '(C116 H76 Cu6 F72 N12 O28)n'
_symmetry_cell_setting           monoclinic
_symmetry_space_group_name_H-M   'C 2/c'
_symmetry_Int_Tables_number      15
_space_group_name_Hall           '-C 2yc'
loop_
_symmetry_equiv_pos_site_id
_symmetry_equiv_pos_as_xyz
1 x,y,z
2 1/2+x,1/2+y,z
3 -x,y,1/2-z
4 1/2-x,1/2+y,1/2-z
5 -x,-y,-z
6 1/2-x,1/2-y,-z
7 x,-y,1/2+z
8 1/2+x,1/2-y,1/2+z
_cell_length_a                   61.1492(3)
_cell_length_b                   15.5084(1)
_cell_length_c                   17.7700(1)
_cell_angle_alpha                90
_cell_angle_beta                 95.6666(3)
_cell_angle_gamma                90
_cell_volume                     16769.4
loop_
_atom_site_label
_atom_site_type_symbol
_atom_site_fract_x
_atom_site_fract_y
_atom_site_fract_z
Cu1 Cu 0.154513(10) 0.05627(4) 0.52131(4)
Cu2 Cu 0.292700(10) 0.19371(4) 0.63561(3)
Cu3 Cu 0.0000 0.0000 0.5000
Cu4 Cu 0.0000 -0.25672(6) 0.2500
O1 O 0.13848(5) 0.0970(2) 0.4201(2)
O2 O 0.29820(5) 0.1389(2) 0.54008(18)
O3 O 0.17086(7) 0.0179(3) 0.6210(2)
O4 O 0.15147(7) 0.1820(3) 0.5757(2)
O5 O 0.16038(6) -0.0737(3) 0.4786(2)
O6 O 0.12716(6) 0.0156(3) 0.5562(2)
O7 O 0.28512(6) 0.2579(2) 0.7262(2)
O8 O 0.32721(6) 0.1938(3) 0.6919(2)
O9 O 0.25430(6) 0.2044(2) 0.6085(2)
O10 O 0.28636(6) 0.0829(2) 0.6799(2)
O11 O 0.01348(6) 0.1113(3) 0.4703(2)
O12 O -0.02573(7) 0.0164(3) 0.4082(2)
O13 O 0.02457(7) -0.2545(2) 0.1905(2)
O14 O -0.01362(9) -0.3598(3) 0.1807(4)
N1 N 0.01845(7) -0.0655(3) 0.4282(2)
N2 N 0.01829(7) -0.1611(3) 0.3252(2)
N3 N 0.11733(7) 0.0999(3) 0.4069(2)
N4 N 0.20347(6) 0.1922(3) 0.4169(2)
N5 N 0.18273(7) 0.0923(3) 0.4798(2)
N6 N 0.29994(7) 0.0560(3) 0.5322(2)
C1 C 0.04004(8) -0.0520(3) 0.4258(3)
H1 H 0.0475 -0.0143 0.4619
C2 C 0.00845(8) -0.1203(3) 0.3787(3)
H2 H -0.0067 -0.1312 0.3816
C3 C 0.03972(9) -0.1463(3) 0.3224(3)
H3 H 0.0470 -0.1746 0.2846
C4 C 0.05185(8) -0.0909(3) 0.3730(3)
C5 C 0.07549(8) -0.0737(4) 0.3660(3)
C6 C 0.08492(8) 0.0043(3) 0.3902(3)
H4 H 0.0763 0.0462 0.4130
C7 C 0.10686(8) 0.0214(4) 0.3815(3)
C8 C 0.11941(9) -0.0395(4) 0.3474(3)
H5 H 0.1343 -0.0278 0.3407
C9 C 0.11011(9) -0.1162(4) 0.3234(3)
H6 H 0.1187 -0.1577 0.3002
C10 C 0.08837(9) -0.1342(4) 0.3327(3)
H7 H 0.0822 -0.1881 0.3164
C11 C 0.10604(9) 0.1853(4) 0.4133(3)
C12 C 0.08997(10) 0.1988(4) 0.3432(3)
H8 H 0.0787 0.1536 0.3405
H9 H 0.0979 0.1963 0.2979
H10 H 0.0829 0.2554 0.3459
C13 C 0.09511(9) 0.1880(4) 0.4874(3)
H11 H 0.0838 0.1433 0.4865
H12 H 0.0884 0.2447 0.4929
H13 H 0.1062 0.1778 0.5301
C14 C 0.12379(10) 0.2552(4) 0.4165(4)
H14 H 0.1310 0.2541 0.3696
H15 H 0.1347 0.2444 0.4596
H16 H 0.1170 0.3118 0.4223
C15 C 0.22100(8) 0.1407(3) 0.4273(3)
H17 H 0.2341 0.1570 0.4065
C16 C 0.18479(8) 0.1663(3) 0.4435(3)
H18 H 0.1723 0.2030 0.4361
C17 C 0.20061(8) 0.0417(3) 0.4930(3)
H19 H 0.1995 -0.0106 0.5202
C18 C 0.22068(8) 0.0638(3) 0.4677(3)
C19 C 0.24091(8) 0.0128(3) 0.4857(3)
C20 C 0.26094(8) 0.0548(3) 0.4985(3)
H20 H 0.2615 0.1158 0.4935
C21 C 0.28025(8) 0.0089(3) 0.5185(3)
C22 C 0.27919(9) -0.0808(3) 0.5263(3)
H21 H 0.2921 -0.1131 0.5410
C23 C 0.25933(10) -0.1215(3) 0.5125(4)
H22 H 0.2588 -0.1825 0.5170
C24 C 0.24016(9) -0.0771(3) 0.4924(3)
H23 H 0.2266 -0.1070 0.4832
C25 C 0.32295(9) 0.0187(4) 0.5355(3)
C26 C 0.32454(10) -0.0347(4) 0.4641(3)
H24 H 0.3145 -0.0838 0.4639
H25 H 0.3206 0.0012 0.4195
H26 H 0.3396 -0.0558 0.4632
C27 C 0.33894(9) 0.0944(4) 0.5351(4)
H27 H 0.3359 0.1272 0.4881
H28 H 0.3372 0.1321 0.5784
H29 H 0.3540 0.0726 0.5385
C28 C 0.32821(10) -0.0313(4) 0.6091(3)
H30 H 0.3179 -0.0796 0.6109
H31 H 0.3433 -0.0536 0.6115
H32 H 0.3268 0.0070 0.6522
C29 C 0.17870(12) -0.0037(4) 0.7501(4)
C30 C 0.16951(10) 0.0513(4) 0.6852(3)
C31 C 0.16065(9) 0.1313(4) 0.7017(3)
H33 H 0.1598 0.1461 0.7532
C32 C 0.15306(10) 0.1902(4) 0.6464(3)
C33 C 0.14626(15) 0.2789(5) 0.6728(4)
C34 C 0.15498(12) -0.2197(4) 0.4566(4)
C35 C 0.14826(10) -0.1352(4) 0.4914(3)
C36 C 0.12988(10) -0.1353(4) 0.5328(3)
H34 H 0.1231 -0.1890 0.5418
C37 C 0.12124(9) -0.0621(4) 0.5610(3)
C38 C 0.10109(12) -0.0699(5) 0.6042(4)
C39 C 0.28161(13) 0.2912(5) 0.8513(3)
C40 C 0.29529(10) 0.2552(4) 0.7916(3)
C41 C 0.31625(10) 0.2262(4) 0.8131(3)
H35 H 0.3212 0.2251 0.8655
C42 C 0.33052(10) 0.1986(4) 0.7623(3)
C43 C 0.35381(13) 0.1727(7) 0.7933(4)
C44 C 0.22085(10) 0.2140(4) 0.6616(3)
C45 C 0.24312(9) 0.1725(4) 0.6564(3)
C46 C 0.24896(10) 0.1016(4) 0.7043(3)
H36 H 0.2382 0.0797 0.7343
C47 C 0.26916(10) 0.0623(4) 0.7104(3)
C48 C 0.27286(11) -0.0166(5) 0.7605(4)
C49 C 0.02225(12) 0.2318(4) 0.4032(4)
C50 C 0.00763(9) 0.1547(4) 0.4119(3)
C51 C -0.00982(10) 0.1406(4) 0.3573(3)
H37 H -0.0116 0.1791 0.3155
C52 C -0.02485(9) 0.0735(4) 0.3597(3)
C53 C -0.04294(13) 0.0705(6) 0.2936(4)
C54 C 0.05365(13) -0.2981(6) 0.1255(5)
C55 C 0.03075(10) -0.3155(4) 0.1496(3)
C56 C 0.01960(13) -0.3889(4) 0.1265(4)
H38 H 0.0266 -0.4298 0.0972
C57 C -0.00168(14) -0.4059(5) 0.1445(4)
C58 C -0.0126(3) -0.4982(9) 0.1101(12)
F1 F 0.20163(17) -0.0081(7) 0.7515(6)
F2 F 0.17453(14) 0.0200(5) 0.8161(4)
F3 F 0.1729(3) -0.0794(11) 0.7538(9)
F7 F 0.1427(5) 0.2769(14) 0.7430(13)
F8 F 0.1332(4) 0.3227(13) 0.6209(8)
F9 F 0.1650(4) 0.3285(14) 0.6964(16)
F18 F 0.15969(13) -0.2083(4) 0.3856(4)
F19 F 0.1690(2) -0.2615(7) 0.4968(6)
F20 F 0.14009(14) -0.2852(5) 0.4633(6)
F26 F 0.1050(3) -0.0777(11) 0.6717(9)
F27 F 0.0885(3) -0.1382(11) 0.5868(9)
F28 F 0.0860(3) 0.0007(11) 0.5863(9)
F35 F 0.25975(16) 0.2629(7) 0.8411(6)
F36 F 0.28770(16) 0.2642(8) 0.9215(5)
F37 F 0.2801(2) 0.3745(7) 0.8522(7)
F44 F 0.35620(15) 0.1674(8) 0.8695(5)
F45 F 0.3663(2) 0.1471(11) 0.7530(8)
F46 F 0.36697(14) 0.2536(6) 0.7846(5)
F53 F 0.25386(16) -0.0521(6) 0.7813(6)
F54 F 0.2840(2) -0.0765(7) 0.7324(6)
F55 F 0.28441(16) 0.0092(6) 0.8255(5)
F59 F 0.20551(11) 0.1869(5) 0.6083(4)
F60 F 0.22228(16) 0.2980(6) 0.6546(6)
F61 F 0.21505(15) 0.2284(6) 0.7286(5)
F65 F 0.0180(2) 0.2951(9) 0.4460(7)
F66 F 0.02070(17) 0.2634(6) 0.3301(6)
F67 F 0.04356(19) 0.2166(7) 0.4239(7)
F71 F -0.03683(12) 0.0827(5) 0.2271(4)
F72 F -0.05371(14) -0.0153(6) 0.2960(4)
F73 F -0.05888(16) 0.1233(6) 0.3031(5)
F77 F 0.05849(15) -0.3490(6) 0.0677(6)
F78 F 0.05742(19) -0.2258(8) 0.1058(7)
F79 F 0.06754(19) -0.3139(8) 0.1929(7)
F83 F 0.0043(2) -0.5565(9) 0.1158(9)
F84 F -0.0250(2) -0.5240(9) 0.1621(8)
F85 F -0.0240(3) -0.4814(11) 0.0486(10)
Cu1D Cu -0.154513(10) -0.05627(4) 0.47869(4)
Cu2D Cu -0.292700(10) -0.19371(4) 0.36439(3)
Cu2E Cu 0.207300(10) 0.30629(4) 0.36439(3)
Cu2A Cu -0.207300(10) -0.30629(4) 0.63561(3)
Cu4F Cu 0.0000 0.25672(6) 0.7500
O1D O -0.13848(5) -0.0970(2) 0.5799(2)
O2D O -0.29820(5) -0.1389(2) 0.45992(18)
O3D O -0.17086(7) -0.0179(3) 0.3790(2)
O4D O -0.15147(7) -0.1820(3) 0.4243(2)
O5D O -0.16038(6) 0.0737(3) 0.5214(2)
O6D O -0.12716(6) -0.0156(3) 0.4438(2)
O7D O -0.28512(6) -0.2579(2) 0.2738(2)
O8D O -0.32721(6) -0.1938(3) 0.3081(2)
O9D O -0.25430(6) -0.2044(2) 0.3915(2)
O10D O -0.28636(6) -0.0829(2) 0.3201(2)
O11D O -0.01348(6) -0.1113(3) 0.5297(2)
O12D O 0.02573(7) -0.0164(3) 0.5918(2)
O13B O -0.02457(7) -0.2545(2) 0.3095(2)
O14B O 0.01362(9) -0.3598(3) 0.3193(4)
N1D N -0.01845(7) 0.0655(3) 0.5718(2)
N2D N -0.01829(7) 0.1611(3) 0.6748(2)
N2B N -0.01829(7) -0.1611(3) 0.1748(2)
N3D N -0.11733(7) -0.0999(3) 0.5931(2)
N4D N -0.20347(6) -0.1922(3) 0.5831(2)
N4E N 0.29653(6) 0.3078(3) 0.5831(2)
N4A N -0.29653(6) -0.3078(3) 0.4169(2)
N5D N -0.18273(7) -0.0923(3) 0.5202(2)
N6D N -0.29994(7) -0.0560(3) 0.4678(2)
C1D C -0.04004(8) 0.0520(3) 0.5742(3)
H1D H -0.0475 0.0143 0.5381
C2D C -0.00845(8) 0.1203(3) 0.6213(3)
H2D H 0.0067 0.1312 0.6184
C3D C -0.03972(9) 0.1463(3) 0.6776(3)
H3D H -0.0470 0.1746 0.7154
C4D C -0.05185(8) 0.0909(3) 0.6270(3)
C5D C -0.07549(8) 0.0737(4) 0.6340(3)
C6D C -0.08492(8) -0.0043(3) 0.6098(3)
H4D H -0.0763 -0.0462 0.5870
C7D C -0.10686(8) -0.0214(4) 0.6185(3)
C8D C -0.11941(9) 0.0395(4) 0.6526(3)
H5D H -0.1343 0.0278 0.6593
C9D C -0.11011(9) 0.1162(4) 0.6766(3)
H6D H -0.1187 0.1577 0.6998
C10D C -0.08837(9) 0.1342(4) 0.6673(3)
H7D H -0.0822 0.1881 0.6836
C11D C -0.10604(9) -0.1853(4) 0.5867(3)
C12D C -0.08997(10) -0.1988(4) 0.6568(3)
H8D H -0.0787 -0.1536 0.6595
H9D H -0.0979 -0.1963 0.7021
H10D H -0.0829 -0.2554 0.6541
C13D C -0.09511(9) -0.1880(4) 0.5126(3)
H11D H -0.0838 -0.1433 0.5135
H12D H -0.0884 -0.2447 0.5071
H13D H -0.1062 -0.1778 0.4699
C14D C -0.12379(10) -0.2552(4) 0.5835(4)
H14D H -0.1310 -0.2541 0.6304
H15D H -0.1347 -0.2444 0.5404
H16D H -0.1170 -0.3118 0.5777
C15D C -0.22100(8) -0.1407(3) 0.5727(3)
H17D H -0.2341 -0.1570 0.5935
C16D C -0.18479(8) -0.1663(3) 0.5565(3)
H18D H -0.1723 -0.2030 0.5639
C17D C -0.20061(8) -0.0417(3) 0.5070(3)
H19D H -0.1995 0.0106 0.4798
C18D C -0.22068(8) -0.0638(3) 0.5323(3)
C19D C -0.24091(8) -0.0128(3) 0.5143(3)
C20D C -0.26094(8) -0.0548(3) 0.5015(3)
H20D H -0.2615 -0.1158 0.5065
C21D C -0.28025(8) -0.0089(3) 0.4815(3)
C22D C -0.27919(9) 0.0808(3) 0.4737(3)
H21D H -0.2921 0.1131 0.4590
C23D C -0.25933(10) 0.1215(3) 0.4875(4)
H22D H -0.2588 0.1825 0.4830
C24D C -0.24016(9) 0.0771(3) 0.5076(3)
H23D H -0.2266 0.1070 0.5168
C25D C -0.32295(9) -0.0187(4) 0.4645(3)
C26D C -0.32454(10) 0.0347(4) 0.5359(3)
H24D H -0.3145 0.0838 0.5361
H25D H -0.3206 -0.0012 0.5805
H26D H -0.3396 0.0558 0.5368
C27D C -0.33894(9) -0.0944(4) 0.4649(4)
H27D H -0.3359 -0.1272 0.5119
H28D H -0.3372 -0.1321 0.4216
H29D H -0.3540 -0.0726 0.4615
C28D C -0.32821(10) 0.0313(4) 0.3909(3)
H30D H -0.3179 0.0796 0.3891
H31D H -0.3433 0.0536 0.3885
H32D H -0.3268 -0.0070 0.3478
C29D C -0.17870(12) 0.0037(4) 0.2499(4)
C30D C -0.16951(10) -0.0513(4) 0.3148(3)
C31D C -0.16065(9) -0.1313(4) 0.2983(3)
H33D H -0.1598 -0.1461 0.2468
C32D C -0.15306(10) -0.1902(4) 0.3536(3)
C33D C -0.14626(15) -0.2789(5) 0.3272(4)
C34D C -0.15498(12) 0.2197(4) 0.5434(4)
C35D C -0.14826(10) 0.1352(4) 0.5086(3)
C36D C -0.12988(10) 0.1353(4) 0.4672(3)
H34D H -0.1231 0.1890 0.4582
C37D C -0.12124(9) 0.0621(4) 0.4390(3)
C38D C -0.10109(12) 0.0699(5) 0.3958(4)
C39D C -0.28161(13) -0.2912(5) 0.1487(3)
C40D C -0.29529(10) -0.2552(4) 0.2084(3)
C41D C -0.31625(10) -0.2262(4) 0.1869(3)
H35D H -0.3212 -0.2251 0.1345
C42D C -0.33052(10) -0.1986(4) 0.2377(3)
C43D C -0.35381(13) -0.1727(7) 0.2067(4)
C44D C -0.22085(10) -0.2140(4) 0.3384(3)
C45D C -0.24312(9) -0.1725(4) 0.3436(3)
C46D C -0.24896(10) -0.1016(4) 0.2957(3)
H36D H -0.2382 -0.0797 0.2657
C47D C -0.26916(10) -0.0623(4) 0.2896(3)
C48D C -0.27286(11) 0.0166(5) 0.2395(4)
C49D C -0.02225(12) -0.2318(4) 0.5968(4)
C50D C -0.00763(9) -0.1547(4) 0.5881(3)
C51D C 0.00982(10) -0.1406(4) 0.6427(3)
H37D H 0.0116 -0.1791 0.6845
C52D C 0.02485(9) -0.0735(4) 0.6403(3)
C53D C 0.04294(13) -0.0705(6) 0.7064(4)
C54B C -0.05365(13) -0.2981(6) 0.3745(5)
C55B C -0.03075(10) -0.3155(4) 0.3504(3)
C56B C -0.01960(13) -0.3889(4) 0.3735(4)
H38B H -0.0266 -0.4298 0.4028
C57B C 0.00168(14) -0.4059(5) 0.3555(4)
C58B C 0.0126(3) -0.4982(9) 0.3899(12)
F1D F -0.20163(17) 0.0081(7) 0.2485(6)
F2D F -0.17453(14) -0.0200(5) 0.1839(4)
F3D F -0.1729(3) 0.0794(11) 0.2462(9)
F7D F -0.1427(5) -0.2769(14) 0.2570(13)
F8D F -0.1332(4) -0.3227(13) 0.3791(8)
F9D F -0.1650(4) -0.3285(14) 0.3036(16)
F18D F -0.15969(13) 0.2083(4) 0.6144(4)
F19D F -0.1690(2) 0.2615(7) 0.5032(6)
F20D F -0.14009(14) 0.2852(5) 0.5367(6)
F26D F -0.1050(3) 0.0777(11) 0.3283(9)
F27D F -0.0885(3) 0.1382(11) 0.4132(9)
F28D F -0.0860(3) -0.0007(11) 0.4137(9)
F35D F -0.25975(16) -0.2629(7) 0.1589(6)
F36D F -0.28770(16) -0.2642(8) 0.0785(5)
F37D F -0.2801(2) -0.3745(7) 0.1478(7)
F44D F -0.35620(15) -0.1674(8) 0.1305(5)
F45D F -0.3663(2) -0.1471(11) 0.2470(8)
F46D F -0.36697(14) -0.2536(6) 0.2154(5)
F53D F -0.25386(16) 0.0521(6) 0.2187(6)
F54D F -0.2840(2) 0.0765(7) 0.2676(6)
F55D F -0.28441(16) -0.0092(6) 0.1745(5)
F59D F -0.20551(11) -0.1869(5) 0.3917(4)
F60D F -0.22228(16) -0.2980(6) 0.3454(6)
F61D F -0.21505(15) -0.2284(6) 0.2714(5)
F65D F -0.0180(2) -0.2951(9) 0.5540(7)
F66D F -0.02070(17) -0.2634(6) 0.6699(6)
F67D F -0.04356(19) -0.2166(7) 0.5761(7)
F71D F 0.03683(12) -0.0827(5) 0.7729(4)
F72D F 0.05371(14) 0.0153(6) 0.7040(4)
F73D F 0.05888(16) -0.1233(6) 0.6969(5)
F77B F -0.05849(15) -0.3490(6) 0.4323(6)
F78B F -0.05742(19) -0.2258(8) 0.3942(7)
F79B F -0.06754(19) -0.3139(8) 0.3071(7)
F83B F -0.0043(2) -0.5565(9) 0.3842(9)
F84B F 0.0250(2) -0.5240(9) 0.3379(8)
F85B F 0.0240(3) -0.4814(11) 0.4514(10)
loop_
_geom_bond_atom_site_label_1
_geom_bond_atom_site_label_2
_geom_bond_site_symmetry_1
_geom_bond_site_symmetry_2
Cu1 O1 1_555 1_555
Cu2 O2 1_555 1_555
Cu3 O11 1_555 1_555
Cu4 O13 1_555 1_555
O1 N3 1_555 1_555
O2 N6 1_555 1_555
O3 Cu1 1_555 1_555
O4 Cu1 1_555 1_555
O5 Cu1 1_555 1_555
O6 Cu1 1_555 1_555
O7 Cu2 1_555 1_555
O8 Cu2 1_555 1_555
O9 Cu2 1_555 1_555
O10 Cu2 1_555 1_555
O11 C50 1_555 1_555
O12 Cu3 1_555 1_555
O13 C55 1_555 1_555
O14 Cu4 1_555 1_555
N1 Cu3 1_555 1_555
N2 Cu4 1_555 1_555
N3 C7 1_555 1_555
N4 C15 1_555 1_555
N5 Cu1 1_555 1_555
N6 C21 1_555 1_555
C1 N1 1_555 1_555
H1 C1 1_555 1_555
C2 N1 1_555 1_555
H2 C2 1_555 1_555
C3 N2 1_555 1_555
H3 C3 1_555 1_555
C4 C1 1_555 1_555
C5 C4 1_555 1_555
C6 C5 1_555 1_555
H4 C6 1_555 1_555
C7 C6 1_555 1_555
C8 C7 1_555 1_555
H5 C8 1_555 1_555
C9 C8 1_555 1_555
H6 C9 1_555 1_555
C10 C5 1_555 1_555
H7 C10 1_555 1_555
C11 N3 1_555 1_555
C12 C11 1_555 1_555
H8 C12 1_555 1_555
H9 C12 1_555 1_555
H10 C12 1_555 1_555
C13 C11 1_555 1_555
H11 C13 1_555 1_555
H12 C13 1_555 1_555
H13 C13 1_555 1_555
C14 C11 1_555 1_555
H14 C14 1_555 1_555
H15 C14 1_555 1_555
H16 C14 1_555 1_555
C15 H17 1_555 1_555
C16 N4 1_555 1_555
H18 C16 1_555 1_555
C17 N5 1_555 1_555
H19 C17 1_555 1_555
C18 C15 1_555 1_555
C19 C18 1_555 1_555
C20 C19 1_555 1_555
H20 C20 1_555 1_555
C21 C20 1_555 1_555
C22 C21 1_555 1_555
H21 C22 1_555 1_555
C23 C22 1_555 1_555
H22 C23 1_555 1_555
C24 C19 1_555 1_555
H23 C24 1_555 1_555
C25 N6 1_555 1_555
C26 C25 1_555 1_555
H24 C26 1_555 1_555
H25 C26 1_555 1_555
H26 C26 1_555 1_555
C27 C25 1_555 1_555
H27 C27 1_555 1_555
H28 C27 1_555 1_555
H29 C27 1_555 1_555
C28 C25 1_555 1_555
H30 C28 1_555 1_555
H31 C28 1_555 1_555
H32 C28 1_555 1_555
C29 C30 1_555 1_555
C30 O3 1_555 1_555
C31 C30 1_555 1_555
H33 C31 1_555 1_555
C32 O4 1_555 1_555
C33 C32 1_555 1_555
C34 C35 1_555 1_555
C35 O5 1_555 1_555
C36 C35 1_555 1_555
H34 C36 1_555 1_555
C37 O6 1_555 1_555
C38 C37 1_555 1_555
C39 C40 1_555 1_555
C40 O7 1_555 1_555
C41 C40 1_555 1_555
H35 C41 1_555 1_555
C42 O8 1_555 1_555
C43 C42 1_555 1_555
C44 C45 1_555 1_555
C45 O9 1_555 1_555
C46 C45 1_555 1_555
H36 C46 1_555 1_555
C47 O10 1_555 1_555
C48 C47 1_555 1_555
C49 C50 1_555 1_555
C50 C51 1_555 1_555
C51 H37 1_555 1_555
C52 O12 1_555 1_555
C53 C52 1_555 1_555
C54 C55 1_555 1_555
C55 C56 1_555 1_555
C56 H38 1_555 1_555
C57 O14 1_555 1_555
C58 C57 1_555 1_555
F1 C29 1_555 1_555
F2 C29 1_555 1_555
F3 C29 1_555 1_555
F7 C33 1_555 1_555
F8 C33 1_555 1_555
F9 C33 1_555 1_555
F18 C34 1_555 1_555
F19 C34 1_555 1_555
F20 C34 1_555 1_555
F26 C38 1_555 1_555
F27 C38 1_555 1_555
F28 C38 1_555 1_555
F35 C39 1_555 1_555
F36 C39 1_555 1_555
F37 C39 1_555 1_555
F44 C43 1_555 1_555
F45 C43 1_555 1_555
F46 C43 1_555 1_555
F53 C48 1_555 1_555
F54 C48 1_555 1_555
F55 C48 1_555 1_555
F59 C44 1_555 1_555
F60 C44 1_555 1_555
F61 C44 1_555 1_555
F65 C49 1_555 1_555
F66 C49 1_555 1_555
F67 C49 1_555 1_555
F71 C53 1_555 1_555
F72 C53 1_555 1_555
F73 C53 1_555 1_555
F77 C54 1_555 1_555
F78 C54 1_555 1_555
F79 C54 1_555 1_555
F83 C58 1_555 1_555
F84 C58 1_555 1_555
F85 C58 1_555 1_555
Cu1D O1D 1_555 1_555
Cu2D O2D 1_555 1_555
Cu2E N4 1_555 1_555
Cu2A N4D 1_555 1_555
Cu4F N2D 1_555 1_555
O1D N3D 1_555 1_555
O2D N6D 1_555 1_555
O3D Cu1D 1_555 1_555
O4D Cu1D 1_555 1_555
O5D Cu1D 1_555 1_555
O6D Cu1D 1_555 1_555
O7D Cu2D 1_555 1_555
O8D Cu2D 1_555 1_555
O9D Cu2D 1_555 1_555
O10D Cu2D 1_555 1_555
O11D Cu3 1_555 1_555
O12D Cu3 1_555 1_555
O13B Cu4 1_555 1_555
O14B Cu4 1_555 1_555
N1D Cu3 1_555 1_555
N2D C2D 1_555 1_555
N2B Cu4 1_555 1_555
N3D C7D 1_555 1_555
N4D C15D 1_555 1_555
N4E Cu2 1_555 1_555
N4A Cu2D 1_555 1_555
N5D Cu1D 1_555 1_555
N6D C21D 1_555 1_555
C1D N1D 1_555 1_555
H1D C1D 1_555 1_555
C2D N1D 1_555 1_555
H2D C2D 1_555 1_555
C3D N2D 1_555 1_555
H3D C3D 1_555 1_555
C4D C1D 1_555 1_555
C5D C4D 1_555 1_555
C6D C5D 1_555 1_555
H4D C6D 1_555 1_555
C7D C6D 1_555 1_555
C8D C7D 1_555 1_555
H5D C8D 1_555 1_555
C9D C8D 1_555 1_555
H6D C9D 1_555 1_555
C10D C5D 1_555 1_555
H7D C10D 1_555 1_555
C11D N3D 1_555 1_555
C12D C11D 1_555 1_555
H8D C12D 1_555 1_555
H9D C12D 1_555 1_555
H10D C12D 1_555 1_555
C13D C11D 1_555 1_555
H11D C13D 1_555 1_555
H12D C13D 1_555 1_555
H13D C13D 1_555 1_555
C14D C11D 1_555 1_555
H14D C14D 1_555 1_555
H15D C14D 1_555 1_555
H16D C14D 1_555 1_555
C15D H17D 1_555 1_555
C16D N4D 1_555 1_555
H18D C16D 1_555 1_555
C17D N5D 1_555 1_555
H19D C17D 1_555 1_555
C18D C15D 1_555 1_555
C19D C18D 1_555 1_555
C20D C19D 1_555 1_555
H20D C20D 1_555 1_555
C21D C20D 1_555 1_555
C22D C21D 1_555 1_555
H21D C22D 1_555 1_555
C23D C22D 1_555 1_555
H22D C23D 1_555 1_555
C24D C19D 1_555 1_555
H23D C24D 1_555 1_555
C25D N6D 1_555 1_555
C26D C25D 1_555 1_555
H24D C26D 1_555 1_555
H25D C26D 1_555 1_555
H26D C26D 1_555 1_555
C27D C25D 1_555 1_555
H27D C27D 1_555 1_555
H28D C27D 1_555 1_555
H29D C27D 1_555 1_555
C28D C25D 1_555 1_555
H30D C28D 1_555 1_555
H31D C28D 1_555 1_555
H32D C28D 1_555 1_555
C29D C30D 1_555 1_555
C30D O3D 1_555 1_555
C31D C30D 1_555 1_555
H33D C31D 1_555 1_555
C32D O4D 1_555 1_555
C33D C32D 1_555 1_555
C34D C35D 1_555 1_555
C35D O5D 1_555 1_555
C36D C35D 1_555 1_555
H34D C36D 1_555 1_555
C37D O6D 1_555 1_555
C38D C37D 1_555 1_555
C39D C40D 1_555 1_555
C40D O7D 1_555 1_555
C41D C40D 1_555 1_555
H35D C41D 1_555 1_555
C42D O8D 1_555 1_555
C43D C42D 1_555 1_555
C44D C45D 1_555 1_555
C45D O9D 1_555 1_555
C46D C45D 1_555 1_555
H36D C46D 1_555 1_555
C47D O10D 1_555 1_555
C48D C47D 1_555 1_555
C49D C50D 1_555 1_555
C50D O11D 1_555 1_555
C51D C50D 1_555 1_555
H37D C51D 1_555 1_555
C52D O12D 1_555 1_555
C53D C52D 1_555 1_555
C54B C55B 1_555 1_555
C55B O13B 1_555 1_555
C56B C55B 1_555 1_555
H38B C56B 1_555 1_555
C57B O14B 1_555 1_555
C58B C57B 1_555 1_555
F1D C29D 1_555 1_555
F2D C29D 1_555 1_555
F3D C29D 1_555 1_555
F7D C33D 1_555 1_555
F8D C33D 1_555 1_555
F9D C33D 1_555 1_555
F18D C34D 1_555 1_555
F19D C34D 1_555 1_555
F20D C34D 1_555 1_555
F26D C38D 1_555 1_555
F27D C38D 1_555 1_555
F28D C38D 1_555 1_555
F35D C39D 1_555 1_555
F36D C39D 1_555 1_555
F37D C39D 1_555 1_555
F44D C43D 1_555 1_555
F45D C43D 1_555 1_555
F46D C43D 1_555 1_555
F53D C48D 1_555 1_555
F54D C48D 1_555 1_555
F55D C48D 1_555 1_555
F59D C44D 1_555 1_555
F60D C44D 1_555 1_555
F61D C44D 1_555 1_555
F65D C49D 1_555 1_555
F66D C49D 1_555 1_555
F67D C49D 1_555 1_555
F71D C53D 1_555 1_555
F72D C53D 1_555 1_555
F73D C53D 1_555 1_555
F77B C54B 1_555 1_555
F78B C54B 1_555 1_555
F79B C54B 1_555 1_555
F83B C58B 1_555 1_555
F84B C58B 1_555 1_555
F85B C58B 1_555 1_555
N2 C2 1_555 1_555
N5 C16 1_555 1_555
C3 C4 1_555 1_555
C9 C10 1_555 1_555
C17 C18 1_555 1_555
C23 C24 1_555 1_555
C31 C32 1_555 1_555
C36 C37 1_555 1_555
C41 C42 1_555 1_555
C46 C47 1_555 1_555
C51 C52 1_555 1_555
C56 C57 1_555 1_555
N5D C16D 1_555 1_555
C3D C4D 1_555 1_555
C9D C10D 1_555 1_555
C17D C18D 1_555 1_555
C23D C24D 1_555 1_555
C31D C32D 1_555 1_555
C36D C37D 1_555 1_555
C41D C42D 1_555 1_555
C46D C47D 1_555 1_555
C51D C52D 1_555 1_555
C56B C57B 1_555 1_555

#END
