
#######################################################################
#
#                 Cambridge Crystallographic Data Centre
#                                CCDC 
#
#######################################################################
#
# If this CIF has been generated from an entry in the Cambridge 
# Structural Database, then it will include bibliographic, chemical, 
# crystal, experimental, refinement or atomic coordinate data resulting 
# from the CCDC's data processing and validation procedures.
#
#######################################################################

data_FALLOT
_chemical_formula_moiety         '(C12 H24 Cu4 N6 S8 W1)n'
_symmetry_cell_setting           orthorhombic
_symmetry_space_group_name_H-M   'P 21 21 21'
_symmetry_Int_Tables_number      19
_space_group_name_Hall           'P 2ac 2ab'
loop_
_symmetry_equiv_pos_site_id
_symmetry_equiv_pos_as_xyz
1 x,y,z
2 1/2+x,1/2-y,-z
3 -x,1/2+y,1/2-z
4 1/2-x,-y,1/2+z
_cell_length_a                   15.591(4)
_cell_length_b                   15.241(4)
_cell_length_c                   12.126(3)
_cell_angle_alpha                90
_cell_angle_beta                 90
_cell_angle_gamma                90
_cell_volume                     2881.41
loop_
_atom_site_label
_atom_site_type_symbol
_atom_site_fract_x
_atom_site_fract_y
_atom_site_fract_z
W1 W 0.01524(3) 0.01810(3) 0.09842(4)
Cu1 Cu 0.1466(1) -0.0125(2) 0.2370(2)
Cu2 Cu 0.1094(1) 0.1526(1) 0.0252(2)
Cu3 Cu -0.1180(1) 0.0709(1) -0.0330(2)
Cu4 Cu -0.0886(1) -0.1116(1) 0.1720(2)
S1 S -0.0302(2) 0.1564(2) 0.0789(3)
S2 S 0.1529(2) 0.0112(2) 0.0492(3)
S3 S 0.0021(2) -0.0255(2) 0.2737(2)
S4 S -0.0630(2) -0.0694(2) -0.0087(2)
S5 S 0.2439(2) 0.4163(3) -0.0411(4)
S6 S -0.1158(2) 0.1037(3) -0.2209(3)
S7 S 0.1947(3) 0.1086(3) 0.3514(4)
S8 S 0.4000(2) -0.1627(3) 0.3063(3)
N1 N 0.2348(9) -0.0929(9) 0.284(1)
C1 C 0.3029(9) -0.122(1) 0.293(1)
N2 N 0.1787(8) 0.257(1) 0.033(1)
C2 C 0.2085(8) 0.3242(8) 0.006(1)
N3 N 0.094(1) 0.256(1) 0.319(1)
C3 C 0.136(1) 0.1932(9) 0.332(1)
N4 N -0.2887(7) 0.088(1) -0.279(1)
C4 C -0.2186(9) 0.093(1) -0.251(1)
S8C S 0.1000(2) 0.1627(3) -0.1937(3)
S5A S -0.2561(2) 0.0837(3) 0.0411(4)
N3B N -0.094(1) -0.244(1) 0.181(1)
N4C N -0.2113(7) -0.088(1) 0.221(1)
Cu3A Cu 0.3820(1) 0.4291(1) 0.0330(2)
Cu2C Cu 0.3906(1) -0.1526(1) 0.5252(2)
Cu4B Cu 0.0886(1) 0.3884(1) 0.3280(2)
Cu4C Cu -0.4114(1) 0.1116(1) -0.3280(2)
N5 N 0.0707(8) -0.0975(9) 0.625(1)
C5 C 0.094(1) -0.008(2) 0.587(2)
C6 C -0.013(2) -0.119(2) 0.578(2)
C7 C 0.140(2) -0.159(2) 0.583(2)
C8 C 0.066(2) -0.101(2) 0.747(2)
N6 N 0.1660(9) 0.689(1) 0.090(1)
C9 C 0.111(3) 0.751(4) 0.142(4)
C10 C 0.236(4) 0.744(4) 0.040(5)
C11 C 0.208(4) 0.633(4) 0.179(5)
C12 C 0.098(4) 0.640(4) 0.034(5)
loop_
_geom_bond_atom_site_label_1
_geom_bond_atom_site_label_2
_geom_bond_site_symmetry_1
_geom_bond_site_symmetry_2
W1 S1 1_555 1_555
Cu1 S2 1_555 1_555
Cu2 S1 1_555 1_555
Cu3 S1 1_555 1_555
Cu4 S3 1_555 1_555
S2 W1 1_555 1_555
S3 W1 1_555 1_555
S4 W1 1_555 1_555
S5 C2 1_555 1_555
S6 Cu3 1_555 1_555
S7 Cu1 1_555 1_555
S8 C1 1_555 1_555
N1 Cu1 1_555 1_555
C1 N1 1_555 1_555
N2 Cu2 1_555 1_555
C2 N2 1_555 1_555
N3 C3 1_555 1_555
C3 S7 1_555 1_555
N4 C4 1_555 1_555
C4 S6 1_555 1_555
N5 C5 1_555 1_555
C6 N5 1_555 1_555
C7 N5 1_555 1_555
C8 N5 1_555 1_555
N6 C9 1_555 1_555
C10 N6 1_555 1_555
C11 N6 1_555 1_555
C12 N6 1_555 1_555
S8C Cu2 1_555 1_555
S5A Cu3 1_555 1_555
N3B Cu4 1_555 1_555
N4C Cu4 1_555 1_555
Cu3A S5 1_555 1_555
Cu2C S8 1_555 1_555
Cu4B N3 1_555 1_555
Cu4C N4 1_555 1_555
Cu1 S3 1_555 1_555
Cu2 S2 1_555 1_555
Cu3 S4 1_555 1_555
Cu4 S4 1_555 1_555

#END
