
#######################################################################
#
#                 Cambridge Crystallographic Data Centre
#                                CCDC 
#
#######################################################################
#
# If this CIF has been generated from an entry in the Cambridge 
# Structural Database, then it will include bibliographic, chemical, 
# crystal, experimental, refinement or atomic coordinate data resulting 
# from the CCDC's data processing and validation procedures.
#
#######################################################################

data_FEYZUF
_chemical_formula_moiety         '(C28 H36 Eu2 N2 O14)n'
_symmetry_cell_setting           orthorhombic
_symmetry_space_group_name_H-M   'P b c n'
_symmetry_Int_Tables_number      60
_space_group_name_Hall           '-P 2n 2ab'
loop_
_symmetry_equiv_pos_site_id
_symmetry_equiv_pos_as_xyz
1 x,y,z
2 1/2-x,1/2-y,1/2+z
3 -x,y,1/2-z
4 1/2+x,1/2-y,-z
5 -x,-y,-z
6 1/2+x,1/2+y,1/2-z
7 x,-y,1/2+z
8 1/2-x,1/2+y,z
_cell_length_a                   21.870(7)
_cell_length_b                   7.652(2)
_cell_length_c                   19.624(6)
_cell_angle_alpha                90
_cell_angle_beta                 90
_cell_angle_gamma                90
_cell_volume                     3284.06
loop_
_atom_site_label
_atom_site_type_symbol
_atom_site_fract_x
_atom_site_fract_y
_atom_site_fract_z
Eu1 Eu 0.780704(11) -0.07523(3) -0.053916(12)
O1 O 0.75128(17) 0.1702(4) 0.01940(17)
O2 O 0.68040(18) 0.3392(5) 0.0613(2)
O3 O 0.68135(18) 0.4989(5) 0.3276(2)
O4 O 0.73859(15) 0.3068(4) 0.37827(17)
O5 O 0.66870(15) -0.0535(4) -0.05430(19)
O6 O 0.63968(15) 0.2219(4) -0.07302(19)
O7 O 0.86984(15) 0.1074(4) -0.03655(17)
H1 H 0.8902 0.0904 -0.0003
H2 H 0.8586 0.2135 -0.0393
C1 C 0.7092(3) 0.2008(7) 0.0636(3)
C2 C 0.6951(3) 0.0633(7) 0.1152(3)
H3 H 0.7329 0.0321 0.1381
H4 H 0.6808 -0.0398 0.0913
H5 H 0.6434 0.0065 0.1965
H6 H 0.6104 0.1278 0.1447
C4 C 0.6556(4) 0.2607(10) 0.2167(3)
H7 H 0.6158 0.2942 0.2341
H8 H 0.6727 0.3601 0.1927
C5 C 0.6970(6) 0.2121(12) 0.2756(5)
H9 H 0.6817 0.1054 0.2961
H10 H 0.7375 0.1877 0.2578
C6 C 0.7024(3) 0.3500(7) 0.3302(3)
C7 C 0.6487(3) 0.1099(8) 0.1685(3)
C11 C 0.6289(2) 0.0617(7) -0.0663(2)
C12 C 0.5629(2) 0.0054(7) -0.0698(3)
H17 H 0.5605 -0.1156 -0.0843
H18 H 0.5413 0.0765 -0.1028
C13 C 0.5335(2) 0.0254(7) -0.0004(3)
H19 H 0.5373 0.1461 0.0142
H20 H 0.5554 -0.0466 0.0322
Eu1G Eu 0.719296(11) -0.57523(3) -0.053916(12)
Eu1G_2 Eu 0.719296(11) 0.42477(3) -0.053916(12)
Eu1A Eu 0.719296(11) 0.57523(3) 0.446084(12)
Eu1F Eu 0.780704(11) 0.07523(3) 0.446084(12)
Eu1D Eu 0.219296(11) 0.07523(3) 0.053916(12)
Eu1C Eu 0.280704(11) -0.42477(3) 0.053916(12)
Eu1A_2 Eu 0.719296(11) -0.42477(3) 0.446084(12)
O1G O 0.74872(17) -0.3298(4) 0.01940(17)
O1_2 O 0.75128(17) -0.8298(4) 0.01940(17)
O2G O 0.81960(18) -0.1608(5) 0.0613(2)
O2_2 O 0.68040(18) -0.6608(5) 0.0613(2)
O3G O 0.81865(18) -0.0011(5) 0.3276(2)
O3A O 0.81865(18) 0.0011(5) -0.1724(2)
O3F O 0.68135(18) -0.4989(5) -0.1724(2)
O4G O 0.76141(15) -0.1932(4) 0.37827(17)
O4F O 0.73859(15) -0.3068(4) -0.12173(17)
O4A O 0.76141(15) 0.1932(4) -0.12173(17)
O4A_2 O 0.76141(15) -0.8068(4) -0.12173(17)
O5D O 0.33130(15) 0.0535(4) 0.05430(19)
O5G O 0.83130(15) -0.5535(4) -0.05430(19)
O6D O 0.36032(15) -0.2219(4) 0.07302(19)
O6G O 0.86032(15) -0.2781(4) -0.07302(19)
O6_2 O 0.63968(15) -0.7781(4) -0.07302(19)
O7G O 0.63016(15) -0.3926(4) -0.03655(17)
H1G H 0.6098 -0.4096 -0.0003
H2G H 0.6414 -0.2865 -0.0393
C1G C 0.7908(3) -0.2992(7) 0.0636(3)
C2G C 0.8049(3) -0.4367(7) 0.1152(3)
H3G H 0.7671 -0.4679 0.1381
H4G H 0.8192 -0.5398 0.0913
H5G H 0.8566 -0.4935 0.1965
H6G H 0.8896 -0.3722 0.1447
C4G C 0.8444(4) -0.2393(10) 0.2167(3)
H7G H 0.8842 -0.2058 0.2341
H8G H 0.8273 -0.1399 0.1927
C5G C 0.8030(6) -0.2879(12) 0.2756(5)
H9G H 0.8183 -0.3946 0.2961
H10G H 0.7625 -0.3123 0.2578
C6G C 0.7976(3) -0.1500(7) 0.3302(3)
C7G C 0.8513(3) -0.3901(8) 0.1685(3)
C11D C 0.3711(2) -0.0617(7) 0.0663(2)
C12D C 0.4371(2) -0.0054(7) 0.0698(3)
H17D H 0.4395 0.1156 0.0843
H18D H 0.4587 -0.0765 0.1028
C13D C 0.4665(2) -0.0254(7) 0.0004(3)
H19D H 0.4627 -0.1461 -0.0142
H20D H 0.4446 0.0466 -0.0322
C14 C 0.5042(3) 0.5594(8) 0.0953(3)
H21 H 0.4795 0.5337 0.0581
C15 C 0.4781(3) 0.5599(7) 0.1585(3)
H22 H 0.4368 0.5343 0.1635
C16 C 0.5132(2) 0.5987(7) 0.2150(3)
C17 C 0.5742(3) 0.6351(8) 0.2035(3)
H23 H 0.6000 0.6626 0.2396
C18 C 0.5964(3) 0.6304(8) 0.1380(3)
H24 H 0.6376 0.6548 0.1314
N1 N 0.5632(2) 0.5936(6) 0.0839(3)
C14B C 0.4958(3) 0.5594(8) 0.4047(3)
H21B H 0.5205 0.5337 0.4419
C15B C 0.5219(3) 0.5599(7) 0.3415(3)
H22B H 0.5632 0.5343 0.3365
C16B C 0.4868(2) 0.5987(7) 0.2850(3)
C17B C 0.4258(3) 0.6351(8) 0.2965(3)
H23B H 0.4000 0.6626 0.2604
C18B C 0.4036(3) 0.6304(8) 0.3620(3)
H24B H 0.3624 0.6548 0.3686
N1B N 0.4368(2) 0.5936(6) 0.4161(3)
loop_
_geom_bond_atom_site_label_1
_geom_bond_atom_site_label_2
_geom_bond_site_symmetry_1
_geom_bond_site_symmetry_2
Eu1 O1 1_555 1_555
O1 C1 1_555 1_555
O2 C1 1_555 1_555
O3 C6 1_555 1_555
O4 C6 1_555 1_555
O5 Eu1 1_555 1_555
O6 C11 1_555 1_555
O7 Eu1 1_555 1_555
H1 O7 1_555 1_555
H2 O7 1_555 1_555
C1 C2 1_555 1_555
C2 H3 1_555 1_555
H4 C2 1_555 1_555
H5 C7 1_555 1_555
H6 C7 1_555 1_555
C4 H7 1_555 1_555
H8 C4 1_555 1_555
C5 C4 1_555 1_555
H9 C5 1_555 1_555
H10 C5 1_555 1_555
C6 C5 1_555 1_555
C7 C2 1_555 1_555
C11 O5 1_555 1_555
C12 C11 1_555 1_555
H17 C12 1_555 1_555
H18 C12 1_555 1_555
C13 C12 1_555 1_555
H19 C13 1_555 1_555
H20 C13 1_555 1_555
C14 H21 1_555 1_555
C15 C14 1_555 1_555
H22 C15 1_555 1_555
C16 C15 1_555 1_555
C17 C16 1_555 1_555
H23 C17 1_555 1_555
C18 C17 1_555 1_555
H24 C18 1_555 1_555
N1 C14 1_555 1_555
Eu1G O1G 1_555 1_555
Eu1G_2 O1 1_555 1_555
Eu1A O3 1_555 1_555
Eu1F O4 1_555 1_555
Eu1D O5D 1_555 1_555
Eu1C O6D 1_555 1_555
Eu1A_2 O4G 1_555 1_555
O1G Eu1 1_555 1_555
O1_2 Eu1G 1_555 1_555
O2G Eu1 1_555 1_555
O2_2 Eu1G 1_555 1_555
O3G Eu1F 1_555 1_555
O3A Eu1 1_555 1_555
O3F Eu1G 1_555 1_555
O4G Eu1F 1_555 1_555
O4F Eu1 1_555 1_555
O4A Eu1 1_555 1_555
O4A_2 Eu1G 1_555 1_555
O5D C11D 1_555 1_555
O5G Eu1G 1_555 1_555
O6D C11D 1_555 1_555
O6G Eu1 1_555 1_555
O6_2 Eu1G 1_555 1_555
O7G Eu1G 1_555 1_555
H1G O7G 1_555 1_555
H2G O7G 1_555 1_555
C1G O1G 1_555 1_555
C2G C1G 1_555 1_555
H3G C2G 1_555 1_555
H4G C2G 1_555 1_555
H5G C7G 1_555 1_555
H6G C7G 1_555 1_555
C4G H7G 1_555 1_555
H8G C4G 1_555 1_555
C5G C4G 1_555 1_555
H9G C5G 1_555 1_555
H10G C5G 1_555 1_555
C6G O3G 1_555 1_555
C7G C2G 1_555 1_555
C11D C12D 1_555 1_555
C12D H17D 1_555 1_555
H18D C12D 1_555 1_555
C13D C13 1_555 1_555
H19D C13D 1_555 1_555
H20D C13D 1_555 1_555
C14B H21B 1_555 1_555
C15B C14B 1_555 1_555
H22B C15B 1_555 1_555
C16B C16 1_555 1_555
C17B C16B 1_555 1_555
H23B C17B 1_555 1_555
C18B C17B 1_555 1_555
H24B C18B 1_555 1_555
N1B C14B 1_555 1_555
O2 Eu1G_2 1_555 1_555
O4 Eu1A 1_555 1_555
O6 Eu1G_2 1_555 1_555
C4 C7 1_555 1_555
C18 N1 1_555 1_555
Eu1G O4F 1_555 1_555
Eu1G_2 O4A 1_555 1_555
O2G C1G 1_555 1_555
O4G C6G 1_555 1_555
C4G C7G 1_555 1_555
C5G C6G 1_555 1_555
C12D C13D 1_555 1_555
C15B C16B 1_555 1_555
C18B N1B 1_555 1_555

#END
