
#######################################################################
#
#                 Cambridge Crystallographic Data Centre
#                                CCDC 
#
#######################################################################
#
# If this CIF has been generated from an entry in the Cambridge 
# Structural Database, then it will include bibliographic, chemical, 
# crystal, experimental, refinement or atomic coordinate data resulting 
# from the CCDC's data processing and validation procedures.
#
#######################################################################

data_FIVJID
_chemical_formula_moiety         '(H1 Ga9 O37 P9 1-)n'
_symmetry_cell_setting           hexagonal
_symmetry_space_group_name_H-M   'P 63'
_symmetry_Int_Tables_number      173
_space_group_name_Hall           'P 6c'
loop_
_symmetry_equiv_pos_site_id
_symmetry_equiv_pos_as_xyz
1 x,y,z
2 -y,x-y,z
3 -x+y,-x,z
4 -x,-y,1/2+z
5 y,-x+y,1/2+z
6 x-y,x,1/2+z
_cell_length_a                   12.2665(32)
_cell_length_b                   12.2665(32)
_cell_length_c                   16.7462(50)
_cell_angle_alpha                90
_cell_angle_beta                 90
_cell_angle_gamma                120
_cell_volume                     2182.17
loop_
_atom_site_label
_atom_site_type_symbol
_atom_site_fract_x
_atom_site_fract_y
_atom_site_fract_z
Ga1 Ga 0.3586(7) 0.4274(7) 0.5000
Ga2 Ga 0.2605(7) 0.2312(7) 0.1731(7)
Ga3 Ga -0.0001(8) 0.1472(8) 0.4384(8)
P1 P 0.5869(16) 0.6885(16) 0.5268(11)
P2 P 0.2656(18) 0.2511(18) 0.3575(12)
P3 P 0.2217(27) 0.1951(27) 0.5982(18)
O1 O 0.0000 -0.0000 0.4179(55)
O2 O 0.3631(40) 0.3607(40) 0.4032(26)
O3 O 0.3027(37) 0.2901(37) 0.2715(27)
O4 O 0.1415(54) 0.2363(55) 0.3667(36)
O5 O 0.2701(39) 0.1356(41) 0.3834(26)
O6 O 0.5211(47) 0.5633(47) 0.5176(33)
O7 O 0.5210(37) 0.7734(36) 0.5070(30)
O8 O 0.5948(47) 0.6960(46) 0.6252(30)
O9 O 0.7275(44) 0.7744(44) 0.5133(31)
O10 O 0.2974(54) 0.1489(53) 0.6496(34)
O11 O 0.1336(61) 0.1908(61) 0.6823(44)
O12 O 0.3208(49) 0.3165(49) 0.5823(33)
O13 O 0.1542(50) 0.1357(50) 0.5216(33)
P1B P 0.1016(23) 0.4131(16) 0.5268(11)
O6B O 0.0422(66) 0.4789(47) 0.5176(33)
O7B O 0.2524(52) 0.4790(37) 0.5070(30)
O8B O 0.1012(66) 0.4052(47) 0.6252(30)
O9B O 0.0469(62) 0.2725(44) 0.5133(31)
Ga1B Ga 0.0688(10) 0.6414(7) 0.5000
Ga1A Ga 0.5726(7) 0.9312(10) 0.5000
Ga2C Ga 0.7395(7) 0.7688(7) 0.6731(7)
Ga2E Ga 0.0293(10) 0.2605(7) 0.6731(7)
Ga3B Ga 0.1473(11) 0.0001(8) 0.4384(8)
Ga3A Ga 0.8528(8) 0.8527(11) 0.4384(8)
P1C P 0.4131(16) 0.3115(16) 0.0268(11)
O6C O 0.4789(47) 0.4367(47) 0.0176(33)
O7C O 0.4790(37) 0.2266(36) 0.0070(30)
O8C O 0.4052(47) 0.3040(46) 0.1252(30)
O9C O 0.2725(44) 0.2256(44) 0.0133(31)
P3E P 0.0266(38) 0.2217(27) 0.0982(18)
O10E O 0.1485(76) 0.2974(54) 0.1496(34)
O11E O -0.0572(86) 0.1336(61) 0.1823(44)
O12E O 0.0043(69) 0.3208(49) 0.0823(33)
O13E O 0.0185(71) 0.1542(50) 0.0216(33)
P3D P 0.1951(27) -0.0266(38) 0.0982(18)
O10D O 0.1489(53) -0.1485(76) 0.1496(34)
O11D O 0.1908(61) 0.0572(86) 0.1823(44)
O12D O 0.3165(49) -0.0043(69) 0.0823(33)
O13D O 0.1357(50) -0.0185(71) 0.0216(33)
P2A P -0.2511(18) 0.0145(25) 0.3575(12)
O2A O -0.3607(40) 0.0024(57) 0.4032(26)
O3A O -0.2901(37) 0.0126(52) 0.2715(27)
O4A O -0.2363(55) -0.0948(77) 0.3667(36)
O5A O -0.1356(41) 0.1345(57) 0.3834(26)
P2B P -0.0145(25) 0.7344(18) 0.3575(12)
O2B O -0.0024(57) 0.6369(40) 0.4032(26)
O3B O -0.0126(52) 0.6973(37) 0.2715(27)
O4B O 0.0948(77) 0.8585(54) 0.3667(36)
O5B O -0.1345(57) 0.7299(39) 0.3834(26)
O13A O -0.1357(50) 0.0185(71) 0.5216(33)
Ga3A_2 Ga -0.1472(8) -0.1473(11) 0.4384(8)
Ga2D Ga 0.2312(7) -0.0293(10) 0.6731(7)
O7A O 0.2266(36) 0.7476(52) 0.5070(30)
O12B O -0.0043(69) 0.6792(49) 0.5823(33)
O2A_2 O 0.6393(40) 1.0024(57) 0.4032(26)
O6A O 0.4367(47) 0.9578(66) 0.5176(33)
O12A O 0.6835(49) 1.0043(69) 0.5823(33)
O3C O 0.6973(37) 0.7099(37) 0.7715(27)
O10B O 0.8515(76) 0.7026(54) 0.6496(34)
O11A O 0.8092(61) 0.9428(86) 0.6823(44)
O3E O 0.0126(52) 0.3027(37) 0.7715(27)
O10A O -0.1489(53) 0.1485(76) 0.6496(34)
O4B_2 O 0.0948(77) -0.1415(54) 0.3667(36)
O9A O 0.2256(44) -0.0469(62) 0.5133(31)
O1_2 O 1.0000 1.0000 0.4179(55)
O4A_2 O 0.7637(55) 0.9052(77) 0.3667(36)
O5B_2 O 0.8655(57) 0.7299(39) 0.3834(26)
O13B O 0.9815(71) 0.8458(50) 0.5216(33)
Ga1C Ga 0.6414(7) 0.5726(7) 0.0000
Ga1D Ga 0.4274(7) 0.0688(10) 0.0000
Ga3D Ga 0.1472(8) 0.1473(11) -0.0616(8)
Ga2A Ga -0.2312(7) 0.0293(10) 0.1731(7)
Ga1E Ga -0.0688(10) 0.3586(7) 0.0000
Ga2B Ga -0.0293(10) -0.2605(7) 0.1731(7)
Ga3C Ga 0.0001(8) -0.1472(8) -0.0616(8)
Ga1A_2 Ga -0.4274(7) -0.0688(10) 0.5000
Ga2B_2 Ga -0.0293(10) 0.7395(7) 0.1731(7)
Ga3B_2 Ga 0.1473(11) 1.0001(8) 0.4384(8)
Ga3A_3 Ga -0.1472(8) 0.8527(11) 0.4384(8)
loop_
_geom_bond_atom_site_label_1
_geom_bond_atom_site_label_2
_geom_bond_site_symmetry_1
_geom_bond_site_symmetry_2
Ga1 O2 1_555 1_555
Ga2 O3 1_555 1_555
Ga3 O1 1_555 1_555
P1 O6 1_555 1_555
P2 O2 1_555 1_555
P3 O10 1_555 1_555
O1 Ga3B 1_555 1_555
O3 P2 1_555 1_555
O4 Ga3 1_555 1_555
O5 P2 1_555 1_555
O6 Ga1 1_555 1_555
O7 P1 1_555 1_555
O8 P1 1_555 1_555
O9 P1 1_555 1_555
O10 Ga2D 1_555 1_555
O11 P3 1_555 1_555
O12 Ga1 1_555 1_555
O13 P3 1_555 1_555
P1B O6B 1_555 1_555
O6B Ga1B 1_555 1_555
O7B Ga1 1_555 1_555
O8B P1B 1_555 1_555
O9B Ga3 1_555 1_555
Ga1B O2B 1_555 1_555
Ga1A O7 1_555 1_555
Ga2C O8 1_555 1_555
Ga2E O11 1_555 1_555
Ga3B O5 1_555 1_555
Ga3A O9 1_555 1_555
P1C O6C 1_555 1_555
O6C Ga1C 1_555 1_555
O7C P1C 1_555 1_555
O8C Ga2 1_555 1_555
O9C P1C 1_555 1_555
P3E O10E 1_555 1_555
O10E Ga2 1_555 1_555
O11E P3E 1_555 1_555
O12E P3E 1_555 1_555
O13E P3E 1_555 1_555
P3D O10D 1_555 1_555
O10D Ga2B 1_555 1_555
O11D Ga2 1_555 1_555
O12D P3D 1_555 1_555
O13D P3D 1_555 1_555
P2A O2A 1_555 1_555
O2A Ga1A_2 1_555 1_555
O3A P2A 1_555 1_555
O4A P2A 1_555 1_555
O5A Ga3 1_555 1_555
P2B O2B 1_555 1_555
O3B P2B 1_555 1_555
O4B P2B 1_555 1_555
O5B P2B 1_555 1_555
O13A Ga3 1_555 1_555
Ga3A_2 O1 1_555 1_555
O7A Ga1B 1_555 1_555
O12B Ga1B 1_555 1_555
O2A_2 Ga1A 1_555 1_555
O6A Ga1A 1_555 1_555
O12A Ga1A 1_555 1_555
O3C Ga2C 1_555 1_555
O10B Ga2C 1_555 1_555
O11A Ga2C 1_555 1_555
O3E Ga2E 1_555 1_555
O10A Ga2E 1_555 1_555
O4B_2 Ga3B 1_555 1_555
O9A Ga3B 1_555 1_555
O1_2 Ga3A 1_555 1_555
O4A_2 Ga3A 1_555 1_555
O5B_2 Ga3A 1_555 1_555
O13B Ga3A 1_555 1_555
Ga1D O7C 1_555 1_555
Ga3D O9C 1_555 1_555
Ga2A O11E 1_555 1_555
Ga1E O12E 1_555 1_555
Ga3C O13D 1_555 1_555
Ga2B_2 O3B 1_555 1_555
Ga3B_2 O4B 1_555 1_555
Ga3A_3 O5B 1_555 1_555
P2 O4 1_555 1_555
P3 O12 1_555 1_555
O13 Ga3B 1_555 1_555
P1B O7B 1_555 1_555
P1B O9B 1_555 1_555
O8B Ga2E 1_555 1_555
P1C O8C 1_555 1_555
O13E Ga3D 1_555 1_555
P3D O11D 1_555 1_555
O12D Ga1D 1_555 1_555
P2A O5A 1_555 1_555
O3A Ga2A 1_555 1_555
O4A Ga3A_2 1_555 1_555

#END
