
#######################################################################
#
#                 Cambridge Crystallographic Data Centre
#                                CCDC 
#
#######################################################################
#
# If this CIF has been generated from an entry in the Cambridge 
# Structural Database, then it will include bibliographic, chemical, 
# crystal, experimental, refinement or atomic coordinate data resulting 
# from the CCDC's data processing and validation procedures.
#
#######################################################################

data_FUSYUO
_chemical_formula_moiety         'C62 H32 Cd4 O16'
_symmetry_cell_setting           trigonal
_symmetry_space_group_name_H-M   'P 31 2 1'
_symmetry_Int_Tables_number      152
_space_group_name_Hall           'P 31 2"'
loop_
_symmetry_equiv_pos_site_id
_symmetry_equiv_pos_as_xyz
1 x,y,z
2 -y,x-y,1/3+z
3 -x+y,-x,2/3+z
4 y,x,-z
5 x-y,-y,2/3-z
6 -x,-x+y,1/3-z
_cell_length_a                   26.698(4)
_cell_length_b                   26.698(4)
_cell_length_c                   7.9535(16)
_cell_angle_alpha                90
_cell_angle_beta                 90
_cell_angle_gamma                120
_cell_volume                     4909.6
loop_
_atom_site_label
_atom_site_type_symbol
_atom_site_fract_x
_atom_site_fract_y
_atom_site_fract_z
O1 O 0.0291(2) 0.4165(3) 0.4355(6)
O2 O 0.0703(3) 0.3911(3) 0.2443(7)
O3 O 0.3208(3) 0.3911(4) 1.4224(7)
O4 O 0.3871(2) 0.4166(3) 1.2315(6)
O5 O 0.4940(5) 0.5613(6) 1.4055(13)
O6 O 0.4402(5) 0.5070(7) 1.5944(14)
Cd1 Cd 0.0000 0.41882(2) 0.1667
Cd2 Cd 0.4188 0.41882(2) 1.5000
C1 C 0.0655(3) 0.4027(3) 0.3931(8)
C2 C 0.10252(18) 0.3974(3) 0.5272(4)
C3 C 0.1447(2) 0.3840(3) 0.4808(4)
H1 H 0.1489 0.3771 0.3685
C4 C 0.18062(19) 0.3811(2) 0.6021(4)
H2 H 0.2088 0.3722 0.5711
C5 C 0.17434(12) 0.39149(14) 0.7699(3)
C6 C 0.13215(17) 0.4048(3) 0.8163(4)
H3 H 0.1279 0.4118 0.9286
C7 C 0.0962(2) 0.4077(3) 0.6949(5)
H4 H 0.0680 0.4167 0.7260
C8 C 0.21761(13) 0.39262(14) 0.8959(4)
C9 C 0.27292(16) 0.4053(3) 0.8495(4)
H5 H 0.2841 0.4121 0.7372
C10 C 0.31153(18) 0.4076(3) 0.9708(5)
H6 H 0.3485 0.4161 0.9397
C11 C 0.29483(19) 0.3973(3) 1.1385(4)
C12 C 0.23953(19) 0.3847(3) 1.1850(4)
H7 H 0.2284 0.3778 1.2972
C13 C 0.20092(15) 0.3823(2) 1.0637(4)
H8 H 0.1639 0.3739 1.0948
C14 C 0.3368(3) 0.4020(3) 1.2743(9)
C15 C 0.4546(4) 0.5451(5) 1.5001(14)
C16 C 0.4484(5) 0.5952(6) 1.5701(12)
C17 C 0.4692(6) 0.6399(7) 1.4534(11)
H9 H 0.4814 0.6351 1.3482
C18 C 0.4716(5) 0.6917(6) 1.4938(9)
H10 H 0.4856 0.7217 1.4157
C19 C 0.4533(3) 0.6989(4) 1.6510(7)
C20 C 0.4325(5) 0.6542(6) 1.7677(9)
H11 H 0.4202 0.6589 1.8729
C21 C 0.4300(5) 0.6023(6) 1.7273(12)
H12 H 0.4161 0.5724 1.8054
C22 C 0.4511(3) 0.7539(4) 1.6844(7)
C23 C 0.4304(5) 0.7781(6) 1.5684(9)
H13 H 0.4175 0.7610 1.4637
C24 C 0.4291(5) 0.8281(6) 1.6091(12)
H14 H 0.4152 0.8443 1.5315
C25 C 0.4054(5) 0.5517(6) 1.4323(12)
C26 C 0.3605(6) 0.5310(7) 1.5482(11)
H15 H 0.3647 0.5181 1.6530
C27 C 0.4704(5) 0.7795(6) 1.8409(9)
H16 H 0.4842 0.7633 1.9185
O1C O 0.4165(3) 0.0291(2) 2.5645(6)
O2C O 0.3911(3) 0.0703(3) 2.7557(7)
O3C O 0.3911(4) 0.3208(3) 1.5776(7)
O4C O 0.4166(3) 0.3871(2) 1.7685(6)
C1C C 0.4027(3) 0.0655(3) 2.6069(8)
C2C C 0.3974(3) 0.10252(18) 2.4728(4)
C3C C 0.3840(3) 0.1447(2) 2.5192(4)
H1C H 0.3771 0.1489 2.6315
C4C C 0.3811(2) 0.18062(19) 2.3979(4)
H2C H 0.3722 0.2088 2.4289
C5C C 0.39149(14) 0.17434(12) 2.2301(3)
C6C C 0.4048(3) 0.13215(17) 2.1837(4)
H3C H 0.4118 0.1279 2.0714
C7C C 0.4077(3) 0.0962(2) 2.3051(5)
H4C H 0.4167 0.0680 2.2740
C8C C 0.39262(14) 0.21761(13) 2.1041(4)
C9C C 0.4053(3) 0.27292(16) 2.1505(4)
H5C H 0.4121 0.2841 2.2628
C10C C 0.4076(3) 0.31153(18) 2.0292(5)
H6C H 0.4161 0.3485 2.0603
C11C C 0.3973(3) 0.29483(19) 1.8615(4)
C12C C 0.3847(3) 0.23953(19) 1.8150(4)
H7C H 0.3778 0.2284 1.7028
C13C C 0.3823(2) 0.20092(15) 1.9363(4)
H8C H 0.3739 0.1639 1.9052
C14C C 0.4020(3) 0.3368(3) 1.7257(9)
O5C O 0.5613(6) 0.4940(5) 1.5945(13)
O6C O 0.5070(7) 0.4402(5) 1.4056(14)
C15C C 0.5451(5) 0.4546(4) 1.4999(14)
C16C C 0.5952(6) 0.4484(5) 1.4299(12)
C17C C 0.6399(7) 0.4692(6) 1.5466(11)
H9C H 0.6351 0.4814 1.6518
C18C C 0.6917(6) 0.4716(5) 1.5062(9)
H10C H 0.7217 0.4856 1.5843
C19C C 0.6989(4) 0.4533(3) 1.3490(7)
C20C C 0.6542(6) 0.4325(5) 1.2323(9)
H11C H 0.6589 0.4202 1.1271
C21C C 0.6023(6) 0.4300(5) 1.2727(12)
H12C H 0.5724 0.4161 1.1946
C22C C 0.7539(4) 0.4511(3) 1.3156(7)
C23C C 0.7781(6) 0.4304(5) 1.4316(9)
H13C H 0.7610 0.4175 1.5363
C24C C 0.8281(6) 0.4291(5) 1.3909(12)
H14C H 0.8443 0.4152 1.4685
C25C C 0.5517(6) 0.4054(5) 1.5677(12)
C26C C 0.5310(7) 0.3605(6) 1.4518(11)
H15C H 0.5181 0.3647 1.3470
C27C C 0.7795(6) 0.4704(5) 1.1591(9)
H16C H 0.7633 0.4842 1.0815
O1E O -0.0291(2) 0.3874(4) -0.1022(6)
O2E O -0.0703(3) 0.3208(4) 0.0890(7)
O5B O 0.0673(8) 0.5060(5) 0.0722(13)
O5D O -0.0673(8) 0.4387(6) 0.2612(13)
Cd1A Cd 0.58118(2) 0.58118(2) 1.5000
Cd1B Cd 0.41882(2) 0.0000 2.8334
C24B C 0.3990(8) 0.5709(5) 1.2758(12)
C24E C 0.5709(5) 0.3990(8) 1.7242(12)
C25A C 0.4483(6) 0.8537(8) 1.7656(12)
C25D C 0.8537(8) 0.4483(6) 1.2344(12)
C26A C 0.4690(7) 0.8295(9) 1.8815(11)
C26D C 0.8295(9) 0.4690(7) 1.1185(11)
C27B C 0.3091(8) 0.5296(5) 1.5076(9)
C27E C 0.5296(5) 0.3091(8) 1.4924(9)
loop_
_geom_bond_atom_site_label_1
_geom_bond_atom_site_label_2
_geom_bond_site_symmetry_1
_geom_bond_site_symmetry_2
O1 Cd1 1_555 1_555
O2 Cd1 1_555 1_555
O3 Cd2 1_555 1_555
O4 Cd2 1_555 1_555
O5 C15 1_555 1_555
O6 Cd2 1_555 1_555
Cd1 O1E 1_555 1_555
Cd2 O3C 1_555 1_555
C1 O1 1_555 1_555
C2 C1 1_555 1_555
C3 C2 1_555 1_555
H1 C3 1_555 1_555
C4 C3 1_555 1_555
H2 C4 1_555 1_555
C5 C4 1_555 1_555
C6 C5 1_555 1_555
H3 C6 1_555 1_555
C7 C2 1_555 1_555
H4 C7 1_555 1_555
C8 C5 1_555 1_555
C9 C8 1_555 1_555
H5 C9 1_555 1_555
C10 C9 1_555 1_555
H6 C10 1_555 1_555
C11 C10 1_555 1_555
C12 C11 1_555 1_555
H7 C12 1_555 1_555
C13 C8 1_555 1_555
H8 C13 1_555 1_555
C14 O3 1_555 1_555
C15 O6 1_555 1_555
C16 C15 1_555 1_555
C17 C16 1_555 1_555
H9 C17 1_555 1_555
C18 C17 1_555 1_555
H10 C18 1_555 1_555
C19 C18 1_555 1_555
C20 C19 1_555 1_555
H11 C20 1_555 1_555
C21 C16 1_555 1_555
H12 C21 1_555 1_555
C22 C19 1_555 1_555
C23 C22 1_555 1_555
H13 C23 1_555 1_555
C24 C23 1_555 1_555
H14 C24 1_555 1_555
C25 C15 1_555 1_555
C26 C25 1_555 1_555
H15 C26 1_555 1_555
C27 C22 1_555 1_555
H16 C27 1_555 1_555
O1C C1C 1_555 1_555
O2C C1C 1_555 1_555
O3C C14C 1_555 1_555
O4C Cd2 1_555 1_555
C1C C2C 1_555 1_555
C2C C3C 1_555 1_555
C3C H1C 1_555 1_555
C4C C3C 1_555 1_555
H2C C4C 1_555 1_555
C5C C4C 1_555 1_555
C6C C5C 1_555 1_555
H3C C6C 1_555 1_555
C7C C2C 1_555 1_555
H4C C7C 1_555 1_555
C8C C5C 1_555 1_555
C9C C8C 1_555 1_555
H5C C9C 1_555 1_555
C10C C9C 1_555 1_555
H6C C10C 1_555 1_555
C11C C10C 1_555 1_555
C12C C11C 1_555 1_555
H7C C12C 1_555 1_555
C13C C8C 1_555 1_555
H8C C13C 1_555 1_555
C14C O4C 1_555 1_555
O5C C15C 1_555 1_555
O6C Cd2 1_555 1_555
C15C O6C 1_555 1_555
C16C C15C 1_555 1_555
C17C C16C 1_555 1_555
H9C C17C 1_555 1_555
C18C C17C 1_555 1_555
H10C C18C 1_555 1_555
C19C C18C 1_555 1_555
C20C C19C 1_555 1_555
H11C C20C 1_555 1_555
C21C C16C 1_555 1_555
H12C C21C 1_555 1_555
C22C C19C 1_555 1_555
C23C C22C 1_555 1_555
H13C C23C 1_555 1_555
C24C C23C 1_555 1_555
H14C C24C 1_555 1_555
C25C C15C 1_555 1_555
C26C C25C 1_555 1_555
H15C C26C 1_555 1_555
C27C C22C 1_555 1_555
H16C C27C 1_555 1_555
O2E Cd1 1_555 1_555
O5B Cd1 1_555 1_555
O5D Cd1 1_555 1_555
Cd1A O5 1_555 1_555
Cd1B O1C 1_555 1_555
C24B C25 1_555 1_555
C24E C25C 1_555 1_555
C25A C24 1_555 1_555
C25D C24C 1_555 1_555
C26A C27 1_555 1_555
C26D C27C 1_555 1_555
C27B C26 1_555 1_555
C27E C26C 1_555 1_555
O2 C1 1_555 1_555
O4 C14 1_555 1_555
C6 C7 1_555 1_555
C11 C14 1_555 1_555
C12 C13 1_555 1_555
C20 C21 1_555 1_555
O2C Cd1B 1_555 1_555
C6C C7C 1_555 1_555
C11C C14C 1_555 1_555
C12C C13C 1_555 1_555
O5C Cd1A 1_555 1_555
C20C C21C 1_555 1_555
C25A C26A 1_555 1_555
C25D C26D 1_555 1_555

#END
