
#######################################################################
#
#                 Cambridge Crystallographic Data Centre
#                                CCDC 
#
#######################################################################
#
# If this CIF has been generated from an entry in the Cambridge 
# Structural Database, then it will include bibliographic, chemical, 
# crystal, experimental, refinement or atomic coordinate data resulting 
# from the CCDC's data processing and validation procedures.
#
#######################################################################

data_GAPDEH
_chemical_formula_moiety         '(C19 H12 Cd1 K1 N4 O13 1-)n'
_symmetry_cell_setting           tetragonal
_symmetry_space_group_name_H-M   'P 41'
_symmetry_Int_Tables_number      76
_space_group_name_Hall           'P 4w'
loop_
_symmetry_equiv_pos_site_id
_symmetry_equiv_pos_as_xyz
1 x,y,z
2 -x,-y,1/2+z
3 -y,x,1/4+z
4 y,-x,3/4+z
_cell_length_a                   10.1860(10)
_cell_length_b                   10.1860(10)
_cell_length_c                   24.367(5)
_cell_angle_alpha                90
_cell_angle_beta                 90
_cell_angle_gamma                90
_cell_volume                     2528.19
loop_
_atom_site_label
_atom_site_type_symbol
_atom_site_fract_x
_atom_site_fract_y
_atom_site_fract_z
Cd1 Cd 0.09765(4) -0.23870(4) 0.00090(3)
C1 C 0.0907(7) 0.5088(6) -0.0439(4)
C2 C 0.0856(6) 0.3805(6) -0.0763(4)
C3 C 0.0758(5) 0.3809(6) -0.1329(3)
H1 H 0.0733 0.4622 -0.1528
C4 C 0.0735(6) 0.2635(6) -0.1592(3)
C5 C 0.0811(6) 0.1420(6) -0.1318(4)
H2 H 0.0776 0.0617 -0.1524
C6 C 0.0896(6) 0.1420(6) -0.0765(4)
C7 C 0.0916(7) 0.2631(6) -0.0475(5)
H3 H 0.0935 0.2645 -0.0081
C8 C 0.0996(7) 0.0132(7) -0.0461(4)
C9 C -0.1488(6) -0.2457(6) 0.0496(4)
C10 C -0.2791(5) -0.2515(6) 0.0789(3)
C11 C -0.2834(6) -0.2543(6) 0.1363(4)
H4 H -0.2033 -0.2504 0.1570
C12 C -0.4036(6) -0.2579(7) 0.1630(4)
C13 C -0.5219(6) -0.2555(7) 0.1331(4)
H5 H -0.6048 -0.2554 0.1519
C14 C -0.5190(6) -0.2542(7) 0.0755(3)
C15 C -0.3979(5) -0.2510(5) 0.0490(3)
C16 C -0.6450(7) -0.2469(7) 0.0431(4)
H6 H -0.3957 -0.2457 0.0117
O1 O 0.0985(6) 0.5099(5) 0.0057(4)
O2 O 0.0874(7) 0.6158(5) -0.0716(3)
O3 O 0.1377(6) 0.0124(5) 0.0018(5)
O4 O 0.0660(5) -0.0879(5) -0.0703(3)
O5 O 0.0458(8) 0.3640(7) -0.2444(4)
O6 O 0.0588(9) 0.1570(6) -0.2422(3)
O7 O -0.1472(5) -0.2417(6) 0.0005(4)
O8 O -0.0458(4) -0.2448(6) 0.0783(3)
O9 O -0.6423(5) -0.2569(7) -0.0067(4)
O10 O -0.7494(4) -0.2382(6) 0.0698(2)
O11 O -0.5065(8) -0.3107(15) 0.2443(4)
O12 O -0.3169(9) -0.247(2) 0.2465(4)
N1 N 0.0598(6) 0.2589(7) -0.2191(4)
N2 N -0.4098(5) -0.2638(7) 0.2207(3)
Cd1_2 Cd 0.09765(4) 0.76130(4) 0.00090(3)
O1_2 O 0.0985(6) -0.4901(5) 0.0057(4)
O2_2 O 0.0874(7) -0.3842(5) -0.0716(3)
Cd1_3 Cd -0.90235(4) -0.23870(4) 0.00090(3)
O10_2 O 0.2506(4) -0.2382(6) 0.0698(2)
C17 C -0.2454(19) 0.4130(11) 0.166(2)
C18 C -0.378(3) 0.4059(15) 0.2136(10)
C19 C -0.465(3) 0.394(3) 0.1725(17)
N3 N -0.353(5) 0.4180(14) 0.1310(9)
N4 N -0.323(7) 0.441(6) 0.191(3)
H7 H -0.3904 0.4397 0.2508
H8 H -0.3947 0.4473 0.0966
H9 H -0.1894 0.4146 0.1175
H10 H -0.5351 0.4409 0.1631
K1 K -0.4654(8) 0.8207(13) -0.0889(5)
O13 O 0.1623(12) 0.7135(16) -0.1772(5)
H11 H 0.1016 0.7690 -0.1623
H12 H 0.1955 0.8077 -0.1654
loop_
_geom_bond_atom_site_label_1
_geom_bond_atom_site_label_2
_geom_bond_site_symmetry_1
_geom_bond_site_symmetry_2
Cd1 O3 1_555 1_555
C1 C2 1_555 1_555
C2 C3 1_555 1_555
C3 H1 1_555 1_555
C4 C3 1_555 1_555
C5 C4 1_555 1_555
H2 C5 1_555 1_555
C6 C5 1_555 1_555
C7 C2 1_555 1_555
H3 C7 1_555 1_555
C8 C6 1_555 1_555
C9 C10 1_555 1_555
C10 C11 1_555 1_555
C11 H4 1_555 1_555
C12 C11 1_555 1_555
C13 C12 1_555 1_555
H5 C13 1_555 1_555
C14 C13 1_555 1_555
C15 C10 1_555 1_555
C16 C14 1_555 1_555
H6 C15 1_555 1_555
O1 C1 1_555 1_555
O2 C1 1_555 1_555
O3 C8 1_555 1_555
O4 Cd1 1_555 1_555
O5 N1 1_555 1_555
O6 N1 1_555 1_555
O7 Cd1 1_555 1_555
O8 Cd1 1_555 1_555
O9 C16 1_555 1_555
O10 C16 1_555 1_555
O11 N2 1_555 1_555
O12 N2 1_555 1_555
N1 C4 1_555 1_555
N2 C12 1_555 1_555
C17 N3 1_555 1_555
C18 C19 1_555 1_555
C19 N3 1_555 1_555
N3 H8 1_555 1_555
N4 C17 1_555 1_555
H7 C18 1_555 1_555
H9 C17 1_555 1_555
H10 C19 1_555 1_555
O13 H11 1_555 1_555
H12 O13 1_555 1_555
Cd1_2 O1 1_555 1_555
O1_2 Cd1 1_555 1_555
O2_2 Cd1 1_555 1_555
Cd1_3 O10 1_555 1_555
O10_2 Cd1 1_555 1_555
C6 C7 1_555 1_555
C8 O4 1_555 1_555
C9 O7 1_555 1_555
C9 O8 1_555 1_555
C14 C15 1_555 1_555
O2 Cd1_2 1_555 1_555
C18 N4 1_555 1_555

#END
