
#######################################################################
#
#                 Cambridge Crystallographic Data Centre
#                                CCDC 
#
#######################################################################
#
# If this CIF has been generated from an entry in the Cambridge 
# Structural Database, then it will include bibliographic, chemical, 
# crystal, experimental, refinement or atomic coordinate data resulting 
# from the CCDC's data processing and validation procedures.
#
#######################################################################

data_GARTEB
_chemical_formula_moiety         '(C13 H11 N2 O8 Tb1)n'
_symmetry_cell_setting           triclinic
_symmetry_space_group_name_H-M   'P -1'
_symmetry_Int_Tables_number      2
_space_group_name_Hall           '-P 1'
loop_
_symmetry_equiv_pos_site_id
_symmetry_equiv_pos_as_xyz
1 x,y,z
2 -x,-y,-z
_cell_length_a                   9.0808(5)
_cell_length_b                   9.6410(5)
_cell_length_c                   11.6416(6)
_cell_angle_alpha                108.051(5)
_cell_angle_beta                 94.170(4)
_cell_angle_gamma                108.174(5)
_cell_volume                     904.367
loop_
_atom_site_label
_atom_site_type_symbol
_atom_site_fract_x
_atom_site_fract_y
_atom_site_fract_z
Tb1 Tb 0.27890(6) 1.02876(6) -0.00848(5)
O1 O 0.4225(8) 0.8907(9) 0.0507(7)
O2 O 0.3012(9) 0.8809(9) 0.7871(7)
O3 O -0.0886(9) 0.2256(9) 0.0758(7)
O4 O 0.5760(9) 0.7607(9) 0.0779(7)
O5 O 0.1168(8) 0.9839(8) 0.7944(7)
O6 O 0.1764(9) 0.9888(9) 0.1739(7)
O7 O 0.4628(10) 1.2287(10) 0.1724(7)
C1 C -0.0436(15) 0.5635(15) 0.2102(11)
C2 C 0.0551(12) 0.2694(12) 0.0737(9)
N1 N 0.1919(10) 0.6952(10) 0.1463(8)
N2 N 0.0899(10) 0.5587(10) 0.1457(8)
C3 C 0.2881(12) 0.5041(12) 0.0706(9)
C4 C 0.4446(11) 0.7791(11) 0.0750(8)
C5 C 0.1845(13) 0.8943(13) 0.7339(10)
C6 C 0.3132(12) 0.6591(12) 0.0985(9)
C7 C 0.1212(13) 0.8044(13) 0.5979(10)
C8 C 0.1454(13) 0.4404(13) 0.1005(10)
C9 C 0.0151(13) 0.6481(14) 0.3475(10)
C10 C 0.1268(16) 0.6122(16) 0.4114(12)
C11 C 0.1807(15) 0.6912(16) 0.5346(12)
C12 C 0.0071(17) 0.8343(17) 0.5361(13)
C13 C -0.0440(17) 0.7591(17) 0.4106(13)
O8 O 0.1358(8) 0.1837(9) 0.0468(6)
H1 H 0.367(16) 0.458(16) 0.026(12)
H2 H 0.277(16) 0.653(16) 0.568(13)
H3 H -0.116(17) 0.475(17) 0.191(13)
H4 H 0.195(16) 0.563(16) 0.369(13)
H5 H -0.077(10) 0.895(13) 0.564(5)
H6 H -0.125(16) 0.763(16) 0.347(13)
H7 H -0.087(15) 0.643(12) 0.179(12)
Tb1_2 Tb 0.27890(6) 0.02876(6) -0.00848(5)
Tb1_3 Tb 0.27890(6) 1.02876(6) 0.99152(5)
Tb1A Tb -0.27890(6) -0.02876(6) 0.00848(5)
Tb1A_2 Tb 0.72110(6) 0.97124(6) 0.00848(5)
O1A O 0.5775(8) 1.1093(9) -0.0507(7)
O2_2 O 0.3012(9) 0.8809(9) -0.2129(7)
O3A O 0.0886(9) 0.7744(9) -0.0758(7)
O4A O 0.4240(9) 1.2393(9) -0.0779(7)
O5_2 O 0.1168(8) 0.9839(8) -0.2056(7)
O8_2 O 0.1358(8) 1.1837(9) 0.0468(6)
loop_
_geom_bond_atom_site_label_1
_geom_bond_atom_site_label_2
_geom_bond_site_symmetry_1
_geom_bond_site_symmetry_2
Tb1 O1 1_555 1_555
O1 C4 1_555 1_555
O2 C5 1_555 1_555
O3 C2 1_555 1_555
O4 C4 1_555 1_555
O5 C5 1_555 1_555
O6 Tb1 1_555 1_555
O7 Tb1 1_555 1_555
C1 N2 1_555 1_555
C2 C8 1_555 1_555
N1 N2 1_555 1_555
N2 C8 1_555 1_555
C3 C6 1_555 1_555
C4 C6 1_555 1_555
C5 C7 1_555 1_555
C6 N1 1_555 1_555
C7 C11 1_555 1_555
C8 C3 1_555 1_555
C9 C1 1_555 1_555
C10 C9 1_555 1_555
C11 C10 1_555 1_555
C12 C7 1_555 1_555
C13 C9 1_555 1_555
O8 C2 1_555 1_555
H1 C3 1_555 1_555
H2 C11 1_555 1_555
H3 C1 1_555 1_555
H4 C10 1_555 1_555
H5 C12 1_555 1_555
H6 C13 1_555 1_555
H7 C1 1_555 1_555
Tb1_2 O8 1_555 1_555
Tb1_3 O2 1_555 1_555
Tb1A O3 1_555 1_555
Tb1A_2 O1 1_555 1_555
O1A Tb1 1_555 1_555
O2_2 Tb1 1_555 1_555
O3A Tb1 1_555 1_555
O4A Tb1 1_555 1_555
O5_2 Tb1 1_555 1_555
O8_2 Tb1 1_555 1_555
O4 Tb1A_2 1_555 1_555
O5 Tb1_3 1_555 1_555
C12 C13 1_555 1_555
Tb1A_2 O1A 1_555 1_555

#END
