
#######################################################################
#
#                 Cambridge Crystallographic Data Centre
#                                CCDC 
#
#######################################################################
#
# If this CIF has been generated from an entry in the Cambridge 
# Structural Database, then it will include bibliographic, chemical, 
# crystal, experimental, refinement or atomic coordinate data resulting 
# from the CCDC's data processing and validation procedures.
#
#######################################################################

data_GIRDUI
_chemical_formula_moiety         '(C30 H28 Co2 N4 O10)n'
_symmetry_cell_setting           monoclinic
_symmetry_space_group_name_H-M   'P 21/c'
_symmetry_Int_Tables_number      14
_space_group_name_Hall           '-P 2ybc'
loop_
_symmetry_equiv_pos_site_id
_symmetry_equiv_pos_as_xyz
1 x,y,z
2 -x,1/2+y,1/2-z
3 -x,-y,-z
4 x,1/2-y,1/2+z
_cell_length_a                   14.224(4)
_cell_length_b                   14.726(4)
_cell_length_c                   8.287(2)
_cell_angle_alpha                90
_cell_angle_beta                 99.696(4)
_cell_angle_gamma                90
_cell_volume                     1711.02
loop_
_atom_site_label
_atom_site_type_symbol
_atom_site_fract_x
_atom_site_fract_y
_atom_site_fract_z
Co1 Co 0.88009(2) 0.91744(2) 0.09407(4)
C1 C 0.90199(19) 0.72319(16) 0.1054(3)
C2 C 0.98159(17) 0.75574(15) 0.2355(3)
C3 C 1.04159(18) 0.69795(16) 0.3373(3)
C4 C 1.11913(18) 0.73578(17) 0.4372(3)
H1 H 1.1613 0.6980 0.5043
C5 C 1.13579(19) 0.82785(17) 0.4403(3)
C6 C 1.06907(19) 0.88121(17) 0.3406(3)
H2 H 1.0767 0.9439 0.3442
C7 C 1.2191(2) 0.8711(2) 0.5477(4)
H3 H 1.2354 0.9263 0.4947
H4 H 1.1991 0.8886 0.6496
C8 C 1.3043(3) 0.8167(3) 0.5867(7)
H5 H 1.2911 0.7641 0.6476
H6 H 1.3537 0.8519 0.6512
H7 H 1.3249 0.7979 0.4873
C9 C 1.02472(19) 0.59740(16) 0.3529(3)
C10 C 0.7443(2) 0.9274(2) -0.2199(4)
H8 H 0.7924 0.8904 -0.2466
C11 C 0.6670(2) 0.9440(2) -0.3387(4)
H9 H 0.6639 0.9192 -0.4427
C12 C 0.5940(2) 0.9973(2) -0.3036(4)
C13 C 0.6055(2) 1.0330(3) -0.1480(4)
H10 H 0.5585 1.0703 -0.1184
C14 C 0.6853(2) 1.0141(2) -0.0366(4)
H11 H 0.6911 1.0398 0.0672
C15 C 0.5087(2) 1.0155(2) -0.4240(4)
H12 H 0.4624 1.0523 -0.3908
N1 N 0.99448(15) 0.84633(13) 0.2400(2)
N2 N 0.75514(15) 0.96074(14) -0.0695(3)
O1 O 0.84196(13) 0.78249(11) 0.0419(2)
O2 O 0.90076(13) 0.64246(12) 0.0660(2)
O3 O 0.95042(12) 0.57107(11) 0.3972(2)
O4 O 1.09203(13) 0.54737(11) 0.3269(2)
O5 O 0.79510(14) 0.91149(12) 0.2853(2)
H13 H 0.8304 0.9006 0.3766
H14 H 0.7421 0.8854 0.2886
C10B C 0.2557(2) 1.0726(2) -0.7801(4)
H8B H 0.2076 1.1096 -0.7534
C11B C 0.3330(2) 1.0560(2) -0.6613(4)
H9B H 0.3361 1.0808 -0.5573
C12B C 0.4060(2) 1.0027(2) -0.6964(4)
C13B C 0.3945(2) 0.9670(3) -0.8520(4)
H10B H 0.4415 0.9297 -0.8816
C14B C 0.3147(2) 0.9859(2) -0.9634(4)
H11B H 0.3089 0.9602 -1.0672
C15B C 0.4913(2) 0.9845(2) -0.5760(4)
H12B H 0.5376 0.9477 -0.6092
N2B N 0.24486(15) 1.03926(14) -0.9305(3)
Co1B Co 0.11991(2) 1.08256(2) -1.09407(4)
C1B C 0.09801(19) 1.27681(16) -1.1054(3)
C2B C 0.01841(17) 1.24426(15) -1.2355(3)
C3B C -0.04159(18) 1.30205(16) -1.3373(3)
C4B C -0.11913(18) 1.26422(17) -1.4372(3)
H1B H -0.1613 1.3020 -1.5043
C5B C -0.13579(19) 1.17215(17) -1.4403(3)
C6B C -0.06907(19) 1.11879(17) -1.3406(3)
H2B H -0.0767 1.0561 -1.3442
C7B C -0.2191(2) 1.1289(2) -1.5477(4)
H3B H -0.2354 1.0737 -1.4947
H4B H -0.1991 1.1114 -1.6496
C8B C -0.3043(3) 1.1833(3) -1.5867(7)
H5B H -0.2911 1.2359 -1.6476
H6B H -0.3537 1.1481 -1.6512
H7B H -0.3249 1.2021 -1.4873
C9B C -0.02472(19) 1.40260(16) -1.3529(3)
N1B N 0.00552(15) 1.15367(13) -1.2400(2)
O1B O 0.15804(13) 1.21751(11) -1.0419(2)
O2B O 0.09924(13) 1.35754(12) -1.0660(2)
O3B O 0.04958(12) 1.42893(11) -1.3972(2)
O4B O -0.09203(13) 1.45263(11) -1.3269(2)
O5B O 0.20490(14) 1.08851(12) -1.2853(2)
H13B H 0.1696 1.0994 -1.3766
H14B H 0.2579 1.1146 -1.2886
Co1A Co 0.11991(2) 1.41744(2) -1.59407(4)
Co1A_2 Co 1.11991(2) 0.41744(2) 0.40593(4)
Co1C Co -0.11991(2) 1.58256(2) -1.40593(4)
Co1C_2 Co 0.88009(2) 0.58256(2) 0.59407(4)
O3A O 0.04958(12) 1.07107(11) -0.8972(2)
O3C O 0.95042(12) 0.92893(11) -0.1028(2)
O4A O 0.90797(13) 1.04737(11) 0.1731(2)
O4C O 0.09203(13) 0.95263(11) -1.1731(2)
loop_
_geom_bond_atom_site_label_1
_geom_bond_atom_site_label_2
_geom_bond_site_symmetry_1
_geom_bond_site_symmetry_2
Co1 N1 1_555 1_555
C1 C2 1_555 1_555
C2 C3 1_555 1_555
C3 C4 1_555 1_555
C4 H1 1_555 1_555
C5 C4 1_555 1_555
C6 C5 1_555 1_555
H2 C6 1_555 1_555
C7 C5 1_555 1_555
H3 C7 1_555 1_555
H4 C7 1_555 1_555
C8 C7 1_555 1_555
H5 C8 1_555 1_555
H6 C8 1_555 1_555
H7 C8 1_555 1_555
C9 C3 1_555 1_555
C10 H8 1_555 1_555
C11 C10 1_555 1_555
H9 C11 1_555 1_555
C12 C11 1_555 1_555
C13 C12 1_555 1_555
H10 C13 1_555 1_555
C14 C13 1_555 1_555
H11 C14 1_555 1_555
C15 C12 1_555 1_555
H12 C15 1_555 1_555
N1 C2 1_555 1_555
N2 Co1 1_555 1_555
O1 Co1 1_555 1_555
O2 C1 1_555 1_555
O3 C9 1_555 1_555
O4 C9 1_555 1_555
O5 Co1 1_555 1_555
H13 O5 1_555 1_555
H14 O5 1_555 1_555
C10B H8B 1_555 1_555
C11B C10B 1_555 1_555
H9B C11B 1_555 1_555
C12B C11B 1_555 1_555
C13B C12B 1_555 1_555
H10B C13B 1_555 1_555
C14B C13B 1_555 1_555
H11B C14B 1_555 1_555
C15B C15 1_555 1_555
H12B C15B 1_555 1_555
N2B C10B 1_555 1_555
Co1B N2B 1_555 1_555
C1B C2B 1_555 1_555
C2B C3B 1_555 1_555
C3B C4B 1_555 1_555
C4B H1B 1_555 1_555
C5B C4B 1_555 1_555
C6B C5B 1_555 1_555
H2B C6B 1_555 1_555
C7B C5B 1_555 1_555
H3B C7B 1_555 1_555
H4B C7B 1_555 1_555
C8B C7B 1_555 1_555
H5B C8B 1_555 1_555
H6B C8B 1_555 1_555
H7B C8B 1_555 1_555
C9B C3B 1_555 1_555
N1B Co1B 1_555 1_555
O1B Co1B 1_555 1_555
O2B C1B 1_555 1_555
O3B C9B 1_555 1_555
O4B C9B 1_555 1_555
O5B Co1B 1_555 1_555
H13B O5B 1_555 1_555
H14B O5B 1_555 1_555
Co1A O3B 1_555 1_555
Co1A_2 O4 1_555 1_555
Co1C O4B 1_555 1_555
Co1C_2 O3 1_555 1_555
O3A Co1B 1_555 1_555
O3C Co1 1_555 1_555
O4A Co1 1_555 1_555
O4C Co1B 1_555 1_555
C1 O1 1_555 1_555
C6 N1 1_555 1_555
C10 N2 1_555 1_555
C14 N2 1_555 1_555
C12B C15B 1_555 1_555
C14B N2B 1_555 1_555
C1B O1B 1_555 1_555
C2B N1B 1_555 1_555
C6B N1B 1_555 1_555

#END
