
#######################################################################
#
#                 Cambridge Crystallographic Data Centre
#                                CCDC 
#
#######################################################################
#
# If this CIF has been generated from an entry in the Cambridge 
# Structural Database, then it will include bibliographic, chemical, 
# crystal, experimental, refinement or atomic coordinate data resulting 
# from the CCDC's data processing and validation procedures.
#
#######################################################################

data_GIRGUL
_chemical_formula_moiety         '(C28 H26 Co2 N4 O10)n'
_symmetry_cell_setting           monoclinic
_symmetry_space_group_name_H-M   'P 21/c'
_symmetry_Int_Tables_number      14
_space_group_name_Hall           '-P 2ybc'
loop_
_symmetry_equiv_pos_site_id
_symmetry_equiv_pos_as_xyz
1 x,y,z
2 -x,1/2+y,1/2-z
3 -x,-y,-z
4 x,1/2-y,1/2+z
_cell_length_a                   13.344(5)
_cell_length_b                   14.724(5)
_cell_length_c                   8.267(3)
_cell_angle_alpha                90
_cell_angle_beta                 105.840(4)
_cell_angle_gamma                90
_cell_volume                     1562.6
loop_
_atom_site_label
_atom_site_type_symbol
_atom_site_fract_x
_atom_site_fract_y
_atom_site_fract_z
Co1 Co 0.63047(3) 0.91685(3) 0.68340(6)
N1 N 0.5047(2) 0.84654(17) 0.7399(3)
N2 N 0.7681(2) 0.95958(19) 0.6178(4)
O1 O 0.67152(19) 0.78181(14) 0.6623(3)
O2 O 0.60734(19) 0.64222(15) 0.6415(3)
O3 O 0.55372(18) 0.57162(14) 0.9326(3)
O4 O 0.39742(18) 0.54751(15) 0.7569(3)
O5 O 0.7227(2) 0.91134(16) 0.9423(3)
H1 H 0.6776 0.8918 0.9892
H2 H 0.7877 0.9122 0.9904
C1 C 0.6060(3) 0.7226(2) 0.6792(4)
C2 C 0.5191(2) 0.7560(2) 0.7476(4)
C3 C 0.3688(2) 0.7367(2) 0.8433(4)
H3 H 0.3234 0.6992 0.8798
C4 C 0.3495(3) 0.8288(2) 0.8314(5)
C5 C 0.4234(3) 0.8811(2) 0.7827(4)
H4 H 0.4154 0.9439 0.7799
C6 C 0.4709(3) 0.5976(2) 0.8319(4)
C7 C 0.2577(3) 0.8710(3) 0.8710(6)
H5 H 0.2751 0.8806 0.9915
H6 H 0.2470 0.9304 0.8182
C8 C 0.1608(4) 0.8231(4) 0.8219(12)
H7 H 0.1444 0.8090 0.7041
H8 H 0.1067 0.8602 0.8431
H9 H 0.1665 0.7678 0.8854
C9 C 0.7840(3) 0.9262(3) 0.4777(5)
H10 H 0.7319 0.8906 0.4091
C10 C 0.8721(3) 0.9409(3) 0.4282(5)
H11 H 0.8781 0.9158 0.3281
C11 C 0.9513(3) 0.9921(3) 0.5240(5)
C12 C 0.9342(4) 1.0285(4) 0.6697(7)
H12 H 0.9850 1.0642 0.7411
C13 C 0.8420(3) 1.0113(3) 0.7074(6)
H13 H 0.8315 1.0383 0.8032
C14 C 0.4525(2) 0.6985(2) 0.8033(4)
N2B N 1.2319(2) 1.04042(19) 0.3822(4)
C9B C 1.2160(3) 1.0738(3) 0.5223(5)
H10B H 1.2681 1.1094 0.5909
C10B C 1.1279(3) 1.0591(3) 0.5718(5)
H11B H 1.1219 1.0842 0.6719
C11B C 1.0487(3) 1.0079(3) 0.4760(5)
C12B C 1.0658(4) 0.9715(4) 0.3303(7)
H12B H 1.0150 0.9358 0.2589
C13B C 1.1580(3) 0.9887(3) 0.2926(6)
H13B H 1.1685 0.9617 0.1968
Co1B Co 1.36953(3) 1.08315(3) 0.31660(6)
N1B N 1.4953(2) 1.15346(17) 0.2601(3)
O1B O 1.32848(19) 1.21819(14) 0.3377(3)
O2B O 1.39266(19) 1.35778(15) 0.3585(3)
O3B O 1.44628(18) 1.42838(14) 0.0674(3)
O4B O 1.60258(18) 1.45249(15) 0.2431(3)
O5B O 1.2773(2) 1.08866(16) 0.0577(3)
H1B H 1.3224 1.1082 0.0108
H2B H 1.2123 1.0878 0.0096
C1B C 1.3940(3) 1.2774(2) 0.3208(4)
C2B C 1.4809(2) 1.2440(2) 0.2524(4)
C3B C 1.6312(2) 1.2633(2) 0.1567(4)
H3B H 1.6766 1.3008 0.1202
C4B C 1.6505(3) 1.1712(2) 0.1686(5)
C5B C 1.5766(3) 1.1189(2) 0.2173(4)
H4B H 1.5846 1.0561 0.2201
C6B C 1.5291(3) 1.4024(2) 0.1681(4)
C7B C 1.7423(3) 1.1290(3) 0.1290(6)
H5B H 1.7249 1.1194 0.0085
H6B H 1.7530 1.0696 0.1818
C8B C 1.8392(4) 1.1769(4) 0.1781(12)
H7B H 1.8556 1.1910 0.2959
H8B H 1.8933 1.1398 0.1569
H9B H 1.8335 1.2322 0.1146
C14B C 1.5475(2) 1.3015(2) 0.1967(4)
Co1A Co 0.36953(3) 0.41685(3) 0.81660(6)
Co1A_2 Co 1.36953(3) 1.41685(3) -0.18340(6)
Co1C Co 0.63047(3) 0.58315(3) 1.18340(6)
Co1C_2 Co 1.63047(3) 1.58315(3) 0.18340(6)
O3A O 1.44628(18) 1.07162(14) 0.5674(3)
O3C O 0.55372(18) 0.92838(14) 0.4326(3)
O4A O 0.60258(18) 1.04751(15) 0.7431(3)
O4C O 1.39742(18) 0.95249(15) 0.2569(3)
loop_
_geom_bond_atom_site_label_1
_geom_bond_atom_site_label_2
_geom_bond_site_symmetry_1
_geom_bond_site_symmetry_2
Co1 N1 1_555 1_555
N1 C2 1_555 1_555
N2 Co1 1_555 1_555
O1 Co1 1_555 1_555
O2 C1 1_555 1_555
O3 C6 1_555 1_555
O4 C6 1_555 1_555
O5 Co1 1_555 1_555
H1 O5 1_555 1_555
H2 O5 1_555 1_555
C1 O1 1_555 1_555
C2 C1 1_555 1_555
C3 H3 1_555 1_555
C4 C3 1_555 1_555
C5 N1 1_555 1_555
H4 C5 1_555 1_555
C6 C14 1_555 1_555
C7 C4 1_555 1_555
H5 C7 1_555 1_555
H6 C7 1_555 1_555
C8 C7 1_555 1_555
H7 C8 1_555 1_555
H8 C8 1_555 1_555
H9 C8 1_555 1_555
C9 N2 1_555 1_555
H10 C9 1_555 1_555
C10 C9 1_555 1_555
H11 C10 1_555 1_555
C11 C10 1_555 1_555
C12 C11 1_555 1_555
H12 C12 1_555 1_555
C13 N2 1_555 1_555
H13 C13 1_555 1_555
C14 C2 1_555 1_555
N2B C9B 1_555 1_555
C9B H10B 1_555 1_555
C10B C9B 1_555 1_555
H11B C10B 1_555 1_555
C11B C11 1_555 1_555
C12B C11B 1_555 1_555
H12B C12B 1_555 1_555
C13B N2B 1_555 1_555
H13B C13B 1_555 1_555
Co1B N2B 1_555 1_555
N1B Co1B 1_555 1_555
O1B Co1B 1_555 1_555
O2B C1B 1_555 1_555
O3B C6B 1_555 1_555
O4B C6B 1_555 1_555
O5B Co1B 1_555 1_555
H1B O5B 1_555 1_555
H2B O5B 1_555 1_555
C1B O1B 1_555 1_555
C2B N1B 1_555 1_555
C3B H3B 1_555 1_555
C4B C3B 1_555 1_555
C5B N1B 1_555 1_555
H4B C5B 1_555 1_555
C6B C14B 1_555 1_555
C7B C4B 1_555 1_555
H5B C7B 1_555 1_555
H6B C7B 1_555 1_555
C8B C7B 1_555 1_555
H7B C8B 1_555 1_555
H8B C8B 1_555 1_555
H9B C8B 1_555 1_555
C14B C2B 1_555 1_555
Co1A O4 1_555 1_555
Co1A_2 O3B 1_555 1_555
Co1C O3 1_555 1_555
Co1C_2 O4B 1_555 1_555
O3A Co1B 1_555 1_555
O3C Co1 1_555 1_555
O4A Co1 1_555 1_555
O4C Co1B 1_555 1_555
C3 C14 1_555 1_555
C4 C5 1_555 1_555
C12 C13 1_555 1_555
C10B C11B 1_555 1_555
C12B C13B 1_555 1_555
C1B C2B 1_555 1_555
C3B C14B 1_555 1_555
C4B C5B 1_555 1_555

#END
