
#######################################################################
#
#                 Cambridge Crystallographic Data Centre
#                                CCDC 
#
#######################################################################
#
# If this CIF has been generated from an entry in the Cambridge 
# Structural Database, then it will include bibliographic, chemical, 
# crystal, experimental, refinement or atomic coordinate data resulting 
# from the CCDC's data processing and validation procedures.
#
#######################################################################

data_GIRHEW
_chemical_formula_moiety         '(C7 H6 N6 O2 Zn1)n'
_symmetry_cell_setting           monoclinic
_symmetry_space_group_name_H-M   'C 2/c'
_symmetry_Int_Tables_number      15
_space_group_name_Hall           '-C 2yc'
loop_
_symmetry_equiv_pos_site_id
_symmetry_equiv_pos_as_xyz
1 x,y,z
2 -x,y,1/2-z
3 1/2+x,1/2+y,z
4 1/2-x,1/2+y,1/2-z
5 -x,-y,-z
6 x,-y,1/2+z
7 1/2-x,1/2-y,-z
8 1/2+x,1/2-y,1/2+z
_cell_length_a                   16.1871(7)
_cell_length_b                   16.3069(6)
_cell_length_c                   9.9762(4)
_cell_angle_alpha                90
_cell_angle_beta                 114.628(4)
_cell_angle_gamma                90
_cell_volume                     2393.78
loop_
_atom_site_label
_atom_site_type_symbol
_atom_site_fract_x
_atom_site_fract_y
_atom_site_fract_z
_atom_site_U_iso_or_equiv
_atom_site_thermal_displace_type
C1 C 0.4204(2) 0.1528(2) 0.3337(4) 0.0199 Uani
H1 H 0.4285 0.0963 0.3365 0.0240 Uiso
C2 C 0.4931(2) 0.20128(19) 0.4161(3) 0.0179 Uani
H2 H 0.5494 0.1780 0.4727 0.0210 Uiso
C3 C 0.4812(2) 0.2858(2) 0.4138(3) 0.0166 Uani
C4 C 0.3970(2) 0.3181(2) 0.3249(4) 0.0218 Uani
H3 H 0.3876 0.3745 0.3200 0.0260 Uiso
C5 C 0.3274(2) 0.2658(2) 0.2441(3) 0.0203 Uani
H4 H 0.2711 0.2879 0.1840 0.0240 Uiso
C6 C 0.5585(2) 0.3419(2) 0.5039(3) 0.0193 Uani
C7 C 0.1975(2) -0.01245(19) -0.1035(3) 0.0169 Uani
N1 N 0.33776(17) 0.18363(16) 0.2488(3) 0.0179 Uani
N2 N 0.24226(17) 0.04886(16) -0.0121(3) 0.0168 Uani
N3 N 0.31426(18) 0.06762(18) -0.0445(3) 0.0234 Uani
N4 N 0.31316(19) 0.02070(18) -0.1481(3) 0.0254 Uani
N5 N 0.23977(17) -0.03130(16) -0.1896(3) 0.0184 Uani
N6 N 0.1238(2) -0.05033(17) -0.1030(3) 0.0292 Uani
H5 H 0.0997 -0.0907 -0.1619 0.0350 Uiso
H6 H 0.1008 -0.0342 -0.0438 0.0350 Uiso
O1 O 0.63509(14) 0.30625(13) 0.5748(2) 0.0211 Uani
O2 O 0.54619(16) 0.41627(14) 0.5049(3) 0.0259 Uani
Zn1 Zn 0.22743(3) 0.10838(2) 0.14975(4) 0.0154 Uani
N5E N 0.23977(17) 0.03130(16) 0.3104(3) 0.0184 Uani
O1G O 0.13509(14) 0.19375(13) 0.0748(2) 0.0211 Uani
Zn1E Zn 0.22743(3) -0.10838(2) -0.35025(4) 0.0154 Uani
Zn1G Zn 0.72743(3) 0.39162(2) 0.64975(4) 0.0154 Uani
loop_
_atom_site_aniso_label
_atom_site_aniso_U_11
_atom_site_aniso_U_22
_atom_site_aniso_U_33
_atom_site_aniso_U_23
_atom_site_aniso_U_13
_atom_site_aniso_U_12
C1 0.0213(18) 0.0155(17) 0.0211(18) -0.0009(15) 0.0071(14) 0.0003(14)
C2 0.0163(17) 0.0213(18) 0.0128(17) 0.0008(14) 0.0029(14) 0.0027(14)
C3 0.0183(17) 0.0186(17) 0.0129(16) -0.0008(13) 0.0065(14) -0.0010(14)
C4 0.0240(19) 0.0149(17) 0.0224(18) -0.0004(15) 0.0055(15) 0.0004(15)
C5 0.0168(17) 0.0185(18) 0.0200(18) 0.0049(15) 0.0020(14) 0.0035(14)
C6 0.0214(18) 0.0224(19) 0.0148(16) -0.0021(15) 0.0082(14) -0.0055(16)
C7 0.0170(17) 0.0153(17) 0.0119(16) -0.0031(14) -0.0003(13) -0.0026(14)
N1 0.0174(15) 0.0178(14) 0.0160(14) -0.0023(12) 0.0046(12) 0.0004(12)
N2 0.0163(14) 0.0197(15) 0.0133(13) -0.0012(12) 0.0050(11) -0.0011(12)
N3 0.0215(16) 0.0245(16) 0.0260(16) -0.0090(14) 0.0118(13) -0.0056(13)
N4 0.0256(16) 0.0289(17) 0.0234(16) -0.0091(14) 0.0120(13) -0.0072(13)
N5 0.0165(14) 0.0194(15) 0.0157(14) -0.0045(12) 0.0031(11) -0.0036(12)
N6 0.0312(17) 0.0305(18) 0.0315(17) -0.0155(15) 0.0186(14) -0.0147(14)
O1 0.0142(12) 0.0227(13) 0.0196(12) 0.0001(10) 0.0003(10) -0.0001(10)
O2 0.0261(13) 0.0164(13) 0.0317(14) -0.0028(11) 0.0087(11) -0.0031(10)
Zn1 0.0163(3) 0.0153(3) 0.0112(2) -0.00008(18) 0.00234(18) -0.00017(18)
N5E 0.0165 0.0194 0.0157 0.0045 0.0031 0.0036
O1G 0.0142 0.0227 0.0196 -0.0001 0.0003 0.0001
Zn1E 0.0163 0.0153 0.0112 8e-05 0.00234 0.00017
Zn1G 0.0163 0.0153 0.0112 8e-05 0.00234 0.00017
loop_
_geom_bond_atom_site_label_1
_geom_bond_atom_site_label_2
_geom_bond_site_symmetry_1
_geom_bond_site_symmetry_2
C1 H1 1_555 1_555
C2 C1 1_555 1_555
H2 C2 1_555 1_555
C3 C2 1_555 1_555
C4 C3 1_555 1_555
H3 C4 1_555 1_555
C5 C4 1_555 1_555
H4 C5 1_555 1_555
C6 C3 1_555 1_555
C7 N2 1_555 1_555
N1 C1 1_555 1_555
N2 N3 1_555 1_555
N3 N4 1_555 1_555
N4 N5 1_555 1_555
N5 C7 1_555 1_555
N6 C7 1_555 1_555
H5 N6 1_555 1_555
H6 N6 1_555 1_555
O1 C6 1_555 1_555
O2 C6 1_555 1_555
Zn1 N1 1_555 1_555
N5E Zn1 1_555 1_555
O1G Zn1 1_555 1_555
Zn1E N5 1_555 1_555
Zn1G O1 1_555 1_555
C5 N1 1_555 1_555
N2 Zn1 1_555 1_555

#END
