
#######################################################################
#
#                 Cambridge Crystallographic Data Centre
#                                CCDC 
#
#######################################################################
#
# If this CIF has been generated from an entry in the Cambridge 
# Structural Database, then it will include bibliographic, chemical, 
# crystal, experimental, refinement or atomic coordinate data resulting 
# from the CCDC's data processing and validation procedures.
#
#######################################################################

data_GOMFOF
_chemical_formula_moiety         '(C44 H24 K2 N4 Na4 O12 Pd1 S4)n'
_symmetry_cell_setting           tetragonal
_symmetry_space_group_name_H-M   'I 41/a c d'
_symmetry_Int_Tables_number      142
_space_group_name_Hall           '-I 4bd 2c'
loop_
_symmetry_equiv_pos_site_id
_symmetry_equiv_pos_as_xyz
1 x,y,z
2 1/2-x,-y,1/2+z
3 1/4-y,3/4+x,1/4+z
4 1/4+y,1/4-x,3/4+z
5 1/2-x,y,-z
6 x,-y,1/2-z
7 1/4+y,3/4+x,3/4-z
8 1/4-y,1/4-x,1/4-z
9 1/2+x,1/2+y,1/2+z
10 -x,1/2-y,z
11 3/4-y,1/4+x,3/4+z
12 3/4+y,3/4-x,1/4+z
13 -x,1/2+y,1/2-z
14 1/2+x,1/2-y,-z
15 3/4+y,1/4+x,1/4-z
16 3/4-y,3/4-x,3/4-z
17 -x,-y,-z
18 1/2+x,y,1/2-z
19 3/4+y,1/4-x,3/4-z
20 3/4-y,3/4+x,1/4-z
21 1/2+x,-y,z
22 -x,y,1/2+z
23 3/4-y,1/4-x,1/4+z
24 3/4+y,3/4+x,3/4+z
25 1/2-x,1/2-y,1/2-z
26 x,1/2+y,-z
27 1/4+y,3/4-x,1/4-z
28 1/4-y,1/4+x,3/4-z
29 x,1/2-y,1/2+z
30 1/2-x,1/2+y,z
31 1/4-y,3/4-x,3/4+z
32 1/4+y,1/4+x,1/4+z
_cell_length_a                   45.708(7)
_cell_length_b                   45.708(7)
_cell_length_c                   7.9819(16)
_cell_angle_alpha                90
_cell_angle_beta                 90
_cell_angle_gamma                90
_cell_volume                     16676
loop_
_atom_site_label
_atom_site_type_symbol
_atom_site_fract_x
_atom_site_fract_y
_atom_site_fract_z
Pd1 Pd 0.5000 0.2500 0.1250
N1 N 0.5374(2) 0.2725(4) 0.1210(15)
C1 C 0.5404(5) 0.3042(4) 0.1171(19)
C2 C 0.5710(3) 0.3093(3) 0.0749(15)
H1 H 0.5793 0.3281 0.0586
C3 C 0.5859(3) 0.2838(4) 0.0619(16)
H2 H 0.6061 0.2817 0.0372
C4 C 0.5654(4) 0.2606(5) 0.0926(17)
C5 C 0.5742(4) 0.2310(5) 0.1063(18)
C6 C 0.6046(4) 0.2232(4) 0.092(3)
C7 C 0.6246(5) 0.2374(3) 0.1911(18)
H3 H 0.6181 0.2513 0.2720
C8 C 0.6543(5) 0.2315(4) 0.173(2)
H4 H 0.6683 0.2403 0.2448
C9 C 0.6624(3) 0.2130(5) 0.053(4)
C10 C 0.6432(6) 0.1973(3) -0.0447(19)
H5 H 0.6502 0.1832 -0.1226
C11 C 0.6135(4) 0.2024(4) -0.026(2)
H6 H 0.5995 0.1921 -0.0921
S1 S 0.70142(13) 0.2058(2) 0.0028(16)
K1 K 0.7500 0.2500 -0.2500
O1 O 0.7124(4) 0.1977(5) 0.157(3)
O2 O 0.7134(3) 0.2325(5) -0.019(3)
O3 O 0.7040(3) 0.1857(6) -0.109(4)
Na1 Na 0.7529(4) 0.1601(9) 0.257(6)
N1S N 0.4775(4) 0.2874(2) 0.1290(15)
C1S C 0.4458(4) 0.2904(5) 0.1329(19)
C2S C 0.4407(3) 0.3210(3) 0.1751(15)
H1S H 0.4219 0.3293 0.1914
C3S C 0.4662(4) 0.3359(3) 0.1881(16)
H2S H 0.4683 0.3561 0.2128
C4S C 0.4894(5) 0.3154(4) 0.1574(17)
C5S C 0.5190(5) 0.3242(4) 0.1437(18)
C6S C 0.5268(4) 0.3546(4) 0.158(3)
C7S C 0.5126(3) 0.3746(5) 0.0589(18)
H3S H 0.4987 0.3681 -0.0220
C8S C 0.5185(4) 0.4043(5) 0.077(2)
H4S H 0.5097 0.4183 0.0052
C9S C 0.5370(5) 0.4124(3) 0.197(4)
C10S C 0.5527(3) 0.3932(6) 0.2947(19)
H5S H 0.5668 0.4002 0.3726
C11S C 0.5476(4) 0.3635(4) 0.276(2)
H6S H 0.5579 0.3495 0.3421
S1S S 0.5442(2) 0.45142(13) 0.2472(16)
O1S O 0.5523(5) 0.4624(4) 0.093(3)
O2S O 0.5175(5) 0.4634(3) 0.269(3)
O3S O 0.5643(6) 0.4540(3) 0.359(4)
N1Z N 0.5225(4) 0.2126(2) 0.1290(15)
C1Z C 0.5542(4) 0.2096(5) 0.1329(19)
C2Z C 0.5593(3) 0.1790(3) 0.1751(15)
H1Z H 0.5781 0.1707 0.1914
C3Z C 0.5338(4) 0.1641(3) 0.1881(16)
H2Z H 0.5317 0.1439 0.2128
C4Z C 0.5106(5) 0.1846(4) 0.1574(17)
C5Z C 0.4810(5) 0.1758(4) 0.1437(18)
C6Z C 0.4732(4) 0.1454(4) 0.158(3)
C7Z C 0.4874(3) 0.1254(5) 0.0589(18)
H3Z H 0.5013 0.1319 -0.0220
C8Z C 0.4815(4) 0.0957(5) 0.077(2)
H4Z H 0.4903 0.0817 0.0052
C9Z C 0.4630(5) 0.0876(3) 0.197(4)
C10Z C 0.4473(3) 0.1068(6) 0.2947(19)
H5Z H 0.4332 0.0998 0.3726
C11Z C 0.4524(4) 0.1365(4) 0.276(2)
H6Z H 0.4421 0.1505 0.3421
S1Z S 0.4558(2) 0.04858(13) 0.2472(16)
O1Z O 0.4477(5) 0.0376(4) 0.093(3)
O2Z O 0.4825(5) 0.0366(3) 0.269(3)
O3Z O 0.4357(6) 0.0460(3) 0.359(4)
N1I N 0.4626(2) 0.2275(4) 0.1210(15)
C1I C 0.4596(5) 0.1958(4) 0.1171(19)
C2I C 0.4290(3) 0.1907(3) 0.0749(15)
H1I H 0.4207 0.1719 0.0586
C3I C 0.4141(3) 0.2162(4) 0.0619(16)
H2I H 0.3939 0.2183 0.0372
C4I C 0.4346(4) 0.2394(5) 0.0926(17)
C5I C 0.4258(4) 0.2690(5) 0.1063(18)
C6I C 0.3954(4) 0.2768(4) 0.092(3)
C7I C 0.3754(5) 0.2626(3) 0.1911(18)
H3I H 0.3819 0.2487 0.2720
C8I C 0.3457(5) 0.2685(4) 0.173(2)
H4I H 0.3317 0.2597 0.2448
C9I C 0.3376(3) 0.2870(5) 0.053(4)
C10I C 0.3568(6) 0.3027(3) -0.0447(19)
H5I H 0.3498 0.3168 -0.1226
C11I C 0.3865(4) 0.2976(4) -0.026(2)
H6I H 0.4005 0.3079 -0.0921
S1I S 0.29858(13) 0.2942(2) 0.0028(16)
O1I O 0.2876(4) 0.3023(5) 0.157(3)
O2I O 0.2866(3) 0.2675(5) -0.019(3)
O3I O 0.2960(3) 0.3143(6) -0.109(4)
K1D K 0.7500 0.2500 0.2500
Na1D Na 0.7471(4) 0.1601(9) -0.257(6)
Na1S Na 0.5899(9) 0.5029(4) -0.007(6)
Na1V Na 0.5899(9) 0.4971(4) 0.507(6)
K1C K 0.5000 0.5000 0.5000
K1F K 0.5000 0.5000 0.0000
K1I K 0.2500 0.2500 -0.2500
K1J K 0.5000 0.0000 0.5000
K1M K 0.2500 0.2500 0.2500
K1O K 0.5000 0.0000 0.0000
O1D O 0.7876(4) 0.1977(5) -0.157(3)
O1V O 0.5523(5) 0.5376(4) 0.407(3)
O1X O 0.7876(4) 0.3023(5) 0.343(3)
O1BA O 0.7124(4) 0.3023(5) -0.343(3)
O2D O 0.7866(3) 0.2325(5) 0.019(3)
O2X O 0.7866(3) 0.2675(5) -0.481(3)
O2X_2 O 0.7866(3) 0.2675(5) 0.519(3)
O2BA O 0.7134(3) 0.2675(5) -0.519(3)
O2BA_2 O 0.7134(3) 0.2675(5) 0.481(3)
O3D O 0.7960(3) 0.1857(6) 0.109(4)
O3V O 0.5643(6) 0.5460(3) 0.141(4)
Na1I Na 0.2471(4) 0.3399(9) 0.257(6)
Na1M Na 0.2529(4) 0.3399(9) -0.257(6)
Na1Z Na 0.4101(9) -0.0029(4) -0.007(6)
Na1EA Na 0.4101(9) 0.0029(4) 0.507(6)
loop_
_geom_bond_atom_site_label_1
_geom_bond_atom_site_label_2
_geom_bond_site_symmetry_1
_geom_bond_site_symmetry_2
Pd1 N1 1_555 1_555
N1 C1 1_555 1_555
C1 C2 1_555 1_555
C2 H1 1_555 1_555
C3 C2 1_555 1_555
H2 C3 1_555 1_555
C4 N1 1_555 1_555
C5 C4 1_555 1_555
C6 C5 1_555 1_555
C7 C6 1_555 1_555
H3 C7 1_555 1_555
C8 C7 1_555 1_555
H4 C8 1_555 1_555
C9 C8 1_555 1_555
C10 C9 1_555 1_555
H5 C10 1_555 1_555
C11 C6 1_555 1_555
H6 C11 1_555 1_555
S1 C9 1_555 1_555
K1 O2 1_555 1_555
O1 S1 1_555 1_555
O2 S1 1_555 1_555
O3 S1 1_555 1_555
Na1 O1 1_555 1_555
N1S Pd1 1_555 1_555
C1S N1S 1_555 1_555
C2S C1S 1_555 1_555
H1S C2S 1_555 1_555
C3S C2S 1_555 1_555
H2S C3S 1_555 1_555
C4S N1S 1_555 1_555
C5S C1 1_555 1_555
C6S C5S 1_555 1_555
C7S C6S 1_555 1_555
H3S C7S 1_555 1_555
C8S C7S 1_555 1_555
H4S C8S 1_555 1_555
C9S C8S 1_555 1_555
C10S C9S 1_555 1_555
H5S C10S 1_555 1_555
C11S C6S 1_555 1_555
H6S C11S 1_555 1_555
S1S C9S 1_555 1_555
O1S S1S 1_555 1_555
O2S S1S 1_555 1_555
O3S S1S 1_555 1_555
N1Z Pd1 1_555 1_555
C1Z C5 1_555 1_555
C2Z C1Z 1_555 1_555
H1Z C2Z 1_555 1_555
C3Z C2Z 1_555 1_555
H2Z C3Z 1_555 1_555
C4Z N1Z 1_555 1_555
C5Z C4Z 1_555 1_555
C6Z C5Z 1_555 1_555
C7Z C6Z 1_555 1_555
H3Z C7Z 1_555 1_555
C8Z C7Z 1_555 1_555
H4Z C8Z 1_555 1_555
C9Z C8Z 1_555 1_555
C10Z C9Z 1_555 1_555
H5Z C10Z 1_555 1_555
C11Z C6Z 1_555 1_555
H6Z C11Z 1_555 1_555
S1Z C9Z 1_555 1_555
O1Z S1Z 1_555 1_555
O2Z S1Z 1_555 1_555
O3Z S1Z 1_555 1_555
N1I Pd1 1_555 1_555
C1I C5Z 1_555 1_555
C2I C1I 1_555 1_555
H1I C2I 1_555 1_555
C3I C2I 1_555 1_555
H2I C3I 1_555 1_555
C4I N1I 1_555 1_555
C5I C1S 1_555 1_555
C6I C5I 1_555 1_555
C7I C6I 1_555 1_555
H3I C7I 1_555 1_555
C8I C7I 1_555 1_555
H4I C8I 1_555 1_555
C9I C8I 1_555 1_555
C10I C9I 1_555 1_555
H5I C10I 1_555 1_555
C11I C6I 1_555 1_555
H6I C11I 1_555 1_555
S1I C9I 1_555 1_555
O1I S1I 1_555 1_555
O2I S1I 1_555 1_555
O3I S1I 1_555 1_555
K1D O1 1_555 1_555
Na1D O3 1_555 1_555
Na1S O1S 1_555 1_555
Na1V O3S 1_555 1_555
K1C O2S 1_555 1_555
K1F O1S 1_555 1_555
K1I O2I 1_555 1_555
K1J O2Z 1_555 1_555
K1M O1I 1_555 1_555
K1O O1Z 1_555 1_555
O1D K1 1_555 1_555
O1V Na1V 1_555 1_555
O1X K1D 1_555 1_555
O1BA K1 1_555 1_555
O2D K1 1_555 1_555
O2X K1 1_555 1_555
O2X_2 K1D 1_555 1_555
O2BA K1 1_555 1_555
O2BA_2 K1D 1_555 1_555
O3D Na1 1_555 1_555
O3V Na1S 1_555 1_555
Na1I O1I 1_555 1_555
Na1M O3I 1_555 1_555
Na1Z O1Z 1_555 1_555
Na1EA O3Z 1_555 1_555
C3 C4 1_555 1_555
C10 C11 1_555 1_555
O2 K1D 1_555 1_555
C3S C4S 1_555 1_555
C4S C5S 1_555 1_555
C10S C11S 1_555 1_555
O2S K1F 1_555 1_555
N1Z C1Z 1_555 1_555
C3Z C4Z 1_555 1_555
C10Z C11Z 1_555 1_555
O2Z K1O 1_555 1_555
N1I C1I 1_555 1_555
C3I C4I 1_555 1_555
C4I C5I 1_555 1_555
C10I C11I 1_555 1_555
O2I K1M 1_555 1_555
K1D O2D 1_555 1_555
Na1D O1D 1_555 1_555
K1C O1V 1_555 1_555

#END
