
#######################################################################
#
#                 Cambridge Crystallographic Data Centre
#                                CCDC 
#
#######################################################################
#
# If this CIF has been generated from an entry in the Cambridge 
# Structural Database, then it will include bibliographic, chemical, 
# crystal, experimental, refinement or atomic coordinate data resulting 
# from the CCDC's data processing and validation procedures.
#
#######################################################################

data_GUQWOG
_chemical_formula_moiety         '(C32 H39 Cd1 N5 O9)n'
_symmetry_cell_setting           monoclinic
_symmetry_space_group_name_H-M   'C 2/c'
_symmetry_Int_Tables_number      15
_space_group_name_Hall           '-C 2yc'
loop_
_symmetry_equiv_pos_site_id
_symmetry_equiv_pos_as_xyz
1 x,y,z
2 -x,y,1/2-z
3 1/2+x,1/2+y,z
4 1/2-x,1/2+y,1/2-z
5 -x,-y,-z
6 x,-y,1/2+z
7 1/2-x,1/2-y,-z
8 1/2+x,1/2-y,1/2+z
_cell_length_a                   29.479(3)
_cell_length_b                   16.6876(16)
_cell_length_c                   15.7664(15)
_cell_angle_alpha                90
_cell_angle_beta                 113.530(5)
_cell_angle_gamma                90
_cell_volume                     7111.12
loop_
_atom_site_label
_atom_site_type_symbol
_atom_site_fract_x
_atom_site_fract_y
_atom_site_fract_z
_atom_site_U_iso_or_equiv
_atom_site_thermal_displace_type
Cd1 Cd 0.24817(2) 0.28110(3) 0.87496(4) 0.0259 Uani
N1 N 0.3317(3) 0.2827(4) 0.9468(5) 0.0323 Uani
N2 N 0.6625(3) 0.2186(4) 1.3018(6) 0.0370 Uani
C1 C 0.3587(5) 0.2245(8) 0.9245(9) 0.0565 Uani
H1 H 0.3414 0.1847 0.8830 0.0680 Uiso
C2 C 0.6372(7) 0.2838(11) 1.2950(15) 0.1138 Uani
H2 H 0.6529 0.3293 1.3275 0.1360 Uiso
C3 C 0.5638(5) 0.2194(8) 1.1952(11) 0.0667 Uani
C4 C 0.5853(7) 0.2864(13) 1.2382(18) 0.1269 Uani
H3 H 0.5672 0.3333 1.2316 0.1520 Uiso
C5 C 0.6383(4) 0.1533(9) 1.2744(12) 0.0831 Uani
H4 H 0.6547 0.1044 1.2904 0.1000 Uiso
C6 C 0.3590(5) 0.3435(8) 0.9941(11) 0.0764 Uani
H5 H 0.3426 0.3889 1.0010 0.0920 Uiso
C7 C 0.5876(6) 0.1552(13) 1.2205(13) 0.1109 Uani
H6 H 0.5708 0.1069 1.2025 0.1330 Uiso
C8 C 0.4107(6) 0.2221(9) 0.9609(10) 0.0740 Uani
H7 H 0.4282 0.1835 0.9440 0.0890 Uiso
C9 C 0.4099(6) 0.3446(11) 1.0339(14) 0.1060 Uani
H8 H 0.4269 0.3891 1.0669 0.1270 Uiso
C10 C 0.4912(6) 0.2800(11) 1.0686(17) 0.1090 Uani
H9 H 0.5122 0.3107 1.0505 0.1320 Uiso
C11 C 0.4333(6) 0.2821(9) 1.0241(15) 0.1125 Uani
C12 C 0.1667(6) 0.4154(6) 0.2714(8) 0.0531 Uani
C13 C 0.2459(4) 0.3585(5) 0.7230(6) 0.0314 Uani
C14 C 0.2424(4) 0.4017(4) 0.6371(5) 0.0291 Uani
C15 C 0.2446(3) 0.4839(4) 0.6378(5) 0.0278 Uani
H10 H 0.2480 0.5120 0.6910 0.0330 Uiso
C16 C 0.2365(4) 0.3598(4) 0.5583(6) 0.0340 Uani
H11 H 0.2345 0.3042 0.5578 0.0410 Uiso
C17 C 0.2336(4) 0.4006(5) 0.4793(6) 0.0383 Uani
C18 C 0.2464(4) 0.6144(4) 0.5638(6) 0.0322 Uani
C19 C 0.2182(5) 0.3898(5) 0.3166(6) 0.0471 Uani
H12 H 0.2254 0.3522 0.2767 0.0570 Uiso
H13 H 0.2396 0.4359 0.3252 0.0570 Uiso
C20 C 0.2358(3) 0.4841(4) 0.4782(5) 0.0283 Uani
H14 H 0.2333 0.5114 0.4251 0.0340 Uiso
C21 C 0.1255(7) 0.4333(10) 0.2347(12) 0.0876 Uani
H15 H 0.0924 0.4476 0.2053 0.1050 Uiso
C22 C 0.5062(7) 0.2228(16) 1.141(2) 0.1536 Uani
H16 H 0.4843 0.1911 1.1557 0.1860 Uiso
O1 O 0.2461(3) 0.2828(3) 0.7227(4) 0.0415 Uani
O2 O 0.2496(3) 0.6482(3) 0.6355(4) 0.0355 Uani
O3 O 0.2487(2) 0.3991(3) 0.7929(4) 0.0311 Uani
O4 O 0.2470(4) 0.6524(3) 0.4971(5) 0.0625 Uani
C23 C 0.2417(3) 0.5254(4) 0.5589(5) 0.0270 Uani
O5 O 0.2289(3) 0.3525(3) 0.4049(4) 0.0520 Uani
Cd1C Cd 0.25183(2) 0.78110(3) 0.62504(4) 0.0259 Uani
Cd1E Cd 0.24817(2) 0.71890(3) 0.37496(4) 0.0259 Uani
Cd1G Cd 0.74817(2) 0.21890(3) 1.37496(4) 0.0259 Uani
N2G N 0.1625(3) 0.2814(4) 0.8018(6) 0.0370 Uani
O2C O 0.2504(3) 0.1482(3) 0.8645(4) 0.0355 Uani
O4E O 0.2470(4) 0.3476(3) 0.9971(5) 0.0625 Uani
N3 N 0.0666(9) 0.462(2) 0.4415(16) 0.1739 Uani
O6 O -0.0140(8) 0.4943(18) 0.367(2) 0.3291 Uani
C24 C 0.0226(16) 0.455(3) 0.423(3) 0.2993 Uani
H17 H 0.0145 0.4155 0.4563 0.3540 Uiso
C25 C 0.1089(11) 0.434(3) 0.509(3) 0.3972 Uani
H18 H 0.1367 0.4479 0.4948 0.5980 Uiso
H19 H 0.1070 0.3768 0.5133 0.5980 Uiso
H20 H 0.1129 0.4578 0.5672 0.5980 Uiso
C26 C 0.077(2) 0.521(3) 0.400(5) 0.4429 Uani
H21 H 0.1112 0.5208 0.4128 0.6670 Uiso
H22 H 0.0681 0.5701 0.4217 0.6670 Uiso
H23 H 0.0578 0.5161 0.3346 0.6670 Uiso
O7 O 0.3960(9) 0.5020(10) 0.6665(14) 0.1769 Uani
N4 N 0.3903(10) 0.3763(13) 0.7159(18) 0.1678 Uani
C27 C 0.3748(9) 0.4358(16) 0.651(2) 0.1408 Uani
H24 H 0.3483 0.4267 0.5947 0.1690 Uiso
C28 C 0.3649(10) 0.3024(15) 0.692(2) 0.1558 Uani
H25 H 0.3789 0.2652 0.7417 0.2280 Uiso
H26 H 0.3679 0.2813 0.6373 0.2280 Uiso
H27 H 0.3306 0.3105 0.6790 0.2280 Uiso
C29 C 0.4400(19) 0.382(4) 0.798(3) 0.4706 Uani
H28 H 0.4444 0.3357 0.8368 0.7020 Uiso
H29 H 0.4409 0.4295 0.8327 0.7020 Uiso
H30 H 0.4661 0.3836 0.7761 0.7020 Uiso
O8 O 0.5000 0.232(5) 0.7500 0.5221 Uani
O9 O 0.3691(11) 0.409(3) 0.413(2) 0.3868 Uani
C30 C 0.427(3) 0.421(3) 0.473(3) 0.2912 Uani
H31 H 0.4540 0.4525 0.4767 0.3440 Uiso
C31 C 0.380(3) 0.289(3) 0.463(4) 0.6412 Uani
H32 H 0.3487 0.3129 0.4278 0.9640 Uiso
H33 H 0.3770 0.2491 0.5035 0.9640 Uiso
H34 H 0.3932 0.2655 0.4216 0.9640 Uiso
N5 N 0.415(3) 0.353(7) 0.519(8) 1.1445 Uani
C32 C 0.464(5) 0.317(8) 0.581(7) 1.0772 Uani
H35 H 0.4865 0.3595 0.6131 1.6290 Uiso
H36 H 0.4775 0.2875 0.5443 1.6290 Uiso
H37 H 0.4593 0.2824 0.6250 1.6290 Uiso
loop_
_atom_site_aniso_label
_atom_site_aniso_U_11
_atom_site_aniso_U_22
_atom_site_aniso_U_33
_atom_site_aniso_U_23
_atom_site_aniso_U_13
_atom_site_aniso_U_12
Cd1 0.0507(4) 0.0122(2) 0.0191(3) 0.0005(2) 0.0186(2) -0.0007(2)
N1 0.040(4) 0.014(3) 0.044(4) 0.001(3) 0.018(3) 0.002(3)
N2 0.031 0.03 0.057 0.001 0.025 0.01
C1 0.052(7) 0.064(8) 0.055(7) -0.005(6) 0.023(6) 0.009(6)
C2 0.081 0.089 0.14 -0.04 0.011 0.027
C3 0.052 0.053 0.082 0.011 0.013 0.01
C4 0.078 0.116 0.17 -0.009 0.032 0.055
C5 0.034 0.07 0.119 0.038 0.003 -0.015
C6 0.071(9) 0.047(7) 0.103(11) -0.010(7) 0.026(8) 0.003(7)
C7 0.062 0.122 0.116 0.055 0.001 -0.027
C8 0.073(9) 0.086(11) 0.066(8) 0.017(7) 0.031(7) 0.028(8)
C9 0.057(9) 0.066(10) 0.158(18) -0.028(11) 0.004(10) -0.016(8)
C10 0.046(8) 0.097(13) 0.16(2) 0.034(12) 0.016(10) -0.002(8)
C11 0.078(10) 0.054(9) 0.118(15) 0.008(9) -0.053(10) -0.006(8)
C12 0.088(10) 0.035(5) 0.038(6) -0.009(4) 0.027(6) -0.008(6)
C13 0.058(6) 0.019(3) 0.026(4) 0.003(3) 0.026(4) 0.005(3)
C14 0.059(5) 0.014(3) 0.021(4) 0.003(3) 0.023(4) 0.003(3)
C15 0.051(5) 0.015(3) 0.020(4) -0.002(3) 0.017(4) 0.002(3)
C16 0.071(6) 0.014(3) 0.027(4) -0.001(3) 0.030(4) 0.003(4)
C17 0.084(7) 0.016(3) 0.027(4) -0.002(3) 0.035(5) 0.003(4)
C18 0.066 0.011 0.026 0.002 0.025 -0.001
C19 0.107(9) 0.020(4) 0.023(4) -0.006(3) 0.035(5) -0.007(5)
C20 0.056(5) 0.015(3) 0.018(3) 0.002(3) 0.019(4) -0.001(3)
C21 0.081(11) 0.070(10) 0.093(12) -0.018(9) 0.015(9) -0.020(9)
C22 0.060(11) 0.18(3) 0.20(3) 0.08(2) 0.030(14) 0.024(13)
O1 0.093(5) 0.015(3) 0.027(3) 0.006(2) 0.035(3) 0.006(3)
O2 0.067 0.015 0.026 -0.007 0.02 0.004
O3 0.058(4) 0.019(2) 0.022(3) 0.003(2) 0.022(3) 0.003(2)
O4 0.155 0.015 0.041 0.005 0.064 0.002
C23 0.049 0.017 0.02 0.001 0.019 0.004
O5 0.127(7) 0.016(3) 0.025(3) -0.002(2) 0.043(4) 0.001(3)
Cd1C 0.0507 0.0122 0.0191 -0.0005 0.0186 0.0007
Cd1E 0.0507 0.0122 0.0191 -0.0005 0.0186 0.0007
Cd1G 0.0507 0.0122 0.0191 -0.0005 0.0186 0.0007
N2G 0.031 0.03 0.057 -0.001 0.025 -0.01
O2C 0.067 0.015 0.026 0.007 0.02 -0.004
O4E 0.155 0.015 0.041 -0.005 0.064 -0.002
N3 0.091(14) 0.30(3) 0.137(17) 0.11(2) 0.052(13) 0.070(18)
O6 0.121(14) 0.27(3) 0.41(4) -0.16(3) -0.09(2) 0.084(18)
C24 0.16(3) 0.31(6) 0.39(6) 0.18(5) 0.07(4) 0.08(4)
C25 0.11(2) 0.63(9) 0.45(6) 0.42(7) 0.11(3) 0.18(4)
C26 0.59(10) 0.20(5) 0.83(12) -0.11(6) 0.59(10) -0.01(5)
O7 0.25 0.091 0.193 0.016 0.092 -0.013
N4 0.22(2) 0.096(14) 0.20(2) 0.051(14) 0.097(19) -0.014(15)
C27 0.126(18) 0.111(18) 0.19(2) 0.044(18) 0.068(17) -0.005(15)
C28 0.15(2) 0.127(19) 0.20(3) 0.089(19) 0.08(2) 0.034(17)
C29 0.26(6) 0.81(12) 0.23(5) 0.26(6) -0.02(4) 0.04(6)
O8 0.38(9) 0.90(12) 0.22(6) 0.000 0.05(6) 0.000
O9 0.18(2) 0.62(7) 0.37(4) -0.25(4) 0.12(2) -0.17(3)
C30 0.34(7) 0.30(5) 0.23(4) -0.01(4) 0.11(4) 0.12(5)
C31 1.15(16) 0.54(8) 0.54(9) -0.44(8) 0.66(11) -0.76(11)
N5 0.78(17) 2.0(4) 1.0(2) 0.0(2) 0.72(17) 0.7(2)
C32 1.2(2) 1.7(3) 0.83(15) -1.0(2) 0.93(17) -1.0(2)
loop_
_geom_bond_atom_site_label_1
_geom_bond_atom_site_label_2
_geom_bond_site_symmetry_1
_geom_bond_site_symmetry_2
Cd1 N1 1_555 1_555
N1 C1 1_555 1_555
N2 C2 1_555 1_555
C1 H1 1_555 1_555
C2 H2 1_555 1_555
C3 C4 1_555 1_555
C4 C2 1_555 1_555
H3 C4 1_555 1_555
C5 N2 1_555 1_555
H4 C5 1_555 1_555
C6 N1 1_555 1_555
H5 C6 1_555 1_555
C7 C3 1_555 1_555
H6 C7 1_555 1_555
C8 C1 1_555 1_555
H7 C8 1_555 1_555
C9 C6 1_555 1_555
H8 C9 1_555 1_555
C10 H9 1_555 1_555
C11 C8 1_555 1_555
C12 C19 1_555 1_555
C13 C14 1_555 1_555
C14 C15 1_555 1_555
C15 H10 1_555 1_555
C16 C14 1_555 1_555
H11 C16 1_555 1_555
C17 C16 1_555 1_555
C18 O2 1_555 1_555
C19 H12 1_555 1_555
H13 C19 1_555 1_555
C20 C17 1_555 1_555
H14 C20 1_555 1_555
C21 C12 1_555 1_555
H15 C21 1_555 1_555
C22 C3 1_555 1_555
H16 C22 1_555 1_555
O1 Cd1 1_555 1_555
O2 Cd1C 1_555 1_555
O3 Cd1 1_555 1_555
O4 C18 1_555 1_555
C23 C15 1_555 1_555
O5 C17 1_555 1_555
N3 C24 1_555 1_555
O6 C24 1_555 1_555
C24 H17 1_555 1_555
C25 N3 1_555 1_555
H18 C25 1_555 1_555
H19 C25 1_555 1_555
H20 C25 1_555 1_555
C26 N3 1_555 1_555
H21 C26 1_555 1_555
H22 C26 1_555 1_555
H23 C26 1_555 1_555
O7 C27 1_555 1_555
N4 C27 1_555 1_555
C27 H24 1_555 1_555
C28 N4 1_555 1_555
H25 C28 1_555 1_555
H26 C28 1_555 1_555
H27 C28 1_555 1_555
C29 N4 1_555 1_555
H28 C29 1_555 1_555
H29 C29 1_555 1_555
H30 C29 1_555 1_555
O9 C30 1_555 1_555
C30 H31 1_555 1_555
C31 H32 1_555 1_555
H33 C31 1_555 1_555
H34 C31 1_555 1_555
N5 C30 1_555 1_555
C32 N5 1_555 1_555
H35 C32 1_555 1_555
H36 C32 1_555 1_555
H37 C32 1_555 1_555
Cd1E O4 1_555 1_555
Cd1G N2 1_555 1_555
N2G Cd1 1_555 1_555
O2C Cd1 1_555 1_555
O4E Cd1 1_555 1_555
C5 C7 1_555 1_555
C9 C11 1_555 1_555
C10 C11 1_555 1_555
C10 C22 1_555 1_555
C13 O1 1_555 1_555
C13 O3 1_555 1_555
C18 C23 1_555 1_555
C19 O5 1_555 1_555
C20 C23 1_555 1_555
C31 N5 1_555 1_555

#END
