
#######################################################################
#
#                 Cambridge Crystallographic Data Centre
#                                CCDC 
#
#######################################################################
#
# If this CIF has been generated from an entry in the Cambridge 
# Structural Database, then it will include bibliographic, chemical, 
# crystal, experimental, refinement or atomic coordinate data resulting 
# from the CCDC's data processing and validation procedures.
#
#######################################################################

data_HILJUJ
_chemical_formula_moiety         '(C14 H20 Ce2 N2 O19 S1)n'
_symmetry_cell_setting           monoclinic
_symmetry_space_group_name_H-M   'C 2/c'
_symmetry_Int_Tables_number      15
_space_group_name_Hall           '-C 2yc'
loop_
_symmetry_equiv_pos_site_id
_symmetry_equiv_pos_as_xyz
1 x,y,z
2 -x,y,1/2-z
3 1/2+x,1/2+y,z
4 1/2-x,1/2+y,1/2-z
5 -x,-y,-z
6 x,-y,1/2+z
7 1/2-x,1/2-y,-z
8 1/2+x,1/2-y,1/2+z
_cell_length_a                   26.211(4)
_cell_length_b                   13.5295(18)
_cell_length_c                   6.7481(9)
_cell_angle_alpha                90
_cell_angle_beta                 92.2940(10)
_cell_angle_gamma                90
_cell_volume                     2391.11
loop_
_atom_site_label
_atom_site_type_symbol
_atom_site_fract_x
_atom_site_fract_y
_atom_site_fract_z
_atom_site_U_iso_or_equiv
_atom_site_thermal_displace_type
Ce1 Ce 0.103478(6) 0.192844(11) 0.50963(2) 0.0170 Uani
N1 N 0.29573(11) -0.1310(2) 0.4088(4) 0.0299 Uani
O1 O 0.31348(9) 0.22089(17) 0.4251(4) 0.0351 Uani
O2 O 0.37924(9) 0.12650(18) 0.5087(4) 0.0369 Uani
O3 O 0.13721(10) 0.04084(18) 0.4018(4) 0.0418 Uani
O4 O 0.14023(9) -0.11525(18) 0.3045(4) 0.0364 Uani
O5 O 0.04164(10) 0.0650(2) 0.6258(5) 0.0528 Uani
H1 H 0.0120 0.0606 0.6719 0.0790 Uiso
H2 H 0.0516 0.0063 0.6503 0.0790 Uiso
O6 O 0.14067(11) 0.2220(2) 0.1912(4) 0.0500 Uani
H3 H 0.1599 0.2677 0.1509 0.0750 Uiso
H4 H 0.1296 0.1929 0.0865 0.0750 Uiso
O7 O 0.07019(11) 0.2793(2) 0.8045(4) 0.0416 Uani
H5 H 0.0668 0.3416 0.8121 0.0620 Uiso
H6 H 0.0393 0.2529 0.8738 0.0620 Uiso
O8 O 0.01627(11) 0.2610(2) 0.4228(4) 0.0498 Uani
O9 O 0.04463(10) 0.1392(2) 0.2070(4) 0.0479 Uani
S1 S -0.0000 0.20065(9) 0.2500 0.0299 Uani
C1 C 0.16117(12) -0.0358(2) 0.3624(5) 0.0257 Uani
C2 C 0.21857(12) -0.0351(2) 0.3871(4) 0.0244 Uani
C3 C 0.24475(12) -0.1246(2) 0.3846(5) 0.0275 Uani
H7 H 0.2261 -0.1826 0.3654 0.0330 Uiso
C4 C 0.32221(13) -0.0468(2) 0.4332(5) 0.0299 Uani
H8 H 0.3575 -0.0507 0.4506 0.0360 Uiso
C5 C 0.29941(12) 0.0464(2) 0.4338(5) 0.0266 Uani
C6 C 0.24661(12) 0.0524(2) 0.4109(5) 0.0258 Uani
H9 H 0.2302 0.1133 0.4114 0.0310 Uiso
C7 C 0.33233(13) 0.1372(2) 0.4572(5) 0.0272 Uani
O8A O -0.01627(11) 0.2610(2) 0.0772(4) 0.0498 Uani
O9A O -0.04463(10) 0.1392(2) 0.2930(4) 0.0479 Uani
Ce1A Ce -0.103478(6) 0.192844(11) -0.00963(2) 0.0170 Uani
N1A N -0.29573(11) -0.1310(2) 0.0912(4) 0.0299 Uani
O1A O -0.31348(9) 0.22089(17) 0.0749(4) 0.0351 Uani
O2A O -0.37924(9) 0.12650(18) -0.0087(4) 0.0369 Uani
O3A O -0.13721(10) 0.04084(18) 0.0982(4) 0.0418 Uani
O4A O -0.14023(9) -0.11525(18) 0.1955(4) 0.0364 Uani
O5A O -0.04164(10) 0.0650(2) -0.1258(5) 0.0528 Uani
H1A H -0.0120 0.0606 -0.1719 0.0790 Uiso
H2A H -0.0516 0.0063 -0.1503 0.0790 Uiso
O6A O -0.14067(11) 0.2220(2) 0.3088(4) 0.0500 Uani
H3A H -0.1599 0.2677 0.3491 0.0750 Uiso
H4A H -0.1296 0.1929 0.4135 0.0750 Uiso
O7A O -0.07019(11) 0.2793(2) -0.3045(4) 0.0416 Uani
H5A H -0.0668 0.3416 -0.3121 0.0620 Uiso
H6A H -0.0393 0.2529 -0.3738 0.0620 Uiso
C1A C -0.16117(12) -0.0358(2) 0.1376(5) 0.0257 Uani
C2A C -0.21857(12) -0.0351(2) 0.1129(4) 0.0244 Uani
C3A C -0.24475(12) -0.1246(2) 0.1154(5) 0.0275 Uani
H7A H -0.2261 -0.1826 0.1346 0.0330 Uiso
C4A C -0.32221(13) -0.0468(2) 0.0668(5) 0.0299 Uani
H8A H -0.3575 -0.0507 0.0494 0.0360 Uiso
C5A C -0.29941(12) 0.0464(2) 0.0662(5) 0.0266 Uani
C6A C -0.24661(12) 0.0524(2) 0.0891(5) 0.0258 Uani
H9A H -0.2302 0.1133 0.0886 0.0310 Uiso
C7A C -0.33233(13) 0.1372(2) 0.0428(5) 0.0272 Uani
Ce1D Ce -0.103478(6) -0.192844(11) 0.49037(2) 0.0170 Uani
Ce1E Ce 0.103478(6) -0.192844(11) 0.00963(2) 0.0170 Uani
Ce1F Ce 0.396522(6) 0.307156(11) 0.49037(2) 0.0170 Uani
Ce1G Ce -0.396522(6) 0.307156(11) 0.00963(2) 0.0170 Uani
O1F O 0.18652(9) 0.27911(17) 0.5749(4) 0.0351 Uani
O1G O -0.18652(9) 0.27911(17) -0.0749(4) 0.0351 Uani
O2F O 0.12076(9) 0.37350(18) 0.4913(4) 0.0369 Uani
O2G O -0.12076(9) 0.37350(18) 0.0087(4) 0.0369 Uani
O4D O -0.14023(9) 0.11525(18) -0.3045(4) 0.0364 Uani
O4E O 0.14023(9) 0.11525(18) 0.8045(4) 0.0364 Uani
O10 O 0.45006(15) -0.0171(3) 0.6586(8) 0.1093 Uani
H10 H 0.4266 0.0382 0.6406 0.1640 Uiso
H11 H 0.4814 -0.0022 0.6511 0.1640 Uiso
loop_
_atom_site_aniso_label
_atom_site_aniso_U_11
_atom_site_aniso_U_22
_atom_site_aniso_U_33
_atom_site_aniso_U_23
_atom_site_aniso_U_13
_atom_site_aniso_U_12
Ce1 0.01623(10) 0.01372(10) 0.02086(10) -0.00013(6) 0.00004(6) -0.00062(6)
N1 0.0327(16) 0.0235(15) 0.0333(16) -0.0018(12) 0.0000(12) 0.0007(12)
O1 0.0340(13) 0.0229(12) 0.0478(16) 0.0026(11) -0.0062(11) -0.0045(10)
O2 0.0271(13) 0.0263(13) 0.0570(17) 0.0006(11) -0.0028(11) -0.0008(10)
O3 0.0373(14) 0.0279(13) 0.0605(18) -0.0055(12) 0.0046(12) 0.0068(11)
O4 0.0345(13) 0.0300(13) 0.0439(15) -0.0078(11) -0.0072(11) -0.0027(11)
O5 0.0404(15) 0.0362(16) 0.083(2) 0.0132(15) 0.0182(14) -0.0043(12)
O6 0.070(2) 0.0505(16) 0.0302(14) -0.0080(12) 0.0112(13) -0.0345(15)
O7 0.0501(16) 0.0392(15) 0.0361(14) -0.0061(12) 0.0076(12) 0.0046(13)
O8 0.0427(16) 0.0571(18) 0.0481(17) -0.0185(14) -0.0181(13) 0.0170(14)
O9 0.0296(14) 0.0553(18) 0.0582(18) -0.0199(14) -0.0039(12) 0.0052(13)
S1 0.0242(6) 0.0328(7) 0.0322(6) 0.000 -0.0039(5) 0.000
C1 0.0303(17) 0.0234(17) 0.0232(16) -0.0002(13) 0.0002(13) 0.0013(14)
C2 0.0301(17) 0.0240(16) 0.0192(15) -0.0022(12) 0.0020(12) 0.0001(13)
C3 0.0303(18) 0.0226(16) 0.0297(17) -0.0007(13) 0.0025(14) -0.0007(13)
C4 0.0268(17) 0.0272(17) 0.0355(19) -0.0021(14) -0.0002(14) -0.0005(14)
C5 0.0336(18) 0.0231(16) 0.0230(16) -0.0010(13) 0.0010(13) -0.0017(14)
C6 0.0331(18) 0.0198(16) 0.0246(16) -0.0016(13) 0.0020(13) -0.0002(13)
C7 0.0326(18) 0.0245(17) 0.0245(17) -0.0007(13) 0.0029(13) -0.0038(14)
O8A 0.0427 0.0571 0.0481 0.0185 -0.0181 -0.017
O9A 0.0296 0.0553 0.0582 0.0199 -0.0039 -0.0052
Ce1A 0.01623 0.01372 0.02086 0.00013 4e-05 0.00062
N1A 0.0327 0.0235 0.0333 0.0018 0 -0.0007
O1A 0.034 0.0229 0.0478 -0.0026 -0.0062 0.0045
O2A 0.0271 0.0263 0.057 -0.0006 -0.0028 0.0008
O3A 0.0373 0.0279 0.0605 0.0055 0.0046 -0.0068
O4A 0.0345 0.03 0.0439 0.0078 -0.0072 0.0027
O5A 0.0404 0.0362 0.083 -0.0132 0.0182 0.0043
O6A 0.07 0.0505 0.0302 0.008 0.0112 0.0345
O7A 0.0501 0.0392 0.0361 0.0061 0.0076 -0.0046
C1A 0.0303 0.0234 0.0232 0.0002 0.0002 -0.0013
C2A 0.0301 0.024 0.0192 0.0022 0.002 -0.0001
C3A 0.0303 0.0226 0.0297 0.0007 0.0025 0.0007
C4A 0.0268 0.0272 0.0355 0.0021 -0.0002 0.0005
C5A 0.0336 0.0231 0.023 0.001 0.001 0.0017
C6A 0.0331 0.0198 0.0246 0.0016 0.002 0.0002
C7A 0.0326 0.0245 0.0245 0.0007 0.0029 0.0038
Ce1D 0.01623 0.01372 0.02086 -0.00013 4e-05 -0.00062
Ce1E 0.01623 0.01372 0.02086 0.00013 4e-05 0.00062
Ce1F 0.01623 0.01372 0.02086 -0.00013 4e-05 -0.00062
Ce1G 0.01623 0.01372 0.02086 0.00013 4e-05 0.00062
O1F 0.034 0.0229 0.0478 0.0026 -0.0062 -0.0045
O1G 0.034 0.0229 0.0478 -0.0026 -0.0062 0.0045
O2F 0.0271 0.0263 0.057 0.0006 -0.0028 -0.0008
O2G 0.0271 0.0263 0.057 -0.0006 -0.0028 0.0008
O4D 0.0345 0.03 0.0439 -0.0078 -0.0072 -0.0027
O4E 0.0345 0.03 0.0439 0.0078 -0.0072 0.0027
O10 0.069(3) 0.058(2) 0.198(5) 0.043(3) -0.029(3) -0.001(2)
loop_
_geom_bond_atom_site_label_1
_geom_bond_atom_site_label_2
_geom_bond_site_symmetry_1
_geom_bond_site_symmetry_2
Ce1 O3 1_555 1_555
N1 C3 1_555 1_555
O1 C7 1_555 1_555
O2 C7 1_555 1_555
O3 C1 1_555 1_555
O4 C1 1_555 1_555
O5 Ce1 1_555 1_555
H1 O5 1_555 1_555
H2 O5 1_555 1_555
O6 Ce1 1_555 1_555
H3 O6 1_555 1_555
H4 O6 1_555 1_555
O7 Ce1 1_555 1_555
H5 O7 1_555 1_555
H6 O7 1_555 1_555
O8 Ce1 1_555 1_555
O9 Ce1 1_555 1_555
S1 O8 1_555 1_555
C1 C2 1_555 1_555
C2 C3 1_555 1_555
C3 H7 1_555 1_555
C4 N1 1_555 1_555
H8 C4 1_555 1_555
C5 C4 1_555 1_555
C6 C2 1_555 1_555
H9 C6 1_555 1_555
C7 C5 1_555 1_555
O10 H10 1_555 1_555
H11 O10 1_555 1_555
O8A S1 1_555 1_555
O9A S1 1_555 1_555
Ce1A O8A 1_555 1_555
N1A C3A 1_555 1_555
O1A C7A 1_555 1_555
O2A C7A 1_555 1_555
O3A Ce1A 1_555 1_555
O4A C1A 1_555 1_555
O5A Ce1A 1_555 1_555
H1A O5A 1_555 1_555
H2A O5A 1_555 1_555
O6A Ce1A 1_555 1_555
H3A O6A 1_555 1_555
H4A O6A 1_555 1_555
O7A Ce1A 1_555 1_555
H5A O7A 1_555 1_555
H6A O7A 1_555 1_555
C1A O3A 1_555 1_555
C2A C1A 1_555 1_555
C3A C2A 1_555 1_555
H7A C3A 1_555 1_555
C4A N1A 1_555 1_555
H8A C4A 1_555 1_555
C5A C4A 1_555 1_555
C6A C2A 1_555 1_555
H9A C6A 1_555 1_555
C7A C5A 1_555 1_555
Ce1D O4A 1_555 1_555
Ce1E O4 1_555 1_555
Ce1F O1 1_555 1_555
Ce1G O1A 1_555 1_555
O1F Ce1 1_555 1_555
O1G Ce1A 1_555 1_555
O2F Ce1 1_555 1_555
O2G Ce1A 1_555 1_555
O4D Ce1A 1_555 1_555
O4E Ce1 1_555 1_555
O2 Ce1F 1_555 1_555
O9 S1 1_555 1_555
C5 C6 1_555 1_555
O9A Ce1A 1_555 1_555
O2A Ce1G 1_555 1_555
C5A C6A 1_555 1_555

#END
