
#######################################################################
#
#                 Cambridge Crystallographic Data Centre
#                                CCDC 
#
#######################################################################
#
# If this CIF has been generated from an entry in the Cambridge 
# Structural Database, then it will include bibliographic, chemical, 
# crystal, experimental, refinement or atomic coordinate data resulting 
# from the CCDC's data processing and validation procedures.
#
#######################################################################

data_IKATIZ
_chemical_formula_moiety         '(C41 H32 Cd2 N4 O12)n'
_symmetry_cell_setting           monoclinic
_symmetry_space_group_name_H-M   'C 2/c'
_symmetry_Int_Tables_number      15
_space_group_name_Hall           '-C 2yc'
loop_
_symmetry_equiv_pos_site_id
_symmetry_equiv_pos_as_xyz
1 x,y,z
2 -x,y,1/2-z
3 1/2+x,1/2+y,z
4 1/2-x,1/2+y,1/2-z
5 -x,-y,-z
6 x,-y,1/2+z
7 1/2-x,1/2-y,-z
8 1/2+x,1/2-y,1/2+z
_cell_length_a                   34.747(17)
_cell_length_b                   20.899(10)
_cell_length_c                   14.292(10)
_cell_angle_alpha                90
_cell_angle_beta                 111.642(5)
_cell_angle_gamma                90
_cell_volume                     9646.91
loop_
_atom_site_label
_atom_site_type_symbol
_atom_site_fract_x
_atom_site_fract_y
_atom_site_fract_z
_atom_site_U_iso_or_equiv
_atom_site_thermal_displace_type
C1 C 0.80239(16) 0.3545(3) 0.2546(4) 0.0485 Uani
H1 H 0.8154 0.3869 0.2997 0.0580 Uiso
C2 C 0.75989(15) 0.3549(3) 0.2059(4) 0.0452 Uani
H2 H 0.7443 0.3878 0.2182 0.0550 Uiso
C3 C 0.74011(16) 0.3059(2) 0.1381(4) 0.0438 Uani
C4 C 0.76331(17) 0.2568(2) 0.1198(4) 0.0477 Uani
H3 H 0.7503 0.2244 0.0746 0.0570 Uiso
C5 C 0.80616(16) 0.2563(2) 0.1693(4) 0.0449 Uani
H4 H 0.8217 0.2230 0.1578 0.0540 Uiso
C6 C 0.67209(17) 0.3204(2) 0.1350(4) 0.0481 Uani
H5 H 0.6531 0.3550 0.1039 0.0580 Uiso
H6 H 0.6885 0.3317 0.2041 0.0580 Uiso
C7 C 0.64828(14) 0.2546(2) 0.1286(4) 0.0395 Uani
C8 C 0.67632(16) 0.2030(2) 0.1905(4) 0.0437 Uani
H7 H 0.6602 0.1680 0.2016 0.0520 Uiso
H8 H 0.6937 0.1864 0.1564 0.0520 Uiso
C9 C 0.74071(15) 0.2212(2) 0.3363(4) 0.0410 Uani
C10 C 0.76575(15) 0.2666(2) 0.4129(4) 0.0430 Uani
H9 H 0.7546 0.3047 0.4252 0.0510 Uiso
C11 C 0.80452(17) 0.2512(2) 0.4633(4) 0.0499 Uani
H10 H 0.8200 0.2783 0.5152 0.0600 Uiso
C12 C 0.80104(15) 0.1568(3) 0.3735(4) 0.0440 Uani
H11 H 0.8136 0.1207 0.3594 0.0530 Uiso
C13 C 0.76047(16) 0.1663(2) 0.3220(4) 0.0456 Uani
H12 H 0.7453 0.1357 0.2759 0.0540 Uiso
C14 C 0.62077(15) 0.2793(3) 0.1792(4) 0.0459 Uani
H13 H 0.6059 0.2441 0.1947 0.0550 Uiso
H14 H 0.6372 0.3003 0.2417 0.0550 Uiso
C15 C 0.55116(15) 0.3188(2) 0.0996(4) 0.0415 Uani
C16 C 0.52605(14) 0.3605(2) 0.0325(4) 0.0415 Uani
H15 H 0.5373 0.3917 0.0038 0.0500 Uiso
C17 C 0.48074(14) 0.3565(2) 0.0046(4) 0.0414 Uani
H16 H 0.4626 0.3812 -0.0470 0.0490 Uiso
C18 C 0.49363(15) 0.2809(2) 0.1289(4) 0.0421 Uani
H17 H 0.4815 0.2534 0.1612 0.0510 Uiso
C19 C 0.53205(15) 0.2803(3) 0.1583(4) 0.0452 Uani
H18 H 0.5481 0.2567 0.2144 0.0540 Uiso
C20 C 0.62761(17) 0.2194(3) 0.0323(4) 0.0498 Uani
H19 H 0.6149 0.2493 -0.0224 0.0600 Uiso
H20 H 0.6476 0.1937 0.0163 0.0600 Uiso
C21 C 0.55433(16) 0.1799(2) -0.0108(3) 0.0390 Uani
C22 C 0.53551(16) 0.2163(2) -0.0952(4) 0.0442 Uani
H21 H 0.5516 0.2392 -0.1230 0.0530 Uiso
C23 C 0.49263(15) 0.2194(2) -0.1397(4) 0.0431 Uani
H22 H 0.4806 0.2480 -0.1923 0.0520 Uiso
C24 C 0.48418(16) 0.1454(2) -0.0326(4) 0.0428 Uani
H23 H 0.4667 0.1202 -0.0121 0.0510 Uiso
C25 C 0.52980(16) 0.1425(3) 0.0225(4) 0.0504 Uani
H24 H 0.5413 0.1159 0.0781 0.0610 Uiso
C26 C 0.39941(16) 0.1767(2) 0.0664(4) 0.0428 Uani
C27 C 0.39563(15) 0.1130(2) 0.0972(4) 0.0404 Uani
C28 C 0.39638(16) 0.1054(2) 0.1964(4) 0.0432 Uani
H25 H 0.3981 0.1411 0.2366 0.0520 Uiso
C29 C 0.39453(15) 0.0463(2) 0.2325(4) 0.0445 Uani
H26 H 0.3949 0.0413 0.2975 0.0540 Uiso
C30 C 0.39194(18) -0.0087(3) 0.1709(4) 0.0487 Uani
C31 C 0.39273(15) -0.0012(2) 0.0753(4) 0.0421 Uani
H27 H 0.3923 -0.0373 0.0369 0.0500 Uiso
C32 C 0.39408(15) 0.0577(2) 0.0364(4) 0.0425 Uani
H28 H 0.3940 0.0621 -0.0285 0.0510 Uiso
C33 C 0.39223(16) -0.0731(2) 0.2154(4) 0.0440 Uani
C34 C 0.39734(16) 0.3194(2) -0.2345(4) 0.0400 Uani
C35 C 0.39575(16) 0.3867(2) -0.2750(4) 0.0433 Uani
C36 C 0.39944(16) 0.3937(2) -0.3696(4) 0.0465 Uani
H29 H 0.4040 0.3584 -0.4039 0.0560 Uiso
C37 C 0.39607(14) 0.4544(2) -0.4095(4) 0.0414 Uani
H30 H 0.3977 0.4595 -0.4726 0.0500 Uiso
C38 C 0.39040(14) 0.5076(2) -0.3605(4) 0.0398 Uani
C39 C 0.38775(16) 0.5022(2) -0.2664(4) 0.0439 Uani
H31 H 0.3859 0.5386 -0.2310 0.0530 Uiso
C40 C 0.38785(17) 0.4391(2) -0.2239(4) 0.0493 Uani
H32 H 0.3828 0.4338 -0.1648 0.0590 Uiso
C41 C 0.39015(13) 0.5739(2) -0.4016(4) 0.0372 Uani
Cd1 Cd 0.396064(10) 0.311911(17) 0.01530(3) 0.0382 Uani
Cd2 Cd 0.397806(12) 0.188324(18) -0.19208(3) 0.0448 Uani
N1 N 0.82586(13) 0.3050(2) 0.2356(3) 0.0442 Uani
N2 N 0.82401(13) 0.1975(2) 0.4448(3) 0.0466 Uani
N3 N 0.46787(12) 0.31774(18) 0.0548(3) 0.0351 Uani
N4 N 0.46897(13) 0.18346(18) -0.1099(3) 0.0419 Uani
O1 O 0.69535(11) 0.30683(17) 0.0844(3) 0.0471 Uani
O2 O 0.70048(10) 0.23087(16) 0.2818(3) 0.0454 Uani
O3 O 0.59218(10) 0.32360(17) 0.1142(3) 0.0446 Uani
O4 O 0.59668(11) 0.17928(16) 0.0465(3) 0.0484 Uani
O5 O 0.39465(10) 0.18503(15) -0.0438(3) 0.0427 Uani
O6 O 0.40171(10) 0.22508(16) 0.1198(2) 0.0399 Uani
O7 O 0.39430(11) -0.12119(17) 0.1682(3) 0.0487 Uani
O8 O 0.39308(10) -0.07664(17) 0.3026(3) 0.0448 Uani
O9 O 0.40453(10) 0.27544(17) -0.2830(3) 0.0436 Uani
O10 O 0.39457(11) 0.31433(14) -0.1345(3) 0.0416 Uani
O11 O 0.38994(10) 0.57651(17) -0.4919(3) 0.0446 Uani
O12 O 0.39153(10) 0.62093(17) -0.3489(3) 0.0448 Uani
Cd1E Cd 0.396064(10) 0.688089(17) -0.48470(3) 0.0382 Uani
Cd1G Cd 0.896064(10) 0.188089(17) 0.51530(3) 0.0382 Uani
Cd2E Cd 0.397806(12) -0.188324(18) 0.30792(3) 0.0448 Uani
Cd2G Cd 0.897806(12) 0.311676(18) 0.30792(3) 0.0448 Uani
N1G N 0.32586(13) 0.1950(2) -0.2644(3) 0.0442 Uani
N2G N 0.32401(13) 0.3025(2) -0.0552(3) 0.0466 Uani
O7E O 0.39430(11) 0.12119(17) -0.3318(3) 0.0487 Uani
O8E O 0.39308(10) 0.07664(17) -0.1974(3) 0.0448 Uani
O11E O 0.38994(10) 0.42349(17) 0.0081(3) 0.0446 Uani
O12E O 0.39153(10) 0.37907(17) 0.1511(3) 0.0448 Uani
loop_
_atom_site_aniso_label
_atom_site_aniso_U_11
_atom_site_aniso_U_22
_atom_site_aniso_U_33
_atom_site_aniso_U_23
_atom_site_aniso_U_13
_atom_site_aniso_U_12
C1 0.044(3) 0.042(3) 0.044(3) 0.003(2) -0.002(2) 0.002(2)
C2 0.040(3) 0.046(3) 0.044(3) 0.012(2) 0.009(2) 0.007(2)
C3 0.038(2) 0.051(3) 0.041(3) 0.016(2) 0.013(2) -0.008(2)
C4 0.052(3) 0.041(3) 0.040(3) 0.011(2) 0.005(2) -0.006(2)
C5 0.046(3) 0.044(3) 0.045(3) 0.008(2) 0.017(2) 0.003(2)
C6 0.043(3) 0.043(3) 0.054(3) 0.010(2) 0.013(3) 0.002(2)
C7 0.030(2) 0.046(3) 0.043(3) 0.012(2) 0.014(2) -0.0009(19)
C8 0.043(3) 0.039(3) 0.041(3) -0.003(2) 0.006(2) 0.007(2)
C9 0.035(2) 0.039(3) 0.045(3) 0.004(2) 0.010(2) 0.000(2)
C10 0.043(3) 0.038(3) 0.043(3) 0.003(2) 0.010(2) 0.000(2)
C11 0.047(3) 0.037(3) 0.049(3) 0.002(2) -0.002(2) -0.007(2)
C12 0.042(3) 0.042(3) 0.046(3) 0.011(2) 0.014(2) 0.011(2)
C13 0.041(3) 0.037(2) 0.049(3) 0.004(2) 0.005(2) 0.009(2)
C14 0.034(2) 0.054(3) 0.048(3) 0.018(2) 0.013(2) 0.015(2)
C15 0.034(2) 0.047(3) 0.041(3) 0.012(2) 0.011(2) 0.011(2)
C16 0.027(2) 0.051(3) 0.044(3) 0.016(2) 0.010(2) 0.002(2)
C17 0.027(2) 0.038(3) 0.046(3) 0.012(2) -0.002(2) -0.0090(19)
C18 0.038(3) 0.040(3) 0.041(3) 0.013(2) 0.006(2) 0.008(2)
C19 0.039(3) 0.051(3) 0.040(3) 0.012(2) 0.008(2) 0.002(2)
C20 0.051(3) 0.048(3) 0.041(3) 0.012(2) 0.006(2) -0.007(2)
C21 0.045(3) 0.040(3) 0.026(2) -0.0003(19) 0.006(2) 0.000(2)
C22 0.042(3) 0.041(3) 0.052(3) 0.019(2) 0.020(2) 0.014(2)
C23 0.042(3) 0.050(3) 0.031(2) 0.006(2) 0.006(2) -0.011(2)
C24 0.047(3) 0.041(3) 0.041(3) 0.012(2) 0.017(2) 0.005(2)
C25 0.048(3) 0.043(3) 0.044(3) 0.016(2) -0.002(2) -0.010(2)
C26 0.044(3) 0.039(3) 0.040(3) 0.007(2) 0.009(2) 0.016(2)
C27 0.037(2) 0.041(3) 0.039(3) -0.007(2) 0.009(2) -0.011(2)
C28 0.051(3) 0.039(3) 0.039(3) -0.002(2) 0.016(2) 0.005(2)
C29 0.043(3) 0.043(3) 0.044(3) 0.002(2) 0.012(2) -0.007(2)
C30 0.056(3) 0.040(3) 0.046(3) 0.009(2) 0.014(3) 0.006(2)
C31 0.038(3) 0.039(3) 0.050(3) 0.003(2) 0.017(2) 0.003(2)
C32 0.046(3) 0.043(3) 0.038(3) -0.007(2) 0.015(2) -0.013(2)
C33 0.046(3) 0.041(3) 0.040(3) 0.002(2) 0.010(2) -0.003(2)
C34 0.039(3) 0.039(3) 0.039(3) -0.004(2) 0.011(2) -0.004(2)
C35 0.051(3) 0.040(3) 0.034(2) -0.005(2) 0.010(2) -0.013(2)
C36 0.055(3) 0.042(3) 0.041(3) 0.003(2) 0.016(3) 0.000(2)
C37 0.041(3) 0.040(3) 0.042(3) 0.004(2) 0.014(2) 0.002(2)
C38 0.033(2) 0.042(3) 0.045(3) -0.003(2) 0.015(2) -0.009(2)
C39 0.050(3) 0.041(3) 0.035(2) 0.003(2) 0.009(2) -0.002(2)
C40 0.062(3) 0.041(3) 0.037(3) 0.007(2) 0.009(2) 0.013(2)
C41 0.029(2) 0.037(3) 0.040(3) 0.003(2) 0.006(2) 0.0008(19)
Cd1 0.02875(18) 0.0416(2) 0.0419(2) -0.00101(15) 0.01024(15) -0.00116(14)
Cd2 0.0462(2) 0.0432(2) 0.0438(2) -0.00015(16) 0.01509(18) 0.00213(16)
N1 0.041(2) 0.049(3) 0.039(2) 0.0087(19) 0.0107(19) 0.0052(19)
N2 0.039(2) 0.050(3) 0.038(2) 0.0205(19) -0.0007(19) 0.0097(19)
N3 0.0338(19) 0.043(2) 0.034(2) 0.0102(16) 0.0189(17) 0.0089(16)
N4 0.043(2) 0.040(2) 0.043(2) 0.0157(18) 0.0162(19) 0.0059(18)
O1 0.046(2) 0.050(2) 0.043(2) 0.0081(16) 0.0138(17) -0.0148(16)
O2 0.0428(19) 0.0426(19) 0.0431(19) -0.0148(16) 0.0068(16) 0.0161(15)
O3 0.0331(17) 0.053(2) 0.0443(19) 0.0199(16) 0.0102(15) 0.0103(14)
O4 0.044(2) 0.0427(19) 0.046(2) 0.0029(16) 0.0019(17) -0.0054(15)
O5 0.0367(17) 0.0471(19) 0.045(2) -0.0042(16) 0.0158(15) 0.0108(15)
O6 0.0372(18) 0.0402(19) 0.0443(19) -0.0068(15) 0.0174(16) -0.0128(14)
O7 0.050(2) 0.040(2) 0.052(2) 0.0025(17) 0.0139(18) 0.0039(16)
O8 0.046(2) 0.043(2) 0.044(2) -0.0002(15) 0.0151(17) 0.0021(15)
O9 0.0405(19) 0.045(2) 0.0425(19) 0.0059(16) 0.0121(16) 0.0164(15)
O10 0.047(2) 0.0349(17) 0.0422(19) -0.0071(14) 0.0155(16) -0.0084(14)
O11 0.0422(19) 0.049(2) 0.046(2) 0.0007(16) 0.0203(16) 0.0028(15)
O12 0.0391(18) 0.047(2) 0.044(2) -0.0010(16) 0.0102(16) -0.0012(15)
Cd1E 0.02875 0.0416 0.0419 0.00101 0.01024 0.00116
Cd1G 0.02875 0.0416 0.0419 0.00101 0.01024 0.00116
Cd2E 0.0462 0.0432 0.0438 0.00015 0.01509 -0.00213
Cd2G 0.0462 0.0432 0.0438 0.00015 0.01509 -0.00213
N1G 0.041 0.049 0.039 -0.0087 0.0107 -0.0052
N2G 0.039 0.05 0.038 -0.0205 -0.0007 -0.0097
O7E 0.05 0.04 0.052 -0.0025 0.0139 -0.0039
O8E 0.046 0.043 0.044 0.0002 0.0151 -0.0021
O11E 0.0422 0.049 0.046 -0.0007 0.0203 -0.0028
O12E 0.0391 0.047 0.044 0.001 0.0102 0.0012
loop_
_geom_bond_atom_site_label_1
_geom_bond_atom_site_label_2
_geom_bond_site_symmetry_1
_geom_bond_site_symmetry_2
C1 H1 1_555 1_555
C2 C1 1_555 1_555
H2 C2 1_555 1_555
C3 C2 1_555 1_555
C4 C3 1_555 1_555
H3 C4 1_555 1_555
C5 C4 1_555 1_555
H4 C5 1_555 1_555
C6 H5 1_555 1_555
H6 C6 1_555 1_555
C7 C6 1_555 1_555
C8 C7 1_555 1_555
H7 C8 1_555 1_555
H8 C8 1_555 1_555
C9 C10 1_555 1_555
C10 H9 1_555 1_555
C11 C10 1_555 1_555
H10 C11 1_555 1_555
C12 H11 1_555 1_555
C13 C9 1_555 1_555
H12 C13 1_555 1_555
C14 C7 1_555 1_555
H13 C14 1_555 1_555
H14 C14 1_555 1_555
C15 C16 1_555 1_555
C16 H15 1_555 1_555
C17 C16 1_555 1_555
H16 C17 1_555 1_555
C18 H17 1_555 1_555
C19 C15 1_555 1_555
H18 C19 1_555 1_555
C20 C7 1_555 1_555
H19 C20 1_555 1_555
H20 C20 1_555 1_555
C21 C22 1_555 1_555
C22 H21 1_555 1_555
C23 C22 1_555 1_555
H22 C23 1_555 1_555
C24 H23 1_555 1_555
C25 C21 1_555 1_555
H24 C25 1_555 1_555
C26 C27 1_555 1_555
C27 C28 1_555 1_555
C28 H25 1_555 1_555
C29 C28 1_555 1_555
H26 C29 1_555 1_555
C30 C29 1_555 1_555
C31 C30 1_555 1_555
H27 C31 1_555 1_555
C32 C27 1_555 1_555
H28 C32 1_555 1_555
C33 C30 1_555 1_555
C34 C35 1_555 1_555
C35 C36 1_555 1_555
C36 H29 1_555 1_555
C37 C36 1_555 1_555
H30 C37 1_555 1_555
C38 C37 1_555 1_555
C39 C38 1_555 1_555
H31 C39 1_555 1_555
C40 C35 1_555 1_555
H32 C40 1_555 1_555
C41 C38 1_555 1_555
Cd1 N3 1_555 1_555
Cd2 N4 1_555 1_555
N1 C1 1_555 1_555
N2 C11 1_555 1_555
N3 C17 1_555 1_555
N4 C23 1_555 1_555
O1 C3 1_555 1_555
O2 C8 1_555 1_555
O3 C14 1_555 1_555
O4 C20 1_555 1_555
O5 C26 1_555 1_555
O6 C26 1_555 1_555
O7 C33 1_555 1_555
O8 C33 1_555 1_555
O9 C34 1_555 1_555
O10 C34 1_555 1_555
O11 C41 1_555 1_555
O12 C41 1_555 1_555
Cd1E O11 1_555 1_555
Cd1G N2 1_555 1_555
Cd2E O7 1_555 1_555
Cd2G N1 1_555 1_555
N1G Cd2 1_555 1_555
N2G Cd1 1_555 1_555
O7E Cd2 1_555 1_555
O8E Cd2 1_555 1_555
O11E Cd1 1_555 1_555
O12E Cd1 1_555 1_555
C5 N1 1_555 1_555
C6 O1 1_555 1_555
C9 O2 1_555 1_555
C12 C13 1_555 1_555
C12 N2 1_555 1_555
C15 O3 1_555 1_555
C18 C19 1_555 1_555
C18 N3 1_555 1_555
C21 O4 1_555 1_555
C24 C25 1_555 1_555
C24 N4 1_555 1_555
C31 C32 1_555 1_555
C39 C40 1_555 1_555
Cd1 O5 1_555 1_555
Cd1 O6 1_555 1_555
Cd1 O10 1_555 1_555
Cd2 O5 1_555 1_555
Cd2 O9 1_555 1_555
Cd2 O10 1_555 1_555
O8 Cd2E 1_555 1_555
O12 Cd1E 1_555 1_555

#END
