
#######################################################################
#
#                 Cambridge Crystallographic Data Centre
#                                CCDC 
#
#######################################################################
#
# If this CIF has been generated from an entry in the Cambridge 
# Structural Database, then it will include bibliographic, chemical, 
# crystal, experimental, refinement or atomic coordinate data resulting 
# from the CCDC's data processing and validation procedures.
#
#######################################################################

data_IKULUX
_chemical_formula_moiety         '(C33 H42 Co1 N8 O15 2-)n'
_symmetry_cell_setting           monoclinic
_symmetry_space_group_name_H-M   'P 21/c'
_symmetry_Int_Tables_number      14
_space_group_name_Hall           '-P 2ybc'
loop_
_symmetry_equiv_pos_site_id
_symmetry_equiv_pos_as_xyz
1 x,y,z
2 -x,1/2+y,1/2-z
3 -x,-y,-z
4 x,1/2-y,1/2+z
_cell_length_a                   10.7228(9)
_cell_length_b                   16.7740(14)
_cell_length_c                   19.6191(13)
_cell_angle_alpha                90
_cell_angle_beta                 120.924(3)
_cell_angle_gamma                90
_cell_volume                     3027.16
loop_
_atom_site_label
_atom_site_type_symbol
_atom_site_fract_x
_atom_site_fract_y
_atom_site_fract_z
_atom_site_U_iso_or_equiv
_atom_site_thermal_displace_type
C1 C 0.6372(5) 0.1921(3) 0.2684(3) 0.0275 Uani
H1 H 0.6733 0.2409 0.2638 0.0330 Uiso
C2 C 0.5148(6) 0.1037(3) 0.2876(3) 0.0421 Uani
H2 H 0.4480 0.0799 0.2979 0.0500 Uiso
C3 C 0.6106(6) 0.0641(3) 0.2744(4) 0.0460 Uani
H3 H 0.6225 0.0092 0.2748 0.0550 Uiso
C4 C 0.8140(5) 0.1072(3) 0.2531(3) 0.0291 Uani
H4 H 0.8435 0.0521 0.2673 0.0350 Uiso
H5 H 0.8927 0.1403 0.2920 0.0350 Uiso
C5 C 0.7977(4) 0.1230(2) 0.1715(2) 0.0235 Uani
C6 C 0.6673(4) 0.0773(2) 0.1036(3) 0.0276 Uani
H6 H 0.5793 0.0952 0.1015 0.0330 Uiso
H7 H 0.6595 0.0921 0.0538 0.0330 Uiso
C7 C 0.5997(5) -0.0556(3) 0.1330(3) 0.0305 Uani
H8 H 0.5365 -0.0361 0.1483 0.0360 Uiso
C8 C 0.7241(5) -0.1348(3) 0.1055(3) 0.0336 Uani
H9 H 0.7650 -0.1811 0.0993 0.0400 Uiso
C9 C 0.7502(5) -0.0606(3) 0.0898(3) 0.0323 Uani
H10 H 0.8089 -0.0466 0.0696 0.0390 Uiso
C10 C 0.9393(4) 0.0938(2) 0.1766(3) 0.0267 Uani
H11 H 0.9430 0.0361 0.1808 0.0320 Uiso
H12 H 0.9348 0.1075 0.1274 0.0320 Uiso
C11 C 1.1506(5) 0.0982(3) 0.3197(3) 0.0374 Uani
H13 H 1.1231 0.0564 0.3404 0.0450 Uiso
C12 C 1.1556(4) 0.1852(2) 0.2394(2) 0.0266 Uani
H14 H 1.1296 0.2141 0.1935 0.0320 Uiso
C13 C 0.7698(5) 0.2130(2) 0.1525(2) 0.0255 Uani
H15 H 0.6892 0.2291 0.1586 0.0310 Uiso
H16 H 0.8550 0.2422 0.1915 0.0310 Uiso
C14 C 0.8308(5) 0.2625(3) 0.0501(3) 0.0329 Uani
H17 H 0.9303 0.2707 0.0826 0.0400 Uiso
C15 C 0.7504(5) 0.2738(3) -0.0289(3) 0.0332 Uani
H18 H 0.7865 0.2913 -0.0605 0.0400 Uiso
C16 C 0.6033(4) 0.2351(2) 0.0075(2) 0.0267 Uani
H19 H 0.5192 0.2213 0.0074 0.0320 Uiso
Co1 Co 0.44619(6) 0.27474(3) 0.32312(3) 0.0215 Uani
N1 N 0.5315(4) 0.1840(2) 0.2833(2) 0.0274 Uani
N2 N 0.6868(4) 0.1212(2) 0.2604(2) 0.0282 Uani
N3 N 1.0748(4) 0.1264(2) 0.2432(2) 0.0254 Uani
C17 C 1.2752(3) 0.1977(2) 0.3076(2) 0.0131 Uani
H20 H 1.3464 0.2355 0.3185 0.0160 Uiso
N4 N 0.7372(4) 0.23639(19) 0.0732(2) 0.0244 Uani
N5 N 0.6065(4) 0.2558(2) -0.0564(2) 0.0270 Uani
N6 N 0.6728(4) -0.0096(2) 0.1094(2) 0.0266 Uani
N7 N 0.6282(4) -0.1318(2) 0.1320(2) 0.0280 Uani
N8 N 1.2739(5) 0.1430(3) 0.3598(3) 0.0500 Uani
O1 O 0.5977(3) 0.35831(17) 0.31905(18) 0.0315 Uani
H21 H 0.5706 0.3877 0.2785 0.0380 Uiso
H22 H 0.6845 0.3612 0.3581 0.0380 Uiso
O2 O 0.2976(3) 0.31909(19) 0.20758(18) 0.0362 Uani
H23 H 0.2867 0.3690 0.2101 0.0540 Uiso
H24 H 0.3309 0.3103 0.1773 0.0540 Uiso
Co1A Co 0.55381(6) -0.22526(3) 0.17688(3) 0.0215 Uani
Co1C Co 0.44619(6) 0.22526(3) -0.17688(3) 0.0215 Uani
N5C N 0.6065(4) 0.2442(2) 0.4436(2) 0.0270 Uani
N7A N 0.3718(4) 0.3682(2) 0.3680(2) 0.0280 Uani
C18 C 0.9888(5) 0.3372(3) 0.4447(3) 0.0444 Uani
C19 C 0.9925(5) 0.4212(3) 0.4726(3) 0.0413 Uani
C20 C 1.0973(6) 0.4431(3) 0.5502(3) 0.0456 Uani
H25 H 1.1634 0.4053 0.5845 0.0540 Uiso
C21 C 0.8966(5) 0.4792(3) 0.4235(3) 0.0450 Uani
H26 H 0.8262 0.4659 0.3717 0.0540 Uiso
O3 O 0.8874(4) 0.3196(2) 0.3765(2) 0.0552 Uani
O4 O 1.0852(4) 0.2903(3) 0.4901(3) 0.0723 Uani
C18B C 1.0112(5) 0.6628(3) 0.5553(3) 0.0444 Uani
C19B C 1.0075(5) 0.5788(3) 0.5274(3) 0.0413 Uani
C20B C 0.9027(6) 0.5569(3) 0.4498(3) 0.0456 Uani
H25B H 0.8366 0.5947 0.4155 0.0540 Uiso
C21B C 1.1034(5) 0.5208(3) 0.5765(3) 0.0450 Uani
H26B H 1.1738 0.5341 0.6283 0.0540 Uiso
O3B O 1.1126(4) 0.6804(2) 0.6235(2) 0.0552 Uani
O4B O 0.9148(4) 0.7097(3) 0.5099(3) 0.0723 Uani
C22 C 0.4803(5) 0.4110(3) 0.1209(3) 0.0352 Uani
C23 C 0.4916(5) 0.4567(3) 0.0583(3) 0.0300 Uani
C24 C 0.6074(5) 0.4455(3) 0.0469(3) 0.0324 Uani
H27 H 0.6799 0.4091 0.0782 0.0390 Uiso
C25 C 0.3841(5) 0.5120(3) 0.0108(3) 0.0312 Uani
H28 H 0.3060 0.5202 0.0181 0.0380 Uiso
O5 O 0.3565(4) 0.4019(2) 0.1115(2) 0.0544 Uani
O6 O 0.5930(4) 0.3837(3) 0.1790(2) 0.0668 Uani
C22B C 0.5197(5) 0.5890(3) -0.1209(3) 0.0352 Uani
C23B C 0.5084(5) 0.5433(3) -0.0583(3) 0.0300 Uani
C24B C 0.3926(5) 0.5545(3) -0.0469(3) 0.0324 Uani
H27B H 0.3201 0.5909 -0.0782 0.0390 Uiso
C25B C 0.6159(5) 0.4880(3) -0.0108(3) 0.0312 Uani
H28B H 0.6940 0.4798 -0.0181 0.0380 Uiso
O5B O 0.6435(4) 0.5981(2) -0.1115(2) 0.0544 Uani
O6B O 0.4070(4) 0.6163(3) -0.1790(2) 0.0668 Uani
O7 O 1.0046(11) 0.5242(6) 0.9283(6) 0.1950 Uiso
H29 H 0.9612 0.4857 0.9356 0.2930 Uiso
H30 H 1.0805 0.5364 0.9721 0.2930 Uiso
O8 O 0.3887(5) 0.2951(3) 0.5812(3) 0.0687 Uiso
H31 H 0.4382 0.2585 0.6140 0.1030 Uiso
H32 H 0.2996 0.2897 0.5668 0.1030 Uiso
O9 O 0.0723(6) 0.4042(3) 0.1954(3) 0.0938 Uiso
H33 H 0.0499 0.4064 0.1472 0.1410 Uiso
H34 H 0.0040 0.3817 0.1983 0.1410 Uiso
O10 O 0.0780(6) 0.3741(3) 0.9835(4) 0.0991 Uiso
H35 H 0.0043 0.3457 0.9726 0.1490 Uiso
H36 H 0.1501 0.3593 1.0276 0.1490 Uiso
O11 O 0.8875(5) 0.3984(3) 0.2503(3) 0.0699 Uiso
H37 H 0.8247 0.3807 0.2607 0.0840 Uiso
H38 H 0.8813 0.4488 0.2464 0.1050 Uiso
loop_
_atom_site_aniso_label
_atom_site_aniso_U_11
_atom_site_aniso_U_22
_atom_site_aniso_U_33
_atom_site_aniso_U_23
_atom_site_aniso_U_13
_atom_site_aniso_U_12
C1 0.032(2) 0.025(2) 0.033(2) -0.0023(17) 0.022(2) -0.0024(18)
C2 0.055(3) 0.033(3) 0.062(3) -0.005(2) 0.047(3) -0.007(2)
C3 0.070(4) 0.022(2) 0.076(4) 0.001(2) 0.059(3) 0.001(2)
C4 0.030(2) 0.036(2) 0.026(2) 0.0067(18) 0.0177(19) 0.0071(18)
C5 0.022(2) 0.024(2) 0.028(2) -0.0007(17) 0.0153(18) 0.0002(16)
C6 0.025(2) 0.023(2) 0.032(2) -0.0001(17) 0.0127(19) -0.0038(16)
C7 0.026(2) 0.027(2) 0.042(3) -0.0012(18) 0.020(2) -0.0031(17)
C8 0.034(2) 0.027(2) 0.045(3) -0.0073(19) 0.024(2) -0.0042(19)
C9 0.034(2) 0.034(2) 0.040(3) -0.0119(19) 0.027(2) -0.0108(19)
C10 0.023(2) 0.027(2) 0.032(2) -0.0048(17) 0.0156(19) -0.0048(17)
C11 0.026(2) 0.038(3) 0.041(3) 0.012(2) 0.012(2) -0.0085(19)
C12 0.027(2) 0.028(2) 0.027(2) 0.0081(17) 0.0154(19) 0.0002(17)
C13 0.027(2) 0.023(2) 0.025(2) -0.0025(16) 0.0123(18) -0.0014(16)
C14 0.023(2) 0.040(3) 0.031(2) 0.0030(19) 0.0105(19) -0.0047(19)
C15 0.027(2) 0.039(3) 0.035(3) 0.005(2) 0.017(2) -0.0043(19)
C16 0.024(2) 0.028(2) 0.027(2) -0.0006(17) 0.0124(18) -0.0023(17)
Co1 0.0200(3) 0.0219(3) 0.0231(3) 0.0002(2) 0.0114(2) -0.0002(2)
N1 0.0301(19) 0.0289(19) 0.0260(18) -0.0014(15) 0.0165(16) -0.0005(15)
N2 0.0311(19) 0.0268(19) 0.034(2) 0.0028(15) 0.0219(17) 0.0025(15)
N3 0.0204(17) 0.0267(18) 0.0275(19) 0.0001(14) 0.0112(15) -0.0013(14)
C17 0.0078(16) 0.0120(16) 0.0180(18) 0.0022(13) 0.0055(15) -0.0029(13)
N4 0.0238(18) 0.0210(17) 0.0252(18) 0.0017(14) 0.0102(15) -0.0024(14)
N5 0.0238(18) 0.0261(18) 0.0297(19) 0.0006(15) 0.0128(16) -0.0028(14)
N6 0.0225(17) 0.0253(18) 0.032(2) -0.0031(14) 0.0141(16) -0.0053(14)
N7 0.0263(18) 0.0253(19) 0.034(2) -0.0047(15) 0.0166(16) -0.0058(14)
N8 0.043(3) 0.057(3) 0.050(3) 0.008(2) 0.024(2) -0.004(2)
O1 0.0288(16) 0.0322(16) 0.0329(17) 0.0017(13) 0.0154(14) -0.0047(13)
O2 0.0377(18) 0.0391(18) 0.0343(18) 0.0106(14) 0.0202(15) 0.0045(14)
Co1A 0.02 0.0219 0.0231 -0.0002 0.0114 0.0002
Co1C 0.02 0.0219 0.0231 -0.0002 0.0114 0.0002
N5C 0.0238 0.0261 0.0297 -0.0006 0.0128 0.0028
N7A 0.0263 0.0253 0.034 0.0047 0.0166 0.0058
C18 0.029(3) 0.051(3) 0.050(3) 0.003(3) 0.018(3) -0.005(2)
C19 0.033(3) 0.050(3) 0.041(3) 0.005(2) 0.019(2) -0.005(2)
C20 0.041(3) 0.049(3) 0.040(3) 0.007(2) 0.016(2) -0.002(2)
C21 0.038(3) 0.050(3) 0.040(3) -0.001(2) 0.015(2) -0.003(2)
O3 0.043(2) 0.055(2) 0.059(3) 0.0012(19) 0.020(2) -0.0032(18)
O4 0.041(2) 0.054(3) 0.085(3) 0.000(2) 0.006(2) 0.0067(19)
C18B 0.029 0.051 0.05 0.003 0.018 -0.005
C19B 0.033 0.05 0.041 0.005 0.019 -0.005
C20B 0.041 0.049 0.04 0.007 0.016 -0.002
C21B 0.038 0.05 0.04 -0.001 0.015 -0.003
O3B 0.043 0.055 0.059 0.0012 0.02 -0.0032
O4B 0.041 0.054 0.085 0 0.006 0.0067
C22 0.041(3) 0.033(2) 0.034(3) 0.002(2) 0.021(2) -0.007(2)
C23 0.035(2) 0.028(2) 0.028(2) -0.0036(17) 0.017(2) -0.0098(18)
C24 0.038(3) 0.026(2) 0.033(2) 0.0032(18) 0.018(2) -0.0011(18)
C25 0.038(2) 0.032(2) 0.031(2) -0.0013(18) 0.023(2) -0.0033(19)
O5 0.047(2) 0.072(3) 0.050(2) 0.0178(19) 0.0291(19) -0.0081(19)
O6 0.049(2) 0.101(3) 0.052(2) 0.040(2) 0.027(2) 0.006(2)
C22B 0.041 0.033 0.034 0.002 0.021 -0.007
C23B 0.035 0.028 0.028 -0.0036 0.017 -0.0098
C24B 0.038 0.026 0.033 0.0032 0.018 -0.0011
C25B 0.038 0.032 0.031 -0.0013 0.023 -0.0033
O5B 0.047 0.072 0.05 0.0178 0.0291 -0.0081
O6B 0.049 0.101 0.052 0.04 0.027 0.006
loop_
_geom_bond_atom_site_label_1
_geom_bond_atom_site_label_2
_geom_bond_site_symmetry_1
_geom_bond_site_symmetry_2
C1 H1 1_555 1_555
C2 H2 1_555 1_555
C3 C2 1_555 1_555
H3 C3 1_555 1_555
C4 H4 1_555 1_555
H5 C4 1_555 1_555
C5 C4 1_555 1_555
C6 C5 1_555 1_555
H6 C6 1_555 1_555
H7 C6 1_555 1_555
C7 H8 1_555 1_555
C8 H9 1_555 1_555
C9 C8 1_555 1_555
H10 C9 1_555 1_555
C10 C5 1_555 1_555
H11 C10 1_555 1_555
H12 C10 1_555 1_555
C11 H13 1_555 1_555
C12 H14 1_555 1_555
C13 C5 1_555 1_555
H15 C13 1_555 1_555
H16 C13 1_555 1_555
C14 H17 1_555 1_555
C15 C14 1_555 1_555
H18 C15 1_555 1_555
C16 H19 1_555 1_555
Co1 N1 1_555 1_555
N1 C1 1_555 1_555
N2 C1 1_555 1_555
N3 C10 1_555 1_555
C17 C12 1_555 1_555
H20 C17 1_555 1_555
N4 C13 1_555 1_555
N5 C15 1_555 1_555
N6 C6 1_555 1_555
N7 C7 1_555 1_555
N8 C11 1_555 1_555
O1 Co1 1_555 1_555
H21 O1 1_555 1_555
H22 O1 1_555 1_555
O2 Co1 1_555 1_555
H23 O2 1_555 1_555
H24 O2 1_555 1_555
C18 C19 1_555 1_555
C19 C20 1_555 1_555
C20 H25 1_555 1_555
C21 C19 1_555 1_555
H26 C21 1_555 1_555
O3 C18 1_555 1_555
O4 C18 1_555 1_555
C22 C23 1_555 1_555
C23 C24 1_555 1_555
C24 H27 1_555 1_555
C25 C23 1_555 1_555
H28 C25 1_555 1_555
O5 C22 1_555 1_555
O6 C22 1_555 1_555
O7 H29 1_555 1_555
H30 O7 1_555 1_555
O8 H31 1_555 1_555
H32 O8 1_555 1_555
O9 H33 1_555 1_555
H34 O9 1_555 1_555
O10 H35 1_555 1_555
H36 O10 1_555 1_555
O11 H37 1_555 1_555
H38 O11 1_555 1_555
Co1A N7 1_555 1_555
Co1C N5 1_555 1_555
N5C Co1 1_555 1_555
N7A Co1 1_555 1_555
C18B C19B 1_555 1_555
C19B C20B 1_555 1_555
C20B C21 1_555 1_555
H25B C20B 1_555 1_555
C21B C20 1_555 1_555
H26B C21B 1_555 1_555
O3B C18B 1_555 1_555
O4B C18B 1_555 1_555
C22B C23B 1_555 1_555
C23B C24B 1_555 1_555
C24B C25 1_555 1_555
H27B C24B 1_555 1_555
C25B C24 1_555 1_555
H28B C25B 1_555 1_555
O5B C22B 1_555 1_555
O6B C22B 1_555 1_555
C2 N1 1_555 1_555
C3 N2 1_555 1_555
C4 N2 1_555 1_555
C7 N6 1_555 1_555
C8 N7 1_555 1_555
C9 N6 1_555 1_555
C11 N3 1_555 1_555
C12 N3 1_555 1_555
C14 N4 1_555 1_555
C16 N4 1_555 1_555
C16 N5 1_555 1_555
C17 N8 1_555 1_555
C19B C21B 1_555 1_555
C23B C25B 1_555 1_555

#END
