
#######################################################################
#
#                 Cambridge Crystallographic Data Centre
#                                CCDC 
#
#######################################################################
#
# If this CIF has been generated from an entry in the Cambridge 
# Structural Database, then it will include bibliographic, chemical, 
# crystal, experimental, refinement or atomic coordinate data resulting 
# from the CCDC's data processing and validation procedures.
#
#######################################################################

data_IKUMAE
_chemical_formula_moiety         '(C50 H54 Cd2 N16 O11)n'
_symmetry_cell_setting           triclinic
_symmetry_space_group_name_H-M   'P -1'
_symmetry_Int_Tables_number      2
_space_group_name_Hall           '-P 1'
loop_
_symmetry_equiv_pos_site_id
_symmetry_equiv_pos_as_xyz
1 x,y,z
2 -x,-y,-z
_cell_length_a                   11.1345(8)
_cell_length_b                   11.1659(8)
_cell_length_c                   12.6916(9)
_cell_angle_alpha                88.0670(10)
_cell_angle_beta                 88.9070(10)
_cell_angle_gamma                65.2260(10)
_cell_volume                     1431.85
loop_
_atom_site_label
_atom_site_type_symbol
_atom_site_fract_x
_atom_site_fract_y
_atom_site_fract_z
O1 O 0.9692(3) 0.4728(3) 0.3533(3)
H1 H 0.9767 0.4497 0.4164
H2 H 0.9202 0.5567 0.3467
Cd1 Cd 0.29268(2) 0.76106(2) 0.82459(2)
O2 O 0.0817(3) 0.7631(3) 0.8826(2)
O3 O 0.2455(3) 0.5716(3) 0.8444(2)
N1 N 0.2286(3) 0.7985(3) 0.6486(2)
N2 N 0.1331(3) 0.8194(3) 0.4942(2)
N3 N 0.3061(3) 0.7340(3) 0.1739(2)
N4 N -0.0659(3) 0.8130(3) 0.2115(2)
N5 N 0.3131(3) 0.4682(3) 0.3007(2)
N6 N 0.4934(3) 0.3192(3) 0.2289(2)
N7 N -0.2105(3) 1.0123(3) 0.1623(2)
N8 N 0.3460(3) 0.7259(3) 0.0023(2)
C1 C 0.1585(3) 0.7560(3) 0.5897(2)
H3 H 0.1305 0.6913 0.6109
C2 C 0.2482(4) 0.8939(4) 0.5881(3)
H4 H 0.2953 0.9407 0.6092
C3 C 0.1889(4) 0.9091(3) 0.4940(3)
H5 H 0.1860 0.9682 0.4396
C4 C 0.0600(3) 0.7970(3) 0.4075(3)
H6 H 0.0016 0.8819 0.3768
H7 H 0.0053 0.7553 0.4362
C5 C 0.1490(3) 0.7100(3) 0.3184(2)
C6 C 0.2303(3) 0.5738(3) 0.3714(2)
H8 H 0.2873 0.5844 0.4237
H9 H 0.1696 0.5452 0.4085
C7 C 0.2732(3) 0.3986(4) 0.2322(3)
H10 H 0.1867 0.4112 0.2191
C8 C 0.0572(3) 0.6950(3) 0.2352(3)
H11 H 0.1070 0.6670 0.1701
H12 H 0.033(4) 0.645(3) 0.259(3)
C9 C -0.1895(4) 0.8136(4) 0.2201(3)
H13 H -0.2090 0.7436 0.2429
C10 C 0.2365(3) 0.7790(3) 0.2749(2)
H14 H 0.1807 0.8727 0.2671
H15 H 0.3022 0.7684 0.3277
C11 C 0.2549(4) 0.7722(4) 0.0767(3)
H16 H 0.1661 0.8250 0.0636
C12 C 0.4628(4) 0.6562(4) 0.0554(3)
H17 H 0.5451 0.6122 0.0238
C13 C 0.4392(4) 0.6616(4) 0.1605(3)
H18 H 0.5014 0.6234 0.2135
C14 C -0.0838(3) 0.9352(3) 0.1775(3)
H19 H -0.0157 0.9617 0.1663
C15 C -0.2770(4) 0.9354(4) 0.1892(3)
H20 H -0.3682 0.9633 0.1863
C16 C 0.3849(4) 0.3080(4) 0.1876(3)
H21 H 0.3878 0.2480 0.1374
C17 C 0.4464(3) 0.4150(3) 0.2970(3)
H22 H 0.4986 0.4424 0.3373
C18 C 0.1344(4) 0.6380(4) 0.8849(3)
C19 C 0.0637(4) 0.5657(4) 0.9429(3)
C20 C -0.0639(4) 0.6348(4) 0.9829(3)
H23 H -0.1067 0.7257 0.9718
C21 C 0.1270(4) 0.4305(4) 0.9612(3)
H24 H 0.2124 0.3836 0.9357
O2A O -0.0817(3) 0.2369(3) 1.1174(2)
O3A O -0.2455(3) 0.4284(3) 1.1556(2)
C18A C -0.1344(4) 0.3620(4) 1.1151(3)
C19A C -0.0637(4) 0.4343(4) 1.0571(3)
C20A C 0.0639(4) 0.3652(4) 1.0171(3)
H23A H 0.1067 0.2743 1.0282
C21A C -0.1270(4) 0.5695(4) 1.0388(3)
H24A H -0.2124 0.6164 1.0643
Cd1A Cd -0.29268(2) 0.23894(2) 1.17541(2)
N1A N -0.2286(3) 0.2015(3) 1.3514(2)
N2A N -0.1331(3) 0.1806(3) 1.5058(2)
N3A N -0.3061(3) 0.2660(3) 1.8261(2)
N4A N 0.0659(3) 0.1870(3) 1.7885(2)
N5A N -0.3131(3) 0.5318(3) 1.6993(2)
N6A N -0.4934(3) 0.6808(3) 1.7711(2)
N7A N 0.2105(3) -0.0123(3) 1.8377(2)
N8A N -0.3460(3) 0.2741(3) 1.9977(2)
C1A C -0.1585(3) 0.2440(3) 1.4103(2)
H3A H -0.1305 0.3087 1.3891
C2A C -0.2482(4) 0.1061(4) 1.4119(3)
H4A H -0.2953 0.0593 1.3908
C3A C -0.1889(4) 0.0909(3) 1.5060(3)
H5A H -0.1860 0.0318 1.5604
C4A C -0.0600(3) 0.2030(3) 1.5925(3)
H6A H -0.0016 0.1181 1.6232
H7A H -0.0053 0.2447 1.5638
C5A C -0.1490(3) 0.2900(3) 1.6816(2)
C6A C -0.2303(3) 0.4262(3) 1.6286(2)
H8A H -0.2873 0.4156 1.5763
H9A H -0.1696 0.4548 1.5915
C7A C -0.2732(3) 0.6014(4) 1.7678(3)
H10A H -0.1867 0.5888 1.7809
C8A C -0.0572(3) 0.3050(3) 1.7648(3)
H11A H -0.1070 0.3330 1.8299
H12A H -0.033(4) 0.355(3) 1.741(3)
C9A C 0.1895(4) 0.1864(4) 1.7799(3)
H13A H 0.2090 0.2564 1.7571
C10A C -0.2365(3) 0.2210(3) 1.7251(2)
H14A H -0.1807 0.1273 1.7329
H15A H -0.3022 0.2316 1.6723
C11A C -0.2549(4) 0.2278(4) 1.9233(3)
H16A H -0.1661 0.1750 1.9364
C12A C -0.4628(4) 0.3438(4) 1.9446(3)
H17A H -0.5451 0.3878 1.9762
C13A C -0.4392(4) 0.3384(4) 1.8395(3)
H18A H -0.5014 0.3766 1.7865
C14A C 0.0838(3) 0.0648(3) 1.8225(3)
H19A H 0.0157 0.0383 1.8337
C15A C 0.2770(4) 0.0646(4) 1.8108(3)
H20A H 0.3682 0.0367 1.8137
C16A C -0.3849(4) 0.6920(4) 1.8124(3)
H21A H -0.3878 0.7520 1.8626
C17A C -0.4464(3) 0.5850(3) 1.7030(3)
H22A H -0.4986 0.5576 1.6627
Cd1_2 Cd -0.70732(2) 0.76106(2) 1.82459(2)
Cd1_3 Cd 0.29268(2) -0.23894(2) 1.82459(2)
Cd1_4 Cd 0.29268(2) 0.76106(2) -0.17541(2)
Cd1A_2 Cd -0.29268(2) 0.23894(2) 2.17541(2)
Cd1A_3 Cd -0.29268(2) 1.23894(2) 0.17541(2)
Cd1A_4 Cd 0.70732(2) 0.23894(2) 0.17541(2)
N6_2 N -0.5066(3) 0.3192(3) 1.2289(2)
N6A_2 N 0.5066(3) 0.6808(3) 0.7711(2)
N7_2 N -0.2105(3) 0.0123(3) 1.1623(2)
N7A_2 N 0.2105(3) 0.9877(3) 0.8377(2)
N8_2 N 0.3460(3) 0.7259(3) 1.0023(2)
N8A_2 N -0.3460(3) 0.2741(3) 0.9977(2)
O4 O 0.2275(3) 0.3289(3) 0.5321(3)
O5 O 0.1671(3) 0.2275(3) 0.4111(2)
C22 C 0.2489(4) 0.2327(4) 0.4753(3)
C23 C 0.3811(3) 0.1128(3) 0.4864(3)
C24 C 0.4263(4) 0.0180(4) 0.4095(3)
H25 H 0.3775 0.0295 0.3484
C25 C 0.4566(4) 0.0931(4) 0.5766(3)
H26 H 0.4278 0.1559 0.6286
O4A O 0.7725(3) -0.3289(3) 0.4679(3)
O5A O 0.8329(3) -0.2275(3) 0.5889(2)
C22A C 0.7511(4) -0.2327(4) 0.5247(3)
C23A C 0.6189(3) -0.1128(3) 0.5136(3)
C24A C 0.5737(4) -0.0180(4) 0.5905(3)
H25A H 0.6225 -0.0295 0.6516
C25A C 0.5434(4) -0.0931(4) 0.4234(3)
H26A H 0.5722 -0.1559 0.3714
O6 O 0.1498(3) 0.0956(3) 0.2320(3)
H27 H 0.1605 0.1454 0.2766
H28 H 0.0822 0.1401 0.1946
O7 O 0.3903(6) 0.0173(6) 0.1061(5)
H29 H 0.3451 0.0889 0.0725
H30 H 0.4275 -0.0542 0.0733
loop_
_geom_bond_atom_site_label_1
_geom_bond_atom_site_label_2
_geom_bond_site_symmetry_1
_geom_bond_site_symmetry_2
O1 H1 1_555 1_555
H2 O1 1_555 1_555
Cd1 O2 1_555 1_555
O2 C18 1_555 1_555
O3 Cd1 1_555 1_555
N1 Cd1 1_555 1_555
N2 C1 1_555 1_555
N3 C10 1_555 1_555
N4 C8 1_555 1_555
N5 C6 1_555 1_555
N6 C16 1_555 1_555
N7 C14 1_555 1_555
N8 C11 1_555 1_555
C1 N1 1_555 1_555
H3 C1 1_555 1_555
C2 N1 1_555 1_555
H4 C2 1_555 1_555
C3 N2 1_555 1_555
H5 C3 1_555 1_555
C4 N2 1_555 1_555
H6 C4 1_555 1_555
H7 C4 1_555 1_555
C5 C4 1_555 1_555
C6 C5 1_555 1_555
H8 C6 1_555 1_555
H9 C6 1_555 1_555
C7 N5 1_555 1_555
H10 C7 1_555 1_555
C8 C5 1_555 1_555
H11 C8 1_555 1_555
H12 C8 1_555 1_555
C9 N4 1_555 1_555
H13 C9 1_555 1_555
C10 C5 1_555 1_555
H14 C10 1_555 1_555
H15 C10 1_555 1_555
C11 N3 1_555 1_555
H16 C11 1_555 1_555
C12 N8 1_555 1_555
H17 C12 1_555 1_555
C13 N3 1_555 1_555
H18 C13 1_555 1_555
C14 N4 1_555 1_555
H19 C14 1_555 1_555
C15 N7 1_555 1_555
H20 C15 1_555 1_555
C16 C7 1_555 1_555
H21 C16 1_555 1_555
C17 N5 1_555 1_555
H22 C17 1_555 1_555
C18 O3 1_555 1_555
C19 C18 1_555 1_555
C20 C19 1_555 1_555
H23 C20 1_555 1_555
C21 C19 1_555 1_555
H24 C21 1_555 1_555
O4 C22 1_555 1_555
O5 C22 1_555 1_555
C22 C23 1_555 1_555
C23 C24 1_555 1_555
C24 H25 1_555 1_555
C25 C23 1_555 1_555
H26 C25 1_555 1_555
O6 H27 1_555 1_555
H28 O6 1_555 1_555
O7 H29 1_555 1_555
H30 O7 1_555 1_555
O2A C18A 1_555 1_555
O3A C18A 1_555 1_555
C18A C19A 1_555 1_555
C19A C20A 1_555 1_555
C20A C21 1_555 1_555
H23A C20A 1_555 1_555
C21A C20 1_555 1_555
H24A C21A 1_555 1_555
Cd1A O2A 1_555 1_555
N1A Cd1A 1_555 1_555
N2A C1A 1_555 1_555
N3A C10A 1_555 1_555
N4A C8A 1_555 1_555
N5A C6A 1_555 1_555
N6A C16A 1_555 1_555
N7A C14A 1_555 1_555
N8A C11A 1_555 1_555
C1A N1A 1_555 1_555
H3A C1A 1_555 1_555
C2A N1A 1_555 1_555
H4A C2A 1_555 1_555
C3A N2A 1_555 1_555
H5A C3A 1_555 1_555
C4A N2A 1_555 1_555
H6A C4A 1_555 1_555
H7A C4A 1_555 1_555
C5A C4A 1_555 1_555
C6A C5A 1_555 1_555
H8A C6A 1_555 1_555
H9A C6A 1_555 1_555
C7A N5A 1_555 1_555
H10A C7A 1_555 1_555
C8A C5A 1_555 1_555
H11A C8A 1_555 1_555
H12A C8A 1_555 1_555
C9A N4A 1_555 1_555
H13A C9A 1_555 1_555
C10A C5A 1_555 1_555
H14A C10A 1_555 1_555
H15A C10A 1_555 1_555
C11A N3A 1_555 1_555
H16A C11A 1_555 1_555
C12A N8A 1_555 1_555
H17A C12A 1_555 1_555
C13A N3A 1_555 1_555
H18A C13A 1_555 1_555
C14A N4A 1_555 1_555
H19A C14A 1_555 1_555
C15A N7A 1_555 1_555
H20A C15A 1_555 1_555
C16A C7A 1_555 1_555
H21A C16A 1_555 1_555
C17A N5A 1_555 1_555
H22A C17A 1_555 1_555
Cd1_2 N6A 1_555 1_555
Cd1_3 N7A 1_555 1_555
Cd1_4 N8 1_555 1_555
Cd1A_2 N8A 1_555 1_555
Cd1A_3 N7 1_555 1_555
Cd1A_4 N6 1_555 1_555
N6_2 Cd1A 1_555 1_555
N6A_2 Cd1 1_555 1_555
N7_2 Cd1A 1_555 1_555
N7A_2 Cd1 1_555 1_555
N8_2 Cd1 1_555 1_555
N8A_2 Cd1A 1_555 1_555
O4A C22A 1_555 1_555
O5A C22A 1_555 1_555
C22A C23A 1_555 1_555
C23A C24A 1_555 1_555
C24A C25 1_555 1_555
H25A C24A 1_555 1_555
C25A C24 1_555 1_555
H26A C25A 1_555 1_555
N6 C17 1_555 1_555
C2 C3 1_555 1_555
C9 C15 1_555 1_555
C12 C13 1_555 1_555
O3A Cd1A 1_555 1_555
C19A C21A 1_555 1_555
N6A C17A 1_555 1_555
C2A C3A 1_555 1_555
C9A C15A 1_555 1_555
C12A C13A 1_555 1_555
C23A C25A 1_555 1_555

#END
