
#######################################################################
#
#                 Cambridge Crystallographic Data Centre
#                                CCDC 
#
#######################################################################
#
# If this CIF has been generated from an entry in the Cambridge 
# Structural Database, then it will include bibliographic, chemical, 
# crystal, experimental, refinement or atomic coordinate data resulting 
# from the CCDC's data processing and validation procedures.
#
#######################################################################

data_IQOZUJ
_chemical_formula_moiety         '(C17 H15 Co2 N9)n'
_symmetry_cell_setting           orthorhombic
_symmetry_space_group_name_H-M   'F d d 2'
_symmetry_Int_Tables_number      43
_space_group_name_Hall           'F 2 -2d'
loop_
_symmetry_equiv_pos_site_id
_symmetry_equiv_pos_as_xyz
1 x,y,z
2 -x,-y,z
3 1/4+x,1/4-y,1/4+z
4 1/4-x,1/4+y,1/4+z
5 x,1/2+y,1/2+z
6 -x,1/2-y,1/2+z
7 1/4+x,3/4-y,3/4+z
8 1/4-x,3/4+y,3/4+z
9 1/2+x,y,1/2+z
10 1/2-x,-y,1/2+z
11 3/4+x,1/4-y,3/4+z
12 3/4-x,1/4+y,3/4+z
13 1/2+x,1/2+y,z
14 1/2-x,1/2-y,z
15 3/4+x,3/4-y,1/4+z
16 3/4-x,3/4+y,1/4+z
_cell_length_a                   18.520(4)
_cell_length_b                   24.337(5)
_cell_length_c                   9.263(2)
_cell_angle_alpha                90
_cell_angle_beta                 90
_cell_angle_gamma                90
_cell_volume                     4175.03
loop_
_atom_site_label
_atom_site_type_symbol
_atom_site_fract_x
_atom_site_fract_y
_atom_site_fract_z
Co1 Co 0.04397(6) 0.31502(5) 0.3744(3)
N1 N 0.0346(5) 0.2465(4) 0.4945(12)
N2 N 0.0281(7) 0.1617(5) 0.583(2)
C1 C 0.0465(7) 0.1923(5) 0.4656(18)
H1 H 0.0629 0.1773 0.3755
C2 C 0.0111(6) 0.2474(5) 0.6242(17)
H2 H -0.0002 0.2805 0.6756
C3 C 0.0029(5) 0.1990(4) 0.6831(11)
N3 N -0.0097(4) 0.3702(4) 0.4878(11)
N4 N -0.1043(4) 0.4132(3) 0.5891(9)
C4 C -0.0806(5) 0.3810(4) 0.4828(13)
H4 H -0.1119 0.3657 0.4107
C5 C -0.0444(5) 0.4238(5) 0.6673(16)
H5 H -0.0427 0.4463 0.7524
C6 C 0.0128(5) 0.3989(4) 0.6046(14)
H6 H 0.0617 0.4006 0.6387
N1E N -0.0346(5) 0.2535(4) -0.0055(12)
N2E N -0.0281(7) 0.3383(5) 0.083(2)
C1E C -0.0465(7) 0.3077(5) -0.0344(18)
H1E H -0.0629 0.3227 -0.1245
C2E C -0.0111(6) 0.2526(5) 0.1242(17)
H2E H 0.0002 0.2195 0.1756
C3E C -0.0029(5) 0.3010(4) 0.1831(11)
N3F N 0.2403(4) 0.3798(4) 0.2378(11)
N4F N 0.1457(4) 0.3368(3) 0.3391(9)
C4F C 0.1694(5) 0.3690(4) 0.2328(13)
H4F H 0.1381 0.3843 0.1607
C5F C 0.2056(5) 0.3262(5) 0.4173(16)
H5F H 0.2073 0.3037 0.5024
C6F C 0.2628(5) 0.3511(4) 0.3546(14)
H6F H 0.3117 0.3494 0.3887
Co1E Co -0.04397(6) 0.18498(5) -0.1256(3)
Co1E_2 Co -0.04397(6) 0.18498(5) 0.8744(3)
Co1N Co -0.20603(6) 0.43498(5) 0.6244(3)
Co1F Co 0.29397(6) 0.43498(5) 0.1244(3)
C3_2 C 0.0029(5) 0.1990(4) -0.3169(11)
N3E N 0.0097(4) 0.1298(4) -0.0122(11)
N4O N -0.1457(4) 0.1632(3) -0.1609(9)
C7 C -0.0000 0.5000 1.294(5)
H7 H 0.0000 0.5000 1.3975
C8 C -0.0642(12) 0.4992(10) 1.2196(19)
H8 H -0.1094 0.4982 1.2704
C9 C -0.0584(11) 0.5016(8) 1.0715(18)
H9 H -0.1034 0.5006 1.0199
N5 N -0.0000 0.5000 0.990(3)
C9A C 0.0584(11) 0.4984(8) 1.0715(18)
C8A C 0.0642(12) 0.5008(10) 1.2196(19)
H8A H 0.1094 0.5018 1.2704
H9A H 0.1034 0.4994 1.0199
loop_
_geom_bond_atom_site_label_1
_geom_bond_atom_site_label_2
_geom_bond_site_symmetry_1
_geom_bond_site_symmetry_2
Co1 N1 1_555 1_555
N1 C1 1_555 1_555
N2 C1 1_555 1_555
C1 H1 1_555 1_555
C2 N1 1_555 1_555
H2 C2 1_555 1_555
C3 N2 1_555 1_555
N3 Co1 1_555 1_555
N4 C4 1_555 1_555
C4 N3 1_555 1_555
H4 C4 1_555 1_555
C5 N4 1_555 1_555
H5 C5 1_555 1_555
C6 N3 1_555 1_555
H6 C6 1_555 1_555
C7 H7 1_555 1_555
C8 C7 1_555 1_555
H8 C8 1_555 1_555
C9 C8 1_555 1_555
H9 C9 1_555 1_555
N5 C9 1_555 1_555
C9A N5 1_555 1_555
C8A C7 1_555 1_555
H8A C8A 1_555 1_555
H9A C9A 1_555 1_555
N1E C1E 1_555 1_555
N2E C1E 1_555 1_555
C1E H1E 1_555 1_555
C2E N1E 1_555 1_555
H2E C2E 1_555 1_555
C3E Co1 1_555 1_555
N3F C4F 1_555 1_555
N4F Co1 1_555 1_555
C4F N4F 1_555 1_555
H4F C4F 1_555 1_555
C5F N4F 1_555 1_555
H5F C5F 1_555 1_555
C6F N3F 1_555 1_555
H6F C6F 1_555 1_555
Co1E N1E 1_555 1_555
Co1E_2 C3 1_555 1_555
Co1N N4 1_555 1_555
Co1F N3F 1_555 1_555
C3_2 Co1E 1_555 1_555
N3E Co1E 1_555 1_555
N4O Co1E 1_555 1_555
C2 C3 1_555 1_555
C5 C6 1_555 1_555
C9A C8A 1_555 1_555
N2E C3E 1_555 1_555
C2E C3E 1_555 1_555
C5F C6F 1_555 1_555

#END
