
#######################################################################
#
#                 Cambridge Crystallographic Data Centre
#                                CCDC 
#
#######################################################################
#
# If this CIF has been generated from an entry in the Cambridge 
# Structural Database, then it will include bibliographic, chemical, 
# crystal, experimental, refinement or atomic coordinate data resulting 
# from the CCDC's data processing and validation procedures.
#
#######################################################################

data_JOFLUN
_chemical_formula_moiety         '(C35 H36 Cu2 N4 O12)n'
_symmetry_cell_setting           monoclinic
_symmetry_space_group_name_H-M   'P 2/c'
_symmetry_Int_Tables_number      13
_space_group_name_Hall           '-P 2yc'
loop_
_symmetry_equiv_pos_site_id
_symmetry_equiv_pos_as_xyz
1 x,y,z
2 -x,y,1/2-z
3 -x,-y,-z
4 x,-y,1/2+z
_cell_length_a                   11.556(4)
_cell_length_b                   8.713(3)
_cell_length_c                   23.602(9)
_cell_angle_alpha                90
_cell_angle_beta                 90.08(1)
_cell_angle_gamma                90
_cell_volume                     2376.42
loop_
_atom_site_label
_atom_site_type_symbol
_atom_site_fract_x
_atom_site_fract_y
_atom_site_fract_z
C1 C 0.3082(2) 1.1512(2) 0.05198(9)
C2 C 0.1837(2) 1.1696(3) 0.06356(10)
H1 H 0.1644 1.0853 0.0887
H2 H 0.1460 1.1467 0.0278
C3 C 0.1726(3) 1.2923(4) 0.11186(17)
H3 H 0.2118 1.2582 0.1459
H4 H 0.2055 1.3897 0.1001
C4 C 0.0447(3) 1.3072(4) 0.12194(18)
H5 H 0.0056 1.3334 0.0869
H6 H 0.0135 1.2109 0.1358
C5 C 0.0269(4) 1.4308(5) 0.16484(19)
O1 O 0.0800(3) 1.4625(3) 0.20349(13)
O2 O -0.0679(3) 1.5325(4) 0.14863(19)
C6 C 0.43850(16) 0.7302(2) 0.06655(8)
H7 H 0.3752 0.7296 0.0422
C7 C 0.44530(16) 0.6176(2) 0.10702(7)
H8 H 0.3880 0.5430 0.1097
C8 C 0.53742(15) 0.61626(18) 0.14346(7)
C9 C 0.62231(19) 0.7268(2) 0.13669(9)
H9 H 0.6871 0.7275 0.1601
C10 C 0.60956(19) 0.8351(2) 0.09505(9)
H10 H 0.6672 0.9086 0.0907
C11 C 0.46156(15) 0.41497(19) 0.19989(7)
H11 H 0.4427 0.3503 0.1677
H12 H 0.3934 0.4741 0.2099
C12 C 0.5000 0.3167(3) 0.2500
C13 C 0.39772(16) 0.2175(2) 0.26808(7)
H13 H 0.4161 0.1628 0.3027
H14 H 0.3303 0.2812 0.2749
C14 C 0.29117(16) 0.00699(18) 0.23070(7)
C15 C 0.27656(18) -0.1049(2) 0.18884(8)
H15 H 0.3233 -0.1040 0.1568
C16 C 0.19394(18) -0.2154(2) 0.19500(9)
H16 H 0.1877 -0.2906 0.1672
C17 C 0.13408(17) -0.1107(2) 0.27850(8)
H17 H 0.0839 -0.1126 0.3093
C18 C 0.21526(17) 0.00387(19) 0.27685(7)
H18 H 0.2197 0.0771 0.3054
Cu1 Cu 0.5000 1.0000 0.0000
Cu2 Cu -0.0000 -0.38148(3) 0.2500
N1 N 0.51709(13) 0.83997(17) 0.06012(6)
N2 N 0.12164(13) -0.22045(16) 0.23899(6)
O3 O 0.33949(11) 1.03473(14) 0.02498(6)
O4 O 0.37523(19) 1.2550(2) 0.06599(10)
O5 O 0.37468(12) 0.11053(13) 0.22310(5)
O6 O 0.55494(11) 0.51511(13) 0.18598(5)
C6A C 0.56150(16) 0.7302(2) 0.43345(8)
H7A H 0.6248 0.7296 0.4578
C7A C 0.55470(16) 0.6176(2) 0.39298(7)
H8A H 0.6120 0.5430 0.3903
C8A C 0.46258(15) 0.61626(18) 0.35654(7)
C9A C 0.37769(19) 0.7268(2) 0.36331(9)
H9A H 0.3129 0.7275 0.3399
C10A C 0.39044(19) 0.8351(2) 0.40495(9)
H10A H 0.3328 0.9086 0.4093
C11A C 0.53844(15) 0.41497(19) 0.30011(7)
H11A H 0.5573 0.3503 0.3323
H12A H 0.6066 0.4741 0.2901
C13A C 0.60228(16) 0.2175(2) 0.23192(7)
H13A H 0.5839 0.1628 0.1973
H14A H 0.6697 0.2812 0.2251
C14A C 0.70883(16) 0.00699(18) 0.26930(7)
C15A C 0.72344(18) -0.1049(2) 0.31116(8)
H15A H 0.6767 -0.1040 0.3432
C16A C 0.80606(18) -0.2154(2) 0.30500(9)
H16A H 0.8123 -0.2906 0.3328
C17A C 0.86592(17) -0.1107(2) 0.22150(8)
H17A H 0.9161 -0.1126 0.1907
C18A C 0.78474(17) 0.00387(19) 0.22315(7)
H18A H 0.7803 0.0771 0.1946
N1A N 0.48291(13) 0.83997(17) 0.43988(6)
N2A N 0.87836(13) -0.22045(16) 0.26101(6)
O5A O 0.62532(12) 0.11053(13) 0.27690(5)
O6A O 0.44506(11) 0.51511(13) 0.31402(5)
C1B C 0.6918(2) 0.8488(2) -0.05198(9)
C2B C 0.8163(2) 0.8304(3) -0.06356(10)
H1B H 0.8356 0.9147 -0.0887
H2B H 0.8540 0.8533 -0.0278
C3B C 0.8274(3) 0.7077(4) -0.11186(17)
H3B H 0.7882 0.7418 -0.1459
H4B H 0.7945 0.6103 -0.1001
C4B C 0.9553(3) 0.6928(4) -0.12194(18)
H5B H 0.9944 0.6666 -0.0869
H6B H 0.9865 0.7891 -0.1358
C5B C 0.9731(4) 0.5692(5) -0.16484(19)
O1B O 0.9200(3) 0.5375(3) -0.20349(13)
O2B O 1.0679(3) 0.4675(4) -0.14863(19)
O3B O 0.66051(11) 0.96527(14) -0.02498(6)
O4B O 0.62477(19) 0.7450(2) -0.06599(10)
O1_2 O 0.0800(3) -0.5375(3) 0.20349(13)
O1A O -0.0800(3) -0.5375(3) 0.29651(13)
O2_2 O -0.0679(3) -0.4675(4) 0.14863(19)
O2A O 0.0679(3) -0.4675(4) 0.35137(19)
Cu1A Cu 0.5000 1.0000 0.5000
Cu2_2 Cu 0.0000 1.61852(3) 0.2500
Cu2_3 Cu 1.0000 -0.38148(3) 0.2500
Cu2B Cu 1.0000 0.38148(3) -0.2500
N1B N 0.48291(13) 1.16003(17) -0.06012(6)
N2A_2 N -0.12164(13) -0.22045(16) 0.26101(6)
loop_
_geom_bond_atom_site_label_1
_geom_bond_atom_site_label_2
_geom_bond_site_symmetry_1
_geom_bond_site_symmetry_2
C1 C2 1_555 1_555
C2 H1 1_555 1_555
H2 C2 1_555 1_555
C3 C2 1_555 1_555
H3 C3 1_555 1_555
H4 C3 1_555 1_555
C4 C3 1_555 1_555
H5 C4 1_555 1_555
H6 C4 1_555 1_555
C5 C4 1_555 1_555
O1 C5 1_555 1_555
O2 C5 1_555 1_555
C6 H7 1_555 1_555
C7 C6 1_555 1_555
H8 C7 1_555 1_555
C8 C7 1_555 1_555
C9 C8 1_555 1_555
H9 C9 1_555 1_555
C10 C9 1_555 1_555
H10 C10 1_555 1_555
C11 H11 1_555 1_555
H12 C11 1_555 1_555
C12 C11 1_555 1_555
C13 C12 1_555 1_555
H13 C13 1_555 1_555
H14 C13 1_555 1_555
C14 C15 1_555 1_555
C15 H15 1_555 1_555
C16 C15 1_555 1_555
H16 C16 1_555 1_555
C17 H17 1_555 1_555
C18 C14 1_555 1_555
H18 C18 1_555 1_555
Cu1 N1 1_555 1_555
Cu2 N2 1_555 1_555
N1 C6 1_555 1_555
N2 C16 1_555 1_555
O3 C1 1_555 1_555
O4 C1 1_555 1_555
O5 C13 1_555 1_555
O6 C8 1_555 1_555
C6A H7A 1_555 1_555
C7A C6A 1_555 1_555
H8A C7A 1_555 1_555
C8A C7A 1_555 1_555
C9A C8A 1_555 1_555
H9A C9A 1_555 1_555
C10A C9A 1_555 1_555
H10A C10A 1_555 1_555
C11A C12 1_555 1_555
H11A C11A 1_555 1_555
H12A C11A 1_555 1_555
C13A C12 1_555 1_555
H13A C13A 1_555 1_555
H14A C13A 1_555 1_555
C14A C15A 1_555 1_555
C15A H15A 1_555 1_555
C16A C15A 1_555 1_555
H16A C16A 1_555 1_555
C17A H17A 1_555 1_555
C18A C14A 1_555 1_555
H18A C18A 1_555 1_555
N1A C6A 1_555 1_555
N2A C16A 1_555 1_555
O5A C13A 1_555 1_555
O6A C8A 1_555 1_555
C1B C2B 1_555 1_555
C2B H1B 1_555 1_555
H2B C2B 1_555 1_555
C3B C2B 1_555 1_555
H3B C3B 1_555 1_555
H4B C3B 1_555 1_555
C4B C3B 1_555 1_555
H5B C4B 1_555 1_555
H6B C4B 1_555 1_555
C5B C4B 1_555 1_555
O1B C5B 1_555 1_555
O2B C5B 1_555 1_555
O3B Cu1 1_555 1_555
O4B C1B 1_555 1_555
O1_2 Cu2 1_555 1_555
O1A Cu2 1_555 1_555
O2_2 Cu2 1_555 1_555
O2A Cu2 1_555 1_555
Cu1A N1A 1_555 1_555
Cu2_2 O1 1_555 1_555
Cu2_3 N2A 1_555 1_555
Cu2B O1B 1_555 1_555
N1B Cu1 1_555 1_555
N2A_2 Cu2 1_555 1_555
O2 Cu2_2 1_555 1_555
C10 N1 1_555 1_555
C11 O6 1_555 1_555
C14 O5 1_555 1_555
C17 C18 1_555 1_555
C17 N2 1_555 1_555
Cu1 O3 1_555 1_555
C10A N1A 1_555 1_555
C11A O6A 1_555 1_555
C14A O5A 1_555 1_555
C17A C18A 1_555 1_555
C17A N2A 1_555 1_555
C1B O3B 1_555 1_555
O2B Cu2B 1_555 1_555

#END
