
#######################################################################
#
#                 Cambridge Crystallographic Data Centre
#                                CCDC 
#
#######################################################################
#
# If this CIF has been generated from an entry in the Cambridge 
# Structural Database, then it will include bibliographic, chemical, 
# crystal, experimental, refinement or atomic coordinate data resulting 
# from the CCDC's data processing and validation procedures.
#
#######################################################################

data_JOKXUC
_chemical_formula_moiety         '(C18 H20 Cd2 N12 Ni2 O2)n'
_symmetry_cell_setting           monoclinic
_symmetry_space_group_name_H-M   'A 1 1 2/a'
_symmetry_Int_Tables_number      15
_space_group_name_Hall           '-A 2a'
loop_
_symmetry_equiv_pos_site_id
_symmetry_equiv_pos_as_xyz
1 x,y,z
2 x,1/2+y,1/2+z
3 1/2-x,-y,z
4 1/2-x,1/2-y,1/2+z
5 -x,-y,-z
6 -x,1/2-y,1/2-z
7 1/2+x,y,-z
8 1/2+x,1/2+y,1/2-z
_cell_length_a                   13.961(3)
_cell_length_b                   26.998(3)
_cell_length_c                   7.589(3)
_cell_angle_alpha                90
_cell_angle_beta                 90
_cell_angle_gamma                90.84(1)
_cell_volume                     2860.13
loop_
_atom_site_label
_atom_site_type_symbol
_atom_site_fract_x
_atom_site_fract_y
_atom_site_fract_z
Cd1 Cd 0.21375(4) 0.13454(2) 0.12333(7)
Ni1 Ni 0.25000 0.00000 -0.3679(2)
Ni2 Ni 0.50000 0.25000 0.2500
N1 N 0.2366(5) 0.0789(2) -0.0904(9)
N2 N 0.2380(6) 0.0779(2) -0.6492(9)
N3 N 0.3670(4) 0.1688(2) 0.130(1)
N4 N 0.1676(5) 0.1986(3) -0.087(1)
N5 N 0.1756(5) 0.1921(3) 0.351
N6 N 0.0471(5) 0.1246(2) 0.1663(9)
C3 C 0.2424(5) 0.0487(2) -0.195(1)
C4 C 0.2575(6) 0.0485(3) -0.542(1)
C5 C 0.4187(5) 0.1990(3) 0.174(1)
C6 C 0.1045(5) 0.2181(3) -0.151(1)
C7 C 0.0715(8) 0.1921(5) 0.372(2)
C8 C 0.0177(8) 0.1529(6) 0.315(2)
C9 C -0.0904(7) 0.1551(5) 0.348(2)
N1B N 0.2634(5) -0.0789(2) -0.0904(9)
C3B C 0.2576(5) -0.0487(2) -0.195(1)
N2B N 0.2620(6) -0.0779(2) -0.6492(9)
C4B C 0.2425(6) -0.0485(3) -0.542(1)
Cd1B Cd 0.28625(4) -0.13454(2) 0.12333(7)
N3B N 0.1330(4) -0.1688(2) 0.130(1)
C5B C 0.0813(5) -0.1990(3) 0.174(1)
N4B N 0.3324(5) -0.1986(3) -0.087(1)
C6B C 0.3955(5) -0.2181(3) -0.151(1)
N5B N 0.3244(5) -0.1921(3) 0.351
N6B N 0.4529(5) -0.1246(2) 0.1663(9)
C7B C 0.4285(8) -0.1921(5) 0.372(2)
C8B C 0.4823(8) -0.1529(6) 0.315(2)
C9B C 0.5904(7) -0.1551(5) 0.348(2)
N2_2 N 0.2380(6) 0.0779(2) 0.3508(9)
C5E C 0.5813(5) 0.3010(3) 0.326(1)
C6C C 0.3955(5) 0.2819(3) 0.349(1)
C6F C 0.6045(5) 0.2181(3) 0.151(1)
Cd1_2 Cd 0.21375(4) 0.13454(2) -0.87667(7)
Ni2C Ni -0.00000 0.25000 -0.2500
Cd1B_2 Cd 0.28625(4) -0.13454(2) -0.87667(7)
N2B_2 N 0.2620(6) -0.0779(2) 0.3508(9)
Ni2B Ni 0.00000 -0.25000 0.2500
Ni2A Ni 0.50000 -0.25000 -0.2500
O1 O 0.498(1) -0.0160(6) 0.066(3)
C1 C 0.474(2) 0.0202(8) 0.139(3)
C2 C 0.484(1) 0.035(1) 0.284(5)
O1D O 0.502(1) 0.0160(6) -0.066(3)
C1D C 0.526(2) -0.0202(8) -0.139(3)
C2D C 0.516(1) -0.035(1) -0.284(5)
loop_
_geom_bond_atom_site_label_1
_geom_bond_atom_site_label_2
_geom_bond_site_symmetry_1
_geom_bond_site_symmetry_2
O1 C1 1_555 1_555
C1 C2 1_555 1_555
Cd1 N1 1_555 1_555
Ni1 C3 1_555 1_555
Ni2 C5 1_555 1_555
N1 C3 1_555 1_555
N2 C4 1_555 1_555
N3 Cd1 1_555 1_555
N4 Cd1 1_555 1_555
N5 Cd1 1_555 1_555
N6 Cd1 1_555 1_555
C4 Ni1 1_555 1_555
C5 N3 1_555 1_555
C6 N4 1_555 1_555
C7 N5 1_555 1_555
C8 N6 1_555 1_555
C9 C8 1_555 1_555
O1D O1 1_555 1_555
C1D O1 1_555 1_555
C2D C1D 1_555 1_555
N1B C3B 1_555 1_555
C3B Ni1 1_555 1_555
N2B C4B 1_555 1_555
C4B Ni1 1_555 1_555
Cd1B N1B 1_555 1_555
N3B Cd1B 1_555 1_555
C5B N3B 1_555 1_555
N4B Cd1B 1_555 1_555
C6B N4B 1_555 1_555
N5B Cd1B 1_555 1_555
N6B Cd1B 1_555 1_555
C7B N5B 1_555 1_555
C8B N6B 1_555 1_555
C9B C8B 1_555 1_555
N2_2 Cd1 1_555 1_555
C5E Ni2 1_555 1_555
C6C Ni2 1_555 1_555
C6F Ni2 1_555 1_555
Cd1_2 N2 1_555 1_555
Ni2C C6 1_555 1_555
Cd1B_2 N2B 1_555 1_555
N2B_2 Cd1B 1_555 1_555
Ni2B C5B 1_555 1_555
Ni2A C6B 1_555 1_555
C1 O1D 1_555 1_555
C7 C8 1_555 1_555
O1D C1D 1_555 1_555
C7B C8B 1_555 1_555

#END
