
#######################################################################
#
#                 Cambridge Crystallographic Data Centre
#                                CCDC 
#
#######################################################################
#
# If this CIF has been generated from an entry in the Cambridge 
# Structural Database, then it will include bibliographic, chemical, 
# crystal, experimental, refinement or atomic coordinate data resulting 
# from the CCDC's data processing and validation procedures.
#
#######################################################################

data_JOKYAJ
_chemical_formula_moiety         '(C14 H20 Cd2 N12 Ni2)n'
_symmetry_cell_setting           orthorhombic
_symmetry_space_group_name_H-M   'P n m a'
_symmetry_Int_Tables_number      62
_space_group_name_Hall           '-P 2ac 2n'
loop_
_symmetry_equiv_pos_site_id
_symmetry_equiv_pos_as_xyz
1 x,y,z
2 1/2-x,-y,1/2+z
3 1/2+x,1/2-y,1/2-z
4 -x,1/2+y,-z
5 -x,-y,-z
6 1/2+x,y,1/2-z
7 1/2-x,1/2+y,1/2+z
8 x,1/2-y,z
_cell_length_a                   14.061(1)
_cell_length_b                   27.192(3)
_cell_length_c                   7.590(1)
_cell_angle_alpha                90
_cell_angle_beta                 90
_cell_angle_gamma                90
_cell_volume                     2902.01
loop_
_atom_site_label
_atom_site_type_symbol
_atom_site_fract_x
_atom_site_fract_y
_atom_site_fract_z
Cd1 Cd 0.21473(8) 0.11592(4) 0.1215(2)
Ni1 Ni 0.2501(1) 0.25000 -0.3896(4)
Ni2 Ni 0.0000 0.00000 0.5000
N1 N 0.240(1) 0.1720(6) -0.107(2)
N2 N 0.247(1) 0.1724(6) -0.671(2)
N3 N 0.160(1) 0.0567(6) 0.339(2)
N4 N 0.361(1) 0.0769(6) 0.116(2)
N5 N 0.172(1) 0.0569(5) -0.100(2)
N6 N 0.051(1) 0.1271(5) 0.075(2)
C1 C 0.243(1) 0.2019(6) -0.214(2)
C2 C 0.251(1) 0.2014(6) -0.564(2)
C3 C 0.101(1) 0.0355(6) 0.403(2)
C4 C 0.415(1) 0.0485(5) 0.072(2)
C5 C 0.073(2) 0.057(2) -0.120(5)
C6 C 0.016(2) 0.091(1) -0.059(4)
C7 C -0.090(2) 0.0922(9) -0.091(3)
N1G N 0.240(1) 0.3280(6) -0.107(2)
C1G C 0.243(1) 0.2981(6) -0.214(2)
N2G N 0.247(1) 0.3276(6) -0.671(2)
C2G C 0.251(1) 0.2986(6) -0.564(2)
Cd1G Cd 0.21473(8) 0.38408(4) 0.1215(2)
N3G N 0.160(1) 0.4433(6) 0.339(2)
C3G C 0.101(1) 0.4645(6) 0.403(2)
N4G N 0.361(1) 0.4231(6) 0.116(2)
C4G C 0.415(1) 0.4515(5) 0.072(2)
N5G N 0.172(1) 0.4431(5) -0.100(2)
N6G N 0.051(1) 0.3729(5) 0.075(2)
C5G C 0.073(2) 0.443(2) -0.120(5)
C6G C 0.016(2) 0.409(1) -0.059(4)
C7G C -0.090(2) 0.4078(9) -0.091(3)
N2_2 N 0.247(1) 0.1724(6) 0.329(2)
C3D C -0.101(1) -0.0355(6) 0.597(2)
C4A C 0.085(1) -0.0485(5) 0.572(2)
C4E C -0.085(1) 0.0485(5) 0.428(2)
Cd1_2 Cd 0.21473(8) 0.11592(4) -0.8785(2)
Ni2A Ni 0.5000 0.00000 0.0000
Cd1G_2 Cd 0.21473(8) 0.38408(4) -0.8785(2)
N2G_2 N 0.247(1) 0.3276(6) 0.329(2)
Ni2G Ni 0.0000 0.50000 0.5000
Ni2F Ni 0.5000 0.50000 0.0000
loop_
_geom_bond_atom_site_label_1
_geom_bond_atom_site_label_2
_geom_bond_site_symmetry_1
_geom_bond_site_symmetry_2
Cd1 N1 1_555 1_555
Ni1 C1 1_555 1_555
Ni2 C3 1_555 1_555
N1 C1 1_555 1_555
N2 C2 1_555 1_555
N3 Cd1 1_555 1_555
N4 Cd1 1_555 1_555
N5 Cd1 1_555 1_555
N6 Cd1 1_555 1_555
C2 Ni1 1_555 1_555
C3 N3 1_555 1_555
C4 N4 1_555 1_555
C5 N5 1_555 1_555
C6 N6 1_555 1_555
C7 C6 1_555 1_555
N1G C1G 1_555 1_555
C1G Ni1 1_555 1_555
N2G C2G 1_555 1_555
C2G Ni1 1_555 1_555
Cd1G N1G 1_555 1_555
N3G Cd1G 1_555 1_555
C3G N3G 1_555 1_555
N4G Cd1G 1_555 1_555
C4G N4G 1_555 1_555
N5G Cd1G 1_555 1_555
N6G Cd1G 1_555 1_555
C5G N5G 1_555 1_555
C6G N6G 1_555 1_555
C7G C6G 1_555 1_555
N2_2 Cd1 1_555 1_555
C3D Ni2 1_555 1_555
C4A Ni2 1_555 1_555
C4E Ni2 1_555 1_555
Cd1_2 N2 1_555 1_555
Ni2A C4 1_555 1_555
Cd1G_2 N2G 1_555 1_555
N2G_2 Cd1G 1_555 1_555
Ni2G C3G 1_555 1_555
Ni2F C4G 1_555 1_555
C5 C6 1_555 1_555
C5G C6G 1_555 1_555

#END
