
#######################################################################
#
#                 Cambridge Crystallographic Data Centre
#                                CCDC 
#
#######################################################################
#
# If this CIF has been generated from an entry in the Cambridge 
# Structural Database, then it will include bibliographic, chemical, 
# crystal, experimental, refinement or atomic coordinate data resulting 
# from the CCDC's data processing and validation procedures.
#
#######################################################################

data_JONKEE
_chemical_formula_moiety         '(C8 H8 Cu2 N16 O12 2-)n'
_symmetry_cell_setting           cubic
_symmetry_space_group_name_H-M   'F d -3 c'
_symmetry_Int_Tables_number      228
_space_group_name_Hall           '-F 4ud 2vw 3'
loop_
_symmetry_equiv_pos_site_id
_symmetry_equiv_pos_as_xyz
1 x,y,z
2 -y,1/4+x,3/4+z
3 3/4-x,1/4-y,1/2+z
4 3/4+y,-x,1/4+z
5 x,1/4-y,1/4-z
6 3/4+y,1/4+x,-z
7 3/4-x,y,3/4-z
8 -y,-x,1/2-z
9 z,x,y
10 -x,1/4+z,3/4+y
11 3/4-z,1/4-x,1/2+y
12 3/4+x,-z,1/4+y
13 z,1/4-x,1/4-y
14 3/4+x,1/4+z,-y
15 3/4-z,x,3/4-y
16 -x,-z,1/2-y
17 y,z,x
18 1/2-z,-y,-x
19 -z,3/4+y,1/4+x
20 1/4+z,3/4+y,-x
21 3/4+z,-y,1/4+x
22 y,3/4-z,3/4-x
23 1/4-y,1/4-z,x
24 1/4-y,1/2+z,3/4-x
25 x,1/2+y,1/2+z
26 -y,3/4+x,1/4+z
27 3/4-x,3/4-y,z
28 3/4+y,1/2-x,3/4+z
29 x,3/4-y,3/4-z
30 3/4+y,3/4+x,1/2-z
31 3/4-x,1/2+y,1/4-z
32 -y,1/2-x,-z
33 z,1/2+x,1/2+y
34 -x,3/4+z,1/4+y
35 3/4-z,3/4-x,y
36 3/4+x,1/2-z,3/4+y
37 z,3/4-x,3/4-y
38 3/4+x,3/4+z,1/2-y
39 3/4-z,1/2+x,1/4-y
40 -x,1/2-z,-y
41 y,1/2+z,1/2+x
42 1/2-z,1/2-y,1/2-x
43 -z,1/4+y,3/4+x
44 1/4+z,1/4+y,1/2-x
45 3/4+z,1/2-y,3/4+x
46 y,1/4-z,1/4-x
47 1/4-y,3/4-z,1/2+x
48 1/4-y,z,1/4-x
49 1/2+x,y,1/2+z
50 1/2-y,1/4+x,1/4+z
51 1/4-x,1/4-y,z
52 1/4+y,-x,3/4+z
53 1/2+x,1/4-y,3/4-z
54 1/4+y,1/4+x,1/2-z
55 1/4-x,y,1/4-z
56 1/2-y,-x,-z
57 1/2+z,x,1/2+y
58 1/2-x,1/4+z,1/4+y
59 1/4-z,1/4-x,y
60 1/4+x,-z,3/4+y
61 1/2+z,1/4-x,3/4-y
62 1/4+x,1/4+z,1/2-y
63 1/4-z,x,1/4-y
64 1/2-x,-z,-y
65 1/2+y,z,1/2+x
66 -z,-y,1/2-x
67 1/2-z,3/4+y,3/4+x
68 3/4+z,3/4+y,1/2-x
69 1/4+z,-y,3/4+x
70 1/2+y,3/4-z,1/4-x
71 3/4-y,1/4-z,1/2+x
72 3/4-y,1/2+z,1/4-x
73 1/2+x,1/2+y,z
74 1/2-y,3/4+x,3/4+z
75 1/4-x,3/4-y,1/2+z
76 1/4+y,1/2-x,1/4+z
77 1/2+x,3/4-y,1/4-z
78 1/4+y,3/4+x,-z
79 1/4-x,1/2+y,3/4-z
80 1/2-y,1/2-x,1/2-z
81 1/2+z,1/2+x,y
82 1/2-x,3/4+z,3/4+y
83 1/4-z,3/4-x,1/2+y
84 1/4+x,1/2-z,1/4+y
85 1/2+z,3/4-x,1/4-y
86 1/4+x,3/4+z,-y
87 1/4-z,1/2+x,3/4-y
88 1/2-x,1/2-z,1/2-y
89 1/2+y,1/2+z,x
90 -z,1/2-y,-x
91 1/2-z,1/4+y,1/4+x
92 3/4+z,1/4+y,-x
93 1/4+z,1/2-y,1/4+x
94 1/2+y,1/4-z,3/4-x
95 3/4-y,3/4-z,x
96 3/4-y,z,3/4-x
97 -x,-y,-z
98 y,3/4-x,1/4-z
99 1/4+x,3/4+y,1/2-z
100 1/4-y,x,3/4-z
101 -x,3/4+y,3/4+z
102 1/4-y,3/4-x,z
103 1/4+x,-y,1/4+z
104 y,x,1/2+z
105 -z,-x,-y
106 x,3/4-z,1/4-y
107 1/4+z,3/4+x,1/2-y
108 1/4-x,z,3/4-y
109 -z,3/4+x,3/4+y
110 1/4-x,3/4-z,y
111 1/4+z,-x,1/4+y
112 x,z,1/2+y
113 -y,-z,-x
114 1/2+z,y,x
115 z,1/4-y,3/4-x
116 3/4-z,1/4-y,x
117 1/4-z,y,3/4-x
118 -y,1/4+z,1/4+x
119 3/4+y,3/4+z,-x
120 3/4+y,1/2-z,1/4+x
121 -x,1/2-y,1/2-z
122 y,1/4-x,3/4-z
123 1/4+x,1/4+y,-z
124 1/4-y,1/2+x,1/4-z
125 -x,1/4+y,1/4+z
126 1/4-y,1/4-x,1/2+z
127 1/4+x,1/2-y,3/4+z
128 y,1/2+x,z
129 -z,1/2-x,1/2-y
130 x,1/4-z,3/4-y
131 1/4+z,1/4+x,-y
132 1/4-x,1/2+z,1/4-y
133 -z,1/4+x,1/4+y
134 1/4-x,1/4-z,1/2+y
135 1/4+z,1/2-x,3/4+y
136 x,1/2+z,y
137 -y,1/2-z,1/2-x
138 1/2+z,1/2+y,1/2+x
139 z,3/4-y,1/4-x
140 3/4-z,3/4-y,1/2+x
141 1/4-z,1/2+y,1/4-x
142 -y,3/4+z,3/4+x
143 3/4+y,1/4+z,1/2-x
144 3/4+y,-z,3/4+x
145 1/2-x,-y,1/2-z
146 1/2+y,3/4-x,3/4-z
147 3/4+x,3/4+y,-z
148 3/4-y,x,1/4-z
149 1/2-x,3/4+y,1/4+z
150 3/4-y,3/4-x,1/2+z
151 3/4+x,-y,3/4+z
152 1/2+y,x,z
153 1/2-z,-x,1/2-y
154 1/2+x,3/4-z,3/4-y
155 3/4+z,3/4+x,-y
156 3/4-x,z,1/4-y
157 1/2-z,3/4+x,1/4+y
158 3/4-x,3/4-z,1/2+y
159 3/4+z,-x,3/4+y
160 1/2+x,z,y
161 1/2-y,-z,1/2-x
162 z,y,1/2+x
163 1/2+z,1/4-y,1/4-x
164 1/4-z,1/4-y,1/2+x
165 3/4-z,y,1/4-x
166 1/2-y,1/4+z,3/4+x
167 1/4+y,3/4+z,1/2-x
168 1/4+y,1/2-z,3/4+x
169 1/2-x,1/2-y,-z
170 1/2+y,1/4-x,1/4-z
171 3/4+x,1/4+y,1/2-z
172 3/4-y,1/2+x,3/4-z
173 1/2-x,1/4+y,3/4+z
174 3/4-y,1/4-x,z
175 3/4+x,1/2-y,1/4+z
176 1/2+y,1/2+x,1/2+z
177 1/2-z,1/2-x,-y
178 1/2+x,1/4-z,1/4-y
179 3/4+z,1/4+x,1/2-y
180 3/4-x,1/2+z,3/4-y
181 1/2-z,1/4+x,3/4+y
182 3/4-x,1/4-z,y
183 3/4+z,1/2-x,1/4+y
184 1/2+x,1/2+z,1/2+y
185 1/2-y,1/2-z,-x
186 z,1/2+y,x
187 1/2+z,3/4-y,3/4-x
188 1/4-z,3/4-y,x
189 3/4-z,1/2+y,3/4-x
190 1/2-y,3/4+z,1/4+x
191 1/4+y,1/4+z,-x
192 1/4+y,-z,1/4+x
_cell_length_a                   47.0072(3)
_cell_length_b                   47.0072(3)
_cell_length_c                   47.0072(3)
_cell_angle_alpha                90
_cell_angle_beta                 90
_cell_angle_gamma                90
_cell_volume                     103871
loop_
_atom_site_label
_atom_site_type_symbol
_atom_site_fract_x
_atom_site_fract_y
_atom_site_fract_z
_atom_site_U_iso_or_equiv
_atom_site_thermal_displace_type
Cu1 Cu 0.376693(9) 0.412797(9) 0.529505(9) 0.0135 Uani
Cu2 Cu 0.350037(9) 0.475430(9) 0.557950(9) 0.0134 Uani
N1 N 0.35846(5) 0.47281(5) 0.51647(5) 0.0158 Uani
N2 N 0.37086(5) 0.44880(5) 0.50452(5) 0.0155 Uani
N3 N 0.39342(5) 0.42807(5) 0.56541(5) 0.0158 Uani
N4 N 0.38591(5) 0.45514(5) 0.57553(5) 0.0156 Uani
N5 N 0.35839(5) 0.51677(6) 0.40799(5) 0.0165 Uani
N6 N 0.38795(5) 0.51573(5) 0.40967(5) 0.0154 Uani
C1 C 0.34820(7) 0.50436(7) 0.43064(6) 0.0186 Uani
H1 H 0.3290 0.5019 0.4348 0.0350 Uiso
N7 N 0.37040(6) 0.49569(6) 0.44704(5) 0.0174 Uani
C2 C 0.37679(7) 0.45450(7) 0.47806(6) 0.0191 Uani
H2 H 0.3852 0.4421 0.4651 0.0330 Uiso
N8 N 0.48153(5) 0.43822(5) 0.64324(5) 0.0150 Uani
N9 N 0.44046(5) 0.43652(5) 0.62232(5) 0.0152 Uani
N10 N 0.46175(5) 0.42572(5) 0.66165(5) 0.0152 Uani
N11 N 0.42011(5) 0.43877(5) 0.60141(5) 0.0157 Uani
C3 C 0.40189(6) 0.46092(6) 0.59725(6) 0.0164 Uani
H3 H 0.4011 0.4774 0.6082 0.0200 Uiso
C4 C 0.43733(6) 0.42510(7) 0.64864(7) 0.0182 Uani
H4 H 0.4205 0.4180 0.6562 0.0500 Uiso
C5 C 0.41405(7) 0.41872(6) 0.58133(6) 0.0173 Uani
H5 H 0.4232 0.4013 0.5793 0.0280 Uiso
C6 C 0.35769(7) 0.49248(7) 0.49719(6) 0.0182 Uani
H6 H 0.3508 0.5109 0.4997 0.0510 Uiso
C7 C 0.39464(7) 0.50334(7) 0.43355(6) 0.0177 Uani
H7 H 0.4130 0.5003 0.4402 0.0310 Uiso
C8 C 0.46810(6) 0.44479(7) 0.61991(7) 0.0174 Uani
H8 H 0.4761 0.4537 0.6042 0.0320 Uiso
N12 N 0.36856(6) 0.48185(6) 0.47271(5) 0.0176 Uani
Cu1P Cu 0.412797(9) 0.529505(9) 0.376693(9) 0.0135 Uani
Cu1QC Cu 0.337203(9) 0.529505(9) 0.373307(9) 0.0135 Uani
Cu2SC Cu 0.475430(9) 0.399963(9) 0.692050(9) 0.0134 Uani
Cu2HD Cu 0.524570(9) 0.442050(9) 0.649963(9) 0.0134 Uani
N5HA N 0.34201(5) 0.39161(5) 0.51677(6) 0.0165 Uani
N6H N 0.40967(5) 0.38795(5) 0.51573(5) 0.0154 Uani
N8ZC N 0.35676(5) 0.51847(5) 0.56178(5) 0.0150 Uani
N10QE N 0.32428(5) 0.46175(5) 0.58835(5) 0.0152 Uani
O1 O 0.43876(6) 0.50030(6) 0.63688(6) 0.0359 Uani
O2 O 0.40570(6) 0.52543(6) 0.61582(7) 0.0407 Uani
O3 O 0.43863(8) 0.54680(7) 0.63891(9) 0.0607 Uani
N13 N 0.42756(7) 0.52413(7) 0.63096(7) 0.0317 Uani
O4 O 0.46133(6) 0.48600(7) 0.44863(7) 0.0424 Uani
N14 N 0.46526(7) 0.46526(7) 0.46526(7) 0.0290 Uani
O4H O 0.44863(7) 0.46133(6) 0.48600(7) 0.0424 Uani
O4P O 0.48600(7) 0.44863(7) 0.46133(6) 0.0424 Uani
O5 O 0.41488(9) 0.40831(8) 0.44381(7) 0.0663 Uani
N15 N 0.42257(9) 0.42257(9) 0.42257(9) 0.0464 Uani
O5H O 0.44381(7) 0.41488(9) 0.40831(8) 0.0663 Uani
O5P O 0.40831(8) 0.44381(7) 0.41488(9) 0.0663 Uani
N16 N 0.29001(12) 0.45999(12) 0.45999(12) 0.0590 Uani
O6 O 0.28644(10) 0.47647(11) 0.44068(11) 0.0930 Uani
O6HA O 0.30932(11) 0.46356(10) 0.47647(11) 0.0930 Uani
O6QC O 0.27353(11) 0.44068(11) 0.46356(10) 0.0930 Uani
loop_
_atom_site_aniso_label
_atom_site_aniso_U_11
_atom_site_aniso_U_22
_atom_site_aniso_U_33
_atom_site_aniso_U_23
_atom_site_aniso_U_13
_atom_site_aniso_U_12
Cu1 0.0128(2) 0.0124(2) 0.0152(2) -0.00110(16) -0.00222(16) 0.00081(16)
Cu2 0.0157(2) 0.0133(2) 0.0113(2) 0.00146(16) 0.00189(16) 0.00208(16)
N1 0.0199(13) 0.0145(12) 0.0131(12) 0.0022(10) 0.0006(10) 0.0032(10)
N2 0.0209(13) 0.0126(11) 0.0129(12) 0.0002(9) 0.0013(10) 0.0019(10)
N3 0.0175(12) 0.0147(12) 0.0152(12) -0.0017(10) -0.0022(10) 0.0035(10)
N4 0.0164(12) 0.0169(12) 0.0134(12) 0.0004(10) -0.0006(10) 0.0018(10)
N5 0.0129(12) 0.0211(13) 0.0156(12) 0.0027(10) 0.0000(9) -0.0005(10)
N6 0.0118(11) 0.0192(12) 0.0152(12) 0.0026(10) -0.0004(9) -0.0008(10)
C1 0.0152(14) 0.0252(16) 0.0155(14) 0.0035(12) -0.0014(11) -0.0012(12)
N7 0.0193(13) 0.0211(13) 0.0117(11) 0.0051(10) -0.0012(10) -0.0011(10)
C2 0.0240(16) 0.0195(15) 0.0139(14) -0.0010(12) 0.0005(12) 0.0019(12)
N8 0.0121(11) 0.0173(12) 0.0156(12) 0.0044(9) -0.0005(9) -0.0008(9)
N9 0.0147(12) 0.0160(12) 0.0148(11) 0.0023(10) -0.0064(10) -0.0009(10)
N10 0.0110(11) 0.0188(12) 0.0159(12) 0.0034(10) 0.0000(9) -0.0020(9)
N11 0.0148(12) 0.0154(12) 0.0168(12) 0.0010(10) -0.0055(10) -0.0002(9)
C3 0.0188(14) 0.0153(13) 0.0151(13) 0.0016(11) -0.0025(11) 0.0036(11)
C4 0.0148(14) 0.0200(15) 0.0197(15) 0.0061(12) -0.0010(11) -0.0021(11)
C5 0.0179(14) 0.0151(14) 0.0188(14) -0.0006(11) -0.0036(12) 0.0003(11)
C6 0.0250(15) 0.0179(15) 0.0118(13) 0.0021(11) 0.0019(12) 0.0023(12)
C7 0.0180(14) 0.0223(15) 0.0128(13) 0.0041(11) -0.0012(11) 0.0004(12)
C8 0.0144(14) 0.0213(15) 0.0165(14) 0.0016(12) -0.0025(11) -0.0003(11)
N12 0.0237(13) 0.0181(13) 0.0109(12) 0.0022(10) 0.0035(10) -0.0006(10)
Cu1P 0.0124 0.0152 0.0128 -0.00222 0.00081 -0.0011
Cu1QC 0.0124 0.0152 0.0128 0.00222 0.00081 0.0011
Cu2SC 0.0133 0.0157 0.0113 0.00189 -0.00146 -0.00208
Cu2HD 0.0133 0.0113 0.0157 0.00189 0.00208 0.00146
N5HA 0.0156 0.0129 0.0211 0.0005 -0.0027 0
N6H 0.0152 0.0118 0.0192 -0.0008 0.0026 -0.0004
N8ZC 0.0156 0.0121 0.0173 -0.0008 0.0044 -0.0005
N10QE 0.0188 0.011 0.0159 0 0.0034 0.002
O1 0.0281(13) 0.0308(14) 0.0487(17) -0.0099(12) -0.0078(12) 0.0036(11)
O2 0.0377(16) 0.0338(15) 0.0507(18) 0.0001(13) -0.0071(14) 0.0045(12)
O3 0.056(2) 0.0392(18) 0.087(3) -0.0104(18) -0.009(2) -0.0173(16)
N13 0.0269(16) 0.0263(16) 0.0419(18) -0.0106(14) 0.0081(14) -0.0066(13)
O4 0.0316(15) 0.0474(17) 0.0482(18) 0.0219(14) 0.0022(13) 0.0069(13)
N14 0.0290(11) 0.0290(11) 0.0290(11) 0.0070(14) 0.0070(14) 0.0070(14)
O4H 0.0482 0.0316 0.0474 0.0069 0.0219 0.0022
O4P 0.0474 0.0482 0.0316 0.0022 0.0069 0.0219
O5 0.094(3) 0.060(2) 0.0448(19) 0.0137(17) 0.026(2) 0.023(2)
N15 0.0464(15) 0.0464(15) 0.0464(15) 0.0039(18) 0.0039(18) 0.0039(18)
O5H 0.0448 0.094 0.06 0.023 0.0137 0.026
O5P 0.06 0.0448 0.094 0.026 0.023 0.0137
N16 0.059(2) 0.059(2) 0.059(2) 0.030(3) -0.030(3) -0.030(3)
O6 0.087(3) 0.110(4) 0.082(3) 0.042(3) -0.024(3) -0.035(3)
O6HA 0.082 0.087 0.11 0.035 -0.042 -0.024
O6QC 0.11 0.082 0.087 0.024 -0.035 -0.042
loop_
_geom_bond_atom_site_label_1
_geom_bond_atom_site_label_2
_geom_bond_site_symmetry_1
_geom_bond_site_symmetry_2
Cu1 N2 1_555 1_555
Cu2 N1 1_555 1_555
N1 N2 1_555 1_555
N2 C2 1_555 1_555
N3 Cu1 1_555 1_555
N4 Cu2 1_555 1_555
N5 N6 1_555 1_555
N6 C7 1_555 1_555
C1 N5 1_555 1_555
H1 C1 1_555 1_555
N7 C1 1_555 1_555
C2 H2 1_555 1_555
N8 N10 1_555 1_555
N9 N11 1_555 1_555
N10 C4 1_555 1_555
N11 C3 1_555 1_555
C3 N4 1_555 1_555
H3 C3 1_555 1_555
C4 N9 1_555 1_555
H4 C4 1_555 1_555
C5 N3 1_555 1_555
H5 C5 1_555 1_555
C6 N1 1_555 1_555
H6 C6 1_555 1_555
C7 N7 1_555 1_555
H7 C7 1_555 1_555
C8 N8 1_555 1_555
H8 C8 1_555 1_555
N12 N7 1_555 1_555
O1 N13 1_555 1_555
O2 N13 1_555 1_555
O3 N13 1_555 1_555
O4 N14 1_555 1_555
N14 O4H 1_555 1_555
O5 N15 1_555 1_555
N15 O5H 1_555 1_555
N16 O6 1_555 1_555
Cu1P N6 1_555 1_555
Cu1QC N5 1_555 1_555
Cu2SC N10 1_555 1_555
Cu2HD N8 1_555 1_555
N5HA Cu1 1_555 1_555
N6H Cu1 1_555 1_555
N8ZC Cu2 1_555 1_555
N10QE Cu2 1_555 1_555
O4P N14 1_555 1_555
O5P N15 1_555 1_555
O6HA N16 1_555 1_555
O6QC N16 1_555 1_555
N3 N4 1_555 1_555
C2 N12 1_555 1_555
N9 C8 1_555 1_555
N11 C5 1_555 1_555
C6 N12 1_555 1_555

#END
