
#######################################################################
#
#                 Cambridge Crystallographic Data Centre
#                                CCDC 
#
#######################################################################
#
# If this CIF has been generated from an entry in the Cambridge 
# Structural Database, then it will include bibliographic, chemical, 
# crystal, experimental, refinement or atomic coordinate data resulting 
# from the CCDC's data processing and validation procedures.
#
#######################################################################

data_JOVDON
_chemical_formula_moiety         '(C10 H16 Ce2 O20)n'
_symmetry_cell_setting           orthorhombic
_symmetry_space_group_name_H-M   'P b c n'
_symmetry_Int_Tables_number      60
_space_group_name_Hall           '-P 2n 2ab'
loop_
_symmetry_equiv_pos_site_id
_symmetry_equiv_pos_as_xyz
1 x,y,z
2 1/2-x,1/2-y,1/2+z
3 1/2+x,1/2-y,-z
4 -x,y,1/2-z
5 -x,-y,-z
6 1/2+x,1/2+y,1/2-z
7 1/2-x,1/2+y,z
8 x,-y,1/2+z
_cell_length_a                   23.825(3)
_cell_length_b                   14.044(1)
_cell_length_c                   6.673(1)
_cell_angle_alpha                90
_cell_angle_beta                 90
_cell_angle_gamma                90
_cell_volume                     2232.77
loop_
_atom_site_label
_atom_site_type_symbol
_atom_site_fract_x
_atom_site_fract_y
_atom_site_fract_z
Ce1 Ce 0.36608(1) 0.29434(1) 0.11856(3)
O1 O 0.2869(1) 0.1918(2) -0.0244(5)
O2 O 0.1644(1) 0.0962(2) -0.1058(5)
O3 O 0.2141(1) -0.1099(2) -0.0045(5)
O4 O 0.3378(1) -0.0208(2) 0.0442(6)
O5 O 0.4708(1) 0.2934(3) 0.0121(5)
O6 O 0.5607(1) 0.3001(2) 0.1047(4)
O7 O 0.4041(1) 0.1282(2) 0.1207(6)
O8 O 0.3196(1) 0.2041(2) 0.4146(5)
O9 O 0.4066(1) 0.4594(2) 0.0394(5)
O10 O 0.3791(1) 0.2797(3) -0.2504(5)
C1 C 0.2677(2) 0.1094(3) -0.0222(6)
C2 C 0.2122(2) 0.0672(3) -0.0559(6)
C3 C 0.2339(2) -0.0272(3) -0.0131(6)
C4 C 0.2906(2) 0.0128(3) 0.0119(6)
C5 C 0.5089(1) 0.2961(3) 0.1383(6)
H1 H 0.389 0.084 0.082
H2 H 0.457 0.124 0.082
H3 H 0.277 0.231 0.416
H4 H 0.334 0.145 0.457
H5 H 0.432 0.481 0.126
H6 H 0.391 0.500 -0.001
H7 H 0.413 0.281 -0.300
H8 H 0.348 0.291 -0.374
C5C C 0.4911(1) 0.2961(3) 0.3617(6)
O5C O 0.5292(1) 0.2934(3) 0.4879(5)
O6C O 0.4393(1) 0.3001(2) 0.3953(4)
O2A O 0.3356(1) 0.4038(2) 0.3942(5)
O3F O 0.2859(1) 0.3901(2) -0.0045(5)
Ce1A Ce 0.13392(1) 0.20566(1) -0.38144(3)
Ce1F Ce 0.13392(1) -0.20566(1) 0.11856(3)
Ce1C Ce 0.63392(1) 0.29434(1) 0.38144(3)
O1C O 0.7131(1) 0.1918(2) 0.5244(5)
O2B O 0.6644(1) 0.4038(2) 0.1058(5)
O3E O 0.7141(1) 0.3901(2) 0.5045(5)
O7C O 0.5959(1) 0.1282(2) 0.3793(6)
O8C O 0.6804(1) 0.2041(2) 0.0854(5)
O9C O 0.5934(1) 0.4594(2) 0.4606(5)
O10C O 0.6209(1) 0.2797(3) 0.7504(5)
H3C H 0.723 0.231 0.084
H4C H 0.666 0.145 0.043
H1C H 0.611 0.084 0.418
H2C H 0.543 0.124 0.418
C1C C 0.7323(2) 0.1094(3) 0.5222(6)
H7C H 0.587 0.281 0.800
H8C H 0.652 0.291 0.874
H5C H 0.568 0.481 0.374
H6C H 0.609 0.500 0.501
C2C C 0.7878(2) 0.0672(3) 0.5559(6)
C4C C 0.7094(2) 0.0128(3) 0.4881(6)
O2C O 0.8356(1) 0.0962(2) 0.6058(5)
C3C C 0.7661(2) -0.0272(3) 0.5131(6)
O4C O 0.6622(1) -0.0208(2) 0.4558(6)
Ce1B Ce 0.86608(1) 0.20566(1) 0.88144(3)
O3C O 0.7859(1) -0.1099(2) 0.5045(5)
Ce1E Ce 0.86608(1) -0.20566(1) 0.38144(3)
loop_
_geom_bond_atom_site_label_1
_geom_bond_atom_site_label_2
_geom_bond_site_symmetry_1
_geom_bond_site_symmetry_2
Ce1 O1 1_555 1_555
O1 C1 1_555 1_555
O2 C2 1_555 1_555
O3 C3 1_555 1_555
O4 C4 1_555 1_555
O5 Ce1 1_555 1_555
O6 C5 1_555 1_555
O7 Ce1 1_555 1_555
O8 Ce1 1_555 1_555
O9 Ce1 1_555 1_555
O10 Ce1 1_555 1_555
C1 C2 1_555 1_555
C2 C3 1_555 1_555
C3 C4 1_555 1_555
C4 C1 1_555 1_555
C5 O5 1_555 1_555
H1 O7 1_555 1_555
H2 O7 1_555 1_555
H3 O8 1_555 1_555
H4 O8 1_555 1_555
H5 O9 1_555 1_555
H6 O9 1_555 1_555
H7 O10 1_555 1_555
H8 O10 1_555 1_555
C5C C5 1_555 1_555
O5C C5C 1_555 1_555
O6C Ce1 1_555 1_555
O2A Ce1 1_555 1_555
O3F Ce1 1_555 1_555
Ce1A O2 1_555 1_555
Ce1F O3 1_555 1_555
Ce1C O6 1_555 1_555
O1C Ce1C 1_555 1_555
O2B Ce1C 1_555 1_555
O3E Ce1C 1_555 1_555
O7C Ce1C 1_555 1_555
O8C Ce1C 1_555 1_555
O9C Ce1C 1_555 1_555
O10C Ce1C 1_555 1_555
H3C O8C 1_555 1_555
H4C O8C 1_555 1_555
H1C O7C 1_555 1_555
H2C O7C 1_555 1_555
C1C O1C 1_555 1_555
H7C O10C 1_555 1_555
H8C O10C 1_555 1_555
H5C O9C 1_555 1_555
H6C O9C 1_555 1_555
C2C C1C 1_555 1_555
C4C C1C 1_555 1_555
O2C C2C 1_555 1_555
C3C C2C 1_555 1_555
O4C C4C 1_555 1_555
Ce1B O2C 1_555 1_555
O3C C3C 1_555 1_555
Ce1E O3C 1_555 1_555
C5C O6C 1_555 1_555
O5C Ce1C 1_555 1_555
C4C C3C 1_555 1_555

#END
