
#######################################################################
#
#                 Cambridge Crystallographic Data Centre
#                                CCDC 
#
#######################################################################
#
# If this CIF has been generated from an entry in the Cambridge 
# Structural Database, then it will include bibliographic, chemical, 
# crystal, experimental, refinement or atomic coordinate data resulting 
# from the CCDC's data processing and validation procedures.
#
#######################################################################

data_KAHNOX
_chemical_formula_moiety         '(C18 H28 Cu5 N10 O4)n'
_symmetry_cell_setting           monoclinic
_symmetry_space_group_name_H-M   'C 2/c'
_symmetry_Int_Tables_number      15
_space_group_name_Hall           '-C 2yc'
loop_
_symmetry_equiv_pos_site_id
_symmetry_equiv_pos_as_xyz
1 x,y,z
2 -x,y,1/2-z
3 1/2+x,1/2+y,z
4 1/2-x,1/2+y,1/2-z
5 -x,-y,-z
6 x,-y,1/2+z
7 1/2-x,1/2-y,-z
8 1/2+x,1/2-y,1/2+z
_cell_length_a                   14.032(2)
_cell_length_b                   12.573(1)
_cell_length_c                   16.449(2)
_cell_angle_alpha                90
_cell_angle_beta                 91.998(2)
_cell_angle_gamma                90
_cell_volume                     2900.24
loop_
_atom_site_label
_atom_site_type_symbol
_atom_site_fract_x
_atom_site_fract_y
_atom_site_fract_z
Cu1 Cu 1.00000 0.00000 0.00000
Cu2 Cu 1.18542(6) -0.32049(7) 0.00207(5)
Cu3 Cu 1.00000 -0.3654(1) 0.2500
Cu4 Cu 1.00000 -0.4016(1) -0.2500
O1 O 1.0772(3) 0.1452(4) -0.0557(3)
O2 O 0.9494(3) -0.0484(4) -0.1136(3)
N1 N 1.1114(4) -0.0872(5) -0.0135(3)
N2 N 1.1143(4) -0.3441(5) 0.1011(4)
N3 N 1.0803(5) -0.3858(5) -0.1573(5)
N4 N 1.1328(4) 0.3122(5) -0.0265(3)
N5 N 0.8596(4) -0.0199(5) -0.2285(4)
C1 C 1.1781(5) -0.1401(6) -0.0114(4)
C2 C 1.0725(4) -0.3570(6) 0.1607(4)
C3 C 1.1227(5) -0.3639(6) -0.0983(4)
C4 C 1.0816(5) 0.2252(7) -0.0130(4)
C5 C 1.1873(5) 0.3209(7) -0.0996(5)
C6 C 1.1302(6) 0.4040(7) 0.0267(5)
C7 C 0.9019(5) 0.0116(7) -0.1599(5)
C8 C 0.8648(6) -0.1284(7) -0.2566(5)
C9 C 0.8051(6) 0.0532(8) -0.2810(5)
Cu2D Cu 0.81458(6) 0.32049(7) -0.00207(5)
Cu2F Cu 1.31458(6) -0.17951(7) -0.00207(5)
Cu2B Cu 0.68542(6) 0.17951(7) 0.00207(5)
Cu3D Cu 1.00000 -0.6346(1) -0.2500
Cu3D_2 Cu 1.00000 0.3654(1) -0.2500
Cu4D Cu 1.00000 -0.5984(1) 0.2500
Cu4D_2 Cu 1.00000 0.4016(1) 0.2500
O1D O 0.9228(3) -0.1452(4) 0.0557(3)
O2D O 1.0506(3) 0.0484(4) 0.1136(3)
N1D N 0.8886(4) 0.0872(5) 0.0135(3)
N2D N 0.8857(4) 0.3441(5) -0.1011(4)
N3D N 0.9197(5) 0.3858(5) 0.1573(5)
N3A N 0.9197(5) -0.3858(5) -0.3427(5)
N4D N 0.8672(4) -0.3122(5) 0.0265(3)
N5D N 1.1404(4) 0.0199(5) 0.2285(4)
C1D C 0.8219(5) 0.1401(6) 0.0114(4)
C1F C 1.3219(5) -0.3599(6) 0.0114(4)
C1B C 0.6781(5) 0.3599(6) -0.0114(4)
C2D C 0.9275(4) 0.3570(6) -0.1607(4)
C2A C 0.9275(4) -0.3570(6) 0.3393(4)
C3D C 0.8773(5) 0.3639(6) 0.0983(4)
C4D C 0.9184(5) -0.2252(7) 0.0130(4)
C5D C 0.8127(5) -0.3209(7) 0.0996(5)
C6D C 0.8698(6) -0.4040(7) -0.0267(5)
C7D C 1.0981(5) -0.0116(7) 0.1599(5)
C8D C 1.1352(6) 0.1284(7) 0.2566(5)
C9D C 1.1949(6) -0.0532(8) 0.2810(5)
loop_
_geom_bond_atom_site_label_1
_geom_bond_atom_site_label_2
_geom_bond_site_symmetry_1
_geom_bond_site_symmetry_2
Cu1 O1 1_555 1_555
Cu2 N2 1_555 1_555
Cu3 C2 1_555 1_555
Cu4 N3 1_555 1_555
O1 C4 1_555 1_555
O2 Cu1 1_555 1_555
N1 Cu1 1_555 1_555
N2 C2 1_555 1_555
N3 C3 1_555 1_555
N4 C4 1_555 1_555
N5 C7 1_555 1_555
C1 Cu2 1_555 1_555
C3 Cu2 1_555 1_555
C5 N4 1_555 1_555
C6 N4 1_555 1_555
C7 O2 1_555 1_555
C8 N5 1_555 1_555
C9 N5 1_555 1_555
Cu2D Cu2B 1_555 1_555
Cu2F Cu2 1_555 1_555
Cu2B C1D 1_555 1_555
Cu3D Cu4 1_555 1_555
Cu3D_2 C2D 1_555 1_555
Cu4D Cu3 1_555 1_555
Cu4D_2 N3D 1_555 1_555
O1D Cu1 1_555 1_555
O2D Cu1 1_555 1_555
N1D Cu1 1_555 1_555
N2D Cu2D 1_555 1_555
N3D C3D 1_555 1_555
N3A Cu4 1_555 1_555
N4D C4D 1_555 1_555
N5D C7D 1_555 1_555
C1D Cu2D 1_555 1_555
C1F Cu2 1_555 1_555
C1B Cu2D 1_555 1_555
C2D N2D 1_555 1_555
C2A Cu3 1_555 1_555
C3D Cu2D 1_555 1_555
C4D O1D 1_555 1_555
C5D N4D 1_555 1_555
C6D N4D 1_555 1_555
C7D O2D 1_555 1_555
C8D N5D 1_555 1_555
C9D N5D 1_555 1_555
N1 C1 1_555 1_555
C1 Cu2F 1_555 1_555
Cu2F C1F 1_555 1_555
Cu2B C1B 1_555 1_555
N1D C1D 1_555 1_555

#END
