
#######################################################################
#
#                 Cambridge Crystallographic Data Centre
#                                CCDC 
#
#######################################################################
#
# If this CIF has been generated from an entry in the Cambridge 
# Structural Database, then it will include bibliographic, chemical, 
# crystal, experimental, refinement or atomic coordinate data resulting 
# from the CCDC's data processing and validation procedures.
#
#######################################################################

data_LEJBUX
_chemical_formula_moiety         'C17 H14 Cd5 N2 O4'
_symmetry_cell_setting           monoclinic
_symmetry_space_group_name_H-M   'P 21/c'
_symmetry_Int_Tables_number      14
_space_group_name_Hall           '-P 2ybc'
loop_
_symmetry_equiv_pos_site_id
_symmetry_equiv_pos_as_xyz
1 x,y,z
2 -x,1/2+y,1/2-z
3 -x,-y,-z
4 x,1/2-y,1/2+z
_cell_length_a                   9.003(7)
_cell_length_b                   12.046(3)
_cell_length_c                   18.870(15)
_cell_angle_alpha                90
_cell_angle_beta                 96.23(4)
_cell_angle_gamma                90
_cell_volume                     2034.37
loop_
_atom_site_label
_atom_site_type_symbol
_atom_site_fract_x
_atom_site_fract_y
_atom_site_fract_z
O2 O 0.891(1) 0.123(1) 0.5492(6)
N2 N 0.758(1) 0.262(1) 0.5799(7)
C4 C 0.777(4) 0.152(3) 0.585(2)
C5 C 0.832(4) 0.333(3) 0.537(2)
C6 C 0.632(4) 0.332(3) 0.594(2)
Cd1 Cd 0.24483(7) 0.23963(6) 0.40762(4)
Cd2 Cd 0.26907(7) -0.00281(6) 0.15488(4)
O3 O 0.4367(9) 0.1350(7) 0.4660(4)
O4 O 0.0873(9) 0.1047(7) 0.4480(5)
C7 C 0.268(1) 0.0872(9) 0.2578(6)
C8 C 0.260(1) 0.1316(8) 0.3099(4)
C9 C 0.248(1) 0.3837(9) 0.5625(6)
C10 C 0.242(1) 0.3291(8) 0.5136(4)
C11 C -0.070(1) 0.3850(9) 0.3567(5)
C12 C 0.0353(9) 0.3339(8) 0.3653(5)
C13 C 0.523(1) 0.4013(9) 0.3557(5)
C14 C 0.4175(9) 0.3559(8) 0.3680(5)
C9C C 0.248(1) 0.1163(9) 0.0625(6)
C11A C 0.070(1) -0.1150(9) 0.1433(5)
C13A C 0.477(1) -0.0987(9) 0.1443(5)
Cd2C Cd 0.26907(7) 0.50281(6) 0.65488(4)
Cd2A Cd -0.26907(7) 0.49719(6) 0.34512(4)
Cd2A_2 Cd 0.73093(7) 0.49719(6) 0.34512(4)
O1 O 0.399(1) 0.027(1) 0.5895(6)
N1 N 0.245(1) 0.004(1) 0.6698(6)
C1 C 0.136(3) 0.025(2) 0.719(1)
C2 C 0.298(3) 0.081(3) 0.630(2)
C3 C 0.293(3) -0.115(2) 0.670(1)
loop_
_geom_bond_atom_site_label_1
_geom_bond_atom_site_label_2
_geom_bond_site_symmetry_1
_geom_bond_site_symmetry_2
O1 C2 1_555 1_555
N1 C1 1_555 1_555
C2 N1 1_555 1_555
C3 N1 1_555 1_555
O2 C4 1_555 1_555
N2 C4 1_555 1_555
C5 N2 1_555 1_555
C6 N2 1_555 1_555
Cd1 O3 1_555 1_555
Cd2 C7 1_555 1_555
O4 Cd1 1_555 1_555
C7 C8 1_555 1_555
C8 Cd1 1_555 1_555
C9 C10 1_555 1_555
C10 Cd1 1_555 1_555
C11 C12 1_555 1_555
C12 Cd1 1_555 1_555
C13 C14 1_555 1_555
C14 Cd1 1_555 1_555
C9C Cd2 1_555 1_555
C11A Cd2 1_555 1_555
C13A Cd2 1_555 1_555
Cd2C C9 1_555 1_555
Cd2A C11 1_555 1_555
Cd2A_2 C13 1_555 1_555

#END
