
#######################################################################
#
#                 Cambridge Crystallographic Data Centre
#                                CCDC 
#
#######################################################################
#
# If this CIF has been generated from an entry in the Cambridge 
# Structural Database, then it will include bibliographic, chemical, 
# crystal, experimental, refinement or atomic coordinate data resulting 
# from the CCDC's data processing and validation procedures.
#
#######################################################################

data_LEMVOP
_chemical_formula_moiety         '(C60 H68 N40 Pr4)n'
_symmetry_cell_setting           monoclinic
_symmetry_space_group_name_H-M   'P 21/n'
_symmetry_Int_Tables_number      14
_space_group_name_Hall           '-P 2yn'
loop_
_symmetry_equiv_pos_site_id
_symmetry_equiv_pos_as_xyz
1 x,y,z
2 1/2-x,1/2+y,1/2-z
3 -x,-y,-z
4 1/2+x,1/2-y,1/2+z
_cell_length_a                   23.292(5)
_cell_length_b                   14.004(3)
_cell_length_c                   23.479(5)
_cell_angle_alpha                90
_cell_angle_beta                 107.51(3)
_cell_angle_gamma                90
_cell_volume                     7303.55
loop_
_atom_site_label
_atom_site_type_symbol
_atom_site_fract_x
_atom_site_fract_y
_atom_site_fract_z
Pr1 Pr 0.48900(3) -0.20346(5) 0.22635(3)
N1 N 0.4196(5) -0.0711(7) 0.2442(5)
C1 C 0.3764(5) -0.0186(9) 0.2087(6)
H1 H 0.3598 -0.0310 0.1672
Pr2 Pr 0.25737(3) 0.14154(4) 0.20995(3)
N2 N 0.3575(5) 0.0554(8) 0.2370(5)
C2 C 0.4286(6) -0.0320(10) 0.3002(6)
H2 H 0.4555 -0.0553 0.3364
Pr3 Pr 0.74751(3) 0.05789(4) 0.29188(3)
N3 N 0.4385(4) -0.2673(7) 0.2996(5)
C3 C 0.3921(6) 0.0456(10) 0.2945(6)
H3 H 0.3911 0.0870 0.3263
Pr4 Pr 0.72348(3) -0.29937(5) 0.49641(3)
N4 N 0.3531(5) -0.3186(7) 0.3188(5)
C4 C 0.3788(6) -0.2677(8) 0.2858(5)
H4 H 0.3550 -0.2320 0.2527
N5 N 0.5470(4) -0.0523(7) 0.2175(5)
C5 C 0.4536(6) -0.3271(9) 0.3496(7)
H5 H 0.4937 -0.3428 0.3719
N6 N 0.6347(5) 0.0287(8) 0.2518(5)
C6 C 0.4042(6) -0.3599(10) 0.3625(6)
H6 H 0.4035 -0.4018 0.3941
N7 N 0.5713(4) -0.2805(7) 0.1910(4)
C7 C 0.6072(5) -0.0529(9) 0.2320(6)
H7 H 0.6290 -0.1087 0.2283
N8 N 0.6453(5) -0.3772(8) 0.1783(5)
C8 C 0.5347(6) 0.0399(10) 0.2311(7)
H8 H 0.4957 0.0650 0.2264
N9 N 0.5698(4) -0.1880(8) 0.3254(5)
C9 C 0.5876(6) 0.0896(10) 0.2524(7)
H9 H 0.5915 0.1543 0.2653
N10 N 0.6364(5) -0.2241(8) 0.4165(5)
C10 C 0.6148(6) -0.3453(9) 0.2152(6)
H10 H 0.6233 -0.3668 0.2552
N11 N 0.4252(5) -0.1681(7) 0.1202(4)
C11 C 0.5775(6) -0.2666(9) 0.1348(5)
H11 H 0.5549 -0.2224 0.1060
N12 N 0.3342(5) -0.1649(8) 0.0497(5)
C12 C 0.6208(6) -0.3260(10) 0.1269(7)
H12 H 0.6322 -0.3310 0.0914
N13 N 0.4497(5) -0.3766(8) 0.1874(5)
C13 C 0.6038(6) -0.2549(10) 0.3609(6)
H13 H 0.6051 -0.3191 0.3482
N14 N 0.3980(6) -0.5120(9) 0.1720(6)
H14 H 0.3737 -0.5576 0.1763
C14 C 0.5802(6) -0.1094(10) 0.3621(6)
H15 H 0.5629 -0.0480 0.3515
N15 N 0.2692(5) 0.3160(7) 0.2414(5)
C15 C 0.6198(6) -0.1337(9) 0.4171(5)
H16 H 0.6330 -0.0919 0.4504
N16 N 0.2729(5) 0.4699(7) 0.2713(4)
C16 C 0.3721(6) -0.2105(10) 0.0959(5)
H17 H 0.3618 -0.2693 0.1106
N17 N 0.2635(5) 0.1395(7) 0.3229(5)
C17 C 0.4217(6) -0.0895(9) 0.0868(6)
H18 H 0.4526 -0.0431 0.0916
N18 N 0.2583(5) 0.1870(7) 0.4146(5)
C18 C 0.3661(7) -0.0866(10) 0.0441(6)
H19 H 0.3523 -0.0374 0.0153
N19 N 0.2204(5) 0.0717(8) 0.1065(5)
C19 C 0.4129(7) -0.4302(9) 0.2054(7)
H20 H 0.3981 -0.4146 0.2378
N20 N 0.2222(5) -0.0303(8) 0.0322(5)
C20 C 0.4609(7) -0.4237(10) 0.1410(7)
H21 H 0.4867 -0.4019 0.1191
N21 N 0.3148(5) 0.2313(8) 0.1456(5)
C21 C 0.4287(7) -0.5082(10) 0.1307(7)
H22 H 0.4280 -0.5545 0.1009
C22 C 0.3170(7) 0.3192(11) 0.0674(6)
H23 H 0.3094 0.3685 0.0383
C23 C 0.2376(6) 0.3993(9) 0.2451(6)
H24 H 0.1951 0.4044 0.2303
N22 N 0.7256(4) 0.2263(7) 0.2531(4)
C24 C 0.3277(6) 0.3409(9) 0.2671(6)
H25 H 0.3612 0.2996 0.2716
N23 N 0.7386(5) 0.3842(7) 0.2344(5)
C25 C 0.3315(6) 0.4333(9) 0.2855(6)
H26 H 0.3675 0.4672 0.3046
N24 N 0.7618(5) 0.0615(7) 0.1852(5)
C26 C 0.2497(6) 0.2105(10) 0.3553(5)
H27 H 0.2355 0.2711 0.3390
N25 N 0.7745(6) 0.1133(8) 0.0983(5)
C27 C 0.2805(7) 0.0659(9) 0.3636(6)
H28 H 0.2927 0.0043 0.3548
N26 N 0.7816(5) -0.0418(8) 0.3928(5)
C28 C 0.2775(6) 0.0936(9) 0.4184(6)
H29 H 0.2870 0.0549 0.4532
N27 N 0.7700(5) -0.1550(8) 0.4559(4)
C29 C 0.2265(7) -0.0195(9) 0.0890(7)
H30 H 0.2334 -0.0718 0.1160
N28 N 0.7107(5) 0.1519(8) 0.3718(5)
C30 C 0.2095(8) 0.1222(11) 0.0544(7)
H31 H 0.2029 0.1891 0.0502
N29 N 0.6535(6) 0.1661(9) 0.4313(6)
H32 H 0.6359 0.1515 0.4585
C31 C 0.2098(8) 0.0607(10) 0.0093(6)
H33 H 0.2026 0.0778 -0.0314
N30 N 0.6271(6) -0.3191(9) 0.5306(5)
C32 C 0.2965(7) 0.3161(10) 0.1148(6)
H34 H 0.2730 0.3643 0.1256
N31 N 0.5608(6) -0.3304(10) 0.5798(6)
H35 H 0.5440 -0.3230 0.6085
C33 C 0.3488(7) 0.1878(10) 0.1171(6)
H36 H 0.3690 0.1288 0.1288
N32 N 0.3503(6) 0.2407(9) 0.0681(5)
H38 H 0.3694 0.2259 0.0422
C36 C 0.7632(6) 0.3011(9) 0.2620(5)
H40 H 0.8041 0.2967 0.2858
C38 C 0.6726(6) 0.2662(10) 0.2160(6)
H42 H 0.6361 0.2319 0.1999
C39 C 0.6798(6) 0.3598(9) 0.2061(6)
H44 H 0.6494 0.4017 0.1833
C40 C 0.7460(6) 0.1228(9) 0.1401(5)
H45 H 0.7163 0.1706 0.1375
C41 C 0.8071(6) 0.0059(10) 0.1732(6)
H47 H 0.8284 -0.0452 0.1970
C42 C 0.8151(6) 0.0383(10) 0.1212(6)
H48 H 0.8436 0.0140 0.1033
C43 C 0.7545(5) -0.1203(9) 0.3994(5)
H50 H 0.7260 -0.1512 0.3670
C44 C 0.8188(6) -0.0199(9) 0.4486(6)
H51 H 0.8446 0.0341 0.4585
C45 C 0.8127(6) -0.0890(9) 0.4880(5)
H52 H 0.8337 -0.0915 0.5294
C46 C 0.6880(7) 0.1099(10) 0.4105(6)
H53 H 0.6957 0.0451 0.4223
C47 C 0.6859(8) 0.2431(12) 0.3671(8)
H54 H 0.6930 0.2926 0.3424
C48 C 0.6505(7) 0.2508(12) 0.4026(7)
H55 H 0.6277 0.3052 0.4068
C49 C 0.6140(6) -0.2913(11) 0.5788(6)
H56 H 0.6382 -0.2501 0.6086
C50 C 0.5781(8) -0.3807(13) 0.4988(7)
H57 H 0.5743 -0.4142 0.4626
C51 C 0.5386(8) -0.3810(15) 0.5311(8)
H58 H 0.5008 -0.4127 0.5201
Pr2A Pr 0.24263(3) -0.35846(4) 0.29005(3)
Pr2A_2 Pr 0.24263(3) 0.64154(4) 0.29005(3)
Pr3A Pr 0.75249(3) -0.44211(4) 0.20812(3)
Pr3A_2 Pr 0.75249(3) 0.55789(4) 0.20812(3)
Pr4C Pr 0.22348(3) -0.20063(5) -0.00359(3)
Pr4B Pr 0.27652(3) 0.29937(5) 0.50359(3)
Pr4A Pr 0.77652(3) 0.20063(5) 0.00359(3)
N4A N 0.1469(5) 0.1814(7) 0.1812(5)
N8A N 0.8547(5) 0.1228(8) 0.3217(5)
N12C N 0.8342(5) -0.3351(8) 0.5497(5)
N16A N 0.2271(5) -0.0301(7) 0.2287(4)
N18B N 0.7417(5) -0.1870(7) 0.5854(5)
N20C N 0.7222(5) -0.4697(8) 0.5322(5)
N23A N 0.7614(5) -0.1158(7) 0.2656(5)
N25A N 0.7255(6) -0.3867(8) 0.4017(5)
C34 C 0.5178(10) 0.1031(12) 0.4526(10)
H37 H 0.5135 0.0844 0.4126
C35 C 0.5576(10) 0.1544(14) 0.5424(11)
H39 H 0.5858 0.1765 0.5782
N38 N 0.5703(8) 0.1276(12) 0.4914(8)
C52 C 0.4695(11) 0.1075(14) 0.4763(11)
H59 H 0.4285 0.0904 0.4586
N39 N 0.4981(8) 0.1437(11) 0.5327(9)
H60 H 0.4794 0.1580 0.5590
C37 C 0.5175(7) 0.4150(11) 0.3146(8)
H41 H 0.5245 0.4671 0.3418
N33 N 0.5124(6) 0.3308(11) 0.2383(6)
H43 H 0.5153 0.3101 0.2039
C53 C 0.5331(8) 0.4170(15) 0.2641(8)
H61 H 0.5534 0.4660 0.2497
N40 N 0.4911(6) 0.3335(11) 0.3238(7)
C54 C 0.4871(8) 0.2828(13) 0.2742(8)
H62 H 0.4689 0.2217 0.2657
N34 N 0.5208(7) 0.2968(12) 0.1165(7)
N35 N 0.5789(7) 0.3189(12) 0.0583(7)
H46 H 0.6017 0.3460 0.0389
C55 C 0.5519(10) 0.3648(18) 0.0942(10)
H63 H 0.5539 0.4313 0.1025
C56 C 0.5301(9) 0.2132(16) 0.0947(8)
H64 H 0.5148 0.1541 0.1038
C57 C 0.5652(8) 0.2233(17) 0.0570(9)
H65 H 0.5772 0.1746 0.0348
N36 N 0.6154(6) -0.1433(10) 0.0212(6)
N37 N 0.6565(6) -0.0590(10) 0.1030(6)
H49 H 0.6840 -0.0366 0.1347
C58 C 0.6667(7) -0.1259(11) 0.0641(7)
H66 H 0.7044 -0.1550 0.0673
C59 C 0.5731(7) -0.0868(12) 0.0347(7)
H67 H 0.5318 -0.0848 0.0120
C60 C 0.5983(8) -0.0334(13) 0.0853(7)
H68 H 0.5788 0.0116 0.1035
loop_
_geom_bond_atom_site_label_1
_geom_bond_atom_site_label_2
_geom_bond_site_symmetry_1
_geom_bond_site_symmetry_2
Pr1 N1 1_555 1_555
N1 C1 1_555 1_555
C1 H1 1_555 1_555
Pr2 N2 1_555 1_555
N2 C1 1_555 1_555
C2 N1 1_555 1_555
H2 C2 1_555 1_555
Pr3 N6 1_555 1_555
N3 Pr1 1_555 1_555
C3 N2 1_555 1_555
H3 C3 1_555 1_555
Pr4 N10 1_555 1_555
N4 C4 1_555 1_555
C4 N3 1_555 1_555
H4 C4 1_555 1_555
N5 Pr1 1_555 1_555
C5 N3 1_555 1_555
H5 C5 1_555 1_555
N6 C7 1_555 1_555
C6 N4 1_555 1_555
H6 C6 1_555 1_555
N7 Pr1 1_555 1_555
C7 N5 1_555 1_555
H7 C7 1_555 1_555
N8 C10 1_555 1_555
C8 N5 1_555 1_555
H8 C8 1_555 1_555
N9 Pr1 1_555 1_555
C9 N6 1_555 1_555
H9 C9 1_555 1_555
N10 C13 1_555 1_555
C10 N7 1_555 1_555
H10 C10 1_555 1_555
N11 Pr1 1_555 1_555
C11 N7 1_555 1_555
H11 C11 1_555 1_555
N12 C16 1_555 1_555
C12 N8 1_555 1_555
H12 C12 1_555 1_555
N13 Pr1 1_555 1_555
C13 N9 1_555 1_555
H13 C13 1_555 1_555
N14 H14 1_555 1_555
C14 N9 1_555 1_555
H15 C14 1_555 1_555
N15 Pr2 1_555 1_555
C15 N10 1_555 1_555
H16 C15 1_555 1_555
N16 C23 1_555 1_555
C16 N11 1_555 1_555
H17 C16 1_555 1_555
N17 Pr2 1_555 1_555
C17 N11 1_555 1_555
H18 C17 1_555 1_555
N18 C26 1_555 1_555
C18 N12 1_555 1_555
H19 C18 1_555 1_555
N19 Pr2 1_555 1_555
C19 N13 1_555 1_555
H20 C19 1_555 1_555
N20 C29 1_555 1_555
C20 N13 1_555 1_555
H21 C20 1_555 1_555
N21 Pr2 1_555 1_555
C21 N14 1_555 1_555
H22 C21 1_555 1_555
C22 H23 1_555 1_555
C23 N15 1_555 1_555
H24 C23 1_555 1_555
N22 Pr3 1_555 1_555
C24 N15 1_555 1_555
H25 C24 1_555 1_555
N23 C36 1_555 1_555
C25 N16 1_555 1_555
H26 C25 1_555 1_555
N24 Pr3 1_555 1_555
C26 N17 1_555 1_555
H27 C26 1_555 1_555
N25 C40 1_555 1_555
C27 N17 1_555 1_555
H28 C27 1_555 1_555
N26 Pr3 1_555 1_555
C28 N18 1_555 1_555
H29 C28 1_555 1_555
N27 Pr4 1_555 1_555
C29 N19 1_555 1_555
H30 C29 1_555 1_555
N28 Pr3 1_555 1_555
C30 N19 1_555 1_555
H31 C30 1_555 1_555
N29 H32 1_555 1_555
C31 N20 1_555 1_555
H33 C31 1_555 1_555
N30 Pr4 1_555 1_555
C32 N21 1_555 1_555
H34 C32 1_555 1_555
N31 H35 1_555 1_555
C33 N21 1_555 1_555
H36 C33 1_555 1_555
C34 H37 1_555 1_555
N32 C22 1_555 1_555
H38 N32 1_555 1_555
C35 H39 1_555 1_555
C36 N22 1_555 1_555
H40 C36 1_555 1_555
C37 H41 1_555 1_555
C38 N22 1_555 1_555
H42 C38 1_555 1_555
N33 H43 1_555 1_555
C39 N23 1_555 1_555
H44 C39 1_555 1_555
N34 C55 1_555 1_555
C40 N24 1_555 1_555
H45 C40 1_555 1_555
N35 H46 1_555 1_555
C41 N24 1_555 1_555
H47 C41 1_555 1_555
N36 C58 1_555 1_555
C42 N25 1_555 1_555
H48 C42 1_555 1_555
N37 H49 1_555 1_555
C43 N26 1_555 1_555
H50 C43 1_555 1_555
C44 N26 1_555 1_555
H51 C44 1_555 1_555
C45 N27 1_555 1_555
H52 C45 1_555 1_555
C46 N28 1_555 1_555
H53 C46 1_555 1_555
C47 N28 1_555 1_555
H54 C47 1_555 1_555
C48 N29 1_555 1_555
H55 C48 1_555 1_555
C49 N30 1_555 1_555
H56 C49 1_555 1_555
C50 N30 1_555 1_555
H57 C50 1_555 1_555
C51 N31 1_555 1_555
H58 C51 1_555 1_555
N38 C34 1_555 1_555
C52 C34 1_555 1_555
H59 C52 1_555 1_555
N39 C35 1_555 1_555
H60 N39 1_555 1_555
C53 C37 1_555 1_555
H61 C53 1_555 1_555
N40 C37 1_555 1_555
C54 N33 1_555 1_555
H62 C54 1_555 1_555
C55 N35 1_555 1_555
H63 C55 1_555 1_555
C56 N34 1_555 1_555
H64 C56 1_555 1_555
C57 N35 1_555 1_555
H65 C57 1_555 1_555
C58 N37 1_555 1_555
H66 C58 1_555 1_555
C59 N36 1_555 1_555
H67 C59 1_555 1_555
C60 N37 1_555 1_555
H68 C60 1_555 1_555
Pr2A N4 1_555 1_555
Pr2A_2 N16 1_555 1_555
Pr3A N8 1_555 1_555
Pr3A_2 N23 1_555 1_555
Pr4C N12 1_555 1_555
Pr4B N18 1_555 1_555
Pr4A N25 1_555 1_555
N4A Pr2 1_555 1_555
N8A Pr3 1_555 1_555
N12C Pr4 1_555 1_555
N16A Pr2 1_555 1_555
N18B Pr4 1_555 1_555
N20C Pr4 1_555 1_555
N23A Pr3 1_555 1_555
N25A Pr4 1_555 1_555
C2 C3 1_555 1_555
C5 C6 1_555 1_555
C8 C9 1_555 1_555
C11 C12 1_555 1_555
N14 C19 1_555 1_555
C14 C15 1_555 1_555
C17 C18 1_555 1_555
N20 Pr4C 1_555 1_555
C20 C21 1_555 1_555
C22 C32 1_555 1_555
C24 C25 1_555 1_555
C27 C28 1_555 1_555
N27 C43 1_555 1_555
C30 C31 1_555 1_555
N29 C46 1_555 1_555
N31 C49 1_555 1_555
C33 N32 1_555 1_555
C35 N38 1_555 1_555
C38 C39 1_555 1_555
N33 C53 1_555 1_555
C41 C42 1_555 1_555
C44 C45 1_555 1_555
C47 C48 1_555 1_555
C50 C51 1_555 1_555
C52 N39 1_555 1_555
N40 C54 1_555 1_555
C56 C57 1_555 1_555
C59 C60 1_555 1_555

#END
