
#######################################################################
#
#                 Cambridge Crystallographic Data Centre
#                                CCDC 
#
#######################################################################
#
# If this CIF has been generated from an entry in the Cambridge 
# Structural Database, then it will include bibliographic, chemical, 
# crystal, experimental, refinement or atomic coordinate data resulting 
# from the CCDC's data processing and validation procedures.
#
#######################################################################

data_LOLVAJ
_chemical_formula_moiety         '(C22 H20 Br2 Cl3 Cu2 N4 Se4)n'
_symmetry_cell_setting           tetragonal
_symmetry_space_group_name_H-M   'I 41/a c d'
_symmetry_Int_Tables_number      142
_space_group_name_Hall           '-I 4bd 2c'
loop_
_symmetry_equiv_pos_site_id
_symmetry_equiv_pos_as_xyz
1 x,y,z
2 1/4-y,3/4+x,1/4+z
3 1/4+y,1/4-x,3/4+z
4 1/4+y,3/4+x,3/4-z
5 1/4-y,1/4-x,1/4-z
6 1/2+x,1/2+y,1/2+z
7 3/4-y,1/4+x,3/4+z
8 3/4+y,3/4-x,1/4+z
9 3/4+y,1/4+x,1/4-z
10 1/2+x,y,1/2-z
11 1/2+x,-y,z
12 -x,y,1/2+z
13 x,1/2+y,-z
14 x,1/2-y,1/2+z
15 1/2-x,1/2+y,z
16 1/4+y,1/4+x,1/4+z
17 -x,-y,-z
18 3/4+y,1/4-x,3/4-z
19 3/4-y,3/4+x,1/4-z
20 3/4-y,1/4-x,1/4+z
21 3/4+y,3/4+x,3/4+z
22 1/2-x,1/2-y,1/2-z
23 1/4+y,3/4-x,1/4-z
24 1/4-y,1/4+x,3/4-z
25 1/4-y,3/4-x,3/4+z
26 1/2-x,-y,1/2+z
27 1/2-x,y,-z
28 x,-y,1/2-z
29 -x,1/2-y,z
30 -x,1/2+y,1/2-z
31 1/2+x,1/2-y,-z
32 3/4-y,3/4-x,3/4-z
_cell_length_a                   21.858(3)
_cell_length_b                   21.858(3)
_cell_length_c                   25.131(7)
_cell_angle_alpha                90
_cell_angle_beta                 90
_cell_angle_gamma                90
_cell_volume                     12006.9
loop_
_atom_site_label
_atom_site_type_symbol
_atom_site_fract_x
_atom_site_fract_y
_atom_site_fract_z
_atom_site_U_iso_or_equiv
_atom_site_thermal_displace_type
C11 C 0.2570(12) 1.0394(10) 0.4753(9) 0.0680 Uiso
H9 H 0.2176 1.0610 0.4801 0.0820 Uiso
H10 H 0.2885 1.0613 0.4962 0.0820 Uiso
Cl1 Cl 0.2500 0.9615(3) 0.5000 0.1073 Uani
Cl2 Cl 0.2766(4) 1.0402(4) 0.4103(3) 0.1033 Uani
C11Z C 0.2430(12) 1.0394(10) 0.5247(9) 0.0680 Uiso
H9Z H 0.2824 1.0610 0.5199 0.0820 Uiso
H10Z H 0.2115 1.0613 0.5038 0.0820 Uiso
Cl2Z Cl 0.2234(4) 1.0402(4) 0.5897(3) 0.1033 Uani
Cu1 Cu 0.02536(5) 0.94152(5) 0.47572(4) 0.0267 Uani
Br1 Br -0.08039(4) 0.95232(4) 0.51232(4) 0.0271 Uani
Se1 Se -0.00367(5) 0.80312(4) 0.47466(4) 0.0395 Uani
Se2 Se 0.13698(4) 0.94871(5) 0.40152(4) 0.0374 Uani
N1 N 0.0672(3) 0.8856(3) 0.5283(3) 0.0227 Uani
C1 C 0.0531(4) 0.8260(4) 0.5297(4) 0.0253 Uani
C2 C 0.0768(4) 0.7861(4) 0.5675(4) 0.0343 Uani
H1 H 0.0661 0.7440 0.5671 0.0420 Uiso
C3 C 0.1162(5) 0.8091(4) 0.6057(4) 0.0420 Uani
H2 H 0.1334 0.7829 0.6319 0.0500 Uiso
C4 C 0.1301(4) 0.8712(5) 0.6049(4) 0.0410 Uani
H3 H 0.1570 0.8882 0.6307 0.0490 Uiso
C5 C 0.1049(4) 0.9070(4) 0.5671(3) 0.0310 Uani
H4 H 0.1140 0.9495 0.5676 0.0370 Uiso
N2 N 0.0117(3) 0.9357(3) 0.3954(3) 0.0257 Uani
C6 C 0.0611(4) 0.9390(4) 0.3646(4) 0.0283 Uani
C7 C 0.0542(6) 0.9354(5) 0.3107(4) 0.0523 Uani
H5 H 0.0889 0.9380 0.2881 0.0630 Uiso
C8 C -0.0034(7) 0.9281(5) 0.2891(4) 0.0630 Uani
H6 H -0.0081 0.9258 0.2516 0.0760 Uiso
C9 C -0.0525(5) 0.9241(5) 0.3203(4) 0.0487 Uani
H7 H -0.0922 0.9188 0.3057 0.0580 Uiso
C10 C -0.0437(4) 0.9282(4) 0.3748(4) 0.0357 Uani
H8 H -0.0781 0.9255 0.3978 0.0430 Uiso
Se1BA Se 0.00367(5) 0.69688(4) 0.47466(4) 0.0395 Uani
C1BA C -0.0531(4) 0.6740(4) 0.5297(4) 0.0253 Uani
N1BA N -0.0672(3) 0.6144(3) 0.5283(3) 0.0227 Uani
C5BA C -0.1049(4) 0.5930(4) 0.5671(3) 0.0310 Uani
C4BA C -0.1301(4) 0.6288(5) 0.6049(4) 0.0410 Uani
C3BA C -0.1162(5) 0.6909(4) 0.6057(4) 0.0420 Uani
C2BA C -0.0768(4) 0.7139(4) 0.5675(4) 0.0343 Uani
H1BA H -0.0661 0.7560 0.5671 0.0420 Uiso
H2BA H -0.1334 0.7171 0.6319 0.0500 Uiso
H3BA H -0.1570 0.6118 0.6307 0.0490 Uiso
H4BA H -0.1140 0.5505 0.5676 0.0370 Uiso
Se2C Se 0.19871(5) 0.88698(4) 0.34848(4) 0.0374 Uani
C6C C 0.1890(4) 0.8111(4) 0.3854(4) 0.0283 Uani
N2C N 0.1857(3) 0.7617(3) 0.3546(3) 0.0257 Uani
C10C C 0.1782(4) 0.7063(4) 0.3752(4) 0.0357 Uani
C9C C 0.1741(5) 0.6975(5) 0.4297(4) 0.0487 Uani
C8C C 0.1781(5) 0.7466(7) 0.4609(4) 0.0630 Uani
C7C C 0.1854(5) 0.8042(6) 0.4393(4) 0.0523 Uani
H5C H 0.1880 0.8389 0.4619 0.0630 Uiso
H6C H 0.1758 0.7419 0.4984 0.0760 Uiso
H7C H 0.1688 0.6578 0.4443 0.0580 Uiso
H8C H 0.1755 0.6719 0.3522 0.0430 Uiso
Br1P Br 0.08039(4) 1.04768(4) 0.48768(4) 0.0271 Uani
Cu1P Cu -0.02536(5) 1.05848(5) 0.52428(4) 0.0267 Uani
Cu1BA Cu -0.02536(5) 0.55848(5) 0.47572(4) 0.0267 Uani
Cu1C Cu 0.19152(5) 0.77536(5) 0.27428(4) 0.0267 Uani
N1P N -0.0672(3) 1.1144(3) 0.4717(3) 0.0227 Uani
N2P N -0.0117(3) 1.0643(3) 0.6046(3) 0.0257 Uani
loop_
_atom_site_aniso_label
_atom_site_aniso_U_11
_atom_site_aniso_U_22
_atom_site_aniso_U_33
_atom_site_aniso_U_23
_atom_site_aniso_U_13
_atom_site_aniso_U_12
Cl1 0.078(4) 0.128(5) 0.116(5) 0.000 -0.042(4) 0.000
Cl2 0.077(5) 0.115(7) 0.118(7) -0.002(6) -0.014(5) -0.010(5)
Cl2Z 0.077 0.115 0.118 0.002 -0.014 0.01
Cu1 0.0288(6) 0.0309(6) 0.0204(6) 0.0015(5) 0.0007(5) 0.0017(5)
Br1 0.0279(5) 0.0225(4) 0.0310(5) -0.0026(4) 0.0116(4) 0.0005(4)
Se1 0.0598(7) 0.0230(5) 0.0357(6) 0.0028(5) -0.0161(6) -0.0063(5)
Se2 0.0290(5) 0.0386(6) 0.0446(6) -0.0207(5) 0.0117(5) 0.0021(5)
N1 0.021(4) 0.025(4) 0.022(4) 0.004(3) -0.001(3) 0.006(3)
C1 0.027(5) 0.023(4) 0.026(5) -0.001(4) 0.004(4) 0.002(4)
C2 0.045(6) 0.024(5) 0.034(6) 0.011(4) 0.004(4) 0.003(4)
C3 0.053(7) 0.037(5) 0.036(6) 0.015(5) -0.006(5) 0.008(5)
C4 0.031(5) 0.049(5) 0.043(6) 0.021(5) -0.014(5) -0.012(4)
C5 0.045(6) 0.030(5) 0.018(5) -0.001(4) -0.004(4) -0.007(4)
N2 0.029(4) 0.023(4) 0.025(4) -0.005(3) -0.012(3) 0.001(3)
C6 0.044(5) 0.018(4) 0.023(4) 0.002(4) 0.010(4) 0.002(4)
C7 0.072(6) 0.057(7) 0.028(5) -0.009(6) 0.008(5) 0.003(6)
C8 0.090(7) 0.071(8) 0.028(6) -0.013(6) -0.007(5) 0.022(8)
C9 0.054(6) 0.068(8) 0.024(5) -0.011(6) -0.022(5) 0.009(6)
C10 0.033(5) 0.050(6) 0.024(5) -0.005(5) -0.003(4) 0.003(5)
Se1BA 0.0598 0.023 0.0357 -0.0028 0.0161 -0.0063
C1BA 0.027 0.023 0.026 0.001 -0.004 0.002
N1BA 0.021 0.025 0.022 -0.004 0.001 0.006
C5BA 0.045 0.03 0.018 0.001 0.004 -0.007
C4BA 0.031 0.049 0.043 -0.021 0.014 -0.012
C3BA 0.053 0.037 0.036 -0.015 0.006 0.008
C2BA 0.045 0.024 0.034 -0.011 -0.004 0.003
Se2C 0.0386 0.029 0.0446 -0.0117 0.0207 0.0021
C6C 0.018 0.044 0.023 -0.01 -0.002 0.002
N2C 0.023 0.029 0.025 0.012 0.005 0.001
C10C 0.05 0.033 0.024 0.003 0.005 0.003
C9C 0.068 0.054 0.024 0.022 0.011 0.009
C8C 0.071 0.09 0.028 0.007 0.013 0.022
C7C 0.057 0.072 0.028 -0.008 0.009 0.003
Br1P 0.0279 0.0225 0.031 -0.0026 0.0116 0.0005
Cu1P 0.0288 0.0309 0.0204 0.0015 0.0007 0.0017
Cu1BA 0.0288 0.0309 0.0204 -0.0015 -0.0007 0.0017
Cu1C 0.0309 0.0288 0.0204 -0.0007 -0.0015 0.0017
N1P 0.021 0.025 0.022 0.004 -0.001 0.006
N2P 0.029 0.023 0.025 -0.005 -0.012 0.001
loop_
_geom_bond_atom_site_label_1
_geom_bond_atom_site_label_2
_geom_bond_site_symmetry_1
_geom_bond_site_symmetry_2
Cu1 Br1 1_555 1_555
Br1 Cu1P 1_555 1_555
Se1 C1 1_555 1_555
Se2 C6 1_555 1_555
N1 Cu1 1_555 1_555
C1 N1 1_555 1_555
C2 C1 1_555 1_555
H1 C2 1_555 1_555
C3 C2 1_555 1_555
H2 C3 1_555 1_555
C4 C3 1_555 1_555
H3 C4 1_555 1_555
C5 N1 1_555 1_555
H4 C5 1_555 1_555
N2 Cu1 1_555 1_555
C6 N2 1_555 1_555
C7 C6 1_555 1_555
H5 C7 1_555 1_555
C8 C7 1_555 1_555
H6 C8 1_555 1_555
C9 C8 1_555 1_555
H7 C9 1_555 1_555
C10 N2 1_555 1_555
H8 C10 1_555 1_555
C11 H9 1_555 1_555
H9 C11Z 1_555 1_555
H10 C11 1_555 1_555
Cl1 C11 1_555 1_555
Cl2 C11 1_555 1_555
Se1BA Se1 1_555 1_555
C1BA Se1BA 1_555 1_555
N1BA C1BA 1_555 1_555
C5BA N1BA 1_555 1_555
C4BA C5BA 1_555 1_555
C3BA C4BA 1_555 1_555
C2BA C1BA 1_555 1_555
H1BA C2BA 1_555 1_555
H2BA C3BA 1_555 1_555
H3BA C4BA 1_555 1_555
H4BA C5BA 1_555 1_555
Se2C Se2 1_555 1_555
C6C Se2C 1_555 1_555
N2C C6C 1_555 1_555
C10C N2C 1_555 1_555
C9C C10C 1_555 1_555
C8C C9C 1_555 1_555
C7C C6C 1_555 1_555
H5C C7C 1_555 1_555
H6C C8C 1_555 1_555
H7C C9C 1_555 1_555
H8C C10C 1_555 1_555
C11Z C11 1_555 1_555
H9Z C11 1_555 1_555
H10Z C11 1_555 1_555
Cl2Z C11Z 1_555 1_555
Br1P Cu1 1_555 1_555
Cu1P Br1P 1_555 1_555
Cu1BA N1BA 1_555 1_555
Cu1C N2C 1_555 1_555
N1P Cu1P 1_555 1_555
N2P Cu1P 1_555 1_555
C4 C5 1_555 1_555
C9 C10 1_555 1_555
H9 H10Z 1_555 1_555
H10 C11Z 1_555 1_555
H10 H9Z 1_555 1_555
Cl1 C11Z 1_555 1_555
C3BA C2BA 1_555 1_555
C8C C7C 1_555 1_555
C11Z H9Z 1_555 1_555
C11Z H10Z 1_555 1_555

#END
