
#######################################################################
#
#                 Cambridge Crystallographic Data Centre
#                                CCDC 
#
#######################################################################
#
# If this CIF has been generated from an entry in the Cambridge 
# Structural Database, then it will include bibliographic, chemical, 
# crystal, experimental, refinement or atomic coordinate data resulting 
# from the CCDC's data processing and validation procedures.
#
#######################################################################

data_LORNEL
_chemical_formula_moiety         'C4 Cd1 N2'
_symmetry_cell_setting           rhombohedral
_symmetry_space_group_name_H-M   'R -3 m'
_symmetry_Int_Tables_number      166
_space_group_name_Hall           '-R 3 2"'
loop_
_symmetry_equiv_pos_site_id
_symmetry_equiv_pos_as_xyz
1 x,y,z
2 -y,x-y,z
3 -x+y,-x,z
4 x,x-y,z
5 -x+y,y,z
6 2/3+x,1/3+y,1/3+z
7 2/3-y,1/3+x-y,1/3+z
8 2/3-x+y,1/3-x,1/3+z
9 2/3-y,1/3-x,1/3+z
10 2/3+x,1/3+x-y,1/3+z
11 2/3-x+y,1/3+y,1/3+z
12 1/3+x,2/3+y,2/3+z
13 1/3+x,2/3+x-y,2/3+z
14 1/3-x+y,2/3+y,2/3+z
15 y,x,-z
16 2/3+y,1/3-x+y,1/3-z
17 2/3+x-y,1/3+x,1/3-z
18 2/3+y,1/3+x,1/3-z
19 -x,-y,-z
20 y,-x+y,-z
21 x-y,x,-z
22 -x,-x+y,-z
23 x-y,-y,-z
24 1/3-x,2/3-y,2/3-z
25 1/3+y,2/3-x+y,2/3-z
26 1/3+x-y,2/3+x,2/3-z
27 1/3+y,2/3+x,2/3-z
28 1/3-x,2/3-x+y,2/3-z
29 1/3+x-y,2/3-y,2/3-z
30 2/3-x,1/3-y,1/3-z
31 2/3-x,1/3-x+y,1/3-z
32 2/3+x-y,1/3-y,1/3-z
33 -y,-x,z
34 1/3-y,2/3+x-y,2/3+z
35 1/3-x+y,2/3-x,2/3+z
36 1/3-y,2/3-x,2/3+z
_cell_length_a                   8.953(4)
_cell_length_b                   8.953(4)
_cell_length_c                   21.929(6)
_cell_angle_alpha                90
_cell_angle_beta                 90
_cell_angle_gamma                120.00
_cell_volume                     1522.25
loop_
_atom_site_label
_atom_site_type_symbol
_atom_site_fract_x
_atom_site_fract_y
_atom_site_fract_z
_atom_site_U_iso_or_equiv
_atom_site_thermal_displace_type
Cd1 Cd 0.0000 0.0000 0.37498(5) 0.1391 Uani
N1 N -0.0000 0.0000 0.4761(4) 0.1001 Uani
C2 C 0.1338(8) -0.1338(8) 0.3411(5) 0.1598 Uani
C2A C 0.1338(8) 0.2676(11) 0.3411(5) 0.1598 Uani
C2B C -0.2676(11) -0.1338(8) 0.3411(5) 0.1598 Uani
N1N N -0.0000 0.0000 0.5239(4) 0.1001 Uani
C2W C 0.1995(8) -0.1995(8) 0.3256(5) 0.1598 Uani
loop_
_atom_site_aniso_label
_atom_site_aniso_U_11
_atom_site_aniso_U_22
_atom_site_aniso_U_33
_atom_site_aniso_U_23
_atom_site_aniso_U_13
_atom_site_aniso_U_12
Cd1 0.1414(6) 0.1414(6) 0.1346(8) 0.000 0.000 0.0707(3)
N1 0.105(4) 0.105(4) 0.091(7) 0.000 0.000 0.053(2)
C2 0.136 0.136 0.13 0.02 -0.02 0.01
C2A 0.136 0.252 0.13 -0.04 -0.02 0.126
C2B 0.252 0.136 0.13 0.02 0.04 0.126
N1N 0.105 0.105 0.091 0 0 0.053
C2W 0.136 0.136 0.13 0.02 -0.02 0.01
loop_
_geom_bond_atom_site_label_1
_geom_bond_atom_site_label_2
_geom_bond_site_symmetry_1
_geom_bond_site_symmetry_2
Cd1 N1 1_555 1_555
N1 N1N 1_555 1_555
C2 Cd1 1_555 1_555
C2A Cd1 1_555 1_555
C2B Cd1 1_555 1_555
C2W C2 1_555 1_555

#END
