
#######################################################################
#
#                 Cambridge Crystallographic Data Centre
#                                CCDC 
#
#######################################################################
#
# If this CIF has been generated from an entry in the Cambridge 
# Structural Database, then it will include bibliographic, chemical, 
# crystal, experimental, refinement or atomic coordinate data resulting 
# from the CCDC's data processing and validation procedures.
#
#######################################################################

data_LUPHIN
_chemical_formula_moiety         '(C4 H32 F4 Fe8 N2 O42 P8 2-)n'
_symmetry_cell_setting           monoclinic
_symmetry_space_group_name_H-M   'P 21/n'
_symmetry_Int_Tables_number      14
_space_group_name_Hall           '-P 2yn'
loop_
_symmetry_equiv_pos_site_id
_symmetry_equiv_pos_as_xyz
1 x,y,z
2 1/2-x,1/2+y,1/2-z
3 -x,-y,-z
4 1/2+x,1/2-y,1/2+z
_cell_length_a                   9.9045(3)
_cell_length_b                   12.3011(3)
_cell_length_c                   17.3220(4)
_cell_angle_alpha                90
_cell_angle_beta                 103.701(1)
_cell_angle_gamma                90
_cell_volume                     2050.39
loop_
_atom_site_label
_atom_site_type_symbol
_atom_site_fract_x
_atom_site_fract_y
_atom_site_fract_z
Fe1 Fe 0.7556(1) 0.5773(1) 0.2213(1)
Fe2 Fe 0.5625(1) 0.5258(1) 0.3708(1)
Fe3 Fe 0.8675(1) 0.3526(1) -0.0753(1)
Fe4 Fe 1.0309(1) 0.3896(1) 0.2907(1)
P1 P 0.3001(2) 0.4142(2) 0.4406(1)
P2 P 0.7793(2) 0.8449(2) 0.2042(1)
P3 P 0.4378(2) 0.6246(2) 0.1920(1)
P4 P 0.9143(2) 0.4577(2) 0.1062(1)
O1 O 0.5712(5) 0.6172(4) 0.1625(3)
O2 O 0.8272(5) 0.7290(4) 0.2316(3)
F1 F 0.7145(4) 0.5938(3) 0.3280(2)
F2 F 0.9496(4) 0.5386(3) 0.2788(2)
O3 O 0.8107(5) 0.5465(4) 0.1196(3)
O4 O 0.8094(5) 0.9232(4) 0.2755(3)
O5 O 0.4007(5) 0.4608(4) 0.3958(3)
O6 O 0.3160(5) 0.4706(4) 0.5208(3)
O7 O 0.8642(5) 0.8797(4) 0.1438(3)
O8 O 0.4435(5) 0.5471(4) 0.2621(3)
O9 O 0.5022(6) 0.6831(4) 0.3927(3)
O10 O 0.8536(5) 0.3994(4) 0.0288(3)
O11 O 0.3285(5) 0.2927(4) 0.4553(3)
O12 O 1.0517(5) 0.5123(4) 0.1029(3)
O13 O 0.3173(5) 0.5890(4) 0.1224(3)
O14 O 1.0768(6) 0.2913(4) -0.0528(3)
O15 O 0.8722(6) 0.2917(4) -0.1935(3)
O16 O 0.4082(5) 0.7400(4) 0.2156(3)
O17 O 0.1506(5) 0.4301(4) 0.3930(3)
O18 O 0.6241(5) 0.8480(4) 0.1633(3)
O19 O 0.9425(5) 0.3753(4) 0.1741(3)
O20 O 1.2007(5) 0.4363(5) 0.2447(3)
P2A P 0.7207(2) 0.3449(2) 0.2958(1)
O2A O 0.6728(5) 0.2290(4) 0.2684(3)
O4A O 0.6906(5) 0.4232(4) 0.2245(3)
O7A O 0.6358(5) 0.3797(4) 0.3562(3)
O18A O 0.8759(5) 0.3480(4) 0.3367(3)
Fe1A Fe 0.7444(1) 0.0773(1) 0.2787(1)
Fe2A Fe 0.9375(1) 1.0258(1) 0.1292(1)
Fe3B Fe 1.1325(1) 0.6474(1) 0.0753(1)
Fe4A Fe 0.4691(1) 0.8896(1) 0.2093(1)
P1B P 0.6999(2) 0.5858(2) 0.5594(1)
O5B O 0.5993(5) 0.5392(4) 0.6042(3)
O6B O 0.6840(5) 0.5294(4) 0.4792(3)
O11B O 0.6715(5) 0.7073(4) 0.5447(3)
O17B O 0.8494(5) 0.5699(4) 0.6070(3)
P4B P 1.0857(2) 0.5423(2) -0.1062(1)
O3B O 1.1893(5) 0.4535(4) -0.1196(3)
O10B O 1.1464(5) 0.6006(4) -0.0288(3)
O12B O 0.9483(5) 0.4877(4) -0.1029(3)
O19B O 1.0575(5) 0.6247(4) -0.1741(3)
P3B P 0.5622(2) 0.3754(2) -0.1920(1)
O1B O 0.4288(5) 0.3828(4) -0.1625(3)
O8B O 0.5565(5) 0.4529(4) -0.2621(3)
O13B O 0.6827(5) 0.4110(4) -0.1224(3)
O16B O 0.5918(5) 0.2600(4) -0.2156(3)
F1A F 0.7855(4) 0.0938(3) 0.1720(2)
F2A F 0.5504(4) 0.0386(3) 0.2212(2)
O9A O 0.9978(6) 1.1831(4) 0.1073(3)
O14B O 0.9232(6) 0.7087(4) 0.0528(3)
O15B O 1.1278(6) 0.7083(4) 0.1935(3)
O20A O 0.2993(5) 0.9363(5) 0.2553(3)
O11C O 0.8285(5) 0.2073(4) -0.0447(3)
O16A O 1.0918(5) 0.2400(4) 0.2844(3)
O17_2 O 1.1506(5) 0.4301(4) 0.3930(3)
Fe1A_2 Fe 0.7444(1) 1.0773(1) 0.2787(1)
Fe2B Fe 0.4375(1) 0.4742(1) 0.6292(1)
Fe3C Fe 0.3675(1) 0.1474(1) 0.4247(1)
Fe3B_2 Fe 0.1325(1) 0.6474(1) 0.0753(1)
Fe4_2 Fe 0.0309(1) 0.3896(1) 0.2907(1)
O1A O 0.9288(5) 0.1172(4) 0.3375(3)
O3A O 0.6893(5) 0.0465(4) 0.3804(3)
O4_2 O 0.8094(5) -0.0768(4) 0.2755(3)
F1A_2 F 0.7855(4) 1.0938(3) 0.1720(2)
O5A O 1.0993(5) 0.9608(4) 0.1042(3)
O6C O 0.8160(5) 1.0294(4) 0.0208(3)
O8A O 1.0565(5) 1.0471(4) 0.2379(3)
O11A O 1.1715(5) 0.7927(4) 0.0447(3)
O13_2 O 1.3173(5) 0.5890(4) 0.1224(3)
F2A_2 F 0.5504(4) 1.0386(3) 0.2212(2)
O17A O 0.3494(5) 0.9301(4) 0.1070(3)
O19A O 0.5575(5) 0.8753(4) 0.3259(3)
Fe3A Fe 0.6325(1) 0.8526(1) 0.5753(1)
Fe4B Fe 0.9691(1) 0.6104(1) 0.7093(1)
Fe1B Fe 1.2444(1) 0.4227(1) -0.2213(1)
Fe4B_2 Fe 0.9691(1) 0.6104(1) -0.2907(1)
Fe1B_2 Fe 0.2444(1) 0.4227(1) -0.2213(1)
Fe2B_2 Fe 0.4375(1) 0.4742(1) -0.3708(1)
Fe4C Fe 0.5309(1) 0.1104(1) -0.2093(1)
Fe2A_2 Fe 0.9375(1) 0.0258(1) 0.1292(1)
Fe4A_2 Fe 0.4691(1) -0.1104(1) 0.2093(1)
N1 N 1.4831(19) 0.8118(15) -0.0898(10)
C1 C 1.4488(12) 0.7479(9) -0.0284(6)
C2 C 1.4865(13) 0.6281(10) -0.0361(7)
N3 N 1.5472(19) 0.6199(14) -0.1016(10)
C3 C 1.6610(11) 0.6829(9) -0.1082(6)
C4 C 1.6409(12) 0.8013(9) -0.0948(6)
O21 O 1.5491(13) 0.9766(11) 0.0220(8)
O21B O 1.4509(13) 1.0234(11) -0.0220(8)
loop_
_geom_bond_atom_site_label_1
_geom_bond_atom_site_label_2
_geom_bond_site_symmetry_1
_geom_bond_site_symmetry_2
Fe1 O1 1_555 1_555
Fe2 F1 1_555 1_555
Fe3 O10 1_555 1_555
Fe4 F2 1_555 1_555
P1 O5 1_555 1_555
P2 O2 1_555 1_555
P3 O1 1_555 1_555
P4 O3 1_555 1_555
O2 Fe1 1_555 1_555
F1 Fe1 1_555 1_555
F2 Fe1 1_555 1_555
O3 Fe1 1_555 1_555
O4 P2 1_555 1_555
O5 Fe2 1_555 1_555
O6 P1 1_555 1_555
O7 P2 1_555 1_555
O8 Fe2 1_555 1_555
O9 Fe2 1_555 1_555
O10 P4 1_555 1_555
O11 P1 1_555 1_555
O12 P4 1_555 1_555
O13 P3 1_555 1_555
O14 Fe3 1_555 1_555
O15 Fe3 1_555 1_555
O16 P3 1_555 1_555
O17 P1 1_555 1_555
O18 P2 1_555 1_555
O19 Fe4 1_555 1_555
O20 Fe4 1_555 1_555
N1 C1 1_555 1_555
C1 C2 1_555 1_555
C2 N3 1_555 1_555
N3 C3 1_555 1_555
C3 C4 1_555 1_555
C4 N1 1_555 1_555
P2A O2A 1_555 1_555
O2A Fe1A 1_555 1_555
O4A Fe1 1_555 1_555
O7A Fe2 1_555 1_555
O18A Fe4 1_555 1_555
Fe1A F1A 1_555 1_555
Fe2A O7 1_555 1_555
Fe3B O12 1_555 1_555
Fe4A O16 1_555 1_555
P1B O5B 1_555 1_555
O5B Fe2B 1_555 1_555
O6B Fe2 1_555 1_555
O11B P1B 1_555 1_555
O17B P1B 1_555 1_555
P4B O3B 1_555 1_555
O3B Fe1B 1_555 1_555
O10B Fe3B 1_555 1_555
O12B Fe3 1_555 1_555
O19B P4B 1_555 1_555
P3B O1B 1_555 1_555
O1B Fe1B_2 1_555 1_555
O8B P3B 1_555 1_555
O13B Fe3 1_555 1_555
O16B P3B 1_555 1_555
F1A Fe2A_2 1_555 1_555
F2A Fe1A 1_555 1_555
O9A Fe2A 1_555 1_555
O14B Fe3B 1_555 1_555
O15B Fe3B 1_555 1_555
O20A Fe4A 1_555 1_555
O11C Fe3 1_555 1_555
O16A Fe4 1_555 1_555
O17_2 Fe4 1_555 1_555
Fe1A_2 O4 1_555 1_555
Fe2B O6 1_555 1_555
Fe3C O11 1_555 1_555
Fe3B_2 O13 1_555 1_555
Fe4_2 O17 1_555 1_555
O1A Fe1A 1_555 1_555
O3A Fe1A 1_555 1_555
O4_2 Fe1A 1_555 1_555
F1A_2 Fe2A 1_555 1_555
O5A Fe2A 1_555 1_555
O6C Fe2A 1_555 1_555
O8A Fe2A 1_555 1_555
O11A Fe3B 1_555 1_555
O13_2 Fe3B 1_555 1_555
F2A_2 Fe4A 1_555 1_555
O17A Fe4A 1_555 1_555
O19A Fe4A 1_555 1_555
Fe3A O11B 1_555 1_555
Fe4B O17B 1_555 1_555
Fe4B_2 O19B 1_555 1_555
Fe2B_2 O8B 1_555 1_555
Fe4C O16B 1_555 1_555
Fe4A_2 F2A 1_555 1_555
P3 O8 1_555 1_555
P4 O19 1_555 1_555
O18 Fe4A 1_555 1_555
P2A O4A 1_555 1_555
P2A O7A 1_555 1_555
P2A O18A 1_555 1_555
P1B O6B 1_555 1_555
P4B O10B 1_555 1_555
P4B O12B 1_555 1_555
P3B O13B 1_555 1_555
Fe1A_2 F1A_2 1_555 1_555
Fe1A_2 F2A_2 1_555 1_555

#END
