
#######################################################################
#
#                 Cambridge Crystallographic Data Centre
#                                CCDC 
#
#######################################################################
#
# If this CIF has been generated from an entry in the Cambridge 
# Structural Database, then it will include bibliographic, chemical, 
# crystal, experimental, refinement or atomic coordinate data resulting 
# from the CCDC's data processing and validation procedures.
#
#######################################################################

data_LUZBOY
_chemical_formula_moiety         'C26 Mn8 N24'
_symmetry_cell_setting           orthorhombic
_symmetry_space_group_name_H-M   'C m m m'
_symmetry_Int_Tables_number      65
_space_group_name_Hall           '-C 2 2'
loop_
_symmetry_equiv_pos_site_id
_symmetry_equiv_pos_as_xyz
1 x,y,z
2 -x,-y,z
3 x,-y,-z
4 -x,y,-z
5 1/2+x,1/2+y,z
6 1/2-x,1/2-y,z
7 1/2+x,1/2-y,-z
8 1/2-x,1/2+y,-z
9 -x,-y,-z
10 x,y,-z
11 -x,y,z
12 x,-y,z
13 1/2-x,1/2-y,-z
14 1/2+x,1/2+y,-z
15 1/2-x,1/2+y,z
16 1/2+x,1/2-y,z
_cell_length_a                   14.43168(69)
_cell_length_b                   17.56154(98)
_cell_length_c                   7.48636(45)
_cell_angle_alpha                90
_cell_angle_beta                 90
_cell_angle_gamma                90
_cell_volume                     1897.36
loop_
_atom_site_label
_atom_site_type_symbol
_atom_site_fract_x
_atom_site_fract_y
_atom_site_fract_z
_atom_site_U_iso_or_equiv
_atom_site_thermal_displace_type
Mn1 Mn 0.25000 0.75000 0.5000 0.0285 Uiso
N1 N 0.14434(53) 0.77077(53) 0.2860(11) 0.0285 Uiso
C1 C 0.05127(79) 0.77448(79) 0.0000 0.0285 Uiso
C2 C 0.10339(64) 0.77530(62) 0.1684(16) 0.0285 Uiso
N2 N 0.28466(76) 0.87251(65) 0.5000 0.0285 Uiso
C3 C 0.4760(19) 1.00000 0.4332(28) 0.0285 Uiso
C4 C 0.3628(14) 1.00000 0.5000 0.0285 Uiso
N3 N 0.50000 0.87256(64) 0.2052(15) 0.0285 Uiso
C5 C 0.31845(97) 0.9286(10) 0.5000 0.0285 Uiso
C6 C 0.50000 0.93027(85) 0.3061(17) 0.0285 Uiso
Mn1C Mn -0.25000 0.75000 -0.5000 0.0285 Uiso
Mn1C_2 Mn -0.25000 0.75000 0.5000 0.0285 Uiso
Mn1_2 Mn 0.25000 0.75000 -0.5000 0.0285 Uiso
Mn1B Mn 0.25000 1.25000 0.5000 0.0285 Uiso
Mn1C_3 Mn 0.75000 0.75000 0.5000 0.0285 Uiso
Mn1A Mn 0.75000 1.25000 0.5000 0.0285 Uiso
Mn1C_4 Mn 0.75000 0.75000 -0.5000 0.0285 Uiso
N1C N -0.14434(53) 0.77077(53) -0.2860(11) 0.0285 Uiso
N1J N -0.14434(53) 0.77077(53) 0.2860(11) 0.0285 Uiso
N1I N 0.14434(53) 0.77077(53) -0.2860(11) 0.0285 Uiso
N1E N 0.35566(53) 0.72923(53) 0.2860(11) 0.0285 Uiso
N1F N 0.64434(53) 0.72923(53) -0.2860(11) 0.0285 Uiso
N1O N 0.64434(53) 0.72923(53) 0.2860(11) 0.0285 Uiso
N1L N 0.35566(53) 0.72923(53) -0.2860(11) 0.0285 Uiso
N1I_2 N 0.14434(53) 0.77077(53) 0.7140(11) 0.0285 Uiso
N1L_2 N 0.35566(53) 0.72923(53) 0.7140(11) 0.0285 Uiso
N1F_2 N -0.35566(53) 0.72923(53) -0.2860(11) 0.0285 Uiso
N1J_2 N -0.14434(53) 0.77077(53) -0.7140(11) 0.0285 Uiso
N1O_2 N -0.35566(53) 0.72923(53) -0.7140(11) 0.0285 Uiso
C1C C -0.05127(79) 0.77448(79) 0.0000 0.0285 Uiso
C1E C 0.44873(79) 0.72552(79) 0.0000 0.0285 Uiso
C1F C 0.55127(79) 0.72552(79) 0.0000 0.0285 Uiso
C2C C -0.10339(64) 0.77530(62) -0.1684(16) 0.0285 Uiso
C2J C -0.10339(64) 0.77530(62) 0.1684(16) 0.0285 Uiso
C2I C 0.10339(64) 0.77530(62) -0.1684(16) 0.0285 Uiso
C2E C 0.39661(64) 0.72470(62) 0.1684(16) 0.0285 Uiso
C2F C 0.60339(64) 0.72470(62) -0.1684(16) 0.0285 Uiso
C2O C 0.60339(64) 0.72470(62) 0.1684(16) 0.0285 Uiso
C2L C 0.39661(64) 0.72470(62) -0.1684(16) 0.0285 Uiso
N2B N 0.28466(76) 1.12749(65) 0.5000 0.0285 Uiso
N2C N 0.71534(76) 0.87251(65) 0.5000 0.0285 Uiso
N2A N 0.71534(76) 1.12749(65) 0.5000 0.0285 Uiso
N2E N 0.21534(76) 0.62749(65) 0.5000 0.0285 Uiso
N2C_2 N -0.28466(76) 0.87251(65) -0.5000 0.0285 Uiso
N2F N -0.21534(76) 0.62749(65) -0.5000 0.0285 Uiso
C3A C 0.5240(19) 1.00000 0.4332(28) 0.0285 Uiso
C3C C 0.5240(19) 1.00000 0.5668(28) 0.0285 Uiso
C3B C 0.4760(19) 1.00000 0.5668(28) 0.0285 Uiso
C4A C 0.6372(14) 1.00000 0.5000 0.0285 Uiso
N3C N 0.50000 0.87256(64) 0.7948(15) 0.0285 Uiso
N3B N 0.50000 1.12744(64) 0.7948(15) 0.0285 Uiso
N3A N 0.50000 1.12744(64) 0.2052(15) 0.0285 Uiso
C5B C 0.31845(97) 1.0714(10) 0.5000 0.0285 Uiso
C5C C 0.68155(97) 0.9286(10) 0.5000 0.0285 Uiso
C5A C 0.68155(97) 1.0714(10) 0.5000 0.0285 Uiso
C6B C 0.50000 1.06973(85) 0.6939(17) 0.0285 Uiso
C6C C 0.50000 0.93027(85) 0.6939(17) 0.0285 Uiso
C6A C 0.50000 1.06973(85) 0.3061(17) 0.0285 Uiso
loop_
_geom_bond_atom_site_label_1
_geom_bond_atom_site_label_2
_geom_bond_site_symmetry_1
_geom_bond_site_symmetry_2
Mn1 N1 1_555 1_555
N1 C2 1_555 1_555
C1 C2 1_555 1_555
N2 Mn1 1_555 1_555
C3 C4 1_555 1_555
C4 C5 1_555 1_555
N3 C6 1_555 1_555
C5 N2 1_555 1_555
C6 C3 1_555 1_555
Mn1C N1C 1_555 1_555
Mn1C_2 N1J 1_555 1_555
Mn1_2 N1I 1_555 1_555
Mn1B N2B 1_555 1_555
Mn1C_3 N1O 1_555 1_555
Mn1A N2A 1_555 1_555
Mn1C_4 N1F 1_555 1_555
N1C C2C 1_555 1_555
N1J C2J 1_555 1_555
N1I C2I 1_555 1_555
N1E Mn1 1_555 1_555
N1F C2F 1_555 1_555
N1O C2O 1_555 1_555
N1L Mn1_2 1_555 1_555
N1I_2 Mn1 1_555 1_555
N1L_2 Mn1 1_555 1_555
N1F_2 Mn1C 1_555 1_555
N1J_2 Mn1C 1_555 1_555
N1O_2 Mn1C 1_555 1_555
C1C C1 1_555 1_555
C1E C1F 1_555 1_555
C1F C2F 1_555 1_555
C2C C1C 1_555 1_555
C2J C1C 1_555 1_555
C2I C1 1_555 1_555
C2E N1E 1_555 1_555
C2O C1F 1_555 1_555
C2L N1L 1_555 1_555
N2B C5B 1_555 1_555
N2C Mn1C_3 1_555 1_555
N2A C5A 1_555 1_555
N2E Mn1 1_555 1_555
N2C_2 Mn1C 1_555 1_555
N2F Mn1C 1_555 1_555
C3A C3 1_555 1_555
C3C C3 1_555 1_555
C3B C3 1_555 1_555
C4A C3A 1_555 1_555
N3C C6C 1_555 1_555
N3B C6B 1_555 1_555
N3A C6A 1_555 1_555
C5B C4 1_555 1_555
C5C N2C 1_555 1_555
C5A C4A 1_555 1_555
C6B C3C 1_555 1_555
C6C C3C 1_555 1_555
C6A C3 1_555 1_555
C4 C3B 1_555 1_555
C6 C3A 1_555 1_555
C1E C2E 1_555 1_555
C1E C2L 1_555 1_555
C3A C3C 1_555 1_555
C3A C3B 1_555 1_555
C3A C6A 1_555 1_555
C3C C3B 1_555 1_555
C3C C4A 1_555 1_555
C3B C6B 1_555 1_555
C3B C6C 1_555 1_555
C4A C5C 1_555 1_555

#END
