
#######################################################################
#
#                 Cambridge Crystallographic Data Centre
#                                CCDC 
#
#######################################################################
#
# If this CIF has been generated from an entry in the Cambridge 
# Structural Database, then it will include bibliographic, chemical, 
# crystal, experimental, refinement or atomic coordinate data resulting 
# from the CCDC's data processing and validation procedures.
#
#######################################################################

data_MAGVOG01
_chemical_formula_moiety         '(C8 H32 Ag4 N11 O9 1+)n'
_symmetry_cell_setting           monoclinic
_symmetry_space_group_name_H-M   'C 2/c'
_symmetry_Int_Tables_number      15
_space_group_name_Hall           '-C 2yc'
loop_
_symmetry_equiv_pos_site_id
_symmetry_equiv_pos_as_xyz
1 x,y,z
2 1/2+x,1/2+y,z
3 -x,y,1/2-z
4 1/2-x,1/2+y,1/2-z
5 -x,-y,-z
6 1/2-x,1/2-y,-z
7 x,-y,1/2+z
8 1/2+x,1/2-y,1/2+z
_cell_length_a                   19.202(16)
_cell_length_b                   21.012(18)
_cell_length_c                   6.277(5)
_cell_angle_alpha                90
_cell_angle_beta                 101.011(11)
_cell_angle_gamma                90
_cell_volume                     2485.97
loop_
_atom_site_label
_atom_site_type_symbol
_atom_site_fract_x
_atom_site_fract_y
_atom_site_fract_z
_atom_site_U_iso_or_equiv
_atom_site_thermal_displace_type
Ag1 Ag 0.5000 1.0000 0.0000 0.0300 Uani
Ag2 Ag 0.7500 0.7500 0.5000 0.0317 Uani
N1 N 0.5942(2) 0.9453(2) 0.0712(8) 0.0335 Uani
H1 H 0.6022 0.9274 -0.0522 0.0400 Uiso
H2 H 0.6309 0.9712 0.1220 0.0400 Uiso
N2 N 0.6576(2) 0.8055(2) 0.4341(10) 0.0398 Uani
H3 H 0.6203 0.7796 0.3901 0.0480 Uiso
H4 H 0.6514 0.8243 0.5580 0.0480 Uiso
C1 C 0.5911(3) 0.8954(3) 0.2298(11) 0.0313 Uani
H5 H 0.5503 0.8684 0.1790 0.0370 Uiso
H6 H 0.5852 0.9145 0.3659 0.0370 Uiso
C2 C 0.6576(3) 0.8555(3) 0.2670(10) 0.0320 Uani
H7 H 0.6625 0.8354 0.1314 0.0380 Uiso
H8 H 0.6984 0.8829 0.3117 0.0380 Uiso
Ag2A Ag 0.2500 1.2500 -0.5000 0.0317 Uani
N1D N 0.4058(2) 1.0547(2) -0.0712(8) 0.0335 Uani
H1D H 0.3978 1.0726 0.0522 0.0400 Uiso
H2D H 0.3691 1.0288 -0.1220 0.0400 Uiso
N2D N 0.3424(2) 1.1945(2) -0.4341(10) 0.0398 Uani
N2E N 0.8424(2) 0.6945(2) 0.5659(10) 0.0398 Uani
H3D H 0.3797 1.2204 -0.3901 0.0480 Uiso
H3E H 0.8797 0.7204 0.6099 0.0480 Uiso
H4D H 0.3486 1.1757 -0.5580 0.0480 Uiso
H4E H 0.8486 0.6757 0.4420 0.0480 Uiso
C1D C 0.4089(3) 1.1046(3) -0.2298(11) 0.0313 Uani
H5D H 0.4497 1.1316 -0.1790 0.0370 Uiso
H6D H 0.4148 1.0855 -0.3659 0.0370 Uiso
C2D C 0.3424(3) 1.1445(3) -0.2670(10) 0.0320 Uani
H7D H 0.3375 1.1646 -0.1314 0.0380 Uiso
H8D H 0.3016 1.1171 -0.3117 0.0380 Uiso
Ag3 Ag 0.7500 0.7500 0.0000 0.0314 Uani
Ag4 Ag 1.0000 1.0000 0.5000 0.0328 Uani
N3 N 0.8441(2) 0.8051(2) 0.0694(10) 0.0396 Uani
H9 H 0.8810 0.7791 0.1185 0.0480 Uiso
H10 H 0.8517 0.8230 -0.0545 0.0480 Uiso
N4 N 0.9073(3) 0.9444(3) 0.4360(8) 0.0398 Uani
H11 H 0.9011 0.9259 0.5603 0.0480 Uiso
H12 H 0.8699 0.9701 0.3909 0.0480 Uiso
C3 C 0.8424(3) 0.8549(3) 0.2281(11) 0.0338 Uani
H13 H 0.8358 0.8357 0.3634 0.0410 Uiso
H14 H 0.8021 0.8824 0.1774 0.0410 Uiso
C4 C 0.9082(3) 0.8940(3) 0.2693(11) 0.0333 Uani
H15 H 0.9143 0.9139 0.1345 0.0400 Uiso
H16 H 0.9487 0.8664 0.3170 0.0400 Uiso
Ag4A Ag 0.5000 0.5000 -0.5000 0.0328 Uani
N3E N 0.6559(2) 0.6949(2) -0.0694(10) 0.0396 Uani
H9E H 0.6190 0.7209 -0.1185 0.0480 Uiso
H10E H 0.6483 0.6770 0.0545 0.0480 Uiso
N4E N 0.5927(3) 0.5556(3) -0.4360(8) 0.0398 Uani
N4D N 1.0927(3) 1.0556(3) 0.5640(8) 0.0398 Uani
H11E H 0.5989 0.5741 -0.5603 0.0480 Uiso
H11D H 1.0989 1.0741 0.4397 0.0480 Uiso
H12E H 0.6301 0.5299 -0.3909 0.0480 Uiso
H12D H 1.1301 1.0299 0.6091 0.0480 Uiso
C3E C 0.6576(3) 0.6451(3) -0.2281(11) 0.0338 Uani
H13E H 0.6642 0.6643 -0.3634 0.0410 Uiso
H14E H 0.6979 0.6176 -0.1774 0.0410 Uiso
C4E C 0.5918(3) 0.6060(3) -0.2693(11) 0.0333 Uani
H15E H 0.5857 0.5861 -0.1345 0.0400 Uiso
H16E H 0.5513 0.6336 -0.3170 0.0400 Uiso
N5 N 0.7503(4) 0.9449(3) 0.7482(11) 0.0403 Uani
O1 O 0.8035(3) 0.9178(3) 0.7502(10) 0.1005 Uani
O2 O 0.6959(3) 0.9165(3) 0.7498(10) 0.1071 Uani
O3 O 0.7476(4) 1.0032(3) 0.7425(11) 0.1065 Uani
N6 N -0.0000 0.7000(5) 0.2500 0.0580 Uani
O4 O 0.0614(3) 0.6741(4) 0.2574(11) 0.1275 Uani
O5 O 0.0000 0.7557(4) 0.2500 0.1019 Uani
O4B O -0.0614(3) 0.6741(4) 0.2426(11) 0.1275 Uani
N7 N 0.0000 0.1949(5) 0.2500 0.0422 Uani
O6 O 0.0544(3) 0.1661(3) 0.2481(10) 0.1022 Uani
O7 O -0.0000 0.2541(5) 0.2500 0.1007 Uani
O6B O -0.0544(3) 0.1661(3) 0.2519(10) 0.1022 Uani
loop_
_atom_site_aniso_label
_atom_site_aniso_U_11
_atom_site_aniso_U_22
_atom_site_aniso_U_33
_atom_site_aniso_U_23
_atom_site_aniso_U_13
_atom_site_aniso_U_12
Ag1 0.0266(5) 0.0311(6) 0.0330(6) 0.0106(4) 0.0076(4) 0.0093(4)
Ag2 0.0287(6) 0.0331(6) 0.0345(7) 0.0126(4) 0.0091(5) 0.0127(4)
N1 0.033(4) 0.036(4) 0.034(4) 0.014(3) 0.013(3) 0.010(3)
N2 0.041(4) 0.035(4) 0.044(5) 0.010(3) 0.010(3) 0.013(3)
C1 0.025(4) 0.036(5) 0.033(5) 0.010(4) 0.006(4) 0.018(4)
C2 0.034(4) 0.039(5) 0.025(5) 0.009(4) 0.011(4) 0.005(3)
Ag2A 0.0287 0.0331 0.0345 0.0126 0.0091 0.0127
N1D 0.033 0.036 0.034 0.014 0.013 0.01
N2D 0.041 0.035 0.044 0.01 0.01 0.013
N2E 0.041 0.035 0.044 0.01 0.01 0.013
C1D 0.025 0.036 0.033 0.01 0.006 0.018
C2D 0.034 0.039 0.025 0.009 0.011 0.005
Ag3 0.0292(6) 0.0312(6) 0.0347(7) -0.0088(4) 0.0087(5) -0.0064(4)
Ag4 0.0306(5) 0.0326(6) 0.0364(6) -0.0105(5) 0.0098(4) -0.0096(4)
N3 0.034(4) 0.045(4) 0.044(5) -0.017(3) 0.018(3) -0.011(3)
N4 0.034(4) 0.047(4) 0.041(5) -0.013(4) 0.014(3) -0.016(3)
C3 0.031(4) 0.034(5) 0.039(6) -0.007(4) 0.013(4) -0.005(4)
C4 0.035(5) 0.029(4) 0.039(6) -0.005(4) 0.015(4) -0.015(4)
Ag4A 0.0306 0.0326 0.0364 -0.0105 0.0098 -0.0096
N3E 0.034 0.045 0.044 -0.017 0.018 -0.011
N4E 0.034 0.047 0.041 -0.013 0.014 -0.016
N4D 0.034 0.047 0.041 -0.013 0.014 -0.016
C3E 0.031 0.034 0.039 -0.007 0.013 -0.005
C4E 0.035 0.029 0.039 -0.005 0.015 -0.015
N5 0.037(4) 0.036(4) 0.048(5) 0.003(4) 0.008(4) 0.006(3)
O1 0.100(6) 0.130(6) 0.084(6) 0.059(5) 0.049(4) 0.072(5)
O2 0.088(6) 0.161(7) 0.086(6) -0.076(5) 0.051(4) -0.073(5)
O3 0.153(12) 0.084(8) 0.079(8) -0.006(5) 0.013(7) -0.002(6)
N6 0.075(9) 0.064(9) 0.032(7) 0.000 0.003(6) 0.000
O4 0.069(5) 0.213(9) 0.118(6) 0.095(6) 0.062(4) 0.078(5)
O5 0.184(13) 0.023(6) 0.091(10) 0.000 0.007(8) 0.000
O4B 0.069 0.213 0.118 -0.095 0.062 -0.078
N7 0.041(7) 0.040(7) 0.047(7) 0.000 0.012(6) 0.000
O6 0.082(5) 0.137(6) 0.100(6) 0.060(5) 0.049(4) 0.060(4)
O7 0.097(11) 0.103(10) 0.094(11) 0.000 -0.002(8) 0.000
O6B 0.082 0.137 0.1 -0.06 0.049 -0.06
loop_
_geom_bond_atom_site_label_1
_geom_bond_atom_site_label_2
_geom_bond_site_symmetry_1
_geom_bond_site_symmetry_2
Ag1 N1 1_555 1_555
Ag2 N2 1_555 1_555
N1 H1 1_555 1_555
H2 N1 1_555 1_555
N2 H3 1_555 1_555
H4 N2 1_555 1_555
C1 N1 1_555 1_555
H5 C1 1_555 1_555
H6 C1 1_555 1_555
C2 N2 1_555 1_555
H7 C2 1_555 1_555
H8 C2 1_555 1_555
Ag3 N3 1_555 1_555
Ag4 N4 1_555 1_555
N3 H9 1_555 1_555
H10 N3 1_555 1_555
N4 H11 1_555 1_555
H12 N4 1_555 1_555
C3 N3 1_555 1_555
H13 C3 1_555 1_555
H14 C3 1_555 1_555
C4 N4 1_555 1_555
H15 C4 1_555 1_555
H16 C4 1_555 1_555
N5 O1 1_555 1_555
O2 N5 1_555 1_555
O3 N5 1_555 1_555
N6 O4 1_555 1_555
O5 N6 1_555 1_555
N7 O6 1_555 1_555
O7 N7 1_555 1_555
Ag2A N2D 1_555 1_555
N1D Ag1 1_555 1_555
H1D N1D 1_555 1_555
H2D N1D 1_555 1_555
N2D H3D 1_555 1_555
N2E Ag2 1_555 1_555
H3E N2E 1_555 1_555
H4D N2D 1_555 1_555
H4E N2E 1_555 1_555
C1D N1D 1_555 1_555
H5D C1D 1_555 1_555
H6D C1D 1_555 1_555
C2D N2D 1_555 1_555
H7D C2D 1_555 1_555
H8D C2D 1_555 1_555
Ag4A N4E 1_555 1_555
N3E Ag3 1_555 1_555
H9E N3E 1_555 1_555
H10E N3E 1_555 1_555
N4E H11E 1_555 1_555
N4D Ag4 1_555 1_555
H11D N4D 1_555 1_555
H12E N4E 1_555 1_555
H12D N4D 1_555 1_555
C3E N3E 1_555 1_555
H13E C3E 1_555 1_555
H14E C3E 1_555 1_555
C4E N4E 1_555 1_555
H15E C4E 1_555 1_555
H16E C4E 1_555 1_555
O4B N6 1_555 1_555
O6B N7 1_555 1_555
C1 C2 1_555 1_555
C3 C4 1_555 1_555
C1D C2D 1_555 1_555
C3E C4E 1_555 1_555

#END
