
#######################################################################
#
#                 Cambridge Crystallographic Data Centre
#                                CCDC 
#
#######################################################################
#
# If this CIF has been generated from an entry in the Cambridge 
# Structural Database, then it will include bibliographic, chemical, 
# crystal, experimental, refinement or atomic coordinate data resulting 
# from the CCDC's data processing and validation procedures.
#
#######################################################################

data_MOFPEE
_chemical_formula_moiety         '(C5 H17 N2 O13 P3 Zn3)n'
_symmetry_cell_setting           monoclinic
_symmetry_space_group_name_H-M   'P 21/n'
_symmetry_Int_Tables_number      14
_space_group_name_Hall           '-P 2yn'
loop_
_symmetry_equiv_pos_site_id
_symmetry_equiv_pos_as_xyz
1 x,y,z
2 1/2-x,1/2+y,1/2-z
3 -x,-y,-z
4 1/2+x,1/2-y,1/2+z
_cell_length_a                   9.7904(11)
_cell_length_b                   14.0287(16)
_cell_length_c                   11.8651(13)
_cell_angle_alpha                90
_cell_angle_beta                 104.690(3)
_cell_angle_gamma                90
_cell_volume                     1576.36
loop_
_atom_site_label
_atom_site_type_symbol
_atom_site_fract_x
_atom_site_fract_y
_atom_site_fract_z
Zn1 Zn 0.37070(5) -0.61221(4) 0.14186(4)
Zn2 Zn 0.58673(5) -0.61499(3) 0.45158(4)
Zn3 Zn 0.99661(5) -0.45527(3) 0.82842(4)
P1 P 1.09655(11) -0.65029(8) 0.92853(9)
P2 P 0.7023(11) -0.49711(7) 0.66161(9)
P3 P 0.69087(12) -0.55413(8) 0.21937(10)
O1 O 0.6953(3) -0.5989(2) 0.6128(3)
O2 O 0.8570(3) -0.4584(2) 0.6758(3)
O3 O 1.0015(3) -0.5824(2) 0.8848(3)
O4 O 0.6744(3) -0.4994(2) 0.7818(3)
O5 O 1.2541(3) -0.6231(2) 0.9838(3)
O6 O 0.6054(3) -0.4311(2) 0.5781(3)
O7 O 1.0686(4) -0.7493(2) 0.9138(3)
O8 O 0.3646(4) -0.7412(3) 0.2120(3)
O9 O 0.6889(4) -0.5641(3) 0.3448(3)
O10 O 0.5672(4) -0.6034(3) 0.1345(4)
O11 O 0.6800(4) -0.4445(3) 0.1949(3)
O12 O 0.8268(3) -0.5906(2) 0.1962(3)
O13 O 1.0690(4) -0.6483(2) 1.0892(3)
H1 H 0.4185 -0.7519 0.2662
H2 H 0.3234 -0.7764 0.1852
H3 H 0.6937 -0.4318 0.1239
Zn1_2 Zn 1.37070(5) -0.61221(4) 1.14186(4)
Zn1B Zn 0.62930(5) -0.38779(4) 0.85814(4)
Zn2B Zn 0.41327(5) -0.38501(3) 0.54842(4)
Zn2C Zn 1.08673(5) -0.88501(3) 0.95158(4)
Zn3B Zn 1.00339(5) -0.54473(3) 0.17158(4)
Zn3B_2 Zn 1.00339(5) -0.54473(3) 1.17158(4)
O4B O 0.3256(3) -0.5006(2) 0.2182(3)
O5_2 O 0.2541(3) -0.6231(2) -0.0162(3)
O6B O 0.3946(3) -0.5689(2) 0.4219(3)
O7C O 0.5686(4) -0.7507(2) 0.4138(3)
O12B O 1.1732(3) -0.4094(2) 0.8038(3)
O13B O 0.9310(4) -0.3517(2) 0.9108(3)
C1 C 0.2430(10) -0.2693(6) 1.0231(8)
H4 H 0.1596 -0.3040 0.9818
H5 H 0.2164 -0.2313 1.0825
C2 C 0.2812(9) -0.2059(6) 0.9430(7)
H6 H 0.2057 -0.1608 0.9125
H7 H 0.3013 -0.2408 0.8785
C3 C 0.5207(6) -0.2152(5) 1.0718(6)
H8 H 0.6008 -0.1776 1.1136
H9 H 0.5515 -0.2550 1.0161
C4 C 0.4658(11) -0.2823(6) 1.1634(9)
H10 H 0.5402 -0.3239 1.2062
H11 H 0.4298 -0.2445 1.2180
C5 C 0.4657(12) -0.1009(9) 0.9296(8)
H12 H 0.5492 -0.0670 0.9692
H13 H 0.3951 -0.0564 0.8903
H14 H 0.4880 -0.1437 0.8737
N1 N 0.3483(13) -0.3388(6) 1.0817(9)
H15 H 0.3824 -0.3712 1.0293
H16 H 0.3098 -0.3806 1.1223
N2 N 0.4130(6) -0.1543(4) 1.0126(5)
H17 H 0.3890 -0.1137 1.0642
loop_
_geom_bond_atom_site_label_1
_geom_bond_atom_site_label_2
_geom_bond_site_symmetry_1
_geom_bond_site_symmetry_2
Zn1 O8 1_555 1_555
Zn2 O1 1_555 1_555
Zn3 O2 1_555 1_555
P1 O3 1_555 1_555
P2 O1 1_555 1_555
P3 O9 1_555 1_555
O2 P2 1_555 1_555
O3 Zn3 1_555 1_555
O4 P2 1_555 1_555
O5 P1 1_555 1_555
O6 P2 1_555 1_555
O7 P1 1_555 1_555
O8 H1 1_555 1_555
O9 Zn2 1_555 1_555
O10 Zn1 1_555 1_555
O11 P3 1_555 1_555
O12 P3 1_555 1_555
O13 P1 1_555 1_555
H2 O8 1_555 1_555
H3 O11 1_555 1_555
C1 H4 1_555 1_555
H5 C1 1_555 1_555
C2 C1 1_555 1_555
H6 C2 1_555 1_555
H7 C2 1_555 1_555
C3 H8 1_555 1_555
H9 C3 1_555 1_555
C4 C3 1_555 1_555
H10 C4 1_555 1_555
H11 C4 1_555 1_555
C5 H12 1_555 1_555
H13 C5 1_555 1_555
H14 C5 1_555 1_555
N1 C1 1_555 1_555
H15 N1 1_555 1_555
H16 N1 1_555 1_555
N2 C2 1_555 1_555
H17 N2 1_555 1_555
Zn1_2 O5 1_555 1_555
Zn1B O4 1_555 1_555
Zn2B O6 1_555 1_555
Zn2C O7 1_555 1_555
Zn3B O12 1_555 1_555
Zn3B_2 O13 1_555 1_555
O4B Zn1 1_555 1_555
O5_2 Zn1 1_555 1_555
O6B Zn2 1_555 1_555
O7C Zn2 1_555 1_555
O12B Zn3 1_555 1_555
O13B Zn3 1_555 1_555
P3 O10 1_555 1_555
C3 N2 1_555 1_555
C4 N1 1_555 1_555
C5 N2 1_555 1_555

#END
