
#######################################################################
#
#                 Cambridge Crystallographic Data Centre
#                                CCDC 
#
#######################################################################
#
# If this CIF has been generated from an entry in the Cambridge 
# Structural Database, then it will include bibliographic, chemical, 
# crystal, experimental, refinement or atomic coordinate data resulting 
# from the CCDC's data processing and validation procedures.
#
#######################################################################

data_MOMSIS
_chemical_formula_moiety         '(C10 H42 N5 Nd5 O49 S12 4-)n'
_symmetry_cell_setting           monoclinic
_symmetry_space_group_name_H-M   'C 2/c'
_symmetry_Int_Tables_number      15
_space_group_name_Hall           '-C 2yc'
loop_
_symmetry_equiv_pos_site_id
_symmetry_equiv_pos_as_xyz
1 x,y,z
2 -x,y,1/2-z
3 1/2+x,1/2+y,z
4 1/2-x,1/2+y,1/2-z
5 -x,-y,-z
6 x,-y,1/2+z
7 1/2-x,1/2-y,-z
8 1/2+x,1/2-y,1/2+z
_cell_length_a                   20.570(5)
_cell_length_b                   35.815(8)
_cell_length_c                   10.106(2)
_cell_angle_alpha                90
_cell_angle_beta                 114.694(3)
_cell_angle_gamma                90
_cell_volume                     6764.38
loop_
_atom_site_label
_atom_site_type_symbol
_atom_site_fract_x
_atom_site_fract_y
_atom_site_fract_z
Nd1 Nd -0.0000 0.220022(16) 0.7500
Nd2 Nd -0.242478(19) 0.192587(10) 0.50891(4)
Nd3 Nd -0.36248(2) 0.030949(12) 0.47923(5)
S1 S -0.24708(14) -0.02621(7) 0.3719(3)
S2 S -0.44162(10) 0.03571(5) 0.1381(2)
S3 S -0.29368(10) 0.11088(5) 0.5164(2)
S4 S -0.09507(10) 0.15756(6) 0.5379(2)
S5 S -0.13222(9) 0.26784(5) 0.44287(19)
S6 S -0.15593(9) 0.25263(5) 0.82236(18)
O1 O -0.2250(5) -0.0632(3) 0.4050(10)
O2 O -0.2859(4) -0.0201(2) 0.2222(8)
O3 O -0.1793(5) -0.0045(3) 0.4209(10)
O4 O -0.2841(4) -0.0127(2) 0.4546(8)
O5 O -0.4133(3) 0.02752(18) 0.0304(6)
O6 O -0.4347(3) 0.00294(18) 0.2291(7)
O7 O -0.5157(3) 0.04825(17) 0.0607(7)
O8 O -0.4001(3) 0.06512(17) 0.2391(6)
O9 O -0.2613(3) 0.07541(18) 0.5017(7)
O10 O -0.3591(3) 0.10047(17) 0.5323(7)
O11 O -0.3096(3) 0.13518(16) 0.3898(6)
O12 O -0.2432(3) 0.13249(17) 0.6430(6)
O13 O -0.0813(4) 0.11812(18) 0.5658(7)
O14 O -0.0337(3) 0.17704(17) 0.5334(6)
O15 O -0.1616(3) 0.16375(16) 0.4078(6)
O16 O -0.1066(3) 0.17602(16) 0.6598(6)
O17 O -0.1835(3) 0.24802(14) 0.4884(6)
O18 O -0.1394(3) 0.25577(17) 0.3025(6)
O19 O -0.1501(3) 0.30760(15) 0.4440(6)
O20 O -0.0596(3) 0.26143(16) 0.5537(6)
O21 O -0.2004(3) 0.21945(15) 0.7524(5)
O22 O -0.0835(3) 0.24664(15) 0.8316(6)
O23 O -0.1870(3) 0.28661(15) 0.7368(5)
O24 O -0.1527(3) 0.25660(16) 0.9677(6)
Nd2A Nd -0.757522(19) 0.192587(10) -0.00891(4)
Nd3A Nd -0.63752(2) 0.030949(12) 0.02077(5)
S1A S -0.75292(14) -0.02621(7) 0.1281(3)
S2A S -0.55838(10) 0.03571(5) 0.3619(2)
S3A S -0.70632(10) 0.11088(5) -0.0164(2)
S4A S -0.90493(10) 0.15756(6) -0.0379(2)
S5A S -0.86778(9) 0.26784(5) 0.05713(19)
S6A S -0.84407(9) 0.25263(5) -0.32236(18)
O1A O -0.7750(5) -0.0632(3) 0.0950(10)
O2A O -0.7141(4) -0.0201(2) 0.2778(8)
O3A O -0.8207(5) -0.0045(3) 0.0791(10)
O4A O -0.7159(4) -0.0127(2) 0.0454(8)
O5A O -0.5867(3) 0.02752(18) 0.4696(6)
O6A O -0.5653(3) 0.00294(18) 0.2709(7)
O7A O -0.4843(3) 0.04825(17) 0.4393(7)
O8A O -0.5999(3) 0.06512(17) 0.2609(6)
O9A O -0.7387(3) 0.07541(18) -0.0017(7)
O10A O -0.6409(3) 0.10047(17) -0.0323(7)
O11A O -0.6904(3) 0.13518(16) 0.1102(6)
O12A O -0.7568(3) 0.13249(17) -0.1430(6)
O13A O -0.9187(4) 0.11812(18) -0.0658(7)
O14A O -0.9663(3) 0.17704(17) -0.0334(6)
O15A O -0.8384(3) 0.16375(16) 0.0922(6)
O16A O -0.8934(3) 0.17602(16) -0.1598(6)
O17A O -0.8165(3) 0.24802(14) 0.0116(6)
O18A O -0.8606(3) 0.25577(17) 0.1975(6)
O19A O -0.8499(3) 0.30760(15) 0.0560(6)
O20A O -0.9404(3) 0.26143(16) -0.0537(6)
O21A O -0.7996(3) 0.21945(15) -0.2524(5)
O22A O -0.9165(3) 0.24664(15) -0.3316(6)
O23A O -0.8130(3) 0.28661(15) -0.2368(5)
O24A O -0.8473(3) 0.25660(16) -0.4677(6)
Nd1_2 Nd -1.0000 0.220022(16) -0.2500
Nd2F Nd -0.257522(19) 0.307413(10) 0.49109(4)
Nd2G Nd -0.742478(19) 0.307413(10) 0.00891(4)
Nd3D Nd -0.63752(2) -0.030949(12) 0.52077(5)
Nd3E Nd -0.36248(2) -0.030949(12) -0.02077(5)
O2D O -0.7141(4) 0.0201(2) -0.2222(8)
O2E O -0.2859(4) 0.0201(2) 0.7222(8)
O5D O -0.5867(3) -0.02752(18) -0.0304(6)
O5E O -0.4133(3) -0.02752(18) 0.5304(6)
O14A_2 O 0.0337(3) 0.17704(17) 0.9666(6)
O16A_2 O 0.1066(3) 0.17602(16) 0.8402(6)
O17F O -0.3165(3) 0.25198(14) 0.5116(6)
O17G O -0.6835(3) 0.25198(14) -0.0116(6)
O19F O -0.3499(3) 0.19240(15) 0.5560(6)
O19G O -0.6501(3) 0.19240(15) -0.0560(6)
O20A_2 O 0.0596(3) 0.26143(16) 0.9463(6)
O22A_2 O 0.0835(3) 0.24664(15) 0.6684(6)
O23F O -0.3130(3) 0.21339(15) 0.2632(5)
O23G O -0.6870(3) 0.21339(15) 0.2368(5)
N1 N -0.1211(5) 0.0892(3) 0.8023(10)
H1 H -0.1308 0.1048 0.7266
H2 H -0.1634 0.0826 0.8022
C1 C -0.0914(11) 0.0571(6) 0.773(3)
H3 H -0.1269 0.0443 0.6916
H4 H -0.0748 0.0411 0.8569
H5 H -0.0519 0.0638 0.7507
C2 C -0.0847(9) 0.1095(5) 0.927(3)
H6 H -0.0418 0.1195 0.9257
H7 H -0.0726 0.0935 1.0107
H8 H -0.1144 0.1296 0.9329
N2 N -0.2296(4) 0.30700(19) 1.0651(8)
H9 H -0.2465 0.2993 1.1297
H10 H -0.2039 0.2882 1.0521
C3 C -0.2905(6) 0.3151(3) 0.9255(11)
H11 H -0.2732 0.3199 0.8524
H12 H -0.3157 0.3366 0.9362
H13 H -0.3222 0.2941 0.8968
C4 C -0.1824(6) 0.3393(3) 1.1261(11)
H14 H -0.1646 0.3478 1.0574
H15 H -0.1429 0.3321 1.2149
H16 H -0.2087 0.3590 1.1457
N3 N -0.1951(7) -0.0697(4) 0.7989(13)
H17 H -0.2091 -0.0473 0.8178
H18 H -0.1839 -0.0838 0.8792
C5 C -0.2535(8) -0.0861(5) 0.6881(15)
H19 H -0.2753 -0.0684 0.6106
H20 H -0.2876 -0.0936 0.7249
H21 H -0.2380 -0.1075 0.6519
C6 C -0.1338(9) -0.0644(6) 0.7792(19)
H22 H -0.1450 -0.0514 0.6894
H23 H -0.1130 -0.0882 0.7759
H24 H -0.1005 -0.0500 0.8586
N4 N -0.5000 -0.0650(3) 0.2500
H25 H -0.5080 -0.0501 0.1730
C7 C -0.5656(7) -0.0867(4) 0.2198(15)
H26 H -0.5736 -0.1037 0.1412
H27 H -0.6055 -0.0700 0.1931
H28 H -0.5603 -0.1004 0.3053
H25A H -0.4920 -0.0501 0.3270
C7A C -0.4344(7) -0.0867(4) 0.2802(15)
H26A H -0.4264 -0.1037 0.3588
H27A H -0.3945 -0.0700 0.3069
H28A H -0.4397 -0.1004 0.1947
N5 N -0.5000 0.1295(4) 0.2500
H29 H -0.4691 0.1125 0.2951
C8 C -0.4801(8) 0.1504(4) 0.1533(19)
H30 H -0.5224 0.1589 0.0725
H31 H -0.4525 0.1349 0.1183
H32 H -0.4520 0.1716 0.2037
H29A H -0.5309 0.1125 0.2049
C8A C -0.5199(8) 0.1504(4) 0.3467(19)
H30A H -0.4776 0.1589 0.4275
H31A H -0.5475 0.1349 0.3817
H32A H -0.5480 0.1716 0.2963
O25 O -0.0332(6) -0.0092(4) 0.5966(15)
H33 H -0.0761 -0.0013 0.5632
H34 H -0.0328 -0.0328 0.6049
loop_
_geom_bond_atom_site_label_1
_geom_bond_atom_site_label_2
_geom_bond_site_symmetry_1
_geom_bond_site_symmetry_2
Nd1 O14 1_555 1_555
Nd2 O11 1_555 1_555
Nd3 O4 1_555 1_555
S1 O1 1_555 1_555
S2 O5 1_555 1_555
S3 O9 1_555 1_555
S4 O13 1_555 1_555
S5 O17 1_555 1_555
S6 O21 1_555 1_555
O2 S1 1_555 1_555
O3 S1 1_555 1_555
O4 S1 1_555 1_555
O5 Nd3E 1_555 1_555
O6 Nd3 1_555 1_555
O7 S2 1_555 1_555
O8 Nd3 1_555 1_555
O9 Nd3 1_555 1_555
O10 Nd3 1_555 1_555
O11 S3 1_555 1_555
O12 Nd2 1_555 1_555
O14 S4 1_555 1_555
O15 Nd2 1_555 1_555
O16 Nd1 1_555 1_555
O17 Nd2 1_555 1_555
O18 S5 1_555 1_555
O19 S5 1_555 1_555
O20 Nd1 1_555 1_555
O21 Nd2 1_555 1_555
O22 Nd1 1_555 1_555
O23 S6 1_555 1_555
O24 S6 1_555 1_555
N1 H1 1_555 1_555
H2 N1 1_555 1_555
C1 N1 1_555 1_555
H3 C1 1_555 1_555
H4 C1 1_555 1_555
H5 C1 1_555 1_555
C2 N1 1_555 1_555
H6 C2 1_555 1_555
H7 C2 1_555 1_555
H8 C2 1_555 1_555
N2 H9 1_555 1_555
H10 N2 1_555 1_555
C3 N2 1_555 1_555
H11 C3 1_555 1_555
H12 C3 1_555 1_555
H13 C3 1_555 1_555
C4 N2 1_555 1_555
H14 C4 1_555 1_555
H15 C4 1_555 1_555
H16 C4 1_555 1_555
N3 H17 1_555 1_555
H18 N3 1_555 1_555
C5 N3 1_555 1_555
H19 C5 1_555 1_555
H20 C5 1_555 1_555
H21 C5 1_555 1_555
C6 N3 1_555 1_555
H22 C6 1_555 1_555
H23 C6 1_555 1_555
H24 C6 1_555 1_555
N4 H25 1_555 1_555
C7 N4 1_555 1_555
H26 C7 1_555 1_555
H27 C7 1_555 1_555
H28 C7 1_555 1_555
N5 H29 1_555 1_555
C8 N5 1_555 1_555
H30 C8 1_555 1_555
H31 C8 1_555 1_555
H32 C8 1_555 1_555
O25 H33 1_555 1_555
H34 O25 1_555 1_555
Nd2A O11A 1_555 1_555
Nd3A O7 1_555 1_555
S1A O1A 1_555 1_555
S2A O5A 1_555 1_555
S3A O9A 1_555 1_555
S4A O13A 1_555 1_555
S5A O17A 1_555 1_555
S6A O21A 1_555 1_555
O2A S1A 1_555 1_555
O3A S1A 1_555 1_555
O4A Nd3A 1_555 1_555
O5A Nd3D 1_555 1_555
O6A Nd3A 1_555 1_555
O7A Nd3 1_555 1_555
O8A Nd3A 1_555 1_555
O9A Nd3A 1_555 1_555
O10A Nd3A 1_555 1_555
O11A S3A 1_555 1_555
O12A Nd2A 1_555 1_555
O14A S4A 1_555 1_555
O15A Nd2A 1_555 1_555
O16A Nd2A 1_555 1_555
O17A Nd2A 1_555 1_555
O18A S5A 1_555 1_555
O19A S5A 1_555 1_555
O20A S5A 1_555 1_555
O21A Nd2A 1_555 1_555
O22A S6A 1_555 1_555
O23A S6A 1_555 1_555
O24A S6A 1_555 1_555
Nd1_2 O14A 1_555 1_555
Nd2F O17 1_555 1_555
Nd2G O17A 1_555 1_555
Nd3D O2A 1_555 1_555
Nd3E O2 1_555 1_555
O2D Nd3A 1_555 1_555
O2E Nd3 1_555 1_555
O5D Nd3A 1_555 1_555
O5E Nd3 1_555 1_555
O14A_2 Nd1 1_555 1_555
O16A_2 Nd1 1_555 1_555
O17F Nd2 1_555 1_555
O17G Nd2A 1_555 1_555
O19F Nd2 1_555 1_555
O19G Nd2A 1_555 1_555
O20A_2 Nd1 1_555 1_555
O22A_2 Nd1 1_555 1_555
O23F Nd2 1_555 1_555
O23G Nd2A 1_555 1_555
H25A N4 1_555 1_555
C7A N4 1_555 1_555
H26A C7A 1_555 1_555
H27A C7A 1_555 1_555
H28A C7A 1_555 1_555
H29A N5 1_555 1_555
C8A N5 1_555 1_555
H30A C8A 1_555 1_555
H31A C8A 1_555 1_555
H32A C8A 1_555 1_555
Nd2 O16 1_555 1_555
S2 O6 1_555 1_555
S2 O8 1_555 1_555
S3 O10 1_555 1_555
S3 O12 1_555 1_555
S4 O15 1_555 1_555
S4 O16 1_555 1_555
S5 O20 1_555 1_555
S6 O22 1_555 1_555
O19 Nd2F 1_555 1_555
O23 Nd2F 1_555 1_555
S1A O4A 1_555 1_555
S2A O6A 1_555 1_555
S2A O7A 1_555 1_555
S2A O8A 1_555 1_555
S3A O10A 1_555 1_555
S3A O12A 1_555 1_555
S4A O15A 1_555 1_555
S4A O16A 1_555 1_555
O16A Nd1_2 1_555 1_555
O19A Nd2G 1_555 1_555
O20A Nd1_2 1_555 1_555
O22A Nd1_2 1_555 1_555
O23A Nd2G 1_555 1_555
Nd2F O17F 1_555 1_555
Nd2G O17G 1_555 1_555

#END
