
#######################################################################
#
#                 Cambridge Crystallographic Data Centre
#                                CCDC 
#
#######################################################################
#
# If this CIF has been generated from an entry in the Cambridge 
# Structural Database, then it will include bibliographic, chemical, 
# crystal, experimental, refinement or atomic coordinate data resulting 
# from the CCDC's data processing and validation procedures.
#
#######################################################################

data_MOPQIT
_chemical_formula_moiety         '(C16 H20 Mg6 O25)n'
_symmetry_cell_setting           monoclinic
_symmetry_space_group_name_H-M   'P 21/n'
_symmetry_Int_Tables_number      14
_space_group_name_Hall           '-P 2yn'
loop_
_symmetry_equiv_pos_site_id
_symmetry_equiv_pos_as_xyz
1 x,y,z
2 1/2-x,1/2+y,1/2-z
3 -x,-y,-z
4 1/2+x,1/2-y,1/2+z
_cell_length_a                   11.416(2)
_cell_length_b                   10.013(2)
_cell_length_c                   14.914(3)
_cell_angle_alpha                90
_cell_angle_beta                 91.44(3)
_cell_angle_gamma                90
_cell_volume                     1704.26
loop_
_atom_site_label
_atom_site_type_symbol
_atom_site_fract_x
_atom_site_fract_y
_atom_site_fract_z
Mg1 Mg 0.76112(10) 0.87882(12) 0.19528(8)
Mg2 Mg 0.75511(10) 0.57317(12) 0.13528(8)
Mg3 Mg 1.0000 0.5000 0.0000
Mg4 Mg 0.5000 0.5000 0.0000
O1 O 0.6526(2) 0.9128(3) 0.30599(18)
O2 O 0.6593(2) 0.7503(3) 0.11493(17)
O3 O 0.8050(2) 0.6909(3) 0.24914(17)
O4 O 0.8704(2) 0.9843(3) 0.28360(17)
O5 O 0.6843(2) 0.4745(3) 0.02453(17)
O6 O 0.8965(2) 0.8621(3) 0.10865(19)
O7 O 0.8065(3) 0.5465(3) 0.36425(19)
O8 O 0.9026(2) 0.6461(3) 0.06965(18)
O9 O 1.0369(2) 0.9878(3) 0.36565(18)
O10 O 0.5215(2) 0.7036(3) 0.0097(2)
O11 O 0.8480(2) 0.4087(3) -0.0420(2)
O12 O 0.4961(2) 0.8764(3) 0.3896(2)
C1 C 0.9394(3) 0.7659(4) 0.0691(3)
H1 H 1.0053 0.7830 0.0356
C2 C 0.9810(3) 0.9732(4) 0.2946(3)
H2 H 1.0236 0.9519 0.2442
C3 C 0.8219(4) 0.6587(4) 0.3311(3)
H3 H 0.8482 0.7257 0.3698
C4 C 0.5776(3) 0.7826(4) 0.0578(3)
H4 H 0.5593 0.8728 0.0522
C5 C 0.7406(3) 0.4079(4) -0.0331(3)
H5 H 0.6970 0.3538 -0.0720
C6 C 0.5588(3) 0.8513(4) 0.3255(3)
H6 H 0.5356 0.7812 0.2882
Mg1B Mg 0.23888(10) 0.12118(12) -0.19528(8)
Mg2B Mg 0.24489(10) 0.42683(12) -0.13528(8)
O1B O 0.3474(2) 0.0872(3) -0.30599(18)
O2B O 0.3407(2) 0.2497(3) -0.11493(17)
O3B O 0.1950(2) 0.3091(3) -0.24914(17)
O4B O 0.1296(2) 0.0157(3) -0.28360(17)
O5B O 0.3157(2) 0.5255(3) -0.02453(17)
O6B O 0.1035(2) 0.1379(3) -0.10865(19)
O7B O 0.1935(3) 0.4535(3) -0.36425(19)
O8B O 0.0974(2) 0.3539(3) -0.06965(18)
O9B O -0.0369(2) 0.0122(3) -0.36565(18)
O10B O 0.4785(2) 0.2964(3) -0.0097(2)
O11B O 0.1520(2) 0.5913(3) 0.0420(2)
O12B O 0.5039(2) 0.1236(3) -0.3896(2)
C1B C 0.0606(3) 0.2341(4) -0.0691(3)
H1B H -0.0053 0.2170 -0.0356
C2B C 0.0190(3) 0.0268(4) -0.2946(3)
H2B H -0.0236 0.0481 -0.2442
C3B C 0.1781(4) 0.3413(4) -0.3311(3)
H3B H 0.1518 0.2743 -0.3698
C4B C 0.4224(3) 0.2174(4) -0.0578(3)
H4B H 0.4407 0.1272 -0.0522
C5B C 0.2594(3) 0.5921(4) 0.0331(3)
H5B H 0.3030 0.6462 0.0720
C6B C 0.4412(3) 0.1487(4) -0.3255(3)
H6B H 0.4644 0.2188 -0.2882
Mg1A Mg 0.73888(10) 0.37882(12) 0.30472(8)
Mg1C Mg 0.26112(10) 0.62118(12) -0.30472(8)
Mg2A Mg 0.74489(10) 1.07317(12) 0.36472(8)
Mg2C Mg 0.25511(10) -0.07317(12) -0.36472(8)
Mg3_2 Mg 0.0000 0.5000 0.0000
Mg3A Mg 0.5000 -0.0000 -0.5000
Mg3A_2 Mg 0.5000 1.0000 0.5000
Mg4A Mg 0.0000 -0.0000 -0.5000
Mg4A_2 Mg 1.0000 1.0000 0.5000
O1A O 0.8474(2) 0.4128(3) 0.19401(18)
O1C O 0.1526(2) 0.5872(3) -0.19401(18)
O4A O 0.6296(2) 0.4843(3) 0.21640(17)
O4C O 0.3704(2) 0.5157(3) -0.21640(17)
O7A O 0.6935(3) 1.0465(3) 0.13575(19)
O7C O 0.3065(3) -0.0465(3) -0.13575(19)
O8B_2 O 1.0974(2) 0.3539(3) -0.06965(18)
O9A O 0.4631(2) 0.4878(3) 0.13435(18)
O9C O 0.5369(2) 0.5122(3) -0.13435(18)
O11B_2 O 1.1520(2) 0.5913(3) 0.0420(2)
O12A O 1.0039(2) 0.3764(3) 0.1104(2)
O12C O 0.9961(2) 0.6236(3) -0.1104(2)
C7 C 0.7112(5) 0.9331(6) -0.1609(4)
O13 O 0.6311(6) 1.1401(7) -0.1683(5)
C8 C 0.7110(17) 1.046(2) -0.1296(13)
H7 H 0.7613 1.0702 -0.0822
C9 C 0.6366(19) 0.890(2) -0.2215(15)
H8 H 0.6543 0.7989 -0.2360
H9 H 0.6417 0.9440 -0.2745
H10 H 0.5587 0.8952 -0.1989
C10 C 0.7820(16) 0.8334(19) -0.1304(13)
H11 H 0.7668 0.7540 -0.1649
H12 H 0.7669 0.8163 -0.0685
H13 H 0.8624 0.8593 -0.1365
loop_
_geom_bond_atom_site_label_1
_geom_bond_atom_site_label_2
_geom_bond_site_symmetry_1
_geom_bond_site_symmetry_2
Mg1 O1 1_555 1_555
Mg2 O2 1_555 1_555
Mg3 O8 1_555 1_555
Mg4 O5 1_555 1_555
O1 C6 1_555 1_555
O2 Mg1 1_555 1_555
O3 Mg1 1_555 1_555
O4 Mg1 1_555 1_555
O5 Mg2 1_555 1_555
O6 Mg1 1_555 1_555
O7 C3 1_555 1_555
O8 Mg2 1_555 1_555
O9 C2 1_555 1_555
O10 Mg4 1_555 1_555
O11 Mg3 1_555 1_555
O12 C6 1_555 1_555
C1 O6 1_555 1_555
H1 C1 1_555 1_555
C2 O4 1_555 1_555
H2 C2 1_555 1_555
C3 O3 1_555 1_555
H3 C3 1_555 1_555
C4 O2 1_555 1_555
H4 C4 1_555 1_555
C5 O5 1_555 1_555
H5 C5 1_555 1_555
C6 H6 1_555 1_555
C7 C8 1_555 1_555
O13 C8 1_555 1_555
C8 H7 1_555 1_555
C9 C7 1_555 1_555
H8 C9 1_555 1_555
H9 C9 1_555 1_555
H10 C9 1_555 1_555
C10 C7 1_555 1_555
H11 C10 1_555 1_555
H12 C10 1_555 1_555
H13 C10 1_555 1_555
Mg1B O1B 1_555 1_555
Mg2B O2B 1_555 1_555
O1B C6B 1_555 1_555
O2B Mg1B 1_555 1_555
O3B Mg1B 1_555 1_555
O4B Mg1B 1_555 1_555
O5B Mg4 1_555 1_555
O6B Mg1B 1_555 1_555
O7B C3B 1_555 1_555
O8B Mg2B 1_555 1_555
O9B C2B 1_555 1_555
O10B Mg4 1_555 1_555
O11B C5B 1_555 1_555
O12B C6B 1_555 1_555
C1B O6B 1_555 1_555
H1B C1B 1_555 1_555
C2B O4B 1_555 1_555
H2B C2B 1_555 1_555
C3B O3B 1_555 1_555
H3B C3B 1_555 1_555
C4B O2B 1_555 1_555
H4B C4B 1_555 1_555
C5B O5B 1_555 1_555
H5B C5B 1_555 1_555
C6B H6B 1_555 1_555
Mg1A O7 1_555 1_555
Mg1C O7B 1_555 1_555
Mg2A O1 1_555 1_555
Mg2C O1B 1_555 1_555
Mg3_2 O8B 1_555 1_555
Mg3A O12B 1_555 1_555
Mg3A_2 O12 1_555 1_555
Mg4A O9B 1_555 1_555
Mg4A_2 O9 1_555 1_555
O1A Mg2 1_555 1_555
O1C Mg2B 1_555 1_555
O4A Mg2 1_555 1_555
O4C Mg2B 1_555 1_555
O7A Mg1 1_555 1_555
O7C Mg1B 1_555 1_555
O8B_2 Mg3 1_555 1_555
O9A Mg4 1_555 1_555
O9C Mg4 1_555 1_555
O11B_2 Mg3 1_555 1_555
O12A Mg3 1_555 1_555
O12C Mg3 1_555 1_555
Mg2 O3 1_555 1_555
O4 Mg2A 1_555 1_555
O8 C1 1_555 1_555
O10 C4 1_555 1_555
O11 C5 1_555 1_555
Mg2B O3B 1_555 1_555
Mg2B O5B 1_555 1_555
O4B Mg2C 1_555 1_555
O8B C1B 1_555 1_555
O10B C4B 1_555 1_555
O11B Mg3_2 1_555 1_555
Mg1A O1A 1_555 1_555
Mg1A O4A 1_555 1_555
Mg1C O1C 1_555 1_555
Mg1C O4C 1_555 1_555

#END
