
#######################################################################
#
#                 Cambridge Crystallographic Data Centre
#                                CCDC 
#
#######################################################################
#
# If this CIF has been generated from an entry in the Cambridge 
# Structural Database, then it will include bibliographic, chemical, 
# crystal, experimental, refinement or atomic coordinate data resulting 
# from the CCDC's data processing and validation procedures.
#
#######################################################################

data_MUMPIV
_chemical_formula_moiety         '(C84 H50 N10 O16 Zn4)n'
_symmetry_cell_setting           triclinic
_symmetry_space_group_name_H-M   'P -1'
_symmetry_Int_Tables_number      2
_space_group_name_Hall           '-P 1'
loop_
_symmetry_equiv_pos_site_id
_symmetry_equiv_pos_as_xyz
1 x,y,z
2 -x,-y,-z
_cell_length_a                   17.855(4)
_cell_length_b                   19.680(4)
_cell_length_c                   20.206(4)
_cell_angle_alpha                65.56(3)
_cell_angle_beta                 66.40(3)
_cell_angle_gamma                64.63(3)
_cell_volume                     5621.66
loop_
_atom_site_label
_atom_site_type_symbol
_atom_site_fract_x
_atom_site_fract_y
_atom_site_fract_z
O1 O 0.4910(5) 0.6573(6) 1.0727(5)
O2 O 0.5552(4) 0.5754(3) 1.1621(4)
O3 O 0.8862(2) 0.74685(16) 0.87720(18)
O4 O 0.8033(2) 0.84259(16) 0.93076(17)
O5 O 1.2584(2) 0.5867(2) 1.1384(2)
O6 O 1.33565(19) 0.66502(16) 1.06525(16)
O7 O 0.9517(2) 0.86116(18) 0.92891(18)
O8 O 1.03505(19) 0.78101(17) 0.85956(18)
O9 O 1.32626(19) 1.08389(15) 0.59636(17)
O10 O 1.2529(2) 1.17639(18) 0.51666(19)
O11 O 0.9416(2) 0.98858(17) 0.79862(17)
O12 O 1.00402(18) 0.90688(15) 0.72834(16)
O13 O 0.5639(3) 1.1488(2) 0.5135(2)
O14 O 0.4965(2) 1.06805(19) 0.5988(2)
O15 O 0.85746(18) 0.87358(15) 0.74493(17)
O16 O 0.79215(19) 0.97059(17) 0.79895(18)
N1 N 1.0322(2) 0.74088(16) 0.72621(18)
N2 N 1.3618(2) 0.25172(16) 0.54422(18)
N3 N 1.3541(2) 0.59019(16) 0.24325(18)
N4 N 1.2035(2) 0.51651(16) 0.60257(18)
H1 H 1.1912 0.4867 0.6481
N5 N 1.2075(2) 0.62498(17) 0.50617(19)
N6 N 0.7848(2) 1.00183(17) 0.94160(18)
N7 N 0.4583(2) 1.14434(16) 1.42837(17)
N8 N 0.4568(2) 1.48317(16) 1.13155(18)
N9 N 0.6075(3) 1.22188(17) 1.06878(19)
H2 H 0.6141 1.2523 1.0231
N10 N 0.6156(3) 1.11210(16) 1.16443(19)
C1 C 0.5544(6) 0.6252(7) 1.1004(5)
C2 C 0.6202(4) 0.6697(4) 1.0531(3)
C3 C 0.6041(4) 0.7459(4) 1.0142(4)
H3 H 0.5474 0.7770 1.0145
C4 C 0.6705(3) 0.7807(3) 0.9725(3)
H4 H 0.6569 0.8341 0.9466
C5 C 0.7540(3) 0.7364(3) 0.9700(2)
C6 C 0.7743(3) 0.6552(3) 1.0113(3)
C7 C 0.7047(4) 0.6227(3) 1.0532(3)
C8 C 0.7281(6) 0.5407(4) 1.0968(4)
H5 H 0.6855 0.5169 1.1266
C9 C 0.8132(8) 0.4975(5) 1.0946(5)
H6 H 0.8272 0.4443 1.1210
C10 C 0.8779(5) 0.5310(4) 1.0546(4)
H7 H 0.9344 0.5007 1.0555
C11 C 0.8600(4) 0.6069(3) 1.0144(3)
H8 H 0.9046 0.6287 0.9878
C12 C 0.8209(3) 0.7779(3) 0.9227(2)
C13 C 1.2695(3) 0.6442(3) 1.0852(3)
C14 C 1.2070(3) 0.6913(2) 1.0382(2)
C15 C 1.2063(3) 0.6631(3) 0.9889(3)
H9 H 1.2472 0.6158 0.9818
C16 C 1.1452(3) 0.7033(3) 0.9477(3)
H10 H 1.1461 0.6818 0.9141
C17 C 1.0846(3) 0.7729(2) 0.9555(2)
C18 C 1.0840(3) 0.8064(2) 1.0061(2)
C19 C 1.1457(3) 0.7642(2) 1.0489(2)
C20 C 1.1446(3) 0.7953(3) 1.1018(3)
H11 H 1.1847 0.7676 1.1298
C21 C 1.0864(4) 0.8641(3) 1.1117(3)
H12 H 1.0868 0.8840 1.1460
C22 C 1.0258(4) 0.9053(3) 1.0709(4)
H13 H 0.9853 0.9524 1.0789
C23 C 1.0240(3) 0.8789(2) 1.0201(3)
H14 H 0.9826 0.9085 0.9934
C24 C 1.0186(3) 0.8088(2) 0.9115(2)
C25 C 1.2620(3) 1.1153(2) 0.5699(3)
C26 C 1.1933(3) 1.0759(2) 0.6108(2)
C27 C 1.1764(3) 1.0467(2) 0.6876(3)
H15 H 1.2096 1.0488 0.7119
C28 C 1.1093(3) 1.0132(2) 0.7307(2)
H16 H 1.0976 0.9947 0.7830
C29 C 1.0615(3) 1.0077(2) 0.6958(2)
C30 C 1.0776(3) 1.0378(2) 0.6151(2)
C31 C 1.1443(3) 1.0725(2) 0.5724(2)
C32 C 1.1592(3) 1.1010(3) 0.4933(3)
H17 H 1.2032 1.1232 0.4642
C33 C 1.1115(4) 1.0969(3) 0.4590(3)
H18 H 1.1236 1.1152 0.4066
C34 C 1.0436(4) 1.0655(3) 0.5010(3)
H19 H 1.0093 1.0649 0.4768
C35 C 1.0278(3) 1.0359(2) 0.5774(3)
H20 H 0.9834 1.0140 0.6050
C36 C 0.9968(3) 0.9645(2) 0.7439(2)
C37 C 0.5566(3) 1.0934(3) 0.5727(3)
C38 C 0.6236(3) 1.0555(2) 0.6166(3)
C39 C 0.6349(3) 0.9794(3) 0.6603(3)
H21 H 0.6023 0.9524 0.6614
C40 C 0.6943(3) 0.9406(3) 0.7038(3)
H22 H 0.7007 0.8884 0.7327
C41 C 0.7425(3) 0.9785(2) 0.7039(2)
C42 C 0.7338(3) 1.0582(2) 0.6577(2)
C43 C 0.6746(3) 1.0959(2) 0.6134(2)
C44 C 0.6689(3) 1.1754(2) 0.5671(3)
H23 H 0.6300 1.2019 0.5379
C45 C 0.7179(4) 1.2123(3) 0.5648(3)
H24 H 0.7126 1.2639 0.5347
C46 C 0.7769(4) 1.1732(3) 0.6075(3)
H25 H 0.8119 1.1989 0.6045
C47 C 0.7848(3) 1.0990(3) 0.6532(3)
H26 H 0.8240 1.0747 0.6820
C48 C 0.8022(3) 0.9379(2) 0.7524(2)
C49 C 1.0563(3) 0.7710(2) 0.6521(2)
H27 H 1.0395 0.8254 0.6317
C50 C 1.1053(3) 0.7251(2) 0.6037(2)
H28 H 1.1213 0.7488 0.5519
C51 C 1.1306(3) 0.6438(2) 0.6325(2)
C52 C 1.1049(3) 0.6127(2) 0.7097(2)
H29 H 1.1202 0.5585 0.7316
C53 C 1.0565(3) 0.6624(2) 0.7539(2)
H30 H 1.0397 0.6404 0.8059
C54 C 1.1808(3) 0.5964(2) 0.5804(2)
C55 C 1.2846(3) 0.2766(2) 0.5903(2)
H31 H 1.2555 0.2405 0.6230
C56 C 1.2464(3) 0.3539(2) 0.5913(2)
H32 H 1.1926 0.3692 0.6244
C57 C 1.2885(3) 0.4084(2) 0.5429(2)
C58 C 1.3695(3) 0.3822(2) 0.4954(2)
H33 H 1.4003 0.4168 0.4621
C59 C 1.4028(3) 0.3044(2) 0.4987(2)
H34 H 1.4573 0.2871 0.4673
C60 C 1.2495(3) 0.4924(2) 0.5394(2)
C61 C 1.2503(3) 0.5603(2) 0.4799(2)
C62 C 1.2858(3) 0.5704(2) 0.3989(2)
C63 C 1.3211(3) 0.6303(2) 0.3505(2)
H35 H 1.3222 0.6653 0.3697
C64 C 1.3541(3) 0.6382(2) 0.2755(2)
H36 H 1.3778 0.6785 0.2447
C65 C 1.3179(3) 0.5333(2) 0.2895(2)
H37 H 1.3156 0.5003 0.2687
C66 C 1.2840(3) 0.5219(2) 0.3662(2)
H38 H 1.2600 0.4816 0.3960
C67 C 0.7855(3) 0.9743(2) 1.0139(3)
H39 H 0.8189 0.9227 1.0315
C68 C 0.7392(3) 1.0187(2) 1.0635(2)
H40 H 0.7413 0.9977 1.1135
C69 C 0.6890(3) 1.0959(2) 1.0371(2)
C70 C 0.6875(3) 1.1239(2) 0.9633(2)
H41 H 0.6544 1.1752 0.9443
C71 C 0.7358(3) 1.0753(2) 0.9168(2)
H42 H 0.7340 1.0947 0.8668
C72 C 0.6379(3) 1.1422(2) 1.0909(2)
C73 C 0.5329(3) 1.0935(2) 1.4009(2)
H43 H 0.5611 1.0510 1.4350
C74 C 0.5692(3) 1.1011(2) 1.3260(2)
H44 H 0.6204 1.0639 1.3097
C75 C 0.5296(3) 1.1642(2) 1.2740(2)
C76 C 0.4505(3) 1.2162(2) 1.3018(2)
H45 H 0.4204 1.2582 1.2688
C77 C 0.4182(3) 1.2043(2) 1.3777(2)
H46 H 0.3658 1.2394 1.3956
C78 C 0.5681(3) 1.1748(2) 1.1926(2)
C79 C 0.5642(3) 1.2443(2) 1.1331(2)
C80 C 0.5272(3) 1.3276(2) 1.1317(2)
C81 C 0.5419(3) 1.3527(2) 1.1774(3)
H47 H 0.5761 1.3172 1.2098
C82 C 0.5067(3) 1.4298(2) 1.1760(3)
H48 H 0.5181 1.4457 1.2075
C83 C 0.4428(3) 1.4593(2) 1.0863(2)
H49 H 0.4082 1.4961 1.0546
C84 C 0.4773(3) 1.3823(2) 1.0840(2)
H50 H 0.4669 1.3679 1.0509
Zn1 Zn 0.95857(3) 0.81237(2) 0.79321(2)
Zn2 Zn 0.85788(3) 0.93039(2) 0.87510(2)
Zn3 Zn 1.40924(3) 0.59775(2) 0.13367(2)
Zn4 Zn 1.41237(3) 0.13817(2) 0.53954(2)
O1_2 O 1.4910(5) 0.6573(6) 0.0727(5)
O6_2 O 1.33565(19) 0.66502(16) 0.06525(16)
O9_2 O 1.32626(19) 0.08389(15) 0.59636(17)
O14_2 O 1.4965(2) 0.06805(19) 0.5988(2)
N7_2 N 1.4583(2) 0.14434(16) 0.42837(17)
N8_2 N 1.4568(2) 0.48317(16) 0.13155(18)
Zn3_2 Zn 0.40924(3) 0.59775(2) 1.13367(2)
Zn3_3 Zn 0.40924(3) 1.59775(2) 1.13367(2)
Zn3_4 Zn 1.40924(3) 0.59775(2) 1.13367(2)
Zn4_2 Zn 0.41237(3) 1.13817(2) 0.53954(2)
Zn4_3 Zn 0.41237(3) 1.13817(2) 1.53954(2)
Zn4_4 Zn 1.41237(3) 1.13817(2) 0.53954(2)
loop_
_geom_bond_atom_site_label_1
_geom_bond_atom_site_label_2
_geom_bond_site_symmetry_1
_geom_bond_site_symmetry_2
O1 C1 1_555 1_555
O2 C1 1_555 1_555
O3 C12 1_555 1_555
O4 C12 1_555 1_555
O5 C13 1_555 1_555
O6 C13 1_555 1_555
O7 C24 1_555 1_555
O8 C24 1_555 1_555
O9 C25 1_555 1_555
O10 C25 1_555 1_555
O11 C36 1_555 1_555
O12 C36 1_555 1_555
O13 C37 1_555 1_555
O14 C37 1_555 1_555
O15 C48 1_555 1_555
O16 C48 1_555 1_555
N1 C49 1_555 1_555
N2 C55 1_555 1_555
N3 C64 1_555 1_555
N4 H1 1_555 1_555
N5 C54 1_555 1_555
N6 C67 1_555 1_555
N7 C73 1_555 1_555
N8 C82 1_555 1_555
N9 H2 1_555 1_555
N10 C72 1_555 1_555
C1 C2 1_555 1_555
C2 C3 1_555 1_555
C3 H3 1_555 1_555
C4 C3 1_555 1_555
H4 C4 1_555 1_555
C5 C4 1_555 1_555
C6 C5 1_555 1_555
C7 C2 1_555 1_555
C8 C7 1_555 1_555
H5 C8 1_555 1_555
C9 C8 1_555 1_555
H6 C9 1_555 1_555
C10 C9 1_555 1_555
H7 C10 1_555 1_555
C11 C6 1_555 1_555
H8 C11 1_555 1_555
C12 C5 1_555 1_555
C13 C14 1_555 1_555
C14 C15 1_555 1_555
C15 H9 1_555 1_555
C16 C15 1_555 1_555
H10 C16 1_555 1_555
C17 C16 1_555 1_555
C18 C17 1_555 1_555
C19 C14 1_555 1_555
C20 C19 1_555 1_555
H11 C20 1_555 1_555
C21 C20 1_555 1_555
H12 C21 1_555 1_555
C22 C21 1_555 1_555
H13 C22 1_555 1_555
C23 C18 1_555 1_555
H14 C23 1_555 1_555
C24 C17 1_555 1_555
C25 C26 1_555 1_555
C26 C27 1_555 1_555
C27 H15 1_555 1_555
C28 C27 1_555 1_555
H16 C28 1_555 1_555
C29 C28 1_555 1_555
C30 C29 1_555 1_555
C31 C26 1_555 1_555
C32 C31 1_555 1_555
H17 C32 1_555 1_555
C33 C32 1_555 1_555
H18 C33 1_555 1_555
C34 C33 1_555 1_555
H19 C34 1_555 1_555
C35 C30 1_555 1_555
H20 C35 1_555 1_555
C36 C29 1_555 1_555
C37 C38 1_555 1_555
C38 C39 1_555 1_555
C39 H21 1_555 1_555
C40 C39 1_555 1_555
H22 C40 1_555 1_555
C41 C40 1_555 1_555
C42 C41 1_555 1_555
C43 C38 1_555 1_555
C44 C43 1_555 1_555
H23 C44 1_555 1_555
C45 C44 1_555 1_555
H24 C45 1_555 1_555
C46 C45 1_555 1_555
H25 C46 1_555 1_555
C47 C42 1_555 1_555
H26 C47 1_555 1_555
C48 C41 1_555 1_555
C49 H27 1_555 1_555
C50 C49 1_555 1_555
H28 C50 1_555 1_555
C51 C50 1_555 1_555
C52 C51 1_555 1_555
H29 C52 1_555 1_555
C53 N1 1_555 1_555
H30 C53 1_555 1_555
C54 N4 1_555 1_555
C55 H31 1_555 1_555
C56 C55 1_555 1_555
H32 C56 1_555 1_555
C57 C56 1_555 1_555
C58 C57 1_555 1_555
H33 C58 1_555 1_555
C59 N2 1_555 1_555
H34 C59 1_555 1_555
C60 N4 1_555 1_555
C61 N5 1_555 1_555
C62 C61 1_555 1_555
C63 C62 1_555 1_555
H35 C63 1_555 1_555
C64 C63 1_555 1_555
H36 C64 1_555 1_555
C65 N3 1_555 1_555
H37 C65 1_555 1_555
C66 C62 1_555 1_555
H38 C66 1_555 1_555
C67 H39 1_555 1_555
C68 C67 1_555 1_555
H40 C68 1_555 1_555
C69 C68 1_555 1_555
C70 C69 1_555 1_555
H41 C70 1_555 1_555
C71 N6 1_555 1_555
H42 C71 1_555 1_555
C72 N9 1_555 1_555
C73 H43 1_555 1_555
C74 C73 1_555 1_555
H44 C74 1_555 1_555
C75 C74 1_555 1_555
C76 C75 1_555 1_555
H45 C76 1_555 1_555
C77 N7 1_555 1_555
H46 C77 1_555 1_555
C78 N10 1_555 1_555
C79 N9 1_555 1_555
C80 C79 1_555 1_555
C81 C80 1_555 1_555
H47 C81 1_555 1_555
C82 C81 1_555 1_555
H48 C82 1_555 1_555
C83 N8 1_555 1_555
H49 C83 1_555 1_555
C84 C80 1_555 1_555
H50 C84 1_555 1_555
Zn1 O3 1_555 1_555
Zn2 O4 1_555 1_555
Zn3 N3 1_555 1_555
Zn4 N2 1_555 1_555
O1_2 Zn3 1_555 1_555
O6_2 Zn3 1_555 1_555
O9_2 Zn4 1_555 1_555
O14_2 Zn4 1_555 1_555
N7_2 Zn4 1_555 1_555
N8_2 Zn3 1_555 1_555
Zn3_2 O1 1_555 1_555
Zn3_3 N8 1_555 1_555
Zn3_4 O6 1_555 1_555
Zn4_2 O14 1_555 1_555
Zn4_3 N7 1_555 1_555
Zn4_4 O9 1_555 1_555
O7 Zn2 1_555 1_555
O8 Zn1 1_555 1_555
O11 Zn2 1_555 1_555
O12 Zn1 1_555 1_555
O15 Zn1 1_555 1_555
O16 Zn2 1_555 1_555
N1 Zn1 1_555 1_555
N6 Zn2 1_555 1_555
C6 C7 1_555 1_555
C10 C11 1_555 1_555
C18 C19 1_555 1_555
C22 C23 1_555 1_555
C30 C31 1_555 1_555
C34 C35 1_555 1_555
C42 C43 1_555 1_555
C46 C47 1_555 1_555
C51 C54 1_555 1_555
C52 C53 1_555 1_555
C57 C60 1_555 1_555
C58 C59 1_555 1_555
C60 C61 1_555 1_555
C65 C66 1_555 1_555
C69 C72 1_555 1_555
C70 C71 1_555 1_555
C75 C78 1_555 1_555
C76 C77 1_555 1_555
C78 C79 1_555 1_555
C83 C84 1_555 1_555

#END
