
#######################################################################
#
#                 Cambridge Crystallographic Data Centre
#                                CCDC 
#
#######################################################################
#
# If this CIF has been generated from an entry in the Cambridge 
# Structural Database, then it will include bibliographic, chemical, 
# crystal, experimental, refinement or atomic coordinate data resulting 
# from the CCDC's data processing and validation procedures.
#
#######################################################################

data_MUNDOQ
_chemical_formula_moiety         '(C78 H56 Cu14 I8 N6 O31)n'
_symmetry_cell_setting           hexagonal
_symmetry_space_group_name_H-M   'P 63/m'
_symmetry_Int_Tables_number      176
_space_group_name_Hall           '-P 6c'
loop_
_symmetry_equiv_pos_site_id
_symmetry_equiv_pos_as_xyz
1 x,y,z
2 -y,x-y,z
3 -x+y,-x,z
4 -x,-y,1/2+z
5 y,-x+y,1/2+z
6 x-y,x,1/2+z
7 -x,-y,-z
8 y,-x+y,-z
9 x-y,x,-z
10 x,y,1/2-z
11 -y,x-y,1/2-z
12 -x+y,-x,1/2-z
_cell_length_a                   28.135(4)
_cell_length_b                   28.135(4)
_cell_length_c                   19.200(4)
_cell_angle_alpha                90
_cell_angle_beta                 90
_cell_angle_gamma                120
_cell_volume                     13162.1
loop_
_atom_site_label
_atom_site_type_symbol
_atom_site_fract_x
_atom_site_fract_y
_atom_site_fract_z
I1 I 0.22853(3) 0.59748(4) 0.42381(5)
I2 I 0.3333 0.6667 0.61259(7)
Cu1 Cu 0.29146(6) 0.68693(6) 0.49809(7)
Cu2 Cu 0.3333 0.6667 0.37955(17)
Cu3 Cu 0.23797(6) 0.89432(6) 0.7500
Cu4 Cu 0.32995(6) 0.89004(6) 0.7500
O1 O 0.2151(3) 0.8365(3) 0.6760(3)
O2 O 0.2942(3) 0.8342(3) 0.6791(3)
O3 O -0.0482(3) 0.6770(3) 0.3204(4)
O4 O -0.0531(3) 0.5944(3) 0.3197(4)
O5 O 0.3333 0.6667 0.2500
O6 O 0.1619(5) 0.8948(5) 0.7500
O7 O 0.4051(4) 0.8859(5) 0.7500
N1 N 0.2423(4) 0.7160(3) 0.5290(5)
C1 C 0.2567(4) 0.7530(4) 0.5817(5)
H1 H 0.2884 0.7621 0.6070
C2 C 0.2264(4) 0.7778(4) 0.5995(5)
C3 C 0.1765(4) 0.7612(4) 0.5638(5)
H2 H 0.1552 0.7771 0.5742
C4 C 0.1608(4) 0.7230(4) 0.5158(6)
C5 C 0.1946(5) 0.7028(5) 0.4948(6)
H3 H 0.1845 0.6796 0.4564
C6 C 0.2456(5) 0.8202(4) 0.6558(5)
C7 C 0.1090(5) 0.7020(5) 0.4716(6)
C8 C 0.0892(5) 0.7362(5) 0.4522(7)
H4 H 0.1068 0.7724 0.4676
C9 C 0.0429(5) 0.7167(5) 0.4097(6)
H5 H 0.0305 0.7404 0.3961
C10 C 0.0153(5) 0.6633(5) 0.3877(6)
C11 C 0.0325(5) 0.6293(5) 0.4082(6)
H6 H 0.0127 0.5926 0.3953
C12 C 0.0796(5) 0.6475(5) 0.4488(6)
H7 H 0.0916 0.6232 0.4609
C13 C -0.0343(4) 0.6426(6) 0.3384(5)
I1A I 0.40252(4) 0.63105(5) 0.42381(5)
Cu1A Cu 0.31307(6) 0.60453(8) 0.49809(7)
Cu3A Cu 0.10568(6) 0.34365(8) 0.7500
Cu4A Cu 0.10996(6) 0.43991(8) 0.7500
O1A O 0.1635(3) 0.3786(4) 0.6760(3)
O2A O 0.1658(3) 0.4600(4) 0.6791(3)
O3A O 0.3230(3) 0.2748(4) 0.3204(4)
O4A O 0.4056(3) 0.3525(4) 0.3197(4)
O6A O 0.1052(5) 0.2671(7) 0.7500
O7A O 0.1141(5) 0.5192(6) 0.7500
N1A N 0.2840(3) 0.5263(5) 0.5290(5)
C1A C 0.2470(4) 0.5037(6) 0.5817(5)
H1A H 0.2379 0.5263 0.6070
C2A C 0.2222(4) 0.4486(6) 0.5995(5)
C3A C 0.2388(4) 0.4153(6) 0.5638(5)
H2A H 0.2229 0.3781 0.5742
C4A C 0.2770(4) 0.4378(6) 0.5158(6)
C5A C 0.2972(5) 0.4918(7) 0.4948(6)
H3A H 0.3204 0.5049 0.4564
C6A C 0.1798(4) 0.4254(6) 0.6558(5)
C7A C 0.2980(5) 0.4070(7) 0.4716(6)
C8A C 0.2638(5) 0.3530(7) 0.4522(7)
H4A H 0.2276 0.3344 0.4676
C9A C 0.2833(5) 0.3262(7) 0.4097(6)
H5A H 0.2596 0.2901 0.3961
C10A C 0.3367(5) 0.3520(7) 0.3877(6)
C11A C 0.3707(5) 0.4032(7) 0.4082(6)
H6A H 0.4074 0.4201 0.3953
C12A C 0.3525(5) 0.4321(7) 0.4488(6)
H7A H 0.3768 0.4684 0.4609
C13A C 0.3574(6) 0.3231(7) 0.3384(5)
I1B I 0.36895(5) 0.77147(3) 0.42381(5)
Cu1B Cu 0.39547(8) 0.70854(6) 0.49809(7)
Cu3B Cu 0.65635(8) 0.76203(6) 0.7500
Cu4B Cu 0.56009(8) 0.67005(6) 0.7500
O1B O 0.6214(4) 0.7849(3) 0.6760(3)
O2B O 0.5400(4) 0.7058(3) 0.6791(3)
O3B O 0.7252(4) 1.0482(3) 0.3204(4)
O4B O 0.6475(4) 1.0531(3) 0.3197(4)
O6B O 0.7329(7) 0.8381(5) 0.7500
O7B O 0.4808(6) 0.5949(4) 0.7500
N1B N 0.4737(5) 0.7577(4) 0.5290(5)
C1B C 0.4963(6) 0.7433(4) 0.5817(5)
H1B H 0.4737 0.7116 0.6070
C2B C 0.5514(6) 0.7736(4) 0.5995(5)
C3B C 0.5847(6) 0.8235(4) 0.5638(5)
H2B H 0.6219 0.8448 0.5742
C4B C 0.5622(6) 0.8392(4) 0.5158(6)
C5B C 0.5082(7) 0.8054(5) 0.4948(6)
H3B H 0.4951 0.8155 0.4564
C6B C 0.5746(6) 0.7544(5) 0.6558(5)
C7B C 0.5930(7) 0.8910(5) 0.4716(6)
C8B C 0.6470(7) 0.9108(5) 0.4522(7)
H4B H 0.6656 0.8932 0.4676
C9B C 0.6738(7) 0.9571(5) 0.4097(6)
H5B H 0.7099 0.9695 0.3961
C10B C 0.6480(7) 0.9847(5) 0.3877(6)
C11B C 0.5968(7) 0.9675(5) 0.4082(6)
H6B H 0.5799 0.9873 0.3953
C12B C 0.5679(7) 0.9204(5) 0.4488(6)
H7B H 0.5316 0.9084 0.4609
C13B C 0.6769(7) 1.0343(4) 0.3384(5)
I1G I -0.40252(4) 0.36895(5) 0.57619(5)
I2F I -0.3333 0.3333 0.38741(7)
Cu1G Cu -0.31307(6) 0.39547(8) 0.50191(7)
Cu2F Cu -0.3333 0.3333 0.62045(17)
O1G O -0.1635(3) 0.6214(4) 0.3240(3)
O2G O -0.1658(3) 0.5400(4) 0.3209(3)
O3G O -0.3230(3) 0.7252(4) 0.6796(4)
O4G O -0.4056(3) 0.6475(4) 0.6803(4)
N1G N -0.2840(3) 0.4737(5) 0.4710(5)
C1G C -0.2470(4) 0.4963(6) 0.4183(5)
H1G H -0.2379 0.4737 0.3930
C2G C -0.2222(4) 0.5514(6) 0.4005(5)
C3G C -0.2388(4) 0.5847(6) 0.4362(5)
H2G H -0.2229 0.6219 0.4258
C4G C -0.2770(4) 0.5622(6) 0.4842(6)
C5G C -0.2972(5) 0.5082(7) 0.5052(6)
H3G H -0.3204 0.4951 0.5436
C6G C -0.1798(4) 0.5746(6) 0.3442(5)
C7G C -0.2980(5) 0.5930(7) 0.5284(6)
C8G C -0.2638(5) 0.6470(7) 0.5478(7)
H4G H -0.2276 0.6656 0.5324
C9G C -0.2833(5) 0.6738(7) 0.5903(6)
H5G H -0.2596 0.7099 0.6039
C10G C -0.3367(5) 0.6480(7) 0.6123(6)
C11G C -0.3707(5) 0.5968(7) 0.5918(6)
H6G H -0.4074 0.5799 0.6047
C12G C -0.3525(5) 0.5679(7) 0.5512(6)
H7G H -0.3768 0.5316 0.5391
C13G C -0.3574(6) 0.6769(7) 0.6616(5)
I1H I 0.63105(5) 1.22853(3) 0.57619(5)
Cu1H Cu 0.60453(8) 1.29146(6) 0.50191(7)
O1H O 0.3786(4) 1.2151(3) 0.3240(3)
O2H O 0.4600(4) 1.2942(3) 0.3209(3)
O3H O 0.2748(4) 0.9518(3) 0.6796(4)
O4H O 0.3525(4) 0.9469(3) 0.6803(4)
N1H N 0.5263(5) 1.2423(4) 0.4710(5)
C1H C 0.5037(6) 1.2567(4) 0.4183(5)
H1H H 0.5263 1.2884 0.3930
C2H C 0.4486(6) 1.2264(4) 0.4005(5)
C3H C 0.4153(6) 1.1765(4) 0.4362(5)
H2H H 0.3781 1.1552 0.4258
C4H C 0.4378(6) 1.1608(4) 0.4842(6)
C5H C 0.4918(7) 1.1946(5) 0.5052(6)
H3H H 0.5049 1.1845 0.5436
C6H C 0.4254(6) 1.2456(5) 0.3442(5)
C7H C 0.4070(7) 1.1090(5) 0.5284(6)
C8H C 0.3530(7) 1.0892(5) 0.5478(7)
H4H H 0.3344 1.1068 0.5324
C9H C 0.3262(7) 1.0429(5) 0.5903(6)
H5H H 0.2901 1.0305 0.6039
C10H C 0.3520(7) 1.0153(5) 0.6123(6)
C11H C 0.4032(7) 1.0325(5) 0.5918(6)
H6H H 0.4201 1.0127 0.6047
C12H C 0.4321(7) 1.0796(5) 0.5512(6)
H7H H 0.4684 1.0916 0.5391
C13H C 0.3231(7) 0.9657(4) 0.6616(5)
I1F I -0.22853(3) 0.40252(4) 0.57619(5)
Cu1F Cu -0.29146(6) 0.31307(6) 0.50191(7)
O1F O -0.2151(3) 0.1635(3) 0.3240(3)
O2F O -0.2942(3) 0.1658(3) 0.3209(3)
O3F O 0.0482(3) 0.3230(3) 0.6796(4)
O4F O 0.0531(3) 0.4056(3) 0.6803(4)
N1F N -0.2423(4) 0.2840(3) 0.4710(5)
C1F C -0.2567(4) 0.2470(4) 0.4183(5)
H1F H -0.2884 0.2379 0.3930
C2F C -0.2264(4) 0.2222(4) 0.4005(5)
C3F C -0.1765(4) 0.2388(4) 0.4362(5)
H2F H -0.1552 0.2229 0.4258
C4F C -0.1608(4) 0.2770(4) 0.4842(6)
C5F C -0.1946(5) 0.2972(5) 0.5052(6)
H3F H -0.1845 0.3204 0.5436
C6F C -0.2456(5) 0.1798(4) 0.3442(5)
C7F C -0.1090(5) 0.2980(5) 0.5284(6)
C8F C -0.0892(5) 0.2638(5) 0.5478(7)
H4F H -0.1068 0.2276 0.5324
C9F C -0.0429(5) 0.2833(5) 0.5903(6)
H5F H -0.0305 0.2596 0.6039
C10F C -0.0153(5) 0.3367(5) 0.6123(6)
C11F C -0.0325(5) 0.3707(5) 0.5918(6)
H6F H -0.0127 0.4074 0.6047
C12F C -0.0796(5) 0.3525(5) 0.5512(6)
H7F H -0.0916 0.3768 0.5391
C13F C 0.0343(4) 0.3574(6) 0.6616(5)
I1G_2 I 0.59748(4) 1.36895(5) 0.57619(5)
I1H_2 I -0.36895(5) 0.22853(3) 0.57619(5)
I2F_2 I 0.6667 1.3333 0.38741(7)
Cu1F_2 Cu 0.70854(6) 1.31307(6) 0.50191(7)
Cu1H_2 Cu -0.39547(8) 0.29146(6) 0.50191(7)
Cu2F_2 Cu 0.6667 1.3333 0.62045(17)
Cu2I Cu 0.3333 0.6667 0.12045(17)
Cu3B_2 Cu -0.34365(8) 0.76203(6) 0.7500
Cu3C Cu -0.23797(6) 0.10568(6) 0.2500
Cu3C_2 Cu 0.76203(6) 1.10568(6) 0.2500
Cu3D Cu -0.10568(6) 0.65635(8) 0.2500
Cu3E Cu 0.34365(8) 0.23797(6) 0.2500
Cu3E_2 Cu 0.34365(8) 1.23797(6) 0.2500
Cu4B_2 Cu -0.43991(8) 0.67005(6) 0.7500
Cu4C Cu -0.32995(6) 0.10996(6) 0.2500
Cu4C_2 Cu 0.67005(6) 1.10996(6) 0.2500
Cu4D Cu -0.10996(6) 0.56009(8) 0.2500
Cu4E Cu 0.43991(8) 0.32995(6) 0.2500
Cu4E_2 Cu 0.43991(8) 1.32995(6) 0.2500
O1I O 0.2151(3) 0.8365(3) 0.8240(3)
O1J O 0.1635(3) 0.3786(4) 0.8240(3)
O1K O 0.6214(4) 0.7849(3) 0.8240(3)
O2I O 0.2942(3) 0.8342(3) 0.8209(3)
O2J O 0.1658(3) 0.4600(4) 0.8209(3)
O2K O 0.5400(4) 0.7058(3) 0.8209(3)
O3C O 0.0482(3) 0.3230(3) 0.8204(4)
O3D O 0.6770(3) 0.7252(4) 0.8204(4)
O3E O 0.2748(4) 0.9518(3) 0.8204(4)
O3G_2 O 0.6770(3) 0.7252(4) 0.6796(4)
O4C O 0.0531(3) 0.4056(3) 0.8197(4)
O4D O 0.5944(3) 0.6475(4) 0.8197(4)
O4E O 0.3525(4) 0.9469(3) 0.8197(4)
O4G_2 O 0.5944(3) 0.6475(4) 0.6803(4)
O5C O -0.3333 0.3333 0.7500
loop_
_geom_bond_atom_site_label_1
_geom_bond_atom_site_label_2
_geom_bond_site_symmetry_1
_geom_bond_site_symmetry_2
I1 Cu1 1_555 1_555
I2 Cu1 1_555 1_555
Cu1 N1 1_555 1_555
Cu2 I1 1_555 1_555
Cu3 O1 1_555 1_555
Cu4 O2 1_555 1_555
O1 C6 1_555 1_555
O2 C6 1_555 1_555
O3 C13 1_555 1_555
O4 C13 1_555 1_555
O5 Cu2 1_555 1_555
O6 Cu3 1_555 1_555
O7 Cu4 1_555 1_555
N1 C1 1_555 1_555
C1 H1 1_555 1_555
C2 C1 1_555 1_555
C3 C2 1_555 1_555
H2 C3 1_555 1_555
C4 C3 1_555 1_555
C5 N1 1_555 1_555
H3 C5 1_555 1_555
C6 C2 1_555 1_555
C7 C4 1_555 1_555
C8 C7 1_555 1_555
H4 C8 1_555 1_555
C9 C8 1_555 1_555
H5 C9 1_555 1_555
C10 C9 1_555 1_555
C11 C10 1_555 1_555
H6 C11 1_555 1_555
C12 C7 1_555 1_555
H7 C12 1_555 1_555
C13 C10 1_555 1_555
I1A Cu2 1_555 1_555
Cu1A I1 1_555 1_555
Cu3A O1A 1_555 1_555
Cu4A O2A 1_555 1_555
O1A C6A 1_555 1_555
O2A C6A 1_555 1_555
O3A C13A 1_555 1_555
O4A C13A 1_555 1_555
O6A Cu3A 1_555 1_555
O7A Cu4A 1_555 1_555
N1A Cu1A 1_555 1_555
C1A N1A 1_555 1_555
H1A C1A 1_555 1_555
C2A C1A 1_555 1_555
C3A C2A 1_555 1_555
H2A C3A 1_555 1_555
C4A C3A 1_555 1_555
C5A N1A 1_555 1_555
H3A C5A 1_555 1_555
C6A C2A 1_555 1_555
C7A C4A 1_555 1_555
C8A C7A 1_555 1_555
H4A C8A 1_555 1_555
C9A C8A 1_555 1_555
H5A C9A 1_555 1_555
C10A C9A 1_555 1_555
C11A C10A 1_555 1_555
H6A C11A 1_555 1_555
C12A C7A 1_555 1_555
H7A C12A 1_555 1_555
C13A C10A 1_555 1_555
I1B Cu1 1_555 1_555
Cu1B I2 1_555 1_555
Cu3B O1B 1_555 1_555
Cu4B O2B 1_555 1_555
O1B C6B 1_555 1_555
O2B C6B 1_555 1_555
O3B C13B 1_555 1_555
O4B C13B 1_555 1_555
O6B Cu3B 1_555 1_555
O7B Cu4B 1_555 1_555
N1B Cu1B 1_555 1_555
C1B N1B 1_555 1_555
H1B C1B 1_555 1_555
C2B C1B 1_555 1_555
C3B C2B 1_555 1_555
H2B C3B 1_555 1_555
C4B C3B 1_555 1_555
C5B N1B 1_555 1_555
H3B C5B 1_555 1_555
C6B C2B 1_555 1_555
C7B C4B 1_555 1_555
C8B C7B 1_555 1_555
H4B C8B 1_555 1_555
C9B C8B 1_555 1_555
H5B C9B 1_555 1_555
C10B C9B 1_555 1_555
C11B C10B 1_555 1_555
H6B C11B 1_555 1_555
C12B C7B 1_555 1_555
H7B C12B 1_555 1_555
C13B C10B 1_555 1_555
I1G Cu1G 1_555 1_555
I2F Cu1G 1_555 1_555
Cu1G N1G 1_555 1_555
Cu2F I1G 1_555 1_555
O1G C6G 1_555 1_555
O2G C6G 1_555 1_555
O3G C13G 1_555 1_555
O4G C13G 1_555 1_555
N1G C1G 1_555 1_555
C1G H1G 1_555 1_555
C2G C1G 1_555 1_555
C3G C2G 1_555 1_555
H2G C3G 1_555 1_555
C4G C3G 1_555 1_555
C5G N1G 1_555 1_555
H3G C5G 1_555 1_555
C6G C2G 1_555 1_555
C7G C4G 1_555 1_555
C8G C7G 1_555 1_555
H4G C8G 1_555 1_555
C9G C8G 1_555 1_555
H5G C9G 1_555 1_555
C10G C9G 1_555 1_555
C11G C10G 1_555 1_555
H6G C11G 1_555 1_555
C12G C7G 1_555 1_555
H7G C12G 1_555 1_555
C13G C10G 1_555 1_555
I1H Cu1H 1_555 1_555
Cu1H N1H 1_555 1_555
O1H C6H 1_555 1_555
O2H C6H 1_555 1_555
O3H Cu3 1_555 1_555
O4H Cu4 1_555 1_555
N1H C1H 1_555 1_555
C1H H1H 1_555 1_555
C2H C1H 1_555 1_555
C3H C2H 1_555 1_555
H2H C3H 1_555 1_555
C4H C3H 1_555 1_555
C5H N1H 1_555 1_555
H3H C5H 1_555 1_555
C6H C2H 1_555 1_555
C7H C4H 1_555 1_555
C8H C7H 1_555 1_555
H4H C8H 1_555 1_555
C9H C8H 1_555 1_555
H5H C9H 1_555 1_555
C10H C9H 1_555 1_555
C11H C10H 1_555 1_555
H6H C11H 1_555 1_555
C12H C7H 1_555 1_555
H7H C12H 1_555 1_555
C13H O3H 1_555 1_555
I1F Cu1G 1_555 1_555
Cu1F I2F 1_555 1_555
O1F C6F 1_555 1_555
O2F C6F 1_555 1_555
O3F Cu3A 1_555 1_555
O4F Cu4A 1_555 1_555
N1F Cu1F 1_555 1_555
C1F N1F 1_555 1_555
H1F C1F 1_555 1_555
C2F C1F 1_555 1_555
C3F C2F 1_555 1_555
H2F C3F 1_555 1_555
C4F C3F 1_555 1_555
C5F N1F 1_555 1_555
H3F C5F 1_555 1_555
C6F C2F 1_555 1_555
C7F C4F 1_555 1_555
C8F C7F 1_555 1_555
H4F C8F 1_555 1_555
C9F C8F 1_555 1_555
H5F C9F 1_555 1_555
C10F C9F 1_555 1_555
C11F C10F 1_555 1_555
H6F C11F 1_555 1_555
C12F C7F 1_555 1_555
H7F C12F 1_555 1_555
C13F O3F 1_555 1_555
I1G_2 Cu1H 1_555 1_555
I1H_2 Cu2F 1_555 1_555
I2F_2 Cu1H 1_555 1_555
Cu1F_2 I1H 1_555 1_555
Cu1H_2 I1G 1_555 1_555
Cu2F_2 I1H 1_555 1_555
Cu2I O5 1_555 1_555
Cu3B_2 O3G 1_555 1_555
Cu3C O1F 1_555 1_555
Cu3C_2 O3B 1_555 1_555
Cu3D O3 1_555 1_555
Cu3E O3A 1_555 1_555
Cu3E_2 O1H 1_555 1_555
Cu4B_2 O4G 1_555 1_555
Cu4C O2F 1_555 1_555
Cu4C_2 O4B 1_555 1_555
Cu4D O4 1_555 1_555
Cu4E O4A 1_555 1_555
Cu4E_2 O2H 1_555 1_555
O1I Cu3 1_555 1_555
O1J Cu3A 1_555 1_555
O1K Cu3B 1_555 1_555
O2I Cu4 1_555 1_555
O2J Cu4A 1_555 1_555
O2K Cu4B 1_555 1_555
O3C Cu3A 1_555 1_555
O3D Cu3B 1_555 1_555
O3E Cu3 1_555 1_555
O3G_2 Cu3B 1_555 1_555
O4C Cu4A 1_555 1_555
O4D Cu4B 1_555 1_555
O4E Cu4 1_555 1_555
O4G_2 Cu4B 1_555 1_555
O5C Cu2F 1_555 1_555
I2 Cu1A 1_555 1_555
Cu2 I1B 1_555 1_555
C4 C5 1_555 1_555
C11 C12 1_555 1_555
I1A Cu1A 1_555 1_555
I1A Cu1B 1_555 1_555
C4A C5A 1_555 1_555
C11A C12A 1_555 1_555
I1B Cu1B 1_555 1_555
C4B C5B 1_555 1_555
C11B C12B 1_555 1_555
I2F Cu1H_2 1_555 1_555
Cu2F I1F 1_555 1_555
O1G Cu3D 1_555 1_555
O2G Cu4D 1_555 1_555
C4G C5G 1_555 1_555
C11G C12G 1_555 1_555
O4H C13H 1_555 1_555
C4H C5H 1_555 1_555
C10H C13H 1_555 1_555
C11H C12H 1_555 1_555
I1F Cu1F 1_555 1_555
Cu1F I1H_2 1_555 1_555
O4F C13F 1_555 1_555
C4F C5F 1_555 1_555
C10F C13F 1_555 1_555
C11F C12F 1_555 1_555
I1G_2 Cu2F_2 1_555 1_555
I1H_2 Cu1H_2 1_555 1_555
I2F_2 Cu1F_2 1_555 1_555

#END
