
#######################################################################
#
#                 Cambridge Crystallographic Data Centre
#                                CCDC 
#
#######################################################################
#
# If this CIF has been generated from an entry in the Cambridge 
# Structural Database, then it will include bibliographic, chemical, 
# crystal, experimental, refinement or atomic coordinate data resulting 
# from the CCDC's data processing and validation procedures.
#
#######################################################################

data_MUPTAU
_chemical_formula_moiety         '(C12 H14 Cl1 N24 O5 Zn1 1+)n'
_symmetry_cell_setting           monoclinic
_symmetry_space_group_name_H-M   'P 21/n'
_symmetry_Int_Tables_number      14
_space_group_name_Hall           '-P 2yn'
loop_
_symmetry_equiv_pos_site_id
_symmetry_equiv_pos_as_xyz
1 x,y,z
2 1/2-x,1/2+y,1/2-z
3 -x,-y,-z
4 1/2+x,1/2-y,1/2+z
_cell_length_a                   8.1860(16)
_cell_length_b                   20.160(4)
_cell_length_c                   8.9521(18)
_cell_angle_alpha                90
_cell_angle_beta                 91.04(3)
_cell_angle_gamma                90
_cell_volume                     1477.12
loop_
_atom_site_label
_atom_site_type_symbol
_atom_site_fract_x
_atom_site_fract_y
_atom_site_fract_z
Zn1 Zn 0.5000 -0.0000 1.0000
N1 N 0.6498(3) 0.07245(10) 0.8896(2)
N2 N 0.8197(3) 0.07666(12) 0.9013(3)
N3 N 0.7235(3) 0.16316(11) 0.7835(3)
N4 N 0.6974(3) 0.22612(12) 0.7234(3)
N5 N 0.8263(3) 0.25718(12) 0.7247(3)
N6 N 0.7978(3) 0.32031(11) 0.6670(3)
N7 N 0.8604(3) 0.41846(10) 0.5911(2)
N8 N 0.6928(3) 0.41152(13) 0.5754(3)
N9 N 0.3399(3) -0.00323(9) 0.8044(2)
N10 N 0.4165(3) -0.00335(12) 0.6664(3)
N11 N 0.1528(3) -0.00139(10) 0.6308(2)
N12 N -0.0033(3) 0.00008(10) 0.5694(3)
C1 C 0.5961(3) 0.12419(13) 0.8193(3)
H1 H 0.4869 0.1332 0.7970
C2 C 0.8603(4) 0.13204(15) 0.8383(4)
H2 H 0.9663 0.1482 0.8315
C3 C 0.9191(4) 0.36429(14) 0.6476(4)
H3 H 1.0286 0.3569 0.6713
C4 C 0.6582(4) 0.35184(17) 0.6218(4)
H4 H 0.5539 0.3336 0.6237
C5 C 0.1824(3) -0.00201(11) 0.7806(3)
H5 H 0.1034 -0.0016 0.8540
C6 C 0.3023(4) -0.00215(14) 0.5650(3)
H6 H 0.3192 -0.0019 0.4626
N9B N -0.3399(3) 0.00323(9) 0.1956(2)
N10B N -0.4165(3) 0.00335(12) 0.3336(3)
N11B N -0.1528(3) 0.00139(10) 0.3692(2)
N12B N 0.0033(3) -0.00008(10) 0.4306(3)
C5B C -0.1824(3) 0.00201(11) 0.2194(3)
H5B H -0.1034 0.0016 0.1460
C6B C -0.3023(4) 0.00215(14) 0.4350(3)
H6B H -0.3192 0.0019 0.5374
N1B N 0.3502(3) -0.07245(10) 1.1104(2)
N2B N 0.1803(3) -0.07666(12) 1.0987(3)
N3B N 0.2765(3) -0.16316(11) 1.2165(3)
N4B N 0.3026(3) -0.22612(12) 1.2766(3)
N5B N 0.1737(3) -0.25718(12) 1.2753(3)
N6B N 0.2022(3) -0.32031(11) 1.3330(3)
N7B N 0.1396(3) -0.41846(10) 1.4089(2)
N8B N 0.3072(3) -0.41152(13) 1.4246(3)
C1B C 0.4039(3) -0.12419(13) 1.1807(3)
H1B H 0.5131 -0.1332 1.2030
C2B C 0.1397(4) -0.13204(15) 1.1617(4)
H2B H 0.0337 -0.1482 1.1685
C3B C 0.0809(4) -0.36429(14) 1.3524(4)
H3B H -0.0286 -0.3569 1.3287
C4B C 0.3418(4) -0.35184(17) 1.3782(4)
H4B H 0.4461 -0.3336 1.3763
Zn1_2 Zn -0.5000 0.0000 0.0000
Zn1A Zn 0.0000 -0.5000 1.5000
Zn1A_2 Zn 1.0000 0.5000 0.5000
N7A N 0.6396(3) -0.08154(10) 0.9089(2)
N7C N 0.3604(3) 0.08154(10) 1.0911(2)
N9B_2 N 0.6601(3) 0.00323(9) 1.1956(2)
Cl1 Cl 0.22709(13) 0.19322(6) 0.59154(12)
O1 O 0.2313(13) 0.1863(5) 0.7519(7)
O2 O 0.3575(12) 0.1601(5) 0.5186(11)
O3 O 0.2449(16) 0.2632(3) 0.5820(10)
O4 O 0.0732(10) 0.1714(7) 0.5370(12)
O9 O 0.7940(10) 0.1619(4) 0.3520(12)
loop_
_geom_bond_atom_site_label_1
_geom_bond_atom_site_label_2
_geom_bond_site_symmetry_1
_geom_bond_site_symmetry_2
Zn1 N1 1_555 1_555
N1 N2 1_555 1_555
N2 C2 1_555 1_555
N3 N4 1_555 1_555
N4 N5 1_555 1_555
N5 N6 1_555 1_555
N6 C3 1_555 1_555
N7 N8 1_555 1_555
N8 C4 1_555 1_555
N9 Zn1 1_555 1_555
N10 N9 1_555 1_555
N11 N12 1_555 1_555
N12 N12B 1_555 1_555
C1 N1 1_555 1_555
H1 C1 1_555 1_555
C2 N3 1_555 1_555
H2 C2 1_555 1_555
C3 N7 1_555 1_555
H3 C3 1_555 1_555
C4 N6 1_555 1_555
H4 C4 1_555 1_555
C5 N9 1_555 1_555
H5 C5 1_555 1_555
C6 N10 1_555 1_555
H6 C6 1_555 1_555
Cl1 O1 1_555 1_555
O2 Cl1 1_555 1_555
O3 Cl1 1_555 1_555
O4 Cl1 1_555 1_555
N9B N10B 1_555 1_555
N10B C6B 1_555 1_555
N11B N12B 1_555 1_555
C5B N9B 1_555 1_555
H5B C5B 1_555 1_555
C6B N11B 1_555 1_555
H6B C6B 1_555 1_555
N1B Zn1 1_555 1_555
N2B N1B 1_555 1_555
N3B N4B 1_555 1_555
N4B N5B 1_555 1_555
N5B N6B 1_555 1_555
N6B C3B 1_555 1_555
N7B N8B 1_555 1_555
N8B C4B 1_555 1_555
C1B N1B 1_555 1_555
H1B C1B 1_555 1_555
C2B N2B 1_555 1_555
H2B C2B 1_555 1_555
C3B N7B 1_555 1_555
H3B C3B 1_555 1_555
C4B N6B 1_555 1_555
H4B C4B 1_555 1_555
Zn1_2 N9B 1_555 1_555
Zn1A N7B 1_555 1_555
Zn1A_2 N7 1_555 1_555
N7A Zn1 1_555 1_555
N7C Zn1 1_555 1_555
N9B_2 Zn1 1_555 1_555
N3 C1 1_555 1_555
N11 C5 1_555 1_555
N11 C6 1_555 1_555
N11B C5B 1_555 1_555
N3B C1B 1_555 1_555
N3B C2B 1_555 1_555

#END
