
#######################################################################
#
#                 Cambridge Crystallographic Data Centre
#                                CCDC 
#
#######################################################################
#
# If this CIF has been generated from an entry in the Cambridge 
# Structural Database, then it will include bibliographic, chemical, 
# crystal, experimental, refinement or atomic coordinate data resulting 
# from the CCDC's data processing and validation procedures.
#
#######################################################################

data_MUSCIN
_chemical_formula_moiety         '(C60 H60 Ce2 N6 O24 S3)n'
_symmetry_cell_setting           monoclinic
_symmetry_space_group_name_H-M   'P 21/c'
_symmetry_Int_Tables_number      14
_space_group_name_Hall           '-P 2ybc'
loop_
_symmetry_equiv_pos_site_id
_symmetry_equiv_pos_as_xyz
1 x,y,z
2 -x,1/2+y,1/2-z
3 -x,-y,-z
4 x,1/2-y,1/2+z
_cell_length_a                   19.711(4)
_cell_length_b                   18.928(4)
_cell_length_c                   23.826(5)
_cell_angle_alpha                90
_cell_angle_beta                 116.74(3)
_cell_angle_gamma                90
_cell_volume                     7938.6
loop_
_atom_site_label
_atom_site_type_symbol
_atom_site_fract_x
_atom_site_fract_y
_atom_site_fract_z
Ce1 Ce 0.40374(2) 0.986238(18) 0.024158(14)
Ce2 Ce 0.097502(19) 1.003948(18) -0.016414(14)
O1 O 0.2281(2) 0.9995(2) 0.07096(17)
O2 O 0.3298(2) 1.0479(3) 0.06731(19)
C1 C 0.2836(3) 1.0416(4) 0.0905(3)
C2 C 0.2981(3) 1.0861(4) 0.1475(3)
C3 C 0.2627(4) 1.0707(3) 0.1853(3)
H1 H 0.2294 1.0326 0.1749
C4 C 0.3464(4) 1.1440(4) 0.1609(3)
H2 H 0.3701 1.1552 0.1361
C5 C 0.2758(4) 1.1108(3) 0.2379(3)
H3 H 0.2529 1.0991 0.2633
C6 C 0.3576(4) 1.1843(4) 0.2131(3)
C7 C 0.3236(4) 1.1684(3) 0.2518(3)
C8 C 0.3438(4) 1.2204(3) 0.3037(3)
C9 C 0.3951(4) 1.2725(3) 0.3040(3)
C10 C 0.3176(4) 1.2240(3) 0.3488(3)
H4 H 0.2838 1.1905 0.3500
C11 C 0.4219(4) 1.3257(4) 0.3474(3)
H5 H 0.4571 1.3583 0.3471
C12 C 0.3434(4) 1.2792(3) 0.3923(3)
H6 H 0.3256 1.2823 0.4224
C13 C 0.3942(4) 1.3292(3) 0.3924(3)
C14 C 0.4171(5) 1.3884(4) 0.4395(3)
O3 O 0.4731(4) 1.4254(4) 0.4449(3)
O4 O 0.3811(3) 1.3980(2) 0.4696(2)
S1 S 0.41444(11) 1.26127(11) 0.23875(9)
O5 O 0.3821(3) 1.3183(3) 0.1940(2)
O6 O 0.4929(3) 1.2449(3) 0.2585(2)
O7 O 0.5019(2) 0.9245(2) -0.09258(18)
O8 O 0.4102(4) 0.9392(5) -0.0656(3)
C15 C 0.4376(4) 0.9108(4) -0.0976(3)
C16 C 0.3867(4) 0.8614(4) -0.1486(3)
C17 C 0.4163(4) 0.8173(4) -0.1790(3)
H7 H 0.4674 0.8211 -0.1696
C18 C 0.3092(4) 0.8589(4) -0.1645(3)
H8 H 0.2885 0.8879 -0.1447
C19 C 0.2647(3) 0.8121(3) -0.2104(3)
C20 C 0.2929(4) 0.7656(3) -0.2401(3)
C21 C 0.3708(4) 0.7675(4) -0.2233(3)
H9 H 0.3919 0.7363 -0.2413
C22 C 0.2358(3) 0.7169(3) -0.2839(3)
C23 C 0.1629(3) 0.7275(3) -0.2882(3)
C24 C 0.2463(4) 0.6618(3) -0.3177(3)
H10 H 0.2942 0.6532 -0.3150
C25 C 0.1023(3) 0.6863(3) -0.3250(3)
H11 H 0.0548 0.6944 -0.3270
C26 C 0.1856(3) 0.6199(3) -0.3553(3)
H12 H 0.1930 0.5833 -0.3780
C27 C 0.1132(3) 0.6314(3) -0.3599(3)
C28 C 0.0469(4) 0.5859(3) -0.4017(3)
O9 O -0.0118(2) 0.5860(2) -0.39373(18)
S2 S 0.16448(9) 0.80209(9) -0.24154(7)
O10 O 0.1261(3) 0.8615(2) -0.2821(2)
O11 O 0.1433(3) 0.7842(3) -0.19326(19)
O12 O 0.0868(2) 1.3994(2) -0.44956(17)
O13 O 0.0016(2) 1.4178(2) -0.41273(18)
C29 C 0.0547(4) 1.3837(3) -0.4165(3)
C30 C 0.0822(3) 1.3182(3) -0.3756(3)
C31 C 0.1462(3) 1.2816(3) -0.3714(3)
H13 H 0.1692 1.2963 -0.3960
C32 C 0.0461(3) 1.2948(3) -0.3408(3)
H14 H 0.0030 1.3178 -0.3435
C33 C 0.0749(4) 1.2365(3) -0.3021(3)
C34 C 0.1762(3) 1.2243(3) -0.3317(3)
H15 H 0.2189 1.2012 -0.3295
C35 C 0.1421(3) 1.2016(3) -0.2951(3)
C36 C 0.1662(3) 1.1453(3) -0.2470(3)
C37 C 0.2310(4) 1.1032(3) -0.2236(3)
H16 H 0.2654 1.1071 -0.2403
C38 C 0.1161(4) 1.1373(3) -0.2198(3)
C39 C 0.1270(4) 1.0898(3) -0.1727(3)
H17 H 0.0917 1.0854 -0.1569
C40 C 0.2446(3) 1.0547(3) -0.1747(3)
H18 H 0.2880 1.0267 -0.1592
C41 C 0.1928(4) 1.0486(3) -0.1494(3)
C42 C 0.2065(4) 0.9979(3) -0.0962(3)
O14 O 0.0353(3) 1.2446(2) -0.2094(2)
S3 S 0.03828(10) 1.19598(9) -0.25445(8)
O15 O -0.0301(3) 1.1563(3) -0.2928(2)
O16 O 0.2734(3) 0.9767(2) -0.06378(19)
O17 O 0.1500(2) 0.9793(2) -0.08878(17)
O18 O 0.0535(2) 0.5481(2) -0.44356(17)
O19 O 0.1424(3) 0.8762(3) 0.00459(19)
C43 C 0.1552(5) 0.8334(4) -0.0255(3)
H19 H 0.1761 0.8493 -0.0512
N1 N 0.1427(5) 0.7674(4) -0.0257(3)
C44 C 0.1658(9) 0.7192(8) -0.0611(6)
H20 H 0.1528 0.6717 -0.0555
H21 H 0.2198 0.7225 -0.0465
H22 H 0.1403 0.7313 -0.1049
C45 C 0.1048(6) 0.7396(5) 0.0077(5)
H23 H 0.1001 0.6893 0.0021
H24 H 0.0551 0.7603 -0.0080
H25 H 0.1334 0.7503 0.0515
O20 O 0.3631(4) 0.8626(3) 0.0287(4)
C46 C 0.3868(7) 0.8043(6) 0.0280(6)
H26 H 0.4093 0.7948 0.0019
N2 N 0.3812(6) 0.7527(4) 0.0643(4)
C47 C 0.3420(7) 0.7607(7) 0.0988(5)
H27 H 0.3453 0.7180 0.1216
H28 H 0.2896 0.7707 0.0711
H29 H 0.3633 0.7991 0.1278
C48 C 0.4244(8) 0.6879(6) 0.0727(6)
H30 H 0.4489 0.6889 0.0458
H31 H 0.3907 0.6481 0.0620
H32 H 0.4620 0.6841 0.1157
O21 O 0.1698(3) 1.1129(2) -0.02313(19)
C49 C 0.2063(5) 1.1668(5) -0.0163(3)
H33 H 0.2577 1.1607 -0.0047
N3 N 0.1821(4) 1.2330(3) -0.0232(3)
C50 C 0.2284(7) 1.2936(5) -0.0171(6)
H34 H 0.1979 1.3355 -0.0261
H35 H 0.2497 1.2899 -0.0462
H36 H 0.2687 1.2960 0.0250
C51 C 0.1018(4) 1.2460(5) -0.0443(4)
H37 H 0.0923 1.2959 -0.0484
H38 H 0.0868 1.2270 -0.0142
H39 H 0.0731 1.2235 -0.0842
O22 O 0.4509(4) 0.9536(3) 0.1430(2)
C52 C 0.4709(6) 0.9983(4) 0.1862(3)
H40 H 0.4841 1.0431 0.1784
N4 N 0.4747(4) 0.9867(3) 0.2421(2)
C53 C 0.4521(5) 0.9196(5) 0.2574(4)
H41 H 0.4592 0.9206 0.2999
H42 H 0.4826 0.8826 0.2528
H43 H 0.3996 0.9110 0.2295
C54 C 0.4965(6) 1.0419(5) 0.2895(3)
H44 H 0.4963 1.0232 0.3269
H45 H 0.4610 1.0803 0.2739
H46 H 0.5465 1.0585 0.2991
Ce1A Ce 0.59626(2) 1.486238(18) 0.475842(14)
Ce1C Ce 0.40374(2) 1.513762(18) 0.524158(14)
Ce1B Ce 0.59626(2) 1.013762(18) -0.024158(14)
Ce2A Ce -0.097502(19) 0.503948(18) -0.483586(14)
Ce2C Ce 0.097502(19) 1.496052(18) -0.516414(14)
Ce2A_2 Ce -0.097502(19) 1.503948(18) -0.483586(14)
Ce2C_2 Ce 0.097502(19) 0.496052(18) -0.516414(14)
O3A O 0.5269(4) 0.9254(4) 0.0551(3)
O4C O 0.3811(3) 1.1020(2) -0.0304(2)
O7B O 0.4981(2) 1.0755(2) 0.09258(18)
O9A O 0.0118(2) 1.0860(2) -0.10627(18)
O12C O 0.0868(2) 1.1006(2) 0.05044(17)
O13A O -0.0016(2) 0.9178(2) -0.08727(18)
O18C O 0.0535(2) 0.9519(2) 0.05644(17)
O18A O -0.0535(2) 1.0481(2) -0.05644(17)
O23 O 0.1942(3) 1.1003(3) 0.3369(2)
C55 C 0.1244(4) 1.0996(4) 0.3125(3)
H47 H 0.1008 1.1338 0.3257
N5 N 0.0799(3) 1.0542(3) 0.2690(2)
C56 C -0.0019(4) 1.0588(4) 0.2414(4)
H48 H -0.0240 1.0222 0.2106
H49 H -0.0181 1.1041 0.2217
H50 H -0.0180 1.0532 0.2737
C57 C 0.1111(4) 1.0007(4) 0.2443(3)
H51 H 0.0705 0.9736 0.2130
H52 H 0.1435 0.9701 0.2778
H53 H 0.1400 1.0228 0.2258
O24 O 0.3698(9) 0.9563(9) 0.3509(7)
C58 C 0.3309(15) 0.9842(15) 0.3759(12)
H54 H 0.3303 1.0311 0.3873
N6 N 0.2894(8) 0.9272(8) 0.3819(6)
C59 C 0.2302(12) 0.9438(11) 0.4044(10)
H55 H 0.2086 0.9005 0.4102
H56 H 0.1908 0.9725 0.3737
H57 H 0.2537 0.9688 0.4436
C60 C 0.3090(11) 0.8550(10) 0.3854(9)
H58 H 0.2731 0.8273 0.3930
H59 H 0.3590 0.8480 0.4191
H60 H 0.3081 0.8405 0.3464
loop_
_geom_bond_atom_site_label_1
_geom_bond_atom_site_label_2
_geom_bond_site_symmetry_1
_geom_bond_site_symmetry_2
Ce1 O2 1_555 1_555
Ce2 O1 1_555 1_555
O1 C1 1_555 1_555
O2 C1 1_555 1_555
C1 C2 1_555 1_555
C2 C3 1_555 1_555
C3 H1 1_555 1_555
C4 C2 1_555 1_555
H2 C4 1_555 1_555
C5 C3 1_555 1_555
H3 C5 1_555 1_555
C6 C4 1_555 1_555
C7 C5 1_555 1_555
C8 C7 1_555 1_555
C9 C8 1_555 1_555
C10 C8 1_555 1_555
H4 C10 1_555 1_555
C11 C9 1_555 1_555
H5 C11 1_555 1_555
C12 C10 1_555 1_555
H6 C12 1_555 1_555
C13 C11 1_555 1_555
C14 C13 1_555 1_555
O3 C14 1_555 1_555
O4 C14 1_555 1_555
S1 C6 1_555 1_555
O5 S1 1_555 1_555
O6 S1 1_555 1_555
O7 C15 1_555 1_555
O8 Ce1 1_555 1_555
C15 O8 1_555 1_555
C16 C15 1_555 1_555
C17 C16 1_555 1_555
H7 C17 1_555 1_555
C18 C16 1_555 1_555
H8 C18 1_555 1_555
C19 C18 1_555 1_555
C20 C19 1_555 1_555
C21 C17 1_555 1_555
H9 C21 1_555 1_555
C22 C20 1_555 1_555
C23 C22 1_555 1_555
C24 C22 1_555 1_555
H10 C24 1_555 1_555
C25 C23 1_555 1_555
H11 C25 1_555 1_555
C26 C24 1_555 1_555
H12 C26 1_555 1_555
C27 C25 1_555 1_555
C28 C27 1_555 1_555
O9 C28 1_555 1_555
S2 C19 1_555 1_555
O10 S2 1_555 1_555
O11 S2 1_555 1_555
O12 C29 1_555 1_555
O13 C29 1_555 1_555
C29 C30 1_555 1_555
C30 C31 1_555 1_555
C31 H13 1_555 1_555
C32 C30 1_555 1_555
H14 C32 1_555 1_555
C33 C32 1_555 1_555
C34 C31 1_555 1_555
H15 C34 1_555 1_555
C35 C33 1_555 1_555
C36 C35 1_555 1_555
C37 C36 1_555 1_555
H16 C37 1_555 1_555
C38 C36 1_555 1_555
C39 C38 1_555 1_555
H17 C39 1_555 1_555
C40 C37 1_555 1_555
H18 C40 1_555 1_555
C41 C39 1_555 1_555
C42 C41 1_555 1_555
O14 S3 1_555 1_555
S3 C33 1_555 1_555
O15 S3 1_555 1_555
O16 Ce1 1_555 1_555
O17 Ce2 1_555 1_555
O18 C28 1_555 1_555
O19 Ce2 1_555 1_555
C43 O19 1_555 1_555
H19 C43 1_555 1_555
N1 C43 1_555 1_555
C44 N1 1_555 1_555
H20 C44 1_555 1_555
H21 C44 1_555 1_555
H22 C44 1_555 1_555
C45 N1 1_555 1_555
H23 C45 1_555 1_555
H24 C45 1_555 1_555
H25 C45 1_555 1_555
O20 Ce1 1_555 1_555
C46 O20 1_555 1_555
H26 C46 1_555 1_555
N2 C46 1_555 1_555
C47 N2 1_555 1_555
H27 C47 1_555 1_555
H28 C47 1_555 1_555
H29 C47 1_555 1_555
C48 N2 1_555 1_555
H30 C48 1_555 1_555
H31 C48 1_555 1_555
H32 C48 1_555 1_555
O21 Ce2 1_555 1_555
C49 O21 1_555 1_555
H33 C49 1_555 1_555
N3 C49 1_555 1_555
C50 N3 1_555 1_555
H34 C50 1_555 1_555
H35 C50 1_555 1_555
H36 C50 1_555 1_555
C51 N3 1_555 1_555
H37 C51 1_555 1_555
H38 C51 1_555 1_555
H39 C51 1_555 1_555
O22 Ce1 1_555 1_555
C52 O22 1_555 1_555
H40 C52 1_555 1_555
N4 C52 1_555 1_555
C53 N4 1_555 1_555
H41 C53 1_555 1_555
H42 C53 1_555 1_555
H43 C53 1_555 1_555
C54 N4 1_555 1_555
H44 C54 1_555 1_555
H45 C54 1_555 1_555
H46 C54 1_555 1_555
O23 C55 1_555 1_555
C55 H47 1_555 1_555
N5 C55 1_555 1_555
C56 N5 1_555 1_555
H48 C56 1_555 1_555
H49 C56 1_555 1_555
H50 C56 1_555 1_555
C57 N5 1_555 1_555
H51 C57 1_555 1_555
H52 C57 1_555 1_555
H53 C57 1_555 1_555
O24 C58 1_555 1_555
C58 H54 1_555 1_555
N6 C58 1_555 1_555
C59 N6 1_555 1_555
H55 C59 1_555 1_555
H56 C59 1_555 1_555
H57 C59 1_555 1_555
C60 N6 1_555 1_555
H58 C60 1_555 1_555
H59 C60 1_555 1_555
H60 C60 1_555 1_555
Ce1A O3 1_555 1_555
Ce1C O4 1_555 1_555
Ce1B O7 1_555 1_555
Ce2A O9 1_555 1_555
Ce2C O12 1_555 1_555
Ce2A_2 O13 1_555 1_555
Ce2C_2 O18 1_555 1_555
O3A Ce1 1_555 1_555
O4C Ce1 1_555 1_555
O7B Ce1 1_555 1_555
O9A Ce2 1_555 1_555
O12C Ce2 1_555 1_555
O13A Ce2 1_555 1_555
O18C Ce2 1_555 1_555
O18A Ce2 1_555 1_555
C6 C7 1_555 1_555
C9 S1 1_555 1_555
C12 C13 1_555 1_555
C20 C21 1_555 1_555
C23 S2 1_555 1_555
C26 C27 1_555 1_555
C34 C35 1_555 1_555
C38 S3 1_555 1_555
C40 C41 1_555 1_555
C42 O16 1_555 1_555
C42 O17 1_555 1_555
O18 Ce2A 1_555 1_555

#END
