
#######################################################################
#
#                 Cambridge Crystallographic Data Centre
#                                CCDC 
#
#######################################################################
#
# If this CIF has been generated from an entry in the Cambridge 
# Structural Database, then it will include bibliographic, chemical, 
# crystal, experimental, refinement or atomic coordinate data resulting 
# from the CCDC's data processing and validation procedures.
#
#######################################################################

data_NAYMOQ
_chemical_formula_moiety         '(C14 H32 N2 Na2 O15 Pb1)n'
_symmetry_cell_setting           monoclinic
_symmetry_space_group_name_H-M   'C c'
_symmetry_Int_Tables_number      9
_space_group_name_Hall           'C -2yc'
loop_
_symmetry_equiv_pos_site_id
_symmetry_equiv_pos_as_xyz
1 x,y,z
2 x,-y,1/2+z
3 1/2+x,1/2+y,z
4 1/2+x,1/2-y,1/2+z
_cell_length_a                   17.018(2)
_cell_length_b                   17.963(2)
_cell_length_c                   8.903(1)
_cell_angle_alpha                90
_cell_angle_beta                 121.156(2)
_cell_angle_gamma                90
_cell_volume                     2329.04
loop_
_atom_site_label
_atom_site_type_symbol
_atom_site_fract_x
_atom_site_fract_y
_atom_site_fract_z
Pb1 Pb 0.749380(9) 0.779530(3) 0.25542(1)
Na1 Na 0.60907(6) 0.91198(5) -0.1675(1)
Na2 Na 0.91894(8) 0.49184(6) 0.8170(2)
O1 O 0.6233(1) 0.8258(1) 0.3070(2)
O2 O 0.5470(1) 0.7932(1) 0.4393(3)
O3 O 0.7662(1) 0.6389(1) 0.3126(2)
O4 O 0.8460(1) 0.5548(1) 0.5189(3)
O5 O 0.9176(1) 0.7575(1) 0.3989(2)
O6 O 1.0471(1) 0.8181(1) 0.4684(2)
O7 O 0.7236(1) 0.9176(1) 0.1412(2)
O8 O 0.6930(1) 1.0268(1) 0.2191(2)
O9 O 0.5639(1) 1.0308(1) -0.1316(2)
O10 O 0.5058(1) 0.8798(1) -0.0551(2)
O11 O 0.6137(2) 0.7801(1) -0.1931(3)
O12 O 0.4663(1) 0.9088(1) -0.4655(2)
O14 O 0.8212(1) 0.3884(2) 0.5825(3)
N1 N 0.7710(1) 0.7414(1) 0.5451(2)
N2 N 0.8479(1) 0.8762(1) 0.4857(2)
C1 C 0.6773(2) 0.7210(1) 0.5012(3)
C2 C 0.6103(2) 0.7854(1) 0.4083(3)
C3 C 0.8306(2) 0.6740(1) 0.6123(3)
C4 C 0.8120(2) 0.6190(1) 0.4682(3)
C5 C 0.8070(1) 0.8042(1) 0.6766(3)
C6 C 0.8398(2) 0.7778(1) 0.8644(3)
C7 C 0.8762(2) 0.8423(2) 0.9955(3)
C8 C 0.9544(2) 0.8809(1) 0.9907(3)
C9 C 0.9214(2) 0.9097(1) 0.8076(3)
C10 C 0.8819(1) 0.8472(1) 0.6683(2)
C11 C 0.9263(1) 0.8876(1) 0.4602(3)
C12 C 0.9685(2) 0.8154(1) 0.4455(3)
C13 C 0.7939(1) 0.9462(1) 0.4485(3)
C14 C 0.7321(1) 0.9641(1) 0.2529(3)
H1 H 0.606(2) 1.03(2) -0.022(3)
H2 H 0.578(2) 1.07(2) -0.157(4)
H3 H 0.470(2) 0.845(2) -0.091(4)
H4 H 0.539(2) 0.863(2) 0.062(3)
H5 H 0.583(2) 0.761(2) -0.150(4)
H6 H 0.592(3) 0.771(2) -0.309(4)
H7 H 0.422(2) 0.889(2) -0.454(4)
H8 H 0.486(2) 0.876(2) -0.515(4)
H11 H 0.800(2) 0.401(3) 0.653(4)
H12 H 0.772(3) 0.395(3) 0.475(5)
Na1A Na 0.60907(6) 1.08802(5) 0.3325(1)
Na2A Na 0.91894(8) 0.50816(6) 0.3170(2)
Na2B Na 0.41894(8) 0.99184(6) -0.1830(2)
Na2C Na 0.41894(8) 1.00816(6) -0.6830(2)
O4A O 0.8460(1) 0.4452(1) 1.0189(3)
O8A O 0.6930(1) 0.9732(1) -0.2809(2)
O9B O 1.0639(1) 0.5308(1) 0.8684(2)
O10B O 1.0058(1) 0.3798(1) 0.9449(2)
O12C O 0.9663(1) 0.5912(1) 1.0345(2)
H1B H 1.106(2) 0.53(2) 0.978(3)
H2B H 1.078(2) 0.57(2) 0.843(4)
H3B H 0.970(2) 0.345(2) 0.909(4)
H4B H 1.039(2) 0.363(2) 1.062(3)
H7C H 0.922(2) 0.611(2) 1.046(4)
H8C H 0.986(2) 0.624(2) 0.985(4)
O13 O 0.2029(2) 0.9652(1) 0.2567(3)
H9 H 0.248(3) 0.999(2) 0.328(5)
H10 H 0.155(3) 0.980(2) 0.136(4)
O15 O 0.1026(2) 0.0356(1) 0.9354(3)
H13 H 0.125(2) 0.030(2) 0.873(4)
H14 H 0.088(3) 0.082(2) 0.947(5)
loop_
_geom_bond_atom_site_label_1
_geom_bond_atom_site_label_2
_geom_bond_site_symmetry_1
_geom_bond_site_symmetry_2
Pb1 O1 1_555 1_555
Na1 O7 1_555 1_555
Na2 O4 1_555 1_555
O1 C2 1_555 1_555
O2 C2 1_555 1_555
O3 Pb1 1_555 1_555
O4 C4 1_555 1_555
O5 Pb1 1_555 1_555
O6 C12 1_555 1_555
O7 Pb1 1_555 1_555
O8 C14 1_555 1_555
O9 Na1 1_555 1_555
O10 Na1 1_555 1_555
O11 Na1 1_555 1_555
O12 Na1 1_555 1_555
O13 H9 1_555 1_555
O14 Na2 1_555 1_555
O15 H13 1_555 1_555
N1 Pb1 1_555 1_555
N2 Pb1 1_555 1_555
C1 N1 1_555 1_555
C2 C1 1_555 1_555
C3 N1 1_555 1_555
C4 O3 1_555 1_555
C5 N1 1_555 1_555
C6 C5 1_555 1_555
C7 C6 1_555 1_555
C8 C7 1_555 1_555
C9 C8 1_555 1_555
C10 N2 1_555 1_555
C11 N2 1_555 1_555
C12 O5 1_555 1_555
C13 N2 1_555 1_555
C14 O7 1_555 1_555
H1 O9 1_555 1_555
H2 O9 1_555 1_555
H3 O10 1_555 1_555
H4 O10 1_555 1_555
H5 O11 1_555 1_555
H6 O11 1_555 1_555
H7 O12 1_555 1_555
H8 O12 1_555 1_555
H10 O13 1_555 1_555
H11 O14 1_555 1_555
H12 O14 1_555 1_555
H14 O15 1_555 1_555
Na1A O8 1_555 1_555
Na2A O4 1_555 1_555
Na2B O9 1_555 1_555
Na2C O12 1_555 1_555
O4A Na2 1_555 1_555
O8A Na1 1_555 1_555
O9B Na2 1_555 1_555
O10B Na2 1_555 1_555
O12C Na2 1_555 1_555
H1B O9B 1_555 1_555
H2B O9B 1_555 1_555
H3B O10B 1_555 1_555
H4B O10B 1_555 1_555
H7C O12C 1_555 1_555
H8C O12C 1_555 1_555
O10 Na2B 1_555 1_555
C3 C4 1_555 1_555
C5 C10 1_555 1_555
C9 C10 1_555 1_555
C11 C12 1_555 1_555
C13 C14 1_555 1_555

#END
