
#######################################################################
#
#                 Cambridge Crystallographic Data Centre
#                                CCDC 
#
#######################################################################
#
# If this CIF has been generated from an entry in the Cambridge 
# Structural Database, then it will include bibliographic, chemical, 
# crystal, experimental, refinement or atomic coordinate data resulting 
# from the CCDC's data processing and validation procedures.
#
#######################################################################

data_NIGPEA
_chemical_formula_moiety         '(C54 H32 Co3 O14 2-)n'
_symmetry_cell_setting           orthorhombic
_symmetry_space_group_name_H-M   'P n m a'
_symmetry_Int_Tables_number      62
_space_group_name_Hall           '-P 2ac 2n'
loop_
_symmetry_equiv_pos_site_id
_symmetry_equiv_pos_as_xyz
1 x,y,z
2 1/2-x,-y,1/2+z
3 1/2+x,1/2-y,1/2-z
4 -x,1/2+y,-z
5 -x,-y,-z
6 1/2+x,y,1/2-z
7 1/2-x,1/2+y,1/2+z
8 x,1/2-y,z
_cell_length_a                   17.4130(18)
_cell_length_b                   24.924(2)
_cell_length_c                   22.279(2)
_cell_angle_alpha                90
_cell_angle_beta                 90
_cell_angle_gamma                90
_cell_volume                     9669.12
loop_
_atom_site_label
_atom_site_type_symbol
_atom_site_fract_x
_atom_site_fract_y
_atom_site_fract_z
C1 C 0.00340(13) 0.51114(12) 0.10464(13)
C2 C -0.06675(15) 0.53048(12) 0.08572(15)
H1 H -0.1112 0.5177 0.1039
C3 C -0.07309(15) 0.56721(12) 0.04183(14)
C4 C -0.00775(15) 0.58809(13) 0.01611(14)
H2 H -0.0120 0.6145 -0.0132
C5 C 0.06417(15) 0.57026(12) 0.03338(13)
C6 C 0.06982(15) 0.53171(13) 0.07772(14)
H3 H 0.1178 0.5194 0.0897
C7 C 0.01042(14) 0.47002(11) 0.15288(13)
C8 C 0.06081(15) 0.42727(11) 0.14761(12)
H4 H 0.0913 0.4246 0.1134
C9 C 0.06721(15) 0.38810(11) 0.19214(11)
H5 H 0.1019 0.3600 0.1879
C10 C 0.02134(15) 0.39168(11) 0.24253(14)
C11 C -0.03092(15) 0.43574(10) 0.24947(12)
H6 H -0.0599 0.4398 0.2842
C12 C -0.03668(16) 0.47236(10) 0.20215(12)
H7 H -0.0737 0.4992 0.2041
C13 C 0.02732(13) 0.35069(10) 0.29318(11)
C14 C -0.14997(15) 0.58582(12) 0.01945(13)
C15 C -0.21231(15) 0.55139(13) 0.02071(14)
H8 H -0.2063 0.5164 0.0345
C16 C -0.28458(16) 0.56909(12) 0.00124(14)
H9 H -0.3263 0.5458 0.0030
C17 C -0.29487(15) 0.62058(13) -0.02060(13)
C18 C -0.23292(16) 0.65471(12) -0.02144(14)
H10 H -0.2390 0.6894 -0.0359
C19 C -0.16266(15) 0.63852(13) -0.00139(14)
H11 H -0.1221 0.6628 -0.0015
C20 C -0.37345(16) 0.63914(13) -0.04110(14)
C21 C 0.13611(14) 0.59122(11) 0.00367(13)
C22 C 0.13598(17) 0.61471(14) -0.05255(16)
H12 H 0.0905 0.6153 -0.0744
C23 C 0.20009(16) 0.63693(13) -0.07692(13)
H13 H 0.1974 0.6518 -0.1152
C24 C 0.26886(14) 0.63803(10) -0.04640(12)
C25 C 0.27056(16) 0.61412(13) 0.01032(14)
H14 H 0.3166 0.6124 0.0314
C26 C 0.20506(15) 0.59319(14) 0.03519(14)
H15 H 0.2068 0.5799 0.0742
C27 C 0.33791(14) 0.66379(10) -0.07414(12)
Co1 Co 0.11314(2) 0.2500 0.333662(17)
Co2 Co -0.002548(18) 0.321863(13) 0.421489(16)
O1 O 0.06380(11) 0.30960(7) 0.28024(7)
O2 O -0.00386(9) 0.36300(7) 0.34122(8)
O3 O -0.42868(10) 0.61230(7) -0.03090(8)
O4 O -0.37782(10) 0.68078(7) -0.06740(8)
O5 O 0.32932(10) 0.69167(8) -0.11822(8)
O6 O 0.40187(9) 0.65575(7) -0.04653(8)
O7 O 0.01109(12) 0.2500 0.38421(10)
O8 O 0.20859(14) 0.2500 0.27207(11)
H16 H 0.2067 0.2221 0.2501
H16G H 0.2067 0.2779 0.2501
C1G C 0.00340(13) -0.01114(12) 0.10464(13)
C2G C -0.06675(15) -0.03048(12) 0.08572(15)
H1G H -0.1112 -0.0177 0.1039
C3G C -0.07309(15) -0.06721(12) 0.04183(14)
C4G C -0.00775(15) -0.08809(13) 0.01611(14)
H2G H -0.0120 -0.1145 -0.0132
C5G C 0.06417(15) -0.07026(12) 0.03338(13)
C6G C 0.06982(15) -0.03171(13) 0.07772(14)
H3G H 0.1178 -0.0194 0.0897
C7G C 0.01042(14) 0.02998(11) 0.15288(13)
C8G C 0.06081(15) 0.07273(11) 0.14761(12)
H4G H 0.0913 0.0754 0.1134
C9G C 0.06721(15) 0.11190(11) 0.19214(11)
H5G H 0.1019 0.1400 0.1879
C10G C 0.02134(15) 0.10832(11) 0.24253(14)
C11G C -0.03092(15) 0.06426(10) 0.24947(12)
H6G H -0.0599 0.0602 0.2842
C12G C -0.03668(16) 0.02764(10) 0.20215(12)
H7G H -0.0737 0.0008 0.2041
C13G C 0.02732(13) 0.14931(10) 0.29318(11)
C14G C -0.14997(15) -0.08582(12) 0.01945(13)
C15G C -0.21231(15) -0.05139(13) 0.02071(14)
H8G H -0.2063 -0.0164 0.0345
C16G C -0.28458(16) -0.06909(12) 0.00124(14)
H9G H -0.3263 -0.0458 0.0030
C17G C -0.29487(15) -0.12058(13) -0.02060(13)
C18G C -0.23292(16) -0.15471(12) -0.02144(14)
H10G H -0.2390 -0.1894 -0.0359
C19G C -0.16266(15) -0.13852(13) -0.00139(14)
H11G H -0.1221 -0.1628 -0.0015
C20G C -0.37345(16) -0.13914(13) -0.04110(14)
C21G C 0.13611(14) -0.09122(11) 0.00367(13)
C22G C 0.13598(17) -0.11471(14) -0.05255(16)
H12G H 0.0905 -0.1153 -0.0744
C23G C 0.20009(16) -0.13693(13) -0.07692(13)
H13G H 0.1974 -0.1518 -0.1152
C24G C 0.26886(14) -0.13803(10) -0.04640(12)
C25G C 0.27056(16) -0.11412(13) 0.01032(14)
H14G H 0.3166 -0.1124 0.0314
C26G C 0.20506(15) -0.09319(14) 0.03519(14)
H15G H 0.2068 -0.0799 0.0742
C27G C 0.33791(14) -0.16379(10) -0.07414(12)
Co2G Co -0.002548(18) 0.178137(13) 0.421489(16)
O1G O 0.06380(11) 0.19040(7) 0.28024(7)
O2G O -0.00386(9) 0.13700(7) 0.34122(8)
O3G O -0.42868(10) -0.11230(7) -0.03090(8)
O4G O -0.37782(10) -0.18078(7) -0.06740(8)
O5G O 0.32932(10) -0.19167(8) -0.11822(8)
O6G O 0.40187(9) -0.15575(7) -0.04653(8)
Co1A Co 0.38686(2) -0.2500 -0.166338(17)
Co1A_2 Co 0.38686(2) 0.7500 -0.166338(17)
Co2A Co -0.497452(18) 0.678137(13) -0.078511(16)
Co2A_2 Co 0.502548(18) 0.678137(13) -0.078511(16)
Co2F Co -0.497452(18) -0.178137(13) -0.078511(16)
Co2F_2 Co 0.502548(18) -0.178137(13) -0.078511(16)
O3A O -0.07132(10) 0.38770(7) 0.46910(8)
O3F O -0.07132(10) 0.11230(7) 0.46910(8)
O4A O -0.12218(10) 0.31922(7) 0.43260(8)
O4F O -0.12218(10) 0.18078(7) 0.43260(8)
O5A O 0.17068(10) 0.30833(8) 0.38178(8)
O5F O 0.17068(10) 0.19167(8) 0.38178(8)
O6A O 0.09813(9) 0.34425(7) 0.45347(8)
O6F O 0.09813(9) 0.15575(7) 0.45347(8)
loop_
_geom_bond_atom_site_label_1
_geom_bond_atom_site_label_2
_geom_bond_site_symmetry_1
_geom_bond_site_symmetry_2
C1 C2 1_555 1_555
C2 H1 1_555 1_555
C3 C2 1_555 1_555
C4 C3 1_555 1_555
H2 C4 1_555 1_555
C5 C4 1_555 1_555
C6 C1 1_555 1_555
H3 C6 1_555 1_555
C7 C1 1_555 1_555
C8 C7 1_555 1_555
H4 C8 1_555 1_555
C9 C8 1_555 1_555
H5 C9 1_555 1_555
C10 C9 1_555 1_555
C11 C10 1_555 1_555
H6 C11 1_555 1_555
C12 C7 1_555 1_555
H7 C12 1_555 1_555
C13 C10 1_555 1_555
C14 C3 1_555 1_555
C15 C14 1_555 1_555
H8 C15 1_555 1_555
C16 C15 1_555 1_555
H9 C16 1_555 1_555
C17 C16 1_555 1_555
C18 C17 1_555 1_555
H10 C18 1_555 1_555
C19 C14 1_555 1_555
H11 C19 1_555 1_555
C20 C17 1_555 1_555
C21 C5 1_555 1_555
C22 C21 1_555 1_555
H12 C22 1_555 1_555
C23 C22 1_555 1_555
H13 C23 1_555 1_555
C24 C23 1_555 1_555
C25 C24 1_555 1_555
H14 C25 1_555 1_555
C26 C21 1_555 1_555
H15 C26 1_555 1_555
C27 C24 1_555 1_555
Co1 O1 1_555 1_555
Co2 O2 1_555 1_555
O1 C13 1_555 1_555
O2 C13 1_555 1_555
O3 C20 1_555 1_555
O4 C20 1_555 1_555
O5 C27 1_555 1_555
O6 C27 1_555 1_555
O7 Co1 1_555 1_555
O8 Co1 1_555 1_555
H16 O8 1_555 1_555
H16G O8 1_555 1_555
C1G C2G 1_555 1_555
C2G H1G 1_555 1_555
C3G C2G 1_555 1_555
C4G C3G 1_555 1_555
H2G C4G 1_555 1_555
C5G C4G 1_555 1_555
C6G C1G 1_555 1_555
H3G C6G 1_555 1_555
C7G C1G 1_555 1_555
C8G C7G 1_555 1_555
H4G C8G 1_555 1_555
C9G C8G 1_555 1_555
H5G C9G 1_555 1_555
C10G C9G 1_555 1_555
C11G C10G 1_555 1_555
H6G C11G 1_555 1_555
C12G C7G 1_555 1_555
H7G C12G 1_555 1_555
C13G C10G 1_555 1_555
C14G C3G 1_555 1_555
C15G C14G 1_555 1_555
H8G C15G 1_555 1_555
C16G C15G 1_555 1_555
H9G C16G 1_555 1_555
C17G C16G 1_555 1_555
C18G C17G 1_555 1_555
H10G C18G 1_555 1_555
C19G C14G 1_555 1_555
H11G C19G 1_555 1_555
C20G C17G 1_555 1_555
C21G C5G 1_555 1_555
C22G C21G 1_555 1_555
H12G C22G 1_555 1_555
C23G C22G 1_555 1_555
H13G C23G 1_555 1_555
C24G C23G 1_555 1_555
C25G C24G 1_555 1_555
H14G C25G 1_555 1_555
C26G C21G 1_555 1_555
H15G C26G 1_555 1_555
C27G C24G 1_555 1_555
Co2G O7 1_555 1_555
O1G Co1 1_555 1_555
O2G C13G 1_555 1_555
O3G C20G 1_555 1_555
O4G C20G 1_555 1_555
O5G C27G 1_555 1_555
O6G C27G 1_555 1_555
Co1A O5G 1_555 1_555
Co1A_2 O5 1_555 1_555
Co2A O3 1_555 1_555
Co2A_2 O6 1_555 1_555
Co2F O3G 1_555 1_555
Co2F_2 O6G 1_555 1_555
O3A Co2 1_555 1_555
O3F Co2G 1_555 1_555
O4A Co2 1_555 1_555
O4F Co2G 1_555 1_555
O5A Co1 1_555 1_555
O5F Co1 1_555 1_555
O6A Co2 1_555 1_555
O6F Co2G 1_555 1_555
C5 C6 1_555 1_555
C11 C12 1_555 1_555
C18 C19 1_555 1_555
C25 C26 1_555 1_555
Co2 O7 1_555 1_555
O4 Co2A 1_555 1_555
C5G C6G 1_555 1_555
C11G C12G 1_555 1_555
C13G O1G 1_555 1_555
C18G C19G 1_555 1_555
C25G C26G 1_555 1_555
Co2G O2G 1_555 1_555
O4G Co2F 1_555 1_555

#END
