
#######################################################################
#
#                 Cambridge Crystallographic Data Centre
#                                CCDC 
#
#######################################################################
#
# If this CIF has been generated from an entry in the Cambridge 
# Structural Database, then it will include bibliographic, chemical, 
# crystal, experimental, refinement or atomic coordinate data resulting 
# from the CCDC's data processing and validation procedures.
#
#######################################################################

data_NOGDAP
_chemical_formula_moiety         '(C12 Al6 N6 Ni1 O24 P6 2-)n'
_symmetry_cell_setting           rhombohedral
_symmetry_space_group_name_H-M   'R -3'
_symmetry_Int_Tables_number      148
_space_group_name_Hall           '-R 3'
loop_
_symmetry_equiv_pos_site_id
_symmetry_equiv_pos_as_xyz
1 x,y,z
2 -y,x-y,z
3 -x+y,-x,z
4 2/3+x,1/3+y,1/3+z
5 2/3-y,1/3+x-y,1/3+z
6 2/3-x+y,1/3-x,1/3+z
7 1/3+x,2/3+y,2/3+z
8 1/3-y,2/3+x-y,2/3+z
9 1/3-x+y,2/3-x,2/3+z
10 -x,-y,-z
11 y,-x+y,-z
12 x-y,x,-z
13 1/3-x,2/3-y,2/3-z
14 1/3+y,2/3-x+y,2/3-z
15 1/3+x-y,2/3+x,2/3-z
16 2/3-x,1/3-y,1/3-z
17 2/3+y,1/3-x+y,1/3-z
18 2/3+x-y,1/3+x,1/3-z
_cell_length_a                   13.870(2)
_cell_length_b                   13.870(2)
_cell_length_c                   15.222(3)
_cell_angle_alpha                90
_cell_angle_beta                 90
_cell_angle_gamma                120.00
_cell_volume                     2536.04
loop_
_atom_site_label
_atom_site_type_symbol
_atom_site_fract_x
_atom_site_fract_y
_atom_site_fract_z
Ni1 Ni 0.0000 0.0000 0.0000
C1 C -0.107(2) -0.017(3) 0.1748(18)
C2 C -0.093(3) 0.079(3) 0.130(2)
N1 N -0.115(2) -0.0874(19) 0.1037(16)
C1B C 0.090(4) 0.107(2) 0.1748(18)
C1A C 0.017(3) -0.090(4) 0.1748(18)
C1I C 0.107(2) 0.017(3) -0.1748(18)
C1K C -0.090(4) -0.107(2) -0.1748(18)
C1J C -0.017(3) 0.090(4) -0.1748(18)
C2B C 0.172(4) 0.093(3) 0.130(2)
C2A C -0.079(3) -0.172(4) 0.130(2)
C2I C 0.093(3) -0.079(3) -0.130(2)
C2K C -0.172(4) -0.093(3) -0.130(2)
C2J C 0.079(3) 0.172(4) -0.130(2)
N1B N 0.0276(28) 0.115(2) 0.1037(16)
N1A N 0.0874(19) -0.0276(28) 0.1037(16)
N1I N 0.115(2) 0.0874(19) -0.1037(16)
N1K N -0.0276(28) -0.115(2) -0.1037(16)
N1J N -0.0874(19) 0.0276(28) -0.1037(16)
Al1 Al -0.43397(13) -0.32493(12) 0.26611(10)
P1 P -0.43148(15) -0.32491(16) 0.05768(12)
O1 O -0.3970(6) -0.3239(5) 0.1512(3)
O2 O -0.3518(5) -0.3375(5) -0.0024(4)
O3 O -0.5501(5) -0.4180(5) 0.0436(5)
O4 O -0.4234(6) -0.2162(7) 0.0356(5)
Al1E Al -0.22429(18) -0.23270(13) 0.59944(10)
Al1Q Al -0.44237(18) -0.10064(13) 0.06722(10)
Al1P Al -0.65826(12) -0.55763(18) 0.06722(10)
Al1G Al -0.34174(12) -0.44237(18) -0.06722(10)
Al1L Al -0.23270(13) -0.00840(12) 0.40056(10)
Al1M Al 0.00840(12) -0.22429(18) 0.40056(10)
Al1A Al -0.67507(12) -0.10904(18) 0.26611(10)
Al1N Al -0.77571(18) -0.76730(13) 0.40056(10)
Al1B Al -0.89096(18) -0.56603(13) 0.26611(10)
Al1G_2 Al -0.34174(12) -0.44237(18) 0.93278(10)
Al1K Al -0.10904(18) -0.43397(13) 0.73389(10)
Al1I Al -0.56603(13) -0.67507(12) 0.73389(10)
Al1C Al 0.23270(13) 0.00840(12) 0.59944(10)
P1E P -0.22676(22) -0.23519(15) 0.39101(12)
P1Q P -0.43990(22) -0.09815(15) 0.27565(12)
P1P P -0.65824(16) -0.56010(22) 0.27565(12)
P1G P -0.34176(16) -0.43990(22) 0.72435(12)
P1M P 0.00842(16) -0.22676(22) 0.60899(12)
O1E O -0.2602(8) -0.2697(6) 0.4845(3)
O1Q O -0.4064(8) -0.0637(6) 0.1821(3)
O1P O -0.6572(5) -0.5936(8) 0.1821(3)
O1G O -0.3428(5) -0.4064(8) 0.8179(3)
O1M O 0.0094(5) -0.2602(8) 0.5155(3)
O1G_2 O -0.3428(5) -0.4064(8) -0.1821(3)
O1L O -0.2697(6) -0.0094(5) 0.5155(3)
O2E O -0.3190(7) -0.3149(5) 0.3309(4)
O2Q O -0.3476(7) -0.0185(5) 0.3357(4)
O2P O -0.6708(5) -0.6524(7) 0.3357(4)
O2G O -0.3292(5) -0.3476(7) 0.6643(4)
O2M O -0.0042(5) -0.3190(7) 0.6691(4)
O2J O -0.3375(5) 0.0143(7) 0.0024(4)
O2I O -0.6482(5) -0.6625(5) 0.0024(4)
O3E O -0.2012(7) -0.1166(5) 0.3769(5)
O3Q O -0.4654(7) -0.2168(5) 0.2897(5)
O3P O -0.7513(5) -0.5346(7) 0.2897(5)
O3G O -0.2487(5) -0.4654(7) 0.7103(5)
O3M O -0.0847(5) -0.2012(7) 0.6231(5)
O3A O -0.5820(5) -0.1321(7) 0.0436(5)
O3I O -0.4499(5) -0.5820(5) -0.0436(5)
O4E O -0.1261(9) -0.2433(6) 0.3689(5)
O4Q O -0.5405(9) -0.0901(6) 0.2977(5)
O4P O -0.5495(7) -0.4595(9) 0.2977(5)
O4G O -0.4505(7) -0.5405(9) 0.7023(5)
O4M O 0.1171(7) -0.1261(9) 0.6311(5)
O4L O -0.2433(6) -0.1171(7) 0.6311(5)
O4B O -0.7928(9) -0.5766(6) 0.0356(5)
O4K O -0.2072(9) -0.4234(6) -0.0356(5)
O4D O -0.1171(7) 0.1261(9) 0.3689(5)
loop_
_geom_bond_atom_site_label_1
_geom_bond_atom_site_label_2
_geom_bond_site_symmetry_1
_geom_bond_site_symmetry_2
Al1 O1 1_555 1_555
Ni1 N1 1_555 1_555
P1 O1 1_555 1_555
O2 P1 1_555 1_555
O3 P1 1_555 1_555
O4 P1 1_555 1_555
C1 C2 1_555 1_555
C2 N1B 1_555 1_555
N1 C1 1_555 1_555
Al1E O1E 1_555 1_555
Al1Q O4 1_555 1_555
Al1P O3 1_555 1_555
Al1G O2 1_555 1_555
Al1L O1L 1_555 1_555
Al1M O1M 1_555 1_555
Al1A O4Q 1_555 1_555
Al1N O2P 1_555 1_555
Al1B O3P 1_555 1_555
Al1G_2 O1G 1_555 1_555
Al1K O2M 1_555 1_555
Al1I O4G 1_555 1_555
Al1C O4M 1_555 1_555
P1E O1E 1_555 1_555
P1Q O1Q 1_555 1_555
P1P O1P 1_555 1_555
P1G O1G 1_555 1_555
P1M O1M 1_555 1_555
O1Q Al1Q 1_555 1_555
O1P Al1P 1_555 1_555
O1G_2 Al1G 1_555 1_555
O2E Al1 1_555 1_555
O2Q Al1L 1_555 1_555
O2P P1P 1_555 1_555
O2G Al1E 1_555 1_555
O2M P1M 1_555 1_555
O2J Al1Q 1_555 1_555
O2I Al1P 1_555 1_555
O3E Al1L 1_555 1_555
O3Q Al1 1_555 1_555
O3P P1P 1_555 1_555
O3G Al1K 1_555 1_555
O3M Al1E 1_555 1_555
O3A Al1Q 1_555 1_555
O3I Al1G 1_555 1_555
O4E Al1M 1_555 1_555
O4Q P1Q 1_555 1_555
O4P Al1 1_555 1_555
O4G P1G 1_555 1_555
O4M P1M 1_555 1_555
O4L Al1E 1_555 1_555
O4B Al1P 1_555 1_555
O4K Al1G 1_555 1_555
O4D Al1L 1_555 1_555
C1B C2B 1_555 1_555
C1A C2A 1_555 1_555
C1I C2I 1_555 1_555
C1K C2K 1_555 1_555
C1J C2J 1_555 1_555
C2B N1A 1_555 1_555
C2A N1 1_555 1_555
C2I N1K 1_555 1_555
C2K N1J 1_555 1_555
C2J N1I 1_555 1_555
N1B Ni1 1_555 1_555
N1A Ni1 1_555 1_555
N1I Ni1 1_555 1_555
N1K Ni1 1_555 1_555
N1J Ni1 1_555 1_555
P1E O2E 1_555 1_555
P1E O3E 1_555 1_555
P1E O4E 1_555 1_555
P1Q O2Q 1_555 1_555
P1Q O3Q 1_555 1_555
P1P O4P 1_555 1_555
P1G O2G 1_555 1_555
P1G O3G 1_555 1_555
P1M O3M 1_555 1_555
C1B N1B 1_555 1_555
C1A N1A 1_555 1_555
C1I N1I 1_555 1_555
C1K N1K 1_555 1_555
C1J N1J 1_555 1_555

#END
