
#######################################################################
#
#                 Cambridge Crystallographic Data Centre
#                                CCDC 
#
#######################################################################
#
# If this CIF has been generated from an entry in the Cambridge 
# Structural Database, then it will include bibliographic, chemical, 
# crystal, experimental, refinement or atomic coordinate data resulting 
# from the CCDC's data processing and validation procedures.
#
#######################################################################

data_NUJCIE
_chemical_formula_moiety         '(C22 H30 Cd2 N12 Ni2)n'
_symmetry_cell_setting           monoclinic
_symmetry_space_group_name_H-M   'P 1 1 21/n'
_symmetry_Int_Tables_number      14
_space_group_name_Hall           '-P 2n'
loop_
_symmetry_equiv_pos_site_id
_symmetry_equiv_pos_as_xyz
1 x,y,z
2 1/2-x,1/2-y,1/2+z
3 -x,-y,-z
4 1/2+x,1/2+y,1/2-z
_cell_length_a                   13.895(2)
_cell_length_b                   26.900(3)
_cell_length_c                   7.613(1)
_cell_angle_alpha                90
_cell_angle_beta                 90
_cell_angle_gamma                91.06(1)
_cell_volume                     2845.07
loop_
_atom_site_label
_atom_site_type_symbol
_atom_site_fract_x
_atom_site_fract_y
_atom_site_fract_z
Cd1 Cd 0.26681(4) -0.63011(2) 0.38287(8)
Cd2 Cd 0.19060(4) -0.36365(2) 0.37897(7)
Ni1 Ni 0.19723(7) -0.50033(3) -0.1272(1)
Ni2 Ni -0.00402(7) -0.76370(3) 0.2664(1)
N1 N 0.2265(7) -0.5779(3) 0.149(1)
N2 N 0.2106(5) -0.5773(2) 0.5868(9)
N3 N 0.1302(5) -0.6806(3) 0.380(1)
N4 N 0.3346(5) -0.6838(3) 0.612(1)
N5 N 0.3246(6) -0.6883(3) 0.170(1)
N6 N 0.4307(5) -0.6093(3) 0.347(1)
N7 N 0.2034(7) -0.4248(3) 0.162(1)
N8 N 0.1865(5) -0.4184(2) 0.605(1)
N9 N -0.1463(5) -0.8416(2) 0.140(1)
N10 N -0.1663(6) -0.7062(3) 0.427(1)
N11 N 0.1693(5) -0.3071(3) 0.140(1)
N12 N 0.0225(5) -0.3657(2) 0.3226(9)
C1 C 0.2137(7) -0.5491(3) 0.043(1)
C2 C 0.2010(6) -0.5480(3) 0.696(1)
C3 C 0.0795(6) -0.7122(3) 0.338(1)
C4 C 0.4004(6) -0.7028(3) 0.671(1)
C5 C 0.1996(7) -0.4530(3) 0.052(1)
C6 C 0.1878(6) -0.4493(3) 0.705(1)
C7 C -0.0910(5) -0.8127(3) 0.188(1)
C8 C -0.1067(6) -0.7286(3) 0.362(1)
C9 C 0.4294(9) -0.6834(5) 0.164(2)
C10 C 0.4703(8) -0.6373(5) 0.200(2)
C11 C 0.5814(7) -0.6341(5) 0.188(2)
C12 C 0.0680(9) -0.3039(7) 0.106(3)
C13 C -0.0002(8) -0.3307(5) 0.186(2)
C14 C -0.1043(6) -0.3251(4) 0.140(2)
C2_2 C 0.2010(6) -0.5480(3) -0.304(1)
C4A C 0.0996(6) -0.7972(3) 0.171(1)
C6_2 C 0.1878(6) -0.4493(3) -0.295(1)
Ni1_2 Ni 0.19723(7) -0.50033(3) 0.8728(1)
Ni2A Ni 0.50402(7) -0.73630(3) 0.7664(1)
N9C N 0.3537(5) -0.3416(2) 0.360(1)
N10B N 0.1663(6) -0.2938(3) 0.573(1)
Cd2C Cd -0.30940(4) -0.86365(2) 0.12103(7)
Cd2B Cd -0.19060(4) -0.63635(2) 0.62103(7)
C15 C 0.5156(8) -0.5229(3) 0.662(1)
C16 C 0.4278(7) -0.5024(3) 0.622(2)
C17 C 0.5886(7) -0.5200(4) 0.537(2)
C18 C 0.533(1) -0.5487(5) 0.838(2)
C17B C 0.4114(7) -0.4800(4) 0.463(2)
C16B C 0.5722(7) -0.4976(3) 0.378(2)
C15B C 0.4844(8) -0.4771(3) 0.338(1)
C18B C 0.467(1) -0.4513(5) 0.162(2)
loop_
_geom_bond_atom_site_label_1
_geom_bond_atom_site_label_2
_geom_bond_site_symmetry_1
_geom_bond_site_symmetry_2
Cd1 N1 1_555 1_555
Cd2 N7 1_555 1_555
Ni1 C1 1_555 1_555
Ni2 C3 1_555 1_555
N1 C1 1_555 1_555
N2 Cd1 1_555 1_555
N3 Cd1 1_555 1_555
N4 Cd1 1_555 1_555
N5 Cd1 1_555 1_555
N6 Cd1 1_555 1_555
N7 C5 1_555 1_555
N8 Cd2 1_555 1_555
N9 C7 1_555 1_555
N10 C8 1_555 1_555
N11 Cd2 1_555 1_555
N12 Cd2 1_555 1_555
C2 N2 1_555 1_555
C3 N3 1_555 1_555
C4 N4 1_555 1_555
C5 Ni1 1_555 1_555
C6 N8 1_555 1_555
C7 Ni2 1_555 1_555
C8 Ni2 1_555 1_555
C9 N5 1_555 1_555
C10 N6 1_555 1_555
C11 C10 1_555 1_555
C12 N11 1_555 1_555
C13 N12 1_555 1_555
C14 C13 1_555 1_555
C15 C16 1_555 1_555
C16 C17B 1_555 1_555
C17 C15 1_555 1_555
C18 C15 1_555 1_555
C2_2 Ni1 1_555 1_555
C4A Ni2 1_555 1_555
C6_2 Ni1 1_555 1_555
Ni1_2 C2 1_555 1_555
Ni2A C4 1_555 1_555
N9C Cd2 1_555 1_555
N10B Cd2 1_555 1_555
Cd2C N9 1_555 1_555
Cd2B N10 1_555 1_555
C17B C15B 1_555 1_555
C16B C17 1_555 1_555
C15B C16B 1_555 1_555
C18B C15B 1_555 1_555
C6 Ni1_2 1_555 1_555
C9 C10 1_555 1_555
C12 C13 1_555 1_555

#END
