
#######################################################################
#
#                 Cambridge Crystallographic Data Centre
#                                CCDC 
#
#######################################################################
#
# If this CIF has been generated from an entry in the Cambridge 
# Structural Database, then it will include bibliographic, chemical, 
# crystal, experimental, refinement or atomic coordinate data resulting 
# from the CCDC's data processing and validation procedures.
#
#######################################################################

data_OHATAT
_chemical_formula_moiety         '(C38 H40 Co6 N6 O28 P4)n'
_symmetry_cell_setting           triclinic
_symmetry_space_group_name_H-M   'P -1'
_symmetry_Int_Tables_number      2
_space_group_name_Hall           '-P 1'
loop_
_symmetry_equiv_pos_site_id
_symmetry_equiv_pos_as_xyz
1 x,y,z
2 -x,-y,-z
_cell_length_a                   9.9725(11)
_cell_length_b                   10.5369(10)
_cell_length_c                   14.1184(16)
_cell_angle_alpha                90.477(4)
_cell_angle_beta                 109.924(4)
_cell_angle_gamma                98.596(4)
_cell_volume                     1376.28
loop_
_atom_site_label
_atom_site_type_symbol
_atom_site_fract_x
_atom_site_fract_y
_atom_site_fract_z
Co1 Co 0.58392(5) 0.27034(5) 0.00512(4)
Co2 Co 1.04168(5) 0.17515(5) -0.10084(4)
Co3 Co 1.13496(5) 0.31672(5) 0.12657(4)
P1 P 0.83849(10) 0.09710(9) 0.03292(7)
P2 P 0.31476(10) 0.41666(9) -0.01550(8)
O1 O 0.9965(3) 0.1551(3) 0.0483(2)
O2 O 0.8281(3) -0.0399(2) 0.0664(2)
O3 O 0.7604(3) 0.1807(3) 0.0743(2)
O4 O 0.8452(3) 0.0374(3) -0.1507(2)
O5 O 0.8683(3) 0.2843(3) -0.1490(2)
O6 O 0.6558(3) 0.2869(3) -0.1302(2)
O7 O 0.1692(3) 0.3354(3) -0.0227(2)
O8 O 0.4008(3) 0.3518(3) -0.0648(2)
O9 O 0.2903(3) 0.5504(3) -0.0500(2)
O10 O 0.3164(3) 0.4686(3) 0.1700(2)
O11 O 0.3144(3) 0.2221(3) 0.1700(2)
O12 O 0.5148(4) 0.2334(3) 0.1318(3)
O13 O 0.9961(3) 0.4463(3) 0.1007(3)
O14 O 0.4521(4) 0.0967(3) -0.0652(3)
C1 C 0.7555(4) 0.0909(4) -0.1054(3)
H1 H 0.6568 0.0430 -0.1288
C2 C 0.7585(4) 0.2311(4) -0.1317(3)
C3 C 0.4071(4) 0.4218(4) 0.1218(3)
H2 H 0.5034 0.4743 0.1429
C4 C 0.4145(4) 0.2816(4) 0.1444(3)
N1 N 1.0654(4) 0.1979(4) -0.2437(3)
C5 C 1.0927(11) 0.1078(8) -0.2940(6)
H3 H 1.1084 0.0306 -0.2639
C6 C 1.0999(11) 0.1192(8) -0.3893(6)
H4 H 1.1188 0.0499 -0.4212
C7 C 1.0805(6) 0.2267(5) -0.4366(4)
C8 C 1.0578(16) 0.3276(10) -0.3819(8)
H5 H 1.0487 0.4073 -0.4090
C9 C 1.0489(13) 0.3085(9) -0.2880(7)
H6 H 1.0305 0.3759 -0.2537
N2 N 1.1073(4) 0.2788(4) -0.7318(3)
C10 C 0.9996(9) 0.3156(9) -0.7070(6)
H7 H 0.9298 0.3531 -0.7550
C11 C 0.9889(10) 0.2994(10) -0.6120(6)
H8 H 0.9133 0.3272 -0.5977
C12 C 1.0891(6) 0.2426(5) -0.5387(4)
C13 C 1.1807(10) 0.1843(9) -0.5721(6)
H9 H 1.2388 0.1310 -0.5308
C14 C 1.1861(10) 0.2056(9) -0.6684(6)
H10 H 1.2495 0.1655 -0.6888
Co1A Co 0.41608(5) 0.72966(5) -0.00512(4)
Co1A_2 Co 1.41608(5) -0.27034(5) -0.00512(4)
Co2_2 Co 0.04168(5) 0.17515(5) -0.10084(4)
Co2A Co 0.95832(5) -0.17515(5) 0.10084(4)
Co2A_2 Co 0.95832(5) 0.82485(5) 0.10084(4)
Co2_3 Co 1.04168(5) 0.17515(5) 0.89916(4)
Co3_2 Co 0.13496(5) 0.31672(5) 0.12657(4)
Co3_3 Co 1.13496(5) 0.31672(5) -0.87343(4)
Co3A Co 0.86504(5) 0.68328(5) -0.12657(4)
Co3A_2 Co 0.86504(5) -0.31672(5) -0.12657(4)
P1A P 1.16151(10) -0.09710(9) -0.03292(7)
P2A P 0.68524(10) 0.58334(9) 0.01550(8)
O1A O 1.0035(3) -0.1551(3) -0.0483(2)
O1_2 O -0.0035(3) 0.1551(3) 0.0483(2)
O2A O 1.1719(3) 0.0399(2) -0.0664(2)
O2A_2 O 0.1719(3) 0.0399(2) -0.0664(2)
O3A O 1.2396(3) -0.1807(3) -0.0743(2)
O3A_2 O 0.2396(3) 0.8193(3) -0.0743(2)
O4A O 1.1548(3) -0.0374(3) 0.1507(2)
O4_2 O -0.1548(3) 0.0374(3) -0.1507(2)
O5A O 1.1317(3) -0.2843(3) 0.1490(2)
O5_2 O -0.1317(3) 0.2843(3) -0.1490(2)
O6A O 1.3442(3) -0.2869(3) 0.1302(2)
O6A_2 O 0.3442(3) 0.7131(3) 0.1302(2)
O7A O 0.8308(3) 0.6646(3) 0.0227(2)
O7_2 O 1.1692(3) 0.3354(3) -0.0227(2)
O8A O 0.5992(3) 0.6482(3) 0.0648(2)
O9A O 0.7097(3) 0.4496(3) 0.0500(2)
O10A O 0.6836(3) 0.5314(3) -0.1700(2)
O10_2 O 1.3164(3) 0.4686(3) 0.1700(2)
O11A O 0.6856(3) 0.7779(3) -0.1700(2)
O11_2 O 1.3144(3) 0.2221(3) 0.1700(2)
O12A O 0.4852(4) 0.7666(3) -0.1318(3)
O13_2 O -0.0039(3) 0.4463(3) 0.1007(3)
O14A O 0.5479(4) 0.9033(3) 0.0652(3)
C1A C 1.2445(4) -0.0909(4) 0.1054(3)
H1A H 1.3432 -0.0430 0.1288
C2A C 1.2415(4) -0.2311(4) 0.1317(3)
C3A C 0.5929(4) 0.5782(4) -0.1218(3)
H2A H 0.4966 0.5257 -0.1429
C4A C 0.5855(4) 0.7184(4) -0.1444(3)
N1_2 N 1.0654(4) 0.1979(4) 0.7563(3)
N1_3 N 0.0654(4) 0.1979(4) -0.2437(3)
C5_2 C 1.0927(11) 0.1078(8) 0.7060(6)
H3_2 H 1.1084 0.0306 0.7361
C6_2 C 1.0999(11) 0.1192(8) 0.6107(6)
H4_2 H 1.1188 0.0499 0.5788
C7_2 C 1.0805(6) 0.2267(5) 0.5634(4)
C8_2 C 1.0578(16) 0.3276(10) 0.6181(8)
H5_2 H 1.0487 0.4073 0.5910
C9_2 C 1.0489(13) 0.3085(9) 0.7120(7)
H6_2 H 1.0305 0.3759 0.7463
N2_2 N 1.1073(4) 0.2788(4) 0.2682(3)
N2_3 N 0.1073(4) 0.2788(4) 0.2682(3)
C10_2 C 0.9996(9) 0.3156(9) 0.2930(6)
H7_2 H 0.9298 0.3531 0.2450
C11_2 C 0.9889(10) 0.2994(10) 0.3880(6)
H8_2 H 0.9133 0.3272 0.4023
C12_2 C 1.0891(6) 0.2426(5) 0.4613(4)
C13_2 C 1.1807(10) 0.1843(9) 0.4279(6)
H9_2 H 1.2388 0.1310 0.4692
C14_2 C 1.1861(10) 0.2056(9) 0.3316(6)
H10_2 H 1.2495 0.1655 0.3112
N3 N 0.4167(13) 0.0760(12) 0.7205(8)
C15 C 0.4103(13) -0.0542(11) 0.6931(9)
H11 H 0.3874 -0.1180 0.7327
C16 C 0.4384(15) -0.0876(11) 0.6058(10)
H12 H 0.4342 -0.1736 0.5878
C17 C 0.4730(16) 0.0091(13) 0.5458(8)
C18 C 0.4794(17) 0.1392(12) 0.5732(9)
H13 H 0.5022 0.2031 0.5335
C19 C 0.4512(15) 0.1727(11) 0.6605(10)
H14 H 0.4554 0.2586 0.6786
N3A N 0.5833(13) -0.0760(12) 0.2795(8)
C15A C 0.5897(13) 0.0542(11) 0.3069(9)
H11A H 0.6126 0.1180 0.2673
C16A C 0.5616(15) 0.0876(11) 0.3942(10)
H12A H 0.5658 0.1736 0.4122
C17A C 0.5270(16) -0.0091(13) 0.4542(8)
C18A C 0.5206(17) -0.1392(12) 0.4268(9)
H13A H 0.4978 -0.2031 0.4665
C19A C 0.5488(15) -0.1727(11) 0.3395(10)
H14A H 0.5446 -0.2586 0.3214
loop_
_geom_bond_atom_site_label_1
_geom_bond_atom_site_label_2
_geom_bond_site_symmetry_1
_geom_bond_site_symmetry_2
Co1 O3 1_555 1_555
Co2 O1 1_555 1_555
Co3 O1 1_555 1_555
P1 O1 1_555 1_555
P2 O7 1_555 1_555
O2 P1 1_555 1_555
O3 P1 1_555 1_555
O4 Co2 1_555 1_555
O5 Co2 1_555 1_555
O6 Co1 1_555 1_555
O7 Co2_2 1_555 1_555
O8 Co1 1_555 1_555
O9 P2 1_555 1_555
O10 C3 1_555 1_555
O11 C4 1_555 1_555
O12 Co1 1_555 1_555
O13 Co3 1_555 1_555
O14 Co1 1_555 1_555
C1 P1 1_555 1_555
H1 C1 1_555 1_555
C2 O5 1_555 1_555
C3 P2 1_555 1_555
H2 C3 1_555 1_555
C4 O12 1_555 1_555
N1 Co2 1_555 1_555
C5 N1 1_555 1_555
H3 C5 1_555 1_555
C6 C5 1_555 1_555
H4 C6 1_555 1_555
C7 C6 1_555 1_555
C8 C7 1_555 1_555
H5 C8 1_555 1_555
C9 N1 1_555 1_555
H6 C9 1_555 1_555
N2 C10 1_555 1_555
C10 H7 1_555 1_555
C11 C10 1_555 1_555
H8 C11 1_555 1_555
C12 C7 1_555 1_555
C13 C12 1_555 1_555
H9 C13 1_555 1_555
C14 N2 1_555 1_555
H10 C14 1_555 1_555
N3 C15 1_555 1_555
C15 H11 1_555 1_555
C16 C15 1_555 1_555
H12 C16 1_555 1_555
C17 C16 1_555 1_555
C18 C17 1_555 1_555
H13 C18 1_555 1_555
C19 N3 1_555 1_555
H14 C19 1_555 1_555
Co1A O9 1_555 1_555
Co1A_2 O3A 1_555 1_555
Co2_2 O1_2 1_555 1_555
Co2A O2 1_555 1_555
Co2A_2 O7A 1_555 1_555
Co2_3 N1_2 1_555 1_555
Co3_2 O7 1_555 1_555
Co3_3 N2 1_555 1_555
Co3A O7A 1_555 1_555
Co3A_2 O1A 1_555 1_555
P1A O1A 1_555 1_555
P2A O7A 1_555 1_555
O1A Co2A 1_555 1_555
O1_2 Co3_2 1_555 1_555
O2A Co2 1_555 1_555
O2A_2 Co2_2 1_555 1_555
O3A P1A 1_555 1_555
O3A_2 Co1A 1_555 1_555
O4A Co2A 1_555 1_555
O4_2 Co2_2 1_555 1_555
O5A Co2A 1_555 1_555
O5_2 Co2_2 1_555 1_555
O6A Co1A_2 1_555 1_555
O6A_2 Co1A 1_555 1_555
O7_2 Co2 1_555 1_555
O8A Co1A 1_555 1_555
O9A Co1 1_555 1_555
O10A Co3A 1_555 1_555
O10_2 Co3 1_555 1_555
O11A Co3A 1_555 1_555
O11_2 Co3 1_555 1_555
O12A Co1A 1_555 1_555
O13_2 Co3_2 1_555 1_555
O14A Co1A 1_555 1_555
C1A P1A 1_555 1_555
H1A C1A 1_555 1_555
C2A O5A 1_555 1_555
C3A P2A 1_555 1_555
H2A C3A 1_555 1_555
C4A O11A 1_555 1_555
N1_2 C5_2 1_555 1_555
N1_3 Co2_2 1_555 1_555
C5_2 H3_2 1_555 1_555
C6_2 C5_2 1_555 1_555
H4_2 C6_2 1_555 1_555
C7_2 C6_2 1_555 1_555
C8_2 C7_2 1_555 1_555
H5_2 C8_2 1_555 1_555
C9_2 N1_2 1_555 1_555
H6_2 C9_2 1_555 1_555
N2_2 Co3 1_555 1_555
N2_3 Co3_2 1_555 1_555
C10_2 N2_2 1_555 1_555
H7_2 C10_2 1_555 1_555
C11_2 C10_2 1_555 1_555
H8_2 C11_2 1_555 1_555
C12_2 C7_2 1_555 1_555
C13_2 C12_2 1_555 1_555
H9_2 C13_2 1_555 1_555
C14_2 N2_2 1_555 1_555
H10_2 C14_2 1_555 1_555
N3A C15A 1_555 1_555
C15A H11A 1_555 1_555
C16A C15A 1_555 1_555
H12A C16A 1_555 1_555
C17A C17 1_555 1_555
C18A C17A 1_555 1_555
H13A C18A 1_555 1_555
C19A N3A 1_555 1_555
H14A C19A 1_555 1_555
Co3 O7_2 1_555 1_555
P2 O8 1_555 1_555
O4 C1 1_555 1_555
O6 C2 1_555 1_555
O10 Co3_2 1_555 1_555
O11 Co3_2 1_555 1_555
C1 C2 1_555 1_555
C3 C4 1_555 1_555
C8 C9 1_555 1_555
C11 C12 1_555 1_555
C13 C14 1_555 1_555
C18 C19 1_555 1_555
P1A O2A 1_555 1_555
P2A O8A 1_555 1_555
P2A O9A 1_555 1_555
O4A C1A 1_555 1_555
O6A C2A 1_555 1_555
O10A C3A 1_555 1_555
O12A C4A 1_555 1_555
C1A C2A 1_555 1_555
C3A C4A 1_555 1_555
C8_2 C9_2 1_555 1_555
C11_2 C12_2 1_555 1_555
C13_2 C14_2 1_555 1_555
C16A C17A 1_555 1_555
C18A C19A 1_555 1_555

#END
