
#######################################################################
#
#                 Cambridge Crystallographic Data Centre
#                                CCDC 
#
#######################################################################
#
# If this CIF has been generated from an entry in the Cambridge 
# Structural Database, then it will include bibliographic, chemical, 
# crystal, experimental, refinement or atomic coordinate data resulting 
# from the CCDC's data processing and validation procedures.
#
#######################################################################

data_OKOSUE
_chemical_formula_moiety         '(C38 H24 Cd3 O15)n'
_symmetry_cell_setting           monoclinic
_symmetry_space_group_name_H-M   'C 2/c'
_symmetry_Int_Tables_number      15
_space_group_name_Hall           '-C 2yc'
loop_
_symmetry_equiv_pos_site_id
_symmetry_equiv_pos_as_xyz
1 x,y,z
2 -x,y,1/2-z
3 1/2+x,1/2+y,z
4 1/2-x,1/2+y,1/2-z
5 -x,-y,-z
6 x,-y,1/2+z
7 1/2-x,1/2-y,-z
8 1/2+x,1/2-y,1/2+z
_cell_length_a                   36.061(5)
_cell_length_b                   18.233(3)
_cell_length_c                   25.146(4)
_cell_angle_alpha                90
_cell_angle_beta                 121.237(7)
_cell_angle_gamma                90
_cell_volume                     14136.6
loop_
_atom_site_label
_atom_site_type_symbol
_atom_site_fract_x
_atom_site_fract_y
_atom_site_fract_z
_atom_site_U_iso_or_equiv
_atom_site_thermal_displace_type
Cd1 Cd 0.209276(11) 0.87224(2) 0.307174(19) 0.0367 Uani
Cd2 Cd 0.318050(11) 0.86042(2) 0.326231(19) 0.0358 Uani
Cd3 Cd 0.322798(12) 0.92760(3) 0.45771(2) 0.0423 Uani
O1 O 0.21725(11) 0.9883(2) 0.2751(2) 0.0514 Uani
O2 O 0.28083(11) 0.9474(2) 0.34769(18) 0.0382 Uani
O3 O 0.20204(12) 1.2532(2) 0.2240(2) 0.0592 Uani
O4 O 0.25850(12) 1.3218(2) 0.24917(18) 0.0395 Uani
O5 O 0.62286(12) 1.0666(3) 0.5636(3) 0.0680 Uani
O6 O 0.61153(14) 1.1553(3) 0.6133(3) 0.0781 Uani
O7 O 0.28122(12) 0.8902(3) 0.4937(2) 0.0544 Uani
O8 O 0.22533(13) 0.9246(2) 0.4009(2) 0.0515 Uani
O9 O 0.25639(11) 0.7270(2) 0.62969(19) 0.0471 Uani
O10 O 0.18866(12) 0.6871(2) 0.59220(19) 0.0445 Uani
O11 O -0.13575(15) 0.9133(4) 0.2233(3) 0.1025 Uani
O12 O -0.14671(15) 0.8153(4) 0.2590(3) 0.1044 Uani
O13 O 0.32545(10) 1.04566(19) 0.48067(17) 0.1065 Uani
H1 H 0.3264 1.0503 0.5150 0.1280 Uiso
H2 H 0.3480 1.0646 0.4838 0.1280 Uiso
O14 O 0.31684(10) 0.94096(19) 0.25710(17) 0.0868 Uani
H3 H 0.3157 0.9175 0.2270 0.1040 Uiso
H4 H 0.2948 0.9687 0.2434 0.1040 Uiso
O15 O 0.37767(10) 0.88859(19) 0.55886(17) 0.1146 Uani
H5 H 0.3743 0.9102 0.5860 0.1370 Uiso
H6 H 0.3760 0.8425 0.5621 0.1370 Uiso
C1 C 0.27676(16) 1.0711(3) 0.3140(3) 0.0365 Uani
C2 C 0.25148(17) 1.1305(3) 0.2817(3) 0.0409 Uani
H7 H 0.2215 1.1254 0.2570 0.0490 Uiso
C3 C 0.27073(16) 1.1984(3) 0.2861(3) 0.0395 Uani
C4 C 0.31527(16) 1.2050(3) 0.3217(3) 0.0451 Uani
H8 H 0.3280 1.2500 0.3235 0.0540 Uiso
C5 C 0.34149(17) 1.1464(3) 0.3547(3) 0.0415 Uani
C6 C 0.32172(16) 1.0795(3) 0.3497(3) 0.0425 Uani
H9 H 0.3389 1.0390 0.3706 0.0510 Uiso
C7 C 0.25653(16) 0.9980(3) 0.3112(2) 0.0360 Uani
C8 C 0.24251(16) 1.2626(3) 0.2514(3) 0.0390 Uani
C9 C 0.38931(16) 1.1523(3) 0.3958(3) 0.0410 Uani
C10 C 0.40727(19) 1.2097(4) 0.4391(3) 0.0581 Uani
H10 H 0.3893 1.2457 0.4400 0.0700 Uiso
C11 C 0.45061(19) 1.2128(4) 0.4797(4) 0.0652 Uani
H11 H 0.4619 1.2513 0.5081 0.0780 Uiso
C12 C 0.47889(17) 1.1602(4) 0.4802(3) 0.0487 Uani
C13 C 0.52437(19) 1.1606(4) 0.5237(3) 0.0567 Uani
H12 H 0.5361 1.1964 0.5545 0.0680 Uiso
C14 C 0.55082(17) 1.1103(4) 0.5212(3) 0.0507 Uani
C15 C 0.5338(2) 1.0566(4) 0.4753(4) 0.0700 Uani
H13 H 0.5523 1.0228 0.4732 0.0840 Uiso
C16 C 0.4895(2) 1.0527(4) 0.4325(4) 0.0668 Uani
H14 H 0.4785 1.0159 0.4026 0.0800 Uiso
C17 C 0.46141(17) 1.1048(4) 0.4345(3) 0.0463 Uani
C18 C 0.41611(17) 1.1014(4) 0.3939(3) 0.0484 Uani
H15 H 0.4043 1.0634 0.3652 0.0580 Uiso
C19 C 0.59853(19) 1.1108(5) 0.5690(4) 0.0609 Uani
C20 C 0.21103(16) 0.8621(3) 0.4717(3) 0.0332 Uani
C21 C 0.22729(15) 0.8178(3) 0.5238(3) 0.0356 Uani
H16 H 0.2571 0.8110 0.5491 0.0430 Uiso
C22 C 0.19963(15) 0.7835(3) 0.5386(2) 0.0319 Uani
C23 C 0.15538(16) 0.7960(3) 0.5022(3) 0.0356 Uani
H17 H 0.1368 0.7735 0.5125 0.0430 Uiso
C24 C 0.13801(16) 0.8425(3) 0.4497(3) 0.0417 Uani
C25 C 0.16657(16) 0.8732(3) 0.4344(3) 0.0363 Uani
H18 H 0.1557 0.9016 0.3986 0.0440 Uiso
C26 C 0.24052(17) 0.8950(3) 0.4533(3) 0.0402 Uani
C27 C 0.21670(15) 0.7294(3) 0.5920(3) 0.0330 Uani
C28 C 0.09022(17) 0.8551(4) 0.4104(3) 0.0494 Uani
C29 C 0.06120(17) 0.8080(4) 0.4083(3) 0.0589 Uani
H19 H 0.0712 0.7652 0.4317 0.0710 Uiso
C30 C 0.01575(18) 0.8203(4) 0.3718(3) 0.0541 Uani
C31 C -0.01440(19) 0.7670(5) 0.3681(4) 0.0724 Uani
H20 H -0.0046 0.7224 0.3888 0.0870 Uiso
C32 C -0.0580(2) 0.7819(5) 0.3338(4) 0.0785 Uani
H21 H -0.0777 0.7481 0.3329 0.0940 Uiso
C33 C -0.07359(17) 0.8490(4) 0.2992(3) 0.0536 Uani
C34 C -0.04519(19) 0.8953(5) 0.2989(3) 0.0652 Uani
H22 H -0.0553 0.9370 0.2740 0.0790 Uiso
C35 C 0.00025(18) 0.8827(4) 0.3356(3) 0.0560 Uani
C36 C 0.0307(2) 0.9344(5) 0.3382(4) 0.0863 Uani
H23 H 0.0210 0.9774 0.3151 0.1040 Uiso
C37 C 0.0746(2) 0.9209(5) 0.3752(4) 0.0888 Uani
H24 H 0.0943 0.9553 0.3770 0.1070 Uiso
C38 C -0.12157(19) 0.8614(5) 0.2589(3) 0.0601 Uani
Cd1A Cd -0.209276(11) 0.87224(2) 0.192826(19) 0.0367 Uani
Cd1C Cd 0.290724(11) 1.37224(2) 0.192826(19) 0.0367 Uani
Cd1F Cd 0.290724(11) 0.62776(2) 0.692826(19) 0.0367 Uani
Cd2C Cd 0.181950(11) 1.36042(2) 0.173769(19) 0.0358 Uani
Cd2D Cd 0.681950(11) 1.13958(2) 0.673769(19) 0.0358 Uani
Cd2F Cd 0.181950(11) 0.63958(2) 0.673769(19) 0.0358 Uani
Cd3D Cd 0.677202(12) 1.07240(3) 0.54229(2) 0.0423 Uani
Cd3F Cd 0.177202(12) 0.57240(3) 0.54229(2) 0.0423 Uani
O3C O 0.29796(12) 0.7532(2) 0.2760(2) 0.0592 Uani
O4C O 0.24150(12) 0.8218(2) 0.25083(18) 0.0395 Uani
O5D O 0.37714(12) 0.9334(3) 0.4364(3) 0.0680 Uani
O6D O 0.38847(14) 0.8447(3) 0.3867(3) 0.0781 Uani
O9F O 0.24361(11) 0.7730(2) 0.37031(19) 0.0471 Uani
O10F O 0.31134(12) 0.8129(2) 0.40780(19) 0.0445 Uani
O11A O 0.13575(15) 0.9133(4) 0.2767(3) 0.1025 Uani
O12A O 0.14671(15) 0.8153(4) 0.2410(3) 0.1044 Uani
loop_
_atom_site_aniso_label
_atom_site_aniso_U_11
_atom_site_aniso_U_22
_atom_site_aniso_U_33
_atom_site_aniso_U_23
_atom_site_aniso_U_13
_atom_site_aniso_U_12
Cd1 0.01570(18) 0.0356(3) 0.0424(2) 0.00735(18) 0.00342(16) -0.00183(15)
Cd2 0.01993(19) 0.0324(3) 0.0396(2) -0.00162(18) 0.00456(16) -0.00534(15)
Cd3 0.0254(2) 0.0476(3) 0.0426(3) 0.0027(2) 0.00967(18) -0.00719(18)
O1 0.0218(18) 0.047(3) 0.061(3) 0.010(2) 0.0043(18) -0.0079(17)
O2 0.0292(18) 0.033(2) 0.045(2) 0.0074(18) 0.0140(17) -0.0002(16)
O3 0.0226(19) 0.046(3) 0.082(3) 0.022(2) 0.008(2) 0.0060(18)
O4 0.034(2) 0.025(2) 0.052(2) 0.0058(18) 0.0170(19) 0.0029(16)
O5 0.0215(19) 0.061(3) 0.111(4) 0.039(3) 0.027(2) 0.009(2)
O6 0.019(2) 0.114(5) 0.069(4) -0.005(3) 0.000(2) -0.012(3)
O7 0.027(2) 0.074(3) 0.058(3) 0.017(2) 0.019(2) -0.005(2)
O8 0.045(2) 0.056(3) 0.055(3) 0.009(2) 0.027(2) -0.003(2)
O9 0.0233(18) 0.044(3) 0.048(2) 0.017(2) 0.0001(17) 0.0014(17)
O10 0.033(2) 0.038(2) 0.049(2) 0.0128(19) 0.0118(18) -0.0034(18)
O11 0.028(2) 0.133(6) 0.109(5) 0.036(4) 0.009(3) 0.020(3)
O12 0.020(2) 0.155(6) 0.103(5) 0.051(4) 0.007(3) 0.011(3)
O13 0.159(7) 0.089(5) 0.106(5) -0.008(4) 0.093(5) -0.021(5)
O14 0.108(5) 0.067(4) 0.104(5) -0.002(3) 0.068(4) -0.012(3)
O15 0.022(2) 0.123(5) 0.126(5) -0.072(4) -0.013(3) 0.009(3)
C1 0.024(2) 0.021(3) 0.047(3) 0.007(2) 0.006(2) -0.003(2)
C2 0.022(2) 0.034(4) 0.047(3) 0.006(3) 0.004(2) 0.000(2)
C3 0.021(2) 0.034(3) 0.047(3) 0.009(3) 0.006(2) 0.000(2)
C4 0.026(3) 0.033(4) 0.056(4) 0.005(3) 0.007(3) -0.007(2)
C5 0.021(2) 0.032(3) 0.056(4) 0.010(3) 0.009(2) 0.001(2)
C6 0.022(2) 0.036(4) 0.050(4) 0.010(3) 0.005(2) 0.004(2)
C7 0.023(2) 0.033(3) 0.037(3) 0.006(2) 0.005(2) -0.001(2)
C8 0.025(3) 0.030(4) 0.047(3) 0.007(3) 0.008(2) 0.003(2)
C9 0.020(2) 0.030(3) 0.050(4) 0.006(3) 0.002(2) -0.002(2)
C10 0.028(3) 0.049(4) 0.072(5) -0.005(4) 0.008(3) 0.004(3)
C11 0.030(3) 0.062(5) 0.075(5) -0.020(4) 0.007(3) -0.002(3)
C12 0.022(3) 0.048(4) 0.057(4) -0.003(3) 0.007(3) -0.004(3)
C13 0.027(3) 0.069(5) 0.050(4) -0.004(4) 0.003(3) -0.003(3)
C14 0.021(3) 0.061(5) 0.054(4) 0.010(3) 0.008(3) 0.003(3)
C15 0.027(3) 0.066(5) 0.099(6) 0.000(5) 0.020(4) 0.011(3)
C16 0.032(3) 0.063(5) 0.085(6) -0.015(4) 0.016(3) 0.002(3)
C17 0.023(3) 0.045(4) 0.056(4) 0.006(3) 0.010(3) 0.001(2)
C18 0.025(3) 0.040(4) 0.057(4) -0.006(3) 0.005(3) -0.008(2)
C19 0.023(3) 0.074(5) 0.069(5) 0.028(4) 0.012(3) -0.003(3)
C20 0.022(2) 0.033(3) 0.034(3) 0.000(2) 0.007(2) 0.002(2)
C21 0.015(2) 0.036(3) 0.041(3) 0.002(3) 0.004(2) 0.000(2)
C22 0.019(2) 0.025(3) 0.039(3) 0.003(2) 0.006(2) 0.001(2)
C23 0.021(2) 0.036(3) 0.040(3) 0.006(3) 0.009(2) -0.003(2)
C24 0.020(2) 0.042(4) 0.048(3) 0.013(3) 0.007(2) 0.006(2)
C25 0.022(2) 0.037(3) 0.040(3) 0.010(3) 0.009(2) 0.002(2)
C26 0.025(3) 0.042(4) 0.050(4) 0.001(3) 0.017(3) -0.003(2)
C27 0.024(2) 0.020(3) 0.039(3) 0.006(2) 0.005(2) -0.001(2)
C28 0.017(2) 0.061(5) 0.053(4) 0.021(3) 0.006(3) 0.006(3)
C29 0.022(3) 0.079(5) 0.064(4) 0.042(4) 0.014(3) 0.012(3)
C30 0.023(3) 0.071(5) 0.053(4) 0.024(4) 0.009(3) 0.005(3)
C31 0.026(3) 0.085(6) 0.082(5) 0.034(5) 0.011(3) -0.001(3)
C32 0.023(3) 0.125(8) 0.062(5) 0.023(5) 0.004(3) -0.014(4)
C33 0.017(3) 0.072(5) 0.053(4) 0.008(4) 0.005(3) 0.009(3)
C34 0.025(3) 0.088(6) 0.065(5) 0.036(4) 0.011(3) 0.016(3)
C35 0.025(3) 0.070(5) 0.057(4) 0.021(4) 0.010(3) 0.011(3)
C36 0.029(3) 0.086(6) 0.114(7) 0.059(5) 0.016(4) 0.007(4)
C37 0.032(3) 0.098(7) 0.117(7) 0.070(6) 0.025(4) 0.010(4)
C38 0.020(3) 0.085(6) 0.058(4) -0.002(4) 0.008(3) 0.004(3)
Cd1A 0.0157 0.0356 0.0424 -0.00735 0.00342 0.00183
Cd1C 0.0157 0.0356 0.0424 -0.00735 0.00342 0.00183
Cd1F 0.0157 0.0356 0.0424 0.00735 0.00342 -0.00183
Cd2C 0.01993 0.0324 0.0396 0.00162 0.00456 0.00534
Cd2D 0.01993 0.0324 0.0396 -0.00162 0.00456 -0.00534
Cd2F 0.01993 0.0324 0.0396 -0.00162 0.00456 -0.00534
Cd3D 0.0254 0.0476 0.0426 0.0027 0.00967 -0.00719
Cd3F 0.0254 0.0476 0.0426 0.0027 0.00967 -0.00719
O3C 0.0226 0.046 0.082 -0.022 0.008 -0.006
O4C 0.034 0.025 0.052 -0.0058 0.017 -0.0029
O5D 0.0215 0.061 0.111 0.039 0.027 0.009
O6D 0.019 0.114 0.069 -0.005 0 -0.012
O9F 0.0233 0.044 0.048 0.017 0.0001 0.0014
O10F 0.033 0.038 0.049 0.0128 0.0118 -0.0034
O11A 0.028 0.133 0.109 -0.036 0.009 -0.02
O12A 0.02 0.155 0.103 -0.051 0.007 -0.011
loop_
_geom_bond_atom_site_label_1
_geom_bond_atom_site_label_2
_geom_bond_site_symmetry_1
_geom_bond_site_symmetry_2
Cd1 O1 1_555 1_555
Cd2 O2 1_555 1_555
Cd3 O2 1_555 1_555
O1 C7 1_555 1_555
O2 Cd1 1_555 1_555
O3 C8 1_555 1_555
O4 C8 1_555 1_555
O5 C19 1_555 1_555
O6 C19 1_555 1_555
O7 Cd3 1_555 1_555
O8 Cd1 1_555 1_555
O9 C27 1_555 1_555
O10 C27 1_555 1_555
O11 C38 1_555 1_555
O12 C38 1_555 1_555
O13 Cd3 1_555 1_555
H1 O13 1_555 1_555
H2 O13 1_555 1_555
O14 Cd2 1_555 1_555
H3 O14 1_555 1_555
H4 O14 1_555 1_555
O15 Cd3 1_555 1_555
H5 O15 1_555 1_555
H6 O15 1_555 1_555
C1 C2 1_555 1_555
C2 H7 1_555 1_555
C3 C2 1_555 1_555
C4 C3 1_555 1_555
H8 C4 1_555 1_555
C5 C4 1_555 1_555
C6 C1 1_555 1_555
H9 C6 1_555 1_555
C7 O2 1_555 1_555
C8 C3 1_555 1_555
C9 C5 1_555 1_555
C10 C9 1_555 1_555
H10 C10 1_555 1_555
C11 C10 1_555 1_555
H11 C11 1_555 1_555
C12 C11 1_555 1_555
C13 C12 1_555 1_555
H12 C13 1_555 1_555
C14 C13 1_555 1_555
C15 C14 1_555 1_555
H13 C15 1_555 1_555
C16 C15 1_555 1_555
H14 C16 1_555 1_555
C17 C12 1_555 1_555
C18 C9 1_555 1_555
H15 C18 1_555 1_555
C19 C14 1_555 1_555
C20 C21 1_555 1_555
C21 H16 1_555 1_555
C22 C21 1_555 1_555
C23 C22 1_555 1_555
H17 C23 1_555 1_555
C24 C23 1_555 1_555
C25 C20 1_555 1_555
H18 C25 1_555 1_555
C26 O7 1_555 1_555
C27 C22 1_555 1_555
C28 C24 1_555 1_555
C29 C28 1_555 1_555
H19 C29 1_555 1_555
C30 C29 1_555 1_555
C31 C30 1_555 1_555
H20 C31 1_555 1_555
C32 C31 1_555 1_555
H21 C32 1_555 1_555
C33 C32 1_555 1_555
C34 C33 1_555 1_555
H22 C34 1_555 1_555
C35 C30 1_555 1_555
C36 C35 1_555 1_555
H23 C36 1_555 1_555
C37 C28 1_555 1_555
H24 C37 1_555 1_555
C38 C33 1_555 1_555
Cd1A O11 1_555 1_555
Cd1C O4 1_555 1_555
Cd1F O9 1_555 1_555
Cd2C O3 1_555 1_555
Cd2D O5 1_555 1_555
Cd2F O10 1_555 1_555
Cd3D O5 1_555 1_555
Cd3F O10 1_555 1_555
O3C Cd2 1_555 1_555
O4C Cd1 1_555 1_555
O5D Cd2 1_555 1_555
O6D Cd2 1_555 1_555
O9F Cd1 1_555 1_555
O10F Cd2 1_555 1_555
O11A Cd1 1_555 1_555
O12A Cd1 1_555 1_555
Cd2 O4C 1_555 1_555
Cd3 O5D 1_555 1_555
Cd3 O10F 1_555 1_555
O4 Cd2C 1_555 1_555
O6 Cd2D 1_555 1_555
O8 C26 1_555 1_555
O12 Cd1A 1_555 1_555
C1 C7 1_555 1_555
C5 C6 1_555 1_555
C16 C17 1_555 1_555
C17 C18 1_555 1_555
C20 C26 1_555 1_555
C24 C25 1_555 1_555
C34 C35 1_555 1_555
C36 C37 1_555 1_555

#END
