
#######################################################################
#
#                 Cambridge Crystallographic Data Centre
#                                CCDC 
#
#######################################################################
#
# If this CIF has been generated from an entry in the Cambridge 
# Structural Database, then it will include bibliographic, chemical, 
# crystal, experimental, refinement or atomic coordinate data resulting 
# from the CCDC's data processing and validation procedures.
#
#######################################################################

data_OPIPUZ
_chemical_formula_moiety         '(C20 H26 Co2 N4 O10)n'
_symmetry_cell_setting           monoclinic
_symmetry_space_group_name_H-M   'P 21/n'
_symmetry_Int_Tables_number      14
_space_group_name_Hall           '-P 2yn'
loop_
_symmetry_equiv_pos_site_id
_symmetry_equiv_pos_as_xyz
1 x,y,z
2 1/2-x,1/2+y,1/2-z
3 -x,-y,-z
4 1/2+x,1/2-y,1/2+z
_cell_length_a                   6.5634(2)
_cell_length_b                   25.3343(8)
_cell_length_c                   7.8400(2)
_cell_angle_alpha                90
_cell_angle_beta                 90.718(1)
_cell_angle_gamma                90
_cell_volume                     1303.53
loop_
_atom_site_label
_atom_site_type_symbol
_atom_site_fract_x
_atom_site_fract_y
_atom_site_fract_z
O5 O -0.1164(17) -0.0707(3) 0.3460(12)
O6 O -0.311(3) 0.0159(7) 0.545(2)
Co1 Co 0.12349(6) 0.214130(15) -0.05747(5)
O1 O -0.0646(3) 0.24035(8) -0.2554(3)
O2 O 0.3192(3) 0.18483(8) 0.1273(3)
C1 C -0.0676(5) 0.28953(12) -0.2715(4)
C2 C 0.0770(5) 0.32241(12) -0.1567(4)
H1 H 0.1315 0.3526 -0.2247
N1 N 0.2496(4) 0.28962(10) -0.0962(4)
H2 H 0.3036 0.3028 0.0039
H3 H 0.3506 0.2884 -0.1765
C3 C -0.0406(5) 0.34430(12) -0.0060(4)
H4 H -0.1611 0.3634 -0.0515
H5 H 0.0471 0.3706 0.0528
C4 C -0.1140(5) 0.30479(12) 0.1273(4)
O3 O -0.0734(4) 0.25628(9) 0.1137(3)
O4 O -0.2126(3) 0.32531(9) 0.2470(3)
N2 N -0.0573(4) 0.14503(10) -0.0186(3)
C5 C -0.2508(5) 0.14361(12) -0.0760(4)
H6 H -0.3023 0.1736 -0.1351
C6 C -0.3790(5) 0.10104(13) -0.0540(4)
H7 H -0.5136 0.1016 -0.0998
C7 C -0.3089(6) 0.05743(14) 0.0357(5)
C8 C -0.1096(6) 0.05864(14) 0.0961(5)
H8 H -0.0558 0.0295 0.1582
C9 C 0.0114(5) 0.10248(13) 0.0658(5)
H9 H 0.1484 0.1023 0.1066
C10 C -0.4528(8) 0.01180(18) 0.0757(6)
H10 H -0.3757 -0.0158 0.1384
H11 H -0.5613 0.0248 0.1515
Co1C Co -0.37651(6) 0.285870(15) -0.55747(5)
Co1C_2 Co -0.37651(6) 0.285870(15) 0.44253(5)
Co1C_3 Co 0.62349(6) 0.285870(15) 0.44253(5)
Co1_2 Co 0.12349(6) 0.214130(15) 0.94253(5)
Co1B Co -1.12349(6) -0.214130(15) 0.05747(5)
O1C O 0.4354(3) 0.25965(8) 0.2446(3)
O1C_2 O -0.5646(3) 0.25965(8) -0.7554(3)
O2C O -0.1808(3) 0.31517(8) -0.3727(3)
C1C C 0.4324(5) 0.21047(12) 0.2285(4)
C2C C 0.5770(5) 0.17759(12) 0.3433(4)
H1C H 0.6315 0.1474 0.2753
N1C N 0.7496(4) 0.21038(10) 0.4038(4)
N1C_2 N -0.2504(4) 0.21038(10) -0.5962(4)
H2C H 0.8036 0.1972 0.5039
H2C_2 H -0.1964 0.1972 -0.4961
H3C H 0.8506 0.2116 0.3235
H3C_2 H -0.1494 0.2116 -0.6765
C3C C 0.4594(5) 0.15570(12) 0.4940(4)
H4C H 0.3389 0.1366 0.4485
H5C H 0.5471 0.1294 0.5528
C4C C 0.3860(5) 0.19521(12) 0.6273(4)
O3C O -0.5734(4) 0.24372(9) -0.3863(3)
O3C_2 O 0.4266(4) 0.24372(9) 0.6137(3)
O4C O 0.2874(3) 0.17469(9) -0.2530(3)
O4_2 O -0.2126(3) 0.32531(9) -0.7530(3)
O4C_2 O 0.2874(3) 0.17469(9) 0.7470(3)
N2C N -0.5573(4) 0.35497(10) -0.5186(3)
N2B N -0.9427(4) -0.14503(10) 0.0186(3)
C5B C -0.7492(5) -0.14361(12) 0.0760(4)
H6B H -0.6977 -0.1736 0.1351
C6B C -0.6210(5) -0.10104(13) 0.0540(4)
H7B H -0.4864 -0.1016 0.0998
C7B C -0.6911(6) -0.05743(14) -0.0357(5)
C8B C -0.8904(6) -0.05864(14) -0.0961(5)
H8B H -0.9442 -0.0295 -0.1582
C9B C -1.0114(5) -0.10248(13) -0.0658(5)
H9B H -1.1484 -0.1023 -0.1066
C10B C -0.5472(8) -0.01180(18) -0.0757(6)
H10B H -0.6243 0.0158 -0.1384
H11B H -0.4387 -0.0248 -0.1515
loop_
_geom_bond_atom_site_label_1
_geom_bond_atom_site_label_2
_geom_bond_site_symmetry_1
_geom_bond_site_symmetry_2
Co1 O1 1_555 1_555
O1 C1 1_555 1_555
O2 Co1 1_555 1_555
C1 C2 1_555 1_555
C2 H1 1_555 1_555
N1 Co1 1_555 1_555
H2 N1 1_555 1_555
H3 N1 1_555 1_555
C3 C2 1_555 1_555
H4 C3 1_555 1_555
H5 C3 1_555 1_555
C4 C3 1_555 1_555
O3 Co1 1_555 1_555
O4 C4 1_555 1_555
N2 Co1 1_555 1_555
C5 N2 1_555 1_555
H6 C5 1_555 1_555
C6 C5 1_555 1_555
H7 C6 1_555 1_555
C7 C6 1_555 1_555
C8 C7 1_555 1_555
H8 C8 1_555 1_555
C9 N2 1_555 1_555
H9 C9 1_555 1_555
C10 C7 1_555 1_555
H10 C10 1_555 1_555
H11 C10 1_555 1_555
Co1C O1C_2 1_555 1_555
Co1C_2 O4 1_555 1_555
Co1C_3 O1C 1_555 1_555
Co1_2 O4C_2 1_555 1_555
Co1B N2B 1_555 1_555
O1C C1C 1_555 1_555
O2C C1 1_555 1_555
C1C O2 1_555 1_555
C2C C1C 1_555 1_555
H1C C2C 1_555 1_555
N1C Co1C_3 1_555 1_555
N1C_2 Co1C 1_555 1_555
H2C N1C 1_555 1_555
H2C_2 N1C_2 1_555 1_555
H3C N1C 1_555 1_555
H3C_2 N1C_2 1_555 1_555
C3C C2C 1_555 1_555
H4C C3C 1_555 1_555
H5C C3C 1_555 1_555
C4C C3C 1_555 1_555
O3C Co1C 1_555 1_555
O3C_2 Co1C_3 1_555 1_555
O4C Co1 1_555 1_555
O4_2 Co1C 1_555 1_555
O4C_2 C4C 1_555 1_555
N2C Co1C 1_555 1_555
N2B C5B 1_555 1_555
C5B H6B 1_555 1_555
C6B C5B 1_555 1_555
H7B C6B 1_555 1_555
C7B C6B 1_555 1_555
C8B C7B 1_555 1_555
H8B C8B 1_555 1_555
C9B N2B 1_555 1_555
H9B C9B 1_555 1_555
C10B C10 1_555 1_555
H10B C10B 1_555 1_555
H11B C10B 1_555 1_555
C2 N1 1_555 1_555
C4 O3 1_555 1_555
C8 C9 1_555 1_555
Co1C O2C 1_555 1_555
C2C N1C 1_555 1_555
C4C O3C_2 1_555 1_555
C7B C10B 1_555 1_555
C8B C9B 1_555 1_555

#END
