
#######################################################################
#
#                 Cambridge Crystallographic Data Centre
#                                CCDC 
#
#######################################################################
#
# If this CIF has been generated from an entry in the Cambridge 
# Structural Database, then it will include bibliographic, chemical, 
# crystal, experimental, refinement or atomic coordinate data resulting 
# from the CCDC's data processing and validation procedures.
#
#######################################################################

data_OPIWEQ
_chemical_formula_moiety         '(C19 H22 Co2 N4 O9)n'
_symmetry_cell_setting           orthorhombic
_symmetry_space_group_name_H-M   'P 21 21 2'
_symmetry_Int_Tables_number      18
_space_group_name_Hall           'P 2 2ab'
loop_
_symmetry_equiv_pos_site_id
_symmetry_equiv_pos_as_xyz
1 x,y,z
2 -x,-y,z
3 1/2+x,1/2-y,-z
4 1/2-x,1/2+y,-z
_cell_length_a                   22.1923(18)
_cell_length_b                   6.9433(5)
_cell_length_c                   7.7302(6)
_cell_angle_alpha                90
_cell_angle_beta                 90
_cell_angle_gamma                90
_cell_volume                     1191.13
loop_
_atom_site_label
_atom_site_type_symbol
_atom_site_fract_x
_atom_site_fract_y
_atom_site_fract_z
O5 O 0.5582(4) 0.5094(15) 1.0828(13)
H10 H 0.5318 0.4364 1.1247
C10 C 0.5530(8) 0.702(2) 1.161(2)
H11 H 0.5103 0.7360 1.1734
H12 H 0.5730 0.7970 1.0873
H13 H 0.5720 0.7016 1.2757
Co1 Co 0.287472(19) 1.45306(6) 0.75776(8)
O1 O 0.24832(15) 1.2475(5) 0.5793(4)
O2 O 0.17423(16) 1.1153(6) 0.4285(5)
C1 C 0.1943(2) 1.2100(7) 0.5537(6)
C2 C 0.14375(18) 1.2735(7) 0.6774(6)
H1 H 0.1144 1.3507 0.6105
H2 H 0.1225 1.1567 0.7184
C3 C 0.16239(17) 1.3890(6) 0.8334(5)
H3 H 0.1254 1.4361 0.8937
N1 N 0.19848(13) 1.5579(4) 0.7768(5)
H4 H 0.1961 1.6559 0.8566
H5 H 0.1852 1.6029 0.6716
C4 C 0.19888(19) 1.2646(6) 0.9593(5)
O3 O 0.25504(15) 1.2907(5) 0.9601(4)
O4 O 0.17114(15) 1.1482(5) 1.0553(5)
N2 N 0.3678(7) 1.287(2) 0.7865(14)
H6 H 0.3281 1.0381 0.7264
C6 C 0.41643(15) 0.9779(5) 0.7430(7)
H7 H 0.4139 0.8490 0.7026
C7 C 0.4725(4) 1.0580(15) 0.7997(13)
C8 C 0.4724(5) 1.2542(15) 0.8439(16)
H8 H 0.5086 1.3162 0.8787
C9 C 0.4203(4) 1.3533(15) 0.8365(15)
H9 H 0.4217 1.4845 0.8711
C11 C 0.36617(14) 1.0950(4) 0.7493(7)
Co1C Co 0.212528(19) 1.95306(6) 0.24224(8)
Co1C_2 Co 0.212528(19) 0.95306(6) 0.24224(8)
Co1C_3 Co 0.212528(19) 0.95306(6) 1.24224(8)
Co1A Co 0.712528(19) 0.54694(6) 0.75776(8)
Co1_2 Co 0.287472(19) 1.45306(6) -0.24224(8)
O1C O 0.25168(15) 1.7475(5) 0.4207(4)
O2C O 0.32577(16) 1.6153(6) 0.5715(5)
O2_2 O 0.17423(16) 2.1153(6) 0.4285(5)
C1C C 0.3057(2) 1.7100(7) 0.4463(6)
C2C C 0.35625(18) 1.7735(7) 0.3226(6)
H1C H 0.3856 1.8507 0.3895
H2C H 0.3775 1.6567 0.2816
C3C C 0.33761(17) 1.8890(6) 0.1666(5)
H3C H 0.3746 1.9361 0.1063
N1C N 0.30152(13) 2.0579(4) 0.2232(5)
H4C H 0.3039 2.1559 0.1434
H5C H 0.3148 2.1029 0.3284
C4C C 0.30112(19) 1.7646(6) 0.0407(5)
O3C O 0.24496(15) 1.7907(5) 0.0399(4)
O4C O 0.32886(15) 1.6482(5) -0.0553(5)
O4C_2 O 0.32886(15) 1.6482(5) 0.9447(5)
O4_2 O 0.17114(15) 2.1482(5) 0.0553(5)
N2A N 0.6322(7) 0.713(2) 0.7865(14)
N2C N 0.1322(7) 1.787(2) 0.2135(14)
H6A H 0.6719 0.9619 0.7264
C6A C 0.58357(15) 1.0221(5) 0.7430(7)
H7A H 0.5861 1.1510 0.7026
C7A C 0.5275(4) 0.9420(15) 0.7997(13)
C8A C 0.5276(5) 0.7458(15) 0.8439(16)
H8A H 0.4914 0.6838 0.8787
C9A C 0.5797(4) 0.6467(15) 0.8365(15)
H9A H 0.5783 0.5155 0.8711
C11A C 0.63383(14) 0.9050(4) 0.7493(7)
loop_
_geom_bond_atom_site_label_1
_geom_bond_atom_site_label_2
_geom_bond_site_symmetry_1
_geom_bond_site_symmetry_2
Co1 O1 1_555 1_555
O1 C1 1_555 1_555
O2 C1 1_555 1_555
C1 C2 1_555 1_555
C2 H1 1_555 1_555
H2 C2 1_555 1_555
C3 C2 1_555 1_555
H3 C3 1_555 1_555
N1 Co1 1_555 1_555
H4 N1 1_555 1_555
H5 N1 1_555 1_555
C4 C3 1_555 1_555
O3 Co1 1_555 1_555
O4 C4 1_555 1_555
N2 Co1 1_555 1_555
H6 C11 1_555 1_555
C6 H7 1_555 1_555
C7 C6 1_555 1_555
C8 C7 1_555 1_555
H8 C8 1_555 1_555
C9 N2 1_555 1_555
H9 C9 1_555 1_555
O5 H10 1_555 1_555
C10 O5 1_555 1_555
H11 C10 1_555 1_555
H12 C10 1_555 1_555
H13 C10 1_555 1_555
C11 N2 1_555 1_555
Co1C O1C 1_555 1_555
Co1C_2 O2 1_555 1_555
Co1C_3 O4 1_555 1_555
Co1A N2A 1_555 1_555
Co1_2 O4C 1_555 1_555
O1C C1C 1_555 1_555
O2C Co1 1_555 1_555
O2_2 Co1C 1_555 1_555
C1C O2C 1_555 1_555
C2C C1C 1_555 1_555
H1C C2C 1_555 1_555
H2C C2C 1_555 1_555
C3C C2C 1_555 1_555
H3C C3C 1_555 1_555
N1C Co1C 1_555 1_555
H4C N1C 1_555 1_555
H5C N1C 1_555 1_555
C4C C3C 1_555 1_555
O3C Co1C 1_555 1_555
O4C C4C 1_555 1_555
O4C_2 Co1 1_555 1_555
O4_2 Co1C 1_555 1_555
N2A C9A 1_555 1_555
N2C Co1C 1_555 1_555
H6A C11A 1_555 1_555
C6A H7A 1_555 1_555
C7A C7 1_555 1_555
C8A C7A 1_555 1_555
H8A C8A 1_555 1_555
C9A C8A 1_555 1_555
H9A C9A 1_555 1_555
C11A N2A 1_555 1_555
C3 N1 1_555 1_555
C4 O3 1_555 1_555
C6 C11 1_555 1_555
C8 C9 1_555 1_555
C3C N1C 1_555 1_555
C4C O3C 1_555 1_555
C6A C7A 1_555 1_555
C6A C11A 1_555 1_555

#END
