
#######################################################################
#
#                 Cambridge Crystallographic Data Centre
#                                CCDC 
#
#######################################################################
#
# If this CIF has been generated from an entry in the Cambridge 
# Structural Database, then it will include bibliographic, chemical, 
# crystal, experimental, refinement or atomic coordinate data resulting 
# from the CCDC's data processing and validation procedures.
#
#######################################################################

data_OYEWEW
_chemical_formula_moiety         '(C84 H60 Al6 N4 O32)n'
_symmetry_cell_setting           orthorhombic
_symmetry_space_group_name_H-M   'P c a 21'
_symmetry_Int_Tables_number      29
_space_group_name_Hall           'P 2c -2ac'
loop_
_symmetry_equiv_pos_site_id
_symmetry_equiv_pos_as_xyz
1 x,y,z
2 -x,-y,1/2+z
3 1/2+x,-y,z
4 1/2-x,y,1/2+z
_cell_length_a                   30.3249(6)
_cell_length_b                   15.7864(2)
_cell_length_c                   40.4555(5)
_cell_angle_alpha                90
_cell_angle_beta                 90
_cell_angle_gamma                90
_cell_volume                     19366.9
loop_
_atom_site_label
_atom_site_type_symbol
_atom_site_fract_x
_atom_site_fract_y
_atom_site_fract_z
Al1 Al 0.44962(2) 0.54022(4) 0.585498(18)
Al2 Al 0.47754(2) 0.46924(4) 0.655957(18)
Al3 Al 0.53361(2) 0.61432(4) 0.62151(2)
Al4 Al 0.28628(2) -0.10905(4) 0.38001(2)
Al5 Al 0.22900(2) 0.03070(4) 0.343321(19)
Al6 Al 0.20218(2) -0.03211(4) 0.415284(19)
C1 C 0.53487(10) 0.55981(17) 0.55363(8)
C2 C 0.56371(12) 0.5466(2) 0.52364(9)
C3 C 0.54572(14) 0.5556(2) 0.49295(9)
H1 H 0.5158 0.5665 0.4905
C4 C 0.57286(17) 0.5482(3) 0.46534(10)
H2 H 0.5608 0.5550 0.4444
C5 C 0.61621(15) 0.53136(16) 0.46829(10)
C6 C 0.63315(15) 0.5159(2) 0.50047(10)
H3 H 0.6620 0.4969 0.5030
C7 C 0.60766(13) 0.5284(2) 0.52738(10)
H4 H 0.6199 0.5247 0.5484
C8 C 0.69896(10) 0.85394(14) 0.39460(7)
C9 C 0.68667(11) 0.77053(14) 0.40550(7)
C10 C 0.68558(13) 0.70103(15) 0.38482(8)
H5 H 0.6944 0.7073 0.3629
C11 C 0.67192(16) 0.62313(18) 0.39557(10)
H6 H 0.6710 0.5781 0.3808
C12 C 0.65936(13) 0.6100(2) 0.42816(9)
C13 C 0.66219(18) 0.6788(2) 0.44972(10)
H7 H 0.6557 0.6714 0.4720
C14 C 0.67448(16) 0.75719(19) 0.43830(9)
H8 H 0.6747 0.8027 0.4529
C15 C 0.72009(10) 0.21081(18) 0.41180(8)
C16 C 0.70194(10) 0.29426(17) 0.41862(8)
C17 C 0.72513(12) 0.36968(18) 0.41207(10)
H9 H 0.7529 0.3661 0.4024
C18 C 0.70890(13) 0.44625(19) 0.41919(10)
H10 H 0.7260 0.4944 0.4158
C19 C 0.66452(14) 0.4539(2) 0.43218(10)
C20 C 0.64123(14) 0.3787(2) 0.43816(13)
H11 H 0.6121 0.3808 0.4454
C21 C 0.66167(13) 0.3020(2) 0.43328(12)
H12 H 0.6474 0.2531 0.4403
C22 C 0.32186(9) 0.04084(15) 0.34794(7)
C23 C 0.36526(9) 0.08066(19) 0.33874(8)
C24 C 0.40507(11) 0.0389(2) 0.34545(11)
H13 H 0.4050 -0.0119 0.3570
C25 C 0.44512(11) 0.0743(2) 0.33456(11)
H14 H 0.4715 0.0458 0.3383
C26 C 0.44534(8) 0.1496(2) 0.31869(9)
C27 C 0.40583(10) 0.1952(2) 0.31380(11)
C28 C 0.36675(10) 0.1595(2) 0.32316(9)
H15 H 0.3406 0.1883 0.3191
C29 C 0.64435(9) 0.04399(16) 0.36002(7)
C30 C 0.60217(8) 0.08136(18) 0.34600(7)
C31 C 0.59541(12) 0.0828(3) 0.31288(9)
H16 H 0.6167 0.0614 0.2986
C32 C 0.55597(11) 0.1169(3) 0.30005(9)
H17 H 0.5503 0.1147 0.2775
C33 C 0.52660(8) 0.1527(3) 0.32067(9)
C34 C 0.53438(10) 0.1585(3) 0.35400(9)
H18 H 0.5140 0.1845 0.3678
C35 C 0.57388(11) 0.1242(3) 0.36717(9)
H19 H 0.5807 0.1304 0.3895
C36 C 0.49258(8) 0.37663(16) 0.18878(7)
C37 C 0.49191(9) 0.3274(2) 0.21972(8)
C38 C 0.51373(12) 0.3555(2) 0.24773(9)
H20 H 0.5285 0.4071 0.2477
C39 C 0.51324(13) 0.3040(3) 0.27659(11)
H21 H 0.5309 0.3190 0.2945
C40 C 0.48779(9) 0.2338(3) 0.27866(9)
C41 C 0.46488(12) 0.2075(2) 0.25027(11)
H22 H 0.4477 0.1588 0.2510
C42 C 0.46778(12) 0.2528(2) 0.22188(9)
H23 H 0.4531 0.2332 0.2032
C43 C 0.44947(8) 0.36458(15) 0.60095(7)
C44 C 0.43699(11) 0.28061(19) 0.58889(8)
C45 C 0.42426(13) 0.26715(18) 0.55651(9)
H24 H 0.4253 0.3121 0.5417
C46 C 0.40985(15) 0.18793(17) 0.54531(10)
H25 H 0.3994 0.1821 0.5238
C47 C 0.41112(14) 0.11647(17) 0.56658(9)
C48 C 0.42294(15) 0.1301(2) 0.59977(10)
H26 H 0.4217 0.0856 0.6148
C49 C 0.43665(13) 0.21049(19) 0.61017(9)
H27 H 0.4458 0.2176 0.6319
C50 C 0.28659(10) -0.03377(15) 0.44554(7)
C51 C 0.31667(11) -0.0066(2) 0.47396(7)
C52 C 0.35896(14) -0.0348(3) 0.47294(11)
H28 H 0.3691 -0.0643 0.4546
C53 C 0.38847(16) -0.0186(4) 0.50075(15)
H29 H 0.4171 -0.0394 0.5013
C54 C 0.37136(16) 0.02946(18) 0.52625(11)
C55 C 0.32853(16) 0.0626(2) 0.52554(10)
H30 H 0.3184 0.0968 0.5426
C56 C 0.30111(15) 0.0433(2) 0.49845(10)
H31 H 0.2726 0.0646 0.4974
C57 C 0.46709(9) -0.28309(15) 0.59135(7)
C58 C 0.44880(11) -0.19476(17) 0.58495(9)
C59 C 0.47606(13) -0.1251(2) 0.58634(10)
H32 H 0.5054 -0.1300 0.5928
C60 C 0.45770(15) -0.04516(18) 0.57751(12)
H33 H 0.4750 0.0033 0.5789
C61 C 0.41565(14) -0.03870(17) 0.56711(12)
C62 C 0.38862(13) -0.10764(19) 0.56817(11)
H34 H 0.3591 -0.1016 0.5625
C63 C 0.40433(13) -0.1866(2) 0.57758(11)
H35 H 0.3855 -0.2329 0.5789
C64 C 0.39152(7) 0.53728(17) 0.64175(7)
C65 C 0.35101(8) 0.5776(2) 0.65592(7)
C66 C 0.31987(10) 0.6122(2) 0.63436(8)
H36 H 0.3249 0.6122 0.6117
C67 C 0.28126(10) 0.6466(3) 0.64724(10)
H37 H 0.2600 0.6684 0.6330
C68 C 0.27439(8) 0.6485(2) 0.68082(9)
C69 C 0.30493(11) 0.6124(3) 0.70258(9)
H38 H 0.2996 0.6121 0.7252
C70 C 0.34377(10) 0.5767(3) 0.68982(9)
H39 H 0.3645 0.5527 0.7039
C71 C 0.07193(9) 0.53686(19) 0.65202(7)
C72 C 0.11346(8) 0.57699(19) 0.66178(8)
C73 C 0.15350(11) 0.5322(2) 0.65857(10)
H40 H 0.1528 0.4785 0.6492
C74 C 0.19153(10) 0.5625(3) 0.66814(11)
H41 H 0.2169 0.5297 0.6662
C75 C 0.19411(10) 0.6472(2) 0.68182(10)
C76 C 0.15435(10) 0.6909(3) 0.68539(11)
H42 H 0.1547 0.7446 0.6948
C77 C 0.11501(9) 0.6575(2) 0.67546(9)
H43 H 0.0892 0.6887 0.6779
C78 C 0.24090(9) 0.87758(18) 0.81194(8)
C79 C 0.23913(9) 0.82357(18) 0.78088(8)
C80 C 0.21191(12) 0.7535(3) 0.77970(10)
H44 H 0.1953 0.7380 0.7980
C81 C 0.20971(13) 0.7061(2) 0.75045(10)
H45 H 0.1913 0.6590 0.7493
C82 C 0.23505(8) 0.7293(2) 0.72295(9)
C83 C 0.26204(12) 0.7993(3) 0.72510(11)
H46 H 0.2788 0.8152 0.7069
C84 C 0.26463(11) 0.8460(3) 0.75369(10)
H47 H 0.2834 0.8925 0.7548
N1 N 0.64375(11) 0.53269(18) 0.43903(8)
N2 N 0.48575(7) 0.1872(2) 0.30809(8)
N3 N 0.39852(11) 0.0379(2) 0.55423(8)
N4 N 0.23337(8) 0.6801(3) 0.69361(9)
O1 O 0.49465(7) 0.54938(15) 0.55216(6)
O2 O 0.55590(7) 0.57976(15) 0.57945(6)
O3 O 0.71401(7) 0.86894(13) 0.36633(5)
O4 O 0.69272(8) 0.91568(12) 0.41489(5)
O5 O 0.75575(8) 0.20448(12) 0.39467(6)
O6 O 0.70293(8) 0.14994(11) 0.42538(6)
O7 O 0.28809(6) 0.07132(13) 0.33969(5)
O8 O 0.32697(7) -0.02790(15) 0.36410(8)
O9 O 0.65074(7) 0.05153(17) 0.39012(6)
O10 O 0.66758(7) 0.00211(14) 0.34060(6)
O11 O 0.47890(8) 0.33755(13) 0.16306(5)
O12 O 0.50588(7) 0.45126(12) 0.18958(5)
O13 O 0.44974(8) 0.42457(13) 0.57964(5)
O14 O 0.45895(6) 0.37220(10) 0.63052(5)
O15 O 0.30395(8) -0.08005(14) 0.42348(6)
O16 O 0.24784(7) -0.00827(15) 0.44614(5)
O17 O 0.44020(8) -0.34161(14) 0.58525(6)
O18 O 0.50465(7) -0.28999(12) 0.60280(6)
O19 O 0.39707(7) 0.53613(16) 0.61205(5)
O20 O 0.41971(6) 0.50587(13) 0.66290(5)
O21 O 0.26031(9) 0.94400(14) 0.81097(5)
O22 O 0.22190(8) 0.84762(14) 0.83659(5)
O23 O 0.07387(7) 0.46045(12) 0.64103(7)
O24 O 0.03605(6) 0.57640(11) 0.65644(5)
O25 O 0.48750(5) 0.54109(10) 0.62130(4)
O26 O 0.58390(7) 0.69155(12) 0.62086(7)
H48 H 0.6014 0.6928 0.6045
H49 H 0.5883 0.7240 0.6373
O27 O 0.41009(7) 0.53900(12) 0.54840(5)
H50 H 0.4202 0.5417 0.5288
H51 H 0.3824 0.5359 0.5516
O28 O 0.46735(7) 0.39604(13) 0.69297(5)
H52 H 0.4585 0.3455 0.6899
H53 H 0.4717 0.4142 0.7125
O29 O 0.23888(5) -0.03749(9) 0.37954(4)
O30 O 0.21657(8) 0.09891(14) 0.30551(5)
H54 H 0.2369 0.1284 0.2967
H55 H 0.1907 0.0999 0.2975
O31 O 0.16241(8) -0.02809(14) 0.45326(5)
H56 H 0.1727 -0.0179 0.4724
H57 H 0.1349 -0.0363 0.4507
O32 O 0.33695(7) -0.18272(14) 0.38110(6)
H58 H 0.3531 -0.1848 0.3982
H59 H 0.3430 -0.2133 0.3644
Al1_2 Al 0.44962(2) -0.45978(4) 0.585498(18)
Al2A Al 0.52246(2) 0.53076(4) 0.155957(18)
Al2B Al -0.02246(2) 0.53076(4) 0.655957(18)
Al3_2 Al 0.53361(2) -0.38568(4) 0.62151(2)
Al3A Al 0.46639(2) 0.38568(4) 0.12151(2)
Al3B Al 0.03361(2) 0.38568(4) 0.62151(2)
Al4B Al 0.78628(2) 0.10905(4) 0.38001(2)
Al4C Al 0.21372(2) 0.89095(4) 0.88001(2)
Al5B Al 0.72900(2) -0.03070(4) 0.343321(19)
Al5B_2 Al 0.72900(2) 0.96930(4) 0.343321(19)
Al5C Al 0.27100(2) 1.03070(4) 0.843321(19)
Al6B Al 0.70218(2) 0.03211(4) 0.415284(19)
Al6B_2 Al 0.70218(2) 1.03211(4) 0.415284(19)
O3B O 0.21401(7) 0.13106(13) 0.36633(5)
O4B O 0.19272(8) 0.08432(12) 0.41489(5)
O5B O 0.25575(8) -0.20448(12) 0.39467(6)
O6B O 0.20293(8) -0.14994(11) 0.42538(6)
O9B O 0.15074(7) -0.05153(17) 0.39012(6)
O10B O 0.16758(7) -0.00211(14) 0.34060(6)
O11A O 0.52110(8) 0.66245(13) 0.66306(5)
O12A O 0.49412(7) 0.54874(12) 0.68958(5)
O17_2 O 0.44020(8) 0.65839(14) 0.58525(6)
O18_2 O 0.50465(7) 0.71001(12) 0.60280(6)
O21C O 0.23969(9) -0.05600(14) 0.31097(5)
O22C O 0.27810(8) -0.15238(14) 0.33659(5)
O23B O 0.57387(7) 0.53955(12) 0.64103(7)
O24B O 0.53605(6) 0.42360(11) 0.65644(5)
loop_
_geom_bond_atom_site_label_1
_geom_bond_atom_site_label_2
_geom_bond_site_symmetry_1
_geom_bond_site_symmetry_2
Al1 O1 1_555 1_555
Al2 O14 1_555 1_555
Al3 O2 1_555 1_555
Al4 O8 1_555 1_555
Al5 O7 1_555 1_555
Al6 O16 1_555 1_555
C1 C2 1_555 1_555
C2 C3 1_555 1_555
C3 H1 1_555 1_555
C4 C3 1_555 1_555
H2 C4 1_555 1_555
C5 C4 1_555 1_555
C6 C5 1_555 1_555
H3 C6 1_555 1_555
C7 C2 1_555 1_555
H4 C7 1_555 1_555
C8 C9 1_555 1_555
C9 C10 1_555 1_555
C10 H5 1_555 1_555
C11 C10 1_555 1_555
H6 C11 1_555 1_555
C12 C11 1_555 1_555
C13 C12 1_555 1_555
H7 C13 1_555 1_555
C14 C9 1_555 1_555
H8 C14 1_555 1_555
C15 C16 1_555 1_555
C16 C17 1_555 1_555
C17 H9 1_555 1_555
C18 C17 1_555 1_555
H10 C18 1_555 1_555
C19 C18 1_555 1_555
C20 C19 1_555 1_555
H11 C20 1_555 1_555
C21 C16 1_555 1_555
H12 C21 1_555 1_555
C22 C23 1_555 1_555
C23 C24 1_555 1_555
C24 H13 1_555 1_555
C25 C24 1_555 1_555
H14 C25 1_555 1_555
C26 C25 1_555 1_555
C27 C26 1_555 1_555
C28 C23 1_555 1_555
H15 C28 1_555 1_555
C29 C30 1_555 1_555
C30 C31 1_555 1_555
C31 H16 1_555 1_555
C32 C31 1_555 1_555
H17 C32 1_555 1_555
C33 C32 1_555 1_555
C34 C33 1_555 1_555
H18 C34 1_555 1_555
C35 C30 1_555 1_555
H19 C35 1_555 1_555
C36 C37 1_555 1_555
C37 C38 1_555 1_555
C38 H20 1_555 1_555
C39 C38 1_555 1_555
H21 C39 1_555 1_555
C40 C39 1_555 1_555
C41 C40 1_555 1_555
H22 C41 1_555 1_555
C42 C37 1_555 1_555
H23 C42 1_555 1_555
C43 C44 1_555 1_555
C44 C45 1_555 1_555
C45 H24 1_555 1_555
C46 C45 1_555 1_555
H25 C46 1_555 1_555
C47 C46 1_555 1_555
C48 C47 1_555 1_555
H26 C48 1_555 1_555
C49 C44 1_555 1_555
H27 C49 1_555 1_555
C50 C51 1_555 1_555
C51 C52 1_555 1_555
C52 H28 1_555 1_555
C53 C52 1_555 1_555
H29 C53 1_555 1_555
C54 C53 1_555 1_555
C55 C54 1_555 1_555
H30 C55 1_555 1_555
C56 C51 1_555 1_555
H31 C56 1_555 1_555
C57 C58 1_555 1_555
C58 C59 1_555 1_555
C59 H32 1_555 1_555
C60 C59 1_555 1_555
H33 C60 1_555 1_555
C61 C60 1_555 1_555
C62 C61 1_555 1_555
H34 C62 1_555 1_555
C63 C58 1_555 1_555
H35 C63 1_555 1_555
C64 C65 1_555 1_555
C65 C66 1_555 1_555
C66 H36 1_555 1_555
C67 C66 1_555 1_555
H37 C67 1_555 1_555
C68 C67 1_555 1_555
C69 C68 1_555 1_555
H38 C69 1_555 1_555
C70 C65 1_555 1_555
H39 C70 1_555 1_555
C71 C72 1_555 1_555
C72 C73 1_555 1_555
C73 H40 1_555 1_555
C74 C73 1_555 1_555
H41 C74 1_555 1_555
C75 C74 1_555 1_555
C76 C75 1_555 1_555
H42 C76 1_555 1_555
C77 C72 1_555 1_555
H43 C77 1_555 1_555
C78 C79 1_555 1_555
C79 C80 1_555 1_555
C80 H44 1_555 1_555
C81 C80 1_555 1_555
H45 C81 1_555 1_555
C82 C81 1_555 1_555
C83 C82 1_555 1_555
H46 C83 1_555 1_555
C84 C79 1_555 1_555
H47 C84 1_555 1_555
N1 C5 1_555 1_555
N2 C26 1_555 1_555
N3 C47 1_555 1_555
N4 C68 1_555 1_555
O1 C1 1_555 1_555
O2 C1 1_555 1_555
O3 C8 1_555 1_555
O4 C8 1_555 1_555
O5 C15 1_555 1_555
O6 C15 1_555 1_555
O7 C22 1_555 1_555
O8 C22 1_555 1_555
O9 C29 1_555 1_555
O10 C29 1_555 1_555
O11 C36 1_555 1_555
O12 C36 1_555 1_555
O13 Al1 1_555 1_555
O14 C43 1_555 1_555
O15 Al4 1_555 1_555
O16 C50 1_555 1_555
O17 C57 1_555 1_555
O18 C57 1_555 1_555
O19 Al1 1_555 1_555
O20 Al2 1_555 1_555
O21 C78 1_555 1_555
O22 C78 1_555 1_555
O23 C71 1_555 1_555
O24 C71 1_555 1_555
O25 Al1 1_555 1_555
O26 Al3 1_555 1_555
H48 O26 1_555 1_555
H49 O26 1_555 1_555
O27 Al1 1_555 1_555
H50 O27 1_555 1_555
H51 O27 1_555 1_555
O28 Al2 1_555 1_555
H52 O28 1_555 1_555
H53 O28 1_555 1_555
O29 Al4 1_555 1_555
O30 Al5 1_555 1_555
H54 O30 1_555 1_555
H55 O30 1_555 1_555
O31 Al6 1_555 1_555
H56 O31 1_555 1_555
H57 O31 1_555 1_555
O32 Al4 1_555 1_555
H58 O32 1_555 1_555
H59 O32 1_555 1_555
Al1_2 O17 1_555 1_555
Al2A O12 1_555 1_555
Al2B O24 1_555 1_555
Al3_2 O18 1_555 1_555
Al3A O11 1_555 1_555
Al3B O23 1_555 1_555
Al4B O5 1_555 1_555
Al4C O22 1_555 1_555
Al5B O10 1_555 1_555
Al5B_2 O3 1_555 1_555
Al5C O21 1_555 1_555
Al6B O6 1_555 1_555
Al6B_2 O4 1_555 1_555
O3B Al5 1_555 1_555
O4B Al6 1_555 1_555
O5B Al4 1_555 1_555
O6B Al6 1_555 1_555
O9B Al6 1_555 1_555
O10B Al5 1_555 1_555
O11A Al3 1_555 1_555
O12A Al2 1_555 1_555
O17_2 Al1 1_555 1_555
O18_2 Al3 1_555 1_555
O21C Al5 1_555 1_555
O22C Al4 1_555 1_555
O23B Al3 1_555 1_555
O24B Al2 1_555 1_555
Al2 O25 1_555 1_555
Al3 O25 1_555 1_555
Al5 O29 1_555 1_555
Al6 O29 1_555 1_555
C6 C7 1_555 1_555
C12 N1 1_555 1_555
C13 C14 1_555 1_555
C19 N1 1_555 1_555
C20 C21 1_555 1_555
C27 C28 1_555 1_555
C33 N2 1_555 1_555
C34 C35 1_555 1_555
C40 N2 1_555 1_555
C41 C42 1_555 1_555
C43 O13 1_555 1_555
C48 C49 1_555 1_555
C50 O15 1_555 1_555
C54 N3 1_555 1_555
C55 C56 1_555 1_555
C61 N3 1_555 1_555
C62 C63 1_555 1_555
C64 O19 1_555 1_555
C64 O20 1_555 1_555
C69 C70 1_555 1_555
C75 N4 1_555 1_555
C76 C77 1_555 1_555
C82 N4 1_555 1_555
C83 C84 1_555 1_555
O9 Al6B 1_555 1_555

#END
