
#######################################################################
#
#                 Cambridge Crystallographic Data Centre
#                                CCDC 
#
#######################################################################
#
# If this CIF has been generated from an entry in the Cambridge 
# Structural Database, then it will include bibliographic, chemical, 
# crystal, experimental, refinement or atomic coordinate data resulting 
# from the CCDC's data processing and validation procedures.
#
#######################################################################

data_PAPROO
_chemical_formula_moiety         '(C24 H36 Cu3 N6 O27 Tb2)n'
_symmetry_cell_setting           trigonal
_symmetry_space_group_name_H-M   'P -3 c 1'
_symmetry_Int_Tables_number      165
_space_group_name_Hall           '-P 3 2"c'
loop_
_symmetry_equiv_pos_site_id
_symmetry_equiv_pos_as_xyz
1 x,y,z
2 -y,x-y,z
3 -x+y,-x,z
4 y,x,1/2-z
5 x-y,-y,1/2-z
6 -x,-x+y,1/2-z
7 -x,-y,-z
8 y,-x+y,-z
9 x-y,x,-z
10 -y,-x,1/2+z
11 -x+y,y,1/2+z
12 x,x-y,1/2+z
_cell_length_a                   13.3860(8)
_cell_length_b                   13.3860(8)
_cell_length_c                   14.4646(16)
_cell_angle_alpha                90
_cell_angle_beta                 90
_cell_angle_gamma                120
_cell_volume                     2244.6
loop_
_atom_site_label
_atom_site_type_symbol
_atom_site_fract_x
_atom_site_fract_y
_atom_site_fract_z
Tb1 Tb 0.6667 0.3333 0.16774(2)
Cu1 Cu 1.0000 0.5000 0.0000
O1 O 0.8115(2) 0.4510(2) 0.0587(2)
N1 N 0.9573(3) 0.6101(3) -0.0584(2)
H1 H 1.0229 0.6735 -0.0782
O2 O 0.9256(2) 0.4017(3) -0.1083(2)
O3 O 0.7542(2) 0.5598(3) 0.1272(2)
O4 O 0.8158(3) 0.3811(3) -0.2284(2)
C1 C 0.8741(4) 0.4377(4) -0.1602(3)
C2 C 0.8840(4) 0.5513(4) -0.1401(3)
H2 H 0.9161 0.6008 -0.1938
H3 H 0.8074 0.5400 -0.1296
C3 C 0.8160(3) 0.5471(4) 0.0701(3)
C4 C 0.9007(4) 0.6472(4) 0.0114(3)
H4 H 0.8606 0.6810 -0.0199
H5 H 0.9592 0.7058 0.0509
Tb1J Tb 0.6666 0.3333 0.66774(2)
Tb1J_2 Tb 0.6666 0.3333 -0.33226(2)
Cu1A Cu 0.5000 0.5000 0.0000
Cu1B Cu 0.5000 0.0000 0.0000
Cu1J Cu 0.5000 0.5000 0.5000
Cu1K Cu 1.0000 0.5000 0.5000
Cu1C Cu 0.5000 0.0000 0.5000
O1A O 0.5490(2) 0.3605(3) 0.0587(2)
O1B O 0.6395(3) 0.1885(2) 0.0587(2)
O1J O 0.6395(3) 0.4510(2) 0.5587(2)
O1K O 0.8115(2) 0.3605(3) 0.5587(2)
O1I O 0.5490(2) 0.1885(2) 0.5587(2)
O1F O 1.1885(2) 0.5490(2) -0.0587(2)
O1G O 0.4510(2) 0.6395(3) -0.0587(2)
O1H O 0.3605(3) -0.1885(2) -0.0587(2)
N1A N 0.3899(3) 0.3472(4) -0.0584(2)
N1B N 0.6528(4) 0.0427(3) -0.0584(2)
N1J N 0.6528(4) 0.6101(3) 0.4416(2)
N1K N 0.9573(3) 0.3472(4) 0.4416(2)
N1I N 0.3899(3) 0.0427(3) 0.4416(2)
N1F N 1.0427(3) 0.3899(3) 0.0584(2)
N1G N 0.6101(3) 0.6528(4) 0.0584(2)
N1H N 0.3472(4) -0.0427(3) 0.0584(2)
H1A H 0.3265 0.3494 -0.0782
H1B H 0.6506 -0.0229 -0.0782
H1J H 0.6506 0.6735 0.4218
H1K H 1.0229 0.3494 0.4218
H1I H 0.3265 -0.0229 0.4218
H1F H 0.9771 0.3265 0.0782
H1G H 0.6735 0.6506 0.0782
H1H H 0.3494 0.0229 0.0782
O2A O 0.5983(3) 0.5239(4) -0.1083(2)
O2B O 0.4761(4) 0.0744(2) -0.1083(2)
O2J O 0.4761(4) 0.4017(3) 0.3917(2)
O2K O 0.9256(2) 0.5239(4) 0.3917(2)
O2I O 0.5983(3) 0.0744(2) 0.3917(2)
O2F O 1.0744(2) 0.5983(3) 0.1083(2)
O2G O 0.4017(3) 0.4761(4) 0.1083(2)
O2H O 0.5239(4) -0.0744(2) 0.1083(2)
O3A O 0.4402(3) 0.1944(4) 0.1272(2)
O3B O 0.8056(4) 0.2458(2) 0.1272(2)
O3J O 0.8056(4) 0.5598(3) 0.6272(2)
O3K O 0.7542(2) 0.1944(4) 0.6272(2)
O3I O 0.4402(3) 0.2458(2) 0.6272(2)
O4A O 0.6189(3) 0.4347(4) -0.2284(2)
O4B O 0.5653(4) 0.1842(3) -0.2284(2)
O4J O 0.5653(4) 0.3811(3) 0.2716(2)
O4K O 0.8158(3) 0.4347(4) 0.2716(2)
O4I O 0.6189(3) 0.1842(3) 0.2716(2)
O4_2 O 0.8158(3) 0.3811(3) 0.7716(2)
O4A_2 O 0.6189(3) 0.4347(4) 0.7716(2)
O4B_2 O 0.5653(4) 0.1842(3) 0.7716(2)
C1A C 0.5623(4) 0.4364(6) -0.1602(3)
C1B C 0.5636(6) 0.1259(4) -0.1602(3)
C1J C 0.5636(6) 0.4377(4) 0.3398(3)
C1K C 0.8741(4) 0.4364(6) 0.3398(3)
C1I C 0.5623(4) 0.1259(4) 0.3398(3)
C2A C 0.4487(4) 0.3327(6) -0.1401(3)
C2B C 0.6673(6) 0.1160(4) -0.1401(3)
C2J C 0.6673(6) 0.5513(4) 0.3599(3)
C2K C 0.8840(4) 0.3327(6) 0.3599(3)
C2I C 0.4487(4) 0.1160(4) 0.3599(3)
H2A H 0.3992 0.3153 -0.1938
H2B H 0.6847 0.0839 -0.1938
H2J H 0.6847 0.6008 0.3062
H2K H 0.9161 0.3153 0.3062
H2I H 0.3992 0.0839 0.3062
H3A H 0.4600 0.2674 -0.1296
H3B H 0.7326 0.1926 -0.1296
H3J H 0.7326 0.5400 0.3704
H3K H 0.8074 0.2674 0.3704
H3I H 0.4600 0.1926 0.3704
C3A C 0.4529(4) 0.2689(5) 0.0701(3)
C3B C 0.7311(5) 0.1840(3) 0.0701(3)
C3J C 0.7311(5) 0.5471(4) 0.5701(3)
C3K C 0.8160(3) 0.2689(5) 0.5701(3)
C3I C 0.4529(4) 0.1840(3) 0.5701(3)
C4A C 0.3528(4) 0.2535(6) 0.0114(3)
C4B C 0.7465(6) 0.0993(4) 0.0114(3)
C4J C 0.7465(6) 0.6472(4) 0.5114(3)
C4K C 0.9007(4) 0.2535(6) 0.5114(3)
C4I C 0.3528(4) 0.0993(4) 0.5114(3)
H4A H 0.3190 0.1796 -0.0199
H4B H 0.8204 0.1394 -0.0199
H4J H 0.8204 0.6810 0.4801
H4K H 0.8606 0.1796 0.4801
H4I H 0.3190 0.1394 0.4801
H5A H 0.2942 0.2534 0.0509
H5B H 0.7466 0.0408 0.0509
H5J H 0.7466 0.7058 0.5509
H5K H 0.9592 0.2534 0.5509
H5I H 0.2942 0.0408 0.5509
O5 O 0.8404(14) 0.8339(19) 0.1753(13)
O6 O 1.2724(9) 0.2724(9) 0.2500
O7 O 1.0000 1.0000 0.101(3)
loop_
_geom_bond_atom_site_label_1
_geom_bond_atom_site_label_2
_geom_bond_site_symmetry_1
_geom_bond_site_symmetry_2
Tb1 O1 1_555 1_555
Cu1 O1 1_555 1_555
O1 C3 1_555 1_555
N1 Cu1 1_555 1_555
H1 N1 1_555 1_555
O2 Cu1 1_555 1_555
O3 Tb1 1_555 1_555
O4 C1 1_555 1_555
C1 O2 1_555 1_555
C2 N1 1_555 1_555
H2 C2 1_555 1_555
H3 C2 1_555 1_555
C3 O3 1_555 1_555
C4 N1 1_555 1_555
H4 C4 1_555 1_555
H5 C4 1_555 1_555
Tb1J O1J 1_555 1_555
Tb1J_2 O4 1_555 1_555
Cu1A O1A 1_555 1_555
Cu1B O1B 1_555 1_555
Cu1J O1J 1_555 1_555
Cu1K O1K 1_555 1_555
Cu1C O1I 1_555 1_555
O1A Tb1 1_555 1_555
O1B Tb1 1_555 1_555
O1J C3J 1_555 1_555
O1K Tb1J 1_555 1_555
O1I Tb1J 1_555 1_555
O1F Cu1 1_555 1_555
O1G Cu1A 1_555 1_555
O1H Cu1B 1_555 1_555
N1A Cu1A 1_555 1_555
N1B Cu1B 1_555 1_555
N1J Cu1J 1_555 1_555
N1K Cu1K 1_555 1_555
N1I Cu1C 1_555 1_555
N1F Cu1 1_555 1_555
N1G Cu1A 1_555 1_555
N1H Cu1B 1_555 1_555
H1A N1A 1_555 1_555
H1B N1B 1_555 1_555
H1J N1J 1_555 1_555
H1K N1K 1_555 1_555
H1I N1I 1_555 1_555
H1F N1F 1_555 1_555
H1G N1G 1_555 1_555
H1H N1H 1_555 1_555
O2A Cu1A 1_555 1_555
O2B Cu1B 1_555 1_555
O2J Cu1J 1_555 1_555
O2K Cu1K 1_555 1_555
O2I Cu1C 1_555 1_555
O2F Cu1 1_555 1_555
O2G Cu1A 1_555 1_555
O2H Cu1B 1_555 1_555
O3A Tb1 1_555 1_555
O3B Tb1 1_555 1_555
O3J Tb1J 1_555 1_555
O3K Tb1J 1_555 1_555
O3I Tb1J 1_555 1_555
O4A Tb1J_2 1_555 1_555
O4B Tb1J_2 1_555 1_555
O4J Tb1 1_555 1_555
O4K Tb1 1_555 1_555
O4I Tb1 1_555 1_555
O4_2 Tb1J 1_555 1_555
O4A_2 Tb1J 1_555 1_555
O4B_2 Tb1J 1_555 1_555
C1A O2A 1_555 1_555
C1B O2B 1_555 1_555
C1J O2J 1_555 1_555
C1K O2K 1_555 1_555
C1I O2I 1_555 1_555
C2A N1A 1_555 1_555
C2B N1B 1_555 1_555
C2J N1J 1_555 1_555
C2K N1K 1_555 1_555
C2I N1I 1_555 1_555
H2A C2A 1_555 1_555
H2B C2B 1_555 1_555
H2J C2J 1_555 1_555
H2K C2K 1_555 1_555
H2I C2I 1_555 1_555
H3A C2A 1_555 1_555
H3B C2B 1_555 1_555
H3J C2J 1_555 1_555
H3K C2K 1_555 1_555
H3I C2I 1_555 1_555
C3A O1A 1_555 1_555
C3B O1B 1_555 1_555
C3J O3J 1_555 1_555
C3K O1K 1_555 1_555
C3I O1I 1_555 1_555
C4A N1A 1_555 1_555
C4B N1B 1_555 1_555
C4J N1J 1_555 1_555
C4K N1K 1_555 1_555
C4I N1I 1_555 1_555
H4A C4A 1_555 1_555
H4B C4B 1_555 1_555
H4J C4J 1_555 1_555
H4K C4K 1_555 1_555
H4I C4I 1_555 1_555
H5A C4A 1_555 1_555
H5B C4B 1_555 1_555
H5J C4J 1_555 1_555
H5K C4K 1_555 1_555
H5I C4I 1_555 1_555
C1 C2 1_555 1_555
C3 C4 1_555 1_555
O3A C3A 1_555 1_555
O3B C3B 1_555 1_555
O3K C3K 1_555 1_555
O3I C3I 1_555 1_555
O4A C1A 1_555 1_555
O4B C1B 1_555 1_555
O4J C1J 1_555 1_555
O4K C1K 1_555 1_555
O4I C1I 1_555 1_555
C1A C2A 1_555 1_555
C1B C2B 1_555 1_555
C1J C2J 1_555 1_555
C1K C2K 1_555 1_555
C1I C2I 1_555 1_555
C3A C4A 1_555 1_555
C3B C4B 1_555 1_555
C3J C4J 1_555 1_555
C3K C4K 1_555 1_555
C3I C4I 1_555 1_555

#END
