
#######################################################################
#
#                 Cambridge Crystallographic Data Centre
#                                CCDC 
#
#######################################################################
#
# If this CIF has been generated from an entry in the Cambridge 
# Structural Database, then it will include bibliographic, chemical, 
# crystal, experimental, refinement or atomic coordinate data resulting 
# from the CCDC's data processing and validation procedures.
#
#######################################################################

data_PITRIU
_chemical_formula_moiety         '(C103 H63 N5 O17 Zn4)n'
_symmetry_cell_setting           monoclinic
_symmetry_space_group_name_H-M   'P 21/c'
_symmetry_Int_Tables_number      14
_space_group_name_Hall           '-P 2ybc'
loop_
_symmetry_equiv_pos_site_id
_symmetry_equiv_pos_as_xyz
1 x,y,z
2 -x,1/2+y,1/2-z
3 -x,-y,-z
4 x,1/2-y,1/2+z
_cell_length_a                   15.3827(5)
_cell_length_b                   20.9671(7)
_cell_length_c                   19.2300(7)
_cell_angle_alpha                90
_cell_angle_beta                 109.487(1)
_cell_angle_gamma                90
_cell_volume                     5846.98
loop_
_atom_site_label
_atom_site_type_symbol
_atom_site_fract_x
_atom_site_fract_y
_atom_site_fract_z
Zn1 Zn -0.21463(4) 0.74659(3) 0.06359(3)
Zn2 Zn -0.29755(4) 0.75435(3) -0.09884(3)
O1 O -0.3048(3) 0.67137(19) 0.0436(2)
O2 O -0.3882(3) 0.69512(19) -0.0732(2)
O3 O -0.1287(3) 0.6867(2) 0.0353(2)
O4 O -0.2139(3) 0.6758(2) -0.0841(2)
O5 O -0.1521(3) 0.8212(2) 0.0294(2)
O6 O -0.1937(3) 0.8152(2) -0.0939(2)
O7 O -0.3159(3) 0.8082(2) 0.0607(2)
O8 O -0.3571(3) 0.82823(19) -0.0610(2)
N1 N -0.1464(3) 0.7457(2) 0.1737(3)
N2 N 0.6345(3) 0.7465(2) 1.2900(3)
C1 C -0.1606(5) 0.7895(4) 0.2187(4)
H1 H -0.2050 0.8206 0.1988
C2 C -0.0834(5) 0.7016(4) 0.2045(4)
H2 H -0.0729 0.6700 0.1743
C3 C -0.1128(5) 0.7912(4) 0.2935(4)
H3 H -0.1268 0.8219 0.3230
C4 C -0.0324(6) 0.6998(4) 0.2790(4)
H4 H 0.0094 0.6669 0.2981
C5 C -0.0441(4) 0.7470(4) 0.3244(3)
C6 C 0.0097(5) 0.7490(4) 0.4016(4)
C7 C 0.0556(6) 0.7502(5) 0.4648(4)
C8 C 0.1206(11) 0.7414(8) 0.5400(9)
C9 C 0.0774(11) 0.7543(9) 0.5911(8)
C10 C 0.2160(9) 0.7333(7) 0.5628(8)
C11 C 0.1317(11) 0.7541(9) 0.6678(8)
C12 C 0.2674(9) 0.7358(7) 0.6367(7)
C13 C 0.2284(11) 0.7453(8) 0.6904(8)
C14 C 0.2810(11) 0.7464(8) 0.7701(8)
C15 C 0.2481(9) 0.7194(7) 0.8217(7)
C16 C 0.3570(13) 0.7640(9) 0.7959(10)
C17 C 0.2998(9) 0.7207(7) 0.8963(7)
C18 C 0.4090(11) 0.7607(9) 0.8693(8)
C30 C 0.3786(5) 0.7520(4) 0.9225(4)
C31 C 0.4332(5) 0.7506(4) 0.9993(4)
C32 C 0.4805(5) 0.7495(4) 1.0631(3)
C33 C 0.5341(4) 0.7484(4) 1.1398(3)
C34 C 0.6049(5) 0.7062(3) 1.1689(4)
H5 H 0.6207 0.6772 1.1385
C35 C 0.5188(6) 0.7926(4) 1.1877(4)
H6 H 0.4747 0.8243 1.1699
C36 C 0.5684(5) 0.7898(4) 1.2616(4)
H7 H 0.5556 0.8192 1.2930
C37 C 0.6523(5) 0.7069(3) 1.2433(4)
H8 H 0.7000 0.6777 1.2619
C38 C -0.3709(4) 0.6625(3) -0.0163(3)
C39 C -0.4312(4) 0.6047(3) -0.0194(3)
C40 C -0.5095(5) 0.5956(3) -0.0823(4)
H9 H -0.5257 0.6261 -0.1195
C41 C -0.4086(4) 0.5615(3) 0.0370(3)
H10 H -0.3582 0.5694 0.0790
C42 C -0.5622(5) 0.5411(3) -0.0887(4)
H11 H -0.6133 0.5348 -0.1306
C43 C -0.4609(4) 0.5047(3) 0.0324(3)
C44 C -0.1516(4) 0.6586(3) -0.0256(3)
C45 C -0.1023(4) 0.5968(3) -0.0291(3)
C46 C -0.1328(5) 0.5577(3) -0.0920(3)
H12 H -0.1816 0.5708 -0.1330
C47 C -0.0295(4) 0.5789(3) 0.0309(3)
H13 H -0.0094 0.6056 0.0717
C48 C -0.0909(5) 0.5008(3) -0.0930(4)
H14 H -0.1118 0.4750 -0.1345
C49 C 0.0157(5) 0.5196(3) 0.0312(3)
C50 C -0.1504(4) 0.8399(3) -0.0320(3)
C51 C -0.0927(4) 0.8979(3) -0.0319(3)
C52 C -0.0819(4) 0.9202(3) -0.0984(3)
H15 H -0.1079 0.8975 -0.1419
C53 C -0.0536(4) 0.9320(3) 0.0325(4)
H16 H -0.0597 0.9168 0.0761
C54 C -0.0336(4) 0.9750(3) -0.0988(3)
H17 H -0.0261 0.9885 -0.1425
C55 C -0.0050(4) 0.9886(3) 0.0340(3)
C56 C -0.3578(4) 0.8394(3) 0.0029(3)
C57 C -0.4106(5) 0.8968(3) 0.0136(4)
C58 C -0.4524(5) 0.9367(3) -0.0450(4)
H18 H -0.4504 0.9265 -0.0915
C59 C -0.4150(5) 0.9116(3) 0.0843(4)
H19 H -0.3869 0.8848 0.1239
C60 C -0.4986(5) 0.9932(3) -0.0357(3)
C61 C -0.4601(5) 0.9648(3) 0.0947(4)
H20 H -0.4637 0.9735 0.1412
Zn1B Zn -0.78537(4) 0.25341(3) -0.06359(3)
Zn1B_2 Zn 0.21463(4) 0.25341(3) -0.06359(3)
Zn1B_3 Zn 0.21463(4) 1.25341(3) -0.06359(3)
Zn1B_4 Zn -0.78537(4) 1.25341(3) -0.06359(3)
Zn1C Zn -1.21463(4) 0.75341(3) -1.43641(3)
Zn2B Zn -0.70245(4) 0.24565(3) 0.09884(3)
Zn2C Zn 0.70245(4) 0.74565(3) 1.40116(3)
Zn2B_2 Zn 0.29755(4) 0.24565(3) 0.09884(3)
Zn2B_3 Zn 0.29755(4) 1.24565(3) 0.09884(3)
Zn2B_4 Zn -0.70245(4) 1.24565(3) 0.09884(3)
O1B O -0.6952(3) 0.32863(19) -0.0436(2)
O2B O -0.6118(3) 0.30488(19) 0.0732(2)
O3B O 0.1287(3) 0.3133(2) -0.0353(2)
O3B_2 O -0.8713(3) 0.3133(2) -0.0353(2)
O4B O 0.2139(3) 0.3242(2) 0.0841(2)
O4B_2 O -0.7861(3) 0.3242(2) 0.0841(2)
O5B O 0.1521(3) 1.1788(2) -0.0294(2)
O5B_2 O -0.8479(3) 0.1788(2) -0.0294(2)
O6B O 0.1937(3) 1.1848(2) 0.0939(2)
O6B_2 O -0.8063(3) 0.1848(2) 0.0939(2)
O7B O -0.6841(3) 1.1918(2) -0.0607(2)
O7B_2 O -0.6841(3) 0.1918(2) -0.0607(2)
O8B O -0.6429(3) 1.17177(19) 0.0610(2)
O8B_2 O -0.6429(3) 0.17177(19) 0.0610(2)
N1C N -1.1464(3) 0.7543(2) -1.3263(3)
N1B N -0.8536(3) 0.2543(2) -0.1737(3)
N2C N -0.3655(3) 0.7535(2) -0.2100(3)
N2A N -0.6345(3) 0.2465(2) 0.2100(3)
C1C C -1.1606(5) 0.7105(4) -1.2813(4)
H1C H -1.2050 0.6794 -1.3012
C2C C -1.0834(5) 0.7984(4) -1.2955(4)
H2C H -1.0729 0.8300 -1.3257
C3C C -1.1128(5) 0.7088(4) -1.2065(4)
H3C H -1.1268 0.6781 -1.1770
C4C C -1.0324(6) 0.8002(4) -1.2210(4)
H4C H -0.9906 0.8331 -1.2019
C5C C -1.0441(4) 0.7530(4) -1.1756(3)
C6C C -0.9903(5) 0.7510(4) -1.0984(4)
C7C C -0.9444(6) 0.7498(5) -1.0352(4)
C8C C -0.8794(11) 0.7586(8) -0.9600(9)
C9C C -0.9226(11) 0.7457(9) -0.9089(8)
C10C C -0.7840(9) 0.7667(7) -0.9372(8)
C11C C -0.8683(11) 0.7459(9) -0.8322(8)
C12C C -0.7326(9) 0.7642(7) -0.8633(7)
C13C C -0.7716(11) 0.7547(8) -0.8096(8)
C14C C -0.7190(11) 0.7536(8) -0.7299(8)
C15C C -0.7519(9) 0.7806(7) -0.6783(7)
C16C C -0.6430(13) 0.7360(9) -0.7041(10)
C17C C -0.7002(9) 0.7793(7) -0.6037(7)
C18C C -0.5910(11) 0.7393(9) -0.6307(8)
C30C C -0.6214(5) 0.7480(4) -0.5775(4)
C31C C -0.5668(5) 0.7494(4) -0.5007(4)
C32C C -0.5195(5) 0.7505(4) -0.4369(3)
C33C C -0.4659(4) 0.7516(4) -0.3602(3)
C34C C -0.3951(5) 0.7938(3) -0.3311(4)
H5C H -0.3793 0.8228 -0.3615
C35C C -0.4812(6) 0.7074(4) -0.3123(4)
H6C H -0.5253 0.6757 -0.3301
C36C C -0.4316(5) 0.7102(4) -0.2384(4)
H7C H -0.4444 0.6808 -0.2070
C37C C -0.3477(5) 0.7931(3) -0.2567(4)
H8C H -0.3000 0.8223 -0.2381
C38B C -0.6291(4) 0.3375(3) 0.0163(3)
C39B C -0.5688(4) 0.3953(3) 0.0194(3)
C40B C -0.4905(5) 0.4044(3) 0.0823(4)
H9B H -0.4743 0.3739 0.1195
C41B C -0.5914(4) 0.4385(3) -0.0370(3)
H10B H -0.6418 0.4306 -0.0790
C42B C -0.4378(5) 0.4589(3) 0.0887(4)
H11B H -0.3867 0.4652 0.1306
C43B C -0.5391(4) 0.4953(3) -0.0324(3)
C44B C 0.1516(4) 0.3414(3) 0.0256(3)
C45B C 0.1023(4) 0.4032(3) 0.0291(3)
C46B C 0.1328(5) 0.4423(3) 0.0920(3)
H12B H 0.1816 0.4292 0.1330
C47B C 0.0295(4) 0.4211(3) -0.0309(3)
H13B H 0.0094 0.3944 -0.0717
C48B C 0.0909(5) 0.4992(3) 0.0930(4)
H14B H 0.1118 0.5250 0.1345
C49B C -0.0157(5) 0.4804(3) -0.0312(3)
C50B C 0.1504(4) 1.1601(3) 0.0320(3)
C51B C 0.0927(4) 1.1021(3) 0.0319(3)
C52B C 0.0819(4) 1.0798(3) 0.0984(3)
H15B H 0.1079 1.1025 0.1419
C53B C 0.0536(4) 1.0680(3) -0.0325(4)
H16B H 0.0597 1.0832 -0.0761
C54B C 0.0336(4) 1.0250(3) 0.0988(3)
H17B H 0.0261 1.0115 0.1425
C55B C 0.0050(4) 1.0114(3) -0.0340(3)
C56B C -0.6422(4) 1.1606(3) -0.0029(3)
C57B C -0.5894(5) 1.1032(3) -0.0136(4)
C58B C -0.5476(5) 1.0633(3) 0.0450(4)
H18B H -0.5496 1.0735 0.0915
C59B C -0.5850(5) 1.0884(3) -0.0843(4)
H19B H -0.6131 1.1152 -0.1239
C60B C -0.5014(5) 1.0068(3) 0.0357(3)
C61B C -0.5399(5) 1.0352(3) -0.0947(4)
H20B H -0.5363 1.0265 -0.1412
O11 O 0.2844(5) 1.0540(3) 0.2733(4)
N4 N 0.2737(5) 0.9819(4) 0.1812(4)
C65 C 0.2767(9) 0.9723(6) 0.1075(7)
H21 H 0.2855 1.0126 0.0871
H22 H 0.2198 0.9537 0.0770
H23 H 0.3269 0.9444 0.1095
C66 C 0.2469(8) 0.9282(5) 0.2195(6)
H24 H 0.2341 0.9440 0.2620
H25 H 0.2964 0.8979 0.2348
H26 H 0.1928 0.9080 0.1867
C67 C 0.2884(6) 1.0408(4) 0.2124(6)
H27 H 0.3028 1.0735 0.1855
loop_
_geom_bond_atom_site_label_1
_geom_bond_atom_site_label_2
_geom_bond_site_symmetry_1
_geom_bond_site_symmetry_2
Zn1 O1 1_555 1_555
Zn2 O2 1_555 1_555
O1 C38 1_555 1_555
O2 C38 1_555 1_555
O3 Zn1 1_555 1_555
O4 Zn2 1_555 1_555
O5 Zn1 1_555 1_555
O6 Zn2 1_555 1_555
O7 Zn1 1_555 1_555
O8 Zn2 1_555 1_555
N1 Zn1 1_555 1_555
N2 C36 1_555 1_555
C1 N1 1_555 1_555
H1 C1 1_555 1_555
C2 N1 1_555 1_555
H2 C2 1_555 1_555
C3 C1 1_555 1_555
H3 C3 1_555 1_555
C4 C2 1_555 1_555
H4 C4 1_555 1_555
C5 C3 1_555 1_555
C6 C5 1_555 1_555
C7 C6 1_555 1_555
C8 C7 1_555 1_555
C9 C8 1_555 1_555
C10 C8 1_555 1_555
C11 C9 1_555 1_555
C12 C10 1_555 1_555
C13 C11 1_555 1_555
C14 C13 1_555 1_555
C15 C14 1_555 1_555
C16 C14 1_555 1_555
C17 C15 1_555 1_555
C18 C16 1_555 1_555
C30 C17 1_555 1_555
C31 C30 1_555 1_555
C32 C31 1_555 1_555
C33 C32 1_555 1_555
C34 C33 1_555 1_555
H5 C34 1_555 1_555
C35 C33 1_555 1_555
H6 C35 1_555 1_555
C36 C35 1_555 1_555
H7 C36 1_555 1_555
C37 N2 1_555 1_555
H8 C37 1_555 1_555
C38 C39 1_555 1_555
C39 C40 1_555 1_555
C40 H9 1_555 1_555
C41 C39 1_555 1_555
H10 C41 1_555 1_555
C42 C40 1_555 1_555
H11 C42 1_555 1_555
C43 C41 1_555 1_555
C44 O3 1_555 1_555
C45 C44 1_555 1_555
C46 C45 1_555 1_555
H12 C46 1_555 1_555
C47 C45 1_555 1_555
H13 C47 1_555 1_555
C48 C46 1_555 1_555
H14 C48 1_555 1_555
C49 C47 1_555 1_555
C50 O5 1_555 1_555
C51 C50 1_555 1_555
C52 C51 1_555 1_555
H15 C52 1_555 1_555
C53 C51 1_555 1_555
H16 C53 1_555 1_555
C54 C52 1_555 1_555
H17 C54 1_555 1_555
C55 C53 1_555 1_555
C56 O7 1_555 1_555
C57 C56 1_555 1_555
C58 C57 1_555 1_555
H18 C58 1_555 1_555
C59 C57 1_555 1_555
H19 C59 1_555 1_555
C60 C58 1_555 1_555
C61 C59 1_555 1_555
H20 C61 1_555 1_555
O11 C67 1_555 1_555
N4 C65 1_555 1_555
C65 H21 1_555 1_555
H22 C65 1_555 1_555
H23 C65 1_555 1_555
C66 N4 1_555 1_555
H24 C66 1_555 1_555
H25 C66 1_555 1_555
H26 C66 1_555 1_555
C67 N4 1_555 1_555
H27 C67 1_555 1_555
Zn1B O1B 1_555 1_555
Zn1B_2 O3B 1_555 1_555
Zn1B_3 O5B 1_555 1_555
Zn1B_4 O7B 1_555 1_555
Zn1C N1C 1_555 1_555
Zn2B O2B 1_555 1_555
Zn2C N2 1_555 1_555
Zn2B_2 O4B 1_555 1_555
Zn2B_3 O6B 1_555 1_555
Zn2B_4 O8B 1_555 1_555
O1B C38B 1_555 1_555
O2B C38B 1_555 1_555
O3B C44B 1_555 1_555
O3B_2 Zn1B 1_555 1_555
O4B C44B 1_555 1_555
O4B_2 Zn2B 1_555 1_555
O5B C50B 1_555 1_555
O5B_2 Zn1B 1_555 1_555
O6B C50B 1_555 1_555
O6B_2 Zn2B 1_555 1_555
O7B C56B 1_555 1_555
O7B_2 Zn1B 1_555 1_555
O8B C56B 1_555 1_555
O8B_2 Zn2B 1_555 1_555
N1C C1C 1_555 1_555
N1B Zn1B 1_555 1_555
N2C Zn2 1_555 1_555
N2A Zn2B 1_555 1_555
C1C H1C 1_555 1_555
C2C N1C 1_555 1_555
H2C C2C 1_555 1_555
C3C C1C 1_555 1_555
H3C C3C 1_555 1_555
C4C C2C 1_555 1_555
H4C C4C 1_555 1_555
C5C C3C 1_555 1_555
C6C C5C 1_555 1_555
C7C C6C 1_555 1_555
C8C C7C 1_555 1_555
C9C C8C 1_555 1_555
C10C C8C 1_555 1_555
C11C C9C 1_555 1_555
C12C C10C 1_555 1_555
C13C C11C 1_555 1_555
C14C C13C 1_555 1_555
C15C C14C 1_555 1_555
C16C C14C 1_555 1_555
C17C C15C 1_555 1_555
C18C C16C 1_555 1_555
C30C C17C 1_555 1_555
C31C C30C 1_555 1_555
C32C C31C 1_555 1_555
C33C C32C 1_555 1_555
C34C C33C 1_555 1_555
H5C C34C 1_555 1_555
C35C C33C 1_555 1_555
H6C C35C 1_555 1_555
C36C N2C 1_555 1_555
H7C C36C 1_555 1_555
C37C N2C 1_555 1_555
H8C C37C 1_555 1_555
C38B C39B 1_555 1_555
C39B C40B 1_555 1_555
C40B H9B 1_555 1_555
C41B C39B 1_555 1_555
H10B C41B 1_555 1_555
C42B C43 1_555 1_555
H11B C42B 1_555 1_555
C43B C42 1_555 1_555
C44B C45B 1_555 1_555
C45B C46B 1_555 1_555
C46B H12B 1_555 1_555
C47B C45B 1_555 1_555
H13B C47B 1_555 1_555
C48B C49 1_555 1_555
H14B C48B 1_555 1_555
C49B C48 1_555 1_555
C50B C51B 1_555 1_555
C51B C52B 1_555 1_555
C52B H15B 1_555 1_555
C53B C51B 1_555 1_555
H16B C53B 1_555 1_555
C54B C55 1_555 1_555
H17B C54B 1_555 1_555
C55B C54 1_555 1_555
C56B C57B 1_555 1_555
C57B C58B 1_555 1_555
C58B H18B 1_555 1_555
C59B C57B 1_555 1_555
H19B C59B 1_555 1_555
C60B C60 1_555 1_555
C61B C60 1_555 1_555
H20B C61B 1_555 1_555
O4 C44 1_555 1_555
O6 C50 1_555 1_555
O8 C56 1_555 1_555
C4 C5 1_555 1_555
C12 C13 1_555 1_555
C18 C30 1_555 1_555
C34 C37 1_555 1_555
C43 C43B 1_555 1_555
C49 C49B 1_555 1_555
C55 C55B 1_555 1_555
C61 C60B 1_555 1_555
C4C C5C 1_555 1_555
C12C C13C 1_555 1_555
C18C C30C 1_555 1_555
C34C C37C 1_555 1_555
C35C C36C 1_555 1_555
C40B C42B 1_555 1_555
C41B C43B 1_555 1_555
C46B C48B 1_555 1_555
C47B C49B 1_555 1_555
C52B C54B 1_555 1_555
C53B C55B 1_555 1_555
C58B C60B 1_555 1_555
C59B C61B 1_555 1_555

#END
