
#######################################################################
#
#                 Cambridge Crystallographic Data Centre
#                                CCDC 
#
#######################################################################
#
# If this CIF has been generated from an entry in the Cambridge 
# Structural Database, then it will include bibliographic, chemical, 
# crystal, experimental, refinement or atomic coordinate data resulting 
# from the CCDC's data processing and validation procedures.
#
#######################################################################

data_POQKAI
_chemical_formula_moiety         '(C2 H14 In2 N2 O12 P4)n'
_symmetry_cell_setting           monoclinic
_symmetry_space_group_name_H-M   'P 2/n'
_symmetry_Int_Tables_number      13
_space_group_name_Hall           '-P 2yac'
loop_
_symmetry_equiv_pos_site_id
_symmetry_equiv_pos_as_xyz
1 x,y,z
2 1/2-x,y,1/2-z
3 -x,-y,-z
4 1/2+x,-y,1/2+z
_cell_length_a                   9.1405(5)
_cell_length_b                   9.1984(5)
_cell_length_c                   9.6120(5)
_cell_angle_alpha                90
_cell_angle_beta                 115.9950(10)
_cell_angle_gamma                90
_cell_volume                     726.398
loop_
_atom_site_label
_atom_site_type_symbol
_atom_site_fract_x
_atom_site_fract_y
_atom_site_fract_z
In1 In 1.2500 0.89664(3) 0.2500
In2 In 0.7500 0.60203(3) 0.2500
P1 P 0.84609(9) 0.83097(9) 0.02462(9)
H1 H 0.905(3) 0.728(3) -0.051(3)
P2 P 0.67689(9) 0.40090(8) -0.07657(9)
H2 H 0.757(3) 0.509(3) -0.116(3)
O1 O 0.7330(3) 0.7586(3) 0.0824(3)
O2 O 0.5028(3) 0.4122(3) -0.1951(3)
O3 O 0.7033(3) 0.4265(3) 0.0883(3)
O4 O 0.9915(3) 0.9071(2) 0.1473(3)
O5 O 0.7398(3) 0.9327(3) -0.1047(3)
O6 O 0.7588(3) 0.2581(3) -0.0822(3)
In1_2 In 0.2500 0.89664(3) 0.2500
In1B In 0.7500 0.10336(3) -0.2500
In1B_2 In 0.7500 0.10336(3) 0.7500
In1B_3 In 0.7500 1.10336(3) -0.2500
In1B_4 In 0.7500 1.10336(3) 0.7500
In2B In 0.2500 0.39797(3) -0.2500
In2B_2 In 1.2500 0.39797(3) 0.7500
P1A P 0.65391(9) 0.83097(9) 0.47538(9)
H1A H 0.595(3) 0.728(3) 0.551(3)
P2A P 0.82311(9) 0.40090(8) 0.57657(9)
H2A H 0.743(3) 0.509(3) 0.616(3)
O1A O 0.7670(3) 0.7586(3) 0.4176(3)
O2A O 0.9972(3) 0.4122(3) 0.6951(3)
O2B O 0.4972(3) 0.5878(3) 0.1951(3)
O2C O 1.0028(3) 0.5878(3) 0.3049(3)
O3A O 0.7967(3) 0.4265(3) 0.4117(3)
O4A O 0.5085(3) 0.9071(2) 0.3527(3)
O4A_2 O 1.5085(3) 0.9071(2) 0.3527(3)
O5A O 0.7602(3) 0.9327(3) 0.6047(3)
O5B O 1.2602(3) 1.0673(3) 0.1047(3)
O5C O 1.2398(3) 1.0673(3) 0.3953(3)
O6A O 0.7412(3) 0.2581(3) 0.5822(3)
O6B O 1.2412(3) 0.7419(3) 0.0822(3)
O6C O 1.2588(3) 0.7419(3) 0.4178(3)
N1 N 0.4342(3) 0.7976(3) 0.7710(4)
H3 H 0.4124 0.7093 0.7949
H4 H 0.5399 0.8162 0.8250
H5 H 0.4079 0.8015 0.6703
C1 C 0.3381(4) 0.9074(4) 0.8090(4)
H6 H 0.3843 1.0031 0.8125
H7 H 0.3447 0.8867 0.9105
N1A N 0.0658(3) 0.7976(3) 0.7290(4)
H3A H 0.0876 0.7093 0.7051
H4A H -0.0399 0.8162 0.6750
H5A H 0.0921 0.8015 0.8297
C1A C 0.1619(4) 0.9074(4) 0.6910(4)
H6A H 0.1157 1.0031 0.6875
H7A H 0.1553 0.8867 0.5895
loop_
_geom_bond_atom_site_label_1
_geom_bond_atom_site_label_2
_geom_bond_site_symmetry_1
_geom_bond_site_symmetry_2
In1 O4 1_555 1_555
In2 O1 1_555 1_555
P1 H1 1_555 1_555
P2 H2 1_555 1_555
O1 P1 1_555 1_555
O2 P2 1_555 1_555
O3 In2 1_555 1_555
O4 P1 1_555 1_555
O5 P1 1_555 1_555
O6 P2 1_555 1_555
N1 H3 1_555 1_555
H4 N1 1_555 1_555
H5 N1 1_555 1_555
C1 N1 1_555 1_555
H6 C1 1_555 1_555
H7 C1 1_555 1_555
In1_2 O4A 1_555 1_555
In1B O6 1_555 1_555
In1B_2 O6A 1_555 1_555
In1B_3 O5 1_555 1_555
In1B_4 O5A 1_555 1_555
In2B O2 1_555 1_555
In2B_2 O2A 1_555 1_555
P1A H1A 1_555 1_555
P2A H2A 1_555 1_555
O1A In2 1_555 1_555
O2A P2A 1_555 1_555
O2B In2 1_555 1_555
O2C In2 1_555 1_555
O3A In2 1_555 1_555
O4A P1A 1_555 1_555
O4A_2 In1 1_555 1_555
O5A P1A 1_555 1_555
O5B In1 1_555 1_555
O5C In1 1_555 1_555
O6A P2A 1_555 1_555
O6B In1 1_555 1_555
O6C In1 1_555 1_555
N1A H3A 1_555 1_555
H4A N1A 1_555 1_555
H5A N1A 1_555 1_555
C1A C1 1_555 1_555
H6A C1A 1_555 1_555
H7A C1A 1_555 1_555
P2 O3 1_555 1_555
P1A O1A 1_555 1_555
P2A O3A 1_555 1_555
N1A C1A 1_555 1_555

#END
