
#######################################################################
#
#                 Cambridge Crystallographic Data Centre
#                                CCDC 
#
#######################################################################
#
# If this CIF has been generated from an entry in the Cambridge 
# Structural Database, then it will include bibliographic, chemical, 
# crystal, experimental, refinement or atomic coordinate data resulting 
# from the CCDC's data processing and validation procedures.
#
#######################################################################

data_PORGAE
_chemical_formula_moiety         '(C5 H6 Co1 Ga2 N1 O12 P3)n'
_symmetry_cell_setting           monoclinic
_symmetry_space_group_name_H-M   'C 2/c'
_symmetry_Int_Tables_number      15
_space_group_name_Hall           '-C 2yc'
loop_
_symmetry_equiv_pos_site_id
_symmetry_equiv_pos_as_xyz
1 x,y,z
2 -x,y,1/2-z
3 1/2+x,1/2+y,z
4 1/2-x,1/2+y,1/2-z
5 -x,-y,-z
6 x,-y,1/2+z
7 1/2-x,1/2-y,-z
8 1/2+x,1/2-y,1/2+z
_cell_length_a                   15.0578
_cell_length_b                   13.1970
_cell_length_c                   15.2727
_cell_angle_alpha                90
_cell_angle_beta                 112.1972
_cell_angle_gamma                90
_cell_volume                     2810.03
loop_
_atom_site_label
_atom_site_type_symbol
_atom_site_fract_x
_atom_site_fract_y
_atom_site_fract_z
Ga1 Ga 0.56738(8) 0.10568(8) 0.65382(8)
Ga2 Ga 0.73158(8) -0.12692(8) 0.57730(8)
Co1 Co 0.63532(8) 0.19004(8) 0.36767(8)
P1 P 0.5716(2) -0.1306(2) 0.6573(2)
P2 P 0.7317(2) 0.1144(2) 0.5759(1)
P3 P 0.6368(2) 0.1869(2) 0.8647(1)
O1 O 0.6270(6) -0.1711(6) 0.6002(6)
O2 O 0.7156(4) 0.1423(5) 0.9528(4)
O3 O 0.5295(5) -0.0264(5) 0.6227(5)
O4 O 0.7126(5) 0.1169(5) 0.4706(4)
O5 O 0.7572(4) 0.0068(4) 0.6151(4)
O6 O 0.8178(5) 0.1799(5) 0.6299(5)
O7 O 0.4905(4) -0.2056(5) 0.6435(4)
O8 O 0.6349(5) 0.1218(5) 0.7831(4)
O9 O 0.6598(5) 0.2974(5) 0.8514(5)
O10 O 0.6379(5) -0.1243(5) 0.7616(5)
O11 O 0.5406(5) 0.1869(5) 0.8767(5)
O12 O 0.6437(5) 0.1546(5) 0.5907(5)
O11A O 0.4594(5) 0.1869(5) 0.6233(5)
O2E O 0.7156(4) -0.1423(5) 0.4528(4)
O9C O 0.8402(5) -0.2026(5) 0.6486(5)
O6F O 0.6822(5) 0.3201(5) 0.3701(5)
O7D O 0.5095(4) 0.2056(5) 0.3565(4)
O10E O 0.6379(5) 0.1243(5) 0.2616(5)
Ga2E Ga 0.73158(8) 0.12692(8) 1.07730(8)
Co1F Co 0.86468(8) 0.30996(8) 0.63233(8)
Co1D Co 0.36468(8) -0.19004(8) 0.63233(8)
Ga2C Ga 0.76842(8) 0.37308(8) 0.92270(8)
Co1E Co 0.63532(8) -0.19004(8) 0.86767(8)
Ga1A Ga 0.43262(8) 0.10568(8) 0.84618(8)
C1 C 0.170(1) 0.0043(8) 0.139(1)
N1 N 0.124(1) -0.080(1) 0.144(1)
C2 C 0.124(1) 0.096(1) 0.130(2)
C3 C 0.031(1) 0.100(1) 0.123(2)
C4 C -0.012(1) 0.010(1) 0.135(3)
C5 C 0.035(1) -0.081(1) 0.144(2)
H1 H 0.2373 0.0011 0.1413
H2 H 0.1579 -0.1462 0.1486
H3 H 0.1594 0.1600 0.1290
H4 H -0.0055 0.1653 0.1099
H5 H -0.0774 0.0124 0.1370
H6 H 0.0042 -0.1460 0.1501
loop_
_geom_bond_atom_site_label_1
_geom_bond_atom_site_label_2
_geom_bond_site_symmetry_1
_geom_bond_site_symmetry_2
Ga1 O3 1_555 1_555
Ga2 O1 1_555 1_555
Co1 O4 1_555 1_555
P1 O1 1_555 1_555
P2 O4 1_555 1_555
P3 O2 1_555 1_555
O2 Ga2E 1_555 1_555
O3 P1 1_555 1_555
O5 Ga2 1_555 1_555
O6 P2 1_555 1_555
O7 P1 1_555 1_555
O8 Ga1 1_555 1_555
O9 P3 1_555 1_555
O10 P1 1_555 1_555
O11 P3 1_555 1_555
O12 Ga1 1_555 1_555
C1 N1 1_555 1_555
N1 C5 1_555 1_555
C2 C1 1_555 1_555
C3 C2 1_555 1_555
C4 C3 1_555 1_555
C5 C4 1_555 1_555
H1 C1 1_555 1_555
H2 N1 1_555 1_555
H3 C2 1_555 1_555
H4 C3 1_555 1_555
H5 C4 1_555 1_555
H6 C5 1_555 1_555
O11A Ga1 1_555 1_555
O2E Ga2 1_555 1_555
O9C Ga2 1_555 1_555
O6F Co1 1_555 1_555
O7D Co1 1_555 1_555
O10E Co1 1_555 1_555
Co1F O6 1_555 1_555
Co1D O7 1_555 1_555
Ga2C O9 1_555 1_555
Co1E O10 1_555 1_555
Ga1A O11 1_555 1_555
P2 O5 1_555 1_555
P2 O12 1_555 1_555
P3 O8 1_555 1_555

#END
