
#######################################################################
#
#                 Cambridge Crystallographic Data Centre
#                                CCDC 
#
#######################################################################
#
# If this CIF has been generated from an entry in the Cambridge 
# Structural Database, then it will include bibliographic, chemical, 
# crystal, experimental, refinement or atomic coordinate data resulting 
# from the CCDC's data processing and validation procedures.
#
#######################################################################

data_QAVPIO
_chemical_formula_moiety         '(C6 H19 Al4 N2 O20 P5)n'
_symmetry_cell_setting           triclinic
_symmetry_space_group_name_H-M   'P 1'
_symmetry_Int_Tables_number      1
_space_group_name_Hall           'P 1'
loop_
_symmetry_equiv_pos_site_id
_symmetry_equiv_pos_as_xyz
1 x,y,z
_cell_length_a                   5.0919(10)
_cell_length_b                   9.2528(19)
_cell_length_c                   12.740(3)
_cell_angle_alpha                73.82(3)
_cell_angle_beta                 84.58(3)
_cell_angle_gamma                74.13(3)
_cell_volume                     554.381
loop_
_atom_site_label
_atom_site_type_symbol
_atom_site_fract_x
_atom_site_fract_y
_atom_site_fract_z
Al1 Al 0.9621(5) 0.7102(3) 0.15408(18)
Al2 Al 1.2848(5) 1.0329(3) 0.40222(18)
Al3 Al 0.7827(5) 0.2777(3) 0.12020(19)
Al4 Al 0.4618(5) 0.9584(3) -0.13235(19)
P1 P 0.8723(4) 1.0491(2) -0.02814(15)
P2 P 1.3611(4) 1.1009(2) 0.61810(16)
P3 P 1.2101(4) 0.3507(2) 0.23563(15)
P4 P 0.5309(4) 0.6378(2) 0.03584(15)
P5 P 0.8787(4) 0.9409(2) 0.29806(16)
O1 O 1.3381(14) 1.0062(7) 0.5399(4)
O2 O 1.4136(14) 0.9846(8) 0.7311(5)
O3 O 1.0492(13) 0.9290(7) 0.3957(4)
O4 O 0.7007(12) 1.0585(7) -0.1238(4)
O5 O 0.6552(12) 0.6624(7) 0.1307(4)
O6 O 1.1677(12) 1.0456(7) -0.0684(5)
O7 O 0.5696(13) 0.7605(7) -0.0723(4)
O8 O 1.0850(13) 0.3273(7) 0.1392(5)
O9 O 0.5831(14) 0.9569(7) 0.3385(5)
O10 O 1.1638(14) 0.2327(7) 0.3425(5)
O11 O 1.5160(12) 0.3286(7) 0.2158(4)
O12 O 0.2258(13) 0.6563(7) 0.0586(5)
O13 O 0.8520(14) 0.9092(7) 0.0620(5)
O14 O 0.9097(13) 1.0794(7) 0.2061(5)
O15 O 1.5683(12) 1.1921(7) 0.5849(5)
O16 O 0.9788(14) 0.7879(7) 0.2655(5)
O17 O 1.0809(12) 0.5117(7) 0.2542(4)
O18 O 0.6643(13) 0.4783(7) 0.0152(5)
O19 O 0.7623(12) 1.2034(6) 0.0042(4)
O20 O 1.0708(12) 1.2204(6) 0.6216(5)
Al1_2 Al -0.0379(5) 0.7102(3) 0.15408(18)
Al2_2 Al 0.2848(5) 1.0329(3) 0.40222(18)
Al2_3 Al 1.2848(5) 0.0329(3) 0.40222(18)
Al3_2 Al 1.7827(5) 0.2777(3) 0.12020(19)
Al3_3 Al 0.7827(5) 1.2777(3) 0.12020(19)
Al4_2 Al 1.4618(5) 0.9584(3) 0.86765(19)
Al4_3 Al 1.4618(5) 0.9584(3) -0.13235(19)
O2_2 O 0.4136(14) 0.9846(8) -0.2689(5)
O6_2 O 0.1677(12) 1.0456(7) -0.0684(5)
O9_2 O 1.5831(14) 0.9569(7) 0.3385(5)
O10_2 O 1.1638(14) 1.2327(7) 0.3425(5)
O11_2 O 0.5160(12) 0.3286(7) 0.2158(4)
O12_2 O 1.2258(13) 0.6563(7) 0.0586(5)
O14_2 O 0.9097(13) 0.0794(7) 0.2061(5)
O19_2 O 0.7623(12) 0.2034(6) 0.0042(4)
N1 N 1.588(2) -0.5507(12) 0.4061(8)
C1 C 1.578(3) -0.4160(16) 0.4421(11)
C2 C 1.515(4) -0.421(2) 0.5593(16)
C3 C 1.222(5) -0.426(3) 0.5927(18)
C4 C 1.157(5) -0.437(3) 0.717(2)
C5 C 1.299(2) -0.5760(12) 0.7892(8)
N2 N 1.2318(15) -0.6044(9) 0.9087(6)
C6 C 1.075(3) -0.2862(15) 0.7393(10)
loop_
_geom_bond_atom_site_label_1
_geom_bond_atom_site_label_2
_geom_bond_site_symmetry_1
_geom_bond_site_symmetry_2
Al1 O5 1_555 1_555
Al2 O1 1_555 1_555
Al3 O8 1_555 1_555
Al4 O4 1_555 1_555
P1 O4 1_555 1_555
P2 O1 1_555 1_555
P3 O8 1_555 1_555
P4 O5 1_555 1_555
P5 O3 1_555 1_555
O2 P2 1_555 1_555
O3 Al2 1_555 1_555
O6 P1 1_555 1_555
O7 Al4 1_555 1_555
O9 P5 1_555 1_555
O10 P3 1_555 1_555
O11 P3 1_555 1_555
O12 P4 1_555 1_555
O13 Al1 1_555 1_555
O14 P5 1_555 1_555
O15 P2 1_555 1_555
O16 Al1 1_555 1_555
O17 Al1 1_555 1_555
O18 Al3 1_555 1_555
O19 P1 1_555 1_555
O20 P2 1_555 1_555
N1 C1 1_555 1_555
C1 C2 1_555 1_555
C2 C3 1_555 1_555
C3 C4 1_555 1_555
C4 C5 1_555 1_555
C5 N2 1_555 1_555
C6 C4 1_555 1_555
Al1_2 O12 1_555 1_555
Al2_2 O9 1_555 1_555
Al2_3 O10 1_555 1_555
Al3_2 O11 1_555 1_555
Al3_3 O14 1_555 1_555
Al4_2 O2 1_555 1_555
Al4_3 O6 1_555 1_555
O2_2 Al4 1_555 1_555
O6_2 Al4 1_555 1_555
O9_2 Al2 1_555 1_555
O10_2 Al2 1_555 1_555
O11_2 Al3 1_555 1_555
O12_2 Al1 1_555 1_555
O14_2 Al3 1_555 1_555
O19_2 Al3 1_555 1_555
P1 O13 1_555 1_555
P3 O17 1_555 1_555
P4 O7 1_555 1_555
P4 O18 1_555 1_555
P5 O16 1_555 1_555
O19 Al3_3 1_555 1_555

#END
