
#######################################################################
#
#                 Cambridge Crystallographic Data Centre
#                                CCDC 
#
#######################################################################
#
# If this CIF has been generated from an entry in the Cambridge 
# Structural Database, then it will include bibliographic, chemical, 
# crystal, experimental, refinement or atomic coordinate data resulting 
# from the CCDC's data processing and validation procedures.
#
#######################################################################

data_QEPQOT
_chemical_formula_moiety         'C62 H40 Br2 N3 O18 Zn9'
_symmetry_cell_setting           orthorhombic
_symmetry_space_group_name_H-M   'P m m m'
_symmetry_Int_Tables_number      47
_space_group_name_Hall           '-P 2 2'
loop_
_symmetry_equiv_pos_site_id
_symmetry_equiv_pos_as_xyz
1 x,y,z
2 -x,-y,z
3 -x,y,-z
4 x,-y,-z
5 -x,-y,-z
6 x,y,-z
7 x,-y,z
8 -x,y,z
_cell_length_a                   10.8826(16)
_cell_length_b                   16.0836(19)
_cell_length_c                   18.292(3)
_cell_angle_alpha                90
_cell_angle_beta                 90
_cell_angle_gamma                90
_cell_volume                     3201.67
loop_
_atom_site_label
_atom_site_type_symbol
_atom_site_fract_x
_atom_site_fract_y
_atom_site_fract_z
Zn1 Zn 0.0000 -0.0000 1.41972(10)
Br1 Br 0.20022(13) 0.5000 1.5000
O1 O 0.1283(4) 0.0890(2) 1.4384(2)
O2 O -0.0000 0.1471(7) 1.0794(5)
N1 N 0.0000 -0.0000 1.3159(7)
C1 C -0.0937(12) 0.0305(7) 1.2726(7)
H1 H -0.1627 0.0532 1.2974
C2 C -0.0975(14) 0.0315(7) 1.1994(8)
H2 H -0.1677 0.0540 1.1757
C3 C -0.0000 -0.0000 1.1565(8)
C4 C 0.0000 -0.0000 1.0792(9)
C5 C 0.0000 0.0701(9) 1.0372(6)
C6 C -0.0000 0.2213(12) 1.0704(10)
H3 H 0.0769 0.2380 1.0468
C7 C 0.1548(7) 0.1133(4) 1.5000
C8 C 0.2381(8) 0.1963(4) 1.5000
C9 C 0.2727(7) 0.2307(4) 1.4348(4)
H4 H 0.2521 0.2045 1.3899
C10 C 0.3379(6) 0.3040(4) 1.4355(4)
H5 H 0.3616 0.3287 1.3905
C11 C 0.3694(7) 0.3422(4) 1.5000
C12 C 0.4373(6) 0.4240(4) 1.5000
C13 C 0.3755(9) 0.5000 1.5000
Zn1B Zn -0.0000 -0.0000 1.58028(10)
Zn1B_2 Zn 1.0000 -0.0000 1.58028(10)
Zn1_2 Zn 1.0000 -0.0000 1.41972(10)
Zn1_3 Zn 1.0000 1.0000 1.41972(10)
Zn1B_3 Zn 1.0000 1.0000 1.58028(10)
Zn1B_4 Zn 0.0000 1.0000 1.58028(10)
Zn1_4 Zn -0.0000 1.0000 1.41972(10)
Zn1B_5 Zn 0.0000 0.0000 0.58028(10)
Br1A Br 0.79978(13) 0.5000 1.5000
O1E O 0.1283(4) 0.0890(2) 1.5616(2)
O1B O 0.8717(4) 0.0890(2) 1.5616(2)
O1G O 0.8717(4) 0.0890(2) 1.4384(2)
O1A O 0.8717(4) 0.9110(2) 1.4384(2)
O1D O 0.8717(4) 0.9110(2) 1.5616(2)
O1C O 0.1283(4) 0.9110(2) 1.5616(2)
O1F O 0.1283(4) 0.9110(2) 1.4384(2)
O1A_2 O -0.1283(4) -0.0890(2) 1.4384(2)
O1F_2 O 0.1283(4) -0.0890(2) 1.4384(2)
O1G_2 O -0.1283(4) 0.0890(2) 1.4384(2)
O1D_2 O -0.1283(4) -0.0890(2) 1.5616(2)
O1C_2 O 0.1283(4) -0.0890(2) 1.5616(2)
O1B_2 O -0.1283(4) 0.0890(2) 1.5616(2)
O2A O -0.0000 -0.1471(7) 1.0794(5)
O2C O 0.0000 -0.1471(7) 0.9206(5)
O2B O 0.0000 0.1471(7) 0.9206(5)
N1B N -0.0000 -0.0000 0.6841(7)
N1B_2 N -0.0000 -0.0000 1.6841(7)
C1A C 0.0937(12) -0.0305(7) 1.2726(7)
C1G C 0.0937(12) 0.0305(7) 1.2726(7)
C1F C -0.0937(12) -0.0305(7) 1.2726(7)
C1C C -0.0937(12) -0.0305(7) 0.7274(7)
C1B C 0.0937(12) 0.0305(7) 0.7274(7)
C1D C 0.0937(12) -0.0305(7) 0.7274(7)
C1E C -0.0937(12) 0.0305(7) 0.7274(7)
H1A H 0.1627 -0.0532 1.2974
H1F H -0.1627 -0.0532 1.2974
H1G H 0.1627 0.0532 1.2974
H1B H 0.1627 0.0532 0.7026
H1E H -0.1627 0.0532 0.7026
H1C H -0.1627 -0.0532 0.7026
H1D H 0.1627 -0.0532 0.7026
C2A C 0.0975(14) -0.0315(7) 1.1994(8)
C2F C -0.0975(14) -0.0315(7) 1.1994(8)
C2G C 0.0975(14) 0.0315(7) 1.1994(8)
C2C C -0.0975(14) -0.0315(7) 0.8006(8)
C2B C 0.0975(14) 0.0315(7) 0.8006(8)
C2E C -0.0975(14) 0.0315(7) 0.8006(8)
C2D C 0.0975(14) -0.0315(7) 0.8006(8)
H2F H -0.1677 -0.0540 1.1757
H2A H 0.1677 -0.0540 1.1757
H2G H 0.1677 0.0540 1.1757
H2C H -0.1677 -0.0540 0.8243
H2E H -0.1677 0.0540 0.8243
H2B H 0.1677 0.0540 0.8243
H2D H 0.1677 -0.0540 0.8243
C3B C -0.0000 -0.0000 0.8435(8)
C4B C -0.0000 -0.0000 0.9208(9)
C5A C -0.0000 -0.0701(9) 1.0372(6)
C5C C -0.0000 -0.0701(9) 0.9628(6)
C5B C -0.0000 0.0701(9) 0.9628(6)
C6A C -0.0000 -0.2213(12) 1.0704(10)
C6C C 0.0000 -0.2213(12) 0.9296(10)
C6B C 0.0000 0.2213(12) 0.9296(10)
H3A H -0.0769 -0.2380 1.0468
H3F H 0.0769 -0.2380 1.0468
H3C H 0.0769 -0.2380 0.9532
H3D H -0.0769 -0.2380 0.9532
H3B H -0.0769 0.2380 0.9532
H3E H 0.0769 0.2380 0.9532
H3G H -0.0769 0.2380 1.0468
C7B C 0.8452(7) 0.1133(4) 1.5000
C7A C 0.8452(7) 0.8867(4) 1.5000
C7C C 0.1548(7) 0.8867(4) 1.5000
C8B C 0.7619(8) 0.1963(4) 1.5000
C8A C 0.7619(8) 0.8037(4) 1.5000
C8C C 0.2381(8) 0.8037(4) 1.5000
C9E C 0.2727(7) 0.2307(4) 1.5652(4)
C9B C 0.7273(7) 0.2307(4) 1.5652(4)
C9G C 0.7273(7) 0.2307(4) 1.4348(4)
C9A C 0.7273(7) 0.7693(4) 1.4348(4)
C9D C 0.7273(7) 0.7693(4) 1.5652(4)
C9C C 0.2727(7) 0.7693(4) 1.5652(4)
C9F C 0.2727(7) 0.7693(4) 1.4348(4)
H4E H 0.2521 0.2045 1.6101
H4G H 0.7479 0.2045 1.3899
H4B H 0.7479 0.2045 1.6101
H4D H 0.7479 0.7955 1.6101
H4A H 0.7479 0.7955 1.3899
H4F H 0.2521 0.7955 1.3899
H4C H 0.2521 0.7955 1.6101
C10E C 0.3379(6) 0.3040(4) 1.5645(4)
C10B C 0.6621(6) 0.3040(4) 1.5645(4)
C10G C 0.6621(6) 0.3040(4) 1.4355(4)
C10A C 0.6621(6) 0.6960(4) 1.4355(4)
C10D C 0.6621(6) 0.6960(4) 1.5645(4)
C10C C 0.3379(6) 0.6960(4) 1.5645(4)
C10F C 0.3379(6) 0.6960(4) 1.4355(4)
H5E H 0.3616 0.3287 1.6095
H5G H 0.6384 0.3287 1.3905
H5B H 0.6384 0.3287 1.6095
H5D H 0.6384 0.6713 1.6095
H5A H 0.6384 0.6713 1.3905
H5F H 0.3616 0.6713 1.3905
H5C H 0.3616 0.6713 1.6095
C11B C 0.6306(7) 0.3422(4) 1.5000
C11A C 0.6306(7) 0.6578(4) 1.5000
C11C C 0.3694(7) 0.6578(4) 1.5000
C12B C 0.5627(6) 0.4240(4) 1.5000
C12A C 0.5627(6) 0.5760(4) 1.5000
C12C C 0.4373(6) 0.5760(4) 1.5000
C13A C 0.6245(9) 0.5000 1.5000
loop_
_geom_bond_atom_site_label_1
_geom_bond_atom_site_label_2
_geom_bond_site_symmetry_1
_geom_bond_site_symmetry_2
Zn1 O1 1_555 1_555
Br1 C13 1_555 1_555
O1 C7 1_555 1_555
O2 C5 1_555 1_555
N1 Zn1 1_555 1_555
C1 N1 1_555 1_555
H1 C1 1_555 1_555
C2 C1 1_555 1_555
H2 C2 1_555 1_555
C3 C2 1_555 1_555
C4 C3 1_555 1_555
C5 C4 1_555 1_555
C6 O2 1_555 1_555
H3 C6 1_555 1_555
C7 C8 1_555 1_555
C8 C9 1_555 1_555
C9 H4 1_555 1_555
C10 C9 1_555 1_555
H5 C10 1_555 1_555
C11 C10 1_555 1_555
C12 C11 1_555 1_555
C13 C12 1_555 1_555
Zn1B O1E 1_555 1_555
Zn1B_2 O1B 1_555 1_555
Zn1_2 O1G 1_555 1_555
Zn1_3 O1A 1_555 1_555
Zn1B_3 O1D 1_555 1_555
Zn1B_4 O1C 1_555 1_555
Zn1_4 O1F 1_555 1_555
Zn1B_5 N1B 1_555 1_555
Br1A C13A 1_555 1_555
O1E C7 1_555 1_555
O1B C7B 1_555 1_555
O1G C7B 1_555 1_555
O1A C7A 1_555 1_555
O1D C7A 1_555 1_555
O1C C7C 1_555 1_555
O1F C7C 1_555 1_555
O1A_2 Zn1 1_555 1_555
O1F_2 Zn1 1_555 1_555
O1G_2 Zn1 1_555 1_555
O1D_2 Zn1B 1_555 1_555
O1C_2 Zn1B 1_555 1_555
O1B_2 Zn1B 1_555 1_555
O2A C5A 1_555 1_555
O2C C5C 1_555 1_555
O2B C5B 1_555 1_555
N1B C1C 1_555 1_555
N1B_2 Zn1B 1_555 1_555
C1A N1 1_555 1_555
C1G N1 1_555 1_555
C1F N1 1_555 1_555
C1C C1E 1_555 1_555
C1B N1B 1_555 1_555
C1D N1B 1_555 1_555
C1E N1B 1_555 1_555
H1A C1A 1_555 1_555
H1F C1F 1_555 1_555
H1G C1G 1_555 1_555
H1B C1B 1_555 1_555
H1E C1E 1_555 1_555
H1C C1C 1_555 1_555
H1D C1D 1_555 1_555
C2A C3 1_555 1_555
C2F C1 1_555 1_555
C2G C3 1_555 1_555
C2C C1C 1_555 1_555
C2B C1B 1_555 1_555
C2E C1C 1_555 1_555
C2D C1B 1_555 1_555
H2F C2F 1_555 1_555
H2A C2A 1_555 1_555
H2G C2G 1_555 1_555
H2C C2C 1_555 1_555
H2E C2E 1_555 1_555
H2B C2B 1_555 1_555
H2D C2D 1_555 1_555
C3B C2C 1_555 1_555
C4B C3B 1_555 1_555
C5A C4 1_555 1_555
C5C C4B 1_555 1_555
C5B C5 1_555 1_555
C6A O2A 1_555 1_555
C6C O2C 1_555 1_555
C6B O2B 1_555 1_555
H3A C6A 1_555 1_555
H3F C6A 1_555 1_555
H3C C6C 1_555 1_555
H3D C6C 1_555 1_555
H3B C6B 1_555 1_555
H3E C6B 1_555 1_555
H3G C6 1_555 1_555
C7B C8B 1_555 1_555
C7A C8A 1_555 1_555
C7C C8C 1_555 1_555
C8B C9B 1_555 1_555
C8A C9A 1_555 1_555
C8C C9C 1_555 1_555
C9E C8 1_555 1_555
C9B H4B 1_555 1_555
C9G C8B 1_555 1_555
C9A H4A 1_555 1_555
C9D C8A 1_555 1_555
C9C H4C 1_555 1_555
C9F C8C 1_555 1_555
H4E C9E 1_555 1_555
H4G C9G 1_555 1_555
H4D C9D 1_555 1_555
H4F C9F 1_555 1_555
C10E C11 1_555 1_555
C10B C9B 1_555 1_555
C10G C9G 1_555 1_555
C10A C9A 1_555 1_555
C10D C9D 1_555 1_555
C10C C9C 1_555 1_555
C10F C9F 1_555 1_555
H5E C10E 1_555 1_555
H5G C10G 1_555 1_555
H5B C10B 1_555 1_555
H5D C10D 1_555 1_555
H5A C10A 1_555 1_555
H5F C10F 1_555 1_555
H5C C10C 1_555 1_555
C11B C10B 1_555 1_555
C11A C10A 1_555 1_555
C11C C10C 1_555 1_555
C12B C12 1_555 1_555
C12A C11A 1_555 1_555
C12C C13 1_555 1_555
C13A C12B 1_555 1_555
C1 C1F 1_555 1_555
C2 C1F 1_555 1_555
C2 C2F 1_555 1_555
C3 C2F 1_555 1_555
C1A C1G 1_555 1_555
C1A C2A 1_555 1_555
C1A C2G 1_555 1_555
C1G C2A 1_555 1_555
C1G C2G 1_555 1_555
C1F C2F 1_555 1_555
C1B C1D 1_555 1_555
C1D C2B 1_555 1_555
C1D C2D 1_555 1_555
C1E C2C 1_555 1_555
C1E C2E 1_555 1_555
C2A C2G 1_555 1_555
C2C C2E 1_555 1_555
C2B C2D 1_555 1_555
C2B C3B 1_555 1_555
C2E C3B 1_555 1_555
C2D C3B 1_555 1_555
C4B C5B 1_555 1_555
C5A C5C 1_555 1_555
C9E C10E 1_555 1_555
C10G C11B 1_555 1_555
C10D C11A 1_555 1_555
C10F C11C 1_555 1_555
C11B C12B 1_555 1_555
C11C C12C 1_555 1_555
C12A C12C 1_555 1_555
C12A C13A 1_555 1_555

#END
