
#######################################################################
#
#                 Cambridge Crystallographic Data Centre
#                                CCDC 
#
#######################################################################
#
# If this CIF has been generated from an entry in the Cambridge 
# Structural Database, then it will include bibliographic, chemical, 
# crystal, experimental, refinement or atomic coordinate data resulting 
# from the CCDC's data processing and validation procedures.
#
#######################################################################

data_QEPQIN
_chemical_formula_moiety         'C86 H88 Br2 N2 O23 Zn9'
_symmetry_cell_setting           orthorhombic
_symmetry_space_group_name_H-M   'P m m m'
_symmetry_Int_Tables_number      47
_space_group_name_Hall           '-P 2 2'
loop_
_symmetry_equiv_pos_site_id
_symmetry_equiv_pos_as_xyz
1 x,y,z
2 -x,-y,z
3 -x,y,-z
4 x,-y,-z
5 -x,-y,-z
6 x,y,-z
7 x,-y,z
8 -x,y,z
_cell_length_a                   11.0629(6)
_cell_length_b                   15.9543(8)
_cell_length_c                   18.2692(11)
_cell_angle_alpha                90
_cell_angle_beta                 90
_cell_angle_gamma                90
_cell_volume                     3224.53
loop_
_atom_site_label
_atom_site_type_symbol
_atom_site_fract_x
_atom_site_fract_y
_atom_site_fract_z
Zn1 Zn 0.5000 0.5000 0.07996(5)
Br1 Br 0.29402(12) 0.0000 0.0000
N1 N 0.5000 0.5000 0.1929(4)
O1 O 0.3732(4) 0.4105(2) 0.0609(2)
O2 O 0.3032(17) 0.4300(11) 0.4241(6)
C1 C 0.3445(7) 0.3831(4) 0.0000
C2 C 0.2624(7) 0.3050(4) 0.0000
C3 C 0.2285(6) 0.2693(4) -0.0639(4)
H1 H 0.2502 0.2949 -0.1090
C4 C 0.1621(6) 0.1951(4) -0.0640(4)
H2 H 0.1387 0.1703 -0.1091
C5 C 0.1308(6) 0.1582(4) 0.0000
C6 C 0.0617(6) 0.0762(4) 0.0000
C7 C 0.1201(10) 0.0000 0.0000
C8 C 0.4153(12) 0.4608(7) 0.2289(5)
H3 H 0.3511 0.4344 0.2032
C9 C 0.4192(15) 0.4580(9) 0.3009(5)
H4 H 0.3620 0.4248 0.3266
C10 C 0.5000 0.5000 0.3372(9)
C11 C 0.5000 0.5000 0.4196(9)
C12 C 0.4091(13) 0.4679(10) 0.4567(7)
C13 C 0.310(3) 0.3403(12) 0.4163(16)
H5 H 0.3002 0.3142 0.4652
H6 H 0.3908 0.3250 0.3976
C14 C 0.216(3) 0.306(2) 0.3662(13)
H7 H 0.1398 0.3274 0.3869
H8 H 0.2165 0.2451 0.3777
C15 C 0.194(2) 0.308(3) 0.2856(13)
H9 H 0.1103 0.3244 0.2762
H10 H 0.2081 0.2516 0.2651
H11 H 0.2492 0.3478 0.2625
Zn1B Zn 0.5000 0.5000 0.92004(5)
Zn1B_2 Zn 0.5000 0.5000 -0.07996(5)
Zn1B_3 Zn -0.5000 0.5000 -0.07996(5)
Zn1_2 Zn -0.5000 0.5000 0.07996(5)
Zn1_3 Zn -0.5000 -0.5000 0.07996(5)
Zn1B_4 Zn -0.5000 -0.5000 -0.07996(5)
Zn1B_5 Zn 0.5000 -0.5000 -0.07996(5)
Zn1_4 Zn 0.5000 -0.5000 0.07996(5)
Br1A Br -0.29402(12) 0.0000 0.0000
N1B N 0.5000 0.5000 0.8071(4)
O1E O 0.3732(4) 0.4105(2) -0.0609(2)
O1B O -0.3732(4) 0.4105(2) -0.0609(2)
O1G O -0.3732(4) 0.4105(2) 0.0609(2)
O1A O -0.3732(4) -0.4105(2) 0.0609(2)
O1D O -0.3732(4) -0.4105(2) -0.0609(2)
O1C O 0.3732(4) -0.4105(2) -0.0609(2)
O1F O 0.3732(4) -0.4105(2) 0.0609(2)
O1A_2 O 0.6268(4) 0.5895(2) 0.0609(2)
O1F_2 O 0.3732(4) 0.5895(2) 0.0609(2)
O1G_2 O 0.6268(4) 0.4105(2) 0.0609(2)
O1E_2 O 0.3732(4) 0.4105(2) 0.9391(2)
O1D_2 O 0.6268(4) 0.5895(2) 0.9391(2)
O1C_2 O 0.3732(4) 0.5895(2) 0.9391(2)
O1B_2 O 0.6268(4) 0.4105(2) 0.9391(2)
O2E O 0.3032(17) 0.4300(11) 0.5759(6)
O2D O 0.6968(17) 0.5700(11) 0.5759(6)
O2A O 0.6968(17) 0.5700(11) 0.4241(6)
O2F O 0.3032(17) 0.5700(11) 0.4241(6)
O2G O 0.6968(17) 0.4300(11) 0.4241(6)
O2C O 0.3032(17) 0.5700(11) 0.5759(6)
O2B O 0.6968(17) 0.4300(11) 0.5759(6)
C1B C -0.3445(7) 0.3831(4) 0.0000
C1A C -0.3445(7) -0.3831(4) 0.0000
C1C C 0.3445(7) -0.3831(4) 0.0000
C2B C -0.2624(7) 0.3050(4) 0.0000
C2A C -0.2624(7) -0.3050(4) 0.0000
C2C C 0.2624(7) -0.3050(4) 0.0000
C3E C 0.2285(6) 0.2693(4) 0.0639(4)
C3B C -0.2285(6) 0.2693(4) 0.0639(4)
C3G C -0.2285(6) 0.2693(4) -0.0639(4)
C3A C -0.2285(6) -0.2693(4) -0.0639(4)
C3D C -0.2285(6) -0.2693(4) 0.0639(4)
C3C C 0.2285(6) -0.2693(4) 0.0639(4)
C3F C 0.2285(6) -0.2693(4) -0.0639(4)
H1E H 0.2502 0.2949 0.1090
H1G H -0.2502 0.2949 -0.1090
H1B H -0.2502 0.2949 0.1090
H1D H -0.2502 -0.2949 0.1090
H1A H -0.2502 -0.2949 -0.1090
H1F H 0.2502 -0.2949 -0.1090
H1C H 0.2502 -0.2949 0.1090
C4E C 0.1621(6) 0.1951(4) 0.0640(4)
C4B C -0.1621(6) 0.1951(4) 0.0640(4)
C4G C -0.1621(6) 0.1951(4) -0.0640(4)
C4A C -0.1621(6) -0.1951(4) -0.0640(4)
C4D C -0.1621(6) -0.1951(4) 0.0640(4)
C4C C 0.1621(6) -0.1951(4) 0.0640(4)
C4F C 0.1621(6) -0.1951(4) -0.0640(4)
H2E H 0.1387 0.1703 0.1091
H2G H -0.1387 0.1703 -0.1091
H2B H -0.1387 0.1703 0.1091
H2D H -0.1387 -0.1703 0.1091
H2A H -0.1387 -0.1703 -0.1091
H2F H 0.1387 -0.1703 -0.1091
H2C H 0.1387 -0.1703 0.1091
C5B C -0.1308(6) 0.1582(4) 0.0000
C5A C -0.1308(6) -0.1582(4) 0.0000
C5C C 0.1308(6) -0.1582(4) 0.0000
C6B C -0.0617(6) 0.0762(4) 0.0000
C6A C -0.0617(6) -0.0762(4) 0.0000
C6C C 0.0617(6) -0.0762(4) 0.0000
C7A C -0.1201(10) 0.0000 0.0000
C8F C 0.4153(12) 0.5392(7) 0.2289(5)
C8A C 0.5847(12) 0.5392(7) 0.2289(5)
C8G C 0.5847(12) 0.4608(7) 0.2289(5)
C8E C 0.4153(12) 0.4608(7) 0.7711(5)
C8D C 0.5847(12) 0.5392(7) 0.7711(5)
C8B C 0.5847(12) 0.4608(7) 0.7711(5)
C8C C 0.4153(12) 0.5392(7) 0.7711(5)
H3G H 0.6489 0.4344 0.2032
H3A H 0.6489 0.5656 0.2032
H3F H 0.3511 0.5656 0.2032
H3D H 0.6489 0.5656 0.7968
H3C H 0.3511 0.5656 0.7968
H3B H 0.6489 0.4344 0.7968
H3E H 0.3511 0.4344 0.7968
C9G C 0.5808(15) 0.4580(9) 0.3009(5)
C9A C 0.5808(15) 0.5420(9) 0.3009(5)
C9F C 0.4192(15) 0.5420(9) 0.3009(5)
C9E C 0.4192(15) 0.4580(9) 0.6991(5)
C9D C 0.5808(15) 0.5420(9) 0.6991(5)
C9B C 0.5808(15) 0.4580(9) 0.6991(5)
C9C C 0.4192(15) 0.5420(9) 0.6991(5)
H4A H 0.6380 0.5752 0.3266
H4F H 0.3620 0.5752 0.3266
H4G H 0.6380 0.4248 0.3266
H4C H 0.3620 0.5752 0.6734
H4D H 0.6380 0.5752 0.6734
H4B H 0.6380 0.4248 0.6734
H4E H 0.3620 0.4248 0.6734
C10B C 0.5000 0.5000 0.6628(9)
C11B C 0.5000 0.5000 0.5804(9)
C12E C 0.4091(13) 0.4679(10) 0.5433(7)
C12D C 0.5909(13) 0.5321(10) 0.5433(7)
C12A C 0.5909(13) 0.5321(10) 0.4567(7)
C12F C 0.4091(13) 0.5321(10) 0.4567(7)
C12C C 0.4091(13) 0.5321(10) 0.5433(7)
C12G C 0.5909(13) 0.4679(10) 0.4567(7)
C12B C 0.5909(13) 0.4679(10) 0.5433(7)
C13E C 0.310(3) 0.3403(12) 0.5837(16)
C13D C 0.690(3) 0.6597(12) 0.5837(16)
C13A C 0.690(3) 0.6597(12) 0.4163(16)
C13F C 0.310(3) 0.6597(12) 0.4163(16)
C13G C 0.690(3) 0.3403(12) 0.4163(16)
C13C C 0.310(3) 0.6597(12) 0.5837(16)
C13B C 0.690(3) 0.3403(12) 0.5837(16)
H5E H 0.3002 0.3142 0.5348
H5D H 0.6998 0.6858 0.5348
H5A H 0.6998 0.6858 0.4652
H5F H 0.3002 0.6858 0.4652
H5G H 0.6998 0.3142 0.4652
H5C H 0.3002 0.6858 0.5348
H5B H 0.6998 0.3142 0.5348
H6E H 0.3908 0.3250 0.6024
H6D H 0.6092 0.6750 0.6024
H6A H 0.6092 0.6750 0.3976
H6F H 0.3908 0.6750 0.3976
H6G H 0.6092 0.3250 0.3976
H6C H 0.3908 0.6750 0.6024
H6B H 0.6092 0.3250 0.6024
C14E C 0.216(3) 0.306(2) 0.6338(13)
C14D C 0.784(3) 0.694(2) 0.6338(13)
C14A C 0.784(3) 0.694(2) 0.3662(13)
C14F C 0.216(3) 0.694(2) 0.3662(13)
C14G C 0.784(3) 0.306(2) 0.3662(13)
C14C C 0.216(3) 0.694(2) 0.6338(13)
C14B C 0.784(3) 0.306(2) 0.6338(13)
H7E H 0.1398 0.3274 0.6131
H7D H 0.8602 0.6726 0.6131
H7A H 0.8602 0.6726 0.3869
H7F H 0.1398 0.6726 0.3869
H7G H 0.8602 0.3274 0.3869
H7C H 0.1398 0.6726 0.6131
H7B H 0.8602 0.3274 0.6131
H8E H 0.2165 0.2451 0.6223
H8D H 0.7835 0.7549 0.6223
H8A H 0.7835 0.7549 0.3777
H8F H 0.2165 0.7549 0.3777
H8G H 0.7835 0.2451 0.3777
H8C H 0.2165 0.7549 0.6223
H8B H 0.7835 0.2451 0.6223
C15E C 0.194(2) 0.308(3) 0.7144(13)
C15D C 0.806(2) 0.692(3) 0.7144(13)
C15A C 0.806(2) 0.692(3) 0.2856(13)
C15F C 0.194(2) 0.692(3) 0.2856(13)
C15G C 0.806(2) 0.308(3) 0.2856(13)
C15C C 0.194(2) 0.692(3) 0.7144(13)
C15B C 0.806(2) 0.308(3) 0.7144(13)
H9E H 0.1103 0.3244 0.7238
H9D H 0.8897 0.6756 0.7238
H9A H 0.8897 0.6756 0.2762
H9F H 0.1103 0.6756 0.2762
H9G H 0.8897 0.3244 0.2762
H9C H 0.1103 0.6756 0.7238
H9B H 0.8897 0.3244 0.7238
H10E H 0.2081 0.2516 0.7349
H10D H 0.7919 0.7484 0.7349
H10A H 0.7919 0.7484 0.2651
H10F H 0.2081 0.7484 0.2651
H10G H 0.7919 0.2516 0.2651
H10C H 0.2081 0.7484 0.7349
H10B H 0.7919 0.2516 0.7349
H11E H 0.2492 0.3478 0.7375
H11D H 0.7508 0.6522 0.7375
H11A H 0.7508 0.6522 0.2625
H11F H 0.2492 0.6522 0.2625
H11G H 0.7508 0.3478 0.2625
H11C H 0.2492 0.6522 0.7375
H11B H 0.7508 0.3478 0.7375
loop_
_geom_bond_atom_site_label_1
_geom_bond_atom_site_label_2
_geom_bond_site_symmetry_1
_geom_bond_site_symmetry_2
Zn1 N1 1_555 1_555
Br1 C7 1_555 1_555
N1 C8 1_555 1_555
O1 Zn1 1_555 1_555
O2 C12 1_555 1_555
C1 O1 1_555 1_555
C2 C1 1_555 1_555
C3 C2 1_555 1_555
H1 C3 1_555 1_555
C4 C3 1_555 1_555
H2 C4 1_555 1_555
C5 C4 1_555 1_555
C6 C5 1_555 1_555
C7 C6 1_555 1_555
C8 H3 1_555 1_555
C9 C8 1_555 1_555
H4 C9 1_555 1_555
C10 C9 1_555 1_555
C11 C10 1_555 1_555
C12 C11 1_555 1_555
C13 O2 1_555 1_555
H5 C13 1_555 1_555
H6 C13 1_555 1_555
C14 C13 1_555 1_555
H7 C14 1_555 1_555
H8 C14 1_555 1_555
C15 C14 1_555 1_555
H9 C15 1_555 1_555
H10 C15 1_555 1_555
H11 C15 1_555 1_555
Zn1B N1B 1_555 1_555
Zn1B_2 O1E 1_555 1_555
Zn1B_3 O1B 1_555 1_555
Zn1_2 O1G 1_555 1_555
Zn1_3 O1A 1_555 1_555
Zn1B_4 O1D 1_555 1_555
Zn1B_5 O1C 1_555 1_555
Zn1_4 O1F 1_555 1_555
Br1A C7A 1_555 1_555
N1B C8E 1_555 1_555
O1E C1 1_555 1_555
O1B C1B 1_555 1_555
O1G C1B 1_555 1_555
O1A C1A 1_555 1_555
O1D C1A 1_555 1_555
O1C C1C 1_555 1_555
O1F C1C 1_555 1_555
O1A_2 Zn1 1_555 1_555
O1F_2 Zn1 1_555 1_555
O1G_2 Zn1 1_555 1_555
O1E_2 Zn1B 1_555 1_555
O1D_2 Zn1B 1_555 1_555
O1C_2 Zn1B 1_555 1_555
O1B_2 Zn1B 1_555 1_555
O2E C12E 1_555 1_555
O2D C12D 1_555 1_555
O2A C12A 1_555 1_555
O2F C12F 1_555 1_555
O2G C12G 1_555 1_555
O2C C12C 1_555 1_555
O2B C12B 1_555 1_555
C1B C2B 1_555 1_555
C1A C2A 1_555 1_555
C1C C2C 1_555 1_555
C2B C3B 1_555 1_555
C2A C3A 1_555 1_555
C2C C3C 1_555 1_555
C3E C2 1_555 1_555
C3B H1B 1_555 1_555
C3G C2B 1_555 1_555
C3A H1A 1_555 1_555
C3D C2A 1_555 1_555
C3C H1C 1_555 1_555
C3F C2C 1_555 1_555
H1E C3E 1_555 1_555
H1G C3G 1_555 1_555
H1D C3D 1_555 1_555
H1F C3F 1_555 1_555
C4E C5 1_555 1_555
C4B C3B 1_555 1_555
C4G C3G 1_555 1_555
C4A C3A 1_555 1_555
C4D C3D 1_555 1_555
C4C C3C 1_555 1_555
C4F C3F 1_555 1_555
H2E C4E 1_555 1_555
H2G C4G 1_555 1_555
H2B C4B 1_555 1_555
H2D C4D 1_555 1_555
H2A C4A 1_555 1_555
H2F C4F 1_555 1_555
H2C C4C 1_555 1_555
C5B C4B 1_555 1_555
C5A C4A 1_555 1_555
C5C C4C 1_555 1_555
C6B C6 1_555 1_555
C6A C5A 1_555 1_555
C6C C7 1_555 1_555
C7A C6B 1_555 1_555
C8F N1 1_555 1_555
C8A N1 1_555 1_555
C8G N1 1_555 1_555
C8E C8C 1_555 1_555
C8D N1B 1_555 1_555
C8B N1B 1_555 1_555
C8C N1B 1_555 1_555
H3G C8G 1_555 1_555
H3A C8A 1_555 1_555
H3F C8F 1_555 1_555
H3D C8D 1_555 1_555
H3C C8C 1_555 1_555
H3B C8B 1_555 1_555
H3E C8E 1_555 1_555
C9G C10 1_555 1_555
C9A C10 1_555 1_555
C9F C9 1_555 1_555
C9E C8E 1_555 1_555
C9D C8D 1_555 1_555
C9B C8B 1_555 1_555
C9C C8C 1_555 1_555
H4A C9A 1_555 1_555
H4F C9F 1_555 1_555
H4G C9G 1_555 1_555
H4C C9C 1_555 1_555
H4D C9D 1_555 1_555
H4B C9B 1_555 1_555
H4E C9E 1_555 1_555
C10B C9E 1_555 1_555
C11B C10B 1_555 1_555
C12E C12 1_555 1_555
C12D C11B 1_555 1_555
C12A C11 1_555 1_555
C12F C11 1_555 1_555
C12C C11B 1_555 1_555
C12G C11 1_555 1_555
C12B C11B 1_555 1_555
C13E O2E 1_555 1_555
C13D O2D 1_555 1_555
C13A O2A 1_555 1_555
C13F O2F 1_555 1_555
C13G O2G 1_555 1_555
C13C O2C 1_555 1_555
C13B O2B 1_555 1_555
H5E C13E 1_555 1_555
H5D C13D 1_555 1_555
H5A C13A 1_555 1_555
H5F C13F 1_555 1_555
H5G C13G 1_555 1_555
H5C C13C 1_555 1_555
H5B C13B 1_555 1_555
H6E C13E 1_555 1_555
H6D C13D 1_555 1_555
H6A C13A 1_555 1_555
H6F C13F 1_555 1_555
H6G C13G 1_555 1_555
H6C C13C 1_555 1_555
H6B C13B 1_555 1_555
C14E C13E 1_555 1_555
C14D C13D 1_555 1_555
C14A C13A 1_555 1_555
C14F C13F 1_555 1_555
C14G C13G 1_555 1_555
C14C C13C 1_555 1_555
C14B C13B 1_555 1_555
H7E C14E 1_555 1_555
H7D C14D 1_555 1_555
H7A C14A 1_555 1_555
H7F C14F 1_555 1_555
H7G C14G 1_555 1_555
H7C C14C 1_555 1_555
H7B C14B 1_555 1_555
H8E C14E 1_555 1_555
H8D C14D 1_555 1_555
H8A C14A 1_555 1_555
H8F C14F 1_555 1_555
H8G C14G 1_555 1_555
H8C C14C 1_555 1_555
H8B C14B 1_555 1_555
C15E C14E 1_555 1_555
C15D C14D 1_555 1_555
C15A C14A 1_555 1_555
C15F C14F 1_555 1_555
C15G C14G 1_555 1_555
C15C C14C 1_555 1_555
C15B C14B 1_555 1_555
H9E C15E 1_555 1_555
H9D C15D 1_555 1_555
H9A C15A 1_555 1_555
H9F C15F 1_555 1_555
H9G C15G 1_555 1_555
H9C C15C 1_555 1_555
H9B C15B 1_555 1_555
H10E C15E 1_555 1_555
H10D C15D 1_555 1_555
H10A C15A 1_555 1_555
H10F C15F 1_555 1_555
H10G C15G 1_555 1_555
H10C C15C 1_555 1_555
H10B C15B 1_555 1_555
H11E C15E 1_555 1_555
H11D C15D 1_555 1_555
H11A C15A 1_555 1_555
H11F C15F 1_555 1_555
H11G C15G 1_555 1_555
H11C C15C 1_555 1_555
H11B C15B 1_555 1_555
C8 C8F 1_555 1_555
C10 C9F 1_555 1_555
C12 C12F 1_555 1_555
C3E C4E 1_555 1_555
C4G C5B 1_555 1_555
C4D C5A 1_555 1_555
C4F C5C 1_555 1_555
C5B C6B 1_555 1_555
C5C C6C 1_555 1_555
C6A C6C 1_555 1_555
C6A C7A 1_555 1_555
C8F C9F 1_555 1_555
C8A C8G 1_555 1_555
C8A C9A 1_555 1_555
C8G C9G 1_555 1_555
C8D C8B 1_555 1_555
C9G C9A 1_555 1_555
C9E C9C 1_555 1_555
C9D C9B 1_555 1_555
C9D C10B 1_555 1_555
C9B C10B 1_555 1_555
C9C C10B 1_555 1_555
C11B C12E 1_555 1_555
C12E C12C 1_555 1_555
C12D C12A 1_555 1_555
C12D C12B 1_555 1_555
C12A C12G 1_555 1_555
C12F C12C 1_555 1_555
C12G C12B 1_555 1_555

#END
