
#######################################################################
#
#                 Cambridge Crystallographic Data Centre
#                                CCDC 
#
#######################################################################
#
# If this CIF has been generated from an entry in the Cambridge 
# Structural Database, then it will include bibliographic, chemical, 
# crystal, experimental, refinement or atomic coordinate data resulting 
# from the CCDC's data processing and validation procedures.
#
#######################################################################

data_QISJEJ
_chemical_formula_moiety         '(C72 H94 Cd3 N37 O5 5+)n'
_symmetry_cell_setting           trigonal
_symmetry_space_group_name_H-M   'P -3'
_symmetry_Int_Tables_number      147
_space_group_name_Hall           '-P 3'
loop_
_symmetry_equiv_pos_site_id
_symmetry_equiv_pos_as_xyz
1 x,y,z
2 -y,x-y,z
3 -x+y,-x,z
4 -x,-y,-z
5 y,-x+y,-z
6 x-y,x,-z
_cell_length_a                   19.650(11)
_cell_length_b                   19.650(11)
_cell_length_c                   7.656(6)
_cell_angle_alpha                90
_cell_angle_beta                 90
_cell_angle_gamma                120
_cell_volume                     2560.1
loop_
_atom_site_label
_atom_site_type_symbol
_atom_site_fract_x
_atom_site_fract_y
_atom_site_fract_z
Cd1 Cd 0.6667 0.3333 0.35049(6)
Cd2 Cd -0.0000 -0.0000 1.0000
N1 N 0.5549(2) 0.2976(2) 0.5248(5)
N2 N 0.4368(3) 0.2336(3) 0.6382(8)
N3 N 0.2299(3) 0.0941(3) 0.7170(8)
N4 N 0.1118(2) 0.0330(2) 0.8270(5)
N5 N 0.6289(2) 0.4085(2) 0.1784(5)
N6 N 0.5718(3) 0.4743(3) 0.0917(6)
C1 C 0.4877(3) 0.2324(4) 0.5195(9)
H1 H 0.4762 0.1906 0.4449
C2 C 0.5467(3) 0.3405(3) 0.6539(8)
H2 H 0.5859 0.3902 0.6886
C3 C 0.4746(3) 0.3020(3) 0.7245(7)
H3 H 0.4550 0.3191 0.8145
C4 C 0.1903(3) 0.0259(3) 0.6283(7)
H4 H 0.2090 0.0080 0.5381
C5 C 0.1180(3) -0.0105(3) 0.6987(7)
H5 H 0.0774 -0.0594 0.6634
C6 C 0.1791(3) 0.0952(4) 0.8342(9)
H6 H 0.1917 0.1365 0.9112
C7 C 0.5669(3) 0.4164(3) 0.1951(7)
H7 H 0.5248 0.3860 0.2688
C8 C 0.6751(3) 0.4622(3) 0.0544(8)
H8 H 0.7232 0.4699 0.0149
C9 C 0.6401(3) 0.5022(4) -0.0013(8)
H9 H 0.6587 0.5412 -0.0865
C10 C 0.5176(4) 0.5045(4) 0.0886(8)
H10 H 0.5454 0.5596 0.1209
H11 H 0.4762 0.4763 0.1735
C11 C 0.3195(7) 0.1328(8) 0.7422(14)
H12 H 0.3354 0.1553 0.8579
H13 H 0.3377 0.0959 0.7217
C12 C 0.3476(6) 0.1939(7) 0.6068(16)
H14 H 0.3282 0.2300 0.6251
H15 H 0.3333 0.1714 0.4906
N5C N 0.3711(2) 0.5915(2) -0.1784(5)
N6C N 0.4282(3) 0.5257(3) -0.0917(6)
C7C C 0.4331(3) 0.5836(3) -0.1951(7)
H7C H 0.4752 0.6140 -0.2688
C8C C 0.3249(3) 0.5378(3) -0.0544(8)
H8C H 0.2768 0.5301 -0.0149
C9C C 0.3599(3) 0.4978(4) 0.0013(8)
H9C H 0.3413 0.4588 0.0865
C10C C 0.4824(4) 0.4955(4) -0.0886(8)
H10C H 0.4546 0.4404 -0.1209
H11C H 0.5238 0.5237 -0.1735
N1A N -0.2976(2) 0.2573(3) 0.5248(5)
N2A N -0.2336(3) 0.2032(4) 0.6382(8)
N3A N -0.0941(3) 0.1358(4) 0.7170(8)
N4A N -0.0330(2) 0.0788(3) 0.8270(5)
C1A C -0.2324(4) 0.2553(5) 0.5195(9)
H1A H -0.1906 0.2856 0.4449
C2A C -0.3405(3) 0.2062(4) 0.6539(8)
H2A H -0.3902 0.1957 0.6886
C3A C -0.3020(3) 0.1726(4) 0.7245(7)
H3A H -0.3191 0.1359 0.8145
C4A C -0.0259(3) 0.1644(4) 0.6283(7)
H4A H -0.0080 0.2010 0.5381
C5A C 0.0105(3) 0.1285(4) 0.6987(7)
H5A H 0.0594 0.1368 0.6634
C6A C -0.0952(4) 0.0839(5) 0.8342(9)
H6A H -0.1365 0.0552 0.9112
C11A C -0.1328(8) 0.1867(11) 0.7422(14)
H12A H -0.1553 0.1801 0.8579
H13A H -0.0959 0.2418 0.7217
C12A C -0.1939(7) 0.1537(9) 0.6068(16)
H14A H -0.2300 0.0982 0.6251
H15A H -0.1714 0.1619 0.4906
N1B N -0.2573(3) -0.5549(2) 0.5248(5)
N2B N -0.2032(4) -0.4368(3) 0.6382(8)
N3B N -0.1358(4) -0.2299(3) 0.7170(8)
N4B N -0.0788(3) -0.1118(2) 0.8270(5)
C1B C -0.2553(5) -0.4877(3) 0.5195(9)
H1B H -0.2856 -0.4762 0.4449
C2B C -0.2062(4) -0.5467(3) 0.6539(8)
H2B H -0.1957 -0.5859 0.6886
C3B C -0.1726(4) -0.4746(3) 0.7245(7)
H3B H -0.1359 -0.4550 0.8145
C4B C -0.1644(4) -0.1903(3) 0.6283(7)
H4B H -0.2010 -0.2090 0.5381
C5B C -0.1285(4) -0.1180(3) 0.6987(7)
H5B H -0.1368 -0.0774 0.6634
C6B C -0.0839(5) -0.1791(3) 0.8342(9)
H6B H -0.0552 -0.1917 0.9112
C11B C -0.1867(11) -0.3195(7) 0.7422(14)
H12B H -0.1801 -0.3354 0.8579
H13B H -0.2418 -0.3377 0.7217
C12B C -0.1537(9) -0.3476(6) 0.6068(16)
H14B H -0.0982 -0.3282 0.6251
H15B H -0.1619 -0.3333 0.4906
N5A N 0.5915(2) 0.2204(3) 0.1784(5)
N6A N 0.5257(3) 0.0975(4) 0.0917(6)
C7A C 0.5836(3) 0.1505(4) 0.1951(7)
H7A H 0.6140 0.1388 0.2688
C8A C 0.5378(3) 0.2129(4) 0.0544(8)
H8A H 0.5301 0.2533 0.0149
C9A C 0.4978(4) 0.1379(5) -0.0013(8)
H9A H 0.4588 0.1175 -0.0865
C10A C 0.4955(4) 0.0131(6) 0.0886(8)
H10A H 0.4404 -0.0142 0.1209
H11A H 0.5237 -0.0001 0.1735
N5D N 0.4085(2) -0.2204(3) -0.1784(5)
N6D N 0.4743(3) -0.0975(4) -0.0917(6)
C7D C 0.4164(3) -0.1505(4) -0.1951(7)
H7D H 0.3860 -0.1388 -0.2688
C8D C 0.4622(3) -0.2129(4) -0.0544(8)
H8D H 0.4699 -0.2533 -0.0149
C9D C 0.5022(4) -0.1379(5) 0.0013(8)
H9D H 0.5412 -0.1175 0.0865
C10D C 0.5045(4) -0.0131(6) -0.0886(8)
H10D H 0.5596 0.0142 -0.1209
H11D H 0.4763 0.0001 -0.1735
Cd1C Cd 0.3333 -0.3333 -0.35049(6)
N1C N 0.4451(2) -0.2976(2) -0.5248(5)
N2C N 0.5632(3) -0.2336(3) -0.6382(8)
N3C N 0.7701(3) -0.0941(3) -0.7170(8)
N4C N 0.8882(2) -0.0330(2) -0.8270(5)
C1C C 0.5123(3) -0.2324(4) -0.5195(9)
H1C H 0.5238 -0.1906 -0.4449
C2C C 0.4533(3) -0.3405(3) -0.6539(8)
H2C H 0.4141 -0.3902 -0.6886
C3C C 0.5254(3) -0.3020(3) -0.7245(7)
H3C H 0.5450 -0.3191 -0.8145
C4C C 0.8097(3) -0.0259(3) -0.6283(7)
H4C H 0.7910 -0.0080 -0.5381
C5C C 0.8820(3) 0.0105(3) -0.6987(7)
H5C H 0.9226 0.0594 -0.6634
C6C C 0.8209(3) -0.0952(4) -0.8342(9)
H6C H 0.8083 -0.1365 -0.9112
C11C C 0.6805(7) -0.1328(8) -0.7422(14)
H12C H 0.6646 -0.1553 -0.8579
H13C H 0.6623 -0.0959 -0.7217
C12C C 0.6524(6) -0.1939(7) -0.6068(16)
H14C H 0.6718 -0.2300 -0.6251
H15C H 0.6667 -0.1714 -0.4906
N1A_2 N 0.7024(2) 0.2573(3) 0.5248(5)
N2A_2 N 0.7664(3) 0.2032(4) 0.6382(8)
N3A_2 N 0.9059(3) 0.1358(4) 0.7170(8)
N4A_2 N 0.9670(2) 0.0788(3) 0.8270(5)
C1A_2 C 0.7676(4) 0.2553(5) 0.5195(9)
H1A_2 H 0.8094 0.2856 0.4449
C2A_2 C 0.6595(3) 0.2062(4) 0.6539(8)
H2A_2 H 0.6098 0.1957 0.6886
C3A_2 C 0.6980(3) 0.1726(4) 0.7245(7)
H3A_2 H 0.6809 0.1359 0.8145
C4A_2 C 0.9741(3) 0.1644(4) 0.6283(7)
H4A_2 H 0.9920 0.2010 0.5381
C5A_2 C 1.0105(3) 0.1285(4) 0.6987(7)
H5A_2 H 1.0594 0.1368 0.6634
C6A_2 C 0.9048(4) 0.0839(5) 0.8342(9)
H6A_2 H 0.8635 0.0552 0.9112
C11A_2 C 0.8672(8) 0.1867(11) 0.7422(14)
H12A_2 H 0.8447 0.1801 0.8579
H13A_2 H 0.9041 0.2418 0.7217
C12A_2 C 0.8061(7) 0.1537(9) 0.6068(16)
H14A_2 H 0.7700 0.0982 0.6251
H15A_2 H 0.8286 0.1619 0.4906
N1B_2 N 0.7427(3) 0.4451(2) 0.5248(5)
N2B_2 N 0.7968(4) 0.5632(3) 0.6382(8)
N3B_2 N 0.8642(4) 0.7701(3) 0.7170(8)
N4B_2 N 0.9212(3) 0.8882(2) 0.8270(5)
C1B_2 C 0.7447(5) 0.5123(3) 0.5195(9)
H1B_2 H 0.7144 0.5238 0.4449
C2B_2 C 0.7938(4) 0.4533(3) 0.6539(8)
H2B_2 H 0.8043 0.4141 0.6886
C3B_2 C 0.8274(4) 0.5254(3) 0.7245(7)
H3B_2 H 0.8641 0.5450 0.8145
C4B_2 C 0.8356(4) 0.8097(3) 0.6283(7)
H4B_2 H 0.7990 0.7910 0.5381
C5B_2 C 0.8715(4) 0.8820(3) 0.6987(7)
H5B_2 H 0.8632 0.9226 0.6634
C6B_2 C 0.9161(5) 0.8209(3) 0.8342(9)
H6B_2 H 0.9448 0.8083 0.9112
C11B_2 C 0.8133(11) 0.6805(7) 0.7422(14)
H12B_2 H 0.8199 0.6646 0.8579
H13B_2 H 0.7582 0.6623 0.7217
C12B_2 C 0.8463(9) 0.6524(6) 0.6068(16)
H14B_2 H 0.9018 0.6718 0.6251
H15B_2 H 0.8381 0.6667 0.4906
N5B N 0.7796(3) 0.3711(2) 0.1784(5)
N6B N 0.9025(4) 0.4282(3) 0.0917(6)
C7B C 0.8495(4) 0.4331(3) 0.1951(7)
H7B H 0.8612 0.4752 0.2688
C8B C 0.7871(4) 0.3249(3) 0.0544(8)
H8B H 0.7467 0.2768 0.0149
C9B C 0.8621(5) 0.3599(3) -0.0013(8)
H9B H 0.8825 0.3413 -0.0865
C10B C 0.9869(6) 0.4824(4) 0.0886(8)
H10B H 1.0142 0.4546 0.1209
H11B H 1.0001 0.5238 0.1735
N5E N 1.2204(3) 0.6289(2) -0.1784(5)
N6E N 1.0975(4) 0.5718(3) -0.0917(6)
C7E C 1.1505(4) 0.5669(3) -0.1951(7)
H7E H 1.1388 0.5248 -0.2688
C8E C 1.2129(4) 0.6751(3) -0.0544(8)
H8E H 1.2533 0.7232 -0.0149
C9E C 1.1379(5) 0.6401(3) 0.0013(8)
H9E H 1.1175 0.6587 0.0865
C10E C 1.0131(6) 0.5176(4) -0.0886(8)
H10E H 0.9858 0.5454 -0.1209
H11E H 0.9999 0.4762 -0.1735
Cd1_2 Cd -0.3333 -0.6667 0.35049(6)
Cd1_3 Cd -0.3333 0.3333 0.35049(6)
Cd1C_2 Cd 0.3333 0.6667 -0.35049(6)
Cd1C_3 Cd 1.3333 0.6667 -0.35049(6)
Cd2_2 Cd 1.0000 0.0000 -1.0000
Cd2_3 Cd 1.0000 -0.0000 1.0000
Cd2_4 Cd 1.0000 1.0000 1.0000
N1D N 0.2976(2) -0.2573(3) -0.5248(5)
N1E N 0.2573(3) -0.4451(2) -0.5248(5)
N4C_2 N -0.1118(2) -0.0330(2) 1.1730(5)
N4D N 0.0330(2) -0.0788(3) 1.1730(5)
N4E N 0.0788(3) 0.1118(2) 1.1730(5)
N5C_2 N 0.3711(2) -0.4085(2) -0.1784(5)
N5E_2 N 0.2204(3) -0.3711(2) -0.1784(5)
O1 O 0.3723(4) 0.2992(6) 0.2938(10)
O2 O 0.3371(6) 0.2137(5) 0.1144(15)
O3 O 0.3404(5) 0.3125(6) 0.0498(12)
N7 N 0.3499(3) 0.2755(3) 0.1495(7)
O4 O 0.3829(8) 0.4137(7) 0.5215(17)
H20 H 0.3357 0.4018 0.5016
H21 H 0.4193 0.4615 0.5189
O5 O 0.2443(5) 0.3073(5) 0.7652(9)
H22 H 0.2887 0.3482 0.7826
H23 H 0.2032 0.3110 0.7571
loop_
_geom_bond_atom_site_label_1
_geom_bond_atom_site_label_2
_geom_bond_site_symmetry_1
_geom_bond_site_symmetry_2
Cd1 N1 1_555 1_555
Cd2 N4 1_555 1_555
N1 C1 1_555 1_555
N2 C1 1_555 1_555
N3 C4 1_555 1_555
N4 C5 1_555 1_555
N5 Cd1 1_555 1_555
N6 C7 1_555 1_555
C1 H1 1_555 1_555
C2 N1 1_555 1_555
H2 C2 1_555 1_555
C3 N2 1_555 1_555
H3 C3 1_555 1_555
C4 H4 1_555 1_555
C5 C4 1_555 1_555
H5 C5 1_555 1_555
C6 N3 1_555 1_555
H6 C6 1_555 1_555
C7 N5 1_555 1_555
H7 C7 1_555 1_555
C8 N5 1_555 1_555
H8 C8 1_555 1_555
C9 N6 1_555 1_555
H9 C9 1_555 1_555
C10 N6 1_555 1_555
H10 C10 1_555 1_555
H11 C10 1_555 1_555
C11 N3 1_555 1_555
H12 C11 1_555 1_555
H13 C11 1_555 1_555
C12 N2 1_555 1_555
H14 C12 1_555 1_555
H15 C12 1_555 1_555
O1 N7 1_555 1_555
O2 N7 1_555 1_555
O3 N7 1_555 1_555
O4 H20 1_555 1_555
H21 O4 1_555 1_555
O5 H22 1_555 1_555
H23 O5 1_555 1_555
N5C C7C 1_555 1_555
N6C C7C 1_555 1_555
C7C H7C 1_555 1_555
C8C N5C 1_555 1_555
H8C C8C 1_555 1_555
C9C N6C 1_555 1_555
H9C C9C 1_555 1_555
C10C C10 1_555 1_555
H10C C10C 1_555 1_555
H11C C10C 1_555 1_555
N1A C1A 1_555 1_555
N2A C1A 1_555 1_555
N3A C4A 1_555 1_555
N4A Cd2 1_555 1_555
C1A H1A 1_555 1_555
C2A N1A 1_555 1_555
H2A C2A 1_555 1_555
C3A N2A 1_555 1_555
H3A C3A 1_555 1_555
C4A H4A 1_555 1_555
C5A N4A 1_555 1_555
H5A C5A 1_555 1_555
C6A N3A 1_555 1_555
H6A C6A 1_555 1_555
C11A N3A 1_555 1_555
H12A C11A 1_555 1_555
H13A C11A 1_555 1_555
C12A N2A 1_555 1_555
H14A C12A 1_555 1_555
H15A C12A 1_555 1_555
N1B C1B 1_555 1_555
N2B C1B 1_555 1_555
N3B C4B 1_555 1_555
N4B Cd2 1_555 1_555
C1B H1B 1_555 1_555
C2B N1B 1_555 1_555
H2B C2B 1_555 1_555
C3B N2B 1_555 1_555
H3B C3B 1_555 1_555
C4B H4B 1_555 1_555
C5B N4B 1_555 1_555
H5B C5B 1_555 1_555
C6B N3B 1_555 1_555
H6B C6B 1_555 1_555
C11B N3B 1_555 1_555
H12B C11B 1_555 1_555
H13B C11B 1_555 1_555
C12B N2B 1_555 1_555
H14B C12B 1_555 1_555
H15B C12B 1_555 1_555
N5A Cd1 1_555 1_555
N6A C7A 1_555 1_555
C7A N5A 1_555 1_555
H7A C7A 1_555 1_555
C8A N5A 1_555 1_555
H8A C8A 1_555 1_555
C9A N6A 1_555 1_555
H9A C9A 1_555 1_555
C10A N6A 1_555 1_555
H10A C10A 1_555 1_555
H11A C10A 1_555 1_555
N5D C7D 1_555 1_555
N6D C7D 1_555 1_555
C7D H7D 1_555 1_555
C8D N5D 1_555 1_555
H8D C8D 1_555 1_555
C9D N6D 1_555 1_555
H9D C9D 1_555 1_555
C10D C10A 1_555 1_555
H10D C10D 1_555 1_555
H11D C10D 1_555 1_555
Cd1C N5D 1_555 1_555
N1C Cd1C 1_555 1_555
N2C C1C 1_555 1_555
N3C C4C 1_555 1_555
N4C C5C 1_555 1_555
C1C N1C 1_555 1_555
H1C C1C 1_555 1_555
C2C N1C 1_555 1_555
H2C C2C 1_555 1_555
C3C N2C 1_555 1_555
H3C C3C 1_555 1_555
C4C H4C 1_555 1_555
C5C C4C 1_555 1_555
H5C C5C 1_555 1_555
C6C N3C 1_555 1_555
H6C C6C 1_555 1_555
C11C N3C 1_555 1_555
H12C C11C 1_555 1_555
H13C C11C 1_555 1_555
C12C N2C 1_555 1_555
H14C C12C 1_555 1_555
H15C C12C 1_555 1_555
N1A_2 Cd1 1_555 1_555
N2A_2 C1A_2 1_555 1_555
N3A_2 C4A_2 1_555 1_555
N4A_2 C5A_2 1_555 1_555
C1A_2 N1A_2 1_555 1_555
H1A_2 C1A_2 1_555 1_555
C2A_2 N1A_2 1_555 1_555
H2A_2 C2A_2 1_555 1_555
C3A_2 N2A_2 1_555 1_555
H3A_2 C3A_2 1_555 1_555
C4A_2 H4A_2 1_555 1_555
C5A_2 C4A_2 1_555 1_555
H5A_2 C5A_2 1_555 1_555
C6A_2 N3A_2 1_555 1_555
H6A_2 C6A_2 1_555 1_555
C11A_2 N3A_2 1_555 1_555
H12A_2 C11A_2 1_555 1_555
H13A_2 C11A_2 1_555 1_555
C12A_2 N2A_2 1_555 1_555
H14A_2 C12A_2 1_555 1_555
H15A_2 C12A_2 1_555 1_555
N1B_2 Cd1 1_555 1_555
N2B_2 C1B_2 1_555 1_555
N3B_2 C4B_2 1_555 1_555
N4B_2 C5B_2 1_555 1_555
C1B_2 N1B_2 1_555 1_555
H1B_2 C1B_2 1_555 1_555
C2B_2 N1B_2 1_555 1_555
H2B_2 C2B_2 1_555 1_555
C3B_2 N2B_2 1_555 1_555
H3B_2 C3B_2 1_555 1_555
C4B_2 H4B_2 1_555 1_555
C5B_2 C4B_2 1_555 1_555
H5B_2 C5B_2 1_555 1_555
C6B_2 N3B_2 1_555 1_555
H6B_2 C6B_2 1_555 1_555
C11B_2 N3B_2 1_555 1_555
H12B_2 C11B_2 1_555 1_555
H13B_2 C11B_2 1_555 1_555
C12B_2 N2B_2 1_555 1_555
H14B_2 C12B_2 1_555 1_555
H15B_2 C12B_2 1_555 1_555
N5B Cd1 1_555 1_555
N6B C7B 1_555 1_555
C7B N5B 1_555 1_555
H7B C7B 1_555 1_555
C8B N5B 1_555 1_555
H8B C8B 1_555 1_555
C9B N6B 1_555 1_555
H9B C9B 1_555 1_555
C10B N6B 1_555 1_555
H10B C10B 1_555 1_555
H11B C10B 1_555 1_555
N5E C7E 1_555 1_555
N6E C7E 1_555 1_555
C7E H7E 1_555 1_555
C8E N5E 1_555 1_555
H8E C8E 1_555 1_555
C9E N6E 1_555 1_555
H9E C9E 1_555 1_555
C10E C10B 1_555 1_555
H10E C10E 1_555 1_555
H11E C10E 1_555 1_555
Cd1_2 N1B 1_555 1_555
Cd1_3 N1A 1_555 1_555
Cd1C_2 N5C 1_555 1_555
Cd1C_3 N5E 1_555 1_555
Cd2_2 N4C 1_555 1_555
Cd2_3 N4A_2 1_555 1_555
Cd2_4 N4B_2 1_555 1_555
N1D Cd1C 1_555 1_555
N1E Cd1C 1_555 1_555
N4C_2 Cd2 1_555 1_555
N4D Cd2 1_555 1_555
N4E Cd2 1_555 1_555
N5C_2 Cd1C 1_555 1_555
N5E_2 Cd1C 1_555 1_555
N4 C6 1_555 1_555
C2 C3 1_555 1_555
C8 C9 1_555 1_555
C11 C12 1_555 1_555
N6C C10C 1_555 1_555
C8C C9C 1_555 1_555
N4A C6A 1_555 1_555
C2A C3A 1_555 1_555
C4A C5A 1_555 1_555
C11A C12A 1_555 1_555
N4B C6B 1_555 1_555
C2B C3B 1_555 1_555
C4B C5B 1_555 1_555
C11B C12B 1_555 1_555
C8A C9A 1_555 1_555
N6D C10D 1_555 1_555
C8D C9D 1_555 1_555
N4C C6C 1_555 1_555
C2C C3C 1_555 1_555
C11C C12C 1_555 1_555
N4A_2 C6A_2 1_555 1_555
C2A_2 C3A_2 1_555 1_555
C11A_2 C12A_2 1_555 1_555
N4B_2 C6B_2 1_555 1_555
C2B_2 C3B_2 1_555 1_555
C11B_2 C12B_2 1_555 1_555
C8B C9B 1_555 1_555
N6E C10E 1_555 1_555
C8E C9E 1_555 1_555

#END
