
#######################################################################
#
#                 Cambridge Crystallographic Data Centre
#                                CCDC 
#
#######################################################################
#
# If this CIF has been generated from an entry in the Cambridge 
# Structural Database, then it will include bibliographic, chemical, 
# crystal, experimental, refinement or atomic coordinate data resulting 
# from the CCDC's data processing and validation procedures.
#
#######################################################################

data_QITDEE
_chemical_formula_moiety         '(C41 H62 Cd2 N6 O13)n'
_symmetry_cell_setting           triclinic
_symmetry_space_group_name_H-M   'P -1'
_symmetry_Int_Tables_number      2
_space_group_name_Hall           '-P 1'
loop_
_symmetry_equiv_pos_site_id
_symmetry_equiv_pos_as_xyz
1 x,y,z
2 -x,-y,-z
_cell_length_a                   12.3825(15)
_cell_length_b                   13.0128(16)
_cell_length_c                   15.3729(19)
_cell_angle_alpha                91.351(2)
_cell_angle_beta                 94.864(3)
_cell_angle_gamma                98.730(2)
_cell_volume                     2437.86
loop_
_atom_site_label
_atom_site_type_symbol
_atom_site_fract_x
_atom_site_fract_y
_atom_site_fract_z
C1 C 0.2150(5) 0.9302(5) 0.3781(4)
C2 C 0.1596(5) 0.8922(4) 0.3003(4)
C3 C 0.1868(4) 0.9401(4) 0.2241(3)
C4 C 0.2737(5) 1.0213(4) 0.2257(3)
C5 C 0.3321(4) 1.0602(4) 0.3050(4)
C6 C 0.3027(5) 1.0127(4) 0.3825(3)
C7 C 0.0542(5) 0.8120(5) 0.2985(4)
H1 H 0.0731 0.7436 0.3045
H2 H 0.0108 0.8150 0.2441
H3 H 0.0128 0.8277 0.3459
C8 C 0.3086(5) 1.0748(4) 0.1429(4)
H4 H 0.3147 1.0231 0.0987
H5 H 0.3783 1.1183 0.1557
H6 H 0.2548 1.1165 0.1223
C9 C 0.3590(5) 1.0560(5) 0.4720(4)
H7 H 0.4368 1.0579 0.4723
H8 H 0.3318 1.0119 0.5171
H9 H 0.3433 1.1250 0.4824
C10 C 0.1259(5) 0.8976(5) 0.1376(4)
H10 H 0.1705 0.9175 0.0900
H11 H 0.1108 0.8223 0.1376
C11 C 0.0035(5) 1.0406(5) 0.1482(4)
H12 H 0.0570 1.0915 0.1760
C12 C -0.1435(4) 0.9661(4) 0.0843(3)
H13 H -0.2160 0.9558 0.0603
C13 C -0.0748(5) 0.8898(4) 0.0793(4)
H14 H -0.0885 0.8237 0.0528
C14 C 0.4232(4) 1.1506(4) 0.3091(4)
H15 H 0.4017 1.2035 0.2707
H16 H 0.4351 1.1805 0.3682
C15 C 0.5685(4) 1.0334(4) 0.3113(3)
H17 H 0.5372 0.9809 0.3454
C16 C 0.6722(4) 1.0419(4) 0.2749(4)
H18 H 0.7211 0.9943 0.2809
C17 C 0.5973(5) 1.1782(5) 0.2367(4)
H19 H 0.5870 1.2408 0.2119
C18 C 0.1896(5) 0.8725(5) 0.4626(4)
H20 H 0.1900 0.9238 0.5094
H21 H 0.1162 0.8333 0.4538
C19 C 0.2621(5) 0.7454(4) 0.5640(4)
H22 H 0.2177 0.7485 0.6095
C20 C 0.3412(5) 0.6828(4) 0.5542(3)
H23 H 0.3546 0.6319 0.5935
C21 C 0.3411(4) 0.7688(4) 0.4375(4)
H24 H 0.3529 0.7890 0.3810
C22 C 0.5232(5) 0.6736(5) 0.2574(4)
C23 C 0.5263(5) 0.6982(5) 0.1625(4)
H25 H 0.5707 0.6526 0.1350
C24 C 0.5717(5) 0.8095(5) 0.1470(4)
H26 H 0.6496 0.8158 0.1401
H27 H 0.5620 0.8535 0.1966
C25 C 0.5107(6) 0.8442(5) 0.0634(4)
H28 H 0.4682 0.8984 0.0769
H29 H 0.5616 0.8693 0.0213
C26 C 0.4357(5) 0.7440(4) 0.0292(3)
C27 C 0.4086(4) 0.6843(4) 0.1107(3)
C28 C 0.3342(5) 0.7624(4) -0.0286(4)
C29 C 0.4852(5) 0.6773(5) -0.0401(4)
H30 H 0.5162 0.7221 -0.0833
H31 H 0.4281 0.6259 -0.0679
H32 H 0.5413 0.6436 -0.0113
C30 C 0.3702(5) 0.5692(4) 0.0872(4)
H33 H 0.3188 0.5624 0.0362
H34 H 0.3353 0.5364 0.1350
H35 H 0.4321 0.5364 0.0755
C31 C 0.3235(5) 0.7222(4) 0.1625(4)
H36 H 0.2575 0.7231 0.1250
H37 H 0.3506 0.7913 0.1858
H38 H 0.3081 0.6765 0.2095
C32 C 0.6781(5) 0.5779(5) 0.5324(4)
C33 C 0.7797(5) 0.5582(5) 0.5923(4)
H39 H 0.8300 0.5390 0.5510
C34 C 0.7764(5) 0.4717(6) 0.6587(4)
H40 H 0.7078 0.4642 0.6857
H41 H 0.7821 0.4060 0.6296
C35 C 0.8732(5) 0.5018(5) 0.7280(4)
H42 H 0.9113 0.4431 0.7397
H43 H 0.8482 0.5253 0.7821
C36 C 0.9486(5) 0.5904(4) 0.6886(4)
C37 C 0.8507(6) 0.6427(5) 0.6513(4)
C38 C 1.0199(5) 0.6734(4) 0.7470(4)
C39 C 1.0086(6) 0.5429(5) 0.6169(5)
H44 H 0.9721 0.4737 0.6010
H45 H 1.0831 0.5405 0.6387
H46 H 1.0077 0.5850 0.5665
C40 C 0.7735(6) 0.6830(5) 0.7127(5)
H47 H 0.8193 0.7394 0.7520
H48 H 0.7207 0.7133 0.6804
H49 H 0.7472 0.6289 0.7469
C41 C 0.8907(6) 0.7396(6) 0.5983(5)
H50 H 0.9333 0.7197 0.5533
H51 H 0.9350 0.7917 0.6367
H52 H 0.8284 0.7672 0.5724
Cd1 Cd 0.50831(3) 0.61494(3) 0.42338(2)
Cd2 Cd 1.17616(3) 0.80723(3) 0.85051(2)
N1 N 0.0190(4) 0.9418(3) 0.1253(3)
N2 N -0.0969(4) 1.0525(4) 0.1253(3)
N3 N 0.5249(4) 1.1217(3) 0.2840(3)
N4 N 0.6872(4) 1.1318(4) 0.2298(3)
N5 N 0.2652(4) 0.8016(4) 0.4903(3)
N6 N 0.3956(4) 0.7004(3) 0.4859(3)
O1 O 0.5294(4) 0.7456(3) 0.3118(2)
O2 O 0.5027(4) 0.5834(3) 0.2824(2)
O3 O 0.2842(3) 0.6962(3) -0.0816(3)
O4 O 0.2994(3) 0.8476(3) -0.0199(2)
O5 O 0.5857(3) 0.5507(3) 0.5557(3)
O6 O 0.6892(3) 0.6276(4) 0.4661(3)
O7 O 1.0925(4) 0.7268(3) 0.7232(3)
O8 O 1.0144(4) 0.6948(3) 0.8279(3)
Cd1A Cd 0.49169(3) 0.38506(3) 0.57662(2)
Cd2_2 Cd 0.17616(3) 0.80723(3) -0.14949(2)
Cd2A Cd -0.17616(3) 1.19277(3) 0.14949(2)
Cd2A_2 Cd 0.82384(3) 1.19277(3) 0.14949(2)
N2A N 1.0969(4) 0.9475(4) 0.8747(3)
N4A N 1.3128(4) 0.8682(4) 0.7702(3)
O3_2 O 1.2842(3) 0.6962(3) 0.9184(3)
O4_2 O 1.2994(3) 0.8476(3) 0.9801(2)
O5A O 0.4143(3) 0.4493(3) 0.4443(3)
O9 O 0.2352(12) 0.3920(10) 0.9037(10)
H53 H 0.2849 0.4307 0.9361
H54 H 0.2544 0.3327 0.8959
O10 O 0.8278(9) 0.7120(8) 0.3854(7)
H55 H 0.8012 0.6526 0.3624
H56 H 0.7820 0.7538 0.3759
O11 O 0.3009(11) 0.5350(9) 0.8286(7)
H57 H 0.3457 0.5503 0.7902
H58 H 0.2358 0.5248 0.8043
O12 O 0.9263(11) 0.9016(8) 0.4458(7)
H59 H 0.8658 0.8617 0.4490
H60 H 0.9648 0.9041 0.4945
O13 O 0.0686(10) 0.3700(8) 0.9714(7)
H61 H 0.0197 0.3364 0.9998
H62 H 0.0545 0.4313 0.9640
loop_
_geom_bond_atom_site_label_1
_geom_bond_atom_site_label_2
_geom_bond_site_symmetry_1
_geom_bond_site_symmetry_2
C1 C2 1_555 1_555
C2 C3 1_555 1_555
C3 C4 1_555 1_555
C4 C5 1_555 1_555
C5 C6 1_555 1_555
C6 C1 1_555 1_555
C7 C2 1_555 1_555
H1 C7 1_555 1_555
H2 C7 1_555 1_555
H3 C7 1_555 1_555
C8 C4 1_555 1_555
H4 C8 1_555 1_555
H5 C8 1_555 1_555
H6 C8 1_555 1_555
C9 C6 1_555 1_555
H7 C9 1_555 1_555
H8 C9 1_555 1_555
H9 C9 1_555 1_555
C10 C3 1_555 1_555
H10 C10 1_555 1_555
H11 C10 1_555 1_555
C11 H12 1_555 1_555
C12 H13 1_555 1_555
C13 C12 1_555 1_555
H14 C13 1_555 1_555
C14 C5 1_555 1_555
H15 C14 1_555 1_555
H16 C14 1_555 1_555
C15 H17 1_555 1_555
C16 C15 1_555 1_555
H18 C16 1_555 1_555
C17 H19 1_555 1_555
C18 C1 1_555 1_555
H20 C18 1_555 1_555
H21 C18 1_555 1_555
C19 H22 1_555 1_555
C20 C19 1_555 1_555
H23 C20 1_555 1_555
C21 H24 1_555 1_555
C22 C23 1_555 1_555
C23 H25 1_555 1_555
C24 C23 1_555 1_555
H26 C24 1_555 1_555
H27 C24 1_555 1_555
C25 C24 1_555 1_555
H28 C25 1_555 1_555
H29 C25 1_555 1_555
C26 C25 1_555 1_555
C27 C23 1_555 1_555
C28 C26 1_555 1_555
C29 C26 1_555 1_555
H30 C29 1_555 1_555
H31 C29 1_555 1_555
H32 C29 1_555 1_555
C30 C27 1_555 1_555
H33 C30 1_555 1_555
H34 C30 1_555 1_555
H35 C30 1_555 1_555
C31 C27 1_555 1_555
H36 C31 1_555 1_555
H37 C31 1_555 1_555
H38 C31 1_555 1_555
C32 C33 1_555 1_555
C33 H39 1_555 1_555
C34 C33 1_555 1_555
H40 C34 1_555 1_555
H41 C34 1_555 1_555
C35 C34 1_555 1_555
H42 C35 1_555 1_555
H43 C35 1_555 1_555
C36 C35 1_555 1_555
C37 C33 1_555 1_555
C38 C36 1_555 1_555
C39 C36 1_555 1_555
H44 C39 1_555 1_555
H45 C39 1_555 1_555
H46 C39 1_555 1_555
C40 C37 1_555 1_555
H47 C40 1_555 1_555
H48 C40 1_555 1_555
H49 C40 1_555 1_555
C41 C37 1_555 1_555
H50 C41 1_555 1_555
H51 C41 1_555 1_555
H52 C41 1_555 1_555
Cd1 N6 1_555 1_555
Cd2 O7 1_555 1_555
N1 C10 1_555 1_555
N2 C11 1_555 1_555
N3 C14 1_555 1_555
N4 C16 1_555 1_555
N5 C18 1_555 1_555
N6 C20 1_555 1_555
O1 C22 1_555 1_555
O2 C22 1_555 1_555
O3 C28 1_555 1_555
O4 C28 1_555 1_555
O5 C32 1_555 1_555
O6 C32 1_555 1_555
O7 C38 1_555 1_555
O8 C38 1_555 1_555
O9 H53 1_555 1_555
H54 O9 1_555 1_555
O10 H55 1_555 1_555
H56 O10 1_555 1_555
O11 H57 1_555 1_555
H58 O11 1_555 1_555
O12 H59 1_555 1_555
H60 O12 1_555 1_555
O13 H61 1_555 1_555
H62 O13 1_555 1_555
Cd1A O5 1_555 1_555
Cd2_2 O3 1_555 1_555
Cd2A N2 1_555 1_555
Cd2A_2 N4 1_555 1_555
N2A Cd2 1_555 1_555
N4A Cd2 1_555 1_555
O3_2 Cd2 1_555 1_555
O4_2 Cd2 1_555 1_555
O5A Cd1 1_555 1_555
C11 N1 1_555 1_555
C12 N2 1_555 1_555
C13 N1 1_555 1_555
C15 N3 1_555 1_555
C17 N3 1_555 1_555
C17 N4 1_555 1_555
C19 N5 1_555 1_555
C21 N5 1_555 1_555
C21 N6 1_555 1_555
C26 C27 1_555 1_555
C36 C37 1_555 1_555
Cd1 O1 1_555 1_555
Cd1 O2 1_555 1_555
Cd1 O5 1_555 1_555
Cd1 O6 1_555 1_555
Cd2 O8 1_555 1_555
O4 Cd2_2 1_555 1_555
Cd1A O5A 1_555 1_555

#END
