
#######################################################################
#
#                 Cambridge Crystallographic Data Centre
#                                CCDC 
#
#######################################################################
#
# If this CIF has been generated from an entry in the Cambridge 
# Structural Database, then it will include bibliographic, chemical, 
# crystal, experimental, refinement or atomic coordinate data resulting 
# from the CCDC's data processing and validation procedures.
#
#######################################################################

data_RAQVAG
_chemical_formula_moiety         '(C2 H10 Fe2 N2 O8 P2)n'
_symmetry_cell_setting           orthorhombic
_symmetry_space_group_name_H-M   'P c c n'
_symmetry_Int_Tables_number      56
_space_group_name_Hall           '-P 2ab 2ac'
loop_
_symmetry_equiv_pos_site_id
_symmetry_equiv_pos_as_xyz
1 x,y,z
2 1/2-x,1/2-y,z
3 1/2+x,-y,1/2-z
4 -x,1/2+y,1/2-z
5 -x,-y,-z
6 1/2+x,1/2+y,-z
7 1/2-x,y,1/2+z
8 x,1/2-y,1/2+z
_cell_length_a                   10.361(6)
_cell_length_b                   10.390(5)
_cell_length_c                   9.135(7)
_cell_angle_alpha                90
_cell_angle_beta                 90
_cell_angle_gamma                90
_cell_volume                     983.39
loop_
_atom_site_label
_atom_site_type_symbol
_atom_site_fract_x
_atom_site_fract_y
_atom_site_fract_z
Fe1 Fe -0.1227(1) 0.3774(1) 0.1574(2)
P1 P 0.1001(2) 0.5995(2) 0.1961(3)
O1 O 0.0010(6) 0.5012(6) 0.2432(9)
O2 O 0.0620(13) 0.6529(13) 0.0437(13)
O4 O 0.0577(17) 0.7349(13) 0.2050(20)
O6 O 0.2068(15) 0.5800(30) 0.3145(18)
P1D P -0.1001(2) 0.4005(2) -0.1961(3)
O1D O -0.0010(6) 0.4988(6) -0.2432(9)
O2D O -0.0620(13) 0.3471(13) -0.0437(13)
O4D O -0.0577(17) 0.2651(13) -0.2050(20)
O6D O -0.2068(15) 0.4200(30) -0.3145(18)
Fe1D Fe 0.1227(1) 0.6226(1) -0.1574(2)
O4C O -0.0577(17) 0.2349(13) 0.2950(20)
O6B O -0.2932(15) 0.4200(30) 0.1855(18)
Fe1C Fe 0.1227(1) 0.8774(1) 0.3426(2)
Fe1B Fe 0.3773(1) 0.6226(1) 0.3426(2)
Fe1G Fe -0.1227(1) 0.1226(1) -0.3426(2)
Fe1F Fe -0.3773(1) 0.3774(1) -0.3426(2)
O4G O 0.0577(17) 0.7651(13) -0.2950(20)
O6F O 0.2932(15) 0.5800(30) -0.1855(18)
N1 N 0.1215(6) 0.3791(6) 0.5004(9)
C2 C 0.2190(16) 0.2804(17) 0.5650(20)
C2A C 0.2810(16) 0.2196(17) 0.5650(20)
N1A N 0.3785(6) 0.1209(6) 0.5004(9)
loop_
_geom_bond_atom_site_label_1
_geom_bond_atom_site_label_2
_geom_bond_site_symmetry_1
_geom_bond_site_symmetry_2
Fe1 O1 1_555 1_555
P1 O1 1_555 1_555
O2 P1 1_555 1_555
O4 P1 1_555 1_555
O6 P1 1_555 1_555
N1 C2 1_555 1_555
C2 C2A 1_555 1_555
C2A N1A 1_555 1_555
P1D O1D 1_555 1_555
O1D Fe1D 1_555 1_555
O2D Fe1 1_555 1_555
O4D P1D 1_555 1_555
O6D P1D 1_555 1_555
Fe1D O2 1_555 1_555
O4C Fe1 1_555 1_555
O6B Fe1 1_555 1_555
Fe1C O4 1_555 1_555
Fe1B O6 1_555 1_555
Fe1G O4D 1_555 1_555
Fe1F O6D 1_555 1_555
O4G Fe1D 1_555 1_555
O6F Fe1D 1_555 1_555
P1D O2D 1_555 1_555

#END
