
#######################################################################
#
#                 Cambridge Crystallographic Data Centre
#                                CCDC 
#
#######################################################################
#
# If this CIF has been generated from an entry in the Cambridge 
# Structural Database, then it will include bibliographic, chemical, 
# crystal, experimental, refinement or atomic coordinate data resulting 
# from the CCDC's data processing and validation procedures.
#
#######################################################################

data_RAYSAM
_chemical_formula_moiety         '(C57 H32 La2 N2 O15)n'
_symmetry_cell_setting           hexagonal
_symmetry_space_group_name_H-M   'P 65 2 2'
_symmetry_Int_Tables_number      179
_space_group_name_Hall           'P 65 2 (0 0 1)'
loop_
_symmetry_equiv_pos_site_id
_symmetry_equiv_pos_as_xyz
1 x,y,z
2 -y,x-y,2/3+z
3 -x+y,-x,1/3+z
4 -x,-y,1/2+z
5 y,-x+y,1/6+z
6 x-y,x,5/6+z
7 y,x,2/3-z
8 x-y,-y,-z
9 -x,-x+y,1/3-z
10 -y,-x,1/6-z
11 -x+y,y,1/2-z
12 x,x-y,5/6-z
_cell_length_a                   15.482(3)
_cell_length_b                   15.482(3)
_cell_length_c                   40.320(15)
_cell_angle_alpha                90
_cell_angle_beta                 90
_cell_angle_gamma                120
_cell_volume                     8369.61
loop_
_atom_site_label
_atom_site_type_symbol
_atom_site_fract_x
_atom_site_fract_y
_atom_site_fract_z
La1 La -0.13711(6) 0.13711(6) 0.0833
La2 La 0.0000 0.30087(11) 0.1667
O1 O 0.0334(10) 0.1595(12) 0.0766(3)
O2 O -0.0027(8) 0.1650(7) 0.1287(2)
O3 O -0.2494(13) 0.0522(18) 0.1291(4)
O4 O -0.1715(16) 0.1712(15) 0.1674(6)
O5 O -0.6071(11) -0.214(2) 0.2500
C1 C 0.0489(11) 0.1502(15) 0.1052(5)
C2 C 0.1206(7) 0.1217(8) 0.1178(3)
C3 C 0.1276(7) 0.1002(8) 0.1508(3)
H1 H 0.0900 0.1095 0.1668
C4 C 0.1910(8) 0.0648(8) 0.1598(2)
H2 H 0.1956 0.0504 0.1819
C5 C 0.2473(8) 0.0508(9) 0.1358(3)
C6 C 0.2403(9) 0.0723(11) 0.1028(3)
H3 H 0.2780 0.0630 0.0867
C7 C 0.1770(10) 0.1078(10) 0.0937(2)
H4 H 0.1723 0.1221 0.0716
O6 O 0.2889(18) -0.035(2) 0.1773(5)
C8 C 0.3087(10) 0.0062(11) 0.1500(4)
C9 C 0.3962(16) 0.012(2) 0.1300(5)
C10 C 0.4893(19) 0.0929(16) 0.1224(6)
H5 H 0.5084 0.1555 0.1312
C11 C 0.5540(14) 0.0802(18) 0.1018(6)
H6 H 0.6164 0.1342 0.0968
C12 C 0.5256(19) -0.013(2) 0.0887(6)
C13 C 0.432(2) -0.0941(16) 0.0962(7)
H7 H 0.4134 -0.1567 0.0875
C14 C 0.3677(13) -0.0814(18) 0.1168(6)
H8 H 0.3054 -0.1354 0.1219
C15 C 0.6034(17) -0.0193(19) 0.0668(4)
O7 O 0.5716(16) -0.1033(17) 0.0554(5)
O8 O 0.686(2) 0.0548(19) 0.0626(11)
C16 C -0.244(2) 0.088(2) 0.1569(7)
C17 C -0.3236(9) 0.0325(11) 0.1829(3)
C18 C -0.3157(8) 0.0717(8) 0.2145(3)
H9 H -0.2591 0.1311 0.2204
C19 C -0.3924(11) 0.0220(11) 0.2373(3)
H10 H -0.3871 0.0483 0.2584
C20 C -0.4770(10) -0.0668(11) 0.2285(4)
C21 C -0.4849(10) -0.1060(9) 0.1969(5)
H11 H -0.5415 -0.1655 0.1910
C22 C -0.4082(12) -0.0564(12) 0.1741(3)
H12 H -0.4135 -0.0826 0.1530
C23 C -0.5612(11) -0.122(2) 0.2500
N1 N 0.0946(15) 0.4992(8) 0.1701(4)
C24 C 0.1982(15) 0.5482(14) 0.1711(4)
H13 H 0.2310 0.5117 0.1714
C25 C 0.2528(11) 0.6518(14) 0.1717(4)
H14 H 0.3221 0.6846 0.1723
C26 C 0.2038(16) 0.7064(8) 0.1713(4)
H15 H 0.2403 0.7758 0.1717
C27 C 0.1002(16) 0.6574(13) 0.1703(3)
C28 C 0.0456(11) 0.5538(14) 0.1697(4)
C29 C 0.0464(17) 0.7080(17) 0.1698(6)
H16 H 0.0789 0.7761 0.1741
La1J La -0.72578(8) 0.13711(6) 0.4167
La1_2 La 0.86289(6) 0.13711(6) 0.0833
La1_3 La -0.13711(6) -0.86289(6) 0.0833
La2I La -0.30087(11) 0.0000 -0.0000
La2E La 0.69913(11) -0.0000 0.0000
La2D La -0.69913(11) 0.30087(11) 0.3334
La2_2 La 0.0000 -0.69913(11) 0.1667
O1I O -0.1595(12) -0.0334(10) 0.0901(3)
O2I O -0.1650(7) 0.0027(8) 0.0380(2)
O2H O 0.0027(8) 0.1677(11) 0.2046(2)
O3J O -0.6984(22) 0.0522(18) 0.3709(4)
O3I O -0.0522(18) 0.2494(13) 0.0376(4)
O4J O -0.6573(22) 0.1712(15) 0.3326(6)
O4H O 0.1715(16) 0.3427(22) 0.1659(6)
C1I C -0.1502(15) -0.0489(11) 0.0615(5)
C2I C -0.1217(8) -0.1206(7) 0.0489(3)
C3I C -0.1002(8) -0.1276(7) 0.0159(3)
H1I H -0.1095 -0.0900 -0.0001
C4I C -0.0648(8) -0.1910(8) 0.0069(2)
H2I H -0.0504 -0.1956 -0.0152
C5I C -0.0508(9) -0.2473(8) 0.0309(3)
C6I C -0.0723(11) -0.2403(9) 0.0639(3)
H3I H -0.0630 -0.2780 0.0800
C7I C -0.1078(10) -0.1770(10) 0.0730(2)
H4I H -0.1221 -0.1723 0.0951
O6I O 0.035(2) -0.2889(18) -0.0106(5)
C8I C -0.0062(11) -0.3087(10) 0.0167(4)
C9I C -0.012(2) -0.3962(16) 0.0367(5)
C10I C -0.0929(16) -0.4893(19) 0.0443(6)
H5I H -0.1555 -0.5084 0.0355
C11I C -0.0802(18) -0.5540(14) 0.0649(6)
H6I H -0.1342 -0.6164 0.0699
C12I C 0.013(2) -0.5256(19) 0.0780(6)
C13I C 0.0941(16) -0.432(2) 0.0705(7)
H7I H 0.1567 -0.4134 0.0792
C14I C 0.0814(18) -0.3677(13) 0.0499(6)
H8I H 0.1354 -0.3054 0.0448
C15I C 0.0193(19) -0.6034(17) 0.0999(4)
O7I O 0.1033(17) -0.5716(16) 0.1113(5)
O7D O -0.1033(17) 0.3251(23) 0.2221(5)
O7I_2 O 0.1033(17) 0.4284(16) 0.1113(5)
O8I O -0.0548(19) -0.686(2) 0.1041(11)
O8_2 O -0.314(2) 0.0548(19) 0.0626(11)
O8I_2 O -0.0548(19) 0.314(2) 0.1041(11)
O8D O 0.0548(19) 0.3688(28) 0.2293(11)
C16J C -0.668(3) 0.088(2) 0.3431(7)
C17J C -0.6439(14) 0.0325(11) 0.3171(3)
C18J C -0.6126(11) 0.0717(8) 0.2855(3)
H9J H -0.6098 0.1311 0.2796
C19J C -0.5856(16) 0.0220(11) 0.2627(3)
H10J H -0.5646 0.0483 0.2416
C20J C -0.5898(15) -0.0668(11) 0.2715(4)
C21J C -0.6211(13) -0.1060(9) 0.3031(5)
H11J H -0.6240 -0.1655 0.3090
C22J C -0.6482(17) -0.0564(12) 0.3259(3)
H12J H -0.6691 -0.0826 0.3470
N1H N -0.0946(15) 0.4046(17) 0.1632(4)
C24H C -0.1982(15) 0.3500(21) 0.1622(4)
H13H H -0.2310 0.2807 0.1619
C25H C -0.2528(11) 0.3990(18) 0.1616(4)
H14H H -0.3221 0.3625 0.1610
C26H C -0.2038(16) 0.5026(18) 0.1620(4)
H15H H -0.2403 0.5355 0.1616
C27H C -0.1002(16) 0.5572(21) 0.1630(3)
C28H C -0.0456(11) 0.5082(18) 0.1636(4)
C29H C -0.0464(17) 0.6616(24) 0.1635(6)
H16H H -0.0789 0.6972 0.1592
loop_
_geom_bond_atom_site_label_1
_geom_bond_atom_site_label_2
_geom_bond_site_symmetry_1
_geom_bond_site_symmetry_2
La1 O1 1_555 1_555
La2 O2 1_555 1_555
O1 C1 1_555 1_555
O2 La1 1_555 1_555
O3 La1 1_555 1_555
O4 La2 1_555 1_555
O5 C23 1_555 1_555
C1 O2 1_555 1_555
C2 C1 1_555 1_555
C3 C2 1_555 1_555
H1 C3 1_555 1_555
C4 C3 1_555 1_555
H2 C4 1_555 1_555
C5 C4 1_555 1_555
C6 C5 1_555 1_555
H3 C6 1_555 1_555
C7 C2 1_555 1_555
H4 C7 1_555 1_555
O6 C8 1_555 1_555
C8 C5 1_555 1_555
C9 C8 1_555 1_555
C10 C9 1_555 1_555
H5 C10 1_555 1_555
C11 C10 1_555 1_555
H6 C11 1_555 1_555
C12 C11 1_555 1_555
C13 C12 1_555 1_555
H7 C13 1_555 1_555
C14 C9 1_555 1_555
H8 C14 1_555 1_555
C15 C12 1_555 1_555
O7 C15 1_555 1_555
O8 C15 1_555 1_555
C16 O3 1_555 1_555
C17 C16 1_555 1_555
C18 C17 1_555 1_555
H9 C18 1_555 1_555
C19 C18 1_555 1_555
H10 C19 1_555 1_555
C20 C19 1_555 1_555
C21 C20 1_555 1_555
H11 C21 1_555 1_555
C22 C17 1_555 1_555
H12 C22 1_555 1_555
C23 C20 1_555 1_555
N1 La2 1_555 1_555
C24 N1 1_555 1_555
H13 C24 1_555 1_555
C25 C24 1_555 1_555
H14 C25 1_555 1_555
C26 C25 1_555 1_555
H15 C26 1_555 1_555
C27 C26 1_555 1_555
C28 N1 1_555 1_555
C29 C27 1_555 1_555
H16 C29 1_555 1_555
La1J O3J 1_555 1_555
La1_2 O8 1_555 1_555
La1_3 O8I 1_555 1_555
La2I O2I 1_555 1_555
La2E O7 1_555 1_555
La2D O4J 1_555 1_555
La2_2 O7I 1_555 1_555
O1I La1 1_555 1_555
O2I La1 1_555 1_555
O2H La2 1_555 1_555
O3J C16J 1_555 1_555
O3I La1 1_555 1_555
O4J C16J 1_555 1_555
O4H La2 1_555 1_555
C1I O1I 1_555 1_555
C2I C1I 1_555 1_555
C3I C2I 1_555 1_555
H1I C3I 1_555 1_555
C4I C3I 1_555 1_555
H2I C4I 1_555 1_555
C5I C4I 1_555 1_555
C6I C5I 1_555 1_555
H3I C6I 1_555 1_555
C7I C2I 1_555 1_555
H4I C7I 1_555 1_555
O6I C8I 1_555 1_555
C8I C5I 1_555 1_555
C9I C8I 1_555 1_555
C10I C9I 1_555 1_555
H5I C10I 1_555 1_555
C11I C10I 1_555 1_555
H6I C11I 1_555 1_555
C12I C11I 1_555 1_555
C13I C12I 1_555 1_555
H7I C13I 1_555 1_555
C14I C9I 1_555 1_555
H8I C14I 1_555 1_555
C15I C12I 1_555 1_555
O7I C15I 1_555 1_555
O7D La2 1_555 1_555
O7I_2 La2 1_555 1_555
O8I La2_2 1_555 1_555
O8_2 La1 1_555 1_555
O8I_2 La1 1_555 1_555
O8D La2 1_555 1_555
C16J C17J 1_555 1_555
C17J C18J 1_555 1_555
C18J H9J 1_555 1_555
C19J C18J 1_555 1_555
H10J C19J 1_555 1_555
C20J C23 1_555 1_555
C21J C20J 1_555 1_555
H11J C21J 1_555 1_555
C22J C17J 1_555 1_555
H12J C22J 1_555 1_555
N1H La2 1_555 1_555
C24H N1H 1_555 1_555
H13H C24H 1_555 1_555
C25H C24H 1_555 1_555
H14H C25H 1_555 1_555
C26H C25H 1_555 1_555
H15H C26H 1_555 1_555
C27H C26H 1_555 1_555
C28H C28 1_555 1_555
C29H C29 1_555 1_555
H16H C29H 1_555 1_555
La2 O8I_2 1_555 1_555
O4 C16 1_555 1_555
C6 C7 1_555 1_555
C13 C14 1_555 1_555
O8 La2E 1_555 1_555
C21 C22 1_555 1_555
C27 C28 1_555 1_555
La2I O8_2 1_555 1_555
O2I C1I 1_555 1_555
C6I C7I 1_555 1_555
C13I C14I 1_555 1_555
C15I O8I 1_555 1_555
C19J C20J 1_555 1_555
C21J C22J 1_555 1_555
N1H C28H 1_555 1_555
C27H C28H 1_555 1_555
C27H C29H 1_555 1_555

#END
