
#######################################################################
#
#                 Cambridge Crystallographic Data Centre
#                                CCDC 
#
#######################################################################
#
# If this CIF has been generated from an entry in the Cambridge 
# Structural Database, then it will include bibliographic, chemical, 
# crystal, experimental, refinement or atomic coordinate data resulting 
# from the CCDC's data processing and validation procedures.
#
#######################################################################

data_RAYSIU
_chemical_formula_moiety         '(C57 H32 N2 O15 Tb2)n'
_symmetry_cell_setting           hexagonal
_symmetry_space_group_name_H-M   'P 65 2 2'
_symmetry_Int_Tables_number      179
_space_group_name_Hall           'P 65 2 (0 0 1)'
loop_
_symmetry_equiv_pos_site_id
_symmetry_equiv_pos_as_xyz
1 x,y,z
2 -y,x-y,2/3+z
3 -x+y,-x,1/3+z
4 -x,-y,1/2+z
5 y,-x+y,1/6+z
6 x-y,x,5/6+z
7 y,x,2/3-z
8 x-y,-y,-z
9 -x,-x+y,1/3-z
10 -y,-x,1/6-z
11 -x+y,y,1/2-z
12 x,x-y,5/6-z
_cell_length_a                   15.4007(19)
_cell_length_b                   15.4007(19)
_cell_length_c                   39.484(10)
_cell_angle_alpha                90
_cell_angle_beta                 90
_cell_angle_gamma                120
_cell_volume                     8110.22
loop_
_atom_site_label
_atom_site_type_symbol
_atom_site_fract_x
_atom_site_fract_y
_atom_site_fract_z
Tb1 Tb -0.13489(3) 0.13489(3) 0.0833
Tb2 Tb 0.0000 0.29384(5) 0.1667
O1 O 0.0303(6) 0.1564(6) 0.07613(19)
O2 O -0.0093(5) 0.1608(5) 0.12862(17)
O3 O -0.2401(6) 0.0681(7) 0.1300(2)
O4 O -0.1596(6) 0.1727(6) 0.1725(2)
O5 O -0.6129(6) -0.2258(11) 0.2500
C1 C 0.0446(8) 0.1488(8) 0.1062(3)
C2 C 0.1192(5) 0.1212(6) 0.11691(18)
C3 C 0.1284(5) 0.1008(6) 0.15059(16)
H1 H 0.0904 0.1093 0.1672
C4 C 0.1942(6) 0.0675(7) 0.15947(17)
H2 H 0.2003 0.0538 0.1820
C5 C 0.2509(6) 0.0547(8) 0.1347(2)
C6 C 0.2417(7) 0.0752(8) 0.1010(2)
H3 H 0.2797 0.0666 0.0844
C7 C 0.1759(7) 0.1084(7) 0.09211(15)
H4 H 0.1698 0.1221 0.0696
O6 O 0.3007(14) -0.0292(17) 0.1754(4)
C8 C 0.3182(8) 0.0153(9) 0.1482(3)
C9 C 0.4094(11) 0.0316(15) 0.1273(4)
C10 C 0.5026(14) 0.1159(12) 0.1216(5)
H5 H 0.5180 0.1770 0.1313
C11 C 0.5728(10) 0.1088(13) 0.1014(5)
H6 H 0.6352 0.1652 0.0977
C12 C 0.5498(13) 0.0175(16) 0.0870(5)
C13 C 0.4565(16) -0.0667(12) 0.0926(6)
H7 H 0.4411 -0.1278 0.0829
C14 C 0.3863(11) -0.0597(12) 0.1128(6)
H8 H 0.3240 -0.1160 0.1166
C15 C 0.6213(11) 0.0026(13) 0.0643(3)
O7 O 0.5898(13) -0.0805(12) 0.0519(5)
O8 O 0.7040(13) 0.0766(13) 0.0607(6)
C16 C -0.2344(8) 0.0970(9) 0.1595(4)
C17 C -0.3187(5) 0.0328(5) 0.18382(18)
C18 C -0.3154(5) 0.0661(5) 0.2168(2)
H9 H -0.2594 0.1246 0.2243
C19 C -0.3958(6) 0.0121(6) 0.23853(16)
H10 H -0.3935 0.0344 0.2606
C20 C -0.4794(5) -0.0752(6) 0.2273(2)
C21 C -0.4828(5) -0.1085(5) 0.1944(2)
H11 H -0.5388 -0.1670 0.1869
C22 C -0.4024(6) -0.0545(6) 0.17263(17)
H12 H -0.4047 -0.0768 0.1506
C23 C -0.5670(6) -0.1340(12) 0.2500
N1 N 0.0988(8) 0.4933(5) 0.1695(3)
C24 C 0.2029(8) 0.5440(9) 0.1711(3)
H13 H 0.2368 0.5082 0.1717
C25 C 0.2564(6) 0.6482(9) 0.1719(4)
H14 H 0.3260 0.6820 0.1729
C26 C 0.2057(9) 0.7017(5) 0.1710(3)
H15 H 0.2415 0.7714 0.1715
C27 C 0.1016(9) 0.6510(8) 0.1694(3)
C28 C 0.0482(6) 0.5468(8) 0.1686(4)
C29 C 0.0495(12) 0.7033(12) 0.1685(5)
H16 H 0.0839 0.7728 0.1706
Tb1J Tb -0.73022(4) 0.13489(3) 0.4167
Tb1_2 Tb 0.86511(3) 0.13489(3) 0.0833
Tb1_3 Tb -0.13489(3) -0.86511(3) 0.0833
Tb2I Tb -0.29384(5) 0.0000 -0.0000
Tb2E Tb 0.70616(5) -0.0000 0.0000
Tb2D Tb -0.70616(5) 0.29384(5) 0.3334
Tb2_2 Tb 0.0000 -0.70616(5) 0.1667
O1I O -0.1564(6) -0.0303(6) 0.09054(19)
O2I O -0.1608(5) 0.0093(5) 0.03805(17)
O2H O 0.0093(5) 0.1701(7) 0.20471(17)
O3J O -0.6918(9) 0.0681(7) 0.3700(2)
O3I O -0.0681(7) 0.2401(6) 0.0367(2)
O4J O -0.6677(8) 0.1727(6) 0.3275(2)
O4H O 0.1596(6) 0.3323(8) 0.1608(2)
C1I C -0.1488(8) -0.0446(8) 0.0605(3)
C2I C -0.1212(6) -0.1192(5) 0.04976(18)
C3I C -0.1008(6) -0.1284(5) 0.01608(16)
H1I H -0.1093 -0.0904 -0.0005
C4I C -0.0675(7) -0.1942(6) 0.00720(17)
H2I H -0.0538 -0.2003 -0.0153
C5I C -0.0547(8) -0.2509(6) 0.0320(2)
C6I C -0.0752(8) -0.2417(7) 0.0657(2)
H3I H -0.0666 -0.2797 0.0823
C7I C -0.1084(7) -0.1759(7) 0.07456(15)
H4I H -0.1221 -0.1698 0.0971
O6I O 0.0292(17) -0.3007(14) -0.0087(4)
C8I C -0.0153(9) -0.3182(8) 0.0185(3)
C9I C -0.0316(15) -0.4094(11) 0.0394(4)
C10I C -0.1159(12) -0.5026(14) 0.0451(5)
H5I H -0.1770 -0.5180 0.0354
C11I C -0.1088(13) -0.5728(10) 0.0653(5)
H6I H -0.1652 -0.6352 0.0690
C12I C -0.0175(16) -0.5498(13) 0.0797(5)
C13I C 0.0667(12) -0.4565(16) 0.0741(6)
H7I H 0.1278 -0.4411 0.0838
C14I C 0.0597(12) -0.3863(11) 0.0539(6)
H8I H 0.1160 -0.3240 0.0501
C15I C -0.0026(13) -0.6213(11) 0.1024(3)
O7I O 0.0805(12) -0.5898(13) 0.1148(5)
O7D O -0.0805(12) 0.3297(18) 0.2186(5)
O7I_2 O 0.0805(12) 0.4102(13) 0.1148(5)
O8I O -0.0766(13) -0.7040(13) 0.1060(6)
O8_2 O -0.2960(13) 0.0766(13) 0.0607(6)
O8I_2 O -0.0766(13) 0.2960(13) 0.1060(6)
O8D O 0.0766(13) 0.3726(18) 0.2274(6)
C16J C -0.6686(12) 0.0970(9) 0.3405(4)
C17J C -0.6485(7) 0.0328(5) 0.31618(18)
C18J C -0.6185(7) 0.0661(5) 0.2832(2)
H9J H -0.6160 0.1246 0.2757
C19J C -0.5921(8) 0.0121(6) 0.26147(16)
H10J H -0.5721 0.0344 0.2394
C20J C -0.5958(8) -0.0752(6) 0.2727(2)
C21J C -0.6257(7) -0.1085(5) 0.3056(2)
H11J H -0.6282 -0.1670 0.3131
C22J C -0.6521(8) -0.0545(6) 0.32737(17)
H12J H -0.6721 -0.0768 0.3494
N1H N -0.0988(8) 0.3945(9) 0.1638(3)
C24H C -0.2029(8) 0.3411(12) 0.1622(3)
H13H H -0.2368 0.2714 0.1616
C25H C -0.2564(6) 0.3918(11) 0.1614(4)
H14H H -0.3260 0.3560 0.1604
C26H C -0.2057(9) 0.4960(10) 0.1623(3)
H15H H -0.2415 0.5299 0.1618
C27H C -0.1016(9) 0.5494(12) 0.1639(3)
C28H C -0.0482(6) 0.4986(10) 0.1647(4)
C29H C -0.0495(12) 0.6538(17) 0.1648(5)
H16H H -0.0839 0.6889 0.1627
loop_
_geom_bond_atom_site_label_1
_geom_bond_atom_site_label_2
_geom_bond_site_symmetry_1
_geom_bond_site_symmetry_2
Tb1 O1 1_555 1_555
Tb2 O2 1_555 1_555
O1 C1 1_555 1_555
O2 Tb1 1_555 1_555
O3 Tb1 1_555 1_555
O4 Tb2 1_555 1_555
O5 C23 1_555 1_555
C1 O2 1_555 1_555
C2 C1 1_555 1_555
C3 C2 1_555 1_555
H1 C3 1_555 1_555
C4 C3 1_555 1_555
H2 C4 1_555 1_555
C5 C4 1_555 1_555
C6 C5 1_555 1_555
H3 C6 1_555 1_555
C7 C2 1_555 1_555
H4 C7 1_555 1_555
O6 C8 1_555 1_555
C8 C5 1_555 1_555
C9 C8 1_555 1_555
C10 C9 1_555 1_555
H5 C10 1_555 1_555
C11 C10 1_555 1_555
H6 C11 1_555 1_555
C12 C11 1_555 1_555
C13 C12 1_555 1_555
H7 C13 1_555 1_555
C14 C9 1_555 1_555
H8 C14 1_555 1_555
C15 C12 1_555 1_555
O7 C15 1_555 1_555
O8 C15 1_555 1_555
C16 O3 1_555 1_555
C17 C16 1_555 1_555
C18 C17 1_555 1_555
H9 C18 1_555 1_555
C19 C18 1_555 1_555
H10 C19 1_555 1_555
C20 C19 1_555 1_555
C21 C20 1_555 1_555
H11 C21 1_555 1_555
C22 C17 1_555 1_555
H12 C22 1_555 1_555
C23 C20 1_555 1_555
N1 Tb2 1_555 1_555
C24 N1 1_555 1_555
H13 C24 1_555 1_555
C25 C24 1_555 1_555
H14 C25 1_555 1_555
C26 C25 1_555 1_555
H15 C26 1_555 1_555
C27 C26 1_555 1_555
C28 N1 1_555 1_555
C29 C27 1_555 1_555
H16 C29 1_555 1_555
Tb1J O3J 1_555 1_555
Tb1_2 O8 1_555 1_555
Tb1_3 O8I 1_555 1_555
Tb2I O2I 1_555 1_555
Tb2E O7 1_555 1_555
Tb2D O4J 1_555 1_555
Tb2_2 O7I 1_555 1_555
O1I Tb1 1_555 1_555
O2I Tb1 1_555 1_555
O2H Tb2 1_555 1_555
O3J C16J 1_555 1_555
O3I Tb1 1_555 1_555
O4J C16J 1_555 1_555
O4H Tb2 1_555 1_555
C1I O1I 1_555 1_555
C2I C1I 1_555 1_555
C3I C2I 1_555 1_555
H1I C3I 1_555 1_555
C4I C3I 1_555 1_555
H2I C4I 1_555 1_555
C5I C4I 1_555 1_555
C6I C5I 1_555 1_555
H3I C6I 1_555 1_555
C7I C2I 1_555 1_555
H4I C7I 1_555 1_555
O6I C8I 1_555 1_555
C8I C5I 1_555 1_555
C9I C8I 1_555 1_555
C10I C9I 1_555 1_555
H5I C10I 1_555 1_555
C11I C10I 1_555 1_555
H6I C11I 1_555 1_555
C12I C11I 1_555 1_555
C13I C12I 1_555 1_555
H7I C13I 1_555 1_555
C14I C9I 1_555 1_555
H8I C14I 1_555 1_555
C15I C12I 1_555 1_555
O7I C15I 1_555 1_555
O7D Tb2 1_555 1_555
O7I_2 Tb2 1_555 1_555
O8I Tb2_2 1_555 1_555
O8_2 Tb1 1_555 1_555
O8I_2 Tb1 1_555 1_555
O8D Tb2 1_555 1_555
C16J C17J 1_555 1_555
C17J C18J 1_555 1_555
C18J H9J 1_555 1_555
C19J C18J 1_555 1_555
H10J C19J 1_555 1_555
C20J C23 1_555 1_555
C21J C20J 1_555 1_555
H11J C21J 1_555 1_555
C22J C17J 1_555 1_555
H12J C22J 1_555 1_555
N1H Tb2 1_555 1_555
C24H N1H 1_555 1_555
H13H C24H 1_555 1_555
C25H C24H 1_555 1_555
H14H C25H 1_555 1_555
C26H C25H 1_555 1_555
H15H C26H 1_555 1_555
C27H C26H 1_555 1_555
C28H C28 1_555 1_555
C29H C29 1_555 1_555
H16H C29H 1_555 1_555
Tb2 O8I_2 1_555 1_555
O4 C16 1_555 1_555
C6 C7 1_555 1_555
C13 C14 1_555 1_555
O8 Tb2E 1_555 1_555
C21 C22 1_555 1_555
C27 C28 1_555 1_555
Tb2I O8_2 1_555 1_555
O2I C1I 1_555 1_555
C6I C7I 1_555 1_555
C13I C14I 1_555 1_555
C15I O8I 1_555 1_555
C19J C20J 1_555 1_555
C21J C22J 1_555 1_555
N1H C28H 1_555 1_555
C27H C28H 1_555 1_555
C27H C29H 1_555 1_555

#END
