
#######################################################################
#
#                 Cambridge Crystallographic Data Centre
#                                CCDC 
#
#######################################################################
#
# If this CIF has been generated from an entry in the Cambridge 
# Structural Database, then it will include bibliographic, chemical, 
# crystal, experimental, refinement or atomic coordinate data resulting 
# from the CCDC's data processing and validation procedures.
#
#######################################################################

data_RAYSEQ
_chemical_formula_moiety         '(C57 H32 N2 O15 Pr2)n'
_symmetry_cell_setting           hexagonal
_symmetry_space_group_name_H-M   'P 65 2 2'
_symmetry_Int_Tables_number      179
_space_group_name_Hall           'P 65 2 (0 0 1)'
loop_
_symmetry_equiv_pos_site_id
_symmetry_equiv_pos_as_xyz
1 x,y,z
2 -y,x-y,2/3+z
3 -x+y,-x,1/3+z
4 -x,-y,1/2+z
5 y,-x+y,1/6+z
6 x-y,x,5/6+z
7 y,x,2/3-z
8 x-y,-y,-z
9 -x,-x+y,1/3-z
10 -y,-x,1/6-z
11 -x+y,y,1/2-z
12 x,x-y,5/6-z
_cell_length_a                   15.469(2)
_cell_length_b                   15.469(2)
_cell_length_c                   40.115(11)
_cell_angle_alpha                90
_cell_angle_beta                 90
_cell_angle_gamma                120
_cell_volume                     8313.08
loop_
_atom_site_label
_atom_site_type_symbol
_atom_site_fract_x
_atom_site_fract_y
_atom_site_fract_z
Pr1 Pr -0.13620(4) 0.13620(4) 0.0833
Pr2 Pr -0.0000 0.29969(7) 0.1667
O1 O 0.0338(6) 0.1567(8) 0.07728(18)
O2 O -0.0046(6) 0.1639(6) 0.12870(16)
O3 O -0.2450(6) 0.0626(8) 0.1303(2)
O4 O -0.1671(7) 0.1715(8) 0.1693(3)
O5 O -0.6088(7) -0.2176(13) 0.2500
C1 C 0.0471(9) 0.1499(10) 0.1070(3)
C2 C 0.1204(6) 0.1207(7) 0.11757(18)
C3 C 0.1287(6) 0.1015(7) 0.15091(17)
H1 H 0.0907 0.1107 0.1670
C4 C 0.1939(7) 0.0686(8) 0.16026(19)
H2 H 0.1995 0.0557 0.1826
C5 C 0.2508(7) 0.0548(8) 0.1363(3)
C6 C 0.2425(8) 0.0741(9) 0.1029(2)
H3 H 0.2806 0.0649 0.0869
C7 C 0.1773(8) 0.1070(9) 0.09358(16)
H4 H 0.1717 0.1199 0.0713
O6 O 0.2949(15) -0.0280(17) 0.1785(4)
C8 C 0.3147(9) 0.0133(9) 0.1511(3)
C9 C 0.4049(11) 0.0234(15) 0.1315(4)
C10 C 0.4994(13) 0.1040(11) 0.1253(4)
H5 H 0.5192 0.1654 0.1353
C11 C 0.5644(10) 0.0929(12) 0.1041(5)
H6 H 0.6277 0.1469 0.1000
C12 C 0.5349(13) 0.0012(14) 0.0892(4)
C13 C 0.4404(14) -0.0794(11) 0.0954(5)
H7 H 0.4207 -0.1408 0.0854
C14 C 0.3754(10) -0.0684(12) 0.1166(5)
H8 H 0.3121 -0.1223 0.1207
C15 C 0.6058(11) -0.0103(11) 0.0656(3)
O7 O 0.5713(12) -0.0916(11) 0.0516(4)
O8 O 0.6892(14) 0.0627(13) 0.0630(5)
C16 C -0.2414(9) 0.0922(11) 0.1586(4)
C17 C -0.3203(5) 0.0340(6) 0.18340(19)
C18 C -0.3158(5) 0.0683(6) 0.2157(2)
H9 H -0.2598 0.1266 0.2228
C19 C -0.3952(7) 0.0153(7) 0.23748(18)
H10 H -0.3922 0.0383 0.2591
C20 C -0.4790(6) -0.0719(7) 0.2269(2)
C21 C -0.4834(5) -0.1062(6) 0.1946(3)
H11 H -0.5395 -0.1646 0.1875
C22 C -0.4041(6) -0.0533(6) 0.17281(19)
H12 H -0.4070 -0.0762 0.1512
C23 C -0.5629(7) -0.1258(14) 0.2500
N1 N 0.0968(9) 0.5003(6) 0.1707(3)
C24 C 0.2001(9) 0.5498(9) 0.1738(4)
H13 H 0.2332 0.5137 0.1747
C25 C 0.2538(7) 0.6534(9) 0.1757(5)
H14 H 0.3229 0.6866 0.1778
C26 C 0.2042(10) 0.7075(6) 0.1745(4)
H15 H 0.2402 0.7768 0.1757
C27 C 0.1009(10) 0.6580(8) 0.1713(3)
C28 C 0.0472(7) 0.5544(8) 0.1695(4)
C29 C 0.0465(12) 0.7081(12) 0.1699(5)
H16 H 0.0790 0.7766 0.1737
Pr1J Pr -0.72760(6) 0.13620(4) 0.4167
Pr1_2 Pr 0.86380(4) 0.13620(4) 0.0833
Pr1_3 Pr -0.13620(4) -0.86380(4) 0.0833
Pr2I Pr -0.29969(7) 0.0000 -0.0000
Pr2E Pr 0.70031(7) -0.0000 0.0000
Pr2D Pr -0.70031(7) 0.29969(7) 0.3334
Pr2_2 Pr 0.0000 -0.70031(7) 0.1667
O1I O -0.1567(8) -0.0338(6) 0.08939(18)
O2I O -0.1639(6) 0.0046(6) 0.03797(16)
O2H O 0.0046(6) 0.1685(8) 0.20463(16)
O3J O -0.6924(10) 0.0626(8) 0.3697(2)
O3I O -0.0626(8) 0.2450(6) 0.0364(2)
O4J O -0.6614(11) 0.1715(8) 0.3307(3)
O4H O 0.1671(7) 0.3386(11) 0.1640(3)
C1I C -0.1499(10) -0.0471(9) 0.0597(3)
C2I C -0.1207(7) -0.1204(6) 0.04910(18)
C3I C -0.1015(7) -0.1287(6) 0.01576(17)
H1I H -0.1107 -0.0907 -0.0003
C4I C -0.0686(8) -0.1939(7) 0.00641(19)
H2I H -0.0557 -0.1995 -0.0159
C5I C -0.0548(8) -0.2508(7) 0.0304(3)
C6I C -0.0741(9) -0.2425(8) 0.0638(2)
H3I H -0.0649 -0.2806 0.0798
C7I C -0.1070(9) -0.1773(8) 0.07309(16)
H4I H -0.1199 -0.1717 0.0954
O6I O 0.0280(17) -0.2949(15) -0.0118(4)
C8I C -0.0133(9) -0.3147(9) 0.0156(3)
C9I C -0.0234(15) -0.4049(11) 0.0352(4)
C10I C -0.1040(11) -0.4994(13) 0.0414(4)
H5I H -0.1654 -0.5192 0.0314
C11I C -0.0929(12) -0.5644(10) 0.0626(5)
H6I H -0.1469 -0.6277 0.0667
C12I C -0.0012(14) -0.5349(13) 0.0775(4)
C13I C 0.0794(11) -0.4404(14) 0.0713(5)
H7I H 0.1408 -0.4207 0.0813
C14I C 0.0684(12) -0.3754(10) 0.0501(5)
H8I H 0.1223 -0.3121 0.0460
C15I C 0.0103(11) -0.6058(11) 0.1011(3)
O7I O 0.0916(11) -0.5713(12) 0.1151(4)
O7D O -0.0916(11) 0.3371(16) 0.2183(4)
O7I_2 O 0.0916(11) 0.4287(12) 0.1151(4)
O8I O -0.0627(13) -0.6892(14) 0.1037(5)
O8_2 O -0.3108(14) 0.0627(13) 0.0630(5)
O8I_2 O -0.0627(13) 0.3108(14) 0.1037(5)
O8D O 0.0627(13) 0.3735(19) 0.2297(5)
C16J C -0.6664(14) 0.0922(11) 0.3414(4)
C17J C -0.6457(8) 0.0340(6) 0.31660(19)
C18J C -0.6159(8) 0.0683(6) 0.2843(2)
H9J H -0.6136 0.1266 0.2772
C19J C -0.5895(10) 0.0153(7) 0.26252(18)
H10J H -0.5695 0.0383 0.2409
C20J C -0.5929(9) -0.0719(7) 0.2731(2)
C21J C -0.6228(8) -0.1062(6) 0.3054(3)
H11J H -0.6251 -0.1646 0.3125
C22J C -0.6492(8) -0.0533(6) 0.32719(19)
H12J H -0.6692 -0.0762 0.3488
N1H N -0.0968(9) 0.4035(11) 0.1626(3)
C24H C -0.2001(9) 0.3497(13) 0.1595(4)
H13H H -0.2332 0.2805 0.1586
C25H C -0.2538(7) 0.3996(11) 0.1576(5)
H14H H -0.3229 0.3637 0.1555
C26H C -0.2042(10) 0.5033(12) 0.1588(4)
H15H H -0.2402 0.5366 0.1576
C27H C -0.1009(10) 0.5571(13) 0.1620(3)
C28H C -0.0472(7) 0.5072(11) 0.1638(4)
C29H C -0.0465(12) 0.6616(17) 0.1634(5)
H16H H -0.0790 0.6976 0.1596
loop_
_geom_bond_atom_site_label_1
_geom_bond_atom_site_label_2
_geom_bond_site_symmetry_1
_geom_bond_site_symmetry_2
Pr1 O1 1_555 1_555
Pr2 O2 1_555 1_555
O1 C1 1_555 1_555
O2 Pr1 1_555 1_555
O3 Pr1 1_555 1_555
O4 Pr2 1_555 1_555
O5 C23 1_555 1_555
C1 O2 1_555 1_555
C2 C1 1_555 1_555
C3 C2 1_555 1_555
H1 C3 1_555 1_555
C4 C3 1_555 1_555
H2 C4 1_555 1_555
C5 C4 1_555 1_555
C6 C5 1_555 1_555
H3 C6 1_555 1_555
C7 C2 1_555 1_555
H4 C7 1_555 1_555
O6 C8 1_555 1_555
C8 C5 1_555 1_555
C9 C8 1_555 1_555
C10 C9 1_555 1_555
H5 C10 1_555 1_555
C11 C10 1_555 1_555
H6 C11 1_555 1_555
C12 C11 1_555 1_555
C13 C12 1_555 1_555
H7 C13 1_555 1_555
C14 C9 1_555 1_555
H8 C14 1_555 1_555
C15 C12 1_555 1_555
O7 C15 1_555 1_555
O8 C15 1_555 1_555
C16 O3 1_555 1_555
C17 C16 1_555 1_555
C18 C17 1_555 1_555
H9 C18 1_555 1_555
C19 C18 1_555 1_555
H10 C19 1_555 1_555
C20 C19 1_555 1_555
C21 C20 1_555 1_555
H11 C21 1_555 1_555
C22 C17 1_555 1_555
H12 C22 1_555 1_555
C23 C20 1_555 1_555
N1 Pr2 1_555 1_555
C24 N1 1_555 1_555
H13 C24 1_555 1_555
C25 C24 1_555 1_555
H14 C25 1_555 1_555
C26 C25 1_555 1_555
H15 C26 1_555 1_555
C27 C26 1_555 1_555
C28 N1 1_555 1_555
C29 C27 1_555 1_555
H16 C29 1_555 1_555
Pr1J O3J 1_555 1_555
Pr1_2 O8 1_555 1_555
Pr1_3 O8I 1_555 1_555
Pr2I O2I 1_555 1_555
Pr2E O7 1_555 1_555
Pr2D O4J 1_555 1_555
Pr2_2 O7I 1_555 1_555
O1I Pr1 1_555 1_555
O2I Pr1 1_555 1_555
O2H Pr2 1_555 1_555
O3J C16J 1_555 1_555
O3I Pr1 1_555 1_555
O4J C16J 1_555 1_555
O4H Pr2 1_555 1_555
C1I O1I 1_555 1_555
C2I C1I 1_555 1_555
C3I C2I 1_555 1_555
H1I C3I 1_555 1_555
C4I C3I 1_555 1_555
H2I C4I 1_555 1_555
C5I C4I 1_555 1_555
C6I C5I 1_555 1_555
H3I C6I 1_555 1_555
C7I C2I 1_555 1_555
H4I C7I 1_555 1_555
O6I C8I 1_555 1_555
C8I C5I 1_555 1_555
C9I C8I 1_555 1_555
C10I C9I 1_555 1_555
H5I C10I 1_555 1_555
C11I C10I 1_555 1_555
H6I C11I 1_555 1_555
C12I C11I 1_555 1_555
C13I C12I 1_555 1_555
H7I C13I 1_555 1_555
C14I C9I 1_555 1_555
H8I C14I 1_555 1_555
C15I C12I 1_555 1_555
O7I C15I 1_555 1_555
O7D Pr2 1_555 1_555
O7I_2 Pr2 1_555 1_555
O8I Pr2_2 1_555 1_555
O8_2 Pr1 1_555 1_555
O8I_2 Pr1 1_555 1_555
O8D Pr2 1_555 1_555
C16J C17J 1_555 1_555
C17J C18J 1_555 1_555
C18J H9J 1_555 1_555
C19J C18J 1_555 1_555
H10J C19J 1_555 1_555
C20J C23 1_555 1_555
C21J C20J 1_555 1_555
H11J C21J 1_555 1_555
C22J C17J 1_555 1_555
H12J C22J 1_555 1_555
N1H Pr2 1_555 1_555
C24H N1H 1_555 1_555
H13H C24H 1_555 1_555
C25H C24H 1_555 1_555
H14H C25H 1_555 1_555
C26H C25H 1_555 1_555
H15H C26H 1_555 1_555
C27H C26H 1_555 1_555
C28H C28 1_555 1_555
C29H C29 1_555 1_555
H16H C29H 1_555 1_555
Pr2 O8I_2 1_555 1_555
O4 C16 1_555 1_555
C6 C7 1_555 1_555
C13 C14 1_555 1_555
O8 Pr2E 1_555 1_555
C21 C22 1_555 1_555
C27 C28 1_555 1_555
Pr2I O8_2 1_555 1_555
O2I C1I 1_555 1_555
C6I C7I 1_555 1_555
C13I C14I 1_555 1_555
C15I O8I 1_555 1_555
C19J C20J 1_555 1_555
C21J C22J 1_555 1_555
N1H C28H 1_555 1_555
C27H C28H 1_555 1_555
C27H C29H 1_555 1_555

#END
