
#######################################################################
#
#                 Cambridge Crystallographic Data Centre
#                                CCDC 
#
#######################################################################
#
# If this CIF has been generated from an entry in the Cambridge 
# Structural Database, then it will include bibliographic, chemical, 
# crystal, experimental, refinement or atomic coordinate data resulting 
# from the CCDC's data processing and validation procedures.
#
#######################################################################

data_ROKROA
_chemical_formula_moiety         'C64 H64 Cl1 Cu12 N25 O35 1-'
_symmetry_cell_setting           tetragonal
_symmetry_space_group_name_H-M   'I 4/m m m'
_symmetry_Int_Tables_number      139
_space_group_name_Hall           '-I 4 2'
loop_
_symmetry_equiv_pos_site_id
_symmetry_equiv_pos_as_xyz
1 x,y,z
2 -y,x,z
3 -x,-y,z
4 y,-x,z
5 x,-y,-z
6 -x,y,-z
7 y,x,-z
8 -y,-x,-z
9 1/2+x,1/2+y,1/2+z
10 1/2-y,1/2+x,1/2+z
11 1/2-x,1/2-y,1/2+z
12 1/2+y,1/2-x,1/2+z
13 1/2+x,1/2-y,1/2-z
14 1/2-x,1/2+y,1/2-z
15 1/2+y,1/2+x,1/2-z
16 1/2-y,1/2-x,1/2-z
17 -x,-y,-z
18 y,-x,-z
19 x,y,-z
20 -y,x,-z
21 -x,y,z
22 x,-y,z
23 -y,-x,z
24 y,x,z
25 1/2-x,1/2-y,1/2-z
26 1/2+y,1/2-x,1/2-z
27 1/2+x,1/2+y,1/2-z
28 1/2-y,1/2+x,1/2-z
29 1/2-x,1/2+y,1/2+z
30 1/2+x,1/2-y,1/2+z
31 1/2-y,1/2-x,1/2+z
32 1/2+y,1/2+x,1/2+z
_cell_length_a                   13.9590(3)
_cell_length_b                   13.9590(3)
_cell_length_c                   20.0475(10)
_cell_angle_alpha                90
_cell_angle_beta                 90
_cell_angle_gamma                90
_cell_volume                     3906.33
loop_
_atom_site_label
_atom_site_type_symbol
_atom_site_fract_x
_atom_site_fract_y
_atom_site_fract_z
O3 O -0.0000 0.5000 0.0871(14)
O4 O -0.0000 0.4267(4) 0.1729(10)
N2 N 0.0000 0.5000 0.1466(14)
O4B O -0.0000 0.5733(4) 0.1729(10)
Cu1 Cu -0.0000 0.18409(6) 0.0000
Cl1 Cl 0.0000 0.0000 0.0000
N1 N -0.1055(13) 0.1786(11) 0.0685(11)
O1 O -0.0244(4) 0.3509(8) 0.0000
O2 O -0.0888(12) 0.2031(9) 0.0732(10)
C1 C -0.1213(6) 0.2313(6) 0.1206(4)
C2 C -0.1598(6) 0.1598(6) 0.0967(7)
H1 H 0.0275 0.3975 -0.0170
H2 H -0.0360 0.3907 0.0436
H3 H -0.0853 0.2850 0.1316
C3 C -0.1983(3) 0.1983(3) 0.1581(3)
C4 C -0.1565(8) 0.2752(9) 0.1918(6)
C5 C -0.2347(6) 0.2347(6) 0.2169(6)
C6 C -0.1895(4) 0.3105(4) 0.2500
H4 H -0.138(5) 0.343(6) 0.230(4)
O1E O 0.0244(4) 0.3509(8) 0.0000
N1T N 0.1055(13) 0.1786(11) 0.0685(11)
O2T O 0.0888(12) 0.2031(9) 0.0732(10)
N1E N 0.1055(13) 0.1786(11) -0.0685(11)
N1R N -0.1055(13) 0.1786(11) -0.0685(11)
O2E O 0.0888(12) 0.2031(9) -0.0732(10)
O2R O -0.0888(12) 0.2031(9) -0.0732(10)
Cu1A Cu -0.18409(6) 0.0000 0.0000
Cu1B Cu 0.0000 -0.18409(6) 0.0000
Cu1C Cu 0.18409(6) 0.0000 0.0000
N1V N -0.1786(11) 0.1055(13) 0.0685(11)
H1E H -0.0275 0.3975 0.0170
H2E H 0.0360 0.3907 -0.0436
H1R H 0.0275 0.3975 0.0170
H2R H -0.0360 0.3907 -0.0436
H1T H -0.0275 0.3975 -0.0170
H2T H 0.0360 0.3907 0.0436
N1C N 0.1786(11) 0.1055(13) 0.0685(11)
C2C C 0.1598(6) 0.1598(6) 0.0967(7)
C1T C 0.1213(6) 0.2313(6) 0.1206(4)
N1Q N 0.1786(11) 0.1055(13) -0.0685(11)
N1G N -0.1786(11) 0.1055(13) -0.0685(11)
O2V O -0.2031(9) 0.0888(12) 0.0732(10)
N1A N -0.1786(11) -0.1055(13) 0.0685(11)
O1A O -0.3509(8) -0.0244(4) 0.0000
O2A O -0.2031(9) -0.0888(12) 0.0732(10)
O1G O -0.3509(8) 0.0244(4) 0.0000
N1S N -0.1786(11) -0.1055(13) -0.0685(11)
O2G O -0.2031(9) 0.0888(12) -0.0732(10)
O2S O -0.2031(9) -0.0888(12) -0.0732(10)
N1U N -0.1055(13) -0.1786(11) 0.0685(11)
O2U O -0.0888(12) -0.2031(9) 0.0732(10)
N1B N 0.1055(13) -0.1786(11) 0.0685(11)
O1B O 0.0244(4) -0.3509(8) 0.0000
O2B O 0.0888(12) -0.2031(9) 0.0732(10)
O1D O -0.0244(4) -0.3509(8) 0.0000
N1D N -0.1055(13) -0.1786(11) -0.0685(11)
N1P N 0.1055(13) -0.1786(11) -0.0685(11)
O2D O -0.0888(12) -0.2031(9) -0.0732(10)
O2P O 0.0888(12) -0.2031(9) -0.0732(10)
N1W N 0.1786(11) -0.1055(13) 0.0685(11)
O2W O 0.2031(9) -0.0888(12) 0.0732(10)
O1C O 0.3509(8) 0.0244(4) 0.0000
O2C O 0.2031(9) 0.0888(12) 0.0732(10)
O1F O 0.3509(8) -0.0244(4) 0.0000
N1F N 0.1786(11) -0.1055(13) -0.0685(11)
O2F O 0.2031(9) -0.0888(12) -0.0732(10)
O2Q O 0.2031(9) 0.0888(12) -0.0732(10)
C1V C -0.2313(6) 0.1213(6) 0.1206(4)
C1C C 0.2313(6) 0.1213(6) 0.1206(4)
C3C C 0.1983(3) 0.1983(3) 0.1581(3)
H3T H 0.0853 0.2850 0.1316
C4T C 0.1565(8) 0.2752(9) 0.1918(6)
C1A C -0.2313(6) -0.1213(6) 0.1206(4)
C2A C -0.1598(6) -0.1598(6) 0.0967(7)
H1A H -0.3975 0.0275 -0.0170
H2A H -0.3907 -0.0360 0.0436
H1G H -0.3975 -0.0275 0.0170
H2G H -0.3907 0.0360 -0.0436
H1S H -0.3975 0.0275 0.0170
H2S H -0.3907 -0.0360 -0.0436
H1V H -0.3975 -0.0275 -0.0170
H2V H -0.3907 0.0360 0.0436
C1U C -0.1213(6) -0.2313(6) 0.1206(4)
C1B C 0.1213(6) -0.2313(6) 0.1206(4)
C2B C 0.1598(6) -0.1598(6) 0.0967(7)
H1B H -0.0275 -0.3975 -0.0170
H2B H 0.0360 -0.3907 0.0436
H1D H 0.0275 -0.3975 0.0170
H2D H -0.0360 -0.3907 -0.0436
H1P H -0.0275 -0.3975 0.0170
H2P H 0.0360 -0.3907 -0.0436
H1U H 0.0275 -0.3975 -0.0170
H2U H -0.0360 -0.3907 0.0436
C1W C 0.2313(6) -0.1213(6) 0.1206(4)
H1C H 0.3975 -0.0275 -0.0170
H2C H 0.3907 0.0360 0.0436
H1F H 0.3975 0.0275 0.0170
H2F H 0.3907 -0.0360 -0.0436
H1Q H 0.3975 -0.0275 0.0170
H2Q H 0.3907 0.0360 -0.0436
H1W H 0.3975 0.0275 -0.0170
H2W H 0.3907 -0.0360 0.0436
C4V C -0.2752(9) 0.1565(8) 0.1918(6)
H3V H -0.2850 0.0853 0.1316
H3C H 0.2850 0.0853 0.1316
C4C C 0.2752(9) 0.1565(8) 0.1918(6)
C5C C 0.2347(6) 0.2347(6) 0.2169(6)
C6T C 0.1895(4) 0.3105(4) 0.2500
H4T H 0.138(5) 0.343(6) 0.230(4)
H3A H -0.2850 -0.0853 0.1316
C3A C -0.1983(3) -0.1983(3) 0.1581(3)
C4A C -0.2752(9) -0.1565(8) 0.1918(6)
H3U H -0.0853 -0.2850 0.1316
C4U C -0.1565(8) -0.2752(9) 0.1918(6)
H3B H 0.0853 -0.2850 0.1316
C3B C 0.1983(3) -0.1983(3) 0.1581(3)
C4B C 0.1565(8) -0.2752(9) 0.1918(6)
H3W H 0.2850 -0.0853 0.1316
C4W C 0.2752(9) -0.1565(8) 0.1918(6)
C5N C -0.2653(6) 0.2653(6) 0.2831(6)
C6V C -0.3105(4) 0.1895(4) 0.2500
H4V H -0.343(6) 0.138(5) 0.230(4)
H4N H -0.157(6) 0.362(5) 0.270(4)
C4N C -0.2248(9) 0.3435(8) 0.3082(6)
C6C C 0.3105(4) 0.1895(4) 0.2500
H4C H 0.343(6) 0.138(5) 0.230(4)
C5L C 0.2653(6) 0.2653(6) 0.2831(6)
H4AA H 0.157(6) 0.362(5) 0.270(4)
C4AA C 0.2248(9) 0.3435(8) 0.3082(6)
C5A C -0.2347(6) -0.2347(6) 0.2169(6)
C6A C -0.3105(4) -0.1895(4) 0.2500
H4A H -0.343(6) -0.138(5) 0.230(4)
C6U C -0.1895(4) -0.3105(4) 0.2500
H4U H -0.138(5) -0.343(6) 0.230(4)
C5B C 0.2347(6) -0.2347(6) 0.2169(6)
C6B C 0.1895(4) -0.3105(4) 0.2500
H4B H 0.138(5) -0.343(6) 0.230(4)
C6W C 0.3105(4) -0.1895(4) 0.2500
H4W H 0.343(6) -0.138(5) 0.230(4)
C3N C -0.3017(3) 0.3017(3) 0.3419(3)
C4X C -0.3435(8) 0.2248(9) 0.3082(6)
H4X H -0.362(5) 0.157(6) 0.270(4)
C1N C -0.2687(6) 0.3787(6) 0.3794(4)
H4L H 0.362(5) 0.157(6) 0.270(4)
C4L C 0.3435(8) 0.2248(9) 0.3082(6)
C3L C 0.3017(3) 0.3017(3) 0.3419(3)
C1AA C 0.2687(6) 0.3787(6) 0.3794(4)
C5M C -0.2653(6) -0.2653(6) 0.2831(6)
H4M H -0.362(5) -0.157(6) 0.270(4)
C4M C -0.3435(8) -0.2248(9) 0.3082(6)
H4Y H -0.157(6) -0.362(5) 0.270(4)
C4Y C -0.2248(9) -0.3435(8) 0.3082(6)
C5O C 0.2653(6) -0.2653(6) 0.2831(6)
H4O H 0.157(6) -0.362(5) 0.270(4)
C4O C 0.2248(9) -0.3435(8) 0.3082(6)
H4Z H 0.362(5) -0.157(6) 0.270(4)
C4Z C 0.3435(8) -0.2248(9) 0.3082(6)
C2N C -0.3402(6) 0.3402(6) 0.4033(7)
C1X C -0.3787(6) 0.2687(6) 0.3794(4)
N1N N -0.3214(11) 0.3945(13) 0.4315(11)
H3N H -0.2150 0.4147 0.3684
O2N O -0.2969(9) 0.4112(12) 0.4268(10)
C1L C 0.3787(6) 0.2687(6) 0.3794(4)
C2L C 0.3402(6) 0.3402(6) 0.4033(7)
N1AA N 0.3214(11) 0.3945(13) 0.4315(11)
H3AA H 0.2150 0.4147 0.3684
O2AA O 0.2969(9) 0.4112(12) 0.4268(10)
C3M C -0.3017(3) -0.3017(3) 0.3419(3)
C1M C -0.3787(6) -0.2687(6) 0.3794(4)
C1Y C -0.2687(6) -0.3787(6) 0.3794(4)
C3O C 0.3017(3) -0.3017(3) 0.3419(3)
C1O C 0.2687(6) -0.3787(6) 0.3794(4)
C1Z C 0.3787(6) -0.2687(6) 0.3794(4)
N1X N -0.3945(13) 0.3214(11) 0.4315(11)
O2X O -0.4112(12) 0.2969(9) 0.4268(10)
H3X H -0.4147 0.2150 0.3684
Cu1K Cu -0.31591(6) 0.5000 0.5000
N1L N 0.3945(13) 0.3214(11) 0.4315(11)
H3L H 0.4147 0.2150 0.3684
O2L O 0.4112(12) 0.2969(9) 0.4268(10)
Cu1I Cu 0.31591(6) 0.5000 0.5000
C2M C -0.3402(6) -0.3402(6) 0.4033(7)
N1M N -0.3945(13) -0.3214(11) 0.4315(11)
H3M H -0.4147 -0.2150 0.3684
O2M O -0.4112(12) -0.2969(9) 0.4268(10)
N1Y N -0.3214(11) -0.3945(13) 0.4315(11)
H3Y H -0.2150 -0.4147 0.3684
O2Y O -0.2969(9) -0.4112(12) 0.4268(10)
C2O C 0.3402(6) -0.3402(6) 0.4033(7)
N1O N 0.3214(11) -0.3945(13) 0.4315(11)
H3O H 0.2150 -0.4147 0.3684
O2O O 0.2969(9) -0.4112(12) 0.4268(10)
N1Z N 0.3945(13) -0.3214(11) 0.4315(11)
H3Z H 0.4147 -0.2150 0.3684
O2Z O 0.4112(12) -0.2969(9) 0.4268(10)
Cu1J Cu -0.5000 0.31591(6) 0.5000
Cu1J_2 Cu 0.5000 0.31591(6) 0.5000
Cu1H Cu -0.5000 -0.31591(6) 0.5000
Cu1K_2 Cu -0.31591(6) -0.5000 0.5000
Cu1I_2 Cu 0.31591(6) -0.5000 0.5000
Cu1H_2 Cu 0.5000 -0.31591(6) 0.5000
loop_
_geom_bond_atom_site_label_1
_geom_bond_atom_site_label_2
_geom_bond_site_symmetry_1
_geom_bond_site_symmetry_2
Cu1 Cl1 1_555 1_555
Cl1 Cu1A 1_555 1_555
N1 Cu1 1_555 1_555
O1 Cu1 1_555 1_555
O2 Cu1 1_555 1_555
C1 N1 1_555 1_555
C2 N1 1_555 1_555
H1 O1 1_555 1_555
H2 O1 1_555 1_555
H3 C1 1_555 1_555
C3 C1 1_555 1_555
C4 C1 1_555 1_555
C5 C3 1_555 1_555
C6 C4 1_555 1_555
H4 C4 1_555 1_555
O3 N2 1_555 1_555
O4 N2 1_555 1_555
N2 O4B 1_555 1_555
O1E Cu1 1_555 1_555
N1T Cu1 1_555 1_555
O2T Cu1 1_555 1_555
N1E Cu1 1_555 1_555
N1R Cu1 1_555 1_555
O2E Cu1 1_555 1_555
O2R Cu1 1_555 1_555
Cu1A N1V 1_555 1_555
Cu1B Cl1 1_555 1_555
Cu1C Cl1 1_555 1_555
N1V N1 1_555 1_555
H1E O1 1_555 1_555
H2E O1 1_555 1_555
H1R O1 1_555 1_555
H2R O1 1_555 1_555
H1T O1 1_555 1_555
H2T O1 1_555 1_555
N1C N1T 1_555 1_555
C2C N1T 1_555 1_555
C1T N1T 1_555 1_555
N1Q N1E 1_555 1_555
N1G N1R 1_555 1_555
O2V C2 1_555 1_555
N1A Cu1A 1_555 1_555
O1A Cu1A 1_555 1_555
O2A Cu1A 1_555 1_555
O1G Cu1A 1_555 1_555
N1S Cu1A 1_555 1_555
O2G Cu1A 1_555 1_555
O2S Cu1A 1_555 1_555
N1U Cu1B 1_555 1_555
O2U Cu1B 1_555 1_555
N1B Cu1B 1_555 1_555
O1B Cu1B 1_555 1_555
O2B Cu1B 1_555 1_555
O1D Cu1B 1_555 1_555
N1D Cu1B 1_555 1_555
N1P Cu1B 1_555 1_555
O2D Cu1B 1_555 1_555
O2P Cu1B 1_555 1_555
N1W Cu1C 1_555 1_555
O2W Cu1C 1_555 1_555
O1C Cu1C 1_555 1_555
O2C Cu1C 1_555 1_555
O1F Cu1C 1_555 1_555
N1F Cu1C 1_555 1_555
O2F Cu1C 1_555 1_555
O2Q Cu1C 1_555 1_555
C1V C2 1_555 1_555
C1C N1C 1_555 1_555
C3C C2C 1_555 1_555
H3T C1T 1_555 1_555
C4T C1T 1_555 1_555
C1A N1A 1_555 1_555
C2A N1A 1_555 1_555
H1A O1A 1_555 1_555
H2A O1A 1_555 1_555
H1G O1A 1_555 1_555
H2G O1A 1_555 1_555
H1S O1A 1_555 1_555
H2S O1A 1_555 1_555
H1V O1A 1_555 1_555
H2V O1A 1_555 1_555
C1U N1U 1_555 1_555
C1B N1B 1_555 1_555
C2B N1B 1_555 1_555
H1B O1B 1_555 1_555
H2B O1B 1_555 1_555
H1D O1B 1_555 1_555
H2D O1B 1_555 1_555
H1P O1B 1_555 1_555
H2P O1B 1_555 1_555
H1U O1B 1_555 1_555
H2U O1B 1_555 1_555
C1W N1W 1_555 1_555
H1C O1C 1_555 1_555
H2C O1C 1_555 1_555
H1F O1C 1_555 1_555
H2F O1C 1_555 1_555
H1Q O1C 1_555 1_555
H2Q O1C 1_555 1_555
H1W O1C 1_555 1_555
H2W O1C 1_555 1_555
C4V C3 1_555 1_555
H3V C1V 1_555 1_555
H3C C1C 1_555 1_555
C4C C1C 1_555 1_555
C5C C3C 1_555 1_555
C6T C4T 1_555 1_555
H4T C4T 1_555 1_555
H3A C1A 1_555 1_555
C3A C1A 1_555 1_555
C4A C1A 1_555 1_555
H3U C1U 1_555 1_555
C4U C1U 1_555 1_555
H3B C1B 1_555 1_555
C3B C1B 1_555 1_555
C4B C1B 1_555 1_555
H3W C1W 1_555 1_555
C4W C1W 1_555 1_555
C5N C5 1_555 1_555
C6V C5 1_555 1_555
H4V C4V 1_555 1_555
H4N C6 1_555 1_555
C4N C6 1_555 1_555
C6C C4C 1_555 1_555
H4C C4C 1_555 1_555
C5L C5C 1_555 1_555
H4AA C6T 1_555 1_555
C4AA C6T 1_555 1_555
C5A C3A 1_555 1_555
C6A C4A 1_555 1_555
H4A C4A 1_555 1_555
C6U C4U 1_555 1_555
H4U C4U 1_555 1_555
C5B C3B 1_555 1_555
C6B C4B 1_555 1_555
H4B C4B 1_555 1_555
C6W C4W 1_555 1_555
H4W C4W 1_555 1_555
C3N C5N 1_555 1_555
C4X C5N 1_555 1_555
H4X C6V 1_555 1_555
C1N C4N 1_555 1_555
H4L C6C 1_555 1_555
C4L C6C 1_555 1_555
C3L C5L 1_555 1_555
C1AA C4AA 1_555 1_555
C5M C5A 1_555 1_555
H4M C6A 1_555 1_555
C4M C6A 1_555 1_555
H4Y C6U 1_555 1_555
C4Y C6U 1_555 1_555
C5O C5B 1_555 1_555
H4O C6B 1_555 1_555
C4O C6B 1_555 1_555
H4Z C6W 1_555 1_555
C4Z C6W 1_555 1_555
C2N C3N 1_555 1_555
C1X C3N 1_555 1_555
N1N C1N 1_555 1_555
H3N C1N 1_555 1_555
O2N C1N 1_555 1_555
C1L C4L 1_555 1_555
C2L C3L 1_555 1_555
N1AA C1AA 1_555 1_555
H3AA C1AA 1_555 1_555
O2AA C1AA 1_555 1_555
C3M C5M 1_555 1_555
C1M C4M 1_555 1_555
C1Y C4Y 1_555 1_555
C3O C5O 1_555 1_555
C1O C4O 1_555 1_555
C1Z C4Z 1_555 1_555
N1X C2N 1_555 1_555
O2X C2N 1_555 1_555
H3X C1X 1_555 1_555
Cu1K N1N 1_555 1_555
N1L C1L 1_555 1_555
H3L C1L 1_555 1_555
O2L C1L 1_555 1_555
Cu1I N1AA 1_555 1_555
C2M C3M 1_555 1_555
N1M C1M 1_555 1_555
H3M C1M 1_555 1_555
O2M C1M 1_555 1_555
N1Y C1Y 1_555 1_555
H3Y C1Y 1_555 1_555
O2Y C1Y 1_555 1_555
C2O C3O 1_555 1_555
N1O C1O 1_555 1_555
H3O C1O 1_555 1_555
O2O C1O 1_555 1_555
N1Z C1Z 1_555 1_555
H3Z C1Z 1_555 1_555
O2Z C1Z 1_555 1_555
Cu1J N1X 1_555 1_555
Cu1J_2 N1L 1_555 1_555
Cu1H N1M 1_555 1_555
Cu1K_2 N1Y 1_555 1_555
Cu1I_2 N1O 1_555 1_555
Cu1H_2 N1Z 1_555 1_555
O1 O1E 1_555 1_555
O2 C1 1_555 1_555
O2 C2 1_555 1_555
C1 C2 1_555 1_555
C2 C3 1_555 1_555
C2 N1V 1_555 1_555
H1 O1E 1_555 1_555
H2 O1E 1_555 1_555
C3 C4 1_555 1_555
C3 C1V 1_555 1_555
C4 C5 1_555 1_555
C5 C6 1_555 1_555
C5 C4V 1_555 1_555
C6 H4 1_555 1_555
C6 C5N 1_555 1_555
O1E H1E 1_555 1_555
O1E H2E 1_555 1_555
O1E H1R 1_555 1_555
O1E H2R 1_555 1_555
O1E H1T 1_555 1_555
O1E H2T 1_555 1_555
O2T C2C 1_555 1_555
O2T C1T 1_555 1_555
Cu1A N1G 1_555 1_555
Cu1A O2V 1_555 1_555
Cu1C N1C 1_555 1_555
Cu1C N1Q 1_555 1_555
N1V C1V 1_555 1_555
N1C C2C 1_555 1_555
C2C C1T 1_555 1_555
C2C O2C 1_555 1_555
C2C C1C 1_555 1_555
C1T C3C 1_555 1_555
O2V C1V 1_555 1_555
N1A N1U 1_555 1_555
O1A O1G 1_555 1_555
O2A C1A 1_555 1_555
O2A C2A 1_555 1_555
O1G H1A 1_555 1_555
O1G H2A 1_555 1_555
O1G H1G 1_555 1_555
O1G H2G 1_555 1_555
O1G H1S 1_555 1_555
O1G H2S 1_555 1_555
O1G H1V 1_555 1_555
O1G H2V 1_555 1_555
N1S N1D 1_555 1_555
N1U C2A 1_555 1_555
O2U C2A 1_555 1_555
O2U C1U 1_555 1_555
N1B N1W 1_555 1_555
O1B O1D 1_555 1_555
O2B C1B 1_555 1_555
O2B C2B 1_555 1_555
O1D H1B 1_555 1_555
O1D H2B 1_555 1_555
O1D H1D 1_555 1_555
O1D H2D 1_555 1_555
O1D H1P 1_555 1_555
O1D H2P 1_555 1_555
O1D H1U 1_555 1_555
O1D H2U 1_555 1_555
N1P N1F 1_555 1_555
N1W C2B 1_555 1_555
O2W C2B 1_555 1_555
O2W C1W 1_555 1_555
O1C O1F 1_555 1_555
O2C C1C 1_555 1_555
O1F H1C 1_555 1_555
O1F H2C 1_555 1_555
O1F H1F 1_555 1_555
O1F H2F 1_555 1_555
O1F H1Q 1_555 1_555
O1F H2Q 1_555 1_555
O1F H1W 1_555 1_555
O1F H2W 1_555 1_555
C1V C4V 1_555 1_555
C1C C3C 1_555 1_555
C3C C4T 1_555 1_555
C3C C4C 1_555 1_555
C4T C5C 1_555 1_555
C1A C2A 1_555 1_555
C2A C1U 1_555 1_555
C2A C3A 1_555 1_555
C1U C3A 1_555 1_555
C1B C2B 1_555 1_555
C2B C1W 1_555 1_555
C2B C3B 1_555 1_555
C1W C3B 1_555 1_555
C4V C6V 1_555 1_555
C4C C5C 1_555 1_555
C5C C6T 1_555 1_555
C5C C6C 1_555 1_555
C6T H4T 1_555 1_555
C6T C5L 1_555 1_555
C3A C4A 1_555 1_555
C3A C4U 1_555 1_555
C4A C5A 1_555 1_555
C4U C5A 1_555 1_555
C3B C4B 1_555 1_555
C3B C4W 1_555 1_555
C4B C5B 1_555 1_555
C4W C5B 1_555 1_555
C5N C6V 1_555 1_555
C5N C4N 1_555 1_555
C6V H4V 1_555 1_555
C6V C4X 1_555 1_555
H4N C4N 1_555 1_555
C4N C3N 1_555 1_555
C6C H4C 1_555 1_555
C6C C5L 1_555 1_555
C5L C4AA 1_555 1_555
C5L C4L 1_555 1_555
H4AA C4AA 1_555 1_555
C4AA C3L 1_555 1_555
C5A C6A 1_555 1_555
C5A C6U 1_555 1_555
C6A H4A 1_555 1_555
C6A C5M 1_555 1_555
C6U H4U 1_555 1_555
C6U C5M 1_555 1_555
C5B C6B 1_555 1_555
C5B C6W 1_555 1_555
C6B H4B 1_555 1_555
C6B C5O 1_555 1_555
C6W H4W 1_555 1_555
C6W C5O 1_555 1_555
C3N C4X 1_555 1_555
C3N C1N 1_555 1_555
C4X H4X 1_555 1_555
C4X C1X 1_555 1_555
C1N C2N 1_555 1_555
H4L C4L 1_555 1_555
C4L C3L 1_555 1_555
C3L C1AA 1_555 1_555
C3L C1L 1_555 1_555
C1AA C2L 1_555 1_555
C5M C4M 1_555 1_555
C5M C4Y 1_555 1_555
H4M C4M 1_555 1_555
C4M C3M 1_555 1_555
H4Y C4Y 1_555 1_555
C4Y C3M 1_555 1_555
C5O C4O 1_555 1_555
C5O C4Z 1_555 1_555
H4O C4O 1_555 1_555
C4O C3O 1_555 1_555
H4Z C4Z 1_555 1_555
C4Z C3O 1_555 1_555
C2N C1X 1_555 1_555
C2N N1N 1_555 1_555
C2N O2N 1_555 1_555
C1X N1X 1_555 1_555
C1X O2X 1_555 1_555
N1N N1X 1_555 1_555
O2N Cu1K 1_555 1_555
C1L C2L 1_555 1_555
C2L N1AA 1_555 1_555
C2L O2AA 1_555 1_555
C2L N1L 1_555 1_555
C2L O2L 1_555 1_555
N1AA N1L 1_555 1_555
O2AA Cu1I 1_555 1_555
C3M C1M 1_555 1_555
C3M C1Y 1_555 1_555
C1M C2M 1_555 1_555
C1Y C2M 1_555 1_555
C3O C1O 1_555 1_555
C3O C1Z 1_555 1_555
C1O C2O 1_555 1_555
C1Z C2O 1_555 1_555
O2X Cu1J 1_555 1_555
O2L Cu1J_2 1_555 1_555
C2M N1M 1_555 1_555
C2M O2M 1_555 1_555
C2M N1Y 1_555 1_555
C2M O2Y 1_555 1_555
N1M N1Y 1_555 1_555
O2M Cu1H 1_555 1_555
O2Y Cu1K_2 1_555 1_555
C2O N1O 1_555 1_555
C2O O2O 1_555 1_555
C2O N1Z 1_555 1_555
C2O O2Z 1_555 1_555
N1O N1Z 1_555 1_555
O2O Cu1I_2 1_555 1_555
O2Z Cu1H_2 1_555 1_555

#END
