
#######################################################################
#
#                 Cambridge Crystallographic Data Centre
#                                CCDC 
#
#######################################################################
#
# If this CIF has been generated from an entry in the Cambridge 
# Structural Database, then it will include bibliographic, chemical, 
# crystal, experimental, refinement or atomic coordinate data resulting 
# from the CCDC's data processing and validation procedures.
#
#######################################################################

data_RUJMEQ
_chemical_formula_moiety         '(C64 H34 Cu4 O20)n'
_symmetry_cell_setting           orthorhombic
_symmetry_space_group_name_H-M   'F m m m'
_symmetry_Int_Tables_number      69
_space_group_name_Hall           '-F 2 2'
loop_
_symmetry_equiv_pos_site_id
_symmetry_equiv_pos_as_xyz
1 x,y,z
2 -x,-y,z
3 -x,y,-z
4 x,-y,-z
5 x,1/2+y,1/2+z
6 -x,1/2-y,1/2+z
7 -x,1/2+y,1/2-z
8 x,1/2-y,1/2-z
9 1/2+x,y,1/2+z
10 1/2-x,-y,1/2+z
11 1/2-x,y,1/2-z
12 1/2+x,-y,1/2-z
13 1/2+x,1/2+y,z
14 1/2-x,1/2-y,z
15 1/2-x,1/2+y,-z
16 1/2+x,1/2-y,-z
17 -x,-y,-z
18 x,y,-z
19 x,-y,z
20 -x,y,z
21 -x,1/2-y,1/2-z
22 x,1/2+y,1/2-z
23 x,1/2-y,1/2+z
24 -x,1/2+y,1/2+z
25 1/2-x,-y,1/2-z
26 1/2+x,y,1/2-z
27 1/2+x,-y,1/2+z
28 1/2-x,y,1/2+z
29 1/2-x,1/2-y,-z
30 1/2+x,1/2+y,-z
31 1/2+x,1/2-y,z
32 1/2-x,1/2+y,z
_cell_length_a                   25.616(2)
_cell_length_b                   28.157(3)
_cell_length_c                   40.549(4)
_cell_angle_alpha                90
_cell_angle_beta                 90
_cell_angle_gamma                90
_cell_volume                     29246.8
loop_
_atom_site_label
_atom_site_type_symbol
_atom_site_fract_x
_atom_site_fract_y
_atom_site_fract_z
_atom_site_U_iso_or_equiv
_atom_site_thermal_displace_type
Cu1 Cu -0.0000 0.21917(6) 0.22422(3) 0.0242 Uani
Cu2 Cu -0.21476(5) 0.0000 0.22595(2) 0.0209 Uani
C1 C -0.1991(3) 0.0655(3) 0.27895(16) 0.0400 Uani
C2 C -0.1729(3) 0.1069(3) 0.29557(15) 0.0393 Uani
C3 C -0.1337(3) 0.1307(3) 0.27953(16) 0.0417 Uani
H1 H -0.1227 0.1209 0.2588 0.0500 Uiso
C4 C -0.1108(3) 0.1692(3) 0.29460(16) 0.0390 Uani
C5 C -0.0695(3) 0.1996(3) 0.27690(16) 0.0377 Uani
C6 C -0.1885(3) 0.1207(3) 0.32705(16) 0.0463 Uani
H2 H -0.2150 0.1040 0.3376 0.0550 Uiso
C7 C -0.1262(3) 0.1827(3) 0.32601(16) 0.0463 Uani
H3 H -0.1098 0.2085 0.3360 0.0560 Uiso
C8 C -0.1654(3) 0.1589(3) 0.34295(17) 0.0473 Uani
C9 C -0.1823(3) 0.1742(3) 0.37636(16) 0.0437 Uani
C10 C -0.2335(3) 0.1701(4) 0.38673(17) 0.0620 Uani
H4 H -0.2575 0.1553 0.3729 0.0740 Uiso
C11 C -0.1484(3) 0.1963(4) 0.39759(18) 0.0663 Uani
H5 H -0.1136 0.1995 0.3914 0.0800 Uiso
C12 C -0.2504(3) 0.1871(3) 0.41673(19) 0.0600 Uani
H6 H -0.2852 0.1837 0.4228 0.0720 Uiso
C13 C -0.1645(3) 0.2142(3) 0.42843(17) 0.0570 Uani
H7 H -0.1406 0.2291 0.4423 0.0680 Uiso
C14 C -0.2157(3) 0.2094(3) 0.43792(15) 0.0480 Uani
C15 C -0.2330(3) 0.2303(3) 0.47023(16) 0.0503 Uani
C16 C -0.2184(5) 0.2093(4) 0.5000 0.0510 Uani
C17 C -0.1838(5) 0.1643(5) 0.5000 0.0670 Uani
O1 O -0.18080(19) 0.0500(2) 0.25239(11) 0.0467 Uani
O2 O -0.1599(3) 0.0000 0.1859(2) 0.0733 Uani
O3 O -0.24007(18) 0.0488(2) 0.29288(11) 0.0480 Uani
O4 O -0.05421(18) 0.2357(2) 0.29143(12) 0.0490 Uani
O5 O -0.0000 0.1784(4) 0.18113(19) 0.0700 Uani
O6 O -0.05416(18) 0.1850(2) 0.24947(12) 0.0473 Uani
C1M C -0.3009(3) 0.4345(3) 0.27895(16) 0.0400 Uani
C2M C -0.3271(3) 0.3931(3) 0.29557(15) 0.0393 Uani
C3M C -0.3663(3) 0.3693(3) 0.27953(16) 0.0417 Uani
H1M H -0.3773 0.3791 0.2588 0.0500 Uiso
C4M C -0.3892(3) 0.3308(3) 0.29460(16) 0.0390 Uani
C5M C -0.4305(3) 0.3004(3) 0.27690(16) 0.0377 Uani
C6M C -0.3115(3) 0.3793(3) 0.32705(16) 0.0463 Uani
H2M H -0.2850 0.3960 0.3376 0.0550 Uiso
C7M C -0.3738(3) 0.3173(3) 0.32601(16) 0.0463 Uani
H3M H -0.3902 0.2915 0.3360 0.0560 Uiso
C8M C -0.3346(3) 0.3411(3) 0.34295(17) 0.0473 Uani
C9M C -0.3177(3) 0.3258(3) 0.37636(16) 0.0437 Uani
C10M C -0.2665(3) 0.3299(4) 0.38673(17) 0.0620 Uani
H4M H -0.2425 0.3447 0.3729 0.0740 Uiso
C11M C -0.3516(3) 0.3037(4) 0.39759(18) 0.0663 Uani
H5M H -0.3864 0.3005 0.3914 0.0800 Uiso
C12M C -0.2496(3) 0.3129(3) 0.41673(19) 0.0600 Uani
H6M H -0.2148 0.3163 0.4228 0.0720 Uiso
C13M C -0.3355(3) 0.2858(3) 0.42843(17) 0.0570 Uani
H7M H -0.3594 0.2709 0.4423 0.0680 Uiso
C14M C -0.2843(3) 0.2906(3) 0.43792(15) 0.0480 Uani
C15M C -0.2670(3) 0.2697(3) 0.47023(16) 0.0503 Uani
C16M C -0.2816(5) 0.2907(4) 0.5000 0.0510 Uani
C17M C -0.3162(5) 0.3357(5) 0.5000 0.0670 Uani
O1M O -0.31920(19) 0.4500(2) 0.25239(11) 0.0467 Uani
O3M O -0.25993(18) 0.4512(2) 0.29288(11) 0.0480 Uani
O4M O -0.44579(18) 0.2643(2) 0.29143(12) 0.0490 Uani
O6M O -0.44584(18) 0.3150(2) 0.24947(12) 0.0473 Uani
C1Q C -0.1991(3) 0.0655(3) 0.72105(16) 0.0400 Uani
C2Q C -0.1729(3) 0.1069(3) 0.70443(15) 0.0393 Uani
C3Q C -0.1337(3) 0.1307(3) 0.72047(16) 0.0417 Uani
H1Q H -0.1227 0.1209 0.7412 0.0500 Uiso
C4Q C -0.1108(3) 0.1692(3) 0.70540(16) 0.0390 Uani
C5Q C -0.0695(3) 0.1996(3) 0.72310(16) 0.0377 Uani
C6Q C -0.1885(3) 0.1207(3) 0.67295(16) 0.0463 Uani
H2Q H -0.2150 0.1040 0.6624 0.0550 Uiso
C7Q C -0.1262(3) 0.1827(3) 0.67399(16) 0.0463 Uani
H3Q H -0.1098 0.2085 0.6640 0.0560 Uiso
C8Q C -0.1654(3) 0.1589(3) 0.65705(17) 0.0473 Uani
C9Q C -0.1823(3) 0.1742(3) 0.62364(16) 0.0437 Uani
C10Q C -0.2335(3) 0.1701(4) 0.61327(17) 0.0620 Uani
H4Q H -0.2575 0.1553 0.6271 0.0740 Uiso
C11Q C -0.1484(3) 0.1963(4) 0.60241(18) 0.0663 Uani
H5Q H -0.1136 0.1995 0.6086 0.0800 Uiso
C12Q C -0.2504(3) 0.1871(3) 0.58327(19) 0.0600 Uani
H6Q H -0.2852 0.1837 0.5772 0.0720 Uiso
C13Q C -0.1645(3) 0.2142(3) 0.57157(17) 0.0570 Uani
H7Q H -0.1406 0.2291 0.5577 0.0680 Uiso
C14Q C -0.2157(3) 0.2094(3) 0.56208(15) 0.0480 Uani
C15Q C -0.2330(3) 0.2303(3) 0.52977(16) 0.0503 Uani
O1Q O -0.18080(19) 0.0500(2) 0.74761(11) 0.0467 Uani
O3Q O -0.24007(18) 0.0488(2) 0.70712(11) 0.0480 Uani
O4Q O -0.05421(18) 0.2357(2) 0.70857(12) 0.0490 Uani
O6Q O -0.05416(18) 0.1850(2) 0.75053(12) 0.0473 Uani
C1BA C -0.3009(3) 0.4345(3) 0.72105(16) 0.0400 Uani
C2BA C -0.3271(3) 0.3931(3) 0.70443(15) 0.0393 Uani
C3BA C -0.3663(3) 0.3693(3) 0.72047(16) 0.0417 Uani
H1BA H -0.3773 0.3791 0.7412 0.0500 Uiso
C4BA C -0.3892(3) 0.3308(3) 0.70540(16) 0.0390 Uani
C5BA C -0.4305(3) 0.3004(3) 0.72310(16) 0.0377 Uani
C6BA C -0.3115(3) 0.3793(3) 0.67295(16) 0.0463 Uani
H2BA H -0.2850 0.3960 0.6624 0.0550 Uiso
C7BA C -0.3738(3) 0.3173(3) 0.67399(16) 0.0463 Uani
H3BA H -0.3902 0.2915 0.6640 0.0560 Uiso
C8BA C -0.3346(3) 0.3411(3) 0.65705(17) 0.0473 Uani
C9BA C -0.3177(3) 0.3258(3) 0.62364(16) 0.0437 Uani
C10BA C -0.2665(3) 0.3299(4) 0.61327(17) 0.0620 Uani
H4BA H -0.2425 0.3447 0.6271 0.0740 Uiso
C11BA C -0.3516(3) 0.3037(4) 0.60241(18) 0.0663 Uani
H5BA H -0.3864 0.3005 0.6086 0.0800 Uiso
C12BA C -0.2496(3) 0.3129(3) 0.58327(19) 0.0600 Uani
H6BA H -0.2148 0.3163 0.5772 0.0720 Uiso
C13BA C -0.3355(3) 0.2858(3) 0.57157(17) 0.0570 Uani
H7BA H -0.3594 0.2709 0.5577 0.0680 Uiso
C14BA C -0.2843(3) 0.2906(3) 0.56208(15) 0.0480 Uani
C15BA C -0.2670(3) 0.2697(3) 0.52977(16) 0.0503 Uani
O1BA O -0.31920(19) 0.4500(2) 0.74761(11) 0.0467 Uani
O3BA O -0.25993(18) 0.4512(2) 0.70712(11) 0.0480 Uani
O4BA O -0.44579(18) 0.2643(2) 0.70857(12) 0.0490 Uani
O6BA O -0.44584(18) 0.3150(2) 0.75053(12) 0.0473 Uani
Cu1B Cu -0.0000 0.21917(6) 0.77578(3) 0.0242 Uani
O5B O -0.0000 0.1784(4) 0.81887(19) 0.0700 Uani
Cu2J Cu -0.28524(5) 0.0000 0.27405(2) 0.0209 Uani
O2J O -0.3401(3) 0.0000 0.3141(2) 0.0733 Uani
Cu1E Cu -0.0000 0.28083(6) 0.72422(3) 0.0242 Uani
Cu1G Cu -0.0000 0.28083(6) 0.27578(3) 0.0242 Uani
Cu1H Cu -0.5000 0.21917(6) 0.72422(3) 0.0242 Uani
Cu1J Cu -0.5000 0.21917(6) 0.27578(3) 0.0242 Uani
Cu1M Cu -0.5000 0.28083(6) 0.22422(3) 0.0242 Uani
Cu1O Cu -0.5000 0.28083(6) 0.77578(3) 0.0242 Uani
Cu2C Cu -0.21476(5) 0.0000 0.77405(2) 0.0209 Uani
Cu2D Cu -0.21476(5) 0.5000 0.72595(2) 0.0209 Uani
Cu2G Cu -0.21476(5) 0.5000 0.27405(2) 0.0209 Uani
Cu2I Cu -0.28524(5) 0.0000 0.72595(2) 0.0209 Uani
Cu2M Cu -0.28524(5) 0.5000 0.22595(2) 0.0209 Uani
Cu2N Cu -0.28524(5) 0.5000 0.77405(2) 0.0209 Uani
O1J O -0.31920(19) 0.0500(2) 0.24761(11) 0.0467 Uani
O1R O -0.18080(19) -0.0500(2) 0.25239(11) 0.0467 Uani
O1X O -0.31920(19) -0.0500(2) 0.24761(11) 0.0467 Uani
O3J O -0.25993(18) 0.0488(2) 0.20712(11) 0.0480 Uani
O3R O -0.24007(18) -0.0488(2) 0.29288(11) 0.0480 Uani
O3X O -0.25993(18) -0.0488(2) 0.20712(11) 0.0480 Uani
O4E O 0.05421(18) 0.2643(2) 0.79143(12) 0.0490 Uani
O4G O -0.05421(18) 0.2643(2) 0.20857(12) 0.0490 Uani
O4T O 0.05421(18) 0.2643(2) 0.20857(12) 0.0490 Uani
O4V O -0.05421(18) 0.2643(2) 0.79143(12) 0.0490 Uani
O6B O 0.05416(18) 0.1850(2) 0.75053(12) 0.0473 Uani
O6S O 0.05416(18) 0.1850(2) 0.24947(12) 0.0473 Uani
loop_
_atom_site_aniso_label
_atom_site_aniso_U_11
_atom_site_aniso_U_22
_atom_site_aniso_U_33
_atom_site_aniso_U_23
_atom_site_aniso_U_13
_atom_site_aniso_U_12
Cu1 0.0229(7) 0.0276(15) 0.0220(8) 0.0011(5) 0.000 0.000
Cu2 0.0249(8) 0.0222(15) 0.0155(7) 0.000 0.0040(4) 0.000
C1 0.045(4) 0.042(7) 0.033(4) -0.002(3) 0.002(3) 0.002(4)
C2 0.047(4) 0.042(6) 0.029(3) -0.003(3) 0.004(3) -0.004(4)
C3 0.043(4) 0.053(6) 0.029(3) -0.011(4) 0.007(3) -0.006(4)
C4 0.044(3) 0.038(6) 0.035(3) -0.003(4) 0.007(3) -0.009(3)
C5 0.042(4) 0.038(7) 0.033(4) -0.005(4) 0.000(3) -0.010(4)
C6 0.047(4) 0.056(7) 0.036(4) -0.005(4) 0.007(3) -0.011(4)
C7 0.052(4) 0.057(7) 0.030(3) -0.007(3) -0.001(3) -0.018(4)
C8 0.054(4) 0.054(6) 0.034(4) -0.010(4) 0.004(3) -0.006(4)
C9 0.046(4) 0.052(7) 0.033(3) -0.004(4) 0.006(3) -0.011(4)
C10 0.065(5) 0.092(8) 0.029(4) -0.019(4) 0.011(3) -0.020(5)
C11 0.057(4) 0.106(9) 0.036(4) -0.014(5) 0.008(3) 0.004(5)
C12 0.062(5) 0.079(8) 0.039(4) -0.011(4) 0.012(3) -0.010(5)
C13 0.061(4) 0.079(8) 0.031(4) -0.012(4) -0.005(3) -0.006(4)
C14 0.063(4) 0.058(6) 0.023(3) -0.002(4) 0.003(3) 0.003(4)
C15 0.067(5) 0.061(7) 0.023(3) -0.008(3) -0.002(3) 0.005(4)
C16 0.087(8) 0.035(8) 0.031(5) 0.000 0.000 0.006(6)
C17 0.101(10) 0.067(11) 0.033(6) 0.000 0.000 0.031(8)
O1 0.053(3) 0.050(4) 0.037(3) -0.007(3) 0.010(2) -0.015(2)
O2 0.069(5) 0.091(8) 0.060(5) 0.000 0.036(4) 0.000
O3 0.05 0.054 0.04 -0.009 0.009 -0.015
O4 0.05 0.056 0.041 -0.002 0.006 -0.011
O5 0.071(5) 0.091(8) 0.048(4) -0.025(5) 0.000 0.000
O6 0.050(3) 0.049(4) 0.043(3) -0.010(3) 0.012(2) -0.015(2)
C1M 0.045 0.042 0.033 0.002 -0.002 0.002
C2M 0.047 0.042 0.029 0.003 -0.004 -0.004
C3M 0.043 0.053 0.029 0.011 -0.007 -0.006
C4M 0.044 0.038 0.035 0.003 -0.007 -0.009
C5M 0.042 0.038 0.033 0.005 0 -0.01
C6M 0.047 0.056 0.036 0.005 -0.007 -0.011
C7M 0.052 0.057 0.03 0.007 0.001 -0.018
C8M 0.054 0.054 0.034 0.01 -0.004 -0.006
C9M 0.046 0.052 0.033 0.004 -0.006 -0.011
C10M 0.065 0.092 0.029 0.019 -0.011 -0.02
C11M 0.057 0.106 0.036 0.014 -0.008 0.004
C12M 0.062 0.079 0.039 0.011 -0.012 -0.01
C13M 0.061 0.079 0.031 0.012 0.005 -0.006
C14M 0.063 0.058 0.023 0.002 -0.003 0.003
C15M 0.067 0.061 0.023 0.008 0.002 0.005
C16M 0.087 0.035 0.031 0 0 0.006
C17M 0.101 0.067 0.033 0 0 0.031
O1M 0.053 0.05 0.037 0.007 -0.01 -0.015
O3M 0.05 0.054 0.04 0.009 -0.009 -0.015
O4M 0.05 0.056 0.041 0.002 -0.006 -0.011
O6M 0.05 0.049 0.043 0.01 -0.012 -0.015
C1Q 0.045 0.042 0.033 0.002 -0.002 0.002
C2Q 0.047 0.042 0.029 0.003 -0.004 -0.004
C3Q 0.043 0.053 0.029 0.011 -0.007 -0.006
C4Q 0.044 0.038 0.035 0.003 -0.007 -0.009
C5Q 0.042 0.038 0.033 0.005 0 -0.01
C6Q 0.047 0.056 0.036 0.005 -0.007 -0.011
C7Q 0.052 0.057 0.03 0.007 0.001 -0.018
C8Q 0.054 0.054 0.034 0.01 -0.004 -0.006
C9Q 0.046 0.052 0.033 0.004 -0.006 -0.011
C10Q 0.065 0.092 0.029 0.019 -0.011 -0.02
C11Q 0.057 0.106 0.036 0.014 -0.008 0.004
C12Q 0.062 0.079 0.039 0.011 -0.012 -0.01
C13Q 0.061 0.079 0.031 0.012 0.005 -0.006
C14Q 0.063 0.058 0.023 0.002 -0.003 0.003
C15Q 0.067 0.061 0.023 0.008 0.002 0.005
O1Q 0.053 0.05 0.037 0.007 -0.01 -0.015
O3Q 0.05 0.054 0.04 0.009 -0.009 -0.015
O4Q 0.05 0.056 0.041 0.002 -0.006 -0.011
O6Q 0.05 0.049 0.043 0.01 -0.012 -0.015
C1BA 0.045 0.042 0.033 -0.002 0.002 0.002
C2BA 0.047 0.042 0.029 -0.003 0.004 -0.004
C3BA 0.043 0.053 0.029 -0.011 0.007 -0.006
C4BA 0.044 0.038 0.035 -0.003 0.007 -0.009
C5BA 0.042 0.038 0.033 -0.005 0 -0.01
C6BA 0.047 0.056 0.036 -0.005 0.007 -0.011
C7BA 0.052 0.057 0.03 -0.007 -0.001 -0.018
C8BA 0.054 0.054 0.034 -0.01 0.004 -0.006
C9BA 0.046 0.052 0.033 -0.004 0.006 -0.011
C10BA 0.065 0.092 0.029 -0.019 0.011 -0.02
C11BA 0.057 0.106 0.036 -0.014 0.008 0.004
C12BA 0.062 0.079 0.039 -0.011 0.012 -0.01
C13BA 0.061 0.079 0.031 -0.012 -0.005 -0.006
C14BA 0.063 0.058 0.023 -0.002 0.003 0.003
C15BA 0.067 0.061 0.023 -0.008 -0.002 0.005
O1BA 0.053 0.05 0.037 -0.007 0.01 -0.015
O3BA 0.05 0.054 0.04 -0.009 0.009 -0.015
O4BA 0.05 0.056 0.041 -0.002 0.006 -0.011
O6BA 0.05 0.049 0.043 -0.01 0.012 -0.015
Cu1B 0.0229 0.0276 0.022 -0.0011 0 0
O5B 0.071 0.091 0.048 0.025 0 0
Cu2J 0.0249 0.0222 0.0155 0 0.004 0
O2J 0.069 0.091 0.06 0 0.036 0
Cu1E 0.0229 0.0276 0.022 -0.0011 0 0
Cu1G 0.0229 0.0276 0.022 0.0011 0 0
Cu1H 0.0229 0.0276 0.022 0.0011 0 0
Cu1J 0.0229 0.0276 0.022 -0.0011 0 0
Cu1M 0.0229 0.0276 0.022 -0.0011 0 0
Cu1O 0.0229 0.0276 0.022 0.0011 0 0
Cu2C 0.0249 0.0222 0.0155 0 -0.004 0
Cu2D 0.0249 0.0222 0.0155 0 0.004 0
Cu2G 0.0249 0.0222 0.0155 0 -0.004 0
Cu2I 0.0249 0.0222 0.0155 0 -0.004 0
Cu2M 0.0249 0.0222 0.0155 0 -0.004 0
Cu2N 0.0249 0.0222 0.0155 0 0.004 0
O1J 0.053 0.05 0.037 0.007 0.01 0.015
O1R 0.053 0.05 0.037 0.007 0.01 0.015
O1X 0.053 0.05 0.037 -0.007 0.01 -0.015
O3J 0.05 0.054 0.04 0.009 0.009 0.015
O3R 0.05 0.054 0.04 0.009 0.009 0.015
O3X 0.05 0.054 0.04 -0.009 0.009 -0.015
O4E 0.05 0.056 0.041 0.002 -0.006 -0.011
O4G 0.05 0.056 0.041 -0.002 -0.006 0.011
O4T 0.05 0.056 0.041 -0.002 0.006 -0.011
O4V 0.05 0.056 0.041 0.002 0.006 0.011
O6B 0.05 0.049 0.043 0.01 0.012 0.015
O6S 0.05 0.049 0.043 -0.01 -0.012 0.015
loop_
_geom_bond_atom_site_label_1
_geom_bond_atom_site_label_2
_geom_bond_site_symmetry_1
_geom_bond_site_symmetry_2
Cu1 O5 1_555 1_555
Cu2 O1 1_555 1_555
C1 C2 1_555 1_555
C2 C3 1_555 1_555
C3 H1 1_555 1_555
C4 C3 1_555 1_555
C5 C4 1_555 1_555
C6 C2 1_555 1_555
H2 C6 1_555 1_555
C7 C4 1_555 1_555
H3 C7 1_555 1_555
C8 C6 1_555 1_555
C9 C8 1_555 1_555
C10 C9 1_555 1_555
H4 C10 1_555 1_555
C11 C9 1_555 1_555
H5 C11 1_555 1_555
C12 C10 1_555 1_555
H6 C12 1_555 1_555
C13 C11 1_555 1_555
H7 C13 1_555 1_555
C14 C12 1_555 1_555
C15 C14 1_555 1_555
C16 C15 1_555 1_555
C17 C16 1_555 1_555
O1 C1 1_555 1_555
O2 Cu2 1_555 1_555
O3 C1 1_555 1_555
O4 C5 1_555 1_555
O6 Cu1 1_555 1_555
C1M C2M 1_555 1_555
C2M C3M 1_555 1_555
C3M H1M 1_555 1_555
C4M C3M 1_555 1_555
C5M C4M 1_555 1_555
C6M C2M 1_555 1_555
H2M C6M 1_555 1_555
C7M C4M 1_555 1_555
H3M C7M 1_555 1_555
C8M C6M 1_555 1_555
C9M C8M 1_555 1_555
C10M C9M 1_555 1_555
H4M C10M 1_555 1_555
C11M C9M 1_555 1_555
H5M C11M 1_555 1_555
C12M C10M 1_555 1_555
H6M C12M 1_555 1_555
C13M C11M 1_555 1_555
H7M C13M 1_555 1_555
C14M C12M 1_555 1_555
C15M C15 1_555 1_555
C16M C15M 1_555 1_555
C17M C16M 1_555 1_555
O1M C1M 1_555 1_555
O3M C1M 1_555 1_555
O4M C5M 1_555 1_555
O6M C5M 1_555 1_555
C1Q C2Q 1_555 1_555
C2Q C3Q 1_555 1_555
C3Q H1Q 1_555 1_555
C4Q C3Q 1_555 1_555
C5Q C4Q 1_555 1_555
C6Q C2Q 1_555 1_555
H2Q C6Q 1_555 1_555
C7Q C4Q 1_555 1_555
H3Q C7Q 1_555 1_555
C8Q C6Q 1_555 1_555
C9Q C8Q 1_555 1_555
C10Q C9Q 1_555 1_555
H4Q C10Q 1_555 1_555
C11Q C9Q 1_555 1_555
H5Q C11Q 1_555 1_555
C12Q C10Q 1_555 1_555
H6Q C12Q 1_555 1_555
C13Q C11Q 1_555 1_555
H7Q C13Q 1_555 1_555
C14Q C12Q 1_555 1_555
C15Q C16 1_555 1_555
O1Q C1Q 1_555 1_555
O3Q C1Q 1_555 1_555
O4Q C5Q 1_555 1_555
O6Q C5Q 1_555 1_555
C1BA C2BA 1_555 1_555
C2BA C3BA 1_555 1_555
C3BA H1BA 1_555 1_555
C4BA C3BA 1_555 1_555
C5BA C4BA 1_555 1_555
C6BA C2BA 1_555 1_555
H2BA C6BA 1_555 1_555
C7BA C4BA 1_555 1_555
H3BA C7BA 1_555 1_555
C8BA C6BA 1_555 1_555
C9BA C8BA 1_555 1_555
C10BA C9BA 1_555 1_555
H4BA C10BA 1_555 1_555
C11BA C9BA 1_555 1_555
H5BA C11BA 1_555 1_555
C12BA C10BA 1_555 1_555
H6BA C12BA 1_555 1_555
C13BA C11BA 1_555 1_555
H7BA C13BA 1_555 1_555
C14BA C12BA 1_555 1_555
C15BA C16M 1_555 1_555
O1BA C1BA 1_555 1_555
O3BA C1BA 1_555 1_555
O4BA C5BA 1_555 1_555
O6BA C5BA 1_555 1_555
Cu1B O6Q 1_555 1_555
O5B Cu1B 1_555 1_555
Cu2J Cu2 1_555 1_555
O2J Cu2J 1_555 1_555
Cu1E O4Q 1_555 1_555
Cu1G Cu1 1_555 1_555
Cu1H O4BA 1_555 1_555
Cu1J O4M 1_555 1_555
Cu1M O6M 1_555 1_555
Cu1O O6BA 1_555 1_555
Cu2C O1Q 1_555 1_555
Cu2D O3BA 1_555 1_555
Cu2G O3M 1_555 1_555
Cu2I O3Q 1_555 1_555
Cu2M O1M 1_555 1_555
Cu2N O1BA 1_555 1_555
O1J Cu2J 1_555 1_555
O1R Cu2 1_555 1_555
O1X Cu2J 1_555 1_555
O3J Cu2 1_555 1_555
O3R Cu2J 1_555 1_555
O3X Cu2 1_555 1_555
O4E Cu1B 1_555 1_555
O4G Cu1 1_555 1_555
O4T Cu1 1_555 1_555
O4V Cu1B 1_555 1_555
O6B Cu1B 1_555 1_555
O6S Cu1 1_555 1_555
C5 O6 1_555 1_555
C7 C8 1_555 1_555
C13 C14 1_555 1_555
O3 Cu2J 1_555 1_555
O4 Cu1G 1_555 1_555
C7M C8M 1_555 1_555
C13M C14M 1_555 1_555
C14M C15M 1_555 1_555
C7Q C8Q 1_555 1_555
C13Q C14Q 1_555 1_555
C14Q C15Q 1_555 1_555
C15Q C15BA 1_555 1_555
C7BA C8BA 1_555 1_555
C13BA C14BA 1_555 1_555
C14BA C15BA 1_555 1_555
Cu1B Cu1E 1_555 1_555
Cu1H Cu1O 1_555 1_555
Cu1J Cu1M 1_555 1_555
Cu2C Cu2I 1_555 1_555
Cu2D Cu2N 1_555 1_555
Cu2G Cu2M 1_555 1_555

#END
