
#######################################################################
#
#                 Cambridge Crystallographic Data Centre
#                                CCDC 
#
#######################################################################
#
# If this CIF has been generated from an entry in the Cambridge 
# Structural Database, then it will include bibliographic, chemical, 
# crystal, experimental, refinement or atomic coordinate data resulting 
# from the CCDC's data processing and validation procedures.
#
#######################################################################

data_RUJMAM
_chemical_formula_moiety         '(C64 H34 O20 Zn4)n'
_symmetry_cell_setting           orthorhombic
_symmetry_space_group_name_H-M   'F m m m'
_symmetry_Int_Tables_number      69
_space_group_name_Hall           '-F 2 2'
loop_
_symmetry_equiv_pos_site_id
_symmetry_equiv_pos_as_xyz
1 x,y,z
2 -x,-y,z
3 -x,y,-z
4 x,-y,-z
5 x,1/2+y,1/2+z
6 -x,1/2-y,1/2+z
7 -x,1/2+y,1/2-z
8 x,1/2-y,1/2-z
9 1/2+x,y,1/2+z
10 1/2-x,-y,1/2+z
11 1/2-x,y,1/2-z
12 1/2+x,-y,1/2-z
13 1/2+x,1/2+y,z
14 1/2-x,1/2-y,z
15 1/2-x,1/2+y,-z
16 1/2+x,1/2-y,-z
17 -x,-y,-z
18 x,y,-z
19 x,-y,z
20 -x,y,z
21 -x,1/2-y,1/2-z
22 x,1/2+y,1/2-z
23 x,1/2-y,1/2+z
24 -x,1/2+y,1/2+z
25 1/2-x,-y,1/2-z
26 1/2+x,y,1/2-z
27 1/2+x,-y,1/2+z
28 1/2-x,y,1/2+z
29 1/2-x,1/2-y,-z
30 1/2+x,1/2+y,-z
31 1/2+x,1/2-y,z
32 1/2-x,1/2+y,z
_cell_length_a                   25.920(5)
_cell_length_b                   28.560(6)
_cell_length_c                   40.270(8)
_cell_angle_alpha                90
_cell_angle_beta                 90
_cell_angle_gamma                90
_cell_volume                     29810.9
loop_
_atom_site_label
_atom_site_type_symbol
_atom_site_fract_x
_atom_site_fract_y
_atom_site_fract_z
_atom_site_U_iso_or_equiv
_atom_site_thermal_displace_type
Zn1 Zn 0.5000 0.21686(4) 0.22177(2) 0.0338 Uani
Zn2 Zn 0.21112(4) 0.5000 0.22284(2) 0.0347 Uani
O1 O 0.26206(17) 0.45080(15) 0.20720(12) 0.0580 Uani
O2 O 0.44563(17) 0.26624(16) 0.20993(12) 0.0557 Uani
O3 O 0.32044(18) 0.44923(13) 0.24777(9) 0.0540 Uani
O4 O 0.44461(16) 0.31671(14) 0.25153(10) 0.0513 Uani
O5 O 0.5000 0.1820(2) 0.17977(14) 0.0610 Uani
O6 O 0.1629(3) 0.5000 0.18471(16) 0.0697 Uani
C1 C 0.3138(5) 0.3341(4) 0.0000 0.0790 Uani
C2 C 0.2823(4) 0.2893(3) 0.0000 0.0507 Uani
C3 C 0.2656(3) 0.2690(2) 0.02997(13) 0.0483 Uani
C4 C 0.2834(2) 0.2903(2) 0.06250(13) 0.0480 Uani
C5 C 0.3355(3) 0.2858(2) 0.07261(15) 0.0603 Uani
H1 H 0.3594 0.2717 0.0586 0.0720 Uiso
C6 C 0.2497(3) 0.3120(3) 0.08395(15) 0.0643 Uani
H2 H 0.2152 0.3152 0.0780 0.0770 Uiso
C7 C 0.3509(3) 0.3023(3) 0.10335(15) 0.0657 Uani
H3 H 0.3851 0.2985 0.1099 0.0790 Uiso
C8 C 0.2663(3) 0.3289(2) 0.11389(14) 0.0553 Uani
H4 H 0.2430 0.3441 0.1277 0.0670 Uiso
C9 C 0.3176(2) 0.3239(2) 0.12416(14) 0.0493 Uani
C10 C 0.3344(2) 0.34053(19) 0.15802(14) 0.0457 Uani
C11 C 0.3737(2) 0.3164(2) 0.17531(14) 0.0480 Uani
H5 H 0.3894 0.2905 0.1655 0.0580 Uiso
C12 C 0.3108(2) 0.3780(2) 0.17342(13) 0.0473 Uani
H6 H 0.2837 0.3933 0.1629 0.0570 Uiso
C13 C 0.3892(2) 0.3303(2) 0.20623(14) 0.0460 Uani
C14 C 0.3273(2) 0.3932(2) 0.20491(13) 0.0427 Uani
C15 C 0.3665(3) 0.3692(3) 0.22096(12) 0.0453 Uani
H7 H 0.3776 0.3791 0.2417 0.0540 Uiso
C16 C 0.3018(3) 0.4344(2) 0.22106(13) 0.0450 Uani
C17 C 0.4300(2) 0.3020(2) 0.22397(12) 0.0390 Uani
O1M O 0.23794(17) 0.04920(15) 0.20720(12) 0.0580 Uani
O2M O 0.05437(17) 0.23376(16) 0.20993(12) 0.0557 Uani
O3M O 0.17956(18) 0.05077(13) 0.24777(9) 0.0540 Uani
O4M O 0.05539(16) 0.18329(14) 0.25153(10) 0.0513 Uani
C1M C 0.1862(5) 0.1659(4) 0.0000 0.0790 Uani
C2M C 0.2177(4) 0.2107(3) 0.0000 0.0507 Uani
C3M C 0.2344(3) 0.2310(2) 0.02997(13) 0.0483 Uani
C4M C 0.2166(2) 0.2097(2) 0.06250(13) 0.0480 Uani
C5M C 0.1645(3) 0.2142(2) 0.07261(15) 0.0603 Uani
H1M H 0.1406 0.2283 0.0586 0.0720 Uiso
C6M C 0.2503(3) 0.1880(3) 0.08395(15) 0.0643 Uani
H2M H 0.2848 0.1848 0.0780 0.0770 Uiso
C7M C 0.1491(3) 0.1977(3) 0.10335(15) 0.0657 Uani
H3M H 0.1149 0.2015 0.1099 0.0790 Uiso
C8M C 0.2337(3) 0.1711(2) 0.11389(14) 0.0553 Uani
H4M H 0.2570 0.1559 0.1277 0.0670 Uiso
C9M C 0.1824(2) 0.1761(2) 0.12416(14) 0.0493 Uani
C10M C 0.1656(2) 0.15947(19) 0.15802(14) 0.0457 Uani
C11M C 0.1263(2) 0.1836(2) 0.17531(14) 0.0480 Uani
H5M H 0.1106 0.2095 0.1655 0.0580 Uiso
C12M C 0.1892(2) 0.1220(2) 0.17342(13) 0.0473 Uani
H6M H 0.2163 0.1067 0.1629 0.0570 Uiso
C13M C 0.1108(2) 0.1697(2) 0.20623(14) 0.0460 Uani
C14M C 0.1727(2) 0.1068(2) 0.20491(13) 0.0427 Uani
C15M C 0.1335(3) 0.1308(3) 0.22096(12) 0.0453 Uani
H7M H 0.1224 0.1209 0.2417 0.0540 Uiso
C16M C 0.1982(3) 0.0656(2) 0.22106(13) 0.0450 Uani
C17M C 0.0700(2) 0.1980(2) 0.22397(12) 0.0390 Uani
O1Q O 0.26206(17) 0.45080(15) -0.20720(12) 0.0580 Uani
O2Q O 0.44563(17) 0.26624(16) -0.20993(12) 0.0557 Uani
O3Q O 0.32044(18) 0.44923(13) -0.24777(9) 0.0540 Uani
O4Q O 0.44461(16) 0.31671(14) -0.25153(10) 0.0513 Uani
C3Q C 0.2656(3) 0.2690(2) -0.02997(13) 0.0483 Uani
C4Q C 0.2834(2) 0.2903(2) -0.06250(13) 0.0480 Uani
C5Q C 0.3355(3) 0.2858(2) -0.07261(15) 0.0603 Uani
H1Q H 0.3594 0.2717 -0.0586 0.0720 Uiso
C6Q C 0.2497(3) 0.3120(3) -0.08395(15) 0.0643 Uani
H2Q H 0.2152 0.3152 -0.0780 0.0770 Uiso
C7Q C 0.3509(3) 0.3023(3) -0.10335(15) 0.0657 Uani
H3Q H 0.3851 0.2985 -0.1099 0.0790 Uiso
C8Q C 0.2663(3) 0.3289(2) -0.11389(14) 0.0553 Uani
H4Q H 0.2430 0.3441 -0.1277 0.0670 Uiso
C9Q C 0.3176(2) 0.3239(2) -0.12416(14) 0.0493 Uani
C10Q C 0.3344(2) 0.34053(19) -0.15802(14) 0.0457 Uani
C11Q C 0.3737(2) 0.3164(2) -0.17531(14) 0.0480 Uani
H5Q H 0.3894 0.2905 -0.1655 0.0580 Uiso
C12Q C 0.3108(2) 0.3780(2) -0.17342(13) 0.0473 Uani
H6Q H 0.2837 0.3933 -0.1629 0.0570 Uiso
C13Q C 0.3892(2) 0.3303(2) -0.20623(14) 0.0460 Uani
C14Q C 0.3273(2) 0.3932(2) -0.20491(13) 0.0427 Uani
C15Q C 0.3665(3) 0.3692(3) -0.22096(12) 0.0453 Uani
H7Q H 0.3776 0.3791 -0.2417 0.0540 Uiso
C16Q C 0.3018(3) 0.4344(2) -0.22106(13) 0.0450 Uani
C17Q C 0.4300(2) 0.3020(2) -0.22397(12) 0.0390 Uani
O1BA O 0.23794(17) 0.04920(15) -0.20720(12) 0.0580 Uani
O2BA O 0.05437(17) 0.23376(16) -0.20993(12) 0.0557 Uani
O3BA O 0.17956(18) 0.05077(13) -0.24777(9) 0.0540 Uani
O4BA O 0.05539(16) 0.18329(14) -0.25153(10) 0.0513 Uani
C3BA C 0.2344(3) 0.2310(2) -0.02997(13) 0.0483 Uani
C4BA C 0.2166(2) 0.2097(2) -0.06250(13) 0.0480 Uani
C5BA C 0.1645(3) 0.2142(2) -0.07261(15) 0.0603 Uani
H1BA H 0.1406 0.2283 -0.0586 0.0720 Uiso
C6BA C 0.2503(3) 0.1880(3) -0.08395(15) 0.0643 Uani
H2BA H 0.2848 0.1848 -0.0780 0.0770 Uiso
C7BA C 0.1491(3) 0.1977(3) -0.10335(15) 0.0657 Uani
H3BA H 0.1149 0.2015 -0.1099 0.0790 Uiso
C8BA C 0.2337(3) 0.1711(2) -0.11389(14) 0.0553 Uani
H4BA H 0.2570 0.1559 -0.1277 0.0670 Uiso
C9BA C 0.1824(2) 0.1761(2) -0.12416(14) 0.0493 Uani
C10BA C 0.1656(2) 0.15947(19) -0.15802(14) 0.0457 Uani
C11BA C 0.1263(2) 0.1836(2) -0.17531(14) 0.0480 Uani
H5BA H 0.1106 0.2095 -0.1655 0.0580 Uiso
C12BA C 0.1892(2) 0.1220(2) -0.17342(13) 0.0473 Uani
H6BA H 0.2163 0.1067 -0.1629 0.0570 Uiso
C13BA C 0.1108(2) 0.1697(2) -0.20623(14) 0.0460 Uani
C14BA C 0.1727(2) 0.1068(2) -0.20491(13) 0.0427 Uani
C15BA C 0.1335(3) 0.1308(3) -0.22096(12) 0.0453 Uani
H7BA H 0.1224 0.1209 -0.2417 0.0540 Uiso
C16BA C 0.1982(3) 0.0656(2) -0.22106(13) 0.0450 Uani
C17BA C 0.0700(2) 0.1980(2) -0.22397(12) 0.0390 Uani
Zn1B Zn 0.5000 0.21686(4) -0.22177(2) 0.0338 Uani
O5B O 0.5000 0.1820(2) -0.17977(14) 0.0610 Uani
Zn2J Zn 0.28888(4) 0.5000 0.27716(2) 0.0347 Uani
O6J O 0.3371(3) 0.5000 0.31529(16) 0.0697 Uani
Zn1E Zn 0.5000 0.28314(4) -0.27823(2) 0.0338 Uani
Zn1G Zn 0.5000 0.28314(4) 0.27823(2) 0.0338 Uani
Zn1H Zn 0.0000 0.21686(4) -0.27823(2) 0.0338 Uani
Zn1J Zn 0.0000 0.21686(4) 0.27823(2) 0.0338 Uani
Zn1M Zn 0.0000 0.28314(4) 0.22177(2) 0.0338 Uani
Zn1O Zn -0.0000 0.28314(4) -0.22177(2) 0.0338 Uani
Zn2C Zn 0.21112(4) 0.5000 -0.22284(2) 0.0347 Uani
Zn2D Zn 0.21112(4) 0.0000 -0.27716(2) 0.0347 Uani
Zn2G Zn 0.21112(4) -0.0000 0.27716(2) 0.0347 Uani
Zn2I Zn 0.28888(4) 0.5000 -0.27716(2) 0.0347 Uani
Zn2M Zn 0.28888(4) -0.0000 0.22284(2) 0.0347 Uani
Zn2N Zn 0.28888(4) 0.0000 -0.22284(2) 0.0347 Uani
O1J O 0.23794(17) 0.45080(15) 0.29280(12) 0.0580 Uani
O1R O 0.26206(17) 0.54920(15) 0.20720(12) 0.0580 Uani
O1X O 0.23794(17) 0.54920(15) 0.29280(12) 0.0580 Uani
O2B O 0.55437(17) 0.26624(16) -0.20993(12) 0.0557 Uani
O2S O 0.55437(17) 0.26624(16) 0.20993(12) 0.0557 Uani
O3J O 0.17956(18) 0.44923(13) 0.25223(9) 0.0540 Uani
O3R O 0.32044(18) 0.55077(13) 0.24777(9) 0.0540 Uani
O3X O 0.17956(18) 0.55077(13) 0.25223(9) 0.0540 Uani
O4E O 0.55539(16) 0.18329(14) -0.24847(10) 0.0513 Uani
O4G O 0.44461(16) 0.18329(14) 0.24847(10) 0.0513 Uani
O4T O 0.55539(16) 0.18329(14) 0.24847(10) 0.0513 Uani
O4V O 0.44461(16) 0.18329(14) -0.24847(10) 0.0513 Uani
loop_
_atom_site_aniso_label
_atom_site_aniso_U_11
_atom_site_aniso_U_22
_atom_site_aniso_U_33
_atom_site_aniso_U_23
_atom_site_aniso_U_13
_atom_site_aniso_U_12
Zn1 0.0437(10) 0.0359(11) 0.0218(10) -0.0082(3) 0.000 0.000
Zn2 0.0488(10) 0.0307(10) 0.0245(10) 0.000 -0.0085(3) 0.000
O1 0.067(3) 0.052(3) 0.055(3) -0.011(2) -0.012(2) 0.018(2)
O2 0.063(3) 0.056(3) 0.048(3) -0.004(2) -0.007(2) 0.019(2)
O3 0.082 0.045 0.035 -0.0142 -0.009 0.0115
O4 0.06 0.057 0.037 -0.0057 -0.0142 0.0118
O5 0.079(4) 0.071(4) 0.033(3) -0.023(3) 0.000 0.000
O6 0.086(5) 0.072(5) 0.051(4) 0.000 -0.034(3) 0.000
C1 0.119(9) 0.084(7) 0.034(5) 0.000 0.000 -0.041(6)
C2 0.075(6) 0.050(5) 0.027(4) 0.000 0.000 -0.001(4)
C3 0.076(4) 0.055(4) 0.014(3) 0.000(2) -0.001(2) 0.000(3)
C4 0.066(4) 0.057(3) 0.021(3) -0.004(2) -0.004(2) -0.002(3)
C5 0.078(5) 0.074(5) 0.029(3) -0.021(3) -0.007(3) 0.007(3)
C6 0.060(4) 0.094(5) 0.039(4) -0.008(3) -0.007(3) 0.017(3)
C7 0.066(4) 0.100(6) 0.031(3) -0.008(3) -0.006(3) 0.012(3)
C8 0.063(4) 0.074(4) 0.029(3) -0.019(3) -0.011(3) 0.011(3)
C9 0.061(4) 0.053(4) 0.034(3) -0.006(2) -0.005(3) 0.009(3)
C10 0.062(4) 0.044(3) 0.031(3) -0.001(2) -0.017(3) 0.009(3)
C11 0.058(4) 0.056(4) 0.030(3) -0.010(3) -0.004(2) 0.013(3)
C12 0.060(4) 0.051(4) 0.031(3) 0.003(2) 0.000(2) 0.010(3)
C13 0.054(3) 0.042(3) 0.042(4) -0.004(3) -0.008(3) 0.004(2)
C14 0.053(3) 0.046(3) 0.029(3) -0.008(2) -0.006(2) 0.007(3)
C15 0.060(4) 0.048(4) 0.028(3) -0.011(2) -0.010(2) 0.006(3)
C16 0.065(5) 0.031(4) 0.039(4) -0.002(2) -0.003(3) 0.006(3)
C17 0.043(4) 0.045(4) 0.029(3) 0.005(2) 0.002(2) 0.002(3)
O1M 0.067 0.052 0.055 0.011 0.012 0.018
O2M 0.063 0.056 0.048 0.004 0.007 0.019
O3M 0.082 0.045 0.035 0.0142 0.009 0.0115
O4M 0.06 0.057 0.037 0.0057 0.0142 0.0118
C1M 0.119 0.084 0.034 0 0 -0.041
C2M 0.075 0.05 0.027 0 0 -0.001
C3M 0.076 0.055 0.014 0 0.001 0
C4M 0.066 0.057 0.021 0.004 0.004 -0.002
C5M 0.078 0.074 0.029 0.021 0.007 0.007
C6M 0.06 0.094 0.039 0.008 0.007 0.017
C7M 0.066 0.1 0.031 0.008 0.006 0.012
C8M 0.063 0.074 0.029 0.019 0.011 0.011
C9M 0.061 0.053 0.034 0.006 0.005 0.009
C10M 0.062 0.044 0.031 0.001 0.017 0.009
C11M 0.058 0.056 0.03 0.01 0.004 0.013
C12M 0.06 0.051 0.031 -0.003 0 0.01
C13M 0.054 0.042 0.042 0.004 0.008 0.004
C14M 0.053 0.046 0.029 0.008 0.006 0.007
C15M 0.06 0.048 0.028 0.011 0.01 0.006
C16M 0.065 0.031 0.039 0.002 0.003 0.006
C17M 0.043 0.045 0.029 -0.005 -0.002 0.002
O1Q 0.067 0.052 0.055 0.011 0.012 0.018
O2Q 0.063 0.056 0.048 0.004 0.007 0.019
O3Q 0.082 0.045 0.035 0.0142 0.009 0.0115
O4Q 0.06 0.057 0.037 0.0057 0.0142 0.0118
C3Q 0.076 0.055 0.014 0 0.001 0
C4Q 0.066 0.057 0.021 0.004 0.004 -0.002
C5Q 0.078 0.074 0.029 0.021 0.007 0.007
C6Q 0.06 0.094 0.039 0.008 0.007 0.017
C7Q 0.066 0.1 0.031 0.008 0.006 0.012
C8Q 0.063 0.074 0.029 0.019 0.011 0.011
C9Q 0.061 0.053 0.034 0.006 0.005 0.009
C10Q 0.062 0.044 0.031 0.001 0.017 0.009
C11Q 0.058 0.056 0.03 0.01 0.004 0.013
C12Q 0.06 0.051 0.031 -0.003 0 0.01
C13Q 0.054 0.042 0.042 0.004 0.008 0.004
C14Q 0.053 0.046 0.029 0.008 0.006 0.007
C15Q 0.06 0.048 0.028 0.011 0.01 0.006
C16Q 0.065 0.031 0.039 0.002 0.003 0.006
C17Q 0.043 0.045 0.029 -0.005 -0.002 0.002
O1BA 0.067 0.052 0.055 -0.011 -0.012 0.018
O2BA 0.063 0.056 0.048 -0.004 -0.007 0.019
O3BA 0.082 0.045 0.035 -0.0142 -0.009 0.0115
O4BA 0.06 0.057 0.037 -0.0057 -0.0142 0.0118
C3BA 0.076 0.055 0.014 0 -0.001 0
C4BA 0.066 0.057 0.021 -0.004 -0.004 -0.002
C5BA 0.078 0.074 0.029 -0.021 -0.007 0.007
C6BA 0.06 0.094 0.039 -0.008 -0.007 0.017
C7BA 0.066 0.1 0.031 -0.008 -0.006 0.012
C8BA 0.063 0.074 0.029 -0.019 -0.011 0.011
C9BA 0.061 0.053 0.034 -0.006 -0.005 0.009
C10BA 0.062 0.044 0.031 -0.001 -0.017 0.009
C11BA 0.058 0.056 0.03 -0.01 -0.004 0.013
C12BA 0.06 0.051 0.031 0.003 0 0.01
C13BA 0.054 0.042 0.042 -0.004 -0.008 0.004
C14BA 0.053 0.046 0.029 -0.008 -0.006 0.007
C15BA 0.06 0.048 0.028 -0.011 -0.01 0.006
C16BA 0.065 0.031 0.039 -0.002 -0.003 0.006
C17BA 0.043 0.045 0.029 0.005 0.002 0.002
Zn1B 0.0437 0.0359 0.0218 0.0082 0 0
O5B 0.079 0.071 0.033 0.023 0 0
Zn2J 0.0488 0.0307 0.0245 0 -0.0085 0
O6J 0.086 0.072 0.051 0 -0.034 0
Zn1E 0.0437 0.0359 0.0218 0.0082 0 0
Zn1G 0.0437 0.0359 0.0218 -0.0082 0 0
Zn1H 0.0437 0.0359 0.0218 -0.0082 0 0
Zn1J 0.0437 0.0359 0.0218 0.0082 0 0
Zn1M 0.0437 0.0359 0.0218 0.0082 0 0
Zn1O 0.0437 0.0359 0.0218 -0.0082 0 0
Zn2C 0.0488 0.0307 0.0245 0 0.0085 0
Zn2D 0.0488 0.0307 0.0245 0 -0.0085 0
Zn2G 0.0488 0.0307 0.0245 0 0.0085 0
Zn2I 0.0488 0.0307 0.0245 0 0.0085 0
Zn2M 0.0488 0.0307 0.0245 0 0.0085 0
Zn2N 0.0488 0.0307 0.0245 0 -0.0085 0
O1J 0.067 0.052 0.055 0.011 -0.012 -0.018
O1R 0.067 0.052 0.055 0.011 -0.012 -0.018
O1X 0.067 0.052 0.055 -0.011 -0.012 0.018
O2B 0.063 0.056 0.048 0.004 -0.007 -0.019
O2S 0.063 0.056 0.048 -0.004 0.007 -0.019
O3J 0.082 0.045 0.035 0.0142 -0.009 -0.0115
O3R 0.082 0.045 0.035 0.0142 -0.009 -0.0115
O3X 0.082 0.045 0.035 -0.0142 -0.009 0.0115
O4E 0.06 0.057 0.037 0.0057 0.0142 0.0118
O4G 0.06 0.057 0.037 -0.0057 0.0142 -0.0118
O4T 0.06 0.057 0.037 -0.0057 -0.0142 0.0118
O4V 0.06 0.057 0.037 0.0057 -0.0142 -0.0118
loop_
_geom_bond_atom_site_label_1
_geom_bond_atom_site_label_2
_geom_bond_site_symmetry_1
_geom_bond_site_symmetry_2
Zn1 O2 1_555 1_555
Zn2 O1 1_555 1_555
O1 C16 1_555 1_555
O2 C17 1_555 1_555
O3 C16 1_555 1_555
O4 C17 1_555 1_555
O5 Zn1 1_555 1_555
O6 Zn2 1_555 1_555
C1 C2 1_555 1_555
C2 C3 1_555 1_555
C3 C4 1_555 1_555
C4 C5 1_555 1_555
C5 H1 1_555 1_555
C6 C4 1_555 1_555
H2 C6 1_555 1_555
C7 C5 1_555 1_555
H3 C7 1_555 1_555
C8 C6 1_555 1_555
H4 C8 1_555 1_555
C9 C7 1_555 1_555
C10 C9 1_555 1_555
C11 C10 1_555 1_555
H5 C11 1_555 1_555
C12 C10 1_555 1_555
H6 C12 1_555 1_555
C13 C11 1_555 1_555
C14 C12 1_555 1_555
C15 C13 1_555 1_555
H7 C15 1_555 1_555
C16 C14 1_555 1_555
C17 C13 1_555 1_555
O1M C16M 1_555 1_555
O2M C17M 1_555 1_555
O3M C16M 1_555 1_555
O4M C17M 1_555 1_555
C1M C2M 1_555 1_555
C2M C3M 1_555 1_555
C3M C3 1_555 1_555
C4M C3M 1_555 1_555
C5M C4M 1_555 1_555
H1M C5M 1_555 1_555
C6M C4M 1_555 1_555
H2M C6M 1_555 1_555
C7M C5M 1_555 1_555
H3M C7M 1_555 1_555
C8M C6M 1_555 1_555
H4M C8M 1_555 1_555
C9M C7M 1_555 1_555
C10M C9M 1_555 1_555
C11M C10M 1_555 1_555
H5M C11M 1_555 1_555
C12M C10M 1_555 1_555
H6M C12M 1_555 1_555
C13M C11M 1_555 1_555
C14M C12M 1_555 1_555
C15M C13M 1_555 1_555
H7M C15M 1_555 1_555
C16M C14M 1_555 1_555
C17M C13M 1_555 1_555
O1Q C16Q 1_555 1_555
O2Q C17Q 1_555 1_555
O3Q C16Q 1_555 1_555
O4Q C17Q 1_555 1_555
C3Q C2 1_555 1_555
C4Q C3Q 1_555 1_555
C5Q C4Q 1_555 1_555
H1Q C5Q 1_555 1_555
C6Q C4Q 1_555 1_555
H2Q C6Q 1_555 1_555
C7Q C5Q 1_555 1_555
H3Q C7Q 1_555 1_555
C8Q C6Q 1_555 1_555
H4Q C8Q 1_555 1_555
C9Q C7Q 1_555 1_555
C10Q C9Q 1_555 1_555
C11Q C10Q 1_555 1_555
H5Q C11Q 1_555 1_555
C12Q C10Q 1_555 1_555
H6Q C12Q 1_555 1_555
C13Q C11Q 1_555 1_555
C14Q C12Q 1_555 1_555
C15Q C13Q 1_555 1_555
H7Q C15Q 1_555 1_555
C16Q C14Q 1_555 1_555
C17Q C13Q 1_555 1_555
O1BA C16BA 1_555 1_555
O2BA C17BA 1_555 1_555
O3BA C16BA 1_555 1_555
O4BA C17BA 1_555 1_555
C3BA C2M 1_555 1_555
C4BA C3BA 1_555 1_555
C5BA C4BA 1_555 1_555
H1BA C5BA 1_555 1_555
C6BA C4BA 1_555 1_555
H2BA C6BA 1_555 1_555
C7BA C5BA 1_555 1_555
H3BA C7BA 1_555 1_555
C8BA C6BA 1_555 1_555
H4BA C8BA 1_555 1_555
C9BA C7BA 1_555 1_555
C10BA C9BA 1_555 1_555
C11BA C10BA 1_555 1_555
H5BA C11BA 1_555 1_555
C12BA C10BA 1_555 1_555
H6BA C12BA 1_555 1_555
C13BA C11BA 1_555 1_555
C14BA C12BA 1_555 1_555
C15BA C13BA 1_555 1_555
H7BA C15BA 1_555 1_555
C16BA C14BA 1_555 1_555
C17BA C13BA 1_555 1_555
Zn1B O2Q 1_555 1_555
O5B Zn1B 1_555 1_555
Zn2J O3 1_555 1_555
O6J Zn2J 1_555 1_555
Zn1E O4Q 1_555 1_555
Zn1G O4 1_555 1_555
Zn1H O4BA 1_555 1_555
Zn1J O4M 1_555 1_555
Zn1M O2M 1_555 1_555
Zn1O O2BA 1_555 1_555
Zn2C O1Q 1_555 1_555
Zn2D O3BA 1_555 1_555
Zn2G O3M 1_555 1_555
Zn2I O3Q 1_555 1_555
Zn2M O1M 1_555 1_555
Zn2N O1BA 1_555 1_555
O1J Zn2J 1_555 1_555
O1R Zn2 1_555 1_555
O1X Zn2J 1_555 1_555
O2B Zn1B 1_555 1_555
O2S Zn1 1_555 1_555
O3J Zn2 1_555 1_555
O3R Zn2J 1_555 1_555
O3X Zn2 1_555 1_555
O4E Zn1B 1_555 1_555
O4G Zn1 1_555 1_555
O4T Zn1 1_555 1_555
O4V Zn1B 1_555 1_555
C8 C9 1_555 1_555
C14 C15 1_555 1_555
C8M C9M 1_555 1_555
C14M C15M 1_555 1_555
C3Q C3BA 1_555 1_555
C8Q C9Q 1_555 1_555
C14Q C15Q 1_555 1_555
C8BA C9BA 1_555 1_555
C14BA C15BA 1_555 1_555

#END
