
#######################################################################
#
#                 Cambridge Crystallographic Data Centre
#                                CCDC 
#
#######################################################################
#
# If this CIF has been generated from an entry in the Cambridge 
# Structural Database, then it will include bibliographic, chemical, 
# crystal, experimental, refinement or atomic coordinate data resulting 
# from the CCDC's data processing and validation procedures.
#
#######################################################################

data_RULQIY
_chemical_formula_moiety         '(C24 H36 Cu3 O36 Yb2)n'
_symmetry_cell_setting           hexagonal
_symmetry_space_group_name_H-M   'P 6/m c c'
_symmetry_Int_Tables_number      192
_space_group_name_Hall           '-P 6 2c'
loop_
_symmetry_equiv_pos_site_id
_symmetry_equiv_pos_as_xyz
1 x,y,z
2 x-y,x,z
3 -y,-x,1/2-z
4 -y,x-y,z
5 x-y,-y,1/2-z
6 -x,-y,z
7 x,x-y,1/2-z
8 -x+y,-x,z
9 y,x,1/2-z
10 y,-x+y,z
11 -x+y,y,1/2-z
12 -x,-x+y,1/2-z
13 -x,-y,-z
14 -x+y,-x,-z
15 y,x,1/2+z
16 y,-x+y,-z
17 -x+y,y,1/2+z
18 x,y,-z
19 -x,-x+y,1/2+z
20 x-y,x,-z
21 -y,-x,1/2+z
22 -y,x-y,-z
23 x-y,-y,1/2+z
24 x,x-y,1/2+z
_cell_length_a                   14.344(3)
_cell_length_b                   14.344(3)
_cell_length_c                   15.470(7)
_cell_angle_alpha                90
_cell_angle_beta                 90
_cell_angle_gamma                120
_cell_volume                     2756.52
loop_
_atom_site_label
_atom_site_type_symbol
_atom_site_fract_x
_atom_site_fract_y
_atom_site_fract_z
Yb1 Yb 0.666 0.333 0.2500
O1 O 0.7638(5) 0.2362 0.2500
O2 O 0.6140(7) 0.1963(6) 0.3543(6)
O3 O 0.611(1) 0.0544(9) 0.411(1)
O4 O 0.517(2) -0.164(2) 0.5000
C1 C 0.739(2) 0.148(1) 0.309(1)
C2 C 0.648(1) 0.135(1) 0.363(1)
Cu1 Cu 0.5000 0.0000 0.5000
C1B C 0.852(1) 0.261(2) 0.191(1)
C2B C 0.865(1) 0.352(1) 0.137(1)
O2B O 0.8037(6) 0.3860(7) 0.1457(6)
O3B O 0.9456(9) 0.389(1) 0.089(1)
O1E O 0.2362(5) -0.2362 0.2500
O2E O 0.3860(7) -0.1963(6) 0.3543(6)
O3E O 0.389(1) -0.0544(9) 0.411(1)
C1E C 0.261(2) -0.148(1) 0.309(1)
C2E C 0.352(1) -0.135(1) 0.363(1)
C1H C 0.148(1) -0.261(2) 0.191(1)
C2H C 0.135(1) -0.352(1) 0.137(1)
O2H O 0.1963(6) -0.3860(7) 0.1457(6)
O3H O 0.0544(9) -0.389(1) 0.089(1)
O4E O 0.483(2) 0.164(2) 0.5000
Yb1E Yb 0.334 -0.333 0.2500
O1C O 0.7638 0.5276(5) 0.2500
O1G O 0.4724(5) 0.2362(5) 0.2500
O2C O 0.8037(6) 0.4177(9) 0.3543(6)
O2F O 0.6140(7) 0.4177(9) 0.1457(6)
O2G O 0.5823(9) 0.3860(7) 0.3543(6)
O2J O 0.5823(9) 0.1963(6) 0.1457(6)
O3L O 0.389(1) -0.0544(9) 0.589(1)
O3Q O 0.611(1) 0.0544(9) 0.589(1)
Cu1B Cu 1.0000 0.5000 0.0000
Cu1B_2 Cu 0.0000 -0.5000 0.0000
O1A O 0.5276(5) -0.2362(5) 0.2500
O1I O 0.2362 -0.5276(5) 0.2500
O2A O 0.4177(9) -0.3860(7) 0.3543(6)
O2D O 0.4177(9) -0.1963(6) 0.1457(6)
O2I O 0.1963(6) -0.4177(9) 0.3543(6)
O2K O 0.3860(7) -0.4177(9) 0.1457(6)
C1C C 0.852(1) 0.591(2) 0.309(1)
C1F C 0.739(2) 0.591(2) 0.191(1)
C2F C 0.648(1) 0.513(1) 0.137(1)
C1G C 0.409(2) 0.261(2) 0.309(1)
C1J C 0.409(2) 0.148(1) 0.191(1)
C2G C 0.487(1) 0.352(1) 0.363(1)
O3F O 0.611(1) 0.5566(13) 0.089(1)
C2C C 0.865(1) 0.513(1) 0.363(1)
C2J C 0.487(1) 0.135(1) 0.137(1)
O3G O 0.4434(13) 0.389(1) 0.411(1)
Cu1F Cu 0.5000 0.5000 0.0000
O3C O 0.9456(9) 0.5566(13) 0.411(1)
O3J O 0.4434(13) 0.0544(9) 0.089(1)
Cu1A Cu 0.5000 0.5000 0.5000
Cu1C Cu 1.0000 0.5000 0.5000
Cu1D Cu 0.5000 0.0000 0.0000
C2D C 0.513(1) -0.135(1) 0.137(1)
C1A C 0.591(2) -0.261(2) 0.309(1)
C1D C 0.591(2) -0.148(1) 0.191(1)
C2K C 0.352(1) -0.513(1) 0.137(1)
C1I C 0.148(1) -0.591(2) 0.309(1)
C1K C 0.261(2) -0.591(2) 0.191(1)
C2A C 0.513(1) -0.352(1) 0.363(1)
C2I C 0.135(1) -0.513(1) 0.363(1)
O3D O 0.5566(13) -0.0544(9) 0.089(1)
O3K O 0.389(1) -0.5566(13) 0.089(1)
O3I O 0.0544(9) -0.5566(13) 0.411(1)
Cu1F_2 Cu 0.5000 -0.5000 0.0000
Cu1C_2 Cu 0.0000 -0.5000 0.5000
O3A O 0.5566(13) -0.389(1) 0.411(1)
O3P O 0.4434(13) 0.0544(9) -0.089(1)
O3V O 0.5566(13) -0.0544(9) -0.089(1)
O4D O 0.681(3) 0.164(2) 0.0000
O4J O 0.319(3) -0.164(2) 0.0000
Cu1A_2 Cu 0.5000 -0.5000 0.5000
O3K_2 O 0.389(1) 0.4434(13) 0.089(1)
O3R O 0.389(1) 0.4434(13) -0.089(1)
O3W O 0.611(1) 0.5566(13) -0.089(1)
O4F O 0.517(2) 0.681(3) 0.0000
O4K O 0.483(2) 0.319(3) 0.0000
loop_
_geom_bond_atom_site_label_1
_geom_bond_atom_site_label_2
_geom_bond_site_symmetry_1
_geom_bond_site_symmetry_2
Yb1 O1 1_555 1_555
O1 C1 1_555 1_555
O2 Yb1 1_555 1_555
O3 C2 1_555 1_555
O4 Cu1 1_555 1_555
C1 C2 1_555 1_555
C2 O2 1_555 1_555
Cu1 O3 1_555 1_555
C1B O1 1_555 1_555
C2B C1B 1_555 1_555
O2B Yb1 1_555 1_555
O3B C2B 1_555 1_555
O1E C1E 1_555 1_555
O2E C2E 1_555 1_555
O3E Cu1 1_555 1_555
C1E C2E 1_555 1_555
C2E O3E 1_555 1_555
C1H O1E 1_555 1_555
C2H C1H 1_555 1_555
O2H C2H 1_555 1_555
O3H C2H 1_555 1_555
O4E Cu1 1_555 1_555
Yb1E O1E 1_555 1_555
O1C Yb1 1_555 1_555
O1G Yb1 1_555 1_555
O2C Yb1 1_555 1_555
O2F Yb1 1_555 1_555
O2G Yb1 1_555 1_555
O2J Yb1 1_555 1_555
O3L Cu1 1_555 1_555
O3Q Cu1 1_555 1_555
Cu1B O3B 1_555 1_555
Cu1B_2 O3H 1_555 1_555
O1A Yb1E 1_555 1_555
O1I Yb1E 1_555 1_555
O2A Yb1E 1_555 1_555
O2D Yb1E 1_555 1_555
O2I Yb1E 1_555 1_555
O2K Yb1E 1_555 1_555
C1C O1C 1_555 1_555
C1F O1C 1_555 1_555
C2F O2F 1_555 1_555
C1G O1G 1_555 1_555
C1J O1G 1_555 1_555
C2G O2G 1_555 1_555
O3F C2F 1_555 1_555
C2C O2C 1_555 1_555
C2J O2J 1_555 1_555
O3G C2G 1_555 1_555
Cu1F O3F 1_555 1_555
O3C C2C 1_555 1_555
O3J C2J 1_555 1_555
Cu1A O3G 1_555 1_555
Cu1C O3C 1_555 1_555
Cu1D O3J 1_555 1_555
C2D O2D 1_555 1_555
C1A O1A 1_555 1_555
C1D O1A 1_555 1_555
C2K O2K 1_555 1_555
C1I O1I 1_555 1_555
C1K O1I 1_555 1_555
C2A O2A 1_555 1_555
C2I O2I 1_555 1_555
O3D Cu1D 1_555 1_555
O3K C2K 1_555 1_555
O3I C2I 1_555 1_555
Cu1F_2 O3K 1_555 1_555
Cu1C_2 O3I 1_555 1_555
O3A C2A 1_555 1_555
O3P Cu1D 1_555 1_555
O3V Cu1D 1_555 1_555
O4D Cu1D 1_555 1_555
O4J Cu1D 1_555 1_555
Cu1A_2 O3A 1_555 1_555
O3K_2 Cu1F 1_555 1_555
O3R Cu1F 1_555 1_555
O3W Cu1F 1_555 1_555
O4F Cu1F 1_555 1_555
O4K Cu1F 1_555 1_555
C2B O2B 1_555 1_555
O2E Yb1E 1_555 1_555
O2H Yb1E 1_555 1_555
C1C C2C 1_555 1_555
C1F C2F 1_555 1_555
C1G C2G 1_555 1_555
C1J C2J 1_555 1_555
C2D O3D 1_555 1_555
C2D C1D 1_555 1_555
C1A C2A 1_555 1_555
C2K C1K 1_555 1_555
C1I C2I 1_555 1_555

#END
