
#######################################################################
#
#                 Cambridge Crystallographic Data Centre
#                                CCDC 
#
#######################################################################
#
# If this CIF has been generated from an entry in the Cambridge 
# Structural Database, then it will include bibliographic, chemical, 
# crystal, experimental, refinement or atomic coordinate data resulting 
# from the CCDC's data processing and validation procedures.
#
#######################################################################

data_RUYKAZ
_chemical_formula_moiety         '(C76 H81 Ag2 Cl3 F12 N4 O3 P2 S8)n'
_symmetry_cell_setting           monoclinic
_symmetry_space_group_name_H-M   'P 21/n'
_symmetry_Int_Tables_number      14
_space_group_name_Hall           '-P 2yn'
loop_
_symmetry_equiv_pos_site_id
_symmetry_equiv_pos_as_xyz
1 x,y,z
2 1/2-x,1/2+y,1/2-z
3 -x,-y,-z
4 1/2+x,1/2-y,1/2+z
_cell_length_a                   19.4752(6)
_cell_length_b                   25.5432(7)
_cell_length_c                   20.9692(6)
_cell_angle_alpha                90
_cell_angle_beta                 114.2950(10)
_cell_angle_gamma                90
_cell_volume                     9507.51
loop_
_atom_site_label
_atom_site_type_symbol
_atom_site_fract_x
_atom_site_fract_y
_atom_site_fract_z
_atom_site_U_iso_or_equiv
_atom_site_thermal_displace_type
P1 P 0.4628(3) 0.8570(2) 0.8966(3) 0.1510 Uiso
F1 F 0.5072(13) 0.8582(11) 0.8482(12) 0.5500 Uiso
F2 F 0.4171(14) 0.9080(7) 0.8586(13) 0.5500 Uiso
F3 F 0.4159(11) 0.8579(8) 0.9421(10) 0.3290 Uiso
F4 F 0.5040(10) 0.8064(6) 0.9329(10) 0.3550 Uiso
F5 F 0.3969(8) 0.8235(6) 0.8366(8) 0.2430 Uiso
F6 F 0.5259(12) 0.8908(9) 0.9547(12) 0.4170 Uiso
P2 P 0.60486(19) 0.83144(10) 0.58070(17) 0.0817 Uani
F7 F 0.6588(7) 0.8021(4) 0.6463(4) 0.1635 Uani
F8 F 0.5788(6) 0.8727(5) 0.6183(8) 0.2293 Uani
F9 F 0.5376(6) 0.7943(4) 0.5735(6) 0.1635 Uani
F10 F 0.6664(5) 0.8672(5) 0.5770(8) 0.2141 Uani
F11 F 0.6015(11) 0.7936(5) 0.5293(6) 0.2369 Uani
F12 F 0.5435(5) 0.8623(3) 0.5167(5) 0.1405 Uani
Ag1 Ag -0.29449(3) 1.02783(2) 0.64324(3) 0.0504 Uani
Ag2 Ag 0.29121(4) 1.06981(3) 0.87248(4) 0.0716 Uani
S1 S 0.22292(9) 0.99712(6) 0.79019(8) 0.0404 Uani
C1 C 0.1388(4) 1.0254(2) 0.7249(3) 0.0351 Uani
C2 C 0.0856(4) 0.9935(2) 0.6732(3) 0.0357 Uani
C3 C 0.0240(4) 1.0181(2) 0.6214(3) 0.0358 Uani
C4 C 0.0155(4) 1.0715(2) 0.6190(3) 0.0404 Uani
H1 H -0.0276 1.0870 0.5833 0.0490 Uiso
C5 C 0.0702(4) 1.1037(2) 0.6693(3) 0.0400 Uani
C6 C 0.1291(4) 1.0793(2) 0.7228(3) 0.0390 Uani
H2 H 0.1641 1.1000 0.7593 0.0470 Uiso
S2 S 0.09901(10) 0.92463(6) 0.67376(9) 0.0408 Uani
C7 C 0.1513(5) 0.9213(3) 0.6191(5) 0.0553 Uani
H3 H 0.1214 0.9358 0.5720 0.0670 Uiso
H4 H 0.1995 0.9406 0.6407 0.0670 Uiso
C8 C 0.1649(5) 0.8628(3) 0.6154(5) 0.0581 Uani
C9 C 0.2331(6) 0.8420(4) 0.6600(6) 0.0797 Uani
H5 H 0.2732 0.8641 0.6885 0.0960 Uiso
C10 C 0.2418(6) 0.7884(4) 0.6624(6) 0.0878 Uani
H6 H 0.2858 0.7730 0.6969 0.1050 Uiso
C11 C 0.1870(5) 0.7572(3) 0.6149(5) 0.0574 Uani
C12 C 0.1201(5) 0.7783(3) 0.5675(4) 0.0610 Uani
H7 H 0.0816 0.7569 0.5352 0.0740 Uiso
C13 C 0.1115(5) 0.8316(3) 0.5690(4) 0.0607 Uani
H8 H 0.0664 0.8472 0.5363 0.0730 Uiso
C14 C 0.1958(5) 0.7003(4) 0.6188(5) 0.0671 Uani
N1 N 0.2019(5) 0.6563(3) 0.6228(4) 0.0727 Uani
C15 C 0.0614(5) 1.1633(3) 0.6638(4) 0.0536 Uani
C16 C -0.0221(5) 1.1786(4) 0.6423(5) 0.0720 Uani
H9 H -0.0487 1.1780 0.5912 0.1080 Uiso
H10 H -0.0247 1.2139 0.6595 0.1080 Uiso
H11 H -0.0458 1.1537 0.6626 0.1080 Uiso
C17 C 0.0805(8) 1.1787(4) 0.6003(8) 0.1049 Uani
H12 H 0.1341 1.1874 0.6174 0.1570 Uiso
H13 H 0.0502 1.2091 0.5762 0.1570 Uiso
H14 H 0.0690 1.1492 0.5677 0.1570 Uiso
C18 C 0.1056(9) 1.1876(4) 0.7355(7) 0.1555 Uani
H15 H 0.0779 1.1826 0.7649 0.2340 Uiso
H16 H 0.1123 1.2251 0.7301 0.2340 Uiso
H17 H 0.1550 1.1707 0.7576 0.2340 Uiso
S3 S -0.04558(10) 0.98171(7) 0.55164(8) 0.0411 Uani
C19 C -0.0914(4) 0.9453(2) 0.5958(3) 0.0375 Uani
C20 C -0.1337(4) 0.9688(2) 0.6294(3) 0.0365 Uani
C21 C -0.1600(3) 0.9354(2) 0.6668(3) 0.0327 Uani
C22 C -0.1524(4) 0.8811(2) 0.6656(3) 0.0421 Uani
H18 H -0.1720 0.8597 0.6912 0.0510 Uiso
C23 C -0.1170(4) 0.8578(2) 0.6279(4) 0.0437 Uani
C24 C -0.0852(4) 0.8915(3) 0.5936(4) 0.0431 Uani
H19 H -0.0590 0.8768 0.5684 0.0520 Uiso
S4 S -0.15309(10) 1.03717(6) 0.62469(9) 0.0395 Uani
C25 C -0.2045(4) 1.0484(3) 0.5310(4) 0.0435 Uani
H20 H -0.1991 1.0857 0.5211 0.0520 Uiso
H21 H -0.1809 1.0272 0.5059 0.0520 Uiso
C26 C -0.2872(4) 1.0351(3) 0.5023(4) 0.0454 Uani
C27 C -0.3406(5) 1.0745(3) 0.4735(5) 0.0640 Uani
H22 H -0.3251 1.1099 0.4746 0.0770 Uiso
C28 C -0.4169(5) 1.0619(3) 0.4430(5) 0.0641 Uani
H23 H -0.4531 1.0888 0.4227 0.0770 Uiso
C29 C -0.4407(4) 1.0109(3) 0.4419(4) 0.0520 Uani
C30 C -0.3856(4) 0.9707(3) 0.4738(4) 0.0531 Uani
H24 H -0.4014 0.9357 0.4757 0.0640 Uiso
C31 C -0.3113(4) 0.9824(3) 0.5010(4) 0.0478 Uani
H25 H -0.2750 0.9554 0.5194 0.0580 Uiso
C32 C -0.5186(5) 0.9983(3) 0.4128(4) 0.0580 Uani
N2 N -0.5792(4) 0.9889(3) 0.3929(4) 0.0700 Uani
C33 C -0.1063(5) 0.7988(3) 0.6300(4) 0.0655 Uani
C34 C -0.0828(10) 0.7798(5) 0.5721(8) 0.0979 Uani
H26 H -0.0766 0.7416 0.5750 0.1470 Uiso
H27 H -0.0351 0.7963 0.5782 0.1470 Uiso
H28 H -0.1219 0.7893 0.5262 0.1470 Uiso
C35 C -0.1795(8) 0.7702(5) 0.6199(9) 0.0979 Uani
H29 H -0.1877 0.7410 0.5871 0.1470 Uiso
H30 H -0.2220 0.7946 0.6010 0.1470 Uiso
H31 H -0.1755 0.7566 0.6650 0.1470 Uiso
C36 C -0.0408(8) 0.7904(5) 0.7011(7) 0.0979 Uani
H32 H -0.0598 0.7756 0.7339 0.1470 Uiso
H33 H -0.0162 0.8239 0.7192 0.1470 Uiso
H34 H -0.0044 0.7661 0.6960 0.1470 Uiso
S5 S -0.20557(9) 0.95841(6) 0.72094(8) 0.0362 Uani
C37 C -0.1325(4) 0.9945(2) 0.7891(3) 0.0339 Uani
C38 C -0.0694(4) 0.9680(2) 0.8379(3) 0.0333 Uani
C39 C -0.0167(4) 0.9993(2) 0.8906(3) 0.0352 Uani
C40 C -0.0278(4) 1.0528(2) 0.8964(3) 0.0356 Uani
H35 H 0.0097 1.0725 0.9323 0.0430 Uiso
C41 C -0.0924(4) 1.0774(2) 0.8507(3) 0.0357 Uani
S6 S -0.05981(10) 0.89940(6) 0.83700(9) 0.0401 Uani
C42 C -0.1434(3) 1.0472(2) 0.7946(3) 0.0351 Uani
H36 H -0.1863 1.0637 0.7600 0.0420 Uiso
C43 C -0.1173(5) 0.8804(3) 0.8825(4) 0.0468 Uani
H37 H -0.0901 0.8879 0.9331 0.0560 Uiso
H38 H -0.1647 0.9009 0.8644 0.0560 Uiso
C44 C -0.1349(4) 0.8225(2) 0.8715(3) 0.0414 Uani
C45 C -0.0811(4) 0.7865(3) 0.9125(4) 0.0517 Uani
H39 H -0.0341 0.7987 0.9462 0.0620 Uiso
C46 C -0.0952(5) 0.7331(3) 0.9049(4) 0.0525 Uani
H40 H -0.0584 0.7085 0.9325 0.0630 Uiso
C47 C -0.1664(4) 0.7165(3) 0.8543(4) 0.0488 Uani
C48 C -0.2188(4) 0.7524(3) 0.8120(4) 0.0545 Uani
H41 H -0.2656 0.7405 0.7776 0.0660 Uiso
C49 C -0.2032(5) 0.8059(3) 0.8197(4) 0.0563 Uani
H42 H -0.2385 0.8305 0.7901 0.0680 Uiso
C50 C -0.1821(4) 0.6609(3) 0.8482(4) 0.0532 Uani
N3 N -0.1956(4) 0.6172(3) 0.8429(4) 0.0609 Uani
C51 C -0.1086(4) 1.1354(3) 0.8558(4) 0.0450 Uani
C52 C -0.1009(5) 1.1643(3) 0.7959(4) 0.0581 Uani
H43 H -0.0510 1.1575 0.7968 0.0870 Uiso
H44 H -0.1070 1.2019 0.8007 0.0870 Uiso
H45 H -0.1397 1.1520 0.7514 0.0870 Uiso
C53 C -0.0549(5) 1.1590(3) 0.9258(4) 0.0583 Uani
H46 H -0.0033 1.1473 0.9365 0.0870 Uiso
H47 H -0.0697 1.1474 0.9629 0.0870 Uiso
H48 H -0.0572 1.1973 0.9226 0.0870 Uiso
C54 C -0.1896(5) 1.1432(3) 0.8514(5) 0.0642 Uani
H49 H -0.1981 1.1804 0.8569 0.0970 Uiso
H50 H -0.1954 1.1232 0.8887 0.0970 Uiso
H51 H -0.2263 1.1309 0.8059 0.0970 Uiso
S7 S 0.06512(10) 0.97140(6) 0.95974(8) 0.0403 Uani
C55 C 0.1204(4) 0.9494(3) 0.9148(3) 0.0394 Uani
C56 C 0.1508(3) 0.9833(2) 0.8816(3) 0.0346 Uani
C57 C 0.1881(4) 0.9597(2) 0.8430(3) 0.0374 Uani
C58 C 0.1997(4) 0.9070(3) 0.8452(3) 0.0445 Uani
H52 H 0.2264 0.8927 0.8201 0.0530 Uiso
C59 C 0.1741(4) 0.8734(3) 0.8828(4) 0.0473 Uani
C60 C 0.1327(4) 0.8951(3) 0.9162(4) 0.0441 Uani
H53 H 0.1123 0.8730 0.9405 0.0530 Uiso
S8 S 0.14733(11) 1.05267(6) 0.88685(8) 0.0428 Uani
C61 C 0.1961(5) 1.0638(3) 0.9816(4) 0.0559 Uani
H54 H 0.1628 1.0535 1.0047 0.0670 Uiso
H55 H 0.2421 1.0420 1.0011 0.0670 Uiso
C62 C 0.2167(5) 1.1203(3) 0.9956(4) 0.0519 Uani
C63 C 0.1636(5) 1.1603(3) 0.9614(5) 0.0630 Uani
H56 H 0.1147 1.1512 0.9279 0.0760 Uiso
C64 C 0.1828(5) 1.2120(3) 0.9765(5) 0.0649 Uani
H57 H 0.1474 1.2387 0.9531 0.0780 Uiso
C65 C 0.2509(5) 1.2247(3) 1.0240(5) 0.0592 Uani
C66 C 0.3037(6) 1.1880(3) 1.0575(5) 0.0751 Uani
H58 H 0.3525 1.1979 1.0903 0.0900 Uiso
C67 C 0.2844(7) 1.1341(4) 1.0424(5) 0.0797 Uani
H59 H 0.3205 1.1079 1.0662 0.0960 Uiso
C68 C 0.2719(5) 1.2793(3) 1.0423(6) 0.0708 Uani
N4 N 0.2871(5) 1.3228(3) 1.0576(6) 0.0872 Uani
C69 C 0.1894(5) 0.8142(3) 0.8879(5) 0.0731 Uani
C70 C 0.2758(8) 0.8058(8) 0.9288(16) 0.0898 Uani
H60 H 0.3008 0.8399 0.9418 0.1350 Uiso
H61 H 0.2954 0.7870 0.8991 0.1350 Uiso
H62 H 0.2855 0.7853 0.9711 0.1350 Uiso
C71 C 0.1465(15) 0.7836(9) 0.9198(16) 0.0898 Uani
H63 H 0.1798 0.7746 0.9681 0.1350 Uiso
H64 H 0.1274 0.7514 0.8928 0.1350 Uiso
H65 H 0.1042 0.8045 0.9193 0.1350 Uiso
C72 C 0.1691(17) 0.7956(8) 0.8098(9) 0.0898 Uani
H66 H 0.1868 0.7596 0.8102 0.1350 Uiso
H67 H 0.1936 0.8187 0.7882 0.1350 Uiso
H68 H 0.1143 0.7969 0.7828 0.1350 Uiso
O1 O 0.3668(6) 1.0392(4) 0.9874(6) 0.1310 Uani
C73 C 0.3934(9) 0.9838(5) 0.9962(9) 0.1310 Uani
H69 H 0.3500 0.9602 0.9825 0.1970 Uiso
H70 H 0.4272 0.9775 1.0453 0.1970 Uiso
H71 H 0.4205 0.9773 0.9666 0.1970 Uiso
Ag1A Ag -0.20551(3) 0.52783(2) 0.85676(3) 0.0504 Uani
Ag1B Ag -0.70551(3) 0.97217(2) 0.35676(3) 0.0504 Uani
Ag2A Ag 0.20879(4) 0.56981(3) 0.62752(4) 0.0716 Uani
N1A N 0.2981(5) 1.1563(3) 0.8772(4) 0.0727 Uani
N2B N -0.4208(4) 1.0111(3) 0.6071(4) 0.0700 Uani
N3A N -0.3044(4) 1.1172(3) 0.6571(4) 0.0609 Uani
C80 C 0.2890(7) 0.0991(5) 0.6309(6) 0.0361 Uani
H90 H 0.3342 0.0767 0.6397 0.0430 Uiso
Cl1 Cl 0.2794(3) 0.14427(13) 0.5650(2) 0.0625 Uani
Cl2 Cl 0.3008(2) 0.13072(17) 0.70860(17) 0.0578 Uani
Cl3 Cl 0.20837(19) 0.05912(12) 0.59984(16) 0.0409 Uani
C81 C 0.3282(13) 0.9853(10) 0.2204(11) 0.1077 Uani
H91 H 0.3577 1.0167 0.2414 0.1610 Uiso
H92 H 0.3623 0.9560 0.2246 0.1610 Uiso
H93 H 0.2962 0.9765 0.2447 0.1610 Uiso
O2 O 0.2806(9) 0.9952(6) 0.1460(8) 0.0960 Uani
H94 H 0.3076 1.0059 0.1261 0.1440 Uiso
C82 C 0.5419(14) 0.9102(9) 0.3260(14) 0.1085 Uani
H95 H 0.5589 0.9323 0.3679 0.1610 Uiso
H96 H 0.5070 0.9301 0.2858 0.1610 Uiso
H97 H 0.5855 0.8993 0.3172 0.1610 Uiso
O3 O 0.5033(12) 0.8634(8) 0.3368(14) 0.1348 Uani
H98 H 0.5216 0.8364 0.3271 0.2000 Uiso
loop_
_atom_site_aniso_label
_atom_site_aniso_U_11
_atom_site_aniso_U_22
_atom_site_aniso_U_33
_atom_site_aniso_U_23
_atom_site_aniso_U_13
_atom_site_aniso_U_12
P2 0.101(2) 0.0484(13) 0.0942(19) 0.0076(13) 0.0386(16) 0.0016(13)
F7 0.222(10) 0.150(8) 0.102(6) 0.068(5) 0.050(6) 0.073(7)
F8 0.116(7) 0.170(10) 0.311(16) -0.127(11) -0.004(8) 0.051(7)
F9 0.173(9) 0.130(8) 0.170(9) 0.006(7) 0.053(7) -0.058(7)
F10 0.087(6) 0.182(10) 0.321(16) 0.153(11) 0.031(7) -0.018(6)
F11 0.40(2) 0.174(12) 0.133(9) -0.015(8) 0.106(12) -0.040(13)
F12 0.133(7) 0.103(6) 0.157(8) 0.039(5) 0.031(6) -0.008(5)
Ag1 0.0428(4) 0.0361(3) 0.0651(4) -0.0059(2) 0.0150(3) 0.0060(2)
Ag2 0.0812(5) 0.0483(4) 0.0669(4) 0.0048(3) 0.0119(4) -0.0180(3)
S1 0.0416(9) 0.0337(8) 0.0468(8) 0.0082(6) 0.0191(7) 0.0049(7)
C1 0.039(3) 0.029(3) 0.040(3) 0.007(2) 0.019(3) 0.006(2)
C2 0.047(4) 0.027(3) 0.040(3) 0.003(2) 0.025(3) 0.003(3)
C3 0.041(3) 0.036(3) 0.038(3) -0.001(2) 0.024(3) 0.000(3)
C4 0.046(4) 0.036(3) 0.042(3) 0.008(3) 0.021(3) 0.007(3)
C5 0.049(4) 0.029(3) 0.044(3) 0.003(2) 0.021(3) 0.003(3)
C6 0.046(4) 0.032(3) 0.042(3) 0.005(2) 0.021(3) 0.000(3)
S2 0.0534(10) 0.0280(8) 0.0469(9) 0.0036(6) 0.0265(8) 0.0075(7)
C7 0.068(5) 0.041(4) 0.077(5) 0.010(4) 0.050(4) 0.017(4)
C8 0.066(5) 0.049(4) 0.075(5) 0.004(4) 0.045(4) 0.017(4)
C9 0.070(6) 0.051(5) 0.102(7) -0.009(5) 0.019(5) 0.021(4)
C10 0.066(6) 0.064(6) 0.112(8) -0.003(6) 0.015(6) 0.032(5)
C11 0.069(5) 0.036(4) 0.078(5) -0.003(4) 0.041(4) 0.013(4)
C12 0.069(5) 0.050(5) 0.057(4) -0.011(4) 0.019(4) 0.010(4)
C13 0.070(5) 0.055(5) 0.052(4) -0.001(4) 0.020(4) 0.026(4)
C14 0.082(6) 0.052(5) 0.075(5) -0.004(4) 0.040(5) 0.026(4)
N1 0.086(6) 0.048(4) 0.084(5) -0.001(4) 0.035(4) 0.026(4)
C15 0.068(5) 0.030(3) 0.057(4) 0.003(3) 0.020(4) 0.004(3)
C16 0.083(6) 0.055(5) 0.082(6) 0.013(4) 0.038(5) 0.028(5)
C17 0.129(10) 0.058(6) 0.165(13) 0.045(7) 0.098(10) 0.022(6)
C18 0.177(14) 0.050(6) 0.118(10) -0.045(6) -0.062(9) 0.046(7)
S3 0.0485(10) 0.0381(8) 0.0378(8) -0.0003(6) 0.0189(7) 0.0020(7)
C19 0.043(3) 0.028(3) 0.037(3) -0.003(2) 0.012(3) 0.001(3)
C20 0.038(3) 0.024(3) 0.043(3) -0.007(2) 0.012(3) 0.000(2)
C21 0.036(3) 0.022(3) 0.038(3) -0.005(2) 0.013(2) -0.002(2)
C22 0.054(4) 0.025(3) 0.050(4) -0.008(3) 0.024(3) -0.005(3)
C23 0.056(4) 0.022(3) 0.047(3) -0.005(2) 0.015(3) -0.001(3)
C24 0.052(4) 0.029(3) 0.047(3) -0.007(3) 0.019(3) 0.004(3)
S4 0.0479(9) 0.0220(7) 0.0499(9) -0.0026(6) 0.0213(7) 0.0010(6)
C25 0.045(4) 0.031(3) 0.054(4) 0.009(3) 0.020(3) 0.000(3)
C26 0.045(4) 0.037(4) 0.049(4) 0.006(3) 0.014(3) 0.005(3)
C27 0.050(5) 0.038(4) 0.087(6) 0.002(4) 0.011(4) 0.003(3)
C28 0.048(5) 0.055(5) 0.076(5) -0.001(4) 0.012(4) 0.014(4)
C29 0.042(4) 0.056(4) 0.051(4) -0.002(3) 0.012(3) 0.001(3)
C30 0.045(4) 0.038(4) 0.069(5) -0.005(3) 0.016(4) -0.004(3)
C31 0.048(4) 0.034(3) 0.056(4) 0.006(3) 0.016(3) 0.006(3)
C32 0.056(5) 0.052(5) 0.065(5) 0.003(4) 0.024(4) 0.007(4)
N2 0.049(4) 0.065(5) 0.083(5) -0.013(4) 0.014(4) -0.002(4)
C33 0.104(7) 0.021(3) 0.069(5) -0.006(3) 0.033(5) 0.015(4)
C34 0.138(10) 0.032(4) 0.146(9) -0.012(4) 0.081(7) 0.001(4)
C35 0.138(10) 0.032(4) 0.146(9) -0.012(4) 0.081(7) 0.001(4)
C36 0.138(10) 0.032(4) 0.146(9) -0.012(4) 0.081(7) 0.001(4)
S5 0.0384(8) 0.0240(7) 0.0481(8) -0.0074(6) 0.0196(7) -0.0053(6)
C37 0.039(3) 0.029(3) 0.037(3) -0.008(2) 0.019(2) -0.006(2)
C38 0.043(3) 0.023(3) 0.044(3) -0.002(2) 0.028(3) -0.006(2)
C39 0.040(3) 0.030(3) 0.036(3) 0.005(2) 0.016(3) 0.004(2)
C40 0.045(3) 0.025(3) 0.037(3) -0.002(2) 0.017(3) -0.007(3)
C41 0.049(4) 0.022(3) 0.043(3) -0.003(2) 0.026(3) -0.003(2)
S6 0.0491(10) 0.0202(7) 0.0566(9) -0.0013(6) 0.0273(8) -0.0008(6)
C42 0.035(3) 0.031(3) 0.039(3) -0.005(2) 0.015(3) -0.002(2)
C43 0.066(5) 0.028(3) 0.057(4) -0.007(3) 0.036(4) -0.012(3)
C44 0.053(4) 0.029(3) 0.045(3) -0.003(2) 0.023(3) -0.006(3)
C45 0.061(5) 0.036(4) 0.043(4) 0.000(3) 0.006(3) -0.012(3)
C46 0.066(5) 0.034(4) 0.048(4) 0.003(3) 0.014(3) -0.004(3)
C47 0.059(4) 0.026(3) 0.059(4) -0.002(3) 0.022(3) -0.012(3)
C48 0.046(4) 0.036(4) 0.064(4) -0.005(3) 0.005(3) -0.008(3)
C49 0.062(5) 0.038(4) 0.059(4) 0.005(3) 0.015(4) -0.006(3)
C50 0.053(4) 0.034(4) 0.072(5) 0.005(3) 0.025(4) -0.004(3)
N3 0.061(4) 0.034(3) 0.083(5) -0.007(3) 0.025(4) -0.013(3)
C51 0.046(4) 0.029(3) 0.052(4) -0.011(3) 0.012(3) 0.005(3)
C52 0.072(5) 0.030(4) 0.066(5) 0.007(3) 0.022(4) 0.004(3)
C53 0.073(5) 0.031(4) 0.059(4) -0.016(3) 0.015(4) 0.002(3)
C54 0.062(5) 0.046(4) 0.092(6) -0.030(4) 0.039(5) -0.003(4)
S7 0.0514(10) 0.0325(8) 0.0377(8) 0.0071(6) 0.0191(7) 0.0022(7)
C55 0.040(3) 0.033(3) 0.043(3) 0.010(3) 0.015(3) 0.008(3)
C56 0.036(3) 0.028(3) 0.032(3) 0.002(2) 0.006(2) 0.005(2)
C57 0.042(4) 0.033(3) 0.037(3) 0.002(2) 0.016(3) 0.001(3)
C58 0.049(4) 0.035(3) 0.046(3) 0.010(3) 0.016(3) 0.016(3)
C59 0.051(4) 0.027(3) 0.060(4) 0.015(3) 0.019(3) 0.013(3)
C60 0.043(4) 0.035(3) 0.056(4) 0.016(3) 0.022(3) 0.007(3)
S8 0.0626(11) 0.0255(7) 0.0427(8) 0.0018(6) 0.0240(8) -0.0030(7)
C61 0.076(5) 0.042(4) 0.045(4) -0.002(3) 0.020(4) -0.011(4)
C62 0.070(5) 0.040(4) 0.050(4) -0.006(3) 0.029(4) -0.018(4)
C63 0.064(5) 0.045(4) 0.087(6) -0.010(4) 0.038(5) -0.016(4)
C64 0.077(6) 0.036(4) 0.091(6) -0.005(4) 0.044(5) -0.009(4)
C65 0.077(6) 0.041(4) 0.071(5) -0.007(4) 0.042(5) -0.018(4)
C66 0.087(7) 0.047(5) 0.080(6) -0.009(4) 0.023(5) -0.023(5)
C67 0.101(8) 0.047(5) 0.075(6) -0.008(4) 0.020(5) -0.008(5)
C68 0.075(6) 0.042(4) 0.107(7) -0.008(4) 0.049(5) -0.023(4)
N4 0.078(6) 0.049(4) 0.143(8) -0.014(5) 0.054(6) -0.017(4)
C69 0.098(7) 0.030(4) 0.102(7) 0.024(4) 0.052(6) 0.029(4)
C70 0.116(13) 0.052(8) 0.114(13) 0.029(7) 0.060(10) 0.044(8)
C71 0.116(13) 0.052(8) 0.114(13) 0.029(7) 0.060(10) 0.044(8)
C72 0.116(13) 0.052(8) 0.114(13) 0.029(7) 0.060(10) 0.044(8)
O1 0.126(6) 0.110(6) 0.137(7) 0.020(5) 0.034(5) 0.041(5)
C73 0.126(6) 0.110(6) 0.137(7) 0.020(5) 0.034(5) 0.041(5)
Ag1A 0.0428 0.0361 0.0651 0.0059 0.015 -0.006
Ag1B 0.0428 0.0361 0.0651 -0.0059 0.015 0.006
Ag2A 0.0812 0.0483 0.0669 -0.0048 0.0119 0.018
N1A 0.086 0.048 0.084 0.001 0.035 -0.026
N2B 0.049 0.065 0.083 -0.013 0.014 -0.002
N3A 0.061 0.034 0.083 0.007 0.025 0.013
C80 0.029(6) 0.048(7) 0.035(6) -0.015(5) 0.017(5) -0.018(5)
Cl1 0.103(3) 0.0258(16) 0.066(2) 0.0025(15) 0.042(2) -0.0159(18)
Cl2 0.059(2) 0.075(3) 0.0391(16) -0.0246(16) 0.0198(15) -0.0263(19)
Cl3 0.0499(18) 0.0389(16) 0.0461(16) -0.0177(12) 0.0322(14) -0.0176(13)
C81 0.108(19) 0.093(17) 0.121(19) -0.014(15) 0.046(16) -0.053(15)
O2 0.139(14) 0.090(10) 0.097(10) 0.039(8) 0.087(11) 0.018(10)
C82 0.084(16) 0.13(2) 0.104(18) -0.032(16) 0.031(14) 0.017(15)
O3 0.113(14) 0.107(14) 0.20(2) -0.041(15) 0.080(15) -0.055(12)
loop_
_geom_bond_atom_site_label_1
_geom_bond_atom_site_label_2
_geom_bond_site_symmetry_1
_geom_bond_site_symmetry_2
P1 F1 1_555 1_555
F2 P1 1_555 1_555
F3 P1 1_555 1_555
F4 P1 1_555 1_555
F5 P1 1_555 1_555
F6 P1 1_555 1_555
P2 F7 1_555 1_555
F8 P2 1_555 1_555
F9 P2 1_555 1_555
F10 P2 1_555 1_555
F11 P2 1_555 1_555
F12 P2 1_555 1_555
Ag1 S4 1_555 1_555
Ag2 S1 1_555 1_555
S1 C1 1_555 1_555
C1 C2 1_555 1_555
C2 C3 1_555 1_555
C3 C4 1_555 1_555
C4 H1 1_555 1_555
C5 C4 1_555 1_555
C6 C1 1_555 1_555
H2 C6 1_555 1_555
S2 C2 1_555 1_555
C7 S2 1_555 1_555
H3 C7 1_555 1_555
H4 C7 1_555 1_555
C8 C7 1_555 1_555
C9 C8 1_555 1_555
H5 C9 1_555 1_555
C10 C9 1_555 1_555
H6 C10 1_555 1_555
C11 C10 1_555 1_555
C12 C11 1_555 1_555
H7 C12 1_555 1_555
C13 C8 1_555 1_555
H8 C13 1_555 1_555
C14 C11 1_555 1_555
N1 C14 1_555 1_555
C15 C5 1_555 1_555
C16 C15 1_555 1_555
H9 C16 1_555 1_555
H10 C16 1_555 1_555
H11 C16 1_555 1_555
C17 C15 1_555 1_555
H12 C17 1_555 1_555
H13 C17 1_555 1_555
H14 C17 1_555 1_555
C18 C15 1_555 1_555
H15 C18 1_555 1_555
H16 C18 1_555 1_555
H17 C18 1_555 1_555
S3 C3 1_555 1_555
C19 S3 1_555 1_555
C20 C19 1_555 1_555
C21 C20 1_555 1_555
C22 C21 1_555 1_555
H18 C22 1_555 1_555
C23 C22 1_555 1_555
C24 C19 1_555 1_555
H19 C24 1_555 1_555
S4 C20 1_555 1_555
C25 S4 1_555 1_555
H20 C25 1_555 1_555
H21 C25 1_555 1_555
C26 C25 1_555 1_555
C27 C26 1_555 1_555
H22 C27 1_555 1_555
C28 C27 1_555 1_555
H23 C28 1_555 1_555
C29 C28 1_555 1_555
C30 C29 1_555 1_555
H24 C30 1_555 1_555
C31 C26 1_555 1_555
H25 C31 1_555 1_555
C32 C29 1_555 1_555
N2 C32 1_555 1_555
C33 C23 1_555 1_555
C34 C33 1_555 1_555
H26 C34 1_555 1_555
H27 C34 1_555 1_555
H28 C34 1_555 1_555
C35 C33 1_555 1_555
H29 C35 1_555 1_555
H30 C35 1_555 1_555
H31 C35 1_555 1_555
C36 C33 1_555 1_555
H32 C36 1_555 1_555
H33 C36 1_555 1_555
H34 C36 1_555 1_555
S5 Ag1 1_555 1_555
C37 S5 1_555 1_555
C38 C37 1_555 1_555
C39 C38 1_555 1_555
C40 C39 1_555 1_555
H35 C40 1_555 1_555
C41 C40 1_555 1_555
S6 C38 1_555 1_555
C42 C37 1_555 1_555
H36 C42 1_555 1_555
C43 S6 1_555 1_555
H37 C43 1_555 1_555
H38 C43 1_555 1_555
C44 C43 1_555 1_555
C45 C44 1_555 1_555
H39 C45 1_555 1_555
C46 C45 1_555 1_555
H40 C46 1_555 1_555
C47 C46 1_555 1_555
C48 C47 1_555 1_555
H41 C48 1_555 1_555
C49 C44 1_555 1_555
H42 C49 1_555 1_555
C50 C47 1_555 1_555
N3 C50 1_555 1_555
C51 C41 1_555 1_555
C52 C51 1_555 1_555
H43 C52 1_555 1_555
H44 C52 1_555 1_555
H45 C52 1_555 1_555
C53 C51 1_555 1_555
H46 C53 1_555 1_555
H47 C53 1_555 1_555
H48 C53 1_555 1_555
C54 C51 1_555 1_555
H49 C54 1_555 1_555
H50 C54 1_555 1_555
H51 C54 1_555 1_555
S7 C39 1_555 1_555
C55 S7 1_555 1_555
C56 C55 1_555 1_555
C57 S1 1_555 1_555
C58 C57 1_555 1_555
H52 C58 1_555 1_555
C59 C58 1_555 1_555
C60 C55 1_555 1_555
H53 C60 1_555 1_555
S8 Ag2 1_555 1_555
C61 S8 1_555 1_555
H54 C61 1_555 1_555
H55 C61 1_555 1_555
C62 C61 1_555 1_555
C63 C62 1_555 1_555
H56 C63 1_555 1_555
C64 C63 1_555 1_555
H57 C64 1_555 1_555
C65 C64 1_555 1_555
C66 C65 1_555 1_555
H58 C66 1_555 1_555
C67 C62 1_555 1_555
H59 C67 1_555 1_555
C68 C65 1_555 1_555
N4 C68 1_555 1_555
C69 C59 1_555 1_555
C70 C69 1_555 1_555
H60 C70 1_555 1_555
H61 C70 1_555 1_555
H62 C70 1_555 1_555
C71 C69 1_555 1_555
H63 C71 1_555 1_555
H64 C71 1_555 1_555
H65 C71 1_555 1_555
C72 C69 1_555 1_555
H66 C72 1_555 1_555
H67 C72 1_555 1_555
H68 C72 1_555 1_555
O1 Ag2 1_555 1_555
C73 O1 1_555 1_555
H69 C73 1_555 1_555
H70 C73 1_555 1_555
H71 C73 1_555 1_555
C80 H90 1_555 1_555
Cl1 C80 1_555 1_555
Cl2 C80 1_555 1_555
Cl3 C80 1_555 1_555
C81 H91 1_555 1_555
H92 C81 1_555 1_555
H93 C81 1_555 1_555
O2 C81 1_555 1_555
H94 O2 1_555 1_555
C82 H95 1_555 1_555
H96 C82 1_555 1_555
H97 C82 1_555 1_555
O3 C82 1_555 1_555
H98 O3 1_555 1_555
Ag1A N3 1_555 1_555
Ag1B N2 1_555 1_555
Ag2A N1 1_555 1_555
N1A Ag2 1_555 1_555
N2B Ag1 1_555 1_555
N3A Ag1 1_555 1_555
C5 C6 1_555 1_555
C12 C13 1_555 1_555
C21 S5 1_555 1_555
C23 C24 1_555 1_555
C30 C31 1_555 1_555
C41 C42 1_555 1_555
C48 C49 1_555 1_555
C56 C57 1_555 1_555
C56 S8 1_555 1_555
C59 C60 1_555 1_555
C66 C67 1_555 1_555

#END
