
#######################################################################
#
#                 Cambridge Crystallographic Data Centre
#                                CCDC 
#
#######################################################################
#
# If this CIF has been generated from an entry in the Cambridge 
# Structural Database, then it will include bibliographic, chemical, 
# crystal, experimental, refinement or atomic coordinate data resulting 
# from the CCDC's data processing and validation procedures.
#
#######################################################################

data_SORHUE
_chemical_formula_moiety         'C30 H26 Ce9 N8 O28'
_symmetry_cell_setting           monoclinic
_symmetry_space_group_name_H-M   'C 2/m'
_symmetry_Int_Tables_number      12
_space_group_name_Hall           '-C 2y'
loop_
_symmetry_equiv_pos_site_id
_symmetry_equiv_pos_as_xyz
1 x,y,z
2 -x,y,-z
3 1/2+x,1/2+y,z
4 1/2-x,1/2+y,-z
5 -x,-y,-z
6 x,-y,z
7 1/2-x,1/2-y,-z
8 1/2+x,1/2-y,z
_cell_length_a                   7.696(4)
_cell_length_b                   21.222(11)
_cell_length_c                   19.668(10)
_cell_angle_alpha                90
_cell_angle_beta                 97.801(10)
_cell_angle_gamma                90
_cell_volume                     3182.54
loop_
_atom_site_label
_atom_site_type_symbol
_atom_site_fract_x
_atom_site_fract_y
_atom_site_fract_z
C13 C -0.808(5) 0.5000 0.1333(15)
C14 C -0.718(4) 0.5000 0.013(2)
C15 C -1.045(4) 0.5000 0.0282(18)
O8 O -0.689(5) 0.5000 0.1806(18)
N4 N -0.858(4) 0.5000 0.0580(14)
O9 O -0.001(5) 0.0000 0.3328(16)
H4 H -0.0632 0.0321 0.3379
H4E H -0.0632 -0.0321 0.3379
O10 O 0.039(6) 0.0658(14) 0.4275(16)
H5 H 0.0526 0.1032 0.4134
H6 H 0.1294 0.0563 0.4554
O11 O 0.256(9) 0.0000 0.525(3)
H7 H 0.2618 0.0310 0.5525
H7E H 0.2618 -0.0310 0.5525
C13A C -1.192(5) 0.5000 -0.1333(15)
C14A C -1.282(4) 0.5000 -0.013(2)
C15A C -0.955(4) 0.5000 -0.0282(18)
O8A O -1.311(5) 0.5000 -0.1806(18)
N4A N -1.142(4) 0.5000 -0.0580(14)
Ce1 Ce 0.00903(4) 0.22313(2) 0.24502(2)
O1 O -0.1314(7) 0.1166(2) 0.2656(3)
O2 O 0.1718(6) 0.1722(2) 0.3534(2)
O3 O 0.2963(6) 0.2601(2) 0.3269(2)
O4 O -0.3156(6) 0.2092(2) 0.1773(2)
O5 O -0.0932(6) 0.1813(2) 0.1256(2)
O6 O 0.0172(7) 0.3382(2) 0.2829(3)
O7 O 0.2688(7) 0.1670(2) 0.2139(2)
H1 H -0.1694 0.0933 0.2316
H2 H -0.0220 0.1081 0.2739
C1 C 0.2831(9) 0.2147(3) 0.3687(3)
C2 C -0.2551(9) 0.1892(3) 0.1237(3)
C3 C -0.1123(9) 0.3646(3) 0.2497(3)
C4 C 0.3967(9) 0.2148(3) 0.4360(3)
C5 C -0.3794(9) 0.1773(3) 0.0599(3)
C6 C -0.1221(9) 0.4349(3) 0.2505(3)
C7 C 0.4439(12) 0.1574(3) 0.4690(4)
C8 C 0.4487(9) 0.2715(3) 0.4680(3)
C9 C -0.3174(9) 0.1746(3) -0.0038(3)
C10 C -0.5578(9) 0.1755(3) 0.0627(3)
C11 C -0.2456(10) 0.4670(3) 0.2033(4)
C12 C -0.0053(9) 0.4674(3) 0.2984(3)
N1 N 0.366(3) 0.1002(10) 0.4468(11)
N2 N -0.149(2) 0.1599(7) -0.0094(7)
H3 H -0.5966 0.1749 0.1055
N3 N -0.369(3) 0.4438(9) 0.1498(10)
O3G O -0.2037(6) 0.2399(2) 0.3269(2)
O4G O 0.1844(6) 0.2908(2) 0.1773(2)
Ce1G Ce 0.50903(4) 0.27687(2) 0.24502(2)
Ce1G_2 Ce -0.49097(4) 0.27687(2) 0.24502(2)
O7G O -0.2312(7) 0.3330(2) 0.2139(2)
C7A C 0.5561(12) 0.1574(3) 0.5310(4)
C8A C 0.5513(9) 0.2715(3) 0.5320(3)
C10A C -0.4422(9) 0.1755(3) -0.0627(3)
C9A C -0.6826(9) 0.1746(3) 0.0038(3)
C11E C -0.2456(10) 0.5330(3) 0.2033(4)
C12E C -0.0053(9) 0.5326(3) 0.2984(3)
C4A C 0.6033(9) 0.2148(3) 0.5640(3)
N1A N 0.634(3) 0.1002(10) 0.5532(11)
C5A C -0.6206(9) 0.1773(3) -0.0599(3)
H3A H -0.4034 0.1749 -0.1055
N2A N -0.851(2) 0.1599(7) 0.0094(7)
C6E C -0.1221(9) 0.5651(3) 0.2505(3)
N3E N -0.369(3) 0.5562(9) 0.1498(10)
C1A C 0.7169(9) 0.2147(3) 0.6313(3)
C2A C -0.7449(9) 0.1892(3) -0.1237(3)
C3E C -0.1123(9) 0.6354(3) 0.2497(3)
O2A O 0.8282(6) 0.1722(2) 0.6466(2)
O3A O 0.7037(6) 0.2601(2) 0.6731(2)
O4A O -0.6844(6) 0.2092(2) -0.1773(2)
O5A O -0.9068(6) 0.1813(2) -0.1256(2)
O7B O -0.2312(7) 0.6670(2) 0.2139(2)
O6E O 0.0172(7) 0.6618(2) 0.2829(3)
Ce1A Ce 0.99097(4) 0.22313(2) 0.75498(2)
Ce1F Ce 0.49097(4) 0.27687(2) 0.75498(2)
Ce1A_2 Ce -1.00903(4) 0.22313(2) -0.24502(2)
Ce1F_2 Ce -0.50903(4) 0.27687(2) -0.24502(2)
Ce1B Ce -0.49097(4) 0.72313(2) 0.24502(2)
Ce1E Ce 0.00903(4) 0.77687(2) 0.24502(2)
O1A O -0.8686(7) 0.1166(2) -0.2656(3)
O2A_2 O -1.1718(6) 0.1722(2) -0.3534(2)
O3A_2 O -1.2963(6) 0.2601(2) -0.3269(2)
O3F O -0.7963(6) 0.2399(2) -0.3269(2)
O4F O -1.1844(6) 0.2908(2) -0.1773(2)
O7A O -1.2688(7) 0.1670(2) -0.2139(2)
O6A O -1.0172(7) 0.3382(2) -0.2829(3)
H1A H -0.8306 0.0933 -0.2316
H2A H -0.9780 0.1081 -0.2739
loop_
_geom_bond_atom_site_label_1
_geom_bond_atom_site_label_2
_geom_bond_site_symmetry_1
_geom_bond_site_symmetry_2
Ce1 O1 1_555 1_555
O1 H1 1_555 1_555
O2 Ce1 1_555 1_555
O3 Ce1 1_555 1_555
O4 Ce1 1_555 1_555
O5 Ce1 1_555 1_555
O6 Ce1 1_555 1_555
O7 Ce1 1_555 1_555
H2 O1 1_555 1_555
C1 O2 1_555 1_555
C2 O4 1_555 1_555
C3 O6 1_555 1_555
C4 C1 1_555 1_555
C5 C2 1_555 1_555
C6 C3 1_555 1_555
C7 C4 1_555 1_555
C8 C4 1_555 1_555
C9 C5 1_555 1_555
C10 C5 1_555 1_555
C11 C6 1_555 1_555
C12 C6 1_555 1_555
N1 C7 1_555 1_555
N2 C9 1_555 1_555
H3 C10 1_555 1_555
N3 C11 1_555 1_555
C13 O8 1_555 1_555
C14 N4 1_555 1_555
C15 N4 1_555 1_555
N4 C13 1_555 1_555
O9 H4 1_555 1_555
O10 H5 1_555 1_555
H6 O10 1_555 1_555
O11 H7 1_555 1_555
O3G Ce1 1_555 1_555
O4G Ce1 1_555 1_555
Ce1G O3 1_555 1_555
Ce1G_2 O4 1_555 1_555
O7G C3 1_555 1_555
C7A C7 1_555 1_555
C8A C8 1_555 1_555
C10A C9 1_555 1_555
C9A C10 1_555 1_555
C11E C11 1_555 1_555
C12E C12 1_555 1_555
C4A C7A 1_555 1_555
N1A C7A 1_555 1_555
C5A C10A 1_555 1_555
H3A C10A 1_555 1_555
N2A C9A 1_555 1_555
C6E C11E 1_555 1_555
N3E C11E 1_555 1_555
C1A C4A 1_555 1_555
C2A C5A 1_555 1_555
C3E C6E 1_555 1_555
O2A C1A 1_555 1_555
O3A C1A 1_555 1_555
O4A C2A 1_555 1_555
O5A C2A 1_555 1_555
O7B C3E 1_555 1_555
O6E C3E 1_555 1_555
Ce1A O2A 1_555 1_555
Ce1F O3A 1_555 1_555
Ce1A_2 O4A 1_555 1_555
Ce1F_2 O4A 1_555 1_555
Ce1B O7B 1_555 1_555
Ce1E O6E 1_555 1_555
O1A Ce1A_2 1_555 1_555
O2A_2 Ce1A_2 1_555 1_555
O3A_2 Ce1A_2 1_555 1_555
O3F Ce1A_2 1_555 1_555
O4F Ce1A_2 1_555 1_555
O7A Ce1A_2 1_555 1_555
O6A Ce1A_2 1_555 1_555
H1A O1A 1_555 1_555
H2A O1A 1_555 1_555
C13A O8A 1_555 1_555
C14A N4A 1_555 1_555
C15A N4A 1_555 1_555
N4A C13A 1_555 1_555
H4E O9 1_555 1_555
H7E O11 1_555 1_555
O3 C1 1_555 1_555
O5 C2 1_555 1_555
O3G Ce1G_2 1_555 1_555
O4G Ce1G 1_555 1_555
Ce1G_2 O7G 1_555 1_555
C8A C4A 1_555 1_555
C9A C5A 1_555 1_555
C12E C6E 1_555 1_555
O3A Ce1A 1_555 1_555
O5A Ce1A_2 1_555 1_555
Ce1F_2 O3F 1_555 1_555

#END
