
#######################################################################
#
#                 Cambridge Crystallographic Data Centre
#                                CCDC 
#
#######################################################################
#
# If this CIF has been generated from an entry in the Cambridge 
# Structural Database, then it will include bibliographic, chemical, 
# crystal, experimental, refinement or atomic coordinate data resulting 
# from the CCDC's data processing and validation procedures.
#
#######################################################################

data_TAPXIT
_chemical_formula_moiety         '(C28 H16 Na1 O10 Yb1)n'
_symmetry_cell_setting           orthorhombic
_symmetry_space_group_name_H-M   'C m c 21'
_symmetry_Int_Tables_number      36
_space_group_name_Hall           'C 2c -2'
loop_
_symmetry_equiv_pos_site_id
_symmetry_equiv_pos_as_xyz
1 x,y,z
2 -x,-y,1/2+z
3 x,-y,1/2+z
4 -x,y,z
5 1/2+x,1/2+y,z
6 1/2-x,1/2-y,1/2+z
7 1/2+x,1/2-y,1/2+z
8 1/2-x,1/2+y,z
_cell_length_a                   26.6753(16)
_cell_length_b                   15.5727(16)
_cell_length_c                   7.1782(5)
_cell_angle_alpha                90
_cell_angle_beta                 90
_cell_angle_gamma                90
_cell_volume                     2981.87
loop_
_atom_site_label
_atom_site_type_symbol
_atom_site_fract_x
_atom_site_fract_y
_atom_site_fract_z
Yb1 Yb 0.5000 0.12972(2) 0.2329(2)
Na1 Na 0.5000 0.1824(4) 0.7259(13)
O1 O 0.4412(3) 0.2436(5) 0.218(2)
O2 O 0.4548(3) 0.2031(6) 0.4723(13)
O3 O 0.2716(4) 0.4516(7) 0.6392(17)
O4 O 0.0539(3) 0.5302(6) 0.3287(14)
O5 O 0.0393(3) 0.4003(5) 0.4516(10)
C1 C 0.4296(4) 0.2478(7) 0.3584(15)
C2 C 0.3852(3) 0.2969(6) 0.4329(14)
C3 C 0.3541(6) 0.3390(11) 0.3049(19)
H1 H 0.3610 0.3362 0.1780
C4 C 0.3763(6) 0.3051(12) 0.624(3)
H2 H 0.3972 0.2743 0.7037
C5 C 0.3146(6) 0.3835(9) 0.367(2)
H3 H 0.2926 0.4093 0.2833
C6 C 0.3374(8) 0.3570(12) 0.710(3)
H4 H 0.3330 0.3670 0.8371
C7 C 0.3066(4) 0.3906(9) 0.559(2)
C8 C 0.2233(4) 0.4531(12) 0.546(2)
C9 C 0.2027(5) 0.5323(7) 0.5169(19)
H5 H 0.2218 0.5823 0.5210
C10 C 0.1954(5) 0.3732(7) 0.540(2)
H6 H 0.2102 0.3205 0.5662
C11 C 0.1510(5) 0.5338(7) 0.4806(17)
H7 H 0.1350 0.5866 0.4696
C12 C 0.1455(4) 0.3804(6) 0.4940(19)
H8 H 0.1263 0.3307 0.4850
C13 C 0.1229(4) 0.4588(7) 0.4603(16)
C14 C 0.0679(3) 0.4688(6) 0.4132(15)
Yb1D Yb 0.0000 0.62972(2) 0.2329(2)
Yb1E Yb 0.0000 0.37028(2) 0.7329(2)
Yb1D_2 Yb 1.0000 0.62972(2) 0.2329(2)
Yb1E_2 Yb 1.0000 0.37028(2) 0.7329(2)
Na1E Na 0.0000 0.3176(4) 0.2259(13)
Na1E_2 Na 1.0000 0.3176(4) 0.2259(13)
O1C O 0.5588(3) 0.2436(5) 0.218(2)
O2C O 0.5452(3) 0.2031(6) 0.4723(13)
O3C O 0.7284(4) 0.4516(7) 0.6392(17)
O4C O 0.9461(3) 0.5302(6) 0.3287(14)
O4D O 0.5539(3) 0.0302(6) 0.3287(14)
O4G O 0.4461(3) 0.0302(6) 0.3287(14)
O5C O 0.9607(3) 0.4003(5) 0.4516(10)
O5E O 0.4607(3) 0.0997(5) -0.0484(10)
O5F O 0.5393(3) 0.0997(5) -0.0484(10)
O5E_2 O 0.4607(3) 0.0997(5) 0.9516(10)
O5F_2 O 0.5393(3) 0.0997(5) 0.9516(10)
C1C C 0.5704(4) 0.2478(7) 0.3584(15)
C2C C 0.6148(3) 0.2969(6) 0.4329(14)
C3C C 0.6459(6) 0.3390(11) 0.3049(19)
H1C H 0.6390 0.3362 0.1780
C4C C 0.6237(6) 0.3051(12) 0.624(3)
H2C H 0.6028 0.2743 0.7037
C5C C 0.6854(6) 0.3835(9) 0.367(2)
H3C H 0.7074 0.4093 0.2833
C6C C 0.6626(8) 0.3570(12) 0.710(3)
H4C H 0.6670 0.3670 0.8371
C7C C 0.6934(4) 0.3906(9) 0.559(2)
C8C C 0.7767(4) 0.4531(12) 0.546(2)
C9C C 0.7973(5) 0.5323(7) 0.5169(19)
H5C H 0.7782 0.5823 0.5210
C10C C 0.8046(5) 0.3732(7) 0.540(2)
H6C H 0.7898 0.3205 0.5662
C11C C 0.8490(5) 0.5338(7) 0.4806(17)
H7C H 0.8650 0.5866 0.4696
C12C C 0.8545(4) 0.3804(6) 0.4940(19)
H8C H 0.8737 0.3307 0.4850
C13C C 0.8771(4) 0.4588(7) 0.4603(16)
C14C C 0.9321(3) 0.4688(6) 0.4132(15)
loop_
_geom_bond_atom_site_label_1
_geom_bond_atom_site_label_2
_geom_bond_site_symmetry_1
_geom_bond_site_symmetry_2
Yb1 O1 1_555 1_555
Na1 O2 1_555 1_555
O1 C1 1_555 1_555
O2 Yb1 1_555 1_555
O3 C7 1_555 1_555
O4 C14 1_555 1_555
O5 C14 1_555 1_555
C1 O2 1_555 1_555
C2 C1 1_555 1_555
C3 C2 1_555 1_555
H1 C3 1_555 1_555
C4 C2 1_555 1_555
H2 C4 1_555 1_555
C5 C3 1_555 1_555
H3 C5 1_555 1_555
C6 C4 1_555 1_555
H4 C6 1_555 1_555
C7 C5 1_555 1_555
C8 O3 1_555 1_555
C9 C8 1_555 1_555
H5 C9 1_555 1_555
C10 C8 1_555 1_555
H6 C10 1_555 1_555
C11 C9 1_555 1_555
H7 C11 1_555 1_555
C12 C10 1_555 1_555
H8 C12 1_555 1_555
C13 C11 1_555 1_555
C14 C13 1_555 1_555
Yb1D O4 1_555 1_555
Yb1E O5 1_555 1_555
Yb1D_2 O4C 1_555 1_555
Yb1E_2 O5C 1_555 1_555
Na1E O5 1_555 1_555
Na1E_2 O5C 1_555 1_555
O1C Yb1 1_555 1_555
O2C Yb1 1_555 1_555
O3C C7C 1_555 1_555
O4C C14C 1_555 1_555
O4D Yb1 1_555 1_555
O4G Yb1 1_555 1_555
O5C C14C 1_555 1_555
O5E Yb1 1_555 1_555
O5F Yb1 1_555 1_555
O5E_2 Na1 1_555 1_555
O5F_2 Na1 1_555 1_555
C1C O1C 1_555 1_555
C2C C1C 1_555 1_555
C3C C2C 1_555 1_555
H1C C3C 1_555 1_555
C4C C2C 1_555 1_555
H2C C4C 1_555 1_555
C5C C3C 1_555 1_555
H3C C5C 1_555 1_555
C6C C4C 1_555 1_555
H4C C6C 1_555 1_555
C7C C5C 1_555 1_555
C8C O3C 1_555 1_555
C9C C8C 1_555 1_555
H5C C9C 1_555 1_555
C10C C8C 1_555 1_555
H6C C10C 1_555 1_555
C11C C9C 1_555 1_555
H7C C11C 1_555 1_555
C12C C10C 1_555 1_555
H8C C12C 1_555 1_555
C13C C11C 1_555 1_555
C14C C13C 1_555 1_555
Na1 O2C 1_555 1_555
C6 C7 1_555 1_555
C12 C13 1_555 1_555
O2C C1C 1_555 1_555
C6C C7C 1_555 1_555
C12C C13C 1_555 1_555

#END
