
#######################################################################
#
#                 Cambridge Crystallographic Data Centre
#                                CCDC 
#
#######################################################################
#
# If this CIF has been generated from an entry in the Cambridge 
# Structural Database, then it will include bibliographic, chemical, 
# crystal, experimental, refinement or atomic coordinate data resulting 
# from the CCDC's data processing and validation procedures.
#
#######################################################################

data_TOTVOP
_chemical_formula_moiety         '(C18 H12 N10 O8 Zn3)n'
_symmetry_cell_setting           monoclinic
_symmetry_space_group_name_H-M   'C 2/c'
_symmetry_Int_Tables_number      15
_space_group_name_Hall           '-C 2yc'
loop_
_symmetry_equiv_pos_site_id
_symmetry_equiv_pos_as_xyz
1 x,y,z
2 -x,y,1/2-z
3 1/2+x,1/2+y,z
4 1/2-x,1/2+y,1/2-z
5 -x,-y,-z
6 x,-y,1/2+z
7 1/2-x,1/2-y,-z
8 1/2+x,1/2-y,1/2+z
_cell_length_a                   25.319(5)
_cell_length_b                   14.309(3)
_cell_length_c                   7.0137(14)
_cell_angle_alpha                90
_cell_angle_beta                 96.379(3)
_cell_angle_gamma                90
_cell_volume                     2525.26
loop_
_atom_site_label
_atom_site_type_symbol
_atom_site_fract_x
_atom_site_fract_y
_atom_site_fract_z
Zn1 Zn 0.0000 0.58424(4) 0.7500
Zn2 Zn 0.150262(15) 0.71408(3) 0.16257(6)
N1 N 0.20531(11) 0.60864(19) 0.1351(4)
C1 C 0.22688(14) 0.4464(2) 0.1269(5)
H1 H 0.2152 0.3850 0.1115
C2 C 0.29544(14) 0.5577(2) 0.1799(5)
H2 H 0.3313 0.5733 0.1985
C3 C 0.25783(14) 0.6269(2) 0.1664(5)
H3 H 0.2689 0.6888 0.1793
C4 C 0.19077(14) 0.5189(2) 0.1105(5)
H4 H 0.1549 0.5050 0.0813
C5 C 0.28050(13) 0.4654(2) 0.1660(5)
C6 C 0.32068(14) 0.3877(3) 0.2012(5)
O1 O 0.36808(11) 0.40553(19) 0.2205(5)
O2 O 0.30106(10) 0.30555(17) 0.2117(4)
N2 N 0.04130(10) 0.59790(18) 0.5046(4)
N3 N 0.04886(10) 0.53470(18) 0.3668(4)
N4 N 0.08294(11) 0.56629(18) 0.2575(4)
C7 C 0.07259(12) 0.6702(2) 0.4731(5)
N5 N 0.09917(10) 0.65237(18) 0.3233(4)
O3 O 0.05781(9) 0.67617(17) 0.8802(3)
O4 O 0.13186(9) 0.75838(16) 0.8996(3)
C8 C 0.07895(14) 0.7552(2) 0.5966(5)
H5 H 0.0469 0.7927 0.5770
H6 H 0.1083 0.7925 0.5607
C9 C 0.08957(13) 0.7279(2) 0.8067(5)
Zn2A Zn -0.150262(15) 0.71408(3) 1.33743(6)
N1A N -0.20531(11) 0.60864(19) 1.3649(4)
C1A C -0.22688(14) 0.4464(2) 1.3731(5)
H1A H -0.2152 0.3850 1.3885
C2A C -0.29544(14) 0.5577(2) 1.3201(5)
H2A H -0.3313 0.5733 1.3015
C3A C -0.25783(14) 0.6269(2) 1.3336(5)
H3A H -0.2689 0.6888 1.3207
C4A C -0.19077(14) 0.5189(2) 1.3895(5)
H4A H -0.1549 0.5050 1.4187
C5A C -0.28050(13) 0.4654(2) 1.3340(5)
C6A C -0.32068(14) 0.3877(3) 1.2988(5)
O1A O -0.36808(11) 0.40553(19) 1.2795(5)
O2A O -0.30106(10) 0.30555(17) 1.2883(4)
N2A N -0.04130(10) 0.59790(18) 0.9954(4)
N3A N -0.04886(10) 0.53470(18) 1.1332(4)
N4A N -0.08294(11) 0.56629(18) 1.2425(4)
C7A C -0.07259(12) 0.6702(2) 1.0269(5)
N5A N -0.09917(10) 0.65237(18) 1.1767(4)
O3A O -0.05781(9) 0.67617(17) 0.6198(3)
O4A O -0.13186(9) 0.75838(16) 0.6004(3)
C8A C -0.07895(14) 0.7552(2) 0.9034(5)
H5A H -0.0469 0.7927 0.9230
H6A H -0.1083 0.7925 0.9393
C9A C -0.08957(13) 0.7279(2) 0.6933(5)
Zn1D Zn -0.0000 0.41576(4) 0.2500
Zn1D_2 Zn 0.0000 0.41576(4) 1.2500
Zn2_2 Zn 0.150262(15) 0.71408(3) 1.16257(6)
Zn2A_2 Zn -0.150262(15) 0.71408(3) 0.33743(6)
Zn2B Zn -0.349738(15) 0.21408(3) 1.16257(6)
Zn2C Zn 0.349738(15) 0.21408(3) 0.33743(6)
O2B O -0.19894(10) 0.80555(17) 1.2117(4)
O2C O 0.19894(10) 0.80555(17) 0.2883(4)
N3D N -0.04886(10) 0.46530(18) 0.6332(4)
N3E N 0.04886(10) 0.46530(18) 0.8668(4)
O4_2 O 0.13186(9) 0.75838(16) -0.1004(3)
O4A_2 O -0.13186(9) 0.75838(16) 1.6004(3)
loop_
_geom_bond_atom_site_label_1
_geom_bond_atom_site_label_2
_geom_bond_site_symmetry_1
_geom_bond_site_symmetry_2
Zn1 N2 1_555 1_555
Zn2 N1 1_555 1_555
N1 C3 1_555 1_555
C1 H1 1_555 1_555
C2 H2 1_555 1_555
C3 C2 1_555 1_555
H3 C3 1_555 1_555
C4 N1 1_555 1_555
H4 C4 1_555 1_555
C5 C1 1_555 1_555
C6 C5 1_555 1_555
O1 C6 1_555 1_555
O2 C6 1_555 1_555
N2 N3 1_555 1_555
N3 N4 1_555 1_555
N4 N5 1_555 1_555
C7 N2 1_555 1_555
N5 Zn2 1_555 1_555
O3 Zn1 1_555 1_555
O4 C9 1_555 1_555
C8 C7 1_555 1_555
H5 C8 1_555 1_555
H6 C8 1_555 1_555
C9 O3 1_555 1_555
Zn2A N1A 1_555 1_555
N1A C3A 1_555 1_555
C1A H1A 1_555 1_555
C2A H2A 1_555 1_555
C3A C2A 1_555 1_555
H3A C3A 1_555 1_555
C4A N1A 1_555 1_555
H4A C4A 1_555 1_555
C5A C1A 1_555 1_555
C6A C5A 1_555 1_555
O1A C6A 1_555 1_555
O2A C6A 1_555 1_555
N2A Zn1 1_555 1_555
N3A N2A 1_555 1_555
N4A N3A 1_555 1_555
C7A N2A 1_555 1_555
N5A Zn2A 1_555 1_555
O3A Zn1 1_555 1_555
O4A C9A 1_555 1_555
C8A C7A 1_555 1_555
H5A C8A 1_555 1_555
H6A C8A 1_555 1_555
C9A O3A 1_555 1_555
Zn1D N3 1_555 1_555
Zn1D_2 N3A 1_555 1_555
Zn2_2 O4 1_555 1_555
Zn2A_2 O4A 1_555 1_555
Zn2B O2A 1_555 1_555
Zn2C O2 1_555 1_555
O2B Zn2A 1_555 1_555
O2C Zn2 1_555 1_555
N3D Zn1 1_555 1_555
N3E Zn1 1_555 1_555
O4_2 Zn2 1_555 1_555
O4A_2 Zn2A 1_555 1_555
C1 C4 1_555 1_555
C2 C5 1_555 1_555
C7 N5 1_555 1_555
C8 C9 1_555 1_555
C1A C4A 1_555 1_555
C2A C5A 1_555 1_555
N4A N5A 1_555 1_555
C7A N5A 1_555 1_555
C8A C9A 1_555 1_555

#END
