
#######################################################################
#
#                 Cambridge Crystallographic Data Centre
#                                CCDC 
#
#######################################################################
#
# If this CIF has been generated from an entry in the Cambridge 
# Structural Database, then it will include bibliographic, chemical, 
# crystal, experimental, refinement or atomic coordinate data resulting 
# from the CCDC's data processing and validation procedures.
#
#######################################################################

data_XACYAB
_chemical_formula_moiety         'C9 H5 Co1 N8 S2'
_symmetry_cell_setting           orthorhombic
_symmetry_space_group_name_H-M   'I b a m'
_symmetry_Int_Tables_number      72
_space_group_name_Hall           '-I 2 2c'
loop_
_symmetry_equiv_pos_site_id
_symmetry_equiv_pos_as_xyz
1 x,y,z
2 -x,-y,z
3 x,-y,1/2-z
4 -x,y,1/2-z
5 1/2+x,1/2+y,1/2+z
6 1/2-x,1/2-y,1/2+z
7 1/2+x,1/2-y,-z
8 1/2-x,1/2+y,-z
9 -x,-y,-z
10 x,y,-z
11 -x,y,1/2+z
12 x,-y,1/2+z
13 1/2-x,1/2-y,1/2-z
14 1/2+x,1/2+y,1/2-z
15 1/2-x,1/2+y,z
16 1/2+x,1/2-y,z
_cell_length_a                   15.688(4)
_cell_length_b                   16.435(4)
_cell_length_c                   15.066(3)
_cell_angle_alpha                90
_cell_angle_beta                 90
_cell_angle_gamma                90
_cell_volume                     3884.5
loop_
_atom_site_label
_atom_site_type_symbol
_atom_site_fract_x
_atom_site_fract_y
_atom_site_fract_z
Co1 Co 0.0000 0.5000 0.0000
S1 S -0.0000 0.3151(8) 0.2466(7)
N1 N -0.0000 0.4145(7) 0.1015(9)
N2 N 0.0965(5) 0.4298(5) -0.0701(6)
C1 C 0.0000 0.3747(12) 0.1631(14)
C2 C 0.1563(12) 0.4621(12) -0.1210(14)
C3 C 0.2105(12) 0.4211(12) -0.1742(14)
C4 C 0.2011(7) 0.3298(6) -0.1718(8)
C5 C 0.1420(13) 0.3007(11) -0.1225(14)
C6 C 0.0913(14) 0.3449(10) -0.0729(13)
C7 C 0.2531(23) 0.2871(13) -0.2408(18)
H1 H 0.1614(12) 0.5185(12) -0.1200(14)
H2 H 0.2507(12) 0.4472(12) -0.2096(14)
H3 H 0.1345(13) 0.2446(11) -0.1220(14)
H4 H 0.0505(14) 0.3189(10) -0.0383(13)
H5 H 0.2929(23) 0.3177(13) -0.2721(18)
N1A N -0.0000 0.5855(7) 0.1015(9)
N1H N 0.0000 0.5855(7) -0.1015(9)
N1I N 0.0000 0.4145(7) -0.1015(9)
N2A N -0.0965(5) 0.5702(5) -0.0701(6)
N2H N -0.0965(5) 0.5702(5) 0.0701(6)
N2I N 0.0965(5) 0.4298(5) 0.0701(6)
S1C S 0.0000 0.3151(8) 0.2534(7)
C1C C -0.0000 0.3747(12) 0.3369(14)
C7L C 0.2469(23) 0.2129(13) -0.2592(18)
loop_
_geom_bond_atom_site_label_1
_geom_bond_atom_site_label_2
_geom_bond_site_symmetry_1
_geom_bond_site_symmetry_2
Co1 N1 1_555 1_555
S1 C1 1_555 1_555
N1 C1 1_555 1_555
N2 Co1 1_555 1_555
C1 S1C 1_555 1_555
C2 N2 1_555 1_555
C3 C2 1_555 1_555
C4 C3 1_555 1_555
C5 C4 1_555 1_555
C6 N2 1_555 1_555
C7 C4 1_555 1_555
H1 C2 1_555 1_555
H2 C3 1_555 1_555
H3 C5 1_555 1_555
H4 C6 1_555 1_555
H5 C7 1_555 1_555
N1A Co1 1_555 1_555
N1H Co1 1_555 1_555
N1I Co1 1_555 1_555
N2A Co1 1_555 1_555
N2H Co1 1_555 1_555
N2I Co1 1_555 1_555
S1C S1 1_555 1_555
C1C S1 1_555 1_555
C7L C7 1_555 1_555
N1 N2I 1_555 1_555
N2 N1I 1_555 1_555
C5 C6 1_555 1_555
N1A N2H 1_555 1_555
N1H N2A 1_555 1_555
S1C C1C 1_555 1_555

#END
