
#######################################################################
#
#                 Cambridge Crystallographic Data Centre
#                                CCDC 
#
#######################################################################
#
# If this CIF has been generated from an entry in the Cambridge 
# Structural Database, then it will include bibliographic, chemical, 
# crystal, experimental, refinement or atomic coordinate data resulting 
# from the CCDC's data processing and validation procedures.
#
#######################################################################

data_XALTEK
_chemical_formula_moiety         '(C16 H26 Au4 Cu4 N12 O5)n'
_symmetry_cell_setting           monoclinic
_symmetry_space_group_name_H-M   'P 2/c'
_symmetry_Int_Tables_number      13
_space_group_name_Hall           '-P 2yc'
loop_
_symmetry_equiv_pos_site_id
_symmetry_equiv_pos_as_xyz
1 x,y,z
2 -x,y,1/2-z
3 -x,-y,-z
4 x,-y,1/2+z
_cell_length_a                   8.7388(2)
_cell_length_b                   11.7417(3)
_cell_length_c                   15.1238(4)
_cell_angle_alpha                90
_cell_angle_beta                 92.6050(10)
_cell_angle_gamma                90
_cell_volume                     1550.22
loop_
_atom_site_label
_atom_site_type_symbol
_atom_site_fract_x
_atom_site_fract_y
_atom_site_fract_z
Au1 Au 1.0000 1.0000 0.0000
C1 C 0.8932(3) 0.9252(3) 0.09770(19)
N1 N 0.8284(3) 0.8838(2) 0.15406(17)
Au2 Au 0.0000 0.5000 0.0000
C2 C 0.1877(3) 0.5755(2) 0.04995(18)
N2 N 0.3004(3) 0.6150(2) 0.07771(16)
Cu1 Cu 0.68959(4) 0.84458(3) 0.24833(2)
Au3 Au 0.929950(15) 0.747530(8) -0.089580(9)
Cu2 Cu 0.49864(3) 0.65846(3) 0.13593(2)
O1 O 0.6678(2) 0.68496(16) 0.22106(13)
O2 O 0.5508(2) 0.82099(15) 0.34377(13)
C3 C 0.5850(3) 0.8968(3) 0.41540(19)
H1 H 0.6750 0.8710 0.4496
H2 H 0.4997 0.9005 0.4542
C4 C 0.6140(4) 1.0129(2) 0.3755(2)
H3 H 0.5197 1.0440 0.3492
H4 H 0.6535 1.0651 0.4206
C5 C 0.7323(3) 0.7125(3) -0.0344(2)
N3 N 0.6223(3) 0.6946(2) 0.00217(18)
C6 C 1.1259(4) 0.7863(3) -0.1446(2)
N4 N 1.2387(4) 0.8102(3) -0.1765(2)
N5 N 0.5891(3) 0.49836(19) 0.13174(16)
H5 H 0.5199 0.4471 0.1488
H6 H 0.6137 0.4815 0.0761
C7 C 0.7930(3) 0.6126(2) 0.20320(19)
H7 H 0.8691 0.6147 0.2519
H8 H 0.8408 0.6367 0.1497
C8 C 0.7284(3) 0.4935(2) 0.1919(2)
H9 H 0.8042 0.4439 0.1671
H10 H 0.7025 0.4631 0.2490
N6 N 0.7282(3) 0.9960(2) 0.30665(16)
H11 H 0.8236 0.9979 0.3316
H12 H 0.7196 1.0520 0.2661
C1B C 1.1068(3) 1.0748(3) -0.09770(19)
N1B N 1.1716(3) 1.1162(2) -0.15406(17)
Au2_2 Au 2.0000 1.5000 0.0000
C2B C 1.8123(3) 1.4245(2) -0.04995(18)
C2B_2 C -0.1877(3) 0.4245(2) -0.04995(18)
N2B N 1.6996(3) 1.3850(2) -0.07771(16)
Cu1B Cu 1.31041(4) 1.15542(3) -0.24833(2)
Au3B Au 1.070050(15) 1.252470(8) 0.089580(9)
Cu2B Cu 1.50136(3) 1.34154(3) -0.13593(2)
Cu2A Cu 0.50136(3) 0.65846(3) 0.36407(2)
Cu2C Cu 1.49864(3) 1.34154(3) -0.36407(2)
O1B O 1.3322(2) 1.31504(16) -0.22106(13)
O2B O 1.4492(2) 1.17901(15) -0.34377(13)
O2A O 0.4492(2) 0.82099(15) 0.15623(13)
O2C O 1.5508(2) 1.17901(15) -0.15623(13)
C3B C 1.4150(3) 1.1032(3) -0.41540(19)
H1B H 1.3250 1.1290 -0.4496
H2B H 1.5003 1.0995 -0.4542
C4B C 1.3860(4) 0.9871(2) -0.3755(2)
H3B H 1.4803 0.9560 -0.3492
H4B H 1.3465 0.9349 -0.4206
C5B C 1.2677(3) 1.2875(3) 0.0344(2)
N3B N 1.3777(3) 1.3054(2) -0.00217(18)
C6B C 0.8741(4) 1.2137(3) 0.1446(2)
N4B N 0.7613(4) 1.1898(3) 0.1765(2)
N5B N 1.4109(3) 1.50164(19) -0.13174(16)
H5B H 1.4801 1.5529 -0.1488
H6B H 1.3863 1.5185 -0.0761
C7B C 1.2070(3) 1.3874(2) -0.20320(19)
H7B H 1.1309 1.3853 -0.2519
H8B H 1.1592 1.3633 -0.1497
C8B C 1.2716(3) 1.5065(2) -0.1919(2)
H9B H 1.1958 1.5561 -0.1671
H10B H 1.2975 1.5369 -0.2490
N6B N 1.2718(3) 1.0040(2) -0.30665(16)
H11B H 1.1764 1.0021 -0.3316
H12B H 1.2804 0.9480 -0.2661
O3 O 0.5000 0.6962(3) 0.7500
loop_
_geom_bond_atom_site_label_1
_geom_bond_atom_site_label_2
_geom_bond_site_symmetry_1
_geom_bond_site_symmetry_2
Au1 C1 1_555 1_555
C1 N1 1_555 1_555
N1 Cu1 1_555 1_555
Au2 C2 1_555 1_555
C2 N2 1_555 1_555
N2 Cu2 1_555 1_555
Cu1 O1 1_555 1_555
Au3 C5 1_555 1_555
Cu2 O1 1_555 1_555
O1 C7 1_555 1_555
O2 Cu1 1_555 1_555
C3 O2 1_555 1_555
H1 C3 1_555 1_555
H2 C3 1_555 1_555
C4 C3 1_555 1_555
H3 C4 1_555 1_555
H4 C4 1_555 1_555
C5 N3 1_555 1_555
N3 Cu2 1_555 1_555
C6 Au3 1_555 1_555
N4 C6 1_555 1_555
N5 Cu2 1_555 1_555
H5 N5 1_555 1_555
H6 N5 1_555 1_555
C7 H7 1_555 1_555
H8 C7 1_555 1_555
C8 N5 1_555 1_555
H9 C8 1_555 1_555
H10 C8 1_555 1_555
N6 Cu1 1_555 1_555
H11 N6 1_555 1_555
H12 N6 1_555 1_555
C1B Au1 1_555 1_555
N1B C1B 1_555 1_555
Au2_2 C2B 1_555 1_555
C2B N2B 1_555 1_555
C2B_2 Au2 1_555 1_555
N2B Cu2B 1_555 1_555
Cu1B N1B 1_555 1_555
Au3B C5B 1_555 1_555
Cu2B O1B 1_555 1_555
Cu2A O2 1_555 1_555
Cu2C O2B 1_555 1_555
O1B Cu1B 1_555 1_555
O2B Cu1B 1_555 1_555
O2A Cu2 1_555 1_555
O2C Cu2B 1_555 1_555
C3B O2B 1_555 1_555
H1B C3B 1_555 1_555
H2B C3B 1_555 1_555
C4B C3B 1_555 1_555
H3B C4B 1_555 1_555
H4B C4B 1_555 1_555
C5B N3B 1_555 1_555
N3B Cu2B 1_555 1_555
C6B Au3B 1_555 1_555
N4B C6B 1_555 1_555
N5B Cu2B 1_555 1_555
H5B N5B 1_555 1_555
H6B N5B 1_555 1_555
C7B O1B 1_555 1_555
H7B C7B 1_555 1_555
H8B C7B 1_555 1_555
C8B N5B 1_555 1_555
H9B C8B 1_555 1_555
H10B C8B 1_555 1_555
N6B Cu1B 1_555 1_555
H11B N6B 1_555 1_555
H12B N6B 1_555 1_555
C4 N6 1_555 1_555
C7 C8 1_555 1_555
C4B N6B 1_555 1_555
C7B C8B 1_555 1_555

#END
