
#######################################################################
#
#                 Cambridge Crystallographic Data Centre
#                                CCDC 
#
#######################################################################
#
# If this CIF has been generated from an entry in the Cambridge 
# Structural Database, then it will include bibliographic, chemical, 
# crystal, experimental, refinement or atomic coordinate data resulting 
# from the CCDC's data processing and validation procedures.
#
#######################################################################

data_XIRWEB
_chemical_formula_moiety         '(C20 H38 Cs2 Cu1 O9)n'
_symmetry_cell_setting           cubic
_symmetry_space_group_name_H-M   'I a -3 d'
_symmetry_Int_Tables_number      230
_space_group_name_Hall           '-I 4bd 2c 3'
loop_
_symmetry_equiv_pos_site_id
_symmetry_equiv_pos_as_xyz
1 x,y,z
2 z,x,y
3 y,z,x
4 3/4+y,1/4+x,1/4-z
5 1/4+y,1/4-x,3/4+z
6 1/4-y,3/4+x,1/4+z
7 3/4+x,1/4+z,1/4-y
8 1/4-x,3/4+z,1/4+y
9 1/4+x,1/4-z,3/4+y
10 3/4+z,1/4+y,1/4-x
11 1/4+z,1/4-y,3/4+x
12 1/4-z,3/4+y,1/4+x
13 1/2+x,1/2+y,1/2+z
14 1/2+z,1/2+x,1/2+y
15 1/2+y,1/2+z,1/2+x
16 1/4+y,3/4+x,3/4-z
17 1/4-y,1/4-x,1/4-z
18 3/4+y,3/4-x,1/4+z
19 3/4-y,1/4+x,3/4+z
20 1/4+x,3/4+z,3/4-y
21 3/4-x,1/4+z,3/4+y
22 1/4-x,1/4-z,1/4-y
23 3/4+x,3/4-z,1/4+y
24 1/4+z,3/4+y,3/4-x
25 3/4+z,3/4-y,1/4+x
26 3/4-z,1/4+y,3/4+x
27 1/4-z,1/4-y,1/4-x
28 1/2-x,-y,1/2+z
29 -x,1/2+y,1/2-z
30 1/2+x,1/2-y,-z
31 1/2+z,1/2-x,-y
32 1/2-z,-x,1/2+y
33 -z,1/2+x,1/2-y
34 -y,1/2+z,1/2-x
35 1/2+y,1/2-z,-x
36 1/2-y,-z,1/2+x
37 3/4-y,3/4-x,3/4-z
38 3/4-x,3/4-z,3/4-y
39 3/4-z,3/4-y,3/4-x
40 -x,1/2-y,z
41 1/2-x,y,-z
42 x,-y,1/2-z
43 z,-x,1/2-y
44 -z,1/2-x,y
45 1/2-z,x,-y
46 1/2-y,z,-x
47 y,-z,1/2-x
48 -y,1/2-z,x
49 -x,-y,-z
50 -z,-x,-y
51 -y,-z,-x
52 1/4-y,3/4-x,3/4+z
53 3/4-y,3/4+x,1/4-z
54 3/4+y,1/4-x,3/4-z
55 1/4-x,3/4-z,3/4+y
56 3/4+x,1/4-z,3/4-y
57 3/4-x,3/4+z,1/4-y
58 1/4-z,3/4-y,3/4+x
59 3/4-z,3/4+y,1/4-x
60 3/4+z,1/4-y,3/4-x
61 1/2-x,1/2-y,1/2-z
62 1/2-z,1/2-x,1/2-y
63 1/2-y,1/2-z,1/2-x
64 3/4-y,1/4-x,1/4+z
65 3/4+y,3/4+x,3/4+z
66 1/4-y,1/4+x,3/4-z
67 1/4+y,3/4-x,1/4-z
68 3/4-x,1/4-z,1/4+y
69 1/4+x,3/4-z,1/4-y
70 3/4+x,3/4+z,3/4+y
71 1/4-x,1/4+z,3/4-y
72 3/4-z,1/4-y,1/4+x
73 1/4-z,1/4+y,3/4-x
74 1/4+z,3/4-y,1/4-x
75 3/4+z,3/4+y,3/4+x
76 1/2+x,y,1/2-z
77 x,1/2-y,1/2+z
78 1/2-x,1/2+y,z
79 1/2-z,1/2+x,y
80 1/2+z,x,1/2-y
81 z,1/2-x,1/2+y
82 y,1/2-z,1/2+x
83 1/2-y,1/2+z,x
84 1/2+y,z,1/2-x
85 1/4+y,1/4+x,1/4+z
86 1/4+x,1/4+z,1/4+y
87 1/4+z,1/4+y,1/4+x
88 x,1/2+y,-z
89 1/2+x,-y,z
90 -x,y,1/2+z
91 -z,x,1/2+y
92 z,1/2+x,-y
93 1/2+z,-x,y
94 1/2+y,-z,x
95 -y,z,1/2+x
96 y,1/2+z,-x
_cell_length_a                   34.795(4)
_cell_length_b                   34.795(4)
_cell_length_c                   34.795(4)
_cell_angle_alpha                90
_cell_angle_beta                 90
_cell_angle_gamma                90
_cell_volume                     42126
loop_
_atom_site_label
_atom_site_type_symbol
_atom_site_fract_x
_atom_site_fract_y
_atom_site_fract_z
_atom_site_U_iso_or_equiv
_atom_site_thermal_displace_type
Cs1 Cs 0.229506(11) 0.875627(12) 0.084050(12) 0.0662 Uani
Cu1 Cu 0.33217(2) 0.91783(2) 0.1250 0.0571 Uani
O1 O 0.2500 0.9208(2) 0.0000 0.0903 Uani
O2 O 0.29410(15) 0.94388(14) 0.05903(13) 0.0827 Uani
C1 C 0.3057(2) 0.9731(2) 0.0770(2) 0.0807 Uani
O3 O 0.32769(13) 0.97112(12) 0.10593(13) 0.0723 Uani
C2 C 0.2937(3) 1.0126(2) 0.0632(2) 0.0963 Uani
C3 C 0.2496(4) 1.0128(3) 0.0613(4) 0.1510 Uani
H1 H 0.2393 1.0094 0.0867 0.2000 Uiso
H2 H 0.2409 0.9923 0.0451 0.1400 Uiso
H3 H 0.2409 1.0369 0.0511 0.0800 Uiso
C4 C 0.3104(4) 1.0189(3) 0.0231(2) 0.1363 Uani
H4 H 0.3380 1.0189 0.0245 0.1100 Uiso
H5 H 0.3016 1.0430 0.0131 0.2200 Uiso
H6 H 0.3021 0.9985 0.0064 0.1300 Uiso
C5 C 0.3071(4) 1.0451(2) 0.0904(3) 0.1113 Uani
H7 H 0.3347 1.0453 0.0917 0.1500 Uiso
H8 H 0.2968 1.0408 0.1157 0.1000 Uiso
H9 H 0.2982 1.0694 0.0809 0.3300 Uiso
O4 O 0.38116(12) 0.91136(12) 0.09709(13) 0.0690 Uani
C6 C 0.40743(18) 0.92638(18) 0.1176(2) 0.0600 Uani
C7 C 0.4470(2) 0.9282(2) 0.1003(2) 0.0833 Uani
O5 O 0.40141(13) 0.93955(12) 0.14995(13) 0.0713 Uani
C8 C 0.4667(4) 0.8925(7) 0.1115(7) 0.2897 Uani
H10 H 0.4657 0.8897 0.1389 0.6000 Uiso
H11 H 0.4930 0.8936 0.1033 0.1400 Uiso
H12 H 0.4542 0.8710 0.0996 1.2000 Uiso
C9 C 0.4457(4) 0.9313(7) 0.0568(3) 0.2073 Uani
H13 H 0.4312 0.9102 0.0465 0.2800 Uiso
H14 H 0.4714 0.9306 0.0467 0.0900 Uiso
H15 H 0.4337 0.9551 0.0496 0.3200 Uiso
C10 C 0.4689(5) 0.9603(7) 0.1160(7) 0.2827 Uani
H16 H 0.4684 0.9592 0.1435 0.4500 Uiso
H17 H 0.4577 0.9840 0.1075 0.4100 Uiso
H18 H 0.4950 0.9588 0.1072 0.1400 Uiso
Cs1P Cs 0.374373(12) 1.020494(11) 0.165950(12) 0.0662 Uani
Cs1EB Cs 0.165950(12) 0.874373(12) -0.020494(11) 0.0662 Uani
Cs1UB Cs 0.334050(12) 0.874373(12) 0.020494(11) 0.0662 Uani
Cs1NA Cs 0.270494(11) 0.875627(12) -0.084050(12) 0.0662 Uani
Cs1OC Cs 0.375627(12) 0.915950(12) 0.229506(11) 0.0662 Uani
Cs1EC Cs 0.375627(12) 1.084050(12) 0.270494(11) 0.0662 Uani
O1EB O 0.2500 0.8292(2) 0.0000 0.0903 Uani
O1E O 0.3292(2) 1.0000 0.2500 0.0903 Uani
O1EC O 0.4208(2) 1.0000 0.2500 0.0903 Uani
O2P O 0.30612(14) 0.95590(15) 0.19097(13) 0.0827 Uani
O2EB O 0.19097(13) 0.80612(14) 0.04410(15) 0.0827 Uani
O2EC O 0.44388(14) 1.05903(13) 0.20590(15) 0.0827 Uani
C1P C 0.2769(2) 0.9443(2) 0.1730(2) 0.0807 Uani
O3P O 0.27888(12) 0.92231(13) 0.14407(13) 0.0723 Uani
C2P C 0.2374(2) 0.9563(3) 0.1868(2) 0.0963 Uani
C3P C 0.2372(3) 1.0004(4) 0.1887(4) 0.1510 Uani
H1P H 0.2406 1.0107 0.1633 0.2000 Uiso
H2P H 0.2577 1.0091 0.2049 0.1400 Uiso
H3P H 0.2131 1.0091 0.1989 0.0800 Uiso
C4P C 0.2311(3) 0.9396(4) 0.2269(2) 0.1363 Uani
H4P H 0.2311 0.9120 0.2255 0.1100 Uiso
H5P H 0.2070 0.9484 0.2369 0.2200 Uiso
H6P H 0.2515 0.9479 0.2436 0.1300 Uiso
C5P C 0.2049(2) 0.9429(4) 0.1596(3) 0.1113 Uani
H7P H 0.2047 0.9153 0.1583 0.1500 Uiso
H8P H 0.2092 0.9532 0.1343 0.1000 Uiso
H9P H 0.1806 0.9518 0.1691 0.3300 Uiso
O4P O 0.33864(12) 0.86884(12) 0.15291(13) 0.0690 Uani
O4EB O 0.15291(13) 0.83864(12) 0.13116(12) 0.0690 Uani
O4EC O 0.41136(12) 1.09709(13) 0.11884(12) 0.0690 Uani
C6P C 0.32362(18) 0.84257(18) 0.1324(2) 0.0600 Uani
C7P C 0.3218(2) 0.8030(2) 0.1497(2) 0.0833 Uani
O5P O 0.31045(12) 0.84859(13) 0.10005(13) 0.0713 Uani
O5MC O 0.14995(13) 0.90141(13) 0.06045(12) 0.0713 Uani
O5OB O 0.34859(13) 1.10005(13) 0.18955(12) 0.0713 Uani
C8P C 0.3575(7) 0.7833(4) 0.1385(7) 0.2897 Uani
H10P H 0.3603 0.7843 0.1111 0.6000 Uiso
H11P H 0.3564 0.7570 0.1467 0.1400 Uiso
H12P H 0.3790 0.7958 0.1504 1.2000 Uiso
C9P C 0.3187(7) 0.8043(4) 0.1932(3) 0.2073 Uani
H13P H 0.3398 0.8188 0.2035 0.2800 Uiso
H14P H 0.3194 0.7786 0.2033 0.0900 Uiso
H15P H 0.2949 0.8163 0.2004 0.3200 Uiso
C10P C 0.2897(7) 0.7811(5) 0.1340(7) 0.2827 Uani
H16P H 0.2908 0.7816 0.1065 0.4500 Uiso
H17P H 0.2660 0.7923 0.1425 0.4100 Uiso
H18P H 0.2912 0.7550 0.1428 0.1400 Uiso
loop_
_atom_site_aniso_label
_atom_site_aniso_U_11
_atom_site_aniso_U_22
_atom_site_aniso_U_33
_atom_site_aniso_U_23
_atom_site_aniso_U_13
_atom_site_aniso_U_12
Cs1 0.0544(3) 0.0793(4) 0.0649(3) -0.0107(2) -0.00558(19) -0.0069(2)
Cu1 0.0592(4) 0.0592(4) 0.0530(6) -0.0099(4) -0.0099(4) 0.0023(5)
O1 0.104(5) 0.076(5) 0.091(5) 0.000 -0.034(4) 0.000
O2 0.098(3) 0.081(3) 0.069(3) -0.024(3) -0.028(3) 0.018(3)
C1 0.086(5) 0.073(5) 0.083(5) -0.013(4) -0.019(4) 0.013(4)
O3 0.084(3) 0.070(3) 0.063(3) -0.005(2) -0.031(3) 0.004(2)
C2 0.134(7) 0.076(5) 0.079(6) -0.006(4) -0.044(5) 0.029(5)
C3 0.175(11) 0.122(9) 0.156(12) -0.041(8) -0.095(9) 0.085(8)
C4 0.203(15) 0.137(10) 0.069(6) 0.008(6) -0.044(7) 0.007(8)
C5 0.175(12) 0.070(6) 0.089(7) -0.006(5) -0.043(6) 0.015(6)
O4 0.066(3) 0.070(3) 0.071(3) -0.008(2) 0.003(2) -0.005(2)
C6 0.057(4) 0.055(4) 0.068(5) -0.003(3) -0.008(4) 0.001(3)
C7 0.072(5) 0.097(6) 0.081(5) -0.016(4) 0.007(4) -0.019(4)
O5 0.082(3) 0.070(3) 0.062(3) -0.007(2) 0.004(2) 0.001(2)
C8 0.119(10) 0.37(3) 0.38(3) 0.23(2) 0.141(14) 0.148(14)
C9 0.106(8) 0.41(2) 0.106(9) 0.026(13) 0.049(7) -0.029(16)
C10 0.168(14) 0.32(3) 0.36(3) -0.18(2) 0.151(16) -0.141(16)
Cs1P 0.0793 0.0544 0.0649 -0.00558 -0.0107 -0.0069
Cs1EB 0.0649 0.0793 0.0544 0.0069 0.00558 -0.0107
Cs1UB 0.0649 0.0793 0.0544 -0.0069 0.00558 0.0107
Cs1NA 0.0544 0.0793 0.0649 0.0107 -0.00558 0.0069
Cs1OC 0.0793 0.0649 0.0544 0.00558 -0.0069 0.0107
Cs1EC 0.0793 0.0649 0.0544 0.00558 0.0069 -0.0107
O1EB 0.091 0.076 0.104 0 0.034 0
O1E 0.076 0.104 0.091 -0.034 0 0
O1EC 0.076 0.091 0.104 0.034 0 0
O2P 0.081 0.098 0.069 -0.028 -0.024 0.018
O2EB 0.069 0.081 0.098 -0.018 0.028 -0.024
O2EC 0.081 0.069 0.098 0.028 -0.018 -0.024
C1P 0.073 0.086 0.083 -0.019 -0.013 0.013
O3P 0.07 0.084 0.063 -0.031 -0.005 0.004
C2P 0.076 0.134 0.079 -0.044 -0.006 0.029
C3P 0.122 0.175 0.156 -0.095 -0.041 0.085
C4P 0.137 0.203 0.069 -0.044 0.008 0.007
C5P 0.07 0.175 0.089 -0.043 -0.006 0.015
O4P 0.07 0.066 0.071 0.003 -0.008 -0.005
O4EB 0.071 0.07 0.066 0.005 -0.003 -0.008
O4EC 0.07 0.071 0.066 -0.003 0.005 -0.008
C6P 0.055 0.057 0.068 -0.008 -0.003 0.001
C7P 0.097 0.072 0.081 0.007 -0.016 -0.019
O5P 0.07 0.082 0.062 0.004 -0.007 0.001
O5MC 0.062 0.082 0.07 -0.001 0.007 0.004
O5OB 0.082 0.062 0.07 0.007 -0.001 0.004
C8P 0.37 0.119 0.38 0.141 0.23 0.148
C9P 0.41 0.106 0.106 0.049 0.026 -0.029
C10P 0.32 0.168 0.36 0.151 -0.18 -0.141
loop_
_geom_bond_atom_site_label_1
_geom_bond_atom_site_label_2
_geom_bond_site_symmetry_1
_geom_bond_site_symmetry_2
Cs1 O1 1_555 1_555
Cu1 O3 1_555 1_555
O1 Cs1EB 1_555 1_555
O2 Cs1 1_555 1_555
C1 O2 1_555 1_555
O3 C1 1_555 1_555
C2 C1 1_555 1_555
C3 C2 1_555 1_555
H1 C3 1_555 1_555
H2 C3 1_555 1_555
H3 C3 1_555 1_555
C4 C2 1_555 1_555
H4 C4 1_555 1_555
H5 C4 1_555 1_555
H6 C4 1_555 1_555
C5 C2 1_555 1_555
H7 C5 1_555 1_555
H8 C5 1_555 1_555
H9 C5 1_555 1_555
O4 Cu1 1_555 1_555
C6 O4 1_555 1_555
C7 C6 1_555 1_555
O5 C6 1_555 1_555
C8 C7 1_555 1_555
H10 C8 1_555 1_555
H11 C8 1_555 1_555
H12 C8 1_555 1_555
C9 C7 1_555 1_555
H13 C9 1_555 1_555
H14 C9 1_555 1_555
H15 C9 1_555 1_555
C10 C7 1_555 1_555
H16 C10 1_555 1_555
H17 C10 1_555 1_555
H18 C10 1_555 1_555
Cs1P O3 1_555 1_555
Cs1EB O1EB 1_555 1_555
Cs1UB O1 1_555 1_555
Cs1NA O1 1_555 1_555
Cs1OC O5 1_555 1_555
Cs1EC O1E 1_555 1_555
O1EB Cs1 1_555 1_555
O1E Cs1P 1_555 1_555
O1EC Cs1P 1_555 1_555
O2P Cs1P 1_555 1_555
O2EB Cs1 1_555 1_555
O2EC Cs1P 1_555 1_555
C1P O2P 1_555 1_555
O3P Cs1 1_555 1_555
C2P C1P 1_555 1_555
C3P C2P 1_555 1_555
H1P C3P 1_555 1_555
H2P C3P 1_555 1_555
H3P C3P 1_555 1_555
C4P C2P 1_555 1_555
H4P C4P 1_555 1_555
H5P C4P 1_555 1_555
H6P C4P 1_555 1_555
C5P C2P 1_555 1_555
H7P C5P 1_555 1_555
H8P C5P 1_555 1_555
H9P C5P 1_555 1_555
O4P Cu1 1_555 1_555
O4EB Cs1 1_555 1_555
O4EC Cs1P 1_555 1_555
C6P O4P 1_555 1_555
C7P C6P 1_555 1_555
O5P Cs1 1_555 1_555
O5MC Cs1 1_555 1_555
O5OB Cs1P 1_555 1_555
C8P C7P 1_555 1_555
H10P C8P 1_555 1_555
H11P C8P 1_555 1_555
H12P C8P 1_555 1_555
C9P C7P 1_555 1_555
H13P C9P 1_555 1_555
H14P C9P 1_555 1_555
H15P C9P 1_555 1_555
C10P C7P 1_555 1_555
H16P C10P 1_555 1_555
H17P C10P 1_555 1_555
H18P C10P 1_555 1_555
Cu1 O3P 1_555 1_555
O2 Cs1UB 1_555 1_555
O4 Cs1UB 1_555 1_555
O5 Cs1P 1_555 1_555
Cs1EB O2EB 1_555 1_555
Cs1EB O5MC 1_555 1_555
Cs1UB O1EB 1_555 1_555
Cs1UB O5P 1_555 1_555
Cs1NA O1EB 1_555 1_555
Cs1OC O1E 1_555 1_555
Cs1OC O1EC 1_555 1_555
Cs1OC O2P 1_555 1_555
Cs1OC O4P 1_555 1_555
Cs1EC O1EC 1_555 1_555
Cs1EC O2EC 1_555 1_555
Cs1EC O5OB 1_555 1_555
C1P O3P 1_555 1_555
C6P O5P 1_555 1_555

#END
