
#######################################################################
#
#                 Cambridge Crystallographic Data Centre
#                                CCDC 
#
#######################################################################
#
# If this CIF has been generated from an entry in the Cambridge 
# Structural Database, then it will include bibliographic, chemical, 
# crystal, experimental, refinement or atomic coordinate data resulting 
# from the CCDC's data processing and validation procedures.
#
#######################################################################

data_XONGUD
_chemical_formula_moiety         '(C12 H47 Co1 Cr3 K2 Na1 O67 W12)n'
_symmetry_cell_setting           monoclinic
_symmetry_space_group_name_H-M   'C 2/c'
_symmetry_Int_Tables_number      15
_space_group_name_Hall           '-C 2yc'
loop_
_symmetry_equiv_pos_site_id
_symmetry_equiv_pos_as_xyz
1 x,y,z
2 -x,y,1/2-z
3 1/2+x,1/2+y,z
4 1/2-x,1/2+y,1/2-z
5 -x,-y,-z
6 x,-y,1/2+z
7 1/2-x,1/2-y,-z
8 1/2+x,1/2-y,1/2+z
_cell_length_a                   41.905(8)
_cell_length_b                   16.158(3)
_cell_length_c                   29.834(6)
_cell_angle_alpha                90
_cell_angle_beta                 123.67(3)
_cell_angle_gamma                90
_cell_volume                     16811.9
loop_
_atom_site_label
_atom_site_type_symbol
_atom_site_fract_x
_atom_site_fract_y
_atom_site_fract_z
W1 W -0.42264(5) -0.12484(10) 0.08802(7)
W2 W -0.43904(4) -0.06868(9) -0.04360(6)
W3 W -0.39695(4) -0.17382(10) -0.09172(6)
W4 W -0.31634(4) -0.39756(10) 0.10547(6)
W5 W -0.44911(4) -0.31598(10) 0.04638(7)
W6 W -0.30270(4) -0.13192(11) 0.03454(7)
W7 W -0.46578(4) -0.25960(10) -0.08587(6)
W8 W -0.34475(4) -0.02529(10) 0.08238(7)
W9 W -0.40081(4) -0.43414(9) -0.00606(7)
W10 W -0.36508(5) -0.28006(10) 0.15786(7)
W11 W -0.28704(4) -0.18060(10) 0.15201(6)
W12 W -0.33168(5) -0.34799(10) -0.01175(7)
Co1 Co -0.37658(14) -0.2288(3) 0.0359(2)
Cr1 Cr -0.37279(15) 0.1667(3) 0.2211(2)
Cr2 Cr -0.37820(15) 0.3572(3) 0.2523(2)
Cr3 Cr -0.36868(15) 0.3188(3) 0.1522(2)
K1 K -0.4594(2) 0.0342(6) 0.1654(4)
K2 K -0.2005(3) -0.0521(7) 0.1205(4)
Na1 Na -0.4386(3) -0.6740(9) -0.0011(6)
O1 O -0.4440(8) -0.0543(17) 0.1057(12)
O2 O -0.4166(6) 0.1687(13) 0.2288(9)
O3 O -0.4225(6) -0.3978(12) 0.0309(9)
O4 O -0.3110(7) -0.3839(15) -0.0434(11)
O5 O -0.4181(6) 0.2995(13) 0.2524(11)
O6 O -0.3778(7) -0.0678(13) 0.1027(10)
O7 O -0.3365(7) 0.1734(15) 0.2997(10)
O8 O -0.4444(6) -0.2344(15) -0.1278(9)
O9 O -0.3392(6) 0.3052(14) 0.3219(9)
O10 O -0.4679(6) -0.2764(14) -0.0243(11)
O11 O -0.3288(7) 0.1429(15) 0.2169(10)
O12 O -0.2467(7) -0.1797(16) 0.2144(11)
O13 O -0.3237(6) 0.2495(14) 0.1733(9)
O14 O -0.3636(7) 0.3626(14) 0.0905(10)
O15 O -0.4344(6) -0.3570(13) -0.0613(10)
O16 O -0.2707(7) -0.0958(16) 0.0208(11)
O17 O -0.4605(7) -0.2106(14) 0.0640(10)
O19 O -0.3005(6) -0.4037(16) 0.0574(10)
O20 O -0.3490(6) -0.1267(13) -0.0335(9)
O21 O -0.4234(7) -0.5250(13) -0.0328(10)
O22 O -0.3016(7) -0.0628(15) 0.1497(10)
O23 O -0.2908(6) -0.2929(14) 0.1313(8)
O24 O -0.3914(7) -0.1793(13) 0.1565(10)
O25 O -0.3699(7) -0.4355(15) -0.0356(11)
O26 O -0.4440(6) -0.0974(14) 0.0137(10)
O28 O -0.3427(7) 0.0785(15) 0.0972(11)
O29 O -0.3895(7) -0.0290(14) 0.0102(9)
O30 O -0.4133(6) -0.3390(14) 0.1226(10)
O31 O -0.3601(6) -0.3325(14) 0.0332(8)
O32 O -0.3361(6) -0.1575(13) 0.0690(9)
O33 O -0.3369(6) 0.4312(14) 0.2632(10)
O34 O -0.3438(7) -0.3633(14) 0.1355(9)
O36 O -0.4883(6) -0.3679(15) 0.0346(11)
O38 O -0.3475(8) -0.3089(17) 0.2222(10)
O39 O -0.4665(6) 0.0187(13) -0.0690(10)
O40 O -0.3922(6) -0.1540(16) -0.1437(9)
O41 O -0.3736(7) 0.0416(14) 0.2351(11)
O42 O -0.4131(7) 0.3887(16) 0.1210(9)
O44 O -0.3350(7) 0.4117(14) 0.1923(10)
O45 O -0.3574(7) -0.4763(14) 0.0613(11)
O47 O -0.4807(5) -0.1446(13) -0.0913(9)
O48 O -0.3247(7) -0.2113(15) 0.1678(10)
O49 O -0.3043(6) -0.2490(14) 0.0216(9)
O50 O -0.4114(5) -0.1900(13) -0.0317(8)
O52 O -0.4028(6) 0.2362(13) 0.0997(9)
O53 O -0.3828(6) 0.4420(14) 0.3000(10)
O54 O -0.2662(6) -0.1486(14) 0.1110(9)
O55 O -0.3135(6) -0.0241(14) 0.0532(9)
O56 O -0.4104(7) 0.1385(13) 0.1449(9)
O57 O -0.3982(6) -0.2382(13) 0.0756(8)
O58 O -0.3733(5) 0.2815(13) 0.2074(8)
O59 O -0.3701(6) -0.2765(14) -0.0651(10)
O60 O -0.4184(7) 0.4234(15) 0.1891(11)
O61 O -0.5087(7) -0.3000(16) -0.1359(11)
O62 O -0.2827(7) -0.4653(15) 0.1541(11)
O63 O -0.4228(6) -0.0756(14) -0.0940(9)
C1 C -0.3242(9) 0.4477(19) 0.2352(15)
C2 C -0.3268(9) 0.233(2) 0.3322(15)
C3 C -0.4300(10) 0.420(2) 0.1386(17)
C4 C -0.4635(9) 0.205(2) 0.2462(15)
H1 H -0.4716 0.2539 0.2560
H2 H -0.4845 0.1847 0.2123
H3 H -0.4555 0.1638 0.2735
C5 C -0.4190(9) 0.170(2) 0.1023(14)
C6 C -0.2929(10) 0.510(2) 0.2578(14)
H4 H -0.2854 0.5183 0.2330
H5 H -0.3018 0.5611 0.2633
H6 H -0.2714 0.4902 0.2915
C7 C -0.2746(10) 0.148(2) 0.2141(17)
H7 H -0.2637 0.1815 0.1995
H8 H -0.2577 0.1464 0.2526
H9 H -0.2782 0.0923 0.2002
C8 C -0.3124(10) 0.182(3) 0.1985(17)
C9 C -0.4670(11) 0.469(3) 0.1039(17)
H10 H -0.4757 0.4878 0.1259
H11 H -0.4862 0.4338 0.0758
H12 H -0.4625 0.5154 0.0883
C10 C -0.4306(9) 0.227(3) 0.2414(14)
C11 C -0.2968(11) 0.212(3) 0.3918(13)
H13 H -0.2892 0.1550 0.3944
H14 H -0.2748 0.2469 0.4055
H15 H -0.3078 0.2198 0.4124
C12 C -0.4494(11) 0.126(2) 0.0486(18)
H16 H -0.4530 0.1567 0.0186
H17 H -0.4405 0.0712 0.0484
H18 H -0.4733 0.1222 0.0459
K1D K -0.5406(2) -0.0342(6) -0.1654(4)
K2F K -0.2995(3) -0.4479(7) -0.1205(4)
K2C K -0.2995(3) 0.4479(7) 0.3795(4)
Na1D Na -0.5614(3) -0.3260(9) 0.0011(6)
Na1_2 Na -0.4386(3) 0.3260(9) -0.0011(6)
O4F O -0.1890(7) -0.1161(15) 0.0434(11)
O9C O -0.1608(6) -0.1948(14) 0.1781(9)
O14_2 O -0.3636(7) -0.6374(14) 0.0905(10)
O36D O -0.5117(6) -0.6321(15) -0.0346(11)
O47D O -0.5193(5) 0.1446(13) 0.0913(9)
O18 O -0.7339(5) 0.3683(11) -0.6831(8)
O27 O -0.5746(11) 0.412(2) -0.8407(16)
O35 O -0.7508(7) 0.5019(14) -0.0404(10)
O37 O -0.4829(11) 0.809(2) -0.5881(18)
O43 O -0.6798(12) 0.057(2) -0.2342(14)
O46 O -0.5146(12) 0.427(3) -0.7145(16)
O64 O -0.2517(19) 0.591(4) 0.399(3)
O65 O -0.7127(14) -0.023(3) -0.346(2)
O66 O -0.6184(18) -0.012(4) -0.313(3)
O67 O -0.884(2) -0.102(5) -0.225(4)
O68 O -0.631(2) -0.081(5) 0.057(4)
loop_
_geom_bond_atom_site_label_1
_geom_bond_atom_site_label_2
_geom_bond_site_symmetry_1
_geom_bond_site_symmetry_2
W1 O1 1_555 1_555
W2 O26 1_555 1_555
W3 O8 1_555 1_555
W4 O19 1_555 1_555
W5 O3 1_555 1_555
W6 O16 1_555 1_555
W7 O8 1_555 1_555
W8 O6 1_555 1_555
W9 O3 1_555 1_555
W10 O24 1_555 1_555
W11 O12 1_555 1_555
W12 O4 1_555 1_555
Co1 O31 1_555 1_555
Cr1 O2 1_555 1_555
Cr2 O5 1_555 1_555
Cr3 O13 1_555 1_555
K1 O1 1_555 1_555
K2 O16 1_555 1_555
Na1 O21 1_555 1_555
O2 K1 1_555 1_555
O4 K2F 1_555 1_555
O5 C10 1_555 1_555
O6 W1 1_555 1_555
O7 Cr1 1_555 1_555
O9 Cr2 1_555 1_555
O10 W5 1_555 1_555
O11 Cr1 1_555 1_555
O13 C8 1_555 1_555
O14 Cr3 1_555 1_555
O15 W7 1_555 1_555
O17 W1 1_555 1_555
O19 W12 1_555 1_555
O20 W3 1_555 1_555
O21 W9 1_555 1_555
O22 W8 1_555 1_555
O23 W4 1_555 1_555
O24 W1 1_555 1_555
O25 W9 1_555 1_555
O26 W1 1_555 1_555
O28 W8 1_555 1_555
O29 W2 1_555 1_555
O30 W5 1_555 1_555
O31 W4 1_555 1_555
O32 W6 1_555 1_555
O33 Cr2 1_555 1_555
O34 W4 1_555 1_555
O36 W5 1_555 1_555
O38 W10 1_555 1_555
O39 W2 1_555 1_555
O40 W3 1_555 1_555
O41 Cr1 1_555 1_555
O42 Cr3 1_555 1_555
O44 Cr3 1_555 1_555
O45 W4 1_555 1_555
O47 W2 1_555 1_555
O48 W10 1_555 1_555
O49 W6 1_555 1_555
O50 W2 1_555 1_555
O52 Cr3 1_555 1_555
O53 Cr2 1_555 1_555
O54 W6 1_555 1_555
O55 W6 1_555 1_555
O56 Cr1 1_555 1_555
O57 W1 1_555 1_555
O58 Cr1 1_555 1_555
O59 W3 1_555 1_555
O60 Cr2 1_555 1_555
O61 W7 1_555 1_555
O62 W4 1_555 1_555
O63 W2 1_555 1_555
C1 O33 1_555 1_555
C2 O7 1_555 1_555
C3 O42 1_555 1_555
C4 H1 1_555 1_555
H2 C4 1_555 1_555
H3 C4 1_555 1_555
C5 O52 1_555 1_555
C6 C1 1_555 1_555
H4 C6 1_555 1_555
H5 C6 1_555 1_555
H6 C6 1_555 1_555
C7 H7 1_555 1_555
H8 C7 1_555 1_555
H9 C7 1_555 1_555
C8 O11 1_555 1_555
C9 C3 1_555 1_555
H10 C9 1_555 1_555
H11 C9 1_555 1_555
H12 C9 1_555 1_555
C10 O2 1_555 1_555
C11 C2 1_555 1_555
H13 C11 1_555 1_555
H14 C11 1_555 1_555
H15 C11 1_555 1_555
C12 C5 1_555 1_555
H16 C12 1_555 1_555
H17 C12 1_555 1_555
H18 C12 1_555 1_555
K1D O47 1_555 1_555
K2C O9 1_555 1_555
Na1D O36 1_555 1_555
Na1_2 O14 1_555 1_555
O4F K2 1_555 1_555
O9C K2 1_555 1_555
O14_2 Na1 1_555 1_555
O36D Na1 1_555 1_555
O47D K1 1_555 1_555
W3 O50 1_555 1_555
W3 O63 1_555 1_555
W5 O17 1_555 1_555
W5 O57 1_555 1_555
W6 O20 1_555 1_555
W7 O10 1_555 1_555
W7 O47 1_555 1_555
W7 O50 1_555 1_555
W8 O29 1_555 1_555
W8 O32 1_555 1_555
W8 O55 1_555 1_555
W9 O15 1_555 1_555
W9 O31 1_555 1_555
W9 O45 1_555 1_555
W10 O30 1_555 1_555
W10 O34 1_555 1_555
W10 O57 1_555 1_555
W11 O22 1_555 1_555
W11 O23 1_555 1_555
W11 O32 1_555 1_555
W11 O48 1_555 1_555
W11 O54 1_555 1_555
W12 O25 1_555 1_555
W12 O31 1_555 1_555
W12 O49 1_555 1_555
W12 O59 1_555 1_555
Co1 O32 1_555 1_555
Co1 O50 1_555 1_555
Co1 O57 1_555 1_555
Cr2 O58 1_555 1_555
Cr3 O58 1_555 1_555
O9 C2 1_555 1_555
O44 C1 1_555 1_555
O56 C5 1_555 1_555
O60 C3 1_555 1_555
C4 C10 1_555 1_555
C7 C8 1_555 1_555

#END
