
#######################################################################
#
#                 Cambridge Crystallographic Data Centre
#                                CCDC 
#
#######################################################################
#
# If this CIF has been generated from an entry in the Cambridge 
# Structural Database, then it will include bibliographic, chemical, 
# crystal, experimental, refinement or atomic coordinate data resulting 
# from the CCDC's data processing and validation procedures.
#
#######################################################################

data_XUGWUS
_chemical_formula_moiety         '(C68 H58 Cd4 N12 O21)n'
_symmetry_cell_setting           orthorhombic
_symmetry_space_group_name_H-M   'P b c n'
_symmetry_Int_Tables_number      60
_space_group_name_Hall           '-P 2n 2ab'
loop_
_symmetry_equiv_pos_site_id
_symmetry_equiv_pos_as_xyz
1 x,y,z
2 1/2-x,1/2-y,1/2+z
3 -x,y,1/2-z
4 1/2+x,1/2-y,-z
5 -x,-y,-z
6 1/2+x,1/2+y,1/2-z
7 x,-y,1/2+z
8 1/2-x,1/2+y,z
_cell_length_a                   21.4074(14)
_cell_length_b                   27.1119(18)
_cell_length_c                   12.3879(8)
_cell_angle_alpha                90
_cell_angle_beta                 90
_cell_angle_gamma                90
_cell_volume                     7189.88
loop_
_atom_site_label
_atom_site_type_symbol
_atom_site_fract_x
_atom_site_fract_y
_atom_site_fract_z
Cd1 Cd 0.418281(10) 0.097558(8) 0.410046(18)
Cd2 Cd 0.372967(11) 0.388628(8) 0.489398(18)
C1 C 0.40853(15) 0.28359(11) 0.3797(3)
H1 H 0.4034 0.2738 0.4511
C2 C 0.41727(14) 0.24753(11) 0.3022(3)
C3 C 0.42555(17) 0.26276(13) 0.1957(3)
H2 H 0.4305 0.2396 0.1409
C4 C 0.42624(19) 0.31190(13) 0.1727(3)
H3 H 0.4331 0.3228 0.1026
C5 C 0.41661(17) 0.34542(12) 0.2557(3)
H4 H 0.4168 0.3789 0.2393
C6 C 0.41845(15) 0.19449(12) 0.3338(3)
C7 C 0.42122(13) 0.04823(11) 0.6512(2)
H5 H 0.4242 0.0194 0.6108
C8 C 0.41894(13) 0.04448(11) 0.7637(2)
C9 C 0.41667(17) 0.08752(13) 0.8230(3)
H6 H 0.4157 0.0865 0.8980
C10 C 0.4158(2) 0.13159(14) 0.7698(3)
H7 H 0.4149 0.1610 0.8085
C11 C 0.41633(19) 0.13247(13) 0.6580(3)
H8 H 0.4146 0.1628 0.6230
C12 C 0.41888(14) -0.00475(12) 0.8187(3)
C13 C 0.2539(2) 0.23291(17) 0.5832(5)
H9 H 0.2419 0.2439 0.5151
C14 C 0.29350(18) 0.26124(12) 0.6423(3)
C15 C 0.3087(3) 0.24441(17) 0.7428(4)
H10 H 0.3366 0.2624 0.7846
C16 C 0.2843(5) 0.2026(3) 0.7827(7)
H11 H 0.2935 0.1926 0.8528
C17 C 0.2472(5) 0.1761(3) 0.7213(11)
H12 H 0.2313 0.1469 0.7493
C18 C 0.32047(18) 0.30768(12) 0.5975(3)
C19 C 0.34743(14) 0.47262(11) 0.6857(2)
H13 H 0.3906 0.4728 0.6943
C20 C 0.31212(14) 0.50438(10) 0.7489(2)
C21 C 0.24784(15) 0.50267(11) 0.7383(3)
H14 H 0.2227 0.5233 0.7795
C22 C 0.22142(15) 0.47004(12) 0.6661(3)
H15 H 0.1783 0.4677 0.6591
C23 C 0.26031(15) 0.44092(12) 0.6046(3)
H16 H 0.2423 0.4196 0.5547
C24 C 0.34221(17) 0.54057(11) 0.8265(3)
C25 C 0.01295(17) 0.06722(15) 0.5150(3)
H17 H -0.0060 0.0454 0.5629
C26 C 0.07678(17) 0.06518(15) 0.5031(4)
H18 H 0.0995 0.0420 0.5420
C27 C 0.10758(15) 0.09683(11) 0.4347(2)
C28 C 0.06982(16) 0.12907(16) 0.3805(3)
H19 H 0.0875 0.1512 0.3320
C29 C 0.00637(17) 0.12946(16) 0.3961(3)
H20 H -0.0173 0.1526 0.3586
C30 C 0.17619(15) 0.09724(10) 0.4252(2)
C31 C 0.20756(16) 0.12625(13) 0.3509(3)
H21 H 0.1849 0.1457 0.3029
C32 C 0.27183(16) 0.12669(14) 0.3470(3)
H22 H 0.2912 0.1470 0.2966
C33 C 0.27789(17) 0.07000(16) 0.4785(3)
H23 H 0.3017 0.0493 0.5219
C34 C 0.21378(17) 0.06754(16) 0.4889(3)
H24 H 0.1959 0.0460 0.5384
N1 N 0.40707(13) 0.33200(9) 0.3575(2)
N2 N 0.41925(12) 0.09182(9) 0.5989(2)
N3 N 0.2310(3) 0.1889(2) 0.6200(8)
N4 N 0.32272(11) 0.44178(9) 0.6130(2)
N5 N -0.02290(12) 0.09868(9) 0.4616(2)
N6 N 0.30780(13) 0.09952(10) 0.4117(2)
O1 O 0.42605(13) 0.18380(9) 0.4316(2)
O2 O 0.41161(12) 0.16207(9) 0.2632(2)
O3 O 0.42211(10) -0.04309(8) 0.76126(19)
O4 O 0.41418(14) -0.00674(10) 0.91760(19)
O5 O 0.37204(12) 0.32287(9) 0.6321(2)
O6 O 0.29138(14) 0.32952(9) 0.5244(2)
O7 O 0.39901(13) 0.53692(10) 0.8445(2)
O8 O 0.30735(11) 0.57260(9) 0.8677(2)
O9 O 0.52668(11) 0.09623(10) 0.4040(2)
H25 H 0.5372 0.0710 0.3667
H26 H 0.5392 0.1215 0.3732
Cd1F Cd 0.418281(10) -0.097558(8) -0.089954(18)
Cd1F_2 Cd 0.418281(10) -0.097558(8) 0.910046(18)
Cd1C Cd 0.918281(10) 0.402442(8) 0.589954(18)
Cd2C Cd -0.127033(11) 0.111372(8) 0.510602(18)
Cd2F Cd 0.372967(11) 0.611372(8) 0.989398(18)
Cd2F_2 Cd 0.372967(11) 0.611372(8) -0.010602(18)
Cd2F_3 Cd 0.372967(11) -0.388628(8) -0.010602(18)
C1F C 0.40853(15) -0.28359(11) -0.1203(3)
H1F H 0.4034 -0.2738 -0.0489
C2F C 0.41727(14) -0.24753(11) -0.1978(3)
C3F C 0.42555(17) -0.26276(13) -0.3043(3)
H2F H 0.4305 -0.2396 -0.3591
C4F C 0.42624(19) -0.31190(13) -0.3273(3)
H3F H 0.4331 -0.3228 -0.3974
C5F C 0.41661(17) -0.34542(12) -0.2443(3)
H4F H 0.4168 -0.3789 -0.2607
C6F C 0.41845(15) -0.19449(12) -0.1662(3)
C7F C 0.42122(13) -0.04823(11) 0.1512(2)
H5F H 0.4242 -0.0194 0.1108
C8F C 0.41894(13) -0.04448(11) 0.2637(2)
C9F C 0.41667(17) -0.08752(13) 0.3230(3)
H6F H 0.4157 -0.0865 0.3980
C10F C 0.4158(2) -0.13159(14) 0.2698(3)
H7F H 0.4149 -0.1610 0.3085
C11F C 0.41633(19) -0.13247(13) 0.1580(3)
H8F H 0.4146 -0.1628 0.1230
C12F C 0.41888(14) 0.00475(12) 0.3187(3)
C13C C -0.2461(2) 0.26709(17) 0.4168(5)
H9C H -0.2581 0.2561 0.4849
C14C C -0.20650(18) 0.23876(12) 0.3577(3)
C15C C -0.1913(3) 0.25559(17) 0.2572(4)
H10C H -0.1634 0.2376 0.2154
C16C C -0.2157(5) 0.2974(3) 0.2173(7)
H11C H -0.2065 0.3074 0.1472
C17C C -0.2528(5) 0.3239(3) 0.2787(11)
H12C H -0.2687 0.3531 0.2507
C18C C -0.17953(18) 0.19232(12) 0.4025(3)
C19F C 0.34743(14) 0.52738(11) 0.1857(2)
H13F H 0.3906 0.5272 0.1943
C20F C 0.31212(14) 0.49562(10) 0.2489(2)
C21F C 0.24784(15) 0.49733(11) 0.2383(3)
H14F H 0.2227 0.4767 0.2795
C22F C 0.22142(15) 0.52996(12) 0.1661(3)
H15F H 0.1783 0.5323 0.1591
C23F C 0.26031(15) 0.55908(12) 0.1046(3)
H16F H 0.2423 0.5804 0.0547
C24F C 0.34221(17) 0.45943(11) 0.3265(3)
C25C C 0.51295(17) 0.43278(15) 0.4850(3)
H17C H 0.4940 0.4546 0.4371
C26C C 0.57678(17) 0.43482(15) 0.4969(4)
H18C H 0.5995 0.4580 0.4580
C27C C 0.60758(15) 0.40317(11) 0.5653(2)
C28C C 0.56982(16) 0.37093(16) 0.6195(3)
H19C H 0.5875 0.3488 0.6680
C29C C 0.50637(17) 0.37054(16) 0.6039(3)
H20C H 0.4827 0.3474 0.6414
C30C C 0.67619(15) 0.40276(10) 0.5748(2)
C31C C 0.70756(16) 0.37375(13) 0.6491(3)
H21C H 0.6849 0.3543 0.6971
C32C C 0.77183(16) 0.37331(14) 0.6530(3)
H22C H 0.7912 0.3530 0.7034
C33C C 0.77789(17) 0.43000(16) 0.5215(3)
H23C H 0.8017 0.4507 0.4781
C34C C 0.71378(17) 0.43246(16) 0.5111(3)
H24C H 0.6959 0.4540 0.4616
N1F N 0.40707(13) -0.33200(9) -0.1425(2)
N1C N -0.09293(13) 0.16800(9) 0.6425(2)
N2F N 0.41925(12) -0.09182(9) 0.0989(2)
N3C N -0.2690(3) 0.3111(2) 0.3800(8)
N4F N 0.32272(11) 0.55822(9) 0.1130(2)
N4C N -0.17728(11) 0.05822(9) 0.3870(2)
N5C N 0.47710(12) 0.40132(9) 0.5384(2)
N6C N 0.80780(13) 0.40048(10) 0.5883(2)
N6F N 0.30780(13) -0.09952(10) -0.0883(2)
O1F O 0.42605(13) -0.18380(9) -0.0684(2)
O2F O 0.41161(12) -0.16207(9) -0.2368(2)
O3F O 0.42211(10) 0.04309(8) 0.26126(19)
O3_2 O 0.42211(10) -0.04309(8) -0.23874(19)
O4F O 0.41418(14) 0.00674(10) 0.41760(19)
O4_2 O 0.41418(14) -0.00674(10) -0.08240(19)
O5C O -0.12796(12) 0.17713(9) 0.3679(2)
O6C O -0.20862(14) 0.17048(9) 0.4756(2)
O7F O 0.39901(13) 0.46308(10) 0.3445(2)
O8F O 0.30735(11) 0.42740(9) 0.3677(2)
O8E O -0.19265(11) 0.07260(9) 0.6323(2)
O9F O 0.52668(11) -0.09623(10) -0.0960(2)
H25F H 0.5372 -0.0710 -0.1333
H26F H 0.5392 -0.1215 -0.1268
O11 O 0.5308(2) 0.22771(19) 0.5520(3)
H29 H 0.5205 0.2328 0.6173
H30 H 0.5633 0.2098 0.5506
O12 O 0.3591(3) 0.1682(2) 0.0240(5)
H31 H 0.3194 0.1690 0.0254
H32 H 0.3723 0.1668 0.0886
O13 O 0.5000 0.4859(2) 0.7500
H33 H 0.4716 0.5042 0.7765
H33B H 0.5284 0.5042 0.7235
loop_
_geom_bond_atom_site_label_1
_geom_bond_atom_site_label_2
_geom_bond_site_symmetry_1
_geom_bond_site_symmetry_2
Cd1 N2 1_555 1_555
Cd2 N1 1_555 1_555
C1 H1 1_555 1_555
C2 C1 1_555 1_555
C3 C2 1_555 1_555
H2 C3 1_555 1_555
C4 C3 1_555 1_555
H3 C4 1_555 1_555
C5 C4 1_555 1_555
H4 C5 1_555 1_555
C6 C2 1_555 1_555
C7 H5 1_555 1_555
C8 C7 1_555 1_555
C9 C8 1_555 1_555
H6 C9 1_555 1_555
C10 C9 1_555 1_555
H7 C10 1_555 1_555
C11 C10 1_555 1_555
H8 C11 1_555 1_555
C12 C8 1_555 1_555
C13 H9 1_555 1_555
C14 C13 1_555 1_555
C15 C14 1_555 1_555
H10 C15 1_555 1_555
C16 C15 1_555 1_555
H11 C16 1_555 1_555
C17 C16 1_555 1_555
H12 C17 1_555 1_555
C18 C14 1_555 1_555
C19 H13 1_555 1_555
C20 C19 1_555 1_555
C21 C20 1_555 1_555
H14 C21 1_555 1_555
C22 C21 1_555 1_555
H15 C22 1_555 1_555
C23 C22 1_555 1_555
H16 C23 1_555 1_555
C24 C20 1_555 1_555
C25 H17 1_555 1_555
C26 C25 1_555 1_555
H18 C26 1_555 1_555
C27 C26 1_555 1_555
C28 C27 1_555 1_555
H19 C28 1_555 1_555
C29 C28 1_555 1_555
H20 C29 1_555 1_555
C30 C27 1_555 1_555
C31 C30 1_555 1_555
H21 C31 1_555 1_555
C32 C31 1_555 1_555
H22 C32 1_555 1_555
C33 H23 1_555 1_555
C34 C30 1_555 1_555
H24 C34 1_555 1_555
N1 C1 1_555 1_555
N2 C7 1_555 1_555
N3 C13 1_555 1_555
N4 Cd2 1_555 1_555
N5 C25 1_555 1_555
N6 Cd1 1_555 1_555
O1 Cd1 1_555 1_555
O2 Cd1 1_555 1_555
O3 C12 1_555 1_555
O4 C12 1_555 1_555
O5 Cd2 1_555 1_555
O6 Cd2 1_555 1_555
O7 C24 1_555 1_555
O8 C24 1_555 1_555
O9 Cd1 1_555 1_555
H25 O9 1_555 1_555
H26 O9 1_555 1_555
O11 H29 1_555 1_555
H30 O11 1_555 1_555
O12 H31 1_555 1_555
H32 O12 1_555 1_555
O13 H33 1_555 1_555
Cd1F N2F 1_555 1_555
Cd1F_2 O3 1_555 1_555
Cd1C N6C 1_555 1_555
Cd2C N5 1_555 1_555
Cd2F O8 1_555 1_555
Cd2F_2 N4F 1_555 1_555
Cd2F_3 N1F 1_555 1_555
C1F H1F 1_555 1_555
C2F C1F 1_555 1_555
C3F C2F 1_555 1_555
H2F C3F 1_555 1_555
C4F C3F 1_555 1_555
H3F C4F 1_555 1_555
C5F C4F 1_555 1_555
H4F C5F 1_555 1_555
C6F C2F 1_555 1_555
C7F H5F 1_555 1_555
C8F C7F 1_555 1_555
C9F C8F 1_555 1_555
H6F C9F 1_555 1_555
C10F C9F 1_555 1_555
H7F C10F 1_555 1_555
C11F C10F 1_555 1_555
H8F C11F 1_555 1_555
C12F C8F 1_555 1_555
C13C H9C 1_555 1_555
C14C C13C 1_555 1_555
C15C C14C 1_555 1_555
H10C C15C 1_555 1_555
C16C C15C 1_555 1_555
H11C C16C 1_555 1_555
C17C C16C 1_555 1_555
H12C C17C 1_555 1_555
C18C C14C 1_555 1_555
C19F H13F 1_555 1_555
C20F C19F 1_555 1_555
C21F C20F 1_555 1_555
H14F C21F 1_555 1_555
C22F C21F 1_555 1_555
H15F C22F 1_555 1_555
C23F C22F 1_555 1_555
H16F C23F 1_555 1_555
C24F C20F 1_555 1_555
C25C H17C 1_555 1_555
C26C C25C 1_555 1_555
H18C C26C 1_555 1_555
C27C C26C 1_555 1_555
C28C C27C 1_555 1_555
H19C C28C 1_555 1_555
C29C C28C 1_555 1_555
H20C C29C 1_555 1_555
C30C C27C 1_555 1_555
C31C C30C 1_555 1_555
H21C C31C 1_555 1_555
C32C C31C 1_555 1_555
H22C C32C 1_555 1_555
C33C H23C 1_555 1_555
C34C C30C 1_555 1_555
H24C C34C 1_555 1_555
N1F C1F 1_555 1_555
N1C Cd2C 1_555 1_555
N2F C7F 1_555 1_555
N3C C13C 1_555 1_555
N4F C19F 1_555 1_555
N4C Cd2C 1_555 1_555
N5C Cd2 1_555 1_555
N6C C32C 1_555 1_555
N6F Cd1F 1_555 1_555
O1F Cd1F 1_555 1_555
O2F Cd1F 1_555 1_555
O3F Cd1 1_555 1_555
O3_2 Cd1F 1_555 1_555
O4F Cd1 1_555 1_555
O4_2 Cd1F 1_555 1_555
O5C Cd2C 1_555 1_555
O6C Cd2C 1_555 1_555
O7F C24F 1_555 1_555
O8F Cd2 1_555 1_555
O8E Cd2C 1_555 1_555
O9F Cd1F 1_555 1_555
H25F O9F 1_555 1_555
H26F O9F 1_555 1_555
H33B O13 1_555 1_555
C5 N1 1_555 1_555
C6 O1 1_555 1_555
C6 O2 1_555 1_555
C11 N2 1_555 1_555
C17 N3 1_555 1_555
C18 O5 1_555 1_555
C18 O6 1_555 1_555
C19 N4 1_555 1_555
C23 N4 1_555 1_555
C29 N5 1_555 1_555
C32 N6 1_555 1_555
C33 C34 1_555 1_555
C33 N6 1_555 1_555
O4 Cd1F_2 1_555 1_555
C5F N1F 1_555 1_555
C6F O1F 1_555 1_555
C6F O2F 1_555 1_555
C11F N2F 1_555 1_555
C12F O3F 1_555 1_555
C12F O4F 1_555 1_555
C17C N3C 1_555 1_555
C18C O5C 1_555 1_555
C18C O6C 1_555 1_555
C23F N4F 1_555 1_555
C24F O8F 1_555 1_555
C25C N5C 1_555 1_555
C29C N5C 1_555 1_555
C33C C34C 1_555 1_555
C33C N6C 1_555 1_555

#END
