
#######################################################################
#
#                 Cambridge Crystallographic Data Centre
#                                CCDC 
#
#######################################################################
#
# If this CIF has been generated from an entry in the Cambridge 
# Structural Database, then it will include bibliographic, chemical, 
# crystal, experimental, refinement or atomic coordinate data resulting 
# from the CCDC's data processing and validation procedures.
#
#######################################################################

data_XUVHEB
_chemical_formula_moiety         '(C55 H43 N3 O15 Zn3)n'
_symmetry_cell_setting           orthorhombic
_symmetry_space_group_name_H-M   'P b c n'
_symmetry_Int_Tables_number      60
_space_group_name_Hall           '-P 2n 2ab'
loop_
_symmetry_equiv_pos_site_id
_symmetry_equiv_pos_as_xyz
1 x,y,z
2 1/2-x,1/2-y,1/2+z
3 -x,y,1/2-z
4 1/2+x,1/2-y,-z
5 -x,-y,-z
6 1/2+x,1/2+y,1/2-z
7 x,-y,1/2+z
8 1/2-x,1/2+y,z
_cell_length_a                   14.532(3)
_cell_length_b                   25.037(5)
_cell_length_c                   18.184(4)
_cell_angle_alpha                90
_cell_angle_beta                 90
_cell_angle_gamma                90
_cell_volume                     6616.02
loop_
_atom_site_label
_atom_site_type_symbol
_atom_site_fract_x
_atom_site_fract_y
_atom_site_fract_z
Zn1 Zn 0.46464(4) 0.35192(2) 0.05685(3)
Zn2 Zn 0.5000 0.35163(3) 0.2500
N1 N 0.4748(3) 0.35181(19) -0.0572(2)
O1 O 0.3336(3) 0.3471(2) 0.0794(3)
O2 O 0.0300(3) 0.78563(16) 0.4260(2)
O3 O 0.4673(3) 0.41739(16) 0.4278(2)
O4 O 0.4440(7) 0.4078(3) 0.3112(3)
O5 O 0.3848(4) 0.3547(5) 0.1854(3)
O6 O 0.0554(10) 0.7958(4) 0.3124(4)
C1 C 0.5059(4) 0.3951(2) -0.0929(3)
H1 H 0.5212 0.4254 -0.0660
C2 C 0.5160(4) 0.3957(3) -0.1683(3)
H2 H 0.5372 0.4265 -0.1915
C3 C 0.4951(4) 0.3514(2) -0.2095(3)
C4 C 0.4620(5) 0.3071(3) -0.1726(3)
H3 H 0.4460 0.2764 -0.1984
C5 C 0.4528(6) 0.3089(3) -0.0966(3)
H4 H 0.4305 0.2789 -0.0722
C6 C 0.3732(4) 0.4799(2) 0.3676(3)
C7 C 0.3500(5) 0.5054(3) 0.4337(3)
H5 H 0.3691 0.4913 0.4785
C8 C 0.2983(4) 0.5518(3) 0.4317(3)
H6 H 0.2846 0.5694 0.4754
C9 C 0.2665(4) 0.5728(2) 0.3652(3)
C10 C 0.2890(5) 0.5464(3) 0.3005(3)
H7 H 0.2690 0.5603 0.2558
C11 C 0.3407(6) 0.4997(3) 0.3014(3)
H8 H 0.3534 0.4819 0.2577
C12 C 0.2120(4) 0.6229(2) 0.3645(3)
C13 C 0.1728(9) 0.6429(4) 0.4246(4)
H9 H 0.1782 0.6241 0.4685
C14 C 0.2039(13) 0.6533(6) 0.3049(5)
H10 H 0.2346 0.6436 0.2621
C15 C 0.3218(4) 0.3488(3) 0.1466(3)
C16 C 0.2262(4) 0.3443(3) 0.1772(3)
C17 C 0.1517(4) 0.3339(3) 0.1327(3)
H11 H 0.1606 0.3284 0.0826
C18 C 0.0650(4) 0.3317(4) 0.1613(4)
H12 H 0.0158 0.3251 0.1299
C19 C 0.0480(4) 0.3389(3) 0.2349(3)
C20 C 0.1223(5) 0.3463(4) 0.2797(4)
H13 H 0.1135 0.3489 0.3303
C21 C 0.2112(4) 0.3501(4) 0.2511(4)
H14 H 0.2606 0.3566 0.2824
C22 C 0.0631(6) 0.7708(3) 0.3676(4)
C23 C 0.1124(5) 0.7194(3) 0.3657(3)
C24 C 0.1242(8) 0.6906(4) 0.4248(4)
H15 H 0.0991 0.7026 0.4689
C25 C 0.1502(15) 0.6996(6) 0.3054(5)
H16 H 0.1405 0.7173 0.2612
C26 C 0.4325(5) 0.4310(3) 0.3683(3)
C3B C 0.5049(4) 0.3514(2) -0.2905(3)
C2B C 0.4840(4) 0.3957(3) -0.3317(3)
C1B C 0.4941(4) 0.3951(2) -0.4071(3)
N1B N 0.5252(3) 0.35181(19) -0.4428(2)
C5B C 0.5472(6) 0.3089(3) -0.4034(3)
C4B C 0.5380(5) 0.3071(3) -0.3274(3)
H3B H 0.5540 0.2764 -0.3016
H4B H 0.5695 0.2789 -0.4278
H1B H 0.4788 0.4254 -0.4340
H2B H 0.4628 0.4265 -0.3085
C19B C -0.0480(4) 0.3389(3) 0.2651(3)
C18B C -0.0650(4) 0.3317(4) 0.3387(4)
C17B C -0.1517(4) 0.3339(3) 0.3673(3)
C16B C -0.2262(4) 0.3443(3) 0.3228(3)
C15B C -0.3218(4) 0.3488(3) 0.3534(3)
O1B O -0.3336(3) 0.3471(2) 0.4206(3)
O5B O -0.3848(4) 0.3547(5) 0.3146(3)
C21B C -0.2112(4) 0.3501(4) 0.2489(4)
C20B C -0.1223(5) 0.3463(4) 0.2203(4)
H13B H -0.1135 0.3489 0.1697
H14B H -0.2606 0.3566 0.2176
H11B H -0.1606 0.3284 0.4174
H12B H -0.0158 0.3251 0.3701
O2B O 0.9700(3) 0.78563(16) 0.0740(2)
O3B O 0.5327(3) 0.41739(16) 0.0722(2)
O4B O 0.5560(7) 0.4078(3) 0.1888(3)
O6B O 0.9446(10) 0.7958(4) 0.1876(4)
C6B C 0.6268(4) 0.4799(2) 0.1324(3)
C7B C 0.6500(5) 0.5054(3) 0.0663(3)
H5B H 0.6309 0.4913 0.0215
C8B C 0.7017(4) 0.5518(3) 0.0683(3)
H6B H 0.7154 0.5694 0.0246
C9B C 0.7335(4) 0.5728(2) 0.1348(3)
C10B C 0.7110(5) 0.5464(3) 0.1995(3)
H7B H 0.7310 0.5603 0.2442
C11B C 0.6593(6) 0.4997(3) 0.1986(3)
H8B H 0.6466 0.4819 0.2423
C12B C 0.7880(4) 0.6229(2) 0.1355(3)
C13B C 0.8272(9) 0.6429(4) 0.0754(4)
H9B H 0.8218 0.6241 0.0315
C14B C 0.7961(13) 0.6533(6) 0.1951(5)
H10B H 0.7654 0.6436 0.2379
C22B C 0.9369(6) 0.7708(3) 0.1324(4)
C23B C 0.8876(5) 0.7194(3) 0.1343(3)
C24B C 0.8758(8) 0.6906(4) 0.0752(4)
H15B H 0.9009 0.7026 0.0311
C25B C 0.8498(15) 0.6996(6) 0.1946(5)
H16B H 0.8595 0.7173 0.2388
C26B C 0.5675(5) 0.4310(3) 0.1317(3)
Zn1B Zn -0.46464(4) 0.35192(2) 0.44315(3)
O2E O 0.5300(3) 0.28563(16) 0.0740(2)
O5B_2 O 0.6152(4) 0.3547(5) 0.3146(3)
O6E O 0.5554(10) 0.2958(4) 0.1876(4)
O6G O 0.4446(10) 0.2958(4) 0.3124(4)
Zn1E Zn -0.03536(4) 0.85192(2) 0.44315(3)
Zn1B_2 Zn 0.53536(4) 0.35192(2) 0.44315(3)
Zn2E Zn -0.0000 0.85163(3) 0.2500
Zn1B_3 Zn 0.53536(4) 0.35192(2) -0.55685(3)
Zn2_2 Zn -0.5000 0.35163(3) 0.2500
Zn1G Zn 1.03536(4) 0.85192(2) 0.05685(3)
Zn2E_2 Zn 1.0000 0.85163(3) 0.2500
N1B_2 N -0.4748(3) 0.35181(19) 0.5572(2)
O2G O -0.5300(3) 0.28563(16) 0.4260(2)
O3_2 O -0.5327(3) 0.41739(16) 0.4278(2)
N2 N 0.7851(6) 0.3280(4) 0.9609(6)
O7 O 0.9065(7) 0.3210(5) 1.0328(5)
C27 C 0.7376(19) 0.3108(10) 0.8992(13)
H17 H 0.6803 0.3297 0.8955
H18 H 0.7257 0.2732 0.9032
H19 H 0.7739 0.3175 0.8560
C28 C 0.7386(13) 0.3615(10) 1.0088(14)
H20 H 0.6777 0.3680 0.9905
H21 H 0.7711 0.3948 1.0128
H22 H 0.7349 0.3450 1.0563
C29 C 0.8634(11) 0.3111(7) 0.9760(8)
H23 H 0.8917 0.2891 0.9416
O8 O 0.3521(15) 0.4952(7) 0.1168(8)
O9 O 0.390(3) 0.0065(9) 0.1201(8)
loop_
_geom_bond_atom_site_label_1
_geom_bond_atom_site_label_2
_geom_bond_site_symmetry_1
_geom_bond_site_symmetry_2
Zn1 N1 1_555 1_555
Zn2 O4 1_555 1_555
N1 C1 1_555 1_555
O1 Zn1 1_555 1_555
O2 C22 1_555 1_555
O3 C26 1_555 1_555
O4 C26 1_555 1_555
O5 Zn2 1_555 1_555
O6 C22 1_555 1_555
C1 H1 1_555 1_555
C2 C1 1_555 1_555
H2 C2 1_555 1_555
C3 C2 1_555 1_555
C4 C3 1_555 1_555
H3 C4 1_555 1_555
C5 N1 1_555 1_555
H4 C5 1_555 1_555
C6 C7 1_555 1_555
C7 H5 1_555 1_555
C8 C7 1_555 1_555
H6 C8 1_555 1_555
C9 C8 1_555 1_555
C10 C9 1_555 1_555
H7 C10 1_555 1_555
C11 C6 1_555 1_555
H8 C11 1_555 1_555
C12 C9 1_555 1_555
C13 C12 1_555 1_555
H9 C13 1_555 1_555
C14 C12 1_555 1_555
H10 C14 1_555 1_555
C15 O1 1_555 1_555
C16 C15 1_555 1_555
C17 C16 1_555 1_555
H11 C17 1_555 1_555
C18 C17 1_555 1_555
H12 C18 1_555 1_555
C19 C18 1_555 1_555
C20 C19 1_555 1_555
H13 C20 1_555 1_555
C21 C16 1_555 1_555
H14 C21 1_555 1_555
C22 C23 1_555 1_555
C23 C24 1_555 1_555
C24 C13 1_555 1_555
H15 C24 1_555 1_555
C25 C14 1_555 1_555
H16 C25 1_555 1_555
C26 C6 1_555 1_555
N2 C27 1_555 1_555
O7 C29 1_555 1_555
C27 H17 1_555 1_555
H18 C27 1_555 1_555
H19 C27 1_555 1_555
C28 N2 1_555 1_555
H20 C28 1_555 1_555
H21 C28 1_555 1_555
H22 C28 1_555 1_555
C29 N2 1_555 1_555
H23 C29 1_555 1_555
C3B C3 1_555 1_555
C2B C3B 1_555 1_555
C1B C2B 1_555 1_555
N1B C1B 1_555 1_555
C5B N1B 1_555 1_555
C4B C3B 1_555 1_555
H3B C4B 1_555 1_555
H4B C5B 1_555 1_555
H1B C1B 1_555 1_555
H2B C2B 1_555 1_555
C19B C19 1_555 1_555
C18B C19B 1_555 1_555
C17B C18B 1_555 1_555
C16B C17B 1_555 1_555
C15B C16B 1_555 1_555
O1B C15B 1_555 1_555
O5B C15B 1_555 1_555
C21B C16B 1_555 1_555
C20B C19B 1_555 1_555
H13B C20B 1_555 1_555
H14B C21B 1_555 1_555
H11B C17B 1_555 1_555
H12B C18B 1_555 1_555
O2B C22B 1_555 1_555
O3B Zn1 1_555 1_555
O4B Zn2 1_555 1_555
O6B C22B 1_555 1_555
C6B C7B 1_555 1_555
C7B H5B 1_555 1_555
C8B C7B 1_555 1_555
H6B C8B 1_555 1_555
C9B C8B 1_555 1_555
C10B C9B 1_555 1_555
H7B C10B 1_555 1_555
C11B C6B 1_555 1_555
H8B C11B 1_555 1_555
C12B C9B 1_555 1_555
C13B C12B 1_555 1_555
H9B C13B 1_555 1_555
C14B C12B 1_555 1_555
H10B C14B 1_555 1_555
C22B C23B 1_555 1_555
C23B C24B 1_555 1_555
C24B C13B 1_555 1_555
H15B C24B 1_555 1_555
C25B C14B 1_555 1_555
H16B C25B 1_555 1_555
C26B O3B 1_555 1_555
Zn1B O1B 1_555 1_555
O2E Zn1 1_555 1_555
O5B_2 Zn2 1_555 1_555
O6E Zn2 1_555 1_555
O6G Zn2 1_555 1_555
Zn1E O2 1_555 1_555
Zn1B_2 O3 1_555 1_555
Zn2E O6 1_555 1_555
Zn1B_3 N1B 1_555 1_555
Zn2_2 O5B 1_555 1_555
Zn1G O2B 1_555 1_555
Zn2E_2 O6B 1_555 1_555
N1B_2 Zn1B 1_555 1_555
O2G Zn1B 1_555 1_555
O3_2 Zn1B 1_555 1_555
O5 C15 1_555 1_555
C4 C5 1_555 1_555
C10 C11 1_555 1_555
C20 C21 1_555 1_555
C23 C25 1_555 1_555
C5B C4B 1_555 1_555
C21B C20B 1_555 1_555
O4B C26B 1_555 1_555
C6B C26B 1_555 1_555
C10B C11B 1_555 1_555
C23B C25B 1_555 1_555

#END
