
#######################################################################
#
#                 Cambridge Crystallographic Data Centre
#                                CCDC 
#
#######################################################################
#
# If this CIF has been generated from an entry in the Cambridge 
# Structural Database, then it will include bibliographic, chemical, 
# crystal, experimental, refinement or atomic coordinate data resulting 
# from the CCDC's data processing and validation procedures.
#
#######################################################################

data_YURKEC
_chemical_formula_moiety         '(C63 H67 La2 N7 O25 S3)n'
_symmetry_cell_setting           monoclinic
_symmetry_space_group_name_H-M   'P 21/n'
_symmetry_Int_Tables_number      14
_space_group_name_Hall           '-P 2yn'
loop_
_symmetry_equiv_pos_site_id
_symmetry_equiv_pos_as_xyz
1 x,y,z
2 1/2-x,1/2+y,1/2-z
3 -x,-y,-z
4 1/2+x,1/2-y,1/2+z
_cell_length_a                   19.5011(13)
_cell_length_b                   16.7853(12)
_cell_length_c                   24.2950(17)
_cell_angle_alpha                90
_cell_angle_beta                 112.891(2)
_cell_angle_gamma                90
_cell_volume                     7326.24
loop_
_atom_site_label
_atom_site_type_symbol
_atom_site_fract_x
_atom_site_fract_y
_atom_site_fract_z
La1 La 0.113202(17) 0.48420(2) 0.031491(15)
La2 La 0.382445(18) 0.47805(3) -0.019118(16)
S1 S 0.10346(8) 0.76244(11) 0.30154(7)
S2 S 0.17717(8) 0.69600(11) -0.26297(8)
S3 S 0.33319(10) 0.70654(12) 0.27047(9)
O1 O 0.1541(2) 0.4833(3) -0.05168(19)
O2 O 0.3496(2) 0.4707(3) 0.06934(19)
O3 O 0.1217(2) 0.5957(3) 0.1099(2)
O4 O 0.2462(2) 0.5124(4) 0.0796(2)
O5 O -0.0767(3) 0.8918(3) -0.4640(2)
O6 O 0.2577(3) 0.5379(5) -0.0547(3)
O7 O -0.1221(3) 0.9142(4) 0.4058(3)
O8 O 0.3037(3) 0.7776(4) 0.2355(3)
O9 O 0.2208(3) 0.7631(4) -0.2308(3)
O10 O -0.0082(3) 0.9577(4) 0.4341(3)
O11 O 0.1630(6) 0.3459(4) 0.0241(3)
O12 O 0.2866(4) 0.6665(5) 0.2951(4)
O13 O 0.0393(4) 0.8739(5) -0.4588(4)
O14 O 0.1423(3) 0.8298(4) 0.2910(3)
O15 O 0.3503(6) 0.3281(6) -0.0044(6)
O16 O 0.5956(5) 0.8770(4) 0.4818(3)
O17 O 0.2112(3) 0.6438(4) -0.2920(3)
O18 O 0.1455(3) 0.7067(4) 0.3470(2)
O19 O 0.0097(2) 0.5393(4) 0.0674(2)
O20 O 0.1560(3) 0.4345(3) 0.1399(2)
O21 O 0.4699(5) 0.8741(6) 0.4661(3)
O22 O 0.3150(8) 0.4270(8) -0.1265(3)
N1 N 0.2242(3) 0.4591(4) 0.2382(3)
N2 N 0.1641(4) 0.2129(4) 0.0299(3)
N3 N 0.2604(5) 0.4437(6) -0.2263(3)
N4 N 0.3251(7) 0.2038(8) -0.0438(5)
C1 C 0.1843(7) 0.4328(9) -0.2629(7)
H1 H 0.1768 0.4409 -0.3040
H2 H 0.1549 0.4705 -0.2518
H3 H 0.1695 0.3797 -0.2578
C2 C 0.2571(6) 0.2412(8) -0.0980(6)
H4 H 0.2529 0.2968 -0.0906
H5 H 0.2120 0.2144 -0.1018
H6 H 0.2653 0.2350 -0.1343
C3 C 0.0866(13) 0.1972(14) -0.0113(11)
H7 H 0.0789 0.1408 -0.0166
H8 H 0.0775 0.2217 -0.0492
H9 H 0.0531 0.2190 0.0051
C4 C 0.3159(3) 0.5080(4) 0.0959(3)
C5 C 0.3472(10) 0.1266(9) -0.0470(8)
H10 H 0.3075 0.0982 -0.0773
H11 H 0.3591 0.1009 -0.0091
H12 H 0.3903 0.1268 -0.0569
C6 C 0.3609(3) 0.5511(4) 0.1525(3)
C7 C 0.4386(3) 0.5448(4) 0.1784(3)
H13 H 0.4627 0.5133 0.1600
C8 C 0.0621(3) 0.6441(4) -0.2427(3)
C9 C -0.0412(3) 0.7141(4) -0.3312(3)
H14 H -0.0799 0.6923 -0.3228
C10 C 0.1445(3) 0.5644(4) -0.1353(3)
C11 C 0.0256(3) 0.6040(4) -0.2126(3)
H15 H -0.0262 0.6039 -0.2275
C12 C -0.1107(4) 0.7807(5) 0.2661(3)
H16 H -0.1539 0.7608 0.2365
C13 C 0.3702(8) 0.2603(9) -0.0084(6)
H17 H 0.4194 0.2467 0.0143
C14 C 0.3095(8) 0.4642(10) -0.2564(10)
H18 H 0.2812 0.4670 -0.2987
H19 H 0.3474 0.4243 -0.2482
H20 H 0.3323 0.5150 -0.2423
C15 C 0.4807(3) 0.5847(4) 0.2312(3)
H21 H 0.5321 0.5785 0.2484
C16 C -0.0243(3) 0.7179(4) 0.2209(3)
C17 C 0.5519(4) 0.6958(4) 0.3494(3)
H22 H 0.5894 0.6684 0.3427
C18 C -0.0500(3) 0.8588(4) 0.3570(3)
C19 C 0.0220(3) 0.7935(4) 0.3117(3)
C20 C 0.0663(3) 0.5635(4) -0.1595(3)
H23 H 0.0412 0.5355 -0.1400
C21 C 0.0320(3) 0.6942(4) -0.2970(3)
C22 C -0.0415(3) 0.7640(4) 0.2654(3)
C23 C 0.4450(3) 0.6338(4) 0.2578(3)
C24 C -0.0560(3) 0.7678(4) -0.3788(3)
H24 H -0.1049 0.7828 -0.4012
C25 C 0.0798(3) 0.6730(4) 0.1965(3)
H25 H 0.1307 0.6718 0.2055
C26 C 0.5133(5) 0.7906(4) 0.4082(3)
C27 C -0.0744(3) 0.6816(5) 0.1693(3)
H26 H -0.1253 0.6846 0.1600
C28 C 0.3243(3) 0.5997(4) 0.1792(3)
H27 H 0.2728 0.6051 0.1626
C29 C 0.0203(3) 0.8409(4) 0.3572(3)
H28 H 0.0637 0.8604 0.3867
C30 C 0.1825(3) 0.6029(4) -0.1657(3)
H29 H 0.2342 0.6026 -0.1510
C31 C 0.4778(3) 0.6841(4) 0.3121(3)
C32 C 0.0012(4) 0.7993(5) -0.3933(3)
C33 C 0.1413(3) 0.6416(4) -0.2184(3)
C34 C 0.0298(4) 0.6357(5) 0.1457(3)
C35 C -0.1140(4) 0.8279(5) 0.3119(3)
H30 H -0.1602 0.8395 0.3127
C36 C 0.1895(4) 0.2851(5) 0.0459(4)
H31 H 0.2345 0.2886 0.0787
C37 C -0.0129(4) 0.8615(5) -0.4416(4)
C38 C 0.0516(3) 0.7121(4) 0.2335(3)
C39 C -0.0599(3) 0.9119(5) 0.4031(3)
C40 C 0.3669(3) 0.6392(4) 0.2307(3)
C41 C 0.4231(4) 0.7260(4) 0.3246(3)
C42 C 0.0881(3) 0.7267(4) -0.3127(3)
C43 C 0.1859(10) 0.1410(9) 0.0624(8)
H32 H 0.1551 0.0982 0.0398
H33 H 0.1805 0.1460 0.0998
H34 H 0.2370 0.1299 0.0696
C44 C 0.5298(7) 0.8533(5) 0.4553(3)
C45 C 0.2953(5) 0.4553(6) 0.2882(3)
H35 H 0.2897 0.4732 0.3237
H36 H 0.3304 0.4888 0.2804
H37 H 0.3131 0.4014 0.2936
C46 C 0.2647(10) 0.4279(11) -0.1696(7)
H38 H 0.2197 0.4162 -0.1665
C47 C 0.1626(4) 0.4842(7) 0.2526(4)
H39 H 0.1802 0.4971 0.2943
H40 H 0.1267 0.4420 0.2436
H41 H 0.1399 0.5304 0.2293
C48 C 0.5696(4) 0.7490(4) 0.3967(3)
H42 H 0.6192 0.7574 0.4213
C49 C 0.0749(4) 0.7780(5) -0.3600(3)
H43 H 0.1136 0.7976 -0.3693
C50 C 0.2168(4) 0.4375(4) 0.1839(3)
H44 H 0.2596 0.4237 0.1780
C51 C -0.0475(4) 0.6409(5) 0.1320(3)
H45 H -0.0809 0.6168 0.0976
C52 C 0.0560(4) 0.5884(5) 0.1049(3)
C53 C 0.4388(5) 0.7777(4) 0.3715(3)
H46 H 0.4009 0.8036 0.3786
C54 C 0.1871(4) 0.5261(5) -0.0761(3)
La1C La 0.613202(17) 1.01580(2) 0.531491(15)
La1B La -0.113202(17) 0.51580(2) -0.031491(15)
La1A La 0.386798(17) 0.98420(2) 0.468509(15)
La2C La -0.117555(18) 1.02195(3) -0.519118(16)
La2C_2 La -0.117555(18) 1.02195(3) 0.480882(16)
La2A La 0.117555(18) 0.97805(3) 0.519118(16)
La2A_2 La 0.117555(18) 0.97805(3) -0.480882(16)
O5C O 0.4233(3) 0.6082(3) 0.0360(2)
O7C O 0.3779(3) 0.5858(4) -0.0942(3)
O10A O 0.5082(3) 0.4577(4) 0.0659(3)
O13A O 0.4607(4) 0.3739(5) -0.0412(4)
O16C O 0.0956(5) 0.6230(4) -0.0182(3)
O19B O -0.0097(2) 0.4607(4) -0.0674(2)
O21A O 0.0301(5) 0.3741(6) 0.0339(3)
O23 O 0.6588(6) 0.4771(6) 0.3759(5)
N5 N 0.5432(4) 0.4754(4) 0.3772(3)
C55 C 0.6123(6) 0.5001(6) 0.3953(5)
H47 H 0.6277 0.5382 0.4255
C56 C 0.4921(6) 0.5055(6) 0.4022(5)
H48 H 0.4444 0.4805 0.3827
H49 H 0.4869 0.5621 0.3964
H50 H 0.5110 0.4938 0.4442
C57 C 0.5141(7) 0.4140(7) 0.3308(5)
H51 H 0.4626 0.4042 0.3231
H52 H 0.5420 0.3657 0.3443
H53 H 0.5186 0.4319 0.2949
O24 O 0.1238(5) 0.9448(6) 0.0373(4)
N6 N 0.1755(4) 0.8229(5) 0.0682(3)
C58 C 0.1132(8) 0.7938(7) 0.0796(8)
H54 H 0.1224 0.7398 0.0935
H55 H 0.0692 0.7958 0.0435
H56 H 0.1061 0.8264 0.1095
C59 C 0.2391(8) 0.7715(8) 0.0799(6)
H57 H 0.2297 0.7206 0.0936
H58 H 0.2822 0.7952 0.1099
H59 H 0.2476 0.7646 0.0438
C60 C 0.1745(6) 0.8976(7) 0.0484(4)
H60 H 0.2165 0.9148 0.0425
O25 O 0.4525(8) 0.8486(7) -0.0535(6)
N7 N 0.3383(5) 0.8134(6) -0.0614(4)
C61 C 0.3127(18) 0.8949(16) -0.0768(8)
H61 H 0.2609 0.8983 -0.0837
H62 H 0.3196 0.9104 -0.1123
H63 H 0.3408 0.9297 -0.0446
C62 C 0.2908(9) 0.7448(15) -0.0583(9)
H64 H 0.2410 0.7632 -0.0670
H65 H 0.3109 0.7222 -0.0189
H66 H 0.2900 0.7051 -0.0870
C63 C 0.4078(7) 0.7989(7) -0.0509(6)
H67 H 0.4248 0.7471 -0.0406
loop_
_geom_bond_atom_site_label_1
_geom_bond_atom_site_label_2
_geom_bond_site_symmetry_1
_geom_bond_site_symmetry_2
La1 O1 1_555 1_555
La2 O2 1_555 1_555
S1 O14 1_555 1_555
S2 O9 1_555 1_555
S3 O8 1_555 1_555
O1 C54 1_555 1_555
O2 C4 1_555 1_555
O3 La1 1_555 1_555
O4 La1 1_555 1_555
O5 C37 1_555 1_555
O6 La2 1_555 1_555
O7 C39 1_555 1_555
O10 C39 1_555 1_555
O11 La1 1_555 1_555
O12 S3 1_555 1_555
O13 C37 1_555 1_555
O15 La2 1_555 1_555
O16 C44 1_555 1_555
O17 S2 1_555 1_555
O18 S1 1_555 1_555
O19 La1 1_555 1_555
O20 La1 1_555 1_555
O21 C44 1_555 1_555
O22 La2 1_555 1_555
N1 C45 1_555 1_555
N2 C3 1_555 1_555
N3 C1 1_555 1_555
N4 C2 1_555 1_555
C1 H1 1_555 1_555
H2 C1 1_555 1_555
H3 C1 1_555 1_555
C2 H4 1_555 1_555
H5 C2 1_555 1_555
H6 C2 1_555 1_555
C3 H7 1_555 1_555
H8 C3 1_555 1_555
H9 C3 1_555 1_555
C4 O4 1_555 1_555
C5 N4 1_555 1_555
H10 C5 1_555 1_555
H11 C5 1_555 1_555
H12 C5 1_555 1_555
C6 C4 1_555 1_555
C7 C6 1_555 1_555
H13 C7 1_555 1_555
C8 C11 1_555 1_555
C9 H14 1_555 1_555
C10 C20 1_555 1_555
C11 H15 1_555 1_555
C12 H16 1_555 1_555
C13 O15 1_555 1_555
H17 C13 1_555 1_555
C14 N3 1_555 1_555
H18 C14 1_555 1_555
H19 C14 1_555 1_555
H20 C14 1_555 1_555
C15 C7 1_555 1_555
H21 C15 1_555 1_555
C16 C22 1_555 1_555
C17 H22 1_555 1_555
C18 C29 1_555 1_555
C19 S1 1_555 1_555
C20 C11 1_555 1_555
H23 C20 1_555 1_555
C21 C8 1_555 1_555
C22 C12 1_555 1_555
C23 C15 1_555 1_555
C24 C9 1_555 1_555
H24 C24 1_555 1_555
C25 H25 1_555 1_555
C26 C44 1_555 1_555
C27 C16 1_555 1_555
H26 C27 1_555 1_555
C28 C6 1_555 1_555
H27 C28 1_555 1_555
C29 C19 1_555 1_555
H28 C29 1_555 1_555
C30 C10 1_555 1_555
H29 C30 1_555 1_555
C31 C17 1_555 1_555
C32 C24 1_555 1_555
C33 S2 1_555 1_555
C34 C25 1_555 1_555
C35 C12 1_555 1_555
H30 C35 1_555 1_555
C36 O11 1_555 1_555
H31 C36 1_555 1_555
C37 C32 1_555 1_555
C38 S1 1_555 1_555
C39 C18 1_555 1_555
C40 S3 1_555 1_555
C41 S3 1_555 1_555
C42 S2 1_555 1_555
C43 N2 1_555 1_555
H32 C43 1_555 1_555
H33 C43 1_555 1_555
H34 C43 1_555 1_555
C45 H35 1_555 1_555
H36 C45 1_555 1_555
H37 C45 1_555 1_555
C46 O22 1_555 1_555
H38 C46 1_555 1_555
C47 N1 1_555 1_555
H39 C47 1_555 1_555
H40 C47 1_555 1_555
H41 C47 1_555 1_555
C48 C17 1_555 1_555
H42 C48 1_555 1_555
C49 C32 1_555 1_555
H43 C49 1_555 1_555
C50 O20 1_555 1_555
H44 C50 1_555 1_555
C51 C27 1_555 1_555
H45 C51 1_555 1_555
C52 O3 1_555 1_555
C53 C26 1_555 1_555
H46 C53 1_555 1_555
C54 O6 1_555 1_555
O23 C55 1_555 1_555
N5 C55 1_555 1_555
C55 H47 1_555 1_555
C56 N5 1_555 1_555
H48 C56 1_555 1_555
H49 C56 1_555 1_555
H50 C56 1_555 1_555
C57 N5 1_555 1_555
H51 C57 1_555 1_555
H52 C57 1_555 1_555
H53 C57 1_555 1_555
O24 C60 1_555 1_555
N6 C58 1_555 1_555
C58 H54 1_555 1_555
H55 C58 1_555 1_555
H56 C58 1_555 1_555
C59 N6 1_555 1_555
H57 C59 1_555 1_555
H58 C59 1_555 1_555
H59 C59 1_555 1_555
C60 N6 1_555 1_555
H60 C60 1_555 1_555
O25 C63 1_555 1_555
N7 C61 1_555 1_555
C61 H61 1_555 1_555
H62 C61 1_555 1_555
H63 C61 1_555 1_555
C62 N7 1_555 1_555
H64 C62 1_555 1_555
H65 C62 1_555 1_555
H66 C62 1_555 1_555
C63 N7 1_555 1_555
H67 C63 1_555 1_555
La1C O16 1_555 1_555
La1B O19 1_555 1_555
La1A O21 1_555 1_555
La2C O5 1_555 1_555
La2C_2 O7 1_555 1_555
La2A O10 1_555 1_555
La2A_2 O13 1_555 1_555
O5C La2 1_555 1_555
O7C La2 1_555 1_555
O10A La2 1_555 1_555
O13A La2 1_555 1_555
O16C La1 1_555 1_555
O19B La1 1_555 1_555
O21A La1 1_555 1_555
O19 C52 1_555 1_555
N1 C50 1_555 1_555
N2 C36 1_555 1_555
N3 C46 1_555 1_555
N4 C13 1_555 1_555
C8 C33 1_555 1_555
C9 C21 1_555 1_555
C10 C54 1_555 1_555
C16 C38 1_555 1_555
C18 C35 1_555 1_555
C19 C22 1_555 1_555
C21 C42 1_555 1_555
C23 C31 1_555 1_555
C23 C40 1_555 1_555
C25 C38 1_555 1_555
C26 C48 1_555 1_555
C28 C40 1_555 1_555
C30 C33 1_555 1_555
C31 C41 1_555 1_555
C34 C51 1_555 1_555
C34 C52 1_555 1_555
C41 C53 1_555 1_555
C42 C49 1_555 1_555
La1B O19B 1_555 1_555

#END
