
#######################################################################
#
#                 Cambridge Crystallographic Data Centre
#                                CCDC 
#
#######################################################################
#
# If this CIF has been generated from an entry in the Cambridge 
# Structural Database, then it will include bibliographic, chemical, 
# crystal, experimental, refinement or atomic coordinate data resulting 
# from the CCDC's data processing and validation procedures.
#
#######################################################################

data_DADLEC
_chemical_formula_moiety         'C39 H27 Mn3 N1 O11'
_symmetry_cell_setting           orthorhombic
_symmetry_space_group_name_H-M   'A b a 2'
_symmetry_Int_Tables_number      41
_space_group_name_Hall           'A 2 -2ab'
loop_
_symmetry_equiv_pos_site_id
_symmetry_equiv_pos_as_xyz
1 x,y,z
2 -x,-y,z
3 1/2-x,y,1/2+z
4 1/2+x,-y,1/2+z
5 x,1/2+y,1/2+z
6 -x,1/2-y,1/2+z
7 1/2-x,1/2+y,z
8 1/2+x,1/2-y,z
_cell_length_a                   37.475(2)
_cell_length_b                   13.3270(12)
_cell_length_c                   15.9941(14)
_cell_angle_alpha                90
_cell_angle_beta                 90
_cell_angle_gamma                90
_cell_volume                     7987.92
loop_
_atom_site_label
_atom_site_type_symbol
_atom_site_fract_x
_atom_site_fract_y
_atom_site_fract_z
O9 O -0.0910(2) 1.1193(7) -0.0604(6)
Mn1 Mn -0.02836(2) 1.13597(8) 0.13880(9)
C1 C -0.25392(17) 1.8771(5) -0.0648(5)
C2 C -0.31448(16) 1.8725(5) -0.1659(5)
C3 C -0.19004(18) 2.2328(5) 0.1769(4)
C4 C -0.16202(16) 1.6289(5) 0.0500(4)
C5 C -0.19981(16) 2.1464(5) 0.1248(5)
C6 C -0.26240(17) 1.9591(5) -0.1150(4)
H1 H -0.2477 2.0154 -0.1160
C7 C -0.30590(16) 1.7919(5) -0.1172(4)
H2 H -0.3205 1.7354 -0.1176
C8 C -0.19645(18) 1.7277(5) -0.0495(5)
H3 H -0.2054 1.7349 -0.1034
C9 C -0.1253(2) 1.3672(5) 0.0474(5)
H4 H -0.1307 1.3056 0.0232
C10 C -0.14034(16) 1.5417(5) 0.0696(4)
C11 C -0.41515(17) 1.8934(6) -0.2939(5)
C12 C -0.35001(18) 1.8774(5) -0.2142(4)
C13 C -0.09489(19) 1.3764(5) 0.0979(5)
C14 C -0.27561(19) 1.7936(5) -0.0673(4)
H5 H -0.2699 1.7378 -0.0351
C15 C -0.20363(16) 1.7980(5) 0.0097(5)
C16 C -0.08846(17) 1.4679(5) 0.1375(6)
H6 H -0.0693 1.4742 0.1740
C17 C -0.1993(2) 2.3990(6) 0.2315(5)
H7 H -0.2140 2.4551 0.2351
C18 C -0.21073(19) 2.3158(5) 0.1876(5)
H8 H -0.2335 2.3165 0.1644
C19 C -0.29309(17) 1.9554(5) -0.1637(5)
H9 H -0.2992 2.0110 -0.1957
C20 C -0.23431(19) 2.1096(5) 0.1228(5)
H10 H -0.2520 2.1416 0.1537
C21 C -0.1476(2) 1.4504(5) 0.0329(5)
H11 H -0.1674 1.4437 -0.0018
C22 C -0.11053(17) 1.5494(5) 0.1225(5)
H12 H -0.1055 1.6104 0.1481
C23 C -0.4087(2) 1.8168(6) -0.2385(6)
H13 H -0.4264 1.7703 -0.2264
C24 C -0.17025(18) 1.7020(5) 0.1104(4)
H14 H -0.1617 1.6945 0.1646
C25 C -0.21774(17) 1.9750(5) 0.0331(4)
C26 C -0.19070(17) 1.7844(5) 0.0910(5)
H15 H -0.1960 1.8314 0.1322
C27 C -0.4519(2) 1.9082(7) -0.3308(5)
C28 C -0.0714(2) 1.2874(7) 0.1129(5)
C29 C -0.1573(2) 2.2351(6) 0.2181(5)
H16 H -0.1426 2.1791 0.2144
C30 C -0.1665(2) 2.3999(5) 0.2699(4)
C31 C -0.17494(19) 1.6422(5) -0.0285(5)
H17 H -0.1698 1.5950 -0.0695
C32 C -0.37571(18) 1.8095(6) -0.2011(5)
H18 H -0.3712 1.7558 -0.1656
C33 C -0.1459(2) 2.3147(6) 0.2632(5)
H19 H -0.1239 2.3119 0.2899
C34 C -0.18213(19) 2.0143(5) 0.0327(5)
H20 H -0.1642 1.9829 0.0023
C35 C -0.17538(18) 2.0970(5) 0.0769(4)
H21 H -0.1523 2.1228 0.0749
C36 C -0.3891(2) 1.9605(7) -0.3107(5)
H22 H -0.3927 2.0118 -0.3492
C37 C -0.1559(2) 2.4926(8) 0.3145(5)
C38 C -0.24298(18) 2.0263(5) 0.0759(5)
H23 H -0.2666 2.0051 0.0736
C39 C -0.35677(18) 1.9509(6) -0.2692(5)
H24 H -0.3389 1.9977 -0.2800
O1 O -0.08101(15) 1.2018(4) 0.0906(4)
O2 O -0.04177(15) 1.3016(4) 0.1511(5)
O3 O -0.45701(13) 1.9838(4) -0.3776(4)
O4 O -0.47527(13) 1.8411(5) -0.3189(4)
O5 O -0.12462(18) 2.4763(5) 0.3525(4)
H25 H -0.1180 2.5280 0.3755
O6 O -0.17116(18) 2.5682(5) 0.3173(4)
O7 O -0.0098(2) 1.1371(7) 0.0072(5)
O8 O -0.0448(2) 1.1194(8) 0.2708(5)
N1 N -0.22443(15) 1.8832(4) -0.0106(4)
Mn1B Mn -0.47164(2) 2.13597(8) -0.36120(9)
Mn1C Mn -0.52836(2) 1.86403(8) -0.36120(9)
O3B O -0.04299(13) 0.9838(4) 0.1224(4)
O4C O 0.02473(13) 1.1589(5) 0.1811(4)
loop_
_geom_bond_atom_site_label_1
_geom_bond_atom_site_label_2
_geom_bond_site_symmetry_1
_geom_bond_site_symmetry_2
Mn1 O1 1_555 1_555
C1 C6 1_555 1_555
C2 C7 1_555 1_555
C3 C5 1_555 1_555
C4 C10 1_555 1_555
C5 C20 1_555 1_555
C6 H1 1_555 1_555
C7 H2 1_555 1_555
C8 H3 1_555 1_555
C9 H4 1_555 1_555
C10 C21 1_555 1_555
C11 C23 1_555 1_555
C12 C2 1_555 1_555
C13 C9 1_555 1_555
C14 C1 1_555 1_555
H5 C14 1_555 1_555
C15 C8 1_555 1_555
C16 C13 1_555 1_555
H6 C16 1_555 1_555
C17 H7 1_555 1_555
C18 C3 1_555 1_555
H8 C18 1_555 1_555
C19 C2 1_555 1_555
H9 C19 1_555 1_555
C20 H10 1_555 1_555
C21 C9 1_555 1_555
H11 C21 1_555 1_555
C22 C10 1_555 1_555
H12 C22 1_555 1_555
C23 H13 1_555 1_555
C24 C4 1_555 1_555
H14 C24 1_555 1_555
C25 C34 1_555 1_555
C26 C15 1_555 1_555
H15 C26 1_555 1_555
C27 C11 1_555 1_555
C28 C13 1_555 1_555
C29 C3 1_555 1_555
H16 C29 1_555 1_555
C30 C17 1_555 1_555
C31 C4 1_555 1_555
H17 C31 1_555 1_555
C32 C12 1_555 1_555
H18 C32 1_555 1_555
C33 C29 1_555 1_555
H19 C33 1_555 1_555
C34 H20 1_555 1_555
C35 C5 1_555 1_555
H21 C35 1_555 1_555
C36 C11 1_555 1_555
H22 C36 1_555 1_555
C37 C30 1_555 1_555
C38 C20 1_555 1_555
H23 C38 1_555 1_555
C39 C12 1_555 1_555
H24 C39 1_555 1_555
O1 C28 1_555 1_555
O2 Mn1 1_555 1_555
O3 C27 1_555 1_555
O4 C27 1_555 1_555
O5 C37 1_555 1_555
H25 O5 1_555 1_555
O6 C37 1_555 1_555
O7 Mn1 1_555 1_555
O8 Mn1 1_555 1_555
N1 C1 1_555 1_555
Mn1B O3 1_555 1_555
Mn1C O4 1_555 1_555
O3B Mn1 1_555 1_555
O4C Mn1 1_555 1_555
C6 C19 1_555 1_555
C7 C14 1_555 1_555
C8 C31 1_555 1_555
C15 N1 1_555 1_555
C16 C22 1_555 1_555
C17 C18 1_555 1_555
C23 C32 1_555 1_555
C24 C26 1_555 1_555
C25 C38 1_555 1_555
C25 N1 1_555 1_555
C28 O2 1_555 1_555
C30 C33 1_555 1_555
C34 C35 1_555 1_555
C36 C39 1_555 1_555

#END
