
#######################################################################
#
#                 Cambridge Crystallographic Data Centre
#                                CCDC 
#
#######################################################################
#
# If this CIF has been generated from an entry in the Cambridge 
# Structural Database, then it will include bibliographic, chemical, 
# crystal, experimental, refinement or atomic coordinate data resulting 
# from the CCDC's data processing and validation procedures.
#
#######################################################################

data_DADLOM
_chemical_formula_moiety         'C78 H49 Mn10 N2 O24'
_symmetry_cell_setting           monoclinic
_symmetry_space_group_name_H-M   'P 21/c'
_symmetry_Int_Tables_number      14
_space_group_name_Hall           '-P 2ybc'
loop_
_symmetry_equiv_pos_site_id
_symmetry_equiv_pos_as_xyz
1 x,y,z
2 -x,1/2+y,1/2-z
3 -x,-y,-z
4 x,1/2-y,1/2+z
_cell_length_a                   10.1565(3)
_cell_length_b                   37.9051(7)
_cell_length_c                   41.2175(9)
_cell_angle_alpha                90
_cell_angle_beta                 99.894(2)
_cell_angle_gamma                90
_cell_volume                     15632
loop_
_atom_site_label
_atom_site_type_symbol
_atom_site_fract_x
_atom_site_fract_y
_atom_site_fract_z
Mn1 Mn -0.15076(17) 0.33299(5) 0.29257(4)
Mn2 Mn -0.47288(17) 0.37998(5) 0.28139(4)
Mn3 Mn -0.07576(18) -0.10072(5) 0.22683(4)
O1 O -0.3525(8) 0.3328(2) 0.2685(2)
O2 O -0.4985(8) 0.3563(2) 0.2292(2)
O3 O 0.1725(8) 0.1234(2) -0.17974(18)
O4 O 0.8089(7) -0.05593(19) 0.21492(17)
O5 O -0.0742(8) 0.3263(2) 0.24646(19)
O6 O 0.3157(8) -0.0846(2) 0.22349(19)
O7 O 0.1119(7) -0.11130(19) 0.21321(17)
O8 O 0.1180(7) 0.3560(2) 0.2450(2)
O9 O 0.0516(8) 0.1727(2) -0.18144(19)
O10 O -0.4168(9) 0.1269(2) -0.16788(19)
O11 O -0.2145(8) 0.1510(2) -0.1629(2)
O12 O 0.0279(9) -0.0761(3) 0.2692(2)
O13 O -0.1721(8) 0.2779(2) 0.3039(2)
O14 O 0.6171(7) -0.08126(18) 0.22168(18)
N1 N -0.2337(8) 0.1329(2) 0.0952(2)
N2 N 0.2387(9) 0.1468(2) 0.0784(2)
C1 C -0.4158(12) 0.2801(3) 0.1621(3)
H1 H -0.4420 0.2825 0.1395
C2 C -0.2720(11) 0.1959(3) 0.1030(3)
H2 H -0.2462 0.2013 0.0830
C3 C 0.4157(11) 0.1017(3) 0.0908(3)
H3 H 0.4563 0.1114 0.0743
C4 C -0.2978(12) 0.1365(3) -0.1149(3)
C5 C 0.3005(12) 0.1153(3) 0.0966(3)
C6 C -0.3428(11) 0.2166(3) 0.1517(3)
C7 C 0.1621(10) 0.1821(3) -0.0800(3)
H4 H 0.1477 0.2030 -0.0694
C8 C -0.2718(11) 0.1604(3) 0.1135(3)
C9 C -0.2630(12) 0.1368(3) -0.0091(3)
C10 C -0.3519(11) 0.2707(3) 0.2298(3)
H5 H -0.3288 0.2677 0.2524
C11 C -0.0436(10) 0.0425(3) 0.1455(3)
C12 C -0.0138(12) -0.0227(3) 0.1509(3)
H6 H -0.0712 -0.0248 0.1309
C13 C -0.0006(11) 0.2574(3) 0.1743(3)
H7 H -0.0663 0.2415 0.1651
C14 C -0.2411(11) 0.1359(3) 0.0614(3)
C15 C 0.2085(11) 0.1510(3) -0.0603(3)
C16 C 0.4182(11) 0.0587(3) 0.1337(3)
C17 C -0.4192(12) 0.3333(3) 0.2378(3)
C18 C -0.3949(10) 0.3038(3) 0.2165(3)
C19 C 0.2186(11) 0.1205(3) -0.1118(3)
H8 H 0.2432 0.1004 -0.1222
C20 C 0.1403(11) 0.1811(3) -0.1124(3)
H9 H 0.1094 0.2015 -0.1238
C21 C 0.1614(11) 0.1505(3) -0.1311(3)
C22 C -0.3444(11) 0.2426(3) 0.2087(3)
H10 H -0.3240 0.2203 0.2177
C23 C 0.2072(11) 0.1197(3) -0.0074(3)
H11 H 0.1883 0.0988 -0.0191
C24 C 0.0916(11) 0.1936(3) 0.0935(3)
H12 H 0.0267 0.1866 0.0760
C25 C -0.3529(11) 0.1814(3) 0.1632(3)
H13 H -0.3796 0.1771 0.1833
C26 C -0.1697(11) 0.1016(3) 0.1135(3)
C27 C 0.2365(11) 0.1481(3) 0.0450(3)
C28 C 0.2893(11) 0.2142(3) 0.1464(3)
H14 H 0.3536 0.2206 0.1643
C29 C 0.2456(12) 0.1801(3) 0.0287(3)
H15 H 0.2557 0.2008 0.0409
C30 C 0.6135(11) -0.0274(3) 0.1916(3)
C31 C -0.3225(11) 0.1543(3) 0.1442(3)
H16 H -0.3344 0.1313 0.1508
C32 C 0.1668(12) -0.0154(3) 0.2090(3)
H17 H 0.2275 -0.0120 0.2284
C33 C 0.2400(12) 0.1820(3) -0.0060(3)
H18 H 0.2475 0.2037 -0.0161
C34 C 0.2176(11) 0.1185(3) 0.0250(3)
H19 H 0.2119 0.0966 0.0349
C35 C -0.3090(11) 0.2223(3) 0.1217(3)
H20 H -0.3115 0.2453 0.1136
C36 C -0.3060(15) 0.1384(3) -0.1514(3)
C37 C 0.1078(11) 0.0117(3) 0.1918(3)
H21 H 0.1306 0.0341 0.2000
C38 C -0.4098(11) 0.1339(3) -0.0991(3)
H22 H -0.4944 0.1325 -0.1119
C39 C -0.1407(13) 0.1247(3) 0.0451(3)
H23 H -0.0624 0.1161 0.0577
C40 C 0.2317(12) 0.1006(3) 0.1196(3)
H24 H 0.1490 0.1092 0.1227
C41 C -0.1485(11) 0.1253(3) 0.0116(3)
H25 H -0.0755 0.1179 0.0025
C42 C -0.3662(12) 0.2463(3) 0.1746(3)
C43 C 0.2228(11) 0.1504(3) -0.0252(3)
C44 C -0.1197(11) 0.0406(3) 0.1141(3)
H26 H -0.1310 0.0187 0.1038
C45 C -0.0380(12) 0.0752(3) 0.1601(3)
H27 H 0.0034 0.0770 0.1819
C46 C 0.4858(11) 0.0280(3) 0.1531(3)
C47 C -0.1750(12) 0.1417(3) -0.0938(3)
H28 H -0.0990 0.1459 -0.1030
C48 C 0.0380(12) -0.0536(4) 0.1673(3)
H29 H 0.0101 -0.0757 0.1590
C49 C -0.1628(12) 0.1409(3) -0.0603(3)
H30 H -0.0785 0.1423 -0.0473
C50 C -0.2775(12) 0.1379(3) -0.0451(3)
C51 C 0.0344(13) 0.3318(3) 0.2375(3)
C52 C -0.1777(11) 0.0690(3) 0.0981(3)
H31 H -0.2232 0.0668 0.0766
C53 C -0.3982(12) 0.1333(3) -0.0644(3)
H32 H -0.4737 0.1297 -0.0548
C54 C 0.1886(11) 0.3059(3) 0.2000(3)
H33 H 0.2481 0.3240 0.2074
C55 C -0.4267(10) 0.3083(3) 0.1812(3)
H34 H -0.4537 0.3301 0.1720
C56 C 0.1270(12) 0.2570(3) 0.1642(3)
C57 C 0.6189(12) 0.0292(3) 0.1638(3)
H35 H 0.6670 0.0486 0.1584
C58 C 0.0610(11) 0.3051(3) 0.2117(3)
C59 C 0.3129(12) 0.1882(3) 0.1239(3)
H36 H 0.3975 0.1781 0.1262
C60 C 0.0650(12) 0.2195(3) 0.1135(3)
H37 H -0.0179 0.2306 0.1099
C61 C 0.2367(11) 0.1220(3) -0.0767(3)
H38 H 0.2694 0.1022 -0.0647
C62 C -0.0902(13) 0.1061(3) 0.1442(3)
H39 H -0.0728 0.1283 0.1536
C63 C -0.3584(12) 0.1491(3) 0.0420(3)
H40 H -0.4277 0.1579 0.0517
C64 C 0.4133(12) 0.0009(3) 0.1603(3)
H41 H 0.3220 -0.0000 0.1523
C65 C 0.1635(12) 0.2298(3) 0.1401(3)
C66 C -0.0272(12) 0.2813(3) 0.1977(3)
H42 H -0.1109 0.2807 0.2039
C67 C 0.2158(11) 0.1770(3) 0.0989(3)
C68 C 0.2949(12) 0.0713(3) 0.1385(3)
H43 H 0.2523 0.0608 0.1542
C69 C 0.4753(11) 0.0736(3) 0.1087(3)
H44 H 0.5550 0.0646 0.1040
C70 C 0.2255(12) 0.2818(3) 0.1791(3)
H45 H 0.3120 0.2814 0.1746
C71 C 0.1950(12) -0.0836(3) 0.2131(3)
C72 C 0.0167(11) 0.0098(3) 0.1632(3)
C73 C 0.6872(11) 0.0018(3) 0.1832(3)
H46 H 0.7791 0.0030 0.1902
C74 C 0.6831(12) -0.0561(3) 0.2110(3)
C75 C 0.1280(12) 0.1484(3) -0.1650(3)
C76 C 0.1322(14) -0.0504(3) 0.1961(3)
C77 C 0.4783(12) -0.0274(3) 0.1809(3)
H47 H 0.4270 -0.0458 0.1868
C78 C -0.3687(12) 0.1486(3) 0.0075(3)
H48 H -0.4479 0.1564 -0.0052
O15 O -0.6424(9) 0.3436(2) 0.28499(19)
H49 H -0.644(14) 0.351(4) 0.273(3)
Mn1A Mn 0.15076(17) -0.16701(5) 0.20743(4)
Mn1C Mn -0.15076(17) 0.16701(5) -0.20743(4)
Mn2A Mn 0.47288(17) -0.12002(5) 0.21861(4)
Mn2C Mn -0.47288(17) 0.12002(5) -0.21861(4)
Mn3_2 Mn 0.92424(18) -0.10072(5) 0.22683(4)
Mn3A Mn 0.07576(18) 0.39928(5) 0.27317(4)
Mn3B Mn 0.07576(18) 0.10072(5) -0.22683(4)
O3B O -0.1725(8) -0.1234(2) 0.17974(18)
O4_2 O -0.1911(7) -0.05593(19) 0.21492(17)
O6A O -0.3157(8) 0.4154(2) 0.27651(19)
O7A O -0.1119(7) 0.38870(19) 0.28679(17)
O8A O -0.1180(7) -0.1440(2) 0.2550(2)
O9C O 0.0516(8) 0.3273(2) 0.31856(19)
O10C O -0.4168(9) 0.3731(2) 0.33212(19)
O11C O -0.2145(8) 0.3490(2) 0.3371(2)
O14A O -0.6171(7) 0.41874(18) 0.27832(18)
loop_
_geom_bond_atom_site_label_1
_geom_bond_atom_site_label_2
_geom_bond_site_symmetry_1
_geom_bond_site_symmetry_2
Mn1 O1 1_555 1_555
Mn2 O1 1_555 1_555
Mn3 O7 1_555 1_555
O1 C17 1_555 1_555
O2 Mn2 1_555 1_555
O3 C75 1_555 1_555
O4 C74 1_555 1_555
O5 Mn1 1_555 1_555
O6 C71 1_555 1_555
O7 C71 1_555 1_555
O8 C51 1_555 1_555
O9 C75 1_555 1_555
O10 C36 1_555 1_555
O11 C36 1_555 1_555
O12 Mn3 1_555 1_555
O13 Mn1 1_555 1_555
O14 C74 1_555 1_555
N1 C8 1_555 1_555
N2 C5 1_555 1_555
C1 H1 1_555 1_555
C2 H2 1_555 1_555
C3 H3 1_555 1_555
C4 C36 1_555 1_555
C5 C3 1_555 1_555
C6 C25 1_555 1_555
C7 H4 1_555 1_555
C8 C2 1_555 1_555
C9 C41 1_555 1_555
C10 H5 1_555 1_555
C11 C44 1_555 1_555
C12 H6 1_555 1_555
C13 H7 1_555 1_555
C14 N1 1_555 1_555
C15 C7 1_555 1_555
C16 C46 1_555 1_555
C17 O2 1_555 1_555
C18 C10 1_555 1_555
C19 H8 1_555 1_555
C20 C7 1_555 1_555
H9 C20 1_555 1_555
C21 C19 1_555 1_555
C22 C10 1_555 1_555
H10 C22 1_555 1_555
C23 H11 1_555 1_555
C24 H12 1_555 1_555
C25 H13 1_555 1_555
C26 N1 1_555 1_555
C27 N2 1_555 1_555
C28 H14 1_555 1_555
C29 C27 1_555 1_555
H15 C29 1_555 1_555
C30 C73 1_555 1_555
C31 C8 1_555 1_555
H16 C31 1_555 1_555
C32 H17 1_555 1_555
C33 C29 1_555 1_555
H18 C33 1_555 1_555
C34 C23 1_555 1_555
H19 C34 1_555 1_555
C35 C2 1_555 1_555
H20 C35 1_555 1_555
C37 C32 1_555 1_555
H21 C37 1_555 1_555
C38 C4 1_555 1_555
H22 C38 1_555 1_555
C39 C14 1_555 1_555
H23 C39 1_555 1_555
C40 C5 1_555 1_555
H24 C40 1_555 1_555
C41 C39 1_555 1_555
H25 C41 1_555 1_555
C42 C1 1_555 1_555
C43 C15 1_555 1_555
C44 H26 1_555 1_555
C45 C11 1_555 1_555
H27 C45 1_555 1_555
C46 C57 1_555 1_555
C47 C4 1_555 1_555
H28 C47 1_555 1_555
C48 C12 1_555 1_555
H29 C48 1_555 1_555
C49 C47 1_555 1_555
H30 C49 1_555 1_555
C50 C9 1_555 1_555
C51 O5 1_555 1_555
C52 C26 1_555 1_555
H31 C52 1_555 1_555
C53 C38 1_555 1_555
H32 C53 1_555 1_555
C54 H33 1_555 1_555
C55 C1 1_555 1_555
H34 C55 1_555 1_555
C56 C13 1_555 1_555
C57 H35 1_555 1_555
C58 C51 1_555 1_555
C59 C28 1_555 1_555
H36 C59 1_555 1_555
C60 C24 1_555 1_555
H37 C60 1_555 1_555
C61 C15 1_555 1_555
H38 C61 1_555 1_555
C62 C26 1_555 1_555
H39 C62 1_555 1_555
C63 C14 1_555 1_555
H40 C63 1_555 1_555
C64 C46 1_555 1_555
H41 C64 1_555 1_555
C65 C28 1_555 1_555
C66 C13 1_555 1_555
H42 C66 1_555 1_555
C67 N2 1_555 1_555
C68 C16 1_555 1_555
H43 C68 1_555 1_555
C69 C3 1_555 1_555
H44 C69 1_555 1_555
C70 C54 1_555 1_555
H45 C70 1_555 1_555
C71 C76 1_555 1_555
C72 C11 1_555 1_555
C73 C57 1_555 1_555
H46 C73 1_555 1_555
C74 C30 1_555 1_555
C75 C21 1_555 1_555
C76 C32 1_555 1_555
C77 C30 1_555 1_555
H47 C77 1_555 1_555
C78 C9 1_555 1_555
H48 C78 1_555 1_555
O15 Mn2 1_555 1_555
H49 O15 1_555 1_555
Mn1A O7 1_555 1_555
Mn1C O9 1_555 1_555
Mn2A O6 1_555 1_555
Mn2C O10 1_555 1_555
Mn3_2 O4 1_555 1_555
Mn3A O8 1_555 1_555
Mn3B O3 1_555 1_555
O3B Mn3 1_555 1_555
O4_2 Mn3 1_555 1_555
O6A Mn2 1_555 1_555
O7A Mn1 1_555 1_555
O8A Mn3 1_555 1_555
O9C Mn1 1_555 1_555
O10C Mn2 1_555 1_555
O11C Mn1 1_555 1_555
O14A Mn2 1_555 1_555
O11 Mn1C 1_555 1_555
O14 Mn2A 1_555 1_555
C6 C35 1_555 1_555
C6 C42 1_555 1_555
C12 C72 1_555 1_555
C16 C69 1_555 1_555
C17 C18 1_555 1_555
C18 C55 1_555 1_555
C19 C61 1_555 1_555
C20 C21 1_555 1_555
C22 C42 1_555 1_555
C23 C43 1_555 1_555
C24 C67 1_555 1_555
C25 C31 1_555 1_555
C27 C34 1_555 1_555
C33 C43 1_555 1_555
C37 C72 1_555 1_555
C40 C68 1_555 1_555
C44 C52 1_555 1_555
C45 C62 1_555 1_555
C48 C76 1_555 1_555
C49 C50 1_555 1_555
C50 C53 1_555 1_555
C54 C58 1_555 1_555
C56 C65 1_555 1_555
C56 C70 1_555 1_555
C58 C66 1_555 1_555
C59 C67 1_555 1_555
C60 C65 1_555 1_555
C63 C78 1_555 1_555
C64 C77 1_555 1_555
Mn3A O7A 1_555 1_555

#END
