
#######################################################################
#
#                 Cambridge Crystallographic Data Centre
#                                CCDC 
#
#######################################################################
#
# If this CIF has been generated from an entry in the Cambridge 
# Structural Database, then it will include bibliographic, chemical, 
# crystal, experimental, refinement or atomic coordinate data resulting 
# from the CCDC's data processing and validation procedures.
#
#######################################################################

data_JOBFEM
_chemical_formula_moiety         'C44 H32 Cu11 N12 O2 S10 W3'
_symmetry_cell_setting           monoclinic
_symmetry_space_group_name_H-M   'C 2/c'
_symmetry_Int_Tables_number      15
_space_group_name_Hall           '-C 2yc'
loop_
_symmetry_equiv_pos_site_id
_symmetry_equiv_pos_as_xyz
1 x,y,z
2 1/2+x,1/2+y,z
3 -x,y,1/2-z
4 1/2-x,1/2+y,1/2-z
5 -x,-y,-z
6 1/2-x,1/2-y,-z
7 x,-y,1/2+z
8 1/2+x,1/2-y,1/2+z
_cell_length_a                   27.630(3)
_cell_length_b                   13.8118(13)
_cell_length_c                   17.3604(18)
_cell_angle_alpha                90
_cell_angle_beta                 99.316(2)
_cell_angle_gamma                90
_cell_volume                     6537.7
loop_
_atom_site_label
_atom_site_type_symbol
_atom_site_fract_x
_atom_site_fract_y
_atom_site_fract_z
W1 W -1.360295(7) 0.450051(14) -0.376988(11)
Cu1 Cu -1.31099(2) 0.28035(4) -0.37819(3)
Cu2 Cu -1.41056(2) 0.38682(4) -0.26355(4)
Cu3 Cu -1.28857(2) 0.51308(4) -0.26351(4)
S1 S -1.27872(5) 0.43395(9) -0.37617(7)
S2 S -1.39388(5) 0.30232(9) -0.37141(7)
S3 S -1.37201(5) 0.53490(9) -0.27044(8)
C1 C -1.4818(7) 0.3865(12) -0.2570(10)
N2 N -1.23974(16) 0.0820(3) 0.1685(2)
N3 N -1.25149(18) 0.1236(3) -0.2786(3)
N4 N -1.31907(16) 0.2245(3) -0.4939(2)
O1 O -1.38694(15) 0.5104(3) -0.4603(2)
N5 N -1.37606(16) 0.3108(3) -0.1654(2)
C2 C -1.27477(17) 0.1813(3) -0.3151(3)
C3 C -1.34190(19) 0.2450(4) -0.1713(3)
H1 H -1.3354 0.2295 -0.2220
C4 C -1.29882(18) 0.2004(4) 0.1127(3)
H2 H -1.3204 0.2514 0.1211
C5 C -1.31515(19) 0.1974(4) -0.1084(3)
H3 H -1.2909 0.1514 -0.1162
C6 C -1.36788(18) 0.1118(4) -0.7231(3)
C7 C -1.3574(2) 0.0171(4) -0.7433(3)
H4 H -1.3387 -0.0241 -0.7059
C8 C -1.32407(19) 0.2176(4) -0.0333(3)
C9 C -1.27064(19) 0.1538(4) 0.1752(3)
H5 H -1.2737 0.1748 0.2263
C10 C -1.35036(18) 0.1514(4) -0.6445(3)
C11 C -1.2353(2) 0.0551(4) 0.0959(3)
H6 H -1.2126 0.0054 0.0895
C12 C -1.29479(19) 0.1705(3) 0.0367(3)
C13 C -1.3461(2) 0.0914(4) -0.5782(3)
H7 H -1.3540 0.0245 -0.5833
C14 C -1.2623(2) 0.0960(4) 0.0292(3)
H8 H -1.2584 0.0731 -0.0210
C15 C -1.3223(2) 0.2809(4) -0.5575(3)
H9 H -1.3137 0.3472 -0.5507
C16 C -1.3597(2) 0.2856(5) -0.0272(3)
H10 H -1.3669 0.3028 0.0227
C17 C -1.3375(2) 0.2471(4) -0.6323(3)
H11 H -1.3392 0.2900 -0.6755
C18 C -1.3742(2) -0.0166(5) -0.8180(3)
H12 H -1.3663 -0.0810 -0.8306
C19 C -1.3954(2) 0.1673(4) -0.7813(3)
H13 H -1.4036 0.2324 -0.7711
C20 C -1.4107(2) 0.1269(5) -0.8539(3)
H14 H -1.4294 0.1661 -0.8927
C21 C -1.3850(2) 0.3293(5) -0.0938(3)
H15 H -1.4101 0.3746 -0.0879
N6 N -1.4008(2) 0.0367(4) -0.8728(3)
C22 C -1.3305(2) 0.1311(4) -0.5060(3)
H16 H -1.3275 0.0896 -0.4619
W1C W -1.139705(7) 0.950051(14) -0.123012(11)
W1B W -1.639705(7) 0.450051(14) -0.123012(11)
Cu1C Cu -1.18901(2) 0.78035(4) -0.12181(3)
Cu2B Cu -1.58944(2) 0.38682(4) -0.23645(4)
Cu2E Cu -1.08944(2) 0.11318(4) 0.26355(4)
Cu2C Cu -1.08944(2) 0.88682(4) -0.23645(4)
Cu3E Cu -1.21143(2) -0.01308(4) 0.26351(4)
Cu3C Cu -1.21143(2) 0.01308(4) -0.23649(4)
Cu3C_2 Cu -1.21143(2) 1.01308(4) -0.23649(4)
Cu3B Cu -1.71143(2) 0.51308(4) -0.23649(4)
S1C S -1.22128(5) 0.93395(9) -0.12383(7)
S1E S -1.22128(5) 0.06605(9) 0.37617(7)
S2C S -1.10612(5) 0.80232(9) -0.12859(7)
S2B S -1.60612(5) 0.30232(9) -0.12859(7)
S3B S -1.62799(5) 0.53490(9) -0.22956(8)
S3E S -1.12799(5) -0.03490(9) 0.27044(8)
S3C S -1.12799(5) 1.03490(9) -0.22956(8)
C1B C -1.5182(7) 0.3865(12) -0.2430(10)
N2E N -1.26026(16) 0.4180(3) -0.1685(2)
N3C N -1.24851(18) 0.6236(3) -0.2214(3)
N3F N -1.25149(18) -0.1236(3) 0.2214(3)
N4C N -1.18093(16) 0.7245(3) -0.0061(2)
O1C O -1.11306(15) 1.0104(3) -0.0397(2)
N5E N -1.12394(16) 0.1892(3) 0.1654(2)
N5B N -1.62394(16) 0.3108(3) -0.3346(2)
C2C C -1.22523(17) 0.6813(3) -0.1849(3)
C3E C -1.15810(19) 0.2550(4) 0.1713(3)
H1E H -1.1646 0.2705 0.2220
C4E C -1.20118(18) 0.2996(4) -0.1127(3)
H2E H -1.1796 0.2486 -0.1211
C5E C -1.18485(19) 0.3026(4) 0.1084(3)
H3E H -1.2091 0.3486 0.1162
C6C C -1.13212(18) 0.6118(4) 0.2231(3)
C7C C -1.1426(2) 0.5171(4) 0.2433(3)
H4C H -1.1613 0.4759 0.2059
C8E C -1.17593(19) 0.2824(4) 0.0333(3)
C9E C -1.22936(19) 0.3462(4) -0.1752(3)
H5E H -1.2263 0.3252 -0.2263
C10C C -1.14964(18) 0.6514(4) 0.1445(3)
C11E C -1.2647(2) 0.4449(4) -0.0959(3)
H6E H -1.2874 0.4946 -0.0895
C12E C -1.20521(19) 0.3295(3) -0.0367(3)
C13C C -1.1539(2) 0.5914(4) 0.0782(3)
H7C H -1.1460 0.5245 0.0833
C14E C -1.2377(2) 0.4040(4) -0.0292(3)
H8E H -1.2416 0.4269 0.0210
C15C C -1.1777(2) 0.7809(4) 0.0575(3)
H9C H -1.1863 0.8472 0.0507
C16E C -1.1403(2) 0.2144(5) 0.0272(3)
H10E H -1.1331 0.1972 -0.0227
C17C C -1.1625(2) 0.7471(4) 0.1323(3)
H11C H -1.1608 0.7900 0.1755
C18C C -1.1258(2) 0.4834(5) 0.3180(3)
H12C H -1.1337 0.4190 0.3306
C19C C -1.1046(2) 0.6673(4) 0.2813(3)
H13C H -1.0964 0.7324 0.2711
C20C C -1.0893(2) 0.6269(5) 0.3539(3)
H14C H -1.0706 0.6661 0.3927
C21E C -1.1150(2) 0.1707(5) 0.0938(3)
H15E H -1.0899 0.1254 0.0879
N6C N -1.0992(2) 0.5367(4) 0.3728(3)
C22C C -1.1695(2) 0.6311(4) 0.0060(3)
H16C H -1.1725 0.5896 -0.0381
loop_
_geom_bond_atom_site_label_1
_geom_bond_atom_site_label_2
_geom_bond_site_symmetry_1
_geom_bond_site_symmetry_2
W1 S1 1_555 1_555
Cu1 S1 1_555 1_555
Cu2 S2 1_555 1_555
Cu3 S1 1_555 1_555
S2 W1 1_555 1_555
S3 W1 1_555 1_555
C1 Cu2 1_555 1_555
N2 C9 1_555 1_555
N3 C2 1_555 1_555
N4 Cu1 1_555 1_555
O1 W1 1_555 1_555
N5 Cu2 1_555 1_555
C2 Cu1 1_555 1_555
C3 N5 1_555 1_555
H1 C3 1_555 1_555
C4 H2 1_555 1_555
C5 C3 1_555 1_555
H3 C5 1_555 1_555
C6 C7 1_555 1_555
C7 H4 1_555 1_555
C8 C5 1_555 1_555
C9 C4 1_555 1_555
H5 C9 1_555 1_555
C10 C6 1_555 1_555
C11 N2 1_555 1_555
H6 C11 1_555 1_555
C12 C4 1_555 1_555
C13 C10 1_555 1_555
H7 C13 1_555 1_555
C14 C11 1_555 1_555
H8 C14 1_555 1_555
C15 N4 1_555 1_555
H9 C15 1_555 1_555
C16 C8 1_555 1_555
H10 C16 1_555 1_555
C17 C10 1_555 1_555
H11 C17 1_555 1_555
C18 C7 1_555 1_555
H12 C18 1_555 1_555
C19 C6 1_555 1_555
H13 C19 1_555 1_555
C20 C19 1_555 1_555
H14 C20 1_555 1_555
C21 N5 1_555 1_555
H15 C21 1_555 1_555
N6 C18 1_555 1_555
C22 N4 1_555 1_555
H16 C22 1_555 1_555
W1C S1C 1_555 1_555
W1B S2B 1_555 1_555
Cu1C S1C 1_555 1_555
Cu2B S2B 1_555 1_555
Cu2E S3E 1_555 1_555
Cu2C S2C 1_555 1_555
Cu3E N2 1_555 1_555
Cu3C N3 1_555 1_555
Cu3C_2 S1C 1_555 1_555
Cu3B S3B 1_555 1_555
S1E Cu3E 1_555 1_555
S2C W1C 1_555 1_555
S3B W1B 1_555 1_555
S3E Cu3E 1_555 1_555
S3C W1C 1_555 1_555
C1B C1 1_555 1_555
N2E Cu3 1_555 1_555
N3C Cu3 1_555 1_555
N3F Cu3E 1_555 1_555
N4C Cu1C 1_555 1_555
O1C W1C 1_555 1_555
N5E Cu2E 1_555 1_555
N5B Cu2B 1_555 1_555
C2C Cu1C 1_555 1_555
C3E N5E 1_555 1_555
H1E C3E 1_555 1_555
C4E H2E 1_555 1_555
C5E C3E 1_555 1_555
H3E C5E 1_555 1_555
C6C C7C 1_555 1_555
C7C H4C 1_555 1_555
C8E C5E 1_555 1_555
C9E N2E 1_555 1_555
H5E C9E 1_555 1_555
C10C C6C 1_555 1_555
C11E N2E 1_555 1_555
H6E C11E 1_555 1_555
C12E C4E 1_555 1_555
C13C C10C 1_555 1_555
H7C C13C 1_555 1_555
C14E C11E 1_555 1_555
H8E C14E 1_555 1_555
C15C N4C 1_555 1_555
H9C C15C 1_555 1_555
C16E C8E 1_555 1_555
H10E C16E 1_555 1_555
C17C C10C 1_555 1_555
H11C C17C 1_555 1_555
C18C C7C 1_555 1_555
H12C C18C 1_555 1_555
C19C C6C 1_555 1_555
H13C C19C 1_555 1_555
C20C C19C 1_555 1_555
H14C C20C 1_555 1_555
C21E N5E 1_555 1_555
H15E C21E 1_555 1_555
N6C C18C 1_555 1_555
C22C N4C 1_555 1_555
H16C C22C 1_555 1_555
Cu1 S2 1_555 1_555
Cu2 S3 1_555 1_555
Cu3 S3 1_555 1_555
C8 C12 1_555 1_555
C12 C14 1_555 1_555
C13 C22 1_555 1_555
C15 C17 1_555 1_555
C16 C21 1_555 1_555
C20 N6 1_555 1_555
Cu1C S2C 1_555 1_555
Cu2B S3B 1_555 1_555
Cu2B C1B 1_555 1_555
Cu2C S3C 1_555 1_555
Cu3C_2 S3C 1_555 1_555
N3C C2C 1_555 1_555
C4E C9E 1_555 1_555
C8E C12E 1_555 1_555
C12E C14E 1_555 1_555
C13C C22C 1_555 1_555
C15C C17C 1_555 1_555
C16E C21E 1_555 1_555
C20C N6C 1_555 1_555

#END
