
#######################################################################
#
#                 Cambridge Crystallographic Data Centre
#                                CCDC 
#
#######################################################################
#
# If this CIF has been generated from an entry in the Cambridge 
# Structural Database, then it will include bibliographic, chemical, 
# crystal, experimental, refinement or atomic coordinate data resulting 
# from the CCDC's data processing and validation procedures.
#
#######################################################################

data_JOBFIQ
_chemical_formula_moiety         'C52 H34 Cu11 N12 O2 S10 W3'
_symmetry_cell_setting           monoclinic
_symmetry_space_group_name_H-M   'C 2/c'
_symmetry_Int_Tables_number      15
_space_group_name_Hall           '-C 2yc'
loop_
_symmetry_equiv_pos_site_id
_symmetry_equiv_pos_as_xyz
1 x,y,z
2 1/2+x,1/2+y,z
3 -x,y,1/2-z
4 1/2-x,1/2+y,1/2-z
5 -x,-y,-z
6 1/2-x,1/2-y,-z
7 x,-y,1/2+z
8 1/2+x,1/2-y,1/2+z
_cell_length_a                   27.720(3)
_cell_length_b                   13.3016(13)
_cell_length_c                   20.327(2)
_cell_angle_alpha                90
_cell_angle_beta                 96.448(3)
_cell_angle_gamma                90
_cell_volume                     7447.57
loop_
_atom_site_label
_atom_site_type_symbol
_atom_site_fract_x
_atom_site_fract_y
_atom_site_fract_z
W1 W -0.143774(12) 0.47097(2) -0.141072(16)
Cu1 Cu -0.08811(4) 0.54475(8) -0.23111(5)
Cu2 Cu -0.19078(4) 0.64932(8) -0.13036(5)
Cu3 Cu -0.21258(4) 0.41981(8) -0.24118(5)
S1 S -0.12994(8) 0.39461(17) -0.23593(11)
S2 S -0.22449(8) 0.48961(17) -0.14048(11)
S3 S -0.10825(8) 0.62348(16) -0.13738(10)
O1 O -0.1200(3) 0.3992(5) -0.0735(3)
N1 N -0.2481(3) 0.8116(6) -0.2147(4)
N2 N -0.1819(3) 0.7073(6) -0.0320(4)
N3 N -0.0996(4) 1.0159(9) 0.3837(5)
N4 N -0.1151(3) 0.6350(6) -0.3099(3)
N5 N -0.2674(3) 0.9724(5) -0.6826(4)
C1 C -0.1965(4) 0.7991(9) -0.0193(6)
H1 H -0.2162 0.8347 -0.0528
C2 C -0.1536(4) 0.6602(9) 0.0172(5)
H2 H -0.1413 0.5953 0.0091
C3 C -0.1422(5) 0.7034(12) 0.0786(6)
H3 H -0.1241 0.6644 0.1119
C4 C -0.1548(5) 0.7950(14) 0.0942(6)
C5 C -0.2267(3) 0.7529(6) -0.1818(4)
C6 C -0.1007(5) 0.6189(9) -0.3703(5)
H4 H -0.0762 0.5702 -0.3747
C7 C -0.1496(4) 0.7031(7) -0.3058(5)
H5 H -0.1602 0.7153 -0.2637
C8 C -0.1704(4) 0.7562(8) -0.3581(6)
H6 H -0.1951 0.8039 -0.3521
C9 C -0.1561(5) 0.7414(10) -0.4198(6)
C10 C -0.2345(4) 0.8991(7) -0.6865(6)
H7 H -0.2266 0.8800 -0.7290
C11 C -0.2784(5) 0.9927(8) -0.6226(5)
H8 H -0.3027 1.0419 -0.6183
C12 C -0.0201(11) 0.522(2) -0.2455(15)
C13 C -0.2568(6) 0.9471(10) -0.5651(6)
H9 H -0.2658 0.9669 -0.5232
C14 C -0.0875(5) 0.9238(11) 0.3667(7)
H10 H -0.0699 0.8830 0.3994
C15 C -0.1374(4) 1.0335(9) 0.2741(6)
H11 H -0.1601 1.0739 0.2427
C16 C -0.1259(4) 0.9380(10) 0.2553(6)
C17 C -0.1376(6) 0.8325(14) 0.1602(7)
H12 H -0.1164 0.7871 0.1853
C18 C -0.1837(5) 0.8459(11) 0.0426(7)
H13 H -0.1946 0.9123 0.0498
C19 C -0.0992(5) 0.8829(10) 0.3033(7)
H14 H -0.0886 0.8172 0.2937
C20 C -0.1440(5) 0.9038(13) 0.1874(8)
H15 H -0.1648 0.9505 0.1627
C21 C -0.2221(6) 0.8727(11) -0.5687(9)
C22 C -0.1200(6) 0.6704(11) -0.4254(5)
H16 H -0.1089 0.6576 -0.4671
C24 C -0.2082(7) 0.8393(14) -0.4956(10)
C25 C -0.2116(4) 0.8498(8) -0.6310(9)
H17 H -0.1882 0.7993 -0.6367
C26 C -0.1301(10) 1.065(2) 0.3446(14)
C28 C -0.1684(7) 0.7789(14) -0.4882(10)
W1C W -0.356226(12) -0.02903(2) -0.358928(16)
W1B W 0.143774(12) 0.47097(2) -0.358928(16)
Cu1E Cu -0.41189(4) 0.95525(8) -0.76889(5)
Cu1B Cu 0.08811(4) 0.54475(8) -0.26889(5)
Cu1C Cu -0.41189(4) 0.04475(8) -0.26889(5)
Cu2C Cu -0.30922(4) 0.14932(8) -0.36964(5)
Cu3C Cu -0.28742(4) 0.91981(8) -0.25882(5)
Cu3E Cu -0.28742(4) 1.08019(8) -0.75882(5)
Cu3C_2 Cu -0.28742(4) -0.08019(8) -0.25882(5)
Cu3B Cu 0.21258(4) 0.41981(8) -0.25882(5)
S1E S -0.37006(8) 1.10539(17) -0.76407(11)
S1B S 0.12994(8) 0.39461(17) -0.26407(11)
S1C S -0.37006(8) -0.10539(17) -0.26407(11)
S2C S -0.27551(8) -0.01039(17) -0.35952(11)
S2E S -0.27551(8) 1.01039(17) -0.85952(11)
S3C S -0.39175(8) 0.12348(16) -0.36262(10)
S3B S 0.10825(8) 0.62348(16) -0.36262(10)
O1C O -0.3800(3) -0.1008(5) -0.4265(3)
N1C N -0.2519(3) 0.3116(6) -0.2853(4)
N1F N -0.2481(3) 1.1884(6) -0.7147(4)
N2C N -0.3181(3) 0.2073(6) -0.4680(4)
N3C N -0.4004(4) 0.5159(9) -0.8837(5)
N4E N -0.3849(3) 0.8650(6) -0.6901(3)
N4B N 0.1151(3) 0.6350(6) -0.1901(3)
N5E N -0.2326(3) 0.5276(5) -0.3174(4)
C1C C -0.3035(4) 0.2991(9) -0.4807(6)
H1C H -0.2838 0.3347 -0.4472
C2C C -0.3464(4) 0.1602(9) -0.5172(5)
H2C H -0.3587 0.0953 -0.5091
C3C C -0.3578(5) 0.2034(12) -0.5786(6)
H3C H -0.3759 0.1644 -0.6119
C4C C -0.3452(5) 0.2950(14) -0.5942(6)
C5C C -0.2733(3) 0.2529(6) -0.3182(4)
C6E C -0.3993(5) 0.8811(9) -0.6297(5)
H4E H -0.4238 0.9298 -0.6253
C7E C -0.3504(4) 0.7969(7) -0.6942(5)
H5E H -0.3398 0.7847 -0.7363
C8E C -0.3296(4) 0.7438(8) -0.6419(6)
H6E H -0.3049 0.6961 -0.6479
C9E C -0.3439(5) 0.7586(10) -0.5802(6)
C10E C -0.2655(4) 0.6009(7) -0.3135(6)
H7E H -0.2734 0.6200 -0.2710
C11E C -0.2216(5) 0.5073(8) -0.3774(5)
H8E H -0.1973 0.4581 -0.3817
C12B C 0.0201(11) 0.522(2) -0.2545(15)
C13E C -0.2432(6) 0.5529(10) -0.4349(6)
H9E H -0.2342 0.5331 -0.4768
C14C C -0.4125(5) 0.4238(11) -0.8667(7)
H10C H -0.4301 0.3830 -0.8994
C15C C -0.3626(4) 0.5335(9) -0.7741(6)
H11C H -0.3399 0.5739 -0.7427
C16C C -0.3741(4) 0.4380(10) -0.7553(6)
C17C C -0.3624(6) 0.3325(14) -0.6602(7)
H12C H -0.3836 0.2871 -0.6853
C18C C -0.3163(5) 0.3459(11) -0.5426(7)
H13C H -0.3054 0.4123 -0.5498
C19C C -0.4008(5) 0.3829(10) -0.8033(7)
H14C H -0.4114 0.3172 -0.7937
C20C C -0.3560(5) 0.4038(13) -0.6874(8)
H15C H -0.3352 0.4505 -0.6627
C21E C -0.2779(6) 0.6273(11) -0.4313(9)
C22E C -0.3800(6) 0.8296(11) -0.5746(5)
H16E H -0.3911 0.8424 -0.5329
C24E C -0.2918(7) 0.6607(14) -0.5044(10)
C25E C -0.2884(4) 0.6502(8) -0.3690(9)
H17E H -0.3118 0.7007 -0.3633
C26C C -0.3699(10) 0.565(2) -0.8446(14)
C28E C -0.3316(7) 0.7211(14) -0.5118(10)
loop_
_geom_bond_atom_site_label_1
_geom_bond_atom_site_label_2
_geom_bond_site_symmetry_1
_geom_bond_site_symmetry_2
W1 S1 1_555 1_555
Cu1 S1 1_555 1_555
Cu2 S2 1_555 1_555
Cu3 S1 1_555 1_555
S2 W1 1_555 1_555
S3 W1 1_555 1_555
O1 W1 1_555 1_555
N1 C5 1_555 1_555
N2 Cu2 1_555 1_555
N3 C14 1_555 1_555
N4 Cu1 1_555 1_555
N5 C10 1_555 1_555
C1 N2 1_555 1_555
H1 C1 1_555 1_555
C2 N2 1_555 1_555
H2 C2 1_555 1_555
C3 C2 1_555 1_555
H3 C3 1_555 1_555
C4 C3 1_555 1_555
C5 Cu2 1_555 1_555
C6 N4 1_555 1_555
H4 C6 1_555 1_555
C7 N4 1_555 1_555
H5 C7 1_555 1_555
C8 C7 1_555 1_555
H6 C8 1_555 1_555
C9 C8 1_555 1_555
C10 H7 1_555 1_555
C11 N5 1_555 1_555
H8 C11 1_555 1_555
C12 Cu1 1_555 1_555
C13 C11 1_555 1_555
H9 C13 1_555 1_555
C14 H10 1_555 1_555
C15 H11 1_555 1_555
C16 C15 1_555 1_555
C17 C4 1_555 1_555
H12 C17 1_555 1_555
C18 C1 1_555 1_555
H13 C18 1_555 1_555
C19 C14 1_555 1_555
H14 C19 1_555 1_555
C20 C16 1_555 1_555
H15 C20 1_555 1_555
C21 C13 1_555 1_555
C22 C6 1_555 1_555
H16 C22 1_555 1_555
C24 C21 1_555 1_555
C25 C10 1_555 1_555
H17 C25 1_555 1_555
C26 N3 1_555 1_555
C28 C9 1_555 1_555
W1C S1C 1_555 1_555
W1B S1B 1_555 1_555
Cu1E S1E 1_555 1_555
Cu1B S1B 1_555 1_555
Cu1C S1C 1_555 1_555
Cu2C S2C 1_555 1_555
Cu3C N1 1_555 1_555
Cu3E N5 1_555 1_555
Cu3C_2 S1C 1_555 1_555
Cu3B S1B 1_555 1_555
S1E Cu3E 1_555 1_555
S2C W1C 1_555 1_555
S2E Cu3E 1_555 1_555
S3C W1C 1_555 1_555
S3B W1B 1_555 1_555
O1C W1C 1_555 1_555
N1C Cu3 1_555 1_555
N1F Cu3E 1_555 1_555
N2C Cu2C 1_555 1_555
N3C C14C 1_555 1_555
N4E Cu1E 1_555 1_555
N4B Cu1B 1_555 1_555
N5E Cu3 1_555 1_555
C1C N2C 1_555 1_555
H1C C1C 1_555 1_555
C2C N2C 1_555 1_555
H2C C2C 1_555 1_555
C3C C2C 1_555 1_555
H3C C3C 1_555 1_555
C4C C3C 1_555 1_555
C5C Cu2C 1_555 1_555
C6E N4E 1_555 1_555
H4E C6E 1_555 1_555
C7E N4E 1_555 1_555
H5E C7E 1_555 1_555
C8E C7E 1_555 1_555
H6E C8E 1_555 1_555
C9E C8E 1_555 1_555
C10E N5E 1_555 1_555
H7E C10E 1_555 1_555
C11E N5E 1_555 1_555
H8E C11E 1_555 1_555
C12B C12 1_555 1_555
C13E C11E 1_555 1_555
H9E C13E 1_555 1_555
C14C H10C 1_555 1_555
C15C H11C 1_555 1_555
C16C C15C 1_555 1_555
C17C C4C 1_555 1_555
H12C C17C 1_555 1_555
C18C C1C 1_555 1_555
H13C C18C 1_555 1_555
C19C C14C 1_555 1_555
H14C C19C 1_555 1_555
C20C C16C 1_555 1_555
H15C C20C 1_555 1_555
C21E C13E 1_555 1_555
C22E C6E 1_555 1_555
H16E C22E 1_555 1_555
C24E C21E 1_555 1_555
C25E C10E 1_555 1_555
H17E C25E 1_555 1_555
C26C N3C 1_555 1_555
C28E C9E 1_555 1_555
Cu1 S3 1_555 1_555
Cu2 S3 1_555 1_555
Cu3 S2 1_555 1_555
C4 C18 1_555 1_555
C9 C22 1_555 1_555
C15 C26 1_555 1_555
C16 C19 1_555 1_555
C17 C20 1_555 1_555
C21 C25 1_555 1_555
C24 C28 1_555 1_555
Cu1B S3B 1_555 1_555
Cu1B C12B 1_555 1_555
Cu1C S3C 1_555 1_555
Cu2C S3C 1_555 1_555
Cu3C_2 S2C 1_555 1_555
N1C C5C 1_555 1_555
C4C C18C 1_555 1_555
C9E C22E 1_555 1_555
C15C C26C 1_555 1_555
C16C C19C 1_555 1_555
C17C C20C 1_555 1_555
C21E C25E 1_555 1_555
C24E C28E 1_555 1_555

#END
