
#######################################################################
#
#                 Cambridge Crystallographic Data Centre
#                                CCDC 
#
#######################################################################
#
# If this CIF has been generated from an entry in the Cambridge 
# Structural Database, then it will include bibliographic, chemical, 
# crystal, experimental, refinement or atomic coordinate data resulting 
# from the CCDC's data processing and validation procedures.
#
#######################################################################

data_LOFJAT
_chemical_formula_moiety         'C38 H18 Cu8 O18'
_symmetry_cell_setting           hexagonal
_symmetry_space_group_name_H-M   'P 63/m m c'
_symmetry_Int_Tables_number      194
_space_group_name_Hall           '-P 6c 2c'
loop_
_symmetry_equiv_pos_site_id
_symmetry_equiv_pos_as_xyz
1 x,y,z
2 -y,x-y,z
3 -x+y,-x,z
4 -x,-y,1/2+z
5 y,-x+y,1/2+z
6 x-y,x,1/2+z
7 y,x,-z
8 x-y,-y,-z
9 -x,-x+y,-z
10 -y,-x,1/2-z
11 -x+y,y,1/2-z
12 x,x-y,1/2-z
13 -x,-y,-z
14 y,-x+y,-z
15 x-y,x,-z
16 x,y,1/2-z
17 -y,x-y,1/2-z
18 -x+y,-x,1/2-z
19 -y,-x,z
20 -x+y,y,z
21 x,x-y,z
22 y,x,1/2+z
23 x-y,-y,1/2+z
24 -x,-x+y,1/2+z
_cell_length_a                   18.6179(15)
_cell_length_b                   18.6179(15)
_cell_length_c                   34.147(3)
_cell_angle_alpha                90
_cell_angle_beta                 90
_cell_angle_gamma                120
_cell_volume                     10250.5
loop_
_atom_site_label
_atom_site_type_symbol
_atom_site_fract_x
_atom_site_fract_y
_atom_site_fract_z
_atom_site_U_iso_or_equiv
_atom_site_thermal_displace_type
Cu1 Cu 0.476094(18) -0.04781(4) 0.031718(15) 0.0571 Uani
O1 O 0.58919(18) 0.02920(17) 0.05004(7) 0.0752 Uani
O2 O 0.62896(17) 0.10993(15) -0.00338(7) 0.0746 Uani
O3 O 0.4404(2) -0.1193(4) 0.08481(15) 0.1536 Uani
O4 O 0.9034(9) 0.3546(7) 0.2500 0.1511 Uani
C1 C 0.6397(3) 0.0915(2) 0.03110(10) 0.0656 Uani
C2 C 0.77804(18) 0.22196(18) 0.03147(14) 0.0652 Uani
H1 H 0.7676 0.2324 0.0061 0.0780 Uiso
C3 C 0.7211(3) 0.1497(2) 0.05002(10) 0.0642 Uani
C4 C 0.7378(3) 0.1343(3) 0.08805(10) 0.0736 Uani
H2 H 0.7001 0.0857 0.1007 0.0880 Uiso
C5 C 0.80956(19) 0.19044(19) 0.10695(14) 0.0664 Uani
C6 C 0.8231(2) 0.1769(2) 0.14895(15) 0.0789 Uani
C7 C 0.8005(8) 0.0985(7) 0.1624(2) 0.1083 Uani
H3 H 0.7822 0.0557 0.1442 0.1300 Uiso
C8 C 0.8037(7) 0.0799(6) 0.2015(2) 0.0962 Uani
H4 H 0.7836 0.0262 0.2107 0.1160 Uiso
C9 C 0.8519(6) 0.2417(6) 0.1763(2) 0.0848 Uani
H5 H 0.8681 0.2957 0.1686 0.1020 Uiso
C10 C 0.8552(6) 0.2219(5) 0.2162(2) 0.0799 Uani
C11 C 0.8434(3) 0.1566(3) 0.22809(19) 0.1043 Uani
C12 C 0.8741(10) 0.2770(10) 0.2500 0.0990 Uani
O1I O 0.97080(17) 0.41081(18) 0.44996(7) 0.0752 Uani
O2I O 0.89007(15) 0.37104(17) 0.50338(7) 0.0746 Uani
O4I O 0.6454(7) 0.0966(9) 0.2500 0.1511 Uani
C1I C 0.9085(2) 0.3603(3) 0.46890(10) 0.0656 Uani
C2I C 0.77804(18) 0.22196(18) 0.46853(14) 0.0652 Uani
H1I H 0.7676 0.2324 0.4939 0.0780 Uiso
C3I C 0.8503(2) 0.2789(3) 0.44998(10) 0.0642 Uani
C4I C 0.8657(3) 0.2622(3) 0.41195(10) 0.0736 Uani
H2I H 0.9143 0.2999 0.3993 0.0880 Uiso
C5I C 0.80956(19) 0.19044(19) 0.39305(14) 0.0664 Uani
C6I C 0.8231(2) 0.1769(2) 0.35105(15) 0.0789 Uani
C7I C 0.9015(7) 0.1995(8) 0.3376(2) 0.1083 Uani
H3I H 0.9443 0.2178 0.3558 0.1300 Uiso
C8I C 0.9201(6) 0.1963(7) 0.2985(2) 0.0962 Uani
H4I H 0.9738 0.2164 0.2893 0.1160 Uiso
C9I C 0.7583(6) 0.1481(6) 0.3237(2) 0.0848 Uani
H5I H 0.7043 0.1319 0.3314 0.1020 Uiso
C10I C 0.7781(5) 0.1448(6) 0.2838(2) 0.0799 Uani
C11I C 0.8434(3) 0.1566(3) 0.27191(19) 0.1043 Uani
C12I C 0.7230(10) 0.1259(10) 0.2500 0.0990 Uani
O1O O 0.58919(18) 0.02920(17) 0.44996(7) 0.0752 Uani
O2O O 0.62896(17) 0.10993(15) 0.50338(7) 0.0746 Uani
C1O C 0.6397(3) 0.0915(2) 0.46890(10) 0.0656 Uani
C3O C 0.7211(3) 0.1497(2) 0.44998(10) 0.0642 Uani
C4O C 0.7378(3) 0.1343(3) 0.41195(10) 0.0736 Uani
H2O H 0.7001 0.0857 0.3993 0.0880 Uiso
C7O C 0.8005(8) 0.0985(7) 0.3376(2) 0.1083 Uani
H3O H 0.7822 0.0557 0.3558 0.1300 Uiso
C8O C 0.8037(7) 0.0799(6) 0.2985(2) 0.0962 Uani
H4O H 0.7836 0.0262 0.2893 0.1160 Uiso
C9O C 0.8519(6) 0.2417(6) 0.3237(2) 0.0848 Uani
H5O H 0.8681 0.2957 0.3314 0.1020 Uiso
C10O C 0.8552(6) 0.2219(5) 0.2838(2) 0.0799 Uani
O1R O 0.97080(17) 0.41081(18) 0.05004(7) 0.0752 Uani
O2R O 0.89007(15) 0.37104(17) -0.00338(7) 0.0746 Uani
C1R C 0.9085(2) 0.3603(3) 0.03110(10) 0.0656 Uani
C3R C 0.8503(2) 0.2789(3) 0.05002(10) 0.0642 Uani
C4R C 0.8657(3) 0.2622(3) 0.08805(10) 0.0736 Uani
H2R H 0.9143 0.2999 0.1007 0.0880 Uiso
C7R C 0.9015(7) 0.1995(8) 0.1624(2) 0.1083 Uani
H3R H 0.9443 0.2178 0.1442 0.1300 Uiso
C8R C 0.9201(6) 0.1963(7) 0.2015(2) 0.0962 Uani
H4R H 0.9738 0.2164 0.2107 0.1160 Uiso
C9R C 0.7583(6) 0.1481(6) 0.1763(2) 0.0848 Uani
H5R H 0.7043 0.1319 0.1686 0.1020 Uiso
C10R C 0.7781(5) 0.1448(6) 0.2162(2) 0.0799 Uani
Cu1A Cu 1.04781(4) 0.523904(44) 0.031718(15) 0.0571 Uani
O3A O 1.1193(4) 0.5597(4) 0.08481(15) 0.1536 Uani
Cu1C Cu 0.523906(18) 0.04781(4) 0.531718(15) 0.0571 Uani
Cu1D Cu 0.95219(4) 0.476096(44) 0.531718(15) 0.0571 Uani
Cu1F Cu 0.95219(4) 0.476094(18) -0.031718(15) 0.0571 Uani
Cu1G Cu 0.523904(44) 0.04781(4) -0.031718(15) 0.0571 Uani
Cu1I Cu 1.04781(4) 0.523906(18) 0.468282(15) 0.0571 Uani
Cu1J Cu 0.476096(44) -0.04781(4) 0.468282(15) 0.0571 Uani
O1A O 0.97080(17) 0.55999(25) 0.05004(7) 0.0752 Uani
O1S O 0.44001(25) 0.02920(17) 0.05004(7) 0.0752 Uani
O2F O 1.10993(15) 0.62896(17) 0.00338(7) 0.0746 Uani
O2G O 0.51903(23) -0.10993(15) 0.00338(7) 0.0746 Uani
O2L O 0.37104(17) -0.10993(15) 0.00338(7) 0.0746 Uani
O2M O 1.10993(15) 0.48097(23) 0.00338(7) 0.0746 Uani
loop_
_atom_site_aniso_label
_atom_site_aniso_U_11
_atom_site_aniso_U_22
_atom_site_aniso_U_33
_atom_site_aniso_U_23
_atom_site_aniso_U_13
_atom_site_aniso_U_12
Cu1 0.0806(5) 0.0399(4) 0.0374(3) -0.0002(3) -0.00011(14) 0.0200(2)
O1 0.083(2) 0.0619(18) 0.0549(14) 0.0043(14) -0.0033(15) 0.0169(17)
O2 0.083(2) 0.0625(18) 0.0559(15) 0.0007(13) -0.0045(14) 0.0196(15)
O3 0.153(3) 0.195(6) 0.126(4) 0.110(4) 0.055(2) 0.097(3)
O4 0.256(16) 0.074(7) 0.080(6) 0.000 0.000 0.050(9)
C1 0.079(3) 0.057(3) 0.046(2) -0.009(2) -0.001(2) 0.023(2)
C2 0.073(3) 0.073(3) 0.041(2) -0.0003(14) 0.0003(14) 0.030(4)
C3 0.075(3) 0.061(3) 0.0434(18) -0.0052(19) 0.000(2) 0.024(2)
C4 0.080(3) 0.067(3) 0.050(2) -0.005(2) -0.002(2) 0.019(2)
C5 0.068(3) 0.068(3) 0.042(3) 0.0009(14) -0.0009(14) 0.018(3)
C6 0.084(3) 0.084(3) 0.042(3) -0.0015(17) 0.0015(17) 0.022(4)
C7 0.154(10) 0.084(7) 0.057(5) -0.003(5) -0.021(6) 0.037(7)
C8 0.143(9) 0.073(6) 0.058(5) 0.007(5) 0.001(6) 0.043(6)
C9 0.114(8) 0.067(6) 0.053(4) -0.001(4) 0.004(5) 0.030(6)
C10 0.097(7) 0.066(6) 0.041(4) -0.007(4) 0.001(4) 0.014(5)
C11 0.142(6) 0.142(6) 0.061(4) 0.003(2) -0.003(2) 0.095(7)
C12 0.141(14) 0.085(11) 0.045(6) 0.000 0.000 0.037(10)
O1I 0.0619 0.083 0.0549 -0.0033 0.0043 0.0169
O2I 0.0625 0.083 0.0559 -0.0045 0.0007 0.0196
O4I 0.074 0.256 0.08 0 0 0.05
C1I 0.057 0.079 0.046 -0.001 -0.009 0.023
C2I 0.073 0.073 0.041 0.0003 -0.0003 0.03
C3I 0.061 0.075 0.0434 0 -0.0052 0.024
C4I 0.067 0.08 0.05 -0.002 -0.005 0.019
C5I 0.068 0.068 0.042 -0.0009 0.0009 0.018
C6I 0.084 0.084 0.042 0.0015 -0.0015 0.022
C7I 0.084 0.154 0.057 -0.021 -0.003 0.037
C8I 0.073 0.143 0.058 0.001 0.007 0.043
C9I 0.067 0.114 0.053 0.004 -0.001 0.03
C10I 0.066 0.097 0.041 0.001 -0.007 0.014
C11I 0.142 0.142 0.061 -0.003 0.003 0.095
C12I 0.085 0.141 0.045 0 0 0.037
O1O 0.083 0.0619 0.0549 -0.0043 0.0033 0.0169
O2O 0.083 0.0625 0.0559 -0.0007 0.0045 0.0196
C1O 0.079 0.057 0.046 0.009 0.001 0.023
C3O 0.075 0.061 0.0434 0.0052 0 0.024
C4O 0.08 0.067 0.05 0.005 0.002 0.019
C7O 0.154 0.084 0.057 0.003 0.021 0.037
C8O 0.143 0.073 0.058 -0.007 -0.001 0.043
C9O 0.114 0.067 0.053 0.001 -0.004 0.03
C10O 0.097 0.066 0.041 0.007 -0.001 0.014
O1R 0.0619 0.083 0.0549 0.0033 -0.0043 0.0169
O2R 0.0625 0.083 0.0559 0.0045 -0.0007 0.0196
C1R 0.057 0.079 0.046 0.001 0.009 0.023
C3R 0.061 0.075 0.0434 0 0.0052 0.024
C4R 0.067 0.08 0.05 0.002 0.005 0.019
C7R 0.084 0.154 0.057 0.021 0.003 0.037
C8R 0.073 0.143 0.058 -0.001 -0.007 0.043
C9R 0.067 0.114 0.053 -0.004 0.001 0.03
C10R 0.066 0.097 0.041 -0.001 0.007 0.014
Cu1A 0.0399 0.0805 0.0374 9e-05 0.0002 0.0199
O3A 0.195 0.154 0.126 -0.055 -0.11 0.098
Cu1C 0.0806 0.0399 0.0374 0.0002 0.00011 0.02
Cu1D 0.0399 0.0805 0.0374 -9e-05 -0.0002 0.0199
Cu1F 0.0399 0.0806 0.0374 0.00011 0.0002 0.02
Cu1G 0.0805 0.0399 0.0374 -0.0002 -9e-05 0.0199
Cu1I 0.0399 0.0806 0.0374 -0.00011 -0.0002 0.02
Cu1J 0.0805 0.0399 0.0374 0.0002 9e-05 0.0199
O1A 0.0619 0.1111 0.0549 -0.0076 -0.0043 0.045
O1S 0.1111 0.0619 0.0549 0.0043 0.0076 0.045
O2F 0.0625 0.083 0.0559 0.0045 -0.0007 0.0196
O2G 0.1063 0.0625 0.0559 0.0007 0.0052 0.0429
O2L 0.083 0.0625 0.0559 0.0007 -0.0045 0.0196
O2M 0.0625 0.1063 0.0559 -0.0052 -0.0007 0.0429
loop_
_geom_bond_atom_site_label_1
_geom_bond_atom_site_label_2
_geom_bond_site_symmetry_1
_geom_bond_site_symmetry_2
Cu1 O1 1_555 1_555
O1 C1 1_555 1_555
O2 C1 1_555 1_555
O3 Cu1 1_555 1_555
O4 C12 1_555 1_555
C1 C3 1_555 1_555
C2 H1 1_555 1_555
C3 C2 1_555 1_555
C4 C3 1_555 1_555
H2 C4 1_555 1_555
C5 C4 1_555 1_555
C6 C5 1_555 1_555
C7 C6 1_555 1_555
H3 C7 1_555 1_555
C8 C7 1_555 1_555
H4 C8 1_555 1_555
C9 C6 1_555 1_555
H5 C9 1_555 1_555
C10 C9 1_555 1_555
C11 C8 1_555 1_555
C12 C10 1_555 1_555
O1I C1I 1_555 1_555
O2I C1I 1_555 1_555
O4I C12I 1_555 1_555
C1I C3I 1_555 1_555
C2I H1I 1_555 1_555
C3I C2I 1_555 1_555
C4I C3I 1_555 1_555
H2I C4I 1_555 1_555
C5I C4I 1_555 1_555
C6I C5I 1_555 1_555
C7I C6I 1_555 1_555
H3I C7I 1_555 1_555
C8I C7I 1_555 1_555
H4I C8I 1_555 1_555
C9I C6I 1_555 1_555
H5I C9I 1_555 1_555
C10I C9I 1_555 1_555
C11I C11 1_555 1_555
C12I C10I 1_555 1_555
O1O C1O 1_555 1_555
O2O C1O 1_555 1_555
C1O C3O 1_555 1_555
C3O C2I 1_555 1_555
C4O C5I 1_555 1_555
H2O C4O 1_555 1_555
C7O C6I 1_555 1_555
H3O C7O 1_555 1_555
C8O C10I 1_555 1_555
H4O C8O 1_555 1_555
C9O C6I 1_555 1_555
H5O C9O 1_555 1_555
C10O C12 1_555 1_555
O1R C1R 1_555 1_555
O2R C1R 1_555 1_555
C1R C3R 1_555 1_555
C3R C2 1_555 1_555
C4R C5 1_555 1_555
H2R C4R 1_555 1_555
C7R C6 1_555 1_555
H3R C7R 1_555 1_555
C8R C10 1_555 1_555
H4R C8R 1_555 1_555
C9R C6 1_555 1_555
H5R C9R 1_555 1_555
C10R C8 1_555 1_555
Cu1A O1R 1_555 1_555
O3A Cu1A 1_555 1_555
Cu1C O2O 1_555 1_555
Cu1D O2I 1_555 1_555
Cu1F O2R 1_555 1_555
Cu1G Cu1 1_555 1_555
Cu1I O1I 1_555 1_555
Cu1J O1O 1_555 1_555
O1A Cu1A 1_555 1_555
O1S Cu1 1_555 1_555
O2F Cu1A 1_555 1_555
O2G Cu1 1_555 1_555
O2L Cu1 1_555 1_555
O2M Cu1A 1_555 1_555
O2 Cu1G 1_555 1_555
C7 C9R 1_555 1_555
C9 C7R 1_555 1_555
C9 C9R 1_555 1_555
C10 C11 1_555 1_555
C10 C10R 1_555 1_555
C11 C8R 1_555 1_555
C11 C10R 1_555 1_555
C7I C9O 1_555 1_555
C8I C11I 1_555 1_555
C8I C10O 1_555 1_555
C9I C7O 1_555 1_555
C9I C9O 1_555 1_555
C10I C11I 1_555 1_555
C10I C10O 1_555 1_555
C11I C8O 1_555 1_555
C11I C10O 1_555 1_555
C12I C10R 1_555 1_555
C3O C4O 1_555 1_555
C7O C8O 1_555 1_555
C9O C10O 1_555 1_555
C3R C4R 1_555 1_555
C7R C8R 1_555 1_555
C9R C10R 1_555 1_555
Cu1A Cu1F 1_555 1_555
Cu1C Cu1J 1_555 1_555
Cu1D Cu1I 1_555 1_555

#END
