
#######################################################################
#
#                 Cambridge Crystallographic Data Centre
#                                CCDC 
#
#######################################################################
#
# If this CIF has been generated from an entry in the Cambridge 
# Structural Database, then it will include bibliographic, chemical, 
# crystal, experimental, refinement or atomic coordinate data resulting 
# from the CCDC's data processing and validation procedures.
#
#######################################################################

data_OPURIB
_chemical_formula_moiety         '(C17 H11 Ce1 O9)n'
_symmetry_cell_setting           monoclinic
_symmetry_space_group_name_H-M   'P 21'
_symmetry_Int_Tables_number      4
_space_group_name_Hall           'P 2yb'
loop_
_symmetry_equiv_pos_site_id
_symmetry_equiv_pos_as_xyz
1 x,y,z
2 -x,1/2+y,-z
_cell_length_a                   4.873(6)
_cell_length_b                   13.133(16)
_cell_length_c                   13.300(16)
_cell_angle_alpha                90
_cell_angle_beta                 100.56
_cell_angle_gamma                90
_cell_volume                     836.746
loop_
_atom_site_label
_atom_site_type_symbol
_atom_site_fract_x
_atom_site_fract_y
_atom_site_fract_z
Ce1 Ce -0.52378(10) -0.39626(8) 1.21198(4)
C1 C 0.2711(13) 0.1100(12) 1.1494(4)
H1 H 0.4229 0.0785 1.1291
C2 C 0.0897(19) 0.1748(7) 1.0754(7)
C3 C -0.0932(19) 0.2455(8) 1.1028(6)
H2 H -0.1952 0.2866 1.0525
C4 C -0.1286(18) 0.2567(7) 1.2028(7)
C5 C 0.0329(17) 0.1915(7) 1.2778(7)
H3 H 0.0305 0.2052 1.3462
C6 C 0.2247(13) 0.0930(11) 1.2517(5)
C7 C 0.386(2) 0.0576(8) 1.3326(6)
H4 H 0.4635 0.1128 1.3775
H5 H 0.5386 0.0188 1.3139
C8 C 0.201(2) -0.0107(8) 1.3851(7)
C9 C 0.0537(17) -0.0862(7) 1.3388(8)
H6 H 0.0838 -0.1020 1.2735
C10 C -0.1418(19) -0.1451(7) 1.3755(7)
C11 C -0.2115(19) -0.1219(9) 1.4732(7)
H7 H -0.3465 -0.1564 1.5010
C12 C -0.0417(19) -0.0355(7) 1.5250(6)
C13 C 0.1358(17) 0.0115(7) 1.4784(6)
H8 H 0.2288 0.0667 1.5128
O1 O -0.4634(14) -0.2870(6) 1.3551(5)
C14 C -0.3034(16) 0.3266(7) 1.2310(7)
O2 O 0.3354(8) 0.1072(8) 0.9459(3)
O3 O -0.8275(13) -0.5147(6) 1.1199(4)
H9 H -0.7947 -0.5743 1.1031
H10 H -0.9696 -0.4790 1.0962
O4 O -0.3525(14) 0.3169(5) 1.3219(5)
H11 H -0.2029 0.3434 1.3543
O5 O -0.4092(13) 0.4011(5) 1.1777(5)
O6 O -0.2477(14) -0.2528(6) 1.2278(4)
O7 O 0.0532(13) 0.0510(5) 1.6807(4)
C15 C -0.1109(13) -0.0020(9) 1.6261(7)
C16 C -0.2837(16) -0.2314(7) 1.3159(7)
O8 O -0.0837(16) 0.1879(7) 0.8913(6)
C17 C 0.1284(17) 0.1571(8) 0.9652(6)
O9 O -0.3670(13) -0.0255(6) 1.6480(5)
Ce1A Ce 0.52378(10) 0.10374(8) 0.78802(4)
Ce1_2 Ce -0.52378(10) 0.60374(8) 1.21198(4)
Ce1A_2 Ce 0.52378(10) 0.10374(8) 1.78802(4)
Ce1A_3 Ce -0.47622(10) 0.10374(8) 0.78802(4)
Ce1A_4 Ce -0.47622(10) 0.10374(8) 1.78802(4)
O2A O -0.3354(8) -0.3928(8) 1.0541(3)
O5_2 O -0.4092(13) -0.5989(5) 1.1777(5)
O7A O -0.0532(13) -0.4490(5) 1.3193(4)
O8A O -0.9163(16) -0.3121(7) 1.1087(6)
O9A O -0.6330(13) -0.5255(6) 1.3520(5)
loop_
_geom_bond_atom_site_label_1
_geom_bond_atom_site_label_2
_geom_bond_site_symmetry_1
_geom_bond_site_symmetry_2
Ce1 O1 1_555 1_555
C1 H1 1_555 1_555
C2 C1 1_555 1_555
C3 C2 1_555 1_555
H2 C3 1_555 1_555
C4 C3 1_555 1_555
C5 C4 1_555 1_555
H3 C5 1_555 1_555
C6 C1 1_555 1_555
C7 C6 1_555 1_555
H4 C7 1_555 1_555
H5 C7 1_555 1_555
C8 C7 1_555 1_555
C9 C8 1_555 1_555
H6 C9 1_555 1_555
C10 C9 1_555 1_555
C11 C10 1_555 1_555
H7 C11 1_555 1_555
C12 C11 1_555 1_555
C13 C8 1_555 1_555
H8 C13 1_555 1_555
O1 C16 1_555 1_555
C14 C4 1_555 1_555
O2 C17 1_555 1_555
O3 Ce1 1_555 1_555
H9 O3 1_555 1_555
H10 O3 1_555 1_555
O4 C14 1_555 1_555
H11 O4 1_555 1_555
O5 C14 1_555 1_555
O6 Ce1 1_555 1_555
O7 C15 1_555 1_555
C15 C12 1_555 1_555
C16 C10 1_555 1_555
O8 C17 1_555 1_555
C17 C2 1_555 1_555
O9 C15 1_555 1_555
Ce1A O2 1_555 1_555
Ce1_2 O5 1_555 1_555
Ce1A_2 O7 1_555 1_555
Ce1A_3 O8 1_555 1_555
Ce1A_4 O9 1_555 1_555
O2A Ce1 1_555 1_555
O5_2 Ce1 1_555 1_555
O7A Ce1 1_555 1_555
O8A Ce1 1_555 1_555
O9A Ce1 1_555 1_555
C5 C6 1_555 1_555
C12 C13 1_555 1_555
O6 C16 1_555 1_555

#END
