
#######################################################################
#
#                 Cambridge Crystallographic Data Centre
#                                CCDC 
#
#######################################################################
#
# If this CIF has been generated from an entry in the Cambridge 
# Structural Database, then it will include bibliographic, chemical, 
# crystal, experimental, refinement or atomic coordinate data resulting 
# from the CCDC's data processing and validation procedures.
#
#######################################################################

data_OPURIB01
_chemical_formula_moiety         '(C17 H11 Ce1 O9)n'
_symmetry_cell_setting           monoclinic
_symmetry_space_group_name_H-M   'P 21'
_symmetry_Int_Tables_number      4
_space_group_name_Hall           'P 2yb'
loop_
_symmetry_equiv_pos_site_id
_symmetry_equiv_pos_as_xyz
1 x,y,z
2 -x,1/2+y,-z
_cell_length_a                   4.880(9)
_cell_length_b                   13.11(3)
_cell_length_c                   13.29(2)
_cell_angle_alpha                90
_cell_angle_beta                 100.58
_cell_angle_gamma                90
_cell_volume                     835.797
loop_
_atom_site_label
_atom_site_type_symbol
_atom_site_fract_x
_atom_site_fract_y
_atom_site_fract_z
Ce1 Ce 2.23452(8) 1.24120(9) 1.21230(3)
O1 O 1.5057(17) 1.3313(8) 1.1084(5)
O2 O 1.8938(9) 1.2461(8) 1.0547(3)
O3 O 0.8268(13) 1.4548(5) 0.6747(5)
H1 H 0.7219 1.5037 0.6606
O4 O 0.9110(15) 1.5394(5) 0.8240(5)
O5 O 1.0306(13) 0.8852(6) 0.7703(4)
O6 O 0.6978(16) 0.8515(6) 0.6422(6)
O7 O 0.8771(13) 1.1919(5) 0.3205(5)
O8 O 0.4838(14) 1.1130(5) 0.3533(4)
C1 C 1.6152(11) 1.2513(6) 0.8508(4)
H2 H 1.7702 1.2057 0.8697
C2 C 1.5289(13) 1.3132(6) 0.9263(4)
C3 C 1.3148(14) 1.3815(5) 0.8993(4)
H3 H 1.2568 1.4212 0.9494
C4 C 1.1844(14) 1.3916(5) 0.7979(4)
C5 C 1.2652(13) 1.3300(5) 0.7232(4)
H4 H 1.1808 1.3387 0.6551
C6 C 1.4750(11) 1.2537(6) 0.7489(4)
C7 C 1.5624(18) 1.1993(7) 0.6656(6)
H5 H 1.7223 1.1566 0.6913
H6 H 1.6135 1.2468 0.6163
C8 C 1.3034(17) 1.1307(7) 0.6133(6)
C9 C 1.2206(18) 1.0468(9) 0.6649(7)
H7 H 1.3227 1.0276 0.7282
C10 C 0.9895(16) 0.9930(7) 0.6222(5)
C11 C 1.1563(15) 1.1581(7) 0.5206(6)
H8 H 1.2084 1.2147 0.4864
C12 C 0.9213(15) 1.0989(7) 0.4765(5)
C13 C 0.8335(16) 1.0189(8) 0.5261(8)
H9 H 0.6752 0.9822 0.4976
C14 C 0.7655(15) 1.1356(8) 0.3774(6)
C15 C 0.9011(17) 0.9052(7) 0.6832(6)
C16 C 0.9646(18) 1.4645(8) 0.7666(7)
C17 C 1.6544(16) 1.3006(8) 1.0353(5)
O9 O 2.4693(18) 1.1246(7) 1.1187(6)
H10 H 2.6238 1.1072 1.1553
H11 H 2.4995 1.1570 1.0664
Ce1_2 Ce 1.23452(8) 1.24120(9) 1.21230(3)
Ce1A Ce 0.76548(8) 1.74120(9) 0.78770(3)
Ce1A_2 Ce 0.76548(8) 0.74120(9) 0.78770(3)
Ce1_3 Ce 1.23452(8) 1.24120(9) 0.21230(3)
Ce1_4 Ce 0.23452(8) 1.24120(9) 0.21230(3)
O1_2 O 2.5057(17) 1.3313(8) 1.1084(5)
O4A O 2.0890(15) 1.0394(5) 1.1760(5)
O5A O 1.9694(13) 1.3852(6) 1.2297(4)
O6A O 2.3022(16) 1.3515(6) 1.3578(6)
O7_2 O 1.8771(13) 1.1919(5) 1.3205(5)
O8_2 O 2.4838(14) 1.1130(5) 1.3533(4)
loop_
_geom_bond_atom_site_label_1
_geom_bond_atom_site_label_2
_geom_bond_site_symmetry_1
_geom_bond_site_symmetry_2
Ce1 O2 1_555 1_555
O1 C17 1_555 1_555
O2 C17 1_555 1_555
O3 H1 1_555 1_555
O4 C16 1_555 1_555
O5 C15 1_555 1_555
O6 C15 1_555 1_555
O7 C14 1_555 1_555
O8 C14 1_555 1_555
C1 H2 1_555 1_555
C2 C1 1_555 1_555
C3 C2 1_555 1_555
H3 C3 1_555 1_555
C4 C3 1_555 1_555
C5 C4 1_555 1_555
H4 C5 1_555 1_555
C6 C1 1_555 1_555
C7 C6 1_555 1_555
H5 C7 1_555 1_555
H6 C7 1_555 1_555
C8 C7 1_555 1_555
C9 C8 1_555 1_555
H7 C9 1_555 1_555
C10 C9 1_555 1_555
C11 C8 1_555 1_555
H8 C11 1_555 1_555
C12 C11 1_555 1_555
C13 C10 1_555 1_555
H9 C13 1_555 1_555
C14 C12 1_555 1_555
C15 C10 1_555 1_555
C16 O3 1_555 1_555
C17 C2 1_555 1_555
O9 Ce1 1_555 1_555
H10 O9 1_555 1_555
H11 O9 1_555 1_555
Ce1_2 O1 1_555 1_555
Ce1A O4 1_555 1_555
Ce1A_2 O5 1_555 1_555
Ce1_3 O7 1_555 1_555
Ce1_4 O8 1_555 1_555
O1_2 Ce1 1_555 1_555
O4A Ce1 1_555 1_555
O5A Ce1 1_555 1_555
O6A Ce1 1_555 1_555
O7_2 Ce1 1_555 1_555
O8_2 Ce1 1_555 1_555
O6 Ce1A_2 1_555 1_555
C4 C16 1_555 1_555
C5 C6 1_555 1_555
C12 C13 1_555 1_555

#END
