
#######################################################################
#
#                 Cambridge Crystallographic Data Centre
#                                CCDC 
#
#######################################################################
#
# If this CIF has been generated from an entry in the Cambridge 
# Structural Database, then it will include bibliographic, chemical, 
# crystal, experimental, refinement or atomic coordinate data resulting 
# from the CCDC's data processing and validation procedures.
#
#######################################################################

data_OWUHOF
_chemical_formula_moiety         '(C79 H69 N5 O21 Zn4)n'
_symmetry_cell_setting           monoclinic
_symmetry_space_group_name_H-M   'P 21/c'
_symmetry_Int_Tables_number      14
_space_group_name_Hall           '-P 2ybc'
loop_
_symmetry_equiv_pos_site_id
_symmetry_equiv_pos_as_xyz
1 x,y,z
2 -x,1/2+y,1/2-z
3 -x,-y,-z
4 x,1/2-y,1/2+z
_cell_length_a                   10.9310(3)
_cell_length_b                   16.2099(4)
_cell_length_c                   43.6020(13)
_cell_angle_alpha                90
_cell_angle_beta                 92.754(2)
_cell_angle_gamma                90
_cell_volume                     7716.93
loop_
_atom_site_label
_atom_site_type_symbol
_atom_site_fract_x
_atom_site_fract_y
_atom_site_fract_z
C1 C 0.3236(5) 0.7652(3) 0.25763(12)
C2 C 0.3108(5) 0.7668(3) 0.29178(12)
C3 C 0.3565(5) 0.7013(3) 0.30867(12)
H1 H 0.3897 0.6564 0.2987
C4 C 0.3538(5) 0.7011(3) 0.34093(12)
H2 H 0.3848 0.6560 0.3520
C5 C 0.3062(5) 0.7664(3) 0.35622(12)
C6 C 0.1952(5) 0.9016(3) 0.35423(13)
H3 H 0.1933 0.9023 0.3755
C7 C 0.1423(6) 0.9647(4) 0.33766(14)
H4 H 0.1065 1.0085 0.3477
C8 C 0.1419(5) 0.9637(4) 0.30515(13)
H5 H 0.1048 1.0065 0.2939
C9 C 0.1959(5) 0.9002(3) 0.29027(13)
H6 H 0.1940 0.8996 0.2689
C10 C 0.2549(4) 0.8349(3) 0.30704(12)
C11 C 0.2535(5) 0.8344(3) 0.33951(12)
C12 C 0.3121(4) 0.7624(3) 0.39066(12)
C13 C 0.5480(4) 0.7662(3) 0.19886(11)
C14 C 0.6859(4) 0.7705(3) 0.20251(12)
C15 C 0.7513(5) 0.7038(3) 0.19323(13)
H7 H 0.7101 0.6566 0.1864
C16 C 0.8790(4) 0.7056(3) 0.19381(12)
H8 H 0.9213 0.6592 0.1876
C17 C 0.9438(4) 0.7744(3) 0.20336(12)
C18 C 0.9375(5) 0.9199(3) 0.22434(13)
H9 H 1.0225 0.9232 0.2246
C19 C 0.8722(5) 0.9860(4) 0.23405(14)
H10 H 0.9129 1.0339 0.2404
C20 C 0.7445(5) 0.9820(3) 0.23457(13)
H11 H 0.7009 1.0270 0.2415
C21 C 0.6835(5) 0.9125(3) 0.22497(12)
H12 H 0.5987 0.9101 0.2259
C22 C 0.7486(5) 0.8431(3) 0.21348(11)
C23 C 0.8791(5) 0.8462(3) 0.21384(12)
C24 C 1.0816(4) 0.7691(3) 0.20208(12)
C25 C 0.2892(5) 0.7816(3) 0.14003(12)
C26 C 0.2785(5) 0.7773(3) 0.10544(12)
C27 C 0.3215(6) 0.7068(3) 0.09256(12)
H13 H 0.3500 0.6641 0.1052
C28 C 0.3236(5) 0.6974(3) 0.06062(12)
H14 H 0.3502 0.6480 0.0524
C29 C 0.2868(5) 0.7605(3) 0.04140(12)
C30 C 0.1834(5) 0.8969(3) 0.03409(13)
H15 H 0.1856 0.8915 0.0129
C31 C 0.1320(6) 0.9644(4) 0.04622(14)
H16 H 0.1009 1.0056 0.0332
C32 C 0.1245(6) 0.9738(4) 0.07802(14)
H17 H 0.0891 1.0209 0.0859
C33 C 0.1693(5) 0.9133(3) 0.09742(13)
H18 H 0.1610 0.9190 0.1184
C34 C 0.2282(5) 0.8422(3) 0.08614(12)
C35 C 0.2348(5) 0.8335(3) 0.05376(12)
C36 C 0.3076(5) 0.7506(3) 0.00769(12)
C37 C 0.5510(5) 0.7551(3) -0.05208(12)
C38 C 0.6871(5) 0.7510(3) -0.05573(13)
C39 C 0.7585(5) 0.8128(3) -0.04298(14)
H19 H 0.7217 0.8584 -0.0343
C40 C 0.8867(5) 0.8078(3) -0.04289(14)
H20 H 0.9336 0.8488 -0.0332
C41 C 0.9441(5) 0.7438(3) -0.05683(13)
C42 C 0.9233(6) 0.6149(4) -0.08890(15)
H21 H 1.0079 0.6110 -0.0898
C43 C 0.8510(6) 0.5572(4) -0.10372(17)
H22 H 0.8870 0.5149 -0.1145
C44 C 0.7233(6) 0.5611(4) -0.10291(16)
H23 H 0.6750 0.5218 -0.1132
C45 C 0.6699(5) 0.6226(4) -0.08697(14)
H24 H 0.5850 0.6246 -0.0864
C46 C 0.7421(5) 0.6841(3) -0.07118(13)
C47 C 0.8727(5) 0.6803(3) -0.07212(13)
C48 C 1.0831(5) 0.7436(3) -0.05409(12)
C49 C 0.4223(5) 0.5154(3) 0.19169(13)
H25 H 0.4947 0.5449 0.1947
C50 C 0.4283(5) 0.4318(3) 0.18659(15)
H26 H 0.5040 0.4058 0.1862
C51 C 0.3224(5) 0.3863(3) 0.18205(13)
C52 C 0.2125(5) 0.4279(3) 0.18311(13)
H27 H 0.1389 0.3994 0.1803
C53 C 0.2119(5) 0.5123(3) 0.18838(13)
H28 H 0.1372 0.5395 0.1891
C54 C 0.3260(6) 0.2951(3) 0.17683(14)
H29 H 0.3938 0.2815 0.1642
H30 H 0.2508 0.2775 0.1660
C55 C 0.3410(6) 0.2497(3) 0.20774(14)
H31 H 0.4183 0.2661 0.2178
H32 H 0.2762 0.2673 0.2207
C56 C 0.3383(5) 0.1570(3) 0.20546(13)
C57 C 0.3159(6) 0.1159(3) 0.17752(14)
H33 H 0.3047 0.1455 0.1593
C58 C 0.3107(6) 0.0311(3) 0.17737(13)
H34 H 0.2936 0.0046 0.1588
C59 C 0.3549(5) 0.0240(3) 0.22897(13)
H35 H 0.3697 -0.0072 0.2467
C60 C 0.3608(5) 0.1087(3) 0.23138(13)
H36 H 0.3798 0.1333 0.2503
C61 C 0.3449(6) 0.4947(4) -0.01881(14)
H37 H 0.3389 0.5267 -0.0013
C62 C 0.3612(6) 0.4113(4) -0.01542(17)
H38 H 0.3682 0.3881 0.0041
C63 C 0.3673(6) 0.3620(4) -0.04090(17)
C64 C 0.3585(7) 0.4009(4) -0.06939(18)
H39 H 0.3623 0.3700 -0.0873
C65 C 0.3442(6) 0.4849(4) -0.07101(15)
H40 H 0.3394 0.5099 -0.0902
C66 C 0.3870(7) 0.2702(4) -0.03770(19)
H41 H 0.4378 0.2511 -0.0539
H42 H 0.4298 0.2587 -0.0182
C67 C 0.2694(7) 0.2250(4) -0.03945(18)
H43 H 0.2211 0.2441 -0.0573
H44 H 0.2245 0.2381 -0.0214
C68 C 0.2834(7) 0.1324(4) -0.04148(16)
C69 C 0.1884(6) 0.0853(4) -0.05191(17)
H45 H 0.1135 0.1102 -0.0570
C70 C 0.1998(6) 0.0018(4) -0.05513(15)
H46 H 0.1310 -0.0285 -0.0616
C71 C 0.3998(6) 0.0059(4) -0.03858(17)
H47 H 0.4730 -0.0213 -0.0336
C72 C 0.3939(7) 0.0906(4) -0.03437(18)
H48 H 0.4625 0.1196 -0.0269
N1 N 0.3292(4) -0.0155(3) 0.20272(10)
N2 N 0.3151(4) 0.5557(2) 0.19239(10)
N3 N 0.3370(4) 0.5321(3) -0.04609(11)
N4 N 0.3038(4) -0.0379(3) -0.04951(10)
O1 O 0.4923(3) 0.8307(2) 0.19073(8)
O2 O 0.4985(3) 0.6973(2) 0.20357(9)
O3 O 0.3559(4) 0.8308(2) 0.24461(8)
O4 O 0.3054(3) 0.6971(2) 0.24470(8)
O5 O 1.1261(3) 0.6993(2) 0.19716(10)
O6 O 1.1440(3) 0.8334(2) 0.20604(10)
O7 O 0.2802(4) 0.8512(2) 0.15295(8)
O8 O 0.3096(4) 0.7155(2) 0.15401(8)
O9 O 0.4991(3) 0.6913(2) -0.04271(8)
O10 O 0.4984(3) 0.8235(2) -0.05820(8)
O11 O 0.2908(3) 0.6797(2) -0.00361(8)
O12 O 0.3447(3) 0.8128(2) -0.00659(8)
O13 O 1.1397(3) 0.6775(2) -0.05815(9)
O14 O 1.1343(3) 0.8119(2) -0.04735(9)
O15 O 0.3433(3) 0.8263(2) 0.40544(8)
O16 O 0.2858(3) 0.6928(2) 0.40251(8)
Zn1 Zn 0.31886(5) 0.86031(3) 0.198897(13)
Zn2 Zn 0.31172(5) 0.67943(3) 0.198496(13)
Zn3 Zn 0.32004(5) 0.65574(3) -0.048324(13)
Zn4 Zn 0.31540(5) 0.83730(3) -0.052129(13)
N1_2 N 0.3292(4) 0.9845(3) 0.20272(10)
N4_2 N 0.3038(4) 0.9621(3) -0.04951(10)
O5_2 O 0.1261(3) 0.6993(2) 0.19716(10)
O6_2 O 0.1440(3) 0.8334(2) 0.20604(10)
O13_2 O 0.1397(3) 0.6775(2) -0.05815(9)
O14_2 O 0.1343(3) 0.8119(2) -0.04735(9)
O15C O 0.3433(3) 0.6737(2) -0.09456(8)
O16C O 0.2858(3) 0.8072(2) -0.09749(8)
Zn1_2 Zn 0.31886(5) -0.13969(3) 0.198897(13)
Zn1_3 Zn 1.31886(5) 0.86031(3) 0.198897(13)
Zn2_2 Zn 1.31172(5) 0.67943(3) 0.198496(13)
Zn3_2 Zn 1.32004(5) 0.65574(3) -0.048324(13)
Zn3C Zn 0.32004(5) 0.84426(3) 0.451676(13)
Zn4_2 Zn 0.31540(5) -0.16270(3) -0.052129(13)
Zn4_3 Zn 1.31540(5) 0.83730(3) -0.052129(13)
Zn4C Zn 0.31540(5) 0.66270(3) 0.447871(13)
C73 C 0.0020(6) 0.1738(4) 0.13593(14)
H49 H -0.0285 0.2284 0.1306
H50 H 0.0884 0.1717 0.1319
C74 C -0.0153(6) 0.1570(4) 0.16929(15)
H51 H -0.1018 0.1530 0.1730
H52 H 0.0235 0.1052 0.1752
C75 C 0.0225(6) 0.2137(5) 0.21893(15)
H53 H 0.0601 0.2593 0.2298
H54 H 0.0599 0.1631 0.2260
H55 H -0.0634 0.2125 0.2226
O17 O 0.0388(4) 0.2231(3) 0.18677(10)
O18 O -0.0633(5) 0.1131(3) 0.11781(11)
H56 H -0.0544 0.1222 0.0995
C76 C 0.3472(15) 0.3231(9) 0.3772(4)
H57 H 0.4318 0.3167 0.3778
C77 C 0.1750(17) 0.3925(11) 0.3654(4)
H58 H 0.1522 0.4058 0.3444
H59 H 0.1431 0.4336 0.3787
H60 H 0.1422 0.3395 0.3704
C78 C 0.3271(19) 0.4683(13) 0.3578(5)
H61 H 0.4093 0.4845 0.3637
H62 H 0.2706 0.5070 0.3659
H63 H 0.3170 0.4673 0.3358
N5 N 0.3044(9) 0.3905(6) 0.3693(2)
O19 O 0.2832(8) 0.2628(5) 0.3843(2)
C79 C -0.0060(8) 0.1734(8) 0.3867(3)
H64 H -0.0250 0.1656 0.4078
H65 H -0.0685 0.1484 0.3736
H66 H -0.0021 0.2314 0.3823
O20 O 0.1024(7) 0.1385(5) 0.38168(19)
H67 H 0.1577 0.1703 0.3822
O21 O 0.4193(15) 0.0753(10) 0.1072(4)
loop_
_geom_bond_atom_site_label_1
_geom_bond_atom_site_label_2
_geom_bond_site_symmetry_1
_geom_bond_site_symmetry_2
C1 C2 1_555 1_555
C2 C3 1_555 1_555
C3 H1 1_555 1_555
C4 C3 1_555 1_555
H2 C4 1_555 1_555
C5 C4 1_555 1_555
C6 H3 1_555 1_555
C7 C6 1_555 1_555
H4 C7 1_555 1_555
C8 C7 1_555 1_555
H5 C8 1_555 1_555
C9 C8 1_555 1_555
H6 C9 1_555 1_555
C10 C2 1_555 1_555
C11 C5 1_555 1_555
C12 C5 1_555 1_555
C13 C14 1_555 1_555
C14 C15 1_555 1_555
C15 H7 1_555 1_555
C16 C15 1_555 1_555
H8 C16 1_555 1_555
C17 C16 1_555 1_555
C18 H9 1_555 1_555
C19 C18 1_555 1_555
H10 C19 1_555 1_555
C20 C19 1_555 1_555
H11 C20 1_555 1_555
C21 C20 1_555 1_555
H12 C21 1_555 1_555
C22 C14 1_555 1_555
C23 C17 1_555 1_555
C24 C17 1_555 1_555
C25 C26 1_555 1_555
C26 C27 1_555 1_555
C27 H13 1_555 1_555
C28 C27 1_555 1_555
H14 C28 1_555 1_555
C29 C28 1_555 1_555
C30 H15 1_555 1_555
C31 C30 1_555 1_555
H16 C31 1_555 1_555
C32 C31 1_555 1_555
H17 C32 1_555 1_555
C33 C32 1_555 1_555
H18 C33 1_555 1_555
C34 C26 1_555 1_555
C35 C29 1_555 1_555
C36 C29 1_555 1_555
C37 C38 1_555 1_555
C38 C39 1_555 1_555
C39 H19 1_555 1_555
C40 C39 1_555 1_555
H20 C40 1_555 1_555
C41 C40 1_555 1_555
C42 H21 1_555 1_555
C43 C42 1_555 1_555
H22 C43 1_555 1_555
C44 C43 1_555 1_555
H23 C44 1_555 1_555
C45 C44 1_555 1_555
H24 C45 1_555 1_555
C46 C38 1_555 1_555
C47 C41 1_555 1_555
C48 C41 1_555 1_555
C49 H25 1_555 1_555
C50 C49 1_555 1_555
H26 C50 1_555 1_555
C51 C50 1_555 1_555
C52 C51 1_555 1_555
H27 C52 1_555 1_555
C53 C52 1_555 1_555
H28 C53 1_555 1_555
C54 C51 1_555 1_555
H29 C54 1_555 1_555
H30 C54 1_555 1_555
C55 C54 1_555 1_555
H31 C55 1_555 1_555
H32 C55 1_555 1_555
C56 C55 1_555 1_555
C57 C56 1_555 1_555
H33 C57 1_555 1_555
C58 C57 1_555 1_555
H34 C58 1_555 1_555
C59 H35 1_555 1_555
C60 C56 1_555 1_555
H36 C60 1_555 1_555
C61 H37 1_555 1_555
C62 C61 1_555 1_555
H38 C62 1_555 1_555
C63 C62 1_555 1_555
C64 C63 1_555 1_555
H39 C64 1_555 1_555
C65 C64 1_555 1_555
H40 C65 1_555 1_555
C66 C63 1_555 1_555
H41 C66 1_555 1_555
H42 C66 1_555 1_555
C67 C66 1_555 1_555
H43 C67 1_555 1_555
H44 C67 1_555 1_555
C68 C67 1_555 1_555
C69 C68 1_555 1_555
H45 C69 1_555 1_555
C70 C69 1_555 1_555
H46 C70 1_555 1_555
C71 H47 1_555 1_555
C72 C68 1_555 1_555
H48 C72 1_555 1_555
N1 C58 1_555 1_555
N2 C49 1_555 1_555
N3 C61 1_555 1_555
N4 C70 1_555 1_555
O1 C13 1_555 1_555
O2 C13 1_555 1_555
O3 C1 1_555 1_555
O4 C1 1_555 1_555
O5 C24 1_555 1_555
O6 C24 1_555 1_555
O7 C25 1_555 1_555
O8 C25 1_555 1_555
O9 C37 1_555 1_555
O10 C37 1_555 1_555
O11 C36 1_555 1_555
O12 C36 1_555 1_555
O13 C48 1_555 1_555
O14 C48 1_555 1_555
O15 C12 1_555 1_555
O16 C12 1_555 1_555
Zn1 O1 1_555 1_555
Zn2 N2 1_555 1_555
Zn3 N3 1_555 1_555
Zn4 O10 1_555 1_555
C73 H49 1_555 1_555
H50 C73 1_555 1_555
C74 C73 1_555 1_555
H51 C74 1_555 1_555
H52 C74 1_555 1_555
C75 H53 1_555 1_555
H54 C75 1_555 1_555
H55 C75 1_555 1_555
O17 C74 1_555 1_555
O18 C73 1_555 1_555
H56 O18 1_555 1_555
C76 H57 1_555 1_555
C77 H58 1_555 1_555
H59 C77 1_555 1_555
H60 C77 1_555 1_555
C78 H61 1_555 1_555
H62 C78 1_555 1_555
H63 C78 1_555 1_555
N5 C76 1_555 1_555
O19 C76 1_555 1_555
C79 H64 1_555 1_555
H65 C79 1_555 1_555
H66 C79 1_555 1_555
O20 C79 1_555 1_555
H67 O20 1_555 1_555
N1_2 Zn1 1_555 1_555
N4_2 Zn4 1_555 1_555
O5_2 Zn2 1_555 1_555
O6_2 Zn1 1_555 1_555
O13_2 Zn3 1_555 1_555
O14_2 Zn4 1_555 1_555
O15C Zn3 1_555 1_555
O16C Zn4 1_555 1_555
Zn1_2 N1 1_555 1_555
Zn1_3 O6 1_555 1_555
Zn2_2 O5 1_555 1_555
Zn3_2 O13 1_555 1_555
Zn3C O15 1_555 1_555
Zn4_2 N4 1_555 1_555
Zn4_3 O14 1_555 1_555
Zn4C O16 1_555 1_555
C6 C11 1_555 1_555
C9 C10 1_555 1_555
C10 C11 1_555 1_555
C18 C23 1_555 1_555
C21 C22 1_555 1_555
C22 C23 1_555 1_555
C30 C35 1_555 1_555
C33 C34 1_555 1_555
C34 C35 1_555 1_555
C42 C47 1_555 1_555
C45 C46 1_555 1_555
C46 C47 1_555 1_555
C53 N2 1_555 1_555
C59 C60 1_555 1_555
C59 N1 1_555 1_555
C65 N3 1_555 1_555
C71 C72 1_555 1_555
C71 N4 1_555 1_555
O2 Zn2 1_555 1_555
O3 Zn1 1_555 1_555
O4 Zn2 1_555 1_555
O7 Zn1 1_555 1_555
O8 Zn2 1_555 1_555
O9 Zn3 1_555 1_555
O11 Zn3 1_555 1_555
O12 Zn4 1_555 1_555
C75 O17 1_555 1_555
C77 N5 1_555 1_555
C78 N5 1_555 1_555

#END
