
#######################################################################
#
#                 Cambridge Crystallographic Data Centre
#                                CCDC 
#
#######################################################################
#
# If this CIF has been generated from an entry in the Cambridge 
# Structural Database, then it will include bibliographic, chemical, 
# crystal, experimental, refinement or atomic coordinate data resulting 
# from the CCDC's data processing and validation procedures.
#
#######################################################################

data_OWUJIB
_chemical_formula_moiety         '(C38 H32 N4 O11 Zn2)n'
_symmetry_cell_setting           orthorhombic
_symmetry_space_group_name_H-M   'P b c a'
_symmetry_Int_Tables_number      61
_space_group_name_Hall           '-P 2ac 2ab'
loop_
_symmetry_equiv_pos_site_id
_symmetry_equiv_pos_as_xyz
1 x,y,z
2 1/2-x,-y,1/2+z
3 1/2+x,1/2-y,-z
4 -x,1/2+y,1/2-z
5 -x,-y,-z
6 1/2+x,y,1/2-z
7 1/2-x,1/2+y,z
8 x,1/2-y,1/2+z
_cell_length_a                   14.6111(7)
_cell_length_b                   15.9358(7)
_cell_length_c                   32.3130(15)
_cell_angle_alpha                90
_cell_angle_beta                 90
_cell_angle_gamma                90
_cell_volume                     7523.74
loop_
_atom_site_label
_atom_site_type_symbol
_atom_site_fract_x
_atom_site_fract_y
_atom_site_fract_z
C1 C -0.0582(3) 0.2363(3) 0.93410(14)
N1 N 0.0596(3) -0.5483(2) 0.87364(11)
C2 C -0.1297(3) 0.2388(3) 0.96740(14)
C3 C 0.1339(5) -0.5058(4) 0.8650(3)
H1 H 0.1887 -0.5361 0.8598
C4 C -0.1269(3) 0.3061(3) 0.99411(15)
H2 H -0.0814 0.3480 0.9903
C5 C -0.0118(5) -0.5031(4) 0.8826(3)
H3 H -0.0664 -0.5310 0.8907
C6 C -0.1887(3) 0.3145(3) 1.02642(14)
H4 H -0.1848 0.3620 1.0441
C7 C -0.2555(3) 0.2555(3) 1.03330(13)
C8 C -0.3358(4) 0.1256(3) 1.00975(16)
H5 H -0.3797 0.1322 1.0312
C9 C -0.3433(4) 0.0595(4) 0.98313(18)
H6 H -0.3910 0.0197 0.9866
C10 C -0.2804(4) 0.0503(4) 0.95053(19)
H7 H -0.2861 0.0042 0.9321
C11 C -0.2115(4) 0.1068(3) 0.94514(17)
H8 H -0.1702 0.0999 0.9227
C12 C -0.1999(3) 0.1761(3) 0.97249(14)
C13 C -0.2635(3) 0.1849(3) 1.00590(14)
C14 C -0.3162(3) 0.2662(3) 1.07019(13)
C15 C -0.0746(3) 0.2279(3) 0.82316(14)
C16 C -0.1489(3) 0.2278(3) 0.79117(13)
C17 C -0.1491(3) 0.2938(3) 0.76353(15)
H9 H -0.1064 0.3383 0.7667
C18 C -0.2117(3) 0.2955(3) 0.73101(15)
H10 H -0.2114 0.3416 0.7123
C19 C -0.2734(3) 0.2321(3) 0.72555(13)
C20 C -0.3480(4) 0.1036(3) 0.75293(17)
H11 H -0.3911 0.1045 0.7309
C21 C -0.3535(4) 0.0425(4) 0.78245(19)
H12 H -0.4002 0.0012 0.7808
C22 C -0.2905(4) 0.0401(4) 0.8152(2)
H13 H -0.2948 -0.0029 0.8355
C23 C -0.2236(4) 0.0990(3) 0.81822(16)
H14 H -0.1816 0.0970 0.8406
C24 C -0.2161(3) 0.1635(3) 0.78801(14)
C25 C -0.2790(3) 0.1657(3) 0.75480(14)
C26 C -0.3330(3) 0.2358(3) 0.68756(13)
C27 C 0.1166(6) -0.0289(4) 0.9001(3)
H15 H 0.1474 -0.0001 0.9218
C28 C 0.1242(7) -0.1157(5) 0.8976(3)
H16 H 0.1624 -0.1449 0.9165
C29 C 0.0782(6) -0.1584(3) 0.8688(3)
C30 C 0.0311(6) -0.1150(4) 0.8413(2)
H17 H -0.0006 -0.1432 0.8198
C31 C 0.0279(5) -0.0284(3) 0.8439(2)
H18 H -0.0049 0.0018 0.8234
N2 N 0.0685(3) 0.0138(2) 0.87370(12)
O1 O -0.0378(2) 0.1665(2) 0.91815(11)
O2 O -0.0208(2) 0.3045(2) 0.92510(10)
O3 O -0.3451(2) 0.33862(19) 1.07757(9)
O4 O -0.3320(2) 0.2020(2) 1.09180(10)
O5 O -0.0579(2) 0.2970(2) 0.84049(10)
O6 O -0.0328(2) 0.1601(2) 0.83030(10)
O7 O -0.3417(2) 0.1695(2) 0.66698(9)
O8 O -0.3693(2) 0.3057(2) 0.67898(9)
Zn1 Zn 0.06180(3) 0.14106(3) 0.876410(14)
Zn2 Zn 0.05626(3) 0.32493(3) 0.873638(14)
N3 N 0.1058(8) -0.2457(4) 0.8747(4)
N4 N 0.0374(9) -0.2863(4) 0.8674(5)
C32 C 0.0620(6) -0.3749(3) 0.8700(2)
C33 C 0.1368(6) -0.4188(4) 0.8632(3)
H19 H 0.1927 -0.3910 0.8571
C34 C -0.0120(7) -0.4169(4) 0.8810(3)
H20 H -0.0663 -0.3872 0.8878
N1_2 N 0.0596(3) 0.4517(2) 0.87364(11)
O3B O 0.1549(2) 0.16138(19) 0.92243(9)
O4B O 0.1680(2) 0.2980(2) 0.90820(10)
O7E O 0.1583(2) 0.1695(2) 0.83302(9)
O8E O 0.1307(2) 0.3057(2) 0.82102(9)
Zn1B Zn -0.43820(3) 0.35894(3) 1.123590(14)
Zn1E Zn -0.43820(3) 0.14106(3) 0.623590(14)
Zn2_2 Zn 0.05626(3) -0.67507(3) 0.873638(14)
Zn2B Zn -0.44374(3) 0.17507(3) 1.126362(14)
Zn2E Zn -0.44374(3) 0.32493(3) 0.626362(14)
C35 C -0.3885(8) 0.4774(7) 0.7476(4)
H21 H -0.3614 0.4693 0.7751
H22 H -0.4200 0.5317 0.7467
H23 H -0.3401 0.4763 0.7266
O9 O -0.4507(4) 0.4136(3) 0.73978(17)
H24 H -0.4675 0.4159 0.7149
C36 C -0.3439(10) 0.3252(9) 0.9220(4)
H25 H -0.3902 0.2799 0.9226
H26 H -0.3009 0.3163 0.9452
C37 C -0.2919(6) 0.3231(5) 0.8807(2)
H27 H -0.2729 0.2647 0.8747
H28 H -0.3330 0.3418 0.8582
C38 C -0.4310(10) 0.4243(9) 0.9686(4)
H29 H -0.4605 0.4794 0.9696
H30 H -0.3822 0.4218 0.9894
H31 H -0.4764 0.3805 0.9744
O10 O -0.2153(4) 0.3741(4) 0.88172(17)
H32 H -0.1798 0.3576 0.9005
O11 O -0.3907(7) 0.4105(6) 0.9264(3)
loop_
_geom_bond_atom_site_label_1
_geom_bond_atom_site_label_2
_geom_bond_site_symmetry_1
_geom_bond_site_symmetry_2
C1 C2 1_555 1_555
N1 C3 1_555 1_555
C2 C4 1_555 1_555
C3 H1 1_555 1_555
C4 H2 1_555 1_555
C5 N1 1_555 1_555
H3 C5 1_555 1_555
C6 C4 1_555 1_555
H4 C6 1_555 1_555
C7 C6 1_555 1_555
C8 H5 1_555 1_555
C9 C8 1_555 1_555
H6 C9 1_555 1_555
C10 C9 1_555 1_555
H7 C10 1_555 1_555
C11 C10 1_555 1_555
H8 C11 1_555 1_555
C12 C2 1_555 1_555
C13 C7 1_555 1_555
C14 C7 1_555 1_555
C15 C16 1_555 1_555
C16 C17 1_555 1_555
C17 H9 1_555 1_555
C18 C17 1_555 1_555
H10 C18 1_555 1_555
C19 C18 1_555 1_555
C20 H11 1_555 1_555
C21 C20 1_555 1_555
H12 C21 1_555 1_555
C22 C21 1_555 1_555
H13 C22 1_555 1_555
C23 C22 1_555 1_555
H14 C23 1_555 1_555
C24 C16 1_555 1_555
C25 C19 1_555 1_555
C26 C19 1_555 1_555
C27 H15 1_555 1_555
C28 C27 1_555 1_555
H16 C28 1_555 1_555
C29 C28 1_555 1_555
C30 C29 1_555 1_555
H17 C30 1_555 1_555
C31 C30 1_555 1_555
H18 C31 1_555 1_555
N2 C27 1_555 1_555
O1 C1 1_555 1_555
O2 C1 1_555 1_555
O3 C14 1_555 1_555
O4 C14 1_555 1_555
O5 C15 1_555 1_555
O6 C15 1_555 1_555
O7 C26 1_555 1_555
O8 C26 1_555 1_555
Zn1 N2 1_555 1_555
Zn2 O2 1_555 1_555
N3 C29 1_555 1_555
N4 N3 1_555 1_555
C32 N4 1_555 1_555
C33 C3 1_555 1_555
H19 C33 1_555 1_555
C34 C5 1_555 1_555
H20 C34 1_555 1_555
C35 H21 1_555 1_555
H22 C35 1_555 1_555
H23 C35 1_555 1_555
O9 C35 1_555 1_555
H24 O9 1_555 1_555
C36 H25 1_555 1_555
H26 C36 1_555 1_555
C37 C36 1_555 1_555
H27 C37 1_555 1_555
H28 C37 1_555 1_555
C38 H29 1_555 1_555
H30 C38 1_555 1_555
H31 C38 1_555 1_555
O10 C37 1_555 1_555
H32 O10 1_555 1_555
O11 C36 1_555 1_555
N1_2 Zn2 1_555 1_555
O3B Zn1 1_555 1_555
O4B Zn2 1_555 1_555
O7E Zn1 1_555 1_555
O8E Zn2 1_555 1_555
Zn1B O3 1_555 1_555
Zn1E O7 1_555 1_555
Zn2_2 N1 1_555 1_555
Zn2B O4 1_555 1_555
Zn2E O8 1_555 1_555
C8 C13 1_555 1_555
C11 C12 1_555 1_555
C12 C13 1_555 1_555
C20 C25 1_555 1_555
C23 C24 1_555 1_555
C24 C25 1_555 1_555
C31 N2 1_555 1_555
O1 Zn1 1_555 1_555
O5 Zn2 1_555 1_555
O6 Zn1 1_555 1_555
C32 C33 1_555 1_555
C32 C34 1_555 1_555
C38 O11 1_555 1_555

#END
