
#######################################################################
#
#                 Cambridge Crystallographic Data Centre
#                                CCDC 
#
#######################################################################
#
# If this CIF has been generated from an entry in the Cambridge 
# Structural Database, then it will include bibliographic, chemical, 
# crystal, experimental, refinement or atomic coordinate data resulting 
# from the CCDC's data processing and validation procedures.
#
#######################################################################

data_JORRAL
_chemical_formula_moiety         '(C83 H77 Cd2 N11 O15)n'
_symmetry_cell_setting           monoclinic
_symmetry_space_group_name_H-M   'P 21/c'
_symmetry_Int_Tables_number      14
_space_group_name_Hall           '-P 2ybc'
loop_
_symmetry_equiv_pos_site_id
_symmetry_equiv_pos_as_xyz
1 x,y,z
2 -x,1/2+y,1/2-z
3 -x,-y,-z
4 x,1/2-y,1/2+z
_cell_length_a                   10.4759(11)
_cell_length_b                   33.017(3)
_cell_length_c                   28.548(3)
_cell_angle_alpha                90
_cell_angle_beta                 97.2880(10)
_cell_angle_gamma                90
_cell_volume                     9794.49
loop_
_atom_site_label
_atom_site_type_symbol
_atom_site_fract_x
_atom_site_fract_y
_atom_site_fract_z
O1 O -0.1580(4) 0.30347(14) -0.25831(14)
O2 O 0.0157(5) 0.34083(14) -0.24488(14)
C1 C -0.0704(7) 0.3190(2) -0.2308(2)
C2 C -0.0664(7) 0.3125(2) -0.1789(2)
C3 C 0.0203(7) 0.3356(2) -0.1457(2)
C4 C 0.0182(7) 0.3321(2) -0.0970(2)
Cd1 Cd 0.09464(4) 0.412821(13) 0.196757(14)
Cd2 Cd 0.91729(4) 0.344891(13) 0.674903(15)
N1 N -0.0117(4) 0.46439(14) 0.22549(17)
N2 N -0.0949(5) 0.50422(16) 0.2752(2)
N3 N -0.7546(4) 0.53396(14) 0.30935(19)
N4 N -0.8441(4) 0.59389(14) 0.30566(16)
N5 N 1.0248(5) 0.29104(14) 0.65116(17)
N6 N 1.1408(4) 0.23531(14) 0.65674(18)
N7 N 1.8392(5) 0.19278(15) 0.67221(19)
N8 N 1.9614(4) 0.14187(14) 0.69801(17)
N9 N 0.4863(7) 0.4578(2) 0.1855(3)
N10 N 1.1775(16) 0.3747(4) 0.5881(6)
O3 O 0.2623(4) 0.37608(12) 0.23437(14)
O4 O 0.1614(5) 0.40008(14) 0.29159(15)
O5 O 0.8165(4) 0.36554(13) 0.59037(14)
O6 O 0.7333(4) 0.31888(12) 0.63103(14)
O7 O 0.2632(4) 0.39713(14) 0.37597(14)
H1 H 0.2059 0.3983 0.3536
O8 O 0.6823(4) 0.39354(12) 0.51648(14)
H2 H 0.7380 0.3924 0.5394
O9 O 0.0050(4) 0.43379(13) 0.12249(14)
O10 O 0.1462(4) 0.38630(13) 0.11475(14)
O11 O 0.1618(4) 0.35573(13) 0.03400(14)
H3 H 0.1702 0.3578 0.0628
O12 O 0.1028(5) 0.36105(16) -0.16228(15)
H4 H 0.0931 0.3602 -0.1912
O13 O 0.2780(4) 0.45809(13) 0.19250(15)
O14 O 1.1063(6) 0.37927(16) 0.6538(2)
C5 C 0.2578(6) 0.38400(18) 0.2763(2)
C6 C 0.7307(6) 0.33898(19) 0.5944(2)
C7 C 0.4841(6) 0.36247(19) 0.2973(2)
H5 H 0.4849 0.3568 0.2655
C8 C 0.3736(6) 0.37507(18) 0.3123(2)
C9 C 0.3708(6) 0.38289(18) 0.3611(2)
C10 C 0.4803(6) 0.37894(19) 0.3937(2)
C11 C 0.5947(6) 0.3659(2) 0.3771(2)
C12 C 0.5956(6) 0.3578(2) 0.3280(2)
C13 C 0.7138(7) 0.3456(2) 0.3115(3)
H6 H 0.7137 0.3376 0.2802
C14 C 0.8283(8) 0.3458(3) 0.3420(3)
H7 H 0.9063 0.3410 0.3306
C15 C 0.8247(8) 0.3533(3) 0.3893(3)
H8 H 0.9000 0.3509 0.4101
C16 C 0.7141(7) 0.3640(2) 0.4062(2)
H9 H 0.7170 0.3703 0.4381
C17 C 0.4735(6) 0.39118(18) 0.44440(19)
H10 H 0.3886 0.4023 0.4464
H11 H 0.5353 0.4128 0.4524
C18 C 0.5453(6) 0.3000(2) 0.5551(2)
H12 H 0.5635 0.2808 0.5789
C19 C 0.6243(6) 0.33330(18) 0.55470(19)
C20 C 0.6021(6) 0.36136(18) 0.51702(19)
C21 C 0.4994(6) 0.35739(18) 0.4823(2)
C22 C 0.4143(6) 0.3252(2) 0.4841(2)
C23 C 0.4401(6) 0.2942(2) 0.5215(2)
C24 C 0.3514(7) 0.2624(2) 0.5239(2)
H13 H 0.3673 0.2434 0.5479
C25 C 0.2439(8) 0.2585(3) 0.4925(3)
H14 H 0.1881 0.2368 0.4946
C26 C 0.2183(8) 0.2868(3) 0.4575(3)
H15 H 0.1439 0.2839 0.4362
C27 C 0.2986(7) 0.3196(2) 0.4523(2)
H16 H 0.2769 0.3381 0.4281
C28 C 0.0627(6) 0.4116(2) 0.0980(2)
C29 C -0.0517(6) 0.44386(19) 0.0264(2)
H17 H -0.0867 0.4618 0.0463
C30 C 0.0282(6) 0.41392(19) 0.0458(2)
C31 C 0.0824(6) 0.3850(2) 0.0147(2)
C32 C 0.0548(6) 0.3876(2) -0.0345(2)
C33 C -0.0277(6) 0.4201(2) -0.0538(2)
C34 C -0.0829(6) 0.44854(19) -0.0227(2)
C35 C -0.1656(7) 0.4813(2) -0.0415(2)
H18 H -0.2013 0.4993 -0.0216
C36 C -0.1900(7) 0.4851(2) -0.0909(2)
H19 H -0.2441 0.5056 -0.1041
C37 C -0.1347(7) 0.4589(2) -0.1203(2)
H20 H -0.1516 0.4625 -0.1528
C38 C -0.0568(7) 0.4281(2) -0.1034(2)
H21 H -0.0209 0.4116 -0.1247
C39 C 0.1125(6) 0.3585(2) -0.0648(2)
H22 H 0.1694 0.3408 -0.0447
H23 H 0.1650 0.3735 -0.0844
C40 C -0.1457(7) 0.2857(2) -0.1616(2)
H24 H -0.2013 0.2703 -0.1825
C41 C -0.1463(7) 0.2805(2) -0.1117(2)
C42 C -0.0646(7) 0.3043(2) -0.0807(2)
C43 C -0.0687(7) 0.2977(2) -0.0309(2)
H25 H -0.0149 0.3128 -0.0091
C44 C -0.1498(8) 0.2699(2) -0.0152(3)
H26 H -0.1506 0.2665 0.0171
C45 C -0.2291(8) 0.2473(3) -0.0459(3)
H27 H -0.2838 0.2283 -0.0350
C46 C -0.2275(8) 0.2529(2) -0.0945(3)
H28 H -0.2827 0.2377 -0.1157
C47 C -0.0272(6) 0.47170(19) 0.2698(2)
H29 H 0.0067 0.4553 0.2948
C48 C -0.1259(6) 0.5195(2) 0.2318(3)
H30 H -0.1743 0.5427 0.2240
C49 C -0.0742(6) 0.49506(19) 0.2016(2)
H31 H -0.0807 0.4988 0.1691
C50 C -0.1310(6) 0.5207(2) 0.3180(3)
H32 H -0.1098 0.5493 0.3195
H33 H -0.0811 0.5075 0.3447
C51 C -0.2699(6) 0.5158(2) 0.3222(3)
C52 C -0.3244(7) 0.4805(2) 0.3272(3)
H34 H -0.2709 0.4579 0.3305
C53 C -0.4558(7) 0.4740(2) 0.3280(3)
H35 H -0.4874 0.4478 0.3297
C54 C -0.5350(6) 0.50526(18) 0.3265(2)
C55 C -0.4791(7) 0.5414(2) 0.3203(3)
H36 H -0.5310 0.5643 0.3180
C56 C -0.3507(7) 0.5463(2) 0.3170(3)
H37 H -0.3201 0.5720 0.3109
C57 C -0.6767(6) 0.49932(19) 0.3292(3)
H38 H -0.7056 0.4749 0.3122
H39 H -0.6899 0.4957 0.3620
C58 C -0.7876(6) 0.56683(17) 0.3338(2)
H40 H -0.7718 0.5695 0.3664
C59 C -0.8460(6) 0.57691(19) 0.2605(2)
H41 H -0.8820 0.5893 0.2326
C60 C -0.7903(6) 0.54117(19) 0.2627(2)
H42 H -0.7780 0.5243 0.2376
C61 C 1.0952(5) 0.26588(18) 0.6801(2)
H43 H 1.1107 0.2692 0.7127
C62 C 1.0235(6) 0.27478(19) 0.6071(2)
H44 H 0.9804 0.2856 0.5794
C63 C 1.0945(6) 0.24056(19) 0.6099(2)
H45 H 1.1093 0.2238 0.5850
C64 C 1.2225(5) 0.20221(18) 0.6781(2)
H46 H 1.1887 0.1765 0.6655
H47 H 1.2197 0.2020 0.7120
C65 C 1.3594(6) 0.20648(18) 0.6688(2)
C66 C 1.4136(6) 0.1795(2) 0.6415(3)
H48 H 1.3644 0.1579 0.6285
C67 C 1.5371(6) 0.1829(2) 0.6325(3)
H49 H 1.5698 0.1638 0.6133
C68 C 1.6153(6) 0.21394(19) 0.6510(2)
C69 C 1.5622(7) 0.2409(2) 0.6795(3)
H50 H 1.6123 0.2621 0.6931
C70 C 1.4361(6) 0.2374(2) 0.6886(3)
H51 H 1.4029 0.2560 0.7083
C71 C 1.7510(6) 0.2181(2) 0.6417(2)
H52 H 1.7567 0.2110 0.6090
H53 H 1.7771 0.2462 0.6461
C72 C 1.8852(6) 0.15693(18) 0.6619(2)
H54 H 1.8663 0.1441 0.6329
C73 C 1.9637(6) 0.17004(19) 0.7319(2)
H55 H 2.0115 0.1679 0.7615
C74 C 1.8895(6) 0.20113(19) 0.7178(2)
H56 H 1.8744 0.2240 0.7352
C75 C 0.3743(8) 0.4395(3) 0.1856(3)
H57 H 0.3687 0.4117 0.1802
C76 C 0.5001(10) 0.5020(3) 0.1915(4)
H58 H 0.4171 0.5146 0.1851
H59 H 0.5557 0.5123 0.1700
H60 H 0.5365 0.5080 0.2233
C77 C 0.6046(10) 0.4355(4) 0.1800(5)
H61 H 0.5888 0.4069 0.1818
H62 H 0.6711 0.4431 0.2048
H63 H 0.6315 0.4418 0.1500
C78 C 1.0891(16) 0.3898(5) 0.6126(6)
H64 H 1.0219 0.4064 0.5999
C79 C 1.3143(17) 0.3756(5) 0.6065(7)
H65 H 1.3328 0.3997 0.6248
H66 H 1.3647 0.3752 0.5807
H67 H 1.3350 0.3523 0.6262
C80 C 1.148(2) 0.3687(6) 0.5365(7)
H68 H 1.0652 0.3797 0.5257
H69 H 1.1489 0.3403 0.5295
H70 H 1.2124 0.3821 0.5209
O1_2 O 0.8420(4) 0.30347(14) 0.74169(14)
O2_2 O 1.0157(5) 0.34083(14) 0.75512(14)
Cd1C Cd 2.09464(4) 0.087179(13) 0.696757(14)
Cd2_2 Cd -0.08271(4) 0.344891(13) -0.325097(15)
Cd2B Cd -0.91729(4) 0.655109(13) 0.325097(15)
N4B N 0.8441(4) 0.40611(14) 0.69434(16)
N8C N -0.0386(4) 0.35813(14) 0.19801(17)
N12 N 0.3292(11) 0.2374(4) 0.3422(4)
O15 O 0.1893(11) 0.2665(4) 0.2936(4)
C84 C 0.2064(17) 0.2461(5) 0.3298(6)
H78 H 0.1405 0.2377 0.3465
C85 C 0.4316(17) 0.2507(6) 0.3160(6)
H79 H 0.4071 0.2460 0.2830
H80 H 0.5088 0.2359 0.3265
H81 H 0.4466 0.2791 0.3213
C86 C 0.3678(14) 0.2126(5) 0.3845(5)
H82 H 0.4201 0.2285 0.4077
H83 H 0.4160 0.1895 0.3761
H84 H 0.2924 0.2035 0.3974
loop_
_geom_bond_atom_site_label_1
_geom_bond_atom_site_label_2
_geom_bond_site_symmetry_1
_geom_bond_site_symmetry_2
O1 C1 1_555 1_555
O2 C1 1_555 1_555
C1 C2 1_555 1_555
C2 C3 1_555 1_555
C3 C4 1_555 1_555
C4 C39 1_555 1_555
Cd1 N1 1_555 1_555
Cd2 N5 1_555 1_555
N1 C47 1_555 1_555
N2 C47 1_555 1_555
N3 C57 1_555 1_555
N4 C58 1_555 1_555
N5 C61 1_555 1_555
N6 C61 1_555 1_555
N7 C71 1_555 1_555
N8 C72 1_555 1_555
N9 C75 1_555 1_555
N10 C78 1_555 1_555
O3 Cd1 1_555 1_555
O4 Cd1 1_555 1_555
O5 Cd2 1_555 1_555
O6 Cd2 1_555 1_555
O7 H1 1_555 1_555
O8 H2 1_555 1_555
O9 Cd1 1_555 1_555
O10 Cd1 1_555 1_555
O11 H3 1_555 1_555
O12 C3 1_555 1_555
H4 O12 1_555 1_555
O13 Cd1 1_555 1_555
O14 Cd2 1_555 1_555
C5 O3 1_555 1_555
C6 O5 1_555 1_555
C7 H5 1_555 1_555
C8 C5 1_555 1_555
C9 O7 1_555 1_555
C10 C9 1_555 1_555
C11 C10 1_555 1_555
C12 C7 1_555 1_555
C13 C12 1_555 1_555
H6 C13 1_555 1_555
C14 C13 1_555 1_555
H7 C14 1_555 1_555
C15 C14 1_555 1_555
H8 C15 1_555 1_555
C16 C11 1_555 1_555
H9 C16 1_555 1_555
C17 C10 1_555 1_555
H10 C17 1_555 1_555
H11 C17 1_555 1_555
C18 H12 1_555 1_555
C19 C6 1_555 1_555
C20 O8 1_555 1_555
C21 C17 1_555 1_555
C22 C21 1_555 1_555
C23 C18 1_555 1_555
C24 C23 1_555 1_555
H13 C24 1_555 1_555
C25 C24 1_555 1_555
H14 C25 1_555 1_555
C26 C25 1_555 1_555
H15 C26 1_555 1_555
C27 C22 1_555 1_555
H16 C27 1_555 1_555
C28 O9 1_555 1_555
C29 H17 1_555 1_555
C30 C28 1_555 1_555
C31 O11 1_555 1_555
C32 C31 1_555 1_555
C33 C32 1_555 1_555
C34 C29 1_555 1_555
C35 C34 1_555 1_555
H18 C35 1_555 1_555
C36 C35 1_555 1_555
H19 C36 1_555 1_555
C37 C36 1_555 1_555
H20 C37 1_555 1_555
C38 C33 1_555 1_555
H21 C38 1_555 1_555
C39 C32 1_555 1_555
H22 C39 1_555 1_555
H23 C39 1_555 1_555
C40 C2 1_555 1_555
H24 C40 1_555 1_555
C41 C40 1_555 1_555
C42 C4 1_555 1_555
C43 C42 1_555 1_555
H25 C43 1_555 1_555
C44 C43 1_555 1_555
H26 C44 1_555 1_555
C45 C44 1_555 1_555
H27 C45 1_555 1_555
C46 C41 1_555 1_555
H28 C46 1_555 1_555
C47 H29 1_555 1_555
C48 N2 1_555 1_555
H30 C48 1_555 1_555
C49 N1 1_555 1_555
H31 C49 1_555 1_555
C50 N2 1_555 1_555
H32 C50 1_555 1_555
H33 C50 1_555 1_555
C51 C50 1_555 1_555
C52 C51 1_555 1_555
H34 C52 1_555 1_555
C53 C52 1_555 1_555
H35 C53 1_555 1_555
C54 C53 1_555 1_555
C55 C54 1_555 1_555
H36 C55 1_555 1_555
C56 C51 1_555 1_555
H37 C56 1_555 1_555
C57 C54 1_555 1_555
H38 C57 1_555 1_555
H39 C57 1_555 1_555
C58 N3 1_555 1_555
H40 C58 1_555 1_555
C59 N4 1_555 1_555
H41 C59 1_555 1_555
C60 N3 1_555 1_555
H42 C60 1_555 1_555
C61 H43 1_555 1_555
C62 N5 1_555 1_555
H44 C62 1_555 1_555
C63 N6 1_555 1_555
H45 C63 1_555 1_555
C64 N6 1_555 1_555
H46 C64 1_555 1_555
H47 C64 1_555 1_555
C65 C64 1_555 1_555
C66 C65 1_555 1_555
H48 C66 1_555 1_555
C67 C66 1_555 1_555
H49 C67 1_555 1_555
C68 C67 1_555 1_555
C69 C68 1_555 1_555
H50 C69 1_555 1_555
C70 C65 1_555 1_555
H51 C70 1_555 1_555
C71 C68 1_555 1_555
H52 C71 1_555 1_555
H53 C71 1_555 1_555
C72 N7 1_555 1_555
H54 C72 1_555 1_555
C73 N8 1_555 1_555
H55 C73 1_555 1_555
C74 N7 1_555 1_555
H56 C74 1_555 1_555
C75 O13 1_555 1_555
H57 C75 1_555 1_555
C76 N9 1_555 1_555
H58 C76 1_555 1_555
H59 C76 1_555 1_555
H60 C76 1_555 1_555
C77 N9 1_555 1_555
H61 C77 1_555 1_555
H62 C77 1_555 1_555
H63 C77 1_555 1_555
C78 O14 1_555 1_555
H64 C78 1_555 1_555
C79 N10 1_555 1_555
H65 C79 1_555 1_555
H66 C79 1_555 1_555
H67 C79 1_555 1_555
C80 N10 1_555 1_555
H68 C80 1_555 1_555
H69 C80 1_555 1_555
H70 C80 1_555 1_555
N12 C84 1_555 1_555
O15 C84 1_555 1_555
C84 H78 1_555 1_555
C85 N12 1_555 1_555
H79 C85 1_555 1_555
H80 C85 1_555 1_555
H81 C85 1_555 1_555
C86 N12 1_555 1_555
H82 C86 1_555 1_555
H83 C86 1_555 1_555
H84 C86 1_555 1_555
O1_2 Cd2 1_555 1_555
O2_2 Cd2 1_555 1_555
Cd1C N8 1_555 1_555
Cd2_2 O1 1_555 1_555
Cd2B N4 1_555 1_555
N4B Cd2 1_555 1_555
N8C Cd1 1_555 1_555
O2 Cd2_2 1_555 1_555
O4 C5 1_555 1_555
O6 C6 1_555 1_555
O10 C28 1_555 1_555
C7 C8 1_555 1_555
C8 C9 1_555 1_555
C11 C12 1_555 1_555
C15 C16 1_555 1_555
C18 C19 1_555 1_555
C19 C20 1_555 1_555
C20 C21 1_555 1_555
C22 C23 1_555 1_555
C26 C27 1_555 1_555
C29 C30 1_555 1_555
C30 C31 1_555 1_555
C33 C34 1_555 1_555
C37 C38 1_555 1_555
C41 C42 1_555 1_555
C45 C46 1_555 1_555
C48 C49 1_555 1_555
C55 C56 1_555 1_555
C59 C60 1_555 1_555
C62 C63 1_555 1_555
C69 C70 1_555 1_555
C73 C74 1_555 1_555

#END
