
#######################################################################
#
#                 Cambridge Crystallographic Data Centre
#                                CCDC 
#
#######################################################################
#
# If this CIF has been generated from an entry in the Cambridge 
# Structural Database, then it will include bibliographic, chemical, 
# crystal, experimental, refinement or atomic coordinate data resulting 
# from the CCDC's data processing and validation procedures.
#
#######################################################################

data_ATEYUV
_chemical_formula_moiety         '(C80 H58 Ho3 O23 1+)n'
_symmetry_cell_setting           orthorhombic
_symmetry_space_group_name_H-M   'C c c a'
_symmetry_Int_Tables_number      68
_space_group_name_Hall           '-C 2a 2ac'
loop_
_symmetry_equiv_pos_site_id
_symmetry_equiv_pos_as_xyz
1 x,y,z
2 1/2-x,-y,z
3 -x,y,1/2-z
4 1/2+x,-y,1/2-z
5 1/2+x,1/2+y,z
6 -x,1/2-y,z
7 1/2-x,1/2+y,1/2-z
8 x,1/2-y,1/2-z
9 -x,-y,-z
10 1/2+x,y,-z
11 x,-y,1/2+z
12 1/2-x,y,1/2+z
13 1/2-x,1/2-y,-z
14 x,1/2+y,-z
15 1/2+x,1/2-y,1/2+z
16 -x,1/2+y,1/2+z
_cell_length_a                   16.3257(5)
_cell_length_b                   59.1677(13)
_cell_length_c                   32.1508(7)
_cell_angle_alpha                90
_cell_angle_beta                 90
_cell_angle_gamma                90
_cell_volume                     31056.2
loop_
_atom_site_label
_atom_site_type_symbol
_atom_site_fract_x
_atom_site_fract_y
_atom_site_fract_z
_atom_site_U_iso_or_equiv
_atom_site_thermal_displace_type
Ho1 Ho 0.0000 0.099868(3) 0.7500 0.0675 Uani
Ho2 Ho -0.238625(11) 0.134265(3) 0.729486(4) 0.0788 Uani
O1 O 0.00813(18) 0.13063(4) 0.70539(7) 0.1007 Uani
O2 O -0.1115(2) 0.14640(5) 0.71318(9) 0.1203 Uani
O3 O 0.1983(3) 0.13789(5) 0.33620(10) 0.1703 Uani
O4 O 0.22657(19) 0.16994(4) 0.30754(7) 0.1081 Uani
O5 O 0.1199(2) 0.09533(6) 0.71876(8) 0.1343 Uani
O6 O 0.2272(3) 0.11614(9) 0.70764(13) 0.2327 Uani
O7 O 0.3137(2) 0.10509(6) 0.30768(9) 0.1573 Uani
O8 O 0.43109(19) 0.08760(5) 0.30751(7) 0.1074 Uani
O9 O 0.0000 0.05797(7) 0.7500 0.1863 Uani
H1 H 0.0419 0.0530 0.7388 0.2240 Uiso
O10 O -0.1941(3) 0.16608(8) 0.77661(9) 0.2363 Uani
H2 H -0.1452 0.1690 0.7750 0.2840 Uiso
H3 H -0.2059 0.1623 0.8012 0.2840 Uiso
O11 O -0.3530(2) 0.14918(9) 0.76640(11) 0.2083 Uani
H4 H -0.3928 0.1413 0.7589 0.2500 Uiso
H5 H -0.3607 0.1634 0.7612 0.2500 Uiso
O12 O -0.3384(4) 0.10475(9) 0.72789(19) 0.3177 Uani
H6 H -0.3327 0.0967 0.7061 0.3820 Uiso
H7 H -0.3847 0.1103 0.7288 0.3820 Uiso
C1 C 0.0098(2) 0.23760(5) 0.51569(7) 0.0631 Uani
C2 C -0.00228(19) 0.22439(5) 0.55114(8) 0.0668 Uani
H8 H -0.0238 0.2312 0.5748 0.0800 Uiso
C3 C 0.0171(2) 0.20097(5) 0.55231(8) 0.0715 Uani
C4 C 0.0516(2) 0.19124(5) 0.51742(8) 0.0748 Uani
H9 H 0.0663 0.1761 0.5179 0.0900 Uiso
C5 C 0.0648(2) 0.20401(5) 0.48123(8) 0.0700 Uani
C6 C 0.0429(2) 0.22737(5) 0.48114(8) 0.0639 Uani
H10 H 0.0513 0.2359 0.4572 0.0770 Uiso
C7 C 0.0025(2) 0.18716(5) 0.58932(9) 0.0704 Uani
C8 C -0.0671(3) 0.18973(6) 0.61245(10) 0.0943 Uani
H11 H -0.1045 0.2009 0.6052 0.1130 Uiso
C9 C -0.0834(2) 0.17610(6) 0.64636(10) 0.0910 Uani
H12 H -0.1317 0.1779 0.6613 0.1090 Uiso
C10 C -0.0273(2) 0.15965(5) 0.65808(10) 0.0783 Uani
C11 C 0.0419(2) 0.15701(6) 0.63621(10) 0.0857 Uani
H13 H 0.0798 0.1460 0.6439 0.1030 Uiso
C12 C 0.0568(2) 0.17062(6) 0.60226(10) 0.0893 Uani
H14 H 0.1052 0.1686 0.5875 0.1070 Uiso
C13 C -0.0440(3) 0.14429(7) 0.69531(11) 0.0893 Uani
C14 C 0.0995(2) 0.19273(5) 0.44393(9) 0.0743 Uani
C15 C 0.0964(4) 0.16985(7) 0.43857(13) 0.1910 Uani
H15 H 0.0717 0.1611 0.4590 0.2290 Uiso
C16 C 0.1288(4) 0.15907(7) 0.40374(15) 0.1783 Uani
H16 H 0.1246 0.1435 0.4011 0.2140 Uiso
C17 C 0.1655(2) 0.17108(6) 0.37441(10) 0.0830 Uani
C18 C 0.1684(3) 0.19325(7) 0.37873(12) 0.1360 Uani
H17 H 0.1939 0.2018 0.3582 0.1630 Uiso
C19 C 0.1343(3) 0.20434(7) 0.41324(11) 0.1427 Uani
H18 H 0.1361 0.2200 0.4147 0.1710 Uiso
C20 C 0.2002(3) 0.15947(7) 0.33677(12) 0.0923 Uani
C21 C 0.2530(2) 0.01299(6) 0.51398(8) 0.0848 Uani
C22 C 0.2337(2) 0.02572(6) 0.54871(8) 0.0920 Uani
H19 H 0.2171 0.0184 0.5729 0.1100 Uiso
C23 C 0.2385(2) 0.04971(6) 0.54857(9) 0.0899 Uani
C24 C 0.2614(2) 0.06070(6) 0.51216(9) 0.0966 Uani
H20 H 0.2652 0.0764 0.5115 0.1160 Uiso
C25 C 0.2783(3) 0.04823(6) 0.47700(8) 0.0898 Uani
C26 C 0.2754(3) 0.02479(6) 0.47830(8) 0.0904 Uani
H21 H 0.2890 0.0167 0.4545 0.1080 Uiso
C27 C 0.2207(3) 0.06290(6) 0.58635(9) 0.0995 Uani
C28 C 0.2676(3) 0.08180(8) 0.59707(12) 0.1380 Uani
H22 H 0.3098 0.0862 0.5794 0.1660 Uiso
C29 C 0.2540(3) 0.09400(8) 0.63247(13) 0.1487 Uani
H23 H 0.2866 0.1064 0.6386 0.1780 Uiso
C30 C 0.1924(3) 0.08784(8) 0.65869(10) 0.1118 Uani
C31 C 0.1425(3) 0.06989(7) 0.64784(10) 0.1081 Uani
H24 H 0.0975 0.0664 0.6644 0.1300 Uiso
C32 C 0.1584(3) 0.05711(6) 0.61269(9) 0.1070 Uani
H25 H 0.1265 0.0445 0.6069 0.1280 Uiso
C33 C 0.1805(4) 0.10151(10) 0.69859(12) 0.1268 Uani
C34 C 0.3030(3) 0.06024(6) 0.43788(9) 0.0892 Uani
C35 C 0.3667(3) 0.05203(6) 0.41405(9) 0.0986 Uani
H26 H 0.3956 0.0393 0.4228 0.1180 Uiso
C36 C 0.3874(3) 0.06235(6) 0.37798(9) 0.0997 Uani
H27 H 0.4308 0.0568 0.3623 0.1200 Uiso
C37 C 0.3444(2) 0.08122(6) 0.36406(9) 0.0860 Uani
C38 C 0.2811(3) 0.08973(6) 0.38759(11) 0.0990 Uani
H28 H 0.2516 0.1023 0.3785 0.1180 Uiso
C39 C 0.2620(3) 0.07940(6) 0.42484(10) 0.0986 Uani
H29 H 0.2208 0.0854 0.4414 0.1180 Uiso
C40 C 0.3653(4) 0.09257(7) 0.32311(11) 0.1037 Uani
O1E O -0.00813(18) 0.36937(4) 0.70539(7) 0.1007 Uani
O2E O 0.1115(2) 0.35360(5) 0.71318(9) 0.1203 Uani
O3E O -0.1983(3) 0.36211(5) 0.33620(10) 0.1703 Uani
O4E O -0.22657(19) 0.33006(4) 0.30754(7) 0.1081 Uani
C1E C -0.0098(2) 0.26240(5) 0.51569(7) 0.0631 Uani
C2E C 0.00228(19) 0.27561(5) 0.55114(8) 0.0668 Uani
H8E H 0.0238 0.2688 0.5748 0.0800 Uiso
C3E C -0.0171(2) 0.29903(5) 0.55231(8) 0.0715 Uani
C4E C -0.0516(2) 0.30876(5) 0.51742(8) 0.0748 Uani
H9E H -0.0663 0.3239 0.5179 0.0900 Uiso
C5E C -0.0648(2) 0.29599(5) 0.48123(8) 0.0700 Uani
C6E C -0.0429(2) 0.27263(5) 0.48114(8) 0.0639 Uani
H10E H -0.0513 0.2641 0.4572 0.0770 Uiso
C7E C -0.0025(2) 0.31284(5) 0.58932(9) 0.0704 Uani
C8E C 0.0671(3) 0.31027(6) 0.61245(10) 0.0943 Uani
H11E H 0.1045 0.2991 0.6052 0.1130 Uiso
C9E C 0.0834(2) 0.32390(6) 0.64636(10) 0.0910 Uani
H12E H 0.1317 0.3221 0.6613 0.1090 Uiso
C10E C 0.0273(2) 0.34035(5) 0.65808(10) 0.0783 Uani
C11E C -0.0419(2) 0.34299(6) 0.63621(10) 0.0857 Uani
H13E H -0.0798 0.3540 0.6439 0.1030 Uiso
C12E C -0.0568(2) 0.32938(6) 0.60226(10) 0.0893 Uani
H14E H -0.1052 0.3314 0.5875 0.1070 Uiso
C13E C 0.0440(3) 0.35571(7) 0.69531(11) 0.0893 Uani
C14E C -0.0995(2) 0.30727(5) 0.44393(9) 0.0743 Uani
C15E C -0.0964(4) 0.33015(7) 0.43857(13) 0.1910 Uani
H15E H -0.0717 0.3389 0.4590 0.2290 Uiso
C16E C -0.1288(4) 0.34093(7) 0.40374(15) 0.1783 Uani
H16E H -0.1246 0.3565 0.4011 0.2140 Uiso
C17E C -0.1655(2) 0.32892(6) 0.37441(10) 0.0830 Uani
C18E C -0.1684(3) 0.30675(7) 0.37873(12) 0.1360 Uani
H17E H -0.1939 0.2982 0.3582 0.1630 Uiso
C19E C -0.1343(3) 0.29566(7) 0.41324(11) 0.1427 Uani
H18E H -0.1361 0.2800 0.4147 0.1710 Uiso
C20E C -0.2002(3) 0.34053(7) 0.33677(12) 0.0923 Uani
O5A O 0.3801(2) -0.09533(6) 0.71876(8) 0.1343 Uani
O6A O 0.2728(3) -0.11614(9) 0.70764(13) 0.2327 Uani
O7A O 0.1863(2) -0.10509(6) 0.30768(9) 0.1573 Uani
O8A O 0.06891(19) -0.08760(5) 0.30751(7) 0.1074 Uani
C21A C 0.2470(2) -0.01299(6) 0.51398(8) 0.0848 Uani
C22A C 0.2663(2) -0.02572(6) 0.54871(8) 0.0920 Uani
H19A H 0.2829 -0.0184 0.5729 0.1100 Uiso
C23A C 0.2615(2) -0.04971(6) 0.54857(9) 0.0899 Uani
C24A C 0.2386(2) -0.06070(6) 0.51216(9) 0.0966 Uani
H20A H 0.2348 -0.0764 0.5115 0.1160 Uiso
C25A C 0.2217(3) -0.04823(6) 0.47700(8) 0.0898 Uani
C26A C 0.2246(3) -0.02479(6) 0.47830(8) 0.0904 Uani
H21A H 0.2110 -0.0167 0.4545 0.1080 Uiso
C27A C 0.2793(3) -0.06290(6) 0.58635(9) 0.0995 Uani
C28A C 0.2324(3) -0.08180(8) 0.59707(12) 0.1380 Uani
H22A H 0.1902 -0.0862 0.5794 0.1660 Uiso
C29A C 0.2460(3) -0.09400(8) 0.63247(13) 0.1487 Uani
H23A H 0.2134 -0.1064 0.6386 0.1780 Uiso
C30A C 0.3076(3) -0.08784(8) 0.65869(10) 0.1118 Uani
C31A C 0.3575(3) -0.06989(7) 0.64784(10) 0.1081 Uani
H24A H 0.4025 -0.0664 0.6644 0.1300 Uiso
C32A C 0.3416(3) -0.05711(6) 0.61269(9) 0.1070 Uani
H25A H 0.3735 -0.0445 0.6069 0.1280 Uiso
C33A C 0.3195(4) -0.10151(10) 0.69859(12) 0.1268 Uani
C34A C 0.1970(3) -0.06024(6) 0.43788(9) 0.0892 Uani
C35A C 0.1333(3) -0.05203(6) 0.41405(9) 0.0986 Uani
H26A H 0.1044 -0.0393 0.4228 0.1180 Uiso
C36A C 0.1126(3) -0.06235(6) 0.37798(9) 0.0997 Uani
H27A H 0.0692 -0.0568 0.3623 0.1200 Uiso
C37A C 0.1556(2) -0.08122(6) 0.36406(9) 0.0860 Uani
C38A C 0.2189(3) -0.08973(6) 0.38759(11) 0.0990 Uani
H28A H 0.2484 -0.1023 0.3785 0.1180 Uiso
C39A C 0.2380(3) -0.07940(6) 0.42484(10) 0.0986 Uani
H29A H 0.2792 -0.0854 0.4414 0.1180 Uiso
C40A C 0.1347(4) -0.09257(7) 0.32311(11) 0.1037 Uani
H1B H -0.0419 0.0530 0.7612 0.2240 Uiso
Ho2I Ho 0.261375(11) 0.134265(3) 0.270514(4) 0.0788 Uani
O10I O 0.3059(3) 0.16608(8) 0.22339(9) 0.2363 Uani
H2I H 0.3548 0.1690 0.2250 0.2840 Uiso
H3I H 0.2941 0.1623 0.1988 0.2840 Uiso
O11I O 0.1470(2) 0.14918(9) 0.23360(11) 0.2083 Uani
H4I H 0.1072 0.1413 0.2411 0.2500 Uiso
H5I H 0.1393 0.1634 0.2388 0.2500 Uiso
O12I O 0.1616(4) 0.10475(9) 0.27211(19) 0.3177 Uani
H6I H 0.1673 0.0967 0.2939 0.3820 Uiso
H7I H 0.1153 0.1103 0.2712 0.3820 Uiso
Ho1A Ho 0.5000 -0.099868(3) 0.7500 0.0675 Uani
Ho1E Ho 0.0000 0.400132(3) 0.7500 0.0675 Uani
Ho1H Ho 0.0000 -0.099868(3) 0.2500 0.0675 Uani
Ho1I Ho 0.5000 0.099868(3) 0.2500 0.0675 Uani
Ho2B Ho 0.238625(11) 0.134265(3) 0.770514(4) 0.0788 Uani
Ho2C Ho 0.261375(11) -0.134265(3) 0.770514(4) 0.0788 Uani
Ho2E Ho 0.238625(11) 0.365735(3) 0.729486(4) 0.0788 Uani
Ho2H Ho 0.238625(11) -0.134265(3) 0.270514(4) 0.0788 Uani
Ho2L Ho -0.261375(11) 0.365735(3) 0.270514(4) 0.0788 Uani
O1B O -0.00813(18) 0.13063(4) 0.79461(7) 0.1007 Uani
O2I O 0.3885(2) 0.14640(5) 0.28682(9) 0.1203 Uani
O3I O -0.3017(3) 0.13789(5) 0.66380(10) 0.1703 Uani
O4I O -0.27343(19) 0.16994(4) 0.69246(7) 0.1081 Uani
O5B O -0.1199(2) 0.09533(6) 0.78124(8) 0.1343 Uani
O6B O -0.2272(3) 0.11614(9) 0.79236(13) 0.2327 Uani
O6K O 0.2728(3) 0.11614(9) 0.20764(13) 0.2327 Uani
O7I O -0.1863(2) 0.10509(6) 0.69232(9) 0.1573 Uani
O8I O -0.06891(19) 0.08760(5) 0.69249(7) 0.1074 Uani
O8K O 0.06891(19) 0.08760(5) 0.80751(7) 0.1074 Uani
loop_
_atom_site_aniso_label
_atom_site_aniso_U_11
_atom_site_aniso_U_22
_atom_site_aniso_U_33
_atom_site_aniso_U_23
_atom_site_aniso_U_13
_atom_site_aniso_U_12
Ho1 0.1227(2) 0.05167(11) 0.02806(8) 0.000 -0.01745(10) 0.000
Ho2 0.11029(16) 0.08064(12) 0.04544(8) 0.01960(7) 0.00275(8) 0.01911(9)
O1 0.140(2) 0.0928(18) 0.0692(15) 0.0379(13) 0.0061(16) 0.0285(16)
O2 0.123(2) 0.133(2) 0.105(2) 0.0644(18) 0.0365(19) 0.0007(19)
O3 0.279(5) 0.096(2) 0.136(3) -0.0188(19) 0.115(3) 0.034(2)
O4 0.172(3) 0.0939(19) 0.0585(14) -0.0008(13) 0.0310(16) 0.0252(17)
O5 0.163(3) 0.192(3) 0.0480(14) -0.0092(17) -0.0058(18) 0.107(3)
O6 0.292(6) 0.278(6) 0.128(3) -0.152(4) 0.035(3) -0.096(5)
O7 0.220(4) 0.173(3) 0.0789(19) 0.074(2) 0.053(2) 0.085(3)
O8 0.145(3) 0.125(2) 0.0523(13) 0.0306(14) 0.0384(16) 0.0112(19)
O9 0.338(8) 0.090(3) 0.131(4) 0.000 -0.094(4) 0.000
O10 0.277(5) 0.363(7) 0.069(2) -0.054(3) 0.003(3) -0.013(5)
O11 0.146(3) 0.324(6) 0.155(3) 0.061(4) 0.037(3) 0.065(4)
O12 0.319(7) 0.301(7) 0.333(8) 0.048(5) 0.106(6) -0.158(6)
C1 0.103(3) 0.0510(16) 0.0353(13) -0.0018(11) -0.0025(15) 0.0151(18)
C2 0.105(3) 0.0559(18) 0.0395(13) 0.0041(12) 0.0101(16) 0.0119(18)
C3 0.111(3) 0.0597(19) 0.0439(14) 0.0048(13) 0.0122(17) 0.0182(18)
C4 0.119(3) 0.0529(19) 0.0526(18) 0.0061(13) 0.0152(18) 0.0183(18)
C5 0.102(3) 0.066(2) 0.0420(15) -0.0004(13) 0.0094(16) 0.0069(19)
C6 0.096(2) 0.0559(19) 0.0397(14) 0.0011(12) 0.0074(15) 0.0066(17)
C7 0.107(3) 0.0529(17) 0.0514(16) 0.0131(13) 0.0168(19) 0.0190(19)
C8 0.127(3) 0.079(2) 0.077(2) 0.0305(19) 0.020(2) 0.033(2)
C9 0.112(3) 0.084(3) 0.077(2) 0.028(2) 0.025(2) 0.018(2)
C10 0.104(3) 0.065(2) 0.066(2) 0.0208(16) 0.003(2) 0.0073(19)
C11 0.109(3) 0.081(2) 0.067(2) 0.0303(18) 0.015(2) 0.024(2)
C12 0.117(3) 0.085(3) 0.066(2) 0.0094(19) 0.016(2) 0.029(2)
C13 0.126(4) 0.079(3) 0.063(2) 0.0240(19) 0.005(2) 0.003(3)
C14 0.120(3) 0.055(2) 0.0479(16) -0.0040(14) 0.0136(18) 0.0211(19)
C15 0.382(9) 0.088(3) 0.103(3) 0.015(3) 0.122(5) 0.055(4)
C16 0.334(8) 0.076(3) 0.125(4) -0.005(3) 0.113(5) 0.049(4)
C17 0.117(3) 0.077(2) 0.0551(19) -0.0030(17) 0.0166(19) 0.019(2)
C18 0.244(6) 0.087(3) 0.077(3) 0.002(2) 0.070(3) 0.032(3)
C19 0.281(6) 0.076(3) 0.071(2) -0.001(2) 0.072(3) 0.027(3)
C20 0.118(3) 0.079(3) 0.080(3) -0.033(2) 0.005(2) 0.028(2)
C21 0.151(3) 0.077(2) 0.0263(12) -0.0023(13) 0.0028(17) -0.034(2)
C22 0.163(4) 0.089(3) 0.0240(12) -0.0039(14) 0.0108(17) -0.047(2)
C23 0.151(4) 0.084(2) 0.0347(14) -0.0115(15) 0.0204(18) -0.042(2)
C24 0.174(4) 0.073(2) 0.0427(16) -0.0080(15) 0.038(2) -0.034(2)
C25 0.161(4) 0.073(2) 0.0353(15) 0.0030(14) 0.0286(19) -0.018(2)
C26 0.174(4) 0.069(2) 0.0283(13) -0.0051(13) 0.0166(18) -0.024(2)
C27 0.170(4) 0.092(3) 0.0365(15) -0.0179(16) 0.029(2) -0.050(3)
C28 0.200(5) 0.140(4) 0.074(3) -0.053(3) 0.058(3) -0.095(4)
C29 0.211(5) 0.156(4) 0.079(3) -0.059(3) 0.053(3) -0.096(4)
C30 0.161(4) 0.130(4) 0.0445(19) -0.028(2) 0.007(2) -0.020(3)
C31 0.141(4) 0.143(4) 0.0403(17) -0.008(2) 0.023(2) -0.026(3)
C32 0.161(4) 0.112(3) 0.0479(18) -0.0146(19) 0.025(2) -0.052(3)
C33 0.161(5) 0.184(5) 0.0353(19) -0.016(3) 0.000(3) 0.037(4)
C34 0.161(4) 0.067(2) 0.0395(15) 0.0029(15) 0.031(2) -0.011(2)
C35 0.158(4) 0.086(3) 0.0517(18) 0.0195(17) 0.035(2) 0.026(2)
C36 0.139(3) 0.105(3) 0.0551(19) 0.0233(19) 0.041(2) 0.030(3)
C37 0.128(3) 0.089(3) 0.0410(16) 0.0163(16) 0.0218(19) -0.003(2)
C38 0.145(4) 0.089(3) 0.063(2) 0.0173(19) 0.035(2) 0.013(2)
C39 0.150(4) 0.089(3) 0.0568(19) 0.0167(19) 0.045(2) 0.010(2)
C40 0.166(5) 0.096(3) 0.049(2) 0.017(2) 0.032(3) 0.000(3)
O1E 0.14 0.0928 0.0692 -0.0379 -0.0061 0.0285
O2E 0.123 0.133 0.105 -0.0644 -0.0365 0.0007
O3E 0.279 0.096 0.136 0.0188 -0.115 0.034
O4E 0.172 0.0939 0.0585 0.0008 -0.031 0.0252
C1E 0.103 0.051 0.0353 0.0018 0.0025 0.0151
C2E 0.105 0.0559 0.0395 -0.0041 -0.0101 0.0119
C3E 0.111 0.0597 0.0439 -0.0048 -0.0122 0.0182
C4E 0.119 0.0529 0.0526 -0.0061 -0.0152 0.0183
C5E 0.102 0.066 0.042 0.0004 -0.0094 0.0069
C6E 0.096 0.0559 0.0397 -0.0011 -0.0074 0.0066
C7E 0.107 0.0529 0.0514 -0.0131 -0.0168 0.019
C8E 0.127 0.079 0.077 -0.0305 -0.02 0.033
C9E 0.112 0.084 0.077 -0.028 -0.025 0.018
C10E 0.104 0.065 0.066 -0.0208 -0.003 0.0073
C11E 0.109 0.081 0.067 -0.0303 -0.015 0.024
C12E 0.117 0.085 0.066 -0.0094 -0.016 0.029
C13E 0.126 0.079 0.063 -0.024 -0.005 0.003
C14E 0.12 0.055 0.0479 0.004 -0.0136 0.0211
C15E 0.382 0.088 0.103 -0.015 -0.122 0.055
C16E 0.334 0.076 0.125 0.005 -0.113 0.049
C17E 0.117 0.077 0.0551 0.003 -0.0166 0.019
C18E 0.244 0.087 0.077 -0.002 -0.07 0.032
C19E 0.281 0.076 0.071 0.001 -0.072 0.027
C20E 0.118 0.079 0.08 0.033 -0.005 0.028
O5A 0.163 0.192 0.048 0.0092 0.0058 0.107
O6A 0.292 0.278 0.128 0.152 -0.035 -0.096
O7A 0.22 0.173 0.0789 -0.074 -0.053 0.085
O8A 0.145 0.125 0.0523 -0.0306 -0.0384 0.0112
C21A 0.151 0.077 0.0263 0.0023 -0.0028 -0.034
C22A 0.163 0.089 0.024 0.0039 -0.0108 -0.047
C23A 0.151 0.084 0.0347 0.0115 -0.0204 -0.042
C24A 0.174 0.073 0.0427 0.008 -0.038 -0.034
C25A 0.161 0.073 0.0353 -0.003 -0.0286 -0.018
C26A 0.174 0.069 0.0283 0.0051 -0.0166 -0.024
C27A 0.17 0.092 0.0365 0.0179 -0.029 -0.05
C28A 0.2 0.14 0.074 0.053 -0.058 -0.095
C29A 0.211 0.156 0.079 0.059 -0.053 -0.096
C30A 0.161 0.13 0.0445 0.028 -0.007 -0.02
C31A 0.141 0.143 0.0403 0.008 -0.023 -0.026
C32A 0.161 0.112 0.0479 0.0146 -0.025 -0.052
C33A 0.161 0.184 0.0353 0.016 0 0.037
C34A 0.161 0.067 0.0395 -0.0029 -0.031 -0.011
C35A 0.158 0.086 0.0517 -0.0195 -0.035 0.026
C36A 0.139 0.105 0.0551 -0.0233 -0.041 0.03
C37A 0.128 0.089 0.041 -0.0163 -0.0218 -0.003
C38A 0.145 0.089 0.063 -0.0173 -0.035 0.013
C39A 0.15 0.089 0.0568 -0.0167 -0.045 0.01
C40A 0.166 0.096 0.049 -0.017 -0.032 0
Ho2I 0.11029 0.08064 0.04544 -0.0196 -0.00275 0.01911
O10I 0.277 0.363 0.069 0.054 -0.003 -0.013
O11I 0.146 0.324 0.155 -0.061 -0.037 0.065
O12I 0.319 0.301 0.333 -0.048 -0.106 -0.158
Ho1A 0.1227 0.05167 0.02806 0 0.01745 0
Ho1E 0.1227 0.05167 0.02806 0 0.01745 0
Ho1H 0.1227 0.05167 0.02806 0 -0.01745 0
Ho1I 0.1227 0.05167 0.02806 0 0.01745 0
Ho2B 0.11029 0.08064 0.04544 -0.0196 0.00275 -0.01911
Ho2C 0.11029 0.08064 0.04544 0.0196 -0.00275 -0.01911
Ho2E 0.11029 0.08064 0.04544 -0.0196 -0.00275 0.01911
Ho2H 0.11029 0.08064 0.04544 0.0196 0.00275 0.01911
Ho2L 0.11029 0.08064 0.04544 0.0196 0.00275 0.01911
O1B 0.14 0.0928 0.0692 -0.0379 0.0061 -0.0285
O2I 0.123 0.133 0.105 -0.0644 -0.0365 0.0007
O3I 0.279 0.096 0.136 0.0188 -0.115 0.034
O4I 0.172 0.0939 0.0585 0.0008 -0.031 0.0252
O5B 0.163 0.192 0.048 0.0092 -0.0058 -0.107
O6B 0.292 0.278 0.128 0.152 0.035 0.096
O6K 0.292 0.278 0.128 -0.152 -0.035 0.096
O7I 0.22 0.173 0.0789 -0.074 -0.053 0.085
O8I 0.145 0.125 0.0523 -0.0306 -0.0384 0.0112
O8K 0.145 0.125 0.0523 0.0306 -0.0384 -0.0112
loop_
_geom_bond_atom_site_label_1
_geom_bond_atom_site_label_2
_geom_bond_site_symmetry_1
_geom_bond_site_symmetry_2
Ho1 O1 1_555 1_555
Ho2 O2 1_555 1_555
O1 C13 1_555 1_555
O2 C13 1_555 1_555
O3 C20 1_555 1_555
O4 C20 1_555 1_555
O5 Ho1 1_555 1_555
O6 C33 1_555 1_555
O7 C40 1_555 1_555
O8 C40 1_555 1_555
O9 Ho1 1_555 1_555
H1 O9 1_555 1_555
O10 Ho2 1_555 1_555
H2 O10 1_555 1_555
H3 O10 1_555 1_555
O11 Ho2 1_555 1_555
H4 O11 1_555 1_555
H5 O11 1_555 1_555
O12 Ho2 1_555 1_555
H6 O12 1_555 1_555
H7 O12 1_555 1_555
C1 C2 1_555 1_555
C2 H8 1_555 1_555
C3 C2 1_555 1_555
C4 C3 1_555 1_555
H9 C4 1_555 1_555
C5 C4 1_555 1_555
C6 C1 1_555 1_555
H10 C6 1_555 1_555
C7 C3 1_555 1_555
C8 C7 1_555 1_555
H11 C8 1_555 1_555
C9 C8 1_555 1_555
H12 C9 1_555 1_555
C10 C9 1_555 1_555
C11 C10 1_555 1_555
H13 C11 1_555 1_555
C12 C7 1_555 1_555
H14 C12 1_555 1_555
C13 C10 1_555 1_555
C14 C5 1_555 1_555
C15 C14 1_555 1_555
H15 C15 1_555 1_555
C16 C15 1_555 1_555
H16 C16 1_555 1_555
C17 C16 1_555 1_555
C18 C17 1_555 1_555
H17 C18 1_555 1_555
C19 C14 1_555 1_555
H18 C19 1_555 1_555
C20 C17 1_555 1_555
C21 C22 1_555 1_555
C22 H19 1_555 1_555
C23 C22 1_555 1_555
C24 C23 1_555 1_555
H20 C24 1_555 1_555
C25 C24 1_555 1_555
C26 C21 1_555 1_555
H21 C26 1_555 1_555
C27 C23 1_555 1_555
C28 C27 1_555 1_555
H22 C28 1_555 1_555
C29 C28 1_555 1_555
H23 C29 1_555 1_555
C30 C29 1_555 1_555
C31 C30 1_555 1_555
H24 C31 1_555 1_555
C32 C27 1_555 1_555
H25 C32 1_555 1_555
C33 O5 1_555 1_555
C34 C25 1_555 1_555
C35 C34 1_555 1_555
H26 C35 1_555 1_555
C36 C35 1_555 1_555
H27 C36 1_555 1_555
C37 C36 1_555 1_555
C38 C37 1_555 1_555
H28 C38 1_555 1_555
C39 C34 1_555 1_555
H29 C39 1_555 1_555
C40 C37 1_555 1_555
O1E C13E 1_555 1_555
O2E C13E 1_555 1_555
O3E C20E 1_555 1_555
O4E C20E 1_555 1_555
C1E C1 1_555 1_555
C2E C1E 1_555 1_555
H8E C2E 1_555 1_555
C3E C2E 1_555 1_555
C4E C3E 1_555 1_555
H9E C4E 1_555 1_555
C5E C4E 1_555 1_555
C6E C1E 1_555 1_555
H10E C6E 1_555 1_555
C7E C3E 1_555 1_555
C8E C7E 1_555 1_555
H11E C8E 1_555 1_555
C9E C8E 1_555 1_555
H12E C9E 1_555 1_555
C10E C9E 1_555 1_555
C11E C10E 1_555 1_555
H13E C11E 1_555 1_555
C12E C7E 1_555 1_555
H14E C12E 1_555 1_555
C13E C10E 1_555 1_555
C14E C5E 1_555 1_555
C15E C14E 1_555 1_555
H15E C15E 1_555 1_555
C16E C15E 1_555 1_555
H16E C16E 1_555 1_555
C17E C16E 1_555 1_555
C18E C17E 1_555 1_555
H17E C18E 1_555 1_555
C19E C14E 1_555 1_555
H18E C19E 1_555 1_555
C20E C17E 1_555 1_555
O5A C33A 1_555 1_555
O6A C33A 1_555 1_555
O7A C40A 1_555 1_555
O8A C40A 1_555 1_555
C21A C21 1_555 1_555
C22A C21A 1_555 1_555
H19A C22A 1_555 1_555
C23A C22A 1_555 1_555
C24A C23A 1_555 1_555
H20A C24A 1_555 1_555
C25A C24A 1_555 1_555
C26A C21A 1_555 1_555
H21A C26A 1_555 1_555
C27A C23A 1_555 1_555
C28A C27A 1_555 1_555
H22A C28A 1_555 1_555
C29A C28A 1_555 1_555
H23A C29A 1_555 1_555
C30A C29A 1_555 1_555
C31A C30A 1_555 1_555
H24A C31A 1_555 1_555
C32A C27A 1_555 1_555
H25A C32A 1_555 1_555
C33A C30A 1_555 1_555
C34A C25A 1_555 1_555
C35A C34A 1_555 1_555
H26A C35A 1_555 1_555
C36A C35A 1_555 1_555
H27A C36A 1_555 1_555
C37A C36A 1_555 1_555
C38A C37A 1_555 1_555
H28A C38A 1_555 1_555
C39A C34A 1_555 1_555
H29A C39A 1_555 1_555
C40A C37A 1_555 1_555
H1B O9 1_555 1_555
Ho2I O3 1_555 1_555
O10I Ho2I 1_555 1_555
H2I O10I 1_555 1_555
H3I O10I 1_555 1_555
O11I Ho2I 1_555 1_555
H4I O11I 1_555 1_555
H5I O11I 1_555 1_555
O12I Ho2I 1_555 1_555
H6I O12I 1_555 1_555
H7I O12I 1_555 1_555
Ho1A O5A 1_555 1_555
Ho1E O1E 1_555 1_555
Ho1H O8A 1_555 1_555
Ho1I O8 1_555 1_555
Ho2B O6 1_555 1_555
Ho2C O6A 1_555 1_555
Ho2E O2E 1_555 1_555
Ho2H O7A 1_555 1_555
Ho2L O3E 1_555 1_555
O1B Ho1 1_555 1_555
O2I Ho2I 1_555 1_555
O3I Ho2 1_555 1_555
O4I Ho2 1_555 1_555
O5B Ho1 1_555 1_555
O6B Ho2 1_555 1_555
O6K Ho2I 1_555 1_555
O7I Ho2 1_555 1_555
O8I Ho1 1_555 1_555
O8K Ho1 1_555 1_555
O4 Ho2I 1_555 1_555
O7 Ho2I 1_555 1_555
C5 C6 1_555 1_555
C11 C12 1_555 1_555
C18 C19 1_555 1_555
C25 C26 1_555 1_555
C30 C33 1_555 1_555
C31 C32 1_555 1_555
C38 C39 1_555 1_555
O4E Ho2L 1_555 1_555
C5E C6E 1_555 1_555
C11E C12E 1_555 1_555
C18E C19E 1_555 1_555
C25A C26A 1_555 1_555
C31A C32A 1_555 1_555
C38A C39A 1_555 1_555

#END
