
#######################################################################
#
#                 Cambridge Crystallographic Data Centre
#                                CCDC 
#
#######################################################################
#
# If this CIF has been generated from an entry in the Cambridge 
# Structural Database, then it will include bibliographic, chemical, 
# crystal, experimental, refinement or atomic coordinate data resulting 
# from the CCDC's data processing and validation procedures.
#
#######################################################################

data_ATEYOP
_chemical_formula_moiety         '(C80 H58 Gd3 O23 1+)n'
_symmetry_cell_setting           orthorhombic
_symmetry_space_group_name_H-M   'C c c a'
_symmetry_Int_Tables_number      68
_space_group_name_Hall           '-C 2a 2ac'
loop_
_symmetry_equiv_pos_site_id
_symmetry_equiv_pos_as_xyz
1 x,y,z
2 1/2-x,-y,z
3 -x,y,1/2-z
4 1/2+x,-y,1/2-z
5 1/2+x,1/2+y,z
6 -x,1/2-y,z
7 1/2-x,1/2+y,1/2-z
8 x,1/2-y,1/2-z
9 -x,-y,-z
10 1/2+x,y,-z
11 x,-y,1/2+z
12 1/2-x,y,1/2+z
13 1/2-x,1/2-y,-z
14 x,1/2+y,-z
15 1/2+x,1/2-y,1/2+z
16 -x,1/2+y,1/2+z
_cell_length_a                   17.0192(2)
_cell_length_b                   57.8205(7)
_cell_length_c                   32.3846(3)
_cell_angle_alpha                90
_cell_angle_beta                 90
_cell_angle_gamma                90
_cell_volume                     31868.3
loop_
_atom_site_label
_atom_site_type_symbol
_atom_site_fract_x
_atom_site_fract_y
_atom_site_fract_z
_atom_site_U_iso_or_equiv
_atom_site_thermal_displace_type
Gd1 Gd 0.0000 0.099522(9) 0.7500 0.0814 Uani
Gd2 Gd -0.23170(2) 0.135759(6) 0.730577(10) 0.0728 Uani
O1 O 0.0042(3) 0.13001(8) 0.70492(12) 0.0793 Uani
O2 O -0.1079(3) 0.14860(8) 0.71427(15) 0.0837 Uani
O3 O 0.1964(4) 0.13789(10) 0.33364(19) 0.1487 Uani
O4 O 0.2322(4) 0.17022(9) 0.30871(15) 0.1070 Uani
O5 O 0.1147(4) 0.09485(11) 0.71863(14) 0.1163 Uani
O6 O 0.2100(5) 0.11795(15) 0.7054(2) 0.1733 Uani
O7 O 0.3242(4) 0.10700(11) 0.30910(15) 0.1230 Uani
O8 O 0.4316(3) 0.08646(8) 0.30702(13) 0.0833 Uani
O9 O 0.0000 0.05697(14) 0.7500 0.1823 Uani
H1 H 0.0419 0.0520 0.7388 0.2190 Uiso
O10 O -0.2004(5) 0.16978(14) 0.77699(15) 0.2050 Uani
H2 H -0.1516 0.1727 0.7754 0.2460 Uiso
H3 H -0.2123 0.1660 0.8016 0.2460 Uiso
O11 O -0.3473(4) 0.14988(15) 0.76857(19) 0.1820 Uani
H4 H -0.3871 0.1420 0.7611 0.2180 Uiso
H5 H -0.3549 0.1641 0.7634 0.2180 Uiso
O12 O -0.3182(5) 0.10151(14) 0.7330(3) 0.2287 Uani
H6 H -0.3126 0.0935 0.7112 0.2750 Uiso
H7 H -0.3645 0.1070 0.7339 0.2750 Uiso
C1 C 0.0106(4) 0.23761(9) 0.51359(15) 0.0503 Uani
C2 C -0.0021(4) 0.22406(9) 0.54978(15) 0.0537 Uani
H8 H -0.0239 0.2308 0.5732 0.0640 Uiso
C3 C 0.0177(4) 0.20094(9) 0.55021(15) 0.0550 Uani
C4 C 0.0516(4) 0.19083(10) 0.51682(16) 0.0590 Uani
H9 H 0.0667 0.1754 0.5179 0.0710 Uiso
C5 C 0.0639(4) 0.20400(11) 0.47970(16) 0.0590 Uani
C6 C 0.0440(4) 0.22737(9) 0.47997(15) 0.0473 Uani
H10 H 0.0537 0.2362 0.4566 0.0570 Uiso
C7 C 0.0012(4) 0.18696(10) 0.58821(17) 0.0593 Uani
C8 C -0.0663(5) 0.19010(11) 0.6117(2) 0.0783 Uani
H11 H -0.1023 0.2014 0.6040 0.0940 Uiso
C9 C -0.0811(5) 0.17666(12) 0.6465(2) 0.0837 Uani
H12 H -0.1273 0.1788 0.6615 0.1010 Uiso
C10 C -0.0281(4) 0.16047(10) 0.65872(19) 0.0607 Uani
C11 C 0.0397(5) 0.15695(11) 0.6366(2) 0.0723 Uani
H13 H 0.0757 0.1459 0.6453 0.0870 Uiso
C12 C 0.0544(5) 0.16981(12) 0.60154(19) 0.0800 Uani
H14 H 0.1000 0.1671 0.5865 0.0960 Uiso
C13 C -0.0445(5) 0.14459(13) 0.6962(2) 0.0647 Uani
C14 C 0.1003(4) 0.19250(11) 0.44284(18) 0.0597 Uani
C15 C 0.0951(6) 0.16965(14) 0.4363(2) 0.1217 Uani
H15 H 0.0684 0.1606 0.4554 0.1460 Uiso
C16 C 0.1290(6) 0.15892(13) 0.4012(2) 0.1320 Uani
H16 H 0.1241 0.1430 0.3976 0.1580 Uiso
C17 C 0.1664(4) 0.17097(13) 0.37415(18) 0.0623 Uani
C18 C 0.1685(6) 0.19347(14) 0.3797(2) 0.1313 Uani
H17 H 0.1931 0.2025 0.3598 0.1580 Uiso
C19 C 0.1364(6) 0.20412(12) 0.4132(2) 0.1290 Uani
H18 H 0.1400 0.2201 0.4153 0.1550 Uiso
C20 C 0.2028(5) 0.15949(15) 0.3363(2) 0.0753 Uani
C21 C 0.2512(4) 0.01308(10) 0.51348(15) 0.0660 Uani
C22 C 0.2328(4) 0.02595(11) 0.54822(15) 0.0707 Uani
H19 H 0.2188 0.0183 0.5724 0.0850 Uiso
C23 C 0.2348(4) 0.05007(11) 0.54796(17) 0.0727 Uani
C24 C 0.2575(4) 0.06115(11) 0.51162(15) 0.0683 Uani
H20 H 0.2597 0.0772 0.5109 0.0820 Uiso
C25 C 0.2767(4) 0.04870(11) 0.47652(16) 0.0687 Uani
C26 C 0.2753(4) 0.02488(11) 0.47794(15) 0.0713 Uani
H21 H 0.2907 0.0165 0.4548 0.0850 Uiso
C27 C 0.2157(5) 0.06349(12) 0.58579(17) 0.0743 Uani
C28 C 0.2605(5) 0.08271(14) 0.5961(2) 0.1093 Uani
H22 H 0.3019 0.0870 0.5790 0.1310 Uiso
C29 C 0.2453(5) 0.09538(15) 0.6304(2) 0.1170 Uani
H23 H 0.2751 0.1084 0.6365 0.1400 Uiso
C30 C 0.1843(5) 0.08857(15) 0.6566(2) 0.0850 Uani
C31 C 0.1411(5) 0.07047(15) 0.6465(2) 0.0913 Uani
H24 H 0.0990 0.0664 0.6634 0.1100 Uiso
C32 C 0.1566(4) 0.05733(12) 0.61165(18) 0.0813 Uani
H25 H 0.1265 0.0443 0.6060 0.0980 Uiso
C33 C 0.1699(7) 0.1019(2) 0.6971(2) 0.1053 Uani
C34 C 0.3018(4) 0.06061(11) 0.43739(17) 0.0633 Uani
C35 C 0.3639(5) 0.05189(11) 0.41456(17) 0.0750 Uani
H26 H 0.3902 0.0387 0.4235 0.0900 Uiso
C36 C 0.3868(5) 0.06284(12) 0.37834(17) 0.0807 Uani
H27 H 0.4295 0.0573 0.3634 0.0970 Uiso
C37 C 0.3461(4) 0.08210(11) 0.36435(17) 0.0600 Uani
C38 C 0.2849(4) 0.09049(11) 0.38698(19) 0.0723 Uani
H28 H 0.2574 0.1034 0.3777 0.0870 Uiso
C39 C 0.2628(4) 0.07987(11) 0.42429(18) 0.0720 Uani
H29 H 0.2219 0.0859 0.4399 0.0870 Uiso
C40 C 0.3698(6) 0.09269(13) 0.3228(2) 0.0760 Uani
O1E O -0.0042(3) 0.36999(8) 0.70492(12) 0.0793 Uani
O2E O 0.1079(3) 0.35140(8) 0.71427(15) 0.0837 Uani
O3E O -0.1964(4) 0.36211(10) 0.33364(19) 0.1487 Uani
O4E O -0.2322(4) 0.32978(9) 0.30871(15) 0.1070 Uani
C1E C -0.0106(4) 0.26239(9) 0.51359(15) 0.0503 Uani
C2E C 0.0021(4) 0.27594(9) 0.54978(15) 0.0537 Uani
H8E H 0.0239 0.2692 0.5732 0.0640 Uiso
C3E C -0.0177(4) 0.29906(9) 0.55021(15) 0.0550 Uani
C4E C -0.0516(4) 0.30917(10) 0.51682(16) 0.0590 Uani
H9E H -0.0667 0.3246 0.5179 0.0710 Uiso
C5E C -0.0639(4) 0.29600(11) 0.47970(16) 0.0590 Uani
C6E C -0.0440(4) 0.27263(9) 0.47997(15) 0.0473 Uani
H10E H -0.0537 0.2638 0.4566 0.0570 Uiso
C7E C -0.0012(4) 0.31304(10) 0.58821(17) 0.0593 Uani
C8E C 0.0663(5) 0.30990(11) 0.6117(2) 0.0783 Uani
H11E H 0.1023 0.2986 0.6040 0.0940 Uiso
C9E C 0.0811(5) 0.32334(12) 0.6465(2) 0.0837 Uani
H12E H 0.1273 0.3212 0.6615 0.1010 Uiso
C10E C 0.0281(4) 0.33953(10) 0.65872(19) 0.0607 Uani
C11E C -0.0397(5) 0.34305(11) 0.6366(2) 0.0723 Uani
H13E H -0.0757 0.3541 0.6453 0.0870 Uiso
C12E C -0.0544(5) 0.33019(12) 0.60154(19) 0.0800 Uani
H14E H -0.1000 0.3329 0.5865 0.0960 Uiso
C13E C 0.0445(5) 0.35541(13) 0.6962(2) 0.0647 Uani
C14E C -0.1003(4) 0.30750(11) 0.44284(18) 0.0597 Uani
C15E C -0.0951(6) 0.33035(14) 0.4363(2) 0.1217 Uani
H15E H -0.0684 0.3394 0.4554 0.1460 Uiso
C16E C -0.1290(6) 0.34108(13) 0.4012(2) 0.1320 Uani
H16E H -0.1241 0.3570 0.3976 0.1580 Uiso
C17E C -0.1664(4) 0.32903(13) 0.37415(18) 0.0623 Uani
C18E C -0.1685(6) 0.30653(14) 0.3797(2) 0.1313 Uani
H17E H -0.1931 0.2975 0.3598 0.1580 Uiso
C19E C -0.1364(6) 0.29588(12) 0.4132(2) 0.1290 Uani
H18E H -0.1400 0.2799 0.4153 0.1550 Uiso
C20E C -0.2028(5) 0.34051(15) 0.3363(2) 0.0753 Uani
O5A O 0.3853(4) -0.09485(11) 0.71863(14) 0.1163 Uani
O6A O 0.2900(5) -0.11795(15) 0.7054(2) 0.1733 Uani
O7A O 0.1758(4) -0.10700(11) 0.30910(15) 0.1230 Uani
O8A O 0.0684(3) -0.08646(8) 0.30702(13) 0.0833 Uani
C21A C 0.2488(4) -0.01308(10) 0.51348(15) 0.0660 Uani
C22A C 0.2672(4) -0.02595(11) 0.54822(15) 0.0707 Uani
H19A H 0.2812 -0.0183 0.5724 0.0850 Uiso
C23A C 0.2652(4) -0.05007(11) 0.54796(17) 0.0727 Uani
C24A C 0.2425(4) -0.06115(11) 0.51162(15) 0.0683 Uani
H20A H 0.2403 -0.0772 0.5109 0.0820 Uiso
C25A C 0.2233(4) -0.04870(11) 0.47652(16) 0.0687 Uani
C26A C 0.2247(4) -0.02488(11) 0.47794(15) 0.0713 Uani
H21A H 0.2093 -0.0165 0.4548 0.0850 Uiso
C27A C 0.2843(5) -0.06349(12) 0.58579(17) 0.0743 Uani
C28A C 0.2395(5) -0.08271(14) 0.5961(2) 0.1093 Uani
H22A H 0.1981 -0.0870 0.5790 0.1310 Uiso
C29A C 0.2547(5) -0.09538(15) 0.6304(2) 0.1170 Uani
H23A H 0.2249 -0.1084 0.6365 0.1400 Uiso
C30A C 0.3157(5) -0.08857(15) 0.6566(2) 0.0850 Uani
C31A C 0.3589(5) -0.07047(15) 0.6465(2) 0.0913 Uani
H24A H 0.4010 -0.0664 0.6634 0.1100 Uiso
C32A C 0.3434(4) -0.05733(12) 0.61165(18) 0.0813 Uani
H25A H 0.3735 -0.0443 0.6060 0.0980 Uiso
C33A C 0.3301(7) -0.1019(2) 0.6971(2) 0.1053 Uani
C34A C 0.1982(4) -0.06061(11) 0.43739(17) 0.0633 Uani
C35A C 0.1361(5) -0.05189(11) 0.41456(17) 0.0750 Uani
H26A H 0.1098 -0.0387 0.4235 0.0900 Uiso
C36A C 0.1132(5) -0.06284(12) 0.37834(17) 0.0807 Uani
H27A H 0.0705 -0.0573 0.3634 0.0970 Uiso
C37A C 0.1539(4) -0.08210(11) 0.36435(17) 0.0600 Uani
C38A C 0.2151(4) -0.09049(11) 0.38698(19) 0.0723 Uani
H28A H 0.2426 -0.1034 0.3777 0.0870 Uiso
C39A C 0.2372(4) -0.07987(11) 0.42429(18) 0.0720 Uani
H29A H 0.2781 -0.0859 0.4399 0.0870 Uiso
C40A C 0.1302(6) -0.09269(13) 0.3228(2) 0.0760 Uani
H1B H -0.0419 0.0520 0.7612 0.2190 Uiso
Gd2I Gd 0.26830(2) 0.135759(6) 0.269423(10) 0.0728 Uani
O10I O 0.2996(5) 0.16978(14) 0.22301(15) 0.2050 Uani
H2I H 0.3484 0.1727 0.2246 0.2460 Uiso
H3I H 0.2877 0.1660 0.1984 0.2460 Uiso
O11I O 0.1527(4) 0.14988(15) 0.23143(19) 0.1820 Uani
H4I H 0.1129 0.1420 0.2389 0.2180 Uiso
H5I H 0.1451 0.1641 0.2366 0.2180 Uiso
O12I O 0.1818(5) 0.10151(14) 0.2670(3) 0.2287 Uani
H6I H 0.1874 0.0935 0.2888 0.2750 Uiso
H7I H 0.1355 0.1070 0.2661 0.2750 Uiso
Gd1A Gd 0.5000 -0.099522(9) 0.7500 0.0814 Uani
Gd1E Gd 0.0000 0.400478(9) 0.7500 0.0814 Uani
Gd1H Gd 0.0000 -0.099522(9) 0.2500 0.0814 Uani
Gd1I Gd 0.5000 0.099522(9) 0.2500 0.0814 Uani
Gd2B Gd 0.23170(2) 0.135759(6) 0.769423(10) 0.0728 Uani
Gd2C Gd 0.26830(2) -0.135759(6) 0.769423(10) 0.0728 Uani
Gd2E Gd 0.23170(2) 0.364241(6) 0.730577(10) 0.0728 Uani
Gd2H Gd 0.23170(2) -0.135759(6) 0.269423(10) 0.0728 Uani
Gd2L Gd -0.26830(2) 0.364241(6) 0.269423(10) 0.0728 Uani
O1B O -0.0042(3) 0.13001(8) 0.79508(12) 0.0793 Uani
O2I O 0.3921(3) 0.14860(8) 0.28573(15) 0.0837 Uani
O3I O -0.3036(4) 0.13789(10) 0.66636(19) 0.1487 Uani
O4I O -0.2678(4) 0.17022(9) 0.69129(15) 0.1070 Uani
O5B O -0.1147(4) 0.09485(11) 0.78137(14) 0.1163 Uani
O6B O -0.2100(5) 0.11795(15) 0.7946(2) 0.1733 Uani
O6K O 0.2900(5) 0.11795(15) 0.2054(2) 0.1733 Uani
O7I O -0.1758(4) 0.10700(11) 0.69090(15) 0.1230 Uani
O8I O -0.0684(3) 0.08646(8) 0.69298(13) 0.0833 Uani
O8K O 0.0684(3) 0.08646(8) 0.80702(13) 0.0833 Uani
loop_
_atom_site_aniso_label
_atom_site_aniso_U_11
_atom_site_aniso_U_22
_atom_site_aniso_U_33
_atom_site_aniso_U_23
_atom_site_aniso_U_13
_atom_site_aniso_U_12
Gd1 0.1323(6) 0.0679(3) 0.0440(3) 0.000 -0.0213(3) 0.000
Gd2 0.0902(3) 0.0823(3) 0.04582(19) 0.02221(18) 0.00435(19) 0.0191(2)
O1 0.113(5) 0.067(3) 0.058(3) 0.028(2) -0.001(3) 0.022(3)
O2 0.083(5) 0.086(4) 0.082(3) 0.038(3) 0.027(3) -0.002(3)
O3 0.228(8) 0.075(4) 0.143(5) -0.021(4) 0.130(5) 0.026(4)
O4 0.183(6) 0.077(4) 0.061(3) -0.006(3) 0.059(4) 0.034(4)
O5 0.137(6) 0.182(6) 0.030(3) -0.012(3) 0.003(3) 0.104(5)
O6 0.212(9) 0.225(9) 0.083(5) -0.102(5) 0.000(5) -0.022(7)
O7 0.136(6) 0.160(6) 0.073(4) 0.061(4) 0.052(3) 0.056(5)
O8 0.114(5) 0.090(4) 0.046(3) 0.013(2) 0.030(3) 0.011(3)
O9 0.302(14) 0.109(7) 0.136(7) 0.000 -0.105(8) 0.000
O10 0.306(10) 0.258(9) 0.051(4) -0.015(4) 0.008(5) 0.164(8)
O11 0.114(6) 0.268(9) 0.164(7) 0.024(6) 0.024(5) 0.045(6)
O12 0.246(11) 0.207(9) 0.233(10) 0.080(7) 0.065(7) -0.061(8)
C1 0.080(5) 0.037(3) 0.034(3) -0.003(2) -0.005(3) 0.006(4)
C2 0.076(5) 0.052(4) 0.033(3) -0.002(3) 0.010(3) 0.012(4)
C3 0.094(6) 0.036(3) 0.035(3) 0.005(3) 0.012(3) 0.011(4)
C4 0.087(6) 0.042(4) 0.048(4) 0.000(3) 0.017(3) 0.025(4)
C5 0.073(6) 0.065(5) 0.039(3) -0.008(3) 0.010(3) 0.010(4)
C6 0.072(5) 0.039(3) 0.031(3) 0.003(3) 0.012(3) 0.010(3)
C7 0.081(6) 0.046(4) 0.051(4) 0.007(3) 0.012(4) 0.011(4)
C8 0.091(7) 0.060(5) 0.084(5) 0.020(4) 0.027(5) 0.029(4)
C9 0.102(7) 0.073(5) 0.076(5) 0.033(4) 0.043(4) 0.024(5)
C10 0.077(6) 0.044(4) 0.061(4) 0.021(3) 0.011(4) 0.010(4)
C11 0.084(7) 0.062(4) 0.071(5) 0.037(4) 0.011(4) 0.029(4)
C12 0.103(7) 0.075(5) 0.062(4) 0.007(4) 0.023(4) 0.018(5)
C13 0.073(7) 0.059(5) 0.062(5) 0.006(4) 0.016(4) -0.015(5)
C14 0.090(6) 0.043(4) 0.046(4) -0.011(3) 0.010(3) 0.010(4)
C15 0.202(11) 0.076(6) 0.087(6) 0.003(5) 0.078(6) 0.007(6)
C16 0.244(12) 0.055(5) 0.097(6) -0.017(5) 0.086(7) 0.041(6)
C17 0.073(6) 0.072(5) 0.042(4) -0.004(4) 0.019(3) 0.006(4)
C18 0.263(13) 0.068(6) 0.063(5) 0.007(4) 0.073(6) 0.036(7)
C19 0.273(12) 0.055(5) 0.059(5) -0.001(4) 0.079(6) 0.026(6)
C20 0.079(7) 0.079(6) 0.068(5) -0.030(5) -0.001(4) 0.036(5)
C21 0.113(6) 0.057(4) 0.028(3) -0.005(3) 0.000(3) -0.030(4)
C22 0.115(6) 0.081(5) 0.016(3) -0.003(3) 0.015(3) -0.031(5)
C23 0.120(7) 0.065(4) 0.033(3) -0.012(3) 0.023(4) -0.036(5)
C24 0.121(7) 0.053(4) 0.031(3) -0.002(3) 0.020(4) -0.017(4)
C25 0.123(7) 0.054(4) 0.029(3) 0.004(3) 0.023(4) -0.015(4)
C26 0.132(7) 0.061(4) 0.021(3) -0.007(3) 0.018(4) -0.019(5)
C27 0.117(7) 0.077(5) 0.029(3) -0.012(3) 0.022(4) -0.031(5)
C28 0.156(9) 0.112(6) 0.060(5) -0.042(5) 0.058(5) -0.061(6)
C29 0.149(9) 0.137(7) 0.065(5) -0.057(5) 0.043(5) -0.081(7)
C30 0.094(7) 0.115(7) 0.046(4) -0.024(4) -0.005(4) -0.002(6)
C31 0.095(7) 0.139(8) 0.040(4) -0.004(5) 0.025(4) -0.029(6)
C32 0.110(7) 0.093(6) 0.041(4) -0.011(4) 0.027(4) -0.044(5)
C33 0.120(10) 0.165(10) 0.031(4) -0.041(6) -0.017(5) 0.045(8)
C34 0.101(7) 0.060(4) 0.029(3) 0.003(3) 0.021(3) -0.004(4)
C35 0.125(7) 0.057(4) 0.043(4) 0.020(3) 0.027(4) 0.024(4)
C36 0.115(7) 0.089(6) 0.038(4) 0.016(4) 0.042(4) 0.026(5)
C37 0.072(6) 0.072(5) 0.036(3) 0.018(3) 0.015(3) 0.004(4)
C38 0.097(7) 0.068(4) 0.052(4) 0.014(3) 0.023(4) 0.022(4)
C39 0.109(7) 0.060(4) 0.047(4) 0.006(3) 0.038(4) 0.012(4)
C40 0.115(9) 0.063(5) 0.050(5) 0.010(4) 0.012(5) 0.010(5)
O1E 0.113 0.067 0.058 -0.028 0.001 0.022
O2E 0.083 0.086 0.082 -0.038 -0.027 -0.002
O3E 0.228 0.075 0.143 0.021 -0.13 0.026
O4E 0.183 0.077 0.061 0.006 -0.059 0.034
C1E 0.08 0.037 0.034 0.003 0.005 0.006
C2E 0.076 0.052 0.033 0.002 -0.01 0.012
C3E 0.094 0.036 0.035 -0.005 -0.012 0.011
C4E 0.087 0.042 0.048 0 -0.017 0.025
C5E 0.073 0.065 0.039 0.008 -0.01 0.01
C6E 0.072 0.039 0.031 -0.003 -0.012 0.01
C7E 0.081 0.046 0.051 -0.007 -0.012 0.011
C8E 0.091 0.06 0.084 -0.02 -0.027 0.029
C9E 0.102 0.073 0.076 -0.033 -0.043 0.024
C10E 0.077 0.044 0.061 -0.021 -0.011 0.01
C11E 0.084 0.062 0.071 -0.037 -0.011 0.029
C12E 0.103 0.075 0.062 -0.007 -0.023 0.018
C13E 0.073 0.059 0.062 -0.006 -0.016 -0.015
C14E 0.09 0.043 0.046 0.011 -0.01 0.01
C15E 0.202 0.076 0.087 -0.003 -0.078 0.007
C16E 0.244 0.055 0.097 0.017 -0.086 0.041
C17E 0.073 0.072 0.042 0.004 -0.019 0.006
C18E 0.263 0.068 0.063 -0.007 -0.073 0.036
C19E 0.273 0.055 0.059 0.001 -0.079 0.026
C20E 0.079 0.079 0.068 0.03 0.001 0.036
O5A 0.137 0.182 0.03 0.012 -0.003 0.104
O6A 0.212 0.225 0.083 0.102 0 -0.022
O7A 0.136 0.16 0.073 -0.061 -0.052 0.056
O8A 0.114 0.09 0.046 -0.013 -0.03 0.011
C21A 0.113 0.057 0.028 0.005 0 -0.03
C22A 0.115 0.081 0.016 0.003 -0.015 -0.031
C23A 0.12 0.065 0.033 0.012 -0.023 -0.036
C24A 0.121 0.053 0.031 0.002 -0.02 -0.017
C25A 0.123 0.054 0.029 -0.004 -0.023 -0.015
C26A 0.132 0.061 0.021 0.007 -0.018 -0.019
C27A 0.117 0.077 0.029 0.012 -0.022 -0.031
C28A 0.156 0.112 0.06 0.042 -0.058 -0.061
C29A 0.149 0.137 0.065 0.057 -0.043 -0.081
C30A 0.094 0.115 0.046 0.024 0.005 -0.002
C31A 0.095 0.139 0.04 0.004 -0.025 -0.029
C32A 0.11 0.093 0.041 0.011 -0.027 -0.044
C33A 0.12 0.165 0.031 0.041 0.017 0.045
C34A 0.101 0.06 0.029 -0.003 -0.021 -0.004
C35A 0.125 0.057 0.043 -0.02 -0.027 0.024
C36A 0.115 0.089 0.038 -0.016 -0.042 0.026
C37A 0.072 0.072 0.036 -0.018 -0.015 0.004
C38A 0.097 0.068 0.052 -0.014 -0.023 0.022
C39A 0.109 0.06 0.047 -0.006 -0.038 0.012
C40A 0.115 0.063 0.05 -0.01 -0.012 0.01
Gd2I 0.0902 0.0823 0.04582 -0.02221 -0.00435 0.0191
O10I 0.306 0.258 0.051 0.015 -0.008 0.164
O11I 0.114 0.268 0.164 -0.024 -0.024 0.045
O12I 0.246 0.207 0.233 -0.08 -0.065 -0.061
Gd1A 0.1323 0.0679 0.044 0 0.0213 0
Gd1E 0.1323 0.0679 0.044 0 0.0213 0
Gd1H 0.1323 0.0679 0.044 0 -0.0213 0
Gd1I 0.1323 0.0679 0.044 0 0.0213 0
Gd2B 0.0902 0.0823 0.04582 -0.02221 0.00435 -0.0191
Gd2C 0.0902 0.0823 0.04582 0.02221 -0.00435 -0.0191
Gd2E 0.0902 0.0823 0.04582 -0.02221 -0.00435 0.0191
Gd2H 0.0902 0.0823 0.04582 0.02221 0.00435 0.0191
Gd2L 0.0902 0.0823 0.04582 0.02221 0.00435 0.0191
O1B 0.113 0.067 0.058 -0.028 -0.001 -0.022
O2I 0.083 0.086 0.082 -0.038 -0.027 -0.002
O3I 0.228 0.075 0.143 0.021 -0.13 0.026
O4I 0.183 0.077 0.061 0.006 -0.059 0.034
O5B 0.137 0.182 0.03 0.012 0.003 -0.104
O6B 0.212 0.225 0.083 0.102 0 0.022
O6K 0.212 0.225 0.083 -0.102 0 0.022
O7I 0.136 0.16 0.073 -0.061 -0.052 0.056
O8I 0.114 0.09 0.046 -0.013 -0.03 0.011
O8K 0.114 0.09 0.046 0.013 -0.03 -0.011
loop_
_geom_bond_atom_site_label_1
_geom_bond_atom_site_label_2
_geom_bond_site_symmetry_1
_geom_bond_site_symmetry_2
Gd1 O1 1_555 1_555
Gd2 O2 1_555 1_555
O1 C13 1_555 1_555
O2 C13 1_555 1_555
O3 C20 1_555 1_555
O4 C20 1_555 1_555
O5 Gd1 1_555 1_555
O6 C33 1_555 1_555
O7 C40 1_555 1_555
O8 C40 1_555 1_555
O9 Gd1 1_555 1_555
H1 O9 1_555 1_555
O10 Gd2 1_555 1_555
H2 O10 1_555 1_555
H3 O10 1_555 1_555
O11 Gd2 1_555 1_555
H4 O11 1_555 1_555
H5 O11 1_555 1_555
O12 Gd2 1_555 1_555
H6 O12 1_555 1_555
H7 O12 1_555 1_555
C1 C2 1_555 1_555
C2 H8 1_555 1_555
C3 C2 1_555 1_555
C4 C3 1_555 1_555
H9 C4 1_555 1_555
C5 C4 1_555 1_555
C6 C1 1_555 1_555
H10 C6 1_555 1_555
C7 C3 1_555 1_555
C8 C7 1_555 1_555
H11 C8 1_555 1_555
C9 C8 1_555 1_555
H12 C9 1_555 1_555
C10 C9 1_555 1_555
C11 C10 1_555 1_555
H13 C11 1_555 1_555
C12 C7 1_555 1_555
H14 C12 1_555 1_555
C13 C10 1_555 1_555
C14 C5 1_555 1_555
C15 C14 1_555 1_555
H15 C15 1_555 1_555
C16 C15 1_555 1_555
H16 C16 1_555 1_555
C17 C16 1_555 1_555
C18 C17 1_555 1_555
H17 C18 1_555 1_555
C19 C14 1_555 1_555
H18 C19 1_555 1_555
C20 C17 1_555 1_555
C21 C22 1_555 1_555
C22 H19 1_555 1_555
C23 C22 1_555 1_555
C24 C23 1_555 1_555
H20 C24 1_555 1_555
C25 C24 1_555 1_555
C26 C21 1_555 1_555
H21 C26 1_555 1_555
C27 C23 1_555 1_555
C28 C27 1_555 1_555
H22 C28 1_555 1_555
C29 C28 1_555 1_555
H23 C29 1_555 1_555
C30 C29 1_555 1_555
C31 C30 1_555 1_555
H24 C31 1_555 1_555
C32 C27 1_555 1_555
H25 C32 1_555 1_555
C33 O5 1_555 1_555
C34 C25 1_555 1_555
C35 C34 1_555 1_555
H26 C35 1_555 1_555
C36 C35 1_555 1_555
H27 C36 1_555 1_555
C37 C36 1_555 1_555
C38 C37 1_555 1_555
H28 C38 1_555 1_555
C39 C34 1_555 1_555
H29 C39 1_555 1_555
C40 C37 1_555 1_555
O1E C13E 1_555 1_555
O2E C13E 1_555 1_555
O3E C20E 1_555 1_555
O4E C20E 1_555 1_555
C1E C1 1_555 1_555
C2E C1E 1_555 1_555
H8E C2E 1_555 1_555
C3E C2E 1_555 1_555
C4E C3E 1_555 1_555
H9E C4E 1_555 1_555
C5E C4E 1_555 1_555
C6E C1E 1_555 1_555
H10E C6E 1_555 1_555
C7E C3E 1_555 1_555
C8E C7E 1_555 1_555
H11E C8E 1_555 1_555
C9E C8E 1_555 1_555
H12E C9E 1_555 1_555
C10E C9E 1_555 1_555
C11E C10E 1_555 1_555
H13E C11E 1_555 1_555
C12E C7E 1_555 1_555
H14E C12E 1_555 1_555
C13E C10E 1_555 1_555
C14E C5E 1_555 1_555
C15E C14E 1_555 1_555
H15E C15E 1_555 1_555
C16E C15E 1_555 1_555
H16E C16E 1_555 1_555
C17E C16E 1_555 1_555
C18E C17E 1_555 1_555
H17E C18E 1_555 1_555
C19E C14E 1_555 1_555
H18E C19E 1_555 1_555
C20E C17E 1_555 1_555
O5A C33A 1_555 1_555
O6A C33A 1_555 1_555
O7A C40A 1_555 1_555
O8A C40A 1_555 1_555
C21A C21 1_555 1_555
C22A C21A 1_555 1_555
H19A C22A 1_555 1_555
C23A C22A 1_555 1_555
C24A C23A 1_555 1_555
H20A C24A 1_555 1_555
C25A C24A 1_555 1_555
C26A C21A 1_555 1_555
H21A C26A 1_555 1_555
C27A C23A 1_555 1_555
C28A C27A 1_555 1_555
H22A C28A 1_555 1_555
C29A C28A 1_555 1_555
H23A C29A 1_555 1_555
C30A C29A 1_555 1_555
C31A C30A 1_555 1_555
H24A C31A 1_555 1_555
C32A C27A 1_555 1_555
H25A C32A 1_555 1_555
C33A C30A 1_555 1_555
C34A C25A 1_555 1_555
C35A C34A 1_555 1_555
H26A C35A 1_555 1_555
C36A C35A 1_555 1_555
H27A C36A 1_555 1_555
C37A C36A 1_555 1_555
C38A C37A 1_555 1_555
H28A C38A 1_555 1_555
C39A C34A 1_555 1_555
H29A C39A 1_555 1_555
C40A C37A 1_555 1_555
H1B O9 1_555 1_555
Gd2I O3 1_555 1_555
O10I Gd2I 1_555 1_555
H2I O10I 1_555 1_555
H3I O10I 1_555 1_555
O11I Gd2I 1_555 1_555
H4I O11I 1_555 1_555
H5I O11I 1_555 1_555
O12I Gd2I 1_555 1_555
H6I O12I 1_555 1_555
H7I O12I 1_555 1_555
Gd1A O5A 1_555 1_555
Gd1E O1E 1_555 1_555
Gd1H O8A 1_555 1_555
Gd1I O8 1_555 1_555
Gd2B O6 1_555 1_555
Gd2C O6A 1_555 1_555
Gd2E O2E 1_555 1_555
Gd2H O7A 1_555 1_555
Gd2L O3E 1_555 1_555
O1B Gd1 1_555 1_555
O2I Gd2I 1_555 1_555
O3I Gd2 1_555 1_555
O4I Gd2 1_555 1_555
O5B Gd1 1_555 1_555
O6B Gd2 1_555 1_555
O6K Gd2I 1_555 1_555
O7I Gd2 1_555 1_555
O8I Gd1 1_555 1_555
O8K Gd1 1_555 1_555
O4 Gd2I 1_555 1_555
O7 Gd2I 1_555 1_555
C5 C6 1_555 1_555
C11 C12 1_555 1_555
C18 C19 1_555 1_555
C25 C26 1_555 1_555
C30 C33 1_555 1_555
C31 C32 1_555 1_555
C38 C39 1_555 1_555
O4E Gd2L 1_555 1_555
C5E C6E 1_555 1_555
C11E C12E 1_555 1_555
C18E C19E 1_555 1_555
C25A C26A 1_555 1_555
C31A C32A 1_555 1_555
C38A C39A 1_555 1_555

#END
