
#######################################################################
#
#                 Cambridge Crystallographic Data Centre
#                                CCDC 
#
#######################################################################
#
# If this CIF has been generated from an entry in the Cambridge 
# Structural Database, then it will include bibliographic, chemical, 
# crystal, experimental, refinement or atomic coordinate data resulting 
# from the CCDC's data processing and validation procedures.
#
#######################################################################

data_ATEZEG
_chemical_formula_moiety         '(C80 H50 O19 Yb3 1+)n'
_symmetry_cell_setting           monoclinic
_symmetry_space_group_name_H-M   'C 2/c'
_symmetry_Int_Tables_number      15
_space_group_name_Hall           '-C 2yc'
loop_
_symmetry_equiv_pos_site_id
_symmetry_equiv_pos_as_xyz
1 x,y,z
2 -x,y,1/2-z
3 1/2+x,1/2+y,z
4 1/2-x,1/2+y,1/2-z
5 -x,-y,-z
6 x,-y,1/2+z
7 1/2-x,1/2-y,-z
8 1/2+x,1/2-y,1/2+z
_cell_length_a                   32.485(5)
_cell_length_b                   29.089(4)
_cell_length_c                   17.629(3)
_cell_angle_alpha                90
_cell_angle_beta                 104.347(2)
_cell_angle_gamma                90
_cell_volume                     16139.1
loop_
_atom_site_label
_atom_site_type_symbol
_atom_site_fract_x
_atom_site_fract_y
_atom_site_fract_z
Yb1 Yb 0.0000 0.306986(13) 0.7500
Yb2 Yb 0.014639(10) 0.228136(13) 0.54257(3)
O1 O 0.0358(2) 0.2075(2) 0.6644(5)
O2 O 0.04629(17) 0.24657(19) 0.7730(4)
O3 O 0.46409(19) 0.1819(3) 1.1304(5)
O4 O 0.4529(2) 0.2349(4) 1.0381(6)
O5 O 0.0813(2) -0.2232(3) 1.0167(8)
O6 O 0.0472(3) -0.1601(3) 1.0139(9)
O7 O 0.4549(3) -0.2069(2) 0.9174(5)
O8 O 0.44548(17) -0.1703(2) 0.8018(4)
O9 O 0.0000 0.3819(4) 0.7500
H1 H 0.0247 0.3913 0.7596
O10 O -0.0353(2) 0.1718(3) 0.5363(6)
H2 H -0.0484 0.1780 0.5675
H3 H -0.0226 0.1464 0.5476
C1 C 0.2454(3) 0.0413(3) 0.8972(7)
C2 C 0.2078(3) 0.0633(2) 0.8613(7)
H4 H 0.1838 0.0473 0.8345
C3 C 0.2084(3) 0.1137(3) 0.8684(8)
C4 C 0.2444(2) 0.1366(3) 0.9019(7)
H5 H 0.2441 0.1685 0.9021
C5 C 0.2817(2) 0.1139(3) 0.9357(7)
C6 C 0.2819(3) 0.0659(3) 0.9329(7)
H6 H 0.3068 0.0501 0.9554
C7 C 0.1673(3) 0.1385(3) 0.8293(7)
C8 C 0.1552(2) 0.1753(3) 0.8690(7)
H7 H 0.1723 0.1836 0.9176
C9 C 0.1190(3) 0.1995(2) 0.8392(7)
H8 H 0.1113 0.2239 0.8670
C10 C 0.0941(2) 0.1874(2) 0.7677(6)
C11 C 0.1041(2) 0.1508(2) 0.7246(6)
H9 H 0.0867 0.1432 0.6759
C12 C 0.1413(2) 0.1258(3) 0.7574(7)
H10 H 0.1485 0.1007 0.7308
C13 C 0.0556(2) 0.2171(2) 0.7372(6)
C14 C 0.3221(2) 0.1405(3) 0.9716(7)
C15 C 0.3496(3) 0.1207(4) 1.0373(8)
H11 H 0.3423 0.0936 1.0587
C16 C 0.3871(3) 0.1418(4) 1.0692(8)
H12 H 0.4050 0.1293 1.1139
C17 C 0.3990(3) 0.1796(4) 1.0384(7)
C18 C 0.3713(3) 0.2005(4) 0.9695(8)
H13 H 0.3789 0.2272 0.9475
C19 C 0.3325(3) 0.1779(3) 0.9380(7)
H14 H 0.3140 0.1895 0.8931
C20 C 0.4410(3) 0.2022(5) 1.0679(9)
C21 C 0.2476(2) -0.0095(3) 0.9031(8)
C22 C 0.2837(2) -0.0340(3) 0.8943(8)
H15 H 0.3055 -0.0179 0.8808
C23 C 0.2876(3) -0.0807(3) 0.9050(7)
C24 C 0.2533(2) -0.1050(3) 0.9221(7)
H16 H 0.2549 -0.1368 0.9274
C25 C 0.2178(3) -0.0824(3) 0.9311(7)
C26 C 0.2148(3) -0.0344(3) 0.9231(7)
H17 H 0.1911 -0.0191 0.9311
C27 C 0.1825(3) -0.1084(3) 0.9507(7)
C28 C 0.1745(8) -0.1515(9) 0.9275(19)
H18 H 0.1906 -0.1652 0.8969
C29 C 0.1425(8) -0.1769(8) 0.9479(19)
H19 H 0.1387 -0.2079 0.9353
C30 C 0.1245(8) -0.1101(9) 1.0091(19)
H20 H 0.1070 -0.0955 1.0361
C31 C 0.1571(7) -0.0851(8) 0.9934(19)
H21 H 0.1622 -0.0548 1.0097
C32 C 0.1159(3) -0.1541(3) 0.9884(7)
C33 C 0.0795(3) -0.1809(4) 1.0060(8)
C34 C 0.3253(3) -0.1049(3) 0.8943(7)
C35 C 0.3414(3) -0.1440(3) 0.9382(7)
H22 H 0.3269 -0.1545 0.9743
C36 C 0.3768(3) -0.1681(3) 0.9319(6)
H23 H 0.3868 -0.1930 0.9641
C37 C 0.3979(3) -0.1530(3) 0.8733(6)
C38 C 0.3814(3) -0.1155(3) 0.8286(7)
H24 H 0.3942 -0.1058 0.7896
C39 C 0.3467(3) -0.0918(3) 0.8396(8)
H25 H 0.3373 -0.0661 0.8089
C40 C 0.4358(3) -0.1783(3) 0.8630(7)
H1A H -0.0247 0.3913 0.7404
Yb2A Yb -0.014639(10) 0.228136(13) 0.95743(3)
O1A O -0.0358(2) 0.2075(2) 0.8356(5)
O2A O -0.04629(17) 0.24657(19) 0.7270(4)
O3A O -0.46409(19) 0.1819(3) 0.3696(5)
O4A O -0.4529(2) 0.2349(4) 0.4619(6)
O5A O -0.0813(2) -0.2232(3) 0.4833(8)
O6A O -0.0472(3) -0.1601(3) 0.4861(9)
O7A O -0.4549(3) -0.2069(2) 0.5826(5)
O8A O -0.44548(17) -0.1703(2) 0.6982(4)
O10A O 0.0353(2) 0.1718(3) 0.9637(6)
H2A H 0.0484 0.1780 0.9325
H3A H 0.0226 0.1464 0.9524
C1A C -0.2454(3) 0.0413(3) 0.6028(7)
C2A C -0.2078(3) 0.0633(2) 0.6387(7)
H4A H -0.1838 0.0473 0.6655
C3A C -0.2084(3) 0.1137(3) 0.6316(8)
C4A C -0.2444(2) 0.1366(3) 0.5981(7)
H5A H -0.2441 0.1685 0.5979
C5A C -0.2817(2) 0.1139(3) 0.5643(7)
C6A C -0.2819(3) 0.0659(3) 0.5671(7)
H6A H -0.3068 0.0501 0.5446
C7A C -0.1673(3) 0.1385(3) 0.6707(7)
C8A C -0.1552(2) 0.1753(3) 0.6310(7)
H7A H -0.1723 0.1836 0.5824
C9A C -0.1190(3) 0.1995(2) 0.6608(7)
H8A H -0.1113 0.2239 0.6330
C10A C -0.0941(2) 0.1874(2) 0.7323(6)
C11A C -0.1041(2) 0.1508(2) 0.7754(6)
H9A H -0.0867 0.1432 0.8241
C12A C -0.1413(2) 0.1258(3) 0.7426(7)
H10A H -0.1485 0.1007 0.7692
C13A C -0.0556(2) 0.2171(2) 0.7628(6)
C14A C -0.3221(2) 0.1405(3) 0.5284(7)
C15A C -0.3496(3) 0.1207(4) 0.4627(8)
H11A H -0.3423 0.0936 0.4413
C16A C -0.3871(3) 0.1418(4) 0.4308(8)
H12A H -0.4050 0.1293 0.3861
C17A C -0.3990(3) 0.1796(4) 0.4616(7)
C18A C -0.3713(3) 0.2005(4) 0.5305(8)
H13A H -0.3789 0.2272 0.5525
C19A C -0.3325(3) 0.1779(3) 0.5620(7)
H14A H -0.3140 0.1895 0.6069
C20A C -0.4410(3) 0.2022(5) 0.4321(9)
C21A C -0.2476(2) -0.0095(3) 0.5969(8)
C22A C -0.2837(2) -0.0340(3) 0.6057(8)
H15A H -0.3055 -0.0179 0.6192
C23A C -0.2876(3) -0.0807(3) 0.5950(7)
C24A C -0.2533(2) -0.1050(3) 0.5779(7)
H16A H -0.2549 -0.1368 0.5726
C25A C -0.2178(3) -0.0824(3) 0.5689(7)
C26A C -0.2148(3) -0.0344(3) 0.5769(7)
H17A H -0.1911 -0.0191 0.5689
C27A C -0.1825(3) -0.1084(3) 0.5493(7)
C28A C -0.1745(8) -0.1515(9) 0.5725(19)
H18A H -0.1906 -0.1652 0.6031
C29A C -0.1425(8) -0.1769(8) 0.5521(19)
H19A H -0.1387 -0.2079 0.5647
C30A C -0.1245(8) -0.1101(9) 0.4909(19)
H20A H -0.1070 -0.0955 0.4639
C31A C -0.1571(7) -0.0851(8) 0.5066(19)
H21A H -0.1622 -0.0548 0.4903
C32A C -0.1159(3) -0.1541(3) 0.5116(7)
C33A C -0.0795(3) -0.1809(4) 0.4940(8)
C34A C -0.3253(3) -0.1049(3) 0.6057(7)
C35A C -0.3414(3) -0.1440(3) 0.5618(7)
H22A H -0.3269 -0.1545 0.5257
C36A C -0.3768(3) -0.1681(3) 0.5681(6)
H23A H -0.3868 -0.1930 0.5359
C37A C -0.3979(3) -0.1530(3) 0.6267(6)
C38A C -0.3814(3) -0.1155(3) 0.6714(7)
H24A H -0.3942 -0.1058 0.7104
C39A C -0.3467(3) -0.0918(3) 0.6604(8)
H25A H -0.3373 -0.0661 0.6911
C40A C -0.4358(3) -0.1783(3) 0.6370(7)
Yb1B Yb -0.5000 -0.193014(13) 0.7500
Yb1B_2 Yb 0.5000 -0.193014(13) 0.7500
Yb1F Yb -0.5000 0.193014(13) 0.2500
Yb1F_2 Yb 0.5000 0.193014(13) 1.2500
Yb2B Yb -0.485361(10) -0.271864(13) 0.54257(3)
Yb2C Yb 0.485361(10) -0.271864(13) 0.95743(3)
Yb2D Yb -0.014639(10) -0.228136(13) 0.45743(3)
Yb2E Yb 0.014639(10) -0.228136(13) 1.04257(3)
Yb2F Yb -0.514639(10) 0.271864(13) 0.45743(3)
Yb2G Yb 0.514639(10) 0.271864(13) 1.04257(3)
O3F O 0.03591(19) 0.3181(3) 0.8696(5)
O3G O -0.03591(19) 0.3181(3) 0.6304(5)
O4F O 0.0471(2) 0.2651(4) 0.9619(6)
O4G O -0.0471(2) 0.2651(4) 0.5381(6)
O5D O -0.0813(2) 0.2232(3) 0.9833(8)
O5E O 0.0813(2) 0.2232(3) 0.5167(8)
O6D O -0.0472(3) 0.1601(3) 0.9861(9)
O6E O 0.0472(3) 0.1601(3) 0.5139(9)
O7B O -0.0451(3) 0.2931(2) 0.9174(5)
O7C O 0.0451(3) 0.2931(2) 0.5826(5)
O8B O -0.05452(17) 0.3297(2) 0.8018(4)
O8C O 0.05452(17) 0.3297(2) 0.6982(4)
loop_
_geom_bond_atom_site_label_1
_geom_bond_atom_site_label_2
_geom_bond_site_symmetry_1
_geom_bond_site_symmetry_2
Yb1 O2 1_555 1_555
Yb2 O1 1_555 1_555
O1 C13 1_555 1_555
O2 C13 1_555 1_555
O3 C20 1_555 1_555
O4 C20 1_555 1_555
O5 C33 1_555 1_555
O6 C33 1_555 1_555
O7 C40 1_555 1_555
O8 C40 1_555 1_555
O9 Yb1 1_555 1_555
H1 O9 1_555 1_555
O10 Yb2 1_555 1_555
H2 O10 1_555 1_555
H3 O10 1_555 1_555
C1 C2 1_555 1_555
C2 H4 1_555 1_555
C3 C2 1_555 1_555
C4 C3 1_555 1_555
H5 C4 1_555 1_555
C5 C4 1_555 1_555
C6 C1 1_555 1_555
H6 C6 1_555 1_555
C7 C3 1_555 1_555
C8 C7 1_555 1_555
H7 C8 1_555 1_555
C9 C8 1_555 1_555
H8 C9 1_555 1_555
C10 C9 1_555 1_555
C11 C10 1_555 1_555
H9 C11 1_555 1_555
C12 C7 1_555 1_555
H10 C12 1_555 1_555
C13 C10 1_555 1_555
C14 C5 1_555 1_555
C15 C14 1_555 1_555
H11 C15 1_555 1_555
C16 C15 1_555 1_555
H12 C16 1_555 1_555
C17 C16 1_555 1_555
C18 C17 1_555 1_555
H13 C18 1_555 1_555
C19 C14 1_555 1_555
H14 C19 1_555 1_555
C20 C17 1_555 1_555
C21 C1 1_555 1_555
C22 C21 1_555 1_555
H15 C22 1_555 1_555
C23 C22 1_555 1_555
C24 C23 1_555 1_555
H16 C24 1_555 1_555
C25 C24 1_555 1_555
C26 C21 1_555 1_555
H17 C26 1_555 1_555
C27 C25 1_555 1_555
C28 C27 1_555 1_555
H18 C28 1_555 1_555
C29 C28 1_555 1_555
H19 C29 1_555 1_555
C30 H20 1_555 1_555
C31 C27 1_555 1_555
H21 C31 1_555 1_555
C32 C29 1_555 1_555
C33 C32 1_555 1_555
C34 C23 1_555 1_555
C35 C34 1_555 1_555
H22 C35 1_555 1_555
C36 C35 1_555 1_555
H23 C36 1_555 1_555
C37 C36 1_555 1_555
C38 C37 1_555 1_555
H24 C38 1_555 1_555
C39 C34 1_555 1_555
H25 C39 1_555 1_555
C40 C37 1_555 1_555
H1A O9 1_555 1_555
Yb2A O1A 1_555 1_555
O1A C13A 1_555 1_555
O2A Yb1 1_555 1_555
O3A C20A 1_555 1_555
O4A C20A 1_555 1_555
O5A C33A 1_555 1_555
O6A C33A 1_555 1_555
O7A C40A 1_555 1_555
O8A C40A 1_555 1_555
O10A Yb2A 1_555 1_555
H2A O10A 1_555 1_555
H3A O10A 1_555 1_555
C1A C2A 1_555 1_555
C2A H4A 1_555 1_555
C3A C2A 1_555 1_555
C4A C3A 1_555 1_555
H5A C4A 1_555 1_555
C5A C4A 1_555 1_555
C6A C1A 1_555 1_555
H6A C6A 1_555 1_555
C7A C3A 1_555 1_555
C8A C7A 1_555 1_555
H7A C8A 1_555 1_555
C9A C8A 1_555 1_555
H8A C9A 1_555 1_555
C10A C9A 1_555 1_555
C11A C10A 1_555 1_555
H9A C11A 1_555 1_555
C12A C7A 1_555 1_555
H10A C12A 1_555 1_555
C13A O2A 1_555 1_555
C14A C5A 1_555 1_555
C15A C14A 1_555 1_555
H11A C15A 1_555 1_555
C16A C15A 1_555 1_555
H12A C16A 1_555 1_555
C17A C16A 1_555 1_555
C18A C17A 1_555 1_555
H13A C18A 1_555 1_555
C19A C14A 1_555 1_555
H14A C19A 1_555 1_555
C20A C17A 1_555 1_555
C21A C1A 1_555 1_555
C22A C21A 1_555 1_555
H15A C22A 1_555 1_555
C23A C22A 1_555 1_555
C24A C23A 1_555 1_555
H16A C24A 1_555 1_555
C25A C24A 1_555 1_555
C26A C21A 1_555 1_555
H17A C26A 1_555 1_555
C27A C25A 1_555 1_555
C28A C27A 1_555 1_555
H18A C28A 1_555 1_555
C29A C28A 1_555 1_555
H19A C29A 1_555 1_555
C30A H20A 1_555 1_555
C31A C27A 1_555 1_555
H21A C31A 1_555 1_555
C32A C29A 1_555 1_555
C33A C32A 1_555 1_555
C34A C23A 1_555 1_555
C35A C34A 1_555 1_555
H22A C35A 1_555 1_555
C36A C35A 1_555 1_555
H23A C36A 1_555 1_555
C37A C36A 1_555 1_555
C38A C37A 1_555 1_555
H24A C38A 1_555 1_555
C39A C34A 1_555 1_555
H25A C39A 1_555 1_555
C40A C37A 1_555 1_555
Yb1B O8A 1_555 1_555
Yb1B_2 O8 1_555 1_555
Yb1F O3A 1_555 1_555
Yb1F_2 O3 1_555 1_555
Yb2B O7A 1_555 1_555
Yb2C O7 1_555 1_555
Yb2D O5A 1_555 1_555
Yb2E O5 1_555 1_555
Yb2F O4A 1_555 1_555
Yb2G O4 1_555 1_555
O3F Yb1 1_555 1_555
O3G Yb1 1_555 1_555
O4F Yb2A 1_555 1_555
O4G Yb2 1_555 1_555
O5D Yb2A 1_555 1_555
O5E Yb2 1_555 1_555
O6D Yb2A 1_555 1_555
O6E Yb2 1_555 1_555
O7B Yb2A 1_555 1_555
O7C Yb2 1_555 1_555
O8B Yb1 1_555 1_555
O8C Yb1 1_555 1_555
O6 Yb2E 1_555 1_555
C5 C6 1_555 1_555
C11 C12 1_555 1_555
C18 C19 1_555 1_555
C25 C26 1_555 1_555
C30 C31 1_555 1_555
C30 C32 1_555 1_555
C38 C39 1_555 1_555
O6A Yb2D 1_555 1_555
C5A C6A 1_555 1_555
C10A C13A 1_555 1_555
C11A C12A 1_555 1_555
C18A C19A 1_555 1_555
C25A C26A 1_555 1_555
C30A C31A 1_555 1_555
C30A C32A 1_555 1_555
C38A C39A 1_555 1_555

#END
