
#######################################################################
#
#                 Cambridge Crystallographic Data Centre
#                                CCDC 
#
#######################################################################
#
# If this CIF has been generated from an entry in the Cambridge 
# Structural Database, then it will include bibliographic, chemical, 
# crystal, experimental, refinement or atomic coordinate data resulting 
# from the CCDC's data processing and validation procedures.
#
#######################################################################

data_ATEZIK
_chemical_formula_moiety         '(C80 H50 Lu3 O19 1+)n'
_symmetry_cell_setting           monoclinic
_symmetry_space_group_name_H-M   'C 2/c'
_symmetry_Int_Tables_number      15
_space_group_name_Hall           '-C 2yc'
loop_
_symmetry_equiv_pos_site_id
_symmetry_equiv_pos_as_xyz
1 x,y,z
2 -x,y,1/2-z
3 1/2+x,1/2+y,z
4 1/2-x,1/2+y,1/2-z
5 -x,-y,-z
6 x,-y,1/2+z
7 1/2-x,1/2-y,-z
8 1/2+x,1/2-y,1/2+z
_cell_length_a                   32.301(13)
_cell_length_b                   28.825(10)
_cell_length_c                   18.692(8)
_cell_angle_alpha                90
_cell_angle_beta                 104.24(3)
_cell_angle_gamma                90
_cell_volume                     16868.9
loop_
_atom_site_label
_atom_site_type_symbol
_atom_site_fract_x
_atom_site_fract_y
_atom_site_fract_z
Lu1 Lu 0.0000 0.303549(14) 0.7500
Lu2 Lu 0.014561(8) 0.225884(11) 0.54907(2)
O1 O 0.03834(16) 0.2035(2) 0.6646(4)
O2 O 0.04538(14) 0.2444(2) 0.7667(4)
O3 O 0.46058(15) 0.1852(2) 1.1391(3)
O4 O 0.45376(14) 0.2357(2) 1.0474(4)
O5 O 0.0851(2) -0.2194(2) 1.0328(7)
O6 O 0.04720(17) -0.1573(2) 1.0201(5)
O7 O 0.45369(15) -0.20857(19) 0.9117(4)
O8 O 0.44677(15) -0.1745(2) 0.8020(4)
O9 O 0.0000 0.3884(6) 0.7500
H1 H 0.0247 0.3979 0.7596
O10 O -0.03484(16) 0.1716(2) 0.5473(4)
H2 H -0.0480 0.1777 0.5784
H3 H -0.0222 0.1461 0.5585
C1 C 0.24788(17) 0.0407(2) 0.8986(5)
C2 C 0.21077(16) 0.0645(2) 0.8658(5)
H4 H 0.1863 0.0480 0.8429
C3 C 0.20980(17) 0.1119(3) 0.8666(5)
C4 C 0.24616(18) 0.1355(3) 0.8995(5)
H5 H 0.2457 0.1677 0.8990
C5 C 0.28380(17) 0.1128(2) 0.9338(5)
C6 C 0.28369(17) 0.0661(2) 0.9320(5)
H6 H 0.3087 0.0504 0.9541
C7 C 0.16924(18) 0.1375(2) 0.8293(5)
C8 C 0.1564(2) 0.1733(3) 0.8650(5)
H7 H 0.1731 0.1820 0.9109
C9 C 0.1188(2) 0.1976(3) 0.8353(5)
H8 H 0.1092 0.2204 0.8626
C10 C 0.09570(18) 0.1869(2) 0.7628(5)
C11 C 0.1079(2) 0.1497(3) 0.7259(6)
H9 H 0.0922 0.1412 0.6791
C12 C 0.1450(2) 0.1248(3) 0.7616(5)
H10 H 0.1532 0.0991 0.7383
C13 C 0.0563(2) 0.2137(3) 0.7304(6)
C14 C 0.32306(18) 0.1380(3) 0.9711(5)
C15 C 0.3487(2) 0.1213(3) 1.0379(5)
H11 H 0.3408 0.0945 1.0590
C16 C 0.3857(2) 0.1447(3) 1.0726(5)
H12 H 0.4017 0.1337 1.1178
C17 C 0.39908(19) 0.1820(3) 1.0436(5)
C18 C 0.3738(2) 0.1999(3) 0.9785(5)
H13 H 0.3819 0.2273 0.9595
C19 C 0.3361(2) 0.1772(3) 0.9405(5)
H14 H 0.3203 0.1885 0.8955
C20 C 0.44023(19) 0.2037(3) 1.0791(5)
C21 C 0.24915(17) -0.0103(2) 0.9022(5)
C22 C 0.28524(18) -0.0337(2) 0.8946(5)
H15 H 0.3079 -0.0172 0.8848
C23 C 0.28785(19) -0.0812(2) 0.9016(5)
C24 C 0.25401(18) -0.1044(2) 0.9206(5)
H16 H 0.2557 -0.1364 0.9271
C25 C 0.21781(18) -0.0810(3) 0.9300(5)
C26 C 0.21516(18) -0.0345(2) 0.9197(5)
H17 H 0.1909 -0.0186 0.9243
C27 C 0.1821(2) -0.1065(3) 0.9536(6)
C28 C 0.1751(7) -0.1511(6) 0.9365(18)
H18 H 0.1924 -0.1664 0.9111
C29 C 0.1415(6) -0.1755(6) 0.9565(15)
H19 H 0.1369 -0.2068 0.9447
C30 C 0.1197(8) -0.1078(11) 0.9993(19)
H20 H 0.0985 -0.0912 1.0138
C31 C 0.1540(6) -0.0834(7) 0.9850(14)
H21 H 0.1577 -0.0521 0.9965
C32 C 0.1159(2) -0.1523(3) 0.9935(7)
C33 C 0.0795(2) -0.1794(4) 1.0149(6)
C34 C 0.32630(19) -0.1056(2) 0.8934(5)
C35 C 0.3421(2) -0.1433(3) 0.9382(5)
H22 H 0.3283 -0.1529 0.9738
C36 C 0.3792(2) -0.1675(3) 0.9306(6)
H23 H 0.3901 -0.1921 0.9618
C37 C 0.39883(18) -0.1540(3) 0.8766(5)
C38 C 0.3835(2) -0.1174(3) 0.8301(5)
H24 H 0.3966 -0.1089 0.7930
C39 C 0.3477(2) -0.0932(3) 0.8402(6)
H25 H 0.3378 -0.0679 0.8101
C40 C 0.4360(2) -0.1823(3) 0.8651(6)
H1A H -0.0247 0.3979 0.7404
Lu2A Lu -0.014561(8) 0.225884(11) 0.95093(2)
O1A O -0.03834(16) 0.2035(2) 0.8354(4)
O2A O -0.04538(14) 0.2444(2) 0.7333(4)
O3A O -0.46058(15) 0.1852(2) 0.3609(3)
O4A O -0.45376(14) 0.2357(2) 0.4526(4)
O5A O -0.0851(2) -0.2194(2) 0.4672(7)
O6A O -0.04720(17) -0.1573(2) 0.4799(5)
O7A O -0.45369(15) -0.20857(19) 0.5883(4)
O8A O -0.44677(15) -0.1745(2) 0.6980(4)
O10A O 0.03484(16) 0.1716(2) 0.9527(4)
H2A H 0.0480 0.1777 0.9216
H3A H 0.0222 0.1461 0.9415
C1A C -0.24788(17) 0.0407(2) 0.6014(5)
C2A C -0.21077(16) 0.0645(2) 0.6342(5)
H4A H -0.1863 0.0480 0.6571
C3A C -0.20980(17) 0.1119(3) 0.6334(5)
C4A C -0.24616(18) 0.1355(3) 0.6005(5)
H5A H -0.2457 0.1677 0.6010
C5A C -0.28380(17) 0.1128(2) 0.5662(5)
C6A C -0.28369(17) 0.0661(2) 0.5680(5)
H6A H -0.3087 0.0504 0.5459
C7A C -0.16924(18) 0.1375(2) 0.6707(5)
C8A C -0.1564(2) 0.1733(3) 0.6350(5)
H7A H -0.1731 0.1820 0.5891
C9A C -0.1188(2) 0.1976(3) 0.6647(5)
H8A H -0.1092 0.2204 0.6374
C10A C -0.09570(18) 0.1869(2) 0.7372(5)
C11A C -0.1079(2) 0.1497(3) 0.7741(6)
H9A H -0.0922 0.1412 0.8209
C12A C -0.1450(2) 0.1248(3) 0.7384(5)
H10A H -0.1532 0.0991 0.7617
C13A C -0.0563(2) 0.2137(3) 0.7696(6)
C14A C -0.32306(18) 0.1380(3) 0.5289(5)
C15A C -0.3487(2) 0.1213(3) 0.4621(5)
H11A H -0.3408 0.0945 0.4410
C16A C -0.3857(2) 0.1447(3) 0.4274(5)
H12A H -0.4017 0.1337 0.3822
C17A C -0.39908(19) 0.1820(3) 0.4564(5)
C18A C -0.3738(2) 0.1999(3) 0.5215(5)
H13A H -0.3819 0.2273 0.5405
C19A C -0.3361(2) 0.1772(3) 0.5595(5)
H14A H -0.3203 0.1885 0.6045
C20A C -0.44023(19) 0.2037(3) 0.4209(5)
C21A C -0.24915(17) -0.0103(2) 0.5978(5)
C22A C -0.28524(18) -0.0337(2) 0.6054(5)
H15A H -0.3079 -0.0172 0.6152
C23A C -0.28785(19) -0.0812(2) 0.5984(5)
C24A C -0.25401(18) -0.1044(2) 0.5794(5)
H16A H -0.2557 -0.1364 0.5729
C25A C -0.21781(18) -0.0810(3) 0.5700(5)
C26A C -0.21516(18) -0.0345(2) 0.5803(5)
H17A H -0.1909 -0.0186 0.5757
C27A C -0.1821(2) -0.1065(3) 0.5464(6)
C28A C -0.1751(7) -0.1511(6) 0.5635(18)
H18A H -0.1924 -0.1664 0.5889
C29A C -0.1415(6) -0.1755(6) 0.5435(15)
H19A H -0.1369 -0.2068 0.5553
C30A C -0.1197(8) -0.1078(11) 0.5007(19)
H20A H -0.0985 -0.0912 0.4862
C31A C -0.1540(6) -0.0834(7) 0.5150(14)
H21A H -0.1577 -0.0521 0.5035
C32A C -0.1159(2) -0.1523(3) 0.5065(7)
C33A C -0.0795(2) -0.1794(4) 0.4851(6)
C34A C -0.32630(19) -0.1056(2) 0.6066(5)
C35A C -0.3421(2) -0.1433(3) 0.5618(5)
H22A H -0.3283 -0.1529 0.5262
C36A C -0.3792(2) -0.1675(3) 0.5694(6)
H23A H -0.3901 -0.1921 0.5382
C37A C -0.39883(18) -0.1540(3) 0.6234(5)
C38A C -0.3835(2) -0.1174(3) 0.6699(5)
H24A H -0.3966 -0.1089 0.7070
C39A C -0.3477(2) -0.0932(3) 0.6598(6)
H25A H -0.3378 -0.0679 0.6899
C40A C -0.4360(2) -0.1823(3) 0.6349(6)
Lu1B Lu -0.5000 -0.196451(14) 0.7500
Lu1B_2 Lu 0.5000 -0.196451(14) 0.7500
Lu1F Lu -0.5000 0.196451(14) 0.2500
Lu1F_2 Lu 0.5000 0.196451(14) 1.2500
Lu2B Lu -0.485439(8) -0.274116(11) 0.54907(2)
Lu2C Lu 0.485439(8) -0.274116(11) 0.95093(2)
Lu2D Lu -0.014561(8) -0.225884(11) 0.45093(2)
Lu2E Lu 0.014561(8) -0.225884(11) 1.04907(2)
Lu2F Lu -0.514561(8) 0.274116(11) 0.45093(2)
Lu2G Lu 0.514561(8) 0.274116(11) 1.04907(2)
O3F O 0.03942(15) 0.3148(2) 0.8609(3)
O3G O -0.03942(15) 0.3148(2) 0.6391(3)
O4F O 0.04624(14) 0.2643(2) 0.9526(4)
O4G O -0.04624(14) 0.2643(2) 0.5474(4)
O5D O -0.0851(2) 0.2194(2) 0.9672(7)
O5E O 0.0851(2) 0.2194(2) 0.5328(7)
O6D O -0.04720(17) 0.1573(2) 0.9799(5)
O6E O 0.04720(17) 0.1573(2) 0.5201(5)
O7B O -0.04631(15) 0.29143(19) 0.9117(4)
O7C O 0.04631(15) 0.29143(19) 0.5883(4)
O8B O -0.05323(15) 0.3255(2) 0.8020(4)
O8C O 0.05323(15) 0.3255(2) 0.6980(4)
loop_
_geom_bond_atom_site_label_1
_geom_bond_atom_site_label_2
_geom_bond_site_symmetry_1
_geom_bond_site_symmetry_2
Lu1 O2 1_555 1_555
Lu2 O1 1_555 1_555
O1 C13 1_555 1_555
O2 C13 1_555 1_555
O3 C20 1_555 1_555
O4 C20 1_555 1_555
O5 C33 1_555 1_555
O6 C33 1_555 1_555
O7 C40 1_555 1_555
O8 C40 1_555 1_555
O9 Lu1 1_555 1_555
H1 O9 1_555 1_555
O10 Lu2 1_555 1_555
H2 O10 1_555 1_555
H3 O10 1_555 1_555
C1 C2 1_555 1_555
C2 H4 1_555 1_555
C3 C2 1_555 1_555
C4 C3 1_555 1_555
H5 C4 1_555 1_555
C5 C4 1_555 1_555
C6 C1 1_555 1_555
H6 C6 1_555 1_555
C7 C3 1_555 1_555
C8 C7 1_555 1_555
H7 C8 1_555 1_555
C9 C8 1_555 1_555
H8 C9 1_555 1_555
C10 C9 1_555 1_555
C11 C10 1_555 1_555
H9 C11 1_555 1_555
C12 C7 1_555 1_555
H10 C12 1_555 1_555
C13 C10 1_555 1_555
C14 C5 1_555 1_555
C15 C14 1_555 1_555
H11 C15 1_555 1_555
C16 C15 1_555 1_555
H12 C16 1_555 1_555
C17 C16 1_555 1_555
C18 C17 1_555 1_555
H13 C18 1_555 1_555
C19 C14 1_555 1_555
H14 C19 1_555 1_555
C20 C17 1_555 1_555
C21 C1 1_555 1_555
C22 C21 1_555 1_555
H15 C22 1_555 1_555
C23 C22 1_555 1_555
C24 C23 1_555 1_555
H16 C24 1_555 1_555
C25 C24 1_555 1_555
C26 C21 1_555 1_555
H17 C26 1_555 1_555
C27 C25 1_555 1_555
C28 C27 1_555 1_555
H18 C28 1_555 1_555
C29 C28 1_555 1_555
H19 C29 1_555 1_555
C30 H20 1_555 1_555
C31 C27 1_555 1_555
H21 C31 1_555 1_555
C32 C29 1_555 1_555
C33 C32 1_555 1_555
C34 C23 1_555 1_555
C35 C34 1_555 1_555
H22 C35 1_555 1_555
C36 C35 1_555 1_555
H23 C36 1_555 1_555
C37 C36 1_555 1_555
C38 C37 1_555 1_555
H24 C38 1_555 1_555
C39 C34 1_555 1_555
H25 C39 1_555 1_555
C40 C37 1_555 1_555
H1A O9 1_555 1_555
Lu2A O1A 1_555 1_555
O1A C13A 1_555 1_555
O2A Lu1 1_555 1_555
O3A C20A 1_555 1_555
O4A C20A 1_555 1_555
O5A C33A 1_555 1_555
O6A C33A 1_555 1_555
O7A C40A 1_555 1_555
O8A C40A 1_555 1_555
O10A Lu2A 1_555 1_555
H2A O10A 1_555 1_555
H3A O10A 1_555 1_555
C1A C2A 1_555 1_555
C2A H4A 1_555 1_555
C3A C2A 1_555 1_555
C4A C3A 1_555 1_555
H5A C4A 1_555 1_555
C5A C4A 1_555 1_555
C6A C1A 1_555 1_555
H6A C6A 1_555 1_555
C7A C3A 1_555 1_555
C8A C7A 1_555 1_555
H7A C8A 1_555 1_555
C9A C8A 1_555 1_555
H8A C9A 1_555 1_555
C10A C9A 1_555 1_555
C11A C10A 1_555 1_555
H9A C11A 1_555 1_555
C12A C7A 1_555 1_555
H10A C12A 1_555 1_555
C13A O2A 1_555 1_555
C14A C5A 1_555 1_555
C15A C14A 1_555 1_555
H11A C15A 1_555 1_555
C16A C15A 1_555 1_555
H12A C16A 1_555 1_555
C17A C16A 1_555 1_555
C18A C17A 1_555 1_555
H13A C18A 1_555 1_555
C19A C14A 1_555 1_555
H14A C19A 1_555 1_555
C20A C17A 1_555 1_555
C21A C1A 1_555 1_555
C22A C21A 1_555 1_555
H15A C22A 1_555 1_555
C23A C22A 1_555 1_555
C24A C23A 1_555 1_555
H16A C24A 1_555 1_555
C25A C24A 1_555 1_555
C26A C21A 1_555 1_555
H17A C26A 1_555 1_555
C27A C25A 1_555 1_555
C28A C27A 1_555 1_555
H18A C28A 1_555 1_555
C29A C28A 1_555 1_555
H19A C29A 1_555 1_555
C30A H20A 1_555 1_555
C31A C27A 1_555 1_555
H21A C31A 1_555 1_555
C32A C29A 1_555 1_555
C33A C32A 1_555 1_555
C34A C23A 1_555 1_555
C35A C34A 1_555 1_555
H22A C35A 1_555 1_555
C36A C35A 1_555 1_555
H23A C36A 1_555 1_555
C37A C36A 1_555 1_555
C38A C37A 1_555 1_555
H24A C38A 1_555 1_555
C39A C34A 1_555 1_555
H25A C39A 1_555 1_555
C40A C37A 1_555 1_555
Lu1B O8A 1_555 1_555
Lu1B_2 O8 1_555 1_555
Lu1F O3A 1_555 1_555
Lu1F_2 O3 1_555 1_555
Lu2B O7A 1_555 1_555
Lu2C O7 1_555 1_555
Lu2D O5A 1_555 1_555
Lu2E O5 1_555 1_555
Lu2F O4A 1_555 1_555
Lu2G O4 1_555 1_555
O3F Lu1 1_555 1_555
O3G Lu1 1_555 1_555
O4F Lu2A 1_555 1_555
O4G Lu2 1_555 1_555
O5D Lu2A 1_555 1_555
O5E Lu2 1_555 1_555
O6D Lu2A 1_555 1_555
O6E Lu2 1_555 1_555
O7B Lu2A 1_555 1_555
O7C Lu2 1_555 1_555
O8B Lu1 1_555 1_555
O8C Lu1 1_555 1_555
O6 Lu2E 1_555 1_555
C5 C6 1_555 1_555
C11 C12 1_555 1_555
C18 C19 1_555 1_555
C25 C26 1_555 1_555
C30 C31 1_555 1_555
C30 C32 1_555 1_555
C38 C39 1_555 1_555
O6A Lu2D 1_555 1_555
C5A C6A 1_555 1_555
C10A C13A 1_555 1_555
C11A C12A 1_555 1_555
C18A C19A 1_555 1_555
C25A C26A 1_555 1_555
C30A C31A 1_555 1_555
C30A C32A 1_555 1_555
C38A C39A 1_555 1_555

#END
