
#######################################################################
#
#                 Cambridge Crystallographic Data Centre
#                                CCDC 
#
#######################################################################
#
# If this CIF has been generated from an entry in the Cambridge 
# Structural Database, then it will include bibliographic, chemical, 
# crystal, experimental, refinement or atomic coordinate data resulting 
# from the CCDC's data processing and validation procedures.
#
#######################################################################

data_JUPNAL
_chemical_formula_moiety         '(C14 H20 Co1 N2 O15 Sr1)n'
_symmetry_cell_setting           monoclinic
_symmetry_space_group_name_H-M   'C 2/c'
_symmetry_Int_Tables_number      15
_space_group_name_Hall           '-C 2yc'
loop_
_symmetry_equiv_pos_site_id
_symmetry_equiv_pos_as_xyz
1 x,y,z
2 -x,y,1/2-z
3 1/2+x,1/2+y,z
4 1/2-x,1/2+y,1/2-z
5 -x,-y,-z
6 x,-y,1/2+z
7 1/2-x,1/2-y,-z
8 1/2+x,1/2-y,1/2+z
_cell_length_a                   18.628(4)
_cell_length_b                   6.8742(14)
_cell_length_c                   19.101(4)
_cell_angle_alpha                90
_cell_angle_beta                 118.77(3)
_cell_angle_gamma                90
_cell_volume                     2144
loop_
_atom_site_label
_atom_site_type_symbol
_atom_site_fract_x
_atom_site_fract_y
_atom_site_fract_z
Sr1 Sr 0.0000 0.01264(3) 0.2500
Co1 Co 0.0000 0.5000 0.5000
O1 O -0.00844(7) 0.38635(19) 0.39640(7)
O2 O 0.06342(8) 0.3272(2) 0.33384(7)
O3 O 0.42018(7) 0.5817(2) 0.60160(7)
O4 O 0.36287(8) 0.4710(2) 0.47716(9)
O5 O -0.03083(9) 0.7721(2) 0.44277(9)
H1 H 0.0016(16) 0.826(4) 0.4351(14)
H2 H -0.0549(15) 0.844(4) 0.4563(14)
O6 O -0.11541(10) 0.1289(3) 0.28103(10)
H3 H -0.0932(18) 0.204(5) 0.3145(18)
H4 H -0.143(2) 0.067(5) 0.2920(19)
O7 O 0.07800(11) -0.3050(3) 0.24138(10)
H5 H 0.0880(19) -0.302(5) 0.2065(18)
H6 H 0.0788(19) -0.423(5) 0.2552(18)
N1 N 0.12275(9) 0.5227(2) 0.52456(9)
C1 C 0.13299(11) 0.4627(2) 0.46297(10)
C2 C 0.20789(11) 0.4628(2) 0.46526(10)
H7 H 0.2125 0.4217 0.4212
C3 C 0.27660(11) 0.5250(2) 0.53410(11)
C4 C 0.26621(10) 0.5851(3) 0.59769(10)
H8 H 0.3108 0.6272 0.6448
C5 C 0.18875(10) 0.5820(3) 0.59040(10)
H9 H 0.1824 0.6234 0.6335
C6 C 0.05723(10) 0.3868(2) 0.39153(10)
C7 C 0.35996(11) 0.5254(2) 0.53790(11)
O1A O 0.00844(7) 0.38635(19) 0.10360(7)
O2A O -0.06342(8) 0.3272(2) 0.16616(7)
O3A O -0.42018(7) 0.5817(2) -0.10160(7)
O4A O -0.36287(8) 0.4710(2) 0.02284(9)
O6A O 0.11541(10) 0.1289(3) 0.21897(10)
H3A H 0.0932(18) 0.204(5) 0.1855(18)
H4A H 0.143(2) 0.067(5) 0.2080(19)
O7A O -0.07800(11) -0.3050(3) 0.25862(10)
H5A H -0.0880(19) -0.302(5) 0.2935(18)
H6A H -0.0788(19) -0.423(5) 0.2448(18)
N1A N -0.12275(9) 0.5227(2) -0.02456(9)
C1A C -0.13299(11) 0.4627(2) 0.03703(10)
C2A C -0.20789(11) 0.4628(2) 0.03474(10)
H7A H -0.2125 0.4217 0.0788
C3A C -0.27660(11) 0.5250(2) -0.03410(11)
C4A C -0.26621(10) 0.5851(3) -0.09769(10)
H8A H -0.3108 0.6272 -0.1448
C5A C -0.18875(10) 0.5820(3) -0.09040(10)
H9A H -0.1824 0.6234 -0.1335
C6A C -0.05723(10) 0.3868(2) 0.10847(10)
C7A C -0.35996(11) 0.5254(2) -0.03790(11)
O5D O 0.03083(9) 0.2279(2) 0.55723(9)
H1D H -0.0016(16) 0.174(4) 0.5649(14)
H2D H 0.0549(15) 0.156(4) 0.5437(14)
Sr1F Sr -0.5000 0.48736(3) -0.2500
Sr1F_2 Sr 0.5000 0.48736(3) 0.7500
Co1A Co 0.0000 0.5000 0.0000
O1D O 0.00844(7) 0.61365(19) 0.60360(7)
O3F O 0.07982(7) -0.0817(2) 0.39840(7)
O3G O -0.07982(7) -0.0817(2) 0.10160(7)
N1D N -0.12275(9) 0.4773(2) 0.47544(9)
O8 O 0.27133(18) 0.4156(6) 0.30992(15)
H10 H 0.239(3) 0.339(8) 0.295(3)
H11 H 0.289(3) 0.430(8) 0.358(3)
loop_
_geom_bond_atom_site_label_1
_geom_bond_atom_site_label_2
_geom_bond_site_symmetry_1
_geom_bond_site_symmetry_2
Sr1 O2 1_555 1_555
Co1 O1 1_555 1_555
O1 C6 1_555 1_555
O2 C6 1_555 1_555
O3 C7 1_555 1_555
O4 C7 1_555 1_555
O5 Co1 1_555 1_555
H1 O5 1_555 1_555
H2 O5 1_555 1_555
O6 Sr1 1_555 1_555
H3 O6 1_555 1_555
H4 O6 1_555 1_555
O7 Sr1 1_555 1_555
H5 O7 1_555 1_555
H6 O7 1_555 1_555
N1 Co1 1_555 1_555
C1 N1 1_555 1_555
C2 C1 1_555 1_555
H7 C2 1_555 1_555
C3 C2 1_555 1_555
C4 C3 1_555 1_555
H8 C4 1_555 1_555
C5 N1 1_555 1_555
H9 C5 1_555 1_555
C6 C1 1_555 1_555
C7 C3 1_555 1_555
O8 H10 1_555 1_555
H11 O8 1_555 1_555
O1A C6A 1_555 1_555
O2A Sr1 1_555 1_555
O3A C7A 1_555 1_555
O4A C7A 1_555 1_555
O6A Sr1 1_555 1_555
H3A O6A 1_555 1_555
H4A O6A 1_555 1_555
O7A Sr1 1_555 1_555
H5A O7A 1_555 1_555
H6A O7A 1_555 1_555
N1A C1A 1_555 1_555
C1A C2A 1_555 1_555
C2A H7A 1_555 1_555
C3A C2A 1_555 1_555
C4A C3A 1_555 1_555
H8A C4A 1_555 1_555
C5A N1A 1_555 1_555
H9A C5A 1_555 1_555
C6A O2A 1_555 1_555
C7A C3A 1_555 1_555
O5D Co1 1_555 1_555
H1D O5D 1_555 1_555
H2D O5D 1_555 1_555
Sr1F O3A 1_555 1_555
Sr1F_2 O3 1_555 1_555
Co1A O1A 1_555 1_555
O1D Co1 1_555 1_555
O3F Sr1 1_555 1_555
O3G Sr1 1_555 1_555
N1D Co1 1_555 1_555
C4 C5 1_555 1_555
N1A Co1A 1_555 1_555
C1A C6A 1_555 1_555
C4A C5A 1_555 1_555

#END
