
#######################################################################
#
#                 Cambridge Crystallographic Data Centre
#                                CCDC 
#
#######################################################################
#
# If this CIF has been generated from an entry in the Cambridge 
# Structural Database, then it will include bibliographic, chemical, 
# crystal, experimental, refinement or atomic coordinate data resulting 
# from the CCDC's data processing and validation procedures.
#
#######################################################################

data_ZESTIC01
_chemical_formula_moiety         '(C36 H26 Cd1 N8)n'
_symmetry_cell_setting           monoclinic
_symmetry_space_group_name_H-M   'C c'
_symmetry_Int_Tables_number      9
_space_group_name_Hall           'C -2yc'
loop_
_symmetry_equiv_pos_site_id
_symmetry_equiv_pos_as_xyz
1 x,y,z
2 x,-y,1/2+z
3 1/2+x,1/2+y,z
4 1/2+x,1/2-y,1/2+z
_cell_length_a                   24.7115(5)
_cell_length_b                   9.6638(2)
_cell_length_c                   18.3643(4)
_cell_angle_alpha                90
_cell_angle_beta                 107.8560(10)
_cell_angle_gamma                90
_cell_volume                     4174.27
loop_
_atom_site_label
_atom_site_type_symbol
_atom_site_fract_x
_atom_site_fract_y
_atom_site_fract_z
_atom_site_U_iso_or_equiv
_atom_site_thermal_displace_type
C1 C -0.54183(14) -0.1221(3) -0.27942(16) 0.0330 Uani
H1 H -0.5063 -0.0955 -0.2818 0.0400 Uiso
C2 C -0.58959(16) -0.0319(3) -0.2954(2) 0.0424 Uani
H2 H -0.5910 0.0608 -0.3094 0.0510 Uiso
C3 C -0.63414(14) -0.1124(3) -0.28577(17) 0.0334 Uani
H3 H -0.6713 -0.0842 -0.2921 0.0400 Uiso
C4 C -0.61039(12) -0.2480(3) -0.26401(15) 0.0245 Uani
C5 C -0.64140(11) -0.3625(2) -0.25296(12) 0.0213 Uani
C6 C -0.62177(11) -0.5010(3) -0.23797(13) 0.0216 Uani
C7 C -0.65485(12) -0.6127(3) -0.22220(14) 0.0240 Uani
H4 H -0.6925 -0.6085 -0.2226 0.0290 Uiso
C8 C -0.62001(14) -0.7272(3) -0.20640(17) 0.0306 Uani
H5 H -0.6293 -0.8155 -0.1939 0.0370 Uiso
C9 C -0.56678(13) -0.6823(3) -0.21310(14) 0.0285 Uani
H6 H -0.5352 -0.7395 -0.2053 0.0340 Uiso
C10 C -0.70257(11) -0.3391(3) -0.26280(13) 0.0240 Uani
C11 C -0.71902(13) -0.2630(3) -0.20859(14) 0.0304 Uani
H7 H -0.6916 -0.2291 -0.1654 0.0370 Uiso
C12 C -0.77622(12) -0.2379(3) -0.21886(15) 0.0311 Uani
H8 H -0.7871 -0.1891 -0.1819 0.0370 Uiso
C13 C -0.81764(11) -0.2857(3) -0.28468(13) 0.0235 Uani
C14 C -0.80144(12) -0.3615(3) -0.33919(14) 0.0301 Uani
H9 H -0.8286 -0.3934 -0.3832 0.0360 Uiso
C15 C -0.74380(13) -0.3887(3) -0.32661(15) 0.0307 Uani
H10 H -0.7329 -0.4416 -0.3621 0.0370 Uiso
C16 C -0.89629(15) -0.1382(3) -0.27602(18) 0.0388 Uani
H11 H -0.8735 -0.0648 -0.2517 0.0470 Uiso
C17 C -0.96837(13) -0.2646(3) -0.32742(17) 0.0338 Uani
H12 H -1.0058 -0.2949 -0.3460 0.0410 Uiso
C18 C -0.92212(13) -0.3406(3) -0.32926(18) 0.0357 Uani
H13 H -0.9217 -0.4294 -0.3485 0.0430 Uiso
C19 C -0.42295(14) -0.2780(3) -0.35868(15) 0.0368 Uani
H14 H -0.4544 -0.2844 -0.4021 0.0440 Uiso
C20 C -0.36777(15) -0.2328(4) -0.35893(16) 0.0478 Uani
H15 H -0.3572 -0.2049 -0.4011 0.0570 Uiso
C21 C -0.33442(15) -0.2389(4) -0.28558(16) 0.0412 Uani
H16 H -0.2962 -0.2149 -0.2680 0.0490 Uiso
C22 C -0.36782(13) -0.2890(3) -0.23872(15) 0.0276 Uani
C23 C -0.34895(11) -0.3077(3) -0.15989(13) 0.0251 Uani
C24 C -0.38009(13) -0.3659(3) -0.11494(16) 0.0261 Uani
C25 C -0.36229(17) -0.3687(4) -0.03373(19) 0.0369 Uani
H17 H -0.3276 -0.3366 -0.0020 0.0440 Uiso
C26 C -0.4038(2) -0.4254(4) -0.0099(2) 0.0405 Uani
H18 H -0.4038 -0.4402 0.0401 0.0490 Uiso
C27 C -0.44763(15) -0.4575(3) -0.07870(17) 0.0325 Uani
H19 H -0.4819 -0.4988 -0.0800 0.0390 Uiso
C28 C -0.29054(12) -0.2588(3) -0.11923(13) 0.0274 Uani
C29 C -0.24858(13) -0.3482(3) -0.07816(16) 0.0322 Uani
H20 H -0.2567 -0.4419 -0.0763 0.0390 Uiso
C30 C -0.19505(12) -0.3005(3) -0.04005(14) 0.0295 Uani
H21 H -0.1676 -0.3620 -0.0119 0.0350 Uiso
C31 C -0.18161(11) -0.1644(3) -0.04291(12) 0.0252 Uani
C32 C -0.22226(14) -0.0723(3) -0.08396(14) 0.0296 Uani
H22 H -0.2135 0.0211 -0.0850 0.0350 Uiso
C33 C -0.27602(12) -0.1195(3) -0.12341(14) 0.0273 Uani
H23 H -0.3029 -0.0583 -0.1531 0.0330 Uiso
C34 C -0.09920(13) -0.1411(3) 0.07362(14) 0.0270 Uani
H24 H -0.1125 -0.2018 0.1035 0.0320 Uiso
C35 C -0.04717(14) 0.0028(3) 0.03689(17) 0.0301 Uani
H25 H -0.0171 0.0611 0.0374 0.0360 Uiso
C36 C -0.09268(16) -0.0221(4) -0.02568(18) 0.0343 Uani
H26 H -0.0997 0.0155 -0.0743 0.0410 Uiso
N1 N -0.55383(10) -0.2483(2) -0.26071(11) 0.0230 Uani
N2 N -0.56747(11) -0.5478(2) -0.23206(12) 0.0249 Uani
N3 N -0.87670(11) -0.2570(3) -0.29654(15) 0.0290 Uani
N4 N -0.95245(10) -0.1399(2) -0.29510(12) 0.0279 Uani
N5 N -0.42331(10) -0.3101(2) -0.28748(12) 0.0261 Uani
N6 N -0.43403(16) -0.4216(3) -0.14148(19) 0.0297 Uani
N7 N -0.12642(11) -0.1151(3) -0.00193(12) 0.0227 Uani
N8 N -0.05144(15) -0.0691(2) 0.09896(17) 0.0258 Uani
Cd1 Cd -0.496499(9) -0.433510(14) -0.264310(9) 0.0211 Uani
N4B N -0.45245(10) -0.6399(2) -0.29510(12) 0.0279 Uani
N8C N -0.55144(15) -0.4309(2) -0.40104(17) 0.0258 Uani
Cd1B Cd -0.996499(9) 0.066490(14) -0.264310(9) 0.0211 Uani
Cd1C Cd 0.003501(9) -0.066490(14) 0.235690(9) 0.0211 Uani
loop_
_atom_site_aniso_label
_atom_site_aniso_U_11
_atom_site_aniso_U_22
_atom_site_aniso_U_33
_atom_site_aniso_U_23
_atom_site_aniso_U_13
_atom_site_aniso_U_12
C1 0.0264(17) 0.0293(13) 0.0425(14) -0.0048(11) 0.0092(11) -0.0048(12)
C2 0.035(2) 0.0263(13) 0.067(2) 0.0020(13) 0.0173(16) 0.0002(12)
C3 0.0264(18) 0.0268(12) 0.0500(15) 0.0027(11) 0.0162(13) 0.0076(11)
C4 0.0197(16) 0.0255(11) 0.0312(12) -0.0006(9) 0.0121(11) 0.0066(10)
C5 0.0128(14) 0.0275(11) 0.0226(9) -0.0050(8) 0.0038(9) 0.0031(9)
C6 0.0099(13) 0.0290(12) 0.0268(10) -0.0029(8) 0.0071(9) 0.0012(9)
C7 0.0148(15) 0.0296(11) 0.0289(11) -0.0026(9) 0.0085(10) -0.0007(10)
C8 0.0230(17) 0.0303(14) 0.0420(14) 0.0061(11) 0.0152(13) 0.0023(11)
C9 0.0203(16) 0.0324(13) 0.0314(11) 0.0064(10) 0.0059(11) 0.0077(11)
C10 0.0193(15) 0.0272(11) 0.0278(10) -0.0013(8) 0.0108(10) 0.0061(9)
C11 0.0186(16) 0.0449(15) 0.0266(11) -0.0087(10) 0.0052(10) 0.0104(11)
C12 0.0128(16) 0.0459(15) 0.0334(12) -0.0102(10) 0.0051(10) 0.0069(11)
C13 0.0094(14) 0.0307(12) 0.0282(10) 0.0000(9) 0.0027(9) 0.0074(9)
C14 0.0107(15) 0.0418(15) 0.0324(12) -0.0163(10) -0.0014(10) 0.0042(11)
C15 0.0212(17) 0.0388(13) 0.0310(11) -0.0108(10) 0.0063(11) 0.0091(11)
C16 0.030(2) 0.0377(16) 0.0495(16) -0.0137(13) 0.0135(14) 0.0086(13)
C17 0.0075(16) 0.0462(16) 0.0465(14) -0.0051(12) 0.0066(11) 0.0029(11)
C18 0.0133(17) 0.0343(14) 0.0564(17) -0.0084(12) 0.0063(12) 0.0011(11)
C19 0.0273(19) 0.0454(16) 0.0297(12) 0.0024(11) -0.0029(11) -0.0041(12)
C20 0.034(2) 0.080(2) 0.0247(12) 0.0092(13) 0.0019(12) -0.0169(17)
C21 0.0225(19) 0.067(2) 0.0337(13) -0.0029(13) 0.0081(12) -0.0173(14)
C22 0.0179(16) 0.0358(14) 0.0246(11) 0.0022(10) -0.0002(10) -0.0022(11)
C23 0.0086(14) 0.0362(13) 0.0262(10) -0.0032(9) -0.0012(9) 0.0008(10)
C24 0.0117(16) 0.0368(14) 0.0268(12) -0.0039(10) 0.0013(10) -0.0006(11)
C25 0.029(2) 0.049(2) 0.0309(15) 0.0002(13) 0.0065(14) -0.0061(15)
C26 0.026(2) 0.072(3) 0.0216(13) -0.0082(13) 0.0047(13) -0.0013(16)
C27 0.0190(18) 0.0475(18) 0.0285(14) -0.0049(12) 0.0036(12) -0.0053(13)
C28 0.0142(15) 0.0386(13) 0.0238(10) -0.0038(9) -0.0024(9) -0.0052(10)
C29 0.0137(16) 0.0366(14) 0.0409(13) -0.0012(10) 0.0002(11) -0.0010(10)
C30 0.0133(15) 0.0404(14) 0.0275(11) 0.0001(10) -0.0044(9) 0.0007(11)
C31 0.0094(14) 0.0414(14) 0.0199(9) -0.0019(9) -0.0029(8) -0.0056(9)
C32 0.0254(18) 0.0363(13) 0.0245(10) 0.0021(9) 0.0039(10) -0.0092(11)
C33 0.0162(15) 0.0331(12) 0.0271(11) 0.0013(9) -0.0014(9) -0.0011(10)
C34 0.0222(18) 0.0397(15) 0.0182(10) 0.0035(9) 0.0049(10) -0.0027(12)
C35 0.0202(16) 0.0378(16) 0.0308(13) -0.0030(11) 0.0056(11) -0.0122(12)
C36 0.0198(18) 0.056(2) 0.0225(12) 0.0010(13) -0.0002(11) -0.0175(16)
N1 0.0146(12) 0.0263(10) 0.0261(9) -0.0052(7) 0.0033(8) -0.0006(8)
N2 0.0148(13) 0.0314(11) 0.0281(9) 0.0008(8) 0.0061(9) 0.0070(8)
N3 0.0180(14) 0.0313(12) 0.0411(12) -0.0054(10) 0.0139(10) 0.0022(9)
N4 0.0079(13) 0.0395(12) 0.0332(10) -0.0066(9) 0.0017(8) 0.0083(9)
N5 0.0108(13) 0.0353(12) 0.0284(9) 0.0013(8) 0.0006(8) 0.0011(9)
N6 0.0216(19) 0.0390(14) 0.0268(13) 0.0013(9) 0.0051(12) -0.0091(10)
N7 0.0175(15) 0.0353(12) 0.0113(8) -0.0003(8) -0.0015(9) -0.0058(10)
N8 0.0110(17) 0.0396(14) 0.0215(12) 0.0059(8) -0.0027(10) -0.0029(8)
Cd1 0.00940(9) 0.02927(7) 0.02273(6) -0.00244(8) 0.00223(5) 0.00166(9)
N4B 0.0079 0.0395 0.0332 -0.0066 0.0017 0.0083
N8C 0.011 0.0396 0.0215 -0.0059 -0.0027 0.0029
Cd1B 0.0094 0.02927 0.02273 -0.00244 0.00223 0.00166
Cd1C 0.0094 0.02927 0.02273 0.00244 0.00223 -0.00166
loop_
_geom_bond_atom_site_label_1
_geom_bond_atom_site_label_2
_geom_bond_site_symmetry_1
_geom_bond_site_symmetry_2
C1 H1 1_555 1_555
C2 C1 1_555 1_555
H2 C2 1_555 1_555
C3 C2 1_555 1_555
H3 C3 1_555 1_555
C4 C3 1_555 1_555
C5 C4 1_555 1_555
C6 C5 1_555 1_555
C7 C6 1_555 1_555
H4 C7 1_555 1_555
C8 C7 1_555 1_555
H5 C8 1_555 1_555
C9 C8 1_555 1_555
H6 C9 1_555 1_555
C10 C5 1_555 1_555
C11 C10 1_555 1_555
H7 C11 1_555 1_555
C12 C11 1_555 1_555
H8 C12 1_555 1_555
C13 C12 1_555 1_555
C14 C13 1_555 1_555
H9 C14 1_555 1_555
C15 C10 1_555 1_555
H10 C15 1_555 1_555
C16 H11 1_555 1_555
C17 H12 1_555 1_555
C18 C17 1_555 1_555
H13 C18 1_555 1_555
C19 H14 1_555 1_555
C20 C19 1_555 1_555
H15 C20 1_555 1_555
C21 C20 1_555 1_555
H16 C21 1_555 1_555
C22 C21 1_555 1_555
C23 C22 1_555 1_555
C24 C23 1_555 1_555
C25 C24 1_555 1_555
H17 C25 1_555 1_555
C26 C25 1_555 1_555
H18 C26 1_555 1_555
C27 C26 1_555 1_555
H19 C27 1_555 1_555
C28 C23 1_555 1_555
C29 C28 1_555 1_555
H20 C29 1_555 1_555
C30 C29 1_555 1_555
H21 C30 1_555 1_555
C31 C30 1_555 1_555
C32 C31 1_555 1_555
H22 C32 1_555 1_555
C33 C28 1_555 1_555
H23 C33 1_555 1_555
C34 H24 1_555 1_555
C35 H25 1_555 1_555
C36 C35 1_555 1_555
H26 C36 1_555 1_555
N1 C1 1_555 1_555
N2 C6 1_555 1_555
N3 C13 1_555 1_555
N4 C16 1_555 1_555
N5 C19 1_555 1_555
N6 C24 1_555 1_555
N7 C31 1_555 1_555
N8 C34 1_555 1_555
Cd1 N1 1_555 1_555
N4B Cd1 1_555 1_555
N8C Cd1 1_555 1_555
Cd1B N4 1_555 1_555
Cd1C N8 1_555 1_555
C4 N1 1_555 1_555
C9 N2 1_555 1_555
C14 C15 1_555 1_555
C16 N3 1_555 1_555
C17 N4 1_555 1_555
C18 N3 1_555 1_555
C22 N5 1_555 1_555
C27 N6 1_555 1_555
C32 C33 1_555 1_555
C34 N7 1_555 1_555
C35 N8 1_555 1_555
C36 N7 1_555 1_555
N2 Cd1 1_555 1_555
N5 Cd1 1_555 1_555
N6 Cd1 1_555 1_555

#END
