
#######################################################################
#
#                 Cambridge Crystallographic Data Centre
#                                CCDC 
#
#######################################################################
#
# If this CIF has been generated from an entry in the Cambridge 
# Structural Database, then it will include bibliographic, chemical, 
# crystal, experimental, refinement or atomic coordinate data resulting 
# from the CCDC's data processing and validation procedures.
#
#######################################################################

data_OGULUY
_chemical_formula_moiety         '(C6 H10 Cu2 I1 N3)n'
_symmetry_cell_setting           tetragonal
_symmetry_space_group_name_H-M   'I 41/a'
_symmetry_Int_Tables_number      88
_space_group_name_Hall           '-I 4ad'
loop_
_symmetry_equiv_pos_site_id
_symmetry_equiv_pos_as_xyz
1 x,y,z
2 1/2-x,-y,1/2+z
3 3/4-y,1/4+x,1/4+z
4 3/4+y,3/4-x,3/4+z
5 1/2+x,1/2+y,1/2+z
6 -x,1/2-y,z
7 1/4-y,3/4+x,3/4+z
8 1/4+y,1/4-x,1/4+z
9 -x,-y,-z
10 1/2+x,y,1/2-z
11 1/4+y,3/4-x,3/4-z
12 1/4-y,1/4+x,1/4-z
13 1/2-x,1/2-y,1/2-z
14 x,1/2+y,-z
15 3/4+y,1/4-x,1/4-z
16 3/4-y,3/4+x,3/4-z
_cell_length_a                   17.1338(12)
_cell_length_b                   17.1338(12)
_cell_length_c                   19.6083(13)
_cell_angle_alpha                90
_cell_angle_beta                 90
_cell_angle_gamma                90
_cell_volume                     5756.35
loop_
_atom_site_label
_atom_site_type_symbol
_atom_site_fract_x
_atom_site_fract_y
_atom_site_fract_z
_atom_site_U_iso_or_equiv
_atom_site_thermal_displace_type
I1 I 0.12885(2) 0.794461(19) -0.049666(16) 0.0532 Uani
Cu1 Cu 0.01748(5) 0.67400(4) -0.07142(4) 0.0646 Uani
Cu2 Cu 0.19806(4) 0.61558(4) -0.10930(4) 0.0664 Uani
N1 N 0.0746(2) 0.5993(2) -0.0105(2) 0.0483 Uani
N2 N 0.1483(3) 0.5772(3) -0.0298(2) 0.0543 Uani
N3 N 0.1219(3) 0.5188(3) 0.0671(2) 0.0550 Uani
C1 C 0.0599(3) 0.5632(3) 0.0479(2) 0.0490 Uani
C2 C -0.0118(4) 0.5729(4) 0.0883(3) 0.0650 Uani
H1 H -0.0378 0.5229 0.0931 0.0780 Uiso
H2 H -0.0471 0.6082 0.0648 0.0780 Uiso
C3 C 0.0078(15) 0.6059(13) 0.1593(8) 0.1157 Uani
H3 H 0.0585 0.5878 0.1730 0.1730 Uiso
H4 H -0.0305 0.5885 0.1916 0.1730 Uiso
H5 H 0.0078 0.6619 0.1575 0.1730 Uiso
C4 C 0.1747(3) 0.5298(3) 0.0178(3) 0.0610 Uani
C5 C 0.2533(5) 0.4934(5) 0.0157(5) 0.0917 Uani
H6 H 0.2467 0.4376 0.0100 0.1100 Uiso
H7 H 0.2803 0.5126 -0.0244 0.1100 Uiso
C6 C 0.3023(17) 0.506(2) 0.0735(11) 0.1760 Uani
H8 H 0.3174 0.4570 0.0927 0.2640 Uiso
H9 H 0.2744 0.5360 0.1071 0.2640 Uiso
H10 H 0.3481 0.5345 0.0597 0.2640 Uiso
I1E I -0.12885(2) 0.705539(19) -0.049666(16) 0.0532 Uani
I1J I 0.044461(19) 0.62115(2) -0.200334(16) 0.0532 Uani
Cu1E Cu -0.01748(5) 0.82600(4) -0.07142(4) 0.0646 Uani
Cu1O Cu 0.07600(4) 0.76748(5) -0.17858(4) 0.0646 Uani
Cu2B Cu 0.13442(4) 0.44806(4) 0.14070(4) 0.0664 Uani
N3C N 0.2688(3) 0.6281(3) -0.1829(2) 0.0550 Uani
loop_
_atom_site_aniso_label
_atom_site_aniso_U_11
_atom_site_aniso_U_22
_atom_site_aniso_U_33
_atom_site_aniso_U_23
_atom_site_aniso_U_13
_atom_site_aniso_U_12
I1 0.0534(2) 0.0553(2) 0.0509(2) -0.00263(13) -0.00255(13) -0.00092(13)
Cu1 0.0690(4) 0.0641(4) 0.0607(4) 0.0178(3) 0.0057(3) 0.0156(3)
Cu2 0.0686(5) 0.0714(5) 0.0591(4) 0.0079(3) 0.0231(3) -0.0040(3)
N1 0.052(2) 0.046(2) 0.047(2) 0.0093(16) 0.0068(17) 0.0061(17)
N2 0.054(2) 0.051(2) 0.058(2) 0.0105(19) 0.0080(19) 0.0018(18)
N3 0.062(3) 0.052(2) 0.051(2) 0.0136(18) -0.0042(19) 0.0016(19)
C1 0.061(3) 0.043(2) 0.043(2) 0.0071(18) 0.0041(19) 0.001(2)
C2 0.076(3) 0.063(3) 0.056(3) 0.014(2) 0.016(3) 0.005(3)
C3 0.132(8) 0.108(8) 0.107(7) -0.014(7) 0.023(6) 0.018(7)
C4 0.054(3) 0.061(3) 0.068(3) 0.017(3) 0.002(2) 0.000(2)
C5 0.070(4) 0.098(4) 0.107(5) 0.028(4) 0.001(3) 0.009(3)
C6 0.132(12) 0.185(16) 0.211(16) 0.055(13) 0.002(13) -0.002(13)
I1E 0.0534 0.0553 0.0509 0.00263 0.00255 -0.00092
I1J 0.0553 0.0534 0.0509 -0.00255 0.00263 0.00092
Cu1E 0.069 0.0641 0.0607 -0.0178 -0.0057 0.0156
Cu1O 0.0641 0.069 0.0607 -0.0057 0.0178 -0.0156
Cu2B 0.0714 0.0686 0.0591 0.0231 -0.0079 0.004
N3C 0.052 0.062 0.051 0.0042 0.0136 -0.0016
loop_
_geom_bond_atom_site_label_1
_geom_bond_atom_site_label_2
_geom_bond_site_symmetry_1
_geom_bond_site_symmetry_2
I1 Cu1 1_555 1_555
Cu1 N1 1_555 1_555
Cu2 N2 1_555 1_555
N1 N2 1_555 1_555
N2 C4 1_555 1_555
N3 C1 1_555 1_555
C1 N1 1_555 1_555
C2 C1 1_555 1_555
H1 C2 1_555 1_555
H2 C2 1_555 1_555
C3 C2 1_555 1_555
H3 C3 1_555 1_555
H4 C3 1_555 1_555
H5 C3 1_555 1_555
C4 N3 1_555 1_555
C5 C4 1_555 1_555
H6 C5 1_555 1_555
H7 C5 1_555 1_555
C6 C5 1_555 1_555
H8 C6 1_555 1_555
H9 C6 1_555 1_555
H10 C6 1_555 1_555
I1E Cu1 1_555 1_555
I1J Cu1 1_555 1_555
Cu1E I1 1_555 1_555
Cu1O I1 1_555 1_555
Cu2B N3 1_555 1_555
N3C Cu2 1_555 1_555
I1E Cu1E 1_555 1_555
I1J Cu1O 1_555 1_555

#END
