
#######################################################################
#
#                 Cambridge Crystallographic Data Centre
#                                CCDC 
#
#######################################################################
#
# If this CIF has been generated from an entry in the Cambridge 
# Structural Database, then it will include bibliographic, chemical, 
# crystal, experimental, refinement or atomic coordinate data resulting 
# from the CCDC's data processing and validation procedures.
#
#######################################################################

data_OREZES
_chemical_formula_moiety         '(C36 H54 Au3 Ca1 Cl3 Cu6 N6 O22 S6 6+)n'
_symmetry_cell_setting           hexagonal
_symmetry_space_group_name_H-M   'P 63'
_symmetry_Int_Tables_number      173
_space_group_name_Hall           'P 6c'
loop_
_symmetry_equiv_pos_site_id
_symmetry_equiv_pos_as_xyz
1 x,y,z
2 -y,x-y,z
3 -x+y,-x,z
4 -x,-y,1/2+z
5 y,-x+y,1/2+z
6 x-y,x,1/2+z
_cell_length_a                   17.850(3)
_cell_length_b                   17.850(3)
_cell_length_c                   13.064(2)
_cell_angle_alpha                90
_cell_angle_beta                 90
_cell_angle_gamma                120
_cell_volume                     3604.82
loop_
_atom_site_label
_atom_site_type_symbol
_atom_site_fract_x
_atom_site_fract_y
_atom_site_fract_z
O8 O -0.0000 0.0000 0.234(13)
Cu1 Cu 0.5809(2) 0.4452(2) 0.13214(19)
Cu2 Cu 0.5794(3) 0.4441(3) 0.3884(2)
Ca1 Ca 0.6667 0.3333 0.2541(10)
O1 O 0.6418(8) 0.4661(8) 0.2534(15)
O2 O 0.5564(14) 0.3217(14) 0.1373(19)
O3 O 0.4947(11) 0.2000(16) 0.0305(14)
O4 O 0.4368(11) 0.6746(12) -0.1076(14)
O5 O 0.5149(18) 0.8050(26) -0.034(2)
O6 O 0.4240(13) 0.4462(13) -0.0950(15)
O7 O 0.5716(14) 0.5560(13) 0.1131(16)
N1 N 0.5045(15) 0.4047(13) 0.0105(18)
N2 N 0.5094(14) 0.6020(14) -0.0114(16)
C1 C 0.5023(17) 0.2708(16) 0.061(2)
C2 C 0.489(3) 0.458(3) -0.009(3)
C3 C 0.5277(13) 0.5451(14) 0.0396(16)
C4 C 0.478(3) 0.714(4) -0.033(3)
C5 C 0.5208(19) 0.683(2) 0.038(2)
H1 H 0.5811 0.7265 0.0592
C6 C 0.4525 0.6542 0.1203
H2 H 0.4429 0.7036 0.1084
H3 H 0.4956 0.6753 0.1763
C7 C 0.377(2) 0.610(2) 0.193(3)
H4 H 0.3253 0.5919 0.1495
H5 H 0.3810 0.6577 0.2364
C8 C 0.283(5) 0.416(3) 0.214(5)
H6 H 0.3054 0.4232 0.1439
H7 H 0.2218 0.3999 0.2116
H8 H 0.2886 0.3703 0.2484
S1 S 0.320(3) 0.1817(19) 0.200(2)
C9 C 0.4525(14) 0.3111(13) 0.002(2)
H9 H 0.4656 0.3033 -0.0700
C10 C 0.363(2) 0.245(2) 0.007(4)
H10 H 0.3534 0.2255 -0.0649
H11 H 0.3360 0.2821 0.0119
C11 C 0.2919 0.1637 0.0580
H12 H 0.2926 0.1117 0.0327
H13 H 0.2342 0.1568 0.0449
C12 C 0.238(2) 0.219(2) 0.175(3)
H14 H 0.2684 0.2798 0.1544
H15 H 0.2045 0.2119 0.2374
H16 H 0.1984 0.1838 0.1200
S2 S 0.3447 0.5179 0.2842
Au1 Au 0.3954 0.3540 0.2681
Cl1 Cl 0.3257 0.3912 0.3862
O2A O 0.6783(14) 1.2347(20) 0.1373(19)
O3A O 0.8000(16) 1.2947(19) 0.0305(14)
O4A O 0.3254(12) 0.7622(16) -0.1076(14)
O5A O 0.1950(26) 0.7099(32) -0.034(2)
O6A O 0.5538(13) 0.9778(18) -0.0950(15)
O7A O 0.4440(13) 1.0156(19) 0.1131(16)
N1A N 0.5953(13) 1.0998(20) 0.0105(18)
N2A N 0.3980(14) 0.9074(20) -0.0114(16)
C1A C 0.7292(16) 1.2315(23) 0.061(2)
C2A C 0.542(3) 1.031(4) -0.009(3)
C3A C 0.4549(14) 0.9826(19) 0.0396(16)
C4A C 0.286(4) 0.764(5) -0.033(3)
C5A C 0.317(2) 0.8378(28) 0.038(2)
H1A H 0.2735 0.8546 0.0592
C6A C 0.3458 0.7983 0.1203
H2A H 0.2964 0.7393 0.1084
H3A H 0.3247 0.8203 0.1763
C7A C 0.390(2) 0.767(3) 0.193(3)
H4A H 0.4081 0.7334 0.1495
H5A H 0.3423 0.7233 0.2364
C8A C 0.584(3) 0.867(6) 0.214(5)
H6A H 0.5768 0.8822 0.1439
H7A H 0.6001 0.8219 0.2116
H8A H 0.6297 0.9183 0.2484
S1A S 0.8183(19) 1.1383(36) 0.200(2)
C9A C 0.6889(13) 1.1414(19) 0.002(2)
H9A H 0.6967 1.1623 -0.0700
C10A C 0.755(2) 1.118(3) 0.007(4)
H10A H 0.7745 1.1279 -0.0649
H11A H 0.7179 1.0539 0.0119
C11A C 0.8363 1.1282 0.0580
H12A H 0.8883 1.1809 0.0327
H13A H 0.8432 1.0774 0.0449
C12A C 0.781(2) 1.019(3) 0.175(3)
H14A H 0.7202 0.9886 0.1544
H15A H 0.7881 0.9926 0.2374
H16A H 0.8162 1.0146 0.1200
S2A S 0.4821 0.8268 0.2842
O2B O -0.2347(20) 0.4436(14) 0.1373(19)
O3B O -0.2947(19) 0.5053(11) 0.0305(14)
O4B O 0.2378(16) 0.5632(11) -0.1076(14)
O5B O 0.2901(32) 0.4851(18) -0.034(2)
O6B O 0.0222(18) 0.5760(13) -0.0950(15)
O7B O -0.0156(19) 0.4284(14) 0.1131(16)
N1B N -0.0998(20) 0.4955(15) 0.0105(18)
N2B N 0.0926(20) 0.4906(14) -0.0114(16)
C1B C -0.2315(23) 0.4977(17) 0.061(2)
C2B C -0.031(4) 0.511(3) -0.009(3)
C3B C 0.0174(19) 0.4723(13) 0.0396(16)
C4B C 0.236(5) 0.522(3) -0.033(3)
C5B C 0.1622(28) 0.4792(19) 0.038(2)
H1B H 0.1454 0.4189 0.0592
C6B C 0.2017 0.5475 0.1203
H2B H 0.2607 0.5571 0.1084
H3B H 0.1797 0.5044 0.1763
C7B C 0.233(3) 0.623(2) 0.193(3)
H4B H 0.2666 0.6747 0.1495
H5B H 0.2767 0.6190 0.2364
C8B C 0.133(6) 0.717(5) 0.214(5)
H6B H 0.1178 0.6946 0.1439
H7B H 0.1781 0.7782 0.2116
H8B H 0.0817 0.7114 0.2484
S1B S -0.1383(36) 0.680(3) 0.200(2)
C9B C -0.1414(19) 0.5475(14) 0.002(2)
H9B H -0.1623 0.5344 -0.0700
C10B C -0.118(3) 0.637(2) 0.007(4)
H10B H -0.1279 0.6466 -0.0649
H11B H -0.0539 0.6640 0.0119
C11B C -0.1282 0.7081 0.0580
H12B H -0.1809 0.7074 0.0327
H13B H -0.0774 0.7658 0.0449
C12B C -0.019(3) 0.762(2) 0.175(3)
H14B H 0.0114 0.7316 0.1544
H15B H 0.0074 0.7955 0.2374
H16B H -0.0146 0.8016 0.1200
S2B S 0.1732 0.6553 0.2842
Cu1A Cu 0.5548(2) 0.1357(3) 0.13214(19)
Cu2A Cu 0.5559(3) 0.1353(4) 0.3884(2)
O1A O 0.5339(8) 0.1757(11) 0.2534(15)
Cu1B Cu 0.8643(3) 0.4191(2) 0.13214(19)
Cu2B Cu 0.8647(4) 0.4206(3) 0.3884(2)
O1B O 0.8243(11) 0.3582(8) 0.2534(15)
Au1A Au 0.6460 1.0414 0.2681
Cl1A Cl 0.6088 0.9345 0.3862
Au1B Au -0.0414 0.6046 0.2681
Cl1B Cl 0.0655 0.6743 0.3862
Cu1_2 Cu -0.4191(2) 0.4452(2) 0.13214(19)
Cu1A_2 Cu 0.5548(2) 1.1357(3) 0.13214(19)
Cu1B_2 Cu -0.1357(3) 0.4191(2) 0.13214(19)
Cu1B_3 Cu 0.8643(3) 1.4191(2) 0.13214(19)
Cu2C Cu 0.4206(3) 0.5559(3) -0.1116(2)
Cu2D Cu 0.4441(3) 0.8647(4) -0.1116(2)
Cu2E Cu 0.1353(4) 0.5794(3) -0.1116(2)
Ca1_2 Ca -0.3333 0.3333 0.2541(10)
Ca1_3 Ca 0.6667 1.3333 0.2541(10)
Ca1C Ca 0.3333 0.6667 -0.2459(10)
O2A_2 O 0.6783(14) 0.2347(20) 0.1373(19)
O2B_2 O 0.7653(20) 0.4436(14) 0.1373(19)
O3A_2 O 0.8000(16) 0.2947(19) 0.0305(14)
O3B_2 O 0.7053(19) 0.5053(11) 0.0305(14)
O4C O 0.5632(11) 0.3254(12) 0.3924(14)
O4D O 0.6746(12) 0.2378(16) 0.3924(14)
O4E O 0.7622(16) 0.4368(11) 0.3924(14)
O5C O 0.4851(18) 0.1950(26) 0.466(2)
O5D O 0.8050(26) 0.2901(32) 0.466(2)
O5E O 0.7099(32) 0.5149(18) 0.466(2)
O6C O 0.5760(13) 0.5538(13) 0.4050(15)
O6D O 0.4462(13) 0.0222(18) 0.4050(15)
O6E O 0.9778(18) 0.4240(13) 0.4050(15)
O7A_2 O 0.4440(13) 0.0156(19) 0.1131(16)
O7B_2 O 0.9844(19) 0.4284(14) 0.1131(16)
N1A_2 N 0.5953(13) 0.0998(20) 0.0105(18)
N1B_2 N 0.9002(20) 0.4955(15) 0.0105(18)
N2C N 0.4906(14) 0.3980(14) 0.4886(16)
N2D N 0.6020(14) 0.0926(20) 0.4886(16)
N2E N 0.9074(20) 0.5094(14) 0.4886(16)
loop_
_geom_bond_atom_site_label_1
_geom_bond_atom_site_label_2
_geom_bond_site_symmetry_1
_geom_bond_site_symmetry_2
Cu1 O1 1_555 1_555
Cu2 O1 1_555 1_555
Ca1 O1 1_555 1_555
O2 Cu1 1_555 1_555
O3 C1 1_555 1_555
O4 C4 1_555 1_555
O5 C4 1_555 1_555
O6 C2 1_555 1_555
O7 Cu1 1_555 1_555
N1 Cu1 1_555 1_555
N2 C3 1_555 1_555
C1 O2 1_555 1_555
C2 N1 1_555 1_555
C3 O7 1_555 1_555
C4 C5 1_555 1_555
C5 N2 1_555 1_555
H1 C5 1_555 1_555
C6 C5 1_555 1_555
H2 C6 1_555 1_555
H3 C6 1_555 1_555
C7 C6 1_555 1_555
H4 C7 1_555 1_555
H5 C7 1_555 1_555
C8 H6 1_555 1_555
H7 C8 1_555 1_555
H8 C8 1_555 1_555
S1 C11 1_555 1_555
C9 N1 1_555 1_555
H9 C9 1_555 1_555
C10 C9 1_555 1_555
H10 C10 1_555 1_555
H11 C10 1_555 1_555
C11 C10 1_555 1_555
H12 C11 1_555 1_555
H13 C11 1_555 1_555
C12 S1 1_555 1_555
H14 C12 1_555 1_555
H15 C12 1_555 1_555
H16 C12 1_555 1_555
S2 C7 1_555 1_555
Au1 S1 1_555 1_555
Cl1 Au1 1_555 1_555
O2A C1A 1_555 1_555
O3A C1A 1_555 1_555
O4A C4A 1_555 1_555
O5A C4A 1_555 1_555
O6A C2A 1_555 1_555
O7A C3A 1_555 1_555
N1A C2A 1_555 1_555
N2A C3A 1_555 1_555
C1A C9A 1_555 1_555
C2A C3A 1_555 1_555
C4A C5A 1_555 1_555
C5A N2A 1_555 1_555
H1A C5A 1_555 1_555
C6A C5A 1_555 1_555
H2A C6A 1_555 1_555
H3A C6A 1_555 1_555
C7A C6A 1_555 1_555
H4A C7A 1_555 1_555
H5A C7A 1_555 1_555
C8A H6A 1_555 1_555
H7A C8A 1_555 1_555
H8A C8A 1_555 1_555
S1A C11A 1_555 1_555
C9A N1A 1_555 1_555
H9A C9A 1_555 1_555
C10A C9A 1_555 1_555
H10A C10A 1_555 1_555
H11A C10A 1_555 1_555
C11A C10A 1_555 1_555
H12A C11A 1_555 1_555
H13A C11A 1_555 1_555
C12A S1A 1_555 1_555
H14A C12A 1_555 1_555
H15A C12A 1_555 1_555
H16A C12A 1_555 1_555
S2A C7A 1_555 1_555
O2B C1B 1_555 1_555
O3B C1B 1_555 1_555
O4B C4B 1_555 1_555
O5B C4B 1_555 1_555
O6B C2B 1_555 1_555
O7B C3B 1_555 1_555
N1B C2B 1_555 1_555
N2B C3B 1_555 1_555
C1B C9B 1_555 1_555
C2B C3B 1_555 1_555
C4B C5B 1_555 1_555
C5B N2B 1_555 1_555
H1B C5B 1_555 1_555
C6B C5B 1_555 1_555
H2B C6B 1_555 1_555
H3B C6B 1_555 1_555
C7B C6B 1_555 1_555
H4B C7B 1_555 1_555
H5B C7B 1_555 1_555
C8B H6B 1_555 1_555
H7B C8B 1_555 1_555
H8B C8B 1_555 1_555
S1B C11B 1_555 1_555
C9B N1B 1_555 1_555
H9B C9B 1_555 1_555
C10B C9B 1_555 1_555
H10B C10B 1_555 1_555
H11B C10B 1_555 1_555
C11B C10B 1_555 1_555
H12B C11B 1_555 1_555
H13B C11B 1_555 1_555
C12B S1B 1_555 1_555
H14B C12B 1_555 1_555
H15B C12B 1_555 1_555
H16B C12B 1_555 1_555
S2B C7B 1_555 1_555
Cu1A O3 1_555 1_555
Cu2A O1A 1_555 1_555
O1A Ca1 1_555 1_555
Cu1B O1B 1_555 1_555
Cu2B O1B 1_555 1_555
O1B Ca1 1_555 1_555
Au1A S1A 1_555 1_555
Cl1A Au1A 1_555 1_555
Au1B S1B 1_555 1_555
Cl1B Au1B 1_555 1_555
Cu1_2 O3B 1_555 1_555
Cu1A_2 O2A 1_555 1_555
Cu1B_2 O2B 1_555 1_555
Cu1B_3 O3A 1_555 1_555
Cu2C O4 1_555 1_555
Cu2D O5 1_555 1_555
Cu2E O5A 1_555 1_555
Ca1_2 O2B 1_555 1_555
Ca1_3 O2A 1_555 1_555
Ca1C O4 1_555 1_555
O2A_2 Ca1 1_555 1_555
O2B_2 Ca1 1_555 1_555
O3A_2 Cu1B 1_555 1_555
O3B_2 Cu1 1_555 1_555
O4C Cu2 1_555 1_555
O4D Ca1 1_555 1_555
O4E Ca1 1_555 1_555
O5C Cu2A 1_555 1_555
O5D Cu2B 1_555 1_555
O5E Cu2 1_555 1_555
O6C Cu2 1_555 1_555
O6D Cu2A 1_555 1_555
O6E Cu2B 1_555 1_555
O7A_2 Cu1A 1_555 1_555
O7B_2 Cu1B 1_555 1_555
N1A_2 Cu1A 1_555 1_555
N1B_2 Cu1B 1_555 1_555
N2C Cu2 1_555 1_555
N2D Cu2A 1_555 1_555
N2E Cu2B 1_555 1_555
Ca1 O2 1_555 1_555
Ca1 O4C 1_555 1_555
O6 Cu2C 1_555 1_555
N2 Cu2C 1_555 1_555
C1 C9 1_555 1_555
C2 C3 1_555 1_555
C8 S2 1_555 1_555
O4A Cu2D 1_555 1_555
O4A Ca1C 1_555 1_555
O6A Cu2D 1_555 1_555
O7A Cu1A_2 1_555 1_555
N1A Cu1A_2 1_555 1_555
N2A Cu2D 1_555 1_555
C8A S2A 1_555 1_555
O4B Cu2E 1_555 1_555
O4B Ca1C 1_555 1_555
O5B Cu2C 1_555 1_555
O6B Cu2E 1_555 1_555
O7B Cu1B_2 1_555 1_555
N1B Cu1B_2 1_555 1_555
N2B Cu2E 1_555 1_555
C8B S2B 1_555 1_555
Cu1A O1A 1_555 1_555
Cu1A O2A_2 1_555 1_555
Cu2A O4D 1_555 1_555
Cu1B O2B_2 1_555 1_555
Cu2B O4E 1_555 1_555

#END
