
#######################################################################
#
#                 Cambridge Crystallographic Data Centre
#                                CCDC 
#
#######################################################################
#
# If this CIF has been generated from an entry in the Cambridge 
# Structural Database, then it will include bibliographic, chemical, 
# crystal, experimental, refinement or atomic coordinate data resulting 
# from the CCDC's data processing and validation procedures.
#
#######################################################################

data_AKIXEZ
_chemical_formula_moiety         'C58 H18 Cu8 O16'
_symmetry_cell_setting           rhombohedral
_symmetry_space_group_name_H-M   'R -3 m'
_symmetry_Int_Tables_number      166
_space_group_name_Hall           '-R 3 2"'
loop_
_symmetry_equiv_pos_site_id
_symmetry_equiv_pos_as_xyz
1 x,y,z
2 -y,x-y,z
3 -x+y,-x,z
4 y,x,-z
5 -x,-x+y,-z
6 x-y,-y,-z
7 2/3+x,1/3+y,1/3+z
8 2/3-y,1/3+x-y,1/3+z
9 2/3-x+y,1/3-x,1/3+z
10 2/3+y,1/3+x,1/3-z
11 2/3-x,1/3-x+y,1/3-z
12 2/3+x-y,1/3-y,1/3-z
13 1/3+x,2/3+y,2/3+z
14 1/3-y,2/3+x-y,2/3+z
15 1/3-x+y,2/3-x,2/3+z
16 1/3+y,2/3+x,2/3-z
17 1/3-x,2/3-x+y,2/3-z
18 1/3+x-y,2/3-y,2/3-z
19 -x,-y,-z
20 y,-x+y,-z
21 x-y,x,-z
22 -y,-x,z
23 x,x-y,z
24 -x+y,y,z
25 1/3-x,2/3-y,2/3-z
26 1/3+y,2/3-x+y,2/3-z
27 1/3+x-y,2/3+x,2/3-z
28 1/3-y,2/3-x,2/3+z
29 1/3+x,2/3+x-y,2/3+z
30 1/3-x+y,2/3+y,2/3+z
31 2/3-x,1/3-y,1/3-z
32 2/3+y,1/3-x+y,1/3-z
33 2/3+x-y,1/3+x,1/3-z
34 2/3-y,1/3-x,1/3+z
35 2/3+x,1/3+x-y,1/3+z
36 2/3-x+y,1/3+y,1/3+z
_cell_length_a                   18.4039(2)
_cell_length_b                   18.4039(2)
_cell_length_c                   46.9176(12)
_cell_angle_alpha                90
_cell_angle_beta                 90
_cell_angle_gamma                120
_cell_volume                     13762.1
loop_
_atom_site_label
_atom_site_type_symbol
_atom_site_fract_x
_atom_site_fract_y
_atom_site_fract_z
Cu1 Cu 0.61753(3) 0.808765(16) 0.810457(11)
O1 O 0.55680(13) 0.70425(17) 0.83159(5)
O2 O 0.63890(15) 0.7460(2) 0.87041(5)
C1 C 0.5749(2) 0.6942(3) 0.85620(7)
C2 C 0.44440(17) 0.55560(17) 0.85685(9)
H1 H 0.4347 0.5653 0.8382
C3 C 0.5171(2) 0.6138(3) 0.87079(8)
C4 C 0.5299(3) 0.5997(3) 0.89859(9)
H2 H 0.5784 0.6388 0.9080
C5 C 0.4719(3) 0.5281(3) 0.91283(15)
C6 C 0.4797(3) 0.5203(3) 0.9434(2)
C7 C 0.4885(6) 0.5115(6) 0.9680(2)
C8 C 0.4886(11) 0.4886(11) 1.0000
C9 C 0.5697(12) 0.525(2) 1.0111(4)
C10 C 0.5768(14) 0.521(2) 1.0405(4)
H3 H 0.6199 0.5137 1.0492
C11 C 0.5116(18) 0.510(3) 1.0582(4)
C12 C 0.4369(11) 0.4955(14) 1.0464(3)
C13 C 0.4299(10) 0.4994(14) 1.0168(3)
C14 C 0.3726(18) 0.484(2) 1.0644(5)
H4 H 0.3796 0.4834 1.0847
C15 C 0.2975(19) 0.4679(19) 1.0529(7)
C16 C 0.2852(13) 0.463(2) 1.0237(8)
C17 C 0.3529(17) 0.483(3) 1.0060(6)
H5 H 0.3368 0.4680 0.9865
O3 O 0.5430(4) 0.77149(19) 0.77307(9)
O1C O 0.70425(17) 0.55680(13) 1.16841(5)
O2C O 0.7460(2) 0.63890(15) 1.12959(5)
C1C C 0.6942(3) 0.5749(2) 1.14380(7)
C2C C 0.55560(17) 0.44440(17) 1.14315(9)
H1C H 0.5653 0.4347 1.1618
C3C C 0.6138(3) 0.5171(2) 1.12921(8)
C4C C 0.5997(3) 0.5299(3) 1.10141(9)
H2C H 0.6388 0.5784 1.0920
C5C C 0.5281(3) 0.4719(3) 1.08717(15)
C6C C 0.5203(3) 0.4797(3) 1.0566(2)
C7C C 0.5115(6) 0.4885(6) 1.0320(2)
C9C C 0.525(2) 0.5697(12) 0.9889(4)
C10C C 0.521(2) 0.5768(14) 0.9595(4)
H3C H 0.5137 0.6199 0.9508
C11C C 0.510(3) 0.5116(18) 0.9418(4)
C12C C 0.4955(14) 0.4369(11) 0.9536(3)
C13C C 0.4994(14) 0.4299(10) 0.9832(3)
C14C C 0.484(2) 0.3726(18) 0.9356(5)
H4C H 0.4834 0.3796 0.9153
C15C C 0.4679(19) 0.2975(19) 0.9471(7)
C16C C 0.463(2) 0.2852(13) 0.9763(8)
C17C C 0.483(3) 0.3529(17) 0.9940(6)
H5C H 0.4680 0.3368 1.0135
O1R O 0.44320(13) 0.29575(17) 1.16841(5)
O2R O 0.36110(15) 0.2540(2) 1.12959(5)
C1R C 0.4251(2) 0.3058(3) 1.14380(7)
C3R C 0.4829(2) 0.3862(3) 1.12921(8)
C4R C 0.4701(3) 0.4003(3) 1.10141(9)
H2R H 0.4216 0.3612 1.0920
C8R C 0.5114(11) 0.5114(11) 1.0000
C9R C 0.4303(12) 0.475(2) 0.9889(4)
C10R C 0.4232(14) 0.479(2) 0.9595(4)
H3R H 0.3801 0.4863 0.9508
C11R C 0.4884(18) 0.490(3) 0.9418(4)
C12R C 0.5631(11) 0.5045(14) 0.9536(3)
C13R C 0.5701(10) 0.5006(14) 0.9832(3)
C14R C 0.6274(18) 0.516(2) 0.9356(5)
H4R H 0.6204 0.5166 0.9153
C15R C 0.7025(19) 0.5321(19) 0.9471(7)
C16R C 0.7148(13) 0.537(2) 0.9763(8)
C17R C 0.6471(17) 0.517(3) 0.9940(6)
H5R H 0.6632 0.5320 1.0135
O1U O 0.29575(17) 0.44320(13) 0.83159(5)
O2U O 0.2540(2) 0.36110(15) 0.87041(5)
C1U C 0.3058(3) 0.4251(2) 0.85620(7)
C3U C 0.3862(3) 0.4829(2) 0.87079(8)
C4U C 0.4003(3) 0.4701(3) 0.89859(9)
H2U H 0.3612 0.4216 0.9080
C9U C 0.475(2) 0.4303(12) 1.0111(4)
C10U C 0.479(2) 0.4232(14) 1.0405(4)
H3U H 0.4863 0.3801 1.0492
C11U C 0.490(3) 0.4884(18) 1.0582(4)
C12U C 0.5045(14) 0.5631(11) 1.0464(3)
C13U C 0.5006(14) 0.5701(10) 1.0168(3)
C14U C 0.516(2) 0.6274(18) 1.0644(5)
H4U H 0.5166 0.6204 1.0847
C15U C 0.5321(19) 0.7025(19) 1.0529(7)
C16U C 0.537(2) 0.7148(13) 1.0237(8)
C17U C 0.517(3) 0.6471(17) 1.0060(6)
H5U H 0.5320 0.6632 0.9865
Cu1P Cu 0.71580(3) 0.857902(34) 0.856210(11)
O3P O 0.7903(4) 0.89516(44) 0.89360(9)
Cu1B Cu 0.191235(34) 0.38247(3) 0.810457(11)
Cu1C Cu 0.808765(16) 0.61753(3) 1.189543(11)
Cu1D Cu 0.38247(3) 0.191235(34) 1.189543(11)
Cu1F Cu 0.28420(3) 0.142098(16) 1.143790(11)
Cu1H Cu 0.857902(34) 0.71580(3) 1.143790(11)
Cu1O Cu 0.142098(16) 0.28420(3) 0.856210(11)
O1P O 0.77653(13) 0.81412(21) 0.83508(5)
O1V O 0.55680(13) 0.85255(21) 0.83159(5)
O1X O 0.77653(13) 0.96242(17) 0.83508(5)
O2P O 0.69443(15) 0.77377(25) 0.79626(5)
O2V O 0.63890(15) 0.89290(25) 0.87041(5)
O2X O 0.69443(15) 0.9207(2) 0.79626(5)
loop_
_geom_bond_atom_site_label_1
_geom_bond_atom_site_label_2
_geom_bond_site_symmetry_1
_geom_bond_site_symmetry_2
Cu1 O1 1_555 1_555
O1 C1 1_555 1_555
O2 C1 1_555 1_555
C1 C3 1_555 1_555
C2 H1 1_555 1_555
C3 C2 1_555 1_555
C4 C3 1_555 1_555
H2 C4 1_555 1_555
C5 C4 1_555 1_555
C6 C5 1_555 1_555
C7 C6 1_555 1_555
C8 C7 1_555 1_555
C9 C8 1_555 1_555
C10 C9 1_555 1_555
H3 C10 1_555 1_555
C11 C10 1_555 1_555
C12 C11 1_555 1_555
C13 C8 1_555 1_555
C14 C12 1_555 1_555
H4 C14 1_555 1_555
C15 C14 1_555 1_555
C16 C15 1_555 1_555
C17 C13 1_555 1_555
H5 C17 1_555 1_555
O3 Cu1 1_555 1_555
O1C C1C 1_555 1_555
O2C C1C 1_555 1_555
C1C C3C 1_555 1_555
C2C H1C 1_555 1_555
C3C C2C 1_555 1_555
C4C C3C 1_555 1_555
H2C C4C 1_555 1_555
C5C C4C 1_555 1_555
C6C C10 1_555 1_555
C7C C8 1_555 1_555
C9C C7 1_555 1_555
C10C C6 1_555 1_555
H3C C10C 1_555 1_555
C11C C6 1_555 1_555
C12C C7 1_555 1_555
C13C C8 1_555 1_555
C14C C12C 1_555 1_555
H4C C14C 1_555 1_555
C15C C14C 1_555 1_555
C16C C15C 1_555 1_555
C17C C13C 1_555 1_555
H5C C17C 1_555 1_555
O1R C1R 1_555 1_555
O2R C1R 1_555 1_555
C1R C3R 1_555 1_555
C3R C2C 1_555 1_555
C4R C5C 1_555 1_555
H2R C4R 1_555 1_555
C8R C7 1_555 1_555
C9R C7 1_555 1_555
C10R C6 1_555 1_555
H3R C10R 1_555 1_555
C11R C6 1_555 1_555
C12R C7 1_555 1_555
C13R C8 1_555 1_555
C14R C12R 1_555 1_555
H4R C14R 1_555 1_555
C15R C14R 1_555 1_555
C16R C15R 1_555 1_555
C17R C13R 1_555 1_555
H5R C17R 1_555 1_555
O1U C1U 1_555 1_555
O2U C1U 1_555 1_555
C1U C3U 1_555 1_555
C3U C2 1_555 1_555
C4U C5 1_555 1_555
H2U C4U 1_555 1_555
C9U C8 1_555 1_555
C10U C6C 1_555 1_555
H3U C10U 1_555 1_555
C11U C12 1_555 1_555
C12U C11 1_555 1_555
C13U C8 1_555 1_555
C14U C12U 1_555 1_555
H4U C14U 1_555 1_555
C15U C14U 1_555 1_555
C16U C15U 1_555 1_555
C17U C13U 1_555 1_555
H5U C17U 1_555 1_555
Cu1P O2 1_555 1_555
O3P Cu1P 1_555 1_555
Cu1B O1U 1_555 1_555
Cu1C O1C 1_555 1_555
Cu1D O1R 1_555 1_555
Cu1F O2R 1_555 1_555
Cu1H O2C 1_555 1_555
Cu1O O2U 1_555 1_555
O1P Cu1P 1_555 1_555
O1V Cu1 1_555 1_555
O1X Cu1P 1_555 1_555
O2P Cu1 1_555 1_555
O2V Cu1P 1_555 1_555
O2X Cu1 1_555 1_555
C7 C10C 1_555 1_555
C7 C11C 1_555 1_555
C7 C10R 1_555 1_555
C7 C11R 1_555 1_555
C8 C9C 1_555 1_555
C8 C9R 1_555 1_555
C9 C7C 1_555 1_555
C9 C8R 1_555 1_555
C9 C13R 1_555 1_555
C10 C7C 1_555 1_555
C11 C6C 1_555 1_555
C11 C7C 1_555 1_555
C12 C13 1_555 1_555
C12 C7C 1_555 1_555
C12 C12U 1_555 1_555
C13 C8R 1_555 1_555
C13 C9R 1_555 1_555
C13 C13U 1_555 1_555
C16 C17 1_555 1_555
C5C C6C 1_555 1_555
C6C C7C 1_555 1_555
C6C C11U 1_555 1_555
C7C C8R 1_555 1_555
C7C C9U 1_555 1_555
C7C C10U 1_555 1_555
C7C C11U 1_555 1_555
C7C C12U 1_555 1_555
C9C C10C 1_555 1_555
C9C C8R 1_555 1_555
C9C C13U 1_555 1_555
C10C C11C 1_555 1_555
C11C C12C 1_555 1_555
C11C C12R 1_555 1_555
C12C C13C 1_555 1_555
C12C C11R 1_555 1_555
C12C C12R 1_555 1_555
C13C C8R 1_555 1_555
C13C C13R 1_555 1_555
C13C C9U 1_555 1_555
C16C C17C 1_555 1_555
C3R C4R 1_555 1_555
C8R C9R 1_555 1_555
C8R C13R 1_555 1_555
C8R C9U 1_555 1_555
C8R C13U 1_555 1_555
C9R C10R 1_555 1_555
C10R C11R 1_555 1_555
C11R C12R 1_555 1_555
C12R C13R 1_555 1_555
C16R C17R 1_555 1_555
C3U C4U 1_555 1_555
C9U C10U 1_555 1_555
C10U C11U 1_555 1_555
C11U C12U 1_555 1_555
C12U C13U 1_555 1_555
C16U C17U 1_555 1_555

#END
