
#######################################################################
#
#                 Cambridge Crystallographic Data Centre
#                                CCDC 
#
#######################################################################
#
# If this CIF has been generated from an entry in the Cambridge 
# Structural Database, then it will include bibliographic, chemical, 
# crystal, experimental, refinement or atomic coordinate data resulting 
# from the CCDC's data processing and validation procedures.
#
#######################################################################

data_VALWOX
_chemical_formula_moiety         '(C48 H32 Mg6 N6 O32)n'
_symmetry_cell_setting           cubic
_symmetry_space_group_name_H-M   'P -4 3 n'
_symmetry_Int_Tables_number      218
_space_group_name_Hall           'P -4n 2 3'
loop_
_symmetry_equiv_pos_site_id
_symmetry_equiv_pos_as_xyz
1 x,y,z
2 1/2+y,1/2-x,1/2-z
3 -x,-y,z
4 1/2-y,1/2+x,1/2-z
5 x,-y,-z
6 1/2-y,1/2-x,1/2+z
7 -x,y,-z
8 1/2+y,1/2+x,1/2+z
9 z,x,y
10 1/2+x,1/2-z,1/2-y
11 -z,-x,y
12 1/2-x,1/2+z,1/2-y
13 z,-x,-y
14 1/2-x,1/2-z,1/2+y
15 -z,x,-y
16 1/2+x,1/2+z,1/2+y
17 y,z,x
18 1/2+z,1/2+y,1/2+x
19 1/2+z,1/2-y,1/2-x
20 1/2-z,1/2-y,1/2+x
21 1/2-z,1/2+y,1/2-x
22 y,-z,-x
23 -y,-z,x
24 -y,z,-x
_cell_length_a                   22.0354(3)
_cell_length_b                   22.0354(3)
_cell_length_c                   22.0354(3)
_cell_angle_alpha                90
_cell_angle_beta                 90
_cell_angle_gamma                90
_cell_volume                     10699.5
loop_
_atom_site_label
_atom_site_type_symbol
_atom_site_fract_x
_atom_site_fract_y
_atom_site_fract_z
_atom_site_U_iso_or_equiv
_atom_site_thermal_displace_type
Mg1 Mg 0.17839(7) 0.23958(7) 0.30571(7) 0.0327 Uani
C1 C -0.0180(4) 0.2941(7) 0.0780(3) 0.0757 Uani
C2 C -0.0694(4) 0.2958(6) 0.1125(4) 0.0730 Uani
H1 H -0.1068 0.2995 0.0934 0.0880 Uiso
C3 C -0.0673(3) 0.2920(5) 0.1749(4) 0.0453 Uani
C4 C -0.0114(4) 0.2852(4) 0.2017(3) 0.0473 Uani
H2 H -0.0090 0.2796 0.2435 0.0560 Uiso
C5 C 0.0421(3) 0.2866(6) 0.1672(4) 0.0603 Uani
C6 C 0.0402(4) 0.2883(6) 0.1065(4) 0.0650 Uani
H3 H 0.0755 0.2858 0.0836 0.0780 Uiso
C7 C -0.1267(4) 0.2918(5) 0.2079(4) 0.0527 Uani
C8 C 0.1031(4) 0.2779(5) 0.1975(4) 0.0493 Uani
O1 O 0.2415(3) 0.2415(3) 0.2415(3) 0.0500 Uani
O2 O 0.1116(3) 0.2299(4) 0.3754(3) 0.0830 Uani
O3 O -0.1724(2) 0.3099(3) 0.1779(2) 0.0557 Uani
O4 O -0.1261(3) 0.2785(3) 0.2633(2) 0.0560 Uani
O5 O 0.1489(2) 0.2923(3) 0.1661(3) 0.0637 Uani
O6 O 0.1052(2) 0.2586(3) 0.2517(2) 0.0557 Uani
N1 N -0.0235(3) 0.2959(4) 0.0142(3) 0.0813 Uani
C1F C 0.0180(4) 0.2941(7) -0.0780(3) 0.0757 Uani
C2F C 0.0694(4) 0.2958(6) -0.1125(4) 0.0730 Uani
H1F H 0.1068 0.2995 -0.0934 0.0880 Uiso
C3F C 0.0673(3) 0.2920(5) -0.1749(4) 0.0453 Uani
C4F C 0.0114(4) 0.2852(4) -0.2017(3) 0.0473 Uani
H2F H 0.0090 0.2796 -0.2435 0.0560 Uiso
C5F C -0.0421(3) 0.2866(6) -0.1672(4) 0.0603 Uani
C6F C -0.0402(4) 0.2883(6) -0.1065(4) 0.0650 Uani
H3F H -0.0755 0.2858 -0.0836 0.0780 Uiso
C7F C 0.1267(4) 0.2918(5) -0.2079(4) 0.0527 Uani
C8F C -0.1031(4) 0.2779(5) -0.1975(4) 0.0493 Uani
O3F O 0.1724(2) 0.3099(3) -0.1779(2) 0.0557 Uani
O4F O 0.1261(3) 0.2785(3) -0.2633(2) 0.0560 Uani
O5F O -0.1489(2) 0.2923(3) -0.1661(3) 0.0637 Uani
O6F O -0.1052(2) 0.2586(3) -0.2517(2) 0.0557 Uani
N1F N 0.0235(3) 0.2959(4) -0.0142(3) 0.0813 Uani
Mg1A Mg -0.26042(7) 0.32161(7) 0.19429(7) 0.0327 Uani
O2A O -0.2701(4) 0.3884(3) 0.1246(3) 0.0830 Uani
Mg1F Mg -0.17839(7) 0.23958(7) -0.30571(7) 0.0327 Uani
O1F O -0.2415(3) 0.2415(3) -0.2415(3) 0.0500 Uani
O2F O -0.1116(3) 0.2299(4) -0.3754(3) 0.0830 Uani
Mg1H Mg 0.30571(7) 0.17839(7) 0.23958(7) 0.0327 Uani
C1H C 0.0780(3) -0.0180(4) 0.2941(7) 0.0757 Uani
C2H C 0.1125(4) -0.0694(4) 0.2958(6) 0.0730 Uani
H1H H 0.0934 -0.1068 0.2995 0.0880 Uiso
C3H C 0.1749(4) -0.0673(3) 0.2920(5) 0.0453 Uani
C4H C 0.2017(3) -0.0114(4) 0.2852(4) 0.0473 Uani
H2H H 0.2435 -0.0090 0.2796 0.0560 Uiso
C5H C 0.1672(4) 0.0421(3) 0.2866(6) 0.0603 Uani
C6H C 0.1065(4) 0.0402(4) 0.2883(6) 0.0650 Uani
H3H H 0.0836 0.0755 0.2858 0.0780 Uiso
C7H C 0.2079(4) -0.1267(4) 0.2918(5) 0.0527 Uani
C8H C 0.1975(4) 0.1031(4) 0.2779(5) 0.0493 Uani
O2H O 0.3754(3) 0.1116(3) 0.2299(4) 0.0830 Uani
O3H O 0.1779(2) -0.1724(2) 0.3099(3) 0.0557 Uani
O4H O 0.2633(2) -0.1261(3) 0.2785(3) 0.0560 Uani
O5H O 0.1661(3) 0.1489(2) 0.2923(3) 0.0637 Uani
O6H O 0.2517(2) 0.1052(2) 0.2586(3) 0.0557 Uani
N1H N 0.0142(3) -0.0235(3) 0.2959(4) 0.0813 Uani
C1J C -0.0780(3) 0.0180(4) 0.2941(7) 0.0757 Uani
C2J C -0.1125(4) 0.0694(4) 0.2958(6) 0.0730 Uani
H1J H -0.0934 0.1068 0.2995 0.0880 Uiso
C3J C -0.1749(4) 0.0673(3) 0.2920(5) 0.0453 Uani
C4J C -0.2017(3) 0.0114(4) 0.2852(4) 0.0473 Uani
H2J H -0.2435 0.0090 0.2796 0.0560 Uiso
C5J C -0.1672(4) -0.0421(3) 0.2866(6) 0.0603 Uani
C6J C -0.1065(4) -0.0402(4) 0.2883(6) 0.0650 Uani
H3J H -0.0836 -0.0755 0.2858 0.0780 Uiso
C7J C -0.2079(4) 0.1267(4) 0.2918(5) 0.0527 Uani
C8J C -0.1975(4) -0.1031(4) 0.2779(5) 0.0493 Uani
O3J O -0.1779(2) 0.1724(2) 0.3099(3) 0.0557 Uani
O4J O -0.2633(2) 0.1261(3) 0.2785(3) 0.0560 Uani
O5J O -0.1661(3) -0.1489(2) 0.2923(3) 0.0637 Uani
O6J O -0.2517(2) -0.1052(2) 0.2586(3) 0.0557 Uani
N1J N -0.0142(3) 0.0235(3) 0.2959(4) 0.0813 Uani
Mg1J Mg -0.30571(7) -0.17839(7) 0.23958(7) 0.0327 Uani
O2J O -0.3754(3) -0.1116(3) 0.2299(4) 0.0830 Uani
C1L C 0.0780(3) 0.0180(4) -0.2941(7) 0.0757 Uani
C2L C 0.1125(4) 0.0694(4) -0.2958(6) 0.0730 Uani
H1L H 0.0934 0.1068 -0.2995 0.0880 Uiso
C3L C 0.1749(4) 0.0673(3) -0.2920(5) 0.0453 Uani
C4L C 0.2017(3) 0.0114(4) -0.2852(4) 0.0473 Uani
H2L H 0.2435 0.0090 -0.2796 0.0560 Uiso
C5L C 0.1672(4) -0.0421(3) -0.2866(6) 0.0603 Uani
C6L C 0.1065(4) -0.0402(4) -0.2883(6) 0.0650 Uani
H3L H 0.0836 -0.0755 -0.2858 0.0780 Uiso
C7L C 0.2079(4) 0.1267(4) -0.2918(5) 0.0527 Uani
C8L C 0.1975(4) -0.1031(4) -0.2779(5) 0.0493 Uani
O3L O 0.1779(2) 0.1724(2) -0.3099(3) 0.0557 Uani
O4L O 0.2633(2) 0.1261(3) -0.2785(3) 0.0560 Uani
O5L O 0.1661(3) -0.1489(2) -0.2923(3) 0.0637 Uani
O6L O 0.2517(2) -0.1052(2) -0.2586(3) 0.0557 Uani
N1L N 0.0142(3) 0.0235(3) -0.2959(4) 0.0813 Uani
C1N C -0.0780(3) -0.0180(4) -0.2941(7) 0.0757 Uani
C2N C -0.1125(4) -0.0694(4) -0.2958(6) 0.0730 Uani
H1N H -0.0934 -0.1068 -0.2995 0.0880 Uiso
C3N C -0.1749(4) -0.0673(3) -0.2920(5) 0.0453 Uani
C4N C -0.2017(3) -0.0114(4) -0.2852(4) 0.0473 Uani
H2N H -0.2435 -0.0090 -0.2796 0.0560 Uiso
C5N C -0.1672(4) 0.0421(3) -0.2866(6) 0.0603 Uani
C6N C -0.1065(4) 0.0402(4) -0.2883(6) 0.0650 Uani
H3N H -0.0836 0.0755 -0.2858 0.0780 Uiso
C7N C -0.2079(4) -0.1267(4) -0.2918(5) 0.0527 Uani
C8N C -0.1975(4) 0.1031(4) -0.2779(5) 0.0493 Uani
O3N O -0.1779(2) -0.1724(2) -0.3099(3) 0.0557 Uani
O4N O -0.2633(2) -0.1261(3) -0.2785(3) 0.0560 Uani
O5N O -0.1661(3) 0.1489(2) -0.2923(3) 0.0637 Uani
O6N O -0.2517(2) 0.1052(2) -0.2586(3) 0.0557 Uani
N1N N -0.0142(3) -0.0235(3) -0.2959(4) 0.0813 Uani
Mg1P Mg 0.23958(7) 0.30571(7) 0.17839(7) 0.0327 Uani
O2P O 0.2299(4) 0.3754(3) 0.1116(3) 0.0830 Uani
Mg1B Mg -0.17839(7) -0.23958(7) 0.30571(7) 0.0327 Uani
Mg1D Mg 0.17839(7) -0.23958(7) -0.30571(7) 0.0327 Uani
Mg1E Mg 0.26042(7) 0.32161(7) -0.19429(7) 0.0327 Uani
Mg1I Mg -0.32161(7) 0.19429(7) 0.26042(7) 0.0327 Uani
Mg1K Mg 0.32161(7) -0.19429(7) 0.26042(7) 0.0327 Uani
Mg1L Mg 0.30571(7) -0.17839(7) -0.23958(7) 0.0327 Uani
Mg1M Mg 0.32161(7) 0.19429(7) -0.26042(7) 0.0327 Uani
Mg1N Mg -0.30571(7) 0.17839(7) -0.23958(7) 0.0327 Uani
Mg1O Mg -0.32161(7) -0.19429(7) -0.26042(7) 0.0327 Uani
Mg1Q Mg -0.19429(7) -0.26042(7) -0.32161(7) 0.0327 Uani
Mg1R Mg -0.19429(7) 0.26042(7) 0.32161(7) 0.0327 Uani
Mg1S Mg 0.19429(7) 0.26042(7) -0.32161(7) 0.0327 Uani
Mg1T Mg 0.19429(7) -0.26042(7) 0.32161(7) 0.0327 Uani
Mg1W Mg -0.23958(7) 0.30571(7) -0.17839(7) 0.0327 Uani
O1A O -0.2585(3) 0.2585(3) 0.2585(3) 0.0500 Uani
O1B O -0.2415(3) -0.2415(3) 0.2415(3) 0.0500 Uani
O3C O 0.1901(3) 0.3276(2) 0.3221(2) 0.0557 Uani
O3G O -0.1901(3) 0.3276(2) -0.3221(2) 0.0557 Uani
O3I O 0.3276(2) 0.3221(2) 0.1901(3) 0.0557 Uani
O3Q O -0.3221(2) -0.1901(3) 0.3276(2) 0.0557 Uani
O3S O 0.3221(2) 0.1901(3) 0.3276(2) 0.0557 Uani
O4C O 0.2215(3) 0.3739(3) 0.2367(2) 0.0560 Uani
O4I O 0.3739(3) 0.2367(2) 0.2215(3) 0.0560 Uani
O4K O -0.3739(3) -0.2367(2) 0.2215(3) 0.0560 Uani
O4R O -0.2367(2) 0.2215(3) -0.3739(3) 0.0560 Uani
O4S O 0.2367(2) 0.2215(3) 0.3739(3) 0.0560 Uani
O4W O -0.2785(3) 0.2633(2) 0.1261(3) 0.0560 Uani
O5I O -0.3511(2) 0.3339(3) 0.2077(3) 0.0637 Uani
O5P O 0.2923(3) 0.1661(3) 0.1489(2) 0.0637 Uani
O5V O -0.2923(3) -0.1661(3) 0.1489(2) 0.0637 Uani
O6A O -0.2414(3) 0.3948(2) 0.2483(2) 0.0557 Uani
O6P O 0.2586(3) 0.2517(2) 0.1052(2) 0.0557 Uani
loop_
_atom_site_aniso_label
_atom_site_aniso_U_11
_atom_site_aniso_U_22
_atom_site_aniso_U_33
_atom_site_aniso_U_23
_atom_site_aniso_U_13
_atom_site_aniso_U_12
Mg1 0.0328(9) 0.0303(8) 0.0351(9) -0.0011(9) -0.0062(10) -0.0018(9)
C1 0.030(5) 0.164(13) 0.033(5) 0.002(9) -0.003(4) -0.015(11)
C2 0.030(5) 0.146(12) 0.043(5) -0.013(10) 0.007(5) 0.003(9)
C3 0.022(4) 0.074(7) 0.040(5) -0.006(8) -0.004(4) -0.010(7)
C4 0.044(4) 0.070(6) 0.028(5) 0.009(7) -0.008(5) 0.003(6)
C5 0.023(4) 0.123(11) 0.035(5) -0.014(8) -0.004(4) -0.013(8)
C6 0.029(4) 0.129(11) 0.037(5) 0.007(8) 0.001(4) 0.030(9)
C7 0.043(6) 0.071(7) 0.044(6) -0.013(8) -0.009(5) 0.003(7)
C8 0.029(5) 0.072(7) 0.047(6) -0.022(8) -0.010(5) -0.005(6)
O1 0.050(3) 0.050(3) 0.050(3) 0.042(4) 0.042(4) 0.042(4)
O2 0.061(4) 0.127(6) 0.061(4) -0.010(6) -0.014(4) 0.020(6)
O3 0.031(3) 0.086(5) 0.050(3) 0.001(6) 0.006(3) 0.012(4)
O4 0.057(4) 0.069(5) 0.042(3) -0.018(4) 0.003(4) 0.004(5)
O5 0.035(3) 0.105(6) 0.051(4) 0.009(5) -0.006(3) 0.003(4)
O6 0.038(4) 0.091(5) 0.038(3) 0.008(5) -0.008(3) -0.001(4)
N1 0.033(4) 0.168(8) 0.043(5) 0.001(6) -0.001(4) 0.012(8)
C1F 0.03 0.164 0.033 -0.002 -0.003 0.015
C2F 0.03 0.146 0.043 0.013 0.007 -0.003
C3F 0.022 0.074 0.04 0.006 -0.004 0.01
C4F 0.044 0.07 0.028 -0.009 -0.008 -0.003
C5F 0.023 0.123 0.035 0.014 -0.004 0.013
C6F 0.029 0.129 0.037 -0.007 0.001 -0.03
C7F 0.043 0.071 0.044 0.013 -0.009 -0.003
C8F 0.029 0.072 0.047 0.022 -0.01 0.005
O3F 0.031 0.086 0.05 -0.001 0.006 -0.012
O4F 0.057 0.069 0.042 0.018 0.003 -0.004
O5F 0.035 0.105 0.051 -0.009 -0.006 -0.003
O6F 0.038 0.091 0.038 -0.008 -0.008 0.001
N1F 0.033 0.168 0.043 -0.001 -0.001 -0.012
Mg1A 0.0303 0.0328 0.0351 -0.0062 0.0011 0.0018
O2A 0.127 0.061 0.061 -0.014 0.01 -0.02
Mg1F 0.0328 0.0303 0.0351 0.0011 -0.0062 0.0018
O1F 0.05 0.05 0.05 -0.042 0.042 -0.042
O2F 0.061 0.127 0.061 0.01 -0.014 -0.02
Mg1H 0.0351 0.0328 0.0303 -0.0018 -0.0011 -0.0062
C1H 0.033 0.03 0.164 -0.015 0.002 -0.003
C2H 0.043 0.03 0.146 0.003 -0.013 0.007
C3H 0.04 0.022 0.074 -0.01 -0.006 -0.004
C4H 0.028 0.044 0.07 0.003 0.009 -0.008
C5H 0.035 0.023 0.123 -0.013 -0.014 -0.004
C6H 0.037 0.029 0.129 0.03 0.007 0.001
C7H 0.044 0.043 0.071 0.003 -0.013 -0.009
C8H 0.047 0.029 0.072 -0.005 -0.022 -0.01
O2H 0.061 0.061 0.127 0.02 -0.01 -0.014
O3H 0.05 0.031 0.086 0.012 0.001 0.006
O4H 0.042 0.057 0.069 0.004 -0.018 0.003
O5H 0.051 0.035 0.105 0.003 0.009 -0.006
O6H 0.038 0.038 0.091 -0.001 0.008 -0.008
N1H 0.043 0.033 0.168 0.012 0.001 -0.001
C1J 0.033 0.03 0.164 0.015 -0.002 -0.003
C2J 0.043 0.03 0.146 -0.003 0.013 0.007
C3J 0.04 0.022 0.074 0.01 0.006 -0.004
C4J 0.028 0.044 0.07 -0.003 -0.009 -0.008
C5J 0.035 0.023 0.123 0.013 0.014 -0.004
C6J 0.037 0.029 0.129 -0.03 -0.007 0.001
C7J 0.044 0.043 0.071 -0.003 0.013 -0.009
C8J 0.047 0.029 0.072 0.005 0.022 -0.01
O3J 0.05 0.031 0.086 -0.012 -0.001 0.006
O4J 0.042 0.057 0.069 -0.004 0.018 0.003
O5J 0.051 0.035 0.105 -0.003 -0.009 -0.006
O6J 0.038 0.038 0.091 0.001 -0.008 -0.008
N1J 0.043 0.033 0.168 -0.012 -0.001 -0.001
Mg1J 0.0351 0.0328 0.0303 0.0018 0.0011 -0.0062
O2J 0.061 0.061 0.127 -0.02 0.01 -0.014
C1L 0.033 0.03 0.164 -0.015 -0.002 0.003
C2L 0.043 0.03 0.146 0.003 0.013 -0.007
C3L 0.04 0.022 0.074 -0.01 0.006 0.004
C4L 0.028 0.044 0.07 0.003 -0.009 0.008
C5L 0.035 0.023 0.123 -0.013 0.014 0.004
C6L 0.037 0.029 0.129 0.03 -0.007 -0.001
C7L 0.044 0.043 0.071 0.003 0.013 0.009
C8L 0.047 0.029 0.072 -0.005 0.022 0.01
O3L 0.05 0.031 0.086 0.012 -0.001 -0.006
O4L 0.042 0.057 0.069 0.004 0.018 -0.003
O5L 0.051 0.035 0.105 0.003 -0.009 0.006
O6L 0.038 0.038 0.091 -0.001 -0.008 0.008
N1L 0.043 0.033 0.168 0.012 -0.001 0.001
C1N 0.033 0.03 0.164 0.015 0.002 0.003
C2N 0.043 0.03 0.146 -0.003 -0.013 -0.007
C3N 0.04 0.022 0.074 0.01 -0.006 0.004
C4N 0.028 0.044 0.07 -0.003 0.009 0.008
C5N 0.035 0.023 0.123 0.013 -0.014 0.004
C6N 0.037 0.029 0.129 -0.03 0.007 -0.001
C7N 0.044 0.043 0.071 -0.003 -0.013 0.009
C8N 0.047 0.029 0.072 0.005 -0.022 0.01
O3N 0.05 0.031 0.086 -0.012 0.001 -0.006
O4N 0.042 0.057 0.069 -0.004 -0.018 -0.003
O5N 0.051 0.035 0.105 -0.003 0.009 0.006
O6N 0.038 0.038 0.091 0.001 0.008 0.008
N1N 0.043 0.033 0.168 -0.012 0.001 0.001
Mg1P 0.0303 0.0351 0.0328 -0.0062 -0.0018 -0.0011
O2P 0.127 0.061 0.061 -0.014 0.02 -0.01
Mg1B 0.0328 0.0303 0.0351 0.0011 0.0062 -0.0018
Mg1D 0.0328 0.0303 0.0351 -0.0011 0.0062 0.0018
Mg1E 0.0303 0.0328 0.0351 0.0062 0.0011 -0.0018
Mg1I 0.0328 0.0351 0.0303 -0.0011 0.0018 0.0062
Mg1K 0.0328 0.0351 0.0303 0.0011 -0.0018 0.0062
Mg1L 0.0351 0.0328 0.0303 -0.0018 0.0011 0.0062
Mg1M 0.0328 0.0351 0.0303 0.0011 0.0018 -0.0062
Mg1N 0.0351 0.0328 0.0303 0.0018 -0.0011 0.0062
Mg1O 0.0328 0.0351 0.0303 -0.0011 -0.0018 -0.0062
Mg1Q 0.0351 0.0303 0.0328 -0.0018 -0.0062 -0.0011
Mg1R 0.0351 0.0303 0.0328 -0.0018 0.0062 0.0011
Mg1S 0.0351 0.0303 0.0328 0.0018 0.0062 -0.0011
Mg1T 0.0351 0.0303 0.0328 0.0018 -0.0062 0.0011
Mg1W 0.0303 0.0351 0.0328 0.0062 -0.0018 0.0011
O1A 0.05 0.05 0.05 0.042 -0.042 -0.042
O1B 0.05 0.05 0.05 -0.042 -0.042 0.042
O3C 0.086 0.031 0.05 -0.006 0.001 -0.012
O3G 0.086 0.031 0.05 0.006 0.001 0.012
O3I 0.031 0.05 0.086 0.001 -0.012 -0.006
O3Q 0.05 0.086 0.031 0.012 0.006 0.001
O3S 0.05 0.086 0.031 -0.012 -0.006 0.001
O4C 0.069 0.057 0.042 -0.003 -0.018 -0.004
O4I 0.057 0.042 0.069 -0.018 -0.004 -0.003
O4K 0.057 0.042 0.069 0.018 0.004 -0.003
O4R 0.042 0.069 0.057 0.004 -0.003 0.018
O4S 0.042 0.069 0.057 -0.004 -0.003 -0.018
O4W 0.069 0.042 0.057 -0.003 0.004 0.018
O5I 0.035 0.051 0.105 0.009 -0.003 0.006
O5P 0.105 0.051 0.035 -0.006 0.003 0.009
O5V 0.105 0.051 0.035 0.006 -0.003 0.009
O6A 0.091 0.038 0.038 -0.008 -0.008 0.001
O6P 0.091 0.038 0.038 -0.008 -0.001 0.008
loop_
_geom_bond_atom_site_label_1
_geom_bond_atom_site_label_2
_geom_bond_site_symmetry_1
_geom_bond_site_symmetry_2
Mg1 O1 1_555 1_555
C1 C2 1_555 1_555
C2 H1 1_555 1_555
C3 C2 1_555 1_555
C4 C3 1_555 1_555
H2 C4 1_555 1_555
C5 C4 1_555 1_555
C6 C1 1_555 1_555
H3 C6 1_555 1_555
C7 C3 1_555 1_555
C8 C5 1_555 1_555
O1 Mg1H 1_555 1_555
O2 Mg1 1_555 1_555
O3 C7 1_555 1_555
O4 C7 1_555 1_555
O5 C8 1_555 1_555
O6 Mg1 1_555 1_555
N1 C1 1_555 1_555
C1F C2F 1_555 1_555
C2F H1F 1_555 1_555
C3F C2F 1_555 1_555
C4F C3F 1_555 1_555
H2F C4F 1_555 1_555
C5F C4F 1_555 1_555
C6F C1F 1_555 1_555
H3F C6F 1_555 1_555
C7F C3F 1_555 1_555
C8F C5F 1_555 1_555
O3F C7F 1_555 1_555
O4F C7F 1_555 1_555
O5F C8F 1_555 1_555
O6F C8F 1_555 1_555
N1F N1 1_555 1_555
Mg1A O3 1_555 1_555
O2A Mg1A 1_555 1_555
Mg1F O6F 1_555 1_555
O1F Mg1F 1_555 1_555
O2F Mg1F 1_555 1_555
Mg1H O2H 1_555 1_555
C1H C2H 1_555 1_555
C2H H1H 1_555 1_555
C3H C2H 1_555 1_555
C4H C3H 1_555 1_555
H2H C4H 1_555 1_555
C5H C4H 1_555 1_555
C6H C1H 1_555 1_555
H3H C6H 1_555 1_555
C7H C3H 1_555 1_555
C8H C5H 1_555 1_555
O3H C7H 1_555 1_555
O4H C7H 1_555 1_555
O5H Mg1 1_555 1_555
O6H Mg1H 1_555 1_555
N1H C1H 1_555 1_555
C1J C2J 1_555 1_555
C2J H1J 1_555 1_555
C3J C2J 1_555 1_555
C4J C3J 1_555 1_555
H2J C4J 1_555 1_555
C5J C4J 1_555 1_555
C6J C1J 1_555 1_555
H3J C6J 1_555 1_555
C7J C3J 1_555 1_555
C8J C5J 1_555 1_555
O3J C7J 1_555 1_555
O4J C7J 1_555 1_555
O5J C8J 1_555 1_555
O6J C8J 1_555 1_555
N1J N1H 1_555 1_555
Mg1J O6J 1_555 1_555
O2J Mg1J 1_555 1_555
C1L C2L 1_555 1_555
C2L H1L 1_555 1_555
C3L C2L 1_555 1_555
C4L C3L 1_555 1_555
H2L C4L 1_555 1_555
C5L C4L 1_555 1_555
C6L C1L 1_555 1_555
H3L C6L 1_555 1_555
C7L C3L 1_555 1_555
C8L C5L 1_555 1_555
O3L C7L 1_555 1_555
O4L C7L 1_555 1_555
O5L C8L 1_555 1_555
O6L C8L 1_555 1_555
N1L C1L 1_555 1_555
C1N C2N 1_555 1_555
C2N H1N 1_555 1_555
C3N C2N 1_555 1_555
C4N C3N 1_555 1_555
H2N C4N 1_555 1_555
C5N C4N 1_555 1_555
C6N C1N 1_555 1_555
H3N C6N 1_555 1_555
C7N C3N 1_555 1_555
C8N C5N 1_555 1_555
O3N C7N 1_555 1_555
O4N C7N 1_555 1_555
O5N Mg1F 1_555 1_555
O6N C8N 1_555 1_555
N1N N1L 1_555 1_555
Mg1P O1 1_555 1_555
O2P Mg1P 1_555 1_555
Mg1B O5J 1_555 1_555
Mg1D O5L 1_555 1_555
Mg1E O3F 1_555 1_555
Mg1I O4J 1_555 1_555
Mg1K O4H 1_555 1_555
Mg1L O6L 1_555 1_555
Mg1M O4L 1_555 1_555
Mg1N O1F 1_555 1_555
Mg1O O4N 1_555 1_555
Mg1Q O3N 1_555 1_555
Mg1R O4 1_555 1_555
Mg1S O4F 1_555 1_555
Mg1T O3H 1_555 1_555
Mg1W O5F 1_555 1_555
O1A Mg1A 1_555 1_555
O1B Mg1J 1_555 1_555
O3C Mg1 1_555 1_555
O3G Mg1F 1_555 1_555
O3I Mg1P 1_555 1_555
O3Q Mg1J 1_555 1_555
O3S Mg1H 1_555 1_555
O4C Mg1P 1_555 1_555
O4I Mg1H 1_555 1_555
O4K Mg1J 1_555 1_555
O4R Mg1F 1_555 1_555
O4S Mg1 1_555 1_555
O4W Mg1A 1_555 1_555
O5I Mg1A 1_555 1_555
O5P Mg1H 1_555 1_555
O5V Mg1J 1_555 1_555
O6A Mg1A 1_555 1_555
O6P Mg1P 1_555 1_555
C5 C6 1_555 1_555
C8 O6 1_555 1_555
O5 Mg1P 1_555 1_555
C1F N1F 1_555 1_555
C5F C6F 1_555 1_555
O1F Mg1W 1_555 1_555
C5H C6H 1_555 1_555
C8H O5H 1_555 1_555
C8H O6H 1_555 1_555
C1J N1J 1_555 1_555
C5J C6J 1_555 1_555
O3J Mg1R 1_555 1_555
C5L C6L 1_555 1_555
O3L Mg1S 1_555 1_555
C1N N1N 1_555 1_555
C5N C6N 1_555 1_555
C8N O5N 1_555 1_555
O6N Mg1N 1_555 1_555
Mg1B O1B 1_555 1_555
Mg1I O1A 1_555 1_555
Mg1R O1A 1_555 1_555

#END
