
#######################################################################
#
#                 Cambridge Crystallographic Data Centre
#                                CCDC 
#
#######################################################################
#
# If this CIF has been generated from an entry in the Cambridge 
# Structural Database, then it will include bibliographic, chemical, 
# crystal, experimental, refinement or atomic coordinate data resulting 
# from the CCDC's data processing and validation procedures.
#
#######################################################################

data_PIZPIX01
_chemical_formula_moiety         '(C12 H22 Er2 O20)n'
_symmetry_cell_setting           monoclinic
_symmetry_space_group_name_H-M   'P 21/c'
_symmetry_Int_Tables_number      14
_space_group_name_Hall           '-P 2ybc'
loop_
_symmetry_equiv_pos_site_id
_symmetry_equiv_pos_as_xyz
1 x,y,z
2 -x,1/2+y,1/2-z
3 -x,-y,-z
4 x,1/2-y,1/2+z
_cell_length_a                   8.4570(10)
_cell_length_b                   17.2250(10)
_cell_length_c                   9.6900(10)
_cell_angle_alpha                90
_cell_angle_beta                 112.220(10)
_cell_angle_gamma                90
_cell_volume                     1306.74
loop_
_atom_site_label
_atom_site_type_symbol
_atom_site_fract_x
_atom_site_fract_y
_atom_site_fract_z
Er1 Er 0.65586(3) 0.742599(12) 0.97608(2)
O1 O 0.8366(5) 0.7300(3) 0.8610(4)
O2 O 0.8968(5) 0.7036(2) 0.6637(4)
O3 O 1.4761(4) 0.6946(2) 1.0760(4)
O4 O 1.4118(5) 0.7313(2) 1.2684(4)
O5 O 0.6858(5) 0.8779(2) 0.9084(4)
O6 O 0.5356(5) 0.8548(2) 1.0454(4)
C1 C 0.9389(6) 0.7108(3) 0.8014(5)
C2 C 1.1235(6) 0.6990(3) 0.8973(5)
C3 C 1.1871(7) 0.7167(3) 1.0380(6)
C4 C 1.3711(6) 0.7138(3) 1.1326(5)
C5 C 0.5947(7) 0.9015(3) 0.9744(6)
C6 C 0.5541(7) 0.9855(3) 0.9713(6)
O7 O 0.5735(5) 0.6218(2) 0.8383(4)
O8 O 0.8027(5) 0.6371(2) 1.1338(5)
H1 H 0.609(11) 1.020(6) 0.917(9)
H2 H 1.194(11) 0.682(6) 0.844(10)
H3 H 1.141(13) 0.730(5) 1.096(11)
H4 H 0.6568 0.5852 0.8263
H5 H 0.5459 0.6339 0.7528
H6 H 0.7857 0.5941 1.1060
H7 H 0.8969 0.6327 1.1997
C6B C 0.4459(7) 1.0145(3) 1.0287(6)
C5B C 0.4053(7) 1.0985(3) 1.0256(6)
O5B O 0.3142(5) 1.1221(2) 1.0916(4)
O6B O 0.4644(5) 1.1452(2) 0.9546(4)
H1B H 0.391(11) 0.980(6) 1.083(9)
O1C O 0.8366(5) 0.7700(3) 1.3610(4)
O2C O 0.8968(5) 0.7964(2) 1.1637(4)
O3C O 1.4761(4) 0.8054(2) 1.5760(4)
O4C O 1.4118(5) 0.7687(2) 1.7684(4)
C1C C 0.9389(6) 0.7892(3) 1.3014(5)
C2C C 1.1235(6) 0.8010(3) 1.3973(5)
C3C C 1.1871(7) 0.7833(3) 1.5380(6)
C4C C 1.3711(6) 0.7862(3) 1.6326(5)
H2C H 1.194(11) 0.818(6) 1.344(10)
H3C H 1.141(13) 0.770(5) 1.596(11)
Er1C Er 0.65586(3) 0.757401(12) 1.47608(2)
O7C O 0.5735(5) 0.8782(2) 1.3383(4)
H4C H 0.6568 0.9148 1.3263
H5C H 0.5459 0.8661 1.2528
O8C O 0.8027(5) 0.8629(2) 1.6338(5)
H6C H 0.7857 0.9059 1.6060
H7C H 0.8969 0.8673 1.6997
O3_2 O 0.4761(4) 0.6946(2) 1.0760(4)
O4C_2 O 0.4118(5) 0.7687(2) 0.7684(4)
Er1C_2 Er 0.65586(3) 0.757401(12) 0.47608(2)
Er1_2 Er 1.65586(3) 0.742599(12) 0.97608(2)
Er1C_3 Er 1.65586(3) 0.757401(12) 1.47608(2)
Er1B Er 0.34414(3) 1.257401(12) 1.02392(2)
Er1_3 Er 1.65586(3) 0.742599(12) 1.97608(2)
O2_2 O 0.8968(5) 0.7036(2) 1.6637(4)
O3C_2 O 0.4761(4) 0.8054(2) 1.5760(4)
O4_2 O 0.4118(5) 0.7313(2) 1.2684(4)
O5C O 0.6858(5) 0.6221(2) 1.4084(4)
O6C O 0.5356(5) 0.6452(2) 1.5454(4)
O9 O 0.1473(6) 0.8844(3) 0.8112(5)
H8 H 0.1315 0.9036 0.9078
H9 H 0.1743 0.9084 0.7781
O10 O 0.0723(7) 0.5726(3) 0.5611(6)
H10 H -0.0101 0.5323 0.5092
H11 H -0.0049 0.6091 0.5614
O11 O 0.3048(9) 0.5293(4) 0.8472(7)
H12 H 0.2499 0.5196 0.9522
H13 H 0.3716 0.5763 0.8553
O12 O 0.1803(11) 0.9961(5) 0.5932(9)
H14 H 0.2664 1.0331 0.6317
H15 H 0.0842 0.9938 0.5430
loop_
_geom_bond_atom_site_label_1
_geom_bond_atom_site_label_2
_geom_bond_site_symmetry_1
_geom_bond_site_symmetry_2
Er1 O1 1_555 1_555
O1 C1 1_555 1_555
O2 C1 1_555 1_555
O3 C4 1_555 1_555
O4 C4 1_555 1_555
O5 Er1 1_555 1_555
O6 Er1 1_555 1_555
C1 C2 1_555 1_555
C2 C3 1_555 1_555
C3 C4 1_555 1_555
C5 O5 1_555 1_555
C6 C5 1_555 1_555
O7 Er1 1_555 1_555
O8 Er1 1_555 1_555
H1 C6 1_555 1_555
H2 C2 1_555 1_555
H3 C3 1_555 1_555
H4 O7 1_555 1_555
H5 O7 1_555 1_555
H6 O8 1_555 1_555
H7 O8 1_555 1_555
O9 H8 1_555 1_555
H9 O9 1_555 1_555
O10 H10 1_555 1_555
H11 O10 1_555 1_555
O11 H12 1_555 1_555
H13 O11 1_555 1_555
O12 H14 1_555 1_555
H15 O12 1_555 1_555
C6B C6 1_555 1_555
C5B C6B 1_555 1_555
O5B C5B 1_555 1_555
O6B C5B 1_555 1_555
H1B C6B 1_555 1_555
O1C C1C 1_555 1_555
O2C Er1 1_555 1_555
O3C C4C 1_555 1_555
O4C C4C 1_555 1_555
C1C O2C 1_555 1_555
C2C C1C 1_555 1_555
C3C C2C 1_555 1_555
C4C C3C 1_555 1_555
H2C C2C 1_555 1_555
H3C C3C 1_555 1_555
Er1C O1C 1_555 1_555
O7C Er1C 1_555 1_555
H4C O7C 1_555 1_555
H5C O7C 1_555 1_555
O8C Er1C 1_555 1_555
H6C O8C 1_555 1_555
H7C O8C 1_555 1_555
O3_2 Er1 1_555 1_555
O4C_2 Er1 1_555 1_555
Er1C_2 O2 1_555 1_555
Er1_2 O3 1_555 1_555
Er1C_3 O4 1_555 1_555
Er1B O5B 1_555 1_555
Er1_3 O4C 1_555 1_555
O2_2 Er1C 1_555 1_555
O3C_2 Er1C 1_555 1_555
O4_2 Er1C 1_555 1_555
O5C Er1C 1_555 1_555
O6C Er1C 1_555 1_555
O6 C5 1_555 1_555
O6B Er1B 1_555 1_555
O3C Er1C_3 1_555 1_555

#END
