
#######################################################################
#
#                 Cambridge Crystallographic Data Centre
#                                CCDC 
#
#######################################################################
#
# If this CIF has been generated from an entry in the Cambridge 
# Structural Database, then it will include bibliographic, chemical, 
# crystal, experimental, refinement or atomic coordinate data resulting 
# from the CCDC's data processing and validation procedures.
#
#######################################################################

data_YARYEV
_chemical_formula_moiety         '(C16 H18 Cd2 N6)n'
_symmetry_cell_setting           monoclinic
_symmetry_space_group_name_H-M   'C 2/c'
_symmetry_Int_Tables_number      15
_space_group_name_Hall           '-C 2yc'
loop_
_symmetry_equiv_pos_site_id
_symmetry_equiv_pos_as_xyz
1 x,y,z
2 1/2+x,1/2+y,z
3 -x,y,1/2-z
4 1/2-x,1/2+y,1/2-z
5 -x,-y,-z
6 1/2-x,1/2-y,-z
7 x,-y,1/2+z
8 1/2+x,1/2-y,1/2+z
_cell_length_a                   12.063(2)
_cell_length_b                   12.174(2)
_cell_length_c                   14.621(1)
_cell_angle_alpha                90
_cell_angle_beta                 90.976(9)
_cell_angle_gamma                90
_cell_volume                     2146.85
loop_
_atom_site_label
_atom_site_type_symbol
_atom_site_fract_x
_atom_site_fract_y
_atom_site_fract_z
Cd1 Cd 0.00000 0.49348(3) 0.2500
Cd2 Cd 0.2500 0.2500 0.00000
N1 N 0.1525(4) 0.3360(4) 0.1161(3)
N2 N 0.1551(4) 0.3547(4) -0.1085(3)
N3 N 0.3897(5) 0.3848(5) 0.0143(5)
C1 C 0.1035(4) 0.3894(4) 0.1636(3)
C2 C 0.1037(4) 0.5953(4) 0.3414(4)
H1 H 0.35683 0.45647 0.04942
H2 H 0.45959 0.35162 0.05361
H3 H 0.41725 0.40875 -0.05344
C1B C -0.1035(4) 0.3894(4) 0.3364(3)
C2B C -0.1037(4) 0.5953(4) 0.1586(4)
N1E N 0.3475(4) 0.1640(4) -0.1161(3)
N2E N 0.3449(4) 0.1453(4) 0.1085(3)
N3E N 0.1103(5) 0.1152(5) -0.0143(5)
C2F C 0.1037(4) 0.4047(4) -0.1586(4)
N2F N 0.1551(4) 0.6453(4) 0.3915(3)
N1B N -0.1525(4) 0.3360(4) 0.3839(3)
H1E H 0.14317 0.04353 -0.04942
H2E H 0.04041 0.14838 -0.05361
H3E H 0.08275 0.09125 0.05344
Cd1D Cd 0.00000 0.50652(3) -0.2500
Cd2F Cd 0.2500 0.7500 0.50000
Cd2B Cd -0.2500 0.2500 0.50000
C3 C 0.2600(14) 0.1819(12) 0.4234(10)
C4 C 0.3339(11) 0.1665(11) 0.5045(11)
C5 C 0.1787(12) 0.2606(14) 0.4276(9)
H4 H 0.26520 0.12646 0.36599
H5 H 0.39296 0.09979 0.50613
H6 H 0.12788 0.26650 0.36631
C5E C 0.3213(12) 0.2394(14) 0.5724(9)
C4E C 0.1661(11) 0.3335(11) 0.4955(11)
C3E C 0.2400(14) 0.3181(12) 0.5766(10)
H6E H 0.37212 0.23350 0.63369
H5E H 0.10704 0.40021 0.49387
H4E H 0.23480 0.37354 0.63401
C6 C 0.6090(10) 0.4725(12) 0.2206(8)
C7 C 0.5531(8) 0.3814(9) 0.2342(8)
C8 C 0.5585(19) 0.5700(10) 0.2341(9)
H7 H 0.69408 0.46858 0.19893
H8 H 0.59220 0.30274 0.22374
H9 H 0.60313 0.64561 0.22324
C7B C 0.4469(8) 0.3814(9) 0.2658(8)
C8B C 0.4415(19) 0.5700(10) 0.2659(9)
C6B C 0.3910(10) 0.4725(12) 0.2794(8)
H8B H 0.40780 0.30274 0.27626
H9B H 0.39687 0.64561 0.27676
H7B H 0.30592 0.46858 0.30107
loop_
_geom_bond_atom_site_label_1
_geom_bond_atom_site_label_2
_geom_bond_site_symmetry_1
_geom_bond_site_symmetry_2
Cd1 C1 1_555 1_555
Cd2 N1 1_555 1_555
N1 C1 1_555 1_555
N2 Cd2 1_555 1_555
N3 Cd2 1_555 1_555
C2 Cd1 1_555 1_555
C3 C4 1_555 1_555
C4 H5 1_555 1_555
C5 C3 1_555 1_555
C6 C7 1_555 1_555
C7 H8 1_555 1_555
C8 C6 1_555 1_555
H1 N3 1_555 1_555
H2 N3 1_555 1_555
H3 N3 1_555 1_555
H4 C3 1_555 1_555
H6 C5 1_555 1_555
H7 C6 1_555 1_555
H9 C8 1_555 1_555
C1B Cd1 1_555 1_555
C2B Cd1 1_555 1_555
N1E Cd2 1_555 1_555
N2E Cd2 1_555 1_555
N3E Cd2 1_555 1_555
C2F N2 1_555 1_555
N2F C2 1_555 1_555
N1B C1B 1_555 1_555
H1E N3E 1_555 1_555
H2E N3E 1_555 1_555
H3E N3E 1_555 1_555
Cd1D C2F 1_555 1_555
Cd2F N2F 1_555 1_555
Cd2B N1B 1_555 1_555
C5E C4 1_555 1_555
C4E C5 1_555 1_555
C3E C5E 1_555 1_555
H6E C5E 1_555 1_555
H5E C4E 1_555 1_555
H4E C3E 1_555 1_555
C7B C7 1_555 1_555
C8B C8 1_555 1_555
C6B C7B 1_555 1_555
H8B C7B 1_555 1_555
H9B C8B 1_555 1_555
H7B C6B 1_555 1_555
C4E C3E 1_555 1_555
C8B C6B 1_555 1_555

#END
