
#######################################################################
#
#                 Cambridge Crystallographic Data Centre
#                                CCDC 
#
#######################################################################
#
# If this CIF has been generated from an entry in the Cambridge 
# Structural Database, then it will include bibliographic, chemical, 
# crystal, experimental, refinement or atomic coordinate data resulting 
# from the CCDC's data processing and validation procedures.
#
#######################################################################

data_JAHNEM
_chemical_formula_moiety         '(C15 H27 Cr1 Mn3 N12 O9)n'
_symmetry_cell_setting           hexagonal
_symmetry_space_group_name_H-M   'P 63'
_symmetry_Int_Tables_number      173
_space_group_name_Hall           'P 6c'
loop_
_symmetry_equiv_pos_site_id
_symmetry_equiv_pos_as_xyz
1 x,y,z
2 -x,-y,1/2+z
3 -y,x-y,z
4 -x+y,-x,z
5 x-y,x,1/2+z
6 y,-x+y,1/2+z
_cell_length_a                   13.6802(16)
_cell_length_b                   13.6802(16)
_cell_length_c                   8.1530(14)
_cell_angle_alpha                90
_cell_angle_beta                 90
_cell_angle_gamma                120
_cell_volume                     1321.4
loop_
_atom_site_label
_atom_site_type_symbol
_atom_site_fract_x
_atom_site_fract_y
_atom_site_fract_z
Mn1 Mn 0.66573(9) 0.70361(9) 0.79308(16)
Cr1 Cr 0.3333 0.6667 0.4104(2)
O1 O 0.8203(4) 0.7725(5) 0.9336(8)
N1 N 0.7929(7) 0.6571(6) 1.3353(9)
H1 H 0.7457 0.5938 1.3905
H2 H 0.8028 0.7170 1.3942
C1 C 0.4434(6) 0.6460(5) 0.5609(10)
N2 N 0.5045(6) 0.6339(5) 0.6464(10)
O2 O 0.9423(5) 0.7554(5) 1.0897(7)
C2 C 0.7459(7) 0.6571(7) 1.1734(10)
H3 H 0.7142 0.5802 1.1308
C3 C 0.6493(8) 0.6815(7) 1.1779(13)
H4 H 0.6046 0.6480 1.2759
H5 H 0.6796 0.7624 1.1837
C4 C 0.3205(5) 0.5303(6) 0.2789(13)
N3 N 0.3196(5) 0.4495(6) 0.2312(9)
N4 N 0.5755(5) 0.6363(6) 1.0318(9)
H6 H 0.5198 0.6530 1.0398
H7 H 0.5434 0.5606 1.0314
C5 C 0.8414(6) 0.7334(6) 1.0552(10)
C1B C 0.3540(5) 0.7974(8) 0.5609(10)
N2B N 0.3661(5) 0.8706(8) 0.6464(10)
C1C C 0.2026(8) 0.5566(6) 0.5609(10)
N2C N 0.1294(8) 0.4955(6) 0.6464(10)
C4B C 0.4697(6) 0.7902(8) 0.2789(13)
N3B N 0.5505(6) 0.8701(8) 0.2312(9)
C4C C 0.2098(8) 0.6795(5) 0.2789(13)
N3C N 0.1299(8) 0.6804(5) 0.2312(9)
Mn1B Mn 0.29639(9) 0.96212(13) 0.79308(16)
Mn1C Mn 0.03788(13) 0.33427(9) 0.79308(16)
O1E O 0.7725(5) 0.9522(6) 0.4336(8)
N1E N 0.6571(6) 0.8642(9) 0.8353(9)
H1E H 0.5938 0.8481 0.8905
H2E H 0.7170 0.9142 0.8942
O2E O 0.7554(5) 0.8131(7) 0.5897(7)
C2E C 0.6571(7) 0.9112(10) 0.6734(10)
H3E H 0.5802 0.8660 0.6308
C3E C 0.6815(7) 1.0322(11) 0.6779(13)
H4E H 0.6480 1.0434 0.7759
H5E H 0.7624 1.0828 0.6837
N4E N 0.6363(6) 1.0608(8) 0.5318(9)
H6E H 0.6530 1.1332 0.5398
H7E H 0.5606 1.0172 0.5314
C5E C 0.7334(6) 0.8920(8) 0.5552(10)
O1B O 0.2275(5) 1.0478(6) 0.9336(8)
N1B N 0.3429(6) 1.1358(9) 1.3353(9)
H1B H 0.4062 1.1519 1.3905
H2B H 0.2830 1.0858 1.3942
O2B O 0.2446(5) 1.1869(7) 1.0897(7)
C2B C 0.3429(7) 1.0888(10) 1.1734(10)
H3B H 0.4198 1.1340 1.1308
C3B C 0.3185(7) 0.9678(11) 1.1779(13)
H4B H 0.3520 0.9566 1.2759
H5B H 0.2376 0.9172 1.1837
N4B N 0.3637(6) 0.9392(8) 1.0318(9)
H6B H 0.3470 0.8668 1.0398
H7B H 0.4394 0.9828 1.0314
C5B C 0.2666(6) 1.1080(8) 1.0552(10)
N3A N 0.6804(5) 0.5505(6) 0.7312(9)
Mn1D Mn 0.96212(13) 0.66573(9) 1.29308(16)
Mn1A Mn 0.33427(9) 0.29639(9) 0.29308(16)
Mn1E Mn 0.70361(9) 1.03788(13) 0.29308(16)
Mn1D_2 Mn -0.03788(13) 0.66573(9) 0.29308(16)
N1D N 0.1358(9) 0.7929(7) 0.8353(9)
O2D O 0.1869(7) 0.9423(5) 0.5897(7)
N3E N 0.4495(6) 1.1299(8) 0.7312(9)
O1C O -0.0478(6) 0.1797(4) 0.9336(8)
N1A N 0.2071(7) 0.3429(6) 0.8353(9)
O2A O 0.0577(5) 0.2446(5) 0.5897(7)
N3D N -0.1299(8) 0.3196(5) 0.7312(9)
N4C N 0.0608(8) 0.4245(5) 1.0318(9)
Mn1A_2 Mn 0.33427(9) 1.29639(9) 1.29308(16)
H1D H 0.1519 0.7457 0.8905
H2D H 0.0858 0.8028 0.8942
H1A H 0.2543 0.4062 0.8905
H2A H 0.1972 0.2830 0.8942
H6C H 0.1332 0.4802 1.0398
H7C H 0.0172 0.4566 1.0314
O3 O 0.3333 0.6667 0.949(2)
O4 O 1.0000 0.0000 0.9695(11)
O5 O 1.0000 0.0000 0.741(12)
loop_
_geom_bond_atom_site_label_1
_geom_bond_atom_site_label_2
_geom_bond_site_symmetry_1
_geom_bond_site_symmetry_2
Mn1 O1 1_555 1_555
Cr1 C1 1_555 1_555
O1 C5 1_555 1_555
N1 H1 1_555 1_555
H2 N1 1_555 1_555
C1 N2 1_555 1_555
N2 Mn1 1_555 1_555
O2 C5 1_555 1_555
C2 N1 1_555 1_555
H3 C2 1_555 1_555
C3 C2 1_555 1_555
H4 C3 1_555 1_555
H5 C3 1_555 1_555
C4 Cr1 1_555 1_555
N3 C4 1_555 1_555
N4 Mn1 1_555 1_555
H6 N4 1_555 1_555
H7 N4 1_555 1_555
C5 C2 1_555 1_555
C1B Cr1 1_555 1_555
N2B C1B 1_555 1_555
C1C Cr1 1_555 1_555
N2C C1C 1_555 1_555
C4B Cr1 1_555 1_555
N3B C4B 1_555 1_555
C4C Cr1 1_555 1_555
N3C C4C 1_555 1_555
Mn1B N2B 1_555 1_555
Mn1C N2C 1_555 1_555
O1E C5E 1_555 1_555
N1E Mn1 1_555 1_555
H1E N1E 1_555 1_555
H2E N1E 1_555 1_555
O2E Mn1 1_555 1_555
C2E N1E 1_555 1_555
H3E C2E 1_555 1_555
C3E C2E 1_555 1_555
H4E C3E 1_555 1_555
H5E C3E 1_555 1_555
N4E C3E 1_555 1_555
H6E N4E 1_555 1_555
H7E N4E 1_555 1_555
C5E O2E 1_555 1_555
O1B Mn1B 1_555 1_555
N1B H1B 1_555 1_555
H2B N1B 1_555 1_555
O2B C5B 1_555 1_555
C2B N1B 1_555 1_555
H3B C2B 1_555 1_555
C3B C2B 1_555 1_555
H4B C3B 1_555 1_555
H5B C3B 1_555 1_555
N4B Mn1B 1_555 1_555
H6B N4B 1_555 1_555
H7B N4B 1_555 1_555
C5B O1B 1_555 1_555
N3A Mn1 1_555 1_555
Mn1D N1 1_555 1_555
Mn1A N3 1_555 1_555
Mn1E N3B 1_555 1_555
Mn1D_2 N3C 1_555 1_555
N1D Mn1B 1_555 1_555
O2D Mn1B 1_555 1_555
N3E Mn1B 1_555 1_555
O1C Mn1C 1_555 1_555
N1A Mn1C 1_555 1_555
O2A Mn1C 1_555 1_555
N3D Mn1C 1_555 1_555
N4C Mn1C 1_555 1_555
Mn1A_2 N1B 1_555 1_555
H1D N1D 1_555 1_555
H2D N1D 1_555 1_555
H1A N1A 1_555 1_555
H2A N1A 1_555 1_555
H6C N4C 1_555 1_555
H7C N4C 1_555 1_555
O2 Mn1D 1_555 1_555
C3 N4 1_555 1_555
O1E Mn1E 1_555 1_555
C2E C5E 1_555 1_555
N4E Mn1E 1_555 1_555
O2B Mn1A_2 1_555 1_555
C2B C5B 1_555 1_555
C3B N4B 1_555 1_555

#END
