
#######################################################################
#
#                 Cambridge Crystallographic Data Centre
#                                CCDC 
#
#######################################################################
#
# If this CIF has been generated from an entry in the Cambridge 
# Structural Database, then it will include bibliographic, chemical, 
# crystal, experimental, refinement or atomic coordinate data resulting 
# from the CCDC's data processing and validation procedures.
#
#######################################################################

data_PAPKAV
_chemical_formula_moiety         '(C39 H31 Co2 N8 O6 1+)n'
_symmetry_cell_setting           monoclinic
_symmetry_space_group_name_H-M   'P 21/c'
_symmetry_Int_Tables_number      14
_space_group_name_Hall           '-P 2ybc'
loop_
_symmetry_equiv_pos_site_id
_symmetry_equiv_pos_as_xyz
1 x,y,z
2 -x,1/2+y,1/2-z
3 -x,-y,-z
4 x,1/2-y,1/2+z
_cell_length_a                   17.8311(15)
_cell_length_b                   11.7676(9)
_cell_length_c                   20.1472(18)
_cell_angle_alpha                90
_cell_angle_beta                 111.685(2)
_cell_angle_gamma                90
_cell_volume                     3928.29
loop_
_atom_site_label
_atom_site_type_symbol
_atom_site_fract_x
_atom_site_fract_y
_atom_site_fract_z
Co1 Co 0.51200(4) 0.32792(6) 0.25050(4)
Co2 Co 0.49565(4) 0.60912(7) 0.44660(4)
N1 N 0.7643(3) 0.2738(4) 0.3070(3)
N2 N 0.6377(3) 0.2969(5) 0.2975(3)
N3 N 1.2560(3) 0.3348(4) 0.1853(3)
N4 N 1.3848(3) 0.3433(4) 0.2025(2)
N5 N 0.7432(3) 0.6426(4) 0.4824(3)
N6 N 0.6192(3) 0.6291(5) 0.4772(3)
N7 N 1.2446(3) 0.5832(4) 0.3770(3)
N8 N 1.3735(3) 0.5896(4) 0.3936(3)
O1 O 0.5124(3) 0.4101(3) 0.3459(2)
O2 O 0.5062(2) 0.4308(3) 0.45178(19)
O3 O 0.5303(2) 0.4901(3) 0.2155(2)
O4 O 0.5084(3) 0.6743(3) 0.2076(2)
O5 O 0.5129(2) 0.2607(4) 0.1508(2)
O6 O 0.5168(3) 0.2811(4) 0.0433(2)
C1 C 0.6918(4) 0.3191(6) 0.2686(4)
H1 H 0.6810 0.3609 0.2269
C2 C 0.6790(4) 0.2350(6) 0.3576(3)
H2 H 0.6568 0.2067 0.3895
C3 C 0.7567(4) 0.2210(6) 0.3639(3)
H3 H 0.7969 0.1826 0.4002
C4 C 0.8349(3) 0.2786(5) 0.2883(3)
C5 C 0.8369(4) 0.3468(7) 0.2351(4)
H4 H 0.7929 0.3931 0.2112
C6 C 0.9039(4) 0.3484(7) 0.2159(4)
H5 H 0.9033 0.3951 0.1784
C7 C 0.9718(4) 0.2827(5) 0.2505(3)
C8 C 0.9685(4) 0.2178(6) 0.3068(4)
H6 H 1.0135 0.1748 0.3329
C9 C 0.9026(4) 0.2137(6) 0.3259(4)
H7 H 0.9029 0.1680 0.3636
C10 C 1.3315(3) 0.3046(5) 0.2272(3)
H8 H 1.3442 0.2615 0.2686
C11 C 1.3414(4) 0.4016(6) 0.1406(4)
H9 H 1.3633 0.4383 0.1111
C12 C 1.2627(4) 0.3968(7) 0.1300(4)
H10 H 1.2206 0.4294 0.0924
C13 C 1.1843(4) 0.3146(5) 0.2006(3)
C14 C 1.1169(4) 0.3824(6) 0.1661(4)
H11 H 1.1179 0.4359 0.1325
C15 C 1.0494(4) 0.3697(6) 0.1821(3)
H12 H 1.0049 0.4156 0.1591
C16 C 1.0447(4) 0.2904(5) 0.2318(3)
C17 C 1.1121(4) 0.2220(6) 0.2634(4)
H13 H 1.1107 0.1667 0.2959
C18 C 1.1807(4) 0.2336(6) 0.2483(4)
H14 H 1.2248 0.1865 0.2704
C19 C 0.6695(3) 0.6036(6) 0.4451(3)
H15 H 0.6554 0.5638 0.4023
C20 C 0.6630(4) 0.6871(7) 0.5371(4)
H16 H 0.6432 0.7163 0.5704
C21 C 0.7392(4) 0.6954(7) 0.5408(4)
H17 H 0.7816 0.7308 0.5767
C22 C 0.8137(3) 0.6313(6) 0.4644(3)
C23 C 0.8207(4) 0.5484(7) 0.4210(4)
H18 H 0.7788 0.4968 0.4010
C24 C 0.8914(4) 0.5402(7) 0.4060(4)
H19 H 0.8954 0.4832 0.3755
C25 C 0.9545(3) 0.6139(5) 0.4351(3)
C26 C 0.9448(4) 0.6969(6) 0.4788(4)
H20 H 0.9866 0.7483 0.4993
C27 C 0.8759(4) 0.7078(7) 0.4938(4)
H21 H 0.8713 0.7659 0.5234
C28 C 1.3193(4) 0.6061(6) 0.4221(3)
H22 H 1.3315 0.6310 0.4687
C29 C 1.3302(4) 0.5522(6) 0.3257(4)
H23 H 1.3522 0.5333 0.2919
C30 C 1.2509(4) 0.5467(6) 0.3149(3)
H24 H 1.2092 0.5230 0.2737
C31 C 1.1714(3) 0.5917(5) 0.3923(3)
C32 C 1.1109(4) 0.5159(6) 0.3614(4)
H25 H 1.1167 0.4597 0.3312
C33 C 1.0405(4) 0.5232(6) 0.3753(4)
H26 H 0.9992 0.4716 0.3535
C34 C 1.0296(3) 0.6048(5) 0.4204(3)
C35 C 1.0933(4) 0.6796(7) 0.4495(4)
H27 H 1.0888 0.7364 0.4800
C36 C 1.1630(4) 0.6735(7) 0.4352(4)
H28 H 1.2041 0.7261 0.4552
C37 C 0.5098(3) 0.3710(5) 0.4007(3)
H29 H 0.5104 0.2923 0.4056
C38 C 0.5054(4) 0.5792(5) 0.2311(3)
H30 H 0.4812 0.5740 0.2647
C39 C 0.5165(4) 0.3212(6) 0.1008(3)
H31 H 0.5192 0.3997 0.1068
Co1_2 Co 1.51200(4) 0.32792(6) 0.25050(4)
Co1A Co 0.48800(4) 0.82792(6) 0.24950(4)
Co2_2 Co 1.49565(4) 0.60912(7) 0.44660(4)
Co2A Co 0.50435(4) 0.10912(7) 0.05340(4)
Co2B Co 0.50435(4) 0.39088(7) 0.55340(4)
N4_2 N 0.3848(3) 0.3433(4) 0.2025(2)
N8_2 N 0.3735(3) 0.5896(4) 0.3936(3)
O2B O 0.4938(2) 0.5692(3) 0.54822(19)
O4A O 0.4916(3) 0.1743(3) 0.2924(2)
O6A O 0.4832(3) 0.7811(4) 0.4567(2)
loop_
_geom_bond_atom_site_label_1
_geom_bond_atom_site_label_2
_geom_bond_site_symmetry_1
_geom_bond_site_symmetry_2
Co1 N2 1_555 1_555
Co2 N6 1_555 1_555
N1 C1 1_555 1_555
N2 C1 1_555 1_555
N3 C10 1_555 1_555
N4 C10 1_555 1_555
N5 C19 1_555 1_555
N6 C19 1_555 1_555
N7 C28 1_555 1_555
N8 C28 1_555 1_555
O1 Co1 1_555 1_555
O2 Co2 1_555 1_555
O3 Co1 1_555 1_555
O4 C38 1_555 1_555
O5 Co1 1_555 1_555
O6 C39 1_555 1_555
C1 H1 1_555 1_555
C2 N2 1_555 1_555
H2 C2 1_555 1_555
C3 N1 1_555 1_555
H3 C3 1_555 1_555
C4 N1 1_555 1_555
C5 C4 1_555 1_555
H4 C5 1_555 1_555
C6 C5 1_555 1_555
H5 C6 1_555 1_555
C7 C6 1_555 1_555
C8 C7 1_555 1_555
H6 C8 1_555 1_555
C9 C4 1_555 1_555
H7 C9 1_555 1_555
C10 H8 1_555 1_555
C11 N4 1_555 1_555
H9 C11 1_555 1_555
C12 N3 1_555 1_555
H10 C12 1_555 1_555
C13 N3 1_555 1_555
C14 C13 1_555 1_555
H11 C14 1_555 1_555
C15 C14 1_555 1_555
H12 C15 1_555 1_555
C16 C7 1_555 1_555
C17 C16 1_555 1_555
H13 C17 1_555 1_555
C18 C13 1_555 1_555
H14 C18 1_555 1_555
C19 H15 1_555 1_555
C20 N6 1_555 1_555
H16 C20 1_555 1_555
C21 N5 1_555 1_555
H17 C21 1_555 1_555
C22 N5 1_555 1_555
C23 C22 1_555 1_555
H18 C23 1_555 1_555
C24 C23 1_555 1_555
H19 C24 1_555 1_555
C25 C24 1_555 1_555
C26 C25 1_555 1_555
H20 C26 1_555 1_555
C27 C22 1_555 1_555
H21 C27 1_555 1_555
C28 H22 1_555 1_555
C29 N8 1_555 1_555
H23 C29 1_555 1_555
C30 N7 1_555 1_555
H24 C30 1_555 1_555
C31 N7 1_555 1_555
C32 C31 1_555 1_555
H25 C32 1_555 1_555
C33 C32 1_555 1_555
H26 C33 1_555 1_555
C34 C25 1_555 1_555
C35 C34 1_555 1_555
H27 C35 1_555 1_555
C36 C31 1_555 1_555
H28 C36 1_555 1_555
C37 O1 1_555 1_555
H29 C37 1_555 1_555
C38 O3 1_555 1_555
H30 C38 1_555 1_555
C39 O5 1_555 1_555
H31 C39 1_555 1_555
Co1_2 N4 1_555 1_555
Co1A O4 1_555 1_555
Co2_2 N8 1_555 1_555
Co2A O6 1_555 1_555
Co2B O2 1_555 1_555
N4_2 Co1 1_555 1_555
N8_2 Co2 1_555 1_555
O2B Co2 1_555 1_555
O4A Co1 1_555 1_555
O6A Co2 1_555 1_555
O2 C37 1_555 1_555
C2 C3 1_555 1_555
C8 C9 1_555 1_555
C11 C12 1_555 1_555
C15 C16 1_555 1_555
C17 C18 1_555 1_555
C20 C21 1_555 1_555
C26 C27 1_555 1_555
C29 C30 1_555 1_555
C33 C34 1_555 1_555
C35 C36 1_555 1_555
Co2B O2B 1_555 1_555

#END
