
#######################################################################
#
#                 Cambridge Crystallographic Data Centre
#                                CCDC 
#
#######################################################################
#
# If this CIF has been generated from an entry in the Cambridge 
# Structural Database, then it will include bibliographic, chemical, 
# crystal, experimental, refinement or atomic coordinate data resulting 
# from the CCDC's data processing and validation procedures.
#
#######################################################################

data_ATAYEB
_chemical_formula_moiety         'C22 H10 Cu8 F2 N1 O16'
_symmetry_cell_setting           hexagonal
_symmetry_space_group_name_H-M   'P 63/m m c'
_symmetry_Int_Tables_number      194
_space_group_name_Hall           '-P 6c 2c'
loop_
_symmetry_equiv_pos_site_id
_symmetry_equiv_pos_as_xyz
1 x,y,z
2 x-y,x,1/2+z
3 -y,x-y,z
4 -x,-y,1/2+z
5 -x+y,-x,z
6 y,-x+y,1/2+z
7 x-y,-y,-z
8 -x,-x+y,-z
9 y,x,-z
10 -y,-x,1/2-z
11 -x+y,y,1/2-z
12 x,x-y,1/2-z
13 -x,-y,-z
14 -x+y,-x,1/2-z
15 y,-x+y,-z
16 x,y,1/2-z
17 x-y,x,-z
18 -y,x-y,1/2-z
19 -x+y,y,z
20 x,x-y,z
21 -y,-x,z
22 y,x,1/2+z
23 x-y,-y,1/2+z
24 -x,-x+y,1/2+z
_cell_length_a                   18.4347(6)
_cell_length_b                   18.4347(6)
_cell_length_c                   23.8320(10)
_cell_angle_alpha                90
_cell_angle_beta                 90
_cell_angle_gamma                120
_cell_volume                     7013.96
loop_
_atom_site_label
_atom_site_type_symbol
_atom_site_fract_x
_atom_site_fract_y
_atom_site_fract_z
C1 C 0.4492(3) 0.0905(3) 0.5426(2)
C2 C 0.4220(3) 0.1461(3) 0.5699(2)
C3 C 0.4426(5) 0.2213(2) 0.5456(3)
H1 H 0.4713 0.2357 0.5116
C4 C 0.3786(3) 0.1259(3) 0.61974(19)
H2 H 0.3638 0.0750 0.6369
C5 C 0.3569(5) 0.1785(2) 0.6442(3)
C6 C 0.3095(6) 0.1547(3) 0.6997(4)
C7 C 0.3539(9) 0.1770(5) 0.7500
C8 C 0.2256(8) 0.1128(4) 0.7008(4)
H3 H 0.1975 0.0987 0.6667
C9 C 0.1773(15) 0.0887(7) 0.7500
Cu1 Cu 0.52407(2) 0.04813(5) 0.45448(3)
F1 F 0.1019(7) 0.006(3) 0.7500
N1 N 0.4407(9) 0.2203(4) 0.7500
H4 H 0.4676 0.2338 0.7813
O1 O 0.4809(2) 0.11054(19) 0.49455(14)
O2 O 0.4379(3) 0.0282(2) 0.57159(14)
O3 O 0.5605(2) 0.1209(4) 0.3785(3)
C1K C 0.4492(3) 0.3587(4) 0.9574(2)
C2K C 0.4220(3) 0.2759(4) 0.9301(2)
C3K C 0.4426(5) 0.2213(5) 0.9544(3)
H1K H 0.4713 0.2356 0.9884
C4K C 0.3786(3) 0.2527(4) 0.88026(19)
H2K H 0.3638 0.2888 0.8631
C5K C 0.3569(5) 0.1784(5) 0.8558(3)
C6K C 0.3095(6) 0.1548(7) 0.8003(4)
C8K C 0.2256(8) 0.1128(9) 0.7992(4)
H3K H 0.1975 0.0988 0.8333
F1K F 0.1019(7) 0.0959(31) 0.7500
H4K H 0.4676 0.2338 0.7187
O1K O 0.4809(2) 0.37036(28) 1.00545(14)
O2K O 0.4379(3) 0.4097(4) 0.92841(14)
C1O C 0.4492(3) 0.0905(3) 0.9574(2)
C2O C 0.4220(3) 0.1461(3) 0.9301(2)
C4O C 0.3786(3) 0.1259(3) 0.88026(19)
H2O H 0.3638 0.0750 0.8631
O1O O 0.4809(2) 0.11054(19) 1.00545(14)
O2O O 0.4379(3) 0.0282(2) 0.92841(14)
C1S C 0.4492(3) 0.3587(4) 0.5426(2)
C2S C 0.4220(3) 0.2759(4) 0.5699(2)
C4S C 0.3786(3) 0.2527(4) 0.61974(19)
H2S H 0.3638 0.2888 0.6369
O1S O 0.4809(2) 0.37036(28) 0.49455(14)
O2S O 0.4379(3) 0.4097(4) 0.57159(14)
Cu1F Cu 0.47594(5) -0.04813(5) 0.54552(3)
O3F O 0.4396(4) -0.1209(4) 0.6215(3)
Cu1A Cu 0.47594(5) 0.52407(2) 0.95448(3)
Cu1C Cu 0.47593(2) -0.04813(5) 0.95448(3)
Cu1D Cu 0.52406(5) 0.47593(2) 0.45448(3)
Cu1G Cu 0.47593(2) 0.52406(5) 0.54552(3)
Cu1J Cu 0.52406(5) 0.04813(5) 1.04552(3)
Cu1K Cu 0.52407(2) 0.47594(5) 1.04552(3)
O1F O 0.37036(28) -0.11054(19) 0.50545(14)
O1L O 0.5191(2) -0.11054(19) 0.50545(14)
O1R O 0.62964(28) 0.11054(19) 0.49455(14)
O2F O 0.4097(4) -0.0282(2) 0.42841(14)
O2L O 0.5621(3) -0.0282(2) 0.42841(14)
O2R O 0.5903(4) 0.0282(2) 0.57159(14)
loop_
_geom_bond_atom_site_label_1
_geom_bond_atom_site_label_2
_geom_bond_site_symmetry_1
_geom_bond_site_symmetry_2
C1 C2 1_555 1_555
C2 C3 1_555 1_555
C3 H1 1_555 1_555
C4 C2 1_555 1_555
H2 C4 1_555 1_555
C5 C4 1_555 1_555
C6 C5 1_555 1_555
C7 C6 1_555 1_555
C8 C6 1_555 1_555
H3 C8 1_555 1_555
C9 C8 1_555 1_555
Cu1 O1 1_555 1_555
F1 C9 1_555 1_555
N1 C7 1_555 1_555
H4 N1 1_555 1_555
O1 C1 1_555 1_555
O2 C1 1_555 1_555
O3 Cu1 1_555 1_555
C1K C2K 1_555 1_555
C2K C3K 1_555 1_555
C3K H1K 1_555 1_555
C4K C2K 1_555 1_555
H2K C4K 1_555 1_555
C5K C4K 1_555 1_555
C6K C7 1_555 1_555
C8K C9 1_555 1_555
H3K C8K 1_555 1_555
F1K C9 1_555 1_555
H4K N1 1_555 1_555
O1K C1K 1_555 1_555
O2K C1K 1_555 1_555
C1O C2O 1_555 1_555
C2O C3K 1_555 1_555
C4O C5K 1_555 1_555
H2O C4O 1_555 1_555
O1O C1O 1_555 1_555
O2O C1O 1_555 1_555
C1S C2S 1_555 1_555
C2S C3 1_555 1_555
C4S C5 1_555 1_555
H2S C4S 1_555 1_555
O1S C1S 1_555 1_555
O2S C1S 1_555 1_555
Cu1F O2 1_555 1_555
O3F Cu1F 1_555 1_555
Cu1A O2K 1_555 1_555
Cu1C O2O 1_555 1_555
Cu1D O1S 1_555 1_555
Cu1G O2S 1_555 1_555
Cu1J O1O 1_555 1_555
Cu1K O1K 1_555 1_555
O1F Cu1F 1_555 1_555
O1L Cu1F 1_555 1_555
O1R Cu1 1_555 1_555
O2F Cu1 1_555 1_555
O2L Cu1 1_555 1_555
O2R Cu1F 1_555 1_555
C5K C6K 1_555 1_555
C6K C8K 1_555 1_555
C2O C4O 1_555 1_555
C2S C4S 1_555 1_555

#END
