
#######################################################################
#
#                 Cambridge Crystallographic Data Centre
#                                CCDC 
#
#######################################################################
#
# If this CIF has been generated from an entry in the Cambridge 
# Structural Database, then it will include bibliographic, chemical, 
# crystal, experimental, refinement or atomic coordinate data resulting 
# from the CCDC's data processing and validation procedures.
#
#######################################################################

data_FECXUI
_chemical_formula_moiety         '(C77 H53 N1 O31 Zn8)n'
_symmetry_cell_setting           monoclinic
_symmetry_space_group_name_H-M   'P 21/n'
_symmetry_Int_Tables_number      14
_space_group_name_Hall           '-P 2yn'
loop_
_symmetry_equiv_pos_site_id
_symmetry_equiv_pos_as_xyz
1 x,y,z
2 1/2-x,1/2+y,1/2-z
3 -x,-y,-z
4 1/2+x,1/2-y,1/2+z
_cell_length_a                   23.5793(2)
_cell_length_b                   18.62650(10)
_cell_length_c                   30.1227(2)
_cell_angle_alpha                90
_cell_angle_beta                 93.2230(10)
_cell_angle_gamma                90
_cell_volume                     13209
loop_
_atom_site_label
_atom_site_type_symbol
_atom_site_fract_x
_atom_site_fract_y
_atom_site_fract_z
O2 O 0.817(2) 0.865(3) 0.4059(15)
Zn1 Zn 0.35006(5) 0.42061(7) 0.38014(4)
Zn2 Zn 0.34251(5) 0.58000(7) 0.79906(4)
Zn3 Zn 0.41041(5) 0.49413(7) 0.30133(4)
Zn4 Zn 0.27807(5) 0.49443(7) 0.30240(4)
Zn5 Zn 0.78041(6) -0.00794(8) 0.38111(5)
Zn6 Zn -0.08472(5) -0.00607(7) 0.37587(4)
Zn7 Zn 0.34231(5) 0.41314(7) 0.80790(4)
Zn8 Zn 0.35000(6) 0.59758(7) 0.36958(4)
O3 O 0.3577(3) 0.5638(4) 0.4354(2)
O4 O 0.3356(3) 0.4318(4) 0.7431(2)
O5 O 0.4054(3) 0.6482(4) 0.8080(2)
O6 O 0.2901(3) 0.4906(4) 0.2389(2)
O7 O 0.2400(3) 0.4020(4) 0.3126(3)
O8 O -0.0302(3) 0.0683(4) 0.3604(3)
O9 O 0.2737(3) 0.6360(5) 0.7946(3)
O10 O 0.3516(4) 0.5474(4) 0.7377(2)
O11 O 0.4152(3) 0.5048(5) -0.0602(2)
O12 O 0.7175(3) 0.9392(5) 0.8118(3)
C5 C 0.3425(4) 0.4865(6) 0.7209(3)
C6 C 0.3780(4) 0.4844(7) 0.0999(3)
O13 O -0.0303(3) 0.9342(5) 0.8039(3)
C7 C 0.3809(4) 0.4835(6) 0.1468(3)
H1 H 0.4160 0.4787 0.1622
C8 C 0.3497(5) 0.5331(7) 0.5998(3)
C9 C 0.3393(4) 0.4803(6) 0.6722(3)
C10 C 0.1073(5) 0.2051(6) 0.3526(4)
C11 C 0.0605(5) 0.1597(6) 0.3554(4)
H2 H 0.0639 0.1195 0.3736
C12 C 0.3490(4) 0.5181(6) 0.5064(3)
C13 C 0.5776(5) 0.8054(7) 0.8276(4)
C14 C 0.1983(4) 0.3026(6) 0.3451(3)
C15 C 0.5052(4) 0.3154(6) 0.3537(4)
C16 C 0.3376(5) 0.4594(6) 0.5328(3)
H3 H 0.3304 0.4149 0.5196
C17 C 0.5924(4) 0.2687(6) 0.3255(4)
O14 O 0.7357(5) 0.0809(7) 0.3702(4)
C18 C 0.3370(5) 0.4667(6) 0.5794(3)
C19 C 0.5453(4) 0.3154(6) 0.3211(4)
H4 H 0.5409 0.3459 0.2967
O15 O 0.7800(4) 0.1495(5) 0.3154(3)
O16 O -0.0850(4) 0.1380(5) 0.3151(3)
O17 O 0.3223(6) 0.4899(15) -0.0625(4)
C20 C 0.3624(6) 0.5929(6) 0.5717(4)
H5 H 0.3721 0.6370 0.5844
C21 C 0.6228(5) 0.8530(7) 0.8234(4)
H6 H 0.6187 0.8903 0.8029
C22 C 0.3510(5) 0.5380(6) 0.6461(3)
H7 H 0.3600 0.5817 0.6596
C23 C 0.5982(5) 0.2220(7) 0.3626(4)
C24 C 0.3243(6) 0.4053(7) 0.6066(4)
H8 H 0.3156 0.3611 0.5935
C25 C 0.1477(5) 0.3152(7) 0.3222(4)
H9 H 0.1442 0.3547 0.3033
C26 C -0.0384(5) 0.1211(6) 0.3364(4)
C27 C 0.6806(5) 0.2265(8) 0.2991(4)
H10 H 0.7080 0.2279 0.2782
C28 C 0.4242(5) 0.4815(7) 0.0307(4)
C29 C 0.6350(5) 0.2691(8) 0.2942(4)
H11 H 0.6312 0.2996 0.2698
C30 C 0.1002(5) 0.2695(7) 0.3266(4)
C31 C 0.5414(5) 0.6947(7) 0.8590(4)
H12 H 0.5458 0.6569 0.8791
C32 C 0.1319(5) 0.7639(6) 0.7736(5)
H13 H 0.1240 0.7877 0.7468
C33 C 0.6726(5) 0.8467(8) 0.8482(4)
C34 C 0.1873(6) 0.6807(9) 0.8191(6)
C35 C 0.6456(6) 0.1753(8) 0.3657(5)
H14 H 0.6485 0.1415 0.3885
C36 C 0.0111(5) 0.1719(6) 0.3328(4)
C37 C 0.1774(5) 0.7168(7) 0.7778(5)
H15 H 0.2006 0.7089 0.7544
C38 C 0.4930(4) 0.6993(6) 0.8321(3)
C39 C 0.4283(4) 0.4780(6) 0.0755(3)
H16 H 0.4635 0.4715 0.0904
C40 C 0.5847(5) 0.7462(8) 0.8570(4)
C41 C 0.0976(5) 0.7760(7) 0.8098(5)
C42 C 0.3326(5) 0.4897(6) 0.1702(3)
C43 C 0.7211(5) 0.8967(9) 0.8439(4)
C44 C 0.5266(5) 0.8092(7) 0.8002(5)
H17 H 0.5214 0.8471 0.7803
C45 C 0.4854(5) 0.7590(7) 0.8024(4)
H18 H 0.4521 0.7632 0.7846
C46 C 0.5120(5) 0.2692(8) 0.3898(4)
H19 H 0.4848 0.2689 0.4110
C47 C 0.1076(7) 0.7398(10) 0.8487(6)
C48 C 0.0477(5) 0.2827(8) 0.3039(5)
H20 H 0.0432 0.3236 0.2863
C49 C 0.3601(5) 0.5854(7) 0.5267(4)
H21 H 0.3660 0.6253 0.5090
C50 C -0.0277(6) 0.8924(8) 0.8370(4)
C51 C 0.0031(5) 0.2366(7) 0.3070(5)
H22 H -0.0319 0.2467 0.2926
C52 C 0.2051(5) 0.2403(7) 0.3722(5)
H23 H 0.2395 0.2319 0.3880
C53 C 0.3238(5) 0.4962(10) 0.0297(4)
H24 H 0.2890 0.5015 0.0139
C54 C 0.1614(5) 0.1927(7) 0.3754(5)
H25 H 0.1669 0.1516 0.3927
C55 C 0.0199(6) 0.8394(9) 0.8416(5)
C56 C 0.6381(6) 0.7372(10) 0.8819(5)
H26 H 0.6439 0.6976 0.9004
C57 C 0.3252(5) 0.4927(9) 0.0763(4)
C58 C 0.2359(8) 0.6284(9) 0.8226(7)
C59 C 0.5573(6) 0.2245(8) 0.3949(5)
H27 H 0.5615 0.1953 0.4199
C60 C 0.1548(8) 0.6922(12) 0.8534(7)
H28 H 0.1631 0.6691 0.8804
O18 O 0.3558(6) 0.7010(6) 0.3943(4)
C61 C 0.2759(5) 0.5009(12) 0.1016(4)
H29 H 0.2405 0.5060 0.0867
C62 C 0.0529(5) 0.8284(7) 0.8058(5)
H30 H 0.0463 0.8543 0.7797
C63 C 0.3254(6) 0.4132(7) 0.6516(4)
H31 H 0.3170 0.3741 0.6693
C64 C 0.2797(5) 0.5013(10) 0.1461(4)
H32 H 0.2473 0.5092 0.1615
C65 C 0.3712(5) 0.4920(9) 0.0076(4)
C66 C 0.0298(8) 0.7997(12) 0.8805(6)
H33 H 0.0064 0.8060 0.9040
C67 C 0.6876(6) 0.1789(8) 0.3360(5)
C68 C 0.0726(8) 0.7525(12) 0.8844(7)
H34 H 0.0794 0.7278 0.9109
C69 C 0.7364(7) 0.1291(11) 0.3393(5)
O19 O 0.3372(5) 0.6417(5) 0.2991(3)
C70 C 0.3687(6) 0.4957(10) -0.0422(4)
C71 C 0.3778(14) 0.6821(14) 0.2736(9)
O20 O 0.4519(3) 0.4041(4) 0.3143(2)
O21 O 0.2386(8) 0.5864(11) 0.8537(8)
O22 O 0.3468(2) 0.4998(3) 0.33950(19)
O23 O 0.3441(3) 0.5021(4) 0.8412(2)
O24 O 0.3853(3) 0.4865(4) 0.2385(2)
O25 O 0.4201(3) 0.3641(4) 0.3780(2)
O26 O 0.2881(3) 0.3496(4) 0.3687(3)
O27 O 0.4569(3) 0.5945(4) 0.8626(3)
O28 O 0.3426(3) 0.4458(5) 0.4420(2)
C72 C 0.4481(4) 0.6433(5) 0.8344(3)
O29 O 0.7621(4) 0.8931(7) 0.8709(3)
C73 C 0.2459(4) 0.3551(6) 0.3419(3)
C74 C 0.3366(4) 0.4893(6) 0.2196(3)
C75 C 0.3501(4) 0.5095(6) 0.4567(3)
O30 O -0.0623(4) 0.8909(7) 0.8665(3)
C76 C 0.4555(4) 0.3654(6) 0.3483(3)
C77 C 0.6796(6) 0.7861(10) 0.8784(6)
H35 H 0.7133 0.7810 0.8956
O31 O 0.7159(10) -0.027(2) 0.4255(7)
Zn3C Zn -0.08959(5) 1.00587(7) 0.80133(4)
Zn4C Zn 0.77807(5) 1.00557(7) 0.80240(4)
Zn5C Zn 0.28041(6) 0.50794(8) -0.11889(5)
Zn5C_2 Zn 0.28041(6) 0.50794(8) 0.88111(5)
Zn6C Zn 0.41528(5) 0.50607(7) -0.12413(4)
Zn6C_2 Zn 0.41528(5) 0.50607(7) 0.87587(4)
Zn7C Zn 0.84231(5) 0.08686(7) 0.30790(4)
Zn7C_2 Zn -0.15769(5) 0.08686(7) 0.30790(4)
Zn8C Zn 0.85000(6) 0.90242(7) 0.86958(4)
Zn8C_2 Zn -0.15000(6) 0.90242(7) 0.86958(4)
O11C O -0.0848(3) -0.0048(5) 0.4398(2)
O12C O 0.2175(3) 0.5608(5) 0.3118(3)
O13C O 0.4697(3) 0.5658(5) 0.3039(3)
O15C O 0.2800(4) 0.3505(5) 0.8154(3)
O16C O 0.4150(4) 0.3620(5) 0.8151(3)
O17C O 0.8223(6) 0.0101(15) 0.4375(4)
O21C O 0.7386(8) -0.0864(11) 0.3537(8)
O23C O 0.8441(3) -0.0021(4) 0.3412(2)
O23C_2 O -0.1559(3) -0.0021(4) 0.3412(2)
O27C O -0.0431(3) -0.0945(4) 0.3626(3)
O29C O 0.2621(4) 0.6069(7) 0.3709(3)
O30C O 0.4377(4) 0.6091(7) 0.3665(3)
O1 O 0.7503(8) 0.7758(9) 0.7740(6)
C1 C 0.7173(13) 0.8616(12) 0.7133(7)
N1 N 0.6701(12) 0.7586(12) 0.7332(7)
C2 C 0.6207(12) 0.7729(13) 0.6998(9)
C3 C 0.6604(12) 0.6891(11) 0.7577(10)
C4 C 0.7115(16) 0.7928(19) 0.7407(12)
loop_
_geom_bond_atom_site_label_1
_geom_bond_atom_site_label_2
_geom_bond_site_symmetry_1
_geom_bond_site_symmetry_2
O1 C4 1_555 1_555
C1 C4 1_555 1_555
N1 C2 1_555 1_555
C3 N1 1_555 1_555
C4 N1 1_555 1_555
Zn1 O22 1_555 1_555
Zn2 O5 1_555 1_555
Zn3 O20 1_555 1_555
Zn4 O6 1_555 1_555
Zn5 O14 1_555 1_555
Zn6 O8 1_555 1_555
Zn7 O4 1_555 1_555
Zn8 O3 1_555 1_555
O3 C75 1_555 1_555
O4 C5 1_555 1_555
O5 C72 1_555 1_555
O6 C74 1_555 1_555
O7 Zn4 1_555 1_555
O8 C26 1_555 1_555
O9 Zn2 1_555 1_555
O10 Zn2 1_555 1_555
O11 C70 1_555 1_555
O12 C43 1_555 1_555
C5 O10 1_555 1_555
C6 C7 1_555 1_555
O13 C50 1_555 1_555
C7 H1 1_555 1_555
C8 C18 1_555 1_555
C9 C5 1_555 1_555
C10 C11 1_555 1_555
C11 H2 1_555 1_555
C12 C16 1_555 1_555
C13 C21 1_555 1_555
C14 C25 1_555 1_555
C15 C19 1_555 1_555
C16 H3 1_555 1_555
C17 C19 1_555 1_555
O14 C69 1_555 1_555
C18 C16 1_555 1_555
C19 H4 1_555 1_555
O15 C69 1_555 1_555
O16 C26 1_555 1_555
O17 C70 1_555 1_555
C20 C8 1_555 1_555
H5 C20 1_555 1_555
C21 H6 1_555 1_555
C22 C8 1_555 1_555
H7 C22 1_555 1_555
C23 C17 1_555 1_555
C24 C18 1_555 1_555
H8 C24 1_555 1_555
C25 H9 1_555 1_555
C26 C36 1_555 1_555
C27 H10 1_555 1_555
C28 C39 1_555 1_555
C29 C17 1_555 1_555
H11 C29 1_555 1_555
C30 C10 1_555 1_555
C31 H12 1_555 1_555
C32 H13 1_555 1_555
C33 C21 1_555 1_555
C34 C37 1_555 1_555
C35 C23 1_555 1_555
H14 C35 1_555 1_555
C36 C11 1_555 1_555
C37 C32 1_555 1_555
H15 C37 1_555 1_555
C38 C31 1_555 1_555
C39 C6 1_555 1_555
H16 C39 1_555 1_555
C40 C13 1_555 1_555
C41 C32 1_555 1_555
C42 C7 1_555 1_555
C43 C33 1_555 1_555
C44 C13 1_555 1_555
H17 C44 1_555 1_555
C45 C38 1_555 1_555
H18 C45 1_555 1_555
C46 C15 1_555 1_555
H19 C46 1_555 1_555
C47 C41 1_555 1_555
C48 C30 1_555 1_555
H20 C48 1_555 1_555
C49 C12 1_555 1_555
H21 C49 1_555 1_555
C50 C55 1_555 1_555
C51 C36 1_555 1_555
H22 C51 1_555 1_555
C52 C14 1_555 1_555
H23 C52 1_555 1_555
C53 H24 1_555 1_555
C54 C10 1_555 1_555
H25 C54 1_555 1_555
C55 C62 1_555 1_555
C56 C40 1_555 1_555
H26 C56 1_555 1_555
C57 C6 1_555 1_555
C58 O9 1_555 1_555
C59 C23 1_555 1_555
H27 C59 1_555 1_555
C60 C34 1_555 1_555
H28 C60 1_555 1_555
O18 Zn8 1_555 1_555
C61 C57 1_555 1_555
H29 C61 1_555 1_555
C62 C41 1_555 1_555
H30 C62 1_555 1_555
C63 C9 1_555 1_555
H31 C63 1_555 1_555
C64 C42 1_555 1_555
H32 C64 1_555 1_555
C65 C28 1_555 1_555
C66 C55 1_555 1_555
H33 C66 1_555 1_555
C67 C27 1_555 1_555
C68 C47 1_555 1_555
H34 C68 1_555 1_555
C69 C67 1_555 1_555
O19 Zn8 1_555 1_555
C70 C65 1_555 1_555
C71 O19 1_555 1_555
O20 C76 1_555 1_555
O21 C58 1_555 1_555
O22 Zn3 1_555 1_555
O23 Zn2 1_555 1_555
O24 Zn3 1_555 1_555
O25 Zn1 1_555 1_555
O26 Zn1 1_555 1_555
O27 C72 1_555 1_555
O28 Zn1 1_555 1_555
C72 C38 1_555 1_555
O29 C43 1_555 1_555
C73 O7 1_555 1_555
C74 C42 1_555 1_555
C75 C12 1_555 1_555
O30 C50 1_555 1_555
C76 C15 1_555 1_555
C77 C33 1_555 1_555
H35 C77 1_555 1_555
O31 Zn5 1_555 1_555
Zn3C O13 1_555 1_555
Zn4C O12 1_555 1_555
Zn5C O17 1_555 1_555
Zn5C_2 O21 1_555 1_555
Zn6C O11 1_555 1_555
Zn6C_2 O23 1_555 1_555
Zn7C O15 1_555 1_555
Zn7C_2 O16 1_555 1_555
Zn8C O29 1_555 1_555
Zn8C_2 O30 1_555 1_555
O11C Zn6 1_555 1_555
O12C Zn4 1_555 1_555
O13C Zn3 1_555 1_555
O15C Zn7 1_555 1_555
O16C Zn7 1_555 1_555
O17C Zn5 1_555 1_555
O21C Zn5 1_555 1_555
O23C Zn5 1_555 1_555
O23C_2 Zn6 1_555 1_555
O27C Zn6 1_555 1_555
O29C Zn8 1_555 1_555
O30C Zn8 1_555 1_555
Zn4 O22 1_555 1_555
Zn7 O23 1_555 1_555
Zn8 O22 1_555 1_555
C9 C22 1_555 1_555
C14 C73 1_555 1_555
C20 C49 1_555 1_555
C24 C63 1_555 1_555
C25 C30 1_555 1_555
C27 C29 1_555 1_555
C31 C40 1_555 1_555
C34 C58 1_555 1_555
C35 C67 1_555 1_555
C44 C45 1_555 1_555
C46 C59 1_555 1_555
C47 C60 1_555 1_555
C48 C51 1_555 1_555
C52 C54 1_555 1_555
C53 C57 1_555 1_555
C53 C65 1_555 1_555
C56 C77 1_555 1_555
C61 C64 1_555 1_555
C66 C68 1_555 1_555
O23 Zn5C_2 1_555 1_555
O24 C74 1_555 1_555
O25 C76 1_555 1_555
O26 C73 1_555 1_555
O27 Zn6C_2 1_555 1_555
O28 C75 1_555 1_555
Zn7C O23C 1_555 1_555
Zn7C_2 O23C_2 1_555 1_555

#END
