
#######################################################################
#
#                 Cambridge Crystallographic Data Centre
#                                CCDC 
#
#######################################################################
#
# If this CIF has been generated from an entry in the Cambridge 
# Structural Database, then it will include bibliographic, chemical, 
# crystal, experimental, refinement or atomic coordinate data resulting 
# from the CCDC's data processing and validation procedures.
#
#######################################################################

data_CUNWEO
_chemical_formula_moiety         '(C37 H26 Cd1 N6 O11)n'
_symmetry_cell_setting           monoclinic
_symmetry_space_group_name_H-M   'P 21/c'
_symmetry_Int_Tables_number      14
_space_group_name_Hall           '-P 2ybc'
loop_
_symmetry_equiv_pos_site_id
_symmetry_equiv_pos_as_xyz
1 x,y,z
2 -x,1/2+y,1/2-z
3 -x,-y,-z
4 x,1/2-y,1/2+z
_cell_length_a                   8.3930(4)
_cell_length_b                   22.2351(10)
_cell_length_c                   18.7421(8)
_cell_angle_alpha                90
_cell_angle_beta                 94.031(2)
_cell_angle_gamma                90
_cell_volume                     3488.98
loop_
_atom_site_label
_atom_site_type_symbol
_atom_site_fract_x
_atom_site_fract_y
_atom_site_fract_z
_atom_site_U_iso_or_equiv
_atom_site_thermal_displace_type
N5 N 1.2402(5) 0.8237(2) 1.0906(2) 0.1380 Uiso
C29 C 1.2103(5) 0.7687(2) 1.0764(2) 0.1260 Uiso
H15 H 1.2115 0.7456 1.1210 0.1510 Uiso
H16 H 1.2916 0.7527 1.0465 0.1510 Uiso
H17 H 1.1048 0.7653 1.0508 0.1510 Uiso
C30 C 1.2330(5) 0.8512(2) 1.0157(2) 0.5300 Uiso
H18 H 1.2544 0.8945 1.0194 0.6420 Uiso
H19 H 1.1265 0.8447 0.9920 0.6420 Uiso
H20 H 1.3133 0.8321 0.9877 0.6420 Uiso
C31 C 1.2334(5) 0.8504(2) 1.1519(2) 0.1910 Uiso
H21 H 1.2235 0.8258 1.1927 0.2290 Uiso
O9 O 1.2393(5) 0.9117(2) 1.1624(2) 0.1660 Uiso
C32 C 0.2619(5) 0.4430(2) 1.4149(2) 0.1000 Uiso
C33 C 0.1324(5) 0.4801(2) 1.4024(2) 0.1000 Uiso
H22 H 0.0386 0.4718 1.4262 0.1200 Uiso
C34 C 0.1320(5) 0.5258(2) 1.3597(2) 0.0740 Uiso
H23 H 0.0382 0.5470 1.3433 0.0890 Uiso
C35 C 0.2691(5) 0.5390(2) 1.3424(2) 0.0620 Uiso
C36 C 0.3744(5) 0.5095(2) 1.3172(2) 0.0730 Uiso
H25 H 0.4361 0.5181 1.2778 0.0880 Uiso
C37 C 0.3795(5) 0.4467(2) 1.3744(2) 0.1000 Uiso
H26 H 0.4627 0.4176 1.3754 0.1200 Uiso
N6 N 0.2602(5) 0.4099(2) 1.4709(2) 0.1120 Uiso
O10 O 0.3486(5) 0.3574(2) 1.4691(2) 0.1380 Uiso
O11 O 0.1155(5) 0.3908(2) 1.4833(2) 0.1460 Uiso
Cd1 Cd 0.31576(6) 0.556958(18) 0.98712(2) 0.0179 Uani
O1 O 0.5706(6) 0.54015(19) 0.9438(2) 0.0223 Uani
O2 O 0.7933(6) 0.4933(2) 0.9215(2) 0.0283 Uani
O3 O 0.8937(7) 0.7298(3) 0.6612(4) 0.0678 Uani
O4 O 0.4151(8) 0.7287(3) 0.7642(4) 0.0782 Uani
N1 N 0.4555(7) 0.8787(2) 0.5649(3) 0.0208 Uani
N2 N 0.6409(8) 0.7428(3) 0.7009(3) 0.0375 Uani
C1 C 0.6936(9) 0.5342(3) 0.9098(3) 0.0212 Uani
C2 C 0.7246(9) 0.5801(3) 0.8530(3) 0.0223 Uani
C3 C 0.8671(10) 0.5776(4) 0.8202(4) 0.0398 Uani
H1 H 0.9420 0.5467 0.8328 0.0480 Uiso
C4 C 0.9019(10) 0.6204(4) 0.7683(4) 0.0483 Uani
H2 H 1.0008 0.6198 0.7466 0.0580 Uiso
C5 C 0.7890(10) 0.6627(3) 0.7503(4) 0.0375 Uani
C6 C 0.6461(9) 0.6640(3) 0.7820(4) 0.0295 Uani
C7 C 0.6104(9) 0.6238(3) 0.8347(3) 0.0271 Uani
H3 H 0.5127 0.6258 0.8572 0.0320 Uiso
C8 C 0.5486(11) 0.7143(4) 0.7517(4) 0.0421 Uani
C9 C 0.7901(10) 0.7135(4) 0.6982(4) 0.0423 Uani
C10 C 0.5562(9) 0.8384(3) 0.5430(3) 0.0286 Uani
H4 H 0.5847 0.8411 0.4949 0.0340 Uiso
C11 C 0.6236(9) 0.7924(3) 0.5847(4) 0.0312 Uani
H5 H 0.6945 0.7640 0.5662 0.0370 Uiso
C12 C 0.5823(9) 0.7899(3) 0.6553(4) 0.0291 Uani
C13 C 0.4787(10) 0.8324(3) 0.6796(4) 0.0362 Uani
H6 H 0.4504 0.8322 0.7278 0.0430 Uiso
C14 C 0.4179(9) 0.8751(3) 0.6321(4) 0.0292 Uani
H7 H 0.3445 0.9036 0.6485 0.0350 Uiso
O5 O 0.2719(6) 0.64078(19) 0.9084(2) 0.0254 Uani
O6 O 0.0903(6) 0.6231(2) 0.9863(2) 0.0274 Uani
O7 O 0.1440(7) 0.8395(3) 0.7362(3) 0.0547 Uani
O8 O -0.3427(7) 0.8760(2) 0.8254(3) 0.0434 Uani
N3 N -0.1102(7) 0.8682(3) 0.7644(3) 0.0322 Uani
N4 N -0.2246(7) 0.9947(2) 0.6029(3) 0.0219 Uani
C15 C 0.1432(9) 0.6533(3) 0.9360(3) 0.0260 Uani
C16 C 0.0462(9) 0.7066(3) 0.9086(4) 0.0284 Uani
C17 C -0.0977(9) 0.7189(3) 0.9367(4) 0.0323 Uani
H8 H -0.1320 0.6942 0.9740 0.0390 Uiso
C18 C -0.1952(9) 0.7669(3) 0.9115(4) 0.0340 Uani
H9 H -0.2937 0.7758 0.9312 0.0410 Uiso
C19 C -0.1390(9) 0.8007(3) 0.8559(4) 0.0333 Uani
C20 C 0.0059(10) 0.7882(3) 0.8288(4) 0.0361 Uani
C21 C 0.1016(10) 0.7425(3) 0.8539(4) 0.0380 Uani
H10 H 0.2021 0.7351 0.8352 0.0460 Uiso
C22 C -0.2163(10) 0.8518(3) 0.8167(4) 0.0366 Uani
C23 C 0.0296(10) 0.8325(4) 0.7702(4) 0.0383 Uani
C24 C -0.2620(8) 1.0043(3) 0.6707(3) 0.0265 Uani
H11 H -0.3176 1.0401 0.6809 0.0320 Uiso
C25 C -0.2237(9) 0.9648(3) 0.7262(4) 0.0303 Uani
H12 H -0.2521 0.9733 0.7733 0.0360 Uiso
C26 C -0.1425(9) 0.9121(3) 0.7111(4) 0.0279 Uani
C27 C -0.0970(8) 0.9030(3) 0.6422(4) 0.0253 Uani
H13 H -0.0371 0.8686 0.6303 0.0300 Uiso
C28 C -0.1413(5) 0.9452(2) 0.5924(2) 0.0245 Uani
H14 H -0.1096 0.9386 0.5453 0.0290 Uiso
Cd1B Cd 0.68424(6) 0.443042(18) 1.01288(2) 0.0179 Uani
Cd1C Cd 0.31576(6) 0.943042(18) 0.48712(2) 0.0179 Uani
Cd1A Cd -0.31576(6) 1.056958(18) 0.51288(2) 0.0179 Uani
O2B O 0.2067(6) 0.5067(2) 1.0785(2) 0.0283 Uani
N1C N 0.4555(7) 0.6213(2) 1.0649(3) 0.0208 Uani
N4A N 0.2246(7) 0.4947(2) 0.8971(3) 0.0219 Uani
loop_
_atom_site_aniso_label
_atom_site_aniso_U_11
_atom_site_aniso_U_22
_atom_site_aniso_U_33
_atom_site_aniso_U_23
_atom_site_aniso_U_13
_atom_site_aniso_U_12
Cd1 0.0241(3) 0.0116(3) 0.0176(2) -0.00027(17) -0.00214(17) 0.0007(2)
O1 0.023 0.021 0.023 0.0014 0.003 0.0004
O2 0.035 0.022 0.028 0.008 0.003 0.011
O3 0.043 0.082 0.082 0.06 0.03 0.026
O4 0.059 0.083 0.099 0.067 0.051 0.05
N1 0.025 0.014 0.023 0.005 -0.001 0.001
N2 0.034 0.039 0.041 0.026 0.014 0.015
C1 0.029 0.014 0.02 -0.001 -0.003 -0.005
C2 0.023 0.023 0.021 0.005 0.002 0
C3 0.031 0.047 0.042 0.021 0.006 0.013
C4 0.035 0.057 0.055 0.035 0.018 0.018
C5 0.035 0.036 0.042 0.02 0.006 0.011
C6 0.03 0.03 0.029 0.011 0.006 0.007
C7 0.029 0.026 0.026 0.006 0 0
C8 0.041 0.037 0.05 0.029 0.016 0.013
C9 0.035 0.047 0.046 0.027 0.011 0.015
C10 0.04 0.024 0.022 0.006 0.003 0.004
C11 0.03 0.032 0.032 0.008 0.005 0.007
C12 0.029 0.024 0.035 0.018 0.007 0.004
C13 0.046 0.037 0.027 0.011 0.012 0.011
C14 0.032 0.028 0.028 0.007 0.004 0.009
O5 0.027 0.022 0.028 0.0052 0.007 0.009
O6 0.032 0.022 0.029 0.011 0.007 0.009
O7 0.043 0.063 0.061 0.046 0.024 0.024
O8 0.037 0.048 0.047 0.029 0.016 0.024
N3 0.03 0.029 0.038 0.022 0.006 0.015
N4 0.024 0.017 0.024 0.006 -0.003 -0.002
C15 0.032 0.017 0.028 0.004 -0.006 -0.001
C16 0.034 0.023 0.029 0.012 0.008 0.009
C17 0.038 0.029 0.031 0.016 0.01 0.009
C18 0.025 0.039 0.039 0.018 0.01 0.013
C19 0.033 0.032 0.036 0.014 0.01 0.01
C20 0.036 0.036 0.037 0.019 0.007 0.012
C21 0.042 0.03 0.044 0.021 0.017 0.016
C22 0.042 0.034 0.034 0.016 0.005 0.011
C23 0.036 0.039 0.041 0.023 0.011 0.013
C24 0.021 0.028 0.03 0.002 -0.002 0.002
C25 0.035 0.033 0.024 0.006 0.009 0.009
C26 0.019 0.03 0.035 0.011 0.005 0.003
C27 0.02 0.018 0.038 0.005 0.003 0.006
C28 0.023 0.021 0.029 0.002 -0.001 -0.004
Cd1B 0.0241 0.0116 0.0176 -0.00027 -0.00214 0.0007
Cd1C 0.0241 0.0116 0.0176 0.00027 -0.00214 -0.0007
Cd1A 0.0241 0.0116 0.0176 0.00027 -0.00214 -0.0007
O2B 0.035 0.022 0.028 0.008 0.003 0.011
N1C 0.025(4) 0.014(3) 0.023(3) -0.005(2) -0.001(2) -0.001(2)
N4A 0.024(4) 0.017(3) 0.024(3) -0.006(2) -0.003(2) 0.002(2)
loop_
_geom_bond_atom_site_label_1
_geom_bond_atom_site_label_2
_geom_bond_site_symmetry_1
_geom_bond_site_symmetry_2
Cd1 O1 1_555 1_555
O1 C1 1_555 1_555
O2 C1 1_555 1_555
O3 C9 1_555 1_555
O4 C8 1_555 1_555
N1 C10 1_555 1_555
N2 C8 1_555 1_555
C1 C2 1_555 1_555
C2 C3 1_555 1_555
C3 H1 1_555 1_555
C4 C3 1_555 1_555
H2 C4 1_555 1_555
C5 C4 1_555 1_555
C6 C5 1_555 1_555
C7 C2 1_555 1_555
H3 C7 1_555 1_555
C8 C6 1_555 1_555
C9 N2 1_555 1_555
C10 H4 1_555 1_555
C11 C10 1_555 1_555
H5 C11 1_555 1_555
C12 N2 1_555 1_555
C13 C12 1_555 1_555
H6 C13 1_555 1_555
C14 N1 1_555 1_555
H7 C14 1_555 1_555
O5 Cd1 1_555 1_555
O6 Cd1 1_555 1_555
O7 C23 1_555 1_555
O8 C22 1_555 1_555
N3 C22 1_555 1_555
N4 C24 1_555 1_555
C15 O5 1_555 1_555
C16 C15 1_555 1_555
C17 C16 1_555 1_555
H8 C17 1_555 1_555
C18 C17 1_555 1_555
H9 C18 1_555 1_555
C19 C18 1_555 1_555
C20 C19 1_555 1_555
C21 C16 1_555 1_555
H10 C21 1_555 1_555
C22 C19 1_555 1_555
C23 N3 1_555 1_555
C24 H11 1_555 1_555
C25 C24 1_555 1_555
H12 C25 1_555 1_555
C26 N3 1_555 1_555
C27 C26 1_555 1_555
H13 C27 1_555 1_555
C28 N4 1_555 1_555
H14 C28 1_555 1_555
N5 C29 1_555 1_555
C29 H15 1_555 1_555
H16 C29 1_555 1_555
H17 C29 1_555 1_555
C30 N5 1_555 1_555
H18 C30 1_555 1_555
H19 C30 1_555 1_555
H20 C30 1_555 1_555
C31 N5 1_555 1_555
H21 C31 1_555 1_555
O9 C31 1_555 1_555
C32 C33 1_555 1_555
C33 H22 1_555 1_555
C34 C33 1_555 1_555
H23 C34 1_555 1_555
C35 C34 1_555 1_555
C36 C35 1_555 1_555
H25 C36 1_555 1_555
C37 C32 1_555 1_555
H26 C37 1_555 1_555
N6 C32 1_555 1_555
O10 N6 1_555 1_555
O11 N6 1_555 1_555
Cd1B O2 1_555 1_555
Cd1C N1 1_555 1_555
Cd1A N4 1_555 1_555
O2B Cd1 1_555 1_555
N1C Cd1 1_555 1_555
N4A Cd1 1_555 1_555
C5 C9 1_555 1_555
C6 C7 1_555 1_555
C11 C12 1_555 1_555
C13 C14 1_555 1_555
O6 C15 1_555 1_555
C20 C21 1_555 1_555
C20 C23 1_555 1_555
C25 C26 1_555 1_555
C27 C28 1_555 1_555
C36 C37 1_555 1_555

#END
