
#######################################################################
#
#                 Cambridge Crystallographic Data Centre
#                                CCDC 
#
#######################################################################
#
# If this CIF has been generated from an entry in the Cambridge 
# Structural Database, then it will include bibliographic, chemical, 
# crystal, experimental, refinement or atomic coordinate data resulting 
# from the CCDC's data processing and validation procedures.
#
#######################################################################

data_FAQLER01
_chemical_formula_moiety         '(C16 H8 O10 V2)n'
_symmetry_cell_setting           tetragonal
_symmetry_space_group_name_H-M   'I 41 2 2'
_symmetry_Int_Tables_number      98
_space_group_name_Hall           'I 4bw 2bw'
loop_
_symmetry_equiv_pos_site_id
_symmetry_equiv_pos_as_xyz
1 x,y,z
2 1/2-x,y,3/4-z
3 -y,-x,-z
4 -y,1/2+x,1/4+z
5 1/2+y,-x,3/4+z
6 1/2+y,1/2+x,1/2-z
7 x,1/2-y,1/4-z
8 1/2-x,1/2-y,1/2+z
9 1/2+x,1/2+y,1/2+z
10 -x,1/2+y,1/4-z
11 1/2-y,1/2-x,1/2-z
12 1/2-y,x,3/4+z
13 y,1/2-x,1/4+z
14 y,x,-z
15 1/2+x,-y,3/4-z
16 -x,-y,z
_cell_length_a                   15.13549(4)
_cell_length_b                   15.13549(4)
_cell_length_c                   12.06324(4)
_cell_angle_alpha                90
_cell_angle_beta                 90
_cell_angle_gamma                90
_cell_volume                     2763.48
loop_
_atom_site_label
_atom_site_type_symbol
_atom_site_fract_x
_atom_site_fract_y
_atom_site_fract_z
_atom_site_U_iso_or_equiv
_atom_site_thermal_displace_type
V1 V 0.68986(7) 0.31014(7) 0.500 0.0127 Uiso
O1 O 0.7443(3) 0.250 0.625 0.0128 Uiso
O2 O 0.60283(19) 0.29233(19) 0.7671(2) 0.0128 Uiso
O3 O 0.6271(2) 0.3811(2) 0.6174(2) 0.0128 Uiso
C1 C 0.5919(3) 0.3589(3) 0.7108(4) 0.0206 Uiso
C2 C 0.5414(3) 0.4319(3) 0.7632(4) 0.0206 Uiso
C3 C 0.500 0.500 0.7080(5) 0.0206 Uiso
C4 C 0.5456(3) 0.4327(3) 0.8818(3) 0.0206 Uiso
C5 C 0.500 0.500 0.9372(4) 0.0206 Uiso
H1 H 0.500 0.500 0.631(3) 0.0248 Uiso
H2 H 0.57318 0.38162 0.90735 0.0248 Uiso
H3 H 0.806 0.250 0.625 0.0248 Uiso
C1B C 0.6411(3) 0.4081(3) 1.2892(4) 0.0206 Uiso
C2B C 0.5681(3) 0.4586(3) 1.2368(4) 0.0206 Uiso
C3B C 0.500 0.500 1.2920(5) 0.0206 Uiso
C4B C 0.5673(3) 0.4544(3) 1.1182(3) 0.0206 Uiso
C5B C 0.500 0.500 1.0628(4) 0.0206 Uiso
H1B H 0.500 0.500 1.369(3) 0.0248 Uiso
H2B H 0.61838 0.42682 1.09265 0.0248 Uiso
O2B O 0.70767(19) 0.39717(19) 1.2329(2) 0.0128 Uiso
O3B O 0.6189(2) 0.3729(2) 1.3826(2) 0.0128 Uiso
C1M C 0.3589(3) 0.5919(3) 1.2892(4) 0.0206 Uiso
C2M C 0.4319(3) 0.5414(3) 1.2368(4) 0.0206 Uiso
C4M C 0.4327(3) 0.5456(3) 1.1182(3) 0.0206 Uiso
H2M H 0.38162 0.57318 1.09265 0.0248 Uiso
O2M O 0.29233(19) 0.60283(19) 1.2329(2) 0.0128 Uiso
O3M O 0.3811(2) 0.6271(2) 1.3826(2) 0.0128 Uiso
C1O C 0.4081(3) 0.6411(3) 0.7108(4) 0.0206 Uiso
C2O C 0.4586(3) 0.5681(3) 0.7632(4) 0.0206 Uiso
C4O C 0.4544(3) 0.5673(3) 0.8818(3) 0.0206 Uiso
H2O H 0.42682 0.61838 0.90735 0.0248 Uiso
O2O O 0.39717(19) 0.70767(19) 0.7671(2) 0.0128 Uiso
O3O O 0.3729(2) 0.6189(2) 0.6174(2) 0.0128 Uiso
V1A V 0.81014(7) 0.31014(7) 1.250 0.0127 Uiso
O1A O 0.7557(3) 0.250 1.125 0.0128 Uiso
H3A H 0.694 0.250 1.125 0.0248 Uiso
V1_2 V 0.68986(7) 0.31014(7) 1.500 0.0127 Uiso
V1C V 0.68986(7) 0.18986(7) 0.750 0.0127 Uiso
V1E V 0.81014(7) 0.18986(7) 1.000 0.0127 Uiso
V1I V 0.31014(7) 0.81014(7) 0.750 0.0127 Uiso
V1K V 0.18986(7) 0.68986(7) 1.250 0.0127 Uiso
V1M V 0.31014(7) 0.68986(7) 0.500 0.0127 Uiso
V1M_2 V 0.31014(7) 0.68986(7) 1.500 0.0127 Uiso
O1B O 0.750 0.2557(3) 0.375 0.0128 Uiso
O1B_2 O 0.750 0.2557(3) 1.375 0.0128 Uiso
O2D O 0.79233(19) 0.39717(19) 0.5171(2) 0.0128 Uiso
O2F O 0.60283(19) 0.20767(19) 0.4829(2) 0.0128 Uiso
O2G O 0.89717(19) 0.20767(19) 1.2671(2) 0.0128 Uiso
O3A O 0.8729(2) 0.3811(2) 1.1326(2) 0.0128 Uiso
O3B_2 O 0.6189(2) 0.3729(2) 0.3826(2) 0.0128 Uiso
O3D O 0.8811(2) 0.3729(2) 1.3674(2) 0.0128 Uiso
loop_
_geom_bond_atom_site_label_1
_geom_bond_atom_site_label_2
_geom_bond_site_symmetry_1
_geom_bond_site_symmetry_2
V1 O1 1_555 1_555
O1 H3 1_555 1_555
O2 C1 1_555 1_555
O3 V1 1_555 1_555
C1 O3 1_555 1_555
C2 C1 1_555 1_555
C3 C2 1_555 1_555
C4 C2 1_555 1_555
C5 C4 1_555 1_555
H1 C3 1_555 1_555
H2 C4 1_555 1_555
C1B C2B 1_555 1_555
C2B C3B 1_555 1_555
C3B H1B 1_555 1_555
C4B C2B 1_555 1_555
C5B C5 1_555 1_555
H2B C4B 1_555 1_555
O2B C1B 1_555 1_555
O3B C1B 1_555 1_555
C1M C2M 1_555 1_555
C2M C3B 1_555 1_555
C4M C5B 1_555 1_555
H2M C4M 1_555 1_555
O2M C1M 1_555 1_555
O3M C1M 1_555 1_555
C1O C2O 1_555 1_555
C2O C3 1_555 1_555
C4O C5 1_555 1_555
H2O C4O 1_555 1_555
O2O C1O 1_555 1_555
O3O C1O 1_555 1_555
V1A O2B 1_555 1_555
O1A V1A 1_555 1_555
H3A O1A 1_555 1_555
V1_2 O3B 1_555 1_555
V1C O1 1_555 1_555
V1E O1A 1_555 1_555
V1I O2O 1_555 1_555
V1K O2M 1_555 1_555
V1M O3O 1_555 1_555
V1M_2 O3M 1_555 1_555
O1B V1 1_555 1_555
O1B_2 V1A 1_555 1_555
O2D V1 1_555 1_555
O2F V1 1_555 1_555
O2G V1A 1_555 1_555
O3A V1A 1_555 1_555
O3B_2 V1 1_555 1_555
O3D V1A 1_555 1_555
O2 V1C 1_555 1_555
C4B C5B 1_555 1_555
C2M C4M 1_555 1_555
C2O C4O 1_555 1_555
V1_2 O1B_2 1_555 1_555

#END
