
#######################################################################
#
#                 Cambridge Crystallographic Data Centre
#                                CCDC 
#
#######################################################################
#
# If this CIF has been generated from an entry in the Cambridge 
# Structural Database, then it will include bibliographic, chemical, 
# crystal, experimental, refinement or atomic coordinate data resulting 
# from the CCDC's data processing and validation procedures.
#
#######################################################################

data_ETIXUC
_chemical_formula_moiety         '(C17 H12 O8 Zn2)n'
_symmetry_cell_setting           monoclinic
_symmetry_space_group_name_H-M   'P 21/n'
_symmetry_Int_Tables_number      14
_space_group_name_Hall           '-P 2yn'
loop_
_symmetry_equiv_pos_site_id
_symmetry_equiv_pos_as_xyz
1 x,y,z
2 1/2-x,1/2+y,1/2-z
3 -x,-y,-z
4 1/2+x,1/2-y,1/2+z
_cell_length_a                   11.9579(8)
_cell_length_b                   10.7716(7)
_cell_length_c                   18.4142(12)
_cell_angle_alpha                90
_cell_angle_beta                 91.6330(10)
_cell_angle_gamma                90
_cell_volume                     2370.89
loop_
_atom_site_label
_atom_site_type_symbol
_atom_site_fract_x
_atom_site_fract_y
_atom_site_fract_z
Zn1 Zn 0.37117(3) 0.57708(3) 0.28877(2)
O1 O 0.29384(19) 0.7265(2) 0.31240(11)
Zn2 Zn 0.69767(3) 0.73232(3) 0.72377(2)
O2 O 0.0874(2) 0.8251(3) 0.31616(12)
H1 H 0.059(4) 0.897(5) 0.313(3)
O3 O 0.5894(2) 0.6857(2) 0.64523(13)
C1 C 0.3072(3) 0.6945(5) 0.44253(19)
O4 O 0.51602(19) 0.4960(2) 0.64851(13)
C2 C 0.2915(4) 0.5874(4) 0.4804(2)
H2 H 0.2317 0.5332 0.4669
O5 O -0.06107(19) 0.9141(2) 0.69333(12)
C3 C 0.3617(3) 0.5576(4) 0.5380(2)
H3 H 0.3517 0.4813 0.5629
O6 O -0.1803(2) 0.7708(2) 0.65027(12)
C4 C 0.4470(3) 0.6369(3) 0.56046(16)
O7 O 0.24465(18) 0.4569(2) 0.27150(11)
C5 C 0.4627(3) 0.7456(4) 0.5229(2)
H4 H 0.5204 0.8014 0.5380
O8 O 0.12074(19) 0.5913(2) 0.22367(13)
C6 C 0.3940(4) 0.7737(4) 0.4629(2)
H5 H 0.4067 0.8472 0.4359
C7 C 0.5232(3) 0.6046(3) 0.62311(16)
C8 C 0.0857(3) 0.8221(5) 0.4494(2)
C9 C 0.1253(3) 0.8899(4) 0.5075(2)
H6 H 0.1941 0.9333 0.5041
C10 C 0.0666(3) 0.8962(4) 0.5707(2)
H7 H 0.0947 0.9442 0.6105
C11 C -0.0338(3) 0.8320(3) 0.57624(17)
C12 C -0.0744(3) 0.7627(4) 0.51814(19)
H8 H -0.1428 0.7185 0.5216
C13 C -0.0148(4) 0.7579(4) 0.4547(2)
H9 H -0.0428 0.7106 0.4146
C14 C -0.0973(3) 0.8382(3) 0.64464(17)
C15 C 0.1496(3) 0.4878(3) 0.24406(17)
H10 H 0.0955 0.4236 0.2389
C16 C 0.2276(5) 0.7120(6) 0.3770(2)
H11 H 0.1772 0.6382 0.3714
C17 C 0.1586(4) 0.8293(6) 0.3832(2)
H12 H 0.2070 0.9050 0.3846
Zn1B Zn 0.62883(3) 0.42292(3) 0.71123(2)
Zn1C Zn -0.12883(3) 0.92292(3) 0.78877(2)
O1C O 0.79384(19) 0.7735(2) 0.81240(11)
Zn2_2 Zn -0.30233(3) 0.73232(3) 0.72377(2)
Zn2B Zn 0.30233(3) 0.26768(3) 0.27623(2)
Zn2C Zn 0.19767(3) 0.76768(3) 0.22377(2)
O2C O 0.5874(2) 0.6749(3) 0.81616(12)
O4B O 0.48398(19) 0.5040(2) 0.35149(13)
O5C O 0.43893(19) 0.5859(2) 0.19333(12)
O6_2 O 0.8197(2) 0.7708(2) 0.65027(12)
O7B O 0.75535(18) 0.5431(2) 0.72850(11)
O8C O 0.62074(19) 0.9087(2) 0.72367(13)
loop_
_geom_bond_atom_site_label_1
_geom_bond_atom_site_label_2
_geom_bond_site_symmetry_1
_geom_bond_site_symmetry_2
Zn1 O1 1_555 1_555
O1 C16 1_555 1_555
Zn2 O3 1_555 1_555
O2 H1 1_555 1_555
O3 C7 1_555 1_555
C1 C2 1_555 1_555
O4 C7 1_555 1_555
C2 H2 1_555 1_555
O5 C14 1_555 1_555
C3 C2 1_555 1_555
H3 C3 1_555 1_555
O6 C14 1_555 1_555
C4 C3 1_555 1_555
O7 Zn1 1_555 1_555
C5 C4 1_555 1_555
H4 C5 1_555 1_555
O8 C15 1_555 1_555
C6 C1 1_555 1_555
H5 C6 1_555 1_555
C7 C4 1_555 1_555
C8 C9 1_555 1_555
C9 H6 1_555 1_555
C10 C9 1_555 1_555
H7 C10 1_555 1_555
C11 C10 1_555 1_555
C12 C11 1_555 1_555
H8 C12 1_555 1_555
C13 C8 1_555 1_555
H9 C13 1_555 1_555
C14 C11 1_555 1_555
C15 O7 1_555 1_555
H10 C15 1_555 1_555
C16 C1 1_555 1_555
H11 C16 1_555 1_555
C17 O2 1_555 1_555
H12 C17 1_555 1_555
Zn1B O4 1_555 1_555
Zn1C O5 1_555 1_555
O1C Zn2 1_555 1_555
Zn2_2 O6 1_555 1_555
Zn2B O7 1_555 1_555
Zn2C O1 1_555 1_555
O2C Zn2 1_555 1_555
O4B Zn1 1_555 1_555
O5C Zn1 1_555 1_555
O6_2 Zn2 1_555 1_555
O7B Zn2 1_555 1_555
O8C Zn2 1_555 1_555
O2 Zn2C 1_555 1_555
C5 C6 1_555 1_555
O8 Zn2C 1_555 1_555
C8 C17 1_555 1_555
C12 C13 1_555 1_555
C16 C17 1_555 1_555
Zn1B O7B 1_555 1_555

#END
