
#######################################################################
#
#                 Cambridge Crystallographic Data Centre
#                                CCDC 
#
#######################################################################
#
# If this CIF has been generated from an entry in the Cambridge 
# Structural Database, then it will include bibliographic, chemical, 
# crystal, experimental, refinement or atomic coordinate data resulting 
# from the CCDC's data processing and validation procedures.
#
#######################################################################

data_ETIXOW
_chemical_formula_moiety         '(C23 H26 N2 O10 Zn2)n'
_symmetry_cell_setting           monoclinic
_symmetry_space_group_name_H-M   'P 21/n'
_symmetry_Int_Tables_number      14
_space_group_name_Hall           '-P 2yn'
loop_
_symmetry_equiv_pos_site_id
_symmetry_equiv_pos_as_xyz
1 x,y,z
2 1/2-x,1/2+y,1/2-z
3 -x,-y,-z
4 1/2+x,1/2-y,1/2+z
_cell_length_a                   12.3341(7)
_cell_length_b                   10.8263(6)
_cell_length_c                   18.2036(11)
_cell_angle_alpha                90
_cell_angle_beta                 93.4880(10)
_cell_angle_gamma                90
_cell_volume                     2426.27
loop_
_atom_site_label
_atom_site_type_symbol
_atom_site_fract_x
_atom_site_fract_y
_atom_site_fract_z
Zn1 Zn -0.19886(2) 0.22506(3) 0.28207(2)
Zn2 Zn 0.11281(3) 0.09754(3) 0.71765(2)
O1 O 0.5653(2) 0.3839(3) 0.31630(15)
C1 C 0.1320(4) 0.0397(4) 0.4692(3)
H1 H 0.1312 -0.0412 0.4491
O2 O 0.6749(2) 0.2286(2) 0.35296(13)
C2 C 0.0623(2) 0.1284(3) 0.43919(15)
O3 O 0.42354(18) 0.2902(2) 0.69445(12)
H2 H 0.4805 0.3324 0.6928
C3 C 0.2043(3) 0.1817(4) 0.56053(15)
O4 O 0.21486(16) 0.22137(18) 0.69040(10)
C4 C 0.2038(4) 0.0683(5) 0.5290(3)
H3 H 0.2532 0.0071 0.5480
O5 O -0.01046(19) -0.0053(2) 0.34646(13)
O6 O -0.0888(2) 0.1794(2) 0.36196(12)
O7 O -0.1466(2) 0.4097(2) 0.30188(14)
C5 C 0.1308(4) 0.2674(4) 0.5338(3)
H4 H 0.1275 0.3456 0.5573
C6 C 0.0604(4) 0.2421(4) 0.4727(3)
H5 H 0.0110 0.3036 0.4542
O8 O -0.26567(17) 0.53522(19) 0.24058(11)
C7 C 0.3588(3) 0.3031(4) 0.6251(2)
H6 H 0.3176 0.3826 0.6256
C8 C 0.2787(3) 0.1951(4) 0.6297(2)
H7 H 0.3199 0.1165 0.6392
C9 C 0.4235(3) 0.2990(5) 0.5576(2)
C10 C 0.3942(5) 0.3771(5) 0.4995(3)
H8 H 0.3348 0.4321 0.5035
C11 C 0.4496(5) 0.3764(6) 0.4361(3)
H9 H 0.4281 0.4307 0.3969
C12 C 0.5359(5) 0.2974(6) 0.4292(3)
C13 C 0.5660(5) 0.2184(6) 0.4856(3)
H10 H 0.6252 0.1633 0.4810
C14 C 0.5095(5) 0.2188(6) 0.5503(3)
H11 H 0.5305 0.1637 0.5892
C15 C -0.1752(3) 0.5099(3) 0.27503(17)
H12 H -0.1243 0.5756 0.2806
C16 C 0.5977(2) 0.3006(3) 0.36079(16)
C17 C -0.0187(2) 0.0992(3) 0.37723(14)
N1 N -0.1287(6) 0.3489(5) 0.6039(4)
O9 O -0.0159(3) 0.2595(3) 0.6920(2)
C18 C -0.0797(6) 0.2576(7) 0.6381(4)
H13 H -0.0957 0.1780 0.6184
C19 C -0.1108(7) 0.4701(7) 0.6265(6)
H14 H -0.1546 0.5259 0.5943
H15 H -0.0337 0.4903 0.6238
H16 H -0.1315 0.4797 0.6773
C20 C -0.2051(12) 0.3352(14) 0.5415(8)
H17 H -0.2312 0.4168 0.5253
H18 H -0.2666 0.2849 0.5554
H19 H -0.1694 0.2946 0.5014
Zn1_2 Zn 0.80114(2) 0.22506(3) 0.28207(2)
Zn1A Zn -0.30114(2) 0.72506(3) 0.21793(2)
Zn1C Zn 0.30114(2) 0.27494(3) 0.78207(2)
Zn2B Zn -0.11281(3) -0.09754(3) 0.28235(2)
Zn2C Zn -0.38719(3) 0.40246(3) 0.21765(2)
Zn2C_2 Zn 0.61281(3) 0.40246(3) 0.21765(2)
O1C O 0.0653(2) 0.1161(3) 0.81630(15)
O2_2 O -0.3251(2) 0.2286(2) 0.35296(13)
O3C O -0.07646(18) 0.2098(2) 0.19445(12)
O4C O -0.28514(16) 0.27863(18) 0.19040(10)
O5B O 0.01046(19) 0.0053(2) 0.65354(13)
O8A O -0.23433(17) 0.03522(19) 0.25942(11)
O8C O 0.23433(17) -0.03522(19) 0.74058(11)
N2 N 0.2518(5) 0.0801(11) 0.2948(4)
O10 O 0.1286(5) 0.1424(9) 0.2157(5)
C29 C 0.1790(8) 0.0588(9) 0.2462(5)
H26 H 0.1626 -0.0243 0.2328
C30 C 0.3017(13) 0.1851(15) 0.3252(9)
H27 H 0.3570 0.1606 0.3634
H28 H 0.3362 0.2314 0.2867
H29 H 0.2472 0.2372 0.3470
C31 C 0.3155(16) -0.0258(18) 0.3207(11)
H30 H 0.3703 0.0008 0.3587
H31 H 0.2675 -0.0871 0.3415
H32 H 0.3516 -0.0626 0.2795
loop_
_geom_bond_atom_site_label_1
_geom_bond_atom_site_label_2
_geom_bond_site_symmetry_1
_geom_bond_site_symmetry_2
Zn1 O6 1_555 1_555
Zn2 O4 1_555 1_555
O1 C16 1_555 1_555
C1 H1 1_555 1_555
O2 C16 1_555 1_555
C2 C1 1_555 1_555
O3 H2 1_555 1_555
C3 C4 1_555 1_555
O4 C8 1_555 1_555
C4 C1 1_555 1_555
H3 C4 1_555 1_555
O5 C17 1_555 1_555
O6 C17 1_555 1_555
O7 Zn1 1_555 1_555
C5 C3 1_555 1_555
H4 C5 1_555 1_555
C6 C2 1_555 1_555
H5 C6 1_555 1_555
O8 C15 1_555 1_555
C7 O3 1_555 1_555
H6 C7 1_555 1_555
C8 C3 1_555 1_555
H7 C8 1_555 1_555
C9 C7 1_555 1_555
C10 C9 1_555 1_555
H8 C10 1_555 1_555
C11 C10 1_555 1_555
H9 C11 1_555 1_555
C12 C11 1_555 1_555
C13 C12 1_555 1_555
H10 C13 1_555 1_555
C14 C9 1_555 1_555
H11 C14 1_555 1_555
C15 O7 1_555 1_555
H12 C15 1_555 1_555
C16 C12 1_555 1_555
C17 C2 1_555 1_555
N1 C18 1_555 1_555
O9 Zn2 1_555 1_555
C18 O9 1_555 1_555
H13 C18 1_555 1_555
C19 N1 1_555 1_555
H14 C19 1_555 1_555
H15 C19 1_555 1_555
H16 C19 1_555 1_555
C20 N1 1_555 1_555
H17 C20 1_555 1_555
H18 C20 1_555 1_555
H19 C20 1_555 1_555
N2 C29 1_555 1_555
O10 C29 1_555 1_555
C29 H26 1_555 1_555
C30 N2 1_555 1_555
H27 C30 1_555 1_555
H28 C30 1_555 1_555
H29 C30 1_555 1_555
C31 N2 1_555 1_555
H30 C31 1_555 1_555
H31 C31 1_555 1_555
H32 C31 1_555 1_555
Zn1_2 O2 1_555 1_555
Zn1A O8 1_555 1_555
Zn1C O3 1_555 1_555
Zn2B O5 1_555 1_555
Zn2C O8 1_555 1_555
Zn2C_2 O1 1_555 1_555
O1C Zn2 1_555 1_555
O2_2 Zn1 1_555 1_555
O3C Zn1 1_555 1_555
O4C Zn1 1_555 1_555
O5B Zn2 1_555 1_555
O8A Zn1 1_555 1_555
O8C Zn2 1_555 1_555
O4 Zn1C 1_555 1_555
C5 C6 1_555 1_555
C7 C8 1_555 1_555
C13 C14 1_555 1_555
Zn2B O8A 1_555 1_555
Zn2C O4C 1_555 1_555

#END
