
#######################################################################
#
#                 Cambridge Crystallographic Data Centre
#                                CCDC 
#
#######################################################################
#
# If this CIF has been generated from an entry in the Cambridge 
# Structural Database, then it will include bibliographic, chemical, 
# crystal, experimental, refinement or atomic coordinate data resulting 
# from the CCDC's data processing and validation procedures.
#
#######################################################################

data_ETIYAJ
_chemical_formula_moiety         '(C17 H12 Mn2 O8)n'
_symmetry_cell_setting           monoclinic
_symmetry_space_group_name_H-M   'P 21/n'
_symmetry_Int_Tables_number      14
_space_group_name_Hall           '-P 2yn'
loop_
_symmetry_equiv_pos_site_id
_symmetry_equiv_pos_as_xyz
1 x,y,z
2 1/2-x,1/2+y,1/2-z
3 -x,-y,-z
4 1/2+x,1/2-y,1/2+z
_cell_length_a                   11.5713(6)
_cell_length_b                   10.9984(5)
_cell_length_c                   18.4974(9)
_cell_angle_alpha                90
_cell_angle_beta                 95.0730(10)
_cell_angle_gamma                90
_cell_volume                     2344.86
loop_
_atom_site_label
_atom_site_type_symbol
_atom_site_fract_x
_atom_site_fract_y
_atom_site_fract_z
Mn1 Mn 0.88097(3) 0.38739(3) 0.29618(2)
Mn2 Mn 0.69624(3) 0.18455(3) 0.22148(2)
O1 O 0.79048(16) 0.23917(16) 0.31820(9)
O2 O 0.57944(17) 0.12999(19) 0.31701(10)
H1 H 0.556(4) 0.063(5) 0.320(3)
O3 O 1.07697(18) 0.41854(19) 0.65315(10)
C1 C 0.7137(3) 0.2628(3) 0.37509(16)
H2 H 0.6570 0.3282 0.3593
C2 C 0.6494(3) 0.1440(3) 0.38691(17)
H3 H 0.7045 0.0746 0.3965
C3 C 0.7888(3) 0.3031(4) 0.44314(14)
O4 O 0.96801(18) 0.57854(19) 0.63445(12)
C4 C 0.8810(3) 0.2408(4) 0.4784(2)
H4 H 0.9002 0.1622 0.4618
O5 O 0.43439(19) 0.12425(18) 0.69371(10)
C5 C 0.9465(3) 0.2913(3) 0.53834(17)
H5 H 1.0083 0.2469 0.5632
O6 O 0.32094(18) 0.27368(18) 0.64611(10)
C6 C 0.9197(2) 0.4068(2) 0.56051(12)
O7 O 0.73114(16) 0.49640(16) 0.26193(9)
C7 C 0.8277(3) 0.4686(3) 0.52419(19)
H6 H 0.8091 0.5483 0.5393
O8 O 0.61318(17) 0.35940(18) 0.20438(10)
C8 C 0.7625(4) 0.4157(4) 0.46626(19)
H7 H 0.6988 0.4587 0.4425
C9 C 0.9909(2) 0.4704(2) 0.61965(12)
C10 C 0.5734(3) 0.1622(4) 0.44934(16)
C11 C 0.4712(3) 0.2257(4) 0.44781(15)
H8 H 0.4393 0.2605 0.4034
C12 C 0.4130(3) 0.2403(3) 0.51046(14)
H9 H 0.3436 0.2867 0.5093
C13 C 0.4584(2) 0.1858(2) 0.57386(13)
C14 C 0.5600(3) 0.1184(2) 0.57445(17)
H10 H 0.5904 0.0795 0.6179
C15 C 0.6171(3) 0.1078(3) 0.51244(18)
H11 H 0.6872 0.0625 0.5135
C16 C 0.3991(2) 0.1968(2) 0.64229(13)
C17 C 0.6390(2) 0.4639(2) 0.22436(14)
H12 H 0.580(3) 0.526(4) 0.214(2)
Mn1B Mn 1.11903(3) 0.61261(3) 0.70382(2)
Mn1C Mn 0.38097(3) 0.11261(3) 0.79618(2)
Mn2A Mn 0.80376(3) 0.68455(3) 0.27852(2)
Mn2C Mn 0.19624(3) 0.31545(3) 0.72148(2)
Mn2C_2 Mn 1.19624(3) 0.31545(3) 0.72148(2)
O3B O 0.92303(18) 0.58146(19) 0.34685(10)
O3C O 0.57697(18) 0.08146(19) 0.15315(10)
O4B O 1.03199(18) 0.42146(19) 0.36555(12)
O5C O 0.93439(19) 0.37575(18) 0.19371(10)
O6C O 0.82094(18) 0.22632(18) 0.14611(10)
O7A O 0.76886(16) -0.00360(16) 0.23807(9)
loop_
_geom_bond_atom_site_label_1
_geom_bond_atom_site_label_2
_geom_bond_site_symmetry_1
_geom_bond_site_symmetry_2
Mn1 O1 1_555 1_555
Mn2 O1 1_555 1_555
O1 C1 1_555 1_555
O2 Mn2 1_555 1_555
H1 O2 1_555 1_555
O3 C9 1_555 1_555
C1 H2 1_555 1_555
C2 O2 1_555 1_555
H3 C2 1_555 1_555
C3 C1 1_555 1_555
O4 C9 1_555 1_555
C4 C3 1_555 1_555
H4 C4 1_555 1_555
O5 C16 1_555 1_555
C5 C4 1_555 1_555
H5 C5 1_555 1_555
O6 C16 1_555 1_555
C6 C5 1_555 1_555
O7 Mn1 1_555 1_555
C7 C6 1_555 1_555
H6 C7 1_555 1_555
O8 Mn2 1_555 1_555
C8 C3 1_555 1_555
H7 C8 1_555 1_555
C9 C6 1_555 1_555
C10 C2 1_555 1_555
C11 C10 1_555 1_555
H8 C11 1_555 1_555
C12 C11 1_555 1_555
H9 C12 1_555 1_555
C13 C12 1_555 1_555
C14 C13 1_555 1_555
H10 C14 1_555 1_555
C15 C10 1_555 1_555
H11 C15 1_555 1_555
C16 C13 1_555 1_555
C17 O7 1_555 1_555
H12 C17 1_555 1_555
Mn1B O3 1_555 1_555
Mn1C O5 1_555 1_555
Mn2A O7 1_555 1_555
Mn2C O6 1_555 1_555
Mn2C_2 O3 1_555 1_555
O3B Mn1 1_555 1_555
O3C Mn2 1_555 1_555
O4B Mn1 1_555 1_555
O5C Mn1 1_555 1_555
O6C Mn2 1_555 1_555
O7A Mn2 1_555 1_555
C1 C2 1_555 1_555
O4 Mn1B 1_555 1_555
C7 C8 1_555 1_555
O8 C17 1_555 1_555
C14 C15 1_555 1_555
Mn2A O3B 1_555 1_555

#END
