
#######################################################################
#
#                 Cambridge Crystallographic Data Centre
#                                CCDC 
#
#######################################################################
#
# If this CIF has been generated from an entry in the Cambridge 
# Structural Database, then it will include bibliographic, chemical, 
# crystal, experimental, refinement or atomic coordinate data resulting 
# from the CCDC's data processing and validation procedures.
#
#######################################################################

data_BIFGOO
_chemical_formula_moiety         '(C73 H124 Cu8 I10 K3 N12 O19)n'
_symmetry_cell_setting           trigonal
_symmetry_space_group_name_H-M   'P -3'
_symmetry_Int_Tables_number      147
_space_group_name_Hall           '-P 3'
loop_
_symmetry_equiv_pos_site_id
_symmetry_equiv_pos_as_xyz
1 x,y,z
2 -y,x-y,z
3 -x+y,-x,z
4 -x,-y,-z
5 y,-x+y,-z
6 x-y,x,-z
_cell_length_a                   19.275(3)
_cell_length_b                   19.275(3)
_cell_length_c                   13.123(3)
_cell_angle_alpha                90
_cell_angle_beta                 90
_cell_angle_gamma                120
_cell_volume                     4222.33
loop_
_atom_site_label
_atom_site_type_symbol
_atom_site_fract_x
_atom_site_fract_y
_atom_site_fract_z
I1 I 0.3333 0.6667 0.40693(5)
I2 I 0.29947(3) 0.52021(3) 0.68535(3)
Cu1 Cu 0.40034(5) 0.64565(5) 0.57622(6)
Cu2 Cu 0.3333 0.6667 0.74913(11)
I3 I 0.3333 0.6667 0.94872(6)
N1 N 0.4840(4) 0.6217(4) 0.5214(4)
C1 C 0.5557(6) 0.6492(6) 0.5668(6)
H1 H 0.5641 0.6744 0.6314
C2 C 0.5332(5) 0.5770(4) 0.3822(5)
C3 C 0.4742(4) 0.5865(4) 0.4314(5)
H2 H 0.4239 0.5664 0.3984
C4 C 0.6162(6) 0.6426(7) 0.5255(7)
H3 H 0.6656 0.6623 0.5606
N2 N 0.5261(5) 0.5921(4) 0.1890(5)
C5 C 0.5180(5) 0.5389(5) 0.2751(6)
H4 H 0.5559 0.5190 0.2642
H5 H 0.4632 0.4919 0.2737
C6 C 0.4663(6) 0.6170(5) 0.1850(6)
H6 H 0.4788 0.6538 0.1265
H7 H 0.4711 0.6477 0.2477
C7 C 0.3831(7) 0.5525(7) 0.1755(6)
H8 H 0.3678 0.5174 0.2363
H9 H 0.3473 0.5754 0.1716
C8 C 0.6048(6) 0.6060(6) 0.4291(7)
H10 H 0.6469 0.6018 0.3977
C9 C 0.6072(7) 0.6636(6) 0.1816(7)
C10 C 0.6703(7) 0.6475(7) 0.1569(7)
H11 H 0.6722 0.6109 0.2085
H12 H 0.7224 0.6981 0.1580
O1 O 0.3741(4) 0.5067(4) 0.0861(4)
O2 O 0.6567(4) 0.6104(4) 0.0546(5)
C11 C 0.7117(7) 0.5851(8) 0.0357(7)
H13 H 0.7014 0.5407 0.0824
H14 H 0.7666 0.6298 0.0488
C12 C 0.2947(7) 0.4423(9) 0.0722(7)
H15 H 0.2556 0.4604 0.0854
H16 H 0.2835 0.3980 0.1197
K1 K 0.5000 0.5000 0.0000
O3 O 0.5024(13) 0.6320(19) -0.101(2)
N1C N 0.5160(4) 0.3783(4) -0.5214(4)
C1C C 0.4443(6) 0.3508(6) -0.5668(6)
H1C H 0.4359 0.3256 -0.6314
C2C C 0.4668(5) 0.4230(4) -0.3822(5)
C3C C 0.5258(4) 0.4135(4) -0.4314(5)
H2C H 0.5761 0.4336 -0.3984
C4C C 0.3838(6) 0.3574(7) -0.5255(7)
H3C H 0.3344 0.3377 -0.5606
N2C N 0.4739(5) 0.4079(4) -0.1890(5)
C5C C 0.4820(5) 0.4611(5) -0.2751(6)
H4C H 0.4441 0.4810 -0.2642
H5C H 0.5368 0.5081 -0.2737
C6C C 0.5337(6) 0.3830(5) -0.1850(6)
H6C H 0.5212 0.3462 -0.1265
H7C H 0.5289 0.3523 -0.2477
C7C C 0.6169(7) 0.4475(7) -0.1755(6)
H8C H 0.6322 0.4826 -0.2363
H9C H 0.6527 0.4246 -0.1716
C8C C 0.3952(6) 0.3940(6) -0.4291(7)
H10C H 0.3531 0.3982 -0.3977
C9C C 0.3928(7) 0.3364(6) -0.1816(7)
C10C C 0.3297(7) 0.3525(7) -0.1569(7)
H11C H 0.3278 0.3891 -0.2085
H12C H 0.2776 0.3019 -0.1580
O1C O 0.6259(4) 0.4933(4) -0.0861(4)
O2C O 0.3433(4) 0.3896(4) -0.0546(5)
C11C C 0.2883(7) 0.4149(8) -0.0357(7)
H13C H 0.2986 0.4593 -0.0824
H14C H 0.2334 0.3702 -0.0488
C12C C 0.7053(7) 0.5577(9) -0.0722(7)
H15C H 0.7444 0.5396 -0.0854
H16C H 0.7165 0.6020 -0.1197
I2A I 0.47979(3) 0.77926(4) 0.68535(3)
Cu1A Cu 0.35435(5) 0.75469(7) 0.57622(6)
N1A N 0.3783(4) 0.8623(6) 0.5214(4)
C1A C 0.3508(6) 0.9065(8) 0.5668(6)
H1A H 0.3256 0.8897 0.6314
C2A C 0.4230(4) 0.9562(6) 0.3822(5)
C3A C 0.4135(4) 0.8877(6) 0.4314(5)
H2A H 0.4336 0.8575 0.3984
C4A C 0.3574(7) 0.9736(9) 0.5255(7)
H3A H 0.3377 1.0033 0.5606
N2A N 0.4079(4) 0.9340(6) 0.1890(5)
C5A C 0.4611(5) 0.9791(7) 0.2751(6)
H4A H 0.4810 1.0369 0.2642
H5A H 0.5081 0.9713 0.2737
C6A C 0.3830(5) 0.8493(8) 0.1850(6)
H6A H 0.3462 0.8250 0.1265
H7A H 0.3523 0.8234 0.2477
C7A C 0.4475(7) 0.8306(10) 0.1755(6)
H8A H 0.4826 0.8504 0.2363
H9A H 0.4246 0.7719 0.1716
C8A C 0.3940(6) 0.9988(8) 0.4291(7)
H10A H 0.3982 1.0451 0.3977
C9A C 0.3364(6) 0.9436(9) 0.1816(7)
C10A C 0.3525(7) 1.0228(10) 0.1569(7)
H11A H 0.3891 1.0613 0.2085
H12A H 0.3019 1.0243 0.1580
O1A O 0.4933(4) 0.8674(6) 0.0861(4)
O2A O 0.3896(4) 1.0463(6) 0.0546(5)
C11A C 0.4149(8) 1.1266(11) 0.0357(7)
H13A H 0.4593 1.1607 0.0824
H14A H 0.3702 1.1368 0.0488
C12A C 0.5577(9) 0.8524(11) 0.0722(7)
H15A H 0.5396 0.7952 0.0854
H16A H 0.6020 0.8855 0.1197
K1A K 0.5000 1.0000 0.0000
O3A O 0.3680(19) 0.8704(23) -0.101(2)
N1D N 0.6217(4) 1.1377(6) -0.5214(4)
C1D C 0.6492(6) 1.0935(8) -0.5668(6)
H1D H 0.6744 1.1103 -0.6314
C2D C 0.5770(4) 1.0438(6) -0.3822(5)
C3D C 0.5865(4) 1.1123(6) -0.4314(5)
H2D H 0.5664 1.1425 -0.3984
C4D C 0.6426(7) 1.0264(9) -0.5255(7)
H3D H 0.6623 0.9967 -0.5606
N2D N 0.5921(4) 1.0660(6) -0.1890(5)
C5D C 0.5389(5) 1.0209(7) -0.2751(6)
H4D H 0.5190 0.9631 -0.2642
H5D H 0.4919 1.0287 -0.2737
C6D C 0.6170(5) 1.1507(8) -0.1850(6)
H6D H 0.6538 1.1750 -0.1265
H7D H 0.6477 1.1766 -0.2477
C7D C 0.5525(7) 1.1694(10) -0.1755(6)
H8D H 0.5174 1.1496 -0.2363
H9D H 0.5754 1.2281 -0.1716
C8D C 0.6060(6) 1.0012(8) -0.4291(7)
H10D H 0.6018 0.9549 -0.3977
C9D C 0.6636(6) 1.0564(9) -0.1816(7)
C10D C 0.6475(7) 0.9772(10) -0.1569(7)
H11D H 0.6109 0.9387 -0.2085
H12D H 0.6981 0.9757 -0.1580
O1D O 0.5067(4) 1.1326(6) -0.0861(4)
O2D O 0.6104(4) 0.9537(6) -0.0546(5)
C11D C 0.5851(8) 0.8734(11) -0.0357(7)
H13D H 0.5407 0.8393 -0.0824
H14D H 0.6298 0.8632 -0.0488
C12D C 0.4423(9) 1.1476(11) -0.0722(7)
H15D H 0.4604 1.2048 -0.0854
H16D H 0.3980 1.1145 -0.1197
I2B I 0.22074(4) 0.70053(3) 0.68535(3)
Cu1B Cu 0.24531(7) 0.59966(5) 0.57622(6)
N1B N 0.1377(6) 0.5160(4) 0.5214(4)
C1B C 0.0935(8) 0.4443(6) 0.5668(6)
H1B H 0.1103 0.4359 0.6314
C2B C 0.0438(6) 0.4668(5) 0.3822(5)
C3B C 0.1123(6) 0.5258(4) 0.4314(5)
H2B H 0.1425 0.5761 0.3984
C4B C 0.0264(9) 0.3838(6) 0.5255(7)
H3B H -0.0033 0.3344 0.5606
N2B N 0.0660(6) 0.4739(5) 0.1890(5)
C5B C 0.0209(7) 0.4820(5) 0.2751(6)
H4B H -0.0369 0.4441 0.2642
H5B H 0.0287 0.5368 0.2737
C6B C 0.1507(8) 0.5337(6) 0.1850(6)
H6B H 0.1750 0.5212 0.1265
H7B H 0.1766 0.5289 0.2477
C7B C 0.1694(10) 0.6169(7) 0.1755(6)
H8B H 0.1496 0.6322 0.2363
H9B H 0.2281 0.6527 0.1716
C8B C 0.0012(8) 0.3952(6) 0.4291(7)
H10B H -0.0451 0.3531 0.3977
C9B C 0.0564(9) 0.3928(7) 0.1816(7)
C10B C -0.0228(10) 0.3297(7) 0.1569(7)
H11B H -0.0613 0.3278 0.2085
H12B H -0.0243 0.2776 0.1580
O1B O 0.1326(6) 0.6259(4) 0.0861(4)
O2B O -0.0463(6) 0.3433(4) 0.0546(5)
C11B C -0.1266(11) 0.2883(7) 0.0357(7)
H13B H -0.1607 0.2986 0.0824
H14B H -0.1368 0.2334 0.0488
C12B C 0.1476(11) 0.7053(7) 0.0722(7)
H15B H 0.2048 0.7444 0.0854
H16B H 0.1145 0.7165 0.1197
K1B K 0.0000 0.5000 0.0000
O3B O 0.1296(23) 0.4976(13) -0.101(2)
N1E N -0.1377(6) 0.4840(4) -0.5214(4)
C1E C -0.0935(8) 0.5557(6) -0.5668(6)
H1E H -0.1103 0.5641 -0.6314
C2E C -0.0438(6) 0.5332(5) -0.3822(5)
C3E C -0.1123(6) 0.4742(4) -0.4314(5)
H2E H -0.1425 0.4239 -0.3984
C4E C -0.0264(9) 0.6162(6) -0.5255(7)
H3E H 0.0033 0.6656 -0.5606
N2E N -0.0660(6) 0.5261(5) -0.1890(5)
C5E C -0.0209(7) 0.5180(5) -0.2751(6)
H4E H 0.0369 0.5559 -0.2642
H5E H -0.0287 0.4632 -0.2737
C6E C -0.1507(8) 0.4663(6) -0.1850(6)
H6E H -0.1750 0.4788 -0.1265
H7E H -0.1766 0.4711 -0.2477
C7E C -0.1694(10) 0.3831(7) -0.1755(6)
H8E H -0.1496 0.3678 -0.2363
H9E H -0.2281 0.3473 -0.1716
C8E C -0.0012(8) 0.6048(6) -0.4291(7)
H10E H 0.0451 0.6469 -0.3977
C9E C -0.0564(9) 0.6072(7) -0.1816(7)
C10E C 0.0228(10) 0.6703(7) -0.1569(7)
H11E H 0.0613 0.6722 -0.2085
H12E H 0.0243 0.7224 -0.1580
O1E O -0.1326(6) 0.3741(4) -0.0861(4)
O2E O 0.0463(6) 0.6567(4) -0.0546(5)
C11E C 0.1266(11) 0.7117(7) -0.0357(7)
H13E H 0.1607 0.7014 -0.0824
H14E H 0.1368 0.7666 -0.0488
C12E C -0.1476(11) 0.2947(7) -0.0722(7)
H15E H -0.2048 0.2556 -0.0854
H16E H -0.1145 0.2835 -0.1197
I1C I 0.6667 0.3333 -0.40693(5)
I2C I 0.70053(3) 0.47979(3) -0.68535(3)
Cu1C Cu 0.59966(5) 0.35435(5) -0.57622(6)
Cu2C Cu 0.6667 0.3333 -0.74913(11)
I3C I 0.6667 0.3333 -0.94872(6)
O3C O 0.4976(13) 0.3680(19) 0.101(2)
I2D I 0.52021(3) 0.22074(4) -0.68535(3)
Cu1D Cu 0.64565(5) 0.24531(7) -0.57622(6)
I2E I -0.22074(4) 0.29947(3) -0.68535(3)
Cu1E Cu -0.24531(7) 0.40034(5) -0.57622(6)
O3E O -0.1296(23) 0.5024(13) 0.101(2)
O3D O 0.6320(19) 1.1296(23) 0.101(2)
I1C_2 I -0.3333 0.3333 -0.40693(5)
I2C_2 I -0.29947(3) 0.47979(3) -0.68535(3)
I2E_2 I 0.77926(4) 0.29947(3) -0.68535(3)
Cu1D_2 Cu -0.35435(5) 0.24531(7) -0.57622(6)
Cu1D_3 Cu 0.64565(5) 1.24531(7) -0.57622(6)
Cu1E_2 Cu 0.75469(7) 0.40034(5) -0.57622(6)
Cu2C_2 Cu -0.3333 0.3333 -0.74913(11)
N1D_2 N 0.6217(4) 0.1377(6) -0.5214(4)
O4 O 0.8097(18) 0.7347(18) 0.379(2)
C13 C 0.8553(18) 0.7198(18) 0.328(2)
loop_
_geom_bond_atom_site_label_1
_geom_bond_atom_site_label_2
_geom_bond_site_symmetry_1
_geom_bond_site_symmetry_2
I1 Cu1 1_555 1_555
I2 Cu1 1_555 1_555
Cu1 N1 1_555 1_555
Cu2 I2 1_555 1_555
I3 Cu2 1_555 1_555
N1 C1 1_555 1_555
C1 H1 1_555 1_555
C2 C3 1_555 1_555
C3 N1 1_555 1_555
H2 C3 1_555 1_555
C4 C1 1_555 1_555
H3 C4 1_555 1_555
N2 C5 1_555 1_555
C5 C2 1_555 1_555
H4 C5 1_555 1_555
H5 C5 1_555 1_555
C6 N2 1_555 1_555
H6 C6 1_555 1_555
H7 C6 1_555 1_555
C7 C6 1_555 1_555
H8 C7 1_555 1_555
H9 C7 1_555 1_555
C8 C2 1_555 1_555
H10 C8 1_555 1_555
C9 N2 1_555 1_555
C10 C9 1_555 1_555
H11 C10 1_555 1_555
H12 C10 1_555 1_555
O1 C7 1_555 1_555
O2 C10 1_555 1_555
C11 O2 1_555 1_555
H13 C11 1_555 1_555
H14 C11 1_555 1_555
C12 O1 1_555 1_555
H15 C12 1_555 1_555
H16 C12 1_555 1_555
K1 N2 1_555 1_555
O3 K1 1_555 1_555
O4 C13 1_555 1_555
N1C C1C 1_555 1_555
C1C H1C 1_555 1_555
C2C C3C 1_555 1_555
C3C N1C 1_555 1_555
H2C C3C 1_555 1_555
C4C C1C 1_555 1_555
H3C C4C 1_555 1_555
N2C K1 1_555 1_555
C5C C2C 1_555 1_555
H4C C5C 1_555 1_555
H5C C5C 1_555 1_555
C6C N2C 1_555 1_555
H6C C6C 1_555 1_555
H7C C6C 1_555 1_555
C7C C6C 1_555 1_555
H8C C7C 1_555 1_555
H9C C7C 1_555 1_555
C8C C2C 1_555 1_555
H10C C8C 1_555 1_555
C9C N2C 1_555 1_555
C10C C9C 1_555 1_555
H11C C10C 1_555 1_555
H12C C10C 1_555 1_555
O1C K1 1_555 1_555
O2C K1 1_555 1_555
C11C C12 1_555 1_555
H13C C11C 1_555 1_555
H14C C11C 1_555 1_555
C12C C11 1_555 1_555
H15C C12C 1_555 1_555
H16C C12C 1_555 1_555
I2A Cu1 1_555 1_555
Cu1A I1 1_555 1_555
N1A Cu1A 1_555 1_555
C1A N1A 1_555 1_555
H1A C1A 1_555 1_555
C2A C3A 1_555 1_555
C3A N1A 1_555 1_555
H2A C3A 1_555 1_555
C4A C1A 1_555 1_555
H3A C4A 1_555 1_555
N2A C5A 1_555 1_555
C5A C2A 1_555 1_555
H4A C5A 1_555 1_555
H5A C5A 1_555 1_555
C6A N2A 1_555 1_555
H6A C6A 1_555 1_555
H7A C6A 1_555 1_555
C7A C6A 1_555 1_555
H8A C7A 1_555 1_555
H9A C7A 1_555 1_555
C8A C2A 1_555 1_555
H10A C8A 1_555 1_555
C9A N2A 1_555 1_555
C10A C9A 1_555 1_555
H11A C10A 1_555 1_555
H12A C10A 1_555 1_555
O1A C7A 1_555 1_555
O2A C10A 1_555 1_555
C11A O2A 1_555 1_555
H13A C11A 1_555 1_555
H14A C11A 1_555 1_555
C12A O1A 1_555 1_555
H15A C12A 1_555 1_555
H16A C12A 1_555 1_555
K1A N2A 1_555 1_555
O3A K1A 1_555 1_555
N1D C1D 1_555 1_555
C1D H1D 1_555 1_555
C2D C3D 1_555 1_555
C3D N1D 1_555 1_555
H2D C3D 1_555 1_555
C4D C1D 1_555 1_555
H3D C4D 1_555 1_555
N2D K1A 1_555 1_555
C5D C2D 1_555 1_555
H4D C5D 1_555 1_555
H5D C5D 1_555 1_555
C6D N2D 1_555 1_555
H6D C6D 1_555 1_555
H7D C6D 1_555 1_555
C7D C6D 1_555 1_555
H8D C7D 1_555 1_555
H9D C7D 1_555 1_555
C8D C2D 1_555 1_555
H10D C8D 1_555 1_555
C9D N2D 1_555 1_555
C10D C9D 1_555 1_555
H11D C10D 1_555 1_555
H12D C10D 1_555 1_555
O1D K1A 1_555 1_555
O2D K1A 1_555 1_555
C11D C12A 1_555 1_555
H13D C11D 1_555 1_555
H14D C11D 1_555 1_555
C12D C11A 1_555 1_555
H15D C12D 1_555 1_555
H16D C12D 1_555 1_555
I2B Cu2 1_555 1_555
Cu1B I1 1_555 1_555
N1B Cu1B 1_555 1_555
C1B N1B 1_555 1_555
H1B C1B 1_555 1_555
C2B C3B 1_555 1_555
C3B N1B 1_555 1_555
H2B C3B 1_555 1_555
C4B C1B 1_555 1_555
H3B C4B 1_555 1_555
N2B C5B 1_555 1_555
C5B C2B 1_555 1_555
H4B C5B 1_555 1_555
H5B C5B 1_555 1_555
C6B N2B 1_555 1_555
H6B C6B 1_555 1_555
H7B C6B 1_555 1_555
C7B C6B 1_555 1_555
H8B C7B 1_555 1_555
H9B C7B 1_555 1_555
C8B C2B 1_555 1_555
H10B C8B 1_555 1_555
C9B N2B 1_555 1_555
C10B C9B 1_555 1_555
H11B C10B 1_555 1_555
H12B C10B 1_555 1_555
O1B C7B 1_555 1_555
O2B C10B 1_555 1_555
C11B O2B 1_555 1_555
H13B C11B 1_555 1_555
H14B C11B 1_555 1_555
C12B O1B 1_555 1_555
H15B C12B 1_555 1_555
H16B C12B 1_555 1_555
K1B N2B 1_555 1_555
O3B K1B 1_555 1_555
N1E C1E 1_555 1_555
C1E H1E 1_555 1_555
C2E C3E 1_555 1_555
C3E N1E 1_555 1_555
H2E C3E 1_555 1_555
C4E C1E 1_555 1_555
H3E C4E 1_555 1_555
N2E K1B 1_555 1_555
C5E C2E 1_555 1_555
H4E C5E 1_555 1_555
H5E C5E 1_555 1_555
C6E N2E 1_555 1_555
H6E C6E 1_555 1_555
H7E C6E 1_555 1_555
C7E C6E 1_555 1_555
H8E C7E 1_555 1_555
H9E C7E 1_555 1_555
C8E C2E 1_555 1_555
H10E C8E 1_555 1_555
C9E N2E 1_555 1_555
C10E C9E 1_555 1_555
H11E C10E 1_555 1_555
H12E C10E 1_555 1_555
O1E K1B 1_555 1_555
O2E K1B 1_555 1_555
C11E C12B 1_555 1_555
H13E C11E 1_555 1_555
H14E C11E 1_555 1_555
C12E C11B 1_555 1_555
H15E C12E 1_555 1_555
H16E C12E 1_555 1_555
I1C Cu1C 1_555 1_555
I2C Cu1C 1_555 1_555
Cu1C N1C 1_555 1_555
Cu2C I2C 1_555 1_555
I3C Cu2C 1_555 1_555
O3C K1 1_555 1_555
I2D Cu1C 1_555 1_555
Cu1D I1C 1_555 1_555
I2E Cu1E 1_555 1_555
Cu1E N1E 1_555 1_555
O3E K1B 1_555 1_555
O3D K1A 1_555 1_555
I1C_2 Cu1E 1_555 1_555
I2C_2 Cu1E 1_555 1_555
I2E_2 Cu2C 1_555 1_555
Cu1D_2 I2E 1_555 1_555
Cu1D_3 N1D 1_555 1_555
Cu1E_2 I1C 1_555 1_555
Cu2C_2 I2E 1_555 1_555
N1D_2 Cu1D 1_555 1_555
I2 Cu1B 1_555 1_555
Cu2 I2A 1_555 1_555
C4 C8 1_555 1_555
O1 K1 1_555 1_555
O2 K1 1_555 1_555
C4C C8C 1_555 1_555
N2C C5C 1_555 1_555
C7C O1C 1_555 1_555
C10C O2C 1_555 1_555
O1C C12C 1_555 1_555
O2C C11C 1_555 1_555
I2A Cu1A 1_555 1_555
Cu1A I2B 1_555 1_555
C4A C8A 1_555 1_555
O1A K1A 1_555 1_555
O2A K1A 1_555 1_555
C4D C8D 1_555 1_555
N2D C5D 1_555 1_555
C7D O1D 1_555 1_555
C10D O2D 1_555 1_555
O1D C12D 1_555 1_555
O2D C11D 1_555 1_555
I2B Cu1B 1_555 1_555
C4B C8B 1_555 1_555
O1B K1B 1_555 1_555
O2B K1B 1_555 1_555
C4E C8E 1_555 1_555
N2E C5E 1_555 1_555
C7E O1E 1_555 1_555
C10E O2E 1_555 1_555
O1E C12E 1_555 1_555
O2E C11E 1_555 1_555
I2C Cu1E_2 1_555 1_555
Cu2C I2D 1_555 1_555
I2D Cu1D 1_555 1_555
Cu1D I2E_2 1_555 1_555
I1C_2 Cu1D_2 1_555 1_555
I2C_2 Cu2C_2 1_555 1_555
I2E_2 Cu1E_2 1_555 1_555

#END
