
#######################################################################
#
#                 Cambridge Crystallographic Data Centre
#                                CCDC 
#
#######################################################################
#
# If this CIF has been generated from an entry in the Cambridge 
# Structural Database, then it will include bibliographic, chemical, 
# crystal, experimental, refinement or atomic coordinate data resulting 
# from the CCDC's data processing and validation procedures.
#
#######################################################################

data_PELXIP
_chemical_formula_moiety         '(C32 H24 Cd4 N16 O12)n'
_symmetry_cell_setting           monoclinic
_symmetry_space_group_name_H-M   'P 21/n'
_symmetry_Int_Tables_number      14
_space_group_name_Hall           '-P 2yn'
loop_
_symmetry_equiv_pos_site_id
_symmetry_equiv_pos_as_xyz
1 x,y,z
2 1/2-x,1/2+y,1/2-z
3 -x,-y,-z
4 1/2+x,1/2-y,1/2+z
_cell_length_a                   12.380(3)
_cell_length_b                   16.488(3)
_cell_length_c                   21.246(4)
_cell_angle_alpha                90
_cell_angle_beta                 90.00
_cell_angle_gamma                90
_cell_volume                     4336.76
loop_
_atom_site_label
_atom_site_type_symbol
_atom_site_fract_x
_atom_site_fract_y
_atom_site_fract_z
C1 C 1.1687(8) 0.5170(6) 0.2884(5)
C2 C 1.2681(8) 0.4900(6) 0.3226(5)
C3 C 1.3054(9) 0.5365(7) 0.3724(6)
H1 H 1.2707 0.5847 0.3830
C4 C 1.3922(11) 0.5116(9) 0.4053(7)
H2 H 1.4141 0.5407 0.4406
C5 C 1.4499(10) 0.4429(7) 0.3875(6)
H3 H 1.5118 0.4280 0.4095
C6 C 1.4150(9) 0.3967(6) 0.3370(5)
C7 C 1.4766(9) 0.3232(6) 0.3196(5)
C8 C 1.3224(8) 0.4201(6) 0.3047(5)
H4 H 1.2970 0.3891 0.2713
C9 C 1.6653(8) 0.0983(6) 0.1747(5)
C10 C 1.7420(8) 0.1240(6) 0.1252(5)
C11 C 1.7074(9) 0.1382(7) 0.0647(5)
H5 H 1.6361 0.1267 0.0542
C12 C 1.7745(9) 0.1687(7) 0.0194(5)
C13 C 1.7356(9) 0.1869(7) -0.0437(5)
C14 C 1.8820(10) 0.1835(8) 0.0345(5)
H6 H 1.9290 0.2038 0.0042
C15 C 1.9191(11) 0.1680(9) 0.0948(6)
H7 H 1.9910 0.1777 0.1051
C16 C 1.8484(10) 0.1379(7) 0.1399(5)
H8 H 1.8734 0.1272 0.1804
C17 C 1.6807(9) -0.1392(6) 0.2600(5)
C18 C 1.7861(9) -0.1221(6) 0.2910(5)
C19 C 1.8350(8) -0.0459(6) 0.2839(5)
H9 H 1.7997 -0.0056 0.2611
C20 C 1.9344(8) -0.0300(6) 0.3101(5)
C21 C 1.9876(8) 0.0474(6) 0.3014(5)
C22 C 1.9864(10) -0.0909(7) 0.3434(6)
H10 H 2.0553 -0.0820 0.3595
C23 C 1.9360(12) -0.1650(8) 0.3527(8)
H11 H 1.9690 -0.2042 0.3776
C24 C 1.8379(11) -0.1808(7) 0.3254(7)
H12 H 1.8062 -0.2315 0.3302
C25 C 1.3226(9) -0.2100(7) 0.3285(5)
C26 C 1.3804(9) -0.1716(6) 0.3836(5)
C27 C 1.3602(11) -0.1959(8) 0.4446(6)
H13 H 1.3073 -0.2348 0.4520
C28 C 1.4152(11) -0.1648(8) 0.4935(5)
H14 H 1.3979 -0.1800 0.5344
C29 C 1.4997(11) -0.1087(7) 0.4823(5)
H15 H 1.5402 -0.0891 0.5159
C30 C 1.5227(9) -0.0824(6) 0.4210(5)
C31 C 1.6063(9) -0.0225(6) 0.4095(5)
C32 C 1.4612(9) -0.1150(7) 0.3716(5)
H16 H 1.4746 -0.0987 0.3304
Cd1 Cd 1.51919(6) 0.06031(5) 0.27130(4)
Cd2 Cd 1.77356(6) 0.17928(5) 0.31275(4)
Cd3 Cd 1.27085(6) 0.20078(5) 0.26840(4)
Cd4 Cd 1.51182(6) 0.17003(5) -0.20023(4)
H17 H 1.804(8) 0.282(8) 0.410(5)
H18 H 1.433(11) 0.036(3) -0.107(5)
H19 H 1.898(7) 0.243(8) 0.416(4)
H20 H 1.457(12) 0.109(5) -0.082(3)
N1 N 1.4374(7) 0.2577(5) 0.2912(4)
N2 N 1.5211(7) 0.2049(6) 0.2885(4)
N3 N 1.6053(7) 0.2389(6) 0.3144(5)
N4 N 1.5802(7) 0.3140(5) 0.3344(5)
N5 N 1.6455(8) 0.1566(6) -0.0694(4)
N6 N 1.6401(8) 0.1896(6) -0.1270(4)
N7 N 1.7236(7) 0.2380(6) -0.1353(4)
N8 N 1.7856(8) 0.2376(6) -0.0835(4)
N9 N 1.9391(7) 0.1217(5) 0.3006(4)
N10 N 2.0197(7) 0.1757(5) 0.2907(5)
N11 N 2.1108(7) 0.1357(5) 0.2868(5)
N12 N 2.0940(7) 0.0552(5) 0.2940(4)
N13 N 1.6084(7) 0.0325(5) 0.3628(4)
N14 N 1.7020(7) 0.0733(5) 0.3722(4)
N15 N 1.7502(8) 0.0460(6) 0.4218(4)
N16 N 1.6921(9) -0.0147(7) 0.4461(5)
O1 O 1.1044(6) 0.4666(4) 0.2662(4)
O2 O 1.1506(6) 0.5927(4) 0.2821(4)
O3 O 1.5714(7) 0.0742(5) 0.1609(4)
O4 O 1.6927(6) 0.1043(4) 0.2326(3)
O5 O 1.6160(6) -0.0837(5) 0.2463(4)
O6 O 1.6554(6) -0.2126(5) 0.2462(4)
O7 O 1.3576(7) -0.2000(5) 0.2733(4)
O8 O 1.2406(7) -0.2526(6) 0.3373(4)
O9 O 1.8479(15) 0.2529(8) 0.3926(7)
O10 O 1.4516(11) 0.0830(8) -0.1148(5)
Cd1A Cd 0.98081(6) 0.56031(5) 0.22870(4)
Cd2A Cd 1.72644(6) -0.32072(5) 0.18725(4)
Cd3C Cd 1.77085(6) 0.29922(5) -0.23160(4)
Cd3_2 Cd 2.27085(6) 0.20078(5) 0.26840(4)
Cd3A Cd 1.22915(6) 0.70078(5) 0.23160(4)
Cd3A_2 Cd 1.22915(6) -0.29922(5) 0.23160(4)
Cd4B Cd 1.48818(6) -0.17003(5) 0.20023(4)
N7C N 1.2236(7) 0.2620(6) 0.3647(4)
N11_2 N 1.1108(7) 0.1357(5) 0.2868(5)
O1A O 1.3956(6) -0.0334(4) 0.2338(4)
O2A O 1.3494(6) 0.0927(4) 0.2179(4)
O5B O 1.3840(6) 0.0837(5) -0.2463(4)
O6A O 1.8446(6) 0.2874(5) 0.2538(4)
O6B O 1.3446(6) 0.2126(5) -0.2462(4)
O7A O 1.1424(7) 0.3000(5) 0.2267(4)
O7B O 1.6424(7) 0.2000(5) -0.2733(4)
O8A O 1.2594(7) 0.2474(6) 0.1627(4)
H21 H 0.402(12) 0.208(5) 0.057(4)
H22 H 0.432(12) 0.130(4) 0.066(4)
O11 O 0.4146(13) 0.1731(10) 0.0856(6)
H23 H 1.195(6) 0.576(7) 0.131(5)
O12 O 1.1422(8) 0.6039(6) 0.1446(5)
loop_
_geom_bond_atom_site_label_1
_geom_bond_atom_site_label_2
_geom_bond_site_symmetry_1
_geom_bond_site_symmetry_2
C1 C2 1_555 1_555
C2 C3 1_555 1_555
C3 H1 1_555 1_555
C4 C3 1_555 1_555
H2 C4 1_555 1_555
C5 C4 1_555 1_555
H3 C5 1_555 1_555
C6 C5 1_555 1_555
C7 C6 1_555 1_555
C8 C2 1_555 1_555
H4 C8 1_555 1_555
C9 C10 1_555 1_555
C10 C11 1_555 1_555
C11 H5 1_555 1_555
C12 C11 1_555 1_555
C13 C12 1_555 1_555
C14 C12 1_555 1_555
H6 C14 1_555 1_555
C15 C14 1_555 1_555
H7 C15 1_555 1_555
C16 C10 1_555 1_555
H8 C16 1_555 1_555
C17 C18 1_555 1_555
C18 C19 1_555 1_555
C19 H9 1_555 1_555
C20 C19 1_555 1_555
C21 C20 1_555 1_555
C22 C20 1_555 1_555
H10 C22 1_555 1_555
C23 C22 1_555 1_555
H11 C23 1_555 1_555
C24 C18 1_555 1_555
H12 C24 1_555 1_555
C25 C26 1_555 1_555
C26 C27 1_555 1_555
C27 H13 1_555 1_555
C28 C27 1_555 1_555
H14 C28 1_555 1_555
C29 C28 1_555 1_555
H15 C29 1_555 1_555
C30 C29 1_555 1_555
C31 C30 1_555 1_555
C32 C26 1_555 1_555
H16 C32 1_555 1_555
Cd1 N2 1_555 1_555
Cd2 N3 1_555 1_555
Cd3 N1 1_555 1_555
Cd4 N6 1_555 1_555
H17 O9 1_555 1_555
H18 O10 1_555 1_555
H19 O9 1_555 1_555
H20 O10 1_555 1_555
N1 C7 1_555 1_555
N2 N1 1_555 1_555
N3 N2 1_555 1_555
N4 C7 1_555 1_555
N5 C13 1_555 1_555
N6 N5 1_555 1_555
N7 N6 1_555 1_555
N8 C13 1_555 1_555
N9 C21 1_555 1_555
N10 N9 1_555 1_555
N11 N10 1_555 1_555
N12 C21 1_555 1_555
N13 C31 1_555 1_555
N14 Cd2 1_555 1_555
N15 N14 1_555 1_555
N16 C31 1_555 1_555
O1 C1 1_555 1_555
O2 C1 1_555 1_555
O3 C9 1_555 1_555
O4 C9 1_555 1_555
O5 C17 1_555 1_555
O6 C17 1_555 1_555
O7 C25 1_555 1_555
O8 C25 1_555 1_555
O9 Cd2 1_555 1_555
O10 Cd4 1_555 1_555
H21 O11 1_555 1_555
H22 O11 1_555 1_555
H23 O12 1_555 1_555
Cd1A O1 1_555 1_555
Cd2A O6 1_555 1_555
Cd3C N7 1_555 1_555
Cd3_2 N11 1_555 1_555
Cd3A O2 1_555 1_555
Cd3A_2 O7 1_555 1_555
Cd4B O5 1_555 1_555
N7C Cd3 1_555 1_555
N11_2 Cd3 1_555 1_555
O1A Cd1 1_555 1_555
O2A Cd1 1_555 1_555
O5B Cd4 1_555 1_555
O6A Cd2 1_555 1_555
O6B Cd4 1_555 1_555
O7A Cd3 1_555 1_555
O7B Cd4 1_555 1_555
O8A Cd3 1_555 1_555
C6 C8 1_555 1_555
C15 C16 1_555 1_555
C23 C24 1_555 1_555
C30 C32 1_555 1_555
Cd1 N13 1_555 1_555
Cd1 O3 1_555 1_555
Cd1 O4 1_555 1_555
Cd2 N9 1_555 1_555
Cd2 O4 1_555 1_555
Cd3 O2A 1_555 1_555
N3 N4 1_555 1_555
N7 N8 1_555 1_555
N11 N12 1_555 1_555
N13 N14 1_555 1_555
N15 N16 1_555 1_555
O2 Cd1A 1_555 1_555
O6 Cd4B 1_555 1_555
O7 Cd4B 1_555 1_555
O8 Cd3A_2 1_555 1_555
Cd3C O7B 1_555 1_555

#END
