
#######################################################################
#
#                 Cambridge Crystallographic Data Centre
#                                CCDC 
#
#######################################################################
#
# If this CIF has been generated from an entry in the Cambridge 
# Structural Database, then it will include bibliographic, chemical, 
# crystal, experimental, refinement or atomic coordinate data resulting 
# from the CCDC's data processing and validation procedures.
#
#######################################################################

data_OFEZIJ
_chemical_formula_moiety         '(C9 H8 Al6 Co12 N5 O98 P24 25-)n'
_symmetry_cell_setting           cubic
_symmetry_space_group_name_H-M   'I -4 3 m'
_symmetry_Int_Tables_number      217
_space_group_name_Hall           'I -4 2 3'
loop_
_symmetry_equiv_pos_site_id
_symmetry_equiv_pos_as_xyz
1 x,y,z
2 y,-x,-z
3 x,-y,-z
4 z,x,y
5 -x,-y,z
6 -y,-x,z
7 x,-z,-y
8 -y,x,-z
9 -x,y,-z
10 -z,-x,y
11 y,x,z
12 -x,z,-y
13 z,-x,-y
14 x,z,y
15 -z,x,-y
16 -x,-z,y
17 y,z,x
18 z,-y,-x
19 -z,-y,x
20 y,-z,-x
21 z,y,x
22 -y,z,-x
23 -y,-z,x
24 -z,y,-x
25 1/2+x,1/2+y,1/2+z
26 1/2+y,1/2-x,1/2-z
27 1/2+x,1/2-y,1/2-z
28 1/2+z,1/2+x,1/2+y
29 1/2-x,1/2-y,1/2+z
30 1/2-y,1/2-x,1/2+z
31 1/2+x,1/2-z,1/2-y
32 1/2-y,1/2+x,1/2-z
33 1/2-x,1/2+y,1/2-z
34 1/2-z,1/2-x,1/2+y
35 1/2+y,1/2+x,1/2+z
36 1/2-x,1/2+z,1/2-y
37 1/2+z,1/2-x,1/2-y
38 1/2+x,1/2+z,1/2+y
39 1/2-z,1/2+x,1/2-y
40 1/2-x,1/2-z,1/2+y
41 1/2+y,1/2+z,1/2+x
42 1/2+z,1/2-y,1/2-x
43 1/2-z,1/2-y,1/2+x
44 1/2+y,1/2-z,1/2-x
45 1/2+z,1/2+y,1/2+x
46 1/2-y,1/2+z,1/2-x
47 1/2-y,1/2-z,1/2+x
48 1/2-z,1/2+y,1/2-x
_cell_length_a                   16.7372(19)
_cell_length_b                   16.7372(19)
_cell_length_c                   16.7372(19)
_cell_angle_alpha                90
_cell_angle_beta                 90
_cell_angle_gamma                90
_cell_volume                     4688.66
loop_
_atom_site_label
_atom_site_type_symbol
_atom_site_fract_x
_atom_site_fract_y
_atom_site_fract_z
O1 O 0.8460(30) 0.1540(30) 0.1540(30)
O2 O 0.5491(11) -0.2680(18) 0.4509(11)
N3 N 0.9085(11) 0.0915(11) 0.0915(11)
Al1 Al 0.5000 0.0000 0.5000
Co1 Co 0.7500 0.0000 0.5000
P1 P 0.6328(1) -0.0676(1) 0.36772(1)
O3 O 0.6444(2) -0.1531(3) 0.3556(2)
O4 O 0.6950(2) -0.0212(2) 0.4068(2)
O5 O 0.5580(2) -0.0673(3) 0.4420(2)
Al1AA Al 1.0000 0.0000 0.5000
Al1Y Al 0.5000 0.0000 0.0000
Al1Y_2 Al 0.5000 0.0000 1.0000
Al1AA_2 Al 0.0000 0.0000 0.5000
Al1A Al 1.0000 -0.5000 0.5000
Al1A_2 Al 1.0000 0.5000 0.5000
Co1Q Co 0.5000 0.0000 0.2500
Co1R Co 0.5000 0.0000 0.7500
Co1D Co 0.2500 0.0000 0.5000
Co1G Co 1.0000 -0.2500 0.5000
Co1A Co 1.0000 0.2500 0.5000
Co1C Co 0.5000 -0.2500 0.0000
Co1I Co 0.5000 0.2500 0.0000
Co1I_2 Co 0.5000 0.2500 1.0000
Co1C_2 Co 0.5000 -0.2500 1.0000
Co1A_2 Co 0.0000 0.2500 0.5000
Co1G_2 Co 0.0000 -0.2500 0.5000
Co1D_2 Co 1.2500 0.0000 0.5000
Co1R_2 Co 0.5000 -0.0000 -0.2500
Co1Q_2 Co 0.5000 0.0000 1.2500
Co1_2 Co -0.2500 0.0000 0.5000
Co1P Co 1.0000 -0.5000 0.7500
Co1S Co 1.0000 -0.5000 0.2500
Co1S_2 Co 1.0000 0.5000 0.2500
Co1P_2 Co 1.0000 0.5000 0.7500
P1B P 0.6328(1) 0.0676(1) 0.63228(1)
P1D P 0.3672(1) 0.0676(1) 0.36772(1)
P1H P 0.3672(1) -0.0676(1) 0.63228(1)
P1IA P 0.8672(1) -0.13228(1) 0.5676(1)
P1MA P 0.8672(1) 0.13228(1) 0.4324(1)
P1NA P 0.4324(1) -0.13228(1) 0.1328(1)
P1TA P 0.5676(1) 0.13228(1) 0.1328(1)
P1QA P 0.4324(1) 0.13228(1) 0.8672(1)
P1SA P 0.5676(1) -0.13228(1) 0.8672(1)
P1DA P 0.1328(1) 0.13228(1) 0.5676(1)
P1KA P 0.1328(1) -0.13228(1) 0.4324(1)
P1KA_2 P 1.1328(1) -0.13228(1) 0.4324(1)
P1DA_2 P 1.1328(1) 0.13228(1) 0.5676(1)
P1SA_2 P 0.5676(1) -0.13228(1) -0.1328(1)
P1QA_2 P 0.4324(1) 0.13228(1) -0.1328(1)
P1TA_2 P 0.5676(1) 0.13228(1) 1.1328(1)
P1NA_2 P 0.4324(1) -0.13228(1) 1.1328(1)
P1MA_2 P -0.1328(1) 0.13228(1) 0.4324(1)
P1IA_2 P -0.1328(1) -0.13228(1) 0.5676(1)
P1G P 1.0676(1) -0.3672(1) 0.63228(1)
P1J P 0.9324(1) -0.3672(1) 0.36772(1)
P1E P 1.0676(1) 0.3672(1) 0.36772(1)
P1A P 0.9324(1) 0.3672(1) 0.63228(1)
O3B O 0.6444(2) 0.1531(3) 0.6444(2)
O3D O 0.3556(2) 0.1531(3) 0.3556(2)
O3H O 0.3556(2) -0.1531(3) 0.6444(2)
O3IA O 0.8556(2) -0.1444(2) 0.6531(3)
O3AA O 0.8556(2) 0.1444(2) 0.3469(3)
O3Y O 0.3469(3) -0.1444(2) 0.1444(2)
O3EA O 0.6531(3) 0.1444(2) 0.1444(2)
O3HA O 0.3469(3) 0.1444(2) 0.8556(2)
O3CA O 0.6531(3) -0.1444(2) 0.8556(2)
O3DA O 0.1444(2) 0.1444(2) 0.6531(3)
O3GA O 0.1444(2) -0.1444(2) 0.3469(3)
O3GA_2 O 1.1444(2) -0.1444(2) 0.3469(3)
O3DA_2 O 1.1444(2) 0.1444(2) 0.6531(3)
O3CA_2 O 0.6531(3) -0.1444(2) -0.1444(2)
O3HA_2 O 0.3469(3) 0.1444(2) -0.1444(2)
O3EA_2 O 0.6531(3) 0.1444(2) 1.1444(2)
O3Y_2 O 0.3469(3) -0.1444(2) 1.1444(2)
O3AA_2 O -0.1444(2) 0.1444(2) 0.3469(3)
O3IA_2 O -0.1444(2) -0.1444(2) 0.6531(3)
O3G O 1.1531(3) -0.3556(2) 0.6444(2)
O3J O 0.8469(3) -0.3556(2) 0.3556(2)
O3E O 1.1531(3) 0.3556(2) 0.3556(2)
O3A O 0.8469(3) 0.3556(2) 0.6444(2)
O4W O 0.5932(2) -0.0212(2) 0.3050(2)
O4B O 0.6950(2) 0.0212(2) 0.5932(2)
O4R O 0.5932(2) 0.0212(2) 0.6950(2)
O4D O 0.3050(2) 0.0212(2) 0.4068(2)
O4Q O 0.4068(2) 0.0212(2) 0.3050(2)
O4H O 0.3050(2) -0.0212(2) 0.5932(2)
O4T O 0.4068(2) -0.0212(2) 0.6950(2)
O4IA O 0.8050(2) -0.0932(2) 0.5212(2)
O4JA O 0.9068(2) -0.1950(2) 0.5212(2)
O4MA O 0.8050(2) 0.0932(2) 0.4788(2)
O4AA O 0.9068(2) 0.1950(2) 0.4788(2)
O4NA O 0.4788(2) -0.0932(2) 0.1950(2)
O4Y O 0.4788(2) -0.1950(2) 0.0932(2)
O4TA O 0.5212(2) 0.0932(2) 0.1950(2)
O4EA O 0.5212(2) 0.1950(2) 0.0932(2)
O4QA O 0.4788(2) 0.0932(2) 0.8050(2)
O4HA O 0.4788(2) 0.1950(2) 0.9068(2)
O4SA O 0.5212(2) -0.0932(2) 0.8050(2)
O4CA O 0.5212(2) -0.1950(2) 0.9068(2)
O4DA O 0.1950(2) 0.0932(2) 0.5212(2)
O4LA O 0.0932(2) 0.1950(2) 0.5212(2)
O4KA O 0.1950(2) -0.0932(2) 0.4788(2)
O4GA O 0.0932(2) -0.1950(2) 0.4788(2)
O4KA_2 O 1.1950(2) -0.0932(2) 0.4788(2)
O4GA_2 O 1.0932(2) -0.1950(2) 0.4788(2)
O4DA_2 O 1.1950(2) 0.0932(2) 0.5212(2)
O4LA_2 O 1.0932(2) 0.1950(2) 0.5212(2)
O4SA_2 O 0.5212(2) -0.0932(2) -0.1950(2)
O4CA_2 O 0.5212(2) -0.1950(2) -0.0932(2)
O4QA_2 O 0.4788(2) 0.0932(2) -0.1950(2)
O4HA_2 O 0.4788(2) 0.1950(2) -0.0932(2)
O4TA_2 O 0.5212(2) 0.0932(2) 1.1950(2)
O4EA_2 O 0.5212(2) 0.1950(2) 1.0932(2)
O4NA_2 O 0.4788(2) -0.0932(2) 1.1950(2)
O4Y_2 O 0.4788(2) -0.1950(2) 1.0932(2)
O4MA_2 O -0.1950(2) 0.0932(2) 0.4788(2)
O4AA_2 O -0.0932(2) 0.1950(2) 0.4788(2)
O4IA_2 O -0.1950(2) -0.0932(2) 0.5212(2)
O4JA_2 O -0.0932(2) -0.1950(2) 0.5212(2)
O4G O 1.0212(2) -0.3050(2) 0.5932(2)
O4V O 1.0212(2) -0.4068(2) 0.6950(2)
O4J O 0.9788(2) -0.3050(2) 0.4068(2)
O4S O 0.9788(2) -0.4068(2) 0.3050(2)
O4E O 1.0212(2) 0.3050(2) 0.4068(2)
O4U O 1.0212(2) 0.4068(2) 0.3050(2)
O4A O 0.9788(2) 0.3050(2) 0.5932(2)
O4P O 0.9788(2) 0.4068(2) 0.6950(2)
O4C O 0.4068(2) -0.3050(2) -0.0212(2)
O4N O 0.5932(2) -0.3050(2) 0.0212(2)
O4I O 0.5932(2) 0.3050(2) -0.0212(2)
O4L O 0.4068(2) 0.3050(2) 0.0212(2)
O4I_2 O 0.5932(2) 0.3050(2) 0.9788(2)
O4L_2 O 0.4068(2) 0.3050(2) 1.0212(2)
O4C_2 O 0.4068(2) -0.3050(2) 0.9788(2)
O4N_2 O 0.5932(2) -0.3050(2) 1.0212(2)
O4A_2 O -0.0212(2) 0.3050(2) 0.5932(2)
O4E_2 O 0.0212(2) 0.3050(2) 0.4068(2)
O4G_2 O 0.0212(2) -0.3050(2) 0.5932(2)
O4J_2 O -0.0212(2) -0.3050(2) 0.4068(2)
O5B O 0.5580(2) 0.0673(3) 0.5580(2)
O5D O 0.4420(2) 0.0673(3) 0.4420(2)
O5H O 0.4420(2) -0.0673(3) 0.5580(2)
O5IA O 0.9420(2) -0.0580(2) 0.5673(3)
O5AA O 0.9420(2) 0.0580(2) 0.4327(3)
O5Y O 0.4327(3) -0.0580(2) 0.0580(2)
O5EA O 0.5673(3) 0.0580(2) 0.0580(2)
O5HA O 0.4327(3) 0.0580(2) 0.9420(2)
O5CA O 0.5673(3) -0.0580(2) 0.9420(2)
O5DA O 0.0580(2) 0.0580(2) 0.5673(3)
O5GA O 0.0580(2) -0.0580(2) 0.4327(3)
O5GA_2 O 1.0580(2) -0.0580(2) 0.4327(3)
O5DA_2 O 1.0580(2) 0.0580(2) 0.5673(3)
O5CA_2 O 0.5673(3) -0.0580(2) -0.0580(2)
O5HA_2 O 0.4327(3) 0.0580(2) -0.0580(2)
O5EA_2 O 0.5673(3) 0.0580(2) 1.0580(2)
O5Y_2 O 0.4327(3) -0.0580(2) 1.0580(2)
O5AA_2 O -0.0580(2) 0.0580(2) 0.4327(3)
O5IA_2 O -0.0580(2) -0.0580(2) 0.5673(3)
O5G O 1.0673(3) -0.4420(2) 0.5580(2)
O5J O 0.9327(3) -0.4420(2) 0.4420(2)
O5E O 1.0673(3) 0.4420(2) 0.4420(2)
O5A O 0.9327(3) 0.4420(2) 0.5580(2)
O5A_2 O 0.9327(3) -0.5580(2) 0.5580(2)
O5E_2 O 1.0673(3) -0.5580(2) 0.4420(2)
N1 N 0.8024(4) -0.1976(4) 0.1976(4)
N2 N 0.8062(3) -0.1938(3) 0.3752(4)
C1 C 0.8237(8) -0.1270(7) 0.2446(7)
C2 C 0.8587(3) -0.1413(3) 0.3245(5)
N2F N 0.8062(3) -0.3752(4) 0.1938(3)
N2N N 0.6248(4) -0.1938(3) 0.1938(3)
C1J C 0.8730(7) -0.1763(8) 0.2446(7)
C1F C 0.8237(8) -0.2446(7) 0.1270(7)
C1S C 0.8730(7) -0.2446(7) 0.1763(8)
C1N C 0.7554(7) -0.1763(8) 0.1270(7)
C1W C 0.7554(7) -0.1270(7) 0.1763(8)
C2F C 0.8587(3) -0.3245(5) 0.1413(3)
C2N C 0.6755(5) -0.1413(3) 0.1413(3)
loop_
_geom_bond_atom_site_label_1
_geom_bond_atom_site_label_2
_geom_bond_site_symmetry_1
_geom_bond_site_symmetry_2
N1 C1 1_555 1_555
N2 C2 1_555 1_555
C1 C2 1_555 1_555
C2 C1J 1_555 1_555
Al1 O5 1_555 1_555
Co1 O4 1_555 1_555
P1 O3 1_555 1_555
O4 P1 1_555 1_555
O5 P1 1_555 1_555
N2F C2F 1_555 1_555
N2N C2N 1_555 1_555
C1J N1 1_555 1_555
C1F N1 1_555 1_555
C1S N1 1_555 1_555
C1N N1 1_555 1_555
C1W N1 1_555 1_555
C2F C1F 1_555 1_555
C2N C1N 1_555 1_555
Al1AA O5IA 1_555 1_555
Al1Y O5Y 1_555 1_555
Al1Y_2 O5HA 1_555 1_555
Al1AA_2 O5DA 1_555 1_555
Al1A O5G 1_555 1_555
Al1A_2 O5E 1_555 1_555
Co1Q O4W 1_555 1_555
Co1R O4R 1_555 1_555
Co1D O4D 1_555 1_555
Co1G O4JA 1_555 1_555
Co1A O4AA 1_555 1_555
Co1C O4Y 1_555 1_555
Co1I O4EA 1_555 1_555
Co1I_2 O4HA 1_555 1_555
Co1C_2 O4CA 1_555 1_555
Co1A_2 O4LA 1_555 1_555
Co1G_2 O4GA 1_555 1_555
Co1D_2 O4KA_2 1_555 1_555
Co1R_2 O4SA_2 1_555 1_555
Co1Q_2 O4TA_2 1_555 1_555
Co1_2 O4MA_2 1_555 1_555
Co1P O4V 1_555 1_555
Co1S O4S 1_555 1_555
Co1S_2 O4U 1_555 1_555
Co1P_2 O4P 1_555 1_555
P1B O3B 1_555 1_555
P1D O3D 1_555 1_555
P1H O3H 1_555 1_555
P1IA O3IA 1_555 1_555
P1MA O3AA 1_555 1_555
P1NA O3Y 1_555 1_555
P1TA O3EA 1_555 1_555
P1QA O3HA 1_555 1_555
P1SA O3CA 1_555 1_555
P1DA O3DA 1_555 1_555
P1KA O3GA 1_555 1_555
P1KA_2 O3GA_2 1_555 1_555
P1DA_2 O3DA_2 1_555 1_555
P1SA_2 O3CA_2 1_555 1_555
P1QA_2 O3HA_2 1_555 1_555
P1TA_2 O3EA_2 1_555 1_555
P1NA_2 O3Y_2 1_555 1_555
P1MA_2 O3AA_2 1_555 1_555
P1IA_2 O3IA_2 1_555 1_555
P1G O3G 1_555 1_555
P1J O3J 1_555 1_555
P1E O3E 1_555 1_555
P1A O3A 1_555 1_555
O4W P1 1_555 1_555
O4B Co1 1_555 1_555
O4R P1B 1_555 1_555
O4D P1D 1_555 1_555
O4Q Co1Q 1_555 1_555
O4H Co1D 1_555 1_555
O4T Co1R 1_555 1_555
O4IA Co1 1_555 1_555
O4JA P1IA 1_555 1_555
O4MA Co1 1_555 1_555
O4AA P1MA 1_555 1_555
O4NA Co1Q 1_555 1_555
O4Y P1NA 1_555 1_555
O4TA Co1Q 1_555 1_555
O4EA P1TA 1_555 1_555
O4QA Co1R 1_555 1_555
O4HA P1QA 1_555 1_555
O4SA Co1R 1_555 1_555
O4CA P1SA 1_555 1_555
O4DA Co1D 1_555 1_555
O4LA P1DA 1_555 1_555
O4KA Co1D 1_555 1_555
O4GA P1KA 1_555 1_555
O4KA_2 P1KA_2 1_555 1_555
O4GA_2 Co1G 1_555 1_555
O4DA_2 Co1D_2 1_555 1_555
O4LA_2 Co1A 1_555 1_555
O4SA_2 P1SA_2 1_555 1_555
O4CA_2 Co1C 1_555 1_555
O4QA_2 Co1R_2 1_555 1_555
O4HA_2 Co1I 1_555 1_555
O4TA_2 P1TA_2 1_555 1_555
O4EA_2 Co1I_2 1_555 1_555
O4NA_2 Co1Q_2 1_555 1_555
O4Y_2 Co1C_2 1_555 1_555
O4MA_2 P1MA_2 1_555 1_555
O4AA_2 Co1A_2 1_555 1_555
O4IA_2 Co1_2 1_555 1_555
O4JA_2 Co1G_2 1_555 1_555
O4G Co1G 1_555 1_555
O4V P1G 1_555 1_555
O4J Co1G 1_555 1_555
O4S P1J 1_555 1_555
O4E Co1A 1_555 1_555
O4U P1E 1_555 1_555
O4A Co1A 1_555 1_555
O4P P1A 1_555 1_555
O4C Co1C 1_555 1_555
O4N Co1C 1_555 1_555
O4I Co1I 1_555 1_555
O4L Co1I 1_555 1_555
O4I_2 Co1I_2 1_555 1_555
O4L_2 Co1I_2 1_555 1_555
O4C_2 Co1C_2 1_555 1_555
O4N_2 Co1C_2 1_555 1_555
O4A_2 Co1A_2 1_555 1_555
O4E_2 Co1A_2 1_555 1_555
O4G_2 Co1G_2 1_555 1_555
O4J_2 Co1G_2 1_555 1_555
O5B Al1 1_555 1_555
O5D Al1 1_555 1_555
O5H Al1 1_555 1_555
O5IA P1IA 1_555 1_555
O5AA Al1AA 1_555 1_555
O5Y P1NA 1_555 1_555
O5EA Al1Y 1_555 1_555
O5HA P1QA 1_555 1_555
O5CA Al1Y_2 1_555 1_555
O5DA P1DA 1_555 1_555
O5GA Al1AA_2 1_555 1_555
O5GA_2 Al1AA 1_555 1_555
O5DA_2 Al1AA 1_555 1_555
O5CA_2 Al1Y 1_555 1_555
O5HA_2 Al1Y 1_555 1_555
O5EA_2 Al1Y_2 1_555 1_555
O5Y_2 Al1Y_2 1_555 1_555
O5AA_2 Al1AA_2 1_555 1_555
O5IA_2 Al1AA_2 1_555 1_555
O5G P1G 1_555 1_555
O5J Al1A 1_555 1_555
O5E P1E 1_555 1_555
O5A Al1A_2 1_555 1_555
O5A_2 Al1A 1_555 1_555
O5E_2 Al1A 1_555 1_555
C1 C1J 1_555 1_555
C1 C1W 1_555 1_555
C1J C1S 1_555 1_555
C1F C1S 1_555 1_555
C1F C1N 1_555 1_555
C1S C2F 1_555 1_555
C1N C1W 1_555 1_555
C1W C2N 1_555 1_555
P1B O4B 1_555 1_555
P1B O5B 1_555 1_555
P1D O4Q 1_555 1_555
P1D O5D 1_555 1_555
P1H O4H 1_555 1_555
P1H O4T 1_555 1_555
P1H O5H 1_555 1_555
P1IA O4IA 1_555 1_555
P1MA O4MA 1_555 1_555
P1MA O5AA 1_555 1_555
P1NA O4NA 1_555 1_555
P1TA O4TA 1_555 1_555
P1TA O5EA 1_555 1_555
P1QA O4QA 1_555 1_555
P1SA O4SA 1_555 1_555
P1SA O5CA 1_555 1_555
P1DA O4DA 1_555 1_555
P1KA O4KA 1_555 1_555
P1KA O5GA 1_555 1_555
P1KA_2 O4GA_2 1_555 1_555
P1KA_2 O5GA_2 1_555 1_555
P1DA_2 O4DA_2 1_555 1_555
P1DA_2 O4LA_2 1_555 1_555
P1DA_2 O5DA_2 1_555 1_555
P1SA_2 O4CA_2 1_555 1_555
P1SA_2 O5CA_2 1_555 1_555
P1QA_2 O4QA_2 1_555 1_555
P1QA_2 O4HA_2 1_555 1_555
P1QA_2 O5HA_2 1_555 1_555
P1TA_2 O4EA_2 1_555 1_555
P1TA_2 O5EA_2 1_555 1_555
P1NA_2 O4NA_2 1_555 1_555
P1NA_2 O4Y_2 1_555 1_555
P1NA_2 O5Y_2 1_555 1_555
P1MA_2 O4AA_2 1_555 1_555
P1MA_2 O5AA_2 1_555 1_555
P1IA_2 O4IA_2 1_555 1_555
P1IA_2 O4JA_2 1_555 1_555
P1IA_2 O5IA_2 1_555 1_555
P1G O4G 1_555 1_555
P1J O4J 1_555 1_555
P1J O5J 1_555 1_555
P1E O4E 1_555 1_555
P1A O4A 1_555 1_555
P1A O5A 1_555 1_555

#END
