
#######################################################################
#
#                 Cambridge Crystallographic Data Centre
#                                CCDC 
#
#######################################################################
#
# If this CIF has been generated from an entry in the Cambridge 
# Structural Database, then it will include bibliographic, chemical, 
# crystal, experimental, refinement or atomic coordinate data resulting 
# from the CCDC's data processing and validation procedures.
#
#######################################################################

data_GORJII
_chemical_formula_moiety         '(C18 H12 N6 O4 Zn2)n'
_symmetry_cell_setting           tetragonal
_symmetry_space_group_name_H-M   'P 4/n c c'
_symmetry_Int_Tables_number      130
_space_group_name_Hall           '-P 4a 2ac'
loop_
_symmetry_equiv_pos_site_id
_symmetry_equiv_pos_as_xyz
1 x,y,z
2 1/2-x,1/2-y,z
3 1/2-y,x,z
4 y,1/2-x,z
5 -x,1/2+y,1/2-z
6 1/2+x,-y,1/2-z
7 1/2+y,1/2+x,1/2-z
8 -y,-x,1/2-z
9 -x,-y,-z
10 1/2+x,1/2+y,-z
11 1/2+y,-x,-z
12 -y,1/2+x,-z
13 x,1/2-y,1/2+z
14 1/2-x,y,1/2+z
15 1/2-y,1/2-x,1/2+z
16 y,x,1/2+z
_cell_length_a                   13.642(3)
_cell_length_b                   13.642(3)
_cell_length_c                   35.545(11)
_cell_angle_alpha                90
_cell_angle_beta                 90
_cell_angle_gamma                90
_cell_volume                     6615.07
loop_
_atom_site_label
_atom_site_type_symbol
_atom_site_fract_x
_atom_site_fract_y
_atom_site_fract_z
_atom_site_U_iso_or_equiv
_atom_site_thermal_displace_type
C1 C 0.4583(4) 0.3051(4) 0.46019(16) 0.0393 Uani
H1 H 0.4163 0.2945 0.4400 0.0470 Uiso
C2 C 0.5609(4) 0.2833(4) 0.50277(16) 0.0400 Uani
H2 H 0.6058 0.2536 0.5188 0.0480 Uiso
N1 N 0.5113(3) 0.2343(3) 0.47607(13) 0.0387 Uani
N2 N 0.4714(3) 0.3918(3) 0.47595(13) 0.0377 Uani
N3 N 0.5395(3) 0.3779(3) 0.50397(12) 0.0360 Uani
C3 C 0.4924(11) 0.0572(11) 0.3481(4) 0.0990 Uani
C4 C 0.5644(11) -0.0053(11) 0.3346(4) 0.1117 Uani
H3 H 0.6063 -0.0369 0.3512 0.1340 Uiso
C5 C 0.5738(11) -0.0206(12) 0.2962(4) 0.1220 Uani
H4 H 0.6221 -0.0625 0.2871 0.1470 Uiso
C6 C 0.5113(13) 0.0265(13) 0.2714(4) 0.1200 Uani
C7 C 0.4393(12) 0.0890(12) 0.2849(4) 0.1357 Uani
H5 H 0.3973 0.1206 0.2682 0.1630 Uiso
C8 C 0.4299(11) 0.1043(11) 0.3233(4) 0.1137 Uani
H6 H 0.3816 0.1462 0.3323 0.1370 Uiso
C9 C 0.4855(12) 0.0975(13) 0.3903(7) 0.0840 Uani
O1 O 0.5539(16) 0.0717(14) 0.4110(7) 0.0810 Uani
O2 O 0.4161(12) 0.1484(18) 0.4006(8) 0.0830 Uani
Zn1 Zn 0.51884(5) 0.09311(4) 0.461153(17) 0.0351 Uani
C3F C 0.5572(11) -0.0076(11) 0.1519(4) 0.0990 Uani
C4F C 0.4947(11) 0.0644(11) 0.1654(4) 0.1117 Uani
H3F H 0.4631 0.1063 0.1488 0.1340 Uiso
C5F C 0.4794(12) 0.0738(11) 0.2038(4) 0.1220 Uani
H4F H 0.4375 0.1221 0.2129 0.1470 Uiso
C6F C 0.5265(13) 0.0113(13) 0.2286(4) 0.1200 Uani
C7F C 0.5890(12) -0.0607(12) 0.2151(4) 0.1357 Uani
H5F H 0.6206 -0.1027 0.2318 0.1630 Uiso
C8F C 0.6043(11) -0.0701(11) 0.1767(4) 0.1137 Uani
H6F H 0.6462 -0.1184 0.1677 0.1370 Uiso
C9F C 0.5975(13) -0.0145(12) 0.1097(7) 0.0840 Uani
O1F O 0.5717(14) 0.0539(16) 0.0890(7) 0.0810 Uani
O2F O 0.6484(18) -0.0839(12) 0.0994(8) 0.0830 Uani
C1B C 0.1949(4) 0.4583(4) 0.46019(16) 0.0393 Uani
H1B H 0.2055 0.4163 0.4400 0.0470 Uiso
C2B C 0.2167(4) 0.5609(4) 0.50277(16) 0.0400 Uani
H2B H 0.2464 0.6058 0.5188 0.0480 Uiso
N1B N 0.2657(3) 0.5113(3) 0.47607(13) 0.0387 Uani
N2B N 0.1082(3) 0.4714(3) 0.47595(13) 0.0377 Uani
N3B N 0.1221(3) 0.5395(3) 0.50397(12) 0.0360 Uani
Zn1B Zn 0.40689(4) 0.51884(5) 0.461153(17) 0.0351 Uani
N2C N 0.3918(3) 0.0286(3) 0.47595(13) 0.0377 Uani
N3H N 0.4605(3) 0.6221(3) 0.49603(12) 0.0360 Uani
N3K N 0.6221(3) 0.0395(3) 0.49603(12) 0.0360 Uani
O1B O 0.4283(14) 0.5539(16) 0.4110(7) 0.0810 Uani
Zn1A Zn -0.01884(5) 0.40689(4) 0.461153(17) 0.0351 Uani
Zn1F Zn 0.59311(4) 0.01884(5) 0.038847(17) 0.0351 Uani
Zn1I Zn 0.01884(5) 0.59311(4) 0.538847(17) 0.0351 Uani
Zn1J Zn 0.59311(4) 0.48116(5) 0.538847(17) 0.0351 Uani
loop_
_atom_site_aniso_label
_atom_site_aniso_U_11
_atom_site_aniso_U_22
_atom_site_aniso_U_33
_atom_site_aniso_U_23
_atom_site_aniso_U_13
_atom_site_aniso_U_12
C1 0.032(3) 0.043(3) 0.043(3) 0.000(3) -0.012(3) 0.000(3)
C2 0.044(3) 0.032(3) 0.044(4) 0.000(3) -0.012(3) 0.010(3)
N1 0.038(3) 0.032(3) 0.046(3) -0.003(2) -0.010(2) -0.003(2)
N2 0.039(3) 0.039(2) 0.035(3) -0.001(2) -0.006(2) 0.009(2)
N3 0.035(3) 0.039(3) 0.034(3) -0.001(2) -0.008(2) 0.002(2)
C3 0.107(8) 0.105(7) 0.085(6) -0.005(6) 0.000(6) -0.004(6)
C4 0.120(8) 0.122(8) 0.093(6) -0.004(6) 0.000(6) 0.000(6)
C5 0.133(8) 0.128(8) 0.105(7) 0.000(6) 0.003(6) 0.002(6)
C6 0.126(8) 0.126(8) 0.108(7) -0.005(6) 0.003(6) 0.003(6)
C7 0.144(9) 0.147(9) 0.116(7) -0.001(6) -0.003(6) 0.008(6)
C8 0.124(8) 0.127(8) 0.090(6) -0.004(6) 0.004(6) 0.005(6)
C9 0.086(7) 0.092(6) 0.074(5) 0.001(5) 0.002(6) 0.008(5)
O1 0.098(6) 0.094(8) 0.051(3) 0.002(6) 0.006(4) 0.018(6)
O2 0.086(8) 0.099(4) 0.064(4) -0.009(3) -0.002(7) 0.001(6)
Zn1 0.0379(4) 0.0344(4) 0.0329(4) 0.0024(3) -0.0026(3) -0.0024(3)
C3F 0.105 0.107 0.085 0 0.005 -0.004
C4F 0.122 0.12 0.093 0 0.004 0
C5F 0.128 0.133 0.105 -0.003 0 0.002
C6F 0.126 0.126 0.108 -0.003 0.005 0.003
C7F 0.147 0.144 0.116 0.003 0.001 0.008
C8F 0.127 0.124 0.09 -0.004 0.004 0.005
C9F 0.092 0.086 0.074 -0.002 -0.001 0.008
O1F 0.094 0.098 0.051 -0.006 -0.002 0.018
O2F 0.099 0.086 0.064 0.002 0.009 0.001
C1B 0.043 0.032 0.043 -0.012 0 0
C2B 0.032 0.044 0.044 -0.012 0 -0.01
N1B 0.032 0.038 0.046 -0.01 0.003 0.003
N2B 0.039 0.039 0.035 -0.006 0.001 -0.009
N3B 0.039 0.035 0.034 -0.008 0.001 -0.002
Zn1B 0.0344 0.0379 0.0329 -0.0026 -0.0024 0.0024
N2C 0.039 0.039 0.035 0.006 -0.001 -0.009
N3H 0.035 0.039 0.034 -0.001 -0.008 0.002
N3K 0.039 0.035 0.034 0.008 -0.001 -0.002
O1B 0.094 0.098 0.051 0.006 -0.002 -0.018
Zn1A 0.0379 0.0344 0.0329 -0.0024 0.0026 -0.0024
Zn1F 0.0344 0.0379 0.0329 0.0026 -0.0024 -0.0024
Zn1I 0.0379 0.0344 0.0329 -0.0024 0.0026 -0.0024
Zn1J 0.0344 0.0379 0.0329 -0.0026 -0.0024 0.0024
loop_
_geom_bond_atom_site_label_1
_geom_bond_atom_site_label_2
_geom_bond_site_symmetry_1
_geom_bond_site_symmetry_2
C1 H1 1_555 1_555
C2 H2 1_555 1_555
N1 C1 1_555 1_555
N2 C1 1_555 1_555
N3 C2 1_555 1_555
C3 C4 1_555 1_555
C4 H3 1_555 1_555
C5 C4 1_555 1_555
H4 C5 1_555 1_555
C6 C5 1_555 1_555
C7 C6 1_555 1_555
H5 C7 1_555 1_555
C8 C3 1_555 1_555
H6 C8 1_555 1_555
C9 C3 1_555 1_555
O1 C9 1_555 1_555
O2 C9 1_555 1_555
Zn1 N1 1_555 1_555
C3F C4F 1_555 1_555
C4F H3F 1_555 1_555
C5F C4F 1_555 1_555
H4F C5F 1_555 1_555
C6F C6 1_555 1_555
C7F C6F 1_555 1_555
H5F C7F 1_555 1_555
C8F C3F 1_555 1_555
H6F C8F 1_555 1_555
C9F C3F 1_555 1_555
O1F C9F 1_555 1_555
O2F C9F 1_555 1_555
C1B H1B 1_555 1_555
C2B H2B 1_555 1_555
N1B C1B 1_555 1_555
N2B C1B 1_555 1_555
N3B C2B 1_555 1_555
Zn1B N2 1_555 1_555
N2C Zn1 1_555 1_555
N3H Zn1B 1_555 1_555
N3K Zn1 1_555 1_555
O1B Zn1B 1_555 1_555
Zn1A N2B 1_555 1_555
Zn1F O1F 1_555 1_555
Zn1I N3B 1_555 1_555
Zn1J N3 1_555 1_555
C2 N1 1_555 1_555
N2 N3 1_555 1_555
C7 C8 1_555 1_555
O1 Zn1 1_555 1_555
C5F C6F 1_555 1_555
C7F C8F 1_555 1_555
C2B N1B 1_555 1_555
N1B Zn1B 1_555 1_555
N2B N3B 1_555 1_555

#END
