
#######################################################################
#
#                 Cambridge Crystallographic Data Centre
#                                CCDC 
#
#######################################################################
#
# If this CIF has been generated from an entry in the Cambridge 
# Structural Database, then it will include bibliographic, chemical, 
# crystal, experimental, refinement or atomic coordinate data resulting 
# from the CCDC's data processing and validation procedures.
#
#######################################################################

data_GORJEE
_chemical_formula_moiety         '(C11 H10 N6 O5 S1 Zn2)n'
_symmetry_cell_setting           tetragonal
_symmetry_space_group_name_H-M   'I 4/m'
_symmetry_Int_Tables_number      87
_space_group_name_Hall           '-I 4'
loop_
_symmetry_equiv_pos_site_id
_symmetry_equiv_pos_as_xyz
1 x,y,z
2 -x,-y,z
3 -y,x,z
4 y,-x,z
5 1/2+x,1/2+y,1/2+z
6 1/2-x,1/2-y,1/2+z
7 1/2-y,1/2+x,1/2+z
8 1/2+y,1/2-x,1/2+z
9 -x,-y,-z
10 x,y,-z
11 y,-x,-z
12 -y,x,-z
13 1/2-x,1/2-y,1/2-z
14 1/2+x,1/2+y,1/2-z
15 1/2+y,1/2-x,1/2-z
16 1/2-y,1/2+x,1/2-z
_cell_length_a                   13.518(5)
_cell_length_b                   13.518(5)
_cell_length_c                   26.420(5)
_cell_angle_alpha                90
_cell_angle_beta                 90
_cell_angle_gamma                90
_cell_volume                     4827.89
loop_
_atom_site_label
_atom_site_type_symbol
_atom_site_fract_x
_atom_site_fract_y
_atom_site_fract_z
_atom_site_U_iso_or_equiv
_atom_site_thermal_displace_type
O3 O 0.5000 -0.5000 0.3783(7) 0.1280 Uani
C7 C 0.5000 -0.5000 0.4266(12) 0.1280 Uani
Zn1 Zn 0.65982(6) -0.22793(6) 0.30357(3) 0.0308 Uani
S1 S 0.6316(3) -0.2679(3) 0.5000 0.0703 Uani
N1 N 0.3713(4) -0.2109(4) 0.2471(2) 0.0320 Uani
N2 N 0.3585(4) -0.2761(4) 0.2861(2) 0.0320 Uani
N3 N 0.5154(4) -0.2350(4) 0.2852(2) 0.0353 Uani
O1 O 0.6148(7) -0.2932(7) 0.3884(2) 0.0883 Uani
O2 O 0.7065(6) -0.1692(5) 0.3675(2) 0.0713 Uani
C1 C 0.4669(5) -0.1860(6) 0.2487(3) 0.0400 Uani
H1 H 0.4962 -0.1402 0.2271 0.0480 Uiso
C2 C 0.4428(5) -0.2917(6) 0.3074(3) 0.0380 Uani
H2 H 0.4532 -0.3353 0.3341 0.0460 Uiso
C3 C 0.6682(8) -0.2228(8) 0.3995(3) 0.0643 Uani
C4 C 0.6917(9) -0.2000(8) 0.4542(3) 0.0713 Uani
C5 C 0.7727(17) -0.1496(17) 0.4718(9) 0.0617 Uani
H3 H 0.8205 -0.1198 0.4516 0.0740 Uiso
O1I O 0.6148(7) -0.2932(7) 0.6116(2) 0.0883 Uani
O2I O 0.7065(6) -0.1692(5) 0.6325(2) 0.0713 Uani
C3I C 0.6682(8) -0.2228(8) 0.6005(3) 0.0643 Uani
C4I C 0.6917(9) -0.2000(8) 0.5458(3) 0.0713 Uani
C5I C 0.7727(17) -0.1496(17) 0.5282(9) 0.0617 Uani
H3I H 0.8205 -0.1198 0.5484 0.0740 Uiso
Zn1B Zn 0.22793(6) -0.34018(6) 0.30357(3) 0.0308 Uani
N1B N 0.2109(4) -0.6287(4) 0.2471(2) 0.0320 Uani
N2B N 0.2761(4) -0.6415(4) 0.2861(2) 0.0320 Uani
N3B N 0.2350(4) -0.4846(4) 0.2852(2) 0.0353 Uani
C1B C 0.1860(6) -0.5331(5) 0.2487(3) 0.0400 Uani
H1B H 0.1402 -0.5038 0.2271 0.0480 Uiso
C2B C 0.2917(6) -0.5572(5) 0.3074(3) 0.0380 Uani
H2B H 0.3353 -0.5468 0.3341 0.0460 Uiso
Zn1A Zn 0.34018(6) -0.77207(6) 0.30357(3) 0.0308 Uani
Zn1I Zn 0.65982(6) -0.22793(6) 0.69643(3) 0.0308 Uani
Zn1M Zn 0.15982(6) -0.72793(6) 0.19643(3) 0.0308 Uani
Zn1N Zn 0.27207(6) -0.15982(6) 0.19643(3) 0.0308 Uani
N1L N 0.1287(4) -0.2891(4) 0.2529(2) 0.0320 Uani
N1O N 0.7109(4) -0.1287(4) 0.2529(2) 0.0320 Uani
N2C N 0.7239(4) -0.3585(4) 0.2861(2) 0.0320 Uani
O1B O 0.2932(7) -0.3852(7) 0.3884(2) 0.0883 Uani
O2B O 0.1692(5) -0.2935(6) 0.3675(2) 0.0713 Uani
loop_
_atom_site_aniso_label
_atom_site_aniso_U_11
_atom_site_aniso_U_22
_atom_site_aniso_U_33
_atom_site_aniso_U_23
_atom_site_aniso_U_13
_atom_site_aniso_U_12
O3 0.150(9) 0.150(9) 0.084(10) 0.000 0.000 0.000
C7 0.150(9) 0.150(9) 0.084(10) 0.000 0.000 0.000
Zn1 0.0290(5) 0.0364(5) 0.0271(4) 0.0037(3) 0.0032(3) 0.0032(3)
S1 0.085(3) 0.092(3) 0.0339(15) 0.000 0.000 0.011(2)
N1 0.033(3) 0.031(3) 0.032(3) 0.006(2) -0.002(2) 0.000(2)
N2 0.040(3) 0.027(3) 0.029(3) 0.006(2) 0.000(2) -0.003(2)
N3 0.030(3) 0.041(3) 0.035(3) 0.014(3) -0.002(2) 0.000(3)
O1 0.109(6) 0.120(7) 0.036(3) -0.017(4) -0.004(4) 0.018(5)
O2 0.102(5) 0.087(5) 0.025(3) -0.001(3) 0.003(3) 0.000(4)
C1 0.035(4) 0.048(4) 0.037(4) 0.012(3) -0.001(3) -0.003(3)
C2 0.027(3) 0.054(5) 0.033(4) 0.016(3) -0.005(3) -0.001(3)
C3 0.079(7) 0.076(7) 0.038(5) -0.002(5) -0.002(5) 0.026(6)
C4 0.099(8) 0.087(7) 0.028(4) -0.001(4) 0.010(5) 0.016(6)
C5 0.069(8) 0.067(7) 0.049(5) 0.004(5) 0.004(6) 0.006(6)
O1I 0.109 0.12 0.036 0.017 0.004 0.018
O2I 0.102 0.087 0.025 0.001 -0.003 0
C3I 0.079 0.076 0.038 0.002 0.002 0.026
C4I 0.099 0.087 0.028 0.001 -0.01 0.016
C5I 0.069 0.067 0.049 -0.004 -0.004 0.006
Zn1B 0.0364 0.029 0.0271 0.0032 -0.0037 -0.0032
N1B 0.031 0.033 0.032 -0.002 -0.006 0
N2B 0.027 0.04 0.029 0 -0.006 0.003
N3B 0.041 0.03 0.035 -0.002 -0.014 0
C1B 0.048 0.035 0.037 -0.001 -0.012 0.003
C2B 0.054 0.027 0.033 -0.005 -0.016 0.001
Zn1A 0.029 0.0364 0.0271 -0.0037 -0.0032 0.0032
Zn1I 0.029 0.0364 0.0271 -0.0037 -0.0032 0.0032
Zn1M 0.029 0.0364 0.0271 -0.0037 -0.0032 0.0032
Zn1N 0.0364 0.029 0.0271 0.0032 -0.0037 -0.0032
N1L 0.033 0.031 0.032 0.006 -0.002 0
N1O 0.031 0.033 0.032 0.002 0.006 0
N2C 0.027 0.04 0.029 0 0.006 0.003
O1B 0.12 0.109 0.036 -0.004 0.017 -0.018
O2B 0.087 0.102 0.025 0.003 0.001 0
loop_
_geom_bond_atom_site_label_1
_geom_bond_atom_site_label_2
_geom_bond_site_symmetry_1
_geom_bond_site_symmetry_2
Zn1 N3 1_555 1_555
S1 C4 1_555 1_555
N1 N2 1_555 1_555
N2 C2 1_555 1_555
N3 C1 1_555 1_555
O1 Zn1 1_555 1_555
O2 Zn1 1_555 1_555
C1 N1 1_555 1_555
H1 C1 1_555 1_555
C2 N3 1_555 1_555
H2 C2 1_555 1_555
C3 O1 1_555 1_555
C4 C3 1_555 1_555
C5 C4 1_555 1_555
H3 C5 1_555 1_555
O3 C7 1_555 1_555
O1I C3I 1_555 1_555
O2I C3I 1_555 1_555
C3I C4I 1_555 1_555
C4I S1 1_555 1_555
C5I C5 1_555 1_555
H3I C5I 1_555 1_555
Zn1B N2 1_555 1_555
N1B N2B 1_555 1_555
N2B C2B 1_555 1_555
N3B Zn1B 1_555 1_555
C1B N1B 1_555 1_555
H1B C1B 1_555 1_555
C2B N3B 1_555 1_555
H2B C2B 1_555 1_555
Zn1A N2B 1_555 1_555
Zn1I O1I 1_555 1_555
Zn1M N1B 1_555 1_555
Zn1N N1 1_555 1_555
N1L Zn1B 1_555 1_555
N1O Zn1 1_555 1_555
N2C Zn1 1_555 1_555
O1B Zn1B 1_555 1_555
O2B Zn1B 1_555 1_555
O2 C3 1_555 1_555
O2I Zn1I 1_555 1_555
C4I C5I 1_555 1_555
N3B C1B 1_555 1_555

#END
