
#######################################################################
#
#                 Cambridge Crystallographic Data Centre
#                                CCDC 
#
#######################################################################
#
# If this CIF has been generated from an entry in the Cambridge 
# Structural Database, then it will include bibliographic, chemical, 
# crystal, experimental, refinement or atomic coordinate data resulting 
# from the CCDC's data processing and validation procedures.
#
#######################################################################

data_IDEYOF
_chemical_formula_moiety         '(C44 H52 N8 Ni2 O18 P4)n'
_symmetry_cell_setting           monoclinic
_symmetry_space_group_name_H-M   'C 2/c'
_symmetry_Int_Tables_number      15
_space_group_name_Hall           '-C 2yc'
loop_
_symmetry_equiv_pos_site_id
_symmetry_equiv_pos_as_xyz
1 x,y,z
2 1/2+x,1/2+y,z
3 x,-y,1/2+z
4 1/2+x,1/2-y,1/2+z
5 -x,-y,-z
6 1/2-x,1/2-y,-z
7 -x,y,1/2-z
8 1/2-x,1/2+y,1/2-z
_cell_length_a                   15.1902(7)
_cell_length_b                   16.8168(8)
_cell_length_c                   22.6800(10)
_cell_angle_alpha                90
_cell_angle_beta                 97.2140(10)
_cell_angle_gamma                90
_cell_volume                     5747.76
loop_
_atom_site_label
_atom_site_type_symbol
_atom_site_fract_x
_atom_site_fract_y
_atom_site_fract_z
Ni1 Ni 0.0000 0.38270(2) 0.2500
P1 P -0.03674(4) 0.37326(3) 0.09355(2)
O1 O -0.01532(10) 0.38293(9) 0.15902(7)
O2 O 0.04650(13) 0.39210(11) 0.06190(10)
O3 O -0.05303(12) 0.28209(10) 0.08111(8)
O4 O -0.11472(11) 0.42157(10) 0.06562(7)
N1 N -0.09672(12) 0.29241(10) 0.25055(8)
N2 N -0.40075(12) -0.02741(11) 0.25129(8)
C1 C -0.3683(2) 0.0100(2) 0.30171(11)
H1 H -0.3875(2) -0.0064(2) 0.33715(11)
C2 C -0.3080(2) 0.0716(2) 0.30342(11)
H2 H -0.2861(2) 0.0947(2) 0.33955(11)
C3 C -0.27985(15) 0.09894(13) 0.25103(10)
C4 C -0.3120(2) 0.0596(2) 0.19916(11)
H3 H -0.2943(2) 0.0751(2) 0.16309(11)
C5 C -0.3707(2) -0.00308(15) 0.20131(11)
H4 H -0.3904(2) -0.02963(15) 0.16614(11)
C6 C -0.16367(15) 0.28320(14) 0.20648(10)
H5 H -0.16971(15) 0.32004(14) 0.17566(10)
C7 C -0.2243(2) 0.22122(15) 0.20478(11)
H6 H -0.2690(2) 0.21633(15) 0.17300(11)
C8 C -0.21740(15) 0.16657(13) 0.25110(10)
C9 C -0.1492(2) 0.17728(14) 0.29720(11)
H7 H -0.1431(2) 0.14260(14) 0.32940(11)
C10 C -0.0904(2) 0.23950(13) 0.29510(11)
H8 H -0.0444(2) 0.24500(13) 0.32599(11)
H26 H -0.0834 0.2709 0.0448
H31 H 0.0602 0.4372 0.0668
P1F P 0.03674(4) 0.37326(3) 0.40645(2)
O1F O 0.01532(10) 0.38293(9) 0.34098(7)
O2F O -0.04650(13) 0.39210(11) 0.43810(10)
O3F O 0.05303(12) 0.28209(10) 0.41889(8)
O4F O 0.11472(11) 0.42157(10) 0.43438(7)
H26F H 0.0834 0.2709 0.4552
H31F H -0.0602 0.4372 0.4332
N1F N 0.09672(12) 0.29241(10) 0.24945(8)
N2F N 0.40075(12) -0.02741(11) 0.24871(8)
C1F C 0.3683(2) 0.0100(2) 0.19829(11)
H1F H 0.3875(2) -0.0064(2) 0.16285(11)
C2F C 0.3080(2) 0.0716(2) 0.19658(11)
H2F H 0.2861(2) 0.0947(2) 0.16045(11)
C3F C 0.27985(15) 0.09894(13) 0.24897(10)
C4F C 0.3120(2) 0.0596(2) 0.30084(11)
H3F H 0.2943(2) 0.0751(2) 0.33691(11)
C5F C 0.3707(2) -0.00308(15) 0.29869(11)
H4F H 0.3904(2) -0.02963(15) 0.33386(11)
C6F C 0.16367(15) 0.28320(14) 0.29352(10)
H5F H 0.16971(15) 0.32004(14) 0.32434(10)
C7F C 0.2243(2) 0.22122(15) 0.29522(11)
H6F H 0.2690(2) 0.21633(15) 0.32700(11)
C8F C 0.21740(15) 0.16657(13) 0.24890(10)
C9F C 0.1492(2) 0.17728(14) 0.20280(11)
H7F H 0.1431(2) 0.14260(14) 0.17060(11)
C10F C 0.0904(2) 0.23950(13) 0.20490(11)
H8F H 0.0444(2) 0.24500(13) 0.17401(11)
N2A N 0.09925(12) 0.47259(11) 0.25129(8)
N2G N -0.09925(12) 0.47259(11) 0.24871(8)
Ni1A Ni -0.5000 -0.11730(2) 0.2500
Ni1A_2 Ni 0.5000 -0.11730(2) 0.2500
Ni2 Ni 0.0000 0.0000 0.0000
P2 P 0.16927(4) -0.15086(3) 0.01863(2)
O5 O 0.09665(10) -0.09058(9) 0.00790(7)
O6 O 0.22756(11) -0.14342(11) -0.03435(8)
O7 O 0.23132(11) -0.13122(12) 0.07703(8)
O8 O 0.13960(12) -0.23635(10) 0.02207(8)
N3 N 0.00114(13) 0.00448(11) 0.09368(8)
N4 N 0.10263(12) 0.08674(11) 0.00816(8)
C11 C -0.0666(2) 0.0348(2) 0.11869(11)
H9 H -0.1141(2) 0.0565(2) 0.09404(11)
C12 C -0.0697(2) 0.0354(2) 0.17933(11)
H10 H -0.1191(2) 0.0559(2) 0.19452(11)
C13 C 0.0007(2) 0.00561(14) 0.21730(9)
C14 C 0.0726(2) -0.0232(2) 0.19165(10)
H11 H 0.1224(2) -0.0424(2) 0.21546(10)
C15 C 0.0697(2) -0.0232(2) 0.13052(10)
H12 H 0.1182(2) -0.0437(2) 0.11417(10)
C16 C 0.1835(2) 0.07706(14) -0.00833(14)
H13 H 0.2007(2) 0.02604(14) -0.01784(14)
C17 C 0.2428(2) 0.1384(2) -0.0120(2)
H14 H 0.2978(2) 0.1284(2) -0.0245(2)
C18 C 0.22008(15) 0.21548(13) 0.00305(11)
C19 C 0.1391(2) 0.22421(14) 0.02414(13)
H15 H 0.1222(2) 0.27371(14) 0.03714(13)
C20 C 0.0834(2) 0.15995(14) 0.02597(12)
H16 H 0.0294(2) 0.16780(14) 0.04040(12)
H27 H 0.2717 -0.1802 -0.0334
H30 H 0.2826 -0.1091 0.0704
C13F C -0.0007(2) 0.00561(14) 0.28270(9)
C12F C 0.0697(2) 0.0354(2) 0.32067(11)
C11F C 0.0666(2) 0.0348(2) 0.38131(11)
N3F N -0.00114(13) 0.00448(11) 0.40632(8)
C15F C -0.0697(2) -0.0232(2) 0.36948(10)
C14F C -0.0726(2) -0.0232(2) 0.30835(10)
H11F H -0.1224(2) -0.0424(2) 0.28454(10)
H12F H -0.1182(2) -0.0437(2) 0.38583(10)
H9F H 0.1141(2) 0.0565(2) 0.40596(11)
H10F H 0.1191(2) 0.0559(2) 0.30548(11)
C18E C 0.27992(15) 0.28452(13) -0.00305(11)
C17E C 0.2572(2) 0.3616(2) 0.0120(2)
C16E C 0.3165(2) 0.42294(14) 0.00833(14)
N4E N 0.39737(12) 0.41326(11) -0.00816(8)
C20E C 0.4166(2) 0.34005(14) -0.02597(12)
C19E C 0.3609(2) 0.27579(14) -0.02414(13)
H15E H 0.3778(2) 0.22629(14) -0.03714(13)
H16E H 0.4706(2) 0.33220(14) -0.04040(12)
H13E H 0.2993(2) 0.47396(14) 0.01784(14)
H14E H 0.2022(2) 0.3716(2) 0.0245(2)
P2D P -0.16927(4) 0.15086(3) -0.01863(2)
O5D O -0.09665(10) 0.09058(9) -0.00790(7)
O6D O -0.22756(11) 0.14342(11) 0.03435(8)
O7D O -0.23132(11) 0.13122(12) -0.07703(8)
O8D O -0.13960(12) 0.23635(10) -0.02207(8)
H27D H -0.2717 0.1802 0.0334
H30D H -0.2826 0.1091 -0.0704
N3D N -0.00114(13) -0.00448(11) -0.09368(8)
N4D N -0.10263(12) -0.08674(11) -0.00816(8)
Ni2B Ni 0.0000 0.0000 0.5000
Ni2A Ni 0.5000 0.5000 0.0000
O9 O -0.0698(3) 0.3249(2) -0.10468(13)
C21 C 0.1745(6) 0.1648(4) -0.1733(3)
H17 H 0.2026(6) 0.1672(4) -0.2089(3)
H18 H 0.1498(6) 0.1128(4) -0.1695(3)
H19 H 0.2174(6) 0.1756(4) -0.1395(3)
C22 C 0.1089(5) 0.2197(6) -0.1763(5)
H20 H 0.0717(5) 0.2074(6) -0.2131(5)
H21 H 0.1383(5) 0.2693(6) -0.1836(5)
C23 C 0.0485(5) 0.2410(3) -0.1373(2)
H22 H 0.0128(5) 0.1935(3) -0.1352(2)
H23 H 0.0849(5) 0.2442(3) -0.0990(2)
C24 C -0.0081(5) 0.2984(6) -0.1354(5)
H24 H -0.0401(5) 0.2962(6) -0.1751(5)
H25 H 0.0300(5) 0.3446(6) -0.1358(5)
H32 H -0.0821 0.2866 -0.0791
O10 O 0.1075(2) 0.5295(2) 0.04985(12)
H28 H 0.1043 0.5482 0.0078
H29 H 0.0960 0.5817 0.0692
loop_
_geom_bond_atom_site_label_1
_geom_bond_atom_site_label_2
_geom_bond_site_symmetry_1
_geom_bond_site_symmetry_2
Ni1 O1 1_555 1_555
Ni2 O5 1_555 1_555
P1 O1 1_555 1_555
P2 O5 1_555 1_555
O2 P1 1_555 1_555
O3 P1 1_555 1_555
O4 P1 1_555 1_555
O6 P2 1_555 1_555
O7 P2 1_555 1_555
O8 P2 1_555 1_555
O9 C24 1_555 1_555
O10 H28 1_555 1_555
N1 Ni1 1_555 1_555
N2 C1 1_555 1_555
N3 Ni2 1_555 1_555
N4 Ni2 1_555 1_555
C1 H1 1_555 1_555
C2 C1 1_555 1_555
H2 C2 1_555 1_555
C3 C2 1_555 1_555
C4 C3 1_555 1_555
H3 C4 1_555 1_555
C5 N2 1_555 1_555
H4 C5 1_555 1_555
C6 N1 1_555 1_555
H5 C6 1_555 1_555
C7 C6 1_555 1_555
H6 C7 1_555 1_555
C8 C3 1_555 1_555
C9 C8 1_555 1_555
H7 C9 1_555 1_555
C10 N1 1_555 1_555
H8 C10 1_555 1_555
C11 N3 1_555 1_555
H9 C11 1_555 1_555
C12 C11 1_555 1_555
H10 C12 1_555 1_555
C13 C12 1_555 1_555
C14 C13 1_555 1_555
H11 C14 1_555 1_555
C15 N3 1_555 1_555
H12 C15 1_555 1_555
C16 N4 1_555 1_555
H13 C16 1_555 1_555
C17 C16 1_555 1_555
H14 C17 1_555 1_555
C18 C17 1_555 1_555
C19 C18 1_555 1_555
H15 C19 1_555 1_555
C20 N4 1_555 1_555
H16 C20 1_555 1_555
C21 H17 1_555 1_555
H18 C21 1_555 1_555
H19 C21 1_555 1_555
C22 C21 1_555 1_555
H20 C22 1_555 1_555
H21 C22 1_555 1_555
C23 C22 1_555 1_555
H22 C23 1_555 1_555
H23 C23 1_555 1_555
C24 C23 1_555 1_555
H24 C24 1_555 1_555
H25 C24 1_555 1_555
H26 O3 1_555 1_555
H27 O6 1_555 1_555
H29 O10 1_555 1_555
H30 O7 1_555 1_555
H31 O2 1_555 1_555
H32 O9 1_555 1_555
C13F C13 1_555 1_555
C12F C13F 1_555 1_555
C11F C12F 1_555 1_555
N3F C11F 1_555 1_555
C15F N3F 1_555 1_555
C14F C13F 1_555 1_555
H11F C14F 1_555 1_555
H12F C15F 1_555 1_555
H9F C11F 1_555 1_555
H10F C12F 1_555 1_555
C18E C18 1_555 1_555
C17E C18E 1_555 1_555
C16E C17E 1_555 1_555
N4E C16E 1_555 1_555
C20E N4E 1_555 1_555
C19E C18E 1_555 1_555
H15E C19E 1_555 1_555
H16E C20E 1_555 1_555
H13E C16E 1_555 1_555
H14E C17E 1_555 1_555
P1F O1F 1_555 1_555
O1F Ni1 1_555 1_555
O2F P1F 1_555 1_555
O3F P1F 1_555 1_555
O4F P1F 1_555 1_555
H26F O3F 1_555 1_555
H31F O2F 1_555 1_555
N1F Ni1 1_555 1_555
N2F C1F 1_555 1_555
C1F H1F 1_555 1_555
C2F C1F 1_555 1_555
H2F C2F 1_555 1_555
C3F C2F 1_555 1_555
C4F C3F 1_555 1_555
H3F C4F 1_555 1_555
C5F N2F 1_555 1_555
H4F C5F 1_555 1_555
C6F N1F 1_555 1_555
H5F C6F 1_555 1_555
C7F C6F 1_555 1_555
H6F C7F 1_555 1_555
C8F C3F 1_555 1_555
C9F C8F 1_555 1_555
H7F C9F 1_555 1_555
C10F N1F 1_555 1_555
H8F C10F 1_555 1_555
P2D O5D 1_555 1_555
O5D Ni2 1_555 1_555
O6D P2D 1_555 1_555
O7D P2D 1_555 1_555
O8D P2D 1_555 1_555
H27D O6D 1_555 1_555
H30D O7D 1_555 1_555
N2A Ni1 1_555 1_555
N2G Ni1 1_555 1_555
N3D Ni2 1_555 1_555
N4D Ni2 1_555 1_555
Ni1A N2 1_555 1_555
Ni2B N3F 1_555 1_555
Ni2A N4E 1_555 1_555
Ni1A_2 N2F 1_555 1_555
C4 C5 1_555 1_555
C7 C8 1_555 1_555
C9 C10 1_555 1_555
C14 C15 1_555 1_555
C19 C20 1_555 1_555
C15F C14F 1_555 1_555
C20E C19E 1_555 1_555
C4F C5F 1_555 1_555
C7F C8F 1_555 1_555
C9F C10F 1_555 1_555

#END
