
#######################################################################
#
#                 Cambridge Crystallographic Data Centre
#                                CCDC 
#
#######################################################################
#
# If this CIF has been generated from an entry in the Cambridge 
# Structural Database, then it will include bibliographic, chemical, 
# crystal, experimental, refinement or atomic coordinate data resulting 
# from the CCDC's data processing and validation procedures.
#
#######################################################################

data_LEDPIU
_chemical_formula_moiety         '(C48 H58 Cu3 N12 O17)n'
_symmetry_cell_setting           monoclinic
_symmetry_space_group_name_H-M   'C 2/c'
_symmetry_Int_Tables_number      15
_space_group_name_Hall           '-C 2yc'
loop_
_symmetry_equiv_pos_site_id
_symmetry_equiv_pos_as_xyz
1 x,y,z
2 1/2+x,1/2+y,z
3 -x,y,1/2-z
4 1/2-x,1/2+y,1/2-z
5 -x,-y,-z
6 1/2-x,1/2-y,-z
7 x,-y,1/2+z
8 1/2+x,1/2-y,1/2+z
_cell_length_a                   25.860(6)
_cell_length_b                   10.185(2)
_cell_length_c                   22.790(5)
_cell_angle_alpha                90
_cell_angle_beta                 97.671(7)
_cell_angle_gamma                90
_cell_volume                     5948.81
loop_
_atom_site_label
_atom_site_type_symbol
_atom_site_fract_x
_atom_site_fract_y
_atom_site_fract_z
C1 C 0.64063(19) 0.9669(5) 0.61679(19)
H1 H 0.6365 0.8800 0.6278
C2 C 0.67083(18) 0.9971(4) 0.57177(18)
C3 C 0.67754(18) 1.1242(4) 0.55627(19)
H2 H 0.6982 1.1432 0.5269
C4 C 0.65400(19) 1.2269(5) 0.5835(2)
C5 C 0.62404(19) 1.1962(5) 0.6287(2)
H3 H 0.6088 1.2633 0.6481
C6 C 0.61703(19) 1.0668(5) 0.6447(2)
C7 C 0.6955(2) 0.8865(5) 0.5409(2)
C8 C 0.6616(2) 1.3687(5) 0.5692(2)
C9 C 0.5827(2) 1.0374(6) 0.6915(2)
C10 C 0.4207(2) 1.0354(6) 0.6507(2)
H4 H 0.4022 0.9869 0.6756
C11 C 0.4766(2) 1.1646(6) 0.6206(2)
H5 H 0.5043 1.2229 0.6202
C12 C 0.4096(2) 1.0397(7) 0.5914(3)
H6 H 0.3828 0.9956 0.5680
C13 C 0.4545(2) 1.1489(7) 0.5116(2)
H7 H 0.4798 1.2189 0.5110
H8 H 0.4221 1.1770 0.4886
C14 C 0.4739(3) 1.0277(8) 0.4850(2)
H9 H 0.4774 1.0461 0.4439
H10 H 0.4476 0.9599 0.4851
C15 C 0.7249(2) 0.6213(5) 0.6710(2)
H11 H 0.6976 0.6810 0.6703
C16 C 0.7814(2) 0.4906(6) 0.6440(2)
H12 H 0.8011 0.4419 0.6205
C17 C 0.7881(2) 0.4904(6) 0.7038(2)
H13 H 0.8125 0.4424 0.7287
C18 C 0.7427(3) 0.6007(6) 0.7814(2)
H14 H 0.7186 0.6736 0.7816
H15 H 0.7753 0.6257 0.8048
C19 C 0.7205(2) 0.4817(6) 0.8091(2)
H16 H 0.7458 0.4111 0.8109
H17 H 0.7156 0.5033 0.8495
C20 C 0.6694(2) 0.4325(6) 0.7773(2)
H18 H 0.6749 0.4038 0.7380
H19 H 0.6448 0.5049 0.7726
C21 C 0.6455(3) 0.3211(6) 0.8078(2)
H20 H 0.6119 0.2986 0.7858
H21 H 0.6678 0.2445 0.8086
C22 C 0.6731(2) 0.3325(5) 0.9168(2)
H22 H 0.7022 0.2786 0.9169
C23 C 0.6015(3) 0.4373(7) 0.8852(3)
H23 H 0.5724 0.4702 0.8614
C24 C 0.6158(3) 0.4599(7) 0.9445(3)
H24 H 0.5974 0.5124 0.9680
N1 N 0.46232(18) 1.1112(5) 0.66905(17)
N2 N 0.44578(18) 1.1227(5) 0.57252(18)
N3 N 0.74143(18) 0.5727(4) 0.62309(17)
N4 N 0.75187(18) 0.5746(4) 0.72025(18)
N5 N 0.63848(19) 0.3574(5) 0.86883(18)
N6 N 0.66059(18) 0.3943(4) 0.96383(17)
O1 O 0.69143(15) 0.7738(3) 0.56318(14)
O2 O 0.71738(14) 0.9129(3) 0.49739(14)
O3 O 0.69867(14) 1.3953(3) 0.53913(14)
O4 O 0.63244(16) 1.4514(3) 0.58617(16)
O5 O 0.56468(13) 1.1337(4) 0.71581(13)
O6 O 0.5718(2) 0.9226(5) 0.7004(2)
O7 O 0.5000 1.3582(7) 0.7500
Cu1 Cu 0.70410(3) 0.59256(6) 0.54121(2)
Cu2 Cu 0.5000 1.13042(9) 0.7500
C1B C 0.35937(19) 0.9669(5) 0.88321(19)
H1B H 0.3635 0.8800 0.8722
C2B C 0.32917(18) 0.9971(4) 0.92823(18)
C3B C 0.32246(18) 1.1242(4) 0.94373(19)
H2B H 0.3018 1.1432 0.9731
C4B C 0.34600(19) 1.2269(5) 0.9165(2)
C5B C 0.37596(19) 1.1962(5) 0.8713(2)
H3B H 0.3912 1.2633 0.8519
C6B C 0.38297(19) 1.0668(5) 0.8553(2)
C7B C 0.3045(2) 0.8865(5) 0.9591(2)
C8B C 0.3384(2) 1.3687(5) 0.9308(2)
C9B C 0.4173(2) 1.0374(6) 0.8085(2)
C10D C 0.5793(2) 0.9646(6) 0.3493(2)
H4D H 0.5978 1.0131 0.3244
C11D C 0.5234(2) 0.8354(6) 0.3794(2)
H5D H 0.4957 0.7771 0.3798
C12D C 0.5904(2) 0.9603(7) 0.4086(3)
H6D H 0.6172 1.0044 0.4320
C13D C 0.5455(2) 0.8511(7) 0.4884(2)
H7D H 0.5202 0.7811 0.4890
H8D H 0.5779 0.8230 0.5114
C14D C 0.5261(3) 0.9723(8) 0.5150(2)
H9D H 0.5226 0.9539 0.5561
H10D H 0.5524 1.0401 0.5149
C15F C 0.7249(2) 0.3787(5) 0.1710(2)
H11F H 0.6976 0.3190 0.1703
C16F C 0.7814(2) 0.5094(6) 0.1440(2)
H12F H 0.8011 0.5581 0.1205
C17F C 0.7881(2) 0.5096(6) 0.2038(2)
H13F H 0.8125 0.5576 0.2287
C18F C 0.7427(3) 0.3993(6) 0.2814(2)
H14F H 0.7186 0.3264 0.2816
H15F H 0.7753 0.3743 0.3048
C19F C 0.7205(2) 0.5183(6) 0.3091(2)
H16F H 0.7458 0.5889 0.3109
H17F H 0.7156 0.4967 0.3495
C20F C 0.6694(2) 0.5675(6) 0.2773(2)
H18F H 0.6749 0.5962 0.2380
H19F H 0.6448 0.4951 0.2726
C21F C 0.6455(3) 0.6789(6) 0.3078(2)
H20F H 0.6119 0.7014 0.2858
H21F H 0.6678 0.7555 0.3086
C22F C 0.6731(2) 0.6675(5) 0.4168(2)
H22F H 0.7022 0.7214 0.4169
C23F C 0.6015(3) 0.5627(7) 0.3852(3)
H23F H 0.5724 0.5298 0.3614
C24F C 0.6158(3) 0.5401(7) 0.4445(3)
H24F H 0.5974 0.4876 0.4680
N1D N 0.53768(18) 0.8888(5) 0.33095(17)
N1B N 0.53768(18) 1.1112(5) 0.83095(17)
N2D N 0.55422(18) 0.8773(5) 0.42748(18)
N3F N 0.74143(18) 0.4273(4) 0.12309(17)
N3B N 0.25857(18) 0.5727(4) 0.87691(17)
N4F N 0.75187(18) 0.4254(4) 0.22025(18)
N5F N 0.63848(19) 0.6426(5) 0.36883(18)
N6F N 0.66059(18) 0.6057(4) 0.46383(17)
N6D N 0.33941(18) 0.6057(4) 1.03617(17)
O1B O 0.30857(15) 0.7738(3) 0.93682(14)
O2B O 0.28262(14) 0.9129(3) 1.00261(14)
O2E O 0.78262(14) 0.5871(3) 0.50261(14)
O2G O 0.21738(14) 0.5871(3) 0.99739(14)
O3B O 0.30133(14) 1.3953(3) 0.96087(14)
O3_2 O 0.69867(14) 0.3953(3) 0.53913(14)
O3B_2 O 0.30133(14) 0.3953(3) 0.96087(14)
O4B O 0.36756(16) 1.4514(3) 0.91383(16)
O5B O 0.43532(13) 1.1337(4) 0.78419(13)
O6B O 0.4282(2) 0.9226(5) 0.7996(2)
Cu1B Cu 0.29590(3) 0.59256(6) 0.95879(2)
Cu1F Cu 0.70410(3) 0.40744(6) 1.04121(2)
Cu1E Cu 0.79590(3) 0.90744(6) 0.45879(2)
Cu1_2 Cu 0.70410(3) 1.59256(6) 0.54121(2)
Cu1G Cu 0.20410(3) 0.90744(6) 1.04121(2)
Cu1B_2 Cu 0.29590(3) 1.59256(6) 0.95879(2)
Cu1F_2 Cu 0.70410(3) 0.40744(6) 0.04121(2)
Cu2F Cu 0.5000 0.86958(9) 0.2500
O8 O 0.7008(4) 1.2801(10) 0.4241(4)
H25 H 0.702(3) 1.333(9) 0.459(3)
H26 H 0.7356(12) 1.278(6) 0.416(2)
O9 O 0.5543(5) 1.4991(9) 0.6626(6)
H27 H 0.5251(19) 1.539(4) 0.672(3)
H28 H 0.5764(17) 1.561(3) 0.653(4)
O10 O 0.6213(6) 0.7222(13) 0.7287(7)
H29 H 0.609(4) 0.806(4) 0.718(4)
H30 H 0.614(5) 0.672(7) 0.693(3)
O11 O 0.4960(6) 1.7332(12) 0.6347(8)
H31 H 0.470(4) 1.721(9) 0.604(4)
H32 H 0.495(2) 1.656(4) 0.657(3)
loop_
_geom_bond_atom_site_label_1
_geom_bond_atom_site_label_2
_geom_bond_site_symmetry_1
_geom_bond_site_symmetry_2
C1 H1 1_555 1_555
C2 C1 1_555 1_555
C3 C2 1_555 1_555
H2 C3 1_555 1_555
C4 C3 1_555 1_555
C5 C4 1_555 1_555
H3 C5 1_555 1_555
C6 C1 1_555 1_555
C7 C2 1_555 1_555
C8 C4 1_555 1_555
C9 C6 1_555 1_555
C10 H4 1_555 1_555
C11 H5 1_555 1_555
C12 C10 1_555 1_555
H6 C12 1_555 1_555
C13 H7 1_555 1_555
H8 C13 1_555 1_555
C14 C13 1_555 1_555
H9 C14 1_555 1_555
H10 C14 1_555 1_555
C15 H11 1_555 1_555
C16 H12 1_555 1_555
C17 C16 1_555 1_555
H13 C17 1_555 1_555
C18 H14 1_555 1_555
H15 C18 1_555 1_555
C19 C18 1_555 1_555
H16 C19 1_555 1_555
H17 C19 1_555 1_555
C20 C19 1_555 1_555
H18 C20 1_555 1_555
H19 C20 1_555 1_555
C21 C20 1_555 1_555
H20 C21 1_555 1_555
H21 C21 1_555 1_555
C22 H22 1_555 1_555
C23 H23 1_555 1_555
C24 C23 1_555 1_555
H24 C24 1_555 1_555
N1 C10 1_555 1_555
N2 C11 1_555 1_555
N3 C15 1_555 1_555
N4 C15 1_555 1_555
N5 C21 1_555 1_555
N6 C22 1_555 1_555
O1 C7 1_555 1_555
O2 C7 1_555 1_555
O3 C8 1_555 1_555
O4 C8 1_555 1_555
O5 C9 1_555 1_555
O6 C9 1_555 1_555
O7 Cu2 1_555 1_555
O8 H25 1_555 1_555
O9 H27 1_555 1_555
O10 H29 1_555 1_555
O11 H31 1_555 1_555
Cu1 N3 1_555 1_555
Cu2 N1 1_555 1_555
H26 O8 1_555 1_555
H28 O9 1_555 1_555
H30 O10 1_555 1_555
H32 O11 1_555 1_555
C1B H1B 1_555 1_555
C2B C1B 1_555 1_555
C3B C2B 1_555 1_555
H2B C3B 1_555 1_555
C4B C3B 1_555 1_555
C5B C4B 1_555 1_555
H3B C5B 1_555 1_555
C6B C1B 1_555 1_555
C7B C2B 1_555 1_555
C8B C4B 1_555 1_555
C9B C6B 1_555 1_555
C10D H4D 1_555 1_555
C11D H5D 1_555 1_555
C12D C10D 1_555 1_555
H6D C12D 1_555 1_555
C13D H7D 1_555 1_555
H8D C13D 1_555 1_555
C14D C14 1_555 1_555
H9D C14D 1_555 1_555
H10D C14D 1_555 1_555
C15F H11F 1_555 1_555
C16F H12F 1_555 1_555
C17F C16F 1_555 1_555
H13F C17F 1_555 1_555
C18F H14F 1_555 1_555
H15F C18F 1_555 1_555
C19F C18F 1_555 1_555
H16F C19F 1_555 1_555
H17F C19F 1_555 1_555
C20F C19F 1_555 1_555
H18F C20F 1_555 1_555
H19F C20F 1_555 1_555
C21F C20F 1_555 1_555
H20F C21F 1_555 1_555
H21F C21F 1_555 1_555
C22F H22F 1_555 1_555
C23F H23F 1_555 1_555
C24F C23F 1_555 1_555
H24F C24F 1_555 1_555
N1D C10D 1_555 1_555
N1B Cu2 1_555 1_555
N2D C11D 1_555 1_555
N3F C15F 1_555 1_555
N3B Cu1B 1_555 1_555
N4F C15F 1_555 1_555
N5F C21F 1_555 1_555
N6F Cu1 1_555 1_555
N6D Cu1B 1_555 1_555
O1B C7B 1_555 1_555
O2B C7B 1_555 1_555
O2E Cu1 1_555 1_555
O2G Cu1B 1_555 1_555
O3B C8B 1_555 1_555
O3_2 Cu1 1_555 1_555
O3B_2 Cu1B 1_555 1_555
O4B C8B 1_555 1_555
O5B Cu2 1_555 1_555
O6B C9B 1_555 1_555
Cu1B O1B 1_555 1_555
Cu1F N6 1_555 1_555
Cu1E O2 1_555 1_555
Cu1_2 O3 1_555 1_555
Cu1G O2B 1_555 1_555
Cu1B_2 O3B 1_555 1_555
Cu1F_2 N3F 1_555 1_555
Cu2F N1D 1_555 1_555
C5 C6 1_555 1_555
C11 N1 1_555 1_555
C12 N2 1_555 1_555
C13 N2 1_555 1_555
C16 N3 1_555 1_555
C17 N4 1_555 1_555
C18 N4 1_555 1_555
C22 N5 1_555 1_555
C23 N5 1_555 1_555
C24 N6 1_555 1_555
O1 Cu1 1_555 1_555
O5 Cu2 1_555 1_555
C5B C6B 1_555 1_555
C9B O5B 1_555 1_555
C11D N1D 1_555 1_555
C12D N2D 1_555 1_555
C13D C14D 1_555 1_555
C13D N2D 1_555 1_555
C16F N3F 1_555 1_555
C17F N4F 1_555 1_555
C18F N4F 1_555 1_555
C22F N5F 1_555 1_555
C22F N6F 1_555 1_555
C23F N5F 1_555 1_555
C24F N6F 1_555 1_555

#END
