
#######################################################################
#
#                 Cambridge Crystallographic Data Centre
#                                CCDC 
#
#######################################################################
#
# If this CIF has been generated from an entry in the Cambridge 
# Structural Database, then it will include bibliographic, chemical, 
# crystal, experimental, refinement or atomic coordinate data resulting 
# from the CCDC's data processing and validation procedures.
#
#######################################################################

data_LOXVUR
_chemical_formula_moiety         '(C21 H20 Cu2 N2 O10)n'
_symmetry_cell_setting           monoclinic
_symmetry_space_group_name_H-M   'C 2/c'
_symmetry_Int_Tables_number      15
_space_group_name_Hall           '-C 2yc'
loop_
_symmetry_equiv_pos_site_id
_symmetry_equiv_pos_as_xyz
1 x,y,z
2 -x,y,1/2-z
3 1/2+x,1/2+y,z
4 1/2-x,1/2+y,1/2-z
5 -x,-y,-z
6 x,-y,1/2+z
7 1/2-x,1/2-y,-z
8 1/2+x,1/2-y,1/2+z
_cell_length_a                   21.0140(16)
_cell_length_b                   13.1528(10)
_cell_length_c                   8.5908(6)
_cell_angle_alpha                90
_cell_angle_beta                 100.3630(10)
_cell_angle_gamma                90
_cell_volume                     2335.7
loop_
_atom_site_label
_atom_site_type_symbol
_atom_site_fract_x
_atom_site_fract_y
_atom_site_fract_z
_atom_site_U_iso_or_equiv
_atom_site_thermal_displace_type
Cu1 Cu 0.697705(14) 0.29522(2) 0.92604(3) 0.0076 Uani
O1 O 0.74746(10) 0.70718(15) 1.2516(2) 0.0142 Uani
C1 C 0.80519(13) 0.73502(19) 1.2612(3) 0.0100 Uani
O2 O 0.83850(10) 0.77943(16) 1.3788(2) 0.0159 Uani
C2 C 0.83739(13) 0.71228(19) 1.1204(3) 0.0114 Uani
H1 H 0.8849 0.7101 1.1560 0.0140 Uiso
H2 H 0.8276 0.7678 1.0420 0.0140 Uiso
O3 O 0.74482(10) 0.42005(14) 1.0093(2) 0.0156 Uani
C3 C 0.81459(13) 0.6110(2) 1.0413(3) 0.0121 Uani
H3 H 0.7676 0.6148 0.9996 0.0150 Uiso
H4 H 0.8370 0.5993 0.9509 0.0150 Uiso
O4 O 0.83446(9) 0.34286(14) 1.1336(2) 0.0142 Uani
C4 C 0.82806(14) 0.5217(2) 1.1566(3) 0.0140 Uani
H5 H 0.8755 0.5144 1.1889 0.0170 Uiso
H6 H 0.8102 0.5383 1.2526 0.0170 Uiso
C5 C 0.80049(12) 0.4205(2) 1.0932(3) 0.0100 Uani
N1 N 0.61742(14) 0.3751(4) 0.7803(5) 0.0095 Uani
C6 C 0.57354(14) 0.3213(2) 0.6775(4) 0.0249 Uani
H7 H 0.5705 0.2498 0.6897 0.0300 Uiso
C7 C 0.52648(15) 0.36830(16) 0.5696(4) 0.0227 Uani
H8 H 0.4934 0.3277 0.5101 0.0270 Uiso
C8 C 0.5684(2) 0.5303(4) 0.6780(6) 0.0095 Uani
H9 H 0.5653 0.6023 0.6819 0.0110 Uiso
C9 C 0.6155(3) 0.4783(4) 0.7818(7) 0.0095 Uani
H10 H 0.6466 0.5151 0.8543 0.0110 Uiso
C10 C 0.5259(3) 0.47398(19) 0.5679(4) 0.0095 Uani
N1D N 0.38258(14) 0.6249(4) 0.2197(5) 0.0095 Uani
C6D C 0.42646(14) 0.6787(2) 0.3225(4) 0.0249 Uani
H7D H 0.4295 0.7502 0.3103 0.0300 Uiso
C7D C 0.47352(15) 0.63170(16) 0.4304(4) 0.0227 Uani
H8D H 0.5066 0.6723 0.4899 0.0270 Uiso
C8D C 0.4316(2) 0.4697(4) 0.3220(6) 0.0095 Uani
H9D H 0.4347 0.3977 0.3181 0.0110 Uiso
C9D C 0.3845(3) 0.5217(4) 0.2182(7) 0.0095 Uani
H10D H 0.3534 0.4849 0.1457 0.0110 Uiso
C10D C 0.4741(3) 0.52602(19) 0.4321(4) 0.0095 Uani
Cu1D Cu 0.302295(14) 0.70478(2) 0.07396(3) 0.0076 Uani
O1D O 0.25254(10) 0.29282(15) -0.2516(2) 0.0142 Uani
C1D C 0.19481(13) 0.26498(19) -0.2612(3) 0.0100 Uani
O2D O 0.16150(10) 0.22057(16) -0.3788(2) 0.0159 Uani
C2D C 0.16261(13) 0.28772(19) -0.1204(3) 0.0114 Uani
H1D H 0.1151 0.2899 -0.1560 0.0140 Uiso
H2D H 0.1724 0.2322 -0.0420 0.0140 Uiso
O3D O 0.25518(10) 0.57995(14) -0.0093(2) 0.0156 Uani
C3D C 0.18541(13) 0.3890(2) -0.0413(3) 0.0121 Uani
H3D H 0.2324 0.3852 0.0004 0.0150 Uiso
H4D H 0.1630 0.4007 0.0491 0.0150 Uiso
O4D O 0.16554(9) 0.65714(14) -0.1336(2) 0.0142 Uani
C4D C 0.17194(14) 0.4783(2) -0.1566(3) 0.0140 Uani
H5D H 0.1245 0.4856 -0.1889 0.0170 Uiso
H6D H 0.1898 0.4617 -0.2526 0.0170 Uiso
C5D C 0.19951(12) 0.5795(2) -0.0932(3) 0.0100 Uani
Cu1A Cu 0.302295(14) 0.29522(2) -0.42604(3) 0.0076 Uani
Cu1B Cu 0.197705(14) 0.79522(2) -0.07396(3) 0.0076 Uani
Cu1C Cu 0.802295(14) 0.79522(2) 1.57396(3) 0.0076 Uani
Cu1E Cu 0.697705(14) 0.70478(2) 1.42604(3) 0.0076 Uani
Cu1F Cu 0.802295(14) 0.20478(2) 1.07396(3) 0.0076 Uani
Cu1G Cu 0.197705(14) 0.20478(2) -0.57396(3) 0.0076 Uani
O1A O 0.25254(10) 0.70718(15) 0.2484(2) 0.0142 Uani
O1E O 0.74746(10) 0.29282(15) 0.7516(2) 0.0142 Uani
O2C O 0.66150(10) 0.27943(16) 1.1212(2) 0.0159 Uani
O2G O 0.33850(10) 0.72057(16) -0.1212(2) 0.0159 Uani
O4B O 0.33446(9) 0.84286(14) 0.1336(2) 0.0142 Uani
O4F O 0.66554(9) 0.15714(14) 0.8664(2) 0.0142 Uani
O5 O 0.4918(8) 0.0859(3) 0.4790(19) 0.1654 Uani
C14 C 0.5000 0.0000 0.5000 0.2202 Uani
O5D O 0.5082(8) -0.0859(3) 0.5210(19) 0.1654 Uani
loop_
_atom_site_aniso_label
_atom_site_aniso_U_11
_atom_site_aniso_U_22
_atom_site_aniso_U_33
_atom_site_aniso_U_23
_atom_site_aniso_U_13
_atom_site_aniso_U_12
Cu1 0.00919(19) 0.00597(18) 0.00692(18) 0.00113(10) -0.00064(12) 0.00166(10)
O1 0.0124 0.0201 0.0101 -0.0032 0.0018 -0.0041
C1 0.0146 0.0048 0.0103 0.0016 0.0015 0.0001
O2 0.018 0.0186 0.0117 -0.0056 0.0039 -0.0083
C2 0.0157 0.0087 0.0101 -0.0006 0.0035 -0.0018
O3 0.0180(10) 0.0076(9) 0.0174(10) -0.0006(7) -0.0067(8) 0.0007(7)
C3 0.0182(13) 0.0087(12) 0.0092(11) -0.0007(9) 0.0017(10) -0.0004(10)
O4 0.0133 0.0091 0.0182 -0.0002 -0.0028 0.0006
C4 0.0187(13) 0.0084(12) 0.0125(12) -0.0012(10) -0.0035(10) -0.0013(10)
C5 0.0144(12) 0.0087(12) 0.0069(11) 0.0003(9) 0.0021(9) -0.0013(9)
N1 0.0075(7) 0.0139(7) 0.0079(8) 0.0045(6) 0.0033(6) 0.0027(6)
C6 0.0332(18) 0.0119(13) 0.0226(15) -0.0043(11) -0.0136(13) 0.0085(12)
C7 0.0251(15) 0.0179(15) 0.0188(14) -0.0068(11) -0.0130(12) 0.0086(12)
C8 0.0075(7) 0.0139(7) 0.0079(8) 0.0045(6) 0.0033(6) 0.0027(6)
C9 0.0075(7) 0.0139(7) 0.0079(8) 0.0045(6) 0.0033(6) 0.0027(6)
C10 0.0075(7) 0.0139(7) 0.0079(8) 0.0045(6) 0.0033(6) 0.0027(6)
N1D 0.0075 0.0139 0.0079 0.0045 0.0033 0.0027
C6D 0.0332 0.0119 0.0226 -0.0043 -0.0136 0.0085
C7D 0.0251 0.0179 0.0188 -0.0068 -0.013 0.0086
C8D 0.0075 0.0139 0.0079 0.0045 0.0033 0.0027
C9D 0.0075 0.0139 0.0079 0.0045 0.0033 0.0027
C10D 0.0075 0.0139 0.0079 0.0045 0.0033 0.0027
Cu1D 0.00919 0.00597 0.00692 0.00113 -0.00064 0.00166
O1D 0.0124 0.0201 0.0101 -0.0032 0.0018 -0.0041
C1D 0.0146 0.0048 0.0103 0.0016 0.0015 0.0001
O2D 0.018 0.0186 0.0117 -0.0056 0.0039 -0.0083
C2D 0.0157 0.0087 0.0101 -0.0006 0.0035 -0.0018
O3D 0.018 0.0076 0.0174 -0.0006 -0.0067 0.0007
C3D 0.0182 0.0087 0.0092 -0.0007 0.0017 -0.0004
O4D 0.0133 0.0091 0.0182 -0.0002 -0.0028 0.0006
C4D 0.0187 0.0084 0.0125 -0.0012 -0.0035 -0.0013
C5D 0.0144 0.0087 0.0069 0.0003 0.0021 -0.0013
Cu1A 0.00919 0.00597 0.00692 -0.00113 -0.00064 -0.00166
Cu1B 0.00919 0.00597 0.00692 0.00113 -0.00064 0.00166
Cu1C 0.00919 0.00597 0.00692 -0.00113 -0.00064 -0.00166
Cu1E 0.00919 0.00597 0.00692 -0.00113 -0.00064 -0.00166
Cu1F 0.00919 0.00597 0.00692 0.00113 -0.00064 0.00166
Cu1G 0.00919 0.00597 0.00692 -0.00113 -0.00064 -0.00166
O1A 0.0124 0.0201 0.0101 0.0032 0.0018 0.0041
O1E 0.0124 0.0201 0.0101 0.0032 0.0018 0.0041
O2C 0.018 0.0186 0.0117 0.0056 0.0039 0.0083
O2G 0.018 0.0186 0.0117 0.0056 0.0039 0.0083
O4B 0.0133 0.0091 0.0182 -0.0002 -0.0028 0.0006
O4F 0.0133 0.0091 0.0182 -0.0002 -0.0028 0.0006
O5 0.165(6) 0.165(6) 0.166(6) -0.003(2) 0.029(2) -0.002(2)
C14 0.22(2) 0.22(2) 0.22(2) 0.002(4) 0.038(5) 0.000(4)
O5D 0.165 0.165 0.166 -0.003 0.029 -0.002
loop_
_geom_bond_atom_site_label_1
_geom_bond_atom_site_label_2
_geom_bond_site_symmetry_1
_geom_bond_site_symmetry_2
Cu1 O3 1_555 1_555
O1 C1 1_555 1_555
C1 O2 1_555 1_555
O2 Cu1C 1_555 1_555
C2 C1 1_555 1_555
H1 C2 1_555 1_555
H2 C2 1_555 1_555
O3 C5 1_555 1_555
C3 C2 1_555 1_555
H3 C3 1_555 1_555
H4 C3 1_555 1_555
O4 C5 1_555 1_555
C4 C3 1_555 1_555
H5 C4 1_555 1_555
H6 C4 1_555 1_555
C5 C4 1_555 1_555
N1 Cu1 1_555 1_555
C6 N1 1_555 1_555
H7 C6 1_555 1_555
C7 C6 1_555 1_555
H8 C7 1_555 1_555
C8 H9 1_555 1_555
C9 N1 1_555 1_555
H10 C9 1_555 1_555
C10 C7 1_555 1_555
O5 C14 1_555 1_555
C14 O5D 1_555 1_555
N1D C6D 1_555 1_555
C6D H7D 1_555 1_555
C7D C6D 1_555 1_555
H8D C7D 1_555 1_555
C8D H9D 1_555 1_555
C9D N1D 1_555 1_555
H10D C9D 1_555 1_555
C10D C10 1_555 1_555
Cu1D N1D 1_555 1_555
O1D C1D 1_555 1_555
C1D O2D 1_555 1_555
O2D Cu1G 1_555 1_555
C2D C1D 1_555 1_555
H1D C2D 1_555 1_555
H2D C2D 1_555 1_555
O3D Cu1D 1_555 1_555
C3D C2D 1_555 1_555
H3D C3D 1_555 1_555
H4D C3D 1_555 1_555
O4D C5D 1_555 1_555
C4D C3D 1_555 1_555
H5D C4D 1_555 1_555
H6D C4D 1_555 1_555
C5D O3D 1_555 1_555
Cu1A O1D 1_555 1_555
Cu1B Cu1D 1_555 1_555
Cu1C Cu1E 1_555 1_555
Cu1E O1 1_555 1_555
Cu1F Cu1 1_555 1_555
Cu1G Cu1A 1_555 1_555
O1A Cu1D 1_555 1_555
O1E Cu1 1_555 1_555
O2C Cu1 1_555 1_555
O2G Cu1D 1_555 1_555
O4B Cu1D 1_555 1_555
O4F Cu1 1_555 1_555
O4 Cu1F 1_555 1_555
C8 C9 1_555 1_555
C8 C10 1_555 1_555
C7D C10D 1_555 1_555
C8D C9D 1_555 1_555
C8D C10D 1_555 1_555
O4D Cu1B 1_555 1_555
C4D C5D 1_555 1_555

#END
