
#######################################################################
#
#                 Cambridge Crystallographic Data Centre
#                                CCDC 
#
#######################################################################
#
# If this CIF has been generated from an entry in the Cambridge 
# Structural Database, then it will include bibliographic, chemical, 
# crystal, experimental, refinement or atomic coordinate data resulting 
# from the CCDC's data processing and validation procedures.
#
#######################################################################

data_OQIZUL
_chemical_formula_moiety         'C29 H18 Cu11 N4 O23 1+'
_symmetry_cell_setting           cubic
_symmetry_space_group_name_H-M   'F m -3 m'
_symmetry_Int_Tables_number      225
_space_group_name_Hall           '-F 4 2 3'
loop_
_symmetry_equiv_pos_site_id
_symmetry_equiv_pos_as_xyz
1 x,y,z
2 -x,-y,z
3 -x,y,-z
4 x,-y,-z
5 z,x,y
6 z,-x,-y
7 -z,-x,y
8 -z,x,-y
9 y,z,x
10 -y,z,-x
11 y,-z,-x
12 -y,-z,x
13 y,x,-z
14 -y,-x,-z
15 y,-x,z
16 -y,x,z
17 x,z,-y
18 -x,z,y
19 -x,-z,-y
20 x,-z,y
21 z,y,-x
22 z,-y,x
23 -z,y,x
24 -z,-y,-x
25 x,1/2+y,1/2+z
26 -x,1/2-y,1/2+z
27 -x,1/2+y,1/2-z
28 x,1/2-y,1/2-z
29 z,1/2+x,1/2+y
30 z,1/2-x,1/2-y
31 -z,1/2-x,1/2+y
32 -z,1/2+x,1/2-y
33 y,1/2+z,1/2+x
34 -y,1/2+z,1/2-x
35 y,1/2-z,1/2-x
36 -y,1/2-z,1/2+x
37 y,1/2+x,1/2-z
38 -y,1/2-x,1/2-z
39 y,1/2-x,1/2+z
40 -y,1/2+x,1/2+z
41 x,1/2+z,1/2-y
42 -x,1/2+z,1/2+y
43 -x,1/2-z,1/2-y
44 x,1/2-z,1/2+y
45 z,1/2+y,1/2-x
46 z,1/2-y,1/2+x
47 -z,1/2+y,1/2+x
48 -z,1/2-y,1/2-x
49 1/2+x,y,1/2+z
50 1/2-x,-y,1/2+z
51 1/2-x,y,1/2-z
52 1/2+x,-y,1/2-z
53 1/2+z,x,1/2+y
54 1/2+z,-x,1/2-y
55 1/2-z,-x,1/2+y
56 1/2-z,x,1/2-y
57 1/2+y,z,1/2+x
58 1/2-y,z,1/2-x
59 1/2+y,-z,1/2-x
60 1/2-y,-z,1/2+x
61 1/2+y,x,1/2-z
62 1/2-y,-x,1/2-z
63 1/2+y,-x,1/2+z
64 1/2-y,x,1/2+z
65 1/2+x,z,1/2-y
66 1/2-x,z,1/2+y
67 1/2-x,-z,1/2-y
68 1/2+x,-z,1/2+y
69 1/2+z,y,1/2-x
70 1/2+z,-y,1/2+x
71 1/2-z,y,1/2+x
72 1/2-z,-y,1/2-x
73 1/2+x,1/2+y,z
74 1/2-x,1/2-y,z
75 1/2-x,1/2+y,-z
76 1/2+x,1/2-y,-z
77 1/2+z,1/2+x,y
78 1/2+z,1/2-x,-y
79 1/2-z,1/2-x,y
80 1/2-z,1/2+x,-y
81 1/2+y,1/2+z,x
82 1/2-y,1/2+z,-x
83 1/2+y,1/2-z,-x
84 1/2-y,1/2-z,x
85 1/2+y,1/2+x,-z
86 1/2-y,1/2-x,-z
87 1/2+y,1/2-x,z
88 1/2-y,1/2+x,z
89 1/2+x,1/2+z,-y
90 1/2-x,1/2+z,y
91 1/2-x,1/2-z,-y
92 1/2+x,1/2-z,y
93 1/2+z,1/2+y,-x
94 1/2+z,1/2-y,x
95 1/2-z,1/2+y,x
96 1/2-z,1/2-y,-x
97 -x,-y,-z
98 x,y,-z
99 x,-y,z
100 -x,y,z
101 -z,-x,-y
102 -z,x,y
103 z,x,-y
104 z,-x,y
105 -y,-z,-x
106 y,-z,x
107 -y,z,x
108 y,z,-x
109 -y,-x,z
110 y,x,z
111 -y,x,-z
112 y,-x,-z
113 -x,-z,y
114 x,-z,-y
115 x,z,y
116 -x,z,-y
117 -z,-y,x
118 -z,y,-x
119 z,-y,-x
120 z,y,x
121 -x,1/2-y,1/2-z
122 x,1/2+y,1/2-z
123 x,1/2-y,1/2+z
124 -x,1/2+y,1/2+z
125 -z,1/2-x,1/2-y
126 -z,1/2+x,1/2+y
127 z,1/2+x,1/2-y
128 z,1/2-x,1/2+y
129 -y,1/2-z,1/2-x
130 y,1/2-z,1/2+x
131 -y,1/2+z,1/2+x
132 y,1/2+z,1/2-x
133 -y,1/2-x,1/2+z
134 y,1/2+x,1/2+z
135 -y,1/2+x,1/2-z
136 y,1/2-x,1/2-z
137 -x,1/2-z,1/2+y
138 x,1/2-z,1/2-y
139 x,1/2+z,1/2+y
140 -x,1/2+z,1/2-y
141 -z,1/2-y,1/2+x
142 -z,1/2+y,1/2-x
143 z,1/2-y,1/2-x
144 z,1/2+y,1/2+x
145 1/2-x,-y,1/2-z
146 1/2+x,y,1/2-z
147 1/2+x,-y,1/2+z
148 1/2-x,y,1/2+z
149 1/2-z,-x,1/2-y
150 1/2-z,x,1/2+y
151 1/2+z,x,1/2-y
152 1/2+z,-x,1/2+y
153 1/2-y,-z,1/2-x
154 1/2+y,-z,1/2+x
155 1/2-y,z,1/2+x
156 1/2+y,z,1/2-x
157 1/2-y,-x,1/2+z
158 1/2+y,x,1/2+z
159 1/2-y,x,1/2-z
160 1/2+y,-x,1/2-z
161 1/2-x,-z,1/2+y
162 1/2+x,-z,1/2-y
163 1/2+x,z,1/2+y
164 1/2-x,z,1/2-y
165 1/2-z,-y,1/2+x
166 1/2-z,y,1/2-x
167 1/2+z,-y,1/2-x
168 1/2+z,y,1/2+x
169 1/2-x,1/2-y,-z
170 1/2+x,1/2+y,-z
171 1/2+x,1/2-y,z
172 1/2-x,1/2+y,z
173 1/2-z,1/2-x,-y
174 1/2-z,1/2+x,y
175 1/2+z,1/2+x,-y
176 1/2+z,1/2-x,y
177 1/2-y,1/2-z,-x
178 1/2+y,1/2-z,x
179 1/2-y,1/2+z,x
180 1/2+y,1/2+z,-x
181 1/2-y,1/2-x,z
182 1/2+y,1/2+x,z
183 1/2-y,1/2+x,-z
184 1/2+y,1/2-x,-z
185 1/2-x,1/2-z,y
186 1/2+x,1/2-z,-y
187 1/2+x,1/2+z,y
188 1/2-x,1/2+z,-y
189 1/2-z,1/2-y,x
190 1/2-z,1/2+y,-x
191 1/2+z,1/2-y,-x
192 1/2+z,1/2+y,x
_cell_length_a                   26.446(3)
_cell_length_b                   26.446(3)
_cell_length_c                   26.446(3)
_cell_angle_alpha                90
_cell_angle_beta                 90
_cell_angle_gamma                90
_cell_volume                     18496.1
loop_
_atom_site_label
_atom_site_type_symbol
_atom_site_fract_x
_atom_site_fract_y
_atom_site_fract_z
Cu2 Cu 0.2500 0.2500 0.2500
N1 N 0.2061(2) 0.2061(2) 0.2061(2)
C5 C 0.1822(3) 0.1822(3) 0.1822(3)
C6 C 0.1507(3) 0.1507(3) 0.1507(3)
N1AA N 0.2061(2) 0.2939(2) 0.2939(2)
C5AA C 0.1822(3) 0.3178(3) 0.3178(3)
C6AA C 0.1507(3) 0.3493(3) 0.3493(3)
N1XA N 0.2939(2) 0.2061(2) 0.2939(2)
C5XA C 0.3178(3) 0.1822(3) 0.3178(3)
C6XA C 0.3493(3) 0.1507(3) 0.3493(3)
N1UB N 0.2939(2) 0.2939(2) 0.2061(2)
C5UB C 0.3178(3) 0.3178(3) 0.1822(3)
C6UB C 0.3493(3) 0.3493(3) 0.1507(3)
Cu1 Cu 0.214261(13) -0.0000 0.214261(13)
O1 O 0.18333(7) 0.05268(6) 0.25679(6)
O2 O 0.15699(13) -0.0000 0.15699(13)
C1 C 0.20338(9) 0.06947(13) 0.29662(9)
C2 C 0.1271(3) 0.0000 0.1271(3)
C3 C 0.17822(9) 0.11374(12) 0.32178(9)
C4 C 0.19939(12) 0.13517(9) 0.36483(9)
H1 H 0.2279 0.1206 0.3794
O1OD O 0.25679(6) 0.05268(6) 0.18333(7)
Cu1XA Cu 0.285739(13) -0.0000 0.285739(13)
O1U O 0.25679(6) -0.05268(6) 0.18333(7)
O1TC O 0.18333(7) -0.05268(6) 0.25679(6)
C1XA C 0.29662(9) 0.06947(13) 0.20338(9)
O1IF O 0.24321(6) 0.05268(6) 0.31667(7)
O1XA O 0.31667(7) 0.05268(6) 0.24321(6)
C3XA C 0.32178(9) 0.11374(12) 0.17822(9)
C4HA C 0.13517(9) 0.13517(9) 0.30061(12)
C4XA C 0.30061(12) 0.13517(9) 0.13517(9)
C4EC C 0.36483(9) 0.13517(9) 0.19939(12)
C3CB C 0.17822(9) 0.17822(9) 0.38626(12)
C3HA C 0.11374(12) 0.17822(9) 0.32178(9)
H1HA H 0.1206 0.1206 0.2721
C3D C 0.32178(9) 0.17822(9) 0.11374(12)
H1XA H 0.2721 0.1206 0.1206
C3EC C 0.38626(12) 0.17822(9) 0.17822(9)
H1EC H 0.3794 0.1206 0.2279
C1CB C 0.20338(9) 0.20338(9) 0.43053(13)
C4CB C 0.13517(9) 0.19939(12) 0.36483(9)
C1HA C 0.06947(13) 0.20338(9) 0.29662(9)
C1D C 0.29662(9) 0.20338(9) 0.06947(13)
C4D C 0.36483(9) 0.19939(12) 0.13517(9)
C1EC C 0.43053(13) 0.20338(9) 0.20338(9)
O1CB O 0.24321(6) 0.18333(7) 0.44732(6)
O1GE O 0.18333(7) 0.24321(6) 0.44732(6)
H1CB H 0.1206 0.2279 0.3794
O1HA O 0.05268(6) 0.24321(6) 0.31667(7)
O1ED O 0.05268(6) 0.18333(7) 0.25679(6)
O1D O 0.25679(6) 0.18333(7) 0.05268(6)
O1BG O 0.31667(7) 0.24321(6) 0.05268(6)
H1D H 0.3794 0.2279 0.1206
O1EC O 0.44732(6) 0.24321(6) 0.18333(7)
O1BF O 0.44732(6) 0.18333(7) 0.24321(6)
Cu1CB Cu 0.285739(13) 0.214261(13) 0.5000
Cu1CA Cu 0.214261(13) 0.285739(13) 0.5000
Cu1HA Cu -0.0000 0.285739(13) 0.285739(13)
Cu1H Cu -0.0000 0.214261(13) 0.214261(13)
Cu1D Cu 0.214261(13) 0.214261(13) 0.0000
Cu1ZB Cu 0.285739(13) 0.285739(13) 0.0000
Cu1EC Cu 0.5000 0.285739(13) 0.214261(13)
Cu1EB Cu 0.5000 0.214261(13) 0.285739(13)
O2H O -0.0000 0.15699(13) 0.15699(13)
O1H O 0.05268(6) 0.25679(6) 0.18333(7)
O1O O -0.05268(6) 0.18333(7) 0.25679(6)
O1BD O -0.05268(6) 0.25679(6) 0.18333(7)
O2D O 0.15699(13) 0.15699(13) 0.0000
O1P O 0.18333(7) 0.25679(6) -0.05268(6)
O1XC O 0.25679(6) 0.18333(7) -0.05268(6)
O1JD O 0.18333(7) 0.25679(6) 0.05268(6)
C2H C 0.0000 0.1271(3) 0.1271(3)
C2D C 0.1271(3) 0.1271(3) 0.0000
loop_
_geom_bond_atom_site_label_1
_geom_bond_atom_site_label_2
_geom_bond_site_symmetry_1
_geom_bond_site_symmetry_2
Cu1 O1 1_555 1_555
O1 C1 1_555 1_555
O2 Cu1 1_555 1_555
C1 C3 1_555 1_555
C2 O2 1_555 1_555
C3 C4 1_555 1_555
C4 H1 1_555 1_555
Cu2 N1 1_555 1_555
N1 C5 1_555 1_555
C5 C6 1_555 1_555
O1OD Cu1 1_555 1_555
Cu1XA Cu1 1_555 1_555
O1U Cu1 1_555 1_555
O1TC Cu1 1_555 1_555
C1XA O1OD 1_555 1_555
O1IF C1 1_555 1_555
O1XA Cu1XA 1_555 1_555
C3XA C1XA 1_555 1_555
C4HA C3 1_555 1_555
C4XA C3XA 1_555 1_555
C4EC C3XA 1_555 1_555
C3CB C4 1_555 1_555
C3HA C4HA 1_555 1_555
H1HA C4HA 1_555 1_555
C3D C4XA 1_555 1_555
H1XA C4XA 1_555 1_555
C3EC C4EC 1_555 1_555
H1EC C4EC 1_555 1_555
C1CB C3CB 1_555 1_555
C4CB C3CB 1_555 1_555
C1HA C3HA 1_555 1_555
C1D C3D 1_555 1_555
C4D C3D 1_555 1_555
C1EC C3EC 1_555 1_555
O1CB C1CB 1_555 1_555
O1GE C1CB 1_555 1_555
H1CB C4CB 1_555 1_555
O1HA C1HA 1_555 1_555
O1ED C1HA 1_555 1_555
O1D C1D 1_555 1_555
O1BG C1D 1_555 1_555
H1D C4D 1_555 1_555
O1EC C1EC 1_555 1_555
O1BF C1EC 1_555 1_555
Cu1CB O1CB 1_555 1_555
Cu1CA O1GE 1_555 1_555
Cu1HA O1HA 1_555 1_555
Cu1H O1ED 1_555 1_555
Cu1D O1D 1_555 1_555
Cu1ZB O1BG 1_555 1_555
Cu1EC O1EC 1_555 1_555
Cu1EB O1BF 1_555 1_555
O2H Cu1H 1_555 1_555
O1H Cu1H 1_555 1_555
O1O Cu1H 1_555 1_555
O1BD Cu1H 1_555 1_555
O2D Cu1D 1_555 1_555
O1P Cu1D 1_555 1_555
O1XC Cu1D 1_555 1_555
O1JD Cu1D 1_555 1_555
C2H O2H 1_555 1_555
C2D O2D 1_555 1_555
N1AA Cu2 1_555 1_555
C5AA N1AA 1_555 1_555
C6AA C5AA 1_555 1_555
N1XA Cu2 1_555 1_555
C5XA N1XA 1_555 1_555
C6XA C5XA 1_555 1_555
N1UB Cu2 1_555 1_555
C5UB N1UB 1_555 1_555
C6UB C5UB 1_555 1_555
Cu1XA O1IF 1_555 1_555
C1XA O1XA 1_555 1_555
C3HA C4CB 1_555 1_555
C3EC C4D 1_555 1_555
Cu1CB Cu1CA 1_555 1_555
Cu1HA Cu1H 1_555 1_555
Cu1D Cu1ZB 1_555 1_555
Cu1EC Cu1EB 1_555 1_555

#END
