
#######################################################################
#
#                 Cambridge Crystallographic Data Centre
#                                CCDC 
#
#######################################################################
#
# If this CIF has been generated from an entry in the Cambridge 
# Structural Database, then it will include bibliographic, chemical, 
# crystal, experimental, refinement or atomic coordinate data resulting 
# from the CCDC's data processing and validation procedures.
#
#######################################################################

data_GADNUX
_chemical_formula_moiety         '(C54 H33 Cu6 N9 O30)n'
_symmetry_cell_setting           tetragonal
_symmetry_space_group_name_H-M   'P 4/m n c'
_symmetry_Int_Tables_number      128
_space_group_name_Hall           '-P 4 2n'
loop_
_symmetry_equiv_pos_site_id
_symmetry_equiv_pos_as_xyz
1 x,y,z
2 -x,-y,z
3 -y,x,z
4 y,-x,z
5 1/2-x,1/2+y,1/2-z
6 1/2+x,1/2-y,1/2-z
7 1/2+y,1/2+x,1/2-z
8 1/2-y,1/2-x,1/2-z
9 -x,-y,-z
10 x,y,-z
11 y,-x,-z
12 -y,x,-z
13 1/2+x,1/2-y,1/2+z
14 1/2-x,1/2+y,1/2+z
15 1/2-y,1/2-x,1/2+z
16 1/2+y,1/2+x,1/2+z
_cell_length_a                   26.956(4)
_cell_length_b                   26.956(4)
_cell_length_c                   39.145(8)
_cell_angle_alpha                90
_cell_angle_beta                 90
_cell_angle_gamma                90
_cell_volume                     28443.8
loop_
_atom_site_label
_atom_site_type_symbol
_atom_site_fract_x
_atom_site_fract_y
_atom_site_fract_z
_atom_site_U_iso_or_equiv
_atom_site_thermal_displace_type
Cu1 Cu -0.12396(8) 0.36836(6) 0.0000 0.1117 Uani
Cu2 Cu -0.09331(8) 0.27444(6) 0.0000 0.1094 Uani
Cu3 Cu -0.24823(5) 0.12243(4) 0.19589(3) 0.0969 Uani
Cu4 Cu -0.18512(4) 0.09169(4) 0.14767(3) 0.0914 Uani
O1 O -0.1683(2) 0.3464(2) 0.03565(14) 0.0927 Uani
O2 O -0.1420(2) 0.2671(2) 0.03554(14) 0.0860 Uani
O3 O -0.2489(2) 0.18248(18) 0.16689(17) 0.0823 Uani
O4 O -0.1997(2) 0.1543(2) 0.12483(15) 0.0800 Uani
O5 O -0.2638(2) 0.5608(2) 0.28135(15) 0.0803 Uani
O6 O -0.3197(2) 0.5356(2) 0.32146(15) 0.0843 Uani
O7 O -0.3541(2) 0.3129(2) 0.28407(15) 0.0777 Uani
O8 O -0.3754(2) 0.36480(19) 0.32577(15) 0.0777 Uani
O9 O -0.0739(3) 0.3768(2) 0.03561(15) 0.0973 Uani
O10 O -0.0481(2) 0.2954(2) 0.03617(15) 0.0940 Uani
O11 O 0.0903(2) 0.2972(2) 0.16668(17) 0.0803 Uani
O12 O 0.0624(2) 0.2422(2) 0.12828(15) 0.0850 Uani
O13 O -0.1494(5) 0.4457(3) 0.0000 0.1643 Uani
O14 O -0.0685(4) 0.1984(3) 0.0000 0.1520 Uani
O15 O -0.2974(4) 0.1490(4) 0.2326(3) 0.2347 Uani
O16 O -0.1385(3) 0.0576(3) 0.1106(2) 0.1353 Uani
N1 N -0.2399(4) 0.4162(4) 0.1434(3) 0.1443 Uani
N2 N -0.2572(4) 0.4429(4) 0.1725(3) 0.1480 Uani
H1 H -0.2578 0.4745 0.1753 0.1780 Uiso
N3 N -0.2654(3) 0.3649(3) 0.1831(2) 0.0867 Uani
N4 N 0.0030(4) 0.4752(2) 0.1645(2) 0.1227 Uani
N5 N 0.0000 0.5000 0.1117(3) 0.0900 Uani
C1 C -0.2490(4) 0.3689(3) 0.1534(3) 0.1037 Uani
C2 C -0.2724(4) 0.4082(5) 0.1946(3) 0.1157 Uani
C3 C -0.2358(4) 0.3284(4) 0.1322(3) 0.0993 Uani
C4 C -0.2145(4) 0.3340(4) 0.0985(3) 0.1220 Uani
H2 H -0.2137 0.3653 0.0884 0.1460 Uiso
C5 C -0.1945(4) 0.2918(4) 0.0803(3) 0.1123 Uani
C6 C -0.2003(4) 0.2454(4) 0.0942(2) 0.0960 Uani
H3 H -0.1888 0.2183 0.0819 0.1150 Uiso
C7 C -0.2218(4) 0.2370(4) 0.1246(3) 0.0940 Uani
C8 C -0.2407(4) 0.2799(4) 0.1439(3) 0.1210 Uani
H4 H -0.2566 0.2744 0.1646 0.1450 Uiso
C9 C -0.1642(4) 0.3020(5) 0.0469(2) 0.0917 Uani
C10 C -0.2228(5) 0.1855(4) 0.1394(3) 0.0953 Uani
C11 C -0.2892(4) 0.4249(4) 0.2281(3) 0.0910 Uani
C12 C -0.2823(3) 0.4719(4) 0.2440(2) 0.0933 Uani
H5 H -0.2646 0.4969 0.2331 0.1120 Uiso
C13 C -0.3017(4) 0.4796(4) 0.2753(2) 0.0930 Uani
C14 C -0.3274(3) 0.4405(4) 0.2928(3) 0.0927 Uani
H6 H -0.3408 0.4460 0.3144 0.1110 Uiso
C15 C -0.3322(3) 0.3949(4) 0.2775(3) 0.0910 Uani
C16 C -0.3120(4) 0.3891(4) 0.2456(3) 0.0920 Uani
H7 H -0.3143 0.3580 0.2354 0.1110 Uiso
C17 C -0.2935(5) 0.5311(3) 0.2949(3) 0.0950 Uani
C18 C -0.3568(3) 0.3540(4) 0.2987(3) 0.0857 Uani
C19 C 0.0038(4) 0.4610(5) 0.1324(3) 0.1123 Uani
C20 C 0.0064(4) 0.4116(4) 0.1200(3) 0.0957 Uani
C21 C -0.0157(4) 0.4007(4) 0.0915(3) 0.0970 Uani
H8 H -0.0317 0.4261 0.0797 0.1160 Uiso
C22 C -0.0170(4) 0.3528(4) 0.0772(3) 0.1007 Uani
C23 C 0.0114(4) 0.3166(4) 0.0928(3) 0.0937 Uani
H9 H 0.0131 0.2854 0.0828 0.1130 Uiso
C24 C 0.0381(4) 0.3251(4) 0.1237(3) 0.1047 Uani
C25 C 0.0343(4) 0.3763(4) 0.1368(3) 0.1017 Uani
H10 H 0.0510 0.3849 0.1567 0.1220 Uiso
C26 C -0.0488(4) 0.3391(5) 0.0467(2) 0.0990 Uani
C27 C 0.0661(4) 0.2832(4) 0.1406(3) 0.0890 Uani
O9A O 0.0739(3) 0.6232(2) 0.03561(15) 0.0973 Uani
O10A O 0.0481(2) 0.7046(2) 0.03617(15) 0.0940 Uani
O11A O -0.0903(2) 0.7028(2) 0.16668(17) 0.0803 Uani
O12A O -0.0624(2) 0.7578(2) 0.12828(15) 0.0850 Uani
N4A N -0.0030(4) 0.5248(2) 0.1645(2) 0.1227 Uani
C19A C -0.0038(4) 0.5390(5) 0.1324(3) 0.1123 Uani
C20A C -0.0064(4) 0.5884(4) 0.1200(3) 0.0957 Uani
C21A C 0.0157(4) 0.5993(4) 0.0915(3) 0.0970 Uani
H8A H 0.0317 0.5739 0.0797 0.1160 Uiso
C22A C 0.0170(4) 0.6472(4) 0.0772(3) 0.1007 Uani
C23A C -0.0114(4) 0.6834(4) 0.0928(3) 0.0937 Uani
H9A H -0.0131 0.7146 0.0828 0.1130 Uiso
C24A C -0.0381(4) 0.6749(4) 0.1237(3) 0.1047 Uani
C25A C -0.0343(4) 0.6237(4) 0.1368(3) 0.1017 Uani
H10A H -0.0510 0.6151 0.1567 0.1220 Uiso
C26A C 0.0488(4) 0.6609(5) 0.0467(2) 0.0990 Uani
C27A C -0.0661(4) 0.7168(4) 0.1406(3) 0.0890 Uani
Cu3I Cu -0.24823(5) 0.12243(4) -0.19589(3) 0.0969 Uani
Cu4I Cu -0.18512(4) 0.09169(4) -0.14767(3) 0.0914 Uani
O1I O -0.1683(2) 0.3464(2) -0.03565(14) 0.0927 Uani
O2I O -0.1420(2) 0.2671(2) -0.03554(14) 0.0860 Uani
O3I O -0.2489(2) 0.18248(18) -0.16689(17) 0.0823 Uani
O4I O -0.1997(2) 0.1543(2) -0.12483(15) 0.0800 Uani
O5I O -0.2638(2) 0.5608(2) -0.28135(15) 0.0803 Uani
O6I O -0.3197(2) 0.5356(2) -0.32146(15) 0.0843 Uani
O7I O -0.3541(2) 0.3129(2) -0.28407(15) 0.0777 Uani
O8I O -0.3754(2) 0.36480(19) -0.32577(15) 0.0777 Uani
O15I O -0.2974(4) 0.1490(4) -0.2326(3) 0.2347 Uani
O16I O -0.1385(3) 0.0576(3) -0.1106(2) 0.1353 Uani
N1I N -0.2399(4) 0.4162(4) -0.1434(3) 0.1443 Uani
N2I N -0.2572(4) 0.4429(4) -0.1725(3) 0.1480 Uani
H1I H -0.2578 0.4745 -0.1753 0.1780 Uiso
N3I N -0.2654(3) 0.3649(3) -0.1831(2) 0.0867 Uani
C1I C -0.2490(4) 0.3689(3) -0.1534(3) 0.1037 Uani
C2I C -0.2724(4) 0.4082(5) -0.1946(3) 0.1157 Uani
C3I C -0.2358(4) 0.3284(4) -0.1322(3) 0.0993 Uani
C4I C -0.2145(4) 0.3340(4) -0.0985(3) 0.1220 Uani
H2I H -0.2137 0.3653 -0.0884 0.1460 Uiso
C5I C -0.1945(4) 0.2918(4) -0.0803(3) 0.1123 Uani
C6I C -0.2003(4) 0.2454(4) -0.0942(2) 0.0960 Uani
H3I H -0.1888 0.2183 -0.0819 0.1150 Uiso
C7I C -0.2218(4) 0.2370(4) -0.1246(3) 0.0940 Uani
C8I C -0.2407(4) 0.2799(4) -0.1439(3) 0.1210 Uani
H4I H -0.2566 0.2744 -0.1646 0.1450 Uiso
C9I C -0.1642(4) 0.3020(5) -0.0469(2) 0.0917 Uani
C10I C -0.2228(5) 0.1855(4) -0.1394(3) 0.0953 Uani
C11I C -0.2892(4) 0.4249(4) -0.2281(3) 0.0910 Uani
C12I C -0.2823(3) 0.4719(4) -0.2440(2) 0.0933 Uani
H5I H -0.2646 0.4969 -0.2331 0.1120 Uiso
C13I C -0.3017(4) 0.4796(4) -0.2753(2) 0.0930 Uani
C14I C -0.3274(3) 0.4405(4) -0.2928(3) 0.0927 Uani
H6I H -0.3408 0.4460 -0.3144 0.1110 Uiso
C15I C -0.3322(3) 0.3949(4) -0.2775(3) 0.0910 Uani
C16I C -0.3120(4) 0.3891(4) -0.2456(3) 0.0920 Uani
H7I H -0.3143 0.3580 -0.2354 0.1110 Uiso
C17I C -0.2935(5) 0.5311(3) -0.2949(3) 0.0950 Uani
C18I C -0.3568(3) 0.3540(4) -0.2987(3) 0.0857 Uani
Cu1A Cu 0.12396(8) 0.63164(6) 0.0000 0.1117 Uani
Cu2A Cu 0.09331(8) 0.72556(6) 0.0000 0.1094 Uani
Cu3B Cu -0.12243(4) 0.75177(5) 0.19589(3) 0.0969 Uani
Cu3C Cu 0.12243(4) 0.24823(5) 0.19589(3) 0.0969 Uani
Cu3D Cu -0.25177(5) 0.62243(4) 0.30411(3) 0.0969 Uani
Cu3F Cu -0.37757(4) 0.25177(5) 0.30411(3) 0.0969 Uani
Cu3M Cu -0.25177(5) 0.62243(4) -0.30411(3) 0.0969 Uani
Cu3O Cu -0.37757(4) 0.25177(5) -0.30411(3) 0.0969 Uani
Cu4B Cu -0.09169(4) 0.81488(4) 0.14767(3) 0.0914 Uani
Cu4C Cu 0.09169(4) 0.18512(4) 0.14767(3) 0.0914 Uani
Cu4D Cu -0.31488(4) 0.59169(4) 0.35233(3) 0.0914 Uani
Cu4F Cu -0.40831(4) 0.31488(4) 0.35233(3) 0.0914 Uani
Cu4M Cu -0.31488(4) 0.59169(4) -0.35233(3) 0.0914 Uani
Cu4O Cu -0.40831(4) 0.31488(4) -0.35233(3) 0.0914 Uani
O5D O -0.2362(2) 0.0608(2) 0.21865(15) 0.0803 Uani
O5M O -0.2362(2) 0.0608(2) -0.21865(15) 0.0803 Uani
O6D O -0.1803(2) 0.0356(2) 0.17854(15) 0.0843 Uani
O6M O -0.1803(2) 0.0356(2) -0.17854(15) 0.0843 Uani
O7F O -0.1871(2) 0.1459(2) 0.21593(15) 0.0777 Uani
O7O O -0.1871(2) 0.1459(2) -0.21593(15) 0.0777 Uani
O8F O -0.13520(19) 0.1246(2) 0.17423(15) 0.0777 Uani
O8O O -0.13520(19) 0.1246(2) -0.17423(15) 0.0777 Uani
O9I O -0.0739(3) 0.3768(2) -0.03561(15) 0.0973 Uani
O10I O -0.0481(2) 0.2954(2) -0.03617(15) 0.0940 Uani
O11B O -0.2972(2) 0.0903(2) 0.16668(17) 0.0803 Uani
O11K O -0.2972(2) 0.0903(2) -0.16668(17) 0.0803 Uani
O12B O -0.2422(2) 0.0624(2) 0.12828(15) 0.0850 Uani
O12K O -0.2422(2) 0.0624(2) -0.12828(15) 0.0850 Uani
loop_
_atom_site_aniso_label
_atom_site_aniso_U_11
_atom_site_aniso_U_22
_atom_site_aniso_U_33
_atom_site_aniso_U_23
_atom_site_aniso_U_13
_atom_site_aniso_U_12
Cu1 0.185(2) 0.0757(12) 0.0744(12) 0.000 0.000 0.0316(11)
Cu2 0.1770(19) 0.0760(12) 0.0752(12) 0.000 0.000 0.0290(11)
Cu3 0.1046(10) 0.0997(10) 0.0863(9) -0.0103(7) 0.0226(7) -0.0039(7)
Cu4 0.0987(9) 0.0902(9) 0.0854(9) -0.0104(7) 0.0202(7) -0.0090(6)
O1 0.144(6) 0.069(4) 0.065(4) 0.016(3) 0.021(4) 0.036(4)
O2 0.152(6) 0.048(4) 0.058(4) -0.011(3) 0.019(4) 0.025(3)
O3 0.108(5) 0.050(4) 0.089(5) -0.004(3) 0.009(4) 0.012(3)
O4 0.116(5) 0.046(4) 0.078(4) -0.013(3) 0.019(3) 0.007(3)
O5 0.093(4) 0.056(4) 0.092(4) -0.006(3) 0.028(3) -0.018(3)
O6 0.126(5) 0.063(4) 0.064(4) -0.020(3) 0.037(4) 0.010(3)
O7 0.075(4) 0.077(4) 0.081(4) -0.010(4) 0.021(3) -0.017(3)
O8 0.087(4) 0.078(4) 0.068(4) -0.011(3) 0.031(3) -0.015(3)
O9 0.157(6) 0.063(4) 0.072(4) 0.001(3) -0.029(4) 0.024(4)
O10 0.150(6) 0.054(4) 0.078(4) -0.019(3) -0.026(4) 0.023(4)
O11 0.090(4) 0.068(4) 0.083(4) -0.007(3) -0.006(4) 0.011(3)
O12 0.112(5) 0.056(4) 0.087(4) -0.015(3) -0.005(3) 0.027(3)
O13 0.238(12) 0.053(6) 0.202(12) 0.000 0.000 0.076(7)
O14 0.159(9) 0.056(6) 0.241(14) 0.000 0.000 0.050(6)
O15 0.253(11) 0.275(12) 0.176(9) -0.024(8) 0.115(9) 0.146(10)
O16 0.135(3) 0.137(3) 0.134(3) -0.0009(10) 0.0015(10) 0.0041(10)
N1 0.146(4) 0.144(4) 0.143(4) -0.0007(10) 0.0017(10) 0.0006(10)
N2 0.149(4) 0.147(4) 0.148(4) -0.0007(10) 0.0014(10) 0.0009(10)
N3 0.134(7) 0.055(5) 0.071(6) -0.007(4) 0.030(5) 0.017(4)
N4 0.188(9) 0.069(5) 0.111(7) 0.007(5) 0.008(7) 0.022(6)
N5 0.125(9) 0.072(8) 0.073(7) 0.000 0.000 0.014(7)
C1 0.181(11) 0.068(7) 0.062(7) -0.014(6) 0.019(7) 0.006(6)
C2 0.150(10) 0.119(10) 0.078(8) 0.053(8) 0.036(7) 0.012(8)
C3 0.122(8) 0.107(9) 0.069(7) 0.002(7) 0.019(6) 0.003(6)
C4 0.189(11) 0.097(8) 0.080(8) 0.013(6) -0.008(8) 0.041(8)
C5 0.165(10) 0.094(8) 0.078(8) -0.029(7) -0.018(7) 0.037(7)
C6 0.163(10) 0.070(7) 0.055(6) -0.015(5) 0.000(6) 0.016(6)
C7 0.102(7) 0.111(9) 0.069(7) -0.031(7) 0.000(6) 0.007(6)
C8 0.157(10) 0.101(9) 0.105(8) 0.031(8) 0.043(7) 0.005(7)
C9 0.130(9) 0.093(9) 0.052(6) 0.001(6) -0.005(6) -0.013(7)
C10 0.138(10) 0.066(8) 0.082(8) 0.015(7) -0.020(7) -0.023(7)
C11 0.135(9) 0.068(7) 0.070(7) 0.017(6) 0.041(6) 0.004(6)
C12 0.112(8) 0.109(9) 0.059(6) 0.004(6) 0.026(6) 0.008(6)
C13 0.098(7) 0.107(8) 0.074(7) 0.019(6) -0.003(6) 0.008(6)
C14 0.077(7) 0.119(9) 0.082(6) 0.010(7) 0.016(5) 0.004(6)
C15 0.094(7) 0.089(8) 0.090(8) -0.026(7) -0.007(6) 0.011(6)
C16 0.107(8) 0.100(8) 0.069(7) -0.011(6) 0.003(6) 0.011(6)
C17 0.130(10) 0.046(6) 0.109(9) -0.026(6) -0.044(8) 0.032(6)
C18 0.070(7) 0.099(9) 0.088(8) 0.013(7) -0.006(6) -0.032(6)
C19 0.116(9) 0.142(12) 0.079(8) -0.018(8) 0.002(7) 0.036(8)
C20 0.126(9) 0.077(8) 0.084(8) 0.012(7) -0.012(7) 0.037(7)
C21 0.137(9) 0.073(8) 0.081(7) 0.004(6) -0.001(7) 0.020(6)
C22 0.126(9) 0.098(9) 0.078(7) 0.004(7) 0.003(6) 0.014(7)
C23 0.108(8) 0.088(7) 0.085(7) -0.003(6) 0.013(6) 0.021(6)
C24 0.120(8) 0.112(9) 0.082(7) -0.014(7) 0.014(7) 0.001(7)
C25 0.118(8) 0.091(8) 0.096(8) -0.024(7) 0.046(7) -0.024(7)
C26 0.123(9) 0.124(10) 0.050(6) 0.011(7) -0.014(6) -0.023(8)
C27 0.092(7) 0.093(8) 0.082(8) 0.020(7) 0.003(6) 0.033(7)
O9A 0.157 0.063 0.072 -0.001 0.029 0.024
O10A 0.15 0.054 0.078 0.019 0.026 0.023
O11A 0.09 0.068 0.083 0.007 0.006 0.011
O12A 0.112 0.056 0.087 0.015 0.005 0.027
N4A 0.188 0.069 0.111 -0.007 -0.008 0.022
C19A 0.116 0.142 0.079 0.018 -0.002 0.036
C20A 0.126 0.077 0.084 -0.012 0.012 0.037
C21A 0.137 0.073 0.081 -0.004 0.001 0.02
C22A 0.126 0.098 0.078 -0.004 -0.003 0.014
C23A 0.108 0.088 0.085 0.003 -0.013 0.021
C24A 0.12 0.112 0.082 0.014 -0.014 0.001
C25A 0.118 0.091 0.096 0.024 -0.046 -0.024
C26A 0.123 0.124 0.05 -0.011 0.014 -0.023
C27A 0.092 0.093 0.082 -0.02 -0.003 0.033
Cu3I 0.1046 0.0997 0.0863 0.0103 -0.0226 -0.0039
Cu4I 0.0987 0.0902 0.0854 0.0104 -0.0202 -0.009
O1I 0.144 0.069 0.065 -0.016 -0.021 0.036
O2I 0.152 0.048 0.058 0.011 -0.019 0.025
O3I 0.108 0.05 0.089 0.004 -0.009 0.012
O4I 0.116 0.046 0.078 0.013 -0.019 0.007
O5I 0.093 0.056 0.092 0.006 -0.028 -0.018
O6I 0.126 0.063 0.064 0.02 -0.037 0.01
O7I 0.075 0.077 0.081 0.01 -0.021 -0.017
O8I 0.087 0.078 0.068 0.011 -0.031 -0.015
O15I 0.253 0.275 0.176 0.024 -0.115 0.146
O16I 0.135 0.137 0.134 0.0009 -0.0015 0.0041
N1I 0.146 0.144 0.143 0.0007 -0.0017 0.0006
N2I 0.149 0.147 0.148 0.0007 -0.0014 0.0009
N3I 0.134 0.055 0.071 0.007 -0.03 0.017
C1I 0.181 0.068 0.062 0.014 -0.019 0.006
C2I 0.15 0.119 0.078 -0.053 -0.036 0.012
C3I 0.122 0.107 0.069 -0.002 -0.019 0.003
C4I 0.189 0.097 0.08 -0.013 0.008 0.041
C5I 0.165 0.094 0.078 0.029 0.018 0.037
C6I 0.163 0.07 0.055 0.015 0 0.016
C7I 0.102 0.111 0.069 0.031 0 0.007
C8I 0.157 0.101 0.105 -0.031 -0.043 0.005
C9I 0.13 0.093 0.052 -0.001 0.005 -0.013
C10I 0.138 0.066 0.082 -0.015 0.02 -0.023
C11I 0.135 0.068 0.07 -0.017 -0.041 0.004
C12I 0.112 0.109 0.059 -0.004 -0.026 0.008
C13I 0.098 0.107 0.074 -0.019 0.003 0.008
C14I 0.077 0.119 0.082 -0.01 -0.016 0.004
C15I 0.094 0.089 0.09 0.026 0.007 0.011
C16I 0.107 0.1 0.069 0.011 -0.003 0.011
C17I 0.13 0.046 0.109 0.026 0.044 0.032
C18I 0.07 0.099 0.088 -0.013 0.006 -0.032
Cu1A 0.185 0.0757 0.0744 0 0 0.0316
Cu2A 0.177 0.076 0.0752 0 0 0.029
Cu3B 0.0997 0.1046 0.0863 0.0226 0.0103 0.0039
Cu3C 0.0997 0.1046 0.0863 -0.0226 -0.0103 0.0039
Cu3D 0.1046 0.0997 0.0863 0.0103 0.0226 0.0039
Cu3F 0.0997 0.1046 0.0863 -0.0226 0.0103 -0.0039
Cu3M 0.1046 0.0997 0.0863 -0.0103 -0.0226 0.0039
Cu3O 0.0997 0.1046 0.0863 0.0226 -0.0103 -0.0039
Cu4B 0.0902 0.0987 0.0854 0.0202 0.0104 0.009
Cu4C 0.0902 0.0987 0.0854 -0.0202 -0.0104 0.009
Cu4D 0.0987 0.0902 0.0854 0.0104 0.0202 0.009
Cu4F 0.0902 0.0987 0.0854 -0.0202 0.0104 -0.009
Cu4M 0.0987 0.0902 0.0854 -0.0104 -0.0202 0.009
Cu4O 0.0902 0.0987 0.0854 0.0202 -0.0104 -0.009
O5D 0.093 0.056 0.092 0.006 0.028 0.018
O5M 0.093 0.056 0.092 -0.006 -0.028 0.018
O6D 0.126 0.063 0.064 0.02 0.037 -0.01
O6M 0.126 0.063 0.064 -0.02 -0.037 -0.01
O7F 0.077 0.075 0.081 -0.021 0.01 -0.017
O7O 0.077 0.075 0.081 0.021 -0.01 -0.017
O8F 0.078 0.087 0.068 -0.031 0.011 -0.015
O8O 0.078 0.087 0.068 0.031 -0.011 -0.015
O9I 0.157 0.063 0.072 -0.001 0.029 0.024
O10I 0.15 0.054 0.078 0.019 0.026 0.023
O11B 0.068 0.09 0.083 -0.006 0.007 -0.011
O11K 0.068 0.09 0.083 0.006 -0.007 -0.011
O12B 0.056 0.112 0.087 -0.005 0.015 -0.027
O12K 0.056 0.112 0.087 0.005 -0.015 -0.027
loop_
_geom_bond_atom_site_label_1
_geom_bond_atom_site_label_2
_geom_bond_site_symmetry_1
_geom_bond_site_symmetry_2
Cu1 O1 1_555 1_555
Cu2 O2 1_555 1_555
Cu3 O3 1_555 1_555
Cu4 O4 1_555 1_555
O1 C9 1_555 1_555
O2 C9 1_555 1_555
O3 C10 1_555 1_555
O4 C10 1_555 1_555
O5 C17 1_555 1_555
O6 C17 1_555 1_555
O7 C18 1_555 1_555
O8 C18 1_555 1_555
O9 Cu1 1_555 1_555
O10 Cu2 1_555 1_555
O11 C27 1_555 1_555
O12 C27 1_555 1_555
O13 Cu1 1_555 1_555
O14 Cu2 1_555 1_555
O15 Cu3 1_555 1_555
O16 Cu4 1_555 1_555
N1 N2 1_555 1_555
N2 H1 1_555 1_555
N3 C1 1_555 1_555
N4 C19 1_555 1_555
N5 C19 1_555 1_555
C1 N1 1_555 1_555
C2 N2 1_555 1_555
C3 C1 1_555 1_555
C4 C3 1_555 1_555
H2 C4 1_555 1_555
C5 C4 1_555 1_555
C6 C5 1_555 1_555
H3 C6 1_555 1_555
C7 C6 1_555 1_555
C8 C3 1_555 1_555
H4 C8 1_555 1_555
C9 C5 1_555 1_555
C10 C7 1_555 1_555
C11 C2 1_555 1_555
C12 C11 1_555 1_555
H5 C12 1_555 1_555
C13 C12 1_555 1_555
C14 C13 1_555 1_555
H6 C14 1_555 1_555
C15 C14 1_555 1_555
C16 C11 1_555 1_555
H7 C16 1_555 1_555
C17 C13 1_555 1_555
C18 C15 1_555 1_555
C19 C20 1_555 1_555
C20 C21 1_555 1_555
C21 H8 1_555 1_555
C22 C21 1_555 1_555
C23 C22 1_555 1_555
H9 C23 1_555 1_555
C24 C23 1_555 1_555
C25 C20 1_555 1_555
H10 C25 1_555 1_555
C26 O9 1_555 1_555
C27 C24 1_555 1_555
O9A C26A 1_555 1_555
O10A C26A 1_555 1_555
O11A C27A 1_555 1_555
O12A C27A 1_555 1_555
N4A N4 1_555 1_555
C19A N5 1_555 1_555
C20A C19A 1_555 1_555
C21A C20A 1_555 1_555
H8A C21A 1_555 1_555
C22A C21A 1_555 1_555
C23A C22A 1_555 1_555
H9A C23A 1_555 1_555
C24A C23A 1_555 1_555
C25A C20A 1_555 1_555
H10A C25A 1_555 1_555
C26A C22A 1_555 1_555
C27A C24A 1_555 1_555
Cu3I O3I 1_555 1_555
Cu4I O4I 1_555 1_555
O1I Cu1 1_555 1_555
O2I Cu2 1_555 1_555
O3I C10I 1_555 1_555
O4I C10I 1_555 1_555
O5I C17I 1_555 1_555
O6I C17I 1_555 1_555
O7I C18I 1_555 1_555
O8I C18I 1_555 1_555
O15I Cu3I 1_555 1_555
O16I Cu4I 1_555 1_555
N1I N2I 1_555 1_555
N2I H1I 1_555 1_555
N3I C1I 1_555 1_555
C1I N1I 1_555 1_555
C2I N2I 1_555 1_555
C3I C1I 1_555 1_555
C4I C3I 1_555 1_555
H2I C4I 1_555 1_555
C5I C4I 1_555 1_555
C6I C5I 1_555 1_555
H3I C6I 1_555 1_555
C7I C6I 1_555 1_555
C8I C3I 1_555 1_555
H4I C8I 1_555 1_555
C9I O1I 1_555 1_555
C10I C7I 1_555 1_555
C11I C2I 1_555 1_555
C12I C11I 1_555 1_555
H5I C12I 1_555 1_555
C13I C12I 1_555 1_555
C14I C13I 1_555 1_555
H6I C14I 1_555 1_555
C15I C14I 1_555 1_555
C16I C11I 1_555 1_555
H7I C16I 1_555 1_555
C17I C13I 1_555 1_555
C18I C15I 1_555 1_555
Cu1A O9A 1_555 1_555
Cu2A O10A 1_555 1_555
Cu3B O11A 1_555 1_555
Cu3C O11 1_555 1_555
Cu3D O5 1_555 1_555
Cu3F O7 1_555 1_555
Cu3M O5I 1_555 1_555
Cu3O O7I 1_555 1_555
Cu4B O12A 1_555 1_555
Cu4C O12 1_555 1_555
Cu4D O6 1_555 1_555
Cu4F O8 1_555 1_555
Cu4M O6I 1_555 1_555
Cu4O O8I 1_555 1_555
O5D Cu3 1_555 1_555
O5M Cu3I 1_555 1_555
O6D Cu4 1_555 1_555
O6M Cu4I 1_555 1_555
O7F Cu3 1_555 1_555
O7O Cu3I 1_555 1_555
O8F Cu4 1_555 1_555
O8O Cu4I 1_555 1_555
O9I Cu1 1_555 1_555
O10I Cu2 1_555 1_555
O11B Cu3 1_555 1_555
O11K Cu3I 1_555 1_555
O12B Cu4 1_555 1_555
O12K Cu4I 1_555 1_555
O10 C26 1_555 1_555
N3 C2 1_555 1_555
C7 C8 1_555 1_555
C15 C16 1_555 1_555
C22 C26 1_555 1_555
C24 C25 1_555 1_555
N4A C19A 1_555 1_555
C24A C25A 1_555 1_555
O2I C9I 1_555 1_555
N3I C2I 1_555 1_555
C5I C9I 1_555 1_555
C7I C8I 1_555 1_555
C15I C16I 1_555 1_555

#END
