
#######################################################################
#
#                 Cambridge Crystallographic Data Centre
#                                CCDC 
#
#######################################################################
#
# If this CIF has been generated from an entry in the Cambridge 
# Structural Database, then it will include bibliographic, chemical, 
# crystal, experimental, refinement or atomic coordinate data resulting 
# from the CCDC's data processing and validation procedures.
#
#######################################################################

data_NUYNAY
_chemical_formula_moiety         '(C48 H64 O32 Ti6)n'
_symmetry_cell_setting           trigonal
_symmetry_space_group_name_H-M   'P 3'
_symmetry_Int_Tables_number      143
_space_group_name_Hall           'P 3'
loop_
_symmetry_equiv_pos_site_id
_symmetry_equiv_pos_as_xyz
1 x,y,z
2 -x+y,-x,z
3 -y,x-y,z
_cell_length_a                   11.69182(64)
_cell_length_b                   11.69182(64)
_cell_length_c                   13.8937(12)
_cell_angle_alpha                90
_cell_angle_beta                 90
_cell_angle_gamma                120
_cell_volume                     1644.8
loop_
_atom_site_label
_atom_site_type_symbol
_atom_site_fract_x
_atom_site_fract_y
_atom_site_fract_z
_atom_site_U_iso_or_equiv
_atom_site_thermal_displace_type
Ti1 Ti 0.50222(51) 0.18541(59) 0.33954(40) 0.0732 Uiso
Ti2 Ti 0.52601(72) 0.75748(72) 0.83941(47) 0.1013 Uiso
O1 O 0.31811(73) 0.0654(11) 0.33547(84) 0.1013 Uiso
O2 O 0.69747(43) 0.79617(96) 0.86610(89) 0.0013 Uiso
O3 O 0.49607(51) 0.58217(44) 0.77594(40) 0.1013 Uiso
O4 O 0.44321(54) 0.26530(42) 0.44215(46) 0.0241 Uiso
O5 O 0.27530(47) 0.44675(73) 0.70826(57) 0.1013 Uiso
O6 O 0.56912(40) 0.46938(44) 0.44127(40) 0.0013 Uiso
O7 O 0.47220(44) 0.67679(38) 0.95422(36) 0.1013 Uiso
O8 O 0.46704(99) 0.24305(55) 1.22840(65) 0.0583 Uiso
O9 O 0.38707(53) 0.47570(78) 0.88495(41) 0.1013 Uiso
O10 O 0.53363(70) 0.45961(64) 1.26160(54) 0.1013 Uiso
C1 C 0.45667(50) 0.37945(72) 0.4549(10) 0.0709 Uiso
C2 C 0.39952(74) 0.50179(64) 0.72811(66) 0.0101 Uiso
C3 C 0.32975 0.37092 0.4836 0.1013 Uiso
C4 C 0.4535 0.43161 0.66332 0.1013 Uiso
C5 C 0.37426 0.50796 0.51891 0.1013 Uiso
C6 C 0.34446 0.28729 0.64496 0.1013 Uiso
C7 C 0.48833 0.54335 0.58692 0.0013 Uiso
C8 C 0.25125 0.27553 0.56392 0.1013 Uiso
C9 C 0.58904 0.44705 1.0171 0.0013 Uiso
C10 C 0.3931 0.33823 1.11772 0.0266 Uiso
C11 C 0.45617 0.32244 1.02734 0.0228 Uiso
C12 C 0.35579 0.44461 1.11582 0.1013 Uiso
C13 C 0.48451 0.5723 1.10616 0.1013 Uiso
C14 C 0.56345 0.56272 1.01346 0.0507 Uiso
C15 C 0.46195(81) 0.56337(60) 0.93953(56) 0.1013 Uiso
C16 C 0.47501(80) 0.35543(56) 1.21212(42) 0.0013 Uiso
O11 O 0.333333 0.666667 0.80382(57) 0.1013 Uiso
O12 O 0.666667 0.333333 0.3355(13) 0.0013 Uiso
Ti1A Ti -0.31681(78) 0.49778(51) 0.33954(40) 0.0732 Uiso
Ti2A Ti 0.2315(10) 0.47399(72) 0.83941(47) 0.1013 Uiso
O1A O -0.2527(13) 0.68189(73) 0.33547(84) 0.1013 Uiso
O2A O 0.0987(11) 0.30253(43) 0.86610(89) 0.0013 Uiso
O3A O 0.08610(67) 0.50393(51) 0.77594(40) 0.1013 Uiso
O4A O -0.17791(68) 0.55679(54) 0.44215(46) 0.0241 Uiso
O5A O 0.17145(87) 0.72470(47) 0.70826(57) 0.1013 Uiso
O6A O -0.09974(59) 0.43088(40) 0.44127(40) 0.0013 Uiso
O7A O 0.20459(58) 0.52780(44) 0.95422(36) 0.1013 Uiso
O8A O -0.2240(11) 0.53296(99) 1.22840(65) 0.0583 Uiso
O9A O 0.08863(94) 0.61293(53) 0.88495(41) 0.1013 Uiso
O10A O -0.07402(95) 0.46637(70) 1.26160(54) 0.1013 Uiso
C1A C -0.07722(88) 0.54333(50) 0.4549(10) 0.0709 Uiso
C2A C 0.10227(98) 0.60048(74) 0.72811(66) 0.0101 Uiso
C3A C 0.04117 0.67025 0.4836 0.1013 Uiso
C4A C -0.02189 0.5465 0.66332 0.1013 Uiso
C5A C 0.13370 0.62574 0.51891 0.1013 Uiso
C6A C -0.05717 0.65554 0.64496 0.1013 Uiso
C7A C 0.05502 0.51167 0.58692 0.0013 Uiso
C8A C 0.02428 0.74875 0.56392 0.1013 Uiso
C9A C -0.14199 0.41096 1.0171 0.0013 Uiso
C10A C -0.05487 0.6069 1.11772 0.0266 Uiso
C11A C -0.13373 0.54383 1.02734 0.0228 Uiso
C12A C 0.08882 0.64421 1.11582 0.1013 Uiso
C13A C 0.08779 0.51549 1.10616 0.1013 Uiso
C14A C -0.00073 0.43655 1.01346 0.0507 Uiso
C15A C 0.1014(10) 0.53805(81) 0.93953(56) 0.1013 Uiso
C16A C -0.11958(98) 0.52499(80) 1.21212(42) 0.0013 Uiso
Ti1B Ti 0.81459(59) 0.31681(78) 0.33954(40) 0.0732 Uiso
Ti2B Ti 0.24252(72) -0.2315(10) 0.83941(47) 0.1013 Uiso
O1B O 0.9346(11) 0.2527(13) 0.33547(84) 0.1013 Uiso
O2B O 0.20383(96) -0.0987(11) 0.86610(89) 0.0013 Uiso
O3B O 0.41783(44) -0.08610(67) 0.77594(40) 0.1013 Uiso
O4B O 0.73470(42) 0.17791(68) 0.44215(46) 0.0241 Uiso
O5B O 0.55325(73) -0.17145(87) 0.70826(57) 0.1013 Uiso
O6B O 0.53062(44) 0.09974(59) 0.44127(40) 0.0013 Uiso
O7B O 0.32321(38) -0.20459(58) 0.95422(36) 0.1013 Uiso
O8B O 0.75695(55) 0.2240(11) 1.22840(65) 0.0583 Uiso
O9B O 0.52430(78) -0.08863(94) 0.88495(41) 0.1013 Uiso
O10B O 0.54039(64) 0.07402(95) 1.26160(54) 0.1013 Uiso
C1B C 0.62055(72) 0.07722(88) 0.4549(10) 0.0709 Uiso
C2B C 0.49821(64) -0.10227(98) 0.72811(66) 0.0101 Uiso
C3B C 0.62908 -0.04117 0.4836 0.1013 Uiso
C4B C 0.56839 0.02189 0.66332 0.1013 Uiso
C5B C 0.49204 -0.13370 0.51891 0.1013 Uiso
C6B C 0.71271 0.05717 0.64496 0.1013 Uiso
C7B C 0.45665 -0.05502 0.58692 0.0013 Uiso
C8B C 0.72447 -0.02428 0.56392 0.1013 Uiso
C9B C 0.55295 0.14199 1.0171 0.0013 Uiso
C10B C 0.66177 0.05487 1.11772 0.0266 Uiso
C11B C 0.67756 0.13373 1.02734 0.0228 Uiso
C12B C 0.55539 -0.08882 1.11582 0.1013 Uiso
C13B C 0.4277 -0.08779 1.10616 0.1013 Uiso
C14B C 0.43728 0.00073 1.01346 0.0507 Uiso
C15B C 0.43663(60) -0.1014(10) 0.93953(56) 0.1013 Uiso
C16B C 0.64457(56) 0.11958(98) 1.21212(42) 0.0013 Uiso
Ti1A_2 Ti -0.31681(78) 0.49778(51) 1.33954(40) 0.0732 Uiso
Ti1A_3 Ti 0.68319(78) 0.49778(51) 0.33954(40) 0.0732 Uiso
Ti1A_4 Ti 0.68319(78) 0.49778(51) 1.33954(40) 0.0732 Uiso
Ti1B_2 Ti -0.18541(59) 0.31681(78) 0.33954(40) 0.0732 Uiso
Ti1B_3 Ti -0.18541(59) 0.31681(78) 1.33954(40) 0.0732 Uiso
Ti1B_4 Ti 0.81459(59) 0.31681(78) 1.33954(40) 0.0732 Uiso
Ti1_2 Ti 0.50222(51) 0.18541(59) 1.33954(40) 0.0732 Uiso
Ti2B_2 Ti 0.24252(72) 0.7685(10) 0.83941(47) 0.1013 Uiso
Ti2_2 Ti 0.52601(72) -0.24252(72) 0.83941(47) 0.1013 Uiso
O5A_2 O 0.17145(87) -0.27530(47) 0.70826(57) 0.1013 Uiso
O5B_2 O 0.55325(73) 0.82855(87) 0.70826(57) 0.1013 Uiso
O6A_2 O 0.90026(59) 0.43088(40) 0.44127(40) 0.0013 Uiso
O6_2 O -0.43088(40) 0.46938(44) 0.44127(40) 0.0013 Uiso
O8A_2 O -0.2240(11) 0.53296(99) 0.22840(65) 0.0583 Uiso
O8B_2 O 0.75695(55) 0.2240(11) 0.22840(65) 0.0583 Uiso
O8_2 O 0.46704(99) 0.24305(55) 0.22840(65) 0.0583 Uiso
O9A_2 O 0.08863(94) -0.38707(53) 0.88495(41) 0.1013 Uiso
O9B_2 O 0.52430(78) 0.91137(94) 0.88495(41) 0.1013 Uiso
O10A_2 O 0.92598(95) 0.46637(70) 0.26160(54) 0.1013 Uiso
O10B_2 O 0.54039(64) 0.07402(95) 0.26160(54) 0.1013 Uiso
O10_2 O -0.46637(70) 0.45961(64) 0.26160(54) 0.1013 Uiso
O11A O 0.333334 -0.333333 0.80382(57) 0.1013 Uiso
O12A O -0.333334 0.333333 0.3355(13) 0.0013 Uiso
loop_
_geom_bond_atom_site_label_1
_geom_bond_atom_site_label_2
_geom_bond_site_symmetry_1
_geom_bond_site_symmetry_2
Ti1 O1 1_555 1_555
Ti2 O2 1_555 1_555
O3 Ti2 1_555 1_555
O4 Ti1 1_555 1_555
O5 C2 1_555 1_555
O6 C1 1_555 1_555
O7 Ti2 1_555 1_555
O8 C16 1_555 1_555
O9 C15 1_555 1_555
O10 C16 1_555 1_555
C1 O4 1_555 1_555
C2 O3 1_555 1_555
C3 C1 1_555 1_555
C4 C2 1_555 1_555
C5 C3 1_555 1_555
C6 C4 1_555 1_555
C7 C4 1_555 1_555
C8 C3 1_555 1_555
C9 C11 1_555 1_555
C10 C11 1_555 1_555
C12 C10 1_555 1_555
C13 C12 1_555 1_555
C14 C9 1_555 1_555
C15 O7 1_555 1_555
C16 C10 1_555 1_555
O11 Ti2 1_555 1_555
O12 Ti1 1_555 1_555
Ti1A O1A 1_555 1_555
Ti2A O5 1_555 1_555
O2A Ti2A 1_555 1_555
O3A Ti2A 1_555 1_555
O4A Ti1A 1_555 1_555
O5A C2A 1_555 1_555
O6A C1A 1_555 1_555
O7A Ti2A 1_555 1_555
O8A C16A 1_555 1_555
O9A C15A 1_555 1_555
O10A C16A 1_555 1_555
C1A O4A 1_555 1_555
C2A O3A 1_555 1_555
C3A C1A 1_555 1_555
C4A C2A 1_555 1_555
C5A C3A 1_555 1_555
C6A C4A 1_555 1_555
C7A C4A 1_555 1_555
C8A C3A 1_555 1_555
C9A C11A 1_555 1_555
C10A C11A 1_555 1_555
C12A C10A 1_555 1_555
C13A C12A 1_555 1_555
C14A C9A 1_555 1_555
C15A O7A 1_555 1_555
C16A C10A 1_555 1_555
Ti1B O12 1_555 1_555
Ti2B O2B 1_555 1_555
O1B Ti1B 1_555 1_555
O3B Ti2B 1_555 1_555
O4B Ti1B 1_555 1_555
O5B C2B 1_555 1_555
O6B Ti1 1_555 1_555
O7B Ti2B 1_555 1_555
O8B C16B 1_555 1_555
O9B C15B 1_555 1_555
O10B C16B 1_555 1_555
C1B O4B 1_555 1_555
C2B O3B 1_555 1_555
C3B C1B 1_555 1_555
C4B C2B 1_555 1_555
C5B C3B 1_555 1_555
C6B C4B 1_555 1_555
C7B C4B 1_555 1_555
C8B C3B 1_555 1_555
C9B C11B 1_555 1_555
C10B C11B 1_555 1_555
C12B C10B 1_555 1_555
C13B C12B 1_555 1_555
C14B C9B 1_555 1_555
C15B O7B 1_555 1_555
C16B C10B 1_555 1_555
Ti1A_2 O8A 1_555 1_555
Ti1A_3 O6 1_555 1_555
Ti1A_4 O10 1_555 1_555
Ti1B_2 O6A 1_555 1_555
Ti1B_3 O10A 1_555 1_555
Ti1B_4 O8B 1_555 1_555
Ti1_2 O8 1_555 1_555
Ti2B_2 O11 1_555 1_555
Ti2_2 O5B 1_555 1_555
O5A_2 Ti2B 1_555 1_555
O5B_2 Ti2 1_555 1_555
O6A_2 Ti1B 1_555 1_555
O6_2 Ti1A 1_555 1_555
O8A_2 Ti1A 1_555 1_555
O8B_2 Ti1B 1_555 1_555
O8_2 Ti1 1_555 1_555
O9A_2 Ti2B 1_555 1_555
O9B_2 Ti2 1_555 1_555
O10A_2 Ti1B 1_555 1_555
O10B_2 Ti1 1_555 1_555
O10_2 Ti1A 1_555 1_555
O11A Ti2B 1_555 1_555
O12A Ti1A 1_555 1_555
O9 Ti2A 1_555 1_555
C5 C7 1_555 1_555
C6 C8 1_555 1_555
C13 C14 1_555 1_555
C14 C15 1_555 1_555
O11 Ti2A 1_555 1_555
O12 Ti1A_3 1_555 1_555
O5A Ti2B_2 1_555 1_555
O9A Ti2B_2 1_555 1_555
C5A C7A 1_555 1_555
C6A C8A 1_555 1_555
C13A C14A 1_555 1_555
C14A C15A 1_555 1_555
O6B C1B 1_555 1_555
O9B Ti2_2 1_555 1_555
O10B Ti1_2 1_555 1_555
C5B C7B 1_555 1_555
C6B C8B 1_555 1_555
C13B C14B 1_555 1_555
C14B C15B 1_555 1_555
Ti1B_2 O12A 1_555 1_555
Ti2_2 O11A 1_555 1_555

#END
