
#######################################################################
#
#                 Cambridge Crystallographic Data Centre
#                                CCDC 
#
#######################################################################
#
# If this CIF has been generated from an entry in the Cambridge 
# Structural Database, then it will include bibliographic, chemical, 
# crystal, experimental, refinement or atomic coordinate data resulting 
# from the CCDC's data processing and validation procedures.
#
#######################################################################

data_HUDMAW
_chemical_formula_moiety         '(C36 H26 Co3 N13 Na1 O16)n'
_symmetry_cell_setting           hexagonal
_symmetry_space_group_name_H-M   'P 63'
_symmetry_Int_Tables_number      173
_space_group_name_Hall           'P 6c'
loop_
_symmetry_equiv_pos_site_id
_symmetry_equiv_pos_as_xyz
1 x,y,z
2 -y,x-y,z
3 -x+y,-x,z
4 -x,-y,1/2+z
5 y,-x+y,1/2+z
6 x-y,x,1/2+z
_cell_length_a                   13.1191(3)
_cell_length_b                   13.1191(3)
_cell_length_c                   16.0140(5)
_cell_angle_alpha                90
_cell_angle_beta                 90
_cell_angle_gamma                120
_cell_volume                     2386.92
loop_
_atom_site_label
_atom_site_type_symbol
_atom_site_fract_x
_atom_site_fract_y
_atom_site_fract_z
Co1 Co 0.47336(10) 0.51793(10) 0.27171(11)
Na1 Na 0.3333 0.6667 0.2704(4)
C1 C 0.5633(7) 0.6918(6) 0.1460(5)
O1 O 0.3812(7) 0.3739(6) 0.3752(3)
O2 O 0.4749(5) 0.6407(5) 0.1947(3)
C2 C 0.5518(9) 0.7663(9) 0.0787(5)
H1 H 0.4855 0.7747 0.0777
C3 C 0.3322(7) 0.4317(7) 0.3923(5)
O3 O 0.6501(6) 0.6813(7) 0.1509(4)
O4 O 0.3410(5) 0.5126(5) 0.3424(4)
C4 C 0.5453(9) 0.9026(8) -0.0856(5)
H2 H 0.4683 0.8697 -0.0665
C5 C 0.6323(8) 0.8185(8) 0.0225(5)
H3 H 0.6993 0.8120 0.0289
C6 C 0.6319(9) 0.8871(8) -0.0507(5)
N1 N 0.7275(8) 0.9474(8) -0.0969(5)
C7 C 0.2686(8) 0.4088(8) 0.4716(5)
H4 H 0.2656 0.3501 0.5058
C8 C 0.2154(7) 0.4654(7) 0.4978(5)
H5 H 0.2115 0.5188 0.4615
C9 C 0.1621(8) 0.4494(8) 0.5802(5)
N2 N 0.1833(8) 0.3944(8) 0.6455(4)
C10 C 0.0880(8) 0.4833(8) 0.6112(5)
H6 H 0.0590 0.5242 0.5814
C11 C 0.1240(9) 0.3985(10) 0.7122(6)
H7 H 0.1266 0.3698 0.7648
C12 C 0.7002(9) 0.9977(9) -0.1560(6)
H8 H 0.7532 1.0457 -0.1966
N3 N 0.0613(6) 0.4487(7) 0.6933(4)
N4 N 0.5909(7) 0.9741(6) -0.1527(5)
Co1A Co 0.48207(10) 0.95543(14) 0.27171(11)
C1A C 0.3082(6) 0.8715(9) 0.1460(5)
O1A O 0.6261(6) 1.0073(9) 0.3752(3)
O2A O 0.3593(5) 0.8342(7) 0.1947(3)
C2A C 0.2337(9) 0.7855(13) 0.0787(5)
H1A H 0.2253 0.7108 0.0777
C3A C 0.5683(7) 0.9005(10) 0.3923(5)
O3A O 0.3187(7) 0.9688(9) 0.1509(4)
O4A O 0.4874(5) 0.8284(7) 0.3424(4)
C4A C 0.0974(8) 0.6427(12) -0.0856(5)
H2A H 0.1303 0.5986 -0.0665
C5A C 0.1815(8) 0.8138(11) 0.0225(5)
H3A H 0.1880 0.8873 0.0289
C6A C 0.1129(8) 0.7448(12) -0.0507(5)
N1A N 0.0526(8) 0.7801(11) -0.0969(5)
C7A C 0.5912(8) 0.8598(11) 0.4716(5)
H4A H 0.6499 0.9155 0.5058
C8A C 0.5346(7) 0.7500(10) 0.4978(5)
H5A H 0.4812 0.6927 0.4615
C9A C 0.5506(8) 0.7127(11) 0.5802(5)
N2A N 0.6056(8) 0.7889(11) 0.6455(4)
C10A C 0.5167(8) 0.6047(11) 0.6112(5)
H6A H 0.4758 0.5348 0.5814
C11A C 0.6015(10) 0.7255(13) 0.7122(6)
H7A H 0.6302 0.7568 0.7648
C12A C 0.0023(9) 0.7025(13) -0.1560(6)
H8A H -0.0457 0.7075 -0.1966
N3A N 0.5513(7) 0.6126(9) 0.6933(4)
N4A N 0.0259(6) 0.6168(9) -0.1527(5)
Co1B Co 0.04457(14) 0.52664(10) 0.27171(11)
C1B C 0.1285(9) 0.4367(7) 0.1460(5)
O1B O -0.0073(9) 0.6188(7) 0.3752(3)
O2B O 0.1658(7) 0.5251(5) 0.1947(3)
C2B C 0.2145(13) 0.4482(9) 0.0787(5)
H1B H 0.2892 0.5145 0.0777
C3B C 0.0995(10) 0.6678(7) 0.3923(5)
O3B O 0.0312(9) 0.3499(6) 0.1509(4)
O4B O 0.1716(7) 0.6590(5) 0.3424(4)
C4B C 0.3573(12) 0.4547(9) -0.0856(5)
H2B H 0.4014 0.5317 -0.0665
C5B C 0.1862(11) 0.3677(8) 0.0225(5)
H3B H 0.1127 0.3007 0.0289
C6B C 0.2552(12) 0.3681(9) -0.0507(5)
N1B N 0.2199(11) 0.2725(8) -0.0969(5)
C7B C 0.1402(11) 0.7314(8) 0.4716(5)
H4B H 0.0845 0.7344 0.5058
C8B C 0.2500(10) 0.7846(7) 0.4978(5)
H5B H 0.3073 0.7885 0.4615
C9B C 0.2873(11) 0.8379(8) 0.5802(5)
N2B N 0.2111(11) 0.8167(8) 0.6455(4)
C10B C 0.3953(11) 0.9120(8) 0.6112(5)
H6B H 0.4652 0.9410 0.5814
C11B C 0.2745(13) 0.8760(9) 0.7122(6)
H7B H 0.2432 0.8734 0.7648
C12B C 0.2975(13) 0.2998(9) -0.1560(6)
H8B H 0.2925 0.2468 -0.1966
N3B N 0.3874(9) 0.9387(6) 0.6933(4)
N4B N 0.3832(9) 0.4091(7) -0.1527(5)
Co1C Co 0.52664(10) 0.48207(10) -0.22829(11)
Co1C_2 Co 0.52664(10) 0.48207(10) 0.77171(11)
Co1D Co 0.51793(10) 1.04457(14) -0.22829(11)
Co1D_2 Co 0.51793(10) 1.04457(14) 0.77171(11)
Co1E Co -0.04457(14) 0.47336(10) -0.22829(11)
Co1E_2 Co -0.04457(14) 0.47336(10) 0.77171(11)
N3C N -0.0613(6) 0.5513(7) 0.1933(4)
N3D N 0.4487(7) 0.3874(9) 0.1933(4)
N3E N 0.6126(9) 1.0613(6) 0.1933(4)
N4C N 0.4091(7) 1.0259(6) 0.3473(5)
N4D N -0.0259(6) 0.3832(9) 0.3473(5)
N4E N 0.6168(9) 0.5909(7) 0.3473(5)
N5 N 1.0000 1.0000 -0.0634(19)
O5 O 1.0968(10) 1.0146(11) -0.0673(14)
O5A O 0.9854(11) 1.0822(15) -0.0673(14)
O5B O 0.9178(15) 0.9032(10) -0.0673(14)
O6 O 1.0000 1.0000 0.192(5)
loop_
_geom_bond_atom_site_label_1
_geom_bond_atom_site_label_2
_geom_bond_site_symmetry_1
_geom_bond_site_symmetry_2
Co1 O1 1_555 1_555
Na1 O2 1_555 1_555
C1 O2 1_555 1_555
O1 C3 1_555 1_555
O2 Co1 1_555 1_555
C2 C1 1_555 1_555
H1 C2 1_555 1_555
C3 O4 1_555 1_555
O3 C1 1_555 1_555
O4 Co1 1_555 1_555
C4 H2 1_555 1_555
C5 C2 1_555 1_555
H3 C5 1_555 1_555
C6 C4 1_555 1_555
N1 C6 1_555 1_555
C7 C3 1_555 1_555
H4 C7 1_555 1_555
C8 C7 1_555 1_555
H5 C8 1_555 1_555
C9 C8 1_555 1_555
N2 C9 1_555 1_555
C10 C9 1_555 1_555
H6 C10 1_555 1_555
C11 N2 1_555 1_555
H7 C11 1_555 1_555
C12 N1 1_555 1_555
H8 C12 1_555 1_555
N3 C10 1_555 1_555
N4 C4 1_555 1_555
N5 O5 1_555 1_555
Co1A O1A 1_555 1_555
C1A O2A 1_555 1_555
O1A C3A 1_555 1_555
O2A Na1 1_555 1_555
C2A C1A 1_555 1_555
H1A C2A 1_555 1_555
C3A O4A 1_555 1_555
O3A C1A 1_555 1_555
O4A Na1 1_555 1_555
C4A H2A 1_555 1_555
C5A C2A 1_555 1_555
H3A C5A 1_555 1_555
C6A C4A 1_555 1_555
N1A C6A 1_555 1_555
C7A C3A 1_555 1_555
H4A C7A 1_555 1_555
C8A C7A 1_555 1_555
H5A C8A 1_555 1_555
C9A C8A 1_555 1_555
N2A C9A 1_555 1_555
C10A C9A 1_555 1_555
H6A C10A 1_555 1_555
C11A N2A 1_555 1_555
H7A C11A 1_555 1_555
C12A N1A 1_555 1_555
H8A C12A 1_555 1_555
N3A C10A 1_555 1_555
N4A C4A 1_555 1_555
Co1B O1B 1_555 1_555
C1B O2B 1_555 1_555
O1B C3B 1_555 1_555
O2B Na1 1_555 1_555
C2B C1B 1_555 1_555
H1B C2B 1_555 1_555
C3B O4B 1_555 1_555
O3B C1B 1_555 1_555
O4B Na1 1_555 1_555
C4B H2B 1_555 1_555
C5B C2B 1_555 1_555
H3B C5B 1_555 1_555
C6B C4B 1_555 1_555
N1B C6B 1_555 1_555
C7B C3B 1_555 1_555
H4B C7B 1_555 1_555
C8B C7B 1_555 1_555
H5B C8B 1_555 1_555
C9B C8B 1_555 1_555
N2B C9B 1_555 1_555
C10B C9B 1_555 1_555
H6B C10B 1_555 1_555
C11B N2B 1_555 1_555
H7B C11B 1_555 1_555
C12B N1B 1_555 1_555
H8B C12B 1_555 1_555
N3B C10B 1_555 1_555
N4B C4B 1_555 1_555
Co1C N4B 1_555 1_555
Co1C_2 N3A 1_555 1_555
Co1D N4 1_555 1_555
Co1D_2 N3B 1_555 1_555
Co1E N4A 1_555 1_555
Co1E_2 N3 1_555 1_555
N3C Co1B 1_555 1_555
N3D Co1 1_555 1_555
N3E Co1A 1_555 1_555
N4C Co1A 1_555 1_555
N4D Co1B 1_555 1_555
N4E Co1 1_555 1_555
O5A N5 1_555 1_555
O5B N5 1_555 1_555
Na1 O4 1_555 1_555
C5 C6 1_555 1_555
C11 N3 1_555 1_555
C12 N4 1_555 1_555
Co1A O2A 1_555 1_555
Co1A O4A 1_555 1_555
C5A C6A 1_555 1_555
C11A N3A 1_555 1_555
C12A N4A 1_555 1_555
Co1B O2B 1_555 1_555
Co1B O4B 1_555 1_555
C5B C6B 1_555 1_555
C11B N3B 1_555 1_555
C12B N4B 1_555 1_555

#END
