
#######################################################################
#
#                 Cambridge Crystallographic Data Centre
#                                CCDC 
#
#######################################################################
#
# If this CIF has been generated from an entry in the Cambridge 
# Structural Database, then it will include bibliographic, chemical, 
# crystal, experimental, refinement or atomic coordinate data resulting 
# from the CCDC's data processing and validation procedures.
#
#######################################################################

data_HAJLIO
_chemical_formula_moiety         '(C22 H28 Fe1 N10 S2)n'
_symmetry_cell_setting           rhombohedral
_symmetry_space_group_name_H-M   'R -3'
_symmetry_Int_Tables_number      148
_space_group_name_Hall           '-R 3'
loop_
_symmetry_equiv_pos_site_id
_symmetry_equiv_pos_as_xyz
1 x,y,z
2 -y,x-y,z
3 -x+y,-x,z
4 2/3+x,1/3+y,1/3+z
5 2/3-y,1/3+x-y,1/3+z
6 2/3-x+y,1/3-x,1/3+z
7 1/3+x,2/3+y,2/3+z
8 2/3+y,1/3-x+y,1/3-z
9 2/3+x-y,1/3+x,1/3-z
10 -x,-y,-z
11 y,-x+y,-z
12 x-y,x,-z
13 1/3-x,2/3-y,2/3-z
14 1/3+y,2/3-x+y,2/3-z
15 1/3+x-y,2/3+x,2/3-z
16 2/3-x,1/3-y,1/3-z
17 1/3-y,2/3+x-y,2/3+z
18 1/3-x+y,2/3-x,2/3+z
_cell_length_a                   25.2831(14)
_cell_length_b                   25.2831(14)
_cell_length_c                   10.9463(13)
_cell_angle_alpha                90
_cell_angle_beta                 90
_cell_angle_gamma                120.00
_cell_volume                     6059.8
loop_
_atom_site_label
_atom_site_type_symbol
_atom_site_fract_x
_atom_site_fract_y
_atom_site_fract_z
_atom_site_U_iso_or_equiv
_atom_site_thermal_displace_type
Fe1 Fe 0.5000 0.5000 0.5000 0.0147 Uani
S1 S 0.32984(3) 0.52473(3) 0.62311(6) 0.0214 Uani
C1 C 0.39158(13) 0.52147(12) 0.5951(2) 0.0162 Uani
N1 N 0.43574(11) 0.51961(10) 0.57267(19) 0.0170 Uani
N2 N 0.54824(10) 0.52748(10) 0.6819(2) 0.0173 Uani
N3 N 0.54899(10) 0.57666(10) 0.73428(19) 0.0168 Uani
H1 H 0.5287 0.5938 0.7054 0.0200 Uiso
C2 C 0.58472(12) 0.51623(12) 0.7531(2) 0.0166 Uani
C3 C 0.60900(12) 0.55875(12) 0.8505(2) 0.0151 Uani
C4 C 0.58408(13) 0.59618(13) 0.8351(2) 0.0169 Uani
C5 C 0.59633(14) 0.46469(13) 0.7289(3) 0.0224 Uani
H2 H 0.5739 0.4425 0.6556 0.0340 Uiso
H3 H 0.5826 0.4368 0.7989 0.0340 Uiso
H4 H 0.6401 0.4809 0.7161 0.0340 Uiso
C6 C 0.59013(15) 0.64812(14) 0.9083(3) 0.0267 Uani
H8 H 0.5659 0.6642 0.8707 0.0400 Uiso
H9 H 0.6331 0.6803 0.9111 0.0400 Uiso
H10 H 0.5754 0.6342 0.9914 0.0400 Uiso
C7 C 0.64504(13) 0.52407(13) 1.0376(2) 0.0177 Uani
C8 C 0.65270(12) 0.56558(12) 0.9472(2) 0.0152 Uani
C9 C 0.70931(12) 0.61836(13) 0.9748(2) 0.0167 Uani
C10 C 0.59409(14) 0.46103(14) 1.0607(3) 0.0272 Uani
H14 H 0.6036 0.4442 1.1326 0.0410 Uiso
H15 H 0.5888 0.4353 0.9895 0.0410 Uiso
H16 H 0.5563 0.4620 1.0752 0.0410 Uiso
C11 C 0.74081(14) 0.67667(14) 0.9048(3) 0.0240 Uani
H20 H 0.7792 0.7050 0.9456 0.0360 Uiso
H21 H 0.7145 0.6948 0.9010 0.0360 Uiso
H22 H 0.7494 0.6685 0.8218 0.0360 Uiso
N4 N 0.73473(10) 0.61022(10) 1.07568(19) 0.0156 Uani
N5 N 0.69450(10) 0.55200(10) 1.1105(2) 0.0165 Uani
H26 H 0.7002 0.5343 1.1743 0.0200 Uiso
S1I S 0.67016(3) 0.47527(3) 0.37689(6) 0.0214 Uani
C1I C 0.60842(13) 0.47853(12) 0.4049(2) 0.0162 Uani
N1I N 0.56426(11) 0.48039(10) 0.42733(19) 0.0170 Uani
N2I N 0.45176(10) 0.47252(10) 0.3181(2) 0.0173 Uani
N3I N 0.45101(10) 0.42334(10) 0.26572(19) 0.0168 Uani
H1I H 0.4713 0.4062 0.2946 0.0200 Uiso
C2I C 0.41528(12) 0.48377(12) 0.2469(2) 0.0166 Uani
C3I C 0.39100(12) 0.44125(12) 0.1495(2) 0.0151 Uani
C4I C 0.41592(13) 0.40382(13) 0.1649(2) 0.0169 Uani
C5I C 0.40367(14) 0.53531(13) 0.2711(3) 0.0224 Uani
H2I H 0.4261 0.5575 0.3444 0.0340 Uiso
H3I H 0.4174 0.5632 0.2011 0.0340 Uiso
H4I H 0.3599 0.5191 0.2839 0.0340 Uiso
C6I C 0.40987(15) 0.35188(14) 0.0917(3) 0.0267 Uani
H8I H 0.4341 0.3358 0.1293 0.0400 Uiso
H9I H 0.3669 0.3197 0.0889 0.0400 Uiso
H10I H 0.4246 0.3658 0.0086 0.0400 Uiso
C7I C 0.35496(13) 0.47593(13) -0.0376(2) 0.0177 Uani
C8I C 0.34730(12) 0.43442(12) 0.0528(2) 0.0152 Uani
C9I C 0.29069(12) 0.38164(13) 0.0252(2) 0.0167 Uani
C10I C 0.40591(14) 0.53897(14) -0.0607(3) 0.0272 Uani
H14I H 0.3964 0.5558 -0.1326 0.0410 Uiso
H15I H 0.4112 0.5647 0.0105 0.0410 Uiso
H16I H 0.4437 0.5380 -0.0752 0.0410 Uiso
C11I C 0.25919(14) 0.32333(14) 0.0952(3) 0.0240 Uani
H20I H 0.2208 0.2950 0.0544 0.0360 Uiso
H21I H 0.2855 0.3052 0.0990 0.0360 Uiso
H22I H 0.2506 0.3315 0.1782 0.0360 Uiso
N4I N 0.26527(10) 0.38978(10) -0.07568(19) 0.0156 Uani
N5I N 0.30550(10) 0.44800(10) -0.1105(2) 0.0165 Uani
H26I H 0.2998 0.4657 -0.1743 0.0200 Uiso
N4E N 0.54216(14) 0.59860(10) 0.40901(19) 0.0156 Uani
N4N N 0.45784(14) 0.40140(10) 0.59099(19) 0.0156 Uani
Fe1M Fe 0.8333 0.6667 1.1667 0.0147 Uani
Fe1D Fe 0.1667 0.3333 -0.1667 0.0147 Uani
loop_
_atom_site_aniso_label
_atom_site_aniso_U_11
_atom_site_aniso_U_22
_atom_site_aniso_U_33
_atom_site_aniso_U_23
_atom_site_aniso_U_13
_atom_site_aniso_U_12
Fe1 0.0134(3) 0.0183(3) 0.0123(2) -0.0017(2) -0.0010(2) 0.0079(2)
S1 0.0171(4) 0.0270(4) 0.0223(3) 0.0015(3) 0.0019(3) 0.0127(3)
C1 0.0180(14) 0.0143(13) 0.0126(12) -0.0004(10) -0.0001(10) 0.0053(11)
N1 0.0183(12) 0.0180(12) 0.0137(11) 0.0013(9) 0.0012(9) 0.0084(10)
N2 0.0189(12) 0.0177(12) 0.0155(11) -0.0010(9) -0.0015(9) 0.0092(10)
N3 0.0195(12) 0.0175(12) 0.0156(11) -0.0027(9) -0.0034(9) 0.0108(10)
C2 0.0159(13) 0.0163(13) 0.0147(12) 0.0018(10) 0.0015(10) 0.0059(12)
C3 0.0157(13) 0.0160(13) 0.0116(12) -0.0007(10) -0.0007(10) 0.0064(11)
C4 0.0168(14) 0.0188(14) 0.0131(12) -0.0011(10) -0.0019(10) 0.0073(12)
C5 0.0277(16) 0.0226(15) 0.0198(14) -0.0031(11) -0.0043(12) 0.0148(13)
C6 0.0347(18) 0.0291(17) 0.0221(15) -0.0088(13) -0.0112(13) 0.0203(15)
C7 0.0188(14) 0.0212(14) 0.0156(12) -0.0009(11) 0.0014(11) 0.0118(12)
C8 0.0170(13) 0.0189(14) 0.0116(12) -0.0003(10) 0.0006(10) 0.0104(12)
C9 0.0183(14) 0.0204(14) 0.0133(12) 0.0002(10) -0.0009(10) 0.0110(12)
C10 0.0278(17) 0.0219(16) 0.0240(15) 0.0042(12) -0.0015(13) 0.0065(14)
C11 0.0222(15) 0.0244(16) 0.0186(14) 0.0032(12) -0.0062(12) 0.0066(13)
N4 0.0166(11) 0.0166(12) 0.0137(10) 0.0013(9) 0.0002(9) 0.0083(10)
N5 0.0175(12) 0.0175(12) 0.0151(11) 0.0033(9) -0.0014(9) 0.0092(10)
S1I 0.0171 0.027 0.0223 0.0015 0.0019 0.0127
C1I 0.018 0.0143 0.0126 -0.0004 -0.0001 0.0053
N1I 0.0183 0.018 0.0137 0.0013 0.0012 0.0084
N2I 0.0189 0.0177 0.0155 -0.001 -0.0015 0.0092
N3I 0.0195 0.0175 0.0156 -0.0027 -0.0034 0.0108
C2I 0.0159 0.0163 0.0147 0.0018 0.0015 0.0059
C3I 0.0157 0.016 0.0116 -0.0007 -0.0007 0.0064
C4I 0.0168 0.0188 0.0131 -0.0011 -0.0019 0.0073
C5I 0.0277 0.0226 0.0198 -0.0031 -0.0043 0.0148
C6I 0.0347 0.0291 0.0221 -0.0088 -0.0112 0.0203
C7I 0.0188 0.0212 0.0156 -0.0009 0.0014 0.0118
C8I 0.017 0.0189 0.0116 -0.0003 0.0006 0.0104
C9I 0.0183 0.0204 0.0133 0.0002 -0.0009 0.011
C10I 0.0278 0.0219 0.024 0.0042 -0.0015 0.0065
C11I 0.0222 0.0244 0.0186 0.0032 -0.0062 0.0066
N4I 0.0166 0.0166 0.0137 0.0013 0.0002 0.0083
N5I 0.0175 0.0175 0.0151 0.0033 -0.0014 0.0092
N4E 0.0166 0.0166 0.0137 -0.0002 0.0011 0.0083
N4N 0.0166 0.0166 0.0137 -0.0002 0.0011 0.0083
Fe1M 0.0183 0.0159 0.0123 0.0007 0.0017 0.0104
Fe1D 0.0183 0.0159 0.0123 0.0007 0.0017 0.0104
loop_
_geom_bond_atom_site_label_1
_geom_bond_atom_site_label_2
_geom_bond_site_symmetry_1
_geom_bond_site_symmetry_2
Fe1 N1 1_555 1_555
S1 C1 1_555 1_555
C1 N1 1_555 1_555
N2 Fe1 1_555 1_555
N3 N2 1_555 1_555
H1 N3 1_555 1_555
C2 N2 1_555 1_555
C3 C2 1_555 1_555
C4 N3 1_555 1_555
C5 C2 1_555 1_555
H2 C5 1_555 1_555
H3 C5 1_555 1_555
H4 C5 1_555 1_555
C6 C4 1_555 1_555
H8 C6 1_555 1_555
H9 C6 1_555 1_555
H10 C6 1_555 1_555
C7 C8 1_555 1_555
C8 C3 1_555 1_555
C9 C8 1_555 1_555
C10 C7 1_555 1_555
H14 C10 1_555 1_555
H15 C10 1_555 1_555
H16 C10 1_555 1_555
C11 C9 1_555 1_555
H20 C11 1_555 1_555
H21 C11 1_555 1_555
H22 C11 1_555 1_555
N4 C9 1_555 1_555
N5 C7 1_555 1_555
H26 N5 1_555 1_555
S1I C1I 1_555 1_555
C1I N1I 1_555 1_555
N1I Fe1 1_555 1_555
N2I Fe1 1_555 1_555
N3I N2I 1_555 1_555
H1I N3I 1_555 1_555
C2I N2I 1_555 1_555
C3I C2I 1_555 1_555
C4I N3I 1_555 1_555
C5I C2I 1_555 1_555
H2I C5I 1_555 1_555
H3I C5I 1_555 1_555
H4I C5I 1_555 1_555
C6I C4I 1_555 1_555
H8I C6I 1_555 1_555
H9I C6I 1_555 1_555
H10I C6I 1_555 1_555
C7I C8I 1_555 1_555
C8I C3I 1_555 1_555
C9I C8I 1_555 1_555
C10I C7I 1_555 1_555
H14I C10I 1_555 1_555
H15I C10I 1_555 1_555
H16I C10I 1_555 1_555
C11I C9I 1_555 1_555
H20I C11I 1_555 1_555
H21I C11I 1_555 1_555
H22I C11I 1_555 1_555
N4I C9I 1_555 1_555
N5I C7I 1_555 1_555
H26I N5I 1_555 1_555
N4E Fe1 1_555 1_555
N4N Fe1 1_555 1_555
Fe1M N4 1_555 1_555
Fe1D N4I 1_555 1_555
C3 C4 1_555 1_555
N4 N5 1_555 1_555
C3I C4I 1_555 1_555
N4I N5I 1_555 1_555

#END
