
#######################################################################
#
#                 Cambridge Crystallographic Data Centre
#                                CCDC 
#
#######################################################################
#
# If this CIF has been generated from an entry in the Cambridge 
# Structural Database, then it will include bibliographic, chemical, 
# crystal, experimental, refinement or atomic coordinate data resulting 
# from the CCDC's data processing and validation procedures.
#
#######################################################################

data_HAJLUA
_chemical_formula_moiety         '(C70 H84 Fe3 N33 S6)n'
_symmetry_cell_setting           rhombohedral
_symmetry_space_group_name_H-M   'R -3'
_symmetry_Int_Tables_number      148
_space_group_name_Hall           '-R 3'
loop_
_symmetry_equiv_pos_site_id
_symmetry_equiv_pos_as_xyz
1 x,y,z
2 -y,x-y,z
3 -x+y,-x,z
4 2/3+x,1/3+y,1/3+z
5 2/3-y,1/3+x-y,1/3+z
6 2/3-x+y,1/3-x,1/3+z
7 1/3+x,2/3+y,2/3+z
8 2/3+y,1/3-x+y,1/3-z
9 2/3+x-y,1/3+x,1/3-z
10 -x,-y,-z
11 y,-x+y,-z
12 x-y,x,-z
13 1/3-x,2/3-y,2/3-z
14 1/3+y,2/3-x+y,2/3-z
15 1/3+x-y,2/3+x,2/3-z
16 2/3-x,1/3-y,1/3-z
17 1/3-y,2/3+x-y,2/3+z
18 1/3-x+y,2/3-x,2/3+z
_cell_length_a                   25.390(5)
_cell_length_b                   25.390(5)
_cell_length_c                   10.986(5)
_cell_angle_alpha                90
_cell_angle_beta                 90
_cell_angle_gamma                120.000(5)
_cell_volume                     6133.32
loop_
_atom_site_label
_atom_site_type_symbol
_atom_site_fract_x
_atom_site_fract_y
_atom_site_fract_z
C12 C 0.3333 0.6667 -0.140(4)
C13 C 0.327(5) 0.636(3) -0.032(4)
N6 N 0.325(4) 0.613(3) 0.059(4)
C13A C 0.364(3) 0.691(6) -0.032(4)
C13B C 0.309(6) 0.673(5) -0.032(4)
N6A N 0.387(3) 0.712(5) 0.059(4)
N6B N 0.288(5) 0.675(4) 0.059(4)
Fe1 Fe 0.5000 0.5000 0.5000
S1 S 0.33203(6) 0.52478(6) 0.62305(12)
C1 C 0.3933(2) 0.52224(19) 0.5956(4)
N1 N 0.43640(17) 0.52003(17) 0.5726(3)
N2 N 0.54979(17) 0.52796(16) 0.6801(3)
N3 N 0.55018(17) 0.57617(17) 0.7328(3)
H1 H 0.5304 0.5928 0.7046
C2 C 0.5860(2) 0.5167(2) 0.7504(4)
C3 C 0.6094(2) 0.55849(19) 0.8488(4)
C4 C 0.5845(2) 0.5955(2) 0.8332(4)
C5 C 0.5980(2) 0.4661(2) 0.7258(4)
H2 H 0.5762 0.4444 0.6544
H3 H 0.5849 0.4389 0.7941
H4 H 0.6408 0.4823 0.7131
C6 C 0.5900(3) 0.6466(2) 0.9064(5)
H8 H 0.5663 0.6623 0.8697
H9 H 0.6319 0.6781 0.9099
H10 H 0.5754 0.6327 0.9873
C7 C 0.6438(2) 0.5240(2) 1.0360(4)
C8 C 0.65237(19) 0.56498(19) 0.9451(4)
C9 C 0.7086(2) 0.6170(2) 0.9721(4)
C10 C 0.5924(2) 0.4619(2) 1.0597(5)
H14 H 0.6014 0.4452 1.1299
H15 H 0.5864 0.4365 0.9903
H16 H 0.5560 0.4637 1.0743
C11 C 0.7411(2) 0.6743(2) 0.9016(5)
H20 H 0.7786 0.7017 0.9419
H21 H 0.7162 0.6927 0.8957
H22 H 0.7498 0.6656 0.8214
N4 N 0.73337(16) 0.60904(17) 1.0733(3)
N5 N 0.69258(17) 0.55162(17) 1.1088(3)
H26 H 0.6975 0.5345 1.1720
S1I S 0.66797(6) 0.47522(6) 0.37695(12)
C1I C 0.6067(2) 0.47776(19) 0.4044(4)
N1I N 0.56360(17) 0.47997(17) 0.4274(3)
N2I N 0.45021(17) 0.47204(16) 0.3199(3)
N3I N 0.44982(17) 0.42383(17) 0.2672(3)
H1I H 0.4696 0.4072 0.2954
C2I C 0.4140(2) 0.4833(2) 0.2496(4)
C3I C 0.3906(2) 0.44151(19) 0.1512(4)
C4I C 0.4155(2) 0.4045(2) 0.1668(4)
C5I C 0.4020(2) 0.5339(2) 0.2742(4)
H2I H 0.4238 0.5556 0.3456
H3I H 0.4151 0.5611 0.2059
H4I H 0.3592 0.5177 0.2869
C6I C 0.4100(3) 0.3534(2) 0.0936(5)
H8I H 0.4337 0.3377 0.1303
H9I H 0.3681 0.3219 0.0901
H10I H 0.4246 0.3673 0.0127
C7I C 0.3562(2) 0.4760(2) -0.0360(4)
C8I C 0.34763(19) 0.43502(19) 0.0549(4)
C9I C 0.2914(2) 0.3830(2) 0.0279(4)
C10I C 0.4076(2) 0.5381(2) -0.0597(5)
H14I H 0.3986 0.5548 -0.1299
H15I H 0.4136 0.5635 0.0097
H16I H 0.4440 0.5363 -0.0743
C11I C 0.2589(2) 0.3257(2) 0.0984(5)
H20I H 0.2214 0.2983 0.0581
H21I H 0.2838 0.3073 0.1043
H22I H 0.2502 0.3344 0.1786
N4I N 0.26663(16) 0.39096(17) -0.0733(3)
N5I N 0.30742(17) 0.44838(17) -0.1088(3)
H26I H 0.3025 0.4655 -0.1720
N2E N 0.64484(23) 0.78354(17) 0.0134(3)
N3E N 0.69266(24) 0.78315(17) 0.0661(3)
H1E H 0.7291 0.8029 0.0379
C2E C 0.5974(3) 0.7473(2) 0.0837(4)
C3E C 0.61576(28) 0.7239(2) 0.1821(4)
C4E C 0.6777(3) 0.7488(2) 0.1665(4)
C5E C 0.5348(3) 0.7353(2) 0.0591(4)
H2E H 0.5349 0.7571 -0.0123
H3E H 0.5207 0.7484 0.1274
H4E H 0.5082 0.6925 0.0464
C6E C 0.7233(4) 0.7433(3) 0.2397(5)
H8E H 0.7627 0.7670 0.2030
H9E H 0.7129 0.7014 0.2432
H10E H 0.7240 0.7579 0.3206
C7E C 0.5469(3) 0.6895(2) 0.3693(4)
C8E C 0.57928(27) 0.68096(19) 0.2784(4)
C9E C 0.5751(3) 0.6247(2) 0.3054(4)
C10E C 0.5362(3) 0.7409(2) 0.3930(5)
H14E H 0.5105 0.7319 0.4632
H15E H 0.5168 0.7469 0.3236
H16E H 0.5744 0.7773 0.4076
C11E C 0.5999(3) 0.5922(2) 0.2349(5)
H20E H 0.5898 0.5547 0.2752
H21E H 0.6432 0.6171 0.2290
H22E H 0.5825 0.5835 0.1547
N4E N 0.54234(23) 0.59996(16) 0.4066(3)
N5E N 0.52571(24) 0.64075(17) 0.4421(3)
H26E H 0.5037 0.6358 0.5053
N2N N 0.35516(23) 0.21646(17) 0.9866(3)
N3N N 0.30734(24) 0.21685(17) 0.9339(3)
H1N H 0.2709 0.1971 0.9621
C2N C 0.4026(3) 0.2527(2) 0.9163(4)
C3N C 0.38424(28) 0.2761(2) 0.8179(4)
C4N C 0.3223(3) 0.2512(2) 0.8335(4)
C5N C 0.4652(3) 0.2647(2) 0.9409(4)
H2N H 0.4651 0.2429 1.0123
H3N H 0.4793 0.2516 0.8726
H4N H 0.4918 0.3075 0.9536
C6N C 0.2767(4) 0.2567(3) 0.7603(5)
H8N H 0.2373 0.2330 0.7970
H9N H 0.2871 0.2986 0.7568
H10N H 0.2760 0.2421 0.6794
C7N C 0.4531(3) 0.3105(2) 0.6307(4)
C8N C 0.42072(27) 0.31904(19) 0.7216(4)
C9N C 0.4249(3) 0.3753(2) 0.6946(4)
C10N C 0.4638(3) 0.2591(2) 0.6070(5)
H14N H 0.4895 0.2681 0.5368
H15N H 0.4832 0.2531 0.6764
H16N H 0.4256 0.2227 0.5924
C11N C 0.4001(3) 0.4078(2) 0.7651(5)
H20N H 0.4102 0.4453 0.7248
H21N H 0.3568 0.3829 0.7710
H22N H 0.4175 0.4165 0.8453
N4N N 0.45766(23) 0.40004(16) 0.5934(3)
N5N N 0.47429(24) 0.35925(17) 0.5579(3)
H26N H 0.4963 0.3642 0.4947
Fe1E Fe 0.6667 0.8333 -0.1667
Fe1N Fe 0.3333 0.1667 1.1667
S1E S 0.85942(8) 1.00130(6) -0.04362(12)
C1E C 0.79561(28) 0.9400(2) -0.0711(4)
N1E N 0.75030(24) 0.89693(17) -0.0941(3)
S1H S 0.47392(8) 0.66536(6) -0.28972(12)
C1H C 0.53773(28) 0.7266(2) -0.2623(4)
N1H N 0.58304(24) 0.76973(17) -0.2393(3)
N2H N 0.68850(23) 0.88312(17) -0.3468(3)
N3H N 0.64068(24) 0.88351(17) -0.3995(3)
H1H H 0.6043 0.8637 -0.3713
C2H C 0.7360(3) 0.9193(2) -0.4171(4)
C3H C 0.71758(28) 0.9427(2) -0.5155(4)
C4H C 0.6557(3) 0.9178(2) -0.4999(4)
C5H C 0.7986(3) 0.9313(2) -0.3925(4)
H2H H 0.7985 0.9095 -0.3211
H3H H 0.8127 0.9182 -0.4608
H4H H 0.8252 0.9741 -0.3798
C6H C 0.6101(4) 0.9233(3) -0.5731(5)
H8H H 0.5707 0.8996 -0.5364
H9H H 0.6205 0.9652 -0.5766
H10H H 0.6094 0.9087 -0.6540
C7H C 0.7865(3) 0.9771(2) -0.7027(4)
C8H C 0.75406(27) 0.98570(19) -0.6118(4)
C9H C 0.7583(3) 1.0419(2) -0.6388(4)
C10H C 0.7972(3) 0.9257(2) -0.7264(5)
H14H H 0.8229 0.9347 -0.7966
H15H H 0.8166 0.9197 -0.6570
H16H H 0.7590 0.8893 -0.7410
C11H C 0.7335(3) 1.0744(2) -0.5683(5)
H20H H 0.7436 1.1119 -0.6086
H21H H 0.6902 1.0495 -0.5624
H22H H 0.7509 1.0831 -0.4881
N4H N 0.79100(23) 1.06670(16) -0.7400(3)
N5H N 0.80763(24) 1.02591(17) -0.7755(3)
H26H H 0.8297 1.0308 -0.8387
N2P N 0.80537(16) 0.68850(23) -0.6532(3)
N3P N 0.75716(17) 0.64068(24) -0.6005(3)
H1P H 0.7405 0.6043 -0.6287
C2P C 0.8166(2) 0.7360(3) -0.5829(4)
C3P C 0.77484(19) 0.71758(28) -0.4845(4)
C4P C 0.7378(2) 0.6557(3) -0.5001(4)
C5P C 0.8672(2) 0.7986(3) -0.6075(4)
H2P H 0.8889 0.7985 -0.6789
H3P H 0.8944 0.8127 -0.5392
H4P H 0.8510 0.8252 -0.6202
C6P C 0.6867(2) 0.6101(4) -0.4269(5)
H8P H 0.6710 0.5707 -0.4636
H9P H 0.6552 0.6205 -0.4234
H10P H 0.7006 0.6094 -0.3460
C7P C 0.8093(2) 0.7865(3) -0.2973(4)
C8P C 0.76835(19) 0.75406(27) -0.3882(4)
C9P C 0.7163(2) 0.7583(3) -0.3612(4)
C10P C 0.8714(2) 0.7972(3) -0.2736(5)
H14P H 0.8881 0.8229 -0.2034
H15P H 0.8968 0.8166 -0.3430
H16P H 0.8696 0.7590 -0.2590
C11P C 0.6590(2) 0.7335(3) -0.4317(5)
H20P H 0.6316 0.7436 -0.3914
H21P H 0.6406 0.6902 -0.4376
H22P H 0.6677 0.7509 -0.5119
N4P N 0.72429(17) 0.79100(23) -0.2600(3)
N5P N 0.78171(17) 0.80763(24) -0.2245(3)
H26P H 0.7988 0.8297 -0.1613
S1N S 0.14058(8) -0.00130(6) 1.04362(12)
C1N C 0.20439(28) 0.0600(2) 1.0711(4)
N1N N 0.24970(24) 0.10307(17) 1.0941(3)
S1Q S 0.52608(8) 0.33464(6) 1.28972(12)
C1Q C 0.46227(28) 0.2734(2) 1.2623(4)
N1Q N 0.41696(24) 0.23027(17) 1.2393(3)
Fe1M Fe 0.8333 0.6667 1.1667
Fe1D Fe 0.1667 0.3333 -0.1667
N4J N 0.60904(17) 0.87567(23) -0.0733(3)
N2Q N 0.31150(23) 0.11688(17) 1.3468(3)
N4A N 0.39096(17) 0.12433(23) 1.0733(3)
N4G N 0.27571(17) 0.20900(23) 1.2600(3)
Fe1F Fe 0.8333 1.1667 -0.8333
Fe1M_2 Fe 0.8333 0.6667 -0.8333
loop_
_geom_bond_atom_site_label_1
_geom_bond_atom_site_label_2
_geom_bond_site_symmetry_1
_geom_bond_site_symmetry_2
Fe1 N1 1_555 1_555
S1 C1 1_555 1_555
C1 N1 1_555 1_555
N2 Fe1 1_555 1_555
N3 N2 1_555 1_555
H1 N3 1_555 1_555
C2 N2 1_555 1_555
C3 C2 1_555 1_555
C4 N3 1_555 1_555
C5 C2 1_555 1_555
H2 C5 1_555 1_555
H3 C5 1_555 1_555
H4 C5 1_555 1_555
C6 C4 1_555 1_555
H8 C6 1_555 1_555
H9 C6 1_555 1_555
H10 C6 1_555 1_555
C7 C8 1_555 1_555
C8 C3 1_555 1_555
C9 C8 1_555 1_555
C10 C7 1_555 1_555
H14 C10 1_555 1_555
H15 C10 1_555 1_555
H16 C10 1_555 1_555
C11 C9 1_555 1_555
H20 C11 1_555 1_555
H21 C11 1_555 1_555
H22 C11 1_555 1_555
N4 C9 1_555 1_555
N5 C7 1_555 1_555
H26 N5 1_555 1_555
C12 C13 1_555 1_555
C13 N6 1_555 1_555
C13A C12 1_555 1_555
C13B C12 1_555 1_555
N6A C13A 1_555 1_555
N6B C13B 1_555 1_555
S1I C1I 1_555 1_555
C1I N1I 1_555 1_555
N1I Fe1 1_555 1_555
N2I Fe1 1_555 1_555
N3I N2I 1_555 1_555
H1I N3I 1_555 1_555
C2I N2I 1_555 1_555
C3I C2I 1_555 1_555
C4I N3I 1_555 1_555
C5I C2I 1_555 1_555
H2I C5I 1_555 1_555
H3I C5I 1_555 1_555
H4I C5I 1_555 1_555
C6I C4I 1_555 1_555
H8I C6I 1_555 1_555
H9I C6I 1_555 1_555
H10I C6I 1_555 1_555
C7I C8I 1_555 1_555
C8I C3I 1_555 1_555
C9I C8I 1_555 1_555
C10I C7I 1_555 1_555
H14I C10I 1_555 1_555
H15I C10I 1_555 1_555
H16I C10I 1_555 1_555
C11I C9I 1_555 1_555
H20I C11I 1_555 1_555
H21I C11I 1_555 1_555
H22I C11I 1_555 1_555
N4I C9I 1_555 1_555
N5I C7I 1_555 1_555
H26I N5I 1_555 1_555
N2E N3E 1_555 1_555
N3E H1E 1_555 1_555
C2E N2E 1_555 1_555
C3E C2E 1_555 1_555
C4E N3E 1_555 1_555
C5E C2E 1_555 1_555
H2E C5E 1_555 1_555
H3E C5E 1_555 1_555
H4E C5E 1_555 1_555
C6E C4E 1_555 1_555
H8E C6E 1_555 1_555
H9E C6E 1_555 1_555
H10E C6E 1_555 1_555
C7E C8E 1_555 1_555
C8E C3E 1_555 1_555
C9E C8E 1_555 1_555
C10E C7E 1_555 1_555
H14E C10E 1_555 1_555
H15E C10E 1_555 1_555
H16E C10E 1_555 1_555
C11E C9E 1_555 1_555
H20E C11E 1_555 1_555
H21E C11E 1_555 1_555
H22E C11E 1_555 1_555
N4E Fe1 1_555 1_555
N5E C7E 1_555 1_555
H26E N5E 1_555 1_555
N2N N3N 1_555 1_555
N3N H1N 1_555 1_555
C2N N2N 1_555 1_555
C3N C2N 1_555 1_555
C4N N3N 1_555 1_555
C5N C2N 1_555 1_555
H2N C5N 1_555 1_555
H3N C5N 1_555 1_555
H4N C5N 1_555 1_555
C6N C4N 1_555 1_555
H8N C6N 1_555 1_555
H9N C6N 1_555 1_555
H10N C6N 1_555 1_555
C7N C8N 1_555 1_555
C8N C3N 1_555 1_555
C9N C8N 1_555 1_555
C10N C7N 1_555 1_555
H14N C10N 1_555 1_555
H15N C10N 1_555 1_555
H16N C10N 1_555 1_555
C11N C9N 1_555 1_555
H20N C11N 1_555 1_555
H21N C11N 1_555 1_555
H22N C11N 1_555 1_555
N4N Fe1 1_555 1_555
N5N C7N 1_555 1_555
H26N N5N 1_555 1_555
Fe1E N2E 1_555 1_555
Fe1N N2N 1_555 1_555
S1E C1E 1_555 1_555
C1E N1E 1_555 1_555
N1E Fe1E 1_555 1_555
S1H C1H 1_555 1_555
C1H N1H 1_555 1_555
N1H Fe1E 1_555 1_555
N2H Fe1E 1_555 1_555
N3H N2H 1_555 1_555
H1H N3H 1_555 1_555
C2H N2H 1_555 1_555
C3H C2H 1_555 1_555
C4H N3H 1_555 1_555
C5H C2H 1_555 1_555
H2H C5H 1_555 1_555
H3H C5H 1_555 1_555
H4H C5H 1_555 1_555
C6H C4H 1_555 1_555
H8H C6H 1_555 1_555
H9H C6H 1_555 1_555
H10H C6H 1_555 1_555
C7H C8H 1_555 1_555
C8H C3H 1_555 1_555
C9H C8H 1_555 1_555
C10H C7H 1_555 1_555
H14H C10H 1_555 1_555
H15H C10H 1_555 1_555
H16H C10H 1_555 1_555
C11H C9H 1_555 1_555
H20H C11H 1_555 1_555
H21H C11H 1_555 1_555
H22H C11H 1_555 1_555
N4H C9H 1_555 1_555
N5H C7H 1_555 1_555
H26H N5H 1_555 1_555
N2P N3P 1_555 1_555
N3P H1P 1_555 1_555
C2P N2P 1_555 1_555
C3P C2P 1_555 1_555
C4P N3P 1_555 1_555
C5P C2P 1_555 1_555
H2P C5P 1_555 1_555
H3P C5P 1_555 1_555
H4P C5P 1_555 1_555
C6P C4P 1_555 1_555
H8P C6P 1_555 1_555
H9P C6P 1_555 1_555
H10P C6P 1_555 1_555
C7P C8P 1_555 1_555
C8P C3P 1_555 1_555
C9P C8P 1_555 1_555
C10P C7P 1_555 1_555
H14P C10P 1_555 1_555
H15P C10P 1_555 1_555
H16P C10P 1_555 1_555
C11P C9P 1_555 1_555
H20P C11P 1_555 1_555
H21P C11P 1_555 1_555
H22P C11P 1_555 1_555
N4P Fe1E 1_555 1_555
N5P C7P 1_555 1_555
H26P N5P 1_555 1_555
S1N C1N 1_555 1_555
C1N N1N 1_555 1_555
N1N Fe1N 1_555 1_555
S1Q C1Q 1_555 1_555
C1Q N1Q 1_555 1_555
N1Q Fe1N 1_555 1_555
Fe1M N4 1_555 1_555
Fe1D N4I 1_555 1_555
N4J Fe1E 1_555 1_555
N2Q Fe1N 1_555 1_555
N4A Fe1N 1_555 1_555
N4G Fe1N 1_555 1_555
Fe1F N4H 1_555 1_555
Fe1M_2 N2P 1_555 1_555
C3 C4 1_555 1_555
N4 N5 1_555 1_555
C13 C13A 1_555 1_555
C13 C13B 1_555 1_555
C13A C13B 1_555 1_555
C3I C4I 1_555 1_555
N4I N5I 1_555 1_555
C3E C4E 1_555 1_555
C9E N4E 1_555 1_555
N4E N5E 1_555 1_555
C3N C4N 1_555 1_555
C9N N4N 1_555 1_555
N4N N5N 1_555 1_555
C3H C4H 1_555 1_555
N4H N5H 1_555 1_555
C3P C4P 1_555 1_555
C9P N4P 1_555 1_555
N4P N5P 1_555 1_555

#END
