
#######################################################################
#
#                 Cambridge Crystallographic Data Centre
#                                CCDC 
#
#######################################################################
#
# If this CIF has been generated from an entry in the Cambridge 
# Structural Database, then it will include bibliographic, chemical, 
# crystal, experimental, refinement or atomic coordinate data resulting 
# from the CCDC's data processing and validation procedures.
#
#######################################################################

data_HAJLEK
_chemical_formula_moiety         '(C70 H87 Fe3 N33 S6)n'
_symmetry_cell_setting           rhombohedral
_symmetry_space_group_name_H-M   'R -3'
_symmetry_Int_Tables_number      148
_space_group_name_Hall           '-R 3'
loop_
_symmetry_equiv_pos_site_id
_symmetry_equiv_pos_as_xyz
1 x,y,z
2 -y,x-y,z
3 -x+y,-x,z
4 2/3+x,1/3+y,1/3+z
5 2/3-y,1/3+x-y,1/3+z
6 2/3-x+y,1/3-x,1/3+z
7 1/3+x,2/3+y,2/3+z
8 2/3+y,1/3-x+y,1/3-z
9 2/3+x-y,1/3+x,1/3-z
10 -x,-y,-z
11 y,-x+y,-z
12 x-y,x,-z
13 1/3-x,2/3-y,2/3-z
14 1/3+y,2/3-x+y,2/3-z
15 1/3+x-y,2/3+x,2/3-z
16 2/3-x,1/3-y,1/3-z
17 1/3-y,2/3+x-y,2/3+z
18 1/3-x+y,2/3-x,2/3+z
_cell_length_a                   25.283(17)
_cell_length_b                   25.283(17)
_cell_length_c                   10.962(11)
_cell_angle_alpha                90
_cell_angle_beta                 90
_cell_angle_gamma                120.00
_cell_volume                     6068.45
loop_
_atom_site_label
_atom_site_type_symbol
_atom_site_fract_x
_atom_site_fract_y
_atom_site_fract_z
C12 C 0.3333 0.6667 -0.1259(18)
H28 H 0.3756 0.6851 -0.1547
C13 C 0.3261(15) 0.6324(12) -0.021(3)
N6 N 0.3306(17) 0.6082(16) 0.071(3)
H28A H 0.3149 0.6905 -0.1547
H28B H 0.3095 0.6244 -0.1547
C13A C 0.3676(12) 0.6937(19) -0.021(3)
C13B C 0.3063(19) 0.6739(15) -0.021(3)
N6A N 0.3918(16) 0.7224(23) 0.071(3)
N6B N 0.2776(23) 0.6694(17) 0.071(3)
Fe1 Fe 0.5000 0.5000 0.5000
S1 S 0.33022(4) 0.52617(5) 0.62433(9)
C1 C 0.39166(17) 0.52260(17) 0.5957(3)
N1 N 0.43528(15) 0.51991(15) 0.5729(3)
N2 N 0.54818(14) 0.52780(14) 0.6809(3)
N3 N 0.54900(14) 0.57680(14) 0.7330(3)
H1 H 0.5289 0.5941 0.7037
C2 C 0.58474(18) 0.51637(17) 0.7525(3)
C3 C 0.60904(17) 0.55930(17) 0.8497(3)
C4 C 0.58387(17) 0.59633(18) 0.8343(3)
C5 C 0.5966(2) 0.46485(19) 0.7295(4)
H2 H 0.5743 0.4425 0.6564
H3 H 0.5827 0.4372 0.7998
H4 H 0.6404 0.4812 0.7172
C6 C 0.5901(2) 0.6483(2) 0.9073(4)
H8 H 0.5658 0.6645 0.8699
H9 H 0.6331 0.6805 0.9100
H10 H 0.5754 0.6345 0.9904
C7 C 0.64507(18) 0.52440(17) 1.0368(3)
C8 C 0.65254(17) 0.56556(17) 0.9466(3)
C9 C 0.70952(17) 0.61864(17) 0.9750(3)
C10 C 0.5934(2) 0.46115(19) 1.0588(4)
H14 H 0.6024 0.4439 1.1306
H15 H 0.5881 0.4357 0.9874
H16 H 0.5558 0.4625 1.0729
C11 C 0.74110(19) 0.67682(19) 0.9043(4)
H20 H 0.7795 0.7053 0.9449
H21 H 0.7148 0.6950 0.9001
H22 H 0.7497 0.6684 0.8216
N4 N 0.73489(14) 0.61025(14) 1.0750(3)
N5 N 0.69407(14) 0.55167(14) 1.1104(3)
H26 H 0.6994 0.5338 1.1744
S1I S 0.66978(4) 0.47383(5) 0.37567(9)
C1I C 0.60834(17) 0.47740(17) 0.4043(3)
N1I N 0.56472(15) 0.48009(15) 0.4271(3)
N2I N 0.45182(14) 0.47220(14) 0.3191(3)
N3I N 0.45100(14) 0.42320(14) 0.2670(3)
H1I H 0.4711 0.4059 0.2963
C2I C 0.41526(18) 0.48363(17) 0.2475(3)
C3I C 0.39096(17) 0.44070(17) 0.1503(3)
C4I C 0.41613(17) 0.40367(18) 0.1657(3)
C5I C 0.4034(2) 0.53515(19) 0.2705(4)
H2I H 0.4257 0.5575 0.3436
H3I H 0.4173 0.5628 0.2002
H4I H 0.3596 0.5188 0.2828
C6I C 0.4099(2) 0.3517(2) 0.0927(4)
H8I H 0.4342 0.3355 0.1301
H9I H 0.3669 0.3195 0.0900
H10I H 0.4246 0.3655 0.0096
C7I C 0.35493(18) 0.47560(17) -0.0368(3)
C8I C 0.34746(17) 0.43444(17) 0.0534(3)
C9I C 0.29048(17) 0.38136(17) 0.0250(3)
C10I C 0.4066(2) 0.53885(19) -0.0588(4)
H14I H 0.3976 0.5561 -0.1306
H15I H 0.4119 0.5643 0.0126
H16I H 0.4442 0.5375 -0.0729
C11I C 0.25890(19) 0.32318(19) 0.0957(4)
H20I H 0.2205 0.2947 0.0551
H21I H 0.2852 0.3050 0.0999
H22I H 0.2503 0.3316 0.1784
N4I N 0.26511(14) 0.38975(14) -0.0750(3)
N5I N 0.30593(14) 0.44833(14) -0.1104(3)
H26I H 0.3006 0.4662 -0.1744
N2E N 0.64629(20) 0.78515(14) 0.0142(3)
N3E N 0.69447(20) 0.78433(14) 0.0663(3)
H1E H 0.7319 0.8044 0.0370
C2E C 0.59830(25) 0.74859(18) 0.0858(3)
C3E C 0.61693(24) 0.72429(17) 0.1830(3)
C4E C 0.67913(25) 0.74946(17) 0.1676(3)
C5E C 0.53492(28) 0.7367(2) 0.0628(4)
H2E H 0.5349 0.7590 -0.0103
H3E H 0.5212 0.7506 0.1331
H4E H 0.5075 0.6929 0.0505
C6E C 0.7249(3) 0.7432(2) 0.2406(4)
H8E H 0.7654 0.7675 0.2032
H9E H 0.7141 0.7002 0.2433
H10E H 0.7258 0.7579 0.3237
C7E C 0.54600(25) 0.68826(18) 0.3701(3)
C8E C 0.57969(24) 0.68079(17) 0.2799(3)
C9E C 0.57579(24) 0.62381(17) 0.3083(3)
C10E C 0.53442(28) 0.7399(2) 0.3921(4)
H14E H 0.5082 0.7309 0.4639
H15E H 0.5143 0.7452 0.3207
H16E H 0.5734 0.7775 0.4062
C11E C 0.60239(27) 0.59223(19) 0.2376(4)
H20E H 0.5925 0.5538 0.2782
H21E H 0.6469 0.6185 0.2334
H22E H 0.5854 0.5836 0.1549
N4E N 0.54203(20) 0.59844(14) 0.4083(3)
N5E N 0.52427(20) 0.63926(14) 0.4437(3)
H26E H 0.5011 0.6339 0.5077
N2N N 0.35371(20) 0.21485(14) 0.9858(3)
N3N N 0.30553(20) 0.21567(14) 0.9337(3)
H1N H 0.2681 0.1956 0.9630
C2N C 0.40170(25) 0.25141(18) 0.9142(3)
C3N C 0.38307(24) 0.27571(17) 0.8170(3)
C4N C 0.32087(25) 0.25054(17) 0.8324(3)
C5N C 0.46508(28) 0.2633(2) 0.9372(4)
H2N H 0.4651 0.2410 1.0103
H3N H 0.4788 0.2494 0.8669
H4N H 0.4925 0.3071 0.9495
C6N C 0.2751(3) 0.2568(2) 0.7594(4)
H8N H 0.2346 0.2325 0.7968
H9N H 0.2859 0.2998 0.7567
H10N H 0.2742 0.2421 0.6763
C7N C 0.45400(25) 0.31174(18) 0.6299(3)
C8N C 0.42031(24) 0.31921(17) 0.7201(3)
C9N C 0.42421(24) 0.37619(17) 0.6917(3)
C10N C 0.46558(28) 0.2601(2) 0.6079(4)
H14N H 0.4918 0.2691 0.5361
H15N H 0.4857 0.2548 0.6793
H16N H 0.4266 0.2225 0.5938
C11N C 0.39761(27) 0.40777(19) 0.7624(4)
H20N H 0.4075 0.4462 0.7218
H21N H 0.3531 0.3815 0.7666
H22N H 0.4146 0.4164 0.8451
N4N N 0.45797(20) 0.40156(14) 0.5917(3)
N5N N 0.47573(20) 0.36074(14) 0.5563(3)
H26N H 0.4989 0.3661 0.4923
Fe1E Fe 0.6667 0.8333 -0.1667
Fe1N Fe 0.3333 0.1667 1.1667
S1E S 0.86262(6) 1.00311(4) -0.04234(9)
C1E C 0.79761(24) 0.94167(17) -0.0710(3)
N1E N 0.75130(21) 0.89805(15) -0.0938(3)
S1H S 0.47072(6) 0.66355(4) -0.29100(9)
C1H C 0.53573(24) 0.72499(17) -0.2624(3)
N1H N 0.58204(21) 0.76861(15) -0.2396(3)
N2H N 0.68705(20) 0.88151(14) -0.3476(3)
N3H N 0.63887(20) 0.88233(14) -0.3997(3)
H1H H 0.6015 0.8622 -0.3704
C2H C 0.73504(25) 0.91807(18) -0.4192(3)
C3H C 0.71641(24) 0.94237(17) -0.5164(3)
C4H C 0.65421(25) 0.91720(17) -0.5010(3)
C5H C 0.79842(28) 0.9299(2) -0.3962(4)
H2H H 0.7985 0.9076 -0.3231
H3H H 0.8122 0.9160 -0.4665
H4H H 0.8259 0.9737 -0.3839
C6H C 0.6085(3) 0.9234(2) -0.5740(4)
H8H H 0.5680 0.8991 -0.5366
H9H H 0.6193 0.9664 -0.5767
H10H H 0.6076 0.9087 -0.6571
C7H C 0.78734(25) 0.97840(18) -0.7035(3)
C8H C 0.75365(24) 0.98587(17) -0.6133(3)
C9H C 0.75755(24) 1.04285(17) -0.6417(3)
C10H C 0.79892(28) 0.9267(2) -0.7255(4)
H14H H 0.8252 0.9357 -0.7973
H15H H 0.8191 0.9214 -0.6541
H16H H 0.7600 0.8891 -0.7396
C11H C 0.73095(27) 1.07443(19) -0.5710(4)
H20H H 0.7409 1.1128 -0.6116
H21H H 0.6865 1.0481 -0.5668
H22H H 0.7480 1.0830 -0.4883
N4H N 0.79131(20) 1.06822(14) -0.7417(3)
N5H N 0.80907(20) 1.02740(14) -0.7771(3)
H26H H 0.8323 1.0327 -0.8411
N2P N 0.80553(14) 0.68705(20) -0.6524(3)
N3P N 0.75653(14) 0.63887(20) -0.6003(3)
H1P H 0.7392 0.6015 -0.6296
C2P C 0.81696(17) 0.73504(25) -0.5808(3)
C3P C 0.77403(17) 0.71641(24) -0.4836(3)
C4P C 0.73700(18) 0.65421(25) -0.4990(3)
C5P C 0.86848(19) 0.79842(28) -0.6038(4)
H2P H 0.8908 0.7985 -0.6769
H3P H 0.8961 0.8122 -0.5335
H4P H 0.8521 0.8259 -0.6161
C6P C 0.6850(2) 0.6085(3) -0.4260(4)
H8P H 0.6688 0.5680 -0.4634
H9P H 0.6528 0.6193 -0.4233
H10P H 0.6988 0.6076 -0.3429
C7P C 0.80893(17) 0.78734(25) -0.2965(3)
C8P C 0.76777(17) 0.75365(24) -0.3867(3)
C9P C 0.71469(17) 0.75755(24) -0.3583(3)
C10P C 0.87218(19) 0.79892(28) -0.2745(4)
H14P H 0.8894 0.8252 -0.2027
H15P H 0.8976 0.8191 -0.3459
H16P H 0.8708 0.7600 -0.2604
C11P C 0.65651(19) 0.73095(27) -0.4290(4)
H20P H 0.6280 0.7409 -0.3884
H21P H 0.6383 0.6865 -0.4332
H22P H 0.6649 0.7480 -0.5117
N4P N 0.72308(14) 0.79131(20) -0.2583(3)
N5P N 0.78166(14) 0.80907(20) -0.2229(3)
H26P H 0.7995 0.8323 -0.1589
S1N S 0.13738(6) -0.00311(4) 1.04234(9)
C1N C 0.20239(24) 0.05833(17) 1.0710(3)
N1N N 0.24870(21) 0.10195(15) 1.0938(3)
S1Q S 0.52928(6) 0.33645(4) 1.29100(9)
C1Q C 0.46427(24) 0.27501(17) 1.2624(3)
N1Q N 0.41796(21) 0.23139(15) 1.2396(3)
Fe1M Fe 0.8333 0.6667 1.1667
Fe1D Fe 0.1667 0.3333 -0.1667
N4J N 0.61025(14) 0.87536(20) -0.0750(3)
N2Q N 0.31295(20) 0.11849(14) 1.3476(3)
N4A N 0.38975(14) 0.12464(20) 1.0750(3)
N4G N 0.27692(14) 0.20869(20) 1.2583(3)
Fe1F Fe 0.8333 1.1667 -0.8333
Fe1M_2 Fe 0.8333 0.6667 -0.8333
loop_
_geom_bond_atom_site_label_1
_geom_bond_atom_site_label_2
_geom_bond_site_symmetry_1
_geom_bond_site_symmetry_2
Fe1 N1 1_555 1_555
S1 C1 1_555 1_555
C1 N1 1_555 1_555
N2 Fe1 1_555 1_555
N3 N2 1_555 1_555
H1 N3 1_555 1_555
C2 N2 1_555 1_555
C3 C2 1_555 1_555
C4 N3 1_555 1_555
C5 C2 1_555 1_555
H2 C5 1_555 1_555
H3 C5 1_555 1_555
H4 C5 1_555 1_555
C6 C4 1_555 1_555
H8 C6 1_555 1_555
H9 C6 1_555 1_555
H10 C6 1_555 1_555
C7 C8 1_555 1_555
C8 C3 1_555 1_555
C9 C8 1_555 1_555
C10 C7 1_555 1_555
H14 C10 1_555 1_555
H15 C10 1_555 1_555
H16 C10 1_555 1_555
C11 C9 1_555 1_555
H20 C11 1_555 1_555
H21 C11 1_555 1_555
H22 C11 1_555 1_555
N4 C9 1_555 1_555
N5 C7 1_555 1_555
H26 N5 1_555 1_555
C12 H28 1_555 1_555
C13 C12 1_555 1_555
N6 C13 1_555 1_555
H28A C12 1_555 1_555
H28B C12 1_555 1_555
C13A C12 1_555 1_555
C13B C12 1_555 1_555
N6A C13A 1_555 1_555
N6B C13B 1_555 1_555
S1I C1I 1_555 1_555
C1I N1I 1_555 1_555
N1I Fe1 1_555 1_555
N2I Fe1 1_555 1_555
N3I N2I 1_555 1_555
H1I N3I 1_555 1_555
C2I N2I 1_555 1_555
C3I C2I 1_555 1_555
C4I N3I 1_555 1_555
C5I C2I 1_555 1_555
H2I C5I 1_555 1_555
H3I C5I 1_555 1_555
H4I C5I 1_555 1_555
C6I C4I 1_555 1_555
H8I C6I 1_555 1_555
H9I C6I 1_555 1_555
H10I C6I 1_555 1_555
C7I C8I 1_555 1_555
C8I C3I 1_555 1_555
C9I C8I 1_555 1_555
C10I C7I 1_555 1_555
H14I C10I 1_555 1_555
H15I C10I 1_555 1_555
H16I C10I 1_555 1_555
C11I C9I 1_555 1_555
H20I C11I 1_555 1_555
H21I C11I 1_555 1_555
H22I C11I 1_555 1_555
N4I C9I 1_555 1_555
N5I C7I 1_555 1_555
H26I N5I 1_555 1_555
N2E N3E 1_555 1_555
N3E H1E 1_555 1_555
C2E N2E 1_555 1_555
C3E C2E 1_555 1_555
C4E N3E 1_555 1_555
C5E C2E 1_555 1_555
H2E C5E 1_555 1_555
H3E C5E 1_555 1_555
H4E C5E 1_555 1_555
C6E C4E 1_555 1_555
H8E C6E 1_555 1_555
H9E C6E 1_555 1_555
H10E C6E 1_555 1_555
C7E C8E 1_555 1_555
C8E C3E 1_555 1_555
C9E C8E 1_555 1_555
C10E C7E 1_555 1_555
H14E C10E 1_555 1_555
H15E C10E 1_555 1_555
H16E C10E 1_555 1_555
C11E C9E 1_555 1_555
H20E C11E 1_555 1_555
H21E C11E 1_555 1_555
H22E C11E 1_555 1_555
N4E Fe1 1_555 1_555
N5E C7E 1_555 1_555
H26E N5E 1_555 1_555
N2N N3N 1_555 1_555
N3N H1N 1_555 1_555
C2N N2N 1_555 1_555
C3N C2N 1_555 1_555
C4N N3N 1_555 1_555
C5N C2N 1_555 1_555
H2N C5N 1_555 1_555
H3N C5N 1_555 1_555
H4N C5N 1_555 1_555
C6N C4N 1_555 1_555
H8N C6N 1_555 1_555
H9N C6N 1_555 1_555
H10N C6N 1_555 1_555
C7N C8N 1_555 1_555
C8N C3N 1_555 1_555
C9N C8N 1_555 1_555
C10N C7N 1_555 1_555
H14N C10N 1_555 1_555
H15N C10N 1_555 1_555
H16N C10N 1_555 1_555
C11N C9N 1_555 1_555
H20N C11N 1_555 1_555
H21N C11N 1_555 1_555
H22N C11N 1_555 1_555
N4N Fe1 1_555 1_555
N5N C7N 1_555 1_555
H26N N5N 1_555 1_555
Fe1E N2E 1_555 1_555
Fe1N N2N 1_555 1_555
S1E C1E 1_555 1_555
C1E N1E 1_555 1_555
N1E Fe1E 1_555 1_555
S1H C1H 1_555 1_555
C1H N1H 1_555 1_555
N1H Fe1E 1_555 1_555
N2H Fe1E 1_555 1_555
N3H N2H 1_555 1_555
H1H N3H 1_555 1_555
C2H N2H 1_555 1_555
C3H C2H 1_555 1_555
C4H N3H 1_555 1_555
C5H C2H 1_555 1_555
H2H C5H 1_555 1_555
H3H C5H 1_555 1_555
H4H C5H 1_555 1_555
C6H C4H 1_555 1_555
H8H C6H 1_555 1_555
H9H C6H 1_555 1_555
H10H C6H 1_555 1_555
C7H C8H 1_555 1_555
C8H C3H 1_555 1_555
C9H C8H 1_555 1_555
C10H C7H 1_555 1_555
H14H C10H 1_555 1_555
H15H C10H 1_555 1_555
H16H C10H 1_555 1_555
C11H C9H 1_555 1_555
H20H C11H 1_555 1_555
H21H C11H 1_555 1_555
H22H C11H 1_555 1_555
N4H C9H 1_555 1_555
N5H C7H 1_555 1_555
H26H N5H 1_555 1_555
N2P N3P 1_555 1_555
N3P H1P 1_555 1_555
C2P N2P 1_555 1_555
C3P C2P 1_555 1_555
C4P N3P 1_555 1_555
C5P C2P 1_555 1_555
H2P C5P 1_555 1_555
H3P C5P 1_555 1_555
H4P C5P 1_555 1_555
C6P C4P 1_555 1_555
H8P C6P 1_555 1_555
H9P C6P 1_555 1_555
H10P C6P 1_555 1_555
C7P C8P 1_555 1_555
C8P C3P 1_555 1_555
C9P C8P 1_555 1_555
C10P C7P 1_555 1_555
H14P C10P 1_555 1_555
H15P C10P 1_555 1_555
H16P C10P 1_555 1_555
C11P C9P 1_555 1_555
H20P C11P 1_555 1_555
H21P C11P 1_555 1_555
H22P C11P 1_555 1_555
N4P Fe1E 1_555 1_555
N5P C7P 1_555 1_555
H26P N5P 1_555 1_555
S1N C1N 1_555 1_555
C1N N1N 1_555 1_555
N1N Fe1N 1_555 1_555
S1Q C1Q 1_555 1_555
C1Q N1Q 1_555 1_555
N1Q Fe1N 1_555 1_555
Fe1M N4 1_555 1_555
Fe1D N4I 1_555 1_555
N4J Fe1E 1_555 1_555
N2Q Fe1N 1_555 1_555
N4A Fe1N 1_555 1_555
N4G Fe1N 1_555 1_555
Fe1F N4H 1_555 1_555
Fe1M_2 N2P 1_555 1_555
C3 C4 1_555 1_555
N4 N5 1_555 1_555
C13 C13A 1_555 1_555
C13 C13B 1_555 1_555
C13A C13B 1_555 1_555
C3I C4I 1_555 1_555
N4I N5I 1_555 1_555
C3E C4E 1_555 1_555
C9E N4E 1_555 1_555
N4E N5E 1_555 1_555
C3N C4N 1_555 1_555
C9N N4N 1_555 1_555
N4N N5N 1_555 1_555
C3H C4H 1_555 1_555
N4H N5H 1_555 1_555
C3P C4P 1_555 1_555
C9P N4P 1_555 1_555
N4P N5P 1_555 1_555

#END
