
#######################################################################
#
#                 Cambridge Crystallographic Data Centre
#                                CCDC 
#
#######################################################################
#
# If this CIF has been generated from an entry in the Cambridge 
# Structural Database, then it will include bibliographic, chemical, 
# crystal, experimental, refinement or atomic coordinate data resulting 
# from the CCDC's data processing and validation procedures.
#
#######################################################################

data_HAJLOU
_chemical_formula_moiety         '(C70 H84 Fe3 N33 S6)n'
_symmetry_cell_setting           rhombohedral
_symmetry_space_group_name_H-M   'R -3'
_symmetry_Int_Tables_number      148
_space_group_name_Hall           '-R 3'
loop_
_symmetry_equiv_pos_site_id
_symmetry_equiv_pos_as_xyz
1 x,y,z
2 -y,x-y,z
3 -x+y,-x,z
4 1/3+x,2/3+y,2/3+z
5 1/3-y,2/3+x-y,2/3+z
6 1/3-x+y,2/3-x,2/3+z
7 2/3+x,1/3+y,1/3+z
8 2/3-y,1/3+x-y,1/3+z
9 2/3-x+y,1/3-x,1/3+z
10 -x,-y,-z
11 y,-x+y,-z
12 x-y,x,-z
13 2/3-x,1/3-y,1/3-z
14 2/3+y,1/3-x+y,1/3-z
15 2/3+x-y,1/3+x,1/3-z
16 1/3-x,2/3-y,2/3-z
17 1/3+y,2/3-x+y,2/3-z
18 1/3+x-y,2/3+x,2/3-z
_cell_length_a                   25.3021(14)
_cell_length_b                   25.3021(14)
_cell_length_c                   10.9672(13)
_cell_angle_alpha                90
_cell_angle_beta                 90
_cell_angle_gamma                120.00
_cell_volume                     6080.5
loop_
_atom_site_label
_atom_site_type_symbol
_atom_site_fract_x
_atom_site_fract_y
_atom_site_fract_z
C12 C 0.3333 0.6667 -0.183(2)
C13 C 0.326(3) 0.6400(18) -0.070(4)
N6 N 0.319(2) 0.622(2) 0.023(5)
C13A C 0.3600(18) 0.6860(35) -0.070(4)
C13B C 0.3140(35) 0.674(3) -0.070(4)
N6A N 0.378(2) 0.697(3) 0.023(5)
N6B N 0.303(3) 0.681(2) 0.023(5)
Fe1 Fe 0.5000 0.5000 0.5000
S1 S 0.32957(3) 0.52450(3) 0.62357(6)
C1 C 0.39145(11) 0.52157(11) 0.5953(2)
N1 N 0.43555(10) 0.51963(9) 0.57268(18)
N2 N 0.54839(9) 0.52750(9) 0.68154(18)
N3 N 0.54910(9) 0.57656(9) 0.73348(18)
H1 H 0.5288 0.5936 0.7044
C2 C 0.58483(11) 0.51612(11) 0.7527(2)
C3 C 0.60915(11) 0.55889(11) 0.8500(2)
C4 C 0.58414(11) 0.59632(11) 0.8342(2)
C5 C 0.59663(13) 0.46479(12) 0.7284(2)
H2 H 0.5743 0.4426 0.6553
H3 H 0.5830 0.4369 0.7983
H4 H 0.6404 0.4812 0.7157
C6 C 0.59046(14) 0.64829(13) 0.9074(2)
H8 H 0.5663 0.6645 0.8701
H9 H 0.6335 0.6803 0.9100
H10 H 0.5758 0.6345 0.9904
C7 C 0.64529(11) 0.52404(11) 1.0366(2)
C8 C 0.65283(11) 0.56569(11) 0.9470(2)
C9 C 0.70937(11) 0.61846(11) 0.9745(2)
C10 C 0.59418(13) 0.46076(12) 1.0596(2)
H14 H 0.6036 0.4439 1.1314
H15 H 0.5890 0.4351 0.9885
H16 H 0.5564 0.4617 1.0739
C11 C 0.74075(12) 0.67665(12) 0.9046(2)
H20 H 0.7792 0.7050 0.9452
H21 H 0.7144 0.6948 0.9008
H22 H 0.7493 0.6685 0.8217
N4 N 0.73482(9) 0.61032(9) 1.07537(18)
N5 N 0.69458(9) 0.55201(9) 1.11035(18)
H26 H 0.7001 0.5344 1.1744
S1I S 0.67043(3) 0.47550(3) 0.37643(6)
C1I C 0.60855(11) 0.47843(11) 0.4047(2)
N1I N 0.56445(10) 0.48037(9) 0.42732(18)
N2I N 0.45161(9) 0.47250(9) 0.31846(18)
N3I N 0.45090(9) 0.42344(9) 0.26652(18)
H1I H 0.4712 0.4064 0.2956
C2I C 0.41517(11) 0.48388(11) 0.2473(2)
C3I C 0.39085(11) 0.44111(11) 0.1500(2)
C4I C 0.41586(11) 0.40368(11) 0.1658(2)
C5I C 0.40337(13) 0.53521(12) 0.2716(2)
H2I H 0.4257 0.5574 0.3447
H3I H 0.4170 0.5631 0.2017
H4I H 0.3596 0.5188 0.2843
C6I C 0.40954(14) 0.35171(13) 0.0926(2)
H8I H 0.4337 0.3355 0.1299
H9I H 0.3665 0.3197 0.0900
H10I H 0.4242 0.3655 0.0096
C7I C 0.35471(11) 0.47596(11) -0.0366(2)
C8I C 0.34717(11) 0.43431(11) 0.0530(2)
C9I C 0.29063(11) 0.38154(11) 0.0255(2)
C10I C 0.40582(13) 0.53924(12) -0.0596(2)
H14I H 0.3964 0.5561 -0.1314
H15I H 0.4110 0.5649 0.0115
H16I H 0.4436 0.5383 -0.0739
C11I C 0.25925(12) 0.32335(12) 0.0954(2)
H20I H 0.2208 0.2950 0.0548
H21I H 0.2856 0.3052 0.0992
H22I H 0.2507 0.3315 0.1783
N4I N 0.26518(9) 0.38968(9) -0.07537(18)
N5I N 0.30542(9) 0.44799(9) -0.11035(18)
H26I H 0.2999 0.4656 -0.1744
N2H N 0.64578(13) 0.78494(9) 0.01487(18)
N3H N 0.69413(13) 0.78423(9) 0.06681(18)
H1H H 0.7315 0.8045 0.0377
C2H C 0.59796(16) 0.74850(11) 0.0860(2)
C3H C 0.61641(16) 0.72418(11) 0.1833(2)
C4H C 0.67885(16) 0.74919(11) 0.1675(2)
C5H C 0.53483(18) 0.73670(13) 0.0617(2)
H2H H 0.5350 0.7590 -0.0114
H3H H 0.5206 0.7503 0.1316
H4H H 0.5075 0.6929 0.0490
C6H C 0.72450(19) 0.74287(14) 0.2407(2)
H8H H 0.7649 0.7670 0.2034
H9H H 0.7135 0.6998 0.2433
H10H H 0.7254 0.7575 0.3237
C7H C 0.54542(16) 0.68804(11) 0.3699(2)
C8H C 0.57953(16) 0.68050(11) 0.2803(2)
C9H C 0.57576(16) 0.62396(11) 0.3078(2)
C10H C 0.53325(18) 0.73915(13) 0.3929(2)
H14H H 0.5070 0.7297 0.4647
H15H H 0.5128 0.7443 0.3218
H16H H 0.5720 0.7769 0.4072
C11H C 0.60257(17) 0.59258(12) 0.2379(2)
H20H H 0.5925 0.5541 0.2785
H21H H 0.6471 0.6189 0.2341
H22H H 0.5859 0.5840 0.1550
N4H N 0.54217(13) 0.59851(9) 0.40870(18)
N5H N 0.52410(13) 0.63875(9) 0.44368(18)
H26H H 0.5010 0.6332 0.5077
N2Q N 0.35422(13) 0.21506(9) 0.98513(18)
N3Q N 0.30587(13) 0.21577(9) 0.93319(18)
H1Q H 0.2685 0.1955 0.9623
C2Q C 0.40204(16) 0.25150(11) 0.9140(2)
C3Q C 0.38359(16) 0.27582(11) 0.8167(2)
C4Q C 0.32115(16) 0.25081(11) 0.8325(2)
C5Q C 0.46517(18) 0.26330(13) 0.9383(2)
H2Q H 0.4650 0.2410 1.0114
H3Q H 0.4794 0.2497 0.8684
H4Q H 0.4925 0.3071 0.9510
C6Q C 0.27550(19) 0.25713(14) 0.7593(2)
H8Q H 0.2351 0.2330 0.7966
H9Q H 0.2865 0.3002 0.7567
H10Q H 0.2746 0.2425 0.6763
C7Q C 0.45458(16) 0.31196(11) 0.6301(2)
C8Q C 0.42047(16) 0.31950(11) 0.7197(2)
C9Q C 0.42424(16) 0.37604(11) 0.6922(2)
C10Q C 0.46675(18) 0.26085(13) 0.6071(2)
H14Q H 0.4930 0.2703 0.5353
H15Q H 0.4872 0.2557 0.6782
H16Q H 0.4280 0.2231 0.5928
C11Q C 0.39743(17) 0.40742(12) 0.7621(2)
H20Q H 0.4075 0.4459 0.7215
H21Q H 0.3529 0.3811 0.7659
H22Q H 0.4141 0.4160 0.8450
N4Q N 0.45783(13) 0.40149(9) 0.59130(18)
N5Q N 0.47590(13) 0.36125(9) 0.55632(18)
H26Q H 0.4990 0.3668 0.4923
Fe1H Fe 0.6667 0.8333 -0.1667
Fe1Q Fe 0.3333 0.1667 1.1667
S1H S 0.86160(4) 1.00376(3) -0.04310(6)
C1H C 0.79679(16) 0.94188(11) -0.0714(2)
N1H N 0.75075(13) 0.89778(10) -0.09399(18)
S1N S 0.47174(4) 0.66290(3) -0.29024(6)
C1N C 0.53655(16) 0.72478(11) -0.2620(2)
N1N N 0.58259(13) 0.76888(10) -0.23935(18)
N2N N 0.68756(13) 0.88172(9) -0.34821(18)
N3N N 0.63921(13) 0.88243(9) -0.40015(18)
H1N H 0.6019 0.8621 -0.3711
C2N C 0.73538(16) 0.91816(11) -0.4194(2)
C3N C 0.71693(16) 0.94248(11) -0.5167(2)
C4N C 0.65449(16) 0.91747(11) -0.5009(2)
C5N C 0.79851(18) 0.92996(13) -0.3951(2)
H2N H 0.7984 0.9076 -0.3220
H3N H 0.8128 0.9163 -0.4650
H4N H 0.8259 0.9737 -0.3824
C6N C 0.60884(19) 0.92379(14) -0.5741(2)
H8N H 0.5685 0.8996 -0.5368
H9N H 0.6199 0.9668 -0.5767
H10N H 0.6080 0.9091 -0.6571
C7N C 0.78792(16) 0.97862(11) -0.7033(2)
C8N C 0.75381(16) 0.98616(11) -0.6137(2)
C9N C 0.75758(16) 1.04270(11) -0.6412(2)
C10N C 0.80009(18) 0.92751(13) -0.7263(2)
H14N H 0.8264 0.9369 -0.7981
H15N H 0.8206 0.9223 -0.6552
H16N H 0.7614 0.8897 -0.7406
C11N C 0.73077(17) 1.07408(12) -0.5713(2)
H20N H 0.7409 1.1125 -0.6119
H21N H 0.6863 1.0477 -0.5675
H22N H 0.7475 1.0826 -0.4884
N4N N 0.79117(13) 1.06815(9) -0.74204(18)
N5N N 0.80924(13) 1.02791(9) -0.77702(18)
H26N H 0.8324 1.0334 -0.8411
N2D N 0.80583(9) 0.68756(13) -0.65179(18)
N3D N 0.75677(9) 0.63921(13) -0.59985(18)
H1D H 0.7397 0.6019 -0.6289
C2D C 0.81721(11) 0.73538(16) -0.5806(2)
C3D C 0.77444(11) 0.71693(16) -0.4833(2)
C4D C 0.73701(11) 0.65449(16) -0.4991(2)
C5D C 0.86854(12) 0.79851(18) -0.6049(2)
H2D H 0.8907 0.7984 -0.6780
H3D H 0.8964 0.8128 -0.5350
H4D H 0.8521 0.8259 -0.6176
C6D C 0.68504(13) 0.60884(19) -0.4259(2)
H8D H 0.6688 0.5685 -0.4632
H9D H 0.6530 0.6199 -0.4233
H10D H 0.6988 0.6080 -0.3429
C7D C 0.80929(11) 0.78792(16) -0.2967(2)
C8D C 0.76764(11) 0.75381(16) -0.3863(2)
C9D C 0.71487(11) 0.75758(16) -0.3588(2)
C10D C 0.87257(12) 0.80009(18) -0.2737(2)
H14D H 0.8894 0.8264 -0.2019
H15D H 0.8982 0.8206 -0.3448
H16D H 0.8716 0.7614 -0.2594
C11D C 0.65668(12) 0.73077(17) -0.4287(2)
H20D H 0.6283 0.7409 -0.3881
H21D H 0.6385 0.6863 -0.4325
H22D H 0.6648 0.7475 -0.5116
N4D N 0.72301(9) 0.79117(13) -0.25796(18)
N5D N 0.78132(9) 0.80924(13) -0.22298(18)
H26D H 0.7989 0.8324 -0.1589
S1Q S 0.13840(4) -0.00376(3) 1.04310(6)
C1Q C 0.20321(16) 0.05812(11) 1.0714(2)
N1Q N 0.24925(13) 0.10222(10) 1.09399(18)
S1E S 0.52826(4) 0.33710(3) 1.29024(6)
C1E C 0.46345(16) 0.27522(11) 1.2620(2)
N1E N 0.41741(13) 0.23112(10) 1.23935(18)
Fe1D Fe 0.8333 0.6667 1.1667
Fe1G Fe 0.1667 0.3333 -0.1667
N4J N 0.61032(9) 0.87550(13) -0.07537(18)
N2E N 0.31244(13) 0.11828(9) 1.34821(18)
N4A N 0.38968(9) 0.12450(13) 1.07537(18)
N4M N 0.27699(9) 0.20883(13) 1.25796(18)
Fe1C Fe 0.8333 1.1667 -0.8333
Fe1D_2 Fe 0.8333 0.6667 -0.8333
loop_
_geom_bond_atom_site_label_1
_geom_bond_atom_site_label_2
_geom_bond_site_symmetry_1
_geom_bond_site_symmetry_2
Fe1 N1 1_555 1_555
S1 C1 1_555 1_555
C1 N1 1_555 1_555
N2 Fe1 1_555 1_555
N3 N2 1_555 1_555
H1 N3 1_555 1_555
C2 N2 1_555 1_555
C3 C2 1_555 1_555
C4 N3 1_555 1_555
C5 C2 1_555 1_555
H2 C5 1_555 1_555
H3 C5 1_555 1_555
H4 C5 1_555 1_555
C6 C4 1_555 1_555
H8 C6 1_555 1_555
H9 C6 1_555 1_555
H10 C6 1_555 1_555
C7 C8 1_555 1_555
C8 C3 1_555 1_555
C9 C8 1_555 1_555
C10 C7 1_555 1_555
H14 C10 1_555 1_555
H15 C10 1_555 1_555
H16 C10 1_555 1_555
C11 C9 1_555 1_555
H20 C11 1_555 1_555
H21 C11 1_555 1_555
H22 C11 1_555 1_555
N4 C9 1_555 1_555
N5 C7 1_555 1_555
H26 N5 1_555 1_555
C12 C13 1_555 1_555
C13 N6 1_555 1_555
N6 C13A 1_555 1_555
C13A C12 1_555 1_555
C13B C12 1_555 1_555
N6A C13 1_555 1_555
N6B C13 1_555 1_555
S1I C1I 1_555 1_555
C1I N1I 1_555 1_555
N1I Fe1 1_555 1_555
N2I Fe1 1_555 1_555
N3I N2I 1_555 1_555
H1I N3I 1_555 1_555
C2I N2I 1_555 1_555
C3I C2I 1_555 1_555
C4I N3I 1_555 1_555
C5I C2I 1_555 1_555
H2I C5I 1_555 1_555
H3I C5I 1_555 1_555
H4I C5I 1_555 1_555
C6I C4I 1_555 1_555
H8I C6I 1_555 1_555
H9I C6I 1_555 1_555
H10I C6I 1_555 1_555
C7I C8I 1_555 1_555
C8I C3I 1_555 1_555
C9I C8I 1_555 1_555
C10I C7I 1_555 1_555
H14I C10I 1_555 1_555
H15I C10I 1_555 1_555
H16I C10I 1_555 1_555
C11I C9I 1_555 1_555
H20I C11I 1_555 1_555
H21I C11I 1_555 1_555
H22I C11I 1_555 1_555
N4I C9I 1_555 1_555
N5I C7I 1_555 1_555
H26I N5I 1_555 1_555
N2H N3H 1_555 1_555
N3H H1H 1_555 1_555
C2H N2H 1_555 1_555
C3H C2H 1_555 1_555
C4H N3H 1_555 1_555
C5H C2H 1_555 1_555
H2H C5H 1_555 1_555
H3H C5H 1_555 1_555
H4H C5H 1_555 1_555
C6H C4H 1_555 1_555
H8H C6H 1_555 1_555
H9H C6H 1_555 1_555
H10H C6H 1_555 1_555
C7H C8H 1_555 1_555
C8H C3H 1_555 1_555
C9H C8H 1_555 1_555
C10H C7H 1_555 1_555
H14H C10H 1_555 1_555
H15H C10H 1_555 1_555
H16H C10H 1_555 1_555
C11H C9H 1_555 1_555
H20H C11H 1_555 1_555
H21H C11H 1_555 1_555
H22H C11H 1_555 1_555
N4H Fe1 1_555 1_555
N5H C7H 1_555 1_555
H26H N5H 1_555 1_555
N2Q N3Q 1_555 1_555
N3Q H1Q 1_555 1_555
C2Q N2Q 1_555 1_555
C3Q C2Q 1_555 1_555
C4Q N3Q 1_555 1_555
C5Q C2Q 1_555 1_555
H2Q C5Q 1_555 1_555
H3Q C5Q 1_555 1_555
H4Q C5Q 1_555 1_555
C6Q C4Q 1_555 1_555
H8Q C6Q 1_555 1_555
H9Q C6Q 1_555 1_555
H10Q C6Q 1_555 1_555
C7Q C8Q 1_555 1_555
C8Q C3Q 1_555 1_555
C9Q C8Q 1_555 1_555
C10Q C7Q 1_555 1_555
H14Q C10Q 1_555 1_555
H15Q C10Q 1_555 1_555
H16Q C10Q 1_555 1_555
C11Q C9Q 1_555 1_555
H20Q C11Q 1_555 1_555
H21Q C11Q 1_555 1_555
H22Q C11Q 1_555 1_555
N4Q Fe1 1_555 1_555
N5Q C7Q 1_555 1_555
H26Q N5Q 1_555 1_555
Fe1H N2H 1_555 1_555
Fe1Q N2Q 1_555 1_555
S1H C1H 1_555 1_555
C1H N1H 1_555 1_555
N1H Fe1H 1_555 1_555
S1N C1N 1_555 1_555
C1N N1N 1_555 1_555
N1N Fe1H 1_555 1_555
N2N Fe1H 1_555 1_555
N3N N2N 1_555 1_555
H1N N3N 1_555 1_555
C2N N2N 1_555 1_555
C3N C2N 1_555 1_555
C4N N3N 1_555 1_555
C5N C2N 1_555 1_555
H2N C5N 1_555 1_555
H3N C5N 1_555 1_555
H4N C5N 1_555 1_555
C6N C4N 1_555 1_555
H8N C6N 1_555 1_555
H9N C6N 1_555 1_555
H10N C6N 1_555 1_555
C7N C8N 1_555 1_555
C8N C3N 1_555 1_555
C9N C8N 1_555 1_555
C10N C7N 1_555 1_555
H14N C10N 1_555 1_555
H15N C10N 1_555 1_555
H16N C10N 1_555 1_555
C11N C9N 1_555 1_555
H20N C11N 1_555 1_555
H21N C11N 1_555 1_555
H22N C11N 1_555 1_555
N4N C9N 1_555 1_555
N5N C7N 1_555 1_555
H26N N5N 1_555 1_555
N2D N3D 1_555 1_555
N3D H1D 1_555 1_555
C2D N2D 1_555 1_555
C3D C2D 1_555 1_555
C4D N3D 1_555 1_555
C5D C2D 1_555 1_555
H2D C5D 1_555 1_555
H3D C5D 1_555 1_555
H4D C5D 1_555 1_555
C6D C4D 1_555 1_555
H8D C6D 1_555 1_555
H9D C6D 1_555 1_555
H10D C6D 1_555 1_555
C7D C8D 1_555 1_555
C8D C3D 1_555 1_555
C9D C8D 1_555 1_555
C10D C7D 1_555 1_555
H14D C10D 1_555 1_555
H15D C10D 1_555 1_555
H16D C10D 1_555 1_555
C11D C9D 1_555 1_555
H20D C11D 1_555 1_555
H21D C11D 1_555 1_555
H22D C11D 1_555 1_555
N4D Fe1H 1_555 1_555
N5D C7D 1_555 1_555
H26D N5D 1_555 1_555
S1Q C1Q 1_555 1_555
C1Q N1Q 1_555 1_555
N1Q Fe1Q 1_555 1_555
S1E C1E 1_555 1_555
C1E N1E 1_555 1_555
N1E Fe1Q 1_555 1_555
Fe1D N4 1_555 1_555
Fe1G N4I 1_555 1_555
N4J Fe1H 1_555 1_555
N2E Fe1Q 1_555 1_555
N4A Fe1Q 1_555 1_555
N4M Fe1Q 1_555 1_555
Fe1C N4N 1_555 1_555
Fe1D_2 N2D 1_555 1_555
C3 C4 1_555 1_555
N4 N5 1_555 1_555
C13 C13A 1_555 1_555
C13 C13B 1_555 1_555
N6 C13B 1_555 1_555
N6 N6A 1_555 1_555
N6 N6B 1_555 1_555
C13A N6A 1_555 1_555
C13A C13B 1_555 1_555
C13A N6B 1_555 1_555
C13B N6B 1_555 1_555
C13B N6A 1_555 1_555
N6A N6B 1_555 1_555
C3I C4I 1_555 1_555
N4I N5I 1_555 1_555
C3H C4H 1_555 1_555
C9H N4H 1_555 1_555
N4H N5H 1_555 1_555
C3Q C4Q 1_555 1_555
C9Q N4Q 1_555 1_555
N4Q N5Q 1_555 1_555
C3N C4N 1_555 1_555
N4N N5N 1_555 1_555
C3D C4D 1_555 1_555
C9D N4D 1_555 1_555
N4D N5D 1_555 1_555

#END
