
#######################################################################
#
#                 Cambridge Crystallographic Data Centre
#                                CCDC 
#
#######################################################################
#
# If this CIF has been generated from an entry in the Cambridge 
# Structural Database, then it will include bibliographic, chemical, 
# crystal, experimental, refinement or atomic coordinate data resulting 
# from the CCDC's data processing and validation procedures.
#
#######################################################################

data_HAJMEL
_chemical_formula_moiety         '(C70 H84 Fe3 N33 S6)n'
_symmetry_cell_setting           rhombohedral
_symmetry_space_group_name_H-M   'R -3'
_symmetry_Int_Tables_number      148
_space_group_name_Hall           '-R 3'
loop_
_symmetry_equiv_pos_site_id
_symmetry_equiv_pos_as_xyz
1 x,y,z
2 -y,x-y,z
3 -x+y,-x,z
4 2/3+x,1/3+y,1/3+z
5 2/3-y,1/3+x-y,1/3+z
6 2/3-x+y,1/3-x,1/3+z
7 1/3+x,2/3+y,2/3+z
8 2/3+y,1/3-x+y,1/3-z
9 2/3+x-y,1/3+x,1/3-z
10 -x,-y,-z
11 y,-x+y,-z
12 x-y,x,-z
13 1/3-x,2/3-y,2/3-z
14 1/3+y,2/3-x+y,2/3-z
15 1/3+x-y,2/3+x,2/3-z
16 2/3-x,1/3-y,1/3-z
17 1/3-y,2/3+x-y,2/3+z
18 1/3-x+y,2/3-x,2/3+z
_cell_length_a                   25.4548(18)
_cell_length_b                   25.4548(18)
_cell_length_c                   11.0215(15)
_cell_angle_alpha                90
_cell_angle_beta                 90
_cell_angle_gamma                120.00
_cell_volume                     6184.59
loop_
_atom_site_label
_atom_site_type_symbol
_atom_site_fract_x
_atom_site_fract_y
_atom_site_fract_z
C12 C 0.3333 0.6667 -0.158(5)
C13 C 0.326(5) 0.638(3) -0.046(5)
N6 N 0.328(5) 0.620(4) 0.048(5)
C13A C 0.362(3) 0.688(6) -0.046(5)
C13B C 0.312(6) 0.674(5) -0.046(5)
N6A N 0.380(4) 0.708(6) 0.048(5)
N6B N 0.292(6) 0.672(5) 0.048(5)
Fe1 Fe 0.5000 0.5000 0.5000
S1 S 0.33198(6) 0.52459(6) 0.62287(11)
C1 C 0.39295(19) 0.52186(18) 0.5950(3)
N1 N 0.43686(16) 0.52031(16) 0.5733(3)
N2 N 0.54988(16) 0.52796(15) 0.6803(3)
N3 N 0.54991(16) 0.57597(15) 0.7327(3)
C2 C 0.58607(19) 0.51669(19) 0.7508(3)
C3 C 0.60932(18) 0.55850(18) 0.8488(3)
C4 C 0.5846(2) 0.59536(19) 0.8335(3)
C5 C 0.5982(2) 0.4662(2) 0.7261(4)
H2 H 0.5764 0.4446 0.6548
H3 H 0.5852 0.4390 0.7941
H4 H 0.6409 0.4824 0.7133
C6 C 0.5906(2) 0.6470(2) 0.9064(4)
H8 H 0.5670 0.6627 0.8698
H9 H 0.6324 0.6783 0.9092
H10 H 0.5762 0.6334 0.9872
C7 C 0.6442(2) 0.5243(2) 1.0363(3)
C8 C 0.65225(18) 0.56480(18) 0.9459(3)
C9 C 0.70851(19) 0.61671(18) 0.9724(3)
C10 C 0.5928(2) 0.4619(2) 1.0599(4)
H14 H 0.6018 0.4453 1.1299
H15 H 0.5871 0.4366 0.9908
H16 H 0.5565 0.4635 1.0744
C11 C 0.7409(2) 0.6740(2) 0.9015(4)
H20 H 0.7782 0.7014 0.9414
H21 H 0.7159 0.6923 0.8957
H22 H 0.7494 0.6652 0.8215
N4 N 0.73347(15) 0.60912(15) 1.0738(3)
N5 N 0.69277(16) 0.55180(15) 1.1090(3)
H26 H 0.6977 0.5348 1.1720
S1I S 0.66802(6) 0.47541(6) 0.37713(11)
C1I C 0.60705(19) 0.47814(18) 0.4050(3)
N1I N 0.56314(16) 0.47969(16) 0.4267(3)
N2I N 0.45012(16) 0.47204(15) 0.3197(3)
N3I N 0.45009(16) 0.42403(15) 0.2673(3)
C2I C 0.41393(19) 0.48331(19) 0.2492(3)
C3I C 0.39068(18) 0.44150(18) 0.1512(3)
C4I C 0.4154(2) 0.40464(19) 0.1665(3)
C5I C 0.4018(2) 0.5338(2) 0.2739(4)
H2I H 0.4236 0.5554 0.3452
H3I H 0.4148 0.5610 0.2059
H4I H 0.3591 0.5176 0.2867
C6I C 0.4094(2) 0.3530(2) 0.0936(4)
H8I H 0.4330 0.3373 0.1302
H9I H 0.3676 0.3217 0.0908
H10I H 0.4238 0.3666 0.0128
C7I C 0.3558(2) 0.4757(2) -0.0363(3)
C8I C 0.34775(18) 0.43520(18) 0.0541(3)
C9I C 0.29149(19) 0.38329(18) 0.0276(3)
C10I C 0.4072(2) 0.5381(2) -0.0599(4)
H14I H 0.3982 0.5547 -0.1299
H15I H 0.4129 0.5634 0.0092
H16I H 0.4435 0.5365 -0.0744
C11I C 0.2591(2) 0.3260(2) 0.0985(4)
H20I H 0.2218 0.2986 0.0586
H21I H 0.2841 0.3077 0.1043
H22I H 0.2506 0.3348 0.1785
N4I N 0.26653(15) 0.39088(15) -0.0738(3)
N5I N 0.30723(16) 0.44820(15) -0.1090(3)
H26I H 0.3023 0.4652 -0.1720
N2E N 0.64475(22) 0.78345(16) 0.0136(3)
N3E N 0.69273(22) 0.78342(16) 0.0660(3)
C2E C 0.59729(27) 0.74726(19) 0.0841(3)
C3E C 0.61585(25) 0.72401(18) 0.1821(3)
C4E C 0.67743(28) 0.7487(2) 0.1668(3)
C5E C 0.5347(3) 0.7351(2) 0.0594(4)
H2E H 0.5349 0.7569 -0.0119
H3E H 0.5205 0.7481 0.1274
H4E H 0.5082 0.6924 0.0466
C6E C 0.7231(3) 0.7427(2) 0.2397(4)
H8E H 0.7624 0.7663 0.2031
H9E H 0.7126 0.7009 0.2425
H10E H 0.7239 0.7571 0.3205
C7E C 0.5468(3) 0.6891(2) 0.3696(3)
C8E C 0.57922(25) 0.68108(18) 0.2792(3)
C9E C 0.57487(26) 0.62482(19) 0.3057(3)
C10E C 0.5358(3) 0.7405(2) 0.3932(4)
H14E H 0.5102 0.7315 0.4632
H15E H 0.5162 0.7462 0.3241
H16E H 0.5737 0.7768 0.4077
C11E C 0.5998(3) 0.5924(2) 0.2348(4)
H20E H 0.5899 0.5551 0.2747
H21E H 0.6431 0.6174 0.2290
H22E H 0.5825 0.5839 0.1548
N4E N 0.54232(21) 0.59986(15) 0.4071(3)
N5E N 0.52570(22) 0.64056(16) 0.4423(3)
H26E H 0.5038 0.6356 0.5053
N2N N 0.35525(22) 0.21655(16) 0.9864(3)
N3N N 0.30727(22) 0.21658(16) 0.9340(3)
C2N C 0.40271(27) 0.25274(19) 0.9159(3)
C3N C 0.38415(25) 0.27599(18) 0.8179(3)
C4N C 0.32257(28) 0.2513(2) 0.8332(3)
C5N C 0.4653(3) 0.2649(2) 0.9406(4)
H2N H 0.4651 0.2431 1.0119
H3N H 0.4795 0.2519 0.8726
H4N H 0.4918 0.3076 0.9534
C6N C 0.2769(3) 0.2573(2) 0.7603(4)
H8N H 0.2376 0.2337 0.7969
H9N H 0.2874 0.2991 0.7575
H10N H 0.2761 0.2429 0.6795
C7N C 0.4532(3) 0.3109(2) 0.6304(3)
C8N C 0.42078(25) 0.31892(18) 0.7208(3)
C9N C 0.42513(26) 0.37518(19) 0.6943(3)
C10N C 0.4642(3) 0.2595(2) 0.6068(4)
H14N H 0.4898 0.2685 0.5368
H15N H 0.4838 0.2538 0.6759
H16N H 0.4263 0.2232 0.5923
C11N C 0.4002(3) 0.4076(2) 0.7652(4)
H20N H 0.4101 0.4449 0.7253
H21N H 0.3569 0.3826 0.7710
H22N H 0.4175 0.4161 0.8452
N4N N 0.45768(21) 0.40014(15) 0.5929(3)
N5N N 0.47430(22) 0.35944(16) 0.5577(3)
H26N H 0.4962 0.3644 0.4947
Fe1E Fe 0.6667 0.8333 -0.1667
Fe1N Fe 0.3333 0.1667 1.1667
S1E S 0.85928(8) 1.00135(6) -0.04380(11)
C1E C 0.79558(26) 0.94038(19) -0.0717(3)
N1E N 0.75012(23) 0.89647(16) -0.0934(3)
S1H S 0.47406(8) 0.66531(6) -0.28954(11)
C1H C 0.53776(26) 0.72628(19) -0.2617(3)
N1H N 0.58322(23) 0.77019(16) -0.2400(3)
N2H N 0.68859(22) 0.88321(16) -0.3470(3)
N3H N 0.64061(22) 0.88324(16) -0.3994(3)
C2H C 0.73605(27) 0.91940(19) -0.4175(3)
C3H C 0.71749(25) 0.94265(18) -0.5155(3)
C4H C 0.65591(28) 0.9179(2) -0.5002(3)
C5H C 0.7987(3) 0.9315(2) -0.3928(4)
H2H H 0.7985 0.9097 -0.3215
H3H H 0.8129 0.9185 -0.4608
H4H H 0.8252 0.9742 -0.3800
C6H C 0.6103(3) 0.9239(2) -0.5731(4)
H8H H 0.5710 0.9003 -0.5365
H9H H 0.6208 0.9657 -0.5759
H10H H 0.6095 0.9095 -0.6539
C7H C 0.7866(3) 0.9775(2) -0.7030(3)
C8H C 0.75412(25) 0.98558(18) -0.6126(3)
C9H C 0.75847(26) 1.04184(19) -0.6391(3)
C10H C 0.7976(3) 0.9261(2) -0.7266(4)
H14H H 0.8232 0.9351 -0.7966
H15H H 0.8172 0.9204 -0.6575
H16H H 0.7597 0.8898 -0.7411
C11H C 0.7336(3) 1.0742(2) -0.5682(4)
H20H H 0.7435 1.1115 -0.6081
H21H H 0.6903 1.0492 -0.5624
H22H H 0.7509 1.0827 -0.4882
N4H N 0.79102(21) 1.06680(15) -0.7405(3)
N5H N 0.80764(22) 1.02610(16) -0.7757(3)
H26H H 0.8296 1.0310 -0.8387
N2P N 0.80537(15) 0.68859(22) -0.6530(3)
N3P N 0.75736(15) 0.64061(22) -0.6006(3)
C2P C 0.81664(19) 0.73605(27) -0.5825(3)
C3P C 0.77483(18) 0.71749(25) -0.4845(3)
C4P C 0.73797(19) 0.65591(28) -0.4998(3)
C5P C 0.8671(2) 0.7987(3) -0.6072(4)
H2P H 0.8887 0.7985 -0.6785
H3P H 0.8943 0.8129 -0.5392
H4P H 0.8509 0.8252 -0.6200
C6P C 0.6863(2) 0.6103(3) -0.4269(4)
H8P H 0.6706 0.5710 -0.4635
H9P H 0.6550 0.6208 -0.4241
H10P H 0.6999 0.6095 -0.3461
C7P C 0.8090(2) 0.7866(3) -0.2970(3)
C8P C 0.76853(18) 0.75412(25) -0.3874(3)
C9P C 0.71662(18) 0.75847(26) -0.3609(3)
C10P C 0.8714(2) 0.7976(3) -0.2734(4)
H14P H 0.8880 0.8232 -0.2034
H15P H 0.8967 0.8172 -0.3425
H16P H 0.8698 0.7597 -0.2589
C11P C 0.6593(2) 0.7336(3) -0.4318(4)
H20P H 0.6319 0.7435 -0.3919
H21P H 0.6410 0.6903 -0.4376
H22P H 0.6681 0.7509 -0.5118
N4P N 0.72421(15) 0.79102(21) -0.2595(3)
N5P N 0.78153(15) 0.80764(22) -0.2243(3)
H26P H 0.7985 0.8296 -0.1613
S1N S 0.14072(8) -0.00135(6) 1.04380(11)
C1N C 0.20442(26) 0.05962(19) 1.0717(3)
N1N N 0.24988(23) 0.10353(16) 1.0934(3)
S1Q S 0.52594(8) 0.33469(6) 1.28954(11)
C1Q C 0.46224(26) 0.27372(19) 1.2617(3)
N1Q N 0.41678(23) 0.22981(16) 1.2400(3)
Fe1M Fe 0.8333 0.6667 1.1667
Fe1D Fe 0.1667 0.3333 -0.1667
N4J N 0.60912(15) 0.87565(21) -0.0738(3)
N2Q N 0.31141(22) 0.11679(16) 1.3470(3)
N4A N 0.39088(15) 0.12435(21) 1.0738(3)
N4G N 0.27579(15) 0.20898(21) 1.2595(3)
Fe1F Fe 0.8333 1.1667 -0.8333
Fe1M_2 Fe 0.8333 0.6667 -0.8333
loop_
_geom_bond_atom_site_label_1
_geom_bond_atom_site_label_2
_geom_bond_site_symmetry_1
_geom_bond_site_symmetry_2
Fe1 N1 1_555 1_555
S1 C1 1_555 1_555
C1 N1 1_555 1_555
N2 Fe1 1_555 1_555
N3 N2 1_555 1_555
C2 N2 1_555 1_555
C3 C2 1_555 1_555
C4 N3 1_555 1_555
C5 C2 1_555 1_555
H2 C5 1_555 1_555
H3 C5 1_555 1_555
H4 C5 1_555 1_555
C6 C4 1_555 1_555
H8 C6 1_555 1_555
H9 C6 1_555 1_555
H10 C6 1_555 1_555
C7 C8 1_555 1_555
C8 C3 1_555 1_555
C9 C8 1_555 1_555
C10 C7 1_555 1_555
H14 C10 1_555 1_555
H15 C10 1_555 1_555
H16 C10 1_555 1_555
C11 C9 1_555 1_555
H20 C11 1_555 1_555
H21 C11 1_555 1_555
H22 C11 1_555 1_555
N4 C9 1_555 1_555
N5 C7 1_555 1_555
H26 N5 1_555 1_555
C12 C13 1_555 1_555
C13 N6 1_555 1_555
C13A C12 1_555 1_555
C13B C12 1_555 1_555
N6A C13A 1_555 1_555
N6B C13B 1_555 1_555
S1I C1I 1_555 1_555
C1I N1I 1_555 1_555
N1I Fe1 1_555 1_555
N2I Fe1 1_555 1_555
N3I N2I 1_555 1_555
C2I N2I 1_555 1_555
C3I C2I 1_555 1_555
C4I N3I 1_555 1_555
C5I C2I 1_555 1_555
H2I C5I 1_555 1_555
H3I C5I 1_555 1_555
H4I C5I 1_555 1_555
C6I C4I 1_555 1_555
H8I C6I 1_555 1_555
H9I C6I 1_555 1_555
H10I C6I 1_555 1_555
C7I C8I 1_555 1_555
C8I C3I 1_555 1_555
C9I C8I 1_555 1_555
C10I C7I 1_555 1_555
H14I C10I 1_555 1_555
H15I C10I 1_555 1_555
H16I C10I 1_555 1_555
C11I C9I 1_555 1_555
H20I C11I 1_555 1_555
H21I C11I 1_555 1_555
H22I C11I 1_555 1_555
N4I C9I 1_555 1_555
N5I C7I 1_555 1_555
H26I N5I 1_555 1_555
N2E N3E 1_555 1_555
N3E C4E 1_555 1_555
C2E N2E 1_555 1_555
C3E C2E 1_555 1_555
C4E C3E 1_555 1_555
C5E C2E 1_555 1_555
H2E C5E 1_555 1_555
H3E C5E 1_555 1_555
H4E C5E 1_555 1_555
C6E C4E 1_555 1_555
H8E C6E 1_555 1_555
H9E C6E 1_555 1_555
H10E C6E 1_555 1_555
C7E C8E 1_555 1_555
C8E C3E 1_555 1_555
C9E C8E 1_555 1_555
C10E C7E 1_555 1_555
H14E C10E 1_555 1_555
H15E C10E 1_555 1_555
H16E C10E 1_555 1_555
C11E C9E 1_555 1_555
H20E C11E 1_555 1_555
H21E C11E 1_555 1_555
H22E C11E 1_555 1_555
N4E Fe1 1_555 1_555
N5E C7E 1_555 1_555
H26E N5E 1_555 1_555
N2N N3N 1_555 1_555
N3N C4N 1_555 1_555
C2N N2N 1_555 1_555
C3N C2N 1_555 1_555
C4N C3N 1_555 1_555
C5N C2N 1_555 1_555
H2N C5N 1_555 1_555
H3N C5N 1_555 1_555
H4N C5N 1_555 1_555
C6N C4N 1_555 1_555
H8N C6N 1_555 1_555
H9N C6N 1_555 1_555
H10N C6N 1_555 1_555
C7N C8N 1_555 1_555
C8N C3N 1_555 1_555
C9N C8N 1_555 1_555
C10N C7N 1_555 1_555
H14N C10N 1_555 1_555
H15N C10N 1_555 1_555
H16N C10N 1_555 1_555
C11N C9N 1_555 1_555
H20N C11N 1_555 1_555
H21N C11N 1_555 1_555
H22N C11N 1_555 1_555
N4N Fe1 1_555 1_555
N5N C7N 1_555 1_555
H26N N5N 1_555 1_555
Fe1E N2E 1_555 1_555
Fe1N N2N 1_555 1_555
S1E C1E 1_555 1_555
C1E N1E 1_555 1_555
N1E Fe1E 1_555 1_555
S1H C1H 1_555 1_555
C1H N1H 1_555 1_555
N1H Fe1E 1_555 1_555
N2H Fe1E 1_555 1_555
N3H N2H 1_555 1_555
C2H N2H 1_555 1_555
C3H C2H 1_555 1_555
C4H N3H 1_555 1_555
C5H C2H 1_555 1_555
H2H C5H 1_555 1_555
H3H C5H 1_555 1_555
H4H C5H 1_555 1_555
C6H C4H 1_555 1_555
H8H C6H 1_555 1_555
H9H C6H 1_555 1_555
H10H C6H 1_555 1_555
C7H C8H 1_555 1_555
C8H C3H 1_555 1_555
C9H C8H 1_555 1_555
C10H C7H 1_555 1_555
H14H C10H 1_555 1_555
H15H C10H 1_555 1_555
H16H C10H 1_555 1_555
C11H C9H 1_555 1_555
H20H C11H 1_555 1_555
H21H C11H 1_555 1_555
H22H C11H 1_555 1_555
N4H C9H 1_555 1_555
N5H C7H 1_555 1_555
H26H N5H 1_555 1_555
N2P N3P 1_555 1_555
N3P C4P 1_555 1_555
C2P N2P 1_555 1_555
C3P C2P 1_555 1_555
C4P C3P 1_555 1_555
C5P C2P 1_555 1_555
H2P C5P 1_555 1_555
H3P C5P 1_555 1_555
H4P C5P 1_555 1_555
C6P C4P 1_555 1_555
H8P C6P 1_555 1_555
H9P C6P 1_555 1_555
H10P C6P 1_555 1_555
C7P C8P 1_555 1_555
C8P C3P 1_555 1_555
C9P C8P 1_555 1_555
C10P C7P 1_555 1_555
H14P C10P 1_555 1_555
H15P C10P 1_555 1_555
H16P C10P 1_555 1_555
C11P C9P 1_555 1_555
H20P C11P 1_555 1_555
H21P C11P 1_555 1_555
H22P C11P 1_555 1_555
N4P Fe1E 1_555 1_555
N5P C7P 1_555 1_555
H26P N5P 1_555 1_555
S1N C1N 1_555 1_555
C1N N1N 1_555 1_555
N1N Fe1N 1_555 1_555
S1Q C1Q 1_555 1_555
C1Q N1Q 1_555 1_555
N1Q Fe1N 1_555 1_555
Fe1M N4 1_555 1_555
Fe1D N4I 1_555 1_555
N4J Fe1E 1_555 1_555
N2Q Fe1N 1_555 1_555
N4A Fe1N 1_555 1_555
N4G Fe1N 1_555 1_555
Fe1F N4H 1_555 1_555
Fe1M_2 N2P 1_555 1_555
C3 C4 1_555 1_555
N4 N5 1_555 1_555
C13 C13A 1_555 1_555
C13 C13B 1_555 1_555
C13A C13B 1_555 1_555
C3I C4I 1_555 1_555
N4I N5I 1_555 1_555
C9E N4E 1_555 1_555
N4E N5E 1_555 1_555
C9N N4N 1_555 1_555
N4N N5N 1_555 1_555
C3H C4H 1_555 1_555
N4H N5H 1_555 1_555
C9P N4P 1_555 1_555
N4P N5P 1_555 1_555

#END
