
#######################################################################
#
#                 Cambridge Crystallographic Data Centre
#                                CCDC 
#
#######################################################################
#
# If this CIF has been generated from an entry in the Cambridge 
# Structural Database, then it will include bibliographic, chemical, 
# crystal, experimental, refinement or atomic coordinate data resulting 
# from the CCDC's data processing and validation procedures.
#
#######################################################################

data_HAJMAH
_chemical_formula_moiety         '(C70 H84 Fe3 N33 S6)n'
_symmetry_cell_setting           rhombohedral
_symmetry_space_group_name_H-M   'R -3'
_symmetry_Int_Tables_number      148
_space_group_name_Hall           '-R 3'
loop_
_symmetry_equiv_pos_site_id
_symmetry_equiv_pos_as_xyz
1 x,y,z
2 -y,x-y,z
3 -x+y,-x,z
4 2/3+x,1/3+y,1/3+z
5 2/3-y,1/3+x-y,1/3+z
6 2/3-x+y,1/3-x,1/3+z
7 1/3+x,2/3+y,2/3+z
8 2/3+y,1/3-x+y,1/3-z
9 2/3+x-y,1/3+x,1/3-z
10 -x,-y,-z
11 y,-x+y,-z
12 x-y,x,-z
13 1/3-x,2/3-y,2/3-z
14 1/3+y,2/3-x+y,2/3-z
15 1/3+x-y,2/3+x,2/3-z
16 2/3-x,1/3-y,1/3-z
17 1/3-y,2/3+x-y,2/3+z
18 1/3-x+y,2/3-x,2/3+z
_cell_length_a                   25.501(2)
_cell_length_b                   25.501(2)
_cell_length_c                   11.0385(18)
_cell_angle_alpha                90
_cell_angle_beta                 90
_cell_angle_gamma                120.00
_cell_volume                     6216.63
loop_
_atom_site_label
_atom_site_type_symbol
_atom_site_fract_x
_atom_site_fract_y
_atom_site_fract_z
C12 C 0.3333 0.6667 -0.155(4)
C13 C 0.327(7) 0.637(4) -0.046(5)
N6 N 0.322(6) 0.616(4) 0.049(5)
C13A C 0.363(4) 0.690(8) -0.046(5)
C13B C 0.310(8) 0.673(7) -0.046(5)
N6A N 0.384(4) 0.706(7) 0.049(5)
N6B N 0.294(7) 0.678(6) 0.049(5)
Fe1 Fe 0.5000 0.5000 0.5000
S1 S 0.33197(6) 0.52460(6) 0.62293(12)
C1 C 0.3931(2) 0.52191(19) 0.5952(4)
N1 N 0.43680(17) 0.52022(17) 0.5729(3)
N2 N 0.54978(16) 0.52790(16) 0.6805(3)
N3 N 0.55024(16) 0.57634(16) 0.7326(3)
H1 H 0.5307 0.5931 0.7044
C2 C 0.58601(19) 0.51653(19) 0.7510(4)
C3 C 0.60948(19) 0.55841(19) 0.8483(4)
C4 C 0.5847(2) 0.5954(2) 0.8335(4)
C5 C 0.5984(2) 0.4665(2) 0.7262(4)
H2 H 0.5766 0.4449 0.6551
H3 H 0.5855 0.4393 0.7941
H4 H 0.6410 0.4829 0.7135
C6 C 0.5900(3) 0.6464(2) 0.9067(5)
H8 H 0.5664 0.6620 0.8701
H9 H 0.6317 0.6778 0.9103
H10 H 0.5754 0.6325 0.9871
C7 C 0.6442(2) 0.5245(2) 1.0360(4)
C8 C 0.65227(19) 0.56516(19) 0.9453(4)
C9 C 0.70884(19) 0.6171(2) 0.9721(4)
C10 C 0.5931(2) 0.4621(2) 1.0597(5)
H14 H 0.6022 0.4457 1.1296
H15 H 0.5874 0.4369 0.9907
H16 H 0.5567 0.4636 1.0741
C11 C 0.7411(2) 0.6742(2) 0.9014(4)
H20 H 0.7784 0.7016 0.9414
H21 H 0.7162 0.6925 0.8956
H22 H 0.7497 0.6655 0.8216
N4 N 0.73336(16) 0.60918(16) 1.0735(3)
N5 N 0.69258(16) 0.55153(16) 1.1089(3)
H26 H 0.6975 0.5344 1.1715
S1I S 0.66803(6) 0.47540(6) 0.37707(12)
C1I C 0.6069(2) 0.47809(19) 0.4048(4)
N1I N 0.56320(17) 0.47978(17) 0.4271(3)
N2I N 0.45022(16) 0.47210(16) 0.3195(3)
N3I N 0.44976(16) 0.42366(16) 0.2674(3)
H1I H 0.4693 0.4069 0.2956
C2I C 0.41399(19) 0.48347(19) 0.2490(4)
C3I C 0.39052(19) 0.44159(19) 0.1517(4)
C4I C 0.4153(2) 0.4046(2) 0.1665(4)
C5I C 0.4016(2) 0.5335(2) 0.2738(4)
H2I H 0.4234 0.5551 0.3449
H3I H 0.4145 0.5607 0.2059
H4I H 0.3590 0.5171 0.2865
C6I C 0.4100(3) 0.3536(2) 0.0933(5)
H8I H 0.4336 0.3380 0.1299
H9I H 0.3683 0.3222 0.0897
H10I H 0.4246 0.3675 0.0129
C7I C 0.3558(2) 0.4755(2) -0.0360(4)
C8I C 0.34773(19) 0.43484(19) 0.0547(4)
C9I C 0.29116(19) 0.3829(2) 0.0279(4)
C10I C 0.4069(2) 0.5379(2) -0.0597(5)
H14I H 0.3978 0.5543 -0.1296
H15I H 0.4126 0.5631 0.0093
H16I H 0.4433 0.5364 -0.0741
C11I C 0.2589(2) 0.3258(2) 0.0986(4)
H20I H 0.2216 0.2984 0.0586
H21I H 0.2838 0.3075 0.1044
H22I H 0.2503 0.3345 0.1784
N4I N 0.26664(16) 0.39082(16) -0.0735(3)
N5I N 0.30742(16) 0.44847(16) -0.1089(3)
H26I H 0.3025 0.4656 -0.1715
N2E N 0.64479(23) 0.78355(16) 0.0138(3)
N3E N 0.69277(23) 0.78309(16) 0.0659(3)
H1E H 0.7291 0.8026 0.0377
C2E C 0.59719(27) 0.74732(19) 0.0843(4)
C3E C 0.61560(27) 0.72385(19) 0.1816(4)
C4E C 0.6774(3) 0.7486(2) 0.1668(4)
C5E C 0.5348(3) 0.7349(2) 0.0595(4)
H2E H 0.5350 0.7567 -0.0116
H3E H 0.5205 0.7478 0.1274
H4E H 0.5086 0.6923 0.0468
C6E C 0.7231(4) 0.7433(3) 0.2400(5)
H8E H 0.7623 0.7669 0.2034
H9E H 0.7128 0.7016 0.2436
H10E H 0.7238 0.7579 0.3204
C7E C 0.5470(3) 0.6891(2) 0.3693(4)
C8E C 0.57956(27) 0.68106(19) 0.2786(4)
C9E C 0.57493(28) 0.62449(19) 0.3054(4)
C10E C 0.5357(3) 0.7402(2) 0.3930(5)
H14E H 0.5102 0.7311 0.4629
H15E H 0.5162 0.7459 0.3240
H16E H 0.5736 0.7766 0.4074
C11E C 0.5998(3) 0.5922(2) 0.2347(4)
H20E H 0.5899 0.5549 0.2747
H21E H 0.6430 0.6171 0.2289
H22E H 0.5825 0.5836 0.1549
N4E N 0.54249(23) 0.59997(16) 0.4068(3)
N5E N 0.52562(23) 0.64075(16) 0.4422(3)
H26E H 0.5036 0.6358 0.5048
N2N N 0.35521(23) 0.21645(16) 0.9862(3)
N3N N 0.30723(23) 0.21691(16) 0.9341(3)
H1N H 0.2709 0.1974 0.9623
C2N C 0.40281(27) 0.25268(19) 0.9157(4)
C3N C 0.38440(27) 0.27615(19) 0.8184(4)
C4N C 0.3226(3) 0.2514(2) 0.8332(4)
C5N C 0.4652(3) 0.2651(2) 0.9405(4)
H2N H 0.4650 0.2433 1.0116
H3N H 0.4795 0.2522 0.8726
H4N H 0.4914 0.3077 0.9532
C6N C 0.2769(4) 0.2567(3) 0.7600(5)
H8N H 0.2377 0.2331 0.7966
H9N H 0.2872 0.2984 0.7564
H10N H 0.2762 0.2421 0.6796
C7N C 0.4530(3) 0.3109(2) 0.6307(4)
C8N C 0.42044(27) 0.31894(19) 0.7214(4)
C9N C 0.42507(28) 0.37551(19) 0.6946(4)
C10N C 0.4643(3) 0.2598(2) 0.6070(5)
H14N H 0.4898 0.2689 0.5371
H15N H 0.4838 0.2541 0.6760
H16N H 0.4264 0.2234 0.5926
C11N C 0.4002(3) 0.4078(2) 0.7653(4)
H20N H 0.4101 0.4451 0.7253
H21N H 0.3570 0.3829 0.7711
H22N H 0.4175 0.4164 0.8451
N4N N 0.45751(23) 0.40003(16) 0.5932(3)
N5N N 0.47438(23) 0.35925(16) 0.5578(3)
H26N H 0.4964 0.3642 0.4952
Fe1E Fe 0.6667 0.8333 -0.1667
Fe1N Fe 0.3333 0.1667 1.1667
S1E S 0.85930(8) 1.00136(6) -0.04374(12)
C1E C 0.79548(28) 0.9402(2) -0.0715(4)
N1E N 0.75009(24) 0.89653(17) -0.0938(3)
S1H S 0.47404(8) 0.66530(6) -0.28960(12)
C1H C 0.53786(28) 0.7264(2) -0.2619(4)
N1H N 0.58325(24) 0.77013(17) -0.2396(3)
N2H N 0.68855(23) 0.88311(16) -0.3472(3)
N3H N 0.64057(23) 0.88357(16) -0.3993(3)
H1H H 0.6043 0.8640 -0.3711
C2H C 0.73615(27) 0.91934(19) -0.4177(4)
C3H C 0.71774(27) 0.94281(19) -0.5150(4)
C4H C 0.6560(3) 0.9180(2) -0.5002(4)
C5H C 0.7986(3) 0.9317(2) -0.3929(4)
H2H H 0.7984 0.9099 -0.3218
H3H H 0.8129 0.9188 -0.4608
H4H H 0.8248 0.9743 -0.3802
C6H C 0.6103(4) 0.9233(3) -0.5734(5)
H8H H 0.5711 0.8997 -0.5368
H9H H 0.6206 0.9650 -0.5770
H10H H 0.6096 0.9087 -0.6538
C7H C 0.7864(3) 0.9775(2) -0.7027(4)
C8H C 0.75378(27) 0.98560(19) -0.6120(4)
C9H C 0.75841(28) 1.04217(19) -0.6388(4)
C10H C 0.7977(3) 0.9264(2) -0.7264(5)
H14H H 0.8232 0.9355 -0.7963
H15H H 0.8172 0.9207 -0.6574
H16H H 0.7598 0.8900 -0.7408
C11H C 0.7336(3) 1.0744(2) -0.5681(4)
H20H H 0.7435 1.1117 -0.6081
H21H H 0.6904 1.0495 -0.5623
H22H H 0.7509 1.0830 -0.4883
N4H N 0.79085(23) 1.06669(16) -0.7402(3)
N5H N 0.80772(23) 1.02591(16) -0.7756(3)
H26H H 0.8298 1.0308 -0.8382
N2P N 0.80543(16) 0.68855(23) -0.6528(3)
N3P N 0.75699(16) 0.64057(23) -0.6007(3)
H1P H 0.7402 0.6043 -0.6289
C2P C 0.81680(19) 0.73615(27) -0.5823(4)
C3P C 0.77492(19) 0.71774(27) -0.4850(4)
C4P C 0.7379(2) 0.6560(3) -0.4998(4)
C5P C 0.8668(2) 0.7986(3) -0.6071(4)
H2P H 0.8884 0.7984 -0.6782
H3P H 0.8940 0.8129 -0.5392
H4P H 0.8504 0.8248 -0.6198
C6P C 0.6869(2) 0.6103(4) -0.4266(5)
H8P H 0.6713 0.5711 -0.4632
H9P H 0.6555 0.6206 -0.4230
H10P H 0.7008 0.6096 -0.3462
C7P C 0.8088(2) 0.7864(3) -0.2973(4)
C8P C 0.76817(19) 0.75378(27) -0.3880(4)
C9P C 0.7162(2) 0.75841(28) -0.3612(4)
C10P C 0.8712(2) 0.7977(3) -0.2736(5)
H14P H 0.8876 0.8232 -0.2037
H15P H 0.8964 0.8172 -0.3426
H16P H 0.8697 0.7598 -0.2592
C11P C 0.6591(2) 0.7336(3) -0.4319(4)
H20P H 0.6317 0.7435 -0.3919
H21P H 0.6408 0.6904 -0.4377
H22P H 0.6678 0.7509 -0.5117
N4P N 0.72415(16) 0.79085(23) -0.2598(3)
N5P N 0.78180(16) 0.80772(23) -0.2244(3)
H26P H 0.7989 0.8298 -0.1618
S1N S 0.14070(8) -0.00136(6) 1.04374(12)
C1N C 0.20452(28) 0.0598(2) 1.0715(4)
N1N N 0.24991(24) 0.10347(17) 1.0938(3)
S1Q S 0.52596(8) 0.33470(6) 1.28960(12)
C1Q C 0.46214(28) 0.2736(2) 1.2619(4)
N1Q N 0.41675(24) 0.22987(17) 1.2396(3)
Fe1M Fe 0.8333 0.6667 1.1667
Fe1D Fe 0.1667 0.3333 -0.1667
N4J N 0.60918(16) 0.87582(23) -0.0735(3)
N2Q N 0.31145(23) 0.11689(16) 1.3472(3)
N4A N 0.39082(16) 0.12418(23) 1.0735(3)
N4G N 0.27585(16) 0.20915(23) 1.2598(3)
Fe1F Fe 0.8333 1.1667 -0.8333
Fe1M_2 Fe 0.8333 0.6667 -0.8333
loop_
_geom_bond_atom_site_label_1
_geom_bond_atom_site_label_2
_geom_bond_site_symmetry_1
_geom_bond_site_symmetry_2
Fe1 N1 1_555 1_555
S1 C1 1_555 1_555
C1 N1 1_555 1_555
N2 Fe1 1_555 1_555
N3 N2 1_555 1_555
H1 N3 1_555 1_555
C2 N2 1_555 1_555
C3 C2 1_555 1_555
C4 N3 1_555 1_555
C5 C2 1_555 1_555
H2 C5 1_555 1_555
H3 C5 1_555 1_555
H4 C5 1_555 1_555
C6 C4 1_555 1_555
H8 C6 1_555 1_555
H9 C6 1_555 1_555
H10 C6 1_555 1_555
C7 C8 1_555 1_555
C8 C3 1_555 1_555
C9 C8 1_555 1_555
C10 C7 1_555 1_555
H14 C10 1_555 1_555
H15 C10 1_555 1_555
H16 C10 1_555 1_555
C11 C9 1_555 1_555
H20 C11 1_555 1_555
H21 C11 1_555 1_555
H22 C11 1_555 1_555
N4 C9 1_555 1_555
N5 C7 1_555 1_555
H26 N5 1_555 1_555
C12 C13 1_555 1_555
C13 N6 1_555 1_555
C13A C12 1_555 1_555
C13B C12 1_555 1_555
N6A C13A 1_555 1_555
N6B C13B 1_555 1_555
S1I C1I 1_555 1_555
C1I N1I 1_555 1_555
N1I Fe1 1_555 1_555
N2I Fe1 1_555 1_555
N3I N2I 1_555 1_555
H1I N3I 1_555 1_555
C2I N2I 1_555 1_555
C3I C2I 1_555 1_555
C4I N3I 1_555 1_555
C5I C2I 1_555 1_555
H2I C5I 1_555 1_555
H3I C5I 1_555 1_555
H4I C5I 1_555 1_555
C6I C4I 1_555 1_555
H8I C6I 1_555 1_555
H9I C6I 1_555 1_555
H10I C6I 1_555 1_555
C7I C8I 1_555 1_555
C8I C3I 1_555 1_555
C9I C8I 1_555 1_555
C10I C7I 1_555 1_555
H14I C10I 1_555 1_555
H15I C10I 1_555 1_555
H16I C10I 1_555 1_555
C11I C9I 1_555 1_555
H20I C11I 1_555 1_555
H21I C11I 1_555 1_555
H22I C11I 1_555 1_555
N4I C9I 1_555 1_555
N5I C7I 1_555 1_555
H26I N5I 1_555 1_555
N2E N3E 1_555 1_555
N3E H1E 1_555 1_555
C2E N2E 1_555 1_555
C3E C2E 1_555 1_555
C4E N3E 1_555 1_555
C5E C2E 1_555 1_555
H2E C5E 1_555 1_555
H3E C5E 1_555 1_555
H4E C5E 1_555 1_555
C6E C4E 1_555 1_555
H8E C6E 1_555 1_555
H9E C6E 1_555 1_555
H10E C6E 1_555 1_555
C7E C8E 1_555 1_555
C8E C3E 1_555 1_555
C9E C8E 1_555 1_555
C10E C7E 1_555 1_555
H14E C10E 1_555 1_555
H15E C10E 1_555 1_555
H16E C10E 1_555 1_555
C11E C9E 1_555 1_555
H20E C11E 1_555 1_555
H21E C11E 1_555 1_555
H22E C11E 1_555 1_555
N4E Fe1 1_555 1_555
N5E C7E 1_555 1_555
H26E N5E 1_555 1_555
N2N N3N 1_555 1_555
N3N H1N 1_555 1_555
C2N N2N 1_555 1_555
C3N C2N 1_555 1_555
C4N N3N 1_555 1_555
C5N C2N 1_555 1_555
H2N C5N 1_555 1_555
H3N C5N 1_555 1_555
H4N C5N 1_555 1_555
C6N C4N 1_555 1_555
H8N C6N 1_555 1_555
H9N C6N 1_555 1_555
H10N C6N 1_555 1_555
C7N C8N 1_555 1_555
C8N C3N 1_555 1_555
C9N C8N 1_555 1_555
C10N C7N 1_555 1_555
H14N C10N 1_555 1_555
H15N C10N 1_555 1_555
H16N C10N 1_555 1_555
C11N C9N 1_555 1_555
H20N C11N 1_555 1_555
H21N C11N 1_555 1_555
H22N C11N 1_555 1_555
N4N Fe1 1_555 1_555
N5N C7N 1_555 1_555
H26N N5N 1_555 1_555
Fe1E N2E 1_555 1_555
Fe1N N2N 1_555 1_555
S1E C1E 1_555 1_555
C1E N1E 1_555 1_555
N1E Fe1E 1_555 1_555
S1H C1H 1_555 1_555
C1H N1H 1_555 1_555
N1H Fe1E 1_555 1_555
N2H Fe1E 1_555 1_555
N3H N2H 1_555 1_555
H1H N3H 1_555 1_555
C2H N2H 1_555 1_555
C3H C2H 1_555 1_555
C4H N3H 1_555 1_555
C5H C2H 1_555 1_555
H2H C5H 1_555 1_555
H3H C5H 1_555 1_555
H4H C5H 1_555 1_555
C6H C4H 1_555 1_555
H8H C6H 1_555 1_555
H9H C6H 1_555 1_555
H10H C6H 1_555 1_555
C7H C8H 1_555 1_555
C8H C3H 1_555 1_555
C9H C8H 1_555 1_555
C10H C7H 1_555 1_555
H14H C10H 1_555 1_555
H15H C10H 1_555 1_555
H16H C10H 1_555 1_555
C11H C9H 1_555 1_555
H20H C11H 1_555 1_555
H21H C11H 1_555 1_555
H22H C11H 1_555 1_555
N4H C9H 1_555 1_555
N5H C7H 1_555 1_555
H26H N5H 1_555 1_555
N2P N3P 1_555 1_555
N3P H1P 1_555 1_555
C2P N2P 1_555 1_555
C3P C2P 1_555 1_555
C4P N3P 1_555 1_555
C5P C2P 1_555 1_555
H2P C5P 1_555 1_555
H3P C5P 1_555 1_555
H4P C5P 1_555 1_555
C6P C4P 1_555 1_555
H8P C6P 1_555 1_555
H9P C6P 1_555 1_555
H10P C6P 1_555 1_555
C7P C8P 1_555 1_555
C8P C3P 1_555 1_555
C9P C8P 1_555 1_555
C10P C7P 1_555 1_555
H14P C10P 1_555 1_555
H15P C10P 1_555 1_555
H16P C10P 1_555 1_555
C11P C9P 1_555 1_555
H20P C11P 1_555 1_555
H21P C11P 1_555 1_555
H22P C11P 1_555 1_555
N4P Fe1E 1_555 1_555
N5P C7P 1_555 1_555
H26P N5P 1_555 1_555
S1N C1N 1_555 1_555
C1N N1N 1_555 1_555
N1N Fe1N 1_555 1_555
S1Q C1Q 1_555 1_555
C1Q N1Q 1_555 1_555
N1Q Fe1N 1_555 1_555
Fe1M N4 1_555 1_555
Fe1D N4I 1_555 1_555
N4J Fe1E 1_555 1_555
N2Q Fe1N 1_555 1_555
N4A Fe1N 1_555 1_555
N4G Fe1N 1_555 1_555
Fe1F N4H 1_555 1_555
Fe1M_2 N2P 1_555 1_555
C3 C4 1_555 1_555
N4 N5 1_555 1_555
C13 C13A 1_555 1_555
C13 C13B 1_555 1_555
C13A C13B 1_555 1_555
C3I C4I 1_555 1_555
N4I N5I 1_555 1_555
C3E C4E 1_555 1_555
C9E N4E 1_555 1_555
N4E N5E 1_555 1_555
C3N C4N 1_555 1_555
C9N N4N 1_555 1_555
N4N N5N 1_555 1_555
C3H C4H 1_555 1_555
N4H N5H 1_555 1_555
C3P C4P 1_555 1_555
C9P N4P 1_555 1_555
N4P N5P 1_555 1_555

#END
