
#######################################################################
#
#                 Cambridge Crystallographic Data Centre
#                                CCDC 
#
#######################################################################
#
# If this CIF has been generated from an entry in the Cambridge 
# Structural Database, then it will include bibliographic, chemical, 
# crystal, experimental, refinement or atomic coordinate data resulting 
# from the CCDC's data processing and validation procedures.
#
#######################################################################

data_PEVJOQ
_chemical_formula_moiety         '(C56 H46 Cd2 N8 O9)n'
_symmetry_cell_setting           monoclinic
_symmetry_space_group_name_H-M   'C 2/c'
_symmetry_Int_Tables_number      15
_space_group_name_Hall           '-C 2yc'
loop_
_symmetry_equiv_pos_site_id
_symmetry_equiv_pos_as_xyz
1 x,y,z
2 1/2+x,1/2+y,z
3 -x,y,1/2-z
4 1/2-x,1/2+y,1/2-z
5 -x,-y,-z
6 1/2-x,1/2-y,-z
7 x,-y,1/2+z
8 1/2+x,1/2-y,1/2+z
_cell_length_a                   38.661(5)
_cell_length_b                   14.5187(19)
_cell_length_c                   9.2133(12)
_cell_angle_alpha                90
_cell_angle_beta                 98.201(2)
_cell_angle_gamma                90
_cell_volume                     5118.61
loop_
_atom_site_label
_atom_site_type_symbol
_atom_site_fract_x
_atom_site_fract_y
_atom_site_fract_z
Cd1 Cd 0.103728(11) 0.26611(3) 0.39881(5)
O1 O 0.15750(11) 0.1859(3) 0.4228(6)
O2 O 0.15977(11) 0.3340(3) 0.4661(6)
O3 O 0.04824(12) 0.3257(4) 0.4346(6)
O4 O 0.08528(12) 0.2862(4) 0.6260(6)
N1 N 0.10039(13) 0.3467(4) 0.1883(6)
N2 N 0.12141(13) 0.4155(3) 0.0074(5)
C1 C 0.17438(14) 0.2581(4) 0.4533(6)
C2 C 0.21387(14) 0.2534(4) 0.4765(6)
C3 C 0.23300(15) 0.3330(4) 0.4793(6)
H1 H 0.2216 0.3893 0.4644
C4 C 0.23053(14) 0.1696(4) 0.4956(6)
H2 H 0.2176 0.1153 0.4919
C5 C 0.05467(17) 0.3086(5) 0.5678(8)
C6 C 0.02659(16) 0.3143(4) 0.6629(7)
C7 C 0.03449(16) 0.3146(5) 0.8132(8)
H3 H 0.0577 0.3151 0.8565
C8 C -0.00838(16) 0.3143(5) 0.5997(8)
H4 H -0.0141 0.3141 0.4981
C9 C 0.12536(16) 0.3465(4) 0.1046(7)
H5 H 0.1435 0.3038 0.1122
C10 C 0.07977(17) 0.4205(5) 0.1443(8)
H6 H 0.0600 0.4384 0.1840
C11 C 0.09265(18) 0.4631(5) 0.0341(7)
H7 H 0.0836 0.5156 -0.0150
C12 C 0.14286(18) 0.4336(5) -0.1077(7)
H8 H 0.1403 0.4978 -0.1363
H9 H 0.1342 0.3965 -0.1928
C13 C 0.18073(16) 0.4134(4) -0.0638(6)
C14 C 0.19888(18) 0.4422(5) 0.0682(7)
H10 H 0.1869 0.4700 0.1371
C15 C 0.23466(17) 0.4304(5) 0.0993(7)
H11 H 0.2464 0.4505 0.1889
C16 C 0.25361(16) 0.3886(4) -0.0017(6)
C17 C 0.23494(19) 0.3564(5) -0.1306(7)
H12 H 0.2467 0.3258 -0.1976
C18 C 0.19933(19) 0.3686(5) -0.1622(7)
H13 H 0.1875 0.3466 -0.2504
C19 C 0.29198(16) 0.3825(4) 0.0270(7)
C20 C 0.31011(19) 0.3717(5) 0.1683(7)
H14 H 0.2976 0.3665 0.2471
C21 C 0.34616(19) 0.3685(5) 0.1935(8)
H15 H 0.3576 0.3617 0.2888
C22 C 0.36546(18) 0.3753(4) 0.0793(8)
C23 C 0.34820(19) 0.3853(5) -0.0602(8)
H16 H 0.3609 0.3898 -0.1385
C24 C 0.31222(19) 0.3888(5) -0.0859(7)
H17 H 0.3011 0.3955 -0.1817
C25 C 0.40518(18) 0.3780(5) 0.1093(9)
H18 H 0.4133 0.3398 0.1937
H19 H 0.4148 0.3536 0.0255
C26 C 0.40033(16) 0.5499(5) 0.1134(7)
H20 H 0.3767 0.5521 0.0758
N3 N 0.41844(15) 0.6236(4) 0.1450(8)
N4 N 0.41708(15) 0.4719(4) 0.1372(8)
C27 C 0.4493(5) 0.5882(12) 0.2376(19)
H21 H 0.4684 0.6248 0.2842
C28 C 0.4482(3) 0.4954(9) 0.2326(15)
H22 H 0.4640 0.4530 0.2875
Cd1E Cd 0.396272(11) 0.23389(3) 0.60119(5)
Cd1C Cd 0.396272(11) 0.76611(3) 0.10119(5)
Cd1B Cd -0.103728(11) 0.26611(3) 1.10119(5)
Cd1C_2 Cd 0.396272(11) -0.23389(3) 0.10119(5)
O1E O 0.34250(11) 0.3141(3) 0.5772(6)
O2E O 0.34023(11) 0.1660(3) 0.5339(6)
O3B O -0.04824(12) 0.3257(4) 1.0654(6)
O3E O 0.45176(12) 0.1743(4) 0.5654(6)
O4B O -0.08528(12) 0.2862(4) 0.8740(6)
O4E O 0.41472(12) 0.2138(4) 0.3740(6)
N1C N 0.39961(13) -0.1533(4) 0.3117(6)
N1E N 0.39961(13) 0.1533(4) 0.8117(6)
N2C N 0.37859(13) -0.0845(3) 0.4926(5)
C1E C 0.32562(14) 0.2419(4) 0.5467(6)
C2E C 0.28613(14) 0.2466(4) 0.5235(6)
C3E C 0.26700(15) 0.1670(4) 0.5207(6)
H1E H 0.2784 0.1107 0.5356
C4E C 0.26947(14) 0.3304(4) 0.5044(6)
H2E H 0.2824 0.3847 0.5081
C5B C -0.05467(17) 0.3086(5) 0.9322(8)
C6B C -0.02659(16) 0.3143(4) 0.8371(7)
C7B C -0.03449(16) 0.3146(5) 0.6868(8)
H3B H -0.0577 0.3151 0.6435
C8B C 0.00838(16) 0.3143(5) 0.9003(8)
H4B H 0.0141 0.3141 1.0019
C9C C 0.37464(16) -0.1535(4) 0.3954(7)
H5C H 0.3565 -0.1962 0.3878
C10C C 0.42023(17) -0.0795(5) 0.3557(8)
H6C H 0.4400 -0.0616 0.3160
C11C C 0.40735(18) -0.0369(5) 0.4659(7)
H7C H 0.4164 0.0156 0.5150
C12C C 0.35714(18) -0.0664(5) 0.6077(7)
H8C H 0.3597 -0.0022 0.6363
H9C H 0.3658 -0.1035 0.6928
C13C C 0.31927(16) -0.0866(4) 0.5638(6)
C14C C 0.30112(18) -0.0578(5) 0.4318(7)
H10C H 0.3131 -0.0300 0.3629
C15C C 0.26534(17) -0.0696(5) 0.4007(7)
H11C H 0.2536 -0.0495 0.3111
C16C C 0.24639(16) -0.1114(4) 0.5017(6)
C17C C 0.26506(19) -0.1436(5) 0.6306(7)
H12C H 0.2533 -0.1742 0.6976
C18C C 0.30067(19) -0.1314(5) 0.6622(7)
H13C H 0.3125 -0.1534 0.7504
C19C C 0.20802(16) -0.1175(4) 0.4730(7)
C20C C 0.18989(19) -0.1283(5) 0.3317(7)
H14C H 0.2024 -0.1335 0.2529
C21C C 0.15384(19) -0.1315(5) 0.3065(8)
H15C H 0.1424 -0.1383 0.2112
C22C C 0.13454(18) -0.1247(4) 0.4207(8)
C23C C 0.15180(19) -0.1147(5) 0.5602(8)
H16C H 0.1391 -0.1102 0.6385
C24C C 0.18778(19) -0.1112(5) 0.5859(7)
H17C H 0.1989 -0.1045 0.6817
C25C C 0.09482(18) -0.1220(5) 0.3907(9)
H18C H 0.0867 -0.1602 0.3063
H19C H 0.0852 -0.1464 0.4745
C26C C 0.09967(16) 0.0499(5) 0.3866(7)
H20C H 0.1233 0.0521 0.4242
N3C N 0.08156(15) 0.1236(4) 0.3550(8)
N3F N 0.41844(15) 0.3764(4) 0.6450(8)
N4C N 0.08292(15) -0.0281(4) 0.3628(8)
C27C C 0.0507(5) 0.0882(12) 0.2624(19)
H21C H 0.0316 0.1248 0.2158
C28C C 0.0518(3) -0.0046(9) 0.2674(15)
H22C H 0.0360 -0.0470 0.2125
O5 O 0.0000 0.4421(19) 0.2500
H26 H -0.0124 0.3959 0.2190
H26B H 0.0124 0.3959 0.2810
loop_
_geom_bond_atom_site_label_1
_geom_bond_atom_site_label_2
_geom_bond_site_symmetry_1
_geom_bond_site_symmetry_2
Cd1 O1 1_555 1_555
O1 C1 1_555 1_555
O2 Cd1 1_555 1_555
O3 Cd1 1_555 1_555
O4 Cd1 1_555 1_555
N1 Cd1 1_555 1_555
N2 C9 1_555 1_555
C1 O2 1_555 1_555
C2 C1 1_555 1_555
C3 C2 1_555 1_555
H1 C3 1_555 1_555
C4 C2 1_555 1_555
H2 C4 1_555 1_555
C5 O3 1_555 1_555
C6 C5 1_555 1_555
C7 C6 1_555 1_555
H3 C7 1_555 1_555
C8 C6 1_555 1_555
H4 C8 1_555 1_555
C9 N1 1_555 1_555
H5 C9 1_555 1_555
C10 N1 1_555 1_555
H6 C10 1_555 1_555
C11 N2 1_555 1_555
H7 C11 1_555 1_555
C12 N2 1_555 1_555
H8 C12 1_555 1_555
H9 C12 1_555 1_555
C13 C12 1_555 1_555
C14 C13 1_555 1_555
H10 C14 1_555 1_555
C15 C14 1_555 1_555
H11 C15 1_555 1_555
C16 C15 1_555 1_555
C17 C16 1_555 1_555
H12 C17 1_555 1_555
C18 C13 1_555 1_555
H13 C18 1_555 1_555
C19 C16 1_555 1_555
C20 C19 1_555 1_555
H14 C20 1_555 1_555
C21 C20 1_555 1_555
H15 C21 1_555 1_555
C22 C21 1_555 1_555
C23 C22 1_555 1_555
H16 C23 1_555 1_555
C24 C19 1_555 1_555
H17 C24 1_555 1_555
C25 C22 1_555 1_555
H18 C25 1_555 1_555
H19 C25 1_555 1_555
C26 H20 1_555 1_555
N3 C26 1_555 1_555
N4 C25 1_555 1_555
C27 N3 1_555 1_555
H21 C27 1_555 1_555
C28 N4 1_555 1_555
H22 C28 1_555 1_555
O5 H26 1_555 1_555
Cd1E O1E 1_555 1_555
Cd1C N3 1_555 1_555
Cd1B O3B 1_555 1_555
Cd1C_2 N1C 1_555 1_555
O1E C1E 1_555 1_555
O2E Cd1E 1_555 1_555
O3B C5B 1_555 1_555
O3E Cd1E 1_555 1_555
O4B Cd1B 1_555 1_555
O4E Cd1E 1_555 1_555
N1C C9C 1_555 1_555
N1E Cd1E 1_555 1_555
N2C C9C 1_555 1_555
C1E O2E 1_555 1_555
C2E C1E 1_555 1_555
C3E C4 1_555 1_555
H1E C3E 1_555 1_555
C4E C3 1_555 1_555
H2E C4E 1_555 1_555
C5B O4B 1_555 1_555
C6B C5B 1_555 1_555
C7B C8 1_555 1_555
H3B C7B 1_555 1_555
C8B C7 1_555 1_555
H4B C8B 1_555 1_555
C9C H5C 1_555 1_555
C10C N1C 1_555 1_555
H6C C10C 1_555 1_555
C11C N2C 1_555 1_555
H7C C11C 1_555 1_555
C12C N2C 1_555 1_555
H8C C12C 1_555 1_555
H9C C12C 1_555 1_555
C13C C12C 1_555 1_555
C14C C13C 1_555 1_555
H10C C14C 1_555 1_555
C15C C14C 1_555 1_555
H11C C15C 1_555 1_555
C16C C15C 1_555 1_555
C17C C16C 1_555 1_555
H12C C17C 1_555 1_555
C18C C13C 1_555 1_555
H13C C18C 1_555 1_555
C19C C16C 1_555 1_555
C20C C19C 1_555 1_555
H14C C20C 1_555 1_555
C21C C20C 1_555 1_555
H15C C21C 1_555 1_555
C22C C21C 1_555 1_555
C23C C22C 1_555 1_555
H16C C23C 1_555 1_555
C24C C19C 1_555 1_555
H17C C24C 1_555 1_555
C25C C22C 1_555 1_555
H18C C25C 1_555 1_555
H19C C25C 1_555 1_555
C26C H20C 1_555 1_555
N3C Cd1 1_555 1_555
N3F Cd1E 1_555 1_555
N4C C25C 1_555 1_555
C27C N3C 1_555 1_555
H21C C27C 1_555 1_555
C28C N4C 1_555 1_555
H22C C28C 1_555 1_555
H26B O5 1_555 1_555
O4 C5 1_555 1_555
C10 C11 1_555 1_555
C17 C18 1_555 1_555
C23 C24 1_555 1_555
C26 N4 1_555 1_555
C27 C28 1_555 1_555
C2E C3E 1_555 1_555
C2E C4E 1_555 1_555
C6B C7B 1_555 1_555
C6B C8B 1_555 1_555
C10C C11C 1_555 1_555
C17C C18C 1_555 1_555
C23C C24C 1_555 1_555
C26C N3C 1_555 1_555
C26C N4C 1_555 1_555
C27C C28C 1_555 1_555

#END
