
#######################################################################
#
#                 Cambridge Crystallographic Data Centre
#                                CCDC 
#
#######################################################################
#
# If this CIF has been generated from an entry in the Cambridge 
# Structural Database, then it will include bibliographic, chemical, 
# crystal, experimental, refinement or atomic coordinate data resulting 
# from the CCDC's data processing and validation procedures.
#
#######################################################################

data_HUSQES
_chemical_formula_moiety         '(C14 H26 Mo2 N6 O10)n'
_symmetry_cell_setting           orthorhombic
_symmetry_space_group_name_H-M   'P n m a'
_symmetry_Int_Tables_number      62
_space_group_name_Hall           '-P 2ac 2n'
loop_
_symmetry_equiv_pos_site_id
_symmetry_equiv_pos_as_xyz
1 x,y,z
2 1/2-x,-y,1/2+z
3 1/2+x,1/2-y,1/2-z
4 -x,1/2+y,-z
5 -x,-y,-z
6 1/2+x,y,1/2-z
7 1/2-x,1/2+y,1/2+z
8 x,1/2-y,z
_cell_length_a                   15.1155(9)
_cell_length_b                   12.4471(7)
_cell_length_c                   12.4209(9)
_cell_angle_alpha                90
_cell_angle_beta                 90
_cell_angle_gamma                90
_cell_volume                     2336.92
loop_
_atom_site_label
_atom_site_type_symbol
_atom_site_fract_x
_atom_site_fract_y
_atom_site_fract_z
_atom_site_U_iso_or_equiv
_atom_site_thermal_displace_type
Mo1 Mo -0.060694(11) 0.397157(14) 0.086067(13) 0.0113 Uani
O1 O -0.08802(13) 0.2500 0.12276(17) 0.0130 Uani
O2 O -0.03059(11) 0.44287(14) 0.21130(13) 0.0206 Uani
O3 O 0.0000 0.5000 0.0000 0.0161 Uani
O4 O -0.16577(10) 0.44338(14) 0.06935(14) 0.0220 Uani
N1 N 0.21165(15) 0.2500 0.0395(2) 0.0137 Uani
N2 N 0.07644(11) 0.30574(16) 0.06862(14) 0.0150 Uani
N3 N 0.42830(16) 0.2500 -0.2530(2) 0.0144 Uani
N4 N 0.43252(11) 0.30533(16) -0.41946(14) 0.0156 Uani
C1 C 0.15825(14) 0.33677(19) 0.05091(19) 0.0173 Uani
H1 H 0.1770 0.4087 0.0467 0.0210 Uiso
C2 C 0.42996(15) 0.33648(19) -0.31864(17) 0.0175 Uani
H2 H 0.4294 0.4084 -0.2955 0.0210 Uiso
C3 C 0.30823(18) 0.2500 0.0145(2) 0.0130 Uani
C4 C 0.3195(2) 0.2500 -0.1079(2) 0.0148 Uani
H3 H 0.2917 0.3130 -0.1386 0.0180 Uiso
C5 C 0.4188(2) 0.2500 -0.1335(2) 0.0150 Uani
C6 C 0.46238(15) 0.1492(2) -0.08617(17) 0.0171 Uani
H4 H 0.4352 0.0847 -0.1171 0.0210 Uiso
H5 H 0.5256 0.1485 -0.1037 0.0210 Uiso
C7 C 0.44985(14) 0.1497(2) 0.03604(18) 0.0178 Uani
H6 H 0.4780 0.0849 0.0670 0.0210 Uiso
C8 C 0.35027(14) 0.1487(2) 0.06282(17) 0.0166 Uani
H7 H 0.3224 0.0844 0.0324 0.0200 Uiso
H8 H 0.3417 0.1478 0.1410 0.0200 Uiso
C9 C 0.4926(2) 0.2500 0.0848(3) 0.0197 Uani
H9 H 0.5562 0.2500 0.0697 0.0240 Uiso
H10 H 0.4844 0.2500 0.1630 0.0240 Uiso
Mo1G Mo -0.060694(11) 0.102843(14) 0.086067(13) 0.0113 Uani
Mo1D Mo 0.060694(11) 0.602843(14) -0.086067(13) 0.0113 Uani
Mo1E Mo 0.439306(11) 0.397157(14) -0.586067(13) 0.0113 Uani
Mo1B Mo 0.439306(11) 0.102843(14) -0.586067(13) 0.0113 Uani
O2G O -0.03059(11) 0.05713(14) 0.21130(13) 0.0206 Uani
O3C O 0.0000 0.0000 0.0000 0.0161 Uani
O4G O -0.16577(10) 0.05662(14) 0.06935(14) 0.0220 Uani
N2G N 0.07644(11) 0.19426(16) 0.06862(14) 0.0150 Uani
N4G N 0.43252(11) 0.19467(16) -0.41946(14) 0.0156 Uani
N4E N -0.06748(11) 0.30533(16) -0.08054(14) 0.0156 Uani
N4B N -0.06748(11) 0.19467(16) -0.08054(14) 0.0156 Uani
C1G C 0.15825(14) 0.16323(19) 0.05091(19) 0.0173 Uani
H1G H 0.1770 0.0913 0.0467 0.0210 Uiso
C2G C 0.42996(15) 0.16352(19) -0.31864(17) 0.0175 Uani
H2G H 0.4294 0.0916 -0.2955 0.0210 Uiso
H3G H 0.2917 0.1870 -0.1386 0.0180 Uiso
C6G C 0.46238(15) 0.3508(2) -0.08617(17) 0.0171 Uani
H4G H 0.4352 0.4153 -0.1171 0.0210 Uiso
H5G H 0.5256 0.3515 -0.1037 0.0210 Uiso
C7G C 0.44985(14) 0.3503(2) 0.03604(18) 0.0178 Uani
H6G H 0.4780 0.4151 0.0670 0.0210 Uiso
C8G C 0.35027(14) 0.3513(2) 0.06282(17) 0.0166 Uani
H7G H 0.3224 0.4156 0.0324 0.0200 Uiso
H8G H 0.3417 0.3522 0.1410 0.0200 Uiso
O5 O 0.72115(16) 0.2500 0.1140(2) 0.0322 Uani
H11 H 0.7776 0.2500 0.1235 0.0480 Uiso
H12 H 0.7113 0.2500 0.0484 0.0480 Uiso
O6 O 0.34704(14) -0.0661(2) -0.2049(2) 0.0454 Uani
H13 H 0.3983 -0.0712 -0.2253 0.0680 Uiso
H14 H 0.3303 -0.1265 -0.1773 0.0680 Uiso
O7 O 0.7008(3) 0.2500 -0.1022(3) 0.0597 Uani
H15 H 0.7054 0.1947 -0.1469 0.0890 Uiso
H15G H 0.7054 0.3053 -0.1469 0.0890 Uiso
O8 O 0.20789(18) 0.0626(2) -0.2810(2) 0.0572 Uani
H16 H 0.1806 0.0406 -0.2274 0.0860 Uiso
H17 H 0.2604 0.0312 -0.2777 0.0860 Uiso
loop_
_atom_site_aniso_label
_atom_site_aniso_U_11
_atom_site_aniso_U_22
_atom_site_aniso_U_33
_atom_site_aniso_U_23
_atom_site_aniso_U_13
_atom_site_aniso_U_12
Mo1 0.01283(10) 0.00700(11) 0.01412(10) -0.00021(6) 0.00196(6) -0.00004(6)
O1 0.0138(9) 0.0102(11) 0.0149(9) 0.000 0.0022(8) 0.000
O2 0.0291(8) 0.0146(8) 0.0180(8) -0.0006(7) 0.0021(7) -0.0038(7)
O3 0.0201(10) 0.0098(12) 0.0184(10) 0.0001(8) 0.0046(8) -0.0011(8)
O4 0.0184(8) 0.0145(8) 0.0332(9) 0.0043(7) 0.0043(6) 0.0002(6)
N1 0.0104(11) 0.0114(13) 0.0194(12) 0.000 0.0008(9) 0.000
N2 0.0127(7) 0.0115(10) 0.0207(9) 0.0008(7) 0.0022(6) 0.0002(7)
N3 0.0182(11) 0.0109(12) 0.0141(11) 0.000 0.0027(9) 0.000
N4 0.0194(8) 0.0103(10) 0.0170(8) -0.0003(7) 0.0014(7) 0.0002(7)
C1 0.0160(9) 0.0117(12) 0.0243(10) 0.0018(9) 0.0023(8) -0.0010(8)
C2 0.0241(11) 0.0110(12) 0.0175(10) -0.0017(8) 0.0022(8) -0.0027(9)
C3 0.0098(12) 0.0129(15) 0.0164(13) 0.000 0.0018(11) 0.000
C4 0.0150(13) 0.0129(14) 0.0164(13) 0.000 -0.0027(11) 0.000
C5 0.0188(14) 0.0125(15) 0.0137(13) 0.000 0.0013(11) 0.000
C6 0.0182(10) 0.0152(11) 0.0180(10) 0.0012(9) 0.0022(8) 0.0023(9)
C7 0.0169(10) 0.0188(12) 0.0177(10) 0.0033(9) -0.0015(8) 0.0038(9)
C8 0.0151(9) 0.0172(11) 0.0175(10) 0.0028(9) 0.0005(8) 0.0000(8)
C9 0.0172(14) 0.0247(19) 0.0171(14) 0.000 -0.0018(11) 0.000
Mo1G 0.01283 0.007 0.01412 0.00021 0.00196 4e-05
Mo1D 0.01283 0.007 0.01412 -0.00021 0.00196 -4e-05
Mo1E 0.01283 0.007 0.01412 0.00021 -0.00196 -4e-05
Mo1B 0.01283 0.007 0.01412 -0.00021 -0.00196 4e-05
O2G 0.0291 0.0146 0.018 0.0006 0.0021 0.0038
O3C 0.0201 0.0098 0.0184 -0.0001 0.0046 0.0011
O4G 0.0184 0.0145 0.0332 -0.0043 0.0043 -0.0002
N2G 0.0127 0.0115 0.0207 -0.0008 0.0022 -0.0002
N4G 0.0194 0.0103 0.017 0.0003 0.0014 -0.0002
N4E 0.0194 0.0103 0.017 0.0003 -0.0014 0.0002
N4B 0.0194 0.0103 0.017 -0.0003 -0.0014 -0.0002
C1G 0.016 0.0117 0.0243 -0.0018 0.0023 0.001
C2G 0.0241 0.011 0.0175 0.0017 0.0022 0.0027
C6G 0.0182 0.0152 0.018 -0.0012 0.0022 -0.0023
C7G 0.0169 0.0188 0.0177 -0.0033 -0.0015 -0.0038
C8G 0.0151 0.0172 0.0175 -0.0028 0.0005 0
O5 0.0163(11) 0.0237(14) 0.0565(17) 0.000 0.0025(11) 0.000
O6 0.0424(11) 0.0319(12) 0.0618(15) 0.0035(11) 0.0190(11) -0.0075(10)
O7 0.075(3) 0.042(2) 0.062(2) 0.000 -0.0044(19) 0.000
O8 0.0862(19) 0.0401(14) 0.0453(13) 0.0107(12) -0.0006(13) -0.0232(14)
loop_
_geom_bond_atom_site_label_1
_geom_bond_atom_site_label_2
_geom_bond_site_symmetry_1
_geom_bond_site_symmetry_2
Mo1 O1 1_555 1_555
O1 Mo1G 1_555 1_555
O2 Mo1 1_555 1_555
O3 Mo1 1_555 1_555
O4 Mo1 1_555 1_555
N1 C1 1_555 1_555
N2 Mo1 1_555 1_555
N3 C2 1_555 1_555
N4 C2 1_555 1_555
C1 N2 1_555 1_555
H1 C1 1_555 1_555
C2 H2 1_555 1_555
C3 N1 1_555 1_555
C4 C3 1_555 1_555
H3 C4 1_555 1_555
C5 N3 1_555 1_555
C6 C5 1_555 1_555
H4 C6 1_555 1_555
H5 C6 1_555 1_555
C7 C6 1_555 1_555
H6 C7 1_555 1_555
C8 C3 1_555 1_555
H7 C8 1_555 1_555
H8 C8 1_555 1_555
C9 C7 1_555 1_555
H9 C9 1_555 1_555
H10 C9 1_555 1_555
O5 H11 1_555 1_555
H12 O5 1_555 1_555
O6 H13 1_555 1_555
H14 O6 1_555 1_555
O7 H15 1_555 1_555
O8 H16 1_555 1_555
H17 O8 1_555 1_555
Mo1G O2G 1_555 1_555
Mo1D O3 1_555 1_555
Mo1E N4 1_555 1_555
Mo1B N4G 1_555 1_555
O3C Mo1G 1_555 1_555
O4G Mo1G 1_555 1_555
N2G N2 1_555 1_555
N4G N4 1_555 1_555
N4E Mo1 1_555 1_555
N4B Mo1G 1_555 1_555
C1G N1 1_555 1_555
H1G C1G 1_555 1_555
C2G N3 1_555 1_555
H2G C2G 1_555 1_555
H3G C4 1_555 1_555
C6G C5 1_555 1_555
H4G C6G 1_555 1_555
H5G C6G 1_555 1_555
C7G C9 1_555 1_555
H6G C7G 1_555 1_555
C8G C3 1_555 1_555
H7G C8G 1_555 1_555
H8G C8G 1_555 1_555
H15G O7 1_555 1_555
C4 C5 1_555 1_555
C7 C8 1_555 1_555
Mo1G N2G 1_555 1_555
N2G C1G 1_555 1_555
N4G C2G 1_555 1_555
N4E N4B 1_555 1_555
C6G C7G 1_555 1_555
C7G C8G 1_555 1_555

#END
