
#######################################################################
#
#                 Cambridge Crystallographic Data Centre
#                                CCDC 
#
#######################################################################
#
# If this CIF has been generated from an entry in the Cambridge 
# Structural Database, then it will include bibliographic, chemical, 
# crystal, experimental, refinement or atomic coordinate data resulting 
# from the CCDC's data processing and validation procedures.
#
#######################################################################

data_ATOXEN
_chemical_formula_moiety         '(C28 H20 N2 O8 Zn2)n'
_symmetry_cell_setting           triclinic
_symmetry_space_group_name_H-M   'P -1'
_symmetry_Int_Tables_number      2
_space_group_name_Hall           '-P 1'
loop_
_symmetry_equiv_pos_site_id
_symmetry_equiv_pos_as_xyz
1 x,y,z
2 -x,-y,-z
_cell_length_a                   10.925(2)
_cell_length_b                   10.946(2)
_cell_length_c                   13.972(3)
_cell_angle_alpha                95.20(3)
_cell_angle_beta                 99.23(3)
_cell_angle_gamma                99.89(3)
_cell_volume                     1612.66
loop_
_atom_site_label
_atom_site_type_symbol
_atom_site_fract_x
_atom_site_fract_y
_atom_site_fract_z
C1 C 0.6749(8) 1.0606(8) 0.2122(8)
C2 C 0.6810(8) 0.9220(8) 0.2143(6)
C3 C 0.7122(8) 0.8802(8) 0.3038(6)
H1 H 0.7283 0.9345 0.3615
C4 C 0.7189(8) 0.7506(9) 0.3054(6)
H2 H 0.7400 0.7208 0.3649
C5 C 0.6952(7) 0.6710(8) 0.2219(6)
C6 C 0.6603(7) 0.7146(8) 0.1326(6)
H3 H 0.6400 0.6599 0.0751
C7 C 0.6560(8) 0.8410(8) 0.1303(6)
H4 H 0.6358 0.8705 0.0705
C8 C 0.6993(7) 0.5344(9) 0.2272(7)
C9 C 0.9290(8) 0.3146(8) 0.2406(7)
C10 C 1.0643(7) 0.3083(7) 0.2311(6)
C11 C 1.1558(8) 0.3304(9) 0.3146(7)
H5 H 1.1359 0.3535 0.3751
C12 C 1.2797(7) 0.3171(9) 0.3066(6)
H6 H 1.3406 0.3277 0.3629
C13 C 1.3126(7) 0.2890(8) 0.2179(6)
C14 C 1.2206(8) 0.2732(9) 0.1351(7)
H7 H 1.2419 0.2569 0.0740
C15 C 1.0962(7) 0.2813(9) 0.1420(6)
H8 H 1.0347 0.2683 0.0858
C16 C 1.4470(7) 0.2830(7) 0.2101(7)
C17 C 0.6528(8) 0.1695(9) -0.0909(6)
H9 H 0.6360 0.0940 -0.0654
C18 C 0.6646(9) 0.1671(9) -0.1889(6)
C19 C 0.6921(8) 0.2789(9) -0.2260(6)
C20 C 0.7057(12) 0.3864(10) -0.1646(7)
H10 H 0.7246 0.4636 -0.1870
C21 C 0.6912(10) 0.3796(9) -0.0683(7)
H11 H 0.7011 0.4540 -0.0276
C22 C 0.7061(9) 0.2853(8) -0.3294(6)
C23 C 0.5983(10) 0.2624(13) -0.3997(8)
H12 H 0.5198 0.2394 -0.3820
C24 C 0.6059(9) 0.2733(12) -0.4974(7)
H13 H 0.5330 0.2531 -0.5447
C25 C 0.8176(8) 0.3327(9) -0.4570(6)
H14 H 0.8947 0.3559 -0.4767
C26 C 0.8192(8) 0.3224(9) -0.3575(7)
C27 C 0.6497(11) 0.0382(10) -0.2502(8)
H15 H 0.5679 0.0180 -0.2912
H16 H 0.6583 -0.0246 -0.2072
H17 H 0.7138 0.0415 -0.2900
C28 C 0.9441(9) 0.3529(12) -0.2873(8)
H18 H 0.9332 0.3959 -0.2272
H19 H 1.0051 0.4052 -0.3156
H20 H 0.9731 0.2770 -0.2748
N1 N 0.6649(7) 0.2761(7) -0.0318(5)
N2 N 0.7168(6) 0.3124(7) -0.5235(5)
O1 O 0.6979(6) 1.1306(6) 0.2936(5)
O2 O 0.6478(5) 1.0936(5) 0.1283(4)
O3 O 0.6750(5) 0.4644(6) 0.1462(5)
O4 O 0.7297(5) 0.4984(5) 0.3083(4)
O5 O 0.9036(5) 0.3288(6) 0.3251(4)
O6 O 0.8519(5) 0.2998(6) 0.1615(5)
O7 O 1.5254(5) 0.2994(6) 0.2888(4)
O8 O 1.4713(5) 0.2624(6) 0.1256(4)
Zn1 Zn 0.65791(8) 0.27732(9) 0.11319(6)
Zn2 Zn 0.71813(8) 0.31806(9) -0.66984(6)
O1_2 O 0.6979(6) 0.1306(6) -0.7064(5)
O2_2 O 0.6478(5) 0.0936(5) 0.1283(4)
O4_2 O 0.7297(5) 0.4984(5) -0.6917(4)
O5_2 O 0.9036(5) 0.3288(6) -0.6749(4)
O7_2 O 0.5254(5) 0.2994(6) -0.7112(4)
O8_2 O 0.4713(5) 0.2624(6) 0.1256(4)
Zn1_2 Zn 0.65791(8) 1.27732(9) 0.11319(6)
Zn1_3 Zn 1.65791(8) 0.27732(9) 0.11319(6)
Zn2_2 Zn 0.71813(8) 1.31806(9) 0.33016(6)
Zn2_3 Zn 0.71813(8) 0.31806(9) 0.33016(6)
Zn2_4 Zn 1.71813(8) 0.31806(9) 0.33016(6)
loop_
_geom_bond_atom_site_label_1
_geom_bond_atom_site_label_2
_geom_bond_site_symmetry_1
_geom_bond_site_symmetry_2
C1 C2 1_555 1_555
C2 C3 1_555 1_555
C3 H1 1_555 1_555
C4 C3 1_555 1_555
H2 C4 1_555 1_555
C5 C4 1_555 1_555
C6 C5 1_555 1_555
H3 C6 1_555 1_555
C7 C2 1_555 1_555
H4 C7 1_555 1_555
C8 C5 1_555 1_555
C9 C10 1_555 1_555
C10 C11 1_555 1_555
C11 H5 1_555 1_555
C12 C11 1_555 1_555
H6 C12 1_555 1_555
C13 C12 1_555 1_555
C14 C13 1_555 1_555
H7 C14 1_555 1_555
C15 C10 1_555 1_555
H8 C15 1_555 1_555
C16 C13 1_555 1_555
C17 H9 1_555 1_555
C18 C17 1_555 1_555
C19 C18 1_555 1_555
C20 C19 1_555 1_555
H10 C20 1_555 1_555
C21 C20 1_555 1_555
H11 C21 1_555 1_555
C22 C19 1_555 1_555
C23 C22 1_555 1_555
H12 C23 1_555 1_555
C24 C23 1_555 1_555
H13 C24 1_555 1_555
C25 H14 1_555 1_555
C26 C22 1_555 1_555
C27 C18 1_555 1_555
H15 C27 1_555 1_555
H16 C27 1_555 1_555
H17 C27 1_555 1_555
C28 C26 1_555 1_555
H18 C28 1_555 1_555
H19 C28 1_555 1_555
H20 C28 1_555 1_555
N1 C17 1_555 1_555
N2 C24 1_555 1_555
O1 C1 1_555 1_555
O2 C1 1_555 1_555
O3 C8 1_555 1_555
O4 C8 1_555 1_555
O5 C9 1_555 1_555
O6 C9 1_555 1_555
O7 C16 1_555 1_555
O8 C16 1_555 1_555
Zn1 N1 1_555 1_555
Zn2 N2 1_555 1_555
O1_2 Zn2 1_555 1_555
O2_2 Zn1 1_555 1_555
O4_2 Zn2 1_555 1_555
O5_2 Zn2 1_555 1_555
O7_2 Zn2 1_555 1_555
O8_2 Zn1 1_555 1_555
Zn1_2 O2 1_555 1_555
Zn1_3 O8 1_555 1_555
Zn2_2 O1 1_555 1_555
Zn2_3 O4 1_555 1_555
Zn2_4 O7 1_555 1_555
C6 C7 1_555 1_555
C14 C15 1_555 1_555
C21 N1 1_555 1_555
C25 C26 1_555 1_555
C25 N2 1_555 1_555
O3 Zn1 1_555 1_555
O5 Zn2_3 1_555 1_555
O6 Zn1 1_555 1_555

#END
