
#######################################################################
#
#                 Cambridge Crystallographic Data Centre
#                                CCDC 
#
#######################################################################
#
# If this CIF has been generated from an entry in the Cambridge 
# Structural Database, then it will include bibliographic, chemical, 
# crystal, experimental, refinement or atomic coordinate data resulting 
# from the CCDC's data processing and validation procedures.
#
#######################################################################

data_ATOXAJ
_chemical_formula_moiety         '(C28 H20 N2 O8 Zn2)n'
_symmetry_cell_setting           tetragonal
_symmetry_space_group_name_H-M   'P 43 21 2'
_symmetry_Int_Tables_number      96
_space_group_name_Hall           'P 4nw 2abw'
loop_
_symmetry_equiv_pos_site_id
_symmetry_equiv_pos_as_xyz
1 x,y,z
2 1/2-y,1/2+x,3/4+z
3 -x,-y,1/2+z
4 1/2+y,1/2-x,1/4+z
5 1/2+x,1/2-y,1/4-z
6 y,x,-z
7 1/2-x,1/2+y,3/4-z
8 -y,-x,1/2-z
_cell_length_a                   10.9288(4)
_cell_length_b                   10.9288(4)
_cell_length_c                   56.2966(17)
_cell_angle_alpha                90
_cell_angle_beta                 90
_cell_angle_gamma                90
_cell_volume                     6723.99
loop_
_atom_site_label
_atom_site_type_symbol
_atom_site_fract_x
_atom_site_fract_y
_atom_site_fract_z
C1 C 0.4330(4) -0.0271(3) 0.28757(4)
C2 C 0.3591(4) 0.0384(4) 0.27201(6)
H1 H 0.3075 0.0992 0.2778
C3 C 0.3624(4) 0.0131(4) 0.24782(5)
H2 H 0.3129 0.0570 0.2374
N1 N 0.4395(3) -0.0777(3) 0.23919(4)
C4 C 0.5134(4) -0.1433(3) 0.25475(5)
C5 C 0.5101(4) -0.1179(4) 0.27894(5)
H3 H 0.5595 -0.1618 0.2894
C6 C 0.5885(6) -0.2430(5) 0.24499(8)
H4 H 0.6725 -0.2307 0.2494
H5 H 0.5815 -0.2436 0.2280
H6 H 0.5605 -0.3198 0.2512
Zn1 Zn 0.43073(5) -0.09420(5) 0.202952(8)
Zn2 Zn 0.40579(5) 0.07082(5) 0.399020(8)
O1 O 0.6136(3) -0.0842(5) 0.19694(6)
O2 O 0.6123(3) -0.0993(4) 0.15775(6)
O3 O 1.2468(3) -0.1014(5) 0.19916(6)
O4 O 1.2498(3) -0.0954(5) 0.15966(6)
O5 O 0.4240(5) 0.0892(3) 0.19473(6)
O6 O 0.4299(4) 0.0890(3) 0.15533(6)
O7 O 0.4261(4) 0.7204(3) 0.15348(6)
O8 O 0.4377(5) 0.7274(3) 0.19289(6)
N2 N 0.4187(4) 0.0525(4) 0.36225(6)
C7 C 0.6662(4) -0.0916(5) 0.17765(9)
C8 C 0.8022(4) -0.0946(4) 0.17737(8)
C9 C 0.8652(5) -0.0815(6) 0.19911(9)
H7 H 0.8216 -0.0704 0.2131
C10 C 0.9919(5) -0.0852(6) 0.19959(8)
H8 H 1.0328 -0.0780 0.2140
C11 C 1.0575(4) -0.0996(4) 0.17897(9)
C12 C 0.9962(4) -0.1147(5) 0.15733(8)
H9 H 1.0399 -0.1268 0.1434
C13 C 0.8704(5) -0.1114(5) 0.15704(9)
H10 H 0.8300 -0.1209 0.1426
C14 C 1.1949(4) -0.0983(4) 0.17912(8)
C15 C 0.4250(5) 0.1415(4) 0.17499(9)
C16 C 0.4268(5) 0.2770(5) 0.17521(9)
C17 C 0.4346(8) 0.3433(5) 0.19564(10)
H11 H 0.4395 0.3024 0.2101
C18 C 0.4355(8) 0.4720(5) 0.19549(9)
H12 H 0.4407 0.5149 0.2097
C19 C 0.4287(5) 0.5344(4) 0.17436(8)
C20 C 0.4159(7) 0.4657(5) 0.15326(9)
H13 H 0.4078 0.5063 0.1388
C21 C 0.4151(7) 0.3405(5) 0.15367(9)
H14 H 0.4068 0.2971 0.1395
C22 C 0.4321(4) 0.6725(4) 0.17356(8)
C23 C 0.4320(5) 0.0003(5) 0.31358(8)
C24 C 0.4234(5) 0.1198(4) 0.32196(9)
H15 H 0.4211 0.1847 0.3113
C25 C 0.4182(5) 0.1427(4) 0.34651(8)
C26 C 0.4281(5) -0.0632(5) 0.35424(8)
H16 H 0.4309 -0.1267 0.3652
C27 C 0.4338(5) -0.0914(5) 0.33023(9)
H17 H 0.4389 -0.1726 0.3254
C28 C 0.4091(7) 0.2735(5) 0.35555(9)
H18 H 0.3326 0.2845 0.3636
H19 H 0.4138 0.3291 0.3424
H20 H 0.4752 0.2895 0.3663
Zn1_2 Zn 1.43073(5) -0.09420(5) 0.202952(8)
Zn1_3 Zn 0.43073(5) 0.90580(5) 0.202952(8)
Zn2A Zn 0.42918(5) -0.09421(5) 0.149020(8)
Zn2A_2 Zn 1.42918(5) -0.09421(5) 0.149020(8)
Zn2A_3 Zn 0.42918(5) 0.90579(5) 0.149020(8)
O2C O 0.4007(4) -0.1123(3) 0.40775(6)
O3_2 O 0.2468(3) -0.1014(5) 0.19916(6)
O4C O 0.4046(5) 0.2502(3) 0.40966(6)
O6C O 0.5890(3) 0.0701(4) 0.40533(6)
O7C O 0.2204(3) 0.0739(4) 0.40348(6)
O8_2 O 0.4377(5) -0.2726(3) 0.19289(6)
loop_
_geom_bond_atom_site_label_1
_geom_bond_atom_site_label_2
_geom_bond_site_symmetry_1
_geom_bond_site_symmetry_2
C1 C2 1_555 1_555
C2 H1 1_555 1_555
C3 C2 1_555 1_555
H2 C3 1_555 1_555
N1 C3 1_555 1_555
C4 N1 1_555 1_555
C5 C1 1_555 1_555
H3 C5 1_555 1_555
C6 C4 1_555 1_555
H4 C6 1_555 1_555
H5 C6 1_555 1_555
H6 C6 1_555 1_555
Zn1 N1 1_555 1_555
Zn2 N2 1_555 1_555
O1 Zn1 1_555 1_555
O2 C7 1_555 1_555
O3 C14 1_555 1_555
O4 C14 1_555 1_555
O5 Zn1 1_555 1_555
O6 C15 1_555 1_555
O7 C22 1_555 1_555
O8 C22 1_555 1_555
N2 C25 1_555 1_555
C7 O1 1_555 1_555
C8 C7 1_555 1_555
C9 C8 1_555 1_555
H7 C9 1_555 1_555
C10 C9 1_555 1_555
H8 C10 1_555 1_555
C11 C10 1_555 1_555
C12 C11 1_555 1_555
H9 C12 1_555 1_555
C13 C8 1_555 1_555
H10 C13 1_555 1_555
C14 C11 1_555 1_555
C15 O5 1_555 1_555
C16 C15 1_555 1_555
C17 C16 1_555 1_555
H11 C17 1_555 1_555
C18 C17 1_555 1_555
H12 C18 1_555 1_555
C19 C18 1_555 1_555
C20 C19 1_555 1_555
H13 C20 1_555 1_555
C21 C16 1_555 1_555
H14 C21 1_555 1_555
C22 C19 1_555 1_555
C23 C1 1_555 1_555
C24 C23 1_555 1_555
H15 C24 1_555 1_555
C25 C24 1_555 1_555
C26 N2 1_555 1_555
H16 C26 1_555 1_555
C27 C23 1_555 1_555
H17 C27 1_555 1_555
C28 C25 1_555 1_555
H18 C28 1_555 1_555
H19 C28 1_555 1_555
H20 C28 1_555 1_555
Zn1_2 O3 1_555 1_555
Zn1_3 O8 1_555 1_555
Zn2A O2 1_555 1_555
Zn2A_2 O4 1_555 1_555
Zn2A_3 O7 1_555 1_555
O2C Zn2 1_555 1_555
O3_2 Zn1 1_555 1_555
O4C Zn2 1_555 1_555
O6C Zn2 1_555 1_555
O7C Zn2 1_555 1_555
O8_2 Zn1 1_555 1_555
C4 C5 1_555 1_555
O6 Zn2A 1_555 1_555
C12 C13 1_555 1_555
C20 C21 1_555 1_555
C26 C27 1_555 1_555

#END
