
#######################################################################
#
#                 Cambridge Crystallographic Data Centre
#                                CCDC 
#
#######################################################################
#
# If this CIF has been generated from an entry in the Cambridge 
# Structural Database, then it will include bibliographic, chemical, 
# crystal, experimental, refinement or atomic coordinate data resulting 
# from the CCDC's data processing and validation procedures.
#
#######################################################################

data_NIRFIE
_chemical_formula_moiety         '(C53 H46 Co1 N7 O10 Zn2)n'
_symmetry_cell_setting           monoclinic
_symmetry_space_group_name_H-M   'P 21/n'
_symmetry_Int_Tables_number      14
_space_group_name_Hall           '-P 2yn'
loop_
_symmetry_equiv_pos_site_id
_symmetry_equiv_pos_as_xyz
1 x,y,z
2 1/2-x,1/2+y,1/2-z
3 -x,-y,-z
4 1/2+x,1/2-y,1/2+z
_cell_length_a                   15.229(4)
_cell_length_b                   8.796(2)
_cell_length_c                   38.650(11)
_cell_angle_alpha                90
_cell_angle_beta                 89.977(5)
_cell_angle_gamma                90
_cell_volume                     5177.33
loop_
_atom_site_label
_atom_site_type_symbol
_atom_site_fract_x
_atom_site_fract_y
_atom_site_fract_z
Zn1 Zn 0.76003(17) -0.0916(4) 0.24968(6)
Zn4 Zn 0.55433(17) 0.2094(5) 0.25598(8)
Co1 Co 0.24218(6) -0.51750(8) 0.04862(2)
C1 C 0.3219(5) -0.7489(7) 0.09469(18)
H1 H 0.2954 -0.8319 0.0829
C2 C 0.3672(5) -0.7616(7) 0.1249(2)
H2 H 0.3775 -0.8537 0.1371
C3 C 0.3955(5) -0.6203(8) 0.1351(2)
H3 H 0.4270 -0.5946 0.1555
C4 C 0.3671(5) -0.5207(7) 0.10823(19)
C5 C 0.3873(4) -0.3656(7) 0.10443(17)
C6 C 0.3627(4) -0.2789(7) 0.07560(18)
C7 C 0.3907(4) -0.1300(7) 0.06741(19)
H4 H 0.4266 -0.0663 0.0813
C8 C 0.3555(5) -0.0940(7) 0.03495(18)
H5 H 0.3636 -0.0023 0.0224
C9 C 0.3054(5) -0.2223(7) 0.02463(18)
H6 H 0.2737 -0.2289 0.0035
C10 C 0.4378(5) -0.2941(7) 0.13264(18)
C11 C 0.4002(6) -0.1770(8) 0.1514(2)
H7 H 0.3430 -0.1422 0.1457
C12 C 0.4465(6) -0.1093(9) 0.1789(2)
H8 H 0.4192 -0.0312 0.1921
C13 C 0.5300(6) -0.1539(9) 0.1871(2)
C14 C 0.5691(6) -0.2682(11) 0.1672(2)
H9 H 0.6279 -0.2977 0.1719
C15 C 0.5231(5) -0.3400(9) 0.1403(2)
H10 H 0.5500 -0.4195 0.1275
C16 C 0.5827(8) -0.0755(15) 0.2149(2)
C17 C 0.8998(4) 0.1390(7) 0.51631(19)
H11 H 0.9290 0.1455 0.5380
C18 C 0.9377(5) 0.1833(8) 0.48360(19)
H12 H 0.9946 0.2235 0.4796
C19 C 0.8737(5) 0.1547(8) 0.4596(2)
H13 H 0.8781 0.1751 0.4355
C20 C 0.8010(4) 0.0911(7) 0.47605(17)
C21 C 0.7222(4) 0.0332(7) 0.46149(19)
C22 C 0.6571(4) -0.0421(7) 0.47999(18)
C23 C 0.5806(5) -0.1152(7) 0.46519(19)
H14 H 0.5636 -0.1168 0.4416
C24 C 0.5382(5) -0.1813(7) 0.49245(19)
H15 H 0.4862 -0.2408 0.4913
C25 C 0.5859(4) -0.1450(7) 0.52277(19)
H16 H 0.5688 -0.1757 0.5454
C26 C 0.7103(5) 0.0516(7) 0.4235(2)
C27 C 0.7674(5) -0.0171(8) 0.40049(19)
H17 H 0.8154 -0.0752 0.4090
C28 C 0.7554(6) -0.0019(8) 0.36563(19)
H18 H 0.7949 -0.0506 0.3501
C29 C 0.6863(6) 0.0838(10) 0.3525(2)
C30 C 0.6276(6) 0.1562(9) 0.3748(2)
H19 H 0.5803 0.2151 0.3661
C31 C 0.6403(5) 0.1397(8) 0.4102(2)
H20 H 0.6013 0.1886 0.4257
C32 C 0.6748(8) 0.0939(13) 0.3132(2)
C33 C 1.1820(5) 0.1812(7) 0.0253(2)
H21 H 1.2151 0.1873 0.0045
C34 C 1.1331(5) 0.0528(7) 0.0355(2)
H22 H 1.1260 -0.0393 0.0230
C35 C 1.0984(5) 0.0871(7) 0.0666(2)
H23 H 1.0626 0.0224 0.0803
C36 C 1.1251(4) 0.2385(7) 0.0753(2)
C37 C 1.1036(5) 0.3225(7) 0.10470(19)
C38 C 1.1248(5) 0.4746(7) 0.1102(2)
C39 C 1.0980(5) 0.5713(8) 0.1373(2)
H24 H 1.0659 0.5420 0.1573
C40 C 1.1265(5) 0.7138(8) 0.1297(2)
H25 H 1.1172 0.8033 0.1430
C41 C 1.1720(4) 0.7026(7) 0.09843(18)
H26 H 1.1987 0.7861 0.0869
C42 C 1.0529(5) 0.2436(8) 0.1325(2)
C43 C 1.0905(6) 0.1303(8) 0.1519(2)
H27 H 1.1486 0.0989 0.1466
C44 C 1.0471(6) 0.0603(8) 0.1788(2)
H28 H 1.0750 -0.0166 0.1921
C45 C 0.9625(6) 0.1042(9) 0.1860(2)
C46 C 0.9221(6) 0.2190(9) 0.1670(3)
H29 H 0.8642 0.2514 0.1725
C47 C 0.9671(6) 0.2849(9) 0.1400(2)
H30 H 0.9390 0.3601 0.1263
C48 C 0.9137(7) 0.0241(10) 0.2147(2)
N1 N 0.3193(3) -0.6041(5) 0.08365(14)
N2 N 0.3085(3) -0.3331(5) 0.04854(14)
N3 N 0.8186(4) 0.0880(6) 0.51203(15)
N4 N 0.6575(4) -0.0627(5) 0.51595(15)
N5 N 1.1761(4) 0.2926(5) 0.04834(14)
N6 N 1.1733(3) 0.5616(5) 0.08695(15)
O1 O 0.5445(8) 0.0274(15) 0.2321(3)
O2 O 0.6603(5) -0.1145(11) 0.2181(2)
O3 O 0.6044(5) 0.1662(9) 0.30346(17)
O4 O 0.7323(5) 0.0324(10) 0.29540(17)
O5 O 0.9562(5) -0.0693(10) 0.23319(19)
O6 O 0.8338(5) 0.0520(8) 0.21740(18)
O8 O 0.8139(6) -0.2750(11) 0.2634(2)
O10 O 0.4224(12) 0.192(2) 0.2717(4)
H31 H 0.4090 0.0993 0.2735
O13 O 0.497(3) 0.274(8) 0.2092(6)
Zn4A Zn 0.94567(17) -0.2906(5) 0.24402(8)
Co1C Co 0.74218(6) 0.01750(8) 0.54862(2)
Co1_2 Co 1.24218(6) 0.48250(8) 0.04862(2)
N3C N 0.3186(4) -0.5880(6) 0.01203(15)
N4C N 0.1575(4) -0.4373(5) 0.01595(15)
N5_2 N 0.1761(4) -0.7074(5) 0.04834(14)
N6_2 N 0.1733(3) -0.4384(5) 0.08695(15)
O5A O 0.5438(5) 0.4307(10) 0.26681(19)
O8A O 0.6861(6) 0.2250(11) 0.2366(2)
O11 O 1.235(3) -0.648(6) 0.2112(12)
C49 C 0.6711(11) 0.1277(16) 0.1471(3)
H32 H 0.7226 0.1203 0.1608
C50 C 0.7464(8) -0.0278(12) 0.1073(4)
H33 H 0.7277 -0.1326 0.1015
H34 H 0.7879 -0.0345 0.1269
C51 C 0.7934(10) 0.0352(15) 0.0773(6)
H35 H 0.7523 0.0484 0.0580
H36 H 0.8404 -0.0345 0.0704
H37 H 0.8188 0.1339 0.0835
C52 C 0.5928(7) 0.0436(13) 0.0981(3)
H38 H 0.5422 0.0353 0.1141
H39 H 0.5959 -0.0526 0.0848
C53 C 0.5748(9) 0.1681(15) 0.0736(4)
H40 H 0.5574 0.2594 0.0864
H41 H 0.5272 0.1381 0.0579
H42 H 0.6278 0.1898 0.0600
N7 N 0.6708(5) 0.0565(8) 0.11828(18)
O14 O 0.6107(10) 0.2045(14) 0.1586(4)
loop_
_geom_bond_atom_site_label_1
_geom_bond_atom_site_label_2
_geom_bond_site_symmetry_1
_geom_bond_site_symmetry_2
Zn1 O2 1_555 1_555
Zn4 O1 1_555 1_555
Co1 N1 1_555 1_555
C1 H1 1_555 1_555
C2 C1 1_555 1_555
H2 C2 1_555 1_555
C3 C2 1_555 1_555
H3 C3 1_555 1_555
C4 C3 1_555 1_555
C5 C4 1_555 1_555
C6 C5 1_555 1_555
C7 C6 1_555 1_555
H4 C7 1_555 1_555
C8 C7 1_555 1_555
H5 C8 1_555 1_555
C9 C8 1_555 1_555
H6 C9 1_555 1_555
C10 C5 1_555 1_555
C11 C10 1_555 1_555
H7 C11 1_555 1_555
C12 C11 1_555 1_555
H8 C12 1_555 1_555
C13 C12 1_555 1_555
C14 C13 1_555 1_555
H9 C14 1_555 1_555
C15 C10 1_555 1_555
H10 C15 1_555 1_555
C16 C13 1_555 1_555
C17 H11 1_555 1_555
C18 C17 1_555 1_555
H12 C18 1_555 1_555
C19 C18 1_555 1_555
H13 C19 1_555 1_555
C20 C19 1_555 1_555
C21 C20 1_555 1_555
C22 C21 1_555 1_555
C23 C22 1_555 1_555
H14 C23 1_555 1_555
C24 C23 1_555 1_555
H15 C24 1_555 1_555
C25 C24 1_555 1_555
H16 C25 1_555 1_555
C26 C21 1_555 1_555
C27 C26 1_555 1_555
H17 C27 1_555 1_555
C28 C27 1_555 1_555
H18 C28 1_555 1_555
C29 C28 1_555 1_555
C30 C29 1_555 1_555
H19 C30 1_555 1_555
C31 C26 1_555 1_555
H20 C31 1_555 1_555
C32 C29 1_555 1_555
C33 H21 1_555 1_555
C34 C33 1_555 1_555
H22 C34 1_555 1_555
C35 C34 1_555 1_555
H23 C35 1_555 1_555
C36 C35 1_555 1_555
C37 C36 1_555 1_555
C38 C37 1_555 1_555
C39 C38 1_555 1_555
H24 C39 1_555 1_555
C40 C39 1_555 1_555
H25 C40 1_555 1_555
C41 C40 1_555 1_555
H26 C41 1_555 1_555
C42 C37 1_555 1_555
C43 C42 1_555 1_555
H27 C43 1_555 1_555
C44 C43 1_555 1_555
H28 C44 1_555 1_555
C45 C44 1_555 1_555
C46 C45 1_555 1_555
H29 C46 1_555 1_555
C47 C42 1_555 1_555
H30 C47 1_555 1_555
C48 C45 1_555 1_555
N1 C1 1_555 1_555
N2 Co1 1_555 1_555
N3 C17 1_555 1_555
N4 C22 1_555 1_555
N5 C33 1_555 1_555
N6 C38 1_555 1_555
O1 C16 1_555 1_555
O2 C16 1_555 1_555
O3 Zn4 1_555 1_555
O4 Zn1 1_555 1_555
O5 C48 1_555 1_555
O6 Zn1 1_555 1_555
O8 Zn1 1_555 1_555
O10 Zn4 1_555 1_555
H31 O10 1_555 1_555
O13 Zn4 1_555 1_555
C49 H32 1_555 1_555
C50 H33 1_555 1_555
H34 C50 1_555 1_555
C51 C50 1_555 1_555
H35 C51 1_555 1_555
H36 C51 1_555 1_555
H37 C51 1_555 1_555
C52 H38 1_555 1_555
H39 C52 1_555 1_555
C53 C52 1_555 1_555
H40 C53 1_555 1_555
H41 C53 1_555 1_555
H42 C53 1_555 1_555
N7 C49 1_555 1_555
O14 C49 1_555 1_555
Zn4A O5 1_555 1_555
Co1C N3 1_555 1_555
Co1_2 N5 1_555 1_555
N3C Co1 1_555 1_555
N4C Co1 1_555 1_555
N5_2 Co1 1_555 1_555
N6_2 Co1 1_555 1_555
O5A Zn4 1_555 1_555
O8A Zn4 1_555 1_555
C4 N1 1_555 1_555
C6 N2 1_555 1_555
C9 N2 1_555 1_555
C14 C15 1_555 1_555
C20 N3 1_555 1_555
C25 N4 1_555 1_555
C30 C31 1_555 1_555
C32 O3 1_555 1_555
C32 O4 1_555 1_555
C36 N5 1_555 1_555
C41 N6 1_555 1_555
C46 C47 1_555 1_555
C48 O6 1_555 1_555
N4 Co1C 1_555 1_555
N6 Co1_2 1_555 1_555
O8 Zn4A 1_555 1_555
C50 N7 1_555 1_555
C52 N7 1_555 1_555

#END
