
#######################################################################
#
#                 Cambridge Crystallographic Data Centre
#                                CCDC 
#
#######################################################################
#
# If this CIF has been generated from an entry in the Cambridge 
# Structural Database, then it will include bibliographic, chemical, 
# crystal, experimental, refinement or atomic coordinate data resulting 
# from the CCDC's data processing and validation procedures.
#
#######################################################################

data_LUSHAJ
_chemical_formula_moiety         '(C14 H11 Mn1 N1 O5)n'
_symmetry_cell_setting           orthorhombic
_symmetry_space_group_name_H-M   'P n m a'
_symmetry_Int_Tables_number      62
_space_group_name_Hall           '-P 2ac 2n'
loop_
_symmetry_equiv_pos_site_id
_symmetry_equiv_pos_as_xyz
1 x,y,z
2 1/2-x,-y,1/2+z
3 1/2+x,1/2-y,1/2-z
4 -x,1/2+y,-z
5 -x,-y,-z
6 1/2+x,y,1/2-z
7 1/2-x,1/2+y,1/2+z
8 x,1/2-y,z
_cell_length_a                   7.3206(4)
_cell_length_b                   18.7916(12)
_cell_length_c                   11.0189(7)
_cell_angle_alpha                90
_cell_angle_beta                 90
_cell_angle_gamma                90
_cell_volume                     1515.82
loop_
_atom_site_label
_atom_site_type_symbol
_atom_site_fract_x
_atom_site_fract_y
_atom_site_fract_z
C1 C 0.5248(2) 0.36006(8) 0.61237(14)
C2 C 0.5127(2) 0.43301(9) 0.55401(16)
C3 C 0.6582(3) 0.46059(10) 0.48918(19)
H1 H 0.7652 0.4343 0.4816
C4 C 0.3546(3) 0.47265(10) 0.56473(19)
H2 H 0.2561 0.4546 0.6082
C5 C 0.0498(3) 0.18789(10) 0.46384(16)
H3 H 0.0490 0.1453 0.5067
C6 C 0.0561(3) 0.18743(13) 0.33893(17)
H4 H 0.0592 0.1442 0.2980
C7 C 0.0579(4) 0.2500 0.2736(2)
C8 C 0.0622(5) 0.2500 0.1371(3)
N1 N 0.0450(3) 0.2500 0.52328(16)
O1 O 0.37654(16) 0.33254(6) 0.64359(11)
O2 O 0.68094(16) 0.33339(6) 0.62324(10)
O3 O 0.0345(2) 0.2500 0.64427(13)
Mn1 Mn 0.27625(4) 0.2500 0.75970(3)
C1D C 0.4752(2) 0.63994(8) 0.38763(14)
C2D C 0.4873(2) 0.56699(9) 0.44599(16)
C3D C 0.3418(3) 0.53941(10) 0.51082(19)
H1D H 0.2348 0.5657 0.5184
C4D C 0.6454(3) 0.52735(10) 0.43527(19)
H2D H 0.7439 0.5454 0.3918
C5G C 0.0498(3) 0.31211(10) 0.46384(16)
H3G H 0.0490 0.3547 0.5067
C6G C 0.0561(3) 0.31257(13) 0.33893(17)
H4G H 0.0592 0.3558 0.2980
O1D O 0.62346(16) 0.66746(6) 0.35641(11)
O1G O 0.37654(16) 0.16746(6) 0.64359(11)
O2D O 0.31906(16) 0.66661(6) 0.37676(10)
O2B O 0.18094(16) 0.16661(6) 0.87676(10)
O2E O 0.18094(16) 0.33339(6) 0.87676(10)
O3B O 0.5345(2) 0.2500 0.85573(13)
Mn1B Mn 0.77625(4) 0.2500 0.74030(3)
Mn1B_2 Mn -0.22375(4) 0.2500 0.74030(3)
Mn1C Mn 0.72375(4) 0.7500 0.24030(3)
Mn1A Mn 0.22375(4) 0.7500 0.25970(3)
loop_
_geom_bond_atom_site_label_1
_geom_bond_atom_site_label_2
_geom_bond_site_symmetry_1
_geom_bond_site_symmetry_2
C1 C2 1_555 1_555
C2 C3 1_555 1_555
C3 H1 1_555 1_555
C4 C2 1_555 1_555
H2 C4 1_555 1_555
C5 H3 1_555 1_555
C6 C5 1_555 1_555
H4 C6 1_555 1_555
C7 C6 1_555 1_555
C8 C7 1_555 1_555
N1 C5 1_555 1_555
O1 C1 1_555 1_555
O2 C1 1_555 1_555
O3 N1 1_555 1_555
Mn1 O1 1_555 1_555
C1D C2D 1_555 1_555
C2D C3D 1_555 1_555
C3D C4 1_555 1_555
H1D C3D 1_555 1_555
C4D C3 1_555 1_555
H2D C4D 1_555 1_555
C5G N1 1_555 1_555
H3G C5G 1_555 1_555
C6G C7 1_555 1_555
H4G C6G 1_555 1_555
O1D C1D 1_555 1_555
O1G Mn1 1_555 1_555
O2D C1D 1_555 1_555
O2B Mn1 1_555 1_555
O2E Mn1 1_555 1_555
O3B Mn1 1_555 1_555
Mn1B O2 1_555 1_555
Mn1B_2 O3 1_555 1_555
Mn1C O1D 1_555 1_555
Mn1A O2D 1_555 1_555
O3 Mn1 1_555 1_555
C2D C4D 1_555 1_555
C5G C6G 1_555 1_555
O3B Mn1B 1_555 1_555

#END
