
#######################################################################
#
#                 Cambridge Crystallographic Data Centre
#                                CCDC 
#
#######################################################################
#
# If this CIF has been generated from an entry in the Cambridge 
# Structural Database, then it will include bibliographic, chemical, 
# crystal, experimental, refinement or atomic coordinate data resulting 
# from the CCDC's data processing and validation procedures.
#
#######################################################################

data_LUSHIR
_chemical_formula_moiety         '(C29 H23 Mn2 N3 O11)n'
_symmetry_cell_setting           monoclinic
_symmetry_space_group_name_H-M   'C 2/c'
_symmetry_Int_Tables_number      15
_space_group_name_Hall           '-C 2yc'
loop_
_symmetry_equiv_pos_site_id
_symmetry_equiv_pos_as_xyz
1 x,y,z
2 -x,y,1/2-z
3 1/2+x,1/2+y,z
4 1/2-x,1/2+y,1/2-z
5 -x,-y,-z
6 x,-y,1/2+z
7 1/2-x,1/2-y,-z
8 1/2+x,1/2-y,1/2+z
_cell_length_a                   18.2088(11)
_cell_length_b                   17.7065(11)
_cell_length_c                   13.3781(8)
_cell_angle_alpha                90
_cell_angle_beta                 128.4380(10)
_cell_angle_gamma                90
_cell_volume                     3378.52
loop_
_atom_site_label
_atom_site_type_symbol
_atom_site_fract_x
_atom_site_fract_y
_atom_site_fract_z
C1 C 0.8381(2) 0.39757(17) 1.0011(3)
C2 C 0.8352(2) 0.46985(18) 0.9395(3)
C3 C 0.7594(3) 0.4878(2) 0.8155(3)
H1 H 0.7075 0.4560 0.7703
C4 C 0.7596(3) 0.5524(2) 0.7578(3)
H2 H 0.7078 0.5639 0.6746
C5 C 0.8367(2) 0.60021(18) 0.8231(3)
C6 C 0.9120(2) 0.58300(19) 0.9479(3)
H3 H 0.9637 0.6150 0.9931
C7 C 0.9113(2) 0.51883(19) 1.0063(3)
H4 H 0.9620 0.5084 1.0907
C8 C 0.8403(2) 0.66658(18) 0.7561(3)
C9 C 0.9696(3) 0.1680(2) 1.0233(4)
H5 H 0.9788 0.2165 1.0063
C10 C 0.9981(3) 0.1066(2) 0.9924(4)
H6 H 1.0266 0.1141 0.9547
C11 C 0.9850(2) 0.03341(19) 1.0167(3)
C12 C 0.9414(3) 0.0260(2) 1.0725(3)
H7 H 0.9317 -0.0218 1.0912
C13 C 0.9128(3) 0.0887(2) 1.1000(3)
H8 H 0.8818 0.0829 1.1345
N1 N 0.92876(18) 0.15812(15) 1.0778(3)
O1 O 0.90860(16) 0.38839(13) 1.1156(2)
O2 O 0.77068(16) 0.35298(12) 0.9346(2)
O3 O 0.91790(16) 0.70025(12) 0.8138(2)
O4 O 0.76698(16) 0.68361(12) 0.6479(2)
O5 O 0.90251(15) 0.21802(13) 1.1096(2)
Mn1 Mn 0.7500 0.2500 1.0000
Mn2 Mn 1.0000 0.30516(3) 1.2500
C1A C 1.1619(2) 0.39757(17) 1.4989(3)
C2A C 1.1648(2) 0.46985(18) 1.5605(3)
C3A C 1.2406(3) 0.4878(2) 1.6845(3)
H1A H 1.2925 0.4560 1.7297
C4A C 1.2404(3) 0.5524(2) 1.7422(3)
H2A H 1.2922 0.5639 1.8254
C5A C 1.1633(2) 0.60021(18) 1.6769(3)
C6A C 1.0880(2) 0.58300(19) 1.5521(3)
H3A H 1.0363 0.6150 1.5069
C7A C 1.0887(2) 0.51883(19) 1.4937(3)
H4A H 1.0380 0.5084 1.4093
C8A C 1.1597(2) 0.66658(18) 1.7439(3)
C9D C 1.0304(3) -0.1680(2) 0.9767(4)
H5D H 1.0212 -0.2165 0.9937
C10D C 1.0019(3) -0.1066(2) 1.0076(4)
H6D H 0.9734 -0.1141 1.0453
C11D C 1.0150(2) -0.03341(19) 0.9833(3)
C12D C 1.0586(3) -0.0260(2) 0.9275(3)
H7D H 1.0683 0.0218 0.9088
C13D C 1.0872(3) -0.0887(2) 0.9000(3)
H8D H 1.1182 -0.0829 0.8655
N1D N 1.07124(18) -0.15812(15) 0.9222(3)
O1A O 1.09140(16) 0.38839(13) 1.3844(2)
O2A O 1.22932(16) 0.35298(12) 1.5654(2)
O2F O 0.72932(16) 0.14702(12) 1.0654(2)
O3A O 1.08210(16) 0.70025(12) 1.6862(2)
O3D O 1.08210(16) 0.29975(12) 1.1862(2)
O3E O 0.91790(16) 0.29975(12) 1.3138(2)
O4A O 1.23302(16) 0.68361(12) 1.8521(2)
O4C O 0.73302(16) 0.18361(12) 0.8521(2)
O4E O 0.76698(16) 0.31639(12) 1.1479(2)
O5D O 1.09749(15) -0.21802(13) 0.8904(2)
O5F O 0.59749(15) 0.28198(13) 0.8904(2)
O5A O 1.09749(15) 0.21802(13) 1.3904(2)
Mn1B Mn 1.2500 -0.2500 1.0000
Mn1B_2 Mn 1.2500 0.7500 2.0000
Mn1C Mn 0.7500 0.7500 0.5000
Mn1A Mn 1.2500 0.2500 1.5000
Mn2D Mn 1.0000 -0.30516(3) 0.7500
Mn2D_2 Mn 1.0000 0.69484(3) 0.7500
Mn2D_3 Mn 1.0000 0.69484(3) 1.7500
C14 C 0.8764(6) 0.3613(9) 0.7081(9)
H9 H 0.9072 0.3325 0.7853
H10 H 0.8791 0.4140 0.7270
H11 H 0.9072 0.3530 0.6713
C15 C 0.7442(7) 0.2859(4) 0.6537(10)
H12 H 0.7931 0.2675 0.7380
H13 H 0.7180 0.2446 0.5944
H14 H 0.6961 0.3090 0.6528
C16 C 0.7267(5) 0.3735(4) 0.5037(7)
H15 H 0.7545 0.4087 0.4850
N2 N 0.7805(4) 0.3381(3) 0.6197(5)
O6 O 0.6414(3) 0.3599(3) 0.4223(5)
loop_
_geom_bond_atom_site_label_1
_geom_bond_atom_site_label_2
_geom_bond_site_symmetry_1
_geom_bond_site_symmetry_2
C1 C2 1_555 1_555
C2 C3 1_555 1_555
C3 H1 1_555 1_555
C4 C3 1_555 1_555
H2 C4 1_555 1_555
C5 C4 1_555 1_555
C6 C5 1_555 1_555
H3 C6 1_555 1_555
C7 C2 1_555 1_555
H4 C7 1_555 1_555
C8 C5 1_555 1_555
C9 H5 1_555 1_555
C10 C9 1_555 1_555
H6 C10 1_555 1_555
C11 C10 1_555 1_555
C12 C11 1_555 1_555
H7 C12 1_555 1_555
C13 C12 1_555 1_555
H8 C13 1_555 1_555
C14 H9 1_555 1_555
H10 C14 1_555 1_555
H11 C14 1_555 1_555
C15 H12 1_555 1_555
H13 C15 1_555 1_555
H14 C15 1_555 1_555
C16 H15 1_555 1_555
N1 C9 1_555 1_555
N2 C14 1_555 1_555
O1 C1 1_555 1_555
O2 C1 1_555 1_555
O3 C8 1_555 1_555
O4 C8 1_555 1_555
O5 N1 1_555 1_555
O6 C16 1_555 1_555
Mn1 O2 1_555 1_555
Mn2 O1 1_555 1_555
C1A C2A 1_555 1_555
C2A C3A 1_555 1_555
C3A H1A 1_555 1_555
C4A C3A 1_555 1_555
H2A C4A 1_555 1_555
C5A C4A 1_555 1_555
C6A C5A 1_555 1_555
H3A C6A 1_555 1_555
C7A C2A 1_555 1_555
H4A C7A 1_555 1_555
C8A C5A 1_555 1_555
C9D H5D 1_555 1_555
C10D C9D 1_555 1_555
H6D C10D 1_555 1_555
C11D C11 1_555 1_555
C12D C11D 1_555 1_555
H7D C12D 1_555 1_555
C13D C12D 1_555 1_555
H8D C13D 1_555 1_555
N1D C9D 1_555 1_555
O1A Mn2 1_555 1_555
O2A C1A 1_555 1_555
O2F Mn1 1_555 1_555
O3A C8A 1_555 1_555
O3D Mn2 1_555 1_555
O3E Mn2 1_555 1_555
O4A C8A 1_555 1_555
O4C Mn1 1_555 1_555
O4E Mn1 1_555 1_555
O5D N1D 1_555 1_555
O5F Mn1 1_555 1_555
O5A Mn2 1_555 1_555
Mn1B O5D 1_555 1_555
Mn1B_2 O4A 1_555 1_555
Mn1C O4 1_555 1_555
Mn1A O2A 1_555 1_555
Mn2D O5D 1_555 1_555
Mn2D_2 O3 1_555 1_555
Mn2D_3 O3A 1_555 1_555
C6 C7 1_555 1_555
C13 N1 1_555 1_555
C15 N2 1_555 1_555
C16 N2 1_555 1_555
O5 Mn1 1_555 1_555
O5 Mn2 1_555 1_555
C1A O1A 1_555 1_555
C6A C7A 1_555 1_555
C10D C11D 1_555 1_555
C13D N1D 1_555 1_555
O5A Mn1A 1_555 1_555

#END
