
#######################################################################
#
#                 Cambridge Crystallographic Data Centre
#                                CCDC 
#
#######################################################################
#
# If this CIF has been generated from an entry in the Cambridge 
# Structural Database, then it will include bibliographic, chemical, 
# crystal, experimental, refinement or atomic coordinate data resulting 
# from the CCDC's data processing and validation procedures.
#
#######################################################################

data_LUSJOZ
_chemical_formula_moiety         '(C32 H21 Cl1 Mn2 N2 O10)n'
_symmetry_cell_setting           monoclinic
_symmetry_space_group_name_H-M   'C 2/c'
_symmetry_Int_Tables_number      15
_space_group_name_Hall           '-C 2yc'
loop_
_symmetry_equiv_pos_site_id
_symmetry_equiv_pos_as_xyz
1 x,y,z
2 -x,y,1/2-z
3 1/2+x,1/2+y,z
4 1/2-x,1/2+y,1/2-z
5 -x,-y,-z
6 x,-y,1/2+z
7 1/2-x,1/2-y,-z
8 1/2+x,1/2-y,1/2+z
_cell_length_a                   19.229(5)
_cell_length_b                   16.683(5)
_cell_length_c                   14.391(5)
_cell_angle_alpha                90
_cell_angle_beta                 130.181(5)
_cell_angle_gamma                90
_cell_volume                     3527.13
loop_
_atom_site_label
_atom_site_type_symbol
_atom_site_fract_x
_atom_site_fract_y
_atom_site_fract_z
C1 C 0.4170(5) 0.8424(4) 0.5036(6)
C2 C 0.3545(5) 0.7725(4) 0.4381(6)
C3 C 0.3125(6) 0.7559(5) 0.3173(7)
H1 H 0.3264 0.7868 0.2773
C4 C 0.2512(6) 0.6944(5) 0.2568(7)
H2 H 0.2249 0.6838 0.1766
C5 C 0.2272(5) 0.6476(4) 0.3121(6)
C6 C 0.2706(5) 0.6631(4) 0.4325(6)
H3 H 0.2567 0.6324 0.4725
C7 C 0.3344(5) 0.7235(4) 0.4949(7)
H4 H 0.3644 0.7313 0.5769
C8 C 0.1543(5) 0.5856(4) 0.2430(6)
C9 C 0.6832(6) 0.9239(5) 0.4666(9)
H5 H 0.7024 0.9770 0.4792
C10 C 0.7441(6) 0.8635(5) 0.4986(9)
H6 H 0.8030 0.8765 0.5308
C11 C 0.7186(5) 0.7834(4) 0.4831(6)
C12 C 0.6292(6) 0.7704(5) 0.4330(9)
H7 H 0.6074 0.7181 0.4183
C13 C 0.5725(6) 0.8325(5) 0.4049(9)
H8 H 0.5138 0.8216 0.3751
N1 N 0.5991(4) 0.9089(3) 0.4192(5)
O1 O 0.4255(3) 0.8903(3) 0.4427(4)
O2 O 0.4561(3) 0.8501(3) 0.6144(4)
O3 O 0.1230(3) 0.5685(3) 0.1373(4)
O4 O 0.1292(3) 0.5537(3) 0.2965(4)
O5 O 0.5417(3) 0.9676(3) 0.3876(4)
Mn1 Mn 0.5000 1.0000 0.5000
Mn2 Mn 0.5000 0.93662(8) 0.7500
C1D C 0.5830(5) 1.1576(4) 0.4964(6)
C2D C 0.6455(5) 1.2275(4) 0.5619(6)
C3D C 0.6875(6) 1.2441(5) 0.6827(7)
H1D H 0.6736 1.2132 0.7227
C4D C 0.7488(6) 1.3056(5) 0.7432(7)
H2D H 0.7751 1.3162 0.8234
C5D C 0.7728(5) 1.3524(4) 0.6879(6)
C6D C 0.7294(5) 1.3369(4) 0.5675(6)
H3D H 0.7433 1.3676 0.5275
C7D C 0.6656(5) 1.2765(4) 0.5051(7)
H4D H 0.6356 1.2687 0.4231
C8D C 0.8457(5) 1.4144(4) 0.7570(6)
C9F C 0.8168(6) 0.5761(5) 0.5334(9)
H5F H 0.7976 0.5230 0.5208
C10F C 0.7559(6) 0.6365(5) 0.5014(9)
H6F H 0.6970 0.6235 0.4692
C11F C 0.7814(5) 0.7166(4) 0.5169(6)
C12F C 0.8708(6) 0.7296(5) 0.5670(9)
H7F H 0.8926 0.7819 0.5817
C13F C 0.9275(6) 0.6675(5) 0.5951(9)
H8F H 0.9862 0.6784 0.6249
N1F N 0.9009(4) 0.5911(3) 0.5808(5)
O1D O 0.5745(3) 1.1097(3) 0.5573(4)
O2D O 0.5439(3) 1.1499(3) 0.3856(4)
O2A O 0.5439(3) 0.8501(3) 0.8856(4)
O3D O 0.8770(3) 1.4315(3) 0.8627(4)
O3C O 0.3770(3) 1.0685(3) 0.3627(4)
O3G O 0.6230(3) 0.9315(3) 0.6373(4)
O4D O 0.8708(3) 1.4463(3) 0.7035(4)
O4F O 0.3708(3) 0.9463(3) 0.7035(4)
O4G O 0.6292(3) 0.9463(3) 0.7965(4)
O5F O 0.9583(3) 0.5324(3) 0.6124(4)
O5D O 0.4583(3) 1.0324(3) 0.6124(4)
O5E O 0.5417(3) 1.0324(3) 0.8876(4)
Mn1C Mn 0.0000 0.5000 0.0000
Mn1B Mn 1.0000 0.5000 0.5000
Mn1C_2 Mn 1.0000 1.5000 1.0000
Mn2F Mn -0.0000 0.56338(8) 0.2500
Mn2D Mn 0.5000 1.06338(8) 0.2500
Mn2B Mn 1.0000 0.43662(8) 0.7500
Mn2B_2 Mn 1.0000 1.43662(8) 0.7500
C14 C 0.9344(8) 0.0818(8) 0.9797(8)
C15 C 0.8543(9) 0.0419(8) 0.8881(11)
H9 H 0.8283 0.0065 0.9079
C16 C 0.8131(7) 0.0550(9) 0.7670(9)
H10 H 0.7595 0.0283 0.7057
C17 C 0.8520(8) 0.1079(9) 0.7374(8)
H11 H 0.8244 0.1167 0.6563
C18 C 0.9321(9) 0.1478(7) 0.8289(12)
H12 H 0.9581 0.1832 0.8091
C19 C 0.9733(7) 0.1348(7) 0.9501(10)
H13 H 1.0269 0.1614 1.0113
Cl1 Cl 0.9878(5) 0.0779(5) 1.1267(6)
loop_
_geom_bond_atom_site_label_1
_geom_bond_atom_site_label_2
_geom_bond_site_symmetry_1
_geom_bond_site_symmetry_2
C1 C2 1_555 1_555
C2 C3 1_555 1_555
C3 H1 1_555 1_555
C4 C3 1_555 1_555
H2 C4 1_555 1_555
C5 C4 1_555 1_555
C6 C5 1_555 1_555
H3 C6 1_555 1_555
C7 C2 1_555 1_555
H4 C7 1_555 1_555
C8 C5 1_555 1_555
C9 H5 1_555 1_555
C10 C9 1_555 1_555
H6 C10 1_555 1_555
C11 C10 1_555 1_555
C12 C11 1_555 1_555
H7 C12 1_555 1_555
C13 C12 1_555 1_555
H8 C13 1_555 1_555
C14 C15 1_555 1_555
C15 H9 1_555 1_555
C16 C15 1_555 1_555
H10 C16 1_555 1_555
C17 C16 1_555 1_555
H11 C17 1_555 1_555
C18 C17 1_555 1_555
H12 C18 1_555 1_555
C19 C14 1_555 1_555
H13 C19 1_555 1_555
N1 C9 1_555 1_555
O1 C1 1_555 1_555
O2 C1 1_555 1_555
O3 C8 1_555 1_555
O4 C8 1_555 1_555
O5 N1 1_555 1_555
Cl1 C14 1_555 1_555
Mn1 O1 1_555 1_555
Mn2 O2 1_555 1_555
C1D C2D 1_555 1_555
C2D C3D 1_555 1_555
C3D H1D 1_555 1_555
C4D C3D 1_555 1_555
H2D C4D 1_555 1_555
C5D C4D 1_555 1_555
C6D C5D 1_555 1_555
H3D C6D 1_555 1_555
C7D C2D 1_555 1_555
H4D C7D 1_555 1_555
C8D C5D 1_555 1_555
C9F H5F 1_555 1_555
C10F C9F 1_555 1_555
H6F C10F 1_555 1_555
C11F C11 1_555 1_555
C12F C11F 1_555 1_555
H7F C12F 1_555 1_555
C13F C12F 1_555 1_555
H8F C13F 1_555 1_555
N1F C9F 1_555 1_555
O1D Mn1 1_555 1_555
O2D C1D 1_555 1_555
O2A Mn2 1_555 1_555
O3D C8D 1_555 1_555
O3C Mn1 1_555 1_555
O3G Mn1 1_555 1_555
O4D C8D 1_555 1_555
O4F Mn2 1_555 1_555
O4G Mn2 1_555 1_555
O5F N1F 1_555 1_555
O5D Mn1 1_555 1_555
O5E Mn2 1_555 1_555
Mn1C O3 1_555 1_555
Mn1B O5F 1_555 1_555
Mn1C_2 O3D 1_555 1_555
Mn2F O4 1_555 1_555
Mn2D O5 1_555 1_555
Mn2B O5F 1_555 1_555
Mn2B_2 O4D 1_555 1_555
C6 C7 1_555 1_555
C13 N1 1_555 1_555
C18 C19 1_555 1_555
O5 Mn1 1_555 1_555
Mn2 O5D 1_555 1_555
C1D O1D 1_555 1_555
C6D C7D 1_555 1_555
C10F C11F 1_555 1_555
C13F N1F 1_555 1_555
O2D Mn2D 1_555 1_555

#END
