
#######################################################################
#
#                 Cambridge Crystallographic Data Centre
#                                CCDC 
#
#######################################################################
#
# If this CIF has been generated from an entry in the Cambridge 
# Structural Database, then it will include bibliographic, chemical, 
# crystal, experimental, refinement or atomic coordinate data resulting 
# from the CCDC's data processing and validation procedures.
#
#######################################################################

data_IYUCEM
_chemical_formula_moiety         '(C72 H72 Eu2 N14 O25)n'
_symmetry_cell_setting           monoclinic
_symmetry_space_group_name_H-M   'P 2/c'
_symmetry_Int_Tables_number      13
_space_group_name_Hall           '-P 2yc'
loop_
_symmetry_equiv_pos_site_id
_symmetry_equiv_pos_as_xyz
1 x,y,z
2 -x,y,1/2-z
3 -x,-y,-z
4 x,-y,1/2+z
_cell_length_a                   8.1737(5)
_cell_length_b                   15.0092(10)
_cell_length_c                   37.574(2)
_cell_angle_alpha                90
_cell_angle_beta                 101.828(2)
_cell_angle_gamma                90
_cell_volume                     4511.73
loop_
_atom_site_label
_atom_site_type_symbol
_atom_site_fract_x
_atom_site_fract_y
_atom_site_fract_z
Eu1 Eu 0.31991(5) 0.09839(3) -0.014455(11)
O1 O 0.1498(7) 0.0896(4) 0.03367(14)
O2 O 0.3896(7) 0.2403(4) -0.04541(16)
O3 O 0.2655(7) 0.2180(4) 0.02674(14)
O4 O -0.5035(6) 0.0265(4) 0.46520(14)
O5 O 0.5885(7) 0.1701(4) -0.00783(16)
N1 N 1.0454(9) 0.4751(5) -0.0473(2)
O6 O 0.1803(7) -0.0446(4) -0.02060(16)
H1 H 0.1537 -0.0571 -0.0431
H2 H 0.0901 -0.0393 -0.0129
C1 C 0.1074(11) 0.2068(6) 0.0734(2)
C2 C 0.8304(10) 0.2909(6) -0.0175(2)
H3 H 0.8619 0.2451 -0.0009
C3 C 0.5426(11) 0.2336(6) -0.0298(2)
N2 N -0.0675(9) 0.1493(5) 0.15413(18)
H4 H -0.0772 0.0934 0.1582
C4 C 0.6682(10) 0.2987(6) -0.0366(2)
N3 N 1.1135(8) 0.3622(5) -0.00888(19)
N4 N -0.0750(9) 0.2974(5) 0.16173(19)
C5 C 0.9442(10) 0.3532(6) -0.0239(2)
C6 C 1.3890(10) 0.5460(6) -0.0266(2)
H5 H 1.3154 0.5771 -0.0445
C7 C 0.1771(10) 0.1698(6) 0.0431(2)
O7 O -0.6540(8) -0.0560(4) 0.42256(15)
C8 C -0.4564(11) 0.1931(7) 0.3537(2)
N5 N -0.3853(9) 0.0871(6) 0.31743(19)
H6 H -0.3677 0.0364 0.3082
N6 N -0.4008(9) 0.2350(5) 0.32540(19)
C9 C -0.4912(11) 0.0426(7) 0.3729(2)
H7 H -0.4913 -0.0185 0.3688
C10 C -0.0099(11) 0.1873(6) 0.1256(2)
C11 C -0.4451(11) 0.1017(7) 0.3485(2)
C12 C -0.1710(11) 0.2047(7) 0.2080(2)
C13 C -0.5665(11) 0.0128(6) 0.4315(2)
C14 C 1.1661(11) 0.4361(6) -0.0240(2)
C15 C -0.5366(11) 0.0761(6) 0.4033(2)
C16 C 0.9033(10) 0.4241(6) -0.0479(2)
C17 C -0.1049(11) 0.2168(7) 0.1742(2)
C18 C 0.0487(10) 0.1499(6) 0.0969(2)
H8 H 0.0486 0.0885 0.0936
C19 C -0.2561(12) 0.1090(7) 0.2520(2)
H9 H -0.2713 0.0519 0.2604
C20 C -0.0133(11) 0.2783(6) 0.1309(2)
C21 C -0.5471(11) 0.1685(6) 0.4086(2)
H10 H -0.5798 0.1893 0.4294
C22 C 0.1039(11) 0.2993(6) 0.0786(2)
H11 H 0.1439 0.3368 0.0627
C23 C -0.5099(11) 0.2290(7) 0.3837(2)
H12 H -0.5200 0.2901 0.3867
C24 C -0.3603(12) 0.1665(7) 0.3047(2)
C25 C 0.6247(11) 0.3696(6) -0.0618(2)
H13 H 0.5153 0.3740 -0.0749
C26 C 0.0422(11) 0.3358(7) 0.1070(2)
H14 H 0.0380 0.3972 0.1099
C27 C -0.2930(12) 0.1817(7) 0.2712(2)
C28 C -0.1958(12) 0.1201(7) 0.2200(2)
H15 H -0.1728 0.0707 0.2069
C29 C 0.7414(11) 0.4324(6) -0.0675(2)
H16 H 0.7114 0.4788 -0.0839
C30 C 1.4510(10) 0.4236(6) 0.0147(2)
H17 H 1.4177 0.3715 0.0246
C31 C 1.3370(10) 0.4687(6) -0.0119(2)
C32 C -0.2083(12) 0.2756(7) 0.2274(2)
H18 H -0.1936 0.3327 0.2189
C33 C -0.2664(12) 0.2664(7) 0.2588(2)
H19 H -0.2879 0.3164 0.2717
O8 O 0.0604(8) 0.1390(5) -0.04840(18)
C34 C 0.0232(15) 0.1932(9) -0.0747(3)
H20 H 0.0951 0.2401 -0.0768
N7 N -0.1106(13) 0.1839(8) -0.0981(3)
C35 C -0.2316(19) 0.1188(10) -0.0959(5)
H21 H -0.2239 0.0715 -0.1127
H22 H -0.3409 0.1450 -0.1018
H23 H -0.2126 0.0953 -0.0716
C36 C -0.157(2) 0.2474(12) -0.1276(4)
H24 H -0.0801 0.2964 -0.1240
H25 H -0.2681 0.2690 -0.1281
H26 H -0.1538 0.2187 -0.1503
O2B O 2.6104(7) 0.7597(4) 0.04541(16)
O5B O 2.4115(7) 0.8299(4) 0.00783(16)
N1B N 1.9546(9) 0.5249(5) 0.0473(2)
C2B C 2.1696(10) 0.7091(6) 0.0175(2)
H3B H 2.1381 0.7549 0.0009
C3B C 2.4574(11) 0.7664(6) 0.0298(2)
C4B C 2.3318(10) 0.7013(6) 0.0366(2)
N3B N 1.8865(8) 0.6378(5) 0.00888(19)
C5B C 2.0558(10) 0.6468(6) 0.0239(2)
C6B C 1.6110(10) 0.4540(6) 0.0266(2)
H5B H 1.6846 0.4229 0.0445
C14B C 1.8339(11) 0.5639(6) 0.0240(2)
C16B C 2.0967(10) 0.5759(6) 0.0479(2)
C25B C 2.3753(11) 0.6304(6) 0.0618(2)
H13B H 2.4847 0.6260 0.0749
C29B C 2.2586(11) 0.5676(6) 0.0675(2)
H16B H 2.2886 0.5212 0.0839
C30B C 1.5490(10) 0.5764(6) -0.0147(2)
H17B H 1.5823 0.6285 -0.0246
C31B C 1.6630(10) 0.5313(6) 0.0119(2)
Eu1A Eu -0.31991(5) 0.09839(3) 0.514455(11)
O1A O -0.1498(7) 0.0896(4) 0.46633(14)
O3A O -0.2655(7) 0.2180(4) 0.47326(14)
O4A O 0.5035(6) 0.0265(4) 0.03480(14)
O6A O -0.1803(7) -0.0446(4) 0.52060(16)
H1A H -0.1537 -0.0571 0.5431
H2A H -0.0901 -0.0393 0.5129
C1A C -0.1074(11) 0.2068(6) 0.4266(2)
N2A N 0.0675(9) 0.1493(5) 0.34587(18)
H4A H 0.0772 0.0934 0.3418
N4A N 0.0750(9) 0.2974(5) 0.33827(19)
C7A C -0.1771(10) 0.1698(6) 0.4569(2)
O7A O 0.6540(8) -0.0560(4) 0.07744(15)
C8A C 0.4564(11) 0.1931(7) 0.1463(2)
N5A N 0.3853(9) 0.0871(6) 0.18257(19)
H6A H 0.3677 0.0364 0.1918
N6A N 0.4008(9) 0.2350(5) 0.17460(19)
C9A C 0.4912(11) 0.0426(7) 0.1271(2)
H7A H 0.4913 -0.0185 0.1312
C10A C 0.0099(11) 0.1873(6) 0.3744(2)
C11A C 0.4451(11) 0.1017(7) 0.1515(2)
C12A C 0.1710(11) 0.2047(7) 0.2920(2)
C13A C 0.5665(11) 0.0128(6) 0.0685(2)
C15A C 0.5366(11) 0.0761(6) 0.0967(2)
C17A C 0.1049(11) 0.2168(7) 0.3258(2)
C18A C -0.0487(10) 0.1499(6) 0.4031(2)
H8A H -0.0486 0.0885 0.4064
C19A C 0.2561(12) 0.1090(7) 0.2480(2)
H9A H 0.2713 0.0519 0.2396
C20A C 0.0133(11) 0.2783(6) 0.3691(2)
C21A C 0.5471(11) 0.1685(6) 0.0914(2)
H10A H 0.5798 0.1893 0.0706
C22A C -0.1039(11) 0.2993(6) 0.4214(2)
H11A H -0.1439 0.3368 0.4373
C23A C 0.5099(11) 0.2290(7) 0.1163(2)
H12A H 0.5200 0.2901 0.1133
C24A C 0.3603(12) 0.1665(7) 0.1953(2)
C26A C -0.0422(11) 0.3358(7) 0.3930(2)
H14A H -0.0380 0.3972 0.3901
C27A C 0.2930(12) 0.1817(7) 0.2288(2)
C28A C 0.1958(12) 0.1201(7) 0.2800(2)
H15A H 0.1728 0.0707 0.2931
C32A C 0.2083(12) 0.2756(7) 0.2726(2)
H18A H 0.1936 0.3327 0.2811
C33A C 0.2664(12) 0.2664(7) 0.2412(2)
H19A H 0.2879 0.3164 0.2283
O8A O -0.0604(8) 0.1390(5) 0.54840(18)
C34A C -0.0232(15) 0.1932(9) 0.5747(3)
H20A H -0.0951 0.2401 0.5768
N7A N 0.1106(13) 0.1839(8) 0.5981(3)
C35A C 0.2316(19) 0.1188(10) 0.5959(5)
H21A H 0.2239 0.0715 0.6127
H22A H 0.3409 0.1450 0.6018
H23A H 0.2126 0.0953 0.5716
C36A C 0.157(2) 0.2474(12) 0.6276(4)
H24A H 0.0801 0.2964 0.6240
H25A H 0.2681 0.2690 0.6281
H26A H 0.1538 0.2187 0.6503
Eu1B Eu 0.68009(5) -0.09839(3) 0.014455(11)
Eu1B_2 Eu 2.68009(5) 0.90161(3) 0.014455(11)
Eu1C Eu -0.68009(5) -0.09839(3) 0.485545(11)
O2A O -0.3896(7) 0.2403(4) 0.54541(16)
O4B O -0.4965(6) -0.0265(4) 0.53480(14)
O4C O 0.4965(6) -0.0265(4) -0.03480(14)
O5A O -0.5885(7) 0.1701(4) 0.50783(16)
O7B O -0.3460(8) 0.0560(4) 0.57744(15)
O7C O 0.3460(8) 0.0560(4) -0.07744(15)
O9 O -0.1063(12) -0.0398(6) 0.1479(3)
H27 H -0.0911 0.0159 0.1510
H28 H -0.1750 -0.0480 0.1279
O9A O 0.1063(12) -0.0398(6) 0.3521(3)
H27A H 0.0911 0.0159 0.3490
H28A H 0.1750 -0.0480 0.3721
O10 O 0.5997(18) 0.4217(8) 0.3197(3)
H29 H 0.5558 0.4225 0.2972
H30 H 0.6132 0.3666 0.3247
O11 O 0.148(4) 0.4363(17) 0.8797(6)
H31 H 0.0783 0.4329 0.8936
H32 H 0.2271 0.4699 0.8901
O12 O 0.623(6) 0.9134(12) 0.2958(8)
H33 H 0.5800 0.8793 0.3094
H34 H 0.7225 0.8967 0.2961
O13 O 0.285(3) 0.2618(16) 0.8762(6)
H35 H 0.2384 0.3126 0.8742
H36 H 0.2474 0.2297 0.8914
O14 O 0.988(4) 0.5273(13) 0.8141(5)
H37 H 0.9049 0.5511 0.8209
H38 H 0.9814 0.4708 0.8146
O15 O 0.253(7) 0.8457(15) 0.3114(9)
H39 H 0.2118 0.8834 0.3240
H40 H 0.2681 0.7960 0.3224
O16 O 0.325(4) 0.5486(18) 0.8454(7)
H41 H 0.2287 0.5431 0.8317
H42 H 0.3249 0.5909 0.8605
loop_
_geom_bond_atom_site_label_1
_geom_bond_atom_site_label_2
_geom_bond_site_symmetry_1
_geom_bond_site_symmetry_2
Eu1 O1 1_555 1_555
O1 C7 1_555 1_555
O2 Eu1 1_555 1_555
O3 Eu1 1_555 1_555
O4 C13 1_555 1_555
O5 Eu1 1_555 1_555
N1 C14 1_555 1_555
O6 Eu1 1_555 1_555
H1 O6 1_555 1_555
H2 O6 1_555 1_555
C1 C7 1_555 1_555
C2 H3 1_555 1_555
C3 O2 1_555 1_555
N2 H4 1_555 1_555
C4 C2 1_555 1_555
N3 C5 1_555 1_555
N4 C17 1_555 1_555
C5 C2 1_555 1_555
C6 H5 1_555 1_555
C7 O3 1_555 1_555
O7 C13 1_555 1_555
C8 N6 1_555 1_555
N5 H6 1_555 1_555
N6 C24 1_555 1_555
C9 H7 1_555 1_555
C10 N2 1_555 1_555
C11 C8 1_555 1_555
C12 C17 1_555 1_555
C13 C15 1_555 1_555
C14 N3 1_555 1_555
C15 C9 1_555 1_555
C16 N1 1_555 1_555
C17 N2 1_555 1_555
C18 C1 1_555 1_555
H8 C18 1_555 1_555
C19 H9 1_555 1_555
C20 N4 1_555 1_555
C21 C15 1_555 1_555
H10 C21 1_555 1_555
C22 C1 1_555 1_555
H11 C22 1_555 1_555
C23 C8 1_555 1_555
H12 C23 1_555 1_555
C24 N5 1_555 1_555
C25 C4 1_555 1_555
H13 C25 1_555 1_555
C26 C20 1_555 1_555
H14 C26 1_555 1_555
C27 C19 1_555 1_555
C28 C12 1_555 1_555
H15 C28 1_555 1_555
C29 C16 1_555 1_555
H16 C29 1_555 1_555
C30 H17 1_555 1_555
C31 C6 1_555 1_555
C32 C12 1_555 1_555
H18 C32 1_555 1_555
C33 C27 1_555 1_555
H19 C33 1_555 1_555
O8 Eu1 1_555 1_555
C34 O8 1_555 1_555
H20 C34 1_555 1_555
N7 C34 1_555 1_555
C35 N7 1_555 1_555
H21 C35 1_555 1_555
H22 C35 1_555 1_555
H23 C35 1_555 1_555
C36 N7 1_555 1_555
H24 C36 1_555 1_555
H25 C36 1_555 1_555
H26 C36 1_555 1_555
O9 H27 1_555 1_555
H28 O9 1_555 1_555
O10 H29 1_555 1_555
H30 O10 1_555 1_555
O11 H31 1_555 1_555
H32 O11 1_555 1_555
O12 H33 1_555 1_555
H34 O12 1_555 1_555
O13 H35 1_555 1_555
H36 O13 1_555 1_555
O14 H37 1_555 1_555
H38 O14 1_555 1_555
O15 H39 1_555 1_555
H40 O15 1_555 1_555
O16 H41 1_555 1_555
H42 O16 1_555 1_555
O2B C3B 1_555 1_555
O5B C3B 1_555 1_555
N1B C14B 1_555 1_555
C2B H3B 1_555 1_555
C3B C4B 1_555 1_555
C4B C2B 1_555 1_555
N3B C5B 1_555 1_555
C5B C2B 1_555 1_555
C6B C30 1_555 1_555
H5B C6B 1_555 1_555
C14B N3B 1_555 1_555
C16B N1B 1_555 1_555
C25B C4B 1_555 1_555
H13B C25B 1_555 1_555
C29B C16B 1_555 1_555
H16B C29B 1_555 1_555
C30B C6 1_555 1_555
H17B C30B 1_555 1_555
C31B C6B 1_555 1_555
Eu1A O4 1_555 1_555
O1A Eu1A 1_555 1_555
O3A Eu1A 1_555 1_555
O4A Eu1 1_555 1_555
O6A Eu1A 1_555 1_555
H1A O6A 1_555 1_555
H2A O6A 1_555 1_555
C1A C7A 1_555 1_555
N2A H4A 1_555 1_555
N4A C17A 1_555 1_555
C7A O1A 1_555 1_555
O7A C13A 1_555 1_555
C8A N6A 1_555 1_555
N5A H6A 1_555 1_555
N6A C24A 1_555 1_555
C9A H7A 1_555 1_555
C10A N2A 1_555 1_555
C11A C8A 1_555 1_555
C12A C17A 1_555 1_555
C13A O4A 1_555 1_555
C15A C9A 1_555 1_555
C17A N2A 1_555 1_555
C18A C1A 1_555 1_555
H8A C18A 1_555 1_555
C19A H9A 1_555 1_555
C20A N4A 1_555 1_555
C21A C15A 1_555 1_555
H10A C21A 1_555 1_555
C22A C1A 1_555 1_555
H11A C22A 1_555 1_555
C23A C8A 1_555 1_555
H12A C23A 1_555 1_555
C24A N5A 1_555 1_555
C26A C20A 1_555 1_555
H14A C26A 1_555 1_555
C27A C19A 1_555 1_555
C28A C12A 1_555 1_555
H15A C28A 1_555 1_555
C32A C12A 1_555 1_555
H18A C32A 1_555 1_555
C33A C27A 1_555 1_555
H19A C33A 1_555 1_555
O8A Eu1A 1_555 1_555
C34A O8A 1_555 1_555
H20A C34A 1_555 1_555
N7A C34A 1_555 1_555
C35A N7A 1_555 1_555
H21A C35A 1_555 1_555
H22A C35A 1_555 1_555
H23A C35A 1_555 1_555
C36A N7A 1_555 1_555
H24A C36A 1_555 1_555
H25A C36A 1_555 1_555
H26A C36A 1_555 1_555
Eu1B O4A 1_555 1_555
Eu1B_2 O2B 1_555 1_555
Eu1C O4 1_555 1_555
O2A Eu1A 1_555 1_555
O4B Eu1A 1_555 1_555
O4C Eu1 1_555 1_555
O5A Eu1A 1_555 1_555
O7B Eu1A 1_555 1_555
O7C Eu1 1_555 1_555
O9A H27A 1_555 1_555
H28A O9A 1_555 1_555
O5 C3 1_555 1_555
C3 C4 1_555 1_555
C5 C16 1_555 1_555
O7 Eu1C 1_555 1_555
N5 C11 1_555 1_555
C9 C11 1_555 1_555
C10 C18 1_555 1_555
C10 C20 1_555 1_555
C14 C31 1_555 1_555
C19 C28 1_555 1_555
C21 C23 1_555 1_555
C22 C26 1_555 1_555
C24 C27 1_555 1_555
C25 C29 1_555 1_555
C30 C31 1_555 1_555
C32 C33 1_555 1_555
O5B Eu1B_2 1_555 1_555
C5B C16B 1_555 1_555
C14B C31B 1_555 1_555
C25B C29B 1_555 1_555
C30B C31B 1_555 1_555
O3A C7A 1_555 1_555
O7A Eu1B 1_555 1_555
N5A C11A 1_555 1_555
C9A C11A 1_555 1_555
C10A C18A 1_555 1_555
C10A C20A 1_555 1_555
C13A C15A 1_555 1_555
C19A C28A 1_555 1_555
C21A C23A 1_555 1_555
C22A C26A 1_555 1_555
C24A C27A 1_555 1_555
C32A C33A 1_555 1_555
Eu1B O4C 1_555 1_555
Eu1C O4B 1_555 1_555

#END
