
#######################################################################
#
#                 Cambridge Crystallographic Data Centre
#                                CCDC 
#
#######################################################################
#
# If this CIF has been generated from an entry in the Cambridge 
# Structural Database, then it will include bibliographic, chemical, 
# crystal, experimental, refinement or atomic coordinate data resulting 
# from the CCDC's data processing and validation procedures.
#
#######################################################################

data_NANNAU
_chemical_formula_moiety         '(C48 H39 N11 O5 Zn1)n'
_symmetry_cell_setting           orthorhombic
_symmetry_space_group_name_H-M   'P 21 21 21'
_symmetry_Int_Tables_number      19
_space_group_name_Hall           'P 2ac 2ab'
loop_
_symmetry_equiv_pos_site_id
_symmetry_equiv_pos_as_xyz
1 x,y,z
2 1/2-x,-y,1/2+z
3 -x,1/2+y,1/2-z
4 1/2+x,1/2-y,-z
_cell_length_a                   9.3086(4)
_cell_length_b                   21.1829(8)
_cell_length_c                   21.4560(9)
_cell_angle_alpha                90
_cell_angle_beta                 90
_cell_angle_gamma                90
_cell_volume                     4230.76
loop_
_atom_site_label
_atom_site_type_symbol
_atom_site_fract_x
_atom_site_fract_y
_atom_site_fract_z
_atom_site_U_iso_or_equiv
_atom_site_thermal_displace_type
Zn1 Zn 0.92275(5) 0.50286(2) 0.14663(2) 0.0174 Uani
C1 C 0.6366(5) 0.5486(2) 0.1022(2) 0.0170 Uani
H1 H 0.606563 0.559736 0.142056 0.0210 Uiso
C2 C 0.7559(5) 0.5141(2) 0.0258(2) 0.0203 Uani
H2 H 0.829616 0.495344 0.003143 0.0240 Uiso
C3 C -0.2491(5) 0.5626(2) -0.2509(2) 0.0210 Uani
H3 H -0.184079 0.529687 -0.245854 0.0250 Uiso
C4 C -0.4177(6) 0.6211(2) -0.2819(2) 0.0220 Uani
H4 H -0.495284 0.635573 -0.305239 0.0260 Uiso
C5 C -0.4394(6) 0.7139(3) 0.2274(2) 0.0367 Uani
H5 H -0.467695 0.674240 0.213481 0.0440 Uiso
C6 C -0.4214(8) 0.7968(4) 0.2755(3) 0.0607 Uani
H6 H -0.439192 0.828384 0.304591 0.0730 Uiso
C7 C 0.4293(5) 0.58965(19) 0.0412(2) 0.0177 Uani
C8 C 0.4025(5) 0.6181(2) -0.0160(2) 0.0190 Uani
H7 H 0.471545 0.617040 -0.047318 0.0230 Uiso
C9 C 0.2728(5) 0.6478(2) -0.0260(2) 0.0200 Uani
H8 H 0.255178 0.667353 -0.064109 0.0240 Uiso
C10 C 0.1677(5) 0.6490(2) 0.0204(2) 0.0170 Uani
C11 C 0.1976(5) 0.6217(2) 0.0774(2) 0.0187 Uani
H9 H 0.129434 0.623231 0.109088 0.0230 Uiso
C12 C 0.3272(5) 0.5922(2) 0.0879(2) 0.0180 Uani
H10 H 0.346085 0.573918 0.126508 0.0220 Uiso
C13 C -0.1709(5) 0.6308(2) -0.1622(2) 0.0190 Uani
C14 C -0.1709(5) 0.6930(2) -0.1417(2) 0.0177 Uani
H11 H -0.216018 0.724248 -0.164939 0.0210 Uiso
C15 C -0.1035(5) 0.7076(2) -0.0868(2) 0.0177 Uani
H12 H -0.106025 0.748828 -0.071855 0.0210 Uiso
C16 C -0.0310(5) 0.6610(2) -0.0532(2) 0.0183 Uani
C17 C -0.0268(5) 0.5998(2) -0.0759(2) 0.0213 Uani
H13 H 0.024535 0.568954 -0.054620 0.0260 Uiso
C18 C -0.0983(5) 0.5846(2) -0.1297(2) 0.0223 Uani
H14 H -0.097812 0.543284 -0.144269 0.0270 Uiso
C19 C -0.2417(5) 0.7322(2) 0.1508(2) 0.0223 Uani
C20 C -0.0993(5) 0.7504(2) 0.1519(2) 0.0220 Uani
H15 H -0.063191 0.773702 0.185102 0.0260 Uiso
C21 C -0.0116(5) 0.7334(2) 0.1029(2) 0.0233 Uani
H16 H 0.083215 0.747253 0.102548 0.0280 Uiso
C22 C -0.0611(5) 0.69623(19) 0.0539(2) 0.0163 Uani
C23 C -0.2067(5) 0.6801(2) 0.0534(2) 0.0197 Uani
H17 H -0.243748 0.656623 0.020416 0.0230 Uiso
C24 C -0.2959(5) 0.6987(2) 0.1014(2) 0.0190 Uani
H18 H -0.392968 0.688393 0.100321 0.0230 Uiso
C25 C 1.1353(5) 0.4543(2) 0.0609(2) 0.0217 Uani
C26 C 2.0983(6) 0.0994(2) 0.2699(2) 0.0210 Uani
C27 C 1.2837(5) 0.4245(2) 0.0558(2) 0.0213 Uani
C28 C 1.3790(5) 0.4275(2) 0.1051(2) 0.0243 Uani
H19 H 1.351328 0.447106 0.141998 0.0290 Uiso
C29 C 1.5165(5) 0.4014(2) 0.1001(2) 0.0247 Uani
H20 H 1.579228 0.403219 0.133823 0.0300 Uiso
C30 C 1.5595(5) 0.3727(2) 0.0448(2) 0.0220 Uani
C31 C 1.4652(6) 0.3721(3) -0.0052(3) 0.0320 Uani
H21 H 1.493463 0.354421 -0.042946 0.0380 Uiso
C32 C 1.3279(6) 0.3980(3) 0.0008(3) 0.0320 Uani
H22 H 1.265509 0.397109 -0.033034 0.0380 Uiso
C33 C 2.0445(5) 0.1476(2) 0.2241(2) 0.0210 Uani
C34 C 2.1403(6) 0.1799(2) 0.1857(2) 0.0260 Uani
H23 H 2.23826 0.172102 0.189331 0.0310 Uiso
C35 C 2.0924(5) 0.2232(2) 0.1424(2) 0.0250 Uani
H24 H 2.15868 0.244567 0.117770 0.0300 Uiso
C36 C 1.9457(5) 0.2355(2) 0.1350(2) 0.0207 Uani
C37 C 1.8510(6) 0.2044(2) 0.1747(2) 0.0280 Uani
H25 H 1.753038 0.212300 0.171304 0.0340 Uiso
C38 C 1.8990(6) 0.1618(2) 0.2191(2) 0.0250 Uani
H26 H 1.833518 0.142570 0.245822 0.0300 Uiso
C39 C 1.8936(5) 0.2783(2) 0.0848(2) 0.0220 Uani
C40 C 1.9744(5) 0.2872(2) 0.0307(2) 0.0253 Uani
H27 H 2.064993 0.269013 0.027537 0.0310 Uiso
C41 C 1.9212(6) 0.3230(2) -0.0184(2) 0.0303 Uani
H28 H 1.975440 0.327929 -0.054464 0.0370 Uiso
C42 C 1.7878(6) 0.3512(2) -0.0138(2) 0.0270 Uani
H29 H 1.753239 0.375633 -0.046553 0.0320 Uiso
C43 C 1.7056(6) 0.3434(2) 0.0393(2) 0.0227 Uani
C44 C 1.7602(5) 0.3076(2) 0.0881(2) 0.0213 Uani
H30 H 1.705657 0.302979 0.124163 0.0260 Uiso
N1 N 0.7606(4) 0.52110(16) 0.08810(18) 0.0172 Uani
N2 N 0.5625(4) 0.55773(16) 0.04996(17) 0.0169 Uani
N3 N 0.6379(4) 0.53596(19) -0.00026(18) 0.0223 Uani
N4 N -0.3521(4) 0.56457(18) -0.29324(18) 0.0193 Uani
N5 N -0.2522(4) 0.61464(17) -0.21677(17) 0.0177 Uani
N6 N -0.3626(5) 0.65332(19) -0.23577(19) 0.0247 Uani
N7 N -0.4978(6) 0.7432(3) 0.2750(2) 0.0517 Uani
N8 N -0.3336(5) 0.7481(2) 0.20124(19) 0.0287 Uani
N9 N -0.3190(6) 0.8030(3) 0.2325(3) 0.0513 Uani
N10 N 0.0318(4) 0.67610(19) 0.00628(18) 0.0197 Uani
O1 O 1.0928(4) 0.46123(17) 0.11715(16) 0.0306 Uani
O2 O 1.0709(4) 0.47045(17) 0.01435(16) 0.0324 Uani
O3 O 2.0035(4) 0.07453(16) 0.30556(16) 0.0278 Uani
O4 O 2.2276(4) 0.08516(16) 0.27102(17) 0.0303 Uani
Zn1A Zn -0.42275(5) 0.49714(2) -0.35337(2) 0.0174 Uani
Zn1B Zn 2.07725(5) 0.00286(2) 0.35337(2) 0.0174 Uani
N4A N 0.8521(4) 0.43543(18) 0.20676(18) 0.0193 Uani
O3B O 0.9965(4) 0.57453(16) 0.19444(16) 0.0278 Uani
C45 C 0.3960(8) 0.5338(4) 0.2902(6) 0.0847 Uani
C46 C 0.4772(9) 0.5797(3) 0.3338(4) 0.0657 Uani
H31 H 0.434532 0.620844 0.331165 0.0990 Uiso
H32 H 0.576138 0.582048 0.321310 0.0990 Uiso
H33 H 0.471471 0.564632 0.375906 0.0990 Uiso
C47 C 0.2332(11) 0.5143(5) 0.3730(3) 0.0960 Uani
H34 H 0.303930 0.535524 0.397882 0.1440 Uiso
H35 H 0.212070 0.473882 0.391058 0.1440 Uiso
H36 H 0.147123 0.539221 0.371480 0.1440 Uiso
C48 C 0.2083(10) 0.4635(4) 0.2692(4) 0.0873 Uani
H37 H 0.244580 0.467480 0.227491 0.1310 Uiso
H38 H 0.108340 0.474640 0.269856 0.1310 Uiso
H39 H 0.219552 0.420697 0.283053 0.1310 Uiso
N11 N 0.2880(8) 0.5056(4) 0.3105(3) 0.0780 Uani
O5 O 0.4439(6) 0.5256(3) 0.2334(2) 0.0767 Uani
loop_
_atom_site_aniso_label
_atom_site_aniso_U_11
_atom_site_aniso_U_22
_atom_site_aniso_U_33
_atom_site_aniso_U_23
_atom_site_aniso_U_13
_atom_site_aniso_U_12
Zn1 0.0141(2) 0.0210(2) 0.0172(2) 0.0012(3) -0.0005(2) 0.0019(2)
C1 0.015(2) 0.017(2) 0.019(2) -0.0006(19) -0.0030(19) -0.0003(19)
C2 0.017(2) 0.021(3) 0.023(2) 0.0008(19) 0.0023(19) 0.0055(19)
C3 0.019(3) 0.021(2) 0.023(2) -0.001(2) 0.001(2) 0.003(2)
C4 0.023(2) 0.022(2) 0.021(2) 0.0035(19) -0.005(2) 0.008(2)
C5 0.029(3) 0.055(4) 0.026(3) 0.002(3) 0.001(3) 0.006(3)
C6 0.057(4) 0.078(5) 0.047(4) -0.040(4) 0.005(4) 0.019(5)
C7 0.014(2) 0.016(2) 0.023(2) -0.0038(18) -0.008(2) 0.000(2)
C8 0.014(2) 0.021(2) 0.022(2) 0.0026(19) 0.002(2) 0.000(2)
C9 0.017(2) 0.025(2) 0.018(2) 0.005(2) -0.005(2) 0.002(2)
C10 0.012(2) 0.018(2) 0.021(2) -0.002(2) -0.003(2) 0.0004(18)
C11 0.015(2) 0.016(2) 0.025(2) -0.002(2) 0.003(2) -0.0036(19)
C12 0.020(3) 0.018(2) 0.016(2) 0.003(2) -0.002(2) 0.002(2)
C13 0.013(2) 0.026(2) 0.018(2) -0.001(2) 0.0017(18) 0.002(2)
C14 0.014(2) 0.019(2) 0.020(2) 0.004(2) 0.002(2) 0.0053(17)
C15 0.012(2) 0.020(2) 0.021(2) -0.0051(19) 0.0034(19) -0.0003(18)
C16 0.012(2) 0.025(2) 0.018(2) -0.001(2) 0.0026(19) -0.0018(19)
C17 0.018(2) 0.022(2) 0.024(3) 0.000(2) -0.004(2) 0.006(2)
C18 0.019(3) 0.018(2) 0.030(3) -0.0036(19) -0.003(2) 0.005(2)
C19 0.022(2) 0.023(2) 0.022(2) 0.001(2) 0.000(2) 0.007(2)
C20 0.022(3) 0.021(2) 0.023(2) -0.003(2) -0.007(2) 0.0003(19)
C21 0.016(2) 0.023(2) 0.031(3) -0.001(2) -0.008(2) -0.002(2)
C22 0.014(2) 0.0149(19) 0.020(2) 0.0023(19) -0.001(2) 0.0028(19)
C23 0.021(3) 0.015(2) 0.023(3) -0.001(2) -0.006(2) -0.0002(19)
C24 0.012(2) 0.020(2) 0.025(3) 0.003(2) 0.000(2) 0.001(2)
C25 0.016(2) 0.017(2) 0.032(3) -0.002(2) 0.001(2) 0.0020(19)
C26 0.026(3) 0.018(2) 0.019(2) -0.008(2) 0.000(2) 0.002(2)
C27 0.022(3) 0.019(2) 0.023(2) 0.001(2) 0.003(2) 0.002(2)
C28 0.027(3) 0.019(2) 0.027(3) 0.000(2) 0.006(2) 0.003(2)
C29 0.024(3) 0.023(2) 0.027(3) 0.007(2) -0.002(2) 0.000(2)
C30 0.021(3) 0.018(2) 0.027(2) 0.002(2) -0.001(2) 0.004(2)
C31 0.028(3) 0.038(3) 0.030(3) -0.007(3) 0.003(2) 0.013(2)
C32 0.026(3) 0.036(3) 0.034(3) -0.003(3) -0.009(3) 0.008(2)
C33 0.023(3) 0.022(2) 0.018(2) -0.007(2) -0.001(2) 0.004(2)
C34 0.019(3) 0.035(3) 0.024(3) 0.000(2) -0.003(2) 0.004(2)
C35 0.026(3) 0.029(2) 0.020(2) 0.001(2) 0.002(2) 0.002(2)
C36 0.021(3) 0.018(2) 0.023(3) -0.0038(19) 0.003(2) 0.0047(19)
C37 0.022(3) 0.026(3) 0.036(3) 0.002(2) 0.001(2) 0.002(2)
C38 0.024(3) 0.026(2) 0.025(3) 0.000(2) 0.001(2) 0.002(2)
C39 0.026(3) 0.015(2) 0.025(2) -0.003(2) -0.006(2) 0.000(2)
C40 0.016(2) 0.032(3) 0.028(3) 0.002(2) 0.005(2) 0.004(2)
C41 0.032(3) 0.032(3) 0.027(3) 0.007(2) 0.010(3) 0.006(3)
C42 0.027(3) 0.024(2) 0.030(3) 0.007(2) -0.001(2) 0.005(2)
C43 0.027(3) 0.017(2) 0.024(3) -0.004(2) -0.002(2) -0.001(2)
C44 0.023(3) 0.022(2) 0.019(2) -0.001(2) 0.002(2) -0.001(2)
N1 0.0137(19) 0.0170(18) 0.021(2) 0.0020(15) -0.0010(16) 0.0019(15)
N2 0.0126(19) 0.0182(18) 0.0198(19) 0.0003(16) -0.0026(17) 0.0036(16)
N3 0.018(2) 0.028(2) 0.021(2) -0.0035(18) -0.0012(17) 0.0045(18)
N4 0.019(2) 0.0198(19) 0.019(2) 0.0004(17) 0.0011(17) 0.0016(17)
N5 0.014(2) 0.022(2) 0.0172(19) -0.0031(16) -0.0006(16) 0.0053(16)
N6 0.024(2) 0.023(2) 0.027(2) -0.0008(19) -0.0046(19) 0.0066(18)
N7 0.034(3) 0.083(4) 0.038(3) -0.016(3) 0.000(3) 0.013(3)
N8 0.023(2) 0.036(2) 0.027(2) -0.005(2) 0.001(2) 0.003(2)
N9 0.038(3) 0.057(3) 0.059(4) -0.035(3) 0.009(3) 0.005(3)
N10 0.0091(19) 0.028(2) 0.022(2) -0.0009(18) -0.0025(16) 0.0040(16)
O1 0.0189(19) 0.044(2) 0.0288(19) 0.0008(17) 0.0058(16) 0.0111(17)
O2 0.0224(19) 0.045(2) 0.0299(19) 0.0036(17) 0.0014(17) 0.0106(18)
O3 0.031(2) 0.0275(18) 0.0250(18) 0.0057(15) 0.0047(16) 0.0093(16)
O4 0.025(2) 0.032(2) 0.034(2) 0.0092(17) -0.0040(17) 0.0003(17)
Zn1A 0.0141 0.021 0.0172 -0.0012 0.0005 0.0019
Zn1B 0.0141 0.021 0.0172 -0.0012 -0.0005 -0.0019
N4A 0.019 0.0198 0.019 -0.0004 -0.0011 0.0016
O3B 0.031 0.0275 0.025 -0.0057 0.0047 -0.0093
C45 0.030(4) 0.066(5) 0.158(10) 0.031(6) -0.005(5) 0.013(4)
C46 0.065(5) 0.049(4) 0.083(6) -0.024(4) -0.026(4) 0.003(4)
C47 0.115(8) 0.127(9) 0.046(4) 0.007(5) 0.024(5) -0.014(7)
C48 0.069(6) 0.107(7) 0.086(6) -0.038(6) -0.027(5) -0.019(5)
N11 0.085(5) 0.080(5) 0.069(4) 0.002(4) 0.006(4) 0.019(5)
O5 0.053(3) 0.136(5) 0.041(3) -0.016(3) 0.011(2) 0.004(3)
loop_
_geom_bond_atom_site_label_1
_geom_bond_atom_site_label_2
_geom_bond_site_symmetry_1
_geom_bond_site_symmetry_2
Zn1 N1 1_555 1_555
C1 H1 1_555 1_555
C2 H2 1_555 1_555
C3 H3 1_555 1_555
C4 H4 1_555 1_555
C5 H5 1_555 1_555
C6 H6 1_555 1_555
C7 C8 1_555 1_555
C8 H7 1_555 1_555
C9 C8 1_555 1_555
H8 C9 1_555 1_555
C10 C9 1_555 1_555
C11 C10 1_555 1_555
H9 C11 1_555 1_555
C12 C7 1_555 1_555
H10 C12 1_555 1_555
C13 C14 1_555 1_555
C14 H11 1_555 1_555
C15 C14 1_555 1_555
H12 C15 1_555 1_555
C16 C15 1_555 1_555
C17 C16 1_555 1_555
H13 C17 1_555 1_555
C18 C13 1_555 1_555
H14 C18 1_555 1_555
C19 C20 1_555 1_555
C20 H15 1_555 1_555
C21 C20 1_555 1_555
H16 C21 1_555 1_555
C22 C21 1_555 1_555
C23 C22 1_555 1_555
H17 C23 1_555 1_555
C24 C19 1_555 1_555
H18 C24 1_555 1_555
C25 C27 1_555 1_555
C26 C33 1_555 1_555
C27 C28 1_555 1_555
C28 H19 1_555 1_555
C29 C28 1_555 1_555
H20 C29 1_555 1_555
C30 C29 1_555 1_555
C31 C30 1_555 1_555
H21 C31 1_555 1_555
C32 C27 1_555 1_555
H22 C32 1_555 1_555
C33 C34 1_555 1_555
C34 H23 1_555 1_555
C35 C34 1_555 1_555
H24 C35 1_555 1_555
C36 C35 1_555 1_555
C37 C36 1_555 1_555
H25 C37 1_555 1_555
C38 C33 1_555 1_555
H26 C38 1_555 1_555
C39 C36 1_555 1_555
C40 C39 1_555 1_555
H27 C40 1_555 1_555
C41 C40 1_555 1_555
H28 C41 1_555 1_555
C42 C41 1_555 1_555
H29 C42 1_555 1_555
C43 C30 1_555 1_555
C44 C39 1_555 1_555
H30 C44 1_555 1_555
N1 C1 1_555 1_555
N2 C1 1_555 1_555
N3 C2 1_555 1_555
N4 C3 1_555 1_555
N5 C3 1_555 1_555
N6 C4 1_555 1_555
N7 C5 1_555 1_555
N8 C5 1_555 1_555
N9 C6 1_555 1_555
N10 C10 1_555 1_555
O1 Zn1 1_555 1_555
O2 C25 1_555 1_555
O3 C26 1_555 1_555
O4 C26 1_555 1_555
C45 C46 1_555 1_555
C46 H31 1_555 1_555
H32 C46 1_555 1_555
H33 C46 1_555 1_555
C47 H34 1_555 1_555
H35 C47 1_555 1_555
H36 C47 1_555 1_555
C48 H37 1_555 1_555
H38 C48 1_555 1_555
H39 C48 1_555 1_555
N11 C45 1_555 1_555
O5 C45 1_555 1_555
Zn1A N4 1_555 1_555
Zn1B O3 1_555 1_555
N4A Zn1 1_555 1_555
O3B Zn1 1_555 1_555
C2 N1 1_555 1_555
C4 N4 1_555 1_555
C6 N7 1_555 1_555
C7 N2 1_555 1_555
C11 C12 1_555 1_555
C13 N5 1_555 1_555
C16 N10 1_555 1_555
C17 C18 1_555 1_555
C19 N8 1_555 1_555
C22 N10 1_555 1_555
C23 C24 1_555 1_555
C25 O1 1_555 1_555
C31 C32 1_555 1_555
C37 C38 1_555 1_555
C42 C43 1_555 1_555
C43 C44 1_555 1_555
N2 N3 1_555 1_555
N5 N6 1_555 1_555
N8 N9 1_555 1_555
C47 N11 1_555 1_555
C48 N11 1_555 1_555

#END
